
###############################################################################
#
# This file contains modified crystal structure data generated from the
# MOF subset of the Cambridge Structural Database (CSD) v543 
# hosted by the Cambridge Crystallographic Data Centre (CCDC).
#
# This work is licensed under the Creative Commons
# Attribution-NonCommercial-ShareAlike 4.0 International License.
# To view a copy of this license, visit
# http://creativecommons.org/licenses/by-nc-sa/4.0/
# or send a letter to
# Creative Commons, PO Box 1866, Mountain View, CA 94042, USA.
#
# CIF created using the CSD Python API on 29 September 2022
# The structure has been converted into the P1 space group
# The structure has a 3D framework
# The original CSD entry WEHHOI is in the orthorhombic crystal system
# The framework has been calculated to contain at least 10.0% void space
# The void calculation uses a probe of radius 1.32A, grid spacing 0.4
# H atom positions have been added when not included in the experimental data
# Generated hydrogen atom positions removed from atoms on special positions
#
###############################################################################

data_WEHHOI
_chemical_formula_moiety         '(C182 H184 N8 O94 Zn16)n'
_symmetry_cell_setting           triclinic
_symmetry_space_group_name_H-M   'P 1'
_symmetry_Int_Tables_number      1
_space_group_name_Hall           'P 1'
loop_
_symmetry_equiv_pos_site_id
_symmetry_equiv_pos_as_xyz
1 x,y,z
_cell_length_a                   12.3100(7)
_cell_length_b                   26.2500(14)
_cell_length_c                   26.3410(14)
_cell_angle_alpha                90
_cell_angle_beta                 90
_cell_angle_gamma                90
_cell_volume                     8511.76
loop_
_atom_site_label
_atom_site_type_symbol
_atom_site_fract_x
_atom_site_fract_y
_atom_site_fract_z
Zn1 Zn 0.50749(3) 0.194453(13) 0.2500
Zn2 Zn 0.33914(3) 0.276397(13) 0.2500
Zn3 Zn 0.58267(2) 0.007338(9) 0.040895(10)
C2 C 0.02457(19) 0.23260(8) 0.04425(9)
H1 H 0.0793 0.2581 0.0518
C4 C 0.1570(2) 0.16648(9) 0.05957(9)
C5 C 0.2106(2) 0.12455(9) 0.03911(9)
H5 H 0.1872 0.1107 0.0085
C6 C 0.2982(2) 0.10352(9) 0.06392(9)
C7 C 0.3317(2) 0.12424(10) 0.10978(10)
H6 H 0.3904 0.1100 0.1270
C8 C 0.2782(2) 0.16609(9) 0.13017(9)
C9 C 0.1914(2) 0.18738(9) 0.10515(9)
H7 H 0.1560 0.2156 0.1187
C10 C 0.3630(2) 0.06154(9) 0.03951(10)
C11 C 0.3228(2) 0.19002(10) 0.17787(9)
C20 C 0.7251(4) 0.07425(17) 0.1086(2)
C21 C 0.6529(5) 0.12233(19) 0.1077(3)
H11 H 0.5786 0.1126 0.1023
H12 H 0.6760 0.1443 0.0806
H13 H 0.6592 0.1399 0.1395
C22 C 0.9137(11) 0.0531(7) 0.0795(8)
H14 H 0.9849 0.0631 0.0906
H15 H 0.9066 0.0594 0.0438
H16 H 0.9032 0.0175 0.0861
C23 C 0.8675(11) 0.1306(4) 0.1369(5)
H17 H 0.9452 0.1289 0.1397
H18 H 0.8360 0.1315 0.1702
H19 H 0.8475 0.1608 0.1187
N1 N 0.8266(7) 0.0845(4) 0.1089(6)
O1 O 0.07510(15) 0.18580(6) 0.02965(7)
O3 O 0.6245(2) 0.14230(10) 0.2500
O5 O 0.2306(3) 0.33150(12) 0.2500
O6 O 0.45086(15) 0.04955(7) 0.06104(7)
O7 O 0.40518(16) 0.16796(8) 0.19685(7)
O8 O 0.27813(14) 0.22925(7) 0.19470(6)
O13 O 0.68852(17) 0.02883(8) 0.09309(8)
Zn16 Zn 0.41733(2) 0.507338(9) 0.040895(10)
O16 O 0.32561(16) 0.45799(6) 0.00017(7)
O21 O 0.40518(16) 0.16796(8) 0.30315(7)
O23 O 0.27813(14) 0.22925(7) 0.30530(6)
O25 O 0.56591(16) 0.24220(7) 0.19672(7)
O26 O 0.56591(16) 0.24220(7) 0.30328(7)
O28 O 0.44407(15) 0.30442(7) 0.19602(6)
O29 O 0.44407(15) 0.30442(7) 0.30398(6)
O34 O 0.61702(15) 0.43690(6) 0.01105(7)
O4 O 0.32561(16) 0.04201(6) 0.99983(7)
Zn6 Zn 0.50749(3) 0.305547(13) 0.7500
Zn9 Zn 0.33914(3) 0.223603(13) 0.7500
Zn10 Zn 0.58267(2) 0.492662(9) 0.959105(10)
C24 C 0.02457(19) 0.26740(8) 0.95575(9)
H20 H 0.0793 0.2419 0.9482
C26 C 0.1570(2) 0.33352(9) 0.94043(9)
C27 C 0.2106(2) 0.37545(9) 0.96089(9)
H24 H 0.1872 0.3893 0.9915
C28 C 0.2982(2) 0.39648(9) 0.93608(9)
C29 C 0.3317(2) 0.37576(10) 0.89022(10)
H25 H 0.3904 0.3900 0.8730
C30 C 0.2782(2) 0.33391(9) 0.86983(9)
C31 C 0.1914(2) 0.31262(9) 0.89485(9)
H26 H 0.1560 0.2844 0.8813
C32 C 0.3630(2) 0.43846(9) 0.96049(10)
C33 C 0.3228(2) 0.30998(10) 0.82213(9)
C42 C 0.7251(4) 0.42575(17) 0.8914(2)
C43 C 0.6529(5) 0.37767(19) 0.8923(3)
H30 H 0.5786 0.3874 0.8977
H31 H 0.6760 0.3557 0.9194
H32 H 0.6592 0.3601 0.8605
C44 C 0.9137(11) 0.4469(7) 0.9205(8)
H33 H 0.9849 0.4369 0.9094
H34 H 0.9066 0.4406 0.9562
H35 H 0.9032 0.4825 0.9139
C45 C 0.8675(11) 0.3694(4) 0.8631(5)
H36 H 0.9452 0.3711 0.8603
H37 H 0.8360 0.3685 0.8298
H38 H 0.8475 0.3392 0.8813
N2 N 0.8266(7) 0.4155(4) 0.8911(6)
O14 O 0.07510(15) 0.31420(6) 0.97035(7)
O18 O 0.67439(16) 0.54201(6) 0.99983(7)
O19 O 0.45086(15) 0.45045(7) 0.93896(7)
O20 O 0.40518(16) 0.33204(8) 0.80315(7)
O22 O 0.27813(14) 0.27075(7) 0.80530(6)
O31 O 0.50859(15) 0.55433(6) 0.92807(7)
O35 O 0.61702(15) 0.06310(6) 0.98895(7)
O36 O 0.68852(17) 0.47117(8) 0.90691(8)
O17 O 0.67439(16) 0.95799(6) 0.00017(7)
O32 O 0.50859(15) 0.94567(6) 0.07193(7)
Zn14 Zn 0.41733(2) 0.992662(9) 0.959105(10)
C1 C 0.9542(2) 0.2500 0.0000
H2 H 0.9803 0.2275 0.0743
C3 C 0.88231(19) 0.29420(9) 0.01795(9)
H3 H 0.9269 0.3226 0.0290
C12 C 0.7010(2) 0.35025(9) 0.05597(9)
H8 H 0.7387 0.3645 0.0289
C13 C 0.7342(2) 0.30453(9) 0.07652(10)
C14 C 0.6784(2) 0.28415(9) 0.11806(9)
H9 H 0.7025 0.2539 0.1327
C15 C 0.6103(2) 0.37500(9) 0.07614(9)
C16 C 0.5544(2) 0.35393(9) 0.11641(9)
H10 H 0.4937 0.3704 0.1295
C17 C 0.5888(2) 0.30809(9) 0.13745(9)
C18 C 0.5271(2) 0.28341(10) 0.18036(9)
C19 C 0.5704(2) 0.42340(9) 0.05119(10)
O2 O 0.81855(15) 0.27581(6) 0.05894(7)
O11 O 0.49141(15) 0.44567(6) 0.07193(7)
H23 H 0.8358 0.1943 0.0095
C1_2 C 0.9542(2) 0.2500 1.0000
H4 H 0.8358 0.3057 0.9905
H21 H 0.9803 0.2725 0.9257
C25 C 0.88231(19) 0.20580(9) 0.98205(9)
H22 H 0.9269 0.1774 0.9710
C34 C 0.7010(2) 0.14975(9) 0.94403(9)
H27 H 0.7387 0.1355 0.9711
C35 C 0.7342(2) 0.19547(9) 0.92348(10)
C36 C 0.6784(2) 0.21585(9) 0.88194(9)
H28 H 0.7025 0.2461 0.8673
C37 C 0.6103(2) 0.12500(9) 0.92386(9)
C38 C 0.5544(2) 0.14607(9) 0.88359(9)
H29 H 0.4937 0.1296 0.8705
C39 C 0.5888(2) 0.19191(9) 0.86255(9)
C40 C 0.5271(2) 0.21659(10) 0.81964(9)
C41 C 0.5704(2) 0.07660(9) 0.94881(10)
O15 O 0.81855(15) 0.22419(6) 0.94106(7)
O24 O 0.56591(16) 0.25780(7) 0.80328(7)
O27 O 0.44407(15) 0.19558(7) 0.80398(6)
O30 O 0.49141(15) 0.05433(6) 0.92807(7)
Zn13 Zn 0.58267(2) 0.007338(9) 0.459105(10)
C1_3 C 0.0458(2) 0.7500 0.5000
H2_2 H 0.0197 0.7725 0.5743
C3_2 C 0.11769(19) 0.70580(9) 0.51795(9)
H3_2 H 0.0731 0.6774 0.5290
H4_2 H 0.1642 0.6943 0.4905
C12_2 C 0.2990(2) 0.64975(9) 0.55597(9)
H8_2 H 0.2613 0.6355 0.5289
C13_2 C 0.2658(2) 0.69547(9) 0.57652(10)
C14_2 C 0.3216(2) 0.71585(9) 0.61806(9)
H9_2 H 0.2975 0.7461 0.6327
C15_2 C 0.3897(2) 0.62500(9) 0.57614(9)
C16_2 C 0.4456(2) 0.64607(9) 0.61641(9)
H10_2 H 0.5063 0.6296 0.6295
C17_2 C 0.4112(2) 0.69191(9) 0.63745(9)
C18_2 C 0.4729(2) 0.71659(10) 0.68036(9)
C19_2 C 0.4296(2) 0.57660(9) 0.55119(10)
O2_2 O 0.18145(15) 0.72419(6) 0.55894(7)
O9 O 0.43409(16) 0.75780(7) 0.69672(7)
O10 O 0.55593(15) 0.69558(7) 0.69602(6)
O11_2 O 0.50859(15) 0.55433(6) 0.57193(7)
O12 O 0.38298(15) 0.56310(6) 0.51105(7)
Zn4 Zn 0.49251(3) 0.805547(13) 0.7500
Zn5 Zn 0.49251(3) 0.694453(13) 0.2500
Zn7 Zn 0.66086(3) 0.723603(13) 0.7500
Zn8 Zn 0.66086(3) 0.776397(13) 0.2500
Zn11 Zn 0.41733(2) 0.992662(9) 0.540895(10)
Zn12 Zn 0.41733(2) 0.507338(9) 0.459105(10)
Zn15 Zn 0.58267(2) 0.492662(9) 0.540895(10)
H21_2 H 0.0197 0.7275 0.4257
C25_2 C 0.11769(19) 0.79420(9) 0.48205(9)
H22_2 H 0.0731 0.8226 0.4710
H23_2 H 0.1642 0.8057 0.5095
C34_2 C 0.2990(2) 0.85025(9) 0.44403(9)
H27_2 H 0.2613 0.8645 0.4711
C35_2 C 0.2658(2) 0.80453(9) 0.42348(10)
C36_2 C 0.3216(2) 0.78415(9) 0.38194(9)
H28_2 H 0.2975 0.7539 0.3673
C37_2 C 0.3897(2) 0.87500(9) 0.42386(9)
C38_2 C 0.4456(2) 0.85393(9) 0.38359(9)
H29_2 H 0.5063 0.8704 0.3705
C39_2 C 0.4112(2) 0.80809(9) 0.36255(9)
C40_2 C 0.4729(2) 0.78341(10) 0.31964(9)
C41_2 C 0.4296(2) 0.92340(9) 0.44881(10)
O15_2 O 0.18145(15) 0.77581(6) 0.44106(7)
O24_2 O 0.43409(16) 0.74220(7) 0.30328(7)
O27_2 O 0.55593(15) 0.80442(7) 0.30398(6)
O30_2 O 0.50859(15) 0.94567(6) 0.42807(7)
O33 O 0.38298(15) 0.93690(6) 0.48895(7)
O17_2 O 0.32561(16) 0.04201(6) 0.50017(7)
O32_2 O 0.49141(15) 0.05433(6) 0.57193(7)
C2_2 C 0.97543(19) 0.76740(8) 0.54425(9)
H1_2 H 0.9207 0.7419 0.5518
C4_2 C 0.8430(2) 0.83352(9) 0.55957(9)
C5_2 C 0.7894(2) 0.87545(9) 0.53911(9)
H5_2 H 0.8128 0.8893 0.5085
C6_2 C 0.7018(2) 0.89648(9) 0.56392(9)
C7_2 C 0.6683(2) 0.87576(10) 0.60978(10)
H6_2 H 0.6096 0.8900 0.6270
C8_2 C 0.7218(2) 0.83391(9) 0.63017(9)
C9_2 C 0.8086(2) 0.81262(9) 0.60515(9)
H7_2 H 0.8440 0.7844 0.6187
C10_2 C 0.6370(2) 0.93846(9) 0.53951(10)
C11_2 C 0.6772(2) 0.80998(10) 0.67787(9)
C20_2 C 0.2749(4) 0.92575(17) 0.6086(2)
C21_2 C 0.3471(5) 0.87767(19) 0.6077(3)
H11_2 H 0.4214 0.8874 0.6023
H12_2 H 0.3240 0.8557 0.5806
H13_2 H 0.3408 0.8601 0.6395
C22_2 C 0.0863(11) 0.9469(7) 0.5795(8)
H14_2 H 0.0151 0.9369 0.5906
H15_2 H 0.0934 0.9406 0.5438
H16_2 H 0.0968 0.9825 0.5861
C23_2 C 0.1325(11) 0.8694(4) 0.6369(5)
H17_2 H 0.0548 0.8711 0.6397
H18_2 H 0.1640 0.8685 0.6702
H19_2 H 0.1525 0.8392 0.6187
N1_2 N 0.1734(7) 0.9155(4) 0.6089(6)
O1_2 O 0.92490(15) 0.81420(6) 0.52965(7)
O3_2 O 0.3755(2) 0.85770(10) 0.7500
O4_2 O 0.67439(16) 0.95799(6) 0.49983(7)
O5_2 O 0.7694(3) 0.66850(12) 0.7500
O6_2 O 0.54914(15) 0.95045(7) 0.56104(7)
O7_2 O 0.59482(16) 0.83204(8) 0.69685(7)
O8_2 O 0.72187(14) 0.77075(7) 0.69470(6)
O13_2 O 0.31148(17) 0.97117(8) 0.59309(8)
C24_2 C 0.97543(19) 0.73260(8) 0.45575(9)
H20_2 H 0.9207 0.7581 0.4482
C26_2 C 0.8430(2) 0.66648(9) 0.44043(9)
C27_2 C 0.7894(2) 0.62455(9) 0.46089(9)
H24_2 H 0.8128 0.6107 0.4915
C28_2 C 0.7018(2) 0.60352(9) 0.43608(9)
C29_2 C 0.6683(2) 0.62424(10) 0.39022(10)
H25_2 H 0.6096 0.6100 0.3730
C30_2 C 0.7218(2) 0.66609(9) 0.36983(9)
C31_2 C 0.8086(2) 0.68738(9) 0.39485(9)
H26_2 H 0.8440 0.7156 0.3813
C32_2 C 0.6370(2) 0.56154(9) 0.46049(10)
C33_2 C 0.6772(2) 0.69002(10) 0.32213(9)
C42_2 C 0.2749(4) 0.57425(17) 0.3914(2)
C43_2 C 0.3471(5) 0.62233(19) 0.3923(3)
H30_2 H 0.4214 0.6126 0.3977
H31_2 H 0.3240 0.6443 0.4194
H32_2 H 0.3408 0.6399 0.3605
C44_2 C 0.0863(11) 0.5531(7) 0.4205(8)
H33_2 H 0.0151 0.5631 0.4094
H34_2 H 0.0934 0.5594 0.4562
H35_2 H 0.0968 0.5175 0.4139
C45_2 C 0.1325(11) 0.6306(4) 0.3631(5)
H36_2 H 0.0548 0.6289 0.3603
H37_2 H 0.1640 0.6315 0.3298
H38_2 H 0.1525 0.6608 0.3813
N2_2 N 0.1734(7) 0.5845(4) 0.3911(6)
O14_2 O 0.92490(15) 0.68580(6) 0.47035(7)
O16_2 O 0.67439(16) 0.54201(6) 0.50017(7)
O18_2 O 0.32561(16) 0.45799(6) 0.49983(7)
O19_2 O 0.54914(15) 0.54955(7) 0.43896(7)
O20_2 O 0.59482(16) 0.66796(8) 0.30315(7)
O21_2 O 0.59482(16) 0.83204(8) 0.80315(7)
O22_2 O 0.72187(14) 0.72925(7) 0.30530(6)
O23_2 O 0.72187(14) 0.77075(7) 0.80530(6)
O26_2 O 0.43409(16) 0.75780(7) 0.80328(7)
O29_2 O 0.55593(15) 0.69558(7) 0.80398(6)
O31_2 O 0.49141(15) 0.44567(6) 0.42807(7)
O36_2 O 0.31148(17) 0.52883(8) 0.40691(8)
O3_3 O 0.6245(2) 0.35770(10) 0.7500
O5_3 O 0.2306(3) 0.16850(12) 0.7500
O21_3 O 0.40518(16) 0.33204(8) 0.69685(7)
O23_3 O 0.27813(14) 0.27075(7) 0.69470(6)
O26_3 O 0.56591(16) 0.25780(7) 0.69672(7)
O29_3 O 0.44407(15) 0.19558(7) 0.69602(6)
O3_4 O 0.3755(2) 0.64230(10) 0.2500
O5_4 O 0.7694(3) 0.83150(12) 0.2500
O21_4 O 0.59482(16) 0.66796(8) 0.19685(7)
O23_4 O 0.72187(14) 0.72925(7) 0.19470(6)
O26_4 O 0.43409(16) 0.74220(7) 0.19672(7)
O29_4 O 0.55593(15) 0.80442(7) 0.19602(6)
C1_4 C 0.0458(2) 0.7500 0.0000
H4_3 H 0.1642 0.6943 0.0095
H21_3 H 0.0197 0.7275 0.0743
C25_3 C 0.11769(19) 0.79420(9) 0.01795(9)
H22_3 H 0.0731 0.8226 0.0290
C34_3 C 0.2990(2) 0.85025(9) 0.05597(9)
H27_3 H 0.2613 0.8645 0.0289
C35_3 C 0.2658(2) 0.80453(9) 0.07652(10)
C36_3 C 0.3216(2) 0.78415(9) 0.11806(9)
H28_3 H 0.2975 0.7539 0.1327
C37_3 C 0.3897(2) 0.87500(9) 0.07614(9)
C38_3 C 0.4456(2) 0.85393(9) 0.11641(9)
H29_3 H 0.5063 0.8704 0.1295
C39_3 C 0.4112(2) 0.80809(9) 0.13745(9)
C40_3 C 0.4729(2) 0.78341(10) 0.18036(9)
C41_3 C 0.4296(2) 0.92340(9) 0.05119(10)
O15_3 O 0.18145(15) 0.77581(6) 0.05894(7)
O33_2 O 0.38298(15) 0.93690(6) 0.01105(7)
C1_5 C 0.0458(2) 0.7500 1.0000
H2_3 H 0.0197 0.7725 0.9257
C3_3 C 0.11769(19) 0.70580(9) 0.98205(9)
H3_3 H 0.0731 0.6774 0.9710
C12_3 C 0.2990(2) 0.64975(9) 0.94403(9)
H8_3 H 0.2613 0.6355 0.9711
C13_3 C 0.2658(2) 0.69547(9) 0.92348(10)
C14_3 C 0.3216(2) 0.71585(9) 0.88194(9)
H9_3 H 0.2975 0.7461 0.8673
C15_3 C 0.3897(2) 0.62500(9) 0.92386(9)
C16_3 C 0.4456(2) 0.64607(9) 0.88359(9)
H10_3 H 0.5063 0.6296 0.8705
C17_3 C 0.4112(2) 0.69191(9) 0.86255(9)
C18_3 C 0.4729(2) 0.71659(10) 0.81964(9)
C19_3 C 0.4296(2) 0.57660(9) 0.94881(10)
O2_3 O 0.18145(15) 0.72419(6) 0.94106(7)
O12_2 O 0.38298(15) 0.56310(6) 0.98895(7)
H23_3 H 0.1642 0.8057 0.9905
C24_3 C 0.97543(19) 0.73260(8) 0.04425(9)
H20_3 H 0.9207 0.7581 0.0518
C26_3 C 0.8430(2) 0.66648(9) 0.05957(9)
C27_3 C 0.7894(2) 0.62455(9) 0.03911(9)
H24_3 H 0.8128 0.6107 0.0085
C28_3 C 0.7018(2) 0.60352(9) 0.06392(9)
C29_3 C 0.6683(2) 0.62424(10) 0.10978(10)
H25_3 H 0.6096 0.6100 0.1270
C30_3 C 0.7218(2) 0.66609(9) 0.13017(9)
C31_3 C 0.8086(2) 0.68738(9) 0.10515(9)
H26_3 H 0.8440 0.7156 0.1187
C32_3 C 0.6370(2) 0.56154(9) 0.03951(10)
C33_3 C 0.6772(2) 0.69002(10) 0.17787(9)
C42_3 C 0.2749(4) 0.57425(17) 0.1086(2)
C43_3 C 0.3471(5) 0.62233(19) 0.1077(3)
H30_3 H 0.4214 0.6126 0.1023
H31_3 H 0.3240 0.6443 0.0806
H32_3 H 0.3408 0.6399 0.1395
C44_3 C 0.0863(11) 0.5531(7) 0.0795(8)
H33_3 H 0.0151 0.5631 0.0906
H34_3 H 0.0934 0.5594 0.0438
H35_3 H 0.0968 0.5175 0.0861
C45_3 C 0.1325(11) 0.6306(4) 0.1369(5)
H36_3 H 0.0548 0.6289 0.1397
H37_3 H 0.1640 0.6315 0.1702
H38_3 H 0.1525 0.6608 0.1187
N2_3 N 0.1734(7) 0.5845(4) 0.1089(6)
O14_3 O 0.92490(15) 0.68580(6) 0.02965(7)
O19_3 O 0.54914(15) 0.54955(7) 0.06104(7)
O36_3 O 0.31148(17) 0.52883(8) 0.09309(8)
C2_3 C 0.97543(19) 0.76740(8) 0.95575(9)
H1_3 H 0.9207 0.7419 0.9482
C4_3 C 0.8430(2) 0.83352(9) 0.94043(9)
C5_3 C 0.7894(2) 0.87545(9) 0.96089(9)
H5_3 H 0.8128 0.8893 0.9915
C6_3 C 0.7018(2) 0.89648(9) 0.93608(9)
C7_3 C 0.6683(2) 0.87576(10) 0.89022(10)
H6_3 H 0.6096 0.8900 0.8730
C8_3 C 0.7218(2) 0.83391(9) 0.86983(9)
C9_3 C 0.8086(2) 0.81262(9) 0.89485(9)
H7_3 H 0.8440 0.7844 0.8813
C10_3 C 0.6370(2) 0.93846(9) 0.96049(10)
C11_3 C 0.6772(2) 0.80998(10) 0.82213(9)
C20_3 C 0.2749(4) 0.92575(17) 0.8914(2)
C21_3 C 0.3471(5) 0.87767(19) 0.8923(3)
H11_3 H 0.4214 0.8874 0.8977
H12_3 H 0.3240 0.8557 0.9194
H13_3 H 0.3408 0.8601 0.8605
C22_3 C 0.0863(11) 0.9469(7) 0.9205(8)
H14_3 H 0.0151 0.9369 0.9094
H15_3 H 0.0934 0.9406 0.9562
H16_3 H 0.0968 0.9825 0.9139
C23_3 C 0.1325(11) 0.8694(4) 0.8631(5)
H17_3 H 0.0548 0.8711 0.8603
H18_3 H 0.1640 0.8685 0.8298
H19_3 H 0.1525 0.8392 0.8813
N1_3 N 0.1734(7) 0.9155(4) 0.8911(6)
O1_3 O 0.92490(15) 0.81420(6) 0.97035(7)
O6_3 O 0.54914(15) 0.95045(7) 0.93896(7)
O13_3 O 0.31148(17) 0.97117(8) 0.90691(8)
C2_4 C 0.02457(19) 0.23260(8) 0.45575(9)
H1_4 H 0.0793 0.2581 0.4482
C4_4 C 0.1570(2) 0.16648(9) 0.44043(9)
C5_4 C 0.2106(2) 0.12455(9) 0.46089(9)
H5_4 H 0.1872 0.1107 0.4915
C6_4 C 0.2982(2) 0.10352(9) 0.43608(9)
C7_4 C 0.3317(2) 0.12424(10) 0.39022(10)
H6_4 H 0.3904 0.1100 0.3730
C8_4 C 0.2782(2) 0.16609(9) 0.36983(9)
C9_4 C 0.1914(2) 0.18738(9) 0.39485(9)
H7_4 H 0.1560 0.2156 0.3813
C10_4 C 0.3630(2) 0.06154(9) 0.46049(10)
C11_4 C 0.3228(2) 0.19002(10) 0.32213(9)
C20_4 C 0.7251(4) 0.07425(17) 0.3914(2)
C21_4 C 0.6529(5) 0.12233(19) 0.3923(3)
H11_4 H 0.5786 0.1126 0.3977
H12_4 H 0.6760 0.1443 0.4194
H13_4 H 0.6592 0.1399 0.3605
C22_4 C 0.9137(11) 0.0531(7) 0.4205(8)
H14_4 H 0.9849 0.0631 0.4094
H15_4 H 0.9066 0.0594 0.4562
H16_4 H 0.9032 0.0175 0.4139
C23_4 C 0.8675(11) 0.1306(4) 0.3631(5)
H17_4 H 0.9452 0.1289 0.3603
H18_4 H 0.8360 0.1315 0.3298
H19_4 H 0.8475 0.1608 0.3813
N1_4 N 0.8266(7) 0.0845(4) 0.3911(6)
O1_4 O 0.07510(15) 0.18580(6) 0.47035(7)
O6_4 O 0.45086(15) 0.04955(7) 0.43896(7)
O13_4 O 0.68852(17) 0.02883(8) 0.40691(8)
C24_4 C 0.02457(19) 0.26740(8) 0.54425(9)
H20_4 H 0.0793 0.2419 0.5518
C26_4 C 0.1570(2) 0.33352(9) 0.55957(9)
C27_4 C 0.2106(2) 0.37545(9) 0.53911(9)
H24_4 H 0.1872 0.3893 0.5085
C28_4 C 0.2982(2) 0.39648(9) 0.56392(9)
C29_4 C 0.3317(2) 0.37576(10) 0.60978(10)
H25_4 H 0.3904 0.3900 0.6270
C30_4 C 0.2782(2) 0.33391(9) 0.63017(9)
C31_4 C 0.1914(2) 0.31262(9) 0.60515(9)
H26_4 H 0.1560 0.2844 0.6187
C32_4 C 0.3630(2) 0.43846(9) 0.53951(10)
C33_4 C 0.3228(2) 0.30998(10) 0.67787(9)
C42_4 C 0.7251(4) 0.42575(17) 0.6086(2)
C43_4 C 0.6529(5) 0.37767(19) 0.6077(3)
H30_4 H 0.5786 0.3874 0.6023
H31_4 H 0.6760 0.3557 0.5806
H32_4 H 0.6592 0.3601 0.6395
C44_4 C 0.9137(11) 0.4469(7) 0.5795(8)
H33_4 H 0.9849 0.4369 0.5906
H34_4 H 0.9066 0.4406 0.5438
H35_4 H 0.9032 0.4825 0.5861
C45_4 C 0.8675(11) 0.3694(4) 0.6369(5)
H36_4 H 0.9452 0.3711 0.6397
H37_4 H 0.8360 0.3685 0.6702
H38_4 H 0.8475 0.3392 0.6187
N2_4 N 0.8266(7) 0.4155(4) 0.6089(6)
O14_4 O 0.07510(15) 0.31420(6) 0.52965(7)
O19_4 O 0.45086(15) 0.45045(7) 0.56104(7)
O34_2 O 0.61702(15) 0.43690(6) 0.48895(7)
O35_2 O 0.61702(15) 0.06310(6) 0.51105(7)
O36_4 O 0.68852(17) 0.47117(8) 0.59309(8)
C1_6 C 0.9542(2) 0.2500 0.5000
H2_4 H 0.9803 0.2275 0.4257
C3_4 C 0.88231(19) 0.29420(9) 0.48205(9)
H3_4 H 0.9269 0.3226 0.4710
H4_4 H 0.8358 0.3057 0.5095
C12_4 C 0.7010(2) 0.35025(9) 0.44403(9)
H8_4 H 0.7387 0.3645 0.4711
C13_4 C 0.7342(2) 0.30453(9) 0.42348(10)
C14_4 C 0.6784(2) 0.28415(9) 0.38194(9)
H9_4 H 0.7025 0.2539 0.3673
C15_4 C 0.6103(2) 0.37500(9) 0.42386(9)
C16_4 C 0.5544(2) 0.35393(9) 0.38359(9)
H10_4 H 0.4937 0.3704 0.3705
C17_4 C 0.5888(2) 0.30809(9) 0.36255(9)
C18_4 C 0.5271(2) 0.28341(10) 0.31964(9)
C19_4 C 0.5704(2) 0.42340(9) 0.44881(10)
O2_4 O 0.81855(15) 0.27581(6) 0.44106(7)
H21_4 H 0.9803 0.2725 0.5743
C25_4 C 0.88231(19) 0.20580(9) 0.51795(9)
H22_4 H 0.9269 0.1774 0.5290
H23_4 H 0.8358 0.1943 0.4905
C34_4 C 0.7010(2) 0.14975(9) 0.55597(9)
H27_4 H 0.7387 0.1355 0.5289
C35_4 C 0.7342(2) 0.19547(9) 0.57652(10)
C36_4 C 0.6784(2) 0.21585(9) 0.61806(9)
H28_4 H 0.7025 0.2461 0.6327
C37_4 C 0.6103(2) 0.12500(9) 0.57614(9)
C38_4 C 0.5544(2) 0.14607(9) 0.61641(9)
H29_4 H 0.4937 0.1296 0.6295
C39_4 C 0.5888(2) 0.19191(9) 0.63745(9)
C40_4 C 0.5271(2) 0.21659(10) 0.68036(9)
C41_4 C 0.5704(2) 0.07660(9) 0.55119(10)
O15_4 O 0.81855(15) 0.22419(6) 0.55894(7)
loop_
_geom_bond_atom_site_label_1
_geom_bond_atom_site_label_2
_geom_bond_site_symmetry_1
_geom_bond_site_symmetry_2
Zn1 O3 1_555 1_555
Zn2 O5 1_555 1_555
Zn3 O6 1_555 1_555
C2 H1 1_555 1_555
C4 C5 1_555 1_555
C5 H5 1_555 1_555
C6 C5 1_555 1_555
C7 C6 1_555 1_555
H6 C7 1_555 1_555
C8 C7 1_555 1_555
C9 C4 1_555 1_555
H7 C9 1_555 1_555
C10 C6 1_555 1_555
C11 C8 1_555 1_555
C20 C21 1_555 1_555
C21 H11 1_555 1_555
H12 C21 1_555 1_555
H13 C21 1_555 1_555
C22 H14 1_555 1_555
H15 C22 1_555 1_555
H16 C22 1_555 1_555
C23 H17 1_555 1_555
H18 C23 1_555 1_555
H19 C23 1_555 1_555
N1 C20 1_555 1_555
O1 C2 1_555 1_555
O6 C10 1_555 1_555
O7 Zn1 1_555 1_555
O8 Zn2 1_555 1_555
O13 Zn3 1_555 1_555
Zn16 O16 1_555 1_555
O21 Zn1 1_555 1_555
O23 Zn2 1_555 1_555
O25 Zn1 1_555 1_555
O26 Zn1 1_555 1_555
O28 Zn2 1_555 1_555
O29 Zn2 1_555 1_555
C4 O1 1_555 1_555
C8 C9 1_555 1_555
C11 O7 1_555 1_555
C11 O8 1_555 1_555
C20 O13 1_555 1_555
C22 N1 1_555 1_555
C23 N1 1_555 1_555
Zn6 O20 1_555 1_555
Zn9 O22 1_555 1_555
Zn10 O18 1_555 1_555
H20 C24 1_555 1_555
C26 C27 1_555 1_555
C27 H24 1_555 1_555
C28 C27 1_555 1_555
C29 C28 1_555 1_555
H25 C29 1_555 1_555
C30 C29 1_555 1_555
C31 C26 1_555 1_555
H26 C31 1_555 1_555
C32 C28 1_555 1_555
C33 C30 1_555 1_555
C42 C43 1_555 1_555
C43 H30 1_555 1_555
H31 C43 1_555 1_555
H32 C43 1_555 1_555
C44 H33 1_555 1_555
H34 C44 1_555 1_555
H35 C44 1_555 1_555
C45 H36 1_555 1_555
H37 C45 1_555 1_555
H38 C45 1_555 1_555
N2 C42 1_555 1_555
O14 C24 1_555 1_555
O19 Zn10 1_555 1_555
O20 C33 1_555 1_555
O22 C33 1_555 1_555
O31 Zn10 1_555 1_555
O36 Zn10 1_555 1_555
C26 O14 1_555 1_555
C30 C31 1_555 1_555
C32 O19 1_555 1_555
C42 O36 1_555 1_555
C44 N2 1_555 1_555
C45 N2 1_555 1_555
C3 C1 1_555 1_555
H3 C3 1_555 1_555
C12 H8 1_555 1_555
C13 C12 1_555 1_555
C14 C13 1_555 1_555
H9 C14 1_555 1_555
C15 C12 1_555 1_555
C16 C15 1_555 1_555
H10 C16 1_555 1_555
C17 C14 1_555 1_555
C18 C17 1_555 1_555
C19 C15 1_555 1_555
O2 C3 1_555 1_555
O25 C18 1_555 1_555
O28 C18 1_555 1_555
O11 C19 1_555 1_555
O34 C19 1_555 1_555
Zn16 O11 1_555 1_555
C13 O2 1_555 1_555
C16 C17 1_555 1_555
Zn6 O24 1_555 1_555
Zn9 O27 1_555 1_555
C25 C1_2 1_555 1_555
H22 C25 1_555 1_555
C34 H27 1_555 1_555
C35 C34 1_555 1_555
C36 C35 1_555 1_555
H28 C36 1_555 1_555
C37 C34 1_555 1_555
C38 C37 1_555 1_555
H29 C38 1_555 1_555
C39 C36 1_555 1_555
C40 C39 1_555 1_555
C41 C37 1_555 1_555
O15 C25 1_555 1_555
O24 C40 1_555 1_555
O27 C40 1_555 1_555
O30 C41 1_555 1_555
O35 C41 1_555 1_555
C35 O15 1_555 1_555
C38 C39 1_555 1_555
C3_2 C1_3 1_555 1_555
H3_2 C3_2 1_555 1_555
H4_2 C3_2 1_555 1_555
C12_2 H8_2 1_555 1_555
C13_2 C12_2 1_555 1_555
C14_2 C13_2 1_555 1_555
H9_2 C14_2 1_555 1_555
C15_2 C12_2 1_555 1_555
C16_2 C15_2 1_555 1_555
H10_2 C16_2 1_555 1_555
C17_2 C14_2 1_555 1_555
C18_2 C17_2 1_555 1_555
C19_2 C15_2 1_555 1_555
O2_2 C3_2 1_555 1_555
O9 C18_2 1_555 1_555
O10 C18_2 1_555 1_555
O11_2 C19_2 1_555 1_555
O12 C19_2 1_555 1_555
Zn4 O9 1_555 1_555
Zn5 O24_2 1_555 1_555
Zn7 O10 1_555 1_555
Zn8 O27_2 1_555 1_555
Zn11 O33 1_555 1_555
Zn12 O12 1_555 1_555
Zn15 O11_2 1_555 1_555
C25_2 C1_3 1_555 1_555
H22_2 C25_2 1_555 1_555
H23_2 C25_2 1_555 1_555
C34_2 H27_2 1_555 1_555
C35_2 C34_2 1_555 1_555
C36_2 C35_2 1_555 1_555
H28_2 C36_2 1_555 1_555
C37_2 C34_2 1_555 1_555
C38_2 C37_2 1_555 1_555
H29_2 C38_2 1_555 1_555
C39_2 C36_2 1_555 1_555
C40_2 C39_2 1_555 1_555
C41_2 C37_2 1_555 1_555
O15_2 C25_2 1_555 1_555
O24_2 C40_2 1_555 1_555
O27_2 C40_2 1_555 1_555
O30_2 C41_2 1_555 1_555
O33 C41_2 1_555 1_555
C13_2 O2_2 1_555 1_555
C16_2 C17_2 1_555 1_555
C35_2 O15_2 1_555 1_555
C38_2 C39_2 1_555 1_555
Zn4 O3_2 1_555 1_555
Zn7 O5_2 1_555 1_555
Zn11 O6_2 1_555 1_555
C2_2 H1_2 1_555 1_555
C4_2 C5_2 1_555 1_555
C5_2 H5_2 1_555 1_555
C6_2 C5_2 1_555 1_555
C7_2 C6_2 1_555 1_555
H6_2 C7_2 1_555 1_555
C8_2 C7_2 1_555 1_555
C9_2 C4_2 1_555 1_555
H7_2 C9_2 1_555 1_555
C10_2 C6_2 1_555 1_555
C11_2 C8_2 1_555 1_555
C20_2 C21_2 1_555 1_555
C21_2 H11_2 1_555 1_555
H12_2 C21_2 1_555 1_555
H13_2 C21_2 1_555 1_555
C22_2 H14_2 1_555 1_555
H15_2 C22_2 1_555 1_555
H16_2 C22_2 1_555 1_555
C23_2 H17_2 1_555 1_555
H18_2 C23_2 1_555 1_555
H19_2 C23_2 1_555 1_555
N1_2 C20_2 1_555 1_555
O1_2 C2_2 1_555 1_555
O4_2 C10_2 1_555 1_555
O6_2 C10_2 1_555 1_555
O7_2 Zn4 1_555 1_555
O8_2 Zn7 1_555 1_555
O13_2 Zn11 1_555 1_555
Zn5 O20_2 1_555 1_555
Zn8 O22_2 1_555 1_555
Zn12 O18_2 1_555 1_555
Zn15 O16_2 1_555 1_555
H20_2 C24_2 1_555 1_555
C26_2 C27_2 1_555 1_555
C27_2 H24_2 1_555 1_555
C28_2 C27_2 1_555 1_555
C29_2 C28_2 1_555 1_555
H25_2 C29_2 1_555 1_555
C30_2 C29_2 1_555 1_555
C31_2 C26_2 1_555 1_555
H26_2 C31_2 1_555 1_555
C32_2 C28_2 1_555 1_555
C33_2 C30_2 1_555 1_555
C42_2 C43_2 1_555 1_555
C43_2 H30_2 1_555 1_555
H31_2 C43_2 1_555 1_555
H32_2 C43_2 1_555 1_555
C44_2 H33_2 1_555 1_555
H34_2 C44_2 1_555 1_555
H35_2 C44_2 1_555 1_555
C45_2 H36_2 1_555 1_555
H37_2 C45_2 1_555 1_555
H38_2 C45_2 1_555 1_555
N2_2 C42_2 1_555 1_555
O14_2 C24_2 1_555 1_555
O16_2 C32_2 1_555 1_555
O19_2 Zn12 1_555 1_555
O20_2 C33_2 1_555 1_555
O21_2 Zn4 1_555 1_555
O22_2 C33_2 1_555 1_555
O23_2 Zn7 1_555 1_555
O26_2 Zn4 1_555 1_555
O29_2 Zn7 1_555 1_555
O31_2 Zn12 1_555 1_555
O36_2 Zn12 1_555 1_555
C4_2 O1_2 1_555 1_555
C8_2 C9_2 1_555 1_555
C11_2 O7_2 1_555 1_555
C11_2 O8_2 1_555 1_555
C20_2 O13_2 1_555 1_555
C22_2 N1_2 1_555 1_555
C23_2 N1_2 1_555 1_555
C26_2 O14_2 1_555 1_555
C30_2 C31_2 1_555 1_555
C32_2 O19_2 1_555 1_555
C42_2 O36_2 1_555 1_555
C44_2 N2_2 1_555 1_555
C45_2 N2_2 1_555 1_555
Zn6 O3_3 1_555 1_555
Zn9 O5_3 1_555 1_555
O21_3 Zn6 1_555 1_555
O23_3 Zn9 1_555 1_555
O26_3 Zn6 1_555 1_555
O29_3 Zn9 1_555 1_555
Zn5 O3_4 1_555 1_555
Zn8 O5_4 1_555 1_555
O21_4 Zn5 1_555 1_555
O23_4 Zn8 1_555 1_555
O26_4 Zn5 1_555 1_555
O29_4 Zn8 1_555 1_555
C25_3 C1_4 1_555 1_555
H22_3 C25_3 1_555 1_555
C34_3 H27_3 1_555 1_555
C35_3 C34_3 1_555 1_555
C36_3 C35_3 1_555 1_555
H28_3 C36_3 1_555 1_555
C37_3 C34_3 1_555 1_555
C38_3 C37_3 1_555 1_555
H29_3 C38_3 1_555 1_555
C39_3 C36_3 1_555 1_555
C40_3 C39_3 1_555 1_555
C41_3 C37_3 1_555 1_555
O15_3 C25_3 1_555 1_555
O26_4 C40_3 1_555 1_555
O29_4 C40_3 1_555 1_555
O32 C41_3 1_555 1_555
O33_2 C41_3 1_555 1_555
C35_3 O15_3 1_555 1_555
C38_3 C39_3 1_555 1_555
C3_3 C1_5 1_555 1_555
H3_3 C3_3 1_555 1_555
C12_3 H8_3 1_555 1_555
C13_3 C12_3 1_555 1_555
C14_3 C13_3 1_555 1_555
H9_3 C14_3 1_555 1_555
C15_3 C12_3 1_555 1_555
C16_3 C15_3 1_555 1_555
H10_3 C16_3 1_555 1_555
C17_3 C14_3 1_555 1_555
C18_3 C17_3 1_555 1_555
C19_3 C15_3 1_555 1_555
O2_3 C3_3 1_555 1_555
O26_2 C18_3 1_555 1_555
O29_2 C18_3 1_555 1_555
O31 C19_3 1_555 1_555
O12_2 C19_3 1_555 1_555
C13_3 O2_3 1_555 1_555
C16_3 C17_3 1_555 1_555
H20_3 C24_3 1_555 1_555
C26_3 C27_3 1_555 1_555
C27_3 H24_3 1_555 1_555
C28_3 C27_3 1_555 1_555
C29_3 C28_3 1_555 1_555
H25_3 C29_3 1_555 1_555
C30_3 C29_3 1_555 1_555
C31_3 C26_3 1_555 1_555
H26_3 C31_3 1_555 1_555
C32_3 C28_3 1_555 1_555
C33_3 C30_3 1_555 1_555
C42_3 C43_3 1_555 1_555
C43_3 H30_3 1_555 1_555
H31_3 C43_3 1_555 1_555
H32_3 C43_3 1_555 1_555
C44_3 H33_3 1_555 1_555
H34_3 C44_3 1_555 1_555
H35_3 C44_3 1_555 1_555
C45_3 H36_3 1_555 1_555
H37_3 C45_3 1_555 1_555
H38_3 C45_3 1_555 1_555
N2_3 C42_3 1_555 1_555
O14_3 C24_3 1_555 1_555
O19_3 Zn16 1_555 1_555
O21_4 C33_3 1_555 1_555
O23_4 C33_3 1_555 1_555
O36_3 Zn16 1_555 1_555
C26_3 O14_3 1_555 1_555
C30_3 C31_3 1_555 1_555
C32_3 O19_3 1_555 1_555
C42_3 O36_3 1_555 1_555
C44_3 N2_3 1_555 1_555
C45_3 N2_3 1_555 1_555
Zn14 O6_3 1_555 1_555
C2_3 H1_3 1_555 1_555
C4_3 C5_3 1_555 1_555
C5_3 H5_3 1_555 1_555
C6_3 C5_3 1_555 1_555
C7_3 C6_3 1_555 1_555
H6_3 C7_3 1_555 1_555
C8_3 C7_3 1_555 1_555
C9_3 C4_3 1_555 1_555
H7_3 C9_3 1_555 1_555
C10_3 C6_3 1_555 1_555
C11_3 C8_3 1_555 1_555
C20_3 C21_3 1_555 1_555
C21_3 H11_3 1_555 1_555
H12_3 C21_3 1_555 1_555
H13_3 C21_3 1_555 1_555
C22_3 H14_3 1_555 1_555
H15_3 C22_3 1_555 1_555
H16_3 C22_3 1_555 1_555
C23_3 H17_3 1_555 1_555
H18_3 C23_3 1_555 1_555
H19_3 C23_3 1_555 1_555
N1_3 C20_3 1_555 1_555
O1_3 C2_3 1_555 1_555
O6_3 C10_3 1_555 1_555
O13_3 Zn14 1_555 1_555
C4_3 O1_3 1_555 1_555
C8_3 C9_3 1_555 1_555
C11_3 O21_2 1_555 1_555
C11_3 O23_2 1_555 1_555
C20_3 O13_3 1_555 1_555
C22_3 N1_3 1_555 1_555
C23_3 N1_3 1_555 1_555
Zn13 O6_4 1_555 1_555
C2_4 H1_4 1_555 1_555
C4_4 C5_4 1_555 1_555
C5_4 H5_4 1_555 1_555
C6_4 C5_4 1_555 1_555
C7_4 C6_4 1_555 1_555
H6_4 C7_4 1_555 1_555
C8_4 C7_4 1_555 1_555
C9_4 C4_4 1_555 1_555
H7_4 C9_4 1_555 1_555
C10_4 C6_4 1_555 1_555
C11_4 C8_4 1_555 1_555
C20_4 C21_4 1_555 1_555
C21_4 H11_4 1_555 1_555
H12_4 C21_4 1_555 1_555
H13_4 C21_4 1_555 1_555
C22_4 H14_4 1_555 1_555
H15_4 C22_4 1_555 1_555
H16_4 C22_4 1_555 1_555
C23_4 H17_4 1_555 1_555
H18_4 C23_4 1_555 1_555
H19_4 C23_4 1_555 1_555
N1_4 C20_4 1_555 1_555
O1_4 C2_4 1_555 1_555
O17_2 C10_4 1_555 1_555
O6_4 C10_4 1_555 1_555
O13_4 Zn13 1_555 1_555
H20_4 C24_4 1_555 1_555
C26_4 C27_4 1_555 1_555
C27_4 H24_4 1_555 1_555
C28_4 C27_4 1_555 1_555
C29_4 C28_4 1_555 1_555
H25_4 C29_4 1_555 1_555
C30_4 C29_4 1_555 1_555
C31_4 C26_4 1_555 1_555
H26_4 C31_4 1_555 1_555
C32_4 C28_4 1_555 1_555
C33_4 C30_4 1_555 1_555
C42_4 C43_4 1_555 1_555
C43_4 H30_4 1_555 1_555
H31_4 C43_4 1_555 1_555
H32_4 C43_4 1_555 1_555
C44_4 H33_4 1_555 1_555
H34_4 C44_4 1_555 1_555
H35_4 C44_4 1_555 1_555
C45_4 H36_4 1_555 1_555
H37_4 C45_4 1_555 1_555
H38_4 C45_4 1_555 1_555
N2_4 C42_4 1_555 1_555
O14_4 C24_4 1_555 1_555
O18_2 C32_4 1_555 1_555
O19_4 Zn15 1_555 1_555
O21_3 C33_4 1_555 1_555
O23_3 C33_4 1_555 1_555
O34_2 Zn15 1_555 1_555
O35_2 Zn13 1_555 1_555
O36_4 Zn15 1_555 1_555
C4_4 O1_4 1_555 1_555
C8_4 C9_4 1_555 1_555
C11_4 O21 1_555 1_555
C11_4 O23 1_555 1_555
C20_4 O13_4 1_555 1_555
C22_4 N1_4 1_555 1_555
C23_4 N1_4 1_555 1_555
C26_4 O14_4 1_555 1_555
C30_4 C31_4 1_555 1_555
C32_4 O19_4 1_555 1_555
C42_4 O36_4 1_555 1_555
C44_4 N2_4 1_555 1_555
C45_4 N2_4 1_555 1_555
C3_4 C1_6 1_555 1_555
H3_4 C3_4 1_555 1_555
H4_4 C3_4 1_555 1_555
C12_4 H8_4 1_555 1_555
C13_4 C12_4 1_555 1_555
C14_4 C13_4 1_555 1_555
H9_4 C14_4 1_555 1_555
C15_4 C12_4 1_555 1_555
C16_4 C15_4 1_555 1_555
H10_4 C16_4 1_555 1_555
C17_4 C14_4 1_555 1_555
C18_4 C17_4 1_555 1_555
C19_4 C15_4 1_555 1_555
O2_4 C3_4 1_555 1_555
O26 C18_4 1_555 1_555
O29 C18_4 1_555 1_555
O31_2 C19_4 1_555 1_555
O34_2 C19_4 1_555 1_555
C25_4 C1_6 1_555 1_555
H22_4 C25_4 1_555 1_555
H23_4 C25_4 1_555 1_555
C34_4 H27_4 1_555 1_555
C35_4 C34_4 1_555 1_555
C36_4 C35_4 1_555 1_555
H28_4 C36_4 1_555 1_555
C37_4 C34_4 1_555 1_555
C38_4 C37_4 1_555 1_555
H29_4 C38_4 1_555 1_555
C39_4 C36_4 1_555 1_555
C40_4 C39_4 1_555 1_555
C41_4 C37_4 1_555 1_555
O15_4 C25_4 1_555 1_555
O26_3 C40_4 1_555 1_555
O29_3 C40_4 1_555 1_555
O32_2 C41_4 1_555 1_555
O35_2 C41_4 1_555 1_555
C13_4 O2_4 1_555 1_555
C16_4 C17_4 1_555 1_555
C35_4 O15_4 1_555 1_555
C38_4 C39_4 1_555 1_555

#END
