
###############################################################################
#
# This file contains modified crystal structure data generated from the
# MOF subset of the Cambridge Structural Database (CSD) v543 
# hosted by the Cambridge Crystallographic Data Centre (CCDC).
#
# This work is licensed under the Creative Commons
# Attribution-NonCommercial-ShareAlike 4.0 International License.
# To view a copy of this license, visit
# http://creativecommons.org/licenses/by-nc-sa/4.0/
# or send a letter to
# Creative Commons, PO Box 1866, Mountain View, CA 94042, USA.
#
# CIF created using the CSD Python API on 29 September 2022
# The structure has been converted into the P1 space group
# The structure has a 3D framework
# The original CSD entry WEHJEA is in the tetragonal crystal system
# The original CSD entry WEHJEA is in a Sohncke space group
# The framework has been calculated to contain at least 10.0% void space
# The void calculation uses a probe of radius 1.32A, grid spacing 0.4
# H atom positions have been added when not included in the experimental data
#
###############################################################################

data_WEHJEA
_chemical_formula_moiety         '(C328 H264 N8 O176 Zn32)n'
_symmetry_cell_setting           triclinic
_symmetry_space_group_name_H-M   'P 1'
_symmetry_Int_Tables_number      1
_space_group_name_Hall           'P 1'
loop_
_symmetry_equiv_pos_site_id
_symmetry_equiv_pos_as_xyz
1 x,y,z
_cell_length_a                   21.553(2)
_cell_length_b                   21.553(2)
_cell_length_c                   40.781(5)
_cell_angle_alpha                90
_cell_angle_beta                 90
_cell_angle_gamma                90
_cell_volume                     18944.1
loop_
_atom_site_label
_atom_site_type_symbol
_atom_site_fract_x
_atom_site_fract_y
_atom_site_fract_z
Zn3 Zn 0.05893(4) 0.06330(4) 0.606220(17)
C24 C 0.0106(3) 0.4717(3) 0.56064(15)
C25 C 0.0319(3) 0.4973(4) 0.59405(17)
C26 C 0.0225(2) 0.4979(2) 0.53068(16)
H16 H 0.0452 0.5345 0.5295
C27 C 0.0008(3) 0.4704(3) 0.50204(11)
C29 C 0.0140(4) 0.4968(3) 0.46848(17)
O4 O 0.0042(2) 0.4698(2) 0.44332(9)
O5 O 0.0308(2) 0.5527(2) 0.46774(9)
O6 O 0.0975(3) 0.0993(3) 0.56554(10)
O11 O 0.07260(19) 0.5417(2) 0.59050(10)
O12 O 0.01800(18) 0.4724(2) 0.61981(9)
Zn5 Zn 0.12001(3) 0.58475(3) 0.622857(17)
Zn7 Zn 0.03371(3) 0.55000(4) 0.415380(15)
Zn8 Zn 0.05000(4) 0.46629(3) 0.665380(15)
Zn9 Zn 0.06330(4) 0.05893(4) 0.393780(17)
O32 O 0.1170(2) 0.0796(2) 0.64243(12)
O33 O 0.0413(2) 0.0432(3) 0.66842(12)
H21 H 0.0828409 0.142603 0.562521
H22 H 0.143375 0.099051 0.567787
O30 O 0.04540(19) 0.9131(2) 0.63616(11)
O31 O 0.0805(2) 0.9748(2) 0.59592(10)
Zn2 Zn 0.55000(4) 0.03371(3) 0.584620(15)
C1 C 0.8304(3) 0.2725(3) 0.52079(17)
C2 C 0.8030(3) 0.2450(3) 0.49053(15)
H1 H 0.7666 0.2209 0.4962
H2 H 0.7902 0.2779 0.4758
C3 C 0.8859(3) 0.3119(3) 0.51037(13)
H3 H 0.9162 0.2859 0.4994
H4 H 0.8724 0.3436 0.4951
C4 C 0.7831(3) 0.3134(3) 0.53705(13)
H5 H 0.7469 0.2894 0.5433
H6 H 0.8004 0.3325 0.5565
C5 C 0.8481(3) 0.2240(3) 0.54590(15)
H7 H 0.8791 0.1963 0.5368
H8 H 0.8656 0.2439 0.5651
C6 C 0.8036(2) 0.1378(4) 0.57216(15)
C7 C 0.7493(3) 0.1066(2) 0.58015(13)
H9 H 0.7111 0.1224 0.5736
C8 C 0.7519(3) 0.0516(3) 0.59797(15)
C9 C 0.6862(3) 0.0183(3) 0.60278(18)
C10 C 0.8059(2) 0.0295(4) 0.61021(13)
C11 C 0.8603(3) 0.0615(3) 0.60336(14)
C12 C 0.8586(3) 0.1147(3) 0.58414(14)
H11 H 0.8954 0.1352 0.5793
C13 C 0.9200(4) 0.0393(4) 0.6136(2)
C14 C 0.8319(3) 0.1730(4) 0.44732(17)
C15 C 0.7723(3) 0.1696(3) 0.43443(17)
H12 H 0.7400 0.1909 0.4445
C16 C 0.7611(3) 0.1342(3) 0.40656(19)
C17 C 0.6922(4) 0.1284(4) 0.3913(2)
C18 C 0.8090(3) 0.1039(4) 0.39297(14)
H13 H 0.8017 0.0791 0.3747
C19 C 0.8692(3) 0.1081(3) 0.40507(15)
C20 C 0.8812(3) 0.1433(3) 0.43292(17)
H14 H 0.9211 0.1465 0.4415
C21 C 0.9237(4) 0.0752(4) 0.39013(17)
C22 C 0.9532(3) 0.3905(3) 0.53376(15)
C23 C 0.9732(3) 0.4193(2) 0.56237(10)
H15 H 0.9615 0.4035 0.5827
C28 C 0.9649(3) 0.4170(3) 0.50365(12)
H17 H 0.9489 0.3993 0.4846
C30 C 0.7095(3) 0.3873(3) 0.5167(2)
C31 C 0.6807(3) 0.4070(4) 0.48802(12)
H18 H 0.7003 0.4015 0.4679
C32 C 0.6227(3) 0.4350(4) 0.48941(18)
C33 C 0.5962(4) 0.4533(5) 0.4568(2)
C34 C 0.5910(3) 0.4439(3) 0.51959(19)
H19 H 0.5514 0.4610 0.5201
C35 C 0.6208(3) 0.4261(3) 0.54830(12)
C36 C 0.6779(3) 0.3963(3) 0.54678(15)
H20 H 0.6959 0.3819 0.5661
C37 C 0.5925(4) 0.4365(4) 0.5813(2)
O1 O 0.6377(2) 0.0419(2) 0.59199(11)
O3 O 0.5348(2) 0.13140(17) 0.58406(9)
O8 O 0.9692(2) 0.0622(2) 0.60369(11)
O9 O 0.6205(3) 0.4456(3) 0.43198(11)
O10 O 0.5409(3) 0.4775(3) 0.45923(11)
O13 O 0.9131(2) 0.04540(19) 0.36384(11)
O14 O 0.9748(2) 0.0805(2) 0.40408(10)
O15 O 0.6170(2) 0.4204(2) 0.60757(12)
O16 O 0.5413(2) 0.4568(3) 0.58158(12)
O17 O 0.6555(2) 0.1564(2) 0.40459(10)
O18 O 0.6837(3) 0.0999(3) 0.36898(15)
O20 O 0.7955(2) 0.19020(19) 0.55474(11)
O21 O 0.8470(2) 0.2062(2) 0.47455(12)
O22 O 0.7664(2) 0.3600(2) 0.51347(10)
O23 O 0.9136(2) 0.3404(2) 0.53832(9)
Zn6 Zn 0.58475(3) 0.12001(3) 0.377143(17)
Zn10 Zn 0.55893(4) 0.43670(4) 0.643780(17)
Zn11 Zn 0.53451(4) 0.49125(3) 0.410625(17)
Zn13 Zn 0.49125(3) 0.53451(4) 0.589375(17)
O24 O 0.4698(2) 0.0042(2) 0.55668(9)
O25 O 0.5527(2) 0.0308(2) 0.53226(9)
O29 O 0.51800(18) 0.0276(2) 0.63019(9)
H23 H 0.559492 0.150417 0.566127
H24 H 0.490055 0.139906 0.580392
Zn1 Zn 0.62001(3) 0.91525(3) 0.627143(17)
Zn4 Zn 0.99125(3) 0.96549(4) 0.660625(17)
H10 H 0.8065 0.9936 0.6229
O2 O 0.6927(2) 0.96340(18) 0.61732(11)
O7 O 0.9218(2) 0.9948(2) 0.63491(11)
O19 O 0.56970(17) 0.92585(17) 0.58499(8)
N1 N 0.5473(4) 0.8641(4) 0.5444(2)
C38 C 0.5255(4) 0.8840(4) 0.5768(2)
C39 C 0.6072(5) 0.8668(5) 0.5260(2)
C40 C 0.4948(5) 0.8204(5) 0.5343(2)
C41 C 0.4701(4) 0.8704(4) 0.59675(19)
Zn12 Zn 0.96549(4) 0.99125(3) 0.339375(17)
O26 O 0.9456(3) 0.8795(3) 0.68198(11)
O27 O 0.9775(3) 0.9591(3) 0.70923(11)
O28 O 0.57260(19) 0.9583(2) 0.65950(10)
O34 O 0.6564(2) 0.8445(2) 0.65459(10)
O35 O 0.5999(3) 0.8163(3) 0.61898(15)
H25 H 0.642786 0.841827 0.539608
H26 H 0.601241 0.845532 0.501983
H27 H 0.621224 0.915009 0.523001
H28 H 0.451236 0.845963 0.53362
H29 H 0.504534 0.801394 0.510098
H30 H 0.491232 0.782714 0.551987
H31 H 0.442683 0.91249 0.599629
H32 H 0.442294 0.83505 0.584581
H33 H 0.484401 0.853614 0.620776
Zn1_2 Zn 0.37999(3) 0.08475(3) 0.127143(17)
Zn4_2 Zn 0.00875(3) 0.03451(4) 0.160625(17)
H10_2 H 0.1935 0.0064 0.1229
O2_2 O 0.3073(2) 0.03660(18) 0.11732(11)
O7_2 O 0.0782(2) 0.0052(2) 0.13491(11)
O19_2 O 0.43030(17) 0.07415(17) 0.08499(8)
N1_2 N 0.4527(4) 0.1359(4) 0.0444(2)
C38_2 C 0.4745(4) 0.1160(4) 0.0768(2)
C39_2 C 0.3928(5) 0.1332(5) 0.0260(2)
C40_2 C 0.5052(5) 0.1796(5) 0.0343(2)
C41_2 C 0.5299(4) 0.1296(4) 0.09675(19)
O26_2 O 0.0544(3) 0.1205(3) 0.18198(11)
O27_2 O 0.0225(3) 0.0409(3) 0.20923(11)
O28_2 O 0.42740(19) 0.0417(2) 0.15950(10)
O34_2 O 0.3436(2) 0.1555(2) 0.15459(10)
O35_2 O 0.4001(3) 0.1837(3) 0.11898(15)
H25_2 H 0.357214 0.158173 0.0396078
H26_2 H 0.398759 0.154468 0.00198294
H27_2 H 0.378776 0.0849914 0.0230007
H28_2 H 0.548764 0.154037 0.0336198
H29_2 H 0.495466 0.198606 0.0100984
H30_2 H 0.508768 0.217286 0.0519872
H31_2 H 0.557317 0.0875096 0.0996288
H32_2 H 0.557706 0.16495 0.0845812
H33_2 H 0.515599 0.146386 0.120776
Zn12_2 Zn 0.03451(4) 0.00875(3) 0.839375(17)
Zn2_2 Zn 0.45000(4) 0.96629(3) 0.084620(15)
C1_2 C 0.1696(3) 0.7275(3) 0.02079(17)
C3_2 C 0.1141(3) 0.6881(3) 0.01037(13)
C4_2 C 0.2169(3) 0.6866(3) 0.03705(13)
H5_2 H 0.2531 0.7106 0.0433
H6_2 H 0.1996 0.6675 0.0565
C5_2 C 0.1519(3) 0.7760(3) 0.04590(15)
H7_2 H 0.1209 0.8037 0.0368
H8_2 H 0.1344 0.7561 0.0651
C6_2 C 0.1964(2) 0.8622(4) 0.07216(15)
C7_2 C 0.2507(3) 0.8934(2) 0.08015(13)
H9_2 H 0.2889 0.8776 0.0736
C8_2 C 0.2481(3) 0.9484(3) 0.09797(15)
C9_2 C 0.3138(3) 0.9817(3) 0.10278(18)
C10_2 C 0.1941(2) 0.9705(4) 0.11021(13)
C11_2 C 0.1397(3) 0.9385(3) 0.10336(14)
C12_2 C 0.1414(3) 0.8853(3) 0.08414(14)
H11_2 H 0.1046 0.8648 0.0793
C13_2 C 0.0800(4) 0.9607(4) 0.1136(2)
C22_2 C 0.0468(3) 0.6095(3) 0.03376(15)
C23_2 C 0.0268(3) 0.5807(2) 0.06237(10)
H15_2 H 0.0385 0.5965 0.0827
C28_2 C 0.0351(3) 0.5830(3) 0.00365(12)
C30_2 C 0.2905(3) 0.6127(3) 0.0167(2)
C34_2 C 0.4090(3) 0.5561(3) 0.01959(19)
H19_2 H 0.4486 0.5390 0.0201
C35_2 C 0.3792(3) 0.5739(3) 0.04830(12)
C36_2 C 0.3221(3) 0.6037(3) 0.04678(15)
H20_2 H 0.3041 0.6181 0.0661
C37_2 C 0.4075(4) 0.5635(4) 0.0813(2)
O1_2 O 0.3623(2) 0.9581(2) 0.09199(11)
O3_2 O 0.4652(2) 0.86860(17) 0.08406(9)
O8_2 O 0.0308(2) 0.9378(2) 0.10369(11)
O15_2 O 0.3830(2) 0.5796(2) 0.10757(12)
O16_2 O 0.4587(2) 0.5432(3) 0.08158(12)
O20_2 O 0.2045(2) 0.80980(19) 0.05474(11)
O22_2 O 0.2336(2) 0.6400(2) 0.01347(10)
O23_2 O 0.0864(2) 0.6596(2) 0.03832(9)
Zn10_2 Zn 0.44107(4) 0.56330(4) 0.143780(17)
Zn13_2 Zn 0.50875(3) 0.46549(4) 0.089375(17)
O24_2 O 0.5302(2) 0.9958(2) 0.05668(9)
O25_2 O 0.4473(2) 0.9692(2) 0.03226(9)
O29_2 O 0.48200(18) 0.9724(2) 0.13019(9)
H23_2 H 0.440508 0.849583 0.066127
H24_2 H 0.509945 0.860094 0.0803916
C2_2 C 0.1970(3) 0.7550(3) 0.99053(15)
H1_2 H 0.2334 0.7791 0.9962
H2_2 H 0.2098 0.7221 0.9758
H3_2 H 0.0838 0.7141 0.9994
H4_2 H 0.1276 0.6564 0.9951
C14_2 C 0.1681(3) 0.8270(4) 0.94732(17)
C15_2 C 0.2277(3) 0.8304(3) 0.93443(17)
H12_2 H 0.2600 0.8091 0.9445
C16_2 C 0.2389(3) 0.8658(3) 0.90656(19)
C17_2 C 0.3078(4) 0.8716(4) 0.8913(2)
C18_2 C 0.1910(3) 0.8961(4) 0.89297(14)
H13_2 H 0.1983 0.9209 0.8747
C19_2 C 0.1308(3) 0.8919(3) 0.90507(15)
C20_2 C 0.1188(3) 0.8567(3) 0.93292(17)
H14_2 H 0.0789 0.8535 0.9415
C21_2 C 0.0763(4) 0.9248(4) 0.89013(17)
H17_2 H 0.0511 0.6007 0.9846
C31_2 C 0.3193(3) 0.5930(4) 0.98802(12)
H18_2 H 0.2997 0.5985 0.9679
C32_2 C 0.3773(3) 0.5650(4) 0.98941(18)
C33_2 C 0.4038(4) 0.5467(5) 0.9568(2)
O9_2 O 0.3795(3) 0.5544(3) 0.93198(11)
O10_2 O 0.4591(3) 0.5225(3) 0.95923(11)
O13_2 O 0.0869(2) 0.95460(19) 0.86384(11)
O14_2 O 0.0252(2) 0.9195(2) 0.90408(10)
O17_2 O 0.3445(2) 0.8436(2) 0.90459(10)
O18_2 O 0.3163(3) 0.9001(3) 0.86898(15)
O21_2 O 0.1530(2) 0.7938(2) 0.97455(12)
Zn6_2 Zn 0.41525(3) 0.87999(3) 0.877143(17)
Zn11_2 Zn 0.46549(4) 0.50875(3) 0.910625(17)
O30_2 O 0.95460(19) 0.0869(2) 0.13616(11)
O31_2 O 0.9195(2) 0.0252(2) 0.09592(10)
Zn3_2 Zn 0.94107(4) 0.93670(4) 0.106220(17)
C24_2 C 0.9894(3) 0.5283(3) 0.06064(15)
C25_2 C 0.9681(3) 0.5027(4) 0.09405(17)
C26_2 C 0.9775(2) 0.5021(2) 0.03068(16)
H16_2 H 0.9548 0.4655 0.0295
C27_2 C 0.9992(3) 0.5296(3) 0.00204(11)
O6_2 O 0.9025(3) 0.9007(3) 0.06554(10)
O11_2 O 0.92740(19) 0.4583(2) 0.09050(10)
O12_2 O 0.98200(18) 0.5276(2) 0.11981(9)
Zn5_2 Zn 0.87999(3) 0.41525(3) 0.122857(17)
Zn8_2 Zn 0.95000(4) 0.53371(3) 0.165380(15)
O32_2 O 0.8830(2) 0.9204(2) 0.14243(12)
O33_2 O 0.9587(2) 0.9568(3) 0.16842(12)
H21_2 H 0.917159 0.857397 0.0625215
H22_2 H 0.856625 0.900949 0.0677874
C29_2 C 0.9860(4) 0.5032(3) 0.96848(17)
O4_2 O 0.9958(2) 0.5302(2) 0.94332(9)
O5_2 O 0.9692(2) 0.4473(2) 0.96774(9)
Zn7_2 Zn 0.96629(3) 0.45000(4) 0.915380(15)
Zn9_2 Zn 0.93670(4) 0.94107(4) 0.893780(17)
C1_3 C 0.3304(3) 0.2275(3) 0.72921(17)
C2_3 C 0.3030(3) 0.2550(3) 0.75947(15)
H1_3 H 0.2666 0.2791 0.7538
H2_3 H 0.2902 0.2221 0.7742
C3_3 C 0.3859(3) 0.1881(3) 0.73963(13)
H3_3 H 0.4162 0.2141 0.7506
H4_3 H 0.3724 0.1564 0.7549
C4_3 C 0.2831(3) 0.1866(3) 0.71295(13)
H5_3 H 0.2469 0.2106 0.7067
H6_3 H 0.3004 0.1675 0.6935
C5_3 C 0.3481(3) 0.2760(3) 0.70410(15)
H7_3 H 0.3791 0.3037 0.7132
H8_3 H 0.3656 0.2561 0.6849
C6_3 C 0.3036(2) 0.3622(4) 0.67784(15)
C7_3 C 0.2493(3) 0.3934(2) 0.66985(13)
H9_3 H 0.2111 0.3776 0.6764
C8_3 C 0.2519(3) 0.4484(3) 0.65203(15)
C9_3 C 0.1862(3) 0.4817(3) 0.64722(18)
C10_3 C 0.3059(2) 0.4705(4) 0.63979(13)
H10_3 H 0.3065 0.5064 0.6271
C11_3 C 0.3603(3) 0.4385(3) 0.64664(14)
C12_3 C 0.3586(3) 0.3853(3) 0.66586(14)
H11_3 H 0.3954 0.3648 0.6707
C13_3 C 0.4200(4) 0.4607(4) 0.6364(2)
C14_3 C 0.3319(3) 0.3270(4) 0.80268(17)
C15_3 C 0.2723(3) 0.3304(3) 0.81557(17)
H12_3 H 0.2400 0.3091 0.8055
C16_3 C 0.2611(3) 0.3658(3) 0.84344(19)
C17_3 C 0.1922(4) 0.3716(4) 0.8587(2)
C18_3 C 0.3090(3) 0.3961(4) 0.85703(14)
H13_3 H 0.3017 0.4209 0.8753
C19_3 C 0.3692(3) 0.3919(3) 0.84493(15)
C20_3 C 0.3812(3) 0.3567(3) 0.81708(17)
H14_3 H 0.4211 0.3535 0.8085
C21_3 C 0.4237(4) 0.4248(4) 0.85987(17)
C22_3 C 0.4532(3) 0.1095(3) 0.71624(15)
C23_3 C 0.4732(3) 0.0807(2) 0.68763(10)
H15_3 H 0.4615 0.0965 0.6673
C24_3 C 0.5106(3) 0.0283(3) 0.68936(15)
C25_3 C 0.5319(3) 0.0027(4) 0.65595(17)
C26_3 C 0.5225(2) 0.0021(2) 0.71932(16)
C27_3 C 0.5008(3) 0.0296(3) 0.74796(11)
C28_3 C 0.4649(3) 0.0830(3) 0.74635(12)
H17_3 H 0.4489 0.1007 0.7654
C29_3 C 0.5140(4) 0.0032(3) 0.78152(17)
C30_3 C 0.2095(3) 0.1127(3) 0.7333(2)
C31_3 C 0.1807(3) 0.0930(4) 0.76198(12)
H18_3 H 0.2003 0.0985 0.7821
C32_3 C 0.1227(3) 0.0650(4) 0.76059(18)
C33_3 C 0.0962(4) 0.0467(5) 0.7932(2)
C34_3 C 0.0910(3) 0.0561(3) 0.73041(19)
H19_3 H 0.0514 0.0390 0.7299
C35_3 C 0.1208(3) 0.0739(3) 0.70170(12)
C36_3 C 0.1779(3) 0.1037(3) 0.70322(15)
H20_3 H 0.1959 0.1181 0.6839
C37_3 C 0.0925(4) 0.0635(4) 0.6687(2)
O1_3 O 0.1377(2) 0.4581(2) 0.65801(11)
O2_3 O 0.1927(2) 0.53660(18) 0.63268(11)
O3_3 O 0.0348(2) 0.36860(17) 0.66594(9)
O4_3 O 0.5042(2) 0.0302(2) 0.80668(9)
O6_3 O 0.5975(3) 0.4007(3) 0.68446(10)
O7_3 O 0.4218(2) 0.5052(2) 0.61509(11)
O8_3 O 0.4692(2) 0.4378(2) 0.64631(11)
O9_3 O 0.1205(3) 0.0544(3) 0.81802(11)
O10_3 O 0.0409(3) 0.0225(3) 0.79077(11)
O13_3 O 0.4131(2) 0.45460(19) 0.88616(11)
O14_3 O 0.4748(2) 0.4195(2) 0.84592(10)
O17_3 O 0.1555(2) 0.3436(2) 0.84541(10)
O18_3 O 0.1837(3) 0.4001(3) 0.88102(15)
O19_3 O 0.06970(17) 0.57415(17) 0.66501(8)
O20_3 O 0.2955(2) 0.30980(19) 0.69526(11)
O21_3 O 0.3470(2) 0.2938(2) 0.77545(12)
O22_3 O 0.2664(2) 0.1400(2) 0.73653(10)
O23_3 O 0.4136(2) 0.1596(2) 0.71168(9)
N1_3 N 0.0473(4) 0.6359(4) 0.7056(2)
C38_3 C 0.0255(4) 0.6160(4) 0.6732(2)
C39_3 C 0.1072(5) 0.6332(5) 0.7240(2)
Zn6_3 Zn 0.08475(3) 0.37999(3) 0.872857(17)
Zn9_3 Zn 0.56330(4) 0.44107(4) 0.856220(17)
O25_3 O 0.0527(2) 0.4692(2) 0.71774(9)
O26_3 O 0.4456(3) 0.6205(3) 0.56802(11)
O27_3 O 0.4775(3) 0.5409(3) 0.54077(11)
O30_3 O 0.54540(19) 0.5869(2) 0.61384(11)
O31_3 O 0.5805(2) 0.5252(2) 0.65408(10)
O34_3 O 0.1564(2) 0.6555(2) 0.59541(10)
O35_3 O 0.0999(3) 0.6837(3) 0.63102(15)
H21_3 H 0.582841 0.357397 0.687479
H22_3 H 0.643375 0.400949 0.682213
H23_3 H 0.0594916 0.349583 0.683873
H25_3 H 0.142786 0.658173 0.710392
H26_3 H 0.101241 0.654468 0.748017
H27_3 H 0.121224 0.584991 0.726999
H29_3 H 0.0045344 0.698606 0.739902
H16_3 H 0.5452 0.9655 0.7205
O5_3 O 0.5308(2) 0.9473(2) 0.78226(9)
Zn7_3 Zn 0.53371(3) 0.95000(4) 0.834620(15)
C40_3 C 0.9948(5) 0.6796(5) 0.7157(2)
C41_3 C 0.9701(4) 0.6296(4) 0.65325(19)
O24_3 O 0.9698(2) 0.4958(2) 0.69332(9)
H24_3 H 0.990055 0.360094 0.669608
H28_3 H 0.951236 0.654037 0.71638
H30_3 H 0.991232 0.717286 0.698013
H31_3 H 0.942683 0.58751 0.650371
H32_3 H 0.942294 0.66495 0.665419
H33_3 H 0.984401 0.646386 0.629224
C40_4 C 0.0052(5) 0.3204(5) 0.2157(2)
C41_4 C 0.0299(4) 0.3704(4) 0.15325(19)
O24_4 O 0.0302(2) 0.5042(2) 0.19332(9)
H24_4 H 0.00994534 0.639906 0.169608
H28_4 H 0.0487641 0.345963 0.21638
H30_4 H 0.00876804 0.282714 0.198013
H31_4 H 0.0573166 0.41249 0.150371
H32_4 H 0.0577058 0.33505 0.165419
H33_4 H 0.0155992 0.353614 0.129224
H16_4 H 0.4548 0.0345 0.2205
O5_4 O 0.4692(2) 0.0527(2) 0.28226(9)
Zn7_4 Zn 0.46629(3) 0.05000(4) 0.334620(15)
C1_4 C 0.6696(3) 0.7725(3) 0.22921(17)
C2_4 C 0.6970(3) 0.7450(3) 0.25947(15)
H1_4 H 0.7334 0.7209 0.2538
H2_4 H 0.7098 0.7779 0.2742
C3_4 C 0.6141(3) 0.8119(3) 0.23963(13)
H3_4 H 0.5838 0.7859 0.2506
H4_4 H 0.6276 0.8436 0.2549
C4_4 C 0.7169(3) 0.8134(3) 0.21295(13)
H5_4 H 0.7531 0.7894 0.2067
H6_4 H 0.6996 0.8325 0.1935
C5_4 C 0.6519(3) 0.7240(3) 0.20410(15)
H7_4 H 0.6209 0.6963 0.2132
H8_4 H 0.6344 0.7439 0.1849
C6_4 C 0.6964(2) 0.6378(4) 0.17784(15)
C7_4 C 0.7507(3) 0.6066(2) 0.16985(13)
H9_4 H 0.7889 0.6224 0.1764
C8_4 C 0.7481(3) 0.5516(3) 0.15203(15)
C9_4 C 0.8138(3) 0.5183(3) 0.14722(18)
C10_4 C 0.6941(2) 0.5295(4) 0.13979(13)
H10_4 H 0.6935 0.4936 0.1271
C11_4 C 0.6397(3) 0.5615(3) 0.14664(14)
C12_4 C 0.6414(3) 0.6147(3) 0.16586(14)
H11_4 H 0.6046 0.6352 0.1707
C13_4 C 0.5800(4) 0.5393(4) 0.1364(2)
C14_4 C 0.6681(3) 0.6730(4) 0.30268(17)
C15_4 C 0.7277(3) 0.6696(3) 0.31557(17)
H12_4 H 0.7600 0.6909 0.3055
C16_4 C 0.7389(3) 0.6342(3) 0.34344(19)
C17_4 C 0.8078(4) 0.6284(4) 0.3587(2)
C18_4 C 0.6910(3) 0.6039(4) 0.35703(14)
H13_4 H 0.6983 0.5791 0.3753
C19_4 C 0.6308(3) 0.6081(3) 0.34493(15)
C20_4 C 0.6188(3) 0.6433(3) 0.31708(17)
H14_4 H 0.5789 0.6465 0.3085
C21_4 C 0.5763(4) 0.5752(4) 0.35987(17)
C22_4 C 0.5468(3) 0.8905(3) 0.21624(15)
C23_4 C 0.5268(3) 0.9193(2) 0.18763(10)
H15_4 H 0.5385 0.9035 0.1673
C24_4 C 0.4894(3) 0.9717(3) 0.18936(15)
C25_4 C 0.4681(3) 0.9973(4) 0.15595(17)
C26_4 C 0.4775(2) 0.9979(2) 0.21932(16)
C27_4 C 0.4992(3) 0.9704(3) 0.24796(11)
C28_4 C 0.5351(3) 0.9170(3) 0.24635(12)
H17_4 H 0.5511 0.8993 0.2654
C29_4 C 0.4860(4) 0.9968(3) 0.28152(17)
C30_4 C 0.7905(3) 0.8873(3) 0.2333(2)
C31_4 C 0.8193(3) 0.9070(4) 0.26198(12)
H18_4 H 0.7997 0.9015 0.2821
C32_4 C 0.8773(3) 0.9350(4) 0.26059(18)
C33_4 C 0.9038(4) 0.9533(5) 0.2932(2)
C34_4 C 0.9090(3) 0.9439(3) 0.23041(19)
H19_4 H 0.9486 0.9610 0.2299
C35_4 C 0.8792(3) 0.9261(3) 0.20170(12)
C36_4 C 0.8221(3) 0.8963(3) 0.20322(15)
H20_4 H 0.8041 0.8819 0.1839
C37_4 C 0.9075(4) 0.9365(4) 0.1687(2)
O1_4 O 0.8623(2) 0.5419(2) 0.15801(11)
O2_4 O 0.8073(2) 0.46340(18) 0.13268(11)
O3_4 O 0.9652(2) 0.63140(17) 0.16594(9)
O4_4 O 0.4958(2) 0.9698(2) 0.30668(9)
O6_4 O 0.4025(3) 0.5993(3) 0.18446(10)
O7_4 O 0.5782(2) 0.4948(2) 0.11509(11)
O8_4 O 0.5308(2) 0.5622(2) 0.14631(11)
O9_4 O 0.8795(3) 0.9456(3) 0.31802(11)
O10_4 O 0.9591(3) 0.9775(3) 0.29077(11)
O13_4 O 0.5869(2) 0.54540(19) 0.38616(11)
O14_4 O 0.5252(2) 0.5805(2) 0.34592(10)
O17_4 O 0.8445(2) 0.6564(2) 0.34541(10)
O18_4 O 0.8163(3) 0.5999(3) 0.38102(15)
O19_4 O 0.93030(17) 0.42585(17) 0.16501(8)
O20_4 O 0.7045(2) 0.69020(19) 0.19526(11)
O21_4 O 0.6530(2) 0.7062(2) 0.27545(12)
O22_4 O 0.7336(2) 0.8600(2) 0.23653(10)
O23_4 O 0.5864(2) 0.8404(2) 0.21168(9)
N1_4 N 0.9527(4) 0.3641(4) 0.2056(2)
C38_4 C 0.9745(4) 0.3840(4) 0.1732(2)
C39_4 C 0.8928(5) 0.3668(5) 0.2240(2)
Zn6_4 Zn 0.91525(3) 0.62001(3) 0.372857(17)
Zn9_4 Zn 0.43670(4) 0.55893(4) 0.356220(17)
O25_4 O 0.9473(2) 0.5308(2) 0.21774(9)
O26_4 O 0.5544(3) 0.3795(3) 0.06802(11)
O27_4 O 0.5225(3) 0.4591(3) 0.04077(11)
O30_4 O 0.45460(19) 0.4131(2) 0.11384(11)
O31_4 O 0.4195(2) 0.4748(2) 0.15408(10)
O34_4 O 0.8436(2) 0.3445(2) 0.09541(10)
O35_4 O 0.9001(3) 0.3163(3) 0.13102(15)
H21_4 H 0.417159 0.642603 0.187479
H22_4 H 0.356625 0.599051 0.182213
H23_4 H 0.940508 0.650417 0.183873
H25_4 H 0.857214 0.341827 0.210392
H26_4 H 0.898759 0.345532 0.248017
H27_4 H 0.878776 0.415009 0.226999
H29_4 H 0.995466 0.301394 0.239902
H10_5 H 0.0064 0.1935 0.8771
O2_5 O 0.03660(18) 0.3073(2) 0.88268(11)
O7_5 O 0.0052(2) 0.0782(2) 0.86509(11)
O19_5 O 0.07415(17) 0.43030(17) 0.91501(8)
N1_5 N 0.1359(4) 0.4527(4) 0.9556(2)
C38_5 C 0.1160(4) 0.4745(4) 0.9232(2)
C39_5 C 0.1332(5) 0.3928(5) 0.9740(2)
C40_5 C 0.1796(5) 0.5052(5) 0.9657(2)
C41_5 C 0.1296(4) 0.5299(4) 0.90325(19)
O28_3 O 0.0417(2) 0.42740(19) 0.84050(10)
H25_5 H 0.158173 0.357214 0.960392
H26_5 H 0.154468 0.398759 0.998017
H27_5 H 0.0849914 0.378776 0.976999
H28_5 H 0.154037 0.548764 0.96638
H29_5 H 0.198606 0.495466 0.989902
H30_5 H 0.217286 0.508768 0.948013
H31_5 H 0.0875096 0.557317 0.900371
H32_5 H 0.16495 0.557706 0.915419
H33_5 H 0.146386 0.515599 0.879224
C2_5 C 0.7550(3) 0.1970(3) 0.00947(15)
H1_5 H 0.7791 0.2334 0.0038
H2_5 H 0.7221 0.2098 0.0242
H3_5 H 0.7141 0.0838 0.0006
H4_5 H 0.6564 0.1276 0.0049
C14_5 C 0.8270(4) 0.1681(3) 0.05268(17)
C15_5 C 0.8304(3) 0.2277(3) 0.06557(17)
H12_5 H 0.8091 0.2600 0.0555
C16_5 C 0.8658(3) 0.2389(3) 0.09344(19)
C17_5 C 0.8716(4) 0.3078(4) 0.1087(2)
C18_5 C 0.8961(4) 0.1910(3) 0.10703(14)
H13_5 H 0.9209 0.1983 0.1253
C19_5 C 0.8919(3) 0.1308(3) 0.09493(15)
C20_5 C 0.8567(3) 0.1188(3) 0.06708(17)
H14_5 H 0.8535 0.0789 0.0585
C21_5 C 0.9248(4) 0.0763(4) 0.10987(17)
H17_5 H 0.6007 0.0511 0.0154
C31_5 C 0.5930(4) 0.3193(3) 0.01198(12)
H18_5 H 0.5985 0.2997 0.0321
C32_5 C 0.5650(4) 0.3773(3) 0.01059(18)
C33_5 C 0.5467(5) 0.4038(4) 0.0432(2)
O21_5 O 0.7938(2) 0.1530(2) 0.02545(12)
C1_5 C 0.7275(3) 0.1696(3) 0.97921(17)
C3_5 C 0.6881(3) 0.1141(3) 0.98963(13)
C4_5 C 0.6866(3) 0.2169(3) 0.96295(13)
H5_5 H 0.7106 0.2531 0.9567
H6_5 H 0.6675 0.1996 0.9435
C5_5 C 0.7760(3) 0.1519(3) 0.95410(15)
H7_5 H 0.8037 0.1209 0.9632
H8_5 H 0.7561 0.1344 0.9349
C6_5 C 0.8622(4) 0.1964(2) 0.92784(15)
C7_5 C 0.8934(2) 0.2507(3) 0.91985(13)
H9_5 H 0.8776 0.2889 0.9264
C8_5 C 0.9484(3) 0.2481(3) 0.90203(15)
C9_5 C 0.9817(3) 0.3138(3) 0.89722(18)
C10_5 C 0.9705(4) 0.1941(2) 0.88979(13)
C11_5 C 0.9385(3) 0.1397(3) 0.89664(14)
C12_5 C 0.8853(3) 0.1414(3) 0.91586(14)
H11_5 H 0.8648 0.1046 0.9207
C13_5 C 0.9607(4) 0.0800(4) 0.8864(2)
C22_5 C 0.6095(3) 0.0468(3) 0.96624(15)
C23_5 C 0.5807(2) 0.0268(3) 0.93763(10)
H15_5 H 0.5965 0.0385 0.9173
C28_5 C 0.5830(3) 0.0351(3) 0.99635(12)
C30_5 C 0.6127(3) 0.2905(3) 0.9833(2)
C34_5 C 0.5561(3) 0.4090(3) 0.98041(19)
H19_5 H 0.5390 0.4486 0.9799
C35_5 C 0.5739(3) 0.3792(3) 0.95170(12)
C36_5 C 0.6037(3) 0.3221(3) 0.95322(15)
H20_5 H 0.6181 0.3041 0.9339
C37_5 C 0.5635(4) 0.4075(4) 0.9187(2)
O1_5 O 0.9581(2) 0.3623(2) 0.90801(11)
O3_5 O 0.86860(17) 0.4652(2) 0.91594(9)
O8_5 O 0.9378(2) 0.0308(2) 0.89631(11)
O15_3 O 0.5796(2) 0.3830(2) 0.89243(12)
O16_3 O 0.5432(3) 0.4587(2) 0.91842(12)
O20_5 O 0.80980(19) 0.2045(2) 0.94526(11)
O22_5 O 0.6400(2) 0.2336(2) 0.98653(10)
O23_5 O 0.6596(2) 0.0864(2) 0.96168(9)
O29_3 O 0.9724(2) 0.48200(18) 0.86981(9)
H23_5 H 0.849583 0.440508 0.933873
H24_5 H 0.860094 0.509945 0.919608
C29_5 C 0.5032(3) 0.9860(4) 0.03152(17)
C24_5 C 0.5283(3) 0.9894(3) 0.93936(15)
C25_5 C 0.5027(4) 0.9681(3) 0.90595(17)
C26_5 C 0.5021(2) 0.9775(2) 0.96932(16)
H16_5 H 0.4655 0.9548 0.9705
C27_5 C 0.5296(3) 0.9992(3) 0.99796(11)
O6_5 O 0.9007(3) 0.9025(3) 0.93446(10)
O11_3 O 0.4583(2) 0.92740(19) 0.90950(10)
O12_3 O 0.5276(2) 0.98200(18) 0.88019(9)
O32_3 O 0.9204(2) 0.8830(2) 0.85757(12)
O33_3 O 0.9568(3) 0.9587(2) 0.83158(12)
H21_5 H 0.857397 0.917159 0.937479
H22_5 H 0.900949 0.856625 0.932213
C24_6 C 0.4717(3) 0.0106(3) 0.43936(15)
C25_6 C 0.4973(4) 0.0319(3) 0.40595(17)
C26_6 C 0.4979(2) 0.0225(2) 0.46932(16)
H16_6 H 0.5345 0.0452 0.4705
C27_6 C 0.4704(3) 0.0008(3) 0.49796(11)
C29_6 C 0.4968(3) 0.0140(4) 0.53152(17)
O6_6 O 0.0993(3) 0.0975(3) 0.43446(10)
O11_4 O 0.5417(2) 0.07260(19) 0.40950(10)
O12_4 O 0.4724(2) 0.01800(18) 0.38019(9)
O32_4 O 0.0796(2) 0.1170(2) 0.35757(12)
O33_4 O 0.0432(3) 0.0413(2) 0.33158(12)
H21_6 H 0.142603 0.0828409 0.437479
H22_6 H 0.099051 0.143375 0.432213
C1_6 C 0.2725(3) 0.8304(3) 0.47921(17)
C2_6 C 0.2450(3) 0.8030(3) 0.50947(15)
H1_6 H 0.2209 0.7666 0.5038
H2_6 H 0.2779 0.7902 0.5242
C3_6 C 0.3119(3) 0.8859(3) 0.48963(13)
H3_6 H 0.2859 0.9162 0.5006
H4_6 H 0.3436 0.8724 0.5049
C4_6 C 0.3134(3) 0.7831(3) 0.46295(13)
H5_6 H 0.2894 0.7469 0.4567
H6_6 H 0.3325 0.8004 0.4435
C5_6 C 0.2240(3) 0.8481(3) 0.45410(15)
H7_6 H 0.1963 0.8791 0.4632
H8_6 H 0.2439 0.8656 0.4349
C6_6 C 0.1378(4) 0.8036(2) 0.42784(15)
C7_6 C 0.1066(2) 0.7493(3) 0.41985(13)
H9_6 H 0.1224 0.7111 0.4264
C8_6 C 0.0516(3) 0.7519(3) 0.40203(15)
C9_6 C 0.0183(3) 0.6862(3) 0.39722(18)
C10_6 C 0.0295(4) 0.8059(2) 0.38979(13)
C11_6 C 0.0615(3) 0.8603(3) 0.39664(14)
C12_6 C 0.1147(3) 0.8586(3) 0.41586(14)
H11_6 H 0.1352 0.8954 0.4207
C13_6 C 0.0393(4) 0.9200(4) 0.3864(2)
C14_6 C 0.1730(4) 0.8319(3) 0.55268(17)
C15_6 C 0.1696(3) 0.7723(3) 0.56557(17)
H12_6 H 0.1909 0.7400 0.5555
C16_6 C 0.1342(3) 0.7611(3) 0.59344(19)
C17_6 C 0.1284(4) 0.6922(4) 0.6087(2)
C18_6 C 0.1039(4) 0.8090(3) 0.60703(14)
H13_6 H 0.0791 0.8017 0.6253
C19_6 C 0.1081(3) 0.8692(3) 0.59493(15)
C20_6 C 0.1433(3) 0.8812(3) 0.56708(17)
H14_6 H 0.1465 0.9211 0.5585
C21_6 C 0.0752(4) 0.9237(4) 0.60987(17)
C22_6 C 0.3905(3) 0.9532(3) 0.46624(15)
C23_6 C 0.4193(2) 0.9732(3) 0.43763(10)
H15_6 H 0.4035 0.9615 0.4173
C28_6 C 0.4170(3) 0.9649(3) 0.49635(12)
H17_6 H 0.3993 0.9489 0.5154
C30_6 C 0.3873(3) 0.7095(3) 0.4833(2)
C31_6 C 0.4070(4) 0.6807(3) 0.51198(12)
H18_6 H 0.4015 0.7003 0.5321
C32_6 C 0.4350(4) 0.6227(3) 0.51059(18)
C33_6 C 0.4533(5) 0.5962(4) 0.5432(2)
C34_6 C 0.4439(3) 0.5910(3) 0.48041(19)
H19_6 H 0.4610 0.5514 0.4799
C35_6 C 0.4261(3) 0.6208(3) 0.45170(12)
C36_6 C 0.3963(3) 0.6779(3) 0.45322(15)
H20_6 H 0.3819 0.6959 0.4339
C37_6 C 0.4365(4) 0.5925(4) 0.4187(2)
O1_6 O 0.0419(2) 0.6377(2) 0.40801(11)
O3_6 O 0.13140(17) 0.5348(2) 0.41594(9)
O8_6 O 0.0622(2) 0.9692(2) 0.39631(11)
O15_4 O 0.4204(2) 0.6170(2) 0.39243(12)
O16_4 O 0.4568(3) 0.5413(2) 0.41842(12)
O20_6 O 0.19020(19) 0.7955(2) 0.44526(11)
O21_6 O 0.2062(2) 0.8470(2) 0.52545(12)
O22_6 O 0.3600(2) 0.7664(2) 0.48653(10)
O23_6 O 0.3404(2) 0.9136(2) 0.46168(9)
O29_4 O 0.0276(2) 0.51800(18) 0.36981(9)
H23_6 H 0.150417 0.559492 0.433873
H24_6 H 0.139906 0.490055 0.419608
H10_6 H 0.9936 0.8065 0.3771
O2_6 O 0.96340(18) 0.6927(2) 0.38268(11)
O7_6 O 0.9948(2) 0.9218(2) 0.36509(11)
O19_6 O 0.92585(17) 0.56970(17) 0.41501(8)
N1_6 N 0.8641(4) 0.5473(4) 0.4556(2)
C38_6 C 0.8840(4) 0.5255(4) 0.4232(2)
C39_6 C 0.8668(5) 0.6072(5) 0.4740(2)
C40_6 C 0.8204(5) 0.4948(5) 0.4657(2)
C41_6 C 0.8704(4) 0.4701(4) 0.40325(19)
O28_4 O 0.9583(2) 0.57260(19) 0.34050(10)
H25_6 H 0.841827 0.642786 0.460392
H26_6 H 0.845532 0.601241 0.498017
H27_6 H 0.915009 0.621224 0.476999
H28_6 H 0.845963 0.451236 0.46638
H29_6 H 0.801394 0.504534 0.489902
H30_6 H 0.782714 0.491232 0.448013
H31_6 H 0.91249 0.442683 0.400371
H32_6 H 0.83505 0.442294 0.415419
H33_6 H 0.853614 0.484401 0.379224
H16_7 H 0.0345 0.4548 0.7795
C40_7 C 0.3204(5) 0.0052(5) 0.7843(2)
C41_7 C 0.3704(4) 0.0299(4) 0.84675(19)
H24_7 H 0.639906 0.00994534 0.830392
H28_7 H 0.345963 0.0487641 0.78362
H30_7 H 0.282714 0.00876804 0.801987
H31_7 H 0.41249 0.0573166 0.849629
H32_7 H 0.33505 0.0577058 0.834581
H33_7 H 0.353614 0.0155992 0.870776
C1_7 C 0.7725(3) 0.6696(3) 0.77079(17)
C2_7 C 0.7450(3) 0.6970(3) 0.74053(15)
H1_7 H 0.7209 0.7334 0.7462
H2_7 H 0.7779 0.7098 0.7258
C3_7 C 0.8119(3) 0.6141(3) 0.76037(13)
H3_7 H 0.7859 0.5838 0.7494
H4_7 H 0.8436 0.6276 0.7451
C4_7 C 0.8134(3) 0.7169(3) 0.78705(13)
H5_7 H 0.7894 0.7531 0.7933
H6_7 H 0.8325 0.6996 0.8065
C5_7 C 0.7240(3) 0.6519(3) 0.79590(15)
H7_7 H 0.6963 0.6209 0.7868
H8_7 H 0.7439 0.6344 0.8151
C6_7 C 0.6378(4) 0.6964(2) 0.82216(15)
C7_7 C 0.6066(2) 0.7507(3) 0.83015(13)
H9_7 H 0.6224 0.7889 0.8236
C8_7 C 0.5516(3) 0.7481(3) 0.84797(15)
C9_7 C 0.5183(3) 0.8138(3) 0.85278(18)
C10_7 C 0.5295(4) 0.6941(2) 0.86021(13)
H10_7 H 0.4936 0.6935 0.8729
C11_7 C 0.5615(3) 0.6397(3) 0.85336(14)
C12_7 C 0.6147(3) 0.6414(3) 0.83414(14)
H11_7 H 0.6352 0.6046 0.8293
C13_7 C 0.5393(4) 0.5800(4) 0.8636(2)
C14_7 C 0.6730(4) 0.6681(3) 0.69732(17)
C15_7 C 0.6696(3) 0.7277(3) 0.68443(17)
H12_7 H 0.6909 0.7600 0.6945
C16_7 C 0.6342(3) 0.7389(3) 0.65656(19)
C17_7 C 0.6284(4) 0.8078(4) 0.6413(2)
C18_7 C 0.6039(4) 0.6910(3) 0.64297(14)
H13_7 H 0.5791 0.6983 0.6247
C19_7 C 0.6081(3) 0.6308(3) 0.65507(15)
C20_7 C 0.6433(3) 0.6188(3) 0.68292(17)
H14_7 H 0.6465 0.5789 0.6915
C21_7 C 0.5752(4) 0.5763(4) 0.64013(17)
C22_7 C 0.8905(3) 0.5468(3) 0.78376(15)
C23_7 C 0.9193(2) 0.5268(3) 0.81237(10)
H15_7 H 0.9035 0.5385 0.8327
C24_7 C 0.9717(3) 0.4894(3) 0.81064(15)
C25_7 C 0.9973(4) 0.4681(3) 0.84405(17)
C26_7 C 0.9979(2) 0.4775(2) 0.78068(16)
C27_7 C 0.9704(3) 0.4992(3) 0.75204(11)
C28_7 C 0.9170(3) 0.5351(3) 0.75365(12)
H17_7 H 0.8993 0.5511 0.7346
C29_7 C 0.9968(3) 0.4860(4) 0.71848(17)
C30_7 C 0.8873(3) 0.7905(3) 0.7667(2)
C31_7 C 0.9070(4) 0.8193(3) 0.73802(12)
H18_7 H 0.9015 0.7997 0.7179
C32_7 C 0.9350(4) 0.8773(3) 0.73941(18)
C33_7 C 0.9533(5) 0.9038(4) 0.7068(2)
C34_7 C 0.9439(3) 0.9090(3) 0.76959(19)
H19_7 H 0.9610 0.9486 0.7701
C35_7 C 0.9261(3) 0.8792(3) 0.79830(12)
C36_7 C 0.8963(3) 0.8221(3) 0.79678(15)
H20_7 H 0.8819 0.8041 0.8161
C37_7 C 0.9365(4) 0.9075(4) 0.8313(2)
O1_7 O 0.5419(2) 0.8623(2) 0.84199(11)
O2_7 O 0.46340(18) 0.8073(2) 0.86732(11)
O3_7 O 0.63140(17) 0.9652(2) 0.83406(9)
O6_7 O 0.5993(3) 0.4025(3) 0.81554(10)
O7_7 O 0.4948(2) 0.5782(2) 0.88491(11)
O8_7 O 0.5622(2) 0.5308(2) 0.85369(11)
O19_7 O 0.42585(17) 0.93030(17) 0.83499(8)
O20_7 O 0.69020(19) 0.7045(2) 0.80474(11)
O21_7 O 0.7062(2) 0.6530(2) 0.72455(12)
O22_7 O 0.8600(2) 0.7336(2) 0.76347(10)
O23_7 O 0.8404(2) 0.5864(2) 0.78832(9)
N1_7 N 0.3641(4) 0.9527(4) 0.7944(2)
C38_7 C 0.3840(4) 0.9745(4) 0.8268(2)
C39_7 C 0.3668(5) 0.8928(5) 0.7760(2)
H21_7 H 0.642603 0.417159 0.812521
H22_7 H 0.599051 0.356625 0.817787
H23_7 H 0.650417 0.940508 0.816127
H25_7 H 0.341827 0.857214 0.789608
H26_7 H 0.345532 0.898759 0.751983
H27_7 H 0.415009 0.878776 0.773001
H29_7 H 0.301394 0.995466 0.760098
C1_8 C 0.2275(3) 0.3304(3) 0.27079(17)
C2_8 C 0.2550(3) 0.3030(3) 0.24053(15)
H1_8 H 0.2791 0.2666 0.2462
H2_8 H 0.2221 0.2902 0.2258
C3_8 C 0.1881(3) 0.3859(3) 0.26037(13)
H3_8 H 0.2141 0.4162 0.2494
H4_8 H 0.1564 0.3724 0.2451
C4_8 C 0.1866(3) 0.2831(3) 0.28705(13)
H5_8 H 0.2106 0.2469 0.2933
H6_8 H 0.1675 0.3004 0.3065
C5_8 C 0.2760(3) 0.3481(3) 0.29590(15)
H7_8 H 0.3037 0.3791 0.2868
H8_8 H 0.2561 0.3656 0.3151
C6_8 C 0.3622(4) 0.3036(2) 0.32216(15)
C7_8 C 0.3934(2) 0.2493(3) 0.33015(13)
H9_8 H 0.3776 0.2111 0.3236
C8_8 C 0.4484(3) 0.2519(3) 0.34797(15)
C9_8 C 0.4817(3) 0.1862(3) 0.35278(18)
C10_8 C 0.4705(4) 0.3059(2) 0.36021(13)
H10_8 H 0.5064 0.3065 0.3729
C11_8 C 0.4385(3) 0.3603(3) 0.35336(14)
C12_8 C 0.3853(3) 0.3586(3) 0.33414(14)
H11_8 H 0.3648 0.3954 0.3293
C13_8 C 0.4607(4) 0.4200(4) 0.3636(2)
C14_8 C 0.3270(4) 0.3319(3) 0.19732(17)
C15_8 C 0.3304(3) 0.2723(3) 0.18443(17)
H12_8 H 0.3091 0.2400 0.1945
C16_8 C 0.3658(3) 0.2611(3) 0.15656(19)
C17_8 C 0.3716(4) 0.1922(4) 0.1413(2)
C18_8 C 0.3961(4) 0.3090(3) 0.14297(14)
H13_8 H 0.4209 0.3017 0.1247
C19_8 C 0.3919(3) 0.3692(3) 0.15507(15)
C20_8 C 0.3567(3) 0.3812(3) 0.18292(17)
H14_8 H 0.3535 0.4211 0.1915
C21_8 C 0.4248(4) 0.4237(4) 0.14013(17)
C22_8 C 0.1095(3) 0.4532(3) 0.28376(15)
C23_8 C 0.0807(2) 0.4732(3) 0.31237(10)
H15_8 H 0.0965 0.4615 0.3327
C24_8 C 0.0283(3) 0.5106(3) 0.31064(15)
C25_8 C 0.0027(4) 0.5319(3) 0.34405(17)
C26_8 C 0.0021(2) 0.5225(2) 0.28068(16)
C27_8 C 0.0296(3) 0.5008(3) 0.25204(11)
C28_8 C 0.0830(3) 0.4649(3) 0.25365(12)
H17_8 H 0.1007 0.4489 0.2346
C29_8 C 0.0032(3) 0.5140(4) 0.21848(17)
C30_8 C 0.1127(3) 0.2095(3) 0.2667(2)
C31_8 C 0.0930(4) 0.1807(3) 0.23802(12)
H18_8 H 0.0985 0.2003 0.2179
C32_8 C 0.0650(4) 0.1227(3) 0.23941(18)
C33_8 C 0.0467(5) 0.0962(4) 0.2068(2)
C34_8 C 0.0561(3) 0.0910(3) 0.26959(19)
H19_8 H 0.0390 0.0514 0.2701
C35_8 C 0.0739(3) 0.1208(3) 0.29830(12)
C36_8 C 0.1037(3) 0.1779(3) 0.29678(15)
H20_8 H 0.1181 0.1959 0.3161
C37_8 C 0.0635(4) 0.0925(4) 0.3313(2)
O1_8 O 0.4581(2) 0.1377(2) 0.34199(11)
O2_8 O 0.53660(18) 0.1927(2) 0.36732(11)
O3_8 O 0.36860(17) 0.0348(2) 0.33406(9)
O6_8 O 0.4007(3) 0.5975(3) 0.31554(10)
O7_8 O 0.5052(2) 0.4218(2) 0.38491(11)
O8_8 O 0.4378(2) 0.4692(2) 0.35369(11)
O19_8 O 0.57415(17) 0.06970(17) 0.33499(8)
O20_8 O 0.30980(19) 0.2955(2) 0.30474(11)
O21_8 O 0.2938(2) 0.3470(2) 0.22455(12)
O22_8 O 0.1400(2) 0.2664(2) 0.26347(10)
O23_8 O 0.1596(2) 0.4136(2) 0.28832(9)
N1_8 N 0.6359(4) 0.0473(4) 0.2944(2)
C38_8 C 0.6160(4) 0.0255(4) 0.3268(2)
C39_8 C 0.6332(5) 0.1072(5) 0.2760(2)
H21_8 H 0.357397 0.582841 0.312521
H22_8 H 0.400949 0.643375 0.317787
H23_8 H 0.349583 0.0594916 0.316127
H25_8 H 0.658173 0.142786 0.289608
H26_8 H 0.654468 0.101241 0.251983
H27_8 H 0.584991 0.121224 0.273001
H29_8 H 0.698606 0.0045344 0.260098
C40_8 C 0.6796(5) 0.9948(5) 0.2843(2)
C41_8 C 0.6296(4) 0.9701(4) 0.34675(19)
H24_8 H 0.360094 0.990055 0.330392
H28_8 H 0.654037 0.951236 0.28362
H30_8 H 0.717286 0.991232 0.301987
H31_8 H 0.58751 0.942683 0.349629
H32_8 H 0.66495 0.942294 0.334581
H33_8 H 0.646386 0.984401 0.370776
H16_8 H 0.9655 0.5452 0.2795
loop_
_geom_bond_atom_site_label_1
_geom_bond_atom_site_label_2
_geom_bond_site_symmetry_1
_geom_bond_site_symmetry_2
Zn3 O6 1_555 1_555
C25 C24 1_555 1_555
C26 C24 1_555 1_555
H16 C26 1_555 1_555
C27 C26 1_555 1_555
C29 C27 1_555 1_555
O4 C29 1_555 1_555
O5 C29 1_555 1_555
O11 C25 1_555 1_555
O12 C25 1_555 1_555
Zn5 O11 1_555 1_555
Zn7 O4 1_555 1_555
Zn8 O12 1_555 1_555
O32 Zn3 1_555 1_555
O5 Zn7 1_555 1_555
O6 H21 1_555 1_555
O6 H22 1_555 1_555
Zn2 O1 1_555 1_555
C1 C2 1_555 1_555
C2 H1 1_555 1_555
H2 C2 1_555 1_555
C3 C1 1_555 1_555
H3 C3 1_555 1_555
H4 C3 1_555 1_555
C4 C1 1_555 1_555
H5 C4 1_555 1_555
H6 C4 1_555 1_555
C5 C1 1_555 1_555
H7 C5 1_555 1_555
H8 C5 1_555 1_555
C6 C7 1_555 1_555
C7 H9 1_555 1_555
C8 C7 1_555 1_555
C9 C8 1_555 1_555
C10 C8 1_555 1_555
C11 C10 1_555 1_555
C12 C6 1_555 1_555
H11 C12 1_555 1_555
C13 C11 1_555 1_555
C14 C15 1_555 1_555
C15 H12 1_555 1_555
C16 C15 1_555 1_555
C17 C16 1_555 1_555
C18 C16 1_555 1_555
H13 C18 1_555 1_555
C19 C18 1_555 1_555
C20 C14 1_555 1_555
H14 C20 1_555 1_555
C21 C19 1_555 1_555
C22 C23 1_555 1_555
C23 H15 1_555 1_555
C28 C22 1_555 1_555
H17 C28 1_555 1_555
C30 C31 1_555 1_555
C31 H18 1_555 1_555
C32 C31 1_555 1_555
C33 C32 1_555 1_555
C34 C32 1_555 1_555
H19 C34 1_555 1_555
C35 C34 1_555 1_555
C36 C30 1_555 1_555
H20 C36 1_555 1_555
C37 C35 1_555 1_555
O1 C9 1_555 1_555
O3 Zn2 1_555 1_555
O9 C33 1_555 1_555
O10 C33 1_555 1_555
O13 C21 1_555 1_555
O14 C21 1_555 1_555
O15 C37 1_555 1_555
O16 C37 1_555 1_555
O17 C17 1_555 1_555
O18 C17 1_555 1_555
O20 C5 1_555 1_555
O21 C2 1_555 1_555
O22 C4 1_555 1_555
O23 C3 1_555 1_555
Zn6 O17 1_555 1_555
Zn10 O15 1_555 1_555
Zn11 O9 1_555 1_555
Zn13 O16 1_555 1_555
O24 Zn2 1_555 1_555
O25 Zn2 1_555 1_555
O29 Zn2 1_555 1_555
C6 O20 1_555 1_555
C11 C12 1_555 1_555
C13 O8 1_555 1_555
C14 O21 1_555 1_555
C19 C20 1_555 1_555
C22 O23 1_555 1_555
C30 O22 1_555 1_555
C35 C36 1_555 1_555
O10 Zn11 1_555 1_555
O18 Zn6 1_555 1_555
O3 H23 1_555 1_555
O3 H24 1_555 1_555
Zn1 O2 1_555 1_555
Zn4 O7 1_555 1_555
O19 Zn1 1_555 1_555
N1 C38 1_555 1_555
C38 O19 1_555 1_555
C39 N1 1_555 1_555
C40 N1 1_555 1_555
C41 C38 1_555 1_555
O26 Zn4 1_555 1_555
O27 Zn4 1_555 1_555
O28 Zn1 1_555 1_555
O34 Zn1 1_555 1_555
O35 Zn1 1_555 1_555
C39 H25 1_555 1_555
C39 H26 1_555 1_555
C39 H27 1_555 1_555
C40 H28 1_555 1_555
C40 H29 1_555 1_555
C40 H30 1_555 1_555
C41 H31 1_555 1_555
C41 H32 1_555 1_555
C41 H33 1_555 1_555
Zn1_2 O2_2 1_555 1_555
Zn4_2 O7_2 1_555 1_555
O19_2 Zn1_2 1_555 1_555
N1_2 C38_2 1_555 1_555
C38_2 O19_2 1_555 1_555
C39_2 N1_2 1_555 1_555
C40_2 N1_2 1_555 1_555
C41_2 C38_2 1_555 1_555
O26_2 Zn4_2 1_555 1_555
O27_2 Zn4_2 1_555 1_555
O28_2 Zn1_2 1_555 1_555
O34_2 Zn1_2 1_555 1_555
O35_2 Zn1_2 1_555 1_555
C39_2 H25_2 1_555 1_555
C39_2 H26_2 1_555 1_555
C39_2 H27_2 1_555 1_555
C40_2 H28_2 1_555 1_555
C40_2 H29_2 1_555 1_555
C40_2 H30_2 1_555 1_555
C41_2 H31_2 1_555 1_555
C41_2 H32_2 1_555 1_555
C41_2 H33_2 1_555 1_555
Zn2_2 O1_2 1_555 1_555
C3_2 C1_2 1_555 1_555
C4_2 C1_2 1_555 1_555
H5_2 C4_2 1_555 1_555
H6_2 C4_2 1_555 1_555
C5_2 C1_2 1_555 1_555
H7_2 C5_2 1_555 1_555
H8_2 C5_2 1_555 1_555
C6_2 C7_2 1_555 1_555
C7_2 H9_2 1_555 1_555
C8_2 C7_2 1_555 1_555
C9_2 C8_2 1_555 1_555
C10_2 C8_2 1_555 1_555
C11_2 C10_2 1_555 1_555
C12_2 C6_2 1_555 1_555
H11_2 C12_2 1_555 1_555
C13_2 C11_2 1_555 1_555
C22_2 C23_2 1_555 1_555
C23_2 H15_2 1_555 1_555
C28_2 C22_2 1_555 1_555
H19_2 C34_2 1_555 1_555
C35_2 C34_2 1_555 1_555
C36_2 C30_2 1_555 1_555
H20_2 C36_2 1_555 1_555
C37_2 C35_2 1_555 1_555
O1_2 C9_2 1_555 1_555
O3_2 Zn2_2 1_555 1_555
O15_2 C37_2 1_555 1_555
O16_2 C37_2 1_555 1_555
O20_2 C5_2 1_555 1_555
O22_2 C4_2 1_555 1_555
O23_2 C3_2 1_555 1_555
Zn10_2 O15_2 1_555 1_555
Zn13_2 O16_2 1_555 1_555
O24_2 Zn2_2 1_555 1_555
O25_2 Zn2_2 1_555 1_555
O29_2 Zn2_2 1_555 1_555
C6_2 O20_2 1_555 1_555
C11_2 C12_2 1_555 1_555
C13_2 O8_2 1_555 1_555
C22_2 O23_2 1_555 1_555
C30_2 O22_2 1_555 1_555
C35_2 C36_2 1_555 1_555
O3_2 H23_2 1_555 1_555
O3_2 H24_2 1_555 1_555
C2_2 H1_2 1_555 1_555
H2_2 C2_2 1_555 1_555
C14_2 C15_2 1_555 1_555
C15_2 H12_2 1_555 1_555
C16_2 C15_2 1_555 1_555
C17_2 C16_2 1_555 1_555
C18_2 C16_2 1_555 1_555
H13_2 C18_2 1_555 1_555
C19_2 C18_2 1_555 1_555
C20_2 C14_2 1_555 1_555
H14_2 C20_2 1_555 1_555
C21_2 C19_2 1_555 1_555
C31_2 H18_2 1_555 1_555
C32_2 C31_2 1_555 1_555
C33_2 C32_2 1_555 1_555
O9_2 C33_2 1_555 1_555
O10_2 C33_2 1_555 1_555
O13_2 C21_2 1_555 1_555
O14_2 C21_2 1_555 1_555
O17_2 C17_2 1_555 1_555
O18_2 C17_2 1_555 1_555
O21_2 C2_2 1_555 1_555
Zn6_2 O17_2 1_555 1_555
Zn11_2 O9_2 1_555 1_555
C14_2 O21_2 1_555 1_555
C19_2 C20_2 1_555 1_555
O10_2 Zn11_2 1_555 1_555
O18_2 Zn6_2 1_555 1_555
Zn3_2 O6_2 1_555 1_555
C25_2 C24_2 1_555 1_555
C26_2 C24_2 1_555 1_555
H16_2 C26_2 1_555 1_555
C27_2 C26_2 1_555 1_555
O11_2 C25_2 1_555 1_555
O12_2 C25_2 1_555 1_555
Zn5_2 O11_2 1_555 1_555
Zn8_2 O12_2 1_555 1_555
O32_2 Zn3_2 1_555 1_555
O6_2 H21_2 1_555 1_555
O6_2 H22_2 1_555 1_555
O4_2 C29_2 1_555 1_555
O5_2 C29_2 1_555 1_555
Zn7_2 O4_2 1_555 1_555
O5_2 Zn7_2 1_555 1_555
Zn5 O2_3 1_555 1_555
Zn8 O1_3 1_555 1_555
Zn10 O6_3 1_555 1_555
Zn13 O7_3 1_555 1_555
C1_3 C2_3 1_555 1_555
C2_3 H1_3 1_555 1_555
H2_3 C2_3 1_555 1_555
C3_3 C1_3 1_555 1_555
H3_3 C3_3 1_555 1_555
H4_3 C3_3 1_555 1_555
C4_3 C1_3 1_555 1_555
H5_3 C4_3 1_555 1_555
H6_3 C4_3 1_555 1_555
C5_3 C1_3 1_555 1_555
H7_3 C5_3 1_555 1_555
H8_3 C5_3 1_555 1_555
C6_3 C7_3 1_555 1_555
C7_3 H9_3 1_555 1_555
C8_3 C7_3 1_555 1_555
C9_3 C8_3 1_555 1_555
C10_3 C8_3 1_555 1_555
H10_3 C10_3 1_555 1_555
C11_3 C10_3 1_555 1_555
C12_3 C6_3 1_555 1_555
H11_3 C12_3 1_555 1_555
C13_3 C11_3 1_555 1_555
C14_3 C15_3 1_555 1_555
C15_3 H12_3 1_555 1_555
C16_3 C15_3 1_555 1_555
C17_3 C16_3 1_555 1_555
C18_3 C16_3 1_555 1_555
H13_3 C18_3 1_555 1_555
C19_3 C18_3 1_555 1_555
C20_3 C14_3 1_555 1_555
H14_3 C20_3 1_555 1_555
C21_3 C19_3 1_555 1_555
C22_3 C23_3 1_555 1_555
C23_3 H15_3 1_555 1_555
C24_3 C23_3 1_555 1_555
C25_3 C24_3 1_555 1_555
C26_3 C24_3 1_555 1_555
C27_3 C26_3 1_555 1_555
C28_3 C22_3 1_555 1_555
H17_3 C28_3 1_555 1_555
C29_3 C27_3 1_555 1_555
C30_3 C31_3 1_555 1_555
C31_3 H18_3 1_555 1_555
C32_3 C31_3 1_555 1_555
C33_3 C32_3 1_555 1_555
C34_3 C32_3 1_555 1_555
H19_3 C34_3 1_555 1_555
C35_3 C34_3 1_555 1_555
C36_3 C30_3 1_555 1_555
H20_3 C36_3 1_555 1_555
C37_3 C35_3 1_555 1_555
O1_3 C9_3 1_555 1_555
O2_3 C9_3 1_555 1_555
O3_3 Zn8 1_555 1_555
O4_3 C29_3 1_555 1_555
O7_3 C13_3 1_555 1_555
O8_3 Zn10 1_555 1_555
O9_3 C33_3 1_555 1_555
O10_3 C33_3 1_555 1_555
O29 C25_3 1_555 1_555
O13_3 C21_3 1_555 1_555
O14_3 C21_3 1_555 1_555
O32 C37_3 1_555 1_555
O33 C37_3 1_555 1_555
O17_3 C17_3 1_555 1_555
O18_3 C17_3 1_555 1_555
O19_3 Zn5 1_555 1_555
O20_3 C5_3 1_555 1_555
O21_3 C2_3 1_555 1_555
O22_3 C4_3 1_555 1_555
O23_3 C3_3 1_555 1_555
N1_3 C38_3 1_555 1_555
C38_3 O19_3 1_555 1_555
C39_3 N1_3 1_555 1_555
Zn6_3 O17_3 1_555 1_555
Zn9_3 O14_3 1_555 1_555
Zn12_2 O9_3 1_555 1_555
Zn11_2 O13_3 1_555 1_555
O25_3 Zn8 1_555 1_555
O26_3 Zn13 1_555 1_555
O27_3 Zn13 1_555 1_555
O30_3 Zn13 1_555 1_555
O31_3 Zn10 1_555 1_555
O34_3 Zn5 1_555 1_555
O35_3 Zn5 1_555 1_555
C6_3 O20_3 1_555 1_555
C11_3 C12_3 1_555 1_555
C13_3 O8_3 1_555 1_555
C14_3 O21_3 1_555 1_555
C19_3 C20_3 1_555 1_555
C22_3 O23_3 1_555 1_555
C27_3 C28_3 1_555 1_555
C30_3 O22_3 1_555 1_555
C35_3 C36_3 1_555 1_555
O10_3 Zn12_2 1_555 1_555
O18_3 Zn6_3 1_555 1_555
O6_3 H21_3 1_555 1_555
O6_3 H22_3 1_555 1_555
O3_3 H23_3 1_555 1_555
C39_3 H25_3 1_555 1_555
C39_3 H26_3 1_555 1_555
C39_3 H27_3 1_555 1_555
O5_3 Zn7_3 1_555 1_555
C40_3 H28_3 1_555 1_555
C40_3 H30_3 1_555 1_555
C41_3 H31_3 1_555 1_555
C41_3 H32_3 1_555 1_555
C41_3 H33_3 1_555 1_555
C40_4 H28_4 1_555 1_555
C40_4 H30_4 1_555 1_555
C41_4 H31_4 1_555 1_555
C41_4 H32_4 1_555 1_555
C41_4 H33_4 1_555 1_555
O5_4 Zn7_4 1_555 1_555
Zn5_2 O2_4 1_555 1_555
Zn8_2 O1_4 1_555 1_555
Zn10_2 O6_4 1_555 1_555
Zn13_2 O7_4 1_555 1_555
C1_4 C2_4 1_555 1_555
C2_4 H1_4 1_555 1_555
H2_4 C2_4 1_555 1_555
C3_4 C1_4 1_555 1_555
H3_4 C3_4 1_555 1_555
H4_4 C3_4 1_555 1_555
C4_4 C1_4 1_555 1_555
H5_4 C4_4 1_555 1_555
H6_4 C4_4 1_555 1_555
C5_4 C1_4 1_555 1_555
H7_4 C5_4 1_555 1_555
H8_4 C5_4 1_555 1_555
C6_4 C7_4 1_555 1_555
C7_4 H9_4 1_555 1_555
C8_4 C7_4 1_555 1_555
C9_4 C8_4 1_555 1_555
C10_4 C8_4 1_555 1_555
H10_4 C10_4 1_555 1_555
C11_4 C10_4 1_555 1_555
C12_4 C6_4 1_555 1_555
H11_4 C12_4 1_555 1_555
C13_4 C11_4 1_555 1_555
C14_4 C15_4 1_555 1_555
C15_4 H12_4 1_555 1_555
C16_4 C15_4 1_555 1_555
C17_4 C16_4 1_555 1_555
C18_4 C16_4 1_555 1_555
H13_4 C18_4 1_555 1_555
C19_4 C18_4 1_555 1_555
C20_4 C14_4 1_555 1_555
H14_4 C20_4 1_555 1_555
C21_4 C19_4 1_555 1_555
C22_4 C23_4 1_555 1_555
C23_4 H15_4 1_555 1_555
C24_4 C23_4 1_555 1_555
C25_4 C24_4 1_555 1_555
C26_4 C24_4 1_555 1_555
C27_4 C26_4 1_555 1_555
C28_4 C22_4 1_555 1_555
H17_4 C28_4 1_555 1_555
C29_4 C27_4 1_555 1_555
C30_4 C31_4 1_555 1_555
C31_4 H18_4 1_555 1_555
C32_4 C31_4 1_555 1_555
C33_4 C32_4 1_555 1_555
C34_4 C32_4 1_555 1_555
H19_4 C34_4 1_555 1_555
C35_4 C34_4 1_555 1_555
C36_4 C30_4 1_555 1_555
H20_4 C36_4 1_555 1_555
C37_4 C35_4 1_555 1_555
O1_4 C9_4 1_555 1_555
O2_4 C9_4 1_555 1_555
O3_4 Zn8_2 1_555 1_555
O4_4 C29_4 1_555 1_555
O7_4 C13_4 1_555 1_555
O8_4 Zn10_2 1_555 1_555
O9_4 C33_4 1_555 1_555
O10_4 C33_4 1_555 1_555
O29_2 C25_4 1_555 1_555
O13_4 C21_4 1_555 1_555
O14_4 C21_4 1_555 1_555
O32_2 C37_4 1_555 1_555
O33_2 C37_4 1_555 1_555
O17_4 C17_4 1_555 1_555
O18_4 C17_4 1_555 1_555
O19_4 Zn5_2 1_555 1_555
O20_4 C5_4 1_555 1_555
O21_4 C2_4 1_555 1_555
O22_4 C4_4 1_555 1_555
O23_4 C3_4 1_555 1_555
N1_4 C38_4 1_555 1_555
C38_4 O19_4 1_555 1_555
C39_4 N1_4 1_555 1_555
Zn6_4 O17_4 1_555 1_555
Zn9_4 O14_4 1_555 1_555
Zn12 O9_4 1_555 1_555
Zn11 O13_4 1_555 1_555
O25_4 Zn8_2 1_555 1_555
O26_4 Zn13_2 1_555 1_555
O27_4 Zn13_2 1_555 1_555
O30_4 Zn13_2 1_555 1_555
O31_4 Zn10_2 1_555 1_555
O34_4 Zn5_2 1_555 1_555
O35_4 Zn5_2 1_555 1_555
C6_4 O20_4 1_555 1_555
C11_4 C12_4 1_555 1_555
C13_4 O8_4 1_555 1_555
C14_4 O21_4 1_555 1_555
C19_4 C20_4 1_555 1_555
C22_4 O23_4 1_555 1_555
C27_4 C28_4 1_555 1_555
C30_4 O22_4 1_555 1_555
C35_4 C36_4 1_555 1_555
O10_4 Zn12 1_555 1_555
O18_4 Zn6_4 1_555 1_555
O6_4 H21_4 1_555 1_555
O6_4 H22_4 1_555 1_555
O3_4 H23_4 1_555 1_555
C39_4 H25_4 1_555 1_555
C39_4 H26_4 1_555 1_555
C39_4 H27_4 1_555 1_555
Zn6_3 O2_5 1_555 1_555
Zn12_2 O7_5 1_555 1_555
O19_5 Zn6_3 1_555 1_555
N1_5 C38_5 1_555 1_555
C38_5 O19_5 1_555 1_555
C39_5 N1_5 1_555 1_555
C40_5 N1_5 1_555 1_555
C41_5 C38_5 1_555 1_555
O28_3 Zn6_3 1_555 1_555
C39_5 H25_5 1_555 1_555
C39_5 H26_5 1_555 1_555
C39_5 H27_5 1_555 1_555
C40_5 H28_5 1_555 1_555
C40_5 H29_5 1_555 1_555
C40_5 H30_5 1_555 1_555
C41_5 H31_5 1_555 1_555
C41_5 H32_5 1_555 1_555
C41_5 H33_5 1_555 1_555
C2_5 H1_5 1_555 1_555
H2_5 C2_5 1_555 1_555
C14_5 C15_5 1_555 1_555
C15_5 H12_5 1_555 1_555
C16_5 C15_5 1_555 1_555
C17_5 C16_5 1_555 1_555
C18_5 C16_5 1_555 1_555
H13_5 C18_5 1_555 1_555
C19_5 C18_5 1_555 1_555
C20_5 C14_5 1_555 1_555
H14_5 C20_5 1_555 1_555
C21_5 C19_5 1_555 1_555
C31_5 H18_5 1_555 1_555
C32_5 C31_5 1_555 1_555
C33_5 C32_5 1_555 1_555
O26_4 C33_5 1_555 1_555
O27_4 C33_5 1_555 1_555
O30_2 C21_5 1_555 1_555
O31_2 C21_5 1_555 1_555
O34_4 C17_5 1_555 1_555
O35_4 C17_5 1_555 1_555
O21_5 C2_5 1_555 1_555
C14_5 O21_5 1_555 1_555
C19_5 C20_5 1_555 1_555
Zn7_2 O1_5 1_555 1_555
C3_5 C1_5 1_555 1_555
C4_5 C1_5 1_555 1_555
H5_5 C4_5 1_555 1_555
H6_5 C4_5 1_555 1_555
C5_5 C1_5 1_555 1_555
H7_5 C5_5 1_555 1_555
H8_5 C5_5 1_555 1_555
C6_5 C7_5 1_555 1_555
C7_5 H9_5 1_555 1_555
C8_5 C7_5 1_555 1_555
C9_5 C8_5 1_555 1_555
C10_5 C8_5 1_555 1_555
C11_5 C10_5 1_555 1_555
C12_5 C6_5 1_555 1_555
H11_5 C12_5 1_555 1_555
C13_5 C11_5 1_555 1_555
C22_5 C23_5 1_555 1_555
C23_5 H15_5 1_555 1_555
C28_5 C22_5 1_555 1_555
H19_5 C34_5 1_555 1_555
C35_5 C34_5 1_555 1_555
C36_5 C30_5 1_555 1_555
H20_5 C36_5 1_555 1_555
C37_5 C35_5 1_555 1_555
O1_5 C9_5 1_555 1_555
O3_5 Zn7_2 1_555 1_555
O15_3 C37_5 1_555 1_555
O16_3 C37_5 1_555 1_555
O20_5 C5_5 1_555 1_555
O22_5 C4_5 1_555 1_555
O23_5 C3_5 1_555 1_555
Zn9_3 O15_3 1_555 1_555
Zn11_2 O16_3 1_555 1_555
O29_3 Zn7_2 1_555 1_555
C6_5 O20_5 1_555 1_555
C11_5 C12_5 1_555 1_555
C13_5 O8_5 1_555 1_555
C22_5 O23_5 1_555 1_555
C30_5 O22_5 1_555 1_555
C35_5 C36_5 1_555 1_555
O3_5 H23_5 1_555 1_555
O3_5 H24_5 1_555 1_555
O24_2 C29_5 1_555 1_555
O25_2 C29_5 1_555 1_555
Zn9_2 O6_5 1_555 1_555
C25_5 C24_5 1_555 1_555
C26_5 C24_5 1_555 1_555
H16_5 C26_5 1_555 1_555
C27_5 C26_5 1_555 1_555
O11_3 C25_5 1_555 1_555
O12_3 C25_5 1_555 1_555
Zn6_2 O11_3 1_555 1_555
Zn7_3 O12_3 1_555 1_555
O32_3 Zn9_2 1_555 1_555
O6_5 H21_5 1_555 1_555
O6_5 H22_5 1_555 1_555
Zn9 O6_6 1_555 1_555
C25_6 C24_6 1_555 1_555
C26_6 C24_6 1_555 1_555
H16_6 C26_6 1_555 1_555
C27_6 C26_6 1_555 1_555
C29_6 C27_6 1_555 1_555
O24 C29_6 1_555 1_555
O25 C29_6 1_555 1_555
O11_4 C25_6 1_555 1_555
O12_4 C25_6 1_555 1_555
Zn6 O11_4 1_555 1_555
Zn7_4 O12_4 1_555 1_555
O32_4 Zn9 1_555 1_555
O6_6 H21_6 1_555 1_555
O6_6 H22_6 1_555 1_555
Zn7 O1_6 1_555 1_555
C1_6 C2_6 1_555 1_555
C2_6 H1_6 1_555 1_555
H2_6 C2_6 1_555 1_555
C3_6 C1_6 1_555 1_555
H3_6 C3_6 1_555 1_555
H4_6 C3_6 1_555 1_555
C4_6 C1_6 1_555 1_555
H5_6 C4_6 1_555 1_555
H6_6 C4_6 1_555 1_555
C5_6 C1_6 1_555 1_555
H7_6 C5_6 1_555 1_555
H8_6 C5_6 1_555 1_555
C6_6 C7_6 1_555 1_555
C7_6 H9_6 1_555 1_555
C8_6 C7_6 1_555 1_555
C9_6 C8_6 1_555 1_555
C10_6 C8_6 1_555 1_555
C11_6 C10_6 1_555 1_555
C12_6 C6_6 1_555 1_555
H11_6 C12_6 1_555 1_555
C13_6 C11_6 1_555 1_555
C14_6 C15_6 1_555 1_555
C15_6 H12_6 1_555 1_555
C16_6 C15_6 1_555 1_555
C17_6 C16_6 1_555 1_555
C18_6 C16_6 1_555 1_555
H13_6 C18_6 1_555 1_555
C19_6 C18_6 1_555 1_555
C20_6 C14_6 1_555 1_555
H14_6 C20_6 1_555 1_555
C21_6 C19_6 1_555 1_555
C22_6 C23_6 1_555 1_555
C23_6 H15_6 1_555 1_555
C28_6 C22_6 1_555 1_555
H17_6 C28_6 1_555 1_555
C30_6 C31_6 1_555 1_555
C31_6 H18_6 1_555 1_555
C32_6 C31_6 1_555 1_555
C33_6 C32_6 1_555 1_555
C34_6 C32_6 1_555 1_555
H19_6 C34_6 1_555 1_555
C35_6 C34_6 1_555 1_555
C36_6 C30_6 1_555 1_555
H20_6 C36_6 1_555 1_555
C37_6 C35_6 1_555 1_555
O1_6 C9_6 1_555 1_555
O3_6 Zn7 1_555 1_555
O26_3 C33_6 1_555 1_555
O27_3 C33_6 1_555 1_555
O30 C21_6 1_555 1_555
O31 C21_6 1_555 1_555
O15_4 C37_6 1_555 1_555
O16_4 C37_6 1_555 1_555
O34_3 C17_6 1_555 1_555
O35_3 C17_6 1_555 1_555
O20_6 C5_6 1_555 1_555
O21_6 C2_6 1_555 1_555
O22_6 C4_6 1_555 1_555
O23_6 C3_6 1_555 1_555
Zn9_4 O15_4 1_555 1_555
Zn11 O16_4 1_555 1_555
O29_4 Zn7 1_555 1_555
C6_6 O20_6 1_555 1_555
C11_6 C12_6 1_555 1_555
C13_6 O8_6 1_555 1_555
C14_6 O21_6 1_555 1_555
C19_6 C20_6 1_555 1_555
C22_6 O23_6 1_555 1_555
C30_6 O22_6 1_555 1_555
C35_6 C36_6 1_555 1_555
O3_6 H23_6 1_555 1_555
O3_6 H24_6 1_555 1_555
Zn6_4 O2_6 1_555 1_555
Zn12 O7_6 1_555 1_555
O19_6 Zn6_4 1_555 1_555
N1_6 C38_6 1_555 1_555
C38_6 O19_6 1_555 1_555
C39_6 N1_6 1_555 1_555
C40_6 N1_6 1_555 1_555
C41_6 C38_6 1_555 1_555
O28_4 Zn6_4 1_555 1_555
C39_6 H25_6 1_555 1_555
C39_6 H26_6 1_555 1_555
C39_6 H27_6 1_555 1_555
C40_6 H28_6 1_555 1_555
C40_6 H29_6 1_555 1_555
C40_6 H30_6 1_555 1_555
C41_6 H31_6 1_555 1_555
C41_6 H32_6 1_555 1_555
C41_6 H33_6 1_555 1_555
C40_7 H28_7 1_555 1_555
C40_7 H30_7 1_555 1_555
C41_7 H31_7 1_555 1_555
C41_7 H32_7 1_555 1_555
C41_7 H33_7 1_555 1_555
Zn6_2 O2_7 1_555 1_555
Zn7_3 O1_7 1_555 1_555
Zn9_3 O6_7 1_555 1_555
Zn11_2 O7_7 1_555 1_555
C1_7 C2_7 1_555 1_555
C2_7 H1_7 1_555 1_555
H2_7 C2_7 1_555 1_555
C3_7 C1_7 1_555 1_555
H3_7 C3_7 1_555 1_555
H4_7 C3_7 1_555 1_555
C4_7 C1_7 1_555 1_555
H5_7 C4_7 1_555 1_555
H6_7 C4_7 1_555 1_555
C5_7 C1_7 1_555 1_555
H7_7 C5_7 1_555 1_555
H8_7 C5_7 1_555 1_555
C6_7 C7_7 1_555 1_555
C7_7 H9_7 1_555 1_555
C8_7 C7_7 1_555 1_555
C9_7 C8_7 1_555 1_555
C10_7 C8_7 1_555 1_555
H10_7 C10_7 1_555 1_555
C11_7 C10_7 1_555 1_555
C12_7 C6_7 1_555 1_555
H11_7 C12_7 1_555 1_555
C13_7 C11_7 1_555 1_555
C14_7 C15_7 1_555 1_555
C15_7 H12_7 1_555 1_555
C16_7 C15_7 1_555 1_555
C17_7 C16_7 1_555 1_555
C18_7 C16_7 1_555 1_555
H13_7 C18_7 1_555 1_555
C19_7 C18_7 1_555 1_555
C20_7 C14_7 1_555 1_555
H14_7 C20_7 1_555 1_555
C21_7 C19_7 1_555 1_555
C22_7 C23_7 1_555 1_555
C23_7 H15_7 1_555 1_555
C24_7 C23_7 1_555 1_555
C25_7 C24_7 1_555 1_555
C26_7 C24_7 1_555 1_555
C27_7 C26_7 1_555 1_555
C28_7 C22_7 1_555 1_555
H17_7 C28_7 1_555 1_555
C29_7 C27_7 1_555 1_555
C30_7 C31_7 1_555 1_555
C31_7 H18_7 1_555 1_555
C32_7 C31_7 1_555 1_555
C33_7 C32_7 1_555 1_555
C34_7 C32_7 1_555 1_555
H19_7 C34_7 1_555 1_555
C35_7 C34_7 1_555 1_555
C36_7 C30_7 1_555 1_555
H20_7 C36_7 1_555 1_555
C37_7 C35_7 1_555 1_555
O1_7 C9_7 1_555 1_555
O2_7 C9_7 1_555 1_555
O3_7 Zn7_3 1_555 1_555
O24_3 C29_7 1_555 1_555
O7_7 C13_7 1_555 1_555
O8_7 Zn9_3 1_555 1_555
O26 C33_7 1_555 1_555
O27 C33_7 1_555 1_555
O29_3 C25_7 1_555 1_555
O30_3 C21_7 1_555 1_555
O31_3 C21_7 1_555 1_555
O32_3 C37_7 1_555 1_555
O33_3 C37_7 1_555 1_555
O34 C17_7 1_555 1_555
O35 C17_7 1_555 1_555
O19_7 Zn6_2 1_555 1_555
O20_7 C5_7 1_555 1_555
O21_7 C2_7 1_555 1_555
O22_7 C4_7 1_555 1_555
O23_7 C3_7 1_555 1_555
N1_7 C38_7 1_555 1_555
C38_7 O19_7 1_555 1_555
C39_7 N1_7 1_555 1_555
C6_7 O20_7 1_555 1_555
C11_7 C12_7 1_555 1_555
C13_7 O8_7 1_555 1_555
C14_7 O21_7 1_555 1_555
C19_7 C20_7 1_555 1_555
C22_7 O23_7 1_555 1_555
C27_7 C28_7 1_555 1_555
C30_7 O22_7 1_555 1_555
C35_7 C36_7 1_555 1_555
O6_7 H21_7 1_555 1_555
O6_7 H22_7 1_555 1_555
O3_7 H23_7 1_555 1_555
C39_7 H25_7 1_555 1_555
C39_7 H26_7 1_555 1_555
C39_7 H27_7 1_555 1_555
Zn6 O2_8 1_555 1_555
Zn7_4 O1_8 1_555 1_555
Zn9_4 O6_8 1_555 1_555
Zn11 O7_8 1_555 1_555
C1_8 C2_8 1_555 1_555
C2_8 H1_8 1_555 1_555
H2_8 C2_8 1_555 1_555
C3_8 C1_8 1_555 1_555
H3_8 C3_8 1_555 1_555
H4_8 C3_8 1_555 1_555
C4_8 C1_8 1_555 1_555
H5_8 C4_8 1_555 1_555
H6_8 C4_8 1_555 1_555
C5_8 C1_8 1_555 1_555
H7_8 C5_8 1_555 1_555
H8_8 C5_8 1_555 1_555
C6_8 C7_8 1_555 1_555
C7_8 H9_8 1_555 1_555
C8_8 C7_8 1_555 1_555
C9_8 C8_8 1_555 1_555
C10_8 C8_8 1_555 1_555
H10_8 C10_8 1_555 1_555
C11_8 C10_8 1_555 1_555
C12_8 C6_8 1_555 1_555
H11_8 C12_8 1_555 1_555
C13_8 C11_8 1_555 1_555
C14_8 C15_8 1_555 1_555
C15_8 H12_8 1_555 1_555
C16_8 C15_8 1_555 1_555
C17_8 C16_8 1_555 1_555
C18_8 C16_8 1_555 1_555
H13_8 C18_8 1_555 1_555
C19_8 C18_8 1_555 1_555
C20_8 C14_8 1_555 1_555
H14_8 C20_8 1_555 1_555
C21_8 C19_8 1_555 1_555
C22_8 C23_8 1_555 1_555
C23_8 H15_8 1_555 1_555
C24_8 C23_8 1_555 1_555
C25_8 C24_8 1_555 1_555
C26_8 C24_8 1_555 1_555
C27_8 C26_8 1_555 1_555
C28_8 C22_8 1_555 1_555
H17_8 C28_8 1_555 1_555
C29_8 C27_8 1_555 1_555
C30_8 C31_8 1_555 1_555
C31_8 H18_8 1_555 1_555
C32_8 C31_8 1_555 1_555
C33_8 C32_8 1_555 1_555
C34_8 C32_8 1_555 1_555
H19_8 C34_8 1_555 1_555
C35_8 C34_8 1_555 1_555
C36_8 C30_8 1_555 1_555
H20_8 C36_8 1_555 1_555
C37_8 C35_8 1_555 1_555
O1_8 C9_8 1_555 1_555
O2_8 C9_8 1_555 1_555
O3_8 Zn7_4 1_555 1_555
O24_4 C29_8 1_555 1_555
O7_8 C13_8 1_555 1_555
O8_8 Zn9_4 1_555 1_555
O26_2 C33_8 1_555 1_555
O27_2 C33_8 1_555 1_555
O29_4 C25_8 1_555 1_555
O30_4 C21_8 1_555 1_555
O31_4 C21_8 1_555 1_555
O32_4 C37_8 1_555 1_555
O33_4 C37_8 1_555 1_555
O34_2 C17_8 1_555 1_555
O35_2 C17_8 1_555 1_555
O19_8 Zn6 1_555 1_555
O20_8 C5_8 1_555 1_555
O21_8 C2_8 1_555 1_555
O22_8 C4_8 1_555 1_555
O23_8 C3_8 1_555 1_555
N1_8 C38_8 1_555 1_555
C38_8 O19_8 1_555 1_555
C39_8 N1_8 1_555 1_555
C6_8 O20_8 1_555 1_555
C11_8 C12_8 1_555 1_555
C13_8 O8_8 1_555 1_555
C14_8 O21_8 1_555 1_555
C19_8 C20_8 1_555 1_555
C22_8 O23_8 1_555 1_555
C27_8 C28_8 1_555 1_555
C30_8 O22_8 1_555 1_555
C35_8 C36_8 1_555 1_555
O6_8 H21_8 1_555 1_555
O6_8 H22_8 1_555 1_555
O3_8 H23_8 1_555 1_555
C39_8 H25_8 1_555 1_555
C39_8 H26_8 1_555 1_555
C39_8 H27_8 1_555 1_555
C40_8 H28_8 1_555 1_555
C40_8 H30_8 1_555 1_555
C41_8 H31_8 1_555 1_555
C41_8 H32_8 1_555 1_555
C41_8 H33_8 1_555 1_555

#END
