
###############################################################################
#
# This file contains modified crystal structure data generated from the
# MOF subset of the Cambridge Structural Database (CSD) v543 
# hosted by the Cambridge Crystallographic Data Centre (CCDC).
#
# This work is licensed under the Creative Commons
# Attribution-NonCommercial-ShareAlike 4.0 International License.
# To view a copy of this license, visit
# http://creativecommons.org/licenses/by-nc-sa/4.0/
# or send a letter to
# Creative Commons, PO Box 1866, Mountain View, CA 94042, USA.
#
# CIF created using the CSD Python API on 29 September 2022
# The structure has been converted into the P1 space group
# The structure has a 3D framework
# The original CSD entry WEHJOK is in the orthorhombic crystal system
# The original CSD entry WEHJOK is in a Sohncke space group
# The framework has been calculated to contain at least 10.0% void space
# The void calculation uses a probe of radius 1.32A, grid spacing 0.4
# H atom positions have been added when not included in the experimental data
#
###############################################################################

data_WEHJOK
_chemical_formula_moiety         '(C336 H312 N8 O197 Zn40)n'
_symmetry_cell_setting           triclinic
_symmetry_space_group_name_H-M   'P 1'
_symmetry_Int_Tables_number      1
_space_group_name_Hall           'P 1'
loop_
_symmetry_equiv_pos_site_id
_symmetry_equiv_pos_as_xyz
1 x,y,z
_cell_length_a                   21.883(2)
_cell_length_b                   21.883(2)
_cell_length_c                   40.1840(17)
_cell_angle_alpha                90
_cell_angle_beta                 90
_cell_angle_gamma                90
_cell_volume                     19242.7
loop_
_atom_site_label
_atom_site_type_symbol
_atom_site_fract_x
_atom_site_fract_y
_atom_site_fract_z
Zn1 Zn 0.18185(3) 0.01029(2) 0.285765(14)
Zn5 Zn 0.25956(3) 0.08619(3) 0.226112(15)
C1 C 0.1226(3) 0.0731(3) 0.23076(15)
C28 C 0.6879(3) 0.0777(2) 0.17630(13)
C29 C 0.6739(2) 0.0405(2) 0.14493(12)
C34 C 0.6889(2) 0.0186(2) 0.08787(11)
C35 C 0.7024(2) 0.0521(2) 0.11460(12)
H20 H 0.7310 0.0833 0.1130
C36 C 0.7209(2) 0.0282(3) 0.05479(14)
C38 C 0.2263(4) 0.4966(3) 0.17856(16)
C39 C 0.2196(3) 0.4573(3) 0.14789(14)
C40 C 0.2548(3) 0.4669(2) 0.11935(14)
H21 H 0.2855 0.4963 0.1196
C41 C 0.2451(2) 0.4350(2) 0.09222(12)
C42 C 0.2811(3) 0.4491(2) 0.06131(13)
C44 C 0.2047(3) 0.3877(2) 0.09135(12)
H22 H 0.1992 0.3654 0.0719
C45 C 0.1716(3) 0.3728(2) 0.11978(14)
C46 C 0.1771(3) 0.4098(2) 0.14804(12)
H23 H 0.1528 0.4028 0.1666
C47 C 0.1146(2) 0.2932(2) 0.09532(12)
H24 H 0.1478 0.2658 0.0897
H25 H 0.1063 0.3191 0.0762
C48 C 0.0574(2) 0.2568(2) 0.10480(11)
C49 C 0.0726(2) 0.2153(2) 0.13281(13)
H26 H 0.1044 0.1869 0.1261
H27 H 0.0874 0.2387 0.1516
C50 C 0.0205(3) 0.1495(2) 0.17021(13)
C51 C 0.0722(2) 0.1285(2) 0.18657(14)
H28 H 0.1108 0.1384 0.1786
C52 C 0.0664(2) 0.0938(2) 0.21385(13)
C53 C 0.0098(2) 0.0760(2) 0.22641(13)
H29 H 0.0070 0.0518 0.2454
C56 C 0.0071(2) 0.2983(2) 0.11595(12)
H32 H 0.0213 0.3240 0.1341
C67 C 0.1762(3) 0.0209(3) 0.00280(15)
C68 C 0.1197(2) 0.0547(2) 0.01134(13)
C69 C 0.1239(2) 0.1053(2) 0.03306(13)
H36 H 0.1617 0.1164 0.0418
C70 C 0.0731(3) 0.1377(2) 0.04136(13)
C71 C 0.0335(2) 0.2198(2) 0.07443(12)
H37 H 0.0001 0.1933 0.0810
H38 H 0.0193 0.2471 0.0571
C72 C 0.0152(2) 0.1219(2) 0.02964(13)
C73 C 0.0094(2) 0.0714(2) 0.00897(12)
C74 C 0.0592(2) 0.0381(2) 0.00063(11)
O1 O 0.11762(16) 0.04197(16) 0.25753(10)
O2 O 0.17291(16) 0.09091(18) 0.21989(9)
O3 O 0.28690(17) 0.00284(16) 0.22861(9)
O15 O 0.65512(17) 0.06690(17) 0.20111(8)
O16 O 0.72768(16) 0.11620(15) 0.17482(8)
O19 O 0.1925(2) 0.4849(2) 0.20303(10)
O20 O 0.2665(3) 0.5347(3) 0.17796(12)
O23 O 0.32188(19) 0.48844(19) 0.06525(8)
O24 O 0.27078(15) 0.42156(15) 0.03450(8)
O30 O 0.2957(3) 0.1160(2) 0.18641(12)
O36 O 0.76385(18) 0.06587(16) 0.05333(8)
O37 O 0.12987(18) 0.32840(16) 0.12255(8)
O39 O 0.02042(16) 0.18359(17) 0.14155(9)
O47 O 0.22279(19) 0.0383(2) 0.01561(12)
O51 O 0.08507(16) 0.18427(16) 0.06293(9)
Zn15 Zn 0.77967(3) 0.15677(3) 0.210250(15)
Zn17 Zn 0.30655(3) 0.01765(3) 0.025363(14)
Zn20 Zn 0.80925(3) 0.07237(3) 0.010460(13)
Zn22 Zn 0.37019(3) 0.53331(3) 0.032950(19)
Zn24 Zn 0.20024(3) 0.53027(3) 0.244380(16)
Zn25 Zn 0.65560(3) 0.10437(3) 0.244460(16)
O53 O 0.2385(2) 0.0800(2) 0.29203(11)
O54 O 0.29370(18) 0.13622(17) 0.26090(10)
O66 O 0.17118(19) 0.00437(18) 0.33378(9)
H70 H 0.282584 0.158881 0.182626
H71 H 0.340893 0.114429 0.188469
H40 H 0.0542 0.0034 0.9876
Zn19 Zn 0.30925(3) 0.42763(3) 0.989540(13)
Zn3 Zn 0.22033(3) 0.65677(3) 0.289750(15)
Zn9 Zn 0.34440(3) 0.60437(3) 0.255540(16)
C2 C 0.2728(2) 0.9549(2) 0.24283(14)
C3 C 0.7235(3) 0.6184(2) 0.21030(17)
C4 C 0.6981(2) 0.6476(2) 0.18033(14)
C5 C 0.7101(2) 0.6242(3) 0.14899(16)
H1 H 0.7374 0.5918 0.1472
C6 C 0.6843(3) 0.6461(3) 0.12112(14)
C7 C 0.6448(3) 0.6976(3) 0.12261(14)
H2 H 0.6282 0.7140 0.1033
C8 C 0.6313(2) 0.7234(2) 0.15395(13)
C9 C 0.6588(2) 0.6952(3) 0.18266(14)
H3 H 0.6493 0.7104 0.2036
C10 C 0.5582(2) 0.7868(2) 0.13137(12)
H4 H 0.5356 0.7513 0.1237
H5 H 0.5835 0.8013 0.1132
C11 C 0.5140(2) 0.8366(2) 0.14197(12)
C12 C 0.4693(2) 0.8485(2) 0.11290(11)
H6 H 0.4393 0.8791 0.1191
H7 H 0.4912 0.8628 0.0934
C13 C 0.4782(2) 0.8177(2) 0.17222(12)
H8 H 0.4553 0.7807 0.1675
H9 H 0.5058 0.8094 0.1905
C14 C 0.4016(2) 0.7888(2) 0.07951(13)
C15 C 0.3776(2) 0.8382(2) 0.06297(13)
H10 H 0.3881 0.8778 0.0691
C16 C 0.3364(2) 0.8274(2) 0.03625(13)
C17 C 0.3222(2) 0.7707(2) 0.02570(12)
H11 H 0.2949 0.7648 0.0083
C18 C 0.3492(3) 0.7217(2) 0.04132(16)
C19 C 0.3888(2) 0.7311(2) 0.06800(13)
H12 H 0.4070 0.6976 0.0782
C20 C 0.3357(3) 0.6577(2) 0.02951(15)
C21 C 0.3925(2) 0.8537(2) 0.20474(12)
C22 C 0.3589(2) 0.9048(2) 0.21270(12)
H13 H 0.3685 0.9424 0.2032
C23 C 0.3105(2) 0.9000(2) 0.23497(12)
C24 C 0.2973(2) 0.8429(2) 0.24902(12)
H14 H 0.2641 0.8384 0.2633
C25 C 0.3335(2) 0.7940(2) 0.24158(12)
C26 C 0.3815(2) 0.7993(2) 0.21982(13)
H15 H 0.4063 0.7657 0.2154
C27 C 0.3194(3) 0.7335(2) 0.25550(13)
C30 C 0.6317(2) 0.9960(2) 0.14738(12)
H16 H 0.6110 0.9901 0.1673
C31 C 0.6188(2) 0.9583(2) 0.11988(12)
C32 C 0.5496(2) 0.8942(2) 0.14863(12)
H17 H 0.5222 0.9267 0.1554
H18 H 0.5790 0.8873 0.1663
C33 C 0.6473(2) 0.9723(2) 0.08953(12)
H19 H 0.6377 0.9499 0.0705
C65 C 0.3082(3) 0.8828(2) 0.01932(15)
C66 C 0.6964(3) 0.6244(3) 0.0843(2)
O4 O 0.23146(17) 0.94806(15) 0.26440(9)
O5 O 0.7615(2) 0.5800(2) 0.20797(11)
O6 O 0.70630(18) 0.63622(17) 0.23910(10)
O7 O 0.59563(16) 0.77056(15) 0.15898(8)
O8 O 0.43823(16) 0.86449(14) 0.18089(8)
O9 O 0.44002(16) 0.79161(14) 0.10612(9)
O10 O 0.35481(16) 0.69043(15) 0.24793(9)
O11 O 0.27459(18) 0.72941(14) 0.27553(9)
O12 O 0.37083(18) 0.61757(15) 0.04231(10)
O13 O 0.2964(2) 0.64939(17) 0.00973(12)
O14 O 0.24867(15) 0.60413(15) 0.24815(8)
O26 O 0.1960(4) 0.5745(5) 0.03133(19)
O27 O 0.70267(17) 0.99614(17) 0.03020(9)
O31 O 0.4490(3) 0.6008(3) 0.26030(17)
O32 O 0.3611(2) 0.5580(2) 0.21617(11)
O34 O 0.1854(2) 0.71340(19) 0.32964(11)
O35 O 0.1458(3) 0.7039(3) 0.25881(18)
O38 O 0.57983(16) 0.91041(16) 0.11944(8)
O45 O 0.32276(19) 0.93343(15) 0.03151(9)
O49 O 0.7324(2) 0.5802(3) 0.08379(11)
O50 O 0.6742(3) 0.6420(3) 0.06135(12)
Zn11 Zn 0.81815(3) 0.51029(2) 0.214235(14)
Zn14 Zn 0.73752(3) 0.56897(2) 0.035150(13)
Zn18 Zn 0.74044(3) 0.58619(3) 0.273888(15)
Zn27 Zn 0.75083(4) 0.92299(3) 0.01151(2)
O56 O 0.34488(17) 0.56690(17) 0.29889(8)
O57 O 0.27232(16) 0.61620(15) 0.32518(8)
O58 O 0.15105(18) 0.5953(2) 0.29774(10)
O60 O 0.44459(15) 0.49468(17) 0.01998(9)
H44 H 0.159616 0.707489 0.235353
H45 H 0.107695 0.679315 0.259716
H55 H 0.403903 0.565368 0.209012
H56 H 0.355334 0.513837 0.220901
H60 H 0.16562 0.750291 0.3201
H61 H 0.15495 0.689903 0.342753
H62 H 0.462251 0.627612 0.278885
H63 H 0.462035 0.558142 0.264842
H74 H 0.17444 0.614153 0.0338795
H75 H 0.165542 0.541084 0.0292327
Zn10 Zn 0.25083(4) 0.57701(3) 0.98849(2)
O28 O 0.2671(3) 0.6100(3) 0.93790(17)
O46 O 0.27337(17) 0.87261(15) 0.99604(10)
O48 O 0.16957(15) 0.97599(16) 0.98394(9)
N1 N 0.2783(12) 0.6471(9) 0.8854(4)
C75 C 0.2728(14) 0.6582(9) 0.9148(4)
C76 C 0.2936(13) 0.7205(7) 0.9320(6)
C77 C 0.3160(16) 0.5893(12) 0.8753(7)
C78 C 0.3590(14) 0.7047(15) 0.9453(9)
C79 C 0.2666(8) 0.6916(7) 0.8590(4)
Zn13 Zn 0.23752(3) 0.93103(2) 0.964850(13)
O63 O 0.32009(15) 0.52158(13) 0.99237(9)
O64 O 0.20267(17) 0.50386(17) 0.96980(9)
H41 H 0.296978 0.730615 0.862056
H42 H 0.274798 0.670428 0.834884
H43 H 0.219313 0.70689 0.860403
H48 H 0.263013 0.732804 0.9523
H49 H 0.295281 0.757679 0.914009
H57 H 0.294815 0.548715 0.885923
H58 H 0.316932 0.585315 0.848291
H59 H 0.362508 0.593617 0.884651
H67 H 0.38826 0.691751 0.924544
H68 H 0.378218 0.744488 0.957768
H69 H 0.355992 0.666876 0.962835
Zn8 Zn 0.79976(3) 0.03027(3) 0.255620(16)
C37 C 0.8928(3) 0.0775(3) 0.22037(16)
C54 C 0.9560(2) 0.0961(2) 0.20932(13)
C55 C 0.9622(2) 0.1321(2) 0.18127(14)
H30 H 0.9277 0.1449 0.1697
H31 H 0.9727 0.2744 0.1238
C57 C 0.9452(2) 0.3791(2) 0.09448(14)
C58 C 0.9244(2) 0.3961(2) 0.12580(13)
H33 H 0.9396 0.3763 0.1446
C59 C 0.8822(3) 0.4412(2) 0.12938(13)
C60 C 0.8623(3) 0.4595(3) 0.16324(17)
C61 C 0.8556(3) 0.4661(2) 0.10234(14)
H34 H 0.8265 0.4967 0.1049
C62 C 0.8719(3) 0.4456(2) 0.06971(13)
C63 C 0.9179(2) 0.4044(2) 0.06675(12)
H35 H 0.9312 0.3929 0.0457
C64 C 0.8426(3) 0.4725(3) 0.04077(16)
H39 H 0.9810 0.1447 0.0356
O17 O 0.84895(18) 0.0953(2) 0.20226(10)
O18 O 0.88694(18) 0.0485(2) 0.24652(10)
O22 O 0.90130(16) 0.08126(15) 0.00914(9)
O29 O 0.8034(2) 0.16463(16) 0.01360(10)
O40 O 0.8814(2) 0.4322(2) 0.18879(10)
O41 O 0.82882(19) 0.50437(18) 0.16622(9)
O42 O 0.85602(19) 0.45225(16) 0.01248(10)
O43 O 0.8057(2) 0.5133(2) 0.04504(10)
O52 O 0.98893(18) 0.33509(17) 0.08876(8)
C80 C 0.8112(14) 0.2169(9) 0.0315(6)
N2 N 0.7755(12) 0.2568(9) 0.0217(7)
C81 C 0.8384(12) 0.1892(11) 0.0922(6)
C83 C 0.8557(10) 0.2179(12) 0.0611(5)
C84 C 0.7104(13) 0.243(3) 0.0332(14)
O55 O 0.75133(15) 0.10413(15) 0.25185(8)
O68 O 0.77337(17) 0.62739(15) 0.00396(10)
O70 O 0.66957(15) 0.52401(16) 0.01606(9)
H50 H 0.709065 0.241462 0.0602776
H51 H 0.679757 0.278653 0.0243114
H52 H 0.695975 0.199048 0.023208
H64 H 0.829722 0.140809 0.087999
H65 H 0.875278 0.194384 0.110176
H66 H 0.797197 0.210838 0.101798
H72 H 0.865031 0.265721 0.0666164
H73 H 0.897557 0.195692 0.052817
H78 H 0.833527 0.330405 0.00991791
Zn4 Zn 0.80655(3) 0.48235(3) 0.974637(14)
C43 C 0.9483(3) 0.0512(3) 0.99898(14)
O21 O 0.94459(15) 0.00532(17) 0.98002(9)
O44 O 0.8404(3) 0.4327(3) 0.93892(15)
C82 C 0.7965(19) 0.3046(14) 0.9985(8)
O62 O 0.77078(15) 0.07844(15) 0.96550(8)
O67 O 0.82276(19) 0.56657(15) 0.96849(9)
O69 O 0.72279(19) 0.4617(2) 0.98439(12)
H46 H 0.834101 0.388774 0.944086
H47 H 0.819549 0.442895 0.917686
H76 H 0.81275 0.283416 0.97563
H77 H 0.758732 0.33528 0.992819
O25 O 0.82009(15) 0.97842(13) 0.00763(9)
O33 O 0.7730(3) 0.9686(2) 0.22152(13)
O59 O 0.8075(2) 0.9849(2) 0.29697(10)
H53 H 0.798309 0.931137 0.223637
H54 H 0.729363 0.958143 0.225198
Zn21 Zn 0.87019(3) 0.96669(3) 0.967050(19)
Zn3_2 Zn 0.27967(3) 0.34323(3) 0.789750(15)
Zn7 Zn 0.12981(3) 0.46669(3) 0.532950(19)
Zn9_2 Zn 0.15560(3) 0.39563(3) 0.755540(16)
Zn10_2 Zn 0.24917(4) 0.42299(3) 0.48849(2)
C2_2 C 0.2272(2) 0.0451(2) 0.74283(14)
C12_2 C 0.0307(2) 0.1515(2) 0.61290(11)
H6_2 H 0.0607 0.1209 0.6191
H7_2 H 0.0088 0.1372 0.5934
C13_2 C 0.0218(2) 0.1823(2) 0.67222(12)
H8_2 H 0.0447 0.2193 0.6675
C14_2 C 0.0984(2) 0.2112(2) 0.57951(13)
C15_2 C 0.1224(2) 0.1618(2) 0.56297(13)
H10_2 H 0.1119 0.1222 0.5691
C16_2 C 0.1636(2) 0.1726(2) 0.53625(13)
C17_2 C 0.1778(2) 0.2293(2) 0.52570(12)
H11_2 H 0.2051 0.2352 0.5083
C18_2 C 0.1508(3) 0.2783(2) 0.54132(16)
C19_2 C 0.1112(2) 0.2689(2) 0.56800(13)
H12_2 H 0.0930 0.3024 0.5782
C20_2 C 0.1643(3) 0.3423(2) 0.52951(15)
C21_2 C 0.1075(2) 0.1463(2) 0.70474(12)
C22_2 C 0.1411(2) 0.0952(2) 0.71270(12)
H13_2 H 0.1315 0.0576 0.7032
C23_2 C 0.1895(2) 0.1000(2) 0.73497(12)
C24_2 C 0.2027(2) 0.1571(2) 0.74902(12)
H14_2 H 0.2359 0.1616 0.7633
C25_2 C 0.1665(2) 0.2060(2) 0.74158(12)
C26_2 C 0.1185(2) 0.2007(2) 0.71982(13)
H15_2 H 0.0937 0.2343 0.7154
C27_2 C 0.1806(3) 0.2665(2) 0.75550(13)
C65_2 C 0.1918(3) 0.1172(2) 0.51932(15)
O4_2 O 0.26854(17) 0.05194(15) 0.76440(9)
O8_2 O 0.06177(16) 0.13551(14) 0.68089(8)
O9_2 O 0.05998(16) 0.20839(14) 0.60612(9)
O10_2 O 0.14519(16) 0.30957(15) 0.74793(9)
O11_2 O 0.22541(18) 0.27059(14) 0.77553(9)
O12_2 O 0.12917(18) 0.38243(15) 0.54231(10)
O13_2 O 0.2036(2) 0.35061(17) 0.50973(12)
O14_2 O 0.25133(15) 0.39587(15) 0.74815(8)
O25_2 O 0.67991(15) 0.02158(13) 0.50763(9)
O26_2 O 0.3040(4) 0.4255(5) 0.53133(19)
O28_2 O 0.2329(3) 0.3900(3) 0.43790(17)
O31_2 O 0.0510(3) 0.3992(3) 0.76030(17)
O32_2 O 0.1389(2) 0.4420(2) 0.71617(11)
O33_2 O 0.7270(3) 0.0314(2) 0.72152(13)
O34_2 O 0.3146(2) 0.28660(19) 0.82964(11)
O35_2 O 0.3542(3) 0.2961(3) 0.75881(18)
O45_2 O 0.17724(19) 0.06657(15) 0.53151(9)
O46_2 O 0.22663(17) 0.12739(15) 0.49604(10)
O48_2 O 0.33043(15) 0.02401(16) 0.48394(9)
N1_2 N 0.2217(12) 0.3529(9) 0.3854(4)
C75_2 C 0.2272(14) 0.3418(9) 0.4148(4)
C76_2 C 0.2064(13) 0.2795(7) 0.4320(6)
C77_2 C 0.1840(16) 0.4107(12) 0.3753(7)
C78_2 C 0.1410(14) 0.2953(15) 0.4453(9)
C79_2 C 0.2334(8) 0.3084(7) 0.3590(4)
Zn13_2 Zn 0.26248(3) 0.06897(2) 0.464850(13)
Zn21_2 Zn 0.62981(3) 0.03331(3) 0.467050(19)
Zn23 Zn 0.29976(3) 0.46973(3) 0.744380(16)
Zn26 Zn 0.74917(4) 0.07701(3) 0.51151(2)
O56_2 O 0.15512(17) 0.43310(17) 0.79889(8)
O57_2 O 0.22768(16) 0.38380(15) 0.82518(8)
O58_2 O 0.34895(18) 0.4047(2) 0.79774(10)
O59_2 O 0.6925(2) 0.0151(2) 0.79697(10)
O60_2 O 0.05541(15) 0.50532(17) 0.51998(9)
O61 O 0.17812(19) 0.51156(19) 0.56525(8)
O63_2 O 0.17991(15) 0.47842(13) 0.49237(9)
O64_2 O 0.29733(17) 0.49614(17) 0.46980(9)
H41_2 H 0.203022 0.269385 0.362056
H42_2 H 0.225202 0.329572 0.334884
H43_2 H 0.280687 0.29311 0.360403
H44_2 H 0.340384 0.292511 0.735353
H45_2 H 0.392305 0.320685 0.759716
H48_2 H 0.236987 0.267196 0.4523
H49_2 H 0.204719 0.242321 0.414009
H53_2 H 0.701691 0.0688631 0.723637
H54_2 H 0.770637 0.041857 0.725198
H55_2 H 0.0960973 0.434632 0.709012
H56_2 H 0.144666 0.486163 0.720901
H57_2 H 0.205185 0.451285 0.385923
H58_2 H 0.183068 0.414685 0.348291
H59_2 H 0.137492 0.406383 0.384651
H60_2 H 0.33438 0.249709 0.8201
H61_2 H 0.34505 0.310097 0.842753
H62_2 H 0.0377494 0.372388 0.778885
H63_2 H 0.0379655 0.441858 0.764842
H67_2 H 0.11174 0.308249 0.424544
H68_2 H 0.121782 0.255512 0.457768
H69_2 H 0.144008 0.333124 0.462835
H74_2 H 0.32556 0.385847 0.533879
H75_2 H 0.334458 0.458916 0.529233
Zn1_2 Zn 0.31815(3) 0.98971(2) 0.785765(14)
Zn2 Zn 0.76248(3) 0.43103(2) 0.535150(13)
Zn4_2 Zn 0.69345(3) 0.51765(3) 0.474637(14)
Zn5_2 Zn 0.24044(3) 0.91381(3) 0.726112(15)
Zn6 Zn 0.69075(3) 0.92763(3) 0.510460(13)
Zn8_2 Zn 0.70024(3) 0.96973(3) 0.755620(16)
C1_2 C 0.3774(3) 0.9269(3) 0.73076(15)
C37_2 C 0.6072(3) 0.9225(3) 0.72037(16)
C38_2 C 0.2737(4) 0.5034(3) 0.67856(16)
C39_2 C 0.2804(3) 0.5427(3) 0.64789(14)
C40_2 C 0.2452(3) 0.5331(2) 0.61935(14)
H21_2 H 0.2145 0.5037 0.6196
C41_2 C 0.2549(2) 0.5650(2) 0.59222(12)
C42_2 C 0.2189(3) 0.5509(2) 0.56131(13)
C43_2 C 0.5517(3) 0.9488(3) 0.49898(14)
C44_2 C 0.2953(3) 0.6123(2) 0.59135(12)
H22_2 H 0.3008 0.6346 0.5719
C45_2 C 0.3284(3) 0.6272(2) 0.61978(14)
C46_2 C 0.3229(3) 0.5902(2) 0.64804(12)
H23_2 H 0.3472 0.5972 0.6666
C47_2 C 0.3854(2) 0.7068(2) 0.59532(12)
H24_2 H 0.3522 0.7342 0.5897
H25_2 H 0.3937 0.6809 0.5762
C48_2 C 0.4426(2) 0.7432(2) 0.60480(11)
C49_2 C 0.4274(2) 0.7847(2) 0.63281(13)
H26_2 H 0.3956 0.8131 0.6261
H27_2 H 0.4126 0.7613 0.6516
C50_2 C 0.4795(3) 0.8505(2) 0.67021(13)
C51_2 C 0.4278(2) 0.8715(2) 0.68657(14)
H28_2 H 0.3892 0.8616 0.6786
C52_2 C 0.4336(2) 0.9062(2) 0.71385(13)
C53_2 C 0.4902(2) 0.9240(2) 0.72641(13)
H29_2 H 0.4930 0.9482 0.7454
C54_2 C 0.5440(2) 0.9039(2) 0.70932(13)
C55_2 C 0.5378(2) 0.8679(2) 0.68127(14)
H30_2 H 0.5723 0.8551 0.6697
C56_2 C 0.4929(2) 0.7017(2) 0.61595(12)
H31_2 H 0.5273 0.7256 0.6238
H32_2 H 0.4787 0.6760 0.6341
C57_2 C 0.5548(2) 0.6209(2) 0.59448(14)
C58_2 C 0.5756(2) 0.6039(2) 0.62580(13)
H33_2 H 0.5604 0.6237 0.6446
C59_2 C 0.6178(3) 0.5588(2) 0.62938(13)
C60_2 C 0.6377(3) 0.5405(3) 0.66324(17)
C61_2 C 0.6444(3) 0.5339(2) 0.60234(14)
H34_2 H 0.6735 0.5033 0.6049
C62_2 C 0.6281(3) 0.5544(2) 0.56971(13)
C63_2 C 0.5821(2) 0.5956(2) 0.56675(12)
H35_2 H 0.5688 0.6071 0.5457
C64_2 C 0.6574(3) 0.5275(3) 0.54077(16)
C67_2 C 0.3238(3) 0.9791(3) 0.50280(15)
C68_2 C 0.3803(2) 0.9453(2) 0.51134(13)
C69_2 C 0.3761(2) 0.8947(2) 0.53306(13)
H36_2 H 0.3383 0.8836 0.5418
C70_2 C 0.4269(3) 0.8623(2) 0.54136(13)
C71_2 C 0.4665(2) 0.7802(2) 0.57443(12)
H37_2 H 0.4999 0.8067 0.5810
H38_2 H 0.4807 0.7529 0.5571
C72_2 C 0.4848(2) 0.8781(2) 0.52964(13)
H39_2 H 0.5190 0.8553 0.5356
C73_2 C 0.4906(2) 0.9286(2) 0.50897(12)
C74_2 C 0.4408(2) 0.9619(2) 0.50063(11)
H40_2 H 0.4458 0.9966 0.4876
O1_2 O 0.38238(16) 0.95803(16) 0.75753(10)
O2_2 O 0.32709(16) 0.90909(18) 0.71989(9)
O3_2 O 0.21310(17) 0.99716(16) 0.72861(9)
O17_2 O 0.65105(18) 0.9047(2) 0.70226(10)
O18_2 O 0.61306(18) 0.9515(2) 0.74652(10)
O19_2 O 0.3075(2) 0.5151(2) 0.70303(10)
O20_2 O 0.2335(3) 0.4653(3) 0.67796(12)
O21_2 O 0.55541(15) 0.99468(17) 0.48002(9)
O22_2 O 0.59870(16) 0.91874(15) 0.50914(9)
O24_2 O 0.22922(15) 0.57844(15) 0.53450(8)
O29_2 O 0.6966(2) 0.83537(16) 0.51360(10)
O30_2 O 0.2043(3) 0.8840(2) 0.68641(12)
O37_2 O 0.37013(18) 0.67160(16) 0.62255(8)
O39_2 O 0.47958(16) 0.81641(17) 0.64155(9)
O40_2 O 0.6186(2) 0.5678(2) 0.68879(10)
O41_2 O 0.67118(19) 0.49563(18) 0.66622(9)
O42_2 O 0.64398(19) 0.54775(16) 0.51248(10)
O43_2 O 0.6943(2) 0.4867(2) 0.54504(10)
O44_2 O 0.6596(3) 0.5673(3) 0.43892(15)
O47_2 O 0.27721(19) 0.9617(2) 0.51561(12)
O51_2 O 0.41493(16) 0.81573(16) 0.56293(9)
O52_2 O 0.51107(18) 0.66491(17) 0.58876(8)
C80_2 C 0.6888(14) 0.7831(9) 0.5315(6)
N2_2 N 0.7245(12) 0.7432(9) 0.5217(7)
C81_2 C 0.6616(12) 0.8108(11) 0.5922(6)
C82_2 C 0.7035(19) 0.6954(14) 0.4985(8)
C83_2 C 0.6443(10) 0.7821(12) 0.5611(5)
C84_2 C 0.7896(13) 0.757(3) 0.5332(14)
Zn12 Zn 0.68185(3) 0.48971(2) 0.714235(14)
Zn16 Zn 0.72033(3) 0.84323(3) 0.710250(15)
Zn17_2 Zn 0.19345(3) 0.98235(3) 0.525363(14)
Zn19_2 Zn 0.19075(3) 0.57237(3) 0.489540(13)
O53_2 O 0.2615(2) 0.9200(2) 0.79203(11)
O54_2 O 0.20630(18) 0.86378(17) 0.76090(10)
O55_2 O 0.74867(15) 0.89587(15) 0.75185(8)
O62_2 O 0.72922(15) 0.92156(15) 0.46550(8)
O65 O 0.73615(18) 0.93413(16) 0.55333(8)
O66_2 O 0.32882(19) 0.99563(18) 0.83378(9)
O67_2 O 0.67724(19) 0.43343(15) 0.46849(9)
O68_2 O 0.72663(17) 0.37261(15) 0.50396(10)
O69_2 O 0.77721(19) 0.5383(2) 0.48439(12)
O70_2 O 0.83043(15) 0.47599(16) 0.51606(9)
O71 O 0.7676(2) 0.4198(3) 0.58379(11)
H46_2 H 0.665899 0.611226 0.444086
H47_2 H 0.680451 0.557105 0.417686
H50_2 H 0.790935 0.758538 0.560278
H51_2 H 0.820243 0.721347 0.524311
H52_2 H 0.804025 0.800952 0.523208
H64_2 H 0.670278 0.859191 0.587999
H65_2 H 0.624722 0.805616 0.610176
H66_2 H 0.702803 0.789162 0.601798
H70_2 H 0.217416 0.841119 0.682626
H71_2 H 0.159107 0.885571 0.688469
H72_2 H 0.634969 0.734279 0.566616
H73_2 H 0.602443 0.804308 0.552817
H76_2 H 0.68725 0.716584 0.47563
H77_2 H 0.741268 0.66472 0.492819
H78_2 H 0.666473 0.669595 0.509918
C3_2 C 0.7765(3) 0.3816(2) 0.71030(17)
C4_2 C 0.8019(2) 0.3524(2) 0.68033(14)
C5_2 C 0.7899(2) 0.3758(3) 0.64899(16)
H1_2 H 0.7626 0.4082 0.6472
C6_2 C 0.8157(3) 0.3539(3) 0.62112(14)
C7_2 C 0.8552(3) 0.3024(3) 0.62261(14)
H2_2 H 0.8718 0.2860 0.6033
C8_2 C 0.8687(2) 0.2766(2) 0.65395(13)
C9_2 C 0.8412(2) 0.3048(3) 0.68266(14)
H3_2 H 0.8507 0.2896 0.7036
C10_2 C 0.9418(2) 0.2132(2) 0.63137(12)
H4_2 H 0.9644 0.2487 0.6237
H5_2 H 0.9165 0.1987 0.6132
C11_2 C 0.9860(2) 0.1634(2) 0.64197(12)
H9_2 H 0.9942 0.1906 0.6905
C30_2 C 0.8683(2) 0.0040(2) 0.64738(12)
H16_2 H 0.8890 0.0099 0.6673
C31_2 C 0.8812(2) 0.0417(2) 0.61988(12)
C32_2 C 0.9504(2) 0.1058(2) 0.64863(12)
H17_2 H 0.9778 0.0733 0.6554
H18_2 H 0.9210 0.1127 0.6663
C33_2 C 0.8527(2) 0.0277(2) 0.58953(12)
H19_2 H 0.8623 0.0501 0.5705
C66_2 C 0.8036(3) 0.3756(3) 0.5843(2)
O5_2 O 0.7385(2) 0.4200(2) 0.70797(11)
O6_2 O 0.79370(18) 0.36378(17) 0.73910(10)
O7_2 O 0.90437(16) 0.22944(15) 0.65898(8)
O27_2 O 0.79733(17) 0.00386(17) 0.53020(9)
O38_2 O 0.92017(16) 0.08959(16) 0.61944(8)
O50_2 O 0.8258(3) 0.3580(3) 0.56135(12)
Zn18_2 Zn 0.75956(3) 0.41381(3) 0.773888(15)
C28_2 C 0.8121(3) 0.9223(2) 0.67630(13)
C29_2 C 0.8261(2) 0.9595(2) 0.64493(12)
C34_2 C 0.8111(2) 0.9814(2) 0.58787(11)
C35_2 C 0.7976(2) 0.9479(2) 0.61460(12)
H20_2 H 0.7690 0.9167 0.6130
C36_2 C 0.7791(2) 0.9718(3) 0.55479(14)
O15_2 O 0.84488(17) 0.93310(17) 0.70111(8)
O16_2 O 0.77232(16) 0.88380(15) 0.67482(8)
Zn25_2 Zn 0.84440(3) 0.89563(3) 0.744460(16)
C3_3 C 0.2235(3) 0.8816(2) 0.78970(17)
C4_3 C 0.1981(2) 0.8524(2) 0.81967(14)
C5_3 C 0.2101(2) 0.8758(3) 0.85101(16)
H1_3 H 0.2374 0.9082 0.8528
C6_3 C 0.1843(3) 0.8539(3) 0.87888(14)
C7_3 C 0.1448(3) 0.8024(3) 0.87739(14)
H2_3 H 0.1282 0.7860 0.8967
C8_3 C 0.1313(2) 0.7766(2) 0.84605(13)
C9_3 C 0.1588(2) 0.8048(3) 0.81734(14)
H3_3 H 0.1493 0.7896 0.7964
C10_3 C 0.0582(2) 0.7132(2) 0.86863(12)
H4_3 H 0.0356 0.7487 0.8763
H5_3 H 0.0835 0.6987 0.8868
C11_3 C 0.0140(2) 0.6634(2) 0.85803(12)
H9_3 H 0.0058 0.6906 0.8095
C28_3 C 0.1879(3) 0.4223(2) 0.82370(13)
C29_3 C 0.1739(2) 0.4595(2) 0.85507(12)
C30_3 C 0.1317(2) 0.5040(2) 0.85262(12)
H16_3 H 0.1110 0.5099 0.8327
C31_3 C 0.1188(2) 0.5417(2) 0.88012(12)
C32_3 C 0.0496(2) 0.6058(2) 0.85137(12)
H17_3 H 0.0222 0.5733 0.8446
H18_3 H 0.0790 0.6127 0.8337
C33_3 C 0.1473(2) 0.5277(2) 0.91047(12)
H19_3 H 0.1377 0.5501 0.9295
C34_3 C 0.1889(2) 0.4814(2) 0.91213(11)
C35_3 C 0.2024(2) 0.4479(2) 0.88540(12)
H20_3 H 0.2310 0.4167 0.8870
C36_3 C 0.2209(2) 0.4718(3) 0.94521(14)
C66_3 C 0.1964(3) 0.8756(3) 0.9157(2)
O7_3 O 0.09563(16) 0.72944(15) 0.84102(8)
O36_2 O 0.26385(18) 0.43413(16) 0.94667(8)
O38_3 O 0.07983(16) 0.58959(16) 0.88056(8)
O49_2 O 0.2324(2) 0.9198(3) 0.91621(11)
O50_3 O 0.1742(3) 0.8580(3) 0.93865(12)
O61_2 O 0.82188(19) 0.01156(19) 0.93475(8)
C43_3 C 0.4483(3) 0.4488(3) 0.00102(14)
H40_3 H 0.5542 0.4966 0.0124
O28_3 O 0.7671(3) 0.8900(3) 0.06210(17)
O44_3 O 0.3404(3) 0.0673(3) 0.06108(15)
N1_3 N 0.7783(12) 0.8529(9) 0.1146(4)
C75_3 C 0.7728(14) 0.8418(9) 0.0852(4)
C76_3 C 0.7936(13) 0.7795(7) 0.0680(6)
C77_3 C 0.8160(16) 0.9107(12) 0.1247(7)
C78_3 C 0.8590(14) 0.7953(15) 0.0547(9)
C79_3 C 0.7666(8) 0.8084(7) 0.1410(4)
C82_3 C 0.2965(19) 0.1954(14) 0.0015(8)
H41_3 H 0.796978 0.769385 0.137944
H42_3 H 0.774798 0.829572 0.165116
H43_3 H 0.719313 0.79311 0.139597
H46_3 H 0.334101 0.111226 0.0559139
H47_3 H 0.319549 0.0571054 0.0823144
H48_3 H 0.763013 0.767196 0.0476999
H49_3 H 0.795281 0.742321 0.085991
H57_3 H 0.794815 0.951285 0.114077
H58_3 H 0.816932 0.914685 0.151709
H59_3 H 0.862508 0.906383 0.115349
H67_3 H 0.88826 0.808249 0.0754559
H68_3 H 0.878218 0.755512 0.0422324
H69_3 H 0.855992 0.833124 0.0371648
H76_3 H 0.31275 0.216584 0.0243701
H77_3 H 0.258732 0.16472 0.00718118
C1_3 C 0.6226(3) 0.4269(3) 0.76924(15)
C2_3 C 0.7728(2) 0.5451(2) 0.75717(14)
C12_3 C 0.9693(2) 0.6515(2) 0.88710(11)
H6_3 H 0.9393 0.6209 0.8809
H7_3 H 0.9912 0.6372 0.9066
C13_3 C 0.9782(2) 0.6823(2) 0.82778(12)
H8_3 H 0.9553 0.7193 0.8325
C14_3 C 0.9016(2) 0.7112(2) 0.92049(13)
C15_3 C 0.8776(2) 0.6618(2) 0.93703(13)
H10_3 H 0.8881 0.6222 0.9309
C16_3 C 0.8364(2) 0.6726(2) 0.96375(13)
C17_3 C 0.8222(2) 0.7293(2) 0.97430(12)
H11_3 H 0.7949 0.7352 0.9917
C18_3 C 0.8492(3) 0.7783(2) 0.95868(16)
C19_3 C 0.8888(2) 0.7689(2) 0.93200(13)
H12_3 H 0.9070 0.8024 0.9218
C20_3 C 0.8357(3) 0.8423(2) 0.97049(15)
C21_3 C 0.8925(2) 0.6463(2) 0.79526(12)
C22_3 C 0.8589(2) 0.5952(2) 0.78730(12)
H13_3 H 0.8685 0.5576 0.7968
C23_3 C 0.8105(2) 0.6000(2) 0.76503(12)
C24_3 C 0.7973(2) 0.6571(2) 0.75098(12)
H14_3 H 0.7641 0.6616 0.7367
C25_3 C 0.8335(2) 0.7060(2) 0.75842(12)
C26_3 C 0.8815(2) 0.7007(2) 0.78018(13)
H15_3 H 0.9063 0.7343 0.7846
C27_3 C 0.8194(3) 0.7665(2) 0.74450(13)
C37_3 C 0.3928(3) 0.4225(3) 0.77963(16)
C38_3 C 0.7263(4) 0.0034(3) 0.82144(16)
C39_3 C 0.7196(3) 0.0427(3) 0.85211(14)
C40_3 C 0.7548(3) 0.0331(2) 0.88065(14)
H21_3 H 0.7855 0.0037 0.8804
C41_3 C 0.7451(2) 0.0650(2) 0.90778(12)
C42_3 C 0.7811(3) 0.0509(2) 0.93869(13)
C44_3 C 0.7047(3) 0.1123(2) 0.90865(12)
H22_3 H 0.6992 0.1346 0.9281
C45_3 C 0.6716(3) 0.1272(2) 0.88022(14)
C46_3 C 0.6771(3) 0.0902(2) 0.85196(12)
H23_3 H 0.6528 0.0972 0.8334
C47_3 C 0.6146(2) 0.2068(2) 0.90468(12)
H24_3 H 0.6478 0.2342 0.9103
H25_3 H 0.6063 0.1809 0.9238
C48_3 C 0.5574(2) 0.2432(2) 0.89520(11)
C49_3 C 0.5726(2) 0.2847(2) 0.86719(13)
H26_3 H 0.6044 0.3131 0.8739
H27_3 H 0.5874 0.2613 0.8484
C50_3 C 0.5205(3) 0.3505(2) 0.82979(13)
C51_3 C 0.5722(2) 0.3715(2) 0.81343(14)
H28_3 H 0.6108 0.3616 0.8214
C52_3 C 0.5664(2) 0.4062(2) 0.78615(13)
C53_3 C 0.5098(2) 0.4240(2) 0.77359(13)
H29_3 H 0.5070 0.4482 0.7546
C54_3 C 0.4560(2) 0.4039(2) 0.79068(13)
C55_3 C 0.4622(2) 0.3679(2) 0.81873(14)
H30_3 H 0.4277 0.3551 0.8303
C56_3 C 0.5071(2) 0.2017(2) 0.88405(12)
H31_3 H 0.4727 0.2256 0.8762
H32_3 H 0.5213 0.1760 0.8659
C57_3 C 0.4452(2) 0.1209(2) 0.90552(14)
C58_3 C 0.4244(2) 0.1039(2) 0.87420(13)
H33_3 H 0.4396 0.1237 0.8554
C59_3 C 0.3822(3) 0.0588(2) 0.87062(13)
C60_3 C 0.3623(3) 0.0405(3) 0.83676(17)
C61_3 C 0.3556(3) 0.0339(2) 0.89766(14)
H34_3 H 0.3265 0.0033 0.8951
C62_3 C 0.3719(3) 0.0544(2) 0.93029(13)
C63_3 C 0.4179(2) 0.0956(2) 0.93325(12)
H35_3 H 0.4312 0.1071 0.9543
C64_3 C 0.3426(3) 0.0275(3) 0.95923(16)
C65_3 C 0.8082(3) 0.6172(2) 0.98068(15)
C67_3 C 0.6762(3) 0.4791(3) 0.99720(15)
C68_3 C 0.6197(2) 0.4453(2) 0.98866(13)
C69_3 C 0.6239(2) 0.3947(2) 0.96694(13)
H36_3 H 0.6617 0.3836 0.9582
C70_3 C 0.5731(3) 0.3623(2) 0.95864(13)
C71_3 C 0.5335(2) 0.2802(2) 0.92557(12)
H37_3 H 0.5001 0.3067 0.9190
H38_3 H 0.5193 0.2529 0.9429
C72_3 C 0.5152(2) 0.3781(2) 0.97036(13)
H39_3 H 0.4810 0.3553 0.9644
C73_3 C 0.5094(2) 0.4286(2) 0.99103(12)
C74_3 C 0.5592(2) 0.4619(2) 0.99937(11)
O1_3 O 0.61762(16) 0.45803(16) 0.74247(10)
O2_3 O 0.67291(16) 0.40909(18) 0.78011(9)
O3_3 O 0.78690(17) 0.49716(16) 0.77139(9)
O4_3 O 0.73146(17) 0.55194(15) 0.73560(9)
O8_3 O 0.93823(16) 0.63551(14) 0.81911(8)
O9_3 O 0.94002(16) 0.70839(14) 0.89388(9)
O10_3 O 0.85481(16) 0.80957(15) 0.75207(9)
O11_3 O 0.77459(18) 0.77059(14) 0.72447(9)
O12_3 O 0.87083(18) 0.88243(15) 0.95769(10)
O13_3 O 0.7964(2) 0.85061(17) 0.99027(12)
O18_3 O 0.38694(18) 0.4515(2) 0.75348(10)
O22_3 O 0.40130(16) 0.41874(15) 0.99086(9)
O26_3 O 0.6960(4) 0.9255(5) 0.96867(19)
O29_3 O 0.3034(2) 0.33537(16) 0.98640(10)
O30_3 O 0.7957(3) 0.3840(2) 0.81359(12)
O31_3 O 0.9490(3) 0.8992(3) 0.73970(17)
O32_3 O 0.8611(2) 0.9420(2) 0.78383(11)
O33_3 O 0.2730(3) 0.5314(2) 0.77848(13)
O34_3 O 0.6854(2) 0.78660(19) 0.67036(11)
O35_3 O 0.6458(3) 0.7961(3) 0.74119(18)
O37_3 O 0.62987(18) 0.17160(16) 0.87745(8)
O39_3 O 0.52042(16) 0.31641(17) 0.85845(9)
O40_3 O 0.3814(2) 0.0678(2) 0.81121(10)
O42_3 O 0.35602(19) 0.04775(16) 0.98752(10)
O51_3 O 0.58507(16) 0.31573(16) 0.93707(9)
O52_3 O 0.48893(18) 0.16491(17) 0.91124(8)
C80_3 C 0.3112(14) 0.2831(9) 0.9685(6)
N2_3 N 0.2755(12) 0.2432(9) 0.9783(7)
C81_3 C 0.3384(12) 0.3108(11) 0.9078(6)
C83_3 C 0.3557(10) 0.2821(12) 0.9389(5)
C84_3 C 0.2104(13) 0.257(3) 0.9668(14)
H44_3 H 0.659616 0.792511 0.764647
H45_3 H 0.607695 0.820685 0.740284
H50_3 H 0.209065 0.258538 0.939722
H51_3 H 0.179757 0.221347 0.975689
H52_3 H 0.195975 0.300952 0.976792
H53_3 H 0.298309 0.568863 0.776363
H54_3 H 0.229363 0.541857 0.774802
H55_3 H 0.903903 0.934632 0.790988
H56_3 H 0.855334 0.986163 0.779099
H60_3 H 0.66562 0.749709 0.6799
H61_3 H 0.65495 0.810097 0.657247
H62_3 H 0.962251 0.872388 0.721115
H63_3 H 0.962035 0.941858 0.735158
H64_3 H 0.329722 0.359191 0.912001
H65_3 H 0.375278 0.305616 0.889824
H66_3 H 0.297197 0.289162 0.898202
H70_3 H 0.782584 0.341119 0.817374
H71_3 H 0.840893 0.385571 0.811531
H72_3 H 0.365031 0.234279 0.933384
H73_3 H 0.397557 0.304308 0.947183
H74_3 H 0.67444 0.885847 0.966121
H75_3 H 0.665542 0.958916 0.970767
H78_3 H 0.333527 0.169595 0.990082
O20_3 O 0.7665(3) 0.9653(3) 0.82204(12)
O43_3 O 0.3057(2) 0.9867(2) 0.95496(10)
O43_4 O 0.1943(2) 0.0133(2) 0.45496(10)
O71_2 O 0.2676(2) 0.0802(3) 0.41621(11)
C37_4 C 0.1072(3) 0.5775(3) 0.27963(16)
C43_4 C 0.0517(3) 0.5512(3) 0.50102(14)
C54_4 C 0.0440(2) 0.5961(2) 0.29068(13)
C55_4 C 0.0378(2) 0.6321(2) 0.31873(14)
H30_4 H 0.0723 0.6449 0.3303
H31_4 H 0.0273 0.7744 0.3762
C57_4 C 0.0548(2) 0.8791(2) 0.40552(14)
C58_4 C 0.0756(2) 0.8961(2) 0.37420(13)
H33_4 H 0.0604 0.8763 0.3554
C59_4 C 0.1178(3) 0.9412(2) 0.37062(13)
C60_4 C 0.1377(3) 0.9595(3) 0.33676(17)
C61_4 C 0.1444(3) 0.9661(2) 0.39766(14)
H34_4 H 0.1735 0.9967 0.3951
C62_4 C 0.1281(3) 0.9456(2) 0.43029(13)
C63_4 C 0.0821(2) 0.9044(2) 0.43325(12)
H35_4 H 0.0688 0.8929 0.4543
C64_4 C 0.1574(3) 0.9725(3) 0.45923(16)
H39_4 H 0.0190 0.6447 0.4644
O18_4 O 0.11306(18) 0.5485(2) 0.25348(10)
O22_4 O 0.09870(16) 0.58126(15) 0.49086(9)
O29_4 O 0.1966(2) 0.66463(16) 0.48640(10)
O33_4 O 0.2270(3) 0.4686(2) 0.27848(13)
O40_4 O 0.1186(2) 0.9322(2) 0.31121(10)
O42_4 O 0.14398(19) 0.95225(16) 0.48752(10)
O44_4 O 0.1596(3) 0.9327(3) 0.56108(15)
O52_4 O 0.01107(18) 0.83509(17) 0.41124(8)
C80_4 C 0.1888(14) 0.7169(9) 0.4685(6)
N2_4 N 0.2245(12) 0.7568(9) 0.4783(7)
C81_4 C 0.1616(12) 0.6892(11) 0.4078(6)
C82_4 C 0.2035(19) 0.8046(14) 0.5015(8)
C83_4 C 0.1443(10) 0.7179(12) 0.4389(5)
C84_4 C 0.2896(13) 0.743(3) 0.4668(14)
O65_2 O 0.23615(18) 0.56587(16) 0.44667(8)
H46_4 H 0.165899 0.888774 0.555914
H47_4 H 0.180451 0.942895 0.582314
H50_4 H 0.290935 0.741462 0.439722
H51_4 H 0.320243 0.778653 0.475689
H52_4 H 0.304025 0.699048 0.476792
H53_4 H 0.201691 0.431137 0.276363
H54_4 H 0.270637 0.458143 0.274802
H64_4 H 0.170278 0.640809 0.412001
H65_4 H 0.124722 0.694384 0.389824
H66_4 H 0.202803 0.710838 0.398202
H72_4 H 0.134969 0.765721 0.433384
H73_4 H 0.102443 0.695692 0.447183
H76_4 H 0.18725 0.783416 0.52437
H77_4 H 0.241268 0.83528 0.507181
H78_4 H 0.166473 0.830405 0.490082
O20_4 O 0.7335(3) 0.0347(3) 0.32204(12)
C1_4 C 0.8774(3) 0.5731(3) 0.26924(15)
C2_4 C 0.7272(2) 0.4549(2) 0.25717(14)
C3_4 C 0.2765(3) 0.1184(2) 0.28970(17)
C4_4 C 0.3019(2) 0.1476(2) 0.31967(14)
C5_4 C 0.2899(2) 0.1242(3) 0.35101(16)
H1_4 H 0.2626 0.0918 0.3528
C6_4 C 0.3157(3) 0.1461(3) 0.37888(14)
C7_4 C 0.3552(3) 0.1976(3) 0.37739(14)
H2_4 H 0.3718 0.2140 0.3967
C8_4 C 0.3687(2) 0.2234(2) 0.34605(13)
C9_4 C 0.3412(2) 0.1952(3) 0.31734(14)
H3_4 H 0.3507 0.2104 0.2964
C10_4 C 0.4418(2) 0.2868(2) 0.36863(12)
H4_4 H 0.4644 0.2513 0.3763
H5_4 H 0.4165 0.3013 0.3868
C11_4 C 0.4860(2) 0.3366(2) 0.35803(12)
C12_4 C 0.5307(2) 0.3485(2) 0.38710(11)
H6_4 H 0.5607 0.3791 0.3809
H7_4 H 0.5088 0.3628 0.4066
C13_4 C 0.5218(2) 0.3177(2) 0.32778(12)
H8_4 H 0.5447 0.2807 0.3325
H9_4 H 0.4942 0.3094 0.3095
C14_4 C 0.5984(2) 0.2888(2) 0.42049(13)
C15_4 C 0.6224(2) 0.3382(2) 0.43703(13)
H10_4 H 0.6119 0.3778 0.4309
C16_4 C 0.6636(2) 0.3274(2) 0.46375(13)
C17_4 C 0.6778(2) 0.2707(2) 0.47430(12)
H11_4 H 0.7051 0.2648 0.4917
C18_4 C 0.6508(3) 0.2217(2) 0.45868(16)
C19_4 C 0.6112(2) 0.2311(2) 0.43200(13)
H12_4 H 0.5930 0.1976 0.4218
C20_4 C 0.6643(3) 0.1577(2) 0.47049(15)
C21_4 C 0.6075(2) 0.3537(2) 0.29526(12)
C22_4 C 0.6411(2) 0.4048(2) 0.28730(12)
H13_4 H 0.6315 0.4424 0.2968
C23_4 C 0.6895(2) 0.4000(2) 0.26503(12)
C24_4 C 0.7027(2) 0.3429(2) 0.25098(12)
H14_4 H 0.7359 0.3384 0.2367
C25_4 C 0.6665(2) 0.2940(2) 0.25842(12)
C26_4 C 0.6185(2) 0.2993(2) 0.28018(13)
H15_4 H 0.5937 0.2657 0.2846
C27_4 C 0.6806(3) 0.2335(2) 0.24450(13)
C28_4 C 0.3121(3) 0.5777(2) 0.32370(13)
C29_4 C 0.3261(2) 0.5405(2) 0.35507(12)
C30_4 C 0.3683(2) 0.4960(2) 0.35262(12)
H16_4 H 0.3890 0.4901 0.3327
C31_4 C 0.3812(2) 0.4583(2) 0.38012(12)
C32_4 C 0.4504(2) 0.3942(2) 0.35137(12)
H17_4 H 0.4778 0.4267 0.3446
H18_4 H 0.4210 0.3873 0.3337
C33_4 C 0.3527(2) 0.4723(2) 0.41047(12)
H19_4 H 0.3623 0.4499 0.4295
C34_4 C 0.3111(2) 0.5186(2) 0.41213(11)
C35_4 C 0.2976(2) 0.5521(2) 0.38540(12)
H20_4 H 0.2690 0.5833 0.3870
C36_4 C 0.2791(2) 0.5282(3) 0.44521(14)
C38_4 C 0.7737(4) 0.9966(3) 0.32144(16)
C39_4 C 0.7804(3) 0.9573(3) 0.35211(14)
C40_4 C 0.7452(3) 0.9669(2) 0.38065(14)
H21_4 H 0.7145 0.9963 0.3804
C41_4 C 0.7549(2) 0.9350(2) 0.40778(12)
C42_4 C 0.7189(3) 0.9491(2) 0.43869(13)
C44_4 C 0.7953(3) 0.8877(2) 0.40865(12)
H22_4 H 0.8008 0.8654 0.4281
C45_4 C 0.8284(3) 0.8728(2) 0.38022(14)
C46_4 C 0.8229(3) 0.9098(2) 0.35196(12)
H23_4 H 0.8472 0.9028 0.3334
C47_4 C 0.8854(2) 0.7932(2) 0.40468(12)
H24_4 H 0.8522 0.7658 0.4103
H25_4 H 0.8937 0.8191 0.4238
C48_4 C 0.9426(2) 0.7568(2) 0.39520(11)
C49_4 C 0.9274(2) 0.7153(2) 0.36719(13)
H26_4 H 0.8956 0.6869 0.3739
H27_4 H 0.9126 0.7387 0.3484
C50_4 C 0.9795(3) 0.6495(2) 0.32979(13)
C51_4 C 0.9278(2) 0.6285(2) 0.31343(14)
H28_4 H 0.8892 0.6384 0.3214
C52_4 C 0.9336(2) 0.5938(2) 0.28615(13)
C53_4 C 0.9902(2) 0.5760(2) 0.27359(13)
H29_4 H 0.9930 0.5518 0.2546
C56_4 C 0.9929(2) 0.7983(2) 0.38405(12)
H32_4 H 0.9787 0.8240 0.3659
C65_4 C 0.6918(3) 0.3828(2) 0.48068(15)
C66_4 C 0.3036(3) 0.1244(3) 0.4157(2)
C67_4 C 0.8238(3) 0.5209(3) 0.49720(15)
C68_4 C 0.8803(2) 0.5547(2) 0.48866(13)
C69_4 C 0.8761(2) 0.6053(2) 0.46694(13)
H36_4 H 0.8383 0.6164 0.4582
C70_4 C 0.9269(3) 0.6377(2) 0.45864(13)
C71_4 C 0.9665(2) 0.7198(2) 0.42557(12)
H37_4 H 0.9999 0.6933 0.4190
H38_4 H 0.9807 0.7471 0.4429
C72_4 C 0.9848(2) 0.6219(2) 0.47036(13)
C73_4 C 0.9906(2) 0.5714(2) 0.49103(12)
C74_4 C 0.9408(2) 0.5381(2) 0.49937(11)
H40_4 H 0.9458 0.5034 0.5124
O1_4 O 0.88238(16) 0.54197(16) 0.24247(10)
O2_4 O 0.82709(16) 0.59091(18) 0.28011(9)
O3_4 O 0.71310(17) 0.50284(16) 0.27139(9)
O4_4 O 0.76854(17) 0.44806(15) 0.23560(9)
O7_4 O 0.40437(16) 0.27056(15) 0.34102(8)
O8_4 O 0.56177(16) 0.36449(14) 0.31911(8)
O9_4 O 0.55998(16) 0.29161(14) 0.39388(9)
O10_4 O 0.64519(16) 0.19043(15) 0.25207(9)
O11_4 O 0.72541(18) 0.22941(14) 0.22447(9)
O12_4 O 0.62917(18) 0.11757(15) 0.45769(10)
O13_4 O 0.7036(2) 0.14939(17) 0.49027(12)
O23_2 O 0.67812(19) 0.98844(19) 0.43475(8)
O26_4 O 0.8040(4) 0.0745(5) 0.46867(19)
O28_4 O 0.7329(3) 0.1100(3) 0.56210(17)
O30_4 O 0.7043(3) 0.6160(2) 0.31359(12)
O31_4 O 0.5510(3) 0.1008(3) 0.23970(17)
O32_4 O 0.6389(2) 0.0580(2) 0.28383(11)
O34_4 O 0.8146(2) 0.21340(19) 0.17036(11)
O35_4 O 0.8542(3) 0.2039(3) 0.24119(18)
O37_4 O 0.87013(18) 0.82840(16) 0.37745(8)
O38_4 O 0.42017(16) 0.41041(16) 0.38056(8)
O39_4 O 0.97958(16) 0.68359(17) 0.35845(9)
O50_4 O 0.3258(3) 0.1420(3) 0.43865(12)
O51_4 O 0.91493(16) 0.68427(16) 0.43707(9)
N1_4 N 0.7217(12) 0.1471(9) 0.6146(4)
C75_4 C 0.7272(14) 0.1582(9) 0.5852(4)
C76_4 C 0.7064(13) 0.2205(7) 0.5680(6)
C77_4 C 0.6840(16) 0.0893(12) 0.6247(7)
C78_4 C 0.6410(14) 0.2047(15) 0.5547(9)
C79_4 C 0.7334(8) 0.1916(7) 0.6410(4)
H41_4 H 0.703022 0.230615 0.637944
H42_4 H 0.725202 0.170428 0.665116
H43_4 H 0.780687 0.20689 0.639597
H44_4 H 0.840384 0.207489 0.264647
H45_4 H 0.892305 0.179315 0.240284
H48_4 H 0.736987 0.232804 0.5477
H49_4 H 0.704719 0.257679 0.585991
H55_4 H 0.596097 0.0653676 0.290988
H56_4 H 0.644666 0.0138366 0.279099
H57_4 H 0.705185 0.0487147 0.614077
H58_4 H 0.683068 0.0853146 0.651709
H59_4 H 0.637492 0.0936171 0.615349
H60_4 H 0.83438 0.250291 0.1799
H61_4 H 0.84505 0.189903 0.157247
H62_4 H 0.537749 0.127612 0.221115
H63_4 H 0.537965 0.0581424 0.235158
H67_4 H 0.61174 0.191751 0.575456
H68_4 H 0.621782 0.244488 0.542232
H69_4 H 0.644008 0.166876 0.537165
H70_4 H 0.717416 0.658881 0.317374
H71_4 H 0.659107 0.614429 0.311531
H74_4 H 0.82556 0.114153 0.466121
H75_4 H 0.834458 0.0410843 0.470767
loop_
_geom_bond_atom_site_label_1
_geom_bond_atom_site_label_2
_geom_bond_site_symmetry_1
_geom_bond_site_symmetry_2
Zn1 O1 1_555 1_555
Zn5 O2 1_555 1_555
C1 C52 1_555 1_555
C28 C29 1_555 1_555
C35 C29 1_555 1_555
H20 C35 1_555 1_555
C36 C34 1_555 1_555
C38 C39 1_555 1_555
C39 C40 1_555 1_555
C40 H21 1_555 1_555
C41 C40 1_555 1_555
C42 C41 1_555 1_555
C44 C41 1_555 1_555
H22 C44 1_555 1_555
C45 C44 1_555 1_555
C46 C39 1_555 1_555
H23 C46 1_555 1_555
C47 H24 1_555 1_555
H25 C47 1_555 1_555
C48 C47 1_555 1_555
C49 C48 1_555 1_555
H26 C49 1_555 1_555
H27 C49 1_555 1_555
C50 C51 1_555 1_555
C51 H28 1_555 1_555
C52 C51 1_555 1_555
C53 C52 1_555 1_555
H29 C53 1_555 1_555
C56 C48 1_555 1_555
H32 C56 1_555 1_555
C67 C68 1_555 1_555
C68 C69 1_555 1_555
C69 H36 1_555 1_555
C70 C69 1_555 1_555
C71 C48 1_555 1_555
H37 C71 1_555 1_555
H38 C71 1_555 1_555
C72 C70 1_555 1_555
C73 C72 1_555 1_555
C74 C68 1_555 1_555
O1 C1 1_555 1_555
O2 C1 1_555 1_555
O3 Zn5 1_555 1_555
O15 C28 1_555 1_555
O16 C28 1_555 1_555
O19 C38 1_555 1_555
O20 C38 1_555 1_555
O23 C42 1_555 1_555
O24 C42 1_555 1_555
O30 Zn5 1_555 1_555
O36 C36 1_555 1_555
O37 C45 1_555 1_555
O39 C49 1_555 1_555
O47 C67 1_555 1_555
O51 C70 1_555 1_555
Zn15 O16 1_555 1_555
Zn20 O36 1_555 1_555
Zn22 O23 1_555 1_555
Zn24 O19 1_555 1_555
Zn25 O15 1_555 1_555
O53 Zn1 1_555 1_555
O54 Zn5 1_555 1_555
O66 Zn1 1_555 1_555
C34 C35 1_555 1_555
C45 C46 1_555 1_555
C47 O37 1_555 1_555
C50 O39 1_555 1_555
C71 O51 1_555 1_555
C73 C74 1_555 1_555
O47 Zn17 1_555 1_555
O30 H70 1_555 1_555
O30 H71 1_555 1_555
Zn3 O11 1_555 1_555
Zn22 O12 1_555 1_555
Zn9 O10 1_555 1_555
C2 C23 1_555 1_555
C3 C4 1_555 1_555
C4 C5 1_555 1_555
C5 H1 1_555 1_555
C6 C5 1_555 1_555
C7 C6 1_555 1_555
H2 C7 1_555 1_555
C8 C7 1_555 1_555
C9 C4 1_555 1_555
H3 C9 1_555 1_555
C10 H4 1_555 1_555
H5 C10 1_555 1_555
C11 C10 1_555 1_555
C12 C11 1_555 1_555
H6 C12 1_555 1_555
H7 C12 1_555 1_555
C13 C11 1_555 1_555
H8 C13 1_555 1_555
H9 C13 1_555 1_555
C14 C15 1_555 1_555
C15 H10 1_555 1_555
C16 C15 1_555 1_555
C17 C16 1_555 1_555
H11 C17 1_555 1_555
C18 C17 1_555 1_555
C19 C14 1_555 1_555
H12 C19 1_555 1_555
C20 C18 1_555 1_555
C21 C22 1_555 1_555
C22 H13 1_555 1_555
C23 C22 1_555 1_555
C24 C23 1_555 1_555
H14 C24 1_555 1_555
C25 C24 1_555 1_555
C26 C21 1_555 1_555
H15 C26 1_555 1_555
C27 C25 1_555 1_555
C30 H16 1_555 1_555
C31 C30 1_555 1_555
C32 C11 1_555 1_555
H17 C32 1_555 1_555
H18 C32 1_555 1_555
C33 C31 1_555 1_555
H19 C33 1_555 1_555
C65 C16 1_555 1_555
C66 C6 1_555 1_555
O5 C3 1_555 1_555
O6 C3 1_555 1_555
O7 C8 1_555 1_555
O8 C13 1_555 1_555
O9 C12 1_555 1_555
O10 C27 1_555 1_555
O11 C27 1_555 1_555
O12 C20 1_555 1_555
O13 C20 1_555 1_555
O14 Zn3 1_555 1_555
O31 Zn9 1_555 1_555
O32 Zn9 1_555 1_555
O34 Zn3 1_555 1_555
O35 Zn3 1_555 1_555
O38 C31 1_555 1_555
O45 C65 1_555 1_555
O49 C66 1_555 1_555
O50 C66 1_555 1_555
Zn11 O5 1_555 1_555
Zn14 O49 1_555 1_555
Zn18 O6 1_555 1_555
Zn24 O14 1_555 1_555
Zn27 O27 1_555 1_555
O56 Zn9 1_555 1_555
O57 Zn3 1_555 1_555
O58 Zn3 1_555 1_555
O60 Zn22 1_555 1_555
Zn9 O14 1_555 1_555
C2 O4 1_555 1_555
C8 C9 1_555 1_555
C10 O7 1_555 1_555
C14 O9 1_555 1_555
C18 C19 1_555 1_555
C21 O8 1_555 1_555
C25 C26 1_555 1_555
C32 O38 1_555 1_555
O35 H44 1_555 1_555
O35 H45 1_555 1_555
O32 H55 1_555 1_555
O32 H56 1_555 1_555
O34 H60 1_555 1_555
O34 H61 1_555 1_555
O31 H62 1_555 1_555
O31 H63 1_555 1_555
O26 H74 1_555 1_555
O26 H75 1_555 1_555
O28 Zn10 1_555 1_555
N1 C75 1_555 1_555
C75 O28 1_555 1_555
C76 C75 1_555 1_555
C77 N1 1_555 1_555
C78 C76 1_555 1_555
C79 N1 1_555 1_555
Zn13 O46 1_555 1_555
O64 Zn10 1_555 1_555
Zn10 O63 1_555 1_555
O48 Zn13 1_555 1_555
C79 H41 1_555 1_555
C79 H42 1_555 1_555
C79 H43 1_555 1_555
C76 H48 1_555 1_555
C76 H49 1_555 1_555
C77 H57 1_555 1_555
C77 H58 1_555 1_555
C77 H59 1_555 1_555
C78 H67 1_555 1_555
C78 H68 1_555 1_555
C78 H69 1_555 1_555
Zn14 O43 1_555 1_555
Zn20 O22 1_555 1_555
Zn8 O18 1_555 1_555
C37 C54 1_555 1_555
H30 C55 1_555 1_555
C57 C58 1_555 1_555
C58 H33 1_555 1_555
C59 C58 1_555 1_555
C60 C59 1_555 1_555
C61 C59 1_555 1_555
H34 C61 1_555 1_555
C62 C61 1_555 1_555
C63 C57 1_555 1_555
H35 C63 1_555 1_555
C64 C62 1_555 1_555
O17 C37 1_555 1_555
O18 C37 1_555 1_555
O29 Zn20 1_555 1_555
O40 C60 1_555 1_555
O41 C60 1_555 1_555
O42 C64 1_555 1_555
O43 C64 1_555 1_555
C80 O29 1_555 1_555
N2 C80 1_555 1_555
C81 C83 1_555 1_555
C83 C80 1_555 1_555
C84 N2 1_555 1_555
Zn11 O41 1_555 1_555
Zn15 O17 1_555 1_555
O55 Zn8 1_555 1_555
O68 Zn14 1_555 1_555
O70 Zn14 1_555 1_555
C54 C55 1_555 1_555
C57 O52 1_555 1_555
C62 C63 1_555 1_555
Zn15 O55 1_555 1_555
C84 H50 1_555 1_555
C84 H51 1_555 1_555
C84 H52 1_555 1_555
C81 H64 1_555 1_555
C81 H65 1_555 1_555
C81 H66 1_555 1_555
C83 H72 1_555 1_555
C83 H73 1_555 1_555
O21 C43 1_555 1_555
O44 Zn4 1_555 1_555
O67 Zn4 1_555 1_555
O69 Zn4 1_555 1_555
O44 H46 1_555 1_555
O44 H47 1_555 1_555
C82 H76 1_555 1_555
C82 H77 1_555 1_555
Zn27 O25 1_555 1_555
O33 H53 1_555 1_555
O33 H54 1_555 1_555
Zn3_2 O11_2 1_555 1_555
Zn7 O12_2 1_555 1_555
Zn9_2 O10_2 1_555 1_555
Zn10_2 O13_2 1_555 1_555
C2_2 C23_2 1_555 1_555
H6_2 C12_2 1_555 1_555
H7_2 C12_2 1_555 1_555
H8_2 C13_2 1_555 1_555
C14_2 C15_2 1_555 1_555
C15_2 H10_2 1_555 1_555
C16_2 C15_2 1_555 1_555
C17_2 C16_2 1_555 1_555
H11_2 C17_2 1_555 1_555
C18_2 C17_2 1_555 1_555
C19_2 C14_2 1_555 1_555
H12_2 C19_2 1_555 1_555
C20_2 C18_2 1_555 1_555
C21_2 C22_2 1_555 1_555
C22_2 H13_2 1_555 1_555
C23_2 C22_2 1_555 1_555
C24_2 C23_2 1_555 1_555
H14_2 C24_2 1_555 1_555
C25_2 C24_2 1_555 1_555
C26_2 C21_2 1_555 1_555
H15_2 C26_2 1_555 1_555
C27_2 C25_2 1_555 1_555
C65_2 C16_2 1_555 1_555
O8_2 C13_2 1_555 1_555
O9_2 C12_2 1_555 1_555
O10_2 C27_2 1_555 1_555
O11_2 C27_2 1_555 1_555
O12_2 C20_2 1_555 1_555
O13_2 C20_2 1_555 1_555
O14_2 Zn3_2 1_555 1_555
O26_2 Zn10_2 1_555 1_555
O28_2 Zn10_2 1_555 1_555
O31_2 Zn9_2 1_555 1_555
O32_2 Zn9_2 1_555 1_555
O34_2 Zn3_2 1_555 1_555
O35_2 Zn3_2 1_555 1_555
O45_2 C65_2 1_555 1_555
O46_2 C65_2 1_555 1_555
N1_2 C75_2 1_555 1_555
C75_2 O28_2 1_555 1_555
C76_2 C75_2 1_555 1_555
C77_2 N1_2 1_555 1_555
C78_2 C76_2 1_555 1_555
C79_2 N1_2 1_555 1_555
Zn13_2 O46_2 1_555 1_555
Zn23 O14_2 1_555 1_555
Zn26 O25_2 1_555 1_555
O56_2 Zn9_2 1_555 1_555
O57_2 Zn3_2 1_555 1_555
O58_2 Zn3_2 1_555 1_555
O60_2 Zn7 1_555 1_555
O61 Zn7 1_555 1_555
O63_2 Zn7 1_555 1_555
O64_2 Zn10_2 1_555 1_555
Zn9_2 O14_2 1_555 1_555
Zn10_2 O63_2 1_555 1_555
C2_2 O4_2 1_555 1_555
C14_2 O9_2 1_555 1_555
C18_2 C19_2 1_555 1_555
C21_2 O8_2 1_555 1_555
C25_2 C26_2 1_555 1_555
O25_2 Zn21_2 1_555 1_555
O48_2 Zn13_2 1_555 1_555
C79_2 H41_2 1_555 1_555
C79_2 H42_2 1_555 1_555
C79_2 H43_2 1_555 1_555
O35_2 H44_2 1_555 1_555
O35_2 H45_2 1_555 1_555
C76_2 H48_2 1_555 1_555
C76_2 H49_2 1_555 1_555
O33_2 H53_2 1_555 1_555
O33_2 H54_2 1_555 1_555
O32_2 H55_2 1_555 1_555
O32_2 H56_2 1_555 1_555
C77_2 H57_2 1_555 1_555
C77_2 H58_2 1_555 1_555
C77_2 H59_2 1_555 1_555
O34_2 H60_2 1_555 1_555
O34_2 H61_2 1_555 1_555
O31_2 H62_2 1_555 1_555
O31_2 H63_2 1_555 1_555
C78_2 H67_2 1_555 1_555
C78_2 H68_2 1_555 1_555
C78_2 H69_2 1_555 1_555
O26_2 H74_2 1_555 1_555
O26_2 H75_2 1_555 1_555
Zn1_2 O1_2 1_555 1_555
Zn2 O43_2 1_555 1_555
Zn4_2 O42_2 1_555 1_555
Zn5_2 O2_2 1_555 1_555
Zn6 O22_2 1_555 1_555
Zn8_2 O18_2 1_555 1_555
C1_2 C52_2 1_555 1_555
C37_2 C54_2 1_555 1_555
C38_2 C39_2 1_555 1_555
C39_2 C40_2 1_555 1_555
C40_2 H21_2 1_555 1_555
C41_2 C40_2 1_555 1_555
C42_2 C41_2 1_555 1_555
C43_2 C73_2 1_555 1_555
C44_2 C41_2 1_555 1_555
H22_2 C44_2 1_555 1_555
C45_2 C44_2 1_555 1_555
C46_2 C39_2 1_555 1_555
H23_2 C46_2 1_555 1_555
C47_2 H24_2 1_555 1_555
H25_2 C47_2 1_555 1_555
C48_2 C47_2 1_555 1_555
C49_2 C48_2 1_555 1_555
H26_2 C49_2 1_555 1_555
H27_2 C49_2 1_555 1_555
C50_2 C51_2 1_555 1_555
C51_2 H28_2 1_555 1_555
C52_2 C51_2 1_555 1_555
C53_2 C52_2 1_555 1_555
H29_2 C53_2 1_555 1_555
C54_2 C53_2 1_555 1_555
C55_2 C50_2 1_555 1_555
H30_2 C55_2 1_555 1_555
C56_2 C48_2 1_555 1_555
H31_2 C56_2 1_555 1_555
H32_2 C56_2 1_555 1_555
C57_2 C58_2 1_555 1_555
C58_2 H33_2 1_555 1_555
C59_2 C58_2 1_555 1_555
C60_2 C59_2 1_555 1_555
C61_2 C59_2 1_555 1_555
H34_2 C61_2 1_555 1_555
C62_2 C61_2 1_555 1_555
C63_2 C57_2 1_555 1_555
H35_2 C63_2 1_555 1_555
C64_2 C62_2 1_555 1_555
C67_2 C68_2 1_555 1_555
C68_2 C69_2 1_555 1_555
C69_2 H36_2 1_555 1_555
C70_2 C69_2 1_555 1_555
C71_2 C48_2 1_555 1_555
H37_2 C71_2 1_555 1_555
H38_2 C71_2 1_555 1_555
C72_2 C70_2 1_555 1_555
H39_2 C72_2 1_555 1_555
C73_2 C72_2 1_555 1_555
C74_2 C68_2 1_555 1_555
H40_2 C74_2 1_555 1_555
O1_2 C1_2 1_555 1_555
O2_2 C1_2 1_555 1_555
O3_2 Zn5_2 1_555 1_555
O17_2 C37_2 1_555 1_555
O18_2 C37_2 1_555 1_555
O19_2 C38_2 1_555 1_555
O20_2 C38_2 1_555 1_555
O21_2 C43_2 1_555 1_555
O22_2 C43_2 1_555 1_555
O61 C42_2 1_555 1_555
O24_2 C42_2 1_555 1_555
O29_2 Zn6 1_555 1_555
O30_2 Zn5_2 1_555 1_555
O37_2 C45_2 1_555 1_555
O39_2 C49_2 1_555 1_555
O40_2 C60_2 1_555 1_555
O41_2 C60_2 1_555 1_555
O42_2 C64_2 1_555 1_555
O43_2 C64_2 1_555 1_555
O44_2 Zn4_2 1_555 1_555
O47_2 C67_2 1_555 1_555
O51_2 C70_2 1_555 1_555
O52_2 C56_2 1_555 1_555
C80_2 O29_2 1_555 1_555
N2_2 C80_2 1_555 1_555
C81_2 C83_2 1_555 1_555
C82_2 N2_2 1_555 1_555
C83_2 C80_2 1_555 1_555
C84_2 N2_2 1_555 1_555
Zn12 O41_2 1_555 1_555
Zn16 O17_2 1_555 1_555
Zn19_2 O24_2 1_555 1_555
Zn23 O19_2 1_555 1_555
O53_2 Zn1_2 1_555 1_555
O54_2 Zn5_2 1_555 1_555
O55_2 Zn8_2 1_555 1_555
O62_2 Zn6 1_555 1_555
O65 Zn6 1_555 1_555
O66_2 Zn1_2 1_555 1_555
O67_2 Zn4_2 1_555 1_555
O68_2 Zn2 1_555 1_555
O69_2 Zn4_2 1_555 1_555
O70_2 Zn2 1_555 1_555
O71 Zn2 1_555 1_555
C45_2 C46_2 1_555 1_555
C47_2 O37_2 1_555 1_555
C50_2 O39_2 1_555 1_555
C54_2 C55_2 1_555 1_555
C57_2 O52_2 1_555 1_555
C62_2 C63_2 1_555 1_555
C71_2 O51_2 1_555 1_555
C73_2 C74_2 1_555 1_555
O47_2 Zn17_2 1_555 1_555
Zn16 O55_2 1_555 1_555
O44_2 H46_2 1_555 1_555
O44_2 H47_2 1_555 1_555
C84_2 H50_2 1_555 1_555
C84_2 H51_2 1_555 1_555
C84_2 H52_2 1_555 1_555
C81_2 H64_2 1_555 1_555
C81_2 H65_2 1_555 1_555
C81_2 H66_2 1_555 1_555
O30_2 H70_2 1_555 1_555
O30_2 H71_2 1_555 1_555
C83_2 H72_2 1_555 1_555
C83_2 H73_2 1_555 1_555
C82_2 H76_2 1_555 1_555
C82_2 H77_2 1_555 1_555
C82_2 H78_2 1_555 1_555
C3_2 C4_2 1_555 1_555
C4_2 C5_2 1_555 1_555
C5_2 H1_2 1_555 1_555
C6_2 C5_2 1_555 1_555
C7_2 C6_2 1_555 1_555
H2_2 C7_2 1_555 1_555
C8_2 C7_2 1_555 1_555
C9_2 C4_2 1_555 1_555
H3_2 C9_2 1_555 1_555
C10_2 H4_2 1_555 1_555
H5_2 C10_2 1_555 1_555
C11_2 C10_2 1_555 1_555
C30_2 H16_2 1_555 1_555
C31_2 C30_2 1_555 1_555
C32_2 C11_2 1_555 1_555
H17_2 C32_2 1_555 1_555
H18_2 C32_2 1_555 1_555
C33_2 C31_2 1_555 1_555
H19_2 C33_2 1_555 1_555
C66_2 C6_2 1_555 1_555
O5_2 C3_2 1_555 1_555
O6_2 C3_2 1_555 1_555
O7_2 C8_2 1_555 1_555
O38_2 C31_2 1_555 1_555
O71 C66_2 1_555 1_555
O50_2 C66_2 1_555 1_555
Zn12 O5_2 1_555 1_555
Zn18_2 O6_2 1_555 1_555
Zn26 O27_2 1_555 1_555
C8_2 C9_2 1_555 1_555
C10_2 O7_2 1_555 1_555
C32_2 O38_2 1_555 1_555
C28_2 C29_2 1_555 1_555
C35_2 C29_2 1_555 1_555
H20_2 C35_2 1_555 1_555
C36_2 C34_2 1_555 1_555
O15_2 C28_2 1_555 1_555
O16_2 C28_2 1_555 1_555
O65 C36_2 1_555 1_555
Zn16 O16_2 1_555 1_555
Zn25_2 O15_2 1_555 1_555
C34_2 C35_2 1_555 1_555
C3_3 C4_3 1_555 1_555
C4_3 C5_3 1_555 1_555
C5_3 H1_3 1_555 1_555
C6_3 C5_3 1_555 1_555
C7_3 C6_3 1_555 1_555
H2_3 C7_3 1_555 1_555
C8_3 C7_3 1_555 1_555
C9_3 C4_3 1_555 1_555
H3_3 C9_3 1_555 1_555
C10_3 H4_3 1_555 1_555
H5_3 C10_3 1_555 1_555
C11_3 C10_3 1_555 1_555
C28_3 C29_3 1_555 1_555
C29_3 C30_3 1_555 1_555
C30_3 H16_3 1_555 1_555
C31_3 C30_3 1_555 1_555
C32_3 C11_3 1_555 1_555
H17_3 C32_3 1_555 1_555
H18_3 C32_3 1_555 1_555
C33_3 C31_3 1_555 1_555
H19_3 C33_3 1_555 1_555
C34_3 C33_3 1_555 1_555
C35_3 C29_3 1_555 1_555
H20_3 C35_3 1_555 1_555
C36_3 C34_3 1_555 1_555
C66_3 C6_3 1_555 1_555
O53_2 C3_3 1_555 1_555
O54_2 C3_3 1_555 1_555
O7_3 C8_3 1_555 1_555
O56_2 C28_3 1_555 1_555
O57_2 C28_3 1_555 1_555
O64 C36_3 1_555 1_555
O36_2 C36_3 1_555 1_555
O38_3 C31_3 1_555 1_555
O49_2 C66_3 1_555 1_555
O50_3 C66_3 1_555 1_555
Zn13 O49_2 1_555 1_555
Zn19 O36_2 1_555 1_555
C8_3 C9_3 1_555 1_555
C10_3 O7_3 1_555 1_555
C32_3 O38_3 1_555 1_555
C34_3 C35_3 1_555 1_555
O60 C43_3 1_555 1_555
O28_3 Zn27 1_555 1_555
O44_3 Zn17 1_555 1_555
N1_3 C75_3 1_555 1_555
C75_3 O28_3 1_555 1_555
C76_3 C75_3 1_555 1_555
C77_3 N1_3 1_555 1_555
C78_3 C76_3 1_555 1_555
C79_3 N1_3 1_555 1_555
C79_3 H41_3 1_555 1_555
C79_3 H42_3 1_555 1_555
C79_3 H43_3 1_555 1_555
O44_3 H46_3 1_555 1_555
O44_3 H47_3 1_555 1_555
C76_3 H48_3 1_555 1_555
C76_3 H49_3 1_555 1_555
C77_3 H57_3 1_555 1_555
C77_3 H58_3 1_555 1_555
C77_3 H59_3 1_555 1_555
C78_3 H67_3 1_555 1_555
C78_3 H68_3 1_555 1_555
C78_3 H69_3 1_555 1_555
C82_3 H76_3 1_555 1_555
C82_3 H77_3 1_555 1_555
Zn12 O1_3 1_555 1_555
Zn16 O11_3 1_555 1_555
Zn18_2 O2_3 1_555 1_555
Zn19 O22_3 1_555 1_555
Zn21 O12_3 1_555 1_555
Zn23 O18_3 1_555 1_555
Zn25_2 O10_3 1_555 1_555
C1_3 C52_3 1_555 1_555
C2_3 C23_3 1_555 1_555
H6_3 C12_3 1_555 1_555
H7_3 C12_3 1_555 1_555
H8_3 C13_3 1_555 1_555
C14_3 C15_3 1_555 1_555
C15_3 H10_3 1_555 1_555
C16_3 C15_3 1_555 1_555
C17_3 C16_3 1_555 1_555
H11_3 C17_3 1_555 1_555
C18_3 C17_3 1_555 1_555
C19_3 C14_3 1_555 1_555
H12_3 C19_3 1_555 1_555
C20_3 C18_3 1_555 1_555
C21_3 C22_3 1_555 1_555
C22_3 H13_3 1_555 1_555
C23_3 C22_3 1_555 1_555
C24_3 C23_3 1_555 1_555
H14_3 C24_3 1_555 1_555
C25_3 C24_3 1_555 1_555
C26_3 C21_3 1_555 1_555
H15_3 C26_3 1_555 1_555
C27_3 C25_3 1_555 1_555
C37_3 C54_3 1_555 1_555
C38_3 C39_3 1_555 1_555
C39_3 C40_3 1_555 1_555
C40_3 H21_3 1_555 1_555
C41_3 C40_3 1_555 1_555
C42_3 C41_3 1_555 1_555
C44_3 C41_3 1_555 1_555
H22_3 C44_3 1_555 1_555
C45_3 C44_3 1_555 1_555
C46_3 C39_3 1_555 1_555
H23_3 C46_3 1_555 1_555
C47_3 H24_3 1_555 1_555
H25_3 C47_3 1_555 1_555
C48_3 C47_3 1_555 1_555
C49_3 C48_3 1_555 1_555
H26_3 C49_3 1_555 1_555
H27_3 C49_3 1_555 1_555
C50_3 C51_3 1_555 1_555
C51_3 H28_3 1_555 1_555
C52_3 C51_3 1_555 1_555
C53_3 C52_3 1_555 1_555
H29_3 C53_3 1_555 1_555
C54_3 C53_3 1_555 1_555
C55_3 C50_3 1_555 1_555
H30_3 C55_3 1_555 1_555
C56_3 C48_3 1_555 1_555
H31_3 C56_3 1_555 1_555
H32_3 C56_3 1_555 1_555
C57_3 C58_3 1_555 1_555
C58_3 H33_3 1_555 1_555
C59_3 C58_3 1_555 1_555
C60_3 C59_3 1_555 1_555
C61_3 C59_3 1_555 1_555
H34_3 C61_3 1_555 1_555
C62_3 C61_3 1_555 1_555
C63_3 C57_3 1_555 1_555
H35_3 C63_3 1_555 1_555
C64_3 C62_3 1_555 1_555
C65_3 C16_3 1_555 1_555
C67_3 C68_3 1_555 1_555
C68_3 C69_3 1_555 1_555
C69_3 H36_3 1_555 1_555
C70_3 C69_3 1_555 1_555
C71_3 C48_3 1_555 1_555
H37_3 C71_3 1_555 1_555
H38_3 C71_3 1_555 1_555
C72_3 C70_3 1_555 1_555
H39_3 C72_3 1_555 1_555
C73_3 C72_3 1_555 1_555
C74_3 C68_3 1_555 1_555
O1_3 C1_3 1_555 1_555
O2_3 C1_3 1_555 1_555
O3_3 Zn18_2 1_555 1_555
O4_3 Zn12 1_555 1_555
O8_3 C13_3 1_555 1_555
O9_3 C12_3 1_555 1_555
O10_3 C27_3 1_555 1_555
O11_3 C27_3 1_555 1_555
O12_3 C20_3 1_555 1_555
O13_3 C20_3 1_555 1_555
O58_2 C37_3 1_555 1_555
O18_3 C37_3 1_555 1_555
O59_2 C38_3 1_555 1_555
O61_2 C42_3 1_555 1_555
O62 C42_3 1_555 1_555
O63 Zn19 1_555 1_555
O29_3 Zn19 1_555 1_555
O30_3 Zn18_2 1_555 1_555
O31_3 Zn25_2 1_555 1_555
O32_3 Zn25_2 1_555 1_555
O33_3 Zn23 1_555 1_555
O34_3 Zn16 1_555 1_555
O35_3 Zn16 1_555 1_555
O37_3 C45_3 1_555 1_555
O39_3 C49_3 1_555 1_555
O40_3 C60_3 1_555 1_555
O42_3 C64_3 1_555 1_555
O67 C65_3 1_555 1_555
O69 C67_3 1_555 1_555
O51_3 C70_3 1_555 1_555
O52_3 C56_3 1_555 1_555
C80_3 O29_3 1_555 1_555
N2_3 C80_3 1_555 1_555
C81_3 C83_3 1_555 1_555
C83_3 C80_3 1_555 1_555
C84_3 N2_3 1_555 1_555
Zn25_2 O55_2 1_555 1_555
C2_3 O3_3 1_555 1_555
C2_3 O4_3 1_555 1_555
C14_3 O9_3 1_555 1_555
C18_3 C19_3 1_555 1_555
C21_3 O8_3 1_555 1_555
C25_3 C26_3 1_555 1_555
C45_3 C46_3 1_555 1_555
C47_3 O37_3 1_555 1_555
C50_3 O39_3 1_555 1_555
C54_3 C55_3 1_555 1_555
C57_3 O52_3 1_555 1_555
C62_3 C63_3 1_555 1_555
C71_3 O51_3 1_555 1_555
C73_3 C74_3 1_555 1_555
O35_3 H44_3 1_555 1_555
O35_3 H45_3 1_555 1_555
C84_3 H50_3 1_555 1_555
C84_3 H51_3 1_555 1_555
C84_3 H52_3 1_555 1_555
O33_3 H53_3 1_555 1_555
O33_3 H54_3 1_555 1_555
O32_3 H55_3 1_555 1_555
O32_3 H56_3 1_555 1_555
O34_3 H60_3 1_555 1_555
O34_3 H61_3 1_555 1_555
O31_3 H62_3 1_555 1_555
O31_3 H63_3 1_555 1_555
C81_3 H64_3 1_555 1_555
C81_3 H65_3 1_555 1_555
C81_3 H66_3 1_555 1_555
O30_3 H70_3 1_555 1_555
O30_3 H71_3 1_555 1_555
C83_3 H72_3 1_555 1_555
C83_3 H73_3 1_555 1_555
O26_3 H74_3 1_555 1_555
O26_3 H75_3 1_555 1_555
Zn13 O43_3 1_555 1_555
Zn13_2 O43_4 1_555 1_555
O71_2 Zn13_2 1_555 1_555
Zn17_2 O42_4 1_555 1_555
Zn19_2 O22_4 1_555 1_555
Zn24 O18_4 1_555 1_555
C37_4 C54_4 1_555 1_555
H30_4 C55_4 1_555 1_555
C57_4 C58_4 1_555 1_555
C58_4 H33_4 1_555 1_555
C59_4 C58_4 1_555 1_555
C60_4 C59_4 1_555 1_555
C61_4 C59_4 1_555 1_555
H34_4 C61_4 1_555 1_555
C62_4 C61_4 1_555 1_555
C63_4 C57_4 1_555 1_555
H35_4 C63_4 1_555 1_555
C64_4 C62_4 1_555 1_555
O58 C37_4 1_555 1_555
O18_4 C37_4 1_555 1_555
O60_2 C43_4 1_555 1_555
O22_4 C43_4 1_555 1_555
O63_2 Zn19_2 1_555 1_555
O29_4 Zn19_2 1_555 1_555
O33_4 Zn24 1_555 1_555
O40_4 C60_4 1_555 1_555
O42_4 C64_4 1_555 1_555
O44_4 Zn17_2 1_555 1_555
C80_4 O29_4 1_555 1_555
N2_4 C80_4 1_555 1_555
C81_4 C83_4 1_555 1_555
C82_4 N2_4 1_555 1_555
C83_4 C80_4 1_555 1_555
C84_4 N2_4 1_555 1_555
O65_2 Zn19_2 1_555 1_555
C54_4 C55_4 1_555 1_555
C57_4 O52_4 1_555 1_555
C62_4 C63_4 1_555 1_555
O44_4 H46_4 1_555 1_555
O44_4 H47_4 1_555 1_555
C84_4 H50_4 1_555 1_555
C84_4 H51_4 1_555 1_555
C84_4 H52_4 1_555 1_555
O33_4 H53_4 1_555 1_555
O33_4 H54_4 1_555 1_555
C81_4 H64_4 1_555 1_555
C81_4 H65_4 1_555 1_555
C81_4 H66_4 1_555 1_555
C83_4 H72_4 1_555 1_555
C83_4 H73_4 1_555 1_555
C82_4 H76_4 1_555 1_555
C82_4 H77_4 1_555 1_555
C82_4 H78_4 1_555 1_555
Zn11 O1_4 1_555 1_555
Zn15 O11_4 1_555 1_555
Zn18 O2_4 1_555 1_555
Zn21_2 O12_4 1_555 1_555
Zn25 O10_4 1_555 1_555
Zn26 O13_4 1_555 1_555
C1_4 C52_4 1_555 1_555
C2_4 C23_4 1_555 1_555
C3_4 C4_4 1_555 1_555
C4_4 C5_4 1_555 1_555
C5_4 H1_4 1_555 1_555
C6_4 C5_4 1_555 1_555
C7_4 C6_4 1_555 1_555
H2_4 C7_4 1_555 1_555
C8_4 C7_4 1_555 1_555
C9_4 C4_4 1_555 1_555
H3_4 C9_4 1_555 1_555
C10_4 H4_4 1_555 1_555
H5_4 C10_4 1_555 1_555
C11_4 C10_4 1_555 1_555
C12_4 C11_4 1_555 1_555
H6_4 C12_4 1_555 1_555
H7_4 C12_4 1_555 1_555
C13_4 C11_4 1_555 1_555
H8_4 C13_4 1_555 1_555
H9_4 C13_4 1_555 1_555
C14_4 C15_4 1_555 1_555
C15_4 H10_4 1_555 1_555
C16_4 C15_4 1_555 1_555
C17_4 C16_4 1_555 1_555
H11_4 C17_4 1_555 1_555
C18_4 C17_4 1_555 1_555
C19_4 C14_4 1_555 1_555
H12_4 C19_4 1_555 1_555
C20_4 C18_4 1_555 1_555
C21_4 C22_4 1_555 1_555
C22_4 H13_4 1_555 1_555
C23_4 C22_4 1_555 1_555
C24_4 C23_4 1_555 1_555
H14_4 C24_4 1_555 1_555
C25_4 C24_4 1_555 1_555
C26_4 C21_4 1_555 1_555
H15_4 C26_4 1_555 1_555
C27_4 C25_4 1_555 1_555
C28_4 C29_4 1_555 1_555
C29_4 C30_4 1_555 1_555
C30_4 H16_4 1_555 1_555
C31_4 C30_4 1_555 1_555
C32_4 C11_4 1_555 1_555
H17_4 C32_4 1_555 1_555
H18_4 C32_4 1_555 1_555
C33_4 C31_4 1_555 1_555
H19_4 C33_4 1_555 1_555
C34_4 C33_4 1_555 1_555
C35_4 C29_4 1_555 1_555
H20_4 C35_4 1_555 1_555
C36_4 C34_4 1_555 1_555
C38_4 C39_4 1_555 1_555
C39_4 C40_4 1_555 1_555
C40_4 H21_4 1_555 1_555
C41_4 C40_4 1_555 1_555
C42_4 C41_4 1_555 1_555
C44_4 C41_4 1_555 1_555
H22_4 C44_4 1_555 1_555
C45_4 C44_4 1_555 1_555
C46_4 C39_4 1_555 1_555
H23_4 C46_4 1_555 1_555
C47_4 H24_4 1_555 1_555
H25_4 C47_4 1_555 1_555
C48_4 C47_4 1_555 1_555
C49_4 C48_4 1_555 1_555
H26_4 C49_4 1_555 1_555
H27_4 C49_4 1_555 1_555
C50_4 C51_4 1_555 1_555
C51_4 H28_4 1_555 1_555
C52_4 C51_4 1_555 1_555
C53_4 C52_4 1_555 1_555
H29_4 C53_4 1_555 1_555
C56_4 C48_4 1_555 1_555
H32_4 C56_4 1_555 1_555
C65_4 C16_4 1_555 1_555
C66_4 C6_4 1_555 1_555
C67_4 C68_4 1_555 1_555
C68_4 C69_4 1_555 1_555
C69_4 H36_4 1_555 1_555
C70_4 C69_4 1_555 1_555
C71_4 C48_4 1_555 1_555
H37_4 C71_4 1_555 1_555
H38_4 C71_4 1_555 1_555
C72_4 C70_4 1_555 1_555
C73_4 C72_4 1_555 1_555
C74_4 C68_4 1_555 1_555
H40_4 C74_4 1_555 1_555
O1_4 C1_4 1_555 1_555
O2_4 C1_4 1_555 1_555
O3_4 Zn18 1_555 1_555
O4_4 Zn11 1_555 1_555
O53 C3_4 1_555 1_555
O54 C3_4 1_555 1_555
O7_4 C8_4 1_555 1_555
O8_4 C13_4 1_555 1_555
O9_4 C12_4 1_555 1_555
O10_4 C27_4 1_555 1_555
O11_4 C27_4 1_555 1_555
O12_4 C20_4 1_555 1_555
O13_4 C20_4 1_555 1_555
O56 C28_4 1_555 1_555
O57 C28_4 1_555 1_555
O59 C38_4 1_555 1_555
O23_2 C42_4 1_555 1_555
O62_2 C42_4 1_555 1_555
O26_4 Zn26 1_555 1_555
O64_2 C36_4 1_555 1_555
O28_4 Zn26 1_555 1_555
O30_4 Zn18 1_555 1_555
O31_4 Zn25 1_555 1_555
O32_4 Zn25 1_555 1_555
O34_4 Zn15 1_555 1_555
O35_4 Zn15 1_555 1_555
O65_2 C36_4 1_555 1_555
O37_4 C45_4 1_555 1_555
O38_4 C31_4 1_555 1_555
O39_4 C49_4 1_555 1_555
O67_2 C65_4 1_555 1_555
O68_2 C65_4 1_555 1_555
O69_2 C67_4 1_555 1_555
O70_2 C67_4 1_555 1_555
O71_2 C66_4 1_555 1_555
O50_4 C66_4 1_555 1_555
O51_4 C70_4 1_555 1_555
N1_4 C75_4 1_555 1_555
C75_4 O28_4 1_555 1_555
C76_4 C75_4 1_555 1_555
C77_4 N1_4 1_555 1_555
C78_4 C76_4 1_555 1_555
C79_4 N1_4 1_555 1_555
Zn25 O55 1_555 1_555
C2_4 O3_4 1_555 1_555
C2_4 O4_4 1_555 1_555
C8_4 C9_4 1_555 1_555
C10_4 O7_4 1_555 1_555
C14_4 O9_4 1_555 1_555
C18_4 C19_4 1_555 1_555
C21_4 O8_4 1_555 1_555
C25_4 C26_4 1_555 1_555
C32_4 O38_4 1_555 1_555
C34_4 C35_4 1_555 1_555
C45_4 C46_4 1_555 1_555
C47_4 O37_4 1_555 1_555
C50_4 O39_4 1_555 1_555
C71_4 O51_4 1_555 1_555
C73_4 C74_4 1_555 1_555
C79_4 H41_4 1_555 1_555
C79_4 H42_4 1_555 1_555
C79_4 H43_4 1_555 1_555
O35_4 H44_4 1_555 1_555
O35_4 H45_4 1_555 1_555
C76_4 H48_4 1_555 1_555
C76_4 H49_4 1_555 1_555
O32_4 H55_4 1_555 1_555
O32_4 H56_4 1_555 1_555
C77_4 H57_4 1_555 1_555
C77_4 H58_4 1_555 1_555
C77_4 H59_4 1_555 1_555
O34_4 H60_4 1_555 1_555
O34_4 H61_4 1_555 1_555
O31_4 H62_4 1_555 1_555
O31_4 H63_4 1_555 1_555
C78_4 H67_4 1_555 1_555
C78_4 H68_4 1_555 1_555
C78_4 H69_4 1_555 1_555
O30_4 H70_4 1_555 1_555
O30_4 H71_4 1_555 1_555
O26_4 H74_4 1_555 1_555
O26_4 H75_4 1_555 1_555

#END
