
###############################################################################
#
# This file contains modified crystal structure data generated from the
# MOF subset of the Cambridge Structural Database (CSD) v543 
# hosted by the Cambridge Crystallographic Data Centre (CCDC).
#
# This work is licensed under the Creative Commons
# Attribution-NonCommercial-ShareAlike 4.0 International License.
# To view a copy of this license, visit
# http://creativecommons.org/licenses/by-nc-sa/4.0/
# or send a letter to
# Creative Commons, PO Box 1866, Mountain View, CA 94042, USA.
#
# CIF created using the CSD Python API on 29 September 2022
# The structure has been converted into the P1 space group
# The structure has a 3D framework
# The original CSD entry WEHJAW is in the tetragonal crystal system
# The framework has been calculated to contain at least 10.0% void space
# The void calculation uses a probe of radius 1.32A, grid spacing 0.4
# H atom positions have been added when not included in the experimental data
# Generated hydrogen atom positions removed from atoms on special positions
#
###############################################################################

data_WEHJAW
_chemical_formula_moiety         '(C150 H144 O82 Zn16)n'
_symmetry_cell_setting           triclinic
_symmetry_space_group_name_H-M   'P 1'
_symmetry_Int_Tables_number      1
_space_group_name_Hall           'P 1'
loop_
_symmetry_equiv_pos_site_id
_symmetry_equiv_pos_as_xyz
1 x,y,z
_cell_length_a                   19.0396(17)
_cell_length_b                   19.0396(17)
_cell_length_c                   23.563(2)
_cell_angle_alpha                90
_cell_angle_beta                 90
_cell_angle_gamma                90
_cell_volume                     8541.74
loop_
_atom_site_label
_atom_site_type_symbol
_atom_site_fract_x
_atom_site_fract_y
_atom_site_fract_z
Zn2 Zn 0.02708(3) 0.04886(3) 0.703969(19)
Zn8 Zn 0.04886(3) 0.47292(3) 0.703969(19)
Zn11 Zn 0.02708(3) 0.45114(3) 0.203969(19)
Zn14 Zn 0.04886(3) 0.02708(3) 0.203969(19)
H17 H 0.0114 0.2428 0.2717
O15 O 0.0723(2) 0.0949(2) 0.63830(16)
O20 O 0.00913(18) 0.37041(16) 0.25716(12)
O21 O 0.00913(18) 0.12959(16) 0.75716(12)
O32 O 0.02290(18) 0.11396(17) 0.25153(13)
O34 O 0.11396(17) 0.02290(18) 0.75153(13)
O27 O 0.05161(17) 0.97332(19) 0.82145(15)
O29 O 0.02668(19) 0.94839(17) 0.67855(15)
Zn1 Zn 0.47292(3) 0.45114(3) 0.703969(19)
O1 O 0.78007(14) 0.33965(18) 0.56550(12)
C1 C 0.7690(2) 0.3886(2) 0.60720(18)
C2 C 0.7500 0.2500 0.5000
C3 C 0.6994(2) 0.4536(2) 0.67363(17)
O2 O 0.57611(16) 0.44257(18) 0.67802(13)
C4 C 0.7034(2) 0.4066(2) 0.62810(17)
H1 H 0.6628 0.3877 0.6122
C5 C 0.72181(19) 0.3092(2) 0.53751(16)
H2 H 0.6980 0.3441 0.5145
H3 H 0.6887 0.2907 0.5650
C6 C 0.7602(2) 0.4811(3) 0.69742(18)
H4 H 0.7572 0.5114 0.7283
C7 C 0.8293(2) 0.4171(3) 0.63044(17)
H5 H 0.8730 0.4048 0.6157
C8 C 0.8254(2) 0.4636(2) 0.67524(18)
O3 O 0.4277(2) 0.4051(2) 0.63830(16)
C9 C 0.6282(2) 0.4692(2) 0.70094(17)
O4 O 0.62959(16) 0.50913(18) 0.74284(12)
C10 C 0.8924(3) 0.4884(3) 0.70296(18)
O5 O 0.94839(17) 0.47332(19) 0.67855(15)
O6 O 0.88604(17) 0.52290(18) 0.74847(13)
Zn3 Zn 0.54886(3) 0.52708(3) 0.796031(19)
Zn5 Zn 0.97292(3) 0.54886(3) 0.796031(19)
Zn7 Zn 0.45114(3) 0.02708(3) 0.703969(19)
Zn9 Zn 0.52708(3) 0.54886(3) 0.296031(19)
Zn12 Zn 0.47292(3) 0.04886(3) 0.203969(19)
Zn13 Zn 0.45114(3) 0.47292(3) 0.203969(19)
Zn16 Zn 0.95114(3) 0.52708(3) 0.296031(19)
O7 O 0.71993(14) 0.16035(18) 0.56550(12)
O8 O 0.66035(18) 0.28007(14) 0.43450(12)
O9 O 0.83965(18) 0.21993(14) 0.43450(12)
C11 C 0.7310(2) 0.1114(2) 0.60720(18)
C12 C 0.6114(2) 0.2690(2) 0.39280(18)
C13 C 0.8886(2) 0.2310(2) 0.39280(18)
C14 C 0.8006(2) 0.0464(2) 0.67363(17)
C15 C 0.5464(2) 0.1994(2) 0.32637(17)
C16 C 0.9536(2) 0.3006(2) 0.32637(17)
O10 O 0.92389(16) 0.05743(18) 0.67802(13)
O11 O 0.55743(18) 0.07611(16) 0.32198(13)
O12 O 0.94257(18) 0.42389(16) 0.32198(13)
O13 O 0.94257(18) 0.07611(16) 0.82198(13)
O14 O 0.55743(18) 0.42389(16) 0.82198(13)
C17 C 0.7966(2) 0.0934(2) 0.62810(17)
C18 C 0.5934(2) 0.2034(2) 0.37190(17)
C19 C 0.9066(2) 0.2966(2) 0.37190(17)
H6 H 0.8372 0.1123 0.6122
H7 H 0.6123 0.1628 0.3878
H8 H 0.8877 0.3372 0.3878
C20 C 0.77819(19) 0.1908(2) 0.53751(16)
C21 C 0.6908(2) 0.22181(19) 0.46249(16)
C22 C 0.8092(2) 0.27819(19) 0.46249(16)
H9 H 0.8020 0.1559 0.5145
H10 H 0.6559 0.1980 0.4855
H11 H 0.8441 0.3020 0.4855
H12 H 0.8113 0.2093 0.5650
H13 H 0.7093 0.1887 0.4350
H14 H 0.7907 0.3113 0.4350
C23 C 0.7398(2) 0.0189(3) 0.69742(18)
C24 C 0.5189(3) 0.2602(2) 0.30258(18)
C25 C 0.9811(3) 0.2398(2) 0.30258(18)
H16 H 0.4886 0.2572 0.2717
C26 C 0.6707(2) 0.0829(3) 0.63044(17)
C27 C 0.5829(3) 0.3293(2) 0.36956(17)
C28 C 0.9171(3) 0.1707(2) 0.36956(17)
H18 H 0.6270 0.0952 0.6157
H19 H 0.5952 0.3730 0.3843
H20 H 0.9048 0.1270 0.3843
C29 C 0.6746(2) 0.0364(2) 0.67524(18)
C30 C 0.5364(2) 0.3254(2) 0.32476(18)
C31 C 0.9636(2) 0.1746(2) 0.32476(18)
O16 O 0.5949(2) 0.5723(2) 0.86170(16)
C32 C 0.8718(2) 0.0308(2) 0.70094(17)
C33 C 0.5308(2) 0.1282(2) 0.29906(17)
C34 C 0.9692(2) 0.3718(2) 0.29906(17)
O19 O 0.49087(18) 0.12959(16) 0.25716(12)
O22 O 0.49087(18) 0.37041(16) 0.75716(12)
C35 C 0.6076(3) 0.0116(3) 0.70296(18)
C36 C 0.5116(3) 0.3924(3) 0.29704(18)
C37 C 0.9884(3) 0.1076(3) 0.29704(18)
O23 O 0.55161(17) 0.02668(19) 0.67855(15)
O24 O 0.52668(19) 0.44839(17) 0.32145(15)
O25 O 0.97332(19) 0.05161(17) 0.32145(15)
O26 O 0.44839(17) 0.52668(19) 0.82145(15)
O28 O 0.47332(19) 0.55161(17) 0.67855(15)
O31 O 0.47710(18) 0.38604(17) 0.25153(13)
O33 O 0.38604(17) 0.47710(18) 0.75153(13)
O35 O 0.52290(18) 0.61396(17) 0.74847(13)
Zn4 Zn 0.95114(3) 0.97292(3) 0.796031(19)
Zn6 Zn 0.52708(3) 0.95114(3) 0.796031(19)
Zn10 Zn 0.97292(3) 0.95114(3) 0.296031(19)
Zn15 Zn 0.54886(3) 0.97292(3) 0.296031(19)
H15 H 0.7428 0.9886 0.7283
O17 O 0.9051(2) 0.9277(2) 0.86170(16)
O18 O 0.87041(16) 0.99087(18) 0.74284(12)
O30 O 0.61396(17) 0.97710(18) 0.74847(13)
O36 O 0.97710(18) 0.88604(17) 0.74847(13)
H15_2 H 0.2428 0.0114 0.7717
O17_2 O 0.4051(2) 0.0723(2) 0.63830(16)
O18_2 O 0.37041(16) 0.00913(18) 0.75716(12)
O29_2 O 0.52668(19) 0.05161(17) 0.82145(15)
O36_2 O 0.47710(18) 0.11396(17) 0.75153(13)
C2_2 C 0.2500 0.7500 0.0000
O8_2 O 0.16035(18) 0.71993(14) 0.06550(12)
O9_2 O 0.33965(18) 0.78007(14) 0.06550(12)
C12_2 C 0.1114(2) 0.7310(2) 0.10720(18)
C13_2 C 0.3886(2) 0.7690(2) 0.10720(18)
C15_2 C 0.0464(2) 0.8006(2) 0.17363(17)
C16_2 C 0.4536(2) 0.6994(2) 0.17363(17)
O11_2 O 0.05743(18) 0.92389(16) 0.17802(13)
O12_2 O 0.44257(18) 0.57611(16) 0.17802(13)
C18_2 C 0.0934(2) 0.7966(2) 0.12810(17)
C19_2 C 0.4066(2) 0.7034(2) 0.12810(17)
H7_2 H 0.1123 0.8372 0.1122
H8_2 H 0.3877 0.6628 0.1122
C21_2 C 0.1908(2) 0.77819(19) 0.03751(16)
C22_2 C 0.3092(2) 0.72181(19) 0.03751(16)
H10_2 H 0.1559 0.8020 0.0145
H11_2 H 0.3441 0.6980 0.0145
H13_2 H 0.2093 0.8113 0.0650
H14_2 H 0.2907 0.6887 0.0650
C24_2 C 0.0189(3) 0.7398(2) 0.19742(18)
C25_2 C 0.4811(3) 0.7602(2) 0.19742(18)
H17_2 H 0.5114 0.7572 0.2283
C27_2 C 0.0829(3) 0.6707(2) 0.13044(17)
C28_2 C 0.4171(3) 0.8293(2) 0.13044(17)
H19_2 H 0.0952 0.6270 0.1157
H20_2 H 0.4048 0.8730 0.1157
C30_2 C 0.0364(2) 0.6746(2) 0.17524(18)
C31_2 C 0.4636(2) 0.8254(2) 0.17524(18)
C33_2 C 0.0308(2) 0.8718(2) 0.20094(17)
C34_2 C 0.4692(2) 0.6282(2) 0.20094(17)
O20_2 O 0.50913(18) 0.62959(16) 0.24284(12)
C36_2 C 0.0116(3) 0.6076(3) 0.20296(18)
C37_2 C 0.4884(3) 0.8924(3) 0.20296(18)
O24_2 O 0.02668(19) 0.55161(17) 0.17855(15)
O25_2 O 0.47332(19) 0.94839(17) 0.17855(15)
O32_2 O 0.52290(18) 0.88604(17) 0.24847(13)
O1_2 O 0.28007(14) 0.66035(18) 0.93450(12)
C1_2 C 0.2690(2) 0.6114(2) 0.89280(18)
C2_3 C 0.2500 0.7500 1.0000
C3_2 C 0.1994(2) 0.5464(2) 0.82637(17)
O2_2 O 0.07611(16) 0.55743(18) 0.82198(13)
C4_2 C 0.2034(2) 0.5934(2) 0.87190(17)
H1_2 H 0.1628 0.6123 0.8878
C5_2 C 0.22181(19) 0.6908(2) 0.96249(16)
H2_2 H 0.1980 0.6559 0.9855
H3_2 H 0.1887 0.7093 0.9350
C6_2 C 0.2602(2) 0.5189(3) 0.80258(18)
H4_2 H 0.2572 0.4886 0.7717
C7_2 C 0.3293(2) 0.5829(3) 0.86956(17)
H5_2 H 0.3730 0.5952 0.8843
C8_2 C 0.3254(2) 0.5364(2) 0.82476(18)
C9_2 C 0.1282(2) 0.5308(2) 0.79906(17)
O4_2 O 0.12959(16) 0.49087(18) 0.75716(12)
C10_2 C 0.3924(3) 0.5116(3) 0.79704(18)
O7_2 O 0.21993(14) 0.83965(18) 0.93450(12)
C11_2 C 0.2310(2) 0.8886(2) 0.89280(18)
C14_2 C 0.3006(2) 0.9536(2) 0.82637(17)
O10_2 O 0.42389(16) 0.94257(18) 0.82198(13)
O13_2 O 0.44257(18) 0.92389(16) 0.67802(13)
O14_2 O 0.05743(18) 0.57611(16) 0.67802(13)
C17_2 C 0.2966(2) 0.9066(2) 0.87190(17)
H6_2 H 0.3372 0.8877 0.8878
C20_2 C 0.27819(19) 0.8092(2) 0.96249(16)
H9_2 H 0.3020 0.8441 0.9855
H12_2 H 0.3113 0.7907 0.9350
C23_2 C 0.2398(2) 0.9811(3) 0.80258(18)
C26_2 C 0.1707(2) 0.9171(3) 0.86956(17)
H18_2 H 0.1270 0.9048 0.8843
C29_2 C 0.1746(2) 0.9636(2) 0.82476(18)
O15_2 O 0.5723(2) 0.9051(2) 0.86170(16)
O16_2 O 0.0949(2) 0.4277(2) 0.63830(16)
C32_2 C 0.3718(2) 0.9692(2) 0.79906(17)
O21_2 O 0.50913(18) 0.87041(16) 0.74284(12)
C35_2 C 0.1076(3) 0.9884(3) 0.79704(18)
O35_2 O 0.02290(18) 0.38604(17) 0.75153(13)
H16_2 H 0.9886 0.7428 0.2283
O19_2 O 0.99087(18) 0.87041(16) 0.24284(12)
O31_2 O 0.97710(18) 0.61396(17) 0.24847(13)
O3_2 O 0.9277(2) 0.5949(2) 0.86170(16)
O22_2 O 0.99087(18) 0.62959(16) 0.74284(12)
O28_2 O 0.97332(19) 0.44839(17) 0.82145(15)
H15_3 H 0.0114 0.2572 0.7717
C2_4 C 0.7500 0.2500 0.0000
O8_3 O 0.71993(14) 0.33965(18) 0.06550(12)
O9_3 O 0.78007(14) 0.16035(18) 0.06550(12)
C12_3 C 0.7310(2) 0.3886(2) 0.10720(18)
C13_3 C 0.7690(2) 0.1114(2) 0.10720(18)
C15_3 C 0.8006(2) 0.4536(2) 0.17363(17)
C16_3 C 0.6994(2) 0.0464(2) 0.17363(17)
O11_3 O 0.92389(16) 0.44257(18) 0.17802(13)
O12_3 O 0.57611(16) 0.05743(18) 0.17802(13)
C18_3 C 0.7966(2) 0.4066(2) 0.12810(17)
C19_3 C 0.7034(2) 0.0934(2) 0.12810(17)
H7_3 H 0.8372 0.3877 0.1122
H8_3 H 0.6628 0.1123 0.1122
C21_3 C 0.77819(19) 0.3092(2) 0.03751(16)
C22_3 C 0.72181(19) 0.1908(2) 0.03751(16)
H10_3 H 0.8020 0.3441 0.0145
H11_3 H 0.6980 0.1559 0.0145
H13_3 H 0.8113 0.2907 0.0650
H14_3 H 0.6887 0.2093 0.0650
C24_3 C 0.7398(2) 0.4811(3) 0.19742(18)
C25_3 C 0.7602(2) 0.0189(3) 0.19742(18)
H16_3 H 0.7428 0.5114 0.2283
C27_3 C 0.6707(2) 0.4171(3) 0.13044(17)
C28_3 C 0.8293(2) 0.0829(3) 0.13044(17)
H19_3 H 0.6270 0.4048 0.1157
H20_3 H 0.8730 0.0952 0.1157
C30_3 C 0.6746(2) 0.4636(2) 0.17524(18)
C31_3 C 0.8254(2) 0.0364(2) 0.17524(18)
C33_3 C 0.8718(2) 0.4692(2) 0.20094(17)
C34_3 C 0.6282(2) 0.0308(2) 0.20094(17)
O19_3 O 0.87041(16) 0.50913(18) 0.24284(12)
C36_3 C 0.6076(3) 0.4884(3) 0.20296(18)
C37_3 C 0.8924(3) 0.0116(3) 0.20296(18)
O24_3 O 0.55161(17) 0.47332(19) 0.17855(15)
O25_3 O 0.94839(17) 0.02668(19) 0.17855(15)
O31_3 O 0.61396(17) 0.52290(18) 0.24847(13)
O1_3 O 0.66035(18) 0.21993(14) 0.93450(12)
C1_3 C 0.6114(2) 0.2310(2) 0.89280(18)
C2_5 C 0.7500 0.2500 1.0000
C3_3 C 0.5464(2) 0.3006(2) 0.82637(17)
C4_3 C 0.5934(2) 0.2966(2) 0.87190(17)
H1_3 H 0.6123 0.3372 0.8878
C5_3 C 0.6908(2) 0.27819(19) 0.96249(16)
H2_3 H 0.6559 0.3020 0.9855
H3_3 H 0.7093 0.3113 0.9350
C6_3 C 0.5189(3) 0.2398(2) 0.80258(18)
H4_3 H 0.4886 0.2428 0.7717
C7_3 C 0.5829(3) 0.1707(2) 0.86956(17)
H5_3 H 0.5952 0.1270 0.8843
C8_3 C 0.5364(2) 0.1746(2) 0.82476(18)
C9_3 C 0.5308(2) 0.3718(2) 0.79906(17)
C10_3 C 0.5116(3) 0.1076(3) 0.79704(18)
O7_3 O 0.83965(18) 0.28007(14) 0.93450(12)
C11_3 C 0.8886(2) 0.2690(2) 0.89280(18)
C14_3 C 0.9536(2) 0.1994(2) 0.82637(17)
C17_3 C 0.9066(2) 0.2034(2) 0.87190(17)
H6_3 H 0.8877 0.1628 0.8878
C20_3 C 0.8092(2) 0.22181(19) 0.96249(16)
H9_3 H 0.8441 0.1980 0.9855
H12_3 H 0.7907 0.1887 0.9350
C23_3 C 0.9811(3) 0.2602(2) 0.80258(18)
C26_3 C 0.9171(3) 0.3293(2) 0.86956(17)
H18_3 H 0.9048 0.3730 0.8843
C29_3 C 0.9636(2) 0.3254(2) 0.82476(18)
C32_3 C 0.9692(2) 0.1282(2) 0.79906(17)
C35_3 C 0.9884(3) 0.3924(3) 0.79704(18)
H17_3 H 0.7572 0.9886 0.2283
O20_3 O 0.62959(16) 0.99087(18) 0.24284(12)
O32_3 O 0.88604(17) 0.97710(18) 0.24847(13)
H16_4 H 0.2572 0.0114 0.2717
O19_4 O 0.12959(16) 0.00913(18) 0.25716(12)
O31_4 O 0.38604(17) 0.02290(18) 0.25153(13)
O1_4 O 0.33965(18) 0.71993(14) 0.56550(12)
C1_4 C 0.3886(2) 0.7310(2) 0.60720(18)
C2_6 C 0.2500 0.7500 0.5000
C3_4 C 0.4536(2) 0.8006(2) 0.67363(17)
C4_4 C 0.4066(2) 0.7966(2) 0.62810(17)
H1_4 H 0.3877 0.8372 0.6122
C5_4 C 0.3092(2) 0.77819(19) 0.53751(16)
H2_4 H 0.3441 0.8020 0.5145
H3_4 H 0.2907 0.8113 0.5650
C6_4 C 0.4811(3) 0.7398(2) 0.69742(18)
H4_4 H 0.5114 0.7428 0.7283
C7_4 C 0.4171(3) 0.6707(2) 0.63044(17)
H5_4 H 0.4048 0.6270 0.6157
C8_4 C 0.4636(2) 0.6746(2) 0.67524(18)
C9_4 C 0.4692(2) 0.8718(2) 0.70094(17)
C10_4 C 0.4884(3) 0.6076(3) 0.70296(18)
O7_4 O 0.16035(18) 0.78007(14) 0.56550(12)
O8_4 O 0.28007(14) 0.83965(18) 0.43450(12)
O9_4 O 0.21993(14) 0.66035(18) 0.43450(12)
C11_4 C 0.1114(2) 0.7690(2) 0.60720(18)
C12_4 C 0.2690(2) 0.8886(2) 0.39280(18)
C13_4 C 0.2310(2) 0.6114(2) 0.39280(18)
C14_4 C 0.0464(2) 0.6994(2) 0.67363(17)
C15_4 C 0.1994(2) 0.9536(2) 0.32637(17)
C16_4 C 0.3006(2) 0.5464(2) 0.32637(17)
O11_4 O 0.07611(16) 0.94257(18) 0.32198(13)
O12_4 O 0.42389(16) 0.55743(18) 0.32198(13)
C17_4 C 0.0934(2) 0.7034(2) 0.62810(17)
C18_4 C 0.2034(2) 0.9066(2) 0.37190(17)
C19_4 C 0.2966(2) 0.5934(2) 0.37190(17)
H6_4 H 0.1123 0.6628 0.6122
H7_4 H 0.1628 0.8877 0.3878
H8_4 H 0.3372 0.6123 0.3878
C20_4 C 0.1908(2) 0.72181(19) 0.53751(16)
C21_4 C 0.22181(19) 0.8092(2) 0.46249(16)
C22_4 C 0.27819(19) 0.6908(2) 0.46249(16)
H9_4 H 0.1559 0.6980 0.5145
H10_4 H 0.1980 0.8441 0.4855
H11_4 H 0.3020 0.6559 0.4855
H12_4 H 0.2093 0.6887 0.5650
H13_4 H 0.1887 0.7907 0.4350
H14_4 H 0.3113 0.7093 0.4350
C23_4 C 0.0189(3) 0.7602(2) 0.69742(18)
C24_4 C 0.2602(2) 0.9811(3) 0.30258(18)
C25_4 C 0.2398(2) 0.5189(3) 0.30258(18)
H17_4 H 0.2428 0.4886 0.2717
C26_4 C 0.0829(3) 0.8293(2) 0.63044(17)
C27_4 C 0.3293(2) 0.9171(3) 0.36956(17)
C28_4 C 0.1707(2) 0.5829(3) 0.36956(17)
H18_4 H 0.0952 0.8730 0.6157
H19_4 H 0.3730 0.9048 0.3843
H20_4 H 0.1270 0.5952 0.3843
C29_4 C 0.0364(2) 0.8254(2) 0.67524(18)
C30_4 C 0.3254(2) 0.9636(2) 0.32476(18)
C31_4 C 0.1746(2) 0.5364(2) 0.32476(18)
C32_4 C 0.0308(2) 0.6282(2) 0.70094(17)
C33_4 C 0.1282(2) 0.9692(2) 0.29906(17)
C34_4 C 0.3718(2) 0.5308(2) 0.29906(17)
O20_4 O 0.37041(16) 0.49087(18) 0.25716(12)
C35_4 C 0.0116(3) 0.8924(3) 0.70296(18)
C36_4 C 0.3924(3) 0.9884(3) 0.29704(18)
C37_4 C 0.1076(3) 0.5116(3) 0.29704(18)
O24_4 O 0.44839(17) 0.97332(19) 0.32145(15)
O25_4 O 0.05161(17) 0.52668(19) 0.32145(15)
O32_4 O 0.11396(17) 0.47710(18) 0.25153(13)
H15_4 H 0.9886 0.7572 0.7283
O17_3 O 0.0949(2) 0.0723(2) 0.13830(16)
O3_3 O 0.5723(2) 0.5949(2) 0.36170(16)
O16_3 O 0.4051(2) 0.4277(2) 0.13830(16)
O15_3 O 0.9277(2) 0.9051(2) 0.36170(16)
O3_4 O 0.0723(2) 0.4051(2) 0.13830(16)
O15_4 O 0.4277(2) 0.0949(2) 0.13830(16)
O16_4 O 0.9051(2) 0.5723(2) 0.36170(16)
O17_4 O 0.5949(2) 0.9277(2) 0.36170(16)
loop_
_geom_bond_atom_site_label_1
_geom_bond_atom_site_label_2
_geom_bond_site_symmetry_1
_geom_bond_site_symmetry_2
Zn11 O20 1_555 1_555
Zn14 O32 1_555 1_555
O15 Zn2 1_555 1_555
O21 Zn2 1_555 1_555
O34 Zn2 1_555 1_555
Zn1 O2 1_555 1_555
O1 C1 1_555 1_555
C1 C4 1_555 1_555
C2 C5 1_555 1_555
C3 C4 1_555 1_555
O2 C9 1_555 1_555
C4 H1 1_555 1_555
C5 O1 1_555 1_555
H2 C5 1_555 1_555
H3 C5 1_555 1_555
C6 C3 1_555 1_555
H4 C6 1_555 1_555
C7 C1 1_555 1_555
H5 C7 1_555 1_555
C8 C6 1_555 1_555
O3 Zn1 1_555 1_555
C9 C3 1_555 1_555
O4 C9 1_555 1_555
C10 C8 1_555 1_555
O5 C10 1_555 1_555
O6 C10 1_555 1_555
Zn3 O4 1_555 1_555
Zn5 O6 1_555 1_555
Zn7 O23 1_555 1_555
Zn9 O24 1_555 1_555
Zn12 O19 1_555 1_555
Zn13 O31 1_555 1_555
Zn16 O12 1_555 1_555
O7 C11 1_555 1_555
O8 C12 1_555 1_555
O9 C13 1_555 1_555
C11 C17 1_555 1_555
C12 C18 1_555 1_555
C13 C19 1_555 1_555
C14 C17 1_555 1_555
C15 C18 1_555 1_555
C16 C19 1_555 1_555
O10 C32 1_555 1_555
O11 C33 1_555 1_555
O12 C34 1_555 1_555
O14 Zn3 1_555 1_555
C17 H6 1_555 1_555
C18 H7 1_555 1_555
C19 H8 1_555 1_555
C20 C2 1_555 1_555
C21 C2 1_555 1_555
C22 C2 1_555 1_555
H9 C20 1_555 1_555
H10 C21 1_555 1_555
H11 C22 1_555 1_555
H12 C20 1_555 1_555
H13 C21 1_555 1_555
H14 C22 1_555 1_555
C23 C14 1_555 1_555
C24 C15 1_555 1_555
C25 C16 1_555 1_555
H16 C24 1_555 1_555
C26 C11 1_555 1_555
C27 C12 1_555 1_555
C28 C13 1_555 1_555
H18 C26 1_555 1_555
H19 C27 1_555 1_555
H20 C28 1_555 1_555
C29 C23 1_555 1_555
C30 C24 1_555 1_555
C31 C25 1_555 1_555
O16 Zn3 1_555 1_555
C32 C14 1_555 1_555
C33 C15 1_555 1_555
C34 C16 1_555 1_555
O19 C33 1_555 1_555
O22 Zn1 1_555 1_555
C35 C29 1_555 1_555
C36 C30 1_555 1_555
C37 C31 1_555 1_555
O23 C35 1_555 1_555
O24 C36 1_555 1_555
O25 C37 1_555 1_555
O26 Zn3 1_555 1_555
O28 Zn1 1_555 1_555
O31 C36 1_555 1_555
O33 Zn1 1_555 1_555
O35 Zn3 1_555 1_555
C7 C8 1_555 1_555
O7 C20 1_555 1_555
O8 C21 1_555 1_555
O9 C22 1_555 1_555
C26 C29 1_555 1_555
C27 C30 1_555 1_555
C28 C31 1_555 1_555
Zn6 O30 1_555 1_555
O17 Zn4 1_555 1_555
O18 Zn4 1_555 1_555
O36 Zn4 1_555 1_555
O17_2 Zn7 1_555 1_555
O18_2 Zn7 1_555 1_555
O36_2 Zn7 1_555 1_555
Zn11 O24_2 1_555 1_555
Zn9 O20_2 1_555 1_555
Zn15 O32_2 1_555 1_555
Zn13 O12_2 1_555 1_555
O8_2 C12_2 1_555 1_555
O9_2 C13_2 1_555 1_555
C12_2 C18_2 1_555 1_555
C13_2 C19_2 1_555 1_555
C15_2 C18_2 1_555 1_555
C16_2 C19_2 1_555 1_555
O11_2 C33_2 1_555 1_555
O12_2 C34_2 1_555 1_555
C18_2 H7_2 1_555 1_555
C19_2 H8_2 1_555 1_555
C21_2 C2_2 1_555 1_555
C22_2 C2_2 1_555 1_555
H10_2 C21_2 1_555 1_555
H11_2 C22_2 1_555 1_555
H13_2 C21_2 1_555 1_555
H14_2 C22_2 1_555 1_555
C24_2 C15_2 1_555 1_555
C25_2 C16_2 1_555 1_555
H17_2 C25_2 1_555 1_555
C27_2 C12_2 1_555 1_555
C28_2 C13_2 1_555 1_555
H19_2 C27_2 1_555 1_555
H20_2 C28_2 1_555 1_555
C30_2 C24_2 1_555 1_555
C31_2 C25_2 1_555 1_555
C33_2 C15_2 1_555 1_555
C34_2 C16_2 1_555 1_555
O20_2 C34_2 1_555 1_555
C36_2 C30_2 1_555 1_555
C37_2 C31_2 1_555 1_555
O24_2 C36_2 1_555 1_555
O25_2 C37_2 1_555 1_555
O32_2 C37_2 1_555 1_555
O8_2 C21_2 1_555 1_555
O9_2 C22_2 1_555 1_555
C27_2 C30_2 1_555 1_555
C28_2 C31_2 1_555 1_555
O1_2 C1_2 1_555 1_555
C1_2 C4_2 1_555 1_555
C2_3 C5_2 1_555 1_555
C3_2 C4_2 1_555 1_555
O2_2 C9_2 1_555 1_555
C4_2 H1_2 1_555 1_555
C5_2 O1_2 1_555 1_555
H2_2 C5_2 1_555 1_555
H3_2 C5_2 1_555 1_555
C6_2 C3_2 1_555 1_555
H4_2 C6_2 1_555 1_555
C7_2 C1_2 1_555 1_555
H5_2 C7_2 1_555 1_555
C8_2 C6_2 1_555 1_555
C9_2 C3_2 1_555 1_555
O4_2 C9_2 1_555 1_555
C10_2 C8_2 1_555 1_555
O26 C10_2 1_555 1_555
O33 C10_2 1_555 1_555
Zn6 O10_2 1_555 1_555
Zn8 O4_2 1_555 1_555
O7_2 C11_2 1_555 1_555
C11_2 C17_2 1_555 1_555
C14_2 C17_2 1_555 1_555
O10_2 C32_2 1_555 1_555
O14_2 Zn8 1_555 1_555
C17_2 H6_2 1_555 1_555
C20_2 C2_3 1_555 1_555
H9_2 C20_2 1_555 1_555
H12_2 C20_2 1_555 1_555
C23_2 C14_2 1_555 1_555
C26_2 C11_2 1_555 1_555
H18_2 C26_2 1_555 1_555
C29_2 C23_2 1_555 1_555
O15_2 Zn6 1_555 1_555
O16_2 Zn8 1_555 1_555
C32_2 C14_2 1_555 1_555
O21_2 Zn6 1_555 1_555
C35_2 C29_2 1_555 1_555
O27 C35_2 1_555 1_555
O35_2 Zn8 1_555 1_555
C7_2 C8_2 1_555 1_555
O7_2 C20_2 1_555 1_555
C26_2 C29_2 1_555 1_555
Zn10 O19_2 1_555 1_555
Zn16 O31_2 1_555 1_555
O3_2 Zn5 1_555 1_555
O22_2 Zn5 1_555 1_555
O28_2 Zn5 1_555 1_555
Zn13 O24_3 1_555 1_555
Zn16 O19_3 1_555 1_555
Zn9 O31_3 1_555 1_555
Zn12 O12_3 1_555 1_555
O8_3 C12_3 1_555 1_555
O9_3 C13_3 1_555 1_555
C12_3 C18_3 1_555 1_555
C13_3 C19_3 1_555 1_555
C15_3 C18_3 1_555 1_555
C16_3 C19_3 1_555 1_555
O11_3 C33_3 1_555 1_555
O12_3 C34_3 1_555 1_555
C18_3 H7_3 1_555 1_555
C19_3 H8_3 1_555 1_555
C21_3 C2_4 1_555 1_555
C22_3 C2_4 1_555 1_555
H10_3 C21_3 1_555 1_555
H11_3 C22_3 1_555 1_555
H13_3 C21_3 1_555 1_555
H14_3 C22_3 1_555 1_555
C24_3 C15_3 1_555 1_555
C25_3 C16_3 1_555 1_555
H16_3 C24_3 1_555 1_555
C27_3 C12_3 1_555 1_555
C28_3 C13_3 1_555 1_555
H19_3 C27_3 1_555 1_555
H20_3 C28_3 1_555 1_555
C30_3 C24_3 1_555 1_555
C31_3 C25_3 1_555 1_555
C33_3 C15_3 1_555 1_555
C34_3 C16_3 1_555 1_555
O19_3 C33_3 1_555 1_555
C36_3 C30_3 1_555 1_555
C37_3 C31_3 1_555 1_555
O24_3 C36_3 1_555 1_555
O25_3 C37_3 1_555 1_555
O31_3 C36_3 1_555 1_555
O8_3 C21_3 1_555 1_555
O9_3 C22_3 1_555 1_555
C27_3 C30_3 1_555 1_555
C28_3 C31_3 1_555 1_555
O1_3 C1_3 1_555 1_555
C1_3 C4_3 1_555 1_555
C2_5 C5_3 1_555 1_555
C3_3 C4_3 1_555 1_555
O14 C9_3 1_555 1_555
C4_3 H1_3 1_555 1_555
C5_3 O1_3 1_555 1_555
H2_3 C5_3 1_555 1_555
H3_3 C5_3 1_555 1_555
C6_3 C3_3 1_555 1_555
H4_3 C6_3 1_555 1_555
C7_3 C1_3 1_555 1_555
H5_3 C7_3 1_555 1_555
C8_3 C6_3 1_555 1_555
C9_3 C3_3 1_555 1_555
O22 C9_3 1_555 1_555
C10_3 C8_3 1_555 1_555
O29_2 C10_3 1_555 1_555
O36_2 C10_3 1_555 1_555
O7_3 C11_3 1_555 1_555
C11_3 C17_3 1_555 1_555
C14_3 C17_3 1_555 1_555
O13 C32_3 1_555 1_555
C17_3 H6_3 1_555 1_555
C20_3 C2_5 1_555 1_555
H9_3 C20_3 1_555 1_555
H12_3 C20_3 1_555 1_555
C23_3 C14_3 1_555 1_555
C26_3 C11_3 1_555 1_555
H18_3 C26_3 1_555 1_555
C29_3 C23_3 1_555 1_555
C32_3 C14_3 1_555 1_555
C35_3 C29_3 1_555 1_555
O28_2 C35_3 1_555 1_555
C7_3 C8_3 1_555 1_555
O7_3 C20_3 1_555 1_555
C26_3 C29_3 1_555 1_555
Zn15 O20_3 1_555 1_555
Zn10 O32_3 1_555 1_555
Zn14 O19_4 1_555 1_555
Zn12 O31_4 1_555 1_555
O1_4 C1_4 1_555 1_555
C1_4 C4_4 1_555 1_555
C2_6 C5_4 1_555 1_555
C3_4 C4_4 1_555 1_555
O13_2 C9_4 1_555 1_555
C4_4 H1_4 1_555 1_555
C5_4 O1_4 1_555 1_555
H2_4 C5_4 1_555 1_555
H3_4 C5_4 1_555 1_555
C6_4 C3_4 1_555 1_555
H4_4 C6_4 1_555 1_555
C7_4 C1_4 1_555 1_555
H5_4 C7_4 1_555 1_555
C8_4 C6_4 1_555 1_555
C9_4 C3_4 1_555 1_555
O21_2 C9_4 1_555 1_555
C10_4 C8_4 1_555 1_555
O28 C10_4 1_555 1_555
O35 C10_4 1_555 1_555
Zn15 O24_4 1_555 1_555
Zn13 O20_4 1_555 1_555
Zn11 O32_4 1_555 1_555
Zn9 O12_4 1_555 1_555
O7_4 C11_4 1_555 1_555
O8_4 C12_4 1_555 1_555
O9_4 C13_4 1_555 1_555
C11_4 C17_4 1_555 1_555
C12_4 C18_4 1_555 1_555
C13_4 C19_4 1_555 1_555
C14_4 C17_4 1_555 1_555
C15_4 C18_4 1_555 1_555
C16_4 C19_4 1_555 1_555
O14_2 C32_4 1_555 1_555
O11_4 C33_4 1_555 1_555
O12_4 C34_4 1_555 1_555
C17_4 H6_4 1_555 1_555
C18_4 H7_4 1_555 1_555
C19_4 H8_4 1_555 1_555
C20_4 C2_6 1_555 1_555
C21_4 C2_6 1_555 1_555
C22_4 C2_6 1_555 1_555
H9_4 C20_4 1_555 1_555
H10_4 C21_4 1_555 1_555
H11_4 C22_4 1_555 1_555
H12_4 C20_4 1_555 1_555
H13_4 C21_4 1_555 1_555
H14_4 C22_4 1_555 1_555
C23_4 C14_4 1_555 1_555
C24_4 C15_4 1_555 1_555
C25_4 C16_4 1_555 1_555
H17_4 C25_4 1_555 1_555
C26_4 C11_4 1_555 1_555
C27_4 C12_4 1_555 1_555
C28_4 C13_4 1_555 1_555
H18_4 C26_4 1_555 1_555
H19_4 C27_4 1_555 1_555
H20_4 C28_4 1_555 1_555
C29_4 C23_4 1_555 1_555
C30_4 C24_4 1_555 1_555
C31_4 C25_4 1_555 1_555
C32_4 C14_4 1_555 1_555
C33_4 C15_4 1_555 1_555
C34_4 C16_4 1_555 1_555
O20_4 C34_4 1_555 1_555
C35_4 C29_4 1_555 1_555
C36_4 C30_4 1_555 1_555
C37_4 C31_4 1_555 1_555
O29 C35_4 1_555 1_555
O24_4 C36_4 1_555 1_555
O25_4 C37_4 1_555 1_555
O32_4 C37_4 1_555 1_555
C7_4 C8_4 1_555 1_555
O7_4 C20_4 1_555 1_555
O8_4 C21_4 1_555 1_555
O9_4 C22_4 1_555 1_555
C26_4 C29_4 1_555 1_555
C27_4 C30_4 1_555 1_555
C28_4 C31_4 1_555 1_555
O17_3 Zn14 1_555 1_555
O3_3 Zn9 1_555 1_555
O16_3 Zn13 1_555 1_555
O15_3 Zn10 1_555 1_555
O3_4 Zn11 1_555 1_555
O15_4 Zn12 1_555 1_555
O16_4 Zn16 1_555 1_555
O17_4 Zn15 1_555 1_555

#END
