
###############################################################################
#
# This file contains modified crystal structure data generated from the
# MOF subset of the Cambridge Structural Database (CSD) v543 
# hosted by the Cambridge Crystallographic Data Centre (CCDC).
#
# This work is licensed under the Creative Commons
# Attribution-NonCommercial-ShareAlike 4.0 International License.
# To view a copy of this license, visit
# http://creativecommons.org/licenses/by-nc-sa/4.0/
# or send a letter to
# Creative Commons, PO Box 1866, Mountain View, CA 94042, USA.
#
# CIF created using the CSD Python API on 29 September 2022
# The structure has been converted into the P1 space group
# The structure has a 3D framework
# The original CSD entry WEHJIE is in the orthorhombic crystal system
# The framework has been calculated to contain at least 10.0% void space
# The void calculation uses a probe of radius 1.32A, grid spacing 0.4
# H atom positions have been added when not included in the experimental data
#
###############################################################################

data_WEHJIE
_chemical_formula_moiety         '(C392 H408 N16 O194 Zn34)n'
_symmetry_cell_setting           triclinic
_symmetry_space_group_name_H-M   'P 1'
_symmetry_Int_Tables_number      1
_space_group_name_Hall           'P 1'
loop_
_symmetry_equiv_pos_site_id
_symmetry_equiv_pos_as_xyz
1 x,y,z
_cell_length_a                   30.4640(13)
_cell_length_b                   31.0040(13)
_cell_length_c                   18.9020(8)
_cell_angle_alpha                90
_cell_angle_beta                 90
_cell_angle_gamma                90
_cell_volume                     17853
loop_
_atom_site_label
_atom_site_type_symbol
_atom_site_fract_x
_atom_site_fract_y
_atom_site_fract_z
C76 C 0.1479(9) 0.4208(11) 0.0432(11)
H86 H 0.141267 0.354563 0.00954449
H91 H 0.112976 0.424644 0.0537487
H92 H 0.164867 0.412718 0.0921466
H93 H 0.161061 0.450811 0.0220771
Zn2 Zn 0.05412(2) 0.49339(2) 0.15056(4)
Zn4 Zn 0.20067(3) 0.26288(3) 0.65261(5)
Zn6 Zn 0.20577(3) 0.35706(3) 0.74682(5)
Zn7 Zn 0.29144(4) 0.71500(3) 0.69932(6)
Zn8 Zn 0.25594(3) 0.81955(3) 0.67130(5)
Zn9 Zn 0.29430(3) 0.32153(4) 0.66641(6)
C1 C 0.0078(2) 0.0382(3) 0.5976(4)
C2 C 0.4172(3) 0.4886(3) 0.2351(4)
C3 C 0.0126(3) 0.0439(3) 0.3300(4)
C4 C 0.0070(2) 0.0633(2) 0.5302(4)
C5 C 0.0027(2) 0.1073(2) 0.5329(4)
H1 H 0.0005 0.1214 0.5762
C6 C 0.0015(2) 0.1302(2) 0.4701(4)
C7 C 0.0029(2) 0.1104(3) 0.4029(4)
C8 C 0.0108(2) 0.0663(2) 0.4005(4)
C9 C 0.0106(2) 0.0416(3) 0.4645(4)
H3 H 0.0127 0.0117 0.4630
H5 H 0.0216 0.2018 0.3927
C13 C 0.0108(3) 0.2639(2) 0.4939(4)
H8 H 0.0113 0.2443 0.5339
H9 H 0.0403 0.2662 0.4749
C14 C 0.0194(3) 0.3273(3) 0.5650(4)
C15 C 0.0024(3) 0.3677(3) 0.5857(4)
C16 C 0.0261(3) 0.3943(2) 0.6326(4)
C17 C 0.0652(2) 0.3793(2) 0.6591(4)
H11 H 0.0806 0.3961 0.6914
C18 C 0.0822(2) 0.3393(2) 0.6386(4)
C19 C 0.0605(3) 0.3133(3) 0.5925(4)
H12 H 0.0723 0.2868 0.5791
C20 C 0.1248(2) 0.3247(2) 0.6659(4)
C21 C 0.0438(3) 0.2968(3) 0.2929(5)
C22 C 0.0814(3) 0.2807(3) 0.2657(5)
H13 H 0.0904 0.2527 0.2758
C23 C 0.1050(2) 0.3063(2) 0.2240(4)
C24 C 0.0904(3) 0.3467(3) 0.2078(4)
H14 H 0.1072 0.3643 0.1786
C25 C 0.0512(2) 0.3618(2) 0.2338(4)
C26 C 0.0263(3) 0.3355(3) 0.2751(4)
C27 C 0.1497(3) 0.2915(3) 0.1982(5)
C28 C 0.0348(3) 0.4071(3) 0.2148(4)
C29 C 0.0271(3) 0.5316(3) 0.5714(5)
C30 C 0.0056(3) 0.4362(2) 0.6552(4)
C31 C 0.0443(3) 0.5086(2) 0.3091(4)
C32 C 0.0637(2) 0.5214(2) 0.3795(4)
C33 C 0.0367(3) 0.5220(2) 0.4388(4)
H16 H 0.0072 0.5149 0.4351
C34 C 0.0552(3) 0.5339(2) 0.5057(4)
C35 C 0.0994(3) 0.5463(3) 0.5096(4)
H17 H 0.1112 0.5555 0.5524
C36 C 0.1254(2) 0.5448(2) 0.4500(4)
C37 C 0.1089(2) 0.5327(2) 0.3863(4)
H18 H 0.1271 0.5319 0.3469
C38 C 0.2021(2) 0.5476(2) 0.4098(4)
H19 H 0.1990 0.5660 0.3686
H20 H 0.1992 0.5178 0.3948
C39 C 0.2462(2) 0.5546(2) 0.4442(4)
C40 C 0.2839(2) 0.5445(2) 0.3874(4)
H21 H 0.2839 0.5661 0.3502
H22 H 0.3125 0.5444 0.4100
C41 C 0.2511(2) 0.5243(2) 0.5064(4)
H23 H 0.2284 0.5301 0.5410
H24 H 0.2481 0.4947 0.4905
C42 C 0.3066(3) 0.5045(2) 0.5957(4)
C43 C 0.3481(3) 0.5097(3) 0.6205(4)
H25 H 0.3651 0.5316 0.6010
C44 C 0.3668(2) 0.4845(2) 0.6730(4)
C45 C 0.3415(2) 0.4523(2) 0.7021(4)
H26 H 0.3535 0.4339 0.7359
C46 C 0.2964(2) 0.4472(2) 0.6801(4)
C47 C 0.2790(3) 0.4743(2) 0.6281(4)
H27 H 0.2496 0.4723 0.6152
C48 C 0.4126(3) 0.4900(3) 0.6971(4)
C49 C 0.2687(3) 0.4108(3) 0.7085(4)
C59 C 0.3022(3) 0.4864(2) 0.3100(4)
C60 C 0.3446(2) 0.4998(2) 0.2987(4)
H33 H 0.3564 0.5231 0.3231
C61 C 0.3702(2) 0.4760(2) 0.2469(4)
C62 C 0.3539(3) 0.4396(3) 0.2147(5)
H34 H 0.3718 0.4236 0.1845
C63 C 0.3093(2) 0.4259(2) 0.2274(4)
C64 C 0.2860(3) 0.4493(3) 0.2774(4)
H35 H 0.2581 0.4398 0.2899
C65 C 0.2923(3) 0.3878(3) 0.1938(5)
C66 C 0.2546(3) 0.7567(3) 0.5682(5)
C67 C 0.2613(2) 0.7621(2) 0.4358(4)
H36 H 0.2650 0.7917 0.4403
C68 C 0.2613(3) 0.7433(3) 0.3702(4)
C69 C 0.2712(3) 0.7693(3) 0.3065(5)
C70 C 0.2588(2) 0.6993(2) 0.3638(4)
H37 H 0.2609 0.6863 0.3195
C71 C 0.2529(2) 0.6737(2) 0.4254(4)
C72 C 0.2505(2) 0.6919(2) 0.4912(4)
H38 H 0.2456 0.6752 0.5313
C73 C 0.2505(2) 0.6003(2) 0.4709(4)
H39 H 0.2268 0.6067 0.5035
H40 H 0.2782 0.6037 0.4958
C74 C 0.1328(8) 0.4340(8) 0.8096(14)
C75 C 0.1447(7) 0.4034(9) 0.8651(10)
C77 C 0.1546(13) 0.3848(9) 0.9896(15)
C78 C 0.0559(7) 0.4027(10) 0.8810(13)
C79 C 0.3888(4) 0.3612(4) 0.5905(6)
H41 H 0.4123 0.3729 0.5628
H42 H 0.3930 0.3307 0.5960
H43 H 0.3886 0.3747 0.6363
C80 C 0.3449(4) 0.3698(4) 0.5532(6)
C81 C 0.0842(5) 0.4142(8) 0.9438(11)
C82 C 0.2954(4) 0.4050(4) 0.4677(6)
H44 H 0.2736 0.4031 0.5050
H45 H 0.2954 0.4343 0.4497
C83 C 0.2845(5) 0.3755(5) 0.4118(9)
H46 H 0.2561 0.3825 0.3931
H47 H 0.2841 0.3466 0.4300
H48 H 0.3061 0.3776 0.3749
C84 C 0.2327(7) 0.5062(6) 0.0920(11)
H49 H 0.2429 0.4771 0.1015
H50 H 0.2455 0.5159 0.0478
C85 C 0.1512(4) 0.4940(4) 0.1281(7)
C86 C 0.1610(4) 0.4649(4) 0.1884(7)
H51 H 0.1922 0.4632 0.1949
H52 H 0.1497 0.4366 0.1785
H53 H 0.1476 0.4760 0.2306
C87 C 0.2556(2) 0.7366(3) 0.4955(4)
C94 C 0.1760(5) 0.5330(5) 0.0215(7)
C95 C 0.3827(4) 0.4087(4) 0.4437(7)
H69 H 0.4095 0.3924 0.4513
H70 H 0.3746 0.4081 0.3941
C96 C 0.3845(6) 0.4472(6) 0.4694(10)
H71 H 0.4081 0.4627 0.4476
H72 H 0.3893 0.4457 0.5195
H73 H 0.3573 0.4618 0.4602
C97 C 0.2454(5) 0.5357(6) 0.1511(11)
H74 H 0.2763 0.5328 0.1604
H75 H 0.2292 0.5283 0.1928
H76 H 0.2391 0.5650 0.1380
C98 C 0.1660(9) 0.5796(6) 0.0431(15)
H77 H 0.1779 0.5989 0.0085
H78 H 0.1790 0.5854 0.0884
H79 H 0.1348 0.5835 0.0461
N2 N 0.1299(5) 0.3992(8) 0.9242(8)
N3 N 0.3415(3) 0.3939(3) 0.4982(5)
N4 N 0.1836(5) 0.5072(4) 0.0879(7)
O2 O 0.00871(16) 0.05899(16) 0.6535(3)
O4 O 0.01092(17) 0.06711(17) 0.2770(3)
O5 O 0.0026(2) 0.0965(2) 0.8051(4)
O6 O 0.01273(17) 0.00175(17) 0.3330(3)
O7 O 0.3016(2) 0.6456(2) 0.6797(4)
O8 O 0.4385(2) 0.46181(19) 0.1954(3)
O9 O 0.11227(18) 0.50136(17) 0.1074(3)
O10 O 0.43333(18) 0.52117(17) 0.2638(3)
O12 O 0.14078(16) 0.28905(16) 0.6450(3)
O13 O 0.3115(2) 0.3554(2) 0.5813(4)
O14 O 0.14374(18) 0.34806(18) 0.7125(3)
O15 O 0.3405(2) 0.3040(2) 0.7317(4)
O16 O 0.28783(19) 0.38017(19) 0.7370(3)
O17 O 0.1687(2) 0.1992(2) 0.6549(4)
O18 O 0.2288(2) 0.41485(18) 0.7077(3)
O19 O 0.1797(3) 0.3881(2) 0.8411(4)
O22 O 0.43270(18) 0.46132(17) 0.7288(3)
O23 O 0.43165(18) 0.52560(18) 0.6735(3)
O24 O 0.25405(18) 0.73152(19) 0.6196(3)
O25 O 0.25232(17) 0.79768(17) 0.5724(3)
O26 O 0.27752(18) 0.74838(18) 0.2484(3)
O27 O 0.27521(18) 0.81020(18) 0.3115(3)
O28 O 0.3156(2) 0.3619(2) 0.1587(4)
O29 O 0.25080(19) 0.38011(18) 0.1990(3)
O30 O 0.1553(2) 0.2479(2) 0.1947(4)
O31 O 0.18004(19) 0.31773(19) 0.1859(3)
O33 O 0.05996(16) 0.42901(16) 0.1758(3)
O34 O 0.00395(18) 0.49959(17) 0.3106(3)
O35 O 0.06921(16) 0.50807(15) 0.2561(3)
O36 O 0.04763(18) 0.54009(17) 0.6290(3)
O38 O 0.03392(19) 0.46060(19) 0.6897(3)
O41 O 0.29397(18) 0.53049(18) 0.5383(3)
O42 O 0.27408(18) 0.50377(17) 0.3598(3)
O43 O 0.16842(17) 0.55796(16) 0.4619(3)
O44 O 0.24883(17) 0.62909(17) 0.4118(3)
O45 O 0.0242(2) 0.2674(2) 0.3416(4)
O50 O 0.22979(16) 0.32517(15) 0.6563(3)
Zn10 Zn 0.03115(3) 0.52280(3) 0.72828(4)
Zn13 Zn 0.50016(3) 0.53979(3) 0.25521(5)
Zn14 Zn 0.49984(3) 0.46021(3) 0.75521(5)
Zn16 Zn 0.29933(3) 0.76288(3) 0.15261(5)
Zn17 Zn 0.00388(3) 0.04468(2) 0.17488(4)
Zn18 Zn 0.50388(3) 0.45532(2) 0.17488(4)
Zn19 Zn 0.49612(3) 0.54468(2) 0.67488(4)
Zn20 Zn 0.29423(3) 0.85706(3) 0.24682(5)
Zn21 Zn 0.20856(4) 0.21500(3) 0.19932(6)
Zn23 Zn 0.24406(3) 0.31955(3) 0.17130(5)
O54 O 0.06667(18) 0.02117(17) 0.7638(3)
O55 O 0.2949(2) 0.26011(19) 0.6150(3)
O56 O 0.2316(2) 0.24716(18) 0.5641(3)
O59 O 0.22248(18) 0.24838(18) 0.7484(3)
O60 O 0.22479(18) 0.31020(18) 0.8115(3)
O61 O 0.24920(19) 0.88011(18) 0.6990(3)
O62 O 0.3447(2) 0.7479(2) 0.6947(4)
O63 O 0.31996(19) 0.81773(19) 0.6859(3)
O65 O 0.01317(17) 0.47794(16) 0.0648(3)
O67 O 0.03159(17) 0.55468(16) 0.1371(3)
O68 O 0.22708(17) 0.78817(17) 0.7496(3)
O69 O 0.2654(2) 0.7323(2) 0.7865(4)
H80 H 0.355534 0.330002 0.750507
H81 H 0.327423 0.287464 0.771449
H84 H 0.151644 0.194969 0.610673
H85 H 0.191401 0.176343 0.658843
H87 H 0.189353 0.380731 0.977873
H88 H 0.0569987 0.367987 0.87239
H89 H 0.0221818 0.412578 0.891176
H90 H 0.068107 0.41924 0.834137
H94 H 0.072731 0.397632 0.991119
H95 H 0.0838392 0.448885 0.952865
H96 H 0.138017 0.466767 0.82857
H97 H 0.153126 0.428324 0.763131
H98 H 0.0983811 0.42973 0.795706
H101 H 0.316077 0.641602 0.63309
H102 H 0.320494 0.633356 0.717506
O1 O 0.00567(18) 0.99736(18) 0.5907(3)
Zn12 Zn 0.00016(3) 0.96021(3) 0.25521(5)
O53 O 0.0615(2) 0.96181(19) 0.6954(3)
Zn1 Zn 0.96885(3) 0.47720(3) 0.22828(4)
Zn3 Zn 0.99984(3) 0.03979(3) 0.75521(5)
H2 H 0.9987 0.1263 0.3617
C10 C 0.9923(3) 0.2012(2) 0.4127(4)
H4 H 0.9723 0.1898 0.3775
C11 C 0.9780(2) 0.2474(2) 0.4356(4)
C12 C 0.9801(3) 0.2752(3) 0.3712(4)
H6 H 0.9575 0.2672 0.3376
H7 H 0.9765 0.3053 0.3836
H10 H 0.9754 0.3769 0.5683
H15 H 0.9986 0.3437 0.2905
C50 C 0.7721(3) 0.2476(3) 0.5626(5)
C51 C 0.8383(3) 0.2408(3) 0.4874(5)
H28 H 0.8543 0.2394 0.5291
C52 C 0.7940(3) 0.2469(2) 0.4902(4)
C53 C 0.7680(3) 0.2494(3) 0.4286(4)
H29 H 0.7383 0.2561 0.4312
C54 C 0.7887(3) 0.2416(3) 0.3623(5)
C55 C 0.7629(3) 0.2399(3) 0.2949(4)
C56 C 0.8357(3) 0.2344(3) 0.3586(5)
H30 H 0.8493 0.2284 0.3156
C57 C 0.8602(3) 0.2365(3) 0.4210(5)
C58 C 0.9332(2) 0.2486(2) 0.4664(4)
H31 H 0.9245 0.2781 0.4763
H32 H 0.9320 0.2322 0.5100
O11 O 0.91112(19) 0.46472(19) 0.2743(3)
O20 O 0.7949(2) 0.23989(19) 0.6150(3)
O21 O 0.7316(2) 0.25284(18) 0.5641(3)
O32 O 0.99884(16) 0.41861(15) 0.2418(3)
O37 O 0.98683(17) 0.52206(16) 0.5648(3)
O39 O 0.96841(17) 0.44532(16) 0.6371(3)
O40 O 0.90400(18) 0.22935(18) 0.4125(3)
O46 O 0.99469(18) 0.30608(18) 0.5153(3)
O47 O 0.99132(16) 0.17421(16) 0.4787(3)
O48 O 0.77292(17) 0.21183(17) 0.2496(3)
O49 O 0.7346(2) 0.2677(2) 0.2865(4)
Zn11 Zn 0.94588(2) 0.50661(2) 0.65056(4)
Zn15 Zn 0.70067(3) 0.23712(3) 0.65261(5)
Zn22 Zn 0.70856(4) 0.28500(3) 0.19932(6)
Zn24 Zn 0.74406(3) 0.18045(3) 0.17130(5)
Zn25 Zn 0.79430(3) 0.17847(4) 0.66641(6)
O57 O 0.93270(18) 0.03868(17) 0.7288(3)
O64 O 0.95237(18) 0.45991(17) 0.1290(3)
O66 O 0.96608(19) 0.53940(19) 0.1897(3)
H82 H 0.915988 0.456641 0.324526
H83 H 0.892229 0.490784 0.27202
H99 H 0.978942 0.115614 0.787127
H100 H 0.998656 0.0919355 0.856708
Zn5 Zn 0.99612(3) 0.95532(2) 0.67488(4)
C88 C 0.9571(10) 0.8817(9) 0.6184(16)
C89 C 0.9285(6) 0.8666(5) 0.6795(10)
H54 H 0.9432 0.8725 0.7235
H55 H 0.9010 0.8817 0.6784
H56 H 0.9233 0.8362 0.6754
C90 C 0.9517(5) 0.8956(6) 0.4863(11)
H57 H 0.9516 0.8741 0.4491
H58 H 0.9815 0.9058 0.4936
C91 C 0.9213(7) 0.9318(6) 0.4696(14)
H59 H 0.9313 0.9465 0.4278
H60 H 0.8923 0.9207 0.4617
H61 H 0.9207 0.9517 0.5085
C92 C 0.8994(7) 0.8442(6) 0.5289(15)
H62 H 0.8926 0.8497 0.4796
H63 H 0.8724 0.8447 0.5560
C93 C 0.9225(11) 0.8014(5) 0.537(2)
H64 H 0.9035 0.7786 0.5212
H65 H 0.9489 0.8014 0.5095
H66 H 0.9297 0.7969 0.5861
N1 N 0.9313(4) 0.8775(5) 0.5566(8)
O3 O 0.9891(3) 0.9016(3) 0.6192(4)
O51 O 0.98908(17) 0.93289(17) 0.7770(3)
O52 O 0.98727(17) 0.99825(17) 0.8330(3)
O58 O 0.93165(18) 0.97440(18) 0.6735(3)
C88_2 C 0.0429(10) 0.1183(9) 0.1184(16)
C89_2 C 0.0715(6) 0.1334(5) 0.1795(10)
H54_2 H 0.0568 0.1275 0.2235
H55_2 H 0.0990 0.1183 0.1784
H56_2 H 0.0767 0.1638 0.1754
H61_2 H 0.0793 0.0483 0.0085
C92_2 C 0.1006(7) 0.1558(6) 0.0289(15)
H63_2 H 0.1276 0.1553 0.0560
C93_2 C 0.0775(11) 0.1986(5) 0.037(2)
H64_2 H 0.0965 0.2214 0.0212
H65_2 H 0.0511 0.1986 0.0095
H66_2 H 0.0703 0.2031 0.0861
N1_2 N 0.0687(4) 0.1225(5) 0.0566(8)
O3_2 O 0.0109(3) 0.0984(3) 0.1192(4)
O58_2 O 0.06835(18) 0.02560(18) 0.1735(3)
H10_2 H 0.0246 0.6231 0.0683
C50_2 C 0.2279(3) 0.7524(3) 0.0626(5)
H28_2 H 0.1457 0.7606 0.0291
H32_2 H 0.0680 0.7678 0.0100
O20_2 O 0.2051(2) 0.76011(19) 0.1150(3)
O21_2 O 0.2684(2) 0.74716(18) 0.0641(3)
O46_2 O 0.00531(18) 0.69392(18) 0.0153(3)
Zn25_2 Zn 0.20570(3) 0.82153(4) 0.16641(6)
O57_2 O 0.06730(18) 0.96132(17) 0.2288(3)
H99_2 H 0.021058 0.884386 0.287127
H100_2 H 0.0013439 0.908065 0.356708
H2_2 H 0.0013 0.8737 0.8617
C10_2 C 0.0077(3) 0.7988(2) 0.9127(4)
H4_2 H 0.0277 0.8102 0.8775
C11_2 C 0.0220(2) 0.7526(2) 0.9356(4)
C12_2 C 0.0199(3) 0.7248(3) 0.8712(4)
H6_2 H 0.0425 0.7328 0.8376
H7_2 H 0.0235 0.6947 0.8836
H15_2 H 0.0014 0.6563 0.7905
C51_2 C 0.1617(3) 0.7592(3) 0.9874(5)
C52_2 C 0.2060(3) 0.7531(2) 0.9902(4)
C53_2 C 0.2320(3) 0.7506(3) 0.9286(4)
H29_2 H 0.2617 0.7439 0.9312
C54_2 C 0.2113(3) 0.7584(3) 0.8623(5)
C55_2 C 0.2371(3) 0.7601(3) 0.7949(4)
C56_2 C 0.1643(3) 0.7656(3) 0.8586(5)
H30_2 H 0.1507 0.7716 0.8156
C57_2 C 0.1398(3) 0.7635(3) 0.9210(5)
C58_2 C 0.0668(2) 0.7514(2) 0.9664(4)
H31_2 H 0.0755 0.7219 0.9763
O11_2 O 0.08888(19) 0.53528(19) 0.7743(3)
O32_2 O 0.00116(16) 0.58139(15) 0.7418(3)
O40_2 O 0.09600(18) 0.77065(18) 0.9125(3)
O47_2 O 0.00868(16) 0.82579(16) 0.9787(3)
H82_2 H 0.0840121 0.543359 0.824526
H83_2 H 0.107771 0.509216 0.77202
O1_2 O 0.99433(18) 0.00264(18) 0.0907(3)
O53_2 O 0.9385(2) 0.03819(19) 0.1954(3)
Zn4_2 Zn 0.79933(3) 0.73712(3) 0.15261(5)
Zn6_2 Zn 0.79423(3) 0.64294(3) 0.24682(5)
Zn9_2 Zn 0.70570(3) 0.67847(4) 0.16641(6)
C1_2 C 0.9922(2) 0.9618(3) 0.0976(4)
C4_2 C 0.9930(2) 0.9367(2) 0.0302(4)
C5_2 C 0.9973(2) 0.8927(2) 0.0329(4)
H1_2 H 0.9995 0.8786 0.0762
H8_2 H 0.9887 0.7557 0.0339
C14_2 C 0.9806(3) 0.6727(3) 0.0650(4)
C15_2 C 0.9976(3) 0.6323(3) 0.0857(4)
C16_2 C 0.9739(3) 0.6057(2) 0.1326(4)
C17_2 C 0.9348(2) 0.6207(2) 0.1591(4)
H11_2 H 0.9194 0.6039 0.1914
C18_2 C 0.9178(2) 0.6607(2) 0.1386(4)
C19_2 C 0.9395(3) 0.6867(3) 0.0925(4)
H12_2 H 0.9277 0.7132 0.0791
C20_2 C 0.8752(2) 0.6753(2) 0.1659(4)
C29_2 C 0.9729(3) 0.4684(3) 0.0714(5)
C30_2 C 0.9944(3) 0.5638(2) 0.1552(4)
C34_2 C 0.9448(3) 0.4661(2) 0.0057(4)
C35_2 C 0.9006(3) 0.4537(3) 0.0096(4)
H17_2 H 0.8888 0.4445 0.0524
C41_2 C 0.7489(2) 0.4757(2) 0.0064(4)
H23_2 H 0.7716 0.4699 0.0410
C42_2 C 0.6934(3) 0.4955(2) 0.0957(4)
C43_2 C 0.6519(3) 0.4903(3) 0.1205(4)
H25_2 H 0.6349 0.4684 0.1010
C44_2 C 0.6332(2) 0.5155(2) 0.1730(4)
C45_2 C 0.6585(2) 0.5477(2) 0.2021(4)
H26_2 H 0.6465 0.5661 0.2359
C46_2 C 0.7036(2) 0.5528(2) 0.1801(4)
C47_2 C 0.7210(3) 0.5257(2) 0.1281(4)
H27_2 H 0.7504 0.5277 0.1152
C48_2 C 0.5874(3) 0.5100(3) 0.1971(4)
C49_2 C 0.7313(3) 0.5892(3) 0.2085(4)
C66_2 C 0.7454(3) 0.2433(3) 0.0682(5)
H38_2 H 0.7544 0.3248 0.0313
H39_2 H 0.7732 0.3933 0.0035
C74_2 C 0.8672(8) 0.5660(8) 0.3096(14)
C75_2 C 0.8553(7) 0.5966(9) 0.3651(10)
C76_2 C 0.8521(9) 0.5792(11) 0.5432(11)
C77_2 C 0.8454(13) 0.6152(9) 0.4896(15)
C78_2 C 0.9441(7) 0.5973(10) 0.3810(13)
C79_2 C 0.6112(4) 0.6388(4) 0.0905(6)
H41_2 H 0.5877 0.6271 0.0628
H42_2 H 0.6070 0.6693 0.0960
H43_2 H 0.6114 0.6253 0.1363
C80_2 C 0.6551(4) 0.6302(4) 0.0532(6)
C81_2 C 0.9158(5) 0.5858(8) 0.4438(11)
H44_2 H 0.7264 0.5969 0.0050
H72_2 H 0.6107 0.5543 0.0195
N2_2 N 0.8701(5) 0.6008(8) 0.4242(8)
O2_2 O 0.99129(16) 0.94101(16) 0.1535(3)
O5_2 O 0.9974(2) 0.9035(2) 0.3051(4)
O7_2 O 0.6984(2) 0.3544(2) 0.1797(4)
O12_2 O 0.85922(16) 0.71095(16) 0.1450(3)
O13_2 O 0.6885(2) 0.6446(2) 0.0813(4)
O14_2 O 0.85626(18) 0.65194(18) 0.2125(3)
O15_2 O 0.6595(2) 0.6960(2) 0.2317(4)
O16_2 O 0.71217(19) 0.61983(19) 0.2370(3)
O17_2 O 0.8313(2) 0.8008(2) 0.1549(4)
O18_2 O 0.7712(2) 0.58515(18) 0.2077(3)
O19_2 O 0.8203(3) 0.6119(2) 0.3411(4)
O22_2 O 0.56730(18) 0.53868(17) 0.2288(3)
O23_2 O 0.56835(18) 0.47440(18) 0.1735(3)
O24_2 O 0.74595(18) 0.26848(19) 0.1196(3)
O25_2 O 0.74768(17) 0.20232(17) 0.0724(3)
O41_2 O 0.70603(18) 0.46951(18) 0.0383(3)
O50_2 O 0.77021(16) 0.67483(15) 0.1563(3)
O54_2 O 0.93333(18) 0.97883(17) 0.2638(3)
O55_2 O 0.7051(2) 0.73989(19) 0.1150(3)
O56_2 O 0.7684(2) 0.75284(18) 0.0641(3)
O59_2 O 0.77752(18) 0.75162(18) 0.2484(3)
O60_2 O 0.77521(18) 0.68980(18) 0.3115(3)
O61_2 O 0.75080(19) 0.11989(18) 0.1990(3)
O62_2 O 0.6553(2) 0.2521(2) 0.1947(4)
O63_2 O 0.68004(19) 0.18227(19) 0.1859(3)
H80_2 H 0.644466 0.669998 0.250507
H81_2 H 0.672577 0.712536 0.271449
H84_2 H 0.848356 0.805031 0.110673
H85_2 H 0.808599 0.823657 0.158843
H86_2 H 0.858733 0.645437 0.509544
H87_2 H 0.810647 0.619269 0.477873
H88_2 H 0.943001 0.632013 0.37239
H89_2 H 0.977818 0.587422 0.391176
H90_2 H 0.931893 0.58076 0.334137
H91_2 H 0.887024 0.575356 0.553749
H92_2 H 0.835133 0.587282 0.592147
H93_2 H 0.838939 0.549189 0.522077
H94_2 H 0.927269 0.602368 0.491119
H95_2 H 0.916161 0.551115 0.452865
H96_2 H 0.861983 0.533233 0.32857
H97_2 H 0.846874 0.571676 0.263131
H98_2 H 0.901619 0.57027 0.295706
H101_2 H 0.683923 0.358398 0.13309
H102_2 H 0.679506 0.366644 0.217506
C2_2 C 0.5828(3) 0.5114(3) 0.7351(4)
C3_2 C 0.9874(3) 0.9561(3) 0.8300(4)
C6_2 C 0.9985(2) 0.8698(2) 0.9701(4)
C7_2 C 0.9971(2) 0.8896(3) 0.9029(4)
C8_2 C 0.9892(2) 0.9337(2) 0.9005(4)
C9_2 C 0.9894(2) 0.9584(3) 0.9645(4)
H3_2 H 0.9873 0.9883 0.9630
H5_2 H 0.9784 0.7982 0.8927
C13_2 C 0.9892(3) 0.7361(2) 0.9939(4)
H9_2 H 0.9597 0.7338 0.9749
C21_2 C 0.9562(3) 0.7032(3) 0.7929(5)
C22_2 C 0.9186(3) 0.7193(3) 0.7657(5)
H13_2 H 0.9096 0.7473 0.7758
C23_2 C 0.8950(2) 0.6937(2) 0.7240(4)
C24_2 C 0.9096(3) 0.6533(3) 0.7078(4)
H14_2 H 0.8928 0.6357 0.6786
C25_2 C 0.9488(2) 0.6382(2) 0.7338(4)
C26_2 C 0.9737(3) 0.6645(3) 0.7751(4)
C27_2 C 0.8503(3) 0.7085(3) 0.6982(5)
C28_2 C 0.9652(3) 0.5929(3) 0.7148(4)
C31_2 C 0.9557(3) 0.4914(2) 0.8091(4)
C32_2 C 0.9363(2) 0.4786(2) 0.8795(4)
C33_2 C 0.9633(3) 0.4780(2) 0.9388(4)
H16_2 H 0.9928 0.4851 0.9351
C36_2 C 0.8746(2) 0.4552(2) 0.9500(4)
C37_2 C 0.8911(2) 0.4673(2) 0.8863(4)
H18_2 H 0.8729 0.4681 0.8469
C38_2 C 0.7979(2) 0.4524(2) 0.9098(4)
H19_2 H 0.8010 0.4340 0.8686
H20_2 H 0.8008 0.4822 0.8948
C39_2 C 0.7538(2) 0.4454(2) 0.9442(4)
C40_2 C 0.7161(2) 0.4555(2) 0.8874(4)
H21_2 H 0.7161 0.4339 0.8502
H22_2 H 0.6875 0.4556 0.9100
H24_2 H 0.7519 0.5053 0.9905
C59_2 C 0.6978(3) 0.5136(2) 0.8100(4)
C60_2 C 0.6554(2) 0.5002(2) 0.7987(4)
H33_2 H 0.6436 0.4769 0.8231
C61_2 C 0.6298(2) 0.5240(2) 0.7469(4)
C62_2 C 0.6461(3) 0.5604(3) 0.7147(5)
H34_2 H 0.6282 0.5764 0.6845
C63_2 C 0.6907(2) 0.5741(2) 0.7274(4)
C64_2 C 0.7140(3) 0.5507(3) 0.7774(4)
H35_2 H 0.7419 0.5602 0.7899
C65_2 C 0.7077(3) 0.6122(3) 0.6938(5)
C67_2 C 0.7387(2) 0.2379(2) 0.9358(4)
H36_2 H 0.7350 0.2083 0.9403
C68_2 C 0.7387(3) 0.2567(3) 0.8702(4)
C69_2 C 0.7288(3) 0.2307(3) 0.8065(5)
C70_2 C 0.7412(2) 0.3007(2) 0.8638(4)
H37_2 H 0.7391 0.3137 0.8195
C71_2 C 0.7471(2) 0.3263(2) 0.9254(4)
C72_2 C 0.7495(2) 0.3081(2) 0.9912(4)
C73_2 C 0.7495(2) 0.3997(2) 0.9709(4)
H40_2 H 0.7218 0.3963 0.9958
C82_2 C 0.7046(4) 0.5950(4) 0.9677(6)
H45_2 H 0.7046 0.5657 0.9497
C83_2 C 0.7155(5) 0.6245(5) 0.9118(9)
H46_2 H 0.7439 0.6175 0.8931
H47_2 H 0.7159 0.6534 0.9300
H48_2 H 0.6939 0.6224 0.8749
C84_2 C 0.7673(7) 0.4938(6) 0.5920(11)
H49_2 H 0.7571 0.5229 0.6015
H50_2 H 0.7545 0.4841 0.5478
C85_2 C 0.8488(4) 0.5060(4) 0.6281(7)
C86_2 C 0.8390(4) 0.5351(4) 0.6884(7)
H51_2 H 0.8078 0.5368 0.6949
H52_2 H 0.8503 0.5634 0.6785
H53_2 H 0.8524 0.5240 0.7306
C87_2 C 0.7444(2) 0.2634(3) 0.9955(4)
C94_2 C 0.8240(5) 0.4670(5) 0.5215(7)
H67 H 0.8484 0.4789 0.4951
H68 H 0.7981 0.4679 0.4918
C95_2 C 0.6173(4) 0.5913(4) 0.9437(7)
H69_2 H 0.5905 0.6076 0.9513
H70_2 H 0.6254 0.5919 0.8941
C96_2 C 0.6155(6) 0.5528(6) 0.9694(10)
H71_2 H 0.5919 0.5373 0.9476
H73_2 H 0.6427 0.5382 0.9602
C97_2 C 0.7546(5) 0.4643(6) 0.6511(11)
H74_2 H 0.7237 0.4672 0.6604
H75_2 H 0.7708 0.4717 0.6928
H76_2 H 0.7609 0.4350 0.6380
C98_2 C 0.8340(9) 0.4204(6) 0.5431(15)
H77_2 H 0.8221 0.4011 0.5085
H78_2 H 0.8210 0.4146 0.5884
H79_2 H 0.8652 0.4165 0.5461
N3_2 N 0.6585(3) 0.6061(3) 0.9982(5)
N4_2 N 0.8164(5) 0.4928(4) 0.5879(7)
O8_2 O 0.5615(2) 0.53819(19) 0.6954(3)
O9_2 O 0.88773(18) 0.49864(17) 0.6074(3)
O10_2 O 0.56667(18) 0.47883(17) 0.7638(3)
O26_2 O 0.72248(18) 0.25162(18) 0.7484(3)
O27_2 O 0.72479(18) 0.18980(18) 0.8115(3)
O28_2 O 0.6844(2) 0.6381(2) 0.6587(4)
O29_2 O 0.74920(19) 0.61989(18) 0.6990(3)
O30_2 O 0.8447(2) 0.7521(2) 0.6947(4)
O31_2 O 0.81996(19) 0.68227(19) 0.6859(3)
O33_2 O 0.94004(16) 0.57099(16) 0.6758(3)
O34_2 O 0.99605(18) 0.50041(17) 0.8106(3)
O35_2 O 0.93079(16) 0.49193(15) 0.7561(3)
O42_2 O 0.72592(18) 0.49623(17) 0.8598(3)
O43_2 O 0.83158(17) 0.44204(16) 0.9619(3)
O44_2 O 0.75117(17) 0.37091(17) 0.9118(3)
O45_2 O 0.9758(2) 0.7326(2) 0.8416(4)
Zn20_2 Zn 0.70577(3) 0.14294(3) 0.74682(5)
Zn21_2 Zn 0.79144(4) 0.78500(3) 0.69932(6)
Zn23_2 Zn 0.75594(3) 0.68045(3) 0.67130(5)
C29_3 C 0.4729(3) 0.0316(3) 0.0714(5)
C34_3 C 0.4448(3) 0.0339(2) 0.0057(4)
C35_3 C 0.4006(3) 0.0463(3) 0.0096(4)
H17_3 H 0.3888 0.0555 0.0524
C41_3 C 0.2489(2) 0.0243(2) 0.0064(4)
H23_3 H 0.2716 0.0301 0.0410
C42_3 C 0.1934(3) 0.0045(2) 0.0957(4)
C43_3 C 0.1519(3) 0.0097(3) 0.1205(4)
H25_3 H 0.1349 0.0316 0.1010
C66_3 C 0.2454(3) 0.2567(3) 0.0682(5)
H38_3 H 0.2544 0.1752 0.0313
H39_3 H 0.2732 0.1067 0.0035
O7_3 O 0.1984(2) 0.1456(2) 0.1797(4)
O24_3 O 0.24595(18) 0.23152(19) 0.1196(3)
O25_3 O 0.24768(17) 0.29768(17) 0.0724(3)
O36_2 O 0.45237(18) 0.04009(17) 0.1290(3)
O37_2 O 0.51317(17) 0.02206(16) 0.0648(3)
O41_3 O 0.20603(18) 0.03049(18) 0.0383(3)
Zn10_2 Zn 0.46885(3) 0.02280(3) 0.22828(4)
Zn11_2 Zn 0.55412(2) 0.00661(2) 0.15056(4)
O68_2 O 0.27292(17) 0.28817(17) 0.2496(3)
O69_2 O 0.2346(2) 0.2323(2) 0.2865(4)
H101_3 H 0.183923 0.141602 0.13309
H102_3 H 0.179506 0.133356 0.217506
C31_3 C 0.4557(3) 0.0086(2) 0.8091(4)
C32_3 C 0.4363(2) 0.0214(2) 0.8795(4)
C33_3 C 0.4633(3) 0.0220(2) 0.9388(4)
H16_3 H 0.4928 0.0149 0.9351
C36_3 C 0.3746(2) 0.0448(2) 0.9500(4)
C37_3 C 0.3911(2) 0.0327(2) 0.8863(4)
H18_3 H 0.3729 0.0319 0.8469
C38_3 C 0.2979(2) 0.0476(2) 0.9098(4)
H19_3 H 0.3010 0.0660 0.8686
H20_3 H 0.3008 0.0178 0.8948
C39_3 C 0.2538(2) 0.0546(2) 0.9442(4)
C40_3 C 0.2161(2) 0.0445(2) 0.8874(4)
H21_3 H 0.2161 0.0661 0.8502
H22_3 H 0.1875 0.0444 0.9100
H33_3 H 0.1436 0.0231 0.8231
C67_3 C 0.2387(2) 0.2621(2) 0.9358(4)
H36_3 H 0.2350 0.2917 0.9403
C68_3 C 0.2387(3) 0.2433(3) 0.8702(4)
C69_3 C 0.2288(3) 0.2693(3) 0.8065(5)
C70_3 C 0.2412(2) 0.1993(2) 0.8638(4)
H37_3 H 0.2391 0.1863 0.8195
C71_3 C 0.2471(2) 0.1737(2) 0.9254(4)
C72_3 C 0.2495(2) 0.1919(2) 0.9912(4)
C73_3 C 0.2495(2) 0.1003(2) 0.9709(4)
H40_3 H 0.2218 0.1037 0.9958
C84_3 C 0.2673(7) 0.0062(6) 0.5920(11)
H50_3 H 0.2545 0.0159 0.5478
C87_3 C 0.2444(2) 0.2366(3) 0.9955(4)
C94_3 C 0.3240(5) 0.0330(5) 0.5215(7)
H67_2 H 0.3484 0.0211 0.4951
H68_2 H 0.2981 0.0321 0.4918
C97_3 C 0.2546(5) 0.0357(6) 0.6511(11)
H74_3 H 0.2237 0.0328 0.6604
H75_3 H 0.2708 0.0283 0.6928
H76_3 H 0.2609 0.0650 0.6380
C98_3 C 0.3340(9) 0.0796(6) 0.5431(15)
H77_3 H 0.3221 0.0989 0.5085
H78_3 H 0.3210 0.0854 0.5884
H79_3 H 0.3652 0.0835 0.5461
N4_3 N 0.3164(5) 0.0072(4) 0.5879(7)
O9_3 O 0.38773(18) 0.00136(17) 0.6074(3)
O35_3 O 0.43079(16) 0.00807(15) 0.7561(3)
O42_3 O 0.22592(18) 0.00377(17) 0.8598(3)
O43_3 O 0.33158(17) 0.05796(16) 0.9619(3)
O44_3 O 0.25117(17) 0.12909(17) 0.9118(3)
O66_2 O 0.53392(19) 0.03940(19) 0.6897(3)
O67_2 O 0.46841(17) 0.05468(16) 0.6371(3)
C1_3 C 0.4922(2) 0.5382(3) 0.0976(4)
C4_3 C 0.4930(2) 0.5633(2) 0.0302(4)
C5_3 C 0.4973(2) 0.6073(2) 0.0329(4)
H1_3 H 0.4995 0.6214 0.0762
H8_3 H 0.4887 0.7443 0.0339
C14_3 C 0.4806(3) 0.8273(3) 0.0650(4)
C15_3 C 0.4976(3) 0.8677(3) 0.0857(4)
H10_3 H 0.5246 0.8769 0.0683
C16_3 C 0.4739(3) 0.8943(2) 0.1326(4)
C17_3 C 0.4348(2) 0.8793(2) 0.1591(4)
H11_3 H 0.4194 0.8961 0.1914
C18_3 C 0.4178(2) 0.8393(2) 0.1386(4)
C19_3 C 0.4395(3) 0.8133(3) 0.0925(4)
H12_3 H 0.4277 0.7868 0.0791
C20_3 C 0.3752(2) 0.8247(2) 0.1659(4)
C30_3 C 0.4944(3) 0.9362(2) 0.1552(4)
C44_3 C 0.1332(2) 0.9845(2) 0.1730(4)
C45_3 C 0.1585(2) 0.9523(2) 0.2021(4)
H26_3 H 0.1465 0.9339 0.2359
C46_3 C 0.2036(2) 0.9472(2) 0.1801(4)
C47_3 C 0.2210(3) 0.9743(2) 0.1281(4)
H27_3 H 0.2504 0.9723 0.1152
C48_3 C 0.0874(3) 0.9900(3) 0.1971(4)
C49_3 C 0.2313(3) 0.9108(3) 0.2085(4)
C50_3 C 0.7279(3) 0.7476(3) 0.0626(5)
H28_3 H 0.6457 0.7394 0.0291
H32_3 H 0.5680 0.7322 0.0100
C74_3 C 0.3672(8) 0.9340(8) 0.3096(14)
C75_3 C 0.3553(7) 0.9034(9) 0.3651(10)
C76_3 C 0.3521(9) 0.9208(11) 0.5432(11)
C77_3 C 0.3454(13) 0.8848(9) 0.4896(15)
C78_3 C 0.4441(7) 0.9027(10) 0.3810(13)
C79_3 C 0.1112(4) 0.8612(4) 0.0905(6)
H41_3 H 0.0877 0.8729 0.0628
H42_3 H 0.1070 0.8307 0.0960
H43_3 H 0.1114 0.8747 0.1363
C80_3 C 0.1551(4) 0.8698(4) 0.0532(6)
C81_3 C 0.4158(5) 0.9142(8) 0.4438(11)
H44_3 H 0.2264 0.9031 0.0050
C88_3 C 0.5429(10) 0.3817(9) 0.1184(16)
C89_3 C 0.5715(6) 0.3666(5) 0.1795(10)
H54_3 H 0.5568 0.3725 0.2235
H55_3 H 0.5990 0.3817 0.1784
H56_3 H 0.5767 0.3362 0.1754
H61_3 H 0.5793 0.4517 0.0085
C92_3 C 0.6006(7) 0.3442(6) 0.0289(15)
H63_3 H 0.6276 0.3447 0.0560
C93_3 C 0.5775(11) 0.3014(5) 0.037(2)
H64_3 H 0.5965 0.2786 0.0212
H65_3 H 0.5511 0.3014 0.0095
H66_3 H 0.5703 0.2969 0.0861
H72_3 H 0.1107 0.9457 0.0195
N1_3 N 0.5687(4) 0.3775(5) 0.0566(8)
N2_3 N 0.3701(5) 0.8992(8) 0.4242(8)
O1_3 O 0.49433(18) 0.49736(18) 0.0907(3)
O2_3 O 0.49129(16) 0.55899(16) 0.1535(3)
O3_3 O 0.5109(3) 0.4016(3) 0.1192(4)
O5_3 O 0.4974(2) 0.5965(2) 0.3051(4)
O12_3 O 0.35922(16) 0.78905(16) 0.1450(3)
O13_3 O 0.1885(2) 0.8554(2) 0.0813(4)
O14_3 O 0.35626(18) 0.84806(18) 0.2125(3)
O15_3 O 0.1595(2) 0.8040(2) 0.2317(4)
O16_3 O 0.21217(19) 0.88017(19) 0.2370(3)
O17_3 O 0.3313(2) 0.6992(2) 0.1549(4)
O18_3 O 0.2712(2) 0.91485(18) 0.2077(3)
O19_3 O 0.3203(3) 0.8881(2) 0.3411(4)
O38_2 O 0.46608(19) 0.96060(19) 0.1897(3)
O39_2 O 0.53159(17) 0.94532(16) 0.1371(3)
O46_3 O 0.50531(18) 0.80608(18) 0.0153(3)
O50_3 O 0.27021(16) 0.82517(15) 0.1563(3)
O51_2 O 0.51092(17) 0.43289(17) 0.2770(3)
O52_2 O 0.51273(17) 0.49825(17) 0.3330(3)
H80_3 H 0.144466 0.830002 0.250507
H81_3 H 0.172577 0.787464 0.271449
H84_3 H 0.348356 0.694969 0.110673
H85_3 H 0.308599 0.676343 0.158843
H86_3 H 0.358733 0.854563 0.509544
H87_3 H 0.310647 0.880731 0.477873
H88_3 H 0.443001 0.867987 0.37239
H89_3 H 0.477818 0.912578 0.391176
H90_3 H 0.431893 0.91924 0.334137
H91_3 H 0.387024 0.924644 0.553749
H92_3 H 0.335133 0.912718 0.592147
H93_3 H 0.338939 0.950811 0.522077
H94_3 H 0.427269 0.897632 0.491119
H95_3 H 0.416161 0.948885 0.452865
H96_3 H 0.361983 0.966767 0.32857
H97_3 H 0.346874 0.928324 0.263131
H98_3 H 0.401619 0.92973 0.295706
H99_3 H 0.521058 0.615614 0.287127
H100_3 H 0.501344 0.591935 0.356708
Zn1_2 Zn 0.53115(3) 0.97720(3) 0.72828(4)
Zn2_2 Zn 0.44588(2) 0.99339(2) 0.65056(4)
C2_3 C 0.0828(3) 0.9886(3) 0.7351(4)
C3_3 C 0.4874(3) 0.5439(3) 0.8300(4)
C6_3 C 0.4985(2) 0.6302(2) 0.9701(4)
C7_3 C 0.4971(2) 0.6104(3) 0.9029(4)
H2_3 H 0.5013 0.6263 0.8617
C8_3 C 0.4892(2) 0.5663(2) 0.9005(4)
C9_3 C 0.4894(2) 0.5416(3) 0.9645(4)
H3_3 H 0.4873 0.5117 0.9630
C10_3 C 0.5077(3) 0.7012(2) 0.9127(4)
H4_3 H 0.5277 0.6898 0.8775
H5_3 H 0.4784 0.7018 0.8927
C11_3 C 0.5220(2) 0.7474(2) 0.9356(4)
C12_3 C 0.5199(3) 0.7752(3) 0.8712(4)
H6_3 H 0.5425 0.7672 0.8376
H7_3 H 0.5235 0.8053 0.8836
C13_3 C 0.4892(3) 0.7639(2) 0.9939(4)
H9_3 H 0.4597 0.7662 0.9749
C21_3 C 0.4562(3) 0.7968(3) 0.7929(5)
C22_3 C 0.4186(3) 0.7807(3) 0.7657(5)
H13_3 H 0.4096 0.7527 0.7758
C23_3 C 0.3950(2) 0.8063(2) 0.7240(4)
C24_3 C 0.4096(3) 0.8467(3) 0.7078(4)
H14_3 H 0.3928 0.8643 0.6786
C25_3 C 0.4488(2) 0.8618(2) 0.7338(4)
C26_3 C 0.4737(3) 0.8355(3) 0.7751(4)
H15_3 H 0.5014 0.8437 0.7905
C27_3 C 0.3503(3) 0.7915(3) 0.6982(5)
C28_3 C 0.4652(3) 0.9071(3) 0.7148(4)
H24_3 H 0.2519 0.9947 0.9905
C51_3 C 0.6617(3) 0.7408(3) 0.9874(5)
C52_3 C 0.7060(3) 0.7469(2) 0.9902(4)
C53_3 C 0.7320(3) 0.7494(3) 0.9286(4)
H29_3 H 0.7617 0.7561 0.9312
C54_3 C 0.7113(3) 0.7416(3) 0.8623(5)
C55_3 C 0.7371(3) 0.7399(3) 0.7949(4)
C56_3 C 0.6643(3) 0.7344(3) 0.8586(5)
H30_3 H 0.6507 0.7284 0.8156
C57_3 C 0.6398(3) 0.7365(3) 0.9210(5)
C58_3 C 0.5668(2) 0.7486(2) 0.9664(4)
H31_3 H 0.5755 0.7781 0.9763
C59_3 C 0.1978(3) 0.9864(2) 0.8100(4)
C60_3 C 0.1554(2) 0.9998(2) 0.7987(4)
C61_3 C 0.1298(2) 0.9760(2) 0.7469(4)
C62_3 C 0.1461(3) 0.9396(3) 0.7147(5)
H34_3 H 0.1282 0.9236 0.6845
C63_3 C 0.1907(2) 0.9259(2) 0.7274(4)
C64_3 C 0.2140(3) 0.9493(3) 0.7774(4)
H35_3 H 0.2419 0.9398 0.7899
C65_3 C 0.2077(3) 0.8878(3) 0.6938(5)
C82_3 C 0.2046(4) 0.9050(4) 0.9677(6)
H45_3 H 0.2046 0.9343 0.9497
C83_3 C 0.2155(5) 0.8755(5) 0.9118(9)
H46_3 H 0.2439 0.8825 0.8931
H47_3 H 0.2159 0.8466 0.9300
H48_3 H 0.1939 0.8776 0.8749
H49_3 H 0.2571 0.9771 0.6015
C85_3 C 0.3488(4) 0.9940(4) 0.6281(7)
C86_3 C 0.3390(4) 0.9649(4) 0.6884(7)
H51_3 H 0.3078 0.9632 0.6949
H52_3 H 0.3503 0.9366 0.6785
H53_3 H 0.3524 0.9760 0.7306
C90_2 C 0.5483(5) 0.3956(6) 0.9863(11)
H57_2 H 0.5484 0.3741 0.9491
H58_2 H 0.5185 0.4058 0.9936
C91_2 C 0.5787(7) 0.4318(6) 0.9696(14)
H59_2 H 0.5687 0.4465 0.9278
H60_2 H 0.6077 0.4207 0.9617
H62_2 H 0.6074 0.3497 0.9796
C95_3 C 0.1173(4) 0.9087(4) 0.9437(7)
H69_3 H 0.0905 0.8924 0.9513
H70_3 H 0.1254 0.9081 0.8941
C96_3 C 0.1155(6) 0.9472(6) 0.9694(10)
H71_3 H 0.0919 0.9627 0.9476
H73_3 H 0.1427 0.9618 0.9602
N3_3 N 0.1585(3) 0.8939(3) 0.9982(5)
O4_2 O 0.48908(17) 0.56711(17) 0.7770(3)
O6_2 O 0.48727(17) 0.50175(17) 0.8330(3)
O11_3 O 0.58888(19) 0.96472(19) 0.7743(3)
O28_3 O 0.1844(2) 0.8619(2) 0.6587(4)
O32_3 O 0.50116(16) 0.91861(15) 0.7418(3)
O33_3 O 0.44004(16) 0.92901(16) 0.6758(3)
O34_3 O 0.49605(18) 0.99959(17) 0.8106(3)
O40_3 O 0.59600(18) 0.72935(18) 0.9125(3)
O45_3 O 0.4758(2) 0.7674(2) 0.8416(4)
O47_3 O 0.50868(16) 0.67421(16) 0.9787(3)
O48_2 O 0.72708(17) 0.71183(17) 0.7496(3)
O49_2 O 0.7654(2) 0.7677(2) 0.7865(4)
O64_2 O 0.54763(18) 0.95991(17) 0.6290(3)
O65_2 O 0.48683(17) 0.97794(16) 0.5648(3)
H82_3 H 0.584012 0.956641 0.824526
H83_3 H 0.607771 0.990784 0.77202
C1_4 C 0.5078(2) 0.4618(3) 0.5976(4)
C2_4 C 0.9172(3) 0.0114(3) 0.2351(4)
C3_4 C 0.5126(3) 0.4561(3) 0.3300(4)
C4_4 C 0.5070(2) 0.4367(2) 0.5302(4)
C5_4 C 0.5027(2) 0.3927(2) 0.5329(4)
H1_4 H 0.5005 0.3786 0.5762
C6_4 C 0.5015(2) 0.3698(2) 0.4701(4)
C7_4 C 0.5029(2) 0.3896(3) 0.4029(4)
H2_4 H 0.4987 0.3737 0.3617
C8_4 C 0.5108(2) 0.4337(2) 0.4005(4)
C9_4 C 0.5106(2) 0.4584(3) 0.4645(4)
H3_4 H 0.5127 0.4883 0.4630
C10_4 C 0.4923(3) 0.2988(2) 0.4127(4)
H4_4 H 0.4723 0.3102 0.3775
H5_4 H 0.5216 0.2982 0.3927
C11_4 C 0.4780(2) 0.2526(2) 0.4356(4)
C12_4 C 0.4801(3) 0.2248(3) 0.3712(4)
H6_4 H 0.4575 0.2328 0.3376
H7_4 H 0.4765 0.1947 0.3836
C13_4 C 0.5108(3) 0.2361(2) 0.4939(4)
H8_4 H 0.5113 0.2557 0.5339
H9_4 H 0.5403 0.2338 0.4749
C14_4 C 0.5194(3) 0.1727(3) 0.5650(4)
C15_4 C 0.5024(3) 0.1323(3) 0.5857(4)
H10_4 H 0.4754 0.1231 0.5683
C16_4 C 0.5261(3) 0.1057(2) 0.6326(4)
C17_4 C 0.5652(2) 0.1207(2) 0.6591(4)
H11_4 H 0.5806 0.1039 0.6914
C18_4 C 0.5822(2) 0.1607(2) 0.6386(4)
C19_4 C 0.5605(3) 0.1867(3) 0.5925(4)
H12_4 H 0.5723 0.2132 0.5791
C20_4 C 0.6248(2) 0.1753(2) 0.6659(4)
C21_4 C 0.5438(3) 0.2032(3) 0.2929(5)
C22_4 C 0.5814(3) 0.2193(3) 0.2657(5)
H13_4 H 0.5904 0.2473 0.2758
C23_4 C 0.6050(2) 0.1937(2) 0.2240(4)
C24_4 C 0.5904(3) 0.1533(3) 0.2078(4)
H14_4 H 0.6072 0.1357 0.1786
C25_4 C 0.5512(2) 0.1382(2) 0.2338(4)
C26_4 C 0.5263(3) 0.1645(3) 0.2751(4)
H15_4 H 0.4986 0.1563 0.2905
C27_4 C 0.6497(3) 0.2085(3) 0.1982(5)
C28_4 C 0.5348(3) 0.0929(3) 0.2148(4)
C30_4 C 0.5056(3) 0.0638(2) 0.6552(4)
H24_4 H 0.7481 0.0053 0.4905
C44_4 C 0.8668(2) 0.0155(2) 0.6730(4)
C45_4 C 0.8415(2) 0.0477(2) 0.7021(4)
H26_4 H 0.8535 0.0661 0.7359
C46_4 C 0.7964(2) 0.0528(2) 0.6801(4)
C47_4 C 0.7790(3) 0.0257(2) 0.6281(4)
H27_4 H 0.7496 0.0277 0.6152
C48_4 C 0.9126(3) 0.0100(3) 0.6971(4)
C49_4 C 0.7687(3) 0.0892(3) 0.7085(4)
C50_4 C 0.2721(3) 0.2524(3) 0.5626(5)
C51_4 C 0.3383(3) 0.2592(3) 0.4874(5)
H28_4 H 0.3543 0.2606 0.5291
C52_4 C 0.2940(3) 0.2531(2) 0.4902(4)
C53_4 C 0.2680(3) 0.2506(3) 0.4286(4)
H29_4 H 0.2383 0.2439 0.4312
C54_4 C 0.2887(3) 0.2584(3) 0.3623(5)
C55_4 C 0.2629(3) 0.2601(3) 0.2949(4)
C56_4 C 0.3357(3) 0.2656(3) 0.3586(5)
H30_4 H 0.3493 0.2716 0.3156
C57_4 C 0.3602(3) 0.2635(3) 0.4210(5)
C58_4 C 0.4332(2) 0.2514(2) 0.4664(4)
H31_4 H 0.4245 0.2219 0.4763
H32_4 H 0.4320 0.2678 0.5100
C59_4 C 0.8022(3) 0.0136(2) 0.3100(4)
C60_4 C 0.8446(2) 0.0002(2) 0.2987(4)
C61_4 C 0.8702(2) 0.0240(2) 0.2469(4)
C62_4 C 0.8539(3) 0.0604(3) 0.2147(5)
H34_4 H 0.8718 0.0764 0.1845
C63_4 C 0.8093(2) 0.0741(2) 0.2274(4)
C64_4 C 0.7860(3) 0.0507(3) 0.2774(4)
H35_4 H 0.7581 0.0602 0.2899
C65_4 C 0.7923(3) 0.1122(3) 0.1938(5)
C74_4 C 0.6328(8) 0.0660(8) 0.8096(14)
C75_4 C 0.6447(7) 0.0966(9) 0.8651(10)
C77_4 C 0.6546(13) 0.1152(9) 0.9896(15)
C78_4 C 0.5559(7) 0.0973(10) 0.8810(13)
C79_4 C 0.8888(4) 0.1388(4) 0.5905(6)
H41_4 H 0.9123 0.1271 0.5628
H42_4 H 0.8930 0.1693 0.5960
H43_4 H 0.8886 0.1253 0.6363
C80_4 C 0.8449(4) 0.1302(4) 0.5532(6)
C81_4 C 0.5842(5) 0.0858(8) 0.9438(11)
C82_4 C 0.7954(4) 0.0950(4) 0.4677(6)
H44_4 H 0.7736 0.0969 0.5050
H45_4 H 0.7954 0.0657 0.4497
C83_4 C 0.7845(5) 0.1245(5) 0.4118(9)
H46_4 H 0.7561 0.1175 0.3931
H47_4 H 0.7841 0.1534 0.4300
H48_4 H 0.8061 0.1224 0.3749
H49_4 H 0.7429 0.0229 0.1015
C85_4 C 0.6512(4) 0.0060(4) 0.1281(7)
C86_4 C 0.6610(4) 0.0351(4) 0.1884(7)
H51_4 H 0.6922 0.0368 0.1949
H52_4 H 0.6497 0.0634 0.1785
H53_4 H 0.6476 0.0240 0.2306
C88_4 C 0.4571(10) 0.6183(9) 0.6184(16)
C89_4 C 0.4285(6) 0.6334(5) 0.6795(10)
H54_4 H 0.4432 0.6275 0.7235
H55_4 H 0.4010 0.6183 0.6784
H56_4 H 0.4233 0.6638 0.6754
C90_3 C 0.4517(5) 0.6044(6) 0.4863(11)
H57_3 H 0.4516 0.6259 0.4491
H58_3 H 0.4815 0.5942 0.4936
C91_3 C 0.4213(7) 0.5682(6) 0.4696(14)
H59_3 H 0.4313 0.5535 0.4278
H60_3 H 0.3923 0.5793 0.4617
H61_4 H 0.4207 0.5483 0.5085
C92_4 C 0.3994(7) 0.6558(6) 0.5289(15)
H62_3 H 0.3926 0.6503 0.4796
H63_4 H 0.3724 0.6553 0.5560
C93_4 C 0.4225(11) 0.6986(5) 0.537(2)
H64_4 H 0.4035 0.7214 0.5212
H65_4 H 0.4489 0.6986 0.5095
H66_4 H 0.4297 0.7031 0.5861
C95_4 C 0.8827(4) 0.0913(4) 0.4437(7)
H69_4 H 0.9095 0.1076 0.4513
H70_4 H 0.8746 0.0919 0.3941
C96_4 C 0.8845(6) 0.0528(6) 0.4694(10)
H71_4 H 0.9081 0.0373 0.4476
H72_4 H 0.8893 0.0543 0.5195
H73_4 H 0.8573 0.0382 0.4602
N1_4 N 0.4313(4) 0.6225(5) 0.5566(8)
N2_4 N 0.6299(5) 0.1008(8) 0.9242(8)
N3_4 N 0.8415(3) 0.1061(3) 0.4982(5)
O1_4 O 0.50567(18) 0.50264(18) 0.5907(3)
O2_4 O 0.50871(16) 0.44101(16) 0.6535(3)
O3_4 O 0.4891(3) 0.5984(3) 0.6192(4)
O5_4 O 0.5026(2) 0.4035(2) 0.8051(4)
O11_4 O 0.41112(19) 0.03528(19) 0.2743(3)
O12_4 O 0.64078(16) 0.21095(16) 0.6450(3)
O13_4 O 0.8115(2) 0.1446(2) 0.5813(4)
O14_4 O 0.64374(18) 0.15194(18) 0.7125(3)
O15_4 O 0.8405(2) 0.1960(2) 0.7317(4)
O16_4 O 0.78783(19) 0.11983(19) 0.7370(3)
O17_4 O 0.6687(2) 0.3008(2) 0.6549(4)
O18_4 O 0.7288(2) 0.08515(18) 0.7077(3)
O19_4 O 0.6797(3) 0.1119(2) 0.8411(4)
O28_4 O 0.8156(2) 0.1381(2) 0.1587(4)
O32_4 O 0.49884(16) 0.08139(15) 0.2418(3)
O33_4 O 0.55996(16) 0.07099(16) 0.1758(3)
O34_4 O 0.50395(18) 0.00041(17) 0.3106(3)
O40_4 O 0.40400(18) 0.27065(18) 0.4125(3)
O45_4 O 0.5242(2) 0.2326(2) 0.3416(4)
O46_4 O 0.49469(18) 0.19392(18) 0.5153(3)
O47_4 O 0.49132(16) 0.32579(16) 0.4787(3)
O50_4 O 0.72979(16) 0.17483(15) 0.6563(3)
H80_4 H 0.855534 0.169998 0.750507
H81_4 H 0.827423 0.212536 0.771449
H82_4 H 0.415988 0.0433594 0.324526
H83_4 H 0.392229 0.00921616 0.27202
H84_4 H 0.651644 0.305031 0.610673
H85_4 H 0.691401 0.323657 0.658843
H87_4 H 0.689353 0.119269 0.977873
H88_4 H 0.556999 0.132013 0.87239
H89_4 H 0.522182 0.0874216 0.891176
H90_4 H 0.568107 0.08076 0.834137
H94_4 H 0.572731 0.102368 0.991119
H95_4 H 0.583839 0.0511148 0.952865
H96_4 H 0.638017 0.0332328 0.82857
H97_4 H 0.653126 0.0716756 0.763131
H98_4 H 0.598381 0.0702696 0.795706
H99_4 H 0.478942 0.384386 0.787127
H100_4 H 0.498656 0.408065 0.856708
C29_4 C 0.5271(3) 0.9684(3) 0.5714(5)
C31_4 C 0.5443(3) 0.9914(2) 0.3091(4)
C32_4 C 0.5637(2) 0.9786(2) 0.3795(4)
C33_4 C 0.5367(3) 0.9780(2) 0.4388(4)
H16_4 H 0.5072 0.9851 0.4351
C34_4 C 0.5552(3) 0.9661(2) 0.5057(4)
C35_4 C 0.5994(3) 0.9537(3) 0.5096(4)
H17_4 H 0.6112 0.9445 0.5524
C36_4 C 0.6254(2) 0.9552(2) 0.4500(4)
C37_4 C 0.6089(2) 0.9673(2) 0.3863(4)
H18_4 H 0.6271 0.9681 0.3469
C38_4 C 0.7021(2) 0.9524(2) 0.4098(4)
H19_4 H 0.6990 0.9340 0.3686
H20_4 H 0.6992 0.9822 0.3948
C39_4 C 0.7462(2) 0.9454(2) 0.4442(4)
C40_4 C 0.7839(2) 0.9555(2) 0.3874(4)
H21_4 H 0.7839 0.9339 0.3502
H22_4 H 0.8125 0.9556 0.4100
C41_4 C 0.7511(2) 0.9757(2) 0.5064(4)
H23_4 H 0.7284 0.9699 0.5410
C42_4 C 0.8066(3) 0.9955(2) 0.5957(4)
C43_4 C 0.8481(3) 0.9903(3) 0.6205(4)
H25_4 H 0.8651 0.9684 0.6010
H33_4 H 0.8564 0.9769 0.3231
C66_4 C 0.7546(3) 0.7433(3) 0.5682(5)
C67_4 C 0.7613(2) 0.7379(2) 0.4358(4)
H36_4 H 0.7650 0.7083 0.4403
C68_4 C 0.7613(3) 0.7567(3) 0.3702(4)
C69_4 C 0.7712(3) 0.7307(3) 0.3065(5)
C70_4 C 0.7588(2) 0.8007(2) 0.3638(4)
H37_4 H 0.7609 0.8137 0.3195
C71_4 C 0.7529(2) 0.8263(2) 0.4254(4)
C72_4 C 0.7505(2) 0.8081(2) 0.4912(4)
H38_4 H 0.7456 0.8248 0.5313
C73_4 C 0.7505(2) 0.8997(2) 0.4709(4)
H39_4 H 0.7268 0.8933 0.5035
H40_4 H 0.7782 0.8963 0.4958
C84_4 C 0.7327(7) 0.9938(6) 0.0920(11)
H50_4 H 0.7455 0.9841 0.0478
C87_4 C 0.7556(2) 0.7634(3) 0.4955(4)
C94_4 C 0.6760(5) 0.9670(5) 0.0215(7)
C97_4 C 0.7454(5) 0.9643(6) 0.1511(11)
H74_4 H 0.7763 0.9672 0.1604
H75_4 H 0.7292 0.9717 0.1928
H76_4 H 0.7391 0.9350 0.1380
C98_4 C 0.6660(9) 0.9204(6) 0.0431(15)
H77_4 H 0.6779 0.9011 0.0085
H78_4 H 0.6790 0.9146 0.0884
H79_4 H 0.6348 0.9165 0.0461
N4_4 N 0.6836(5) 0.9928(4) 0.0879(7)
O7_4 O 0.8016(2) 0.8544(2) 0.6797(4)
O9_4 O 0.61227(18) 0.99864(17) 0.1074(3)
O24_4 O 0.75405(18) 0.76848(19) 0.6196(3)
O25_4 O 0.75232(17) 0.70232(17) 0.5724(3)
O35_4 O 0.56921(16) 0.99193(15) 0.2561(3)
O41_4 O 0.79397(18) 0.96951(18) 0.5383(3)
O42_4 O 0.77408(18) 0.99623(17) 0.3598(3)
O43_4 O 0.66842(17) 0.94204(16) 0.4619(3)
O44_4 O 0.74883(17) 0.87091(17) 0.4118(3)
H101_4 H 0.816077 0.858398 0.63309
H102_4 H 0.820494 0.866644 0.717506
H67_3 H 0.1516 0.5211 0.9951
H68_3 H 0.2019 0.5321 0.9918
C90_4 C 0.0483(5) 0.1044(6) 0.9863(11)
H57_4 H 0.0484 0.1259 0.9491
H58_4 H 0.0185 0.0942 0.9936
C91_4 C 0.0787(7) 0.0682(6) 0.9696(14)
H59_4 H 0.0687 0.0535 0.9278
H60_4 H 0.1077 0.0793 0.9617
H62_4 H 0.1074 0.1503 0.9796
C76_4 C 0.6479(9) 0.0792(11) 0.0432(11)
H86_4 H 0.641267 0.145437 0.00954449
H91_4 H 0.612976 0.0753565 0.0537487
H92_4 H 0.664867 0.0872819 0.0921466
H93_4 H 0.661061 0.049189 0.0220771
H67_4 H 0.6516 0.9789 0.9951
H68_4 H 0.7019 0.9679 0.9918
loop_
_geom_bond_atom_site_label_1
_geom_bond_atom_site_label_2
_geom_bond_site_symmetry_1
_geom_bond_site_symmetry_2
C76 H91 1_555 1_555
C76 H92 1_555 1_555
C76 H93 1_555 1_555
Zn2 O9 1_555 1_555
Zn4 O12 1_555 1_555
Zn6 O14 1_555 1_555
Zn7 O7 1_555 1_555
Zn8 O25 1_555 1_555
Zn9 O13 1_555 1_555
C1 C4 1_555 1_555
C2 C61 1_555 1_555
C3 C8 1_555 1_555
C4 C5 1_555 1_555
C5 H1 1_555 1_555
C6 C5 1_555 1_555
C7 C6 1_555 1_555
C8 C7 1_555 1_555
C9 C4 1_555 1_555
H3 C9 1_555 1_555
H8 C13 1_555 1_555
H9 C13 1_555 1_555
C14 C15 1_555 1_555
C16 C15 1_555 1_555
C17 C16 1_555 1_555
H11 C17 1_555 1_555
C18 C17 1_555 1_555
C19 C14 1_555 1_555
H12 C19 1_555 1_555
C20 C18 1_555 1_555
C21 C22 1_555 1_555
C22 H13 1_555 1_555
C23 C22 1_555 1_555
C24 C23 1_555 1_555
H14 C24 1_555 1_555
C25 C24 1_555 1_555
C26 C21 1_555 1_555
C27 C23 1_555 1_555
C28 C25 1_555 1_555
C29 C34 1_555 1_555
C30 C16 1_555 1_555
C31 C32 1_555 1_555
C32 C33 1_555 1_555
C33 H16 1_555 1_555
C34 C33 1_555 1_555
C35 C34 1_555 1_555
H17 C35 1_555 1_555
C36 C35 1_555 1_555
C37 C32 1_555 1_555
H18 C37 1_555 1_555
C38 H19 1_555 1_555
H20 C38 1_555 1_555
C39 C38 1_555 1_555
C40 C39 1_555 1_555
H21 C40 1_555 1_555
H22 C40 1_555 1_555
C41 C39 1_555 1_555
H23 C41 1_555 1_555
H24 C41 1_555 1_555
C42 C43 1_555 1_555
C43 H25 1_555 1_555
C44 C43 1_555 1_555
C45 C44 1_555 1_555
H26 C45 1_555 1_555
C46 C45 1_555 1_555
C47 C42 1_555 1_555
H27 C47 1_555 1_555
C48 C44 1_555 1_555
C49 C46 1_555 1_555
C59 C60 1_555 1_555
C60 H33 1_555 1_555
C61 C60 1_555 1_555
C62 C61 1_555 1_555
H34 C62 1_555 1_555
C63 C62 1_555 1_555
C64 C59 1_555 1_555
H35 C64 1_555 1_555
C65 C63 1_555 1_555
C66 C87 1_555 1_555
C67 H36 1_555 1_555
C68 C67 1_555 1_555
C69 C68 1_555 1_555
C70 C68 1_555 1_555
H37 C70 1_555 1_555
C71 C70 1_555 1_555
C72 C71 1_555 1_555
H38 C72 1_555 1_555
C73 C39 1_555 1_555
H39 C73 1_555 1_555
H40 C73 1_555 1_555
C74 C75 1_555 1_555
C75 N2 1_555 1_555
C77 N2 1_555 1_555
C78 C81 1_555 1_555
C79 H41 1_555 1_555
H42 C79 1_555 1_555
H43 C79 1_555 1_555
C80 C79 1_555 1_555
C81 N2 1_555 1_555
C82 H44 1_555 1_555
H45 C82 1_555 1_555
C83 C82 1_555 1_555
H46 C83 1_555 1_555
H47 C83 1_555 1_555
H48 C83 1_555 1_555
C84 H49 1_555 1_555
H50 C84 1_555 1_555
C85 C86 1_555 1_555
C86 H51 1_555 1_555
H52 C86 1_555 1_555
H53 C86 1_555 1_555
C87 C67 1_555 1_555
C95 H69 1_555 1_555
H70 C95 1_555 1_555
C96 C95 1_555 1_555
H71 C96 1_555 1_555
H72 C96 1_555 1_555
H73 C96 1_555 1_555
C97 C84 1_555 1_555
H74 C97 1_555 1_555
H75 C97 1_555 1_555
H76 C97 1_555 1_555
C98 C94 1_555 1_555
H77 C98 1_555 1_555
H78 C98 1_555 1_555
H79 C98 1_555 1_555
N3 C80 1_555 1_555
N4 C84 1_555 1_555
O2 C1 1_555 1_555
O4 C3 1_555 1_555
O6 C3 1_555 1_555
O8 C2 1_555 1_555
O9 C85 1_555 1_555
O10 C2 1_555 1_555
O12 C20 1_555 1_555
O13 C80 1_555 1_555
O14 C20 1_555 1_555
O15 Zn9 1_555 1_555
O16 Zn9 1_555 1_555
O17 Zn4 1_555 1_555
O18 Zn6 1_555 1_555
O19 Zn6 1_555 1_555
O22 C48 1_555 1_555
O23 C48 1_555 1_555
O24 Zn7 1_555 1_555
O25 C66 1_555 1_555
O26 C69 1_555 1_555
O27 C69 1_555 1_555
O28 C65 1_555 1_555
O29 C65 1_555 1_555
O30 C27 1_555 1_555
O31 C27 1_555 1_555
O33 Zn2 1_555 1_555
O35 Zn2 1_555 1_555
O36 C29 1_555 1_555
O38 C30 1_555 1_555
O41 C41 1_555 1_555
O42 C40 1_555 1_555
O43 C36 1_555 1_555
O44 C71 1_555 1_555
O50 Zn4 1_555 1_555
Zn10 O36 1_555 1_555
Zn13 O10 1_555 1_555
Zn14 O22 1_555 1_555
Zn16 O26 1_555 1_555
Zn17 O4 1_555 1_555
Zn18 O8 1_555 1_555
Zn19 O23 1_555 1_555
Zn20 O27 1_555 1_555
Zn21 O30 1_555 1_555
Zn23 O29 1_555 1_555
O55 Zn9 1_555 1_555
O56 Zn4 1_555 1_555
O59 Zn4 1_555 1_555
O60 Zn6 1_555 1_555
O61 Zn8 1_555 1_555
O62 Zn7 1_555 1_555
O63 Zn8 1_555 1_555
O65 Zn2 1_555 1_555
O67 Zn2 1_555 1_555
O68 Zn8 1_555 1_555
O69 Zn7 1_555 1_555
Zn6 O50 1_555 1_555
Zn9 O50 1_555 1_555
C8 C9 1_555 1_555
C18 C19 1_555 1_555
C21 O45 1_555 1_555
C25 C26 1_555 1_555
C28 O33 1_555 1_555
C31 O34 1_555 1_555
C31 O35 1_555 1_555
C36 C37 1_555 1_555
C38 O43 1_555 1_555
C42 O41 1_555 1_555
C46 C47 1_555 1_555
C49 O16 1_555 1_555
C49 O18 1_555 1_555
C59 O42 1_555 1_555
C63 C64 1_555 1_555
C66 O24 1_555 1_555
C72 C87 1_555 1_555
C73 O44 1_555 1_555
C75 O19 1_555 1_555
C82 N3 1_555 1_555
C85 N4 1_555 1_555
C94 N4 1_555 1_555
C95 N3 1_555 1_555
O31 Zn23 1_555 1_555
O38 Zn10 1_555 1_555
O15 H80 1_555 1_555
O15 H81 1_555 1_555
O17 H84 1_555 1_555
O17 H85 1_555 1_555
C77 H87 1_555 1_555
C78 H88 1_555 1_555
C78 H89 1_555 1_555
C78 H90 1_555 1_555
C81 H94 1_555 1_555
C81 H95 1_555 1_555
C74 H96 1_555 1_555
C74 H97 1_555 1_555
C74 H98 1_555 1_555
O7 H101 1_555 1_555
O7 H102 1_555 1_555
Zn1 O11 1_555 1_555
C10 H4 1_555 1_555
C11 C10 1_555 1_555
C12 C11 1_555 1_555
H6 C12 1_555 1_555
H7 C12 1_555 1_555
C50 C52 1_555 1_555
C51 H28 1_555 1_555
C52 C51 1_555 1_555
C53 C52 1_555 1_555
H29 C53 1_555 1_555
C54 C53 1_555 1_555
C55 C54 1_555 1_555
C56 C54 1_555 1_555
H30 C56 1_555 1_555
C57 C51 1_555 1_555
C58 C11 1_555 1_555
H31 C58 1_555 1_555
H32 C58 1_555 1_555
O20 C50 1_555 1_555
O21 C50 1_555 1_555
O32 Zn1 1_555 1_555
O40 C57 1_555 1_555
O48 C55 1_555 1_555
O49 C55 1_555 1_555
Zn11 O37 1_555 1_555
Zn15 O21 1_555 1_555
Zn22 O49 1_555 1_555
Zn24 O48 1_555 1_555
Zn25 O20 1_555 1_555
O57 Zn3 1_555 1_555
O64 Zn1 1_555 1_555
O66 Zn1 1_555 1_555
C10 O47 1_555 1_555
C56 C57 1_555 1_555
C58 O40 1_555 1_555
O39 Zn11 1_555 1_555
O11 H82 1_555 1_555
O11 H83 1_555 1_555
C88 C89 1_555 1_555
C89 H54 1_555 1_555
H55 C89 1_555 1_555
H56 C89 1_555 1_555
C90 H57 1_555 1_555
H58 C90 1_555 1_555
C91 C90 1_555 1_555
H59 C91 1_555 1_555
H60 C91 1_555 1_555
H61 C91 1_555 1_555
C92 H62 1_555 1_555
H63 C92 1_555 1_555
C93 C92 1_555 1_555
H64 C93 1_555 1_555
H65 C93 1_555 1_555
H66 C93 1_555 1_555
N1 C88 1_555 1_555
O3 Zn5 1_555 1_555
O51 Zn5 1_555 1_555
O58 Zn5 1_555 1_555
C88 O3 1_555 1_555
C90 N1 1_555 1_555
C92 N1 1_555 1_555
C88_2 C89_2 1_555 1_555
C89_2 H54_2 1_555 1_555
H55_2 C89_2 1_555 1_555
H56_2 C89_2 1_555 1_555
H63_2 C92_2 1_555 1_555
C93_2 C92_2 1_555 1_555
H64_2 C93_2 1_555 1_555
H65_2 C93_2 1_555 1_555
H66_2 C93_2 1_555 1_555
N1_2 C88_2 1_555 1_555
O3_2 Zn17 1_555 1_555
O58_2 Zn17 1_555 1_555
C88_2 O3_2 1_555 1_555
C92_2 N1_2 1_555 1_555
O20_2 C50_2 1_555 1_555
O21_2 C50_2 1_555 1_555
Zn16 O21_2 1_555 1_555
Zn25_2 O20_2 1_555 1_555
O57_2 Zn12 1_555 1_555
Zn10 O11_2 1_555 1_555
C10_2 H4_2 1_555 1_555
C11_2 C10_2 1_555 1_555
C12_2 C11_2 1_555 1_555
H6_2 C12_2 1_555 1_555
H7_2 C12_2 1_555 1_555
C52_2 C51_2 1_555 1_555
C53_2 C52_2 1_555 1_555
H29_2 C53_2 1_555 1_555
C54_2 C53_2 1_555 1_555
C55_2 C54_2 1_555 1_555
C56_2 C54_2 1_555 1_555
H30_2 C56_2 1_555 1_555
C57_2 C51_2 1_555 1_555
C58_2 C11_2 1_555 1_555
H31_2 C58_2 1_555 1_555
O32_2 Zn10 1_555 1_555
O40_2 C57_2 1_555 1_555
O68 C55_2 1_555 1_555
O69 C55_2 1_555 1_555
C10_2 O47_2 1_555 1_555
C56_2 C57_2 1_555 1_555
C58_2 O40_2 1_555 1_555
O11_2 H82_2 1_555 1_555
O11_2 H83_2 1_555 1_555
Zn4_2 O12_2 1_555 1_555
Zn6_2 O14_2 1_555 1_555
Zn22 O7_2 1_555 1_555
Zn24 O25_2 1_555 1_555
Zn9_2 O13_2 1_555 1_555
C1_2 C4_2 1_555 1_555
C4_2 C5_2 1_555 1_555
C5_2 H1_2 1_555 1_555
C14_2 C15_2 1_555 1_555
C16_2 C15_2 1_555 1_555
C17_2 C16_2 1_555 1_555
H11_2 C17_2 1_555 1_555
C18_2 C17_2 1_555 1_555
C19_2 C14_2 1_555 1_555
H12_2 C19_2 1_555 1_555
C20_2 C18_2 1_555 1_555
C29_2 C34_2 1_555 1_555
C30_2 C16_2 1_555 1_555
C35_2 C34_2 1_555 1_555
H17_2 C35_2 1_555 1_555
H23_2 C41_2 1_555 1_555
C42_2 C43_2 1_555 1_555
C43_2 H25_2 1_555 1_555
C44_2 C43_2 1_555 1_555
C45_2 C44_2 1_555 1_555
H26_2 C45_2 1_555 1_555
C46_2 C45_2 1_555 1_555
C47_2 C42_2 1_555 1_555
H27_2 C47_2 1_555 1_555
C48_2 C44_2 1_555 1_555
C49_2 C46_2 1_555 1_555
C74_2 C75_2 1_555 1_555
C75_2 N2_2 1_555 1_555
C76_2 C77_2 1_555 1_555
C77_2 N2_2 1_555 1_555
C78_2 C81_2 1_555 1_555
C79_2 H41_2 1_555 1_555
H42_2 C79_2 1_555 1_555
H43_2 C79_2 1_555 1_555
C80_2 C79_2 1_555 1_555
C81_2 N2_2 1_555 1_555
O2_2 C1_2 1_555 1_555
O12_2 C20_2 1_555 1_555
O13_2 C80_2 1_555 1_555
O14_2 C20_2 1_555 1_555
O15_2 Zn9_2 1_555 1_555
O16_2 Zn9_2 1_555 1_555
O17_2 Zn4_2 1_555 1_555
O18_2 Zn6_2 1_555 1_555
O19_2 Zn6_2 1_555 1_555
O22_2 C48_2 1_555 1_555
O23_2 C48_2 1_555 1_555
O24_2 Zn22 1_555 1_555
O25_2 C66_2 1_555 1_555
O64 C29_2 1_555 1_555
O66 C30_2 1_555 1_555
O41_2 C41_2 1_555 1_555
O50_2 Zn4_2 1_555 1_555
Zn13 O22_2 1_555 1_555
Zn18 O23_2 1_555 1_555
O55_2 Zn9_2 1_555 1_555
O56_2 Zn4_2 1_555 1_555
O59_2 Zn4_2 1_555 1_555
O60_2 Zn6_2 1_555 1_555
O61_2 Zn24 1_555 1_555
O62_2 Zn22 1_555 1_555
O63_2 Zn24 1_555 1_555
Zn6_2 O50_2 1_555 1_555
Zn9_2 O50_2 1_555 1_555
C18_2 C19_2 1_555 1_555
C42_2 O41_2 1_555 1_555
C46_2 C47_2 1_555 1_555
C49_2 O16_2 1_555 1_555
C49_2 O18_2 1_555 1_555
C66_2 O24_2 1_555 1_555
C75_2 O19_2 1_555 1_555
O15_2 H80_2 1_555 1_555
O15_2 H81_2 1_555 1_555
O17_2 H84_2 1_555 1_555
O17_2 H85_2 1_555 1_555
C77_2 H86_2 1_555 1_555
C77_2 H87_2 1_555 1_555
C78_2 H88_2 1_555 1_555
C78_2 H89_2 1_555 1_555
C78_2 H90_2 1_555 1_555
C76_2 H91_2 1_555 1_555
C76_2 H92_2 1_555 1_555
C76_2 H93_2 1_555 1_555
C81_2 H94_2 1_555 1_555
C81_2 H95_2 1_555 1_555
C74_2 H96_2 1_555 1_555
C74_2 H97_2 1_555 1_555
C74_2 H98_2 1_555 1_555
O7_2 H101_2 1_555 1_555
O7_2 H102_2 1_555 1_555
Zn11 O9_2 1_555 1_555
C2_2 C61_2 1_555 1_555
C3_2 C8_2 1_555 1_555
C7_2 C6_2 1_555 1_555
C8_2 C7_2 1_555 1_555
H3_2 C9_2 1_555 1_555
H9_2 C13_2 1_555 1_555
C21_2 C22_2 1_555 1_555
C22_2 H13_2 1_555 1_555
C23_2 C22_2 1_555 1_555
C24_2 C23_2 1_555 1_555
H14_2 C24_2 1_555 1_555
C25_2 C24_2 1_555 1_555
C26_2 C21_2 1_555 1_555
C27_2 C23_2 1_555 1_555
C28_2 C25_2 1_555 1_555
C31_2 C32_2 1_555 1_555
C32_2 C33_2 1_555 1_555
C33_2 H16_2 1_555 1_555
C37_2 C32_2 1_555 1_555
H18_2 C37_2 1_555 1_555
C38_2 H19_2 1_555 1_555
H20_2 C38_2 1_555 1_555
C39_2 C38_2 1_555 1_555
C40_2 C39_2 1_555 1_555
H21_2 C40_2 1_555 1_555
H22_2 C40_2 1_555 1_555
C59_2 C60_2 1_555 1_555
C60_2 H33_2 1_555 1_555
C61_2 C60_2 1_555 1_555
C62_2 C61_2 1_555 1_555
H34_2 C62_2 1_555 1_555
C63_2 C62_2 1_555 1_555
C64_2 C59_2 1_555 1_555
H35_2 C64_2 1_555 1_555
C65_2 C63_2 1_555 1_555
C67_2 H36_2 1_555 1_555
C68_2 C67_2 1_555 1_555
C69_2 C68_2 1_555 1_555
C70_2 C68_2 1_555 1_555
H37_2 C70_2 1_555 1_555
C71_2 C70_2 1_555 1_555
C72_2 C71_2 1_555 1_555
C73_2 C39_2 1_555 1_555
H40_2 C73_2 1_555 1_555
H45_2 C82_2 1_555 1_555
C83_2 C82_2 1_555 1_555
H46_2 C83_2 1_555 1_555
H47_2 C83_2 1_555 1_555
H48_2 C83_2 1_555 1_555
C84_2 H49_2 1_555 1_555
H50_2 C84_2 1_555 1_555
C85_2 C86_2 1_555 1_555
C86_2 H51_2 1_555 1_555
H52_2 C86_2 1_555 1_555
H53_2 C86_2 1_555 1_555
C87_2 C67_2 1_555 1_555
C94_2 H67 1_555 1_555
H68 C94_2 1_555 1_555
C95_2 H69_2 1_555 1_555
H70_2 C95_2 1_555 1_555
C96_2 C95_2 1_555 1_555
H71_2 C96_2 1_555 1_555
H73_2 C96_2 1_555 1_555
C97_2 C84_2 1_555 1_555
H74_2 C97_2 1_555 1_555
H75_2 C97_2 1_555 1_555
H76_2 C97_2 1_555 1_555
C98_2 C94_2 1_555 1_555
H77_2 C98_2 1_555 1_555
H78_2 C98_2 1_555 1_555
H79_2 C98_2 1_555 1_555
N4_2 C84_2 1_555 1_555
O51 C3_2 1_555 1_555
O52 C3_2 1_555 1_555
O8_2 C2_2 1_555 1_555
O9_2 C85_2 1_555 1_555
O10_2 C2_2 1_555 1_555
O26_2 C69_2 1_555 1_555
O27_2 C69_2 1_555 1_555
O28_2 C65_2 1_555 1_555
O29_2 C65_2 1_555 1_555
O30_2 C27_2 1_555 1_555
O31_2 C27_2 1_555 1_555
O33_2 Zn11 1_555 1_555
O35_2 Zn11 1_555 1_555
O42_2 C40_2 1_555 1_555
O43_2 C36_2 1_555 1_555
O44_2 C71_2 1_555 1_555
Zn14 O10_2 1_555 1_555
Zn15 O26_2 1_555 1_555
Zn19 O8_2 1_555 1_555
Zn20_2 O27_2 1_555 1_555
Zn21_2 O30_2 1_555 1_555
Zn23_2 O29_2 1_555 1_555
C8_2 C9_2 1_555 1_555
C21_2 O45_2 1_555 1_555
C25_2 C26_2 1_555 1_555
C28_2 O33_2 1_555 1_555
C31_2 O34_2 1_555 1_555
C31_2 O35_2 1_555 1_555
C36_2 C37_2 1_555 1_555
C38_2 O43_2 1_555 1_555
C59_2 O42_2 1_555 1_555
C63_2 C64_2 1_555 1_555
C72_2 C87_2 1_555 1_555
C73_2 O44_2 1_555 1_555
C82_2 N3_2 1_555 1_555
C85_2 N4_2 1_555 1_555
C94_2 N4_2 1_555 1_555
C95_2 N3_2 1_555 1_555
O31_2 Zn23_2 1_555 1_555
Zn21 O7_3 1_555 1_555
Zn23 O25_3 1_555 1_555
C29_3 C34_3 1_555 1_555
C35_3 C34_3 1_555 1_555
H17_3 C35_3 1_555 1_555
H23_3 C41_3 1_555 1_555
C42_3 C43_3 1_555 1_555
C43_3 H25_3 1_555 1_555
O24_3 Zn21 1_555 1_555
O25_3 C66_3 1_555 1_555
O36_2 C29_3 1_555 1_555
O37_2 C29_3 1_555 1_555
O41_3 C41_3 1_555 1_555
Zn10_2 O36_2 1_555 1_555
Zn11_2 O37_2 1_555 1_555
O68_2 Zn23 1_555 1_555
O69_2 Zn21 1_555 1_555
C42_3 O41_3 1_555 1_555
C66_3 O24_3 1_555 1_555
O7_3 H101_3 1_555 1_555
O7_3 H102_3 1_555 1_555
C31_3 C32_3 1_555 1_555
C32_3 C33_3 1_555 1_555
C33_3 H16_3 1_555 1_555
C37_3 C32_3 1_555 1_555
H18_3 C37_3 1_555 1_555
C38_3 H19_3 1_555 1_555
H20_3 C38_3 1_555 1_555
C39_3 C38_3 1_555 1_555
C40_3 C39_3 1_555 1_555
H21_3 C40_3 1_555 1_555
H22_3 C40_3 1_555 1_555
C67_3 H36_3 1_555 1_555
C68_3 C67_3 1_555 1_555
C69_3 C68_3 1_555 1_555
C70_3 C68_3 1_555 1_555
H37_3 C70_3 1_555 1_555
C71_3 C70_3 1_555 1_555
C72_3 C71_3 1_555 1_555
C73_3 C39_3 1_555 1_555
H40_3 C73_3 1_555 1_555
H50_3 C84_3 1_555 1_555
C87_3 C67_3 1_555 1_555
C94_3 H67_2 1_555 1_555
H68_2 C94_3 1_555 1_555
C97_3 C84_3 1_555 1_555
H74_3 C97_3 1_555 1_555
H75_3 C97_3 1_555 1_555
H76_3 C97_3 1_555 1_555
C98_3 C94_3 1_555 1_555
H77_3 C98_3 1_555 1_555
H78_3 C98_3 1_555 1_555
H79_3 C98_3 1_555 1_555
N4_3 C84_3 1_555 1_555
O59 C69_3 1_555 1_555
O60 C69_3 1_555 1_555
O42_3 C40_3 1_555 1_555
O43_3 C36_3 1_555 1_555
O44_3 C71_3 1_555 1_555
C31_3 O35_3 1_555 1_555
C36_3 C37_3 1_555 1_555
C38_3 O43_3 1_555 1_555
C72_3 C87_3 1_555 1_555
C73_3 O44_3 1_555 1_555
C94_3 N4_3 1_555 1_555
Zn13 O2_3 1_555 1_555
Zn16 O12_3 1_555 1_555
Zn18 O1_3 1_555 1_555
Zn20 O14_3 1_555 1_555
Zn25_2 O13_3 1_555 1_555
C1_3 C4_3 1_555 1_555
C4_3 C5_3 1_555 1_555
C5_3 H1_3 1_555 1_555
C14_3 C15_3 1_555 1_555
C15_3 H10_3 1_555 1_555
C16_3 C15_3 1_555 1_555
C17_3 C16_3 1_555 1_555
H11_3 C17_3 1_555 1_555
C18_3 C17_3 1_555 1_555
C19_3 C14_3 1_555 1_555
H12_3 C19_3 1_555 1_555
C20_3 C18_3 1_555 1_555
C30_3 C16_3 1_555 1_555
C45_3 C44_3 1_555 1_555
H26_3 C45_3 1_555 1_555
C46_3 C45_3 1_555 1_555
H27_3 C47_3 1_555 1_555
C48_3 C44_3 1_555 1_555
C49_3 C46_3 1_555 1_555
C74_3 C75_3 1_555 1_555
C75_3 N2_3 1_555 1_555
C76_3 C77_3 1_555 1_555
C77_3 N2_3 1_555 1_555
C78_3 C81_3 1_555 1_555
C79_3 H41_3 1_555 1_555
H42_3 C79_3 1_555 1_555
H43_3 C79_3 1_555 1_555
C80_3 C79_3 1_555 1_555
C81_3 N2_3 1_555 1_555
C88_3 C89_3 1_555 1_555
C89_3 H54_3 1_555 1_555
H55_3 C89_3 1_555 1_555
H56_3 C89_3 1_555 1_555
H63_3 C92_3 1_555 1_555
C93_3 C92_3 1_555 1_555
H64_3 C93_3 1_555 1_555
H65_3 C93_3 1_555 1_555
H66_3 C93_3 1_555 1_555
N1_3 C88_3 1_555 1_555
O1_3 C1_3 1_555 1_555
O2_3 C1_3 1_555 1_555
O3_3 Zn18 1_555 1_555
O5_3 Zn13 1_555 1_555
O12_3 C20_3 1_555 1_555
O13_3 C80_3 1_555 1_555
O14_3 C20_3 1_555 1_555
O15_3 Zn25_2 1_555 1_555
O16_3 Zn25_2 1_555 1_555
O17_3 Zn16 1_555 1_555
O18_3 Zn20 1_555 1_555
O19_3 Zn20 1_555 1_555
O55_2 C50_3 1_555 1_555
O56_2 C50_3 1_555 1_555
O57_2 C48_3 1_555 1_555
O38_2 C30_3 1_555 1_555
O39_2 C30_3 1_555 1_555
O50_3 Zn16 1_555 1_555
O51_2 Zn18 1_555 1_555
O52_2 Zn13 1_555 1_555
Zn20 O50_3 1_555 1_555
Zn25_2 O50_3 1_555 1_555
C14_3 O46_3 1_555 1_555
C18_3 C19_3 1_555 1_555
C46_3 C47_3 1_555 1_555
C49_3 O16_3 1_555 1_555
C49_3 O18_3 1_555 1_555
C75_3 O19_3 1_555 1_555
C88_3 O3_3 1_555 1_555
C92_3 N1_3 1_555 1_555
O15_3 H80_3 1_555 1_555
O15_3 H81_3 1_555 1_555
O17_3 H84_3 1_555 1_555
O17_3 H85_3 1_555 1_555
C77_3 H86_3 1_555 1_555
C77_3 H87_3 1_555 1_555
C78_3 H88_3 1_555 1_555
C78_3 H89_3 1_555 1_555
C78_3 H90_3 1_555 1_555
C76_3 H91_3 1_555 1_555
C76_3 H92_3 1_555 1_555
C76_3 H93_3 1_555 1_555
C81_3 H94_3 1_555 1_555
C81_3 H95_3 1_555 1_555
C74_3 H96_3 1_555 1_555
C74_3 H97_3 1_555 1_555
C74_3 H98_3 1_555 1_555
O5_3 H99_3 1_555 1_555
O5_3 H100_3 1_555 1_555
Zn1_2 O11_3 1_555 1_555
C2_3 C61_3 1_555 1_555
C3_3 C8_3 1_555 1_555
C7_3 C6_3 1_555 1_555
H2_3 C7_3 1_555 1_555
C8_3 C7_3 1_555 1_555
H3_3 C9_3 1_555 1_555
C10_3 H4_3 1_555 1_555
H5_3 C10_3 1_555 1_555
C11_3 C10_3 1_555 1_555
C12_3 C11_3 1_555 1_555
H6_3 C12_3 1_555 1_555
H7_3 C12_3 1_555 1_555
C13_3 C11_3 1_555 1_555
H9_3 C13_3 1_555 1_555
C21_3 C22_3 1_555 1_555
C22_3 H13_3 1_555 1_555
C23_3 C22_3 1_555 1_555
C24_3 C23_3 1_555 1_555
H14_3 C24_3 1_555 1_555
C25_3 C24_3 1_555 1_555
C26_3 C21_3 1_555 1_555
H15_3 C26_3 1_555 1_555
C27_3 C23_3 1_555 1_555
C28_3 C25_3 1_555 1_555
C52_3 C51_3 1_555 1_555
C53_3 C52_3 1_555 1_555
H29_3 C53_3 1_555 1_555
C54_3 C53_3 1_555 1_555
C55_3 C54_3 1_555 1_555
C56_3 C54_3 1_555 1_555
H30_3 C56_3 1_555 1_555
C57_3 C51_3 1_555 1_555
C58_3 C11_3 1_555 1_555
H31_3 C58_3 1_555 1_555
C59_3 C60_3 1_555 1_555
C61_3 C60_3 1_555 1_555
C62_3 C61_3 1_555 1_555
H34_3 C62_3 1_555 1_555
C63_3 C62_3 1_555 1_555
C64_3 C59_3 1_555 1_555
H35_3 C64_3 1_555 1_555
C65_3 C63_3 1_555 1_555
H45_3 C82_3 1_555 1_555
C83_3 C82_3 1_555 1_555
H46_3 C83_3 1_555 1_555
H47_3 C83_3 1_555 1_555
H48_3 C83_3 1_555 1_555
C85_3 C86_3 1_555 1_555
C86_3 H51_3 1_555 1_555
H52_3 C86_3 1_555 1_555
H53_3 C86_3 1_555 1_555
C90_2 H57_2 1_555 1_555
H58_2 C90_2 1_555 1_555
C91_2 C90_2 1_555 1_555
H59_2 C91_2 1_555 1_555
H60_2 C91_2 1_555 1_555
C95_3 H69_3 1_555 1_555
H70_3 C95_3 1_555 1_555
C96_3 C95_3 1_555 1_555
H71_3 C96_3 1_555 1_555
H73_3 C96_3 1_555 1_555
O4_2 C3_3 1_555 1_555
O6_2 C3_3 1_555 1_555
O53 C2_3 1_555 1_555
O28_3 C65_3 1_555 1_555
O61 C65_3 1_555 1_555
O62 C27_3 1_555 1_555
O63 C27_3 1_555 1_555
O32_3 Zn1_2 1_555 1_555
O33_3 Zn2_2 1_555 1_555
O34_3 Zn1_2 1_555 1_555
O40_3 C57_3 1_555 1_555
O45_3 C12_3 1_555 1_555
O47_3 C6_3 1_555 1_555
O48_2 C55_3 1_555 1_555
O49_2 C55_3 1_555 1_555
Zn14 O6_2 1_555 1_555
Zn19 O4_2 1_555 1_555
Zn21_2 O49_2 1_555 1_555
Zn23_2 O48_2 1_555 1_555
O64_2 Zn1_2 1_555 1_555
O65_2 Zn2_2 1_555 1_555
C8_3 C9_3 1_555 1_555
C10_3 O47_3 1_555 1_555
C21_3 O45_3 1_555 1_555
C25_3 C26_3 1_555 1_555
C28_3 O32_3 1_555 1_555
C28_3 O33_3 1_555 1_555
C56_3 C57_3 1_555 1_555
C58_3 O40_3 1_555 1_555
C63_3 C64_3 1_555 1_555
C82_3 N3_3 1_555 1_555
C95_3 N3_3 1_555 1_555
O11_3 H82_3 1_555 1_555
O11_3 H83_3 1_555 1_555
Zn10_2 O11_4 1_555 1_555
Zn14 O2_4 1_555 1_555
Zn15 O12_4 1_555 1_555
Zn19 O1_4 1_555 1_555
Zn20_2 O14_4 1_555 1_555
Zn25 O13_4 1_555 1_555
C1_4 C4_4 1_555 1_555
C2_4 C61_4 1_555 1_555
C3_4 C8_4 1_555 1_555
C4_4 C5_4 1_555 1_555
C5_4 H1_4 1_555 1_555
C6_4 C5_4 1_555 1_555
C7_4 C6_4 1_555 1_555
H2_4 C7_4 1_555 1_555
C8_4 C7_4 1_555 1_555
C9_4 C4_4 1_555 1_555
H3_4 C9_4 1_555 1_555
C10_4 H4_4 1_555 1_555
H5_4 C10_4 1_555 1_555
C11_4 C10_4 1_555 1_555
C12_4 C11_4 1_555 1_555
H6_4 C12_4 1_555 1_555
H7_4 C12_4 1_555 1_555
C13_4 C11_4 1_555 1_555
H8_4 C13_4 1_555 1_555
H9_4 C13_4 1_555 1_555
C14_4 C15_4 1_555 1_555
C15_4 H10_4 1_555 1_555
C16_4 C15_4 1_555 1_555
C17_4 C16_4 1_555 1_555
H11_4 C17_4 1_555 1_555
C18_4 C17_4 1_555 1_555
C19_4 C14_4 1_555 1_555
H12_4 C19_4 1_555 1_555
C20_4 C18_4 1_555 1_555
C21_4 C22_4 1_555 1_555
C22_4 H13_4 1_555 1_555
C23_4 C22_4 1_555 1_555
C24_4 C23_4 1_555 1_555
H14_4 C24_4 1_555 1_555
C25_4 C24_4 1_555 1_555
C26_4 C21_4 1_555 1_555
H15_4 C26_4 1_555 1_555
C27_4 C23_4 1_555 1_555
C28_4 C25_4 1_555 1_555
C30_4 C16_4 1_555 1_555
C45_4 C44_4 1_555 1_555
H26_4 C45_4 1_555 1_555
C46_4 C45_4 1_555 1_555
H27_4 C47_4 1_555 1_555
C48_4 C44_4 1_555 1_555
C49_4 C46_4 1_555 1_555
C50_4 C52_4 1_555 1_555
C51_4 H28_4 1_555 1_555
C52_4 C51_4 1_555 1_555
C53_4 C52_4 1_555 1_555
H29_4 C53_4 1_555 1_555
C54_4 C53_4 1_555 1_555
C55_4 C54_4 1_555 1_555
C56_4 C54_4 1_555 1_555
H30_4 C56_4 1_555 1_555
C57_4 C51_4 1_555 1_555
C58_4 C11_4 1_555 1_555
H31_4 C58_4 1_555 1_555
H32_4 C58_4 1_555 1_555
C59_4 C60_4 1_555 1_555
C61_4 C60_4 1_555 1_555
C62_4 C61_4 1_555 1_555
H34_4 C62_4 1_555 1_555
C63_4 C62_4 1_555 1_555
C64_4 C59_4 1_555 1_555
H35_4 C64_4 1_555 1_555
C65_4 C63_4 1_555 1_555
C74_4 C75_4 1_555 1_555
C75_4 N2_4 1_555 1_555
C77_4 N2_4 1_555 1_555
C78_4 C81_4 1_555 1_555
C79_4 H41_4 1_555 1_555
H42_4 C79_4 1_555 1_555
H43_4 C79_4 1_555 1_555
C80_4 C79_4 1_555 1_555
C81_4 N2_4 1_555 1_555
C82_4 H44_4 1_555 1_555
H45_4 C82_4 1_555 1_555
C83_4 C82_4 1_555 1_555
H46_4 C83_4 1_555 1_555
H47_4 C83_4 1_555 1_555
H48_4 C83_4 1_555 1_555
C85_4 C86_4 1_555 1_555
C86_4 H51_4 1_555 1_555
H52_4 C86_4 1_555 1_555
H53_4 C86_4 1_555 1_555
C88_4 C89_4 1_555 1_555
C89_4 H54_4 1_555 1_555
H55_4 C89_4 1_555 1_555
H56_4 C89_4 1_555 1_555
C90_3 H57_3 1_555 1_555
H58_3 C90_3 1_555 1_555
C91_3 C90_3 1_555 1_555
H59_3 C91_3 1_555 1_555
H60_3 C91_3 1_555 1_555
H61_4 C91_3 1_555 1_555
C92_4 H62_3 1_555 1_555
H63_4 C92_4 1_555 1_555
C93_4 C92_4 1_555 1_555
H64_4 C93_4 1_555 1_555
H65_4 C93_4 1_555 1_555
H66_4 C93_4 1_555 1_555
C95_4 H69_4 1_555 1_555
H70_4 C95_4 1_555 1_555
C96_4 C95_4 1_555 1_555
H71_4 C96_4 1_555 1_555
H72_4 C96_4 1_555 1_555
H73_4 C96_4 1_555 1_555
N1_4 C88_4 1_555 1_555
N3_4 C80_4 1_555 1_555
O1_4 C1_4 1_555 1_555
O2_4 C1_4 1_555 1_555
O3_4 Zn19 1_555 1_555
O51_2 C3_4 1_555 1_555
O5_4 Zn14 1_555 1_555
O52_2 C3_4 1_555 1_555
O53_2 C2_4 1_555 1_555
O12_4 C20_4 1_555 1_555
O13_4 C80_4 1_555 1_555
O14_4 C20_4 1_555 1_555
O15_4 Zn25 1_555 1_555
O16_4 Zn25 1_555 1_555
O17_4 Zn15 1_555 1_555
O18_4 Zn20_2 1_555 1_555
O19_4 Zn20_2 1_555 1_555
O55 C50_4 1_555 1_555
O56 C50_4 1_555 1_555
O57 C48_4 1_555 1_555
O28_4 C65_4 1_555 1_555
O61_2 C65_4 1_555 1_555
O62_2 C27_4 1_555 1_555
O63_2 C27_4 1_555 1_555
O32_4 Zn10_2 1_555 1_555
O33_4 Zn11_2 1_555 1_555
O34_4 Zn10_2 1_555 1_555
O66_2 C30_4 1_555 1_555
O67_2 C30_4 1_555 1_555
O40_4 C57_4 1_555 1_555
O45_4 C12_4 1_555 1_555
O46_4 C13_4 1_555 1_555
O47_4 C6_4 1_555 1_555
O68_2 C55_4 1_555 1_555
O69_2 C55_4 1_555 1_555
O50_4 Zn15 1_555 1_555
Zn20_2 O50_4 1_555 1_555
Zn25 O50_4 1_555 1_555
C8_4 C9_4 1_555 1_555
C10_4 O47_4 1_555 1_555
C14_4 O46_4 1_555 1_555
C18_4 C19_4 1_555 1_555
C21_4 O45_4 1_555 1_555
C25_4 C26_4 1_555 1_555
C28_4 O32_4 1_555 1_555
C28_4 O33_4 1_555 1_555
C46_4 C47_4 1_555 1_555
C49_4 O16_4 1_555 1_555
C49_4 O18_4 1_555 1_555
C56_4 C57_4 1_555 1_555
C58_4 O40_4 1_555 1_555
C63_4 C64_4 1_555 1_555
C75_4 O19_4 1_555 1_555
C82_4 N3_4 1_555 1_555
C88_4 O3_4 1_555 1_555
C90_3 N1_4 1_555 1_555
C92_4 N1_4 1_555 1_555
C95_4 N3_4 1_555 1_555
O15_4 H80_4 1_555 1_555
O15_4 H81_4 1_555 1_555
O11_4 H82_4 1_555 1_555
O11_4 H83_4 1_555 1_555
O17_4 H84_4 1_555 1_555
O17_4 H85_4 1_555 1_555
C77_4 H87_4 1_555 1_555
C78_4 H88_4 1_555 1_555
C78_4 H89_4 1_555 1_555
C78_4 H90_4 1_555 1_555
C81_4 H94_4 1_555 1_555
C81_4 H95_4 1_555 1_555
C74_4 H96_4 1_555 1_555
C74_4 H97_4 1_555 1_555
C74_4 H98_4 1_555 1_555
O5_4 H99_4 1_555 1_555
O5_4 H100_4 1_555 1_555
Zn21_2 O7_4 1_555 1_555
Zn23_2 O25_4 1_555 1_555
C29_4 C34_4 1_555 1_555
C31_4 C32_4 1_555 1_555
C32_4 C33_4 1_555 1_555
C33_4 H16_4 1_555 1_555
C34_4 C33_4 1_555 1_555
C35_4 C34_4 1_555 1_555
H17_4 C35_4 1_555 1_555
C36_4 C35_4 1_555 1_555
C37_4 C32_4 1_555 1_555
H18_4 C37_4 1_555 1_555
C38_4 H19_4 1_555 1_555
H20_4 C38_4 1_555 1_555
C39_4 C38_4 1_555 1_555
C40_4 C39_4 1_555 1_555
H21_4 C40_4 1_555 1_555
H22_4 C40_4 1_555 1_555
C41_4 C39_4 1_555 1_555
H23_4 C41_4 1_555 1_555
C42_4 C43_4 1_555 1_555
C43_4 H25_4 1_555 1_555
C66_4 C87_4 1_555 1_555
C67_4 H36_4 1_555 1_555
C68_4 C67_4 1_555 1_555
C69_4 C68_4 1_555 1_555
C70_4 C68_4 1_555 1_555
H37_4 C70_4 1_555 1_555
C71_4 C70_4 1_555 1_555
C72_4 C71_4 1_555 1_555
H38_4 C72_4 1_555 1_555
C73_4 C39_4 1_555 1_555
H39_4 C73_4 1_555 1_555
H40_4 C73_4 1_555 1_555
H50_4 C84_4 1_555 1_555
C87_4 C67_4 1_555 1_555
C97_4 C84_4 1_555 1_555
H74_4 C97_4 1_555 1_555
H75_4 C97_4 1_555 1_555
H76_4 C97_4 1_555 1_555
C98_4 C94_4 1_555 1_555
H77_4 C98_4 1_555 1_555
H78_4 C98_4 1_555 1_555
H79_4 C98_4 1_555 1_555
N4_4 C84_4 1_555 1_555
O24_4 Zn21_2 1_555 1_555
O25_4 C66_4 1_555 1_555
O59_2 C69_4 1_555 1_555
O60_2 C69_4 1_555 1_555
O64_2 C29_4 1_555 1_555
O65_2 C29_4 1_555 1_555
O41_4 C41_4 1_555 1_555
O42_4 C40_4 1_555 1_555
O43_4 C36_4 1_555 1_555
O44_4 C71_4 1_555 1_555
C31_4 O35_4 1_555 1_555
C36_4 C37_4 1_555 1_555
C38_4 O43_4 1_555 1_555
C42_4 O41_4 1_555 1_555
C66_4 O24_4 1_555 1_555
C72_4 C87_4 1_555 1_555
C73_4 O44_4 1_555 1_555
C94_4 N4_4 1_555 1_555
O7_4 H101_4 1_555 1_555
O7_4 H102_4 1_555 1_555
C90_4 H57_4 1_555 1_555
H58_4 C90_4 1_555 1_555
C91_4 C90_4 1_555 1_555
H59_4 C91_4 1_555 1_555
H60_4 C91_4 1_555 1_555
C76_4 H91_4 1_555 1_555
C76_4 H92_4 1_555 1_555
C76_4 H93_4 1_555 1_555

#END
