
###############################################################################
#
# This file contains modified crystal structure data generated from the
# MOF subset of the Cambridge Structural Database (CSD) v543 
# hosted by the Cambridge Crystallographic Data Centre (CCDC).
#
# This work is licensed under the Creative Commons
# Attribution-NonCommercial-ShareAlike 4.0 International License.
# To view a copy of this license, visit
# http://creativecommons.org/licenses/by-nc-sa/4.0/
# or send a letter to
# Creative Commons, PO Box 1866, Mountain View, CA 94042, USA.
#
# CIF created using the CSD Python API on 29 September 2022
# The structure has been converted into the P1 space group
# The structure has a 3D framework
# The original CSD entry WEHNIK is in the triclinic crystal system
# The framework has been calculated to contain at least 10.0% void space
# The void calculation uses a probe of radius 1.32A, grid spacing 0.4
#
###############################################################################

data_WEHNIK
_chemical_formula_moiety         '(C124 H152 Co4 N16 O40)n'
_symmetry_cell_setting           triclinic
_symmetry_space_group_name_H-M   'P 1'
_symmetry_Int_Tables_number      1
_space_group_name_Hall           'P 1'
loop_
_symmetry_equiv_pos_site_id
_symmetry_equiv_pos_as_xyz
1 x,y,z
_cell_length_a                   15.0213(15)
_cell_length_b                   15.7466(15)
_cell_length_c                   16.7676(16)
_cell_angle_alpha                88.056(5)
_cell_angle_beta                 70.721(4)
_cell_angle_gamma                86.869(5)
_cell_volume                     3737.58
loop_
_atom_site_label
_atom_site_type_symbol
_atom_site_fract_x
_atom_site_fract_y
_atom_site_fract_z
_atom_site_U_iso_or_equiv
_atom_site_thermal_displace_type
N11 N 0.19147(19) 0.27621(16) 0.36471(16) 0.0341 Uani
C74 C 0.2407(3) 0.3030(2) 0.4117(2) 0.0402 Uani
H93 H 0.3047 0.3119 0.3857 0.0480 Uiso
C75 C 0.2010(3) 0.3181(2) 0.4967(2) 0.0487 Uani
H94 H 0.2372 0.3368 0.5275 0.0580 Uiso
C76 C 0.1067(3) 0.3051(2) 0.5350(2) 0.0489 Uani
H95 H 0.0783 0.3151 0.5924 0.0590 Uiso
C77 C 0.0538(3) 0.2770(2) 0.4884(2) 0.0403 Uani
C78 C 0.0999(2) 0.26431(19) 0.4036(2) 0.0354 Uani
H96 H 0.0650 0.2463 0.3712 0.0420 Uiso
Co8 Co 0.25356(3) 0.24695(2) 0.23241(3) 0.0281 Uani
O24 O 0.3984(2) 0.1460(2) 0.39453(18) 0.0675 Uani
N15 N 0.68344(19) 0.22225(16) 0.36802(17) 0.0352 Uani
N16 N 0.3804(2) 0.1523(2) 0.53082(19) 0.0494 Uani
H122 H 0.3591 0.1291 0.5802 0.0590 Uiso
C96 C 0.7313(3) 0.1957(2) 0.4197(2) 0.0392 Uani
H123 H 0.7968 0.1898 0.3976 0.0470 Uiso
C97 C 0.6880(3) 0.1768(2) 0.5035(2) 0.0468 Uani
H124 H 0.7236 0.1589 0.5375 0.0560 Uiso
C98 C 0.5915(3) 0.1845(2) 0.5367(2) 0.0444 Uani
H125 H 0.5609 0.1706 0.5932 0.0530 Uiso
C99 C 0.5396(2) 0.2132(2) 0.4854(2) 0.0378 Uani
C100 C 0.5893(2) 0.2304(2) 0.4015(2) 0.0376 Uani
H126 H 0.5553 0.2487 0.3663 0.0450 Uiso
C101 C 0.4342(3) 0.2292(2) 0.5197(3) 0.0495 Uani
H127 H 0.4152 0.2682 0.4815 0.0590 Uiso
H128 H 0.4181 0.2568 0.5738 0.0590 Uiso
C102 C 0.3637(3) 0.1179(2) 0.4667(3) 0.0460 Uani
C103 C 0.2971(3) 0.0457(2) 0.4861(3) 0.0569 Uani
H129 H 0.3230 0.0015 0.4448 0.0680 Uiso
H130 H 0.2922 0.0216 0.5414 0.0680 Uiso
C104 C 0.1996(3) 0.0742(2) 0.4851(3) 0.0512 Uani
H131 H 0.2061 0.1040 0.4321 0.0610 Uiso
H132 H 0.1722 0.1146 0.5301 0.0610 Uiso
C105 C 0.1316(3) 0.0042(2) 0.4955(3) 0.0512 Uani
C106 C 0.0343(3) 0.0344(2) 0.4966(3) 0.0486 Uani
H135 H 0.0074 0.0724 0.5438 0.0730 Uiso
H136 H 0.0404 0.0674 0.4452 0.0730 Uiso
Co9 Co 0.75251(3) 0.25131(2) 0.23644(3) 0.0291 Uani
O2 O 0.1018(2) 0.6525(2) 0.59447(18) 0.0698 Uani
N4 N 0.1111(2) 0.6627(2) 0.45983(19) 0.0483 Uani
H2 H 0.1329 0.6412 0.4103 0.0580 Uiso
C17 C 0.0492(3) 0.7398(2) 0.4726(2) 0.0486 Uani
H23 H 0.0591 0.7686 0.4185 0.0580 Uiso
H24 H 0.0668 0.7778 0.5087 0.0580 Uiso
C18 C 0.1343(3) 0.6253(2) 0.5225(3) 0.0466 Uani
C19 C 0.2044(3) 0.5508(3) 0.5011(3) 0.0569 Uani
H25 H 0.2121 0.5312 0.4449 0.0680 Uiso
H26 H 0.1820 0.5044 0.5410 0.0680 Uiso
C20 C 0.2991(3) 0.5788(2) 0.5049(3) 0.0490 Uani
H27 H 0.3234 0.6212 0.4607 0.0590 Uiso
H28 H 0.2884 0.6055 0.5587 0.0590 Uiso
C21 C 0.3730(3) 0.5066(2) 0.4945(2) 0.0480 Uani
H29 H 0.3479 0.4628 0.5369 0.0580 Uiso
H30 H 0.3864 0.4816 0.4394 0.0580 Uiso
C22 C 0.4635(2) 0.5359(2) 0.5028(2) 0.0452 Uani
H31 H 0.4493 0.5637 0.5566 0.0680 Uiso
H32 H 0.4900 0.5775 0.4584 0.0680 Uiso
O22 O 0.8982(2) 0.3475(2) 0.40553(18) 0.0698 Uani
N12 N 0.8889(2) 0.3373(2) 0.54017(19) 0.0483 Uani
H92 H 0.8671 0.3588 0.5897 0.0580 Uiso
C79 C 0.9508(3) 0.2602(2) 0.5274(2) 0.0486 Uani
H97 H 0.9409 0.2314 0.5815 0.0580 Uiso
H98 H 0.9332 0.2222 0.4913 0.0580 Uiso
C80 C 0.8657(3) 0.3747(2) 0.4775(3) 0.0466 Uani
C81 C 0.7956(3) 0.4492(3) 0.4989(3) 0.0569 Uani
H99 H 0.7879 0.4688 0.5551 0.0680 Uiso
H100 H 0.8180 0.4956 0.4590 0.0680 Uiso
C82 C 0.7009(3) 0.4212(2) 0.4951(3) 0.0490 Uani
H101 H 0.6766 0.3788 0.5393 0.0590 Uiso
H102 H 0.7116 0.3945 0.4413 0.0590 Uiso
C83 C 0.6270(3) 0.4934(2) 0.5055(2) 0.0480 Uani
H103 H 0.6521 0.5372 0.4631 0.0580 Uiso
H104 H 0.6136 0.5184 0.5606 0.0580 Uiso
C84 C 0.5365(2) 0.4641(2) 0.4972(2) 0.0452 Uani
H105 H 0.5507 0.4363 0.4434 0.0680 Uiso
H106 H 0.5100 0.4225 0.5416 0.0680 Uiso
H133 H 0.1260 0.9734 0.5479 0.0620 Uiso
H134 H 0.1579 0.9646 0.4497 0.0620 Uiso
H16 H 0.1199 0.0239 0.0512 0.0650 Uiso
O13 O 0.0455(2) 0.24604(14) 0.74806(17) 0.0544 Uani
H15 H 0.1577 0.0237 0.9522 0.0650 Uiso
H57 H 0.8740 0.0266 0.4521 0.0620 Uiso
H58 H 0.8421 0.0354 0.5503 0.0620 Uiso
C56 C 0.0633(2) 0.06502(19) 0.7562(2) 0.0344 Uani
H64 H 0.1150 0.0943 0.7574 0.0410 Uiso
Co1 Co 0.74644(3) 0.75305(2) 0.76759(3) 0.0281 Uani
Co2 Co 0.24749(3) 0.74869(2) 0.76356(3) 0.0291 Uani
O1 O 0.3803(2) 0.81516(18) 0.93509(17) 0.0615 Uani
O4 O 0.6016(2) 0.8540(2) 0.60547(18) 0.0675 Uani
O5 O 0.65857(15) 0.65453(12) 0.78010(14) 0.0358 Uani
O6 O 0.75351(18) 0.53803(14) 0.76140(18) 0.0522 Uani
O7 O 0.63414(19) 0.26986(15) 0.71366(17) 0.0477 Uani
O8 O 0.48326(18) 0.25825(14) 0.72578(17) 0.0490 Uani
O9 O 0.34785(16) 0.65131(13) 0.75899(15) 0.0377 Uani
O10 O 0.2896(2) 0.53427(15) 0.7313(2) 0.0611 Uani
O11 O 0.14727(15) 0.84568(13) 0.76700(15) 0.0371 Uani
O12 O 0.22104(19) 0.96357(15) 0.7699(2) 0.0589 Uani
O17 O 0.85171(18) 0.66709(16) 0.78646(17) 0.0391 Uani
O18 O 0.64193(19) 0.84024(16) 0.74983(18) 0.0399 Uani
O19 O 0.33787(19) 0.83284(17) 0.78911(18) 0.0405 Uani
O20 O 0.1610(2) 0.65924(17) 0.73479(18) 0.0403 Uani
N1 N 0.68354(19) 0.78348(16) 0.89957(17) 0.0343 Uani
N3 N 0.80853(19) 0.72379(16) 0.63529(16) 0.0341 Uani
N5 N 0.1747(2) 0.71653(16) 0.89473(17) 0.0363 Uani
N7 N 0.31656(19) 0.77775(16) 0.63198(17) 0.0352 Uani
N8 N 0.6196(2) 0.8477(2) 0.46918(19) 0.0494 Uani
H4 H 0.6409 0.8709 0.4198 0.0590 Uiso
C1 C 0.7323(3) 0.8123(2) 0.9460(2) 0.0441 Uani
H5 H 0.7959 0.8222 0.9197 0.0530 Uiso
C5 C 0.5932(3) 0.7697(2) 0.9385(2) 0.0408 Uani
H8 H 0.5586 0.7498 0.9067 0.0490 Uiso
C7 C 0.3561(3) 0.8606(3) 0.9967(3) 0.0543 Uani
H11 H 0.3186 0.9759 0.9542 0.0980 Uiso
H13 H 0.2018 0.8784 0.9564 0.0680 Uiso
H17 H 0.0427 0.9274 0.9531 0.0720 Uiso
C12 C 0.7593(3) 0.6970(2) 0.5883(2) 0.0402 Uani
H19 H 0.6953 0.6881 0.6143 0.0480 Uiso
C13 C 0.7990(3) 0.6819(2) 0.5033(2) 0.0487 Uani
H20 H 0.7628 0.6632 0.4725 0.0580 Uiso
C14 C 0.8933(3) 0.6949(2) 0.4650(2) 0.0489 Uani
H21 H 0.9217 0.6849 0.4076 0.0590 Uiso
C15 C 0.9462(3) 0.7230(2) 0.5116(2) 0.0403 Uani
C16 C 0.9001(2) 0.73569(19) 0.5964(2) 0.0354 Uani
H22 H 0.9350 0.7537 0.6288 0.0420 Uiso
C23 C 0.2189(3) 0.6810(2) 0.9453(2) 0.0471 Uani
H33 H 0.2839 0.6704 0.9238 0.0560 Uiso
C27 C 0.0815(3) 0.7332(2) 0.9280(2) 0.0413 Uani
H36 H 0.0503 0.7586 0.8932 0.0490 Uiso
C34 C 0.2687(3) 0.8043(2) 0.5803(2) 0.0392 Uani
H47 H 0.2032 0.8102 0.6024 0.0470 Uiso
C35 C 0.3120(3) 0.8232(2) 0.4965(2) 0.0468 Uani
H48 H 0.2764 0.8411 0.4625 0.0560 Uiso
C36 C 0.4085(3) 0.8155(2) 0.4633(2) 0.0444 Uani
H49 H 0.4391 0.8294 0.4068 0.0530 Uiso
C37 C 0.4604(2) 0.7868(2) 0.5146(2) 0.0378 Uani
C38 C 0.4107(2) 0.7696(2) 0.5985(2) 0.0376 Uani
H50 H 0.4447 0.7513 0.6337 0.0450 Uiso
C39 C 0.5658(3) 0.7708(2) 0.4803(3) 0.0495 Uani
H51 H 0.5848 0.7318 0.5185 0.0590 Uiso
H52 H 0.5819 0.7432 0.4262 0.0590 Uiso
C40 C 0.6363(3) 0.8821(2) 0.5333(3) 0.0460 Uani
C41 C 0.7029(3) 0.9543(2) 0.5139(3) 0.0569 Uani
H53 H 0.6770 0.9985 0.5552 0.0680 Uiso
H54 H 0.7078 0.9784 0.4586 0.0680 Uiso
C42 C 0.8004(3) 0.9258(2) 0.5149(3) 0.0512 Uani
H55 H 0.7939 0.8960 0.5679 0.0610 Uiso
H56 H 0.8278 0.8854 0.4699 0.0610 Uiso
C43 C 0.8684(3) 0.9958(2) 0.5045(3) 0.0512 Uani
C44 C 0.9657(3) 0.9656(2) 0.5034(3) 0.0486 Uani
H59 H 0.9926 0.9276 0.4562 0.0730 Uiso
H60 H 0.9596 0.9326 0.5548 0.0730 Uiso
C45 C 0.6772(2) 0.57661(19) 0.7660(2) 0.0333 Uani
C46 C 0.5999(2) 0.52793(18) 0.7533(2) 0.0309 Uani
C47 C 0.6108(2) 0.44054(19) 0.7415(2) 0.0328 Uani
H61 H 0.6671 0.4120 0.7404 0.0390 Uiso
C48 C 0.5385(2) 0.39548(19) 0.7313(2) 0.0335 Uani
C49 C 0.4554(2) 0.43856(19) 0.7312(2) 0.0329 Uani
H62 H 0.4073 0.4087 0.7234 0.0400 Uiso
C50 C 0.4436(2) 0.52573(18) 0.74252(19) 0.0302 Uani
C51 C 0.5160(2) 0.56995(19) 0.7537(2) 0.0328 Uani
H63 H 0.5082 0.6284 0.7614 0.0390 Uiso
C52 C 0.5488(3) 0.30151(19) 0.7227(2) 0.0350 Uani
C53 C 0.3531(2) 0.5737(2) 0.7440(2) 0.0341 Uani
C54 C 0.1524(2) 0.9252(2) 0.7650(2) 0.0349 Uani
C55 C 0.0675(2) 0.97612(19) 0.7583(2) 0.0321 Uani
H67 H 0.641(3) 0.217(3) 0.715(3) 0.0790 Uiso
H69 H 0.831(4) 0.615(4) 0.792(4) 0.1200 Uiso
H70 H 0.861(3) 0.664(2) 0.839(3) 0.0660 Uiso
H71 H 0.665(3) 0.886(3) 0.749(3) 0.0680 Uiso
H72 H 0.627(3) 0.845(3) 0.704(3) 0.0670 Uiso
H73 H 0.353(4) 0.824(3) 0.833(3) 0.0840 Uiso
H74 H 0.306(4) 0.884(3) 0.791(3) 0.0840 Uiso
H75 H 0.204(4) 0.615(3) 0.725(3) 0.0780 Uiso
H76 H 0.146(3) 0.662(2) 0.696(2) 0.0380 Uiso
O41 O 0.83579(16) 0.85074(13) 0.75311(15) 0.0388 Uani
O21 O 0.6197(2) 0.18484(18) 0.06491(17) 0.0615 Uani
N9 N 0.31646(19) 0.21652(16) 0.10043(17) 0.0343 Uani
C63 C 0.2677(3) 0.1877(2) 0.0540(2) 0.0441 Uani
H78 H 0.2041 0.1778 0.0803 0.0530 Uiso
C67 C 0.4068(3) 0.2303(2) 0.0615(2) 0.0408 Uani
H81 H 0.4414 0.2502 0.0933 0.0490 Uiso
C69 C 0.6439(3) 0.1394(3) 0.0033(3) 0.0543 Uani
H84 H 0.6814 0.0241 0.0458 0.0980 Uiso
H86 H 0.7982 0.1216 0.0436 0.0680 Uiso
H90 H 0.9573 0.0726 0.0469 0.0720 Uiso
N6 N 0.8605(2) 0.6757(3) 0.0690(2) 0.0738 Uani
H3 H 0.8336 0.6649 0.1219 0.0880 Uiso
C28 C 0.9256(3) 0.7441(3) 0.0443(3) 0.0686 Uani
H37 H 0.9160 0.7796 0.0929 0.0820 Uiso
H38 H 0.9104 0.7790 0.0013 0.0820 Uiso
C29 C 0.8414(3) 0.6298(3) 0.0136(3) 0.0518 Uani
C30 C 0.7627(4) 0.5698(4) 0.0456(4) 0.0974 Uani
H39 H 0.7903 0.5124 0.0437 0.1170 Uiso
H40 H 0.7288 0.5823 0.1043 0.1170 Uiso
C31 C 0.6954(3) 0.5714(3) 0.0007(3) 0.0551 Uani
C32 C 0.6118(3) 0.5202(3) 0.0273(3) 0.0761 Uani
H43 H 0.6349 0.4613 0.0248 0.0910 Uiso
H44 H 0.5797 0.5321 0.0865 0.0910 Uiso
H88 H 0.8423 0.9763 0.0478 0.0650 Uiso
O23 O 0.1155(2) 0.3604(2) 0.06157(18) 0.0644 Uani
H116 H 0.2695 0.4437 0.0572 0.0660 Uiso
H117 H 0.3271 0.3698 0.0008 0.0660 Uiso
C95 C 0.4587(3) 0.4757(3) 0.0118(3) 0.0718 Uani
H120 H 0.4260 0.4872 0.0710 0.1080 Uiso
H121 H 0.4811 0.4166 0.0094 0.1080 Uiso
O35 O 0.2491(2) 0.02963(15) 0.2460(2) 0.0659 Uani
O36 O 0.16421(16) 0.14926(13) 0.24689(15) 0.0388 Uani
C121 C 0.0919(2) 0.02167(18) 0.2474(2) 0.0315 Uani
C122 C 0.0103(2) 0.06587(19) 0.2439(2) 0.0320 Uani
H142 H 0.0081 0.1250 0.2429 0.0380 Uiso
C124 C 0.1753(2) 0.06996(19) 0.2473(2) 0.0349 Uani
O3 O 0.8845(2) 0.6396(2) 0.93843(18) 0.0644 Uani
O15 O 0.7509(2) 0.97037(15) 0.7540(2) 0.0659 Uani
H41 H 0.7305 0.5563 0.9428 0.0660 Uiso
H42 H 0.6729 0.6302 0.9992 0.0660 Uiso
C33 C 0.5413(3) 0.5243(3) 0.9882(3) 0.0718 Uani
H45 H 0.5740 0.5128 0.9290 0.1080 Uiso
H46 H 0.5189 0.5834 0.9906 0.1080 Uiso
C59 C 0.9081(2) 0.97833(18) 0.7526(2) 0.0315 Uani
C60 C 0.9897(2) 0.93413(19) 0.7561(2) 0.0320 Uani
H66 H 0.9919 0.8750 0.7571 0.0380 Uiso
C62 C 0.8247(2) 0.93004(19) 0.7527(2) 0.0349 Uani
H89 H 0.8801 0.9761 0.9488 0.0650 Uiso
N14 N 0.1395(2) 0.3243(3) 0.9310(2) 0.0738 Uani
H107 H 0.1664 0.3351 0.8781 0.0880 Uiso
C90 C 0.0744(3) 0.2559(3) 0.9557(3) 0.0686 Uani
H112 H 0.0840 0.2204 0.9071 0.0820 Uiso
H113 H 0.0896 0.2210 0.9987 0.0820 Uiso
C91 C 0.1586(3) 0.3702(3) 0.9864(3) 0.0518 Uani
C92 C 0.2373(4) 0.4302(4) 0.9544(4) 0.0974 Uani
H114 H 0.2097 0.4876 0.9563 0.1170 Uiso
H115 H 0.2712 0.4177 0.8957 0.1170 Uiso
C93 C 0.3046(3) 0.4286(3) 0.9993(3) 0.0551 Uani
C94 C 0.3882(3) 0.4798(3) 0.9727(3) 0.0761 Uani
H118 H 0.3651 0.5387 0.9752 0.0910 Uiso
H119 H 0.4203 0.4679 0.9135 0.0910 Uiso
N13 N 0.8253(2) 0.28347(16) 0.10527(17) 0.0363 Uani
C85 C 0.7811(3) 0.3190(2) 0.0547(2) 0.0471 Uani
H108 H 0.7161 0.3296 0.0762 0.0560 Uiso
C89 C 0.9185(3) 0.2668(2) 0.0720(2) 0.0413 Uani
H111 H 0.9497 0.2414 0.1068 0.0490 Uiso
O25 O 0.34143(15) 0.34547(12) 0.21990(14) 0.0358 Uani
O26 O 0.24649(18) 0.46197(14) 0.23860(18) 0.0522 Uani
O27 O 0.36586(19) 0.73014(15) 0.28634(17) 0.0477 Uani
O28 O 0.51674(18) 0.74175(14) 0.27422(17) 0.0490 Uani
O29 O 0.65215(16) 0.34869(13) 0.24101(15) 0.0377 Uani
O30 O 0.7104(2) 0.46573(15) 0.2687(2) 0.0611 Uani
O31 O 0.85273(15) 0.15432(13) 0.23300(15) 0.0371 Uani
O32 O 0.77896(19) 0.03643(15) 0.2301(2) 0.0589 Uani
O37 O 0.14829(18) 0.33291(16) 0.21354(17) 0.0391 Uani
O38 O 0.35807(19) 0.15976(16) 0.25017(18) 0.0399 Uani
O39 O 0.66213(19) 0.16716(17) 0.21089(18) 0.0405 Uani
O40 O 0.8390(2) 0.34076(17) 0.26521(18) 0.0403 Uani
C107 C 0.3228(2) 0.42339(19) 0.2340(2) 0.0333 Uani
C108 C 0.4001(2) 0.47207(18) 0.2467(2) 0.0309 Uani
C109 C 0.3892(2) 0.55946(19) 0.2585(2) 0.0328 Uani
H137 H 0.3329 0.5880 0.2596 0.0390 Uiso
C110 C 0.4615(2) 0.60452(19) 0.2687(2) 0.0335 Uani
C111 C 0.5446(2) 0.56144(19) 0.2688(2) 0.0329 Uani
H138 H 0.5927 0.5913 0.2766 0.0400 Uiso
C112 C 0.5564(2) 0.47427(18) 0.25748(19) 0.0302 Uani
C113 C 0.4840(2) 0.43005(19) 0.2463(2) 0.0328 Uani
H139 H 0.4918 0.3716 0.2386 0.0390 Uiso
C114 C 0.4512(3) 0.69849(19) 0.2773(2) 0.0350 Uani
C115 C 0.6469(2) 0.4263(2) 0.2560(2) 0.0341 Uani
C116 C 0.8476(2) 0.0748(2) 0.2350(2) 0.0349 Uani
C117 C 0.9325(2) 0.02388(19) 0.2417(2) 0.0321 Uani
H143 H 0.359(3) 0.783(3) 0.285(3) 0.0790 Uiso
H145 H 0.169(4) 0.385(4) 0.208(4) 0.1200 Uiso
H146 H 0.139(3) 0.336(2) 0.161(3) 0.0660 Uiso
H147 H 0.335(3) 0.114(3) 0.251(3) 0.0680 Uiso
H148 H 0.373(3) 0.155(3) 0.296(3) 0.0670 Uiso
H149 H 0.647(4) 0.176(3) 0.167(3) 0.0840 Uiso
H150 H 0.694(4) 0.116(3) 0.209(3) 0.0840 Uiso
H151 H 0.796(4) 0.385(3) 0.275(3) 0.0780 Uiso
H152 H 0.854(3) 0.338(2) 0.304(2) 0.0380 Uiso
O33 O 0.9545(2) 0.75396(14) 0.25194(17) 0.0544 Uani
C118 C 0.9367(2) 0.93498(19) 0.2438(2) 0.0344 Uani
H140 H 0.8850 0.9057 0.2426 0.0410 Uiso
N2 N 0.3825(3) 0.8393(3) 0.0634(2) 0.0775 Uani
H1 H 0.3627 0.8703 0.1076 0.0930 Uiso
C2 C 0.6928(3) 0.8278(3) 0.0307(2) 0.0564 Uani
H6 H 0.7288 0.8480 0.0611 0.0670 Uiso
C3 C 0.5988(3) 0.8131(3) 0.0699(2) 0.0559 Uani
H7 H 0.5704 0.8233 0.1272 0.0670 Uiso
C4 C 0.5472(3) 0.7831(3) 0.0237(2) 0.0488 Uani
C6 C 0.4434(3) 0.7658(3) 0.0627(3) 0.0698 Uani
H9 H 0.4282 0.7213 0.0313 0.0840 Uiso
H10 H 0.4314 0.7451 0.1202 0.0840 Uiso
C8 C 0.2917(3) 0.9386(3) 0.0025(4) 0.0810 Uani
H12 H 0.2860 0.9693 0.0533 0.0980 Uiso
C9 C 0.1947(3) 0.9139(3) 0.0044(3) 0.0566 Uani
H14 H 0.1664 0.8805 0.0553 0.0680 Uiso
C10 C 0.1288(3) 0.9893(2) 0.0022(3) 0.0545 Uani
C11 C 0.0333(3) 0.9629(2) 0.0016(2) 0.0481 Uani
H18 H 0.0045 0.9289 0.0520 0.0720 Uiso
C24 C 0.1720(3) 0.6594(3) 0.0283(3) 0.0629 Uani
H34 H 0.2047 0.6339 0.0619 0.0750 Uiso
C25 C 0.0759(3) 0.6761(3) 0.0610(3) 0.0609 Uani
H35 H 0.0429 0.6611 0.1166 0.0730 Uiso
C26 C 0.0291(3) 0.7151(2) 0.0103(2) 0.0477 Uani
O34 O 0.1030(2) 0.76145(17) 0.2495(2) 0.0605 Uani
C119 C 0.0171(3) 0.88995(19) 0.2478(2) 0.0350 Uani
C120 C 0.0952(2) 0.93394(19) 0.2491(2) 0.0344 Uani
H141 H 0.1495 0.9039 0.2510 0.0410 Uiso
C123 C 0.0212(3) 0.7951(2) 0.2496(2) 0.0380 Uani
H144 H 0.103(4) 0.713(3) 0.255(4) 0.1200 Uiso
O14 O 0.8970(2) 0.23855(17) 0.7505(2) 0.0605 Uani
C57 C 0.9829(3) 0.11005(19) 0.7522(2) 0.0350 Uani
C58 C 0.9048(2) 0.06606(19) 0.7509(2) 0.0344 Uani
H65 H 0.8505 0.0961 0.7490 0.0410 Uiso
C61 C 0.9788(3) 0.2049(2) 0.7504(2) 0.0380 Uani
H68 H 0.897(4) 0.287(3) 0.745(4) 0.1200 Uiso
N10 N 0.6175(3) 0.1607(3) 0.9366(2) 0.0775 Uani
H77 H 0.6373 0.1297 0.8924 0.0930 Uiso
C64 C 0.3072(3) 0.1722(3) 0.9693(2) 0.0564 Uani
H79 H 0.2712 0.1520 0.9389 0.0670 Uiso
C65 C 0.4012(3) 0.1869(3) 0.9301(2) 0.0559 Uani
H80 H 0.4296 0.1767 0.8728 0.0670 Uiso
C66 C 0.4528(3) 0.2169(3) 0.9763(2) 0.0488 Uani
C68 C 0.5566(3) 0.2342(3) 0.9373(3) 0.0698 Uani
H82 H 0.5718 0.2787 0.9687 0.0840 Uiso
H83 H 0.5686 0.2549 0.8798 0.0840 Uiso
C70 C 0.7083(3) 0.0614(3) 0.9975(4) 0.0810 Uani
H85 H 0.7140 0.0307 0.9467 0.0980 Uiso
C71 C 0.8053(3) 0.0861(3) 0.9956(3) 0.0566 Uani
H87 H 0.8336 0.1195 0.9447 0.0680 Uiso
C72 C 0.8712(3) 0.0107(2) 0.9978(3) 0.0545 Uani
C73 C 0.9667(3) 0.0371(2) 0.9984(2) 0.0481 Uani
H91 H 0.9955 0.0711 0.9480 0.0720 Uiso
C86 C 0.8280(3) 0.3406(3) 0.9717(3) 0.0629 Uani
H109 H 0.7953 0.3661 0.9381 0.0750 Uiso
C87 C 0.9241(3) 0.3239(3) 0.9390(3) 0.0609 Uani
H110 H 0.9571 0.3389 0.8834 0.0730 Uiso
C88 C 0.9709(3) 0.2849(2) 0.9897(2) 0.0477 Uani
loop_
_atom_site_aniso_label
_atom_site_aniso_U_11
_atom_site_aniso_U_22
_atom_site_aniso_U_33
_atom_site_aniso_U_23
_atom_site_aniso_U_13
_atom_site_aniso_U_12
N11 0.0284 0.0352 0.0385 -0.0018 -0.0112 0.0027
C74 0.033 0.0414 0.049 -0.0025 -0.0172 -0.0016
C75 0.054 0.051 0.048 -0.0066 -0.0257 -0.0024
C76 0.048 0.057 0.039 -0.0088 -0.011 0.0056
C77 0.034 0.0398 0.044 -0.0013 -0.0105 0.0092
C78 0.03 0.0358 0.041 -0.0008 -0.0135 0.004
Co8 0.0213 0.025 0.0386 -0.00144 -0.01077 -0.00075
O24 0.058 0.099 0.0551 0.0127 -0.029 -0.0296
N15 0.0272 0.0371 0.0427 0.0018 -0.0135 -0.003
N16 0.0364 0.066 0.0454 0.0127 -0.0111 -0.0216
C96 0.029 0.041 0.05 0.0018 -0.017 0.0005
C97 0.051 0.049 0.046 0.0041 -0.0242 -0.0013
C98 0.047 0.048 0.037 0.0014 -0.012 -0.0035
C99 0.034 0.0333 0.044 -0.0052 -0.0082 -0.0093
C100 0.03 0.0415 0.044 0.0013 -0.0156 -0.0043
C101 0.03 0.055 0.058 -0.0094 -0.0052 -0.0081
C102 0.029 0.051 0.065 0.0077 -0.025 -0.007
C103 0.039 0.048 0.092 0.009 -0.032 -0.0121
C104 0.032 0.044 0.081 0.0048 -0.0224 -0.0091
C105 0.035 0.045 0.075 0.0089 -0.0196 -0.01
C106 0.031 0.042 0.073 0.0045 -0.017 -0.0081
Co9 0.0203 0.0271 0.04 0.00022 -0.01033 0.00078
O2 0.0448 0.117 0.0484 -0.0162 -0.0201 0.0294
N4 0.0346 0.067 0.0387 -0.0128 -0.0074 0.0158
C17 0.032 0.054 0.053 0.0027 -0.0064 0.0068
C18 0.026 0.062 0.053 -0.0039 -0.0157 0.0058
C19 0.033 0.066 0.075 -0.01 -0.023 0.0094
C20 0.034 0.054 0.058 -0.0072 -0.0147 0.0075
C21 0.029 0.055 0.058 -0.0035 -0.0129 0.0084
C22 0.027 0.055 0.051 -0.0062 -0.0105 0.0085
O22 0.0448 0.117 0.0484 -0.0162 -0.0201 0.0294
N12 0.0346 0.067 0.0387 -0.0128 -0.0074 0.0158
C79 0.032 0.054 0.053 0.0027 -0.0064 0.0068
C80 0.026 0.062 0.053 -0.0039 -0.0157 0.0058
C81 0.033 0.066 0.075 -0.01 -0.023 0.0094
C82 0.034 0.054 0.058 -0.0072 -0.0147 0.0075
C83 0.029 0.055 0.058 -0.0035 -0.0129 0.0084
C84 0.027 0.055 0.051 -0.0062 -0.0105 0.0085
O13 0.0545 0.031 0.0778 -0.0033 -0.0203 -0.0105
C56 0.032 0.0296 0.0418 0.0018 -0.0121 -0.006
Co1 0.0213 0.025 0.0386 -0.00144 -0.01077 -0.00075
Co2 0.0203 0.0271 0.04 0.00022 -0.01033 0.00078
O1 0.053 0.082 0.0561 -0.0193 -0.0291 0.022
O4 0.058 0.099 0.0551 0.0127 -0.029 -0.0296
O5 0.0254 0.0258 0.0544 -0.006 -0.0103 -0.0014
O6 0.0342 0.0337 0.097 -0.0147 -0.0327 0.0068
O7 0.044 0.027 0.0752 -0.0053 -0.0252 0.0089
O8 0.042 0.0283 0.0749 -0.0069 -0.0156 -0.0057
O9 0.0281 0.0277 0.0576 -0.0028 -0.015 0.0041
O10 0.0434 0.0375 0.12 -0.0088 -0.0504 0.0019
O11 0.0247 0.0257 0.0597 0.0018 -0.0129 0.0018
O12 0.036 0.0356 0.117 0.0101 -0.0411 -0.0083
O17 0.0337 0.0375 0.0497 0.0007 -0.0193 0.002
O18 0.0361 0.0367 0.052 -0.0008 -0.0219 0.0024
O19 0.0337 0.0399 0.0534 -0.0023 -0.0212 -0.0031
O20 0.0337 0.0427 0.05 -0.0004 -0.021 -0.0038
N1 0.0285 0.0343 0.0415 -0.0025 -0.0139 0.0035
N3 0.0284 0.0352 0.0385 -0.0018 -0.0112 0.0027
N5 0.0281 0.0372 0.0441 -0.0038 -0.0119 -0.0027
N7 0.0272 0.0371 0.0427 0.0018 -0.0135 -0.003
N8 0.0364 0.066 0.0454 0.0127 -0.0111 -0.0216
C1 0.037 0.047 0.053 -0.0062 -0.0207 -0.0013
C5 0.033 0.051 0.041 0.0019 -0.0168 0.0042
C7 0.029 0.07 0.07 -0.018 -0.024 0.0058
C12 0.033 0.0414 0.049 -0.0025 -0.0172 -0.0016
C13 0.054 0.051 0.048 -0.0066 -0.0257 -0.0024
C14 0.048 0.057 0.039 -0.0088 -0.011 0.0056
C15 0.034 0.0398 0.044 -0.0013 -0.0105 0.0092
C16 0.03 0.0358 0.041 -0.0008 -0.0135 0.004
C23 0.039 0.055 0.047 0.0017 -0.0147 0.0018
C27 0.034 0.045 0.045 -0.0046 -0.0126 -0.0038
C34 0.029 0.041 0.05 0.0018 -0.017 0.0005
C35 0.051 0.049 0.046 0.0041 -0.0242 -0.0013
C36 0.047 0.048 0.037 0.0014 -0.012 -0.0035
C37 0.034 0.0333 0.044 -0.0052 -0.0082 -0.0093
C38 0.03 0.0415 0.044 0.0013 -0.0156 -0.0043
C39 0.03 0.055 0.058 -0.0094 -0.0052 -0.0081
C40 0.029 0.051 0.065 0.0077 -0.025 -0.007
C41 0.039 0.048 0.092 0.009 -0.032 -0.0121
C42 0.032 0.044 0.081 0.0048 -0.0224 -0.0091
C43 0.035 0.045 0.075 0.0089 -0.0196 -0.01
C44 0.031 0.042 0.073 0.0045 -0.017 -0.0081
C45 0.0275 0.0303 0.043 -0.0025 -0.0128 0.0001
C46 0.0239 0.0284 0.0402 -0.0021 -0.0104 -0.0006
C47 0.0265 0.0304 0.042 -0.0021 -0.0125 0.0025
C48 0.033 0.0291 0.0401 -0.0006 -0.0143 -0.0005
C49 0.0278 0.0302 0.044 -0.0003 -0.0165 -0.0012
C50 0.026 0.0288 0.0368 0.0005 -0.0119 0.0006
C51 0.0314 0.0225 0.044 -0.0015 -0.012 0.0012
C52 0.039 0.0272 0.039 -0.0025 -0.0136 0.0028
C53 0.029 0.0318 0.041 0.0032 -0.0113 -0.0015
C54 0.0255 0.0331 0.044 0.0032 -0.009 -0.0004
C55 0.0283 0.029 0.0382 0.0016 -0.0102 -0.0013
O41 0.0276 0.0249 0.0645 -0.0006 -0.0159 -0.0014
O21 0.053 0.082 0.0561 -0.0193 -0.0291 0.022
N9 0.0285 0.0343 0.0415 -0.0025 -0.0139 0.0035
C63 0.037 0.047 0.053 -0.0062 -0.0207 -0.0013
C67 0.033 0.051 0.041 0.0019 -0.0168 0.0042
C69 0.029 0.07 0.07 -0.018 -0.024 0.0058
N6 0.044 0.136 0.0387 0.006 -0.0045 -0.045
C28 0.034 0.096 0.068 -0.031 -0.001 -0.018
C29 0.037 0.067 0.058 0.015 -0.024 -0.016
C30 0.083 0.115 0.122 0.064 -0.068 -0.065
C31 0.044 0.06 0.069 0.019 -0.028 -0.0198
C32 0.06 0.082 0.104 0.046 -0.05 -0.039
O23 0.0471 0.101 0.0509 -0.0044 -0.0214 -0.0173
C95 0.055 0.087 0.087 0.037 -0.04 -0.039
O35 0.041 0.0317 0.14 0.0007 -0.0509 0.0036
O36 0.0276 0.0249 0.0645 -0.0006 -0.0159 -0.0014
C121 0.0263 0.0274 0.041 -0.0001 -0.0117 -0.0002
C122 0.031 0.0226 0.043 -0.0006 -0.0132 -0.0009
C124 0.0281 0.0289 0.05 -0.0011 -0.0165 0.0015
O3 0.0471 0.101 0.0509 -0.0044 -0.0214 -0.0173
O15 0.041 0.0317 0.14 0.0007 -0.0509 0.0036
C33 0.055 0.087 0.087 0.037 -0.04 -0.039
C59 0.0263 0.0274 0.041 -0.0001 -0.0117 -0.0002
C60 0.031 0.0226 0.043 -0.0006 -0.0132 -0.0009
C62 0.0281 0.0289 0.05 -0.0011 -0.0165 0.0015
N14 0.044 0.136 0.0387 0.006 -0.0045 -0.045
C90 0.034 0.096 0.068 -0.031 -0.001 -0.018
C91 0.037 0.067 0.058 0.015 -0.024 -0.016
C92 0.083 0.115 0.122 0.064 -0.068 -0.065
C93 0.044 0.06 0.069 0.019 -0.028 -0.0198
C94 0.06 0.082 0.104 0.046 -0.05 -0.039
N13 0.0281 0.0372 0.0441 -0.0038 -0.0119 -0.0027
C85 0.039 0.055 0.047 0.0017 -0.0147 0.0018
C89 0.034 0.045 0.045 -0.0046 -0.0126 -0.0038
O25 0.0254 0.0258 0.0544 -0.006 -0.0103 -0.0014
O26 0.0342 0.0337 0.097 -0.0147 -0.0327 0.0068
O27 0.044 0.027 0.0752 -0.0053 -0.0252 0.0089
O28 0.042 0.0283 0.0749 -0.0069 -0.0156 -0.0057
O29 0.0281 0.0277 0.0576 -0.0028 -0.015 0.0041
O30 0.0434 0.0375 0.12 -0.0088 -0.0504 0.0019
O31 0.0247 0.0257 0.0597 0.0018 -0.0129 0.0018
O32 0.036 0.0356 0.117 0.0101 -0.0411 -0.0083
O37 0.0337 0.0375 0.0497 0.0007 -0.0193 0.002
O38 0.0361 0.0367 0.052 -0.0008 -0.0219 0.0024
O39 0.0337 0.0399 0.0534 -0.0023 -0.0212 -0.0031
O40 0.0337 0.0427 0.05 -0.0004 -0.021 -0.0038
C107 0.0275 0.0303 0.043 -0.0025 -0.0128 0.0001
C108 0.0239 0.0284 0.0402 -0.0021 -0.0104 -0.0006
C109 0.0265 0.0304 0.042 -0.0021 -0.0125 0.0025
C110 0.033 0.0291 0.0401 -0.0006 -0.0143 -0.0005
C111 0.0278 0.0302 0.044 -0.0003 -0.0165 -0.0012
C112 0.026 0.0288 0.0368 0.0005 -0.0119 0.0006
C113 0.0314 0.0225 0.044 -0.0015 -0.012 0.0012
C114 0.039 0.0272 0.039 -0.0025 -0.0136 0.0028
C115 0.029 0.0318 0.041 0.0032 -0.0113 -0.0015
C116 0.0255 0.0331 0.044 0.0032 -0.009 -0.0004
C117 0.0283 0.029 0.0382 0.0016 -0.0102 -0.0013
O33 0.0545 0.031 0.0778 -0.0033 -0.0203 -0.0105
C118 0.032 0.0296 0.0418 0.0018 -0.0121 -0.006
N2 0.041 0.138 0.054 -0.039 -0.0182 0.032
C2 0.062 0.066 0.049 -0.013 -0.028 -0.001
C3 0.054 0.076 0.036 -0.0065 -0.0145 0.012
C4 0.036 0.066 0.041 0.0051 -0.0108 0.0109
C6 0.043 0.118 0.041 0.015 -0.0071 0.007
C8 0.043 0.083 0.131 -0.047 -0.047 0.022
C9 0.033 0.067 0.071 -0.019 -0.019 0.0096
C10 0.031 0.061 0.075 -0.025 -0.0214 0.0091
C11 0.033 0.057 0.055 -0.0131 -0.0157 0.0081
C24 0.065 0.075 0.051 0.009 -0.024 0.002
C25 0.061 0.073 0.041 0.003 -0.005 -0.014
C26 0.036 0.053 0.05 -0.0151 -0.0056 -0.0135
O34 0.064 0.0262 0.1 -0.0012 -0.0404 0.0092
C119 0.043 0.0257 0.0367 -0.0002 -0.0139 -0.0009
C120 0.0298 0.0284 0.046 -0.002 -0.0144 0.0032
C123 0.043 0.0288 0.044 0.0009 -0.0171 0.0004
O14 0.064 0.0262 0.1 -0.0012 -0.0404 0.0092
C57 0.043 0.0257 0.0367 -0.0002 -0.0139 -0.0009
C58 0.0298 0.0284 0.046 -0.002 -0.0144 0.0032
C61 0.043 0.0288 0.044 0.0009 -0.0171 0.0004
N10 0.041 0.138 0.054 -0.039 -0.0182 0.032
C64 0.062 0.066 0.049 -0.013 -0.028 -0.001
C65 0.054 0.076 0.036 -0.0065 -0.0145 0.012
C66 0.036 0.066 0.041 0.0051 -0.0108 0.0109
C68 0.043 0.118 0.041 0.015 -0.0071 0.007
C70 0.043 0.083 0.131 -0.047 -0.047 0.022
C71 0.033 0.067 0.071 -0.019 -0.019 0.0096
C72 0.031 0.061 0.075 -0.025 -0.0214 0.0091
C73 0.033 0.057 0.055 -0.0131 -0.0157 0.0081
C86 0.065 0.075 0.051 0.009 -0.024 0.002
C87 0.061 0.073 0.041 0.003 -0.005 -0.014
C88 0.036 0.053 0.05 -0.0151 -0.0056 -0.0135
loop_
_geom_bond_atom_site_label_1
_geom_bond_atom_site_label_2
_geom_bond_site_symmetry_1
_geom_bond_site_symmetry_2
N11 C74 1_555 1_555
C74 H93 1_555 1_555
C75 C74 1_555 1_555
H94 C75 1_555 1_555
C76 C75 1_555 1_555
H95 C76 1_555 1_555
C77 C76 1_555 1_555
C78 N11 1_555 1_555
H96 C78 1_555 1_555
Co8 N11 1_555 1_555
C77 C78 1_555 1_555
O24 C102 1_555 1_555
N15 C96 1_555 1_555
N16 H122 1_555 1_555
C96 H123 1_555 1_555
C97 C96 1_555 1_555
H124 C97 1_555 1_555
C98 C97 1_555 1_555
H125 C98 1_555 1_555
C99 C98 1_555 1_555
C100 N15 1_555 1_555
H126 C100 1_555 1_555
C101 N16 1_555 1_555
H127 C101 1_555 1_555
H128 C101 1_555 1_555
C102 N16 1_555 1_555
C103 C102 1_555 1_555
H129 C103 1_555 1_555
H130 C103 1_555 1_555
C104 C103 1_555 1_555
H131 C104 1_555 1_555
H132 C104 1_555 1_555
C105 C104 1_555 1_555
H135 C106 1_555 1_555
H136 C106 1_555 1_555
Co9 N15 1_555 1_555
C99 C100 1_555 1_555
C99 C101 1_555 1_555
C105 C106 1_555 1_555
O2 C18 1_555 1_555
N4 H2 1_555 1_555
C17 N4 1_555 1_555
H23 C17 1_555 1_555
H24 C17 1_555 1_555
C18 N4 1_555 1_555
C19 C18 1_555 1_555
H25 C19 1_555 1_555
H26 C19 1_555 1_555
C20 C19 1_555 1_555
H27 C20 1_555 1_555
H28 C20 1_555 1_555
C21 C20 1_555 1_555
H29 C21 1_555 1_555
H30 C21 1_555 1_555
C22 C21 1_555 1_555
H31 C22 1_555 1_555
H32 C22 1_555 1_555
O22 C80 1_555 1_555
N12 H92 1_555 1_555
C79 N12 1_555 1_555
H97 C79 1_555 1_555
H98 C79 1_555 1_555
C80 N12 1_555 1_555
C81 C80 1_555 1_555
H99 C81 1_555 1_555
H100 C81 1_555 1_555
C82 C81 1_555 1_555
H101 C82 1_555 1_555
H102 C82 1_555 1_555
C83 C82 1_555 1_555
H103 C83 1_555 1_555
H104 C83 1_555 1_555
C84 C22 1_555 1_555
H105 C84 1_555 1_555
H106 C84 1_555 1_555
C83 C84 1_555 1_555
H64 C56 1_555 1_555
Co1 O5 1_555 1_555
Co2 O9 1_555 1_555
O1 C7 1_555 1_555
O4 C40 1_555 1_555
O5 C45 1_555 1_555
O6 C45 1_555 1_555
O7 C52 1_555 1_555
O8 C52 1_555 1_555
O9 C53 1_555 1_555
O10 C53 1_555 1_555
O11 Co2 1_555 1_555
O12 C54 1_555 1_555
O17 Co1 1_555 1_555
O18 Co1 1_555 1_555
O19 Co2 1_555 1_555
O20 Co2 1_555 1_555
N1 Co1 1_555 1_555
N3 Co1 1_555 1_555
N5 Co2 1_555 1_555
N7 Co2 1_555 1_555
N8 H4 1_555 1_555
C1 N1 1_555 1_555
H5 C1 1_555 1_555
C5 N1 1_555 1_555
H8 C5 1_555 1_555
C12 N3 1_555 1_555
H19 C12 1_555 1_555
C13 C12 1_555 1_555
H20 C13 1_555 1_555
C14 C13 1_555 1_555
H21 C14 1_555 1_555
C15 C14 1_555 1_555
C16 N3 1_555 1_555
H22 C16 1_555 1_555
C23 N5 1_555 1_555
H33 C23 1_555 1_555
C27 N5 1_555 1_555
H36 C27 1_555 1_555
C34 N7 1_555 1_555
H47 C34 1_555 1_555
C35 C34 1_555 1_555
H48 C35 1_555 1_555
C36 C35 1_555 1_555
H49 C36 1_555 1_555
C37 C36 1_555 1_555
C38 N7 1_555 1_555
H50 C38 1_555 1_555
C39 N8 1_555 1_555
H51 C39 1_555 1_555
H52 C39 1_555 1_555
C40 N8 1_555 1_555
C41 C40 1_555 1_555
H53 C41 1_555 1_555
H54 C41 1_555 1_555
C42 C41 1_555 1_555
H55 C42 1_555 1_555
H56 C42 1_555 1_555
C43 C42 1_555 1_555
C44 C43 1_555 1_555
H59 C44 1_555 1_555
H60 C44 1_555 1_555
C45 C46 1_555 1_555
C46 C47 1_555 1_555
C47 H61 1_555 1_555
C48 C47 1_555 1_555
C49 C48 1_555 1_555
H62 C49 1_555 1_555
C50 C49 1_555 1_555
C51 C46 1_555 1_555
H63 C51 1_555 1_555
C52 C48 1_555 1_555
C53 C50 1_555 1_555
C54 O11 1_555 1_555
C55 C54 1_555 1_555
H67 O7 1_555 1_555
H69 O17 1_555 1_555
H70 O17 1_555 1_555
H71 O18 1_555 1_555
H72 O18 1_555 1_555
H73 O19 1_555 1_555
H74 O19 1_555 1_555
H75 O20 1_555 1_555
H76 O20 1_555 1_555
O41 Co1 1_555 1_555
C15 C16 1_555 1_555
C37 C38 1_555 1_555
C37 C39 1_555 1_555
C50 C51 1_555 1_555
O21 C69 1_555 1_555
N9 C63 1_555 1_555
C63 H78 1_555 1_555
C67 N9 1_555 1_555
H81 C67 1_555 1_555
Co8 N9 1_555 1_555
N6 H3 1_555 1_555
C28 N6 1_555 1_555
H37 C28 1_555 1_555
H38 C28 1_555 1_555
C29 N6 1_555 1_555
C30 C29 1_555 1_555
H39 C30 1_555 1_555
H40 C30 1_555 1_555
C31 C30 1_555 1_555
C32 C31 1_555 1_555
H43 C32 1_555 1_555
H44 C32 1_555 1_555
H120 C95 1_555 1_555
H121 C95 1_555 1_555
O35 C124 1_555 1_555
O36 C124 1_555 1_555
H142 C122 1_555 1_555
C124 C121 1_555 1_555
Co8 O36 1_555 1_555
C121 C122 1_555 1_555
O15 C62 1_555 1_555
O41 C62 1_555 1_555
H45 C33 1_555 1_555
H46 C33 1_555 1_555
H66 C60 1_555 1_555
C62 C59 1_555 1_555
N14 H107 1_555 1_555
C90 N14 1_555 1_555
H112 C90 1_555 1_555
H113 C90 1_555 1_555
C91 N14 1_555 1_555
C92 C91 1_555 1_555
H114 C92 1_555 1_555
H115 C92 1_555 1_555
C93 C92 1_555 1_555
C94 C93 1_555 1_555
H118 C94 1_555 1_555
H119 C94 1_555 1_555
C59 C60 1_555 1_555
N13 C85 1_555 1_555
C85 H108 1_555 1_555
C89 N13 1_555 1_555
H111 C89 1_555 1_555
Co8 O25 1_555 1_555
Co9 N13 1_555 1_555
O25 C107 1_555 1_555
O26 C107 1_555 1_555
O27 C114 1_555 1_555
O28 C114 1_555 1_555
O29 Co9 1_555 1_555
O30 C115 1_555 1_555
O31 Co9 1_555 1_555
O32 C116 1_555 1_555
O37 Co8 1_555 1_555
O38 Co8 1_555 1_555
O39 Co9 1_555 1_555
O40 Co9 1_555 1_555
C107 C108 1_555 1_555
C108 C109 1_555 1_555
C109 H137 1_555 1_555
C110 C109 1_555 1_555
C111 C110 1_555 1_555
H138 C111 1_555 1_555
C112 C111 1_555 1_555
C113 C108 1_555 1_555
H139 C113 1_555 1_555
C114 C110 1_555 1_555
C115 O29 1_555 1_555
C116 O31 1_555 1_555
C117 C116 1_555 1_555
H143 O27 1_555 1_555
H145 O37 1_555 1_555
H146 O37 1_555 1_555
H147 O38 1_555 1_555
H148 O38 1_555 1_555
H149 O39 1_555 1_555
H150 O39 1_555 1_555
H151 O40 1_555 1_555
H152 O40 1_555 1_555
C112 C113 1_555 1_555
C112 C115 1_555 1_555
H140 C118 1_555 1_555
N2 H1 1_555 1_555
H6 C2 1_555 1_555
C3 C2 1_555 1_555
H7 C3 1_555 1_555
C4 C3 1_555 1_555
C6 N2 1_555 1_555
H9 C6 1_555 1_555
H10 C6 1_555 1_555
H12 C8 1_555 1_555
C9 C8 1_555 1_555
H14 C9 1_555 1_555
C10 C9 1_555 1_555
C11 C10 1_555 1_555
H18 C11 1_555 1_555
H34 C24 1_555 1_555
C25 C24 1_555 1_555
H35 C25 1_555 1_555
C26 C25 1_555 1_555
C4 C6 1_555 1_555
O34 C123 1_555 1_555
C120 C119 1_555 1_555
H141 C120 1_555 1_555
C123 C119 1_555 1_555
H144 O34 1_555 1_555
O14 C61 1_555 1_555
C58 C57 1_555 1_555
H65 C58 1_555 1_555
C61 C57 1_555 1_555
H68 O14 1_555 1_555
N10 H77 1_555 1_555
H79 C64 1_555 1_555
C65 C64 1_555 1_555
H80 C65 1_555 1_555
C66 C65 1_555 1_555
C68 N10 1_555 1_555
H82 C68 1_555 1_555
H83 C68 1_555 1_555
H85 C70 1_555 1_555
C71 C70 1_555 1_555
H87 C71 1_555 1_555
C72 C71 1_555 1_555
H91 C73 1_555 1_555
C66 C68 1_555 1_555
C72 C73 1_555 1_555
H109 C86 1_555 1_555
C87 C86 1_555 1_555
H110 C87 1_555 1_555
C88 C87 1_555 1_555

#END
