
###############################################################################
#
# This file contains modified crystal structure data generated from the
# MOF subset of the Cambridge Structural Database (CSD) v543 
# hosted by the Cambridge Crystallographic Data Centre (CCDC).
#
# This work is licensed under the Creative Commons
# Attribution-NonCommercial-ShareAlike 4.0 International License.
# To view a copy of this license, visit
# http://creativecommons.org/licenses/by-nc-sa/4.0/
# or send a letter to
# Creative Commons, PO Box 1866, Mountain View, CA 94042, USA.
#
# CIF created using the CSD Python API on 29 September 2022
# The structure has been converted into the P1 space group
# The structure has a 3D framework
# The original CSD entry WEHPOP is in the monoclinic crystal system
# The framework has been calculated to contain at least 10.0% void space
# The void calculation uses a probe of radius 1.32A, grid spacing 0.4
# The framework is charged, counterions have been retained in the structure
#
###############################################################################

data_WEHPOP
_chemical_formula_moiety         '(C120 H96 N24 Ni6 O48 S8 4+)n'
_symmetry_cell_setting           triclinic
_symmetry_space_group_name_H-M   'P 1'
_symmetry_Int_Tables_number      1
_space_group_name_Hall           'P 1'
loop_
_symmetry_equiv_pos_site_id
_symmetry_equiv_pos_as_xyz
1 x,y,z
_cell_length_a                   20.828(5)
_cell_length_b                   13.499(4)
_cell_length_c                   20.020(5)
_cell_angle_alpha                90
_cell_angle_beta                 106.179(19)
_cell_angle_gamma                90
_cell_volume                     5405.84
loop_
_atom_site_label
_atom_site_type_symbol
_atom_site_fract_x
_atom_site_fract_y
_atom_site_fract_z
_atom_site_U_iso_or_equiv
_atom_site_thermal_displace_type
O1 O 0.2071(17) 0.863(3) 0.5047(19) 0.3010 Uiso
O2 O 0.3135(15) 0.790(2) 0.6073(15) 0.2650 Uiso
O3 O 0.1885(14) 0.709(2) 0.5603(15) 0.2380 Uiso
S1 S 0.2422(6) 0.7771(9) 0.5513(6) 0.2100 Uiso
O4 O 0.2929(17) 0.637(3) 0.4953(19) 0.3010 Uiso
O5 O 0.1865(15) 0.710(2) 0.3927(15) 0.2650 Uiso
O6 O 0.3115(14) 0.791(2) 0.4397(15) 0.2380 Uiso
S2 S 0.2578(6) 0.7229(9) 0.4487(6) 0.2100 Uiso
O1_2 O 0.7071(17) 0.363(3) 0.5047(19) 0.3010 Uiso
O2_2 O 0.8135(15) 0.290(2) 0.6073(15) 0.2650 Uiso
O3_2 O 0.6885(14) 0.209(2) 0.5603(15) 0.2380 Uiso
S1_2 S 0.7422(6) 0.2771(9) 0.5513(6) 0.2100 Uiso
O4_2 O 0.7929(17) 0.137(3) 0.4953(19) 0.3010 Uiso
O5_2 O 0.6865(15) 0.210(2) 0.3927(15) 0.2650 Uiso
O6_2 O 0.8115(14) 0.291(2) 0.4397(15) 0.2380 Uiso
S2_2 S 0.7578(6) 0.2229(9) 0.4487(6) 0.2100 Uiso
O4_3 O 0.7071(17) 0.637(3) 0.0047(19) 0.3010 Uiso
O5_3 O 0.8135(15) 0.710(2) 0.1073(15) 0.2650 Uiso
O6_3 O 0.6885(14) 0.791(2) 0.0603(15) 0.2380 Uiso
S2_3 S 0.7422(6) 0.7229(9) 0.0513(6) 0.2100 Uiso
O1_3 O 0.7929(17) 0.863(3) 0.9953(19) 0.3010 Uiso
O2_3 O 0.6865(15) 0.790(2) 0.8927(15) 0.2650 Uiso
O3_3 O 0.8115(14) 0.709(2) 0.9397(15) 0.2380 Uiso
S1_3 S 0.7578(6) 0.7771(9) 0.9487(6) 0.2100 Uiso
O4_4 O 0.2071(17) 0.137(3) 0.0047(19) 0.3010 Uiso
O5_4 O 0.3135(15) 0.210(2) 0.1073(15) 0.2650 Uiso
O6_4 O 0.1885(14) 0.291(2) 0.0603(15) 0.2380 Uiso
S2_4 S 0.2422(6) 0.2229(9) 0.0513(6) 0.2100 Uiso
O1_4 O 0.2929(17) 0.363(3) 0.9953(19) 0.3010 Uiso
O2_4 O 0.1865(15) 0.290(2) 0.8927(15) 0.2650 Uiso
O3_4 O 0.3115(14) 0.209(2) 0.9397(15) 0.2380 Uiso
S1_4 S 0.2578(6) 0.2771(9) 0.9487(6) 0.2100 Uiso
Ni2 Ni 0.2500 0.7500 0.0000 0.0228 Uiso
C1 C 0.3073(9) 0.4961(15) 0.5974(11) 0.0940 Uiso
H1 H 0.2973 0.5242 0.5533 0.1130 Uiso
C2 C 0.3085(10) 0.5459(18) 0.6520(12) 0.1030 Uiso
H2 H 0.3001 0.6135 0.6463 0.1230 Uiso
C3 C 0.3208(9) 0.5095(14) 0.7177(10) 0.0820 Uiso
C4 C 0.3334(8) 0.4100(13) 0.7316(10) 0.0820 Uiso
H3 H 0.3422 0.3818 0.7756 0.0980 Uiso
C5 C 0.3308(8) 0.3517(13) 0.6641(9) 0.0710 Uiso
H4 H 0.3357 0.2832 0.6646 0.0850 Uiso
C6 C 0.3089(9) 0.743(2) 0.8166(10) 0.1130 Uiso
H5 H 0.3128 0.8110 0.8119 0.1350 Uiso
C7 C 0.3084(12) 0.679(2) 0.7620(15) 0.1370 Uiso
H6 H 0.3036 0.7017 0.7170 0.1640 Uiso
C8 C 0.3166(8) 0.5651(12) 0.7811(9) 0.0690 Uiso
C9 C 0.3111(8) 0.5304(15) 0.8432(9) 0.0810 Uiso
H7 H 0.3075 0.4632 0.8516 0.0970 Uiso
C10 C 0.3115(8) 0.6104(13) 0.8991(9) 0.0760 Uiso
H8 H 0.3173 0.5935 0.9454 0.0910 Uiso
C11 C 0.3561(13) 0.008(2) 0.5078(13) 0.1260 Uiso
C13 C 0.4691(7) 0.0192(12) 0.5116(8) 0.0640 Uiso
C14 C 0.4628(10) 0.1135(15) 0.5300(10) 0.0910 Uiso
H11 H 0.4996 0.1547 0.5348 0.1100 Uiso
C15 C 0.4062(9) 0.1554(16) 0.5427(10) 0.0920 Uiso
H12 H 0.4027 0.2209 0.5557 0.1100 Uiso
N1 N 0.3218(6) 0.4000(10) 0.6092(7) 0.0690 Uiso
N2 N 0.3032(6) 0.7025(11) 0.8780(8) 0.0720 Uiso
N3 N 0.3610(7) 0.0926(11) 0.5340(7) 0.0750 Uiso
O7 O 0.3286(7) 0.3447(10) 0.5517(7) 0.0990 Uiso
O8 O 0.2986(5) 0.7723(8) 0.9259(6) 0.0800 Uiso
O9 O 0.2996(6) 0.1292(10) 0.5457(7) 0.0890 Uiso
Ni1 Ni 0.2500 0.2500 0.5000 0.0228 Uiso
C16 C 0.1927(9) 0.0039(15) 0.4026(11) 0.0940 Uiso
C19 C 0.1666(8) 0.0900(13) 0.2684(10) 0.0820 Uiso
H15 H 0.1578 0.1182 0.2244 0.0980 Uiso
C20 C 0.1692(8) 0.1483(13) 0.3359(9) 0.0710 Uiso
H16 H 0.1643 0.2168 0.3354 0.0850 Uiso
H19 H 0.1925 0.0368 0.1484 0.0970 Uiso
H21 H 0.6848 0.0244 0.5075 0.1520 Uiso
C27 C 0.5831(11) 0.0365(17) 0.4972(11) 0.1040 Uiso
H22 H 0.5812 0.1038 0.5065 0.1250 Uiso
N4 N 0.1782(6) 0.1000(10) 0.3908(7) 0.0690 Uiso
O10 O 0.1714(7) 0.1553(10) 0.4483(7) 0.0990 Uiso
O12 O 0.2986(5) 0.2277(8) 0.4259(6) 0.0800 Uiso
O13 O 0.2014(5) 0.2723(8) 0.5741(6) 0.0800 Uiso
O15 O 0.2004(6) 0.3708(10) 0.4543(7) 0.0890 Uiso
Ni2_2 Ni 0.2500 0.7500 1.0000 0.0228 Uiso
H9 H 0.3152 0.9756 0.4925 0.1520 Uiso
C12 C 0.4169(11) 0.9635(17) 0.5028(11) 0.1040 Uiso
H10 H 0.4188 0.8962 0.4935 0.1250 Uiso
H13 H 0.2027 0.9758 0.4467 0.1130 Uiso
C17 C 0.1915(10) 0.9541(18) 0.3480(12) 0.1030 Uiso
H14 H 0.1999 0.8865 0.3537 0.1230 Uiso
C18 C 0.1792(9) 0.9905(14) 0.2823(10) 0.0820 Uiso
C21 C 0.1911(9) 0.757(2) 0.1834(10) 0.1130 Uiso
H17 H 0.1872 0.6890 0.1881 0.1350 Uiso
C22 C 0.1916(12) 0.821(2) 0.2380(15) 0.1370 Uiso
H18 H 0.1964 0.7983 0.2830 0.1640 Uiso
C23 C 0.1834(8) 0.9349(12) 0.2189(9) 0.0690 Uiso
C24 C 0.1889(8) 0.9696(15) 0.1568(9) 0.0810 Uiso
C25 C 0.1885(8) 0.8896(13) 0.1009(9) 0.0760 Uiso
H20 H 0.1827 0.9065 0.0546 0.0910 Uiso
C26 C 0.6439(13) 0.992(2) 0.4922(13) 0.1260 Uiso
C28 C 0.5309(7) 0.9808(12) 0.4884(8) 0.0640 Uiso
C29 C 0.5372(10) 0.8865(15) 0.4700(10) 0.0910 Uiso
H23 H 0.5004 0.8453 0.4652 0.1100 Uiso
C30 C 0.5938(9) 0.8446(16) 0.4573(10) 0.0920 Uiso
H24 H 0.5973 0.7791 0.4443 0.1100 Uiso
N5 N 0.1968(6) 0.7975(11) 0.1220(8) 0.0720 Uiso
N6 N 0.6390(7) 0.9074(11) 0.4660(7) 0.0750 Uiso
O11 O 0.2014(5) 0.7277(8) 0.0741(6) 0.0800 Uiso
O14 O 0.7004(6) 0.8708(10) 0.4543(7) 0.0890 Uiso
Ni3 Ni 0.7500 0.7500 0.5000 0.0228 Uiso
C26_2 C 0.1439(13) 0.492(2) 0.4922(13) 0.1260 Uiso
H21_2 H 0.1848 0.5244 0.5075 0.1520 Uiso
C27_2 C 0.0831(11) 0.5365(17) 0.4972(11) 0.1040 Uiso
H22_2 H 0.0812 0.6038 0.5065 0.1250 Uiso
C28_2 C 0.0309(7) 0.4808(12) 0.4884(8) 0.0640 Uiso
C29_2 C 0.0372(10) 0.3865(15) 0.4700(10) 0.0910 Uiso
H23_2 H 0.0004 0.3453 0.4652 0.1100 Uiso
C30_2 C 0.0938(9) 0.3446(16) 0.4573(10) 0.0920 Uiso
H24_2 H 0.0973 0.2791 0.4443 0.1100 Uiso
N6_2 N 0.1390(7) 0.4074(11) 0.4660(7) 0.0750 Uiso
Ni2_3 Ni 0.7500 0.2500 0.0000 0.0228 Uiso
H1_2 H 0.7973 0.0242 0.5533 0.1130 Uiso
C2_2 C 0.8085(10) 0.0459(18) 0.6520(12) 0.1030 Uiso
H2_2 H 0.8001 0.1135 0.6463 0.1230 Uiso
C3_2 C 0.8208(9) 0.0095(14) 0.7177(10) 0.0820 Uiso
C6_2 C 0.8089(9) 0.243(2) 0.8166(10) 0.1130 Uiso
H5_2 H 0.8128 0.3110 0.8119 0.1350 Uiso
C7_2 C 0.8084(12) 0.179(2) 0.7620(15) 0.1370 Uiso
H6_2 H 0.8036 0.2017 0.7170 0.1640 Uiso
C8_2 C 0.8166(8) 0.0651(12) 0.7811(9) 0.0690 Uiso
C9_2 C 0.8111(8) 0.0304(15) 0.8432(9) 0.0810 Uiso
C10_2 C 0.8115(8) 0.1104(13) 0.8991(9) 0.0760 Uiso
H8_2 H 0.8173 0.0935 0.9454 0.0910 Uiso
N2_2 N 0.8032(6) 0.2025(11) 0.8780(8) 0.0720 Uiso
O8_2 O 0.7986(5) 0.2723(8) 0.9259(6) 0.0800 Uiso
Ni2_4 Ni 0.7500 0.2500 1.0000 0.0228 Uiso
C1_2 C 0.8073(9) 0.9961(15) 0.5974(11) 0.0940 Uiso
C4_2 C 0.8334(8) 0.9100(13) 0.7316(10) 0.0820 Uiso
H3_2 H 0.8422 0.8818 0.7756 0.0980 Uiso
C5_2 C 0.8308(8) 0.8517(13) 0.6641(9) 0.0710 Uiso
H4_2 H 0.8357 0.7832 0.6646 0.0850 Uiso
H7_2 H 0.8075 0.9632 0.8516 0.0970 Uiso
C11_2 C 0.8561(13) 0.508(2) 0.5078(13) 0.1260 Uiso
H9_2 H 0.8152 0.4756 0.4925 0.1520 Uiso
C12_2 C 0.9169(11) 0.4635(17) 0.5028(11) 0.1040 Uiso
H10_2 H 0.9188 0.3962 0.4935 0.1250 Uiso
C13_2 C 0.9691(7) 0.5192(12) 0.5116(8) 0.0640 Uiso
C14_2 C 0.9628(10) 0.6135(15) 0.5300(10) 0.0910 Uiso
H11_2 H 0.9996 0.6547 0.5348 0.1100 Uiso
C15_2 C 0.9062(9) 0.6554(16) 0.5427(10) 0.0920 Uiso
H12_2 H 0.9027 0.7209 0.5557 0.1100 Uiso
N1_2 N 0.8218(6) 0.9000(10) 0.6092(7) 0.0690 Uiso
N3_2 N 0.8610(7) 0.5926(11) 0.5340(7) 0.0750 Uiso
O7_2 O 0.8286(7) 0.8447(10) 0.5517(7) 0.0990 Uiso
O9_2 O 0.7996(6) 0.6292(10) 0.5457(7) 0.0890 Uiso
C16_2 C 0.6927(9) 0.5039(15) 0.4026(11) 0.0940 Uiso
H13_2 H 0.7027 0.4758 0.4467 0.1130 Uiso
C17_2 C 0.6915(10) 0.4541(18) 0.3480(12) 0.1030 Uiso
H14_2 H 0.6999 0.3865 0.3537 0.1230 Uiso
C18_2 C 0.6792(9) 0.4905(14) 0.2823(10) 0.0820 Uiso
C19_2 C 0.6666(8) 0.5900(13) 0.2684(10) 0.0820 Uiso
H15_2 H 0.6578 0.6182 0.2244 0.0980 Uiso
C20_2 C 0.6692(8) 0.6483(13) 0.3359(9) 0.0710 Uiso
H16_2 H 0.6643 0.7168 0.3354 0.0850 Uiso
C21_2 C 0.6911(9) 0.257(2) 0.1834(10) 0.1130 Uiso
H17_2 H 0.6872 0.1890 0.1881 0.1350 Uiso
C22_2 C 0.6916(12) 0.321(2) 0.2380(15) 0.1370 Uiso
H18_2 H 0.6964 0.2983 0.2830 0.1640 Uiso
C23_2 C 0.6834(8) 0.4349(12) 0.2189(9) 0.0690 Uiso
C24_2 C 0.6889(8) 0.4696(15) 0.1568(9) 0.0810 Uiso
H19_2 H 0.6925 0.5368 0.1484 0.0970 Uiso
C25_2 C 0.6885(8) 0.3896(13) 0.1009(9) 0.0760 Uiso
H20_2 H 0.6827 0.4065 0.0546 0.0910 Uiso
N4_2 N 0.6782(6) 0.6000(10) 0.3908(7) 0.0690 Uiso
N5_2 N 0.6968(6) 0.2975(11) 0.1220(8) 0.0720 Uiso
O10_2 O 0.6714(7) 0.6553(10) 0.4483(7) 0.0990 Uiso
O11_2 O 0.7014(5) 0.2277(8) 0.0741(6) 0.0800 Uiso
O12_2 O 0.7986(5) 0.7277(8) 0.4259(6) 0.0800 Uiso
O13_2 O 0.7014(5) 0.7723(8) 0.5741(6) 0.0800 Uiso
C16_3 C 0.8073(9) 0.0039(15) 0.0974(11) 0.0940 Uiso
C19_3 C 0.8334(8) 0.0900(13) 0.2316(10) 0.0820 Uiso
H15_3 H 0.8422 0.1182 0.2756 0.0980 Uiso
C20_3 C 0.8308(8) 0.1483(13) 0.1641(9) 0.0710 Uiso
H16_3 H 0.8357 0.2168 0.1646 0.0850 Uiso
H19_3 H 0.8075 0.0368 0.3516 0.0970 Uiso
C27_3 C 0.4169(11) 0.0365(17) 0.0028(11) 0.1040 Uiso
N4_3 N 0.8218(6) 0.1000(10) 0.1092(7) 0.0690 Uiso
O10_3 O 0.8286(7) 0.1553(10) 0.0517(7) 0.0990 Uiso
O15_2 O 0.7996(6) 0.3708(10) 0.0457(7) 0.0890 Uiso
C1_3 C 0.6927(9) 0.4961(15) 0.9026(11) 0.0940 Uiso
H1_3 H 0.7027 0.5242 0.9467 0.1130 Uiso
C2_3 C 0.6915(10) 0.5459(18) 0.8480(12) 0.1030 Uiso
H2_3 H 0.6999 0.6135 0.8537 0.1230 Uiso
C3_3 C 0.6792(9) 0.5095(14) 0.7823(10) 0.0820 Uiso
C4_3 C 0.6666(8) 0.4100(13) 0.7684(10) 0.0820 Uiso
H3_3 H 0.6578 0.3818 0.7244 0.0980 Uiso
C5_3 C 0.6692(8) 0.3517(13) 0.8359(9) 0.0710 Uiso
H4_3 H 0.6643 0.2832 0.8354 0.0850 Uiso
C6_3 C 0.6911(9) 0.743(2) 0.6834(10) 0.1130 Uiso
H5_3 H 0.6872 0.8110 0.6881 0.1350 Uiso
C7_3 C 0.6916(12) 0.679(2) 0.7380(15) 0.1370 Uiso
H6_3 H 0.6964 0.7017 0.7830 0.1640 Uiso
C8_3 C 0.6834(8) 0.5651(12) 0.7189(9) 0.0690 Uiso
C9_3 C 0.6889(8) 0.5304(15) 0.6568(9) 0.0810 Uiso
H7_3 H 0.6925 0.4632 0.6484 0.0970 Uiso
C10_3 C 0.6885(8) 0.6104(13) 0.6009(9) 0.0760 Uiso
H8_3 H 0.6827 0.5935 0.5546 0.0910 Uiso
C11_3 C 0.6439(13) 0.008(2) 0.9922(13) 0.1260 Uiso
C13_3 C 0.5309(7) 0.0192(12) 0.9884(8) 0.0640 Uiso
C14_3 C 0.5372(10) 0.1135(15) 0.9700(10) 0.0910 Uiso
H11_3 H 0.5004 0.1547 0.9652 0.1100 Uiso
C15_3 C 0.5938(9) 0.1554(16) 0.9573(10) 0.0920 Uiso
H12_3 H 0.5973 0.2209 0.9443 0.1100 Uiso
N1_3 N 0.6782(6) 0.4000(10) 0.8908(7) 0.0690 Uiso
N2_3 N 0.6968(6) 0.7025(11) 0.6220(8) 0.0720 Uiso
N3_3 N 0.6390(7) 0.0926(11) 0.9660(7) 0.0750 Uiso
O7_3 O 0.6714(7) 0.3447(10) 0.9483(7) 0.0990 Uiso
O9_3 O 0.7004(6) 0.1292(10) 0.9543(7) 0.0890 Uiso
H21_3 H 0.3152 0.0244 0.9925 0.1520 Uiso
H22_3 H 0.4188 0.1038 0.9935 0.1250 Uiso
H9_3 H 0.6848 0.9756 0.0075 0.1520 Uiso
H10_3 H 0.5812 0.8962 0.0065 0.1250 Uiso
H13_3 H 0.7973 0.9758 0.0533 0.1130 Uiso
C17_3 C 0.8085(10) 0.9541(18) 0.1520(12) 0.1030 Uiso
H14_3 H 0.8001 0.8865 0.1463 0.1230 Uiso
C18_3 C 0.8208(9) 0.9905(14) 0.2177(10) 0.0820 Uiso
C21_3 C 0.8089(9) 0.757(2) 0.3166(10) 0.1130 Uiso
H17_3 H 0.8128 0.6890 0.3119 0.1350 Uiso
C22_3 C 0.8084(12) 0.821(2) 0.2620(15) 0.1370 Uiso
H18_3 H 0.8036 0.7983 0.2170 0.1640 Uiso
C23_3 C 0.8166(8) 0.9349(12) 0.2811(9) 0.0690 Uiso
C24_3 C 0.8111(8) 0.9696(15) 0.3432(9) 0.0810 Uiso
C25_3 C 0.8115(8) 0.8896(13) 0.3991(9) 0.0760 Uiso
H20_3 H 0.8173 0.9065 0.4454 0.0910 Uiso
C26_3 C 0.3561(13) 0.992(2) 0.0078(13) 0.1260 Uiso
C28_3 C 0.4691(7) 0.9808(12) 0.0116(8) 0.0640 Uiso
C29_3 C 0.4628(10) 0.8865(15) 0.0300(10) 0.0910 Uiso
H23_3 H 0.4996 0.8453 0.0348 0.1100 Uiso
C30_3 C 0.4062(9) 0.8446(16) 0.0427(10) 0.0920 Uiso
H24_3 H 0.4027 0.7791 0.0557 0.1100 Uiso
N5_3 N 0.8032(6) 0.7975(11) 0.3780(8) 0.0720 Uiso
N6_3 N 0.3610(7) 0.9074(11) 0.0340(7) 0.0750 Uiso
O14_2 O 0.2996(6) 0.8708(10) 0.0457(7) 0.0890 Uiso
C12_3 C 0.5831(11) 0.9635(17) 0.9972(11) 0.1040 Uiso
H1_4 H 0.2027 0.0242 0.9467 0.1130 Uiso
C2_4 C 0.1915(10) 0.0459(18) 0.8480(12) 0.1030 Uiso
H2_4 H 0.1999 0.1135 0.8537 0.1230 Uiso
C3_4 C 0.1792(9) 0.0095(14) 0.7823(10) 0.0820 Uiso
C6_4 C 0.1911(9) 0.243(2) 0.6834(10) 0.1130 Uiso
H5_4 H 0.1872 0.3110 0.6881 0.1350 Uiso
C7_4 C 0.1916(12) 0.179(2) 0.7380(15) 0.1370 Uiso
H6_4 H 0.1964 0.2017 0.7830 0.1640 Uiso
C8_4 C 0.1834(8) 0.0651(12) 0.7189(9) 0.0690 Uiso
C9_4 C 0.1889(8) 0.0304(15) 0.6568(9) 0.0810 Uiso
C10_4 C 0.1885(8) 0.1104(13) 0.6009(9) 0.0760 Uiso
H8_4 H 0.1827 0.0935 0.5546 0.0910 Uiso
N2_4 N 0.1968(6) 0.2025(11) 0.6220(8) 0.0720 Uiso
H9_4 H 0.1848 0.4756 0.0075 0.1520 Uiso
H10_4 H 0.0812 0.3962 0.0065 0.1250 Uiso
C16_4 C 0.3073(9) 0.5039(15) 0.0974(11) 0.0940 Uiso
H13_4 H 0.2973 0.4758 0.0533 0.1130 Uiso
C17_4 C 0.3085(10) 0.4541(18) 0.1520(12) 0.1030 Uiso
H14_4 H 0.3001 0.3865 0.1463 0.1230 Uiso
C18_4 C 0.3208(9) 0.4905(14) 0.2177(10) 0.0820 Uiso
C19_4 C 0.3334(8) 0.5900(13) 0.2316(10) 0.0820 Uiso
H15_4 H 0.3422 0.6182 0.2756 0.0980 Uiso
C20_4 C 0.3308(8) 0.6483(13) 0.1641(9) 0.0710 Uiso
H16_4 H 0.3357 0.7168 0.1646 0.0850 Uiso
C21_4 C 0.3089(9) 0.257(2) 0.3166(10) 0.1130 Uiso
H17_4 H 0.3128 0.1890 0.3119 0.1350 Uiso
C22_4 C 0.3084(12) 0.321(2) 0.2620(15) 0.1370 Uiso
H18_4 H 0.3036 0.2983 0.2170 0.1640 Uiso
C23_4 C 0.3166(8) 0.4349(12) 0.2811(9) 0.0690 Uiso
C24_4 C 0.3111(8) 0.4696(15) 0.3432(9) 0.0810 Uiso
H19_4 H 0.3075 0.5368 0.3516 0.0970 Uiso
C25_4 C 0.3115(8) 0.3896(13) 0.3991(9) 0.0760 Uiso
H20_4 H 0.3173 0.4065 0.4454 0.0910 Uiso
N4_4 N 0.3218(6) 0.6000(10) 0.1092(7) 0.0690 Uiso
N5_4 N 0.3032(6) 0.2975(11) 0.3780(8) 0.0720 Uiso
O10_4 O 0.3286(7) 0.6553(10) 0.0517(7) 0.0990 Uiso
C1_4 C 0.1927(9) 0.9961(15) 0.9026(11) 0.0940 Uiso
C4_4 C 0.1666(8) 0.9100(13) 0.7684(10) 0.0820 Uiso
H3_4 H 0.1578 0.8818 0.7244 0.0980 Uiso
C5_4 C 0.1692(8) 0.8517(13) 0.8359(9) 0.0710 Uiso
H4_4 H 0.1643 0.7832 0.8354 0.0850 Uiso
H7_4 H 0.1925 0.9632 0.6484 0.0970 Uiso
C11_4 C 0.1439(13) 0.508(2) 0.9922(13) 0.1260 Uiso
C12_4 C 0.0831(11) 0.4635(17) 0.9972(11) 0.1040 Uiso
C13_4 C 0.0309(7) 0.5192(12) 0.9884(8) 0.0640 Uiso
C14_4 C 0.0372(10) 0.6135(15) 0.9700(10) 0.0910 Uiso
H11_4 H 0.0004 0.6547 0.9652 0.1100 Uiso
C15_4 C 0.0938(9) 0.6554(16) 0.9573(10) 0.0920 Uiso
H12_4 H 0.0973 0.7209 0.9443 0.1100 Uiso
N1_4 N 0.1782(6) 0.9000(10) 0.8908(7) 0.0690 Uiso
N3_4 N 0.1390(7) 0.5926(11) 0.9660(7) 0.0750 Uiso
O7_4 O 0.1714(7) 0.8447(10) 0.9483(7) 0.0990 Uiso
O9_4 O 0.2004(6) 0.6292(10) 0.9543(7) 0.0890 Uiso
C26_4 C 0.8561(13) 0.492(2) 0.0078(13) 0.1260 Uiso
C27_4 C 0.9169(11) 0.5365(17) 0.0028(11) 0.1040 Uiso
C28_4 C 0.9691(7) 0.4808(12) 0.0116(8) 0.0640 Uiso
C29_4 C 0.9628(10) 0.3865(15) 0.0300(10) 0.0910 Uiso
H23_4 H 0.9996 0.3453 0.0348 0.1100 Uiso
C30_4 C 0.9062(9) 0.3446(16) 0.0427(10) 0.0920 Uiso
H24_4 H 0.9027 0.2791 0.0557 0.1100 Uiso
N6_4 N 0.8610(7) 0.4074(11) 0.0340(7) 0.0750 Uiso
H21_4 H 0.8152 0.5244 0.9925 0.1520 Uiso
H22_4 H 0.9188 0.6038 0.9935 0.1250 Uiso
loop_
_geom_bond_atom_site_label_1
_geom_bond_atom_site_label_2
_geom_bond_site_symmetry_1
_geom_bond_site_symmetry_2
O1 S1 1_555 1_555
O2 S1 1_555 1_555
O3 S1 1_555 1_555
S1 S2 1_555 1_555
O4 S2 1_555 1_555
O5 S2 1_555 1_555
O6 S2 1_555 1_555
O1_2 S1_2 1_555 1_555
O2_2 S1_2 1_555 1_555
O3_2 S1_2 1_555 1_555
S1_2 S2_2 1_555 1_555
O4_2 S2_2 1_555 1_555
O5_2 S2_2 1_555 1_555
O6_2 S2_2 1_555 1_555
O4_3 S2_3 1_555 1_555
O5_3 S2_3 1_555 1_555
O6_3 S2_3 1_555 1_555
O1_3 S1_3 1_555 1_555
O2_3 S1_3 1_555 1_555
O3_3 S1_3 1_555 1_555
O4_4 S2_4 1_555 1_555
O5_4 S2_4 1_555 1_555
O6_4 S2_4 1_555 1_555
O1_4 S1_4 1_555 1_555
O2_4 S1_4 1_555 1_555
O3_4 S1_4 1_555 1_555
C1 H1 1_555 1_555
C2 C1 1_555 1_555
H2 C2 1_555 1_555
C3 C2 1_555 1_555
C4 C3 1_555 1_555
H3 C4 1_555 1_555
C5 C4 1_555 1_555
H4 C5 1_555 1_555
C6 H5 1_555 1_555
C7 C6 1_555 1_555
H6 C7 1_555 1_555
C8 C3 1_555 1_555
C9 C8 1_555 1_555
H7 C9 1_555 1_555
C10 C9 1_555 1_555
H8 C10 1_555 1_555
C14 C13 1_555 1_555
H11 C14 1_555 1_555
C15 C14 1_555 1_555
H12 C15 1_555 1_555
N1 C1 1_555 1_555
N2 C6 1_555 1_555
N3 C11 1_555 1_555
O7 N1 1_555 1_555
O8 N2 1_555 1_555
O9 N3 1_555 1_555
Ni1 O7 1_555 1_555
H15 C19 1_555 1_555
C20 C19 1_555 1_555
H16 C20 1_555 1_555
H22 C27 1_555 1_555
N4 C16 1_555 1_555
O10 Ni1 1_555 1_555
O12 Ni1 1_555 1_555
O13 Ni1 1_555 1_555
O15 Ni1 1_555 1_555
Ni2_2 O8 1_555 1_555
C5 N1 1_555 1_555
C7 C8 1_555 1_555
C10 N2 1_555 1_555
C15 N3 1_555 1_555
O9 Ni1 1_555 1_555
C20 N4 1_555 1_555
N4 O10 1_555 1_555
H10 C12 1_555 1_555
H14 C17 1_555 1_555
C18 C17 1_555 1_555
C21 H17 1_555 1_555
C22 C21 1_555 1_555
H18 C22 1_555 1_555
C23 C18 1_555 1_555
C24 C23 1_555 1_555
C25 C24 1_555 1_555
H20 C25 1_555 1_555
C29 C28 1_555 1_555
H23 C29 1_555 1_555
C30 C29 1_555 1_555
H24 C30 1_555 1_555
N5 C21 1_555 1_555
N6 C26 1_555 1_555
O11 N5 1_555 1_555
O14 N6 1_555 1_555
Ni3 O14 1_555 1_555
Ni2 O11 1_555 1_555
C22 C23 1_555 1_555
C25 N5 1_555 1_555
C30 N6 1_555 1_555
C26_2 H21_2 1_555 1_555
C27_2 C26_2 1_555 1_555
H22_2 C27_2 1_555 1_555
C29_2 C28_2 1_555 1_555
H23_2 C29_2 1_555 1_555
C30_2 C29_2 1_555 1_555
H24_2 C30_2 1_555 1_555
N6_2 C26_2 1_555 1_555
O15 N6_2 1_555 1_555
C27_2 C28_2 1_555 1_555
C30_2 N6_2 1_555 1_555
H2_2 C2_2 1_555 1_555
C3_2 C2_2 1_555 1_555
C6_2 H5_2 1_555 1_555
C7_2 C6_2 1_555 1_555
H6_2 C7_2 1_555 1_555
C8_2 C3_2 1_555 1_555
C9_2 C8_2 1_555 1_555
C10_2 C9_2 1_555 1_555
H8_2 C10_2 1_555 1_555
N2_2 C6_2 1_555 1_555
O8_2 N2_2 1_555 1_555
Ni2_4 O8_2 1_555 1_555
C7_2 C8_2 1_555 1_555
C10_2 N2_2 1_555 1_555
H3_2 C4_2 1_555 1_555
C5_2 C4_2 1_555 1_555
H4_2 C5_2 1_555 1_555
C11_2 H9_2 1_555 1_555
C12_2 C11_2 1_555 1_555
H10_2 C12_2 1_555 1_555
C13_2 C12_2 1_555 1_555
C14_2 C13_2 1_555 1_555
H11_2 C14_2 1_555 1_555
C15_2 C14_2 1_555 1_555
H12_2 C15_2 1_555 1_555
N1_2 C1_2 1_555 1_555
N3_2 C11_2 1_555 1_555
O7_2 N1_2 1_555 1_555
O9_2 N3_2 1_555 1_555
Ni3 O7_2 1_555 1_555
C16_2 H13_2 1_555 1_555
C17_2 C16_2 1_555 1_555
H14_2 C17_2 1_555 1_555
C18_2 C17_2 1_555 1_555
C19_2 C18_2 1_555 1_555
H15_2 C19_2 1_555 1_555
C20_2 C19_2 1_555 1_555
H16_2 C20_2 1_555 1_555
C21_2 H17_2 1_555 1_555
C22_2 C21_2 1_555 1_555
H18_2 C22_2 1_555 1_555
C23_2 C18_2 1_555 1_555
C24_2 C23_2 1_555 1_555
H19_2 C24_2 1_555 1_555
C25_2 C24_2 1_555 1_555
H20_2 C25_2 1_555 1_555
N4_2 C16_2 1_555 1_555
N5_2 C21_2 1_555 1_555
O10_2 Ni3 1_555 1_555
O11_2 N5_2 1_555 1_555
O12_2 Ni3 1_555 1_555
O13_2 Ni3 1_555 1_555
Ni2_3 O11_2 1_555 1_555
C5_2 N1_2 1_555 1_555
C15_2 N3_2 1_555 1_555
O9_2 Ni3 1_555 1_555
C20_2 N4_2 1_555 1_555
C22_2 C23_2 1_555 1_555
C25_2 N5_2 1_555 1_555
N4_2 O10_2 1_555 1_555
H15_3 C19_3 1_555 1_555
C20_3 C19_3 1_555 1_555
H16_3 C20_3 1_555 1_555
N4_3 C16_3 1_555 1_555
O10_3 Ni2_3 1_555 1_555
O15_2 Ni2_3 1_555 1_555
C20_3 N4_3 1_555 1_555
N4_3 O10_3 1_555 1_555
C1_3 H1_3 1_555 1_555
C2_3 C1_3 1_555 1_555
H2_3 C2_3 1_555 1_555
C3_3 C2_3 1_555 1_555
C4_3 C3_3 1_555 1_555
H3_3 C4_3 1_555 1_555
C5_3 C4_3 1_555 1_555
H4_3 C5_3 1_555 1_555
C6_3 H5_3 1_555 1_555
C7_3 C6_3 1_555 1_555
H6_3 C7_3 1_555 1_555
C8_3 C3_3 1_555 1_555
C9_3 C8_3 1_555 1_555
H7_3 C9_3 1_555 1_555
C10_3 C9_3 1_555 1_555
H8_3 C10_3 1_555 1_555
C14_3 C13_3 1_555 1_555
H11_3 C14_3 1_555 1_555
C15_3 C14_3 1_555 1_555
H12_3 C15_3 1_555 1_555
N1_3 C1_3 1_555 1_555
N2_3 C6_3 1_555 1_555
N3_3 C11_3 1_555 1_555
O7_3 N1_3 1_555 1_555
O13_2 N2_3 1_555 1_555
O9_3 N3_3 1_555 1_555
Ni2_4 O7_3 1_555 1_555
C5_3 N1_3 1_555 1_555
C7_3 C8_3 1_555 1_555
C10_3 N2_3 1_555 1_555
C15_3 N3_3 1_555 1_555
O9_3 Ni2_4 1_555 1_555
H14_3 C17_3 1_555 1_555
C18_3 C17_3 1_555 1_555
C21_3 H17_3 1_555 1_555
C22_3 C21_3 1_555 1_555
H18_3 C22_3 1_555 1_555
C23_3 C18_3 1_555 1_555
C24_3 C23_3 1_555 1_555
C25_3 C24_3 1_555 1_555
H20_3 C25_3 1_555 1_555
C29_3 C28_3 1_555 1_555
H23_3 C29_3 1_555 1_555
C30_3 C29_3 1_555 1_555
H24_3 C30_3 1_555 1_555
N5_3 C21_3 1_555 1_555
N6_3 C26_3 1_555 1_555
O12_2 N5_3 1_555 1_555
O14_2 N6_3 1_555 1_555
Ni2 O14_2 1_555 1_555
C22_3 C23_3 1_555 1_555
C25_3 N5_3 1_555 1_555
C30_3 N6_3 1_555 1_555
H2_4 C2_4 1_555 1_555
C3_4 C2_4 1_555 1_555
C6_4 H5_4 1_555 1_555
C7_4 C6_4 1_555 1_555
H6_4 C7_4 1_555 1_555
C8_4 C3_4 1_555 1_555
C9_4 C8_4 1_555 1_555
C10_4 C9_4 1_555 1_555
H8_4 C10_4 1_555 1_555
N2_4 C6_4 1_555 1_555
O13 N2_4 1_555 1_555
C7_4 C8_4 1_555 1_555
C10_4 N2_4 1_555 1_555
C16_4 H13_4 1_555 1_555
C17_4 C16_4 1_555 1_555
H14_4 C17_4 1_555 1_555
C18_4 C17_4 1_555 1_555
C19_4 C18_4 1_555 1_555
H15_4 C19_4 1_555 1_555
C20_4 C19_4 1_555 1_555
H16_4 C20_4 1_555 1_555
C21_4 H17_4 1_555 1_555
C22_4 C21_4 1_555 1_555
H18_4 C22_4 1_555 1_555
C23_4 C18_4 1_555 1_555
C24_4 C23_4 1_555 1_555
H19_4 C24_4 1_555 1_555
C25_4 C24_4 1_555 1_555
H20_4 C25_4 1_555 1_555
N4_4 C16_4 1_555 1_555
N5_4 C21_4 1_555 1_555
O10_4 Ni2 1_555 1_555
O12 N5_4 1_555 1_555
C20_4 N4_4 1_555 1_555
C22_4 C23_4 1_555 1_555
C25_4 N5_4 1_555 1_555
N4_4 O10_4 1_555 1_555
H3_4 C4_4 1_555 1_555
C5_4 C4_4 1_555 1_555
H4_4 C5_4 1_555 1_555
C12_4 C11_4 1_555 1_555
C13_4 C12_4 1_555 1_555
C14_4 C13_4 1_555 1_555
H11_4 C14_4 1_555 1_555
C15_4 C14_4 1_555 1_555
H12_4 C15_4 1_555 1_555
N1_4 C1_4 1_555 1_555
N3_4 C11_4 1_555 1_555
O7_4 N1_4 1_555 1_555
O9_4 N3_4 1_555 1_555
Ni2_2 O7_4 1_555 1_555
C5_4 N1_4 1_555 1_555
C15_4 N3_4 1_555 1_555
O9_4 Ni2_2 1_555 1_555
C27_4 C26_4 1_555 1_555
C29_4 C28_4 1_555 1_555
H23_4 C29_4 1_555 1_555
C30_4 C29_4 1_555 1_555
H24_4 C30_4 1_555 1_555
N6_4 C26_4 1_555 1_555
O15_2 N6_4 1_555 1_555
C27_4 C28_4 1_555 1_555
C30_4 N6_4 1_555 1_555

#END
