
###############################################################################
#
# This file contains modified crystal structure data generated from the
# MOF subset of the Cambridge Structural Database (CSD) v543 
# hosted by the Cambridge Crystallographic Data Centre (CCDC).
#
# This work is licensed under the Creative Commons
# Attribution-NonCommercial-ShareAlike 4.0 International License.
# To view a copy of this license, visit
# http://creativecommons.org/licenses/by-nc-sa/4.0/
# or send a letter to
# Creative Commons, PO Box 1866, Mountain View, CA 94042, USA.
#
# CIF created using the CSD Python API on 29 September 2022
# The structure has been converted into the P1 space group
# The structure has a 3D framework
# The original CSD entry WEHQEG is in the orthorhombic crystal system
# The framework has been calculated to contain at least 10.0% void space
# The void calculation uses a probe of radius 1.32A, grid spacing 0.4
# The framework is charged, counterions have been retained in the structure
#
###############################################################################

data_WEHQEG
_chemical_formula_moiety         '(C512 H256 Ag16 F96 N64 O26 Sb16)n'
_symmetry_cell_setting           triclinic
_symmetry_space_group_name_H-M   'P 1'
_symmetry_Int_Tables_number      1
_space_group_name_Hall           'P 1'
loop_
_symmetry_equiv_pos_site_id
_symmetry_equiv_pos_as_xyz
1 x,y,z
_cell_length_a                   23.124(2)
_cell_length_b                   37.368(5)
_cell_length_c                   19.180(2)
_cell_angle_alpha                90
_cell_angle_beta                 90
_cell_angle_gamma                90
_cell_volume                     16573.4
loop_
_atom_site_label
_atom_site_type_symbol
_atom_site_fract_x
_atom_site_fract_y
_atom_site_fract_z
F1 F 0.0381(7) 0.7790(3) 0.0146(8)
F2 F 0.0808(10) 0.7183(3) 0.0366(7)
F3 F 0.0524(7) 0.7240(3) 0.1597(7)
F4 F 0.0187(8) 0.7857(3) 0.1419(9)
F6 F 0.1192(6) 0.7674(6) 0.0924(9)
Sb1 Sb 0.05046(8) 0.75290(3) 0.08945(11)
F5 F 0.9799(7) 0.7340(7) 0.0709(10)
F5_2 F 0.0201(7) 0.2660(7) 0.0709(10)
F1_2 F 0.9619(7) 0.2210(3) 0.0146(8)
F2_2 F 0.9192(10) 0.2817(3) 0.0366(7)
F3_2 F 0.9476(7) 0.2760(3) 0.1597(7)
F4_2 F 0.9813(8) 0.2143(3) 0.1419(9)
F6_2 F 0.8808(6) 0.2326(6) 0.0924(9)
Sb1_2 Sb 0.94954(8) 0.24710(3) 0.08945(11)
F1_3 F 0.2881(7) 0.4710(3) 0.2646(8)
F2_3 F 0.3308(10) 0.5317(3) 0.2866(7)
F3_3 F 0.3024(7) 0.5260(3) 0.4097(7)
F4_3 F 0.2687(8) 0.4643(3) 0.3919(9)
F5_3 F 0.2299(7) 0.5160(7) 0.3209(10)
F6_3 F 0.3692(6) 0.4826(6) 0.3424(9)
Sb1_3 Sb 0.30046(8) 0.49710(3) 0.33945(11)
F1_4 F 0.2119(7) 0.0290(3) 0.2646(8)
F4_4 F 0.2313(8) 0.0357(3) 0.3919(9)
F6_4 F 0.1308(6) 0.0174(6) 0.3424(9)
Sb1_4 Sb 0.19954(8) 0.00290(3) 0.33945(11)
F2_4 F 0.1692(10) 0.9683(3) 0.2866(7)
F3_4 F 0.1976(7) 0.9740(3) 0.4097(7)
F5_4 F 0.2701(7) 0.9840(7) 0.3209(10)
F1_5 F 0.0381(7) 0.2790(3) 0.5146(8)
F2_5 F 0.0808(10) 0.2183(3) 0.5366(7)
F3_5 F 0.0524(7) 0.2240(3) 0.6597(7)
F4_5 F 0.0187(8) 0.2857(3) 0.6419(9)
F6_5 F 0.1192(6) 0.2674(6) 0.5924(9)
Sb1_5 Sb 0.05046(8) 0.25290(3) 0.58945(11)
F5_5 F 0.9799(7) 0.2340(7) 0.5709(10)
F5_6 F 0.0201(7) 0.7660(7) 0.5709(10)
F1_6 F 0.9619(7) 0.7210(3) 0.5146(8)
F2_6 F 0.9192(10) 0.7817(3) 0.5366(7)
F3_6 F 0.9476(7) 0.7760(3) 0.6597(7)
F4_6 F 0.9813(8) 0.7143(3) 0.6419(9)
F6_6 F 0.8808(6) 0.7326(6) 0.5924(9)
Sb1_6 Sb 0.94954(8) 0.74710(3) 0.58945(11)
F2_7 F 0.3308(10) 0.0317(3) 0.7866(7)
F3_7 F 0.3024(7) 0.0260(3) 0.9097(7)
F5_7 F 0.2299(7) 0.0160(7) 0.8209(10)
F1_7 F 0.2881(7) 0.9710(3) 0.7646(8)
F4_7 F 0.2687(8) 0.9643(3) 0.8919(9)
F6_7 F 0.3692(6) 0.9826(6) 0.8424(9)
Sb1_7 Sb 0.30046(8) 0.99710(3) 0.83945(11)
F1_8 F 0.2119(7) 0.5290(3) 0.7646(8)
F2_8 F 0.1692(10) 0.4683(3) 0.7866(7)
F3_8 F 0.1976(7) 0.4740(3) 0.9097(7)
F4_8 F 0.2313(8) 0.5357(3) 0.8919(9)
F5_8 F 0.2701(7) 0.4840(7) 0.8209(10)
F6_8 F 0.1308(6) 0.5174(6) 0.8424(9)
Sb1_8 Sb 0.19954(8) 0.50290(3) 0.83945(11)
F1_9 F 0.5381(7) 0.7790(3) 0.5146(8)
F2_9 F 0.5808(10) 0.7183(3) 0.5366(7)
F3_9 F 0.5524(7) 0.7240(3) 0.6597(7)
F4_9 F 0.5187(8) 0.7857(3) 0.6419(9)
F5_9 F 0.4799(7) 0.7340(7) 0.5709(10)
F6_9 F 0.6192(6) 0.7674(6) 0.5924(9)
Sb1_9 Sb 0.55046(8) 0.75290(3) 0.58945(11)
F1_10 F 0.4619(7) 0.2210(3) 0.5146(8)
F2_10 F 0.4192(10) 0.2817(3) 0.5366(7)
F3_10 F 0.4476(7) 0.2760(3) 0.6597(7)
F4_10 F 0.4813(8) 0.2143(3) 0.6419(9)
F5_10 F 0.5201(7) 0.2660(7) 0.5709(10)
F6_10 F 0.3808(6) 0.2326(6) 0.5924(9)
Sb1_10 Sb 0.44954(8) 0.24710(3) 0.58945(11)
F1_11 F 0.7881(7) 0.4710(3) 0.7646(8)
F2_11 F 0.8308(10) 0.5317(3) 0.7866(7)
F3_11 F 0.8024(7) 0.5260(3) 0.9097(7)
F4_11 F 0.7687(8) 0.4643(3) 0.8919(9)
F5_11 F 0.7299(7) 0.5160(7) 0.8209(10)
F6_11 F 0.8692(6) 0.4826(6) 0.8424(9)
Sb1_11 Sb 0.80046(8) 0.49710(3) 0.83945(11)
F1_12 F 0.7119(7) 0.0290(3) 0.7646(8)
F4_12 F 0.7313(8) 0.0357(3) 0.8919(9)
F6_12 F 0.6308(6) 0.0174(6) 0.8424(9)
Sb1_12 Sb 0.69954(8) 0.00290(3) 0.83945(11)
F2_12 F 0.6692(10) 0.9683(3) 0.7866(7)
F3_12 F 0.6976(7) 0.9740(3) 0.9097(7)
F5_12 F 0.7701(7) 0.9840(7) 0.8209(10)
F1_13 F 0.5381(7) 0.2790(3) 0.0146(8)
F2_13 F 0.5808(10) 0.2183(3) 0.0366(7)
F3_13 F 0.5524(7) 0.2240(3) 0.1597(7)
F4_13 F 0.5187(8) 0.2857(3) 0.1419(9)
F5_13 F 0.4799(7) 0.2340(7) 0.0709(10)
F6_13 F 0.6192(6) 0.2674(6) 0.0924(9)
Sb1_13 Sb 0.55046(8) 0.25290(3) 0.08945(11)
F1_14 F 0.4619(7) 0.7210(3) 0.0146(8)
F2_14 F 0.4192(10) 0.7817(3) 0.0366(7)
F3_14 F 0.4476(7) 0.7760(3) 0.1597(7)
F4_14 F 0.4813(8) 0.7143(3) 0.1419(9)
F5_14 F 0.5201(7) 0.7660(7) 0.0709(10)
F6_14 F 0.3808(6) 0.7326(6) 0.0924(9)
Sb1_14 Sb 0.44954(8) 0.74710(3) 0.08945(11)
F2_15 F 0.8308(10) 0.0317(3) 0.2866(7)
F3_15 F 0.8024(7) 0.0260(3) 0.4097(7)
F5_15 F 0.7299(7) 0.0160(7) 0.3209(10)
F1_15 F 0.7881(7) 0.9710(3) 0.2646(8)
F4_15 F 0.7687(8) 0.9643(3) 0.3919(9)
F6_15 F 0.8692(6) 0.9826(6) 0.3424(9)
Sb1_15 Sb 0.80046(8) 0.99710(3) 0.33945(11)
F1_16 F 0.7119(7) 0.5290(3) 0.2646(8)
F2_16 F 0.6692(10) 0.4683(3) 0.2866(7)
F3_16 F 0.6976(7) 0.4740(3) 0.4097(7)
F4_16 F 0.7313(8) 0.5357(3) 0.3919(9)
F5_16 F 0.7701(7) 0.4840(7) 0.3209(10)
F6_16 F 0.6308(6) 0.5174(6) 0.3424(9)
Sb1_16 Sb 0.69954(8) 0.50290(3) 0.33945(11)
Ag1 Ag 0.22851(3) 0.701147(15) 0.12497(4)
N1 N 0.2401(3) 0.73208(16) 0.0240(3)
N2 N 0.2487(3) 0.73110(17) 0.2275(3)
N4 N 0.0369(4) 0.6009(3) 0.8440(5)
C1 C 0.2489(4) 0.7215(2) 0.2893(5)
C2 C 0.2462(3) 0.6861(2) 0.3209(4)
C3 C 0.2679(4) 0.6563(2) 0.2865(4)
H1 H 0.2851 0.6593 0.2430
C4 C 0.2651(4) 0.6235(3) 0.3133(5)
H2 H 0.2801 0.6042 0.2884
C5 C 0.2400(4) 0.6178(2) 0.3777(5)
H3 H 0.2393 0.5949 0.3968
C6 C 0.2156(4) 0.6465(3) 0.4144(4)
C7 C 0.2202(3) 0.6807(2) 0.3855(5)
H4 H 0.2056 0.7002 0.4099
C8 C 0.1885(4) 0.6410(2) 0.4796(4)
C9 C 0.1667(4) 0.6359(3) 0.5349(5)
C10 C 0.1381(4) 0.6300(3) 0.6013(4)
C11 C 0.1468(4) 0.5973(2) 0.6335(4)
H5 H 0.1687 0.5794 0.6123
C12 C 0.1221(4) 0.5920(3) 0.6977(4)
H6 H 0.1301 0.5709 0.7217
C13 C 0.0869(4) 0.6159(2) 0.7270(4)
C14 C 0.0585(4) 0.6086(2) 0.7924(4)
C15 C 0.0760(4) 0.6480(3) 0.6935(5)
H7 H 0.0509 0.6647 0.7129
C16 C 0.1030(4) 0.6548(2) 0.6311(5)
H8 H 0.0972 0.6767 0.6090
H9 H 0.1632 0.6729 0.0053
O2 O 0.2500 0.7500 0.3350(4)
Ag2 Ag 0.27149(3) 0.798853(15) 0.12497(4)
Ag6 Ag 0.52149(3) 0.951147(15) 0.87497(4)
N5 N 0.2599(3) 0.76792(16) 0.0240(3)
N6 N 0.2513(3) 0.76890(17) 0.2275(3)
N8 N 0.1530(4) 0.6646(2) 0.1607(4)
N9 N 0.3470(4) 0.8354(2) 0.1607(4)
N10 N 0.4631(4) 0.8991(3) 0.8440(5)
N11 N 0.2869(4) 0.6491(3) 0.0940(5)
N12 N 0.2131(4) 0.8509(3) 0.0940(5)
C33 C 0.2511(4) 0.7785(2) 0.2893(5)
C34 C 0.2538(3) 0.8139(2) 0.3209(4)
C35 C 0.2321(4) 0.8437(2) 0.2865(4)
H17 H 0.2149 0.8407 0.2430
C36 C 0.2349(4) 0.8765(3) 0.3133(5)
H18 H 0.2199 0.8958 0.2884
C37 C 0.2600(4) 0.8822(2) 0.3777(5)
H19 H 0.2607 0.9051 0.3968
C38 C 0.2844(4) 0.8535(3) 0.4144(4)
C39 C 0.2798(3) 0.8193(2) 0.3855(5)
H20 H 0.2944 0.7998 0.4099
C40 C 0.3115(4) 0.8590(2) 0.4796(4)
C41 C 0.3333(4) 0.8641(3) 0.5349(5)
C42 C 0.3619(4) 0.8700(3) 0.6013(4)
C43 C 0.3532(4) 0.9027(2) 0.6335(4)
H21 H 0.3313 0.9206 0.6123
C44 C 0.3779(4) 0.9080(3) 0.6977(4)
H22 H 0.3699 0.9291 0.7217
C45 C 0.4131(4) 0.8841(2) 0.7270(4)
C46 C 0.4415(4) 0.8914(2) 0.7924(4)
C47 C 0.4240(4) 0.8520(3) 0.6935(5)
H23 H 0.4491 0.8353 0.7129
C48 C 0.3970(4) 0.8452(2) 0.6311(5)
H24 H 0.4028 0.8233 0.6090
H25 H 0.3368 0.8271 0.0053
Ag4 Ag 0.97851(3) 0.548853(15) 0.87497(4)
Ag4_2 Ag 0.02149(3) 0.451147(15) 0.87497(4)
Ag1_2 Ag 0.77149(3) 0.298853(15) 0.12497(4)
N1_2 N 0.7599(3) 0.26792(16) 0.0240(3)
N2_2 N 0.7513(3) 0.26890(17) 0.2275(3)
N4_2 N 0.9631(4) 0.3991(3) 0.8440(5)
C1_2 C 0.7511(4) 0.2785(2) 0.2893(5)
C2_2 C 0.7538(3) 0.3139(2) 0.3209(4)
C3_2 C 0.7321(4) 0.3437(2) 0.2865(4)
H1_2 H 0.7149 0.3407 0.2430
C4_2 C 0.7349(4) 0.3765(3) 0.3133(5)
H2_2 H 0.7199 0.3958 0.2884
C5_2 C 0.7600(4) 0.3822(2) 0.3777(5)
H3_2 H 0.7607 0.4051 0.3968
C6_2 C 0.7844(4) 0.3535(3) 0.4144(4)
C7_2 C 0.7798(3) 0.3193(2) 0.3855(5)
H4_2 H 0.7944 0.2998 0.4099
C8_2 C 0.8115(4) 0.3590(2) 0.4796(4)
C9_2 C 0.8333(4) 0.3641(3) 0.5349(5)
C10_2 C 0.8619(4) 0.3700(3) 0.6013(4)
C11_2 C 0.8532(4) 0.4027(2) 0.6335(4)
H5_2 H 0.8313 0.4206 0.6123
C12_2 C 0.8779(4) 0.4080(3) 0.6977(4)
H6_2 H 0.8699 0.4291 0.7217
C13_2 C 0.9131(4) 0.3841(2) 0.7270(4)
C14_2 C 0.9415(4) 0.3914(2) 0.7924(4)
C15_2 C 0.9240(4) 0.3520(3) 0.6935(5)
H7_2 H 0.9491 0.3353 0.7129
C16_2 C 0.8970(4) 0.3452(2) 0.6311(5)
H8_2 H 0.9028 0.3233 0.6090
H9_2 H 0.8368 0.3271 0.0053
O2_2 O 0.7500 0.2500 0.3350(4)
Ag2_2 Ag 0.72851(3) 0.201147(15) 0.12497(4)
Ag6_2 Ag 0.47851(3) 0.048853(15) 0.87497(4)
N5_2 N 0.7401(3) 0.23208(16) 0.0240(3)
N6_2 N 0.7487(3) 0.23110(17) 0.2275(3)
N8_2 N 0.8470(4) 0.3354(2) 0.1607(4)
N9_2 N 0.6530(4) 0.1646(2) 0.1607(4)
N10_2 N 0.5369(4) 0.1009(3) 0.8440(5)
N11_2 N 0.7131(4) 0.3509(3) 0.0940(5)
N12_2 N 0.7869(4) 0.1491(3) 0.0940(5)
C33_2 C 0.7489(4) 0.2215(2) 0.2893(5)
C34_2 C 0.7462(3) 0.1861(2) 0.3209(4)
C35_2 C 0.7679(4) 0.1563(2) 0.2865(4)
H17_2 H 0.7851 0.1593 0.2430
C36_2 C 0.7651(4) 0.1235(3) 0.3133(5)
H18_2 H 0.7801 0.1042 0.2884
C37_2 C 0.7400(4) 0.1178(2) 0.3777(5)
H19_2 H 0.7393 0.0949 0.3968
C38_2 C 0.7156(4) 0.1465(3) 0.4144(4)
C39_2 C 0.7202(3) 0.1807(2) 0.3855(5)
H20_2 H 0.7056 0.2002 0.4099
C40_2 C 0.6885(4) 0.1410(2) 0.4796(4)
C41_2 C 0.6667(4) 0.1359(3) 0.5349(5)
C42_2 C 0.6381(4) 0.1300(3) 0.6013(4)
C43_2 C 0.6468(4) 0.0973(2) 0.6335(4)
H21_2 H 0.6687 0.0794 0.6123
C44_2 C 0.6221(4) 0.0920(3) 0.6977(4)
H22_2 H 0.6301 0.0709 0.7217
C45_2 C 0.5869(4) 0.1159(2) 0.7270(4)
C46_2 C 0.5585(4) 0.1086(2) 0.7924(4)
C47_2 C 0.5760(4) 0.1480(3) 0.6935(5)
H23_2 H 0.5509 0.1647 0.7129
C48_2 C 0.6030(4) 0.1548(2) 0.6311(5)
H24_2 H 0.5972 0.1767 0.6090
H25_2 H 0.6632 0.1729 0.0053
C14_3 C 0.3085(4) 0.6414(2) 0.0424(4)
C46_3 C 0.6915(4) 0.3586(2) 0.0424(4)
C14_4 C 0.1915(4) 0.8586(2) 0.0424(4)
C46_4 C 0.8085(4) 0.1414(2) 0.0424(4)
N3 N 0.4030(4) 0.0854(2) 0.9107(4)
C30 C 0.3786(4) 0.0928(3) 0.9610(5)
N7 N 0.0970(4) 0.4146(2) 0.9107(4)
C62 C 0.1214(4) 0.4072(3) 0.9610(5)
N3_2 N 0.5970(4) 0.9146(2) 0.9107(4)
C30_2 C 0.6214(4) 0.9072(3) 0.9610(5)
N7_2 N 0.9030(4) 0.5854(2) 0.9107(4)
C62_2 C 0.8786(4) 0.5928(3) 0.9610(5)
N1_3 N 0.4901(3) 0.01792(16) 0.7740(3)
N2_3 N 0.4987(3) 0.01890(17) 0.9775(3)
H1_3 H 0.5351 0.0907 0.9930
C17 C 0.4846(3) 0.0271(2) 0.7087(4)
C18 C 0.4669(4) 0.0613(2) 0.6805(4)
C19 C 0.4298(4) 0.0837(2) 0.7131(4)
H9_3 H 0.4132 0.0771 0.7553
C20 C 0.4164(4) 0.1169(2) 0.6835(4)
H10 H 0.3925 0.1330 0.7067
C21 C 0.4393(4) 0.1254(2) 0.6192(5)
H11 H 0.4289 0.1468 0.5980
C22 C 0.4770(3) 0.1030(2) 0.5858(5)
C23 C 0.4894(3) 0.0706(2) 0.6138(4)
H12 H 0.5126 0.0545 0.5896
C24 C 0.5002(4) 0.1124(3) 0.5186(5)
C25 C 0.5231(4) 0.1206(3) 0.4662(4)
C26 C 0.5492(4) 0.1304(3) 0.4002(5)
C27 C 0.5719(5) 0.1043(3) 0.3614(6)
H13 H 0.5707 0.0807 0.3772
C28 C 0.5980(5) 0.1123(3) 0.2954(5)
H14 H 0.6133 0.0941 0.2678
C29 C 0.6001(4) 0.1474(3) 0.2737(4)
C30_3 C 0.6286(4) 0.1572(3) 0.2110(5)
C31 C 0.5755(5) 0.1741(3) 0.3150(6)
H15 H 0.5761 0.1978 0.3003
C32 C 0.5496(4) 0.1648(2) 0.3795(6)
H16 H 0.5330 0.1824 0.4074
O1 O 0.5000 -0.0000 0.6666(3)
O1_2 O 0.5000 1.0000 0.6666(3)
N5_3 N 0.5099(3) 0.98208(16) 0.7740(3)
N6_3 N 0.5013(3) 0.98110(17) 0.9775(3)
H17_3 H 0.4649 0.9093 0.9930
C49 C 0.5154(3) 0.9729(2) 0.7087(4)
C50 C 0.5331(4) 0.9387(2) 0.6805(4)
C51 C 0.5702(4) 0.9163(2) 0.7131(4)
H25_3 H 0.5868 0.9229 0.7553
C52 C 0.5836(4) 0.8831(2) 0.6835(4)
H26 H 0.6075 0.8670 0.7067
C53 C 0.5607(4) 0.8746(2) 0.6192(5)
H27 H 0.5711 0.8532 0.5980
C54 C 0.5230(3) 0.8970(2) 0.5858(5)
C55 C 0.5106(3) 0.9294(2) 0.6138(4)
H28 H 0.4874 0.9455 0.5896
C56 C 0.4998(4) 0.8876(3) 0.5186(5)
C57 C 0.4769(4) 0.8794(3) 0.4662(4)
C58 C 0.4508(4) 0.8696(3) 0.4002(5)
C59 C 0.4281(5) 0.8957(3) 0.3614(6)
H29 H 0.4293 0.9193 0.3772
C60 C 0.4020(5) 0.8877(3) 0.2954(5)
H30 H 0.3867 0.9059 0.2678
C61 C 0.3999(4) 0.8526(3) 0.2737(4)
C62_3 C 0.3714(4) 0.8428(3) 0.2110(5)
C63 C 0.4245(5) 0.8259(3) 0.3150(6)
H31 H 0.4239 0.8022 0.3003
C64 C 0.4504(4) 0.8352(2) 0.3795(6)
H32 H 0.4670 0.8176 0.4074
N1_4 N 0.0099(3) 0.48208(16) 0.7740(3)
N2_4 N 0.0013(3) 0.48110(17) 0.9775(3)
C17_2 C 0.0154(3) 0.4729(2) 0.7087(4)
C18_2 C 0.0331(4) 0.4387(2) 0.6805(4)
C19_2 C 0.0702(4) 0.4163(2) 0.7131(4)
H9_4 H 0.0868 0.4229 0.7553
C20_2 C 0.0836(4) 0.3831(2) 0.6835(4)
H10_2 H 0.1075 0.3670 0.7067
C21_2 C 0.0607(4) 0.3746(2) 0.6192(5)
H11_2 H 0.0711 0.3532 0.5980
C22_2 C 0.0230(3) 0.3970(2) 0.5858(5)
C23_2 C 0.0106(3) 0.4294(2) 0.6138(4)
O1_3 O 0.0000 0.5000 0.6666(3)
H17_4 H 0.0351 0.5907 0.9930
H28_2 H 0.0126 0.5545 0.5896
C56_2 C 0.0002(4) 0.6124(3) 0.5186(5)
C57_2 C 0.0231(4) 0.6206(3) 0.4662(4)
C58_2 C 0.0492(4) 0.6304(3) 0.4002(5)
C59_2 C 0.0719(5) 0.6043(3) 0.3614(6)
H29_2 H 0.0707 0.5807 0.3772
C60_2 C 0.0980(5) 0.6123(3) 0.2954(5)
H30_2 H 0.1133 0.5941 0.2678
C61_2 C 0.1001(4) 0.6474(3) 0.2737(4)
C62_4 C 0.1286(4) 0.6572(3) 0.2110(5)
C63_2 C 0.0755(5) 0.6741(3) 0.3150(6)
H31_2 H 0.0761 0.6978 0.3003
C64_2 C 0.0496(4) 0.6648(2) 0.3795(6)
H32_2 H 0.0330 0.6824 0.4074
H1_4 H 0.9649 0.4093 0.9930
H12_2 H 0.9874 0.4455 0.5896
C24_2 C 0.9998(4) 0.3876(3) 0.5186(5)
C25_2 C 0.9769(4) 0.3794(3) 0.4662(4)
C26_2 C 0.9508(4) 0.3696(3) 0.4002(5)
C27_2 C 0.9281(5) 0.3957(3) 0.3614(6)
H13_2 H 0.9293 0.4193 0.3772
C28_2 C 0.9020(5) 0.3877(3) 0.2954(5)
H14_2 H 0.8867 0.4059 0.2678
C29_2 C 0.8999(4) 0.3526(3) 0.2737(4)
C30_4 C 0.8714(4) 0.3428(3) 0.2110(5)
C31_2 C 0.9245(5) 0.3259(3) 0.3150(6)
H15_2 H 0.9239 0.3022 0.3003
C32_2 C 0.9504(4) 0.3352(2) 0.3795(6)
H16_2 H 0.9670 0.3176 0.4074
O1_4 O 1.0000 0.5000 0.6666(3)
N5_4 N 0.9901(3) 0.51792(16) 0.7740(3)
N6_4 N 0.9987(3) 0.51890(17) 0.9775(3)
C49_2 C 0.9846(3) 0.5271(2) 0.7087(4)
C50_2 C 0.9669(4) 0.5613(2) 0.6805(4)
C51_2 C 0.9298(4) 0.5837(2) 0.7131(4)
H25_4 H 0.9132 0.5771 0.7553
C52_2 C 0.9164(4) 0.6169(2) 0.6835(4)
H26_2 H 0.8925 0.6330 0.7067
C53_2 C 0.9393(4) 0.6254(2) 0.6192(5)
H27_2 H 0.9289 0.6468 0.5980
C54_2 C 0.9770(3) 0.6030(2) 0.5858(5)
C55_2 C 0.9894(3) 0.5706(2) 0.6138(4)
N3_3 N 0.4030(4) 0.5854(2) 0.4107(4)
C17_3 C 0.2346(3) 0.7229(2) 0.9587(4)
C18_3 C 0.2169(4) 0.6887(2) 0.9305(4)
C19_3 C 0.1798(4) 0.6663(2) 0.9631(4)
C20_3 C 0.1664(4) 0.6331(2) 0.9335(4)
H10_3 H 0.1425 0.6170 0.9567
C21_3 C 0.1893(4) 0.6246(2) 0.8692(5)
H11_3 H 0.1789 0.6032 0.8480
C22_3 C 0.2270(3) 0.6470(2) 0.8358(5)
C23_3 C 0.2394(3) 0.6794(2) 0.8638(4)
H12_3 H 0.2626 0.6955 0.8396
C24_3 C 0.2502(4) 0.6376(3) 0.7686(5)
C25_3 C 0.2731(4) 0.6294(3) 0.7162(4)
C26_3 C 0.2992(4) 0.6196(3) 0.6502(5)
C27_3 C 0.3219(5) 0.6457(3) 0.6114(6)
H13_3 H 0.3207 0.6693 0.6272
C28_3 C 0.3480(5) 0.6377(3) 0.5454(5)
H14_3 H 0.3633 0.6559 0.5178
C29_3 C 0.3501(4) 0.6026(3) 0.5237(4)
C30_5 C 0.3786(4) 0.5928(3) 0.4610(5)
C31_3 C 0.3255(5) 0.5759(3) 0.5650(6)
H15_3 H 0.3261 0.5522 0.5503
C32_3 C 0.2996(4) 0.5852(2) 0.6295(6)
H16_3 H 0.2830 0.5676 0.6574
O1_5 O 0.2500 0.7500 0.9166(3)
Ag3 Ag 0.47851(3) 0.548853(15) 0.37497(4)
Ag5 Ag 0.02149(3) 0.951147(15) 0.37497(4)
N7_3 N 0.0970(4) 0.9146(2) 0.4107(4)
C49_3 C 0.2654(3) 0.7771(2) 0.9587(4)
C50_3 C 0.2831(4) 0.8113(2) 0.9305(4)
C51_3 C 0.3202(4) 0.8337(2) 0.9631(4)
C52_3 C 0.3336(4) 0.8669(2) 0.9335(4)
H26_3 H 0.3575 0.8830 0.9567
C53_3 C 0.3107(4) 0.8754(2) 0.8692(5)
H27_3 H 0.3211 0.8968 0.8480
C54_3 C 0.2730(3) 0.8530(2) 0.8358(5)
C55_3 C 0.2606(3) 0.8206(2) 0.8638(4)
H28_3 H 0.2374 0.8045 0.8396
C56_3 C 0.2498(4) 0.8624(3) 0.7686(5)
C57_3 C 0.2269(4) 0.8706(3) 0.7162(4)
C58_3 C 0.2008(4) 0.8804(3) 0.6502(5)
C59_3 C 0.1781(5) 0.8543(3) 0.6114(6)
H29_3 H 0.1793 0.8307 0.6272
C60_3 C 0.1520(5) 0.8623(3) 0.5454(5)
H30_3 H 0.1367 0.8441 0.5178
C61_3 C 0.1499(4) 0.8974(3) 0.5237(4)
C62_5 C 0.1214(4) 0.9072(3) 0.4610(5)
C63_3 C 0.1745(5) 0.9241(3) 0.5650(6)
H31_3 H 0.1739 0.9478 0.5503
C64_3 C 0.2004(4) 0.9148(2) 0.6295(6)
H32_3 H 0.2170 0.9324 0.6574
N3_4 N 0.5970(4) 0.4146(2) 0.4107(4)
C17_4 C 0.7654(3) 0.2771(2) 0.9587(4)
C18_4 C 0.7831(4) 0.3113(2) 0.9305(4)
C19_4 C 0.8202(4) 0.3337(2) 0.9631(4)
C20_4 C 0.8336(4) 0.3669(2) 0.9335(4)
H10_4 H 0.8575 0.3830 0.9567
C21_4 C 0.8107(4) 0.3754(2) 0.8692(5)
H11_4 H 0.8211 0.3968 0.8480
C22_4 C 0.7730(3) 0.3530(2) 0.8358(5)
C23_4 C 0.7606(3) 0.3206(2) 0.8638(4)
H12_4 H 0.7374 0.3045 0.8396
C24_4 C 0.7498(4) 0.3624(3) 0.7686(5)
C25_4 C 0.7269(4) 0.3706(3) 0.7162(4)
C26_4 C 0.7008(4) 0.3804(3) 0.6502(5)
C27_4 C 0.6781(5) 0.3543(3) 0.6114(6)
H13_4 H 0.6793 0.3307 0.6272
C28_4 C 0.6520(5) 0.3623(3) 0.5454(5)
H14_4 H 0.6367 0.3441 0.5178
C29_4 C 0.6499(4) 0.3974(3) 0.5237(4)
C30_6 C 0.6214(4) 0.4072(3) 0.4610(5)
C31_4 C 0.6745(5) 0.4241(3) 0.5650(6)
H15_4 H 0.6739 0.4478 0.5503
C32_4 C 0.7004(4) 0.4148(2) 0.6295(6)
H16_4 H 0.7170 0.4324 0.6574
O1_6 O 0.7500 0.2500 0.9166(3)
Ag3_2 Ag 0.52149(3) 0.451147(15) 0.37497(4)
Ag5_2 Ag 0.97851(3) 0.048853(15) 0.37497(4)
N7_4 N 0.9030(4) 0.0854(2) 0.4107(4)
C49_4 C 0.7346(3) 0.2229(2) 0.9587(4)
C50_4 C 0.7169(4) 0.1887(2) 0.9305(4)
C51_4 C 0.6798(4) 0.1663(2) 0.9631(4)
C52_4 C 0.6664(4) 0.1331(2) 0.9335(4)
H26_4 H 0.6425 0.1170 0.9567
C53_4 C 0.6893(4) 0.1246(2) 0.8692(5)
H27_4 H 0.6789 0.1032 0.8480
C54_4 C 0.7270(3) 0.1470(2) 0.8358(5)
C55_4 C 0.7394(3) 0.1794(2) 0.8638(4)
H28_4 H 0.7626 0.1955 0.8396
C56_4 C 0.7502(4) 0.1376(3) 0.7686(5)
C57_4 C 0.7731(4) 0.1294(3) 0.7162(4)
C58_4 C 0.7992(4) 0.1196(3) 0.6502(5)
C59_4 C 0.8219(5) 0.1457(3) 0.6114(6)
H29_4 H 0.8207 0.1693 0.6272
C60_4 C 0.8480(5) 0.1377(3) 0.5454(5)
H30_4 H 0.8633 0.1559 0.5178
C61_4 C 0.8501(4) 0.1026(3) 0.5237(4)
C62_6 C 0.8786(4) 0.0928(3) 0.4610(5)
C63_4 C 0.8255(5) 0.0759(3) 0.5650(6)
H31_4 H 0.8261 0.0522 0.5503
C64_4 C 0.7996(4) 0.0852(2) 0.6295(6)
H32_4 H 0.7830 0.0676 0.6574
N1_5 N 0.4901(3) 0.51792(16) 0.2740(3)
N2_5 N 0.4987(3) 0.51890(17) 0.4775(3)
C1_3 C 0.4989(4) 0.5285(2) 0.5393(5)
C2_3 C 0.4962(3) 0.5639(2) 0.5709(4)
C3_3 C 0.5179(4) 0.5937(2) 0.5365(4)
H1_5 H 0.5351 0.5907 0.4930
C4_3 C 0.5151(4) 0.6265(3) 0.5633(5)
H2_3 H 0.5301 0.6458 0.5384
C5_3 C 0.4900(4) 0.6322(2) 0.6277(5)
H3_3 H 0.4893 0.6551 0.6468
C6_3 C 0.4656(4) 0.6035(3) 0.6644(4)
C7_3 C 0.4702(3) 0.5693(2) 0.6355(5)
H4_3 H 0.4556 0.5498 0.6599
C8_3 C 0.4385(4) 0.6090(2) 0.7296(4)
C9_3 C 0.4167(4) 0.6141(3) 0.7849(5)
C10_3 C 0.3881(4) 0.6200(3) 0.8513(4)
C11_3 C 0.3968(4) 0.6527(2) 0.8835(4)
H5_3 H 0.4187 0.6706 0.8623
C12_3 C 0.3721(4) 0.6580(3) 0.9477(4)
H6_3 H 0.3801 0.6791 0.9717
C13_3 C 0.3369(4) 0.6341(2) 0.9770(4)
C15_3 C 0.3260(4) 0.6020(3) 0.9435(5)
H7_3 H 0.3009 0.5853 0.9629
C16_3 C 0.3530(4) 0.5952(2) 0.8811(5)
H8_3 H 0.3472 0.5733 0.8590
C17_5 C 0.4846(3) 0.5271(2) 0.2087(4)
C18_5 C 0.4669(4) 0.5613(2) 0.1805(4)
C19_5 C 0.4298(4) 0.5837(2) 0.2131(4)
H9_5 H 0.4132 0.5771 0.2553
C20_5 C 0.4164(4) 0.6169(2) 0.1835(4)
H10_5 H 0.3925 0.6330 0.2067
C21_5 C 0.4393(4) 0.6254(2) 0.1192(5)
H11_5 H 0.4289 0.6468 0.0980
C22_5 C 0.4770(3) 0.6030(2) 0.0858(5)
C23_5 C 0.4894(3) 0.5706(2) 0.1138(4)
H12_5 H 0.5126 0.5545 0.0896
C24_5 C 0.5002(4) 0.6124(3) 0.0186(5)
O1_7 O 0.5000 0.5000 0.1666(3)
O2_3 O 0.5000 0.5000 0.5850(4)
N5_5 N 0.5099(3) 0.48208(16) 0.2740(3)
N6_5 N 0.5013(3) 0.48110(17) 0.4775(3)
N11_3 N 0.5369(4) 0.6009(3) 0.3440(5)
N12_3 N 0.4631(4) 0.3991(3) 0.3440(5)
C33_3 C 0.5011(4) 0.4715(2) 0.5393(5)
C34_3 C 0.5038(3) 0.4361(2) 0.5709(4)
C35_3 C 0.4821(4) 0.4063(2) 0.5365(4)
H17_5 H 0.4649 0.4093 0.4930
C36_3 C 0.4849(4) 0.3735(3) 0.5633(5)
H18_3 H 0.4699 0.3542 0.5384
C37_3 C 0.5100(4) 0.3678(2) 0.6277(5)
H19_3 H 0.5107 0.3449 0.6468
C38_3 C 0.5344(4) 0.3965(3) 0.6644(4)
C39_3 C 0.5298(3) 0.4307(2) 0.6355(5)
H20_3 H 0.5444 0.4502 0.6599
C40_3 C 0.5615(4) 0.3910(2) 0.7296(4)
C41_3 C 0.5833(4) 0.3859(3) 0.7849(5)
C42_3 C 0.6119(4) 0.3800(3) 0.8513(4)
C43_3 C 0.6032(4) 0.3473(2) 0.8835(4)
H21_3 H 0.5813 0.3294 0.8623
C44_3 C 0.6279(4) 0.3420(3) 0.9477(4)
H22_3 H 0.6199 0.3209 0.9717
C45_3 C 0.6631(4) 0.3659(2) 0.9770(4)
C47_3 C 0.6740(4) 0.3980(3) 0.9435(5)
H23_3 H 0.6991 0.4147 0.9629
C48_3 C 0.6470(4) 0.4048(2) 0.8811(5)
H24_3 H 0.6528 0.4267 0.8590
C49_5 C 0.5154(3) 0.4729(2) 0.2087(4)
C50_5 C 0.5331(4) 0.4387(2) 0.1805(4)
C51_5 C 0.5702(4) 0.4163(2) 0.2131(4)
H25_5 H 0.5868 0.4229 0.2553
C52_5 C 0.5836(4) 0.3831(2) 0.1835(4)
H26_5 H 0.6075 0.3670 0.2067
C53_5 C 0.5607(4) 0.3746(2) 0.1192(5)
H27_5 H 0.5711 0.3532 0.0980
C54_5 C 0.5230(3) 0.3970(2) 0.0858(5)
C55_5 C 0.5106(3) 0.4294(2) 0.1138(4)
H28_5 H 0.4874 0.4455 0.0896
C56_5 C 0.4998(4) 0.3876(3) 0.0186(5)
O1_8 O 0.0000 0.0000 0.1666(3)
O2_4 O 0.0000 0.0000 0.5850(4)
N12_4 N 0.0369(4) 0.1009(3) 0.3440(5)
C35_4 C 0.0179(4) 0.0937(2) 0.5365(4)
H17_6 H 0.0351 0.0907 0.4930
C36_4 C 0.0151(4) 0.1265(3) 0.5633(5)
H18_4 H 0.0301 0.1458 0.5384
H28_6 H 0.0126 0.0545 0.0896
C56_6 C 0.0002(4) 0.1124(3) 0.0186(5)
N1_6 N 0.0099(3) 0.98208(16) 0.2740(3)
N2_6 N 0.0013(3) 0.98110(17) 0.4775(3)
C1_4 C 0.0011(4) 0.9715(2) 0.5393(5)
C2_4 C 0.0038(3) 0.9361(2) 0.5709(4)
C5_4 C 0.0100(4) 0.8678(2) 0.6277(5)
H3_4 H 0.0107 0.8449 0.6468
C6_4 C 0.0344(4) 0.8965(3) 0.6644(4)
C7_4 C 0.0298(3) 0.9307(2) 0.6355(5)
H4_4 H 0.0444 0.9502 0.6599
C8_4 C 0.0615(4) 0.8910(2) 0.7296(4)
C9_4 C 0.0833(4) 0.8859(3) 0.7849(5)
C10_4 C 0.1119(4) 0.8800(3) 0.8513(4)
C11_4 C 0.1032(4) 0.8473(2) 0.8835(4)
H5_4 H 0.0813 0.8294 0.8623
C12_4 C 0.1279(4) 0.8420(3) 0.9477(4)
H6_4 H 0.1199 0.8209 0.9717
C13_4 C 0.1631(4) 0.8659(2) 0.9770(4)
C15_4 C 0.1740(4) 0.8980(3) 0.9435(5)
H7_4 H 0.1991 0.9147 0.9629
C16_4 C 0.1470(4) 0.9048(2) 0.8811(5)
H8_4 H 0.1528 0.9267 0.8590
C17_6 C 0.0154(3) 0.9729(2) 0.2087(4)
C18_6 C 0.0331(4) 0.9387(2) 0.1805(4)
C19_6 C 0.0702(4) 0.9163(2) 0.2131(4)
H9_6 H 0.0868 0.9229 0.2553
C20_6 C 0.0836(4) 0.8831(2) 0.1835(4)
H10_6 H 0.1075 0.8670 0.2067
C21_6 C 0.0607(4) 0.8746(2) 0.1192(5)
H11_6 H 0.0711 0.8532 0.0980
C22_6 C 0.0230(3) 0.8970(2) 0.0858(5)
C23_6 C 0.0106(3) 0.9294(2) 0.1138(4)
O1_9 O 0.0000 1.0000 0.1666(3)
O2_5 O 0.0000 1.0000 0.5850(4)
O1_10 O 1.0000 0.0000 0.1666(3)
O2_6 O 1.0000 0.0000 0.5850(4)
N5_6 N 0.9901(3) 0.01792(16) 0.2740(3)
N6_6 N 0.9987(3) 0.01890(17) 0.4775(3)
C33_4 C 0.9989(4) 0.0285(2) 0.5393(5)
C34_4 C 0.9962(3) 0.0639(2) 0.5709(4)
C37_4 C 0.9900(4) 0.1322(2) 0.6277(5)
H19_4 H 0.9893 0.1551 0.6468
C38_4 C 0.9656(4) 0.1035(3) 0.6644(4)
C39_4 C 0.9702(3) 0.0693(2) 0.6355(5)
H20_4 H 0.9556 0.0498 0.6599
C40_4 C 0.9385(4) 0.1090(2) 0.7296(4)
C41_4 C 0.9167(4) 0.1141(3) 0.7849(5)
C42_4 C 0.8881(4) 0.1200(3) 0.8513(4)
C43_4 C 0.8968(4) 0.1527(2) 0.8835(4)
H21_4 H 0.9187 0.1706 0.8623
C44_4 C 0.8721(4) 0.1580(3) 0.9477(4)
H22_4 H 0.8801 0.1791 0.9717
C45_4 C 0.8369(4) 0.1341(2) 0.9770(4)
C47_4 C 0.8260(4) 0.1020(3) 0.9435(5)
H23_4 H 0.8009 0.0853 0.9629
C48_4 C 0.8530(4) 0.0952(2) 0.8811(5)
H24_4 H 0.8472 0.0733 0.8590
C49_6 C 0.9846(3) 0.0271(2) 0.2087(4)
C50_6 C 0.9669(4) 0.0613(2) 0.1805(4)
C51_6 C 0.9298(4) 0.0837(2) 0.2131(4)
H25_6 H 0.9132 0.0771 0.2553
C52_6 C 0.9164(4) 0.1169(2) 0.1835(4)
H26_6 H 0.8925 0.1330 0.2067
C53_6 C 0.9393(4) 0.1254(2) 0.1192(5)
H27_6 H 0.9289 0.1468 0.0980
C54_6 C 0.9770(3) 0.1030(2) 0.0858(5)
C55_6 C 0.9894(3) 0.0706(2) 0.1138(4)
C3_4 C 0.9821(4) 0.9063(2) 0.5365(4)
H1_6 H 0.9649 0.9093 0.4930
C4_4 C 0.9849(4) 0.8735(3) 0.5633(5)
H2_4 H 0.9699 0.8542 0.5384
H12_6 H 0.9874 0.9455 0.0896
C24_6 C 0.9998(4) 0.8876(3) 0.0186(5)
O1_11 O 1.0000 1.0000 0.1666(3)
O2_7 O 1.0000 1.0000 0.5850(4)
N11_4 N 0.9631(4) 0.8991(3) 0.3440(5)
C9_5 C 0.1667(4) 0.1359(3) 0.0349(5)
C10_5 C 0.1381(4) 0.1300(3) 0.1013(4)
C11_5 C 0.1468(4) 0.0973(2) 0.1335(4)
H5_5 H 0.1687 0.0794 0.1123
C12_5 C 0.1221(4) 0.0920(3) 0.1977(4)
H6_5 H 0.1301 0.0709 0.2217
C13_5 C 0.0869(4) 0.1159(2) 0.2270(4)
C14_5 C 0.0585(4) 0.1086(2) 0.2924(4)
C15_5 C 0.0760(4) 0.1480(3) 0.1935(5)
H7_5 H 0.0509 0.1647 0.2129
C16_5 C 0.1030(4) 0.1548(2) 0.1311(5)
H8_5 H 0.0972 0.1767 0.1090
C41_5 C 0.3333(4) 0.3641(3) 0.0349(5)
C42_5 C 0.3619(4) 0.3700(3) 0.1013(4)
C43_5 C 0.3532(4) 0.4027(2) 0.1335(4)
H21_5 H 0.3313 0.4206 0.1123
C44_5 C 0.3779(4) 0.4080(3) 0.1977(4)
H22_5 H 0.3699 0.4291 0.2217
C45_5 C 0.4131(4) 0.3841(2) 0.2270(4)
C46_5 C 0.4415(4) 0.3914(2) 0.2924(4)
C47_5 C 0.4240(4) 0.3520(3) 0.1935(5)
H23_5 H 0.4491 0.3353 0.2129
C48_5 C 0.3970(4) 0.3452(2) 0.1311(5)
H24_5 H 0.4028 0.3233 0.1090
C9_6 C 0.8333(4) 0.8641(3) 0.0349(5)
C10_6 C 0.8619(4) 0.8700(3) 0.1013(4)
C11_6 C 0.8532(4) 0.9027(2) 0.1335(4)
H5_6 H 0.8313 0.9206 0.1123
C12_6 C 0.8779(4) 0.9080(3) 0.1977(4)
H6_6 H 0.8699 0.9291 0.2217
C13_6 C 0.9131(4) 0.8841(2) 0.2270(4)
C14_6 C 0.9415(4) 0.8914(2) 0.2924(4)
C15_6 C 0.9240(4) 0.8520(3) 0.1935(5)
H7_6 H 0.9491 0.8353 0.2129
C16_6 C 0.8970(4) 0.8452(2) 0.1311(5)
H8_6 H 0.9028 0.8233 0.1090
C41_6 C 0.6667(4) 0.6359(3) 0.0349(5)
C42_6 C 0.6381(4) 0.6300(3) 0.1013(4)
C43_6 C 0.6468(4) 0.5973(2) 0.1335(4)
H21_6 H 0.6687 0.5794 0.1123
C44_6 C 0.6221(4) 0.5920(3) 0.1977(4)
H22_6 H 0.6301 0.5709 0.2217
C45_6 C 0.5869(4) 0.6159(2) 0.2270(4)
C46_6 C 0.5585(4) 0.6086(2) 0.2924(4)
C47_6 C 0.5760(4) 0.6480(3) 0.1935(5)
H23_6 H 0.5509 0.6647 0.2129
C48_6 C 0.6030(4) 0.6548(2) 0.1311(5)
H24_6 H 0.5972 0.6767 0.1090
N3_5 N 0.6530(4) 0.6646(2) 0.6607(4)
C25_5 C 0.5231(4) 0.6206(3) 0.9662(4)
C26_5 C 0.5492(4) 0.6304(3) 0.9002(5)
C27_5 C 0.5719(5) 0.6043(3) 0.8614(6)
H13_5 H 0.5707 0.5807 0.8772
C28_5 C 0.5980(5) 0.6123(3) 0.7954(5)
H14_5 H 0.6133 0.5941 0.7678
C29_5 C 0.6001(4) 0.6474(3) 0.7737(4)
C30_7 C 0.6286(4) 0.6572(3) 0.7110(5)
C31_5 C 0.5755(5) 0.6741(3) 0.8150(6)
H15_5 H 0.5761 0.6978 0.8003
C32_5 C 0.5496(4) 0.6648(2) 0.8795(6)
H16_5 H 0.5330 0.6824 0.9074
Ag3_3 Ag 0.72851(3) 0.701147(15) 0.62497(4)
Ag5_3 Ag 0.27149(3) 0.298853(15) 0.62497(4)
N7_5 N 0.3470(4) 0.3354(2) 0.6607(4)
C57_5 C 0.4769(4) 0.3794(3) 0.9662(4)
C58_5 C 0.4508(4) 0.3696(3) 0.9002(5)
C59_5 C 0.4281(5) 0.3957(3) 0.8614(6)
H29_5 H 0.4293 0.4193 0.8772
C60_5 C 0.4020(5) 0.3877(3) 0.7954(5)
H30_5 H 0.3867 0.4059 0.7678
C61_5 C 0.3999(4) 0.3526(3) 0.7737(4)
C62_7 C 0.3714(4) 0.3428(3) 0.7110(5)
C63_5 C 0.4245(5) 0.3259(3) 0.8150(6)
H31_5 H 0.4239 0.3022 0.8003
C64_5 C 0.4504(4) 0.3352(2) 0.8795(6)
H32_5 H 0.4670 0.3176 0.9074
Ag5_4 Ag 0.22851(3) 0.201147(15) 0.62497(4)
N7_6 N 0.1530(4) 0.1646(2) 0.6607(4)
C57_6 C 0.0231(4) 0.1206(3) 0.9662(4)
C58_6 C 0.0492(4) 0.1304(3) 0.9002(5)
C59_6 C 0.0719(5) 0.1043(3) 0.8614(6)
H29_6 H 0.0707 0.0807 0.8772
C60_6 C 0.0980(5) 0.1123(3) 0.7954(5)
H30_6 H 0.1133 0.0941 0.7678
C61_6 C 0.1001(4) 0.1474(3) 0.7737(4)
C62_8 C 0.1286(4) 0.1572(3) 0.7110(5)
C63_6 C 0.0755(5) 0.1741(3) 0.8150(6)
H31_6 H 0.0761 0.1978 0.8003
C64_6 C 0.0496(4) 0.1648(2) 0.8795(6)
H32_6 H 0.0330 0.1824 0.9074
N3_6 N 0.8470(4) 0.8354(2) 0.6607(4)
C25_6 C 0.9769(4) 0.8794(3) 0.9662(4)
C26_6 C 0.9508(4) 0.8696(3) 0.9002(5)
C27_6 C 0.9281(5) 0.8957(3) 0.8614(6)
H13_6 H 0.9293 0.9193 0.8772
C28_6 C 0.9020(5) 0.8877(3) 0.7954(5)
H14_6 H 0.8867 0.9059 0.7678
C29_6 C 0.8999(4) 0.8526(3) 0.7737(4)
C30_8 C 0.8714(4) 0.8428(3) 0.7110(5)
C31_6 C 0.9245(5) 0.8259(3) 0.8150(6)
H15_6 H 0.9239 0.8022 0.8003
C32_6 C 0.9504(4) 0.8352(2) 0.8795(6)
H16_6 H 0.9670 0.8176 0.9074
Ag3_4 Ag 0.77149(3) 0.798853(15) 0.62497(4)
N1_7 N 0.2401(3) 0.23208(16) 0.5240(3)
N2_7 N 0.2487(3) 0.23110(17) 0.7275(3)
C1_5 C 0.2489(4) 0.2215(2) 0.7893(5)
C2_5 C 0.2462(3) 0.1861(2) 0.8209(4)
C3_5 C 0.2679(4) 0.1563(2) 0.7865(4)
H1_7 H 0.2851 0.1593 0.7430
C4_5 C 0.2651(4) 0.1235(3) 0.8133(5)
H2_5 H 0.2801 0.1042 0.7884
C5_5 C 0.2400(4) 0.1178(2) 0.8777(5)
H3_5 H 0.2393 0.0949 0.8968
C6_5 C 0.2156(4) 0.1465(3) 0.9144(4)
C7_5 C 0.2202(3) 0.1807(2) 0.8855(5)
H4_5 H 0.2056 0.2002 0.9099
C8_5 C 0.1885(4) 0.1410(2) 0.9796(4)
C17_7 C 0.2346(3) 0.2229(2) 0.4587(4)
C18_7 C 0.2169(4) 0.1887(2) 0.4305(4)
C19_7 C 0.1798(4) 0.1663(2) 0.4631(4)
H9_7 H 0.1632 0.1729 0.5053
C20_7 C 0.1664(4) 0.1331(2) 0.4335(4)
H10_7 H 0.1425 0.1170 0.4567
C21_7 C 0.1893(4) 0.1246(2) 0.3692(5)
H11_7 H 0.1789 0.1032 0.3480
C22_7 C 0.2270(3) 0.1470(2) 0.3358(5)
C23_7 C 0.2394(3) 0.1794(2) 0.3638(4)
H12_7 H 0.2626 0.1955 0.3396
C24_7 C 0.2502(4) 0.1376(3) 0.2686(5)
C25_7 C 0.2731(4) 0.1294(3) 0.2162(4)
C26_7 C 0.2992(4) 0.1196(3) 0.1502(5)
C27_7 C 0.3219(5) 0.1457(3) 0.1114(6)
H13_7 H 0.3207 0.1693 0.1272
C28_7 C 0.3480(5) 0.1377(3) 0.0454(5)
H14_7 H 0.3633 0.1559 0.0178
C29_7 C 0.3501(4) 0.1026(3) 0.0237(4)
C31_7 C 0.3255(5) 0.0759(3) 0.0650(6)
H15_7 H 0.3261 0.0522 0.0503
C32_7 C 0.2996(4) 0.0852(2) 0.1295(6)
H16_7 H 0.2830 0.0676 0.1574
O1_12 O 0.2500 0.2500 0.4166(3)
O2_8 O 0.2500 0.2500 0.8350(4)
N5_7 N 0.2599(3) 0.26792(16) 0.5240(3)
N6_7 N 0.2513(3) 0.26890(17) 0.7275(3)
N11_5 N 0.2869(4) 0.1491(3) 0.5940(5)
N12_5 N 0.2131(4) 0.3509(3) 0.5940(5)
C33_5 C 0.2511(4) 0.2785(2) 0.7893(5)
C34_5 C 0.2538(3) 0.3139(2) 0.8209(4)
C35_5 C 0.2321(4) 0.3437(2) 0.7865(4)
H17_7 H 0.2149 0.3407 0.7430
C36_5 C 0.2349(4) 0.3765(3) 0.8133(5)
H18_5 H 0.2199 0.3958 0.7884
C37_5 C 0.2600(4) 0.3822(2) 0.8777(5)
H19_5 H 0.2607 0.4051 0.8968
C38_5 C 0.2844(4) 0.3535(3) 0.9144(4)
C39_5 C 0.2798(3) 0.3193(2) 0.8855(5)
H20_5 H 0.2944 0.2998 0.9099
C40_5 C 0.3115(4) 0.3590(2) 0.9796(4)
C49_7 C 0.2654(3) 0.2771(2) 0.4587(4)
C50_7 C 0.2831(4) 0.3113(2) 0.4305(4)
C51_7 C 0.3202(4) 0.3337(2) 0.4631(4)
H25_7 H 0.3368 0.3271 0.5053
C52_7 C 0.3336(4) 0.3669(2) 0.4335(4)
H26_7 H 0.3575 0.3830 0.4567
C53_7 C 0.3107(4) 0.3754(2) 0.3692(5)
H27_7 H 0.3211 0.3968 0.3480
C54_7 C 0.2730(3) 0.3530(2) 0.3358(5)
C55_7 C 0.2606(3) 0.3206(2) 0.3638(4)
H28_7 H 0.2374 0.3045 0.3396
C56_7 C 0.2498(4) 0.3624(3) 0.2686(5)
C57_7 C 0.2269(4) 0.3706(3) 0.2162(4)
C58_7 C 0.2008(4) 0.3804(3) 0.1502(5)
C59_7 C 0.1781(5) 0.3543(3) 0.1114(6)
H29_7 H 0.1793 0.3307 0.1272
C60_7 C 0.1520(5) 0.3623(3) 0.0454(5)
H30_7 H 0.1367 0.3441 0.0178
C61_7 C 0.1499(4) 0.3974(3) 0.0237(4)
C63_7 C 0.1745(5) 0.4241(3) 0.0650(6)
H31_7 H 0.1739 0.4478 0.0503
C64_7 C 0.2004(4) 0.4148(2) 0.1295(6)
H32_7 H 0.2170 0.4324 0.1574
N1_8 N 0.7599(3) 0.76792(16) 0.5240(3)
N2_8 N 0.7513(3) 0.76890(17) 0.7275(3)
C1_6 C 0.7511(4) 0.7785(2) 0.7893(5)
C2_6 C 0.7538(3) 0.8139(2) 0.8209(4)
C3_6 C 0.7321(4) 0.8437(2) 0.7865(4)
H1_8 H 0.7149 0.8407 0.7430
C4_6 C 0.7349(4) 0.8765(3) 0.8133(5)
H2_6 H 0.7199 0.8958 0.7884
C5_6 C 0.7600(4) 0.8822(2) 0.8777(5)
H3_6 H 0.7607 0.9051 0.8968
C6_6 C 0.7844(4) 0.8535(3) 0.9144(4)
C7_6 C 0.7798(3) 0.8193(2) 0.8855(5)
H4_6 H 0.7944 0.7998 0.9099
C8_6 C 0.8115(4) 0.8590(2) 0.9796(4)
C17_8 C 0.7654(3) 0.7771(2) 0.4587(4)
C18_8 C 0.7831(4) 0.8113(2) 0.4305(4)
C19_8 C 0.8202(4) 0.8337(2) 0.4631(4)
H9_8 H 0.8368 0.8271 0.5053
C20_8 C 0.8336(4) 0.8669(2) 0.4335(4)
H10_8 H 0.8575 0.8830 0.4567
C21_8 C 0.8107(4) 0.8754(2) 0.3692(5)
H11_8 H 0.8211 0.8968 0.3480
C22_8 C 0.7730(3) 0.8530(2) 0.3358(5)
C23_8 C 0.7606(3) 0.8206(2) 0.3638(4)
H12_8 H 0.7374 0.8045 0.3396
C24_8 C 0.7498(4) 0.8624(3) 0.2686(5)
C25_8 C 0.7269(4) 0.8706(3) 0.2162(4)
C26_8 C 0.7008(4) 0.8804(3) 0.1502(5)
C27_8 C 0.6781(5) 0.8543(3) 0.1114(6)
H13_8 H 0.6793 0.8307 0.1272
C28_8 C 0.6520(5) 0.8623(3) 0.0454(5)
H14_8 H 0.6367 0.8441 0.0178
C29_8 C 0.6499(4) 0.8974(3) 0.0237(4)
C31_8 C 0.6745(5) 0.9241(3) 0.0650(6)
H15_8 H 0.6739 0.9478 0.0503
C32_8 C 0.7004(4) 0.9148(2) 0.1295(6)
H16_8 H 0.7170 0.9324 0.1574
O1_13 O 0.7500 0.7500 0.4166(3)
O2_9 O 0.7500 0.7500 0.8350(4)
N5_8 N 0.7401(3) 0.73208(16) 0.5240(3)
N6_8 N 0.7487(3) 0.73110(17) 0.7275(3)
N11_6 N 0.7131(4) 0.8509(3) 0.5940(5)
N12_6 N 0.7869(4) 0.6491(3) 0.5940(5)
C33_6 C 0.7489(4) 0.7215(2) 0.7893(5)
C34_6 C 0.7462(3) 0.6861(2) 0.8209(4)
C35_6 C 0.7679(4) 0.6563(2) 0.7865(4)
H17_8 H 0.7851 0.6593 0.7430
C36_6 C 0.7651(4) 0.6235(3) 0.8133(5)
H18_6 H 0.7801 0.6042 0.7884
C37_6 C 0.7400(4) 0.6178(2) 0.8777(5)
H19_6 H 0.7393 0.5949 0.8968
C38_6 C 0.7156(4) 0.6465(3) 0.9144(4)
C39_6 C 0.7202(3) 0.6807(2) 0.8855(5)
H20_6 H 0.7056 0.7002 0.9099
C40_6 C 0.6885(4) 0.6410(2) 0.9796(4)
C49_8 C 0.7346(3) 0.7229(2) 0.4587(4)
C50_8 C 0.7169(4) 0.6887(2) 0.4305(4)
C51_8 C 0.6798(4) 0.6663(2) 0.4631(4)
H25_8 H 0.6632 0.6729 0.5053
C52_8 C 0.6664(4) 0.6331(2) 0.4335(4)
H26_8 H 0.6425 0.6170 0.4567
C53_8 C 0.6893(4) 0.6246(2) 0.3692(5)
H27_8 H 0.6789 0.6032 0.3480
C54_8 C 0.7270(3) 0.6470(2) 0.3358(5)
C55_8 C 0.7394(3) 0.6794(2) 0.3638(4)
H28_8 H 0.7626 0.6955 0.3396
C56_8 C 0.7502(4) 0.6376(3) 0.2686(5)
C57_8 C 0.7731(4) 0.6294(3) 0.2162(4)
C58_8 C 0.7992(4) 0.6196(3) 0.1502(5)
C59_8 C 0.8219(5) 0.6457(3) 0.1114(6)
H29_8 H 0.8207 0.6693 0.1272
C60_8 C 0.8480(5) 0.6377(3) 0.0454(5)
H30_8 H 0.8633 0.6559 0.0178
C61_8 C 0.8501(4) 0.6026(3) 0.0237(4)
C63_8 C 0.8255(5) 0.5759(3) 0.0650(6)
H31_8 H 0.8261 0.5522 0.0503
C64_8 C 0.7996(4) 0.5852(2) 0.1295(6)
H32_8 H 0.7830 0.5676 0.1574
C1_7 C 0.4989(4) 0.0285(2) 0.0393(5)
C2_7 C 0.4962(3) 0.0639(2) 0.0709(4)
C3_7 C 0.5179(4) 0.0937(2) 0.0365(4)
C4_7 C 0.5151(4) 0.1265(3) 0.0633(5)
H2_7 H 0.5301 0.1458 0.0384
C5_7 C 0.4900(4) 0.1322(2) 0.1277(5)
H3_7 H 0.4893 0.1551 0.1468
C6_7 C 0.4656(4) 0.1035(3) 0.1644(4)
C7_7 C 0.4702(3) 0.0693(2) 0.1355(5)
H4_7 H 0.4556 0.0498 0.1599
C8_7 C 0.4385(4) 0.1090(2) 0.2296(4)
C9_7 C 0.4167(4) 0.1141(3) 0.2849(5)
C10_7 C 0.3881(4) 0.1200(3) 0.3513(4)
C11_7 C 0.3968(4) 0.1527(2) 0.3835(4)
H5_7 H 0.4187 0.1706 0.3623
C12_7 C 0.3721(4) 0.1580(3) 0.4477(4)
H6_7 H 0.3801 0.1791 0.4717
C13_7 C 0.3369(4) 0.1341(2) 0.4770(4)
C14_7 C 0.3085(4) 0.1414(2) 0.5424(4)
C15_7 C 0.3260(4) 0.1020(3) 0.4435(5)
H7_7 H 0.3009 0.0853 0.4629
C16_7 C 0.3530(4) 0.0952(2) 0.3811(5)
H8_7 H 0.3472 0.0733 0.3590
O2_10 O 0.5000 -0.0000 0.0850(4)
O2_11 O 0.5000 1.0000 0.0850(4)
C33_7 C 0.5011(4) 0.9715(2) 0.0393(5)
C34_7 C 0.5038(3) 0.9361(2) 0.0709(4)
C35_7 C 0.4821(4) 0.9063(2) 0.0365(4)
C36_7 C 0.4849(4) 0.8735(3) 0.0633(5)
H18_7 H 0.4699 0.8542 0.0384
C37_7 C 0.5100(4) 0.8678(2) 0.1277(5)
H19_7 H 0.5107 0.8449 0.1468
C38_7 C 0.5344(4) 0.8965(3) 0.1644(4)
C39_7 C 0.5298(3) 0.9307(2) 0.1355(5)
H20_7 H 0.5444 0.9502 0.1599
C40_7 C 0.5615(4) 0.8910(2) 0.2296(4)
C41_7 C 0.5833(4) 0.8859(3) 0.2849(5)
C42_7 C 0.6119(4) 0.8800(3) 0.3513(4)
C43_7 C 0.6032(4) 0.8473(2) 0.3835(4)
H21_7 H 0.5813 0.8294 0.3623
C44_7 C 0.6279(4) 0.8420(3) 0.4477(4)
H22_7 H 0.6199 0.8209 0.4717
C45_7 C 0.6631(4) 0.8659(2) 0.4770(4)
C46_7 C 0.6915(4) 0.8586(2) 0.5424(4)
C47_7 C 0.6740(4) 0.8980(3) 0.4435(5)
H23_7 H 0.6991 0.9147 0.4629
C48_7 C 0.6470(4) 0.9048(2) 0.3811(5)
H24_7 H 0.6528 0.9267 0.3590
C1_8 C 0.0011(4) 0.4715(2) 0.0393(5)
C2_8 C 0.0038(3) 0.4361(2) 0.0709(4)
C5_8 C 0.0100(4) 0.3678(2) 0.1277(5)
H3_8 H 0.0107 0.3449 0.1468
C6_8 C 0.0344(4) 0.3965(3) 0.1644(4)
C7_8 C 0.0298(3) 0.4307(2) 0.1355(5)
H4_8 H 0.0444 0.4502 0.1599
C8_8 C 0.0615(4) 0.3910(2) 0.2296(4)
C9_8 C 0.0833(4) 0.3859(3) 0.2849(5)
C10_8 C 0.1119(4) 0.3800(3) 0.3513(4)
C11_8 C 0.1032(4) 0.3473(2) 0.3835(4)
H5_8 H 0.0813 0.3294 0.3623
C12_8 C 0.1279(4) 0.3420(3) 0.4477(4)
H6_8 H 0.1199 0.3209 0.4717
C13_8 C 0.1631(4) 0.3659(2) 0.4770(4)
C14_8 C 0.1915(4) 0.3586(2) 0.5424(4)
C15_8 C 0.1740(4) 0.3980(3) 0.4435(5)
H7_8 H 0.1991 0.4147 0.4629
C16_8 C 0.1470(4) 0.4048(2) 0.3811(5)
H8_8 H 0.1528 0.4267 0.3590
O2_12 O 0.0000 0.5000 0.0850(4)
C35_8 C 0.0179(4) 0.5937(2) 0.0365(4)
C36_8 C 0.0151(4) 0.6265(3) 0.0633(5)
H18_8 H 0.0301 0.6458 0.0384
C3_8 C 0.9821(4) 0.4063(2) 0.0365(4)
C4_8 C 0.9849(4) 0.3735(3) 0.0633(5)
H2_8 H 0.9699 0.3542 0.0384
O2_13 O 1.0000 0.5000 0.0850(4)
C33_8 C 0.9989(4) 0.5285(2) 0.0393(5)
C34_8 C 0.9962(3) 0.5639(2) 0.0709(4)
C37_8 C 0.9900(4) 0.6322(2) 0.1277(5)
H19_8 H 0.9893 0.6551 0.1468
C38_8 C 0.9656(4) 0.6035(3) 0.1644(4)
C39_8 C 0.9702(3) 0.5693(2) 0.1355(5)
H20_8 H 0.9556 0.5498 0.1599
C40_8 C 0.9385(4) 0.6090(2) 0.2296(4)
C41_8 C 0.9167(4) 0.6141(3) 0.2849(5)
C42_8 C 0.8881(4) 0.6200(3) 0.3513(4)
C43_8 C 0.8968(4) 0.6527(2) 0.3835(4)
H21_8 H 0.9187 0.6706 0.3623
C44_8 C 0.8721(4) 0.6580(3) 0.4477(4)
H22_8 H 0.8801 0.6791 0.4717
C45_8 C 0.8369(4) 0.6341(2) 0.4770(4)
C46_8 C 0.8085(4) 0.6414(2) 0.5424(4)
C47_8 C 0.8260(4) 0.6020(3) 0.4435(5)
H23_8 H 0.8009 0.5853 0.4629
C48_8 C 0.8530(4) 0.5952(2) 0.3811(5)
H24_8 H 0.8472 0.5733 0.3590
loop_
_geom_bond_atom_site_label_1
_geom_bond_atom_site_label_2
_geom_bond_site_symmetry_1
_geom_bond_site_symmetry_2
F1 Sb1 1_555 1_555
F2 Sb1 1_555 1_555
F3 Sb1 1_555 1_555
F4 Sb1 1_555 1_555
F6 Sb1 1_555 1_555
F1_2 Sb1_2 1_555 1_555
F2_2 Sb1_2 1_555 1_555
F3_2 Sb1_2 1_555 1_555
F4_2 Sb1_2 1_555 1_555
F6_2 Sb1_2 1_555 1_555
F1_3 Sb1_3 1_555 1_555
F2_3 Sb1_3 1_555 1_555
F3_3 Sb1_3 1_555 1_555
F4_3 Sb1_3 1_555 1_555
F5_3 Sb1_3 1_555 1_555
F6_3 Sb1_3 1_555 1_555
F1_4 Sb1_4 1_555 1_555
F4_4 Sb1_4 1_555 1_555
F6_4 Sb1_4 1_555 1_555
F1_5 Sb1_5 1_555 1_555
F2_5 Sb1_5 1_555 1_555
F3_5 Sb1_5 1_555 1_555
F4_5 Sb1_5 1_555 1_555
F6_5 Sb1_5 1_555 1_555
F1_6 Sb1_6 1_555 1_555
F2_6 Sb1_6 1_555 1_555
F3_6 Sb1_6 1_555 1_555
F4_6 Sb1_6 1_555 1_555
F6_6 Sb1_6 1_555 1_555
F1_7 Sb1_7 1_555 1_555
F4_7 Sb1_7 1_555 1_555
F6_7 Sb1_7 1_555 1_555
F1_8 Sb1_8 1_555 1_555
F2_8 Sb1_8 1_555 1_555
F3_8 Sb1_8 1_555 1_555
F4_8 Sb1_8 1_555 1_555
F5_8 Sb1_8 1_555 1_555
F6_8 Sb1_8 1_555 1_555
F1_9 Sb1_9 1_555 1_555
F2_9 Sb1_9 1_555 1_555
F3_9 Sb1_9 1_555 1_555
F4_9 Sb1_9 1_555 1_555
F5_9 Sb1_9 1_555 1_555
F6_9 Sb1_9 1_555 1_555
F1_10 Sb1_10 1_555 1_555
F2_10 Sb1_10 1_555 1_555
F3_10 Sb1_10 1_555 1_555
F4_10 Sb1_10 1_555 1_555
F5_10 Sb1_10 1_555 1_555
F6_10 Sb1_10 1_555 1_555
F1_11 Sb1_11 1_555 1_555
F2_11 Sb1_11 1_555 1_555
F3_11 Sb1_11 1_555 1_555
F4_11 Sb1_11 1_555 1_555
F5_11 Sb1_11 1_555 1_555
F6_11 Sb1_11 1_555 1_555
F1_12 Sb1_12 1_555 1_555
F4_12 Sb1_12 1_555 1_555
F6_12 Sb1_12 1_555 1_555
F1_13 Sb1_13 1_555 1_555
F2_13 Sb1_13 1_555 1_555
F3_13 Sb1_13 1_555 1_555
F4_13 Sb1_13 1_555 1_555
F5_13 Sb1_13 1_555 1_555
F6_13 Sb1_13 1_555 1_555
F1_14 Sb1_14 1_555 1_555
F2_14 Sb1_14 1_555 1_555
F3_14 Sb1_14 1_555 1_555
F4_14 Sb1_14 1_555 1_555
F5_14 Sb1_14 1_555 1_555
F6_14 Sb1_14 1_555 1_555
F1_15 Sb1_15 1_555 1_555
F4_15 Sb1_15 1_555 1_555
F6_15 Sb1_15 1_555 1_555
F1_16 Sb1_16 1_555 1_555
F2_16 Sb1_16 1_555 1_555
F3_16 Sb1_16 1_555 1_555
F4_16 Sb1_16 1_555 1_555
F5_16 Sb1_16 1_555 1_555
F6_16 Sb1_16 1_555 1_555
Ag1 N1 1_555 1_555
N2 Ag1 1_555 1_555
N4 C14 1_555 1_555
C1 N2 1_555 1_555
C2 C1 1_555 1_555
C3 C2 1_555 1_555
H1 C3 1_555 1_555
C4 C3 1_555 1_555
H2 C4 1_555 1_555
C5 C4 1_555 1_555
H3 C5 1_555 1_555
C6 C5 1_555 1_555
C7 C2 1_555 1_555
H4 C7 1_555 1_555
C8 C6 1_555 1_555
C9 C8 1_555 1_555
C10 C9 1_555 1_555
C11 C10 1_555 1_555
H5 C11 1_555 1_555
C12 C11 1_555 1_555
H6 C12 1_555 1_555
C13 C12 1_555 1_555
C14 C13 1_555 1_555
C15 C13 1_555 1_555
H7 C15 1_555 1_555
C16 C10 1_555 1_555
H8 C16 1_555 1_555
O2 C1 1_555 1_555
Ag2 N5 1_555 1_555
Ag6 N10 1_555 1_555
N5 N1 1_555 1_555
N6 N2 1_555 1_555
N8 Ag1 1_555 1_555
N9 Ag2 1_555 1_555
N10 C46 1_555 1_555
N11 Ag1 1_555 1_555
N12 Ag2 1_555 1_555
C33 O2 1_555 1_555
C34 C33 1_555 1_555
C35 C34 1_555 1_555
H17 C35 1_555 1_555
C36 C35 1_555 1_555
H18 C36 1_555 1_555
C37 C36 1_555 1_555
H19 C37 1_555 1_555
C38 C37 1_555 1_555
C39 C34 1_555 1_555
H20 C39 1_555 1_555
C40 C38 1_555 1_555
C41 C40 1_555 1_555
C42 C41 1_555 1_555
C43 C42 1_555 1_555
H21 C43 1_555 1_555
C44 C43 1_555 1_555
H22 C44 1_555 1_555
C45 C44 1_555 1_555
C46 C45 1_555 1_555
C47 C45 1_555 1_555
H23 C47 1_555 1_555
C48 C42 1_555 1_555
H24 C48 1_555 1_555
C6 C7 1_555 1_555
C15 C16 1_555 1_555
Ag2 N6 1_555 1_555
N6 C33 1_555 1_555
C38 C39 1_555 1_555
C47 C48 1_555 1_555
Ag1_2 N1_2 1_555 1_555
N2_2 Ag1_2 1_555 1_555
N4_2 C14_2 1_555 1_555
C1_2 N2_2 1_555 1_555
C2_2 C1_2 1_555 1_555
C3_2 C2_2 1_555 1_555
H1_2 C3_2 1_555 1_555
C4_2 C3_2 1_555 1_555
H2_2 C4_2 1_555 1_555
C5_2 C4_2 1_555 1_555
H3_2 C5_2 1_555 1_555
C6_2 C5_2 1_555 1_555
C7_2 C2_2 1_555 1_555
H4_2 C7_2 1_555 1_555
C8_2 C6_2 1_555 1_555
C9_2 C8_2 1_555 1_555
C10_2 C9_2 1_555 1_555
C11_2 C10_2 1_555 1_555
H5_2 C11_2 1_555 1_555
C12_2 C11_2 1_555 1_555
H6_2 C12_2 1_555 1_555
C13_2 C12_2 1_555 1_555
C14_2 C13_2 1_555 1_555
C15_2 C13_2 1_555 1_555
H7_2 C15_2 1_555 1_555
C16_2 C10_2 1_555 1_555
H8_2 C16_2 1_555 1_555
O2_2 C1_2 1_555 1_555
Ag2_2 N5_2 1_555 1_555
Ag6_2 N10_2 1_555 1_555
N5_2 N1_2 1_555 1_555
N6_2 N2_2 1_555 1_555
N8_2 Ag1_2 1_555 1_555
N9_2 Ag2_2 1_555 1_555
N10_2 C46_2 1_555 1_555
N11_2 Ag1_2 1_555 1_555
N12_2 Ag2_2 1_555 1_555
C33_2 O2_2 1_555 1_555
C34_2 C33_2 1_555 1_555
C35_2 C34_2 1_555 1_555
H17_2 C35_2 1_555 1_555
C36_2 C35_2 1_555 1_555
H18_2 C36_2 1_555 1_555
C37_2 C36_2 1_555 1_555
H19_2 C37_2 1_555 1_555
C38_2 C37_2 1_555 1_555
C39_2 C34_2 1_555 1_555
H20_2 C39_2 1_555 1_555
C40_2 C38_2 1_555 1_555
C41_2 C40_2 1_555 1_555
C42_2 C41_2 1_555 1_555
C43_2 C42_2 1_555 1_555
H21_2 C43_2 1_555 1_555
C44_2 C43_2 1_555 1_555
H22_2 C44_2 1_555 1_555
C45_2 C44_2 1_555 1_555
C46_2 C45_2 1_555 1_555
C47_2 C45_2 1_555 1_555
H23_2 C47_2 1_555 1_555
C48_2 C42_2 1_555 1_555
H24_2 C48_2 1_555 1_555
C6_2 C7_2 1_555 1_555
C15_2 C16_2 1_555 1_555
Ag2_2 N6_2 1_555 1_555
N6_2 C33_2 1_555 1_555
C38_2 C39_2 1_555 1_555
C47_2 C48_2 1_555 1_555
N11 C14_3 1_555 1_555
N11_2 C46_3 1_555 1_555
N12 C14_4 1_555 1_555
N12_2 C46_4 1_555 1_555
N3 C30 1_555 1_555
Ag6_2 N3 1_555 1_555
Ag4_2 N7 1_555 1_555
N7 C62 1_555 1_555
N3_2 C30_2 1_555 1_555
Ag6 N3_2 1_555 1_555
Ag4 N7_2 1_555 1_555
N7_2 C62_2 1_555 1_555
Ag6_2 N1_3 1_555 1_555
N1_3 C17 1_555 1_555
N2_3 Ag6_2 1_555 1_555
N9_2 C30_3 1_555 1_555
C17 C18 1_555 1_555
C18 C19 1_555 1_555
C19 H9_3 1_555 1_555
C20 C19 1_555 1_555
H10 C20 1_555 1_555
C21 C20 1_555 1_555
H11 C21 1_555 1_555
C22 C21 1_555 1_555
C23 C18 1_555 1_555
H12 C23 1_555 1_555
C24 C22 1_555 1_555
C25 C24 1_555 1_555
C26 C25 1_555 1_555
C27 C26 1_555 1_555
H13 C27 1_555 1_555
C28 C27 1_555 1_555
H14 C28 1_555 1_555
C29 C28 1_555 1_555
C30_3 C29 1_555 1_555
C31 C29 1_555 1_555
H15 C31 1_555 1_555
C32 C26 1_555 1_555
H16 C32 1_555 1_555
O1 C17 1_555 1_555
C22 C23 1_555 1_555
C31 C32 1_555 1_555
Ag6 N5_3 1_555 1_555
N9 C62_3 1_555 1_555
C49 O1_2 1_555 1_555
C50 C49 1_555 1_555
C51 C50 1_555 1_555
H25_3 C51 1_555 1_555
C52 C51 1_555 1_555
H26 C52 1_555 1_555
C53 C52 1_555 1_555
H27 C53 1_555 1_555
C54 C53 1_555 1_555
C55 C50 1_555 1_555
H28 C55 1_555 1_555
C56 C54 1_555 1_555
C57 C56 1_555 1_555
C58 C57 1_555 1_555
C59 C58 1_555 1_555
H29 C59 1_555 1_555
C60 C59 1_555 1_555
H30 C60 1_555 1_555
C61 C60 1_555 1_555
C62_3 C61 1_555 1_555
C63 C61 1_555 1_555
H31 C63 1_555 1_555
C64 C58 1_555 1_555
H32 C64 1_555 1_555
Ag6 N6_3 1_555 1_555
N5_3 C49 1_555 1_555
C54 C55 1_555 1_555
C63 C64 1_555 1_555
Ag4_2 N1_4 1_555 1_555
N1_4 C17_2 1_555 1_555
N2_4 Ag4_2 1_555 1_555
C17_2 C18_2 1_555 1_555
C18_2 C19_2 1_555 1_555
C19_2 H9_4 1_555 1_555
C20_2 C19_2 1_555 1_555
H10_2 C20_2 1_555 1_555
C21_2 C20_2 1_555 1_555
H11_2 C21_2 1_555 1_555
C22_2 C21_2 1_555 1_555
C23_2 C18_2 1_555 1_555
O1_3 C17_2 1_555 1_555
N8 C62_4 1_555 1_555
C57_2 C56_2 1_555 1_555
C58_2 C57_2 1_555 1_555
C59_2 C58_2 1_555 1_555
H29_2 C59_2 1_555 1_555
C60_2 C59_2 1_555 1_555
H30_2 C60_2 1_555 1_555
C61_2 C60_2 1_555 1_555
C62_4 C61_2 1_555 1_555
C63_2 C61_2 1_555 1_555
H31_2 C63_2 1_555 1_555
C64_2 C58_2 1_555 1_555
H32_2 C64_2 1_555 1_555
C22_2 C23_2 1_555 1_555
C63_2 C64_2 1_555 1_555
N8_2 C30_4 1_555 1_555
C25_2 C24_2 1_555 1_555
C26_2 C25_2 1_555 1_555
C27_2 C26_2 1_555 1_555
H13_2 C27_2 1_555 1_555
C28_2 C27_2 1_555 1_555
H14_2 C28_2 1_555 1_555
C29_2 C28_2 1_555 1_555
C30_4 C29_2 1_555 1_555
C31_2 C29_2 1_555 1_555
H15_2 C31_2 1_555 1_555
C32_2 C26_2 1_555 1_555
H16_2 C32_2 1_555 1_555
Ag4 N5_4 1_555 1_555
C49_2 O1_4 1_555 1_555
C50_2 C49_2 1_555 1_555
C51_2 C50_2 1_555 1_555
H25_4 C51_2 1_555 1_555
C52_2 C51_2 1_555 1_555
H26_2 C52_2 1_555 1_555
C53_2 C52_2 1_555 1_555
H27_2 C53_2 1_555 1_555
C54_2 C53_2 1_555 1_555
C55_2 C50_2 1_555 1_555
C31_2 C32_2 1_555 1_555
Ag4 N6_4 1_555 1_555
N5_4 C49_2 1_555 1_555
C54_2 C55_2 1_555 1_555
N3_3 C30_5 1_555 1_555
C17_3 C18_3 1_555 1_555
C18_3 C19_3 1_555 1_555
C20_3 C19_3 1_555 1_555
H10_3 C20_3 1_555 1_555
C21_3 C20_3 1_555 1_555
H11_3 C21_3 1_555 1_555
C22_3 C21_3 1_555 1_555
C23_3 C18_3 1_555 1_555
H12_3 C23_3 1_555 1_555
C24_3 C22_3 1_555 1_555
C25_3 C24_3 1_555 1_555
C26_3 C25_3 1_555 1_555
C27_3 C26_3 1_555 1_555
H13_3 C27_3 1_555 1_555
C28_3 C27_3 1_555 1_555
H14_3 C28_3 1_555 1_555
C29_3 C28_3 1_555 1_555
C30_5 C29_3 1_555 1_555
C31_3 C29_3 1_555 1_555
H15_3 C31_3 1_555 1_555
C32_3 C26_3 1_555 1_555
H16_3 C32_3 1_555 1_555
O1_5 C17_3 1_555 1_555
Ag3 N3_3 1_555 1_555
Ag5 N7_3 1_555 1_555
N7_3 C62_5 1_555 1_555
C49_3 O1_5 1_555 1_555
C50_3 C49_3 1_555 1_555
C51_3 C50_3 1_555 1_555
C52_3 C51_3 1_555 1_555
H26_3 C52_3 1_555 1_555
C53_3 C52_3 1_555 1_555
H27_3 C53_3 1_555 1_555
C54_3 C53_3 1_555 1_555
C55_3 C50_3 1_555 1_555
H28_3 C55_3 1_555 1_555
C56_3 C54_3 1_555 1_555
C57_3 C56_3 1_555 1_555
C58_3 C57_3 1_555 1_555
C59_3 C58_3 1_555 1_555
H29_3 C59_3 1_555 1_555
C60_3 C59_3 1_555 1_555
H30_3 C60_3 1_555 1_555
C61_3 C60_3 1_555 1_555
C62_5 C61_3 1_555 1_555
C63_3 C61_3 1_555 1_555
H31_3 C63_3 1_555 1_555
C64_3 C58_3 1_555 1_555
H32_3 C64_3 1_555 1_555
C22_3 C23_3 1_555 1_555
C31_3 C32_3 1_555 1_555
C54_3 C55_3 1_555 1_555
C63_3 C64_3 1_555 1_555
N3_4 C30_6 1_555 1_555
C17_4 C18_4 1_555 1_555
C18_4 C19_4 1_555 1_555
C20_4 C19_4 1_555 1_555
H10_4 C20_4 1_555 1_555
C21_4 C20_4 1_555 1_555
H11_4 C21_4 1_555 1_555
C22_4 C21_4 1_555 1_555
C23_4 C18_4 1_555 1_555
H12_4 C23_4 1_555 1_555
C24_4 C22_4 1_555 1_555
C25_4 C24_4 1_555 1_555
C26_4 C25_4 1_555 1_555
C27_4 C26_4 1_555 1_555
H13_4 C27_4 1_555 1_555
C28_4 C27_4 1_555 1_555
H14_4 C28_4 1_555 1_555
C29_4 C28_4 1_555 1_555
C30_6 C29_4 1_555 1_555
C31_4 C29_4 1_555 1_555
H15_4 C31_4 1_555 1_555
C32_4 C26_4 1_555 1_555
H16_4 C32_4 1_555 1_555
O1_6 C17_4 1_555 1_555
Ag3_2 N3_4 1_555 1_555
Ag5_2 N7_4 1_555 1_555
N7_4 C62_6 1_555 1_555
C49_4 O1_6 1_555 1_555
C50_4 C49_4 1_555 1_555
C51_4 C50_4 1_555 1_555
C52_4 C51_4 1_555 1_555
H26_4 C52_4 1_555 1_555
C53_4 C52_4 1_555 1_555
H27_4 C53_4 1_555 1_555
C54_4 C53_4 1_555 1_555
C55_4 C50_4 1_555 1_555
H28_4 C55_4 1_555 1_555
C56_4 C54_4 1_555 1_555
C57_4 C56_4 1_555 1_555
C58_4 C57_4 1_555 1_555
C59_4 C58_4 1_555 1_555
H29_4 C59_4 1_555 1_555
C60_4 C59_4 1_555 1_555
H30_4 C60_4 1_555 1_555
C61_4 C60_4 1_555 1_555
C62_6 C61_4 1_555 1_555
C63_4 C61_4 1_555 1_555
H31_4 C63_4 1_555 1_555
C64_4 C58_4 1_555 1_555
H32_4 C64_4 1_555 1_555
C22_4 C23_4 1_555 1_555
C31_4 C32_4 1_555 1_555
C54_4 C55_4 1_555 1_555
C63_4 C64_4 1_555 1_555
Ag3 N1_5 1_555 1_555
N1_5 C17_5 1_555 1_555
N2_5 Ag3 1_555 1_555
C1_3 N2_5 1_555 1_555
C2_3 C1_3 1_555 1_555
C3_3 C2_3 1_555 1_555
H1_5 C3_3 1_555 1_555
C4_3 C3_3 1_555 1_555
H2_3 C4_3 1_555 1_555
C5_3 C4_3 1_555 1_555
H3_3 C5_3 1_555 1_555
C6_3 C5_3 1_555 1_555
C7_3 C2_3 1_555 1_555
H4_3 C7_3 1_555 1_555
C8_3 C6_3 1_555 1_555
C9_3 C8_3 1_555 1_555
C10_3 C9_3 1_555 1_555
C11_3 C10_3 1_555 1_555
H5_3 C11_3 1_555 1_555
C12_3 C11_3 1_555 1_555
H6_3 C12_3 1_555 1_555
C13_3 C12_3 1_555 1_555
C15_3 C13_3 1_555 1_555
H7_3 C15_3 1_555 1_555
C16_3 C10_3 1_555 1_555
H8_3 C16_3 1_555 1_555
C17_5 C18_5 1_555 1_555
C18_5 C19_5 1_555 1_555
C19_5 H9_5 1_555 1_555
C20_5 C19_5 1_555 1_555
H10_5 C20_5 1_555 1_555
C21_5 C20_5 1_555 1_555
H11_5 C21_5 1_555 1_555
C22_5 C21_5 1_555 1_555
C23_5 C18_5 1_555 1_555
H12_5 C23_5 1_555 1_555
C24_5 C22_5 1_555 1_555
O1_7 C17_5 1_555 1_555
O2_3 C1_3 1_555 1_555
Ag3_2 N5_5 1_555 1_555
N5_5 N1_5 1_555 1_555
N6_5 N2_5 1_555 1_555
N11_3 Ag3 1_555 1_555
N12_3 Ag3_2 1_555 1_555
C33_3 O2_3 1_555 1_555
C34_3 C33_3 1_555 1_555
C35_3 C34_3 1_555 1_555
H17_5 C35_3 1_555 1_555
C36_3 C35_3 1_555 1_555
H18_3 C36_3 1_555 1_555
C37_3 C36_3 1_555 1_555
H19_3 C37_3 1_555 1_555
C38_3 C37_3 1_555 1_555
C39_3 C34_3 1_555 1_555
H20_3 C39_3 1_555 1_555
C40_3 C38_3 1_555 1_555
C41_3 C40_3 1_555 1_555
C42_3 C41_3 1_555 1_555
C43_3 C42_3 1_555 1_555
H21_3 C43_3 1_555 1_555
C44_3 C43_3 1_555 1_555
H22_3 C44_3 1_555 1_555
C45_3 C44_3 1_555 1_555
C47_3 C45_3 1_555 1_555
H23_3 C47_3 1_555 1_555
C48_3 C42_3 1_555 1_555
H24_3 C48_3 1_555 1_555
C49_5 O1_7 1_555 1_555
C50_5 C49_5 1_555 1_555
C51_5 C50_5 1_555 1_555
H25_5 C51_5 1_555 1_555
C52_5 C51_5 1_555 1_555
H26_5 C52_5 1_555 1_555
C53_5 C52_5 1_555 1_555
H27_5 C53_5 1_555 1_555
C54_5 C53_5 1_555 1_555
C55_5 C50_5 1_555 1_555
H28_5 C55_5 1_555 1_555
C56_5 C54_5 1_555 1_555
C6_3 C7_3 1_555 1_555
C15_3 C16_3 1_555 1_555
C22_5 C23_5 1_555 1_555
Ag3_2 N6_5 1_555 1_555
N5_5 C49_5 1_555 1_555
N6_5 C33_3 1_555 1_555
C38_3 C39_3 1_555 1_555
C47_3 C48_3 1_555 1_555
C54_5 C55_5 1_555 1_555
H17_6 C35_4 1_555 1_555
C36_4 C35_4 1_555 1_555
H18_4 C36_4 1_555 1_555
Ag5 N1_6 1_555 1_555
N1_6 C17_6 1_555 1_555
N2_6 Ag5 1_555 1_555
C1_4 N2_6 1_555 1_555
C2_4 C1_4 1_555 1_555
H3_4 C5_4 1_555 1_555
C6_4 C5_4 1_555 1_555
C7_4 C2_4 1_555 1_555
H4_4 C7_4 1_555 1_555
C8_4 C6_4 1_555 1_555
C9_4 C8_4 1_555 1_555
C10_4 C9_4 1_555 1_555
C11_4 C10_4 1_555 1_555
H5_4 C11_4 1_555 1_555
C12_4 C11_4 1_555 1_555
H6_4 C12_4 1_555 1_555
C13_4 C12_4 1_555 1_555
C15_4 C13_4 1_555 1_555
H7_4 C15_4 1_555 1_555
C16_4 C10_4 1_555 1_555
H8_4 C16_4 1_555 1_555
C17_6 C18_6 1_555 1_555
C18_6 C19_6 1_555 1_555
C19_6 H9_6 1_555 1_555
C20_6 C19_6 1_555 1_555
H10_6 C20_6 1_555 1_555
C21_6 C20_6 1_555 1_555
H11_6 C21_6 1_555 1_555
C22_6 C21_6 1_555 1_555
C23_6 C18_6 1_555 1_555
O1_9 C17_6 1_555 1_555
O2_5 C1_4 1_555 1_555
C6_4 C7_4 1_555 1_555
C15_4 C16_4 1_555 1_555
C22_6 C23_6 1_555 1_555
Ag5_2 N5_6 1_555 1_555
C33_4 O2_6 1_555 1_555
C34_4 C33_4 1_555 1_555
H19_4 C37_4 1_555 1_555
C38_4 C37_4 1_555 1_555
C39_4 C34_4 1_555 1_555
H20_4 C39_4 1_555 1_555
C40_4 C38_4 1_555 1_555
C41_4 C40_4 1_555 1_555
C42_4 C41_4 1_555 1_555
C43_4 C42_4 1_555 1_555
H21_4 C43_4 1_555 1_555
C44_4 C43_4 1_555 1_555
H22_4 C44_4 1_555 1_555
C45_4 C44_4 1_555 1_555
C47_4 C45_4 1_555 1_555
H23_4 C47_4 1_555 1_555
C48_4 C42_4 1_555 1_555
H24_4 C48_4 1_555 1_555
C49_6 O1_10 1_555 1_555
C50_6 C49_6 1_555 1_555
C51_6 C50_6 1_555 1_555
H25_6 C51_6 1_555 1_555
C52_6 C51_6 1_555 1_555
H26_6 C52_6 1_555 1_555
C53_6 C52_6 1_555 1_555
H27_6 C53_6 1_555 1_555
C54_6 C53_6 1_555 1_555
C55_6 C50_6 1_555 1_555
Ag5_2 N6_6 1_555 1_555
N5_6 C49_6 1_555 1_555
N6_6 C33_4 1_555 1_555
C38_4 C39_4 1_555 1_555
C47_4 C48_4 1_555 1_555
C54_6 C55_6 1_555 1_555
H1_6 C3_4 1_555 1_555
C4_4 C3_4 1_555 1_555
H2_4 C4_4 1_555 1_555
N12_4 C14_5 1_555 1_555
C10_5 C9_5 1_555 1_555
C11_5 C10_5 1_555 1_555
H5_5 C11_5 1_555 1_555
C12_5 C11_5 1_555 1_555
H6_5 C12_5 1_555 1_555
C13_5 C12_5 1_555 1_555
C14_5 C13_5 1_555 1_555
C15_5 C13_5 1_555 1_555
H7_5 C15_5 1_555 1_555
C16_5 C10_5 1_555 1_555
H8_5 C16_5 1_555 1_555
N12_3 C46_5 1_555 1_555
C42_5 C41_5 1_555 1_555
C43_5 C42_5 1_555 1_555
H21_5 C43_5 1_555 1_555
C44_5 C43_5 1_555 1_555
H22_5 C44_5 1_555 1_555
C45_5 C44_5 1_555 1_555
C46_5 C45_5 1_555 1_555
C47_5 C45_5 1_555 1_555
H23_5 C47_5 1_555 1_555
C48_5 C42_5 1_555 1_555
H24_5 C48_5 1_555 1_555
C15_5 C16_5 1_555 1_555
C47_5 C48_5 1_555 1_555
N11_4 C14_6 1_555 1_555
C10_6 C9_6 1_555 1_555
C11_6 C10_6 1_555 1_555
H5_6 C11_6 1_555 1_555
C12_6 C11_6 1_555 1_555
H6_6 C12_6 1_555 1_555
C13_6 C12_6 1_555 1_555
C14_6 C13_6 1_555 1_555
C15_6 C13_6 1_555 1_555
H7_6 C15_6 1_555 1_555
C16_6 C10_6 1_555 1_555
H8_6 C16_6 1_555 1_555
N11_3 C46_6 1_555 1_555
C42_6 C41_6 1_555 1_555
C43_6 C42_6 1_555 1_555
H21_6 C43_6 1_555 1_555
C44_6 C43_6 1_555 1_555
H22_6 C44_6 1_555 1_555
C45_6 C44_6 1_555 1_555
C46_6 C45_6 1_555 1_555
C47_6 C45_6 1_555 1_555
H23_6 C47_6 1_555 1_555
C48_6 C42_6 1_555 1_555
H24_6 C48_6 1_555 1_555
C15_6 C16_6 1_555 1_555
C47_6 C48_6 1_555 1_555
N3_5 C30_7 1_555 1_555
C26_5 C25_5 1_555 1_555
C27_5 C26_5 1_555 1_555
H13_5 C27_5 1_555 1_555
C28_5 C27_5 1_555 1_555
H14_5 C28_5 1_555 1_555
C29_5 C28_5 1_555 1_555
C30_7 C29_5 1_555 1_555
C31_5 C29_5 1_555 1_555
H15_5 C31_5 1_555 1_555
C32_5 C26_5 1_555 1_555
H16_5 C32_5 1_555 1_555
Ag3_3 N3_5 1_555 1_555
Ag5_3 N7_5 1_555 1_555
N7_5 C62_7 1_555 1_555
C58_5 C57_5 1_555 1_555
C59_5 C58_5 1_555 1_555
H29_5 C59_5 1_555 1_555
C60_5 C59_5 1_555 1_555
H30_5 C60_5 1_555 1_555
C61_5 C60_5 1_555 1_555
C62_7 C61_5 1_555 1_555
C63_5 C61_5 1_555 1_555
H31_5 C63_5 1_555 1_555
C64_5 C58_5 1_555 1_555
H32_5 C64_5 1_555 1_555
C31_5 C32_5 1_555 1_555
C63_5 C64_5 1_555 1_555
Ag5_4 N7_6 1_555 1_555
N7_6 C62_8 1_555 1_555
C58_6 C57_6 1_555 1_555
C59_6 C58_6 1_555 1_555
H29_6 C59_6 1_555 1_555
C60_6 C59_6 1_555 1_555
H30_6 C60_6 1_555 1_555
C61_6 C60_6 1_555 1_555
C62_8 C61_6 1_555 1_555
C63_6 C61_6 1_555 1_555
H31_6 C63_6 1_555 1_555
C64_6 C58_6 1_555 1_555
H32_6 C64_6 1_555 1_555
C63_6 C64_6 1_555 1_555
N3_6 C30_8 1_555 1_555
C26_6 C25_6 1_555 1_555
C27_6 C26_6 1_555 1_555
H13_6 C27_6 1_555 1_555
C28_6 C27_6 1_555 1_555
H14_6 C28_6 1_555 1_555
C29_6 C28_6 1_555 1_555
C30_8 C29_6 1_555 1_555
C31_6 C29_6 1_555 1_555
H15_6 C31_6 1_555 1_555
C32_6 C26_6 1_555 1_555
H16_6 C32_6 1_555 1_555
Ag3_4 N3_6 1_555 1_555
C31_6 C32_6 1_555 1_555
Ag5_4 N1_7 1_555 1_555
N1_7 C17_7 1_555 1_555
N2_7 Ag5_4 1_555 1_555
C1_5 N2_7 1_555 1_555
C2_5 C1_5 1_555 1_555
C3_5 C2_5 1_555 1_555
H1_7 C3_5 1_555 1_555
C4_5 C3_5 1_555 1_555
H2_5 C4_5 1_555 1_555
C5_5 C4_5 1_555 1_555
H3_5 C5_5 1_555 1_555
C6_5 C5_5 1_555 1_555
C7_5 C2_5 1_555 1_555
H4_5 C7_5 1_555 1_555
C8_5 C6_5 1_555 1_555
C17_7 C18_7 1_555 1_555
C18_7 C19_7 1_555 1_555
C19_7 H9_7 1_555 1_555
C20_7 C19_7 1_555 1_555
H10_7 C20_7 1_555 1_555
C21_7 C20_7 1_555 1_555
H11_7 C21_7 1_555 1_555
C22_7 C21_7 1_555 1_555
C23_7 C18_7 1_555 1_555
H12_7 C23_7 1_555 1_555
C24_7 C22_7 1_555 1_555
C25_7 C24_7 1_555 1_555
C26_7 C25_7 1_555 1_555
C27_7 C26_7 1_555 1_555
H13_7 C27_7 1_555 1_555
C28_7 C27_7 1_555 1_555
H14_7 C28_7 1_555 1_555
C29_7 C28_7 1_555 1_555
C31_7 C29_7 1_555 1_555
H15_7 C31_7 1_555 1_555
C32_7 C26_7 1_555 1_555
H16_7 C32_7 1_555 1_555
O1_12 C17_7 1_555 1_555
O2_8 C1_5 1_555 1_555
Ag5_3 N5_7 1_555 1_555
N5_7 N1_7 1_555 1_555
N6_7 N2_7 1_555 1_555
N11_5 Ag5_4 1_555 1_555
N12_5 Ag5_3 1_555 1_555
C33_5 O2_8 1_555 1_555
C34_5 C33_5 1_555 1_555
C35_5 C34_5 1_555 1_555
H17_7 C35_5 1_555 1_555
C36_5 C35_5 1_555 1_555
H18_5 C36_5 1_555 1_555
C37_5 C36_5 1_555 1_555
H19_5 C37_5 1_555 1_555
C38_5 C37_5 1_555 1_555
C39_5 C34_5 1_555 1_555
H20_5 C39_5 1_555 1_555
C40_5 C38_5 1_555 1_555
C49_7 O1_12 1_555 1_555
C50_7 C49_7 1_555 1_555
C51_7 C50_7 1_555 1_555
H25_7 C51_7 1_555 1_555
C52_7 C51_7 1_555 1_555
H26_7 C52_7 1_555 1_555
C53_7 C52_7 1_555 1_555
H27_7 C53_7 1_555 1_555
C54_7 C53_7 1_555 1_555
C55_7 C50_7 1_555 1_555
H28_7 C55_7 1_555 1_555
C56_7 C54_7 1_555 1_555
C57_7 C56_7 1_555 1_555
C58_7 C57_7 1_555 1_555
C59_7 C58_7 1_555 1_555
H29_7 C59_7 1_555 1_555
C60_7 C59_7 1_555 1_555
H30_7 C60_7 1_555 1_555
C61_7 C60_7 1_555 1_555
C63_7 C61_7 1_555 1_555
H31_7 C63_7 1_555 1_555
C64_7 C58_7 1_555 1_555
H32_7 C64_7 1_555 1_555
C6_5 C7_5 1_555 1_555
C22_7 C23_7 1_555 1_555
C31_7 C32_7 1_555 1_555
Ag5_3 N6_7 1_555 1_555
N5_7 C49_7 1_555 1_555
N6_7 C33_5 1_555 1_555
C38_5 C39_5 1_555 1_555
C54_7 C55_7 1_555 1_555
C63_7 C64_7 1_555 1_555
Ag3_4 N1_8 1_555 1_555
N1_8 C17_8 1_555 1_555
N2_8 Ag3_4 1_555 1_555
C1_6 N2_8 1_555 1_555
C2_6 C1_6 1_555 1_555
C3_6 C2_6 1_555 1_555
H1_8 C3_6 1_555 1_555
C4_6 C3_6 1_555 1_555
H2_6 C4_6 1_555 1_555
C5_6 C4_6 1_555 1_555
H3_6 C5_6 1_555 1_555
C6_6 C5_6 1_555 1_555
C7_6 C2_6 1_555 1_555
H4_6 C7_6 1_555 1_555
C8_6 C6_6 1_555 1_555
C17_8 C18_8 1_555 1_555
C18_8 C19_8 1_555 1_555
C19_8 H9_8 1_555 1_555
C20_8 C19_8 1_555 1_555
H10_8 C20_8 1_555 1_555
C21_8 C20_8 1_555 1_555
H11_8 C21_8 1_555 1_555
C22_8 C21_8 1_555 1_555
C23_8 C18_8 1_555 1_555
H12_8 C23_8 1_555 1_555
C24_8 C22_8 1_555 1_555
C25_8 C24_8 1_555 1_555
C26_8 C25_8 1_555 1_555
C27_8 C26_8 1_555 1_555
H13_8 C27_8 1_555 1_555
C28_8 C27_8 1_555 1_555
H14_8 C28_8 1_555 1_555
C29_8 C28_8 1_555 1_555
C31_8 C29_8 1_555 1_555
H15_8 C31_8 1_555 1_555
C32_8 C26_8 1_555 1_555
H16_8 C32_8 1_555 1_555
O1_13 C17_8 1_555 1_555
O2_9 C1_6 1_555 1_555
Ag3_3 N5_8 1_555 1_555
N5_8 N1_8 1_555 1_555
N6_8 N2_8 1_555 1_555
N11_6 Ag3_4 1_555 1_555
N12_6 Ag3_3 1_555 1_555
C33_6 O2_9 1_555 1_555
C34_6 C33_6 1_555 1_555
C35_6 C34_6 1_555 1_555
H17_8 C35_6 1_555 1_555
C36_6 C35_6 1_555 1_555
H18_6 C36_6 1_555 1_555
C37_6 C36_6 1_555 1_555
H19_6 C37_6 1_555 1_555
C38_6 C37_6 1_555 1_555
C39_6 C34_6 1_555 1_555
H20_6 C39_6 1_555 1_555
C40_6 C38_6 1_555 1_555
C49_8 O1_13 1_555 1_555
C50_8 C49_8 1_555 1_555
C51_8 C50_8 1_555 1_555
H25_8 C51_8 1_555 1_555
C52_8 C51_8 1_555 1_555
H26_8 C52_8 1_555 1_555
C53_8 C52_8 1_555 1_555
H27_8 C53_8 1_555 1_555
C54_8 C53_8 1_555 1_555
C55_8 C50_8 1_555 1_555
H28_8 C55_8 1_555 1_555
C56_8 C54_8 1_555 1_555
C57_8 C56_8 1_555 1_555
C58_8 C57_8 1_555 1_555
C59_8 C58_8 1_555 1_555
H29_8 C59_8 1_555 1_555
C60_8 C59_8 1_555 1_555
H30_8 C60_8 1_555 1_555
C61_8 C60_8 1_555 1_555
C63_8 C61_8 1_555 1_555
H31_8 C63_8 1_555 1_555
C64_8 C58_8 1_555 1_555
H32_8 C64_8 1_555 1_555
C6_6 C7_6 1_555 1_555
C22_8 C23_8 1_555 1_555
C31_8 C32_8 1_555 1_555
Ag3_3 N6_8 1_555 1_555
N5_8 C49_8 1_555 1_555
N6_8 C33_6 1_555 1_555
C38_6 C39_6 1_555 1_555
C54_8 C55_8 1_555 1_555
C63_8 C64_8 1_555 1_555
N11_5 C14_7 1_555 1_555
C2_7 C1_7 1_555 1_555
C3_7 C2_7 1_555 1_555
C4_7 C3_7 1_555 1_555
H2_7 C4_7 1_555 1_555
C5_7 C4_7 1_555 1_555
H3_7 C5_7 1_555 1_555
C6_7 C5_7 1_555 1_555
C7_7 C2_7 1_555 1_555
H4_7 C7_7 1_555 1_555
C8_7 C6_7 1_555 1_555
C9_7 C8_7 1_555 1_555
C10_7 C9_7 1_555 1_555
C11_7 C10_7 1_555 1_555
H5_7 C11_7 1_555 1_555
C12_7 C11_7 1_555 1_555
H6_7 C12_7 1_555 1_555
C13_7 C12_7 1_555 1_555
C14_7 C13_7 1_555 1_555
C15_7 C13_7 1_555 1_555
H7_7 C15_7 1_555 1_555
C16_7 C10_7 1_555 1_555
H8_7 C16_7 1_555 1_555
O2_10 C1_7 1_555 1_555
C6_7 C7_7 1_555 1_555
C15_7 C16_7 1_555 1_555
N11_6 C46_7 1_555 1_555
C33_7 O2_11 1_555 1_555
C34_7 C33_7 1_555 1_555
C35_7 C34_7 1_555 1_555
C36_7 C35_7 1_555 1_555
H18_7 C36_7 1_555 1_555
C37_7 C36_7 1_555 1_555
H19_7 C37_7 1_555 1_555
C38_7 C37_7 1_555 1_555
C39_7 C34_7 1_555 1_555
H20_7 C39_7 1_555 1_555
C40_7 C38_7 1_555 1_555
C41_7 C40_7 1_555 1_555
C42_7 C41_7 1_555 1_555
C43_7 C42_7 1_555 1_555
H21_7 C43_7 1_555 1_555
C44_7 C43_7 1_555 1_555
H22_7 C44_7 1_555 1_555
C45_7 C44_7 1_555 1_555
C46_7 C45_7 1_555 1_555
C47_7 C45_7 1_555 1_555
H23_7 C47_7 1_555 1_555
C48_7 C42_7 1_555 1_555
H24_7 C48_7 1_555 1_555
C38_7 C39_7 1_555 1_555
C47_7 C48_7 1_555 1_555
N12_5 C14_8 1_555 1_555
C2_8 C1_8 1_555 1_555
H3_8 C5_8 1_555 1_555
C6_8 C5_8 1_555 1_555
C7_8 C2_8 1_555 1_555
H4_8 C7_8 1_555 1_555
C8_8 C6_8 1_555 1_555
C9_8 C8_8 1_555 1_555
C10_8 C9_8 1_555 1_555
C11_8 C10_8 1_555 1_555
H5_8 C11_8 1_555 1_555
C12_8 C11_8 1_555 1_555
H6_8 C12_8 1_555 1_555
C13_8 C12_8 1_555 1_555
C14_8 C13_8 1_555 1_555
C15_8 C13_8 1_555 1_555
H7_8 C15_8 1_555 1_555
C16_8 C10_8 1_555 1_555
H8_8 C16_8 1_555 1_555
O2_12 C1_8 1_555 1_555
C36_8 C35_8 1_555 1_555
H18_8 C36_8 1_555 1_555
C6_8 C7_8 1_555 1_555
C15_8 C16_8 1_555 1_555
C4_8 C3_8 1_555 1_555
H2_8 C4_8 1_555 1_555
N12_6 C46_8 1_555 1_555
C33_8 O2_13 1_555 1_555
C34_8 C33_8 1_555 1_555
H19_8 C37_8 1_555 1_555
C38_8 C37_8 1_555 1_555
C39_8 C34_8 1_555 1_555
H20_8 C39_8 1_555 1_555
C40_8 C38_8 1_555 1_555
C41_8 C40_8 1_555 1_555
C42_8 C41_8 1_555 1_555
C43_8 C42_8 1_555 1_555
H21_8 C43_8 1_555 1_555
C44_8 C43_8 1_555 1_555
H22_8 C44_8 1_555 1_555
C45_8 C44_8 1_555 1_555
C46_8 C45_8 1_555 1_555
C47_8 C45_8 1_555 1_555
H23_8 C47_8 1_555 1_555
C48_8 C42_8 1_555 1_555
H24_8 C48_8 1_555 1_555
C38_8 C39_8 1_555 1_555
C47_8 C48_8 1_555 1_555

#END
