
###############################################################################
#
# This file contains modified crystal structure data generated from the
# MOF subset of the Cambridge Structural Database (CSD) v543 
# hosted by the Cambridge Crystallographic Data Centre (CCDC).
#
# This work is licensed under the Creative Commons
# Attribution-NonCommercial-ShareAlike 4.0 International License.
# To view a copy of this license, visit
# http://creativecommons.org/licenses/by-nc-sa/4.0/
# or send a letter to
# Creative Commons, PO Box 1866, Mountain View, CA 94042, USA.
#
# CIF created using the CSD Python API on 29 September 2022
# The structure has been converted into the P1 space group
# The structure has a 3D framework
# The original CSD entry WEHQAC is in the orthorhombic crystal system
# The framework has been calculated to contain at least 10.0% void space
# The void calculation uses a probe of radius 1.32A, grid spacing 0.4
# The framework is charged, counterions have been retained in the structure
#
###############################################################################

data_WEHQAC
_chemical_formula_moiety         '(C512 H256 Ag16 B16 F64 N64 O16)n'
_symmetry_cell_setting           triclinic
_symmetry_space_group_name_H-M   'P 1'
_symmetry_Int_Tables_number      1
_space_group_name_Hall           'P 1'
loop_
_symmetry_equiv_pos_site_id
_symmetry_equiv_pos_as_xyz
1 x,y,z
_cell_length_a                   19.008(3)
_cell_length_b                   24.794(4)
_cell_length_c                   34.955(6)
_cell_angle_alpha                90
_cell_angle_beta                 90
_cell_angle_gamma                90
_cell_volume                     16473.7
loop_
_atom_site_label
_atom_site_type_symbol
_atom_site_fract_x
_atom_site_fract_y
_atom_site_fract_z
Ag5 Ag 0.3750 0.3750 0.426485(15)
Ag6 Ag 0.3750 0.8750 0.823515(15)
N7 N 0.3468(3) 0.4420(2) 0.47246(17)
N8 N 0.3468(3) 0.8080(2) 0.77754(17)
C42 C 0.0372(3) 0.5720(3) 0.49648(18)
C43 C 0.0372(3) 0.6780(3) 0.75352(18)
C45 C 0.1037(3) 0.5450(2) 0.4910(2)
C46 C 0.1037(3) 0.7050(2) 0.7590(2)
C48 C 0.1402(3) 0.5491(3) 0.4565(2)
C49 C 0.1402(3) 0.7009(3) 0.7935(2)
H22 H 0.1214 0.5691 0.4365
H23 H 0.1214 0.6809 0.8135
C51 C 0.2039(3) 0.5235(3) 0.4522(2)
C52 C 0.2039(3) 0.7265(3) 0.7978(2)
H25 H 0.2285 0.5267 0.4293
H26 H 0.2285 0.7233 0.8207
C54 C 0.2311(3) 0.4934(3) 0.4816(2)
C55 C 0.2311(3) 0.7566(3) 0.7684(2)
C57 C 0.2963(3) 0.4649(3) 0.47648(19)
C58 C 0.2963(3) 0.7851(3) 0.77352(19)
C60 C 0.1943(3) 0.4887(3) 0.5155(2)
C61 C 0.1943(3) 0.7613(3) 0.7345(2)
H28 H 0.2123 0.4682 0.5355
H29 H 0.2123 0.7818 0.7145
C63 C 0.1309(3) 0.5146(3) 0.5195(2)
C64 C 0.1309(3) 0.7354(3) 0.7305(2)
H31 H 0.1062 0.5111 0.5423
H32 H 0.1062 0.7389 0.7077
Ag6_2 Ag 0.3750 0.3750 0.323515(15)
N8_2 N 0.3468(3) 0.3080(2) 0.27754(17)
C43_2 C 0.0372(3) 0.1780(3) 0.25352(18)
C46_2 C 0.1037(3) 0.2050(2) 0.2590(2)
C49_2 C 0.1402(3) 0.2009(3) 0.2935(2)
H23_2 H 0.1214 0.1809 0.3135
C52_2 C 0.2039(3) 0.2265(3) 0.2978(2)
H26_2 H 0.2285 0.2233 0.3207
C55_2 C 0.2311(3) 0.2566(3) 0.2684(2)
C58_2 C 0.2963(3) 0.2851(3) 0.27352(19)
C61_2 C 0.1943(3) 0.2613(3) 0.2345(2)
H29_2 H 0.2123 0.2818 0.2145
C63_2 C 0.1309(3) 0.0146(3) 0.0195(2)
C64_2 C 0.1309(3) 0.2354(3) 0.2305(2)
H31_2 H 0.1062 0.0111 0.0423
H32_2 H 0.1062 0.2389 0.2077
Ag5_2 Ag 0.3750 0.8750 0.926485(15)
N7_2 N 0.3468(3) 0.9420(2) 0.97246(17)
C54_2 C 0.2311(3) 0.9934(3) 0.9816(2)
C57_2 C 0.2963(3) 0.9649(3) 0.97648(19)
C1 C 0.9549(2) 0.61895(17) 0.09477(13)
C2 C 0.9250(2) 0.61138(18) 0.05667(15)
C3 C 0.9611(2) 0.5827(2) 0.02920(15)
C6 C 0.8319(3) 0.6292(2) 0.01136(16)
C7 C 0.8603(2) 0.63472(19) 0.04792(15)
H4 H 0.8360 0.6540 0.0665
C8 C 0.7663(3) 0.6553(2) 0.00243(17)
C15 C 0.5557(3) 0.7613(3) 0.0155(2)
H7 H 0.5377 0.7818 0.0355
C16 C 0.6191(3) 0.7354(3) 0.0195(2)
H8 H 0.6438 0.7389 0.0423
O1 O 0.9104(2) 0.6250 0.1250
N6 N 0.4032(3) 0.4420(2) 0.27754(17)
C17 C 0.9549(2) 0.63105(17) 0.15523(13)
C20 C 0.9250(2) 0.63862(18) 0.19333(15)
C23 C 0.9611(2) 0.6673(2) 0.22080(15)
C26 C 0.9327(3) 0.6727(2) 0.25661(17)
H12 H 0.9570 0.6920 0.2752
C29 C 0.8683(3) 0.6498(2) 0.26551(18)
H15 H 0.8496 0.6542 0.2899
C32 C 0.8319(3) 0.6208(2) 0.23864(16)
C35 C 0.8603(2) 0.61528(19) 0.20208(15)
H18 H 0.8360 0.5960 0.1835
C38 C 0.7663(3) 0.5947(2) 0.24757(17)
C41 C 0.7128(3) 0.5720(3) 0.25352(18)
C44 C 0.6463(3) 0.5450(2) 0.2590(2)
C47 C 0.6098(3) 0.5491(3) 0.2935(2)
H21 H 0.6286 0.5691 0.3135
C50 C 0.5461(3) 0.5235(3) 0.2978(2)
H24 H 0.5215 0.5267 0.3207
C53 C 0.5189(3) 0.4934(3) 0.2684(2)
C56 C 0.4537(3) 0.4649(3) 0.27352(19)
C59 C 0.5557(3) 0.4887(3) 0.2345(2)
H27 H 0.5377 0.4682 0.2145
C62 C 0.6191(3) 0.5146(3) 0.2305(2)
H30 H 0.6438 0.5111 0.2077
N2 N 0.4032(3) 0.8080(2) 0.97246(17)
C4 C 0.9327(3) 0.5773(2) 0.99339(17)
H2 H 0.9570 0.5580 0.9748
C5 C 0.8683(3) 0.6002(2) 0.98449(18)
H3 H 0.8496 0.5958 0.9601
C9 C 0.7128(3) 0.6780(3) 0.99648(18)
C10 C 0.6463(3) 0.7050(2) 0.9910(2)
C11 C 0.6098(3) 0.7009(3) 0.9565(2)
H5 H 0.6286 0.6809 0.9365
C12 C 0.5461(3) 0.7265(3) 0.9522(2)
H6 H 0.5215 0.7233 0.9293
C13 C 0.5189(3) 0.7566(3) 0.9816(2)
C14 C 0.4537(3) 0.7851(3) 0.97648(19)
N2_2 N 0.4032(3) 0.3080(2) 0.47246(17)
C1_2 C 0.9549(2) 0.11895(17) 0.59477(13)
C2_2 C 0.9250(2) 0.11138(18) 0.55667(15)
C3_2 C 0.9611(2) 0.0827(2) 0.52920(15)
C4_2 C 0.9327(3) 0.0773(2) 0.49339(17)
H2_2 H 0.9570 0.0580 0.4748
C5_2 C 0.8683(3) 0.1002(2) 0.48449(18)
H3_2 H 0.8496 0.0958 0.4601
C6_2 C 0.8319(3) 0.1292(2) 0.51136(16)
C7_2 C 0.8603(2) 0.13472(19) 0.54792(15)
H4_2 H 0.8360 0.1540 0.5665
C8_2 C 0.7663(3) 0.1553(2) 0.50243(17)
C9_2 C 0.7128(3) 0.1780(3) 0.49648(18)
C10_2 C 0.6463(3) 0.2050(2) 0.4910(2)
C11_2 C 0.6098(3) 0.2009(3) 0.4565(2)
H5_2 H 0.6286 0.1809 0.4365
C12_2 C 0.5461(3) 0.2265(3) 0.4522(2)
H6_2 H 0.5215 0.2233 0.4293
C13_2 C 0.5189(3) 0.2566(3) 0.4816(2)
C14_2 C 0.4537(3) 0.2851(3) 0.47648(19)
C15_2 C 0.5557(3) 0.2613(3) 0.5155(2)
H7_2 H 0.5377 0.2818 0.5355
C16_2 C 0.6191(3) 0.2354(3) 0.5195(2)
H8_2 H 0.6438 0.2389 0.5423
O1_2 O 0.9104(2) 0.1250 0.6250
C17_2 C 0.9549(2) 0.13105(17) 0.65523(13)
C20_2 C 0.9250(2) 0.13862(18) 0.69333(15)
C23_2 C 0.9611(2) 0.1673(2) 0.72080(15)
C26_2 C 0.9327(3) 0.1727(2) 0.75661(17)
H12_2 H 0.9570 0.1920 0.7752
C29_2 C 0.8683(3) 0.1498(2) 0.76551(18)
H15_2 H 0.8496 0.1542 0.7899
C32_2 C 0.8319(3) 0.1208(2) 0.73864(16)
C35_2 C 0.8603(2) 0.11528(19) 0.70208(15)
H18_2 H 0.8360 0.0960 0.6835
C38_2 C 0.7663(3) 0.0947(2) 0.74757(17)
C41_2 C 0.7128(3) 0.0720(3) 0.75352(18)
C44_2 C 0.6463(3) 0.0450(2) 0.7590(2)
C47_2 C 0.6098(3) 0.0491(3) 0.7935(2)
H21_2 H 0.6286 0.0691 0.8135
C50_2 C 0.5461(3) 0.0235(3) 0.7978(2)
H24_2 H 0.5215 0.0267 0.8207
C62_2 C 0.6191(3) 0.0146(3) 0.7305(2)
H30_2 H 0.6438 0.0111 0.7077
N6_2 N 0.4032(3) 0.9420(2) 0.77754(17)
C53_2 C 0.5189(3) 0.9934(3) 0.7684(2)
C56_2 C 0.4537(3) 0.9649(3) 0.77352(19)
C59_2 C 0.5557(3) 0.9887(3) 0.7345(2)
H27_2 H 0.5377 0.9682 0.7145
N1 N 0.48026(17) 0.37858(15) 0.39488(10)
C1_3 C 0.5451(2) 0.38105(17) 0.40523(13)
C2_3 C 0.5750(2) 0.38862(18) 0.44333(15)
C3_3 C 0.5389(2) 0.4173(2) 0.47080(15)
H1 H 0.4957 0.4329 0.4651
C4_3 C 0.5673(3) 0.4227(2) 0.50661(17)
H2_3 H 0.5430 0.4420 0.5252
C5_3 C 0.6317(3) 0.3998(2) 0.51551(18)
H3_3 H 0.6504 0.4042 0.5399
C6_3 C 0.6681(3) 0.3708(2) 0.48864(16)
C7_3 C 0.6397(2) 0.36528(19) 0.45208(15)
H4_3 H 0.6640 0.3460 0.4335
C8_3 C 0.7337(3) 0.3447(2) 0.49757(17)
C9_3 C 0.7872(3) 0.3220(3) 0.50352(18)
C10_3 C 0.8537(3) 0.2950(2) 0.5090(2)
C11_3 C 0.8902(3) 0.2991(3) 0.5435(2)
H5_3 H 0.8714 0.3191 0.5635
C12_3 C 0.9539(3) 0.2735(3) 0.5478(2)
H6_3 H 0.9785 0.2767 0.5707
C13_3 C 0.9811(3) 0.2434(3) 0.5184(2)
C15_3 C 0.9443(3) 0.2387(3) 0.4845(2)
H7_3 H 0.9623 0.2182 0.4645
C16_3 C 0.8809(3) 0.2646(3) 0.4805(2)
H8_3 H 0.8562 0.2611 0.4577
O1_3 O 0.5896(2) 0.3750 0.3750
N3 N 0.48026(17) 0.37142(15) 0.35512(10)
N4 N 0.26974(17) 0.37142(15) 0.39488(10)
N5 N 0.26974(17) 0.37858(15) 0.35512(10)
C17_3 C 0.5451(2) 0.36895(17) 0.34477(13)
C18 C 0.2049(2) 0.36895(17) 0.40523(13)
C19 C 0.2049(2) 0.38105(17) 0.34477(13)
C20_3 C 0.5750(2) 0.36138(18) 0.30667(15)
C21 C 0.1750(2) 0.36138(18) 0.44333(15)
C22 C 0.1750(2) 0.38862(18) 0.30667(15)
C23_3 C 0.5389(2) 0.3327(2) 0.27920(15)
C24 C 0.2111(2) 0.3327(2) 0.47080(15)
C25 C 0.2111(2) 0.4173(2) 0.27920(15)
H9 H 0.4957 0.3171 0.2849
H10 H 0.2543 0.3171 0.4651
H11 H 0.2543 0.4329 0.2849
C26_3 C 0.5673(3) 0.3273(2) 0.24339(17)
C27 C 0.1827(3) 0.3273(2) 0.50661(17)
C28 C 0.1827(3) 0.4227(2) 0.24339(17)
H12_3 H 0.5430 0.3080 0.2248
H13 H 0.2070 0.3080 0.5252
H14 H 0.2070 0.4420 0.2248
C29_3 C 0.6317(3) 0.3502(2) 0.23449(18)
C30 C 0.1183(3) 0.3502(2) 0.51551(18)
C31 C 0.1183(3) 0.3998(2) 0.23449(18)
H15_3 H 0.6504 0.3458 0.2101
H16 H 0.0996 0.3458 0.5399
H17 H 0.0996 0.4042 0.2101
C32_3 C 0.6681(3) 0.3792(2) 0.26136(16)
C33 C 0.0819(3) 0.3792(2) 0.48864(16)
C34 C 0.0819(3) 0.3708(2) 0.26136(16)
C35_3 C 0.6397(2) 0.38472(19) 0.29792(15)
C36 C 0.1103(2) 0.38472(19) 0.45208(15)
C37 C 0.1103(2) 0.36528(19) 0.29792(15)
H18_3 H 0.6640 0.4040 0.3165
H19 H 0.0860 0.4040 0.4335
H20 H 0.0860 0.3460 0.3165
C38_3 C 0.7337(3) 0.4053(2) 0.25243(17)
C39 C 0.0163(3) 0.4053(2) 0.49757(17)
C40 C 0.0163(3) 0.3447(2) 0.25243(17)
C41_3 C 0.7872(3) 0.4280(3) 0.24648(18)
C44_3 C 0.8537(3) 0.4550(2) 0.2410(2)
C47_3 C 0.8902(3) 0.4509(3) 0.2065(2)
H21_3 H 0.8714 0.4309 0.1865
C50_3 C 0.9539(3) 0.4765(3) 0.2022(2)
H24_3 H 0.9785 0.4733 0.1793
C53_3 C 0.9811(3) 0.5066(3) 0.2316(2)
C59_3 C 0.9443(3) 0.5113(3) 0.2655(2)
H27_3 H 0.9623 0.5318 0.2855
C62_3 C 0.8809(3) 0.4854(3) 0.2695(2)
H30_3 H 0.8562 0.4889 0.2923
O2 O 0.1604(2) 0.3750 0.3750
N1_2 N 0.48026(17) 0.87858(15) 0.89488(10)
C1_4 C 0.5451(2) 0.88105(17) 0.90523(13)
C2_4 C 0.5750(2) 0.88862(18) 0.94333(15)
C3_4 C 0.5389(2) 0.9173(2) 0.97080(15)
H1_2 H 0.4957 0.9329 0.9651
C6_4 C 0.6681(3) 0.8708(2) 0.98864(16)
C7_4 C 0.6397(2) 0.86528(19) 0.95208(15)
H4_4 H 0.6640 0.8460 0.9335
C8_4 C 0.7337(3) 0.8447(2) 0.99757(17)
C15_4 C 0.9443(3) 0.7387(3) 0.9845(2)
H7_4 H 0.9623 0.7182 0.9645
C16_4 C 0.8809(3) 0.7646(3) 0.9805(2)
H8_4 H 0.8562 0.7611 0.9577
O1_4 O 0.5896(2) 0.8750 0.8750
N3_2 N 0.48026(17) 0.87142(15) 0.85512(10)
N4_2 N 0.26974(17) 0.87142(15) 0.89488(10)
N5_2 N 0.26974(17) 0.87858(15) 0.85512(10)
C17_4 C 0.5451(2) 0.86895(17) 0.84477(13)
C18_2 C 0.2049(2) 0.86895(17) 0.90523(13)
C19_2 C 0.2049(2) 0.88105(17) 0.84477(13)
C20_4 C 0.5750(2) 0.86138(18) 0.80667(15)
C21_2 C 0.1750(2) 0.86138(18) 0.94333(15)
C22_2 C 0.1750(2) 0.88862(18) 0.80667(15)
C23_4 C 0.5389(2) 0.8327(2) 0.77920(15)
C24_2 C 0.2111(2) 0.8327(2) 0.97080(15)
C25_2 C 0.2111(2) 0.9173(2) 0.77920(15)
H9_2 H 0.4957 0.8171 0.7849
H10_2 H 0.2543 0.8171 0.9651
H11_2 H 0.2543 0.9329 0.7849
C26_4 C 0.5673(3) 0.8273(2) 0.74339(17)
C28_2 C 0.1827(3) 0.9227(2) 0.74339(17)
H12_4 H 0.5430 0.8080 0.7248
H14_2 H 0.2070 0.9420 0.7248
C29_4 C 0.6317(3) 0.8502(2) 0.73449(18)
C31_2 C 0.1183(3) 0.8998(2) 0.73449(18)
H15_4 H 0.6504 0.8458 0.7101
H17_2 H 0.0996 0.9042 0.7101
C32_4 C 0.6681(3) 0.8792(2) 0.76136(16)
C33_2 C 0.0819(3) 0.8792(2) 0.98864(16)
C34_2 C 0.0819(3) 0.8708(2) 0.76136(16)
C35_4 C 0.6397(2) 0.88472(19) 0.79792(15)
C36_2 C 0.1103(2) 0.88472(19) 0.95208(15)
C37_2 C 0.1103(2) 0.86528(19) 0.79792(15)
H18_4 H 0.6640 0.9040 0.8165
H19_2 H 0.0860 0.9040 0.9335
H20_2 H 0.0860 0.8460 0.8165
C38_4 C 0.7337(3) 0.9053(2) 0.75243(17)
C39_2 C 0.0163(3) 0.9053(2) 0.99757(17)
C40_2 C 0.0163(3) 0.8447(2) 0.75243(17)
C41_4 C 0.7872(3) 0.9280(3) 0.74648(18)
C44_4 C 0.8537(3) 0.9550(2) 0.7410(2)
C47_4 C 0.8902(3) 0.9509(3) 0.7065(2)
H21_4 H 0.8714 0.9309 0.6865
C50_4 C 0.9539(3) 0.9765(3) 0.7022(2)
H24_4 H 0.9785 0.9733 0.6793
C62_4 C 0.8809(3) 0.9854(3) 0.7695(2)
H30_4 H 0.8562 0.9889 0.7923
O2_2 O 0.1604(2) 0.8750 0.8750
Ag1 Ag 0.6250 0.6250 0.573515(15)
N1_3 N 0.51974(17) 0.62142(15) 0.60512(10)
C1_5 C 0.4549(2) 0.61895(17) 0.59477(13)
C2_5 C 0.4250(2) 0.61138(18) 0.55667(15)
C3_5 C 0.4611(2) 0.5827(2) 0.52920(15)
H1_3 H 0.5043 0.5671 0.5349
C4_4 C 0.4327(3) 0.5773(2) 0.49339(17)
H2_4 H 0.4570 0.5580 0.4748
C5_4 C 0.3683(3) 0.6002(2) 0.48449(18)
H3_4 H 0.3496 0.5958 0.4601
C6_5 C 0.3319(3) 0.6292(2) 0.51136(16)
C7_5 C 0.3603(2) 0.63472(19) 0.54792(15)
H4_5 H 0.3360 0.6540 0.5665
C8_5 C 0.2663(3) 0.6553(2) 0.50243(17)
C9_4 C 0.2128(3) 0.6780(3) 0.49648(18)
C10_4 C 0.1463(3) 0.7050(2) 0.4910(2)
C11_4 C 0.1098(3) 0.7009(3) 0.4565(2)
H5_4 H 0.1286 0.6809 0.4365
C12_4 C 0.0461(3) 0.7265(3) 0.4522(2)
H6_4 H 0.0215 0.7233 0.4293
C13_4 C 0.0189(3) 0.7566(3) 0.4816(2)
C15_5 C 0.0557(3) 0.7613(3) 0.5155(2)
H7_5 H 0.0377 0.7818 0.5355
C16_5 C 0.1191(3) 0.7354(3) 0.5195(2)
H8_5 H 0.1438 0.7389 0.5423
O1_5 O 0.4104(2) 0.6250 0.6250
Ag2 Ag 0.6250 0.6250 0.676485(15)
N3_3 N 0.51974(17) 0.62858(15) 0.64488(10)
N4_3 N 0.73026(17) 0.62858(15) 0.60512(10)
N5_3 N 0.73026(17) 0.62142(15) 0.64488(10)
N9 N 0.5968(3) 0.6920(2) 0.52754(17)
N10 N 0.6532(3) 0.5580(2) 0.52754(17)
N11 N 0.6532(3) 0.6920(2) 0.72246(17)
N12 N 0.5968(3) 0.5580(2) 0.72246(17)
C17_5 C 0.4549(2) 0.63105(17) 0.65523(13)
C18_3 C 0.7951(2) 0.63105(17) 0.59477(13)
C19_3 C 0.7951(2) 0.61895(17) 0.65523(13)
C20_5 C 0.4250(2) 0.63862(18) 0.69333(15)
C21_3 C 0.8250(2) 0.63862(18) 0.55667(15)
C22_3 C 0.8250(2) 0.61138(18) 0.69333(15)
C23_5 C 0.4611(2) 0.6673(2) 0.72080(15)
C24_3 C 0.7889(2) 0.6673(2) 0.52920(15)
C25_3 C 0.7889(2) 0.5827(2) 0.72080(15)
H9_3 H 0.5043 0.6829 0.7151
H10_3 H 0.7457 0.6829 0.5349
H11_3 H 0.7457 0.5671 0.7151
C26_5 C 0.4327(3) 0.6727(2) 0.75661(17)
C27_2 C 0.8173(3) 0.6727(2) 0.49339(17)
C28_3 C 0.8173(3) 0.5773(2) 0.75661(17)
H12_5 H 0.4570 0.6920 0.7752
H13_2 H 0.7930 0.6920 0.4748
H14_3 H 0.7930 0.5580 0.7752
C29_5 C 0.3683(3) 0.6498(2) 0.76551(18)
C30_2 C 0.8817(3) 0.6498(2) 0.48449(18)
C31_3 C 0.8817(3) 0.6002(2) 0.76551(18)
H15_5 H 0.3496 0.6542 0.7899
H16_2 H 0.9004 0.6542 0.4601
H17_3 H 0.9004 0.5958 0.7899
C32_5 C 0.3319(3) 0.6208(2) 0.73864(16)
C33_3 C 0.9181(3) 0.6208(2) 0.51136(16)
C34_3 C 0.9181(3) 0.6292(2) 0.73864(16)
C35_5 C 0.3603(2) 0.61528(19) 0.70208(15)
C36_3 C 0.8897(2) 0.61528(19) 0.54792(15)
C37_3 C 0.8897(2) 0.63472(19) 0.70208(15)
H18_5 H 0.3360 0.5960 0.6835
H19_3 H 0.9140 0.5960 0.5665
H20_3 H 0.9140 0.6540 0.6835
C38_5 C 0.2663(3) 0.5947(2) 0.74757(17)
C39_3 C 0.9837(3) 0.5947(2) 0.50243(17)
C40_3 C 0.9837(3) 0.6553(2) 0.74757(17)
C41_5 C 0.2128(3) 0.5720(3) 0.75352(18)
C44_5 C 0.1463(3) 0.5450(2) 0.7590(2)
C47_5 C 0.1098(3) 0.5491(3) 0.7935(2)
H21_5 H 0.1286 0.5691 0.8135
C50_5 C 0.0461(3) 0.5235(3) 0.7978(2)
H24_5 H 0.0215 0.5267 0.8207
C53_4 C 0.0189(3) 0.4934(3) 0.7684(2)
C59_4 C 0.0557(3) 0.4887(3) 0.7345(2)
H27_4 H 0.0377 0.4682 0.7145
C62_5 C 0.1191(3) 0.5146(3) 0.7305(2)
H30_5 H 0.1438 0.5111 0.7077
O2_3 O 0.8396(2) 0.6250 0.6250
Ag1_2 Ag 0.6250 0.1250 0.073515(15)
N1_4 N 0.51974(17) 0.12142(15) 0.10512(10)
C1_6 C 0.4549(2) 0.11895(17) 0.09477(13)
C2_6 C 0.4250(2) 0.11138(18) 0.05667(15)
C3_6 C 0.4611(2) 0.0827(2) 0.02920(15)
H1_4 H 0.5043 0.0671 0.0349
C6_6 C 0.3319(3) 0.1292(2) 0.01136(16)
C7_6 C 0.3603(2) 0.13472(19) 0.04792(15)
H4_6 H 0.3360 0.1540 0.0665
C8_6 C 0.2663(3) 0.1553(2) 0.00243(17)
C15_6 C 0.0557(3) 0.2613(3) 0.0155(2)
H7_6 H 0.0377 0.2818 0.0355
C16_6 C 0.1191(3) 0.2354(3) 0.0195(2)
H8_6 H 0.1438 0.2389 0.0423
O1_6 O 0.4104(2) 0.1250 0.1250
Ag2_2 Ag 0.6250 0.1250 0.176485(15)
N3_4 N 0.51974(17) 0.12858(15) 0.14488(10)
N4_4 N 0.73026(17) 0.12858(15) 0.10512(10)
N5_4 N 0.73026(17) 0.12142(15) 0.14488(10)
N9_2 N 0.5968(3) 0.1920(2) 0.02754(17)
N10_2 N 0.6532(3) 0.0580(2) 0.02754(17)
N11_2 N 0.6532(3) 0.1920(2) 0.22246(17)
N12_2 N 0.5968(3) 0.0580(2) 0.22246(17)
C17_6 C 0.4549(2) 0.13105(17) 0.15523(13)
C18_4 C 0.7951(2) 0.13105(17) 0.09477(13)
C19_4 C 0.7951(2) 0.11895(17) 0.15523(13)
C20_6 C 0.4250(2) 0.13862(18) 0.19333(15)
C21_4 C 0.8250(2) 0.13862(18) 0.05667(15)
C22_4 C 0.8250(2) 0.11138(18) 0.19333(15)
C23_6 C 0.4611(2) 0.1673(2) 0.22080(15)
C24_4 C 0.7889(2) 0.1673(2) 0.02920(15)
C25_4 C 0.7889(2) 0.0827(2) 0.22080(15)
H9_4 H 0.5043 0.1829 0.2151
H10_4 H 0.7457 0.1829 0.0349
H11_4 H 0.7457 0.0671 0.2151
C26_6 C 0.4327(3) 0.1727(2) 0.25661(17)
C28_4 C 0.8173(3) 0.0773(2) 0.25661(17)
H12_6 H 0.4570 0.1920 0.2752
H14_4 H 0.7930 0.0580 0.2752
C29_6 C 0.3683(3) 0.1498(2) 0.26551(18)
C31_4 C 0.8817(3) 0.1002(2) 0.26551(18)
H15_6 H 0.3496 0.1542 0.2899
H17_4 H 0.9004 0.0958 0.2899
C32_6 C 0.3319(3) 0.1208(2) 0.23864(16)
C33_4 C 0.9181(3) 0.1208(2) 0.01136(16)
C34_4 C 0.9181(3) 0.1292(2) 0.23864(16)
C35_6 C 0.3603(2) 0.11528(19) 0.20208(15)
C36_4 C 0.8897(2) 0.11528(19) 0.04792(15)
C37_4 C 0.8897(2) 0.13472(19) 0.20208(15)
H18_6 H 0.3360 0.0960 0.1835
H19_4 H 0.9140 0.0960 0.0665
H20_4 H 0.9140 0.1540 0.1835
C38_6 C 0.2663(3) 0.0947(2) 0.24757(17)
C39_4 C 0.9837(3) 0.0947(2) 0.00243(17)
C40_4 C 0.9837(3) 0.1553(2) 0.24757(17)
C41_6 C 0.2128(3) 0.0720(3) 0.25352(18)
C44_6 C 0.1463(3) 0.0450(2) 0.2590(2)
C47_6 C 0.1098(3) 0.0491(3) 0.2935(2)
H21_6 H 0.1286 0.0691 0.3135
C50_6 C 0.0461(3) 0.0235(3) 0.2978(2)
H24_6 H 0.0215 0.0267 0.3207
C62_6 C 0.1191(3) 0.0146(3) 0.2305(2)
H30_6 H 0.1438 0.0111 0.2077
O2_4 O 0.8396(2) 0.1250 0.1250
C42_2 C 0.9628(3) 0.4280(3) 0.50352(18)
C43_3 C 0.9628(3) 0.3220(3) 0.24648(18)
C45_2 C 0.8963(3) 0.4550(2) 0.5090(2)
C46_3 C 0.8963(3) 0.2950(2) 0.2410(2)
C48_2 C 0.8598(3) 0.4509(3) 0.5435(2)
C49_3 C 0.8598(3) 0.2991(3) 0.2065(2)
H22_2 H 0.8786 0.4309 0.5635
H23_3 H 0.8786 0.3191 0.1865
C51_2 C 0.7961(3) 0.4765(3) 0.5478(2)
C52_3 C 0.7961(3) 0.2735(3) 0.2022(2)
H25_2 H 0.7715 0.4733 0.5707
H26_3 H 0.7715 0.2767 0.1793
C54_3 C 0.7689(3) 0.5066(3) 0.5184(2)
C55_3 C 0.7689(3) 0.2434(3) 0.2316(2)
C57_3 C 0.7037(3) 0.5351(3) 0.52352(19)
C58_3 C 0.7037(3) 0.2149(3) 0.22648(19)
C60_2 C 0.8057(3) 0.5113(3) 0.4845(2)
C61_3 C 0.8057(3) 0.2387(3) 0.2655(2)
H28_2 H 0.7877 0.5318 0.4645
H29_3 H 0.7877 0.2182 0.2855
C63_3 C 0.8691(3) 0.4854(3) 0.4805(2)
C64_3 C 0.8691(3) 0.2646(3) 0.2695(2)
H31_3 H 0.8938 0.4889 0.4577
H32_3 H 0.8938 0.2611 0.2923
C54_4 C 0.7689(3) 0.0066(3) 0.0184(2)
C57_4 C 0.7037(3) 0.0351(3) 0.02352(19)
C43_4 C 0.9628(3) 0.8220(3) 0.74648(18)
C46_4 C 0.8963(3) 0.7950(2) 0.7410(2)
C49_4 C 0.8598(3) 0.7991(3) 0.7065(2)
H23_4 H 0.8786 0.8191 0.6865
C52_4 C 0.7961(3) 0.7735(3) 0.7022(2)
H26_4 H 0.7715 0.7767 0.6793
C55_4 C 0.7689(3) 0.7434(3) 0.7316(2)
C58_4 C 0.7037(3) 0.7149(3) 0.72648(19)
C61_4 C 0.8057(3) 0.7387(3) 0.7655(2)
H29_4 H 0.7877 0.7182 0.7855
C63_4 C 0.8691(3) 0.9854(3) 0.9805(2)
C64_4 C 0.8691(3) 0.7646(3) 0.7695(2)
H31_4 H 0.8938 0.9889 0.9577
H32_4 H 0.8938 0.7611 0.7923
C4_5 C 0.0673(3) 0.4227(2) 0.00661(17)
H2_5 H 0.0430 0.4420 0.0252
C5_5 C 0.1317(3) 0.3998(2) 0.01551(18)
H3_5 H 0.1504 0.4042 0.0399
C9_5 C 0.2872(3) 0.3220(3) 0.00352(18)
C10_5 C 0.3537(3) 0.2950(2) 0.0090(2)
C11_5 C 0.3902(3) 0.2991(3) 0.0435(2)
H5_5 H 0.3714 0.3191 0.0635
C12_5 C 0.4539(3) 0.2735(3) 0.0478(2)
H6_5 H 0.4785 0.2767 0.0707
C13_5 C 0.4811(3) 0.2434(3) 0.0184(2)
C14_3 C 0.5463(3) 0.2149(3) 0.02352(19)
C1_7 C 0.0451(2) 0.38105(17) 0.90523(13)
C2_7 C 0.0750(2) 0.38862(18) 0.94333(15)
C3_7 C 0.0389(2) 0.4173(2) 0.97080(15)
C6_7 C 0.1681(3) 0.3708(2) 0.98864(16)
C7_7 C 0.1397(2) 0.36528(19) 0.95208(15)
H4_7 H 0.1640 0.3460 0.9335
C8_7 C 0.2337(3) 0.3447(2) 0.99757(17)
C15_7 C 0.4443(3) 0.2387(3) 0.9845(2)
H7_7 H 0.4623 0.2182 0.9645
C16_7 C 0.3809(3) 0.2646(3) 0.9805(2)
H8_7 H 0.3562 0.2611 0.9577
O1_7 O 0.0896(2) 0.3750 0.8750
C17_7 C 0.0451(2) 0.36895(17) 0.84477(13)
C20_7 C 0.0750(2) 0.36138(18) 0.80667(15)
C23_7 C 0.0389(2) 0.3327(2) 0.77920(15)
C26_7 C 0.0673(3) 0.3273(2) 0.74339(17)
H12_7 H 0.0430 0.3080 0.7248
C29_7 C 0.1317(3) 0.3502(2) 0.73449(18)
H15_7 H 0.1504 0.3458 0.7101
C32_7 C 0.1681(3) 0.3792(2) 0.76136(16)
C35_7 C 0.1397(2) 0.38472(19) 0.79792(15)
H18_7 H 0.1640 0.4040 0.8165
C38_7 C 0.2337(3) 0.4053(2) 0.75243(17)
C41_7 C 0.2872(3) 0.4280(3) 0.74648(18)
C44_7 C 0.3537(3) 0.4550(2) 0.7410(2)
C47_7 C 0.3902(3) 0.4509(3) 0.7065(2)
H21_7 H 0.3714 0.4309 0.6865
C50_7 C 0.4539(3) 0.4765(3) 0.7022(2)
H24_7 H 0.4785 0.4733 0.6793
C53_5 C 0.4811(3) 0.5066(3) 0.7316(2)
C56_3 C 0.5463(3) 0.5351(3) 0.72648(19)
C59_5 C 0.4443(3) 0.5113(3) 0.7655(2)
H27_5 H 0.4623 0.5318 0.7855
C62_7 C 0.3809(3) 0.4854(3) 0.7695(2)
H30_7 H 0.3562 0.4889 0.7923
C53_6 C 0.4811(3) 0.0066(3) 0.2316(2)
C56_4 C 0.5463(3) 0.0351(3) 0.22648(19)
C59_6 C 0.4443(3) 0.0113(3) 0.2655(2)
H27_6 H 0.4623 0.0318 0.2855
C1_8 C 0.0451(2) 0.88105(17) 0.40523(13)
C2_8 C 0.0750(2) 0.88862(18) 0.44333(15)
C3_8 C 0.0389(2) 0.9173(2) 0.47080(15)
C4_6 C 0.0673(3) 0.9227(2) 0.50661(17)
H2_6 H 0.0430 0.9420 0.5252
C5_6 C 0.1317(3) 0.8998(2) 0.51551(18)
H3_6 H 0.1504 0.9042 0.5399
C6_8 C 0.1681(3) 0.8708(2) 0.48864(16)
C7_8 C 0.1397(2) 0.86528(19) 0.45208(15)
H4_8 H 0.1640 0.8460 0.4335
C8_8 C 0.2337(3) 0.8447(2) 0.49757(17)
C9_6 C 0.2872(3) 0.8220(3) 0.50352(18)
C10_6 C 0.3537(3) 0.7950(2) 0.5090(2)
C11_6 C 0.3902(3) 0.7991(3) 0.5435(2)
H5_6 H 0.3714 0.8191 0.5635
C12_6 C 0.4539(3) 0.7735(3) 0.5478(2)
H6_6 H 0.4785 0.7767 0.5707
C13_6 C 0.4811(3) 0.7434(3) 0.5184(2)
C14_4 C 0.5463(3) 0.7149(3) 0.52352(19)
C15_8 C 0.4443(3) 0.7387(3) 0.4845(2)
H7_8 H 0.4623 0.7182 0.4645
C16_8 C 0.3809(3) 0.7646(3) 0.4805(2)
H8_8 H 0.3562 0.7611 0.4577
O1_8 O 0.0896(2) 0.8750 0.3750
C17_8 C 0.0451(2) 0.86895(17) 0.34477(13)
C20_8 C 0.0750(2) 0.86138(18) 0.30667(15)
C23_8 C 0.0389(2) 0.8327(2) 0.27920(15)
C26_8 C 0.0673(3) 0.8273(2) 0.24339(17)
H12_8 H 0.0430 0.8080 0.2248
C29_8 C 0.1317(3) 0.8502(2) 0.23449(18)
H15_8 H 0.1504 0.8458 0.2101
C32_8 C 0.1681(3) 0.8792(2) 0.26136(16)
C35_8 C 0.1397(2) 0.88472(19) 0.29792(15)
H18_8 H 0.1640 0.9040 0.3165
C38_8 C 0.2337(3) 0.9053(2) 0.25243(17)
C41_8 C 0.2872(3) 0.9280(3) 0.24648(18)
C44_8 C 0.3537(3) 0.9550(2) 0.2410(2)
C47_8 C 0.3902(3) 0.9509(3) 0.2065(2)
H21_8 H 0.3714 0.9309 0.1865
C50_8 C 0.4539(3) 0.9765(3) 0.2022(2)
H24_8 H 0.4785 0.9733 0.1793
C62_8 C 0.3809(3) 0.9854(3) 0.2695(2)
H30_8 H 0.3562 0.9889 0.2923
N2_3 N 0.9032(3) 0.8080(2) 0.47246(17)
C14_5 C 0.9537(3) 0.7851(3) 0.47648(19)
Ag3 Ag 0.8750 0.8750 0.426485(15)
Ag4 Ag 0.8750 0.3750 0.823515(15)
N6_3 N 0.9032(3) 0.4420(2) 0.77754(17)
C56_5 C 0.9537(3) 0.4649(3) 0.77352(19)
N2_4 N 0.9032(3) 0.3080(2) 0.97246(17)
C14_6 C 0.9537(3) 0.2851(3) 0.97648(19)
Ag3_2 Ag 0.8750 0.3750 0.926485(15)
Ag4_2 Ag 0.8750 0.8750 0.323515(15)
N6_4 N 0.9032(3) 0.9420(2) 0.27754(17)
C56_6 C 0.9537(3) 0.9649(3) 0.27352(19)
Ag1_3 Ag 0.1250 0.6250 0.073515(15)
N1_5 N 0.01974(17) 0.62142(15) 0.10512(10)
H1_5 H 0.0043 0.5671 0.0349
Ag2_3 Ag 0.1250 0.6250 0.176485(15)
N3_5 N 0.01974(17) 0.62858(15) 0.14488(10)
N4_5 N 0.23026(17) 0.62858(15) 0.10512(10)
N5_5 N 0.23026(17) 0.62142(15) 0.14488(10)
N8_3 N 0.8468(3) 0.8080(2) 0.27754(17)
N9_3 N 0.0968(3) 0.6920(2) 0.02754(17)
N10_3 N 0.1532(3) 0.5580(2) 0.02754(17)
N11_3 N 0.1532(3) 0.6920(2) 0.22246(17)
N12_3 N 0.0968(3) 0.5580(2) 0.22246(17)
C18_5 C 0.2951(2) 0.63105(17) 0.09477(13)
C19_5 C 0.2951(2) 0.61895(17) 0.15523(13)
C21_5 C 0.3250(2) 0.63862(18) 0.05667(15)
C22_5 C 0.3250(2) 0.61138(18) 0.19333(15)
C24_5 C 0.2889(2) 0.6673(2) 0.02920(15)
C25_5 C 0.2889(2) 0.5827(2) 0.22080(15)
H9_5 H 0.0043 0.6829 0.2151
H10_5 H 0.2457 0.6829 0.0349
H11_5 H 0.2457 0.5671 0.2151
C28_5 C 0.3173(3) 0.5773(2) 0.25661(17)
H14_5 H 0.2930 0.5580 0.2752
C31_5 C 0.3817(3) 0.6002(2) 0.26551(18)
H17_5 H 0.4004 0.5958 0.2899
C33_5 C 0.4181(3) 0.6208(2) 0.01136(16)
C34_5 C 0.4181(3) 0.6292(2) 0.23864(16)
C36_5 C 0.3897(2) 0.61528(19) 0.04792(15)
C37_5 C 0.3897(2) 0.63472(19) 0.20208(15)
H19_5 H 0.4140 0.5960 0.0665
H20_5 H 0.4140 0.6540 0.1835
C39_5 C 0.4837(3) 0.5947(2) 0.00243(17)
C40_5 C 0.4837(3) 0.6553(2) 0.24757(17)
C43_5 C 0.5372(3) 0.6780(3) 0.25352(18)
C46_5 C 0.6037(3) 0.7050(2) 0.2590(2)
C49_5 C 0.6402(3) 0.7009(3) 0.2935(2)
H23_5 H 0.6214 0.6809 0.3135
C52_5 C 0.7039(3) 0.7265(3) 0.2978(2)
H26_5 H 0.7285 0.7233 0.3207
C55_5 C 0.7311(3) 0.7566(3) 0.2684(2)
C58_5 C 0.7963(3) 0.7851(3) 0.27352(19)
C60_3 C 0.6943(3) 0.4887(3) 0.0155(2)
C61_5 C 0.6943(3) 0.7613(3) 0.2345(2)
H28_3 H 0.7123 0.4682 0.0355
H29_5 H 0.7123 0.7818 0.2145
C63_5 C 0.6309(3) 0.5146(3) 0.0195(2)
C64_5 C 0.6309(3) 0.7354(3) 0.2305(2)
H31_5 H 0.6062 0.5111 0.0423
H32_5 H 0.6062 0.7389 0.2077
O2_5 O 0.3396(2) 0.6250 0.1250
N7_3 N 0.8468(3) 0.4420(2) 0.97246(17)
C27_3 C 0.3173(3) 0.6727(2) 0.99339(17)
H13_3 H 0.2930 0.6920 0.9748
C30_3 C 0.3817(3) 0.6498(2) 0.98449(18)
H16_3 H 0.4004 0.6542 0.9601
C42_3 C 0.5372(3) 0.5720(3) 0.99648(18)
C45_3 C 0.6037(3) 0.5450(2) 0.9910(2)
C48_3 C 0.6402(3) 0.5491(3) 0.9565(2)
H22_3 H 0.6214 0.5691 0.9365
C51_3 C 0.7039(3) 0.5235(3) 0.9522(2)
H25_3 H 0.7285 0.5267 0.9293
C54_5 C 0.7311(3) 0.4934(3) 0.9816(2)
C57_5 C 0.7963(3) 0.4649(3) 0.97648(19)
Ag1_4 Ag 0.1250 0.1250 0.573515(15)
N1_6 N 0.01974(17) 0.12142(15) 0.60512(10)
H1_6 H 0.0043 0.0671 0.5349
Ag2_4 Ag 0.1250 0.1250 0.676485(15)
N3_6 N 0.01974(17) 0.12858(15) 0.64488(10)
N4_6 N 0.23026(17) 0.12858(15) 0.60512(10)
N5_6 N 0.23026(17) 0.12142(15) 0.64488(10)
N8_4 N 0.8468(3) 0.3080(2) 0.77754(17)
N9_4 N 0.0968(3) 0.1920(2) 0.52754(17)
N10_4 N 0.1532(3) 0.0580(2) 0.52754(17)
N11_4 N 0.1532(3) 0.1920(2) 0.72246(17)
N12_4 N 0.0968(3) 0.0580(2) 0.72246(17)
C18_6 C 0.2951(2) 0.13105(17) 0.59477(13)
C19_6 C 0.2951(2) 0.11895(17) 0.65523(13)
C21_6 C 0.3250(2) 0.13862(18) 0.55667(15)
C22_6 C 0.3250(2) 0.11138(18) 0.69333(15)
C24_6 C 0.2889(2) 0.1673(2) 0.52920(15)
C25_6 C 0.2889(2) 0.0827(2) 0.72080(15)
H9_6 H 0.0043 0.1829 0.7151
H10_6 H 0.2457 0.1829 0.5349
H11_6 H 0.2457 0.0671 0.7151
C27_4 C 0.3173(3) 0.1727(2) 0.49339(17)
C28_6 C 0.3173(3) 0.0773(2) 0.75661(17)
H13_4 H 0.2930 0.1920 0.4748
H14_6 H 0.2930 0.0580 0.7752
C30_4 C 0.3817(3) 0.1498(2) 0.48449(18)
C31_6 C 0.3817(3) 0.1002(2) 0.76551(18)
H16_4 H 0.4004 0.1542 0.4601
H17_6 H 0.4004 0.0958 0.7899
C33_6 C 0.4181(3) 0.1208(2) 0.51136(16)
C34_6 C 0.4181(3) 0.1292(2) 0.73864(16)
C36_6 C 0.3897(2) 0.11528(19) 0.54792(15)
C37_6 C 0.3897(2) 0.13472(19) 0.70208(15)
H19_6 H 0.4140 0.0960 0.5665
H20_6 H 0.4140 0.1540 0.6835
C39_6 C 0.4837(3) 0.0947(2) 0.50243(17)
C40_6 C 0.4837(3) 0.1553(2) 0.74757(17)
C42_4 C 0.5372(3) 0.0720(3) 0.49648(18)
C43_6 C 0.5372(3) 0.1780(3) 0.75352(18)
C45_4 C 0.6037(3) 0.0450(2) 0.4910(2)
C46_6 C 0.6037(3) 0.2050(2) 0.7590(2)
C48_4 C 0.6402(3) 0.0491(3) 0.4565(2)
C49_6 C 0.6402(3) 0.2009(3) 0.7935(2)
H22_4 H 0.6214 0.0691 0.4365
H23_6 H 0.6214 0.1809 0.8135
C51_4 C 0.7039(3) 0.0235(3) 0.4522(2)
C52_6 C 0.7039(3) 0.2265(3) 0.7978(2)
H25_4 H 0.7285 0.0267 0.4293
H26_6 H 0.7285 0.2233 0.8207
C55_6 C 0.7311(3) 0.2566(3) 0.7684(2)
C58_6 C 0.7963(3) 0.2851(3) 0.77352(19)
C61_6 C 0.6943(3) 0.2613(3) 0.7345(2)
H29_6 H 0.7123 0.2818 0.7145
C63_6 C 0.6309(3) 0.0146(3) 0.5195(2)
C64_6 C 0.6309(3) 0.2354(3) 0.7305(2)
H31_6 H 0.6062 0.0111 0.5423
H32_6 H 0.6062 0.2389 0.7077
O2_6 O 0.3396(2) 0.1250 0.6250
N7_4 N 0.8468(3) 0.9420(2) 0.47246(17)
C54_6 C 0.7311(3) 0.9934(3) 0.4816(2)
C57_6 C 0.7963(3) 0.9649(3) 0.47648(19)
C60_4 C 0.6943(3) 0.9887(3) 0.5155(2)
H28_4 H 0.7123 0.9682 0.5355
C14_7 C 0.0463(3) 0.2149(3) 0.52352(19)
C56_7 C 0.0463(3) 0.5351(3) 0.22648(19)
C56_8 C 0.0463(3) 0.0351(3) 0.72648(19)
C14_8 C 0.0463(3) 0.7149(3) 0.02352(19)
C27_5 C 0.6827(3) 0.3273(2) 0.00661(17)
H13_5 H 0.7070 0.3080 0.0252
C30_5 C 0.6183(3) 0.3502(2) 0.01551(18)
H16_5 H 0.5996 0.3458 0.0399
C42_5 C 0.4628(3) 0.4280(3) 0.00352(18)
C45_5 C 0.3963(3) 0.4550(2) 0.0090(2)
C48_5 C 0.3598(3) 0.4509(3) 0.0435(2)
H22_5 H 0.3786 0.4309 0.0635
C51_5 C 0.2961(3) 0.4765(3) 0.0478(2)
H25_5 H 0.2715 0.4733 0.0707
C54_7 C 0.2689(3) 0.5066(3) 0.0184(2)
C57_7 C 0.2037(3) 0.5351(3) 0.02352(19)
N1_7 N 0.98026(17) 0.37858(15) 0.89488(10)
H1_7 H 0.9957 0.4329 0.9651
N3_7 N 0.98026(17) 0.37142(15) 0.85512(10)
N4_7 N 0.76974(17) 0.37142(15) 0.89488(10)
N5_7 N 0.76974(17) 0.37858(15) 0.85512(10)
C18_7 C 0.7049(2) 0.36895(17) 0.90523(13)
C19_7 C 0.7049(2) 0.38105(17) 0.84477(13)
C21_7 C 0.6750(2) 0.36138(18) 0.94333(15)
C22_7 C 0.6750(2) 0.38862(18) 0.80667(15)
C24_7 C 0.7111(2) 0.3327(2) 0.97080(15)
C25_7 C 0.7111(2) 0.4173(2) 0.77920(15)
H9_7 H 0.9957 0.3171 0.7849
H10_7 H 0.7543 0.3171 0.9651
H11_7 H 0.7543 0.4329 0.7849
C28_7 C 0.6827(3) 0.4227(2) 0.74339(17)
H14_7 H 0.7070 0.4420 0.7248
C31_7 C 0.6183(3) 0.3998(2) 0.73449(18)
H17_7 H 0.5996 0.4042 0.7101
C33_7 C 0.5819(3) 0.3792(2) 0.98864(16)
C34_7 C 0.5819(3) 0.3708(2) 0.76136(16)
C36_7 C 0.6103(2) 0.38472(19) 0.95208(15)
C37_7 C 0.6103(2) 0.36528(19) 0.79792(15)
H19_7 H 0.5860 0.4040 0.9335
H20_7 H 0.5860 0.3460 0.8165
C39_7 C 0.5163(3) 0.4053(2) 0.99757(17)
C40_7 C 0.5163(3) 0.3447(2) 0.75243(17)
C43_7 C 0.4628(3) 0.3220(3) 0.74648(18)
C46_7 C 0.3963(3) 0.2950(2) 0.7410(2)
C49_7 C 0.3598(3) 0.2991(3) 0.7065(2)
H23_7 H 0.3786 0.3191 0.6865
C52_7 C 0.2961(3) 0.2735(3) 0.7022(2)
H26_7 H 0.2715 0.2767 0.6793
C55_7 C 0.2689(3) 0.2434(3) 0.7316(2)
C58_7 C 0.2037(3) 0.2149(3) 0.72648(19)
C60_5 C 0.3057(3) 0.5113(3) 0.9845(2)
C61_7 C 0.3057(3) 0.2387(3) 0.7655(2)
H28_5 H 0.2877 0.5318 0.9645
H29_7 H 0.2877 0.2182 0.7855
C63_7 C 0.3691(3) 0.4854(3) 0.9805(2)
C64_7 C 0.3691(3) 0.2646(3) 0.7695(2)
H31_7 H 0.3938 0.4889 0.9577
H32_7 H 0.3938 0.2611 0.7923
O2_7 O 0.6604(2) 0.3750 0.8750
C54_8 C 0.2689(3) 0.0066(3) 0.5184(2)
C57_8 C 0.2037(3) 0.0351(3) 0.52352(19)
C60_6 C 0.3057(3) 0.0113(3) 0.4845(2)
H28_6 H 0.2877 0.0318 0.4645
N1_8 N 0.98026(17) 0.87858(15) 0.39488(10)
H1_8 H 0.9957 0.9329 0.4651
N3_8 N 0.98026(17) 0.87142(15) 0.35512(10)
N4_8 N 0.76974(17) 0.87142(15) 0.39488(10)
N5_8 N 0.76974(17) 0.87858(15) 0.35512(10)
C18_8 C 0.7049(2) 0.86895(17) 0.40523(13)
C19_8 C 0.7049(2) 0.88105(17) 0.34477(13)
C21_8 C 0.6750(2) 0.86138(18) 0.44333(15)
C22_8 C 0.6750(2) 0.88862(18) 0.30667(15)
C24_8 C 0.7111(2) 0.8327(2) 0.47080(15)
C25_8 C 0.7111(2) 0.9173(2) 0.27920(15)
H9_8 H 0.9957 0.8171 0.2849
H10_8 H 0.7543 0.8171 0.4651
H11_8 H 0.7543 0.9329 0.2849
C27_6 C 0.6827(3) 0.8273(2) 0.50661(17)
C28_8 C 0.6827(3) 0.9227(2) 0.24339(17)
H13_6 H 0.7070 0.8080 0.5252
H14_8 H 0.7070 0.9420 0.2248
C30_6 C 0.6183(3) 0.8502(2) 0.51551(18)
C31_8 C 0.6183(3) 0.8998(2) 0.23449(18)
H16_6 H 0.5996 0.8458 0.5399
H17_8 H 0.5996 0.9042 0.2101
C33_8 C 0.5819(3) 0.8792(2) 0.48864(16)
C34_8 C 0.5819(3) 0.8708(2) 0.26136(16)
C36_8 C 0.6103(2) 0.88472(19) 0.45208(15)
C37_8 C 0.6103(2) 0.86528(19) 0.29792(15)
H19_8 H 0.5860 0.9040 0.4335
H20_8 H 0.5860 0.8460 0.3165
C39_8 C 0.5163(3) 0.9053(2) 0.49757(17)
C40_8 C 0.5163(3) 0.8447(2) 0.25243(17)
C42_6 C 0.4628(3) 0.9280(3) 0.50352(18)
C43_8 C 0.4628(3) 0.8220(3) 0.24648(18)
C45_6 C 0.3963(3) 0.9550(2) 0.5090(2)
C46_8 C 0.3963(3) 0.7950(2) 0.2410(2)
C48_6 C 0.3598(3) 0.9509(3) 0.5435(2)
C49_8 C 0.3598(3) 0.7991(3) 0.2065(2)
H22_6 H 0.3786 0.9309 0.5635
H23_8 H 0.3786 0.8191 0.1865
C51_6 C 0.2961(3) 0.9765(3) 0.5478(2)
C52_8 C 0.2961(3) 0.7735(3) 0.2022(2)
H25_6 H 0.2715 0.9733 0.5707
H26_8 H 0.2715 0.7767 0.1793
C55_8 C 0.2689(3) 0.7434(3) 0.2316(2)
C58_8 C 0.2037(3) 0.7149(3) 0.22648(19)
C61_8 C 0.3057(3) 0.7387(3) 0.2655(2)
H29_8 H 0.2877 0.7182 0.2855
C63_8 C 0.3691(3) 0.9854(3) 0.4805(2)
C64_8 C 0.3691(3) 0.7646(3) 0.2695(2)
H31_8 H 0.3938 0.9889 0.4577
H32_8 H 0.3938 0.7611 0.2923
O2_8 O 0.6604(2) 0.8750 0.3750
C42_7 C 0.0372(3) 0.0720(3) 0.99648(18)
C45_7 C 0.1037(3) 0.0450(2) 0.9910(2)
C48_7 C 0.1402(3) 0.0491(3) 0.9565(2)
H22_7 H 0.1214 0.0691 0.9365
C51_7 C 0.2039(3) 0.0235(3) 0.9522(2)
H25_7 H 0.2285 0.0267 0.9293
C60_7 C 0.1943(3) 0.9887(3) 0.0155(2)
H28_7 H 0.2123 0.9682 0.0355
C4_7 C 0.4327(3) 0.0773(2) 0.99339(17)
H2_7 H 0.4570 0.0580 0.9748
C5_7 C 0.3683(3) 0.1002(2) 0.98449(18)
H3_7 H 0.3496 0.0958 0.9601
C9_7 C 0.2128(3) 0.1780(3) 0.99648(18)
C10_7 C 0.1463(3) 0.2050(2) 0.9910(2)
C11_7 C 0.1098(3) 0.2009(3) 0.9565(2)
H5_7 H 0.1286 0.1809 0.9365
C12_7 C 0.0461(3) 0.2265(3) 0.9522(2)
H6_7 H 0.0215 0.2233 0.9293
C13_7 C 0.0189(3) 0.2566(3) 0.9816(2)
C27_7 C 0.8173(3) 0.1727(2) 0.99339(17)
H13_7 H 0.7930 0.1920 0.9748
C30_7 C 0.8817(3) 0.1498(2) 0.98449(18)
H16_7 H 0.9004 0.1542 0.9601
C53_7 C 0.0189(3) 0.9934(3) 0.2684(2)
C59_7 C 0.0557(3) 0.9887(3) 0.2345(2)
H27_7 H 0.0377 0.9682 0.2145
C53_8 C 0.9811(3) 0.0066(3) 0.7316(2)
C59_8 C 0.9443(3) 0.0113(3) 0.7655(2)
H27_8 H 0.9623 0.0318 0.7855
C4_8 C 0.5673(3) 0.9227(2) 0.00661(17)
H2_8 H 0.5430 0.9420 0.0252
C5_8 C 0.6317(3) 0.8998(2) 0.01551(18)
H3_8 H 0.6504 0.9042 0.0399
C9_8 C 0.7872(3) 0.8220(3) 0.00352(18)
C10_8 C 0.8537(3) 0.7950(2) 0.0090(2)
C11_8 C 0.8902(3) 0.7991(3) 0.0435(2)
H5_8 H 0.8714 0.8191 0.0635
C12_8 C 0.9539(3) 0.7735(3) 0.0478(2)
H6_8 H 0.9785 0.7767 0.0707
C13_8 C 0.9811(3) 0.7434(3) 0.0184(2)
C27_8 C 0.1827(3) 0.8273(2) 0.00661(17)
H13_8 H 0.2070 0.8080 0.0252
C30_8 C 0.1183(3) 0.8502(2) 0.01551(18)
H16_8 H 0.0996 0.8458 0.0399
C60_8 C 0.8057(3) 0.0113(3) 0.9845(2)
H28_8 H 0.7877 0.0318 0.9645
C42_8 C 0.9628(3) 0.9280(3) 0.00352(18)
C45_8 C 0.8963(3) 0.9550(2) 0.0090(2)
C48_8 C 0.8598(3) 0.9509(3) 0.0435(2)
H22_8 H 0.8786 0.9309 0.0635
C51_8 C 0.7961(3) 0.9765(3) 0.0478(2)
H25_8 H 0.7715 0.9733 0.0707
B1 B 0.6250 0.7686(9) 0.6250
F1 F 0.5514(7) 0.7587(5) 0.6439(5)
F2 F 0.6477(4) 0.7985(3) 0.65180(18)
F3 F 0.6986(7) 0.7587(5) 0.6061(5)
F4 F 0.6023(4) 0.7985(3) 0.59820(18)
B1_2 B 0.6250 0.2686(9) 0.1250
F1_2 F 0.5514(7) 0.2587(5) 0.1439(5)
F2_2 F 0.6477(4) 0.2985(3) 0.15180(18)
F3_2 F 0.6986(7) 0.2587(5) 0.1061(5)
F4_2 F 0.6023(4) 0.2985(3) 0.09820(18)
B1_3 B 0.6250 0.4814(9) 0.6250
F1_3 F 0.5514(7) 0.4913(5) 0.6061(5)
F2_3 F 0.6477(4) 0.4515(3) 0.59820(18)
F3_3 F 0.6986(7) 0.4913(5) 0.6439(5)
F4_3 F 0.6023(4) 0.4515(3) 0.65180(18)
B1_4 B 0.1250 0.7686(9) 0.1250
F1_4 F 0.0514(7) 0.7587(5) 0.1439(5)
F2_4 F 0.1477(4) 0.7985(3) 0.15180(18)
F3_4 F 0.1986(7) 0.7587(5) 0.1061(5)
F4_4 F 0.1023(4) 0.7985(3) 0.09820(18)
B1_5 B 0.1250 0.2686(9) 0.6250
F1_5 F 0.0514(7) 0.2587(5) 0.6439(5)
F2_5 F 0.1477(4) 0.2985(3) 0.65180(18)
F3_5 F 0.1986(7) 0.2587(5) 0.6061(5)
F4_5 F 0.1023(4) 0.2985(3) 0.59820(18)
B1_6 B 0.1250 0.9814(9) 0.6250
F1_6 F 0.1986(7) 0.9913(5) 0.6439(5)
F2_6 F 0.1023(4) 0.9515(3) 0.65180(18)
F3_6 F 0.0514(7) 0.9913(5) 0.6061(5)
F4_6 F 0.1477(4) 0.9515(3) 0.59820(18)
B1_7 B 0.6250 0.9814(9) 0.1250
F1_7 F 0.5514(7) 0.9913(5) 0.1061(5)
F2_7 F 0.6477(4) 0.9515(3) 0.09820(18)
F3_7 F 0.6986(7) 0.9913(5) 0.1439(5)
F4_7 F 0.6023(4) 0.9515(3) 0.15180(18)
B1_8 B 0.1250 0.4814(9) 0.1250
F1_8 F 0.1986(7) 0.4913(5) 0.1439(5)
F2_8 F 0.1023(4) 0.4515(3) 0.15180(18)
F3_8 F 0.0514(7) 0.4913(5) 0.1061(5)
F4_8 F 0.1477(4) 0.4515(3) 0.09820(18)
B1_9 B 0.3750 0.2314(9) 0.3750
F1_9 F 0.4486(7) 0.2413(5) 0.3561(5)
F2_9 F 0.3523(4) 0.2015(3) 0.34820(18)
F3_9 F 0.3014(7) 0.2413(5) 0.3939(5)
F4_9 F 0.3977(4) 0.2015(3) 0.40180(18)
B1_10 B 0.3750 0.7314(9) 0.8750
F1_10 F 0.4486(7) 0.7413(5) 0.8561(5)
F2_10 F 0.3523(4) 0.7015(3) 0.84820(18)
F3_10 F 0.3014(7) 0.7413(5) 0.8939(5)
F4_10 F 0.3977(4) 0.7015(3) 0.90180(18)
B1_11 B 0.3750 0.5186(9) 0.3750
F1_11 F 0.4486(7) 0.5087(5) 0.3939(5)
F2_11 F 0.3523(4) 0.5485(3) 0.40180(18)
F3_11 F 0.3014(7) 0.5087(5) 0.3561(5)
F4_11 F 0.3977(4) 0.5485(3) 0.34820(18)
B1_12 B 0.8750 0.2314(9) 0.8750
F1_12 F 0.9486(7) 0.2413(5) 0.8561(5)
F2_12 F 0.8523(4) 0.2015(3) 0.84820(18)
F3_12 F 0.8014(7) 0.2413(5) 0.8939(5)
F4_12 F 0.8977(4) 0.2015(3) 0.90180(18)
B1_13 B 0.8750 0.7314(9) 0.3750
F1_13 F 0.9486(7) 0.7413(5) 0.3561(5)
F2_13 F 0.8523(4) 0.7015(3) 0.34820(18)
F3_13 F 0.8014(7) 0.7413(5) 0.3939(5)
F4_13 F 0.8977(4) 0.7015(3) 0.40180(18)
B1_14 B 0.8750 0.0186(9) 0.3750
F1_14 F 0.8014(7) 0.0087(5) 0.3561(5)
F2_14 F 0.8977(4) 0.0485(3) 0.34820(18)
F3_14 F 0.9486(7) 0.0087(5) 0.3939(5)
F4_14 F 0.8523(4) 0.0485(3) 0.40180(18)
B1_15 B 0.3750 0.0186(9) 0.8750
F1_15 F 0.4486(7) 0.0087(5) 0.8939(5)
F2_15 F 0.3523(4) 0.0485(3) 0.90180(18)
F3_15 F 0.3014(7) 0.0087(5) 0.8561(5)
F4_15 F 0.3977(4) 0.0485(3) 0.84820(18)
B1_16 B 0.8750 0.5186(9) 0.8750
F1_16 F 0.8014(7) 0.5087(5) 0.8561(5)
F2_16 F 0.8977(4) 0.5485(3) 0.84820(18)
F3_16 F 0.9486(7) 0.5087(5) 0.8939(5)
F4_16 F 0.8523(4) 0.5485(3) 0.90180(18)
loop_
_geom_bond_atom_site_label_1
_geom_bond_atom_site_label_2
_geom_bond_site_symmetry_1
_geom_bond_site_symmetry_2
Ag5 N7 1_555 1_555
Ag6 N8 1_555 1_555
N7 C57 1_555 1_555
N8 C58 1_555 1_555
C45 C42 1_555 1_555
C46 C43 1_555 1_555
C48 C45 1_555 1_555
C49 C46 1_555 1_555
H22 C48 1_555 1_555
H23 C49 1_555 1_555
C51 C48 1_555 1_555
C52 C49 1_555 1_555
H25 C51 1_555 1_555
H26 C52 1_555 1_555
C54 C51 1_555 1_555
C55 C52 1_555 1_555
C57 C54 1_555 1_555
C58 C55 1_555 1_555
C60 C54 1_555 1_555
C61 C55 1_555 1_555
H28 C60 1_555 1_555
H29 C61 1_555 1_555
C63 C45 1_555 1_555
C64 C46 1_555 1_555
H31 C63 1_555 1_555
H32 C64 1_555 1_555
C60 C63 1_555 1_555
C61 C64 1_555 1_555
Ag6_2 N8_2 1_555 1_555
N8_2 C58_2 1_555 1_555
C46_2 C43_2 1_555 1_555
C49_2 C46_2 1_555 1_555
H23_2 C49_2 1_555 1_555
C52_2 C49_2 1_555 1_555
H26_2 C52_2 1_555 1_555
C55_2 C52_2 1_555 1_555
C58_2 C55_2 1_555 1_555
C61_2 C55_2 1_555 1_555
H29_2 C61_2 1_555 1_555
C64_2 C46_2 1_555 1_555
H31_2 C63_2 1_555 1_555
H32_2 C64_2 1_555 1_555
C61_2 C64_2 1_555 1_555
Ag5_2 N7_2 1_555 1_555
N7_2 C57_2 1_555 1_555
C57_2 C54_2 1_555 1_555
C1 C2 1_555 1_555
C2 C3 1_555 1_555
C7 C2 1_555 1_555
H4 C7 1_555 1_555
C8 C6 1_555 1_555
H7 C15 1_555 1_555
H8 C16 1_555 1_555
O1 C1 1_555 1_555
Ag6_2 N6 1_555 1_555
N6 C56 1_555 1_555
C17 O1 1_555 1_555
C20 C17 1_555 1_555
C23 C20 1_555 1_555
C26 C23 1_555 1_555
H12 C26 1_555 1_555
C29 C26 1_555 1_555
H15 C29 1_555 1_555
C32 C29 1_555 1_555
C35 C20 1_555 1_555
H18 C35 1_555 1_555
C38 C32 1_555 1_555
C41 C38 1_555 1_555
C44 C41 1_555 1_555
C47 C44 1_555 1_555
H21 C47 1_555 1_555
C50 C47 1_555 1_555
H24 C50 1_555 1_555
C53 C50 1_555 1_555
C56 C53 1_555 1_555
C59 C53 1_555 1_555
H27 C59 1_555 1_555
C62 C44 1_555 1_555
H30 C62 1_555 1_555
C6 C7 1_555 1_555
C15 C16 1_555 1_555
C32 C35 1_555 1_555
C59 C62 1_555 1_555
N2 C14 1_555 1_555
H2 C4 1_555 1_555
C5 C4 1_555 1_555
H3 C5 1_555 1_555
C10 C9 1_555 1_555
C11 C10 1_555 1_555
H5 C11 1_555 1_555
C12 C11 1_555 1_555
H6 C12 1_555 1_555
C13 C12 1_555 1_555
C14 C13 1_555 1_555
Ag5_2 N2 1_555 1_555
N2_2 C14_2 1_555 1_555
C1_2 C2_2 1_555 1_555
C2_2 C3_2 1_555 1_555
C4_2 C3_2 1_555 1_555
H2_2 C4_2 1_555 1_555
C5_2 C4_2 1_555 1_555
H3_2 C5_2 1_555 1_555
C6_2 C5_2 1_555 1_555
C7_2 C2_2 1_555 1_555
H4_2 C7_2 1_555 1_555
C8_2 C6_2 1_555 1_555
C9_2 C8_2 1_555 1_555
C10_2 C9_2 1_555 1_555
C11_2 C10_2 1_555 1_555
H5_2 C11_2 1_555 1_555
C12_2 C11_2 1_555 1_555
H6_2 C12_2 1_555 1_555
C13_2 C12_2 1_555 1_555
C14_2 C13_2 1_555 1_555
C15_2 C13_2 1_555 1_555
H7_2 C15_2 1_555 1_555
C16_2 C10_2 1_555 1_555
H8_2 C16_2 1_555 1_555
O1_2 C1_2 1_555 1_555
Ag5 N2_2 1_555 1_555
C17_2 O1_2 1_555 1_555
C20_2 C17_2 1_555 1_555
C23_2 C20_2 1_555 1_555
C26_2 C23_2 1_555 1_555
H12_2 C26_2 1_555 1_555
C29_2 C26_2 1_555 1_555
H15_2 C29_2 1_555 1_555
C32_2 C29_2 1_555 1_555
C35_2 C20_2 1_555 1_555
H18_2 C35_2 1_555 1_555
C38_2 C32_2 1_555 1_555
C41_2 C38_2 1_555 1_555
C44_2 C41_2 1_555 1_555
C47_2 C44_2 1_555 1_555
H21_2 C47_2 1_555 1_555
C50_2 C47_2 1_555 1_555
H24_2 C50_2 1_555 1_555
C62_2 C44_2 1_555 1_555
H30_2 C62_2 1_555 1_555
C6_2 C7_2 1_555 1_555
C15_2 C16_2 1_555 1_555
C32_2 C35_2 1_555 1_555
Ag6 N6_2 1_555 1_555
N6_2 C56_2 1_555 1_555
C56_2 C53_2 1_555 1_555
C59_2 C53_2 1_555 1_555
H27_2 C59_2 1_555 1_555
Ag5 N1 1_555 1_555
N1 C1_3 1_555 1_555
C1_3 C2_3 1_555 1_555
C2_3 C3_3 1_555 1_555
C3_3 H1 1_555 1_555
C4_3 C3_3 1_555 1_555
H2_3 C4_3 1_555 1_555
C5_3 C4_3 1_555 1_555
H3_3 C5_3 1_555 1_555
C6_3 C5_3 1_555 1_555
C7_3 C2_3 1_555 1_555
H4_3 C7_3 1_555 1_555
C8_3 C6_3 1_555 1_555
C9_3 C8_3 1_555 1_555
C10_3 C9_3 1_555 1_555
C11_3 C10_3 1_555 1_555
H5_3 C11_3 1_555 1_555
C12_3 C11_3 1_555 1_555
H6_3 C12_3 1_555 1_555
C13_3 C12_3 1_555 1_555
C15_3 C13_3 1_555 1_555
H7_3 C15_3 1_555 1_555
C16_3 C10_3 1_555 1_555
H8_3 C16_3 1_555 1_555
O1_3 C1_3 1_555 1_555
Ag6_2 N3 1_555 1_555
N3 N1 1_555 1_555
N4 Ag5 1_555 1_555
N5 Ag6_2 1_555 1_555
C17_3 O1_3 1_555 1_555
C18 N4 1_555 1_555
C19 N5 1_555 1_555
C20_3 C17_3 1_555 1_555
C21 C18 1_555 1_555
C22 C19 1_555 1_555
C23_3 C20_3 1_555 1_555
C24 C21 1_555 1_555
C25 C22 1_555 1_555
H9 C23_3 1_555 1_555
H10 C24 1_555 1_555
H11 C25 1_555 1_555
C26_3 C23_3 1_555 1_555
C27 C24 1_555 1_555
C28 C25 1_555 1_555
H12_3 C26_3 1_555 1_555
H13 C27 1_555 1_555
H14 C28 1_555 1_555
C29_3 C26_3 1_555 1_555
C30 C27 1_555 1_555
C31 C28 1_555 1_555
H15_3 C29_3 1_555 1_555
H16 C30 1_555 1_555
H17 C31 1_555 1_555
C32_3 C29_3 1_555 1_555
C33 C30 1_555 1_555
C34 C31 1_555 1_555
C35_3 C20_3 1_555 1_555
C36 C21 1_555 1_555
C37 C22 1_555 1_555
H18_3 C35_3 1_555 1_555
H19 C36 1_555 1_555
H20 C37 1_555 1_555
C38_3 C32_3 1_555 1_555
C39 C33 1_555 1_555
C40 C34 1_555 1_555
C41_3 C38_3 1_555 1_555
C44_3 C41_3 1_555 1_555
C47_3 C44_3 1_555 1_555
H21_3 C47_3 1_555 1_555
C50_3 C47_3 1_555 1_555
H24_3 C50_3 1_555 1_555
C53_3 C50_3 1_555 1_555
C59_3 C53_3 1_555 1_555
H27_3 C59_3 1_555 1_555
C62_3 C44_3 1_555 1_555
H30_3 C62_3 1_555 1_555
O2 C18 1_555 1_555
C6_3 C7_3 1_555 1_555
C15_3 C16_3 1_555 1_555
N3 C17_3 1_555 1_555
N4 N5 1_555 1_555
C19 O2 1_555 1_555
C32_3 C35_3 1_555 1_555
C33 C36 1_555 1_555
C34 C37 1_555 1_555
C59_3 C62_3 1_555 1_555
Ag5_2 N1_2 1_555 1_555
N1_2 C1_4 1_555 1_555
C1_4 C2_4 1_555 1_555
C2_4 C3_4 1_555 1_555
C3_4 H1_2 1_555 1_555
C7_4 C2_4 1_555 1_555
H4_4 C7_4 1_555 1_555
C8_4 C6_4 1_555 1_555
H7_4 C15_4 1_555 1_555
H8_4 C16_4 1_555 1_555
O1_4 C1_4 1_555 1_555
Ag6 N3_2 1_555 1_555
N3_2 N1_2 1_555 1_555
N4_2 Ag5_2 1_555 1_555
N5_2 Ag6 1_555 1_555
C17_4 O1_4 1_555 1_555
C18_2 N4_2 1_555 1_555
C19_2 N5_2 1_555 1_555
C20_4 C17_4 1_555 1_555
C21_2 C18_2 1_555 1_555
C22_2 C19_2 1_555 1_555
C23_4 C20_4 1_555 1_555
C24_2 C21_2 1_555 1_555
C25_2 C22_2 1_555 1_555
H9_2 C23_4 1_555 1_555
H10_2 C24_2 1_555 1_555
H11_2 C25_2 1_555 1_555
C26_4 C23_4 1_555 1_555
C28_2 C25_2 1_555 1_555
H12_4 C26_4 1_555 1_555
H14_2 C28_2 1_555 1_555
C29_4 C26_4 1_555 1_555
C31_2 C28_2 1_555 1_555
H15_4 C29_4 1_555 1_555
H17_2 C31_2 1_555 1_555
C32_4 C29_4 1_555 1_555
C34_2 C31_2 1_555 1_555
C35_4 C20_4 1_555 1_555
C36_2 C21_2 1_555 1_555
C37_2 C22_2 1_555 1_555
H18_4 C35_4 1_555 1_555
H19_2 C36_2 1_555 1_555
H20_2 C37_2 1_555 1_555
C38_4 C32_4 1_555 1_555
C39_2 C33_2 1_555 1_555
C40_2 C34_2 1_555 1_555
C41_4 C38_4 1_555 1_555
C44_4 C41_4 1_555 1_555
C47_4 C44_4 1_555 1_555
H21_4 C47_4 1_555 1_555
C50_4 C47_4 1_555 1_555
H24_4 C50_4 1_555 1_555
C62_4 C44_4 1_555 1_555
H30_4 C62_4 1_555 1_555
O2_2 C18_2 1_555 1_555
C6_4 C7_4 1_555 1_555
C15_4 C16_4 1_555 1_555
N3_2 C17_4 1_555 1_555
N4_2 N5_2 1_555 1_555
C19_2 O2_2 1_555 1_555
C32_4 C35_4 1_555 1_555
C33_2 C36_2 1_555 1_555
C34_2 C37_2 1_555 1_555
Ag1 N1_3 1_555 1_555
N1_3 C1_5 1_555 1_555
C1_5 C2_5 1_555 1_555
C2_5 C3_5 1_555 1_555
C3_5 H1_3 1_555 1_555
C4_4 C3_5 1_555 1_555
H2_4 C4_4 1_555 1_555
C5_4 C4_4 1_555 1_555
H3_4 C5_4 1_555 1_555
C6_5 C5_4 1_555 1_555
C7_5 C2_5 1_555 1_555
H4_5 C7_5 1_555 1_555
C8_5 C6_5 1_555 1_555
C9_4 C8_5 1_555 1_555
C10_4 C9_4 1_555 1_555
C11_4 C10_4 1_555 1_555
H5_4 C11_4 1_555 1_555
C12_4 C11_4 1_555 1_555
H6_4 C12_4 1_555 1_555
C13_4 C12_4 1_555 1_555
C15_5 C13_4 1_555 1_555
H7_5 C15_5 1_555 1_555
C16_5 C10_4 1_555 1_555
H8_5 C16_5 1_555 1_555
O1_5 C1_5 1_555 1_555
Ag2 N3_3 1_555 1_555
N3_3 N1_3 1_555 1_555
N4_3 Ag1 1_555 1_555
N5_3 Ag2 1_555 1_555
N9 Ag1 1_555 1_555
N10 Ag1 1_555 1_555
N11 Ag2 1_555 1_555
N12 Ag2 1_555 1_555
C17_5 O1_5 1_555 1_555
C18_3 N4_3 1_555 1_555
C19_3 N5_3 1_555 1_555
C20_5 C17_5 1_555 1_555
C21_3 C18_3 1_555 1_555
C22_3 C19_3 1_555 1_555
C23_5 C20_5 1_555 1_555
C24_3 C21_3 1_555 1_555
C25_3 C22_3 1_555 1_555
H9_3 C23_5 1_555 1_555
H10_3 C24_3 1_555 1_555
H11_3 C25_3 1_555 1_555
C26_5 C23_5 1_555 1_555
C27_2 C24_3 1_555 1_555
C28_3 C25_3 1_555 1_555
H12_5 C26_5 1_555 1_555
H13_2 C27_2 1_555 1_555
H14_3 C28_3 1_555 1_555
C29_5 C26_5 1_555 1_555
C30_2 C27_2 1_555 1_555
C31_3 C28_3 1_555 1_555
H15_5 C29_5 1_555 1_555
H16_2 C30_2 1_555 1_555
H17_3 C31_3 1_555 1_555
C32_5 C29_5 1_555 1_555
C33_3 C30_2 1_555 1_555
C34_3 C31_3 1_555 1_555
C35_5 C20_5 1_555 1_555
C36_3 C21_3 1_555 1_555
C37_3 C22_3 1_555 1_555
H18_5 C35_5 1_555 1_555
H19_3 C36_3 1_555 1_555
H20_3 C37_3 1_555 1_555
C38_5 C32_5 1_555 1_555
C39_3 C33_3 1_555 1_555
C40_3 C34_3 1_555 1_555
C41_5 C38_5 1_555 1_555
C44_5 C41_5 1_555 1_555
C47_5 C44_5 1_555 1_555
H21_5 C47_5 1_555 1_555
C50_5 C47_5 1_555 1_555
H24_5 C50_5 1_555 1_555
C53_4 C50_5 1_555 1_555
C59_4 C53_4 1_555 1_555
H27_4 C59_4 1_555 1_555
C62_5 C44_5 1_555 1_555
H30_5 C62_5 1_555 1_555
O2_3 C18_3 1_555 1_555
C6_5 C7_5 1_555 1_555
C15_5 C16_5 1_555 1_555
N3_3 C17_5 1_555 1_555
N4_3 N5_3 1_555 1_555
C19_3 O2_3 1_555 1_555
C32_5 C35_5 1_555 1_555
C33_3 C36_3 1_555 1_555
C34_3 C37_3 1_555 1_555
C59_4 C62_5 1_555 1_555
Ag1_2 N1_4 1_555 1_555
N1_4 C1_6 1_555 1_555
C1_6 C2_6 1_555 1_555
C2_6 C3_6 1_555 1_555
C3_6 H1_4 1_555 1_555
C7_6 C2_6 1_555 1_555
H4_6 C7_6 1_555 1_555
C8_6 C6_6 1_555 1_555
H7_6 C15_6 1_555 1_555
H8_6 C16_6 1_555 1_555
O1_6 C1_6 1_555 1_555
Ag2_2 N3_4 1_555 1_555
N3_4 N1_4 1_555 1_555
N4_4 Ag1_2 1_555 1_555
N5_4 Ag2_2 1_555 1_555
N9_2 Ag1_2 1_555 1_555
N10_2 Ag1_2 1_555 1_555
N11_2 Ag2_2 1_555 1_555
N12_2 Ag2_2 1_555 1_555
C17_6 O1_6 1_555 1_555
C18_4 N4_4 1_555 1_555
C19_4 N5_4 1_555 1_555
C20_6 C17_6 1_555 1_555
C21_4 C18_4 1_555 1_555
C22_4 C19_4 1_555 1_555
C23_6 C20_6 1_555 1_555
C24_4 C21_4 1_555 1_555
C25_4 C22_4 1_555 1_555
H9_4 C23_6 1_555 1_555
H10_4 C24_4 1_555 1_555
H11_4 C25_4 1_555 1_555
C26_6 C23_6 1_555 1_555
C28_4 C25_4 1_555 1_555
H12_6 C26_6 1_555 1_555
H14_4 C28_4 1_555 1_555
C29_6 C26_6 1_555 1_555
C31_4 C28_4 1_555 1_555
H15_6 C29_6 1_555 1_555
H17_4 C31_4 1_555 1_555
C32_6 C29_6 1_555 1_555
C34_4 C31_4 1_555 1_555
C35_6 C20_6 1_555 1_555
C36_4 C21_4 1_555 1_555
C37_4 C22_4 1_555 1_555
H18_6 C35_6 1_555 1_555
H19_4 C36_4 1_555 1_555
H20_4 C37_4 1_555 1_555
C38_6 C32_6 1_555 1_555
C39_4 C33_4 1_555 1_555
C40_4 C34_4 1_555 1_555
C41_6 C38_6 1_555 1_555
C44_6 C41_6 1_555 1_555
C47_6 C44_6 1_555 1_555
H21_6 C47_6 1_555 1_555
C50_6 C47_6 1_555 1_555
H24_6 C50_6 1_555 1_555
C62_6 C44_6 1_555 1_555
H30_6 C62_6 1_555 1_555
O2_4 C18_4 1_555 1_555
C6_6 C7_6 1_555 1_555
C15_6 C16_6 1_555 1_555
N3_4 C17_6 1_555 1_555
N4_4 N5_4 1_555 1_555
C19_4 O2_4 1_555 1_555
C32_6 C35_6 1_555 1_555
C33_4 C36_4 1_555 1_555
C34_4 C37_4 1_555 1_555
N10 C57_3 1_555 1_555
N11_2 C58_3 1_555 1_555
C45_2 C42_2 1_555 1_555
C46_3 C43_3 1_555 1_555
C48_2 C45_2 1_555 1_555
C49_3 C46_3 1_555 1_555
H22_2 C48_2 1_555 1_555
H23_3 C49_3 1_555 1_555
C51_2 C48_2 1_555 1_555
C52_3 C49_3 1_555 1_555
H25_2 C51_2 1_555 1_555
H26_3 C52_3 1_555 1_555
C54_3 C51_2 1_555 1_555
C55_3 C52_3 1_555 1_555
C57_3 C54_3 1_555 1_555
C58_3 C55_3 1_555 1_555
C60_2 C54_3 1_555 1_555
C61_3 C55_3 1_555 1_555
H28_2 C60_2 1_555 1_555
H29_3 C61_3 1_555 1_555
C63_3 C45_2 1_555 1_555
C64_3 C46_3 1_555 1_555
H31_3 C63_3 1_555 1_555
H32_3 C64_3 1_555 1_555
C60_2 C63_3 1_555 1_555
C61_3 C64_3 1_555 1_555
N10_2 C57_4 1_555 1_555
C57_4 C54_4 1_555 1_555
N11 C58_4 1_555 1_555
C46_4 C43_4 1_555 1_555
C49_4 C46_4 1_555 1_555
H23_4 C49_4 1_555 1_555
C52_4 C49_4 1_555 1_555
H26_4 C52_4 1_555 1_555
C55_4 C52_4 1_555 1_555
C58_4 C55_4 1_555 1_555
C61_4 C55_4 1_555 1_555
H29_4 C61_4 1_555 1_555
C64_4 C46_4 1_555 1_555
H31_4 C63_4 1_555 1_555
H32_4 C64_4 1_555 1_555
C61_4 C64_4 1_555 1_555
N9_2 C14_3 1_555 1_555
H2_5 C4_5 1_555 1_555
C5_5 C4_5 1_555 1_555
H3_5 C5_5 1_555 1_555
C10_5 C9_5 1_555 1_555
C11_5 C10_5 1_555 1_555
H5_5 C11_5 1_555 1_555
C12_5 C11_5 1_555 1_555
H6_5 C12_5 1_555 1_555
C13_5 C12_5 1_555 1_555
C14_3 C13_5 1_555 1_555
C1_7 C2_7 1_555 1_555
C2_7 C3_7 1_555 1_555
C7_7 C2_7 1_555 1_555
H4_7 C7_7 1_555 1_555
C8_7 C6_7 1_555 1_555
H7_7 C15_7 1_555 1_555
H8_7 C16_7 1_555 1_555
O1_7 C1_7 1_555 1_555
N12 C56_3 1_555 1_555
C17_7 O1_7 1_555 1_555
C20_7 C17_7 1_555 1_555
C23_7 C20_7 1_555 1_555
C26_7 C23_7 1_555 1_555
H12_7 C26_7 1_555 1_555
C29_7 C26_7 1_555 1_555
H15_7 C29_7 1_555 1_555
C32_7 C29_7 1_555 1_555
C35_7 C20_7 1_555 1_555
H18_7 C35_7 1_555 1_555
C38_7 C32_7 1_555 1_555
C41_7 C38_7 1_555 1_555
C44_7 C41_7 1_555 1_555
C47_7 C44_7 1_555 1_555
H21_7 C47_7 1_555 1_555
C50_7 C47_7 1_555 1_555
H24_7 C50_7 1_555 1_555
C53_5 C50_7 1_555 1_555
C56_3 C53_5 1_555 1_555
C59_5 C53_5 1_555 1_555
H27_5 C59_5 1_555 1_555
C62_7 C44_7 1_555 1_555
H30_7 C62_7 1_555 1_555
C6_7 C7_7 1_555 1_555
C15_7 C16_7 1_555 1_555
C32_7 C35_7 1_555 1_555
C59_5 C62_7 1_555 1_555
N12_2 C56_4 1_555 1_555
C56_4 C53_6 1_555 1_555
C59_6 C53_6 1_555 1_555
H27_6 C59_6 1_555 1_555
N9 C14_4 1_555 1_555
C1_8 C2_8 1_555 1_555
C2_8 C3_8 1_555 1_555
C4_6 C3_8 1_555 1_555
H2_6 C4_6 1_555 1_555
C5_6 C4_6 1_555 1_555
H3_6 C5_6 1_555 1_555
C6_8 C5_6 1_555 1_555
C7_8 C2_8 1_555 1_555
H4_8 C7_8 1_555 1_555
C8_8 C6_8 1_555 1_555
C9_6 C8_8 1_555 1_555
C10_6 C9_6 1_555 1_555
C11_6 C10_6 1_555 1_555
H5_6 C11_6 1_555 1_555
C12_6 C11_6 1_555 1_555
H6_6 C12_6 1_555 1_555
C13_6 C12_6 1_555 1_555
C14_4 C13_6 1_555 1_555
C15_8 C13_6 1_555 1_555
H7_8 C15_8 1_555 1_555
C16_8 C10_6 1_555 1_555
H8_8 C16_8 1_555 1_555
O1_8 C1_8 1_555 1_555
C17_8 O1_8 1_555 1_555
C20_8 C17_8 1_555 1_555
C23_8 C20_8 1_555 1_555
C26_8 C23_8 1_555 1_555
H12_8 C26_8 1_555 1_555
C29_8 C26_8 1_555 1_555
H15_8 C29_8 1_555 1_555
C32_8 C29_8 1_555 1_555
C35_8 C20_8 1_555 1_555
H18_8 C35_8 1_555 1_555
C38_8 C32_8 1_555 1_555
C41_8 C38_8 1_555 1_555
C44_8 C41_8 1_555 1_555
C47_8 C44_8 1_555 1_555
H21_8 C47_8 1_555 1_555
C50_8 C47_8 1_555 1_555
H24_8 C50_8 1_555 1_555
C62_8 C44_8 1_555 1_555
H30_8 C62_8 1_555 1_555
C6_8 C7_8 1_555 1_555
C15_8 C16_8 1_555 1_555
C32_8 C35_8 1_555 1_555
N2_3 C14_5 1_555 1_555
Ag3 N2_3 1_555 1_555
Ag4 N6_3 1_555 1_555
N6_3 C56_5 1_555 1_555
N2_4 C14_6 1_555 1_555
Ag3_2 N2_4 1_555 1_555
Ag4_2 N6_4 1_555 1_555
N6_4 C56_6 1_555 1_555
Ag1_3 N1_5 1_555 1_555
Ag2_3 N3_5 1_555 1_555
Ag4_2 N8_3 1_555 1_555
N3_5 N1_5 1_555 1_555
N4_5 Ag1_3 1_555 1_555
N5_5 Ag2_3 1_555 1_555
N8_3 C58_5 1_555 1_555
N9_3 Ag1_3 1_555 1_555
N10_3 Ag1_3 1_555 1_555
N11_3 Ag2_3 1_555 1_555
N12_3 Ag2_3 1_555 1_555
C18_5 N4_5 1_555 1_555
C19_5 N5_5 1_555 1_555
C21_5 C18_5 1_555 1_555
C22_5 C19_5 1_555 1_555
C24_5 C21_5 1_555 1_555
C25_5 C22_5 1_555 1_555
H10_5 C24_5 1_555 1_555
H11_5 C25_5 1_555 1_555
C28_5 C25_5 1_555 1_555
H14_5 C28_5 1_555 1_555
C31_5 C28_5 1_555 1_555
H17_5 C31_5 1_555 1_555
C34_5 C31_5 1_555 1_555
C36_5 C21_5 1_555 1_555
C37_5 C22_5 1_555 1_555
H19_5 C36_5 1_555 1_555
H20_5 C37_5 1_555 1_555
C39_5 C33_5 1_555 1_555
C40_5 C34_5 1_555 1_555
C43_5 C40_5 1_555 1_555
C46_5 C43_5 1_555 1_555
C49_5 C46_5 1_555 1_555
H23_5 C49_5 1_555 1_555
C52_5 C49_5 1_555 1_555
H26_5 C52_5 1_555 1_555
C55_5 C52_5 1_555 1_555
C58_5 C55_5 1_555 1_555
C61_5 C55_5 1_555 1_555
H28_3 C60_3 1_555 1_555
H29_5 C61_5 1_555 1_555
C64_5 C46_5 1_555 1_555
H31_5 C63_5 1_555 1_555
H32_5 C64_5 1_555 1_555
O2_5 C18_5 1_555 1_555
N4_5 N5_5 1_555 1_555
C19_5 O2_5 1_555 1_555
C33_5 C36_5 1_555 1_555
C34_5 C37_5 1_555 1_555
C60_3 C63_5 1_555 1_555
C61_5 C64_5 1_555 1_555
Ag3_2 N7_3 1_555 1_555
N7_3 C57_5 1_555 1_555
H13_3 C27_3 1_555 1_555
C30_3 C27_3 1_555 1_555
H16_3 C30_3 1_555 1_555
C45_3 C42_3 1_555 1_555
C48_3 C45_3 1_555 1_555
H22_3 C48_3 1_555 1_555
C51_3 C48_3 1_555 1_555
H25_3 C51_3 1_555 1_555
C54_5 C51_3 1_555 1_555
C57_5 C54_5 1_555 1_555
Ag1_4 N1_6 1_555 1_555
Ag2_4 N3_6 1_555 1_555
Ag4 N8_4 1_555 1_555
N3_6 N1_6 1_555 1_555
N4_6 Ag1_4 1_555 1_555
N5_6 Ag2_4 1_555 1_555
N8_4 C58_6 1_555 1_555
N9_4 Ag1_4 1_555 1_555
N10_4 Ag1_4 1_555 1_555
N11_4 Ag2_4 1_555 1_555
N12_4 Ag2_4 1_555 1_555
C18_6 N4_6 1_555 1_555
C19_6 N5_6 1_555 1_555
C21_6 C18_6 1_555 1_555
C22_6 C19_6 1_555 1_555
C24_6 C21_6 1_555 1_555
C25_6 C22_6 1_555 1_555
H10_6 C24_6 1_555 1_555
H11_6 C25_6 1_555 1_555
C27_4 C24_6 1_555 1_555
C28_6 C25_6 1_555 1_555
H13_4 C27_4 1_555 1_555
H14_6 C28_6 1_555 1_555
C30_4 C27_4 1_555 1_555
C31_6 C28_6 1_555 1_555
H16_4 C30_4 1_555 1_555
H17_6 C31_6 1_555 1_555
C33_6 C30_4 1_555 1_555
C34_6 C31_6 1_555 1_555
C36_6 C21_6 1_555 1_555
C37_6 C22_6 1_555 1_555
H19_6 C36_6 1_555 1_555
H20_6 C37_6 1_555 1_555
C39_6 C33_6 1_555 1_555
C40_6 C34_6 1_555 1_555
C42_4 C39_6 1_555 1_555
C43_6 C40_6 1_555 1_555
C45_4 C42_4 1_555 1_555
C46_6 C43_6 1_555 1_555
C48_4 C45_4 1_555 1_555
C49_6 C46_6 1_555 1_555
H22_4 C48_4 1_555 1_555
H23_6 C49_6 1_555 1_555
C51_4 C48_4 1_555 1_555
C52_6 C49_6 1_555 1_555
H25_4 C51_4 1_555 1_555
H26_6 C52_6 1_555 1_555
C55_6 C52_6 1_555 1_555
C58_6 C55_6 1_555 1_555
C61_6 C55_6 1_555 1_555
H29_6 C61_6 1_555 1_555
C63_6 C45_4 1_555 1_555
C64_6 C46_6 1_555 1_555
H31_6 C63_6 1_555 1_555
H32_6 C64_6 1_555 1_555
O2_6 C18_6 1_555 1_555
N4_6 N5_6 1_555 1_555
C19_6 O2_6 1_555 1_555
C33_6 C36_6 1_555 1_555
C34_6 C37_6 1_555 1_555
C61_6 C64_6 1_555 1_555
Ag3 N7_4 1_555 1_555
N7_4 C57_6 1_555 1_555
C57_6 C54_6 1_555 1_555
C60_4 C54_6 1_555 1_555
H28_4 C60_4 1_555 1_555
N9_4 C14_7 1_555 1_555
N12_3 C56_7 1_555 1_555
N12_4 C56_8 1_555 1_555
N9_3 C14_8 1_555 1_555
N10_3 C57_7 1_555 1_555
H13_5 C27_5 1_555 1_555
C30_5 C27_5 1_555 1_555
H16_5 C30_5 1_555 1_555
C45_5 C42_5 1_555 1_555
C48_5 C45_5 1_555 1_555
H22_5 C48_5 1_555 1_555
C51_5 C48_5 1_555 1_555
H25_5 C51_5 1_555 1_555
C54_7 C51_5 1_555 1_555
C57_7 C54_7 1_555 1_555
Ag3_2 N1_7 1_555 1_555
Ag4 N3_7 1_555 1_555
N3_7 N1_7 1_555 1_555
N4_7 Ag3_2 1_555 1_555
N5_7 Ag4 1_555 1_555
N11_4 C58_7 1_555 1_555
C18_7 N4_7 1_555 1_555
C19_7 N5_7 1_555 1_555
C21_7 C18_7 1_555 1_555
C22_7 C19_7 1_555 1_555
C24_7 C21_7 1_555 1_555
C25_7 C22_7 1_555 1_555
H10_7 C24_7 1_555 1_555
H11_7 C25_7 1_555 1_555
C28_7 C25_7 1_555 1_555
H14_7 C28_7 1_555 1_555
C31_7 C28_7 1_555 1_555
H17_7 C31_7 1_555 1_555
C34_7 C31_7 1_555 1_555
C36_7 C21_7 1_555 1_555
C37_7 C22_7 1_555 1_555
H19_7 C36_7 1_555 1_555
H20_7 C37_7 1_555 1_555
C39_7 C33_7 1_555 1_555
C40_7 C34_7 1_555 1_555
C43_7 C40_7 1_555 1_555
C46_7 C43_7 1_555 1_555
C49_7 C46_7 1_555 1_555
H23_7 C49_7 1_555 1_555
C52_7 C49_7 1_555 1_555
H26_7 C52_7 1_555 1_555
C55_7 C52_7 1_555 1_555
C58_7 C55_7 1_555 1_555
C61_7 C55_7 1_555 1_555
H28_5 C60_5 1_555 1_555
H29_7 C61_7 1_555 1_555
C64_7 C46_7 1_555 1_555
H31_7 C63_7 1_555 1_555
H32_7 C64_7 1_555 1_555
O2_7 C18_7 1_555 1_555
N4_7 N5_7 1_555 1_555
C19_7 O2_7 1_555 1_555
C33_7 C36_7 1_555 1_555
C34_7 C37_7 1_555 1_555
C60_5 C63_7 1_555 1_555
C61_7 C64_7 1_555 1_555
N10_4 C57_8 1_555 1_555
C57_8 C54_8 1_555 1_555
C60_6 C54_8 1_555 1_555
H28_6 C60_6 1_555 1_555
Ag3 N1_8 1_555 1_555
Ag4_2 N3_8 1_555 1_555
N3_8 N1_8 1_555 1_555
N4_8 Ag3 1_555 1_555
N5_8 Ag4_2 1_555 1_555
N11_3 C58_8 1_555 1_555
C18_8 N4_8 1_555 1_555
C19_8 N5_8 1_555 1_555
C21_8 C18_8 1_555 1_555
C22_8 C19_8 1_555 1_555
C24_8 C21_8 1_555 1_555
C25_8 C22_8 1_555 1_555
H10_8 C24_8 1_555 1_555
H11_8 C25_8 1_555 1_555
C27_6 C24_8 1_555 1_555
C28_8 C25_8 1_555 1_555
H13_6 C27_6 1_555 1_555
H14_8 C28_8 1_555 1_555
C30_6 C27_6 1_555 1_555
C31_8 C28_8 1_555 1_555
H16_6 C30_6 1_555 1_555
H17_8 C31_8 1_555 1_555
C33_8 C30_6 1_555 1_555
C34_8 C31_8 1_555 1_555
C36_8 C21_8 1_555 1_555
C37_8 C22_8 1_555 1_555
H19_8 C36_8 1_555 1_555
H20_8 C37_8 1_555 1_555
C39_8 C33_8 1_555 1_555
C40_8 C34_8 1_555 1_555
C42_6 C39_8 1_555 1_555
C43_8 C40_8 1_555 1_555
C45_6 C42_6 1_555 1_555
C46_8 C43_8 1_555 1_555
C48_6 C45_6 1_555 1_555
C49_8 C46_8 1_555 1_555
H22_6 C48_6 1_555 1_555
H23_8 C49_8 1_555 1_555
C51_6 C48_6 1_555 1_555
C52_8 C49_8 1_555 1_555
H25_6 C51_6 1_555 1_555
H26_8 C52_8 1_555 1_555
C55_8 C52_8 1_555 1_555
C58_8 C55_8 1_555 1_555
C61_8 C55_8 1_555 1_555
H29_8 C61_8 1_555 1_555
C63_8 C45_6 1_555 1_555
C64_8 C46_8 1_555 1_555
H31_8 C63_8 1_555 1_555
H32_8 C64_8 1_555 1_555
O2_8 C18_8 1_555 1_555
N4_8 N5_8 1_555 1_555
C19_8 O2_8 1_555 1_555
C33_8 C36_8 1_555 1_555
C34_8 C37_8 1_555 1_555
C61_8 C64_8 1_555 1_555
C45_7 C42_7 1_555 1_555
C48_7 C45_7 1_555 1_555
H22_7 C48_7 1_555 1_555
C51_7 C48_7 1_555 1_555
H25_7 C51_7 1_555 1_555
H28_7 C60_7 1_555 1_555
H2_7 C4_7 1_555 1_555
C5_7 C4_7 1_555 1_555
H3_7 C5_7 1_555 1_555
C10_7 C9_7 1_555 1_555
C11_7 C10_7 1_555 1_555
H5_7 C11_7 1_555 1_555
C12_7 C11_7 1_555 1_555
H6_7 C12_7 1_555 1_555
C13_7 C12_7 1_555 1_555
H13_7 C27_7 1_555 1_555
C30_7 C27_7 1_555 1_555
H16_7 C30_7 1_555 1_555
C59_7 C53_7 1_555 1_555
H27_7 C59_7 1_555 1_555
C59_8 C53_8 1_555 1_555
H27_8 C59_8 1_555 1_555
H2_8 C4_8 1_555 1_555
C5_8 C4_8 1_555 1_555
H3_8 C5_8 1_555 1_555
C10_8 C9_8 1_555 1_555
C11_8 C10_8 1_555 1_555
H5_8 C11_8 1_555 1_555
C12_8 C11_8 1_555 1_555
H6_8 C12_8 1_555 1_555
C13_8 C12_8 1_555 1_555
H13_8 C27_8 1_555 1_555
C30_8 C27_8 1_555 1_555
H16_8 C30_8 1_555 1_555
H28_8 C60_8 1_555 1_555
C45_8 C42_8 1_555 1_555
C48_8 C45_8 1_555 1_555
H22_8 C48_8 1_555 1_555
C51_8 C48_8 1_555 1_555
H25_8 C51_8 1_555 1_555
B1 F1 1_555 1_555
F2 B1 1_555 1_555
F3 B1 1_555 1_555
F4 B1 1_555 1_555
B1_2 F1_2 1_555 1_555
F2_2 B1_2 1_555 1_555
F3_2 B1_2 1_555 1_555
F4_2 B1_2 1_555 1_555
B1_3 F1_3 1_555 1_555
F2_3 B1_3 1_555 1_555
F3_3 B1_3 1_555 1_555
F4_3 B1_3 1_555 1_555
B1_4 F1_4 1_555 1_555
F2_4 B1_4 1_555 1_555
F3_4 B1_4 1_555 1_555
F4_4 B1_4 1_555 1_555
B1_5 F1_5 1_555 1_555
F2_5 B1_5 1_555 1_555
F3_5 B1_5 1_555 1_555
F4_5 B1_5 1_555 1_555
B1_6 F1_6 1_555 1_555
F2_6 B1_6 1_555 1_555
F3_6 B1_6 1_555 1_555
F4_6 B1_6 1_555 1_555
B1_7 F1_7 1_555 1_555
F2_7 B1_7 1_555 1_555
F3_7 B1_7 1_555 1_555
F4_7 B1_7 1_555 1_555
B1_8 F1_8 1_555 1_555
F2_8 B1_8 1_555 1_555
F3_8 B1_8 1_555 1_555
F4_8 B1_8 1_555 1_555
B1_9 F1_9 1_555 1_555
F2_9 B1_9 1_555 1_555
F3_9 B1_9 1_555 1_555
F4_9 B1_9 1_555 1_555
B1_10 F1_10 1_555 1_555
F2_10 B1_10 1_555 1_555
F3_10 B1_10 1_555 1_555
F4_10 B1_10 1_555 1_555
B1_11 F1_11 1_555 1_555
F2_11 B1_11 1_555 1_555
F3_11 B1_11 1_555 1_555
F4_11 B1_11 1_555 1_555
B1_12 F1_12 1_555 1_555
F2_12 B1_12 1_555 1_555
F3_12 B1_12 1_555 1_555
F4_12 B1_12 1_555 1_555
B1_13 F1_13 1_555 1_555
F2_13 B1_13 1_555 1_555
F3_13 B1_13 1_555 1_555
F4_13 B1_13 1_555 1_555
B1_14 F1_14 1_555 1_555
F2_14 B1_14 1_555 1_555
F3_14 B1_14 1_555 1_555
F4_14 B1_14 1_555 1_555
B1_15 F1_15 1_555 1_555
F2_15 B1_15 1_555 1_555
F3_15 B1_15 1_555 1_555
F4_15 B1_15 1_555 1_555
B1_16 F1_16 1_555 1_555
F2_16 B1_16 1_555 1_555
F3_16 B1_16 1_555 1_555
F4_16 B1_16 1_555 1_555

#END
