
###############################################################################
#
# This file contains modified crystal structure data generated from the
# MOF subset of the Cambridge Structural Database (CSD) v543 
# hosted by the Cambridge Crystallographic Data Centre (CCDC).
#
# This work is licensed under the Creative Commons
# Attribution-NonCommercial-ShareAlike 4.0 International License.
# To view a copy of this license, visit
# http://creativecommons.org/licenses/by-nc-sa/4.0/
# or send a letter to
# Creative Commons, PO Box 1866, Mountain View, CA 94042, USA.
#
# CIF created using the CSD Python API on 29 September 2022
# The structure has been converted into the P1 space group
# The structure has a 3D framework
# The original CSD entry WEHRIL is in the monoclinic crystal system
# The framework has been calculated to contain at least 10.0% void space
# The void calculation uses a probe of radius 1.32A, grid spacing 0.4
# The framework is charged, counterions have been retained in the structure
#
###############################################################################

data_WEHRIL
_chemical_formula_moiety         '(C256 H128 Ag8 Cl12 N32 O40)n'
_symmetry_cell_setting           triclinic
_symmetry_space_group_name_H-M   'P 1'
_symmetry_Int_Tables_number      1
_space_group_name_Hall           'P 1'
loop_
_symmetry_equiv_pos_site_id
_symmetry_equiv_pos_as_xyz
1 x,y,z
_cell_length_a                   19.328(4)
_cell_length_b                   23.253(5)
_cell_length_c                   19.734(4)
_cell_angle_alpha                90
_cell_angle_beta                 118.073(4)
_cell_angle_gamma                90
_cell_volume                     7825.67
loop_
_atom_site_label
_atom_site_type_symbol
_atom_site_fract_x
_atom_site_fract_y
_atom_site_fract_z
C41 C 0.0315(7) 0.0716(5) 0.4833(6)
C42 C 0.1051(6) 0.0444(5) 0.4949(7)
C43 C 0.1705(6) 0.0455(4) 0.5661(6)
H21 H 0.1679 0.0636 0.6068
C44 C 0.2390(6) 0.0202(5) 0.5776(7)
H22 H 0.2828 0.0204 0.6259
C48 C 0.1096(7) 0.0171(5) 0.4356(7)
H24 H 0.0653 0.0154 0.3878
H30 H 0.0099 0.2672 0.0739
Ag6 Ag 0.05305(4) 0.37989(4) 0.85257(4)
N10 N 0.0707(6) 0.3036(4) 0.9438(5)
C62 C 0.0239(6) 0.2810(4) 0.9508(7)
Ag1 Ag 0.55305(4) 0.12011(4) 0.35257(4)
N1 N 0.4184(4) 0.1183(3) 0.2949(4)
N2 N 0.3760(5) 0.1257(3) 0.2138(5)
C1 C 0.3051(5) 0.1308(4) 0.1977(6)
C2 C 0.2347(5) 0.1361(4) 0.1200(6)
C3 C 0.2419(6) 0.1619(4) 0.0615(6)
H1 H 0.2903 0.1760 0.0698
C6 C 0.0993(6) 0.1161(4) 0.0369(6)
C7 C 0.1644(6) 0.1133(4) 0.1092(6)
H4 H 0.1606 0.0961 0.1499
C8 C 0.0269(6) 0.0931(5) 0.0246(6)
C17 C 0.3669(5) 0.1189(4) 0.3177(6)
C18 C 0.3753(5) 0.1134(4) 0.3945(6)
C19 C 0.4411(6) 0.0856(5) 0.4514(6)
H9 H 0.4790 0.0701 0.4403
C20 C 0.4486(6) 0.0816(5) 0.5239(6)
H10 H 0.4926 0.0632 0.5617
C21 C 0.3942(6) 0.1035(5) 0.5432(6)
H11 H 0.4013 0.1008 0.5931
C22 C 0.3277(6) 0.1302(4) 0.4854(6)
C23 C 0.3198(5) 0.1345(4) 0.4119(6)
H12 H 0.2754 0.1521 0.3735
C24 C 0.2691(6) 0.1557(4) 0.5011(6)
C25 C 0.2206(6) 0.1758(5) 0.5112(6)
C26 C 0.1577(7) 0.2016(4) 0.5224(6)
C27 C 0.0934(7) 0.2280(5) 0.4593(6)
H13 H 0.0922 0.2293 0.4116
C28 C 0.0331(6) 0.2515(5) 0.4682(6)
C29 C 0.0361(6) 0.2520(4) 0.5392(6)
C31 C 0.0969(7) 0.2266(5) 0.6016(7)
H15 H 0.0973 0.2261 0.6490
C32 C 0.1585(7) 0.2014(4) 0.5931(6)
H16 H 0.2002 0.1844 0.6352
O1 O 0.2928(4) 0.1264(3) 0.2592(4)
Ag2 Ag 0.44695(4) 0.12011(4) 0.14743(4)
N5 N 0.5816(4) 0.1183(3) 0.2051(4)
N6 N 0.6240(5) 0.1257(3) 0.2862(5)
N8 N 0.6313(6) 0.0592(4) 0.4604(6)
N9 N 0.3687(6) 0.0592(4) 0.0396(6)
N11 N 0.5707(6) 0.1964(4) 0.4438(5)
N12 N 0.4293(6) 0.1964(4) 0.0562(5)
C33 C 0.6949(5) 0.1308(4) 0.3023(6)
C34 C 0.7653(5) 0.1361(4) 0.3800(6)
C35 C 0.7581(6) 0.1619(4) 0.4385(6)
H17 H 0.7097 0.1760 0.4302
C36 C 0.8228(7) 0.1669(5) 0.5101(6)
H18 H 0.8186 0.1853 0.5498
C37 C 0.8950(6) 0.1440(5) 0.5221(6)
H19 H 0.9390 0.1475 0.5699
C38 C 0.9007(6) 0.1161(4) 0.4631(6)
C39 C 0.8356(6) 0.1133(4) 0.3908(6)
H20 H 0.8394 0.0961 0.3501
C40 C 0.9731(6) 0.0931(5) 0.4754(6)
C49 C 0.6331(5) 0.1189(4) 0.1823(6)
C50 C 0.6247(5) 0.1134(4) 0.1055(6)
C51 C 0.5589(6) 0.0856(5) 0.0486(6)
H25 H 0.5210 0.0701 0.0597
C54 C 0.6723(6) 0.1302(4) 0.0146(6)
C55 C 0.6802(5) 0.1345(4) 0.0881(6)
H28 H 0.7246 0.1521 0.1265
C59 C 0.9066(7) 0.2280(5) 0.0407(6)
H29 H 0.9078 0.2293 0.0884
C60 C 0.9669(6) 0.2515(5) 0.0318(6)
O2 O 0.7072(4) 0.1264(3) 0.2408(4)
N3 N 0.1313(6) 0.4408(4) 0.9604(6)
C4 C 0.6772(7) 0.6669(5) 0.9899(6)
H2 H 0.6814 0.6853 0.9502
C5 C 0.6050(6) 0.6440(5) 0.9779(6)
H3 H 0.5610 0.6475 0.9301
C11 C 0.3295(6) 0.5455(4) 0.9339(6)
H5 H 0.3321 0.5636 0.8932
C12 C 0.2610(6) 0.5202(5) 0.9224(7)
H6 H 0.2172 0.5204 0.8741
C13 C 0.2579(6) 0.4942(4) 0.9840(7)
C14 C 0.1870(7) 0.4642(5) 0.9706(6)
C13_2 C 0.2421(6) 0.0058(4) 0.0160(7)
C14_2 C 0.3130(7) 0.0358(5) 0.0294(6)
C45 C 0.7579(6) 0.0058(4) 0.4840(7)
C46 C 0.6870(7) 0.0358(5) 0.4706(6)
C47 C 0.8223(7) 0.0077(6) 0.5549(7)
H23 H 0.8199 0.0255 0.5959
N1_2 N 0.0816(4) 0.3817(3) 0.7051(4)
N2_2 N 0.1240(5) 0.3743(3) 0.7862(5)
C1_2 C 0.1949(5) 0.3692(4) 0.8023(6)
C2_2 C 0.2653(5) 0.3639(4) 0.8800(6)
C3_2 C 0.2581(6) 0.3381(4) 0.9385(6)
H1_2 H 0.2097 0.3240 0.9302
C6_2 C 0.4007(6) 0.3839(4) 0.9631(6)
C7_2 C 0.3356(6) 0.3867(4) 0.8908(6)
H4_2 H 0.3394 0.4039 0.8501
C8_2 C 0.4731(6) 0.4069(5) 0.9754(6)
C9 C 0.5315(7) 0.4284(5) 0.9833(6)
C10 C 0.6051(6) 0.4556(5) 0.9949(7)
C15 C 0.6777(7) 0.5077(6) 0.9451(7)
H7 H 0.6801 0.5255 0.9041
C16 C 0.6096(7) 0.4829(5) 0.9356(7)
H8 H 0.5653 0.4846 0.8878
C17_2 C 0.1331(5) 0.3811(4) 0.6823(6)
C18_2 C 0.1247(5) 0.3866(4) 0.6055(6)
C19_2 C 0.0589(6) 0.4144(5) 0.5486(6)
H9_2 H 0.0210 0.4299 0.5597
C20_2 C 0.0514(6) 0.4184(5) 0.4761(6)
H10_2 H 0.0074 0.4368 0.4383
C21_2 C 0.1058(6) 0.3965(5) 0.4568(6)
H11_2 H 0.0987 0.3992 0.4069
C22_2 C 0.1723(6) 0.3698(4) 0.5146(6)
C23_2 C 0.1802(5) 0.3655(4) 0.5881(6)
H12_2 H 0.2246 0.3479 0.6265
C24_2 C 0.2309(6) 0.3443(4) 0.4989(6)
C25_2 C 0.2794(6) 0.3242(5) 0.4888(6)
C26_2 C 0.3423(7) 0.2984(4) 0.4776(6)
C27_2 C 0.4066(7) 0.2720(5) 0.5407(6)
H13_2 H 0.4078 0.2707 0.5884
C28_2 C 0.4669(6) 0.2485(5) 0.5318(6)
H14 H 0.5099 0.2328 0.5739
C29_2 C 0.4639(6) 0.2480(4) 0.4608(6)
C30 C 0.5239(6) 0.2190(4) 0.4508(7)
C31_2 C 0.4031(7) 0.2734(5) 0.3984(7)
H15_2 H 0.4027 0.2739 0.3510
C32_2 C 0.3415(7) 0.2986(4) 0.4069(6)
H16_2 H 0.2998 0.3156 0.3648
O1_2 O 0.2072(4) 0.3736(3) 0.7408(4)
C52 C 0.9486(6) 0.4184(5) 0.0239(6)
H26 H 0.9926 0.4368 0.0617
C53 C 0.8942(6) 0.3965(5) 0.0432(6)
H27 H 0.9013 0.3992 0.0931
C56 C 0.7691(6) 0.3443(4) 0.0011(6)
C57 C 0.7206(6) 0.3242(5) 0.0112(6)
C58 C 0.6577(7) 0.2984(4) 0.0224(6)
C61 C 0.5361(6) 0.2480(4) 0.0392(6)
C62_2 C 0.4761(6) 0.2190(4) 0.0492(7)
C63 C 0.5969(7) 0.2734(5) 0.1016(7)
H31 H 0.5973 0.2739 0.1490
C64 C 0.6585(7) 0.2986(4) 0.0931(6)
H32 H 0.7002 0.3156 0.1352
Ag5 Ag 0.44695(4) 0.87989(4) 0.64743(4)
N7 N 0.3687(6) 0.9408(4) 0.5396(6)
C45_2 C 0.2421(6) 0.9942(4) 0.5160(7)
C46_2 C 0.3130(7) 0.9642(5) 0.5294(6)
C47_2 C 0.1777(7) 0.9923(6) 0.4451(7)
H23_2 H 0.1801 0.9745 0.4041
N3_2 N 0.6313(6) 0.9408(4) 0.9604(6)
C13_3 C 0.7579(6) 0.9942(4) 0.9840(7)
C14_3 C 0.6870(7) 0.9642(5) 0.9706(6)
Ag3 Ag 0.55305(4) 0.87989(4) 0.85257(4)
N10_2 N 0.5707(6) 0.8036(4) 0.9438(5)
C52_2 C 0.0514(6) 0.5816(5) 0.9761(6)
H26_2 H 0.0074 0.5632 0.9383
C53_2 C 0.1058(6) 0.6035(5) 0.9568(6)
H27_2 H 0.0987 0.6008 0.9069
C56_2 C 0.2309(6) 0.6557(4) 0.9989(6)
C57_2 C 0.2794(6) 0.6758(5) 0.9888(6)
C58_2 C 0.3423(7) 0.7016(4) 0.9776(6)
C61_2 C 0.4639(6) 0.7520(4) 0.9608(6)
C62_3 C 0.5239(6) 0.7810(4) 0.9508(7)
C63_2 C 0.4031(7) 0.7266(5) 0.8984(7)
H31_2 H 0.4027 0.7261 0.8510
C64_2 C 0.3415(7) 0.7014(4) 0.9069(6)
H32_2 H 0.2998 0.6844 0.8648
N1_3 N 0.9184(4) 0.6183(3) 0.2949(4)
N2_3 N 0.8760(5) 0.6257(3) 0.2138(5)
N4 N 0.4293(6) 0.8036(4) 0.5562(5)
C1_3 C 0.8051(5) 0.6308(4) 0.1977(6)
C2_3 C 0.7347(5) 0.6361(4) 0.1200(6)
C3_3 C 0.7419(6) 0.6619(4) 0.0615(6)
H1_3 H 0.7903 0.6760 0.0698
C6_3 C 0.5993(6) 0.6161(4) 0.0369(6)
C7_3 C 0.6644(6) 0.6133(4) 0.1092(6)
H4_3 H 0.6606 0.5961 0.1499
C8_3 C 0.5269(6) 0.5931(5) 0.0246(6)
C9_2 C 0.4685(7) 0.5716(5) 0.0167(6)
C10_2 C 0.3949(6) 0.5444(5) 0.0051(7)
C15_2 C 0.3223(7) 0.4923(6) 0.0549(7)
H7_2 H 0.3199 0.4745 0.0959
C16_2 C 0.3904(7) 0.5171(5) 0.0644(7)
H8_2 H 0.4347 0.5154 0.1122
C17_3 C 0.8669(5) 0.6189(4) 0.3177(6)
C18_3 C 0.8753(5) 0.6134(4) 0.3945(6)
C19_3 C 0.9411(6) 0.5856(5) 0.4514(6)
H9_3 H 0.9790 0.5701 0.4403
C20_3 C 0.9486(6) 0.5816(5) 0.5239(6)
H10_3 H 0.9926 0.5632 0.5617
C21_3 C 0.8942(6) 0.6035(5) 0.5432(6)
H11_3 H 0.9013 0.6008 0.5931
C22_3 C 0.8277(6) 0.6302(4) 0.4854(6)
C23_3 C 0.8198(5) 0.6345(4) 0.4119(6)
H12_3 H 0.7754 0.6521 0.3735
C24_3 C 0.7691(6) 0.6557(4) 0.5011(6)
C25_3 C 0.7206(6) 0.6758(5) 0.5112(6)
C26_3 C 0.6577(7) 0.7016(4) 0.5224(6)
C27_3 C 0.5934(7) 0.7280(5) 0.4593(6)
H13_3 H 0.5922 0.7293 0.4116
C28_3 C 0.5331(6) 0.7515(5) 0.4682(6)
H14_2 H 0.4901 0.7672 0.4261
C29_3 C 0.5361(6) 0.7520(4) 0.5392(6)
C30_2 C 0.4761(6) 0.7810(4) 0.5492(7)
C31_3 C 0.5969(7) 0.7266(5) 0.6016(7)
H15_3 H 0.5973 0.7261 0.6490
C32_3 C 0.6585(7) 0.7014(4) 0.5931(6)
H16_3 H 0.7002 0.6844 0.6352
O1_3 O 0.7928(4) 0.6264(3) 0.2592(4)
Ag2_2 Ag 0.94695(4) 0.62011(4) 0.14743(4)
N9_2 N 0.8687(6) 0.5592(4) 0.0396(6)
N12_2 N 0.9293(6) 0.6964(4) 0.0562(5)
N1_4 N 0.5816(4) 0.8817(3) 0.7051(4)
N2_4 N 0.6240(5) 0.8743(3) 0.7862(5)
C1_4 C 0.6949(5) 0.8692(4) 0.8023(6)
C2_4 C 0.7653(5) 0.8639(4) 0.8800(6)
C3_4 C 0.7581(6) 0.8381(4) 0.9385(6)
H1_4 H 0.7097 0.8240 0.9302
C6_4 C 0.9007(6) 0.8839(4) 0.9631(6)
C7_4 C 0.8356(6) 0.8867(4) 0.8908(6)
H4_4 H 0.8394 0.9039 0.8501
C8_4 C 0.9731(6) 0.9069(5) 0.9754(6)
C17_4 C 0.6331(5) 0.8811(4) 0.6823(6)
C18_4 C 0.6247(5) 0.8866(4) 0.6055(6)
C19_4 C 0.5589(6) 0.9144(5) 0.5486(6)
H9_4 H 0.5210 0.9299 0.5597
C20_4 C 0.5514(6) 0.9184(5) 0.4761(6)
H10_4 H 0.5074 0.9368 0.4383
C21_4 C 0.6058(6) 0.8965(5) 0.4568(6)
H11_4 H 0.5987 0.8992 0.4069
C22_4 C 0.6723(6) 0.8698(4) 0.5146(6)
C23_4 C 0.6802(5) 0.8655(4) 0.5881(6)
H12_4 H 0.7246 0.8479 0.6265
C24_4 C 0.7309(6) 0.8443(4) 0.4989(6)
C25_4 C 0.7794(6) 0.8242(5) 0.4888(6)
C26_4 C 0.8423(7) 0.7984(4) 0.4776(6)
C27_4 C 0.9066(7) 0.7720(5) 0.5407(6)
H13_4 H 0.9078 0.7707 0.5884
C28_4 C 0.9669(6) 0.7485(5) 0.5318(6)
C29_4 C 0.9639(6) 0.7480(4) 0.4608(6)
C31_4 C 0.9031(7) 0.7734(5) 0.3984(7)
H15_4 H 0.9027 0.7739 0.3510
C32_4 C 0.8415(7) 0.7986(4) 0.4069(6)
H16_4 H 0.7998 0.8156 0.3648
O1_4 O 0.7072(4) 0.8736(3) 0.7408(4)
N5_2 N 0.4184(4) 0.8817(3) 0.7949(4)
N6_2 N 0.3760(5) 0.8743(3) 0.7138(5)
C33_2 C 0.3051(5) 0.8692(4) 0.6977(6)
C34_2 C 0.2347(5) 0.8639(4) 0.6200(6)
C35_2 C 0.2419(6) 0.8381(4) 0.5615(6)
H17_2 H 0.2903 0.8240 0.5698
C36_2 C 0.1772(7) 0.8331(5) 0.4899(6)
H18_2 H 0.1814 0.8147 0.4502
C37_2 C 0.1050(6) 0.8560(5) 0.4779(6)
H19_2 H 0.0610 0.8525 0.4301
C38_2 C 0.0993(6) 0.8839(4) 0.5369(6)
C39_2 C 0.1644(6) 0.8867(4) 0.6092(6)
H20_2 H 0.1606 0.9039 0.6499
C40_2 C 0.0269(6) 0.9069(5) 0.5246(6)
C49_2 C 0.3669(5) 0.8811(4) 0.8177(6)
C50_2 C 0.3753(5) 0.8866(4) 0.8945(6)
C51_2 C 0.4411(6) 0.9144(5) 0.9514(6)
H25_2 H 0.4790 0.9299 0.9403
C54_2 C 0.3277(6) 0.8698(4) 0.9854(6)
C55_2 C 0.3198(5) 0.8655(4) 0.9119(6)
H28_2 H 0.2754 0.8479 0.8735
C59_2 C 0.0934(7) 0.7720(5) 0.9593(6)
H29_2 H 0.0922 0.7707 0.9116
C60_2 C 0.0331(6) 0.7485(5) 0.9682(6)
O2_2 O 0.2928(4) 0.8736(3) 0.7592(4)
C62_4 C 0.9761(6) 0.7190(4) 0.0492(7)
C4_2 C 0.3228(7) 0.3331(5) 0.0101(6)
H2_2 H 0.3186 0.3147 0.0498
C5_2 C 0.3950(6) 0.3560(5) 0.0221(6)
H3_2 H 0.4390 0.3525 0.0699
C11_2 C 0.6705(6) 0.4545(4) 0.0661(6)
H5_2 H 0.6679 0.4364 0.1068
C12_2 C 0.7390(6) 0.4798(5) 0.0776(7)
H6_2 H 0.7828 0.4796 0.1259
C13_4 C 0.7421(6) 0.5058(4) 0.0160(7)
C14_4 C 0.8130(7) 0.5358(5) 0.0294(6)
C4_3 C 0.1772(7) 0.1669(5) 0.9899(6)
H2_3 H 0.1814 0.1853 0.9502
C5_3 C 0.1050(6) 0.1440(5) 0.9779(6)
H3_3 H 0.0610 0.1475 0.9301
C52_3 C 0.5514(6) 0.0816(5) 0.9761(6)
H26_3 H 0.5074 0.0632 0.9383
C53_3 C 0.6058(6) 0.1035(5) 0.9568(6)
H27_3 H 0.5987 0.1008 0.9069
C56_3 C 0.7309(6) 0.1557(4) 0.9989(6)
C57_3 C 0.7794(6) 0.1758(5) 0.9888(6)
C58_3 C 0.8423(7) 0.2016(4) 0.9776(6)
C61_3 C 0.9639(6) 0.2520(4) 0.9608(6)
C63_3 C 0.9031(7) 0.2266(5) 0.8984(7)
H31_3 H 0.9027 0.2261 0.8510
C64_3 C 0.8415(7) 0.2014(4) 0.9069(6)
H32_3 H 0.7998 0.1844 0.8648
N4_2 N 0.9293(6) 0.3036(4) 0.5562(5)
C9_3 C 0.9685(7) 0.0716(5) 0.0167(6)
C10_3 C 0.8949(6) 0.0444(5) 0.0051(7)
C16_3 C 0.8904(7) 0.0171(5) 0.0644(7)
H8_3 H 0.9347 0.0154 0.1122
H14_3 H 0.9901 0.2672 0.4261
C30_3 C 0.9761(6) 0.2810(4) 0.5492(7)
Ag4 Ag 0.94695(4) 0.37989(4) 0.64743(4)
Ag1_2 Ag 0.05305(4) 0.62011(4) 0.35257(4)
N5_3 N 0.0816(4) 0.6183(3) 0.2051(4)
N6_3 N 0.1240(5) 0.6257(3) 0.2862(5)
N7_2 N 0.8687(6) 0.4408(4) 0.5396(6)
N8_2 N 0.1313(6) 0.5592(4) 0.4604(6)
N11_2 N 0.0707(6) 0.6964(4) 0.4438(5)
C33_3 C 0.1949(5) 0.6308(4) 0.3023(6)
C34_3 C 0.2653(5) 0.6361(4) 0.3800(6)
C35_3 C 0.2581(6) 0.6619(4) 0.4385(6)
H17_3 H 0.2097 0.6760 0.4302
C36_3 C 0.3228(7) 0.6669(5) 0.5101(6)
H18_3 H 0.3186 0.6853 0.5498
C37_3 C 0.3950(6) 0.6440(5) 0.5221(6)
H19_3 H 0.4390 0.6475 0.5699
C38_3 C 0.4007(6) 0.6161(4) 0.4631(6)
C39_3 C 0.3356(6) 0.6133(4) 0.3908(6)
H20_3 H 0.3394 0.5961 0.3501
C40_3 C 0.4731(6) 0.5931(5) 0.4754(6)
C41_2 C 0.5315(7) 0.5716(5) 0.4833(6)
C42_2 C 0.6051(6) 0.5444(5) 0.4949(7)
C43_2 C 0.6705(6) 0.5455(4) 0.5661(6)
H21_2 H 0.6679 0.5636 0.6068
C44_2 C 0.7390(6) 0.5202(5) 0.5776(7)
H22_2 H 0.7828 0.5204 0.6259
C45_3 C 0.7421(6) 0.4942(4) 0.5160(7)
C46_3 C 0.8130(7) 0.4642(5) 0.5294(6)
C47_3 C 0.6777(7) 0.4923(6) 0.4451(7)
H23_3 H 0.6801 0.4745 0.4041
C48_2 C 0.6096(7) 0.5171(5) 0.4356(7)
H24_2 H 0.5653 0.5154 0.3878
C49_3 C 0.1331(5) 0.6189(4) 0.1823(6)
C50_3 C 0.1247(5) 0.6134(4) 0.1055(6)
C51_3 C 0.0589(6) 0.5856(5) 0.0486(6)
H25_3 H 0.0210 0.5701 0.0597
C54_3 C 0.1723(6) 0.6302(4) 0.0146(6)
C55_3 C 0.1802(5) 0.6345(4) 0.0881(6)
H28_3 H 0.2246 0.6521 0.1265
C59_3 C 0.4066(7) 0.7280(5) 0.0407(6)
H29_3 H 0.4078 0.7293 0.0884
C60_3 C 0.4669(6) 0.7515(5) 0.0318(6)
H30_2 H 0.5099 0.7672 0.0739
O2_3 O 0.2072(4) 0.6264(3) 0.2408(4)
C9_4 C 0.0315(7) 0.9284(5) 0.9833(6)
C10_4 C 0.1051(6) 0.9556(5) 0.9949(7)
C16_4 C 0.1096(7) 0.9829(5) 0.9356(7)
H8_4 H 0.0653 0.9846 0.8878
H14_4 H 0.0099 0.7328 0.5739
C30_4 C 0.0239(6) 0.7190(4) 0.4508(7)
N5_4 N 0.9184(4) 0.3817(3) 0.7949(4)
N6_4 N 0.8760(5) 0.3743(3) 0.7138(5)
C33_4 C 0.8051(5) 0.3692(4) 0.6977(6)
C34_4 C 0.7347(5) 0.3639(4) 0.6200(6)
C35_4 C 0.7419(6) 0.3381(4) 0.5615(6)
H17_4 H 0.7903 0.3240 0.5698
C36_4 C 0.6772(7) 0.3331(5) 0.4899(6)
H18_4 H 0.6814 0.3147 0.4502
C37_4 C 0.6050(6) 0.3560(5) 0.4779(6)
H19_4 H 0.5610 0.3525 0.4301
C38_4 C 0.5993(6) 0.3839(4) 0.5369(6)
C39_4 C 0.6644(6) 0.3867(4) 0.6092(6)
H20_4 H 0.6606 0.4039 0.6499
C40_4 C 0.5269(6) 0.4069(5) 0.5246(6)
C41_3 C 0.4685(7) 0.4284(5) 0.5167(6)
C42_3 C 0.3949(6) 0.4556(5) 0.5051(7)
C43_3 C 0.3295(6) 0.4545(4) 0.4339(6)
H21_3 H 0.3321 0.4364 0.3932
C44_3 C 0.2610(6) 0.4798(5) 0.4224(7)
H22_3 H 0.2172 0.4796 0.3741
C45_4 C 0.2579(6) 0.5058(4) 0.4840(7)
C46_4 C 0.1870(7) 0.5358(5) 0.4706(6)
C47_4 C 0.3223(7) 0.5077(6) 0.5549(7)
H23_4 H 0.3199 0.5255 0.5959
C48_3 C 0.3904(7) 0.4829(5) 0.5644(7)
H24_3 H 0.4347 0.4846 0.6122
C49_4 C 0.8669(5) 0.3811(4) 0.8177(6)
C50_4 C 0.8753(5) 0.3866(4) 0.8945(6)
C51_4 C 0.9411(6) 0.4144(5) 0.9514(6)
H25_4 H 0.9790 0.4299 0.9403
C54_4 C 0.8277(6) 0.3698(4) 0.9854(6)
C55_4 C 0.8198(5) 0.3655(4) 0.9119(6)
H28_4 H 0.7754 0.3479 0.8735
C59_4 C 0.5934(7) 0.2720(5) 0.9593(6)
H29_4 H 0.5922 0.2707 0.9116
C60_4 C 0.5331(6) 0.2485(5) 0.9682(6)
H30_3 H 0.4901 0.2328 0.9261
O2_4 O 0.7928(4) 0.3736(3) 0.7592(4)
C11_3 C 0.8295(6) 0.0455(4) 0.9339(6)
H5_3 H 0.8321 0.0636 0.8932
C12_3 C 0.7610(6) 0.0202(5) 0.9224(7)
H6_3 H 0.7172 0.0204 0.8741
C15_3 C 0.8223(7) 0.9923(6) 0.0549(7)
H7_3 H 0.8199 0.9745 0.0959
C15_4 C 0.1777(7) 0.0077(6) 0.9451(7)
H7_4 H 0.1801 0.0255 0.9041
C11_4 C 0.1705(6) 0.9545(4) 0.0661(6)
H5_4 H 0.1679 0.9364 0.1068
C12_4 C 0.2390(6) 0.9798(5) 0.0776(7)
H6_4 H 0.2828 0.9796 0.1259
C4_4 C 0.8228(7) 0.8331(5) 0.0101(6)
H2_4 H 0.8186 0.8147 0.0498
C5_4 C 0.8950(6) 0.8560(5) 0.0221(6)
H3_4 H 0.9390 0.8525 0.0699
C52_4 C 0.4486(6) 0.9184(5) 0.0239(6)
H26_4 H 0.4926 0.9368 0.0617
C53_4 C 0.3942(6) 0.8965(5) 0.0432(6)
H27_4 H 0.4013 0.8992 0.0931
C56_4 C 0.2691(6) 0.8443(4) 0.0011(6)
C57_4 C 0.2206(6) 0.8242(5) 0.0112(6)
C58_4 C 0.1577(7) 0.7984(4) 0.0224(6)
C61_4 C 0.0361(6) 0.7480(4) 0.0392(6)
C63_4 C 0.0969(7) 0.7734(5) 0.1016(7)
H31_4 H 0.0973 0.7739 0.1490
C64_4 C 0.1585(7) 0.7986(4) 0.0931(6)
H32_4 H 0.2002 0.8156 0.1352
C41_4 C 0.9685(7) 0.9284(5) 0.5167(6)
C42_4 C 0.8949(6) 0.9556(5) 0.5051(7)
C43_4 C 0.8295(6) 0.9545(4) 0.4339(6)
H21_4 H 0.8321 0.9364 0.3932
C44_4 C 0.7610(6) 0.9798(5) 0.4224(7)
H22_4 H 0.7172 0.9796 0.3741
C48_4 C 0.8904(7) 0.9829(5) 0.5644(7)
H24_4 H 0.9347 0.9846 0.6122
H30_4 H 0.9901 0.7328 0.9261
O3 O 0.4515(11) 0.0696(6) 0.7410(13)
Cl1 Cl 0.5000 0.0258(2) 0.7500
O5 O 0.5485(11) 0.0696(6) 0.7590(13)
O4 O 0.4756(14) 0.9971(6) 0.6855(7)
O6 O 0.5244(14) 0.9971(6) 0.8145(7)
Cl1_2 Cl 0.0000 0.5258(2) 0.7500
O5_2 O 0.0485(11) 0.5696(6) 0.7590(13)
O6_2 O 0.0244(14) 0.4971(6) 0.8145(7)
O3_2 O 0.9515(11) 0.5696(6) 0.7410(13)
O4_2 O 0.9756(14) 0.4971(6) 0.6855(7)
Cl1_3 Cl 1.0000 0.5258(2) 0.7500
O4_3 O 0.5244(14) 0.0029(6) 0.3145(7)
O6_3 O 0.4756(14) 0.0029(6) 0.1855(7)
O3_3 O 0.5485(11) 0.9304(6) 0.2590(13)
Cl1_4 Cl 0.5000 0.9742(2) 0.2500
O5_3 O 0.4515(11) 0.9304(6) 0.2410(13)
O3_4 O 0.0485(11) 0.4304(6) 0.2590(13)
O4_4 O 0.0244(14) 0.5029(6) 0.3145(7)
Cl1_5 Cl 0.0000 0.4742(2) 0.2500
Cl1_6 Cl 1.0000 0.4742(2) 0.2500
O5_4 O 0.9515(11) 0.4304(6) 0.2410(13)
O6_4 O 0.9756(14) 0.5029(6) 0.1855(7)
O7 O 0.4845(7) 0.3084(5) 0.1882(5)
O8 O 0.5615(12) 0.2430(7) 0.2586(11)
Cl2 Cl 0.5000 0.2758(2) 0.2500
O9 O 0.5155(7) 0.3084(5) 0.3118(5)
O10 O 0.4385(12) 0.2430(7) 0.2414(11)
O8_2 O 0.0615(12) 0.7430(7) 0.2586(11)
Cl2_2 Cl 0.0000 0.7758(2) 0.2500
O9_2 O 0.0155(7) 0.8084(5) 0.3118(5)
O7_2 O 0.9845(7) 0.8084(5) 0.1882(5)
Cl2_3 Cl 1.0000 0.7758(2) 0.2500
O10_2 O 0.9385(12) 0.7430(7) 0.2414(11)
O7_3 O 0.5155(7) 0.6916(5) 0.8118(5)
O8_3 O 0.4385(12) 0.7570(7) 0.7414(11)
Cl2_4 Cl 0.5000 0.7242(2) 0.7500
O9_3 O 0.4845(7) 0.6916(5) 0.6882(5)
O10_3 O 0.5615(12) 0.7570(7) 0.7586(11)
O7_4 O 0.0155(7) 0.1916(5) 0.8118(5)
Cl2_5 Cl 0.0000 0.2242(2) 0.7500
O10_4 O 0.0615(12) 0.2570(7) 0.7586(11)
O8_4 O 0.9385(12) 0.2570(7) 0.7414(11)
Cl2_6 Cl 1.0000 0.2242(2) 0.7500
O9_4 O 0.9845(7) 0.1916(5) 0.6882(5)
loop_
_geom_bond_atom_site_label_1
_geom_bond_atom_site_label_2
_geom_bond_site_symmetry_1
_geom_bond_site_symmetry_2
C42 C41 1_555 1_555
C43 C42 1_555 1_555
H21 C43 1_555 1_555
C44 C43 1_555 1_555
H22 C44 1_555 1_555
C48 C42 1_555 1_555
H24 C48 1_555 1_555
Ag6 N10 1_555 1_555
N10 C62 1_555 1_555
Ag1 N1 1_555 1_555
N1 N2 1_555 1_555
N2 C1 1_555 1_555
C1 C2 1_555 1_555
C2 C3 1_555 1_555
C3 H1 1_555 1_555
C7 C2 1_555 1_555
H4 C7 1_555 1_555
C8 C6 1_555 1_555
C17 N1 1_555 1_555
C18 C17 1_555 1_555
C19 C18 1_555 1_555
H9 C19 1_555 1_555
C20 C19 1_555 1_555
H10 C20 1_555 1_555
C21 C20 1_555 1_555
H11 C21 1_555 1_555
C22 C21 1_555 1_555
C23 C18 1_555 1_555
H12 C23 1_555 1_555
C24 C22 1_555 1_555
C25 C24 1_555 1_555
C26 C25 1_555 1_555
C27 C26 1_555 1_555
H13 C27 1_555 1_555
C28 C27 1_555 1_555
C29 C28 1_555 1_555
C31 C29 1_555 1_555
H15 C31 1_555 1_555
C32 C26 1_555 1_555
H16 C32 1_555 1_555
O1 C1 1_555 1_555
Ag2 N2 1_555 1_555
N5 Ag2 1_555 1_555
N6 Ag1 1_555 1_555
N8 Ag1 1_555 1_555
N9 Ag2 1_555 1_555
N11 Ag1 1_555 1_555
N12 Ag2 1_555 1_555
C33 N6 1_555 1_555
C34 C33 1_555 1_555
C35 C34 1_555 1_555
H17 C35 1_555 1_555
C36 C35 1_555 1_555
H18 C36 1_555 1_555
C37 C36 1_555 1_555
H19 C37 1_555 1_555
C38 C37 1_555 1_555
C39 C34 1_555 1_555
H20 C39 1_555 1_555
C40 C38 1_555 1_555
C49 N5 1_555 1_555
C50 C49 1_555 1_555
C51 C50 1_555 1_555
H25 C51 1_555 1_555
C55 C50 1_555 1_555
H28 C55 1_555 1_555
H29 C59 1_555 1_555
C60 C59 1_555 1_555
O2 C33 1_555 1_555
C6 C7 1_555 1_555
C17 O1 1_555 1_555
C22 C23 1_555 1_555
C31 C32 1_555 1_555
N5 N6 1_555 1_555
C38 C39 1_555 1_555
C49 O2 1_555 1_555
C54 C55 1_555 1_555
N3 C14 1_555 1_555
H2 C4 1_555 1_555
C5 C4 1_555 1_555
H3 C5 1_555 1_555
H5 C11 1_555 1_555
C12 C11 1_555 1_555
H6 C12 1_555 1_555
C13 C12 1_555 1_555
C14 C13 1_555 1_555
Ag6 N3 1_555 1_555
N9 C14_2 1_555 1_555
C14_2 C13_2 1_555 1_555
N8 C46 1_555 1_555
C46 C45 1_555 1_555
C47 C45 1_555 1_555
H23 C47 1_555 1_555
N1_2 N2_2 1_555 1_555
N2_2 C1_2 1_555 1_555
N11 C30 1_555 1_555
C1_2 C2_2 1_555 1_555
C2_2 C3_2 1_555 1_555
C3_2 H1_2 1_555 1_555
C7_2 C2_2 1_555 1_555
H4_2 C7_2 1_555 1_555
C8_2 C6_2 1_555 1_555
C9 C8_2 1_555 1_555
C10 C9 1_555 1_555
H7 C15 1_555 1_555
C16 C10 1_555 1_555
H8 C16 1_555 1_555
C17_2 N1_2 1_555 1_555
C18_2 C17_2 1_555 1_555
C19_2 C18_2 1_555 1_555
H9_2 C19_2 1_555 1_555
C20_2 C19_2 1_555 1_555
H10_2 C20_2 1_555 1_555
C21_2 C20_2 1_555 1_555
H11_2 C21_2 1_555 1_555
C22_2 C21_2 1_555 1_555
C23_2 C18_2 1_555 1_555
H12_2 C23_2 1_555 1_555
C24_2 C22_2 1_555 1_555
C25_2 C24_2 1_555 1_555
C26_2 C25_2 1_555 1_555
C27_2 C26_2 1_555 1_555
H13_2 C27_2 1_555 1_555
C28_2 C27_2 1_555 1_555
H14 C28_2 1_555 1_555
C29_2 C28_2 1_555 1_555
C30 C29_2 1_555 1_555
C31_2 C29_2 1_555 1_555
H15_2 C31_2 1_555 1_555
C32_2 C26_2 1_555 1_555
H16_2 C32_2 1_555 1_555
O1_2 C1_2 1_555 1_555
Ag6 N2_2 1_555 1_555
C6_2 C7_2 1_555 1_555
C15 C16 1_555 1_555
C17_2 O1_2 1_555 1_555
C22_2 C23_2 1_555 1_555
C31_2 C32_2 1_555 1_555
N12 C62_2 1_555 1_555
H26 C52 1_555 1_555
C53 C52 1_555 1_555
H27 C53 1_555 1_555
C57 C56 1_555 1_555
C58 C57 1_555 1_555
C62_2 C61 1_555 1_555
C63 C61 1_555 1_555
H31 C63 1_555 1_555
C64 C58 1_555 1_555
H32 C64 1_555 1_555
C63 C64 1_555 1_555
Ag5 N7 1_555 1_555
N7 C46_2 1_555 1_555
C46_2 C45_2 1_555 1_555
C47_2 C45_2 1_555 1_555
H23_2 C47_2 1_555 1_555
N3_2 C14_3 1_555 1_555
C14_3 C13_3 1_555 1_555
Ag3 N3_2 1_555 1_555
Ag3 N10_2 1_555 1_555
N10_2 C62_3 1_555 1_555
H26_2 C52_2 1_555 1_555
C53_2 C52_2 1_555 1_555
H27_2 C53_2 1_555 1_555
C57_2 C56_2 1_555 1_555
C58_2 C57_2 1_555 1_555
C62_3 C61_2 1_555 1_555
C63_2 C61_2 1_555 1_555
H31_2 C63_2 1_555 1_555
C64_2 C58_2 1_555 1_555
H32_2 C64_2 1_555 1_555
C63_2 C64_2 1_555 1_555
N1_3 N2_3 1_555 1_555
N2_3 C1_3 1_555 1_555
N4 C30_2 1_555 1_555
C1_3 C2_3 1_555 1_555
C2_3 C3_3 1_555 1_555
C3_3 H1_3 1_555 1_555
C7_3 C2_3 1_555 1_555
H4_3 C7_3 1_555 1_555
C8_3 C6_3 1_555 1_555
C9_2 C8_3 1_555 1_555
C10_2 C9_2 1_555 1_555
H7_2 C15_2 1_555 1_555
C16_2 C10_2 1_555 1_555
H8_2 C16_2 1_555 1_555
C17_3 N1_3 1_555 1_555
C18_3 C17_3 1_555 1_555
C19_3 C18_3 1_555 1_555
H9_3 C19_3 1_555 1_555
C20_3 C19_3 1_555 1_555
H10_3 C20_3 1_555 1_555
C21_3 C20_3 1_555 1_555
H11_3 C21_3 1_555 1_555
C22_3 C21_3 1_555 1_555
C23_3 C18_3 1_555 1_555
H12_3 C23_3 1_555 1_555
C24_3 C22_3 1_555 1_555
C25_3 C24_3 1_555 1_555
C26_3 C25_3 1_555 1_555
C27_3 C26_3 1_555 1_555
H13_3 C27_3 1_555 1_555
C28_3 C27_3 1_555 1_555
H14_2 C28_3 1_555 1_555
C29_3 C28_3 1_555 1_555
C30_2 C29_3 1_555 1_555
C31_3 C29_3 1_555 1_555
H15_3 C31_3 1_555 1_555
C32_3 C26_3 1_555 1_555
H16_3 C32_3 1_555 1_555
O1_3 C1_3 1_555 1_555
Ag2_2 N2_3 1_555 1_555
Ag5 N4 1_555 1_555
N9_2 Ag2_2 1_555 1_555
N12_2 Ag2_2 1_555 1_555
C6_3 C7_3 1_555 1_555
C15_2 C16_2 1_555 1_555
C17_3 O1_3 1_555 1_555
C22_3 C23_3 1_555 1_555
C31_3 C32_3 1_555 1_555
Ag5 N1_4 1_555 1_555
N1_4 N2_4 1_555 1_555
N2_4 C1_4 1_555 1_555
C1_4 C2_4 1_555 1_555
C2_4 C3_4 1_555 1_555
C3_4 H1_4 1_555 1_555
C7_4 C2_4 1_555 1_555
H4_4 C7_4 1_555 1_555
C8_4 C6_4 1_555 1_555
C17_4 N1_4 1_555 1_555
C18_4 C17_4 1_555 1_555
C19_4 C18_4 1_555 1_555
H9_4 C19_4 1_555 1_555
C20_4 C19_4 1_555 1_555
H10_4 C20_4 1_555 1_555
C21_4 C20_4 1_555 1_555
H11_4 C21_4 1_555 1_555
C22_4 C21_4 1_555 1_555
C23_4 C18_4 1_555 1_555
H12_4 C23_4 1_555 1_555
C24_4 C22_4 1_555 1_555
C25_4 C24_4 1_555 1_555
C26_4 C25_4 1_555 1_555
C27_4 C26_4 1_555 1_555
H13_4 C27_4 1_555 1_555
C28_4 C27_4 1_555 1_555
C29_4 C28_4 1_555 1_555
C31_4 C29_4 1_555 1_555
H15_4 C31_4 1_555 1_555
C32_4 C26_4 1_555 1_555
H16_4 C32_4 1_555 1_555
O1_4 C1_4 1_555 1_555
Ag3 N2_4 1_555 1_555
N5_2 Ag3 1_555 1_555
N6_2 Ag5 1_555 1_555
C33_2 N6_2 1_555 1_555
C34_2 C33_2 1_555 1_555
C35_2 C34_2 1_555 1_555
H17_2 C35_2 1_555 1_555
C36_2 C35_2 1_555 1_555
H18_2 C36_2 1_555 1_555
C37_2 C36_2 1_555 1_555
H19_2 C37_2 1_555 1_555
C38_2 C37_2 1_555 1_555
C39_2 C34_2 1_555 1_555
H20_2 C39_2 1_555 1_555
C40_2 C38_2 1_555 1_555
C49_2 N5_2 1_555 1_555
C50_2 C49_2 1_555 1_555
C51_2 C50_2 1_555 1_555
H25_2 C51_2 1_555 1_555
C55_2 C50_2 1_555 1_555
H28_2 C55_2 1_555 1_555
H29_2 C59_2 1_555 1_555
C60_2 C59_2 1_555 1_555
O2_2 C33_2 1_555 1_555
C6_4 C7_4 1_555 1_555
C17_4 O1_4 1_555 1_555
C22_4 C23_4 1_555 1_555
C31_4 C32_4 1_555 1_555
N5_2 N6_2 1_555 1_555
C38_2 C39_2 1_555 1_555
C49_2 O2_2 1_555 1_555
C54_2 C55_2 1_555 1_555
N12_2 C62_4 1_555 1_555
N9_2 C14_4 1_555 1_555
H2_2 C4_2 1_555 1_555
C5_2 C4_2 1_555 1_555
H3_2 C5_2 1_555 1_555
H5_2 C11_2 1_555 1_555
C12_2 C11_2 1_555 1_555
H6_2 C12_2 1_555 1_555
C13_4 C12_2 1_555 1_555
C14_4 C13_4 1_555 1_555
H2_3 C4_3 1_555 1_555
C5_3 C4_3 1_555 1_555
H3_3 C5_3 1_555 1_555
H26_3 C52_3 1_555 1_555
C53_3 C52_3 1_555 1_555
H27_3 C53_3 1_555 1_555
C57_3 C56_3 1_555 1_555
C58_3 C57_3 1_555 1_555
C63_3 C61_3 1_555 1_555
H31_3 C63_3 1_555 1_555
C64_3 C58_3 1_555 1_555
H32_3 C64_3 1_555 1_555
C63_3 C64_3 1_555 1_555
N4_2 C30_3 1_555 1_555
C10_3 C9_3 1_555 1_555
C16_3 C10_3 1_555 1_555
H8_3 C16_3 1_555 1_555
Ag4 N4_2 1_555 1_555
Ag4 N7_2 1_555 1_555
N6_3 Ag1_2 1_555 1_555
N7_2 C46_3 1_555 1_555
N8_2 Ag1_2 1_555 1_555
N11_2 Ag1_2 1_555 1_555
C33_3 N6_3 1_555 1_555
C34_3 C33_3 1_555 1_555
C35_3 C34_3 1_555 1_555
H17_3 C35_3 1_555 1_555
C36_3 C35_3 1_555 1_555
H18_3 C36_3 1_555 1_555
C37_3 C36_3 1_555 1_555
H19_3 C37_3 1_555 1_555
C38_3 C37_3 1_555 1_555
C39_3 C34_3 1_555 1_555
H20_3 C39_3 1_555 1_555
C40_3 C38_3 1_555 1_555
C41_2 C40_3 1_555 1_555
C42_2 C41_2 1_555 1_555
C43_2 C42_2 1_555 1_555
H21_2 C43_2 1_555 1_555
C44_2 C43_2 1_555 1_555
H22_2 C44_2 1_555 1_555
C45_3 C44_2 1_555 1_555
C46_3 C45_3 1_555 1_555
C47_3 C45_3 1_555 1_555
H23_3 C47_3 1_555 1_555
C48_2 C42_2 1_555 1_555
H24_2 C48_2 1_555 1_555
C49_3 N5_3 1_555 1_555
C50_3 C49_3 1_555 1_555
C51_3 C50_3 1_555 1_555
H25_3 C51_3 1_555 1_555
C55_3 C50_3 1_555 1_555
H28_3 C55_3 1_555 1_555
H29_3 C59_3 1_555 1_555
C60_3 C59_3 1_555 1_555
H30_2 C60_3 1_555 1_555
O2_3 C33_3 1_555 1_555
N5_3 N6_3 1_555 1_555
C38_3 C39_3 1_555 1_555
C47_3 C48_2 1_555 1_555
C49_3 O2_3 1_555 1_555
C54_3 C55_3 1_555 1_555
N11_2 C30_4 1_555 1_555
C10_4 C9_4 1_555 1_555
C16_4 C10_4 1_555 1_555
H8_4 C16_4 1_555 1_555
N6_4 Ag4 1_555 1_555
N8_2 C46_4 1_555 1_555
C33_4 N6_4 1_555 1_555
C34_4 C33_4 1_555 1_555
C35_4 C34_4 1_555 1_555
H17_4 C35_4 1_555 1_555
C36_4 C35_4 1_555 1_555
H18_4 C36_4 1_555 1_555
C37_4 C36_4 1_555 1_555
H19_4 C37_4 1_555 1_555
C38_4 C37_4 1_555 1_555
C39_4 C34_4 1_555 1_555
H20_4 C39_4 1_555 1_555
C40_4 C38_4 1_555 1_555
C41_3 C40_4 1_555 1_555
C42_3 C41_3 1_555 1_555
C43_3 C42_3 1_555 1_555
H21_3 C43_3 1_555 1_555
C44_3 C43_3 1_555 1_555
H22_3 C44_3 1_555 1_555
C45_4 C44_3 1_555 1_555
C46_4 C45_4 1_555 1_555
C47_4 C45_4 1_555 1_555
H23_4 C47_4 1_555 1_555
C48_3 C42_3 1_555 1_555
H24_3 C48_3 1_555 1_555
C49_4 N5_4 1_555 1_555
C50_4 C49_4 1_555 1_555
C51_4 C50_4 1_555 1_555
H25_4 C51_4 1_555 1_555
C55_4 C50_4 1_555 1_555
H28_4 C55_4 1_555 1_555
H29_4 C59_4 1_555 1_555
C60_4 C59_4 1_555 1_555
H30_3 C60_4 1_555 1_555
O2_4 C33_4 1_555 1_555
N5_4 N6_4 1_555 1_555
C38_4 C39_4 1_555 1_555
C47_4 C48_3 1_555 1_555
C49_4 O2_4 1_555 1_555
C54_4 C55_4 1_555 1_555
H5_3 C11_3 1_555 1_555
C12_3 C11_3 1_555 1_555
H6_3 C12_3 1_555 1_555
H7_3 C15_3 1_555 1_555
H7_4 C15_4 1_555 1_555
H5_4 C11_4 1_555 1_555
C12_4 C11_4 1_555 1_555
H6_4 C12_4 1_555 1_555
H2_4 C4_4 1_555 1_555
C5_4 C4_4 1_555 1_555
H3_4 C5_4 1_555 1_555
H26_4 C52_4 1_555 1_555
C53_4 C52_4 1_555 1_555
H27_4 C53_4 1_555 1_555
C57_4 C56_4 1_555 1_555
C58_4 C57_4 1_555 1_555
C63_4 C61_4 1_555 1_555
H31_4 C63_4 1_555 1_555
C64_4 C58_4 1_555 1_555
H32_4 C64_4 1_555 1_555
C63_4 C64_4 1_555 1_555
C42_4 C41_4 1_555 1_555
C43_4 C42_4 1_555 1_555
H21_4 C43_4 1_555 1_555
C44_4 C43_4 1_555 1_555
H22_4 C44_4 1_555 1_555
C48_4 C42_4 1_555 1_555
H24_4 C48_4 1_555 1_555
O3 Cl1 1_555 1_555
Cl1 O5 1_555 1_555
Cl1_2 O5_2 1_555 1_555
O6_2 Cl1_2 1_555 1_555
O3_2 Cl1_3 1_555 1_555
O4_2 Cl1_3 1_555 1_555
O3_3 Cl1_4 1_555 1_555
Cl1_4 O5_3 1_555 1_555
O3_4 Cl1_5 1_555 1_555
O4_4 Cl1_5 1_555 1_555
Cl1_6 O5_4 1_555 1_555
O6_4 Cl1_6 1_555 1_555
O7 Cl2 1_555 1_555
O8 Cl2 1_555 1_555
Cl2 O9 1_555 1_555
O10 Cl2 1_555 1_555
O8_2 Cl2_2 1_555 1_555
Cl2_2 O9_2 1_555 1_555
O7_2 Cl2_3 1_555 1_555
O10_2 Cl2_3 1_555 1_555
O7_3 Cl2_4 1_555 1_555
O8_3 Cl2_4 1_555 1_555
Cl2_4 O9_3 1_555 1_555
O10_3 Cl2_4 1_555 1_555
O7_4 Cl2_5 1_555 1_555
O10_4 Cl2_5 1_555 1_555
O8_4 Cl2_6 1_555 1_555
Cl2_6 O9_4 1_555 1_555

#END
