
###############################################################################
#
# This file contains modified crystal structure data generated from the
# MOF subset of the Cambridge Structural Database (CSD) v543 
# hosted by the Cambridge Crystallographic Data Centre (CCDC).
#
# This work is licensed under the Creative Commons
# Attribution-NonCommercial-ShareAlike 4.0 International License.
# To view a copy of this license, visit
# http://creativecommons.org/licenses/by-nc-sa/4.0/
# or send a letter to
# Creative Commons, PO Box 1866, Mountain View, CA 94042, USA.
#
# CIF created using the CSD Python API on 29 September 2022
# The structure has been converted into the P1 space group
# The structure has a 3D framework
# The original CSD entry WEJYAP is in the tetragonal crystal system
# The framework has been calculated to contain at least 10.0% void space
# The void calculation uses a probe of radius 1.32A, grid spacing 0.4
#
###############################################################################

data_WEJYAP
_chemical_formula_moiety         '(C144 H96 N48 O32 Zn16)n'
_symmetry_cell_setting           triclinic
_symmetry_space_group_name_H-M   'P 1'
_symmetry_Int_Tables_number      1
_space_group_name_Hall           'P 1'
loop_
_symmetry_equiv_pos_site_id
_symmetry_equiv_pos_as_xyz
1 x,y,z
_cell_length_a                   13.4678(3)
_cell_length_b                   13.4678(3)
_cell_length_c                   35.6671(12)
_cell_angle_alpha                90
_cell_angle_beta                 90
_cell_angle_gamma                90
_cell_volume                     6469.36
loop_
_atom_site_label
_atom_site_type_symbol
_atom_site_fract_x
_atom_site_fract_y
_atom_site_fract_z
Zn1 Zn 0.02025(4) 0.59041(4) 0.039736(14)
C1 C 0.0055(7) 0.5901(6) 0.11107(19)
C2 C 0.0160(7) 0.5758(8) 0.1526(2)
C3 C 0.0844(9) 0.5120(10) 0.1664(2)
H1 H 0.1251 0.4768 0.1500
C4 C 0.0943(10) 0.4987(11) 0.2054(2)
H2 H 0.1413 0.4545 0.2146
C5 C 0.0362(11) 0.5496(11) 0.22928(19)
N3 N 0.0147(3) 0.7332(3) 0.02478(11)
O2 O 0.0657(5) 0.5492(5) 0.08985(13)
C10 C 0.0901(6) 0.5055(7) 0.38893(19)
C11 C 0.0758(8) 0.5160(7) 0.3474(2)
C12 C 0.0120(10) 0.5844(9) 0.3336(2)
C14 C 0.0496(11) 0.5362(11) 0.27072(19)
C15 C 0.1104(14) 0.4700(14) 0.2859(2)
H9 H 0.1473 0.4294 0.2700
C16 C 0.1218(13) 0.4583(12) 0.3244(2)
H10 H 0.1629 0.4084 0.3337
O3 O 0.1441(4) 0.4365(5) 0.40115(12)
O4 O 0.0492(5) 0.5657(5) 0.41015(13)
Zn4 Zn 0.09041(4) 0.52025(4) 0.460264(14)
N9 N 0.1245(3) 0.5386(3) 0.00421(11)
C8 C 0.0598(4) 0.7802(4) 0.99686(13)
H5 H 0.1019 0.7491 0.9799
N2 N 0.0386(3) 0.8755(3) 0.99579(11)
Zn6 Zn 0.09041(4) 0.97975(4) 0.960264(14)
Zn2 Zn 0.90959(4) 0.02025(4) 0.039736(14)
N6 N 0.7668(3) 0.0147(3) 0.02478(11)
N8 N 0.9614(3) 0.1245(3) 0.00421(11)
O6 O 0.9508(5) 0.0657(5) 0.08985(13)
C17 C 0.7198(4) 0.0598(4) 0.99686(13)
H11 H 0.7509 0.1019 0.9799
N5 N 0.6245(3) 0.0386(3) 0.99579(11)
Zn5 Zn 0.52025(4) 0.09041(4) 0.960264(14)
C6 C 0.9700(14) 0.6104(14) 0.2141(2)
H3 H 0.9294 0.6473 0.2300
C7 C 0.9583(12) 0.6218(13) 0.1756(2)
H4 H 0.9084 0.6629 0.1663
C9 C 0.9618(4) 0.8051(4) 0.04120(13)
H6 H 0.9208 0.7949 0.0618
N1 N 0.9744(3) 0.8916(3) 0.02492(11)
O1 O 0.9365(5) 0.6441(4) 0.09885(12)
H7 H 0.9768 0.6251 0.3500
C13 C 0.9987(11) 0.5943(10) 0.2946(2)
H8 H 0.9545 0.6413 0.2854
C18 C 0.6949(4) 0.9618(4) 0.04120(13)
H12 H 0.7051 0.9208 0.0618
N4 N 0.6084(3) 0.9744(3) 0.02492(11)
Zn3 Zn 0.47975(4) 0.90959(4) 0.039736(14)
N7 N 0.8916(3) 0.5256(3) 0.02492(11)
O5 O 0.8559(4) 0.9365(5) 0.09885(12)
H1_2 H 0.3749 0.0232 0.1500
C4_2 C 0.4057(10) 0.0013(11) 0.2054(2)
H2_2 H 0.3587 0.0455 0.2146
C15_2 C 0.3896(14) 0.0300(14) 0.2859(2)
H9_2 H 0.3527 0.0706 0.2700
C16_2 C 0.3782(13) 0.0417(12) 0.3244(2)
H10_2 H 0.3371 0.0916 0.3337
O3_2 O 0.3559(4) 0.0635(5) 0.40115(12)
C1_2 C 0.4945(7) 0.9099(6) 0.11107(19)
C2_2 C 0.4840(7) 0.9242(8) 0.1526(2)
C3_2 C 0.4156(9) 0.9880(10) 0.1664(2)
C5_2 C 0.4638(11) 0.9504(11) 0.22928(19)
C6_2 C 0.5300(14) 0.8896(14) 0.2141(2)
H3_2 H 0.5706 0.8527 0.2300
C7_2 C 0.5417(12) 0.8782(13) 0.1756(2)
H4_2 H 0.5916 0.8371 0.1663
C9_2 C 0.5382(4) 0.6949(4) 0.04120(13)
H6_2 H 0.5792 0.7051 0.0618
N1_2 N 0.5256(3) 0.6084(3) 0.02492(11)
N3_2 N 0.4853(3) 0.7668(3) 0.02478(11)
O1_2 O 0.5635(5) 0.8559(4) 0.09885(12)
O2_2 O 0.4343(5) 0.9508(5) 0.08985(13)
C10_2 C 0.4099(6) 0.9945(7) 0.38893(19)
C11_2 C 0.4242(8) 0.9840(7) 0.3474(2)
C12_2 C 0.4880(10) 0.9156(9) 0.3336(2)
H7_2 H 0.5232 0.8749 0.3500
C13_2 C 0.5013(11) 0.9057(10) 0.2946(2)
H8_2 H 0.5455 0.8587 0.2854
C14_2 C 0.4504(11) 0.9638(11) 0.27072(19)
O4_2 O 0.4508(5) 0.9343(5) 0.41015(13)
Zn2_2 Zn 0.59041(4) 0.47975(4) 0.039736(14)
C18_2 C 0.8051(4) 0.5382(4) 0.04120(13)
H12_2 H 0.7949 0.5792 0.0618
N6_2 N 0.7332(3) 0.4853(3) 0.02478(11)
Zn4_2 Zn 0.40959(4) 0.97975(4) 0.460264(14)
N8_2 N 0.5386(3) 0.3755(3) 0.00421(11)
N9_2 N 0.3755(3) 0.9614(3) 0.00421(11)
O5_2 O 0.6441(4) 0.5635(5) 0.09885(12)
O6_2 O 0.5492(5) 0.4343(5) 0.08985(13)
C8_2 C 0.4402(4) 0.7198(4) 0.99686(13)
H5_2 H 0.3981 0.7509 0.9799
N2_2 N 0.4614(3) 0.6245(3) 0.99579(11)
C17_2 C 0.7802(4) 0.4402(4) 0.99686(13)
H11_2 H 0.7491 0.3981 0.9799
N5_2 N 0.8755(3) 0.4614(3) 0.99579(11)
Zn5_2 Zn 0.97975(4) 0.40959(4) 0.960264(14)
Zn6_2 Zn 0.40959(4) 0.52025(4) 0.960264(14)
H1_3 H 0.0232 0.1251 0.1500
C4_3 C 0.0013(11) 0.0943(10) 0.2054(2)
H2_3 H 0.0455 0.1413 0.2146
C15_3 C 0.0300(14) 0.1104(14) 0.2859(2)
H9_3 H 0.0706 0.1473 0.2700
C16_3 C 0.0417(12) 0.1218(13) 0.3244(2)
H10_3 H 0.0916 0.1629 0.3337
O3_3 O 0.0635(5) 0.1441(4) 0.40115(12)
C1_3 C 0.9099(6) 0.0055(7) 0.11107(19)
C2_3 C 0.9242(8) 0.0160(7) 0.1526(2)
C3_3 C 0.9880(10) 0.0844(9) 0.1664(2)
C5_3 C 0.9504(11) 0.0362(11) 0.22928(19)
C10_3 C 0.9945(7) 0.0901(6) 0.38893(19)
C11_3 C 0.9840(7) 0.0758(8) 0.3474(2)
C12_3 C 0.9156(9) 0.0120(10) 0.3336(2)
C14_3 C 0.9638(11) 0.0496(11) 0.27072(19)
O4_3 O 0.9343(5) 0.0492(5) 0.41015(13)
Zn4_3 Zn 0.97975(4) 0.09041(4) 0.460264(14)
C6_3 C 0.8896(14) 0.9700(14) 0.2141(2)
H3_3 H 0.8527 0.9294 0.2300
C7_3 C 0.8782(13) 0.9583(12) 0.1756(2)
H4_3 H 0.8371 0.9084 0.1663
H7_3 H 0.8749 0.9768 0.3500
C13_3 C 0.9057(10) 0.9987(11) 0.2946(2)
H8_3 H 0.8587 0.9545 0.2854
C1_4 C 0.5901(6) 0.4945(7) 0.11107(19)
C2_4 C 0.5758(8) 0.4840(7) 0.1526(2)
C3_4 C 0.5120(10) 0.4156(9) 0.1664(2)
H1_4 H 0.4768 0.3749 0.1500
C4_4 C 0.4987(11) 0.4057(10) 0.2054(2)
H2_4 H 0.4545 0.3587 0.2146
C5_4 C 0.5496(11) 0.4638(11) 0.22928(19)
C6_4 C 0.6104(14) 0.5300(14) 0.2141(2)
H3_4 H 0.6473 0.5706 0.2300
C7_4 C 0.6218(13) 0.5417(12) 0.1756(2)
H4_4 H 0.6629 0.5916 0.1663
C10_4 C 0.5055(7) 0.4099(6) 0.38893(19)
C11_4 C 0.5160(7) 0.4242(8) 0.3474(2)
C12_4 C 0.5844(9) 0.4880(10) 0.3336(2)
H7_4 H 0.6251 0.5232 0.3500
C13_4 C 0.5943(10) 0.5013(11) 0.2946(2)
H8_4 H 0.6413 0.5455 0.2854
C14_4 C 0.5362(11) 0.4504(11) 0.27072(19)
C15_4 C 0.4700(14) 0.3896(14) 0.2859(2)
H9_4 H 0.4294 0.3527 0.2700
C16_4 C 0.4583(12) 0.3782(13) 0.3244(2)
H10_4 H 0.4084 0.3371 0.3337
O3_4 O 0.4365(5) 0.3559(4) 0.40115(12)
O4_4 O 0.5657(5) 0.4508(5) 0.41015(13)
Zn4_4 Zn 0.52025(4) 0.40959(4) 0.460264(14)
C9_3 C 0.0382(4) 0.3051(4) 0.45880(13)
H6_3 H 0.0792 0.2949 0.4382
N1_3 N 0.0256(3) 0.3916(3) 0.47508(11)
C17_3 C 0.2802(4) 0.5598(4) 0.50314(13)
H11_3 H 0.2491 0.6019 0.5201
C18_3 C 0.3051(4) 0.4618(4) 0.45880(13)
H12_3 H 0.2949 0.4208 0.4382
N4_2 N 0.3916(3) 0.4744(3) 0.47508(11)
N5_3 N 0.3755(3) 0.5386(3) 0.50421(11)
N6_3 N 0.2332(3) 0.5147(3) 0.47522(11)
Zn5_3 Zn 0.47975(4) 0.59041(4) 0.539736(14)
N7_2 N 0.1084(3) 0.0256(3) 0.47508(11)
N8_3 N 0.0386(3) 0.6245(3) 0.49579(11)
C8_3 C 0.9402(4) 0.2802(4) 0.50314(13)
H5_3 H 0.8981 0.2491 0.5201
N2_3 N 0.9614(3) 0.3755(3) 0.50421(11)
N3_3 N 0.9853(3) 0.2332(3) 0.47522(11)
Zn6_3 Zn 0.90959(4) 0.47975(4) 0.539736(14)
N9_3 N 0.8755(3) 0.0386(3) 0.49579(11)
C8_4 C 0.5598(4) 0.2198(4) 0.50314(13)
H5_4 H 0.6019 0.2509 0.5201
C9_4 C 0.4618(4) 0.1949(4) 0.45880(13)
H6_4 H 0.4208 0.2051 0.4382
N1_4 N 0.4744(3) 0.1084(3) 0.47508(11)
N2_4 N 0.5386(3) 0.1245(3) 0.50421(11)
N3_4 N 0.5147(3) 0.2668(3) 0.47522(11)
C18_4 C 0.1949(4) 0.0382(4) 0.45880(13)
H12_4 H 0.2051 0.0792 0.4382
Zn6_4 Zn 0.59041(4) 0.02025(4) 0.539736(14)
N9_4 N 0.6245(3) 0.4614(3) 0.49579(11)
C17_4 C 0.2198(4) 0.9402(4) 0.50314(13)
H11_4 H 0.2509 0.8981 0.5201
N5_4 N 0.1245(3) 0.9614(3) 0.50421(11)
N6_4 N 0.2668(3) 0.9853(3) 0.47522(11)
Zn5_4 Zn 0.02025(4) 0.90959(4) 0.539736(14)
N8_4 N 0.4614(3) 0.8755(3) 0.49579(11)
C6_5 C 0.0300(14) 0.3896(14) 0.7859(2)
H3_5 H 0.0706 0.3527 0.7700
C7_5 C 0.0417(12) 0.3782(13) 0.8244(2)
H4_5 H 0.0916 0.3371 0.8337
C9_5 C 0.0382(4) 0.1949(4) 0.95880(13)
H6_5 H 0.0792 0.2051 0.9382
N1_5 N 0.0256(3) 0.1084(3) 0.97508(11)
O1_3 O 0.0635(5) 0.3559(4) 0.90115(12)
H7_5 H 0.0232 0.3749 0.6500
C13_5 C 0.0013(11) 0.4057(10) 0.7054(2)
H8_5 H 0.0455 0.3587 0.7146
C18_5 C 0.3051(4) 0.0382(4) 0.95880(13)
H12_5 H 0.2949 0.0792 0.9382
N4_3 N 0.3916(3) 0.0256(3) 0.97508(11)
N7_3 N 0.1084(3) 0.4744(3) 0.97508(11)
O5_3 O 0.1441(4) 0.0635(5) 0.90115(12)
C17_5 C 0.2802(4) 0.9402(4) 0.00314(13)
H11_5 H 0.2491 0.8981 0.0201
N6_5 N 0.2332(3) 0.9853(3) 0.97522(11)
O6_3 O 0.0492(5) 0.9343(5) 0.91015(13)
C8_5 C 0.9402(4) 0.2198(4) 0.00314(13)
H5_5 H 0.8981 0.2509 0.0201
C1_5 C 0.9945(7) 0.4099(6) 0.88893(19)
C2_5 C 0.9840(7) 0.4242(8) 0.8474(2)
C3_5 C 0.9156(9) 0.4880(10) 0.8336(2)
H1_5 H 0.8749 0.5232 0.8500
C4_5 C 0.9057(10) 0.5013(11) 0.7946(2)
H2_5 H 0.8587 0.5455 0.7854
C5_5 C 0.9638(11) 0.4504(11) 0.77072(19)
N3_5 N 0.9853(3) 0.2668(3) 0.97522(11)
O2_3 O 0.9343(5) 0.4508(5) 0.91015(13)
C10_5 C 0.9099(6) 0.4945(7) 0.61107(19)
C11_5 C 0.9242(8) 0.4840(7) 0.6526(2)
C12_5 C 0.9880(10) 0.4156(9) 0.6664(2)
C14_5 C 0.9504(11) 0.4638(11) 0.72928(19)
C15_5 C 0.8896(14) 0.5300(14) 0.7141(2)
H9_5 H 0.8527 0.5706 0.7300
C16_5 C 0.8782(13) 0.5417(12) 0.6756(2)
H10_5 H 0.8371 0.5916 0.6663
O3_5 O 0.8559(4) 0.5635(5) 0.59885(12)
O4_5 O 0.9508(5) 0.4343(5) 0.58985(13)
C8_6 C 0.5598(4) 0.2802(4) 0.00314(13)
H5_6 H 0.6019 0.2491 0.0201
C17_6 C 0.2198(4) 0.5598(4) 0.00314(13)
H11_6 H 0.2509 0.6019 0.0201
C1_6 C 0.5055(7) 0.0901(6) 0.88893(19)
C2_6 C 0.5160(7) 0.0758(8) 0.8474(2)
C3_6 C 0.5844(9) 0.0120(10) 0.8336(2)
C5_6 C 0.5362(11) 0.0496(11) 0.77072(19)
C6_6 C 0.4700(14) 0.1104(14) 0.7859(2)
H3_6 H 0.4294 0.1473 0.7700
C7_6 C 0.4583(12) 0.1218(13) 0.8244(2)
H4_6 H 0.4084 0.1629 0.8337
C9_6 C 0.4618(4) 0.3051(4) 0.95880(13)
H6_6 H 0.4208 0.2949 0.9382
N1_6 N 0.4744(3) 0.3916(3) 0.97508(11)
N3_6 N 0.5147(3) 0.2332(3) 0.97522(11)
O1_4 O 0.4365(5) 0.1441(4) 0.90115(12)
O2_4 O 0.5657(5) 0.0492(5) 0.91015(13)
C10_6 C 0.5901(6) 0.0055(7) 0.61107(19)
C11_6 C 0.5758(8) 0.0160(7) 0.6526(2)
C12_6 C 0.5120(10) 0.0844(9) 0.6664(2)
H7_6 H 0.4768 0.1251 0.6500
C13_6 C 0.4987(11) 0.0943(10) 0.7054(2)
H8_6 H 0.4545 0.1413 0.7146
C14_6 C 0.5496(11) 0.0362(11) 0.72928(19)
O4_6 O 0.5492(5) 0.0657(5) 0.58985(13)
C18_6 C 0.1949(4) 0.4618(4) 0.95880(13)
H12_6 H 0.2051 0.4208 0.9382
N6_6 N 0.2668(3) 0.5147(3) 0.97522(11)
O5_4 O 0.3559(4) 0.4365(5) 0.90115(12)
O6_4 O 0.4508(5) 0.5657(5) 0.91015(13)
H1_6 H 0.6251 0.9768 0.8500
C4_6 C 0.5943(10) 0.9987(11) 0.7946(2)
H2_6 H 0.6413 0.9545 0.7854
C15_6 C 0.6104(14) 0.9700(14) 0.7141(2)
H9_6 H 0.6473 0.9294 0.7300
C16_6 C 0.6218(13) 0.9583(12) 0.6756(2)
H10_6 H 0.6629 0.9084 0.6663
O3_6 O 0.6441(4) 0.9365(5) 0.59885(12)
C6_7 C 0.1104(14) 0.0300(14) 0.7859(2)
H3_7 H 0.1473 0.0706 0.7700
C7_7 C 0.1218(13) 0.0417(12) 0.8244(2)
H4_7 H 0.1629 0.0916 0.8337
H7_7 H 0.1251 0.0232 0.6500
C13_7 C 0.0943(10) 0.0013(11) 0.7054(2)
H8_7 H 0.1413 0.0455 0.7146
C1_7 C 0.0901(6) 0.9945(7) 0.88893(19)
C2_7 C 0.0758(8) 0.9840(7) 0.8474(2)
C3_7 C 0.0120(10) 0.9156(9) 0.8336(2)
C5_7 C 0.0496(11) 0.9638(11) 0.77072(19)
C10_7 C 0.0055(7) 0.9099(6) 0.61107(19)
C11_7 C 0.0160(7) 0.9242(8) 0.6526(2)
C12_7 C 0.0844(9) 0.9880(10) 0.6664(2)
C14_7 C 0.0362(11) 0.9504(11) 0.72928(19)
O4_7 O 0.0657(5) 0.9508(5) 0.58985(13)
H1_7 H 0.9768 0.8749 0.8500
C4_7 C 0.9987(11) 0.9057(10) 0.7946(2)
H2_7 H 0.9545 0.8587 0.7854
C15_7 C 0.9700(14) 0.8896(14) 0.7141(2)
H9_7 H 0.9294 0.8527 0.7300
C16_7 C 0.9583(12) 0.8782(13) 0.6756(2)
H10_7 H 0.9084 0.8371 0.6663
O3_7 O 0.9365(5) 0.8559(4) 0.59885(12)
C1_8 C 0.4099(6) 0.5055(7) 0.88893(19)
C2_8 C 0.4242(8) 0.5160(7) 0.8474(2)
C3_8 C 0.4880(10) 0.5844(9) 0.8336(2)
H1_8 H 0.5232 0.6251 0.8500
C4_8 C 0.5013(11) 0.5943(10) 0.7946(2)
H2_8 H 0.5455 0.6413 0.7854
C5_8 C 0.4504(11) 0.5362(11) 0.77072(19)
C6_8 C 0.3896(14) 0.4700(14) 0.7859(2)
H3_8 H 0.3527 0.4294 0.7700
C7_8 C 0.3782(13) 0.4583(12) 0.8244(2)
H4_8 H 0.3371 0.4084 0.8337
C10_8 C 0.4945(7) 0.5901(6) 0.61107(19)
C11_8 C 0.4840(7) 0.5758(8) 0.6526(2)
C12_8 C 0.4156(9) 0.5120(10) 0.6664(2)
H7_8 H 0.3749 0.4768 0.6500
C13_8 C 0.4057(10) 0.4987(11) 0.7054(2)
H8_8 H 0.3587 0.4545 0.7146
C14_8 C 0.4638(11) 0.5496(11) 0.72928(19)
C15_8 C 0.5300(14) 0.6104(14) 0.7141(2)
H9_8 H 0.5706 0.6473 0.7300
C16_8 C 0.5417(12) 0.6218(13) 0.6756(2)
H10_8 H 0.5916 0.6629 0.6663
O3_8 O 0.5635(5) 0.6441(4) 0.59885(12)
O4_8 O 0.4343(5) 0.5492(5) 0.58985(13)
C8_7 C 0.0598(4) 0.7198(4) 0.49686(13)
H5_7 H 0.1019 0.7509 0.4799
N3_7 N 0.0147(3) 0.7668(3) 0.52478(11)
C9_7 C 0.9618(4) 0.6949(4) 0.54120(13)
H6_7 H 0.9208 0.7051 0.5618
N1_7 N 0.9744(3) 0.6084(3) 0.52492(11)
C17_7 C 0.7198(4) 0.4402(4) 0.49686(13)
H11_7 H 0.7509 0.3981 0.4799
C18_7 C 0.6949(4) 0.5382(4) 0.54120(13)
H12_7 H 0.7051 0.5792 0.5618
N4_4 N 0.6084(3) 0.5256(3) 0.52492(11)
N6_7 N 0.7668(3) 0.4853(3) 0.52478(11)
N7_4 N 0.8916(3) 0.9744(3) 0.52492(11)
C17_8 C 0.7802(4) 0.0598(4) 0.49686(13)
H11_8 H 0.7491 0.1019 0.4799
N6_8 N 0.7332(3) 0.0147(3) 0.52478(11)
C8_8 C 0.4402(4) 0.7802(4) 0.49686(13)
H5_8 H 0.3981 0.7491 0.4799
C9_8 C 0.5382(4) 0.8051(4) 0.54120(13)
H6_8 H 0.5792 0.7949 0.5618
N1_8 N 0.5256(3) 0.8916(3) 0.52492(11)
N3_8 N 0.4853(3) 0.7332(3) 0.52478(11)
C18_8 C 0.8051(4) 0.9618(4) 0.54120(13)
H12_8 H 0.7949 0.9208 0.5618
loop_
_geom_bond_atom_site_label_1
_geom_bond_atom_site_label_2
_geom_bond_site_symmetry_1
_geom_bond_site_symmetry_2
Zn1 N3 1_555 1_555
C1 C2 1_555 1_555
C2 C3 1_555 1_555
C3 H1 1_555 1_555
C4 C3 1_555 1_555
H2 C4 1_555 1_555
C5 C4 1_555 1_555
O2 Zn1 1_555 1_555
C10 C11 1_555 1_555
C11 C12 1_555 1_555
C14 C5 1_555 1_555
C15 C14 1_555 1_555
H9 C15 1_555 1_555
C16 C11 1_555 1_555
H10 C16 1_555 1_555
O3 C10 1_555 1_555
O4 C10 1_555 1_555
Zn4 O3 1_555 1_555
N9 Zn1 1_555 1_555
C1 O2 1_555 1_555
C15 C16 1_555 1_555
O4 Zn4 1_555 1_555
C8 H5 1_555 1_555
N2 C8 1_555 1_555
Zn6 N2 1_555 1_555
N6 Zn2 1_555 1_555
N8 Zn2 1_555 1_555
O6 Zn2 1_555 1_555
C17 H11 1_555 1_555
N5 C17 1_555 1_555
Zn5 N5 1_555 1_555
H3 C6 1_555 1_555
H4 C7 1_555 1_555
C9 H6 1_555 1_555
N1 C9 1_555 1_555
H8 C13 1_555 1_555
C18 H12 1_555 1_555
N4 C18 1_555 1_555
Zn3 N4 1_555 1_555
C6 C7 1_555 1_555
H2_2 C4_2 1_555 1_555
H9_2 C15_2 1_555 1_555
H10_2 C16_2 1_555 1_555
C15_2 C16_2 1_555 1_555
Zn3 N3_2 1_555 1_555
C1_2 C2_2 1_555 1_555
C2_2 C3_2 1_555 1_555
C6_2 C5_2 1_555 1_555
H3_2 C6_2 1_555 1_555
C7_2 C2_2 1_555 1_555
H4_2 C7_2 1_555 1_555
C9_2 H6_2 1_555 1_555
N1_2 C9_2 1_555 1_555
O1_2 Zn3 1_555 1_555
O2_2 Zn3 1_555 1_555
C10_2 C11_2 1_555 1_555
C11_2 C12_2 1_555 1_555
C12_2 H7_2 1_555 1_555
C13_2 C12_2 1_555 1_555
H8_2 C13_2 1_555 1_555
C14_2 C5_2 1_555 1_555
O4_2 C10_2 1_555 1_555
Zn2_2 N1_2 1_555 1_555
C18_2 H12_2 1_555 1_555
N7 C18_2 1_555 1_555
N6_2 Zn2_2 1_555 1_555
N8_2 Zn2_2 1_555 1_555
N9_2 Zn3 1_555 1_555
O5_2 Zn2_2 1_555 1_555
O6_2 Zn2_2 1_555 1_555
C1_2 O1_2 1_555 1_555
C1_2 O2_2 1_555 1_555
C6_2 C7_2 1_555 1_555
C9_2 N3_2 1_555 1_555
C13_2 C14_2 1_555 1_555
O4_2 Zn4_2 1_555 1_555
C18_2 N6_2 1_555 1_555
C8_2 H5_2 1_555 1_555
N2_2 C8_2 1_555 1_555
C17_2 H11_2 1_555 1_555
N5_2 C17_2 1_555 1_555
Zn5_2 N5_2 1_555 1_555
Zn6_2 N2_2 1_555 1_555
H2_3 C4_3 1_555 1_555
H9_3 C15_3 1_555 1_555
H10_3 C16_3 1_555 1_555
C15_3 C16_3 1_555 1_555
C1_3 C2_3 1_555 1_555
C2_3 C3_3 1_555 1_555
C10_3 C11_3 1_555 1_555
C11_3 C12_3 1_555 1_555
C14_3 C5_3 1_555 1_555
O4_3 C10_3 1_555 1_555
C1_3 O6 1_555 1_555
O4_3 Zn4_3 1_555 1_555
H3_3 C6_3 1_555 1_555
H4_3 C7_3 1_555 1_555
H8_3 C13_3 1_555 1_555
C6_3 C7_3 1_555 1_555
C1_4 C2_4 1_555 1_555
C2_4 C3_4 1_555 1_555
C3_4 H1_4 1_555 1_555
C4_4 C3_4 1_555 1_555
H2_4 C4_4 1_555 1_555
C5_4 C4_4 1_555 1_555
C6_4 C5_4 1_555 1_555
H3_4 C6_4 1_555 1_555
C7_4 C2_4 1_555 1_555
H4_4 C7_4 1_555 1_555
C10_4 C11_4 1_555 1_555
C11_4 C12_4 1_555 1_555
C12_4 H7_4 1_555 1_555
C13_4 C12_4 1_555 1_555
H8_4 C13_4 1_555 1_555
C14_4 C5_4 1_555 1_555
C15_4 C14_4 1_555 1_555
H9_4 C15_4 1_555 1_555
C16_4 C11_4 1_555 1_555
H10_4 C16_4 1_555 1_555
O3_4 C10_4 1_555 1_555
O4_4 C10_4 1_555 1_555
Zn4_4 O3_4 1_555 1_555
C1_4 O5_2 1_555 1_555
C1_4 O6_2 1_555 1_555
C6_4 C7_4 1_555 1_555
C13_4 C14_4 1_555 1_555
C15_4 C16_4 1_555 1_555
O4_4 Zn4_4 1_555 1_555
C9_3 H6_3 1_555 1_555
N1_3 C9_3 1_555 1_555
Zn4 N1_3 1_555 1_555
C17_3 H11_3 1_555 1_555
C18_3 H12_3 1_555 1_555
N4_2 C18_3 1_555 1_555
N5_3 C17_3 1_555 1_555
N6_3 Zn4 1_555 1_555
Zn4_4 N4_2 1_555 1_555
Zn5_3 N5_3 1_555 1_555
N8_3 Zn4 1_555 1_555
C17_3 N6_3 1_555 1_555
C18_3 N6_3 1_555 1_555
N4_2 N5_3 1_555 1_555
Zn4_3 N3_3 1_555 1_555
C8_3 H5_3 1_555 1_555
N2_3 C8_3 1_555 1_555
N3_3 C8_3 1_555 1_555
Zn6_3 N2_3 1_555 1_555
N9_3 Zn4_3 1_555 1_555
Zn4_4 N3_4 1_555 1_555
C8_4 H5_4 1_555 1_555
C9_4 H6_4 1_555 1_555
N1_4 C9_4 1_555 1_555
N2_4 C8_4 1_555 1_555
N3_4 C8_4 1_555 1_555
C18_4 H12_4 1_555 1_555
N7_2 C18_4 1_555 1_555
Zn6_4 N2_4 1_555 1_555
N9_4 Zn4_4 1_555 1_555
C9_4 N3_4 1_555 1_555
N1_4 N2_4 1_555 1_555
C17_4 H11_4 1_555 1_555
N5_4 C17_4 1_555 1_555
N6_4 Zn4_2 1_555 1_555
Zn5_4 N5_4 1_555 1_555
N8_4 Zn4_2 1_555 1_555
C17_4 N6_4 1_555 1_555
H3_5 C6_5 1_555 1_555
H4_5 C7_5 1_555 1_555
C9_5 H6_5 1_555 1_555
N1_5 C9_5 1_555 1_555
H8_5 C13_5 1_555 1_555
C18_5 H12_5 1_555 1_555
N4_3 C18_5 1_555 1_555
Zn5 N4_3 1_555 1_555
C6_5 C7_5 1_555 1_555
C17_5 H11_5 1_555 1_555
N9_2 C17_5 1_555 1_555
N6_5 Zn6 1_555 1_555
O6_3 Zn6 1_555 1_555
C8_5 H5_5 1_555 1_555
N8 C8_5 1_555 1_555
Zn5_2 N3_5 1_555 1_555
C1_5 C2_5 1_555 1_555
C2_5 C3_5 1_555 1_555
C3_5 H1_5 1_555 1_555
C4_5 C3_5 1_555 1_555
H2_5 C4_5 1_555 1_555
C5_5 C4_5 1_555 1_555
O2_3 Zn5_2 1_555 1_555
C10_5 C11_5 1_555 1_555
C11_5 C12_5 1_555 1_555
C14_5 C5_5 1_555 1_555
C15_5 C14_5 1_555 1_555
H9_5 C15_5 1_555 1_555
C16_5 C11_5 1_555 1_555
H10_5 C16_5 1_555 1_555
O3_5 C10_5 1_555 1_555
O4_5 C10_5 1_555 1_555
Zn6_3 O3_5 1_555 1_555
C1_5 O2_3 1_555 1_555
C15_5 C16_5 1_555 1_555
O4_5 Zn6_3 1_555 1_555
C8_6 H5_6 1_555 1_555
N8_2 C8_6 1_555 1_555
C17_6 H11_6 1_555 1_555
N9 C17_6 1_555 1_555
Zn5 N3_6 1_555 1_555
C1_6 C2_6 1_555 1_555
C2_6 C3_6 1_555 1_555
C6_6 C5_6 1_555 1_555
H3_6 C6_6 1_555 1_555
C7_6 C2_6 1_555 1_555
H4_6 C7_6 1_555 1_555
C9_6 H6_6 1_555 1_555
N1_6 C9_6 1_555 1_555
O1_4 Zn5 1_555 1_555
O2_4 Zn5 1_555 1_555
C10_6 C11_6 1_555 1_555
C11_6 C12_6 1_555 1_555
C12_6 H7_6 1_555 1_555
C13_6 C12_6 1_555 1_555
H8_6 C13_6 1_555 1_555
C14_6 C5_6 1_555 1_555
O4_6 C10_6 1_555 1_555
Zn6_2 N1_6 1_555 1_555
C18_6 H12_6 1_555 1_555
N7_3 C18_6 1_555 1_555
N6_6 Zn6_2 1_555 1_555
O5_4 Zn6_2 1_555 1_555
O6_4 Zn6_2 1_555 1_555
C1_6 O1_4 1_555 1_555
C1_6 O2_4 1_555 1_555
C6_6 C7_6 1_555 1_555
C9_6 N3_6 1_555 1_555
C13_6 C14_6 1_555 1_555
O4_6 Zn6_4 1_555 1_555
C18_6 N6_6 1_555 1_555
H2_6 C4_6 1_555 1_555
H9_6 C15_6 1_555 1_555
H10_6 C16_6 1_555 1_555
C15_6 C16_6 1_555 1_555
H3_7 C6_7 1_555 1_555
H4_7 C7_7 1_555 1_555
H8_7 C13_7 1_555 1_555
C6_7 C7_7 1_555 1_555
C1_7 C2_7 1_555 1_555
C2_7 C3_7 1_555 1_555
C10_7 C11_7 1_555 1_555
C11_7 C12_7 1_555 1_555
C14_7 C5_7 1_555 1_555
O4_7 C10_7 1_555 1_555
C1_7 O6_3 1_555 1_555
O4_7 Zn5_4 1_555 1_555
H2_7 C4_7 1_555 1_555
H9_7 C15_7 1_555 1_555
H10_7 C16_7 1_555 1_555
C15_7 C16_7 1_555 1_555
C1_8 C2_8 1_555 1_555
C2_8 C3_8 1_555 1_555
C3_8 H1_8 1_555 1_555
C4_8 C3_8 1_555 1_555
H2_8 C4_8 1_555 1_555
C5_8 C4_8 1_555 1_555
C6_8 C5_8 1_555 1_555
H3_8 C6_8 1_555 1_555
C7_8 C2_8 1_555 1_555
H4_8 C7_8 1_555 1_555
C10_8 C11_8 1_555 1_555
C11_8 C12_8 1_555 1_555
C12_8 H7_8 1_555 1_555
C13_8 C12_8 1_555 1_555
H8_8 C13_8 1_555 1_555
C14_8 C5_8 1_555 1_555
C15_8 C14_8 1_555 1_555
H9_8 C15_8 1_555 1_555
C16_8 C11_8 1_555 1_555
H10_8 C16_8 1_555 1_555
O3_8 C10_8 1_555 1_555
O4_8 C10_8 1_555 1_555
Zn5_3 O3_8 1_555 1_555
C1_8 O5_4 1_555 1_555
C1_8 O6_4 1_555 1_555
C6_8 C7_8 1_555 1_555
C13_8 C14_8 1_555 1_555
C15_8 C16_8 1_555 1_555
O4_8 Zn5_3 1_555 1_555
Zn5_4 N3_7 1_555 1_555
C8_7 H5_7 1_555 1_555
N8_3 C8_7 1_555 1_555
N3_7 C8_7 1_555 1_555
C9_7 H6_7 1_555 1_555
N1_7 C9_7 1_555 1_555
Zn6_3 N1_7 1_555 1_555
C17_7 H11_7 1_555 1_555
C18_7 H12_7 1_555 1_555
N4_4 C18_7 1_555 1_555
N9_4 C17_7 1_555 1_555
N6_7 Zn6_3 1_555 1_555
Zn5_3 N4_4 1_555 1_555
C17_7 N6_7 1_555 1_555
C18_7 N6_7 1_555 1_555
N4_4 N9_4 1_555 1_555
C17_8 H11_8 1_555 1_555
N9_3 C17_8 1_555 1_555
N6_8 Zn6_4 1_555 1_555
C17_8 N6_8 1_555 1_555
Zn5_3 N3_8 1_555 1_555
C8_8 H5_8 1_555 1_555
C9_8 H6_8 1_555 1_555
N1_8 C9_8 1_555 1_555
N8_4 C8_8 1_555 1_555
N3_8 C8_8 1_555 1_555
C18_8 H12_8 1_555 1_555
N7_4 C18_8 1_555 1_555
C9_8 N3_8 1_555 1_555
N1_8 N8_4 1_555 1_555

#END
