
###############################################################################
#
# This file contains modified crystal structure data generated from the
# MOF subset of the Cambridge Structural Database (CSD) v543 
# hosted by the Cambridge Crystallographic Data Centre (CCDC).
#
# This work is licensed under the Creative Commons
# Attribution-NonCommercial-ShareAlike 4.0 International License.
# To view a copy of this license, visit
# http://creativecommons.org/licenses/by-nc-sa/4.0/
# or send a letter to
# Creative Commons, PO Box 1866, Mountain View, CA 94042, USA.
#
# CIF created using the CSD Python API on 29 September 2022
# The structure has been converted into the P1 space group
# The structure has a 3D framework
# The original CSD entry WEJZET is in the orthorhombic crystal system
# The framework has been calculated to contain at least 10.0% void space
# The void calculation uses a probe of radius 1.32A, grid spacing 0.4
#
###############################################################################

data_WEJZET
_chemical_formula_moiety         '(C208 H160 Mo192 N76 O672 P16 Zn64)n'
_symmetry_cell_setting           triclinic
_symmetry_space_group_name_H-M   'P 1'
_symmetry_Int_Tables_number      1
_space_group_name_Hall           'P 1'
loop_
_symmetry_equiv_pos_site_id
_symmetry_equiv_pos_as_xyz
1 x,y,z
_cell_length_a                   20.1749(16)
_cell_length_b                   38.738(3)
_cell_length_c                   52.010(4)
_cell_angle_alpha                90
_cell_angle_beta                 90
_cell_angle_gamma                90
_cell_volume                     40647.6
loop_
_atom_site_label
_atom_site_type_symbol
_atom_site_fract_x
_atom_site_fract_y
_atom_site_fract_z
Mo1 Mo 0.90644(4) 0.34198(2) 0.58168(2)
Mo2 Mo 0.81505(4) 0.29913(2) 0.56556(2)
Mo3 Mo 0.70263(4) 0.25930(2) 0.60473(2)
Mo4 Mo 0.87534(4) 0.42359(2) 0.60369(2)
Mo5 Mo 0.72313(4) 0.44567(2) 0.60381(2)
Mo6 Mo 0.91833(4) 0.36219(2) 0.64818(2)
Mo7 Mo 0.71217(4) 0.27772(2) 0.66436(2)
Mo8 Mo 0.64664(4) 0.32391(2) 0.56518(2)
Mo9 Mo 0.61144(4) 0.38529(2) 0.58221(2)
Mo10 Mo 0.62081(4) 0.40538(2) 0.64728(2)
Mo11 Mo 0.83553(5) 0.33424(2) 0.68064(2)
Mo12 Mo 0.66351(5) 0.35968(2) 0.68084(2)
Zn1 Zn 0.86000(5) 0.27617(3) 0.62908(2)
Zn2 Zn 0.77304(5) 0.38990(3) 0.55534(2)
Zn3 Zn 0.58580(5) 0.31649(3) 0.62880(2)
Zn4 Zn 0.78973(6) 0.42231(3) 0.66245(2)
P1 P 0.75518(10) 0.35113(5) 0.61925(4)
O1 O 0.7470(2) 0.33692(14) 0.64710(9)
O2 O 0.7388(2) 0.32251(13) 0.59944(10)
O3 O 0.8279(2) 0.36230(13) 0.61536(9)
O4 O 0.8752(2) 0.29787(14) 0.59543(11)
O5 O 0.7933(3) 0.42357(14) 0.58179(10)
O6 O 0.6524(3) 0.28084(15) 0.63395(12)
O7 O 0.7073(3) 0.38136(14) 0.61516(10)
O8 O 0.8280(3) 0.34879(15) 0.55976(10)
O9 O 0.7669(3) 0.26451(15) 0.63403(11)
O10 O 0.7727(3) 0.25790(14) 0.58324(11)
O11 O 0.6858(3) 0.36973(16) 0.55969(10)
O12 O 0.5950(2) 0.33847(15) 0.59556(12)
O13 O 0.8855(3) 0.31481(16) 0.65185(11)
O14 O 0.8480(3) 0.38155(16) 0.66865(10)
O15 O 0.6430(3) 0.27753(16) 0.58315(12)
H1 H 0.6058(11) 0.2674(13) 0.5859(13)
O16 O 0.7545(4) 0.35447(18) 0.69960(11)
O17 O 0.9621(3) 0.34522(16) 0.61468(12)
O18 O 0.7012(3) 0.40313(16) 0.66871(11)
O19 O 0.8015(3) 0.43715(15) 0.62713(11)
O20 O 0.7279(3) 0.30500(16) 0.54807(11)
O21 O 0.9209(3) 0.40953(16) 0.63181(12)
O22 O 0.6599(3) 0.30791(17) 0.68097(12)
H2 H 0.6229(15) 0.2977(6) 0.6837(15)
N1 N 0.7823(4) 0.4120(2) 0.52060(14)
O23 O 0.9126(3) 0.39385(16) 0.58095(11)
O24 O 0.9688(3) 0.33215(18) 0.56226(13)
O25 O 0.8053(4) 0.45720(19) 0.68802(14)
N2 N 0.7787(6) 0.3926(3) 0.5000
O26 O 0.6781(3) 0.21792(15) 0.60777(14)
N3 N 0.4731(3) 0.26937(19) 0.63157(10)
O27 O 0.6034(3) 0.35602(15) 0.65141(12)
O28 O 0.6695(3) 0.44644(15) 0.63190(13)
O29 O 0.7890(3) 0.28852(17) 0.68109(12)
O30 O 0.8562(3) 0.28003(18) 0.54175(12)
O31 O 0.6633(3) 0.43093(16) 0.58063(12)
O32 O 0.9106(4) 0.46227(18) 0.59645(14)
O33 O 0.5771(3) 0.40248(16) 0.61463(14)
O34 O 0.7880(5) 0.4161(3) 0.71852(15)
O35 O 0.9860(3) 0.3641(2) 0.66644(14)
O36 O 0.6918(4) 0.23906(18) 0.67608(15)
O37 O 0.6171(4) 0.3689(2) 0.70627(14)
O38 O 0.5922(3) 0.3193(2) 0.54150(14)
N4 N 0.4933(4) 0.30177(19) 0.63407(16)
O39 O 0.7330(4) 0.48773(17) 0.59589(14)
N5 N 0.4083(3) 0.2674(2) 0.63451(16)
O40 O 0.5493(4) 0.39399(19) 0.56226(15)
O41 O 0.5642(4) 0.4253(2) 0.66547(16)
O42 O 0.8845(4) 0.3299(2) 0.70614(13)
C1 C 0.7873(5) 0.4447(3) 0.51364(18)
C2 C 0.7981(6) 0.4468(4) 0.7110(2)
C3 C 0.8008(5) 0.4742(3) 0.73175(19)
C4 C 0.8014(7) 0.5078(4) 0.7247(2)
H3 H 0.8016 0.5135 0.7073
C5 C 0.8016(7) 0.4657(3) 0.7568(2)
H4 H 0.8024 0.4427 0.7619
C6 C 0.4402(5) 0.3216(3) 0.6382(3)
C7 C 0.7891(8) 0.4752(3) 0.5282(3)
H5 H 0.7894 0.4748 0.5461
C8 C 0.3855(6) 0.2999(3) 0.6392(4)
C9 C 0.7905(9) 0.5054(4) 0.5148(3)
H6 H 0.7915 0.5263 0.5236
C10 C 0.3215(7) 0.3124(4) 0.6451(5)
H7 H 0.2849 0.2978 0.6459
C11 C 0.4327(8) 0.3584(4) 0.6396(6)
H8 H 0.4675 0.3736 0.6367
C12 C 0.3160(8) 0.3466(5) 0.6496(7)
H9 H 0.2758 0.3553 0.6555
C13 C 0.3690(8) 0.3692(5) 0.6457(7)
H10 H 0.3611 0.3928 0.6472
N6 N 0.7823(4) 0.4120(2) 0.47940(14)
C14 C 0.7873(5) 0.4447(3) 0.48636(18)
C15 C 0.7891(8) 0.4752(3) 0.4718(3)
H11 H 0.7894 0.4748 0.4539
C16 C 0.7905(9) 0.5054(4) 0.4852(3)
H12 H 0.7915 0.5263 0.4764
O43 O 0.8053(4) 0.54280(19) 0.81198(14)
O44 O 0.7880(5) 0.5839(3) 0.78148(15)
C17 C 0.7981(6) 0.5532(4) 0.7890(2)
C18 C 0.8008(5) 0.5258(3) 0.76825(19)
C19 C 0.8014(7) 0.4922(4) 0.7753(2)
H13 H 0.8016 0.4865 0.7927
C20 C 0.8016(7) 0.5343(3) 0.7432(2)
H14 H 0.8024 0.5573 0.7381
Mo13 Mo 0.90644(4) 0.65802(2) 0.91832(2)
Mo14 Mo 0.81505(4) 0.70087(2) 0.93444(2)
Mo15 Mo 0.70263(4) 0.74070(2) 0.89527(2)
Mo16 Mo 0.87534(4) 0.57641(2) 0.89631(2)
Mo17 Mo 0.72313(4) 0.55433(2) 0.89619(2)
Mo18 Mo 0.91833(4) 0.63781(2) 0.85182(2)
Mo19 Mo 0.71217(4) 0.72228(2) 0.83564(2)
Mo20 Mo 0.64664(4) 0.67609(2) 0.93482(2)
Mo21 Mo 0.61144(4) 0.61471(2) 0.91779(2)
Mo22 Mo 0.62081(4) 0.59462(2) 0.85272(2)
Mo23 Mo 0.83553(5) 0.66576(2) 0.81936(2)
Mo24 Mo 0.66351(5) 0.64032(2) 0.81916(2)
Zn5 Zn 0.86000(5) 0.72383(3) 0.87092(2)
Zn6 Zn 0.77304(5) 0.61010(3) 0.94466(2)
Zn7 Zn 0.58580(5) 0.68351(3) 0.87120(2)
Zn8 Zn 0.78973(6) 0.57769(3) 0.83755(2)
P2 P 0.75518(10) 0.64887(5) 0.88075(4)
O45 O 0.7470(2) 0.66308(14) 0.85290(9)
O46 O 0.7388(2) 0.67749(13) 0.90056(10)
O47 O 0.8279(2) 0.63770(13) 0.88464(9)
O48 O 0.8752(2) 0.70213(14) 0.90457(11)
O49 O 0.7933(3) 0.57643(14) 0.91821(10)
O50 O 0.6524(3) 0.71916(15) 0.86605(12)
O51 O 0.7073(3) 0.61864(14) 0.88484(10)
O52 O 0.8280(3) 0.65121(15) 0.94024(10)
O53 O 0.7669(3) 0.73549(15) 0.86597(11)
O54 O 0.7727(3) 0.74210(14) 0.91676(11)
O55 O 0.6858(3) 0.63027(16) 0.94031(10)
O56 O 0.5950(2) 0.66153(15) 0.90444(12)
O57 O 0.8855(3) 0.68519(16) 0.84815(11)
O58 O 0.8480(3) 0.61845(16) 0.83135(10)
O59 O 0.6430(3) 0.72247(16) 0.91685(12)
H15 H 0.6058(11) 0.7326(13) 0.9141(13)
O60 O 0.7545(4) 0.64553(18) 0.80040(11)
O61 O 0.9621(3) 0.65478(16) 0.88532(12)
O62 O 0.7012(3) 0.59687(16) 0.83129(11)
O63 O 0.8015(3) 0.56285(15) 0.87287(11)
O64 O 0.7279(3) 0.69500(16) 0.95193(11)
O65 O 0.9209(3) 0.59047(16) 0.86819(12)
O66 O 0.6599(3) 0.69209(17) 0.81903(12)
H16 H 0.6229(15) 0.7023(6) 0.8163(15)
O67 O 0.9126(3) 0.60615(16) 0.91905(11)
O68 O 0.9688(3) 0.66785(18) 0.93774(13)
O69 O 0.6781(3) 0.78208(15) 0.89223(14)
N7 N 0.4731(3) 0.73063(19) 0.86843(10)
O70 O 0.6034(3) 0.64398(15) 0.84859(12)
O71 O 0.6695(3) 0.55356(15) 0.86810(13)
O72 O 0.7890(3) 0.71148(17) 0.81891(12)
O73 O 0.8562(3) 0.71997(18) 0.95825(12)
O74 O 0.6633(3) 0.56907(16) 0.91937(12)
O75 O 0.9106(4) 0.53773(18) 0.90355(14)
O76 O 0.5771(3) 0.59752(16) 0.88537(14)
O77 O 0.9860(3) 0.6359(2) 0.83356(14)
O78 O 0.6918(4) 0.76094(18) 0.82392(15)
O79 O 0.6171(4) 0.6311(2) 0.79373(14)
O80 O 0.5922(3) 0.6807(2) 0.95850(14)
N8 N 0.4933(4) 0.69823(19) 0.86593(16)
O81 O 0.7330(4) 0.51227(17) 0.90411(14)
N9 N 0.4083(3) 0.7326(2) 0.86549(16)
O82 O 0.5493(4) 0.60601(19) 0.93774(15)
O83 O 0.5642(4) 0.5747(2) 0.83453(16)
O84 O 0.8845(4) 0.6701(2) 0.79386(13)
C21 C 0.4402(5) 0.6784(3) 0.8618(3)
C22 C 0.3855(6) 0.7001(3) 0.8608(4)
C23 C 0.3215(7) 0.6876(4) 0.8549(5)
H17 H 0.2849 0.7022 0.8541
C24 C 0.4327(8) 0.6416(4) 0.8604(6)
H18 H 0.4675 0.6264 0.8633
C25 C 0.3160(8) 0.6534(5) 0.8504(7)
H19 H 0.2758 0.6447 0.8445
C26 C 0.3690(8) 0.6308(5) 0.8543(7)
H20 H 0.3611 0.6072 0.8528
Zn9 Zn 0.36000(5) 0.22383(3) 0.62908(2)
Zn10 Zn 0.36000(5) 0.77617(3) 0.87092(2)
Zn11 Zn 0.77304(5) 0.38990(3) 0.44466(2)
N10 N 0.7823(4) 0.5880(2) 0.97940(14)
N11 N 0.9083(3) 0.2326(2) 0.63451(16)
N12 N 0.9083(3) 0.7674(2) 0.86549(16)
Mo1_2 Mo 0.40644(4) 0.15802(2) 0.41832(2)
Mo2_2 Mo 0.31505(4) 0.20087(2) 0.43444(2)
Mo3_2 Mo 0.20263(4) 0.24070(2) 0.39527(2)
Mo4_2 Mo 0.37534(4) 0.07641(2) 0.39631(2)
Mo5_2 Mo 0.22313(4) 0.05433(2) 0.39619(2)
Mo6_2 Mo 0.41833(4) 0.13781(2) 0.35182(2)
Mo7_2 Mo 0.21217(4) 0.22228(2) 0.33564(2)
Mo8_2 Mo 0.14664(4) 0.17609(2) 0.43482(2)
Mo9_2 Mo 0.11144(4) 0.11471(2) 0.41779(2)
Mo10_2 Mo 0.12081(4) 0.09462(2) 0.35272(2)
Mo11_2 Mo 0.33553(5) 0.16576(2) 0.31936(2)
Mo12_2 Mo 0.16351(5) 0.14032(2) 0.31916(2)
Zn1_2 Zn 0.36000(5) 0.22383(3) 0.37092(2)
Zn2_2 Zn 0.27304(5) 0.11010(3) 0.44466(2)
Zn3_2 Zn 0.08580(5) 0.18351(3) 0.37120(2)
Zn4_2 Zn 0.28973(6) 0.07769(3) 0.33755(2)
P1_2 P 0.25518(10) 0.14887(5) 0.38075(4)
O1_2 O 0.2470(2) 0.16308(14) 0.35290(9)
O2_2 O 0.2388(2) 0.17749(13) 0.40056(10)
O3_2 O 0.3279(2) 0.13770(13) 0.38464(9)
O4_2 O 0.3752(2) 0.20213(14) 0.40457(11)
O5_2 O 0.2933(3) 0.07643(14) 0.41821(10)
O6_2 O 0.1524(3) 0.21916(15) 0.36605(12)
O7_2 O 0.2073(3) 0.11864(14) 0.38484(10)
O8_2 O 0.3280(3) 0.15121(15) 0.44024(10)
O9_2 O 0.2669(3) 0.23549(15) 0.36597(11)
O10_2 O 0.2727(3) 0.24210(14) 0.41676(11)
O11_2 O 0.1858(3) 0.13027(16) 0.44031(10)
O12_2 O 0.0950(2) 0.16153(15) 0.40444(12)
O13_2 O 0.3855(3) 0.18519(16) 0.34815(11)
O14_2 O 0.3480(3) 0.11845(16) 0.33135(10)
O15_2 O 0.1430(3) 0.22247(16) 0.41685(12)
H1_2 H 0.1058(11) 0.2326(13) 0.4141(13)
O16_2 O 0.2545(4) 0.14553(18) 0.30040(11)
O17_2 O 0.4621(3) 0.15478(16) 0.38532(12)
O18_2 O 0.2012(3) 0.09687(16) 0.33129(11)
O19_2 O 0.3015(3) 0.06285(15) 0.37287(11)
O20_2 O 0.2279(3) 0.19500(16) 0.45193(11)
O21_2 O 0.4209(3) 0.09047(16) 0.36819(12)
O22_2 O 0.1599(3) 0.19209(17) 0.31903(12)
H2_2 H 0.1229(15) 0.2023(6) 0.3163(15)
N1_2 N 0.2823(4) 0.0880(2) 0.47940(14)
O23_2 O 0.4126(3) 0.10615(16) 0.41905(11)
O24_2 O 0.4688(3) 0.16785(18) 0.43774(13)
O25_2 O 0.3053(4) 0.04280(19) 0.31198(14)
N2_2 N 0.2787(6) 0.1074(3) 0.5000
O26_2 O 0.1781(3) 0.28208(15) 0.39223(14)
O27_2 O 0.1034(3) 0.14398(15) 0.34859(12)
O28_2 O 0.1695(3) 0.05356(15) 0.36810(13)
O29_2 O 0.2890(3) 0.21148(17) 0.31891(12)
O30_2 O 0.3562(3) 0.21997(18) 0.45825(12)
O31_2 O 0.1633(3) 0.06907(16) 0.41937(12)
O32_2 O 0.4106(4) 0.03773(18) 0.40355(14)
O33_2 O 0.0771(3) 0.09752(16) 0.38537(14)
O34_2 O 0.2880(5) 0.0839(3) 0.28148(15)
O35_2 O 0.4860(3) 0.1359(2) 0.33356(14)
O36_2 O 0.1918(4) 0.26094(18) 0.32392(15)
O37_2 O 0.1171(4) 0.1311(2) 0.29373(14)
O38_2 O 0.0922(3) 0.1807(2) 0.45850(14)
O39_2 O 0.2330(4) 0.01227(17) 0.40411(14)
O40_2 O 0.0493(4) 0.10601(19) 0.43774(15)
O41_2 O 0.0642(4) 0.0747(2) 0.33453(16)
O42_2 O 0.3845(4) 0.1701(2) 0.29386(13)
C1_2 C 0.2873(5) 0.0553(3) 0.48636(18)
C2_2 C 0.2981(6) 0.0532(4) 0.2890(2)
C3_2 C 0.3008(5) 0.0258(3) 0.26825(19)
C5_2 C 0.3016(7) 0.0343(3) 0.2432(2)
H4_2 H 0.3024 0.0573 0.2381
C7_2 C 0.2891(8) 0.0248(3) 0.4718(3)
H5_2 H 0.2894 0.0252 0.4539
N6_2 N 0.2823(4) 0.0880(2) 0.52060(14)
C14_2 C 0.2873(5) 0.0553(3) 0.51364(18)
C15_2 C 0.2891(8) 0.0248(3) 0.5282(3)
H11_2 H 0.2894 0.0252 0.5461
C19_2 C 0.3014(7) 0.0078(4) 0.2247(2)
H13_2 H 0.3016 0.0135 0.2073
Zn11_2 Zn 0.27304(5) 0.11010(3) 0.55534(2)
N11_2 N 0.4083(3) 0.2674(2) 0.36549(16)
C4_2 C 0.3014(7) 0.9922(4) 0.2753(2)
H3_2 H 0.3016 0.9865 0.2927
C9_2 C 0.2905(9) 0.9946(4) 0.4852(3)
H6_2 H 0.2915 0.9737 0.4764
C16_2 C 0.2905(9) 0.9946(4) 0.5148(3)
H12_2 H 0.2915 0.9737 0.5236
O43_2 O 0.3053(4) 0.95720(19) 0.18802(14)
O44_2 O 0.2880(5) 0.9161(3) 0.21852(15)
C17_2 C 0.2981(6) 0.9468(4) 0.2110(2)
C18_2 C 0.3008(5) 0.9742(3) 0.23175(19)
C20_2 C 0.3016(7) 0.9657(3) 0.2568(2)
H14_2 H 0.3024 0.9427 0.2619
Mo13_2 Mo 0.40644(4) 0.84198(2) 0.08168(2)
Mo14_2 Mo 0.31505(4) 0.79913(2) 0.06556(2)
Mo15_2 Mo 0.20263(4) 0.75930(2) 0.10473(2)
Mo16_2 Mo 0.37534(4) 0.92359(2) 0.10369(2)
Mo17_2 Mo 0.22313(4) 0.94567(2) 0.10381(2)
Mo18_2 Mo 0.41833(4) 0.86219(2) 0.14818(2)
Mo19_2 Mo 0.21217(4) 0.77772(2) 0.16436(2)
Mo20_2 Mo 0.14664(4) 0.82391(2) 0.06518(2)
Mo21_2 Mo 0.11144(4) 0.88529(2) 0.08221(2)
Mo22_2 Mo 0.12081(4) 0.90538(2) 0.14728(2)
Mo23_2 Mo 0.33553(5) 0.83424(2) 0.18064(2)
Mo24_2 Mo 0.16351(5) 0.85968(2) 0.18084(2)
Zn5_2 Zn 0.36000(5) 0.77617(3) 0.12908(2)
Zn6_2 Zn 0.27304(5) 0.88990(3) 0.05534(2)
Zn7_2 Zn 0.08580(5) 0.81649(3) 0.12880(2)
Zn8_2 Zn 0.28973(6) 0.92231(3) 0.16245(2)
P2_2 P 0.25518(10) 0.85113(5) 0.11925(4)
O45_2 O 0.2470(2) 0.83692(14) 0.14710(9)
O46_2 O 0.2388(2) 0.82251(13) 0.09944(10)
O47_2 O 0.3279(2) 0.86230(13) 0.11536(9)
O48_2 O 0.3752(2) 0.79787(14) 0.09543(11)
O49_2 O 0.2933(3) 0.92357(14) 0.08179(10)
O50_2 O 0.1524(3) 0.78084(15) 0.13395(12)
O51_2 O 0.2073(3) 0.88136(14) 0.11516(10)
O52_2 O 0.3280(3) 0.84879(15) 0.05976(10)
O53_2 O 0.2669(3) 0.76451(15) 0.13403(11)
O54_2 O 0.2727(3) 0.75790(14) 0.08324(11)
O55_2 O 0.1858(3) 0.86973(16) 0.05969(10)
O56_2 O 0.0950(2) 0.83847(15) 0.09556(12)
O57_2 O 0.3855(3) 0.81481(16) 0.15185(11)
O58_2 O 0.3480(3) 0.88155(16) 0.16865(10)
O59_2 O 0.1430(3) 0.77753(16) 0.08315(12)
H15_2 H 0.1058(11) 0.7674(13) 0.0859(13)
O60_2 O 0.2545(4) 0.85447(18) 0.19960(11)
O61_2 O 0.4621(3) 0.84522(16) 0.11468(12)
O62_2 O 0.2012(3) 0.90313(16) 0.16871(11)
O63_2 O 0.3015(3) 0.93715(15) 0.12713(11)
O64_2 O 0.2279(3) 0.80500(16) 0.04807(11)
O65_2 O 0.4209(3) 0.90953(16) 0.13181(12)
O66_2 O 0.1599(3) 0.80791(17) 0.18097(12)
H16_2 H 0.1229(15) 0.7977(6) 0.1837(15)
O67_2 O 0.4126(3) 0.89385(16) 0.08095(11)
O68_2 O 0.4688(3) 0.83215(18) 0.06226(13)
O69_2 O 0.1781(3) 0.71792(15) 0.10777(14)
O70_2 O 0.1034(3) 0.85602(15) 0.15141(12)
O71_2 O 0.1695(3) 0.94644(15) 0.13190(13)
O72_2 O 0.2890(3) 0.78852(17) 0.18109(12)
O73_2 O 0.3562(3) 0.78003(18) 0.04175(12)
O74_2 O 0.1633(3) 0.93093(16) 0.08063(12)
O75_2 O 0.4106(4) 0.96227(18) 0.09645(14)
O76_2 O 0.0771(3) 0.90248(16) 0.11463(14)
O77_2 O 0.4860(3) 0.8641(2) 0.16644(14)
O78_2 O 0.1918(4) 0.73906(18) 0.17608(15)
O79_2 O 0.1171(4) 0.8689(2) 0.20627(14)
O80_2 O 0.0922(3) 0.8193(2) 0.04150(14)
O81_2 O 0.2330(4) 0.98773(17) 0.09589(14)
O82_2 O 0.0493(4) 0.89399(19) 0.06226(15)
O83_2 O 0.0642(4) 0.9253(2) 0.16547(16)
O84_2 O 0.3845(4) 0.8299(2) 0.20614(13)
N10_2 N 0.2823(4) 0.9120(2) 0.02060(14)
N12_2 N 0.4083(3) 0.7326(2) 0.13451(16)
N3_2 N 0.9731(3) 0.23063(19) 0.36843(10)
N4_2 N 0.9933(4) 0.19823(19) 0.36593(16)
N5_2 N 0.9083(3) 0.2326(2) 0.36549(16)
C6_2 C 0.9402(5) 0.1784(3) 0.3618(3)
C8_2 C 0.8855(6) 0.2001(3) 0.3608(4)
C10_2 C 0.8215(7) 0.1876(4) 0.3549(5)
H7_2 H 0.7849 0.2022 0.3541
C11_2 C 0.9327(8) 0.1416(4) 0.3604(6)
H8_2 H 0.9675 0.1264 0.3633
C12_2 C 0.8160(8) 0.1534(5) 0.3504(7)
H9_2 H 0.7758 0.1447 0.3445
C13_2 C 0.8690(8) 0.1308(5) 0.3543(7)
H10_2 H 0.8611 0.1072 0.3528
Zn9_2 Zn 0.86000(5) 0.27617(3) 0.37092(2)
N7_2 N 0.9731(3) 0.76937(19) 0.13157(10)
N8_2 N 0.9933(4) 0.80177(19) 0.13407(16)
N9_2 N 0.9083(3) 0.7674(2) 0.13451(16)
C21_2 C 0.9402(5) 0.8216(3) 0.1382(3)
C22_2 C 0.8855(6) 0.7999(3) 0.1392(4)
C23_2 C 0.8215(7) 0.8124(4) 0.1451(5)
H17_2 H 0.7849 0.7978 0.1459
C24_2 C 0.9327(8) 0.8584(4) 0.1396(6)
H18_2 H 0.9675 0.8736 0.1367
C25_2 C 0.8160(8) 0.8466(5) 0.1496(7)
H19_2 H 0.7758 0.8553 0.1555
C26_2 C 0.8690(8) 0.8692(5) 0.1457(7)
H20_2 H 0.8611 0.8928 0.1472
Zn10_2 Zn 0.86000(5) 0.72383(3) 0.12908(2)
C9_3 C 0.2905(9) 0.0054(4) 0.0148(3)
H6_3 H 0.2915 0.0263 0.0236
C16_3 C 0.2905(9) 0.0054(4) 0.9852(3)
H12_3 H 0.2915 0.0263 0.9764
N2_3 N 0.2787(6) 0.8926(3) -0.0000
C1_3 C 0.2873(5) 0.9447(3) 0.01364(18)
C7_3 C 0.2891(8) 0.9752(3) 0.0282(3)
H5_3 H 0.2894 0.9748 0.0461
N2_4 N 0.2787(6) 0.8926(3) 1.0000
N6_3 N 0.2823(4) 0.9120(2) 0.97940(14)
C14_3 C 0.2873(5) 0.9447(3) 0.98636(18)
C15_3 C 0.2891(8) 0.9752(3) 0.9718(3)
H11_3 H 0.2894 0.9748 0.9539
Zn11_3 Zn 0.27304(5) 0.88990(3) 0.94466(2)
N2_5 N 0.7787(6) 0.6074(3) 0.0000
N6_4 N 0.7823(4) 0.5880(2) 0.02060(14)
C14_4 C 0.7873(5) 0.5553(3) 0.01364(18)
C15_4 C 0.7891(8) 0.5248(3) 0.0282(3)
H11_4 H 0.7894 0.5252 0.0461
C16_4 C 0.7905(9) 0.4946(4) 0.0148(3)
H12_4 H 0.7915 0.4737 0.0236
Zn11_4 Zn 0.77304(5) 0.61010(3) 0.05534(2)
N2_6 N 0.7787(6) 0.6074(3) 1.0000
C1_4 C 0.7873(5) 0.5553(3) 0.98636(18)
C7_4 C 0.7891(8) 0.5248(3) 0.9718(3)
H5_4 H 0.7894 0.5252 0.9539
C9_4 C 0.7905(9) 0.4946(4) 0.9852(3)
H6_4 H 0.7915 0.4737 0.9764
Mo1_3 Mo 0.90644(4) 0.34198(2) 0.41832(2)
Mo2_3 Mo 0.81505(4) 0.29913(2) 0.43444(2)
Mo3_3 Mo 0.70263(4) 0.25930(2) 0.39527(2)
Mo4_3 Mo 0.87534(4) 0.42359(2) 0.39631(2)
Mo5_3 Mo 0.72313(4) 0.44567(2) 0.39619(2)
Mo6_3 Mo 0.91833(4) 0.36219(2) 0.35182(2)
Mo7_3 Mo 0.71217(4) 0.27772(2) 0.33564(2)
Mo8_3 Mo 0.64664(4) 0.32391(2) 0.43482(2)
Mo9_3 Mo 0.61144(4) 0.38529(2) 0.41779(2)
Mo10_3 Mo 0.62081(4) 0.40538(2) 0.35272(2)
Mo11_3 Mo 0.83553(5) 0.33424(2) 0.31936(2)
Mo12_3 Mo 0.66351(5) 0.35968(2) 0.31916(2)
Zn3_3 Zn 0.58580(5) 0.31649(3) 0.37120(2)
Zn4_3 Zn 0.78973(6) 0.42231(3) 0.33755(2)
P1_3 P 0.75518(10) 0.35113(5) 0.38075(4)
O1_3 O 0.7470(2) 0.33692(14) 0.35290(9)
O2_3 O 0.7388(2) 0.32251(13) 0.40056(10)
O3_3 O 0.8279(2) 0.36230(13) 0.38464(9)
O4_3 O 0.8752(2) 0.29787(14) 0.40457(11)
O5_3 O 0.7933(3) 0.42357(14) 0.41821(10)
O6_3 O 0.6524(3) 0.28084(15) 0.36605(12)
O7_3 O 0.7073(3) 0.38136(14) 0.38484(10)
O8_3 O 0.8280(3) 0.34879(15) 0.44024(10)
O9_3 O 0.7669(3) 0.26451(15) 0.36597(11)
O10_3 O 0.7727(3) 0.25790(14) 0.41676(11)
O11_3 O 0.6858(3) 0.36973(16) 0.44031(10)
O12_3 O 0.5950(2) 0.33847(15) 0.40444(12)
O13_3 O 0.8855(3) 0.31481(16) 0.34815(11)
O14_3 O 0.8480(3) 0.38155(16) 0.33135(10)
O15_3 O 0.6430(3) 0.27753(16) 0.41685(12)
H1_3 H 0.6058(11) 0.2674(13) 0.4141(13)
O16_3 O 0.7545(4) 0.35447(18) 0.30040(11)
O17_3 O 0.9621(3) 0.34522(16) 0.38532(12)
O18_3 O 0.7012(3) 0.40313(16) 0.33129(11)
O19_3 O 0.8015(3) 0.43715(15) 0.37287(11)
O20_3 O 0.7279(3) 0.30500(16) 0.45193(11)
O21_3 O 0.9209(3) 0.40953(16) 0.36819(12)
O22_3 O 0.6599(3) 0.30791(17) 0.31903(12)
H2_3 H 0.6229(15) 0.2977(6) 0.3163(15)
O23_3 O 0.9126(3) 0.39385(16) 0.41905(11)
O24_3 O 0.9688(3) 0.33215(18) 0.43774(13)
O25_3 O 0.8053(4) 0.45720(19) 0.31198(14)
O26_3 O 0.6781(3) 0.21792(15) 0.39223(14)
N3_3 N 0.4731(3) 0.26937(19) 0.36843(10)
O27_3 O 0.6034(3) 0.35602(15) 0.34859(12)
O28_3 O 0.6695(3) 0.44644(15) 0.36810(13)
O29_3 O 0.7890(3) 0.28852(17) 0.31891(12)
O30_3 O 0.8562(3) 0.28003(18) 0.45825(12)
O31_3 O 0.6633(3) 0.43093(16) 0.41937(12)
O32_3 O 0.9106(4) 0.46227(18) 0.40355(14)
O33_3 O 0.5771(3) 0.40248(16) 0.38537(14)
O34_3 O 0.7880(5) 0.4161(3) 0.28148(15)
O35_3 O 0.9860(3) 0.3641(2) 0.33356(14)
O36_3 O 0.6918(4) 0.23906(18) 0.32392(15)
O37_3 O 0.6171(4) 0.3689(2) 0.29373(14)
O38_3 O 0.5922(3) 0.3193(2) 0.45850(14)
N4_3 N 0.4933(4) 0.30177(19) 0.36593(16)
O39_3 O 0.7330(4) 0.48773(17) 0.40411(14)
O40_3 O 0.5493(4) 0.39399(19) 0.43774(15)
O41_3 O 0.5642(4) 0.4253(2) 0.33453(16)
O42_3 O 0.8845(4) 0.3299(2) 0.29386(13)
C2_3 C 0.7981(6) 0.4468(4) 0.2890(2)
C3_3 C 0.8008(5) 0.4742(3) 0.26825(19)
C4_3 C 0.8014(7) 0.5078(4) 0.2753(2)
H3_3 H 0.8016 0.5135 0.2927
C5_3 C 0.8016(7) 0.4657(3) 0.2432(2)
H4_3 H 0.8024 0.4427 0.2381
C6_3 C 0.4402(5) 0.3216(3) 0.3618(3)
C8_3 C 0.3855(6) 0.2999(3) 0.3608(4)
C10_3 C 0.3215(7) 0.3124(4) 0.3549(5)
H7_3 H 0.2849 0.2978 0.3541
C11_3 C 0.4327(8) 0.3584(4) 0.3604(6)
H8_3 H 0.4675 0.3736 0.3633
C12_3 C 0.3160(8) 0.3466(5) 0.3504(7)
H9_3 H 0.2758 0.3553 0.3445
C13_3 C 0.3690(8) 0.3692(5) 0.3543(7)
H10_3 H 0.3611 0.3928 0.3528
O43_3 O 0.8053(4) 0.54280(19) 0.18802(14)
O44_3 O 0.7880(5) 0.5839(3) 0.21852(15)
C17_3 C 0.7981(6) 0.5532(4) 0.2110(2)
C18_3 C 0.8008(5) 0.5258(3) 0.23175(19)
C19_3 C 0.8014(7) 0.4922(4) 0.2247(2)
H13_3 H 0.8016 0.4865 0.2073
C20_3 C 0.8016(7) 0.5343(3) 0.2568(2)
H14_3 H 0.8024 0.5573 0.2619
Mo13_3 Mo 0.90644(4) 0.65802(2) 0.08168(2)
Mo14_3 Mo 0.81505(4) 0.70087(2) 0.06556(2)
Mo15_3 Mo 0.70263(4) 0.74070(2) 0.10473(2)
Mo16_3 Mo 0.87534(4) 0.57641(2) 0.10369(2)
Mo17_3 Mo 0.72313(4) 0.55433(2) 0.10381(2)
Mo18_3 Mo 0.91833(4) 0.63781(2) 0.14818(2)
Mo19_3 Mo 0.71217(4) 0.72228(2) 0.16436(2)
Mo20_3 Mo 0.64664(4) 0.67609(2) 0.06518(2)
Mo21_3 Mo 0.61144(4) 0.61471(2) 0.08221(2)
Mo22_3 Mo 0.62081(4) 0.59462(2) 0.14728(2)
Mo23_3 Mo 0.83553(5) 0.66576(2) 0.18064(2)
Mo24_3 Mo 0.66351(5) 0.64032(2) 0.18084(2)
Zn7_3 Zn 0.58580(5) 0.68351(3) 0.12880(2)
Zn8_3 Zn 0.78973(6) 0.57769(3) 0.16245(2)
P2_3 P 0.75518(10) 0.64887(5) 0.11925(4)
O45_3 O 0.7470(2) 0.66308(14) 0.14710(9)
O46_3 O 0.7388(2) 0.67749(13) 0.09944(10)
O47_3 O 0.8279(2) 0.63770(13) 0.11536(9)
O48_3 O 0.8752(2) 0.70213(14) 0.09543(11)
O49_3 O 0.7933(3) 0.57643(14) 0.08179(10)
O50_3 O 0.6524(3) 0.71916(15) 0.13395(12)
O51_3 O 0.7073(3) 0.61864(14) 0.11516(10)
O52_3 O 0.8280(3) 0.65121(15) 0.05976(10)
O53_3 O 0.7669(3) 0.73549(15) 0.13403(11)
O54_3 O 0.7727(3) 0.74210(14) 0.08324(11)
O55_3 O 0.6858(3) 0.63027(16) 0.05969(10)
O56_3 O 0.5950(2) 0.66153(15) 0.09556(12)
O57_3 O 0.8855(3) 0.68519(16) 0.15185(11)
O58_3 O 0.8480(3) 0.61845(16) 0.16865(10)
O59_3 O 0.6430(3) 0.72247(16) 0.08315(12)
H15_3 H 0.6058(11) 0.7326(13) 0.0859(13)
O60_3 O 0.7545(4) 0.64553(18) 0.19960(11)
O61_3 O 0.9621(3) 0.65478(16) 0.11468(12)
O62_3 O 0.7012(3) 0.59687(16) 0.16871(11)
O63_3 O 0.8015(3) 0.56285(15) 0.12713(11)
O64_3 O 0.7279(3) 0.69500(16) 0.04807(11)
O65_3 O 0.9209(3) 0.59047(16) 0.13181(12)
O66_3 O 0.6599(3) 0.69209(17) 0.18097(12)
H16_3 H 0.6229(15) 0.7023(6) 0.1837(15)
O67_3 O 0.9126(3) 0.60615(16) 0.08095(11)
O68_3 O 0.9688(3) 0.66785(18) 0.06226(13)
O69_3 O 0.6781(3) 0.78208(15) 0.10777(14)
N7_3 N 0.4731(3) 0.73063(19) 0.13157(10)
O70_3 O 0.6034(3) 0.64398(15) 0.15141(12)
O71_3 O 0.6695(3) 0.55356(15) 0.13190(13)
O72_3 O 0.7890(3) 0.71148(17) 0.18109(12)
O73_3 O 0.8562(3) 0.71997(18) 0.04175(12)
O74_3 O 0.6633(3) 0.56907(16) 0.08063(12)
O75_3 O 0.9106(4) 0.53773(18) 0.09645(14)
O76_3 O 0.5771(3) 0.59752(16) 0.11463(14)
O77_3 O 0.9860(3) 0.6359(2) 0.16644(14)
O78_3 O 0.6918(4) 0.76094(18) 0.17608(15)
O79_3 O 0.6171(4) 0.6311(2) 0.20627(14)
O80_3 O 0.5922(3) 0.6807(2) 0.04150(14)
N8_3 N 0.4933(4) 0.69823(19) 0.13407(16)
O81_3 O 0.7330(4) 0.51227(17) 0.09589(14)
O82_3 O 0.5493(4) 0.60601(19) 0.06226(15)
O83_3 O 0.5642(4) 0.5747(2) 0.16547(16)
O84_3 O 0.8845(4) 0.6701(2) 0.20614(13)
C21_3 C 0.4402(5) 0.6784(3) 0.1382(3)
C22_3 C 0.3855(6) 0.7001(3) 0.1392(4)
C23_3 C 0.3215(7) 0.6876(4) 0.1451(5)
H17_3 H 0.2849 0.7022 0.1459
C24_3 C 0.4327(8) 0.6416(4) 0.1396(6)
H18_3 H 0.4675 0.6264 0.1367
C25_3 C 0.3160(8) 0.6534(5) 0.1496(7)
H19_3 H 0.2758 0.6447 0.1555
C26_3 C 0.3690(8) 0.6308(5) 0.1457(7)
H20_3 H 0.3611 0.6072 0.1472
Mo1_4 Mo 0.40644(4) 0.15802(2) 0.58168(2)
Mo2_4 Mo 0.31505(4) 0.20087(2) 0.56556(2)
Mo3_4 Mo 0.20263(4) 0.24070(2) 0.60473(2)
Mo4_4 Mo 0.37534(4) 0.07641(2) 0.60369(2)
Mo5_4 Mo 0.22313(4) 0.05433(2) 0.60381(2)
Mo6_4 Mo 0.41833(4) 0.13781(2) 0.64818(2)
Mo7_4 Mo 0.21217(4) 0.22228(2) 0.66436(2)
Mo8_4 Mo 0.14664(4) 0.17609(2) 0.56518(2)
Mo9_4 Mo 0.11144(4) 0.11471(2) 0.58221(2)
Mo10_4 Mo 0.12081(4) 0.09462(2) 0.64728(2)
Mo11_4 Mo 0.33553(5) 0.16576(2) 0.68064(2)
Mo12_4 Mo 0.16351(5) 0.14032(2) 0.68084(2)
Zn3_4 Zn 0.08580(5) 0.18351(3) 0.62880(2)
Zn4_4 Zn 0.28973(6) 0.07769(3) 0.66245(2)
P1_4 P 0.25518(10) 0.14887(5) 0.61925(4)
O1_4 O 0.2470(2) 0.16308(14) 0.64710(9)
O2_4 O 0.2388(2) 0.17749(13) 0.59944(10)
O3_4 O 0.3279(2) 0.13770(13) 0.61536(9)
O4_4 O 0.3752(2) 0.20213(14) 0.59543(11)
O5_4 O 0.2933(3) 0.07643(14) 0.58179(10)
O6_4 O 0.1524(3) 0.21916(15) 0.63395(12)
O7_4 O 0.2073(3) 0.11864(14) 0.61516(10)
O8_4 O 0.3280(3) 0.15121(15) 0.55976(10)
O9_4 O 0.2669(3) 0.23549(15) 0.63403(11)
O10_4 O 0.2727(3) 0.24210(14) 0.58324(11)
O11_4 O 0.1858(3) 0.13027(16) 0.55969(10)
O12_4 O 0.0950(2) 0.16153(15) 0.59556(12)
O13_4 O 0.3855(3) 0.18519(16) 0.65185(11)
O14_4 O 0.3480(3) 0.11845(16) 0.66865(10)
O15_4 O 0.1430(3) 0.22247(16) 0.58315(12)
H1_4 H 0.1058(11) 0.2326(13) 0.5859(13)
O16_4 O 0.2545(4) 0.14553(18) 0.69960(11)
O17_4 O 0.4621(3) 0.15478(16) 0.61468(12)
O18_4 O 0.2012(3) 0.09687(16) 0.66871(11)
O19_4 O 0.3015(3) 0.06285(15) 0.62713(11)
O20_4 O 0.2279(3) 0.19500(16) 0.54807(11)
O21_4 O 0.4209(3) 0.09047(16) 0.63181(12)
O22_4 O 0.1599(3) 0.19209(17) 0.68097(12)
H2_4 H 0.1229(15) 0.2023(6) 0.6837(15)
O23_4 O 0.4126(3) 0.10615(16) 0.58095(11)
O24_4 O 0.4688(3) 0.16785(18) 0.56226(13)
O25_4 O 0.3053(4) 0.04280(19) 0.68802(14)
O26_4 O 0.1781(3) 0.28208(15) 0.60777(14)
O27_4 O 0.1034(3) 0.14398(15) 0.65141(12)
O28_4 O 0.1695(3) 0.05356(15) 0.63190(13)
O29_4 O 0.2890(3) 0.21148(17) 0.68109(12)
O30_4 O 0.3562(3) 0.21997(18) 0.54175(12)
O31_4 O 0.1633(3) 0.06907(16) 0.58063(12)
O32_4 O 0.4106(4) 0.03773(18) 0.59645(14)
O33_4 O 0.0771(3) 0.09752(16) 0.61463(14)
O34_4 O 0.2880(5) 0.0839(3) 0.71852(15)
O35_4 O 0.4860(3) 0.1359(2) 0.66644(14)
O36_4 O 0.1918(4) 0.26094(18) 0.67608(15)
O37_4 O 0.1171(4) 0.1311(2) 0.70627(14)
O38_4 O 0.0922(3) 0.1807(2) 0.54150(14)
O39_4 O 0.2330(4) 0.01227(17) 0.59589(14)
O40_4 O 0.0493(4) 0.10601(19) 0.56226(15)
O41_4 O 0.0642(4) 0.0747(2) 0.66547(16)
O42_4 O 0.3845(4) 0.1701(2) 0.70614(13)
C2_4 C 0.2981(6) 0.0532(4) 0.7110(2)
C3_4 C 0.3008(5) 0.0258(3) 0.73175(19)
C5_4 C 0.3016(7) 0.0343(3) 0.7568(2)
H4_4 H 0.3024 0.0573 0.7619
C19_4 C 0.3014(7) 0.0078(4) 0.7753(2)
H13_4 H 0.3016 0.0135 0.7927
C4_4 C 0.3014(7) 0.9922(4) 0.7247(2)
H3_4 H 0.3016 0.9865 0.7073
O43_4 O 0.3053(4) 0.95720(19) 0.81198(14)
O44_4 O 0.2880(5) 0.9161(3) 0.78148(15)
C17_4 C 0.2981(6) 0.9468(4) 0.7890(2)
C18_4 C 0.3008(5) 0.9742(3) 0.76825(19)
C20_4 C 0.3016(7) 0.9657(3) 0.7432(2)
H14_4 H 0.3024 0.9427 0.7381
Mo13_4 Mo 0.40644(4) 0.84198(2) 0.91832(2)
Mo14_4 Mo 0.31505(4) 0.79913(2) 0.93444(2)
Mo15_4 Mo 0.20263(4) 0.75930(2) 0.89527(2)
Mo16_4 Mo 0.37534(4) 0.92359(2) 0.89631(2)
Mo17_4 Mo 0.22313(4) 0.94567(2) 0.89619(2)
Mo18_4 Mo 0.41833(4) 0.86219(2) 0.85182(2)
Mo19_4 Mo 0.21217(4) 0.77772(2) 0.83564(2)
Mo20_4 Mo 0.14664(4) 0.82391(2) 0.93482(2)
Mo21_4 Mo 0.11144(4) 0.88529(2) 0.91779(2)
Mo22_4 Mo 0.12081(4) 0.90538(2) 0.85272(2)
Mo23_4 Mo 0.33553(5) 0.83424(2) 0.81936(2)
Mo24_4 Mo 0.16351(5) 0.85968(2) 0.81916(2)
Zn7_4 Zn 0.08580(5) 0.81649(3) 0.87120(2)
Zn8_4 Zn 0.28973(6) 0.92231(3) 0.83755(2)
P2_4 P 0.25518(10) 0.85113(5) 0.88075(4)
O45_4 O 0.2470(2) 0.83692(14) 0.85290(9)
O46_4 O 0.2388(2) 0.82251(13) 0.90056(10)
O47_4 O 0.3279(2) 0.86230(13) 0.88464(9)
O48_4 O 0.3752(2) 0.79787(14) 0.90457(11)
O49_4 O 0.2933(3) 0.92357(14) 0.91821(10)
O50_4 O 0.1524(3) 0.78084(15) 0.86605(12)
O51_4 O 0.2073(3) 0.88136(14) 0.88484(10)
O52_4 O 0.3280(3) 0.84879(15) 0.94024(10)
O53_4 O 0.2669(3) 0.76451(15) 0.86597(11)
O54_4 O 0.2727(3) 0.75790(14) 0.91676(11)
O55_4 O 0.1858(3) 0.86973(16) 0.94031(10)
O56_4 O 0.0950(2) 0.83847(15) 0.90444(12)
O57_4 O 0.3855(3) 0.81481(16) 0.84815(11)
O58_4 O 0.3480(3) 0.88155(16) 0.83135(10)
O59_4 O 0.1430(3) 0.77753(16) 0.91685(12)
H15_4 H 0.1058(11) 0.7674(13) 0.9141(13)
O60_4 O 0.2545(4) 0.85447(18) 0.80040(11)
O61_4 O 0.4621(3) 0.84522(16) 0.88532(12)
O62_4 O 0.2012(3) 0.90313(16) 0.83129(11)
O63_4 O 0.3015(3) 0.93715(15) 0.87287(11)
O64_4 O 0.2279(3) 0.80500(16) 0.95193(11)
O65_4 O 0.4209(3) 0.90953(16) 0.86819(12)
O66_4 O 0.1599(3) 0.80791(17) 0.81903(12)
H16_4 H 0.1229(15) 0.7977(6) 0.8163(15)
O67_4 O 0.4126(3) 0.89385(16) 0.91905(11)
O68_4 O 0.4688(3) 0.83215(18) 0.93774(13)
O69_4 O 0.1781(3) 0.71792(15) 0.89223(14)
O70_4 O 0.1034(3) 0.85602(15) 0.84859(12)
O71_4 O 0.1695(3) 0.94644(15) 0.86810(13)
O72_4 O 0.2890(3) 0.78852(17) 0.81891(12)
O73_4 O 0.3562(3) 0.78003(18) 0.95825(12)
O74_4 O 0.1633(3) 0.93093(16) 0.91937(12)
O75_4 O 0.4106(4) 0.96227(18) 0.90355(14)
O76_4 O 0.0771(3) 0.90248(16) 0.88537(14)
O77_4 O 0.4860(3) 0.8641(2) 0.83356(14)
O78_4 O 0.1918(4) 0.73906(18) 0.82392(15)
O79_4 O 0.1171(4) 0.8689(2) 0.79373(14)
O80_4 O 0.0922(3) 0.8193(2) 0.95850(14)
O81_4 O 0.2330(4) 0.98773(17) 0.90411(14)
O82_4 O 0.0493(4) 0.89399(19) 0.93774(15)
O83_4 O 0.0642(4) 0.9253(2) 0.83453(16)
O84_4 O 0.3845(4) 0.8299(2) 0.79386(13)
N3_4 N 0.9731(3) 0.23063(19) 0.63157(10)
N4_4 N 0.9933(4) 0.19823(19) 0.63407(16)
C6_4 C 0.9402(5) 0.1784(3) 0.6382(3)
C8_4 C 0.8855(6) 0.2001(3) 0.6392(4)
C10_4 C 0.8215(7) 0.1876(4) 0.6451(5)
H7_4 H 0.7849 0.2022 0.6459
C11_4 C 0.9327(8) 0.1416(4) 0.6396(6)
H8_4 H 0.9675 0.1264 0.6367
C12_4 C 0.8160(8) 0.1534(5) 0.6496(7)
H9_4 H 0.7758 0.1447 0.6555
C13_4 C 0.8690(8) 0.1308(5) 0.6457(7)
H10_4 H 0.8611 0.1072 0.6472
N7_4 N 0.9731(3) 0.76937(19) 0.86843(10)
N8_4 N 0.9933(4) 0.80177(19) 0.86593(16)
C21_4 C 0.9402(5) 0.8216(3) 0.8618(3)
C22_4 C 0.8855(6) 0.7999(3) 0.8608(4)
C23_4 C 0.8215(7) 0.8124(4) 0.8549(5)
H17_4 H 0.7849 0.7978 0.8541
C24_4 C 0.9327(8) 0.8584(4) 0.8604(6)
H18_4 H 0.9675 0.8736 0.8633
C25_4 C 0.8160(8) 0.8466(5) 0.8504(7)
H19_4 H 0.7758 0.8553 0.8445
C26_4 C 0.8690(8) 0.8692(5) 0.8543(7)
H20_4 H 0.8611 0.8928 0.8528
Mo1_5 Mo 0.09356(4) 0.65802(2) 0.58168(2)
Mo2_5 Mo 0.18495(4) 0.70087(2) 0.56556(2)
Mo3_5 Mo 0.29737(4) 0.74070(2) 0.60473(2)
Mo4_5 Mo 0.12466(4) 0.57641(2) 0.60369(2)
Mo5_5 Mo 0.27687(4) 0.55433(2) 0.60381(2)
Mo6_5 Mo 0.08167(4) 0.63781(2) 0.64818(2)
Mo7_5 Mo 0.28783(4) 0.72228(2) 0.66436(2)
Mo8_5 Mo 0.35336(4) 0.67609(2) 0.56518(2)
Mo9_5 Mo 0.38856(4) 0.61471(2) 0.58221(2)
Mo10_5 Mo 0.37919(4) 0.59462(2) 0.64728(2)
Mo11_5 Mo 0.16447(5) 0.66576(2) 0.68064(2)
Mo12_5 Mo 0.33649(5) 0.64032(2) 0.68084(2)
Zn1_3 Zn 0.14000(5) 0.72383(3) 0.62908(2)
Zn2_3 Zn 0.22696(5) 0.61010(3) 0.55534(2)
Zn3_5 Zn 0.41420(5) 0.68351(3) 0.62880(2)
Zn4_5 Zn 0.21027(6) 0.57769(3) 0.66245(2)
P1_5 P 0.24482(10) 0.64887(5) 0.61925(4)
O1_5 O 0.2530(2) 0.66308(14) 0.64710(9)
O2_5 O 0.2612(2) 0.67749(13) 0.59944(10)
O3_5 O 0.1721(2) 0.63770(13) 0.61536(9)
O4_5 O 0.1248(2) 0.70213(14) 0.59543(11)
O5_5 O 0.2067(3) 0.57643(14) 0.58179(10)
O6_5 O 0.3476(3) 0.71916(15) 0.63395(12)
O7_5 O 0.2927(3) 0.61864(14) 0.61516(10)
O8_5 O 0.1720(3) 0.65121(15) 0.55976(10)
O9_5 O 0.2331(3) 0.73549(15) 0.63403(11)
O10_5 O 0.2273(3) 0.74210(14) 0.58324(11)
O11_5 O 0.3142(3) 0.63027(16) 0.55969(10)
O12_5 O 0.4050(2) 0.66153(15) 0.59556(12)
O13_5 O 0.1145(3) 0.68519(16) 0.65185(11)
O14_5 O 0.1520(3) 0.61845(16) 0.66865(10)
O15_5 O 0.3570(3) 0.72247(16) 0.58315(12)
H1_5 H 0.3942(11) 0.7326(13) 0.5859(13)
O16_5 O 0.2455(4) 0.64553(18) 0.69960(11)
O17_5 O 0.0379(3) 0.65478(16) 0.61468(12)
O18_5 O 0.2988(3) 0.59687(16) 0.66871(11)
O19_5 O 0.1985(3) 0.56285(15) 0.62713(11)
O20_5 O 0.2721(3) 0.69500(16) 0.54807(11)
O21_5 O 0.0791(3) 0.59047(16) 0.63181(12)
O22_5 O 0.3401(3) 0.69209(17) 0.68097(12)
H2_5 H 0.3771(15) 0.7023(6) 0.6837(15)
N1_3 N 0.2177(4) 0.5880(2) 0.52060(14)
O23_5 O 0.0874(3) 0.60615(16) 0.58095(11)
O24_5 O 0.0312(3) 0.66785(18) 0.56226(13)
O25_5 O 0.1947(4) 0.54280(19) 0.68802(14)
N2_7 N 0.2213(6) 0.6074(3) 0.5000
O26_5 O 0.3219(3) 0.78208(15) 0.60777(14)
N3_5 N 0.5269(3) 0.73063(19) 0.63157(10)
O27_5 O 0.3966(3) 0.64398(15) 0.65141(12)
O28_5 O 0.3305(3) 0.55356(15) 0.63190(13)
O29_5 O 0.2110(3) 0.71148(17) 0.68109(12)
O30_5 O 0.1438(3) 0.71997(18) 0.54175(12)
O31_5 O 0.3367(3) 0.56907(16) 0.58063(12)
O32_5 O 0.0894(4) 0.53773(18) 0.59645(14)
O33_5 O 0.4229(3) 0.59752(16) 0.61463(14)
O34_5 O 0.2120(5) 0.5839(3) 0.71852(15)
O35_5 O 0.0140(3) 0.6359(2) 0.66644(14)
O36_5 O 0.3082(4) 0.76094(18) 0.67608(15)
O37_5 O 0.3829(4) 0.6311(2) 0.70627(14)
O38_5 O 0.4078(3) 0.6807(2) 0.54150(14)
N4_5 N 0.5067(4) 0.69823(19) 0.63407(16)
O39_5 O 0.2670(4) 0.51227(17) 0.59589(14)
N5_3 N 0.5917(3) 0.7326(2) 0.63451(16)
O40_5 O 0.4507(4) 0.60601(19) 0.56226(15)
O41_5 O 0.4358(4) 0.5747(2) 0.66547(16)
O42_5 O 0.1155(4) 0.6701(2) 0.70614(13)
C1_5 C 0.2127(5) 0.5553(3) 0.51364(18)
C2_5 C 0.2019(6) 0.5532(4) 0.7110(2)
C3_5 C 0.1992(5) 0.5258(3) 0.73175(19)
C4_5 C 0.1986(7) 0.4922(4) 0.7247(2)
H3_5 H 0.1984 0.4865 0.7073
C5_5 C 0.1984(7) 0.5343(3) 0.7568(2)
H4_5 H 0.1976 0.5573 0.7619
C6_5 C 0.5598(5) 0.6784(3) 0.6382(3)
C7_5 C 0.2109(8) 0.5248(3) 0.5282(3)
H5_5 H 0.2106 0.5252 0.5461
C8_5 C 0.6145(6) 0.7001(3) 0.6392(4)
C9_5 C 0.2095(9) 0.4946(4) 0.5148(3)
H6_5 H 0.2085 0.4737 0.5236
C10_5 C 0.6785(7) 0.6876(4) 0.6451(5)
H7_5 H 0.7151 0.7022 0.6459
C11_5 C 0.5673(8) 0.6416(4) 0.6396(6)
H8_5 H 0.5325 0.6264 0.6367
C12_5 C 0.6840(8) 0.6534(5) 0.6496(7)
H9_5 H 0.7242 0.6447 0.6555
C13_5 C 0.6310(8) 0.6308(5) 0.6457(7)
H10_5 H 0.6389 0.6072 0.6472
N6_5 N 0.2177(4) 0.5880(2) 0.47940(14)
C14_5 C 0.2127(5) 0.5553(3) 0.48636(18)
C15_5 C 0.2109(8) 0.5248(3) 0.4718(3)
H11_5 H 0.2106 0.5252 0.4539
C16_5 C 0.2095(9) 0.4946(4) 0.4852(3)
H12_5 H 0.2085 0.4737 0.4764
O43_5 O 0.1947(4) 0.45720(19) 0.81198(14)
O44_5 O 0.2120(5) 0.4161(3) 0.78148(15)
C17_5 C 0.2019(6) 0.4468(4) 0.7890(2)
C18_5 C 0.1992(5) 0.4742(3) 0.76825(19)
C19_5 C 0.1986(7) 0.5078(4) 0.7753(2)
H13_5 H 0.1984 0.5135 0.7927
C20_5 C 0.1984(7) 0.4657(3) 0.7432(2)
H14_5 H 0.1976 0.4427 0.7381
Mo13_5 Mo 0.09356(4) 0.34198(2) 0.91832(2)
Mo14_5 Mo 0.18495(4) 0.29913(2) 0.93444(2)
Mo15_5 Mo 0.29737(4) 0.25930(2) 0.89527(2)
Mo16_5 Mo 0.12466(4) 0.42359(2) 0.89631(2)
Mo17_5 Mo 0.27687(4) 0.44567(2) 0.89619(2)
Mo18_5 Mo 0.08167(4) 0.36219(2) 0.85182(2)
Mo19_5 Mo 0.28783(4) 0.27772(2) 0.83564(2)
Mo20_5 Mo 0.35336(4) 0.32391(2) 0.93482(2)
Mo21_5 Mo 0.38856(4) 0.38529(2) 0.91779(2)
Mo22_5 Mo 0.37919(4) 0.40538(2) 0.85272(2)
Mo23_5 Mo 0.16447(5) 0.33424(2) 0.81936(2)
Mo24_5 Mo 0.33649(5) 0.35968(2) 0.81916(2)
Zn5_3 Zn 0.14000(5) 0.27617(3) 0.87092(2)
Zn6_3 Zn 0.22696(5) 0.38990(3) 0.94466(2)
Zn7_5 Zn 0.41420(5) 0.31649(3) 0.87120(2)
Zn8_5 Zn 0.21027(6) 0.42231(3) 0.83755(2)
P2_5 P 0.24482(10) 0.35113(5) 0.88075(4)
O45_5 O 0.2530(2) 0.33692(14) 0.85290(9)
O46_5 O 0.2612(2) 0.32251(13) 0.90056(10)
O47_5 O 0.1721(2) 0.36230(13) 0.88464(9)
O48_5 O 0.1248(2) 0.29787(14) 0.90457(11)
O49_5 O 0.2067(3) 0.42357(14) 0.91821(10)
O50_5 O 0.3476(3) 0.28084(15) 0.86605(12)
O51_5 O 0.2927(3) 0.38136(14) 0.88484(10)
O52_5 O 0.1720(3) 0.34879(15) 0.94024(10)
O53_5 O 0.2331(3) 0.26451(15) 0.86597(11)
O54_5 O 0.2273(3) 0.25790(14) 0.91676(11)
O55_5 O 0.3142(3) 0.36973(16) 0.94031(10)
O56_5 O 0.4050(2) 0.33847(15) 0.90444(12)
O57_5 O 0.1145(3) 0.31481(16) 0.84815(11)
O58_5 O 0.1520(3) 0.38155(16) 0.83135(10)
O59_5 O 0.3570(3) 0.27753(16) 0.91685(12)
H15_5 H 0.3942(11) 0.2674(13) 0.9141(13)
O60_5 O 0.2455(4) 0.35447(18) 0.80040(11)
O61_5 O 0.0379(3) 0.34522(16) 0.88532(12)
O62_5 O 0.2988(3) 0.40313(16) 0.83129(11)
O63_5 O 0.1985(3) 0.43715(15) 0.87287(11)
O64_5 O 0.2721(3) 0.30500(16) 0.95193(11)
O65_5 O 0.0791(3) 0.40953(16) 0.86819(12)
O66_5 O 0.3401(3) 0.30791(17) 0.81903(12)
H16_5 H 0.3771(15) 0.2977(6) 0.8163(15)
O67_5 O 0.0874(3) 0.39385(16) 0.91905(11)
O68_5 O 0.0312(3) 0.33215(18) 0.93774(13)
O69_5 O 0.3219(3) 0.21792(15) 0.89223(14)
N7_5 N 0.5269(3) 0.26937(19) 0.86843(10)
O70_5 O 0.3966(3) 0.35602(15) 0.84859(12)
O71_5 O 0.3305(3) 0.44644(15) 0.86810(13)
O72_5 O 0.2110(3) 0.28852(17) 0.81891(12)
O73_5 O 0.1438(3) 0.28003(18) 0.95825(12)
O74_5 O 0.3367(3) 0.43093(16) 0.91937(12)
O75_5 O 0.0894(4) 0.46227(18) 0.90355(14)
O76_5 O 0.4229(3) 0.40248(16) 0.88537(14)
O77_5 O 0.0140(3) 0.3641(2) 0.83356(14)
O78_5 O 0.3082(4) 0.23906(18) 0.82392(15)
O79_5 O 0.3829(4) 0.3689(2) 0.79373(14)
O80_5 O 0.4078(3) 0.3193(2) 0.95850(14)
N8_5 N 0.5067(4) 0.30177(19) 0.86593(16)
O81_5 O 0.2670(4) 0.48773(17) 0.90411(14)
N9_3 N 0.5917(3) 0.2674(2) 0.86549(16)
O82_5 O 0.4507(4) 0.39399(19) 0.93774(15)
O83_5 O 0.4358(4) 0.4253(2) 0.83453(16)
O84_5 O 0.1155(4) 0.3299(2) 0.79386(13)
C21_5 C 0.5598(5) 0.3216(3) 0.8618(3)
C22_5 C 0.6145(6) 0.2999(3) 0.8608(4)
C23_5 C 0.6785(7) 0.3124(4) 0.8549(5)
H17_5 H 0.7151 0.2978 0.8541
C24_5 C 0.5673(8) 0.3584(4) 0.8604(6)
H18_5 H 0.5325 0.3736 0.8633
C25_5 C 0.6840(8) 0.3466(5) 0.8504(7)
H19_5 H 0.7242 0.3553 0.8445
C26_5 C 0.6310(8) 0.3692(5) 0.8543(7)
H20_5 H 0.6389 0.3928 0.8528
Zn9_3 Zn 0.64000(5) 0.77617(3) 0.62908(2)
Zn10_3 Zn 0.64000(5) 0.22383(3) 0.87092(2)
Zn11_5 Zn 0.22696(5) 0.61010(3) 0.44466(2)
N10_3 N 0.2177(4) 0.4120(2) 0.97940(14)
N11_3 N 0.0917(3) 0.7674(2) 0.63451(16)
N12_3 N 0.0917(3) 0.2326(2) 0.86549(16)
N7_6 N 0.0269(3) 0.23063(19) 0.13157(10)
N8_6 N 0.0067(4) 0.19823(19) 0.13407(16)
N9_4 N 0.0917(3) 0.2326(2) 0.13451(16)
C21_6 C 0.0598(5) 0.1784(3) 0.1382(3)
C22_6 C 0.1145(6) 0.2001(3) 0.1392(4)
C23_6 C 0.1785(7) 0.1876(4) 0.1451(5)
H17_6 H 0.2151 0.2022 0.1459
C24_6 C 0.0673(8) 0.1416(4) 0.1396(6)
H18_6 H 0.0325 0.1264 0.1367
C25_6 C 0.1840(8) 0.1534(5) 0.1496(7)
H19_6 H 0.2242 0.1447 0.1555
C26_6 C 0.1310(8) 0.1308(5) 0.1457(7)
H20_6 H 0.1389 0.1072 0.1472
Zn10_4 Zn 0.14000(5) 0.27617(3) 0.12908(2)
N3_6 N 0.0269(3) 0.76937(19) 0.36843(10)
N4_6 N 0.0067(4) 0.80177(19) 0.36593(16)
N5_4 N 0.0917(3) 0.7674(2) 0.36549(16)
C6_6 C 0.0598(5) 0.8216(3) 0.3618(3)
C8_6 C 0.1145(6) 0.7999(3) 0.3608(4)
C10_6 C 0.1785(7) 0.8124(4) 0.3549(5)
H7_6 H 0.2151 0.7978 0.3541
C11_6 C 0.0673(8) 0.8584(4) 0.3604(6)
H8_6 H 0.0325 0.8736 0.3633
C12_6 C 0.1840(8) 0.8466(5) 0.3504(7)
H9_6 H 0.2242 0.8553 0.3445
C13_6 C 0.1310(8) 0.8692(5) 0.3543(7)
H10_6 H 0.1389 0.8928 0.3528
Zn9_4 Zn 0.14000(5) 0.72383(3) 0.37092(2)
C4_6 C 0.6986(7) 0.0078(4) 0.2753(2)
H3_6 H 0.6984 0.0135 0.2927
C9_6 C 0.7095(9) 0.0054(4) 0.4852(3)
H6_6 H 0.7085 0.0263 0.4764
C16_6 C 0.7095(9) 0.0054(4) 0.5148(3)
H12_6 H 0.7085 0.0263 0.5236
O43_6 O 0.6947(4) 0.04280(19) 0.18802(14)
O44_6 O 0.7120(5) 0.0839(3) 0.21852(15)
C17_6 C 0.7019(6) 0.0532(4) 0.2110(2)
C18_6 C 0.6992(5) 0.0258(3) 0.23175(19)
C20_6 C 0.6984(7) 0.0343(3) 0.2568(2)
H14_6 H 0.6976 0.0573 0.2619
Mo13_6 Mo 0.59356(4) 0.15802(2) 0.08168(2)
Mo14_6 Mo 0.68495(4) 0.20087(2) 0.06556(2)
Mo15_6 Mo 0.79737(4) 0.24070(2) 0.10473(2)
Mo16_6 Mo 0.62466(4) 0.07641(2) 0.10369(2)
Mo17_6 Mo 0.77687(4) 0.05433(2) 0.10381(2)
Mo18_6 Mo 0.58167(4) 0.13781(2) 0.14818(2)
Mo19_6 Mo 0.78783(4) 0.22228(2) 0.16436(2)
Mo20_6 Mo 0.85336(4) 0.17609(2) 0.06518(2)
Mo21_6 Mo 0.88856(4) 0.11471(2) 0.08221(2)
Mo22_6 Mo 0.87919(4) 0.09462(2) 0.14728(2)
Mo23_6 Mo 0.66447(5) 0.16576(2) 0.18064(2)
Mo24_6 Mo 0.83649(5) 0.14032(2) 0.18084(2)
Zn5_4 Zn 0.64000(5) 0.22383(3) 0.12908(2)
Zn6_4 Zn 0.72696(5) 0.11010(3) 0.05534(2)
Zn7_6 Zn 0.91420(5) 0.18351(3) 0.12880(2)
Zn8_6 Zn 0.71027(6) 0.07769(3) 0.16245(2)
P2_6 P 0.74482(10) 0.14887(5) 0.11925(4)
O45_6 O 0.7530(2) 0.16308(14) 0.14710(9)
O46_6 O 0.7612(2) 0.17749(13) 0.09944(10)
O47_6 O 0.6721(2) 0.13770(13) 0.11536(9)
O48_6 O 0.6248(2) 0.20213(14) 0.09543(11)
O49_6 O 0.7067(3) 0.07643(14) 0.08179(10)
O50_6 O 0.8476(3) 0.21916(15) 0.13395(12)
O51_6 O 0.7927(3) 0.11864(14) 0.11516(10)
O52_6 O 0.6720(3) 0.15121(15) 0.05976(10)
O53_6 O 0.7331(3) 0.23549(15) 0.13403(11)
O54_6 O 0.7273(3) 0.24210(14) 0.08324(11)
O55_6 O 0.8142(3) 0.13027(16) 0.05969(10)
O56_6 O 0.9050(2) 0.16153(15) 0.09556(12)
O57_6 O 0.6145(3) 0.18519(16) 0.15185(11)
O58_6 O 0.6520(3) 0.11845(16) 0.16865(10)
O59_6 O 0.8570(3) 0.22247(16) 0.08315(12)
H15_6 H 0.8942(11) 0.2326(13) 0.0859(13)
O60_6 O 0.7455(4) 0.14553(18) 0.19960(11)
O61_6 O 0.5379(3) 0.15478(16) 0.11468(12)
O62_6 O 0.7988(3) 0.09687(16) 0.16871(11)
O63_6 O 0.6985(3) 0.06285(15) 0.12713(11)
O64_6 O 0.7721(3) 0.19500(16) 0.04807(11)
O65_6 O 0.5791(3) 0.09047(16) 0.13181(12)
O66_6 O 0.8401(3) 0.19209(17) 0.18097(12)
H16_6 H 0.8771(15) 0.2023(6) 0.1837(15)
O67_6 O 0.5874(3) 0.10615(16) 0.08095(11)
O68_6 O 0.5312(3) 0.16785(18) 0.06226(13)
O69_6 O 0.8219(3) 0.28208(15) 0.10777(14)
O70_6 O 0.8966(3) 0.14398(15) 0.15141(12)
O71_6 O 0.8305(3) 0.05356(15) 0.13190(13)
O72_6 O 0.7110(3) 0.21148(17) 0.18109(12)
O73_6 O 0.6438(3) 0.21997(18) 0.04175(12)
O74_6 O 0.8367(3) 0.06907(16) 0.08063(12)
O75_6 O 0.5894(4) 0.03773(18) 0.09645(14)
O76_6 O 0.9229(3) 0.09752(16) 0.11463(14)
O77_6 O 0.5140(3) 0.1359(2) 0.16644(14)
O78_6 O 0.8082(4) 0.26094(18) 0.17608(15)
O79_6 O 0.8829(4) 0.1311(2) 0.20627(14)
O80_6 O 0.9078(3) 0.1807(2) 0.04150(14)
O81_6 O 0.7670(4) 0.01227(17) 0.09589(14)
O82_6 O 0.9507(4) 0.10601(19) 0.06226(15)
O83_6 O 0.9358(4) 0.0747(2) 0.16547(16)
O84_6 O 0.6155(4) 0.1701(2) 0.20614(13)
N10_4 N 0.7177(4) 0.0880(2) 0.02060(14)
N12_4 N 0.5917(3) 0.2674(2) 0.13451(16)
Mo1_6 Mo 0.59356(4) 0.84198(2) 0.41832(2)
Mo2_6 Mo 0.68495(4) 0.79913(2) 0.43444(2)
Mo3_6 Mo 0.79737(4) 0.75930(2) 0.39527(2)
Mo4_6 Mo 0.62466(4) 0.92359(2) 0.39631(2)
Mo5_6 Mo 0.77687(4) 0.94567(2) 0.39619(2)
Mo6_6 Mo 0.58167(4) 0.86219(2) 0.35182(2)
Mo7_6 Mo 0.78783(4) 0.77772(2) 0.33564(2)
Mo8_6 Mo 0.85336(4) 0.82391(2) 0.43482(2)
Mo9_6 Mo 0.88856(4) 0.88529(2) 0.41779(2)
Mo10_6 Mo 0.87919(4) 0.90538(2) 0.35272(2)
Mo11_6 Mo 0.66447(5) 0.83424(2) 0.31936(2)
Mo12_6 Mo 0.83649(5) 0.85968(2) 0.31916(2)
Zn1_4 Zn 0.64000(5) 0.77617(3) 0.37092(2)
Zn2_4 Zn 0.72696(5) 0.88990(3) 0.44466(2)
Zn3_6 Zn 0.91420(5) 0.81649(3) 0.37120(2)
Zn4_6 Zn 0.71027(6) 0.92231(3) 0.33755(2)
P1_6 P 0.74482(10) 0.85113(5) 0.38075(4)
O1_6 O 0.7530(2) 0.83692(14) 0.35290(9)
O2_6 O 0.7612(2) 0.82251(13) 0.40056(10)
O3_6 O 0.6721(2) 0.86230(13) 0.38464(9)
O4_6 O 0.6248(2) 0.79787(14) 0.40457(11)
O5_6 O 0.7067(3) 0.92357(14) 0.41821(10)
O6_6 O 0.8476(3) 0.78084(15) 0.36605(12)
O7_6 O 0.7927(3) 0.88136(14) 0.38484(10)
O8_6 O 0.6720(3) 0.84879(15) 0.44024(10)
O9_6 O 0.7331(3) 0.76451(15) 0.36597(11)
O10_6 O 0.7273(3) 0.75790(14) 0.41676(11)
O11_6 O 0.8142(3) 0.86973(16) 0.44031(10)
O12_6 O 0.9050(2) 0.83847(15) 0.40444(12)
O13_6 O 0.6145(3) 0.81481(16) 0.34815(11)
O14_6 O 0.6520(3) 0.88155(16) 0.33135(10)
O15_6 O 0.8570(3) 0.77753(16) 0.41685(12)
H1_6 H 0.8942(11) 0.7674(13) 0.4141(13)
O16_6 O 0.7455(4) 0.85447(18) 0.30040(11)
O17_6 O 0.5379(3) 0.84522(16) 0.38532(12)
O18_6 O 0.7988(3) 0.90313(16) 0.33129(11)
O19_6 O 0.6985(3) 0.93715(15) 0.37287(11)
O20_6 O 0.7721(3) 0.80500(16) 0.45193(11)
O21_6 O 0.5791(3) 0.90953(16) 0.36819(12)
O22_6 O 0.8401(3) 0.80791(17) 0.31903(12)
H2_6 H 0.8771(15) 0.7977(6) 0.3163(15)
N1_4 N 0.7177(4) 0.9120(2) 0.47940(14)
O23_6 O 0.5874(3) 0.89385(16) 0.41905(11)
O24_6 O 0.5312(3) 0.83215(18) 0.43774(13)
O25_6 O 0.6947(4) 0.95720(19) 0.31198(14)
N2_8 N 0.7213(6) 0.8926(3) 0.5000
O26_6 O 0.8219(3) 0.71792(15) 0.39223(14)
O27_6 O 0.8966(3) 0.85602(15) 0.34859(12)
O28_6 O 0.8305(3) 0.94644(15) 0.36810(13)
O29_6 O 0.7110(3) 0.78852(17) 0.31891(12)
O30_6 O 0.6438(3) 0.78003(18) 0.45825(12)
O31_6 O 0.8367(3) 0.93093(16) 0.41937(12)
O32_6 O 0.5894(4) 0.96227(18) 0.40355(14)
O33_6 O 0.9229(3) 0.90248(16) 0.38537(14)
O34_6 O 0.7120(5) 0.9161(3) 0.28148(15)
O35_6 O 0.5140(3) 0.8641(2) 0.33356(14)
O36_6 O 0.8082(4) 0.73906(18) 0.32392(15)
O37_6 O 0.8829(4) 0.8689(2) 0.29373(14)
O38_6 O 0.9078(3) 0.8193(2) 0.45850(14)
O39_6 O 0.7670(4) 0.98773(17) 0.40411(14)
O40_6 O 0.9507(4) 0.89399(19) 0.43774(15)
O41_6 O 0.9358(4) 0.9253(2) 0.33453(16)
O42_6 O 0.6155(4) 0.8299(2) 0.29386(13)
C1_6 C 0.7127(5) 0.9447(3) 0.48636(18)
C2_6 C 0.7019(6) 0.9468(4) 0.2890(2)
C3_6 C 0.6992(5) 0.9742(3) 0.26825(19)
C5_6 C 0.6984(7) 0.9657(3) 0.2432(2)
H4_6 H 0.6976 0.9427 0.2381
C7_6 C 0.7109(8) 0.9752(3) 0.4718(3)
H5_6 H 0.7106 0.9748 0.4539
N6_6 N 0.7177(4) 0.9120(2) 0.52060(14)
C14_6 C 0.7127(5) 0.9447(3) 0.51364(18)
C15_6 C 0.7109(8) 0.9752(3) 0.5282(3)
H11_6 H 0.7106 0.9748 0.5461
C19_6 C 0.6986(7) 0.9922(4) 0.2247(2)
H13_6 H 0.6984 0.9865 0.2073
Zn11_6 Zn 0.72696(5) 0.88990(3) 0.55534(2)
N11_4 N 0.5917(3) 0.7326(2) 0.36549(16)
N2_9 N 0.7213(6) 0.1074(3) -0.0000
C1_7 C 0.7127(5) 0.0553(3) 0.01364(18)
C7_7 C 0.7109(8) 0.0248(3) 0.0282(3)
H5_7 H 0.7106 0.0252 0.0461
N2_10 N 0.7213(6) 0.1074(3) 1.0000
N6_7 N 0.7177(4) 0.0880(2) 0.97940(14)
C14_7 C 0.7127(5) 0.0553(3) 0.98636(18)
C15_7 C 0.7109(8) 0.0248(3) 0.9718(3)
H11_7 H 0.7106 0.0252 0.9539
Zn11_7 Zn 0.72696(5) 0.11010(3) 0.94466(2)
C9_7 C 0.7095(9) 0.9946(4) 0.0148(3)
H6_7 H 0.7085 0.9737 0.0236
C16_7 C 0.7095(9) 0.9946(4) 0.9852(3)
H12_7 H 0.7085 0.9737 0.9764
N2_11 N 0.2213(6) 0.3926(3) 0.0000
N6_8 N 0.2177(4) 0.4120(2) 0.02060(14)
C14_8 C 0.2127(5) 0.4447(3) 0.01364(18)
C15_8 C 0.2109(8) 0.4752(3) 0.0282(3)
H11_8 H 0.2106 0.4748 0.0461
C16_8 C 0.2095(9) 0.5054(4) 0.0148(3)
H12_8 H 0.2085 0.5263 0.0236
Zn11_8 Zn 0.22696(5) 0.38990(3) 0.05534(2)
N2_12 N 0.2213(6) 0.3926(3) 1.0000
C1_8 C 0.2127(5) 0.4447(3) 0.98636(18)
C7_8 C 0.2109(8) 0.4752(3) 0.9718(3)
H5_8 H 0.2106 0.4748 0.9539
C9_8 C 0.2095(9) 0.5054(4) 0.9852(3)
H6_8 H 0.2085 0.5263 0.9764
Mo1_7 Mo 0.09356(4) 0.65802(2) 0.41832(2)
Mo2_7 Mo 0.18495(4) 0.70087(2) 0.43444(2)
Mo3_7 Mo 0.29737(4) 0.74070(2) 0.39527(2)
Mo4_7 Mo 0.12466(4) 0.57641(2) 0.39631(2)
Mo5_7 Mo 0.27687(4) 0.55433(2) 0.39619(2)
Mo6_7 Mo 0.08167(4) 0.63781(2) 0.35182(2)
Mo7_7 Mo 0.28783(4) 0.72228(2) 0.33564(2)
Mo8_7 Mo 0.35336(4) 0.67609(2) 0.43482(2)
Mo9_7 Mo 0.38856(4) 0.61471(2) 0.41779(2)
Mo10_7 Mo 0.37919(4) 0.59462(2) 0.35272(2)
Mo11_7 Mo 0.16447(5) 0.66576(2) 0.31936(2)
Mo12_7 Mo 0.33649(5) 0.64032(2) 0.31916(2)
Zn3_7 Zn 0.41420(5) 0.68351(3) 0.37120(2)
Zn4_7 Zn 0.21027(6) 0.57769(3) 0.33755(2)
P1_7 P 0.24482(10) 0.64887(5) 0.38075(4)
O1_7 O 0.2530(2) 0.66308(14) 0.35290(9)
O2_7 O 0.2612(2) 0.67749(13) 0.40056(10)
O3_7 O 0.1721(2) 0.63770(13) 0.38464(9)
O4_7 O 0.1248(2) 0.70213(14) 0.40457(11)
O5_7 O 0.2067(3) 0.57643(14) 0.41821(10)
O6_7 O 0.3476(3) 0.71916(15) 0.36605(12)
O7_7 O 0.2927(3) 0.61864(14) 0.38484(10)
O8_7 O 0.1720(3) 0.65121(15) 0.44024(10)
O9_7 O 0.2331(3) 0.73549(15) 0.36597(11)
O10_7 O 0.2273(3) 0.74210(14) 0.41676(11)
O11_7 O 0.3142(3) 0.63027(16) 0.44031(10)
O12_7 O 0.4050(2) 0.66153(15) 0.40444(12)
O13_7 O 0.1145(3) 0.68519(16) 0.34815(11)
O14_7 O 0.1520(3) 0.61845(16) 0.33135(10)
O15_7 O 0.3570(3) 0.72247(16) 0.41685(12)
H1_7 H 0.3942(11) 0.7326(13) 0.4141(13)
O16_7 O 0.2455(4) 0.64553(18) 0.30040(11)
O17_7 O 0.0379(3) 0.65478(16) 0.38532(12)
O18_7 O 0.2988(3) 0.59687(16) 0.33129(11)
O19_7 O 0.1985(3) 0.56285(15) 0.37287(11)
O20_7 O 0.2721(3) 0.69500(16) 0.45193(11)
O21_7 O 0.0791(3) 0.59047(16) 0.36819(12)
O22_7 O 0.3401(3) 0.69209(17) 0.31903(12)
H2_7 H 0.3771(15) 0.7023(6) 0.3163(15)
O23_7 O 0.0874(3) 0.60615(16) 0.41905(11)
O24_7 O 0.0312(3) 0.66785(18) 0.43774(13)
O25_7 O 0.1947(4) 0.54280(19) 0.31198(14)
O26_7 O 0.3219(3) 0.78208(15) 0.39223(14)
N3_7 N 0.5269(3) 0.73063(19) 0.36843(10)
O27_7 O 0.3966(3) 0.64398(15) 0.34859(12)
O28_7 O 0.3305(3) 0.55356(15) 0.36810(13)
O29_7 O 0.2110(3) 0.71148(17) 0.31891(12)
O30_7 O 0.1438(3) 0.71997(18) 0.45825(12)
O31_7 O 0.3367(3) 0.56907(16) 0.41937(12)
O32_7 O 0.0894(4) 0.53773(18) 0.40355(14)
O33_7 O 0.4229(3) 0.59752(16) 0.38537(14)
O34_7 O 0.2120(5) 0.5839(3) 0.28148(15)
O35_7 O 0.0140(3) 0.6359(2) 0.33356(14)
O36_7 O 0.3082(4) 0.76094(18) 0.32392(15)
O37_7 O 0.3829(4) 0.6311(2) 0.29373(14)
O38_7 O 0.4078(3) 0.6807(2) 0.45850(14)
N4_7 N 0.5067(4) 0.69823(19) 0.36593(16)
O39_7 O 0.2670(4) 0.51227(17) 0.40411(14)
O40_7 O 0.4507(4) 0.60601(19) 0.43774(15)
O41_7 O 0.4358(4) 0.5747(2) 0.33453(16)
O42_7 O 0.1155(4) 0.6701(2) 0.29386(13)
C2_7 C 0.2019(6) 0.5532(4) 0.2890(2)
C3_7 C 0.1992(5) 0.5258(3) 0.26825(19)
C4_7 C 0.1986(7) 0.4922(4) 0.2753(2)
H3_7 H 0.1984 0.4865 0.2927
C5_7 C 0.1984(7) 0.5343(3) 0.2432(2)
H4_7 H 0.1976 0.5573 0.2381
C6_7 C 0.5598(5) 0.6784(3) 0.3618(3)
C8_7 C 0.6145(6) 0.7001(3) 0.3608(4)
C10_7 C 0.6785(7) 0.6876(4) 0.3549(5)
H7_7 H 0.7151 0.7022 0.3541
C11_7 C 0.5673(8) 0.6416(4) 0.3604(6)
H8_7 H 0.5325 0.6264 0.3633
C12_7 C 0.6840(8) 0.6534(5) 0.3504(7)
H9_7 H 0.7242 0.6447 0.3445
C13_7 C 0.6310(8) 0.6308(5) 0.3543(7)
H10_7 H 0.6389 0.6072 0.3528
O43_7 O 0.1947(4) 0.45720(19) 0.18802(14)
O44_7 O 0.2120(5) 0.4161(3) 0.21852(15)
C17_7 C 0.2019(6) 0.4468(4) 0.2110(2)
C18_7 C 0.1992(5) 0.4742(3) 0.23175(19)
C19_7 C 0.1986(7) 0.5078(4) 0.2247(2)
H13_7 H 0.1984 0.5135 0.2073
C20_7 C 0.1984(7) 0.4657(3) 0.2568(2)
H14_7 H 0.1976 0.4427 0.2619
Mo13_7 Mo 0.09356(4) 0.34198(2) 0.08168(2)
Mo14_7 Mo 0.18495(4) 0.29913(2) 0.06556(2)
Mo15_7 Mo 0.29737(4) 0.25930(2) 0.10473(2)
Mo16_7 Mo 0.12466(4) 0.42359(2) 0.10369(2)
Mo17_7 Mo 0.27687(4) 0.44567(2) 0.10381(2)
Mo18_7 Mo 0.08167(4) 0.36219(2) 0.14818(2)
Mo19_7 Mo 0.28783(4) 0.27772(2) 0.16436(2)
Mo20_7 Mo 0.35336(4) 0.32391(2) 0.06518(2)
Mo21_7 Mo 0.38856(4) 0.38529(2) 0.08221(2)
Mo22_7 Mo 0.37919(4) 0.40538(2) 0.14728(2)
Mo23_7 Mo 0.16447(5) 0.33424(2) 0.18064(2)
Mo24_7 Mo 0.33649(5) 0.35968(2) 0.18084(2)
Zn7_7 Zn 0.41420(5) 0.31649(3) 0.12880(2)
Zn8_7 Zn 0.21027(6) 0.42231(3) 0.16245(2)
P2_7 P 0.24482(10) 0.35113(5) 0.11925(4)
O45_7 O 0.2530(2) 0.33692(14) 0.14710(9)
O46_7 O 0.2612(2) 0.32251(13) 0.09944(10)
O47_7 O 0.1721(2) 0.36230(13) 0.11536(9)
O48_7 O 0.1248(2) 0.29787(14) 0.09543(11)
O49_7 O 0.2067(3) 0.42357(14) 0.08179(10)
O50_7 O 0.3476(3) 0.28084(15) 0.13395(12)
O51_7 O 0.2927(3) 0.38136(14) 0.11516(10)
O52_7 O 0.1720(3) 0.34879(15) 0.05976(10)
O53_7 O 0.2331(3) 0.26451(15) 0.13403(11)
O54_7 O 0.2273(3) 0.25790(14) 0.08324(11)
O55_7 O 0.3142(3) 0.36973(16) 0.05969(10)
O56_7 O 0.4050(2) 0.33847(15) 0.09556(12)
O57_7 O 0.1145(3) 0.31481(16) 0.15185(11)
O58_7 O 0.1520(3) 0.38155(16) 0.16865(10)
O59_7 O 0.3570(3) 0.27753(16) 0.08315(12)
H15_7 H 0.3942(11) 0.2674(13) 0.0859(13)
O60_7 O 0.2455(4) 0.35447(18) 0.19960(11)
O61_7 O 0.0379(3) 0.34522(16) 0.11468(12)
O62_7 O 0.2988(3) 0.40313(16) 0.16871(11)
O63_7 O 0.1985(3) 0.43715(15) 0.12713(11)
O64_7 O 0.2721(3) 0.30500(16) 0.04807(11)
O65_7 O 0.0791(3) 0.40953(16) 0.13181(12)
O66_7 O 0.3401(3) 0.30791(17) 0.18097(12)
H16_7 H 0.3771(15) 0.2977(6) 0.1837(15)
O67_7 O 0.0874(3) 0.39385(16) 0.08095(11)
O68_7 O 0.0312(3) 0.33215(18) 0.06226(13)
O69_7 O 0.3219(3) 0.21792(15) 0.10777(14)
N7_7 N 0.5269(3) 0.26937(19) 0.13157(10)
O70_7 O 0.3966(3) 0.35602(15) 0.15141(12)
O71_7 O 0.3305(3) 0.44644(15) 0.13190(13)
O72_7 O 0.2110(3) 0.28852(17) 0.18109(12)
O73_7 O 0.1438(3) 0.28003(18) 0.04175(12)
O74_7 O 0.3367(3) 0.43093(16) 0.08063(12)
O75_7 O 0.0894(4) 0.46227(18) 0.09645(14)
O76_7 O 0.4229(3) 0.40248(16) 0.11463(14)
O77_7 O 0.0140(3) 0.3641(2) 0.16644(14)
O78_7 O 0.3082(4) 0.23906(18) 0.17608(15)
O79_7 O 0.3829(4) 0.3689(2) 0.20627(14)
O80_7 O 0.4078(3) 0.3193(2) 0.04150(14)
N8_7 N 0.5067(4) 0.30177(19) 0.13407(16)
O81_7 O 0.2670(4) 0.48773(17) 0.09589(14)
O82_7 O 0.4507(4) 0.39399(19) 0.06226(15)
O83_7 O 0.4358(4) 0.4253(2) 0.16547(16)
O84_7 O 0.1155(4) 0.3299(2) 0.20614(13)
C21_7 C 0.5598(5) 0.3216(3) 0.1382(3)
C22_7 C 0.6145(6) 0.2999(3) 0.1392(4)
C23_7 C 0.6785(7) 0.3124(4) 0.1451(5)
H17_7 H 0.7151 0.2978 0.1459
C24_7 C 0.5673(8) 0.3584(4) 0.1396(6)
H18_7 H 0.5325 0.3736 0.1367
C25_7 C 0.6840(8) 0.3466(5) 0.1496(7)
H19_7 H 0.7242 0.3553 0.1555
C26_7 C 0.6310(8) 0.3692(5) 0.1457(7)
H20_7 H 0.6389 0.3928 0.1472
N7_8 N 0.0269(3) 0.23063(19) 0.86843(10)
N8_8 N 0.0067(4) 0.19823(19) 0.86593(16)
C21_8 C 0.0598(5) 0.1784(3) 0.8618(3)
C22_8 C 0.1145(6) 0.2001(3) 0.8608(4)
C23_8 C 0.1785(7) 0.1876(4) 0.8549(5)
H17_8 H 0.2151 0.2022 0.8541
C24_8 C 0.0673(8) 0.1416(4) 0.8604(6)
H18_8 H 0.0325 0.1264 0.8633
C25_8 C 0.1840(8) 0.1534(5) 0.8504(7)
H19_8 H 0.2242 0.1447 0.8445
C26_8 C 0.1310(8) 0.1308(5) 0.8543(7)
H20_8 H 0.1389 0.1072 0.8528
N3_8 N 0.0269(3) 0.76937(19) 0.63157(10)
N4_8 N 0.0067(4) 0.80177(19) 0.63407(16)
C6_8 C 0.0598(5) 0.8216(3) 0.6382(3)
C8_8 C 0.1145(6) 0.7999(3) 0.6392(4)
C10_8 C 0.1785(7) 0.8124(4) 0.6451(5)
H7_8 H 0.2151 0.7978 0.6459
C11_8 C 0.0673(8) 0.8584(4) 0.6396(6)
H8_8 H 0.0325 0.8736 0.6367
C12_8 C 0.1840(8) 0.8466(5) 0.6496(7)
H9_8 H 0.2242 0.8553 0.6555
C13_8 C 0.1310(8) 0.8692(5) 0.6457(7)
H10_8 H 0.1389 0.8928 0.6472
C4_8 C 0.6986(7) 0.0078(4) 0.7247(2)
H3_8 H 0.6984 0.0135 0.7073
O43_8 O 0.6947(4) 0.04280(19) 0.81198(14)
O44_8 O 0.7120(5) 0.0839(3) 0.78148(15)
C17_8 C 0.7019(6) 0.0532(4) 0.7890(2)
C18_8 C 0.6992(5) 0.0258(3) 0.76825(19)
C20_8 C 0.6984(7) 0.0343(3) 0.7432(2)
H14_8 H 0.6976 0.0573 0.7381
Mo13_8 Mo 0.59356(4) 0.15802(2) 0.91832(2)
Mo14_8 Mo 0.68495(4) 0.20087(2) 0.93444(2)
Mo15_8 Mo 0.79737(4) 0.24070(2) 0.89527(2)
Mo16_8 Mo 0.62466(4) 0.07641(2) 0.89631(2)
Mo17_8 Mo 0.77687(4) 0.05433(2) 0.89619(2)
Mo18_8 Mo 0.58167(4) 0.13781(2) 0.85182(2)
Mo19_8 Mo 0.78783(4) 0.22228(2) 0.83564(2)
Mo20_8 Mo 0.85336(4) 0.17609(2) 0.93482(2)
Mo21_8 Mo 0.88856(4) 0.11471(2) 0.91779(2)
Mo22_8 Mo 0.87919(4) 0.09462(2) 0.85272(2)
Mo23_8 Mo 0.66447(5) 0.16576(2) 0.81936(2)
Mo24_8 Mo 0.83649(5) 0.14032(2) 0.81916(2)
Zn7_8 Zn 0.91420(5) 0.18351(3) 0.87120(2)
Zn8_8 Zn 0.71027(6) 0.07769(3) 0.83755(2)
P2_8 P 0.74482(10) 0.14887(5) 0.88075(4)
O45_8 O 0.7530(2) 0.16308(14) 0.85290(9)
O46_8 O 0.7612(2) 0.17749(13) 0.90056(10)
O47_8 O 0.6721(2) 0.13770(13) 0.88464(9)
O48_8 O 0.6248(2) 0.20213(14) 0.90457(11)
O49_8 O 0.7067(3) 0.07643(14) 0.91821(10)
O50_8 O 0.8476(3) 0.21916(15) 0.86605(12)
O51_8 O 0.7927(3) 0.11864(14) 0.88484(10)
O52_8 O 0.6720(3) 0.15121(15) 0.94024(10)
O53_8 O 0.7331(3) 0.23549(15) 0.86597(11)
O54_8 O 0.7273(3) 0.24210(14) 0.91676(11)
O55_8 O 0.8142(3) 0.13027(16) 0.94031(10)
O56_8 O 0.9050(2) 0.16153(15) 0.90444(12)
O57_8 O 0.6145(3) 0.18519(16) 0.84815(11)
O58_8 O 0.6520(3) 0.11845(16) 0.83135(10)
O59_8 O 0.8570(3) 0.22247(16) 0.91685(12)
H15_8 H 0.8942(11) 0.2326(13) 0.9141(13)
O60_8 O 0.7455(4) 0.14553(18) 0.80040(11)
O61_8 O 0.5379(3) 0.15478(16) 0.88532(12)
O62_8 O 0.7988(3) 0.09687(16) 0.83129(11)
O63_8 O 0.6985(3) 0.06285(15) 0.87287(11)
O64_8 O 0.7721(3) 0.19500(16) 0.95193(11)
O65_8 O 0.5791(3) 0.09047(16) 0.86819(12)
O66_8 O 0.8401(3) 0.19209(17) 0.81903(12)
H16_8 H 0.8771(15) 0.2023(6) 0.8163(15)
O67_8 O 0.5874(3) 0.10615(16) 0.91905(11)
O68_8 O 0.5312(3) 0.16785(18) 0.93774(13)
O69_8 O 0.8219(3) 0.28208(15) 0.89223(14)
O70_8 O 0.8966(3) 0.14398(15) 0.84859(12)
O71_8 O 0.8305(3) 0.05356(15) 0.86810(13)
O72_8 O 0.7110(3) 0.21148(17) 0.81891(12)
O73_8 O 0.6438(3) 0.21997(18) 0.95825(12)
O74_8 O 0.8367(3) 0.06907(16) 0.91937(12)
O75_8 O 0.5894(4) 0.03773(18) 0.90355(14)
O76_8 O 0.9229(3) 0.09752(16) 0.88537(14)
O77_8 O 0.5140(3) 0.1359(2) 0.83356(14)
O78_8 O 0.8082(4) 0.26094(18) 0.82392(15)
O79_8 O 0.8829(4) 0.1311(2) 0.79373(14)
O80_8 O 0.9078(3) 0.1807(2) 0.95850(14)
O81_8 O 0.7670(4) 0.01227(17) 0.90411(14)
O82_8 O 0.9507(4) 0.10601(19) 0.93774(15)
O83_8 O 0.9358(4) 0.0747(2) 0.83453(16)
O84_8 O 0.6155(4) 0.1701(2) 0.79386(13)
Mo1_8 Mo 0.59356(4) 0.84198(2) 0.58168(2)
Mo2_8 Mo 0.68495(4) 0.79913(2) 0.56556(2)
Mo3_8 Mo 0.79737(4) 0.75930(2) 0.60473(2)
Mo4_8 Mo 0.62466(4) 0.92359(2) 0.60369(2)
Mo5_8 Mo 0.77687(4) 0.94567(2) 0.60381(2)
Mo6_8 Mo 0.58167(4) 0.86219(2) 0.64818(2)
Mo7_8 Mo 0.78783(4) 0.77772(2) 0.66436(2)
Mo8_8 Mo 0.85336(4) 0.82391(2) 0.56518(2)
Mo9_8 Mo 0.88856(4) 0.88529(2) 0.58221(2)
Mo10_8 Mo 0.87919(4) 0.90538(2) 0.64728(2)
Mo11_8 Mo 0.66447(5) 0.83424(2) 0.68064(2)
Mo12_8 Mo 0.83649(5) 0.85968(2) 0.68084(2)
Zn3_8 Zn 0.91420(5) 0.81649(3) 0.62880(2)
Zn4_8 Zn 0.71027(6) 0.92231(3) 0.66245(2)
P1_8 P 0.74482(10) 0.85113(5) 0.61925(4)
O1_8 O 0.7530(2) 0.83692(14) 0.64710(9)
O2_8 O 0.7612(2) 0.82251(13) 0.59944(10)
O3_8 O 0.6721(2) 0.86230(13) 0.61536(9)
O4_8 O 0.6248(2) 0.79787(14) 0.59543(11)
O5_8 O 0.7067(3) 0.92357(14) 0.58179(10)
O6_8 O 0.8476(3) 0.78084(15) 0.63395(12)
O7_8 O 0.7927(3) 0.88136(14) 0.61516(10)
O8_8 O 0.6720(3) 0.84879(15) 0.55976(10)
O9_8 O 0.7331(3) 0.76451(15) 0.63403(11)
O10_8 O 0.7273(3) 0.75790(14) 0.58324(11)
O11_8 O 0.8142(3) 0.86973(16) 0.55969(10)
O12_8 O 0.9050(2) 0.83847(15) 0.59556(12)
O13_8 O 0.6145(3) 0.81481(16) 0.65185(11)
O14_8 O 0.6520(3) 0.88155(16) 0.66865(10)
O15_8 O 0.8570(3) 0.77753(16) 0.58315(12)
H1_8 H 0.8942(11) 0.7674(13) 0.5859(13)
O16_8 O 0.7455(4) 0.85447(18) 0.69960(11)
O17_8 O 0.5379(3) 0.84522(16) 0.61468(12)
O18_8 O 0.7988(3) 0.90313(16) 0.66871(11)
O19_8 O 0.6985(3) 0.93715(15) 0.62713(11)
O20_8 O 0.7721(3) 0.80500(16) 0.54807(11)
O21_8 O 0.5791(3) 0.90953(16) 0.63181(12)
O22_8 O 0.8401(3) 0.80791(17) 0.68097(12)
H2_8 H 0.8771(15) 0.7977(6) 0.6837(15)
O23_8 O 0.5874(3) 0.89385(16) 0.58095(11)
O24_8 O 0.5312(3) 0.83215(18) 0.56226(13)
O25_8 O 0.6947(4) 0.95720(19) 0.68802(14)
O26_8 O 0.8219(3) 0.71792(15) 0.60777(14)
O27_8 O 0.8966(3) 0.85602(15) 0.65141(12)
O28_8 O 0.8305(3) 0.94644(15) 0.63190(13)
O29_8 O 0.7110(3) 0.78852(17) 0.68109(12)
O30_8 O 0.6438(3) 0.78003(18) 0.54175(12)
O31_8 O 0.8367(3) 0.93093(16) 0.58063(12)
O32_8 O 0.5894(4) 0.96227(18) 0.59645(14)
O33_8 O 0.9229(3) 0.90248(16) 0.61463(14)
O34_8 O 0.7120(5) 0.9161(3) 0.71852(15)
O35_8 O 0.5140(3) 0.8641(2) 0.66644(14)
O36_8 O 0.8082(4) 0.73906(18) 0.67608(15)
O37_8 O 0.8829(4) 0.8689(2) 0.70627(14)
O38_8 O 0.9078(3) 0.8193(2) 0.54150(14)
O39_8 O 0.7670(4) 0.98773(17) 0.59589(14)
O40_8 O 0.9507(4) 0.89399(19) 0.56226(15)
O41_8 O 0.9358(4) 0.9253(2) 0.66547(16)
O42_8 O 0.6155(4) 0.8299(2) 0.70614(13)
C2_8 C 0.7019(6) 0.9468(4) 0.7110(2)
C3_8 C 0.6992(5) 0.9742(3) 0.73175(19)
C5_8 C 0.6984(7) 0.9657(3) 0.7568(2)
H4_8 H 0.6976 0.9427 0.7619
C19_8 C 0.6986(7) 0.9922(4) 0.7753(2)
H13_8 H 0.6984 0.9865 0.7927
loop_
_geom_bond_atom_site_label_1
_geom_bond_atom_site_label_2
_geom_bond_site_symmetry_1
_geom_bond_site_symmetry_2
Mo1 Mo2 1_555 1_555
Mo2 O2 1_555 1_555
Mo3 Mo7 1_555 1_555
Mo4 Mo5 1_555 1_555
Mo5 O5 1_555 1_555
Mo6 Mo11 1_555 1_555
Mo7 O1 1_555 1_555
Mo8 Mo9 1_555 1_555
Mo9 O7 1_555 1_555
Mo10 Mo12 1_555 1_555
Mo11 O1 1_555 1_555
Mo12 O1 1_555 1_555
Zn1 O4 1_555 1_555
Zn2 O5 1_555 1_555
Zn3 O6 1_555 1_555
Zn4 O14 1_555 1_555
P1 O1 1_555 1_555
O2 Mo3 1_555 1_555
O3 Mo1 1_555 1_555
O4 Mo1 1_555 1_555
O5 Mo4 1_555 1_555
O6 Mo3 1_555 1_555
O7 Mo5 1_555 1_555
O8 Mo1 1_555 1_555
O9 Mo3 1_555 1_555
O10 Mo2 1_555 1_555
O11 Mo8 1_555 1_555
O12 Mo8 1_555 1_555
O13 Mo6 1_555 1_555
O14 Mo6 1_555 1_555
O15 Mo3 1_555 1_555
H1 O15 1_555 1_555
O16 Mo11 1_555 1_555
O17 Mo1 1_555 1_555
O18 Mo10 1_555 1_555
O19 Mo4 1_555 1_555
O20 Mo2 1_555 1_555
O21 Mo4 1_555 1_555
O22 Mo7 1_555 1_555
H2 O22 1_555 1_555
N1 Zn2 1_555 1_555
O23 Mo1 1_555 1_555
O24 Mo1 1_555 1_555
O25 Zn4 1_555 1_555
N2 N1 1_555 1_555
O26 Mo3 1_555 1_555
N3 N4 1_555 1_555
O27 Mo10 1_555 1_555
O28 Mo5 1_555 1_555
O29 Mo7 1_555 1_555
O30 Mo2 1_555 1_555
O31 Mo5 1_555 1_555
O32 Mo4 1_555 1_555
O33 Mo9 1_555 1_555
O34 C2 1_555 1_555
O35 Mo6 1_555 1_555
O36 Mo7 1_555 1_555
O37 Mo12 1_555 1_555
O38 Mo8 1_555 1_555
N4 Zn3 1_555 1_555
O39 Mo5 1_555 1_555
N5 N3 1_555 1_555
O40 Mo9 1_555 1_555
O41 Mo10 1_555 1_555
O42 Mo11 1_555 1_555
C1 N1 1_555 1_555
C2 O25 1_555 1_555
C3 C2 1_555 1_555
C4 C3 1_555 1_555
H3 C4 1_555 1_555
C5 C3 1_555 1_555
H4 C5 1_555 1_555
C6 N4 1_555 1_555
C7 C1 1_555 1_555
H5 C7 1_555 1_555
C8 N5 1_555 1_555
C9 C7 1_555 1_555
H6 C9 1_555 1_555
C10 C8 1_555 1_555
H7 C10 1_555 1_555
C11 C6 1_555 1_555
H8 C11 1_555 1_555
C12 C10 1_555 1_555
H9 C12 1_555 1_555
C13 C11 1_555 1_555
H10 C13 1_555 1_555
N6 N2 1_555 1_555
C14 C1 1_555 1_555
C15 C14 1_555 1_555
H11 C15 1_555 1_555
C16 C9 1_555 1_555
H12 C16 1_555 1_555
O43 C17 1_555 1_555
O44 C17 1_555 1_555
C17 C18 1_555 1_555
C18 C19 1_555 1_555
C19 C5 1_555 1_555
H13 C19 1_555 1_555
C20 C4 1_555 1_555
H14 C20 1_555 1_555
Mo13 Mo14 1_555 1_555
Mo14 O46 1_555 1_555
Mo15 Mo19 1_555 1_555
Mo16 Mo17 1_555 1_555
Mo17 O49 1_555 1_555
Mo18 Mo23 1_555 1_555
Mo19 O45 1_555 1_555
Mo20 Mo21 1_555 1_555
Mo21 O51 1_555 1_555
Mo22 Mo24 1_555 1_555
Mo23 O45 1_555 1_555
Mo24 O45 1_555 1_555
Zn5 O48 1_555 1_555
Zn6 O49 1_555 1_555
Zn7 O50 1_555 1_555
Zn8 O43 1_555 1_555
P2 O45 1_555 1_555
O46 Mo15 1_555 1_555
O47 Mo13 1_555 1_555
O48 Mo13 1_555 1_555
O49 Mo16 1_555 1_555
O50 Mo15 1_555 1_555
O51 Mo17 1_555 1_555
O52 Mo13 1_555 1_555
O53 Mo15 1_555 1_555
O54 Mo14 1_555 1_555
O55 Mo20 1_555 1_555
O56 Mo20 1_555 1_555
O57 Mo18 1_555 1_555
O58 Mo18 1_555 1_555
O59 Mo15 1_555 1_555
H15 O59 1_555 1_555
O60 Mo23 1_555 1_555
O61 Mo13 1_555 1_555
O62 Mo22 1_555 1_555
O63 Mo16 1_555 1_555
O64 Mo14 1_555 1_555
O65 Mo16 1_555 1_555
O66 Mo19 1_555 1_555
H16 O66 1_555 1_555
O67 Mo13 1_555 1_555
O68 Mo13 1_555 1_555
O69 Mo15 1_555 1_555
N7 N8 1_555 1_555
O70 Mo22 1_555 1_555
O71 Mo17 1_555 1_555
O72 Mo19 1_555 1_555
O73 Mo14 1_555 1_555
O74 Mo17 1_555 1_555
O75 Mo16 1_555 1_555
O76 Mo21 1_555 1_555
O77 Mo18 1_555 1_555
O78 Mo19 1_555 1_555
O79 Mo24 1_555 1_555
O80 Mo20 1_555 1_555
N8 Zn7 1_555 1_555
O81 Mo17 1_555 1_555
N9 N7 1_555 1_555
O82 Mo21 1_555 1_555
O83 Mo22 1_555 1_555
O84 Mo23 1_555 1_555
C21 N8 1_555 1_555
C22 N9 1_555 1_555
C23 C22 1_555 1_555
H17 C23 1_555 1_555
C24 C21 1_555 1_555
H18 C24 1_555 1_555
C25 C23 1_555 1_555
H19 C25 1_555 1_555
C26 C24 1_555 1_555
H20 C26 1_555 1_555
Zn9 N5 1_555 1_555
Zn10 N9 1_555 1_555
Zn11 N6 1_555 1_555
N10 Zn6 1_555 1_555
N11 Zn1 1_555 1_555
N12 Zn5 1_555 1_555
Mo2 O4 1_555 1_555
Mo2 O8 1_555 1_555
Mo3 O10 1_555 1_555
Mo4 O23 1_555 1_555
Mo5 O19 1_555 1_555
Mo6 O3 1_555 1_555
Mo6 O17 1_555 1_555
Mo6 O21 1_555 1_555
Mo7 O6 1_555 1_555
Mo7 O9 1_555 1_555
Mo8 O2 1_555 1_555
Mo8 O15 1_555 1_555
Mo8 O20 1_555 1_555
Mo9 O11 1_555 1_555
Mo9 O12 1_555 1_555
Mo9 O31 1_555 1_555
Mo10 O7 1_555 1_555
Mo10 O28 1_555 1_555
Mo10 O33 1_555 1_555
Mo11 O13 1_555 1_555
Mo11 O14 1_555 1_555
Mo11 O29 1_555 1_555
Mo12 O16 1_555 1_555
Mo12 O18 1_555 1_555
Mo12 O22 1_555 1_555
Mo12 O27 1_555 1_555
Zn1 O9 1_555 1_555
Zn1 O13 1_555 1_555
Zn2 O8 1_555 1_555
Zn2 O11 1_555 1_555
Zn3 O12 1_555 1_555
Zn3 O27 1_555 1_555
Zn4 O18 1_555 1_555
Zn4 O19 1_555 1_555
P1 O2 1_555 1_555
P1 O3 1_555 1_555
P1 O7 1_555 1_555
C6 C8 1_555 1_555
C12 C13 1_555 1_555
N6 C14 1_555 1_555
C15 C16 1_555 1_555
C18 C20 1_555 1_555
Mo14 O48 1_555 1_555
Mo14 O52 1_555 1_555
Mo15 O54 1_555 1_555
Mo16 O67 1_555 1_555
Mo17 O63 1_555 1_555
Mo18 O47 1_555 1_555
Mo18 O61 1_555 1_555
Mo18 O65 1_555 1_555
Mo19 O50 1_555 1_555
Mo19 O53 1_555 1_555
Mo20 O46 1_555 1_555
Mo20 O59 1_555 1_555
Mo20 O64 1_555 1_555
Mo21 O55 1_555 1_555
Mo21 O56 1_555 1_555
Mo21 O74 1_555 1_555
Mo22 O51 1_555 1_555
Mo22 O71 1_555 1_555
Mo22 O76 1_555 1_555
Mo23 O57 1_555 1_555
Mo23 O58 1_555 1_555
Mo23 O72 1_555 1_555
Mo24 O60 1_555 1_555
Mo24 O62 1_555 1_555
Mo24 O66 1_555 1_555
Mo24 O70 1_555 1_555
Zn5 O53 1_555 1_555
Zn5 O57 1_555 1_555
Zn6 O52 1_555 1_555
Zn6 O55 1_555 1_555
Zn7 O56 1_555 1_555
Zn7 O70 1_555 1_555
Zn8 O58 1_555 1_555
Zn8 O62 1_555 1_555
Zn8 O63 1_555 1_555
P2 O46 1_555 1_555
P2 O47 1_555 1_555
P2 O51 1_555 1_555
C21 C22 1_555 1_555
C25 C26 1_555 1_555
Mo1_2 Mo2_2 1_555 1_555
Mo2_2 O2_2 1_555 1_555
Mo3_2 Mo7_2 1_555 1_555
Mo4_2 Mo5_2 1_555 1_555
Mo5_2 O5_2 1_555 1_555
Mo6_2 Mo11_2 1_555 1_555
Mo7_2 O1_2 1_555 1_555
Mo8_2 Mo9_2 1_555 1_555
Mo9_2 O7_2 1_555 1_555
Mo10_2 Mo12_2 1_555 1_555
Mo11_2 O1_2 1_555 1_555
Mo12_2 O1_2 1_555 1_555
Zn1_2 O4_2 1_555 1_555
Zn2_2 O5_2 1_555 1_555
Zn3_2 O6_2 1_555 1_555
Zn4_2 O14_2 1_555 1_555
P1_2 O1_2 1_555 1_555
O2_2 Mo3_2 1_555 1_555
O3_2 Mo1_2 1_555 1_555
O4_2 Mo1_2 1_555 1_555
O5_2 Mo4_2 1_555 1_555
O6_2 Mo3_2 1_555 1_555
O7_2 Mo5_2 1_555 1_555
O8_2 Mo1_2 1_555 1_555
O9_2 Mo3_2 1_555 1_555
O10_2 Mo2_2 1_555 1_555
O11_2 Mo8_2 1_555 1_555
O12_2 Mo8_2 1_555 1_555
O13_2 Mo6_2 1_555 1_555
O14_2 Mo6_2 1_555 1_555
O15_2 Mo3_2 1_555 1_555
H1_2 O15_2 1_555 1_555
O16_2 Mo11_2 1_555 1_555
O17_2 Mo1_2 1_555 1_555
O18_2 Mo10_2 1_555 1_555
O19_2 Mo4_2 1_555 1_555
O20_2 Mo2_2 1_555 1_555
O21_2 Mo4_2 1_555 1_555
O22_2 Mo7_2 1_555 1_555
H2_2 O22_2 1_555 1_555
N1_2 Zn2_2 1_555 1_555
O23_2 Mo1_2 1_555 1_555
O24_2 Mo1_2 1_555 1_555
O25_2 Zn4_2 1_555 1_555
N2_2 N1_2 1_555 1_555
O26_2 Mo3_2 1_555 1_555
O27_2 Mo10_2 1_555 1_555
O28_2 Mo5_2 1_555 1_555
O29_2 Mo7_2 1_555 1_555
O30_2 Mo2_2 1_555 1_555
O31_2 Mo5_2 1_555 1_555
O32_2 Mo4_2 1_555 1_555
O33_2 Mo9_2 1_555 1_555
O34_2 C2_2 1_555 1_555
O35_2 Mo6_2 1_555 1_555
O36_2 Mo7_2 1_555 1_555
O37_2 Mo12_2 1_555 1_555
O38_2 Mo8_2 1_555 1_555
O39_2 Mo5_2 1_555 1_555
O40_2 Mo9_2 1_555 1_555
O41_2 Mo10_2 1_555 1_555
O42_2 Mo11_2 1_555 1_555
C1_2 N1_2 1_555 1_555
C2_2 O25_2 1_555 1_555
C3_2 C2_2 1_555 1_555
C5_2 C3_2 1_555 1_555
H4_2 C5_2 1_555 1_555
C7_2 C1_2 1_555 1_555
H5_2 C7_2 1_555 1_555
N6_2 N2_2 1_555 1_555
C14_2 C1_2 1_555 1_555
C15_2 C14_2 1_555 1_555
H11_2 C15_2 1_555 1_555
C19_2 C5_2 1_555 1_555
H13_2 C19_2 1_555 1_555
Zn11_2 N6_2 1_555 1_555
N11_2 Zn1_2 1_555 1_555
Mo2_2 O4_2 1_555 1_555
Mo2_2 O8_2 1_555 1_555
Mo3_2 O10_2 1_555 1_555
Mo4_2 O23_2 1_555 1_555
Mo5_2 O19_2 1_555 1_555
Mo6_2 O3_2 1_555 1_555
Mo6_2 O17_2 1_555 1_555
Mo6_2 O21_2 1_555 1_555
Mo7_2 O6_2 1_555 1_555
Mo7_2 O9_2 1_555 1_555
Mo8_2 O2_2 1_555 1_555
Mo8_2 O15_2 1_555 1_555
Mo8_2 O20_2 1_555 1_555
Mo9_2 O11_2 1_555 1_555
Mo9_2 O12_2 1_555 1_555
Mo9_2 O31_2 1_555 1_555
Mo10_2 O7_2 1_555 1_555
Mo10_2 O28_2 1_555 1_555
Mo10_2 O33_2 1_555 1_555
Mo11_2 O13_2 1_555 1_555
Mo11_2 O14_2 1_555 1_555
Mo11_2 O29_2 1_555 1_555
Mo12_2 O16_2 1_555 1_555
Mo12_2 O18_2 1_555 1_555
Mo12_2 O22_2 1_555 1_555
Mo12_2 O27_2 1_555 1_555
Zn1_2 O9_2 1_555 1_555
Zn1_2 O13_2 1_555 1_555
Zn2_2 O8_2 1_555 1_555
Zn2_2 O11_2 1_555 1_555
Zn3_2 O12_2 1_555 1_555
Zn3_2 O27_2 1_555 1_555
Zn4_2 O18_2 1_555 1_555
Zn4_2 O19_2 1_555 1_555
P1_2 O2_2 1_555 1_555
P1_2 O3_2 1_555 1_555
P1_2 O7_2 1_555 1_555
N6_2 C14_2 1_555 1_555
H3_2 C4_2 1_555 1_555
H6_2 C9_2 1_555 1_555
C16_2 C9_2 1_555 1_555
H12_2 C16_2 1_555 1_555
O43_2 C17_2 1_555 1_555
O44_2 C17_2 1_555 1_555
C17_2 C18_2 1_555 1_555
C20_2 C4_2 1_555 1_555
H14_2 C20_2 1_555 1_555
Mo13_2 Mo14_2 1_555 1_555
Mo14_2 O46_2 1_555 1_555
Mo15_2 Mo19_2 1_555 1_555
Mo16_2 Mo17_2 1_555 1_555
Mo17_2 O49_2 1_555 1_555
Mo18_2 Mo23_2 1_555 1_555
Mo19_2 O45_2 1_555 1_555
Mo20_2 Mo21_2 1_555 1_555
Mo21_2 O51_2 1_555 1_555
Mo22_2 Mo24_2 1_555 1_555
Mo23_2 O45_2 1_555 1_555
Mo24_2 O45_2 1_555 1_555
Zn5_2 O48_2 1_555 1_555
Zn6_2 O49_2 1_555 1_555
Zn7_2 O50_2 1_555 1_555
Zn8_2 O43_2 1_555 1_555
P2_2 O45_2 1_555 1_555
O46_2 Mo15_2 1_555 1_555
O47_2 Mo13_2 1_555 1_555
O48_2 Mo13_2 1_555 1_555
O49_2 Mo16_2 1_555 1_555
O50_2 Mo15_2 1_555 1_555
O51_2 Mo17_2 1_555 1_555
O52_2 Mo13_2 1_555 1_555
O53_2 Mo15_2 1_555 1_555
O54_2 Mo14_2 1_555 1_555
O55_2 Mo20_2 1_555 1_555
O56_2 Mo20_2 1_555 1_555
O57_2 Mo18_2 1_555 1_555
O58_2 Mo18_2 1_555 1_555
O59_2 Mo15_2 1_555 1_555
H15_2 O59_2 1_555 1_555
O60_2 Mo23_2 1_555 1_555
O61_2 Mo13_2 1_555 1_555
O62_2 Mo22_2 1_555 1_555
O63_2 Mo16_2 1_555 1_555
O64_2 Mo14_2 1_555 1_555
O65_2 Mo16_2 1_555 1_555
O66_2 Mo19_2 1_555 1_555
H16_2 O66_2 1_555 1_555
O67_2 Mo13_2 1_555 1_555
O68_2 Mo13_2 1_555 1_555
O69_2 Mo15_2 1_555 1_555
O70_2 Mo22_2 1_555 1_555
O71_2 Mo17_2 1_555 1_555
O72_2 Mo19_2 1_555 1_555
O73_2 Mo14_2 1_555 1_555
O74_2 Mo17_2 1_555 1_555
O75_2 Mo16_2 1_555 1_555
O76_2 Mo21_2 1_555 1_555
O77_2 Mo18_2 1_555 1_555
O78_2 Mo19_2 1_555 1_555
O79_2 Mo24_2 1_555 1_555
O80_2 Mo20_2 1_555 1_555
O81_2 Mo17_2 1_555 1_555
O82_2 Mo21_2 1_555 1_555
O83_2 Mo22_2 1_555 1_555
O84_2 Mo23_2 1_555 1_555
N10_2 Zn6_2 1_555 1_555
N12_2 Zn5_2 1_555 1_555
C18_2 C20_2 1_555 1_555
Mo14_2 O48_2 1_555 1_555
Mo14_2 O52_2 1_555 1_555
Mo15_2 O54_2 1_555 1_555
Mo16_2 O67_2 1_555 1_555
Mo17_2 O63_2 1_555 1_555
Mo18_2 O47_2 1_555 1_555
Mo18_2 O61_2 1_555 1_555
Mo18_2 O65_2 1_555 1_555
Mo19_2 O50_2 1_555 1_555
Mo19_2 O53_2 1_555 1_555
Mo20_2 O46_2 1_555 1_555
Mo20_2 O59_2 1_555 1_555
Mo20_2 O64_2 1_555 1_555
Mo21_2 O55_2 1_555 1_555
Mo21_2 O56_2 1_555 1_555
Mo21_2 O74_2 1_555 1_555
Mo22_2 O51_2 1_555 1_555
Mo22_2 O71_2 1_555 1_555
Mo22_2 O76_2 1_555 1_555
Mo23_2 O57_2 1_555 1_555
Mo23_2 O58_2 1_555 1_555
Mo23_2 O72_2 1_555 1_555
Mo24_2 O60_2 1_555 1_555
Mo24_2 O62_2 1_555 1_555
Mo24_2 O66_2 1_555 1_555
Mo24_2 O70_2 1_555 1_555
Zn5_2 O53_2 1_555 1_555
Zn5_2 O57_2 1_555 1_555
Zn6_2 O52_2 1_555 1_555
Zn6_2 O55_2 1_555 1_555
Zn7_2 O56_2 1_555 1_555
Zn7_2 O70_2 1_555 1_555
Zn8_2 O58_2 1_555 1_555
Zn8_2 O62_2 1_555 1_555
Zn8_2 O63_2 1_555 1_555
P2_2 O46_2 1_555 1_555
P2_2 O47_2 1_555 1_555
P2_2 O51_2 1_555 1_555
N3_2 N4_2 1_555 1_555
N5_2 N3_2 1_555 1_555
C6_2 N4_2 1_555 1_555
C8_2 N5_2 1_555 1_555
C10_2 C8_2 1_555 1_555
H7_2 C10_2 1_555 1_555
C11_2 C6_2 1_555 1_555
H8_2 C11_2 1_555 1_555
C12_2 C10_2 1_555 1_555
H9_2 C12_2 1_555 1_555
C13_2 C11_2 1_555 1_555
H10_2 C13_2 1_555 1_555
Zn9_2 N5_2 1_555 1_555
C6_2 C8_2 1_555 1_555
C12_2 C13_2 1_555 1_555
N7_2 N8_2 1_555 1_555
N9_2 N7_2 1_555 1_555
C21_2 N8_2 1_555 1_555
C22_2 N9_2 1_555 1_555
C23_2 C22_2 1_555 1_555
H17_2 C23_2 1_555 1_555
C24_2 C21_2 1_555 1_555
H18_2 C24_2 1_555 1_555
C25_2 C23_2 1_555 1_555
H19_2 C25_2 1_555 1_555
C26_2 C24_2 1_555 1_555
H20_2 C26_2 1_555 1_555
Zn10_2 N9_2 1_555 1_555
C21_2 C22_2 1_555 1_555
C25_2 C26_2 1_555 1_555
H6_3 C9_3 1_555 1_555
H12_3 C16_3 1_555 1_555
N2_3 N10_2 1_555 1_555
C1_3 N10_2 1_555 1_555
C7_3 C1_3 1_555 1_555
H5_3 C7_3 1_555 1_555
N6_3 N2_4 1_555 1_555
C15_3 C14_3 1_555 1_555
H11_3 C15_3 1_555 1_555
Zn11_3 N6_3 1_555 1_555
N6_3 C14_3 1_555 1_555
N6_4 N2_5 1_555 1_555
C15_4 C14_4 1_555 1_555
H11_4 C15_4 1_555 1_555
H12_4 C16_4 1_555 1_555
Zn11_4 N6_4 1_555 1_555
N6_4 C14_4 1_555 1_555
C15_4 C16_4 1_555 1_555
N2_6 N10 1_555 1_555
C1_4 N10 1_555 1_555
C7_4 C1_4 1_555 1_555
H5_4 C7_4 1_555 1_555
C9_4 C7_4 1_555 1_555
H6_4 C9_4 1_555 1_555
Mo1_3 Mo2_3 1_555 1_555
Mo2_3 O2_3 1_555 1_555
Mo3_3 Mo7_3 1_555 1_555
Mo4_3 Mo5_3 1_555 1_555
Mo5_3 O5_3 1_555 1_555
Mo6_3 Mo11_3 1_555 1_555
Mo7_3 O1_3 1_555 1_555
Mo8_3 Mo9_3 1_555 1_555
Mo9_3 O7_3 1_555 1_555
Mo10_3 Mo12_3 1_555 1_555
Mo11_3 O1_3 1_555 1_555
Mo12_3 O1_3 1_555 1_555
Zn9_2 O4_3 1_555 1_555
Zn11 O5_3 1_555 1_555
Zn3_3 O6_3 1_555 1_555
Zn4_3 O14_3 1_555 1_555
P1_3 O1_3 1_555 1_555
O2_3 Mo3_3 1_555 1_555
O3_3 Mo1_3 1_555 1_555
O4_3 Mo1_3 1_555 1_555
O5_3 Mo4_3 1_555 1_555
O6_3 Mo3_3 1_555 1_555
O7_3 Mo5_3 1_555 1_555
O8_3 Mo1_3 1_555 1_555
O9_3 Mo3_3 1_555 1_555
O10_3 Mo2_3 1_555 1_555
O11_3 Mo8_3 1_555 1_555
O12_3 Mo8_3 1_555 1_555
O13_3 Mo6_3 1_555 1_555
O14_3 Mo6_3 1_555 1_555
O15_3 Mo3_3 1_555 1_555
H1_3 O15_3 1_555 1_555
O16_3 Mo11_3 1_555 1_555
O17_3 Mo1_3 1_555 1_555
O18_3 Mo10_3 1_555 1_555
O19_3 Mo4_3 1_555 1_555
O20_3 Mo2_3 1_555 1_555
O21_3 Mo4_3 1_555 1_555
O22_3 Mo7_3 1_555 1_555
H2_3 O22_3 1_555 1_555
O23_3 Mo1_3 1_555 1_555
O24_3 Mo1_3 1_555 1_555
O25_3 Zn4_3 1_555 1_555
O26_3 Mo3_3 1_555 1_555
N3_3 N4_3 1_555 1_555
O27_3 Mo10_3 1_555 1_555
O28_3 Mo5_3 1_555 1_555
O29_3 Mo7_3 1_555 1_555
O30_3 Mo2_3 1_555 1_555
O31_3 Mo5_3 1_555 1_555
O32_3 Mo4_3 1_555 1_555
O33_3 Mo9_3 1_555 1_555
O34_3 C2_3 1_555 1_555
O35_3 Mo6_3 1_555 1_555
O36_3 Mo7_3 1_555 1_555
O37_3 Mo12_3 1_555 1_555
O38_3 Mo8_3 1_555 1_555
N4_3 Zn3_3 1_555 1_555
O39_3 Mo5_3 1_555 1_555
N11_2 N3_3 1_555 1_555
O40_3 Mo9_3 1_555 1_555
O41_3 Mo10_3 1_555 1_555
O42_3 Mo11_3 1_555 1_555
C2_3 O25_3 1_555 1_555
C3_3 C2_3 1_555 1_555
C4_3 C3_3 1_555 1_555
H3_3 C4_3 1_555 1_555
C5_3 C3_3 1_555 1_555
H4_3 C5_3 1_555 1_555
C6_3 N4_3 1_555 1_555
C8_3 N11_2 1_555 1_555
C10_3 C8_3 1_555 1_555
H7_3 C10_3 1_555 1_555
C11_3 C6_3 1_555 1_555
H8_3 C11_3 1_555 1_555
C12_3 C10_3 1_555 1_555
H9_3 C12_3 1_555 1_555
C13_3 C11_3 1_555 1_555
H10_3 C13_3 1_555 1_555
O43_3 C17_3 1_555 1_555
O44_3 C17_3 1_555 1_555
C17_3 C18_3 1_555 1_555
C18_3 C19_3 1_555 1_555
C19_3 C5_3 1_555 1_555
H13_3 C19_3 1_555 1_555
C20_3 C4_3 1_555 1_555
H14_3 C20_3 1_555 1_555
Mo13_3 Mo14_3 1_555 1_555
Mo14_3 O46_3 1_555 1_555
Mo15_3 Mo19_3 1_555 1_555
Mo16_3 Mo17_3 1_555 1_555
Mo17_3 O49_3 1_555 1_555
Mo18_3 Mo23_3 1_555 1_555
Mo19_3 O45_3 1_555 1_555
Mo20_3 Mo21_3 1_555 1_555
Mo21_3 O51_3 1_555 1_555
Mo22_3 Mo24_3 1_555 1_555
Mo23_3 O45_3 1_555 1_555
Mo24_3 O45_3 1_555 1_555
Zn10_2 O48_3 1_555 1_555
Zn11_4 O49_3 1_555 1_555
Zn7_3 O50_3 1_555 1_555
Zn8_3 O43_3 1_555 1_555
P2_3 O45_3 1_555 1_555
O46_3 Mo15_3 1_555 1_555
O47_3 Mo13_3 1_555 1_555
O48_3 Mo13_3 1_555 1_555
O49_3 Mo16_3 1_555 1_555
O50_3 Mo15_3 1_555 1_555
O51_3 Mo17_3 1_555 1_555
O52_3 Mo13_3 1_555 1_555
O53_3 Mo15_3 1_555 1_555
O54_3 Mo14_3 1_555 1_555
O55_3 Mo20_3 1_555 1_555
O56_3 Mo20_3 1_555 1_555
O57_3 Mo18_3 1_555 1_555
O58_3 Mo18_3 1_555 1_555
O59_3 Mo15_3 1_555 1_555
H15_3 O59_3 1_555 1_555
O60_3 Mo23_3 1_555 1_555
O61_3 Mo13_3 1_555 1_555
O62_3 Mo22_3 1_555 1_555
O63_3 Mo16_3 1_555 1_555
O64_3 Mo14_3 1_555 1_555
O65_3 Mo16_3 1_555 1_555
O66_3 Mo19_3 1_555 1_555
H16_3 O66_3 1_555 1_555
O67_3 Mo13_3 1_555 1_555
O68_3 Mo13_3 1_555 1_555
O69_3 Mo15_3 1_555 1_555
N7_3 N8_3 1_555 1_555
O70_3 Mo22_3 1_555 1_555
O71_3 Mo17_3 1_555 1_555
O72_3 Mo19_3 1_555 1_555
O73_3 Mo14_3 1_555 1_555
O74_3 Mo17_3 1_555 1_555
O75_3 Mo16_3 1_555 1_555
O76_3 Mo21_3 1_555 1_555
O77_3 Mo18_3 1_555 1_555
O78_3 Mo19_3 1_555 1_555
O79_3 Mo24_3 1_555 1_555
O80_3 Mo20_3 1_555 1_555
N8_3 Zn7_3 1_555 1_555
O81_3 Mo17_3 1_555 1_555
N12_2 N7_3 1_555 1_555
O82_3 Mo21_3 1_555 1_555
O83_3 Mo22_3 1_555 1_555
O84_3 Mo23_3 1_555 1_555
C21_3 N8_3 1_555 1_555
C22_3 N12_2 1_555 1_555
C23_3 C22_3 1_555 1_555
H17_3 C23_3 1_555 1_555
C24_3 C21_3 1_555 1_555
H18_3 C24_3 1_555 1_555
C25_3 C23_3 1_555 1_555
H19_3 C25_3 1_555 1_555
C26_3 C24_3 1_555 1_555
H20_3 C26_3 1_555 1_555
Mo2_3 O4_3 1_555 1_555
Mo2_3 O8_3 1_555 1_555
Mo3_3 O10_3 1_555 1_555
Mo4_3 O23_3 1_555 1_555
Mo5_3 O19_3 1_555 1_555
Mo6_3 O3_3 1_555 1_555
Mo6_3 O17_3 1_555 1_555
Mo6_3 O21_3 1_555 1_555
Mo7_3 O6_3 1_555 1_555
Mo7_3 O9_3 1_555 1_555
Mo8_3 O2_3 1_555 1_555
Mo8_3 O15_3 1_555 1_555
Mo8_3 O20_3 1_555 1_555
Mo9_3 O11_3 1_555 1_555
Mo9_3 O12_3 1_555 1_555
Mo9_3 O31_3 1_555 1_555
Mo10_3 O7_3 1_555 1_555
Mo10_3 O28_3 1_555 1_555
Mo10_3 O33_3 1_555 1_555
Mo11_3 O13_3 1_555 1_555
Mo11_3 O14_3 1_555 1_555
Mo11_3 O29_3 1_555 1_555
Mo12_3 O16_3 1_555 1_555
Mo12_3 O18_3 1_555 1_555
Mo12_3 O22_3 1_555 1_555
Mo12_3 O27_3 1_555 1_555
Zn9_2 O9_3 1_555 1_555
Zn9_2 O13_3 1_555 1_555
Zn11 O8_3 1_555 1_555
Zn11 O11_3 1_555 1_555
Zn3_3 O12_3 1_555 1_555
Zn3_3 O27_3 1_555 1_555
Zn4_3 O18_3 1_555 1_555
Zn4_3 O19_3 1_555 1_555
P1_3 O2_3 1_555 1_555
P1_3 O3_3 1_555 1_555
P1_3 O7_3 1_555 1_555
C6_3 C8_3 1_555 1_555
C12_3 C13_3 1_555 1_555
C18_3 C20_3 1_555 1_555
Mo14_3 O48_3 1_555 1_555
Mo14_3 O52_3 1_555 1_555
Mo15_3 O54_3 1_555 1_555
Mo16_3 O67_3 1_555 1_555
Mo17_3 O63_3 1_555 1_555
Mo18_3 O47_3 1_555 1_555
Mo18_3 O61_3 1_555 1_555
Mo18_3 O65_3 1_555 1_555
Mo19_3 O50_3 1_555 1_555
Mo19_3 O53_3 1_555 1_555
Mo20_3 O46_3 1_555 1_555
Mo20_3 O59_3 1_555 1_555
Mo20_3 O64_3 1_555 1_555
Mo21_3 O55_3 1_555 1_555
Mo21_3 O56_3 1_555 1_555
Mo21_3 O74_3 1_555 1_555
Mo22_3 O51_3 1_555 1_555
Mo22_3 O71_3 1_555 1_555
Mo22_3 O76_3 1_555 1_555
Mo23_3 O57_3 1_555 1_555
Mo23_3 O58_3 1_555 1_555
Mo23_3 O72_3 1_555 1_555
Mo24_3 O60_3 1_555 1_555
Mo24_3 O62_3 1_555 1_555
Mo24_3 O66_3 1_555 1_555
Mo24_3 O70_3 1_555 1_555
Zn10_2 O53_3 1_555 1_555
Zn10_2 O57_3 1_555 1_555
Zn11_4 O52_3 1_555 1_555
Zn11_4 O55_3 1_555 1_555
Zn7_3 O56_3 1_555 1_555
Zn7_3 O70_3 1_555 1_555
Zn8_3 O58_3 1_555 1_555
Zn8_3 O62_3 1_555 1_555
Zn8_3 O63_3 1_555 1_555
P2_3 O46_3 1_555 1_555
P2_3 O47_3 1_555 1_555
P2_3 O51_3 1_555 1_555
C21_3 C22_3 1_555 1_555
C25_3 C26_3 1_555 1_555
Mo1_4 Mo2_4 1_555 1_555
Mo2_4 O2_4 1_555 1_555
Mo3_4 Mo7_4 1_555 1_555
Mo4_4 Mo5_4 1_555 1_555
Mo5_4 O5_4 1_555 1_555
Mo6_4 Mo11_4 1_555 1_555
Mo7_4 O1_4 1_555 1_555
Mo8_4 Mo9_4 1_555 1_555
Mo9_4 O7_4 1_555 1_555
Mo10_4 Mo12_4 1_555 1_555
Mo11_4 O1_4 1_555 1_555
Mo12_4 O1_4 1_555 1_555
Zn9 O4_4 1_555 1_555
Zn11_2 O5_4 1_555 1_555
Zn3_4 O6_4 1_555 1_555
Zn4_4 O14_4 1_555 1_555
P1_4 O1_4 1_555 1_555
O2_4 Mo3_4 1_555 1_555
O3_4 Mo1_4 1_555 1_555
O4_4 Mo1_4 1_555 1_555
O5_4 Mo4_4 1_555 1_555
O6_4 Mo3_4 1_555 1_555
O7_4 Mo5_4 1_555 1_555
O8_4 Mo1_4 1_555 1_555
O9_4 Mo3_4 1_555 1_555
O10_4 Mo2_4 1_555 1_555
O11_4 Mo8_4 1_555 1_555
O12_4 Mo8_4 1_555 1_555
O13_4 Mo6_4 1_555 1_555
O14_4 Mo6_4 1_555 1_555
O15_4 Mo3_4 1_555 1_555
H1_4 O15_4 1_555 1_555
O16_4 Mo11_4 1_555 1_555
O17_4 Mo1_4 1_555 1_555
O18_4 Mo10_4 1_555 1_555
O19_4 Mo4_4 1_555 1_555
O20_4 Mo2_4 1_555 1_555
O21_4 Mo4_4 1_555 1_555
O22_4 Mo7_4 1_555 1_555
H2_4 O22_4 1_555 1_555
O23_4 Mo1_4 1_555 1_555
O24_4 Mo1_4 1_555 1_555
O25_4 Zn4_4 1_555 1_555
O26_4 Mo3_4 1_555 1_555
O27_4 Mo10_4 1_555 1_555
O28_4 Mo5_4 1_555 1_555
O29_4 Mo7_4 1_555 1_555
O30_4 Mo2_4 1_555 1_555
O31_4 Mo5_4 1_555 1_555
O32_4 Mo4_4 1_555 1_555
O33_4 Mo9_4 1_555 1_555
O34_4 C2_4 1_555 1_555
O35_4 Mo6_4 1_555 1_555
O36_4 Mo7_4 1_555 1_555
O37_4 Mo12_4 1_555 1_555
O38_4 Mo8_4 1_555 1_555
O39_4 Mo5_4 1_555 1_555
O40_4 Mo9_4 1_555 1_555
O41_4 Mo10_4 1_555 1_555
O42_4 Mo11_4 1_555 1_555
C2_4 O25_4 1_555 1_555
C3_4 C2_4 1_555 1_555
C5_4 C3_4 1_555 1_555
H4_4 C5_4 1_555 1_555
C19_4 C5_4 1_555 1_555
H13_4 C19_4 1_555 1_555
Mo2_4 O4_4 1_555 1_555
Mo2_4 O8_4 1_555 1_555
Mo3_4 O10_4 1_555 1_555
Mo4_4 O23_4 1_555 1_555
Mo5_4 O19_4 1_555 1_555
Mo6_4 O3_4 1_555 1_555
Mo6_4 O17_4 1_555 1_555
Mo6_4 O21_4 1_555 1_555
Mo7_4 O6_4 1_555 1_555
Mo7_4 O9_4 1_555 1_555
Mo8_4 O2_4 1_555 1_555
Mo8_4 O15_4 1_555 1_555
Mo8_4 O20_4 1_555 1_555
Mo9_4 O11_4 1_555 1_555
Mo9_4 O12_4 1_555 1_555
Mo9_4 O31_4 1_555 1_555
Mo10_4 O7_4 1_555 1_555
Mo10_4 O28_4 1_555 1_555
Mo10_4 O33_4 1_555 1_555
Mo11_4 O13_4 1_555 1_555
Mo11_4 O14_4 1_555 1_555
Mo11_4 O29_4 1_555 1_555
Mo12_4 O16_4 1_555 1_555
Mo12_4 O18_4 1_555 1_555
Mo12_4 O22_4 1_555 1_555
Mo12_4 O27_4 1_555 1_555
Zn9 O9_4 1_555 1_555
Zn9 O13_4 1_555 1_555
Zn11_2 O8_4 1_555 1_555
Zn11_2 O11_4 1_555 1_555
Zn3_4 O12_4 1_555 1_555
Zn3_4 O27_4 1_555 1_555
Zn4_4 O18_4 1_555 1_555
Zn4_4 O19_4 1_555 1_555
P1_4 O2_4 1_555 1_555
P1_4 O3_4 1_555 1_555
P1_4 O7_4 1_555 1_555
H3_4 C4_4 1_555 1_555
O43_4 C17_4 1_555 1_555
O44_4 C17_4 1_555 1_555
C17_4 C18_4 1_555 1_555
C20_4 C4_4 1_555 1_555
H14_4 C20_4 1_555 1_555
Mo13_4 Mo14_4 1_555 1_555
Mo14_4 O46_4 1_555 1_555
Mo15_4 Mo19_4 1_555 1_555
Mo16_4 Mo17_4 1_555 1_555
Mo17_4 O49_4 1_555 1_555
Mo18_4 Mo23_4 1_555 1_555
Mo19_4 O45_4 1_555 1_555
Mo20_4 Mo21_4 1_555 1_555
Mo21_4 O51_4 1_555 1_555
Mo22_4 Mo24_4 1_555 1_555
Mo23_4 O45_4 1_555 1_555
Mo24_4 O45_4 1_555 1_555
Zn10 O48_4 1_555 1_555
Zn11_3 O49_4 1_555 1_555
Zn7_4 O50_4 1_555 1_555
Zn8_4 O43_4 1_555 1_555
P2_4 O45_4 1_555 1_555
O46_4 Mo15_4 1_555 1_555
O47_4 Mo13_4 1_555 1_555
O48_4 Mo13_4 1_555 1_555
O49_4 Mo16_4 1_555 1_555
O50_4 Mo15_4 1_555 1_555
O51_4 Mo17_4 1_555 1_555
O52_4 Mo13_4 1_555 1_555
O53_4 Mo15_4 1_555 1_555
O54_4 Mo14_4 1_555 1_555
O55_4 Mo20_4 1_555 1_555
O56_4 Mo20_4 1_555 1_555
O57_4 Mo18_4 1_555 1_555
O58_4 Mo18_4 1_555 1_555
O59_4 Mo15_4 1_555 1_555
H15_4 O59_4 1_555 1_555
O60_4 Mo23_4 1_555 1_555
O61_4 Mo13_4 1_555 1_555
O62_4 Mo22_4 1_555 1_555
O63_4 Mo16_4 1_555 1_555
O64_4 Mo14_4 1_555 1_555
O65_4 Mo16_4 1_555 1_555
O66_4 Mo19_4 1_555 1_555
H16_4 O66_4 1_555 1_555
O67_4 Mo13_4 1_555 1_555
O68_4 Mo13_4 1_555 1_555
O69_4 Mo15_4 1_555 1_555
O70_4 Mo22_4 1_555 1_555
O71_4 Mo17_4 1_555 1_555
O72_4 Mo19_4 1_555 1_555
O73_4 Mo14_4 1_555 1_555
O74_4 Mo17_4 1_555 1_555
O75_4 Mo16_4 1_555 1_555
O76_4 Mo21_4 1_555 1_555
O77_4 Mo18_4 1_555 1_555
O78_4 Mo19_4 1_555 1_555
O79_4 Mo24_4 1_555 1_555
O80_4 Mo20_4 1_555 1_555
O81_4 Mo17_4 1_555 1_555
O82_4 Mo21_4 1_555 1_555
O83_4 Mo22_4 1_555 1_555
O84_4 Mo23_4 1_555 1_555
C18_4 C20_4 1_555 1_555
Mo14_4 O48_4 1_555 1_555
Mo14_4 O52_4 1_555 1_555
Mo15_4 O54_4 1_555 1_555
Mo16_4 O67_4 1_555 1_555
Mo17_4 O63_4 1_555 1_555
Mo18_4 O47_4 1_555 1_555
Mo18_4 O61_4 1_555 1_555
Mo18_4 O65_4 1_555 1_555
Mo19_4 O50_4 1_555 1_555
Mo19_4 O53_4 1_555 1_555
Mo20_4 O46_4 1_555 1_555
Mo20_4 O59_4 1_555 1_555
Mo20_4 O64_4 1_555 1_555
Mo21_4 O55_4 1_555 1_555
Mo21_4 O56_4 1_555 1_555
Mo21_4 O74_4 1_555 1_555
Mo22_4 O51_4 1_555 1_555
Mo22_4 O71_4 1_555 1_555
Mo22_4 O76_4 1_555 1_555
Mo23_4 O57_4 1_555 1_555
Mo23_4 O58_4 1_555 1_555
Mo23_4 O72_4 1_555 1_555
Mo24_4 O60_4 1_555 1_555
Mo24_4 O62_4 1_555 1_555
Mo24_4 O66_4 1_555 1_555
Mo24_4 O70_4 1_555 1_555
Zn10 O53_4 1_555 1_555
Zn10 O57_4 1_555 1_555
Zn11_3 O52_4 1_555 1_555
Zn11_3 O55_4 1_555 1_555
Zn7_4 O56_4 1_555 1_555
Zn7_4 O70_4 1_555 1_555
Zn8_4 O58_4 1_555 1_555
Zn8_4 O62_4 1_555 1_555
Zn8_4 O63_4 1_555 1_555
P2_4 O46_4 1_555 1_555
P2_4 O47_4 1_555 1_555
P2_4 O51_4 1_555 1_555
N3_4 N4_4 1_555 1_555
N11 N3_4 1_555 1_555
C6_4 N4_4 1_555 1_555
C8_4 N11 1_555 1_555
C10_4 C8_4 1_555 1_555
H7_4 C10_4 1_555 1_555
C11_4 C6_4 1_555 1_555
H8_4 C11_4 1_555 1_555
C12_4 C10_4 1_555 1_555
H9_4 C12_4 1_555 1_555
C13_4 C11_4 1_555 1_555
H10_4 C13_4 1_555 1_555
C6_4 C8_4 1_555 1_555
C12_4 C13_4 1_555 1_555
N7_4 N8_4 1_555 1_555
N12 N7_4 1_555 1_555
C21_4 N8_4 1_555 1_555
C22_4 N12 1_555 1_555
C23_4 C22_4 1_555 1_555
H17_4 C23_4 1_555 1_555
C24_4 C21_4 1_555 1_555
H18_4 C24_4 1_555 1_555
C25_4 C23_4 1_555 1_555
H19_4 C25_4 1_555 1_555
C26_4 C24_4 1_555 1_555
H20_4 C26_4 1_555 1_555
C21_4 C22_4 1_555 1_555
C25_4 C26_4 1_555 1_555
Mo1_5 Mo2_5 1_555 1_555
Mo2_5 O2_5 1_555 1_555
Mo3_5 Mo7_5 1_555 1_555
Mo4_5 Mo5_5 1_555 1_555
Mo5_5 O5_5 1_555 1_555
Mo6_5 Mo11_5 1_555 1_555
Mo7_5 O1_5 1_555 1_555
Mo8_5 Mo9_5 1_555 1_555
Mo9_5 O7_5 1_555 1_555
Mo10_5 Mo12_5 1_555 1_555
Mo11_5 O1_5 1_555 1_555
Mo12_5 O1_5 1_555 1_555
Zn1_3 O4_5 1_555 1_555
Zn2_3 O5_5 1_555 1_555
Zn3_5 O6_5 1_555 1_555
Zn4_5 O14_5 1_555 1_555
P1_5 O1_5 1_555 1_555
O2_5 Mo3_5 1_555 1_555
O3_5 Mo1_5 1_555 1_555
O4_5 Mo1_5 1_555 1_555
O5_5 Mo4_5 1_555 1_555
O6_5 Mo3_5 1_555 1_555
O7_5 Mo5_5 1_555 1_555
O8_5 Mo1_5 1_555 1_555
O9_5 Mo3_5 1_555 1_555
O10_5 Mo2_5 1_555 1_555
O11_5 Mo8_5 1_555 1_555
O12_5 Mo8_5 1_555 1_555
O13_5 Mo6_5 1_555 1_555
O14_5 Mo6_5 1_555 1_555
O15_5 Mo3_5 1_555 1_555
H1_5 O15_5 1_555 1_555
O16_5 Mo11_5 1_555 1_555
O17_5 Mo1_5 1_555 1_555
O18_5 Mo10_5 1_555 1_555
O19_5 Mo4_5 1_555 1_555
O20_5 Mo2_5 1_555 1_555
O21_5 Mo4_5 1_555 1_555
O22_5 Mo7_5 1_555 1_555
H2_5 O22_5 1_555 1_555
N1_3 Zn2_3 1_555 1_555
O23_5 Mo1_5 1_555 1_555
O24_5 Mo1_5 1_555 1_555
O25_5 Zn4_5 1_555 1_555
N2_7 N1_3 1_555 1_555
O26_5 Mo3_5 1_555 1_555
N3_5 N4_5 1_555 1_555
O27_5 Mo10_5 1_555 1_555
O28_5 Mo5_5 1_555 1_555
O29_5 Mo7_5 1_555 1_555
O30_5 Mo2_5 1_555 1_555
O31_5 Mo5_5 1_555 1_555
O32_5 Mo4_5 1_555 1_555
O33_5 Mo9_5 1_555 1_555
O34_5 C2_5 1_555 1_555
O35_5 Mo6_5 1_555 1_555
O36_5 Mo7_5 1_555 1_555
O37_5 Mo12_5 1_555 1_555
O38_5 Mo8_5 1_555 1_555
N4_5 Zn3_5 1_555 1_555
O39_5 Mo5_5 1_555 1_555
N5_3 N3_5 1_555 1_555
O40_5 Mo9_5 1_555 1_555
O41_5 Mo10_5 1_555 1_555
O42_5 Mo11_5 1_555 1_555
C1_5 N1_3 1_555 1_555
C2_5 O25_5 1_555 1_555
C3_5 C2_5 1_555 1_555
C4_5 C3_5 1_555 1_555
H3_5 C4_5 1_555 1_555
C5_5 C3_5 1_555 1_555
H4_5 C5_5 1_555 1_555
C6_5 N4_5 1_555 1_555
C7_5 C1_5 1_555 1_555
H5_5 C7_5 1_555 1_555
C8_5 N5_3 1_555 1_555
C9_5 C7_5 1_555 1_555
H6_5 C9_5 1_555 1_555
C10_5 C8_5 1_555 1_555
H7_5 C10_5 1_555 1_555
C11_5 C6_5 1_555 1_555
H8_5 C11_5 1_555 1_555
C12_5 C10_5 1_555 1_555
H9_5 C12_5 1_555 1_555
C13_5 C11_5 1_555 1_555
H10_5 C13_5 1_555 1_555
N6_5 N2_7 1_555 1_555
C14_5 C1_5 1_555 1_555
C15_5 C14_5 1_555 1_555
H11_5 C15_5 1_555 1_555
C16_5 C9_5 1_555 1_555
H12_5 C16_5 1_555 1_555
O43_5 C17_5 1_555 1_555
O44_5 C17_5 1_555 1_555
C17_5 C18_5 1_555 1_555
C18_5 C19_5 1_555 1_555
C19_5 C5_5 1_555 1_555
H13_5 C19_5 1_555 1_555
C20_5 C4_5 1_555 1_555
H14_5 C20_5 1_555 1_555
Mo13_5 Mo14_5 1_555 1_555
Mo14_5 O46_5 1_555 1_555
Mo15_5 Mo19_5 1_555 1_555
Mo16_5 Mo17_5 1_555 1_555
Mo17_5 O49_5 1_555 1_555
Mo18_5 Mo23_5 1_555 1_555
Mo19_5 O45_5 1_555 1_555
Mo20_5 Mo21_5 1_555 1_555
Mo21_5 O51_5 1_555 1_555
Mo22_5 Mo24_5 1_555 1_555
Mo23_5 O45_5 1_555 1_555
Mo24_5 O45_5 1_555 1_555
Zn5_3 O48_5 1_555 1_555
Zn6_3 O49_5 1_555 1_555
Zn7_5 O50_5 1_555 1_555
Zn8_5 O43_5 1_555 1_555
P2_5 O45_5 1_555 1_555
O46_5 Mo15_5 1_555 1_555
O47_5 Mo13_5 1_555 1_555
O48_5 Mo13_5 1_555 1_555
O49_5 Mo16_5 1_555 1_555
O50_5 Mo15_5 1_555 1_555
O51_5 Mo17_5 1_555 1_555
O52_5 Mo13_5 1_555 1_555
O53_5 Mo15_5 1_555 1_555
O54_5 Mo14_5 1_555 1_555
O55_5 Mo20_5 1_555 1_555
O56_5 Mo20_5 1_555 1_555
O57_5 Mo18_5 1_555 1_555
O58_5 Mo18_5 1_555 1_555
O59_5 Mo15_5 1_555 1_555
H15_5 O59_5 1_555 1_555
O60_5 Mo23_5 1_555 1_555
O61_5 Mo13_5 1_555 1_555
O62_5 Mo22_5 1_555 1_555
O63_5 Mo16_5 1_555 1_555
O64_5 Mo14_5 1_555 1_555
O65_5 Mo16_5 1_555 1_555
O66_5 Mo19_5 1_555 1_555
H16_5 O66_5 1_555 1_555
O67_5 Mo13_5 1_555 1_555
O68_5 Mo13_5 1_555 1_555
O69_5 Mo15_5 1_555 1_555
N7_5 N8_5 1_555 1_555
O70_5 Mo22_5 1_555 1_555
O71_5 Mo17_5 1_555 1_555
O72_5 Mo19_5 1_555 1_555
O73_5 Mo14_5 1_555 1_555
O74_5 Mo17_5 1_555 1_555
O75_5 Mo16_5 1_555 1_555
O76_5 Mo21_5 1_555 1_555
O77_5 Mo18_5 1_555 1_555
O78_5 Mo19_5 1_555 1_555
O79_5 Mo24_5 1_555 1_555
O80_5 Mo20_5 1_555 1_555
N8_5 Zn7_5 1_555 1_555
O81_5 Mo17_5 1_555 1_555
N9_3 N7_5 1_555 1_555
O82_5 Mo21_5 1_555 1_555
O83_5 Mo22_5 1_555 1_555
O84_5 Mo23_5 1_555 1_555
C21_5 N8_5 1_555 1_555
C22_5 N9_3 1_555 1_555
C23_5 C22_5 1_555 1_555
H17_5 C23_5 1_555 1_555
C24_5 C21_5 1_555 1_555
H18_5 C24_5 1_555 1_555
C25_5 C23_5 1_555 1_555
H19_5 C25_5 1_555 1_555
C26_5 C24_5 1_555 1_555
H20_5 C26_5 1_555 1_555
Zn9_3 N5_3 1_555 1_555
Zn10_3 N9_3 1_555 1_555
Zn11_5 N6_5 1_555 1_555
N10_3 Zn6_3 1_555 1_555
N11_3 Zn1_3 1_555 1_555
N12_3 Zn5_3 1_555 1_555
Mo2_5 O4_5 1_555 1_555
Mo2_5 O8_5 1_555 1_555
Mo3_5 O10_5 1_555 1_555
Mo4_5 O23_5 1_555 1_555
Mo5_5 O19_5 1_555 1_555
Mo6_5 O3_5 1_555 1_555
Mo6_5 O17_5 1_555 1_555
Mo6_5 O21_5 1_555 1_555
Mo7_5 O6_5 1_555 1_555
Mo7_5 O9_5 1_555 1_555
Mo8_5 O2_5 1_555 1_555
Mo8_5 O15_5 1_555 1_555
Mo8_5 O20_5 1_555 1_555
Mo9_5 O11_5 1_555 1_555
Mo9_5 O12_5 1_555 1_555
Mo9_5 O31_5 1_555 1_555
Mo10_5 O7_5 1_555 1_555
Mo10_5 O28_5 1_555 1_555
Mo10_5 O33_5 1_555 1_555
Mo11_5 O13_5 1_555 1_555
Mo11_5 O14_5 1_555 1_555
Mo11_5 O29_5 1_555 1_555
Mo12_5 O16_5 1_555 1_555
Mo12_5 O18_5 1_555 1_555
Mo12_5 O22_5 1_555 1_555
Mo12_5 O27_5 1_555 1_555
Zn1_3 O9_5 1_555 1_555
Zn1_3 O13_5 1_555 1_555
Zn2_3 O8_5 1_555 1_555
Zn2_3 O11_5 1_555 1_555
Zn3_5 O12_5 1_555 1_555
Zn3_5 O27_5 1_555 1_555
Zn4_5 O18_5 1_555 1_555
Zn4_5 O19_5 1_555 1_555
P1_5 O2_5 1_555 1_555
P1_5 O3_5 1_555 1_555
P1_5 O7_5 1_555 1_555
C6_5 C8_5 1_555 1_555
C12_5 C13_5 1_555 1_555
N6_5 C14_5 1_555 1_555
C15_5 C16_5 1_555 1_555
C18_5 C20_5 1_555 1_555
Mo14_5 O48_5 1_555 1_555
Mo14_5 O52_5 1_555 1_555
Mo15_5 O54_5 1_555 1_555
Mo16_5 O67_5 1_555 1_555
Mo17_5 O63_5 1_555 1_555
Mo18_5 O47_5 1_555 1_555
Mo18_5 O61_5 1_555 1_555
Mo18_5 O65_5 1_555 1_555
Mo19_5 O50_5 1_555 1_555
Mo19_5 O53_5 1_555 1_555
Mo20_5 O46_5 1_555 1_555
Mo20_5 O59_5 1_555 1_555
Mo20_5 O64_5 1_555 1_555
Mo21_5 O55_5 1_555 1_555
Mo21_5 O56_5 1_555 1_555
Mo21_5 O74_5 1_555 1_555
Mo22_5 O51_5 1_555 1_555
Mo22_5 O71_5 1_555 1_555
Mo22_5 O76_5 1_555 1_555
Mo23_5 O57_5 1_555 1_555
Mo23_5 O58_5 1_555 1_555
Mo23_5 O72_5 1_555 1_555
Mo24_5 O60_5 1_555 1_555
Mo24_5 O62_5 1_555 1_555
Mo24_5 O66_5 1_555 1_555
Mo24_5 O70_5 1_555 1_555
Zn5_3 O53_5 1_555 1_555
Zn5_3 O57_5 1_555 1_555
Zn6_3 O52_5 1_555 1_555
Zn6_3 O55_5 1_555 1_555
Zn7_5 O56_5 1_555 1_555
Zn7_5 O70_5 1_555 1_555
Zn8_5 O58_5 1_555 1_555
Zn8_5 O62_5 1_555 1_555
Zn8_5 O63_5 1_555 1_555
P2_5 O46_5 1_555 1_555
P2_5 O47_5 1_555 1_555
P2_5 O51_5 1_555 1_555
C21_5 C22_5 1_555 1_555
C25_5 C26_5 1_555 1_555
N7_6 N8_6 1_555 1_555
N9_4 N7_6 1_555 1_555
C21_6 N8_6 1_555 1_555
C22_6 N9_4 1_555 1_555
C23_6 C22_6 1_555 1_555
H17_6 C23_6 1_555 1_555
C24_6 C21_6 1_555 1_555
H18_6 C24_6 1_555 1_555
C25_6 C23_6 1_555 1_555
H19_6 C25_6 1_555 1_555
C26_6 C24_6 1_555 1_555
H20_6 C26_6 1_555 1_555
Zn10_4 N9_4 1_555 1_555
C21_6 C22_6 1_555 1_555
C25_6 C26_6 1_555 1_555
N3_6 N4_6 1_555 1_555
N5_4 N3_6 1_555 1_555
C6_6 N4_6 1_555 1_555
C8_6 N5_4 1_555 1_555
C10_6 C8_6 1_555 1_555
H7_6 C10_6 1_555 1_555
C11_6 C6_6 1_555 1_555
H8_6 C11_6 1_555 1_555
C12_6 C10_6 1_555 1_555
H9_6 C12_6 1_555 1_555
C13_6 C11_6 1_555 1_555
H10_6 C13_6 1_555 1_555
Zn9_4 N5_4 1_555 1_555
C6_6 C8_6 1_555 1_555
C12_6 C13_6 1_555 1_555
H3_6 C4_6 1_555 1_555
H6_6 C9_6 1_555 1_555
C16_6 C9_6 1_555 1_555
H12_6 C16_6 1_555 1_555
O43_6 C17_6 1_555 1_555
O44_6 C17_6 1_555 1_555
C17_6 C18_6 1_555 1_555
C20_6 C4_6 1_555 1_555
H14_6 C20_6 1_555 1_555
Mo13_6 Mo14_6 1_555 1_555
Mo14_6 O46_6 1_555 1_555
Mo15_6 Mo19_6 1_555 1_555
Mo16_6 Mo17_6 1_555 1_555
Mo17_6 O49_6 1_555 1_555
Mo18_6 Mo23_6 1_555 1_555
Mo19_6 O45_6 1_555 1_555
Mo20_6 Mo21_6 1_555 1_555
Mo21_6 O51_6 1_555 1_555
Mo22_6 Mo24_6 1_555 1_555
Mo23_6 O45_6 1_555 1_555
Mo24_6 O45_6 1_555 1_555
Zn5_4 O48_6 1_555 1_555
Zn6_4 O49_6 1_555 1_555
Zn7_6 O50_6 1_555 1_555
Zn8_6 O43_6 1_555 1_555
P2_6 O45_6 1_555 1_555
O46_6 Mo15_6 1_555 1_555
O47_6 Mo13_6 1_555 1_555
O48_6 Mo13_6 1_555 1_555
O49_6 Mo16_6 1_555 1_555
O50_6 Mo15_6 1_555 1_555
O51_6 Mo17_6 1_555 1_555
O52_6 Mo13_6 1_555 1_555
O53_6 Mo15_6 1_555 1_555
O54_6 Mo14_6 1_555 1_555
O55_6 Mo20_6 1_555 1_555
O56_6 Mo20_6 1_555 1_555
O57_6 Mo18_6 1_555 1_555
O58_6 Mo18_6 1_555 1_555
O59_6 Mo15_6 1_555 1_555
H15_6 O59_6 1_555 1_555
O60_6 Mo23_6 1_555 1_555
O61_6 Mo13_6 1_555 1_555
O62_6 Mo22_6 1_555 1_555
O63_6 Mo16_6 1_555 1_555
O64_6 Mo14_6 1_555 1_555
O65_6 Mo16_6 1_555 1_555
O66_6 Mo19_6 1_555 1_555
H16_6 O66_6 1_555 1_555
O67_6 Mo13_6 1_555 1_555
O68_6 Mo13_6 1_555 1_555
O69_6 Mo15_6 1_555 1_555
O70_6 Mo22_6 1_555 1_555
O71_6 Mo17_6 1_555 1_555
O72_6 Mo19_6 1_555 1_555
O73_6 Mo14_6 1_555 1_555
O74_6 Mo17_6 1_555 1_555
O75_6 Mo16_6 1_555 1_555
O76_6 Mo21_6 1_555 1_555
O77_6 Mo18_6 1_555 1_555
O78_6 Mo19_6 1_555 1_555
O79_6 Mo24_6 1_555 1_555
O80_6 Mo20_6 1_555 1_555
O81_6 Mo17_6 1_555 1_555
O82_6 Mo21_6 1_555 1_555
O83_6 Mo22_6 1_555 1_555
O84_6 Mo23_6 1_555 1_555
N10_4 Zn6_4 1_555 1_555
N12_4 Zn5_4 1_555 1_555
C18_6 C20_6 1_555 1_555
Mo14_6 O48_6 1_555 1_555
Mo14_6 O52_6 1_555 1_555
Mo15_6 O54_6 1_555 1_555
Mo16_6 O67_6 1_555 1_555
Mo17_6 O63_6 1_555 1_555
Mo18_6 O47_6 1_555 1_555
Mo18_6 O61_6 1_555 1_555
Mo18_6 O65_6 1_555 1_555
Mo19_6 O50_6 1_555 1_555
Mo19_6 O53_6 1_555 1_555
Mo20_6 O46_6 1_555 1_555
Mo20_6 O59_6 1_555 1_555
Mo20_6 O64_6 1_555 1_555
Mo21_6 O55_6 1_555 1_555
Mo21_6 O56_6 1_555 1_555
Mo21_6 O74_6 1_555 1_555
Mo22_6 O51_6 1_555 1_555
Mo22_6 O71_6 1_555 1_555
Mo22_6 O76_6 1_555 1_555
Mo23_6 O57_6 1_555 1_555
Mo23_6 O58_6 1_555 1_555
Mo23_6 O72_6 1_555 1_555
Mo24_6 O60_6 1_555 1_555
Mo24_6 O62_6 1_555 1_555
Mo24_6 O66_6 1_555 1_555
Mo24_6 O70_6 1_555 1_555
Zn5_4 O53_6 1_555 1_555
Zn5_4 O57_6 1_555 1_555
Zn6_4 O52_6 1_555 1_555
Zn6_4 O55_6 1_555 1_555
Zn7_6 O56_6 1_555 1_555
Zn7_6 O70_6 1_555 1_555
Zn8_6 O58_6 1_555 1_555
Zn8_6 O62_6 1_555 1_555
Zn8_6 O63_6 1_555 1_555
P2_6 O46_6 1_555 1_555
P2_6 O47_6 1_555 1_555
P2_6 O51_6 1_555 1_555
Mo1_6 Mo2_6 1_555 1_555
Mo2_6 O2_6 1_555 1_555
Mo3_6 Mo7_6 1_555 1_555
Mo4_6 Mo5_6 1_555 1_555
Mo5_6 O5_6 1_555 1_555
Mo6_6 Mo11_6 1_555 1_555
Mo7_6 O1_6 1_555 1_555
Mo8_6 Mo9_6 1_555 1_555
Mo9_6 O7_6 1_555 1_555
Mo10_6 Mo12_6 1_555 1_555
Mo11_6 O1_6 1_555 1_555
Mo12_6 O1_6 1_555 1_555
Zn1_4 O4_6 1_555 1_555
Zn2_4 O5_6 1_555 1_555
Zn3_6 O6_6 1_555 1_555
Zn4_6 O14_6 1_555 1_555
P1_6 O1_6 1_555 1_555
O2_6 Mo3_6 1_555 1_555
O3_6 Mo1_6 1_555 1_555
O4_6 Mo1_6 1_555 1_555
O5_6 Mo4_6 1_555 1_555
O6_6 Mo3_6 1_555 1_555
O7_6 Mo5_6 1_555 1_555
O8_6 Mo1_6 1_555 1_555
O9_6 Mo3_6 1_555 1_555
O10_6 Mo2_6 1_555 1_555
O11_6 Mo8_6 1_555 1_555
O12_6 Mo8_6 1_555 1_555
O13_6 Mo6_6 1_555 1_555
O14_6 Mo6_6 1_555 1_555
O15_6 Mo3_6 1_555 1_555
H1_6 O15_6 1_555 1_555
O16_6 Mo11_6 1_555 1_555
O17_6 Mo1_6 1_555 1_555
O18_6 Mo10_6 1_555 1_555
O19_6 Mo4_6 1_555 1_555
O20_6 Mo2_6 1_555 1_555
O21_6 Mo4_6 1_555 1_555
O22_6 Mo7_6 1_555 1_555
H2_6 O22_6 1_555 1_555
N1_4 Zn2_4 1_555 1_555
O23_6 Mo1_6 1_555 1_555
O24_6 Mo1_6 1_555 1_555
O25_6 Zn4_6 1_555 1_555
N2_8 N1_4 1_555 1_555
O26_6 Mo3_6 1_555 1_555
O27_6 Mo10_6 1_555 1_555
O28_6 Mo5_6 1_555 1_555
O29_6 Mo7_6 1_555 1_555
O30_6 Mo2_6 1_555 1_555
O31_6 Mo5_6 1_555 1_555
O32_6 Mo4_6 1_555 1_555
O33_6 Mo9_6 1_555 1_555
O34_6 C2_6 1_555 1_555
O35_6 Mo6_6 1_555 1_555
O36_6 Mo7_6 1_555 1_555
O37_6 Mo12_6 1_555 1_555
O38_6 Mo8_6 1_555 1_555
O39_6 Mo5_6 1_555 1_555
O40_6 Mo9_6 1_555 1_555
O41_6 Mo10_6 1_555 1_555
O42_6 Mo11_6 1_555 1_555
C1_6 N1_4 1_555 1_555
C2_6 O25_6 1_555 1_555
C3_6 C2_6 1_555 1_555
C5_6 C3_6 1_555 1_555
H4_6 C5_6 1_555 1_555
C7_6 C1_6 1_555 1_555
H5_6 C7_6 1_555 1_555
N6_6 N2_8 1_555 1_555
C14_6 C1_6 1_555 1_555
C15_6 C14_6 1_555 1_555
H11_6 C15_6 1_555 1_555
C19_6 C5_6 1_555 1_555
H13_6 C19_6 1_555 1_555
Zn11_6 N6_6 1_555 1_555
N11_4 Zn1_4 1_555 1_555
Mo2_6 O4_6 1_555 1_555
Mo2_6 O8_6 1_555 1_555
Mo3_6 O10_6 1_555 1_555
Mo4_6 O23_6 1_555 1_555
Mo5_6 O19_6 1_555 1_555
Mo6_6 O3_6 1_555 1_555
Mo6_6 O17_6 1_555 1_555
Mo6_6 O21_6 1_555 1_555
Mo7_6 O6_6 1_555 1_555
Mo7_6 O9_6 1_555 1_555
Mo8_6 O2_6 1_555 1_555
Mo8_6 O15_6 1_555 1_555
Mo8_6 O20_6 1_555 1_555
Mo9_6 O11_6 1_555 1_555
Mo9_6 O12_6 1_555 1_555
Mo9_6 O31_6 1_555 1_555
Mo10_6 O7_6 1_555 1_555
Mo10_6 O28_6 1_555 1_555
Mo10_6 O33_6 1_555 1_555
Mo11_6 O13_6 1_555 1_555
Mo11_6 O14_6 1_555 1_555
Mo11_6 O29_6 1_555 1_555
Mo12_6 O16_6 1_555 1_555
Mo12_6 O18_6 1_555 1_555
Mo12_6 O22_6 1_555 1_555
Mo12_6 O27_6 1_555 1_555
Zn1_4 O9_6 1_555 1_555
Zn1_4 O13_6 1_555 1_555
Zn2_4 O8_6 1_555 1_555
Zn2_4 O11_6 1_555 1_555
Zn3_6 O12_6 1_555 1_555
Zn3_6 O27_6 1_555 1_555
Zn4_6 O18_6 1_555 1_555
Zn4_6 O19_6 1_555 1_555
P1_6 O2_6 1_555 1_555
P1_6 O3_6 1_555 1_555
P1_6 O7_6 1_555 1_555
N6_6 C14_6 1_555 1_555
N2_9 N10_4 1_555 1_555
C1_7 N10_4 1_555 1_555
C7_7 C1_7 1_555 1_555
H5_7 C7_7 1_555 1_555
N6_7 N2_10 1_555 1_555
C15_7 C14_7 1_555 1_555
H11_7 C15_7 1_555 1_555
Zn11_7 N6_7 1_555 1_555
N6_7 C14_7 1_555 1_555
H6_7 C9_7 1_555 1_555
H12_7 C16_7 1_555 1_555
N6_8 N2_11 1_555 1_555
C15_8 C14_8 1_555 1_555
H11_8 C15_8 1_555 1_555
H12_8 C16_8 1_555 1_555
Zn11_8 N6_8 1_555 1_555
N6_8 C14_8 1_555 1_555
C15_8 C16_8 1_555 1_555
N2_12 N10_3 1_555 1_555
C1_8 N10_3 1_555 1_555
C7_8 C1_8 1_555 1_555
H5_8 C7_8 1_555 1_555
C9_8 C7_8 1_555 1_555
H6_8 C9_8 1_555 1_555
Mo1_7 Mo2_7 1_555 1_555
Mo2_7 O2_7 1_555 1_555
Mo3_7 Mo7_7 1_555 1_555
Mo4_7 Mo5_7 1_555 1_555
Mo5_7 O5_7 1_555 1_555
Mo6_7 Mo11_7 1_555 1_555
Mo7_7 O1_7 1_555 1_555
Mo8_7 Mo9_7 1_555 1_555
Mo9_7 O7_7 1_555 1_555
Mo10_7 Mo12_7 1_555 1_555
Mo11_7 O1_7 1_555 1_555
Mo12_7 O1_7 1_555 1_555
Zn9_4 O4_7 1_555 1_555
Zn11_5 O5_7 1_555 1_555
Zn3_7 O6_7 1_555 1_555
Zn4_7 O14_7 1_555 1_555
P1_7 O1_7 1_555 1_555
O2_7 Mo3_7 1_555 1_555
O3_7 Mo1_7 1_555 1_555
O4_7 Mo1_7 1_555 1_555
O5_7 Mo4_7 1_555 1_555
O6_7 Mo3_7 1_555 1_555
O7_7 Mo5_7 1_555 1_555
O8_7 Mo1_7 1_555 1_555
O9_7 Mo3_7 1_555 1_555
O10_7 Mo2_7 1_555 1_555
O11_7 Mo8_7 1_555 1_555
O12_7 Mo8_7 1_555 1_555
O13_7 Mo6_7 1_555 1_555
O14_7 Mo6_7 1_555 1_555
O15_7 Mo3_7 1_555 1_555
H1_7 O15_7 1_555 1_555
O16_7 Mo11_7 1_555 1_555
O17_7 Mo1_7 1_555 1_555
O18_7 Mo10_7 1_555 1_555
O19_7 Mo4_7 1_555 1_555
O20_7 Mo2_7 1_555 1_555
O21_7 Mo4_7 1_555 1_555
O22_7 Mo7_7 1_555 1_555
H2_7 O22_7 1_555 1_555
O23_7 Mo1_7 1_555 1_555
O24_7 Mo1_7 1_555 1_555
O25_7 Zn4_7 1_555 1_555
O26_7 Mo3_7 1_555 1_555
N3_7 N4_7 1_555 1_555
O27_7 Mo10_7 1_555 1_555
O28_7 Mo5_7 1_555 1_555
O29_7 Mo7_7 1_555 1_555
O30_7 Mo2_7 1_555 1_555
O31_7 Mo5_7 1_555 1_555
O32_7 Mo4_7 1_555 1_555
O33_7 Mo9_7 1_555 1_555
O34_7 C2_7 1_555 1_555
O35_7 Mo6_7 1_555 1_555
O36_7 Mo7_7 1_555 1_555
O37_7 Mo12_7 1_555 1_555
O38_7 Mo8_7 1_555 1_555
N4_7 Zn3_7 1_555 1_555
O39_7 Mo5_7 1_555 1_555
N11_4 N3_7 1_555 1_555
O40_7 Mo9_7 1_555 1_555
O41_7 Mo10_7 1_555 1_555
O42_7 Mo11_7 1_555 1_555
C2_7 O25_7 1_555 1_555
C3_7 C2_7 1_555 1_555
C4_7 C3_7 1_555 1_555
H3_7 C4_7 1_555 1_555
C5_7 C3_7 1_555 1_555
H4_7 C5_7 1_555 1_555
C6_7 N4_7 1_555 1_555
C8_7 N11_4 1_555 1_555
C10_7 C8_7 1_555 1_555
H7_7 C10_7 1_555 1_555
C11_7 C6_7 1_555 1_555
H8_7 C11_7 1_555 1_555
C12_7 C10_7 1_555 1_555
H9_7 C12_7 1_555 1_555
C13_7 C11_7 1_555 1_555
H10_7 C13_7 1_555 1_555
O43_7 C17_7 1_555 1_555
O44_7 C17_7 1_555 1_555
C17_7 C18_7 1_555 1_555
C18_7 C19_7 1_555 1_555
C19_7 C5_7 1_555 1_555
H13_7 C19_7 1_555 1_555
C20_7 C4_7 1_555 1_555
H14_7 C20_7 1_555 1_555
Mo13_7 Mo14_7 1_555 1_555
Mo14_7 O46_7 1_555 1_555
Mo15_7 Mo19_7 1_555 1_555
Mo16_7 Mo17_7 1_555 1_555
Mo17_7 O49_7 1_555 1_555
Mo18_7 Mo23_7 1_555 1_555
Mo19_7 O45_7 1_555 1_555
Mo20_7 Mo21_7 1_555 1_555
Mo21_7 O51_7 1_555 1_555
Mo22_7 Mo24_7 1_555 1_555
Mo23_7 O45_7 1_555 1_555
Mo24_7 O45_7 1_555 1_555
Zn10_4 O48_7 1_555 1_555
Zn11_8 O49_7 1_555 1_555
Zn7_7 O50_7 1_555 1_555
Zn8_7 O43_7 1_555 1_555
P2_7 O45_7 1_555 1_555
O46_7 Mo15_7 1_555 1_555
O47_7 Mo13_7 1_555 1_555
O48_7 Mo13_7 1_555 1_555
O49_7 Mo16_7 1_555 1_555
O50_7 Mo15_7 1_555 1_555
O51_7 Mo17_7 1_555 1_555
O52_7 Mo13_7 1_555 1_555
O53_7 Mo15_7 1_555 1_555
O54_7 Mo14_7 1_555 1_555
O55_7 Mo20_7 1_555 1_555
O56_7 Mo20_7 1_555 1_555
O57_7 Mo18_7 1_555 1_555
O58_7 Mo18_7 1_555 1_555
O59_7 Mo15_7 1_555 1_555
H15_7 O59_7 1_555 1_555
O60_7 Mo23_7 1_555 1_555
O61_7 Mo13_7 1_555 1_555
O62_7 Mo22_7 1_555 1_555
O63_7 Mo16_7 1_555 1_555
O64_7 Mo14_7 1_555 1_555
O65_7 Mo16_7 1_555 1_555
O66_7 Mo19_7 1_555 1_555
H16_7 O66_7 1_555 1_555
O67_7 Mo13_7 1_555 1_555
O68_7 Mo13_7 1_555 1_555
O69_7 Mo15_7 1_555 1_555
N7_7 N8_7 1_555 1_555
O70_7 Mo22_7 1_555 1_555
O71_7 Mo17_7 1_555 1_555
O72_7 Mo19_7 1_555 1_555
O73_7 Mo14_7 1_555 1_555
O74_7 Mo17_7 1_555 1_555
O75_7 Mo16_7 1_555 1_555
O76_7 Mo21_7 1_555 1_555
O77_7 Mo18_7 1_555 1_555
O78_7 Mo19_7 1_555 1_555
O79_7 Mo24_7 1_555 1_555
O80_7 Mo20_7 1_555 1_555
N8_7 Zn7_7 1_555 1_555
O81_7 Mo17_7 1_555 1_555
N12_4 N7_7 1_555 1_555
O82_7 Mo21_7 1_555 1_555
O83_7 Mo22_7 1_555 1_555
O84_7 Mo23_7 1_555 1_555
C21_7 N8_7 1_555 1_555
C22_7 N12_4 1_555 1_555
C23_7 C22_7 1_555 1_555
H17_7 C23_7 1_555 1_555
C24_7 C21_7 1_555 1_555
H18_7 C24_7 1_555 1_555
C25_7 C23_7 1_555 1_555
H19_7 C25_7 1_555 1_555
C26_7 C24_7 1_555 1_555
H20_7 C26_7 1_555 1_555
Mo2_7 O4_7 1_555 1_555
Mo2_7 O8_7 1_555 1_555
Mo3_7 O10_7 1_555 1_555
Mo4_7 O23_7 1_555 1_555
Mo5_7 O19_7 1_555 1_555
Mo6_7 O3_7 1_555 1_555
Mo6_7 O17_7 1_555 1_555
Mo6_7 O21_7 1_555 1_555
Mo7_7 O6_7 1_555 1_555
Mo7_7 O9_7 1_555 1_555
Mo8_7 O2_7 1_555 1_555
Mo8_7 O15_7 1_555 1_555
Mo8_7 O20_7 1_555 1_555
Mo9_7 O11_7 1_555 1_555
Mo9_7 O12_7 1_555 1_555
Mo9_7 O31_7 1_555 1_555
Mo10_7 O7_7 1_555 1_555
Mo10_7 O28_7 1_555 1_555
Mo10_7 O33_7 1_555 1_555
Mo11_7 O13_7 1_555 1_555
Mo11_7 O14_7 1_555 1_555
Mo11_7 O29_7 1_555 1_555
Mo12_7 O16_7 1_555 1_555
Mo12_7 O18_7 1_555 1_555
Mo12_7 O22_7 1_555 1_555
Mo12_7 O27_7 1_555 1_555
Zn9_4 O9_7 1_555 1_555
Zn9_4 O13_7 1_555 1_555
Zn11_5 O8_7 1_555 1_555
Zn11_5 O11_7 1_555 1_555
Zn3_7 O12_7 1_555 1_555
Zn3_7 O27_7 1_555 1_555
Zn4_7 O18_7 1_555 1_555
Zn4_7 O19_7 1_555 1_555
P1_7 O2_7 1_555 1_555
P1_7 O3_7 1_555 1_555
P1_7 O7_7 1_555 1_555
C6_7 C8_7 1_555 1_555
C12_7 C13_7 1_555 1_555
C18_7 C20_7 1_555 1_555
Mo14_7 O48_7 1_555 1_555
Mo14_7 O52_7 1_555 1_555
Mo15_7 O54_7 1_555 1_555
Mo16_7 O67_7 1_555 1_555
Mo17_7 O63_7 1_555 1_555
Mo18_7 O47_7 1_555 1_555
Mo18_7 O61_7 1_555 1_555
Mo18_7 O65_7 1_555 1_555
Mo19_7 O50_7 1_555 1_555
Mo19_7 O53_7 1_555 1_555
Mo20_7 O46_7 1_555 1_555
Mo20_7 O59_7 1_555 1_555
Mo20_7 O64_7 1_555 1_555
Mo21_7 O55_7 1_555 1_555
Mo21_7 O56_7 1_555 1_555
Mo21_7 O74_7 1_555 1_555
Mo22_7 O51_7 1_555 1_555
Mo22_7 O71_7 1_555 1_555
Mo22_7 O76_7 1_555 1_555
Mo23_7 O57_7 1_555 1_555
Mo23_7 O58_7 1_555 1_555
Mo23_7 O72_7 1_555 1_555
Mo24_7 O60_7 1_555 1_555
Mo24_7 O62_7 1_555 1_555
Mo24_7 O66_7 1_555 1_555
Mo24_7 O70_7 1_555 1_555
Zn10_4 O53_7 1_555 1_555
Zn10_4 O57_7 1_555 1_555
Zn11_8 O52_7 1_555 1_555
Zn11_8 O55_7 1_555 1_555
Zn7_7 O56_7 1_555 1_555
Zn7_7 O70_7 1_555 1_555
Zn8_7 O58_7 1_555 1_555
Zn8_7 O62_7 1_555 1_555
Zn8_7 O63_7 1_555 1_555
P2_7 O46_7 1_555 1_555
P2_7 O47_7 1_555 1_555
P2_7 O51_7 1_555 1_555
C21_7 C22_7 1_555 1_555
C25_7 C26_7 1_555 1_555
N7_8 N8_8 1_555 1_555
N12_3 N7_8 1_555 1_555
C21_8 N8_8 1_555 1_555
C22_8 N12_3 1_555 1_555
C23_8 C22_8 1_555 1_555
H17_8 C23_8 1_555 1_555
C24_8 C21_8 1_555 1_555
H18_8 C24_8 1_555 1_555
C25_8 C23_8 1_555 1_555
H19_8 C25_8 1_555 1_555
C26_8 C24_8 1_555 1_555
H20_8 C26_8 1_555 1_555
C21_8 C22_8 1_555 1_555
C25_8 C26_8 1_555 1_555
N3_8 N4_8 1_555 1_555
N11_3 N3_8 1_555 1_555
C6_8 N4_8 1_555 1_555
C8_8 N11_3 1_555 1_555
C10_8 C8_8 1_555 1_555
H7_8 C10_8 1_555 1_555
C11_8 C6_8 1_555 1_555
H8_8 C11_8 1_555 1_555
C12_8 C10_8 1_555 1_555
H9_8 C12_8 1_555 1_555
C13_8 C11_8 1_555 1_555
H10_8 C13_8 1_555 1_555
C6_8 C8_8 1_555 1_555
C12_8 C13_8 1_555 1_555
H3_8 C4_8 1_555 1_555
O43_8 C17_8 1_555 1_555
O44_8 C17_8 1_555 1_555
C17_8 C18_8 1_555 1_555
C20_8 C4_8 1_555 1_555
H14_8 C20_8 1_555 1_555
Mo13_8 Mo14_8 1_555 1_555
Mo14_8 O46_8 1_555 1_555
Mo15_8 Mo19_8 1_555 1_555
Mo16_8 Mo17_8 1_555 1_555
Mo17_8 O49_8 1_555 1_555
Mo18_8 Mo23_8 1_555 1_555
Mo19_8 O45_8 1_555 1_555
Mo20_8 Mo21_8 1_555 1_555
Mo21_8 O51_8 1_555 1_555
Mo22_8 Mo24_8 1_555 1_555
Mo23_8 O45_8 1_555 1_555
Mo24_8 O45_8 1_555 1_555
Zn10_3 O48_8 1_555 1_555
Zn11_7 O49_8 1_555 1_555
Zn7_8 O50_8 1_555 1_555
Zn8_8 O43_8 1_555 1_555
P2_8 O45_8 1_555 1_555
O46_8 Mo15_8 1_555 1_555
O47_8 Mo13_8 1_555 1_555
O48_8 Mo13_8 1_555 1_555
O49_8 Mo16_8 1_555 1_555
O50_8 Mo15_8 1_555 1_555
O51_8 Mo17_8 1_555 1_555
O52_8 Mo13_8 1_555 1_555
O53_8 Mo15_8 1_555 1_555
O54_8 Mo14_8 1_555 1_555
O55_8 Mo20_8 1_555 1_555
O56_8 Mo20_8 1_555 1_555
O57_8 Mo18_8 1_555 1_555
O58_8 Mo18_8 1_555 1_555
O59_8 Mo15_8 1_555 1_555
H15_8 O59_8 1_555 1_555
O60_8 Mo23_8 1_555 1_555
O61_8 Mo13_8 1_555 1_555
O62_8 Mo22_8 1_555 1_555
O63_8 Mo16_8 1_555 1_555
O64_8 Mo14_8 1_555 1_555
O65_8 Mo16_8 1_555 1_555
O66_8 Mo19_8 1_555 1_555
H16_8 O66_8 1_555 1_555
O67_8 Mo13_8 1_555 1_555
O68_8 Mo13_8 1_555 1_555
O69_8 Mo15_8 1_555 1_555
O70_8 Mo22_8 1_555 1_555
O71_8 Mo17_8 1_555 1_555
O72_8 Mo19_8 1_555 1_555
O73_8 Mo14_8 1_555 1_555
O74_8 Mo17_8 1_555 1_555
O75_8 Mo16_8 1_555 1_555
O76_8 Mo21_8 1_555 1_555
O77_8 Mo18_8 1_555 1_555
O78_8 Mo19_8 1_555 1_555
O79_8 Mo24_8 1_555 1_555
O80_8 Mo20_8 1_555 1_555
O81_8 Mo17_8 1_555 1_555
O82_8 Mo21_8 1_555 1_555
O83_8 Mo22_8 1_555 1_555
O84_8 Mo23_8 1_555 1_555
C18_8 C20_8 1_555 1_555
Mo14_8 O48_8 1_555 1_555
Mo14_8 O52_8 1_555 1_555
Mo15_8 O54_8 1_555 1_555
Mo16_8 O67_8 1_555 1_555
Mo17_8 O63_8 1_555 1_555
Mo18_8 O47_8 1_555 1_555
Mo18_8 O61_8 1_555 1_555
Mo18_8 O65_8 1_555 1_555
Mo19_8 O50_8 1_555 1_555
Mo19_8 O53_8 1_555 1_555
Mo20_8 O46_8 1_555 1_555
Mo20_8 O59_8 1_555 1_555
Mo20_8 O64_8 1_555 1_555
Mo21_8 O55_8 1_555 1_555
Mo21_8 O56_8 1_555 1_555
Mo21_8 O74_8 1_555 1_555
Mo22_8 O51_8 1_555 1_555
Mo22_8 O71_8 1_555 1_555
Mo22_8 O76_8 1_555 1_555
Mo23_8 O57_8 1_555 1_555
Mo23_8 O58_8 1_555 1_555
Mo23_8 O72_8 1_555 1_555
Mo24_8 O60_8 1_555 1_555
Mo24_8 O62_8 1_555 1_555
Mo24_8 O66_8 1_555 1_555
Mo24_8 O70_8 1_555 1_555
Zn10_3 O53_8 1_555 1_555
Zn10_3 O57_8 1_555 1_555
Zn11_7 O52_8 1_555 1_555
Zn11_7 O55_8 1_555 1_555
Zn7_8 O56_8 1_555 1_555
Zn7_8 O70_8 1_555 1_555
Zn8_8 O58_8 1_555 1_555
Zn8_8 O62_8 1_555 1_555
Zn8_8 O63_8 1_555 1_555
P2_8 O46_8 1_555 1_555
P2_8 O47_8 1_555 1_555
P2_8 O51_8 1_555 1_555
Mo1_8 Mo2_8 1_555 1_555
Mo2_8 O2_8 1_555 1_555
Mo3_8 Mo7_8 1_555 1_555
Mo4_8 Mo5_8 1_555 1_555
Mo5_8 O5_8 1_555 1_555
Mo6_8 Mo11_8 1_555 1_555
Mo7_8 O1_8 1_555 1_555
Mo8_8 Mo9_8 1_555 1_555
Mo9_8 O7_8 1_555 1_555
Mo10_8 Mo12_8 1_555 1_555
Mo11_8 O1_8 1_555 1_555
Mo12_8 O1_8 1_555 1_555
Zn9_3 O4_8 1_555 1_555
Zn11_6 O5_8 1_555 1_555
Zn3_8 O6_8 1_555 1_555
Zn4_8 O14_8 1_555 1_555
P1_8 O1_8 1_555 1_555
O2_8 Mo3_8 1_555 1_555
O3_8 Mo1_8 1_555 1_555
O4_8 Mo1_8 1_555 1_555
O5_8 Mo4_8 1_555 1_555
O6_8 Mo3_8 1_555 1_555
O7_8 Mo5_8 1_555 1_555
O8_8 Mo1_8 1_555 1_555
O9_8 Mo3_8 1_555 1_555
O10_8 Mo2_8 1_555 1_555
O11_8 Mo8_8 1_555 1_555
O12_8 Mo8_8 1_555 1_555
O13_8 Mo6_8 1_555 1_555
O14_8 Mo6_8 1_555 1_555
O15_8 Mo3_8 1_555 1_555
H1_8 O15_8 1_555 1_555
O16_8 Mo11_8 1_555 1_555
O17_8 Mo1_8 1_555 1_555
O18_8 Mo10_8 1_555 1_555
O19_8 Mo4_8 1_555 1_555
O20_8 Mo2_8 1_555 1_555
O21_8 Mo4_8 1_555 1_555
O22_8 Mo7_8 1_555 1_555
H2_8 O22_8 1_555 1_555
O23_8 Mo1_8 1_555 1_555
O24_8 Mo1_8 1_555 1_555
O25_8 Zn4_8 1_555 1_555
O26_8 Mo3_8 1_555 1_555
O27_8 Mo10_8 1_555 1_555
O28_8 Mo5_8 1_555 1_555
O29_8 Mo7_8 1_555 1_555
O30_8 Mo2_8 1_555 1_555
O31_8 Mo5_8 1_555 1_555
O32_8 Mo4_8 1_555 1_555
O33_8 Mo9_8 1_555 1_555
O34_8 C2_8 1_555 1_555
O35_8 Mo6_8 1_555 1_555
O36_8 Mo7_8 1_555 1_555
O37_8 Mo12_8 1_555 1_555
O38_8 Mo8_8 1_555 1_555
O39_8 Mo5_8 1_555 1_555
O40_8 Mo9_8 1_555 1_555
O41_8 Mo10_8 1_555 1_555
O42_8 Mo11_8 1_555 1_555
C2_8 O25_8 1_555 1_555
C3_8 C2_8 1_555 1_555
C5_8 C3_8 1_555 1_555
H4_8 C5_8 1_555 1_555
C19_8 C5_8 1_555 1_555
H13_8 C19_8 1_555 1_555
Mo2_8 O4_8 1_555 1_555
Mo2_8 O8_8 1_555 1_555
Mo3_8 O10_8 1_555 1_555
Mo4_8 O23_8 1_555 1_555
Mo5_8 O19_8 1_555 1_555
Mo6_8 O3_8 1_555 1_555
Mo6_8 O17_8 1_555 1_555
Mo6_8 O21_8 1_555 1_555
Mo7_8 O6_8 1_555 1_555
Mo7_8 O9_8 1_555 1_555
Mo8_8 O2_8 1_555 1_555
Mo8_8 O15_8 1_555 1_555
Mo8_8 O20_8 1_555 1_555
Mo9_8 O11_8 1_555 1_555
Mo9_8 O12_8 1_555 1_555
Mo9_8 O31_8 1_555 1_555
Mo10_8 O7_8 1_555 1_555
Mo10_8 O28_8 1_555 1_555
Mo10_8 O33_8 1_555 1_555
Mo11_8 O13_8 1_555 1_555
Mo11_8 O14_8 1_555 1_555
Mo11_8 O29_8 1_555 1_555
Mo12_8 O16_8 1_555 1_555
Mo12_8 O18_8 1_555 1_555
Mo12_8 O22_8 1_555 1_555
Mo12_8 O27_8 1_555 1_555
Zn9_3 O9_8 1_555 1_555
Zn9_3 O13_8 1_555 1_555
Zn11_6 O8_8 1_555 1_555
Zn11_6 O11_8 1_555 1_555
Zn3_8 O12_8 1_555 1_555
Zn3_8 O27_8 1_555 1_555
Zn4_8 O18_8 1_555 1_555
Zn4_8 O19_8 1_555 1_555
P1_8 O2_8 1_555 1_555
P1_8 O3_8 1_555 1_555
P1_8 O7_8 1_555 1_555

#END
