
###############################################################################
#
# This file contains modified crystal structure data generated from the
# MOF subset of the Cambridge Structural Database (CSD) v543 
# hosted by the Cambridge Crystallographic Data Centre (CCDC).
#
# This work is licensed under the Creative Commons
# Attribution-NonCommercial-ShareAlike 4.0 International License.
# To view a copy of this license, visit
# http://creativecommons.org/licenses/by-nc-sa/4.0/
# or send a letter to
# Creative Commons, PO Box 1866, Mountain View, CA 94042, USA.
#
# CIF created using the CSD Python API on 29 September 2022
# The structure has been converted into the P1 space group
# The structure has a 3D framework
# The original CSD entry WEKCAU is in the orthorhombic crystal system
# The framework has been calculated to contain at least 10.0% void space
# The void calculation uses a probe of radius 1.32A, grid spacing 0.4
#
###############################################################################

data_WEKCAU
_chemical_formula_moiety         '(C544 H384 N64 O160 S32 Zn31)n'
_symmetry_cell_setting           triclinic
_symmetry_space_group_name_H-M   'P 1'
_symmetry_Int_Tables_number      1
_space_group_name_Hall           'P 1'
loop_
_symmetry_equiv_pos_site_id
_symmetry_equiv_pos_as_xyz
1 x,y,z
_cell_length_a                   19.160(6)
_cell_length_b                   21.155(11)
_cell_length_c                   43.05(2)
_cell_angle_alpha                90
_cell_angle_beta                 90
_cell_angle_gamma                90
_cell_volume                     17449.4
loop_
_atom_site_label
_atom_site_type_symbol
_atom_site_fract_x
_atom_site_fract_y
_atom_site_fract_z
Zn1 Zn 0.625000 0.125000 0.32484(2)
Zn2 Zn 0.500000 0.500000 0.500000
N1 N 0.59674(13) 0.19511(11) 0.35504(5)
N2 N 0.52050(11) 0.43865(9) 0.46287(5)
C1 C 0.53157(15) 0.21716(14) 0.35775(6)
H1 H 0.496172 0.199845 0.344850
C2 C 0.51377(15) 0.26428(13) 0.37864(7)
H2 H 0.466694 0.278047 0.380166
C3 C 0.56451(15) 0.29136(13) 0.39730(6)
C4 C 0.63189(19) 0.26840(19) 0.39441(8)
H3 H 0.668321 0.285499 0.406796
C5 C 0.64603(19) 0.22056(19) 0.37347(8)
H4 H 0.692432 0.205013 0.372023
C6 C 0.47104(14) 0.39691(12) 0.45435(6)
H5 H 0.426106 0.400173 0.463538
C7 C 0.48263(14) 0.34944(12) 0.43282(6)
H6 H 0.446140 0.321207 0.427281
C8 C 0.54834(14) 0.34361(13) 0.41940(6)
C9 C 0.59912(14) 0.38773(14) 0.42761(6)
H7 H 0.644183 0.386043 0.418440
C10 C 0.58329(14) 0.43431(13) 0.44936(6)
H8 H 0.618309 0.464100 0.454811
O1 O 0.54193(10) 0.08663(9) 0.30675(4)
O2 O 0.53366(9) 0.17391(8) 0.27887(4)
C11 C 0.51128(13) 0.12071(12) 0.28660(6)
C12 C 0.44795(14) 0.09138(12) 0.27147(6)
C13 C 0.38104(14) 0.11914(12) 0.27046(6)
C14 C 0.32634(15) 0.08878(14) 0.25542(7)
H9 H 0.281226 0.107412 0.255313
C15 C 0.33725(16) 0.03109(15) 0.24047(7)
H10 H 0.299856 0.010674 0.230017
C16 C 0.40271(16) 0.00390(14) 0.24098(8)
C17 C 0.45769(16) 0.03315(13) 0.25682(7)
H12 H 0.502072 0.013199 0.257618
S1 S 0.36446(3) 0.19417(3) 0.28802(2)
O3 O 0.40004(11) 0.19501(10) 0.31783(4)
O4 O 0.28902(10) 0.19985(9) 0.29026(5)
O5 O 0.39305(9) 0.24082(8) 0.26585(4)
O6 O 0.54193(10) 0.66337(9) 0.44325(4)
O7 O 0.53366(9) 0.57609(8) 0.47113(4)
C18 C 0.51128(13) 0.62929(12) 0.46340(6)
C19 C 0.44795(14) 0.65862(12) 0.47853(6)
C20 C 0.38104(14) 0.63086(12) 0.47954(6)
C21 C 0.32634(15) 0.66122(14) 0.49458(7)
H13 H 0.281226 0.642588 0.494687
C22 C 0.33725(16) 0.71891(15) 0.50953(7)
H14 H 0.299856 0.739326 0.519983
C23 C 0.40271(16) 0.74610(14) 0.50902(8)
H15 H 0.410501 0.784977 0.519513
C24 C 0.45769(16) 0.71685(13) 0.49318(7)
H16 H 0.502072 0.736801 0.492382
S2 S 0.36446(3) 0.55583(3) 0.46198(2)
O8 O 0.40004(11) 0.55499(10) 0.43217(4)
O9 O 0.28902(10) 0.55015(9) 0.45974(5)
O10 O 0.39305(9) 0.50918(8) 0.48415(4)
N3 N 0.65326(13) 0.05489(11) 0.35504(5)
C25 C 0.71843(15) 0.03284(14) 0.35775(6)
H17 H 0.753828 0.050155 0.344850
C29 C 0.60397(19) 0.02944(19) 0.37347(8)
H20 H 0.557568 0.044987 0.372023
Zn3 Zn 0.625000 0.625000 0.42516(2)
Zn4 Zn 0.500000 0.250000 0.250000
N5 N 0.47950(11) 0.56135(9) 0.53713(5)
O11 O 0.70807(10) 0.16337(9) 0.30675(4)
O12 O 0.46634(9) 0.42391(8) 0.52887(4)
O13 O 0.60695(9) 0.49082(8) 0.51585(4)
H11 H 0.410501 0.965023 0.230487
N4 N 0.72950(11) 0.81135(9) 0.46287(5)
C26 C 0.73623(15) 0.98572(13) 0.37864(7)
H18 H 0.783306 0.971953 0.380166
C27 C 0.68549(15) 0.95864(13) 0.39730(6)
C28 C 0.61811(19) 0.98160(19) 0.39441(8)
H19 H 0.581679 0.964501 0.406796
C30 C 0.77896(14) 0.85309(12) 0.45435(6)
H21 H 0.823894 0.849827 0.463538
C31 C 0.76737(14) 0.90056(12) 0.43282(6)
H22 H 0.803860 0.928793 0.427281
C32 C 0.70166(14) 0.90639(13) 0.41940(6)
C33 C 0.65088(14) 0.86227(14) 0.42761(6)
H23 H 0.605817 0.863957 0.418440
C34 C 0.66671(14) 0.81569(13) 0.44936(6)
H24 H 0.631691 0.785900 0.454811
Zn5 Zn 0.750000 0.750000 0.500000
Zn5_2 Zn 0.000000 0.000000 0.500000
Zn1_2 Zn 0.125000 0.625000 0.32484(2)
Zn2_2 Zn 0.250000 0.250000 0.500000
N1_2 N 0.15326(13) 0.55489(11) 0.35504(5)
N2_2 N 0.22950(11) 0.31135(9) 0.46287(5)
C1_2 C 0.21843(15) 0.53284(14) 0.35775(6)
H1_2 H 0.253828 0.550155 0.344850
C2_2 C 0.23623(15) 0.48572(13) 0.37864(7)
H2_2 H 0.283306 0.471953 0.380166
C3_2 C 0.18549(15) 0.45864(13) 0.39730(6)
C4_2 C 0.11811(19) 0.48160(19) 0.39441(8)
H3_2 H 0.081679 0.464501 0.406796
C5_2 C 0.10397(19) 0.52944(19) 0.37347(8)
H4_2 H 0.057568 0.544987 0.372023
C6_2 C 0.27896(14) 0.35309(12) 0.45435(6)
H5_2 H 0.323894 0.349827 0.463538
C7_2 C 0.26737(14) 0.40056(12) 0.43282(6)
H6_2 H 0.303860 0.428793 0.427281
C8_2 C 0.20166(14) 0.40639(13) 0.41940(6)
C9_2 C 0.15088(14) 0.36227(14) 0.42761(6)
H7_2 H 0.105817 0.363957 0.418440
C10_2 C 0.16671(14) 0.31569(13) 0.44936(6)
H8_2 H 0.131691 0.285900 0.454811
O1_2 O 0.20807(10) 0.66337(9) 0.30675(4)
O2_2 O 0.21634(9) 0.57609(8) 0.27887(4)
C11_2 C 0.23872(13) 0.62929(12) 0.28660(6)
C12_2 C 0.30205(14) 0.65862(12) 0.27147(6)
C13_2 C 0.36896(14) 0.63086(12) 0.27046(6)
C14_2 C 0.42366(15) 0.66122(14) 0.25542(7)
H9_2 H 0.468774 0.642588 0.255313
C15_2 C 0.41275(16) 0.71891(15) 0.24047(7)
H10_2 H 0.450144 0.739326 0.230017
C16_2 C 0.34729(16) 0.74610(14) 0.24098(8)
H11_2 H 0.339499 0.784977 0.230487
C17_2 C 0.29231(16) 0.71685(13) 0.25682(7)
H12_2 H 0.247928 0.736801 0.257618
S1_2 S 0.38554(3) 0.55583(3) 0.28802(2)
O3_2 O 0.34996(11) 0.55499(10) 0.31783(4)
O4_2 O 0.46098(10) 0.55015(9) 0.29026(5)
O5_2 O 0.35695(9) 0.50918(8) 0.26585(4)
O6_2 O 0.20807(10) 0.08663(9) 0.44325(4)
O7_2 O 0.21634(9) 0.17391(8) 0.47113(4)
C18_2 C 0.23872(13) 0.12071(12) 0.46340(6)
C19_2 C 0.30205(14) 0.09138(12) 0.47853(6)
C20_2 C 0.36896(14) 0.11914(12) 0.47954(6)
C21_2 C 0.42366(15) 0.08878(14) 0.49458(7)
H13_2 H 0.468774 0.107412 0.494687
C22_2 C 0.41275(16) 0.03109(15) 0.50953(7)
H14_2 H 0.450144 0.010674 0.519983
C23_2 C 0.34729(16) 0.00390(14) 0.50902(8)
C24_2 C 0.29231(16) 0.03315(13) 0.49318(7)
H16_2 H 0.247928 0.013199 0.492382
S2_2 S 0.38554(3) 0.19417(3) 0.46198(2)
O8_2 O 0.34996(11) 0.19501(10) 0.43217(4)
O9_2 O 0.46098(10) 0.19985(9) 0.45974(5)
O10_2 O 0.35695(9) 0.24082(8) 0.48415(4)
N3_2 N 0.09674(13) 0.69511(11) 0.35504(5)
N4_2 N 0.02050(11) 0.93865(9) 0.46287(5)
C25_2 C 0.03157(15) 0.71716(14) 0.35775(6)
C26_2 C 0.01377(15) 0.76428(13) 0.37864(7)
C27_2 C 0.06451(15) 0.79136(13) 0.39730(6)
C28_2 C 0.13189(19) 0.76840(19) 0.39441(8)
H19_2 H 0.168321 0.785499 0.406796
C29_2 C 0.14603(19) 0.72056(19) 0.37347(8)
H20_2 H 0.192432 0.705013 0.372023
C32_2 C 0.04834(14) 0.84361(13) 0.41940(6)
C33_2 C 0.09912(14) 0.88773(14) 0.42761(6)
H23_2 H 0.144183 0.886043 0.418440
C34_2 C 0.08329(14) 0.93431(13) 0.44936(6)
H24_2 H 0.118309 0.964100 0.454811
Zn3_2 Zn 0.125000 0.125000 0.42516(2)
Zn4_2 Zn 0.250000 0.500000 0.250000
Zn5_3 Zn 0.000000 1.000000 0.500000
N5_2 N 0.27050(11) 0.18865(9) 0.53713(5)
O11_2 O 0.04193(10) 0.58663(9) 0.30675(4)
O12_2 O 0.28366(9) 0.32609(8) 0.52887(4)
O13_2 O 0.14305(9) 0.25918(8) 0.51585(4)
H15_2 H 0.339499 0.965023 0.519513
Zn5_4 Zn 1.000000 0.000000 0.500000
H17_2 H 0.996172 0.699845 0.344850
H18_2 H 0.966694 0.778047 0.380166
C30_2 C 0.97104(14) 0.89691(12) 0.45435(6)
H21_2 H 0.926106 0.900173 0.463538
C31_2 C 0.98263(14) 0.84944(12) 0.43282(6)
H22_2 H 0.946140 0.821207 0.427281
Zn5_5 Zn 1.000000 1.000000 0.500000
N1_3 N 0.15326(13) 0.19511(11) 0.39496(5)
N2_3 N 0.22950(11) 0.43865(9) 0.28713(5)
C1_3 C 0.21843(15) 0.21716(14) 0.39225(6)
H1_3 H 0.253828 0.199845 0.405150
C2_3 C 0.23623(15) 0.26428(13) 0.37136(7)
H2_3 H 0.283306 0.278047 0.369834
C3_3 C 0.18549(15) 0.29136(13) 0.35270(6)
C4_3 C 0.11811(19) 0.26840(19) 0.35559(8)
H3_3 H 0.081679 0.285499 0.343204
C5_3 C 0.10397(19) 0.22056(19) 0.37653(8)
H4_3 H 0.057568 0.205013 0.377977
C6_3 C 0.27896(14) 0.39691(12) 0.29565(6)
H5_3 H 0.323894 0.400173 0.286462
C7_3 C 0.26737(14) 0.34944(12) 0.31718(6)
H6_3 H 0.303860 0.321207 0.322719
C8_3 C 0.20166(14) 0.34361(13) 0.33060(6)
C9_3 C 0.15088(14) 0.38773(14) 0.32239(6)
H7_3 H 0.105817 0.386043 0.331560
C10_3 C 0.16671(14) 0.43431(13) 0.30064(6)
H8_3 H 0.131691 0.464100 0.295189
N3_3 N 0.09674(13) 0.05489(11) 0.39496(5)
C25_3 C 0.03157(15) 0.03284(14) 0.39225(6)
C29_3 C 0.14603(19) 0.02944(19) 0.37653(8)
H20_3 H 0.192432 0.044987 0.377977
N5_3 N 0.27050(11) 0.56135(9) 0.21287(5)
O11_3 O 0.04193(10) 0.16337(9) 0.44325(4)
O12_3 O 0.28366(9) 0.42391(8) 0.22113(4)
O13_3 O 0.14305(9) 0.49082(8) 0.23415(4)
N4_3 N 0.02050(11) 0.81135(9) 0.28713(5)
C26_3 C 0.01377(15) 0.98572(13) 0.37136(7)
C27_3 C 0.06451(15) 0.95864(13) 0.35270(6)
C28_3 C 0.13189(19) 0.98160(19) 0.35559(8)
H19_3 H 0.168321 0.964501 0.343204
C32_3 C 0.04834(14) 0.90639(13) 0.33060(6)
C33_3 C 0.09912(14) 0.86227(14) 0.32239(6)
H23_3 H 0.144183 0.863957 0.331560
C34_3 C 0.08329(14) 0.81569(13) 0.30064(6)
H24_3 H 0.118309 0.785900 0.295189
Zn5_6 Zn 0.000000 0.750000 0.250000
H17_3 H 0.996172 0.050155 0.405150
H18_3 H 0.966694 0.971953 0.369834
C30_3 C 0.97104(14) 0.85309(12) 0.29565(6)
H21_3 H 0.926106 0.849827 0.286462
C31_3 C 0.98263(14) 0.90056(12) 0.31718(6)
H22_3 H 0.946140 0.928793 0.322719
Zn5_7 Zn 1.000000 0.750000 0.250000
Zn5_8 Zn 0.750000 0.000000 0.250000
N1_4 N 0.59674(13) 0.55489(11) 0.39496(5)
N2_4 N 0.52050(11) 0.31135(9) 0.28713(5)
C1_4 C 0.53157(15) 0.53284(14) 0.39225(6)
H1_4 H 0.496172 0.550155 0.405150
C2_4 C 0.51377(15) 0.48572(13) 0.37136(7)
H2_4 H 0.466694 0.471953 0.369834
C3_4 C 0.56451(15) 0.45864(13) 0.35270(6)
C4_4 C 0.63189(19) 0.48160(19) 0.35559(8)
H3_4 H 0.668321 0.464501 0.343204
C5_4 C 0.64603(19) 0.52944(19) 0.37653(8)
H4_4 H 0.692432 0.544987 0.377977
C6_4 C 0.47104(14) 0.35309(12) 0.29565(6)
H5_4 H 0.426106 0.349827 0.286462
C7_4 C 0.48263(14) 0.40056(12) 0.31718(6)
H6_4 H 0.446140 0.428793 0.322719
C8_4 C 0.54834(14) 0.40639(13) 0.33060(6)
C9_4 C 0.59912(14) 0.36227(14) 0.32239(6)
H7_4 H 0.644183 0.363957 0.331560
C10_4 C 0.58329(14) 0.31569(13) 0.30064(6)
H8_4 H 0.618309 0.285900 0.295189
N3_4 N 0.65326(13) 0.69511(11) 0.39496(5)
N4_4 N 0.72950(11) 0.93865(9) 0.28713(5)
C25_4 C 0.71843(15) 0.71716(14) 0.39225(6)
H17_4 H 0.753828 0.699845 0.405150
C26_4 C 0.73623(15) 0.76428(13) 0.37136(7)
H18_4 H 0.783306 0.778047 0.369834
C27_4 C 0.68549(15) 0.79136(13) 0.35270(6)
C28_4 C 0.61811(19) 0.76840(19) 0.35559(8)
H19_4 H 0.581679 0.785499 0.343204
C29_4 C 0.60397(19) 0.72056(19) 0.37653(8)
H20_4 H 0.557568 0.705013 0.377977
C30_4 C 0.77896(14) 0.89691(12) 0.29565(6)
H21_4 H 0.823894 0.900173 0.286462
C31_4 C 0.76737(14) 0.84944(12) 0.31718(6)
H22_4 H 0.803860 0.821207 0.322719
C32_4 C 0.70166(14) 0.84361(13) 0.33060(6)
C33_4 C 0.65088(14) 0.88773(14) 0.32239(6)
H23_4 H 0.605817 0.886043 0.331560
C34_4 C 0.66671(14) 0.93431(13) 0.30064(6)
H24_4 H 0.631691 0.964100 0.295189
Zn5_9 Zn 0.750000 1.000000 0.250000
N5_4 N 0.47950(11) 0.18865(9) 0.21287(5)
O11_4 O 0.70807(10) 0.58663(9) 0.44325(4)
O12_4 O 0.46634(9) 0.32609(8) 0.22113(4)
O13_4 O 0.60695(9) 0.25918(8) 0.23415(4)
Zn2_3 Zn 0.500000 0.000000 0.000000
C22_3 C 0.33725(16) 0.21891(15) 0.00953(7)
H14_3 H 0.299856 0.239326 0.019983
C23_3 C 0.40271(16) 0.24610(14) 0.00902(8)
H15_3 H 0.410501 0.284977 0.019513
N5_5 N 0.47950(11) 0.06135(9) 0.03713(5)
Zn2_4 Zn 0.500000 0.000000 1.000000
O6_3 O 0.54193(10) 0.16337(9) 0.94325(4)
O7_3 O 0.53366(9) 0.07609(8) 0.97113(4)
C18_3 C 0.51128(13) 0.12929(12) 0.96340(6)
C19_3 C 0.44795(14) 0.15862(12) 0.97853(6)
C20_3 C 0.38104(14) 0.13086(12) 0.97954(6)
C21_3 C 0.32634(15) 0.16122(14) 0.99458(7)
H13_3 H 0.281226 0.142588 0.994687
C24_3 C 0.45769(16) 0.21685(13) 0.99318(7)
H16_3 H 0.502072 0.236801 0.992382
S2_3 S 0.36446(3) 0.05583(3) 0.96198(2)
O8_3 O 0.40004(11) 0.05499(10) 0.93217(4)
O9_3 O 0.28902(10) 0.05015(9) 0.95974(5)
O10_3 O 0.39305(9) 0.00918(8) 0.98415(4)
Zn3_3 Zn 0.625000 0.125000 0.92516(2)
Zn2_5 Zn 0.500000 1.000000 0.000000
Zn5_10 Zn 0.750000 0.250000 0.000000
O12_5 O 0.46634(9) 0.92391(8) 0.02887(4)
O13_5 O 0.60695(9) 0.99082(8) 0.01585(4)
Zn1_3 Zn 0.625000 0.625000 0.82484(2)
Zn2_6 Zn 0.500000 1.000000 1.000000
N1_5 N 0.59674(13) 0.69511(11) 0.85504(5)
N2_5 N 0.52050(11) 0.93865(9) 0.96287(5)
C1_5 C 0.53157(15) 0.71716(14) 0.85775(6)
H1_5 H 0.496172 0.699845 0.844850
C2_5 C 0.51377(15) 0.76428(13) 0.87864(7)
H2_5 H 0.466694 0.778047 0.880166
C3_5 C 0.56451(15) 0.79136(13) 0.89730(6)
C4_5 C 0.63189(19) 0.76840(19) 0.89441(8)
H3_5 H 0.668321 0.785499 0.906796
C5_5 C 0.64603(19) 0.72056(19) 0.87347(8)
H4_5 H 0.692432 0.705013 0.872023
C6_5 C 0.47104(14) 0.89691(12) 0.95435(6)
H5_5 H 0.426106 0.900173 0.963538
C7_5 C 0.48263(14) 0.84944(12) 0.93282(6)
H6_5 H 0.446140 0.821207 0.927281
C8_5 C 0.54834(14) 0.84361(13) 0.91940(6)
C9_5 C 0.59912(14) 0.88773(14) 0.92761(6)
H7_5 H 0.644183 0.886043 0.918440
C10_5 C 0.58329(14) 0.93431(13) 0.94936(6)
H8_5 H 0.618309 0.964100 0.954811
O1_3 O 0.54193(10) 0.58663(9) 0.80675(4)
O2_3 O 0.53366(9) 0.67391(8) 0.77887(4)
C11_3 C 0.51128(13) 0.62071(12) 0.78660(6)
C12_3 C 0.44795(14) 0.59138(12) 0.77147(6)
C13_3 C 0.38104(14) 0.61914(12) 0.77046(6)
C14_3 C 0.32634(15) 0.58878(14) 0.75542(7)
H9_3 H 0.281226 0.607412 0.755313
C15_3 C 0.33725(16) 0.53109(15) 0.74047(7)
H10_3 H 0.299856 0.510674 0.730017
C16_3 C 0.40271(16) 0.50390(14) 0.74098(8)
H11_3 H 0.410501 0.465023 0.730487
C17_3 C 0.45769(16) 0.53315(13) 0.75682(7)
H12_3 H 0.502072 0.513199 0.757618
S1_3 S 0.36446(3) 0.69417(3) 0.78802(2)
O3_3 O 0.40004(11) 0.69501(10) 0.81783(4)
O4_3 O 0.28902(10) 0.69985(9) 0.79026(5)
O5_3 O 0.39305(9) 0.74082(8) 0.76585(4)
N3_5 N 0.65326(13) 0.55489(11) 0.85504(5)
N4_5 N 0.72950(11) 0.31135(9) 0.96287(5)
C25_5 C 0.71843(15) 0.53284(14) 0.85775(6)
H17_5 H 0.753828 0.550155 0.844850
C26_5 C 0.73623(15) 0.48572(13) 0.87864(7)
H18_5 H 0.783306 0.471953 0.880166
C27_5 C 0.68549(15) 0.45864(13) 0.89730(6)
C28_5 C 0.61811(19) 0.48160(19) 0.89441(8)
H19_5 H 0.581679 0.464501 0.906796
C29_5 C 0.60397(19) 0.52944(19) 0.87347(8)
H20_5 H 0.557568 0.544987 0.872023
C30_5 C 0.77896(14) 0.35309(12) 0.95435(6)
H21_5 H 0.823894 0.349827 0.963538
C31_5 C 0.76737(14) 0.40056(12) 0.93282(6)
H22_5 H 0.803860 0.428793 0.927281
C32_5 C 0.70166(14) 0.40639(13) 0.91940(6)
C33_5 C 0.65088(14) 0.36227(14) 0.92761(6)
H23_5 H 0.605817 0.363957 0.918440
C34_5 C 0.66671(14) 0.31569(13) 0.94936(6)
H24_5 H 0.631691 0.285900 0.954811
Zn4_3 Zn 0.500000 0.750000 0.750000
Zn5_11 Zn 0.750000 0.250000 1.000000
O11_5 O 0.70807(10) 0.66337(9) 0.80675(4)
Zn5_12 Zn 0.000000 0.500000 0.000000
Zn1_4 Zn 0.125000 0.125000 0.82484(2)
N1_6 N 0.15326(13) 0.05489(11) 0.85504(5)
C1_6 C 0.21843(15) 0.03284(14) 0.85775(6)
H1_6 H 0.253828 0.050155 0.844850
C5_6 C 0.10397(19) 0.02944(19) 0.87347(8)
H4_6 H 0.057568 0.044987 0.872023
O1_4 O 0.20807(10) 0.16337(9) 0.80675(4)
O2_4 O 0.21634(9) 0.07609(8) 0.77887(4)
C11_4 C 0.23872(13) 0.12929(12) 0.78660(6)
C12_4 C 0.30205(14) 0.15862(12) 0.77147(6)
C13_4 C 0.36896(14) 0.13086(12) 0.77046(6)
C14_4 C 0.42366(15) 0.16122(14) 0.75542(7)
H9_4 H 0.468774 0.142588 0.755313
C15_4 C 0.41275(16) 0.21891(15) 0.74047(7)
H10_4 H 0.450144 0.239326 0.730017
C16_4 C 0.34729(16) 0.24610(14) 0.74098(8)
H11_4 H 0.339499 0.284977 0.730487
C17_4 C 0.29231(16) 0.21685(13) 0.75682(7)
H12_4 H 0.247928 0.236801 0.757618
S1_4 S 0.38554(3) 0.05583(3) 0.78802(2)
O3_4 O 0.34996(11) 0.05499(10) 0.81783(4)
O4_4 O 0.46098(10) 0.05015(9) 0.79026(5)
O5_4 O 0.35695(9) 0.00918(8) 0.76585(4)
N3_6 N 0.09674(13) 0.19511(11) 0.85504(5)
N4_6 N 0.02050(11) 0.43865(9) 0.96287(5)
C25_6 C 0.03157(15) 0.21716(14) 0.85775(6)
C26_6 C 0.01377(15) 0.26428(13) 0.87864(7)
C27_6 C 0.06451(15) 0.29136(13) 0.89730(6)
C28_6 C 0.13189(19) 0.26840(19) 0.89441(8)
H19_6 H 0.168321 0.285499 0.906796
C29_6 C 0.14603(19) 0.22056(19) 0.87347(8)
H20_6 H 0.192432 0.205013 0.872023
C32_6 C 0.04834(14) 0.34361(13) 0.91940(6)
C33_6 C 0.09912(14) 0.38773(14) 0.92761(6)
H23_6 H 0.144183 0.386043 0.918440
C34_6 C 0.08329(14) 0.43431(13) 0.94936(6)
H24_6 H 0.118309 0.464100 0.954811
Zn4_4 Zn 0.250000 0.000000 0.750000
Zn5_13 Zn 0.000000 0.500000 1.000000
O11_6 O 0.04193(10) 0.08663(9) 0.80675(4)
Zn2_7 Zn 0.250000 0.750000 0.000000
C22_4 C 0.41275(16) 0.53109(15) 0.00953(7)
H14_4 H 0.450144 0.510674 0.019983
C23_4 C 0.34729(16) 0.50390(14) 0.00902(8)
H15_4 H 0.339499 0.465023 0.019513
N5_6 N 0.27050(11) 0.68865(9) 0.03713(5)
O12_6 O 0.28366(9) 0.82609(8) 0.02887(4)
O13_6 O 0.14305(9) 0.75918(8) 0.01585(4)
Zn2_8 Zn 0.250000 0.750000 1.000000
N2_6 N 0.22950(11) 0.81135(9) 0.96287(5)
C2_6 C 0.23623(15) 0.98572(13) 0.87864(7)
H2_6 H 0.283306 0.971953 0.880166
C3_6 C 0.18549(15) 0.95864(13) 0.89730(6)
C4_6 C 0.11811(19) 0.98160(19) 0.89441(8)
H3_6 H 0.081679 0.964501 0.906796
C6_6 C 0.27896(14) 0.85309(12) 0.95435(6)
H5_6 H 0.323894 0.849827 0.963538
C7_6 C 0.26737(14) 0.90056(12) 0.93282(6)
H6_6 H 0.303860 0.928793 0.927281
C8_6 C 0.20166(14) 0.90639(13) 0.91940(6)
C9_6 C 0.15088(14) 0.86227(14) 0.92761(6)
H7_6 H 0.105817 0.863957 0.918440
C10_6 C 0.16671(14) 0.81569(13) 0.94936(6)
H8_6 H 0.131691 0.785900 0.954811
O6_4 O 0.20807(10) 0.58663(9) 0.94325(4)
O7_4 O 0.21634(9) 0.67391(8) 0.97113(4)
C18_4 C 0.23872(13) 0.62071(12) 0.96340(6)
C19_4 C 0.30205(14) 0.59138(12) 0.97853(6)
C20_4 C 0.36896(14) 0.61914(12) 0.97954(6)
C21_4 C 0.42366(15) 0.58878(14) 0.99458(7)
H13_4 H 0.468774 0.607412 0.994687
C24_4 C 0.29231(16) 0.53315(13) 0.99318(7)
H16_4 H 0.247928 0.513199 0.992382
S2_4 S 0.38554(3) 0.69417(3) 0.96198(2)
O8_4 O 0.34996(11) 0.69501(10) 0.93217(4)
O9_4 O 0.46098(10) 0.69985(9) 0.95974(5)
O10_4 O 0.35695(9) 0.74082(8) 0.98415(4)
Zn3_4 Zn 0.125000 0.625000 0.92516(2)
Zn4_5 Zn 0.250000 1.000000 0.750000
Zn5_14 Zn 1.000000 0.500000 0.000000
H17_6 H 0.996172 0.199845 0.844850
H18_6 H 0.966694 0.278047 0.880166
C30_6 C 0.97104(14) 0.39691(12) 0.95435(6)
H21_6 H 0.926106 0.400173 0.963538
C31_6 C 0.98263(14) 0.34944(12) 0.93282(6)
H22_6 H 0.946140 0.321207 0.927281
Zn5_15 Zn 1.000000 0.500000 1.000000
N5_7 N 0.27050(11) 0.06135(9) 0.71287(5)
N1_7 N 0.15326(13) 0.69511(11) 0.89496(5)
N2_7 N 0.22950(11) 0.93865(9) 0.78713(5)
C1_7 C 0.21843(15) 0.71716(14) 0.89225(6)
H1_7 H 0.253828 0.699845 0.905150
C2_7 C 0.23623(15) 0.76428(13) 0.87136(7)
H2_7 H 0.283306 0.778047 0.869834
C3_7 C 0.18549(15) 0.79136(13) 0.85270(6)
C4_7 C 0.11811(19) 0.76840(19) 0.85559(8)
H3_7 H 0.081679 0.785499 0.843204
C5_7 C 0.10397(19) 0.72056(19) 0.87653(8)
H4_7 H 0.057568 0.705013 0.877977
C6_7 C 0.27896(14) 0.89691(12) 0.79565(6)
H5_7 H 0.323894 0.900173 0.786462
C7_7 C 0.26737(14) 0.84944(12) 0.81718(6)
H6_7 H 0.303860 0.821207 0.822719
C8_7 C 0.20166(14) 0.84361(13) 0.83060(6)
C9_7 C 0.15088(14) 0.88773(14) 0.82239(6)
H7_7 H 0.105817 0.886043 0.831560
C10_7 C 0.16671(14) 0.93431(13) 0.80064(6)
H8_7 H 0.131691 0.964100 0.795189
N3_7 N 0.09674(13) 0.55489(11) 0.89496(5)
N4_7 N 0.02050(11) 0.31135(9) 0.78713(5)
C25_7 C 0.03157(15) 0.53284(14) 0.89225(6)
C26_7 C 0.01377(15) 0.48572(13) 0.87136(7)
C27_7 C 0.06451(15) 0.45864(13) 0.85270(6)
C28_7 C 0.13189(19) 0.48160(19) 0.85559(8)
H19_7 H 0.168321 0.464501 0.843204
C29_7 C 0.14603(19) 0.52944(19) 0.87653(8)
H20_7 H 0.192432 0.544987 0.877977
C32_7 C 0.04834(14) 0.40639(13) 0.83060(6)
C33_7 C 0.09912(14) 0.36227(14) 0.82239(6)
H23_7 H 0.144183 0.363957 0.831560
C34_7 C 0.08329(14) 0.31569(13) 0.80064(6)
H24_7 H 0.118309 0.285900 0.795189
Zn5_16 Zn -0.000000 0.250000 0.750000
O11_7 O 0.04193(10) 0.66337(9) 0.94325(4)
O12_7 O 0.28366(9) 0.92391(8) 0.72113(4)
O13_7 O 0.14305(9) 0.99082(8) 0.73415(4)
H17_7 H 0.996172 0.550155 0.905150
H18_7 H 0.966694 0.471953 0.869834
C30_7 C 0.97104(14) 0.35309(12) 0.79565(6)
H21_7 H 0.926106 0.349827 0.786462
C31_7 C 0.98263(14) 0.40056(12) 0.81718(6)
H22_7 H 0.946140 0.428793 0.822719
Zn5_17 Zn 1.000000 0.250000 0.750000
N1_8 N 0.59674(13) 0.05489(11) 0.89496(5)
C1_8 C 0.53157(15) 0.03284(14) 0.89225(6)
H1_8 H 0.496172 0.050155 0.905150
C5_8 C 0.64603(19) 0.02944(19) 0.87653(8)
H4_8 H 0.692432 0.044987 0.877977
N3_8 N 0.65326(13) 0.19511(11) 0.89496(5)
N4_8 N 0.72950(11) 0.43865(9) 0.78713(5)
C25_8 C 0.71843(15) 0.21716(14) 0.89225(6)
H17_8 H 0.753828 0.199845 0.905150
C26_8 C 0.73623(15) 0.26428(13) 0.87136(7)
H18_8 H 0.783306 0.278047 0.869834
C27_8 C 0.68549(15) 0.29136(13) 0.85270(6)
C28_8 C 0.61811(19) 0.26840(19) 0.85559(8)
H19_8 H 0.581679 0.285499 0.843204
C29_8 C 0.60397(19) 0.22056(19) 0.87653(8)
H20_8 H 0.557568 0.205013 0.877977
C30_8 C 0.77896(14) 0.39691(12) 0.79565(6)
H21_8 H 0.823894 0.400173 0.786462
C31_8 C 0.76737(14) 0.34944(12) 0.81718(6)
H22_8 H 0.803860 0.321207 0.822719
C32_8 C 0.70166(14) 0.34361(13) 0.83060(6)
C33_8 C 0.65088(14) 0.38773(14) 0.82239(6)
H23_8 H 0.605817 0.386043 0.831560
C34_8 C 0.66671(14) 0.43431(13) 0.80064(6)
H24_8 H 0.631691 0.464100 0.795189
Zn5_18 Zn 0.750000 0.500000 0.750000
O11_8 O 0.70807(10) 0.08663(9) 0.94325(4)
N2_8 N 0.52050(11) 0.81135(9) 0.78713(5)
C2_8 C 0.51377(15) 0.98572(13) 0.87136(7)
H2_8 H 0.466694 0.971953 0.869834
C3_8 C 0.56451(15) 0.95864(13) 0.85270(6)
C4_8 C 0.63189(19) 0.98160(19) 0.85559(8)
H3_8 H 0.668321 0.964501 0.843204
C6_8 C 0.47104(14) 0.85309(12) 0.79565(6)
H5_8 H 0.426106 0.849827 0.786462
C7_8 C 0.48263(14) 0.90056(12) 0.81718(6)
H6_8 H 0.446140 0.928793 0.822719
C8_8 C 0.54834(14) 0.90639(13) 0.83060(6)
C9_8 C 0.59912(14) 0.86227(14) 0.82239(6)
H7_8 H 0.644183 0.863957 0.831560
C10_8 C 0.58329(14) 0.81569(13) 0.80064(6)
H8_8 H 0.618309 0.785900 0.795189
N5_8 N 0.47950(11) 0.68865(9) 0.71287(5)
O12_8 O 0.46634(9) 0.82609(8) 0.72113(4)
O13_8 O 0.60695(9) 0.75918(8) 0.73415(4)
O13_9 O 0.10695(9) 0.49082(8) 0.01585(4)
O2_5 O 0.03366(9) 0.17391(8) 0.77887(4)
C11_5 C 0.01128(13) 0.12071(12) 0.78660(6)
H12_5 H 0.002072 0.013199 0.757618
O7_5 O 0.03366(9) 0.57609(8) 0.97113(4)
C18_5 C 0.01128(13) 0.62929(12) 0.96340(6)
H16_5 H 0.002072 0.736801 0.992382
C22_5 C 0.83725(16) 0.71891(15) 0.00953(7)
H14_5 H 0.799856 0.739326 0.019983
C23_5 C 0.90271(16) 0.74610(14) 0.00902(8)
H15_5 H 0.910501 0.784977 0.019513
N5_9 N 0.97950(11) 0.56135(9) 0.03713(5)
O12_9 O 0.96634(9) 0.42391(8) 0.02887(4)
C12_5 C 0.94795(14) 0.09138(12) 0.77147(6)
C13_5 C 0.88104(14) 0.11914(12) 0.77046(6)
C14_5 C 0.82634(15) 0.08878(14) 0.75542(7)
H9_5 H 0.781226 0.107412 0.755313
C15_5 C 0.83725(16) 0.03109(15) 0.74047(7)
H10_5 H 0.799856 0.010674 0.730017
C16_5 C 0.90271(16) 0.00390(14) 0.74098(8)
C17_5 C 0.95769(16) 0.03315(13) 0.75682(7)
S1_5 S 0.86446(3) 0.19417(3) 0.78802(2)
O3_5 O 0.90004(11) 0.19501(10) 0.81783(4)
O4_5 O 0.78902(10) 0.19985(9) 0.79026(5)
O5_5 O 0.89305(9) 0.24082(8) 0.76585(4)
C19_5 C 0.94795(14) 0.65862(12) 0.97853(6)
C20_5 C 0.88104(14) 0.63086(12) 0.97954(6)
C21_5 C 0.82634(15) 0.66122(14) 0.99458(7)
H13_5 H 0.781226 0.642588 0.994687
C24_5 C 0.95769(16) 0.71685(13) 0.99318(7)
S2_5 S 0.86446(3) 0.55583(3) 0.96198(2)
O8_5 O 0.90004(11) 0.55499(10) 0.93217(4)
O9_5 O 0.78902(10) 0.55015(9) 0.95974(5)
O10_5 O 0.89305(9) 0.50918(8) 0.98415(4)
C22_6 C 0.91275(16) 0.03109(15) 0.00953(7)
H14_6 H 0.950144 0.010674 0.019983
C23_6 C 0.84729(16) 0.00390(14) 0.00902(8)
N5_10 N 0.77050(11) 0.18865(9) 0.03713(5)
O12_10 O 0.78366(9) 0.32609(8) 0.02887(4)
O13_10 O 0.64305(9) 0.25918(8) 0.01585(4)
O2_6 O 0.71634(9) 0.57609(8) 0.77887(4)
C11_6 C 0.73872(13) 0.62929(12) 0.78660(6)
C12_6 C 0.80205(14) 0.65862(12) 0.77147(6)
C13_6 C 0.86896(14) 0.63086(12) 0.77046(6)
C14_6 C 0.92366(15) 0.66122(14) 0.75542(7)
H9_6 H 0.968774 0.642588 0.755313
C15_6 C 0.91275(16) 0.71891(15) 0.74047(7)
H10_6 H 0.950144 0.739326 0.730017
C16_6 C 0.84729(16) 0.74610(14) 0.74098(8)
H11_5 H 0.839499 0.784977 0.730487
C17_6 C 0.79231(16) 0.71685(13) 0.75682(7)
H12_6 H 0.747928 0.736801 0.757618
S1_6 S 0.88554(3) 0.55583(3) 0.78802(2)
O3_6 O 0.84996(11) 0.55499(10) 0.81783(4)
O4_6 O 0.96098(10) 0.55015(9) 0.79026(5)
O5_6 O 0.85695(9) 0.50918(8) 0.76585(4)
O7_6 O 0.71634(9) 0.17391(8) 0.97113(4)
C18_6 C 0.73872(13) 0.12071(12) 0.96340(6)
C19_6 C 0.80205(14) 0.09138(12) 0.97853(6)
C20_6 C 0.86896(14) 0.11914(12) 0.97954(6)
C21_6 C 0.92366(15) 0.08878(14) 0.99458(7)
H13_6 H 0.968774 0.107412 0.994687
C24_6 C 0.79231(16) 0.03315(13) 0.99318(7)
H16_6 H 0.747928 0.013199 0.992382
S2_6 S 0.88554(3) 0.19417(3) 0.96198(2)
O8_6 O 0.84996(11) 0.19501(10) 0.93217(4)
O9_6 O 0.96098(10) 0.19985(9) 0.95974(5)
O10_6 O 0.85695(9) 0.24082(8) 0.98415(4)
N5_11 N 0.77050(11) 0.56135(9) 0.71287(5)
O12_11 O 0.78366(9) 0.42391(8) 0.72113(4)
O13_11 O 0.64305(9) 0.49082(8) 0.73415(4)
O13_12 O 0.10695(9) 0.25918(8) 0.73415(4)
N5_12 N 0.97950(11) 0.18865(9) 0.71287(5)
O12_12 O 0.96634(9) 0.32609(8) 0.72113(4)
O7_7 O 0.03366(9) 0.07609(8) 0.47113(4)
C18_7 C 0.01128(13) 0.12929(12) 0.46340(6)
H16_7 H 0.002072 0.236801 0.492382
O2_7 O 0.03366(9) 0.67391(8) 0.27887(4)
C11_7 C 0.01128(13) 0.62071(12) 0.28660(6)
H12_7 H 0.002072 0.513199 0.257618
O13_13 O 0.10695(9) 0.99082(8) 0.51585(4)
C19_7 C 0.94795(14) 0.15862(12) 0.47853(6)
C20_7 C 0.88104(14) 0.13086(12) 0.47954(6)
C21_7 C 0.82634(15) 0.16122(14) 0.49458(7)
H13_7 H 0.781226 0.142588 0.494687
C22_7 C 0.83725(16) 0.21891(15) 0.50953(7)
H14_7 H 0.799856 0.239326 0.519983
C23_7 C 0.90271(16) 0.24610(14) 0.50902(8)
H15_6 H 0.910501 0.284977 0.519513
C24_7 C 0.95769(16) 0.21685(13) 0.49318(7)
S2_7 S 0.86446(3) 0.05583(3) 0.46198(2)
O8_7 O 0.90004(11) 0.05499(10) 0.43217(4)
O9_7 O 0.78902(10) 0.05015(9) 0.45974(5)
O10_7 O 0.89305(9) 0.00918(8) 0.48415(4)
N5_13 N 0.97950(11) 0.06135(9) 0.53713(5)
C12_7 C 0.94795(14) 0.59138(12) 0.27147(6)
C13_7 C 0.88104(14) 0.61914(12) 0.27046(6)
C14_7 C 0.82634(15) 0.58878(14) 0.25542(7)
H9_7 H 0.781226 0.607412 0.255313
C15_7 C 0.83725(16) 0.53109(15) 0.24047(7)
H10_7 H 0.799856 0.510674 0.230017
C16_7 C 0.90271(16) 0.50390(14) 0.24098(8)
H11_6 H 0.910501 0.465023 0.230487
C17_7 C 0.95769(16) 0.53315(13) 0.25682(7)
S1_7 S 0.86446(3) 0.69417(3) 0.28802(2)
O3_7 O 0.90004(11) 0.69501(10) 0.31783(4)
O4_7 O 0.78902(10) 0.69985(9) 0.29026(5)
O5_7 O 0.89305(9) 0.74082(8) 0.26585(4)
O12_13 O 0.96634(9) 0.92391(8) 0.52887(4)
O2_8 O 0.71634(9) 0.07609(8) 0.27887(4)
C11_8 C 0.73872(13) 0.12929(12) 0.28660(6)
C12_8 C 0.80205(14) 0.15862(12) 0.27147(6)
C13_8 C 0.86896(14) 0.13086(12) 0.27046(6)
C14_8 C 0.92366(15) 0.16122(14) 0.25542(7)
H9_8 H 0.968774 0.142588 0.255313
C15_8 C 0.91275(16) 0.21891(15) 0.24047(7)
H10_8 H 0.950144 0.239326 0.230017
C16_8 C 0.84729(16) 0.24610(14) 0.24098(8)
H11_7 H 0.839499 0.284977 0.230487
C17_8 C 0.79231(16) 0.21685(13) 0.25682(7)
H12_8 H 0.747928 0.236801 0.257618
S1_8 S 0.88554(3) 0.05583(3) 0.28802(2)
O3_8 O 0.84996(11) 0.05499(10) 0.31783(4)
O4_8 O 0.96098(10) 0.05015(9) 0.29026(5)
O5_8 O 0.85695(9) 0.00918(8) 0.26585(4)
O7_8 O 0.71634(9) 0.67391(8) 0.47113(4)
C18_8 C 0.73872(13) 0.62071(12) 0.46340(6)
C19_8 C 0.80205(14) 0.59138(12) 0.47853(6)
C20_8 C 0.86896(14) 0.61914(12) 0.47954(6)
C21_8 C 0.92366(15) 0.58878(14) 0.49458(7)
H13_8 H 0.968774 0.607412 0.494687
C22_8 C 0.91275(16) 0.53109(15) 0.50953(7)
H14_8 H 0.950144 0.510674 0.519983
C23_8 C 0.84729(16) 0.50390(14) 0.50902(8)
H15_7 H 0.839499 0.465023 0.519513
C24_8 C 0.79231(16) 0.53315(13) 0.49318(7)
H16_8 H 0.747928 0.513199 0.492382
S2_8 S 0.88554(3) 0.69417(3) 0.46198(2)
O8_8 O 0.84996(11) 0.69501(10) 0.43217(4)
O9_8 O 0.96098(10) 0.69985(9) 0.45974(5)
O10_8 O 0.85695(9) 0.74082(8) 0.48415(4)
N5_14 N 0.77050(11) 0.68865(9) 0.53713(5)
O12_14 O 0.78366(9) 0.82609(8) 0.52887(4)
O13_14 O 0.64305(9) 0.75918(8) 0.51585(4)
N5_15 N 0.77050(11) 0.06135(9) 0.21287(5)
O12_15 O 0.78366(9) 0.92391(8) 0.22113(4)
O13_15 O 0.64305(9) 0.99082(8) 0.23415(4)
O13_16 O 0.10695(9) 0.75918(8) 0.23415(4)
N5_16 N 0.97950(11) 0.68865(9) 0.21287(5)
O12_16 O 0.96634(9) 0.82609(8) 0.22113(4)
H11_8 H 0.589499 0.034977 0.769513
C26_9 C 0.26377(15) 0.01428(13) 0.62136(7)
H18_9 H 0.216694 0.028047 0.619834
C27_9 C 0.31451(15) 0.04136(13) 0.60270(6)
C28_9 C 0.38189(19) 0.01840(19) 0.60559(8)
H19_9 H 0.418321 0.035499 0.593204
C30_9 C 0.22104(14) 0.14691(12) 0.54565(6)
H21_9 H 0.176106 0.150173 0.536462
C31_9 C 0.23263(14) 0.09944(12) 0.56718(6)
H22_9 H 0.196140 0.071207 0.572719
C32_9 C 0.29834(14) 0.09361(13) 0.58060(6)
C33_9 C 0.34912(14) 0.13773(14) 0.57239(6)
H23_9 H 0.394183 0.136043 0.581560
C34_9 C 0.33329(14) 0.18431(13) 0.55064(6)
H24_9 H 0.368309 0.214100 0.545189
Zn1_5 Zn 0.375000 0.875000 0.67516(2)
N1_9 N 0.40326(13) 0.80489(11) 0.64496(5)
C1_9 C 0.46843(15) 0.78284(14) 0.64225(6)
H1_9 H 0.503828 0.800155 0.655150
C2_9 C 0.48623(15) 0.73572(13) 0.62136(7)
H2_9 H 0.533306 0.721953 0.619834
C3_9 C 0.43549(15) 0.70864(13) 0.60270(6)
C4_9 C 0.36811(19) 0.73160(19) 0.60559(8)
H3_9 H 0.331679 0.714501 0.593204
C5_9 C 0.35397(19) 0.77944(19) 0.62653(8)
H4_9 H 0.307568 0.794987 0.627977
C6_9 C 0.52896(14) 0.60309(12) 0.54565(6)
H5_9 H 0.573894 0.599827 0.536462
C7_9 C 0.51737(14) 0.65056(12) 0.56718(6)
H6_9 H 0.553860 0.678793 0.572719
C8_9 C 0.45166(14) 0.65639(13) 0.58060(6)
C9_9 C 0.40088(14) 0.61227(14) 0.57239(6)
H7_9 H 0.355817 0.613957 0.581560
C10_9 C 0.41671(14) 0.56569(13) 0.55064(6)
H8_9 H 0.381691 0.535900 0.545189
O1_5 O 0.45807(10) 0.91337(9) 0.69325(4)
C11_9 C 0.48872(13) 0.87929(12) 0.71340(6)
C12_9 C 0.55205(14) 0.90862(12) 0.72853(6)
C13_9 C 0.61896(14) 0.88086(12) 0.72954(6)
C14_9 C 0.67366(15) 0.91122(14) 0.74458(7)
H9_9 H 0.718774 0.892588 0.744687
C15_9 C 0.66275(16) 0.96891(15) 0.75953(7)
H10_9 H 0.700144 0.989326 0.769983
C16_9 C 0.59729(16) 0.99610(14) 0.75902(8)
C17_9 C 0.54231(16) 0.96685(13) 0.74318(7)
H12_9 H 0.497928 0.986801 0.742382
S1_9 S 0.63554(3) 0.80583(3) 0.71198(2)
O3_9 O 0.59996(11) 0.80499(10) 0.68217(4)
O4_9 O 0.71098(10) 0.80015(9) 0.70974(5)
O6_5 O 0.45807(10) 0.33663(9) 0.55675(4)
C18_9 C 0.48872(13) 0.37071(12) 0.53660(6)
C19_9 C 0.55205(14) 0.34138(12) 0.52147(6)
C20_9 C 0.61896(14) 0.36914(12) 0.52046(6)
C21_9 C 0.67366(15) 0.33878(14) 0.50542(7)
H13_9 H 0.718774 0.357412 0.505313
C22_9 C 0.66275(16) 0.28109(15) 0.49047(7)
H14_9 H 0.700144 0.260674 0.480017
C23_9 C 0.59729(16) 0.25390(14) 0.49098(8)
H15_8 H 0.589499 0.215023 0.480487
C24_9 C 0.54231(16) 0.28315(13) 0.50682(7)
H16_9 H 0.497928 0.263199 0.507618
S2_9 S 0.63554(3) 0.44417(3) 0.53802(2)
O8_9 O 0.59996(11) 0.44501(10) 0.56783(4)
O9_9 O 0.71098(10) 0.44985(9) 0.54026(5)
N3_9 N 0.34674(13) 0.94511(11) 0.64496(5)
C25_9 C 0.28157(15) 0.96716(14) 0.64225(6)
H17_9 H 0.246172 0.949845 0.655150
C29_9 C 0.39603(19) 0.97056(19) 0.62653(8)
H20_9 H 0.442432 0.955013 0.627977
Zn3_5 Zn 0.375000 0.375000 0.57484(2)
O11_9 O 0.29193(10) 0.83663(9) 0.69325(4)
H17_10 H 0.003828 0.300155 0.655150
H18_10 H 0.033306 0.221953 0.619834
C30_10 C 0.02896(14) 0.10309(12) 0.54565(6)
H21_10 H 0.073894 0.099827 0.536462
C31_10 C 0.01737(14) 0.15056(12) 0.56718(6)
H22_10 H 0.053860 0.178793 0.572719
H15_9 H 0.660501 0.034977 0.480487
Zn1_6 Zn 0.875000 0.375000 0.67516(2)
N1_10 N 0.84674(13) 0.44511(11) 0.64496(5)
C1_10 C 0.78157(15) 0.46716(14) 0.64225(6)
H1_10 H 0.746172 0.449845 0.655150
C2_10 C 0.76377(15) 0.51428(13) 0.62136(7)
H2_10 H 0.716694 0.528047 0.619834
C3_10 C 0.81451(15) 0.54136(13) 0.60270(6)
C4_10 C 0.88189(19) 0.51840(19) 0.60559(8)
H3_10 H 0.918321 0.535499 0.593204
C5_10 C 0.89603(19) 0.47056(19) 0.62653(8)
H4_10 H 0.942432 0.455013 0.627977
C6_10 C 0.72104(14) 0.64691(12) 0.54565(6)
H5_10 H 0.676106 0.650173 0.536462
C7_10 C 0.73263(14) 0.59944(12) 0.56718(6)
H6_10 H 0.696140 0.571207 0.572719
C8_10 C 0.79834(14) 0.59361(13) 0.58060(6)
C9_10 C 0.84912(14) 0.63773(14) 0.57239(6)
H7_10 H 0.894183 0.636043 0.581560
C10_10 C 0.83329(14) 0.68431(13) 0.55064(6)
H8_10 H 0.868309 0.714100 0.545189
O1_6 O 0.79193(10) 0.33663(9) 0.69325(4)
C11_10 C 0.76128(13) 0.37071(12) 0.71340(6)
C12_10 C 0.69795(14) 0.34138(12) 0.72853(6)
C13_10 C 0.63104(14) 0.36914(12) 0.72954(6)
C14_10 C 0.57634(15) 0.33878(14) 0.74458(7)
H9_10 H 0.531226 0.357412 0.744687
C15_10 C 0.58725(16) 0.28109(15) 0.75953(7)
H10_10 H 0.549856 0.260674 0.769983
C16_10 C 0.65271(16) 0.25390(14) 0.75902(8)
H11_9 H 0.660501 0.215023 0.769513
C17_10 C 0.70769(16) 0.28315(13) 0.74318(7)
H12_10 H 0.752072 0.263199 0.742382
S1_10 S 0.61446(3) 0.44417(3) 0.71198(2)
O3_10 O 0.65004(11) 0.44501(10) 0.68217(4)
O4_10 O 0.53902(10) 0.44985(9) 0.70974(5)
O6_6 O 0.79193(10) 0.91337(9) 0.55675(4)
C18_10 C 0.76128(13) 0.87929(12) 0.53660(6)
C19_10 C 0.69795(14) 0.90862(12) 0.52147(6)
C20_10 C 0.63104(14) 0.88086(12) 0.52046(6)
C21_10 C 0.57634(15) 0.91122(14) 0.50542(7)
H13_10 H 0.531226 0.892588 0.505313
C22_10 C 0.58725(16) 0.96891(15) 0.49047(7)
H14_10 H 0.549856 0.989326 0.480017
C23_10 C 0.65271(16) 0.99610(14) 0.49098(8)
C24_10 C 0.70769(16) 0.96685(13) 0.50682(7)
H16_10 H 0.752072 0.986801 0.507618
S2_10 S 0.61446(3) 0.80583(3) 0.53802(2)
O8_10 O 0.65004(11) 0.80499(10) 0.56783(4)
O9_10 O 0.53902(10) 0.80015(9) 0.54026(5)
N3_10 N 0.90326(13) 0.30489(11) 0.64496(5)
C25_10 C 0.96843(15) 0.28284(14) 0.64225(6)
C26_10 C 0.98623(15) 0.23572(13) 0.62136(7)
C27_10 C 0.93549(15) 0.20864(13) 0.60270(6)
C28_10 C 0.86811(19) 0.23160(19) 0.60559(8)
H19_10 H 0.831679 0.214501 0.593204
C29_10 C 0.85397(19) 0.27944(19) 0.62653(8)
H20_10 H 0.807568 0.294987 0.627977
C32_10 C 0.95166(14) 0.15639(13) 0.58060(6)
C33_10 C 0.90088(14) 0.11227(14) 0.57239(6)
H23_10 H 0.855817 0.113957 0.581560
C34_10 C 0.91671(14) 0.06569(13) 0.55064(6)
H24_10 H 0.881691 0.035900 0.545189
Zn3_6 Zn 0.875000 0.875000 0.57484(2)
O11_10 O 0.95807(10) 0.41337(9) 0.69325(4)
H18_11 H 0.033306 0.028047 0.630166
C30_11 C 0.02896(14) 0.14691(12) 0.70435(6)
H21_11 H 0.073894 0.150173 0.713538
C31_11 C 0.01737(14) 0.09944(12) 0.68282(6)
H22_11 H 0.053860 0.071207 0.677281
H17_11 H 0.003828 0.949845 0.594850
C26_11 C 0.98623(15) 0.01428(13) 0.62864(7)
C27_11 C 0.93549(15) 0.04136(13) 0.64730(6)
C28_11 C 0.86811(19) 0.01840(19) 0.64441(8)
H19_11 H 0.831679 0.035499 0.656796
C32_11 C 0.95166(14) 0.09361(13) 0.66940(6)
C33_11 C 0.90088(14) 0.13773(14) 0.67761(6)
H23_11 H 0.855817 0.136043 0.668440
C34_11 C 0.91671(14) 0.18431(13) 0.69936(6)
H24_11 H 0.881691 0.214100 0.704811
N1_11 N 0.84674(13) 0.80489(11) 0.60504(5)
C1_11 C 0.78157(15) 0.78284(14) 0.60775(6)
H1_11 H 0.746172 0.800155 0.594850
C2_11 C 0.76377(15) 0.73572(13) 0.62864(7)
H2_11 H 0.716694 0.721953 0.630166
C3_11 C 0.81451(15) 0.70864(13) 0.64730(6)
C4_11 C 0.88189(19) 0.73160(19) 0.64441(8)
H3_11 H 0.918321 0.714501 0.656796
C5_11 C 0.89603(19) 0.77944(19) 0.62347(8)
H4_11 H 0.942432 0.794987 0.622023
C6_11 C 0.72104(14) 0.60309(12) 0.70435(6)
H5_11 H 0.676106 0.599827 0.713538
C7_11 C 0.73263(14) 0.65056(12) 0.68282(6)
H6_11 H 0.696140 0.678793 0.677281
C8_11 C 0.79834(14) 0.65639(13) 0.66940(6)
C9_11 C 0.84912(14) 0.61227(14) 0.67761(6)
H7_11 H 0.894183 0.613957 0.668440
C10_11 C 0.83329(14) 0.56569(13) 0.69936(6)
H8_11 H 0.868309 0.535900 0.704811
N3_11 N 0.90326(13) 0.94511(11) 0.60504(5)
C25_11 C 0.96843(15) 0.96716(14) 0.60775(6)
C29_11 C 0.85397(19) 0.97056(19) 0.62347(8)
H20_11 H 0.807568 0.955013 0.622023
O11_11 O 0.95807(10) 0.83663(9) 0.55675(4)
N1_12 N 0.40326(13) 0.44511(11) 0.60504(5)
C1_12 C 0.46843(15) 0.46716(14) 0.60775(6)
H1_12 H 0.503828 0.449845 0.594850
C2_12 C 0.48623(15) 0.51428(13) 0.62864(7)
H2_12 H 0.533306 0.528047 0.630166
C3_12 C 0.43549(15) 0.54136(13) 0.64730(6)
C4_12 C 0.36811(19) 0.51840(19) 0.64441(8)
H3_12 H 0.331679 0.535499 0.656796
C5_12 C 0.35397(19) 0.47056(19) 0.62347(8)
H4_12 H 0.307568 0.455013 0.622023
C6_12 C 0.52896(14) 0.64691(12) 0.70435(6)
H5_12 H 0.573894 0.650173 0.713538
C7_12 C 0.51737(14) 0.59944(12) 0.68282(6)
H6_12 H 0.553860 0.571207 0.677281
C8_12 C 0.45166(14) 0.59361(13) 0.66940(6)
C9_12 C 0.40088(14) 0.63773(14) 0.67761(6)
H7_12 H 0.355817 0.636043 0.668440
C10_12 C 0.41671(14) 0.68431(13) 0.69936(6)
H8_12 H 0.381691 0.714100 0.704811
N3_12 N 0.34674(13) 0.30489(11) 0.60504(5)
C25_12 C 0.28157(15) 0.28284(14) 0.60775(6)
H17_12 H 0.246172 0.300155 0.594850
C26_12 C 0.26377(15) 0.23572(13) 0.62864(7)
H18_12 H 0.216694 0.221953 0.630166
C27_12 C 0.31451(15) 0.20864(13) 0.64730(6)
C28_12 C 0.38189(19) 0.23160(19) 0.64441(8)
H19_12 H 0.418321 0.214501 0.656796
C29_12 C 0.39603(19) 0.27944(19) 0.62347(8)
H20_12 H 0.442432 0.294987 0.622023
C30_12 C 0.22104(14) 0.10309(12) 0.70435(6)
H21_12 H 0.176106 0.099827 0.713538
C31_12 C 0.23263(14) 0.15056(12) 0.68282(6)
H22_12 H 0.196140 0.178793 0.677281
C32_12 C 0.29834(14) 0.15639(13) 0.66940(6)
C33_12 C 0.34912(14) 0.11227(14) 0.67761(6)
H23_12 H 0.394183 0.113957 0.668440
C34_12 C 0.33329(14) 0.06569(13) 0.69936(6)
H24_12 H 0.368309 0.035900 0.704811
O11_12 O 0.29193(10) 0.41337(9) 0.55675(4)
Zn1_7 Zn 0.375000 0.375000 0.17516(2)
N1_13 N 0.40326(13) 0.30489(11) 0.14496(5)
C1_13 C 0.46843(15) 0.28284(14) 0.14225(6)
H1_13 H 0.503828 0.300155 0.155150
C2_13 C 0.48623(15) 0.23572(13) 0.12136(7)
H2_13 H 0.533306 0.221953 0.119834
C3_13 C 0.43549(15) 0.20864(13) 0.10270(6)
C4_13 C 0.36811(19) 0.23160(19) 0.10559(8)
H3_13 H 0.331679 0.214501 0.093204
C5_13 C 0.35397(19) 0.27944(19) 0.12653(8)
H4_13 H 0.307568 0.294987 0.127977
C6_13 C 0.52896(14) 0.10309(12) 0.04565(6)
H5_13 H 0.573894 0.099827 0.036462
C7_13 C 0.51737(14) 0.15056(12) 0.06718(6)
H6_13 H 0.553860 0.178793 0.072719
C8_13 C 0.45166(14) 0.15639(13) 0.08060(6)
C9_13 C 0.40088(14) 0.11227(14) 0.07239(6)
H7_13 H 0.355817 0.113957 0.081560
C10_13 C 0.41671(14) 0.06569(13) 0.05064(6)
H8_13 H 0.381691 0.035900 0.045189
O1_7 O 0.45807(10) 0.41337(9) 0.19325(4)
C11_11 C 0.48872(13) 0.37929(12) 0.21340(6)
C12_11 C 0.55205(14) 0.40862(12) 0.22853(6)
C13_11 C 0.61896(14) 0.38086(12) 0.22954(6)
C14_11 C 0.67366(15) 0.41122(14) 0.24458(7)
H9_11 H 0.718774 0.392588 0.244687
C15_11 C 0.66275(16) 0.46891(15) 0.25953(7)
H10_11 H 0.700144 0.489326 0.269983
C16_11 C 0.59729(16) 0.49610(14) 0.25902(8)
H11_10 H 0.589499 0.534977 0.269513
C17_11 C 0.54231(16) 0.46685(13) 0.24318(7)
H12_11 H 0.497928 0.486801 0.242382
S1_11 S 0.63554(3) 0.30583(3) 0.21198(2)
O3_11 O 0.59996(11) 0.30499(10) 0.18217(4)
O4_11 O 0.71098(10) 0.30015(9) 0.20974(5)
N3_13 N 0.34674(13) 0.44511(11) 0.14496(5)
C25_13 C 0.28157(15) 0.46716(14) 0.14225(6)
H17_13 H 0.246172 0.449845 0.155150
C26_13 C 0.26377(15) 0.51428(13) 0.12136(7)
H18_13 H 0.216694 0.528047 0.119834
C27_13 C 0.31451(15) 0.54136(13) 0.10270(6)
C28_13 C 0.38189(19) 0.51840(19) 0.10559(8)
H19_13 H 0.418321 0.535499 0.093204
C29_13 C 0.39603(19) 0.47056(19) 0.12653(8)
H20_13 H 0.442432 0.455013 0.127977
C30_13 C 0.22104(14) 0.64691(12) 0.04565(6)
H21_13 H 0.176106 0.650173 0.036462
C31_13 C 0.23263(14) 0.59944(12) 0.06718(6)
H22_13 H 0.196140 0.571207 0.072719
C32_13 C 0.29834(14) 0.59361(13) 0.08060(6)
C33_13 C 0.34912(14) 0.63773(14) 0.07239(6)
H23_13 H 0.394183 0.636043 0.081560
C34_13 C 0.33329(14) 0.68431(13) 0.05064(6)
H24_13 H 0.368309 0.714100 0.045189
O11_13 O 0.29193(10) 0.33663(9) 0.19325(4)
O6_7 O 0.45807(10) 0.83663(9) 0.05675(4)
C18_11 C 0.48872(13) 0.87071(12) 0.03660(6)
C19_11 C 0.55205(14) 0.84138(12) 0.02147(6)
C20_11 C 0.61896(14) 0.86914(12) 0.02046(6)
C21_11 C 0.67366(15) 0.83878(14) 0.00542(7)
H13_11 H 0.718774 0.857412 0.005313
C24_11 C 0.54231(16) 0.78315(13) 0.00682(7)
H16_11 H 0.497928 0.763199 0.007618
S2_11 S 0.63554(3) 0.94417(3) 0.03802(2)
O8_11 O 0.59996(11) 0.94501(10) 0.06783(4)
O9_11 O 0.71098(10) 0.94985(9) 0.04026(5)
Zn3_7 Zn 0.375000 0.875000 0.07484(2)
C22_11 C 0.66275(16) 0.78109(15) 0.99047(7)
H14_11 H 0.700144 0.760674 0.980017
C23_11 C 0.59729(16) 0.75390(14) 0.99098(8)
H15_10 H 0.589499 0.715023 0.980487
H17_14 H 0.003828 0.800155 0.155150
H18_14 H 0.033306 0.721953 0.119834
C30_14 C 0.02896(14) 0.60309(12) 0.04565(6)
H21_14 H 0.073894 0.599827 0.036462
C31_14 C 0.01737(14) 0.65056(12) 0.06718(6)
H22_14 H 0.053860 0.678793 0.072719
C2_14 C 0.76377(15) 0.01428(13) 0.12136(7)
H2_14 H 0.716694 0.028047 0.119834
C3_14 C 0.81451(15) 0.04136(13) 0.10270(6)
C4_14 C 0.88189(19) 0.01840(19) 0.10559(8)
H3_14 H 0.918321 0.035499 0.093204
C6_14 C 0.72104(14) 0.14691(12) 0.04565(6)
H5_14 H 0.676106 0.150173 0.036462
C7_14 C 0.73263(14) 0.09944(12) 0.06718(6)
H6_14 H 0.696140 0.071207 0.072719
C8_14 C 0.79834(14) 0.09361(13) 0.08060(6)
C9_14 C 0.84912(14) 0.13773(14) 0.07239(6)
H7_14 H 0.894183 0.136043 0.081560
C10_14 C 0.83329(14) 0.18431(13) 0.05064(6)
H8_14 H 0.868309 0.214100 0.045189
O6_8 O 0.79193(10) 0.41337(9) 0.05675(4)
C18_12 C 0.76128(13) 0.37929(12) 0.03660(6)
C19_12 C 0.69795(14) 0.40862(12) 0.02147(6)
C20_12 C 0.63104(14) 0.38086(12) 0.02046(6)
C21_12 C 0.57634(15) 0.41122(14) 0.00542(7)
H13_12 H 0.531226 0.392588 0.005313
C24_12 C 0.70769(16) 0.46685(13) 0.00682(7)
H16_12 H 0.752072 0.486801 0.007618
S2_12 S 0.61446(3) 0.30583(3) 0.03802(2)
O8_12 O 0.65004(11) 0.30499(10) 0.06783(4)
O9_12 O 0.53902(10) 0.30015(9) 0.04026(5)
Zn3_8 Zn 0.875000 0.375000 0.07484(2)
C22_12 C 0.58725(16) 0.46891(15) 0.99047(7)
H14_12 H 0.549856 0.489326 0.980017
C23_12 C 0.65271(16) 0.49610(14) 0.99098(8)
H15_11 H 0.660501 0.534977 0.980487
Zn1_8 Zn 0.875000 0.875000 0.17516(2)
N1_14 N 0.84674(13) 0.94511(11) 0.14496(5)
C1_14 C 0.78157(15) 0.96716(14) 0.14225(6)
H1_14 H 0.746172 0.949845 0.155150
C5_14 C 0.89603(19) 0.97056(19) 0.12653(8)
H4_14 H 0.942432 0.955013 0.127977
O1_8 O 0.79193(10) 0.83663(9) 0.19325(4)
C11_12 C 0.76128(13) 0.87071(12) 0.21340(6)
C12_12 C 0.69795(14) 0.84138(12) 0.22853(6)
C13_12 C 0.63104(14) 0.86914(12) 0.22954(6)
C14_12 C 0.57634(15) 0.83878(14) 0.24458(7)
H9_12 H 0.531226 0.857412 0.244687
C15_12 C 0.58725(16) 0.78109(15) 0.25953(7)
H10_12 H 0.549856 0.760674 0.269983
C16_12 C 0.65271(16) 0.75390(14) 0.25902(8)
H11_11 H 0.660501 0.715023 0.269513
C17_12 C 0.70769(16) 0.78315(13) 0.24318(7)
H12_12 H 0.752072 0.763199 0.242382
S1_12 S 0.61446(3) 0.94417(3) 0.21198(2)
O3_12 O 0.65004(11) 0.94501(10) 0.18217(4)
O4_12 O 0.53902(10) 0.94985(9) 0.20974(5)
N3_14 N 0.90326(13) 0.80489(11) 0.14496(5)
C25_14 C 0.96843(15) 0.78284(14) 0.14225(6)
C26_14 C 0.98623(15) 0.73572(13) 0.12136(7)
C27_14 C 0.93549(15) 0.70864(13) 0.10270(6)
C28_14 C 0.86811(19) 0.73160(19) 0.10559(8)
H19_14 H 0.831679 0.714501 0.093204
C29_14 C 0.85397(19) 0.77944(19) 0.12653(8)
H20_14 H 0.807568 0.794987 0.127977
C32_14 C 0.95166(14) 0.65639(13) 0.08060(6)
C33_14 C 0.90088(14) 0.61227(14) 0.07239(6)
H23_14 H 0.855817 0.613957 0.081560
C34_14 C 0.91671(14) 0.56569(13) 0.05064(6)
H24_14 H 0.881691 0.535900 0.045189
O11_14 O 0.95807(10) 0.91337(9) 0.19325(4)
H17_15 H 0.003828 0.449845 0.094850
H18_15 H 0.033306 0.528047 0.130166
C30_15 C 0.02896(14) 0.64691(12) 0.20435(6)
H21_15 H 0.073894 0.650173 0.213538
C31_15 C 0.01737(14) 0.59944(12) 0.18282(6)
H22_15 H 0.053860 0.571207 0.177281
N1_15 N 0.84674(13) 0.30489(11) 0.10504(5)
C1_15 C 0.78157(15) 0.28284(14) 0.10775(6)
H1_15 H 0.746172 0.300155 0.094850
C2_15 C 0.76377(15) 0.23572(13) 0.12864(7)
H2_15 H 0.716694 0.221953 0.130166
C3_15 C 0.81451(15) 0.20864(13) 0.14730(6)
C4_15 C 0.88189(19) 0.23160(19) 0.14441(8)
H3_15 H 0.918321 0.214501 0.156796
C5_15 C 0.89603(19) 0.27944(19) 0.12347(8)
H4_15 H 0.942432 0.294987 0.122023
C6_15 C 0.72104(14) 0.10309(12) 0.20435(6)
H5_15 H 0.676106 0.099827 0.213538
C7_15 C 0.73263(14) 0.15056(12) 0.18282(6)
H6_15 H 0.696140 0.178793 0.177281
C8_15 C 0.79834(14) 0.15639(13) 0.16940(6)
C9_15 C 0.84912(14) 0.11227(14) 0.17761(6)
H7_15 H 0.894183 0.113957 0.168440
C10_15 C 0.83329(14) 0.06569(13) 0.19936(6)
H8_15 H 0.868309 0.035900 0.204811
N3_15 N 0.90326(13) 0.44511(11) 0.10504(5)
C25_15 C 0.96843(15) 0.46716(14) 0.10775(6)
C26_15 C 0.98623(15) 0.51428(13) 0.12864(7)
C27_15 C 0.93549(15) 0.54136(13) 0.14730(6)
C28_15 C 0.86811(19) 0.51840(19) 0.14441(8)
H19_15 H 0.831679 0.535499 0.156796
C29_15 C 0.85397(19) 0.47056(19) 0.12347(8)
H20_15 H 0.807568 0.455013 0.122023
C32_15 C 0.95166(14) 0.59361(13) 0.16940(6)
C33_15 C 0.90088(14) 0.63773(14) 0.17761(6)
H23_15 H 0.855817 0.636043 0.168440
C34_15 C 0.91671(14) 0.68431(13) 0.19936(6)
H24_15 H 0.881691 0.714100 0.204811
O11_15 O 0.95807(10) 0.33663(9) 0.05675(4)
C2_16 C 0.48623(15) 0.01428(13) 0.12864(7)
H2_16 H 0.533306 0.028047 0.130166
C3_16 C 0.43549(15) 0.04136(13) 0.14730(6)
C4_16 C 0.36811(19) 0.01840(19) 0.14441(8)
H3_16 H 0.331679 0.035499 0.156796
C6_16 C 0.52896(14) 0.14691(12) 0.20435(6)
H5_16 H 0.573894 0.150173 0.213538
C7_16 C 0.51737(14) 0.09944(12) 0.18282(6)
H6_16 H 0.553860 0.071207 0.177281
C8_16 C 0.45166(14) 0.09361(13) 0.16940(6)
C9_16 C 0.40088(14) 0.13773(14) 0.17761(6)
H7_16 H 0.355817 0.136043 0.168440
C10_16 C 0.41671(14) 0.18431(13) 0.19936(6)
H8_16 H 0.381691 0.214100 0.204811
N1_16 N 0.40326(13) 0.94511(11) 0.10504(5)
C1_16 C 0.46843(15) 0.96716(14) 0.10775(6)
H1_16 H 0.503828 0.949845 0.094850
C5_16 C 0.35397(19) 0.97056(19) 0.12347(8)
H4_16 H 0.307568 0.955013 0.122023
N3_16 N 0.34674(13) 0.80489(11) 0.10504(5)
C25_16 C 0.28157(15) 0.78284(14) 0.10775(6)
H17_16 H 0.246172 0.800155 0.094850
C26_16 C 0.26377(15) 0.73572(13) 0.12864(7)
H18_16 H 0.216694 0.721953 0.130166
C27_16 C 0.31451(15) 0.70864(13) 0.14730(6)
C28_16 C 0.38189(19) 0.73160(19) 0.14441(8)
H19_16 H 0.418321 0.714501 0.156796
C29_16 C 0.39603(19) 0.77944(19) 0.12347(8)
H20_16 H 0.442432 0.794987 0.122023
C30_16 C 0.22104(14) 0.60309(12) 0.20435(6)
H21_16 H 0.176106 0.599827 0.213538
C31_16 C 0.23263(14) 0.65056(12) 0.18282(6)
H22_16 H 0.196140 0.678793 0.177281
C32_16 C 0.29834(14) 0.65639(13) 0.16940(6)
C33_16 C 0.34912(14) 0.61227(14) 0.17761(6)
H23_16 H 0.394183 0.613957 0.168440
C34_16 C 0.33329(14) 0.56569(13) 0.19936(6)
H24_16 H 0.368309 0.535900 0.204811
O11_16 O 0.29193(10) 0.91337(9) 0.05675(4)
C12_13 C 0.05205(14) 0.90862(12) 0.22853(6)
C13_13 C 0.11896(14) 0.88086(12) 0.22954(6)
C14_13 C 0.17366(15) 0.91122(14) 0.24458(7)
H9_13 H 0.218774 0.892588 0.244687
C15_13 C 0.16275(16) 0.96891(15) 0.25953(7)
H10_13 H 0.200144 0.989326 0.269983
C16_13 C 0.09729(16) 0.99610(14) 0.25902(8)
C17_13 C 0.04231(16) 0.96685(13) 0.24318(7)
S1_13 S 0.13554(3) 0.80583(3) 0.21198(2)
O3_13 O 0.09996(11) 0.80499(10) 0.18217(4)
O4_13 O 0.21098(10) 0.80015(9) 0.20974(5)
C19_13 C 0.05205(14) 0.34138(12) 0.02147(6)
C20_13 C 0.11896(14) 0.36914(12) 0.02046(6)
C21_13 C 0.17366(15) 0.33878(14) 0.00542(7)
H13_13 H 0.218774 0.357412 0.005313
C24_13 C 0.04231(16) 0.28315(13) 0.00682(7)
S2_13 S 0.13554(3) 0.44417(3) 0.03802(2)
O8_13 O 0.09996(11) 0.44501(10) 0.06783(4)
O9_13 O 0.21098(10) 0.44985(9) 0.04026(5)
C22_13 C 0.16275(16) 0.28109(15) 0.99047(7)
H14_13 H 0.200144 0.260674 0.980017
C23_13 C 0.09729(16) 0.25390(14) 0.99098(8)
H15_12 H 0.089499 0.215023 0.980487
C11_13 C 0.98872(13) 0.87929(12) 0.21340(6)
H12_13 H 0.997928 0.986801 0.242382
C18_13 C 0.98872(13) 0.37071(12) 0.03660(6)
H16_13 H 0.997928 0.263199 0.007618
C11_14 C 0.26128(13) 0.37071(12) 0.21340(6)
C12_14 C 0.19795(14) 0.34138(12) 0.22853(6)
C13_14 C 0.13104(14) 0.36914(12) 0.22954(6)
C14_14 C 0.07634(15) 0.33878(14) 0.24458(7)
H9_14 H 0.031226 0.357412 0.244687
C15_14 C 0.08725(16) 0.28109(15) 0.25953(7)
H10_14 H 0.049856 0.260674 0.269983
C16_14 C 0.15271(16) 0.25390(14) 0.25902(8)
H11_12 H 0.160501 0.215023 0.269513
C17_14 C 0.20769(16) 0.28315(13) 0.24318(7)
H12_14 H 0.252072 0.263199 0.242382
S1_14 S 0.11446(3) 0.44417(3) 0.21198(2)
O3_14 O 0.15004(11) 0.44501(10) 0.18217(4)
O4_14 O 0.03902(10) 0.44985(9) 0.20974(5)
C18_14 C 0.26128(13) 0.87929(12) 0.03660(6)
C19_14 C 0.19795(14) 0.90862(12) 0.02147(6)
C20_14 C 0.13104(14) 0.88086(12) 0.02046(6)
C21_14 C 0.07634(15) 0.91122(14) 0.00542(7)
H13_14 H 0.031226 0.892588 0.005313
C24_14 C 0.20769(16) 0.96685(13) 0.00682(7)
H16_14 H 0.252072 0.986801 0.007618
S2_14 S 0.11446(3) 0.80583(3) 0.03802(2)
O8_14 O 0.15004(11) 0.80499(10) 0.06783(4)
O9_14 O 0.03902(10) 0.80015(9) 0.04026(5)
C22_14 C 0.08725(16) 0.96891(15) 0.99047(7)
H14_14 H 0.049856 0.989326 0.980017
C23_14 C 0.15271(16) 0.99610(14) 0.99098(8)
C12_15 C 0.05205(14) 0.40862(12) 0.72853(6)
C13_15 C 0.11896(14) 0.38086(12) 0.72954(6)
C14_15 C 0.17366(15) 0.41122(14) 0.74458(7)
H9_15 H 0.218774 0.392588 0.744687
C15_15 C 0.16275(16) 0.46891(15) 0.75953(7)
H10_15 H 0.200144 0.489326 0.769983
C16_15 C 0.09729(16) 0.49610(14) 0.75902(8)
H11_13 H 0.089499 0.534977 0.769513
C17_15 C 0.04231(16) 0.46685(13) 0.74318(7)
S1_15 S 0.13554(3) 0.30583(3) 0.71198(2)
O3_15 O 0.09996(11) 0.30499(10) 0.68217(4)
O4_15 O 0.21098(10) 0.30015(9) 0.70974(5)
C19_15 C 0.05205(14) 0.84138(12) 0.52147(6)
C20_15 C 0.11896(14) 0.86914(12) 0.52046(6)
C21_15 C 0.17366(15) 0.83878(14) 0.50542(7)
H13_15 H 0.218774 0.857412 0.505313
C22_15 C 0.16275(16) 0.78109(15) 0.49047(7)
H14_15 H 0.200144 0.760674 0.480017
C23_15 C 0.09729(16) 0.75390(14) 0.49098(8)
H15_13 H 0.089499 0.715023 0.480487
C24_15 C 0.04231(16) 0.78315(13) 0.50682(7)
S2_15 S 0.13554(3) 0.94417(3) 0.53802(2)
O8_15 O 0.09996(11) 0.94501(10) 0.56783(4)
O9_15 O 0.21098(10) 0.94985(9) 0.54026(5)
C11_15 C 0.98872(13) 0.37929(12) 0.71340(6)
H12_15 H 0.997928 0.486801 0.742382
C18_15 C 0.98872(13) 0.87071(12) 0.53660(6)
H16_15 H 0.997928 0.763199 0.507618
C18_16 C 0.26128(13) 0.37929(12) 0.53660(6)
C19_16 C 0.19795(14) 0.40862(12) 0.52147(6)
C20_16 C 0.13104(14) 0.38086(12) 0.52046(6)
C21_16 C 0.07634(15) 0.41122(14) 0.50542(7)
H13_16 H 0.031226 0.392588 0.505313
C22_16 C 0.08725(16) 0.46891(15) 0.49047(7)
H14_16 H 0.049856 0.489326 0.480017
C23_16 C 0.15271(16) 0.49610(14) 0.49098(8)
H15_14 H 0.160501 0.534977 0.480487
C24_16 C 0.20769(16) 0.46685(13) 0.50682(7)
H16_16 H 0.252072 0.486801 0.507618
S2_16 S 0.11446(3) 0.30583(3) 0.53802(2)
O8_16 O 0.15004(11) 0.30499(10) 0.56783(4)
O9_16 O 0.03902(10) 0.30015(9) 0.54026(5)
C11_16 C 0.26128(13) 0.87071(12) 0.71340(6)
C12_16 C 0.19795(14) 0.84138(12) 0.72853(6)
C13_16 C 0.13104(14) 0.86914(12) 0.72954(6)
C14_16 C 0.07634(15) 0.83878(14) 0.74458(7)
H9_16 H 0.031226 0.857412 0.744687
C15_16 C 0.08725(16) 0.78109(15) 0.75953(7)
H10_16 H 0.049856 0.760674 0.769983
C16_16 C 0.15271(16) 0.75390(14) 0.75902(8)
H11_14 H 0.160501 0.715023 0.769513
C17_16 C 0.20769(16) 0.78315(13) 0.74318(7)
H12_16 H 0.252072 0.763199 0.742382
S1_16 S 0.11446(3) 0.94417(3) 0.71198(2)
O3_16 O 0.15004(11) 0.94501(10) 0.68217(4)
O4_16 O 0.03902(10) 0.94985(9) 0.70974(5)
H11_15 H 0.910501 0.965023 0.730487
H15_15 H 0.839499 0.965023 0.019513
H11_16 H 0.089499 0.034977 0.269513
H15_16 H 0.160501 0.034977 0.980487
loop_
_geom_bond_atom_site_label_1
_geom_bond_atom_site_label_2
_geom_bond_site_symmetry_1
_geom_bond_site_symmetry_2
Zn1 N1 1_555 1_555
Zn2 N2 1_555 1_555
N1 C1 1_555 1_555
N2 C6 1_555 1_555
C1 H1 1_555 1_555
C2 C1 1_555 1_555
H2 C2 1_555 1_555
C3 C2 1_555 1_555
C4 C3 1_555 1_555
H3 C4 1_555 1_555
C5 N1 1_555 1_555
H4 C5 1_555 1_555
C6 H5 1_555 1_555
C7 C6 1_555 1_555
H6 C7 1_555 1_555
C8 C3 1_555 1_555
C9 C8 1_555 1_555
H7 C9 1_555 1_555
C10 N2 1_555 1_555
H8 C10 1_555 1_555
O1 Zn1 1_555 1_555
O2 C11 1_555 1_555
C11 O1 1_555 1_555
C12 C11 1_555 1_555
C13 C12 1_555 1_555
C14 C13 1_555 1_555
H9 C14 1_555 1_555
C15 C14 1_555 1_555
H10 C15 1_555 1_555
C16 C15 1_555 1_555
C17 C12 1_555 1_555
H12 C17 1_555 1_555
S1 C13 1_555 1_555
O3 S1 1_555 1_555
O4 S1 1_555 1_555
O5 S1 1_555 1_555
O6 C18 1_555 1_555
O7 Zn2 1_555 1_555
C18 O7 1_555 1_555
C19 C18 1_555 1_555
C20 C19 1_555 1_555
C21 C20 1_555 1_555
H13 C21 1_555 1_555
C22 C21 1_555 1_555
H14 C22 1_555 1_555
C23 C22 1_555 1_555
H15 C23 1_555 1_555
C24 C19 1_555 1_555
H16 C24 1_555 1_555
S2 C20 1_555 1_555
O8 S2 1_555 1_555
O9 S2 1_555 1_555
O10 Zn2 1_555 1_555
N3 Zn1 1_555 1_555
C25 N3 1_555 1_555
H17 C25 1_555 1_555
C29 N3 1_555 1_555
H20 C29 1_555 1_555
Zn3 O6 1_555 1_555
Zn4 O2 1_555 1_555
N5 Zn2 1_555 1_555
O11 Zn1 1_555 1_555
O12 Zn2 1_555 1_555
O13 Zn2 1_555 1_555
C4 C5 1_555 1_555
C7 C8 1_555 1_555
C9 C10 1_555 1_555
C16 C17 1_555 1_555
O5 Zn4 1_555 1_555
C23 C24 1_555 1_555
S2 O10 1_555 1_555
N4 C30 1_555 1_555
H18 C26 1_555 1_555
C27 C26 1_555 1_555
C28 C27 1_555 1_555
H19 C28 1_555 1_555
C30 H21 1_555 1_555
C31 C30 1_555 1_555
H22 C31 1_555 1_555
C32 C27 1_555 1_555
C33 C32 1_555 1_555
H23 C33 1_555 1_555
C34 N4 1_555 1_555
H24 C34 1_555 1_555
Zn5 N4 1_555 1_555
C31 C32 1_555 1_555
C33 C34 1_555 1_555
Zn1_2 N1_2 1_555 1_555
Zn2_2 N2_2 1_555 1_555
N1_2 C1_2 1_555 1_555
N2_2 C6_2 1_555 1_555
C1_2 H1_2 1_555 1_555
C2_2 C1_2 1_555 1_555
H2_2 C2_2 1_555 1_555
C3_2 C2_2 1_555 1_555
C4_2 C3_2 1_555 1_555
H3_2 C4_2 1_555 1_555
C5_2 N1_2 1_555 1_555
H4_2 C5_2 1_555 1_555
C6_2 H5_2 1_555 1_555
C7_2 C6_2 1_555 1_555
H6_2 C7_2 1_555 1_555
C8_2 C3_2 1_555 1_555
C9_2 C8_2 1_555 1_555
H7_2 C9_2 1_555 1_555
C10_2 N2_2 1_555 1_555
H8_2 C10_2 1_555 1_555
O1_2 Zn1_2 1_555 1_555
O2_2 C11_2 1_555 1_555
C11_2 O1_2 1_555 1_555
C12_2 C11_2 1_555 1_555
C13_2 C12_2 1_555 1_555
C14_2 C13_2 1_555 1_555
H9_2 C14_2 1_555 1_555
C15_2 C14_2 1_555 1_555
H10_2 C15_2 1_555 1_555
C16_2 C15_2 1_555 1_555
H11_2 C16_2 1_555 1_555
C17_2 C12_2 1_555 1_555
H12_2 C17_2 1_555 1_555
S1_2 C13_2 1_555 1_555
O3_2 S1_2 1_555 1_555
O4_2 S1_2 1_555 1_555
O5_2 S1_2 1_555 1_555
O6_2 C18_2 1_555 1_555
O7_2 Zn2_2 1_555 1_555
C18_2 O7_2 1_555 1_555
C19_2 C18_2 1_555 1_555
C20_2 C19_2 1_555 1_555
C21_2 C20_2 1_555 1_555
H13_2 C21_2 1_555 1_555
C22_2 C21_2 1_555 1_555
H14_2 C22_2 1_555 1_555
C23_2 C22_2 1_555 1_555
C24_2 C19_2 1_555 1_555
H16_2 C24_2 1_555 1_555
S2_2 C20_2 1_555 1_555
O8_2 S2_2 1_555 1_555
O9_2 S2_2 1_555 1_555
O10_2 Zn2_2 1_555 1_555
N3_2 Zn1_2 1_555 1_555
C25_2 N3_2 1_555 1_555
C26_2 C25_2 1_555 1_555
C27_2 C26_2 1_555 1_555
C28_2 C27_2 1_555 1_555
H19_2 C28_2 1_555 1_555
C29_2 N3_2 1_555 1_555
H20_2 C29_2 1_555 1_555
C32_2 C27_2 1_555 1_555
C33_2 C32_2 1_555 1_555
H23_2 C33_2 1_555 1_555
C34_2 N4_2 1_555 1_555
H24_2 C34_2 1_555 1_555
Zn3_2 O6_2 1_555 1_555
Zn4_2 O2_2 1_555 1_555
Zn5_3 N4_2 1_555 1_555
N5_2 Zn2_2 1_555 1_555
O11_2 Zn1_2 1_555 1_555
O12_2 Zn2_2 1_555 1_555
O13_2 Zn2_2 1_555 1_555
C4_2 C5_2 1_555 1_555
C7_2 C8_2 1_555 1_555
C9_2 C10_2 1_555 1_555
C16_2 C17_2 1_555 1_555
O5_2 Zn4_2 1_555 1_555
C23_2 C24_2 1_555 1_555
S2_2 O10_2 1_555 1_555
C28_2 C29_2 1_555 1_555
C33_2 C34_2 1_555 1_555
C30_2 H21_2 1_555 1_555
C31_2 C30_2 1_555 1_555
H22_2 C31_2 1_555 1_555
Zn3_2 N1_3 1_555 1_555
Zn4_2 N2_3 1_555 1_555
N1_3 C1_3 1_555 1_555
N2_3 C6_3 1_555 1_555
C1_3 H1_3 1_555 1_555
C2_3 C1_3 1_555 1_555
H2_3 C2_3 1_555 1_555
C3_3 C2_3 1_555 1_555
C4_3 C3_3 1_555 1_555
H3_3 C4_3 1_555 1_555
C5_3 N1_3 1_555 1_555
H4_3 C5_3 1_555 1_555
C6_3 H5_3 1_555 1_555
C7_3 C6_3 1_555 1_555
H6_3 C7_3 1_555 1_555
C8_3 C3_3 1_555 1_555
C9_3 C8_3 1_555 1_555
H7_3 C9_3 1_555 1_555
C10_3 N2_3 1_555 1_555
H8_3 C10_3 1_555 1_555
N3_3 Zn3_2 1_555 1_555
C25_3 N3_3 1_555 1_555
C29_3 N3_3 1_555 1_555
H20_3 C29_3 1_555 1_555
N5_3 Zn4_2 1_555 1_555
O11_3 Zn3_2 1_555 1_555
O12_3 Zn4_2 1_555 1_555
O13_3 Zn4_2 1_555 1_555
C4_3 C5_3 1_555 1_555
C7_3 C8_3 1_555 1_555
C9_3 C10_3 1_555 1_555
C27_3 C26_3 1_555 1_555
C28_3 C27_3 1_555 1_555
H19_3 C28_3 1_555 1_555
C32_3 C27_3 1_555 1_555
C33_3 C32_3 1_555 1_555
H23_3 C33_3 1_555 1_555
C34_3 N4_3 1_555 1_555
H24_3 C34_3 1_555 1_555
Zn5_6 N4_3 1_555 1_555
C33_3 C34_3 1_555 1_555
C30_3 H21_3 1_555 1_555
C31_3 C30_3 1_555 1_555
H22_3 C31_3 1_555 1_555
Zn3 N1_4 1_555 1_555
Zn4 N2_4 1_555 1_555
N1_4 C1_4 1_555 1_555
N2_4 C6_4 1_555 1_555
C1_4 H1_4 1_555 1_555
C2_4 C1_4 1_555 1_555
H2_4 C2_4 1_555 1_555
C3_4 C2_4 1_555 1_555
C4_4 C3_4 1_555 1_555
H3_4 C4_4 1_555 1_555
C5_4 N1_4 1_555 1_555
H4_4 C5_4 1_555 1_555
C6_4 H5_4 1_555 1_555
C7_4 C6_4 1_555 1_555
H6_4 C7_4 1_555 1_555
C8_4 C3_4 1_555 1_555
C9_4 C8_4 1_555 1_555
H7_4 C9_4 1_555 1_555
C10_4 N2_4 1_555 1_555
H8_4 C10_4 1_555 1_555
N3_4 Zn3 1_555 1_555
N4_4 C30_4 1_555 1_555
C25_4 N3_4 1_555 1_555
H17_4 C25_4 1_555 1_555
C26_4 C25_4 1_555 1_555
H18_4 C26_4 1_555 1_555
C27_4 C26_4 1_555 1_555
C28_4 C27_4 1_555 1_555
H19_4 C28_4 1_555 1_555
C29_4 N3_4 1_555 1_555
H20_4 C29_4 1_555 1_555
C30_4 H21_4 1_555 1_555
C31_4 C30_4 1_555 1_555
H22_4 C31_4 1_555 1_555
C32_4 C27_4 1_555 1_555
C33_4 C32_4 1_555 1_555
H23_4 C33_4 1_555 1_555
C34_4 N4_4 1_555 1_555
H24_4 C34_4 1_555 1_555
Zn5_9 N4_4 1_555 1_555
N5_4 Zn4 1_555 1_555
O11_4 Zn3 1_555 1_555
O12_4 Zn4 1_555 1_555
O13_4 Zn4 1_555 1_555
C4_4 C5_4 1_555 1_555
C7_4 C8_4 1_555 1_555
C9_4 C10_4 1_555 1_555
C28_4 C29_4 1_555 1_555
C31_4 C32_4 1_555 1_555
C33_4 C34_4 1_555 1_555
H14_3 C22_3 1_555 1_555
C23_3 C22_3 1_555 1_555
H15_3 C23_3 1_555 1_555
N5_5 Zn2_3 1_555 1_555
O6_3 C18_3 1_555 1_555
O7_3 Zn2_4 1_555 1_555
C18_3 O7_3 1_555 1_555
C19_3 C18_3 1_555 1_555
C20_3 C19_3 1_555 1_555
C21_3 C20_3 1_555 1_555
H13_3 C21_3 1_555 1_555
C24_3 C19_3 1_555 1_555
H16_3 C24_3 1_555 1_555
S2_3 C20_3 1_555 1_555
O8_3 S2_3 1_555 1_555
O9_3 S2_3 1_555 1_555
O10_3 Zn2_4 1_555 1_555
Zn3_3 O6_3 1_555 1_555
S2_3 O10_3 1_555 1_555
O12_5 Zn2_5 1_555 1_555
O13_5 Zn2_5 1_555 1_555
Zn1_3 N1_5 1_555 1_555
Zn2_6 N2_5 1_555 1_555
N1_5 C1_5 1_555 1_555
N2_5 C6_5 1_555 1_555
C1_5 H1_5 1_555 1_555
C2_5 C1_5 1_555 1_555
H2_5 C2_5 1_555 1_555
C3_5 C2_5 1_555 1_555
C4_5 C3_5 1_555 1_555
H3_5 C4_5 1_555 1_555
C5_5 N1_5 1_555 1_555
H4_5 C5_5 1_555 1_555
C6_5 H5_5 1_555 1_555
C7_5 C6_5 1_555 1_555
H6_5 C7_5 1_555 1_555
C8_5 C3_5 1_555 1_555
C9_5 C8_5 1_555 1_555
H7_5 C9_5 1_555 1_555
C10_5 N2_5 1_555 1_555
H8_5 C10_5 1_555 1_555
O1_3 Zn1_3 1_555 1_555
O2_3 C11_3 1_555 1_555
C11_3 O1_3 1_555 1_555
C12_3 C11_3 1_555 1_555
C13_3 C12_3 1_555 1_555
C14_3 C13_3 1_555 1_555
H9_3 C14_3 1_555 1_555
C15_3 C14_3 1_555 1_555
H10_3 C15_3 1_555 1_555
C16_3 C15_3 1_555 1_555
H11_3 C16_3 1_555 1_555
C17_3 C12_3 1_555 1_555
H12_3 C17_3 1_555 1_555
S1_3 C13_3 1_555 1_555
O3_3 S1_3 1_555 1_555
O4_3 S1_3 1_555 1_555
O5_3 S1_3 1_555 1_555
N3_5 Zn1_3 1_555 1_555
N4_5 C30_5 1_555 1_555
C25_5 N3_5 1_555 1_555
H17_5 C25_5 1_555 1_555
C26_5 C25_5 1_555 1_555
H18_5 C26_5 1_555 1_555
C27_5 C26_5 1_555 1_555
C28_5 C27_5 1_555 1_555
H19_5 C28_5 1_555 1_555
C29_5 N3_5 1_555 1_555
H20_5 C29_5 1_555 1_555
C30_5 H21_5 1_555 1_555
C31_5 C30_5 1_555 1_555
H22_5 C31_5 1_555 1_555
C32_5 C27_5 1_555 1_555
C33_5 C32_5 1_555 1_555
H23_5 C33_5 1_555 1_555
C34_5 N4_5 1_555 1_555
H24_5 C34_5 1_555 1_555
Zn4_3 O2_3 1_555 1_555
Zn5_11 N4_5 1_555 1_555
O11_5 Zn1_3 1_555 1_555
C4_5 C5_5 1_555 1_555
C7_5 C8_5 1_555 1_555
C9_5 C10_5 1_555 1_555
C16_3 C17_3 1_555 1_555
O5_3 Zn4_3 1_555 1_555
C28_5 C29_5 1_555 1_555
C31_5 C32_5 1_555 1_555
C33_5 C34_5 1_555 1_555
Zn1_4 N1_6 1_555 1_555
N1_6 C1_6 1_555 1_555
C1_6 H1_6 1_555 1_555
C5_6 N1_6 1_555 1_555
H4_6 C5_6 1_555 1_555
O1_4 Zn1_4 1_555 1_555
O2_4 C11_4 1_555 1_555
C11_4 O1_4 1_555 1_555
C12_4 C11_4 1_555 1_555
C13_4 C12_4 1_555 1_555
C14_4 C13_4 1_555 1_555
H9_4 C14_4 1_555 1_555
C15_4 C14_4 1_555 1_555
H10_4 C15_4 1_555 1_555
C16_4 C15_4 1_555 1_555
H11_4 C16_4 1_555 1_555
C17_4 C12_4 1_555 1_555
H12_4 C17_4 1_555 1_555
S1_4 C13_4 1_555 1_555
O3_4 S1_4 1_555 1_555
O4_4 S1_4 1_555 1_555
O5_4 S1_4 1_555 1_555
N3_6 Zn1_4 1_555 1_555
C25_6 N3_6 1_555 1_555
C26_6 C25_6 1_555 1_555
C27_6 C26_6 1_555 1_555
C28_6 C27_6 1_555 1_555
H19_6 C28_6 1_555 1_555
C29_6 N3_6 1_555 1_555
H20_6 C29_6 1_555 1_555
C32_6 C27_6 1_555 1_555
C33_6 C32_6 1_555 1_555
H23_6 C33_6 1_555 1_555
C34_6 N4_6 1_555 1_555
H24_6 C34_6 1_555 1_555
Zn4_4 O2_4 1_555 1_555
Zn5_13 N4_6 1_555 1_555
O11_6 Zn1_4 1_555 1_555
C16_4 C17_4 1_555 1_555
O5_4 Zn4_4 1_555 1_555
C28_6 C29_6 1_555 1_555
C33_6 C34_6 1_555 1_555
H14_4 C22_4 1_555 1_555
C23_4 C22_4 1_555 1_555
H15_4 C23_4 1_555 1_555
N5_6 Zn2_7 1_555 1_555
O12_6 Zn2_7 1_555 1_555
O13_6 Zn2_7 1_555 1_555
Zn2_8 N2_6 1_555 1_555
N2_6 C6_6 1_555 1_555
H2_6 C2_6 1_555 1_555
C3_6 C2_6 1_555 1_555
C4_6 C3_6 1_555 1_555
H3_6 C4_6 1_555 1_555
C6_6 H5_6 1_555 1_555
C7_6 C6_6 1_555 1_555
H6_6 C7_6 1_555 1_555
C8_6 C3_6 1_555 1_555
C9_6 C8_6 1_555 1_555
H7_6 C9_6 1_555 1_555
C10_6 N2_6 1_555 1_555
H8_6 C10_6 1_555 1_555
O6_4 C18_4 1_555 1_555
O7_4 Zn2_8 1_555 1_555
C18_4 O7_4 1_555 1_555
C19_4 C18_4 1_555 1_555
C20_4 C19_4 1_555 1_555
C21_4 C20_4 1_555 1_555
H13_4 C21_4 1_555 1_555
C24_4 C19_4 1_555 1_555
H16_4 C24_4 1_555 1_555
S2_4 C20_4 1_555 1_555
O8_4 S2_4 1_555 1_555
O9_4 S2_4 1_555 1_555
O10_4 Zn2_8 1_555 1_555
Zn3_4 O6_4 1_555 1_555
C7_6 C8_6 1_555 1_555
C9_6 C10_6 1_555 1_555
S2_4 O10_4 1_555 1_555
C30_6 H21_6 1_555 1_555
C31_6 C30_6 1_555 1_555
H22_6 C31_6 1_555 1_555
N5_7 Zn4_4 1_555 1_555
Zn3_4 N1_7 1_555 1_555
Zn4_5 N2_7 1_555 1_555
N1_7 C1_7 1_555 1_555
N2_7 C6_7 1_555 1_555
C1_7 H1_7 1_555 1_555
C2_7 C1_7 1_555 1_555
H2_7 C2_7 1_555 1_555
C3_7 C2_7 1_555 1_555
C4_7 C3_7 1_555 1_555
H3_7 C4_7 1_555 1_555
C5_7 N1_7 1_555 1_555
H4_7 C5_7 1_555 1_555
C6_7 H5_7 1_555 1_555
C7_7 C6_7 1_555 1_555
H6_7 C7_7 1_555 1_555
C8_7 C3_7 1_555 1_555
C9_7 C8_7 1_555 1_555
H7_7 C9_7 1_555 1_555
C10_7 N2_7 1_555 1_555
H8_7 C10_7 1_555 1_555
N3_7 Zn3_4 1_555 1_555
C25_7 N3_7 1_555 1_555
C26_7 C25_7 1_555 1_555
C27_7 C26_7 1_555 1_555
C28_7 C27_7 1_555 1_555
H19_7 C28_7 1_555 1_555
C29_7 N3_7 1_555 1_555
H20_7 C29_7 1_555 1_555
C32_7 C27_7 1_555 1_555
C33_7 C32_7 1_555 1_555
H23_7 C33_7 1_555 1_555
C34_7 N4_7 1_555 1_555
H24_7 C34_7 1_555 1_555
Zn5_16 N4_7 1_555 1_555
O11_7 Zn3_4 1_555 1_555
O12_7 Zn4_5 1_555 1_555
O13_7 Zn4_5 1_555 1_555
C4_7 C5_7 1_555 1_555
C7_7 C8_7 1_555 1_555
C9_7 C10_7 1_555 1_555
C28_7 C29_7 1_555 1_555
C33_7 C34_7 1_555 1_555
C30_7 H21_7 1_555 1_555
C31_7 C30_7 1_555 1_555
H22_7 C31_7 1_555 1_555
Zn3_3 N1_8 1_555 1_555
N1_8 C1_8 1_555 1_555
C1_8 H1_8 1_555 1_555
C5_8 N1_8 1_555 1_555
H4_8 C5_8 1_555 1_555
N3_8 Zn3_3 1_555 1_555
N4_8 C30_8 1_555 1_555
C25_8 N3_8 1_555 1_555
H17_8 C25_8 1_555 1_555
C26_8 C25_8 1_555 1_555
H18_8 C26_8 1_555 1_555
C27_8 C26_8 1_555 1_555
C28_8 C27_8 1_555 1_555
H19_8 C28_8 1_555 1_555
C29_8 N3_8 1_555 1_555
H20_8 C29_8 1_555 1_555
C30_8 H21_8 1_555 1_555
C31_8 C30_8 1_555 1_555
H22_8 C31_8 1_555 1_555
C32_8 C27_8 1_555 1_555
C33_8 C32_8 1_555 1_555
H23_8 C33_8 1_555 1_555
C34_8 N4_8 1_555 1_555
H24_8 C34_8 1_555 1_555
Zn5_18 N4_8 1_555 1_555
O11_8 Zn3_3 1_555 1_555
C28_8 C29_8 1_555 1_555
C31_8 C32_8 1_555 1_555
C33_8 C34_8 1_555 1_555
Zn4_3 N2_8 1_555 1_555
N2_8 C6_8 1_555 1_555
H2_8 C2_8 1_555 1_555
C3_8 C2_8 1_555 1_555
C4_8 C3_8 1_555 1_555
H3_8 C4_8 1_555 1_555
C6_8 H5_8 1_555 1_555
C7_8 C6_8 1_555 1_555
H6_8 C7_8 1_555 1_555
C8_8 C3_8 1_555 1_555
C9_8 C8_8 1_555 1_555
H7_8 C9_8 1_555 1_555
C10_8 N2_8 1_555 1_555
H8_8 C10_8 1_555 1_555
N5_8 Zn4_3 1_555 1_555
O12_8 Zn4_3 1_555 1_555
O13_8 Zn4_3 1_555 1_555
C7_8 C8_8 1_555 1_555
C9_8 C10_8 1_555 1_555
O13_9 Zn5_12 1_555 1_555
O2_5 C11_5 1_555 1_555
C11_5 O11_6 1_555 1_555
O11_7 C18_5 1_555 1_555
O7_5 Zn5_13 1_555 1_555
C18_5 O7_5 1_555 1_555
Zn5_16 O2_5 1_555 1_555
H14_5 C22_5 1_555 1_555
C23_5 C22_5 1_555 1_555
H15_5 C23_5 1_555 1_555
N5_9 Zn5_14 1_555 1_555
O12_9 Zn5_14 1_555 1_555
C13_5 C12_5 1_555 1_555
C14_5 C13_5 1_555 1_555
H9_5 C14_5 1_555 1_555
C15_5 C14_5 1_555 1_555
H10_5 C15_5 1_555 1_555
C16_5 C15_5 1_555 1_555
C17_5 C12_5 1_555 1_555
S1_5 C13_5 1_555 1_555
O3_5 S1_5 1_555 1_555
O4_5 S1_5 1_555 1_555
O5_5 S1_5 1_555 1_555
C20_5 C19_5 1_555 1_555
C21_5 C20_5 1_555 1_555
H13_5 C21_5 1_555 1_555
C24_5 C19_5 1_555 1_555
S2_5 C20_5 1_555 1_555
O8_5 S2_5 1_555 1_555
O9_5 S2_5 1_555 1_555
O10_5 Zn5_15 1_555 1_555
C16_5 C17_5 1_555 1_555
O5_5 Zn5_17 1_555 1_555
S2_5 O10_5 1_555 1_555
H14_6 C22_6 1_555 1_555
C23_6 C22_6 1_555 1_555
N5_10 Zn5_10 1_555 1_555
O12_10 Zn5_10 1_555 1_555
O13_10 Zn5_10 1_555 1_555
O2_6 C11_6 1_555 1_555
C11_6 O11_5 1_555 1_555
C12_6 C11_6 1_555 1_555
C13_6 C12_6 1_555 1_555
C14_6 C13_6 1_555 1_555
H9_6 C14_6 1_555 1_555
C15_6 C14_6 1_555 1_555
H10_6 C15_6 1_555 1_555
C16_6 C15_6 1_555 1_555
H11_5 C16_6 1_555 1_555
C17_6 C12_6 1_555 1_555
H12_6 C17_6 1_555 1_555
S1_6 C13_6 1_555 1_555
O3_6 S1_6 1_555 1_555
O4_6 S1_6 1_555 1_555
O5_6 S1_6 1_555 1_555
O11_8 C18_6 1_555 1_555
O7_6 Zn5_11 1_555 1_555
C18_6 O7_6 1_555 1_555
C19_6 C18_6 1_555 1_555
C20_6 C19_6 1_555 1_555
C21_6 C20_6 1_555 1_555
H13_6 C21_6 1_555 1_555
C24_6 C19_6 1_555 1_555
H16_6 C24_6 1_555 1_555
S2_6 C20_6 1_555 1_555
O8_6 S2_6 1_555 1_555
O9_6 S2_6 1_555 1_555
O10_6 Zn5_11 1_555 1_555
Zn5_18 O2_6 1_555 1_555
C16_6 C17_6 1_555 1_555
O5_6 Zn5_18 1_555 1_555
S2_6 O10_6 1_555 1_555
N5_11 Zn5_18 1_555 1_555
O12_11 Zn5_18 1_555 1_555
O13_11 Zn5_18 1_555 1_555
O13_12 Zn5_16 1_555 1_555
N5_12 Zn5_17 1_555 1_555
O12_12 Zn5_17 1_555 1_555
O11_3 C18_7 1_555 1_555
O7_7 Zn5_2 1_555 1_555
C18_7 O7_7 1_555 1_555
O2_7 C11_7 1_555 1_555
C11_7 O11_2 1_555 1_555
Zn5_6 O2_7 1_555 1_555
O13_13 Zn5_3 1_555 1_555
C20_7 C19_7 1_555 1_555
C21_7 C20_7 1_555 1_555
H13_7 C21_7 1_555 1_555
C22_7 C21_7 1_555 1_555
H14_7 C22_7 1_555 1_555
C23_7 C22_7 1_555 1_555
H15_6 C23_7 1_555 1_555
C24_7 C19_7 1_555 1_555
S2_7 C20_7 1_555 1_555
O8_7 S2_7 1_555 1_555
O9_7 S2_7 1_555 1_555
O10_7 Zn5_4 1_555 1_555
N5_13 Zn5_4 1_555 1_555
C23_7 C24_7 1_555 1_555
S2_7 O10_7 1_555 1_555
C13_7 C12_7 1_555 1_555
C14_7 C13_7 1_555 1_555
H9_7 C14_7 1_555 1_555
C15_7 C14_7 1_555 1_555
H10_7 C15_7 1_555 1_555
C16_7 C15_7 1_555 1_555
H11_6 C16_7 1_555 1_555
C17_7 C12_7 1_555 1_555
S1_7 C13_7 1_555 1_555
O3_7 S1_7 1_555 1_555
O4_7 S1_7 1_555 1_555
O5_7 S1_7 1_555 1_555
O12_13 Zn5_5 1_555 1_555
C16_7 C17_7 1_555 1_555
O5_7 Zn5_7 1_555 1_555
O2_8 C11_8 1_555 1_555
C11_8 O11 1_555 1_555
C12_8 C11_8 1_555 1_555
C13_8 C12_8 1_555 1_555
C14_8 C13_8 1_555 1_555
H9_8 C14_8 1_555 1_555
C15_8 C14_8 1_555 1_555
H10_8 C15_8 1_555 1_555
C16_8 C15_8 1_555 1_555
H11_7 C16_8 1_555 1_555
C17_8 C12_8 1_555 1_555
H12_8 C17_8 1_555 1_555
S1_8 C13_8 1_555 1_555
O3_8 S1_8 1_555 1_555
O4_8 S1_8 1_555 1_555
O5_8 S1_8 1_555 1_555
Zn5_8 O2_8 1_555 1_555
C16_8 C17_8 1_555 1_555
O5_8 Zn5_8 1_555 1_555
O11_4 C18_8 1_555 1_555
O7_8 Zn5 1_555 1_555
C18_8 O7_8 1_555 1_555
C19_8 C18_8 1_555 1_555
C20_8 C19_8 1_555 1_555
C21_8 C20_8 1_555 1_555
H13_8 C21_8 1_555 1_555
C22_8 C21_8 1_555 1_555
H14_8 C22_8 1_555 1_555
C23_8 C22_8 1_555 1_555
H15_7 C23_8 1_555 1_555
C24_8 C19_8 1_555 1_555
H16_8 C24_8 1_555 1_555
S2_8 C20_8 1_555 1_555
O8_8 S2_8 1_555 1_555
O9_8 S2_8 1_555 1_555
O10_8 Zn5 1_555 1_555
N5_14 Zn5 1_555 1_555
O12_14 Zn5 1_555 1_555
O13_14 Zn5 1_555 1_555
C23_8 C24_8 1_555 1_555
S2_8 O10_8 1_555 1_555
N5_15 Zn5_8 1_555 1_555
O12_15 Zn5_9 1_555 1_555
O13_15 Zn5_9 1_555 1_555
O13_16 Zn5_6 1_555 1_555
N5_16 Zn5_7 1_555 1_555
O12_16 Zn5_7 1_555 1_555
N5_2 C30_9 1_555 1_555
H18_9 C26_9 1_555 1_555
C27_9 C26_9 1_555 1_555
C28_9 C27_9 1_555 1_555
H19_9 C28_9 1_555 1_555
C30_9 H21_9 1_555 1_555
C31_9 C30_9 1_555 1_555
H22_9 C31_9 1_555 1_555
C32_9 C27_9 1_555 1_555
C33_9 C32_9 1_555 1_555
H23_9 C33_9 1_555 1_555
C34_9 N5_2 1_555 1_555
H24_9 C34_9 1_555 1_555
C31_9 C32_9 1_555 1_555
C33_9 C34_9 1_555 1_555
Zn1_5 N1_9 1_555 1_555
N1_9 C1_9 1_555 1_555
N5 C6_9 1_555 1_555
C1_9 H1_9 1_555 1_555
C2_9 C1_9 1_555 1_555
H2_9 C2_9 1_555 1_555
C3_9 C2_9 1_555 1_555
C4_9 C3_9 1_555 1_555
H3_9 C4_9 1_555 1_555
C5_9 N1_9 1_555 1_555
H4_9 C5_9 1_555 1_555
C6_9 H5_9 1_555 1_555
C7_9 C6_9 1_555 1_555
H6_9 C7_9 1_555 1_555
C8_9 C3_9 1_555 1_555
C9_9 C8_9 1_555 1_555
H7_9 C9_9 1_555 1_555
C10_9 N5 1_555 1_555
H8_9 C10_9 1_555 1_555
O1_5 Zn1_5 1_555 1_555
O12_8 C11_9 1_555 1_555
C11_9 O1_5 1_555 1_555
C12_9 C11_9 1_555 1_555
C13_9 C12_9 1_555 1_555
C14_9 C13_9 1_555 1_555
H9_9 C14_9 1_555 1_555
C15_9 C14_9 1_555 1_555
H10_9 C15_9 1_555 1_555
C16_9 C15_9 1_555 1_555
C17_9 C12_9 1_555 1_555
H12_9 C17_9 1_555 1_555
S1_9 C13_9 1_555 1_555
O3_9 S1_9 1_555 1_555
O4_9 S1_9 1_555 1_555
O13_8 S1_9 1_555 1_555
O6_5 C18_9 1_555 1_555
C18_9 O12 1_555 1_555
C19_9 C18_9 1_555 1_555
C20_9 C19_9 1_555 1_555
C21_9 C20_9 1_555 1_555
H13_9 C21_9 1_555 1_555
C22_9 C21_9 1_555 1_555
H14_9 C22_9 1_555 1_555
C23_9 C22_9 1_555 1_555
H15_8 C23_9 1_555 1_555
C24_9 C19_9 1_555 1_555
H16_9 C24_9 1_555 1_555
S2_9 C20_9 1_555 1_555
O8_9 S2_9 1_555 1_555
O9_9 S2_9 1_555 1_555
N3_9 Zn1_5 1_555 1_555
C25_9 N3_9 1_555 1_555
H17_9 C25_9 1_555 1_555
C29_9 N3_9 1_555 1_555
H20_9 C29_9 1_555 1_555
Zn3_5 O6_5 1_555 1_555
O11_9 Zn1_5 1_555 1_555
C4_9 C5_9 1_555 1_555
C7_9 C8_9 1_555 1_555
C9_9 C10_9 1_555 1_555
C16_9 C17_9 1_555 1_555
C23_9 C24_9 1_555 1_555
S2_9 O13 1_555 1_555
C30_10 H21_10 1_555 1_555
C31_10 C30_10 1_555 1_555
H22_10 C31_10 1_555 1_555
Zn1_6 N1_10 1_555 1_555
N1_10 C1_10 1_555 1_555
N5_14 C6_10 1_555 1_555
C1_10 H1_10 1_555 1_555
C2_10 C1_10 1_555 1_555
H2_10 C2_10 1_555 1_555
C3_10 C2_10 1_555 1_555
C4_10 C3_10 1_555 1_555
H3_10 C4_10 1_555 1_555
C5_10 N1_10 1_555 1_555
H4_10 C5_10 1_555 1_555
C6_10 H5_10 1_555 1_555
C7_10 C6_10 1_555 1_555
H6_10 C7_10 1_555 1_555
C8_10 C3_10 1_555 1_555
C9_10 C8_10 1_555 1_555
H7_10 C9_10 1_555 1_555
C10_10 N5_14 1_555 1_555
H8_10 C10_10 1_555 1_555
O1_6 Zn1_6 1_555 1_555
O12_11 C11_10 1_555 1_555
C11_10 O1_6 1_555 1_555
C12_10 C11_10 1_555 1_555
C13_10 C12_10 1_555 1_555
C14_10 C13_10 1_555 1_555
H9_10 C14_10 1_555 1_555
C15_10 C14_10 1_555 1_555
H10_10 C15_10 1_555 1_555
C16_10 C15_10 1_555 1_555
H11_9 C16_10 1_555 1_555
C17_10 C12_10 1_555 1_555
H12_10 C17_10 1_555 1_555
S1_10 C13_10 1_555 1_555
O3_10 S1_10 1_555 1_555
O4_10 S1_10 1_555 1_555
O13_11 S1_10 1_555 1_555
O6_6 C18_10 1_555 1_555
C18_10 O12_14 1_555 1_555
C19_10 C18_10 1_555 1_555
C20_10 C19_10 1_555 1_555
C21_10 C20_10 1_555 1_555
H13_10 C21_10 1_555 1_555
C22_10 C21_10 1_555 1_555
H14_10 C22_10 1_555 1_555
C23_10 C22_10 1_555 1_555
C24_10 C19_10 1_555 1_555
H16_10 C24_10 1_555 1_555
S2_10 C20_10 1_555 1_555
O8_10 S2_10 1_555 1_555
O9_10 S2_10 1_555 1_555
N3_10 Zn1_6 1_555 1_555
C25_10 N3_10 1_555 1_555
C26_10 C25_10 1_555 1_555
C27_10 C26_10 1_555 1_555
C28_10 C27_10 1_555 1_555
H19_10 C28_10 1_555 1_555
C29_10 N3_10 1_555 1_555
H20_10 C29_10 1_555 1_555
C32_10 C27_10 1_555 1_555
C33_10 C32_10 1_555 1_555
H23_10 C33_10 1_555 1_555
C34_10 N5_13 1_555 1_555
H24_10 C34_10 1_555 1_555
Zn3_6 O6_6 1_555 1_555
O11_10 Zn1_6 1_555 1_555
C4_10 C5_10 1_555 1_555
C7_10 C8_10 1_555 1_555
C9_10 C10_10 1_555 1_555
C16_10 C17_10 1_555 1_555
C23_10 C24_10 1_555 1_555
S2_10 O13_14 1_555 1_555
C28_10 C29_10 1_555 1_555
C33_10 C34_10 1_555 1_555
C30_11 H21_11 1_555 1_555
C31_11 C30_11 1_555 1_555
H22_11 C31_11 1_555 1_555
C27_11 C26_11 1_555 1_555
C28_11 C27_11 1_555 1_555
H19_11 C28_11 1_555 1_555
C32_11 C27_11 1_555 1_555
C33_11 C32_11 1_555 1_555
H23_11 C33_11 1_555 1_555
C34_11 N5_12 1_555 1_555
H24_11 C34_11 1_555 1_555
C33_11 C34_11 1_555 1_555
Zn3_6 N1_11 1_555 1_555
N1_11 C1_11 1_555 1_555
N5_11 C6_11 1_555 1_555
C1_11 H1_11 1_555 1_555
C2_11 C1_11 1_555 1_555
H2_11 C2_11 1_555 1_555
C3_11 C2_11 1_555 1_555
C4_11 C3_11 1_555 1_555
H3_11 C4_11 1_555 1_555
C5_11 N1_11 1_555 1_555
H4_11 C5_11 1_555 1_555
C6_11 H5_11 1_555 1_555
C7_11 C6_11 1_555 1_555
H6_11 C7_11 1_555 1_555
C8_11 C3_11 1_555 1_555
C9_11 C8_11 1_555 1_555
H7_11 C9_11 1_555 1_555
C10_11 N5_11 1_555 1_555
H8_11 C10_11 1_555 1_555
N3_11 Zn3_6 1_555 1_555
C25_11 N3_11 1_555 1_555
C29_11 N3_11 1_555 1_555
H20_11 C29_11 1_555 1_555
O11_11 Zn3_6 1_555 1_555
C4_11 C5_11 1_555 1_555
C7_11 C8_11 1_555 1_555
C9_11 C10_11 1_555 1_555
Zn3_5 N1_12 1_555 1_555
N1_12 C1_12 1_555 1_555
N5_8 C6_12 1_555 1_555
C1_12 H1_12 1_555 1_555
C2_12 C1_12 1_555 1_555
H2_12 C2_12 1_555 1_555
C3_12 C2_12 1_555 1_555
C4_12 C3_12 1_555 1_555
H3_12 C4_12 1_555 1_555
C5_12 N1_12 1_555 1_555
H4_12 C5_12 1_555 1_555
C6_12 H5_12 1_555 1_555
C7_12 C6_12 1_555 1_555
H6_12 C7_12 1_555 1_555
C8_12 C3_12 1_555 1_555
C9_12 C8_12 1_555 1_555
H7_12 C9_12 1_555 1_555
C10_12 N5_8 1_555 1_555
H8_12 C10_12 1_555 1_555
N3_12 Zn3_5 1_555 1_555
N5_7 C30_12 1_555 1_555
C25_12 N3_12 1_555 1_555
H17_12 C25_12 1_555 1_555
C26_12 C25_12 1_555 1_555
H18_12 C26_12 1_555 1_555
C27_12 C26_12 1_555 1_555
C28_12 C27_12 1_555 1_555
H19_12 C28_12 1_555 1_555
C29_12 N3_12 1_555 1_555
H20_12 C29_12 1_555 1_555
C30_12 H21_12 1_555 1_555
C31_12 C30_12 1_555 1_555
H22_12 C31_12 1_555 1_555
C32_12 C27_12 1_555 1_555
C33_12 C32_12 1_555 1_555
H23_12 C33_12 1_555 1_555
C34_12 N5_7 1_555 1_555
H24_12 C34_12 1_555 1_555
O11_12 Zn3_5 1_555 1_555
C4_12 C5_12 1_555 1_555
C7_12 C8_12 1_555 1_555
C9_12 C10_12 1_555 1_555
C28_12 C29_12 1_555 1_555
C31_12 C32_12 1_555 1_555
C33_12 C34_12 1_555 1_555
Zn1_7 N1_13 1_555 1_555
N1_13 C1_13 1_555 1_555
N5_5 C6_13 1_555 1_555
C1_13 H1_13 1_555 1_555
C2_13 C1_13 1_555 1_555
H2_13 C2_13 1_555 1_555
C3_13 C2_13 1_555 1_555
C4_13 C3_13 1_555 1_555
H3_13 C4_13 1_555 1_555
C5_13 N1_13 1_555 1_555
H4_13 C5_13 1_555 1_555
C6_13 H5_13 1_555 1_555
C7_13 C6_13 1_555 1_555
H6_13 C7_13 1_555 1_555
C8_13 C3_13 1_555 1_555
C9_13 C8_13 1_555 1_555
H7_13 C9_13 1_555 1_555
C10_13 N5_5 1_555 1_555
H8_13 C10_13 1_555 1_555
O1_7 Zn1_7 1_555 1_555
O12_4 C11_11 1_555 1_555
C11_11 O1_7 1_555 1_555
C12_11 C11_11 1_555 1_555
C13_11 C12_11 1_555 1_555
C14_11 C13_11 1_555 1_555
H9_11 C14_11 1_555 1_555
C15_11 C14_11 1_555 1_555
H10_11 C15_11 1_555 1_555
C16_11 C15_11 1_555 1_555
H11_10 C16_11 1_555 1_555
C17_11 C12_11 1_555 1_555
H12_11 C17_11 1_555 1_555
S1_11 C13_11 1_555 1_555
O3_11 S1_11 1_555 1_555
O4_11 S1_11 1_555 1_555
O13_4 S1_11 1_555 1_555
N3_13 Zn1_7 1_555 1_555
N5_6 C30_13 1_555 1_555
C25_13 N3_13 1_555 1_555
H17_13 C25_13 1_555 1_555
C26_13 C25_13 1_555 1_555
H18_13 C26_13 1_555 1_555
C27_13 C26_13 1_555 1_555
C28_13 C27_13 1_555 1_555
H19_13 C28_13 1_555 1_555
C29_13 N3_13 1_555 1_555
H20_13 C29_13 1_555 1_555
C30_13 H21_13 1_555 1_555
C31_13 C30_13 1_555 1_555
H22_13 C31_13 1_555 1_555
C32_13 C27_13 1_555 1_555
C33_13 C32_13 1_555 1_555
H23_13 C33_13 1_555 1_555
C34_13 N5_6 1_555 1_555
H24_13 C34_13 1_555 1_555
O11_13 Zn1_7 1_555 1_555
C4_13 C5_13 1_555 1_555
C7_13 C8_13 1_555 1_555
C9_13 C10_13 1_555 1_555
C16_11 C17_11 1_555 1_555
C28_13 C29_13 1_555 1_555
C31_13 C32_13 1_555 1_555
C33_13 C34_13 1_555 1_555
O6_7 C18_11 1_555 1_555
C18_11 O12_5 1_555 1_555
C19_11 C18_11 1_555 1_555
C20_11 C19_11 1_555 1_555
C21_11 C20_11 1_555 1_555
H13_11 C21_11 1_555 1_555
C24_11 C19_11 1_555 1_555
H16_11 C24_11 1_555 1_555
S2_11 C20_11 1_555 1_555
O8_11 S2_11 1_555 1_555
O9_11 S2_11 1_555 1_555
Zn3_7 O6_7 1_555 1_555
S2_11 O13_5 1_555 1_555
H14_11 C22_11 1_555 1_555
C23_11 C22_11 1_555 1_555
H15_10 C23_11 1_555 1_555
C30_14 H21_14 1_555 1_555
C31_14 C30_14 1_555 1_555
H22_14 C31_14 1_555 1_555
N5_10 C6_14 1_555 1_555
H2_14 C2_14 1_555 1_555
C3_14 C2_14 1_555 1_555
C4_14 C3_14 1_555 1_555
H3_14 C4_14 1_555 1_555
C6_14 H5_14 1_555 1_555
C7_14 C6_14 1_555 1_555
H6_14 C7_14 1_555 1_555
C8_14 C3_14 1_555 1_555
C9_14 C8_14 1_555 1_555
H7_14 C9_14 1_555 1_555
C10_14 N5_10 1_555 1_555
H8_14 C10_14 1_555 1_555
O6_8 C18_12 1_555 1_555
C18_12 O12_10 1_555 1_555
C19_12 C18_12 1_555 1_555
C20_12 C19_12 1_555 1_555
C21_12 C20_12 1_555 1_555
H13_12 C21_12 1_555 1_555
C24_12 C19_12 1_555 1_555
H16_12 C24_12 1_555 1_555
S2_12 C20_12 1_555 1_555
O8_12 S2_12 1_555 1_555
O9_12 S2_12 1_555 1_555
Zn3_8 O6_8 1_555 1_555
C7_14 C8_14 1_555 1_555
C9_14 C10_14 1_555 1_555
S2_12 O13_10 1_555 1_555
H14_12 C22_12 1_555 1_555
C23_12 C22_12 1_555 1_555
H15_11 C23_12 1_555 1_555
Zn1_8 N1_14 1_555 1_555
N1_14 C1_14 1_555 1_555
C1_14 H1_14 1_555 1_555
C5_14 N1_14 1_555 1_555
H4_14 C5_14 1_555 1_555
O1_8 Zn1_8 1_555 1_555
O12_15 C11_12 1_555 1_555
C11_12 O1_8 1_555 1_555
C12_12 C11_12 1_555 1_555
C13_12 C12_12 1_555 1_555
C14_12 C13_12 1_555 1_555
H9_12 C14_12 1_555 1_555
C15_12 C14_12 1_555 1_555
H10_12 C15_12 1_555 1_555
C16_12 C15_12 1_555 1_555
H11_11 C16_12 1_555 1_555
C17_12 C12_12 1_555 1_555
H12_12 C17_12 1_555 1_555
S1_12 C13_12 1_555 1_555
O3_12 S1_12 1_555 1_555
O4_12 S1_12 1_555 1_555
O13_15 S1_12 1_555 1_555
N3_14 Zn1_8 1_555 1_555
C25_14 N3_14 1_555 1_555
C26_14 C25_14 1_555 1_555
C27_14 C26_14 1_555 1_555
C28_14 C27_14 1_555 1_555
H19_14 C28_14 1_555 1_555
C29_14 N3_14 1_555 1_555
H20_14 C29_14 1_555 1_555
C32_14 C27_14 1_555 1_555
C33_14 C32_14 1_555 1_555
H23_14 C33_14 1_555 1_555
C34_14 N5_9 1_555 1_555
H24_14 C34_14 1_555 1_555
O11_14 Zn1_8 1_555 1_555
C16_12 C17_12 1_555 1_555
C28_14 C29_14 1_555 1_555
C33_14 C34_14 1_555 1_555
C30_15 H21_15 1_555 1_555
C31_15 C30_15 1_555 1_555
H22_15 C31_15 1_555 1_555
Zn3_8 N1_15 1_555 1_555
N1_15 C1_15 1_555 1_555
N5_15 C6_15 1_555 1_555
C1_15 H1_15 1_555 1_555
C2_15 C1_15 1_555 1_555
H2_15 C2_15 1_555 1_555
C3_15 C2_15 1_555 1_555
C4_15 C3_15 1_555 1_555
H3_15 C4_15 1_555 1_555
C5_15 N1_15 1_555 1_555
H4_15 C5_15 1_555 1_555
C6_15 H5_15 1_555 1_555
C7_15 C6_15 1_555 1_555
H6_15 C7_15 1_555 1_555
C8_15 C3_15 1_555 1_555
C9_15 C8_15 1_555 1_555
H7_15 C9_15 1_555 1_555
C10_15 N5_15 1_555 1_555
H8_15 C10_15 1_555 1_555
N3_15 Zn3_8 1_555 1_555
C25_15 N3_15 1_555 1_555
C26_15 C25_15 1_555 1_555
C27_15 C26_15 1_555 1_555
C28_15 C27_15 1_555 1_555
H19_15 C28_15 1_555 1_555
C29_15 N3_15 1_555 1_555
H20_15 C29_15 1_555 1_555
C32_15 C27_15 1_555 1_555
C33_15 C32_15 1_555 1_555
H23_15 C33_15 1_555 1_555
C34_15 N5_16 1_555 1_555
H24_15 C34_15 1_555 1_555
O11_15 Zn3_8 1_555 1_555
C4_15 C5_15 1_555 1_555
C7_15 C8_15 1_555 1_555
C9_15 C10_15 1_555 1_555
C28_15 C29_15 1_555 1_555
C33_15 C34_15 1_555 1_555
N5_4 C6_16 1_555 1_555
H2_16 C2_16 1_555 1_555
C3_16 C2_16 1_555 1_555
C4_16 C3_16 1_555 1_555
H3_16 C4_16 1_555 1_555
C6_16 H5_16 1_555 1_555
C7_16 C6_16 1_555 1_555
H6_16 C7_16 1_555 1_555
C8_16 C3_16 1_555 1_555
C9_16 C8_16 1_555 1_555
H7_16 C9_16 1_555 1_555
C10_16 N5_4 1_555 1_555
H8_16 C10_16 1_555 1_555
C7_16 C8_16 1_555 1_555
C9_16 C10_16 1_555 1_555
Zn3_7 N1_16 1_555 1_555
N1_16 C1_16 1_555 1_555
C1_16 H1_16 1_555 1_555
C5_16 N1_16 1_555 1_555
H4_16 C5_16 1_555 1_555
N3_16 Zn3_7 1_555 1_555
N5_3 C30_16 1_555 1_555
C25_16 N3_16 1_555 1_555
H17_16 C25_16 1_555 1_555
C26_16 C25_16 1_555 1_555
H18_16 C26_16 1_555 1_555
C27_16 C26_16 1_555 1_555
C28_16 C27_16 1_555 1_555
H19_16 C28_16 1_555 1_555
C29_16 N3_16 1_555 1_555
H20_16 C29_16 1_555 1_555
C30_16 H21_16 1_555 1_555
C31_16 C30_16 1_555 1_555
H22_16 C31_16 1_555 1_555
C32_16 C27_16 1_555 1_555
C33_16 C32_16 1_555 1_555
H23_16 C33_16 1_555 1_555
C34_16 N5_3 1_555 1_555
H24_16 C34_16 1_555 1_555
O11_16 Zn3_7 1_555 1_555
C28_16 C29_16 1_555 1_555
C31_16 C32_16 1_555 1_555
C33_16 C34_16 1_555 1_555
C13_13 C12_13 1_555 1_555
C14_13 C13_13 1_555 1_555
H9_13 C14_13 1_555 1_555
C15_13 C14_13 1_555 1_555
H10_13 C15_13 1_555 1_555
C16_13 C15_13 1_555 1_555
C17_13 C12_13 1_555 1_555
S1_13 C13_13 1_555 1_555
O3_13 S1_13 1_555 1_555
O4_13 S1_13 1_555 1_555
O13_16 S1_13 1_555 1_555
C20_13 C19_13 1_555 1_555
C21_13 C20_13 1_555 1_555
H13_13 C21_13 1_555 1_555
C24_13 C19_13 1_555 1_555
S2_13 C20_13 1_555 1_555
O8_13 S2_13 1_555 1_555
O9_13 S2_13 1_555 1_555
C16_13 C17_13 1_555 1_555
S2_13 O13_9 1_555 1_555
H14_13 C22_13 1_555 1_555
C23_13 C22_13 1_555 1_555
H15_12 C23_13 1_555 1_555
O12_16 C11_13 1_555 1_555
C11_13 O11_14 1_555 1_555
O11_15 C18_13 1_555 1_555
C18_13 O12_9 1_555 1_555
O12_3 C11_14 1_555 1_555
C11_14 O11_13 1_555 1_555
C12_14 C11_14 1_555 1_555
C13_14 C12_14 1_555 1_555
C14_14 C13_14 1_555 1_555
H9_14 C14_14 1_555 1_555
C15_14 C14_14 1_555 1_555
H10_14 C15_14 1_555 1_555
C16_14 C15_14 1_555 1_555
H11_12 C16_14 1_555 1_555
C17_14 C12_14 1_555 1_555
H12_14 C17_14 1_555 1_555
S1_14 C13_14 1_555 1_555
O3_14 S1_14 1_555 1_555
O4_14 S1_14 1_555 1_555
O13_3 S1_14 1_555 1_555
O11_16 C18_14 1_555 1_555
C18_14 O12_6 1_555 1_555
C19_14 C18_14 1_555 1_555
C20_14 C19_14 1_555 1_555
C21_14 C20_14 1_555 1_555
H13_14 C21_14 1_555 1_555
C24_14 C19_14 1_555 1_555
H16_14 C24_14 1_555 1_555
S2_14 C20_14 1_555 1_555
O8_14 S2_14 1_555 1_555
O9_14 S2_14 1_555 1_555
C16_14 C17_14 1_555 1_555
S2_14 O13_6 1_555 1_555
H14_14 C22_14 1_555 1_555
C23_14 C22_14 1_555 1_555
C13_15 C12_15 1_555 1_555
C14_15 C13_15 1_555 1_555
H9_15 C14_15 1_555 1_555
C15_15 C14_15 1_555 1_555
H10_15 C15_15 1_555 1_555
C16_15 C15_15 1_555 1_555
H11_13 C16_15 1_555 1_555
C17_15 C12_15 1_555 1_555
S1_15 C13_15 1_555 1_555
O3_15 S1_15 1_555 1_555
O4_15 S1_15 1_555 1_555
O13_12 S1_15 1_555 1_555
C16_15 C17_15 1_555 1_555
C20_15 C19_15 1_555 1_555
C21_15 C20_15 1_555 1_555
H13_15 C21_15 1_555 1_555
C22_15 C21_15 1_555 1_555
H14_15 C22_15 1_555 1_555
C23_15 C22_15 1_555 1_555
H15_13 C23_15 1_555 1_555
C24_15 C19_15 1_555 1_555
S2_15 C20_15 1_555 1_555
O8_15 S2_15 1_555 1_555
O9_15 S2_15 1_555 1_555
C23_15 C24_15 1_555 1_555
S2_15 O13_13 1_555 1_555
O12_12 C11_15 1_555 1_555
C11_15 O11_10 1_555 1_555
O11_11 C18_15 1_555 1_555
C18_15 O12_13 1_555 1_555
O11_12 C18_16 1_555 1_555
C18_16 O12_2 1_555 1_555
C19_16 C18_16 1_555 1_555
C20_16 C19_16 1_555 1_555
C21_16 C20_16 1_555 1_555
H13_16 C21_16 1_555 1_555
C22_16 C21_16 1_555 1_555
H14_16 C22_16 1_555 1_555
C23_16 C22_16 1_555 1_555
H15_14 C23_16 1_555 1_555
C24_16 C19_16 1_555 1_555
H16_16 C24_16 1_555 1_555
S2_16 C20_16 1_555 1_555
O8_16 S2_16 1_555 1_555
O9_16 S2_16 1_555 1_555
C23_16 C24_16 1_555 1_555
S2_16 O13_2 1_555 1_555
O12_7 C11_16 1_555 1_555
C11_16 O11_9 1_555 1_555
C12_16 C11_16 1_555 1_555
C13_16 C12_16 1_555 1_555
C14_16 C13_16 1_555 1_555
H9_16 C14_16 1_555 1_555
C15_16 C14_16 1_555 1_555
H10_16 C15_16 1_555 1_555
C16_16 C15_16 1_555 1_555
H11_14 C16_16 1_555 1_555
C17_16 C12_16 1_555 1_555
H12_16 C17_16 1_555 1_555
S1_16 C13_16 1_555 1_555
O3_16 S1_16 1_555 1_555
O4_16 S1_16 1_555 1_555
O13_7 S1_16 1_555 1_555
C16_16 C17_16 1_555 1_555

#END
