
###############################################################################
#
# This file contains modified crystal structure data generated from the
# MOF subset of the Cambridge Structural Database (CSD) v543 
# hosted by the Cambridge Crystallographic Data Centre (CCDC).
#
# This work is licensed under the Creative Commons
# Attribution-NonCommercial-ShareAlike 4.0 International License.
# To view a copy of this license, visit
# http://creativecommons.org/licenses/by-nc-sa/4.0/
# or send a letter to
# Creative Commons, PO Box 1866, Mountain View, CA 94042, USA.
#
# CIF created using the CSD Python API on 29 September 2022
# The structure has been converted into the P1 space group
# The structure has a 3D framework
# The original CSD entry WEKLAB is in the triclinic crystal system
# The framework has been calculated to contain at least 10.0% void space
# The void calculation uses a probe of radius 1.32A, grid spacing 0.4
#
###############################################################################

data_WEKLAB
_chemical_formula_moiety         '(C84 H56 Mn3 N14 O18)n'
_symmetry_cell_setting           triclinic
_symmetry_space_group_name_H-M   'P 1'
_symmetry_Int_Tables_number      1
_space_group_name_Hall           'P 1'
loop_
_symmetry_equiv_pos_site_id
_symmetry_equiv_pos_as_xyz
1 x,y,z
_cell_length_a                   12.271(3)
_cell_length_b                   13.775(3)
_cell_length_c                   14.061(3)
_cell_angle_alpha                89.21(2)
_cell_angle_beta                 65.01(3)
_cell_angle_gamma                71.28(3)
_cell_volume                     2019.66
loop_
_atom_site_label
_atom_site_type_symbol
_atom_site_fract_x
_atom_site_fract_y
_atom_site_fract_z
_atom_site_U_iso_or_equiv
_atom_site_thermal_displace_type
O5 O 0.2580(4) 0.7685(3) 0.7398(4) 0.0575 Uani
O6 O 0.3940(4) 0.6144(3) 0.6586(3) 0.0397 Uani
C26 C 0.0485(6) 0.6947(5) 0.8196(6) 0.0530 Uani
H16 H 0.0290 0.7651 0.8151 0.0630 Uiso
C27 C 0.1767(5) 0.6306(5) 0.7748(5) 0.0339 Uani
C28 C 0.2024(6) 0.5260(5) 0.7828(5) 0.0374 Uani
H17 H 0.2870 0.4809 0.7526 0.0450 Uiso
C29 C 0.1053(6) 0.4873(5) 0.8343(5) 0.0392 Uani
H18 H 0.1256 0.4171 0.8401 0.0470 Uiso
C30 C 0.2805(6) 0.6730(5) 0.7231(5) 0.0386 Uani
Mn3 Mn 0.5000 0.5000 0.5000 0.0285 Uani
Mn7 Mn 0.45844(8) 0.75790(7) 0.63377(8) 0.0324 Uani
N2 N 0.3720(5) 0.8817(4) 0.5613(4) 0.0397 Uani
C41 C 0.4268(7) 0.9328(5) 0.4799(6) 0.0555 Uani
H27 H 0.5147 0.9165 0.4397 0.0670 Uiso
C42 C 0.2478(6) 0.9287(5) 0.5954(5) 0.0414 Uani
H28 H 0.1862 0.9099 0.6505 0.0500 Uiso
O3 O 0.4821(4) 0.8447(3) 0.7363(4) 0.0554 Uani
O4 O 0.6645(4) 0.7473(3) 0.7393(4) 0.0500 Uani
C20 C 0.5771(6) 0.9250(4) 0.8106(5) 0.0332 Uani
C21 C 0.6818(6) 0.9216(5) 0.8287(5) 0.0446 Uani
H13 H 0.7507 0.8598 0.8092 0.0530 Uiso
C23 C 0.5765(6) 0.8303(5) 0.7578(5) 0.0371 Uani
O1 O 0.6664(3) 0.5292(3) 0.4799(3) 0.0405 Uani
O2 O 0.6401(3) 0.6962(3) 0.5111(3) 0.0406 Uani
N1 N 0.5684(5) 0.3622(4) 0.5733(4) 0.0389 Uani
N3 N 0.7235(4) 0.2387(4) 0.5909(4) 0.0329 Uani
C2 C 0.7100(5) 0.6006(4) 0.4762(4) 0.0276 Uani
C3 C 0.8520(5) 0.5737(4) 0.4269(4) 0.0269 Uani
C4 C 0.9117(5) 0.6463(4) 0.3978(5) 0.0383 Uani
H4 H 0.8611 0.7160 0.4126 0.0460 Uiso
C8 C 0.9314(5) 0.4707(4) 0.4054(5) 0.0387 Uani
H7 H 0.8943 0.4198 0.4244 0.0470 Uiso
C31 C 0.5163(6) 0.3029(4) 0.6467(5) 0.0394 Uani
H19 H 0.4294 0.3129 0.6822 0.0470 Uiso
C32 C 0.6103(6) 0.2278(5) 0.6597(5) 0.0403 Uani
H20 H 0.6001 0.1789 0.7059 0.0490 Uiso
C33 C 0.6927(6) 0.3208(5) 0.5430(5) 0.0401 Uani
H21 H 0.7526 0.3459 0.4936 0.0490 Uiso
C34 C 0.8500(6) 0.1804(4) 0.5790(5) 0.0359 Uani
C35 C 0.8667(6) 0.1436(4) 0.6653(5) 0.0388 Uani
H22 H 0.7964 0.1558 0.7310 0.0460 Uiso
C36 C 0.9895(6) 0.0881(4) 0.6532(5) 0.0398 Uani
C39 C 0.9548(6) 0.1645(5) 0.4811(5) 0.0404 Uani
H25 H 0.9432 0.1917 0.4238 0.0480 Uiso
O10 O 0.3336(3) 0.4708(3) 0.5201(3) 0.0405 Uani
O11 O 0.3599(3) 0.3038(3) 0.4889(3) 0.0406 Uani
O14 O 0.5179(4) 0.1553(3) 0.2637(4) 0.0554 Uani
O18 O 0.7420(4) 0.2315(3) 0.2602(4) 0.0575 Uani
O21 O 0.6060(4) 0.3856(3) 0.3414(3) 0.0397 Uani
N8 N 0.4316(5) 0.6378(4) 0.4267(4) 0.0389 Uani
N11 N 0.6280(5) 0.1183(4) 0.4387(4) 0.0397 Uani
N12 N 0.2765(4) 0.7613(4) 0.4091(4) 0.0329 Uani
C44 C 0.2900(5) 0.3994(4) 0.5238(4) 0.0276 Uani
C45 C 0.1480(5) 0.4263(4) 0.5731(4) 0.0269 Uani
C46 C 0.0883(5) 0.3537(4) 0.6022(5) 0.0383 Uani
H32 H 0.1389 0.2840 0.5874 0.0460 Uiso
C50 C 0.0686(5) 0.5293(4) 0.5946(5) 0.0387 Uani
H35 H 0.1057 0.5802 0.5756 0.0470 Uiso
C73 C 0.4837(6) 0.6971(4) 0.3533(5) 0.0394 Uani
H47 H 0.5706 0.6871 0.3178 0.0470 Uiso
C74 C 0.3897(6) 0.7722(5) 0.3403(5) 0.0403 Uani
H48 H 0.3999 0.8211 0.2941 0.0490 Uiso
C75 C 0.3073(6) 0.6792(5) 0.4570(5) 0.0401 Uani
H49 H 0.2474 0.6541 0.5064 0.0490 Uiso
C76 C 0.1500(6) 0.8196(4) 0.4210(5) 0.0359 Uani
C77 C 0.1333(6) 0.8564(4) 0.3347(5) 0.0388 Uani
H50 H 0.2036 0.8442 0.2690 0.0460 Uiso
C78 C 0.0105(6) 0.9119(4) 0.3468(5) 0.0398 Uani
C81 C 0.0452(6) 0.8355(5) 0.5189(5) 0.0404 Uani
H53 H 0.0568 0.8083 0.5762 0.0480 Uiso
Mn5 Mn 0.54156(8) 0.24210(7) 0.36623(8) 0.0324 Uani
O15 O 0.3355(4) 0.2527(3) 0.2607(4) 0.0500 Uani
C62 C 0.4229(6) 0.0750(4) 0.1894(5) 0.0332 Uani
C63 C 0.3182(6) 0.0784(5) 0.1713(5) 0.0446 Uani
H41 H 0.2493 0.1402 0.1908 0.0530 Uiso
C65 C 0.4235(6) 0.1697(5) 0.2422(5) 0.0371 Uani
C83 C 0.5732(7) 0.0672(5) 0.5201(6) 0.0555 Uani
H55 H 0.4853 0.0835 0.5603 0.0670 Uiso
C84 C 0.7522(6) 0.0713(5) 0.4046(5) 0.0414 Uani
H56 H 0.8138 0.0901 0.3495 0.0500 Uiso
C68 C 0.9515(6) 0.3053(5) 0.1804(6) 0.0530 Uani
H44 H 0.9710 0.2349 0.1849 0.0630 Uiso
C69 C 0.8233(5) 0.3694(5) 0.2252(5) 0.0339 Uani
C70 C 0.7976(6) 0.4740(5) 0.2172(5) 0.0374 Uani
H45 H 0.7130 0.5191 0.2474 0.0450 Uiso
C71 C 0.8947(6) 0.5127(5) 0.1657(5) 0.0392 Uani
H46 H 0.8744 0.5829 0.1599 0.0470 Uiso
C72 C 0.7195(6) 0.3270(5) 0.2769(5) 0.0386 Uani
O7 O 0.2949(4) 0.6294(3) 0.2388(3) 0.0420 Uani
N4 N 0.2195(5) 0.0074(4) 0.5414(4) 0.0394 Uani
N5 N 0.2556(4) 0.4788(3) 0.2713(4) 0.0325 Uani
H1 H 0.2932 0.4133 0.2663 0.0390 Uiso
C5 C 0.0433(5) 0.6196(4) 0.3477(5) 0.0374 Uani
H5 H 0.0801 0.6705 0.3278 0.0450 Uiso
C6 C 0.1203(5) 0.5159(4) 0.3272(4) 0.0273 Uani
C7 C 0.0630(5) 0.4413(4) 0.3568(5) 0.0344 Uani
H6 H 0.1135 0.3716 0.3439 0.0410 Uiso
C9 C 0.3335(5) 0.5342(4) 0.2244(5) 0.0298 Uani
C10 C 0.4689(5) 0.4742(4) 0.1457(4) 0.0258 Uani
C11 C 0.5539(5) 0.5276(4) 0.1071(4) 0.0313 Uani
H8 H 0.5278 0.5958 0.1370 0.0370 Uiso
C12 C 0.6773(5) 0.4822(4) 0.0250(4) 0.0268 Uani
C14 C 0.6311(5) 0.3246(4) 0.0184(4) 0.0282 Uani
C15 C 0.5084(5) 0.3720(4) 0.1000(4) 0.0311 Uani
H10 H 0.4523 0.3354 0.1243 0.0370 Uiso
H23 H 0.0019 0.0641 0.7113 0.0480 Uiso
C37 C 0.0934(6) 0.0688(4) 0.5546(5) 0.0367 Uani
C38 C 0.0761(6) 0.1083(5) 0.4695(5) 0.0470 Uani
H24 H 0.1464 0.0971 0.4039 0.0560 Uiso
C40 C 0.3360(6) 0.0102(5) 0.4659(6) 0.0526 Uani
H26 H 0.3490 0.0556 0.4162 0.0630 Uiso
O8 O 0.7831(4) 0.1577(3) 0.9269(4) 0.0507 Uani
O9 O 0.7000(4) 0.6459(3) 0.9982(4) 0.0526 Uani
N6 N 0.5752(5) 0.1934(3) 0.9550(4) 0.0385 Uani
H2 H 0.5010 0.2413 0.9834 0.0460 Uiso
N7 N 0.8826(4) 0.5051(3) 0.9270(4) 0.0333 Uani
H3 H 0.9107 0.4386 0.9203 0.0400 Uiso
C1 C 0.9775(5) 0.5514(5) 0.8778(5) 0.0338 Uani
C13 C 0.7168(5) 0.3791(4) 0.9817(4) 0.0291 Uani
H9 H 0.7997 0.3467 0.9288 0.0350 Uiso
C16 C 0.6729(6) 0.2161(5) 0.9621(5) 0.0350 Uani
C17 C 0.5815(6) 0.1013(4) 0.9068(5) 0.0329 Uani
C18 C 0.4766(6) 0.1044(5) 0.8908(5) 0.0442 Uani
H11 H 0.4062 0.1654 0.9125 0.0530 Uiso
C19 C 0.4750(6) 0.0174(5) 0.8426(5) 0.0468 Uani
H12 H 0.4040 0.0216 0.8319 0.0560 Uiso
C22 C 0.6856(6) 0.0080(5) 0.8748(5) 0.0445 Uani
H14 H 0.7573 0.0040 0.8846 0.0530 Uiso
C24 C 0.7545(6) 0.5515(5) 0.9829(5) 0.0347 Uani
C25 C 0.9483(6) 0.6574(5) 0.8708(6) 0.0518 Uani
H15 H 0.8635 0.7021 0.8998 0.0620 Uiso
O23 O 0.2169(4) 0.8423(3) 0.0731(4) 0.0507 Uani
O24 O 0.3000(4) 0.3541(3) 0.0018(4) 0.0526 Uani
N15 N 0.4248(5) 0.8066(3) 0.0450(4) 0.0385 Uani
H30 H 0.4990 0.7587 0.0166 0.0460 Uiso
N16 N 0.1174(4) 0.4949(3) 0.0730(4) 0.0333 Uani
H31 H 0.0893 0.5614 0.0797 0.0400 Uiso
C43 C 0.0225(5) 0.4486(5) 0.1222(5) 0.0338 Uani
C55 C 0.2832(5) 0.6209(4) 0.0183(4) 0.0291 Uani
H37 H 0.2003 0.6533 0.0712 0.0350 Uiso
C58 C 0.3271(6) 0.7839(5) 0.0379(5) 0.0350 Uani
C59 C 0.4185(6) 0.8987(4) 0.0932(5) 0.0329 Uani
C60 C 0.5234(6) 0.8956(5) 0.1092(5) 0.0442 Uani
H39 H 0.5938 0.8346 0.0875 0.0530 Uiso
C61 C 0.5250(6) 0.9826(5) 0.1574(5) 0.0468 Uani
H40 H 0.5960 0.9784 0.1681 0.0560 Uiso
C64 C 0.3144(6) 0.9920(5) 0.1252(5) 0.0445 Uani
H42 H 0.2427 0.9960 0.1154 0.0530 Uiso
C66 C 0.2455(6) 0.4485(5) 0.0171(5) 0.0347 Uani
C67 C 0.0517(6) 0.3426(5) 0.1292(6) 0.0518 Uani
H43 H 0.1365 0.2979 0.1002 0.0620 Uiso
O22 O 0.7051(4) 0.3706(3) 0.7612(3) 0.0420 Uani
N13 N 0.7805(5) 0.9926(4) 0.4586(4) 0.0394 Uani
N14 N 0.7444(4) 0.5212(3) 0.7287(4) 0.0325 Uani
H29 H 0.7068 0.5867 0.7337 0.0390 Uiso
C47 C 0.9567(5) 0.3804(4) 0.6523(5) 0.0374 Uani
H33 H 0.9199 0.3295 0.6722 0.0450 Uiso
C48 C 0.8797(5) 0.4841(4) 0.6728(4) 0.0273 Uani
C49 C 0.9370(5) 0.5587(4) 0.6432(5) 0.0344 Uani
H34 H 0.8865 0.6284 0.6561 0.0410 Uiso
C51 C 0.6665(5) 0.4658(4) 0.7756(5) 0.0298 Uani
C52 C 0.5311(5) 0.5258(4) 0.8543(4) 0.0258 Uani
C53 C 0.4461(5) 0.4724(4) 0.8929(4) 0.0313 Uani
H36 H 0.4722 0.4042 0.8630 0.0370 Uiso
C54 C 0.3227(5) 0.5178(4) 0.9750(4) 0.0268 Uani
C56 C 0.3689(5) 0.6754(4) 0.9816(4) 0.0282 Uani
C57 C 0.4916(5) 0.6280(4) 0.9000(4) 0.0311 Uani
H38 H 0.5477 0.6646 0.8757 0.0370 Uiso
H51 H 0.9981 0.9359 0.2887 0.0480 Uiso
C79 C 0.9066(6) 0.9312(4) 0.4454(5) 0.0367 Uani
C80 C 0.9239(6) 0.8917(5) 0.5305(5) 0.0470 Uani
H52 H 0.8536 0.9029 0.5961 0.0560 Uiso
C82 C 0.6640(6) 0.9898(5) 0.5341(6) 0.0526 Uani
H54 H 0.6510 0.9444 0.5838 0.0630 Uiso
loop_
_atom_site_aniso_label
_atom_site_aniso_U_11
_atom_site_aniso_U_22
_atom_site_aniso_U_33
_atom_site_aniso_U_23
_atom_site_aniso_U_13
_atom_site_aniso_U_12
O5 0.038 0.038 0.082 0.008 -0.01 -0.018
O6 0.026 0.048 0.04 0.005 -0.007 -0.017
C26 0.036 0.029 0.076 0.015 -0.009 -0.011
C27 0.026 0.037 0.036 0.008 -0.007 -0.017
C28 0.026 0.046 0.035 0.005 -0.004 -0.019
C29 0.034 0.031 0.048 0.009 -0.012 -0.014
C30 0.033 0.04 0.043 0.01 -0.016 -0.014
Mn3 0.0202 0.0223 0.0445 0.0068 -0.0153 -0.0078
Mn7 0.0208 0.0241 0.047 -0.0011 -0.01 -0.0077
N2 0.029 0.031 0.051 0 -0.014 -0.005
C41 0.037 0.056 0.065 0.008 -0.015 -0.016
C42 0.032 0.039 0.046 0.006 -0.016 -0.005
O3 0.056 0.045 0.065 -0.011 -0.03 -0.012
O4 0.046 0.025 0.068 -0.008 -0.018 -0.008
C20 0.043 0.024 0.028 0.002 -0.009 -0.015
C21 0.051 0.025 0.048 0.002 -0.016 -0.009
C23 0.036 0.035 0.03 0.002 -0.004 -0.014
O1 0.024 0.033 0.066 0.009 -0.019 -0.013
O2 0.02 0.035 0.055 -0.002 -0.006 -0.009
N1 0.035 0.032 0.052 0.01 -0.022 -0.011
N3 0.032 0.027 0.038 0.01 -0.015 -0.009
C2 0.023 0.029 0.025 0.002 -0.009 -0.004
C3 0.022 0.027 0.031 0.002 -0.01 -0.01
C4 0.027 0.022 0.056 -0.004 -0.011 -0.006
C8 0.03 0.031 0.057 0.008 -0.015 -0.019
C31 0.027 0.032 0.052 0.005 -0.011 -0.01
C32 0.044 0.029 0.044 0.009 -0.015 -0.014
C33 0.038 0.035 0.053 0.019 -0.024 -0.015
C34 0.035 0.025 0.041 0.005 -0.014 -0.006
C35 0.041 0.029 0.04 0.01 -0.019 -0.003
C36 0.041 0.028 0.04 0.005 -0.018 0.001
C39 0.045 0.036 0.039 0.015 -0.023 -0.007
O10 0.024 0.033 0.066 0.009 -0.019 -0.013
O11 0.02 0.035 0.055 -0.002 -0.006 -0.009
O14 0.056 0.045 0.065 -0.011 -0.03 -0.012
O18 0.038 0.038 0.082 0.008 -0.01 -0.018
O21 0.026 0.048 0.04 0.005 -0.007 -0.017
N8 0.035 0.032 0.052 0.01 -0.022 -0.011
N11 0.029 0.031 0.051 0 -0.014 -0.005
N12 0.032 0.027 0.038 0.01 -0.015 -0.009
C44 0.023 0.029 0.025 0.002 -0.009 -0.004
C45 0.022 0.027 0.031 0.002 -0.01 -0.01
C46 0.027 0.022 0.056 -0.004 -0.011 -0.006
C50 0.03 0.031 0.057 0.008 -0.015 -0.019
C73 0.027 0.032 0.052 0.005 -0.011 -0.01
C74 0.044 0.029 0.044 0.009 -0.015 -0.014
C75 0.038 0.035 0.053 0.019 -0.024 -0.015
C76 0.035 0.025 0.041 0.005 -0.014 -0.006
C77 0.041 0.029 0.04 0.01 -0.019 -0.003
C78 0.041 0.028 0.04 0.005 -0.018 0.001
C81 0.045 0.036 0.039 0.015 -0.023 -0.007
Mn5 0.0208 0.0241 0.047 -0.0011 -0.01 -0.0077
O15 0.046 0.025 0.068 -0.008 -0.018 -0.008
C62 0.043 0.024 0.028 0.002 -0.009 -0.015
C63 0.051 0.025 0.048 0.002 -0.016 -0.009
C65 0.036 0.035 0.03 0.002 -0.004 -0.014
C83 0.037 0.056 0.065 0.008 -0.015 -0.016
C84 0.032 0.039 0.046 0.006 -0.016 -0.005
C68 0.036 0.029 0.076 0.015 -0.009 -0.011
C69 0.026 0.037 0.036 0.008 -0.007 -0.017
C70 0.026 0.046 0.035 0.005 -0.004 -0.019
C71 0.034 0.031 0.048 0.009 -0.012 -0.014
C72 0.033 0.04 0.043 0.01 -0.016 -0.014
O7 0.027 0.03 0.053 -0.007 -0.002 -0.011
N4 0.028 0.035 0.047 0.008 -0.015 -0.003
N5 0.02 0.023 0.045 0.001 -0.006 -0.007
C5 0.023 0.022 0.062 0.004 -0.011 -0.012
C6 0.018 0.027 0.031 0.002 -0.006 -0.007
C7 0.023 0.018 0.057 0.002 -0.013 -0.007
C9 0.025 0.023 0.04 -0.004 -0.013 -0.008
C10 0.021 0.023 0.031 0 -0.009 -0.008
C11 0.034 0.029 0.031 -0.002 -0.015 -0.01
C12 0.021 0.028 0.032 0.003 -0.011 -0.01
C14 0.026 0.026 0.025 -0.004 -0.007 -0.005
C15 0.032 0.027 0.031 0.005 -0.009 -0.013
C37 0.037 0.031 0.039 0.005 -0.019 -0.005
C38 0.043 0.044 0.041 0.002 -0.012 -0.008
C40 0.043 0.04 0.065 0.021 -0.018 -0.011
O8 0.037 0.033 0.066 -0.015 -0.015 -0.002
O9 0.028 0.026 0.079 -0.009 -0.001 -0.009
N6 0.032 0.024 0.046 -0.01 -0.005 -0.009
N7 0.025 0.025 0.038 0.003 0 -0.013
C1 0.029 0.036 0.036 0.004 -0.012 -0.014
C13 0.02 0.024 0.033 -0.002 -0.005 -0.004
C16 0.04 0.03 0.029 -0.008 -0.008 -0.014
C17 0.04 0.028 0.031 0.006 -0.008 -0.023
C18 0.037 0.027 0.057 -0.003 -0.01 -0.011
C19 0.04 0.038 0.06 0 -0.018 -0.016
C22 0.05 0.035 0.049 0 -0.022 -0.015
C24 0.031 0.036 0.027 -0.004 -0.001 -0.015
C25 0.019 0.036 0.08 0.006 -0.003 -0.01
O23 0.037 0.033 0.066 -0.015 -0.015 -0.002
O24 0.028 0.026 0.079 -0.009 -0.001 -0.009
N15 0.032 0.024 0.046 -0.01 -0.005 -0.009
N16 0.025 0.025 0.038 0.003 0 -0.013
C43 0.029 0.036 0.036 0.004 -0.012 -0.014
C55 0.02 0.024 0.033 -0.002 -0.005 -0.004
C58 0.04 0.03 0.029 -0.008 -0.008 -0.014
C59 0.04 0.028 0.031 0.006 -0.008 -0.023
C60 0.037 0.027 0.057 -0.003 -0.01 -0.011
C61 0.04 0.038 0.06 0 -0.018 -0.016
C64 0.05 0.035 0.049 0 -0.022 -0.015
C66 0.031 0.036 0.027 -0.004 -0.001 -0.015
C67 0.019 0.036 0.08 0.006 -0.003 -0.01
O22 0.027 0.03 0.053 -0.007 -0.002 -0.011
N13 0.028 0.035 0.047 0.008 -0.015 -0.003
N14 0.02 0.023 0.045 0.001 -0.006 -0.007
C47 0.023 0.022 0.062 0.004 -0.011 -0.012
C48 0.018 0.027 0.031 0.002 -0.006 -0.007
C49 0.023 0.018 0.057 0.002 -0.013 -0.007
C51 0.025 0.023 0.04 -0.004 -0.013 -0.008
C52 0.021 0.023 0.031 0 -0.009 -0.008
C53 0.034 0.029 0.031 -0.002 -0.015 -0.01
C54 0.021 0.028 0.032 0.003 -0.011 -0.01
C56 0.026 0.026 0.025 -0.004 -0.007 -0.005
C57 0.032 0.027 0.031 0.005 -0.009 -0.013
C79 0.037 0.031 0.039 0.005 -0.019 -0.005
C80 0.043 0.044 0.041 0.002 -0.012 -0.008
C82 0.043 0.04 0.065 0.021 -0.018 -0.011
loop_
_geom_bond_atom_site_label_1
_geom_bond_atom_site_label_2
_geom_bond_site_symmetry_1
_geom_bond_site_symmetry_2
O5 C30 1_555 1_555
O6 C30 1_555 1_555
H16 C26 1_555 1_555
C27 C26 1_555 1_555
C28 C27 1_555 1_555
H17 C28 1_555 1_555
H18 C29 1_555 1_555
C30 C27 1_555 1_555
Mn3 O6 1_555 1_555
Mn7 O5 1_555 1_555
O6 Mn7 1_555 1_555
C28 C29 1_555 1_555
N2 C41 1_555 1_555
H27 C41 1_555 1_555
C42 N2 1_555 1_555
H28 C42 1_555 1_555
Mn7 N2 1_555 1_555
O3 C23 1_555 1_555
O4 C23 1_555 1_555
C21 C20 1_555 1_555
H13 C21 1_555 1_555
C23 C20 1_555 1_555
Mn7 O3 1_555 1_555
Mn3 O1 1_555 1_555
O1 C2 1_555 1_555
O2 C2 1_555 1_555
N1 Mn3 1_555 1_555
N3 C32 1_555 1_555
C2 C3 1_555 1_555
C3 C4 1_555 1_555
C4 H4 1_555 1_555
C8 C3 1_555 1_555
H7 C8 1_555 1_555
C31 N1 1_555 1_555
H19 C31 1_555 1_555
C32 C31 1_555 1_555
H20 C32 1_555 1_555
C33 N1 1_555 1_555
H21 C33 1_555 1_555
C34 N3 1_555 1_555
C35 C34 1_555 1_555
H22 C35 1_555 1_555
C36 C35 1_555 1_555
C39 C34 1_555 1_555
H25 C39 1_555 1_555
Mn7 O2 1_555 1_555
O10 Mn3 1_555 1_555
O11 C44 1_555 1_555
O14 Mn5 1_555 1_555
O18 Mn5 1_555 1_555
O21 Mn3 1_555 1_555
N8 Mn3 1_555 1_555
N11 Mn5 1_555 1_555
N12 C74 1_555 1_555
C44 O10 1_555 1_555
C45 C44 1_555 1_555
C46 C45 1_555 1_555
H32 C46 1_555 1_555
C50 C45 1_555 1_555
H35 C50 1_555 1_555
C73 N8 1_555 1_555
H47 C73 1_555 1_555
C74 C73 1_555 1_555
H48 C74 1_555 1_555
C75 N8 1_555 1_555
H49 C75 1_555 1_555
C76 N12 1_555 1_555
C77 C76 1_555 1_555
H50 C77 1_555 1_555
C78 C77 1_555 1_555
C81 C76 1_555 1_555
H53 C81 1_555 1_555
Mn5 O11 1_555 1_555
N3 C33 1_555 1_555
O21 Mn5 1_555 1_555
N12 C75 1_555 1_555
O14 C65 1_555 1_555
O15 C65 1_555 1_555
C63 C62 1_555 1_555
H41 C63 1_555 1_555
C65 C62 1_555 1_555
N11 C83 1_555 1_555
H55 C83 1_555 1_555
C84 N11 1_555 1_555
H56 C84 1_555 1_555
O18 C72 1_555 1_555
O21 C72 1_555 1_555
H44 C68 1_555 1_555
C69 C68 1_555 1_555
C70 C69 1_555 1_555
H45 C70 1_555 1_555
H46 C71 1_555 1_555
C72 C69 1_555 1_555
C70 C71 1_555 1_555
O7 C9 1_555 1_555
N4 C37 1_555 1_555
N5 H1 1_555 1_555
H5 C5 1_555 1_555
C6 N5 1_555 1_555
C7 C6 1_555 1_555
H6 C7 1_555 1_555
C9 N5 1_555 1_555
C10 C9 1_555 1_555
C11 C10 1_555 1_555
H8 C11 1_555 1_555
C12 C11 1_555 1_555
C15 C10 1_555 1_555
H10 C15 1_555 1_555
C38 C37 1_555 1_555
H24 C38 1_555 1_555
C40 N4 1_555 1_555
H26 C40 1_555 1_555
C5 C6 1_555 1_555
C14 C15 1_555 1_555
O8 C16 1_555 1_555
O9 C24 1_555 1_555
N6 H2 1_555 1_555
N7 H3 1_555 1_555
C1 N7 1_555 1_555
H9 C13 1_555 1_555
C16 N6 1_555 1_555
C17 N6 1_555 1_555
C18 C17 1_555 1_555
H11 C18 1_555 1_555
C19 C18 1_555 1_555
H12 C19 1_555 1_555
C22 C17 1_555 1_555
H14 C22 1_555 1_555
C24 N7 1_555 1_555
C25 C1 1_555 1_555
H15 C25 1_555 1_555
O23 C58 1_555 1_555
O24 C66 1_555 1_555
N15 H30 1_555 1_555
N16 H31 1_555 1_555
C43 N16 1_555 1_555
H37 C55 1_555 1_555
C58 N15 1_555 1_555
C59 N15 1_555 1_555
C60 C59 1_555 1_555
H39 C60 1_555 1_555
C61 C60 1_555 1_555
H40 C61 1_555 1_555
C64 C59 1_555 1_555
H42 C64 1_555 1_555
C66 N16 1_555 1_555
C67 C43 1_555 1_555
H43 C67 1_555 1_555
O22 C51 1_555 1_555
N13 C79 1_555 1_555
N14 H29 1_555 1_555
H33 C47 1_555 1_555
C48 N14 1_555 1_555
C49 C48 1_555 1_555
H34 C49 1_555 1_555
C51 N14 1_555 1_555
C52 C51 1_555 1_555
C53 C52 1_555 1_555
H36 C53 1_555 1_555
C54 C53 1_555 1_555
C57 C52 1_555 1_555
H38 C57 1_555 1_555
C80 C79 1_555 1_555
H52 C80 1_555 1_555
C82 N13 1_555 1_555
H54 C82 1_555 1_555
C47 C48 1_555 1_555
C56 C57 1_555 1_555

#END
