
###############################################################################
#
# This file contains modified crystal structure data generated from the
# MOF subset of the Cambridge Structural Database (CSD) v543 
# hosted by the Cambridge Crystallographic Data Centre (CCDC).
#
# This work is licensed under the Creative Commons
# Attribution-NonCommercial-ShareAlike 4.0 International License.
# To view a copy of this license, visit
# http://creativecommons.org/licenses/by-nc-sa/4.0/
# or send a letter to
# Creative Commons, PO Box 1866, Mountain View, CA 94042, USA.
#
# CIF created using the CSD Python API on 29 September 2022
# The structure has been converted into the P1 space group
# The structure has a 3D framework
# The original CSD entry WELTUD is in the monoclinic crystal system
# The framework has been calculated to contain at least 10.0% void space
# The void calculation uses a probe of radius 1.32A, grid spacing 0.4
# The framework is charged, counterions have been retained in the structure
# H atom positions have been added when not included in the experimental data
#
###############################################################################

data_WELTUD
_chemical_formula_moiety         '(C112 H124 Cl40 Cu24 N168 O8)n'
_symmetry_cell_setting           triclinic
_symmetry_space_group_name_H-M   'P 1'
_symmetry_Int_Tables_number      1
_space_group_name_Hall           'P 1'
loop_
_symmetry_equiv_pos_site_id
_symmetry_equiv_pos_as_xyz
1 x,y,z
_cell_length_a                   21.3590(19)
_cell_length_b                   12.0195(8)
_cell_length_c                   28.954(2)
_cell_angle_alpha                90
_cell_angle_beta                 97.896(10)
_cell_angle_gamma                90
_cell_volume                     7362.73
loop_
_atom_site_label
_atom_site_type_symbol
_atom_site_fract_x
_atom_site_fract_y
_atom_site_fract_z
Cu14 Cu 0.02535(6) 0.06764(10) 0.62032(5)
Cu6 Cu 0.52535(6) 0.43236(10) 0.12032(5)
Cl1 Cl 0.54737(18) 0.4206(3) 0.04044(10)
Cl2 Cl 0.6219(2) 0.7747(3) 0.04799(12)
Cl3 Cl 0.4149(2) 0.7782(3) 0.02790(12)
H1 H 0.5221 0.6434 0.0069
H6 H 0.2285 0.3662 0.0054
O3 O 0.4465(4) 0.3457(6) 0.1056(3)
H31 H 0.4382 0.3463 0.0760
N47 N 0.6065(5) 0.5173(7) 0.1399(4)
N48 N 0.4774(5) 0.5757(8) 0.1319(4)
N50 N 0.5712(5) 0.2899(8) 0.1433(4)
H32 H 0.411699 0.380988 0.119821
Cu1 Cu 0.51090(7) 0.49042(9) 0.95602(5)
Cu2 Cu 0.59571(6) 0.73516(10) 0.96785(5)
Cu3 Cu 0.42621(6) 0.73409(10) 0.95262(5)
Cu4 Cu 0.36112(6) 0.56511(10) 0.63219(5)
Cu5 Cu 0.44228(7) 0.81123(10) 0.62364(5)
Cl4 Cl 0.31479(18) 0.5135(3) 0.55974(11)
Cl5 Cl 0.4307(3) 0.8699(3) 0.53865(12)
O1 O 0.5206(5) 0.6472(6) 0.9775(3)
O2 O 0.4465(4) 0.6543(6) 0.6056(3)
H2 H 0.4382 0.6537 0.5760
N1 N 0.4160(5) 0.4887(8) 0.9602(4)
N2 N 0.3814(5) 0.5877(7) 0.9570(3)
N3 N 0.3153(5) 0.4568(8) 0.9504(4)
N4 N 0.1741(6) 0.3311(9) 0.9014(4)
N5 N 0.1690(5) 0.3201(9) 0.9498(4)
N6 N 0.2571(5) 0.3974(8) 0.9423(4)
N7 N 0.6005(5) 0.4951(7) 0.9416(3)
N8 N 0.6321(5) 0.5969(8) 0.9402(4)
N9 N 0.6922(5) 0.4621(8) 0.9241(4)
N10 N 0.8345(6) 0.3177(9) 0.9204(5)
N11 N 0.8122(7) 0.3309(13) 0.8744(5)
N12 N 0.7471(5) 0.4082(8) 0.9122(4)
N15 N 0.5043(5) 0.0430(8) 0.9324(3)
N16 N 0.5041(5) 0.3341(7) 0.9333(4)
N17 N 0.4958(6) 0.3103(8) 0.8850(4)
N18 N 0.5033(5) 0.1547(7) 0.9236(3)
N19 N 0.3119(5) 0.7083(8) 0.6295(4)
N20 N 0.3441(5) 0.8082(8) 0.6258(3)
N21 N 0.2485(6) 0.8448(8) 0.6376(4)
N22 N 0.1263(6) 0.9696(10) 0.6869(4)
N23 N 0.1065(5) 0.9827(7) 0.6399(4)
N24 N 0.1958(5) 0.8991(8) 0.6465(4)
N25 N 0.4141(5) 0.4236(8) 0.6379(4)
N26 N 0.4774(5) 0.4243(8) 0.6319(4)
N27 N 0.4494(5) 0.2579(7) 0.6454(4)
N30 N 0.4493(5) 0.1459(7) 0.6557(4)
N31 N 0.0712(5) 0.2101(8) 0.6433(4)
N32 N 0.0380(5) 0.3087(7) 0.6411(3)
N33 N 0.1382(5) 0.3389(8) 0.6617(4)
N34 N 0.2793(7) 0.4621(14) 0.7145(5)
N35 N 0.2826(6) 0.4751(8) 0.6668(4)
N36 N 0.1937(6) 0.3936(8) 0.6750(4)
N37 N 0.4801(6) 0.5820(9) 0.8853(4)
N38 N 0.4462(5) 0.6789(7) 0.8871(3)
N39 N 0.4492(6) 0.6442(8) 0.8156(3)
N40 N 0.4070(5) 0.6217(7) 0.6948(3)
N41 N 0.4420(6) 0.7192(9) 0.6978(4)
N42 N 0.4401(6) 0.6542(9) 0.7673(3)
C1 C 0.3734(7) 0.4070(11) 0.9557(5)
H3 H 0.3817 0.3302 0.9561
C2 C 0.3230(6) 0.5656(10) 0.9510(5)
H4 H 0.2903 0.6184 0.9474
C3 C 0.2268(7) 0.3792(11) 0.8990(5)
H5 H 0.2422 0.3990 0.8713
C4 C 0.2195(6) 0.3616(10) 0.9728(4)
C5 C 0.6385(7) 0.4161(11) 0.9324(5)
H7 H 0.6294 0.3396 0.9317
C6 C 0.6884(7) 0.5764(10) 0.9293(5)
H8 H 0.7200 0.6288 0.9257
C7 C 0.7610(13) 0.386(3) 0.8705(9)
H9 H 0.7368 0.4068 0.8423
C8 C 0.7929(7) 0.3680(11) 0.9431(6)
H10 H 0.7954 0.3742 0.9757
H12 H 0.4125 0.0010 0.9348
C11 C 0.4944(8) 0.2040(11) 0.8800(5)
H13 H 0.4883 0.1659 0.8514
C12 C 0.5103(6) 0.2406(8) 0.9556(5)
H14 H 0.5183 0.2325 0.9882
C13 C 0.2550(6) 0.7299(9) 0.6343(4)
H15 H 0.2227 0.6773 0.6355
C14 C 0.3055(6) 0.8902(10) 0.6323(5)
H16 H 0.3155 0.9664 0.6332
C15 C 0.1807(8) 0.9172(11) 0.6913(5)
H17 H 0.2050 0.8958 0.7195
C16 C 0.1485(6) 0.9438(9) 0.6166(5)
H18 H 0.1466 0.9461 0.5840
C17 C 0.3988(7) 0.3255(10) 0.6459(6)
H19 H 0.3584 0.3024 0.6515
C18 C 0.4980(7) 0.3248(10) 0.6374(6)
H20 H 0.5398 0.3017 0.6362
C19 C 0.4583(9) 0.0988(11) 0.6975(5)
H21 H 0.4667 0.1372 0.7260
C20 C 0.4370(10) 0.0646(9) 0.6228(6)
H22 H 0.4257 0.0742 0.5905
C21 C 0.1301(8) 0.2301(11) 0.6573(5)
H23 H 0.1621 0.1762 0.6633
C22 C 0.0800(6) 0.3873(9) 0.6512(5)
H24 H 0.0715 0.4640 0.6513
C23 C 0.2240(9) 0.4144(16) 0.7181(7)
H25 H 0.2086 0.3978 0.7462
C24 C 0.2327(7) 0.4320(10) 0.6447(5)
H26 H 0.2239 0.4273 0.6121
C25 C 0.4815(7) 0.5638(11) 0.8401(4)
H27 H 0.5019 0.5040 0.8275
C26 C 0.4275(6) 0.7158(10) 0.8455(4)
H28 H 0.4034 0.7802 0.8376
C27 C 0.4052(7) 0.5879(10) 0.7380(4)
H29 H 0.3825 0.5260 0.7466
C28 C 0.4606(8) 0.7385(12) 0.7417(5)
H30 H 0.4843 0.8004 0.7538
Cu7 Cu 0.09571(6) 0.23516(10) 0.96785(5)
Cu9 Cu 0.92621(6) 0.23409(10) 0.95262(5)
Cu13 Cu 0.52535(6) 0.56764(10) 0.62032(5)
N43 N 0.6690(5) 0.8201(9) 0.9498(4)
N44 N 0.3345(6) 0.8177(9) 0.9204(5)
N45 N 0.5381(5) 0.8749(7) 0.9447(4)
N46 N 0.4732(5) 0.8757(8) 0.9462(3)
N49 N 0.4441(5) 0.9701(8) 0.6457(4)
N51 N 0.5380(5) 0.8087(7) 0.6411(3)
N28 N 0.4538(7) 0.9877(9) 0.6930(4)
C9 C 0.5556(7) 0.9760(10) 0.9366(5)
H11 H 0.5971 0.9986 0.9341
C10 C 0.4547(6) 0.9769(8) 0.9374(4)
Cu12 Cu 0.94228(7) 0.31123(10) 0.62364(5)
N13 N 0.5381(5) 0.1251(7) 0.4447(4)
N14 N 0.4732(5) 0.1243(8) 0.4462(3)
N28_2 N 0.4538(7) 0.0123(9) 0.1930(4)
N29 N 0.4441(5) 0.0299(8) 0.1457(4)
C9_2 C 0.5556(7) 0.0240(10) 0.4366(5)
H11_2 H 0.5971 0.0014 0.4341
C10_2 C 0.4547(6) 0.0231(8) 0.4374(4)
Cu8 Cu 0.59571(6) 0.26484(10) 0.46785(5)
Cu10 Cu 0.42621(6) 0.26591(10) 0.45262(5)
Cu11 Cu 0.44228(7) 0.18877(10) 0.12364(5)
Cu1_2 Cu 0.51090(7) 0.50958(9) 0.45602(5)
Cu4_2 Cu 0.36112(6) 0.43489(10) 0.13219(5)
Cl1_2 Cl 0.54737(18) 0.5794(3) 0.54044(10)
Cl2_2 Cl 0.6219(2) 0.2253(3) 0.54799(12)
Cl3_2 Cl 0.4149(2) 0.2218(3) 0.52790(12)
Cl4_2 Cl 0.31479(18) 0.4865(3) 0.05974(11)
Cl5_2 Cl 0.4307(3) 0.1301(3) 0.03865(12)
O1_2 O 0.5206(5) 0.3528(6) 0.4775(3)
H1_2 H 0.5221 0.3566 0.5069
N1_2 N 0.4160(5) 0.5113(8) 0.4602(4)
N2_2 N 0.3814(5) 0.4123(7) 0.4570(3)
N3_2 N 0.3153(5) 0.5432(8) 0.4504(4)
N4_2 N 0.1741(6) 0.6689(9) 0.4014(4)
N5_2 N 0.1690(5) 0.6799(9) 0.4498(4)
N6_2 N 0.2571(5) 0.6026(8) 0.4423(4)
N7_2 N 0.6005(5) 0.5049(7) 0.4416(3)
N8_2 N 0.6321(5) 0.4031(8) 0.4402(4)
N9_2 N 0.6922(5) 0.5379(8) 0.4241(4)
N10_2 N 0.8345(6) 0.6823(9) 0.4204(5)
N11_2 N 0.8122(7) 0.6691(13) 0.3744(5)
N12_2 N 0.7471(5) 0.5918(8) 0.4122(4)
N15_2 N 0.5043(5) 0.9570(8) 0.4324(3)
N16_2 N 0.5041(5) 0.6659(7) 0.4333(4)
N17_2 N 0.4958(6) 0.6897(8) 0.3850(4)
N18_2 N 0.5033(5) 0.8453(7) 0.4236(3)
N19_2 N 0.3119(5) 0.2917(8) 0.1295(4)
N20_2 N 0.3441(5) 0.1918(8) 0.1258(3)
N21_2 N 0.2485(6) 0.1552(8) 0.1376(4)
N22_2 N 0.1263(6) 0.0304(10) 0.1869(4)
N23_2 N 0.1065(5) 0.0173(7) 0.1399(4)
N24_2 N 0.1958(5) 0.1009(8) 0.1465(4)
N25_2 N 0.4141(5) 0.5764(8) 0.1379(4)
N27_2 N 0.4494(5) 0.7421(7) 0.1454(4)
N30_2 N 0.4493(5) 0.8541(7) 0.1557(4)
N31_2 N 0.0712(5) 0.7899(8) 0.1433(4)
N32_2 N 0.0380(5) 0.6913(7) 0.1411(3)
N33_2 N 0.1382(5) 0.6611(8) 0.1617(4)
N34_2 N 0.2793(7) 0.5379(14) 0.2145(5)
N35_2 N 0.2826(6) 0.5249(8) 0.1668(4)
N36_2 N 0.1937(6) 0.6064(8) 0.1750(4)
N37_2 N 0.4801(6) 0.4180(9) 0.3853(4)
N38_2 N 0.4462(5) 0.3211(7) 0.3871(3)
N39_2 N 0.4492(6) 0.3558(8) 0.3156(3)
N40_2 N 0.4070(5) 0.3783(7) 0.1948(3)
N41_2 N 0.4420(6) 0.2808(9) 0.1978(4)
N42_2 N 0.4401(6) 0.3458(9) 0.2673(3)
C1_2 C 0.3734(7) 0.5930(11) 0.4557(5)
H3_2 H 0.3817 0.6698 0.4561
C2_2 C 0.3230(6) 0.4344(10) 0.4510(5)
H4_2 H 0.2903 0.3816 0.4474
C3_2 C 0.2268(7) 0.6208(11) 0.3990(5)
H5_2 H 0.2422 0.6010 0.3713
C4_2 C 0.2195(6) 0.6384(10) 0.4728(4)
H6_2 H 0.2285 0.6338 0.5054
C5_2 C 0.6385(7) 0.5839(11) 0.4324(5)
H7_2 H 0.6294 0.6604 0.4317
C6_2 C 0.6884(7) 0.4236(10) 0.4293(5)
H8_2 H 0.7200 0.3712 0.4257
C7_2 C 0.7610(13) 0.614(3) 0.3705(9)
H9_2 H 0.7368 0.5932 0.3423
C8_2 C 0.7929(7) 0.6320(11) 0.4431(6)
H10_2 H 0.7954 0.6258 0.4757
H12_2 H 0.4125 0.9990 0.4348
C11_2 C 0.4944(8) 0.7960(11) 0.3800(5)
H13_2 H 0.4883 0.8341 0.3514
C12_2 C 0.5103(6) 0.7594(8) 0.4556(5)
H14_2 H 0.5183 0.7675 0.4882
C13_2 C 0.2550(6) 0.2701(9) 0.1343(4)
H15_2 H 0.2227 0.3227 0.1355
C14_2 C 0.3055(6) 0.1098(10) 0.1323(5)
H16_2 H 0.3155 0.0336 0.1332
C15_2 C 0.1807(8) 0.0828(11) 0.1913(5)
H17_2 H 0.2050 0.1042 0.2195
C16_2 C 0.1485(6) 0.0562(9) 0.1166(5)
H18_2 H 0.1466 0.0539 0.0840
C17_2 C 0.3988(7) 0.6745(10) 0.1459(6)
H19_2 H 0.3584 0.6976 0.1515
C18_2 C 0.4980(7) 0.6752(10) 0.1374(6)
H20_2 H 0.5398 0.6983 0.1362
C19_2 C 0.4583(9) 0.9012(11) 0.1975(5)
H21_2 H 0.4667 0.8628 0.2260
C20_2 C 0.4370(10) 0.9354(9) 0.1228(6)
H22_2 H 0.4257 0.9258 0.0905
C21_2 C 0.1301(8) 0.7699(11) 0.1573(5)
H23_2 H 0.1621 0.8238 0.1633
C22_2 C 0.0800(6) 0.6127(9) 0.1512(5)
H24_2 H 0.0715 0.5360 0.1513
C23_2 C 0.2240(9) 0.5856(16) 0.2181(7)
H25_2 H 0.2086 0.6022 0.2462
C24_2 C 0.2327(7) 0.5680(10) 0.1447(5)
H26_2 H 0.2239 0.5727 0.1121
C25_2 C 0.4815(7) 0.4362(11) 0.3401(4)
H27_2 H 0.5019 0.4960 0.3275
C26_2 C 0.4275(6) 0.2842(10) 0.3455(4)
H28_2 H 0.4034 0.2198 0.3376
C27_2 C 0.4052(7) 0.4121(10) 0.2380(4)
H29_2 H 0.3825 0.4740 0.2466
C28_2 C 0.4606(8) 0.2615(12) 0.2417(5)
H30_2 H 0.4843 0.1996 0.2538
Cu7_2 Cu 0.09571(6) 0.76484(10) 0.46785(5)
Cu9_2 Cu 0.92621(6) 0.76591(10) 0.45262(5)
Cu15 Cu 0.02535(6) 0.93236(10) 0.12032(5)
N43_2 N 0.6690(5) 0.1799(9) 0.4498(4)
N44_2 N 0.3345(6) 0.1823(9) 0.4204(5)
N47_2 N 0.6065(5) 0.4827(7) 0.6399(4)
N50_2 N 0.5712(5) 0.7101(8) 0.6433(4)
N51_2 N 0.5380(5) 0.1913(7) 0.1411(3)
H32_2 H 0.411699 0.619012 0.619821
Cu12_2 Cu 0.94228(7) 0.68877(10) 0.12364(5)
Cl2_3 Cl 0.1219(2) 0.2747(3) 0.04799(12)
H1_3 H 0.0221 0.1434 0.0069
O1_3 O 0.0206(5) 0.1472(6) 0.9775(3)
N8_3 N 0.1321(5) 0.0969(8) 0.9402(4)
C6_3 C 0.1884(7) 0.0764(10) 0.9293(5)
H8_3 H 0.2200 0.1288 0.9257
H27_3 H 0.0019 0.0040 0.8275
N45_2 N 0.0381(5) 0.3749(7) 0.9447(4)
Cl1_3 Cl 0.04737(18) 0.9206(3) 0.04044(10)
Cu1_3 Cu 0.01090(7) 0.99042(9) 0.95602(5)
N7_3 N 0.1005(5) 0.9951(7) 0.9416(3)
N9_3 N 0.1922(5) 0.9621(8) 0.9241(4)
N11_3 N 0.3122(7) 0.8309(13) 0.8744(5)
N12_3 N 0.2471(5) 0.9082(8) 0.9122(4)
N15_3 N 0.0043(5) 0.5430(8) 0.9324(3)
N16_3 N 0.0041(5) 0.8341(7) 0.9333(4)
N18_3 N 0.0033(5) 0.6547(7) 0.9236(3)
C5_3 C 0.1385(7) 0.9161(11) 0.9324(5)
H7_3 H 0.1294 0.8396 0.9317
C7_3 C 0.2610(13) 0.886(3) 0.8705(9)
H9_3 H 0.2368 0.9068 0.8423
C8_3 C 0.2929(7) 0.8680(11) 0.9431(6)
H10_3 H 0.2954 0.8742 0.9757
C9_3 C 0.0556(7) 0.4760(10) 0.9366(5)
H11_3 H 0.0971 0.4986 0.9341
C12_3 C 0.0103(6) 0.7406(8) 0.9556(5)
H14_3 H 0.0183 0.7325 0.9882
H20_3 H 0.0398 0.8017 0.6362
Cl3_3 Cl 0.9149(2) 0.2782(3) 0.02790(12)
N48_2 N 0.9774(5) 0.0757(8) 0.1319(4)
Cu4_3 Cu 0.86112(6) 0.06511(10) 0.63219(5)
Cl4_3 Cl 0.81479(18) 0.0135(3) 0.55974(11)
Cl5_3 Cl 0.9307(3) 0.3699(3) 0.53865(12)
O2_2 O 0.9465(4) 0.1543(6) 0.6056(3)
H2_2 H 0.9382 0.1537 0.5760
N2_3 N 0.8814(5) 0.0877(7) 0.9570(3)
N19_3 N 0.8119(5) 0.2083(8) 0.6295(4)
N20_3 N 0.8441(5) 0.3082(8) 0.6258(3)
N21_3 N 0.7485(6) 0.3448(8) 0.6376(4)
N22_3 N 0.6263(6) 0.4696(10) 0.6869(4)
N24_3 N 0.6958(5) 0.3991(8) 0.6465(4)
N37_3 N 0.9801(6) 0.0820(9) 0.8853(4)
N38_3 N 0.9462(5) 0.1789(7) 0.8871(3)
N39_3 N 0.9492(6) 0.1442(8) 0.8156(3)
N40_3 N 0.9070(5) 0.1217(7) 0.6948(3)
N41_3 N 0.9420(6) 0.2192(9) 0.6978(4)
N42_3 N 0.9401(6) 0.1542(9) 0.7673(3)
C2_3 C 0.8230(6) 0.0656(10) 0.9510(5)
H4_3 H 0.7903 0.1184 0.9474
C13_3 C 0.7550(6) 0.2299(9) 0.6343(4)
H15_3 H 0.7227 0.1773 0.6355
C14_3 C 0.8055(6) 0.3902(10) 0.6323(5)
H16_3 H 0.8155 0.4664 0.6332
C15_3 C 0.6807(8) 0.4172(11) 0.6913(5)
H17_3 H 0.7050 0.3958 0.7195
C16_3 C 0.6485(6) 0.4438(9) 0.6166(5)
H18_3 H 0.6466 0.4461 0.5840
C25_3 C 0.9815(7) 0.0638(11) 0.8401(4)
C26_3 C 0.9275(6) 0.2158(10) 0.8455(4)
H28_3 H 0.9034 0.2802 0.8376
C27_3 C 0.9052(7) 0.0879(10) 0.7380(4)
H29_3 H 0.8825 0.0260 0.7466
C28_3 C 0.9606(8) 0.2385(12) 0.7417(5)
H30_3 H 0.9843 0.3004 0.7538
N46_2 N 0.9732(5) 0.3757(8) 0.9462(3)
N49_2 N 0.9441(5) 0.4701(8) 0.6457(4)
H6_3 H 0.7285 0.8662 0.0054
O3_2 O 0.9465(4) 0.8457(6) 0.1056(3)
H31_2 H 0.9382 0.8463 0.0760
H32_3 H 0.911699 0.880988 0.119821
N1_3 N 0.9160(5) 0.9887(8) 0.9602(4)
N3_3 N 0.8153(5) 0.9568(8) 0.9504(4)
N4_3 N 0.6741(6) 0.8311(9) 0.9014(4)
N6_3 N 0.7571(5) 0.8974(8) 0.9423(4)
N17_3 N 0.9958(6) 0.8103(8) 0.8850(4)
N25_3 N 0.9141(5) 0.9236(8) 0.6379(4)
N26_2 N 0.9774(5) 0.9243(8) 0.6319(4)
N27_3 N 0.9494(5) 0.7579(7) 0.6454(4)
N28_3 N 0.9538(7) 0.4877(9) 0.6930(4)
N30_3 N 0.9493(5) 0.6459(7) 0.6557(4)
N33_3 N 0.6382(5) 0.8389(8) 0.6617(4)
N34_3 N 0.7793(7) 0.9621(14) 0.7145(5)
N35_3 N 0.7826(6) 0.9751(8) 0.6668(4)
N36_3 N 0.6937(6) 0.8936(8) 0.6750(4)
C1_3 C 0.8734(7) 0.9070(11) 0.9557(5)
H3_3 H 0.8817 0.8302 0.9561
C3_3 C 0.7268(7) 0.8792(11) 0.8990(5)
H5_3 H 0.7422 0.8990 0.8713
C4_3 C 0.7195(6) 0.8616(10) 0.9728(4)
C10_3 C 0.9547(6) 0.4769(8) 0.9374(4)
H12_3 H 0.9125 0.5010 0.9348
C11_3 C 0.9944(8) 0.7040(11) 0.8800(5)
H13_3 H 0.9883 0.6659 0.8514
C17_3 C 0.8988(7) 0.8255(10) 0.6459(6)
H19_3 H 0.8584 0.8024 0.6515
C18_3 C 0.9980(7) 0.8248(10) 0.6374(6)
C19_3 C 0.9583(9) 0.5988(11) 0.6975(5)
H21_3 H 0.9667 0.6372 0.7260
C20_3 C 0.9370(10) 0.5646(9) 0.6228(6)
H22_3 H 0.9257 0.5742 0.5905
C21_3 C 0.6301(8) 0.7301(11) 0.6573(5)
H23_3 H 0.6621 0.6762 0.6633
C22_3 C 0.5800(6) 0.8873(9) 0.6512(5)
H24_3 H 0.5715 0.9640 0.6513
C23_3 C 0.7240(9) 0.9144(16) 0.7181(7)
H25_3 H 0.7086 0.8978 0.7462
C24_3 C 0.7327(7) 0.9320(10) 0.6447(5)
H26_3 H 0.7239 0.9273 0.6121
Cu1_4 Cu 0.01090(7) 0.00958(9) 0.45602(5)
Cl1_4 Cl 0.04737(18) 0.0794(3) 0.54044(10)
N7_4 N 0.1005(5) 0.0049(7) 0.4416(3)
N9_4 N 0.1922(5) 0.0379(8) 0.4241(4)
N11_4 N 0.3122(7) 0.1691(13) 0.3744(5)
N12_4 N 0.2471(5) 0.0918(8) 0.4122(4)
N13_2 N 0.0381(5) 0.6251(7) 0.4447(4)
N15_4 N 0.0043(5) 0.4570(8) 0.4324(3)
N16_4 N 0.0041(5) 0.1659(7) 0.4333(4)
N18_4 N 0.0033(5) 0.3453(7) 0.4236(3)
C5_4 C 0.1385(7) 0.0839(11) 0.4324(5)
H7_4 H 0.1294 0.1604 0.4317
C7_4 C 0.2610(13) 0.114(3) 0.3705(9)
H9_4 H 0.2368 0.0932 0.3423
C8_4 C 0.2929(7) 0.1320(11) 0.4431(6)
H10_4 H 0.2954 0.1258 0.4757
C9_4 C 0.0556(7) 0.5240(10) 0.4366(5)
H11_4 H 0.0971 0.5014 0.4341
C12_4 C 0.0103(6) 0.2594(8) 0.4556(5)
H14_4 H 0.0183 0.2675 0.4882
H20_4 H 0.0398 0.1983 0.1362
Cl2_4 Cl 0.1219(2) 0.7253(3) 0.54799(12)
O1_4 O 0.0206(5) 0.8528(6) 0.4775(3)
H1_4 H 0.0221 0.8566 0.5069
N8_4 N 0.1321(5) 0.9031(8) 0.4402(4)
C6_4 C 0.1884(7) 0.9236(10) 0.4293(5)
H8_4 H 0.2200 0.8712 0.4257
H27_4 H 0.0019 0.9960 0.3275
N1_4 N 0.9160(5) 0.0113(8) 0.4602(4)
N3_4 N 0.8153(5) 0.0432(8) 0.4504(4)
N4_4 N 0.6741(6) 0.1689(9) 0.4014(4)
N6_4 N 0.7571(5) 0.1026(8) 0.4423(4)
N14_2 N 0.9732(5) 0.6243(8) 0.4462(3)
N17_4 N 0.9958(6) 0.1897(8) 0.3850(4)
N25_4 N 0.9141(5) 0.0764(8) 0.1379(4)
N27_4 N 0.9494(5) 0.2421(7) 0.1454(4)
N28_4 N 0.9538(7) 0.5123(9) 0.1930(4)
N29_2 N 0.9441(5) 0.5299(8) 0.1457(4)
N30_4 N 0.9493(5) 0.3541(7) 0.1557(4)
N33_4 N 0.6382(5) 0.1611(8) 0.1617(4)
N34_4 N 0.7793(7) 0.0379(14) 0.2145(5)
N35_4 N 0.7826(6) 0.0249(8) 0.1668(4)
N36_4 N 0.6937(6) 0.1064(8) 0.1750(4)
C1_4 C 0.8734(7) 0.0930(11) 0.4557(5)
H3_4 H 0.8817 0.1698 0.4561
C3_4 C 0.7268(7) 0.1208(11) 0.3990(5)
H5_4 H 0.7422 0.1010 0.3713
C4_4 C 0.7195(6) 0.1384(10) 0.4728(4)
H6_4 H 0.7285 0.1338 0.5054
C10_4 C 0.9547(6) 0.5231(8) 0.4374(4)
H12_4 H 0.9125 0.4990 0.4348
C11_4 C 0.9944(8) 0.2960(11) 0.3800(5)
H13_4 H 0.9883 0.3341 0.3514
C17_4 C 0.8988(7) 0.1745(10) 0.1459(6)
H19_4 H 0.8584 0.1976 0.1515
C18_4 C 0.9980(7) 0.1752(10) 0.1374(6)
C19_4 C 0.9583(9) 0.4012(11) 0.1975(5)
H21_4 H 0.9667 0.3628 0.2260
C20_4 C 0.9370(10) 0.4354(9) 0.1228(6)
H22_4 H 0.9257 0.4258 0.0905
C21_4 C 0.6301(8) 0.2699(11) 0.1573(5)
H23_4 H 0.6621 0.3238 0.1633
C22_4 C 0.5800(6) 0.1127(9) 0.1512(5)
H24_4 H 0.5715 0.0360 0.1513
C23_4 C 0.7240(9) 0.0856(16) 0.2181(7)
H25_4 H 0.7086 0.1022 0.2462
C24_4 C 0.7327(7) 0.0680(10) 0.1447(5)
H26_4 H 0.7239 0.0727 0.1121
H32_4 H 0.911699 0.119012 0.619821
Cu4_4 Cu 0.86112(6) 0.93489(10) 0.13219(5)
Cl3_4 Cl 0.9149(2) 0.7218(3) 0.52790(12)
Cl4_4 Cl 0.81479(18) 0.9865(3) 0.05974(11)
Cl5_4 Cl 0.9307(3) 0.6301(3) 0.03865(12)
N2_4 N 0.8814(5) 0.9123(7) 0.4570(3)
N19_4 N 0.8119(5) 0.7917(8) 0.1295(4)
N20_4 N 0.8441(5) 0.6918(8) 0.1258(3)
N21_4 N 0.7485(6) 0.6552(8) 0.1376(4)
N22_4 N 0.6263(6) 0.5304(10) 0.1869(4)
N24_4 N 0.6958(5) 0.6009(8) 0.1465(4)
N37_4 N 0.9801(6) 0.9180(9) 0.3853(4)
N38_4 N 0.9462(5) 0.8211(7) 0.3871(3)
N39_4 N 0.9492(6) 0.8558(8) 0.3156(3)
N40_4 N 0.9070(5) 0.8783(7) 0.1948(3)
N41_4 N 0.9420(6) 0.7808(9) 0.1978(4)
N42_4 N 0.9401(6) 0.8458(9) 0.2673(3)
C2_4 C 0.8230(6) 0.9344(10) 0.4510(5)
H4_4 H 0.7903 0.8816 0.4474
C13_4 C 0.7550(6) 0.7701(9) 0.1343(4)
H15_4 H 0.7227 0.8227 0.1355
C14_4 C 0.8055(6) 0.6098(10) 0.1323(5)
H16_4 H 0.8155 0.5336 0.1332
C15_4 C 0.6807(8) 0.5828(11) 0.1913(5)
H17_4 H 0.7050 0.6042 0.2195
C16_4 C 0.6485(6) 0.5562(9) 0.1166(5)
H18_4 H 0.6466 0.5539 0.0840
C25_4 C 0.9815(7) 0.9362(11) 0.3401(4)
C26_4 C 0.9275(6) 0.7842(10) 0.3455(4)
H28_4 H 0.9034 0.7198 0.3376
C27_4 C 0.9052(7) 0.9121(10) 0.2380(4)
H29_4 H 0.8825 0.9740 0.2466
C28_4 C 0.9606(8) 0.7615(12) 0.2417(5)
H30_4 H 0.9843 0.6996 0.2538
Cl6 Cl 0.6197(2) 0.1537(3) 0.68300(16)
Cl6_2 Cl 0.6197(2) 0.8463(3) 0.18300(16)
Cl6_3 Cl 0.1197(2) 0.6537(3) 0.68300(16)
Cl6_4 Cl 0.1197(2) 0.3463(3) 0.18300(16)
Cl7 Cl 0.6748(2) 0.1518(4) 0.9356(3)
Cl7_2 Cl 0.6748(2) 0.8482(4) 0.4356(3)
Cl7_3 Cl 0.1748(2) 0.6518(4) 0.9356(3)
Cl7_4 Cl 0.1748(2) 0.3482(4) 0.4356(3)
Cl8 Cl 0.2778(4) 0.1522(7) 0.6455(5)
Cl8_2 Cl 0.2778(4) 0.8478(7) 0.1455(5)
Cl8_3 Cl 0.7778(4) 0.6522(7) 0.6455(5)
Cl8_4 Cl 0.7778(4) 0.3478(7) 0.1455(5)
Cl9 Cl 0.5083(7) 0.9615(8) 0.8204(3)
Cl9_2 Cl 0.5083(7) 0.0385(8) 0.3204(3)
Cl9_3 Cl 0.0083(7) 0.4615(8) 0.8204(3)
Cl9_4 Cl 0.0083(7) 0.5385(8) 0.3204(3)
Cl10 Cl 0.3329(2) 0.1594(4) 0.8985(2)
Cl10_2 Cl 0.3329(2) 0.8406(4) 0.3985(2)
Cl10_3 Cl 0.8329(2) 0.6594(4) 0.8985(2)
Cl10_4 Cl 0.8329(2) 0.3406(4) 0.3985(2)
loop_
_geom_bond_atom_site_label_1
_geom_bond_atom_site_label_2
_geom_bond_site_symmetry_1
_geom_bond_site_symmetry_2
Cu6 Cl1 1_555 1_555
O3 Cu6 1_555 1_555
H31 O3 1_555 1_555
N47 Cu6 1_555 1_555
N48 Cu6 1_555 1_555
N50 Cu6 1_555 1_555
O3 H32 1_555 1_555
Cu4 Cl4 1_555 1_555
Cu5 Cl5 1_555 1_555
O1 Cu1 1_555 1_555
O2 Cu4 1_555 1_555
H2 O2 1_555 1_555
N1 Cu1 1_555 1_555
N2 Cu3 1_555 1_555
N3 N6 1_555 1_555
N4 N5 1_555 1_555
N5 C4 1_555 1_555
N6 C3 1_555 1_555
N7 Cu1 1_555 1_555
N8 Cu2 1_555 1_555
N9 N12 1_555 1_555
N10 N11 1_555 1_555
N11 C7 1_555 1_555
N12 C7 1_555 1_555
N15 N18 1_555 1_555
N16 Cu1 1_555 1_555
N17 N16 1_555 1_555
N18 C11 1_555 1_555
N19 Cu4 1_555 1_555
N20 Cu5 1_555 1_555
N21 N24 1_555 1_555
N22 N23 1_555 1_555
N23 C16 1_555 1_555
N24 C15 1_555 1_555
N25 Cu4 1_555 1_555
N26 N25 1_555 1_555
N27 N30 1_555 1_555
N30 C19 1_555 1_555
N31 N32 1_555 1_555
N32 C22 1_555 1_555
N33 N36 1_555 1_555
N34 N35 1_555 1_555
N35 Cu4 1_555 1_555
N36 C23 1_555 1_555
N37 Cu1 1_555 1_555
N38 Cu3 1_555 1_555
N39 N42 1_555 1_555
N40 Cu4 1_555 1_555
N41 Cu5 1_555 1_555
N42 C27 1_555 1_555
C1 N1 1_555 1_555
H3 C1 1_555 1_555
C2 N2 1_555 1_555
H4 C2 1_555 1_555
C3 N4 1_555 1_555
H5 C3 1_555 1_555
C4 N6 1_555 1_555
C5 N7 1_555 1_555
H7 C5 1_555 1_555
C6 N8 1_555 1_555
H8 C6 1_555 1_555
C7 H9 1_555 1_555
C8 N10 1_555 1_555
H10 C8 1_555 1_555
C11 N17 1_555 1_555
H13 C11 1_555 1_555
C12 N16 1_555 1_555
H14 C12 1_555 1_555
C13 N19 1_555 1_555
H15 C13 1_555 1_555
C14 N20 1_555 1_555
H16 C14 1_555 1_555
C15 N22 1_555 1_555
H17 C15 1_555 1_555
C16 N24 1_555 1_555
H18 C16 1_555 1_555
C17 N25 1_555 1_555
H19 C17 1_555 1_555
C18 N26 1_555 1_555
H20 C18 1_555 1_555
H21 C19 1_555 1_555
C20 N30 1_555 1_555
H22 C20 1_555 1_555
C21 N31 1_555 1_555
H23 C21 1_555 1_555
C22 N33 1_555 1_555
H24 C22 1_555 1_555
C23 N34 1_555 1_555
H25 C23 1_555 1_555
C24 N35 1_555 1_555
H26 C24 1_555 1_555
C25 N37 1_555 1_555
H27 C25 1_555 1_555
C26 N38 1_555 1_555
H28 C26 1_555 1_555
C27 N40 1_555 1_555
H29 C27 1_555 1_555
C28 N41 1_555 1_555
H30 C28 1_555 1_555
Cu7 N5 1_555 1_555
Cu9 N10 1_555 1_555
Cu13 O2 1_555 1_555
Cu14 N31 1_555 1_555
N43 Cu2 1_555 1_555
N44 Cu3 1_555 1_555
N45 Cu2 1_555 1_555
N46 Cu3 1_555 1_555
N49 Cu5 1_555 1_555
N51 Cu5 1_555 1_555
Cu2 O1 1_555 1_555
Cu3 O1 1_555 1_555
Cu5 O2 1_555 1_555
N1 N2 1_555 1_555
N3 C1 1_555 1_555
N3 C2 1_555 1_555
N7 N8 1_555 1_555
N9 C5 1_555 1_555
N9 C6 1_555 1_555
N12 C8 1_555 1_555
N18 C12 1_555 1_555
N19 N20 1_555 1_555
N21 C13 1_555 1_555
N21 C14 1_555 1_555
N26 Cu13 1_555 1_555
N27 C17 1_555 1_555
N27 C18 1_555 1_555
N33 C21 1_555 1_555
N36 C24 1_555 1_555
N37 N38 1_555 1_555
N39 C25 1_555 1_555
N39 C26 1_555 1_555
N40 N41 1_555 1_555
N42 C28 1_555 1_555
N45 N46 1_555 1_555
N46 C10 1_555 1_555
N28 N49 1_555 1_555
C9 N45 1_555 1_555
H11 C9 1_555 1_555
N13 N14 1_555 1_555
N14 C10_2 1_555 1_555
N28_2 N29 1_555 1_555
C9_2 N13 1_555 1_555
H11_2 C9_2 1_555 1_555
Cu8 N13 1_555 1_555
Cu10 N14 1_555 1_555
Cu11 N29 1_555 1_555
Cu1_2 Cl1_2 1_555 1_555
Cu8 Cl2_2 1_555 1_555
Cu10 Cl3_2 1_555 1_555
Cu4_2 Cl4_2 1_555 1_555
Cu11 Cl5_2 1_555 1_555
Cu13 Cl1_2 1_555 1_555
O1_2 Cu1_2 1_555 1_555
H1_2 O1_2 1_555 1_555
O3 Cu4_2 1_555 1_555
N1_2 Cu1_2 1_555 1_555
N2_2 Cu10 1_555 1_555
N3_2 N6_2 1_555 1_555
N4_2 N5_2 1_555 1_555
N5_2 C4_2 1_555 1_555
N6_2 C3_2 1_555 1_555
N7_2 Cu1_2 1_555 1_555
N8_2 Cu8 1_555 1_555
N9_2 N12_2 1_555 1_555
N10_2 N11_2 1_555 1_555
N11_2 C7_2 1_555 1_555
N12_2 C7_2 1_555 1_555
N15_2 N18_2 1_555 1_555
N16_2 Cu1_2 1_555 1_555
N17_2 N16_2 1_555 1_555
N18_2 C11_2 1_555 1_555
N19_2 Cu4_2 1_555 1_555
N20_2 Cu11 1_555 1_555
N21_2 N24_2 1_555 1_555
N22_2 N23_2 1_555 1_555
N23_2 C16_2 1_555 1_555
N24_2 C15_2 1_555 1_555
N25_2 Cu4_2 1_555 1_555
N48 N25_2 1_555 1_555
N27_2 N30_2 1_555 1_555
N30_2 C19_2 1_555 1_555
N31_2 N32_2 1_555 1_555
N32_2 C22_2 1_555 1_555
N33_2 N36_2 1_555 1_555
N34_2 N35_2 1_555 1_555
N35_2 Cu4_2 1_555 1_555
N36_2 C23_2 1_555 1_555
N37_2 Cu1_2 1_555 1_555
N38_2 Cu10 1_555 1_555
N39_2 N42_2 1_555 1_555
N40_2 Cu4_2 1_555 1_555
N41_2 Cu11 1_555 1_555
N42_2 C27_2 1_555 1_555
C1_2 N1_2 1_555 1_555
H3_2 C1_2 1_555 1_555
C2_2 N2_2 1_555 1_555
H4_2 C2_2 1_555 1_555
C3_2 N4_2 1_555 1_555
H5_2 C3_2 1_555 1_555
C4_2 N6_2 1_555 1_555
H6_2 C4_2 1_555 1_555
C5_2 N7_2 1_555 1_555
H7_2 C5_2 1_555 1_555
C6_2 N8_2 1_555 1_555
H8_2 C6_2 1_555 1_555
C7_2 H9_2 1_555 1_555
C8_2 N10_2 1_555 1_555
H10_2 C8_2 1_555 1_555
C11_2 N17_2 1_555 1_555
H13_2 C11_2 1_555 1_555
C12_2 N16_2 1_555 1_555
H14_2 C12_2 1_555 1_555
C13_2 N19_2 1_555 1_555
H15_2 C13_2 1_555 1_555
C14_2 N20_2 1_555 1_555
H16_2 C14_2 1_555 1_555
C15_2 N22_2 1_555 1_555
H17_2 C15_2 1_555 1_555
C16_2 N24_2 1_555 1_555
H18_2 C16_2 1_555 1_555
C17_2 N25_2 1_555 1_555
H19_2 C17_2 1_555 1_555
C18_2 N48 1_555 1_555
H20_2 C18_2 1_555 1_555
H21_2 C19_2 1_555 1_555
C20_2 N30_2 1_555 1_555
H22_2 C20_2 1_555 1_555
C21_2 N31_2 1_555 1_555
H23_2 C21_2 1_555 1_555
C22_2 N33_2 1_555 1_555
H24_2 C22_2 1_555 1_555
C23_2 N34_2 1_555 1_555
H25_2 C23_2 1_555 1_555
C24_2 N35_2 1_555 1_555
H26_2 C24_2 1_555 1_555
C25_2 N37_2 1_555 1_555
H27_2 C25_2 1_555 1_555
C26_2 N38_2 1_555 1_555
H28_2 C26_2 1_555 1_555
C27_2 N40_2 1_555 1_555
H29_2 C27_2 1_555 1_555
C28_2 N41_2 1_555 1_555
H30_2 C28_2 1_555 1_555
Cu7_2 N5_2 1_555 1_555
Cu9_2 N10_2 1_555 1_555
Cu15 N31_2 1_555 1_555
N43_2 Cu8 1_555 1_555
N44_2 Cu10 1_555 1_555
N47_2 Cu13 1_555 1_555
N50_2 Cu13 1_555 1_555
N51_2 Cu11 1_555 1_555
Cu8 O1_2 1_555 1_555
Cu10 O1_2 1_555 1_555
Cu11 O3 1_555 1_555
N1_2 N2_2 1_555 1_555
N3_2 C1_2 1_555 1_555
N3_2 C2_2 1_555 1_555
N7_2 N8_2 1_555 1_555
N9_2 C5_2 1_555 1_555
N9_2 C6_2 1_555 1_555
N12_2 C8_2 1_555 1_555
N18_2 C12_2 1_555 1_555
N19_2 N20_2 1_555 1_555
N21_2 C13_2 1_555 1_555
N21_2 C14_2 1_555 1_555
N27_2 C17_2 1_555 1_555
N27_2 C18_2 1_555 1_555
N33_2 C21_2 1_555 1_555
N36_2 C24_2 1_555 1_555
N37_2 N38_2 1_555 1_555
N39_2 C25_2 1_555 1_555
N39_2 C26_2 1_555 1_555
N40_2 N41_2 1_555 1_555
N42_2 C28_2 1_555 1_555
O2 H32_2 1_555 1_555
N8_3 Cu7 1_555 1_555
C6_3 N8_3 1_555 1_555
H8_3 C6_3 1_555 1_555
N45_2 Cu7 1_555 1_555
Cu7 O1_3 1_555 1_555
Cu15 Cl1_3 1_555 1_555
N7_3 Cu1_3 1_555 1_555
N9_3 N12_3 1_555 1_555
N44 N11_3 1_555 1_555
N11_3 C7_3 1_555 1_555
N12_3 C7_3 1_555 1_555
N15_3 N18_3 1_555 1_555
N16_3 Cu1_3 1_555 1_555
C5_3 N7_3 1_555 1_555
H7_3 C5_3 1_555 1_555
C7_3 H9_3 1_555 1_555
C8_3 N44 1_555 1_555
H10_3 C8_3 1_555 1_555
C9_3 N45_2 1_555 1_555
H11_3 C9_3 1_555 1_555
C12_3 N16_3 1_555 1_555
H14_3 C12_3 1_555 1_555
N9_3 C5_3 1_555 1_555
N12_3 C8_3 1_555 1_555
N15_3 C9_3 1_555 1_555
N18_3 C12_3 1_555 1_555
Cu4_3 Cl4_3 1_555 1_555
Cu12 Cl5_3 1_555 1_555
O2_2 Cu4_3 1_555 1_555
H2_2 O2_2 1_555 1_555
N2_3 Cu9 1_555 1_555
N19_3 Cu4_3 1_555 1_555
N20_3 Cu12 1_555 1_555
N21_3 N24_3 1_555 1_555
N22_3 N47_2 1_555 1_555
N47_2 C16_3 1_555 1_555
N24_3 C15_3 1_555 1_555
N38_3 Cu9 1_555 1_555
N39_3 N42_3 1_555 1_555
N40_3 Cu4_3 1_555 1_555
N41_3 Cu12 1_555 1_555
N42_3 C27_3 1_555 1_555
C2_3 N2_3 1_555 1_555
H4_3 C2_3 1_555 1_555
C13_3 N19_3 1_555 1_555
H15_3 C13_3 1_555 1_555
C14_3 N20_3 1_555 1_555
H16_3 C14_3 1_555 1_555
C15_3 N22_3 1_555 1_555
H17_3 C15_3 1_555 1_555
C16_3 N24_3 1_555 1_555
H18_3 C16_3 1_555 1_555
C25_3 N37_3 1_555 1_555
C26_3 N38_3 1_555 1_555
H28_3 C26_3 1_555 1_555
C27_3 N40_3 1_555 1_555
H29_3 C27_3 1_555 1_555
C28_3 N41_3 1_555 1_555
H30_3 C28_3 1_555 1_555
N46_2 Cu9 1_555 1_555
N49_2 Cu12 1_555 1_555
Cu12 O2_2 1_555 1_555
N19_3 N20_3 1_555 1_555
N21_3 C13_3 1_555 1_555
N21_3 C14_3 1_555 1_555
N37_3 N38_3 1_555 1_555
N39_3 C25_3 1_555 1_555
N39_3 C26_3 1_555 1_555
N40_3 N41_3 1_555 1_555
N42_3 C28_3 1_555 1_555
H31_2 O3_2 1_555 1_555
O3_2 H32_3 1_555 1_555
N3_3 N6_3 1_555 1_555
N4_3 N43 1_555 1_555
N43 C4_3 1_555 1_555
N6_3 C3_3 1_555 1_555
N46_2 C10_3 1_555 1_555
N26_2 N25_3 1_555 1_555
N27_3 N30_3 1_555 1_555
N28_3 N49_2 1_555 1_555
N49_2 C20_3 1_555 1_555
N30_3 C19_3 1_555 1_555
N50_2 N51 1_555 1_555
N51 C22_3 1_555 1_555
N33_3 N36_3 1_555 1_555
N34_3 N35_3 1_555 1_555
N36_3 C23_3 1_555 1_555
C1_3 N1_3 1_555 1_555
H3_3 C1_3 1_555 1_555
C3_3 N4_3 1_555 1_555
H5_3 C3_3 1_555 1_555
C4_3 N6_3 1_555 1_555
H12_3 C10_3 1_555 1_555
C11_3 N17_3 1_555 1_555
H13_3 C11_3 1_555 1_555
C17_3 N25_3 1_555 1_555
H19_3 C17_3 1_555 1_555
C18_3 N26_2 1_555 1_555
C19_3 N28_3 1_555 1_555
H21_3 C19_3 1_555 1_555
C20_3 N30_3 1_555 1_555
H22_3 C20_3 1_555 1_555
C21_3 N50_2 1_555 1_555
H23_3 C21_3 1_555 1_555
C22_3 N33_3 1_555 1_555
H24_3 C22_3 1_555 1_555
C23_3 N34_3 1_555 1_555
H25_3 C23_3 1_555 1_555
C24_3 N35_3 1_555 1_555
H26_3 C24_3 1_555 1_555
N3_3 C1_3 1_555 1_555
N27_3 C17_3 1_555 1_555
N27_3 C18_3 1_555 1_555
N33_3 C21_3 1_555 1_555
N36_3 C24_3 1_555 1_555
Cu1_4 Cl1_4 1_555 1_555
Cu14 Cl1_4 1_555 1_555
N7_4 Cu1_4 1_555 1_555
N9_4 N12_4 1_555 1_555
N44_2 N11_4 1_555 1_555
N11_4 C7_4 1_555 1_555
N12_4 C7_4 1_555 1_555
N15_4 N18_4 1_555 1_555
N16_4 Cu1_4 1_555 1_555
C5_4 N7_4 1_555 1_555
H7_4 C5_4 1_555 1_555
C7_4 H9_4 1_555 1_555
C8_4 N44_2 1_555 1_555
H10_4 C8_4 1_555 1_555
C9_4 N13_2 1_555 1_555
H11_4 C9_4 1_555 1_555
C12_4 N16_4 1_555 1_555
H14_4 C12_4 1_555 1_555
Cu7_2 N13_2 1_555 1_555
N9_4 C5_4 1_555 1_555
N12_4 C8_4 1_555 1_555
N15_4 C9_4 1_555 1_555
N18_4 C12_4 1_555 1_555
Cu7_2 Cl2_4 1_555 1_555
H1_4 O1_4 1_555 1_555
N8_4 Cu7_2 1_555 1_555
C6_4 N8_4 1_555 1_555
H8_4 C6_4 1_555 1_555
Cu7_2 O1_4 1_555 1_555
N3_4 N6_4 1_555 1_555
N4_4 N43_2 1_555 1_555
N43_2 C4_4 1_555 1_555
N6_4 C3_4 1_555 1_555
N14_2 C10_4 1_555 1_555
N48_2 N25_4 1_555 1_555
N27_4 N30_4 1_555 1_555
N28_4 N29_2 1_555 1_555
N29_2 C20_4 1_555 1_555
N30_4 C19_4 1_555 1_555
N50 N51_2 1_555 1_555
N51_2 C22_4 1_555 1_555
N33_4 N36_4 1_555 1_555
N34_4 N35_4 1_555 1_555
N36_4 C23_4 1_555 1_555
C1_4 N1_4 1_555 1_555
H3_4 C1_4 1_555 1_555
C3_4 N4_4 1_555 1_555
H5_4 C3_4 1_555 1_555
C4_4 N6_4 1_555 1_555
H6_4 C4_4 1_555 1_555
H12_4 C10_4 1_555 1_555
C11_4 N17_4 1_555 1_555
H13_4 C11_4 1_555 1_555
C17_4 N25_4 1_555 1_555
H19_4 C17_4 1_555 1_555
C18_4 N48_2 1_555 1_555
C19_4 N28_4 1_555 1_555
H21_4 C19_4 1_555 1_555
C20_4 N30_4 1_555 1_555
H22_4 C20_4 1_555 1_555
C21_4 N50 1_555 1_555
H23_4 C21_4 1_555 1_555
C22_4 N33_4 1_555 1_555
H24_4 C22_4 1_555 1_555
C23_4 N34_4 1_555 1_555
H25_4 C23_4 1_555 1_555
C24_4 N35_4 1_555 1_555
H26_4 C24_4 1_555 1_555
Cu9_2 N14_2 1_555 1_555
Cu12_2 N29_2 1_555 1_555
N3_4 C1_4 1_555 1_555
N27_4 C17_4 1_555 1_555
N27_4 C18_4 1_555 1_555
N33_4 C21_4 1_555 1_555
N36_4 C24_4 1_555 1_555
O2_2 H32_4 1_555 1_555
Cu9_2 Cl3_4 1_555 1_555
Cu4_4 Cl4_4 1_555 1_555
Cu12_2 Cl5_4 1_555 1_555
O3_2 Cu4_4 1_555 1_555
N2_4 Cu9_2 1_555 1_555
N19_4 Cu4_4 1_555 1_555
N20_4 Cu12_2 1_555 1_555
N21_4 N24_4 1_555 1_555
N22_4 N47 1_555 1_555
N47 C16_4 1_555 1_555
N24_4 C15_4 1_555 1_555
N38_4 Cu9_2 1_555 1_555
N39_4 N42_4 1_555 1_555
N40_4 Cu4_4 1_555 1_555
N41_4 Cu12_2 1_555 1_555
N42_4 C27_4 1_555 1_555
C2_4 N2_4 1_555 1_555
H4_4 C2_4 1_555 1_555
C13_4 N19_4 1_555 1_555
H15_4 C13_4 1_555 1_555
C14_4 N20_4 1_555 1_555
H16_4 C14_4 1_555 1_555
C15_4 N22_4 1_555 1_555
H17_4 C15_4 1_555 1_555
C16_4 N24_4 1_555 1_555
H18_4 C16_4 1_555 1_555
C25_4 N37_4 1_555 1_555
C26_4 N38_4 1_555 1_555
H28_4 C26_4 1_555 1_555
C27_4 N40_4 1_555 1_555
H29_4 C27_4 1_555 1_555
C28_4 N41_4 1_555 1_555
H30_4 C28_4 1_555 1_555
Cu12_2 O3_2 1_555 1_555
N19_4 N20_4 1_555 1_555
N21_4 C13_4 1_555 1_555
N21_4 C14_4 1_555 1_555
N37_4 N38_4 1_555 1_555
N39_4 C25_4 1_555 1_555
N39_4 C26_4 1_555 1_555
N40_4 N41_4 1_555 1_555
N42_4 C28_4 1_555 1_555

#END
