
###############################################################################
#
# This file contains modified crystal structure data generated from the
# MOF subset of the Cambridge Structural Database (CSD) v543 
# hosted by the Cambridge Crystallographic Data Centre (CCDC).
#
# This work is licensed under the Creative Commons
# Attribution-NonCommercial-ShareAlike 4.0 International License.
# To view a copy of this license, visit
# http://creativecommons.org/licenses/by-nc-sa/4.0/
# or send a letter to
# Creative Commons, PO Box 1866, Mountain View, CA 94042, USA.
#
# CIF created using the CSD Python API on 29 September 2022
# The structure has been converted into the P1 space group
# The structure has a 3D framework
# The original CSD entry WEMBUN is in the monoclinic crystal system
# The framework has been calculated to contain at least 10.0% void space
# The void calculation uses a probe of radius 1.32A, grid spacing 0.4
# Generated hydrogen atom positions removed from atoms on special positions
#
###############################################################################

data_WEMBUN
_chemical_formula_moiety         '(C16 H14 Er4 O32)n'
_symmetry_cell_setting           triclinic
_symmetry_space_group_name_H-M   'P 1'
_symmetry_Int_Tables_number      1
_space_group_name_Hall           'P 1'
loop_
_symmetry_equiv_pos_site_id
_symmetry_equiv_pos_as_xyz
1 x,y,z
_cell_length_a                   9.6103(19)
_cell_length_b                   11.531(2)
_cell_length_c                   12.200(2)
_cell_angle_alpha                90
_cell_angle_beta                 99.03(3)
_cell_angle_gamma                90
_cell_volume                     1335.2
loop_
_atom_site_label
_atom_site_type_symbol
_atom_site_fract_x
_atom_site_fract_y
_atom_site_fract_z
Er1 Er 0.21509(2) 0.011520(19) 0.332982(16)
O5 O 0.4118(4) 0.1177(3) 0.4320(3)
O6 O 0.6028(3) 0.1123(3) 0.5625(3)
O9 O 0.0551(4) 0.0193(3) 0.1588(3)
H1 H 0.0072 0.0815 0.1555
H2 H 0.1022 0.0176 0.1054
C3 C 0.5040(4) 0.0661(4) 0.4988(3)
Er2 Er 0.28491(2) 0.511520(19) 0.167018(16)
O10 O 0.3638(3) 0.3171(3) 0.1702(3)
O11 O 0.3114(3) 0.1344(3) 0.2079(3)
O12 O 0.1886(3) 0.6344(3) 0.2921(3)
O13 O 0.1772(4) 0.3930(3) 0.2948(3)
O14 O 0.1377(4) 0.2092(3) 0.3433(3)
O15 O 0.3623(4) 0.7092(3) 0.1567(3)
O17 O 0.0882(4) 0.6177(3) 0.0680(3)
O19 O 0.1028(3) 0.3877(3) 0.0625(3)
O21 O 0.5334(4) 0.5078(3) 0.1442(3)
O22 O 0.1822(4) 0.0108(3) 0.5216(3)
O24 O 0.4449(4) 0.5193(3) 0.3412(3)
C5 C 0.2998(4) 0.2415(4) 0.2163(3)
C6 C 0.1957(5) 0.2859(4) 0.2922(4)
C8 C 0.0630(5) 0.0007(3) 0.5470(4)
O23 O 0.3178(4) 0.5108(3) 0.9784(3)
O1 O 0.1362(3) 0.8171(3) 0.3298(3)
O3 O 0.3228(4) 0.8930(3) 0.2052(3)
H3 H -0.0000 0.9613 0.1543
C1 C 0.2002(4) 0.7415(4) 0.2837(3)
C2 C 0.3043(5) 0.7859(4) 0.2078(4)
Er4 Er 0.78491(2) 0.988480(19) 0.667018(16)
O16 O 0.5882(4) 0.8823(3) 0.5680(3)
O18 O 0.3972(3) 0.8877(3) 0.4375(3)
O20 O 0.0334(4) 0.9922(3) 0.6442(3)
C7 C 0.4960(4) 0.9339(4) 0.5012(3)
O7 O 0.9666(4) 0.0078(3) 0.3558(3)
O8 O 0.8178(4) 0.9892(3) 0.4784(3)
H3_2 H 1.0000 0.9613 0.1543
C4 C 0.9370(5) 0.9993(3) 0.4530(4)
O8_2 O 0.6822(4) 0.4892(3) 0.0216(3)
C4_2 C 0.5630(5) 0.4993(3) 0.0470(4)
Er5 Er 0.71509(2) 0.488480(19) 0.832982(16)
O20_2 O 0.4666(4) 0.4922(3) 0.8558(3)
C7_2 C 0.0040(4) 0.4339(4) 0.9988(3)
C8_2 C 0.4370(5) 0.5007(3) 0.9530(4)
C3_2 C 0.9960(4) 0.5661(4) 0.0012(3)
O6_2 O 0.8972(3) 0.6123(3) 0.9375(3)
O16_2 O 0.9118(4) 0.3823(3) 0.9320(3)
H3_3 H -0.0000 0.0387 0.8457
O1_2 O 0.8638(3) 0.1829(3) 0.6702(3)
O2 O 0.8114(3) 0.3656(3) 0.7079(3)
O3_2 O 0.6772(4) 0.1070(3) 0.7948(3)
O4 O 0.6377(4) 0.2908(3) 0.8433(3)
H3_4 H 1.0000 0.0387 0.8457
C1_2 C 0.7998(4) 0.2585(4) 0.7163(3)
C2_2 C 0.6957(5) 0.2141(4) 0.7922(4)
O9_2 O 0.9449(4) 0.9807(3) 0.8412(3)
H1_2 H 0.9928 0.9185 0.8445
H2_2 H 0.8978 0.9824 0.8946
O10_2 O 0.6362(3) 0.6829(3) 0.8298(3)
O11_2 O 0.6886(3) 0.8656(3) 0.7921(3)
O13_2 O 0.8228(4) 0.6070(3) 0.7052(3)
O14_2 O 0.8623(4) 0.7908(3) 0.6567(3)
O24_2 O 0.5551(4) 0.4807(3) 0.6588(3)
C5_2 C 0.7002(4) 0.7585(4) 0.7837(3)
C6_2 C 0.8043(5) 0.7141(4) 0.7078(4)
loop_
_geom_bond_atom_site_label_1
_geom_bond_atom_site_label_2
_geom_bond_site_symmetry_1
_geom_bond_site_symmetry_2
O5 Er1 1_555 1_555
O6 C3 1_555 1_555
O9 Er1 1_555 1_555
H1 O9 1_555 1_555
H2 O9 1_555 1_555
C3 O5 1_555 1_555
Er2 O10 1_555 1_555
O10 C5 1_555 1_555
O11 Er1 1_555 1_555
O12 Er2 1_555 1_555
O13 Er2 1_555 1_555
O14 Er1 1_555 1_555
O15 Er2 1_555 1_555
O17 Er2 1_555 1_555
O19 Er2 1_555 1_555
O21 Er2 1_555 1_555
O22 Er1 1_555 1_555
O24 Er2 1_555 1_555
C5 O11 1_555 1_555
C6 O13 1_555 1_555
O14 C6 1_555 1_555
O22 C8 1_555 1_555
C5 C6 1_555 1_555
O1 C1 1_555 1_555
O12 C1 1_555 1_555
O15 C2 1_555 1_555
C1 C2 1_555 1_555
C2 O3 1_555 1_555
O16 Er4 1_555 1_555
O16 C7 1_555 1_555
O18 C7 1_555 1_555
O8 C4 1_555 1_555
Er4 O8 1_555 1_555
O8_2 C4_2 1_555 1_555
C4_2 O21 1_555 1_555
O20_2 Er5 1_555 1_555
O20_2 C8_2 1_555 1_555
O23 C8_2 1_555 1_555
Er5 O6_2 1_555 1_555
O16_2 Er5 1_555 1_555
O1_2 C1_2 1_555 1_555
O2 C1_2 1_555 1_555
O4 C2_2 1_555 1_555
C1_2 C2_2 1_555 1_555
C2_2 O3_2 1_555 1_555
Er5 O2 1_555 1_555
O4 Er5 1_555 1_555
O9_2 Er4 1_555 1_555
H1_2 O9_2 1_555 1_555
H2_2 O9_2 1_555 1_555
Er5 O10_2 1_555 1_555
O10_2 C5_2 1_555 1_555
O11_2 Er4 1_555 1_555
O13_2 Er5 1_555 1_555
O14_2 Er4 1_555 1_555
O24_2 Er5 1_555 1_555
C5_2 O11_2 1_555 1_555
C6_2 O13_2 1_555 1_555
O14_2 C6_2 1_555 1_555
C5_2 C6_2 1_555 1_555

#END
