
###############################################################################
#
# This file contains modified crystal structure data generated from the
# MOF subset of the Cambridge Structural Database (CSD) v543 
# hosted by the Cambridge Crystallographic Data Centre (CCDC).
#
# This work is licensed under the Creative Commons
# Attribution-NonCommercial-ShareAlike 4.0 International License.
# To view a copy of this license, visit
# http://creativecommons.org/licenses/by-nc-sa/4.0/
# or send a letter to
# Creative Commons, PO Box 1866, Mountain View, CA 94042, USA.
#
# CIF created using the CSD Python API on 29 September 2022
# The structure has been converted into the P1 space group
# The structure has a 3D framework
# The original CSD entry WEMCIC is in the tetragonal crystal system
# The framework has been calculated to contain at least 10.0% void space
# The void calculation uses a probe of radius 1.32A, grid spacing 0.4
#
###############################################################################

data_WEMCIC
_chemical_formula_moiety         '(C160 H128 Eu30 N64 O173)n'
_symmetry_cell_setting           triclinic
_symmetry_space_group_name_H-M   'P 1'
_symmetry_Int_Tables_number      1
_space_group_name_Hall           'P 1'
loop_
_symmetry_equiv_pos_site_id
_symmetry_equiv_pos_as_xyz
1 x,y,z
_cell_length_a                   20.3131(14)
_cell_length_b                   20.3131(14)
_cell_length_c                   16.190(2)
_cell_angle_alpha                90
_cell_angle_beta                 90
_cell_angle_gamma                90
_cell_volume                     6680.35
loop_
_atom_site_label
_atom_site_type_symbol
_atom_site_fract_x
_atom_site_fract_y
_atom_site_fract_z
O9 O 0.0183(3) 0.0254(3) 0.3351(3)
H1 H 0.0185 0.0490 0.3762
H2 H 0.0168 0.0524 0.2864
O42 O 0.0350(2) 0.0339(2) 0.8151(3)
O59 O 0.0074(3) 0.1362(3) 0.9487(3)
H26 H 0.0405 0.1213 0.9866
O10 O 0.0099(3) 0.8742(3) 0.3312(3)
H3 H 0.0311 0.8746 0.3744
H4 H 0.0387 0.8845 0.2860
Eu12 Eu 0.068510(16) 0.954780(15) 0.080780(18)
O50 O 0.0353(2) 0.9793(2) 0.9335(3)
O1 O 0.9135(3) 0.0407(2) 0.4350(3)
O2 O 0.8850(2) 0.1242(3) 0.5154(3)
O5 O 0.7876(2) 0.1699(2) 0.0588(3)
O6 O 0.8751(2) 0.1193(2) 0.0051(3)
O8 O 0.9647(2) 0.0207(2) 0.0665(3)
N1 N 0.8073(3) 0.0477(3) 0.6102(3)
N3 N 0.8748(3) 0.0427(3) 0.2572(3)
N4 N 0.8093(3) 0.1228(3) 0.2096(3)
H7 H 0.7496 0.0012 0.6917
C3 C 0.8500(3) 0.0193(3) 0.5532(4)
C5 C 0.8854(3) 0.0629(3) 0.4971(4)
C6 C 0.8278(4) 0.0865(4) 0.2736(4)
H8 H 0.8095 0.0912 0.3259
C7 C 0.8484(3) 0.1021(3) 0.1461(4)
C8 C 0.8894(3) 0.0529(3) 0.1748(4)
C9 C 0.8377(3) 0.1314(3) 0.0631(4)
C10 C 0.9417(3) 0.0112(3) 0.1392(4)
Eu4 Eu 0.794995(17) 0.173431(16) 0.588412(19)
Eu6 Eu 0.576569(16) 0.044995(17) 0.838412(19)
Eu10 Eu 0.704780(15) 0.181490(16) 0.169220(18)
Eu13 Eu 0.431490(16) 0.045220(15) 0.580780(18)
Eu14 Eu 0.931490(16) 0.045220(15) 0.919220(18)
O14 O 0.7093(2) 0.1635(3) 0.6850(3)
O17 O 0.6258(3) 0.1350(2) 0.7654(3)
O21 O 0.8489(2) 0.1697(2) 0.7152(3)
O23 O 0.6311(2) 0.1609(2) 0.0569(3)
O24 O 0.9109(2) 0.1189(2) 0.8069(3)
O29 O 0.5801(2) 0.0376(2) 0.3088(3)
O34 O 0.6307(2) 0.1251(2) 0.2551(3)
O35 O 0.5350(2) 0.0339(2) 0.6849(3)
O39 O 0.7839(2) 0.2150(2) 0.4349(3)
O41 O 0.7161(2) 0.2850(2) 0.0651(3)
O47 O 0.4647(2) 0.0207(2) 0.4335(3)
O48 O 0.7293(2) 0.2147(2) 0.3165(3)
O49 O 0.7707(2) 0.2853(2) 0.1835(3)
O52 O 0.7246(3) 0.2683(3) 0.5851(3)
H10 H 0.7010 0.2685 0.6262
H13 H 0.6976 0.2668 0.5364
O55 O 0.8758(3) 0.2599(3) 0.5812(3)
H16 H 0.8754 0.2811 0.6244
H19 H 0.8655 0.2887 0.5360
O58 O 0.6138(3) 0.2574(3) 0.1987(3)
H22 H 0.5832 0.2369 0.2196
H25 H 0.6287 0.2905 0.2366
N7 N 0.7023(3) 0.0573(3) 0.8602(3)
N10 N 0.6978(3) 0.0623(3) 0.1245(3)
N11 N 0.8123(3) 0.0522(3) 0.8745(3)
N17 N 0.7073(3) 0.1248(3) 0.5072(3)
N22 N 0.6272(3) 0.0593(3) 0.4596(3)
C12 C 0.7194(3) 0.0037(3) 0.1499(4)
C13 C 0.7537(3) 0.0306(3) 0.8999(4)
H27 H 0.7512 0.0004 0.4417
C15 C 0.6540(3) 0.0488(3) 0.0627(4)
C16 C 0.7988(3) 0.0960(3) 0.8127(4)
C19 C 0.7307(3) 0.1000(3) 0.8032(4)
C21 C 0.6195(3) 0.1047(3) 0.0250(4)
C22 C 0.8547(3) 0.1305(3) 0.7750(4)
C25 C 0.6871(3) 0.1354(3) 0.7471(4)
O20 O 0.5803(2) 0.0989(2) 0.9652(3)
O56 O 0.4901(3) 0.1258(3) 0.8312(3)
H17 H 0.4689 0.1254 0.8744
H20 H 0.4613 0.1155 0.7860
H23 H 0.9869 0.1668 0.9696
Eu7 Eu 0.705005(17) 0.826569(16) 0.088412(19)
N14 N 0.7927(3) 0.8752(3) 0.0072(3)
C27 C 0.8365(4) 0.9222(4) 0.0236(4)
H31 H 0.8412 0.9405 0.0759
Eu1 Eu 0.923431(16) 0.955005(17) 0.338412(19)
Eu2 Eu 0.795220(15) 0.818510(16) 0.669220(18)
O3 O 0.9197(2) 0.9011(2) 0.4652(3)
O4 O 0.8689(2) 0.8391(2) 0.5569(3)
O7 O 0.9650(2) 0.9661(2) 0.1849(3)
O11 O 0.8862(3) 0.7426(3) 0.6987(3)
H5 H 0.9168 0.7631 0.7196
H6 H 0.8713 0.7095 0.7366
N2 N 0.8022(3) 0.9377(3) 0.6245(3)
C1 C 0.7806(3) 0.9963(3) 0.6499(4)
C2 C 0.8460(3) 0.9512(3) 0.5627(4)
C4 C 0.8805(3) 0.8953(3) 0.5250(4)
Eu8 Eu 0.794995(17) 0.673431(16) 0.411588(19)
Eu9 Eu 0.568510(16) 0.954780(15) 0.419220(18)
Eu15 Eu 0.704780(15) 0.681490(16) 0.830780(18)
Eu16 Eu 0.568510(16) 0.454780(15) 0.580780(18)
O12 O 0.7907(2) 0.8365(3) 0.1850(3)
O15 O 0.8742(3) 0.8650(2) 0.2654(3)
O16 O 0.6150(2) 0.8758(3) 0.0154(3)
O19 O 0.6511(2) 0.8303(2) 0.2152(3)
O22 O 0.5891(2) 0.8811(2) 0.3069(3)
O26 O 0.7124(2) 0.8301(2) 0.5588(3)
O27 O 0.9199(2) 0.9624(2) 0.8088(3)
O28 O 0.5801(2) 0.5376(2) 0.6912(3)
O31 O 0.6249(2) 0.8807(2) 0.5051(3)
O32 O 0.8693(2) 0.8749(2) 0.7551(3)
O33 O 0.6307(2) 0.6251(2) 0.7449(3)
O36 O 0.7161(2) 0.7850(2) 0.9349(3)
O37 O 0.7839(2) 0.7150(2) 0.5651(3)
O40 O 0.4650(2) 0.9661(2) 0.3151(3)
O44 O 0.5353(2) 0.9793(2) 0.5665(3)
O45 O 0.7707(2) 0.7853(2) 0.8165(3)
O46 O 0.7293(2) 0.7147(2) 0.6835(3)
O51 O 0.7754(3) 0.7317(3) 0.0851(3)
H9 H 0.7990 0.7315 0.1262
H12 H 0.8024 0.7332 0.0364
O54 O 0.6242(3) 0.7401(3) 0.0812(3)
H15 H 0.6246 0.7189 0.1244
H18 H 0.6345 0.7113 0.0360
O57 O 0.4926(3) 0.8638(3) 0.4487(3)
H21 H 0.5131 0.8332 0.4696
H24 H 0.4595 0.8787 0.4866
N5 N 0.7977(3) 0.9427(3) 0.3602(3)
N6 N 0.6927(3) 0.9523(3) 0.1102(3)
N9 N 0.6877(3) 0.9478(3) 0.3745(3)
N13 N 0.6252(3) 0.9573(3) 0.7572(3)
N15 N 0.7073(3) 0.6248(3) 0.4928(3)
N19 N 0.6907(3) 0.8772(3) 0.7096(3)
N20 N 0.8728(3) 0.9407(3) 0.9596(3)
N21 N 0.6272(3) 0.5593(3) 0.5404(3)
C11 C 0.7463(3) 0.9694(3) 0.3999(4)
H28 H 0.7504 0.9988 0.1917
H29 H 0.7488 0.9996 0.9417
C14 C 0.7012(3) 0.9040(3) 0.3127(4)
C17 C 0.7693(3) 0.9000(3) 0.3032(4)
C18 C 0.6500(3) 0.9807(3) 0.0532(4)
C20 C 0.6453(3) 0.8695(3) 0.2750(4)
C23 C 0.8129(3) 0.8646(3) 0.2471(4)
C26 C 0.6722(4) 0.9135(4) 0.7736(4)
C28 C 0.6635(4) 0.5778(4) 0.4764(4)
H30 H 0.6905 0.9088 0.8259
H32 H 0.6588 0.5595 0.4241
C29 C 0.6516(3) 0.8979(3) 0.6461(4)
C30 C 0.8521(3) 0.9016(3) 0.8961(4)
C31 C 0.6479(3) 0.5984(3) 0.6039(4)
C32 C 0.6106(3) 0.9471(3) 0.6748(4)
C33 C 0.8029(3) 0.8606(3) 0.9248(4)
C34 C 0.6971(3) 0.6394(3) 0.5752(4)
C35 C 0.6623(3) 0.8686(3) 0.5631(4)
C36 C 0.8814(3) 0.9123(3) 0.8131(4)
C37 C 0.6186(3) 0.5877(3) 0.6869(4)
C38 C 0.5583(3) 0.9888(3) 0.6392(4)
C39 C 0.7612(3) 0.8083(3) 0.8892(4)
C40 C 0.7388(3) 0.6917(3) 0.6108(4)
O13 O 0.5865(3) 0.9593(2) 0.9350(3)
O53 O 0.4817(3) 0.9746(3) 0.8351(3)
H11 H 0.4815 0.9510 0.8762
H14 H 0.4832 0.9476 0.7864
C24 C 0.6146(3) 0.9371(3) 0.9971(4)
Eu15_2 Eu 0.795220(15) 0.318510(16) 0.330780(18)
Eu16_2 Eu 0.931490(16) 0.545220(15) 0.080780(18)
O28_2 O 0.9199(2) 0.4624(2) 0.1912(3)
O33_2 O 0.8693(2) 0.3749(2) 0.2449(3)
N21_2 N 0.8728(3) 0.4407(3) 0.0404(3)
C27_2 C 0.6635(4) 0.0778(4) 0.5236(4)
H31_2 H 0.6588 0.0595 0.5759
C30_2 C 0.6479(3) 0.0984(3) 0.3961(4)
C31_2 C 0.8521(3) 0.4016(3) 0.1039(4)
C33_2 C 0.6971(3) 0.1394(3) 0.4248(4)
C34_2 C 0.8029(3) 0.3606(3) 0.0752(4)
C36_2 C 0.6186(3) 0.0877(3) 0.3131(4)
C37_2 C 0.8814(3) 0.4123(3) 0.1869(4)
C39_2 C 0.7388(3) 0.1917(3) 0.3892(4)
C40_2 C 0.7612(3) 0.3083(3) 0.1108(4)
Eu8_2 Eu 0.705005(17) 0.326569(16) 0.911588(19)
N15_2 N 0.7927(3) 0.3752(3) 0.9928(3)
C28_2 C 0.8365(4) 0.4222(4) 0.9764(4)
H32_2 H 0.8412 0.4405 0.9241
Eu8_3 Eu 0.076569(16) 0.044995(17) 0.661588(19)
Eu16_3 Eu 0.295220(15) 0.818510(16) 0.830780(18)
O28_3 O 0.2124(2) 0.8301(2) 0.9412(3)
O33_3 O 0.1249(2) 0.8807(2) 0.9949(3)
N15_3 N 0.1252(3) 0.9573(3) 0.7428(3)
N21_3 N 0.1907(3) 0.8772(3) 0.7904(3)
C28_3 C 0.1722(4) 0.9135(4) 0.7264(4)
H32_3 H 0.1905 0.9088 0.6741
C31_3 C 0.1516(3) 0.8979(3) 0.8539(4)
C34_3 C 0.1106(3) 0.9471(3) 0.8252(4)
C37_3 C 0.1623(3) 0.8686(3) 0.9369(4)
C40_3 C 0.0583(3) 0.9888(3) 0.8608(4)
Eu16_4 Eu 0.204780(15) 0.181490(16) 0.330780(18)
O28_4 O 0.2876(2) 0.1699(2) 0.4412(3)
O33_4 O 0.3751(2) 0.1193(2) 0.4949(3)
N15_4 N 0.3748(3) 0.0427(3) 0.2428(3)
N21_4 N 0.3093(3) 0.1228(3) 0.2904(3)
C28_4 C 0.3278(4) 0.0865(4) 0.2264(4)
H32_4 H 0.3095 0.0912 0.1741
C31_4 C 0.3484(3) 0.1021(3) 0.3539(4)
C34_4 C 0.3894(3) 0.0529(3) 0.3252(4)
C37_4 C 0.3377(3) 0.1314(3) 0.4369(4)
C40_4 C 0.4417(3) 0.0112(3) 0.3608(4)
Eu8_4 Eu 0.423431(16) 0.955005(17) 0.161588(19)
Eu2_2 Eu 0.295220(15) 0.318510(16) 0.169220(18)
O2_2 O 0.3850(2) 0.6242(3) 0.0154(3)
O4_2 O 0.3689(2) 0.3391(2) 0.0569(3)
O11_2 O 0.3862(3) 0.2426(3) 0.1987(3)
H5_2 H 0.4168 0.2631 0.2196
H6_2 H 0.3713 0.2095 0.2366
N1_2 N 0.3073(3) 0.5477(3) 0.1102(3)
N2_2 N 0.3022(3) 0.4377(3) 0.1245(3)
C1_2 C 0.2806(3) 0.4963(3) 0.1499(4)
H7_2 H 0.2496 0.5012 0.1917
C2_2 C 0.3460(3) 0.4512(3) 0.0627(4)
C3_2 C 0.3500(3) 0.5193(3) 0.0532(4)
C4_2 C 0.3805(3) 0.3953(3) 0.0250(4)
Eu4_2 Eu 0.294995(17) 0.673431(16) 0.088412(19)
Eu6_2 Eu 0.076569(16) 0.544995(17) 0.338412(19)
Eu7_2 Eu 0.205005(17) 0.326569(16) 0.588412(19)
Eu14_2 Eu 0.431490(16) 0.545220(15) 0.419220(18)
O14_2 O 0.2093(2) 0.6635(3) 0.1850(3)
O17_2 O 0.1258(3) 0.6350(2) 0.2654(3)
O21_2 O 0.3489(2) 0.6697(2) 0.2152(3)
O24_2 O 0.4109(2) 0.6189(2) 0.3069(3)
O26_2 O 0.2124(2) 0.3301(2) 0.0588(3)
O27_2 O 0.4199(2) 0.4624(2) 0.3088(3)
O28_5 O 0.0801(2) 0.0376(2) 0.1912(3)
O31_2 O 0.1249(2) 0.3807(2) 0.0051(3)
O32_2 O 0.3693(2) 0.3749(2) 0.2551(3)
O33_5 O 0.1307(2) 0.1251(2) 0.2449(3)
O35_2 O 0.0350(2) 0.5339(2) 0.1849(3)
O36_2 O 0.2161(2) 0.2850(2) 0.4349(3)
O37_2 O 0.2839(2) 0.2150(2) 0.0651(3)
O44_2 O 0.0353(2) 0.4793(2) 0.0665(3)
O45_2 O 0.2707(2) 0.2853(2) 0.3165(3)
O46_2 O 0.2293(2) 0.2147(2) 0.1835(3)
O52_2 O 0.2246(3) 0.7683(3) 0.0851(3)
H10_2 H 0.2010 0.7685 0.1262
H13_2 H 0.1976 0.7668 0.0364
O55_2 O 0.3758(3) 0.7599(3) 0.0812(3)
H16_2 H 0.3754 0.7811 0.1244
H19_2 H 0.3655 0.7887 0.0360
N7_2 N 0.2023(3) 0.5573(3) 0.3602(3)
N11_2 N 0.3123(3) 0.5522(3) 0.3745(3)
N13_2 N 0.1252(3) 0.4573(3) 0.2572(3)
N14_2 N 0.2927(3) 0.3752(3) 0.5072(3)
N17_2 N 0.2073(3) 0.6248(3) 0.0072(3)
N19_2 N 0.1907(3) 0.3772(3) 0.2096(3)
N20_2 N 0.3728(3) 0.4407(3) 0.4596(3)
N21_5 N 0.1272(3) 0.0593(3) 0.0404(3)
C13_2 C 0.2537(3) 0.5306(3) 0.3999(4)
H29_2 H 0.2488 0.4996 0.4417
C16_2 C 0.2988(3) 0.5960(3) 0.3127(4)
C19_2 C 0.2307(3) 0.6000(3) 0.3032(4)
C22_2 C 0.3547(3) 0.6305(3) 0.2750(4)
C25_2 C 0.1871(3) 0.6354(3) 0.2471(4)
C26_2 C 0.1722(4) 0.4135(4) 0.2736(4)
C27_3 C 0.3365(4) 0.4222(4) 0.5236(4)
H30_2 H 0.1905 0.4088 0.3259
H31_3 H 0.3412 0.4405 0.5759
C29_2 C 0.1516(3) 0.3979(3) 0.1461(4)
C30_3 C 0.3521(3) 0.4016(3) 0.3961(4)
C31_5 C 0.1479(3) 0.0984(3) 0.1039(4)
C32_2 C 0.1106(3) 0.4471(3) 0.1748(4)
C33_3 C 0.3029(3) 0.3606(3) 0.4248(4)
C34_5 C 0.1971(3) 0.1394(3) 0.0752(4)
C35_2 C 0.1623(3) 0.3686(3) 0.0631(4)
C36_3 C 0.3814(3) 0.4123(3) 0.3131(4)
C37_5 C 0.1186(3) 0.0877(3) 0.1869(4)
C38_2 C 0.0583(3) 0.4888(3) 0.1392(4)
C39_3 C 0.2612(3) 0.3083(3) 0.3892(4)
C40_5 C 0.2388(3) 0.1917(3) 0.1108(4)
Eu1_2 Eu 0.423431(16) 0.455005(17) 0.838412(19)
O1_2 O 0.4135(3) 0.5407(2) 0.9350(3)
O3_2 O 0.4197(2) 0.4011(2) 0.9652(3)
O5_2 O 0.2876(2) 0.6699(2) 0.5588(3)
O6_2 O 0.3751(2) 0.6193(2) 0.5051(3)
O7_2 O 0.4650(2) 0.4661(2) 0.6849(3)
O8_2 O 0.4647(2) 0.5207(2) 0.5665(3)
O9_2 O 0.5183(3) 0.5254(3) 0.8351(3)
H1_2 H 0.5185 0.5490 0.8762
H2_2 H 0.5168 0.5524 0.7864
O10_2 O 0.5099(3) 0.3742(3) 0.8312(3)
H3_2 H 0.5311 0.3746 0.8744
H4_2 H 0.5387 0.3845 0.7860
N3_2 N 0.3748(3) 0.5427(3) 0.7572(3)
N4_2 N 0.3093(3) 0.6228(3) 0.7096(3)
C5_2 C 0.3854(3) 0.5629(3) 0.9971(4)
C6_2 C 0.3278(4) 0.5865(4) 0.7736(4)
H8_2 H 0.3095 0.5912 0.8259
C7_2 C 0.3484(3) 0.6021(3) 0.6461(4)
C8_2 C 0.3894(3) 0.5529(3) 0.6748(4)
C9_2 C 0.3377(3) 0.6314(3) 0.5631(4)
C10_2 C 0.4417(3) 0.5112(3) 0.6392(4)
Eu8_5 Eu 0.294995(17) 0.173431(16) 0.911588(19)
Eu9_2 Eu 0.068510(16) 0.454780(15) 0.919220(18)
Eu10_2 Eu 0.204780(15) 0.681490(16) 0.669220(18)
O12_2 O 0.2907(2) 0.3365(3) 0.6850(3)
O13_2 O 0.0865(3) 0.4593(2) 0.4350(3)
O15_2 O 0.3742(3) 0.3650(2) 0.7654(3)
O16_2 O 0.1150(2) 0.3758(3) 0.5154(3)
O19_2 O 0.1511(2) 0.3303(2) 0.7152(3)
O20_2 O 0.0803(2) 0.5989(2) 0.4652(3)
O22_2 O 0.0891(2) 0.3811(2) 0.8069(3)
O23_2 O 0.1311(2) 0.6609(2) 0.5569(3)
O29_2 O 0.0801(2) 0.5376(2) 0.8088(3)
O34_2 O 0.1307(2) 0.6251(2) 0.7551(3)
O39_2 O 0.2839(2) 0.7150(2) 0.9349(3)
O41_2 O 0.2161(2) 0.7850(2) 0.5651(3)
O42_2 O 0.5350(2) 0.5339(2) 0.3151(3)
O48_2 O 0.2293(2) 0.7147(2) 0.8165(3)
O49_2 O 0.2707(2) 0.7853(2) 0.6835(3)
O50_2 O 0.5353(2) 0.4793(2) 0.4335(3)
O51_2 O 0.2754(3) 0.2317(3) 0.5851(3)
H9_2 H 0.2990 0.2315 0.6262
H12_2 H 0.3024 0.2332 0.5364
O54_2 O 0.1242(3) 0.2401(3) 0.5812(3)
H15_2 H 0.1246 0.2189 0.6244
H18_2 H 0.1345 0.2113 0.5360
O58_2 O 0.1138(3) 0.7574(3) 0.6987(3)
O59_2 O 0.5074(3) 0.6362(3) 0.4487(3)
H21_2 H 0.0131 0.3332 0.9696
H22_2 H 0.0832 0.7369 0.7196
H23_2 H 0.4869 0.6668 0.4696
H25_2 H 0.1287 0.7905 0.7366
H26_2 H 0.5405 0.6213 0.4866
N5_2 N 0.2977(3) 0.4427(3) 0.8602(3)
N6_2 N 0.1927(3) 0.4523(3) 0.6102(3)
N9_2 N 0.1877(3) 0.4478(3) 0.8745(3)
N10_2 N 0.1978(3) 0.5623(3) 0.6245(3)
N15_5 N 0.2073(3) 0.1248(3) 0.9928(3)
N22_2 N 0.1272(3) 0.5593(3) 0.9596(3)
C11_2 C 0.2463(3) 0.4694(3) 0.8999(4)
C12_2 C 0.2194(3) 0.5037(3) 0.6499(4)
H27_2 H 0.2512 0.5004 0.9417
H28_2 H 0.2504 0.4988 0.6917
C14_2 C 0.2012(3) 0.4040(3) 0.8127(4)
C15_2 C 0.1540(3) 0.5488(3) 0.5627(4)
C17_2 C 0.2693(3) 0.4000(3) 0.8032(4)
C18_2 C 0.1500(3) 0.4807(3) 0.5532(4)
C20_2 C 0.1453(3) 0.3695(3) 0.7750(4)
C21_2 C 0.1195(3) 0.6047(3) 0.5250(4)
C23_2 C 0.3129(3) 0.3646(3) 0.7471(4)
C24_2 C 0.1146(3) 0.4371(3) 0.4971(4)
C28_5 C 0.1635(4) 0.0778(4) 0.9764(4)
H32_5 H 0.1588 0.0595 0.9241
O40_2 O 0.9650(2) 0.4661(2) 0.8151(3)
O47_2 O 0.9647(2) 0.5207(2) 0.9335(3)
O53_2 O 0.9817(3) 0.4746(3) 0.3351(3)
H11_2 H 0.9815 0.4510 0.3762
H14_2 H 0.9832 0.4476 0.2864
O56_2 O 0.9901(3) 0.6258(3) 0.3312(3)
H17_2 H 0.9689 0.6254 0.3744
H20_2 H 0.9613 0.6155 0.2860
O57_2 O 0.9926(3) 0.3638(3) 0.9487(3)
H24_2 H 0.9595 0.3787 0.9866
C27_4 C 0.1635(4) 0.5778(4) 0.0236(4)
H31_4 H 0.1588 0.5595 0.0759
Eu8_6 Eu 0.205005(17) 0.826569(16) 0.411588(19)
O28_6 O 0.4199(2) 0.9624(2) 0.6912(3)
O33_6 O 0.3693(2) 0.8749(2) 0.7449(3)
N15_6 N 0.2927(3) 0.8752(3) 0.4928(3)
N21_6 N 0.3728(3) 0.9407(3) 0.5404(3)
C28_6 C 0.3365(4) 0.9222(4) 0.4764(4)
H32_6 H 0.3412 0.9405 0.4241
C30_4 C 0.1479(3) 0.5984(3) 0.8961(4)
C31_6 C 0.3521(3) 0.9016(3) 0.6039(4)
C33_4 C 0.1971(3) 0.6394(3) 0.9248(4)
C34_6 C 0.3029(3) 0.8606(3) 0.5752(4)
C36_4 C 0.1186(3) 0.5877(3) 0.8131(4)
C37_6 C 0.3814(3) 0.9123(3) 0.6869(4)
C39_4 C 0.2388(3) 0.6917(3) 0.8892(4)
C40_6 C 0.2612(3) 0.8083(3) 0.6108(4)
Eu8_7 Eu 0.576569(16) 0.544995(17) 0.161588(19)
O28_7 O 0.7124(2) 0.3301(2) 0.4412(3)
O33_7 O 0.6249(2) 0.3807(2) 0.4949(3)
N15_7 N 0.6252(3) 0.4573(3) 0.2428(3)
N21_7 N 0.6907(3) 0.3772(3) 0.2904(3)
C28_7 C 0.6722(4) 0.4135(4) 0.2264(4)
H32_7 H 0.6905 0.4088 0.1741
C31_7 C 0.6516(3) 0.3979(3) 0.3539(4)
C34_7 C 0.6106(3) 0.4471(3) 0.3252(4)
C37_7 C 0.6623(3) 0.3686(3) 0.4369(4)
C40_7 C 0.5583(3) 0.4888(3) 0.3608(4)
Eu8_8 Eu 0.923431(16) 0.455005(17) 0.661588(19)
O28_8 O 0.7876(2) 0.6699(2) 0.9412(3)
O33_8 O 0.8751(2) 0.6193(2) 0.9949(3)
N15_8 N 0.8748(3) 0.5427(3) 0.7428(3)
N21_8 N 0.8093(3) 0.6228(3) 0.7904(3)
C28_8 C 0.8278(4) 0.5865(4) 0.7264(4)
H32_8 H 0.8095 0.5912 0.6741
C31_8 C 0.8484(3) 0.6021(3) 0.8539(4)
C34_8 C 0.8894(3) 0.5529(3) 0.8252(4)
C37_8 C 0.8377(3) 0.6314(3) 0.9369(4)
C40_8 C 0.9417(3) 0.5112(3) 0.8608(4)
O13_3 O 0.4135(3) 0.0407(2) 0.0650(3)
O53_3 O 0.5183(3) 0.0254(3) 0.1649(3)
H11_3 H 0.5185 0.0490 0.1238
H14_3 H 0.5168 0.0524 0.2136
C24_3 C 0.3854(3) 0.0629(3) 0.0029(4)
O3_3 O 0.0803(2) 0.0989(2) 0.5348(3)
O4_3 O 0.1311(2) 0.1609(2) 0.4431(3)
O11_3 O 0.1138(3) 0.2574(3) 0.3013(3)
H5_3 H 0.0832 0.2369 0.2804
H6_3 H 0.1287 0.2905 0.2634
N2_3 N 0.1978(3) 0.0623(3) 0.3755(3)
C1_3 C 0.2194(3) 0.0037(3) 0.3501(4)
C2_3 C 0.1540(3) 0.0488(3) 0.4373(4)
C4_3 C 0.1195(3) 0.1047(3) 0.4750(4)
O12_3 O 0.2093(2) 0.1635(3) 0.8150(3)
O15_3 O 0.1258(3) 0.1350(2) 0.7346(3)
O16_3 O 0.3850(2) 0.1242(3) 0.9846(3)
O19_3 O 0.3489(2) 0.1697(2) 0.7848(3)
O22_3 O 0.4109(2) 0.1189(2) 0.6931(3)
O51_3 O 0.2246(3) 0.2683(3) 0.9149(3)
H9_3 H 0.2010 0.2685 0.8738
H12_3 H 0.1976 0.2668 0.9636
O54_3 O 0.3758(3) 0.2599(3) 0.9188(3)
H15_3 H 0.3754 0.2811 0.8756
H18_3 H 0.3655 0.2887 0.9640
O57_3 O 0.5074(3) 0.1362(3) 0.5513(3)
H21_3 H 0.4869 0.1668 0.5304
H24_3 H 0.5405 0.1213 0.5134
N5_3 N 0.2023(3) 0.0573(3) 0.6398(3)
N6_3 N 0.3073(3) 0.0477(3) 0.8898(3)
N9_3 N 0.3123(3) 0.0522(3) 0.6255(3)
C11_3 C 0.2537(3) 0.0306(3) 0.6001(4)
H28_3 H 0.2496 0.0012 0.8083
H29_3 H 0.2512 0.0004 0.0583
C14_3 C 0.2988(3) 0.0960(3) 0.6873(4)
C17_3 C 0.2307(3) 0.1000(3) 0.6968(4)
C18_3 C 0.3500(3) 0.0193(3) 0.9468(4)
C20_3 C 0.3547(3) 0.1305(3) 0.7250(4)
C23_3 C 0.1871(3) 0.1354(3) 0.7529(4)
O18 O 0.3742(3) 0.8650(2) 0.2346(3)
O20_3 O 0.4197(2) 0.9011(2) 0.0348(3)
O25 O 0.0891(2) 0.8811(2) 0.1931(3)
O56_3 O 0.5099(3) 0.8742(3) 0.1688(3)
H17_3 H 0.5311 0.8746 0.1256
H20_3 H 0.5387 0.8845 0.2140
H23_3 H 0.0131 0.8332 0.0304
N8 N 0.2977(3) 0.9427(3) 0.1398(3)
N12 N 0.1877(3) 0.9478(3) 0.1255(3)
O1_3 O 0.0865(3) 0.9593(2) 0.5650(3)
O2_3 O 0.1150(2) 0.8758(3) 0.4846(3)
N1_3 N 0.1927(3) 0.9523(3) 0.3898(3)
H7_3 H 0.2504 0.9988 0.3083
C3_3 C 0.1500(3) 0.9807(3) 0.4468(4)
C5_3 C 0.1146(3) 0.9371(3) 0.5029(4)
O14_3 O 0.2907(2) 0.8365(3) 0.3150(3)
O21_3 O 0.1511(2) 0.8303(2) 0.2848(3)
O23_3 O 0.3689(2) 0.8391(2) 0.9431(3)
O52_3 O 0.2754(3) 0.7317(3) 0.4149(3)
H10_3 H 0.2990 0.7315 0.3738
H13_3 H 0.3024 0.7332 0.4636
O55_3 O 0.1242(3) 0.7401(3) 0.4188(3)
H16_3 H 0.1246 0.7189 0.3756
H19_3 H 0.1345 0.7113 0.4640
O58_3 O 0.3862(3) 0.7426(3) 0.8013(3)
H22_3 H 0.4168 0.7631 0.7804
H25_3 H 0.3713 0.7095 0.7634
N10_3 N 0.3022(3) 0.9377(3) 0.8755(3)
C12_3 C 0.2806(3) 0.9963(3) 0.8501(4)
C13_3 C 0.2463(3) 0.9694(3) 0.1001(4)
H27_3 H 0.2488 0.9996 0.5583
C15_3 C 0.3460(3) 0.9512(3) 0.9373(4)
C16_3 C 0.2012(3) 0.9040(3) 0.1873(4)
C19_3 C 0.2693(3) 0.9000(3) 0.1968(4)
C21_3 C 0.3805(3) 0.8953(3) 0.9750(4)
C22_3 C 0.1453(3) 0.8695(3) 0.2250(4)
C25_3 C 0.3129(3) 0.8646(3) 0.2529(4)
O10_3 O 0.9901(3) 0.1258(3) 0.6688(3)
H3_3 H 0.9689 0.1254 0.6256
H4_3 H 0.9613 0.1155 0.7140
O59_3 O 0.9926(3) 0.8638(3) 0.0513(3)
H26_3 H 0.9595 0.8787 0.0134
O9_3 O 0.9817(3) 0.9746(3) 0.6649(3)
H1_3 H 0.9815 0.9510 0.6238
H2_3 H 0.9832 0.9476 0.7136
O53_4 O 0.0183(3) 0.5254(3) 0.6649(3)
H11_4 H 0.0185 0.5490 0.6238
H14_4 H 0.0168 0.5524 0.7136
O56_4 O 0.0099(3) 0.3742(3) 0.6688(3)
H17_4 H 0.0311 0.3746 0.6256
H20_4 H 0.0387 0.3845 0.7140
O57_4 O 0.0074(3) 0.6362(3) 0.0513(3)
H24_4 H 0.0405 0.6213 0.0134
O1_4 O 0.5865(3) 0.4593(2) 0.0650(3)
O3_4 O 0.5803(2) 0.5989(2) 0.0348(3)
O9_4 O 0.4817(3) 0.4746(3) 0.1649(3)
H1_4 H 0.4815 0.4510 0.1238
H2_4 H 0.4832 0.4476 0.2136
O10_4 O 0.4901(3) 0.6258(3) 0.1688(3)
H3_4 H 0.4689 0.6254 0.1256
H4_4 H 0.4613 0.6155 0.2140
C5_4 C 0.6146(3) 0.4371(3) 0.0029(4)
O12_4 O 0.7093(2) 0.6635(3) 0.3150(3)
O13_4 O 0.9135(3) 0.5407(2) 0.5650(3)
O15_4 O 0.6258(3) 0.6350(2) 0.2346(3)
O16_4 O 0.8850(2) 0.6242(3) 0.4846(3)
O18_2 O 0.8742(3) 0.3650(2) 0.7346(3)
O19_4 O 0.8489(2) 0.6697(2) 0.2848(3)
O20_4 O 0.9197(2) 0.4011(2) 0.5348(3)
O22_4 O 0.9109(2) 0.6189(2) 0.1931(3)
O23_4 O 0.8689(2) 0.3391(2) 0.4431(3)
O25_2 O 0.5891(2) 0.3811(2) 0.6931(3)
O51_4 O 0.7246(3) 0.7683(3) 0.4149(3)
H9_4 H 0.7010 0.7685 0.3738
H12_4 H 0.6976 0.7668 0.4636
O54_4 O 0.8758(3) 0.7599(3) 0.4188(3)
H15_4 H 0.8754 0.7811 0.3756
H18_4 H 0.8655 0.7887 0.4640
O58_4 O 0.8862(3) 0.2426(3) 0.3013(3)
O59_4 O 0.4926(3) 0.3638(3) 0.5513(3)
H21_4 H 0.9869 0.6668 0.0304
H22_4 H 0.9168 0.2631 0.2804
H23_4 H 0.5131 0.3332 0.5304
H25_4 H 0.8713 0.2095 0.2634
H26_4 H 0.4595 0.3787 0.5134
N5_4 N 0.7023(3) 0.5573(3) 0.1398(3)
N6_4 N 0.8073(3) 0.5477(3) 0.3898(3)
N8_2 N 0.7977(3) 0.4427(3) 0.6398(3)
N9_4 N 0.8123(3) 0.5522(3) 0.1255(3)
N10_4 N 0.8022(3) 0.4377(3) 0.3755(3)
N12_2 N 0.6877(3) 0.4478(3) 0.6255(3)
C11_4 C 0.7537(3) 0.5306(3) 0.1001(4)
C12_4 C 0.7806(3) 0.4963(3) 0.3501(4)
H27_4 H 0.7488 0.4996 0.0583
H28_4 H 0.7496 0.5012 0.3083
C14_4 C 0.7988(3) 0.5960(3) 0.1873(4)
C15_4 C 0.8460(3) 0.4512(3) 0.4373(4)
C17_4 C 0.7307(3) 0.6000(3) 0.1968(4)
C18_4 C 0.8500(3) 0.5193(3) 0.4468(4)
C20_4 C 0.8547(3) 0.6305(3) 0.2250(4)
C21_4 C 0.8805(3) 0.3953(3) 0.4750(4)
C23_4 C 0.6871(3) 0.6354(3) 0.2529(4)
C24_4 C 0.8854(3) 0.5629(3) 0.5029(4)
O2_4 O 0.6150(2) 0.3758(3) 0.9846(3)
O4_4 O 0.6311(2) 0.6609(2) 0.9431(3)
O11_4 O 0.6138(3) 0.7574(3) 0.8013(3)
H5_4 H 0.5832 0.7369 0.7804
H6_4 H 0.6287 0.7905 0.7634
N1_4 N 0.6927(3) 0.4523(3) 0.8898(3)
N2_4 N 0.6978(3) 0.5623(3) 0.8755(3)
C1_4 C 0.7194(3) 0.5037(3) 0.8501(4)
H7_4 H 0.7504 0.4988 0.8083
C2_4 C 0.6540(3) 0.5488(3) 0.9373(4)
C3_4 C 0.6500(3) 0.4807(3) 0.9468(4)
C4_4 C 0.6195(3) 0.6047(3) 0.9750(4)
O14_4 O 0.7907(2) 0.3365(3) 0.8150(3)
O21_4 O 0.6511(2) 0.3303(2) 0.7848(3)
O52_4 O 0.7754(3) 0.2317(3) 0.9149(3)
H10_4 H 0.7990 0.2315 0.8738
H13_4 H 0.8024 0.2332 0.9636
O55_4 O 0.6242(3) 0.2401(3) 0.9188(3)
H16_4 H 0.6246 0.2189 0.8756
H19_4 H 0.6345 0.2113 0.9640
C13_4 C 0.7463(3) 0.4694(3) 0.6001(4)
H29_4 H 0.7512 0.5004 0.5583
C16_4 C 0.7012(3) 0.4040(3) 0.6873(4)
C19_4 C 0.7693(3) 0.4000(3) 0.6968(4)
C22_4 C 0.6453(3) 0.3695(3) 0.7250(4)
C25_4 C 0.8129(3) 0.3646(3) 0.7529(4)
loop_
_geom_bond_atom_site_label_1
_geom_bond_atom_site_label_2
_geom_bond_site_symmetry_1
_geom_bond_site_symmetry_2
H1 O9 1_555 1_555
H2 O9 1_555 1_555
H26 O59 1_555 1_555
H3 O10 1_555 1_555
H4 O10 1_555 1_555
O1 C5 1_555 1_555
O2 C5 1_555 1_555
O5 C9 1_555 1_555
O6 C9 1_555 1_555
O8 C10 1_555 1_555
N4 C6 1_555 1_555
C3 N1 1_555 1_555
C5 C3 1_555 1_555
C6 N3 1_555 1_555
H8 C6 1_555 1_555
C7 N4 1_555 1_555
C8 N3 1_555 1_555
C9 C7 1_555 1_555
Eu4 O2 1_555 1_555
Eu6 O17 1_555 1_555
Eu10 O5 1_555 1_555
Eu13 O35 1_555 1_555
Eu14 O24 1_555 1_555
O14 Eu4 1_555 1_555
O17 C25 1_555 1_555
O21 Eu4 1_555 1_555
O23 Eu10 1_555 1_555
O24 C22 1_555 1_555
O34 Eu10 1_555 1_555
O35 Eu6 1_555 1_555
O39 Eu4 1_555 1_555
O41 Eu10 1_555 1_555
O48 Eu10 1_555 1_555
O49 Eu10 1_555 1_555
O52 Eu4 1_555 1_555
H10 O52 1_555 1_555
H13 O52 1_555 1_555
O55 Eu4 1_555 1_555
H16 O55 1_555 1_555
H19 O55 1_555 1_555
O58 Eu10 1_555 1_555
H22 O58 1_555 1_555
H25 O58 1_555 1_555
N7 Eu6 1_555 1_555
N10 Eu10 1_555 1_555
N11 Eu14 1_555 1_555
N17 Eu4 1_555 1_555
C13 N7 1_555 1_555
C15 N10 1_555 1_555
C16 N11 1_555 1_555
C19 N7 1_555 1_555
C22 O21 1_555 1_555
C25 O14 1_555 1_555
N1 Eu4 1_555 1_555
N4 Eu10 1_555 1_555
C7 C8 1_555 1_555
C8 C10 1_555 1_555
Eu13 O47 1_555 1_555
O23 C21 1_555 1_555
N10 C12 1_555 1_555
N11 C13 1_555 1_555
C15 C21 1_555 1_555
C16 C19 1_555 1_555
C16 C22 1_555 1_555
C19 C25 1_555 1_555
O20 Eu6 1_555 1_555
O56 Eu6 1_555 1_555
H17 O56 1_555 1_555
H20 O56 1_555 1_555
N14 Eu7 1_555 1_555
C27 N14 1_555 1_555
H31 C27 1_555 1_555
Eu2 O4 1_555 1_555
O3 Eu1 1_555 1_555
O4 C4 1_555 1_555
O7 Eu1 1_555 1_555
O11 Eu2 1_555 1_555
H5 O11 1_555 1_555
H6 O11 1_555 1_555
N2 Eu2 1_555 1_555
C1 N2 1_555 1_555
C2 N2 1_555 1_555
C4 O3 1_555 1_555
Eu7 O12 1_555 1_555
Eu8 O37 1_555 1_555
Eu9 O22 1_555 1_555
Eu15 O33 1_555 1_555
Eu16 O28 1_555 1_555
O12 C23 1_555 1_555
O15 Eu1 1_555 1_555
O16 Eu7 1_555 1_555
O19 Eu7 1_555 1_555
O22 C20 1_555 1_555
O26 Eu2 1_555 1_555
O28 C37 1_555 1_555
O31 Eu9 1_555 1_555
O32 Eu2 1_555 1_555
O33 C37 1_555 1_555
O36 Eu15 1_555 1_555
O37 Eu2 1_555 1_555
O40 Eu9 1_555 1_555
O44 Eu9 1_555 1_555
O45 Eu2 1_555 1_555
O46 Eu2 1_555 1_555
O51 Eu7 1_555 1_555
H9 O51 1_555 1_555
H12 O51 1_555 1_555
O54 Eu7 1_555 1_555
H15 O54 1_555 1_555
H18 O54 1_555 1_555
O57 Eu9 1_555 1_555
H21 O57 1_555 1_555
H24 O57 1_555 1_555
N5 Eu1 1_555 1_555
N6 Eu7 1_555 1_555
N9 Eu9 1_555 1_555
N15 Eu8 1_555 1_555
N19 Eu2 1_555 1_555
N21 Eu16 1_555 1_555
C11 N5 1_555 1_555
C14 N9 1_555 1_555
C17 N5 1_555 1_555
C18 N6 1_555 1_555
C20 O19 1_555 1_555
C23 O15 1_555 1_555
C26 N13 1_555 1_555
C28 N15 1_555 1_555
H30 C26 1_555 1_555
H32 C28 1_555 1_555
C29 N19 1_555 1_555
C30 N20 1_555 1_555
C31 N21 1_555 1_555
C32 N13 1_555 1_555
C34 N15 1_555 1_555
C35 O26 1_555 1_555
C36 O27 1_555 1_555
C37 C31 1_555 1_555
C39 O36 1_555 1_555
C40 O37 1_555 1_555
C2 C4 1_555 1_555
Eu15 O45 1_555 1_555
Eu15 O46 1_555 1_555
O31 C35 1_555 1_555
O32 C36 1_555 1_555
O44 C38 1_555 1_555
O45 C39 1_555 1_555
O46 C40 1_555 1_555
N9 C11 1_555 1_555
N19 C26 1_555 1_555
N21 C28 1_555 1_555
C14 C17 1_555 1_555
C14 C20 1_555 1_555
C17 C23 1_555 1_555
C29 C32 1_555 1_555
C29 C35 1_555 1_555
C30 C33 1_555 1_555
C30 C36 1_555 1_555
C31 C34 1_555 1_555
C32 C38 1_555 1_555
C33 C39 1_555 1_555
C34 C40 1_555 1_555
O13 C24 1_555 1_555
H11 O53 1_555 1_555
H14 O53 1_555 1_555
Eu15_2 O33_2 1_555 1_555
Eu16_2 O28_2 1_555 1_555
O28_2 C37_2 1_555 1_555
O33_2 C37_2 1_555 1_555
O39 Eu15_2 1_555 1_555
N21_2 Eu16_2 1_555 1_555
C27_2 N17 1_555 1_555
H31_2 C27_2 1_555 1_555
C30_2 N22 1_555 1_555
C31_2 N21_2 1_555 1_555
C33_2 N17 1_555 1_555
C36_2 O29 1_555 1_555
C37_2 C31_2 1_555 1_555
C39_2 O39 1_555 1_555
C40_2 O41 1_555 1_555
Eu15_2 O48 1_555 1_555
Eu15_2 O49 1_555 1_555
O34 C36_2 1_555 1_555
O48 C39_2 1_555 1_555
O49 C40_2 1_555 1_555
N22 C27_2 1_555 1_555
C30_2 C33_2 1_555 1_555
C30_2 C36_2 1_555 1_555
C31_2 C34_2 1_555 1_555
C33_2 C39_2 1_555 1_555
C34_2 C40_2 1_555 1_555
N15_2 Eu8_2 1_555 1_555
C28_2 N15_2 1_555 1_555
H32_2 C28_2 1_555 1_555
Eu8_3 O42 1_555 1_555
Eu16_3 O28_3 1_555 1_555
O28_3 C37_3 1_555 1_555
O33_3 C37_3 1_555 1_555
N21_3 Eu16_3 1_555 1_555
C28_3 N15_3 1_555 1_555
H32_3 C28_3 1_555 1_555
C31_3 N21_3 1_555 1_555
C34_3 N15_3 1_555 1_555
C37_3 C31_3 1_555 1_555
O50 C40_3 1_555 1_555
N21_3 C28_3 1_555 1_555
C31_3 C34_3 1_555 1_555
C34_3 C40_3 1_555 1_555
Eu13 O33_4 1_555 1_555
Eu16_4 O28_4 1_555 1_555
O28_4 C37_4 1_555 1_555
O33_4 C37_4 1_555 1_555
N21_4 Eu16_4 1_555 1_555
C28_4 N15_4 1_555 1_555
H32_4 C28_4 1_555 1_555
C31_4 N21_4 1_555 1_555
C34_4 N15_4 1_555 1_555
C37_4 C31_4 1_555 1_555
O47 C40_4 1_555 1_555
N21_4 C28_4 1_555 1_555
C31_4 C34_4 1_555 1_555
C34_4 C40_4 1_555 1_555
Eu8_4 O40 1_555 1_555
Eu2_2 O4_2 1_555 1_555
O4_2 C4_2 1_555 1_555
O11_2 Eu2_2 1_555 1_555
H5_2 O11_2 1_555 1_555
H6_2 O11_2 1_555 1_555
N1_2 C1_2 1_555 1_555
N2_2 Eu2_2 1_555 1_555
C1_2 N2_2 1_555 1_555
H7_2 C1_2 1_555 1_555
C2_2 N2_2 1_555 1_555
C3_2 N1_2 1_555 1_555
Eu4_2 O2_2 1_555 1_555
Eu6_2 O17_2 1_555 1_555
Eu7_2 O36_2 1_555 1_555
Eu14_2 O24_2 1_555 1_555
Eu16_4 O33_5 1_555 1_555
O14_2 Eu4_2 1_555 1_555
O17_2 C25_2 1_555 1_555
O21_2 Eu4_2 1_555 1_555
O24_2 C22_2 1_555 1_555
O26_2 Eu2_2 1_555 1_555
O27_2 Eu14_2 1_555 1_555
O28_5 C37_5 1_555 1_555
O32_2 Eu2_2 1_555 1_555
O33_5 C37_5 1_555 1_555
O35_2 Eu6_2 1_555 1_555
O36_2 Eu16_4 1_555 1_555
O37_2 Eu2_2 1_555 1_555
O45_2 Eu2_2 1_555 1_555
O46_2 Eu2_2 1_555 1_555
O52_2 Eu4_2 1_555 1_555
H10_2 O52_2 1_555 1_555
H13_2 O52_2 1_555 1_555
O55_2 Eu4_2 1_555 1_555
H16_2 O55_2 1_555 1_555
H19_2 O55_2 1_555 1_555
N7_2 Eu6_2 1_555 1_555
N11_2 Eu14_2 1_555 1_555
N13_2 Eu6_2 1_555 1_555
N14_2 Eu7_2 1_555 1_555
N17_2 Eu4_2 1_555 1_555
N19_2 Eu2_2 1_555 1_555
N20_2 Eu14_2 1_555 1_555
C13_2 N7_2 1_555 1_555
H29_2 C13_2 1_555 1_555
C16_2 N11_2 1_555 1_555
C19_2 N7_2 1_555 1_555
C22_2 O21_2 1_555 1_555
C25_2 O14_2 1_555 1_555
C26_2 N13_2 1_555 1_555
C27_3 N14_2 1_555 1_555
H30_2 C26_2 1_555 1_555
H31_3 C27_3 1_555 1_555
C29_2 N19_2 1_555 1_555
C30_3 N20_2 1_555 1_555
C31_5 N21_5 1_555 1_555
C32_2 N13_2 1_555 1_555
C33_3 N14_2 1_555 1_555
C35_2 O26_2 1_555 1_555
C36_3 O27_2 1_555 1_555
C37_5 C31_5 1_555 1_555
C38_2 O35_2 1_555 1_555
C39_3 O36_2 1_555 1_555
C40_5 O37_2 1_555 1_555
N1_2 Eu4_2 1_555 1_555
C2_2 C3_2 1_555 1_555
C2_2 C4_2 1_555 1_555
Eu16_4 O45_2 1_555 1_555
Eu16_4 O46_2 1_555 1_555
O31_2 C35_2 1_555 1_555
O32_2 C36_3 1_555 1_555
O44_2 C38_2 1_555 1_555
O45_2 C39_3 1_555 1_555
O46_2 C40_5 1_555 1_555
N11_2 C13_2 1_555 1_555
N19_2 C26_2 1_555 1_555
N20_2 C27_3 1_555 1_555
C16_2 C19_2 1_555 1_555
C16_2 C22_2 1_555 1_555
C19_2 C25_2 1_555 1_555
C29_2 C32_2 1_555 1_555
C29_2 C35_2 1_555 1_555
C30_3 C33_3 1_555 1_555
C30_3 C36_3 1_555 1_555
C31_5 C34_5 1_555 1_555
C32_2 C38_2 1_555 1_555
C33_3 C39_3 1_555 1_555
C34_5 C40_5 1_555 1_555
Eu1_2 O1_2 1_555 1_555
O1_2 C5_2 1_555 1_555
O3_2 Eu1_2 1_555 1_555
O5_2 C9_2 1_555 1_555
O6_2 C9_2 1_555 1_555
O7_2 Eu1_2 1_555 1_555
O8_2 C10_2 1_555 1_555
O9_2 Eu1_2 1_555 1_555
H1_2 O9_2 1_555 1_555
H2_2 O9_2 1_555 1_555
O10_2 Eu1_2 1_555 1_555
H3_2 O10_2 1_555 1_555
H4_2 O10_2 1_555 1_555
N3_2 Eu1_2 1_555 1_555
N4_2 C6_2 1_555 1_555
C6_2 N3_2 1_555 1_555
H8_2 C6_2 1_555 1_555
C7_2 N4_2 1_555 1_555
C8_2 N3_2 1_555 1_555
C9_2 C7_2 1_555 1_555
C10_2 O7_2 1_555 1_555
Eu7_2 O12_2 1_555 1_555
Eu6_2 O13_2 1_555 1_555
Eu9_2 O22_2 1_555 1_555
Eu10_2 O5_2 1_555 1_555
Eu14_2 O6_2 1_555 1_555
Eu16 O7_2 1_555 1_555
O12_2 C23_2 1_555 1_555
O13_2 C24_2 1_555 1_555
O15_2 Eu1_2 1_555 1_555
O16_2 Eu7_2 1_555 1_555
O19_2 Eu7_2 1_555 1_555
O20_2 Eu6_2 1_555 1_555
O22_2 C20_2 1_555 1_555
O23_2 Eu10_2 1_555 1_555
O29_2 Eu9_2 1_555 1_555
O34_2 Eu10_2 1_555 1_555
O41_2 Eu10_2 1_555 1_555
O42_2 Eu14_2 1_555 1_555
O48_2 Eu10_2 1_555 1_555
O49_2 Eu10_2 1_555 1_555
O50_2 Eu14_2 1_555 1_555
O51_2 Eu7_2 1_555 1_555
H9_2 O51_2 1_555 1_555
H12_2 O51_2 1_555 1_555
O54_2 Eu7_2 1_555 1_555
H15_2 O54_2 1_555 1_555
H18_2 O54_2 1_555 1_555
O58_2 Eu10_2 1_555 1_555
O59_2 Eu14_2 1_555 1_555
H22_2 O58_2 1_555 1_555
H23_2 O59_2 1_555 1_555
H25_2 O58_2 1_555 1_555
H26_2 O59_2 1_555 1_555
N5_2 Eu1_2 1_555 1_555
N6_2 Eu7_2 1_555 1_555
N9_2 Eu9_2 1_555 1_555
N10_2 Eu10_2 1_555 1_555
N15_5 Eu8_5 1_555 1_555
N22_2 Eu9_2 1_555 1_555
C11_2 N5_2 1_555 1_555
C12_2 N6_2 1_555 1_555
H27_2 C11_2 1_555 1_555
H28_2 C12_2 1_555 1_555
C14_2 N9_2 1_555 1_555
C15_2 N10_2 1_555 1_555
C17_2 N5_2 1_555 1_555
C18_2 N6_2 1_555 1_555
C20_2 O19_2 1_555 1_555
C21_2 O20_2 1_555 1_555
C23_2 O15_2 1_555 1_555
C24_2 O16_2 1_555 1_555
C28_5 N15_5 1_555 1_555
H32_5 C28_5 1_555 1_555
O8_2 Eu14_2 1_555 1_555
O8_2 Eu16 1_555 1_555
N4_2 Eu10_2 1_555 1_555
C7_2 C8_2 1_555 1_555
C8_2 C10_2 1_555 1_555
Eu16 O50_2 1_555 1_555
O23_2 C21_2 1_555 1_555
N9_2 C11_2 1_555 1_555
N10_2 C12_2 1_555 1_555
C14_2 C17_2 1_555 1_555
C14_2 C20_2 1_555 1_555
C15_2 C18_2 1_555 1_555
C15_2 C21_2 1_555 1_555
C17_2 C23_2 1_555 1_555
C18_2 C24_2 1_555 1_555
H11_2 O53_2 1_555 1_555
H14_2 O53_2 1_555 1_555
H17_2 O56_2 1_555 1_555
H20_2 O56_2 1_555 1_555
H24_2 O57_2 1_555 1_555
C27_4 N17_2 1_555 1_555
H31_4 C27_4 1_555 1_555
Eu8_6 O41_2 1_555 1_555
Eu16_3 O33_6 1_555 1_555
O28_6 C37_6 1_555 1_555
O33_6 C37_6 1_555 1_555
O39_2 Eu16_3 1_555 1_555
N15_6 Eu8_6 1_555 1_555
C28_6 N15_6 1_555 1_555
H32_6 C28_6 1_555 1_555
C30_4 N22_2 1_555 1_555
C31_6 N21_6 1_555 1_555
C34_6 N15_6 1_555 1_555
C36_4 O29_2 1_555 1_555
C37_6 C31_6 1_555 1_555
C39_4 O39_2 1_555 1_555
C40_6 O41_2 1_555 1_555
Eu16_3 O48_2 1_555 1_555
Eu16_3 O49_2 1_555 1_555
O34_2 C36_4 1_555 1_555
O48_2 C39_4 1_555 1_555
O49_2 C40_6 1_555 1_555
N21_6 C28_6 1_555 1_555
C30_4 C33_4 1_555 1_555
C30_4 C36_4 1_555 1_555
C31_6 C34_6 1_555 1_555
C33_4 C39_4 1_555 1_555
C34_6 C40_6 1_555 1_555
Eu8_7 O42_2 1_555 1_555
Eu16 O33_7 1_555 1_555
Eu15_2 O28_7 1_555 1_555
O28_7 C37_7 1_555 1_555
O33_7 C37_7 1_555 1_555
N15_7 Eu8_7 1_555 1_555
N21_7 Eu15_2 1_555 1_555
C28_7 N15_7 1_555 1_555
H32_7 C28_7 1_555 1_555
C31_7 N21_7 1_555 1_555
C34_7 N15_7 1_555 1_555
C37_7 C31_7 1_555 1_555
C40_7 O42_2 1_555 1_555
O50_2 C40_7 1_555 1_555
N21_7 C28_7 1_555 1_555
C31_7 C34_7 1_555 1_555
C34_7 C40_7 1_555 1_555
Eu8_8 O40_2 1_555 1_555
Eu15 O28_8 1_555 1_555
O28_8 C37_8 1_555 1_555
O33_8 C37_8 1_555 1_555
N15_8 Eu8_8 1_555 1_555
N21_8 Eu15 1_555 1_555
C28_8 N15_8 1_555 1_555
H32_8 C28_8 1_555 1_555
C31_8 N21_8 1_555 1_555
C34_8 N15_8 1_555 1_555
C37_8 C31_8 1_555 1_555
C40_8 O40_2 1_555 1_555
O47_2 C40_8 1_555 1_555
N21_8 C28_8 1_555 1_555
C31_8 C34_8 1_555 1_555
C34_8 C40_8 1_555 1_555
O13_3 C24_3 1_555 1_555
H11_3 O53_3 1_555 1_555
H14_3 O53_3 1_555 1_555
Eu16_4 O4_3 1_555 1_555
O3_3 Eu8_3 1_555 1_555
O4_3 C4_3 1_555 1_555
O11_3 Eu16_4 1_555 1_555
H5_3 O11_3 1_555 1_555
H6_3 O11_3 1_555 1_555
N2_3 Eu16_4 1_555 1_555
C1_3 N2_3 1_555 1_555
C2_3 N2_3 1_555 1_555
C4_3 O3_3 1_555 1_555
Eu8_5 O12_3 1_555 1_555
Eu13 O22_3 1_555 1_555
O12_3 C23_3 1_555 1_555
O15_3 Eu8_3 1_555 1_555
O16_3 Eu8_5 1_555 1_555
O19_3 Eu8_5 1_555 1_555
O22_3 C20_3 1_555 1_555
O51_3 Eu8_5 1_555 1_555
H9_3 O51_3 1_555 1_555
H12_3 O51_3 1_555 1_555
O54_3 Eu8_5 1_555 1_555
H15_3 O54_3 1_555 1_555
H18_3 O54_3 1_555 1_555
O57_3 Eu13 1_555 1_555
H21_3 O57_3 1_555 1_555
H24_3 O57_3 1_555 1_555
N5_3 Eu8_3 1_555 1_555
N6_3 Eu8_5 1_555 1_555
N9_3 Eu13 1_555 1_555
C11_3 N5_3 1_555 1_555
C14_3 N9_3 1_555 1_555
C17_3 N5_3 1_555 1_555
C18_3 N6_3 1_555 1_555
C20_3 O19_3 1_555 1_555
C23_3 O15_3 1_555 1_555
C2_3 C4_3 1_555 1_555
N9_3 C11_3 1_555 1_555
C14_3 C17_3 1_555 1_555
C14_3 C20_3 1_555 1_555
C17_3 C23_3 1_555 1_555
O18 Eu8_4 1_555 1_555
O20_3 Eu8_4 1_555 1_555
O25 Eu12 1_555 1_555
O56_3 Eu8_4 1_555 1_555
H17_3 O56_3 1_555 1_555
H20_3 O56_3 1_555 1_555
N8 Eu8_4 1_555 1_555
N12 Eu12 1_555 1_555
O1_3 C5_3 1_555 1_555
O2_3 C5_3 1_555 1_555
C3_3 N1_3 1_555 1_555
C5_3 C3_3 1_555 1_555
Eu8_6 O2_3 1_555 1_555
O14_3 Eu8_6 1_555 1_555
O18 C25_3 1_555 1_555
O21_3 Eu8_6 1_555 1_555
O23_3 Eu16_3 1_555 1_555
O25 C22_3 1_555 1_555
O52_3 Eu8_6 1_555 1_555
H10_3 O52_3 1_555 1_555
H13_3 O52_3 1_555 1_555
O55_3 Eu8_6 1_555 1_555
H16_3 O55_3 1_555 1_555
H19_3 O55_3 1_555 1_555
O58_3 Eu16_3 1_555 1_555
H22_3 O58_3 1_555 1_555
H25_3 O58_3 1_555 1_555
N10_3 Eu16_3 1_555 1_555
C13_3 N8 1_555 1_555
C15_3 N10_3 1_555 1_555
C16_3 N12 1_555 1_555
C19_3 N8 1_555 1_555
C22_3 O21_3 1_555 1_555
C25_3 O14_3 1_555 1_555
N1_3 Eu8_6 1_555 1_555
O23_3 C21_3 1_555 1_555
N10_3 C12_3 1_555 1_555
N12 C13_3 1_555 1_555
C15_3 C21_3 1_555 1_555
C16_3 C19_3 1_555 1_555
C16_3 C22_3 1_555 1_555
C19_3 C25_3 1_555 1_555
H3_3 O10_3 1_555 1_555
H4_3 O10_3 1_555 1_555
H26_3 O59_3 1_555 1_555
H1_3 O9_3 1_555 1_555
H2_3 O9_3 1_555 1_555
H11_4 O53_4 1_555 1_555
H14_4 O53_4 1_555 1_555
H17_4 O56_4 1_555 1_555
H20_4 O56_4 1_555 1_555
H24_4 O57_4 1_555 1_555
Eu8_7 O1_4 1_555 1_555
O1_4 C5_4 1_555 1_555
O3_4 Eu8_7 1_555 1_555
O9_4 Eu8_7 1_555 1_555
H1_4 O9_4 1_555 1_555
H2_4 O9_4 1_555 1_555
O10_4 Eu8_7 1_555 1_555
H3_4 O10_4 1_555 1_555
H4_4 O10_4 1_555 1_555
Eu8 O12_4 1_555 1_555
Eu8_8 O13_4 1_555 1_555
Eu16_2 O22_4 1_555 1_555
O12_4 C23_4 1_555 1_555
O13_4 C24_4 1_555 1_555
O15_4 Eu8_7 1_555 1_555
O16_4 Eu8 1_555 1_555
O18_2 Eu8_8 1_555 1_555
O19_4 Eu8 1_555 1_555
O20_4 Eu8_8 1_555 1_555
O22_4 C20_4 1_555 1_555
O23_4 Eu15_2 1_555 1_555
O25_2 Eu16 1_555 1_555
O51_4 Eu8 1_555 1_555
H9_4 O51_4 1_555 1_555
H12_4 O51_4 1_555 1_555
O54_4 Eu8 1_555 1_555
H15_4 O54_4 1_555 1_555
H18_4 O54_4 1_555 1_555
O58_4 Eu15_2 1_555 1_555
O59_4 Eu16 1_555 1_555
H22_4 O58_4 1_555 1_555
H23_4 O59_4 1_555 1_555
H25_4 O58_4 1_555 1_555
H26_4 O59_4 1_555 1_555
N5_4 Eu8_7 1_555 1_555
N6_4 Eu8 1_555 1_555
N8_2 Eu8_8 1_555 1_555
N9_4 Eu16_2 1_555 1_555
N10_4 Eu15_2 1_555 1_555
N12_2 Eu16 1_555 1_555
C11_4 N5_4 1_555 1_555
C12_4 N6_4 1_555 1_555
H27_4 C11_4 1_555 1_555
H28_4 C12_4 1_555 1_555
C14_4 N9_4 1_555 1_555
C15_4 N10_4 1_555 1_555
C17_4 N5_4 1_555 1_555
C18_4 N6_4 1_555 1_555
C20_4 O19_4 1_555 1_555
C21_4 O20_4 1_555 1_555
C23_4 O15_4 1_555 1_555
C24_4 O16_4 1_555 1_555
O23_4 C21_4 1_555 1_555
N9_4 C11_4 1_555 1_555
N10_4 C12_4 1_555 1_555
C14_4 C17_4 1_555 1_555
C14_4 C20_4 1_555 1_555
C15_4 C18_4 1_555 1_555
C15_4 C21_4 1_555 1_555
C17_4 C23_4 1_555 1_555
C18_4 C24_4 1_555 1_555
Eu15 O4_4 1_555 1_555
O4_4 C4_4 1_555 1_555
O11_4 Eu15 1_555 1_555
H5_4 O11_4 1_555 1_555
H6_4 O11_4 1_555 1_555
N1_4 C1_4 1_555 1_555
N2_4 Eu15 1_555 1_555
C1_4 N2_4 1_555 1_555
H7_4 C1_4 1_555 1_555
C2_4 N2_4 1_555 1_555
C3_4 N1_4 1_555 1_555
Eu8_2 O2_4 1_555 1_555
O14_4 Eu8_2 1_555 1_555
O18_2 C25_4 1_555 1_555
O21_4 Eu8_2 1_555 1_555
O25_2 C22_4 1_555 1_555
O52_4 Eu8_2 1_555 1_555
H10_4 O52_4 1_555 1_555
H13_4 O52_4 1_555 1_555
O55_4 Eu8_2 1_555 1_555
H16_4 O55_4 1_555 1_555
H19_4 O55_4 1_555 1_555
C13_4 N8_2 1_555 1_555
H29_4 C13_4 1_555 1_555
C16_4 N12_2 1_555 1_555
C19_4 N8_2 1_555 1_555
C22_4 O21_4 1_555 1_555
C25_4 O14_4 1_555 1_555
N1_4 Eu8_2 1_555 1_555
C2_4 C3_4 1_555 1_555
C2_4 C4_4 1_555 1_555
N12_2 C13_4 1_555 1_555
C16_4 C19_4 1_555 1_555
C16_4 C22_4 1_555 1_555
C19_4 C25_4 1_555 1_555

#END
