
###############################################################################
#
# This file contains modified crystal structure data generated from the
# MOF subset of the Cambridge Structural Database (CSD) v543 
# hosted by the Cambridge Crystallographic Data Centre (CCDC).
#
# This work is licensed under the Creative Commons
# Attribution-NonCommercial-ShareAlike 4.0 International License.
# To view a copy of this license, visit
# http://creativecommons.org/licenses/by-nc-sa/4.0/
# or send a letter to
# Creative Commons, PO Box 1866, Mountain View, CA 94042, USA.
#
# CIF created using the CSD Python API on 29 September 2022
# The structure has been converted into the P1 space group
# The structure has a 3D framework
# The original CSD entry WEMCEY is in the tetragonal crystal system
# The framework has been calculated to contain at least 10.0% void space
# The void calculation uses a probe of radius 1.32A, grid spacing 0.4
#
###############################################################################

data_WEMCEY
_chemical_formula_moiety         '(C160 H128 N64 O173 Sm30)n'
_symmetry_cell_setting           triclinic
_symmetry_space_group_name_H-M   'P 1'
_symmetry_Int_Tables_number      1
_space_group_name_Hall           'P 1'
loop_
_symmetry_equiv_pos_site_id
_symmetry_equiv_pos_as_xyz
1 x,y,z
_cell_length_a                   20.423(3)
_cell_length_b                   20.423(3)
_cell_length_c                   16.226(3)
_cell_angle_alpha                90
_cell_angle_beta                 90
_cell_angle_gamma                90
_cell_volume                     6767.85
loop_
_atom_site_label
_atom_site_type_symbol
_atom_site_fract_x
_atom_site_fract_y
_atom_site_fract_z
O9 O 0.0111(2) 0.6226(3) 0.8319(3)
H1 H 0.0454 0.6039 0.8202
H2 H 0.0024 0.6511 0.7953
O10 O 0.0171(2) 0.4717(3) 0.8361(3)
H3 H 0.0419 0.4827 0.7989
H4 H 0.0371 0.4741 0.8819
Sm9 Sm 0.068600(12) 0.544660(13) 0.581290(15)
O26 O 0.08981(18) 0.6178(2) 0.6941(2)
O33 O 0.03489(18) 0.46734(18) 0.3148(2)
O39 O 0.03543(18) 0.52042(19) 0.4331(2)
O44 O 0.1247(2) 0.6192(2) 0.4953(2)
O48 O 0.0808(2) 0.4616(2) 0.6921(2)
O58 O 0.0069(2) 0.3639(2) 0.4466(3)
H22 H 0.0135 0.6667 0.5331
H26 H 0.0363 0.3765 0.4802
N11 N 0.1881(2) 0.5516(2) 0.6256(3)
N16 N 0.1269(2) 0.4402(2) 0.5412(3)
Sm3 Sm 0.793833(14) 0.326372(13) 0.088717(15)
Sm5 Sm 0.576372(13) 0.456167(14) 0.338717(15)
Sm8 Sm 0.794660(13) 0.681400(12) 0.168710(15)
Sm12 Sm 0.431400(12) 0.455340(13) 0.081290(15)
Sm15 Sm 0.931400(12) 0.455340(13) 0.418710(15)
O12 O 0.8830(2) 0.3758(2) 0.0156(3)
O13 O 0.6258(2) 0.3670(2) 0.2656(3)
O16 O 0.7084(2) 0.3373(2) 0.1857(2)
O18 O 0.5873(2) 0.5416(2) 0.4357(2)
O20 O 0.8475(2) 0.3309(2) 0.2160(2)
O22 O 0.5809(2) 0.4025(2) 0.4660(2)
O23 O 0.8678(2) 0.66019(18) 0.0559(2)
O24 O 0.91019(18) 0.3822(2) 0.3059(2)
O29 O 0.53489(18) 0.46734(18) 0.1852(2)
O32 O 0.78266(18) 0.78489(18) 0.0648(2)
O35 O 0.53543(18) 0.52042(19) 0.0669(2)
O37 O 0.72958(19) 0.78543(18) 0.1831(2)
O38 O 0.77042(19) 0.71457(18) 0.3169(2)
O41 O 0.6247(2) 0.6192(2) 0.0047(2)
O43 O 0.8692(2) 0.6253(2) 0.2547(2)
O46 O 0.7116(2) 0.6692(2) 0.0579(2)
O50 O 0.8726(3) 0.2389(2) 0.0819(3)
O52 O 0.4889(2) 0.3774(3) 0.3319(3)
H9 H 0.8539 0.2046 0.0702
H11 H 0.4546 0.3961 0.3202
H12 H 0.9011 0.2476 0.0453
H14 H 0.4976 0.3489 0.2953
O53 O 0.7217(3) 0.2329(2) 0.0861(3)
O55 O 0.4829(2) 0.5283(3) 0.3361(3)
H15 H 0.7327 0.2081 0.0489
H17 H 0.4581 0.5173 0.2989
H18 H 0.7241 0.2129 0.1319
H20 H 0.4629 0.5259 0.3819
O56 O 0.8861(2) 0.7569(2) 0.1966(3)
H21 H 0.9167 0.7365 0.2169
H24 H 0.8735 0.7863 0.2302
N5 N 0.8065(2) 0.4518(2) 0.1094(3)
N6 N 0.7018(2) 0.4435(2) 0.3594(3)
N8 N 0.8016(2) 0.5619(2) 0.1244(3)
N9 N 0.8119(2) 0.4484(2) 0.3744(3)
N14 N 0.6902(2) 0.6231(2) 0.2088(3)
N19 N 0.6246(2) 0.5435(2) 0.2570(3)
N20 N 0.7065(2) 0.3746(2) 0.0070(3)
C11 C 0.7801(3) 0.5027(3) 0.1489(3)
C12 C 0.7527(3) 0.4699(3) 0.3989(3)
H27 H 0.7491 0.4977 0.1905
H28 H 0.7477 0.5009 0.4405
C14 C 0.8455(3) 0.5482(3) 0.0629(3)
C15 C 0.7982(3) 0.4045(3) 0.3129(3)
C17 C 0.8485(2) 0.4810(3) 0.0537(3)
C18 C 0.7310(3) 0.4015(2) 0.3037(3)
C20 C 0.8801(3) 0.6040(3) 0.0246(3)
C21 C 0.8540(3) 0.3699(3) 0.2746(3)
C24 C 0.6867(3) 0.3657(3) 0.2475(3)
C27 C 0.6722(3) 0.5869(3) 0.2734(3)
C28 C 0.6631(3) 0.4222(3) 0.0234(3)
H31 H 0.6910 0.5913 0.3253
H32 H 0.6587 0.4410 0.0753
C30 C 0.6104(3) 0.5533(3) 0.1746(3)
C33 C 0.6509(3) 0.6026(3) 0.1455(3)
C36 C 0.5587(3) 0.5118(3) 0.1393(3)
C39 C 0.6623(3) 0.6317(3) 0.0629(3)
Sm1 Sm 0.923628(13) 0.543833(14) 0.838717(15)
Sm2 Sm 0.568600(12) 0.544660(13) 0.918710(15)
O1 O 0.8742(2) 0.6330(2) 0.7656(3)
O2 O 0.7916(2) 0.6627(2) 0.6857(2)
O3 O 0.6525(2) 0.6691(2) 0.7160(2)
O4 O 0.58981(18) 0.6178(2) 0.8059(2)
O5 O 0.96511(18) 0.53266(18) 0.6852(2)
O6 O 0.96457(18) 0.47958(19) 0.5669(2)
O7 O 0.8753(2) 0.3808(2) 0.5047(2)
O8 O 0.7884(2) 0.3308(2) 0.5579(2)
O11 O 0.4931(2) 0.6361(2) 0.9466(3)
H5 H 0.5135 0.6667 0.9669
H6 H 0.4637 0.6235 0.9802
N1 N 0.7982(2) 0.5565(2) 0.8594(3)
N2 N 0.6881(2) 0.5516(2) 0.8744(3)
N3 N 0.8098(2) 0.3769(2) 0.7088(3)
N4 N 0.8754(2) 0.4565(2) 0.7570(3)
C1 C 0.7473(3) 0.5301(3) 0.8989(3)
H7 H 0.7523 0.4991 0.9405
C2 C 0.7018(3) 0.5955(3) 0.8129(3)
C3 C 0.7690(3) 0.5985(2) 0.8037(3)
C4 C 0.6460(3) 0.6301(3) 0.7746(3)
C5 C 0.8133(3) 0.6343(3) 0.7475(3)
C6 C 0.8278(3) 0.4131(3) 0.7734(3)
H8 H 0.8090 0.4087 0.8253
C7 C 0.8896(3) 0.4467(3) 0.6746(3)
C8 C 0.8491(3) 0.3974(3) 0.6455(3)
C9 C 0.9413(3) 0.4882(3) 0.6393(3)
C10 C 0.8377(3) 0.3683(3) 0.5629(3)
Sm4 Sm 0.706167(14) 0.673628(13) 0.588717(15)
Sm6 Sm 0.423628(13) 0.543833(14) 0.661283(15)
Sm11 Sm 0.705340(13) 0.318600(12) 0.668710(15)
Sm13 Sm 0.205340(13) 0.318600(12) 0.831290(15)
Sm14 Sm 0.794660(13) 0.181400(12) 0.831290(15)
O14 O 0.6170(2) 0.6242(2) 0.5156(3)
O15 O 0.9127(2) 0.4584(2) 0.9357(2)
O19 O 0.9191(2) 0.5975(2) 0.9660(2)
O25 O 0.6322(2) 0.33981(18) 0.5559(2)
O28 O 0.46511(18) 0.53266(18) 0.8148(2)
O30 O 0.78266(18) 0.28489(18) 0.9352(2)
O31 O 0.71734(18) 0.71511(18) 0.4352(2)
O34 O 0.46457(18) 0.47958(19) 0.9331(2)
O36 O 0.72958(19) 0.28543(18) 0.8169(2)
O40 O 0.3753(2) 0.3808(2) 0.9953(2)
O42 O 0.6308(2) 0.3747(2) 0.7547(2)
O45 O 0.2884(2) 0.3308(2) 0.9421(2)
O47 O 0.5808(2) 0.4616(2) 0.8079(2)
O49 O 0.9192(2) 0.5384(2) 0.3079(2)
O51 O 0.6274(3) 0.7611(2) 0.5819(3)
H10 H 0.6461 0.7954 0.5702
H13 H 0.5989 0.7524 0.5453
O54 O 0.7783(3) 0.7671(2) 0.5861(3)
H16 H 0.7673 0.7919 0.5489
H19 H 0.7759 0.7871 0.6319
O57 O 0.9931(2) 0.6361(2) 0.5534(3)
H23 H 0.9865 0.3333 0.4669
H25 H 0.9637 0.6235 0.5198
N7 N 0.6935(2) 0.5482(2) 0.6094(3)
N10 N 0.6984(2) 0.4381(2) 0.6244(3)
N13 N 0.3098(2) 0.3769(2) 0.7912(3)
N15 N 0.6269(2) 0.4402(2) 0.9588(3)
N17 N 0.8731(2) 0.5598(2) 0.4588(3)
N18 N 0.3754(2) 0.4565(2) 0.7430(3)
N21 N 0.7935(2) 0.6254(2) 0.5070(3)
C13 C 0.7199(3) 0.4973(3) 0.6489(3)
H29 H 0.7509 0.5023 0.6905
C16 C 0.6545(3) 0.4518(3) 0.5629(3)
C19 C 0.6515(2) 0.5190(3) 0.5537(3)
C22 C 0.6199(3) 0.3960(3) 0.5246(3)
C23 C 0.8843(3) 0.4367(3) 0.9975(3)
C25 C 0.6157(3) 0.5633(3) 0.4975(3)
C26 C 0.3278(3) 0.4131(3) 0.7266(3)
H30 H 0.3090 0.4087 0.6747
C29 C 0.3896(3) 0.4467(3) 0.8254(3)
C31 C 0.6967(3) 0.3604(3) 0.9246(3)
C32 C 0.3491(3) 0.3974(3) 0.8545(3)
C34 C 0.6474(3) 0.4009(3) 0.8955(3)
C35 C 0.4413(3) 0.4882(3) 0.8607(3)
C37 C 0.7382(3) 0.3087(3) 0.8893(3)
C38 C 0.3377(3) 0.3683(3) 0.9371(3)
C40 C 0.6183(3) 0.4123(3) 0.8129(3)
Sm6_2 Sm 0.076372(13) 0.456167(14) 0.161283(15)
Sm13_2 Sm 0.294660(13) 0.681400(12) 0.331290(15)
O45_2 O 0.2116(2) 0.6692(2) 0.4421(2)
N13_2 N 0.1902(2) 0.6231(2) 0.2912(3)
N18_2 N 0.1246(2) 0.5435(2) 0.2430(3)
C26_2 C 0.1722(3) 0.5869(3) 0.2266(3)
H30_2 H 0.1910 0.5913 0.1747
C29_2 C 0.1104(3) 0.5533(3) 0.3254(3)
C32_2 C 0.1509(3) 0.6026(3) 0.3545(3)
C35_2 C 0.0587(3) 0.5118(3) 0.3607(3)
C38_2 C 0.1623(3) 0.6317(3) 0.4371(3)
Sm14_2 Sm 0.705340(13) 0.818600(12) 0.331290(15)
O26_2 O 0.41019(18) 0.3822(2) 0.1941(2)
O32_2 O 0.71734(18) 0.21511(18) 0.5648(2)
O37_2 O 0.77042(19) 0.21457(18) 0.6831(2)
O48_2 O 0.4192(2) 0.5384(2) 0.1921(2)
O56_2 O 0.6139(2) 0.2431(2) 0.6966(3)
O57_2 O 0.5069(2) 0.3639(2) 0.0534(3)
H21_2 H 0.5833 0.2635 0.7169
H22_2 H 0.4865 0.3333 0.0331
H24_2 H 0.6265 0.2137 0.7302
H25_2 H 0.5363 0.3765 0.0198
N11_2 N 0.3119(2) 0.4484(2) 0.1256(3)
N16_2 N 0.3731(2) 0.5598(2) 0.0412(3)
C28_2 C 0.8369(3) 0.5778(3) 0.5234(3)
H32_2 H 0.8413 0.5590 0.5753
C31_2 C 0.8033(3) 0.6396(3) 0.4246(3)
C34_2 C 0.8526(3) 0.5991(3) 0.3955(3)
C37_2 C 0.7618(3) 0.6913(3) 0.3893(3)
C40_2 C 0.8817(3) 0.5877(3) 0.3129(3)
Sm1_2 Sm 0.206167(14) 0.173628(13) 0.088717(15)
O1_2 O 0.1170(2) 0.1242(2) 0.0156(3)
O9_2 O 0.1274(3) 0.2611(2) 0.0819(3)
H1_2 H 0.1461 0.2954 0.0702
H2_2 H 0.0989 0.2524 0.0453
O10_2 O 0.2783(3) 0.2671(2) 0.0861(3)
H3_2 H 0.2673 0.2919 0.0489
H4_2 H 0.2759 0.2871 0.1319
N1_2 N 0.1935(2) 0.0482(2) 0.1094(3)
N4_2 N 0.2935(2) 0.1254(2) 0.0070(3)
H7_2 H 0.2509 0.0023 0.1905
C3_2 C 0.1515(2) 0.0190(3) 0.0537(3)
C6_2 C 0.3369(3) 0.0778(3) 0.0234(3)
H8_2 H 0.3413 0.0590 0.0753
Sm3_2 Sm 0.423628(13) 0.043833(14) 0.338717(15)
Sm8_2 Sm 0.068600(12) 0.044660(13) 0.418710(15)
Sm14_3 Sm 0.568600(12) 0.044660(13) 0.081290(15)
Sm15_2 Sm 0.294660(13) 0.181400(12) 0.668710(15)
O12_2 O 0.3742(2) 0.1330(2) 0.2656(3)
O15_2 O 0.2916(2) 0.1627(2) 0.1857(2)
O19_2 O 0.1525(2) 0.1691(2) 0.2160(2)
O20_2 O 0.4191(2) 0.0975(2) 0.4660(2)
O23_2 O 0.08981(18) 0.1178(2) 0.3059(2)
O24_2 O 0.3678(2) 0.16019(18) 0.5559(2)
O30_2 O 0.46511(18) 0.03266(18) 0.1852(2)
O38_2 O 0.03543(18) 0.02042(19) 0.5669(2)
O43_2 O 0.1247(2) 0.1192(2) 0.5047(2)
O50_2 O 0.5111(2) 0.1226(3) 0.3319(3)
H9_2 H 0.5454 0.1039 0.3202
H12_2 H 0.5024 0.1511 0.2953
H21_3 H 0.0135 0.1667 0.4669
N5_2 N 0.2982(2) 0.0565(2) 0.3594(3)
N8_2 N 0.1881(2) 0.0516(2) 0.3744(3)
N9_2 N 0.3016(2) 0.0619(2) 0.6244(3)
C11_2 C 0.2473(3) 0.0301(3) 0.3989(3)
C12_2 C 0.2801(3) 0.0027(3) 0.6489(3)
C14_2 C 0.2018(3) 0.0955(3) 0.3129(3)
C15_2 C 0.3455(3) 0.0482(3) 0.5629(3)
C17_2 C 0.2690(3) 0.0985(2) 0.3037(3)
C20_2 C 0.1460(3) 0.1301(3) 0.2746(3)
C21_2 C 0.3801(3) 0.1040(3) 0.5246(3)
C23_2 C 0.3133(3) 0.1343(3) 0.2475(3)
O2_2 O 0.0873(2) 0.0416(2) 0.9357(2)
O5_2 O 0.21734(18) 0.21511(18) 0.9352(2)
O6_2 O 0.27042(19) 0.21457(18) 0.8169(2)
O7_2 O 0.3692(2) 0.1253(2) 0.7547(2)
O8_2 O 0.4192(2) 0.0384(2) 0.8079(2)
N3_2 N 0.3731(2) 0.0598(2) 0.9588(3)
C5_2 C 0.1157(3) 0.0633(3) 0.9975(3)
C7_2 C 0.3033(3) 0.1396(3) 0.9246(3)
C8_2 C 0.3526(3) 0.0991(3) 0.8955(3)
C9_2 C 0.2618(3) 0.1913(3) 0.8893(3)
C10_2 C 0.3817(3) 0.0877(3) 0.8129(3)
O26_3 O 0.1322(2) 0.33981(18) 0.9441(2)
O33_2 O 0.28266(18) 0.28489(18) 0.5648(2)
O39_2 O 0.22958(19) 0.28543(18) 0.6831(2)
O44_2 O 0.1308(2) 0.3747(2) 0.7453(2)
O49_2 O 0.2116(2) 0.1692(2) 0.5579(2)
O57_3 O 0.1139(2) 0.2431(2) 0.8034(3)
O58_2 O 0.3861(2) 0.2569(2) 0.6966(3)
H22_3 H 0.0833 0.2635 0.7831
H23_2 H 0.4167 0.2365 0.7169
H25_3 H 0.1265 0.2137 0.7698
H26_2 H 0.3735 0.2863 0.7302
N11_3 N 0.1984(2) 0.4381(2) 0.8756(3)
N17_2 N 0.1902(2) 0.1231(2) 0.7088(3)
N21_2 N 0.1246(2) 0.0435(2) 0.7570(3)
H29_2 H 0.2477 0.0009 0.9405
Sm2_2 Sm 0.205340(13) 0.818600(12) 0.168710(15)
O4_2 O 0.1322(2) 0.83981(18) 0.0559(2)
O11_2 O 0.1139(2) 0.7431(2) 0.1966(3)
H5_2 H 0.0833 0.7635 0.2169
H6_2 H 0.1265 0.7137 0.2302
N2_2 N 0.1984(2) 0.9381(2) 0.1244(3)
C1_2 C 0.2199(3) 0.9973(3) 0.1489(3)
C2_2 C 0.1545(3) 0.9518(3) 0.0629(3)
C4_2 C 0.1199(3) 0.8960(3) 0.0246(3)
Sm5_2 Sm 0.293833(14) 0.826372(13) 0.588717(15)
O13_2 O 0.3830(2) 0.8758(2) 0.5156(3)
O16_2 O 0.4127(2) 0.9584(2) 0.4357(2)
O18_2 O 0.2084(2) 0.8373(2) 0.6857(2)
O22_2 O 0.3475(2) 0.8309(2) 0.7160(2)
O28_2 O 0.21734(18) 0.71511(18) 0.0648(2)
O29_2 O 0.28266(18) 0.78489(18) 0.4352(2)
O34_2 O 0.27042(19) 0.71457(18) 0.1831(2)
O35_2 O 0.22958(19) 0.78543(18) 0.3169(2)
O36_2 O 0.46457(18) 0.97958(19) 0.0669(2)
O40_2 O 0.3692(2) 0.6253(2) 0.2453(2)
O41_2 O 0.1308(2) 0.8747(2) 0.2547(2)
O42_2 O 0.3753(2) 0.8808(2) 0.0047(2)
O46_2 O 0.0808(2) 0.9616(2) 0.3079(2)
O47_2 O 0.2884(2) 0.8308(2) 0.0579(2)
O52_2 O 0.3726(3) 0.7389(2) 0.5819(3)
H11_2 H 0.3539 0.7046 0.5702
H14_2 H 0.4011 0.7476 0.5453
O53_2 O 0.5171(2) 0.9717(3) 0.3361(3)
O55_2 O 0.2217(3) 0.7329(2) 0.5861(3)
H15_2 H 0.5419 0.9827 0.2989
H17_2 H 0.2327 0.7081 0.5489
H18_2 H 0.5371 0.9741 0.3819
H20_2 H 0.2241 0.7129 0.6319
N6_2 N 0.3065(2) 0.9518(2) 0.6094(3)
N14_2 N 0.1269(2) 0.9402(2) 0.4588(3)
N15_2 N 0.3098(2) 0.8769(2) 0.2088(3)
N19_2 N 0.2065(2) 0.8746(2) 0.5070(3)
N20_2 N 0.3754(2) 0.9565(2) 0.2570(3)
H27_2 H 0.2523 0.9991 0.4405
H28_2 H 0.2491 0.9977 0.6905
C18_2 C 0.3485(2) 0.9810(3) 0.5537(3)
C24_2 C 0.3843(3) 0.9367(3) 0.4975(3)
C27_2 C 0.1631(3) 0.9222(3) 0.5234(3)
C28_3 C 0.3278(3) 0.9131(3) 0.2734(3)
H31_2 H 0.1587 0.9410 0.5753
H32_3 H 0.3090 0.9087 0.3253
C29_3 C 0.3033(3) 0.6396(3) 0.0754(3)
C30_2 C 0.1967(3) 0.8604(3) 0.4246(3)
C31_3 C 0.3896(3) 0.9467(3) 0.1746(3)
C32_3 C 0.3526(3) 0.5991(3) 0.1045(3)
C33_2 C 0.1474(3) 0.9009(3) 0.3955(3)
C34_3 C 0.3491(3) 0.8974(3) 0.1455(3)
C35_3 C 0.2618(3) 0.6913(3) 0.1107(3)
C36_2 C 0.2382(3) 0.8087(3) 0.3893(3)
C37_3 C 0.4413(3) 0.9882(3) 0.1393(3)
C38_3 C 0.3817(3) 0.5877(3) 0.1871(3)
C39_2 C 0.1183(3) 0.9123(3) 0.3129(3)
C40_3 C 0.3377(3) 0.8683(3) 0.0629(3)
O3_2 O 0.0809(2) 0.9025(2) 0.9660(2)
Sm4_2 Sm 0.076372(13) 0.956167(14) 0.838717(15)
Sm6_3 Sm 0.206167(14) 0.673628(13) 0.911283(15)
Sm11_2 Sm 0.431400(12) 0.955340(13) 0.918710(15)
O14_2 O 0.1258(2) 0.8670(2) 0.7656(3)
O25_2 O 0.41019(18) 0.8822(2) 0.8059(2)
O31_2 O 0.03489(18) 0.96734(18) 0.6852(2)
N7_2 N 0.2018(2) 0.9435(2) 0.8594(3)
N10_2 N 0.3119(2) 0.9484(2) 0.8744(3)
N18_3 N 0.2935(2) 0.6254(2) 0.9930(3)
C13_2 C 0.2527(3) 0.9699(3) 0.8989(3)
C16_2 C 0.2982(3) 0.9045(3) 0.8129(3)
C19_2 C 0.2310(3) 0.9015(2) 0.8037(3)
C22_2 C 0.3540(3) 0.8699(3) 0.7746(3)
C25_2 C 0.1867(3) 0.8657(3) 0.7475(3)
C26_3 C 0.3369(3) 0.5778(3) 0.9766(3)
H30_3 H 0.3413 0.5590 0.9247
O32_3 O 0.96511(18) 0.03266(18) 0.3148(2)
O56_3 O 0.9931(2) 0.1361(2) 0.4466(3)
H24_3 H 0.9637 0.1235 0.4802
O54_2 O 0.9829(2) 0.0283(3) 0.8361(3)
H16_2 H 0.9581 0.0173 0.7989
H19_2 H 0.9629 0.0259 0.8819
O37_3 O 0.96457(18) 0.97958(19) 0.4331(2)
O51_2 O 0.9889(2) 0.8774(3) 0.8319(3)
H10_2 H 0.9546 0.8961 0.8202
H13_2 H 0.9976 0.8489 0.7953
Sm6_4 Sm 0.293833(14) 0.326372(13) 0.411283(15)
O37_4 O 0.53543(18) 0.02042(19) 0.9331(2)
N18_4 N 0.2065(2) 0.3746(2) 0.4930(3)
C26_4 C 0.1631(3) 0.4222(3) 0.4766(3)
C28_4 C 0.1722(3) 0.0869(3) 0.7734(3)
H30_4 H 0.1587 0.4410 0.4247
H32_4 H 0.1910 0.0913 0.8253
C29_4 C 0.1967(3) 0.3604(3) 0.5754(3)
C31_4 C 0.1104(3) 0.0533(3) 0.6746(3)
C32_4 C 0.1474(3) 0.4009(3) 0.6045(3)
C34_4 C 0.1509(3) 0.1026(3) 0.6455(3)
C35_4 C 0.2382(3) 0.3087(3) 0.6107(3)
C37_4 C 0.0587(3) 0.0118(3) 0.6393(3)
C38_4 C 0.1183(3) 0.4123(3) 0.6871(3)
C40_4 C 0.1623(3) 0.1317(3) 0.5629(3)
O26_4 O 0.3678(2) 0.66019(18) 0.4441(2)
O32_4 O 0.53489(18) 0.96734(18) 0.8148(2)
O56_4 O 0.5069(2) 0.8639(2) 0.9466(3)
O57_4 O 0.3861(2) 0.7569(2) 0.3034(3)
H21_4 H 0.4865 0.8333 0.9669
H22_4 H 0.4167 0.7365 0.2831
H24_4 H 0.5363 0.8765 0.9802
H25_4 H 0.3735 0.7863 0.2698
N11_4 N 0.3016(2) 0.5619(2) 0.3756(3)
Sm14_4 Sm 0.931400(12) 0.955340(13) 0.581290(15)
O26_5 O 0.58981(18) 0.1178(2) 0.1941(2)
O57_5 O 0.4931(2) 0.1361(2) 0.0534(3)
H22_5 H 0.5135 0.1667 0.0331
H25_5 H 0.4637 0.1235 0.0198
N11_5 N 0.6881(2) 0.0516(2) 0.1256(3)
O44_3 O 0.6247(2) 0.1192(2) 0.9953(2)
O48_3 O 0.5808(2) 0.9616(2) 0.1921(2)
N16_3 N 0.6269(2) 0.9402(2) 0.0412(3)
Sm6_5 Sm 0.923628(13) 0.043833(14) 0.161283(15)
O40_3 O 0.8753(2) 0.8808(2) 0.4953(2)
O45_3 O 0.7884(2) 0.8308(2) 0.4421(2)
N13_3 N 0.8098(2) 0.8769(2) 0.2912(3)
N18_5 N 0.8754(2) 0.9565(2) 0.2430(3)
C26_5 C 0.8278(3) 0.9131(3) 0.2266(3)
H30_5 H 0.8090 0.9087 0.1747
C29_5 C 0.8896(3) 0.9467(3) 0.3254(3)
C32_5 C 0.8491(3) 0.8974(3) 0.3545(3)
C35_5 C 0.9413(3) 0.9882(3) 0.3607(3)
C38_5 C 0.8377(3) 0.8683(3) 0.4371(3)
O45_4 O 0.7116(2) 0.1692(2) 0.9421(2)
N13_4 N 0.6902(2) 0.1231(2) 0.7912(3)
N18_6 N 0.6246(2) 0.0435(2) 0.7430(3)
C26_6 C 0.6722(3) 0.0869(3) 0.7266(3)
H30_6 H 0.6910 0.0913 0.6747
C29_6 C 0.6104(3) 0.0533(3) 0.8254(3)
C32_6 C 0.6509(3) 0.1026(3) 0.8545(3)
C35_6 C 0.5587(3) 0.0118(3) 0.8607(3)
C38_6 C 0.6623(3) 0.1317(3) 0.9371(3)
Sm6_6 Sm 0.576372(13) 0.956167(14) 0.661283(15)
O57_6 O 0.0069(2) 0.8639(2) 0.5534(3)
H25_6 H 0.0363 0.8765 0.5198
O48_4 O 0.9192(2) 0.0384(2) 0.6921(2)
N16_4 N 0.8731(2) 0.0598(2) 0.5412(3)
O26_6 O 0.91019(18) 0.8822(2) 0.6941(2)
H22_6 H 0.9865 0.8333 0.5331
N11_6 N 0.8119(2) 0.9484(2) 0.6256(3)
Sm6_7 Sm 0.706167(14) 0.173628(13) 0.411283(15)
O26_7 O 0.6322(2) 0.83981(18) 0.4441(2)
O40_4 O 0.8692(2) 0.1253(2) 0.7453(2)
O44_4 O 0.6308(2) 0.8747(2) 0.2453(2)
O57_7 O 0.6139(2) 0.7431(2) 0.3034(3)
H22_7 H 0.5833 0.7635 0.2831
H25_7 H 0.6265 0.7137 0.2698
N11_7 N 0.6984(2) 0.9381(2) 0.3756(3)
N18_7 N 0.7935(2) 0.1254(2) 0.4930(3)
C26_7 C 0.8369(3) 0.0778(3) 0.4766(3)
H30_7 H 0.8413 0.0590 0.4247
C29_7 C 0.8033(3) 0.1396(3) 0.5754(3)
C32_7 C 0.8526(3) 0.0991(3) 0.6045(3)
C35_7 C 0.7618(3) 0.1913(3) 0.6107(3)
C38_7 C 0.8817(3) 0.0877(3) 0.6871(3)
C29_8 C 0.6967(3) 0.8604(3) 0.0754(3)
C32_8 C 0.6474(3) 0.9009(3) 0.1045(3)
C35_8 C 0.7382(3) 0.8087(3) 0.1107(3)
C38_8 C 0.6183(3) 0.9123(3) 0.1871(3)
Sm6_8 Sm 0.793833(14) 0.826372(13) 0.911283(15)
O26_8 O 0.8678(2) 0.16019(18) 0.9441(2)
O57_8 O 0.8861(2) 0.2569(2) 0.8034(3)
H22_8 H 0.9167 0.2365 0.7831
H25_8 H 0.8735 0.2863 0.7698
N11_8 N 0.8016(2) 0.0619(2) 0.8756(3)
N18_8 N 0.7065(2) 0.8746(2) 0.9930(3)
C26_8 C 0.6631(3) 0.9222(3) 0.9766(3)
H30_8 H 0.6587 0.9410 0.9247
O1_3 O 0.1258(2) 0.3670(2) 0.2344(3)
O2_3 O 0.2084(2) 0.3373(2) 0.3143(2)
O3_3 O 0.3475(2) 0.3309(2) 0.2840(2)
N1_3 N 0.2018(2) 0.4435(2) 0.1406(3)
C1_3 C 0.2527(3) 0.4699(3) 0.1011(3)
H7_3 H 0.2477 0.5009 0.0595
C2_3 C 0.2982(3) 0.4045(3) 0.1871(3)
C3_3 C 0.2310(3) 0.4015(2) 0.1963(3)
C4_3 C 0.3540(3) 0.3699(3) 0.2254(3)
C5_3 C 0.1867(3) 0.3657(3) 0.2525(3)
O14_3 O 0.3830(2) 0.3758(2) 0.4844(3)
O15_3 O 0.0873(2) 0.5416(2) 0.0643(2)
O17 O 0.4127(2) 0.4584(2) 0.5643(2)
O19_3 O 0.0809(2) 0.4025(2) 0.0340(2)
O21 O 0.4191(2) 0.5975(2) 0.5340(2)
O51_3 O 0.3726(3) 0.2389(2) 0.4181(3)
H10_3 H 0.3539 0.2046 0.4298
H13_3 H 0.4011 0.2476 0.4547
O54_3 O 0.2217(3) 0.2329(2) 0.4139(3)
H16_3 H 0.2327 0.2081 0.4511
H19_3 H 0.2241 0.2129 0.3681
N7_3 N 0.3065(2) 0.4518(2) 0.3906(3)
C13_3 C 0.2801(3) 0.5027(3) 0.3511(3)
H29_3 H 0.2491 0.4977 0.3095
C16_3 C 0.3455(3) 0.5482(3) 0.4371(3)
C19_3 C 0.3485(2) 0.4810(3) 0.4463(3)
C22_3 C 0.3801(3) 0.6040(3) 0.4754(3)
C23_3 C 0.1157(3) 0.5633(3) 0.0025(3)
C25_3 C 0.3843(3) 0.4367(3) 0.5025(3)
O12_3 O 0.1170(2) 0.6242(2) 0.9844(3)
O13_3 O 0.3742(2) 0.6330(2) 0.7344(3)
O16_3 O 0.2916(2) 0.6627(2) 0.8143(2)
O20_3 O 0.1525(2) 0.6691(2) 0.7840(2)
O50_3 O 0.1274(3) 0.7611(2) 0.9181(3)
O52_3 O 0.5111(2) 0.6226(3) 0.6681(3)
H9_3 H 0.1461 0.7954 0.9298
H11_3 H 0.5454 0.6039 0.6798
H12_3 H 0.0989 0.7524 0.9547
H14_3 H 0.5024 0.6511 0.7047
O53_3 O 0.2783(3) 0.7671(2) 0.9139(3)
O55_3 O 0.5171(2) 0.4717(3) 0.6639(3)
H15_3 H 0.2673 0.7919 0.9511
H17_3 H 0.5419 0.4827 0.7011
H18_3 H 0.2759 0.7871 0.8681
H20_3 H 0.5371 0.4741 0.6181
N5_3 N 0.1935(2) 0.5482(2) 0.8906(3)
N6_3 N 0.2982(2) 0.5565(2) 0.6406(3)
C11_3 C 0.2199(3) 0.4973(3) 0.8511(3)
C12_3 C 0.2473(3) 0.5301(3) 0.6011(3)
H27_3 H 0.2509 0.5023 0.8095
H28_3 H 0.2523 0.4991 0.5595
C14_3 C 0.1545(3) 0.4518(3) 0.9371(3)
C15_3 C 0.2018(3) 0.5955(3) 0.6871(3)
C17_3 C 0.1515(2) 0.5190(3) 0.9463(3)
C18_3 C 0.2690(3) 0.5985(2) 0.6963(3)
C20_3 C 0.1199(3) 0.3960(3) 0.9754(3)
C21_3 C 0.1460(3) 0.6301(3) 0.7254(3)
C24_3 C 0.3133(3) 0.6343(3) 0.7525(3)
O9_3 O 0.9889(2) 0.3774(3) 0.1681(3)
H1_3 H 0.9546 0.3961 0.1798
H2_3 H 0.9976 0.3489 0.2047
O10_3 O 0.9829(2) 0.5283(3) 0.1639(3)
H3_3 H 0.9581 0.5173 0.2011
H4_3 H 0.9629 0.5259 0.1181
O51_4 O 0.0111(2) 0.1226(3) 0.1681(3)
H10_4 H 0.0454 0.1039 0.1798
H13_4 H 0.0024 0.1511 0.2047
O54_4 O 0.0171(2) 0.9717(3) 0.1639(3)
H16_4 H 0.0419 0.9827 0.2011
H19_4 H 0.0371 0.9741 0.1181
O3_4 O 0.9191(2) 0.0975(2) 0.0340(2)
O14_4 O 0.8742(2) 0.1330(2) 0.2344(3)
O17_2 O 0.7916(2) 0.1627(2) 0.3143(2)
O21_2 O 0.6525(2) 0.1691(2) 0.2840(2)
N7_4 N 0.7982(2) 0.0565(2) 0.1406(3)
C13_4 C 0.7473(3) 0.0301(3) 0.1011(3)
C16_4 C 0.7018(3) 0.0955(3) 0.1871(3)
C19_4 C 0.7690(3) 0.0985(2) 0.1963(3)
C22_4 C 0.6460(3) 0.1301(3) 0.2254(3)
C25_4 C 0.8133(3) 0.1343(3) 0.2525(3)
C1_4 C 0.7801(3) 0.0027(3) 0.8511(3)
C2_4 C 0.8455(3) 0.0482(3) 0.9371(3)
C4_4 C 0.8801(3) 0.1040(3) 0.9754(3)
O13_4 O 0.6170(2) 0.1242(2) 0.4844(3)
O16_4 O 0.5873(2) 0.0416(2) 0.5643(2)
O52_4 O 0.6274(3) 0.2611(2) 0.4181(3)
H11_4 H 0.6461 0.2954 0.4298
H14_4 H 0.5989 0.2524 0.4547
O53_4 O 0.4829(2) 0.0283(3) 0.6639(3)
O55_4 O 0.7783(3) 0.2671(2) 0.4139(3)
H15_4 H 0.4581 0.0173 0.7011
H17_4 H 0.7673 0.2919 0.4511
H18_4 H 0.4629 0.0259 0.6181
H20_4 H 0.7759 0.2871 0.3681
N6_4 N 0.6935(2) 0.0482(2) 0.3906(3)
H27_4 H 0.7477 0.0009 0.5595
H28_4 H 0.7509 0.0023 0.3095
C18_4 C 0.6515(2) 0.0190(3) 0.4463(3)
C24_4 C 0.6157(3) 0.0633(3) 0.5025(3)
O2_4 O 0.9127(2) 0.9584(2) 0.0643(2)
C5_4 C 0.8843(3) 0.9367(3) 0.0025(3)
H29_4 H 0.7523 0.9991 0.0595
O1_4 O 0.8830(2) 0.8758(2) 0.9844(3)
O9_4 O 0.8726(3) 0.7389(2) 0.9181(3)
H1_4 H 0.8539 0.7046 0.9298
H2_4 H 0.9011 0.7476 0.9547
O10_4 O 0.7217(3) 0.7329(2) 0.9139(3)
H3_4 H 0.7327 0.7081 0.9511
H4_4 H 0.7241 0.7129 0.8681
N1_4 N 0.8065(2) 0.9518(2) 0.8906(3)
H7_4 H 0.7491 0.9977 0.8095
C3_4 C 0.8485(2) 0.9810(3) 0.9463(3)
O12_4 O 0.6258(2) 0.8670(2) 0.7344(3)
O15_4 O 0.7084(2) 0.8373(2) 0.8143(2)
O19_4 O 0.8475(2) 0.8309(2) 0.7840(2)
O20_4 O 0.5809(2) 0.9025(2) 0.5340(2)
O50_4 O 0.4889(2) 0.8774(3) 0.6681(3)
H9_4 H 0.4546 0.8961 0.6798
H12_4 H 0.4976 0.8489 0.7047
N5_4 N 0.7018(2) 0.9435(2) 0.6406(3)
C11_4 C 0.7527(3) 0.9699(3) 0.6011(3)
C12_4 C 0.7199(3) 0.9973(3) 0.3511(3)
C14_4 C 0.7982(3) 0.9045(3) 0.6871(3)
C15_4 C 0.6545(3) 0.9518(3) 0.4371(3)
C17_4 C 0.7310(3) 0.9015(2) 0.6963(3)
C20_4 C 0.8540(3) 0.8699(3) 0.7254(3)
C21_4 C 0.6199(3) 0.8960(3) 0.4754(3)
C23_4 C 0.6867(3) 0.8657(3) 0.7525(3)
loop_
_geom_bond_atom_site_label_1
_geom_bond_atom_site_label_2
_geom_bond_site_symmetry_1
_geom_bond_site_symmetry_2
H1 O9 1_555 1_555
H2 O9 1_555 1_555
H3 O10 1_555 1_555
H4 O10 1_555 1_555
O26 Sm9 1_555 1_555
O39 Sm9 1_555 1_555
O44 Sm9 1_555 1_555
O48 Sm9 1_555 1_555
H26 O58 1_555 1_555
N11 Sm9 1_555 1_555
N16 Sm9 1_555 1_555
Sm3 O12 1_555 1_555
Sm5 O13 1_555 1_555
Sm8 O23 1_555 1_555
Sm12 O29 1_555 1_555
Sm15 O24 1_555 1_555
O13 C24 1_555 1_555
O16 Sm3 1_555 1_555
O18 Sm5 1_555 1_555
O20 Sm3 1_555 1_555
O22 Sm5 1_555 1_555
O23 C20 1_555 1_555
O24 C21 1_555 1_555
O29 Sm5 1_555 1_555
O32 Sm8 1_555 1_555
O37 Sm8 1_555 1_555
O38 Sm8 1_555 1_555
O43 Sm8 1_555 1_555
O46 Sm8 1_555 1_555
O50 Sm3 1_555 1_555
O52 Sm5 1_555 1_555
H9 O50 1_555 1_555
H11 O52 1_555 1_555
H12 O50 1_555 1_555
H14 O52 1_555 1_555
O53 Sm3 1_555 1_555
O55 Sm5 1_555 1_555
H15 O53 1_555 1_555
H17 O55 1_555 1_555
H18 O53 1_555 1_555
H20 O55 1_555 1_555
O56 Sm8 1_555 1_555
H21 O56 1_555 1_555
H24 O56 1_555 1_555
N5 Sm3 1_555 1_555
N6 Sm5 1_555 1_555
N8 Sm8 1_555 1_555
N9 Sm15 1_555 1_555
N14 Sm8 1_555 1_555
N19 Sm5 1_555 1_555
N20 Sm3 1_555 1_555
C11 N5 1_555 1_555
C12 N6 1_555 1_555
H27 C11 1_555 1_555
H28 C12 1_555 1_555
C14 N8 1_555 1_555
C15 N9 1_555 1_555
C17 N5 1_555 1_555
C18 N6 1_555 1_555
C21 O20 1_555 1_555
C24 O16 1_555 1_555
C27 N14 1_555 1_555
H31 C27 1_555 1_555
H32 C28 1_555 1_555
C30 N19 1_555 1_555
C33 N14 1_555 1_555
C36 O29 1_555 1_555
C39 O41 1_555 1_555
Sm12 O35 1_555 1_555
O35 C36 1_555 1_555
O46 C39 1_555 1_555
N8 C11 1_555 1_555
N9 C12 1_555 1_555
N19 C27 1_555 1_555
N20 C28 1_555 1_555
C14 C17 1_555 1_555
C14 C20 1_555 1_555
C15 C18 1_555 1_555
C15 C21 1_555 1_555
C18 C24 1_555 1_555
C30 C33 1_555 1_555
C30 C36 1_555 1_555
C33 C39 1_555 1_555
Sm1 O1 1_555 1_555
Sm2 O4 1_555 1_555
O1 C5 1_555 1_555
O2 C5 1_555 1_555
O3 C4 1_555 1_555
O4 C4 1_555 1_555
O5 Sm1 1_555 1_555
O6 C9 1_555 1_555
O7 C10 1_555 1_555
O8 C10 1_555 1_555
O11 Sm2 1_555 1_555
H5 O11 1_555 1_555
H6 O11 1_555 1_555
N1 Sm1 1_555 1_555
N2 Sm2 1_555 1_555
N3 C6 1_555 1_555
N4 Sm1 1_555 1_555
C1 N1 1_555 1_555
H7 C1 1_555 1_555
C2 N2 1_555 1_555
C3 N1 1_555 1_555
C4 C2 1_555 1_555
C5 C3 1_555 1_555
C6 N4 1_555 1_555
H8 C6 1_555 1_555
C7 N4 1_555 1_555
C8 N3 1_555 1_555
C9 O5 1_555 1_555
C10 C8 1_555 1_555
Sm4 O2 1_555 1_555
Sm6 O28 1_555 1_555
Sm15 O6 1_555 1_555
Sm11 O8 1_555 1_555
Sm13 O45 1_555 1_555
Sm14 O30 1_555 1_555
O14 Sm4 1_555 1_555
O15 Sm1 1_555 1_555
O18 C25 1_555 1_555
O19 Sm1 1_555 1_555
O25 Sm11 1_555 1_555
O28 Sm2 1_555 1_555
O31 Sm4 1_555 1_555
O34 Sm2 1_555 1_555
O36 Sm11 1_555 1_555
O42 Sm11 1_555 1_555
O45 C38 1_555 1_555
O47 Sm2 1_555 1_555
O49 Sm15 1_555 1_555
O51 Sm4 1_555 1_555
H10 O51 1_555 1_555
H13 O51 1_555 1_555
O54 Sm4 1_555 1_555
H16 O54 1_555 1_555
H19 O54 1_555 1_555
H25 O57 1_555 1_555
N7 Sm4 1_555 1_555
N10 Sm11 1_555 1_555
N13 Sm13 1_555 1_555
N15 Sm2 1_555 1_555
N17 Sm15 1_555 1_555
N18 Sm6 1_555 1_555
N21 Sm4 1_555 1_555
C13 N7 1_555 1_555
H29 C13 1_555 1_555
C16 N10 1_555 1_555
C19 N7 1_555 1_555
C22 O22 1_555 1_555
C23 O15 1_555 1_555
C25 O14 1_555 1_555
C26 N13 1_555 1_555
H30 C26 1_555 1_555
C29 N18 1_555 1_555
C32 N13 1_555 1_555
C34 N15 1_555 1_555
C35 O28 1_555 1_555
C37 O30 1_555 1_555
C38 O40 1_555 1_555
C40 O42 1_555 1_555
O3 Sm4 1_555 1_555
O7 Sm15 1_555 1_555
N2 C1 1_555 1_555
N3 Sm11 1_555 1_555
C2 C3 1_555 1_555
C7 C8 1_555 1_555
C7 C9 1_555 1_555
Sm14 O36 1_555 1_555
O25 C22 1_555 1_555
O34 C35 1_555 1_555
O36 C37 1_555 1_555
O47 C40 1_555 1_555
N10 C13 1_555 1_555
N18 C26 1_555 1_555
C16 C19 1_555 1_555
C16 C22 1_555 1_555
C19 C25 1_555 1_555
C29 C32 1_555 1_555
C29 C35 1_555 1_555
C31 C34 1_555 1_555
C31 C37 1_555 1_555
C32 C38 1_555 1_555
C34 C40 1_555 1_555
Sm6_2 O33 1_555 1_555
Sm13_2 O45_2 1_555 1_555
O45_2 C38_2 1_555 1_555
N13_2 Sm13_2 1_555 1_555
N18_2 Sm6_2 1_555 1_555
C26_2 N13_2 1_555 1_555
H30_2 C26_2 1_555 1_555
C29_2 N18_2 1_555 1_555
C32_2 N13_2 1_555 1_555
C35_2 O33 1_555 1_555
C38_2 O44 1_555 1_555
O39 C35_2 1_555 1_555
N18_2 C26_2 1_555 1_555
C29_2 C32_2 1_555 1_555
C29_2 C35_2 1_555 1_555
C32_2 C38_2 1_555 1_555
Sm14_2 O31 1_555 1_555
O26_2 Sm12 1_555 1_555
O32_2 Sm11 1_555 1_555
O37_2 Sm11 1_555 1_555
O48_2 Sm12 1_555 1_555
O56_2 Sm11 1_555 1_555
O57_2 Sm12 1_555 1_555
H21_2 O56_2 1_555 1_555
H22_2 O57_2 1_555 1_555
H24_2 O56_2 1_555 1_555
H25_2 O57_2 1_555 1_555
N11_2 Sm12 1_555 1_555
N16_2 Sm12 1_555 1_555
C28_2 N17 1_555 1_555
H32_2 C28_2 1_555 1_555
C31_2 N21 1_555 1_555
C34_2 N17 1_555 1_555
C37_2 O31 1_555 1_555
C40_2 O43 1_555 1_555
Sm14_2 O38 1_555 1_555
O38 C37_2 1_555 1_555
O49 C40_2 1_555 1_555
N21 C28_2 1_555 1_555
C31_2 C34_2 1_555 1_555
C31_2 C37_2 1_555 1_555
C34_2 C40_2 1_555 1_555
Sm1_2 O1_2 1_555 1_555
O9_2 Sm1_2 1_555 1_555
H1_2 O9_2 1_555 1_555
H2_2 O9_2 1_555 1_555
O10_2 Sm1_2 1_555 1_555
H3_2 O10_2 1_555 1_555
H4_2 O10_2 1_555 1_555
N1_2 Sm1_2 1_555 1_555
N4_2 Sm1_2 1_555 1_555
C3_2 N1_2 1_555 1_555
C6_2 N4_2 1_555 1_555
H8_2 C6_2 1_555 1_555
Sm3_2 O12_2 1_555 1_555
Sm8_2 O23_2 1_555 1_555
Sm14_3 O30_2 1_555 1_555
Sm15_2 O24_2 1_555 1_555
O12_2 C23_2 1_555 1_555
O15_2 Sm1_2 1_555 1_555
O19_2 Sm1_2 1_555 1_555
O20_2 Sm3_2 1_555 1_555
O23_2 C20_2 1_555 1_555
O24_2 C21_2 1_555 1_555
O30_2 Sm3_2 1_555 1_555
O38_2 Sm8_2 1_555 1_555
O43_2 Sm8_2 1_555 1_555
O50_2 Sm3_2 1_555 1_555
H9_2 O50_2 1_555 1_555
H12_2 O50_2 1_555 1_555
N5_2 Sm3_2 1_555 1_555
N8_2 Sm8_2 1_555 1_555
N9_2 Sm15_2 1_555 1_555
C11_2 N5_2 1_555 1_555
C14_2 N8_2 1_555 1_555
C15_2 N9_2 1_555 1_555
C17_2 N5_2 1_555 1_555
C20_2 O19_2 1_555 1_555
C21_2 O20_2 1_555 1_555
C23_2 O15_2 1_555 1_555
N8_2 C11_2 1_555 1_555
N9_2 C12_2 1_555 1_555
C14_2 C17_2 1_555 1_555
C14_2 C20_2 1_555 1_555
C15_2 C21_2 1_555 1_555
C17_2 C23_2 1_555 1_555
O2_2 C5_2 1_555 1_555
O6_2 C9_2 1_555 1_555
O7_2 C10_2 1_555 1_555
O8_2 C10_2 1_555 1_555
C8_2 N3_2 1_555 1_555
C9_2 O5_2 1_555 1_555
C10_2 C8_2 1_555 1_555
Sm13 O5_2 1_555 1_555
Sm15_2 O6_2 1_555 1_555
O26_3 Sm13 1_555 1_555
O33_2 Sm15_2 1_555 1_555
O39_2 Sm13 1_555 1_555
O44_2 Sm13 1_555 1_555
O49_2 Sm15_2 1_555 1_555
O57_3 Sm13 1_555 1_555
O58_2 Sm15_2 1_555 1_555
H22_3 O57_3 1_555 1_555
H23_2 O58_2 1_555 1_555
H25_3 O57_3 1_555 1_555
H26_2 O58_2 1_555 1_555
N11_3 Sm13 1_555 1_555
N17_2 Sm15_2 1_555 1_555
O6_2 Sm13 1_555 1_555
O7_2 Sm15_2 1_555 1_555
C7_2 C8_2 1_555 1_555
C7_2 C9_2 1_555 1_555
Sm15_2 O39_2 1_555 1_555
Sm2_2 O4_2 1_555 1_555
O4_2 C4_2 1_555 1_555
O11_2 Sm2_2 1_555 1_555
H5_2 O11_2 1_555 1_555
H6_2 O11_2 1_555 1_555
N2_2 Sm2_2 1_555 1_555
C2_2 N2_2 1_555 1_555
C4_2 C2_2 1_555 1_555
Sm5_2 O13_2 1_555 1_555
Sm13_2 O29_2 1_555 1_555
O13_2 C24_2 1_555 1_555
O18_2 Sm5_2 1_555 1_555
O22_2 Sm5_2 1_555 1_555
O28_2 Sm2_2 1_555 1_555
O29_2 Sm5_2 1_555 1_555
O34_2 Sm2_2 1_555 1_555
O35_2 Sm2_2 1_555 1_555
O40_2 Sm13_2 1_555 1_555
O41_2 Sm2_2 1_555 1_555
O48_2 C38_3 1_555 1_555
O47_2 Sm2_2 1_555 1_555
O52_2 Sm5_2 1_555 1_555
H11_2 O52_2 1_555 1_555
H14_2 O52_2 1_555 1_555
O55_2 Sm5_2 1_555 1_555
H15_2 O53_2 1_555 1_555
H17_2 O55_2 1_555 1_555
H18_2 O53_2 1_555 1_555
H20_2 O55_2 1_555 1_555
N6_2 Sm5_2 1_555 1_555
N15_2 Sm2_2 1_555 1_555
N19_2 Sm5_2 1_555 1_555
C18_2 N6_2 1_555 1_555
C24_2 O16_2 1_555 1_555
C27_2 N14_2 1_555 1_555
C28_3 N15_2 1_555 1_555
H31_2 C27_2 1_555 1_555
H32_3 C28_3 1_555 1_555
C30_2 N19_2 1_555 1_555
C31_3 N20_2 1_555 1_555
C32_3 N16_2 1_555 1_555
C33_2 N14_2 1_555 1_555
C34_3 N15_2 1_555 1_555
C35_3 O28_2 1_555 1_555
C36_2 O29_2 1_555 1_555
C38_3 O40_2 1_555 1_555
C39_2 O41_2 1_555 1_555
C40_3 O42_2 1_555 1_555
N2_2 C1_2 1_555 1_555
Sm13_2 O34_2 1_555 1_555
Sm13_2 O35_2 1_555 1_555
O34_2 C35_3 1_555 1_555
O35_2 C36_2 1_555 1_555
O36_2 C37_3 1_555 1_555
O46_2 C39_2 1_555 1_555
O47_2 C40_3 1_555 1_555
N19_2 C27_2 1_555 1_555
N20_2 C28_3 1_555 1_555
C18_2 C24_2 1_555 1_555
C29_3 C32_3 1_555 1_555
C29_3 C35_3 1_555 1_555
C30_2 C33_2 1_555 1_555
C30_2 C36_2 1_555 1_555
C31_3 C34_3 1_555 1_555
C31_3 C37_3 1_555 1_555
C32_3 C38_3 1_555 1_555
C33_2 C39_2 1_555 1_555
C34_3 C40_3 1_555 1_555
O14_2 Sm4_2 1_555 1_555
O18_2 C25_2 1_555 1_555
O25_2 Sm11_2 1_555 1_555
O31_2 Sm4_2 1_555 1_555
N7_2 Sm4_2 1_555 1_555
N10_2 Sm11_2 1_555 1_555
N18_3 Sm6_3 1_555 1_555
C13_2 N7_2 1_555 1_555
C16_2 N10_2 1_555 1_555
C19_2 N7_2 1_555 1_555
C22_2 O22_2 1_555 1_555
C25_2 O14_2 1_555 1_555
H30_3 C26_3 1_555 1_555
O3_2 Sm4_2 1_555 1_555
O25_2 C22_2 1_555 1_555
N10_2 C13_2 1_555 1_555
N18_3 C26_3 1_555 1_555
C16_2 C19_2 1_555 1_555
C16_2 C22_2 1_555 1_555
C19_2 C25_2 1_555 1_555
H24_3 O56_3 1_555 1_555
H16_2 O54_2 1_555 1_555
H19_2 O54_2 1_555 1_555
H10_2 O51_2 1_555 1_555
H13_2 O51_2 1_555 1_555
Sm6_4 O33_2 1_555 1_555
O48 C38_4 1_555 1_555
N18_4 Sm6_4 1_555 1_555
C26_4 N16 1_555 1_555
C28_4 N17_2 1_555 1_555
H30_4 C26_4 1_555 1_555
H32_4 C28_4 1_555 1_555
C29_4 N18_4 1_555 1_555
C31_4 N21_2 1_555 1_555
C32_4 N16 1_555 1_555
C34_4 N17_2 1_555 1_555
C35_4 O33_2 1_555 1_555
C38_4 O44_2 1_555 1_555
C40_4 O43_2 1_555 1_555
O39_2 C35_4 1_555 1_555
O38_2 C37_4 1_555 1_555
O49_2 C40_4 1_555 1_555
N18_4 C26_4 1_555 1_555
N21_2 C28_4 1_555 1_555
C29_4 C32_4 1_555 1_555
C29_4 C35_4 1_555 1_555
C31_4 C34_4 1_555 1_555
C31_4 C37_4 1_555 1_555
C32_4 C38_4 1_555 1_555
C34_4 C40_4 1_555 1_555
O26_4 Sm13_2 1_555 1_555
O32_4 Sm11_2 1_555 1_555
O56_4 Sm11_2 1_555 1_555
O57_4 Sm13_2 1_555 1_555
H21_4 O56_4 1_555 1_555
H22_4 O57_4 1_555 1_555
H24_4 O56_4 1_555 1_555
H25_4 O57_4 1_555 1_555
N11_4 Sm13_2 1_555 1_555
O26_5 Sm14_3 1_555 1_555
O57_5 Sm14_3 1_555 1_555
H22_5 O57_5 1_555 1_555
H25_5 O57_5 1_555 1_555
N11_5 Sm14_3 1_555 1_555
Sm6_5 O32_3 1_555 1_555
Sm14_2 O45_3 1_555 1_555
O40_3 Sm14_4 1_555 1_555
O45_3 C38_5 1_555 1_555
N13_3 Sm14_2 1_555 1_555
C26_5 N13_3 1_555 1_555
H30_5 C26_5 1_555 1_555
C29_5 N18_5 1_555 1_555
C32_5 N13_3 1_555 1_555
C38_5 O40_3 1_555 1_555
Sm14_4 O37_3 1_555 1_555
O37_3 C35_5 1_555 1_555
N18_5 C26_5 1_555 1_555
C29_5 C32_5 1_555 1_555
C29_5 C35_5 1_555 1_555
C32_5 C38_5 1_555 1_555
Sm14 O45_4 1_555 1_555
O45_4 C38_6 1_555 1_555
N13_4 Sm14 1_555 1_555
C26_6 N13_4 1_555 1_555
H30_6 C26_6 1_555 1_555
C29_6 N18_6 1_555 1_555
C32_6 N13_4 1_555 1_555
C38_6 O44_3 1_555 1_555
O37_4 C35_6 1_555 1_555
N18_6 C26_6 1_555 1_555
C29_6 C32_6 1_555 1_555
C29_6 C35_6 1_555 1_555
C32_6 C38_6 1_555 1_555
Sm6_6 O32_4 1_555 1_555
H25_6 O57_6 1_555 1_555
O26_6 Sm14_4 1_555 1_555
N11_6 Sm14_4 1_555 1_555
Sm6_7 O32_2 1_555 1_555
O26_7 Sm14_2 1_555 1_555
O37 Sm14_2 1_555 1_555
O40_4 Sm14 1_555 1_555
O44_4 Sm14_2 1_555 1_555
O48_4 C38_7 1_555 1_555
O57_7 Sm14_2 1_555 1_555
H22_7 O57_7 1_555 1_555
H25_7 O57_7 1_555 1_555
N11_7 Sm14_2 1_555 1_555
N18_7 Sm6_7 1_555 1_555
C26_7 N16_4 1_555 1_555
H30_7 C26_7 1_555 1_555
C29_7 N18_7 1_555 1_555
C32_7 N16_4 1_555 1_555
C35_7 O32_2 1_555 1_555
C38_7 O40_4 1_555 1_555
Sm14 O37_2 1_555 1_555
O37_2 C35_7 1_555 1_555
N18_7 C26_7 1_555 1_555
C29_7 C32_7 1_555 1_555
C29_7 C35_7 1_555 1_555
C32_7 C38_7 1_555 1_555
O48_3 C38_8 1_555 1_555
C32_8 N16_3 1_555 1_555
C35_8 O32 1_555 1_555
C38_8 O44_4 1_555 1_555
O37 C35_8 1_555 1_555
C29_8 C32_8 1_555 1_555
C29_8 C35_8 1_555 1_555
C32_8 C38_8 1_555 1_555
O26_8 Sm14 1_555 1_555
O57_8 Sm14 1_555 1_555
H22_8 O57_8 1_555 1_555
H25_8 O57_8 1_555 1_555
N11_8 Sm14 1_555 1_555
N18_8 Sm6_8 1_555 1_555
H30_8 C26_8 1_555 1_555
N18_8 C26_8 1_555 1_555
Sm6_2 O1_3 1_555 1_555
O1_3 C5_3 1_555 1_555
O2_3 C5_3 1_555 1_555
O3_3 C4_3 1_555 1_555
O26_2 C4_3 1_555 1_555
N1_3 Sm6_2 1_555 1_555
C1_3 N1_3 1_555 1_555
H7_3 C1_3 1_555 1_555
C2_3 N11_2 1_555 1_555
C3_3 N1_3 1_555 1_555
C4_3 C2_3 1_555 1_555
C5_3 C3_3 1_555 1_555
Sm6_4 O2_3 1_555 1_555
Sm6 O17 1_555 1_555
O14_3 Sm6_4 1_555 1_555
O15_3 Sm6_2 1_555 1_555
O17 C25_3 1_555 1_555
O19_3 Sm6_2 1_555 1_555
O21 Sm6 1_555 1_555
O51_3 Sm6_4 1_555 1_555
H10_3 O51_3 1_555 1_555
H13_3 O51_3 1_555 1_555
O54_3 Sm6_4 1_555 1_555
H16_3 O54_3 1_555 1_555
H19_3 O54_3 1_555 1_555
N7_3 Sm6_4 1_555 1_555
C13_3 N7_3 1_555 1_555
H29_3 C13_3 1_555 1_555
C16_3 N11_4 1_555 1_555
C19_3 N7_3 1_555 1_555
C22_3 O21 1_555 1_555
C23_3 O15_3 1_555 1_555
C25_3 O14_3 1_555 1_555
O3_3 Sm6_4 1_555 1_555
N11_2 C1_3 1_555 1_555
C2_3 C3_3 1_555 1_555
O26_4 C22_3 1_555 1_555
N11_4 C13_3 1_555 1_555
C16_3 C19_3 1_555 1_555
C16_3 C22_3 1_555 1_555
C19_3 C25_3 1_555 1_555
Sm6_3 O12_3 1_555 1_555
Sm6 O13_3 1_555 1_555
O13_3 C24_3 1_555 1_555
O16_3 Sm6_3 1_555 1_555
O20_3 Sm6_3 1_555 1_555
O26_3 C20_3 1_555 1_555
O26 C21_3 1_555 1_555
O50_3 Sm6_3 1_555 1_555
O52_3 Sm6 1_555 1_555
H9_3 O50_3 1_555 1_555
H11_3 O52_3 1_555 1_555
H12_3 O50_3 1_555 1_555
H14_3 O52_3 1_555 1_555
O53_3 Sm6_3 1_555 1_555
O55_3 Sm6 1_555 1_555
H15_3 O53_3 1_555 1_555
H17_3 O55_3 1_555 1_555
H18_3 O53_3 1_555 1_555
H20_3 O55_3 1_555 1_555
N5_3 Sm6_3 1_555 1_555
N6_3 Sm6 1_555 1_555
C11_3 N5_3 1_555 1_555
C12_3 N6_3 1_555 1_555
H27_3 C11_3 1_555 1_555
H28_3 C12_3 1_555 1_555
C14_3 N11_3 1_555 1_555
C15_3 N11 1_555 1_555
C17_3 N5_3 1_555 1_555
C18_3 N6_3 1_555 1_555
C21_3 O20_3 1_555 1_555
C24_3 O16_3 1_555 1_555
N11_3 C11_3 1_555 1_555
N11 C12_3 1_555 1_555
C14_3 C17_3 1_555 1_555
C14_3 C20_3 1_555 1_555
C15_3 C18_3 1_555 1_555
C15_3 C21_3 1_555 1_555
C18_3 C24_3 1_555 1_555
H1_3 O9_3 1_555 1_555
H2_3 O9_3 1_555 1_555
H3_3 O10_3 1_555 1_555
H4_3 O10_3 1_555 1_555
H10_4 O51_4 1_555 1_555
H13_4 O51_4 1_555 1_555
H16_4 O54_4 1_555 1_555
H19_4 O54_4 1_555 1_555
Sm6_7 O17_2 1_555 1_555
O14_4 Sm6_5 1_555 1_555
O17_2 C25_4 1_555 1_555
O21_2 Sm6_7 1_555 1_555
N7_4 Sm6_5 1_555 1_555
C13_4 N7_4 1_555 1_555
C16_4 N11_5 1_555 1_555
C19_4 N7_4 1_555 1_555
C22_4 O21_2 1_555 1_555
C25_4 O14_4 1_555 1_555
O3_4 Sm6_5 1_555 1_555
O26_5 C22_4 1_555 1_555
N11_5 C13_4 1_555 1_555
C16_4 C19_4 1_555 1_555
C16_4 C22_4 1_555 1_555
C19_4 C25_4 1_555 1_555
O26_8 C4_4 1_555 1_555
C2_4 N11_8 1_555 1_555
C4_4 C2_4 1_555 1_555
Sm6_7 O13_4 1_555 1_555
O13_4 C24_4 1_555 1_555
O52_4 Sm6_7 1_555 1_555
H11_4 O52_4 1_555 1_555
H14_4 O52_4 1_555 1_555
O55_4 Sm6_7 1_555 1_555
H15_4 O53_4 1_555 1_555
H17_4 O55_4 1_555 1_555
H18_4 O53_4 1_555 1_555
H20_4 O55_4 1_555 1_555
N6_4 Sm6_7 1_555 1_555
C18_4 N6_4 1_555 1_555
C24_4 O16_4 1_555 1_555
N11_8 C1_4 1_555 1_555
C18_4 C24_4 1_555 1_555
O2_4 C5_4 1_555 1_555
Sm6_8 O1_4 1_555 1_555
O9_4 Sm6_8 1_555 1_555
H1_4 O9_4 1_555 1_555
H2_4 O9_4 1_555 1_555
O10_4 Sm6_8 1_555 1_555
H3_4 O10_4 1_555 1_555
H4_4 O10_4 1_555 1_555
N1_4 Sm6_8 1_555 1_555
C3_4 N1_4 1_555 1_555
Sm6_6 O12_4 1_555 1_555
O12_4 C23_4 1_555 1_555
O15_4 Sm6_8 1_555 1_555
O19_4 Sm6_8 1_555 1_555
O20_4 Sm6_6 1_555 1_555
O26_6 C20_4 1_555 1_555
O26_7 C21_4 1_555 1_555
O50_4 Sm6_6 1_555 1_555
H9_4 O50_4 1_555 1_555
H12_4 O50_4 1_555 1_555
N5_4 Sm6_6 1_555 1_555
C11_4 N5_4 1_555 1_555
C14_4 N11_6 1_555 1_555
C15_4 N11_7 1_555 1_555
C17_4 N5_4 1_555 1_555
C20_4 O19_4 1_555 1_555
C21_4 O20_4 1_555 1_555
C23_4 O15_4 1_555 1_555
N11_6 C11_4 1_555 1_555
N11_7 C12_4 1_555 1_555
C14_4 C17_4 1_555 1_555
C14_4 C20_4 1_555 1_555
C15_4 C21_4 1_555 1_555
C17_4 C23_4 1_555 1_555

#END
