
###############################################################################
#
# This file contains modified crystal structure data generated from the
# MOF subset of the Cambridge Structural Database (CSD) v543 
# hosted by the Cambridge Crystallographic Data Centre (CCDC).
#
# This work is licensed under the Creative Commons
# Attribution-NonCommercial-ShareAlike 4.0 International License.
# To view a copy of this license, visit
# http://creativecommons.org/licenses/by-nc-sa/4.0/
# or send a letter to
# Creative Commons, PO Box 1866, Mountain View, CA 94042, USA.
#
# CIF created using the CSD Python API on 29 September 2022
# The structure has been converted into the P1 space group
# The structure has a 3D framework
# The original CSD entry WEMCUO is in the tetragonal crystal system
# The framework has been calculated to contain at least 10.0% void space
# The void calculation uses a probe of radius 1.32A, grid spacing 0.4
#
###############################################################################

data_WEMCUO
_chemical_formula_moiety         '(C160 H128 N64 O173 Tb29)n'
_symmetry_cell_setting           triclinic
_symmetry_space_group_name_H-M   'P 1'
_symmetry_Int_Tables_number      1
_space_group_name_Hall           'P 1'
loop_
_symmetry_equiv_pos_site_id
_symmetry_equiv_pos_as_xyz
1 x,y,z
_cell_length_a                   20.227(4)
_cell_length_b                   20.227(4)
_cell_length_c                   16.047(7)
_cell_angle_alpha                90
_cell_angle_beta                 90
_cell_angle_gamma                90
_cell_volume                     6565.33
loop_
_atom_site_label
_atom_site_type_symbol
_atom_site_fract_x
_atom_site_fract_y
_atom_site_fract_z
O32 O 0.0349(4) 0.0334(4) 0.8147(4)
O55 O 0.0172(5) 0.0264(4) 0.3365(5)
H17 H 0.0255 0.0393 0.3838
H20 H 0.0079 0.0637 0.3014
O56 O 0.0068(5) 0.1340(4) 0.9482(5)
H24 H 0.0402 0.1189 0.9861
Tb16 Tb 0.06885(3) 0.95557(3) 0.08066(3)
O38 O 0.0343(4) 0.9791(4) 0.9329(4)
O52 O 0.0098(5) 0.8777(4) 0.3307(5)
H11 H 0.0142 0.8591 0.3758
H14 H 0.0501 0.9000 0.3165
Tb2 Tb 0.70557(3) 0.18115(3) 0.16934(3)
O2 O 0.6320(4) 0.1617(4) 0.0581(4)
O11 O 0.6160(4) 0.2568(5) 0.1982(5)
H5 H 0.5852 0.2365 0.2194
H6 H 0.6311 0.2902 0.2361
N2 N 0.6988(5) 0.0621(5) 0.1250(6)
C1 C 0.7204(6) 0.0036(6) 0.1510(7)
C2 C 0.6549(6) 0.0485(6) 0.0641(6)
C4 C 0.6199(6) 0.1048(6) 0.0262(6)
Tb7 Tb 0.79377(3) 0.17314(3) 0.58988(3)
Tb13 Tb 0.79443(3) 0.31885(3) 0.33066(3)
Tb14 Tb 0.93115(3) 0.54443(3) 0.08066(3)
O27 O 0.7166(4) 0.2849(4) 0.0647(4)
O28 O 0.7834(4) 0.2151(4) 0.4353(4)
O35 O 0.7709(4) 0.2843(4) 0.1829(4)
O36 O 0.7291(4) 0.2157(4) 0.3171(4)
O37 O 0.9657(4) 0.0209(4) 0.0671(4)
O40 O 0.8698(4) 0.3748(4) 0.2459(4)
O41 O 0.6302(4) 0.1252(4) 0.2541(4)
O42 O 0.8752(4) 0.1198(4) 0.0041(4)
O44 O 0.9188(4) 0.4626(4) 0.1917(4)
O45 O 0.5812(4) 0.0374(4) 0.3083(4)
O46 O 0.7874(4) 0.1688(4) 0.0583(4)
N14 N 0.8732(5) 0.4403(5) 0.0392(5)
N15 N 0.6268(5) 0.0597(5) 0.4608(5)
N16 N 0.8097(5) 0.1232(5) 0.2108(5)
N21 N 0.7057(4) 0.1258(5) 0.5086(5)
N22 N 0.8758(5) 0.0443(4) 0.2586(5)
H29 H 0.7511 0.0011 0.4437
C27 C 0.6633(6) 0.0777(6) 0.5256(7)
C28 C 0.8277(6) 0.0867(6) 0.2756(7)
H31 H 0.6595 0.0584 0.5780
H32 H 0.8084 0.0905 0.3280
C29 C 0.8036(6) 0.3602(6) 0.0740(6)
C30 C 0.6964(6) 0.1398(6) 0.4260(6)
C31 C 0.8898(6) 0.0536(6) 0.1760(6)
C32 C 0.8533(6) 0.4008(5) 0.1031(6)
C33 C 0.6467(6) 0.0992(5) 0.3969(6)
C34 C 0.8492(5) 0.1033(6) 0.1469(6)
C35 C 0.7621(5) 0.3074(5) 0.1092(6)
C36 C 0.7379(5) 0.1926(5) 0.3908(6)
C37 C 0.9426(5) 0.0121(5) 0.1408(6)
C38 C 0.8818(5) 0.4118(6) 0.1876(6)
C39 C 0.6182(5) 0.0882(6) 0.3124(6)
C40 C 0.8382(6) 0.1318(5) 0.0624(6)
Tb1 Tb 0.57686(3) 0.04377(3) 0.83988(3)
O1 O 0.5804(4) 0.0980(4) 0.9655(4)
O5 O 0.5349(4) 0.0334(4) 0.6853(4)
O9 O 0.4902(5) 0.1223(4) 0.8307(5)
H1 H 0.4858 0.1409 0.8758
H2 H 0.4499 0.1000 0.8165
Tb6 Tb 0.70623(3) 0.32686(3) 0.91012(3)
Tb9 Tb 0.93115(3) 0.04443(3) 0.91934(3)
Tb10 Tb 0.43115(3) 0.04443(3) 0.58066(3)
O12 O 0.8480(4) 0.1696(4) 0.7155(4)
O15 O 0.9117(4) 0.1180(4) 0.8081(4)
O18 O 0.4117(4) 0.1180(4) 0.6919(4)
O20 O 0.6253(4) 0.1328(4) 0.7666(5)
O21 O 0.8828(4) 0.1247(4) 0.5166(5)
O24 O 0.7085(5) 0.1640(4) 0.6863(5)
O25 O 0.9140(4) 0.0415(5) 0.4363(5)
O39 O 0.4657(4) 0.0209(4) 0.4329(4)
O43 O 0.3752(4) 0.1198(4) 0.4959(4)
O50 O 0.8723(4) 0.2598(5) 0.5807(5)
H9 H 0.8909 0.2642 0.6258
H12 H 0.8500 0.3001 0.5665
O53 O 0.7236(4) 0.2672(5) 0.5865(5)
H15 H 0.7107 0.2755 0.6338
H18 H 0.6863 0.2579 0.5514
O57 O 0.5068(5) 0.1340(4) 0.5518(5)
H21 H 0.9865 0.1648 0.9694
H22 H 0.4865 0.1648 0.5306
H25 H 0.5402 0.1189 0.5139
N5 N 0.7021(5) 0.0558(5) 0.8606(6)
N6 N 0.8058(5) 0.0479(5) 0.6106(6)
N9 N 0.8121(5) 0.0512(5) 0.8750(6)
N12 N 0.3121(5) 0.0512(5) 0.6250(6)
N20 N 0.7943(4) 0.3742(5) 0.9914(5)
C11 C 0.7536(6) 0.0296(6) 0.9010(7)
H28 H 0.7489 0.0011 0.6937
C14 C 0.7985(6) 0.0951(6) 0.8141(6)
C17 C 0.7303(6) 0.0980(5) 0.8054(6)
C18 C 0.8480(5) 0.0197(6) 0.5554(6)
C20 C 0.8548(6) 0.1301(6) 0.7762(6)
C23 C 0.6861(6) 0.1350(6) 0.7491(6)
C24 C 0.8850(6) 0.0639(6) 0.4991(6)
C26 C 0.8367(6) 0.4223(6) 0.9744(7)
H30 H 0.8405 0.4416 0.9220
O3 O 0.6172(4) 0.8753(4) 0.0166(5)
N1 N 0.6942(5) 0.9521(5) 0.1106(6)
H7 H 0.7511 0.9989 0.1937
C3 C 0.6520(5) 0.9803(6) 0.0554(6)
Tb4 Tb 0.70623(3) 0.82686(3) 0.08988(3)
Tb8 Tb 0.92314(3) 0.95623(3) 0.33988(3)
Tb15 Tb 0.56885(3) 0.95557(3) 0.41934(3)
O14 O 0.6520(4) 0.8304(4) 0.2155(4)
O17 O 0.5883(4) 0.8820(4) 0.3081(4)
O22 O 0.8747(4) 0.8672(4) 0.2666(5)
O26 O 0.7915(5) 0.8360(4) 0.1863(5)
O29 O 0.9651(4) 0.9666(4) 0.1853(4)
O51 O 0.6277(4) 0.7402(5) 0.0807(5)
H10 H 0.6091 0.7358 0.1258
H13 H 0.6500 0.6999 0.0665
O54 O 0.7764(4) 0.7328(5) 0.0865(5)
H16 H 0.7893 0.7245 0.1338
H19 H 0.8137 0.7421 0.0514
N7 N 0.7979(5) 0.9442(5) 0.3606(6)
N11 N 0.6879(5) 0.9488(5) 0.3750(6)
N24 N 0.7943(4) 0.8742(5) 0.0086(5)
C13 C 0.7464(6) 0.9704(6) 0.4010(7)
C16 C 0.7015(6) 0.9049(6) 0.3141(6)
C19 C 0.7697(6) 0.9020(5) 0.3054(6)
C22 C 0.6452(6) 0.8699(6) 0.2762(6)
C25 C 0.8139(6) 0.8650(6) 0.2491(6)
O4 O 0.5860(4) 0.9585(5) 0.9363(5)
O6 O 0.5343(4) 0.9791(4) 0.5671(4)
O7 O 0.6248(4) 0.8802(4) 0.5041(4)
O8 O 0.7126(4) 0.8312(4) 0.5583(4)
O10 O 0.4828(5) 0.9736(4) 0.8365(5)
H3 H 0.4745 0.9607 0.8838
H4 H 0.4921 0.9363 0.8014
N3 N 0.6903(5) 0.8768(5) 0.7108(5)
N4 N 0.6242(5) 0.9557(4) 0.7586(5)
C5 C 0.6150(6) 0.9361(6) 0.9991(6)
C6 C 0.6723(6) 0.9133(6) 0.7756(7)
H8 H 0.6916 0.9095 0.8280
C7 C 0.6102(6) 0.9464(6) 0.6760(6)
C8 C 0.6508(5) 0.8967(6) 0.6469(6)
C9 C 0.5574(5) 0.9879(5) 0.6408(6)
C10 C 0.6618(6) 0.8682(5) 0.5624(6)
Tb12 Tb 0.79443(3) 0.81885(3) 0.66934(3)
O13 O 0.9196(4) 0.9020(4) 0.4655(4)
O16 O 0.8680(4) 0.8383(4) 0.5581(4)
O31 O 0.7166(4) 0.7849(4) 0.9353(4)
O33 O 0.4651(4) 0.9666(4) 0.3147(4)
O47 O 0.9188(4) 0.9626(4) 0.8083(4)
O48 O 0.4188(4) 0.9626(4) 0.6917(4)
O58 O 0.4932(5) 0.8660(4) 0.4482(5)
H23 H 0.5135 0.8352 0.4694
H26 H 0.4598 0.8811 0.4861
N10 N 0.8012(5) 0.9379(5) 0.6250(6)
N17 N 0.8732(5) 0.9403(5) 0.9608(5)
N18 N 0.3732(5) 0.9403(5) 0.5392(5)
C12 C 0.7796(6) 0.9964(6) 0.6510(7)
H27 H 0.7489 0.9989 0.9437
C15 C 0.8451(6) 0.9515(6) 0.5641(6)
C21 C 0.8801(6) 0.8952(6) 0.5262(6)
O48_2 O 0.0812(4) 0.0374(4) 0.1917(4)
N18_2 N 0.1268(5) 0.0597(5) 0.0392(5)
O18_2 O 0.0883(4) 0.8820(4) 0.1919(4)
H22_2 H 0.0135 0.8352 0.0306
N12_2 N 0.1879(5) 0.9488(5) 0.1250(6)
O43_2 O 0.1248(4) 0.8802(4) 0.9959(4)
C27_2 C 0.8367(6) 0.9223(6) 0.0256(7)
H31_2 H 0.8405 0.9416 0.0780
O11_2 O 0.8840(4) 0.7432(5) 0.6982(5)
H5_2 H 0.9148 0.7635 0.7194
H6_2 H 0.8689 0.7098 0.7361
Tb6_2 Tb 0.79377(3) 0.67314(3) 0.41012(3)
Tb13_2 Tb 0.70557(3) 0.68115(3) 0.83066(3)
Tb14_2 Tb 0.56885(3) 0.45557(3) 0.58066(3)
O27_2 O 0.7834(4) 0.7151(4) 0.5647(4)
O35_2 O 0.7291(4) 0.7157(4) 0.6829(4)
O36_2 O 0.7709(4) 0.7843(4) 0.8171(4)
O40_2 O 0.6302(4) 0.6252(4) 0.7459(4)
O41_2 O 0.8698(4) 0.8748(4) 0.7541(4)
O44_2 O 0.5812(4) 0.5374(4) 0.6917(4)
O57_2 O 0.9932(5) 0.8660(4) 0.0518(5)
H25_2 H 0.9598 0.8811 0.0139
N14_2 N 0.6268(5) 0.5597(5) 0.5392(5)
N20_2 N 0.7057(4) 0.6258(5) 0.4914(5)
C26_2 C 0.6633(6) 0.5777(6) 0.4744(7)
H30_2 H 0.6595 0.5584 0.4220
C29_2 C 0.6964(6) 0.6398(6) 0.5740(6)
C30_2 C 0.8036(6) 0.8602(6) 0.9260(6)
C32_2 C 0.6467(6) 0.5992(5) 0.6031(6)
C33_2 C 0.8533(6) 0.9008(5) 0.8969(6)
C35_2 C 0.7379(5) 0.6926(5) 0.6092(6)
C36_2 C 0.7621(5) 0.8074(5) 0.8908(6)
C38_2 C 0.6182(5) 0.5882(6) 0.6876(6)
C39_2 C 0.8818(5) 0.9118(6) 0.8124(6)
Tb14_3 Tb 0.20557(3) 0.18115(3) 0.33066(3)
O44_3 O 0.2874(4) 0.1688(4) 0.4417(4)
N14_3 N 0.3097(5) 0.1232(5) 0.2892(5)
N20_3 N 0.3758(5) 0.0443(4) 0.2414(5)
C26_3 C 0.3277(6) 0.0867(6) 0.2244(7)
H30_3 H 0.3084 0.0905 0.1720
C29_3 C 0.3898(6) 0.0536(6) 0.3240(6)
C32_3 C 0.3492(5) 0.1033(6) 0.3531(6)
C35_3 C 0.4426(5) 0.0121(5) 0.3592(6)
C38_3 C 0.3382(6) 0.1318(5) 0.4376(6)
Tb6_3 Tb 0.42314(3) 0.95623(3) 0.16012(3)
O18_3 O 0.6320(4) 0.6617(4) 0.9419(4)
O48_3 O 0.7874(4) 0.6688(4) 0.9417(4)
O57_3 O 0.6160(4) 0.7568(5) 0.8018(5)
H22_3 H 0.5852 0.7365 0.7806
H25_3 H 0.6311 0.7902 0.7639
N12_3 N 0.6988(5) 0.5621(5) 0.8750(6)
N18_3 N 0.8097(5) 0.6232(5) 0.7892(5)
Tb6_4 Tb 0.07686(3) 0.04377(3) 0.66012(3)
Tb14_4 Tb 0.29443(3) 0.81885(3) 0.83066(3)
O44_4 O 0.2126(4) 0.8312(4) 0.9417(4)
N14_4 N 0.1903(5) 0.8768(5) 0.7892(5)
N20_4 N 0.1242(5) 0.9557(4) 0.7414(5)
C26_4 C 0.1723(6) 0.9133(6) 0.7244(7)
H30_4 H 0.1916 0.9095 0.6720
C29_4 C 0.1102(6) 0.9464(6) 0.8240(6)
C32_4 C 0.1508(5) 0.8967(6) 0.8531(6)
C35_4 C 0.0574(5) 0.9879(5) 0.8592(6)
C38_4 C 0.1618(6) 0.8682(5) 0.9376(6)
O18_4 O 0.8680(4) 0.3383(4) 0.4419(4)
O48_4 O 0.7126(4) 0.3312(4) 0.4417(4)
O57_4 O 0.8840(4) 0.2432(5) 0.3018(5)
H22_4 H 0.9148 0.2635 0.2806
H25_4 H 0.8689 0.2098 0.2639
N12_4 N 0.8012(5) 0.4379(5) 0.3750(6)
N18_4 N 0.6903(5) 0.3768(5) 0.2892(5)
Tb7_2 Tb 0.29377(3) 0.67314(3) 0.08988(3)
N21_2 N 0.2057(4) 0.6258(5) 0.0086(5)
C27_3 C 0.1633(6) 0.5777(6) 0.0256(7)
H31_3 H 0.1595 0.5584 0.0780
Tb1_2 Tb 0.07686(3) 0.54377(3) 0.33988(3)
Tb2_2 Tb 0.20557(3) 0.68115(3) 0.66934(3)
O1_2 O 0.0804(4) 0.5980(4) 0.4655(4)
O2_2 O 0.1320(4) 0.6617(4) 0.5581(4)
O3_2 O 0.1172(4) 0.3753(4) 0.5166(5)
O4_2 O 0.0860(4) 0.4585(5) 0.4363(5)
O5_2 O 0.0349(4) 0.5334(4) 0.1853(4)
O6_2 O 0.0343(4) 0.4791(4) 0.0671(4)
O7_2 O 0.1248(4) 0.3802(4) 0.0041(4)
O8_2 O 0.2126(4) 0.3312(4) 0.0583(4)
O11_3 O 0.1160(4) 0.7568(5) 0.6982(5)
H5_3 H 0.0852 0.7365 0.7194
H6_3 H 0.1311 0.7902 0.7361
N1_2 N 0.1942(5) 0.4521(5) 0.6106(6)
N2_2 N 0.1988(5) 0.5621(5) 0.6250(6)
N3_2 N 0.1903(5) 0.3768(5) 0.2108(5)
N4_2 N 0.1242(5) 0.4557(4) 0.2586(5)
C1_2 C 0.2204(6) 0.5036(6) 0.6510(7)
H7_2 H 0.2511 0.4989 0.6937
C2_2 C 0.1549(6) 0.5485(6) 0.5641(6)
C3_2 C 0.1520(5) 0.4803(6) 0.5554(6)
C4_2 C 0.1199(6) 0.6048(6) 0.5262(6)
C5_2 C 0.1150(6) 0.4361(6) 0.4991(6)
C6_2 C 0.1723(6) 0.4133(6) 0.2756(7)
H8_2 H 0.1916 0.4095 0.3280
C7_2 C 0.1102(6) 0.4464(6) 0.1760(6)
C8_2 C 0.1508(5) 0.3967(6) 0.1469(6)
C9_2 C 0.0574(5) 0.4879(5) 0.1408(6)
C10_2 C 0.1618(6) 0.3682(5) 0.0624(6)
Tb4_2 Tb 0.20623(3) 0.32686(3) 0.58988(3)
Tb6_5 Tb 0.20623(3) 0.82686(3) 0.41012(3)
Tb8_2 Tb 0.42314(3) 0.45623(3) 0.83988(3)
Tb9_2 Tb 0.43115(3) 0.54443(3) 0.41934(3)
Tb12_2 Tb 0.29443(3) 0.31885(3) 0.16934(3)
Tb15_2 Tb 0.06885(3) 0.45557(3) 0.91934(3)
O12_2 O 0.3480(4) 0.6696(4) 0.2155(4)
O14_2 O 0.1520(4) 0.3304(4) 0.7155(4)
O15_2 O 0.4117(4) 0.6180(4) 0.3081(4)
O16_2 O 0.3680(4) 0.3383(4) 0.0581(4)
O17_2 O 0.0883(4) 0.3820(4) 0.8081(4)
O20_2 O 0.1253(4) 0.6328(4) 0.2666(5)
O21_2 O 0.3828(4) 0.6247(4) 0.0166(5)
O22_2 O 0.3747(4) 0.3672(4) 0.7666(5)
O24_2 O 0.2085(5) 0.6640(4) 0.1863(5)
O26_2 O 0.2915(5) 0.3360(4) 0.6863(5)
O27_3 O 0.2166(4) 0.7849(4) 0.5647(4)
O28_2 O 0.2834(4) 0.7151(4) 0.9353(4)
O29_2 O 0.4651(4) 0.4666(4) 0.6853(4)
O31_2 O 0.2166(4) 0.2849(4) 0.4353(4)
O32_2 O 0.5349(4) 0.5334(4) 0.3147(4)
O35_3 O 0.2709(4) 0.7843(4) 0.6829(4)
O36_3 O 0.2291(4) 0.7157(4) 0.8171(4)
O37_2 O 0.4657(4) 0.5209(4) 0.5671(4)
O38_2 O 0.5343(4) 0.4791(4) 0.4329(4)
O40_3 O 0.3698(4) 0.8748(4) 0.7459(4)
O41_3 O 0.1302(4) 0.6252(4) 0.7541(4)
O42_2 O 0.3752(4) 0.6198(4) 0.5041(4)
O45_2 O 0.0812(4) 0.5374(4) 0.8083(4)
O46_2 O 0.2874(4) 0.6688(4) 0.5583(4)
O47_2 O 0.4188(4) 0.4626(4) 0.3083(4)
O50_2 O 0.3723(4) 0.7598(5) 0.0807(5)
O51_2 O 0.1277(4) 0.2402(5) 0.5807(5)
H9_2 H 0.3909 0.7642 0.1258
H10_2 H 0.1091 0.2358 0.6258
H12_2 H 0.3500 0.8001 0.0665
H13_2 H 0.1500 0.1999 0.5665
O53_2 O 0.2236(4) 0.7672(5) 0.0865(5)
O54_2 O 0.2764(4) 0.2328(5) 0.5865(5)
H15_2 H 0.2107 0.7755 0.1338
H16_2 H 0.2893 0.2245 0.6338
H18_2 H 0.1863 0.7579 0.0514
H19_2 H 0.3137 0.2421 0.5514
O56_2 O 0.5068(5) 0.6340(4) 0.4482(5)
O57_5 O 0.0068(5) 0.6340(4) 0.0518(5)
H21_2 H 0.4865 0.6648 0.4694
H24_2 H 0.5402 0.6189 0.4861
H25_5 H 0.0402 0.6189 0.0139
N5_2 N 0.2021(5) 0.5558(5) 0.3606(6)
N6_2 N 0.3058(5) 0.5479(5) 0.1106(6)
N7_2 N 0.2979(5) 0.4442(5) 0.8606(6)
N9_2 N 0.3121(5) 0.5512(5) 0.3750(6)
N10_2 N 0.3012(5) 0.4379(5) 0.1250(6)
N11_2 N 0.1879(5) 0.4488(5) 0.8750(6)
N15_2 N 0.1268(5) 0.5597(5) 0.9608(5)
N16_2 N 0.3097(5) 0.6232(5) 0.7108(5)
N17_2 N 0.3732(5) 0.4403(5) 0.4608(5)
N20_5 N 0.2943(4) 0.8742(5) 0.4914(5)
N22_2 N 0.3758(5) 0.5443(4) 0.7586(5)
N24_2 N 0.2943(4) 0.3742(5) 0.5086(5)
C11_2 C 0.2536(6) 0.5296(6) 0.4010(7)
C12_2 C 0.2796(6) 0.4964(6) 0.1510(7)
C13_2 C 0.2464(6) 0.4704(6) 0.9010(7)
H27_2 H 0.2489 0.4989 0.4437
H28_2 H 0.2489 0.5011 0.1937
H29_2 H 0.2511 0.5011 0.9437
C14_2 C 0.2985(6) 0.5951(6) 0.3141(6)
C15_2 C 0.3451(6) 0.4515(6) 0.0641(6)
C16_2 C 0.2015(6) 0.4049(6) 0.8141(6)
C17_2 C 0.2303(6) 0.5980(5) 0.3054(6)
C18_2 C 0.3480(5) 0.5197(6) 0.0554(6)
C19_2 C 0.2697(6) 0.4020(5) 0.8054(6)
C20_2 C 0.3548(6) 0.6301(6) 0.2762(6)
C21_2 C 0.3801(6) 0.3952(6) 0.0262(6)
C22_2 C 0.1452(6) 0.3699(6) 0.7762(6)
C23_2 C 0.1861(6) 0.6350(6) 0.2491(6)
C25_2 C 0.3139(6) 0.3650(6) 0.7491(6)
C26_5 C 0.3367(6) 0.9223(6) 0.4744(7)
C28_2 C 0.3277(6) 0.5867(6) 0.7756(7)
H30_5 H 0.3405 0.9416 0.4220
H32_2 H 0.3084 0.5905 0.8280
C29_5 C 0.3036(6) 0.8602(6) 0.5740(6)
C30_3 C 0.1964(6) 0.6398(6) 0.9260(6)
C31_2 C 0.3898(6) 0.5536(6) 0.6760(6)
C32_5 C 0.3533(6) 0.9008(5) 0.6031(6)
C33_3 C 0.1467(6) 0.5992(5) 0.8969(6)
C34_2 C 0.3492(5) 0.6033(6) 0.6469(6)
C35_5 C 0.2621(5) 0.8074(5) 0.6092(6)
C36_3 C 0.2379(5) 0.6926(5) 0.8908(6)
C37_2 C 0.4426(5) 0.5121(5) 0.6408(6)
C38_5 C 0.3818(5) 0.9118(6) 0.6876(6)
C39_3 C 0.1182(5) 0.5882(6) 0.8124(6)
C40_2 C 0.3382(6) 0.6318(5) 0.5624(6)
O13_2 O 0.4196(4) 0.4020(4) 0.9655(4)
O25_2 O 0.4140(4) 0.5415(5) 0.9363(5)
O52_2 O 0.5098(5) 0.3777(4) 0.8307(5)
H11_2 H 0.5142 0.3591 0.8758
H14_2 H 0.5501 0.4000 0.8165
O55_2 O 0.5172(5) 0.5264(4) 0.8365(5)
H17_2 H 0.5255 0.5393 0.8838
H20_2 H 0.5079 0.5637 0.8014
H23_2 H 0.0135 0.3352 0.9694
C24_2 C 0.3850(6) 0.5639(6) 0.9991(6)
O9_2 O 0.9902(5) 0.6223(4) 0.3307(5)
H1_2 H 0.9858 0.6409 0.3758
H2_2 H 0.9499 0.6000 0.3165
O10_2 O 0.9828(5) 0.4736(4) 0.3365(5)
H3_2 H 0.9745 0.4607 0.3838
H4_2 H 0.9921 0.4363 0.3014
O18_5 O 0.9117(4) 0.6180(4) 0.1919(4)
H22_5 H 0.9865 0.6648 0.0306
N12_5 N 0.8121(5) 0.5512(5) 0.1250(6)
O33_2 O 0.9651(4) 0.4666(4) 0.8147(4)
O39_2 O 0.9657(4) 0.5209(4) 0.9329(4)
O43_3 O 0.8752(4) 0.6198(4) 0.9959(4)
O58_2 O 0.9932(5) 0.3660(4) 0.9482(5)
H26_2 H 0.9598 0.3811 0.9861
O11_4 O 0.3840(4) 0.2432(5) 0.1982(5)
H5_4 H 0.4148 0.2635 0.2194
H6_4 H 0.3689 0.2098 0.2361
O27_4 O 0.2834(4) 0.2151(4) 0.0647(4)
O35_4 O 0.2291(4) 0.2157(4) 0.1829(4)
O36_4 O 0.2709(4) 0.2843(4) 0.3171(4)
O40_4 O 0.1302(4) 0.1252(4) 0.2459(4)
O41_4 O 0.3698(4) 0.3748(4) 0.2541(4)
C27_4 C 0.3367(6) 0.4223(6) 0.5256(7)
H31_4 H 0.3405 0.4416 0.5780
C29_6 C 0.1964(6) 0.1398(6) 0.0740(6)
C30_4 C 0.3036(6) 0.3602(6) 0.4260(6)
C32_6 C 0.1467(6) 0.0992(5) 0.1031(6)
C33_4 C 0.3533(6) 0.4008(5) 0.3969(6)
C35_6 C 0.2379(5) 0.1926(5) 0.1092(6)
C36_4 C 0.2621(5) 0.3074(5) 0.3908(6)
C38_6 C 0.1182(5) 0.0882(6) 0.1876(6)
C39_4 C 0.3818(5) 0.4118(6) 0.3124(6)
Tb6_6 Tb 0.29377(3) 0.17314(3) 0.91012(3)
O18_6 O 0.5883(4) 0.3820(4) 0.6919(4)
O43_4 O 0.6248(4) 0.3802(4) 0.4959(4)
O57_6 O 0.4932(5) 0.3660(4) 0.5518(5)
H22_6 H 0.5135 0.3352 0.5306
H25_6 H 0.4598 0.3811 0.5139
N12_6 N 0.6879(5) 0.4488(5) 0.6250(6)
N20_6 N 0.2057(4) 0.1258(5) 0.9914(5)
C26_6 C 0.1633(6) 0.0777(6) 0.9744(7)
H30_6 H 0.1595 0.0584 0.9220
O18_7 O 0.1320(4) 0.1617(4) 0.4419(4)
O57_7 O 0.1160(4) 0.2568(5) 0.3018(5)
H22_7 H 0.0852 0.2365 0.2806
H25_7 H 0.1311 0.2902 0.2639
N12_7 N 0.1988(5) 0.0621(5) 0.3750(6)
Tb6_7 Tb 0.92314(3) 0.45623(3) 0.66012(3)
N20_7 N 0.8758(5) 0.5443(4) 0.7414(5)
C26_7 C 0.8277(6) 0.5867(6) 0.7244(7)
H30_7 H 0.8084 0.5905 0.6720
C29_7 C 0.8898(6) 0.5536(6) 0.8240(6)
C32_7 C 0.8492(5) 0.6033(6) 0.8531(6)
C35_7 C 0.9426(5) 0.5121(5) 0.8592(6)
C38_7 C 0.8382(6) 0.6318(5) 0.9376(6)
Tb6_8 Tb 0.57686(3) 0.54377(3) 0.16012(3)
N20_8 N 0.6242(5) 0.4557(4) 0.2414(5)
C26_8 C 0.6723(6) 0.4133(6) 0.2244(7)
H30_8 H 0.6916 0.4095 0.1720
C29_8 C 0.6102(6) 0.4464(6) 0.3240(6)
C32_8 C 0.6508(5) 0.3967(6) 0.3531(6)
C35_8 C 0.5574(5) 0.4879(5) 0.3592(6)
C38_8 C 0.6618(6) 0.3682(5) 0.4376(6)
O18_8 O 0.3680(4) 0.8383(4) 0.9419(4)
O57_8 O 0.3840(4) 0.7432(5) 0.8018(5)
H22_8 H 0.4148 0.7635 0.7806
H25_8 H 0.3689 0.7098 0.7639
N12_8 N 0.3012(5) 0.9379(5) 0.8750(6)
O4_3 O 0.4140(4) 0.0415(5) 0.0637(5)
O10_3 O 0.5172(5) 0.0264(4) 0.1635(5)
H3_3 H 0.5255 0.0393 0.1162
H4_3 H 0.5079 0.0637 0.1986
C5_3 C 0.3850(6) 0.0639(6) 0.0009(6)
O13_3 O 0.0804(4) 0.0980(4) 0.5345(4)
O23 O 0.1253(4) 0.1328(4) 0.7334(5)
N8 N 0.2021(5) 0.0558(5) 0.6394(6)
C12_3 C 0.2204(6) 0.0036(6) 0.3490(7)
H27_3 H 0.2511 0.0011 0.0563
C15_3 C 0.1549(6) 0.0485(6) 0.4359(6)
C21_3 C 0.1199(6) 0.1048(6) 0.4738(6)
O3_3 O 0.3828(4) 0.1247(4) 0.9834(5)
N1_3 N 0.3058(5) 0.0479(5) 0.8894(6)
H7_3 H 0.2489 0.0011 0.8063
C3_3 C 0.3480(5) 0.0197(6) 0.9446(6)
O14_3 O 0.3480(4) 0.1696(4) 0.7845(4)
O26_3 O 0.2085(5) 0.1640(4) 0.8137(5)
O51_3 O 0.3723(4) 0.2598(5) 0.9193(5)
H10_3 H 0.3909 0.2642 0.8742
H13_3 H 0.3500 0.3001 0.9335
O54_3 O 0.2236(4) 0.2672(5) 0.9135(5)
H16_3 H 0.2107 0.2755 0.8662
H19_3 H 0.1863 0.2579 0.9486
C13_3 C 0.2536(6) 0.0296(6) 0.5990(7)
C16_3 C 0.2985(6) 0.0951(6) 0.6859(6)
C19_3 C 0.2303(6) 0.0980(5) 0.6946(6)
C22_3 C 0.3548(6) 0.1301(6) 0.7238(6)
C25_3 C 0.1861(6) 0.1350(6) 0.7509(6)
O1_3 O 0.4196(4) 0.9020(4) 0.0345(4)
O9_3 O 0.5098(5) 0.8777(4) 0.1693(5)
H1_3 H 0.5142 0.8591 0.1242
H2_3 H 0.5501 0.9000 0.1835
O12_3 O 0.1520(4) 0.8304(4) 0.2845(4)
O20_3 O 0.3747(4) 0.8672(4) 0.2334(5)
O21_3 O 0.1172(4) 0.8753(4) 0.4834(5)
O24_3 O 0.2915(5) 0.8360(4) 0.3137(5)
O25_3 O 0.0860(4) 0.9585(5) 0.5637(5)
O50_3 O 0.1277(4) 0.7402(5) 0.4193(5)
H9_3 H 0.1091 0.7358 0.3742
H12_3 H 0.1500 0.6999 0.4335
O53_3 O 0.2764(4) 0.7328(5) 0.4135(5)
H15_3 H 0.2893 0.7245 0.3662
H18_3 H 0.3137 0.7421 0.4486
N5_3 N 0.2979(5) 0.9442(5) 0.1394(6)
N6_3 N 0.1942(5) 0.9521(5) 0.3894(6)
C11_3 C 0.2464(6) 0.9704(6) 0.0990(7)
H28_3 H 0.2511 0.9989 0.3063
C14_3 C 0.2015(6) 0.9049(6) 0.1859(6)
C17_3 C 0.2697(6) 0.9020(5) 0.1946(6)
C18_3 C 0.1520(5) 0.9803(6) 0.4446(6)
C20_3 C 0.1452(6) 0.8699(6) 0.2238(6)
C23_3 C 0.3139(6) 0.8650(6) 0.2509(6)
C24_3 C 0.1150(6) 0.9361(6) 0.5009(6)
C1_3 C 0.2796(6) 0.9964(6) 0.8490(7)
C2_3 C 0.3451(6) 0.9515(6) 0.9359(6)
C4_3 C 0.3801(6) 0.8952(6) 0.9738(6)
H29_3 H 0.2489 0.9989 0.5563
O52_3 O 0.9902(5) 0.1223(4) 0.6693(5)
H11_3 H 0.9858 0.1409 0.6242
H14_3 H 0.9499 0.1000 0.6835
O55_3 O 0.9828(5) 0.9736(4) 0.6635(5)
H17_3 H 0.9745 0.9607 0.6162
H20_3 H 0.9921 0.9363 0.6986
O9_4 O 0.0098(5) 0.3777(4) 0.6693(5)
H1_4 H 0.0142 0.3591 0.6242
H2_4 H 0.0501 0.4000 0.6835
O10_4 O 0.0172(5) 0.5264(4) 0.6635(5)
H3_4 H 0.0255 0.5393 0.6162
H4_4 H 0.0079 0.5637 0.6986
O13_4 O 0.5804(4) 0.5980(4) 0.0345(4)
O23_2 O 0.6253(4) 0.6328(4) 0.2334(5)
O25_4 O 0.5860(4) 0.4585(5) 0.0637(5)
O52_4 O 0.4902(5) 0.6223(4) 0.1693(5)
H11_4 H 0.4858 0.6409 0.1242
H14_4 H 0.4499 0.6000 0.1835
O55_4 O 0.4828(5) 0.4736(4) 0.1635(5)
H17_4 H 0.4745 0.4607 0.1162
H20_4 H 0.4921 0.4363 0.1986
N8_2 N 0.7021(5) 0.5558(5) 0.1394(6)
C24_4 C 0.6150(6) 0.4361(6) 0.0009(6)
O1_4 O 0.9196(4) 0.4020(4) 0.5345(4)
O3_4 O 0.8828(4) 0.6247(4) 0.4834(5)
O4_4 O 0.9140(4) 0.5415(5) 0.5637(5)
N1_4 N 0.8058(5) 0.5479(5) 0.3894(6)
C1_4 C 0.7796(6) 0.4964(6) 0.3490(7)
H7_4 H 0.7489 0.5011 0.3063
C2_4 C 0.8451(6) 0.4515(6) 0.4359(6)
C3_4 C 0.8480(5) 0.5197(6) 0.4446(6)
C4_4 C 0.8801(6) 0.3952(6) 0.4738(6)
C5_4 C 0.8850(6) 0.5639(6) 0.5009(6)
O12_4 O 0.6520(4) 0.3304(4) 0.7845(4)
O14_4 O 0.8480(4) 0.6696(4) 0.2845(4)
O20_4 O 0.8747(4) 0.3672(4) 0.7334(5)
O21_4 O 0.6172(4) 0.3753(4) 0.9834(5)
O24_4 O 0.7915(5) 0.3360(4) 0.8137(5)
O26_4 O 0.7085(5) 0.6640(4) 0.3137(5)
O50_4 O 0.6277(4) 0.2402(5) 0.9193(5)
O51_4 O 0.8723(4) 0.7598(5) 0.4193(5)
H9_4 H 0.6091 0.2358 0.8742
H10_4 H 0.8909 0.7642 0.3742
H12_4 H 0.6500 0.1999 0.9335
H13_4 H 0.8500 0.8001 0.4335
O53_4 O 0.7764(4) 0.2328(5) 0.9135(5)
O54_4 O 0.7236(4) 0.7672(5) 0.4135(5)
H15_4 H 0.7893 0.2245 0.8662
H16_4 H 0.7107 0.7755 0.3662
H18_4 H 0.8137 0.2421 0.9486
H19_4 H 0.6863 0.7579 0.4486
N5_4 N 0.7979(5) 0.4442(5) 0.6394(6)
N6_4 N 0.6942(5) 0.4521(5) 0.8894(6)
C11_4 C 0.7464(6) 0.4704(6) 0.5990(7)
C12_4 C 0.7204(6) 0.5036(6) 0.8490(7)
C13_4 C 0.7536(6) 0.5296(6) 0.0990(7)
H27_4 H 0.7511 0.5011 0.5563
H28_4 H 0.7511 0.4989 0.8063
H29_4 H 0.7489 0.4989 0.0563
C14_4 C 0.7015(6) 0.4049(6) 0.6859(6)
C15_4 C 0.6549(6) 0.5485(6) 0.9359(6)
C16_4 C 0.7985(6) 0.5951(6) 0.1859(6)
C17_4 C 0.7697(6) 0.4020(5) 0.6946(6)
C18_4 C 0.6520(5) 0.4803(6) 0.9446(6)
C19_4 C 0.7303(6) 0.5980(5) 0.1946(6)
C20_4 C 0.6452(6) 0.3699(6) 0.7238(6)
C21_4 C 0.6199(6) 0.6048(6) 0.9738(6)
C22_4 C 0.8548(6) 0.6301(6) 0.2238(6)
C23_4 C 0.8139(6) 0.3650(6) 0.7509(6)
C25_4 C 0.6861(6) 0.6350(6) 0.2509(6)
loop_
_geom_bond_atom_site_label_1
_geom_bond_atom_site_label_2
_geom_bond_site_symmetry_1
_geom_bond_site_symmetry_2
H17 O55 1_555 1_555
H20 O55 1_555 1_555
H24 O56 1_555 1_555
H11 O52 1_555 1_555
H14 O52 1_555 1_555
Tb2 O2 1_555 1_555
O2 C4 1_555 1_555
O11 Tb2 1_555 1_555
H5 O11 1_555 1_555
H6 O11 1_555 1_555
N2 Tb2 1_555 1_555
C1 N2 1_555 1_555
C2 N2 1_555 1_555
C4 C2 1_555 1_555
Tb7 O28 1_555 1_555
Tb13 O28 1_555 1_555
Tb14 O44 1_555 1_555
O27 Tb2 1_555 1_555
O28 C36 1_555 1_555
O35 Tb2 1_555 1_555
O36 Tb2 1_555 1_555
O40 Tb13 1_555 1_555
O41 Tb2 1_555 1_555
O44 C38 1_555 1_555
O46 Tb2 1_555 1_555
N14 Tb14 1_555 1_555
N16 Tb2 1_555 1_555
N21 Tb7 1_555 1_555
C27 N15 1_555 1_555
C28 N16 1_555 1_555
H31 C27 1_555 1_555
H32 C28 1_555 1_555
C30 N21 1_555 1_555
C31 N22 1_555 1_555
C32 N14 1_555 1_555
C33 N15 1_555 1_555
C34 N16 1_555 1_555
C35 O27 1_555 1_555
C36 O36 1_555 1_555
C38 O40 1_555 1_555
C39 O41 1_555 1_555
C40 O42 1_555 1_555
Tb13 O35 1_555 1_555
Tb13 O36 1_555 1_555
O35 C35 1_555 1_555
O37 C37 1_555 1_555
O45 C39 1_555 1_555
O46 C40 1_555 1_555
N21 C27 1_555 1_555
N22 C28 1_555 1_555
C29 C32 1_555 1_555
C29 C35 1_555 1_555
C30 C33 1_555 1_555
C30 C36 1_555 1_555
C31 C34 1_555 1_555
C31 C37 1_555 1_555
C32 C38 1_555 1_555
C33 C39 1_555 1_555
C34 C40 1_555 1_555
Tb1 O1 1_555 1_555
O5 Tb1 1_555 1_555
O9 Tb1 1_555 1_555
H1 O9 1_555 1_555
H2 O9 1_555 1_555
Tb7 O12 1_555 1_555
Tb9 O15 1_555 1_555
Tb10 O5 1_555 1_555
O12 C20 1_555 1_555
O15 C20 1_555 1_555
O18 Tb10 1_555 1_555
O20 Tb1 1_555 1_555
O21 Tb7 1_555 1_555
O24 Tb7 1_555 1_555
O39 Tb10 1_555 1_555
O43 Tb10 1_555 1_555
O50 Tb7 1_555 1_555
H9 O50 1_555 1_555
H12 O50 1_555 1_555
O53 Tb7 1_555 1_555
H15 O53 1_555 1_555
H18 O53 1_555 1_555
O57 Tb10 1_555 1_555
H22 O57 1_555 1_555
H25 O57 1_555 1_555
N5 Tb1 1_555 1_555
N6 Tb7 1_555 1_555
N9 Tb9 1_555 1_555
N12 Tb10 1_555 1_555
N20 Tb6 1_555 1_555
C11 N5 1_555 1_555
C14 N9 1_555 1_555
C17 N5 1_555 1_555
C18 N6 1_555 1_555
C20 C14 1_555 1_555
C23 O20 1_555 1_555
C24 O21 1_555 1_555
H30 C26 1_555 1_555
O24 C23 1_555 1_555
O25 C24 1_555 1_555
N9 C11 1_555 1_555
N20 C26 1_555 1_555
C14 C17 1_555 1_555
C17 C23 1_555 1_555
C18 C24 1_555 1_555
C3 N1 1_555 1_555
Tb4 O3 1_555 1_555
Tb8 O22 1_555 1_555
Tb15 O17 1_555 1_555
O14 Tb4 1_555 1_555
O17 C22 1_555 1_555
O22 C25 1_555 1_555
O26 Tb4 1_555 1_555
O29 Tb8 1_555 1_555
O51 Tb4 1_555 1_555
H10 O51 1_555 1_555
H13 O51 1_555 1_555
O54 Tb4 1_555 1_555
H16 O54 1_555 1_555
H19 O54 1_555 1_555
N7 Tb8 1_555 1_555
N11 Tb15 1_555 1_555
N24 Tb4 1_555 1_555
C13 N7 1_555 1_555
C16 N11 1_555 1_555
C19 N7 1_555 1_555
C22 O14 1_555 1_555
C25 O26 1_555 1_555
N1 Tb4 1_555 1_555
N11 C13 1_555 1_555
C16 C19 1_555 1_555
C16 C22 1_555 1_555
C19 C25 1_555 1_555
O6 C9 1_555 1_555
O7 C10 1_555 1_555
O8 C10 1_555 1_555
H3 O10 1_555 1_555
H4 O10 1_555 1_555
N3 C6 1_555 1_555
C5 O4 1_555 1_555
C6 N4 1_555 1_555
H8 C6 1_555 1_555
C7 N4 1_555 1_555
C8 N3 1_555 1_555
C10 C8 1_555 1_555
Tb8 O13 1_555 1_555
Tb15 O6 1_555 1_555
Tb12 O8 1_555 1_555
O13 C21 1_555 1_555
O16 Tb12 1_555 1_555
O33 Tb15 1_555 1_555
O58 Tb15 1_555 1_555
H23 O58 1_555 1_555
H26 O58 1_555 1_555
N10 Tb12 1_555 1_555
C15 N10 1_555 1_555
C21 O16 1_555 1_555
O7 Tb15 1_555 1_555
N3 Tb12 1_555 1_555
C7 C8 1_555 1_555
C7 C9 1_555 1_555
N10 C12 1_555 1_555
C15 C21 1_555 1_555
O18_2 Tb16 1_555 1_555
N12_2 Tb16 1_555 1_555
H31_2 C27_2 1_555 1_555
N24 C27_2 1_555 1_555
O11_2 Tb12 1_555 1_555
H5_2 O11_2 1_555 1_555
H6_2 O11_2 1_555 1_555
Tb6_2 O27_2 1_555 1_555
Tb13_2 O31 1_555 1_555
Tb14_2 O44_2 1_555 1_555
O27_2 Tb12 1_555 1_555
O31 C36_2 1_555 1_555
O35_2 Tb12 1_555 1_555
O36_2 Tb12 1_555 1_555
O40_2 Tb13_2 1_555 1_555
O41_2 Tb12 1_555 1_555
O44_2 C38_2 1_555 1_555
H25_2 O57_2 1_555 1_555
N14_2 Tb14_2 1_555 1_555
N20_2 Tb6_2 1_555 1_555
C26_2 N14_2 1_555 1_555
H30_2 C26_2 1_555 1_555
C29_2 N20_2 1_555 1_555
C32_2 N14_2 1_555 1_555
C33_2 N17 1_555 1_555
C35_2 O27_2 1_555 1_555
C36_2 O36_2 1_555 1_555
C38_2 O40_2 1_555 1_555
C39_2 O41_2 1_555 1_555
Tb13_2 O35_2 1_555 1_555
Tb13_2 O36_2 1_555 1_555
O35_2 C35_2 1_555 1_555
O47 C39_2 1_555 1_555
N20_2 C26_2 1_555 1_555
C29_2 C32_2 1_555 1_555
C29_2 C35_2 1_555 1_555
C30_2 C33_2 1_555 1_555
C30_2 C36_2 1_555 1_555
C32_2 C38_2 1_555 1_555
C33_2 C39_2 1_555 1_555
Tb14_3 O44_3 1_555 1_555
O44_3 C38_3 1_555 1_555
N14_3 Tb14_3 1_555 1_555
C26_3 N14_3 1_555 1_555
H30_3 C26_3 1_555 1_555
C29_3 N20_3 1_555 1_555
C32_3 N14_3 1_555 1_555
C38_3 O43 1_555 1_555
O39 C35_3 1_555 1_555
N20_3 C26_3 1_555 1_555
C29_3 C32_3 1_555 1_555
C29_3 C35_3 1_555 1_555
C32_3 C38_3 1_555 1_555
Tb6_3 O33 1_555 1_555
O18_3 Tb13_2 1_555 1_555
O48_3 Tb13_2 1_555 1_555
O57_3 Tb13_2 1_555 1_555
H22_3 O57_3 1_555 1_555
H25_3 O57_3 1_555 1_555
N12_3 Tb13_2 1_555 1_555
N18_3 Tb13_2 1_555 1_555
Tb6_4 O32 1_555 1_555
Tb14_4 O44_4 1_555 1_555
O44_4 C38_4 1_555 1_555
N14_4 Tb14_4 1_555 1_555
C26_4 N14_4 1_555 1_555
H30_4 C26_4 1_555 1_555
C29_4 N20_4 1_555 1_555
C32_4 N14_4 1_555 1_555
C38_4 O43_2 1_555 1_555
O38 C35_4 1_555 1_555
N20_4 C26_4 1_555 1_555
C29_4 C32_4 1_555 1_555
C29_4 C35_4 1_555 1_555
C32_4 C38_4 1_555 1_555
O18_4 Tb13 1_555 1_555
O48_4 Tb13 1_555 1_555
O57_4 Tb13 1_555 1_555
H22_4 O57_4 1_555 1_555
H25_4 O57_4 1_555 1_555
N12_4 Tb13 1_555 1_555
N18_4 Tb13 1_555 1_555
N21_2 Tb7_2 1_555 1_555
H31_3 C27_3 1_555 1_555
N21_2 C27_3 1_555 1_555
Tb1_2 O1_2 1_555 1_555
Tb2_2 O2_2 1_555 1_555
O1_2 C4_2 1_555 1_555
O2_2 C4_2 1_555 1_555
O3_2 C5_2 1_555 1_555
O4_2 Tb1_2 1_555 1_555
O5_2 Tb1_2 1_555 1_555
O6_2 C9_2 1_555 1_555
O7_2 C10_2 1_555 1_555
O8_2 C10_2 1_555 1_555
O11_3 Tb2_2 1_555 1_555
H5_3 O11_3 1_555 1_555
H6_3 O11_3 1_555 1_555
N1_2 C1_2 1_555 1_555
N2_2 Tb2_2 1_555 1_555
N3_2 C6_2 1_555 1_555
N4_2 Tb1_2 1_555 1_555
C1_2 N2_2 1_555 1_555
H7_2 C1_2 1_555 1_555
C2_2 N2_2 1_555 1_555
C3_2 N1_2 1_555 1_555
C4_2 C2_2 1_555 1_555
C5_2 O4_2 1_555 1_555
C6_2 N4_2 1_555 1_555
H8_2 C6_2 1_555 1_555
C7_2 N4_2 1_555 1_555
C8_2 N3_2 1_555 1_555
C9_2 O5_2 1_555 1_555
C10_2 C8_2 1_555 1_555
Tb7_2 O12_2 1_555 1_555
Tb4_2 O3_2 1_555 1_555
Tb6_5 O27_3 1_555 1_555
Tb8_2 O22_2 1_555 1_555
Tb9_2 O15_2 1_555 1_555
Tb12_2 O8_2 1_555 1_555
Tb14_4 O28_2 1_555 1_555
Tb15_2 O17_2 1_555 1_555
Tb14_2 O29_2 1_555 1_555
O12_2 C20_2 1_555 1_555
O14_2 Tb4_2 1_555 1_555
O15_2 C20_2 1_555 1_555
O16_2 Tb12_2 1_555 1_555
O17_2 C22_2 1_555 1_555
O20_2 Tb1_2 1_555 1_555
O21_2 Tb7_2 1_555 1_555
O22_2 C25_2 1_555 1_555
O24_2 Tb7_2 1_555 1_555
O26_2 Tb4_2 1_555 1_555
O27_3 Tb2_2 1_555 1_555
O28_2 C36_3 1_555 1_555
O29_2 Tb8_2 1_555 1_555
O31_2 Tb4_2 1_555 1_555
O32_2 Tb9_2 1_555 1_555
O35_3 Tb2_2 1_555 1_555
O36_3 Tb2_2 1_555 1_555
O37_2 Tb9_2 1_555 1_555
O38_2 Tb9_2 1_555 1_555
O40_3 Tb14_4 1_555 1_555
O41_3 Tb2_2 1_555 1_555
O42_2 Tb9_2 1_555 1_555
O48 C38_5 1_555 1_555
O45_2 Tb15_2 1_555 1_555
O46_2 Tb2_2 1_555 1_555
O47_2 Tb9_2 1_555 1_555
O50_2 Tb7_2 1_555 1_555
O51_2 Tb4_2 1_555 1_555
H9_2 O50_2 1_555 1_555
H10_2 O51_2 1_555 1_555
H12_2 O50_2 1_555 1_555
H13_2 O51_2 1_555 1_555
O53_2 Tb7_2 1_555 1_555
O54_2 Tb4_2 1_555 1_555
H15_2 O53_2 1_555 1_555
H16_2 O54_2 1_555 1_555
H18_2 O53_2 1_555 1_555
H19_2 O54_2 1_555 1_555
O56_2 Tb9_2 1_555 1_555
H21_2 O56_2 1_555 1_555
H24_2 O56_2 1_555 1_555
H25_5 O57_5 1_555 1_555
N5_2 Tb1_2 1_555 1_555
N6_2 Tb7_2 1_555 1_555
N7_2 Tb8_2 1_555 1_555
N9_2 Tb9_2 1_555 1_555
N10_2 Tb12_2 1_555 1_555
N11_2 Tb15_2 1_555 1_555
N15_2 Tb15_2 1_555 1_555
N16_2 Tb2_2 1_555 1_555
N17_2 Tb9_2 1_555 1_555
N20_5 Tb6_5 1_555 1_555
N22_2 Tb8_2 1_555 1_555
N24_2 Tb4_2 1_555 1_555
C11_2 N5_2 1_555 1_555
C12_2 N6_2 1_555 1_555
C13_2 N7_2 1_555 1_555
H27_2 C11_2 1_555 1_555
H28_2 C12_2 1_555 1_555
H29_2 C13_2 1_555 1_555
C14_2 N9_2 1_555 1_555
C15_2 N10_2 1_555 1_555
C16_2 N11_2 1_555 1_555
C17_2 N5_2 1_555 1_555
C18_2 N6_2 1_555 1_555
C19_2 N7_2 1_555 1_555
C20_2 C14_2 1_555 1_555
C21_2 O16_2 1_555 1_555
C22_2 O14_2 1_555 1_555
C23_2 O20_2 1_555 1_555
C25_2 O26_2 1_555 1_555
C26_5 N18 1_555 1_555
C28_2 N16_2 1_555 1_555
H30_5 C26_5 1_555 1_555
H32_2 C28_2 1_555 1_555
C29_5 N20_5 1_555 1_555
C31_2 N22_2 1_555 1_555
C32_5 N18 1_555 1_555
C33_3 N15_2 1_555 1_555
C34_2 N16_2 1_555 1_555
C35_5 O27_3 1_555 1_555
C36_3 O36_3 1_555 1_555
C37_2 O29_2 1_555 1_555
C38_5 O40_3 1_555 1_555
C39_3 O41_3 1_555 1_555
C40_2 O42_2 1_555 1_555
N1_2 Tb4_2 1_555 1_555
N3_2 Tb12_2 1_555 1_555
C2_2 C3_2 1_555 1_555
C3_2 C5_2 1_555 1_555
C7_2 C8_2 1_555 1_555
C7_2 C9_2 1_555 1_555
Tb14_4 O35_3 1_555 1_555
Tb14_4 O36_3 1_555 1_555
Tb14_2 O37_2 1_555 1_555
Tb14_2 O38_2 1_555 1_555
O24_2 C23_2 1_555 1_555
O35_3 C35_5 1_555 1_555
O37_2 C37_2 1_555 1_555
O45_2 C39_3 1_555 1_555
O46_2 C40_2 1_555 1_555
N9_2 C11_2 1_555 1_555
N10_2 C12_2 1_555 1_555
N11_2 C13_2 1_555 1_555
N20_5 C26_5 1_555 1_555
N22_2 C28_2 1_555 1_555
C14_2 C17_2 1_555 1_555
C15_2 C18_2 1_555 1_555
C15_2 C21_2 1_555 1_555
C16_2 C19_2 1_555 1_555
C16_2 C22_2 1_555 1_555
C17_2 C23_2 1_555 1_555
C19_2 C25_2 1_555 1_555
C29_5 C32_5 1_555 1_555
C29_5 C35_5 1_555 1_555
C30_3 C33_3 1_555 1_555
C30_3 C36_3 1_555 1_555
C31_2 C34_2 1_555 1_555
C31_2 C37_2 1_555 1_555
C32_5 C38_5 1_555 1_555
C33_3 C39_3 1_555 1_555
C34_2 C40_2 1_555 1_555
Tb8_2 O13_2 1_555 1_555
O25_2 Tb8_2 1_555 1_555
O52_2 Tb8_2 1_555 1_555
H11_2 O52_2 1_555 1_555
H14_2 O52_2 1_555 1_555
O55_2 Tb8_2 1_555 1_555
H17_2 O55_2 1_555 1_555
H20_2 O55_2 1_555 1_555
O25_2 C24_2 1_555 1_555
H1_2 O9_2 1_555 1_555
H2_2 O9_2 1_555 1_555
H3_2 O10_2 1_555 1_555
H4_2 O10_2 1_555 1_555
O18_5 Tb14 1_555 1_555
N12_5 Tb14 1_555 1_555
H26_2 O58_2 1_555 1_555
O11_4 Tb12_2 1_555 1_555
H5_4 O11_4 1_555 1_555
H6_4 O11_4 1_555 1_555
Tb14_3 O31_2 1_555 1_555
O27_4 Tb12_2 1_555 1_555
O31_2 C36_4 1_555 1_555
O35_4 Tb12_2 1_555 1_555
O36_4 Tb12_2 1_555 1_555
O40_4 Tb14_3 1_555 1_555
O41_4 Tb12_2 1_555 1_555
O48_2 C38_6 1_555 1_555
C27_4 N17_2 1_555 1_555
H31_4 C27_4 1_555 1_555
C30_4 N24_2 1_555 1_555
C32_6 N18_2 1_555 1_555
C33_4 N17_2 1_555 1_555
C35_6 O27_4 1_555 1_555
C36_4 O36_4 1_555 1_555
C38_6 O40_4 1_555 1_555
C39_4 O41_4 1_555 1_555
Tb14_3 O35_4 1_555 1_555
Tb14_3 O36_4 1_555 1_555
O35_4 C35_6 1_555 1_555
O47_2 C39_4 1_555 1_555
N24_2 C27_4 1_555 1_555
C29_6 C32_6 1_555 1_555
C29_6 C35_6 1_555 1_555
C30_4 C33_4 1_555 1_555
C30_4 C36_4 1_555 1_555
C32_6 C38_6 1_555 1_555
C33_4 C39_4 1_555 1_555
O18_6 Tb14_2 1_555 1_555
O43_4 Tb14_2 1_555 1_555
O57_6 Tb14_2 1_555 1_555
H22_6 O57_6 1_555 1_555
H25_6 O57_6 1_555 1_555
N12_6 Tb14_2 1_555 1_555
N20_6 Tb6_6 1_555 1_555
H30_6 C26_6 1_555 1_555
N20_6 C26_6 1_555 1_555
O18_7 Tb14_3 1_555 1_555
O57_7 Tb14_3 1_555 1_555
H22_7 O57_7 1_555 1_555
H25_7 O57_7 1_555 1_555
N12_7 Tb14_3 1_555 1_555
Tb6_7 O33_2 1_555 1_555
O48_3 C38_7 1_555 1_555
N20_7 Tb6_7 1_555 1_555
C26_7 N18_3 1_555 1_555
H30_7 C26_7 1_555 1_555
C29_7 N20_7 1_555 1_555
C32_7 N18_3 1_555 1_555
C35_7 O33_2 1_555 1_555
C38_7 O43_3 1_555 1_555
O39_2 C35_7 1_555 1_555
N20_7 C26_7 1_555 1_555
C29_7 C32_7 1_555 1_555
C29_7 C35_7 1_555 1_555
C32_7 C38_7 1_555 1_555
Tb6_8 O32_2 1_555 1_555
O48_4 C38_8 1_555 1_555
N20_8 Tb6_8 1_555 1_555
C26_8 N18_4 1_555 1_555
H30_8 C26_8 1_555 1_555
C29_8 N20_8 1_555 1_555
C32_8 N18_4 1_555 1_555
C35_8 O32_2 1_555 1_555
C38_8 O43_4 1_555 1_555
O38_2 C35_8 1_555 1_555
N20_8 C26_8 1_555 1_555
C29_8 C32_8 1_555 1_555
C29_8 C35_8 1_555 1_555
C32_8 C38_8 1_555 1_555
O18_8 Tb14_4 1_555 1_555
O57_8 Tb14_4 1_555 1_555
H22_8 O57_8 1_555 1_555
H25_8 O57_8 1_555 1_555
N12_8 Tb14_4 1_555 1_555
H3_3 O10_3 1_555 1_555
H4_3 O10_3 1_555 1_555
C5_3 O4_3 1_555 1_555
Tb6_4 O13_3 1_555 1_555
O13_3 C21_3 1_555 1_555
O23 Tb6_4 1_555 1_555
N8 Tb6_4 1_555 1_555
C15_3 N12_7 1_555 1_555
C21_3 O18_7 1_555 1_555
N12_7 C12_3 1_555 1_555
C15_3 C21_3 1_555 1_555
C3_3 N1_3 1_555 1_555
Tb6_6 O3_3 1_555 1_555
O14_3 Tb6_6 1_555 1_555
O18 C22_3 1_555 1_555
O23 C25_3 1_555 1_555
O26_3 Tb6_6 1_555 1_555
O51_3 Tb6_6 1_555 1_555
H10_3 O51_3 1_555 1_555
H13_3 O51_3 1_555 1_555
O54_3 Tb6_6 1_555 1_555
H16_3 O54_3 1_555 1_555
H19_3 O54_3 1_555 1_555
C13_3 N8 1_555 1_555
C16_3 N12 1_555 1_555
C19_3 N8 1_555 1_555
C22_3 O14_3 1_555 1_555
C25_3 O26_3 1_555 1_555
N1_3 Tb6_6 1_555 1_555
N12 C13_3 1_555 1_555
C16_3 C19_3 1_555 1_555
C16_3 C22_3 1_555 1_555
C19_3 C25_3 1_555 1_555
Tb6_3 O1_3 1_555 1_555
O9_3 Tb6_3 1_555 1_555
H1_3 O9_3 1_555 1_555
H2_3 O9_3 1_555 1_555
Tb6_5 O12_3 1_555 1_555
O12_3 C20_3 1_555 1_555
O18_2 C20_3 1_555 1_555
O20_3 Tb6_3 1_555 1_555
O21_3 Tb6_5 1_555 1_555
O24_3 Tb6_5 1_555 1_555
O50_3 Tb6_5 1_555 1_555
H9_3 O50_3 1_555 1_555
H12_3 O50_3 1_555 1_555
O53_3 Tb6_5 1_555 1_555
H15_3 O53_3 1_555 1_555
H18_3 O53_3 1_555 1_555
N5_3 Tb6_3 1_555 1_555
N6_3 Tb6_5 1_555 1_555
C11_3 N5_3 1_555 1_555
C14_3 N12_2 1_555 1_555
C17_3 N5_3 1_555 1_555
C18_3 N6_3 1_555 1_555
C20_3 C14_3 1_555 1_555
C23_3 O20_3 1_555 1_555
C24_3 O21_3 1_555 1_555
O24_3 C23_3 1_555 1_555
O25_3 C24_3 1_555 1_555
N12_2 C11_3 1_555 1_555
C14_3 C17_3 1_555 1_555
C17_3 C23_3 1_555 1_555
C18_3 C24_3 1_555 1_555
O18_8 C4_3 1_555 1_555
C1_3 N12_8 1_555 1_555
C2_3 N12_8 1_555 1_555
C4_3 C2_3 1_555 1_555
H11_3 O52_3 1_555 1_555
H14_3 O52_3 1_555 1_555
H17_3 O55_3 1_555 1_555
H20_3 O55_3 1_555 1_555
H1_4 O9_4 1_555 1_555
H2_4 O9_4 1_555 1_555
H3_4 O10_4 1_555 1_555
H4_4 O10_4 1_555 1_555
Tb6_8 O13_4 1_555 1_555
O23_2 Tb6_8 1_555 1_555
O25_4 Tb6_8 1_555 1_555
O52_4 Tb6_8 1_555 1_555
H11_4 O52_4 1_555 1_555
H14_4 O52_4 1_555 1_555
O55_4 Tb6_8 1_555 1_555
H17_4 O55_4 1_555 1_555
H20_4 O55_4 1_555 1_555
N8_2 Tb6_8 1_555 1_555
O25_4 C24_4 1_555 1_555
Tb6_7 O1_4 1_555 1_555
O1_4 C4_4 1_555 1_555
O18_4 C4_4 1_555 1_555
O3_4 C5_4 1_555 1_555
O4_4 Tb6_7 1_555 1_555
N1_4 C1_4 1_555 1_555
C1_4 N12_4 1_555 1_555
H7_4 C1_4 1_555 1_555
C2_4 N12_4 1_555 1_555
C3_4 N1_4 1_555 1_555
C4_4 C2_4 1_555 1_555
C5_4 O4_4 1_555 1_555
Tb6 O12_4 1_555 1_555
Tb6_2 O3_4 1_555 1_555
O12_4 C20_4 1_555 1_555
O14_4 Tb6_2 1_555 1_555
O18_6 C20_4 1_555 1_555
O18_5 C22_4 1_555 1_555
O20_4 Tb6_7 1_555 1_555
O21_4 Tb6 1_555 1_555
O23_2 C25_4 1_555 1_555
O24_4 Tb6 1_555 1_555
O26_4 Tb6_2 1_555 1_555
O50_4 Tb6 1_555 1_555
O51_4 Tb6_2 1_555 1_555
H9_4 O50_4 1_555 1_555
H10_4 O51_4 1_555 1_555
H12_4 O50_4 1_555 1_555
H13_4 O51_4 1_555 1_555
O53_4 Tb6 1_555 1_555
O54_4 Tb6_2 1_555 1_555
H15_4 O53_4 1_555 1_555
H16_4 O54_4 1_555 1_555
H18_4 O53_4 1_555 1_555
H19_4 O54_4 1_555 1_555
N5_4 Tb6_7 1_555 1_555
N6_4 Tb6 1_555 1_555
C11_4 N5_4 1_555 1_555
C12_4 N6_4 1_555 1_555
C13_4 N8_2 1_555 1_555
H27_4 C11_4 1_555 1_555
H28_4 C12_4 1_555 1_555
H29_4 C13_4 1_555 1_555
C14_4 N12_6 1_555 1_555
C15_4 N12_3 1_555 1_555
C16_4 N12_5 1_555 1_555
C17_4 N5_4 1_555 1_555
C18_4 N6_4 1_555 1_555
C19_4 N8_2 1_555 1_555
C20_4 C14_4 1_555 1_555
C21_4 O18_3 1_555 1_555
C22_4 O14_4 1_555 1_555
C23_4 O20_4 1_555 1_555
C25_4 O26_4 1_555 1_555
N1_4 Tb6_2 1_555 1_555
C2_4 C3_4 1_555 1_555
C3_4 C5_4 1_555 1_555
O24_4 C23_4 1_555 1_555
N12_6 C11_4 1_555 1_555
N12_3 C12_4 1_555 1_555
N12_5 C13_4 1_555 1_555
C14_4 C17_4 1_555 1_555
C15_4 C18_4 1_555 1_555
C15_4 C21_4 1_555 1_555
C16_4 C19_4 1_555 1_555
C16_4 C22_4 1_555 1_555
C17_4 C23_4 1_555 1_555
C19_4 C25_4 1_555 1_555

#END
