
###############################################################################
#
# This file contains modified crystal structure data generated from the
# MOF subset of the Cambridge Structural Database (CSD) v543 
# hosted by the Cambridge Crystallographic Data Centre (CCDC).
#
# This work is licensed under the Creative Commons
# Attribution-NonCommercial-ShareAlike 4.0 International License.
# To view a copy of this license, visit
# http://creativecommons.org/licenses/by-nc-sa/4.0/
# or send a letter to
# Creative Commons, PO Box 1866, Mountain View, CA 94042, USA.
#
# CIF created using the CSD Python API on 29 September 2022
# The structure has been converted into the P1 space group
# The structure has a 3D framework
# The original CSD entry WEMCAU is in the monoclinic crystal system
# The framework has been calculated to contain at least 10.0% void space
# The void calculation uses a probe of radius 1.32A, grid spacing 0.4
# Generated hydrogen atom positions removed from atoms on special positions
#
###############################################################################

data_WEMCAU
_chemical_formula_moiety         '(C16 H12 O34 Yb4)n'
_symmetry_cell_setting           triclinic
_symmetry_space_group_name_H-M   'P 1'
_symmetry_Int_Tables_number      1
_space_group_name_Hall           'P 1'
loop_
_symmetry_equiv_pos_site_id
_symmetry_equiv_pos_as_xyz
1 x,y,z
_cell_length_a                   9.5915(19)
_cell_length_b                   11.452(2)
_cell_length_c                   12.178(2)
_cell_angle_alpha                90
_cell_angle_beta                 98.96(3)
_cell_angle_gamma                90
_cell_volume                     1321.33
loop_
_atom_site_label
_atom_site_type_symbol
_atom_site_fract_x
_atom_site_fract_y
_atom_site_fract_z
O5 O 0.1825(6) 0.0098(4) 0.0209(5)
C3 C 0.0646(8) 0.0007(4) 0.0467(6)
O20 O 0.6022(5) 0.1137(4) 0.0615(4)
Yb1 Yb 0.21574(3) 0.00984(3) 0.83351(2)
O1 O 0.1372(5) 0.2065(4) 0.8422(4)
O2 O 0.1753(5) 0.3917(4) 0.7920(4)
O3 O 0.3130(5) 0.1316(4) 0.7090(4)
O4 O 0.3630(5) 0.3159(4) 0.6688(4)
O9 O 0.0586(7) 0.0163(4) 0.6592(5)
H1 H 0.0521 0.0837 0.6363
C1 C 0.1951(7) 0.2836(5) 0.7913(5)
C2 C 0.3000(6) 0.2393(5) 0.7160(5)
Yb3 Yb 0.28426(3) 0.50984(3) 0.66649(2)
O10 O 0.3628(5) 0.7065(4) 0.6578(4)
O13 O 0.1870(5) 0.6316(4) 0.7910(4)
O17 O 0.3175(6) 0.5098(4) 0.4791(5)
O19 O 0.5327(6) 0.5060(3) 0.6447(4)
O21 O 0.1022(5) 0.3863(4) 0.5615(4)
O22 O 0.4102(5) 0.1178(4) 0.9314(4)
O23 O 0.0898(5) 0.6178(4) 0.5686(4)
O24 O 0.4414(7) 0.5163(4) 0.8408(5)
C8 C 0.5029(5) 0.0666(7) 0.9987(4)
O6 O 0.0327(6) 0.9940(3) 0.1447(4)
O8 O 0.5898(5) 0.8822(4) 0.0686(4)
C4 C 0.4971(5) 0.9334(7) 0.0013(4)
Yb4 Yb 0.78426(3) 0.99016(3) 0.16649(2)
O7 O 0.3978(5) 0.8863(4) 0.9385(4)
H2 H 0.0905 0.9731 0.6120
O12 O 0.3247(5) 0.8917(4) 0.7080(4)
O15 O 0.1370(5) 0.8159(4) 0.8312(4)
C5 C 0.3049(7) 0.7836(5) 0.7087(5)
C6 C 0.2000(6) 0.7393(5) 0.7840(5)
O18 O 0.9673(6) 0.0060(3) 0.8553(4)
H3 H 0.9777 0.9918 0.6688
O16 O 0.8175(6) 0.9902(4) 0.9791(5)
C7 C 0.9354(8) 0.9993(4) 0.9533(6)
O6_2 O 0.4673(6) 0.4940(3) 0.3553(4)
C3_2 C 0.4354(8) 0.5007(4) 0.4533(6)
C4_2 C 0.0029(5) 0.4334(7) 0.4987(4)
Yb2 Yb 0.71574(3) 0.49016(3) 0.33351(2)
O16_2 O 0.6825(6) 0.4902(4) 0.5209(5)
C7_2 C 0.5646(8) 0.4993(4) 0.5467(6)
O8_2 O 0.9102(5) 0.3822(4) 0.4314(4)
O20_2 O 0.8978(5) 0.6137(4) 0.4385(4)
C8_2 C 0.9971(5) 0.5666(7) 0.5013(4)
H3_2 H 0.0223 0.0082 0.3312
H2_2 H 0.9095 0.0269 0.3880
O11 O 0.6372(5) 0.2935(4) 0.3422(4)
O12_2 O 0.6753(5) 0.1083(4) 0.2920(4)
O14 O 0.8130(5) 0.3684(4) 0.2090(4)
O15_2 O 0.8630(5) 0.1841(4) 0.1688(4)
C5_2 C 0.6951(7) 0.2164(5) 0.2913(5)
C6_2 C 0.8000(6) 0.2607(5) 0.2160(5)
O1_2 O 0.8628(5) 0.7935(4) 0.1578(4)
O2_2 O 0.8247(5) 0.6083(4) 0.2080(4)
O3_2 O 0.6870(5) 0.8684(4) 0.2910(4)
O4_2 O 0.6370(5) 0.6841(4) 0.3312(4)
O9_2 O 0.9414(7) 0.9837(4) 0.3408(5)
H1_2 H 0.9479 0.9163 0.3637
C1_2 C 0.8049(7) 0.7164(5) 0.2087(5)
C2_2 C 0.7000(6) 0.7607(5) 0.2840(5)
O24_2 O 0.5586(7) 0.4837(4) 0.1592(5)
loop_
_geom_bond_atom_site_label_1
_geom_bond_atom_site_label_2
_geom_bond_site_symmetry_1
_geom_bond_site_symmetry_2
C3 O5 1_555 1_555
Yb1 O1 1_555 1_555
O1 C1 1_555 1_555
O2 C1 1_555 1_555
O3 Yb1 1_555 1_555
O4 C2 1_555 1_555
O9 Yb1 1_555 1_555
H1 O9 1_555 1_555
C1 C2 1_555 1_555
C2 O3 1_555 1_555
Yb3 O2 1_555 1_555
O10 Yb3 1_555 1_555
O13 Yb3 1_555 1_555
O17 Yb3 1_555 1_555
O19 Yb3 1_555 1_555
O21 Yb3 1_555 1_555
O22 Yb1 1_555 1_555
O23 Yb3 1_555 1_555
O24 Yb3 1_555 1_555
O4 Yb3 1_555 1_555
O22 C8 1_555 1_555
O8 C4 1_555 1_555
Yb4 O8 1_555 1_555
O10 C5 1_555 1_555
C5 O12 1_555 1_555
C6 O13 1_555 1_555
O15 C6 1_555 1_555
C5 C6 1_555 1_555
O16 C7 1_555 1_555
O6_2 C3_2 1_555 1_555
C3_2 O17 1_555 1_555
C4_2 O21 1_555 1_555
Yb2 O6_2 1_555 1_555
O16_2 Yb2 1_555 1_555
C7_2 C3_2 1_555 1_555
O16_2 C7_2 1_555 1_555
O19 C7_2 1_555 1_555
Yb2 O8_2 1_555 1_555
O20_2 Yb2 1_555 1_555
O20_2 C8_2 1_555 1_555
Yb2 O11 1_555 1_555
O11 C5_2 1_555 1_555
O14 Yb2 1_555 1_555
C5_2 O12_2 1_555 1_555
C6_2 O14 1_555 1_555
O15_2 C6_2 1_555 1_555
C5_2 C6_2 1_555 1_555
Yb4 O1_2 1_555 1_555
O1_2 C1_2 1_555 1_555
O2_2 C1_2 1_555 1_555
O3_2 Yb4 1_555 1_555
O4_2 C2_2 1_555 1_555
O9_2 Yb4 1_555 1_555
H1_2 O9_2 1_555 1_555
C1_2 C2_2 1_555 1_555
C2_2 O3_2 1_555 1_555
Yb2 O2_2 1_555 1_555
O24_2 Yb2 1_555 1_555
O4_2 Yb2 1_555 1_555

#END
