
###############################################################################
#
# This file contains modified crystal structure data generated from the
# MOF subset of the Cambridge Structural Database (CSD) v543 
# hosted by the Cambridge Crystallographic Data Centre (CCDC).
#
# This work is licensed under the Creative Commons
# Attribution-NonCommercial-ShareAlike 4.0 International License.
# To view a copy of this license, visit
# http://creativecommons.org/licenses/by-nc-sa/4.0/
# or send a letter to
# Creative Commons, PO Box 1866, Mountain View, CA 94042, USA.
#
# CIF created using the CSD Python API on 29 September 2022
# The structure has been converted into the P1 space group
# The structure has a 3D framework
# The original CSD entry WEMDID is in the monoclinic crystal system
# The framework has been calculated to contain at least 10.0% void space
# The void calculation uses a probe of radius 1.32A, grid spacing 0.4
#
###############################################################################

data_WEMDID
_chemical_formula_moiety         '(C16 H12 Nd4 O35)n'
_symmetry_cell_setting           triclinic
_symmetry_space_group_name_H-M   'P 1'
_symmetry_Int_Tables_number      1
_space_group_name_Hall           'P 1'
loop_
_symmetry_equiv_pos_site_id
_symmetry_equiv_pos_as_xyz
1 x,y,z
_cell_length_a                   9.7166(19)
_cell_length_b                   11.926(2)
_cell_length_c                   12.380(3)
_cell_angle_alpha                90
_cell_angle_beta                 99.42(3)
_cell_angle_gamma                90
_cell_volume                     1415.25
loop_
_atom_site_label
_atom_site_type_symbol
_atom_site_fract_x
_atom_site_fract_y
_atom_site_fract_z
Nd1 Nd 0.21288(2) 0.481461(17) 0.329260(17)
O3 O 0.6004(4) 0.3937(3) 0.5701(3)
O4 O 0.4189(3) 0.3817(3) 0.4347(3)
O5 O 0.3051(3) 0.3542(2) 0.2034(3)
O6 O 0.3677(3) 0.1780(2) 0.1743(3)
O7 O 0.1410(4) 0.2805(3) 0.3439(3)
O8 O 0.1898(4) 0.1034(3) 0.3037(3)
O9 O 0.0404(4) 0.4740(3) 0.1505(3)
H3 H 0.0846 0.4757 0.0967
C2 C 0.5060(4) 0.4358(4) 0.5018(4)
C3 C 0.3008(4) 0.2506(3) 0.2178(3)
C4 C 0.2015(4) 0.2071(3) 0.2958(3)
Nd4 Nd 0.78712(2) 0.518539(17) 0.670740(17)
Nd5 Nd 0.28712(2) 0.981461(17) 0.170740(17)
O10 O 0.1810(3) 0.4868(3) 0.5230(3)
O11 O 0.0346(3) 0.5180(3) 0.6412(2)
O12 O 0.3996(4) 0.6063(3) 0.4299(3)
O14 O 0.5811(3) 0.6183(3) 0.5653(3)
O17 O 0.1949(3) 0.8542(2) 0.2966(3)
O18 O 0.1323(3) 0.6780(2) 0.3257(3)
O21 O 0.3590(4) 0.7805(3) 0.1561(3)
O22 O 0.3102(4) 0.6034(3) 0.1963(3)
H4 H 0.0065 0.5864 0.8515
H5 H 0.0145 0.4702 0.8531
C5 C 0.0625(5) 0.5017(4) 0.5472(4)
C6 C 0.4940(4) 0.5642(4) 0.4982(4)
C7 C 0.1992(4) 0.7506(3) 0.2822(3)
C8 C 0.2985(4) 0.7071(3) 0.2042(3)
O1 O 0.8190(3) 0.5132(3) 0.4770(3)
O2 O 0.9654(3) 0.4820(3) 0.3588(2)
H1 H 0.9935 0.4136 0.1485
H2 H 0.9855 0.5298 0.1469
C1 C 0.9375(5) 0.4983(4) 0.4528(4)
O16 O 0.6949(3) 0.6458(2) 0.7966(3)
O19 O 0.8677(3) 0.3220(2) 0.6743(3)
O20 O 0.8590(4) 0.7195(3) 0.6561(3)
O23 O 0.6898(4) 0.3966(3) 0.8037(3)
O24 O 0.9596(4) 0.5260(3) 0.8495(3)
H6 H 0.9154 0.5243 0.9033
O1_2 O 0.6810(3) 0.0132(3) 0.0230(3)
H2_2 H 0.5145 0.0298 0.3531
O12_2 O 0.1004(4) 0.1063(3) 0.0701(3)
C6_2 C 0.0060(4) 0.0642(4) 0.0018(4)
Nd2 Nd 0.71288(2) 0.018539(17) 0.829260(17)
O11_2 O 0.4654(3) 0.0180(3) 0.8588(2)
O15 O 0.9189(3) 0.1183(3) 0.9347(3)
O16_2 O 0.8051(3) 0.1458(2) 0.7034(3)
O20_2 O 0.6410(4) 0.2195(3) 0.8439(3)
O24_2 O 0.5404(4) 0.0260(3) 0.6505(3)
H4_2 H 0.4935 0.0864 0.6485
H6_2 H 0.5846 0.0243 0.5967
C5_2 C 0.4375(5) 0.0017(4) 0.9528(4)
O2_2 O 0.5346(3) 0.9820(3) 0.1412(2)
O4_2 O 0.0811(3) 0.8817(3) 0.0653(3)
O9_2 O 0.4596(4) 0.9740(3) 0.3495(3)
H1_2 H 0.5065 0.9136 0.3515
H3_2 H 0.4154 0.9757 0.4033
C1_2 C 0.5625(5) 0.9983(4) 0.0472(4)
O10_2 O 0.3190(3) 0.9868(3) 0.9770(3)
O13 O 0.8996(4) 0.8937(3) 0.9299(3)
O19_2 O 0.6323(3) 0.8220(2) 0.8257(3)
O23_2 O 0.8102(4) 0.8966(3) 0.6963(3)
H5_2 H 0.4855 0.9702 0.6469
C2_2 C 0.9940(4) 0.9358(4) 0.9982(4)
C3_2 C 0.6992(4) 0.7494(3) 0.7822(3)
C4_2 C 0.7985(4) 0.7929(3) 0.7042(3)
C7_2 C 0.8008(4) 0.2494(3) 0.7178(3)
C8_2 C 0.7015(4) 0.2929(3) 0.7958(3)
loop_
_geom_bond_atom_site_label_1
_geom_bond_atom_site_label_2
_geom_bond_site_symmetry_1
_geom_bond_site_symmetry_2
O3 C2 1_555 1_555
O4 Nd1 1_555 1_555
O5 Nd1 1_555 1_555
O6 C3 1_555 1_555
O7 Nd1 1_555 1_555
O8 C4 1_555 1_555
O9 Nd1 1_555 1_555
H3 O9 1_555 1_555
C2 O4 1_555 1_555
C3 O5 1_555 1_555
C4 O7 1_555 1_555
Nd4 O3 1_555 1_555
Nd5 O17 1_555 1_555
O10 Nd1 1_555 1_555
O12 Nd1 1_555 1_555
O14 Nd4 1_555 1_555
O17 C7 1_555 1_555
O18 Nd1 1_555 1_555
O21 Nd5 1_555 1_555
O22 Nd1 1_555 1_555
C5 O10 1_555 1_555
C6 C2 1_555 1_555
C7 O18 1_555 1_555
C8 O21 1_555 1_555
C3 C4 1_555 1_555
O11 C5 1_555 1_555
O12 C6 1_555 1_555
O14 C6 1_555 1_555
O22 C8 1_555 1_555
C7 C8 1_555 1_555
O1 C1 1_555 1_555
O2 C1 1_555 1_555
Nd4 O1 1_555 1_555
O16 Nd4 1_555 1_555
O19 Nd4 1_555 1_555
O20 Nd4 1_555 1_555
O23 Nd4 1_555 1_555
O24 Nd4 1_555 1_555
H6 O24 1_555 1_555
O12_2 C6_2 1_555 1_555
O11_2 Nd2 1_555 1_555
O15 Nd2 1_555 1_555
O16_2 Nd2 1_555 1_555
O20_2 Nd2 1_555 1_555
O24_2 Nd2 1_555 1_555
H4_2 O24_2 1_555 1_555
H6_2 O24_2 1_555 1_555
O11_2 C5_2 1_555 1_555
Nd5 O2_2 1_555 1_555
O2_2 C1_2 1_555 1_555
O4_2 Nd5 1_555 1_555
O9_2 Nd5 1_555 1_555
H1_2 O9_2 1_555 1_555
H3_2 O9_2 1_555 1_555
O13 C2_2 1_555 1_555
O19_2 C3_2 1_555 1_555
O23_2 C4_2 1_555 1_555
C3_2 O16 1_555 1_555
C4_2 O20 1_555 1_555
O16_2 C7_2 1_555 1_555
C7_2 O19 1_555 1_555
C8_2 O20_2 1_555 1_555
C3_2 C4_2 1_555 1_555
O23 C8_2 1_555 1_555
C7_2 C8_2 1_555 1_555

#END
