
###############################################################################
#
# This file contains modified crystal structure data generated from the
# MOF subset of the Cambridge Structural Database (CSD) v543 
# hosted by the Cambridge Crystallographic Data Centre (CCDC).
#
# This work is licensed under the Creative Commons
# Attribution-NonCommercial-ShareAlike 4.0 International License.
# To view a copy of this license, visit
# http://creativecommons.org/licenses/by-nc-sa/4.0/
# or send a letter to
# Creative Commons, PO Box 1866, Mountain View, CA 94042, USA.
#
# CIF created using the CSD Python API on 29 September 2022
# The structure has been converted into the P1 space group
# The structure has a 3D framework
# The original CSD entry WEMDUP is in the monoclinic crystal system
# The framework has been calculated to contain at least 10.0% void space
# The void calculation uses a probe of radius 1.32A, grid spacing 0.4
# Generated hydrogen atom positions removed from atoms on special positions
#
###############################################################################

data_WEMDUP
_chemical_formula_moiety         '(C16 H12 Eu4 O33)n'
_symmetry_cell_setting           triclinic
_symmetry_space_group_name_H-M   'P 1'
_symmetry_Int_Tables_number      1
_space_group_name_Hall           'P 1'
loop_
_symmetry_equiv_pos_site_id
_symmetry_equiv_pos_as_xyz
1 x,y,z
_cell_length_a                   9.6661(19)
_cell_length_b                   11.737(2)
_cell_length_c                   12.315(3)
_cell_angle_alpha                90
_cell_angle_beta                 99.24(3)
_cell_angle_gamma                90
_cell_volume                     1379.02
loop_
_atom_site_label
_atom_site_type_symbol
_atom_site_fract_x
_atom_site_fract_y
_atom_site_fract_z
O1 O 0.3159(4) 0.1049(3) 0.2000(3)
O2 O 0.3597(4) 0.2845(3) 0.1558(3)
O3 O 0.1345(3) 0.1803(3) 0.3278(3)
O4 O 0.1923(3) 0.3590(3) 0.2944(3)
O7 O 0.3984(3) 0.1091(3) 0.4329(3)
O8 O 0.5840(3) 0.1180(3) 0.5662(3)
H2 H 0.0823 0.0133 0.1052
C1 C 0.3010(4) 0.2100(4) 0.2054(4)
C2 C 0.1998(4) 0.2539(3) 0.2828(3)
C4 C 0.4950(4) 0.0654(4) 0.4999(3)
Eu3 Eu 0.28615(2) 0.484423(16) 0.169073(16)
Eu4 Eu 0.78615(2) 0.015577(16) 0.669073(16)
O10 O 0.1841(4) 0.6049(3) 0.3000(3)
O13 O 0.3655(3) 0.6803(3) 0.1722(3)
O16 O 0.0341(4) 0.0140(3) 0.6428(3)
O17 O 0.5341(4) 0.4860(3) 0.1428(3)
O21 O 0.1016(3) 0.6091(3) 0.0671(3)
O23 O 0.0840(3) 0.3820(3) 0.0662(3)
O24 O 0.4520(4) 0.4769(3) 0.3457(3)
C7 C 0.0629(5) 0.0004(3) 0.5471(4)
O19 O 0.3183(4) 0.4874(3) 0.9777(3)
Eu1 Eu 0.21385(2) 0.984423(16) 0.330927(16)
O9 O 0.0480(4) 0.9769(3) 0.1543(3)
H3 H 0.0345 0.9079 0.1344
O12 O 0.1403(4) 0.7845(3) 0.3442(3)
O15 O 0.3077(3) 0.8590(3) 0.2056(3)
O18 O 0.1817(4) 0.9874(3) 0.5223(3)
O20 O 0.6016(3) 0.8909(3) 0.5671(3)
O22 O 0.4160(3) 0.8820(3) 0.4338(3)
C5 C 0.1990(4) 0.7100(4) 0.2946(4)
C6 C 0.3002(4) 0.7539(3) 0.2172(3)
C8 C 0.5050(4) 0.9346(4) 0.5001(3)
O6 O 0.8183(4) 0.0126(3) 0.4777(3)
H1 H 0.9704 0.0069 0.1629
O5 O 0.9659(4) 0.9860(3) 0.3572(3)
C3 C 0.9371(5) 0.9996(3) 0.4529(4)
O6_2 O 0.6817(4) 0.5126(3) 0.0223(3)
C3_2 C 0.5629(5) 0.4996(3) 0.0471(4)
C4_2 C 0.0050(4) 0.5654(4) 0.0001(3)
Eu2 Eu 0.71385(2) 0.515577(16) 0.830927(16)
O16_2 O 0.4659(4) 0.5140(3) 0.8572(3)
C7_2 C 0.4371(5) 0.5004(3) 0.9529(4)
O8_2 O 0.9160(3) 0.6180(3) 0.9338(3)
O20_2 O 0.8984(3) 0.3909(3) 0.9329(3)
C8_2 C 0.9950(4) 0.4346(4) 0.9999(3)
H1_2 H 0.0296 0.9931 0.8371
O9_2 O 0.9520(4) 0.0231(3) 0.8457(3)
H3_2 H 0.9655 0.0921 0.8656
O11 O 0.8159(4) 0.3951(3) 0.7000(3)
O12_2 O 0.8597(4) 0.2155(3) 0.6558(3)
O14 O 0.6345(3) 0.3197(3) 0.8278(3)
O15_2 O 0.6923(3) 0.1410(3) 0.7944(3)
C5_2 C 0.8010(4) 0.2900(4) 0.7054(4)
C6_2 C 0.6998(4) 0.2461(3) 0.7828(3)
O1_2 O 0.6841(4) 0.8951(3) 0.8000(3)
O2_2 O 0.6403(4) 0.7155(3) 0.8442(3)
O3_2 O 0.8655(3) 0.8197(3) 0.6722(3)
O4_2 O 0.8077(3) 0.6410(3) 0.7056(3)
H2_2 H 0.9177 0.9867 0.8948
C1_2 C 0.6990(4) 0.7900(4) 0.7946(4)
C2_2 C 0.8002(4) 0.7461(3) 0.7172(3)
O24_2 O 0.5480(4) 0.5231(3) 0.6543(3)
loop_
_geom_bond_atom_site_label_1
_geom_bond_atom_site_label_2
_geom_bond_site_symmetry_1
_geom_bond_site_symmetry_2
O1 C1 1_555 1_555
O2 C1 1_555 1_555
O4 C2 1_555 1_555
O8 C4 1_555 1_555
C1 C2 1_555 1_555
C2 O3 1_555 1_555
C4 O7 1_555 1_555
Eu3 O2 1_555 1_555
Eu4 O8 1_555 1_555
O10 Eu3 1_555 1_555
O13 Eu3 1_555 1_555
O17 Eu3 1_555 1_555
O21 Eu3 1_555 1_555
O23 Eu3 1_555 1_555
O24 Eu3 1_555 1_555
O4 Eu3 1_555 1_555
O16 C7 1_555 1_555
O9 Eu1 1_555 1_555
H3 O9 1_555 1_555
O10 C5 1_555 1_555
O12 Eu1 1_555 1_555
O15 Eu1 1_555 1_555
O18 Eu1 1_555 1_555
O22 Eu1 1_555 1_555
C5 O12 1_555 1_555
C6 O13 1_555 1_555
O15 C6 1_555 1_555
O20 C8 1_555 1_555
O22 C8 1_555 1_555
C5 C6 1_555 1_555
Eu4 O6 1_555 1_555
C3 O5 1_555 1_555
O6_2 C3_2 1_555 1_555
C3_2 O17 1_555 1_555
C4_2 O21 1_555 1_555
O16_2 Eu2 1_555 1_555
O16_2 C7_2 1_555 1_555
O19 C7_2 1_555 1_555
Eu2 O8_2 1_555 1_555
O20_2 Eu2 1_555 1_555
O20_2 C8_2 1_555 1_555
O9_2 Eu4 1_555 1_555
H3_2 O9_2 1_555 1_555
Eu2 O11 1_555 1_555
O11 C5_2 1_555 1_555
O12_2 Eu4 1_555 1_555
O14 Eu2 1_555 1_555
O15_2 Eu4 1_555 1_555
C5_2 O12_2 1_555 1_555
C6_2 O14 1_555 1_555
O15_2 C6_2 1_555 1_555
C5_2 C6_2 1_555 1_555
O1_2 C1_2 1_555 1_555
O2_2 C1_2 1_555 1_555
O4_2 C2_2 1_555 1_555
C1_2 C2_2 1_555 1_555
C2_2 O3_2 1_555 1_555
Eu2 O2_2 1_555 1_555
O24_2 Eu2 1_555 1_555
O4_2 Eu2 1_555 1_555

#END
