
###############################################################################
#
# This file contains modified crystal structure data generated from the
# MOF subset of the Cambridge Structural Database (CSD) v543 
# hosted by the Cambridge Crystallographic Data Centre (CCDC).
#
# This work is licensed under the Creative Commons
# Attribution-NonCommercial-ShareAlike 4.0 International License.
# To view a copy of this license, visit
# http://creativecommons.org/licenses/by-nc-sa/4.0/
# or send a letter to
# Creative Commons, PO Box 1866, Mountain View, CA 94042, USA.
#
# CIF created using the CSD Python API on 29 September 2022
# The structure has been converted into the P1 space group
# The structure has a 3D framework
# The original CSD entry WEMFEB is in the monoclinic crystal system
# The framework has been calculated to contain at least 10.0% void space
# The void calculation uses a probe of radius 1.32A, grid spacing 0.4
# Generated hydrogen atom positions removed from atoms on special positions
#
###############################################################################

data_WEMFEB
_chemical_formula_moiety         '(C16 H12 O35 Tb4)n'
_symmetry_cell_setting           triclinic
_symmetry_space_group_name_H-M   'P 1'
_symmetry_Int_Tables_number      1
_space_group_name_Hall           'P 1'
loop_
_symmetry_equiv_pos_site_id
_symmetry_equiv_pos_as_xyz
1 x,y,z
_cell_length_a                   9.6515(19)
_cell_length_b                   11.655(2)
_cell_length_c                   12.264(3)
_cell_angle_alpha                90
_cell_angle_beta                 99.14(3)
_cell_angle_gamma                90
_cell_volume                     1362.04
loop_
_atom_site_label
_atom_site_type_symbol
_atom_site_fract_x
_atom_site_fract_y
_atom_site_fract_z
O18 O 0.1824(3) 0.0114(3) 0.0220(3)
Tb3 Tb 0.21437(2) 0.013862(17) 0.831961(18)
O10 O 0.1386(4) 0.2131(3) 0.8437(3)
O16 O 0.4139(4) 0.1182(3) 0.9332(3)
O22 O 0.3089(3) 0.1382(3) 0.7063(3)
O24 O 0.0506(4) 0.0208(3) 0.6557(3)
H4 H 0.0031 0.0824 0.6526
H5 H 0.0968 0.0188 0.6022
Tb1 Tb 0.28563(2) 0.513862(17) 0.668039(18)
O1 O 0.3614(4) 0.7131(3) 0.6563(3)
O2 O 0.3188(4) 0.8943(3) 0.7021(3)
O3 O 0.1022(4) 0.3892(3) 0.5649(3)
O5 O 0.3176(3) 0.5114(3) 0.4780(3)
O6 O 0.4671(3) 0.4885(3) 0.3569(3)
O7 O 0.1348(3) 0.8182(3) 0.8285(3)
O8 O 0.1911(3) 0.6382(3) 0.7937(3)
O9 O 0.4494(4) 0.5208(3) 0.8443(3)
C1 C 0.3021(5) 0.7875(4) 0.7063(4)
C2 C 0.0045(5) 0.4343(4) 0.4996(4)
C3 C 0.4375(5) 0.4999(4) 0.4519(4)
C4 C 0.2007(5) 0.7437(4) 0.7835(4)
Tb4 Tb 0.71437(2) 0.486138(17) 0.331961(18)
O12 O 0.1812(4) 0.3943(3) 0.7979(3)
O14 O 0.3978(4) 0.8892(3) 0.9351(3)
O15 O 0.0861(4) 0.6182(3) 0.5668(3)
O17 O 0.6824(3) 0.4886(3) 0.5220(3)
O19 O 0.5329(3) 0.5115(3) 0.6431(3)
O21 O 0.3652(3) 0.3182(3) 0.6715(3)
C5 C 0.1979(5) 0.2875(4) 0.7937(4)
C7 C 0.5625(5) 0.5001(4) 0.5481(4)
C8 C 0.2993(5) 0.2437(4) 0.7165(4)
O20 O 0.9671(3) 0.0115(3) 0.8569(3)
O4 O 0.9139(4) 0.3818(3) 0.4332(3)
O13 O 0.8978(4) 0.6108(3) 0.4351(3)
H6 H 0.9955 0.9635 0.6516
C6 C 0.9955(5) 0.5657(4) 0.5004(4)
O13_2 O 0.6022(4) 0.1108(3) 0.0649(3)
C6_2 C 0.5045(5) 0.0657(4) 0.9996(4)
O4_2 O 0.5861(4) 0.8818(3) 0.0668(3)
O6_2 O 0.0329(3) 0.9885(3) 0.1431(3)
C2_2 C 0.4955(5) 0.9343(4) 0.0004(4)
C3_2 C 0.0625(5) 0.9999(4) 0.0481(4)
Tb2 Tb 0.78563(2) 0.986138(17) 0.168039(18)
C7_2 C 0.9375(5) 0.0001(4) 0.9519(4)
O17_2 O 0.8176(3) 0.9886(3) 0.9780(3)
H6_2 H 0.0045 0.0365 0.3484
O1_2 O 0.6386(4) 0.2869(3) 0.3437(3)
O2_2 O 0.6812(4) 0.1057(3) 0.2979(3)
O7_2 O 0.8652(3) 0.1818(3) 0.1715(3)
O8_2 O 0.8089(3) 0.3618(3) 0.2063(3)
O9_2 O 0.5506(4) 0.4792(3) 0.1557(3)
C1_2 C 0.6979(5) 0.2125(4) 0.2937(4)
C4_2 C 0.7993(5) 0.2563(4) 0.2165(4)
O11 O 0.8614(4) 0.7869(3) 0.1563(3)
O12_2 O 0.8188(4) 0.6057(3) 0.2021(3)
O21_2 O 0.6348(3) 0.6818(3) 0.3285(3)
O23 O 0.6911(3) 0.8618(3) 0.2937(3)
C5_2 C 0.8021(5) 0.7125(4) 0.2063(4)
C8_2 C 0.7007(5) 0.7563(4) 0.2835(4)
O24_2 O 0.9494(4) 0.9792(3) 0.3443(3)
H4_2 H 0.9969 0.9176 0.3474
H5_2 H 0.9032 0.9812 0.3978
loop_
_geom_bond_atom_site_label_1
_geom_bond_atom_site_label_2
_geom_bond_site_symmetry_1
_geom_bond_site_symmetry_2
O10 Tb3 1_555 1_555
O16 Tb3 1_555 1_555
O22 Tb3 1_555 1_555
O24 Tb3 1_555 1_555
H4 O24 1_555 1_555
H5 O24 1_555 1_555
Tb1 O1 1_555 1_555
O1 C1 1_555 1_555
O2 C1 1_555 1_555
O3 Tb1 1_555 1_555
O5 Tb1 1_555 1_555
O6 C3 1_555 1_555
O7 C4 1_555 1_555
O8 Tb1 1_555 1_555
O9 Tb1 1_555 1_555
C1 C4 1_555 1_555
C2 O3 1_555 1_555
C3 O5 1_555 1_555
C4 O8 1_555 1_555
Tb4 O6 1_555 1_555
O10 C5 1_555 1_555
O12 Tb1 1_555 1_555
O15 Tb1 1_555 1_555
O17 Tb4 1_555 1_555
O19 Tb1 1_555 1_555
O21 Tb1 1_555 1_555
C5 O12 1_555 1_555
C7 C3 1_555 1_555
C8 O21 1_555 1_555
O17 C7 1_555 1_555
O19 C7 1_555 1_555
O22 C8 1_555 1_555
C5 C8 1_555 1_555
Tb4 O4 1_555 1_555
O13 Tb4 1_555 1_555
O13 C6 1_555 1_555
O16 C6_2 1_555 1_555
O4_2 C2_2 1_555 1_555
O6_2 C3_2 1_555 1_555
Tb2 O4_2 1_555 1_555
O20 C7_2 1_555 1_555
Tb4 O1_2 1_555 1_555
O1_2 C1_2 1_555 1_555
O2_2 C1_2 1_555 1_555
O7_2 C4_2 1_555 1_555
O8_2 Tb4 1_555 1_555
O9_2 Tb4 1_555 1_555
C1_2 C4_2 1_555 1_555
C4_2 O8_2 1_555 1_555
Tb2 O11 1_555 1_555
O11 C5_2 1_555 1_555
O12_2 Tb4 1_555 1_555
O21_2 Tb4 1_555 1_555
O23 Tb2 1_555 1_555
C5_2 O12_2 1_555 1_555
C8_2 O21_2 1_555 1_555
O23 C8_2 1_555 1_555
C5_2 C8_2 1_555 1_555
O24_2 Tb2 1_555 1_555
H4_2 O24_2 1_555 1_555
H5_2 O24_2 1_555 1_555

#END
