
###############################################################################
#
# This file contains modified crystal structure data generated from the
# MOF subset of the Cambridge Structural Database (CSD) v543 
# hosted by the Cambridge Crystallographic Data Centre (CCDC).
#
# This work is licensed under the Creative Commons
# Attribution-NonCommercial-ShareAlike 4.0 International License.
# To view a copy of this license, visit
# http://creativecommons.org/licenses/by-nc-sa/4.0/
# or send a letter to
# Creative Commons, PO Box 1866, Mountain View, CA 94042, USA.
#
# CIF created using the CSD Python API on 29 September 2022
# The structure has been converted into the P1 space group
# The structure has a 3D framework
# The original CSD entry WEMFOL is in the monoclinic crystal system
# The framework has been calculated to contain at least 10.0% void space
# The void calculation uses a probe of radius 1.32A, grid spacing 0.4
#
###############################################################################

data_WEMFOL
_chemical_formula_moiety         '(C16 H12 Ho4 O31)n'
_symmetry_cell_setting           triclinic
_symmetry_space_group_name_H-M   'P 1'
_symmetry_Int_Tables_number      1
_space_group_name_Hall           'P 1'
loop_
_symmetry_equiv_pos_site_id
_symmetry_equiv_pos_as_xyz
1 x,y,z
_cell_length_a                   9.6205(19)
_cell_length_b                   11.564(2)
_cell_length_c                   12.229(2)
_cell_angle_alpha                90
_cell_angle_beta                 99.04(3)
_cell_angle_gamma                90
_cell_volume                     1343.6
loop_
_atom_site_label
_atom_site_type_symbol
_atom_site_fract_x
_atom_site_fract_y
_atom_site_fract_z
O4 O 0.5878(4) 0.6179(3) 0.0671(3)
C2 C 0.4958(5) 0.5662(4) 0.0014(4)
Ho4 Ho 0.78498(2) 0.512381(15) 0.167150(15)
O13 O 0.6030(4) 0.3878(3) 0.0627(3)
O20 O 0.1821(4) 0.4887(3) 0.0221(3)
O22 O 0.0326(4) 0.5093(3) 0.1435(3)
C8 C 0.0627(5) 0.4999(3) 0.0477(4)
Ho1 Ho 0.21502(2) 0.487619(15) 0.832850(15)
O1 O 0.3113(4) 0.3646(2) 0.7075(3)
O2 O 0.3644(4) 0.1821(3) 0.6707(3)
O3 O 0.3970(4) 0.6122(3) 0.9373(3)
O5 O 0.1787(4) 0.1066(3) 0.7955(3)
O6 O 0.1382(4) 0.2892(3) 0.8437(3)
O9 O 0.0539(4) 0.4807(3) 0.6574(3)
H1 H 0.0061 0.4186 0.6536
H3 H 0.1010 0.4830 0.6041
C1 C 0.2990(5) 0.2571(3) 0.7170(4)
C3 C 0.1967(5) 0.2140(3) 0.7923(4)
Ho5 Ho 0.28498(2) 0.987619(15) 0.667150(15)
O11 O 0.1887(4) 0.8646(2) 0.7925(3)
O12 O 0.1356(4) 0.6821(3) 0.8293(3)
O14 O 0.1030(4) 0.1122(3) 0.5627(3)
O15 O 0.4122(4) 0.3821(3) 0.9329(3)
O17 O 0.3213(4) 0.6066(3) 0.7045(3)
O19 O 0.3618(4) 0.7892(3) 0.6563(3)
H5 H 0.5013 0.0385 0.8468
C5 C 0.2010(5) 0.7571(3) 0.7830(4)
C6 C 0.5042(5) 0.4338(4) 0.9986(4)
C7 C 0.3033(5) 0.7140(3) 0.7077(4)
O16 O 0.0878(4) 0.8821(3) 0.5671(3)
O21 O 0.3179(4) 0.9887(3) 0.4779(3)
O23 O 0.5326(4) 0.9907(3) 0.6435(3)
O24 O 0.4461(4) 0.9807(3) 0.8426(3)
H4 H 0.4939 0.9186 0.8464
H6 H 0.3990 0.9830 0.8959
O7 O 0.8179(4) 0.5113(3) 0.9779(3)
O8 O 0.9674(4) 0.4907(3) 0.8565(3)
H2 H 0.9987 0.5385 0.6532
C4 C 0.9373(5) 0.5001(3) 0.9523(4)
O7_2 O 0.6821(4) 0.0113(3) 0.5221(3)
C2_2 C 0.0042(5) 0.0662(4) 0.4986(4)
C4_2 C 0.5627(5) 0.0001(3) 0.5477(4)
Ho2 Ho 0.71502(2) 0.012381(15) 0.332850(15)
O22_2 O 0.4674(4) 0.0093(3) 0.3565(3)
C8_2 C 0.4373(5) 0.9999(3) 0.4523(4)
O4_2 O 0.9122(4) 0.1179(3) 0.4329(3)
O13_2 O 0.8970(4) 0.8878(3) 0.4373(3)
C6_2 C 0.9958(5) 0.9338(4) 0.5014(4)
H2_2 H 0.0013 0.4615 0.3468
O10 O 0.8113(4) 0.1354(2) 0.2075(3)
O18 O 0.6382(4) 0.2108(3) 0.3437(3)
O24_2 O 0.5539(4) 0.0193(3) 0.1574(3)
H4_2 H 0.5061 0.0814 0.1536
H6_2 H 0.6010 0.0170 0.1041
O1_2 O 0.6887(4) 0.6354(2) 0.2925(3)
O2_2 O 0.6356(4) 0.8179(3) 0.3293(3)
O5_2 O 0.8213(4) 0.8934(3) 0.2045(3)
O6_2 O 0.8618(4) 0.7108(3) 0.1563(3)
O9_2 O 0.9461(4) 0.5193(3) 0.3426(3)
H1_2 H 0.9939 0.5814 0.3464
H3_2 H 0.8990 0.5170 0.3959
C1_2 C 0.7010(5) 0.7429(3) 0.2830(4)
C3_2 C 0.8033(5) 0.7860(3) 0.2077(4)
O12_2 O 0.8644(4) 0.3179(3) 0.1707(3)
O17_2 O 0.6787(4) 0.3934(3) 0.2955(3)
H5_2 H 0.4987 0.9615 0.1532
C5_2 C 0.7990(5) 0.2429(3) 0.2170(4)
C7_2 C 0.6967(5) 0.2860(3) 0.2923(4)
loop_
_geom_bond_atom_site_label_1
_geom_bond_atom_site_label_2
_geom_bond_site_symmetry_1
_geom_bond_site_symmetry_2
O4 C2 1_555 1_555
Ho4 O4 1_555 1_555
O13 Ho4 1_555 1_555
O20 C8 1_555 1_555
O22 C8 1_555 1_555
Ho1 O1 1_555 1_555
O1 C1 1_555 1_555
O2 C1 1_555 1_555
O3 Ho1 1_555 1_555
O5 C3 1_555 1_555
O6 Ho1 1_555 1_555
O9 Ho1 1_555 1_555
H1 O9 1_555 1_555
H3 O9 1_555 1_555
C1 C3 1_555 1_555
C3 O6 1_555 1_555
Ho5 O11 1_555 1_555
O11 C5 1_555 1_555
O12 Ho1 1_555 1_555
O15 Ho1 1_555 1_555
O17 Ho1 1_555 1_555
O19 Ho5 1_555 1_555
C5 O12 1_555 1_555
C7 O17 1_555 1_555
O15 C6 1_555 1_555
O19 C7 1_555 1_555
C5 C7 1_555 1_555
O16 Ho5 1_555 1_555
O21 Ho5 1_555 1_555
O23 Ho5 1_555 1_555
O24 Ho5 1_555 1_555
H4 O24 1_555 1_555
H6 O24 1_555 1_555
O7 C4 1_555 1_555
C4 O8 1_555 1_555
O7_2 C4_2 1_555 1_555
C2_2 O14 1_555 1_555
Ho2 O7_2 1_555 1_555
O22_2 Ho2 1_555 1_555
O21 C8_2 1_555 1_555
Ho2 O4_2 1_555 1_555
O13_2 C6_2 1_555 1_555
O10 Ho2 1_555 1_555
O18 Ho2 1_555 1_555
O24_2 Ho2 1_555 1_555
H4_2 O24_2 1_555 1_555
H6_2 O24_2 1_555 1_555
Ho4 O1_2 1_555 1_555
O1_2 C1_2 1_555 1_555
O2_2 C1_2 1_555 1_555
O5_2 C3_2 1_555 1_555
O6_2 Ho4 1_555 1_555
O9_2 Ho4 1_555 1_555
H1_2 O9_2 1_555 1_555
H3_2 O9_2 1_555 1_555
C1_2 C3_2 1_555 1_555
C3_2 O6_2 1_555 1_555
O10 C5_2 1_555 1_555
O12_2 Ho4 1_555 1_555
O17_2 Ho4 1_555 1_555
C5_2 O12_2 1_555 1_555
C7_2 O17_2 1_555 1_555
O18 C7_2 1_555 1_555
C5_2 C7_2 1_555 1_555

#END
