
###############################################################################
#
# This file contains modified crystal structure data generated from the
# MOF subset of the Cambridge Structural Database (CSD) v543 
# hosted by the Cambridge Crystallographic Data Centre (CCDC).
#
# This work is licensed under the Creative Commons
# Attribution-NonCommercial-ShareAlike 4.0 International License.
# To view a copy of this license, visit
# http://creativecommons.org/licenses/by-nc-sa/4.0/
# or send a letter to
# Creative Commons, PO Box 1866, Mountain View, CA 94042, USA.
#
# CIF created using the CSD Python API on 29 September 2022
# The structure has been converted into the P1 space group
# The structure has a 3D framework
# The original CSD entry WEMFUR is in the tetragonal crystal system
# The framework has been calculated to contain at least 10.0% void space
# The void calculation uses a probe of radius 1.32A, grid spacing 0.4
# H atom positions have been added when not included in the experimental data
#
###############################################################################

data_WEMFUR
_chemical_formula_moiety         '(C256 H216 Be64 O180)n'
_symmetry_cell_setting           triclinic
_symmetry_space_group_name_H-M   'P 1'
_symmetry_Int_Tables_number      1
_space_group_name_Hall           'P 1'
loop_
_symmetry_equiv_pos_site_id
_symmetry_equiv_pos_as_xyz
1 x,y,z
_cell_length_a                   23.8931(2)
_cell_length_b                   23.8931(2)
_cell_length_c                   15.9482(3)
_cell_angle_alpha                90
_cell_angle_beta                 90
_cell_angle_gamma                90
_cell_volume                     9104.51
loop_
_atom_site_label
_atom_site_type_symbol
_atom_site_fract_x
_atom_site_fract_y
_atom_site_fract_z
Be1 Be 0.29976(13) 0.10607(13) 0.55869(19)
Be2 Be 0.27631(13) 0.41813(12) 0.49483(18)
Be3 Be 0.22234(13) 0.05556(12) 0.66415(19)
Be4 Be 0.34596(13) 0.09272(13) 0.39863(18)
O1 O 0.21581(7) 0.12102(7) 0.69545(10)
O2 O 0.26547(7) 0.16034(7) 0.59323(10)
O3 O 0.20258(7) 0.41527(7) 0.64224(10)
O4 O 0.25056(7) 0.36478(7) 0.54893(10)
O5 O 0.36628(7) 0.11024(8) 0.58259(10)
O6 O 0.40301(7) 0.09710(8) 0.45599(10)
O7 O 0.65961(7) 0.07324(8) 0.53415(10)
O8 O 0.60855(7) 0.09879(8) 0.42404(10)
O9 O 0.29237(7) 0.10640(7) 0.45753(10)
H1 H 0.2578 0.1143 0.4336
O10 O 0.27631(6) 0.05052(6) 0.60469(10)
H2 H 0.2938 0.0162 0.5968
O11 O 0.23834(7) 0.47062(7) 0.51317(10)
H3 H 0.2422 0.5020 0.4792
O12 O 0.28381(7) 0.40576(7) 0.39743(9)
H4 H 0.2519 0.3992 0.3656
C1 C 0.23097(10) 0.16250(10) 0.65334(14)
C2 C 0.22009(10) 0.36955(10) 0.61319(14)
C3 C 0.20601(10) 0.21773(10) 0.67477(14)
C4 C 0.22445(10) 0.26607(10) 0.63519(14)
H5 H 0.2521 0.2639 0.5943
C5 C 0.20182(10) 0.31746(10) 0.65633(14)
C6 C 0.16051(12) 0.32041(11) 0.71693(17)
H6 H 0.1454 0.3549 0.7316
C7 C 0.14162(14) 0.27235(12) 0.7557(2)
H7 H 0.1137 0.2745 0.7963
C8 C 0.16422(13) 0.22103(11) 0.73419(18)
H8 H 0.1512 0.1886 0.7599
C9 C 0.40729(10) 0.10348(10) 0.53376(14)
C10 C 0.61439(10) 0.08770(10) 0.50060(14)
C11 C 0.46420(10) 0.10202(11) 0.57139(15)
C12 C 0.51107(10) 0.09575(11) 0.52039(15)
H9 H 0.5068 0.0934 0.4625
C13 C 0.56403(10) 0.09294(11) 0.55524(15)
C14 C 0.57026(11) 0.09698(13) 0.64192(16)
H10 H 0.6057 0.0946 0.6657
C15 C 0.52427(12) 0.10446(15) 0.69223(16)
H11 H 0.5286 0.1082 0.7499
C16 C 0.47149(11) 0.10645(14) 0.65707(16)
H12 H 0.4404 0.1108 0.6916
Be5 Be 0.72369(13) 0.08187(12) 0.49483(18)
Be6 Be 0.19444(12) 0.47234(13) 0.58585(19)
Be7 Be 0.65728(13) 0.09596(13) 0.35137(18)
Be8 Be 0.34272(13) 0.40404(13) 0.35137(18)
O13 O 0.16527(7) 0.04742(7) 0.60776(10)
O14 O 0.34039(7) 0.42676(8) 0.53415(10)
O15 O 0.34879(8) 0.14145(7) 0.32596(10)
O16 O 0.22062(7) 0.01166(7) 0.73683(10)
H13 H 0.2520 0.0078 0.7708
O17 O 0.34424(7) 0.03381(7) 0.35257(9)
H14 H 0.3508 0.0019 0.3844
H16 H 0.372908 0.0347326 0.307512
Be1_2 Be 0.20024(13) 0.89393(13) 0.05869(19)
Be3_2 Be 0.27766(13) 0.94444(12) 0.16415(19)
O1_2 O 0.28419(7) 0.87898(7) 0.19545(10)
O2_2 O 0.23453(7) 0.83966(7) 0.09323(10)
O3_2 O 0.29742(7) 0.58473(7) 0.14224(10)
O4_2 O 0.24944(7) 0.63522(7) 0.04893(10)
O5_2 O 0.13372(7) 0.88976(8) 0.08259(10)
O10_2 O 0.22369(6) 0.94948(6) 0.10469(10)
H2_2 H 0.2062 0.9838 0.0968
O11_2 O 0.26166(7) 0.52938(7) 0.01317(10)
C1_2 C 0.26903(10) 0.83750(10) 0.15334(14)
C2_2 C 0.27991(10) 0.63045(10) 0.11319(14)
C3_2 C 0.29399(10) 0.78227(10) 0.17477(14)
C4_2 C 0.27555(10) 0.73393(10) 0.13519(14)
H5_2 H 0.2479 0.7361 0.0943
C5_2 C 0.29818(10) 0.68254(10) 0.15633(14)
C6_2 C 0.33949(12) 0.67959(11) 0.21693(17)
H6_2 H 0.3546 0.6451 0.2316
C7_2 C 0.35838(14) 0.72765(12) 0.2557(2)
H7_2 H 0.3863 0.7255 0.2963
C8_2 C 0.33578(13) 0.77897(11) 0.23419(18)
H8_2 H 0.3488 0.8114 0.2599
C9_2 C 0.09271(10) 0.89652(10) 0.03376(14)
C11_2 C 0.03580(10) 0.89798(11) 0.07139(15)
C16_2 C 0.02851(11) 0.89355(14) 0.15707(16)
H12_2 H 0.0596 0.8892 0.1916
Be6_2 Be 0.30556(12) 0.52766(13) 0.08585(19)
O13_2 O 0.33473(7) 0.95258(7) 0.10776(10)
O14_2 O 0.15961(7) 0.57324(8) 0.03415(10)
O16_2 O 0.27938(7) 0.98834(7) 0.23683(10)
H13_2 H 0.2480 0.9922 0.2708
Be2_2 Be 0.22369(13) 0.58187(12) 0.99483(18)
Be4_2 Be 0.15404(13) 0.90728(13) 0.89863(18)
O6_2 O 0.09699(7) 0.90290(8) 0.95599(10)
O9_2 O 0.20763(7) 0.89360(7) 0.95753(10)
H1_2 H 0.2422 0.8857 0.9336
H3_2 H 0.2578 0.4980 0.9792
O12_2 O 0.21619(7) 0.59424(7) 0.89743(9)
H4_2 H 0.2481 0.6008 0.8656
Be8_2 Be 0.15728(13) 0.59596(13) 0.85137(18)
O15_2 O 0.15121(8) 0.85855(7) 0.82596(10)
O17_2 O 0.15576(7) 0.96619(7) 0.85257(9)
H14_2 H 0.1492 0.9981 0.8844
H16_2 H 0.127092 0.965267 0.807512
O7_2 O 0.84039(7) 0.92676(8) 0.03415(10)
C10_2 C 0.88561(10) 0.91230(10) 0.00060(14)
C12_2 C 0.98893(10) 0.90425(11) 0.02039(15)
C13_2 C 0.93597(10) 0.90706(11) 0.05524(15)
C14_2 C 0.92974(11) 0.90302(13) 0.14192(16)
H10_2 H 0.8943 0.9054 0.1657
C15_2 C 0.97573(12) 0.89554(15) 0.19223(16)
H11_2 H 0.9714 0.8918 0.2499
O8_2 O 0.89145(7) 0.90121(8) 0.92404(10)
H9_2 H 0.9932 0.9066 0.9625
Be5_2 Be 0.77631(13) 0.91813(12) 0.99483(18)
Be7_2 Be 0.84272(13) 0.90404(13) 0.85137(18)
C10_3 C 0.11439(10) 0.58770(10) 0.00060(14)
C12_3 C 0.01107(10) 0.59575(11) 0.02039(15)
C13_3 C 0.06403(10) 0.59294(11) 0.05524(15)
C14_3 C 0.07026(11) 0.59698(13) 0.14192(16)
H10_3 H 0.1057 0.5946 0.1657
C15_3 C 0.02427(12) 0.60446(15) 0.19223(16)
H11_3 H 0.0286 0.6082 0.2499
O8_3 O 0.10855(7) 0.59879(8) 0.92404(10)
H9_3 H 0.0068 0.5934 0.9625
Be1_3 Be 0.79976(13) 0.60607(13) 0.05869(19)
Be3_3 Be 0.72234(13) 0.55556(12) 0.16415(19)
O1_3 O 0.71581(7) 0.62102(7) 0.19545(10)
O2_3 O 0.76547(7) 0.66034(7) 0.09323(10)
O3_3 O 0.70258(7) 0.91527(7) 0.14224(10)
O4_3 O 0.75056(7) 0.86478(7) 0.04893(10)
O5_3 O 0.86628(7) 0.61024(8) 0.08259(10)
O10_3 O 0.77631(6) 0.55052(6) 0.10469(10)
H2_3 H 0.7938 0.5162 0.0968
O11_3 O 0.73834(7) 0.97062(7) 0.01317(10)
C1_3 C 0.73097(10) 0.66250(10) 0.15334(14)
C2_3 C 0.72009(10) 0.86955(10) 0.11319(14)
C3_3 C 0.70601(10) 0.71773(10) 0.17477(14)
C4_3 C 0.72445(10) 0.76607(10) 0.13519(14)
H5_3 H 0.7521 0.7639 0.0943
C5_3 C 0.70182(10) 0.81746(10) 0.15633(14)
C6_3 C 0.66051(12) 0.82041(11) 0.21693(17)
H6_3 H 0.6454 0.8549 0.2316
C7_3 C 0.64162(14) 0.77235(12) 0.2557(2)
H7_3 H 0.6137 0.7745 0.2963
C8_3 C 0.66422(13) 0.72103(11) 0.23419(18)
H8_3 H 0.6512 0.6886 0.2599
C9_3 C 0.90729(10) 0.60348(10) 0.03376(14)
C11_3 C 0.96420(10) 0.60202(11) 0.07139(15)
C16_3 C 0.97149(11) 0.60645(14) 0.15707(16)
H12_3 H 0.9404 0.6108 0.1916
Be6_3 Be 0.69444(12) 0.97234(13) 0.08585(19)
O13_3 O 0.66527(7) 0.54742(7) 0.10776(10)
O16_3 O 0.72062(7) 0.51166(7) 0.23683(10)
H13_3 H 0.7520 0.5078 0.2708
H15 H 0.71333 0.474569 0.210951
Be4_3 Be 0.84596(13) 0.59272(13) 0.89863(18)
O6_3 O 0.90301(7) 0.59710(8) 0.95599(10)
O9_3 O 0.79237(7) 0.60640(7) 0.95753(10)
H1_3 H 0.7578 0.6143 0.9336
O12_3 O 0.78381(7) 0.90576(7) 0.89743(9)
H4_3 H 0.7519 0.8992 0.8656
O15_3 O 0.84879(8) 0.64145(7) 0.82596(10)
O17_3 O 0.84424(7) 0.53381(7) 0.85257(9)
H14_3 H 0.8508 0.5019 0.8844
H16_3 H 0.872908 0.534733 0.807512
Be1_4 Be 0.70024(13) 0.39393(13) 0.55869(19)
Be3_4 Be 0.77766(13) 0.44444(12) 0.66415(19)
Be4_4 Be 0.65404(13) 0.40728(13) 0.39863(18)
O1_4 O 0.78419(7) 0.37898(7) 0.69545(10)
O2_4 O 0.73453(7) 0.33966(7) 0.59323(10)
O3_4 O 0.79742(7) 0.08473(7) 0.64224(10)
O4_4 O 0.74944(7) 0.13522(7) 0.54893(10)
O5_4 O 0.63372(7) 0.38976(8) 0.58259(10)
O6_4 O 0.59699(7) 0.40290(8) 0.45599(10)
O8_4 O 0.39145(7) 0.40121(8) 0.42404(10)
O9_4 O 0.70763(7) 0.39360(7) 0.45753(10)
H1_4 H 0.7422 0.3857 0.4336
O10_4 O 0.72369(6) 0.44948(6) 0.60469(10)
H2_4 H 0.7062 0.4838 0.5968
O11_4 O 0.76166(7) 0.02938(7) 0.51317(10)
O12_4 O 0.71619(7) 0.09424(7) 0.39743(9)
H4_4 H 0.7481 0.1008 0.3656
C1_4 C 0.76903(10) 0.33750(10) 0.65334(14)
C2_4 C 0.77991(10) 0.13045(10) 0.61319(14)
C3_4 C 0.79399(10) 0.28227(10) 0.67477(14)
C4_4 C 0.77555(10) 0.23393(10) 0.63519(14)
H5_4 H 0.7479 0.2361 0.5943
C5_4 C 0.79818(10) 0.18254(10) 0.65633(14)
C6_4 C 0.83949(12) 0.17959(11) 0.71693(17)
H6_4 H 0.8546 0.1451 0.7316
C7_4 C 0.85838(14) 0.22765(12) 0.7557(2)
H7_4 H 0.8863 0.2255 0.7963
C8_4 C 0.83578(13) 0.27897(11) 0.73419(18)
H8_4 H 0.8488 0.3114 0.7599
C9_4 C 0.59271(10) 0.39652(10) 0.53376(14)
C10_4 C 0.38561(10) 0.41230(10) 0.50060(14)
C11_4 C 0.53580(10) 0.39798(11) 0.57139(15)
C12_4 C 0.48893(10) 0.40425(11) 0.52039(15)
H9_4 H 0.4932 0.4066 0.4625
C13_4 C 0.43597(10) 0.40706(11) 0.55524(15)
C14_4 C 0.42974(11) 0.40302(13) 0.64192(16)
H10_4 H 0.3943 0.4054 0.6657
C15_4 C 0.47573(12) 0.39554(15) 0.69223(16)
H11_4 H 0.4714 0.3918 0.7499
C16_4 C 0.52851(11) 0.39355(14) 0.65707(16)
H12_4 H 0.5596 0.3892 0.6916
Be6_4 Be 0.80556(12) 0.02766(13) 0.58585(19)
O13_4 O 0.83473(7) 0.45258(7) 0.60776(10)
O15_4 O 0.65121(8) 0.35855(7) 0.32596(10)
O16_4 O 0.77938(7) 0.48834(7) 0.73683(10)
H13_4 H 0.7480 0.4922 0.7708
O17_4 O 0.65576(7) 0.46619(7) 0.35257(9)
H14_4 H 0.6492 0.4981 0.3844
H15_2 H 0.78667 0.525431 0.710951
H16_4 H 0.627092 0.465267 0.307512
H3_3 H 0.7578 0.9980 0.4792
Be1_5 Be 0.35607(13) 0.45024(13) 0.19131(19)
Be2_3 Be 0.66813(12) 0.47369(13) 0.25517(18)
O1_5 O 0.37102(7) 0.53419(7) 0.05455(10)
O2_5 O 0.41034(7) 0.48453(7) 0.15677(10)
O4_5 O 0.61478(7) 0.49944(7) 0.20107(10)
O5_5 O 0.36024(8) 0.38372(7) 0.16741(10)
O6_5 O 0.34710(8) 0.34699(7) 0.29401(10)
O7_3 O 0.32324(8) 0.09039(7) 0.21585(10)
O9_5 O 0.35640(7) 0.45763(7) 0.29247(10)
H1_5 H 0.3643 0.4922 0.3164
O10_5 O 0.30052(6) 0.47369(6) 0.14531(10)
H2_5 H 0.2662 0.4562 0.1532
C1_5 C 0.41250(10) 0.51903(10) 0.09666(14)
C2_5 C 0.61955(10) 0.52991(10) 0.13681(14)
C3_5 C 0.46773(10) 0.54399(10) 0.07523(14)
C4_5 C 0.51607(10) 0.52555(10) 0.11481(14)
H5_5 H 0.5139 0.4979 0.1557
C5_5 C 0.56746(10) 0.54818(10) 0.09367(14)
C6_5 C 0.57041(11) 0.58949(12) 0.03307(17)
H6_5 H 0.6049 0.6046 0.0184
C8_5 C 0.47103(11) 0.58578(13) 0.01581(18)
C9_5 C 0.35348(10) 0.34271(10) 0.21624(14)
C10_5 C 0.33770(10) 0.13561(10) 0.24940(14)
C11_5 C 0.35202(11) 0.28580(10) 0.17861(15)
C12_5 C 0.34575(11) 0.23893(10) 0.22961(15)
H9_5 H 0.3434 0.2432 0.2875
C13_5 C 0.34294(11) 0.18597(10) 0.19476(15)
C14_5 C 0.34698(13) 0.17974(11) 0.10808(16)
H10_5 H 0.3446 0.1443 0.0843
C15_5 C 0.35446(15) 0.22573(12) 0.05777(16)
H11_5 H 0.3582 0.2214 0.0001
C16_5 C 0.35645(14) 0.27851(11) 0.09293(16)
H12_5 H 0.3608 0.3096 0.0584
Be5_3 Be 0.33187(12) 0.02631(13) 0.25517(18)
O14_3 O 0.67676(8) 0.40961(7) 0.21585(10)
H15_3 H 0.224569 0.53667 0.039049
H16_5 H 0.284733 0.377092 0.442488
C7_5 C 0.52235(12) 0.60838(14) 0.9943(2)
H7_5 H 0.5245 0.6363 0.9537
H8_5 H 0.4386 0.5988 0.9901
Be1_6 Be 0.14393(13) 0.54976(13) 0.69131(19)
O1_6 O 0.12898(7) 0.46581(7) 0.55455(10)
O2_6 O 0.08966(7) 0.51547(7) 0.65677(10)
O5_6 O 0.13976(8) 0.61628(7) 0.66741(10)
O6_6 O 0.15290(8) 0.65301(7) 0.79401(10)
O7_4 O 0.17676(8) 0.90961(7) 0.71585(10)
O9_6 O 0.14360(7) 0.54237(7) 0.79247(10)
H1_6 H 0.1357 0.5078 0.8164
O10_6 O 0.19948(6) 0.52631(6) 0.64531(10)
H2_6 H 0.2338 0.5438 0.6532
C1_6 C 0.08750(10) 0.48097(10) 0.59666(14)
C3_6 C 0.03227(10) 0.45601(10) 0.57523(14)
C8_6 C 0.02897(11) 0.41422(13) 0.51581(18)
H8_6 H 0.0614 0.4012 0.4901
C9_6 C 0.14652(10) 0.65729(10) 0.71624(14)
C10_6 C 0.16230(10) 0.86439(10) 0.74940(14)
C11_6 C 0.14798(11) 0.71420(10) 0.67861(15)
C12_6 C 0.15425(11) 0.76107(10) 0.72961(15)
H9_6 H 0.1566 0.7568 0.7875
C13_6 C 0.15706(11) 0.81403(10) 0.69476(15)
C14_6 C 0.15302(13) 0.82026(11) 0.60808(16)
H10_6 H 0.1554 0.8557 0.5843
C15_6 C 0.14554(15) 0.77427(12) 0.55777(16)
H11_6 H 0.1418 0.7786 0.5001
C16_6 C 0.14355(14) 0.72149(11) 0.59293(16)
H12_6 H 0.1392 0.6904 0.5584
Be5_4 Be 0.16813(12) 0.97369(13) 0.75517(18)
H15_4 H 0.275431 0.46333 0.539049
H16_6 H 0.215267 0.622908 0.942488
Be2_4 Be 0.83187(12) 0.52631(13) 0.75517(18)
O4_6 O 0.88522(7) 0.50056(7) 0.70107(10)
C2_6 C 0.88045(10) 0.47009(10) 0.63681(14)
C4_6 C 0.98393(10) 0.47445(10) 0.61481(14)
H5_6 H 0.9861 0.5021 0.6557
C5_6 C 0.93254(10) 0.45182(10) 0.59367(14)
C6_6 C 0.92959(11) 0.41051(12) 0.53307(17)
H6_6 H 0.8951 0.3954 0.5184
C7_6 C 0.97765(12) 0.39162(14) 0.4943(2)
H7_6 H 0.9755 0.3637 0.4537
O14_4 O 0.82324(8) 0.59039(7) 0.71585(10)
C2_7 C 0.11955(10) 0.02991(10) 0.63681(14)
C4_7 C 0.01607(10) 0.02555(10) 0.61481(14)
C5_7 C 0.06746(10) 0.04818(10) 0.59367(14)
C6_7 C 0.07041(11) 0.08949(12) 0.53307(17)
H6_7 H 0.1049 0.1046 0.5184
C7_7 C 0.02235(12) 0.10838(14) 0.4943(2)
H7_7 H 0.0245 0.1363 0.4537
O4_7 O 0.11478(7) 0.99944(7) 0.70107(10)
H5_7 H 0.0139 0.9979 0.6557
O1_7 O 0.87102(7) 0.03419(7) 0.55455(10)
C1_7 C 0.91250(10) 0.01903(10) 0.59666(14)
C3_7 C 0.96773(10) 0.04399(10) 0.57523(14)
C8_7 C 0.97103(11) 0.08578(13) 0.51581(18)
H8_7 H 0.9386 0.0988 0.4901
H15_5 H 0.724569 0.0366695 0.539049
Be1_7 Be 0.85607(13) 0.95024(13) 0.69131(19)
O2_7 O 0.91034(7) 0.98453(7) 0.65677(10)
O5_7 O 0.86024(8) 0.88372(7) 0.66741(10)
O6_7 O 0.84710(8) 0.84699(7) 0.79401(10)
O9_7 O 0.85640(7) 0.95763(7) 0.79247(10)
H1_7 H 0.8643 0.9922 0.8164
O10_7 O 0.80052(6) 0.97369(6) 0.64531(10)
H2_7 H 0.7662 0.9562 0.6532
C9_7 C 0.85348(10) 0.84271(10) 0.71624(14)
C10_7 C 0.83770(10) 0.63561(10) 0.74940(14)
C11_7 C 0.85202(11) 0.78580(10) 0.67861(15)
C12_7 C 0.84575(11) 0.73893(10) 0.72961(15)
H9_7 H 0.8434 0.7432 0.7875
C13_7 C 0.84294(11) 0.68597(10) 0.69476(15)
C14_7 C 0.84698(13) 0.67974(11) 0.60808(16)
H10_7 H 0.8446 0.6443 0.5843
C15_7 C 0.85446(15) 0.72573(12) 0.55777(16)
H11_7 H 0.8582 0.7214 0.5001
C16_7 C 0.85645(14) 0.77851(11) 0.59293(16)
H12_7 H 0.8608 0.8096 0.5584
H16_7 H 0.784733 0.877092 0.942488
Be1_8 Be 0.64393(13) 0.04976(13) 0.19131(19)
O2_8 O 0.58966(7) 0.01547(7) 0.15677(10)
O4_8 O 0.38522(7) 0.00056(7) 0.20107(10)
O5_8 O 0.63976(8) 0.11628(7) 0.16741(10)
O6_8 O 0.65290(8) 0.15301(7) 0.29401(10)
O9_8 O 0.64360(7) 0.04237(7) 0.29247(10)
H1_8 H 0.6357 0.0078 0.3164
O10_8 O 0.69948(6) 0.02631(6) 0.14531(10)
H2_8 H 0.7338 0.0438 0.1532
H5_8 H 0.4861 0.0021 0.1557
C9_8 C 0.64652(10) 0.15729(10) 0.21624(14)
C10_8 C 0.66230(10) 0.36439(10) 0.24940(14)
C11_8 C 0.64798(11) 0.21420(10) 0.17861(15)
C12_8 C 0.65425(11) 0.26107(10) 0.22961(15)
H9_8 H 0.6566 0.2568 0.2875
C13_8 C 0.65706(11) 0.31403(10) 0.19476(15)
C14_8 C 0.65302(13) 0.32026(11) 0.10808(16)
H10_8 H 0.6554 0.3557 0.0843
C15_8 C 0.64554(15) 0.27427(12) 0.05777(16)
H11_8 H 0.6418 0.2786 0.0001
C16_8 C 0.64355(14) 0.22149(11) 0.09293(16)
H12_8 H 0.6392 0.1904 0.0584
H16_8 H 0.715267 0.122908 0.442488
O1_8 O 0.62898(7) 0.96581(7) 0.05455(10)
C1_8 C 0.58750(10) 0.98097(10) 0.09666(14)
C2_8 C 0.38045(10) 0.97009(10) 0.13681(14)
C3_8 C 0.53227(10) 0.95601(10) 0.07523(14)
C4_8 C 0.48393(10) 0.97445(10) 0.11481(14)
C5_8 C 0.43254(10) 0.95182(10) 0.09367(14)
C6_8 C 0.42959(11) 0.91051(12) 0.03307(17)
H6_8 H 0.3951 0.8954 0.0184
C8_8 C 0.52897(11) 0.91422(13) 0.01581(18)
H15_6 H 0.775431 0.96333 0.039049
H15_7 H 0.21333 0.974569 0.710951
H15_8 H 0.28667 0.0254308 0.210951
C7_8 C 0.47765(12) 0.39162(14) 0.0057(2)
H7_8 H 0.4755 0.3637 0.0463
H8_8 H 0.5614 0.4012 0.0099
H13_5 H 0.7422 0.5020 0.0208
Be1_9 Be 0.64393(13) 0.54976(13) 0.80869(19)
Be2_5 Be 0.33187(12) 0.52631(13) 0.74483(18)
Be3_5 Be 0.69444(12) 0.47234(13) 0.91415(19)
Be4_5 Be 0.65728(13) 0.59596(13) 0.64863(18)
O1_9 O 0.62898(7) 0.46581(7) 0.94545(10)
O2_9 O 0.58966(7) 0.51547(7) 0.84323(10)
O3_5 O 0.33473(7) 0.45258(7) 0.89224(10)
O4_9 O 0.38522(7) 0.50056(7) 0.79893(10)
O5_9 O 0.63976(8) 0.61628(7) 0.83259(10)
O6_9 O 0.65290(8) 0.65301(7) 0.70599(10)
O7_5 O 0.67676(8) 0.90961(7) 0.78415(10)
O8_5 O 0.65121(8) 0.85855(7) 0.67404(10)
O9_9 O 0.64360(7) 0.54237(7) 0.70753(10)
H1_9 H 0.6357 0.5078 0.6836
O10_9 O 0.69948(6) 0.52631(6) 0.85469(10)
H2_9 H 0.7338 0.5438 0.8468
O11_5 O 0.27938(7) 0.48834(7) 0.76317(10)
H3_4 H 0.2480 0.4922 0.7292
O12_5 O 0.34424(7) 0.53381(7) 0.64743(9)
H4_5 H 0.3508 0.5019 0.6156
C1_9 C 0.58750(10) 0.48097(10) 0.90334(14)
C2_9 C 0.38045(10) 0.47009(10) 0.86319(14)
C3_9 C 0.53227(10) 0.45601(10) 0.92477(14)
C4_9 C 0.48393(10) 0.47445(10) 0.88519(14)
H5_9 H 0.4861 0.5021 0.8443
C5_9 C 0.43254(10) 0.45182(10) 0.90633(14)
C6_9 C 0.42959(11) 0.41051(12) 0.96693(17)
H6_9 H 0.3951 0.3954 0.9816
C8_9 C 0.52897(11) 0.41422(13) 0.98419(18)
C9_9 C 0.64652(10) 0.65729(10) 0.78376(14)
C10_9 C 0.66230(10) 0.86439(10) 0.75060(14)
C11_9 C 0.64798(11) 0.71420(10) 0.82139(15)
C12_9 C 0.65425(11) 0.76107(10) 0.77039(15)
H9_9 H 0.6566 0.7568 0.7125
C13_9 C 0.65706(11) 0.81403(10) 0.80524(15)
C14_9 C 0.65302(13) 0.82026(11) 0.89192(16)
H10_9 H 0.6554 0.8557 0.9157
C15_9 C 0.64554(15) 0.77427(12) 0.94223(16)
H11_9 H 0.6418 0.7786 0.9999
C16_9 C 0.64355(14) 0.72149(11) 0.90707(16)
H12_9 H 0.6392 0.6904 0.9416
Be5_5 Be 0.66813(12) 0.97369(13) 0.74483(18)
Be6_5 Be 0.27766(13) 0.44444(12) 0.83585(19)
Be7_3 Be 0.65404(13) 0.90728(13) 0.60137(18)
Be8_3 Be 0.34596(13) 0.59272(13) 0.60137(18)
O13_5 O 0.70258(7) 0.41527(7) 0.85776(10)
O14_5 O 0.32324(8) 0.59039(7) 0.78415(10)
O15_5 O 0.60855(7) 0.59879(8) 0.57596(10)
O16_5 O 0.73834(7) 0.47062(7) 0.98683(10)
O17_5 O 0.71619(7) 0.59424(7) 0.60257(9)
H14_5 H 0.7481 0.6008 0.6344
H15_9 H 0.775431 0.46333 0.960951
H16_9 H 0.715267 0.622908 0.557512
Be2_6 Be 0.16813(12) 0.47369(13) 0.24483(18)
O3_6 O 0.16527(7) 0.54742(7) 0.39224(10)
O4_10 O 0.11478(7) 0.49944(7) 0.29893(10)
O11_6 O 0.22062(7) 0.51166(7) 0.26317(10)
H3_5 H 0.2520 0.5078 0.2292
O12_6 O 0.15576(7) 0.46619(7) 0.14743(9)
H4_6 H 0.1492 0.4981 0.1156
C2_10 C 0.11955(10) 0.52991(10) 0.36319(14)
C4_10 C 0.01607(10) 0.52555(10) 0.38519(14)
H5_10 H 0.0139 0.4979 0.3443
C5_10 C 0.06746(10) 0.54818(10) 0.40633(14)
C6_10 C 0.07041(11) 0.58949(12) 0.46693(17)
H6_10 H 0.1049 0.6046 0.4816
C7_9 C 0.02235(12) 0.60838(14) 0.5057(2)
H7_9 H 0.0245 0.6363 0.5463
Be6_6 Be 0.22234(13) 0.55556(12) 0.33585(19)
Be8_4 Be 0.15404(13) 0.40728(13) 0.10137(18)
O14_6 O 0.17676(8) 0.40961(7) 0.28415(10)
Be1_10 Be 0.85607(13) 0.45024(13) 0.30869(19)
Be3_6 Be 0.80556(12) 0.52766(13) 0.41415(19)
Be4_6 Be 0.84272(13) 0.40404(13) 0.14863(18)
O1_10 O 0.87102(7) 0.53419(7) 0.44545(10)
O2_10 O 0.91034(7) 0.48453(7) 0.34323(10)
O5_10 O 0.86024(8) 0.38372(7) 0.33259(10)
O6_10 O 0.84710(8) 0.34699(7) 0.20599(10)
O7_6 O 0.82324(8) 0.09039(7) 0.28415(10)
O8_6 O 0.84879(8) 0.14145(7) 0.17404(10)
O9_10 O 0.85640(7) 0.45763(7) 0.20753(10)
H1_10 H 0.8643 0.4922 0.1836
O10_10 O 0.80052(6) 0.47369(6) 0.35469(10)
H2_10 H 0.7662 0.4562 0.3468
C1_10 C 0.91250(10) 0.51903(10) 0.40334(14)
C3_10 C 0.96773(10) 0.54399(10) 0.42477(14)
C8_10 C 0.97103(11) 0.58578(13) 0.48419(18)
H8_9 H 0.9386 0.5988 0.5099
C9_10 C 0.85348(10) 0.34271(10) 0.28376(14)
C10_10 C 0.83770(10) 0.13561(10) 0.25060(14)
C11_10 C 0.85202(11) 0.28580(10) 0.32139(15)
C12_10 C 0.84575(11) 0.23893(10) 0.27039(15)
H9_10 H 0.8434 0.2432 0.2125
C13_10 C 0.84294(11) 0.18597(10) 0.30524(15)
C14_10 C 0.84698(13) 0.17974(11) 0.39192(16)
H10_10 H 0.8446 0.1443 0.4157
C15_10 C 0.85446(15) 0.22573(12) 0.44223(16)
H11_10 H 0.8582 0.2214 0.4999
C16_10 C 0.85645(14) 0.27851(11) 0.40707(16)
H12_10 H 0.8608 0.3096 0.4416
Be5_6 Be 0.83187(12) 0.02631(13) 0.24483(18)
Be7_4 Be 0.84596(13) 0.09272(13) 0.10137(18)
O13_6 O 0.79742(7) 0.58473(7) 0.35776(10)
O15_6 O 0.89145(7) 0.40121(8) 0.07596(10)
O16_6 O 0.76166(7) 0.52938(7) 0.48683(10)
H13_6 H 0.7578 0.4980 0.5208
O17_6 O 0.78381(7) 0.40576(7) 0.10257(9)
H14_6 H 0.7519 0.3992 0.1344
H15_10 H 0.724569 0.53667 0.460951
H16_10 H 0.784733 0.377092 0.0575116
Be1_11 Be 0.14393(13) 0.04976(13) 0.30869(19)
Be4_7 Be 0.15728(13) 0.09596(13) 0.14863(18)
O2_11 O 0.08966(7) 0.01547(7) 0.34323(10)
O5_11 O 0.13976(8) 0.11628(7) 0.33259(10)
O6_11 O 0.15290(8) 0.15301(7) 0.20599(10)
O8_7 O 0.15121(8) 0.35855(7) 0.17404(10)
O9_11 O 0.14360(7) 0.04237(7) 0.20753(10)
H1_11 H 0.1357 0.0078 0.1836
O10_11 O 0.19948(6) 0.02631(6) 0.35469(10)
H2_11 H 0.2338 0.0438 0.3468
C9_11 C 0.14652(10) 0.15729(10) 0.28376(14)
C10_11 C 0.16230(10) 0.36439(10) 0.25060(14)
C11_11 C 0.14798(11) 0.21420(10) 0.32139(15)
C12_11 C 0.15425(11) 0.26107(10) 0.27039(15)
H9_11 H 0.1566 0.2568 0.2125
C13_11 C 0.15706(11) 0.31403(10) 0.30524(15)
C14_11 C 0.15302(13) 0.32026(11) 0.39192(16)
H10_11 H 0.1554 0.3557 0.4157
C15_11 C 0.14554(15) 0.27427(12) 0.44223(16)
H11_11 H 0.1418 0.2786 0.4999
C16_11 C 0.14355(14) 0.22149(11) 0.40707(16)
H12_11 H 0.1392 0.1904 0.4416
O15_7 O 0.10855(7) 0.09879(8) 0.07596(10)
H13_7 H 0.2422 0.0020 0.5208
O17_7 O 0.21619(7) 0.09424(7) 0.10257(9)
H14_7 H 0.2481 0.1008 0.1344
H16_11 H 0.215267 0.122908 0.0575116
Be3_7 Be 0.19444(12) 0.97234(13) 0.41415(19)
O1_11 O 0.12898(7) 0.96581(7) 0.44545(10)
C1_11 C 0.08750(10) 0.98097(10) 0.40334(14)
C3_11 C 0.03227(10) 0.95601(10) 0.42477(14)
C8_11 C 0.02897(11) 0.91422(13) 0.48419(18)
H8_10 H 0.0614 0.9012 0.5099
O13_7 O 0.20258(7) 0.91527(7) 0.35776(10)
O16_7 O 0.23834(7) 0.97062(7) 0.48683(10)
H15_11 H 0.275431 0.96333 0.460951
O4_11 O 0.88522(7) 0.00056(7) 0.29893(10)
O12_7 O 0.84424(7) 0.03381(7) 0.14743(9)
H4_7 H 0.8508 0.0019 0.1156
H5_11 H 0.9861 0.0021 0.3443
O3_7 O 0.83473(7) 0.95258(7) 0.39224(10)
O11_7 O 0.77938(7) 0.98834(7) 0.26317(10)
H3_6 H 0.7480 0.9922 0.2292
C2_11 C 0.88045(10) 0.97009(10) 0.36319(14)
C4_11 C 0.98393(10) 0.97445(10) 0.38519(14)
C5_11 C 0.93254(10) 0.95182(10) 0.40633(14)
C6_11 C 0.92959(11) 0.91051(12) 0.46693(17)
H6_11 H 0.8951 0.8954 0.4816
C7_10 C 0.97765(12) 0.89162(14) 0.5057(2)
H7_10 H 0.9755 0.8637 0.5463
Be6_7 Be 0.77766(13) 0.94444(12) 0.33585(19)
Be3_8 Be 0.30556(12) 0.02766(13) 0.91415(19)
O1_12 O 0.37102(7) 0.03419(7) 0.94545(10)
O3_8 O 0.66527(7) 0.04742(7) 0.89224(10)
O11_8 O 0.72062(7) 0.01166(7) 0.76317(10)
H3_7 H 0.7520 0.0078 0.7292
C1_12 C 0.41250(10) 0.01903(10) 0.90334(14)
C2_12 C 0.61955(10) 0.02991(10) 0.86319(14)
C3_12 C 0.46773(10) 0.04399(10) 0.92477(14)
C4_12 C 0.51607(10) 0.02555(10) 0.88519(14)
C5_12 C 0.56746(10) 0.04818(10) 0.90633(14)
C6_12 C 0.57041(11) 0.08949(12) 0.96693(17)
H6_12 H 0.6049 0.1046 0.9816
C8_12 C 0.47103(11) 0.08578(13) 0.98419(18)
Be6_8 Be 0.72234(13) 0.05556(12) 0.83585(19)
O13_8 O 0.29742(7) 0.08473(7) 0.85776(10)
O16_8 O 0.26166(7) 0.02938(7) 0.98683(10)
H15_12 H 0.224569 0.0366695 0.960951
Be1_12 Be 0.35607(13) 0.95024(13) 0.80869(19)
Be4_8 Be 0.34272(13) 0.90404(13) 0.64863(18)
O2_12 O 0.41034(7) 0.98453(7) 0.84323(10)
O4_12 O 0.61478(7) 0.99944(7) 0.79893(10)
O5_12 O 0.36024(8) 0.88372(7) 0.83259(10)
O6_12 O 0.34710(8) 0.84699(7) 0.70599(10)
O8_8 O 0.34879(8) 0.64145(7) 0.67404(10)
O9_12 O 0.35640(7) 0.95763(7) 0.70753(10)
H1_12 H 0.3643 0.9922 0.6836
O10_12 O 0.30052(6) 0.97369(6) 0.85469(10)
H2_12 H 0.2662 0.9562 0.8468
O12_8 O 0.65576(7) 0.96619(7) 0.64743(9)
H4_8 H 0.6492 0.9981 0.6156
H5_12 H 0.5139 0.9979 0.8443
C9_12 C 0.35348(10) 0.84271(10) 0.78376(14)
C10_12 C 0.33770(10) 0.63561(10) 0.75060(14)
C11_12 C 0.35202(11) 0.78580(10) 0.82139(15)
C12_12 C 0.34575(11) 0.73893(10) 0.77039(15)
H9_12 H 0.3434 0.7432 0.7125
C13_12 C 0.34294(11) 0.68597(10) 0.80524(15)
C14_12 C 0.34698(13) 0.67974(11) 0.89192(16)
H10_12 H 0.3446 0.6443 0.9157
C15_12 C 0.35446(15) 0.72573(12) 0.94223(16)
H11_12 H 0.3582 0.7214 0.9999
C16_12 C 0.35645(14) 0.77851(11) 0.90707(16)
H12_12 H 0.3608 0.8096 0.9416
O15_8 O 0.39145(7) 0.90121(8) 0.57596(10)
O17_8 O 0.28381(7) 0.90576(7) 0.60257(9)
H14_8 H 0.2519 0.8992 0.6344
H16_12 H 0.284733 0.877092 0.557512
Be1_13 Be 0.70024(13) 0.89393(13) 0.44131(19)
Be2_7 Be 0.72369(13) 0.58187(12) 0.50517(18)
O1_13 O 0.78419(7) 0.87898(7) 0.30455(10)
O2_13 O 0.73453(7) 0.83966(7) 0.40677(10)
O4_13 O 0.74944(7) 0.63522(7) 0.45107(10)
O5_13 O 0.63372(7) 0.88976(8) 0.41741(10)
O6_13 O 0.59699(7) 0.90290(8) 0.54401(10)
O7_7 O 0.34039(7) 0.92676(8) 0.46585(10)
O9_13 O 0.70763(7) 0.89360(7) 0.54247(10)
H1_13 H 0.7422 0.8857 0.5664
O10_13 O 0.72369(6) 0.94948(6) 0.39531(10)
H2_13 H 0.7062 0.9838 0.4032
C1_13 C 0.76903(10) 0.83750(10) 0.34666(14)
C2_13 C 0.77991(10) 0.63045(10) 0.38681(14)
C3_13 C 0.79399(10) 0.78227(10) 0.32523(14)
C4_13 C 0.77555(10) 0.73393(10) 0.36481(14)
H5_13 H 0.7479 0.7361 0.4057
C5_13 C 0.79818(10) 0.68254(10) 0.34367(14)
C6_13 C 0.83949(12) 0.67959(11) 0.28307(17)
H6_13 H 0.8546 0.6451 0.2684
C7_11 C 0.85838(14) 0.72765(12) 0.2443(2)
H7_11 H 0.8863 0.7255 0.2037
C8_13 C 0.83578(13) 0.77897(11) 0.26581(18)
H8_11 H 0.8488 0.8114 0.2401
C9_13 C 0.59271(10) 0.89652(10) 0.46624(14)
C10_13 C 0.38561(10) 0.91230(10) 0.49940(14)
C11_13 C 0.53580(10) 0.89798(11) 0.42861(15)
C12_13 C 0.48893(10) 0.90425(11) 0.47961(15)
H9_13 H 0.4932 0.9066 0.5375
C13_13 C 0.43597(10) 0.90706(11) 0.44476(15)
C14_13 C 0.42974(11) 0.90302(13) 0.35808(16)
H10_13 H 0.3943 0.9054 0.3343
C15_13 C 0.47573(12) 0.89554(15) 0.30777(16)
H11_13 H 0.4714 0.8918 0.2501
C16_13 C 0.52851(11) 0.89355(14) 0.34293(16)
H12_13 H 0.5596 0.8892 0.3084
Be5_7 Be 0.27631(13) 0.91813(12) 0.50517(18)
O14_7 O 0.65961(7) 0.57324(8) 0.46585(10)
H16_13 H 0.627092 0.965267 0.692488
H9_14 H 0.0068 0.0934 0.0375
Be5_8 Be 0.22369(13) 0.08187(12) 0.00517(18)
O7_8 O 0.15961(7) 0.07324(8) 0.96585(10)
C10_14 C 0.11439(10) 0.08770(10) 0.99940(14)
C12_14 C 0.01107(10) 0.09575(11) 0.97961(15)
C13_14 C 0.06403(10) 0.09294(11) 0.94476(15)
C14_14 C 0.07026(11) 0.09698(13) 0.85808(16)
H10_14 H 0.1057 0.0946 0.8343
C15_14 C 0.02427(12) 0.10446(15) 0.80777(16)
H11_14 H 0.0286 0.1082 0.7501
Be2_8 Be 0.77631(13) 0.41813(12) 0.00517(18)
O6_14 O 0.90301(7) 0.09710(8) 0.04401(10)
O9_14 O 0.79237(7) 0.10640(7) 0.04247(10)
H1_14 H 0.7578 0.1143 0.0664
H16_14 H 0.872908 0.0347326 0.192488
Be1_14 Be 0.79976(13) 0.10607(13) 0.94131(19)
O1_14 O 0.71581(7) 0.12102(7) 0.80455(10)
O2_14 O 0.76547(7) 0.16034(7) 0.90677(10)
O4_14 O 0.75056(7) 0.36478(7) 0.95107(10)
O5_14 O 0.86628(7) 0.11024(8) 0.91741(10)
O10_14 O 0.77631(6) 0.05052(6) 0.89531(10)
H2_14 H 0.7938 0.0162 0.9032
C1_14 C 0.73097(10) 0.16250(10) 0.84666(14)
C2_14 C 0.72009(10) 0.36955(10) 0.88681(14)
C3_14 C 0.70601(10) 0.21773(10) 0.82523(14)
C4_14 C 0.72445(10) 0.26607(10) 0.86481(14)
H5_14 H 0.7521 0.2639 0.9057
C5_14 C 0.70182(10) 0.31746(10) 0.84367(14)
C6_14 C 0.66051(12) 0.32041(11) 0.78307(17)
H6_14 H 0.6454 0.3549 0.7684
C7_12 C 0.64162(14) 0.27235(12) 0.7443(2)
H7_12 H 0.6137 0.2745 0.7037
C8_14 C 0.66422(13) 0.22103(11) 0.76581(18)
H8_12 H 0.6512 0.1886 0.7401
C9_14 C 0.90729(10) 0.10348(10) 0.96624(14)
C11_14 C 0.96420(10) 0.10202(11) 0.92861(15)
C16_14 C 0.97149(11) 0.10645(14) 0.84293(16)
H12_14 H 0.9404 0.1108 0.8084
O14_8 O 0.84039(7) 0.42676(8) 0.96585(10)
O6_15 O 0.09699(7) 0.40290(8) 0.04401(10)
O9_15 O 0.20763(7) 0.39360(7) 0.04247(10)
H1_15 H 0.2422 0.3857 0.0664
H16_15 H 0.127092 0.465267 0.192488
Be1_15 Be 0.20024(13) 0.39393(13) 0.94131(19)
O1_15 O 0.28419(7) 0.37898(7) 0.80455(10)
O2_15 O 0.23453(7) 0.33966(7) 0.90677(10)
O4_15 O 0.24944(7) 0.13522(7) 0.95107(10)
O5_15 O 0.13372(7) 0.38976(8) 0.91741(10)
O10_15 O 0.22369(6) 0.44948(6) 0.89531(10)
H2_15 H 0.2062 0.4838 0.9032
C1_15 C 0.26903(10) 0.33750(10) 0.84666(14)
C2_15 C 0.27991(10) 0.13045(10) 0.88681(14)
C3_15 C 0.29399(10) 0.28227(10) 0.82523(14)
C4_15 C 0.27555(10) 0.23393(10) 0.86481(14)
H5_15 H 0.2479 0.2361 0.9057
C5_15 C 0.29818(10) 0.18254(10) 0.84367(14)
C6_15 C 0.33949(12) 0.17959(11) 0.78307(17)
H6_15 H 0.3546 0.1451 0.7684
C7_13 C 0.35838(14) 0.22765(12) 0.7443(2)
H7_13 H 0.3863 0.2255 0.7037
C8_15 C 0.33578(13) 0.27897(11) 0.76581(18)
H8_13 H 0.3488 0.3114 0.7401
C9_15 C 0.09271(10) 0.39652(10) 0.96624(14)
C11_15 C 0.03580(10) 0.39798(11) 0.92861(15)
C16_15 C 0.02851(11) 0.39355(14) 0.84293(16)
H12_15 H 0.0596 0.3892 0.8084
H15_13 H 0.28667 0.525431 0.789049
H9_15 H 0.9932 0.4066 0.0375
C10_15 C 0.88561(10) 0.41230(10) 0.99940(14)
C12_15 C 0.98893(10) 0.40425(11) 0.97961(15)
C13_15 C 0.93597(10) 0.40706(11) 0.94476(15)
C14_15 C 0.92974(11) 0.40302(13) 0.85808(16)
H10_15 H 0.8943 0.4054 0.8343
C15_15 C 0.97573(12) 0.39554(15) 0.80777(16)
H11_15 H 0.9714 0.3918 0.7501
Be1_16 Be 0.29976(13) 0.60607(13) 0.44131(19)
O1_16 O 0.21581(7) 0.62102(7) 0.30455(10)
O2_16 O 0.26547(7) 0.66034(7) 0.40677(10)
O4_16 O 0.25056(7) 0.86478(7) 0.45107(10)
O5_16 O 0.36628(7) 0.61024(8) 0.41741(10)
O6_16 O 0.40301(7) 0.59710(8) 0.54401(10)
O9_16 O 0.29237(7) 0.60640(7) 0.54247(10)
H1_16 H 0.2578 0.6143 0.5664
O10_16 O 0.27631(6) 0.55052(6) 0.39531(10)
H2_16 H 0.2938 0.5162 0.4032
C1_16 C 0.23097(10) 0.66250(10) 0.34666(14)
C2_16 C 0.22009(10) 0.86955(10) 0.38681(14)
C3_16 C 0.20601(10) 0.71773(10) 0.32523(14)
C4_16 C 0.22445(10) 0.76607(10) 0.36481(14)
H5_16 H 0.2521 0.7639 0.4057
C5_16 C 0.20182(10) 0.81746(10) 0.34367(14)
C6_16 C 0.16051(12) 0.82041(11) 0.28307(17)
H6_16 H 0.1454 0.8549 0.2684
C7_14 C 0.14162(14) 0.77235(12) 0.2443(2)
H7_14 H 0.1137 0.7745 0.2037
C8_16 C 0.16422(13) 0.72103(11) 0.26581(18)
H8_14 H 0.1512 0.6886 0.2401
C9_16 C 0.40729(10) 0.60348(10) 0.46624(14)
C10_16 C 0.61439(10) 0.58770(10) 0.49940(14)
C11_16 C 0.46420(10) 0.60202(11) 0.42861(15)
C12_16 C 0.51107(10) 0.59575(11) 0.47961(15)
H9_16 H 0.5068 0.5934 0.5375
C13_16 C 0.56403(10) 0.59294(11) 0.44476(15)
C14_16 C 0.57026(11) 0.59698(13) 0.35808(16)
H10_16 H 0.6057 0.5946 0.3343
C15_16 C 0.52427(12) 0.60446(15) 0.30777(16)
H11_16 H 0.5286 0.6082 0.2501
C16_16 C 0.47149(11) 0.60645(14) 0.34293(16)
H12_16 H 0.4404 0.6108 0.3084
H15_14 H 0.21333 0.474569 0.289049
H16_16 H 0.372908 0.534733 0.692488
H3_8 H 0.7422 0.0020 0.9792
C7_15 C 0.52235(12) 0.10838(14) 0.0057(2)
H7_15 H 0.5245 0.1363 0.0463
H8_15 H 0.4386 0.0988 0.0099
H13_8 H 0.2578 0.9980 0.0208
H15_15 H 0.78667 0.0254308 0.289049
H15_16 H 0.71333 0.974569 0.789049
C7_16 C 0.47765(12) 0.89162(14) 0.9943(2)
H7_16 H 0.4755 0.8637 0.9537
H8_16 H 0.5614 0.9012 0.9901
loop_
_geom_bond_atom_site_label_1
_geom_bond_atom_site_label_2
_geom_bond_site_symmetry_1
_geom_bond_site_symmetry_2
Be1 O2 1_555 1_555
Be2 O4 1_555 1_555
Be3 O1 1_555 1_555
Be4 O6 1_555 1_555
O1 C1 1_555 1_555
O2 C1 1_555 1_555
O3 C2 1_555 1_555
O4 C2 1_555 1_555
O5 Be1 1_555 1_555
O6 C9 1_555 1_555
O7 C10 1_555 1_555
O8 C10 1_555 1_555
O9 Be1 1_555 1_555
H1 O9 1_555 1_555
O10 Be1 1_555 1_555
H2 O10 1_555 1_555
O11 Be2 1_555 1_555
H3 O11 1_555 1_555
O12 Be2 1_555 1_555
H4 O12 1_555 1_555
C1 C3 1_555 1_555
C2 C5 1_555 1_555
C3 C4 1_555 1_555
C4 H5 1_555 1_555
C5 C4 1_555 1_555
C6 C5 1_555 1_555
H6 C6 1_555 1_555
C7 C6 1_555 1_555
H7 C7 1_555 1_555
C8 C3 1_555 1_555
H8 C8 1_555 1_555
C9 O5 1_555 1_555
C10 C13 1_555 1_555
C11 C9 1_555 1_555
C12 C11 1_555 1_555
H9 C12 1_555 1_555
C13 C12 1_555 1_555
C14 C13 1_555 1_555
H10 C14 1_555 1_555
C15 C14 1_555 1_555
H11 C15 1_555 1_555
C16 C11 1_555 1_555
H12 C16 1_555 1_555
Be5 O7 1_555 1_555
Be6 O3 1_555 1_555
Be7 O8 1_555 1_555
Be8 O12 1_555 1_555
O13 Be3 1_555 1_555
O14 Be2 1_555 1_555
O15 Be4 1_555 1_555
O16 Be3 1_555 1_555
H13 O16 1_555 1_555
O17 Be4 1_555 1_555
H14 O17 1_555 1_555
Be3 O10 1_555 1_555
Be4 O9 1_555 1_555
O11 Be6 1_555 1_555
C7 C8 1_555 1_555
C15 C16 1_555 1_555
O17 H16 1_555 1_555
Be1_2 O2_2 1_555 1_555
Be3_2 O1_2 1_555 1_555
O1_2 C1_2 1_555 1_555
O2_2 C1_2 1_555 1_555
O3_2 C2_2 1_555 1_555
O4_2 C2_2 1_555 1_555
O5_2 Be1_2 1_555 1_555
O10_2 Be1_2 1_555 1_555
H2_2 O10_2 1_555 1_555
C1_2 C3_2 1_555 1_555
C2_2 C5_2 1_555 1_555
C3_2 C4_2 1_555 1_555
C4_2 H5_2 1_555 1_555
C5_2 C4_2 1_555 1_555
C6_2 C5_2 1_555 1_555
H6_2 C6_2 1_555 1_555
C7_2 C6_2 1_555 1_555
H7_2 C7_2 1_555 1_555
C8_2 C3_2 1_555 1_555
H8_2 C8_2 1_555 1_555
C9_2 O5_2 1_555 1_555
C11_2 C9_2 1_555 1_555
C16_2 C11_2 1_555 1_555
H12_2 C16_2 1_555 1_555
Be6_2 O3_2 1_555 1_555
O13_2 Be3_2 1_555 1_555
O16_2 Be3_2 1_555 1_555
H13_2 O16_2 1_555 1_555
Be3_2 O10_2 1_555 1_555
O11_2 Be6_2 1_555 1_555
C7_2 C8_2 1_555 1_555
Be4_2 O6_2 1_555 1_555
H1_2 O9_2 1_555 1_555
O12_2 Be2_2 1_555 1_555
H4_2 O12_2 1_555 1_555
Be8_2 O12_2 1_555 1_555
O15_2 Be4_2 1_555 1_555
O17_2 Be4_2 1_555 1_555
H14_2 O17_2 1_555 1_555
Be4_2 O9_2 1_555 1_555
O17_2 H16_2 1_555 1_555
O7_2 C10_2 1_555 1_555
C10_2 C13_2 1_555 1_555
C13_2 C12_2 1_555 1_555
C14_2 C13_2 1_555 1_555
H10_2 C14_2 1_555 1_555
C15_2 C14_2 1_555 1_555
H11_2 C15_2 1_555 1_555
Be7_2 O8_2 1_555 1_555
O14_2 C10_3 1_555 1_555
C10_3 C13_3 1_555 1_555
C13_3 C12_3 1_555 1_555
C14_3 C13_3 1_555 1_555
H10_3 C14_3 1_555 1_555
C15_3 C14_3 1_555 1_555
H11_3 C15_3 1_555 1_555
Be8_2 O8_3 1_555 1_555
Be1_3 O2_3 1_555 1_555
Be3_3 O1_3 1_555 1_555
O1_3 C1_3 1_555 1_555
O2_3 C1_3 1_555 1_555
O3_3 C2_3 1_555 1_555
O4_3 C2_3 1_555 1_555
O5_3 Be1_3 1_555 1_555
O10_3 Be1_3 1_555 1_555
H2_3 O10_3 1_555 1_555
C1_3 C3_3 1_555 1_555
C2_3 C5_3 1_555 1_555
C3_3 C4_3 1_555 1_555
C4_3 H5_3 1_555 1_555
C5_3 C4_3 1_555 1_555
C6_3 C5_3 1_555 1_555
H6_3 C6_3 1_555 1_555
C7_3 C6_3 1_555 1_555
H7_3 C7_3 1_555 1_555
C8_3 C3_3 1_555 1_555
H8_3 C8_3 1_555 1_555
C9_3 O5_3 1_555 1_555
C11_3 C9_3 1_555 1_555
C16_3 C11_3 1_555 1_555
H12_3 C16_3 1_555 1_555
Be6_3 O3_3 1_555 1_555
O13_3 Be3_3 1_555 1_555
O16_3 Be3_3 1_555 1_555
H13_3 O16_3 1_555 1_555
Be3_3 O10_3 1_555 1_555
O11_3 Be6_3 1_555 1_555
C7_3 C8_3 1_555 1_555
O16_3 H15 1_555 1_555
Be4_3 O6_3 1_555 1_555
H1_3 O9_3 1_555 1_555
O12_3 Be5_2 1_555 1_555
H4_3 O12_3 1_555 1_555
Be7_2 O12_3 1_555 1_555
O15_3 Be4_3 1_555 1_555
O17_3 Be4_3 1_555 1_555
H14_3 O17_3 1_555 1_555
Be4_3 O9_3 1_555 1_555
O17_3 H16_3 1_555 1_555
Be1_4 O2_4 1_555 1_555
Be5 O4_4 1_555 1_555
Be3_4 O1_4 1_555 1_555
Be4_4 O6_4 1_555 1_555
O1_4 C1_4 1_555 1_555
O2_4 C1_4 1_555 1_555
O3_4 C2_4 1_555 1_555
O4_4 C2_4 1_555 1_555
O5_4 Be1_4 1_555 1_555
O6_4 C9_4 1_555 1_555
O14 C10_4 1_555 1_555
O8_4 C10_4 1_555 1_555
O9_4 Be1_4 1_555 1_555
H1_4 O9_4 1_555 1_555
O10_4 Be1_4 1_555 1_555
H2_4 O10_4 1_555 1_555
O11_4 Be5 1_555 1_555
O12_4 Be5 1_555 1_555
H4_4 O12_4 1_555 1_555
C1_4 C3_4 1_555 1_555
C2_4 C5_4 1_555 1_555
C3_4 C4_4 1_555 1_555
C4_4 H5_4 1_555 1_555
C5_4 C4_4 1_555 1_555
C6_4 C5_4 1_555 1_555
H6_4 C6_4 1_555 1_555
C7_4 C6_4 1_555 1_555
H7_4 C7_4 1_555 1_555
C8_4 C3_4 1_555 1_555
H8_4 C8_4 1_555 1_555
C9_4 O5_4 1_555 1_555
C10_4 C13_4 1_555 1_555
C11_4 C9_4 1_555 1_555
C12_4 C11_4 1_555 1_555
H9_4 C12_4 1_555 1_555
C13_4 C12_4 1_555 1_555
C14_4 C13_4 1_555 1_555
H10_4 C14_4 1_555 1_555
C15_4 C14_4 1_555 1_555
H11_4 C15_4 1_555 1_555
C16_4 C11_4 1_555 1_555
H12_4 C16_4 1_555 1_555
Be6_4 O3_4 1_555 1_555
Be8 O8_4 1_555 1_555
Be7 O12_4 1_555 1_555
O13_4 Be3_4 1_555 1_555
O15_4 Be4_4 1_555 1_555
O16_4 Be3_4 1_555 1_555
H13_4 O16_4 1_555 1_555
O17_4 Be4_4 1_555 1_555
H14_4 O17_4 1_555 1_555
Be3_4 O10_4 1_555 1_555
Be4_4 O9_4 1_555 1_555
O11_4 Be6_4 1_555 1_555
C7_4 C8_4 1_555 1_555
C15_4 C16_4 1_555 1_555
O16_4 H15_2 1_555 1_555
O17_4 H16_4 1_555 1_555
Be1_5 O2_5 1_555 1_555
Be2_3 O4_5 1_555 1_555
Be6_2 O1_5 1_555 1_555
Be8 O6_5 1_555 1_555
O1_5 C1_5 1_555 1_555
O2_5 C1_5 1_555 1_555
O13_3 C2_5 1_555 1_555
O4_5 C2_5 1_555 1_555
O5_5 Be1_5 1_555 1_555
O6_5 C9_5 1_555 1_555
O7_3 C10_5 1_555 1_555
O15 C10_5 1_555 1_555
O9_5 Be1_5 1_555 1_555
H1_5 O9_5 1_555 1_555
O10_5 Be1_5 1_555 1_555
H2_5 O10_5 1_555 1_555
O16_3 Be2_3 1_555 1_555
O17_4 Be2_3 1_555 1_555
C1_5 C3_5 1_555 1_555
C2_5 C5_5 1_555 1_555
C3_5 C4_5 1_555 1_555
C4_5 H5_5 1_555 1_555
C5_5 C4_5 1_555 1_555
C6_5 C5_5 1_555 1_555
H6_5 C6_5 1_555 1_555
C8_5 C3_5 1_555 1_555
C9_5 O5_5 1_555 1_555
C10_5 C13_5 1_555 1_555
C11_5 C9_5 1_555 1_555
C12_5 C11_5 1_555 1_555
H9_5 C12_5 1_555 1_555
C13_5 C12_5 1_555 1_555
C14_5 C13_5 1_555 1_555
H10_5 C14_5 1_555 1_555
C15_5 C14_5 1_555 1_555
H11_5 C15_5 1_555 1_555
C16_5 C11_5 1_555 1_555
H12_5 C16_5 1_555 1_555
Be5_3 O7_3 1_555 1_555
O14_3 Be2_3 1_555 1_555
Be6_2 O10_5 1_555 1_555
Be8 O9_5 1_555 1_555
C15_5 C16_5 1_555 1_555
O11_2 H15_3 1_555 1_555
O12 H16_5 1_555 1_555
H7_5 C7_5 1_555 1_555
Be1_6 O2_6 1_555 1_555
Be6 O1_6 1_555 1_555
Be8_2 O6_6 1_555 1_555
O1_6 C1_6 1_555 1_555
O2_6 C1_6 1_555 1_555
O5_6 Be1_6 1_555 1_555
O6_6 C9_6 1_555 1_555
O7_4 C10_6 1_555 1_555
O15_2 C10_6 1_555 1_555
O9_6 Be1_6 1_555 1_555
H1_6 O9_6 1_555 1_555
O10_6 Be1_6 1_555 1_555
H2_6 O10_6 1_555 1_555
C1_6 C3_6 1_555 1_555
C8_6 C3_6 1_555 1_555
H8_6 C8_6 1_555 1_555
C9_6 O5_6 1_555 1_555
C10_6 C13_6 1_555 1_555
C11_6 C9_6 1_555 1_555
C12_6 C11_6 1_555 1_555
H9_6 C12_6 1_555 1_555
C13_6 C12_6 1_555 1_555
C14_6 C13_6 1_555 1_555
H10_6 C14_6 1_555 1_555
C15_6 C14_6 1_555 1_555
H11_6 C15_6 1_555 1_555
C16_6 C11_6 1_555 1_555
H12_6 C16_6 1_555 1_555
Be5_4 O7_4 1_555 1_555
Be6 O10_6 1_555 1_555
Be8_2 O9_6 1_555 1_555
C15_6 C16_6 1_555 1_555
O11 H15_4 1_555 1_555
O12_2 H16_6 1_555 1_555
Be2_4 O4_6 1_555 1_555
O13_4 C2_6 1_555 1_555
O4_6 C2_6 1_555 1_555
O16_4 Be2_4 1_555 1_555
O17_3 Be2_4 1_555 1_555
C2_6 C5_6 1_555 1_555
C4_6 H5_6 1_555 1_555
C5_6 C4_6 1_555 1_555
C6_6 C5_6 1_555 1_555
H6_6 C6_6 1_555 1_555
C7_6 C6_6 1_555 1_555
H7_6 C7_6 1_555 1_555
O14_4 Be2_4 1_555 1_555
O13 C2_7 1_555 1_555
C2_7 C5_7 1_555 1_555
C5_7 C4_7 1_555 1_555
C6_7 C5_7 1_555 1_555
H6_7 C6_7 1_555 1_555
C7_7 C6_7 1_555 1_555
H7_7 C7_7 1_555 1_555
Be5_4 O4_7 1_555 1_555
O17_2 Be5_4 1_555 1_555
Be6_4 O1_7 1_555 1_555
O1_7 C1_7 1_555 1_555
C1_7 C3_7 1_555 1_555
C8_7 C3_7 1_555 1_555
H8_7 C8_7 1_555 1_555
O11_4 H15_5 1_555 1_555
Be1_7 O2_7 1_555 1_555
Be7_2 O6_7 1_555 1_555
O5_7 Be1_7 1_555 1_555
O6_7 C9_7 1_555 1_555
O14_4 C10_7 1_555 1_555
O15_3 C10_7 1_555 1_555
O9_7 Be1_7 1_555 1_555
H1_7 O9_7 1_555 1_555
O10_7 Be1_7 1_555 1_555
H2_7 O10_7 1_555 1_555
C9_7 O5_7 1_555 1_555
C10_7 C13_7 1_555 1_555
C11_7 C9_7 1_555 1_555
C12_7 C11_7 1_555 1_555
H9_7 C12_7 1_555 1_555
C13_7 C12_7 1_555 1_555
C14_7 C13_7 1_555 1_555
H10_7 C14_7 1_555 1_555
C15_7 C14_7 1_555 1_555
H11_7 C15_7 1_555 1_555
C16_7 C11_7 1_555 1_555
H12_7 C16_7 1_555 1_555
Be7_2 O9_7 1_555 1_555
C15_7 C16_7 1_555 1_555
O12_3 H16_7 1_555 1_555
Be1_8 O2_8 1_555 1_555
Be5_3 O4_8 1_555 1_555
Be7 O6_8 1_555 1_555
O5_8 Be1_8 1_555 1_555
O6_8 C9_8 1_555 1_555
O14_3 C10_8 1_555 1_555
O15_4 C10_8 1_555 1_555
O9_8 Be1_8 1_555 1_555
H1_8 O9_8 1_555 1_555
O10_8 Be1_8 1_555 1_555
H2_8 O10_8 1_555 1_555
O17 Be5_3 1_555 1_555
C9_8 O5_8 1_555 1_555
C10_8 C13_8 1_555 1_555
C11_8 C9_8 1_555 1_555
C12_8 C11_8 1_555 1_555
H9_8 C12_8 1_555 1_555
C13_8 C12_8 1_555 1_555
C14_8 C13_8 1_555 1_555
H10_8 C14_8 1_555 1_555
C15_8 C14_8 1_555 1_555
H11_8 C15_8 1_555 1_555
C16_8 C11_8 1_555 1_555
H12_8 C16_8 1_555 1_555
Be7 O9_8 1_555 1_555
C15_8 C16_8 1_555 1_555
O12_4 H16_8 1_555 1_555
Be6_3 O1_8 1_555 1_555
O1_8 C1_8 1_555 1_555
O13_2 C2_8 1_555 1_555
C1_8 C3_8 1_555 1_555
C2_8 C5_8 1_555 1_555
C3_8 C4_8 1_555 1_555
C5_8 C4_8 1_555 1_555
C6_8 C5_8 1_555 1_555
H6_8 C6_8 1_555 1_555
C8_8 C3_8 1_555 1_555
O11_3 H15_6 1_555 1_555
H7_8 C7_8 1_555 1_555
Be1_9 O2_9 1_555 1_555
Be2_5 O4_9 1_555 1_555
Be3_5 O1_9 1_555 1_555
Be4_5 O6_9 1_555 1_555
O1_9 C1_9 1_555 1_555
O2_9 C1_9 1_555 1_555
O3_5 C2_9 1_555 1_555
O4_9 C2_9 1_555 1_555
O5_9 Be1_9 1_555 1_555
O6_9 C9_9 1_555 1_555
O7_5 C10_9 1_555 1_555
O8_5 C10_9 1_555 1_555
O9_9 Be1_9 1_555 1_555
H1_9 O9_9 1_555 1_555
O10_9 Be1_9 1_555 1_555
H2_9 O10_9 1_555 1_555
O11_5 Be2_5 1_555 1_555
H3_4 O11_5 1_555 1_555
O12_5 Be2_5 1_555 1_555
H4_5 O12_5 1_555 1_555
C1_9 C3_9 1_555 1_555
C2_9 C5_9 1_555 1_555
C3_9 C4_9 1_555 1_555
C4_9 H5_9 1_555 1_555
C5_9 C4_9 1_555 1_555
C6_9 C5_9 1_555 1_555
H6_9 C6_9 1_555 1_555
C8_9 C3_9 1_555 1_555
C9_9 O5_9 1_555 1_555
C10_9 C13_9 1_555 1_555
C11_9 C9_9 1_555 1_555
C12_9 C11_9 1_555 1_555
H9_9 C12_9 1_555 1_555
C13_9 C12_9 1_555 1_555
C14_9 C13_9 1_555 1_555
H10_9 C14_9 1_555 1_555
C15_9 C14_9 1_555 1_555
H11_9 C15_9 1_555 1_555
C16_9 C11_9 1_555 1_555
H12_9 C16_9 1_555 1_555
Be5_5 O7_5 1_555 1_555
Be6_5 O3_5 1_555 1_555
Be7_3 O8_5 1_555 1_555
Be8_3 O12_5 1_555 1_555
O13_5 Be3_5 1_555 1_555
O14_5 Be2_5 1_555 1_555
O15_5 Be4_5 1_555 1_555
O16_5 Be3_5 1_555 1_555
O17_5 Be4_5 1_555 1_555
H14_5 O17_5 1_555 1_555
Be3_5 O10_9 1_555 1_555
Be4_5 O9_9 1_555 1_555
O11_5 Be6_5 1_555 1_555
C15_9 C16_9 1_555 1_555
O16_5 H15_9 1_555 1_555
O17_5 H16_9 1_555 1_555
Be2_6 O4_10 1_555 1_555
O3_6 C2_10 1_555 1_555
O4_10 C2_10 1_555 1_555
O11_6 Be2_6 1_555 1_555
H3_5 O11_6 1_555 1_555
O12_6 Be2_6 1_555 1_555
H4_6 O12_6 1_555 1_555
C2_10 C5_10 1_555 1_555
C4_10 H5_10 1_555 1_555
C5_10 C4_10 1_555 1_555
C6_10 C5_10 1_555 1_555
H6_10 C6_10 1_555 1_555
C7_9 C6_10 1_555 1_555
H7_9 C7_9 1_555 1_555
Be6_6 O3_6 1_555 1_555
Be8_4 O12_6 1_555 1_555
O14_6 Be2_6 1_555 1_555
O11_6 Be6_6 1_555 1_555
Be1_10 O2_10 1_555 1_555
Be3_6 O1_10 1_555 1_555
Be4_6 O6_10 1_555 1_555
O1_10 C1_10 1_555 1_555
O2_10 C1_10 1_555 1_555
O5_10 Be1_10 1_555 1_555
O6_10 C9_10 1_555 1_555
O7_6 C10_10 1_555 1_555
O8_6 C10_10 1_555 1_555
O9_10 Be1_10 1_555 1_555
H1_10 O9_10 1_555 1_555
O10_10 Be1_10 1_555 1_555
H2_10 O10_10 1_555 1_555
C1_10 C3_10 1_555 1_555
C8_10 C3_10 1_555 1_555
H8_9 C8_10 1_555 1_555
C9_10 O5_10 1_555 1_555
C10_10 C13_10 1_555 1_555
C11_10 C9_10 1_555 1_555
C12_10 C11_10 1_555 1_555
H9_10 C12_10 1_555 1_555
C13_10 C12_10 1_555 1_555
C14_10 C13_10 1_555 1_555
H10_10 C14_10 1_555 1_555
C15_10 C14_10 1_555 1_555
H11_10 C15_10 1_555 1_555
C16_10 C11_10 1_555 1_555
H12_10 C16_10 1_555 1_555
Be5_6 O7_6 1_555 1_555
Be7_4 O8_6 1_555 1_555
O13_6 Be3_6 1_555 1_555
O15_6 Be4_6 1_555 1_555
O16_6 Be3_6 1_555 1_555
H13_6 O16_6 1_555 1_555
O17_6 Be4_6 1_555 1_555
H14_6 O17_6 1_555 1_555
Be3_6 O10_10 1_555 1_555
Be4_6 O9_10 1_555 1_555
C15_10 C16_10 1_555 1_555
O16_6 H15_10 1_555 1_555
O17_6 H16_10 1_555 1_555
Be1_11 O2_11 1_555 1_555
Be4_7 O6_11 1_555 1_555
O5_11 Be1_11 1_555 1_555
O6_11 C9_11 1_555 1_555
O14_6 C10_11 1_555 1_555
O8_7 C10_11 1_555 1_555
O9_11 Be1_11 1_555 1_555
H1_11 O9_11 1_555 1_555
O10_11 Be1_11 1_555 1_555
H2_11 O10_11 1_555 1_555
C9_11 O5_11 1_555 1_555
C10_11 C13_11 1_555 1_555
C11_11 C9_11 1_555 1_555
C12_11 C11_11 1_555 1_555
H9_11 C12_11 1_555 1_555
C13_11 C12_11 1_555 1_555
C14_11 C13_11 1_555 1_555
H10_11 C14_11 1_555 1_555
C15_11 C14_11 1_555 1_555
H11_11 C15_11 1_555 1_555
C16_11 C11_11 1_555 1_555
H12_11 C16_11 1_555 1_555
Be8_4 O8_7 1_555 1_555
O15_7 Be4_7 1_555 1_555
O17_7 Be4_7 1_555 1_555
H14_7 O17_7 1_555 1_555
Be4_7 O9_11 1_555 1_555
C15_11 C16_11 1_555 1_555
O17_7 H16_11 1_555 1_555
Be3_7 O1_11 1_555 1_555
O1_11 C1_11 1_555 1_555
C1_11 C3_11 1_555 1_555
C8_11 C3_11 1_555 1_555
H8_10 C8_11 1_555 1_555
O13_7 Be3_7 1_555 1_555
O16_7 Be3_7 1_555 1_555
O16_7 H15_11 1_555 1_555
Be5_6 O4_11 1_555 1_555
O12_7 Be5_6 1_555 1_555
H4_7 O12_7 1_555 1_555
Be7_4 O12_7 1_555 1_555
O3_7 C2_11 1_555 1_555
H3_6 O11_7 1_555 1_555
C2_11 C5_11 1_555 1_555
C5_11 C4_11 1_555 1_555
C6_11 C5_11 1_555 1_555
H6_11 C6_11 1_555 1_555
C7_10 C6_11 1_555 1_555
H7_10 C7_10 1_555 1_555
Be6_7 O3_7 1_555 1_555
O11_7 Be6_7 1_555 1_555
Be3_8 O1_12 1_555 1_555
O1_12 C1_12 1_555 1_555
O3_8 C2_12 1_555 1_555
H3_7 O11_8 1_555 1_555
C1_12 C3_12 1_555 1_555
C2_12 C5_12 1_555 1_555
C3_12 C4_12 1_555 1_555
C5_12 C4_12 1_555 1_555
C6_12 C5_12 1_555 1_555
H6_12 C6_12 1_555 1_555
C8_12 C3_12 1_555 1_555
Be6_8 O3_8 1_555 1_555
O13_8 Be3_8 1_555 1_555
O16_8 Be3_8 1_555 1_555
O11_8 Be6_8 1_555 1_555
O16_8 H15_12 1_555 1_555
Be1_12 O2_12 1_555 1_555
Be5_5 O4_12 1_555 1_555
Be4_8 O6_12 1_555 1_555
O5_12 Be1_12 1_555 1_555
O6_12 C9_12 1_555 1_555
O14_5 C10_12 1_555 1_555
O8_8 C10_12 1_555 1_555
O9_12 Be1_12 1_555 1_555
H1_12 O9_12 1_555 1_555
O10_12 Be1_12 1_555 1_555
H2_12 O10_12 1_555 1_555
O12_8 Be5_5 1_555 1_555
H4_8 O12_8 1_555 1_555
C9_12 O5_12 1_555 1_555
C10_12 C13_12 1_555 1_555
C11_12 C9_12 1_555 1_555
C12_12 C11_12 1_555 1_555
H9_12 C12_12 1_555 1_555
C13_12 C12_12 1_555 1_555
C14_12 C13_12 1_555 1_555
H10_12 C14_12 1_555 1_555
C15_12 C14_12 1_555 1_555
H11_12 C15_12 1_555 1_555
C16_12 C11_12 1_555 1_555
H12_12 C16_12 1_555 1_555
Be8_3 O8_8 1_555 1_555
Be7_3 O12_8 1_555 1_555
O15_8 Be4_8 1_555 1_555
O17_8 Be4_8 1_555 1_555
H14_8 O17_8 1_555 1_555
Be4_8 O9_12 1_555 1_555
C15_12 C16_12 1_555 1_555
O17_8 H16_12 1_555 1_555
Be1_13 O2_13 1_555 1_555
Be2_7 O4_13 1_555 1_555
Be6_7 O1_13 1_555 1_555
Be7_3 O6_13 1_555 1_555
O1_13 C1_13 1_555 1_555
O2_13 C1_13 1_555 1_555
O13_6 C2_13 1_555 1_555
O4_13 C2_13 1_555 1_555
O5_13 Be1_13 1_555 1_555
O6_13 C9_13 1_555 1_555
O7_7 C10_13 1_555 1_555
O15_8 C10_13 1_555 1_555
O9_13 Be1_13 1_555 1_555
H1_13 O9_13 1_555 1_555
O10_13 Be1_13 1_555 1_555
H2_13 O10_13 1_555 1_555
O16_6 Be2_7 1_555 1_555
O17_5 Be2_7 1_555 1_555
C1_13 C3_13 1_555 1_555
C2_13 C5_13 1_555 1_555
C3_13 C4_13 1_555 1_555
C4_13 H5_13 1_555 1_555
C5_13 C4_13 1_555 1_555
C6_13 C5_13 1_555 1_555
H6_13 C6_13 1_555 1_555
C7_11 C6_13 1_555 1_555
H7_11 C7_11 1_555 1_555
C8_13 C3_13 1_555 1_555
H8_11 C8_13 1_555 1_555
C9_13 O5_13 1_555 1_555
C10_13 C13_13 1_555 1_555
C11_13 C9_13 1_555 1_555
C12_13 C11_13 1_555 1_555
H9_13 C12_13 1_555 1_555
C13_13 C12_13 1_555 1_555
C14_13 C13_13 1_555 1_555
H10_13 C14_13 1_555 1_555
C15_13 C14_13 1_555 1_555
H11_13 C15_13 1_555 1_555
C16_13 C11_13 1_555 1_555
H12_13 C16_13 1_555 1_555
Be5_7 O7_7 1_555 1_555
O14_7 Be2_7 1_555 1_555
Be6_7 O10_13 1_555 1_555
Be7_3 O9_13 1_555 1_555
C7_11 C8_13 1_555 1_555
C15_13 C16_13 1_555 1_555
O12_8 H16_13 1_555 1_555
O7_8 C10_14 1_555 1_555
C10_14 C13_14 1_555 1_555
C13_14 C12_14 1_555 1_555
C14_14 C13_14 1_555 1_555
H10_14 C14_14 1_555 1_555
C15_14 C14_14 1_555 1_555
H11_14 C15_14 1_555 1_555
Be7_4 O6_14 1_555 1_555
H1_14 O9_14 1_555 1_555
O17_6 Be2_8 1_555 1_555
Be7_4 O9_14 1_555 1_555
O12_7 H16_14 1_555 1_555
Be1_14 O2_14 1_555 1_555
Be6_8 O1_14 1_555 1_555
O1_14 C1_14 1_555 1_555
O2_14 C1_14 1_555 1_555
O13_5 C2_14 1_555 1_555
O4_14 C2_14 1_555 1_555
O5_14 Be1_14 1_555 1_555
O10_14 Be1_14 1_555 1_555
H2_14 O10_14 1_555 1_555
C1_14 C3_14 1_555 1_555
C2_14 C5_14 1_555 1_555
C3_14 C4_14 1_555 1_555
C4_14 H5_14 1_555 1_555
C5_14 C4_14 1_555 1_555
C6_14 C5_14 1_555 1_555
H6_14 C6_14 1_555 1_555
C7_12 C6_14 1_555 1_555
H7_12 C7_12 1_555 1_555
C8_14 C3_14 1_555 1_555
H8_12 C8_14 1_555 1_555
C9_14 O5_14 1_555 1_555
C11_14 C9_14 1_555 1_555
C16_14 C11_14 1_555 1_555
H12_14 C16_14 1_555 1_555
Be6_8 O10_14 1_555 1_555
C7_12 C8_14 1_555 1_555
Be8_4 O6_15 1_555 1_555
H1_15 O9_15 1_555 1_555
O17_7 Be5_8 1_555 1_555
Be8_4 O9_15 1_555 1_555
O12_6 H16_15 1_555 1_555
Be1_15 O2_15 1_555 1_555
Be6_5 O1_15 1_555 1_555
O1_15 C1_15 1_555 1_555
O2_15 C1_15 1_555 1_555
O13_8 C2_15 1_555 1_555
O4_15 C2_15 1_555 1_555
O5_15 Be1_15 1_555 1_555
O10_15 Be1_15 1_555 1_555
H2_15 O10_15 1_555 1_555
C1_15 C3_15 1_555 1_555
C2_15 C5_15 1_555 1_555
C3_15 C4_15 1_555 1_555
C4_15 H5_15 1_555 1_555
C5_15 C4_15 1_555 1_555
C6_15 C5_15 1_555 1_555
H6_15 C6_15 1_555 1_555
C7_13 C6_15 1_555 1_555
H7_13 C7_13 1_555 1_555
C8_15 C3_15 1_555 1_555
H8_13 C8_15 1_555 1_555
C9_15 O5_15 1_555 1_555
C11_15 C9_15 1_555 1_555
C16_15 C11_15 1_555 1_555
H12_15 C16_15 1_555 1_555
Be6_5 O10_15 1_555 1_555
C7_13 C8_15 1_555 1_555
O11_5 H15_13 1_555 1_555
O14_8 C10_15 1_555 1_555
C10_15 C13_15 1_555 1_555
C13_15 C12_15 1_555 1_555
C14_15 C13_15 1_555 1_555
H10_15 C14_15 1_555 1_555
C15_15 C14_15 1_555 1_555
H11_15 C15_15 1_555 1_555
Be1_16 O2_16 1_555 1_555
Be5_7 O4_16 1_555 1_555
Be6_6 O1_16 1_555 1_555
Be8_3 O6_16 1_555 1_555
O1_16 C1_16 1_555 1_555
O2_16 C1_16 1_555 1_555
O13_7 C2_16 1_555 1_555
O4_16 C2_16 1_555 1_555
O5_16 Be1_16 1_555 1_555
O6_16 C9_16 1_555 1_555
O14_7 C10_16 1_555 1_555
O15_5 C10_16 1_555 1_555
O9_16 Be1_16 1_555 1_555
H1_16 O9_16 1_555 1_555
O10_16 Be1_16 1_555 1_555
H2_16 O10_16 1_555 1_555
O16_7 Be5_7 1_555 1_555
O17_8 Be5_7 1_555 1_555
C1_16 C3_16 1_555 1_555
C2_16 C5_16 1_555 1_555
C3_16 C4_16 1_555 1_555
C4_16 H5_16 1_555 1_555
C5_16 C4_16 1_555 1_555
C6_16 C5_16 1_555 1_555
H6_16 C6_16 1_555 1_555
C7_14 C6_16 1_555 1_555
H7_14 C7_14 1_555 1_555
C8_16 C3_16 1_555 1_555
H8_14 C8_16 1_555 1_555
C9_16 O5_16 1_555 1_555
C10_16 C13_16 1_555 1_555
C11_16 C9_16 1_555 1_555
C12_16 C11_16 1_555 1_555
H9_16 C12_16 1_555 1_555
C13_16 C12_16 1_555 1_555
C14_16 C13_16 1_555 1_555
H10_16 C14_16 1_555 1_555
C15_16 C14_16 1_555 1_555
H11_16 C15_16 1_555 1_555
C16_16 C11_16 1_555 1_555
H12_16 C16_16 1_555 1_555
Be6_6 O10_16 1_555 1_555
Be8_3 O9_16 1_555 1_555
C7_14 C8_16 1_555 1_555
C15_16 C16_16 1_555 1_555
O11_6 H15_14 1_555 1_555
O12_5 H16_16 1_555 1_555
H7_15 C7_15 1_555 1_555
H7_16 C7_16 1_555 1_555

#END
