
###############################################################################
#
# This file contains modified crystal structure data generated from the
# MOF subset of the Cambridge Structural Database (CSD) v543 
# hosted by the Cambridge Crystallographic Data Centre (CCDC).
#
# This work is licensed under the Creative Commons
# Attribution-NonCommercial-ShareAlike 4.0 International License.
# To view a copy of this license, visit
# http://creativecommons.org/licenses/by-nc-sa/4.0/
# or send a letter to
# Creative Commons, PO Box 1866, Mountain View, CA 94042, USA.
#
# CIF created using the CSD Python API on 29 September 2022
# The structure has been converted into the P1 space group
# The structure has a 3D framework
# The original CSD entry WEMFIF is in the monoclinic crystal system
# The framework has been calculated to contain at least 10.0% void space
# The void calculation uses a probe of radius 1.32A, grid spacing 0.4
#
###############################################################################

data_WEMFIF
_chemical_formula_moiety         '(C16 H12 Dy4 O31)n'
_symmetry_cell_setting           triclinic
_symmetry_space_group_name_H-M   'P 1'
_symmetry_Int_Tables_number      1
_space_group_name_Hall           'P 1'
loop_
_symmetry_equiv_pos_site_id
_symmetry_equiv_pos_as_xyz
1 x,y,z
_cell_length_a                   9.6315(19)
_cell_length_b                   11.613(2)
_cell_length_c                   12.217(2)
_cell_angle_alpha                90
_cell_angle_beta                 99.13(3)
_cell_angle_gamma                90
_cell_volume                     1349.17
loop_
_atom_site_label
_atom_site_type_symbol
_atom_site_fract_x
_atom_site_fract_y
_atom_site_fract_z
Dy3 Dy 0.285303(16) 0.013115(13) 0.667599(13)
O10 O 0.1901(3) 0.1368(2) 0.7928(2)
O13 O 0.3613(3) 0.2122(2) 0.6560(2)
O19 O 0.0868(3) 0.1180(2) 0.5672(2)
O21 O 0.5328(3) 0.0103(2) 0.6434(2)
O23 O 0.3178(3) 0.0116(2) 0.4777(2)
O24 O 0.4475(3) 0.0201(3) 0.8436(2)
H4 H 0.4950 0.0820 0.8468
H5 H 0.4010 0.0182 0.8971
O6 O 0.5868(3) 0.3820(2) 0.0672(2)
C3 C 0.4956(4) 0.4336(3) 0.0011(3)
Dy4 Dy 0.785303(16) 0.486885(13) 0.167599(13)
O16 O 0.6027(3) 0.6115(2) 0.0640(3)
O20 O 0.0328(3) 0.4897(2) 0.1434(2)
O22 O 0.1822(3) 0.5116(2) 0.0223(2)
C8 C 0.0630(4) 0.4999(3) 0.0478(3)
Dy1 Dy 0.214697(16) 0.513115(13) 0.832401(13)
O1 O 0.3099(3) 0.6368(2) 0.7072(2)
O2 O 0.3648(3) 0.8182(2) 0.6712(2)
O3 O 0.1387(3) 0.7122(2) 0.8440(2)
O4 O 0.1797(3) 0.8938(2) 0.7964(2)
O5 O 0.3973(3) 0.3885(2) 0.9360(3)
O9 O 0.0525(3) 0.5201(3) 0.6564(2)
H1 H 0.0050 0.5820 0.6532
H2 H 0.0990 0.5182 0.6029
C1 C 0.2996(4) 0.7430(3) 0.7170(3)
C2 C 0.1971(4) 0.7871(3) 0.7931(3)
O12 O 0.1352(3) 0.3182(2) 0.8288(2)
O15 O 0.3203(3) 0.3938(2) 0.7036(2)
O17 O 0.1027(3) 0.8885(2) 0.5640(3)
O18 O 0.4132(3) 0.6180(2) 0.9328(2)
H6 H 0.5028 0.9627 0.8478
C5 C 0.2004(4) 0.2430(3) 0.7830(3)
C6 C 0.3029(4) 0.2871(3) 0.7069(3)
C7 C 0.5044(4) 0.5664(3) 0.9989(3)
O7 O 0.9672(3) 0.5103(2) 0.8566(2)
O8 O 0.8178(3) 0.4884(2) 0.9777(2)
H3 H 0.9972 0.4627 0.6522
C4 C 0.9370(4) 0.5001(3) 0.9522(3)
C4_2 C 0.5630(4) 0.0001(3) 0.5478(3)
O8_2 O 0.6822(3) 0.9884(2) 0.5223(2)
C3_2 C 0.0044(4) 0.9336(3) 0.4989(3)
Dy2 Dy 0.714697(16) 0.986885(13) 0.332401(13)
O20_2 O 0.4672(3) 0.9897(2) 0.3566(2)
C8_2 C 0.4370(4) 0.9999(3) 0.4522(3)
O16_2 O 0.8973(3) 0.1115(2) 0.4360(3)
C7_2 C 0.9956(4) 0.0664(3) 0.5011(3)
O6_2 O 0.9132(3) 0.8820(2) 0.4328(2)
H3_2 H 0.0028 0.5373 0.3478
O1_2 O 0.6901(3) 0.3632(2) 0.2928(2)
O2_2 O 0.6352(3) 0.1818(2) 0.3288(2)
O3_2 O 0.8613(3) 0.2878(2) 0.1560(2)
O4_2 O 0.8203(3) 0.1062(2) 0.2036(2)
O9_2 O 0.9475(3) 0.4799(3) 0.3436(2)
H1_2 H 0.9950 0.4180 0.3468
H2_2 H 0.9010 0.4818 0.3971
C1_2 C 0.7004(4) 0.2570(3) 0.2830(3)
C2_2 C 0.8029(4) 0.2129(3) 0.2069(3)
O11 O 0.8099(3) 0.8632(2) 0.2072(2)
O12_2 O 0.8648(3) 0.6818(2) 0.1712(2)
O14 O 0.6387(3) 0.7878(2) 0.3440(2)
O15_2 O 0.6797(3) 0.6062(2) 0.2964(2)
H6_2 H 0.4972 0.0373 0.1522
C5_2 C 0.7996(4) 0.7570(3) 0.2170(3)
C6_2 C 0.6971(4) 0.7129(3) 0.2931(3)
O24_2 O 0.5525(3) 0.9799(3) 0.1564(2)
H4_2 H 0.5050 0.9180 0.1532
H5_2 H 0.5990 0.9818 0.1029
loop_
_geom_bond_atom_site_label_1
_geom_bond_atom_site_label_2
_geom_bond_site_symmetry_1
_geom_bond_site_symmetry_2
O10 Dy3 1_555 1_555
O13 Dy3 1_555 1_555
O19 Dy3 1_555 1_555
O21 Dy3 1_555 1_555
O23 Dy3 1_555 1_555
O24 Dy3 1_555 1_555
H4 O24 1_555 1_555
H5 O24 1_555 1_555
O6 C3 1_555 1_555
Dy4 O6 1_555 1_555
O16 Dy4 1_555 1_555
O20 C8 1_555 1_555
O22 C8 1_555 1_555
Dy1 O1 1_555 1_555
O1 C1 1_555 1_555
O2 C1 1_555 1_555
O3 Dy1 1_555 1_555
O4 C2 1_555 1_555
O5 Dy1 1_555 1_555
O9 Dy1 1_555 1_555
H1 O9 1_555 1_555
H2 O9 1_555 1_555
C1 C2 1_555 1_555
C2 O3 1_555 1_555
O10 C5 1_555 1_555
O12 Dy1 1_555 1_555
O15 Dy1 1_555 1_555
O18 Dy1 1_555 1_555
C5 O12 1_555 1_555
C6 O13 1_555 1_555
O15 C6 1_555 1_555
O18 C7 1_555 1_555
C5 C6 1_555 1_555
O8 C4 1_555 1_555
C4 O7 1_555 1_555
C4_2 O21 1_555 1_555
C3_2 O17 1_555 1_555
Dy2 O8_2 1_555 1_555
O20_2 Dy2 1_555 1_555
O20_2 C8_2 1_555 1_555
O16_2 C7_2 1_555 1_555
Dy2 O6_2 1_555 1_555
Dy4 O1_2 1_555 1_555
O1_2 C1_2 1_555 1_555
O2_2 C1_2 1_555 1_555
O3_2 Dy4 1_555 1_555
O4_2 C2_2 1_555 1_555
O9_2 Dy4 1_555 1_555
H1_2 O9_2 1_555 1_555
H2_2 O9_2 1_555 1_555
C1_2 C2_2 1_555 1_555
C2_2 O3_2 1_555 1_555
Dy2 O11 1_555 1_555
O11 C5_2 1_555 1_555
O12_2 Dy4 1_555 1_555
O14 Dy2 1_555 1_555
O15_2 Dy4 1_555 1_555
C5_2 O12_2 1_555 1_555
C6_2 O14 1_555 1_555
O15_2 C6_2 1_555 1_555
C5_2 C6_2 1_555 1_555
O24_2 Dy2 1_555 1_555
H4_2 O24_2 1_555 1_555
H5_2 O24_2 1_555 1_555

#END
