
###############################################################################
#
# This file contains modified crystal structure data generated from the
# MOF subset of the Cambridge Structural Database (CSD) v543 
# hosted by the Cambridge Crystallographic Data Centre (CCDC).
#
# This work is licensed under the Creative Commons
# Attribution-NonCommercial-ShareAlike 4.0 International License.
# To view a copy of this license, visit
# http://creativecommons.org/licenses/by-nc-sa/4.0/
# or send a letter to
# Creative Commons, PO Box 1866, Mountain View, CA 94042, USA.
#
# CIF created using the CSD Python API on 29 September 2022
# The structure has been converted into the P1 space group
# The structure has a 3D framework
# The original CSD entry WEMFAX is in the monoclinic crystal system
# The framework has been calculated to contain at least 10.0% void space
# The void calculation uses a probe of radius 1.32A, grid spacing 0.4
#
###############################################################################

data_WEMFAX
_chemical_formula_moiety         '(C16 H12 Gd4 O34)n'
_symmetry_cell_setting           triclinic
_symmetry_space_group_name_H-M   'P 1'
_symmetry_Int_Tables_number      1
_space_group_name_Hall           'P 1'
loop_
_symmetry_equiv_pos_site_id
_symmetry_equiv_pos_as_xyz
1 x,y,z
_cell_length_a                   9.6590(19)
_cell_length_b                   11.718(2)
_cell_length_c                   12.281(3)
_cell_angle_alpha                90
_cell_angle_beta                 99.20(3)
_cell_angle_gamma                90
_cell_volume                     1372.13
loop_
_atom_site_label
_atom_site_type_symbol
_atom_site_fract_x
_atom_site_fract_y
_atom_site_fract_z
Gd3 Gd 0.285951(17) 0.014802(14) 0.168646(13)
O10 O 0.3603(3) 0.2143(2) 0.1561(2)
O13 O 0.1916(3) 0.1395(2) 0.2940(2)
O17 O 0.5334(3) 0.0125(2) 0.1429(2)
O21 O 0.0845(3) 0.1180(2) 0.0663(2)
O24 O 0.4513(3) 0.0222(2) 0.3458(2)
H4 H 0.4986 0.0836 0.3486
H5 H 0.4053 0.0204 0.3993
O19 O 0.3186(3) 0.0118(2) 0.9775(2)
Gd1 Gd 0.214049(17) 0.514802(14) 0.331354(13)
O1 O 0.1397(3) 0.7143(2) 0.3439(2)
O2 O 0.1827(3) 0.8947(2) 0.2990(2)
O3 O 0.3084(3) 0.6395(2) 0.2060(2)
O4 O 0.3655(3) 0.8191(2) 0.1723(2)
O7 O 0.4155(3) 0.6180(2) 0.4337(2)
O8 O 0.6020(3) 0.6100(2) 0.5658(3)
O9 O 0.0487(3) 0.5222(2) 0.1542(2)
H1 H 0.0014 0.5836 0.1514
H2 H 0.0947 0.5204 0.1007
C1 C 0.1986(4) 0.7892(3) 0.2938(3)
C2 C 0.2994(4) 0.7454(3) 0.2168(3)
C4 C 0.5053(3) 0.5660(3) 0.4999(3)
Gd4 Gd 0.785951(17) 0.485198(14) 0.668646(13)
O12 O 0.3173(3) 0.3947(2) 0.2010(2)
O15 O 0.1345(3) 0.3191(2) 0.3277(2)
O16 O 0.0334(3) 0.4875(2) 0.6429(2)
O18 O 0.1814(3) 0.5118(2) 0.5225(2)
O20 O 0.5845(3) 0.3820(2) 0.5663(2)
O22 O 0.3980(3) 0.3900(2) 0.4342(3)
O23 O 0.1020(3) 0.8900(2) 0.0658(3)
H6 H 0.5064 0.9653 0.3500
C5 C 0.3014(4) 0.2892(3) 0.2062(3)
C6 C 0.2006(4) 0.2454(3) 0.2832(3)
C7 C 0.0629(4) 0.4995(3) 0.5475(3)
C8 C 0.4947(3) 0.4340(3) 0.5001(3)
O5 O 0.9666(3) 0.5125(2) 0.3571(2)
O6 O 0.8186(3) 0.4882(2) 0.4775(2)
H3 H 0.9936 0.4653 0.1500
C3 C 0.9371(4) 0.5005(3) 0.4525(3)
C3_2 C 0.5629(4) 0.0005(3) 0.0475(3)
O6_2 O 0.6814(3) 0.9882(2) 0.0225(2)
Gd2 Gd 0.714049(17) 0.985198(14) 0.831354(13)
O16_2 O 0.4666(3) 0.9875(2) 0.8571(2)
C7_2 C 0.4371(4) 0.9995(3) 0.9525(3)
C8_2 C 0.0053(3) 0.9340(3) 0.9999(3)
C4_2 C 0.9947(3) 0.0660(3) 0.0001(3)
O8_2 O 0.8980(3) 0.1100(2) 0.9342(3)
O20_2 O 0.9155(3) 0.8820(2) 0.9337(2)
H3_2 H 0.0064 0.5347 0.8500
O1_2 O 0.8603(3) 0.2857(2) 0.6561(2)
O2_2 O 0.8173(3) 0.1053(2) 0.7010(2)
O3_2 O 0.6916(3) 0.3605(2) 0.7940(2)
O4_2 O 0.6345(3) 0.1809(2) 0.8277(2)
O9_2 O 0.9513(3) 0.4778(2) 0.8458(2)
H1_2 H 0.9986 0.4164 0.8486
H2_2 H 0.9053 0.4796 0.8993
C1_2 C 0.8014(4) 0.2108(3) 0.7062(3)
C2_2 C 0.7006(4) 0.2546(3) 0.7832(3)
O11 O 0.6397(3) 0.7857(2) 0.8439(2)
O12_2 O 0.6827(3) 0.6053(2) 0.7990(2)
O14 O 0.8084(3) 0.8605(2) 0.7060(2)
O15_2 O 0.8655(3) 0.6809(2) 0.6723(2)
H6_2 H 0.4936 0.0347 0.6500
C5_2 C 0.6986(4) 0.7108(3) 0.7938(3)
C6_2 C 0.7994(4) 0.7546(3) 0.7168(3)
O24_2 O 0.5487(3) 0.9778(2) 0.6542(2)
H4_2 H 0.5014 0.9164 0.6514
H5_2 H 0.5947 0.9796 0.6007
loop_
_geom_bond_atom_site_label_1
_geom_bond_atom_site_label_2
_geom_bond_site_symmetry_1
_geom_bond_site_symmetry_2
O10 Gd3 1_555 1_555
O13 Gd3 1_555 1_555
O17 Gd3 1_555 1_555
O21 Gd3 1_555 1_555
O24 Gd3 1_555 1_555
H4 O24 1_555 1_555
H5 O24 1_555 1_555
Gd1 O1 1_555 1_555
O1 C1 1_555 1_555
O2 C1 1_555 1_555
O3 Gd1 1_555 1_555
O4 C2 1_555 1_555
O7 Gd1 1_555 1_555
O8 C4 1_555 1_555
O9 Gd1 1_555 1_555
H1 O9 1_555 1_555
H2 O9 1_555 1_555
C1 C2 1_555 1_555
C2 O3 1_555 1_555
C4 O7 1_555 1_555
Gd4 O8 1_555 1_555
O10 C5 1_555 1_555
O12 Gd1 1_555 1_555
O15 Gd1 1_555 1_555
O18 Gd1 1_555 1_555
O20 Gd4 1_555 1_555
O22 Gd1 1_555 1_555
C5 O12 1_555 1_555
C6 O13 1_555 1_555
C8 C4 1_555 1_555
O15 C6 1_555 1_555
O16 C7 1_555 1_555
O18 C7 1_555 1_555
O20 C8 1_555 1_555
O22 C8 1_555 1_555
C5 C6 1_555 1_555
O6 C3 1_555 1_555
C3 O5 1_555 1_555
Gd4 O6 1_555 1_555
C3_2 O17 1_555 1_555
O16_2 Gd2 1_555 1_555
O16_2 C7_2 1_555 1_555
O20_2 Gd2 1_555 1_555
Gd4 O1_2 1_555 1_555
O1_2 C1_2 1_555 1_555
O2_2 C1_2 1_555 1_555
O3_2 Gd4 1_555 1_555
O4_2 C2_2 1_555 1_555
O9_2 Gd4 1_555 1_555
H1_2 O9_2 1_555 1_555
H2_2 O9_2 1_555 1_555
C1_2 C2_2 1_555 1_555
C2_2 O3_2 1_555 1_555
Gd2 O11 1_555 1_555
O11 C5_2 1_555 1_555
O12_2 Gd4 1_555 1_555
O14 Gd2 1_555 1_555
O15_2 Gd4 1_555 1_555
C5_2 O12_2 1_555 1_555
C6_2 O14 1_555 1_555
O15_2 C6_2 1_555 1_555
C5_2 C6_2 1_555 1_555
O24_2 Gd2 1_555 1_555
H4_2 O24_2 1_555 1_555
H5_2 O24_2 1_555 1_555

#END
