
###############################################################################
#
# This file contains modified crystal structure data generated from the
# MOF subset of the Cambridge Structural Database (CSD) v543 
# hosted by the Cambridge Crystallographic Data Centre (CCDC).
#
# This work is licensed under the Creative Commons
# Attribution-NonCommercial-ShareAlike 4.0 International License.
# To view a copy of this license, visit
# http://creativecommons.org/licenses/by-nc-sa/4.0/
# or send a letter to
# Creative Commons, PO Box 1866, Mountain View, CA 94042, USA.
#
# CIF created using the CSD Python API on 29 September 2022
# The structure has been converted into the P1 space group
# The structure has a 3D framework
# The original CSD entry WEMGAY is in the orthorhombic crystal system
# The framework has been calculated to contain at least 10.0% void space
# The void calculation uses a probe of radius 1.32A, grid spacing 0.4
#
###############################################################################

data_WEMGAY
_chemical_formula_moiety         '(C44 H28 Be16 O42)n'
_symmetry_cell_setting           triclinic
_symmetry_space_group_name_H-M   'P 1'
_symmetry_Int_Tables_number      1
_space_group_name_Hall           'P 1'
loop_
_symmetry_equiv_pos_site_id
_symmetry_equiv_pos_as_xyz
1 x,y,z
_cell_length_a                   10.3705(4)
_cell_length_b                   11.2422(6)
_cell_length_c                   18.4030(7)
_cell_angle_alpha                90
_cell_angle_beta                 90
_cell_angle_gamma                90
_cell_volume                     2145.55
loop_
_atom_site_label
_atom_site_type_symbol
_atom_site_fract_x
_atom_site_fract_y
_atom_site_fract_z
Be1 Be 0.2500 0.2500 0.3027(2)
Be2 Be -0.0000 0.2204(4) 0.2500
O1 O 0.19449(15) 0.14658(16) 0.35995(8)
O3 O 0.12905(14) 0.29534(15) 0.25815(9)
H1 H 0.1338 0.3693 0.2357
C1 C 0.0861(3) 0.0938(3) 0.5000
H2 H 0.1448 0.1564 0.5000
C2 C 0.0430(2) 0.0479(2) 0.43402(12)
C3 C 0.0795(2) 0.1120(2) 0.36603(12)
Be7 Be 0.2500 0.2500 0.6973(2)
Be10 Be 0.0000 0.2204(4) 0.7500
O6 O 0.19449(15) 0.14658(16) 0.64005(8)
O7 O 0.30551(15) 0.35342(16) 0.35995(8)
O13 O 0.00958(15) 0.13258(15) 0.17803(8)
O18 O 0.37095(14) 0.20466(15) 0.25815(9)
C7 C 0.0430(2) 0.0479(2) 0.56598(12)
C10 C 0.0795(2) 0.1120(2) 0.63397(12)
Be3 Be 0.2500 0.7500 0.1973(2)
Be8 Be -0.0000 0.7796(4) 0.2500
Be9 Be -0.0000 0.7796(4) 0.7500
O8 O 0.30551(15) 0.64658(16) 0.14005(8)
O9 O 0.19449(15) 0.85342(16) 0.14005(8)
O10 O 0.00958(15) 0.86742(15) 0.32197(8)
O11 O 0.00958(15) 0.86742(15) 0.67803(8)
O17 O 0.12905(14) 0.70466(15) 0.24185(9)
O19 O 0.37095(14) 0.79534(15) 0.24185(9)
H5 H 0.1338 0.6307 0.2643
Be2_2 Be 1.0000 0.2204(4) 0.2500
O2 O 0.99042(15) 0.13258(15) 0.32197(8)
Be5 Be 0.7500 0.2500 0.1973(2)
Be10_2 Be 1.0000 0.2204(4) 0.7500
O12 O 0.99042(15) 0.13258(15) 0.67803(8)
O16 O 0.87095(14) 0.29534(15) 0.24185(9)
H4 H 0.8662 0.3693 0.2643
Be4 Be 0.7500 0.7500 0.3027(2)
Be6 Be 0.7500 0.7500 0.6973(2)
Be8_2 Be 1.0000 0.7796(4) 0.2500
Be9_2 Be 1.0000 0.7796(4) 0.7500
O4 O 0.80551(15) 0.85342(16) 0.35995(8)
O5 O 0.80551(15) 0.85342(16) 0.64005(8)
O14 O 0.99042(15) 0.86742(15) 0.17803(8)
O15 O 0.87095(14) 0.70466(15) 0.25815(9)
H3 H 0.8662 0.6307 0.2357
C4 C 0.9139(3) 0.9062(3) 0.5000
H6 H 0.8552 0.8436 0.5000
C5 C 0.9570(2) 0.9521(2) 0.43402(12)
C6 C 0.9570(2) 0.9521(2) 0.56598(12)
C8 C 0.9205(2) 0.8880(2) 0.36603(12)
C9 C 0.9205(2) 0.8880(2) 0.63397(12)
O8_2 O 0.69449(15) 0.35342(16) 0.14005(8)
O9_2 O 0.80551(15) 0.14658(16) 0.14005(8)
O19_2 O 0.62905(14) 0.20466(15) 0.24185(9)
O7_2 O 0.69449(15) 0.64658(16) 0.35995(8)
O18_2 O 0.62905(14) 0.79534(15) 0.25815(9)
O12_2 O 0.00958(15) 0.13258(15) 0.82197(8)
C4_2 C 0.0861(3) 0.9062(3) -0.0000
H6_2 H 0.1448 0.8436 -0.0000
C5_2 C 0.0430(2) 0.9521(2) 0.06598(12)
C8_2 C 0.0795(2) 0.8880(2) 0.13397(12)
Be6_2 Be 0.2500 0.7500 0.8027(2)
O5_2 O 0.19449(15) 0.85342(16) 0.85995(8)
C4_3 C 0.0861(3) 0.9062(3) 1.0000
H6_3 H 0.1448 0.8436 1.0000
C6_2 C 0.0430(2) 0.9521(2) 0.93402(12)
C9_2 C 0.0795(2) 0.8880(2) 0.86603(12)
C1_2 C 0.9139(3) 0.0938(3) -0.0000
H2_2 H 0.8552 0.1564 -0.0000
C2_2 C 0.9570(2) 0.0479(2) 0.06598(12)
C3_2 C 0.9205(2) 0.1120(2) 0.13397(12)
C1_3 C 0.9139(3) 0.0938(3) 1.0000
H2_3 H 0.8552 0.1564 1.0000
Be7_2 Be 0.7500 0.2500 0.8027(2)
O6_2 O 0.80551(15) 0.14658(16) 0.85995(8)
C7_2 C 0.9570(2) 0.0479(2) 0.93402(12)
C10_2 C 0.9205(2) 0.1120(2) 0.86603(12)
O11_2 O 0.99042(15) 0.86742(15) 0.82197(8)
Be2_3 Be 0.5000 0.7204(4) 0.2500
O2_2 O 0.49042(15) 0.63258(15) 0.32197(8)
H1_2 H 0.6338 0.8693 0.2357
C1_4 C 0.5861(3) 0.5938(3) 0.5000
H2_4 H 0.6448 0.6564 0.5000
C2_3 C 0.5430(2) 0.5479(2) 0.43402(12)
C3_3 C 0.5795(2) 0.6120(2) 0.36603(12)
Be8_3 Be 0.5000 0.2796(4) 0.2500
Be9_3 Be 0.5000 0.2796(4) 0.7500
Be10_3 Be 0.5000 0.7204(4) 0.7500
O5_3 O 0.30551(15) 0.35342(16) 0.64005(8)
O6_3 O 0.69449(15) 0.64658(16) 0.64005(8)
O10_2 O 0.50958(15) 0.36742(15) 0.32197(8)
O11_3 O 0.50958(15) 0.36742(15) 0.67803(8)
O12_3 O 0.49042(15) 0.63258(15) 0.67803(8)
O13_2 O 0.50958(15) 0.63258(15) 0.17803(8)
O14_2 O 0.49042(15) 0.36742(15) 0.17803(8)
H3_2 H 0.3662 0.1307 0.2357
H4_2 H 0.3662 0.8693 0.2643
H5_2 H 0.6338 0.1307 0.2643
C4_4 C 0.4139(3) 0.4062(3) 0.5000
H6_4 H 0.3552 0.3436 0.5000
C5_3 C 0.4570(2) 0.4521(2) 0.43402(12)
C6_3 C 0.4570(2) 0.4521(2) 0.56598(12)
C7_3 C 0.5430(2) 0.5479(2) 0.56598(12)
C8_3 C 0.4205(2) 0.3880(2) 0.36603(12)
C9_3 C 0.4205(2) 0.3880(2) 0.63397(12)
C10_3 C 0.5795(2) 0.6120(2) 0.63397(12)
C1_5 C 0.4139(3) 0.5938(3) -0.0000
H2_5 H 0.3552 0.6564 -0.0000
C2_4 C 0.4570(2) 0.5479(2) 0.06598(12)
C3_4 C 0.4205(2) 0.6120(2) 0.13397(12)
C4_5 C 0.5861(3) 0.4062(3) -0.0000
H6_5 H 0.6448 0.3436 -0.0000
C5_4 C 0.5430(2) 0.4521(2) 0.06598(12)
C8_4 C 0.5795(2) 0.3880(2) 0.13397(12)
C1_6 C 0.4139(3) 0.5938(3) 1.0000
H2_6 H 0.3552 0.6564 1.0000
O5_4 O 0.69449(15) 0.35342(16) 0.85995(8)
O6_4 O 0.30551(15) 0.64658(16) 0.85995(8)
O11_4 O 0.49042(15) 0.36742(15) 0.82197(8)
O12_4 O 0.50958(15) 0.63258(15) 0.82197(8)
C4_6 C 0.5861(3) 0.4062(3) 1.0000
H6_6 H 0.6448 0.3436 1.0000
C6_4 C 0.5430(2) 0.4521(2) 0.93402(12)
C7_4 C 0.4570(2) 0.5479(2) 0.93402(12)
C9_4 C 0.5795(2) 0.3880(2) 0.86603(12)
C10_4 C 0.4205(2) 0.6120(2) 0.86603(12)
O15_2 O 0.12905(14) 0.29534(15) 0.74185(9)
H3_3 H 0.1338 0.3693 0.7643
O16_2 O 0.12905(14) 0.70466(15) 0.75815(9)
H4_3 H 0.1338 0.6307 0.7357
O17_2 O 0.87095(14) 0.29534(15) 0.75815(9)
O19_3 O 0.62905(14) 0.20466(15) 0.75815(9)
H5_3 H 0.8662 0.3693 0.7357
O3_2 O 0.87095(14) 0.70466(15) 0.74185(9)
H1_3 H 0.8662 0.6307 0.7643
O18_3 O 0.62905(14) 0.79534(15) 0.74185(9)
O18_4 O 0.37095(14) 0.20466(15) 0.74185(9)
O19_4 O 0.37095(14) 0.79534(15) 0.75815(9)
H1_4 H 0.3662 0.1307 0.7643
H3_4 H 0.6338 0.8693 0.7643
H4_4 H 0.6338 0.1307 0.7357
H5_4 H 0.3662 0.8693 0.7357
loop_
_geom_bond_atom_site_label_1
_geom_bond_atom_site_label_2
_geom_bond_site_symmetry_1
_geom_bond_site_symmetry_2
Be1 O1 1_555 1_555
O1 C3 1_555 1_555
O3 Be1 1_555 1_555
H1 O3 1_555 1_555
C1 H2 1_555 1_555
C2 C1 1_555 1_555
C3 C2 1_555 1_555
Be7 O6 1_555 1_555
O6 C10 1_555 1_555
O7 Be1 1_555 1_555
O13 Be2 1_555 1_555
O18 Be1 1_555 1_555
C7 C1 1_555 1_555
C10 C7 1_555 1_555
Be2 O3 1_555 1_555
Be3 O8 1_555 1_555
Be8 O10 1_555 1_555
Be9 O11 1_555 1_555
O9 Be3 1_555 1_555
O17 Be3 1_555 1_555
O19 Be3 1_555 1_555
H5 O17 1_555 1_555
Be8 O17 1_555 1_555
Be2_2 O2 1_555 1_555
Be5 O16 1_555 1_555
Be10_2 O12 1_555 1_555
O16 Be2_2 1_555 1_555
H4 O16 1_555 1_555
Be4 O4 1_555 1_555
Be6 O5 1_555 1_555
O4 C8 1_555 1_555
O5 C9 1_555 1_555
O14 Be8_2 1_555 1_555
O15 Be4 1_555 1_555
H3 O15 1_555 1_555
C4 H6 1_555 1_555
C6 C4 1_555 1_555
C8 C5 1_555 1_555
C9 C6 1_555 1_555
Be8_2 O15 1_555 1_555
C4 C5 1_555 1_555
Be5 O8_2 1_555 1_555
O9_2 Be5 1_555 1_555
O19_2 Be5 1_555 1_555
O7_2 Be4 1_555 1_555
O18_2 Be4 1_555 1_555
Be10 O12_2 1_555 1_555
O9 C8_2 1_555 1_555
C4_2 H6_2 1_555 1_555
C8_2 C5_2 1_555 1_555
C4_2 C5_2 1_555 1_555
Be6_2 O5_2 1_555 1_555
O5_2 C9_2 1_555 1_555
C4_3 H6_3 1_555 1_555
C6_2 C4_3 1_555 1_555
C9_2 C6_2 1_555 1_555
O9_2 C3_2 1_555 1_555
C1_2 H2_2 1_555 1_555
C2_2 C1_2 1_555 1_555
C3_2 C2_2 1_555 1_555
C1_3 H2_3 1_555 1_555
Be7_2 O6_2 1_555 1_555
O6_2 C10_2 1_555 1_555
C7_2 C1_3 1_555 1_555
C10_2 C7_2 1_555 1_555
Be9_2 O11_2 1_555 1_555
Be2_3 O2_2 1_555 1_555
O7_2 C3_3 1_555 1_555
O2_2 C3_3 1_555 1_555
H1_2 O18_2 1_555 1_555
C1_4 H2_4 1_555 1_555
C2_3 C1_4 1_555 1_555
C3_3 C2_3 1_555 1_555
Be7 O5_3 1_555 1_555
Be6 O6_3 1_555 1_555
Be8_3 O10_2 1_555 1_555
Be9_3 O11_3 1_555 1_555
Be10_3 O12_3 1_555 1_555
O7 C8_3 1_555 1_555
O5_3 C9_3 1_555 1_555
O6_3 C10_3 1_555 1_555
O10_2 C8_3 1_555 1_555
O11_3 C9_3 1_555 1_555
O12_3 C10_3 1_555 1_555
O13_2 Be2_3 1_555 1_555
O14_2 Be8_3 1_555 1_555
O19 Be2_3 1_555 1_555
H3_2 O18 1_555 1_555
H4_2 O19 1_555 1_555
H5_2 O19_2 1_555 1_555
C4_4 H6_4 1_555 1_555
C5_3 C2_3 1_555 1_555
C6_3 C4_4 1_555 1_555
C7_3 C1_4 1_555 1_555
C8_3 C5_3 1_555 1_555
C9_3 C6_3 1_555 1_555
C10_3 C7_3 1_555 1_555
Be2_3 O18_2 1_555 1_555
Be8_3 O18 1_555 1_555
Be8_3 O19_2 1_555 1_555
C4_4 C5_3 1_555 1_555
C6_3 C7_3 1_555 1_555
O8 C3_4 1_555 1_555
O13_2 C3_4 1_555 1_555
C1_5 H2_5 1_555 1_555
C2_4 C1_5 1_555 1_555
C3_4 C2_4 1_555 1_555
O8_2 C8_4 1_555 1_555
O14_2 C8_4 1_555 1_555
C4_5 H6_5 1_555 1_555
C5_4 C2_4 1_555 1_555
C8_4 C5_4 1_555 1_555
C4_5 C5_4 1_555 1_555
C1_6 H2_6 1_555 1_555
Be7_2 O5_4 1_555 1_555
Be6_2 O6_4 1_555 1_555
Be9_3 O11_4 1_555 1_555
Be10_3 O12_4 1_555 1_555
O5_4 C9_4 1_555 1_555
O6_4 C10_4 1_555 1_555
O11_4 C9_4 1_555 1_555
O12_4 C10_4 1_555 1_555
C4_6 H6_6 1_555 1_555
C6_4 C4_6 1_555 1_555
C7_4 C1_6 1_555 1_555
C9_4 C6_4 1_555 1_555
C10_4 C7_4 1_555 1_555
C6_4 C7_4 1_555 1_555
O15_2 Be7 1_555 1_555
H3_3 O15_2 1_555 1_555
Be10 O15_2 1_555 1_555
Be6_2 O16_2 1_555 1_555
O16_2 Be9 1_555 1_555
H4_3 O16_2 1_555 1_555
O17_2 Be7_2 1_555 1_555
O19_3 Be7_2 1_555 1_555
H5_3 O17_2 1_555 1_555
Be10_2 O17_2 1_555 1_555
O3_2 Be6 1_555 1_555
H1_3 O3_2 1_555 1_555
O18_3 Be6 1_555 1_555
Be9_2 O3_2 1_555 1_555
O18_4 Be7 1_555 1_555
O19_4 Be6_2 1_555 1_555
H1_4 O18_4 1_555 1_555
O19_3 Be9_3 1_555 1_555
H3_4 O18_3 1_555 1_555
H4_4 O19_3 1_555 1_555
H5_4 O19_4 1_555 1_555
Be9_3 O18_4 1_555 1_555
Be10_3 O18_3 1_555 1_555
Be10_3 O19_4 1_555 1_555

#END
