
###############################################################################
#
# This file contains modified crystal structure data generated from the
# MOF subset of the Cambridge Structural Database (CSD) v543 
# hosted by the Cambridge Crystallographic Data Centre (CCDC).
#
# This work is licensed under the Creative Commons
# Attribution-NonCommercial-ShareAlike 4.0 International License.
# To view a copy of this license, visit
# http://creativecommons.org/licenses/by-nc-sa/4.0/
# or send a letter to
# Creative Commons, PO Box 1866, Mountain View, CA 94042, USA.
#
# CIF created using the CSD Python API on 29 September 2022
# The structure has been converted into the P1 space group
# The structure has a 3D framework
# The original CSD entry WEMJII is in the orthorhombic crystal system
# The framework has been calculated to contain at least 10.0% void space
# The void calculation uses a probe of radius 1.32A, grid spacing 0.4
# The framework is charged, counterions have been retained in the structure
#
###############################################################################

data_WEMJII
_chemical_formula_moiety         '(C84 H100 Br8 Ca7 N24 O56 1-)n'
_symmetry_cell_setting           triclinic
_symmetry_space_group_name_H-M   'P 1'
_symmetry_Int_Tables_number      1
_space_group_name_Hall           'P 1'
loop_
_symmetry_equiv_pos_site_id
_symmetry_equiv_pos_as_xyz
1 x,y,z
_cell_length_a                   9.5276(10)
_cell_length_b                   28.682(5)
_cell_length_c                   11.657(3)
_cell_angle_alpha                90
_cell_angle_beta                 90
_cell_angle_gamma                90
_cell_volume                     3185.52
loop_
_atom_site_label
_atom_site_type_symbol
_atom_site_fract_x
_atom_site_fract_y
_atom_site_fract_z
C11 C 0.0092(7) 0.2734(3) 0.1771(6)
H11 H 0.0572 0.2932 0.1248
C21 C 0.0092(7) 0.2266(3) 0.1771(6)
H23 H 0.0572 0.2068 0.1248
Ca1 Ca 0.65856(13) 0.46385(5) 0.18746(11)
O1 O 0.6309(5) 0.53857(16) 0.1097(4)
O3 O 0.5252(5) 0.53815(17) 0.6794(4)
O4 O 0.6746(4) 0.54693(17) 0.5351(4)
N1 N 0.4863(5) 0.59366(19) 0.4035(5)
N2 N 0.4947(5) 0.60733(19) 0.2218(5)
C1 C 0.5484(6) 0.5608(2) 0.0466(5)
C2 C 0.4704(7) 0.6024(2) 0.0984(6)
H1 H 0.5009 0.6312 0.0592
H2 H 0.3685 0.5985 0.0846
C3 C 0.4317(6) 0.5829(2) 0.3021(5)
H3 H 0.3587 0.5609 0.2895
C4 C 0.5950(7) 0.6357(3) 0.2725(6)
H4 H 0.6557 0.6569 0.2346
C5 C 0.5897(8) 0.6272(2) 0.3864(6)
H5 H 0.6460 0.6414 0.4439
C6 C 0.4401(6) 0.5757(2) 0.5123(6)
H6 H 0.3637 0.5529 0.4991
H7 H 0.4011 0.6016 0.5584
C7 C 0.5568(6) 0.5521(2) 0.5806(5)
O5 O 0.7200(5) 0.39171(17) 0.2490(5)
O6 O 0.7529(6) 0.33495(19) 0.1233(5)
N3 N 0.9267(6) 0.2872(2) 0.2670(5)
C8 C 0.7779(7) 0.3552(2) 0.2139(7)
C9 C 0.8877(8) 0.3357(2) 0.2958(7)
H8 H 0.9725 0.3555 0.2931
H9 H 0.8504 0.3366 0.3750
C10 C 0.8791(10) 0.2500 0.3206(8)
H10 H 0.8206 0.2500 0.3866
O7 O 0.7722(4) 0.50292(16) 0.3429(4)
H12 H 0.711(7) 0.514(3) 0.406(4)
H13 H 0.843(6) 0.482(2) 0.377(5)
Ca3 Ca 0.34144(13) 0.53615(5) 0.81254(11)
Ca4 Ca 0.84144(13) 0.53615(5) 0.68746(11)
Ca5 Ca 0.65856(13) 0.03615(5) 0.18746(11)
O9 O 0.4777(4) 0.44711(16) 0.0569(4)
O11 O 0.4748(5) 0.46185(17) 0.3206(4)
O14 O 0.8254(4) 0.45307(17) 0.0351(4)
O16 O 0.7200(5) 0.10829(17) 0.2490(5)
O18 O 0.7529(6) 0.16505(19) 0.1233(5)
N6 N 0.9267(6) 0.2128(2) 0.2670(5)
C19 C 0.7779(7) 0.1448(2) 0.2139(7)
C20 C 0.8877(8) 0.1643(2) 0.2958(7)
H21 H 0.9725 0.1445 0.2931
H22 H 0.8504 0.1634 0.3750
O2 O 0.5223(4) 0.55289(16) 0.9431(4)
Ca7 Ca 0.15856(13) 0.46385(5) 0.31254(11)
O8 O 0.3691(5) 0.46143(16) 0.8903(4)
O13 O 0.3254(4) 0.45307(17) 0.4649(4)
O15 O 0.1746(4) 0.54693(17) 0.9649(4)
N4 N 0.5137(5) 0.40634(19) 0.5965(5)
N5 N 0.5053(5) 0.39267(19) 0.7782(5)
C12 C 0.4516(6) 0.4392(2) 0.9534(5)
C13 C 0.5296(7) 0.3976(2) 0.9016(6)
H14 H 0.4991 0.3688 0.9408
H15 H 0.6315 0.4015 0.9154
C14 C 0.5683(6) 0.4171(2) 0.6979(5)
H16 H 0.6413 0.4391 0.7105
C15 C 0.4050(7) 0.3643(3) 0.7275(6)
H17 H 0.3443 0.3431 0.7654
C16 C 0.4103(8) 0.3728(2) 0.6136(6)
H18 H 0.3540 0.3586 0.5561
C17 C 0.5599(6) 0.4243(2) 0.4877(6)
H19 H 0.6363 0.4471 0.5009
H20 H 0.5989 0.3984 0.4416
C18 C 0.4432(6) 0.4479(2) 0.4194(5)
O17 O 0.2800(5) 0.60829(17) 0.7510(5)
O19 O 0.2278(4) 0.49708(16) 0.6571(4)
H24 H 0.289(7) 0.486(3) 0.594(4)
H25 H 0.157(6) 0.518(2) 0.623(5)
C6_2 C 0.0599(6) 0.4243(2) 0.0123(6)
H7_2 H 0.0989 0.3984 0.0584
N1_2 N 0.0137(5) 0.40634(19) 0.9035(5)
N2_2 N 0.0053(5) 0.39267(19) 0.7218(5)
C2_2 C 0.0296(7) 0.3976(2) 0.5984(6)
H2_2 H 0.1315 0.4015 0.5846
C3_2 C 0.0683(6) 0.4171(2) 0.8021(5)
H3_2 H 0.1413 0.4391 0.7895
H6_2 H 0.1363 0.4471 0.9991
O8_2 O 0.1309(5) 0.53857(16) 0.3903(4)
O9_2 O 0.0223(4) 0.55289(16) 0.5569(4)
O11_2 O 0.0252(5) 0.53815(17) 0.8206(4)
C12_2 C 0.0484(6) 0.5608(2) 0.4534(5)
H14_2 H 0.0009 0.6312 0.4408
C15_2 C 0.0950(7) 0.6357(3) 0.2275(6)
H17_2 H 0.1557 0.6569 0.2654
C16_2 C 0.0897(8) 0.6272(2) 0.1136(6)
H18_2 H 0.1460 0.6414 0.0561
O17_2 O 0.2200(5) 0.39171(17) 0.2510(5)
O19_2 O 0.2722(4) 0.50292(16) 0.1571(4)
H24_2 H 0.211(7) 0.514(3) 0.094(4)
H25_2 H 0.343(6) 0.482(2) 0.123(5)
C18_2 C 0.0568(6) 0.5521(2) 0.9194(5)
O3_2 O 0.9748(5) 0.46185(17) 0.1794(4)
C7_2 C 0.9432(6) 0.4479(2) 0.0806(5)
O1_2 O 0.8691(5) 0.46143(16) 0.6097(4)
O2_2 O 0.9777(4) 0.44711(16) 0.4431(4)
C1_2 C 0.9516(6) 0.4392(2) 0.5466(5)
H1_2 H 0.9991 0.3688 0.5592
C4_2 C 0.9050(7) 0.3643(3) 0.7725(6)
H4_2 H 0.8443 0.3431 0.7346
C5_2 C 0.9103(8) 0.3728(2) 0.8864(6)
H5_2 H 0.8540 0.3586 0.9439
O5_2 O 0.7800(5) 0.60829(17) 0.7490(5)
O6_2 O 0.7471(6) 0.66505(19) 0.6233(5)
N3_2 N 0.5733(6) 0.7128(2) 0.7670(5)
C8_2 C 0.7221(7) 0.6448(2) 0.7139(7)
C9_2 C 0.6123(8) 0.6643(2) 0.7958(7)
H8_2 H 0.5275 0.6445 0.7931
H9_2 H 0.6496 0.6634 0.8750
C10_2 C 0.6209(10) 0.7500 0.8206(8)
H10_2 H 0.6794 0.7500 0.8866
C11_2 C 0.4908(7) 0.7266(3) 0.6771(6)
H11_2 H 0.4428 0.7068 0.6248
O7_2 O 0.7278(4) 0.49708(16) 0.8429(4)
H12_2 H 0.789(7) 0.486(3) 0.906(4)
H13_2 H 0.657(6) 0.518(2) 0.877(5)
Ca5_2 Ca 0.84144(13) 0.96385(5) 0.68746(11)
N4_2 N 0.9863(5) 0.59366(19) 0.0965(5)
N5_2 N 0.9947(5) 0.60733(19) 0.2782(5)
C13_2 C 0.9704(7) 0.6024(2) 0.4016(6)
H15_2 H 0.8685 0.5985 0.4154
C14_2 C 0.9317(6) 0.5829(2) 0.1979(5)
H16_2 H 0.8587 0.5609 0.2105
H19_2 H 0.8637 0.5529 0.0009
O16_2 O 0.7800(5) 0.89171(17) 0.7490(5)
O18_2 O 0.7471(6) 0.83495(19) 0.6233(5)
N6_2 N 0.5733(6) 0.7872(2) 0.7670(5)
C19_2 C 0.7221(7) 0.8552(2) 0.7139(7)
C20_2 C 0.6123(8) 0.8357(2) 0.7958(7)
H21_2 H 0.5275 0.8555 0.7931
H22_2 H 0.6496 0.8366 0.8750
C21_2 C 0.4908(7) 0.7734(3) 0.6771(6)
H23_2 H 0.4428 0.7932 0.6248
C17_2 C 0.9401(6) 0.5757(2) 0.9877(6)
H20_2 H 0.9011 0.6016 0.9416
O2_3 O 0.4777(4) 0.05289(16) 0.0569(4)
O12 O 0.4748(5) 0.03815(17) 0.3206(4)
O15_2 O 0.8254(4) 0.04693(17) 0.0351(4)
H25_3 H 0.843(6) 0.018(2) 0.377(5)
O1_3 O 0.3691(5) 0.03857(16) 0.8903(4)
O4_2 O 0.3254(4) 0.04693(17) 0.4649(4)
N1_3 N 0.5137(5) 0.09366(19) 0.5965(5)
N2_3 N 0.5053(5) 0.10733(19) 0.7782(5)
C1_3 C 0.4516(6) 0.0608(2) 0.9534(5)
C2_3 C 0.5296(7) 0.1024(2) 0.9016(6)
H1_3 H 0.4991 0.1312 0.9408
H2_3 H 0.6315 0.0985 0.9154
C3_3 C 0.5683(6) 0.0829(2) 0.6979(5)
H3_3 H 0.6413 0.0609 0.7105
C4_3 C 0.4050(7) 0.1357(3) 0.7275(6)
H4_3 H 0.3443 0.1569 0.7654
C5_3 C 0.4103(8) 0.1272(2) 0.6136(6)
H5_3 H 0.3540 0.1414 0.5561
C6_3 C 0.5599(6) 0.0757(2) 0.4877(6)
H6_3 H 0.6363 0.0529 0.5009
H7_3 H 0.5989 0.1016 0.4416
C7_3 C 0.4432(6) 0.0521(2) 0.4194(5)
O7_3 O 0.2278(4) 0.00292(16) 0.6571(4)
H12_3 H 0.289(7) 0.014(3) 0.594(4)
Ca4_2 Ca 0.15856(13) 0.03615(5) 0.31254(11)
Ca6 Ca 0.34144(13) 0.96385(5) 0.81254(11)
O8_3 O 0.6309(5) 0.96143(16) 0.1097(4)
O10 O 0.5252(5) 0.96185(17) 0.6794(4)
O13_2 O 0.6746(4) 0.95307(17) 0.5351(4)
N4_3 N 0.4863(5) 0.90634(19) 0.4035(5)
N5_3 N 0.4947(5) 0.89267(19) 0.2218(5)
C12_3 C 0.5484(6) 0.9392(2) 0.0466(5)
C13_3 C 0.4704(7) 0.8976(2) 0.0984(6)
H14_3 H 0.5009 0.8688 0.0592
H15_3 H 0.3685 0.9015 0.0846
C14_3 C 0.4317(6) 0.9171(2) 0.3021(5)
H16_3 H 0.3587 0.9391 0.2895
C15_3 C 0.5950(7) 0.8643(3) 0.2725(6)
H17_3 H 0.6557 0.8431 0.2346
C16_3 C 0.5897(8) 0.8728(2) 0.3864(6)
H18_3 H 0.6460 0.8586 0.4439
C17_3 C 0.4401(6) 0.9243(2) 0.5123(6)
H19_3 H 0.3637 0.9471 0.4991
H20_3 H 0.4011 0.8984 0.5584
C18_3 C 0.5568(6) 0.9479(2) 0.5806(5)
O19_3 O 0.7722(4) 0.99708(16) 0.3429(4)
H24_3 H 0.711(7) 0.986(3) 0.406(4)
O5_3 O 0.2800(5) 0.89171(17) 0.7510(5)
O6_3 O 0.2471(6) 0.83495(19) 0.8767(5)
N3_3 N 0.0733(6) 0.7872(2) 0.7330(5)
C8_3 C 0.2221(7) 0.8552(2) 0.7861(7)
C9_3 C 0.1123(8) 0.8357(2) 0.7042(7)
H8_3 H 0.0275 0.8555 0.7069
H9_3 H 0.1496 0.8366 0.6250
C10_3 C 0.1209(10) 0.7500 0.6794(8)
H10_3 H 0.1794 0.7500 0.6134
H13_3 H 0.157(6) 0.982(2) 0.623(5)
O9_3 O 0.5223(4) 0.94711(16) 0.9431(4)
O14_2 O 0.1746(4) 0.95307(17) 0.9649(4)
O18_3 O 0.2471(6) 0.66505(19) 0.8767(5)
N6_3 N 0.0733(6) 0.7128(2) 0.7330(5)
C19_3 C 0.2221(7) 0.6448(2) 0.7861(7)
C20_3 C 0.1123(8) 0.6643(2) 0.7042(7)
H21_3 H 0.0275 0.6445 0.7069
H22_3 H 0.1496 0.6634 0.6250
C17_4 C 0.0599(6) 0.0757(2) 0.0123(6)
H20_4 H 0.0989 0.1016 0.0584
O5_4 O 0.2200(5) 0.10829(17) 0.2510(5)
O6_4 O 0.2529(6) 0.16505(19) 0.3767(5)
N3_4 N 0.4267(6) 0.2128(2) 0.2330(5)
C8_4 C 0.2779(7) 0.1448(2) 0.2861(7)
C9_4 C 0.3877(8) 0.1643(2) 0.2042(7)
H8_4 H 0.4725 0.1445 0.2069
H9_4 H 0.3504 0.1634 0.1250
C10_4 C 0.3791(10) 0.2500 0.1794(8)
H10_4 H 0.3206 0.2500 0.1134
C11_3 C 0.5092(7) 0.2266(3) 0.3229(6)
H11_3 H 0.5572 0.2068 0.3752
H13_4 H 0.343(6) 0.018(2) 0.123(5)
N4_4 N 0.0137(5) 0.09366(19) 0.9035(5)
N5_4 N 0.0053(5) 0.10733(19) 0.7218(5)
C13_4 C 0.0296(7) 0.1024(2) 0.5984(6)
H15_4 H 0.1315 0.0985 0.5846
C14_4 C 0.0683(6) 0.0829(2) 0.8021(5)
H16_4 H 0.1413 0.0609 0.7895
H19_4 H 0.1363 0.0529 0.9991
O18_4 O 0.2529(6) 0.33495(19) 0.3767(5)
N6_4 N 0.4267(6) 0.2872(2) 0.2330(5)
C19_4 C 0.2779(7) 0.3552(2) 0.2861(7)
C20_4 C 0.3877(8) 0.3357(2) 0.2042(7)
H21_4 H 0.4725 0.3555 0.2069
H22_4 H 0.3504 0.3366 0.1250
C21_3 C 0.5092(7) 0.2734(3) 0.3229(6)
H23_3 H 0.5572 0.2932 0.3752
O1_4 O 0.1309(5) 0.96143(16) 0.3903(4)
O2_4 O 0.0223(4) 0.94711(16) 0.5569(4)
C1_4 C 0.0484(6) 0.9392(2) 0.4534(5)
H1_4 H 0.0009 0.8688 0.4408
C4_4 C 0.0950(7) 0.8643(3) 0.2275(6)
H4_4 H 0.1557 0.8431 0.2654
C5_4 C 0.0897(8) 0.8728(2) 0.1136(6)
H5_4 H 0.1460 0.8586 0.0561
O7_4 O 0.2722(4) 0.99708(16) 0.1571(4)
H12_4 H 0.211(7) 0.986(3) 0.094(4)
O12_2 O 0.0252(5) 0.96185(17) 0.8206(4)
C7_4 C 0.0568(6) 0.9479(2) 0.9194(5)
O10_2 O 0.9748(5) 0.03815(17) 0.1794(4)
C18_4 C 0.9432(6) 0.0521(2) 0.0806(5)
O8_4 O 0.8691(5) 0.03857(16) 0.6097(4)
O9_4 O 0.9777(4) 0.05289(16) 0.4431(4)
C12_4 C 0.9516(6) 0.0608(2) 0.5466(5)
H14_4 H 0.9991 0.1312 0.5592
C15_4 C 0.9050(7) 0.1357(3) 0.7725(6)
H17_4 H 0.8443 0.1569 0.7346
C16_4 C 0.9103(8) 0.1272(2) 0.8864(6)
H18_4 H 0.8540 0.1414 0.9439
O19_4 O 0.7278(4) 0.00292(16) 0.8429(4)
H24_4 H 0.789(7) 0.014(3) 0.906(4)
N1_4 N 0.9863(5) 0.90634(19) 0.0965(5)
N2_4 N 0.9947(5) 0.89267(19) 0.2782(5)
C2_4 C 0.9704(7) 0.8976(2) 0.4016(6)
H2_4 H 0.8685 0.9015 0.4154
C3_4 C 0.9317(6) 0.9171(2) 0.1979(5)
H3_4 H 0.8587 0.9391 0.2105
H6_4 H 0.8637 0.9471 0.0009
H25_4 H 0.657(6) 0.982(2) 0.877(5)
C6_4 C 0.9401(6) 0.9243(2) 0.9877(6)
H7_4 H 0.9011 0.8984 0.9416
C11_4 C 0.9908(7) 0.7734(3) 0.8229(6)
H11_4 H 0.9428 0.7932 0.8752
C21_4 C 0.9908(7) 0.7266(3) 0.8229(6)
H23_4 H 0.9428 0.7068 0.8752
Br1 Br 0.78245(14) 0.68701(5) 0.05473(12)
Br1_2 Br 0.71755(14) 0.31299(5) 0.55473(12)
Br1_3 Br 0.21755(14) 0.18701(5) 0.94527(12)
Br1_4 Br 0.28245(14) 0.81299(5) 0.44527(12)
Br1_5 Br 0.21755(14) 0.31299(5) 0.94527(12)
Br1_6 Br 0.28245(14) 0.68701(5) 0.44527(12)
Br1_7 Br 0.78245(14) 0.81299(5) 0.05473(12)
Br1_8 Br 0.71755(14) 0.18701(5) 0.55473(12)
loop_
_geom_bond_atom_site_label_1
_geom_bond_atom_site_label_2
_geom_bond_site_symmetry_1
_geom_bond_site_symmetry_2
H11 C11 1_555 1_555
C21 C11 1_555 1_555
H23 C21 1_555 1_555
Ca1 O1 1_555 1_555
O1 C1 1_555 1_555
O3 C7 1_555 1_555
O4 C7 1_555 1_555
N1 C3 1_555 1_555
N2 C2 1_555 1_555
C1 C2 1_555 1_555
C2 H1 1_555 1_555
H2 C2 1_555 1_555
C3 N2 1_555 1_555
H3 C3 1_555 1_555
C4 N2 1_555 1_555
H4 C4 1_555 1_555
C5 N1 1_555 1_555
H5 C5 1_555 1_555
C6 N1 1_555 1_555
H6 C6 1_555 1_555
H7 C6 1_555 1_555
C7 C6 1_555 1_555
O5 Ca1 1_555 1_555
O6 C8 1_555 1_555
N3 C9 1_555 1_555
C8 O5 1_555 1_555
C9 C8 1_555 1_555
H8 C9 1_555 1_555
H9 C9 1_555 1_555
C10 N3 1_555 1_555
H10 C10 1_555 1_555
O7 Ca1 1_555 1_555
H12 O7 1_555 1_555
H13 O7 1_555 1_555
Ca3 O3 1_555 1_555
Ca4 O4 1_555 1_555
Ca5 O16 1_555 1_555
O9 Ca1 1_555 1_555
O11 Ca1 1_555 1_555
O14 Ca1 1_555 1_555
O16 C19 1_555 1_555
O18 C19 1_555 1_555
N6 C10 1_555 1_555
C19 C20 1_555 1_555
C20 N6 1_555 1_555
H21 C20 1_555 1_555
H22 C20 1_555 1_555
C4 C5 1_555 1_555
Ca3 O2 1_555 1_555
Ca7 O13 1_555 1_555
O8 Ca3 1_555 1_555
O11 C18 1_555 1_555
O13 C18 1_555 1_555
O15 Ca3 1_555 1_555
N4 C14 1_555 1_555
N5 C13 1_555 1_555
C12 O8 1_555 1_555
C13 C12 1_555 1_555
H14 C13 1_555 1_555
H15 C13 1_555 1_555
C14 N5 1_555 1_555
H16 C14 1_555 1_555
C15 N5 1_555 1_555
H17 C15 1_555 1_555
C16 N4 1_555 1_555
H18 C16 1_555 1_555
C17 N4 1_555 1_555
H19 C17 1_555 1_555
H20 C17 1_555 1_555
C18 C17 1_555 1_555
O17 Ca3 1_555 1_555
O19 Ca3 1_555 1_555
H24 O19 1_555 1_555
H25 O19 1_555 1_555
C15 C16 1_555 1_555
H7_2 C6_2 1_555 1_555
N1_2 C3_2 1_555 1_555
N2_2 C2_2 1_555 1_555
H2_2 C2_2 1_555 1_555
C3_2 N2_2 1_555 1_555
H3_2 C3_2 1_555 1_555
O8_2 Ca7 1_555 1_555
C12_2 O8_2 1_555 1_555
H17_2 C15_2 1_555 1_555
H18_2 C16_2 1_555 1_555
O17_2 Ca7 1_555 1_555
O19_2 Ca7 1_555 1_555
H24_2 O19_2 1_555 1_555
H25_2 O19_2 1_555 1_555
O9_2 C12_2 1_555 1_555
C15_2 C16_2 1_555 1_555
O11_2 C18_2 1_555 1_555
O15 C18_2 1_555 1_555
O3_2 C7_2 1_555 1_555
O14 C7_2 1_555 1_555
Ca4 O1_2 1_555 1_555
O1_2 C1_2 1_555 1_555
O2_2 C1_2 1_555 1_555
H4_2 C4_2 1_555 1_555
H5_2 C5_2 1_555 1_555
O5_2 Ca4 1_555 1_555
O6_2 C8_2 1_555 1_555
N3_2 C9_2 1_555 1_555
C8_2 O5_2 1_555 1_555
C9_2 C8_2 1_555 1_555
H8_2 C9_2 1_555 1_555
H9_2 C9_2 1_555 1_555
C10_2 N3_2 1_555 1_555
H10_2 C10_2 1_555 1_555
C11_2 N3_2 1_555 1_555
H11_2 C11_2 1_555 1_555
O7_2 Ca4 1_555 1_555
H12_2 O7_2 1_555 1_555
H13_2 O7_2 1_555 1_555
Ca5_2 O16_2 1_555 1_555
N4_2 C14_2 1_555 1_555
N5_2 C13_2 1_555 1_555
H15_2 C13_2 1_555 1_555
C14_2 N5_2 1_555 1_555
H16_2 C14_2 1_555 1_555
O16_2 C19_2 1_555 1_555
O18_2 C19_2 1_555 1_555
N6_2 C10_2 1_555 1_555
C19_2 C20_2 1_555 1_555
C20_2 N6_2 1_555 1_555
H21_2 C20_2 1_555 1_555
H22_2 C20_2 1_555 1_555
C21_2 C11_2 1_555 1_555
H23_2 C21_2 1_555 1_555
C4_2 C5_2 1_555 1_555
N6_2 C21_2 1_555 1_555
H20_2 C17_2 1_555 1_555
Ca5 O2_3 1_555 1_555
O12 Ca5 1_555 1_555
O15_2 Ca5 1_555 1_555
O1_3 C1_3 1_555 1_555
O12 C7_3 1_555 1_555
O4_2 C7_3 1_555 1_555
N1_3 C3_3 1_555 1_555
N2_3 C2_3 1_555 1_555
C1_3 C2_3 1_555 1_555
C2_3 H1_3 1_555 1_555
H2_3 C2_3 1_555 1_555
C3_3 N2_3 1_555 1_555
H3_3 C3_3 1_555 1_555
C4_3 N2_3 1_555 1_555
H4_3 C4_3 1_555 1_555
C5_3 N1_3 1_555 1_555
H5_3 C5_3 1_555 1_555
C6_3 N1_3 1_555 1_555
H6_3 C6_3 1_555 1_555
H7_3 C6_3 1_555 1_555
C7_3 C6_3 1_555 1_555
H12_3 O7_3 1_555 1_555
Ca4_2 O4_2 1_555 1_555
C4_3 C5_3 1_555 1_555
Ca6 O10 1_555 1_555
Ca5_2 O13_2 1_555 1_555
O10 C18_3 1_555 1_555
O13_2 C18_3 1_555 1_555
N4_3 C14_3 1_555 1_555
N5_3 C13_3 1_555 1_555
C12_3 O8_3 1_555 1_555
C13_3 C12_3 1_555 1_555
H14_3 C13_3 1_555 1_555
H15_3 C13_3 1_555 1_555
C14_3 N5_3 1_555 1_555
H16_3 C14_3 1_555 1_555
C15_3 N5_3 1_555 1_555
H17_3 C15_3 1_555 1_555
C16_3 N4_3 1_555 1_555
H18_3 C16_3 1_555 1_555
C17_3 N4_3 1_555 1_555
H19_3 C17_3 1_555 1_555
H20_3 C17_3 1_555 1_555
C18_3 C17_3 1_555 1_555
H24_3 O19_3 1_555 1_555
C15_3 C16_3 1_555 1_555
O5_3 Ca6 1_555 1_555
O6_3 C8_3 1_555 1_555
N3_3 C9_3 1_555 1_555
C8_3 O5_3 1_555 1_555
C9_3 C8_3 1_555 1_555
H8_3 C9_3 1_555 1_555
H9_3 C9_3 1_555 1_555
C10_3 N3_3 1_555 1_555
H10_3 C10_3 1_555 1_555
O9_3 Ca6 1_555 1_555
O14_2 Ca6 1_555 1_555
O17 C19_3 1_555 1_555
O18_3 C19_3 1_555 1_555
N6_3 C10_3 1_555 1_555
C19_3 C20_3 1_555 1_555
C20_3 N6_3 1_555 1_555
H21_3 C20_3 1_555 1_555
H22_3 C20_3 1_555 1_555
H20_4 C17_4 1_555 1_555
O5_4 Ca4_2 1_555 1_555
O6_4 C8_4 1_555 1_555
N3_4 C9_4 1_555 1_555
C8_4 O5_4 1_555 1_555
C9_4 C8_4 1_555 1_555
H8_4 C9_4 1_555 1_555
H9_4 C9_4 1_555 1_555
C10_4 N3_4 1_555 1_555
H10_4 C10_4 1_555 1_555
C11_3 N3_4 1_555 1_555
H11_3 C11_3 1_555 1_555
N4_4 C14_4 1_555 1_555
N5_4 C13_4 1_555 1_555
H15_4 C13_4 1_555 1_555
C14_4 N5_4 1_555 1_555
H16_4 C14_4 1_555 1_555
O17_2 C19_4 1_555 1_555
O18_4 C19_4 1_555 1_555
N6_4 C10_4 1_555 1_555
C19_4 C20_4 1_555 1_555
C20_4 N6_4 1_555 1_555
H21_4 C20_4 1_555 1_555
H22_4 C20_4 1_555 1_555
C21_3 C11_3 1_555 1_555
H23_3 C21_3 1_555 1_555
N6_4 C21_3 1_555 1_555
O1_4 C1_4 1_555 1_555
O2_4 C1_4 1_555 1_555
H4_4 C4_4 1_555 1_555
H5_4 C5_4 1_555 1_555
H12_4 O7_4 1_555 1_555
C4_4 C5_4 1_555 1_555
O12_2 C7_4 1_555 1_555
O14_2 C7_4 1_555 1_555
O10_2 C18_4 1_555 1_555
O15_2 C18_4 1_555 1_555
C12_4 O8_4 1_555 1_555
H17_4 C15_4 1_555 1_555
H18_4 C16_4 1_555 1_555
H24_4 O19_4 1_555 1_555
O9_4 C12_4 1_555 1_555
C15_4 C16_4 1_555 1_555
N1_4 C3_4 1_555 1_555
N2_4 C2_4 1_555 1_555
H2_4 C2_4 1_555 1_555
C3_4 N2_4 1_555 1_555
H3_4 C3_4 1_555 1_555
H7_4 C6_4 1_555 1_555
H11_4 C11_4 1_555 1_555
C21_4 C11_4 1_555 1_555
H23_4 C21_4 1_555 1_555

#END
