
###############################################################################
#
# This file contains modified crystal structure data generated from the
# MOF subset of the Cambridge Structural Database (CSD) v543 
# hosted by the Cambridge Crystallographic Data Centre (CCDC).
#
# This work is licensed under the Creative Commons
# Attribution-NonCommercial-ShareAlike 4.0 International License.
# To view a copy of this license, visit
# http://creativecommons.org/licenses/by-nc-sa/4.0/
# or send a letter to
# Creative Commons, PO Box 1866, Mountain View, CA 94042, USA.
#
# CIF created using the CSD Python API on 29 September 2022
# The structure has been converted into the P1 space group
# The structure has a 3D framework
# The original CSD entry WEMNAF is in the triclinic crystal system
# The framework has been calculated to contain at least 10.0% void space
# The void calculation uses a probe of radius 1.32A, grid spacing 0.4
#
###############################################################################

data_WEMNAF
_chemical_formula_moiety         '(C28 H26 N18 O11 S2 Zn7)n'
_symmetry_cell_setting           triclinic
_symmetry_space_group_name_H-M   'P 1'
_symmetry_Int_Tables_number      1
_space_group_name_Hall           'P 1'
loop_
_symmetry_equiv_pos_site_id
_symmetry_equiv_pos_as_xyz
1 x,y,z
_cell_length_a                   8.9100(4)
_cell_length_b                   12.0070(5)
_cell_length_c                   12.5260(5)
_cell_angle_alpha                77.708(4)
_cell_angle_beta                 76.629(4)
_cell_angle_gamma                76.378(4)
_cell_volume                     1249.15
loop_
_atom_site_label
_atom_site_type_symbol
_atom_site_fract_x
_atom_site_fract_y
_atom_site_fract_z
Zn8 Zn 0.0000 0.0000 0.0000
Zn8_2 Zn 0.0000 0.0000 1.0000
S1 S 0.05323(13) 0.20020(10) 0.14001(9)
O2 O 0.0732(4) 0.1314(3) 0.0526(2)
O3 O 0.1251(4) 0.3011(3) 0.0955(3)
O4 O 0.1217(5) 0.1314(4) 0.2337(3)
C1 C 0.0017(5) 0.5099(4) 0.6092(3)
C2 C 0.0870(5) 0.4103(4) 0.5654(3)
C4 C 0.0018(5) 0.5187(4) 0.7281(3)
H2 H 0.1053 0.4840 0.7451
C7 C 0.1870(5) 0.3155(4) 0.6345(4)
H5 H 0.2337 0.3507 0.6783
H6 H 0.2716 0.2736 0.5852
C8 C 0.1193(6) 0.1722(4) 0.8058(4)
H7 H 0.1989 0.1765 0.8406
N4 N 0.0159(4) 0.1037(3) 0.8470(3)
N5 N 0.0944(4) 0.2334(3) 0.7092(3)
Zn5 Zn 0.71362(6) 0.25325(4) 0.09607(4)
Zn8_3 Zn 0.0000 1.0000 0.0000
C17 C 0.0831(5) 0.3995(3) 0.4569(3)
H14 H 0.0204 0.4001 0.2641
C19 C 0.1083(6) 0.5946(4) 0.0898(4)
H16 H 0.0232 0.6047 0.0551
C20 C 0.3269(6) 0.5967(5) 0.1255(4)
H17 H 0.4272 0.6112 0.1178
C23 C 0.0723(8) 0.8724(5) 0.2306(5)
H21 H 0.1572 0.9074 0.2245
C24 C 0.1698(5) 0.2883(4) 0.4131(4)
H22 H 0.1099 0.2709 0.3652
H23 H 0.1765 0.2246 0.4753
C25 C 0.3942(5) 0.2758(4) 0.2487(4)
H24 H 0.3444 0.2542 0.2009
C26 C 0.5595(6) 0.3218(5) 0.3188(4)
H25 H 0.6529 0.3385 0.3266
N10 N 0.2420(5) 0.6328(3) 0.0436(3)
N11 N 0.1161(4) 0.5403(3) 0.1923(3)
N12 N 0.2564(6) 0.5398(4) 0.2162(4)
N16 N 0.0284(6) 0.7943(4) 0.3173(4)
N17 N 0.5418(4) 0.2907(3) 0.2253(3)
N20 N 0.3286(4) 0.2962(3) 0.3505(3)
N21 N 0.4337(5) 0.3262(4) 0.3972(3)
Zn3 Zn 0.28638(6) 0.74675(4) 0.90393(4)
Zn8_4 Zn 0.0000 1.0000 1.0000
N19 N 0.4582(4) 0.7093(3) 0.7747(3)
O8 O 0.1183(4) 0.7607(4) 0.8203(3)
O14 O 0.2486(4) 0.9086(3) 0.9474(3)
Zn8_5 Zn 1.0000 0.0000 0.0000
Zn8_6 Zn 1.0000 0.0000 1.0000
C13 C 0.6147(5) 0.1026(4) 0.0282(3)
C14 C 0.5719(5) 0.0004(4) 0.0035(4)
O1 O 0.8817(4) 0.2393(4) 0.1797(3)
O5 O 0.7514(4) 0.0914(3) 0.0526(3)
O6 O 0.5214(4) 0.1972(3) 0.0287(3)
H26 H 0.3504 0.0652 0.0075
C3 C 0.9169(5) 0.6005(3) 0.5431(3)
H1 H 0.9796 0.5999 0.7359
C5 C 0.8917(6) 0.4054(4) 0.9102(4)
H3 H 0.9768 0.3953 0.9449
C6 C 0.6731(6) 0.4033(5) 0.8745(4)
H4 H 0.5728 0.3888 0.8822
C9 C 0.9277(8) 0.1276(5) 0.7694(5)
H8 H 0.8428 0.0926 0.7755
C10 C 0.8302(5) 0.7117(4) 0.5869(4)
H9 H 0.8901 0.7291 0.6348
H10 H 0.8235 0.7754 0.5247
C11 C 0.6058(5) 0.7242(4) 0.7513(4)
H11 H 0.6556 0.7458 0.7991
C12 C 0.4405(6) 0.6782(5) 0.6812(4)
H12 H 0.3471 0.6615 0.6734
N1 N 0.7580(5) 0.3672(3) 0.9564(3)
N2 N 0.8839(4) 0.4597(3) 0.8077(3)
N3 N 0.7436(6) 0.4602(4) 0.7838(4)
N6 N 0.9716(6) 0.2057(4) 0.6827(4)
N8 N 0.6714(4) 0.7038(3) 0.6495(3)
N9 N 0.5663(5) 0.6738(4) 0.6028(3)
Zn8_7 Zn 1.0000 1.0000 0.0000
C15 C 0.9983(5) 0.4901(4) 0.3908(3)
C16 C 0.9130(5) 0.5897(4) 0.4346(3)
C18 C 0.9982(5) 0.4813(4) 0.2719(3)
H15 H 0.8947 0.5160 0.2549
C21 C 0.8130(5) 0.6845(4) 0.3655(4)
H18 H 0.7663 0.6493 0.3217
H19 H 0.7284 0.7264 0.4148
C22 C 0.8807(6) 0.8278(4) 0.1942(4)
H20 H 0.8011 0.8235 0.1594
N13 N 0.9841(4) 0.8963(3) 0.1530(3)
N15 N 0.9056(4) 0.7666(3) 0.2908(3)
Zn8_8 Zn 1.0000 1.0000 1.0000
H13 H 0.6496 0.9348 0.9925
S2 S 0.94677(13) 0.79980(10) 0.85999(9)
C27 C 0.3853(5) 0.8974(4) 0.9718(3)
C28 C 0.4281(5) 0.9996(4) 0.9965(4)
O9 O 0.9268(4) 0.8686(3) 0.9474(2)
O10 O 0.8749(4) 0.6989(3) 0.9045(3)
O11 O 0.8783(5) 0.8686(4) 0.7663(3)
O15 O 0.4786(4) 0.8028(3) 0.9713(3)
loop_
_geom_bond_atom_site_label_1
_geom_bond_atom_site_label_2
_geom_bond_site_symmetry_1
_geom_bond_site_symmetry_2
O2 Zn8 1_555 1_555
O3 S1 1_555 1_555
O4 S1 1_555 1_555
S1 O2 1_555 1_555
Zn8_2 N4 1_555 1_555
C1 C2 1_555 1_555
C2 C7 1_555 1_555
C4 C1 1_555 1_555
H2 C4 1_555 1_555
C7 H5 1_555 1_555
H6 C7 1_555 1_555
C8 H7 1_555 1_555
N4 C8 1_555 1_555
N5 C7 1_555 1_555
Zn5 N17 1_555 1_555
C17 C2 1_555 1_555
C19 H16 1_555 1_555
C20 H17 1_555 1_555
C23 H21 1_555 1_555
C24 C17 1_555 1_555
H22 C24 1_555 1_555
H23 C24 1_555 1_555
C25 H24 1_555 1_555
C26 H25 1_555 1_555
N10 C19 1_555 1_555
N12 C20 1_555 1_555
N16 C23 1_555 1_555
N17 C25 1_555 1_555
N20 C24 1_555 1_555
N21 C26 1_555 1_555
C8 N5 1_555 1_555
C19 N11 1_555 1_555
C20 N10 1_555 1_555
C25 N20 1_555 1_555
C26 N17 1_555 1_555
N11 N12 1_555 1_555
N20 N21 1_555 1_555
N19 Zn3 1_555 1_555
O8 Zn3 1_555 1_555
O14 Zn3 1_555 1_555
Zn8_4 O14 1_555 1_555
C13 C14 1_555 1_555
O1 Zn5 1_555 1_555
O5 Zn5 1_555 1_555
O6 C13 1_555 1_555
Zn8_5 O5 1_555 1_555
C13 O5 1_555 1_555
C5 H3 1_555 1_555
C6 H4 1_555 1_555
C9 H8 1_555 1_555
C10 C3 1_555 1_555
H9 C10 1_555 1_555
H10 C10 1_555 1_555
C11 H11 1_555 1_555
C12 H12 1_555 1_555
N1 C5 1_555 1_555
N3 C6 1_555 1_555
N6 C9 1_555 1_555
N19 C11 1_555 1_555
N8 C10 1_555 1_555
N9 C12 1_555 1_555
Zn8_7 N13 1_555 1_555
C15 C16 1_555 1_555
C16 C3 1_555 1_555
C18 C15 1_555 1_555
H15 C18 1_555 1_555
C21 C16 1_555 1_555
H18 C21 1_555 1_555
H19 C21 1_555 1_555
C22 H20 1_555 1_555
N13 C22 1_555 1_555
N15 C21 1_555 1_555
C5 N2 1_555 1_555
C6 N1 1_555 1_555
C11 N8 1_555 1_555
C12 N19 1_555 1_555
N2 N3 1_555 1_555
N8 N9 1_555 1_555
C22 N15 1_555 1_555
C27 C28 1_555 1_555
O9 Zn8_8 1_555 1_555
O10 S2 1_555 1_555
O11 S2 1_555 1_555
O14 C27 1_555 1_555
O15 C27 1_555 1_555
S2 O9 1_555 1_555

#END
