
###############################################################################
#
# This file contains modified crystal structure data generated from the
# MOF subset of the Cambridge Structural Database (CSD) v543 
# hosted by the Cambridge Crystallographic Data Centre (CCDC).
#
# This work is licensed under the Creative Commons
# Attribution-NonCommercial-ShareAlike 4.0 International License.
# To view a copy of this license, visit
# http://creativecommons.org/licenses/by-nc-sa/4.0/
# or send a letter to
# Creative Commons, PO Box 1866, Mountain View, CA 94042, USA.
#
# CIF created using the CSD Python API on 29 September 2022
# The structure has been converted into the P1 space group
# The structure has a 3D framework
# The original CSD entry WEMXIX is in the trigonal crystal system
# The framework has been calculated to contain at least 10.0% void space
# The void calculation uses a probe of radius 1.32A, grid spacing 0.4
#
###############################################################################

data_WEMXIX
_chemical_formula_moiety         '(C120 H96 Cu12 O60)n'
_symmetry_cell_setting           triclinic
_symmetry_space_group_name_H-M   'P 1'
_symmetry_Int_Tables_number      1
_space_group_name_Hall           'P 1'
loop_
_symmetry_equiv_pos_site_id
_symmetry_equiv_pos_as_xyz
1 x,y,z
_cell_length_a                   21.7696(13)
_cell_length_b                   21.7696(13)
_cell_length_c                   8.7212(7)
_cell_angle_alpha                90
_cell_angle_beta                 90
_cell_angle_gamma                120
_cell_volume                     3579.38
loop_
_atom_site_label
_atom_site_type_symbol
_atom_site_fract_x
_atom_site_fract_y
_atom_site_fract_z
Cu1 Cu 0.46932(3) 0.41708(3) 0.39890(6)
O1 O 0.44483(16) 0.35264(16) 0.2256(3)
O2 O 0.44523(17) 0.13332(16) 0.0458(3)
O3 O 0.54066(16) 0.10786(15) 0.3394(3)
O4 O 0.38602(16) 0.37304(15) 0.0424(3)
O5 O 0.50307(15) 0.05336(15) 0.1128(3)
C2 C 0.4078(2) 0.3363(2) 0.1066(5)
C3 C 0.4873(3) 0.1523(2) 0.1782(5)
H2 H 0.4601 0.1537 0.2650
H3 H 0.5282 0.1993 0.1652
C5 C 0.4076(3) 0.1680(3) 0.0181(5)
C7 C 0.4275(2) 0.2338(2) 0.0768(5)
H8 H 0.4666 0.2566 0.1412
C8 C 0.3880(2) 0.2663(2) 0.0382(5)
C10 C 0.5119(2) 0.0997(2) 0.2094(5)
Cu3 Cu 0.58292(3) 0.05224(4) 0.39890(6)
Cu4 Cu 0.41708(3) 0.46932(3) 0.10110(6)
O6 O 0.44523(17) 0.31191(23) 0.5458(3)
O7 O 0.56720(22) 0.45934(16) 0.3394(3)
O8 O 0.37304(15) 0.38602(16) 0.4576(3)
O9 O 0.49693(15) 0.55029(21) 0.3872(3)
O10 O 0.50307(15) 0.44971(21) 0.6128(3)
C1 C 0.3486(2) 0.1329(2) 0.9265(5)
H1 H 0.3353 0.0877 0.8907
C4 C 0.3298(3) 0.2321(2) 0.9412(5)
H4 H 0.3050 0.2547 0.9125
C6 C 0.2427(3) 0.1255(3) 0.7876(6)
H5 H 0.2270 0.0757 0.7876
H6 H 0.2536 0.1433 0.6847
H7 H 0.2058 0.1328 0.8280
C9 C 0.3085(2) 0.1643(3) 0.8866(5)
Cu2 Cu 0.46932(3) 0.05224(4) 0.89890(6)
Cu5 Cu 0.53068(3) 0.94776(4) 0.10110(6)
Cu5_2 Cu 0.05224(4) 0.58292(5) 0.10110(6)
O1_2 O 0.64736(16) 0.09219(23) 0.2256(3)
O2_2 O 0.86668(16) 0.31191(23) 0.0458(3)
O3_2 O 0.89214(15) 0.43280(22) 0.3394(3)
O4_2 O 0.62696(15) 0.01298(22) 0.0424(3)
O5_2 O 0.94664(15) 0.44971(21) 0.1128(3)
C2_2 C 0.6637(2) 0.0715(3) 0.1066(5)
C3_2 C 0.8477(2) 0.3350(4) 0.1782(5)
H2_2 H 0.8463 0.3064 0.2650
H3_2 H 0.8007 0.3289 0.1652
C5_2 C 0.8320(3) 0.2396(4) 0.0181(5)
C7_2 C 0.7662(2) 0.1937(3) 0.0768(5)
H8_2 H 0.7434 0.2100 0.1412
C8_2 C 0.7337(2) 0.1217(3) 0.0382(5)
C10_2 C 0.9003(2) 0.4122(3) 0.2094(5)
Cu3_2 Cu 0.94776(4) 0.53068(5) 0.39890(6)
O6_2 O 0.68809(23) 0.13332(29) 0.5458(3)
O10_2 O 0.55029(21) 0.05336(26) 0.6128(3)
C1_2 C 0.8671(2) 0.2157(3) 0.9265(5)
H1_2 H 0.9123 0.2476 0.8907
C4_2 C 0.7679(2) 0.0977(4) 0.9412(5)
H4_2 H 0.7453 0.0503 0.9125
C6_2 C 0.8745(3) 0.1172(4) 0.7876(6)
H5_2 H 0.9243 0.1513 0.7876
H6_2 H 0.8567 0.1103 0.6847
H7_2 H 0.8672 0.0730 0.8280
C9_2 C 0.8357(3) 0.1442(4) 0.8866(5)
Cu2_2 Cu 0.94776(4) 0.41708(5) 0.89890(6)
O8_2 O 0.61398(16) 0.98702(22) 0.4576(3)
O9_2 O 0.44971(21) 0.94664(26) 0.3872(3)
O8_3 O 0.01298(22) 0.62696(15) 0.4576(3)
O9_3 O 0.05336(26) 0.50307(15) 0.3872(3)
O1_3 O 0.90781(23) 0.55517(16) 0.2256(3)
O2_3 O 0.68809(23) 0.55477(17) 0.0458(3)
O4_3 O 0.98702(22) 0.61398(16) 0.0424(3)
O5_3 O 0.55029(21) 0.49693(15) 0.1128(3)
C2_3 C 0.9285(3) 0.5922(2) 0.1066(5)
C3_3 C 0.6650(4) 0.5127(3) 0.1782(5)
H2_3 H 0.6936 0.5399 0.2650
H3_3 H 0.6711 0.4718 0.1652
C5_3 C 0.7604(4) 0.5924(3) 0.0181(5)
C7_3 C 0.8063(3) 0.5725(2) 0.0768(5)
H8_3 H 0.7900 0.5334 0.1412
C8_3 C 0.8783(3) 0.6120(2) 0.0382(5)
C10_3 C 0.5878(3) 0.4881(2) 0.2094(5)
O6_3 O 0.86668(29) 0.55477(17) 0.5458(3)
O10_3 O 0.94664(26) 0.49693(15) 0.6128(3)
C1_3 C 0.7843(3) 0.6514(2) 0.9265(5)
H1_3 H 0.7524 0.6647 0.8907
C4_3 C 0.9023(4) 0.6702(3) 0.9412(5)
H4_3 H 0.9497 0.6950 0.9125
C6_3 C 0.8828(4) 0.7573(3) 0.7876(6)
H5_3 H 0.8487 0.7730 0.7876
H6_3 H 0.8897 0.7464 0.6847
H7_3 H 0.9270 0.7942 0.8280
C9_3 C 0.8558(4) 0.6915(2) 0.8866(5)
Cu2_3 Cu 0.58292(5) 0.53068(3) 0.89890(6)
O1_4 O 0.35264(16) 0.44483(16) 0.2744(3)
O2_4 O 0.13332(16) 0.44523(17) 0.4542(3)
O3_3 O 0.10786(15) 0.54066(16) 0.1606(3)
C1_4 C 0.1329(2) 0.3486(2) 0.5735(5)
H1_4 H 0.0877 0.3353 0.6093
C2_4 C 0.3363(2) 0.4078(2) 0.3934(5)
C3_4 C 0.1523(2) 0.4873(3) 0.3218(5)
H2_4 H 0.1537 0.4601 0.2350
H3_4 H 0.1993 0.5282 0.3348
C4_4 C 0.2321(2) 0.3298(3) 0.5588(5)
H4_4 H 0.2547 0.3050 0.5875
C5_4 C 0.1680(3) 0.4076(3) 0.4819(5)
C6_4 C 0.1255(3) 0.2427(3) 0.7124(6)
H5_4 H 0.0757 0.2270 0.7124
H6_4 H 0.1433 0.2536 0.8153
H7_4 H 0.1328 0.2058 0.6720
C7_4 C 0.2338(2) 0.4275(2) 0.4232(5)
H8_4 H 0.2566 0.4666 0.3588
C8_4 C 0.2663(2) 0.3880(2) 0.4618(5)
C9_4 C 0.1643(3) 0.3085(2) 0.6134(5)
C10_4 C 0.0997(2) 0.5119(2) 0.2906(5)
Cu2_4 Cu 0.05224(4) 0.46932(3) 0.60110(6)
O7_2 O 0.45934(16) 0.56720(22) 0.1606(3)
O6_4 O 0.31191(23) 0.44523(17) 0.9542(3)
O10_4 O 0.44971(21) 0.50307(15) 0.8872(3)
O1_5 O 0.55517(16) 0.90781(23) 0.2744(3)
O2_5 O 0.55477(17) 0.68809(23) 0.4542(3)
C1_5 C 0.6514(2) 0.7843(3) 0.5735(5)
H1_5 H 0.6647 0.7524 0.6093
C2_5 C 0.5922(2) 0.9285(3) 0.3934(5)
C3_5 C 0.5127(3) 0.6650(4) 0.3218(5)
H2_5 H 0.5399 0.6936 0.2350
H3_5 H 0.4718 0.6711 0.3348
C4_5 C 0.6702(3) 0.9023(4) 0.5588(5)
H4_5 H 0.6950 0.9497 0.5875
C5_5 C 0.5924(3) 0.7604(4) 0.4819(5)
C6_5 C 0.7573(3) 0.8828(4) 0.7124(6)
H5_5 H 0.7730 0.8487 0.7124
H6_5 H 0.7464 0.8897 0.8153
H7_5 H 0.7942 0.9270 0.6720
C7_5 C 0.5725(2) 0.8063(3) 0.4232(5)
H8_5 H 0.5334 0.7900 0.3588
C8_5 C 0.6120(2) 0.8783(3) 0.4618(5)
C9_5 C 0.6915(2) 0.8558(4) 0.6134(5)
C10_5 C 0.4881(2) 0.5878(3) 0.2906(5)
Cu2_5 Cu 0.53068(3) 0.58292(5) 0.60110(6)
O7_3 O 0.43280(22) 0.89214(27) 0.1606(3)
O6_5 O 0.55477(17) 0.86668(29) 0.9542(3)
O10_5 O 0.49693(15) 0.94664(26) 0.8872(3)
O1_6 O 0.09219(23) 0.64736(16) 0.2744(3)
O2_6 O 0.31191(23) 0.86668(16) 0.4542(3)
C1_6 C 0.2157(3) 0.8671(2) 0.5735(5)
H1_6 H 0.2476 0.9123 0.6093
C2_6 C 0.0715(3) 0.6637(2) 0.3934(5)
C3_6 C 0.3350(4) 0.8477(2) 0.3218(5)
H2_6 H 0.3064 0.8463 0.2350
H3_6 H 0.3289 0.8007 0.3348
C4_6 C 0.0977(4) 0.7679(2) 0.5588(5)
H4_6 H 0.0503 0.7453 0.5875
C5_6 C 0.2396(4) 0.8320(3) 0.4819(5)
C6_6 C 0.1172(4) 0.8745(3) 0.7124(6)
H5_6 H 0.1513 0.9243 0.7124
H6_6 H 0.1103 0.8567 0.8153
H7_6 H 0.0730 0.8672 0.6720
C7_6 C 0.1937(3) 0.7662(2) 0.4232(5)
H8_6 H 0.2100 0.7434 0.3588
C8_6 C 0.1217(3) 0.7337(2) 0.4618(5)
C9_6 C 0.1442(4) 0.8357(3) 0.6134(5)
C10_6 C 0.4122(3) 0.9003(2) 0.2906(5)
Cu2_6 Cu 0.41708(5) 0.94776(4) 0.60110(6)
O6_6 O 0.13332(29) 0.68809(23) 0.9542(3)
O10_6 O 0.05336(26) 0.55029(21) 0.8872(3)
C1_7 C 0.6514(2) 0.8671(2) 0.0735(5)
H1_7 H 0.6647 0.9123 0.1093
C4_7 C 0.6702(3) 0.7679(2) 0.0588(5)
H4_7 H 0.6950 0.7453 0.0875
C6_7 C 0.7573(3) 0.8745(3) 0.2124(6)
H5_7 H 0.7730 0.9243 0.2124
H6_7 H 0.7464 0.8567 0.3153
H7_7 H 0.7942 0.8672 0.1720
C9_7 C 0.6915(2) 0.8357(3) 0.1134(5)
O1_7 O 0.55517(16) 0.64736(16) 0.7744(3)
O3_4 O 0.45934(16) 0.89214(15) 0.6606(3)
O4_4 O 0.61398(16) 0.62696(15) 0.9576(3)
C2_7 C 0.5922(2) 0.6637(2) 0.8934(5)
C3_7 C 0.5127(3) 0.8477(2) 0.8218(5)
H2_7 H 0.5399 0.8463 0.7350
H3_7 H 0.4718 0.8007 0.8348
C5_7 C 0.5924(3) 0.8320(3) 0.9819(5)
C7_7 C 0.5725(2) 0.7662(2) 0.9232(5)
H8_7 H 0.5334 0.7434 0.8588
C8_7 C 0.6120(2) 0.7337(2) 0.9618(5)
C10_7 C 0.4881(2) 0.9003(2) 0.7906(5)
O7_4 O 0.43280(22) 0.54066(16) 0.6606(3)
O8_4 O 0.62696(15) 0.61398(16) 0.5424(3)
O8_5 O 0.38602(16) 0.01298(22) 0.5424(3)
C1_8 C 0.1329(2) 0.7843(3) 0.0735(5)
H1_8 H 0.0877 0.7524 0.1093
C4_8 C 0.2321(2) 0.9023(4) 0.0588(5)
H4_8 H 0.2547 0.9497 0.0875
C6_8 C 0.1255(3) 0.8828(4) 0.2124(6)
H5_8 H 0.0757 0.8487 0.2124
H6_8 H 0.1433 0.8897 0.3153
H7_8 H 0.1328 0.9270 0.1720
C9_8 C 0.1643(3) 0.8558(4) 0.1134(5)
O1_8 O 0.35264(16) 0.90781(23) 0.7744(3)
O3_5 O 0.10786(15) 0.56720(22) 0.6606(3)
O4_5 O 0.37304(15) 0.98702(22) 0.9576(3)
C2_8 C 0.3363(2) 0.9285(3) 0.8934(5)
C3_8 C 0.1523(2) 0.6650(4) 0.8218(5)
H2_8 H 0.1537 0.6936 0.7350
H3_8 H 0.1993 0.6711 0.8348
C5_8 C 0.1680(3) 0.7604(4) 0.9819(5)
C7_8 C 0.2338(2) 0.8063(3) 0.9232(5)
H8_8 H 0.2566 0.7900 0.8588
C8_8 C 0.2663(2) 0.8783(3) 0.9618(5)
C10_8 C 0.0997(2) 0.5878(3) 0.7906(5)
C1_9 C 0.2157(3) 0.3486(2) 0.0735(5)
H1_9 H 0.2476 0.3353 0.1093
C4_9 C 0.0977(4) 0.3298(3) 0.0588(5)
H4_9 H 0.0503 0.3050 0.0875
C6_9 C 0.1172(4) 0.2427(3) 0.2124(6)
H5_9 H 0.1513 0.2270 0.2124
H6_9 H 0.1103 0.2536 0.3153
H7_9 H 0.0730 0.2058 0.1720
C9_9 C 0.1442(4) 0.3085(2) 0.1134(5)
O1_9 O 0.09219(23) 0.44483(16) 0.7744(3)
O4_6 O 0.01298(22) 0.38602(16) 0.9576(3)
C2_9 C 0.0715(3) 0.4078(2) 0.8934(5)
C3_9 C 0.3350(4) 0.4873(3) 0.8218(5)
H2_9 H 0.3064 0.4601 0.7350
H3_9 H 0.3289 0.5282 0.8348
C5_9 C 0.2396(4) 0.4076(3) 0.9819(5)
C7_9 C 0.1937(3) 0.4275(2) 0.9232(5)
H8_9 H 0.2100 0.4666 0.8588
C8_9 C 0.1217(3) 0.3880(2) 0.9618(5)
C10_9 C 0.4122(3) 0.5119(2) 0.7906(5)
O8_6 O 0.98702(22) 0.37304(15) 0.5424(3)
O1_10 O 0.64736(16) 0.55517(16) 0.7256(3)
O3_6 O 0.89214(15) 0.45934(16) 0.8394(3)
C1_10 C 0.8671(2) 0.6514(2) 0.4265(5)
H1_10 H 0.9123 0.6647 0.3907
C2_10 C 0.6637(2) 0.5922(2) 0.6066(5)
C3_10 C 0.8477(2) 0.5127(3) 0.6782(5)
H2_10 H 0.8463 0.5399 0.7650
H3_10 H 0.8007 0.4718 0.6652
C4_10 C 0.7679(2) 0.6702(3) 0.4412(5)
H4_10 H 0.7453 0.6950 0.4125
C5_10 C 0.8320(3) 0.5924(3) 0.5181(5)
C6_10 C 0.8745(3) 0.7573(3) 0.2876(6)
H5_10 H 0.9243 0.7730 0.2876
H6_10 H 0.8567 0.7464 0.1847
H7_10 H 0.8672 0.7942 0.3280
C7_10 C 0.7662(2) 0.5725(2) 0.5768(5)
H8_10 H 0.7434 0.5334 0.6412
C8_10 C 0.7337(2) 0.6120(2) 0.5382(5)
C9_10 C 0.8357(3) 0.6915(2) 0.3866(5)
C10_10 C 0.9003(2) 0.4881(2) 0.7094(5)
O7_5 O 0.54066(16) 0.43280(22) 0.8394(3)
O1_11 O 0.44483(16) 0.09219(23) 0.7256(3)
C1_11 C 0.3486(2) 0.2157(3) 0.4265(5)
H1_11 H 0.3353 0.2476 0.3907
C2_11 C 0.4078(2) 0.0715(3) 0.6066(5)
C3_11 C 0.4873(3) 0.3350(4) 0.6782(5)
H2_11 H 0.4601 0.3064 0.7650
H3_11 H 0.5282 0.3289 0.6652
C4_11 C 0.3298(3) 0.0977(4) 0.4412(5)
H4_11 H 0.3050 0.0503 0.4125
C5_11 C 0.4076(3) 0.2396(4) 0.5181(5)
C6_11 C 0.2427(3) 0.1172(4) 0.2876(6)
H5_11 H 0.2270 0.1513 0.2876
H6_11 H 0.2536 0.1103 0.1847
H7_11 H 0.2058 0.0730 0.3280
C7_11 C 0.4275(2) 0.1937(3) 0.5768(5)
H8_11 H 0.4666 0.2100 0.6412
C8_11 C 0.3880(2) 0.1217(3) 0.5382(5)
C9_11 C 0.3085(2) 0.1442(4) 0.3866(5)
C10_11 C 0.5119(2) 0.4122(3) 0.7094(5)
O7_6 O 0.56720(22) 0.10786(27) 0.8394(3)
O1_12 O 0.90781(23) 0.35264(16) 0.7256(3)
C1_12 C 0.7843(3) 0.1329(2) 0.4265(5)
H1_12 H 0.7524 0.0877 0.3907
C2_12 C 0.9285(3) 0.3363(2) 0.6066(5)
C3_12 C 0.6650(4) 0.1523(2) 0.6782(5)
H2_12 H 0.6936 0.1537 0.7650
H3_12 H 0.6711 0.1993 0.6652
C4_12 C 0.9023(4) 0.2321(2) 0.4412(5)
H4_12 H 0.9497 0.2547 0.4125
C5_12 C 0.7604(4) 0.1680(3) 0.5181(5)
C6_12 C 0.8828(4) 0.1255(3) 0.2876(6)
H5_12 H 0.8487 0.0757 0.2876
H6_12 H 0.8897 0.1433 0.1847
H7_12 H 0.9270 0.1328 0.3280
C7_12 C 0.8063(3) 0.2338(2) 0.5768(5)
H8_12 H 0.7900 0.2566 0.6412
C8_12 C 0.8783(3) 0.2663(2) 0.5382(5)
C9_12 C 0.8558(4) 0.1643(3) 0.3866(5)
C10_12 C 0.5878(3) 0.0997(2) 0.7094(5)
loop_
_geom_bond_atom_site_label_1
_geom_bond_atom_site_label_2
_geom_bond_site_symmetry_1
_geom_bond_site_symmetry_2
Cu1 O1 1_555 1_555
O1 C2 1_555 1_555
O2 C3 1_555 1_555
O3 C10 1_555 1_555
O4 C2 1_555 1_555
O5 C10 1_555 1_555
C2 C8 1_555 1_555
C3 H2 1_555 1_555
H3 C3 1_555 1_555
C5 O2 1_555 1_555
C7 C5 1_555 1_555
H8 C7 1_555 1_555
C10 C3 1_555 1_555
Cu3 O3 1_555 1_555
Cu4 O4 1_555 1_555
O6 Cu1 1_555 1_555
O7 Cu1 1_555 1_555
O8 Cu1 1_555 1_555
O9 Cu1 1_555 1_555
O10 Cu1 1_555 1_555
C7 C8 1_555 1_555
C1 H1 1_555 1_555
C4 H4 1_555 1_555
C6 H5 1_555 1_555
H6 C6 1_555 1_555
H7 C6 1_555 1_555
C9 C1 1_555 1_555
C4 C9 1_555 1_555
C6 C9 1_555 1_555
Cu3 O1_2 1_555 1_555
O1_2 C2_2 1_555 1_555
O2_2 C3_2 1_555 1_555
O3_2 C10_2 1_555 1_555
O4_2 C2_2 1_555 1_555
O5_2 C10_2 1_555 1_555
C2_2 C8_2 1_555 1_555
C3_2 H2_2 1_555 1_555
H3_2 C3_2 1_555 1_555
C5_2 O2_2 1_555 1_555
C7_2 C5_2 1_555 1_555
H8_2 C7_2 1_555 1_555
C10_2 C3_2 1_555 1_555
Cu3_2 O3_2 1_555 1_555
O6_2 Cu3 1_555 1_555
O10_2 Cu3 1_555 1_555
C7_2 C8_2 1_555 1_555
C1_2 H1_2 1_555 1_555
C4_2 H4_2 1_555 1_555
C6_2 H5_2 1_555 1_555
H6_2 C6_2 1_555 1_555
H7_2 C6_2 1_555 1_555
C9_2 C1_2 1_555 1_555
C4_2 C9_2 1_555 1_555
C6_2 C9_2 1_555 1_555
Cu3_2 O1_3 1_555 1_555
O1_3 C2_3 1_555 1_555
O2_3 C3_3 1_555 1_555
O7 C10_3 1_555 1_555
O4_3 C2_3 1_555 1_555
O5_3 C10_3 1_555 1_555
C2_3 C8_3 1_555 1_555
C3_3 H2_3 1_555 1_555
H3_3 C3_3 1_555 1_555
C5_3 O2_3 1_555 1_555
C7_3 C5_3 1_555 1_555
H8_3 C7_3 1_555 1_555
C10_3 C3_3 1_555 1_555
Cu4 O5_3 1_555 1_555
O6_3 Cu3_2 1_555 1_555
O10_3 Cu3_2 1_555 1_555
C7_3 C8_3 1_555 1_555
C1_3 H1_3 1_555 1_555
C4_3 H4_3 1_555 1_555
C6_3 H5_3 1_555 1_555
H6_3 C6_3 1_555 1_555
H7_3 C6_3 1_555 1_555
C9_3 C1_3 1_555 1_555
C4_3 C9_3 1_555 1_555
C6_3 C9_3 1_555 1_555
Cu4 O1_4 1_555 1_555
O1_4 C2_4 1_555 1_555
O2_4 C3_4 1_555 1_555
O3_3 C10_4 1_555 1_555
O8 C2_4 1_555 1_555
O9_3 C10_4 1_555 1_555
C1_4 H1_4 1_555 1_555
C2_4 C8_4 1_555 1_555
C3_4 H2_4 1_555 1_555
H3_4 C3_4 1_555 1_555
C4_4 H4_4 1_555 1_555
C5_4 O2_4 1_555 1_555
C6_4 H5_4 1_555 1_555
H6_4 C6_4 1_555 1_555
H7_4 C6_4 1_555 1_555
C7_4 C5_4 1_555 1_555
H8_4 C7_4 1_555 1_555
C8_4 C4_4 1_555 1_555
C9_4 C1_4 1_555 1_555
C10_4 C3_4 1_555 1_555
Cu2_4 O2_4 1_555 1_555
Cu5_2 O3_3 1_555 1_555
O7_2 Cu4 1_555 1_555
O9_3 Cu2_4 1_555 1_555
C1_4 C5_4 1_555 1_555
C4_4 C9_4 1_555 1_555
C6_4 C9_4 1_555 1_555
C7_4 C8_4 1_555 1_555
Cu5 O1_5 1_555 1_555
O1_5 C2_5 1_555 1_555
O2_5 C3_5 1_555 1_555
O7_2 C10_5 1_555 1_555
O8_2 C2_5 1_555 1_555
O9 C10_5 1_555 1_555
C1_5 H1_5 1_555 1_555
C2_5 C8_5 1_555 1_555
C3_5 H2_5 1_555 1_555
H3_5 C3_5 1_555 1_555
C4_5 H4_5 1_555 1_555
C5_5 O2_5 1_555 1_555
C6_5 H5_5 1_555 1_555
H6_5 C6_5 1_555 1_555
H7_5 C6_5 1_555 1_555
C7_5 C5_5 1_555 1_555
H8_5 C7_5 1_555 1_555
C8_5 C4_5 1_555 1_555
C9_5 C1_5 1_555 1_555
C10_5 C3_5 1_555 1_555
Cu2_5 O2_5 1_555 1_555
O7_3 Cu5 1_555 1_555
O9 Cu2_5 1_555 1_555
C1_5 C5_5 1_555 1_555
C4_5 C9_5 1_555 1_555
C6_5 C9_5 1_555 1_555
C7_5 C8_5 1_555 1_555
Cu5_2 O1_6 1_555 1_555
O1_6 C2_6 1_555 1_555
O2_6 C3_6 1_555 1_555
O7_3 C10_6 1_555 1_555
O8_3 C2_6 1_555 1_555
O9_2 C10_6 1_555 1_555
C1_6 H1_6 1_555 1_555
C2_6 C8_6 1_555 1_555
C3_6 H2_6 1_555 1_555
H3_6 C3_6 1_555 1_555
C4_6 H4_6 1_555 1_555
C5_6 O2_6 1_555 1_555
C6_6 H5_6 1_555 1_555
H6_6 C6_6 1_555 1_555
H7_6 C6_6 1_555 1_555
C7_6 C5_6 1_555 1_555
H8_6 C7_6 1_555 1_555
C8_6 C4_6 1_555 1_555
C9_6 C1_6 1_555 1_555
C10_6 C3_6 1_555 1_555
Cu2_6 O2_6 1_555 1_555
O9_2 Cu2_6 1_555 1_555
C1_6 C5_6 1_555 1_555
C4_6 C9_6 1_555 1_555
C6_6 C9_6 1_555 1_555
C7_6 C8_6 1_555 1_555
C1_7 H1_7 1_555 1_555
C4_7 H4_7 1_555 1_555
C6_7 H5_7 1_555 1_555
H6_7 C6_7 1_555 1_555
H7_7 C6_7 1_555 1_555
C9_7 C1_7 1_555 1_555
C4_7 C9_7 1_555 1_555
C6_7 C9_7 1_555 1_555
Cu2_5 O1_7 1_555 1_555
O1_7 C2_7 1_555 1_555
O6_5 C3_7 1_555 1_555
O3_4 C10_7 1_555 1_555
O4_4 C2_7 1_555 1_555
O10_5 C10_7 1_555 1_555
C2_7 C8_7 1_555 1_555
C3_7 H2_7 1_555 1_555
H3_7 C3_7 1_555 1_555
C5_7 O6_5 1_555 1_555
C7_7 C5_7 1_555 1_555
H8_7 C7_7 1_555 1_555
C10_7 C3_7 1_555 1_555
Cu2_6 O3_4 1_555 1_555
Cu2_3 O4_4 1_555 1_555
O7_4 Cu2_5 1_555 1_555
O8_4 Cu2_5 1_555 1_555
O10 Cu2_5 1_555 1_555
C7_7 C8_7 1_555 1_555
C1_8 H1_8 1_555 1_555
C4_8 H4_8 1_555 1_555
C6_8 H5_8 1_555 1_555
H6_8 C6_8 1_555 1_555
H7_8 C6_8 1_555 1_555
C9_8 C1_8 1_555 1_555
C4_8 C9_8 1_555 1_555
C6_8 C9_8 1_555 1_555
Cu2_6 O1_8 1_555 1_555
O1_8 C2_8 1_555 1_555
O6_6 C3_8 1_555 1_555
O3_5 C10_8 1_555 1_555
O4_5 C2_8 1_555 1_555
O10_6 C10_8 1_555 1_555
C2_8 C8_8 1_555 1_555
C3_8 H2_8 1_555 1_555
H3_8 C3_8 1_555 1_555
C5_8 O6_6 1_555 1_555
C7_8 C5_8 1_555 1_555
H8_8 C7_8 1_555 1_555
C10_8 C3_8 1_555 1_555
Cu2_4 O3_5 1_555 1_555
C7_8 C8_8 1_555 1_555
C1_9 H1_9 1_555 1_555
C4_9 H4_9 1_555 1_555
C6_9 H5_9 1_555 1_555
H6_9 C6_9 1_555 1_555
H7_9 C6_9 1_555 1_555
C9_9 C1_9 1_555 1_555
C4_9 C9_9 1_555 1_555
C6_9 C9_9 1_555 1_555
Cu2_4 O1_9 1_555 1_555
O1_9 C2_9 1_555 1_555
O6_4 C3_9 1_555 1_555
O7_4 C10_9 1_555 1_555
O4_6 C2_9 1_555 1_555
O10_4 C10_9 1_555 1_555
C2_9 C8_9 1_555 1_555
C3_9 H2_9 1_555 1_555
H3_9 C3_9 1_555 1_555
C5_9 O6_4 1_555 1_555
C7_9 C5_9 1_555 1_555
H8_9 C7_9 1_555 1_555
C10_9 C3_9 1_555 1_555
Cu2_3 O10_4 1_555 1_555
C7_9 C8_9 1_555 1_555
Cu2_3 O1_10 1_555 1_555
O1_10 C2_10 1_555 1_555
O6_3 C3_10 1_555 1_555
O3_6 C10_10 1_555 1_555
O8_4 C2_10 1_555 1_555
O10_3 C10_10 1_555 1_555
C1_10 H1_10 1_555 1_555
C2_10 C8_10 1_555 1_555
C3_10 H2_10 1_555 1_555
H3_10 C3_10 1_555 1_555
C4_10 H4_10 1_555 1_555
C5_10 O6_3 1_555 1_555
C6_10 H5_10 1_555 1_555
H6_10 C6_10 1_555 1_555
H7_10 C6_10 1_555 1_555
C7_10 C5_10 1_555 1_555
H8_10 C7_10 1_555 1_555
C8_10 C4_10 1_555 1_555
C9_10 C1_10 1_555 1_555
C10_10 C3_10 1_555 1_555
Cu2_2 O3_6 1_555 1_555
O7_5 Cu2_3 1_555 1_555
C1_10 C5_10 1_555 1_555
C4_10 C9_10 1_555 1_555
C6_10 C9_10 1_555 1_555
C7_10 C8_10 1_555 1_555
Cu2 O1_11 1_555 1_555
O1_11 C2_11 1_555 1_555
O6 C3_11 1_555 1_555
O7_5 C10_11 1_555 1_555
O8_5 C2_11 1_555 1_555
O10 C10_11 1_555 1_555
C1_11 H1_11 1_555 1_555
C2_11 C8_11 1_555 1_555
C3_11 H2_11 1_555 1_555
H3_11 C3_11 1_555 1_555
C4_11 H4_11 1_555 1_555
C5_11 O6 1_555 1_555
C6_11 H5_11 1_555 1_555
H6_11 C6_11 1_555 1_555
H7_11 C6_11 1_555 1_555
C7_11 C5_11 1_555 1_555
H8_11 C7_11 1_555 1_555
C8_11 C4_11 1_555 1_555
C9_11 C1_11 1_555 1_555
C10_11 C3_11 1_555 1_555
O7_6 Cu2 1_555 1_555
C1_11 C5_11 1_555 1_555
C4_11 C9_11 1_555 1_555
C6_11 C9_11 1_555 1_555
C7_11 C8_11 1_555 1_555
Cu2_2 O1_12 1_555 1_555
O1_12 C2_12 1_555 1_555
O6_2 C3_12 1_555 1_555
O7_6 C10_12 1_555 1_555
O8_6 C2_12 1_555 1_555
O10_2 C10_12 1_555 1_555
C1_12 H1_12 1_555 1_555
C2_12 C8_12 1_555 1_555
C3_12 H2_12 1_555 1_555
H3_12 C3_12 1_555 1_555
C4_12 H4_12 1_555 1_555
C5_12 O6_2 1_555 1_555
C6_12 H5_12 1_555 1_555
H6_12 C6_12 1_555 1_555
H7_12 C6_12 1_555 1_555
C7_12 C5_12 1_555 1_555
H8_12 C7_12 1_555 1_555
C8_12 C4_12 1_555 1_555
C9_12 C1_12 1_555 1_555
C10_12 C3_12 1_555 1_555
C1_12 C5_12 1_555 1_555
C4_12 C9_12 1_555 1_555
C6_12 C9_12 1_555 1_555
C7_12 C8_12 1_555 1_555

#END
