
###############################################################################
#
# This file contains modified crystal structure data generated from the
# MOF subset of the Cambridge Structural Database (CSD) v543 
# hosted by the Cambridge Crystallographic Data Centre (CCDC).
#
# This work is licensed under the Creative Commons
# Attribution-NonCommercial-ShareAlike 4.0 International License.
# To view a copy of this license, visit
# http://creativecommons.org/licenses/by-nc-sa/4.0/
# or send a letter to
# Creative Commons, PO Box 1866, Mountain View, CA 94042, USA.
#
# CIF created using the CSD Python API on 29 September 2022
# The structure has been converted into the P1 space group
# The structure has a 3D framework
# The original CSD entry WENDIE is in the monoclinic crystal system
# The original CSD entry WENDIE is in a Sohncke space group
# The framework has been calculated to contain at least 10.0% void space
# The void calculation uses a probe of radius 1.32A, grid spacing 0.4
#
###############################################################################

data_WENDIE
_chemical_formula_moiety         '(C76 H60 N36 O20 Zn8)n'
_symmetry_cell_setting           triclinic
_symmetry_space_group_name_H-M   'P 1'
_symmetry_Int_Tables_number      1
_space_group_name_Hall           'P 1'
loop_
_symmetry_equiv_pos_site_id
_symmetry_equiv_pos_as_xyz
1 x,y,z
_cell_length_a                   18.1435(18)
_cell_length_b                   7.9332(8)
_cell_length_c                   17.2163(17)
_cell_angle_alpha                90
_cell_angle_beta                 105.387(2)
_cell_angle_gamma                90
_cell_volume                     2389.22
loop_
_atom_site_label
_atom_site_type_symbol
_atom_site_fract_x
_atom_site_fract_y
_atom_site_fract_z
Zn1 Zn 0.08366(7) 0.27051(17) 0.24428(6)
N4 N 0.1202(6) 0.0177(13) 0.2349(5)
O5 O 0.0186(5) 0.5100(9) 0.2084(4)
H9 H 0.0139 0.5158 0.1007
Zn6 Zn 0.25046(7) 0.08325(15) 0.75660(5)
O6 O 0.1404(5) 0.3503(12) 0.3516(4)
O8 O 0.1361(5) 0.3284(10) 0.1547(4)
Zn2 Zn 0.24954(7) 0.58325(15) 0.24340(5)
N1 N 0.1828(5) 0.7874(13) 0.2306(5)
N2 N 0.1380(6) 0.8191(14) 0.1557(5)
N3 N 0.1000(6) 0.9575(15) 0.1578(5)
O1 O 0.3596(5) 0.8503(12) 0.6484(4)
O2 O 0.2514(5) 0.9522(12) 0.6638(4)
C1 C 0.1704(7) 0.9114(16) 0.2784(6)
C2 C 0.2039(7) 0.9184(15) 0.3655(5)
C3 C 0.1581(7) 0.9569(17) 0.4156(6)
H1 H 0.1069 0.9836 0.3937
C4 C 0.1884(7) 0.9560(17) 0.4989(6)
H2 H 0.1575 0.9824 0.5326
C5 C 0.2640(7) 0.9161(14) 0.5312(5)
C6 C 0.3089(7) 0.8718(17) 0.4822(6)
H3 H 0.3589 0.8368 0.5050
C7 C 0.2814(7) 0.878(2) 0.3994(6)
H4 H 0.3136 0.8561 0.3665
C8 C 0.2968(7) 0.9040(13) 0.6234(5)
Zn3 Zn 0.41634(7) 0.77051(17) 0.75572(6)
N10 N 0.3613(5) 0.6442(10) 0.2656(4)
O7 O 0.2486(5) 0.4522(12) 0.3362(4)
O9 O 0.2346(5) 0.4677(11) 0.1411(4)
N5 N 0.8613(5) 0.1442(10) 0.2656(4)
N6 N 0.9103(6) 0.1097(13) 0.3396(4)
N7 N 0.9797(6) 0.1326(13) 0.3379(5)
N8 N 0.9800(5) 0.1886(11) 0.2616(4)
N9 N 0.9387(6) 0.6765(12) 0.1167(5)
C9 C 0.9063(6) 0.1900(12) 0.2206(5)
C10 C 0.8789(6) 0.2320(11) 0.1327(5)
C11 C 0.9227(7) 0.1767(14) 0.0823(5)
H5 H 0.9667 0.1132 0.1028
C12 C 0.9002(6) 0.2172(13) 0.0017(5)
C14 C 0.7952(6) 0.3743(14) 0.0222(5)
H7 H 0.7518 0.4396 0.0018
C15 C 0.8171(6) 0.3314(13) 0.1020(5)
H8 H 0.7890 0.3714 0.1361
C17 C 0.9933(7) 0.5612(16) 0.1402(6)
C18 C 0.9086(8) 0.7384(16) 0.1805(7)
H10 H 0.9333 0.6816 0.2298
H11 H 0.8546 0.7174 0.1675
H12 H 0.9179 0.8574 0.1869
C19 C 0.9171(8) 0.7242(16) 0.0340(6)
H13 H 0.9445 0.6568 0.0047
H14 H 0.9289 0.8411 0.0293
H15 H 0.8631 0.7069 0.0123
Zn5 Zn 0.74954(7) 0.08325(15) 0.24340(5)
O3 O 0.8639(5) 0.3284(10) 0.8453(4)
O4 O 0.7654(5) 0.4677(11) 0.8589(4)
H6 H 0.9276 0.1740 0.9675
C13 C 0.8399(7) 0.3173(12) 0.9711(5)
C16 C 0.8191(8) 0.3732(15) 0.8831(6)
Zn4 Zn 0.91634(7) 0.27051(17) 0.75572(6)
Zn7 Zn 0.75046(7) 0.58325(15) 0.75660(5)
H6_2 H 0.0724 0.1740 0.0325
C13_2 C 0.1601(7) 0.3173(12) 0.0289(5)
C16_2 C 0.1809(8) 0.3732(15) 0.1169(6)
N5_2 N 0.1387(5) 0.1442(10) 0.7344(4)
N6_2 N 0.0897(6) 0.1097(13) 0.6604(4)
N7_2 N 0.0203(6) 0.1326(13) 0.6621(5)
N8_2 N 0.0200(5) 0.1886(11) 0.7384(4)
N9_2 N 0.0613(6) 0.6765(12) 0.8833(5)
C9_2 C 0.0937(6) 0.1900(12) 0.7794(5)
C10_2 C 0.1211(6) 0.2320(11) 0.8673(5)
C11_2 C 0.0773(7) 0.1767(14) 0.9177(5)
H5_2 H 0.0333 0.1132 0.8972
C12_2 C 0.0998(6) 0.2172(13) 0.9983(5)
C14_2 C 0.2048(6) 0.3743(14) 0.9778(5)
H7_2 H 0.2482 0.4396 0.9982
C15_2 C 0.1829(6) 0.3314(13) 0.8980(5)
H8_2 H 0.2110 0.3714 0.8639
C17_2 C 0.0067(7) 0.5612(16) 0.8598(6)
C18_2 C 0.0914(8) 0.7384(16) 0.8195(7)
H10_2 H 0.0667 0.6816 0.7702
H11_2 H 0.1454 0.7174 0.8325
H12_2 H 0.0821 0.8574 0.8131
C19_2 C 0.0829(8) 0.7242(16) 0.9660(6)
H13_2 H 0.0555 0.6568 0.9953
H14_2 H 0.0711 0.8411 0.9707
H15_2 H 0.1369 0.7069 0.9877
N4_2 N 0.8798(6) 0.0177(13) 0.7651(5)
O5_2 O 0.9814(5) 0.5100(9) 0.7916(4)
H9_2 H 0.9861 0.5158 0.8993
O6_2 O 0.8596(5) 0.3503(12) 0.6484(4)
N1_2 N 0.8172(5) 0.7874(13) 0.7694(5)
N2_2 N 0.8620(6) 0.8191(14) 0.8443(5)
N3_2 N 0.9000(6) 0.9575(15) 0.8422(5)
O1_2 O 0.6404(5) 0.8503(12) 0.3516(4)
O2_2 O 0.7486(5) 0.9522(12) 0.3362(4)
C1_2 C 0.8296(7) 0.9114(16) 0.7216(6)
C2_2 C 0.7961(7) 0.9184(15) 0.6345(5)
C3_2 C 0.8419(7) 0.9569(17) 0.5844(6)
H1_2 H 0.8931 0.9836 0.6063
C4_2 C 0.8116(7) 0.9560(17) 0.5011(6)
H2_2 H 0.8425 0.9824 0.4674
C5_2 C 0.7360(7) 0.9161(14) 0.4688(5)
C6_2 C 0.6911(7) 0.8718(17) 0.5178(6)
H3_2 H 0.6411 0.8368 0.4950
C7_2 C 0.7186(7) 0.878(2) 0.6006(6)
H4_2 H 0.6864 0.8561 0.6335
C8_2 C 0.7032(7) 0.9040(13) 0.3766(5)
Zn3_2 Zn 0.58366(7) 0.77051(17) 0.24428(6)
N10_2 N 0.6387(5) 0.6442(10) 0.7344(4)
O7_2 O 0.7514(5) 0.4522(12) 0.6638(4)
N1_3 N 0.6828(5) 0.2874(13) 0.2306(5)
N2_3 N 0.6380(6) 0.3191(14) 0.1557(5)
N3_3 N 0.6000(6) 0.4575(15) 0.1578(5)
N4_3 N 0.6202(6) 0.5177(13) 0.2349(5)
N6_3 N 0.4103(6) 0.6097(13) 0.3396(4)
N7_3 N 0.4797(6) 0.6326(13) 0.3379(5)
N8_3 N 0.4800(5) 0.6886(11) 0.2616(4)
C1_3 C 0.6704(7) 0.4114(16) 0.2784(6)
C2_3 C 0.7039(7) 0.4184(15) 0.3655(5)
C3_3 C 0.6581(7) 0.4569(17) 0.4156(6)
H1_3 H 0.6069 0.4836 0.3937
C4_3 C 0.6884(7) 0.4560(17) 0.4989(6)
H2_3 H 0.6575 0.4824 0.5326
C5_3 C 0.7640(7) 0.4161(14) 0.5312(5)
C6_3 C 0.8089(7) 0.3718(17) 0.4822(6)
H3_3 H 0.8589 0.3368 0.5050
C7_3 C 0.7814(7) 0.378(2) 0.3994(6)
H4_3 H 0.8136 0.3561 0.3665
C8_3 C 0.7968(7) 0.4040(13) 0.6234(5)
C9_3 C 0.4063(6) 0.6900(12) 0.2206(5)
C10_3 C 0.3789(6) 0.7320(11) 0.1327(5)
C11_3 C 0.4227(7) 0.6767(14) 0.0823(5)
H5_3 H 0.4667 0.6132 0.1028
C12_3 C 0.4002(6) 0.7172(13) 0.0017(5)
C14_3 C 0.2952(6) 0.8743(14) 0.0222(5)
H7_3 H 0.2518 0.9396 0.0018
C15_3 C 0.3171(6) 0.8314(13) 0.1020(5)
H8_3 H 0.2890 0.8714 0.1361
O8_2 O 0.6361(5) 0.8284(10) 0.1547(4)
O3_2 O 0.3639(5) 0.8284(10) 0.8453(4)
O4_2 O 0.2654(5) 0.9677(11) 0.8589(4)
H6_3 H 0.4276 0.6740 0.9675
C13_3 C 0.3399(7) 0.8173(12) 0.9711(5)
C16_3 C 0.3191(8) 0.8732(15) 0.8831(6)
O9_2 O 0.7346(5) 0.9677(11) 0.1411(4)
H6_4 H 0.5724 0.6740 0.0325
C13_4 C 0.6601(7) 0.8173(12) 0.0289(5)
C16_4 C 0.6809(8) 0.8732(15) 0.1169(6)
N1_4 N 0.3172(5) 0.2874(13) 0.7694(5)
N2_4 N 0.3620(6) 0.3191(14) 0.8443(5)
N3_4 N 0.4000(6) 0.4575(15) 0.8422(5)
N4_4 N 0.3798(6) 0.5177(13) 0.7651(5)
N6_4 N 0.5897(6) 0.6097(13) 0.6604(4)
N7_4 N 0.5203(6) 0.6326(13) 0.6621(5)
N8_4 N 0.5200(5) 0.6886(11) 0.7384(4)
C1_4 C 0.3296(7) 0.4114(16) 0.7216(6)
C2_4 C 0.2961(7) 0.4184(15) 0.6345(5)
C3_4 C 0.3419(7) 0.4569(17) 0.5844(6)
H1_4 H 0.3931 0.4836 0.6063
C4_4 C 0.3116(7) 0.4560(17) 0.5011(6)
H2_4 H 0.3425 0.4824 0.4674
C5_4 C 0.2360(7) 0.4161(14) 0.4688(5)
C6_4 C 0.1911(7) 0.3718(17) 0.5178(6)
H3_4 H 0.1411 0.3368 0.4950
C7_4 C 0.2186(7) 0.378(2) 0.6006(6)
H4_4 H 0.1864 0.3561 0.6335
C8_4 C 0.2032(7) 0.4040(13) 0.3766(5)
C9_4 C 0.5937(6) 0.6900(12) 0.7794(5)
C10_4 C 0.6211(6) 0.7320(11) 0.8673(5)
C11_4 C 0.5773(7) 0.6767(14) 0.9177(5)
H5_4 H 0.5333 0.6132 0.8972
C12_4 C 0.5998(6) 0.7172(13) 0.9983(5)
C14_4 C 0.7048(6) 0.8743(14) 0.9778(5)
H7_4 H 0.7482 0.9396 0.9982
C15_4 C 0.6829(6) 0.8314(13) 0.8980(5)
H8_4 H 0.7110 0.8714 0.8639
N9_3 N 0.4387(6) 0.1765(12) 0.1167(5)
O5_3 O 0.5186(5) 0.0100(9) 0.2084(4)
C17_3 C 0.4933(7) 0.0612(16) 0.1402(6)
H9_3 H 0.5139 0.0158 0.1007
C18_3 C 0.4086(8) 0.2384(16) 0.1805(7)
H10_3 H 0.4333 0.1816 0.2298
H11_3 H 0.3546 0.2174 0.1675
H12_3 H 0.4179 0.3574 0.1869
C19_3 C 0.4171(8) 0.2242(16) 0.0340(6)
H13_3 H 0.4445 0.1568 0.0047
H14_3 H 0.4289 0.3411 0.0293
H15_3 H 0.3631 0.2069 0.0123
N9_4 N 0.5613(6) 0.1765(12) 0.8833(5)
O5_4 O 0.4814(5) 0.0100(9) 0.7916(4)
C17_4 C 0.5067(7) 0.0612(16) 0.8598(6)
H9_4 H 0.4861 0.0158 0.8993
C18_4 C 0.5914(8) 0.2384(16) 0.8195(7)
H10_4 H 0.5667 0.1816 0.7702
H11_4 H 0.6454 0.2174 0.8325
H12_4 H 0.5821 0.3574 0.8131
C19_4 C 0.5829(8) 0.2242(16) 0.9660(6)
H13_4 H 0.5555 0.1568 0.9953
H14_4 H 0.5711 0.3411 0.9707
H15_4 H 0.6369 0.2069 0.9877
loop_
_geom_bond_atom_site_label_1
_geom_bond_atom_site_label_2
_geom_bond_site_symmetry_1
_geom_bond_site_symmetry_2
Zn1 N4 1_555 1_555
O5 Zn1 1_555 1_555
O6 Zn1 1_555 1_555
O8 Zn1 1_555 1_555
Zn2 N1 1_555 1_555
N1 N2 1_555 1_555
N2 N3 1_555 1_555
O1 C8 1_555 1_555
O2 C8 1_555 1_555
C1 N1 1_555 1_555
C2 C1 1_555 1_555
C3 C2 1_555 1_555
H1 C3 1_555 1_555
C4 C3 1_555 1_555
H2 C4 1_555 1_555
C5 C4 1_555 1_555
C6 C5 1_555 1_555
H3 C6 1_555 1_555
C7 C2 1_555 1_555
H4 C7 1_555 1_555
C8 C5 1_555 1_555
Zn3 O1 1_555 1_555
N10 Zn2 1_555 1_555
O7 Zn2 1_555 1_555
O9 Zn2 1_555 1_555
C6 C7 1_555 1_555
N5 N6 1_555 1_555
N6 N7 1_555 1_555
N7 N8 1_555 1_555
N9 C17 1_555 1_555
C9 N5 1_555 1_555
C10 C9 1_555 1_555
C11 C10 1_555 1_555
H5 C11 1_555 1_555
C12 C11 1_555 1_555
H7 C14 1_555 1_555
C15 C10 1_555 1_555
H8 C15 1_555 1_555
C18 N9 1_555 1_555
H10 C18 1_555 1_555
H11 C18 1_555 1_555
H12 C18 1_555 1_555
C19 N9 1_555 1_555
H13 C19 1_555 1_555
H14 C19 1_555 1_555
H15 C19 1_555 1_555
Zn5 N5 1_555 1_555
N8 C9 1_555 1_555
C14 C15 1_555 1_555
O3 C16 1_555 1_555
O4 C16 1_555 1_555
C16 C13 1_555 1_555
Zn4 O3 1_555 1_555
Zn7 O4 1_555 1_555
O8 C16_2 1_555 1_555
O9 C16_2 1_555 1_555
C16_2 C13_2 1_555 1_555
N5_2 N6_2 1_555 1_555
N6_2 N7_2 1_555 1_555
N7_2 N8_2 1_555 1_555
N9_2 C17_2 1_555 1_555
C9_2 N5_2 1_555 1_555
C10_2 C9_2 1_555 1_555
C11_2 C10_2 1_555 1_555
H5_2 C11_2 1_555 1_555
C12_2 C11_2 1_555 1_555
H7_2 C14_2 1_555 1_555
C15_2 C10_2 1_555 1_555
H8_2 C15_2 1_555 1_555
C18_2 N9_2 1_555 1_555
H10_2 C18_2 1_555 1_555
H11_2 C18_2 1_555 1_555
H12_2 C18_2 1_555 1_555
C19_2 N9_2 1_555 1_555
H13_2 C19_2 1_555 1_555
H14_2 C19_2 1_555 1_555
H15_2 C19_2 1_555 1_555
Zn6 N5_2 1_555 1_555
N8_2 C9_2 1_555 1_555
C14_2 C15_2 1_555 1_555
Zn4 N4_2 1_555 1_555
O5_2 Zn4 1_555 1_555
O6_2 Zn4 1_555 1_555
Zn7 N1_2 1_555 1_555
N1_2 N2_2 1_555 1_555
N2_2 N3_2 1_555 1_555
O1_2 C8_2 1_555 1_555
O2_2 C8_2 1_555 1_555
C1_2 N1_2 1_555 1_555
C2_2 C1_2 1_555 1_555
C3_2 C2_2 1_555 1_555
H1_2 C3_2 1_555 1_555
C4_2 C3_2 1_555 1_555
H2_2 C4_2 1_555 1_555
C5_2 C4_2 1_555 1_555
C6_2 C5_2 1_555 1_555
H3_2 C6_2 1_555 1_555
C7_2 C2_2 1_555 1_555
H4_2 C7_2 1_555 1_555
C8_2 C5_2 1_555 1_555
Zn3_2 O1_2 1_555 1_555
N10_2 Zn7 1_555 1_555
O7_2 Zn7 1_555 1_555
C6_2 C7_2 1_555 1_555
Zn3_2 N4_3 1_555 1_555
Zn5 N1_3 1_555 1_555
N1_3 N2_3 1_555 1_555
N2_3 N3_3 1_555 1_555
N3_3 N4_3 1_555 1_555
N4_3 C1_3 1_555 1_555
N10 N6_3 1_555 1_555
N6_3 N7_3 1_555 1_555
N7_3 N8_3 1_555 1_555
N8_3 Zn3_2 1_555 1_555
O6_2 C8_3 1_555 1_555
O7_2 C8_3 1_555 1_555
C1_3 N1_3 1_555 1_555
C2_3 C1_3 1_555 1_555
C3_3 C2_3 1_555 1_555
H1_3 C3_3 1_555 1_555
C4_3 C3_3 1_555 1_555
H2_3 C4_3 1_555 1_555
C5_3 C4_3 1_555 1_555
C6_3 C5_3 1_555 1_555
H3_3 C6_3 1_555 1_555
C7_3 C2_3 1_555 1_555
H4_3 C7_3 1_555 1_555
C8_3 C5_3 1_555 1_555
C9_3 N10 1_555 1_555
C10_3 C9_3 1_555 1_555
C11_3 C10_3 1_555 1_555
H5_3 C11_3 1_555 1_555
C12_3 C11_3 1_555 1_555
H7_3 C14_3 1_555 1_555
C15_3 C10_3 1_555 1_555
H8_3 C15_3 1_555 1_555
O8_2 Zn3_2 1_555 1_555
N8_3 C9_3 1_555 1_555
C6_3 C7_3 1_555 1_555
C14_3 C15_3 1_555 1_555
O3_2 C16_3 1_555 1_555
O4_2 C16_3 1_555 1_555
C16_3 C13_3 1_555 1_555
Zn3 O3_2 1_555 1_555
O8_2 C16_4 1_555 1_555
O9_2 C16_4 1_555 1_555
C16_4 C13_4 1_555 1_555
Zn3 N4_4 1_555 1_555
Zn6 N1_4 1_555 1_555
N1_4 N2_4 1_555 1_555
N2_4 N3_4 1_555 1_555
N3_4 N4_4 1_555 1_555
N4_4 C1_4 1_555 1_555
N10_2 N6_4 1_555 1_555
N6_4 N7_4 1_555 1_555
N7_4 N8_4 1_555 1_555
N8_4 Zn3 1_555 1_555
O6 C8_4 1_555 1_555
O7 C8_4 1_555 1_555
C1_4 N1_4 1_555 1_555
C2_4 C1_4 1_555 1_555
C3_4 C2_4 1_555 1_555
H1_4 C3_4 1_555 1_555
C4_4 C3_4 1_555 1_555
H2_4 C4_4 1_555 1_555
C5_4 C4_4 1_555 1_555
C6_4 C5_4 1_555 1_555
H3_4 C6_4 1_555 1_555
C7_4 C2_4 1_555 1_555
H4_4 C7_4 1_555 1_555
C8_4 C5_4 1_555 1_555
C9_4 N10_2 1_555 1_555
C10_4 C9_4 1_555 1_555
C11_4 C10_4 1_555 1_555
H5_4 C11_4 1_555 1_555
C12_4 C11_4 1_555 1_555
H7_4 C14_4 1_555 1_555
C15_4 C10_4 1_555 1_555
H8_4 C15_4 1_555 1_555
N8_4 C9_4 1_555 1_555
C6_4 C7_4 1_555 1_555
C14_4 C15_4 1_555 1_555
N9_3 C17_3 1_555 1_555
C17_3 O5_3 1_555 1_555
H9_3 C17_3 1_555 1_555
C18_3 N9_3 1_555 1_555
H10_3 C18_3 1_555 1_555
H11_3 C18_3 1_555 1_555
H12_3 C18_3 1_555 1_555
C19_3 N9_3 1_555 1_555
H13_3 C19_3 1_555 1_555
H14_3 C19_3 1_555 1_555
H15_3 C19_3 1_555 1_555
N9_4 C17_4 1_555 1_555
C17_4 O5_4 1_555 1_555
H9_4 C17_4 1_555 1_555
C18_4 N9_4 1_555 1_555
H10_4 C18_4 1_555 1_555
H11_4 C18_4 1_555 1_555
H12_4 C18_4 1_555 1_555
C19_4 N9_4 1_555 1_555
H13_4 C19_4 1_555 1_555
H14_4 C19_4 1_555 1_555
H15_4 C19_4 1_555 1_555

#END
