
###############################################################################
#
# This file contains modified crystal structure data generated from the
# MOF subset of the Cambridge Structural Database (CSD) v543 
# hosted by the Cambridge Crystallographic Data Centre (CCDC).
#
# This work is licensed under the Creative Commons
# Attribution-NonCommercial-ShareAlike 4.0 International License.
# To view a copy of this license, visit
# http://creativecommons.org/licenses/by-nc-sa/4.0/
# or send a letter to
# Creative Commons, PO Box 1866, Mountain View, CA 94042, USA.
#
# CIF created using the CSD Python API on 29 September 2022
# The structure has been converted into the P1 space group
# The structure has a 3D framework
# The original CSD entry WENKOR is in the triclinic crystal system
# The framework has been calculated to contain at least 10.0% void space
# The void calculation uses a probe of radius 1.32A, grid spacing 0.4
#
###############################################################################

data_WENKOR
_chemical_formula_moiety         '(C90 H72 Gd4 O54 S6)n'
_symmetry_cell_setting           triclinic
_symmetry_space_group_name_H-M   'P 1'
_symmetry_Int_Tables_number      1
_space_group_name_Hall           'P 1'
loop_
_symmetry_equiv_pos_site_id
_symmetry_equiv_pos_as_xyz
1 x,y,z
_cell_length_a                   9.2654(19)
_cell_length_b                   15.642(3)
_cell_length_c                   22.287(4)
_cell_angle_alpha                102.15(3)
_cell_angle_beta                 101.48(3)
_cell_angle_gamma                104.44(3)
_cell_volume                     2948.05
loop_
_atom_site_label
_atom_site_type_symbol
_atom_site_fract_x
_atom_site_fract_y
_atom_site_fract_z
C3 C 0.0714(11) 0.1493(8) 0.3613(5)
H1 H 0.1291 0.1661 0.3337
C4 C 0.1457(13) 0.1492(9) 0.4212(6)
H2 H 0.2531 0.1666 0.4335
C5 C 0.0638(13) 0.1238(8) 0.4638(5)
C8 C 0.2889(17) 0.1487(12) 0.5470(7)
H4 H 0.3333 0.2084 0.5422
H5 H 0.3269 0.1049 0.5230
H6 H 0.3170 0.1503 0.5912
H7 H 0.0143 0.1542 0.6317
H8 H 0.0298 0.0913 0.7177
H12 H 0.0547 0.4791 0.0722
O3 O 0.1243(10) 0.1226(7) 0.5243(4)
O11 O 0.0862(11) 0.6505(6) 0.0827(5)
O28 O 0.0604(8) 0.0013(5) 0.2101(3)
O30 O 0.1181(8) 0.1457(6) 0.0766(4)
O34 O 0.2091(8) 0.1946(5) 0.2099(4)
Gd7 Gd 0.03054(5) 0.91215(3) 0.85650(2)
H34 H 0.0493 0.9302 0.1047
Gd1 Gd 0.48586(5) 0.13989(3) 0.19774(2)
Gd2 Gd 0.96946(5) 0.08785(3) 0.14350(2)
C1 C 0.8292(12) 0.1235(7) 0.2763(5)
C2 C 0.9113(11) 0.1245(7) 0.3417(4)
C6 C 0.9041(13) 0.1012(7) 0.4442(5)
C7 C 0.8262(12) 0.1013(7) 0.3849(5)
H3 H 0.7189 0.0863 0.3734
C9 C 0.7850(13) 0.1049(8) 0.5991(5)
C10 C 0.9251(13) 0.1198(8) 0.6389(5)
C11 C 0.9341(12) 0.0830(8) 0.6905(5)
C12 C 0.8000(11) 0.0340(7) 0.7014(4)
C13 C 0.6598(12) 0.0203(9) 0.6609(5)
C14 C 0.6514(13) 0.0555(9) 0.6094(5)
H10 H 0.5561 0.0459 0.5816
C16 C 0.7915(11) 0.2566(7) 0.1445(5)
C17 C 0.8239(10) 0.3506(7) 0.1328(5)
C18 C 0.9422(12) 0.3760(7) 0.1029(5)
H11 H 0.9962 0.3356 0.0906
C19 C 0.9771(12) 0.4615(7) 0.0920(5)
C20 C 0.8962(13) 0.5207(7) 0.1106(5)
C21 C 0.7790(14) 0.4960(8) 0.1395(6)
H13 H 0.7257 0.5366 0.1523
C22 C 0.7433(13) 0.4089(8) 0.1488(6)
H14 H 0.6619 0.3902 0.1664
C23 C 0.7287(14) 0.6682(7) 0.0186(5)
C27 C 0.4992(12) 0.7125(9) 0.0153(5)
H17 H 0.4055 0.7082 0.0254
C28 C 0.5861(14) 0.6590(9) 0.0335(5)
C30 C 0.3964(17) 0.5780(12) 0.0762(7)
H18 H 0.3189 0.5582 0.0363
H19 H 0.3894 0.6338 0.1017
H20 H 0.3803 0.5314 0.0983
O1 O 0.9104(8) 0.1391(5) 0.2384(3)
O2 O 0.6850(8) 0.1102(5) 0.2648(3)
O4 O 0.8179(10) 0.0733(6) 0.4862(4)
O5 O 0.8916(11) 0.2366(6) 0.5482(4)
O6 O 0.6179(12) 0.1445(9) 0.5053(5)
O9 O 0.8678(8) 0.2065(5) 0.1268(3)
O10 O 0.6908(8) 0.2370(5) 0.1744(4)
O12 O 0.9121(10) 0.6964(5) 0.1441(4)
O13 O 0.8098(11) 0.6055(6) 0.0316(4)
O20 O 0.5525(11) 0.2357(7) 0.3067(4)
H31 H 0.4792 0.2579 0.2986
H32 H 0.5194 0.1792 0.3044
O23 O 0.8171(11) 0.0529(6) 0.0289(4)
H35 H 0.7484 0.0766 0.0408
O24 O 0.5464(11) 0.5938(7) 0.0649(4)
S1 S 0.7745(4) 0.1507(3) 0.53249(15)
S2 S 0.9399(4) 0.6303(2) 0.09723(16)
O29 O 0.3149(8) 0.0374(5) 0.2293(4)
O31 O 0.3424(9) 0.1148(5) 0.0954(3)
O32 O 0.4238(8) 0.2812(5) 0.1991(4)
C24 C 0.7814(12) 0.7296(7) 0.9873(5)
H15 H 0.8776 0.7362 0.9792
C25 C 0.6921(10) 0.7824(7) 0.9676(5)
C26 C 0.5518(11) 0.7737(8) 0.9813(5)
H16 H 0.4914 0.8090 0.9678
C29 C 0.7498(11) 0.8454(7) 0.9300(4)
O16 O 0.8819(8) 0.8543(6) 0.9234(4)
O17 O 0.6576(9) 0.8852(5) 0.9046(3)
Gd4 Gd 0.51414(5) 0.86011(3) 0.80226(2)
H9 H 0.5699 0.9871 0.6682
C15 C 0.8111(11) 0.9958(6) 0.7588(5)
C31 C 0.2943(11) 0.2731(7) 0.2112(5)
C32 C 0.2463(10) 0.3562(6) 0.2285(5)
C33 C 0.3261(11) 0.4372(6) 0.2170(5)
H21 H 0.4065 0.4377 0.1977
C34 C 0.2865(12) 0.5151(6) 0.2341(5)
C35 C 0.1658(12) 0.5164(7) 0.2631(5)
C36 C 0.0868(12) 0.4374(8) 0.2746(6)
H22 H 0.0061 0.4373 0.2936
C37 C 0.1276(11) 0.3572(8) 0.2577(5)
H23 H 0.0747 0.3041 0.2662
C38 C 0.0179(17) 0.6073(10) 0.3078(8)
H24 H 0.0337 0.5830 0.3438
H26 H 0.0242 0.6708 0.3220
C39 C 0.5541(12) 0.7476(7) 0.2381(5)
C40 C 0.6729(12) 0.7641(7) 0.2087(6)
H27 H 0.7391 0.7282 0.2086
C41 C 0.6922(11) 0.8345(7) 0.1796(6)
H28 H 0.7725 0.8466 0.1604
C42 C 0.5919(11) 0.8868(6) 0.1792(5)
C43 C 0.4762(13) 0.8702(8) 0.2092(6)
H29 H 0.4101 0.9062 0.2092
C44 C 0.4558(14) 0.8008(8) 0.2394(7)
H30 H 0.3778 0.7904 0.2600
C45 C 0.6113(10) 0.9624(6) 0.1463(4)
O7 O 0.9396(8) 0.9987(5) 0.7899(3)
O8 O 0.6851(8) 0.9626(5) 0.7707(4)
O14 O 0.5058(7) 0.9997(4) 0.1387(3)
O15 O 0.7296(8) 0.9830(5) 0.1276(4)
O18 O 0.6369(10) 0.6086(6) 0.2632(6)
O19 O 0.3643(8) 0.5954(5) 0.2209(4)
O21 O 0.9977(9) 0.9505(5) 0.0764(4)
H33 H 0.9892 0.9259 0.0382
H36 H 0.7699 0.9965 0.0075
O26 O 0.1348(10) 0.5991(5) 0.2750(5)
O27 O 0.4979(12) 0.6818(6) 0.3316(4)
S3 S 0.5246(4) 0.6557(2) 0.27131(16)
H25 H 0.9177 0.5736 0.2794
H25_2 H 0.0823 0.4264 0.7206
H9_2 H 0.4301 0.0129 0.3318
C15_2 C 0.1889(11) 0.0042(6) 0.2412(5)
C31_2 C 0.7057(11) 0.7269(7) 0.7888(5)
C32_2 C 0.7537(10) 0.6438(6) 0.7715(5)
C33_2 C 0.6739(11) 0.5628(6) 0.7830(5)
H21_2 H 0.5935 0.5623 0.8023
C34_2 C 0.7135(12) 0.4849(6) 0.7659(5)
C35_2 C 0.8342(12) 0.4836(7) 0.7369(5)
C36_2 C 0.9132(12) 0.5626(8) 0.7254(6)
H22_2 H 0.9939 0.5627 0.7064
C37_2 C 0.8724(11) 0.6428(8) 0.7423(5)
H23_2 H 0.9253 0.6959 0.7338
C38_2 C 0.9821(17) 0.3927(10) 0.6922(8)
H24_2 H 0.9663 0.4170 0.6562
H26_2 H 0.9758 0.3292 0.6780
C39_2 C 0.4459(12) 0.2524(7) 0.7619(5)
C40_2 C 0.3271(12) 0.2359(7) 0.7913(6)
H27_2 H 0.2609 0.2718 0.7914
C41_2 C 0.3078(11) 0.1655(7) 0.8204(6)
H28_2 H 0.2275 0.1534 0.8396
C42_2 C 0.4081(11) 0.1132(6) 0.8208(5)
C43_2 C 0.5238(13) 0.1298(8) 0.7908(6)
H29_2 H 0.5899 0.0938 0.7908
C44_2 C 0.5442(14) 0.1992(8) 0.7606(7)
H30_2 H 0.6222 0.2096 0.7400
C45_2 C 0.3887(10) 0.0376(6) 0.8537(4)
O14_2 O 0.4942(7) 0.0003(4) 0.8613(3)
O15_2 O 0.2704(8) 0.0170(5) 0.8724(4)
O18_2 O 0.3631(10) 0.3914(6) 0.7368(6)
O19_2 O 0.6357(8) 0.4046(5) 0.7791(4)
O21_2 O 0.0023(9) 0.0495(5) 0.9236(4)
H33_2 H 0.0108 0.0741 0.9618
O22 O 0.5762(8) 0.7188(5) 0.8009(4)
H36_2 H 0.2301 0.0035 0.9925
O25 O 0.7909(8) 0.8054(5) 0.7901(4)
O26_2 O 0.8652(10) 0.4009(5) 0.7250(5)
O27_2 O 0.5021(12) 0.3182(6) 0.6684(4)
S3_2 S 0.4754(4) 0.3443(2) 0.72869(16)
C24_2 C 0.2186(12) 0.2704(7) 0.0127(5)
H15_2 H 0.1224 0.2638 0.0208
C25_2 C 0.3079(10) 0.2176(7) 0.0324(5)
C26_2 C 0.4482(11) 0.2263(8) 0.0187(5)
H16_2 H 0.5086 0.1910 0.0322
C29_2 C 0.2502(11) 0.1546(7) 0.0700(4)
C1_2 C 0.1708(12) 0.8765(7) 0.7237(5)
C2_2 C 0.0887(11) 0.8755(7) 0.6583(4)
C6_2 C 0.0959(13) 0.8988(7) 0.5558(5)
C7_2 C 0.1738(12) 0.8987(7) 0.6151(5)
H3_2 H 0.2811 0.9137 0.6266
C9_2 C 0.2150(13) 0.8951(8) 0.4009(5)
C10_2 C 0.0749(13) 0.8802(8) 0.3611(5)
C11_2 C 0.0659(12) 0.9170(8) 0.3095(5)
C12_2 C 0.2000(11) 0.9660(7) 0.2986(4)
C13_2 C 0.3402(12) 0.9797(9) 0.3391(5)
C14_2 C 0.3486(13) 0.9445(9) 0.3906(5)
H10_2 H 0.4439 0.9541 0.4184
C16_2 C 0.2085(11) 0.7434(7) 0.8555(5)
C17_2 C 0.1761(10) 0.6494(7) 0.8672(5)
C18_2 C 0.0578(12) 0.6240(7) 0.8971(5)
H11_2 H 0.0038 0.6644 0.9094
C19_2 C 0.0229(12) 0.5385(7) 0.9080(5)
C20_2 C 0.1038(13) 0.4793(7) 0.8894(5)
C21_2 C 0.2210(14) 0.5040(8) 0.8605(6)
H13_2 H 0.2743 0.4634 0.8477
C22_2 C 0.2567(13) 0.5911(8) 0.8512(6)
H14_2 H 0.3381 0.6098 0.8336
C23_2 C 0.2713(14) 0.3318(7) 0.9814(5)
C27_2 C 0.5008(12) 0.2875(9) 0.9847(5)
H17_2 H 0.5945 0.2918 0.9746
C28_2 C 0.4139(14) 0.3410(9) 0.9665(5)
C30_2 C 0.6036(17) 0.4220(12) 0.9238(7)
H18_2 H 0.6811 0.4418 0.9637
H19_2 H 0.6106 0.3662 0.8983
H20_2 H 0.6197 0.4686 0.9017
O1_2 O 0.0896(8) 0.8609(5) 0.7616(3)
O2_2 O 0.3150(8) 0.8898(5) 0.7352(3)
O4_2 O 0.1821(10) 0.9267(6) 0.5138(4)
O5_2 O 0.1084(11) 0.7634(6) 0.4518(4)
O6_2 O 0.3821(12) 0.8555(9) 0.4947(5)
O9_2 O 0.1322(8) 0.7935(5) 0.8732(3)
O10_2 O 0.3092(8) 0.7630(5) 0.8256(4)
O12_2 O 0.0879(10) 0.3036(5) 0.8559(4)
O13_2 O 0.1902(11) 0.3945(6) 0.9684(4)
O20_2 O 0.4475(11) 0.7643(7) 0.6933(4)
H31_2 H 0.5208 0.7421 0.7014
H32_2 H 0.4806 0.8208 0.6956
O23_2 O 0.1829(11) 0.9471(6) 0.9711(4)
H35_2 H 0.2516 0.9234 0.9592
O24_2 O 0.4536(11) 0.4062(7) 0.9351(4)
S1_2 S 0.2255(4) 0.8493(3) 0.46751(15)
S2_2 S 0.0601(4) 0.3697(2) 0.90277(16)
H34_2 H 0.9507 0.0698 0.8953
C3_2 C 0.9286(11) 0.8507(8) 0.6387(5)
H1_2 H 0.8709 0.8339 0.6663
C4_2 C 0.8543(13) 0.8508(9) 0.5788(6)
H2_2 H 0.7469 0.8334 0.5665
C5_2 C 0.9362(13) 0.8762(8) 0.5362(5)
C8_2 C 0.7111(17) 0.8513(12) 0.4530(7)
H4_2 H 0.6667 0.7916 0.4578
H5_2 H 0.6731 0.8951 0.4770
H6_2 H 0.6830 0.8497 0.4088
H7_2 H 0.9857 0.8458 0.3683
H8_2 H 0.9702 0.9087 0.2823
H12_2 H 0.9453 0.5209 0.9278
O3_2 O 0.8757(10) 0.8774(7) 0.4757(4)
O11_2 O 0.9138(11) 0.3495(6) 0.9173(5)
loop_
_geom_bond_atom_site_label_1
_geom_bond_atom_site_label_2
_geom_bond_site_symmetry_1
_geom_bond_site_symmetry_2
C3 H1 1_555 1_555
C4 C3 1_555 1_555
H2 C4 1_555 1_555
C5 C4 1_555 1_555
C8 H4 1_555 1_555
H5 C8 1_555 1_555
H6 C8 1_555 1_555
O3 C5 1_555 1_555
C8 O3 1_555 1_555
Gd1 O2 1_555 1_555
Gd2 O1 1_555 1_555
C1 C2 1_555 1_555
C7 C2 1_555 1_555
H3 C7 1_555 1_555
C9 C10 1_555 1_555
C11 C10 1_555 1_555
C12 C11 1_555 1_555
C13 C12 1_555 1_555
C14 C9 1_555 1_555
H10 C14 1_555 1_555
C16 C17 1_555 1_555
C17 C18 1_555 1_555
C18 H11 1_555 1_555
C19 C18 1_555 1_555
C20 C19 1_555 1_555
C21 C20 1_555 1_555
H13 C21 1_555 1_555
C22 C17 1_555 1_555
H14 C22 1_555 1_555
H17 C27 1_555 1_555
C28 C23 1_555 1_555
C30 H18 1_555 1_555
H19 C30 1_555 1_555
H20 C30 1_555 1_555
O1 C1 1_555 1_555
O2 C1 1_555 1_555
O4 C6 1_555 1_555
O5 S1 1_555 1_555
O6 S1 1_555 1_555
O9 Gd2 1_555 1_555
O10 Gd1 1_555 1_555
O12 S2 1_555 1_555
O13 C23 1_555 1_555
O20 Gd1 1_555 1_555
H31 O20 1_555 1_555
H32 O20 1_555 1_555
O23 Gd2 1_555 1_555
H35 O23 1_555 1_555
O24 C28 1_555 1_555
S1 C9 1_555 1_555
S2 C20 1_555 1_555
O29 Gd1 1_555 1_555
O31 Gd1 1_555 1_555
O32 Gd1 1_555 1_555
O34 Gd1 1_555 1_555
C6 C7 1_555 1_555
C13 C14 1_555 1_555
C16 O9 1_555 1_555
C16 O10 1_555 1_555
C21 C22 1_555 1_555
C27 C28 1_555 1_555
C30 O24 1_555 1_555
O4 S1 1_555 1_555
O13 S2 1_555 1_555
C24 H15 1_555 1_555
C25 C24 1_555 1_555
C26 C25 1_555 1_555
H16 C26 1_555 1_555
C29 C25 1_555 1_555
O16 C29 1_555 1_555
O17 C29 1_555 1_555
Gd4 O17 1_555 1_555
C31 C32 1_555 1_555
C32 C33 1_555 1_555
C33 H21 1_555 1_555
C34 C33 1_555 1_555
C35 C34 1_555 1_555
C36 C35 1_555 1_555
H22 C36 1_555 1_555
C37 C32 1_555 1_555
H23 C37 1_555 1_555
C38 H24 1_555 1_555
H26 C38 1_555 1_555
C39 C40 1_555 1_555
C40 H27 1_555 1_555
C41 C40 1_555 1_555
H28 C41 1_555 1_555
C42 C41 1_555 1_555
C43 C42 1_555 1_555
H29 C43 1_555 1_555
C44 C39 1_555 1_555
H30 C44 1_555 1_555
C45 C42 1_555 1_555
O7 C15 1_555 1_555
O8 C15 1_555 1_555
O18 S3 1_555 1_555
O19 C34 1_555 1_555
H33 O21 1_555 1_555
O32 C31 1_555 1_555
O34 C31 1_555 1_555
O26 C35 1_555 1_555
O27 S3 1_555 1_555
S3 C39 1_555 1_555
Gd4 O8 1_555 1_555
C36 C37 1_555 1_555
C38 O26 1_555 1_555
C43 C44 1_555 1_555
C45 O14 1_555 1_555
C45 O15 1_555 1_555
O19 S3 1_555 1_555
C31_2 C32_2 1_555 1_555
C32_2 C33_2 1_555 1_555
C33_2 H21_2 1_555 1_555
C34_2 C33_2 1_555 1_555
C35_2 C34_2 1_555 1_555
C36_2 C35_2 1_555 1_555
H22_2 C36_2 1_555 1_555
C37_2 C32_2 1_555 1_555
H23_2 C37_2 1_555 1_555
C38_2 H24_2 1_555 1_555
H26_2 C38_2 1_555 1_555
C39_2 C40_2 1_555 1_555
C40_2 H27_2 1_555 1_555
C41_2 C40_2 1_555 1_555
H28_2 C41_2 1_555 1_555
C42_2 C41_2 1_555 1_555
C43_2 C42_2 1_555 1_555
H29_2 C43_2 1_555 1_555
C44_2 C39_2 1_555 1_555
H30_2 C44_2 1_555 1_555
C45_2 C42_2 1_555 1_555
O28 C15_2 1_555 1_555
O29 C15_2 1_555 1_555
O18_2 S3_2 1_555 1_555
O19_2 C34_2 1_555 1_555
H33_2 O21_2 1_555 1_555
O22 C31_2 1_555 1_555
O25 C31_2 1_555 1_555
O26_2 C35_2 1_555 1_555
O27_2 S3_2 1_555 1_555
S3_2 C39_2 1_555 1_555
Gd4 O22 1_555 1_555
C36_2 C37_2 1_555 1_555
C38_2 O26_2 1_555 1_555
C43_2 C44_2 1_555 1_555
C45_2 O14_2 1_555 1_555
C45_2 O15_2 1_555 1_555
O19_2 S3_2 1_555 1_555
O25 Gd4 1_555 1_555
C24_2 H15_2 1_555 1_555
C25_2 C24_2 1_555 1_555
C26_2 C25_2 1_555 1_555
H16_2 C26_2 1_555 1_555
C29_2 C25_2 1_555 1_555
O30 C29_2 1_555 1_555
O31 C29_2 1_555 1_555
Gd4 O2_2 1_555 1_555
Gd7 O1_2 1_555 1_555
C1_2 C2_2 1_555 1_555
C7_2 C2_2 1_555 1_555
H3_2 C7_2 1_555 1_555
C9_2 C10_2 1_555 1_555
C11_2 C10_2 1_555 1_555
C12_2 C11_2 1_555 1_555
C13_2 C12_2 1_555 1_555
C14_2 C9_2 1_555 1_555
H10_2 C14_2 1_555 1_555
C16_2 C17_2 1_555 1_555
C17_2 C18_2 1_555 1_555
C18_2 H11_2 1_555 1_555
C19_2 C18_2 1_555 1_555
C20_2 C19_2 1_555 1_555
C21_2 C20_2 1_555 1_555
H13_2 C21_2 1_555 1_555
C22_2 C17_2 1_555 1_555
H14_2 C22_2 1_555 1_555
H17_2 C27_2 1_555 1_555
C28_2 C23_2 1_555 1_555
C30_2 H18_2 1_555 1_555
H19_2 C30_2 1_555 1_555
H20_2 C30_2 1_555 1_555
O1_2 C1_2 1_555 1_555
O2_2 C1_2 1_555 1_555
O4_2 C6_2 1_555 1_555
O5_2 S1_2 1_555 1_555
O6_2 S1_2 1_555 1_555
O9_2 Gd7 1_555 1_555
O10_2 Gd4 1_555 1_555
O12_2 S2_2 1_555 1_555
O13_2 C23_2 1_555 1_555
O20_2 Gd4 1_555 1_555
H31_2 O20_2 1_555 1_555
H32_2 O20_2 1_555 1_555
O23_2 Gd7 1_555 1_555
H35_2 O23_2 1_555 1_555
O24_2 C28_2 1_555 1_555
S1_2 C9_2 1_555 1_555
S2_2 C20_2 1_555 1_555
C6_2 C7_2 1_555 1_555
C13_2 C14_2 1_555 1_555
C16_2 O9_2 1_555 1_555
C16_2 O10_2 1_555 1_555
C21_2 C22_2 1_555 1_555
C27_2 C28_2 1_555 1_555
C30_2 O24_2 1_555 1_555
O4_2 S1_2 1_555 1_555
O13_2 S2_2 1_555 1_555
C3_2 H1_2 1_555 1_555
C4_2 C3_2 1_555 1_555
H2_2 C4_2 1_555 1_555
C5_2 C4_2 1_555 1_555
C8_2 H4_2 1_555 1_555
H5_2 C8_2 1_555 1_555
H6_2 C8_2 1_555 1_555
O3_2 C5_2 1_555 1_555
C8_2 O3_2 1_555 1_555

#END
