
###############################################################################
#
# This file contains modified crystal structure data generated from the
# MOF subset of the Cambridge Structural Database (CSD) v543 
# hosted by the Cambridge Crystallographic Data Centre (CCDC).
#
# This work is licensed under the Creative Commons
# Attribution-NonCommercial-ShareAlike 4.0 International License.
# To view a copy of this license, visit
# http://creativecommons.org/licenses/by-nc-sa/4.0/
# or send a letter to
# Creative Commons, PO Box 1866, Mountain View, CA 94042, USA.
#
# CIF created using the CSD Python API on 29 September 2022
# The structure has been converted into the P1 space group
# The structure has a 3D framework
# The original CSD entry WENKUX is in the triclinic crystal system
# The framework has been calculated to contain at least 10.0% void space
# The void calculation uses a probe of radius 1.32A, grid spacing 0.4
#
###############################################################################

data_WENKUX
_chemical_formula_moiety         '(C90 H72 O54 S6 Tb4)n'
_symmetry_cell_setting           triclinic
_symmetry_space_group_name_H-M   'P 1'
_symmetry_Int_Tables_number      1
_space_group_name_Hall           'P 1'
loop_
_symmetry_equiv_pos_site_id
_symmetry_equiv_pos_as_xyz
1 x,y,z
_cell_length_a                   9.2574(19)
_cell_length_b                   15.601(3)
_cell_length_c                   22.274(4)
_cell_angle_alpha                102.19(3)
_cell_angle_beta                 101.58(3)
_cell_angle_gamma                104.32(3)
_cell_volume                     2936
loop_
_atom_site_label
_atom_site_type_symbol
_atom_site_fract_x
_atom_site_fract_y
_atom_site_fract_z
C3 C 0.0697(7) 0.1496(4) 0.3613(3)
H1 H 0.1260 0.1669 0.3333
C4 C 0.1456(7) 0.1495(5) 0.4205(3)
H2 H 0.2531 0.1659 0.4321
C5 C 0.0646(8) 0.1253(4) 0.4637(3)
C8 C 0.2903(9) 0.1530(7) 0.5474(4)
H4 H 0.3286 0.2168 0.5491
H5 H 0.3341 0.1175 0.5197
H6 H 0.3190 0.1455 0.5894
H7 H 0.0155 0.1511 0.6303
H8 H 0.0306 0.0919 0.7187
H12 H 0.0527 0.4769 0.0727
O3 O 0.1257(6) 0.1222(4) 0.5238(2)
O11 O 0.0853(6) 0.6493(4) 0.0822(3)
O28 O 0.0603(4) 0.0019(3) 0.21013(19)
O30 O 0.1141(5) 0.1466(3) 0.0780(2)
O34 O 0.2048(5) 0.1941(3) 0.2104(2)
Tb7 Tb 0.03181(3) 0.911886(19) 0.855820(13)
H34 H 0.0442 0.9319 0.1042
Tb1 Tb 0.48475(3) 0.139422(19) 0.197830(13)
Tb2 Tb 0.96819(3) 0.088114(19) 0.144180(13)
C1 C 0.8260(7) 0.1230(4) 0.2768(3)
C2 C 0.9088(7) 0.1240(4) 0.3424(3)
C6 C 0.9040(8) 0.1022(4) 0.4440(3)
C7 C 0.8266(7) 0.0999(4) 0.3842(3)
H3 H 0.7190 0.0822 0.3720
C9 C 0.7824(7) 0.1046(5) 0.5985(3)
C10 C 0.9261(8) 0.1186(5) 0.6384(3)
C11 C 0.9348(7) 0.0830(4) 0.6914(3)
C12 C 0.8025(7) 0.0353(4) 0.7029(3)
C13 C 0.6602(7) 0.0211(5) 0.6608(3)
C14 C 0.6501(7) 0.0540(5) 0.6093(3)
H10 H 0.5542 0.0426 0.5812
C16 C 0.7881(7) 0.2548(4) 0.1448(3)
C17 C 0.8219(7) 0.3492(4) 0.1309(3)
C18 C 0.9390(7) 0.3755(4) 0.1037(3)
H11 H 0.9951 0.3355 0.0927
C19 C 0.9747(7) 0.4599(5) 0.0923(3)
C20 C 0.8936(7) 0.5193(4) 0.1104(3)
C21 C 0.7749(8) 0.4940(4) 0.1379(3)
H13 H 0.7197 0.5344 0.1493
C22 C 0.7388(7) 0.4084(4) 0.1484(3)
H14 H 0.6593 0.3904 0.1671
C23 C 0.7286(8) 0.6679(4) 0.0184(3)
C27 C 0.5042(7) 0.7164(5) 0.0150(3)
H17 H 0.4115 0.7145 0.0257
C28 C 0.5858(8) 0.6587(5) 0.0330(3)
C30 C 0.3938(9) 0.5793(6) 0.0762(4)
H18 H 0.3157 0.5467 0.0369
H19 H 0.3786 0.6373 0.0931
H20 H 0.3869 0.5435 0.1062
O1 O 0.9062(5) 0.1369(3) 0.23803(19)
O2 O 0.6836(4) 0.1091(3) 0.2649(2)
O4 O 0.8170(5) 0.0737(3) 0.4864(2)
O5 O 0.8901(6) 0.2362(3) 0.5478(2)
O6 O 0.6175(6) 0.1437(4) 0.5048(3)
O9 O 0.8636(5) 0.2047(3) 0.12658(19)
O10 O 0.6875(5) 0.2363(3) 0.1749(2)
O12 O 0.9109(5) 0.6944(3) 0.1421(2)
O13 O 0.8098(6) 0.6057(3) 0.0318(2)
O14 O 0.5043(4) 0.0004(3) 0.13776(19)
O20 O 0.5580(6) 0.2393(4) 0.3090(2)
H31 H 0.4847 0.2615 0.3008
H32 H 0.5249 0.1828 0.3067
O23 O 0.8148(6) 0.0523(4) 0.0286(2)
H35 H 0.7462 0.0760 0.0405
O24 O 0.5454(6) 0.5951(3) 0.0644(2)
S1 S 0.7733(2) 0.15042(14) 0.53241(9)
S2 S 0.9392(2) 0.62939(12) 0.09661(9)
O29 O 0.3151(5) 0.0379(3) 0.2286(2)
O31 O 0.3369(5) 0.1138(3) 0.09629(19)
O32 O 0.4222(5) 0.2804(3) 0.2003(2)
C24 C 0.7824(7) 0.7295(4) 0.9865(3)
H15 H 0.8782 0.7351 0.9780
C25 C 0.6947(6) 0.7837(4) 0.9666(3)
C26 C 0.5574(7) 0.7760(5) 0.9820(3)
H16 H 0.4983 0.8127 0.9695
C29 C 0.7524(7) 0.8461(4) 0.9289(3)
O16 O 0.8859(5) 0.8534(3) 0.9220(2)
O17 O 0.6631(5) 0.8862(3) 0.90371(19)
Tb4 Tb 0.51525(3) 0.860578(19) 0.802170(13)
H9 H 0.5703 0.9883 0.6684
C15 C 0.8100(7) 0.9944(4) 0.7588(3)
C31 C 0.2940(7) 0.2730(4) 0.2127(3)
C32 C 0.2444(6) 0.3565(4) 0.2288(3)
C33 C 0.3246(7) 0.4366(4) 0.2176(3)
H21 H 0.4058 0.4369 0.1989
C34 C 0.2843(7) 0.5145(4) 0.2341(3)
C35 C 0.1650(7) 0.5187(4) 0.2619(3)
C36 C 0.0866(7) 0.4383(4) 0.2739(3)
H22 H 0.0066 0.4388 0.2933
C37 C 0.1242(7) 0.3588(4) 0.2580(3)
H23 H 0.0700 0.3060 0.2665
C38 C 0.0163(10) 0.6089(6) 0.3055(4)
H24 H 0.0506 0.6078 0.3488
C39 C 0.5552(7) 0.7483(4) 0.2373(3)
C40 C 0.6723(7) 0.7636(4) 0.2078(3)
H27 H 0.7378 0.7271 0.2072
C41 C 0.6908(7) 0.8337(4) 0.1791(3)
H28 H 0.7712 0.8456 0.1599
C42 C 0.5916(6) 0.8870(4) 0.1785(3)
C43 C 0.4752(8) 0.8703(4) 0.2081(4)
H29 H 0.4093 0.9066 0.2083
C44 C 0.4544(8) 0.8004(5) 0.2378(4)
H30 H 0.3748 0.7887 0.2574
C45 C 0.6103(7) 0.9640(4) 0.1457(3)
O7 O 0.9397(4) 0.9981(3) 0.78987(19)
O8 O 0.6849(5) 0.9621(3) 0.7714(2)
O15 O 0.7305(5) 0.9835(3) 0.1271(2)
O18 O 0.6360(6) 0.6084(4) 0.2630(3)
O19 O 0.3648(5) 0.5957(3) 0.2207(2)
O21 O 0.9927(6) 0.9522(3) 0.0760(2)
H33 H 0.9842 0.9276 0.0378
H36 H 0.7676 0.9960 0.0073
O26 O 0.1338(5) 0.5991(3) 0.2736(3)
O27 O 0.4971(7) 0.6812(4) 0.3313(2)
S3 S 0.5241(2) 0.65545(12) 0.27053(10)
H25 H 0.9230 0.5592 0.2842
H26 H 0.9967 0.6663 0.3047
H25_2 H 0.0770 0.4408 0.7158
H26_2 H 0.0033 0.3337 0.6953
H9_2 H 0.4297 0.0117 0.3316
C15_2 C 0.1900(7) 0.0056(4) 0.2412(3)
C31_2 C 0.7060(7) 0.7270(4) 0.7873(3)
C32_2 C 0.7556(6) 0.6435(4) 0.7712(3)
C33_2 C 0.6754(7) 0.5634(4) 0.7824(3)
H21_2 H 0.5942 0.5631 0.8011
C34_2 C 0.7157(7) 0.4855(4) 0.7659(3)
C35_2 C 0.8350(7) 0.4813(4) 0.7381(3)
C36_2 C 0.9134(7) 0.5617(4) 0.7261(3)
H22_2 H 0.9934 0.5612 0.7067
C37_2 C 0.8758(7) 0.6412(4) 0.7420(3)
H23_2 H 0.9300 0.6940 0.7335
C38_2 C 0.9837(10) 0.3911(6) 0.6945(4)
H24_2 H 0.9494 0.3922 0.6512
C39_2 C 0.4448(7) 0.2517(4) 0.7627(3)
C40_2 C 0.3277(7) 0.2364(4) 0.7922(3)
H27_2 H 0.2622 0.2729 0.7928
C41_2 C 0.3092(7) 0.1663(4) 0.8209(3)
H28_2 H 0.2288 0.1544 0.8401
C42_2 C 0.4084(6) 0.1130(4) 0.8215(3)
C43_2 C 0.5248(8) 0.1297(4) 0.7919(4)
H29_2 H 0.5907 0.0934 0.7917
C44_2 C 0.5456(8) 0.1996(5) 0.7622(4)
H30_2 H 0.6252 0.2113 0.7426
C45_2 C 0.3897(7) 0.0360(4) 0.8543(3)
O15_2 O 0.2695(5) 0.0165(3) 0.8729(2)
O18_2 O 0.3640(6) 0.3916(4) 0.7370(3)
O19_2 O 0.6352(5) 0.4043(3) 0.7793(2)
O21_2 O 0.0073(6) 0.0478(3) 0.9240(2)
H33_2 H 0.0158 0.0724 0.9622
O22 O 0.5778(5) 0.7196(3) 0.7997(2)
H36_2 H 0.2324 0.0040 0.9927
O25 O 0.7952(5) 0.8059(3) 0.7896(2)
O26_2 O 0.8662(5) 0.4009(3) 0.7264(3)
O27_2 O 0.5029(7) 0.3188(4) 0.6687(2)
S3_2 S 0.4759(2) 0.34455(12) 0.72947(10)
C24_2 C 0.2176(7) 0.2705(4) 0.0135(3)
H15_2 H 0.1218 0.2649 0.0220
C25_2 C 0.3053(6) 0.2163(4) 0.0334(3)
C26_2 C 0.4426(7) 0.2240(5) 0.0180(3)
H16_2 H 0.5017 0.1873 0.0305
C29_2 C 0.2476(7) 0.1539(4) 0.0711(3)
C1_2 C 0.1740(7) 0.8770(4) 0.7232(3)
C2_2 C 0.0912(7) 0.8760(4) 0.6576(3)
C6_2 C 0.0960(8) 0.8978(4) 0.5560(3)
C7_2 C 0.1734(7) 0.9001(4) 0.6158(3)
H3_2 H 0.2810 0.9178 0.6280
C9_2 C 0.2176(7) 0.8954(5) 0.4015(3)
C10_2 C 0.0739(8) 0.8814(5) 0.3616(3)
C11_2 C 0.0652(7) 0.9170(4) 0.3086(3)
C12_2 C 0.1975(7) 0.9647(4) 0.2971(3)
C13_2 C 0.3398(7) 0.9789(5) 0.3392(3)
C14_2 C 0.3499(7) 0.9460(5) 0.3907(3)
H10_2 H 0.4458 0.9574 0.4188
C16_2 C 0.2119(7) 0.7452(4) 0.8552(3)
C17_2 C 0.1781(7) 0.6508(4) 0.8691(3)
C18_2 C 0.0610(7) 0.6245(4) 0.8963(3)
H11_2 H 0.0049 0.6645 0.9073
C19_2 C 0.0253(7) 0.5401(5) 0.9077(3)
C20_2 C 0.1064(7) 0.4807(4) 0.8896(3)
C21_2 C 0.2251(8) 0.5060(4) 0.8621(3)
H13_2 H 0.2803 0.4656 0.8507
C22_2 C 0.2612(7) 0.5916(4) 0.8516(3)
H14_2 H 0.3407 0.6096 0.8329
C23_2 C 0.2714(8) 0.3321(4) 0.9816(3)
C27_2 C 0.4958(7) 0.2836(5) 0.9850(3)
H17_2 H 0.5885 0.2855 0.9743
C28_2 C 0.4142(8) 0.3413(5) 0.9670(3)
C30_2 C 0.6062(9) 0.4207(6) 0.9238(4)
H18_2 H 0.6843 0.4533 0.9631
H19_2 H 0.6214 0.3627 0.9069
H20_2 H 0.6131 0.4565 0.8938
O1_2 O 0.0938(5) 0.8631(3) 0.76197(19)
O2_2 O 0.3164(4) 0.8909(3) 0.7351(2)
O4_2 O 0.1830(5) 0.9263(3) 0.5136(2)
O5_2 O 0.1099(6) 0.7638(3) 0.4522(2)
O6_2 O 0.3825(6) 0.8563(4) 0.4952(3)
O9_2 O 0.1364(5) 0.7953(3) 0.87342(19)
O10_2 O 0.3125(5) 0.7637(3) 0.8251(2)
O12_2 O 0.0891(5) 0.3056(3) 0.8579(2)
O13_2 O 0.1902(6) 0.3943(3) 0.9682(2)
O14_2 O 0.4957(4) 0.9996(3) 0.86224(19)
O20_2 O 0.4420(6) 0.7607(4) 0.6910(2)
H31_2 H 0.5153 0.7385 0.6992
H32_2 H 0.4751 0.8172 0.6933
O23_2 O 0.1852(6) 0.9477(4) 0.9714(2)
H35_2 H 0.2538 0.9240 0.9595
O24_2 O 0.4546(6) 0.4049(3) 0.9356(2)
S1_2 S 0.2267(2) 0.84958(14) 0.46759(9)
S2_2 S 0.0608(2) 0.37061(12) 0.90339(9)
H34_2 H 0.9558 0.0681 0.8958
C3_2 C 0.9303(7) 0.8504(4) 0.6387(3)
H1_2 H 0.8740 0.8331 0.6667
C4_2 C 0.8544(7) 0.8505(5) 0.5795(3)
H2_2 H 0.7469 0.8341 0.5679
C5_2 C 0.9354(8) 0.8747(4) 0.5363(3)
C8_2 C 0.7097(9) 0.8470(7) 0.4526(4)
H4_2 H 0.6714 0.7832 0.4509
H5_2 H 0.6659 0.8825 0.4803
H6_2 H 0.6810 0.8545 0.4106
H7_2 H 0.9845 0.8489 0.3697
H8_2 H 0.9694 0.9081 0.2813
H12_2 H 0.9473 0.5231 0.9273
O3_2 O 0.8743(6) 0.8778(4) 0.4762(2)
O11_2 O 0.9147(6) 0.3507(4) 0.9178(3)
loop_
_geom_bond_atom_site_label_1
_geom_bond_atom_site_label_2
_geom_bond_site_symmetry_1
_geom_bond_site_symmetry_2
C3 H1 1_555 1_555
C4 C3 1_555 1_555
H2 C4 1_555 1_555
C5 C4 1_555 1_555
C8 H4 1_555 1_555
H5 C8 1_555 1_555
H6 C8 1_555 1_555
O3 C5 1_555 1_555
C8 O3 1_555 1_555
Tb1 O2 1_555 1_555
Tb2 O1 1_555 1_555
C1 C2 1_555 1_555
C7 C2 1_555 1_555
H3 C7 1_555 1_555
C9 C10 1_555 1_555
C11 C10 1_555 1_555
C12 C11 1_555 1_555
C13 C12 1_555 1_555
C14 C9 1_555 1_555
H10 C14 1_555 1_555
C16 C17 1_555 1_555
C17 C18 1_555 1_555
C18 H11 1_555 1_555
C19 C18 1_555 1_555
C20 C19 1_555 1_555
C21 C20 1_555 1_555
H13 C21 1_555 1_555
C22 C17 1_555 1_555
H14 C22 1_555 1_555
H17 C27 1_555 1_555
C28 C23 1_555 1_555
C30 H18 1_555 1_555
H19 C30 1_555 1_555
H20 C30 1_555 1_555
O1 C1 1_555 1_555
O2 C1 1_555 1_555
O4 C6 1_555 1_555
O5 S1 1_555 1_555
O6 S1 1_555 1_555
O9 Tb2 1_555 1_555
O10 Tb1 1_555 1_555
O12 S2 1_555 1_555
O13 C23 1_555 1_555
O14 Tb1 1_555 1_555
O20 Tb1 1_555 1_555
H31 O20 1_555 1_555
H32 O20 1_555 1_555
O23 Tb2 1_555 1_555
H35 O23 1_555 1_555
O24 C28 1_555 1_555
S1 C9 1_555 1_555
S2 C20 1_555 1_555
O29 Tb1 1_555 1_555
O31 Tb1 1_555 1_555
O32 Tb1 1_555 1_555
O34 Tb1 1_555 1_555
C6 C7 1_555 1_555
C13 C14 1_555 1_555
C16 O9 1_555 1_555
C16 O10 1_555 1_555
C21 C22 1_555 1_555
C27 C28 1_555 1_555
C30 O24 1_555 1_555
O4 S1 1_555 1_555
O13 S2 1_555 1_555
C24 H15 1_555 1_555
C25 C24 1_555 1_555
C26 C25 1_555 1_555
H16 C26 1_555 1_555
C29 C25 1_555 1_555
O16 C29 1_555 1_555
O17 C29 1_555 1_555
Tb4 O17 1_555 1_555
C31 C32 1_555 1_555
C32 C33 1_555 1_555
C33 H21 1_555 1_555
C34 C33 1_555 1_555
C35 C34 1_555 1_555
C36 C35 1_555 1_555
H22 C36 1_555 1_555
C37 C32 1_555 1_555
H23 C37 1_555 1_555
C38 H24 1_555 1_555
C39 C40 1_555 1_555
C40 H27 1_555 1_555
C41 C40 1_555 1_555
H28 C41 1_555 1_555
C42 C41 1_555 1_555
C43 C42 1_555 1_555
H29 C43 1_555 1_555
C44 C39 1_555 1_555
H30 C44 1_555 1_555
C45 C42 1_555 1_555
O7 C15 1_555 1_555
O8 C15 1_555 1_555
O18 S3 1_555 1_555
O19 C34 1_555 1_555
H33 O21 1_555 1_555
O32 C31 1_555 1_555
O34 C31 1_555 1_555
O26 C35 1_555 1_555
O27 S3 1_555 1_555
S3 C39 1_555 1_555
Tb4 O8 1_555 1_555
C36 C37 1_555 1_555
C38 O26 1_555 1_555
C43 C44 1_555 1_555
C45 O15 1_555 1_555
O19 S3 1_555 1_555
C31_2 C32_2 1_555 1_555
C32_2 C33_2 1_555 1_555
C33_2 H21_2 1_555 1_555
C34_2 C33_2 1_555 1_555
C35_2 C34_2 1_555 1_555
C36_2 C35_2 1_555 1_555
H22_2 C36_2 1_555 1_555
C37_2 C32_2 1_555 1_555
H23_2 C37_2 1_555 1_555
C38_2 H24_2 1_555 1_555
C39_2 C40_2 1_555 1_555
C40_2 H27_2 1_555 1_555
C41_2 C40_2 1_555 1_555
H28_2 C41_2 1_555 1_555
C42_2 C41_2 1_555 1_555
C43_2 C42_2 1_555 1_555
H29_2 C43_2 1_555 1_555
C44_2 C39_2 1_555 1_555
H30_2 C44_2 1_555 1_555
C45_2 C42_2 1_555 1_555
O28 C15_2 1_555 1_555
O29 C15_2 1_555 1_555
O18_2 S3_2 1_555 1_555
O19_2 C34_2 1_555 1_555
H33_2 O21_2 1_555 1_555
O22 C31_2 1_555 1_555
O25 C31_2 1_555 1_555
O26_2 C35_2 1_555 1_555
O27_2 S3_2 1_555 1_555
S3_2 C39_2 1_555 1_555
Tb4 O22 1_555 1_555
C36_2 C37_2 1_555 1_555
C38_2 O26_2 1_555 1_555
C43_2 C44_2 1_555 1_555
C45_2 O15_2 1_555 1_555
O19_2 S3_2 1_555 1_555
O25 Tb4 1_555 1_555
C24_2 H15_2 1_555 1_555
C25_2 C24_2 1_555 1_555
C26_2 C25_2 1_555 1_555
H16_2 C26_2 1_555 1_555
C29_2 C25_2 1_555 1_555
O30 C29_2 1_555 1_555
O31 C29_2 1_555 1_555
Tb4 O2_2 1_555 1_555
Tb7 O1_2 1_555 1_555
C1_2 C2_2 1_555 1_555
C7_2 C2_2 1_555 1_555
H3_2 C7_2 1_555 1_555
C9_2 C10_2 1_555 1_555
C11_2 C10_2 1_555 1_555
C12_2 C11_2 1_555 1_555
C13_2 C12_2 1_555 1_555
C14_2 C9_2 1_555 1_555
H10_2 C14_2 1_555 1_555
C16_2 C17_2 1_555 1_555
C17_2 C18_2 1_555 1_555
C18_2 H11_2 1_555 1_555
C19_2 C18_2 1_555 1_555
C20_2 C19_2 1_555 1_555
C21_2 C20_2 1_555 1_555
H13_2 C21_2 1_555 1_555
C22_2 C17_2 1_555 1_555
H14_2 C22_2 1_555 1_555
H17_2 C27_2 1_555 1_555
C28_2 C23_2 1_555 1_555
C30_2 H18_2 1_555 1_555
H19_2 C30_2 1_555 1_555
H20_2 C30_2 1_555 1_555
O1_2 C1_2 1_555 1_555
O2_2 C1_2 1_555 1_555
O4_2 C6_2 1_555 1_555
O5_2 S1_2 1_555 1_555
O6_2 S1_2 1_555 1_555
O9_2 Tb7 1_555 1_555
O10_2 Tb4 1_555 1_555
O12_2 S2_2 1_555 1_555
O13_2 C23_2 1_555 1_555
O14_2 Tb4 1_555 1_555
O20_2 Tb4 1_555 1_555
H31_2 O20_2 1_555 1_555
H32_2 O20_2 1_555 1_555
O23_2 Tb7 1_555 1_555
H35_2 O23_2 1_555 1_555
O24_2 C28_2 1_555 1_555
S1_2 C9_2 1_555 1_555
S2_2 C20_2 1_555 1_555
C6_2 C7_2 1_555 1_555
C13_2 C14_2 1_555 1_555
C16_2 O9_2 1_555 1_555
C16_2 O10_2 1_555 1_555
C21_2 C22_2 1_555 1_555
C27_2 C28_2 1_555 1_555
C30_2 O24_2 1_555 1_555
O4_2 S1_2 1_555 1_555
O13_2 S2_2 1_555 1_555
C3_2 H1_2 1_555 1_555
C4_2 C3_2 1_555 1_555
H2_2 C4_2 1_555 1_555
C5_2 C4_2 1_555 1_555
C8_2 H4_2 1_555 1_555
H5_2 C8_2 1_555 1_555
H6_2 C8_2 1_555 1_555
O3_2 C5_2 1_555 1_555
C8_2 O3_2 1_555 1_555

#END
