
###############################################################################
#
# This file contains modified crystal structure data generated from the
# MOF subset of the Cambridge Structural Database (CSD) v543 
# hosted by the Cambridge Crystallographic Data Centre (CCDC).
#
# This work is licensed under the Creative Commons
# Attribution-NonCommercial-ShareAlike 4.0 International License.
# To view a copy of this license, visit
# http://creativecommons.org/licenses/by-nc-sa/4.0/
# or send a letter to
# Creative Commons, PO Box 1866, Mountain View, CA 94042, USA.
#
# CIF created using the CSD Python API on 29 September 2022
# The structure has been converted into the P1 space group
# The structure has a 3D framework
# The original CSD entry WENLAE is in the triclinic crystal system
# The framework has been calculated to contain at least 10.0% void space
# The void calculation uses a probe of radius 1.32A, grid spacing 0.4
#
###############################################################################

data_WENLAE
_chemical_formula_moiety         '(C90 H72 Dy4 O54 S6)n'
_symmetry_cell_setting           triclinic
_symmetry_space_group_name_H-M   'P 1'
_symmetry_Int_Tables_number      1
_space_group_name_Hall           'P 1'
loop_
_symmetry_equiv_pos_site_id
_symmetry_equiv_pos_as_xyz
1 x,y,z
_cell_length_a                   9.1999(19)
_cell_length_b                   15.578(3)
_cell_length_c                   22.142(4)
_cell_angle_alpha                102.86(3)
_cell_angle_beta                 101.55(3)
_cell_angle_gamma                104.52(3)
_cell_volume                     2882.59
loop_
_atom_site_label
_atom_site_type_symbol
_atom_site_fract_x
_atom_site_fract_y
_atom_site_fract_z
C3 C 0.0762(10) 0.1487(7) 0.3618(5)
H1 H 0.1344 0.1664 0.3344
C4 C 0.1493(12) 0.1488(7) 0.4206(5)
H2 H 0.2577 0.1657 0.4333
C5 C 0.0640(12) 0.1237(7) 0.4633(5)
C8 C 0.2911(12) 0.1473(9) 0.5470(5)
H4 H 0.3349 0.2104 0.5477
H5 H 0.3298 0.1079 0.5188
H6 H 0.3201 0.1415 0.5897
H7 H 0.0163 0.1510 0.6319
H8 H 0.0326 0.0902 0.7194
H11 H 0.0014 0.3348 0.0915
H12 H 0.0640 0.4785 0.0749
O3 O 0.1229(8) 0.1203(5) 0.5241(3)
O11 O 0.0991(8) 0.6521(5) 0.0864(4)
O28 O 0.0585(7) 0.0013(4) 0.2090(3)
O30 O 0.1175(7) 0.1425(5) 0.0747(3)
O34 O 0.2109(8) 0.1928(5) 0.2084(3)
Dy7 Dy 0.02917(5) 0.91285(3) 0.85774(2)
H34 H 0.0463 0.9319 0.1031
Dy1 Dy 0.48589(5) 0.13777(3) 0.19568(2)
Dy2 Dy 0.97083(5) 0.08715(3) 0.14226(2)
C1 C 0.8316(11) 0.1233(6) 0.2758(5)
C2 C 0.9096(11) 0.1214(7) 0.3409(5)
C6 C 0.9010(12) 0.0979(7) 0.4436(5)
C7 C 0.8253(11) 0.0979(7) 0.3818(5)
H3 H 0.7170 0.0817 0.3689
C9 C 0.7826(11) 0.1047(7) 0.5978(5)
C10 C 0.9256(11) 0.1179(8) 0.6393(5)
C11 C 0.9357(12) 0.0820(7) 0.6923(5)
C12 C 0.8006(10) 0.0346(7) 0.7038(5)
C13 C 0.6583(12) 0.0219(8) 0.6618(5)
C14 C 0.6459(12) 0.0553(7) 0.6089(5)
H10 H 0.5488 0.0453 0.5813
C16 C 0.7943(12) 0.2538(7) 0.1442(5)
C17 C 0.8277(11) 0.3490(8) 0.1308(5)
C18 C 0.9463(12) 0.3753(8) 0.1036(5)
C19 C 0.9843(11) 0.4612(7) 0.0939(5)
C20 C 0.9040(11) 0.5224(7) 0.1125(5)
C21 C 0.7827(12) 0.4979(8) 0.1405(5)
H13 H 0.7284 0.5388 0.1528
C22 C 0.7458(12) 0.4102(7) 0.1495(5)
H14 H 0.6655 0.3921 0.1682
C23 C 0.7385(11) 0.6694(7) 0.0210(5)
C27 C 0.5005(11) 0.7090(8) 0.0151(5)
H17 H 0.4031 0.7010 0.0230
C28 C 0.5921(12) 0.6566(8) 0.0355(6)
C30 C 0.4012(14) 0.5719(10) 0.0757(6)
H18 H 0.3244 0.5528 0.0350
H19 H 0.3921 0.6267 0.1027
H20 H 0.3845 0.5233 0.0962
O1 O 0.9119(8) 0.1401(5) 0.2375(3)
O2 O 0.6843(7) 0.1065(5) 0.2616(3)
O4 O 0.8143(8) 0.0718(5) 0.4849(3)
O5 O 0.8923(8) 0.2352(5) 0.5477(3)
O6 O 0.6131(8) 0.1432(6) 0.5045(4)
O9 O 0.8709(8) 0.2051(5) 0.1247(3)
O10 O 0.6903(8) 0.2344(5) 0.1735(3)
O12 O 0.9202(8) 0.6982(5) 0.1468(3)
O13 O 0.8217(9) 0.6082(5) 0.0329(3)
O20 O 0.5536(9) 0.2339(6) 0.3069(3)
H31 H 0.4802 0.2561 0.2987
H32 H 0.5204 0.1774 0.3046
O23 O 0.8149(9) 0.0525(6) 0.0265(4)
H35 H 0.7463 0.0762 0.0384
O24 O 0.5543(9) 0.5908(5) 0.0659(4)
S1 S 0.7712(3) 0.1489(2) 0.53215(14)
S2 S 0.9507(3) 0.6322(2) 0.09981(14)
O29 O 0.3164(7) 0.0360(5) 0.2265(3)
O31 O 0.3459(8) 0.1136(5) 0.0933(3)
O32 O 0.4288(7) 0.2808(5) 0.1982(4)
C24 C 0.7877(11) 0.7316(7) 0.9897(5)
H15 H 0.8844 0.7394 0.9811
C25 C 0.6945(11) 0.7845(7) 0.9698(5)
C26 C 0.5517(11) 0.7727(8) 0.9835(5)
H16 H 0.4896 0.8080 0.9713
C29 C 0.7482(11) 0.8473(7) 0.9323(5)
O16 O 0.8825(7) 0.8575(5) 0.9253(3)
O17 O 0.6541(8) 0.8864(5) 0.9067(3)
Dy4 Dy 0.51411(5) 0.86223(3) 0.80432(2)
H9 H 0.5675 0.9895 0.6695
C15 C 0.8092(11) 0.9957(7) 0.7600(5)
C31 C 0.2955(13) 0.2703(8) 0.2104(5)
C32 C 0.2464(10) 0.3559(7) 0.2284(5)
C33 C 0.3262(11) 0.4356(7) 0.2159(4)
H21 H 0.4065 0.4353 0.1963
C34 C 0.2848(11) 0.5148(7) 0.2329(5)
C35 C 0.1655(12) 0.5158(7) 0.2634(5)
C36 C 0.0899(11) 0.4359(7) 0.2747(5)
H22 H 0.0101 0.4363 0.2946
C37 C 0.1263(11) 0.3550(8) 0.2581(5)
H23 H 0.0726 0.3017 0.2663
C38 C 0.0151(12) 0.6058(8) 0.3078(6)
H24 H 0.0510 0.6034 0.3510
C39 C 0.5547(11) 0.7486(7) 0.2372(5)
C40 C 0.6754(10) 0.7643(7) 0.2077(5)
H27 H 0.7425 0.7285 0.2084
C41 C 0.6945(11) 0.8321(6) 0.1778(5)
H28 H 0.7741 0.8426 0.1577
C42 C 0.5931(11) 0.8864(7) 0.1775(4)
C43 C 0.4730(11) 0.8679(7) 0.2070(5)
H29 H 0.4034 0.9020 0.2056
C44 C 0.4551(12) 0.8007(8) 0.2380(5)
H30 H 0.3773 0.7907 0.2590
C45 C 0.6100(11) 0.9616(7) 0.1439(4)
O7 O 0.9415(7) 0.9987(4) 0.7910(3)
O8 O 0.6836(7) 0.9640(5) 0.7735(3)
O14 O 0.5003(7) 0.9968(4) 0.1344(3)
O15 O 0.7326(7) 0.9829(5) 0.1266(3)
O18 O 0.6403(8) 0.6095(5) 0.2639(4)
O19 O 0.3618(7) 0.5940(5) 0.2195(3)
O21 O 0.9948(8) 0.9522(5) 0.0749(3)
H33 H 0.9863 0.9276 0.0367
H36 H 0.7677 0.9961 0.0052
O26 O 0.1318(8) 0.5982(5) 0.2749(4)
O27 O 0.4998(9) 0.6830(5) 0.3319(4)
S3 S 0.5250(3) 0.6562(2) 0.27072(14)
H25 H 0.9210 0.5556 0.2857
H26 H 0.9949 0.6636 0.3088
H25_2 H 0.0790 0.4444 0.7143
H26_2 H 0.0051 0.3364 0.6912
H9_2 H 0.4325 0.0105 0.3305
C15_2 C 0.1908(11) 0.0043(7) 0.2400(5)
C31_2 C 0.7045(13) 0.7297(8) 0.7896(5)
C32_2 C 0.7536(10) 0.6441(7) 0.7716(5)
C33_2 C 0.6738(11) 0.5644(7) 0.7841(4)
H21_2 H 0.5935 0.5647 0.8037
C34_2 C 0.7152(11) 0.4852(7) 0.7671(5)
C35_2 C 0.8345(12) 0.4842(7) 0.7366(5)
C36_2 C 0.9101(11) 0.5641(7) 0.7253(5)
H22_2 H 0.9899 0.5637 0.7054
C37_2 C 0.8737(11) 0.6450(8) 0.7419(5)
H23_2 H 0.9274 0.6983 0.7337
C38_2 C 0.9849(12) 0.3942(8) 0.6922(6)
H24_2 H 0.9490 0.3966 0.6490
C39_2 C 0.4453(11) 0.2514(7) 0.7628(5)
C40_2 C 0.3246(10) 0.2357(7) 0.7923(5)
H27_2 H 0.2575 0.2715 0.7916
C41_2 C 0.3055(11) 0.1679(6) 0.8222(5)
H28_2 H 0.2259 0.1574 0.8423
C42_2 C 0.4069(11) 0.1136(7) 0.8225(4)
C43_2 C 0.5270(11) 0.1321(7) 0.7930(5)
H29_2 H 0.5966 0.0980 0.7944
C44_2 C 0.5449(12) 0.1993(8) 0.7620(5)
H30_2 H 0.6227 0.2093 0.7410
C45_2 C 0.3900(11) 0.0384(7) 0.8561(4)
O14_2 O 0.4997(7) 0.0032(4) 0.8656(3)
O15_2 O 0.2674(7) 0.0171(5) 0.8734(3)
O18_2 O 0.3597(8) 0.3905(5) 0.7361(4)
O19_2 O 0.6382(7) 0.4060(5) 0.7805(3)
O21_2 O 0.0052(8) 0.0478(5) 0.9251(3)
H33_2 H 0.0137 0.0724 0.9633
O22 O 0.5712(7) 0.7192(5) 0.8018(4)
H36_2 H 0.2323 0.0039 0.9948
O25 O 0.7891(8) 0.8072(5) 0.7916(3)
O26_2 O 0.8682(8) 0.4018(5) 0.7251(4)
O27_2 O 0.5002(9) 0.3170(5) 0.6681(4)
S3_2 S 0.4750(3) 0.3438(2) 0.72928(14)
C24_2 C 0.2123(11) 0.2684(7) 0.0103(5)
H15_2 H 0.1156 0.2606 0.0189
C25_2 C 0.3055(11) 0.2155(7) 0.0302(5)
C26_2 C 0.4483(11) 0.2273(8) 0.0165(5)
H16_2 H 0.5104 0.1920 0.0287
C29_2 C 0.2518(11) 0.1527(7) 0.0677(5)
C1_2 C 0.1684(11) 0.8767(6) 0.7242(5)
C2_2 C 0.0904(11) 0.8786(7) 0.6591(5)
C6_2 C 0.0990(12) 0.9021(7) 0.5564(5)
C7_2 C 0.1747(11) 0.9021(7) 0.6182(5)
H3_2 H 0.2830 0.9183 0.6311
C9_2 C 0.2174(11) 0.8953(7) 0.4022(5)
C10_2 C 0.0744(11) 0.8821(8) 0.3607(5)
C11_2 C 0.0643(12) 0.9180(7) 0.3077(5)
C12_2 C 0.1994(10) 0.9654(7) 0.2962(5)
C13_2 C 0.3417(12) 0.9781(8) 0.3382(5)
C14_2 C 0.3541(12) 0.9447(7) 0.3911(5)
H10_2 H 0.4512 0.9547 0.4187
C16_2 C 0.2057(12) 0.7462(7) 0.8558(5)
C17_2 C 0.1723(11) 0.6510(8) 0.8692(5)
C18_2 C 0.0537(12) 0.6247(8) 0.8964(5)
C19_2 C 0.0157(11) 0.5388(7) 0.9061(5)
C20_2 C 0.0960(11) 0.4776(7) 0.8875(5)
C21_2 C 0.2173(12) 0.5021(8) 0.8595(5)
H13_2 H 0.2716 0.4612 0.8472
C22_2 C 0.2542(12) 0.5898(7) 0.8505(5)
H14_2 H 0.3345 0.6079 0.8318
C23_2 C 0.2615(11) 0.3306(7) 0.9790(5)
C27_2 C 0.4995(11) 0.2910(8) 0.9849(5)
H17_2 H 0.5969 0.2990 0.9770
C28_2 C 0.4079(12) 0.3434(8) 0.9645(6)
C30_2 C 0.5988(14) 0.4281(10) 0.9243(6)
H18_2 H 0.6756 0.4472 0.9650
H19_2 H 0.6079 0.3733 0.8973
H20_2 H 0.6155 0.4767 0.9038
O1_2 O 0.0881(8) 0.8599(5) 0.7625(3)
O2_2 O 0.3157(7) 0.8935(5) 0.7384(3)
O4_2 O 0.1857(8) 0.9282(5) 0.5151(3)
O5_2 O 0.1077(8) 0.7648(5) 0.4523(3)
O6_2 O 0.3869(8) 0.8568(6) 0.4955(4)
O9_2 O 0.1291(8) 0.7949(5) 0.8753(3)
O10_2 O 0.3097(8) 0.7656(5) 0.8265(3)
O12_2 O 0.0798(8) 0.3018(5) 0.8532(3)
O13_2 O 0.1783(9) 0.3918(5) 0.9671(3)
O20_2 O 0.4464(9) 0.7661(6) 0.6931(3)
H31_2 H 0.5198 0.7439 0.7013
H32_2 H 0.4796 0.8226 0.6954
O23_2 O 0.1851(9) 0.9475(6) 0.9735(4)
H35_2 H 0.2537 0.9238 0.9616
O24_2 O 0.4457(9) 0.4092(5) 0.9341(4)
S1_2 S 0.2288(3) 0.8511(2) 0.46785(14)
S2_2 S 0.0493(3) 0.3678(2) 0.90019(14)
H34_2 H 0.9537 0.0681 0.8969
C3_2 C 0.9238(10) 0.8513(7) 0.6382(5)
H1_2 H 0.8656 0.8336 0.6656
C4_2 C 0.8507(12) 0.8512(7) 0.5794(5)
H2_2 H 0.7423 0.8343 0.5667
C5_2 C 0.9360(12) 0.8763(7) 0.5367(5)
C8_2 C 0.7089(12) 0.8527(9) 0.4530(5)
H4_2 H 0.6651 0.7896 0.4523
H5_2 H 0.6702 0.8921 0.4812
H6_2 H 0.6799 0.8585 0.4103
H7_2 H 0.9837 0.8490 0.3681
H8_2 H 0.9674 0.9098 0.2806
H11_2 H 0.9986 0.6652 0.9085
H12_2 H 0.9360 0.5215 0.9251
O3_2 O 0.8771(8) 0.8797(5) 0.4759(3)
O11_2 O 0.9009(8) 0.3479(5) 0.9136(4)
loop_
_geom_bond_atom_site_label_1
_geom_bond_atom_site_label_2
_geom_bond_site_symmetry_1
_geom_bond_site_symmetry_2
C3 H1 1_555 1_555
C4 C3 1_555 1_555
H2 C4 1_555 1_555
C5 C4 1_555 1_555
C8 H4 1_555 1_555
H5 C8 1_555 1_555
H6 C8 1_555 1_555
O3 C5 1_555 1_555
C8 O3 1_555 1_555
Dy1 O2 1_555 1_555
Dy2 O1 1_555 1_555
C1 C2 1_555 1_555
C7 C2 1_555 1_555
H3 C7 1_555 1_555
C9 C10 1_555 1_555
C11 C10 1_555 1_555
C12 C11 1_555 1_555
C13 C12 1_555 1_555
C14 C9 1_555 1_555
H10 C14 1_555 1_555
C16 C17 1_555 1_555
C17 C18 1_555 1_555
C19 C18 1_555 1_555
C20 C19 1_555 1_555
C21 C20 1_555 1_555
H13 C21 1_555 1_555
C22 C17 1_555 1_555
H14 C22 1_555 1_555
H17 C27 1_555 1_555
C28 C23 1_555 1_555
C30 H18 1_555 1_555
H19 C30 1_555 1_555
H20 C30 1_555 1_555
O1 C1 1_555 1_555
O2 C1 1_555 1_555
O4 C6 1_555 1_555
O5 S1 1_555 1_555
O6 S1 1_555 1_555
O9 Dy2 1_555 1_555
O10 Dy1 1_555 1_555
O12 S2 1_555 1_555
O13 C23 1_555 1_555
O20 Dy1 1_555 1_555
H31 O20 1_555 1_555
H32 O20 1_555 1_555
O23 Dy2 1_555 1_555
H35 O23 1_555 1_555
O24 C28 1_555 1_555
S1 C9 1_555 1_555
S2 C20 1_555 1_555
O29 Dy1 1_555 1_555
O31 Dy1 1_555 1_555
O32 Dy1 1_555 1_555
O34 Dy1 1_555 1_555
C6 C7 1_555 1_555
C13 C14 1_555 1_555
C16 O9 1_555 1_555
C16 O10 1_555 1_555
C21 C22 1_555 1_555
C27 C28 1_555 1_555
C30 O24 1_555 1_555
O4 S1 1_555 1_555
O13 S2 1_555 1_555
C24 H15 1_555 1_555
C25 C24 1_555 1_555
C26 C25 1_555 1_555
H16 C26 1_555 1_555
C29 C25 1_555 1_555
O16 C29 1_555 1_555
O17 C29 1_555 1_555
Dy4 O17 1_555 1_555
C31 C32 1_555 1_555
C32 C33 1_555 1_555
C33 H21 1_555 1_555
C34 C33 1_555 1_555
C35 C34 1_555 1_555
C36 C35 1_555 1_555
H22 C36 1_555 1_555
C37 C32 1_555 1_555
H23 C37 1_555 1_555
C38 H24 1_555 1_555
C39 C40 1_555 1_555
C40 H27 1_555 1_555
C41 C40 1_555 1_555
H28 C41 1_555 1_555
C42 C41 1_555 1_555
C43 C42 1_555 1_555
H29 C43 1_555 1_555
C44 C39 1_555 1_555
H30 C44 1_555 1_555
C45 C42 1_555 1_555
O7 C15 1_555 1_555
O8 C15 1_555 1_555
O18 S3 1_555 1_555
O19 C34 1_555 1_555
H33 O21 1_555 1_555
O32 C31 1_555 1_555
O34 C31 1_555 1_555
O26 C35 1_555 1_555
O27 S3 1_555 1_555
S3 C39 1_555 1_555
Dy4 O8 1_555 1_555
C36 C37 1_555 1_555
C38 O26 1_555 1_555
C43 C44 1_555 1_555
C45 O14 1_555 1_555
C45 O15 1_555 1_555
O19 S3 1_555 1_555
C31_2 C32_2 1_555 1_555
C32_2 C33_2 1_555 1_555
C33_2 H21_2 1_555 1_555
C34_2 C33_2 1_555 1_555
C35_2 C34_2 1_555 1_555
C36_2 C35_2 1_555 1_555
H22_2 C36_2 1_555 1_555
C37_2 C32_2 1_555 1_555
H23_2 C37_2 1_555 1_555
C38_2 H24_2 1_555 1_555
C39_2 C40_2 1_555 1_555
C40_2 H27_2 1_555 1_555
C41_2 C40_2 1_555 1_555
H28_2 C41_2 1_555 1_555
C42_2 C41_2 1_555 1_555
C43_2 C42_2 1_555 1_555
H29_2 C43_2 1_555 1_555
C44_2 C39_2 1_555 1_555
H30_2 C44_2 1_555 1_555
C45_2 C42_2 1_555 1_555
O28 C15_2 1_555 1_555
O29 C15_2 1_555 1_555
O18_2 S3_2 1_555 1_555
O19_2 C34_2 1_555 1_555
H33_2 O21_2 1_555 1_555
O22 C31_2 1_555 1_555
O25 C31_2 1_555 1_555
O26_2 C35_2 1_555 1_555
O27_2 S3_2 1_555 1_555
S3_2 C39_2 1_555 1_555
Dy4 O22 1_555 1_555
C36_2 C37_2 1_555 1_555
C38_2 O26_2 1_555 1_555
C43_2 C44_2 1_555 1_555
C45_2 O14_2 1_555 1_555
C45_2 O15_2 1_555 1_555
O19_2 S3_2 1_555 1_555
O25 Dy4 1_555 1_555
C24_2 H15_2 1_555 1_555
C25_2 C24_2 1_555 1_555
C26_2 C25_2 1_555 1_555
H16_2 C26_2 1_555 1_555
C29_2 C25_2 1_555 1_555
O30 C29_2 1_555 1_555
O31 C29_2 1_555 1_555
Dy4 O2_2 1_555 1_555
Dy7 O1_2 1_555 1_555
C1_2 C2_2 1_555 1_555
C7_2 C2_2 1_555 1_555
H3_2 C7_2 1_555 1_555
C9_2 C10_2 1_555 1_555
C11_2 C10_2 1_555 1_555
C12_2 C11_2 1_555 1_555
C13_2 C12_2 1_555 1_555
C14_2 C9_2 1_555 1_555
H10_2 C14_2 1_555 1_555
C16_2 C17_2 1_555 1_555
C17_2 C18_2 1_555 1_555
C19_2 C18_2 1_555 1_555
C20_2 C19_2 1_555 1_555
C21_2 C20_2 1_555 1_555
H13_2 C21_2 1_555 1_555
C22_2 C17_2 1_555 1_555
H14_2 C22_2 1_555 1_555
H17_2 C27_2 1_555 1_555
C28_2 C23_2 1_555 1_555
C30_2 H18_2 1_555 1_555
H19_2 C30_2 1_555 1_555
H20_2 C30_2 1_555 1_555
O1_2 C1_2 1_555 1_555
O2_2 C1_2 1_555 1_555
O4_2 C6_2 1_555 1_555
O5_2 S1_2 1_555 1_555
O6_2 S1_2 1_555 1_555
O9_2 Dy7 1_555 1_555
O10_2 Dy4 1_555 1_555
O12_2 S2_2 1_555 1_555
O13_2 C23_2 1_555 1_555
O20_2 Dy4 1_555 1_555
H31_2 O20_2 1_555 1_555
H32_2 O20_2 1_555 1_555
O23_2 Dy7 1_555 1_555
H35_2 O23_2 1_555 1_555
O24_2 C28_2 1_555 1_555
S1_2 C9_2 1_555 1_555
S2_2 C20_2 1_555 1_555
C6_2 C7_2 1_555 1_555
C13_2 C14_2 1_555 1_555
C16_2 O9_2 1_555 1_555
C16_2 O10_2 1_555 1_555
C21_2 C22_2 1_555 1_555
C27_2 C28_2 1_555 1_555
C30_2 O24_2 1_555 1_555
O4_2 S1_2 1_555 1_555
O13_2 S2_2 1_555 1_555
C3_2 H1_2 1_555 1_555
C4_2 C3_2 1_555 1_555
H2_2 C4_2 1_555 1_555
C5_2 C4_2 1_555 1_555
C8_2 H4_2 1_555 1_555
H5_2 C8_2 1_555 1_555
H6_2 C8_2 1_555 1_555
O3_2 C5_2 1_555 1_555
C8_2 O3_2 1_555 1_555

#END
