
###############################################################################
#
# This file contains modified crystal structure data generated from the
# MOF subset of the Cambridge Structural Database (CSD) v543 
# hosted by the Cambridge Crystallographic Data Centre (CCDC).
#
# This work is licensed under the Creative Commons
# Attribution-NonCommercial-ShareAlike 4.0 International License.
# To view a copy of this license, visit
# http://creativecommons.org/licenses/by-nc-sa/4.0/
# or send a letter to
# Creative Commons, PO Box 1866, Mountain View, CA 94042, USA.
#
# CIF created using the CSD Python API on 29 September 2022
# The structure has been converted into the P1 space group
# The structure has a 3D framework
# The original CSD entry WENSOA is in the monoclinic crystal system
# The framework has been calculated to contain at least 10.0% void space
# The void calculation uses a probe of radius 1.32A, grid spacing 0.4
# The framework is charged, counterions have been retained in the structure
# H atom positions have been added when not included in the experimental data
#
###############################################################################

data_WENSOA
_chemical_formula_moiety         '(C288 H144 Cd24 N48 O144 16-)n'
_symmetry_cell_setting           triclinic
_symmetry_space_group_name_H-M   'P 1'
_symmetry_Int_Tables_number      1
_space_group_name_Hall           'P 1'
loop_
_symmetry_equiv_pos_site_id
_symmetry_equiv_pos_as_xyz
1 x,y,z
_cell_length_a                   33.2297(12)
_cell_length_b                   20.0890(9)
_cell_length_c                   15.9769(5)
_cell_angle_alpha                90
_cell_angle_beta                 100.360(3)
_cell_angle_gamma                90
_cell_volume                     10491.5
loop_
_atom_site_label
_atom_site_type_symbol
_atom_site_fract_x
_atom_site_fract_y
_atom_site_fract_z
Cd1 Cd 0.631523(9) 0.254010(15) 0.235221(17)
C1 C 0.65443(12) 0.3495(2) 0.3875(2)
C2 C 0.72367(11) 0.4120(2) 0.6829(3)
C3 C 0.65204(11) 0.3761(2) 0.4747(2)
C4 C 0.68757(11) 0.3867(2) 0.5341(2)
H1 H 0.7129 0.3801 0.5183
C5 C 0.68602(11) 0.4070(2) 0.6165(2)
C6 C 0.64802(11) 0.4229(2) 0.6379(2)
H2 H 0.6466 0.4389 0.6919
C7 C 0.61238(11) 0.4145(2) 0.5778(2)
C8 C 0.61445(11) 0.3897(2) 0.4977(2)
H3 H 0.5904 0.3820 0.4590
C9 C 0.57238(11) 0.4336(2) 0.5970(2)
C10 C 0.50926(11) 0.4473(2) 0.5935(3)
C11 C 0.46489(11) 0.4383(2) 0.5654(2)
C12 C 0.43605(11) 0.4638(2) 0.6101(2)
H4 H 0.4445 0.4879 0.6599
C13 C 0.39429(11) 0.4530(2) 0.5801(2)
C14 C 0.38212(11) 0.4172(2) 0.5054(2)
H5 H 0.3544 0.4113 0.4845
C15 C 0.41043(11) 0.3903(2) 0.4618(2)
C16 C 0.45173(11) 0.4006(2) 0.4915(2)
H6 H 0.4709 0.3824 0.4623
C17 C 0.36266(12) 0.4816(2) 0.6269(2)
C18 C 0.39778(12) 0.3477(2) 0.3848(2)
C19 C 0.37425(11) 0.1588(2) 0.1451(2)
C21 C 0.37155(11) 0.1235(2) 0.0621(2)
C22 C 0.33437(11) 0.1024(2) 0.0163(2)
H7 H 0.3105 0.1104 0.0374
C26 C 0.40712(11) 0.1126(2) 0.0296(2)
H9 H 0.4321 0.1278 0.0590
C33 C 0.61119(11) 0.1033(2) 0.0170(2)
H12 H 0.5535 0.1208 0.0322
C36 C 0.63156(12) 0.1367(2) 0.0982(2)
N1 N 0.53669(9) 0.4170(2) 0.5518(2)
N2 N 0.56694(9) 0.47047(19) 0.6637(2)
H13 H 0.5863 0.4856 0.7019
N3 N 0.52591(9) 0.48079(19) 0.6624(2)
O1 O 0.62471(9) 0.31627(16) 0.35117(18)
O2 O 0.68666(8) 0.35977(14) 0.35782(17)
O3 O 0.70508(14) 0.2513(2) 0.2342(5)
O4 O 0.75657(8) 0.38960(15) 0.66378(18)
O5 O 0.72184(8) 0.43432(15) 0.75486(18)
O6 O 0.37341(8) 0.51005(15) 0.69670(16)
O7 O 0.32555(8) 0.47607(15) 0.59221(17)
O8 O 0.35999(8) 0.33482(16) 0.36079(17)
O9 O 0.42412(8) 0.32169(16) 0.34827(19)
O10 O 0.40754(8) 0.18191(15) 0.18119(17)
O11 O 0.34100(8) 0.16679(15) 0.17391(17)
O16 O 0.66785(8) 0.11887(15) 0.12942(16)
O17 O 0.61098(9) 0.17922(16) 0.12866(19)
Cd2 Cd 0.292983(8) 0.532806(16) 0.680343(17)
O18 O 0.29777(10) 0.57976(18) 0.80703(19)
Cd4 Cd 0.368477(9) 0.254010(15) 0.264779(17)
O19 O 0.31334(8) 0.64023(14) 0.64218(17)
O21 O 0.27816(8) 0.43432(15) 0.74514(18)
O22 O 0.64001(8) 0.33482(16) 0.13921(17)
O23 O 0.57588(8) 0.32169(16) 0.15173(19)
O24 O 0.59246(8) 0.18191(15) 0.31881(17)
O25 O 0.65900(8) 0.16679(15) 0.32609(17)
O27 O 0.23942(8) 0.55465(18) 0.5791(2)
O29 O 0.20943(8) 0.52367(15) 0.68434(18)
Cd5 Cd 0.707017(8) 0.532806(16) 0.819657(17)
Cd7 Cd 0.707017(8) 0.467194(16) 0.319657(17)
Cd9 Cd 0.810840(8) 0.430155(16) 0.748144(17)
Cd10 Cd 0.310840(8) 0.069845(16) 0.248144(17)
Cd11 Cd 0.689160(8) 0.069845(16) 0.251856(17)
H15 H 0.719559 0.230684 0.287713
H16 H 0.710264 0.224719 0.184822
H17 H 0.31563 0.619642 0.810113
H18 H 0.270122 0.593226 0.816094
C20 C 0.29221(11) 0.0465(2) 0.8896(3)
C23 C 0.33226(11) 0.0694(2) 0.9392(2)
C24 C 0.36775(11) 0.0577(2) 0.9078(3)
H8 H 0.3665 0.0355 0.8562
C25 C 0.40516(11) 0.0788(2) 0.9527(2)
C27 C 0.44342(12) 0.0643(2) 0.9226(2)
C28 C 0.50493(12) 0.0560(3) 0.9088(3)
C29 C 0.55003(11) 0.0656(2) 0.9260(3)
C30 C 0.57334(11) 0.0376(2) 0.8717(3)
H10 H 0.5605 0.0160 0.8227
C31 C 0.61577(11) 0.0416(2) 0.8896(2)
C32 C 0.63470(11) 0.07316(19) 0.9634(2)
H11 H 0.6631 0.0743 0.9772
C34 C 0.56922(11) 0.0999(2) 0.9973(2)
C35 C 0.64076(12) 0.0068(2) 0.8333(2)
N4 N 0.48062(9) 0.0841(2) 0.9595(2)
N5 N 0.44575(10) 0.0263(2) 0.8550(2)
H14 H 0.4252 0.0081 0.8227
N6 N 0.48546(10) 0.0206(2) 0.8444(2)
O12 O 0.26058(8) 0.05465(18) 0.9209(2)
O13 O 0.29057(8) 0.02367(15) 0.81566(18)
O15 O 0.67890(8) 0.00603(15) 0.85477(17)
O28 O 0.70943(8) 0.02367(15) 0.68434(18)
Cd6 Cd 0.207017(8) 0.032806(16) 0.819657(17)
O14 O 0.62285(8) 0.97765(14) 0.76702(17)
Cd3 Cd 0.689160(8) 0.930155(16) 0.751856(17)
O20 O 0.74343(8) 0.88960(15) 0.83622(18)
O26 O 0.65900(8) 0.83321(15) 0.82609(17)
O30 O 0.66785(8) 0.88113(15) 0.62942(16)
Cd8 Cd 0.310840(8) 0.930155(16) 0.748144(17)
C1_2 C 0.34557(12) 0.3495(2) 0.1125(2)
C3_2 C 0.34796(11) 0.3761(2) 0.0253(2)
C8_2 C 0.38555(11) 0.3897(2) 0.0023(2)
H3_2 H 0.4096 0.3820 0.0410
H5_2 H 0.6456 0.4113 0.0155
C15_2 C 0.58957(11) 0.3903(2) 0.0382(2)
C16_2 C 0.54827(11) 0.4006(2) 0.0085(2)
H6_2 H 0.5291 0.3824 0.0377
C18_2 C 0.60222(12) 0.3477(2) 0.1152(2)
C19_2 C 0.62575(11) 0.1588(2) 0.3549(2)
C20_2 C 0.70779(11) 0.0465(2) 0.6104(3)
C21_2 C 0.62845(11) 0.1235(2) 0.4379(2)
C22_2 C 0.66563(11) 0.1024(2) 0.4837(2)
H7_2 H 0.6895 0.1104 0.4626
C23_2 C 0.66774(11) 0.0694(2) 0.5608(2)
C24_2 C 0.63225(11) 0.0577(2) 0.5922(3)
H8_2 H 0.6335 0.0355 0.6438
C25_2 C 0.59484(11) 0.0788(2) 0.5473(2)
C26_2 C 0.59288(11) 0.1126(2) 0.4704(2)
H9_2 H 0.5679 0.1278 0.4410
C27_2 C 0.55658(12) 0.0643(2) 0.5774(2)
C28_2 C 0.49507(12) 0.0560(3) 0.5912(3)
C29_2 C 0.44997(11) 0.0656(2) 0.5740(3)
C30_2 C 0.42666(11) 0.0376(2) 0.6283(3)
H10_2 H 0.4395 0.0160 0.6773
C31_2 C 0.38423(11) 0.0416(2) 0.6104(2)
C32_2 C 0.36530(11) 0.07316(19) 0.5366(2)
H11_2 H 0.3369 0.0743 0.5228
C33_2 C 0.38881(11) 0.1033(2) 0.4830(2)
C34_2 C 0.43078(11) 0.0999(2) 0.5027(2)
H12_2 H 0.4465 0.1208 0.4678
C35_2 C 0.35924(12) 0.0068(2) 0.6667(2)
C36_2 C 0.36844(12) 0.1367(2) 0.4018(2)
N4_2 N 0.51938(9) 0.0841(2) 0.5405(2)
N5_2 N 0.55425(10) 0.0263(2) 0.6450(2)
H14_2 H 0.5748 0.0081 0.6773
N6_2 N 0.51454(10) 0.0206(2) 0.6556(2)
O1_2 O 0.37529(9) 0.31627(16) 0.14883(18)
O2_2 O 0.31334(8) 0.35977(14) 0.14218(17)
O3_2 O 0.29492(14) 0.2513(2) 0.2658(5)
O12_2 O 0.73942(8) 0.05465(18) 0.5791(2)
O15_2 O 0.32110(8) 0.00603(15) 0.64523(17)
O16_2 O 0.33215(8) 0.11887(15) 0.37058(16)
O17_2 O 0.38902(9) 0.17922(16) 0.37134(19)
Cd6_2 Cd 0.792983(8) 0.032806(16) 0.680343(17)
Cd7_2 Cd 0.292983(8) 0.467194(16) 0.180343(17)
H15_2 H 0.280441 0.230684 0.212287
H16_2 H 0.289736 0.224719 0.315178
C2_2 C 0.27633(11) 0.4120(2) 0.8171(3)
C4_2 C 0.31243(11) 0.3867(2) 0.9659(2)
H1_2 H 0.2871 0.3801 0.9817
C5_2 C 0.31398(11) 0.4070(2) 0.8835(2)
C6_2 C 0.35198(11) 0.4229(2) 0.8621(2)
H2_2 H 0.3534 0.4389 0.8081
C7_2 C 0.38762(11) 0.4145(2) 0.9222(2)
C9_2 C 0.42762(11) 0.4336(2) 0.9030(2)
C10_2 C 0.49074(11) 0.4473(2) 0.9065(3)
C11_2 C 0.53511(11) 0.4383(2) 0.9346(2)
C12_2 C 0.56395(11) 0.4638(2) 0.8899(2)
H4_2 H 0.5555 0.4879 0.8401
C13_2 C 0.60571(11) 0.4530(2) 0.9199(2)
C14_2 C 0.61788(11) 0.4172(2) 0.9946(2)
C17_2 C 0.63734(12) 0.4816(2) 0.8731(2)
N1_2 N 0.46331(9) 0.4170(2) 0.9482(2)
N2_2 N 0.43306(9) 0.47047(19) 0.8363(2)
H13_2 H 0.4137 0.4856 0.7981
N3_2 N 0.47409(9) 0.48079(19) 0.8376(2)
O4_2 O 0.24343(8) 0.38960(15) 0.83622(18)
O6_2 O 0.62659(8) 0.51005(15) 0.80330(16)
O7_2 O 0.67445(8) 0.47607(15) 0.90779(17)
O18_2 O 0.70223(10) 0.57976(18) 0.69297(19)
O19_2 O 0.68666(8) 0.64023(14) 0.85782(17)
O27_2 O 0.76058(8) 0.55465(18) 0.9209(2)
O29_2 O 0.79057(8) 0.52367(15) 0.81566(18)
Cd9_2 Cd 0.189160(8) 0.430155(16) 0.751856(17)
H17_2 H 0.68437 0.619642 0.689887
H18_2 H 0.729878 0.593226 0.683906
O14_2 O 0.37715(8) 0.97765(14) 0.73298(17)
O20_2 O 0.25657(8) 0.88960(15) 0.66378(18)
O26_2 O 0.34100(8) 0.83321(15) 0.67391(17)
O30_2 O 0.33215(8) 0.88113(15) 0.87058(16)
Cd1_2 Cd 0.131523(9) 0.754010(15) 0.235221(17)
C1_3 C 0.15443(12) 0.8495(2) 0.3875(2)
C2_3 C 0.22367(11) 0.9120(2) 0.6829(3)
C3_3 C 0.15204(11) 0.8761(2) 0.4747(2)
C4_3 C 0.18757(11) 0.8867(2) 0.5341(2)
H1_3 H 0.2129 0.8801 0.5183
C5_3 C 0.18602(11) 0.9070(2) 0.6165(2)
C6_3 C 0.14802(11) 0.9229(2) 0.6379(2)
H2_3 H 0.1466 0.9389 0.6919
C7_3 C 0.11238(11) 0.9145(2) 0.5778(2)
C8_3 C 0.11445(11) 0.8897(2) 0.4977(2)
H3_3 H 0.0904 0.8820 0.4590
C9_3 C 0.07238(11) 0.9336(2) 0.5970(2)
C10_3 C 0.00926(11) 0.9473(2) 0.5935(3)
C33_3 C 0.11119(11) 0.6033(2) 0.0170(2)
H12_3 H 0.0535 0.6208 0.0322
C36_3 C 0.13156(12) 0.6367(2) 0.0982(2)
N1_3 N 0.03669(9) 0.9170(2) 0.5518(2)
N2_3 N 0.06694(9) 0.97047(19) 0.6637(2)
H13_3 H 0.0863 0.9856 0.7019
N3_3 N 0.02591(9) 0.98079(19) 0.6624(2)
O1_3 O 0.12471(9) 0.81627(16) 0.35117(18)
O2_3 O 0.18666(8) 0.85977(14) 0.35782(17)
O3_3 O 0.20508(14) 0.7513(2) 0.2342(5)
O5_2 O 0.22184(8) 0.93432(15) 0.75486(18)
O16_3 O 0.16785(8) 0.61887(15) 0.12942(16)
O17_3 O 0.11098(9) 0.67922(16) 0.12866(19)
O22_2 O 0.14001(8) 0.83482(16) 0.13921(17)
O23_2 O 0.07588(8) 0.82169(16) 0.15173(19)
O24_2 O 0.09246(8) 0.68191(15) 0.31881(17)
O25_2 O 0.15900(8) 0.66679(15) 0.32609(17)
Cd7_3 Cd 0.207017(8) 0.967194(16) 0.319657(17)
Cd11_2 Cd 0.189160(8) 0.569845(16) 0.251856(17)
H15_3 H 0.219559 0.730684 0.287713
H16_3 H 0.210264 0.724719 0.184822
C28_3 C 0.00493(12) 0.5560(3) 0.9088(3)
C29_3 C 0.05003(11) 0.5656(2) 0.9260(3)
C30_3 C 0.07334(11) 0.5376(2) 0.8717(3)
H10_3 H 0.0605 0.5160 0.8227
C31_3 C 0.11577(11) 0.5416(2) 0.8896(2)
C32_3 C 0.13470(11) 0.57316(19) 0.9634(2)
H11_3 H 0.1631 0.5743 0.9772
C34_3 C 0.06922(11) 0.5999(2) 0.9973(2)
C35_3 C 0.14076(12) 0.5068(2) 0.8333(2)
O14_3 O 0.12285(8) 0.47765(14) 0.76702(17)
O15_3 O 0.17890(8) 0.50603(15) 0.85477(17)
O26_3 O 0.15900(8) 0.33321(15) 0.82609(17)
O30_3 O 0.16785(8) 0.38113(15) 0.62942(16)
O6_3 O 0.87341(8) 0.01005(15) 0.69670(16)
O18_3 O 0.79777(10) 0.07976(18) 0.80703(19)
O19_3 O 0.81334(8) 0.14023(14) 0.64218(17)
H17_3 H 0.81563 0.119642 0.810113
H18_3 H 0.770122 0.0932263 0.816094
C11_3 C 0.96489(11) 0.9383(2) 0.5654(2)
C12_3 C 0.93605(11) 0.9638(2) 0.6101(2)
H4_3 H 0.9445 0.9879 0.6599
C13_3 C 0.89429(11) 0.9530(2) 0.5801(2)
C14_3 C 0.88212(11) 0.9172(2) 0.5054(2)
H5_3 H 0.8544 0.9113 0.4845
C15_3 C 0.91043(11) 0.8903(2) 0.4618(2)
C16_3 C 0.95173(11) 0.9006(2) 0.4915(2)
H6_3 H 0.9709 0.8824 0.4623
C17_3 C 0.86266(12) 0.9816(2) 0.6269(2)
C18_3 C 0.89778(12) 0.8477(2) 0.3848(2)
C19_3 C 0.87425(11) 0.6588(2) 0.1451(2)
C21_3 C 0.87155(11) 0.6235(2) 0.0621(2)
C22_3 C 0.83437(11) 0.6024(2) 0.0163(2)
H7_3 H 0.8105 0.6104 0.0374
C26_3 C 0.90712(11) 0.6126(2) 0.0296(2)
H9_3 H 0.9321 0.6278 0.0590
O7_3 O 0.82555(8) 0.97607(15) 0.59221(17)
O8_2 O 0.85999(8) 0.83482(16) 0.36079(17)
O9_2 O 0.92412(8) 0.82169(16) 0.34827(19)
O10_2 O 0.90754(8) 0.68191(15) 0.18119(17)
O11_2 O 0.84100(8) 0.66679(15) 0.17391(17)
Cd4_2 Cd 0.868477(9) 0.754010(15) 0.264779(17)
O21_2 O 0.77816(8) 0.93432(15) 0.74514(18)
Cd10_2 Cd 0.810840(8) 0.569845(16) 0.248144(17)
C20_3 C 0.79221(11) 0.5465(2) 0.8896(3)
C23_3 C 0.83226(11) 0.5694(2) 0.9392(2)
C24_3 C 0.86775(11) 0.5577(2) 0.9078(3)
H8_3 H 0.8665 0.5355 0.8562
C25_3 C 0.90516(11) 0.5788(2) 0.9527(2)
C27_3 C 0.94342(12) 0.5643(2) 0.9226(2)
N4_3 N 0.98062(9) 0.5841(2) 0.9595(2)
N5_3 N 0.94575(10) 0.5263(2) 0.8550(2)
H14_3 H 0.9252 0.5081 0.8227
N6_3 N 0.98546(10) 0.5206(2) 0.8444(2)
O6_4 O 0.12659(8) 0.01005(15) 0.80330(16)
O18_4 O 0.20223(10) 0.07976(18) 0.69297(19)
O19_4 O 0.18666(8) 0.14023(14) 0.85782(17)
H17_4 H 0.18437 0.119642 0.689887
H18_4 H 0.229878 0.0932263 0.683906
H5_4 H 0.1456 0.9113 0.0155
C15_4 C 0.08957(11) 0.8903(2) 0.0382(2)
C16_4 C 0.04827(11) 0.9006(2) 0.0085(2)
H6_4 H 0.0291 0.8824 0.0377
C18_4 C 0.10222(12) 0.8477(2) 0.1152(2)
C19_4 C 0.12575(11) 0.6588(2) 0.3549(2)
C20_4 C 0.20779(11) 0.5465(2) 0.6104(3)
C21_4 C 0.12845(11) 0.6235(2) 0.4379(2)
C22_4 C 0.16563(11) 0.6024(2) 0.4837(2)
H7_4 H 0.1895 0.6104 0.4626
C23_4 C 0.16774(11) 0.5694(2) 0.5608(2)
C24_4 C 0.13225(11) 0.5577(2) 0.5922(3)
H8_4 H 0.1335 0.5355 0.6438
C25_4 C 0.09484(11) 0.5788(2) 0.5473(2)
C26_4 C 0.09288(11) 0.6126(2) 0.4704(2)
H9_4 H 0.0679 0.6278 0.4410
C27_4 C 0.05658(12) 0.5643(2) 0.5774(2)
N4_4 N 0.01938(9) 0.5841(2) 0.5405(2)
N5_4 N 0.05425(10) 0.5263(2) 0.6450(2)
H14_4 H 0.0748 0.5081 0.6773
N6_4 N 0.01454(10) 0.5206(2) 0.6556(2)
C11_4 C 0.03511(11) 0.9383(2) 0.9346(2)
C12_4 C 0.06395(11) 0.9638(2) 0.8899(2)
H4_4 H 0.0555 0.9879 0.8401
C13_4 C 0.10571(11) 0.9530(2) 0.9199(2)
C14_4 C 0.11788(11) 0.9172(2) 0.9946(2)
C17_4 C 0.13734(12) 0.9816(2) 0.8731(2)
O7_4 O 0.17445(8) 0.97607(15) 0.90779(17)
C1_4 C 0.84557(12) 0.8495(2) 0.1125(2)
C3_4 C 0.84796(11) 0.8761(2) 0.0253(2)
C8_4 C 0.88555(11) 0.8897(2) 0.0023(2)
H3_4 H 0.9096 0.8820 0.0410
C28_4 C 0.99507(12) 0.5560(3) 0.5912(3)
C29_4 C 0.94997(11) 0.5656(2) 0.5740(3)
C30_4 C 0.92666(11) 0.5376(2) 0.6283(3)
H10_4 H 0.9395 0.5160 0.6773
C31_4 C 0.88423(11) 0.5416(2) 0.6104(2)
C32_4 C 0.86530(11) 0.57316(19) 0.5366(2)
H11_4 H 0.8369 0.5743 0.5228
C33_4 C 0.88881(11) 0.6033(2) 0.4830(2)
C34_4 C 0.93078(11) 0.5999(2) 0.5027(2)
H12_4 H 0.9465 0.6208 0.4678
C35_4 C 0.85924(12) 0.5068(2) 0.6667(2)
C36_4 C 0.86844(12) 0.6367(2) 0.4018(2)
O1_4 O 0.87529(9) 0.81627(16) 0.14883(18)
O2_4 O 0.81334(8) 0.85977(14) 0.14218(17)
O3_4 O 0.79492(14) 0.7513(2) 0.2658(5)
O14_4 O 0.87715(8) 0.47765(14) 0.73298(17)
O15_4 O 0.82110(8) 0.50603(15) 0.64523(17)
O16_4 O 0.83215(8) 0.61887(15) 0.37058(16)
O17_4 O 0.88902(9) 0.67922(16) 0.37134(19)
O26_4 O 0.84100(8) 0.33321(15) 0.67391(17)
O30_4 O 0.83215(8) 0.38113(15) 0.87058(16)
Cd7_4 Cd 0.792983(8) 0.967194(16) 0.180343(17)
H15_4 H 0.780441 0.730684 0.212287
H16_4 H 0.789736 0.724719 0.315178
C2_4 C 0.77633(11) 0.9120(2) 0.8171(3)
C4_4 C 0.81243(11) 0.8867(2) 0.9659(2)
H1_4 H 0.7871 0.8801 0.9817
C5_4 C 0.81398(11) 0.9070(2) 0.8835(2)
C6_4 C 0.85198(11) 0.9229(2) 0.8621(2)
H2_4 H 0.8534 0.9389 0.8081
C7_4 C 0.88762(11) 0.9145(2) 0.9222(2)
C9_4 C 0.92762(11) 0.9336(2) 0.9030(2)
C10_4 C 0.99074(11) 0.9473(2) 0.9065(3)
N1_4 N 0.96331(9) 0.9170(2) 0.9482(2)
N2_4 N 0.93306(9) 0.97047(19) 0.8363(2)
H13_4 H 0.9137 0.9856 0.7981
N3_4 N 0.97409(9) 0.98079(19) 0.8376(2)
O14_5 O 0.37715(8) 0.02235(14) 0.23298(17)
O20_3 O 0.25657(8) 0.11040(15) 0.16378(18)
C20_5 C 0.70779(11) 0.9535(2) 0.1104(3)
C23_5 C 0.66774(11) 0.9306(2) 0.0608(2)
C24_5 C 0.63225(11) 0.9423(2) 0.0922(3)
H8_5 H 0.6335 0.9645 0.1438
C25_5 C 0.59484(11) 0.9212(2) 0.0473(2)
C27_5 C 0.55658(12) 0.9357(2) 0.0774(2)
C28_5 C 0.49507(12) 0.9440(3) 0.0912(3)
C29_5 C 0.44997(11) 0.9344(2) 0.0740(3)
C30_5 C 0.42666(11) 0.9624(2) 0.1283(3)
H10_5 H 0.4395 0.9840 0.1773
C31_5 C 0.38423(11) 0.9584(2) 0.1104(2)
C32_5 C 0.36530(11) 0.92684(19) 0.0366(2)
H11_5 H 0.3369 0.9257 0.0228
C34_5 C 0.43078(11) 0.9001(2) 0.0027(2)
C35_5 C 0.35924(12) 0.9932(2) 0.1667(2)
N4_5 N 0.51938(9) 0.9159(2) 0.0405(2)
N5_5 N 0.55425(10) 0.9737(2) 0.1450(2)
H14_5 H 0.5748 0.9919 0.1773
N6_5 N 0.51454(10) 0.9794(2) 0.1556(2)
O12_3 O 0.73942(8) 0.94535(18) 0.0791(2)
O13_2 O 0.70943(8) 0.97633(15) 0.18434(18)
O15_5 O 0.32110(8) 0.99397(15) 0.14523(17)
O28_2 O 0.29057(8) 0.97633(15) 0.31566(18)
Cd1_3 Cd 0.368477(9) 0.745990(15) 0.764779(17)
C1_5 C 0.34557(12) 0.6505(2) 0.6125(2)
C2_5 C 0.27633(11) 0.5880(2) 0.3171(3)
C3_5 C 0.34796(11) 0.6239(2) 0.5253(2)
C4_5 C 0.31243(11) 0.6133(2) 0.4659(2)
H1_5 H 0.2871 0.6199 0.4817
C5_5 C 0.31398(11) 0.5930(2) 0.3835(2)
C6_5 C 0.35198(11) 0.5771(2) 0.3621(2)
H2_5 H 0.3534 0.5611 0.3081
C7_5 C 0.38762(11) 0.5855(2) 0.4222(2)
C8_5 C 0.38555(11) 0.6103(2) 0.5023(2)
H3_5 H 0.4096 0.6180 0.5410
C9_5 C 0.42762(11) 0.5664(2) 0.4030(2)
C10_5 C 0.49074(11) 0.5527(2) 0.4065(3)
C11_5 C 0.53511(11) 0.5617(2) 0.4346(2)
C12_5 C 0.56395(11) 0.5362(2) 0.3899(2)
H4_5 H 0.5555 0.5121 0.3401
C13_5 C 0.60571(11) 0.5470(2) 0.4199(2)
C14_5 C 0.61788(11) 0.5828(2) 0.4946(2)
H5_5 H 0.6456 0.5887 0.5155
C15_5 C 0.58957(11) 0.6097(2) 0.5382(2)
C16_5 C 0.54827(11) 0.5994(2) 0.5085(2)
H6_5 H 0.5291 0.6176 0.5377
C17_5 C 0.63734(12) 0.5184(2) 0.3731(2)
C18_5 C 0.60222(12) 0.6523(2) 0.6152(2)
C19_5 C 0.62575(11) 0.8412(2) 0.8549(2)
C21_5 C 0.62845(11) 0.8765(2) 0.9379(2)
C22_5 C 0.66563(11) 0.8976(2) 0.9837(2)
H7_5 H 0.6895 0.8896 0.9626
C26_5 C 0.59288(11) 0.8874(2) 0.9704(2)
H9_5 H 0.5679 0.8722 0.9410
C33_5 C 0.38881(11) 0.8967(2) 0.9830(2)
H12_5 H 0.4465 0.8792 0.9678
C36_5 C 0.36844(12) 0.8633(2) 0.9018(2)
N1_5 N 0.46331(9) 0.5830(2) 0.4482(2)
N2_5 N 0.43306(9) 0.52953(19) 0.3363(2)
H13_5 H 0.4137 0.5144 0.2981
N3_5 N 0.47409(9) 0.51921(19) 0.3376(2)
O1_5 O 0.37529(9) 0.68373(16) 0.64883(18)
O3_5 O 0.29492(14) 0.7487(2) 0.7658(5)
O4_3 O 0.24343(8) 0.61040(15) 0.33622(18)
O5_3 O 0.27816(8) 0.56568(15) 0.24514(18)
O6_5 O 0.62659(8) 0.48995(15) 0.30330(16)
O7_5 O 0.67445(8) 0.52393(15) 0.40779(17)
O8_3 O 0.64001(8) 0.66518(16) 0.63921(17)
O9_3 O 0.57588(8) 0.67831(16) 0.65173(19)
O10_3 O 0.59246(8) 0.81809(15) 0.81881(17)
O17_5 O 0.38902(9) 0.82078(16) 0.87134(19)
O18_5 O 0.70223(10) 0.42024(18) 0.19297(19)
Cd4_3 Cd 0.631523(9) 0.745990(15) 0.735221(17)
O21_3 O 0.72184(8) 0.56568(15) 0.25486(18)
O22_3 O 0.35999(8) 0.66518(16) 0.86079(17)
O23_3 O 0.42412(8) 0.67831(16) 0.84827(19)
O24_3 O 0.40754(8) 0.81809(15) 0.68119(17)
O27_3 O 0.76058(8) 0.44535(18) 0.4209(2)
O29_3 O 0.79057(8) 0.47633(15) 0.31566(18)
H15_5 H 0.280441 0.769316 0.712287
H16_5 H 0.289736 0.775281 0.815178
H17_5 H 0.68437 0.380358 0.189887
H18_5 H 0.729878 0.406774 0.183906
O14_6 O 0.62285(8) 0.02235(14) 0.26702(17)
O20_4 O 0.74343(8) 0.11040(15) 0.33622(18)
C2_6 C 0.72367(11) 0.5880(2) 0.1829(3)
C4_6 C 0.68757(11) 0.6133(2) 0.0341(2)
H1_6 H 0.7129 0.6199 0.0183
C5_6 C 0.68602(11) 0.5930(2) 0.1165(2)
C6_6 C 0.64802(11) 0.5771(2) 0.1379(2)
H2_6 H 0.6466 0.5611 0.1919
C7_6 C 0.61238(11) 0.5855(2) 0.0778(2)
C9_6 C 0.57238(11) 0.5664(2) 0.0970(2)
C10_6 C 0.50926(11) 0.5527(2) 0.0935(3)
C11_6 C 0.46489(11) 0.5617(2) 0.0654(2)
C12_6 C 0.43605(11) 0.5362(2) 0.1101(2)
H4_6 H 0.4445 0.5121 0.1599
C13_6 C 0.39429(11) 0.5470(2) 0.0801(2)
C14_6 C 0.38212(11) 0.5828(2) 0.0054(2)
C17_6 C 0.36266(12) 0.5184(2) 0.1269(2)
N1_6 N 0.53669(9) 0.5830(2) 0.0518(2)
N2_6 N 0.56694(9) 0.52953(19) 0.1637(2)
H13_6 H 0.5863 0.5144 0.2019
N3_6 N 0.52591(9) 0.51921(19) 0.1624(2)
O4_4 O 0.75657(8) 0.61040(15) 0.16378(18)
O6_6 O 0.37341(8) 0.48995(15) 0.19670(16)
O7_6 O 0.32555(8) 0.52393(15) 0.09221(17)
O18_6 O 0.29777(10) 0.42024(18) 0.30703(19)
O27_4 O 0.23942(8) 0.44535(18) 0.0791(2)
O29_4 O 0.20943(8) 0.47633(15) 0.18434(18)
H17_6 H 0.31563 0.380358 0.310113
H18_6 H 0.270122 0.406774 0.316094
C1_6 C 0.65443(12) 0.6505(2) 0.8875(2)
C3_6 C 0.65204(11) 0.6239(2) 0.9747(2)
C8_6 C 0.61445(11) 0.6103(2) 0.9977(2)
H3_6 H 0.5904 0.6180 0.9590
H5_6 H 0.3544 0.5887 0.9845
C15_6 C 0.41043(11) 0.6097(2) 0.9618(2)
C16_6 C 0.45173(11) 0.5994(2) 0.9915(2)
H6_6 H 0.4709 0.6176 0.9623
C18_6 C 0.39778(12) 0.6523(2) 0.8848(2)
C19_6 C 0.37425(11) 0.8412(2) 0.6451(2)
C20_6 C 0.29221(11) 0.9535(2) 0.3896(3)
C21_6 C 0.37155(11) 0.8765(2) 0.5621(2)
C22_6 C 0.33437(11) 0.8976(2) 0.5163(2)
H7_6 H 0.3105 0.8896 0.5374
C23_6 C 0.33226(11) 0.9306(2) 0.4392(2)
C24_6 C 0.36775(11) 0.9423(2) 0.4078(3)
H8_6 H 0.3665 0.9645 0.3562
C25_6 C 0.40516(11) 0.9212(2) 0.4527(2)
C26_6 C 0.40712(11) 0.8874(2) 0.5296(2)
H9_6 H 0.4321 0.8722 0.5590
C27_6 C 0.44342(12) 0.9357(2) 0.4226(2)
C28_6 C 0.50493(12) 0.9440(3) 0.4088(3)
C29_6 C 0.55003(11) 0.9344(2) 0.4260(3)
C30_6 C 0.57334(11) 0.9624(2) 0.3717(3)
H10_6 H 0.5605 0.9840 0.3227
C31_6 C 0.61577(11) 0.9584(2) 0.3896(2)
C32_6 C 0.63470(11) 0.92684(19) 0.4634(2)
H11_6 H 0.6631 0.9257 0.4772
C33_6 C 0.61119(11) 0.8967(2) 0.5170(2)
C34_6 C 0.56922(11) 0.9001(2) 0.4973(2)
H12_6 H 0.5535 0.8792 0.5322
C35_6 C 0.64076(12) 0.9932(2) 0.3333(2)
C36_6 C 0.63156(12) 0.8633(2) 0.5982(2)
N4_6 N 0.48062(9) 0.9159(2) 0.4595(2)
N5_6 N 0.44575(10) 0.9737(2) 0.3550(2)
H14_6 H 0.4252 0.9919 0.3227
N6_6 N 0.48546(10) 0.9794(2) 0.3444(2)
O1_6 O 0.62471(9) 0.68373(16) 0.85117(18)
O3_6 O 0.70508(14) 0.7487(2) 0.7342(5)
O12_4 O 0.26058(8) 0.94535(18) 0.4209(2)
O15_6 O 0.67890(8) 0.99397(15) 0.35477(17)
O17_6 O 0.61098(9) 0.82078(16) 0.62866(19)
H15_6 H 0.719559 0.769316 0.787713
H16_6 H 0.710264 0.775281 0.684822
C20_7 C 0.20779(11) 0.4535(2) 0.1104(3)
C23_7 C 0.16774(11) 0.4306(2) 0.0608(2)
C24_7 C 0.13225(11) 0.4423(2) 0.0922(3)
H8_7 H 0.1335 0.4645 0.1438
C25_7 C 0.09484(11) 0.4212(2) 0.0473(2)
C27_7 C 0.05658(12) 0.4357(2) 0.0774(2)
N4_7 N 0.01938(9) 0.4159(2) 0.0405(2)
N5_7 N 0.05425(10) 0.4737(2) 0.1450(2)
H14_7 H 0.0748 0.4919 0.1773
N6_7 N 0.01454(10) 0.4794(2) 0.1556(2)
C11_7 C 0.03511(11) 0.0617(2) 0.4346(2)
C12_7 C 0.06395(11) 0.0362(2) 0.3899(2)
H4_7 H 0.0555 0.0121 0.3401
C13_7 C 0.10571(11) 0.0470(2) 0.4199(2)
C14_7 C 0.11788(11) 0.0828(2) 0.4946(2)
H5_7 H 0.1456 0.0887 0.5155
C15_7 C 0.08957(11) 0.1097(2) 0.5382(2)
C16_7 C 0.04827(11) 0.0994(2) 0.5085(2)
H6_7 H 0.0291 0.1176 0.5377
C17_7 C 0.13734(12) 0.0184(2) 0.3731(2)
C18_7 C 0.10222(12) 0.1523(2) 0.6152(2)
C19_7 C 0.12575(11) 0.3412(2) 0.8549(2)
C21_7 C 0.12845(11) 0.3765(2) 0.9379(2)
C22_7 C 0.16563(11) 0.3976(2) 0.9837(2)
H7_7 H 0.1895 0.3896 0.9626
C26_7 C 0.09288(11) 0.3874(2) 0.9704(2)
H9_7 H 0.0679 0.3722 0.9410
O7_7 O 0.17445(8) 0.02393(15) 0.40779(17)
O8_4 O 0.14001(8) 0.16518(16) 0.63921(17)
O9_4 O 0.07588(8) 0.17831(16) 0.65173(19)
O10_4 O 0.09246(8) 0.31809(15) 0.81881(17)
Cd4_4 Cd 0.131523(9) 0.245990(15) 0.735221(17)
O21_4 O 0.22184(8) 0.06568(15) 0.25486(18)
O6_7 O 0.12659(8) 0.98995(15) 0.30330(16)
O18_7 O 0.20223(10) 0.92024(18) 0.19297(19)
H17_7 H 0.18437 0.880358 0.189887
H18_7 H 0.229878 0.906774 0.183906
C28_7 C 0.99507(12) 0.4440(3) 0.0912(3)
C29_7 C 0.94997(11) 0.4344(2) 0.0740(3)
C30_7 C 0.92666(11) 0.4624(2) 0.1283(3)
H10_7 H 0.9395 0.4840 0.1773
C31_7 C 0.88423(11) 0.4584(2) 0.1104(2)
C32_7 C 0.86530(11) 0.42684(19) 0.0366(2)
H11_7 H 0.8369 0.4257 0.0228
C34_7 C 0.93078(11) 0.4001(2) 0.0027(2)
C35_7 C 0.85924(12) 0.4932(2) 0.1667(2)
O14_7 O 0.87715(8) 0.52235(14) 0.23298(17)
O15_7 O 0.82110(8) 0.49397(15) 0.14523(17)
Cd1_4 Cd 0.868477(9) 0.245990(15) 0.764779(17)
C1_7 C 0.84557(12) 0.1505(2) 0.6125(2)
C2_7 C 0.77633(11) 0.0880(2) 0.3171(3)
C3_7 C 0.84796(11) 0.1239(2) 0.5253(2)
C4_7 C 0.81243(11) 0.1133(2) 0.4659(2)
H1_7 H 0.7871 0.1199 0.4817
C5_7 C 0.81398(11) 0.0930(2) 0.3835(2)
C6_7 C 0.85198(11) 0.0771(2) 0.3621(2)
H2_7 H 0.8534 0.0611 0.3081
C7_7 C 0.88762(11) 0.0855(2) 0.4222(2)
C8_7 C 0.88555(11) 0.1103(2) 0.5023(2)
H3_7 H 0.9096 0.1180 0.5410
C9_7 C 0.92762(11) 0.0664(2) 0.4030(2)
C10_7 C 0.99074(11) 0.0527(2) 0.4065(3)
C33_7 C 0.88881(11) 0.3967(2) 0.9830(2)
H12_7 H 0.9465 0.3792 0.9678
C36_7 C 0.86844(12) 0.3633(2) 0.9018(2)
N1_7 N 0.96331(9) 0.0830(2) 0.4482(2)
N2_7 N 0.93306(9) 0.02953(19) 0.3363(2)
H13_7 H 0.9137 0.0144 0.2981
N3_7 N 0.97409(9) 0.01921(19) 0.3376(2)
O1_7 O 0.87529(9) 0.18373(16) 0.64883(18)
O3_7 O 0.79492(14) 0.2487(2) 0.7658(5)
O5_4 O 0.77816(8) 0.06568(15) 0.24514(18)
O17_7 O 0.88902(9) 0.32078(16) 0.87134(19)
O22_4 O 0.85999(8) 0.16518(16) 0.86079(17)
O23_4 O 0.92412(8) 0.17831(16) 0.84827(19)
O24_4 O 0.90754(8) 0.31809(15) 0.68119(17)
H15_7 H 0.780441 0.269316 0.712287
H16_7 H 0.789736 0.275281 0.815178
C2_8 C 0.22367(11) 0.0880(2) 0.1829(3)
C4_8 C 0.18757(11) 0.1133(2) 0.0341(2)
H1_8 H 0.2129 0.1199 0.0183
C5_8 C 0.18602(11) 0.0930(2) 0.1165(2)
C6_8 C 0.14802(11) 0.0771(2) 0.1379(2)
H2_8 H 0.1466 0.0611 0.1919
C7_8 C 0.11238(11) 0.0855(2) 0.0778(2)
C9_8 C 0.07238(11) 0.0664(2) 0.0970(2)
C10_8 C 0.00926(11) 0.0527(2) 0.0935(3)
N1_8 N 0.03669(9) 0.0830(2) 0.0518(2)
N2_8 N 0.06694(9) 0.02953(19) 0.1637(2)
H13_8 H 0.0863 0.0144 0.2019
N3_8 N 0.02591(9) 0.01921(19) 0.1624(2)
C1_8 C 0.15443(12) 0.1505(2) 0.8875(2)
C3_8 C 0.15204(11) 0.1239(2) 0.9747(2)
C8_8 C 0.11445(11) 0.1103(2) 0.9977(2)
H3_8 H 0.0904 0.1180 0.9590
C28_8 C 0.00493(12) 0.4440(3) 0.4088(3)
C29_8 C 0.05003(11) 0.4344(2) 0.4260(3)
C30_8 C 0.07334(11) 0.4624(2) 0.3717(3)
H10_8 H 0.0605 0.4840 0.3227
C31_8 C 0.11577(11) 0.4584(2) 0.3896(2)
C32_8 C 0.13470(11) 0.42684(19) 0.4634(2)
H11_8 H 0.1631 0.4257 0.4772
C33_8 C 0.11119(11) 0.3967(2) 0.5170(2)
C34_8 C 0.06922(11) 0.4001(2) 0.4973(2)
H12_8 H 0.0535 0.3792 0.5322
C35_8 C 0.14076(12) 0.4932(2) 0.3333(2)
C36_8 C 0.13156(12) 0.3633(2) 0.5982(2)
O1_8 O 0.12471(9) 0.18373(16) 0.85117(18)
O3_8 O 0.20508(14) 0.2487(2) 0.7342(5)
O14_8 O 0.12285(8) 0.52235(14) 0.26702(17)
O15_8 O 0.17890(8) 0.49397(15) 0.35477(17)
O17_8 O 0.11098(9) 0.32078(16) 0.62866(19)
H15_8 H 0.219559 0.269316 0.787713
H16_8 H 0.210264 0.275281 0.684822
C11_8 C 0.96489(11) 0.0617(2) 0.0654(2)
C12_8 C 0.93605(11) 0.0362(2) 0.1101(2)
H4_8 H 0.9445 0.0121 0.1599
C13_8 C 0.89429(11) 0.0470(2) 0.0801(2)
C14_8 C 0.88212(11) 0.0828(2) 0.0054(2)
C17_8 C 0.86266(12) 0.0184(2) 0.1269(2)
O7_8 O 0.82555(8) 0.02393(15) 0.09221(17)
H5_8 H 0.8544 0.0887 0.9845
C15_8 C 0.91043(11) 0.1097(2) 0.9618(2)
C16_8 C 0.95173(11) 0.0994(2) 0.9915(2)
H6_8 H 0.9709 0.1176 0.9623
C18_8 C 0.89778(12) 0.1523(2) 0.8848(2)
C19_8 C 0.87425(11) 0.3412(2) 0.6451(2)
C20_8 C 0.79221(11) 0.4535(2) 0.3896(3)
C21_8 C 0.87155(11) 0.3765(2) 0.5621(2)
C22_8 C 0.83437(11) 0.3976(2) 0.5163(2)
H7_8 H 0.8105 0.3896 0.5374
C23_8 C 0.83226(11) 0.4306(2) 0.4392(2)
C24_8 C 0.86775(11) 0.4423(2) 0.4078(3)
H8_8 H 0.8665 0.4645 0.3562
C25_8 C 0.90516(11) 0.4212(2) 0.4527(2)
C26_8 C 0.90712(11) 0.3874(2) 0.5296(2)
H9_8 H 0.9321 0.3722 0.5590
C27_8 C 0.94342(12) 0.4357(2) 0.4226(2)
N4_8 N 0.98062(9) 0.4159(2) 0.4595(2)
N5_8 N 0.94575(10) 0.4737(2) 0.3550(2)
H14_8 H 0.9252 0.4919 0.3227
N6_8 N 0.98546(10) 0.4794(2) 0.3444(2)
O6_8 O 0.87341(8) 0.98995(15) 0.19670(16)
O18_8 O 0.79777(10) 0.92024(18) 0.30703(19)
H17_8 H 0.81563 0.880358 0.310113
H18_8 H 0.770122 0.906774 0.316094
loop_
_geom_bond_atom_site_label_1
_geom_bond_atom_site_label_2
_geom_bond_site_symmetry_1
_geom_bond_site_symmetry_2
Cd1 O1 1_555 1_555
C1 C3 1_555 1_555
C2 C5 1_555 1_555
C3 C4 1_555 1_555
C4 H1 1_555 1_555
C5 C4 1_555 1_555
C6 C5 1_555 1_555
H2 C6 1_555 1_555
C7 C6 1_555 1_555
C8 C3 1_555 1_555
H3 C8 1_555 1_555
C9 C7 1_555 1_555
C10 C11 1_555 1_555
C11 C12 1_555 1_555
C12 H4 1_555 1_555
C13 C12 1_555 1_555
C14 C13 1_555 1_555
H5 C14 1_555 1_555
C15 C14 1_555 1_555
C16 C11 1_555 1_555
H6 C16 1_555 1_555
C17 C13 1_555 1_555
C18 C15 1_555 1_555
C19 C21 1_555 1_555
C21 C22 1_555 1_555
C22 H7 1_555 1_555
C26 C21 1_555 1_555
H9 C26 1_555 1_555
C36 C33 1_555 1_555
N1 C9 1_555 1_555
N2 C9 1_555 1_555
H13 N2 1_555 1_555
N3 C10 1_555 1_555
O1 C1 1_555 1_555
O2 C1 1_555 1_555
O3 Cd1 1_555 1_555
O4 C2 1_555 1_555
O5 C2 1_555 1_555
O6 C17 1_555 1_555
O7 C17 1_555 1_555
O8 C18 1_555 1_555
O9 C18 1_555 1_555
O10 C19 1_555 1_555
O11 C19 1_555 1_555
O16 C36 1_555 1_555
O17 Cd1 1_555 1_555
Cd2 O6 1_555 1_555
O18 Cd2 1_555 1_555
Cd4 O8 1_555 1_555
O19 Cd2 1_555 1_555
O21 Cd2 1_555 1_555
O22 Cd1 1_555 1_555
O23 Cd1 1_555 1_555
O24 Cd1 1_555 1_555
O25 Cd1 1_555 1_555
O27 Cd2 1_555 1_555
O29 Cd2 1_555 1_555
Cd5 O5 1_555 1_555
Cd7 O2 1_555 1_555
Cd9 O4 1_555 1_555
Cd10 O11 1_555 1_555
Cd11 O16 1_555 1_555
C7 C8 1_555 1_555
C10 N1 1_555 1_555
C15 C16 1_555 1_555
C36 O17 1_555 1_555
N2 N3 1_555 1_555
O7 Cd2 1_555 1_555
O9 Cd4 1_555 1_555
O10 Cd4 1_555 1_555
O11 Cd4 1_555 1_555
O25 Cd11 1_555 1_555
O3 H15 1_555 1_555
O3 H16 1_555 1_555
O18 H17 1_555 1_555
O18 H18 1_555 1_555
C20 C23 1_555 1_555
C24 C23 1_555 1_555
H8 C24 1_555 1_555
C25 C24 1_555 1_555
C27 C25 1_555 1_555
C28 C29 1_555 1_555
C29 C30 1_555 1_555
C30 H10 1_555 1_555
C31 C30 1_555 1_555
C32 C31 1_555 1_555
H11 C32 1_555 1_555
C34 C29 1_555 1_555
C35 C31 1_555 1_555
N4 C27 1_555 1_555
N5 C27 1_555 1_555
H14 N5 1_555 1_555
N6 C28 1_555 1_555
O12 C20 1_555 1_555
O13 C20 1_555 1_555
O15 C35 1_555 1_555
Cd6 O12 1_555 1_555
C28 N4 1_555 1_555
N5 N6 1_555 1_555
O13 Cd6 1_555 1_555
Cd3 O14 1_555 1_555
O20 Cd3 1_555 1_555
O26 Cd3 1_555 1_555
O30 Cd3 1_555 1_555
Cd4 O1_2 1_555 1_555
C1_2 C3_2 1_555 1_555
C8_2 C3_2 1_555 1_555
H3_2 C8_2 1_555 1_555
H6_2 C16_2 1_555 1_555
C18_2 C15_2 1_555 1_555
C19_2 C21_2 1_555 1_555
C20_2 C23_2 1_555 1_555
C21_2 C22_2 1_555 1_555
C22_2 H7_2 1_555 1_555
C23_2 C22_2 1_555 1_555
C24_2 C23_2 1_555 1_555
H8_2 C24_2 1_555 1_555
C25_2 C24_2 1_555 1_555
C26_2 C21_2 1_555 1_555
H9_2 C26_2 1_555 1_555
C27_2 C25_2 1_555 1_555
C28_2 C29_2 1_555 1_555
C29_2 C30_2 1_555 1_555
C30_2 H10_2 1_555 1_555
C31_2 C30_2 1_555 1_555
C32_2 C31_2 1_555 1_555
H11_2 C32_2 1_555 1_555
C33_2 C32_2 1_555 1_555
C34_2 C29_2 1_555 1_555
H12_2 C34_2 1_555 1_555
C35_2 C31_2 1_555 1_555
C36_2 C33_2 1_555 1_555
N4_2 C27_2 1_555 1_555
N5_2 C27_2 1_555 1_555
H14_2 N5_2 1_555 1_555
N6_2 C28_2 1_555 1_555
O1_2 C1_2 1_555 1_555
O2_2 C1_2 1_555 1_555
O3_2 Cd4 1_555 1_555
O22 C18_2 1_555 1_555
O23 C18_2 1_555 1_555
O24 C19_2 1_555 1_555
O25 C19_2 1_555 1_555
O12_2 C20_2 1_555 1_555
O28 C20_2 1_555 1_555
O15_2 C35_2 1_555 1_555
O16_2 C36_2 1_555 1_555
O17_2 Cd4 1_555 1_555
Cd6_2 O12_2 1_555 1_555
Cd7_2 O2_2 1_555 1_555
Cd10 O16_2 1_555 1_555
C15_2 C16_2 1_555 1_555
C25_2 C26_2 1_555 1_555
C28_2 N4_2 1_555 1_555
C33_2 C34_2 1_555 1_555
C36_2 O17_2 1_555 1_555
N5_2 N6_2 1_555 1_555
O28 Cd6_2 1_555 1_555
O3_2 H15_2 1_555 1_555
O3_2 H16_2 1_555 1_555
C2_2 C5_2 1_555 1_555
C4_2 H1_2 1_555 1_555
C5_2 C4_2 1_555 1_555
C6_2 C5_2 1_555 1_555
H2_2 C6_2 1_555 1_555
C7_2 C6_2 1_555 1_555
C9_2 C7_2 1_555 1_555
C10_2 C11_2 1_555 1_555
C11_2 C12_2 1_555 1_555
C12_2 H4_2 1_555 1_555
C13_2 C12_2 1_555 1_555
C14_2 C13_2 1_555 1_555
C17_2 C13_2 1_555 1_555
N1_2 C9_2 1_555 1_555
N2_2 C9_2 1_555 1_555
H13_2 N2_2 1_555 1_555
N3_2 C10_2 1_555 1_555
O4_2 C2_2 1_555 1_555
O21 C2_2 1_555 1_555
O6_2 C17_2 1_555 1_555
O7_2 C17_2 1_555 1_555
Cd5 O6_2 1_555 1_555
O18_2 Cd5 1_555 1_555
O19_2 Cd5 1_555 1_555
O27_2 Cd5 1_555 1_555
O29_2 Cd5 1_555 1_555
Cd9_2 O4_2 1_555 1_555
C10_2 N1_2 1_555 1_555
N2_2 N3_2 1_555 1_555
O7_2 Cd5 1_555 1_555
O18_2 H17_2 1_555 1_555
O18_2 H18_2 1_555 1_555
Cd8 O14_2 1_555 1_555
O20_2 Cd8 1_555 1_555
O26_2 Cd8 1_555 1_555
O30_2 Cd8 1_555 1_555
Cd1_2 O1_3 1_555 1_555
C1_3 C3_3 1_555 1_555
C2_3 C5_3 1_555 1_555
C3_3 C4_3 1_555 1_555
C4_3 H1_3 1_555 1_555
C5_3 C4_3 1_555 1_555
C6_3 C5_3 1_555 1_555
H2_3 C6_3 1_555 1_555
C7_3 C6_3 1_555 1_555
C8_3 C3_3 1_555 1_555
H3_3 C8_3 1_555 1_555
C9_3 C7_3 1_555 1_555
C36_3 C33_3 1_555 1_555
N1_3 C9_3 1_555 1_555
N2_3 C9_3 1_555 1_555
H13_3 N2_3 1_555 1_555
N3_3 C10_3 1_555 1_555
O1_3 C1_3 1_555 1_555
O2_3 C1_3 1_555 1_555
O3_3 Cd1_2 1_555 1_555
O20_2 C2_3 1_555 1_555
O5_2 C2_3 1_555 1_555
O16_3 C36_3 1_555 1_555
O17_3 Cd1_2 1_555 1_555
O22_2 Cd1_2 1_555 1_555
O23_2 Cd1_2 1_555 1_555
O24_2 Cd1_2 1_555 1_555
O25_2 Cd1_2 1_555 1_555
Cd7_3 O2_3 1_555 1_555
Cd11_2 O16_3 1_555 1_555
C7_3 C8_3 1_555 1_555
C10_3 N1_3 1_555 1_555
C36_3 O17_3 1_555 1_555
N2_3 N3_3 1_555 1_555
O25_2 Cd11_2 1_555 1_555
O3_3 H15_3 1_555 1_555
O3_3 H16_3 1_555 1_555
C28_3 C29_3 1_555 1_555
C29_3 C30_3 1_555 1_555
C30_3 H10_3 1_555 1_555
C31_3 C30_3 1_555 1_555
C32_3 C31_3 1_555 1_555
H11_3 C32_3 1_555 1_555
C34_3 C29_3 1_555 1_555
C35_3 C31_3 1_555 1_555
O14_3 C35_3 1_555 1_555
O15_3 C35_3 1_555 1_555
Cd9_2 O14_3 1_555 1_555
O26_3 Cd9_2 1_555 1_555
O29 Cd9_2 1_555 1_555
O30_3 Cd9_2 1_555 1_555
O15_3 Cd9_2 1_555 1_555
Cd6_2 O6_3 1_555 1_555
O18_3 Cd6_2 1_555 1_555
O19_3 Cd6_2 1_555 1_555
O18_3 H17_3 1_555 1_555
O18_3 H18_3 1_555 1_555
C11_3 C12_3 1_555 1_555
C12_3 H4_3 1_555 1_555
C13_3 C12_3 1_555 1_555
C14_3 C13_3 1_555 1_555
H5_3 C14_3 1_555 1_555
C15_3 C14_3 1_555 1_555
C16_3 C11_3 1_555 1_555
H6_3 C16_3 1_555 1_555
C17_3 C13_3 1_555 1_555
C18_3 C15_3 1_555 1_555
C19_3 C21_3 1_555 1_555
C21_3 C22_3 1_555 1_555
C22_3 H7_3 1_555 1_555
C26_3 C21_3 1_555 1_555
H9_3 C26_3 1_555 1_555
O7_3 C17_3 1_555 1_555
O8_2 C18_3 1_555 1_555
O9_2 C18_3 1_555 1_555
O10_2 C19_3 1_555 1_555
O11_2 C19_3 1_555 1_555
Cd4_2 O8_2 1_555 1_555
Cd10_2 O11_2 1_555 1_555
C15_3 C16_3 1_555 1_555
O9_2 Cd4_2 1_555 1_555
O10_2 Cd4_2 1_555 1_555
O11_2 Cd4_2 1_555 1_555
C20_3 C23_3 1_555 1_555
C24_3 C23_3 1_555 1_555
H8_3 C24_3 1_555 1_555
C25_3 C24_3 1_555 1_555
C27_3 C25_3 1_555 1_555
N4_3 C27_3 1_555 1_555
N5_3 C27_3 1_555 1_555
H14_3 N5_3 1_555 1_555
O27_2 C20_3 1_555 1_555
O29_2 C20_3 1_555 1_555
Cd9 O29_2 1_555 1_555
N5_3 N6_3 1_555 1_555
Cd6 O6_4 1_555 1_555
O18_4 Cd6 1_555 1_555
O19_4 Cd6 1_555 1_555
O18_4 H17_4 1_555 1_555
O18_4 H18_4 1_555 1_555
H6_4 C16_4 1_555 1_555
C18_4 C15_4 1_555 1_555
C19_4 C21_4 1_555 1_555
C20_4 C23_4 1_555 1_555
C21_4 C22_4 1_555 1_555
C22_4 H7_4 1_555 1_555
C23_4 C22_4 1_555 1_555
C24_4 C23_4 1_555 1_555
H8_4 C24_4 1_555 1_555
C25_4 C24_4 1_555 1_555
C26_4 C21_4 1_555 1_555
H9_4 C26_4 1_555 1_555
C27_4 C25_4 1_555 1_555
N4_4 C27_4 1_555 1_555
N5_4 C27_4 1_555 1_555
H14_4 N5_4 1_555 1_555
O22_2 C18_4 1_555 1_555
O23_2 C18_4 1_555 1_555
O24_2 C19_4 1_555 1_555
O25_2 C19_4 1_555 1_555
O27 C20_4 1_555 1_555
O29 C20_4 1_555 1_555
C15_4 C16_4 1_555 1_555
C25_4 C26_4 1_555 1_555
N5_4 N6_4 1_555 1_555
C11_4 C12_4 1_555 1_555
C12_4 H4_4 1_555 1_555
C13_4 C12_4 1_555 1_555
C14_4 C13_4 1_555 1_555
C17_4 C13_4 1_555 1_555
O7_4 C17_4 1_555 1_555
Cd4_2 O1_4 1_555 1_555
C1_4 C3_4 1_555 1_555
C8_4 C3_4 1_555 1_555
H3_4 C8_4 1_555 1_555
C28_4 C29_4 1_555 1_555
C29_4 C30_4 1_555 1_555
C30_4 H10_4 1_555 1_555
C31_4 C30_4 1_555 1_555
C32_4 C31_4 1_555 1_555
H11_4 C32_4 1_555 1_555
C33_4 C32_4 1_555 1_555
C34_4 C29_4 1_555 1_555
H12_4 C34_4 1_555 1_555
C35_4 C31_4 1_555 1_555
C36_4 C33_4 1_555 1_555
O1_4 C1_4 1_555 1_555
O2_4 C1_4 1_555 1_555
O3_4 Cd4_2 1_555 1_555
O14_4 C35_4 1_555 1_555
O15_4 C35_4 1_555 1_555
O16_4 C36_4 1_555 1_555
O17_4 Cd4_2 1_555 1_555
Cd9 O14_4 1_555 1_555
O26_4 Cd9 1_555 1_555
O30_4 Cd9 1_555 1_555
Cd7_4 O2_4 1_555 1_555
Cd10_2 O16_4 1_555 1_555
C33_4 C34_4 1_555 1_555
C36_4 O17_4 1_555 1_555
O15_4 Cd9 1_555 1_555
O3_4 H15_4 1_555 1_555
O3_4 H16_4 1_555 1_555
C2_4 C5_4 1_555 1_555
C4_4 H1_4 1_555 1_555
C5_4 C4_4 1_555 1_555
C6_4 C5_4 1_555 1_555
H2_4 C6_4 1_555 1_555
C7_4 C6_4 1_555 1_555
C9_4 C7_4 1_555 1_555
N1_4 C9_4 1_555 1_555
N2_4 C9_4 1_555 1_555
H13_4 N2_4 1_555 1_555
N3_4 C10_4 1_555 1_555
O20 C2_4 1_555 1_555
O21_2 C2_4 1_555 1_555
C10_4 N1_4 1_555 1_555
N2_4 N3_4 1_555 1_555
Cd10 O14_5 1_555 1_555
O20_3 Cd10 1_555 1_555
C20_5 C23_5 1_555 1_555
C24_5 C23_5 1_555 1_555
H8_5 C24_5 1_555 1_555
C25_5 C24_5 1_555 1_555
C27_5 C25_5 1_555 1_555
C28_5 C29_5 1_555 1_555
C29_5 C30_5 1_555 1_555
C30_5 H10_5 1_555 1_555
C31_5 C30_5 1_555 1_555
C32_5 C31_5 1_555 1_555
H11_5 C32_5 1_555 1_555
C34_5 C29_5 1_555 1_555
C35_5 C31_5 1_555 1_555
N4_5 C27_5 1_555 1_555
N5_5 C27_5 1_555 1_555
H14_5 N5_5 1_555 1_555
N6_5 C28_5 1_555 1_555
O12_3 C20_5 1_555 1_555
O13_2 C20_5 1_555 1_555
O15_5 C35_5 1_555 1_555
Cd7_4 O12_3 1_555 1_555
C28_5 N4_5 1_555 1_555
N5_5 N6_5 1_555 1_555
O13_2 Cd7_4 1_555 1_555
Cd1_3 O1_5 1_555 1_555
C1_5 C3_5 1_555 1_555
C2_5 C5_5 1_555 1_555
C3_5 C4_5 1_555 1_555
C4_5 H1_5 1_555 1_555
C5_5 C4_5 1_555 1_555
C6_5 C5_5 1_555 1_555
H2_5 C6_5 1_555 1_555
C7_5 C6_5 1_555 1_555
C8_5 C3_5 1_555 1_555
H3_5 C8_5 1_555 1_555
C9_5 C7_5 1_555 1_555
C10_5 C11_5 1_555 1_555
C11_5 C12_5 1_555 1_555
C12_5 H4_5 1_555 1_555
C13_5 C12_5 1_555 1_555
C14_5 C13_5 1_555 1_555
H5_5 C14_5 1_555 1_555
C15_5 C14_5 1_555 1_555
C16_5 C11_5 1_555 1_555
H6_5 C16_5 1_555 1_555
C17_5 C13_5 1_555 1_555
C18_5 C15_5 1_555 1_555
C19_5 C21_5 1_555 1_555
C21_5 C22_5 1_555 1_555
C22_5 H7_5 1_555 1_555
C26_5 C21_5 1_555 1_555
H9_5 C26_5 1_555 1_555
C36_5 C33_5 1_555 1_555
N1_5 C9_5 1_555 1_555
N2_5 C9_5 1_555 1_555
H13_5 N2_5 1_555 1_555
N3_5 C10_5 1_555 1_555
O1_5 C1_5 1_555 1_555
O19 C1_5 1_555 1_555
O3_5 Cd1_3 1_555 1_555
O4_3 C2_5 1_555 1_555
O5_3 C2_5 1_555 1_555
O6_5 C17_5 1_555 1_555
O7_5 C17_5 1_555 1_555
O8_3 C18_5 1_555 1_555
O9_3 C18_5 1_555 1_555
O10_3 C19_5 1_555 1_555
O26 C19_5 1_555 1_555
O30_2 C36_5 1_555 1_555
O17_5 Cd1_3 1_555 1_555
Cd7 O6_5 1_555 1_555
O18_5 Cd7 1_555 1_555
Cd4_3 O8_3 1_555 1_555
O21_3 Cd7 1_555 1_555
O22_3 Cd1_3 1_555 1_555
O23_3 Cd1_3 1_555 1_555
O24_3 Cd1_3 1_555 1_555
O26_2 Cd1_3 1_555 1_555
O27_3 Cd7 1_555 1_555
O29_3 Cd7 1_555 1_555
Cd7_2 O5_3 1_555 1_555
Cd11_2 O4_3 1_555 1_555
C7_5 C8_5 1_555 1_555
C10_5 N1_5 1_555 1_555
C15_5 C16_5 1_555 1_555
C36_5 O17_5 1_555 1_555
N2_5 N3_5 1_555 1_555
O7_5 Cd7 1_555 1_555
O9_3 Cd4_3 1_555 1_555
O10_3 Cd4_3 1_555 1_555
O26 Cd4_3 1_555 1_555
O3_5 H15_5 1_555 1_555
O3_5 H16_5 1_555 1_555
O18_5 H17_5 1_555 1_555
O18_5 H18_5 1_555 1_555
Cd11 O14_6 1_555 1_555
O20_4 Cd11 1_555 1_555
C2_6 C5_6 1_555 1_555
C4_6 H1_6 1_555 1_555
C5_6 C4_6 1_555 1_555
C6_6 C5_6 1_555 1_555
H2_6 C6_6 1_555 1_555
C7_6 C6_6 1_555 1_555
C9_6 C7_6 1_555 1_555
C10_6 C11_6 1_555 1_555
C11_6 C12_6 1_555 1_555
C12_6 H4_6 1_555 1_555
C13_6 C12_6 1_555 1_555
C14_6 C13_6 1_555 1_555
C17_6 C13_6 1_555 1_555
N1_6 C9_6 1_555 1_555
N2_6 C9_6 1_555 1_555
H13_6 N2_6 1_555 1_555
N3_6 C10_6 1_555 1_555
O4_4 C2_6 1_555 1_555
O21_3 C2_6 1_555 1_555
O6_6 C17_6 1_555 1_555
O7_6 C17_6 1_555 1_555
Cd7_2 O6_6 1_555 1_555
O18_6 Cd7_2 1_555 1_555
O27_4 Cd7_2 1_555 1_555
O29_4 Cd7_2 1_555 1_555
Cd10_2 O4_4 1_555 1_555
C10_6 N1_6 1_555 1_555
N2_6 N3_6 1_555 1_555
O7_6 Cd7_2 1_555 1_555
O18_6 H17_6 1_555 1_555
O18_6 H18_6 1_555 1_555
Cd4_3 O1_6 1_555 1_555
C1_6 C3_6 1_555 1_555
C8_6 C3_6 1_555 1_555
H3_6 C8_6 1_555 1_555
H6_6 C16_6 1_555 1_555
C18_6 C15_6 1_555 1_555
C19_6 C21_6 1_555 1_555
C20_6 C23_6 1_555 1_555
C21_6 C22_6 1_555 1_555
C22_6 H7_6 1_555 1_555
C23_6 C22_6 1_555 1_555
C24_6 C23_6 1_555 1_555
H8_6 C24_6 1_555 1_555
C25_6 C24_6 1_555 1_555
C26_6 C21_6 1_555 1_555
H9_6 C26_6 1_555 1_555
C27_6 C25_6 1_555 1_555
C28_6 C29_6 1_555 1_555
C29_6 C30_6 1_555 1_555
C30_6 H10_6 1_555 1_555
C31_6 C30_6 1_555 1_555
C32_6 C31_6 1_555 1_555
H11_6 C32_6 1_555 1_555
C33_6 C32_6 1_555 1_555
C34_6 C29_6 1_555 1_555
H12_6 C34_6 1_555 1_555
C35_6 C31_6 1_555 1_555
C36_6 C33_6 1_555 1_555
N4_6 C27_6 1_555 1_555
N5_6 C27_6 1_555 1_555
H14_6 N5_6 1_555 1_555
N6_6 C28_6 1_555 1_555
O1_6 C1_6 1_555 1_555
O19_2 C1_6 1_555 1_555
O3_6 Cd4_3 1_555 1_555
O22_3 C18_6 1_555 1_555
O23_3 C18_6 1_555 1_555
O24_3 C19_6 1_555 1_555
O26_2 C19_6 1_555 1_555
O12_4 C20_6 1_555 1_555
O28_2 C20_6 1_555 1_555
O15_6 C35_6 1_555 1_555
O30 C36_6 1_555 1_555
O17_6 Cd4_3 1_555 1_555
Cd7_3 O12_4 1_555 1_555
C15_6 C16_6 1_555 1_555
C25_6 C26_6 1_555 1_555
C28_6 N4_6 1_555 1_555
C33_6 C34_6 1_555 1_555
C36_6 O17_6 1_555 1_555
N5_6 N6_6 1_555 1_555
O28_2 Cd7_3 1_555 1_555
O3_6 H15_6 1_555 1_555
O3_6 H16_6 1_555 1_555
C20_7 C23_7 1_555 1_555
C24_7 C23_7 1_555 1_555
H8_7 C24_7 1_555 1_555
C25_7 C24_7 1_555 1_555
C27_7 C25_7 1_555 1_555
N4_7 C27_7 1_555 1_555
N5_7 C27_7 1_555 1_555
H14_7 N5_7 1_555 1_555
O27_4 C20_7 1_555 1_555
O29_4 C20_7 1_555 1_555
Cd11_2 O29_4 1_555 1_555
N5_7 N6_7 1_555 1_555
C11_7 C12_7 1_555 1_555
C12_7 H4_7 1_555 1_555
C13_7 C12_7 1_555 1_555
C14_7 C13_7 1_555 1_555
H5_7 C14_7 1_555 1_555
C15_7 C14_7 1_555 1_555
C16_7 C11_7 1_555 1_555
H6_7 C16_7 1_555 1_555
C17_7 C13_7 1_555 1_555
C18_7 C15_7 1_555 1_555
C19_7 C21_7 1_555 1_555
C21_7 C22_7 1_555 1_555
C22_7 H7_7 1_555 1_555
C26_7 C21_7 1_555 1_555
H9_7 C26_7 1_555 1_555
O7_7 C17_7 1_555 1_555
O8_4 C18_7 1_555 1_555
O9_4 C18_7 1_555 1_555
O10_4 C19_7 1_555 1_555
O26_3 C19_7 1_555 1_555
Cd4_4 O8_4 1_555 1_555
C15_7 C16_7 1_555 1_555
O9_4 Cd4_4 1_555 1_555
O10_4 Cd4_4 1_555 1_555
O26_3 Cd4_4 1_555 1_555
Cd7_3 O6_7 1_555 1_555
O18_7 Cd7_3 1_555 1_555
O18_7 H17_7 1_555 1_555
O18_7 H18_7 1_555 1_555
C28_7 C29_7 1_555 1_555
C29_7 C30_7 1_555 1_555
C30_7 H10_7 1_555 1_555
C31_7 C30_7 1_555 1_555
C32_7 C31_7 1_555 1_555
H11_7 C32_7 1_555 1_555
C34_7 C29_7 1_555 1_555
C35_7 C31_7 1_555 1_555
O14_7 C35_7 1_555 1_555
O15_7 C35_7 1_555 1_555
Cd10_2 O14_7 1_555 1_555
O29_3 Cd10_2 1_555 1_555
O15_7 Cd10_2 1_555 1_555
Cd1_4 O1_7 1_555 1_555
C1_7 C3_7 1_555 1_555
C2_7 C5_7 1_555 1_555
C3_7 C4_7 1_555 1_555
C4_7 H1_7 1_555 1_555
C5_7 C4_7 1_555 1_555
C6_7 C5_7 1_555 1_555
H2_7 C6_7 1_555 1_555
C7_7 C6_7 1_555 1_555
C8_7 C3_7 1_555 1_555
H3_7 C8_7 1_555 1_555
C9_7 C7_7 1_555 1_555
C36_7 C33_7 1_555 1_555
N1_7 C9_7 1_555 1_555
N2_7 C9_7 1_555 1_555
H13_7 N2_7 1_555 1_555
N3_7 C10_7 1_555 1_555
O1_7 C1_7 1_555 1_555
O19_3 C1_7 1_555 1_555
O3_7 Cd1_4 1_555 1_555
O20_4 C2_7 1_555 1_555
O5_4 C2_7 1_555 1_555
O30_4 C36_7 1_555 1_555
O17_7 Cd1_4 1_555 1_555
O22_4 Cd1_4 1_555 1_555
O23_4 Cd1_4 1_555 1_555
O24_4 Cd1_4 1_555 1_555
O26_4 Cd1_4 1_555 1_555
C7_7 C8_7 1_555 1_555
C10_7 N1_7 1_555 1_555
C36_7 O17_7 1_555 1_555
N2_7 N3_7 1_555 1_555
O3_7 H15_7 1_555 1_555
O3_7 H16_7 1_555 1_555
C2_8 C5_8 1_555 1_555
C4_8 H1_8 1_555 1_555
C5_8 C4_8 1_555 1_555
C6_8 C5_8 1_555 1_555
H2_8 C6_8 1_555 1_555
C7_8 C6_8 1_555 1_555
C9_8 C7_8 1_555 1_555
N1_8 C9_8 1_555 1_555
N2_8 C9_8 1_555 1_555
H13_8 N2_8 1_555 1_555
N3_8 C10_8 1_555 1_555
O20_3 C2_8 1_555 1_555
O21_4 C2_8 1_555 1_555
C10_8 N1_8 1_555 1_555
N2_8 N3_8 1_555 1_555
Cd4_4 O1_8 1_555 1_555
C1_8 C3_8 1_555 1_555
C8_8 C3_8 1_555 1_555
H3_8 C8_8 1_555 1_555
C28_8 C29_8 1_555 1_555
C29_8 C30_8 1_555 1_555
C30_8 H10_8 1_555 1_555
C31_8 C30_8 1_555 1_555
C32_8 C31_8 1_555 1_555
H11_8 C32_8 1_555 1_555
C33_8 C32_8 1_555 1_555
C34_8 C29_8 1_555 1_555
H12_8 C34_8 1_555 1_555
C35_8 C31_8 1_555 1_555
C36_8 C33_8 1_555 1_555
O1_8 C1_8 1_555 1_555
O19_4 C1_8 1_555 1_555
O3_8 Cd4_4 1_555 1_555
O14_8 C35_8 1_555 1_555
O15_8 C35_8 1_555 1_555
O30_3 C36_8 1_555 1_555
O17_8 Cd4_4 1_555 1_555
Cd11_2 O14_8 1_555 1_555
C33_8 C34_8 1_555 1_555
C36_8 O17_8 1_555 1_555
O15_8 Cd11_2 1_555 1_555
O3_8 H15_8 1_555 1_555
O3_8 H16_8 1_555 1_555
C11_8 C12_8 1_555 1_555
C12_8 H4_8 1_555 1_555
C13_8 C12_8 1_555 1_555
C14_8 C13_8 1_555 1_555
C17_8 C13_8 1_555 1_555
O7_8 C17_8 1_555 1_555
H6_8 C16_8 1_555 1_555
C18_8 C15_8 1_555 1_555
C19_8 C21_8 1_555 1_555
C20_8 C23_8 1_555 1_555
C21_8 C22_8 1_555 1_555
C22_8 H7_8 1_555 1_555
C23_8 C22_8 1_555 1_555
C24_8 C23_8 1_555 1_555
H8_8 C24_8 1_555 1_555
C25_8 C24_8 1_555 1_555
C26_8 C21_8 1_555 1_555
H9_8 C26_8 1_555 1_555
C27_8 C25_8 1_555 1_555
N4_8 C27_8 1_555 1_555
N5_8 C27_8 1_555 1_555
H14_8 N5_8 1_555 1_555
O22_4 C18_8 1_555 1_555
O23_4 C18_8 1_555 1_555
O24_4 C19_8 1_555 1_555
O26_4 C19_8 1_555 1_555
O27_3 C20_8 1_555 1_555
O29_3 C20_8 1_555 1_555
C15_8 C16_8 1_555 1_555
C25_8 C26_8 1_555 1_555
N5_8 N6_8 1_555 1_555
Cd7_4 O6_8 1_555 1_555
O18_8 Cd7_4 1_555 1_555
O18_8 H17_8 1_555 1_555
O18_8 H18_8 1_555 1_555

#END
