
###############################################################################
#
# This file contains modified crystal structure data generated from the
# MOF subset of the Cambridge Structural Database (CSD) v543 
# hosted by the Cambridge Crystallographic Data Centre (CCDC).
#
# This work is licensed under the Creative Commons
# Attribution-NonCommercial-ShareAlike 4.0 International License.
# To view a copy of this license, visit
# http://creativecommons.org/licenses/by-nc-sa/4.0/
# or send a letter to
# Creative Commons, PO Box 1866, Mountain View, CA 94042, USA.
#
# CIF created using the CSD Python API on 29 September 2022
# The structure has been converted into the P1 space group
# The structure has a 3D framework
# The original CSD entry WEPHOR01 is in the trigonal crystal system
# The framework has been calculated to contain at least 10.0% void space
# The void calculation uses a probe of radius 1.32A, grid spacing 0.4
# The framework is charged, counterions have been retained in the structure
#
###############################################################################

data_WEPHOR01
_chemical_formula_moiety         '(C12 H12 Ga5 Mn2 O18)n'
_symmetry_cell_setting           triclinic
_symmetry_space_group_name_H-M   'P 1'
_symmetry_Int_Tables_number      1
_space_group_name_Hall           'P 1'
loop_
_symmetry_equiv_pos_site_id
_symmetry_equiv_pos_as_xyz
1 x,y,z
_cell_length_a                   8.23(9)
_cell_length_b                   8.23(9)
_cell_length_c                   13.95(15)
_cell_angle_alpha                90
_cell_angle_beta                 90
_cell_angle_gamma                120
_cell_volume                     818.285
loop_
_atom_site_label
_atom_site_type_symbol
_atom_site_fract_x
_atom_site_fract_y
_atom_site_fract_z
Ga4 Ga -0.0000 -0.0000 0.5000
O12 O 0.0153(4) 0.2045(3) 0.42032(12)
Ga4_2 Ga -0.0000 1.0000 0.5000
Ga4_3 Ga 1.0000 -0.0000 0.5000
Mn1 Mn 0.6667 0.3333 0.2500
Ga1 Ga 0.0000 0.0000 0.0000
O1 O 0.4485(3) 0.3382(3) 0.16512(14)
O2 O 0.1892(3) 0.2045(3) 0.07968(12)
C1 C 0.3315(3) 0.2095(4) 0.11549(17)
H1 H 0.3498 0.1085 0.1036
O7 O 0.4485(3) 0.1103(4) 0.33488(14)
C4 C 0.3315(3) 0.1220(5) 0.38451(17)
H4 H 0.3498 0.2413 0.3964
O9 O 0.6618(3) 0.5515(3) 0.33488(14)
O10 O 0.7955(3) 0.8108(3) 0.42032(12)
C5 C 0.7905(4) 0.6685(3) 0.38451(17)
H5 H 0.8915 0.6502 0.3964
O11 O 0.8897(4) 0.3382(3) 0.33488(14)
C6 C 0.8780(5) 0.2095(4) 0.38451(17)
H6 H 0.7587 0.1085 0.3964
Ga4_4 Ga 1.0000 1.0000 0.5000
O13 O 0.6618(3) 0.1103(4) 0.16512(14)
O14 O 0.8897(4) 0.5515(3) 0.16512(14)
Ga1_2 Ga -0.0000 -0.0000 1.0000
O16 O 0.2045(3) 0.0153(4) 0.92032(12)
Ga1_3 Ga 0.0000 1.0000 0.0000
O6 O 0.0153(4) 0.8108(3) 0.07968(12)
O8 O 0.1892(3) 0.9847(4) 0.42032(12)
Ga1_4 Ga 0.0000 1.0000 1.0000
Ga1_5 Ga 1.0000 0.0000 0.0000
C2 C 0.7905(4) 0.1220(5) 0.11549(17)
H2 H 0.8915 0.2413 0.1036
Ga1_6 Ga 1.0000 -0.0000 1.0000
O17 O 0.9847(4) 0.1892(3) 0.92032(12)
Ga1_7 Ga 1.0000 1.0000 0.0000
O4 O 0.7955(3) 0.9847(4) 0.07968(12)
C3 C 0.8780(5) 0.6685(3) 0.11549(17)
H3 H 0.7587 0.6502 0.1036
Ga1_8 Ga 1.0000 1.0000 1.0000
O15 O 0.8108(3) 0.7955(3) 0.92032(12)
O15_2 O 0.2045(3) 0.1892(3) 0.57968(12)
O17_2 O 0.8108(3) 0.0153(4) 0.57968(12)
O16_2 O 0.9847(4) 0.7955(3) 0.57968(12)
O5 O 0.1103(4) 0.4485(3) 0.83488(14)
C3_2 C 0.1220(5) 0.3315(3) 0.88451(17)
H3_2 H 0.2413 0.3498 0.8964
Mn2 Mn 0.3333 0.6667 0.7500
O3 O 0.3382(3) 0.8897(4) 0.83488(14)
C2_2 C 0.2095(4) 0.8780(5) 0.88451(17)
H2_2 H 0.1085 0.7587 0.8964
O1_2 O 0.5515(3) 0.6618(3) 0.83488(14)
C1_2 C 0.6685(3) 0.7905(4) 0.88451(17)
H1_2 H 0.6502 0.8915 0.8964
O7_2 O 0.5515(3) 0.8897(4) 0.66512(14)
C4_2 C 0.6685(3) 0.8780(5) 0.61549(17)
H4_2 H 0.6502 0.7587 0.6036
O9_2 O 0.3382(3) 0.4485(3) 0.66512(14)
C5_2 C 0.2095(4) 0.3315(3) 0.61549(17)
H5_2 H 0.1085 0.3498 0.6036
O11_2 O 0.1103(4) 0.6618(3) 0.66512(14)
C6_2 C 0.1220(5) 0.7905(4) 0.61549(17)
H6_2 H 0.2413 0.8915 0.6036
loop_
_geom_bond_atom_site_label_1
_geom_bond_atom_site_label_2
_geom_bond_site_symmetry_1
_geom_bond_site_symmetry_2
Ga4 O12 1_555 1_555
Mn1 O1 1_555 1_555
Ga1 O2 1_555 1_555
O1 C1 1_555 1_555
O2 C1 1_555 1_555
C1 H1 1_555 1_555
O7 Mn1 1_555 1_555
C4 O7 1_555 1_555
H4 C4 1_555 1_555
O9 Mn1 1_555 1_555
O10 C5 1_555 1_555
C5 O9 1_555 1_555
H5 C5 1_555 1_555
O11 Mn1 1_555 1_555
C6 O11 1_555 1_555
H6 C6 1_555 1_555
Ga4_4 O10 1_555 1_555
O13 Mn1 1_555 1_555
O14 Mn1 1_555 1_555
O16 Ga1_2 1_555 1_555
O6 Ga1_3 1_555 1_555
Ga4_2 O8 1_555 1_555
O13 C2 1_555 1_555
H2 C2 1_555 1_555
O17 Ga1_6 1_555 1_555
O4 Ga1_7 1_555 1_555
O14 C3 1_555 1_555
H3 C3 1_555 1_555
O15 Ga1_8 1_555 1_555
O15_2 Ga4 1_555 1_555
O17_2 Ga4_3 1_555 1_555
O16_2 Ga4_4 1_555 1_555
O5 C3_2 1_555 1_555
H3_2 C3_2 1_555 1_555
Mn2 O5 1_555 1_555
O3 C2_2 1_555 1_555
H2_2 C2_2 1_555 1_555
Mn2 O3 1_555 1_555
Mn2 O1_2 1_555 1_555
O1_2 C1_2 1_555 1_555
O15 C1_2 1_555 1_555
C1_2 H1_2 1_555 1_555
O7_2 Mn2 1_555 1_555
C4_2 O7_2 1_555 1_555
H4_2 C4_2 1_555 1_555
O9_2 Mn2 1_555 1_555
O15_2 C5_2 1_555 1_555
C5_2 O9_2 1_555 1_555
H5_2 C5_2 1_555 1_555
O11_2 Mn2 1_555 1_555
C6_2 O11_2 1_555 1_555
H6_2 C6_2 1_555 1_555

#END
