
###############################################################################
#
# This file contains modified crystal structure data generated from the
# MOF subset of the Cambridge Structural Database (CSD) v543 
# hosted by the Cambridge Crystallographic Data Centre (CCDC).
#
# This work is licensed under the Creative Commons
# Attribution-NonCommercial-ShareAlike 4.0 International License.
# To view a copy of this license, visit
# http://creativecommons.org/licenses/by-nc-sa/4.0/
# or send a letter to
# Creative Commons, PO Box 1866, Mountain View, CA 94042, USA.
#
# CIF created using the CSD Python API on 29 September 2022
# The structure has been converted into the P1 space group
# The structure has a 3D framework
# The original CSD entry WEPJIN is in the trigonal crystal system
# The framework has been calculated to contain at least 10.0% void space
# The void calculation uses a probe of radius 1.32A, grid spacing 0.4
# The framework is charged, counterions have been retained in the structure
#
###############################################################################

data_WEPJIN
_chemical_formula_moiety         '(C12 H12 Ga5 Mn2 O18)n'
_symmetry_cell_setting           triclinic
_symmetry_space_group_name_H-M   'P 1'
_symmetry_Int_Tables_number      1
_space_group_name_Hall           'P 1'
loop_
_symmetry_equiv_pos_site_id
_symmetry_equiv_pos_as_xyz
1 x,y,z
_cell_length_a                   8.2488(18)
_cell_length_b                   8.2488(18)
_cell_length_c                   14.046(4)
_cell_angle_alpha                90
_cell_angle_beta                 90
_cell_angle_gamma                120
_cell_volume                     827.685
loop_
_atom_site_label
_atom_site_type_symbol
_atom_site_fract_x
_atom_site_fract_y
_atom_site_fract_z
Ga1 Ga 0.0000 0.0000 0.0000
O4 O 0.0135(5) 0.2035(4) 0.07956(18)
C2 C 0.3306(5) 0.1234(7) 0.1166(2)
O8 O 0.4481(4) 0.1119(6) 0.16556(19)
H2 H 0.3469 0.2419 0.1061
Mn2 Mn 0.6667 0.3333 0.2500
Ga1_2 Ga -0.0000 0.0000 1.0000
O5 O 0.2035(4) 0.1900(3) 0.92044(18)
Ga1_3 Ga -0.0000 1.0000 0.0000
O3 O 0.1900(3) 0.9865(5) 0.07956(18)
Ga1_4 Ga -0.0000 1.0000 1.0000
Ga1_5 Ga 1.0000 0.0000 0.0000
C3 C 0.8766(7) 0.2072(5) 0.1166(2)
O9 O 0.8881(6) 0.3362(4) 0.16556(19)
H3 H 0.7581 0.1050 0.1061
Ga1_6 Ga 1.0000 0.0000 1.0000
O6 O 0.8100(3) 0.0135(5) 0.92044(18)
Ga1_7 Ga 1.0000 1.0000 0.0000
O1 O 0.7965(4) 0.8100(3) 0.07956(18)
C1 C 0.7928(5) 0.6694(5) 0.1166(2)
O2 O 0.6638(4) 0.5519(4) 0.16556(19)
H1 H 0.8950 0.6531 0.1061
O12 O 0.4481(4) 0.3362(4) 0.33444(19)
O13 O 0.8881(6) 0.5519(4) 0.33444(19)
O14 O 0.6638(4) 0.1119(6) 0.33444(19)
C6 C 0.3306(5) 0.2072(5) 0.3834(2)
O17 O 0.1900(3) 0.2035(4) 0.42044(18)
H6 H 0.3469 0.1050 0.3939
Ga4 Ga -0.0000 -0.0000 0.5000
Ga1_8 Ga 1.0000 1.0000 1.0000
O7 O 0.9865(5) 0.7965(4) 0.92044(18)
Ga4_2 Ga -0.0000 1.0000 0.5000
Ga4_3 Ga 1.0000 -0.0000 0.5000
Ga4_4 Ga 1.0000 1.0000 0.5000
C6_2 C 0.7928(5) 0.1234(7) 0.3834(2)
H6_2 H 0.8950 0.2419 0.3939
O17_2 O 0.7965(4) 0.9865(5) 0.42044(18)
O17_3 O 0.0135(5) 0.8100(3) 0.42044(18)
C6_3 C 0.8766(7) 0.6694(5) 0.3834(2)
H6_3 H 0.7581 0.6531 0.3939
O7_2 O 0.2035(4) 0.0135(5) 0.57956(18)
O6_2 O 0.9865(5) 0.1900(3) 0.57956(18)
O5_2 O 0.8100(3) 0.7965(4) 0.57956(18)
C1_2 C 0.2072(5) 0.3306(5) 0.8834(2)
O2_2 O 0.3362(4) 0.4481(4) 0.83444(19)
H1_2 H 0.1050 0.3469 0.8939
Mn1 Mn 0.3333 0.6667 0.7500
O10 O 0.5519(4) 0.8881(6) 0.83444(19)
O11 O 0.1119(6) 0.6638(4) 0.83444(19)
O12_2 O 0.5519(4) 0.6638(4) 0.66556(19)
O13_2 O 0.1119(6) 0.4481(4) 0.66556(19)
O14_2 O 0.3362(4) 0.8881(6) 0.66556(19)
C4 C 0.6694(5) 0.8766(7) 0.8834(2)
C5 C 0.1234(7) 0.7928(5) 0.8834(2)
C6_4 C 0.6694(5) 0.7928(5) 0.6166(2)
H4 H 0.6531 0.7581 0.8939
H5 H 0.2419 0.8950 0.8939
H6_4 H 0.6531 0.8950 0.6061
C6_5 C 0.2072(5) 0.8766(7) 0.6166(2)
H6_5 H 0.1050 0.7581 0.6061
C6_6 C 0.1234(7) 0.3306(5) 0.6166(2)
H6_6 H 0.2419 0.3469 0.6061
loop_
_geom_bond_atom_site_label_1
_geom_bond_atom_site_label_2
_geom_bond_site_symmetry_1
_geom_bond_site_symmetry_2
O4 Ga1 1_555 1_555
O8 C2 1_555 1_555
H2 C2 1_555 1_555
Mn2 O8 1_555 1_555
O5 Ga1_2 1_555 1_555
O3 Ga1_3 1_555 1_555
O9 C3 1_555 1_555
H3 C3 1_555 1_555
Mn2 O9 1_555 1_555
O6 Ga1_6 1_555 1_555
Ga1_7 O1 1_555 1_555
O1 C1 1_555 1_555
C1 O2 1_555 1_555
O2 Mn2 1_555 1_555
H1 C1 1_555 1_555
O12 Mn2 1_555 1_555
O13 Mn2 1_555 1_555
O14 Mn2 1_555 1_555
C6 O12 1_555 1_555
O17 C6 1_555 1_555
H6 C6 1_555 1_555
Ga4 O17 1_555 1_555
O7 Ga1_8 1_555 1_555
C6_2 O14 1_555 1_555
H6_2 C6_2 1_555 1_555
Ga4_4 O17_2 1_555 1_555
Ga4_2 O17_3 1_555 1_555
C6_3 O13 1_555 1_555
H6_3 C6_3 1_555 1_555
O7_2 Ga4 1_555 1_555
O6_2 Ga4_3 1_555 1_555
O5_2 Ga4_4 1_555 1_555
O5 C1_2 1_555 1_555
C1_2 O2_2 1_555 1_555
O2_2 Mn1 1_555 1_555
H1_2 C1_2 1_555 1_555
Mn1 O10 1_555 1_555
O10 C4 1_555 1_555
O11 Mn1 1_555 1_555
O12_2 Mn1 1_555 1_555
O13_2 Mn1 1_555 1_555
O14_2 Mn1 1_555 1_555
C5 O11 1_555 1_555
C6_4 O12_2 1_555 1_555
H4 C4 1_555 1_555
H5 C5 1_555 1_555
O5_2 C6_4 1_555 1_555
H6_4 C6_4 1_555 1_555
C6_5 O14_2 1_555 1_555
H6_5 C6_5 1_555 1_555
C6_6 O13_2 1_555 1_555
H6_6 C6_6 1_555 1_555

#END
