
###############################################################################
#
# This file contains modified crystal structure data generated from the
# MOF subset of the Cambridge Structural Database (CSD) v543 
# hosted by the Cambridge Crystallographic Data Centre (CCDC).
#
# This work is licensed under the Creative Commons
# Attribution-NonCommercial-ShareAlike 4.0 International License.
# To view a copy of this license, visit
# http://creativecommons.org/licenses/by-nc-sa/4.0/
# or send a letter to
# Creative Commons, PO Box 1866, Mountain View, CA 94042, USA.
#
# CIF created using the CSD Python API on 29 September 2022
# The structure has been converted into the P1 space group
# The structure has a 3D framework
# The original CSD entry WEPJIN01 is in the trigonal crystal system
# The framework has been calculated to contain at least 10.0% void space
# The void calculation uses a probe of radius 1.32A, grid spacing 0.4
# The framework is charged, counterions have been retained in the structure
#
###############################################################################

data_WEPJIN01
_chemical_formula_moiety         '(C12 H12 Ga5 Mn2 O18)n'
_symmetry_cell_setting           triclinic
_symmetry_space_group_name_H-M   'P 1'
_symmetry_Int_Tables_number      1
_space_group_name_Hall           'P 1'
loop_
_symmetry_equiv_pos_site_id
_symmetry_equiv_pos_as_xyz
1 x,y,z
_cell_length_a                   8.2354(3)
_cell_length_b                   8.2354(3)
_cell_length_c                   14.0591(8)
_cell_angle_alpha                90
_cell_angle_beta                 90
_cell_angle_gamma                120
_cell_volume                     825.767
loop_
_atom_site_label
_atom_site_type_symbol
_atom_site_fract_x
_atom_site_fract_y
_atom_site_fract_z
Ga4 Ga -0.0000 0.0000 0.5000
Ga4_2 Ga -0.0000 1.0000 0.5000
O12 O 0.2037(5) 0.0130(7) 0.4205(2)
Ga4_3 Ga 1.0000 0.0000 0.5000
Mn1 Mn 0.3333 0.6667 0.2500
Ga1 Ga 0.0000 0.0000 0.0000
O1 O 0.3360(6) 0.4483(5) 0.1660(3)
O2 O 0.2037(5) 0.1907(5) 0.0795(2)
C1 C 0.2070(7) 0.3302(7) 0.1167(3)
H1 H 0.1043 0.3462 0.1063
O7 O 0.1123(8) 0.4483(5) 0.3340(3)
C4 C 0.1232(10) 0.3302(7) 0.3833(3)
H4 H 0.2419 0.3462 0.3937
O9 O 0.5517(5) 0.6640(6) 0.3340(3)
O10 O 0.8093(5) 0.7963(5) 0.4205(2)
C5 C 0.6698(7) 0.7930(7) 0.3833(3)
H5 H 0.6538 0.8957 0.3937
O11 O 0.3360(6) 0.8877(8) 0.3340(3)
C6 C 0.2070(7) 0.8768(10) 0.3833(3)
H6 H 0.1043 0.7581 0.3937
Ga4_4 Ga 1.0000 1.0000 0.5000
O13 O 0.5517(5) 0.8877(8) 0.1660(3)
O14 O 0.1123(8) 0.6640(6) 0.1660(3)
Ga1_2 Ga 0.0000 -0.0000 1.0000
O17 O 0.0130(7) 0.2037(5) 0.9205(2)
Ga1_3 Ga -0.0000 1.0000 0.0000
C3 C 0.1232(10) 0.7930(7) 0.1167(3)
H3 H 0.2419 0.8957 0.1063
Ga1_4 Ga 0.0000 1.0000 1.0000
O16 O 0.1907(5) 0.9870(7) 0.9205(2)
Ga1_5 Ga 1.0000 0.0000 0.0000
O4 O 0.8093(5) 0.0130(7) 0.0795(2)
O8 O 0.9870(7) 0.1907(5) 0.4205(2)
Ga1_6 Ga 1.0000 -0.0000 1.0000
Ga1_7 Ga 1.0000 1.0000 0.0000
C2 C 0.6698(7) 0.8768(10) 0.1167(3)
H2 H 0.6538 0.7581 0.1063
O6 O 0.9870(7) 0.7963(5) 0.0795(2)
Ga1_8 Ga 1.0000 1.0000 1.0000
O15 O 0.7963(5) 0.8093(5) 0.9205(2)
O15_2 O 0.1907(5) 0.2037(5) 0.5795(2)
O16_2 O 0.0130(7) 0.8093(5) 0.5795(2)
O17_2 O 0.7963(5) 0.9870(7) 0.5795(2)
O3 O 0.4483(5) 0.1123(8) 0.8340(3)
C2_2 C 0.3302(7) 0.1232(10) 0.8833(3)
H2_2 H 0.3462 0.2419 0.8937
Mn2 Mn 0.6667 0.3333 0.7500
O5 O 0.8877(8) 0.3360(6) 0.8340(3)
C3_2 C 0.8768(10) 0.2070(7) 0.8833(3)
H3_2 H 0.7581 0.1043 0.8937
O1_2 O 0.6640(6) 0.5517(5) 0.8340(3)
C1_2 C 0.7930(7) 0.6698(7) 0.8833(3)
H1_2 H 0.8957 0.6538 0.8937
O7_2 O 0.8877(8) 0.5517(5) 0.6660(3)
C4_2 C 0.8768(10) 0.6698(7) 0.6167(3)
H4_2 H 0.7581 0.6538 0.6063
O9_2 O 0.4483(5) 0.3360(6) 0.6660(3)
C5_2 C 0.3302(7) 0.2070(7) 0.6167(3)
H5_2 H 0.3462 0.1043 0.6063
O11_2 O 0.6640(6) 0.1123(8) 0.6660(3)
C6_2 C 0.7930(7) 0.1232(10) 0.6167(3)
H6_2 H 0.8957 0.2419 0.6063
loop_
_geom_bond_atom_site_label_1
_geom_bond_atom_site_label_2
_geom_bond_site_symmetry_1
_geom_bond_site_symmetry_2
Ga4 O12 1_555 1_555
Mn1 O1 1_555 1_555
Ga1 O2 1_555 1_555
O1 C1 1_555 1_555
O2 C1 1_555 1_555
C1 H1 1_555 1_555
O7 Mn1 1_555 1_555
C4 O7 1_555 1_555
H4 C4 1_555 1_555
O9 Mn1 1_555 1_555
O10 C5 1_555 1_555
C5 O9 1_555 1_555
H5 C5 1_555 1_555
O11 Mn1 1_555 1_555
C6 O11 1_555 1_555
H6 C6 1_555 1_555
Ga4_4 O10 1_555 1_555
O13 Mn1 1_555 1_555
O14 Mn1 1_555 1_555
O17 Ga1_2 1_555 1_555
O14 C3 1_555 1_555
H3 C3 1_555 1_555
O16 Ga1_4 1_555 1_555
O4 Ga1_5 1_555 1_555
Ga4_3 O8 1_555 1_555
O13 C2 1_555 1_555
H2 C2 1_555 1_555
O6 Ga1_7 1_555 1_555
O15 Ga1_8 1_555 1_555
O15_2 Ga4 1_555 1_555
O16_2 Ga4_2 1_555 1_555
O17_2 Ga4_4 1_555 1_555
O3 C2_2 1_555 1_555
H2_2 C2_2 1_555 1_555
Mn2 O3 1_555 1_555
O5 C3_2 1_555 1_555
H3_2 C3_2 1_555 1_555
Mn2 O5 1_555 1_555
Mn2 O1_2 1_555 1_555
O1_2 C1_2 1_555 1_555
O15 C1_2 1_555 1_555
C1_2 H1_2 1_555 1_555
O7_2 Mn2 1_555 1_555
C4_2 O7_2 1_555 1_555
H4_2 C4_2 1_555 1_555
O9_2 Mn2 1_555 1_555
O15_2 C5_2 1_555 1_555
C5_2 O9_2 1_555 1_555
H5_2 C5_2 1_555 1_555
O11_2 Mn2 1_555 1_555
C6_2 O11_2 1_555 1_555
H6_2 C6_2 1_555 1_555

#END
