
###############################################################################
#
# This file contains modified crystal structure data generated from the
# MOF subset of the Cambridge Structural Database (CSD) v543 
# hosted by the Cambridge Crystallographic Data Centre (CCDC).
#
# This work is licensed under the Creative Commons
# Attribution-NonCommercial-ShareAlike 4.0 International License.
# To view a copy of this license, visit
# http://creativecommons.org/licenses/by-nc-sa/4.0/
# or send a letter to
# Creative Commons, PO Box 1866, Mountain View, CA 94042, USA.
#
# CIF created using the CSD Python API on 29 September 2022
# The structure has been converted into the P1 space group
# The structure has a 3D framework
# The original CSD entry WEPJAF is in the trigonal crystal system
# The framework has been calculated to contain at least 10.0% void space
# The void calculation uses a probe of radius 1.32A, grid spacing 0.4
# The framework is charged, counterions have been retained in the structure
#
###############################################################################

data_WEPJAF
_chemical_formula_moiety         '(C12 H12 Ga4 Mn2 O18 1-)n'
_symmetry_cell_setting           triclinic
_symmetry_space_group_name_H-M   'P 1'
_symmetry_Int_Tables_number      1
_space_group_name_Hall           'P 1'
loop_
_symmetry_equiv_pos_site_id
_symmetry_equiv_pos_as_xyz
1 x,y,z
_cell_length_a                   8.2687(12)
_cell_length_b                   8.2687(12)
_cell_length_c                   13.709(3)
_cell_angle_alpha                90
_cell_angle_beta                 90
_cell_angle_gamma                120
_cell_volume                     811.729
loop_
_atom_site_label
_atom_site_type_symbol
_atom_site_fract_x
_atom_site_fract_y
_atom_site_fract_z
Ga3 Ga 0.0000 -0.0000 0.0000
Ga3_2 Ga 0.0000 -0.0000 1.0000
O1 O 0.01822(12) 0.20502(13) 0.08121(7)
O10 O 0.45063(20) 0.10980(14) 0.16468(7)
C5 C 0.33086(26) 0.12109(19) 0.11572(9)
H5 H 0.3479 0.2393 0.1036
Mn3 Mn 0.6667 0.3333 0.2500
Ga3_3 Ga 0.0000 1.0000 0.0000
Ga4 Ga -0.0000 0.0000 0.5000
Ga3_4 Ga 0.0000 1.0000 1.0000
O14 O 0.20502(13) 0.18680(18) 0.91879(7)
O9 O 0.18680(18) 0.98178(12) 0.08121(7)
Ga4_2 Ga -0.0000 1.0000 0.5000
Ga3_5 Ga 1.0000 -0.0000 0.0000
Ga3_6 Ga 1.0000 -0.0000 1.0000
O2 O 0.89020(14) 0.34083(14) 0.16468(7)
C1 C 0.87891(19) 0.20977(18) 0.11572(9)
H1 H 0.7607 0.1086 0.1036
O5 O 0.79498(13) 0.81320(18) 0.08121(7)
O6 O 0.65917(14) 0.54937(20) 0.16468(7)
C3 C 0.79023(18) 0.66914(26) 0.11572(9)
H3 H 0.8914 0.6521 0.1036
O12 O 0.65917(14) 0.10980(14) 0.33532(7)
C6 C 0.79023(18) 0.12109(19) 0.38428(9)
H6 H 0.8914 0.2393 0.3964
Ga3_7 Ga 1.0000 1.0000 0.0000
Ga4_3 Ga 1.0000 0.0000 0.5000
O16 O 0.45063(20) 0.34083(14) 0.33532(7)
O17 O 0.89020(14) 0.54937(20) 0.33532(7)
Ga3_8 Ga 1.0000 1.0000 1.0000
O15 O 0.81320(18) 0.01822(12) 0.91879(7)
O11 O 0.79498(13) 0.98178(12) 0.41879(7)
Ga4_4 Ga 1.0000 1.0000 0.5000
O13 O 0.98178(12) 0.79498(13) 0.91879(7)
O11_2 O 0.01822(12) 0.81320(18) 0.41879(7)
C6_2 C 0.87891(19) 0.66914(26) 0.38428(9)
H6_2 H 0.7607 0.6521 0.3964
O11_3 O 0.18680(18) 0.20502(13) 0.41879(7)
C6_3 C 0.33086(26) 0.20977(18) 0.38428(9)
H6_3 H 0.3479 0.1086 0.3964
O13_2 O 0.20502(13) 0.01822(12) 0.58121(7)
O15_2 O 0.98178(12) 0.18680(18) 0.58121(7)
O14_2 O 0.81320(18) 0.79498(13) 0.58121(7)
O4 O 0.34083(14) 0.45063(20) 0.83532(7)
C2 C 0.20977(18) 0.33086(26) 0.88428(9)
H2 H 0.1086 0.3479 0.8964
Mn2 Mn 0.3333 0.6667 0.7500
O2_2 O 0.10980(14) 0.65917(14) 0.83532(7)
C1_2 C 0.12109(19) 0.79023(18) 0.88428(9)
H1_2 H 0.2393 0.8914 0.8964
O8 O 0.54937(20) 0.89020(14) 0.83532(7)
C4 C 0.66914(26) 0.87891(19) 0.88428(9)
H4 H 0.6521 0.7607 0.8964
O12_2 O 0.34083(14) 0.89020(14) 0.66468(7)
C6_4 C 0.20977(18) 0.87891(19) 0.61572(9)
H6_4 H 0.1086 0.7607 0.6036
O16_2 O 0.54937(20) 0.65917(14) 0.66468(7)
O17_2 O 0.10980(14) 0.45063(20) 0.66468(7)
C6_5 C 0.12109(19) 0.33086(26) 0.61572(9)
H6_5 H 0.2393 0.3479 0.6036
C6_6 C 0.66914(26) 0.79023(18) 0.61572(9)
H6_6 H 0.6521 0.8914 0.6036
loop_
_geom_bond_atom_site_label_1
_geom_bond_atom_site_label_2
_geom_bond_site_symmetry_1
_geom_bond_site_symmetry_2
Ga3 O1 1_555 1_555
O10 C5 1_555 1_555
H5 C5 1_555 1_555
Mn3 O10 1_555 1_555
O14 Ga3_2 1_555 1_555
O9 Ga3_3 1_555 1_555
Mn3 O2 1_555 1_555
O2 C1 1_555 1_555
C1 H1 1_555 1_555
O5 C3 1_555 1_555
O6 Mn3 1_555 1_555
C3 O6 1_555 1_555
H3 C3 1_555 1_555
O12 Mn3 1_555 1_555
C6 O12 1_555 1_555
H6 C6 1_555 1_555
Ga3_7 O5 1_555 1_555
O16 Mn3 1_555 1_555
O17 Mn3 1_555 1_555
O15 Ga3_6 1_555 1_555
Ga4_4 O11 1_555 1_555
O13 Ga3_8 1_555 1_555
Ga4_2 O11_2 1_555 1_555
C6_2 O17 1_555 1_555
H6_2 C6_2 1_555 1_555
O11_3 C6_3 1_555 1_555
C6_3 O16 1_555 1_555
H6_3 C6_3 1_555 1_555
Ga4 O11_3 1_555 1_555
O13_2 Ga4 1_555 1_555
O15_2 Ga4_3 1_555 1_555
O14_2 Ga4_4 1_555 1_555
O4 C2 1_555 1_555
C2 O14 1_555 1_555
H2 C2 1_555 1_555
Mn2 O4 1_555 1_555
Mn2 O2_2 1_555 1_555
O2_2 C1_2 1_555 1_555
C1_2 H1_2 1_555 1_555
O8 Mn2 1_555 1_555
C4 O8 1_555 1_555
H4 C4 1_555 1_555
O12_2 Mn2 1_555 1_555
C6_4 O12_2 1_555 1_555
H6_4 C6_4 1_555 1_555
O16_2 Mn2 1_555 1_555
O17_2 Mn2 1_555 1_555
C6_5 O17_2 1_555 1_555
H6_5 C6_5 1_555 1_555
O14_2 C6_6 1_555 1_555
C6_6 O16_2 1_555 1_555
H6_6 C6_6 1_555 1_555

#END
