
###############################################################################
#
# This file contains modified crystal structure data generated from the
# MOF subset of the Cambridge Structural Database (CSD) v543 
# hosted by the Cambridge Crystallographic Data Centre (CCDC).
#
# This work is licensed under the Creative Commons
# Attribution-NonCommercial-ShareAlike 4.0 International License.
# To view a copy of this license, visit
# http://creativecommons.org/licenses/by-nc-sa/4.0/
# or send a letter to
# Creative Commons, PO Box 1866, Mountain View, CA 94042, USA.
#
# CIF created using the CSD Python API on 29 September 2022
# The structure has been converted into the P1 space group
# The structure has a 3D framework
# The original CSD entry WEPJAF01 is in the trigonal crystal system
# The framework has been calculated to contain at least 10.0% void space
# The void calculation uses a probe of radius 1.32A, grid spacing 0.4
# The framework is charged, counterions have been retained in the structure
#
###############################################################################

data_WEPJAF01
_chemical_formula_moiety         '(C12 H12 Ga4 Mn2 O17)n'
_symmetry_cell_setting           triclinic
_symmetry_space_group_name_H-M   'P 1'
_symmetry_Int_Tables_number      1
_space_group_name_Hall           'P 1'
loop_
_symmetry_equiv_pos_site_id
_symmetry_equiv_pos_as_xyz
1 x,y,z
_cell_length_a                   8.2856(8)
_cell_length_b                   8.2856(8)
_cell_length_c                   13.783(2)
_cell_angle_alpha                90
_cell_angle_beta                 90
_cell_angle_gamma                120
_cell_volume                     819.45
loop_
_atom_site_label
_atom_site_type_symbol
_atom_site_fract_x
_atom_site_fract_y
_atom_site_fract_z
Ga3 Ga 0.0000 0.0000 0.0000
Ga3_2 Ga 0.0000 0.0000 1.0000
O6 O 0.01550(13) 0.81212(20) 0.08085(8)
O9 O 0.44947(23) 0.33839(16) 0.16445(9)
O10 O 0.18788(20) 0.20338(15) 0.08085(8)
C5 C 0.3304(3) 0.2091(2) 0.11617(11)
H5 H 0.3469 0.1076 0.1049
O12 O 0.01550(13) 0.20338(15) 0.41915(8)
Mn3 Mn 0.6667 0.3333 0.2500
Ga3_3 Ga -0.0000 1.0000 0.0000
Ga4 Ga -0.0000 0.0000 0.5000
Ga3_4 Ga -0.0000 1.0000 1.0000
O15 O 0.20338(15) 0.01550(13) 0.91915(8)
Ga4_2 Ga -0.0000 1.0000 0.5000
Ga3_5 Ga 1.0000 0.0000 0.0000
Ga3_6 Ga 1.0000 0.0000 1.0000
O1 O 0.66161(16) 0.11108(17) 0.16445(9)
C1 C 0.7909(2) 0.1213(2) 0.11617(11)
H1 H 0.8924 0.2393 0.1049
O5 O 0.88892(17) 0.55053(23) 0.16445(9)
C3 C 0.8787(2) 0.6696(3) 0.11617(11)
H3 H 0.7607 0.6531 0.1049
O11 O 0.88892(17) 0.33839(16) 0.33555(9)
C6 C 0.8787(2) 0.2091(2) 0.38383(11)
H6 H 0.7607 0.1076 0.3951
Ga3_7 Ga 1.0000 1.0000 0.0000
Ga4_3 Ga 1.0000 0.0000 0.5000
O13 O 0.44947(23) 0.11108(17) 0.33555(9)
O14 O 0.66161(16) 0.55053(23) 0.33555(9)
Ga3_8 Ga 1.0000 1.0000 1.0000
O16 O 0.98450(13) 0.18788(20) 0.91915(8)
O2 O 0.79662(15) 0.98450(13) 0.08085(8)
Ga4_4 Ga 1.0000 1.0000 0.5000
O17 O 0.81212(20) 0.79662(15) 0.91915(8)
O12_2 O 0.79662(15) 0.81212(20) 0.41915(8)
C6_2 C 0.7909(2) 0.6696(3) 0.38383(11)
H6_2 H 0.8924 0.6531 0.3951
C6_3 C 0.3304(3) 0.1213(2) 0.38383(11)
H6_3 H 0.3469 0.2393 0.3951
O12_3 O 0.18788(20) 0.98450(13) 0.41915(8)
O17_2 O 0.20338(15) 0.18788(20) 0.58085(8)
O16_2 O 0.81212(20) 0.01550(13) 0.58085(8)
O15_2 O 0.98450(13) 0.79662(15) 0.58085(8)
O3 O 0.11108(17) 0.44947(23) 0.83555(9)
C2 C 0.1213(2) 0.3304(3) 0.88383(11)
H2 H 0.2393 0.3469 0.8951
Mn2 Mn 0.3333 0.6667 0.7500
O1_2 O 0.33839(16) 0.88892(17) 0.83555(9)
C1_2 C 0.2091(2) 0.8787(2) 0.88383(11)
H1_2 H 0.1076 0.7607 0.8951
O7 O 0.55053(23) 0.66161(16) 0.83555(9)
C4 C 0.6696(3) 0.7909(2) 0.88383(11)
H4 H 0.6531 0.8924 0.8951
O11_2 O 0.11108(17) 0.66161(16) 0.66445(9)
C6_4 C 0.1213(2) 0.7909(2) 0.61617(11)
H6_4 H 0.2393 0.8924 0.6049
O13_2 O 0.55053(23) 0.88892(17) 0.66445(9)
O14_2 O 0.33839(16) 0.44947(23) 0.66445(9)
C6_5 C 0.2091(2) 0.3304(3) 0.61617(11)
H6_5 H 0.1076 0.3469 0.6049
C6_6 C 0.6696(3) 0.8787(2) 0.61617(11)
H6_6 H 0.6531 0.7607 0.6049
loop_
_geom_bond_atom_site_label_1
_geom_bond_atom_site_label_2
_geom_bond_site_symmetry_1
_geom_bond_site_symmetry_2
O9 C5 1_555 1_555
O10 Ga3 1_555 1_555
C5 O10 1_555 1_555
H5 C5 1_555 1_555
Mn3 O9 1_555 1_555
Ga3_3 O6 1_555 1_555
Ga4 O12 1_555 1_555
O15 Ga3_2 1_555 1_555
Mn3 O1 1_555 1_555
O1 C1 1_555 1_555
C1 H1 1_555 1_555
O5 Mn3 1_555 1_555
C3 O5 1_555 1_555
H3 C3 1_555 1_555
O11 Mn3 1_555 1_555
C6 O11 1_555 1_555
H6 C6 1_555 1_555
O13 Mn3 1_555 1_555
O14 Mn3 1_555 1_555
O16 Ga3_6 1_555 1_555
Ga3_7 O2 1_555 1_555
O17 Ga3_8 1_555 1_555
O12_2 C6_2 1_555 1_555
C6_2 O14 1_555 1_555
H6_2 C6_2 1_555 1_555
Ga4_4 O12_2 1_555 1_555
C6_3 O13 1_555 1_555
H6_3 C6_3 1_555 1_555
Ga4_2 O12_3 1_555 1_555
O17_2 Ga4 1_555 1_555
O16_2 Ga4_3 1_555 1_555
O15_2 Ga4_4 1_555 1_555
O3 C2 1_555 1_555
H2 C2 1_555 1_555
Mn2 O3 1_555 1_555
Mn2 O1_2 1_555 1_555
O1_2 C1_2 1_555 1_555
C1_2 H1_2 1_555 1_555
O7 Mn2 1_555 1_555
O17 C4 1_555 1_555
C4 O7 1_555 1_555
H4 C4 1_555 1_555
O11_2 Mn2 1_555 1_555
C6_4 O11_2 1_555 1_555
H6_4 C6_4 1_555 1_555
O13_2 Mn2 1_555 1_555
O14_2 Mn2 1_555 1_555
O17_2 C6_5 1_555 1_555
C6_5 O14_2 1_555 1_555
H6_5 C6_5 1_555 1_555
C6_6 O13_2 1_555 1_555
H6_6 C6_6 1_555 1_555

#END
