
###############################################################################
#
# This file contains modified crystal structure data generated from the
# MOF subset of the Cambridge Structural Database (CSD) v543 
# hosted by the Cambridge Crystallographic Data Centre (CCDC).
#
# This work is licensed under the Creative Commons
# Attribution-NonCommercial-ShareAlike 4.0 International License.
# To view a copy of this license, visit
# http://creativecommons.org/licenses/by-nc-sa/4.0/
# or send a letter to
# Creative Commons, PO Box 1866, Mountain View, CA 94042, USA.
#
# CIF created using the CSD Python API on 29 September 2022
# The structure has been converted into the P1 space group
# The structure has a 3D framework
# The original CSD entry WERCUU is in the orthorhombic crystal system
# The original CSD entry WERCUU is in a Sohncke space group
# The framework has been calculated to contain at least 10.0% void space
# The void calculation uses a probe of radius 1.32A, grid spacing 0.4
# The framework is charged, counterions have been retained in the structure
# H atom positions have been added when not included in the experimental data
#
###############################################################################

data_WERCUU
_chemical_formula_moiety         '(C624 H632 O184 P16 Ti24 24+)n'
_symmetry_cell_setting           triclinic
_symmetry_space_group_name_H-M   'P 1'
_symmetry_Int_Tables_number      1
_space_group_name_Hall           'P 1'
loop_
_symmetry_equiv_pos_site_id
_symmetry_equiv_pos_as_xyz
1 x,y,z
_cell_length_a                   27.341(9)
_cell_length_b                   29.274(11)
_cell_length_c                   29.662(10)
_cell_angle_alpha                90
_cell_angle_beta                 90
_cell_angle_gamma                90
_cell_volume                     23740.9
loop_
_atom_site_label
_atom_site_type_symbol
_atom_site_fract_x
_atom_site_fract_y
_atom_site_fract_z
O1 O 0.5698(4) 0.1229(4) 0.1353(4)
O2 O 0.5150(4) 0.1103(3) 0.1887(4)
C1 C 0.5373(6) 0.1004(5) 0.1531(5)
C2 C 0.5241(6) 0.0572(5) 0.1302(5)
H75 H 0.556014 0.0349938 0.128705
H76 H 0.495038 0.0402459 0.148917
H77 H 0.511536 0.0645773 0.0961299
O1_2 O 0.4302(4) 0.8771(4) 0.6353(4)
O2_2 O 0.4850(4) 0.8897(3) 0.6887(4)
C1_2 C 0.4627(6) 0.8996(5) 0.6531(5)
C2_2 C 0.4759(6) 0.9428(5) 0.6302(5)
H75_2 H 0.443986 0.965006 0.628705
H76_2 H 0.504962 0.959754 0.648917
H77_2 H 0.488464 0.935423 0.59613
O1_3 O 0.5698(4) 0.8771(4) 0.8647(4)
O2_3 O 0.5150(4) 0.8897(3) 0.8113(4)
C1_3 C 0.5373(6) 0.8996(5) 0.8469(5)
C2_3 C 0.5241(6) 0.9428(5) 0.8698(5)
H75_3 H 0.556014 0.965006 0.871295
H76_3 H 0.495038 0.959754 0.851083
H77_3 H 0.511536 0.935423 0.90387
O1_4 O 0.4302(4) 0.1229(4) 0.3647(4)
O2_4 O 0.4850(4) 0.1103(3) 0.3113(4)
C1_4 C 0.4627(6) 0.1004(5) 0.3469(5)
C2_4 C 0.4759(6) 0.0572(5) 0.3698(5)
H75_4 H 0.443986 0.0349938 0.371295
H76_4 H 0.504962 0.0402459 0.351083
H77_4 H 0.488464 0.0645773 0.40387
O1_5 O 0.0698(4) 0.6229(4) 0.1353(4)
O2_5 O 0.0150(4) 0.6103(3) 0.1887(4)
C1_5 C 0.0373(6) 0.6004(5) 0.1531(5)
C2_5 C 0.0241(6) 0.5572(5) 0.1302(5)
H75_5 H 0.0560142 0.534994 0.128705
H77_5 H 0.0115362 0.564577 0.0961299
H76_5 H 0.995038 0.540246 0.148917
H76_6 H 0.00496187 0.459754 0.648917
O1_6 O 0.9302(4) 0.3771(4) 0.6353(4)
O2_6 O 0.9850(4) 0.3897(3) 0.6887(4)
C1_6 C 0.9627(6) 0.3996(5) 0.6531(5)
C2_6 C 0.9759(6) 0.4428(5) 0.6302(5)
H75_6 H 0.943986 0.465006 0.628705
H77_6 H 0.988464 0.435423 0.59613
O1_7 O 0.0698(4) 0.3771(4) 0.8647(4)
O2_7 O 0.0150(4) 0.3897(3) 0.8113(4)
C1_7 C 0.0373(6) 0.3996(5) 0.8469(5)
C2_7 C 0.0241(6) 0.4428(5) 0.8698(5)
H75_7 H 0.0560142 0.465006 0.871295
H77_7 H 0.0115362 0.435423 0.90387
H76_7 H 0.995038 0.459754 0.851083
H76_8 H 0.00496187 0.540246 0.351083
O1_8 O 0.9302(4) 0.6229(4) 0.3647(4)
O2_8 O 0.9850(4) 0.6103(3) 0.3113(4)
C1_8 C 0.9627(6) 0.6004(5) 0.3469(5)
C2_8 C 0.9759(6) 0.5572(5) 0.3698(5)
H75_8 H 0.943986 0.534994 0.371295
H77_8 H 0.988464 0.564577 0.40387
O3 O 0.7064(4) 0.9156(4) 0.4990(4)
C3 C 0.7201(8) 0.9430(6) 0.5319(6)
C4 C 0.7616(7) 0.9772(5) 0.5162(6)
O4 O 0.7181(15) 0.9389(12) 0.5753(6)
H72 H 0.748069 0.998069 0.488485
H73 H 0.771864 0.999176 0.544271
H74 H 0.793412 0.957879 0.505045
C3_2 C 0.2799(8) 0.0570(6) 0.0319(6)
C4_2 C 0.2384(7) 0.0228(5) 0.0162(6)
O4_2 O 0.2819(15) 0.0611(12) 0.0753(6)
H73_2 H 0.228136 0.00082428 0.0442715
H74_2 H 0.206588 0.0421213 0.00504462
O3_2 O 0.2936(4) 0.0844(4) 0.9990(4)
H72_2 H 0.251931 0.00193063 0.988485
O3_3 O 0.7064(4) 0.0844(4) 0.5010(4)
C3_3 C 0.7201(8) 0.0570(6) 0.4681(6)
C4_3 C 0.7616(7) 0.0228(5) 0.4838(6)
O4_3 O 0.7181(15) 0.0611(12) 0.4247(6)
H72_3 H 0.748069 0.00193063 0.511515
H73_3 H 0.771864 0.00082428 0.455729
H74_3 H 0.793412 0.0421213 0.494955
O3_4 O 0.2936(4) 0.9156(4) 0.0010(4)
H72_4 H 0.251931 0.998069 0.011515
C3_4 C 0.2799(8) 0.9430(6) 0.9681(6)
C4_4 C 0.2384(7) 0.9772(5) 0.9838(6)
O4_4 O 0.2819(15) 0.9389(12) 0.9247(6)
H73_4 H 0.228136 0.999176 0.955729
H74_4 H 0.206588 0.957879 0.994955
O3_5 O 0.2064(4) 0.4156(4) 0.4990(4)
C3_5 C 0.2201(8) 0.4430(6) 0.5319(6)
C4_5 C 0.2616(7) 0.4772(5) 0.5162(6)
O4_5 O 0.2181(15) 0.4389(12) 0.5753(6)
H72_5 H 0.248069 0.498069 0.488485
H73_5 H 0.271864 0.499176 0.544271
H74_5 H 0.293412 0.457879 0.505045
C3_6 C 0.7799(8) 0.5570(6) 0.0319(6)
C4_6 C 0.7384(7) 0.5228(5) 0.0162(6)
O4_6 O 0.7819(15) 0.5611(12) 0.0753(6)
H73_6 H 0.728136 0.500824 0.0442715
H74_6 H 0.706588 0.542121 0.00504462
O3_6 O 0.7936(4) 0.5844(4) 0.9990(4)
H72_6 H 0.751931 0.501931 0.988485
O3_7 O 0.2064(4) 0.5844(4) 0.5010(4)
C3_7 C 0.2201(8) 0.5570(6) 0.4681(6)
C4_7 C 0.2616(7) 0.5228(5) 0.4838(6)
O4_7 O 0.2181(15) 0.5611(12) 0.4247(6)
H72_7 H 0.248069 0.501931 0.511515
H73_7 H 0.271864 0.500824 0.455729
H74_7 H 0.293412 0.542121 0.494955
O3_8 O 0.7936(4) 0.4156(4) 0.0010(4)
H72_8 H 0.751931 0.498069 0.011515
C3_8 C 0.7799(8) 0.4430(6) 0.9681(6)
C4_8 C 0.7384(7) 0.4772(5) 0.9838(6)
O4_8 O 0.7819(15) 0.4389(12) 0.9247(6)
H73_8 H 0.728136 0.499176 0.955729
H74_8 H 0.706588 0.457879 0.994955
Ti1 Ti 0.80229(5) 0.19687(5) 0.24757(4)
Ti2 Ti 0.73201(8) 0.20978(6) 0.13188(5)
Ti3 Ti 0.72300(6) 0.27810(5) 0.01311(4)
P1 P 0.76835(16) 0.11124(11) 0.18954(9)
P2 P 0.62871(15) 0.24222(15) 0.06871(10)
O7 O 0.7241(3) 0.0798(2) 0.1987(2)
O8 O 0.8129(3) 0.0764(2) 0.18256(18)
O9 O 0.7836(3) 0.1370(3) 0.2334(2)
O10 O 0.7552(3) 0.1370(2) 0.14908(19)
O13 O 0.2528(3) 0.2352(2) 0.23531(19)
O14 O 0.2963(3) 0.2192(2) 0.29513(19)
O15 O 0.5956(3) 0.2867(3) 0.0775(2)
O16 O 0.5916(3) 0.2012(3) 0.0592(2)
O17 O 0.6589(3) 0.2564(3) 0.0279(2)
O18 O 0.6561(3) 0.2240(3) 0.11005(19)
O21 O 0.8353(3) 0.1877(3) 0.30796(18)
C12 C 0.6664(6) 0.0767(5) 0.2816(5)
C15 C 0.7543(3) 0.0069(4) 0.2126(2)
C16 C 0.7243(4) 0.0425(3) 0.2267(3)
C17 C 0.6996(4) 0.0393(3) 0.2676(3)
C18 C 0.7050(4) 0.0007(4) 0.2943(2)
C19 C 0.6362(7) 0.0639(4) 0.3223(5)
H6 H 0.6140 0.0884 0.3293
H7 H 0.6575 0.0587 0.3476
H8 H 0.6180 0.0367 0.3160
C20 C 0.6907(8) 0.1197(6) 0.2968(7)
H9 H 0.7117 0.1308 0.2732
H10 H 0.7099 0.1136 0.3233
H11 H 0.6663 0.1422 0.3036
C21 C 0.6299(8) 0.0951(10) 0.2493(7)
H12 H 0.6463 0.1055 0.2226
H13 H 0.6127 0.1201 0.2630
H14 H 0.6071 0.0715 0.2415
C23 C 0.7762(3) 0.0064(3) 0.1645(2)
C27 C 0.8345(3) 0.0368(3) 0.1117(3)
C28 C 0.8091(3) 0.0403(3) 0.1521(2)
C29 C 0.8760(5) 0.0699(4) 0.1025(4)
C30 C 0.9140(5) 0.0688(5) 0.1409(6)
H19 H 0.9402 0.0895 0.1340
H20 H 0.9267 0.0384 0.1440
H21 H 0.8987 0.0780 0.1686
C31 C 0.9034(7) 0.0560(4) 0.0588(6)
H22 H 0.8808 0.0558 0.0339
H23 H 0.9171 0.0260 0.0624
H24 H 0.9291 0.0775 0.0529
C32 C 0.8604(5) 0.1202(6) 0.0993(3)
H25 H 0.8372 0.1237 0.0754
H26 H 0.8886 0.1388 0.0934
H27 H 0.8458 0.1294 0.1273
C41 C 0.2924(5) 0.2310(5) 0.2549(4)
C42 C 0.3385(3) 0.2457(3) 0.2308(3)
C43 C 0.3347(3) 0.2677(3) 0.1893(3)
H35 H 0.3044 0.2777 0.1791
C44 C 0.3762(4) 0.2746(3) 0.1632(2)
H36 H 0.3737 0.2893 0.1355
C45 C 0.4215(3) 0.2596(3) 0.1785(2)
C46 C 0.4253(3) 0.2377(2) 0.2199(2)
H37 H 0.4556 0.2277 0.2301
C47 C 0.3838(3) 0.2308(2) 0.24604(19)
H38 H 0.3863 0.2161 0.2738
C48 C 0.5816(6) 0.3386(5) 0.1592(4)
C49 C 0.4671(3) 0.2663(3) 0.1498(3)
C50 C 0.4757(3) 0.2447(3) 0.1088(3)
C51 C 0.5188(4) 0.2530(3) 0.0854(2)
C52 C 0.5534(3) 0.2829(3) 0.1030(2)
C53 C 0.5448(3) 0.3045(3) 0.1440(2)
C54 C 0.5017(3) 0.2962(3) 0.16740(19)
H39 H 0.4959 0.3106 0.1948
C55 C 0.5885(6) 0.3754(5) 0.1247(6)
H40 H 0.5574 0.3885 0.1172
H41 H 0.6031 0.3626 0.0981
H42 H 0.6096 0.3986 0.1367
C56 C 0.6317(6) 0.3209(4) 0.1698(4)
H43 H 0.6524 0.3459 0.1786
H44 H 0.6451 0.3063 0.1436
H45 H 0.6297 0.2993 0.1941
C57 C 0.5669(5) 0.3581(4) 0.2032(4)
H46 H 0.5354 0.3723 0.2004
H47 H 0.5906 0.3804 0.2125
H48 H 0.5652 0.3341 0.2253
C58 C 0.4344(5) 0.2102(5) 0.0959(4)
H49 H 0.4421 0.1962 0.0675
H50 H 0.4038 0.2260 0.0935
H51 H 0.4320 0.1870 0.1187
C59 C 0.5194(3) 0.2384(3) 0.0359(2)
C60 C 0.4838(3) 0.2493(3) 0.0042(3)
C64 C 0.5566(3) 0.2079(3) 0.0249(3)
H59 H 0.5701 0.0989 0.0092
H60 H 0.6148 0.1280 0.0254
C69 C 0.4481(5) 0.2924(4) 0.0162(4)
H63 H 0.4674 0.3196 0.0195
H64 H 0.4310 0.2864 0.0439
Ti4 Ti 0.19771(5) 0.19687(5) 0.25243(4)
Ti7 Ti 0.26799(8) 0.20978(6) 0.36812(5)
O24 O 0.7379(4) 0.3322(2) 0.0474(2)
O25 O 0.7476(3) 0.2818(3) 0.1021(2)
O27 O 0.7528(3) 0.1846(2) 0.05913(17)
O28 O 0.7472(3) 0.2352(2) 0.26469(19)
O29 O 0.7037(3) 0.2192(2) 0.20487(19)
O30 O 0.8667(3) 0.2175(4) 0.2180(3)
O31 O 0.8061(3) 0.2272(3) 0.1696(2)
H78 H 0.863408 0.166526 0.304382
H79 H 0.84717 0.217561 0.319471
O19 O 0.3667(3) 0.2825(4) 0.7820(3)
O20 O 0.3061(3) 0.2728(3) 0.8304(2)
C61 C 0.4854(3) 0.2297(3) 0.9615(2)
C62 C 0.5225(4) 0.1993(3) 0.9505(2)
H52 H 0.5236 0.1862 0.9219
C63 C 0.5581(3) 0.1884(3) 0.9822(3)
C65 C 0.5881(6) 0.1492(5) 0.9645(6)
C66 C 0.5771(10) 0.1126(8) 0.9310(7)
H53 H 0.5461 0.0989 0.9381
H54 H 0.6022 0.0898 0.9321
H55 H 0.5758 0.1256 0.9013
C67 C 0.6381(8) 0.1724(7) 0.9547(7)
H56 H 0.6333 0.1976 0.9344
H57 H 0.6598 0.1505 0.9411
H58 H 0.6520 0.1832 0.9824
C68 C 0.5997(9) 0.1136(7) 0.9999(7)
H61 H 0.6216 0.0913 0.9874
H62 H 0.4248 0.2966 0.9923
C70 C 0.4537(3) 0.2404(3) 0.9239(3)
C71 C 0.4708(3) 0.2538(4) 0.8819(4)
H65 H 0.5043 0.2554 0.8765
C72 C 0.4380(4) 0.2647(3) 0.8478(2)
H66 H 0.4495 0.2737 0.8196
C73 C 0.3880(3) 0.2622(3) 0.8557(2)
C74 C 0.3708(3) 0.2488(3) 0.8978(3)
H67 H 0.3373 0.2472 0.9031
C75 C 0.4036(4) 0.2379(3) 0.9319(2)
H68 H 0.3921 0.2289 0.9601
C76 C 0.3490(6) 0.2725(6) 0.8215(4)
O22 O 0.7046(4) 0.3083(3) 0.9562(2)
O23 O 0.6921(5) 0.3347(4) 0.8910(3)
C77 C 0.7183(6) 0.3106(5) 0.9154(5)
C78 C 0.7600(6) 0.2788(5) 0.8993(5)
H69 H 0.7664 0.2843 0.8679
H70 H 0.7505 0.2476 0.9034
H71 H 0.7891 0.2850 0.9164
Ti5 Ti 0.30229(5) 0.30313(5) 0.75243(4)
Ti8 Ti 0.23201(8) 0.29022(6) 0.86812(5)
O26 O 0.7665(3) 0.2298(2) 0.9987(2)
O5 O 0.7621(4) 0.8322(2) 0.4526(2)
O6 O 0.7524(3) 0.7818(3) 0.3979(2)
O11 O 0.7665(3) 0.7702(2) 0.0013(2)
C5 C 0.7531(5) 0.8221(5) 0.4111(4)
C6 C 0.7474(3) 0.8589(2) 0.3785(2)
C7 C 0.7360(3) 0.8485(2) 0.3340(3)
H1 H 0.7296 0.8185 0.3257
C8 C 0.7342(3) 0.8831(3) 0.30188(18)
H2 H 0.7265 0.8761 0.2721
C9 C 0.7437(3) 0.9280(3) 0.3143(3)
C10 C 0.7550(3) 0.9384(2) 0.3588(3)
H3 H 0.7614 0.9684 0.3671
C11 C 0.7569(3) 0.9039(3) 0.39090(19)
H4 H 0.7645 0.9108 0.4207
C13 C 0.7351(4) 0.9651(3) 0.2802(3)
C14 C 0.7597(4) 0.9683(3) 0.2394(3)
H5 H 0.6885 0.9986 0.3217
C22 C 0.8008(6) 0.9364(4) 0.2317(3)
H15 H 0.7988 0.9116 0.2528
H16 H 0.8312 0.9523 0.2356
H17 H 0.7990 0.9246 0.2015
C24 C 0.7687(3) 0.9690(3) 0.1365(3)
C25 C 0.7941(3) 0.9655(2) 0.0961(3)
C26 C 0.8270(3) 0.9994(3) 0.0837(2)
H18 H 0.8441 0.9971 0.0566
C33 C 0.7270(6) 0.9355(4) 0.1445(3)
H28 H 0.7124 0.9416 0.1733
H29 H 0.7395 0.9049 0.1441
H30 H 0.7029 0.9390 0.1213
C34 C 0.7859(3) 0.9253(2) 0.0654(3)
C35 C 0.7661(3) 0.9301(2) 0.0224(3)
H31 H 0.7564 0.9587 0.0122
C37 C 0.7755(3) 0.8493(2) 0.0101(2)
C38 C 0.7953(3) 0.8445(2) 0.0530(2)
H33 H 0.8051 0.8159 0.0632
C39 C 0.8005(3) 0.8826(3) 0.08063(18)
H34 H 0.8137 0.8794 0.1093
Ti9 Ti 0.76799(8) 0.70978(6) 0.36812(5)
Ti11 Ti 0.77700(6) 0.77810(5) 0.48689(4)
O12 O 0.7528(3) 0.8154(2) 0.94087(17)
C36 C 0.7609(3) 0.8920(3) 0.99480(19)
H32 H 0.7477 0.8952 0.9661
C40 C 0.7652(4) 0.8076(4) 0.9824(3)
Ti6 Ti 0.73201(8) 0.79022(6) 0.86812(5)
Ti10 Ti 0.72300(6) 0.72190(5) 0.98689(4)
O5_2 O 0.2379(4) 0.1678(2) 0.9526(2)
O6_2 O 0.2476(3) 0.2182(3) 0.8979(2)
O11_2 O 0.2335(3) 0.2298(2) 0.5013(2)
O12_2 O 0.2472(3) 0.1846(2) 0.44087(17)
C5_2 C 0.2469(5) 0.1779(5) 0.9111(4)
C6_2 C 0.2526(3) 0.1411(2) 0.8785(2)
C7_2 C 0.2640(3) 0.1515(2) 0.8340(3)
H1_2 H 0.2704 0.1815 0.8257
C8_2 C 0.2658(3) 0.1169(3) 0.80188(18)
H2_2 H 0.2735 0.1239 0.7721
C9_2 C 0.2563(3) 0.0720(3) 0.8143(3)
C10_2 C 0.2450(3) 0.0616(2) 0.8588(3)
H3_2 H 0.2386 0.0316 0.8671
C11_2 C 0.2431(3) 0.0961(3) 0.89090(19)
H4_2 H 0.2355 0.0892 0.9207
C13_2 C 0.2649(4) 0.0349(3) 0.7802(3)
C14_2 C 0.2403(4) 0.0317(3) 0.7394(3)
H5_2 H 0.3115 0.0014 0.8217
C22_2 C 0.1992(6) 0.0636(4) 0.7317(3)
H15_2 H 0.2012 0.0884 0.7528
H16_2 H 0.1688 0.0477 0.7356
H17_2 H 0.2010 0.0754 0.7015
C24_2 C 0.2313(3) 0.0310(3) 0.6365(3)
C25_2 C 0.2059(3) 0.0345(2) 0.5961(3)
C26_2 C 0.1730(3) 0.0006(3) 0.5837(2)
H18_2 H 0.1559 0.0029 0.5566
C33_2 C 0.2730(6) 0.0645(4) 0.6445(3)
H28_2 H 0.2876 0.0584 0.6733
H29_2 H 0.2605 0.0951 0.6441
H30_2 H 0.2971 0.0610 0.6213
C34_2 C 0.2141(3) 0.0747(2) 0.5654(3)
C35_2 C 0.2339(3) 0.0699(2) 0.5224(3)
H31_2 H 0.2436 0.0413 0.5122
C36_2 C 0.2391(3) 0.1080(3) 0.49480(19)
H32_2 H 0.2523 0.1048 0.4661
C37_2 C 0.2245(3) 0.1507(2) 0.5101(2)
C38_2 C 0.2047(3) 0.1555(2) 0.5530(2)
H33_2 H 0.1949 0.1841 0.5632
C39_2 C 0.1995(3) 0.1174(3) 0.58063(18)
H34_2 H 0.1863 0.1206 0.6093
C40_2 C 0.2348(4) 0.1924(4) 0.4824(3)
Ti10_2 Ti 0.27700(6) 0.27810(5) 0.48689(4)
Ti11_2 Ti 0.22300(6) 0.22190(5) 0.98689(4)
Ti1_2 Ti 0.19771(5) 0.80313(5) 0.74757(4)
Ti2_2 Ti 0.26799(8) 0.79022(6) 0.63188(5)
Ti3_2 Ti 0.27700(6) 0.72190(5) 0.51311(4)
P1_2 P 0.23165(16) 0.88876(11) 0.68954(9)
P2_2 P 0.37129(15) 0.75778(15) 0.56871(10)
O7_2 O 0.2759(3) 0.9202(2) 0.6987(2)
O8_2 O 0.1871(3) 0.9236(2) 0.68256(18)
O9_2 O 0.2164(3) 0.8630(3) 0.7334(2)
O10_2 O 0.2448(3) 0.8630(2) 0.64908(19)
O13_2 O 0.7472(3) 0.7648(2) 0.73531(19)
O14_2 O 0.7037(3) 0.7808(2) 0.79513(19)
O15_2 O 0.4044(3) 0.7133(3) 0.5775(2)
O16_2 O 0.4084(3) 0.7988(3) 0.5592(2)
O17_2 O 0.3411(3) 0.7436(3) 0.5279(2)
O18_2 O 0.3439(3) 0.7760(3) 0.61005(19)
O19_2 O 0.6333(3) 0.7175(4) 0.2820(3)
O20_2 O 0.6939(3) 0.7272(3) 0.3304(2)
O21_2 O 0.1647(3) 0.8123(3) 0.80796(18)
C12_2 C 0.3336(6) 0.9233(5) 0.7816(5)
C15_2 C 0.2457(3) 0.9931(4) 0.7126(2)
C16_2 C 0.2757(4) 0.9575(3) 0.7267(3)
C17_2 C 0.3004(4) 0.9607(3) 0.7676(3)
C18_2 C 0.2950(4) 0.9993(4) 0.7943(2)
C19_2 C 0.3638(7) 0.9361(4) 0.8223(5)
H6_2 H 0.3860 0.9116 0.8293
H7_2 H 0.3425 0.9413 0.8476
H8_2 H 0.3820 0.9633 0.8160
C20_2 C 0.3093(8) 0.8803(6) 0.7968(7)
H9_2 H 0.2883 0.8692 0.7732
H10_2 H 0.2901 0.8864 0.8233
H11_2 H 0.3337 0.8578 0.8036
C21_2 C 0.3701(8) 0.9049(10) 0.7493(7)
H12_2 H 0.3537 0.8945 0.7226
H13_2 H 0.3873 0.8799 0.7630
H14_2 H 0.3929 0.9285 0.7415
C23_2 C 0.2238(3) 0.9936(3) 0.6645(2)
C27_2 C 0.1655(3) 0.9632(3) 0.6117(3)
C28_2 C 0.1909(3) 0.9597(3) 0.6521(2)
C29_2 C 0.1240(5) 0.9301(4) 0.6025(4)
C30_2 C 0.0860(5) 0.9312(5) 0.6409(6)
H19_2 H 0.0598 0.9105 0.6340
H20_2 H 0.0733 0.9616 0.6440
H21_2 H 0.1013 0.9220 0.6686
C31_2 C 0.0966(7) 0.9440(4) 0.5588(6)
H22_2 H 0.1192 0.9442 0.5339
H23_2 H 0.0829 0.9740 0.5624
H24_2 H 0.0709 0.9225 0.5529
C32_2 C 0.1396(5) 0.8798(6) 0.5993(3)
H25_2 H 0.1628 0.8763 0.5754
H26_2 H 0.1114 0.8612 0.5934
H27_2 H 0.1542 0.8706 0.6273
C41_2 C 0.7076(5) 0.7690(5) 0.7549(4)
C42_2 C 0.6615(3) 0.7543(3) 0.7308(3)
C43_2 C 0.6653(3) 0.7323(3) 0.6893(3)
H35_2 H 0.6956 0.7223 0.6791
C44_2 C 0.6238(4) 0.7254(3) 0.6632(2)
H36_2 H 0.6263 0.7107 0.6355
C45_2 C 0.5785(3) 0.7404(3) 0.6785(2)
C46_2 C 0.5747(3) 0.7623(2) 0.7199(2)
H37_2 H 0.5444 0.7723 0.7301
C47_2 C 0.6162(3) 0.7692(2) 0.74604(19)
H38_2 H 0.6137 0.7839 0.7738
C48_2 C 0.4184(6) 0.6614(5) 0.6592(4)
C49_2 C 0.5329(3) 0.7337(3) 0.6498(3)
C50_2 C 0.5243(3) 0.7553(3) 0.6088(3)
C51_2 C 0.4812(4) 0.7470(3) 0.5854(2)
C52_2 C 0.4466(3) 0.7171(3) 0.6030(2)
C53_2 C 0.4552(3) 0.6955(3) 0.6440(2)
C54_2 C 0.4983(3) 0.7038(3) 0.66740(19)
H39_2 H 0.5041 0.6894 0.6948
C55_2 C 0.4115(6) 0.6246(5) 0.6247(6)
H40_2 H 0.4426 0.6115 0.6172
H41_2 H 0.3969 0.6374 0.5981
H42_2 H 0.3904 0.6014 0.6367
C56_2 C 0.3683(6) 0.6791(4) 0.6698(4)
H43_2 H 0.3476 0.6541 0.6786
H44_2 H 0.3549 0.6937 0.6436
H45_2 H 0.3703 0.7007 0.6941
C57_2 C 0.4331(5) 0.6419(4) 0.7032(4)
H46_2 H 0.4646 0.6277 0.7004
H47_2 H 0.4094 0.6196 0.7125
H48_2 H 0.4348 0.6659 0.7253
C58_2 C 0.5656(5) 0.7898(5) 0.5959(4)
H49_2 H 0.5579 0.8038 0.5675
H50_2 H 0.5962 0.7740 0.5935
H51_2 H 0.5680 0.8130 0.6187
C59_2 C 0.4806(3) 0.7616(3) 0.5359(2)
C60_2 C 0.5162(3) 0.7507(3) 0.5042(3)
C61_2 C 0.5146(3) 0.7703(3) 0.4615(2)
C62_2 C 0.4775(4) 0.8007(3) 0.4505(2)
H52_2 H 0.4764 0.8138 0.4219
C63_2 C 0.4419(3) 0.8116(3) 0.4822(3)
C64_2 C 0.4434(3) 0.7921(3) 0.5249(3)
C65_2 C 0.4119(6) 0.8508(5) 0.4645(6)
C66_2 C 0.4229(10) 0.8874(8) 0.4310(7)
H53_2 H 0.4539 0.9011 0.4381
H54_2 H 0.3978 0.9102 0.4321
H55_2 H 0.4242 0.8744 0.4013
C67_2 C 0.3619(8) 0.8276(7) 0.4547(7)
H56_2 H 0.3667 0.8024 0.4344
H57_2 H 0.3402 0.8495 0.4411
H58_2 H 0.3480 0.8168 0.4824
C68_2 C 0.4003(9) 0.8864(7) 0.4999(7)
H59_2 H 0.4299 0.9011 0.5092
H60_2 H 0.3852 0.8720 0.5254
H61_2 H 0.3784 0.9087 0.4874
C69_2 C 0.5519(5) 0.7076(4) 0.5162(4)
H62_2 H 0.5752 0.7034 0.4923
H63_2 H 0.5326 0.6804 0.5195
H64_2 H 0.5690 0.7136 0.5439
C70_2 C 0.5463(3) 0.7596(3) 0.4239(3)
C71_2 C 0.5292(3) 0.7462(4) 0.3819(4)
H65_2 H 0.4957 0.7446 0.3765
C72_2 C 0.5620(4) 0.7353(3) 0.3478(2)
H66_2 H 0.5505 0.7263 0.3196
C73_2 C 0.6120(3) 0.7378(3) 0.3557(2)
C74_2 C 0.6292(3) 0.7512(3) 0.3978(3)
H67_2 H 0.6627 0.7528 0.4031
C75_2 C 0.5964(4) 0.7621(3) 0.4319(2)
H68_2 H 0.6079 0.7711 0.4601
C76_2 C 0.6510(6) 0.7275(6) 0.3215(4)
O22_2 O 0.2954(4) 0.6917(3) 0.4562(2)
O23_2 O 0.3079(5) 0.6653(4) 0.3910(3)
C77_2 C 0.2817(6) 0.6894(5) 0.4154(5)
C78_2 C 0.2400(6) 0.7212(5) 0.3993(5)
H69_2 H 0.2336 0.7157 0.3679
H70_2 H 0.2495 0.7524 0.4034
H71_2 H 0.2109 0.7150 0.4164
Ti4_2 Ti 0.80229(5) 0.80313(5) 0.75243(4)
Ti5_2 Ti 0.69771(5) 0.69687(5) 0.25243(4)
O24_2 O 0.2621(4) 0.6678(2) 0.5474(2)
O25_2 O 0.2524(3) 0.7182(3) 0.6021(2)
O26_2 O 0.2335(3) 0.7702(2) 0.4987(2)
O27_2 O 0.2472(3) 0.8154(2) 0.55913(17)
O28_2 O 0.2528(3) 0.7648(2) 0.76469(19)
O29_2 O 0.2963(3) 0.7808(2) 0.70487(19)
O30_2 O 0.1333(3) 0.7825(4) 0.7180(3)
O31_2 O 0.1939(3) 0.7728(3) 0.6696(2)
H78_2 H 0.136592 0.833474 0.804382
H79_2 H 0.15283 0.782439 0.819471
C36_3 C 0.7609(3) 0.1080(3) 0.00520(19)
H32_3 H 0.7477 0.1048 0.0339
C40_3 C 0.7652(4) 0.1924(4) 0.0176(3)
O5_3 O 0.7621(4) 0.1678(2) 0.5474(2)
O6_3 O 0.7524(3) 0.2182(3) 0.6021(2)
C5_3 C 0.7531(5) 0.1779(5) 0.5889(4)
C6_3 C 0.7474(3) 0.1411(2) 0.6215(2)
C7_3 C 0.7360(3) 0.1515(2) 0.6660(3)
H1_3 H 0.7296 0.1815 0.6743
C8_3 C 0.7342(3) 0.1169(3) 0.69812(18)
H2_3 H 0.7265 0.1239 0.7279
C9_3 C 0.7437(3) 0.0720(3) 0.6857(3)
C10_3 C 0.7550(3) 0.0616(2) 0.6412(3)
H3_3 H 0.7614 0.0316 0.6329
C11_3 C 0.7569(3) 0.0961(3) 0.60910(19)
H4_3 H 0.7645 0.0892 0.5793
C13_3 C 0.7351(4) 0.0349(3) 0.7198(3)
C14_3 C 0.7597(4) 0.0317(3) 0.7606(3)
H5_3 H 0.6885 0.0014 0.6783
C22_3 C 0.8008(6) 0.0636(4) 0.7683(3)
H15_3 H 0.7988 0.0884 0.7472
H16_3 H 0.8312 0.0477 0.7644
H17_3 H 0.7990 0.0754 0.7985
C24_3 C 0.7687(3) 0.0310(3) 0.8635(3)
C25_3 C 0.7941(3) 0.0345(2) 0.9039(3)
C26_3 C 0.8270(3) 0.0006(3) 0.9163(2)
H18_3 H 0.8441 0.0029 0.9434
C33_3 C 0.7270(6) 0.0645(4) 0.8555(3)
H28_3 H 0.7124 0.0584 0.8267
H29_3 H 0.7395 0.0951 0.8559
H30_3 H 0.7029 0.0610 0.8787
C34_3 C 0.7859(3) 0.0747(2) 0.9346(3)
C35_3 C 0.7661(3) 0.0699(2) 0.9776(3)
H31_3 H 0.7564 0.0413 0.9878
C37_3 C 0.7755(3) 0.1507(2) 0.9899(2)
C38_3 C 0.7953(3) 0.1555(2) 0.9470(2)
H33_3 H 0.8051 0.1841 0.9368
C39_3 C 0.8005(3) 0.1174(3) 0.91937(18)
H34_3 H 0.8137 0.1206 0.8907
Ti9_2 Ti 0.76799(8) 0.29022(6) 0.63188(5)
Ti11_3 Ti 0.77700(6) 0.22190(5) 0.51311(4)
O19_3 O 0.3667(3) 0.7175(4) 0.2180(3)
O20_3 O 0.3061(3) 0.7272(3) 0.1696(2)
C61_3 C 0.4854(3) 0.7703(3) 0.0385(2)
C62_3 C 0.5225(4) 0.8007(3) 0.0495(2)
H52_3 H 0.5236 0.8138 0.0781
C63_3 C 0.5581(3) 0.8116(3) 0.0178(3)
C65_3 C 0.5881(6) 0.8508(5) 0.0355(6)
C66_3 C 0.5771(10) 0.8874(8) 0.0690(7)
H53_3 H 0.5461 0.9011 0.0619
H54_3 H 0.6022 0.9102 0.0679
H55_3 H 0.5758 0.8744 0.0987
C67_3 C 0.6381(8) 0.8276(7) 0.0453(7)
H56_3 H 0.6333 0.8024 0.0656
H57_3 H 0.6598 0.8495 0.0589
H58_3 H 0.6520 0.8168 0.0176
C68_3 C 0.5997(9) 0.8864(7) 0.0001(7)
H61_3 H 0.6216 0.9087 0.0126
H62_3 H 0.4248 0.7034 0.0077
C70_3 C 0.4537(3) 0.7596(3) 0.0761(3)
C71_3 C 0.4708(3) 0.7462(4) 0.1181(4)
H65_3 H 0.5043 0.7446 0.1235
C72_3 C 0.4380(4) 0.7353(3) 0.1522(2)
H66_3 H 0.4495 0.7263 0.1804
C73_3 C 0.3880(3) 0.7378(3) 0.1443(2)
C74_3 C 0.3708(3) 0.7512(3) 0.1022(3)
H67_3 H 0.3373 0.7528 0.0969
C75_3 C 0.4036(4) 0.7621(3) 0.0681(2)
H68_3 H 0.3921 0.7711 0.0399
C76_3 C 0.3490(6) 0.7275(6) 0.1785(4)
O22_3 O 0.7046(4) 0.6917(3) 0.0438(2)
O23_3 O 0.6921(5) 0.6653(4) 0.1090(3)
C77_3 C 0.7183(6) 0.6894(5) 0.0846(5)
C78_3 C 0.7600(6) 0.7212(5) 0.1007(5)
H69_3 H 0.7664 0.7157 0.1321
H70_3 H 0.7505 0.7524 0.0966
H71_3 H 0.7891 0.7150 0.0836
Ti5_3 Ti 0.30229(5) 0.69687(5) 0.24757(4)
Ti8_2 Ti 0.23201(8) 0.70978(6) 0.13188(5)
P1_3 P 0.76835(16) 0.88876(11) 0.81046(9)
P2_3 P 0.62871(15) 0.75778(15) 0.93129(10)
O7_3 O 0.7241(3) 0.9202(2) 0.8013(2)
O8_3 O 0.8129(3) 0.9236(2) 0.81744(18)
O9_3 O 0.7836(3) 0.8630(3) 0.7666(2)
O10_3 O 0.7552(3) 0.8630(2) 0.85092(19)
O15_3 O 0.5956(3) 0.7133(3) 0.9225(2)
O16_3 O 0.5916(3) 0.7988(3) 0.9408(2)
O17_3 O 0.6589(3) 0.7436(3) 0.9721(2)
O18_3 O 0.6561(3) 0.7760(3) 0.88995(19)
O21_3 O 0.8353(3) 0.8123(3) 0.69204(18)
C12_3 C 0.6664(6) 0.9233(5) 0.7184(5)
C15_3 C 0.7543(3) 0.9931(4) 0.7874(2)
C16_3 C 0.7243(4) 0.9575(3) 0.7733(3)
C17_3 C 0.6996(4) 0.9607(3) 0.7324(3)
C18_3 C 0.7050(4) 0.9993(4) 0.7057(2)
C19_3 C 0.6362(7) 0.9361(4) 0.6777(5)
H6_3 H 0.6140 0.9116 0.6707
H7_3 H 0.6575 0.9413 0.6524
H8_3 H 0.6180 0.9633 0.6840
C20_3 C 0.6907(8) 0.8803(6) 0.7032(7)
H9_3 H 0.7117 0.8692 0.7268
H10_3 H 0.7099 0.8864 0.6767
H11_3 H 0.6663 0.8578 0.6964
C21_3 C 0.6299(8) 0.9049(10) 0.7507(7)
H12_3 H 0.6463 0.8945 0.7774
H13_3 H 0.6127 0.8799 0.7370
H14_3 H 0.6071 0.9285 0.7585
C23_3 C 0.7762(3) 0.9936(3) 0.8355(2)
C27_3 C 0.8345(3) 0.9632(3) 0.8883(3)
C28_3 C 0.8091(3) 0.9597(3) 0.8479(2)
C29_3 C 0.8760(5) 0.9301(4) 0.8975(4)
C30_3 C 0.9140(5) 0.9312(5) 0.8591(6)
H19_3 H 0.9402 0.9105 0.8660
H20_3 H 0.9267 0.9616 0.8560
H21_3 H 0.8987 0.9220 0.8314
C31_3 C 0.9034(7) 0.9440(4) 0.9412(6)
H22_3 H 0.8808 0.9442 0.9661
H23_3 H 0.9171 0.9740 0.9376
H24_3 H 0.9291 0.9225 0.9471
C32_3 C 0.8604(5) 0.8798(6) 0.9007(3)
H25_3 H 0.8372 0.8763 0.9246
H26_3 H 0.8886 0.8612 0.9066
H27_3 H 0.8458 0.8706 0.8727
C41_3 C 0.2924(5) 0.7690(5) 0.7451(4)
C42_3 C 0.3385(3) 0.7543(3) 0.7692(3)
C43_3 C 0.3347(3) 0.7323(3) 0.8107(3)
H35_3 H 0.3044 0.7223 0.8209
C44_3 C 0.3762(4) 0.7254(3) 0.8368(2)
H36_3 H 0.3737 0.7107 0.8645
C45_3 C 0.4215(3) 0.7404(3) 0.8215(2)
C46_3 C 0.4253(3) 0.7623(2) 0.7801(2)
H37_3 H 0.4556 0.7723 0.7699
C47_3 C 0.3838(3) 0.7692(2) 0.75396(19)
H38_3 H 0.3863 0.7839 0.7262
C48_3 C 0.5816(6) 0.6614(5) 0.8408(4)
C49_3 C 0.4671(3) 0.7337(3) 0.8502(3)
C50_3 C 0.4757(3) 0.7553(3) 0.8912(3)
C51_3 C 0.5188(4) 0.7470(3) 0.9146(2)
C52_3 C 0.5534(3) 0.7171(3) 0.8970(2)
C53_3 C 0.5448(3) 0.6955(3) 0.8560(2)
C54_3 C 0.5017(3) 0.7038(3) 0.83260(19)
H39_3 H 0.4959 0.6894 0.8052
C55_3 C 0.5885(6) 0.6246(5) 0.8753(6)
H40_3 H 0.5574 0.6115 0.8828
H41_3 H 0.6031 0.6374 0.9019
H42_3 H 0.6096 0.6014 0.8633
C56_3 C 0.6317(6) 0.6791(4) 0.8302(4)
H43_3 H 0.6524 0.6541 0.8214
H44_3 H 0.6451 0.6937 0.8564
H45_3 H 0.6297 0.7007 0.8059
C57_3 C 0.5669(5) 0.6419(4) 0.7968(4)
H46_3 H 0.5354 0.6277 0.7996
H47_3 H 0.5906 0.6196 0.7875
H48_3 H 0.5652 0.6659 0.7747
C58_3 C 0.4344(5) 0.7898(5) 0.9041(4)
H49_3 H 0.4421 0.8038 0.9325
H50_3 H 0.4038 0.7740 0.9065
H51_3 H 0.4320 0.8130 0.8813
C59_3 C 0.5194(3) 0.7616(3) 0.9641(2)
C60_3 C 0.4838(3) 0.7507(3) 0.9958(3)
C64_3 C 0.5566(3) 0.7921(3) 0.9751(3)
H59_3 H 0.5701 0.9011 0.9908
H60_3 H 0.6148 0.8720 0.9746
C69_3 C 0.4481(5) 0.7076(4) 0.9838(4)
H63_3 H 0.4674 0.6804 0.9805
H64_3 H 0.4310 0.7136 0.9561
O24_3 O 0.7379(4) 0.6678(2) 0.9526(2)
O25_3 O 0.7476(3) 0.7182(3) 0.8979(2)
O30_3 O 0.8667(3) 0.7825(4) 0.7820(3)
O31_3 O 0.8061(3) 0.7728(3) 0.8304(2)
H78_3 H 0.863408 0.833474 0.695618
H79_3 H 0.84717 0.782439 0.680529
P1_4 P 0.23165(16) 0.11124(11) 0.31046(9)
P2_4 P 0.37129(15) 0.24222(15) 0.43129(10)
O7_4 O 0.2759(3) 0.0798(2) 0.3013(2)
O8_4 O 0.1871(3) 0.0764(2) 0.31744(18)
O9_4 O 0.2164(3) 0.1370(3) 0.2666(2)
O10_4 O 0.2448(3) 0.1370(2) 0.35092(19)
O15_4 O 0.4044(3) 0.2867(3) 0.4225(2)
O16_4 O 0.4084(3) 0.2012(3) 0.4408(2)
O17_4 O 0.3411(3) 0.2564(3) 0.4721(2)
O18_4 O 0.3439(3) 0.2240(3) 0.38995(19)
O19_4 O 0.6333(3) 0.2825(4) 0.7180(3)
O20_4 O 0.6939(3) 0.2728(3) 0.6696(2)
O21_4 O 0.1647(3) 0.1877(3) 0.19204(18)
C12_4 C 0.3336(6) 0.0767(5) 0.2184(5)
C15_4 C 0.2457(3) 0.0069(4) 0.2874(2)
C16_4 C 0.2757(4) 0.0425(3) 0.2733(3)
C17_4 C 0.3004(4) 0.0393(3) 0.2324(3)
C18_4 C 0.2950(4) 0.0007(4) 0.2057(2)
C19_4 C 0.3638(7) 0.0639(4) 0.1777(5)
H6_4 H 0.3860 0.0884 0.1707
H7_4 H 0.3425 0.0587 0.1524
H8_4 H 0.3820 0.0367 0.1840
C20_4 C 0.3093(8) 0.1197(6) 0.2032(7)
H9_4 H 0.2883 0.1308 0.2268
H10_4 H 0.2901 0.1136 0.1767
H11_4 H 0.3337 0.1422 0.1964
C21_4 C 0.3701(8) 0.0951(10) 0.2507(7)
H12_4 H 0.3537 0.1055 0.2774
H13_4 H 0.3873 0.1201 0.2370
H14_4 H 0.3929 0.0715 0.2585
C23_4 C 0.2238(3) 0.0064(3) 0.3355(2)
C27_4 C 0.1655(3) 0.0368(3) 0.3883(3)
C28_4 C 0.1909(3) 0.0403(3) 0.3479(2)
C29_4 C 0.1240(5) 0.0699(4) 0.3975(4)
C30_4 C 0.0860(5) 0.0688(5) 0.3591(6)
H19_4 H 0.0598 0.0895 0.3660
H20_4 H 0.0733 0.0384 0.3560
H21_4 H 0.1013 0.0780 0.3314
C31_4 C 0.0966(7) 0.0560(4) 0.4412(6)
H22_4 H 0.1192 0.0558 0.4661
H23_4 H 0.0829 0.0260 0.4376
H24_4 H 0.0709 0.0775 0.4471
C32_4 C 0.1396(5) 0.1202(6) 0.4007(3)
H25_4 H 0.1628 0.1237 0.4246
H26_4 H 0.1114 0.1388 0.4066
H27_4 H 0.1542 0.1294 0.3727
C41_4 C 0.7076(5) 0.2310(5) 0.2451(4)
C42_4 C 0.6615(3) 0.2457(3) 0.2692(3)
C43_4 C 0.6653(3) 0.2677(3) 0.3107(3)
H35_4 H 0.6956 0.2777 0.3209
C44_4 C 0.6238(4) 0.2746(3) 0.3368(2)
H36_4 H 0.6263 0.2893 0.3645
C45_4 C 0.5785(3) 0.2596(3) 0.3215(2)
C46_4 C 0.5747(3) 0.2377(2) 0.2801(2)
H37_4 H 0.5444 0.2277 0.2699
C47_4 C 0.6162(3) 0.2308(2) 0.25396(19)
H38_4 H 0.6137 0.2161 0.2262
C48_4 C 0.4184(6) 0.3386(5) 0.3408(4)
C49_4 C 0.5329(3) 0.2663(3) 0.3502(3)
C50_4 C 0.5243(3) 0.2447(3) 0.3912(3)
C51_4 C 0.4812(4) 0.2530(3) 0.4146(2)
C52_4 C 0.4466(3) 0.2829(3) 0.3970(2)
C53_4 C 0.4552(3) 0.3045(3) 0.3560(2)
C54_4 C 0.4983(3) 0.2962(3) 0.33260(19)
H39_4 H 0.5041 0.3106 0.3052
C55_4 C 0.4115(6) 0.3754(5) 0.3753(6)
H40_4 H 0.4426 0.3885 0.3828
H41_4 H 0.3969 0.3626 0.4019
H42_4 H 0.3904 0.3986 0.3633
C56_4 C 0.3683(6) 0.3209(4) 0.3302(4)
H43_4 H 0.3476 0.3459 0.3214
H44_4 H 0.3549 0.3063 0.3564
H45_4 H 0.3703 0.2993 0.3059
C57_4 C 0.4331(5) 0.3581(4) 0.2968(4)
H46_4 H 0.4646 0.3723 0.2996
H47_4 H 0.4094 0.3804 0.2875
H48_4 H 0.4348 0.3341 0.2747
C58_4 C 0.5656(5) 0.2102(5) 0.4041(4)
H49_4 H 0.5579 0.1962 0.4325
H50_4 H 0.5962 0.2260 0.4065
H51_4 H 0.5680 0.1870 0.3813
C59_4 C 0.4806(3) 0.2384(3) 0.4641(2)
C60_4 C 0.5162(3) 0.2493(3) 0.4958(3)
C61_4 C 0.5146(3) 0.2297(3) 0.5385(2)
C62_4 C 0.4775(4) 0.1993(3) 0.5495(2)
H52_4 H 0.4764 0.1862 0.5781
C63_4 C 0.4419(3) 0.1884(3) 0.5178(3)
C64_4 C 0.4434(3) 0.2079(3) 0.4751(3)
C65_4 C 0.4119(6) 0.1492(5) 0.5355(6)
C66_4 C 0.4229(10) 0.1126(8) 0.5690(7)
H53_4 H 0.4539 0.0989 0.5619
H54_4 H 0.3978 0.0898 0.5679
H55_4 H 0.4242 0.1256 0.5987
C67_4 C 0.3619(8) 0.1724(7) 0.5453(7)
H56_4 H 0.3667 0.1976 0.5656
H57_4 H 0.3402 0.1505 0.5589
H58_4 H 0.3480 0.1832 0.5176
C68_4 C 0.4003(9) 0.1136(7) 0.5001(7)
H59_4 H 0.4299 0.0989 0.4908
H60_4 H 0.3852 0.1280 0.4746
H61_4 H 0.3784 0.0913 0.5126
C69_4 C 0.5519(5) 0.2924(4) 0.4838(4)
H62_4 H 0.5752 0.2966 0.5077
H63_4 H 0.5326 0.3196 0.4805
H64_4 H 0.5690 0.2864 0.4561
C70_4 C 0.5463(3) 0.2404(3) 0.5761(3)
C71_4 C 0.5292(3) 0.2538(4) 0.6181(4)
H65_4 H 0.4957 0.2554 0.6235
C72_4 C 0.5620(4) 0.2647(3) 0.6522(2)
H66_4 H 0.5505 0.2737 0.6804
C73_4 C 0.6120(3) 0.2622(3) 0.6443(2)
C74_4 C 0.6292(3) 0.2488(3) 0.6022(3)
H67_4 H 0.6627 0.2472 0.5969
C75_4 C 0.5964(4) 0.2379(3) 0.5681(2)
H68_4 H 0.6079 0.2289 0.5399
C76_4 C 0.6510(6) 0.2725(6) 0.6785(4)
O22_4 O 0.2954(4) 0.3083(3) 0.5438(2)
O23_4 O 0.3079(5) 0.3347(4) 0.6090(3)
C77_4 C 0.2817(6) 0.3106(5) 0.5846(5)
C78_4 C 0.2400(6) 0.2788(5) 0.6007(5)
H69_4 H 0.2336 0.2843 0.6321
H70_4 H 0.2495 0.2476 0.5966
H71_4 H 0.2109 0.2850 0.5836
Ti5_4 Ti 0.69771(5) 0.30313(5) 0.74757(4)
O24_4 O 0.2621(4) 0.3322(2) 0.4526(2)
O25_4 O 0.2524(3) 0.2818(3) 0.3979(2)
O30_4 O 0.1333(3) 0.2175(4) 0.2820(3)
O31_4 O 0.1939(3) 0.2272(3) 0.3304(2)
H78_4 H 0.136592 0.166526 0.195618
H79_4 H 0.15283 0.217561 0.180529
O5_4 O 0.2379(4) 0.8322(2) 0.0474(2)
O6_4 O 0.2476(3) 0.7818(3) 0.1021(2)
C5_4 C 0.2469(5) 0.8221(5) 0.0889(4)
C6_4 C 0.2526(3) 0.8589(2) 0.1215(2)
C7_4 C 0.2640(3) 0.8485(2) 0.1660(3)
H1_4 H 0.2704 0.8185 0.1743
C8_4 C 0.2658(3) 0.8831(3) 0.19812(18)
H2_4 H 0.2735 0.8761 0.2279
C9_4 C 0.2563(3) 0.9280(3) 0.1857(3)
C10_4 C 0.2450(3) 0.9384(2) 0.1412(3)
H3_4 H 0.2386 0.9684 0.1329
C11_4 C 0.2431(3) 0.9039(3) 0.10910(19)
H4_4 H 0.2355 0.9108 0.0793
C13_4 C 0.2649(4) 0.9651(3) 0.2198(3)
C14_4 C 0.2403(4) 0.9683(3) 0.2606(3)
H5_4 H 0.3115 0.9986 0.1783
C22_4 C 0.1992(6) 0.9364(4) 0.2683(3)
H15_4 H 0.2012 0.9116 0.2472
H16_4 H 0.1688 0.9523 0.2644
H17_4 H 0.2010 0.9246 0.2985
C24_4 C 0.2313(3) 0.9690(3) 0.3635(3)
C25_4 C 0.2059(3) 0.9655(2) 0.4039(3)
C26_4 C 0.1730(3) 0.9994(3) 0.4163(2)
H18_4 H 0.1559 0.9971 0.4434
C33_4 C 0.2730(6) 0.9355(4) 0.3555(3)
H28_4 H 0.2876 0.9416 0.3267
H29_4 H 0.2605 0.9049 0.3559
H30_4 H 0.2971 0.9390 0.3787
C34_4 C 0.2141(3) 0.9253(2) 0.4346(3)
C35_4 C 0.2339(3) 0.9301(2) 0.4776(3)
H31_4 H 0.2436 0.9587 0.4878
C36_4 C 0.2391(3) 0.8920(3) 0.50520(19)
H32_4 H 0.2523 0.8952 0.5339
C37_4 C 0.2245(3) 0.8493(2) 0.4899(2)
C38_4 C 0.2047(3) 0.8445(2) 0.4470(2)
H33_4 H 0.1949 0.8159 0.4368
C39_4 C 0.1995(3) 0.8826(3) 0.41937(18)
H34_4 H 0.1863 0.8794 0.3907
C40_4 C 0.2348(4) 0.8076(4) 0.5176(3)
Ti11_4 Ti 0.22300(6) 0.77810(5) 0.01311(4)
P1_5 P 0.26835(16) 0.61124(11) 0.18954(9)
P2_5 P 0.12871(15) 0.74222(15) 0.06871(10)
O7_5 O 0.2241(3) 0.5798(2) 0.1987(2)
O8_5 O 0.3129(3) 0.5764(2) 0.18256(18)
O9_5 O 0.2836(3) 0.6370(3) 0.2334(2)
O10_5 O 0.2552(3) 0.6370(2) 0.14908(19)
O11_3 O 0.2665(3) 0.2702(2) 0.0013(2)
O15_5 O 0.0956(3) 0.7867(3) 0.0775(2)
O16_5 O 0.0916(3) 0.7012(3) 0.0592(2)
O17_5 O 0.1589(3) 0.7564(3) 0.0279(2)
O18_5 O 0.1561(3) 0.7240(3) 0.11005(19)
O21_5 O 0.3353(3) 0.6877(3) 0.30796(18)
C5_5 C 0.2531(5) 0.3221(5) 0.4111(4)
C6_5 C 0.2474(3) 0.3589(2) 0.3785(2)
C7_5 C 0.2360(3) 0.3485(2) 0.3340(3)
H1_5 H 0.2296 0.3185 0.3257
C8_5 C 0.2342(3) 0.3831(3) 0.30188(18)
H2_5 H 0.2265 0.3761 0.2721
C9_5 C 0.2437(3) 0.4280(3) 0.3143(3)
C10_5 C 0.2550(3) 0.4384(2) 0.3588(3)
H3_5 H 0.2614 0.4684 0.3671
C11_5 C 0.2569(3) 0.4039(3) 0.39090(19)
H4_5 H 0.2645 0.4108 0.4207
C12_5 C 0.1664(6) 0.5767(5) 0.2816(5)
C13_5 C 0.2351(4) 0.4651(3) 0.2802(3)
C14_5 C 0.2597(4) 0.4683(3) 0.2394(3)
C15_5 C 0.2543(3) 0.5069(4) 0.2126(2)
C16_5 C 0.2243(4) 0.5425(3) 0.2267(3)
C17_5 C 0.1996(4) 0.5393(3) 0.2676(3)
C18_5 C 0.2050(4) 0.5007(4) 0.2943(2)
H5_5 H 0.1885 0.4986 0.3217
C19_5 C 0.1362(7) 0.5639(4) 0.3223(5)
H6_5 H 0.1140 0.5884 0.3293
H7_5 H 0.1575 0.5587 0.3476
H8_5 H 0.1180 0.5367 0.3160
C20_5 C 0.1907(8) 0.6197(6) 0.2968(7)
H9_5 H 0.2117 0.6308 0.2732
H10_5 H 0.2099 0.6136 0.3233
H11_5 H 0.1663 0.6422 0.3036
C21_5 C 0.1299(8) 0.5951(10) 0.2493(7)
H12_5 H 0.1463 0.6055 0.2226
H13_5 H 0.1127 0.6201 0.2630
H14_5 H 0.1071 0.5715 0.2415
C22_5 C 0.3008(6) 0.4364(4) 0.2317(3)
H15_5 H 0.2988 0.4116 0.2528
H16_5 H 0.3312 0.4523 0.2356
H17_5 H 0.2990 0.4246 0.2015
C23_5 C 0.2762(3) 0.5064(3) 0.1645(2)
C24_5 C 0.2687(3) 0.4690(3) 0.1365(3)
C25_5 C 0.2941(3) 0.4655(2) 0.0961(3)
C26_5 C 0.3270(3) 0.4994(3) 0.0837(2)
H18_5 H 0.3441 0.4971 0.0566
C27_5 C 0.3345(3) 0.5368(3) 0.1117(3)
C28_5 C 0.3091(3) 0.5403(3) 0.1521(2)
C29_5 C 0.3760(5) 0.5699(4) 0.1025(4)
C30_5 C 0.4140(5) 0.5688(5) 0.1409(6)
H19_5 H 0.4402 0.5895 0.1340
H20_5 H 0.4267 0.5384 0.1440
H21_5 H 0.3987 0.5780 0.1686
C31_5 C 0.4034(7) 0.5560(4) 0.0588(6)
H22_5 H 0.3808 0.5558 0.0339
H23_5 H 0.4171 0.5260 0.0624
H24_5 H 0.4291 0.5775 0.0529
C32_5 C 0.3604(5) 0.6202(6) 0.0993(3)
H25_5 H 0.3372 0.6237 0.0754
H26_5 H 0.3886 0.6388 0.0934
H27_5 H 0.3458 0.6294 0.1273
C33_5 C 0.2270(6) 0.4355(4) 0.1445(3)
H28_5 H 0.2124 0.4416 0.1733
H29_5 H 0.2395 0.4049 0.1441
H30_5 H 0.2029 0.4390 0.1213
C34_5 C 0.2859(3) 0.4253(2) 0.0654(3)
C35_5 C 0.2661(3) 0.4301(2) 0.0224(3)
H31_5 H 0.2564 0.4587 0.0122
C37_5 C 0.2755(3) 0.3493(2) 0.0101(2)
C38_5 C 0.2953(3) 0.3445(2) 0.0530(2)
H33_5 H 0.3051 0.3159 0.0632
C39_5 C 0.3005(3) 0.3826(3) 0.08063(18)
H34_5 H 0.3137 0.3794 0.1093
C48_5 C 0.0816(6) 0.8386(5) 0.1592(4)
C51_5 C 0.0188(4) 0.7530(3) 0.0854(2)
C52_5 C 0.0534(3) 0.7829(3) 0.1030(2)
C53_5 C 0.0448(3) 0.8045(3) 0.1440(2)
C54_5 C 0.0017(3) 0.7962(3) 0.16740(19)
C55_5 C 0.0885(6) 0.8754(5) 0.1247(6)
H40_5 H 0.0574 0.8885 0.1172
H41_5 H 0.1031 0.8626 0.0981
H42_5 H 0.1096 0.8986 0.1367
C56_5 C 0.1317(6) 0.8209(4) 0.1698(4)
H43_5 H 0.1524 0.8459 0.1786
H44_5 H 0.1451 0.8063 0.1436
H45_5 H 0.1297 0.7993 0.1941
C57_5 C 0.0669(5) 0.8581(4) 0.2032(4)
H46_5 H 0.0354 0.8723 0.2004
H47_5 H 0.0906 0.8804 0.2125
H48_5 H 0.0652 0.8341 0.2253
C59_5 C 0.0194(3) 0.7384(3) 0.0359(2)
C64_5 C 0.0566(3) 0.7079(3) 0.0249(3)
H59_5 H 0.0701 0.5989 0.0092
H60_5 H 0.1148 0.6280 0.0254
O27_3 O 0.2528(3) 0.6846(2) 0.05913(17)
O28_3 O 0.2472(3) 0.7352(2) 0.26469(19)
O29_3 O 0.2037(3) 0.7192(2) 0.20487(19)
H78_5 H 0.363408 0.666526 0.304382
H79_5 H 0.34717 0.717561 0.319471
O12_3 O 0.2528(3) 0.3154(2) 0.94087(17)
C36_5 C 0.2609(3) 0.3920(3) 0.99480(19)
H32_5 H 0.2477 0.3952 0.9661
C40_5 C 0.2652(4) 0.3076(4) 0.9824(3)
C62_5 C 0.0225(4) 0.6993(3) 0.9505(2)
H52_5 H 0.0236 0.6862 0.9219
C63_5 C 0.0581(3) 0.6884(3) 0.9822(3)
C65_5 C 0.0881(6) 0.6492(5) 0.9645(6)
C66_5 C 0.0771(10) 0.6126(8) 0.9310(7)
H53_5 H 0.0461 0.5989 0.9381
H54_5 H 0.1022 0.5898 0.9321
H55_5 H 0.0758 0.6256 0.9013
C67_5 C 0.1381(8) 0.6724(7) 0.9547(7)
H56_5 H 0.1333 0.6976 0.9344
H57_5 H 0.1598 0.6505 0.9411
H58_5 H 0.1520 0.6832 0.9824
C68_5 C 0.0997(9) 0.6136(7) 0.9999(7)
H61_5 H 0.1216 0.5913 0.9874
H65_5 H 0.0043 0.7554 0.8765
O22_5 O 0.2046(4) 0.8083(3) 0.9562(2)
O23_5 O 0.1921(5) 0.8347(4) 0.8910(3)
C77_5 C 0.2183(6) 0.8106(5) 0.9154(5)
C78_5 C 0.2600(6) 0.7788(5) 0.8993(5)
H69_5 H 0.2664 0.7843 0.8679
H70_5 H 0.2505 0.7476 0.9034
H71_5 H 0.2891 0.7850 0.9164
O26_3 O 0.2665(3) 0.7298(2) 0.9987(2)
O13_3 O 0.7528(3) 0.7352(2) 0.23531(19)
O14_3 O 0.7963(3) 0.7192(2) 0.29513(19)
C41_5 C 0.7924(5) 0.7310(5) 0.2549(4)
C42_5 C 0.8385(3) 0.7457(3) 0.2308(3)
C43_5 C 0.8347(3) 0.7677(3) 0.1893(3)
H35_5 H 0.8044 0.7777 0.1791
C44_5 C 0.8762(4) 0.7746(3) 0.1632(2)
H36_5 H 0.8737 0.7893 0.1355
C45_5 C 0.9215(3) 0.7596(3) 0.1785(2)
C46_5 C 0.9253(3) 0.7377(2) 0.2199(2)
H37_5 H 0.9556 0.7277 0.2301
C47_5 C 0.8838(3) 0.7308(2) 0.24604(19)
H38_5 H 0.8863 0.7161 0.2738
C49_5 C 0.9671(3) 0.7663(3) 0.1498(3)
C50_5 C 0.9757(3) 0.7447(3) 0.1088(3)
H39_5 H 0.9959 0.8106 0.1948
C58_5 C 0.9344(5) 0.7102(5) 0.0959(4)
H49_5 H 0.9421 0.6962 0.0675
H50_5 H 0.9038 0.7260 0.0935
H51_5 H 0.9320 0.6870 0.1187
C60_5 C 0.9838(3) 0.7493(3) 0.0042(3)
C69_5 C 0.9481(5) 0.7924(4) 0.0162(4)
H63_5 H 0.9674 0.8196 0.0195
H64_5 H 0.9310 0.7864 0.0439
C61_5 C 0.9854(3) 0.7297(3) 0.9615(2)
H62_5 H 0.9248 0.7966 0.9923
C70_5 C 0.9537(3) 0.7404(3) 0.9239(3)
C71_5 C 0.9708(3) 0.7538(4) 0.8819(4)
C72_5 C 0.9380(4) 0.7647(3) 0.8478(2)
H66_5 H 0.9495 0.7737 0.8196
C73_5 C 0.8880(3) 0.7622(3) 0.8557(2)
C74_5 C 0.8708(3) 0.7488(3) 0.8978(3)
H67_5 H 0.8373 0.7472 0.9031
C75_5 C 0.9036(4) 0.7379(3) 0.9319(2)
H68_5 H 0.8921 0.7289 0.9601
C76_5 C 0.8490(6) 0.7725(6) 0.8215(4)
O13_4 O 0.2472(3) 0.2648(2) 0.73531(19)
O14_4 O 0.2037(3) 0.2808(2) 0.79513(19)
C41_6 C 0.2076(5) 0.2690(5) 0.7549(4)
C42_6 C 0.1615(3) 0.2543(3) 0.7308(3)
C43_6 C 0.1653(3) 0.2323(3) 0.6893(3)
H35_6 H 0.1956 0.2223 0.6791
C44_6 C 0.1238(4) 0.2254(3) 0.6632(2)
H36_6 H 0.1263 0.2107 0.6355
C45_6 C 0.0785(3) 0.2404(3) 0.6785(2)
C46_6 C 0.0747(3) 0.2623(2) 0.7199(2)
H37_6 H 0.0444 0.2723 0.7301
C47_6 C 0.1162(3) 0.2692(2) 0.74604(19)
H38_6 H 0.1137 0.2839 0.7738
C49_6 C 0.0329(3) 0.2337(3) 0.6498(3)
C50_6 C 0.0243(3) 0.2553(3) 0.6088(3)
H39_6 H 0.0041 0.1894 0.6948
C58_6 C 0.0656(5) 0.2898(5) 0.5959(4)
H49_6 H 0.0579 0.3038 0.5675
H50_6 H 0.0962 0.2740 0.5935
H51_6 H 0.0680 0.3130 0.6187
C60_6 C 0.0162(3) 0.2507(3) 0.5042(3)
C61_6 C 0.0146(3) 0.2703(3) 0.4615(2)
C69_6 C 0.0519(5) 0.2076(4) 0.5162(4)
H62_6 H 0.0752 0.2034 0.4923
H63_6 H 0.0326 0.1804 0.5195
H64_6 H 0.0690 0.2136 0.5439
C70_6 C 0.0463(3) 0.2596(3) 0.4239(3)
C71_6 C 0.0292(3) 0.2462(4) 0.3819(4)
C72_6 C 0.0620(4) 0.2353(3) 0.3478(2)
H66_6 H 0.0505 0.2263 0.3196
C73_6 C 0.1120(3) 0.2378(3) 0.3557(2)
C74_6 C 0.1292(3) 0.2512(3) 0.3978(3)
H67_6 H 0.1627 0.2528 0.4031
C75_6 C 0.0964(4) 0.2621(3) 0.4319(2)
H68_6 H 0.1079 0.2711 0.4601
C76_6 C 0.1510(6) 0.2275(6) 0.3215(4)
P1_6 P 0.73165(16) 0.38876(11) 0.68954(9)
P2_6 P 0.87129(15) 0.25778(15) 0.56871(10)
O7_6 O 0.7759(3) 0.4202(2) 0.6987(2)
O8_6 O 0.6871(3) 0.4236(2) 0.68256(18)
O9_6 O 0.7164(3) 0.3630(3) 0.7334(2)
O10_6 O 0.7448(3) 0.3630(2) 0.64908(19)
O11_4 O 0.7335(3) 0.7298(2) 0.5013(2)
O12_4 O 0.7472(3) 0.6846(2) 0.44087(17)
O15_6 O 0.9044(3) 0.2133(3) 0.5775(2)
O16_6 O 0.9084(3) 0.2988(3) 0.5592(2)
O17_6 O 0.8411(3) 0.2436(3) 0.5279(2)
O18_6 O 0.8439(3) 0.2760(3) 0.61005(19)
O21_6 O 0.6647(3) 0.3123(3) 0.80796(18)
C5_6 C 0.7469(5) 0.6779(5) 0.9111(4)
C6_6 C 0.7526(3) 0.6411(2) 0.8785(2)
C7_6 C 0.7640(3) 0.6515(2) 0.8340(3)
H1_6 H 0.7704 0.6815 0.8257
C8_6 C 0.7658(3) 0.6169(3) 0.80188(18)
H2_6 H 0.7735 0.6239 0.7721
C9_6 C 0.7563(3) 0.5720(3) 0.8143(3)
C10_6 C 0.7450(3) 0.5616(2) 0.8588(3)
H3_6 H 0.7386 0.5316 0.8671
C11_6 C 0.7431(3) 0.5961(3) 0.89090(19)
H4_6 H 0.7355 0.5892 0.9207
C12_6 C 0.8336(6) 0.4233(5) 0.7816(5)
C13_6 C 0.7649(4) 0.5349(3) 0.7802(3)
C14_6 C 0.7403(4) 0.5317(3) 0.7394(3)
C15_6 C 0.7457(3) 0.4931(4) 0.7126(2)
C16_6 C 0.7757(4) 0.4575(3) 0.7267(3)
C17_6 C 0.8004(4) 0.4607(3) 0.7676(3)
C18_6 C 0.7950(4) 0.4993(4) 0.7943(2)
H5_6 H 0.8115 0.5014 0.8217
C19_6 C 0.8638(7) 0.4361(4) 0.8223(5)
H6_6 H 0.8860 0.4116 0.8293
H7_6 H 0.8425 0.4413 0.8476
H8_6 H 0.8820 0.4633 0.8160
C20_6 C 0.8093(8) 0.3803(6) 0.7968(7)
H9_6 H 0.7883 0.3692 0.7732
H10_6 H 0.7901 0.3864 0.8233
H11_6 H 0.8337 0.3578 0.8036
C21_6 C 0.8701(8) 0.4049(10) 0.7493(7)
H12_6 H 0.8537 0.3945 0.7226
H13_6 H 0.8873 0.3799 0.7630
H14_6 H 0.8929 0.4285 0.7415
C22_6 C 0.6992(6) 0.5636(4) 0.7317(3)
H15_6 H 0.7012 0.5884 0.7528
H16_6 H 0.6688 0.5477 0.7356
H17_6 H 0.7010 0.5754 0.7015
C23_6 C 0.7238(3) 0.4936(3) 0.6645(2)
C24_6 C 0.7313(3) 0.5310(3) 0.6365(3)
C25_6 C 0.7059(3) 0.5345(2) 0.5961(3)
C26_6 C 0.6730(3) 0.5006(3) 0.5837(2)
H18_6 H 0.6559 0.5029 0.5566
C27_6 C 0.6655(3) 0.4632(3) 0.6117(3)
C28_6 C 0.6909(3) 0.4597(3) 0.6521(2)
C29_6 C 0.6240(5) 0.4301(4) 0.6025(4)
C30_6 C 0.5860(5) 0.4312(5) 0.6409(6)
H19_6 H 0.5598 0.4105 0.6340
H20_6 H 0.5733 0.4616 0.6440
H21_6 H 0.6013 0.4220 0.6686
C31_6 C 0.5966(7) 0.4440(4) 0.5588(6)
H22_6 H 0.6192 0.4442 0.5339
H23_6 H 0.5829 0.4740 0.5624
H24_6 H 0.5709 0.4225 0.5529
C32_6 C 0.6396(5) 0.3798(6) 0.5993(3)
H25_6 H 0.6628 0.3763 0.5754
H26_6 H 0.6114 0.3612 0.5934
H27_6 H 0.6542 0.3706 0.6273
C33_6 C 0.7730(6) 0.5645(4) 0.6445(3)
H28_6 H 0.7876 0.5584 0.6733
H29_6 H 0.7605 0.5951 0.6441
H30_6 H 0.7971 0.5610 0.6213
C34_6 C 0.7141(3) 0.5747(2) 0.5654(3)
C35_6 C 0.7339(3) 0.5699(2) 0.5224(3)
H31_6 H 0.7436 0.5413 0.5122
C36_6 C 0.7391(3) 0.6080(3) 0.49480(19)
H32_6 H 0.7523 0.6048 0.4661
C37_6 C 0.7245(3) 0.6507(2) 0.5101(2)
C38_6 C 0.7047(3) 0.6555(2) 0.5530(2)
H33_6 H 0.6949 0.6841 0.5632
C39_6 C 0.6995(3) 0.6174(3) 0.58063(18)
H34_6 H 0.6863 0.6206 0.6093
C40_6 C 0.7348(4) 0.6924(4) 0.4824(3)
C48_6 C 0.9184(6) 0.1614(5) 0.6592(4)
C51_6 C 0.9812(4) 0.2470(3) 0.5854(2)
C52_6 C 0.9466(3) 0.2171(3) 0.6030(2)
C53_6 C 0.9552(3) 0.1955(3) 0.6440(2)
C54_6 C 0.9983(3) 0.2038(3) 0.66740(19)
C55_6 C 0.9115(6) 0.1246(5) 0.6247(6)
H40_6 H 0.9426 0.1115 0.6172
H41_6 H 0.8969 0.1374 0.5981
H42_6 H 0.8904 0.1014 0.6367
C56_6 C 0.8683(6) 0.1791(4) 0.6698(4)
H43_6 H 0.8476 0.1541 0.6786
H44_6 H 0.8549 0.1937 0.6436
H45_6 H 0.8703 0.2007 0.6941
C57_6 C 0.9331(5) 0.1419(4) 0.7032(4)
H46_6 H 0.9646 0.1277 0.7004
H47_6 H 0.9094 0.1196 0.7125
H48_6 H 0.9348 0.1659 0.7253
C59_6 C 0.9806(3) 0.2616(3) 0.5359(2)
C62_6 C 0.9775(4) 0.3007(3) 0.4505(2)
H52_6 H 0.9764 0.3138 0.4219
C63_6 C 0.9419(3) 0.3116(3) 0.4822(3)
C64_6 C 0.9434(3) 0.2921(3) 0.5249(3)
C65_6 C 0.9119(6) 0.3508(5) 0.4645(6)
C66_6 C 0.9229(10) 0.3874(8) 0.4310(7)
H53_6 H 0.9539 0.4011 0.4381
H54_6 H 0.8978 0.4102 0.4321
H55_6 H 0.9242 0.3744 0.4013
C67_6 C 0.8619(8) 0.3276(7) 0.4547(7)
H56_6 H 0.8667 0.3024 0.4344
H57_6 H 0.8402 0.3495 0.4411
H58_6 H 0.8480 0.3168 0.4824
C68_6 C 0.9003(9) 0.3864(7) 0.4999(7)
H59_6 H 0.9299 0.4011 0.5092
H60_6 H 0.8852 0.3720 0.5254
H61_6 H 0.8784 0.4087 0.4874
H65_6 H 0.9957 0.2446 0.3765
O22_6 O 0.7954(4) 0.1917(3) 0.4562(2)
O23_6 O 0.8079(5) 0.1653(4) 0.3910(3)
C77_6 C 0.7817(6) 0.1894(5) 0.4154(5)
C78_6 C 0.7400(6) 0.2212(5) 0.3993(5)
H69_6 H 0.7336 0.2157 0.3679
H70_6 H 0.7495 0.2524 0.4034
H71_6 H 0.7109 0.2150 0.4164
O26_4 O 0.7335(3) 0.2702(2) 0.4987(2)
O27_4 O 0.7472(3) 0.3154(2) 0.55913(17)
O28_4 O 0.7528(3) 0.2648(2) 0.76469(19)
O29_4 O 0.7963(3) 0.2808(2) 0.70487(19)
H78_6 H 0.636592 0.333474 0.804382
H79_6 H 0.65283 0.282439 0.819471
C36_7 C 0.2609(3) 0.6080(3) 0.00520(19)
H32_7 H 0.2477 0.6048 0.0339
C40_7 C 0.2652(4) 0.6924(4) 0.0176(3)
C62_7 C 0.0225(4) 0.3007(3) 0.0495(2)
H52_7 H 0.0236 0.3138 0.0781
C63_7 C 0.0581(3) 0.3116(3) 0.0178(3)
C65_7 C 0.0881(6) 0.3508(5) 0.0355(6)
C66_7 C 0.0771(10) 0.3874(8) 0.0690(7)
H53_7 H 0.0461 0.4011 0.0619
H54_7 H 0.1022 0.4102 0.0679
H55_7 H 0.0758 0.3744 0.0987
C67_7 C 0.1381(8) 0.3276(7) 0.0453(7)
H56_7 H 0.1333 0.3024 0.0656
H57_7 H 0.1598 0.3495 0.0589
H58_7 H 0.1520 0.3168 0.0176
C68_7 C 0.0997(9) 0.3864(7) 0.0001(7)
H61_7 H 0.1216 0.4087 0.0126
H65_7 H 0.0043 0.2446 0.1235
O22_7 O 0.2046(4) 0.1917(3) 0.0438(2)
O23_7 O 0.1921(5) 0.1653(4) 0.1090(3)
C77_7 C 0.2183(6) 0.1894(5) 0.0846(5)
C78_7 C 0.2600(6) 0.2212(5) 0.1007(5)
H69_7 H 0.2664 0.2157 0.1321
H70_7 H 0.2505 0.2524 0.0966
H71_7 H 0.2891 0.2150 0.0836
P1_7 P 0.26835(16) 0.38876(11) 0.81046(9)
P2_7 P 0.12871(15) 0.25778(15) 0.93129(10)
O7_7 O 0.2241(3) 0.4202(2) 0.8013(2)
O8_7 O 0.3129(3) 0.4236(2) 0.81744(18)
O9_7 O 0.2836(3) 0.3630(3) 0.7666(2)
O10_7 O 0.2552(3) 0.3630(2) 0.85092(19)
O15_7 O 0.0956(3) 0.2133(3) 0.9225(2)
O16_7 O 0.0916(3) 0.2988(3) 0.9408(2)
O17_7 O 0.1589(3) 0.2436(3) 0.9721(2)
O18_7 O 0.1561(3) 0.2760(3) 0.88995(19)
O21_7 O 0.3353(3) 0.3123(3) 0.69204(18)
C5_7 C 0.2531(5) 0.6779(5) 0.5889(4)
C6_7 C 0.2474(3) 0.6411(2) 0.6215(2)
C7_7 C 0.2360(3) 0.6515(2) 0.6660(3)
H1_7 H 0.2296 0.6815 0.6743
C8_7 C 0.2342(3) 0.6169(3) 0.69812(18)
H2_7 H 0.2265 0.6239 0.7279
C9_7 C 0.2437(3) 0.5720(3) 0.6857(3)
C10_7 C 0.2550(3) 0.5616(2) 0.6412(3)
H3_7 H 0.2614 0.5316 0.6329
C11_7 C 0.2569(3) 0.5961(3) 0.60910(19)
H4_7 H 0.2645 0.5892 0.5793
C12_7 C 0.1664(6) 0.4233(5) 0.7184(5)
C13_7 C 0.2351(4) 0.5349(3) 0.7198(3)
C14_7 C 0.2597(4) 0.5317(3) 0.7606(3)
C15_7 C 0.2543(3) 0.4931(4) 0.7874(2)
C16_7 C 0.2243(4) 0.4575(3) 0.7733(3)
C17_7 C 0.1996(4) 0.4607(3) 0.7324(3)
C18_7 C 0.2050(4) 0.4993(4) 0.7057(2)
H5_7 H 0.1885 0.5014 0.6783
C19_7 C 0.1362(7) 0.4361(4) 0.6777(5)
H6_7 H 0.1140 0.4116 0.6707
H7_7 H 0.1575 0.4413 0.6524
H8_7 H 0.1180 0.4633 0.6840
C20_7 C 0.1907(8) 0.3803(6) 0.7032(7)
H9_7 H 0.2117 0.3692 0.7268
H10_7 H 0.2099 0.3864 0.6767
H11_7 H 0.1663 0.3578 0.6964
C21_7 C 0.1299(8) 0.4049(10) 0.7507(7)
H12_7 H 0.1463 0.3945 0.7774
H13_7 H 0.1127 0.3799 0.7370
H14_7 H 0.1071 0.4285 0.7585
C22_7 C 0.3008(6) 0.5636(4) 0.7683(3)
H15_7 H 0.2988 0.5884 0.7472
H16_7 H 0.3312 0.5477 0.7644
H17_7 H 0.2990 0.5754 0.7985
C23_7 C 0.2762(3) 0.4936(3) 0.8355(2)
C24_7 C 0.2687(3) 0.5310(3) 0.8635(3)
C25_7 C 0.2941(3) 0.5345(2) 0.9039(3)
C26_7 C 0.3270(3) 0.5006(3) 0.9163(2)
H18_7 H 0.3441 0.5029 0.9434
C27_7 C 0.3345(3) 0.4632(3) 0.8883(3)
C28_7 C 0.3091(3) 0.4597(3) 0.8479(2)
C29_7 C 0.3760(5) 0.4301(4) 0.8975(4)
C30_7 C 0.4140(5) 0.4312(5) 0.8591(6)
H19_7 H 0.4402 0.4105 0.8660
H20_7 H 0.4267 0.4616 0.8560
H21_7 H 0.3987 0.4220 0.8314
C31_7 C 0.4034(7) 0.4440(4) 0.9412(6)
H22_7 H 0.3808 0.4442 0.9661
H23_7 H 0.4171 0.4740 0.9376
H24_7 H 0.4291 0.4225 0.9471
C32_7 C 0.3604(5) 0.3798(6) 0.9007(3)
H25_7 H 0.3372 0.3763 0.9246
H26_7 H 0.3886 0.3612 0.9066
H27_7 H 0.3458 0.3706 0.8727
C33_7 C 0.2270(6) 0.5645(4) 0.8555(3)
H28_7 H 0.2124 0.5584 0.8267
H29_7 H 0.2395 0.5951 0.8559
H30_7 H 0.2029 0.5610 0.8787
C34_7 C 0.2859(3) 0.5747(2) 0.9346(3)
C35_7 C 0.2661(3) 0.5699(2) 0.9776(3)
H31_7 H 0.2564 0.5413 0.9878
C37_7 C 0.2755(3) 0.6507(2) 0.9899(2)
C38_7 C 0.2953(3) 0.6555(2) 0.9470(2)
H33_7 H 0.3051 0.6841 0.9368
C39_7 C 0.3005(3) 0.6174(3) 0.91937(18)
H34_7 H 0.3137 0.6206 0.8907
C48_7 C 0.0816(6) 0.1614(5) 0.8408(4)
C51_7 C 0.0188(4) 0.2470(3) 0.9146(2)
C52_7 C 0.0534(3) 0.2171(3) 0.8970(2)
C53_7 C 0.0448(3) 0.1955(3) 0.8560(2)
C54_7 C 0.0017(3) 0.2038(3) 0.83260(19)
C55_7 C 0.0885(6) 0.1246(5) 0.8753(6)
H40_7 H 0.0574 0.1115 0.8828
H41_7 H 0.1031 0.1374 0.9019
H42_7 H 0.1096 0.1014 0.8633
C56_7 C 0.1317(6) 0.1791(4) 0.8302(4)
H43_7 H 0.1524 0.1541 0.8214
H44_7 H 0.1451 0.1937 0.8564
H45_7 H 0.1297 0.2007 0.8059
C57_7 C 0.0669(5) 0.1419(4) 0.7968(4)
H46_7 H 0.0354 0.1277 0.7996
H47_7 H 0.0906 0.1196 0.7875
H48_7 H 0.0652 0.1659 0.7747
C59_7 C 0.0194(3) 0.2616(3) 0.9641(2)
C64_7 C 0.0566(3) 0.2921(3) 0.9751(3)
H59_7 H 0.0701 0.4011 0.9908
H60_7 H 0.1148 0.3720 0.9746
H78_7 H 0.363408 0.333474 0.695618
H79_7 H 0.34717 0.282439 0.680529
C61_7 C 0.9854(3) 0.2703(3) 0.0385(2)
H62_7 H 0.9248 0.2034 0.0077
C70_7 C 0.9537(3) 0.2596(3) 0.0761(3)
C71_7 C 0.9708(3) 0.2462(4) 0.1181(4)
C72_7 C 0.9380(4) 0.2353(3) 0.1522(2)
H66_7 H 0.9495 0.2263 0.1804
C73_7 C 0.8880(3) 0.2378(3) 0.1443(2)
C74_7 C 0.8708(3) 0.2512(3) 0.1022(3)
H67_7 H 0.8373 0.2528 0.0969
C75_7 C 0.9036(4) 0.2621(3) 0.0681(2)
H68_7 H 0.8921 0.2711 0.0399
C76_7 C 0.8490(6) 0.2275(6) 0.1785(4)
C41_7 C 0.7924(5) 0.2690(5) 0.7451(4)
C42_7 C 0.8385(3) 0.2543(3) 0.7692(3)
C43_7 C 0.8347(3) 0.2323(3) 0.8107(3)
H35_7 H 0.8044 0.2223 0.8209
C44_7 C 0.8762(4) 0.2254(3) 0.8368(2)
H36_7 H 0.8737 0.2107 0.8645
C45_7 C 0.9215(3) 0.2404(3) 0.8215(2)
C46_7 C 0.9253(3) 0.2623(2) 0.7801(2)
H37_7 H 0.9556 0.2723 0.7699
C47_7 C 0.8838(3) 0.2692(2) 0.75396(19)
H38_7 H 0.8863 0.2839 0.7262
C49_7 C 0.9671(3) 0.2337(3) 0.8502(3)
C50_7 C 0.9757(3) 0.2553(3) 0.8912(3)
H39_7 H 0.9959 0.1894 0.8052
C58_7 C 0.9344(5) 0.2898(5) 0.9041(4)
H49_7 H 0.9421 0.3038 0.9325
H50_7 H 0.9038 0.2740 0.9065
H51_7 H 0.9320 0.3130 0.8813
C60_7 C 0.9838(3) 0.2507(3) 0.9958(3)
C69_7 C 0.9481(5) 0.2076(4) 0.9838(4)
H63_7 H 0.9674 0.1804 0.9805
H64_7 H 0.9310 0.2136 0.9561
C41_8 C 0.2076(5) 0.7310(5) 0.2451(4)
C42_8 C 0.1615(3) 0.7457(3) 0.2692(3)
C43_8 C 0.1653(3) 0.7677(3) 0.3107(3)
H35_8 H 0.1956 0.7777 0.3209
C44_8 C 0.1238(4) 0.7746(3) 0.3368(2)
H36_8 H 0.1263 0.7893 0.3645
C45_8 C 0.0785(3) 0.7596(3) 0.3215(2)
C46_8 C 0.0747(3) 0.7377(2) 0.2801(2)
H37_8 H 0.0444 0.7277 0.2699
C47_8 C 0.1162(3) 0.7308(2) 0.25396(19)
H38_8 H 0.1137 0.7161 0.2262
C49_8 C 0.0329(3) 0.7663(3) 0.3502(3)
C50_8 C 0.0243(3) 0.7447(3) 0.3912(3)
H39_8 H 0.0041 0.8106 0.3052
C58_8 C 0.0656(5) 0.7102(5) 0.4041(4)
H49_8 H 0.0579 0.6962 0.4325
H50_8 H 0.0962 0.7260 0.4065
H51_8 H 0.0680 0.6870 0.3813
C60_8 C 0.0162(3) 0.7493(3) 0.4958(3)
C61_8 C 0.0146(3) 0.7297(3) 0.5385(2)
C69_8 C 0.0519(5) 0.7924(4) 0.4838(4)
H62_8 H 0.0752 0.7966 0.5077
H63_8 H 0.0326 0.8196 0.4805
H64_8 H 0.0690 0.7864 0.4561
C70_8 C 0.0463(3) 0.7404(3) 0.5761(3)
C71_8 C 0.0292(3) 0.7538(4) 0.6181(4)
C72_8 C 0.0620(4) 0.7647(3) 0.6522(2)
H66_8 H 0.0505 0.7737 0.6804
C73_8 C 0.1120(3) 0.7622(3) 0.6443(2)
C74_8 C 0.1292(3) 0.7488(3) 0.6022(3)
H67_8 H 0.1627 0.7472 0.5969
C75_8 C 0.0964(4) 0.7379(3) 0.5681(2)
H68_8 H 0.1079 0.7289 0.5399
C76_8 C 0.1510(6) 0.7725(6) 0.6785(4)
P1_8 P 0.73165(16) 0.61124(11) 0.31046(9)
P2_8 P 0.87129(15) 0.74222(15) 0.43129(10)
O7_8 O 0.7759(3) 0.5798(2) 0.3013(2)
O8_8 O 0.6871(3) 0.5764(2) 0.31744(18)
O9_8 O 0.7164(3) 0.6370(3) 0.2666(2)
O10_8 O 0.7448(3) 0.6370(2) 0.35092(19)
O15_8 O 0.9044(3) 0.7867(3) 0.4225(2)
O16_8 O 0.9084(3) 0.7012(3) 0.4408(2)
O17_8 O 0.8411(3) 0.7564(3) 0.4721(2)
O18_8 O 0.8439(3) 0.7240(3) 0.38995(19)
O21_8 O 0.6647(3) 0.6877(3) 0.19204(18)
C5_8 C 0.7469(5) 0.3221(5) 0.0889(4)
C6_8 C 0.7526(3) 0.3589(2) 0.1215(2)
C7_8 C 0.7640(3) 0.3485(2) 0.1660(3)
H1_8 H 0.7704 0.3185 0.1743
C8_8 C 0.7658(3) 0.3831(3) 0.19812(18)
H2_8 H 0.7735 0.3761 0.2279
C9_8 C 0.7563(3) 0.4280(3) 0.1857(3)
C10_8 C 0.7450(3) 0.4384(2) 0.1412(3)
H3_8 H 0.7386 0.4684 0.1329
C11_8 C 0.7431(3) 0.4039(3) 0.10910(19)
H4_8 H 0.7355 0.4108 0.0793
C12_8 C 0.8336(6) 0.5767(5) 0.2184(5)
C13_8 C 0.7649(4) 0.4651(3) 0.2198(3)
C14_8 C 0.7403(4) 0.4683(3) 0.2606(3)
C15_8 C 0.7457(3) 0.5069(4) 0.2874(2)
C16_8 C 0.7757(4) 0.5425(3) 0.2733(3)
C17_8 C 0.8004(4) 0.5393(3) 0.2324(3)
C18_8 C 0.7950(4) 0.5007(4) 0.2057(2)
H5_8 H 0.8115 0.4986 0.1783
C19_8 C 0.8638(7) 0.5639(4) 0.1777(5)
H6_8 H 0.8860 0.5884 0.1707
H7_8 H 0.8425 0.5587 0.1524
H8_8 H 0.8820 0.5367 0.1840
C20_8 C 0.8093(8) 0.6197(6) 0.2032(7)
H9_8 H 0.7883 0.6308 0.2268
H10_8 H 0.7901 0.6136 0.1767
H11_8 H 0.8337 0.6422 0.1964
C21_8 C 0.8701(8) 0.5951(10) 0.2507(7)
H12_8 H 0.8537 0.6055 0.2774
H13_8 H 0.8873 0.6201 0.2370
H14_8 H 0.8929 0.5715 0.2585
C22_8 C 0.6992(6) 0.4364(4) 0.2683(3)
H15_8 H 0.7012 0.4116 0.2472
H16_8 H 0.6688 0.4523 0.2644
H17_8 H 0.7010 0.4246 0.2985
C23_8 C 0.7238(3) 0.5064(3) 0.3355(2)
C24_8 C 0.7313(3) 0.4690(3) 0.3635(3)
C25_8 C 0.7059(3) 0.4655(2) 0.4039(3)
C26_8 C 0.6730(3) 0.4994(3) 0.4163(2)
H18_8 H 0.6559 0.4971 0.4434
C27_8 C 0.6655(3) 0.5368(3) 0.3883(3)
C28_8 C 0.6909(3) 0.5403(3) 0.3479(2)
C29_8 C 0.6240(5) 0.5699(4) 0.3975(4)
C30_8 C 0.5860(5) 0.5688(5) 0.3591(6)
H19_8 H 0.5598 0.5895 0.3660
H20_8 H 0.5733 0.5384 0.3560
H21_8 H 0.6013 0.5780 0.3314
C31_8 C 0.5966(7) 0.5560(4) 0.4412(6)
H22_8 H 0.6192 0.5558 0.4661
H23_8 H 0.5829 0.5260 0.4376
H24_8 H 0.5709 0.5775 0.4471
C32_8 C 0.6396(5) 0.6202(6) 0.4007(3)
H25_8 H 0.6628 0.6237 0.4246
H26_8 H 0.6114 0.6388 0.4066
H27_8 H 0.6542 0.6294 0.3727
C33_8 C 0.7730(6) 0.4355(4) 0.3555(3)
H28_8 H 0.7876 0.4416 0.3267
H29_8 H 0.7605 0.4049 0.3559
H30_8 H 0.7971 0.4390 0.3787
C34_8 C 0.7141(3) 0.4253(2) 0.4346(3)
C35_8 C 0.7339(3) 0.4301(2) 0.4776(3)
H31_8 H 0.7436 0.4587 0.4878
C36_8 C 0.7391(3) 0.3920(3) 0.50520(19)
H32_8 H 0.7523 0.3952 0.5339
C37_8 C 0.7245(3) 0.3493(2) 0.4899(2)
C38_8 C 0.7047(3) 0.3445(2) 0.4470(2)
H33_8 H 0.6949 0.3159 0.4368
C39_8 C 0.6995(3) 0.3826(3) 0.41937(18)
H34_8 H 0.6863 0.3794 0.3907
C40_8 C 0.7348(4) 0.3076(4) 0.5176(3)
C48_8 C 0.9184(6) 0.8386(5) 0.3408(4)
C51_8 C 0.9812(4) 0.7530(3) 0.4146(2)
C52_8 C 0.9466(3) 0.7829(3) 0.3970(2)
C53_8 C 0.9552(3) 0.8045(3) 0.3560(2)
C54_8 C 0.9983(3) 0.7962(3) 0.33260(19)
C55_8 C 0.9115(6) 0.8754(5) 0.3753(6)
H40_8 H 0.9426 0.8885 0.3828
H41_8 H 0.8969 0.8626 0.4019
H42_8 H 0.8904 0.8986 0.3633
C56_8 C 0.8683(6) 0.8209(4) 0.3302(4)
H43_8 H 0.8476 0.8459 0.3214
H44_8 H 0.8549 0.8063 0.3564
H45_8 H 0.8703 0.7993 0.3059
C57_8 C 0.9331(5) 0.8581(4) 0.2968(4)
H46_8 H 0.9646 0.8723 0.2996
H47_8 H 0.9094 0.8804 0.2875
H48_8 H 0.9348 0.8341 0.2747
C59_8 C 0.9806(3) 0.7384(3) 0.4641(2)
C62_8 C 0.9775(4) 0.6993(3) 0.5495(2)
H52_8 H 0.9764 0.6862 0.5781
C63_8 C 0.9419(3) 0.6884(3) 0.5178(3)
C64_8 C 0.9434(3) 0.7079(3) 0.4751(3)
C65_8 C 0.9119(6) 0.6492(5) 0.5355(6)
C66_8 C 0.9229(10) 0.6126(8) 0.5690(7)
H53_8 H 0.9539 0.5989 0.5619
H54_8 H 0.8978 0.5898 0.5679
H55_8 H 0.9242 0.6256 0.5987
C67_8 C 0.8619(8) 0.6724(7) 0.5453(7)
H56_8 H 0.8667 0.6976 0.5656
H57_8 H 0.8402 0.6505 0.5589
H58_8 H 0.8480 0.6832 0.5176
C68_8 C 0.9003(9) 0.6136(7) 0.5001(7)
H59_8 H 0.9299 0.5989 0.4908
H60_8 H 0.8852 0.6280 0.4746
H61_8 H 0.8784 0.5913 0.5126
H65_8 H 0.9957 0.7554 0.6235
O22_8 O 0.7954(4) 0.8083(3) 0.5438(2)
O23_8 O 0.8079(5) 0.8347(4) 0.6090(3)
C77_8 C 0.7817(6) 0.8106(5) 0.5846(5)
C78_8 C 0.7400(6) 0.7788(5) 0.6007(5)
H69_8 H 0.7336 0.7843 0.6321
H70_8 H 0.7495 0.7476 0.5966
H71_8 H 0.7109 0.7850 0.5836
H78_8 H 0.636592 0.666526 0.195618
H79_8 H 0.65283 0.717561 0.180529
loop_
_geom_bond_atom_site_label_1
_geom_bond_atom_site_label_2
_geom_bond_site_symmetry_1
_geom_bond_site_symmetry_2
O1 C1 1_555 1_555
O2 C1 1_555 1_555
C1 C2 1_555 1_555
C2 H75 1_555 1_555
C2 H76 1_555 1_555
C2 H77 1_555 1_555
O1_2 C1_2 1_555 1_555
O2_2 C1_2 1_555 1_555
C1_2 C2_2 1_555 1_555
C2_2 H75_2 1_555 1_555
C2_2 H76_2 1_555 1_555
C2_2 H77_2 1_555 1_555
O1_3 C1_3 1_555 1_555
O2_3 C1_3 1_555 1_555
C1_3 C2_3 1_555 1_555
C2_3 H75_3 1_555 1_555
C2_3 H76_3 1_555 1_555
C2_3 H77_3 1_555 1_555
O1_4 C1_4 1_555 1_555
O2_4 C1_4 1_555 1_555
C1_4 C2_4 1_555 1_555
C2_4 H75_4 1_555 1_555
C2_4 H76_4 1_555 1_555
C2_4 H77_4 1_555 1_555
O1_5 C1_5 1_555 1_555
O2_5 C1_5 1_555 1_555
C1_5 C2_5 1_555 1_555
C2_5 H75_5 1_555 1_555
C2_5 H77_5 1_555 1_555
O1_6 C1_6 1_555 1_555
O2_6 C1_6 1_555 1_555
C1_6 C2_6 1_555 1_555
C2_6 H75_6 1_555 1_555
C2_6 H77_6 1_555 1_555
O1_7 C1_7 1_555 1_555
O2_7 C1_7 1_555 1_555
C1_7 C2_7 1_555 1_555
C2_7 H75_7 1_555 1_555
C2_7 H77_7 1_555 1_555
O1_8 C1_8 1_555 1_555
O2_8 C1_8 1_555 1_555
C1_8 C2_8 1_555 1_555
C2_8 H75_8 1_555 1_555
C2_8 H77_8 1_555 1_555
O3 C3 1_555 1_555
C3 C4 1_555 1_555
O4 C3 1_555 1_555
C4 H72 1_555 1_555
C4 H73 1_555 1_555
C4 H74 1_555 1_555
C3_2 C4_2 1_555 1_555
O4_2 C3_2 1_555 1_555
C4_2 H73_2 1_555 1_555
C4_2 H74_2 1_555 1_555
O3_3 C3_3 1_555 1_555
C3_3 C4_3 1_555 1_555
O4_3 C3_3 1_555 1_555
C4_3 H72_3 1_555 1_555
C4_3 H73_3 1_555 1_555
C4_3 H74_3 1_555 1_555
C3_4 C4_4 1_555 1_555
O4_4 C3_4 1_555 1_555
C4_4 H73_4 1_555 1_555
C4_4 H74_4 1_555 1_555
O3_5 C3_5 1_555 1_555
C3_5 C4_5 1_555 1_555
O4_5 C3_5 1_555 1_555
C4_5 H72_5 1_555 1_555
C4_5 H73_5 1_555 1_555
C4_5 H74_5 1_555 1_555
C3_6 C4_6 1_555 1_555
O4_6 C3_6 1_555 1_555
C4_6 H73_6 1_555 1_555
C4_6 H74_6 1_555 1_555
O3_7 C3_7 1_555 1_555
C3_7 C4_7 1_555 1_555
O4_7 C3_7 1_555 1_555
C4_7 H72_7 1_555 1_555
C4_7 H73_7 1_555 1_555
C4_7 H74_7 1_555 1_555
C3_8 C4_8 1_555 1_555
O4_8 C3_8 1_555 1_555
C4_8 H73_8 1_555 1_555
C4_8 H74_8 1_555 1_555
Ti1 O9 1_555 1_555
Ti2 O10 1_555 1_555
Ti3 O17 1_555 1_555
P1 O7 1_555 1_555
P2 O15 1_555 1_555
O7 C16 1_555 1_555
O8 P1 1_555 1_555
O9 P1 1_555 1_555
O10 P1 1_555 1_555
O13 C41 1_555 1_555
O14 C41 1_555 1_555
O15 C52 1_555 1_555
O16 P2 1_555 1_555
O17 P2 1_555 1_555
O18 Ti2 1_555 1_555
O21 Ti1 1_555 1_555
C12 C17 1_555 1_555
C16 C15 1_555 1_555
C17 C16 1_555 1_555
C19 C12 1_555 1_555
H6 C19 1_555 1_555
H7 C19 1_555 1_555
H8 C19 1_555 1_555
C20 C12 1_555 1_555
H9 C20 1_555 1_555
H10 C20 1_555 1_555
H11 C20 1_555 1_555
C21 C12 1_555 1_555
H12 C21 1_555 1_555
H13 C21 1_555 1_555
H14 C21 1_555 1_555
C23 C15 1_555 1_555
C28 O8 1_555 1_555
C29 C27 1_555 1_555
C30 C29 1_555 1_555
H19 C30 1_555 1_555
H20 C30 1_555 1_555
H21 C30 1_555 1_555
C31 C29 1_555 1_555
H22 C31 1_555 1_555
H23 C31 1_555 1_555
H24 C31 1_555 1_555
C32 C29 1_555 1_555
H25 C32 1_555 1_555
H26 C32 1_555 1_555
H27 C32 1_555 1_555
C41 C42 1_555 1_555
C42 C43 1_555 1_555
C43 H35 1_555 1_555
C44 C43 1_555 1_555
H36 C44 1_555 1_555
C45 C44 1_555 1_555
C46 C45 1_555 1_555
H37 C46 1_555 1_555
C47 C42 1_555 1_555
H38 C47 1_555 1_555
C48 C53 1_555 1_555
C49 C45 1_555 1_555
C50 C49 1_555 1_555
C51 C50 1_555 1_555
C52 C51 1_555 1_555
C53 C52 1_555 1_555
C54 C49 1_555 1_555
H39 C54 1_555 1_555
C55 C48 1_555 1_555
H40 C55 1_555 1_555
H41 C55 1_555 1_555
H42 C55 1_555 1_555
C56 C48 1_555 1_555
H43 C56 1_555 1_555
H44 C56 1_555 1_555
H45 C56 1_555 1_555
C57 C48 1_555 1_555
H46 C57 1_555 1_555
H47 C57 1_555 1_555
H48 C57 1_555 1_555
C58 C50 1_555 1_555
H49 C58 1_555 1_555
H50 C58 1_555 1_555
H51 C58 1_555 1_555
C59 C51 1_555 1_555
C60 C59 1_555 1_555
C64 O16 1_555 1_555
C69 C60 1_555 1_555
H63 C69 1_555 1_555
H64 C69 1_555 1_555
Ti4 O13 1_555 1_555
Ti7 O14 1_555 1_555
O24 Ti3 1_555 1_555
O25 Ti2 1_555 1_555
O27 Ti2 1_555 1_555
O28 Ti1 1_555 1_555
O29 Ti2 1_555 1_555
O30 Ti1 1_555 1_555
O31 Ti1 1_555 1_555
Ti2 O31 1_555 1_555
P2 O18 1_555 1_555
C17 C18 1_555 1_555
C23 C28 1_555 1_555
C27 C28 1_555 1_555
C46 C47 1_555 1_555
C53 C54 1_555 1_555
C59 C64 1_555 1_555
O21 H78 1_555 1_555
O21 H79 1_555 1_555
O19 C76 1_555 1_555
O20 C76 1_555 1_555
C62 C61 1_555 1_555
H52 C62 1_555 1_555
C63 C62 1_555 1_555
C65 C63 1_555 1_555
C66 C65 1_555 1_555
H53 C66 1_555 1_555
H54 C66 1_555 1_555
H55 C66 1_555 1_555
C67 C65 1_555 1_555
H56 C67 1_555 1_555
H57 C67 1_555 1_555
H58 C67 1_555 1_555
C68 C65 1_555 1_555
H61 C68 1_555 1_555
C70 C61 1_555 1_555
C71 C70 1_555 1_555
H65 C71 1_555 1_555
C72 C71 1_555 1_555
H66 C72 1_555 1_555
C73 C72 1_555 1_555
C74 C73 1_555 1_555
H67 C74 1_555 1_555
C75 C70 1_555 1_555
H68 C75 1_555 1_555
C76 C73 1_555 1_555
O23 C77 1_555 1_555
C77 O22 1_555 1_555
C78 C77 1_555 1_555
H69 C78 1_555 1_555
H70 C78 1_555 1_555
H71 C78 1_555 1_555
Ti5 O19 1_555 1_555
Ti8 O20 1_555 1_555
O20 Ti5 1_555 1_555
C74 C75 1_555 1_555
O5 C5 1_555 1_555
O6 C5 1_555 1_555
C5 C6 1_555 1_555
C6 C7 1_555 1_555
C7 H1 1_555 1_555
C8 C7 1_555 1_555
H2 C8 1_555 1_555
C9 C8 1_555 1_555
C10 C9 1_555 1_555
H3 C10 1_555 1_555
C11 C6 1_555 1_555
H4 C11 1_555 1_555
C13 C9 1_555 1_555
C14 C13 1_555 1_555
C22 C14 1_555 1_555
H15 C22 1_555 1_555
H16 C22 1_555 1_555
H17 C22 1_555 1_555
C25 C24 1_555 1_555
C26 C25 1_555 1_555
H18 C26 1_555 1_555
C33 C24 1_555 1_555
H28 C33 1_555 1_555
H29 C33 1_555 1_555
H30 C33 1_555 1_555
C34 C25 1_555 1_555
C35 C34 1_555 1_555
H31 C35 1_555 1_555
C38 C37 1_555 1_555
H33 C38 1_555 1_555
C39 C34 1_555 1_555
H34 C39 1_555 1_555
Ti9 O6 1_555 1_555
Ti11 O5 1_555 1_555
C10 C11 1_555 1_555
C38 C39 1_555 1_555
O12 C40 1_555 1_555
H32 C36 1_555 1_555
Ti6 O12 1_555 1_555
O5_2 C5_2 1_555 1_555
O6_2 C5_2 1_555 1_555
O11_2 C40_2 1_555 1_555
O12_2 C40_2 1_555 1_555
C5_2 C6_2 1_555 1_555
C6_2 C7_2 1_555 1_555
C7_2 H1_2 1_555 1_555
C8_2 C7_2 1_555 1_555
H2_2 C8_2 1_555 1_555
C9_2 C8_2 1_555 1_555
C10_2 C9_2 1_555 1_555
H3_2 C10_2 1_555 1_555
C11_2 C6_2 1_555 1_555
H4_2 C11_2 1_555 1_555
C13_2 C9_2 1_555 1_555
C14_2 C13_2 1_555 1_555
C22_2 C14_2 1_555 1_555
H15_2 C22_2 1_555 1_555
H16_2 C22_2 1_555 1_555
H17_2 C22_2 1_555 1_555
C25_2 C24_2 1_555 1_555
C26_2 C25_2 1_555 1_555
H18_2 C26_2 1_555 1_555
C33_2 C24_2 1_555 1_555
H28_2 C33_2 1_555 1_555
H29_2 C33_2 1_555 1_555
H30_2 C33_2 1_555 1_555
C34_2 C25_2 1_555 1_555
C35_2 C34_2 1_555 1_555
H31_2 C35_2 1_555 1_555
C36_2 C35_2 1_555 1_555
H32_2 C36_2 1_555 1_555
C37_2 C36_2 1_555 1_555
C38_2 C37_2 1_555 1_555
H33_2 C38_2 1_555 1_555
C39_2 C34_2 1_555 1_555
H34_2 C39_2 1_555 1_555
C40_2 C37_2 1_555 1_555
Ti7 O12_2 1_555 1_555
Ti8 O6_2 1_555 1_555
Ti10_2 O11_2 1_555 1_555
Ti11_2 O5_2 1_555 1_555
C10_2 C11_2 1_555 1_555
C38_2 C39_2 1_555 1_555
Ti1_2 O9_2 1_555 1_555
Ti2_2 O10_2 1_555 1_555
Ti3_2 O17_2 1_555 1_555
P1_2 O7_2 1_555 1_555
P2_2 O15_2 1_555 1_555
O7_2 C16_2 1_555 1_555
O8_2 P1_2 1_555 1_555
O9_2 P1_2 1_555 1_555
O10_2 P1_2 1_555 1_555
O13_2 C41_2 1_555 1_555
O14_2 C41_2 1_555 1_555
O15_2 C52_2 1_555 1_555
O16_2 P2_2 1_555 1_555
O17_2 P2_2 1_555 1_555
O18_2 Ti2_2 1_555 1_555
O19_2 C76_2 1_555 1_555
O20_2 C76_2 1_555 1_555
O21_2 Ti1_2 1_555 1_555
C12_2 C17_2 1_555 1_555
C16_2 C15_2 1_555 1_555
C17_2 C16_2 1_555 1_555
C19_2 C12_2 1_555 1_555
H6_2 C19_2 1_555 1_555
H7_2 C19_2 1_555 1_555
H8_2 C19_2 1_555 1_555
C20_2 C12_2 1_555 1_555
H9_2 C20_2 1_555 1_555
H10_2 C20_2 1_555 1_555
H11_2 C20_2 1_555 1_555
C21_2 C12_2 1_555 1_555
H12_2 C21_2 1_555 1_555
H13_2 C21_2 1_555 1_555
H14_2 C21_2 1_555 1_555
C23_2 C15_2 1_555 1_555
C28_2 O8_2 1_555 1_555
C29_2 C27_2 1_555 1_555
C30_2 C29_2 1_555 1_555
H19_2 C30_2 1_555 1_555
H20_2 C30_2 1_555 1_555
H21_2 C30_2 1_555 1_555
C31_2 C29_2 1_555 1_555
H22_2 C31_2 1_555 1_555
H23_2 C31_2 1_555 1_555
H24_2 C31_2 1_555 1_555
C32_2 C29_2 1_555 1_555
H25_2 C32_2 1_555 1_555
H26_2 C32_2 1_555 1_555
H27_2 C32_2 1_555 1_555
C41_2 C42_2 1_555 1_555
C42_2 C43_2 1_555 1_555
C43_2 H35_2 1_555 1_555
C44_2 C43_2 1_555 1_555
H36_2 C44_2 1_555 1_555
C45_2 C44_2 1_555 1_555
C46_2 C45_2 1_555 1_555
H37_2 C46_2 1_555 1_555
C47_2 C42_2 1_555 1_555
H38_2 C47_2 1_555 1_555
C48_2 C53_2 1_555 1_555
C49_2 C45_2 1_555 1_555
C50_2 C49_2 1_555 1_555
C51_2 C50_2 1_555 1_555
C52_2 C51_2 1_555 1_555
C53_2 C52_2 1_555 1_555
C54_2 C49_2 1_555 1_555
H39_2 C54_2 1_555 1_555
C55_2 C48_2 1_555 1_555
H40_2 C55_2 1_555 1_555
H41_2 C55_2 1_555 1_555
H42_2 C55_2 1_555 1_555
C56_2 C48_2 1_555 1_555
H43_2 C56_2 1_555 1_555
H44_2 C56_2 1_555 1_555
H45_2 C56_2 1_555 1_555
C57_2 C48_2 1_555 1_555
H46_2 C57_2 1_555 1_555
H47_2 C57_2 1_555 1_555
H48_2 C57_2 1_555 1_555
C58_2 C50_2 1_555 1_555
H49_2 C58_2 1_555 1_555
H50_2 C58_2 1_555 1_555
H51_2 C58_2 1_555 1_555
C59_2 C51_2 1_555 1_555
C60_2 C59_2 1_555 1_555
C61_2 C60_2 1_555 1_555
C62_2 C61_2 1_555 1_555
H52_2 C62_2 1_555 1_555
C63_2 C62_2 1_555 1_555
C64_2 O16_2 1_555 1_555
C65_2 C63_2 1_555 1_555
C66_2 C65_2 1_555 1_555
H53_2 C66_2 1_555 1_555
H54_2 C66_2 1_555 1_555
H55_2 C66_2 1_555 1_555
C67_2 C65_2 1_555 1_555
H56_2 C67_2 1_555 1_555
H57_2 C67_2 1_555 1_555
H58_2 C67_2 1_555 1_555
C68_2 C65_2 1_555 1_555
H59_2 C68_2 1_555 1_555
H60_2 C68_2 1_555 1_555
H61_2 C68_2 1_555 1_555
C69_2 C60_2 1_555 1_555
H62_2 C69_2 1_555 1_555
H63_2 C69_2 1_555 1_555
H64_2 C69_2 1_555 1_555
C70_2 C61_2 1_555 1_555
C71_2 C70_2 1_555 1_555
H65_2 C71_2 1_555 1_555
C72_2 C71_2 1_555 1_555
H66_2 C72_2 1_555 1_555
C73_2 C72_2 1_555 1_555
C74_2 C73_2 1_555 1_555
H67_2 C74_2 1_555 1_555
C75_2 C70_2 1_555 1_555
H68_2 C75_2 1_555 1_555
C76_2 C73_2 1_555 1_555
O22_2 Ti3_2 1_555 1_555
O23_2 C77_2 1_555 1_555
C77_2 O22_2 1_555 1_555
C78_2 C77_2 1_555 1_555
H69_2 C78_2 1_555 1_555
H70_2 C78_2 1_555 1_555
H71_2 C78_2 1_555 1_555
Ti4_2 O13_2 1_555 1_555
Ti5_2 O19_2 1_555 1_555
Ti6 O14_2 1_555 1_555
Ti9 O20_2 1_555 1_555
O24_2 Ti3_2 1_555 1_555
O25_2 Ti2_2 1_555 1_555
O26_2 Ti3_2 1_555 1_555
O27_2 Ti2_2 1_555 1_555
O28_2 Ti1_2 1_555 1_555
O29_2 Ti2_2 1_555 1_555
O30_2 Ti1_2 1_555 1_555
O31_2 Ti1_2 1_555 1_555
Ti2_2 O31_2 1_555 1_555
P2_2 O18_2 1_555 1_555
O20_2 Ti5_2 1_555 1_555
C17_2 C18_2 1_555 1_555
C23_2 C28_2 1_555 1_555
C27_2 C28_2 1_555 1_555
C46_2 C47_2 1_555 1_555
C53_2 C54_2 1_555 1_555
C59_2 C64_2 1_555 1_555
C63_2 C64_2 1_555 1_555
C74_2 C75_2 1_555 1_555
O21_2 H78_2 1_555 1_555
O21_2 H79_2 1_555 1_555
O27 C40_3 1_555 1_555
H32_3 C36_3 1_555 1_555
O5_3 C5_3 1_555 1_555
O6_3 C5_3 1_555 1_555
C5_3 C6_3 1_555 1_555
C6_3 C7_3 1_555 1_555
C7_3 H1_3 1_555 1_555
C8_3 C7_3 1_555 1_555
H2_3 C8_3 1_555 1_555
C9_3 C8_3 1_555 1_555
C10_3 C9_3 1_555 1_555
H3_3 C10_3 1_555 1_555
C11_3 C6_3 1_555 1_555
H4_3 C11_3 1_555 1_555
C13_3 C9_3 1_555 1_555
C14_3 C13_3 1_555 1_555
C22_3 C14_3 1_555 1_555
H15_3 C22_3 1_555 1_555
H16_3 C22_3 1_555 1_555
H17_3 C22_3 1_555 1_555
C25_3 C24_3 1_555 1_555
C26_3 C25_3 1_555 1_555
H18_3 C26_3 1_555 1_555
C33_3 C24_3 1_555 1_555
H28_3 C33_3 1_555 1_555
H29_3 C33_3 1_555 1_555
H30_3 C33_3 1_555 1_555
C34_3 C25_3 1_555 1_555
C35_3 C34_3 1_555 1_555
H31_3 C35_3 1_555 1_555
C38_3 C37_3 1_555 1_555
H33_3 C38_3 1_555 1_555
C39_3 C34_3 1_555 1_555
H34_3 C39_3 1_555 1_555
Ti9_2 O6_3 1_555 1_555
Ti11_3 O5_3 1_555 1_555
C10_3 C11_3 1_555 1_555
C38_3 C39_3 1_555 1_555
O19_3 C76_3 1_555 1_555
O20_3 C76_3 1_555 1_555
C62_3 C61_3 1_555 1_555
H52_3 C62_3 1_555 1_555
C63_3 C62_3 1_555 1_555
C65_3 C63_3 1_555 1_555
C66_3 C65_3 1_555 1_555
H53_3 C66_3 1_555 1_555
H54_3 C66_3 1_555 1_555
H55_3 C66_3 1_555 1_555
C67_3 C65_3 1_555 1_555
H56_3 C67_3 1_555 1_555
H57_3 C67_3 1_555 1_555
H58_3 C67_3 1_555 1_555
C68_3 C65_3 1_555 1_555
H61_3 C68_3 1_555 1_555
C70_3 C61_3 1_555 1_555
C71_3 C70_3 1_555 1_555
H65_3 C71_3 1_555 1_555
C72_3 C71_3 1_555 1_555
H66_3 C72_3 1_555 1_555
C73_3 C72_3 1_555 1_555
C74_3 C73_3 1_555 1_555
H67_3 C74_3 1_555 1_555
C75_3 C70_3 1_555 1_555
H68_3 C75_3 1_555 1_555
C76_3 C73_3 1_555 1_555
O23_3 C77_3 1_555 1_555
C77_3 O22_3 1_555 1_555
C78_3 C77_3 1_555 1_555
H69_3 C78_3 1_555 1_555
H70_3 C78_3 1_555 1_555
H71_3 C78_3 1_555 1_555
Ti5_3 O19_3 1_555 1_555
Ti8_2 O20_3 1_555 1_555
O20_3 Ti5_3 1_555 1_555
C74_3 C75_3 1_555 1_555
Ti4_2 O9_3 1_555 1_555
Ti6 O10_3 1_555 1_555
Ti10 O17_3 1_555 1_555
P1_3 O7_3 1_555 1_555
P2_3 O15_3 1_555 1_555
O7_3 C16_3 1_555 1_555
O8_3 P1_3 1_555 1_555
O9_3 P1_3 1_555 1_555
O10_3 P1_3 1_555 1_555
O28_2 C41_3 1_555 1_555
O29_2 C41_3 1_555 1_555
O15_3 C52_3 1_555 1_555
O16_3 P2_3 1_555 1_555
O17_3 P2_3 1_555 1_555
O18_3 Ti6 1_555 1_555
O21_3 Ti4_2 1_555 1_555
C12_3 C17_3 1_555 1_555
C16_3 C15_3 1_555 1_555
C17_3 C16_3 1_555 1_555
C19_3 C12_3 1_555 1_555
H6_3 C19_3 1_555 1_555
H7_3 C19_3 1_555 1_555
H8_3 C19_3 1_555 1_555
C20_3 C12_3 1_555 1_555
H9_3 C20_3 1_555 1_555
H10_3 C20_3 1_555 1_555
H11_3 C20_3 1_555 1_555
C21_3 C12_3 1_555 1_555
H12_3 C21_3 1_555 1_555
H13_3 C21_3 1_555 1_555
H14_3 C21_3 1_555 1_555
C23_3 C15_3 1_555 1_555
C28_3 O8_3 1_555 1_555
C29_3 C27_3 1_555 1_555
C30_3 C29_3 1_555 1_555
H19_3 C30_3 1_555 1_555
H20_3 C30_3 1_555 1_555
H21_3 C30_3 1_555 1_555
C31_3 C29_3 1_555 1_555
H22_3 C31_3 1_555 1_555
H23_3 C31_3 1_555 1_555
H24_3 C31_3 1_555 1_555
C32_3 C29_3 1_555 1_555
H25_3 C32_3 1_555 1_555
H26_3 C32_3 1_555 1_555
H27_3 C32_3 1_555 1_555
C41_3 C42_3 1_555 1_555
C42_3 C43_3 1_555 1_555
C43_3 H35_3 1_555 1_555
C44_3 C43_3 1_555 1_555
H36_3 C44_3 1_555 1_555
C45_3 C44_3 1_555 1_555
C46_3 C45_3 1_555 1_555
H37_3 C46_3 1_555 1_555
C47_3 C42_3 1_555 1_555
H38_3 C47_3 1_555 1_555
C48_3 C53_3 1_555 1_555
C49_3 C45_3 1_555 1_555
C50_3 C49_3 1_555 1_555
C51_3 C50_3 1_555 1_555
C52_3 C51_3 1_555 1_555
C53_3 C52_3 1_555 1_555
C54_3 C49_3 1_555 1_555
H39_3 C54_3 1_555 1_555
C55_3 C48_3 1_555 1_555
H40_3 C55_3 1_555 1_555
H41_3 C55_3 1_555 1_555
H42_3 C55_3 1_555 1_555
C56_3 C48_3 1_555 1_555
H43_3 C56_3 1_555 1_555
H44_3 C56_3 1_555 1_555
H45_3 C56_3 1_555 1_555
C57_3 C48_3 1_555 1_555
H46_3 C57_3 1_555 1_555
H47_3 C57_3 1_555 1_555
H48_3 C57_3 1_555 1_555
C58_3 C50_3 1_555 1_555
H49_3 C58_3 1_555 1_555
H50_3 C58_3 1_555 1_555
H51_3 C58_3 1_555 1_555
C59_3 C51_3 1_555 1_555
C60_3 C59_3 1_555 1_555
C64_3 O16_3 1_555 1_555
C69_3 C60_3 1_555 1_555
H63_3 C69_3 1_555 1_555
H64_3 C69_3 1_555 1_555
O24_3 Ti10 1_555 1_555
O25_3 Ti6 1_555 1_555
O30_3 Ti4_2 1_555 1_555
O31_3 Ti4_2 1_555 1_555
Ti6 O31_3 1_555 1_555
P2_3 O18_3 1_555 1_555
C17_3 C18_3 1_555 1_555
C23_3 C28_3 1_555 1_555
C27_3 C28_3 1_555 1_555
C46_3 C47_3 1_555 1_555
C53_3 C54_3 1_555 1_555
C59_3 C64_3 1_555 1_555
O21_3 H78_3 1_555 1_555
O21_3 H79_3 1_555 1_555
Ti4 O9_4 1_555 1_555
Ti7 O10_4 1_555 1_555
Ti10_2 O17_4 1_555 1_555
P1_4 O7_4 1_555 1_555
P2_4 O15_4 1_555 1_555
O7_4 C16_4 1_555 1_555
O8_4 P1_4 1_555 1_555
O9_4 P1_4 1_555 1_555
O10_4 P1_4 1_555 1_555
O28 C41_4 1_555 1_555
O29 C41_4 1_555 1_555
O15_4 C52_4 1_555 1_555
O16_4 P2_4 1_555 1_555
O17_4 P2_4 1_555 1_555
O18_4 Ti7 1_555 1_555
O19_4 C76_4 1_555 1_555
O20_4 C76_4 1_555 1_555
O21_4 Ti4 1_555 1_555
C12_4 C17_4 1_555 1_555
C16_4 C15_4 1_555 1_555
C17_4 C16_4 1_555 1_555
C19_4 C12_4 1_555 1_555
H6_4 C19_4 1_555 1_555
H7_4 C19_4 1_555 1_555
H8_4 C19_4 1_555 1_555
C20_4 C12_4 1_555 1_555
H9_4 C20_4 1_555 1_555
H10_4 C20_4 1_555 1_555
H11_4 C20_4 1_555 1_555
C21_4 C12_4 1_555 1_555
H12_4 C21_4 1_555 1_555
H13_4 C21_4 1_555 1_555
H14_4 C21_4 1_555 1_555
C23_4 C15_4 1_555 1_555
C28_4 O8_4 1_555 1_555
C29_4 C27_4 1_555 1_555
C30_4 C29_4 1_555 1_555
H19_4 C30_4 1_555 1_555
H20_4 C30_4 1_555 1_555
H21_4 C30_4 1_555 1_555
C31_4 C29_4 1_555 1_555
H22_4 C31_4 1_555 1_555
H23_4 C31_4 1_555 1_555
H24_4 C31_4 1_555 1_555
C32_4 C29_4 1_555 1_555
H25_4 C32_4 1_555 1_555
H26_4 C32_4 1_555 1_555
H27_4 C32_4 1_555 1_555
C41_4 C42_4 1_555 1_555
C42_4 C43_4 1_555 1_555
C43_4 H35_4 1_555 1_555
C44_4 C43_4 1_555 1_555
H36_4 C44_4 1_555 1_555
C45_4 C44_4 1_555 1_555
C46_4 C45_4 1_555 1_555
H37_4 C46_4 1_555 1_555
C47_4 C42_4 1_555 1_555
H38_4 C47_4 1_555 1_555
C48_4 C53_4 1_555 1_555
C49_4 C45_4 1_555 1_555
C50_4 C49_4 1_555 1_555
C51_4 C50_4 1_555 1_555
C52_4 C51_4 1_555 1_555
C53_4 C52_4 1_555 1_555
C54_4 C49_4 1_555 1_555
H39_4 C54_4 1_555 1_555
C55_4 C48_4 1_555 1_555
H40_4 C55_4 1_555 1_555
H41_4 C55_4 1_555 1_555
H42_4 C55_4 1_555 1_555
C56_4 C48_4 1_555 1_555
H43_4 C56_4 1_555 1_555
H44_4 C56_4 1_555 1_555
H45_4 C56_4 1_555 1_555
C57_4 C48_4 1_555 1_555
H46_4 C57_4 1_555 1_555
H47_4 C57_4 1_555 1_555
H48_4 C57_4 1_555 1_555
C58_4 C50_4 1_555 1_555
H49_4 C58_4 1_555 1_555
H50_4 C58_4 1_555 1_555
H51_4 C58_4 1_555 1_555
C59_4 C51_4 1_555 1_555
C60_4 C59_4 1_555 1_555
C61_4 C60_4 1_555 1_555
C62_4 C61_4 1_555 1_555
H52_4 C62_4 1_555 1_555
C63_4 C62_4 1_555 1_555
C64_4 O16_4 1_555 1_555
C65_4 C63_4 1_555 1_555
C66_4 C65_4 1_555 1_555
H53_4 C66_4 1_555 1_555
H54_4 C66_4 1_555 1_555
H55_4 C66_4 1_555 1_555
C67_4 C65_4 1_555 1_555
H56_4 C67_4 1_555 1_555
H57_4 C67_4 1_555 1_555
H58_4 C67_4 1_555 1_555
C68_4 C65_4 1_555 1_555
H59_4 C68_4 1_555 1_555
H60_4 C68_4 1_555 1_555
H61_4 C68_4 1_555 1_555
C69_4 C60_4 1_555 1_555
H62_4 C69_4 1_555 1_555
H63_4 C69_4 1_555 1_555
H64_4 C69_4 1_555 1_555
C70_4 C61_4 1_555 1_555
C71_4 C70_4 1_555 1_555
H65_4 C71_4 1_555 1_555
C72_4 C71_4 1_555 1_555
H66_4 C72_4 1_555 1_555
C73_4 C72_4 1_555 1_555
C74_4 C73_4 1_555 1_555
H67_4 C74_4 1_555 1_555
C75_4 C70_4 1_555 1_555
H68_4 C75_4 1_555 1_555
C76_4 C73_4 1_555 1_555
O22_4 Ti10_2 1_555 1_555
O23_4 C77_4 1_555 1_555
C77_4 O22_4 1_555 1_555
C78_4 C77_4 1_555 1_555
H69_4 C78_4 1_555 1_555
H70_4 C78_4 1_555 1_555
H71_4 C78_4 1_555 1_555
Ti5_4 O19_4 1_555 1_555
Ti9_2 O20_4 1_555 1_555
O24_4 Ti10_2 1_555 1_555
O25_4 Ti7 1_555 1_555
O30_4 Ti4 1_555 1_555
O31_4 Ti4 1_555 1_555
Ti7 O31_4 1_555 1_555
P2_4 O18_4 1_555 1_555
O20_4 Ti5_4 1_555 1_555
C17_4 C18_4 1_555 1_555
C23_4 C28_4 1_555 1_555
C27_4 C28_4 1_555 1_555
C46_4 C47_4 1_555 1_555
C53_4 C54_4 1_555 1_555
C59_4 C64_4 1_555 1_555
C63_4 C64_4 1_555 1_555
C74_4 C75_4 1_555 1_555
O21_4 H78_4 1_555 1_555
O21_4 H79_4 1_555 1_555
O5_4 C5_4 1_555 1_555
O6_4 C5_4 1_555 1_555
O26_2 C40_4 1_555 1_555
O27_2 C40_4 1_555 1_555
C5_4 C6_4 1_555 1_555
C6_4 C7_4 1_555 1_555
C7_4 H1_4 1_555 1_555
C8_4 C7_4 1_555 1_555
H2_4 C8_4 1_555 1_555
C9_4 C8_4 1_555 1_555
C10_4 C9_4 1_555 1_555
H3_4 C10_4 1_555 1_555
C11_4 C6_4 1_555 1_555
H4_4 C11_4 1_555 1_555
C13_4 C9_4 1_555 1_555
C14_4 C13_4 1_555 1_555
C22_4 C14_4 1_555 1_555
H15_4 C22_4 1_555 1_555
H16_4 C22_4 1_555 1_555
H17_4 C22_4 1_555 1_555
C25_4 C24_4 1_555 1_555
C26_4 C25_4 1_555 1_555
H18_4 C26_4 1_555 1_555
C33_4 C24_4 1_555 1_555
H28_4 C33_4 1_555 1_555
H29_4 C33_4 1_555 1_555
H30_4 C33_4 1_555 1_555
C34_4 C25_4 1_555 1_555
C35_4 C34_4 1_555 1_555
H31_4 C35_4 1_555 1_555
C36_4 C35_4 1_555 1_555
H32_4 C36_4 1_555 1_555
C37_4 C36_4 1_555 1_555
C38_4 C37_4 1_555 1_555
H33_4 C38_4 1_555 1_555
C39_4 C34_4 1_555 1_555
H34_4 C39_4 1_555 1_555
C40_4 C37_4 1_555 1_555
Ti8_2 O6_4 1_555 1_555
Ti11_4 O5_4 1_555 1_555
C10_4 C11_4 1_555 1_555
C38_4 C39_4 1_555 1_555
Ti5_3 O9_5 1_555 1_555
Ti8_2 O10_5 1_555 1_555
Ti11_4 O17_5 1_555 1_555
P1_5 O7_5 1_555 1_555
P2_5 O15_5 1_555 1_555
O24_4 C5_5 1_555 1_555
O25_4 C5_5 1_555 1_555
O7_5 C16_5 1_555 1_555
O8_5 P1_5 1_555 1_555
O9_5 P1_5 1_555 1_555
O10_5 P1_5 1_555 1_555
O15_5 C52_5 1_555 1_555
O16_5 P2_5 1_555 1_555
O17_5 P2_5 1_555 1_555
O18_5 Ti8_2 1_555 1_555
O21_5 Ti5_3 1_555 1_555
C5_5 C6_5 1_555 1_555
C6_5 C7_5 1_555 1_555
C7_5 H1_5 1_555 1_555
C8_5 C7_5 1_555 1_555
H2_5 C8_5 1_555 1_555
C9_5 C8_5 1_555 1_555
C10_5 C9_5 1_555 1_555
H3_5 C10_5 1_555 1_555
C11_5 C6_5 1_555 1_555
H4_5 C11_5 1_555 1_555
C12_5 C17_5 1_555 1_555
C13_5 C9_5 1_555 1_555
C14_5 C13_5 1_555 1_555
C15_5 C14_5 1_555 1_555
C16_5 C15_5 1_555 1_555
C17_5 C16_5 1_555 1_555
C18_5 C13_5 1_555 1_555
H5_5 C18_5 1_555 1_555
C19_5 C12_5 1_555 1_555
H6_5 C19_5 1_555 1_555
H7_5 C19_5 1_555 1_555
H8_5 C19_5 1_555 1_555
C20_5 C12_5 1_555 1_555
H9_5 C20_5 1_555 1_555
H10_5 C20_5 1_555 1_555
H11_5 C20_5 1_555 1_555
C21_5 C12_5 1_555 1_555
H12_5 C21_5 1_555 1_555
H13_5 C21_5 1_555 1_555
H14_5 C21_5 1_555 1_555
C22_5 C14_5 1_555 1_555
H15_5 C22_5 1_555 1_555
H16_5 C22_5 1_555 1_555
H17_5 C22_5 1_555 1_555
C23_5 C15_5 1_555 1_555
C24_5 C23_5 1_555 1_555
C25_5 C24_5 1_555 1_555
C26_5 C25_5 1_555 1_555
H18_5 C26_5 1_555 1_555
C27_5 C26_5 1_555 1_555
C28_5 O8_5 1_555 1_555
C29_5 C27_5 1_555 1_555
C30_5 C29_5 1_555 1_555
H19_5 C30_5 1_555 1_555
H20_5 C30_5 1_555 1_555
H21_5 C30_5 1_555 1_555
C31_5 C29_5 1_555 1_555
H22_5 C31_5 1_555 1_555
H23_5 C31_5 1_555 1_555
H24_5 C31_5 1_555 1_555
C32_5 C29_5 1_555 1_555
H25_5 C32_5 1_555 1_555
H26_5 C32_5 1_555 1_555
H27_5 C32_5 1_555 1_555
C33_5 C24_5 1_555 1_555
H28_5 C33_5 1_555 1_555
H29_5 C33_5 1_555 1_555
H30_5 C33_5 1_555 1_555
C34_5 C25_5 1_555 1_555
C35_5 C34_5 1_555 1_555
H31_5 C35_5 1_555 1_555
C38_5 C37_5 1_555 1_555
H33_5 C38_5 1_555 1_555
C39_5 C34_5 1_555 1_555
H34_5 C39_5 1_555 1_555
C48_5 C53_5 1_555 1_555
C52_5 C51_5 1_555 1_555
C53_5 C52_5 1_555 1_555
C55_5 C48_5 1_555 1_555
H40_5 C55_5 1_555 1_555
H41_5 C55_5 1_555 1_555
H42_5 C55_5 1_555 1_555
C56_5 C48_5 1_555 1_555
H43_5 C56_5 1_555 1_555
H44_5 C56_5 1_555 1_555
H45_5 C56_5 1_555 1_555
C57_5 C48_5 1_555 1_555
H46_5 C57_5 1_555 1_555
H47_5 C57_5 1_555 1_555
H48_5 C57_5 1_555 1_555
C59_5 C51_5 1_555 1_555
C64_5 O16_5 1_555 1_555
O27_3 Ti8_2 1_555 1_555
O28_3 Ti5_3 1_555 1_555
O29_3 Ti8_2 1_555 1_555
P2_5 O18_5 1_555 1_555
C10_5 C11_5 1_555 1_555
C17_5 C18_5 1_555 1_555
C23_5 C28_5 1_555 1_555
C27_5 C28_5 1_555 1_555
C38_5 C39_5 1_555 1_555
C53_5 C54_5 1_555 1_555
C59_5 C64_5 1_555 1_555
O21_5 H78_5 1_555 1_555
O21_5 H79_5 1_555 1_555
O12_3 C40_5 1_555 1_555
H32_5 C36_5 1_555 1_555
H52_5 C62_5 1_555 1_555
C63_5 C62_5 1_555 1_555
C65_5 C63_5 1_555 1_555
C66_5 C65_5 1_555 1_555
H53_5 C66_5 1_555 1_555
H54_5 C66_5 1_555 1_555
H55_5 C66_5 1_555 1_555
C67_5 C65_5 1_555 1_555
H56_5 C67_5 1_555 1_555
H57_5 C67_5 1_555 1_555
H58_5 C67_5 1_555 1_555
C68_5 C65_5 1_555 1_555
H61_5 C68_5 1_555 1_555
O23_5 C77_5 1_555 1_555
C77_5 O22_5 1_555 1_555
C78_5 C77_5 1_555 1_555
H69_5 C78_5 1_555 1_555
H70_5 C78_5 1_555 1_555
H71_5 C78_5 1_555 1_555
Ti8 O12_3 1_555 1_555
O13_3 C41_5 1_555 1_555
O14_3 C41_5 1_555 1_555
C41_5 C42_5 1_555 1_555
C42_5 C43_5 1_555 1_555
C43_5 H35_5 1_555 1_555
C44_5 C43_5 1_555 1_555
H36_5 C44_5 1_555 1_555
C45_5 C44_5 1_555 1_555
C46_5 C45_5 1_555 1_555
H37_5 C46_5 1_555 1_555
C47_5 C42_5 1_555 1_555
H38_5 C47_5 1_555 1_555
C49_5 C45_5 1_555 1_555
C50_5 C49_5 1_555 1_555
C58_5 C50_5 1_555 1_555
H49_5 C58_5 1_555 1_555
H50_5 C58_5 1_555 1_555
H51_5 C58_5 1_555 1_555
C69_5 C60_5 1_555 1_555
H63_5 C69_5 1_555 1_555
H64_5 C69_5 1_555 1_555
Ti5_2 O13_3 1_555 1_555
Ti9 O14_3 1_555 1_555
C46_5 C47_5 1_555 1_555
O30_3 C76_5 1_555 1_555
O31_3 C76_5 1_555 1_555
C70_5 C61_5 1_555 1_555
C71_5 C70_5 1_555 1_555
C72_5 C71_5 1_555 1_555
H66_5 C72_5 1_555 1_555
C73_5 C72_5 1_555 1_555
C74_5 C73_5 1_555 1_555
H67_5 C74_5 1_555 1_555
C75_5 C70_5 1_555 1_555
H68_5 C75_5 1_555 1_555
C76_5 C73_5 1_555 1_555
C74_5 C75_5 1_555 1_555
O13_4 C41_6 1_555 1_555
O14_4 C41_6 1_555 1_555
O30_4 C76_6 1_555 1_555
O31_4 C76_6 1_555 1_555
C41_6 C42_6 1_555 1_555
C42_6 C43_6 1_555 1_555
C43_6 H35_6 1_555 1_555
C44_6 C43_6 1_555 1_555
H36_6 C44_6 1_555 1_555
C45_6 C44_6 1_555 1_555
C46_6 C45_6 1_555 1_555
H37_6 C46_6 1_555 1_555
C47_6 C42_6 1_555 1_555
H38_6 C47_6 1_555 1_555
C49_6 C45_6 1_555 1_555
C50_6 C49_6 1_555 1_555
C58_6 C50_6 1_555 1_555
H49_6 C58_6 1_555 1_555
H50_6 C58_6 1_555 1_555
H51_6 C58_6 1_555 1_555
C61_6 C60_6 1_555 1_555
C69_6 C60_6 1_555 1_555
H62_6 C69_6 1_555 1_555
H63_6 C69_6 1_555 1_555
H64_6 C69_6 1_555 1_555
C70_6 C61_6 1_555 1_555
C71_6 C70_6 1_555 1_555
C72_6 C71_6 1_555 1_555
H66_6 C72_6 1_555 1_555
C73_6 C72_6 1_555 1_555
C74_6 C73_6 1_555 1_555
H67_6 C74_6 1_555 1_555
C75_6 C70_6 1_555 1_555
H68_6 C75_6 1_555 1_555
C76_6 C73_6 1_555 1_555
Ti5 O13_4 1_555 1_555
Ti8 O14_4 1_555 1_555
C46_6 C47_6 1_555 1_555
C74_6 C75_6 1_555 1_555
Ti5_4 O9_6 1_555 1_555
Ti9_2 O10_6 1_555 1_555
Ti11_3 O17_6 1_555 1_555
P1_6 O7_6 1_555 1_555
P2_6 O15_6 1_555 1_555
O24_3 C5_6 1_555 1_555
O25_3 C5_6 1_555 1_555
O7_6 C16_6 1_555 1_555
O8_6 P1_6 1_555 1_555
O9_6 P1_6 1_555 1_555
O10_6 P1_6 1_555 1_555
O11_4 C40_6 1_555 1_555
O12_4 C40_6 1_555 1_555
O15_6 C52_6 1_555 1_555
O16_6 P2_6 1_555 1_555
O17_6 P2_6 1_555 1_555
O18_6 Ti9_2 1_555 1_555
O21_6 Ti5_4 1_555 1_555
C5_6 C6_6 1_555 1_555
C6_6 C7_6 1_555 1_555
C7_6 H1_6 1_555 1_555
C8_6 C7_6 1_555 1_555
H2_6 C8_6 1_555 1_555
C9_6 C8_6 1_555 1_555
C10_6 C9_6 1_555 1_555
H3_6 C10_6 1_555 1_555
C11_6 C6_6 1_555 1_555
H4_6 C11_6 1_555 1_555
C12_6 C17_6 1_555 1_555
C13_6 C9_6 1_555 1_555
C14_6 C13_6 1_555 1_555
C15_6 C14_6 1_555 1_555
C16_6 C15_6 1_555 1_555
C17_6 C16_6 1_555 1_555
C18_6 C13_6 1_555 1_555
H5_6 C18_6 1_555 1_555
C19_6 C12_6 1_555 1_555
H6_6 C19_6 1_555 1_555
H7_6 C19_6 1_555 1_555
H8_6 C19_6 1_555 1_555
C20_6 C12_6 1_555 1_555
H9_6 C20_6 1_555 1_555
H10_6 C20_6 1_555 1_555
H11_6 C20_6 1_555 1_555
C21_6 C12_6 1_555 1_555
H12_6 C21_6 1_555 1_555
H13_6 C21_6 1_555 1_555
H14_6 C21_6 1_555 1_555
C22_6 C14_6 1_555 1_555
H15_6 C22_6 1_555 1_555
H16_6 C22_6 1_555 1_555
H17_6 C22_6 1_555 1_555
C23_6 C15_6 1_555 1_555
C24_6 C23_6 1_555 1_555
C25_6 C24_6 1_555 1_555
C26_6 C25_6 1_555 1_555
H18_6 C26_6 1_555 1_555
C27_6 C26_6 1_555 1_555
C28_6 O8_6 1_555 1_555
C29_6 C27_6 1_555 1_555
C30_6 C29_6 1_555 1_555
H19_6 C30_6 1_555 1_555
H20_6 C30_6 1_555 1_555
H21_6 C30_6 1_555 1_555
C31_6 C29_6 1_555 1_555
H22_6 C31_6 1_555 1_555
H23_6 C31_6 1_555 1_555
H24_6 C31_6 1_555 1_555
C32_6 C29_6 1_555 1_555
H25_6 C32_6 1_555 1_555
H26_6 C32_6 1_555 1_555
H27_6 C32_6 1_555 1_555
C33_6 C24_6 1_555 1_555
H28_6 C33_6 1_555 1_555
H29_6 C33_6 1_555 1_555
H30_6 C33_6 1_555 1_555
C34_6 C25_6 1_555 1_555
C35_6 C34_6 1_555 1_555
H31_6 C35_6 1_555 1_555
C36_6 C35_6 1_555 1_555
H32_6 C36_6 1_555 1_555
C37_6 C36_6 1_555 1_555
C38_6 C37_6 1_555 1_555
H33_6 C38_6 1_555 1_555
C39_6 C34_6 1_555 1_555
H34_6 C39_6 1_555 1_555
C40_6 C37_6 1_555 1_555
C48_6 C53_6 1_555 1_555
C52_6 C51_6 1_555 1_555
C53_6 C52_6 1_555 1_555
C55_6 C48_6 1_555 1_555
H40_6 C55_6 1_555 1_555
H41_6 C55_6 1_555 1_555
H42_6 C55_6 1_555 1_555
C56_6 C48_6 1_555 1_555
H43_6 C56_6 1_555 1_555
H44_6 C56_6 1_555 1_555
H45_6 C56_6 1_555 1_555
C57_6 C48_6 1_555 1_555
H46_6 C57_6 1_555 1_555
H47_6 C57_6 1_555 1_555
H48_6 C57_6 1_555 1_555
C59_6 C51_6 1_555 1_555
H52_6 C62_6 1_555 1_555
C63_6 C62_6 1_555 1_555
C64_6 O16_6 1_555 1_555
C65_6 C63_6 1_555 1_555
C66_6 C65_6 1_555 1_555
H53_6 C66_6 1_555 1_555
H54_6 C66_6 1_555 1_555
H55_6 C66_6 1_555 1_555
C67_6 C65_6 1_555 1_555
H56_6 C67_6 1_555 1_555
H57_6 C67_6 1_555 1_555
H58_6 C67_6 1_555 1_555
C68_6 C65_6 1_555 1_555
H59_6 C68_6 1_555 1_555
H60_6 C68_6 1_555 1_555
H61_6 C68_6 1_555 1_555
O22_6 Ti11_3 1_555 1_555
O23_6 C77_6 1_555 1_555
C77_6 O22_6 1_555 1_555
C78_6 C77_6 1_555 1_555
H69_6 C78_6 1_555 1_555
H70_6 C78_6 1_555 1_555
H71_6 C78_6 1_555 1_555
Ti9 O12_4 1_555 1_555
Ti11 O11_4 1_555 1_555
O26_4 Ti11_3 1_555 1_555
O27_4 Ti9_2 1_555 1_555
O28_4 Ti5_4 1_555 1_555
O29_4 Ti9_2 1_555 1_555
P2_6 O18_6 1_555 1_555
C10_6 C11_6 1_555 1_555
C17_6 C18_6 1_555 1_555
C23_6 C28_6 1_555 1_555
C27_6 C28_6 1_555 1_555
C38_6 C39_6 1_555 1_555
C53_6 C54_6 1_555 1_555
C59_6 C64_6 1_555 1_555
C63_6 C64_6 1_555 1_555
O21_6 H78_6 1_555 1_555
O21_6 H79_6 1_555 1_555
O27_3 C40_7 1_555 1_555
H32_7 C36_7 1_555 1_555
H52_7 C62_7 1_555 1_555
C63_7 C62_7 1_555 1_555
C65_7 C63_7 1_555 1_555
C66_7 C65_7 1_555 1_555
H53_7 C66_7 1_555 1_555
H54_7 C66_7 1_555 1_555
H55_7 C66_7 1_555 1_555
C67_7 C65_7 1_555 1_555
H56_7 C67_7 1_555 1_555
H57_7 C67_7 1_555 1_555
H58_7 C67_7 1_555 1_555
C68_7 C65_7 1_555 1_555
H61_7 C68_7 1_555 1_555
O23_7 C77_7 1_555 1_555
C77_7 O22_7 1_555 1_555
C78_7 C77_7 1_555 1_555
H69_7 C78_7 1_555 1_555
H70_7 C78_7 1_555 1_555
H71_7 C78_7 1_555 1_555
Ti5 O9_7 1_555 1_555
Ti8 O10_7 1_555 1_555
Ti11_2 O17_7 1_555 1_555
P1_7 O7_7 1_555 1_555
P2_7 O15_7 1_555 1_555
O24_2 C5_7 1_555 1_555
O25_2 C5_7 1_555 1_555
O7_7 C16_7 1_555 1_555
O8_7 P1_7 1_555 1_555
O9_7 P1_7 1_555 1_555
O10_7 P1_7 1_555 1_555
O15_7 C52_7 1_555 1_555
O16_7 P2_7 1_555 1_555
O17_7 P2_7 1_555 1_555
O18_7 Ti8 1_555 1_555
O21_7 Ti5 1_555 1_555
C5_7 C6_7 1_555 1_555
C6_7 C7_7 1_555 1_555
C7_7 H1_7 1_555 1_555
C8_7 C7_7 1_555 1_555
H2_7 C8_7 1_555 1_555
C9_7 C8_7 1_555 1_555
C10_7 C9_7 1_555 1_555
H3_7 C10_7 1_555 1_555
C11_7 C6_7 1_555 1_555
H4_7 C11_7 1_555 1_555
C12_7 C17_7 1_555 1_555
C13_7 C9_7 1_555 1_555
C14_7 C13_7 1_555 1_555
C15_7 C14_7 1_555 1_555
C16_7 C15_7 1_555 1_555
C17_7 C16_7 1_555 1_555
C18_7 C13_7 1_555 1_555
H5_7 C18_7 1_555 1_555
C19_7 C12_7 1_555 1_555
H6_7 C19_7 1_555 1_555
H7_7 C19_7 1_555 1_555
H8_7 C19_7 1_555 1_555
C20_7 C12_7 1_555 1_555
H9_7 C20_7 1_555 1_555
H10_7 C20_7 1_555 1_555
H11_7 C20_7 1_555 1_555
C21_7 C12_7 1_555 1_555
H12_7 C21_7 1_555 1_555
H13_7 C21_7 1_555 1_555
H14_7 C21_7 1_555 1_555
C22_7 C14_7 1_555 1_555
H15_7 C22_7 1_555 1_555
H16_7 C22_7 1_555 1_555
H17_7 C22_7 1_555 1_555
C23_7 C15_7 1_555 1_555
C24_7 C23_7 1_555 1_555
C25_7 C24_7 1_555 1_555
C26_7 C25_7 1_555 1_555
H18_7 C26_7 1_555 1_555
C27_7 C26_7 1_555 1_555
C28_7 O8_7 1_555 1_555
C29_7 C27_7 1_555 1_555
C30_7 C29_7 1_555 1_555
H19_7 C30_7 1_555 1_555
H20_7 C30_7 1_555 1_555
H21_7 C30_7 1_555 1_555
C31_7 C29_7 1_555 1_555
H22_7 C31_7 1_555 1_555
H23_7 C31_7 1_555 1_555
H24_7 C31_7 1_555 1_555
C32_7 C29_7 1_555 1_555
H25_7 C32_7 1_555 1_555
H26_7 C32_7 1_555 1_555
H27_7 C32_7 1_555 1_555
C33_7 C24_7 1_555 1_555
H28_7 C33_7 1_555 1_555
H29_7 C33_7 1_555 1_555
H30_7 C33_7 1_555 1_555
C34_7 C25_7 1_555 1_555
C35_7 C34_7 1_555 1_555
H31_7 C35_7 1_555 1_555
C38_7 C37_7 1_555 1_555
H33_7 C38_7 1_555 1_555
C39_7 C34_7 1_555 1_555
H34_7 C39_7 1_555 1_555
C48_7 C53_7 1_555 1_555
C52_7 C51_7 1_555 1_555
C53_7 C52_7 1_555 1_555
C55_7 C48_7 1_555 1_555
H40_7 C55_7 1_555 1_555
H41_7 C55_7 1_555 1_555
H42_7 C55_7 1_555 1_555
C56_7 C48_7 1_555 1_555
H43_7 C56_7 1_555 1_555
H44_7 C56_7 1_555 1_555
H45_7 C56_7 1_555 1_555
C57_7 C48_7 1_555 1_555
H46_7 C57_7 1_555 1_555
H47_7 C57_7 1_555 1_555
H48_7 C57_7 1_555 1_555
C59_7 C51_7 1_555 1_555
C64_7 O16_7 1_555 1_555
P2_7 O18_7 1_555 1_555
C10_7 C11_7 1_555 1_555
C17_7 C18_7 1_555 1_555
C23_7 C28_7 1_555 1_555
C27_7 C28_7 1_555 1_555
C38_7 C39_7 1_555 1_555
C53_7 C54_7 1_555 1_555
C59_7 C64_7 1_555 1_555
O21_7 H78_7 1_555 1_555
O21_7 H79_7 1_555 1_555
O30 C76_7 1_555 1_555
O31 C76_7 1_555 1_555
C70_7 C61_7 1_555 1_555
C71_7 C70_7 1_555 1_555
C72_7 C71_7 1_555 1_555
H66_7 C72_7 1_555 1_555
C73_7 C72_7 1_555 1_555
C74_7 C73_7 1_555 1_555
H67_7 C74_7 1_555 1_555
C75_7 C70_7 1_555 1_555
H68_7 C75_7 1_555 1_555
C76_7 C73_7 1_555 1_555
C74_7 C75_7 1_555 1_555
O28_4 C41_7 1_555 1_555
O29_4 C41_7 1_555 1_555
C41_7 C42_7 1_555 1_555
C42_7 C43_7 1_555 1_555
C43_7 H35_7 1_555 1_555
C44_7 C43_7 1_555 1_555
H36_7 C44_7 1_555 1_555
C45_7 C44_7 1_555 1_555
C46_7 C45_7 1_555 1_555
H37_7 C46_7 1_555 1_555
C47_7 C42_7 1_555 1_555
H38_7 C47_7 1_555 1_555
C49_7 C45_7 1_555 1_555
C50_7 C49_7 1_555 1_555
C58_7 C50_7 1_555 1_555
H49_7 C58_7 1_555 1_555
H50_7 C58_7 1_555 1_555
H51_7 C58_7 1_555 1_555
C69_7 C60_7 1_555 1_555
H63_7 C69_7 1_555 1_555
H64_7 C69_7 1_555 1_555
C46_7 C47_7 1_555 1_555
O28_3 C41_8 1_555 1_555
O29_3 C41_8 1_555 1_555
O30_2 C76_8 1_555 1_555
O31_2 C76_8 1_555 1_555
C41_8 C42_8 1_555 1_555
C42_8 C43_8 1_555 1_555
C43_8 H35_8 1_555 1_555
C44_8 C43_8 1_555 1_555
H36_8 C44_8 1_555 1_555
C45_8 C44_8 1_555 1_555
C46_8 C45_8 1_555 1_555
H37_8 C46_8 1_555 1_555
C47_8 C42_8 1_555 1_555
H38_8 C47_8 1_555 1_555
C49_8 C45_8 1_555 1_555
C50_8 C49_8 1_555 1_555
C58_8 C50_8 1_555 1_555
H49_8 C58_8 1_555 1_555
H50_8 C58_8 1_555 1_555
H51_8 C58_8 1_555 1_555
C61_8 C60_8 1_555 1_555
C69_8 C60_8 1_555 1_555
H62_8 C69_8 1_555 1_555
H63_8 C69_8 1_555 1_555
H64_8 C69_8 1_555 1_555
C70_8 C61_8 1_555 1_555
C71_8 C70_8 1_555 1_555
C72_8 C71_8 1_555 1_555
H66_8 C72_8 1_555 1_555
C73_8 C72_8 1_555 1_555
C74_8 C73_8 1_555 1_555
H67_8 C74_8 1_555 1_555
C75_8 C70_8 1_555 1_555
H68_8 C75_8 1_555 1_555
C76_8 C73_8 1_555 1_555
C46_8 C47_8 1_555 1_555
C74_8 C75_8 1_555 1_555
Ti5_2 O9_8 1_555 1_555
Ti9 O10_8 1_555 1_555
Ti11 O17_8 1_555 1_555
P1_8 O7_8 1_555 1_555
P2_8 O15_8 1_555 1_555
O24 C5_8 1_555 1_555
O25 C5_8 1_555 1_555
O7_8 C16_8 1_555 1_555
O8_8 P1_8 1_555 1_555
O9_8 P1_8 1_555 1_555
O10_8 P1_8 1_555 1_555
O26_4 C40_8 1_555 1_555
O27_4 C40_8 1_555 1_555
O15_8 C52_8 1_555 1_555
O16_8 P2_8 1_555 1_555
O17_8 P2_8 1_555 1_555
O18_8 Ti9 1_555 1_555
O21_8 Ti5_2 1_555 1_555
C5_8 C6_8 1_555 1_555
C6_8 C7_8 1_555 1_555
C7_8 H1_8 1_555 1_555
C8_8 C7_8 1_555 1_555
H2_8 C8_8 1_555 1_555
C9_8 C8_8 1_555 1_555
C10_8 C9_8 1_555 1_555
H3_8 C10_8 1_555 1_555
C11_8 C6_8 1_555 1_555
H4_8 C11_8 1_555 1_555
C12_8 C17_8 1_555 1_555
C13_8 C9_8 1_555 1_555
C14_8 C13_8 1_555 1_555
C15_8 C14_8 1_555 1_555
C16_8 C15_8 1_555 1_555
C17_8 C16_8 1_555 1_555
C18_8 C13_8 1_555 1_555
H5_8 C18_8 1_555 1_555
C19_8 C12_8 1_555 1_555
H6_8 C19_8 1_555 1_555
H7_8 C19_8 1_555 1_555
H8_8 C19_8 1_555 1_555
C20_8 C12_8 1_555 1_555
H9_8 C20_8 1_555 1_555
H10_8 C20_8 1_555 1_555
H11_8 C20_8 1_555 1_555
C21_8 C12_8 1_555 1_555
H12_8 C21_8 1_555 1_555
H13_8 C21_8 1_555 1_555
H14_8 C21_8 1_555 1_555
C22_8 C14_8 1_555 1_555
H15_8 C22_8 1_555 1_555
H16_8 C22_8 1_555 1_555
H17_8 C22_8 1_555 1_555
C23_8 C15_8 1_555 1_555
C24_8 C23_8 1_555 1_555
C25_8 C24_8 1_555 1_555
C26_8 C25_8 1_555 1_555
H18_8 C26_8 1_555 1_555
C27_8 C26_8 1_555 1_555
C28_8 O8_8 1_555 1_555
C29_8 C27_8 1_555 1_555
C30_8 C29_8 1_555 1_555
H19_8 C30_8 1_555 1_555
H20_8 C30_8 1_555 1_555
H21_8 C30_8 1_555 1_555
C31_8 C29_8 1_555 1_555
H22_8 C31_8 1_555 1_555
H23_8 C31_8 1_555 1_555
H24_8 C31_8 1_555 1_555
C32_8 C29_8 1_555 1_555
H25_8 C32_8 1_555 1_555
H26_8 C32_8 1_555 1_555
H27_8 C32_8 1_555 1_555
C33_8 C24_8 1_555 1_555
H28_8 C33_8 1_555 1_555
H29_8 C33_8 1_555 1_555
H30_8 C33_8 1_555 1_555
C34_8 C25_8 1_555 1_555
C35_8 C34_8 1_555 1_555
H31_8 C35_8 1_555 1_555
C36_8 C35_8 1_555 1_555
H32_8 C36_8 1_555 1_555
C37_8 C36_8 1_555 1_555
C38_8 C37_8 1_555 1_555
H33_8 C38_8 1_555 1_555
C39_8 C34_8 1_555 1_555
H34_8 C39_8 1_555 1_555
C40_8 C37_8 1_555 1_555
C48_8 C53_8 1_555 1_555
C52_8 C51_8 1_555 1_555
C53_8 C52_8 1_555 1_555
C55_8 C48_8 1_555 1_555
H40_8 C55_8 1_555 1_555
H41_8 C55_8 1_555 1_555
H42_8 C55_8 1_555 1_555
C56_8 C48_8 1_555 1_555
H43_8 C56_8 1_555 1_555
H44_8 C56_8 1_555 1_555
H45_8 C56_8 1_555 1_555
C57_8 C48_8 1_555 1_555
H46_8 C57_8 1_555 1_555
H47_8 C57_8 1_555 1_555
H48_8 C57_8 1_555 1_555
C59_8 C51_8 1_555 1_555
H52_8 C62_8 1_555 1_555
C63_8 C62_8 1_555 1_555
C64_8 O16_8 1_555 1_555
C65_8 C63_8 1_555 1_555
C66_8 C65_8 1_555 1_555
H53_8 C66_8 1_555 1_555
H54_8 C66_8 1_555 1_555
H55_8 C66_8 1_555 1_555
C67_8 C65_8 1_555 1_555
H56_8 C67_8 1_555 1_555
H57_8 C67_8 1_555 1_555
H58_8 C67_8 1_555 1_555
C68_8 C65_8 1_555 1_555
H59_8 C68_8 1_555 1_555
H60_8 C68_8 1_555 1_555
H61_8 C68_8 1_555 1_555
O22_8 Ti11 1_555 1_555
O23_8 C77_8 1_555 1_555
C77_8 O22_8 1_555 1_555
C78_8 C77_8 1_555 1_555
H69_8 C78_8 1_555 1_555
H70_8 C78_8 1_555 1_555
H71_8 C78_8 1_555 1_555
P2_8 O18_8 1_555 1_555
C10_8 C11_8 1_555 1_555
C17_8 C18_8 1_555 1_555
C23_8 C28_8 1_555 1_555
C27_8 C28_8 1_555 1_555
C38_8 C39_8 1_555 1_555
C53_8 C54_8 1_555 1_555
C59_8 C64_8 1_555 1_555
C63_8 C64_8 1_555 1_555
O21_8 H78_8 1_555 1_555
O21_8 H79_8 1_555 1_555

#END
