
###############################################################################
#
# This file contains modified crystal structure data generated from the
# MOF subset of the Cambridge Structural Database (CSD) v543 
# hosted by the Cambridge Crystallographic Data Centre (CCDC).
#
# This work is licensed under the Creative Commons
# Attribution-NonCommercial-ShareAlike 4.0 International License.
# To view a copy of this license, visit
# http://creativecommons.org/licenses/by-nc-sa/4.0/
# or send a letter to
# Creative Commons, PO Box 1866, Mountain View, CA 94042, USA.
#
# CIF created using the CSD Python API on 29 September 2022
# The structure has been converted into the P1 space group
# The structure has a 3D framework
# The original CSD entry WERCII is in the orthorhombic crystal system
# The original CSD entry WERCII is in a Sohncke space group
# The framework has been calculated to contain at least 10.0% void space
# The void calculation uses a probe of radius 1.32A, grid spacing 0.4
# The framework is charged, counterions have been retained in the structure
# H atom positions have been added when not included in the experimental data
#
###############################################################################

data_WERCII
_chemical_formula_moiety         '(C624 H632 Cr24 O184 P16)n'
_symmetry_cell_setting           triclinic
_symmetry_space_group_name_H-M   'P 1'
_symmetry_Int_Tables_number      1
_space_group_name_Hall           'P 1'
loop_
_symmetry_equiv_pos_site_id
_symmetry_equiv_pos_as_xyz
1 x,y,z
_cell_length_a                   26.8122(5)
_cell_length_b                   29.1445(5)
_cell_length_c                   29.4502(5)
_cell_angle_alpha                90
_cell_angle_beta                 90
_cell_angle_gamma                90
_cell_volume                     23013.2
loop_
_atom_site_label
_atom_site_type_symbol
_atom_site_fract_x
_atom_site_fract_y
_atom_site_fract_z
O1 O 0.4804(7) 0.4479(7) 0.1204(7)
O2 O 0.4235(7) 0.4154(7) 0.1618(7)
C1 C 0.4507(8) 0.4179(7) 0.1278(7)
C2 C 0.4384(12) 0.3904(10) 0.0850(9)
H74 H 0.47231 0.374721 0.0718303
H75 H 0.411468 0.363704 0.0932557
H76 H 0.422665 0.413198 0.0594439
O1_2 O 0.5196(7) 0.5521(7) 0.6204(7)
O2_2 O 0.5765(7) 0.5846(7) 0.6618(7)
C1_2 C 0.5493(8) 0.5821(7) 0.6278(7)
C2_2 C 0.5616(12) 0.6096(10) 0.5850(9)
H74_2 H 0.52769 0.625279 0.57183
H75_2 H 0.588532 0.636296 0.593256
H76_2 H 0.577335 0.586802 0.559444
O1_3 O 0.4804(7) 0.5521(7) 0.8796(7)
O2_3 O 0.4235(7) 0.5846(7) 0.8382(7)
C1_3 C 0.4507(8) 0.5821(7) 0.8722(7)
C2_3 C 0.4384(12) 0.6096(10) 0.9150(9)
H74_3 H 0.47231 0.625279 0.92817
H75_3 H 0.411468 0.636296 0.906744
H76_3 H 0.422665 0.586802 0.940556
O1_4 O 0.5196(7) 0.4479(7) 0.3796(7)
O2_4 O 0.5765(7) 0.4154(7) 0.3382(7)
C1_4 C 0.5493(8) 0.4179(7) 0.3722(7)
C2_4 C 0.5616(12) 0.3904(10) 0.4150(9)
H74_4 H 0.52769 0.374721 0.42817
H75_4 H 0.588532 0.363704 0.406744
H76_4 H 0.577335 0.413198 0.440556
O1_5 O 0.9804(7) 0.9479(7) 0.1204(7)
O2_5 O 0.9235(7) 0.9154(7) 0.1618(7)
C1_5 C 0.9507(8) 0.9179(7) 0.1278(7)
C2_5 C 0.9384(12) 0.8904(10) 0.0850(9)
H74_5 H 0.97231 0.874721 0.0718303
H75_5 H 0.911468 0.863704 0.0932557
H76_5 H 0.922665 0.913198 0.0594439
O1_6 O 0.0196(7) 0.0521(7) 0.6204(7)
O2_6 O 0.0765(7) 0.0846(7) 0.6618(7)
C1_6 C 0.0493(8) 0.0821(7) 0.6278(7)
C2_6 C 0.0616(12) 0.1096(10) 0.5850(9)
H74_6 H 0.0276895 0.125279 0.57183
H75_6 H 0.0885322 0.136296 0.593256
H76_6 H 0.0773349 0.0868019 0.559444
O1_7 O 0.9804(7) 0.0521(7) 0.8796(7)
O2_7 O 0.9235(7) 0.0846(7) 0.8382(7)
C1_7 C 0.9507(8) 0.0821(7) 0.8722(7)
C2_7 C 0.9384(12) 0.1096(10) 0.9150(9)
H74_7 H 0.97231 0.125279 0.92817
H75_7 H 0.911468 0.136296 0.906744
H76_7 H 0.922665 0.0868019 0.940556
O1_8 O 0.0196(7) 0.9479(7) 0.3796(7)
O2_8 O 0.0765(7) 0.9154(7) 0.3382(7)
C1_8 C 0.0493(8) 0.9179(7) 0.3722(7)
C2_8 C 0.0616(12) 0.8904(10) 0.4150(9)
H74_8 H 0.0276895 0.874721 0.42817
H75_8 H 0.0885322 0.863704 0.406744
H76_8 H 0.0773349 0.913198 0.440556
O3 O 0.5517(7) 0.1586(7) 0.1562(7)
O4 O 0.4942(7) 0.1393(6) 0.2064(3)
C3 C 0.5238(7) 0.1299(7) 0.1751(6)
C4 C 0.5198(10) 0.0809(7) 0.1575(9)
H77 H 0.556336 0.0646283 0.158766
H78 H 0.49376 0.0616891 0.178568
H79 H 0.506444 0.0813462 0.122582
O3_2 O 0.4483(7) 0.8414(7) 0.6562(7)
O4_2 O 0.5058(7) 0.8607(6) 0.7064(3)
C3_2 C 0.4762(7) 0.8701(7) 0.6751(6)
C4_2 C 0.4802(10) 0.9191(7) 0.6575(9)
H77_2 H 0.443664 0.935372 0.658766
H78_2 H 0.50624 0.938311 0.678568
H79_2 H 0.493556 0.918654 0.622582
O3_3 O 0.5517(7) 0.8414(7) 0.8438(7)
O4_3 O 0.4942(7) 0.8607(6) 0.7936(3)
C3_3 C 0.5238(7) 0.8701(7) 0.8249(6)
C4_3 C 0.5198(10) 0.9191(7) 0.8425(9)
H77_3 H 0.556336 0.935372 0.841234
H78_3 H 0.49376 0.938311 0.821432
H79_3 H 0.506444 0.918654 0.877418
O3_4 O 0.4483(7) 0.1586(7) 0.3438(7)
O4_4 O 0.5058(7) 0.1393(6) 0.2936(3)
C3_4 C 0.4762(7) 0.1299(7) 0.3249(6)
C4_4 C 0.4802(10) 0.0809(7) 0.3425(9)
H77_4 H 0.443664 0.0646283 0.341234
H78_4 H 0.50624 0.0616891 0.321432
H79_4 H 0.493556 0.0813462 0.377418
O3_5 O 0.0517(7) 0.6586(7) 0.1562(7)
C3_5 C 0.0238(7) 0.6299(7) 0.1751(6)
C4_5 C 0.0198(10) 0.5809(7) 0.1575(9)
H77_5 H 0.056336 0.564628 0.158766
H79_5 H 0.00644403 0.581346 0.122582
O4_5 O 0.9942(7) 0.6393(6) 0.2064(3)
H78_5 H 0.99376 0.561689 0.178568
O4_6 O 0.0058(7) 0.3607(6) 0.7064(3)
H78_6 H 0.00624013 0.438311 0.678568
O3_6 O 0.9483(7) 0.3414(7) 0.6562(7)
C3_6 C 0.9762(7) 0.3701(7) 0.6751(6)
C4_6 C 0.9802(10) 0.4191(7) 0.6575(9)
H77_6 H 0.943664 0.435372 0.658766
H79_6 H 0.993556 0.418654 0.622582
O3_7 O 0.0517(7) 0.3414(7) 0.8438(7)
C3_7 C 0.0238(7) 0.3701(7) 0.8249(6)
C4_7 C 0.0198(10) 0.4191(7) 0.8425(9)
H77_7 H 0.056336 0.435372 0.841234
H79_7 H 0.00644403 0.418654 0.877418
O4_7 O 0.9942(7) 0.3607(6) 0.7936(3)
H78_7 H 0.99376 0.438311 0.821432
O4_8 O 0.0058(7) 0.6393(6) 0.2936(3)
H78_8 H 0.00624013 0.561689 0.321432
O3_8 O 0.9483(7) 0.6586(7) 0.3438(7)
C3_8 C 0.9762(7) 0.6299(7) 0.3249(6)
C4_8 C 0.9802(10) 0.5809(7) 0.3425(9)
H77_8 H 0.943664 0.564628 0.341234
H79_8 H 0.993556 0.581346 0.377418
Cr1 Cr 0.80957(3) 0.20025(3) 0.25332(3)
Cr2 Cr 0.74078(5) 0.20913(4) 0.13395(4)
Cr3 Cr 0.72768(4) 0.27497(3) 0.01179(3)
P1 P 0.77924(8) 0.11259(6) 0.19444(6)
P2 P 0.63492(6) 0.23539(7) 0.06979(6)
O7 O 0.7300(2) 0.08289(16) 0.20370(17)
O8 O 0.82292(19) 0.07549(15) 0.18836(16)
O9 O 0.7941(2) 0.13663(18) 0.23685(17)
O10 O 0.7682(2) 0.13806(15) 0.15277(15)
O13 O 0.24820(16) 0.23519(17) 0.23012(14)
O14 O 0.29231(15) 0.21610(17) 0.29176(14)
O15 O 0.60127(16) 0.27989(19) 0.07791(15)
O16 O 0.59630(19) 0.1955(2) 0.05878(17)
O17 O 0.6641(2) 0.2466(2) 0.02884(16)
O18 O 0.66020(15) 0.2187(2) 0.11140(15)
O21 O 0.8415(2) 0.1914(3) 0.31403(19)
C12 C 0.6667(3) 0.0825(3) 0.2845(3)
C15 C 0.75847(18) 0.00778(14) 0.21671(12)
C16 C 0.7289(2) 0.04480(12) 0.22932(14)
C17 C 0.7023(2) 0.04343(13) 0.26981(15)
C18 C 0.70525(19) 0.00504(15) 0.29768(13)
H5 H 0.6874 0.0041 0.3248
C19 C 0.6327(5) 0.0693(4) 0.3268(4)
H6 H 0.6120 0.0436 0.3190
H7 H 0.6121 0.0949 0.3348
H8 H 0.6536 0.0613 0.3521
C20 C 0.6966(4) 0.1234(3) 0.3037(3)
H9 H 0.7191 0.1347 0.2809
H10 H 0.7153 0.1136 0.3298
H11 H 0.6741 0.1475 0.3124
C21 C 0.6345(4) 0.1003(4) 0.2467(4)
H12 H 0.6551 0.1082 0.2212
H13 H 0.6169 0.1271 0.2569
H14 H 0.6110 0.0771 0.2379
C23 C 0.78109(16) 0.00733(14) 0.16825(11)
C27 C 0.84467(16) 0.03594(13) 0.11794(15)
C28 C 0.81721(17) 0.03987(12) 0.15779(13)
C29 C 0.8891(3) 0.0693(2) 0.1090(3)
C30 C 0.9280(5) 0.0631(5) 0.1461(5)
H19 H 0.9555 0.0835 0.1407
H20 H 0.9398 0.0319 0.1459
H21 H 0.9134 0.0698 0.1751
C31 C 0.9140(5) 0.0590(4) 0.0637(4)
H22 H 0.9412 0.0800 0.0590
H23 H 0.8901 0.0625 0.0397
H24 H 0.9264 0.0281 0.0639
C32 C 0.8767(4) 0.1202(2) 0.1068(3)
H25 H 0.9066 0.1374 0.1012
H26 H 0.8624 0.1298 0.1352
H27 H 0.8533 0.1256 0.0827
C41 C 0.2890(2) 0.2300(2) 0.2527(2)
C42 C 0.33613(11) 0.24444(16) 0.22753(12)
C43 C 0.33382(11) 0.26782(17) 0.18644(13)
H35 H 0.3033 0.2783 0.1755
C44 C 0.37712(13) 0.27560(18) 0.16165(12)
H36 H 0.3756 0.2912 0.1342
C45 C 0.42273(11) 0.26000(18) 0.17794(13)
C46 C 0.42503(11) 0.23662(16) 0.21903(13)
H37 H 0.4555 0.2262 0.2299
C47 C 0.38174(13) 0.22884(15) 0.24382(10)
H38 H 0.3833 0.2132 0.2713
C48 C 0.5900(2) 0.3369(3) 0.1604(2)
C49 C 0.46888(12) 0.26893(18) 0.14921(13)
C50 C 0.47520(13) 0.24751(17) 0.10743(13)
C51 C 0.51957(14) 0.25291(17) 0.08363(11)
C52 C 0.55764(12) 0.27972(18) 0.10160(13)
C53 C 0.55132(12) 0.30113(15) 0.14337(13)
C54 C 0.50694(14) 0.29574(16) 0.16718(11)
H39 H 0.5027 0.3101 0.1951
C55 C 0.5961(4) 0.3759(3) 0.1260(4)
H40 H 0.5641 0.3895 0.1200
H41 H 0.6096 0.3638 0.0982
H42 H 0.6183 0.3986 0.1380
C56 C 0.6422(3) 0.3155(3) 0.1697(3)
H43 H 0.6646 0.3390 0.1800
H44 H 0.6549 0.3022 0.1422
H45 H 0.6393 0.2922 0.1926
C57 C 0.5738(3) 0.3580(4) 0.2057(3)
H46 H 0.5417 0.3723 0.2022
H47 H 0.5978 0.3805 0.2151
H48 H 0.5716 0.3343 0.2283
C58 C 0.4356(3) 0.2133(4) 0.0912(3)
H49 H 0.4449 0.2014 0.0620
H50 H 0.4040 0.2286 0.0889
H51 H 0.4331 0.1885 0.1126
C59 C 0.52454(18) 0.2359(2) 0.03485(13)
C60 C 0.48995(18) 0.2475(2) 0.00163(15)
C64 C 0.56069(18) 0.2029(2) 0.02590(15)
H58 H 0.6551 0.1574 0.0113
C68 C 0.5858(6) 0.1020(7) 0.0078(8)
H59 H 0.6067 0.0760 0.0016
H60 H 0.5514 0.0931 0.0055
H61 H 0.5924 0.1130 0.0379
C69 C 0.4548(3) 0.2895(4) 0.0096(3)
H63 H 0.4746 0.3167 0.0134
H64 H 0.4352 0.2844 0.0364
Cr4 Cr 0.19043(3) 0.20025(3) 0.24668(3)
Cr7 Cr 0.25922(5) 0.20913(4) 0.36605(4)
O24 O 0.7430(3) 0.33147(16) 0.04467(18)
O25 O 0.7505(2) 0.28080(17) 0.10047(15)
O27 O 0.76339(18) 0.18336(16) 0.06064(14)
O28 O 0.75180(16) 0.23519(17) 0.26988(14)
O29 O 0.70769(15) 0.21610(17) 0.20824(14)
O30 O 0.87195(17) 0.2215(3) 0.22389(16)
O31 O 0.81097(18) 0.23019(18) 0.17577(15)
H72 H 0.871501 0.171707 0.310706
H73 H 0.851419 0.221672 0.326594
O19 O 0.37195(17) 0.2785(3) 0.77611(16)
O20 O 0.31097(18) 0.26981(18) 0.82423(15)
C61 C 0.4915(2) 0.2261(3) 0.95946(14)
C62 C 0.5276(2) 0.1932(3) 0.95050(16)
H52 H 0.5287 0.1789 0.9223
C63 C 0.5622(2) 0.1816(2) 0.98373(19)
C65 C 0.5968(5) 0.1406(6) 0.9729(5)
C66 C 0.5869(6) 0.1163(8) 0.9296(8)
H53 H 0.5922 0.1369 0.9047
H54 H 0.5530 0.1057 0.9293
H55 H 0.6091 0.0906 0.9269
C67 C 0.6497(5) 0.1474(8) 0.9806(8)
H56 H 0.6621 0.1702 0.9600
H57 H 0.6671 0.1190 0.9756
H62 H 0.4331 0.2931 0.9839
C70 C 0.45749(15) 0.2384(3) 0.92194(13)
C71 C 0.47531(12) 0.2493(3) 0.87896(15)
H65 H 0.5095 0.2505 0.8737
C72 C 0.44207(17) 0.2584(3) 0.84389(12)
H66 H 0.4540 0.2658 0.8151
C73 C 0.39100(15) 0.2566(2) 0.85179(12)
C74 C 0.37317(12) 0.2457(2) 0.89477(14)
H67 H 0.3390 0.2445 0.9001
C75 C 0.40641(16) 0.2366(2) 0.92985(12)
H68 H 0.3945 0.2293 0.9586
C76 C 0.3556(3) 0.2676(3) 0.8160(3)
O22 O 0.7087(3) 0.3053(3) 0.95550(18)
O23 O 0.6977(5) 0.3358(3) 0.8886(2)
C77 C 0.7177(7) 0.3098(6) 0.9162(5)
C78 C 0.7511(9) 0.2732(8) 0.8964(9)
H69 H 0.7641 0.2544 0.9205
H70 H 0.7782 0.2874 0.8804
H71 H 0.7322 0.2544 0.8758
Cr5 Cr 0.30957(3) 0.29975(3) 0.74668(3)
Cr8 Cr 0.24078(5) 0.29087(4) 0.86605(4)
O26 O 0.77630(17) 0.22872(16) 0.99933(16)
O5 O 0.7570(3) 0.83147(16) 0.45533(18)
O6 O 0.7495(2) 0.78080(17) 0.39953(15)
O11 O 0.77630(17) 0.77128(16) 0.00067(16)
C5 C 0.7500(3) 0.8208(2) 0.4116(2)
C6 C 0.7435(2) 0.85905(12) 0.38063(12)
C7 C 0.7296(2) 0.84962(11) 0.33615(13)
H1 H 0.7217 0.8197 0.3276
C8 C 0.7272(2) 0.88484(14) 0.30440(11)
H2 H 0.7179 0.8785 0.2746
C9 C 0.7389(2) 0.92949(12) 0.31712(12)
C10 C 0.7529(2) 0.93892(10) 0.36160(14)
H3 H 0.7607 0.9688 0.3701
C11 C 0.7552(2) 0.90370(14) 0.39336(11)
H4 H 0.7646 0.9100 0.4231
C13 C 0.7349(2) 0.96802(12) 0.28506(14)
C14 C 0.76146(19) 0.96939(12) 0.24458(14)
C22 C 0.8018(3) 0.9314(2) 0.2340(3)
H15 H 0.7994 0.9073 0.2560
H16 H 0.8345 0.9448 0.2353
H17 H 0.7961 0.9191 0.2042
C24 C 0.77243(16) 0.97086(12) 0.13887(13)
C25 C 0.79989(18) 0.96694(12) 0.09903(12)
C26 C 0.83600(18) 0.99947(14) 0.08856(13)
H18 H 0.8544 0.9968 0.0619
C33 C 0.7271(3) 0.9384(3) 0.1463(3)
H28 H 0.7268 0.9153 0.1230
H29 H 0.6968 0.9559 0.1448
H30 H 0.7297 0.9240 0.1755
C34 C 0.7947(2) 0.92655(11) 0.06787(13)
C35 C 0.7853(2) 0.93290(10) 0.02188(13)
H31 H 0.7820 0.9624 0.0102
C37 C 0.78581(19) 0.85106(11) 0.01074(12)
C38 C 0.7952(2) 0.84472(10) 0.05673(12)
H33 H 0.7985 0.8152 0.0684
C39 C 0.7997(2) 0.88246(13) 0.08530(10)
H34 H 0.8060 0.8782 0.1161
Cr9 Cr 0.75922(5) 0.70913(4) 0.36605(4)
Cr11 Cr 0.77232(4) 0.77497(3) 0.48821(3)
O12 O 0.76339(18) 0.81664(16) 0.93936(14)
C36 C 0.7809(2) 0.89515(13) 0.99332(10)
H32 H 0.7746 0.8994 0.9626
C40 C 0.7739(2) 0.8103(2) 0.9807(2)
Cr6 Cr 0.74078(5) 0.79087(4) 0.86605(4)
Cr10 Cr 0.72768(4) 0.72503(3) 0.98821(3)
O5_2 O 0.2430(3) 0.16853(16) 0.95533(18)
O6_2 O 0.2505(2) 0.21920(17) 0.89953(15)
O11_2 O 0.22370(17) 0.22872(16) 0.50067(16)
O12_2 O 0.23661(18) 0.18336(16) 0.43936(14)
C5_2 C 0.2500(3) 0.1792(2) 0.9116(2)
C6_2 C 0.2565(2) 0.14095(12) 0.88063(12)
C7_2 C 0.2704(2) 0.15038(11) 0.83615(13)
H1_2 H 0.2783 0.1803 0.8276
C8_2 C 0.2728(2) 0.11516(14) 0.80440(11)
H2_2 H 0.2821 0.1215 0.7746
C9_2 C 0.2611(2) 0.07051(12) 0.81712(12)
C10_2 C 0.2471(2) 0.06108(10) 0.86160(14)
H3_2 H 0.2393 0.0312 0.8701
C11_2 C 0.2448(2) 0.09630(14) 0.89336(11)
H4_2 H 0.2354 0.0900 0.9231
C13_2 C 0.2651(2) 0.03198(12) 0.78506(14)
C14_2 C 0.23854(19) 0.03061(12) 0.74458(14)
C22_2 C 0.1982(3) 0.0686(2) 0.7340(3)
H15_2 H 0.2006 0.0927 0.7560
H16_2 H 0.1655 0.0552 0.7353
H17_2 H 0.2039 0.0809 0.7042
C24_2 C 0.22757(16) 0.02914(12) 0.63887(13)
C25_2 C 0.20011(18) 0.03306(12) 0.59903(12)
C26_2 C 0.16400(18) 0.00053(14) 0.58856(13)
H18_2 H 0.1456 0.0032 0.5619
C33_2 C 0.2729(3) 0.0616(3) 0.6463(3)
H28_2 H 0.2732 0.0847 0.6230
H29_2 H 0.3032 0.0441 0.6448
H30_2 H 0.2703 0.0760 0.6755
C34_2 C 0.2053(2) 0.07345(11) 0.56787(13)
C35_2 C 0.2147(2) 0.06710(10) 0.52188(13)
H31_2 H 0.2180 0.0376 0.5102
C36_2 C 0.2191(2) 0.10485(13) 0.49332(10)
H32_2 H 0.2254 0.1006 0.4626
C37_2 C 0.21419(19) 0.14894(11) 0.51074(12)
C38_2 C 0.2048(2) 0.15528(10) 0.55673(12)
H33_2 H 0.2015 0.1848 0.5684
C39_2 C 0.2003(2) 0.11754(13) 0.58530(10)
H34_2 H 0.1940 0.1218 0.6161
C40_2 C 0.2261(2) 0.1897(2) 0.4807(2)
Cr10_2 Cr 0.27232(4) 0.27497(3) 0.48821(3)
Cr11_2 Cr 0.22768(4) 0.22503(3) 0.98821(3)
Cr1_2 Cr 0.19043(3) 0.79975(3) 0.75332(3)
Cr2_2 Cr 0.25922(5) 0.79087(4) 0.63395(4)
Cr3_2 Cr 0.27232(4) 0.72503(3) 0.51179(3)
P1_2 P 0.22076(8) 0.88741(6) 0.69444(6)
P2_2 P 0.36508(6) 0.76461(7) 0.56979(6)
O7_2 O 0.2700(2) 0.91711(16) 0.70370(17)
O8_2 O 0.17708(19) 0.92451(15) 0.68836(16)
O9_2 O 0.2059(2) 0.86337(18) 0.73685(17)
O10_2 O 0.2318(2) 0.86194(15) 0.65277(15)
O13_2 O 0.75180(16) 0.76481(17) 0.73012(14)
O14_2 O 0.70769(15) 0.78390(17) 0.79176(14)
O15_2 O 0.39873(16) 0.72011(19) 0.57791(15)
O16_2 O 0.40370(19) 0.8045(2) 0.55878(17)
O17_2 O 0.3359(2) 0.7534(2) 0.52884(16)
O18_2 O 0.33980(15) 0.7813(2) 0.61140(15)
O19_2 O 0.62805(17) 0.7215(3) 0.27611(16)
O20_2 O 0.68903(18) 0.73019(18) 0.32423(15)
O21_2 O 0.1585(2) 0.8086(3) 0.81403(19)
C12_2 C 0.3333(3) 0.9175(3) 0.7845(3)
C15_2 C 0.24153(18) 0.99222(14) 0.71671(12)
C16_2 C 0.2711(2) 0.95520(12) 0.72932(14)
C17_2 C 0.2977(2) 0.95657(13) 0.76981(15)
C18_2 C 0.29475(19) 0.99496(15) 0.79768(13)
H5_2 H 0.3126 0.9959 0.8248
C19_2 C 0.3673(5) 0.9307(4) 0.8268(4)
H6_2 H 0.3880 0.9564 0.8190
H7_2 H 0.3879 0.9051 0.8348
H8_2 H 0.3464 0.9387 0.8521
C20_2 C 0.3034(4) 0.8766(3) 0.8037(3)
H9_2 H 0.2809 0.8653 0.7809
H10_2 H 0.2847 0.8864 0.8298
H11_2 H 0.3259 0.8525 0.8124
C21_2 C 0.3655(4) 0.8997(4) 0.7467(4)
H12_2 H 0.3449 0.8918 0.7212
H13_2 H 0.3831 0.8729 0.7569
H14_2 H 0.3890 0.9229 0.7379
C23_2 C 0.21891(16) 0.99267(14) 0.66825(11)
C27_2 C 0.15533(16) 0.96406(13) 0.61794(15)
C28_2 C 0.18279(17) 0.96013(12) 0.65779(13)
C29_2 C 0.1109(3) 0.9307(2) 0.6090(3)
C30_2 C 0.0720(5) 0.9369(5) 0.6461(5)
H19_2 H 0.0445 0.9165 0.6407
H20_2 H 0.0602 0.9681 0.6459
H21_2 H 0.0866 0.9302 0.6751
C31_2 C 0.0860(5) 0.9410(4) 0.5637(4)
H22_2 H 0.0588 0.9200 0.5590
H23_2 H 0.1099 0.9375 0.5397
H24_2 H 0.0736 0.9719 0.5639
C32_2 C 0.1233(4) 0.8798(2) 0.6068(3)
H25_2 H 0.0934 0.8626 0.6012
H26_2 H 0.1376 0.8702 0.6352
H27_2 H 0.1467 0.8744 0.5827
C41_2 C 0.7110(2) 0.7700(2) 0.7527(2)
C42_2 C 0.66387(11) 0.75556(16) 0.72753(12)
C43_2 C 0.66618(11) 0.73218(17) 0.68644(13)
H35_2 H 0.6967 0.7217 0.6755
C44_2 C 0.62288(13) 0.72440(18) 0.66165(12)
H36_2 H 0.6244 0.7088 0.6342
C45_2 C 0.57727(11) 0.74000(18) 0.67794(13)
C46_2 C 0.57497(11) 0.76338(16) 0.71903(13)
H37_2 H 0.5445 0.7738 0.7299
C47_2 C 0.61826(13) 0.77116(15) 0.74382(10)
H38_2 H 0.6167 0.7868 0.7713
C48_2 C 0.4100(2) 0.6631(3) 0.6604(2)
C49_2 C 0.53112(12) 0.73107(18) 0.64921(13)
C50_2 C 0.52480(13) 0.75249(17) 0.60743(13)
C51_2 C 0.48043(14) 0.74709(17) 0.58363(11)
C52_2 C 0.44236(12) 0.72028(18) 0.60160(13)
C53_2 C 0.44868(12) 0.69887(15) 0.64337(13)
C54_2 C 0.49306(14) 0.70426(16) 0.66718(11)
H39_2 H 0.4973 0.6899 0.6951
C55_2 C 0.4039(4) 0.6241(3) 0.6260(4)
H40_2 H 0.4359 0.6105 0.6200
H41_2 H 0.3904 0.6362 0.5982
H42_2 H 0.3817 0.6014 0.6380
C56_2 C 0.3578(3) 0.6845(3) 0.6697(3)
H43_2 H 0.3354 0.6610 0.6800
H44_2 H 0.3451 0.6978 0.6422
H45_2 H 0.3607 0.7078 0.6926
C57_2 C 0.4262(3) 0.6420(4) 0.7057(3)
H46_2 H 0.4583 0.6277 0.7022
H47_2 H 0.4022 0.6195 0.7151
H48_2 H 0.4284 0.6657 0.7283
C58_2 C 0.5644(3) 0.7867(4) 0.5912(3)
H49_2 H 0.5551 0.7986 0.5620
H50_2 H 0.5960 0.7714 0.5889
H51_2 H 0.5669 0.8115 0.6126
C59_2 C 0.47546(18) 0.7641(2) 0.53485(13)
C60_2 C 0.51005(18) 0.7525(2) 0.50163(15)
C61_2 C 0.5085(2) 0.7739(3) 0.45946(14)
C62_2 C 0.4724(2) 0.8068(3) 0.45050(16)
H52_2 H 0.4713 0.8211 0.4223
C63_2 C 0.4378(2) 0.8184(2) 0.48373(19)
C64_2 C 0.43931(18) 0.7971(2) 0.52590(15)
C65_2 C 0.4032(5) 0.8594(6) 0.4729(5)
C66_2 C 0.4131(6) 0.8837(8) 0.4296(8)
H53_2 H 0.4078 0.8631 0.4047
H54_2 H 0.4470 0.8943 0.4293
H55_2 H 0.3909 0.9094 0.4269
C67_2 C 0.3503(5) 0.8526(8) 0.4806(8)
H56_2 H 0.3379 0.8298 0.4600
H57_2 H 0.3329 0.8810 0.4756
H58_2 H 0.3449 0.8426 0.5113
C68_2 C 0.4142(6) 0.8980(7) 0.5078(8)
H59_2 H 0.3933 0.9240 0.5016
H60_2 H 0.4486 0.9069 0.5055
H61_2 H 0.4076 0.8870 0.5379
C69_2 C 0.5452(3) 0.7105(4) 0.5096(3)
H62_2 H 0.5669 0.7069 0.4839
H63_2 H 0.5254 0.6833 0.5134
H64_2 H 0.5648 0.7156 0.5364
C70_2 C 0.54251(15) 0.7616(3) 0.42194(13)
C71_2 C 0.52469(12) 0.7507(3) 0.37896(15)
H65_2 H 0.4905 0.7495 0.3737
C72_2 C 0.55793(17) 0.7416(3) 0.34389(12)
H66_2 H 0.5460 0.7342 0.3151
C73_2 C 0.60900(15) 0.7434(2) 0.35179(12)
C74_2 C 0.62683(12) 0.7543(2) 0.39477(14)
H67_2 H 0.6610 0.7555 0.4001
C75_2 C 0.59359(16) 0.7634(2) 0.42985(12)
H68_2 H 0.6055 0.7707 0.4586
C76_2 C 0.6444(3) 0.7324(3) 0.3160(3)
O22_2 O 0.2913(3) 0.6947(3) 0.45550(18)
O23_2 O 0.3023(5) 0.6642(3) 0.3886(2)
C77_2 C 0.2823(7) 0.6902(6) 0.4162(5)
C78_2 C 0.2489(9) 0.7268(8) 0.3964(9)
H69_2 H 0.2359 0.7456 0.4205
H70_2 H 0.2218 0.7126 0.3804
H71_2 H 0.2678 0.7456 0.3758
Cr4_2 Cr 0.80957(3) 0.79975(3) 0.74668(3)
Cr5_2 Cr 0.69043(3) 0.70025(3) 0.24668(3)
O24_2 O 0.2570(3) 0.66853(16) 0.54467(18)
O25_2 O 0.2495(2) 0.71920(17) 0.60047(15)
O26_2 O 0.22370(17) 0.77128(16) 0.49933(16)
O27_2 O 0.23661(18) 0.81664(16) 0.56064(14)
O28_2 O 0.24820(16) 0.76481(17) 0.76988(14)
O29_2 O 0.29231(15) 0.78390(17) 0.70824(14)
O30_2 O 0.12805(17) 0.7785(3) 0.72389(16)
O31_2 O 0.18903(18) 0.76981(18) 0.67577(15)
H72_2 H 0.128499 0.828293 0.810706
H73_2 H 0.148581 0.778328 0.826594
C36_3 C 0.7809(2) 0.10485(13) 0.00668(10)
H32_3 H 0.7746 0.1006 0.0374
C40_3 C 0.7739(2) 0.1897(2) 0.0193(2)
O5_3 O 0.7570(3) 0.16853(16) 0.54467(18)
O6_3 O 0.7495(2) 0.21920(17) 0.60047(15)
C5_3 C 0.7500(3) 0.1792(2) 0.5884(2)
C6_3 C 0.7435(2) 0.14095(12) 0.61937(12)
C7_3 C 0.7296(2) 0.15038(11) 0.66385(13)
H1_3 H 0.7217 0.1803 0.6724
C8_3 C 0.7272(2) 0.11516(14) 0.69560(11)
H2_3 H 0.7179 0.1215 0.7254
C9_3 C 0.7389(2) 0.07051(12) 0.68288(12)
C10_3 C 0.7529(2) 0.06108(10) 0.63840(14)
H3_3 H 0.7607 0.0312 0.6299
C11_3 C 0.7552(2) 0.09630(14) 0.60664(11)
H4_3 H 0.7646 0.0900 0.5769
C13_3 C 0.7349(2) 0.03198(12) 0.71494(14)
C14_3 C 0.76146(19) 0.03061(12) 0.75542(14)
C22_3 C 0.8018(3) 0.0686(2) 0.7660(3)
H15_3 H 0.7994 0.0927 0.7440
H16_3 H 0.8345 0.0552 0.7647
H17_3 H 0.7961 0.0809 0.7958
C24_3 C 0.77243(16) 0.02914(12) 0.86113(13)
C25_3 C 0.79989(18) 0.03306(12) 0.90097(12)
C26_3 C 0.83600(18) 0.00053(14) 0.91144(13)
H18_3 H 0.8544 0.0032 0.9381
C33_3 C 0.7271(3) 0.0616(3) 0.8537(3)
H28_3 H 0.7268 0.0847 0.8770
H29_3 H 0.6968 0.0441 0.8552
H30_3 H 0.7297 0.0760 0.8245
C34_3 C 0.7947(2) 0.07345(11) 0.93213(13)
C35_3 C 0.7853(2) 0.06710(10) 0.97812(13)
H31_3 H 0.7820 0.0376 0.9898
C37_3 C 0.78581(19) 0.14894(11) 0.98926(12)
C38_3 C 0.7952(2) 0.15528(10) 0.94327(12)
H33_3 H 0.7985 0.1848 0.9316
C39_3 C 0.7997(2) 0.11754(13) 0.91470(10)
H34_3 H 0.8060 0.1218 0.8839
Cr9_2 Cr 0.75922(5) 0.29087(4) 0.63395(4)
Cr11_3 Cr 0.77232(4) 0.22503(3) 0.51179(3)
O19_3 O 0.37195(17) 0.7215(3) 0.22389(16)
O20_3 O 0.31097(18) 0.73019(18) 0.17577(15)
C61_3 C 0.4915(2) 0.7739(3) 0.04054(14)
C62_3 C 0.5276(2) 0.8068(3) 0.04950(16)
H52_3 H 0.5287 0.8211 0.0777
C63_3 C 0.5622(2) 0.8184(2) 0.01627(19)
C65_3 C 0.5968(5) 0.8594(6) 0.0271(5)
C66_3 C 0.5869(6) 0.8837(8) 0.0704(8)
H53_3 H 0.5922 0.8631 0.0953
H54_3 H 0.5530 0.8943 0.0707
H55_3 H 0.6091 0.9094 0.0731
C67_3 C 0.6497(5) 0.8526(8) 0.0194(8)
H56_3 H 0.6621 0.8298 0.0400
H57_3 H 0.6671 0.8810 0.0244
H62_3 H 0.4331 0.7069 0.0161
C70_3 C 0.45749(15) 0.7616(3) 0.07806(13)
C71_3 C 0.47531(12) 0.7507(3) 0.12104(15)
H65_3 H 0.5095 0.7495 0.1263
C72_3 C 0.44207(17) 0.7416(3) 0.15611(12)
H66_3 H 0.4540 0.7342 0.1849
C73_3 C 0.39100(15) 0.7434(2) 0.14821(12)
C74_3 C 0.37317(12) 0.7543(2) 0.10523(14)
H67_3 H 0.3390 0.7555 0.0999
C75_3 C 0.40641(16) 0.7634(2) 0.07015(12)
H68_3 H 0.3945 0.7707 0.0414
C76_3 C 0.3556(3) 0.7324(3) 0.1840(3)
O22_3 O 0.7087(3) 0.6947(3) 0.04450(18)
O23_3 O 0.6977(5) 0.6642(3) 0.1114(2)
C77_3 C 0.7177(7) 0.6902(6) 0.0838(5)
C78_3 C 0.7511(9) 0.7268(8) 0.1036(9)
H69_3 H 0.7641 0.7456 0.0795
H70_3 H 0.7782 0.7126 0.1196
H71_3 H 0.7322 0.7456 0.1242
Cr5_3 Cr 0.30957(3) 0.70025(3) 0.25332(3)
Cr8_2 Cr 0.24078(5) 0.70913(4) 0.13395(4)
P1_3 P 0.77924(8) 0.88741(6) 0.80556(6)
P2_3 P 0.63492(6) 0.76461(7) 0.93021(6)
O7_3 O 0.7300(2) 0.91711(16) 0.79630(17)
O8_3 O 0.82292(19) 0.92451(15) 0.81164(16)
O9_3 O 0.7941(2) 0.86337(18) 0.76315(17)
O10_3 O 0.7682(2) 0.86194(15) 0.84723(15)
O15_3 O 0.60127(16) 0.72011(19) 0.92209(15)
O16_3 O 0.59630(19) 0.8045(2) 0.94122(17)
O17_3 O 0.6641(2) 0.7534(2) 0.97116(16)
O18_3 O 0.66020(15) 0.7813(2) 0.88860(15)
O21_3 O 0.8415(2) 0.8086(3) 0.68597(19)
C12_3 C 0.6667(3) 0.9175(3) 0.7155(3)
C15_3 C 0.75847(18) 0.99222(14) 0.78329(12)
C16_3 C 0.7289(2) 0.95520(12) 0.77068(14)
C17_3 C 0.7023(2) 0.95657(13) 0.73019(15)
C18_3 C 0.70525(19) 0.99496(15) 0.70232(13)
H5_3 H 0.6874 0.9959 0.6752
C19_3 C 0.6327(5) 0.9307(4) 0.6732(4)
H6_3 H 0.6120 0.9564 0.6810
H7_3 H 0.6121 0.9051 0.6652
H8_3 H 0.6536 0.9387 0.6479
C20_3 C 0.6966(4) 0.8766(3) 0.6963(3)
H9_3 H 0.7191 0.8653 0.7191
H10_3 H 0.7153 0.8864 0.6702
H11_3 H 0.6741 0.8525 0.6876
C21_3 C 0.6345(4) 0.8997(4) 0.7533(4)
H12_3 H 0.6551 0.8918 0.7788
H13_3 H 0.6169 0.8729 0.7431
H14_3 H 0.6110 0.9229 0.7621
C23_3 C 0.78109(16) 0.99267(14) 0.83175(11)
C27_3 C 0.84467(16) 0.96406(13) 0.88206(15)
C28_3 C 0.81721(17) 0.96013(12) 0.84221(13)
C29_3 C 0.8891(3) 0.9307(2) 0.8910(3)
C30_3 C 0.9280(5) 0.9369(5) 0.8539(5)
H19_3 H 0.9555 0.9165 0.8593
H20_3 H 0.9398 0.9681 0.8541
H21_3 H 0.9134 0.9302 0.8249
C31_3 C 0.9140(5) 0.9410(4) 0.9363(4)
H22_3 H 0.9412 0.9200 0.9410
H23_3 H 0.8901 0.9375 0.9603
H24_3 H 0.9264 0.9719 0.9361
C32_3 C 0.8767(4) 0.8798(2) 0.8932(3)
H25_3 H 0.9066 0.8626 0.8988
H26_3 H 0.8624 0.8702 0.8648
H27_3 H 0.8533 0.8744 0.9173
C41_3 C 0.2890(2) 0.7700(2) 0.7473(2)
C42_3 C 0.33613(11) 0.75556(16) 0.77247(12)
C43_3 C 0.33382(11) 0.73218(17) 0.81356(13)
H35_3 H 0.3033 0.7217 0.8245
C44_3 C 0.37712(13) 0.72440(18) 0.83835(12)
H36_3 H 0.3756 0.7088 0.8658
C45_3 C 0.42273(11) 0.74000(18) 0.82206(13)
C46_3 C 0.42503(11) 0.76338(16) 0.78097(13)
H37_3 H 0.4555 0.7738 0.7701
C47_3 C 0.38174(13) 0.77116(15) 0.75618(10)
H38_3 H 0.3833 0.7868 0.7287
C48_3 C 0.5900(2) 0.6631(3) 0.8396(2)
C49_3 C 0.46888(12) 0.73107(18) 0.85079(13)
C50_3 C 0.47520(13) 0.75249(17) 0.89257(13)
C51_3 C 0.51957(14) 0.74709(17) 0.91637(11)
C52_3 C 0.55764(12) 0.72028(18) 0.89840(13)
C53_3 C 0.55132(12) 0.69887(15) 0.85663(13)
C54_3 C 0.50694(14) 0.70426(16) 0.83282(11)
H39_3 H 0.5027 0.6899 0.8049
C55_3 C 0.5961(4) 0.6241(3) 0.8740(4)
H40_3 H 0.5641 0.6105 0.8800
H41_3 H 0.6096 0.6362 0.9018
H42_3 H 0.6183 0.6014 0.8620
C56_3 C 0.6422(3) 0.6845(3) 0.8303(3)
H43_3 H 0.6646 0.6610 0.8200
H44_3 H 0.6549 0.6978 0.8578
H45_3 H 0.6393 0.7078 0.8074
C57_3 C 0.5738(3) 0.6420(4) 0.7943(3)
H46_3 H 0.5417 0.6277 0.7978
H47_3 H 0.5978 0.6195 0.7849
H48_3 H 0.5716 0.6657 0.7717
C58_3 C 0.4356(3) 0.7867(4) 0.9088(3)
H49_3 H 0.4449 0.7986 0.9380
H50_3 H 0.4040 0.7714 0.9111
H51_3 H 0.4331 0.8115 0.8874
C59_3 C 0.52454(18) 0.7641(2) 0.96515(13)
C60_3 C 0.48995(18) 0.7525(2) 0.99837(15)
C64_3 C 0.56069(18) 0.7971(2) 0.97410(15)
H58_3 H 0.6551 0.8426 0.9887
C68_3 C 0.5858(6) 0.8980(7) 0.9922(8)
H59_3 H 0.6067 0.9240 0.9984
H60_3 H 0.5514 0.9069 0.9945
H61_3 H 0.5924 0.8870 0.9621
C69_3 C 0.4548(3) 0.7105(4) 0.9904(3)
H63_3 H 0.4746 0.6833 0.9866
H64_3 H 0.4352 0.7156 0.9636
O24_3 O 0.7430(3) 0.66853(16) 0.95533(18)
O25_3 O 0.7505(2) 0.71920(17) 0.89953(15)
O30_3 O 0.87195(17) 0.7785(3) 0.77611(16)
O31_3 O 0.81097(18) 0.76981(18) 0.82423(15)
H72_3 H 0.871501 0.828293 0.689294
H73_3 H 0.851419 0.778328 0.673406
P1_4 P 0.22076(8) 0.11259(6) 0.30556(6)
P2_4 P 0.36508(6) 0.23539(7) 0.43021(6)
O7_4 O 0.2700(2) 0.08289(16) 0.29630(17)
O8_4 O 0.17708(19) 0.07549(15) 0.31164(16)
O9_4 O 0.2059(2) 0.13663(18) 0.26315(17)
O10_4 O 0.2318(2) 0.13806(15) 0.34723(15)
O15_4 O 0.39873(16) 0.27989(19) 0.42209(15)
O16_4 O 0.40370(19) 0.1955(2) 0.44122(17)
O17_4 O 0.3359(2) 0.2466(2) 0.47116(16)
O18_4 O 0.33980(15) 0.2187(2) 0.38860(15)
O19_4 O 0.62805(17) 0.2785(3) 0.72389(16)
O20_4 O 0.68903(18) 0.26981(18) 0.67577(15)
O21_4 O 0.1585(2) 0.1914(3) 0.18597(19)
C12_4 C 0.3333(3) 0.0825(3) 0.2155(3)
C15_4 C 0.24153(18) 0.00778(14) 0.28329(12)
C16_4 C 0.2711(2) 0.04480(12) 0.27068(14)
C17_4 C 0.2977(2) 0.04343(13) 0.23019(15)
C18_4 C 0.29475(19) 0.00504(15) 0.20232(13)
H5_4 H 0.3126 0.0041 0.1752
C19_4 C 0.3673(5) 0.0693(4) 0.1732(4)
H6_4 H 0.3880 0.0436 0.1810
H7_4 H 0.3879 0.0949 0.1652
H8_4 H 0.3464 0.0613 0.1479
C20_4 C 0.3034(4) 0.1234(3) 0.1963(3)
H9_4 H 0.2809 0.1347 0.2191
H10_4 H 0.2847 0.1136 0.1702
H11_4 H 0.3259 0.1475 0.1876
C21_4 C 0.3655(4) 0.1003(4) 0.2533(4)
H12_4 H 0.3449 0.1082 0.2788
H13_4 H 0.3831 0.1271 0.2431
H14_4 H 0.3890 0.0771 0.2621
C23_4 C 0.21891(16) 0.00733(14) 0.33175(11)
C27_4 C 0.15533(16) 0.03594(13) 0.38206(15)
C28_4 C 0.18279(17) 0.03987(12) 0.34221(13)
C29_4 C 0.1109(3) 0.0693(2) 0.3910(3)
C30_4 C 0.0720(5) 0.0631(5) 0.3539(5)
H19_4 H 0.0445 0.0835 0.3593
H20_4 H 0.0602 0.0319 0.3541
H21_4 H 0.0866 0.0698 0.3249
C31_4 C 0.0860(5) 0.0590(4) 0.4363(4)
H22_4 H 0.0588 0.0800 0.4410
H23_4 H 0.1099 0.0625 0.4603
H24_4 H 0.0736 0.0281 0.4361
C32_4 C 0.1233(4) 0.1202(2) 0.3932(3)
H25_4 H 0.0934 0.1374 0.3988
H26_4 H 0.1376 0.1298 0.3648
H27_4 H 0.1467 0.1256 0.4173
C41_4 C 0.7110(2) 0.2300(2) 0.2473(2)
C42_4 C 0.66387(11) 0.24444(16) 0.27247(12)
C43_4 C 0.66618(11) 0.26782(17) 0.31356(13)
H35_4 H 0.6967 0.2783 0.3245
C44_4 C 0.62288(13) 0.27560(18) 0.33835(12)
H36_4 H 0.6244 0.2912 0.3658
C45_4 C 0.57727(11) 0.26000(18) 0.32206(13)
C46_4 C 0.57497(11) 0.23662(16) 0.28097(13)
H37_4 H 0.5445 0.2262 0.2701
C47_4 C 0.61826(13) 0.22884(15) 0.25618(10)
H38_4 H 0.6167 0.2132 0.2287
C48_4 C 0.4100(2) 0.3369(3) 0.3396(2)
C49_4 C 0.53112(12) 0.26893(18) 0.35079(13)
C50_4 C 0.52480(13) 0.24751(17) 0.39257(13)
C51_4 C 0.48043(14) 0.25291(17) 0.41637(11)
C52_4 C 0.44236(12) 0.27972(18) 0.39840(13)
C53_4 C 0.44868(12) 0.30113(15) 0.35663(13)
C54_4 C 0.49306(14) 0.29574(16) 0.33282(11)
H39_4 H 0.4973 0.3101 0.3049
C55_4 C 0.4039(4) 0.3759(3) 0.3740(4)
H40_4 H 0.4359 0.3895 0.3800
H41_4 H 0.3904 0.3638 0.4018
H42_4 H 0.3817 0.3986 0.3620
C56_4 C 0.3578(3) 0.3155(3) 0.3303(3)
H43_4 H 0.3354 0.3390 0.3200
H44_4 H 0.3451 0.3022 0.3578
H45_4 H 0.3607 0.2922 0.3074
C57_4 C 0.4262(3) 0.3580(4) 0.2943(3)
H46_4 H 0.4583 0.3723 0.2978
H47_4 H 0.4022 0.3805 0.2849
H48_4 H 0.4284 0.3343 0.2717
C58_4 C 0.5644(3) 0.2133(4) 0.4088(3)
H49_4 H 0.5551 0.2014 0.4380
H50_4 H 0.5960 0.2286 0.4111
H51_4 H 0.5669 0.1885 0.3874
C59_4 C 0.47546(18) 0.2359(2) 0.46515(13)
C60_4 C 0.51005(18) 0.2475(2) 0.49837(15)
C61_4 C 0.5085(2) 0.2261(3) 0.54054(14)
C62_4 C 0.4724(2) 0.1932(3) 0.54950(16)
H52_4 H 0.4713 0.1789 0.5777
C63_4 C 0.4378(2) 0.1816(2) 0.51627(19)
C64_4 C 0.43931(18) 0.2029(2) 0.47410(15)
C65_4 C 0.4032(5) 0.1406(6) 0.5271(5)
C66_4 C 0.4131(6) 0.1163(8) 0.5704(8)
H53_4 H 0.4078 0.1369 0.5953
H54_4 H 0.4470 0.1057 0.5707
H55_4 H 0.3909 0.0906 0.5731
C67_4 C 0.3503(5) 0.1474(8) 0.5194(8)
H56_4 H 0.3379 0.1702 0.5400
H57_4 H 0.3329 0.1190 0.5244
H58_4 H 0.3449 0.1574 0.4887
C68_4 C 0.4142(6) 0.1020(7) 0.4922(8)
H59_4 H 0.3933 0.0760 0.4984
H60_4 H 0.4486 0.0931 0.4945
H61_4 H 0.4076 0.1130 0.4621
C69_4 C 0.5452(3) 0.2895(4) 0.4904(3)
H62_4 H 0.5669 0.2931 0.5161
H63_4 H 0.5254 0.3167 0.4866
H64_4 H 0.5648 0.2844 0.4636
C70_4 C 0.54251(15) 0.2384(3) 0.57806(13)
C71_4 C 0.52469(12) 0.2493(3) 0.62104(15)
H65_4 H 0.4905 0.2505 0.6263
C72_4 C 0.55793(17) 0.2584(3) 0.65611(12)
H66_4 H 0.5460 0.2658 0.6849
C73_4 C 0.60900(15) 0.2566(2) 0.64821(12)
C74_4 C 0.62683(12) 0.2457(2) 0.60523(14)
H67_4 H 0.6610 0.2445 0.5999
C75_4 C 0.59359(16) 0.2366(2) 0.57015(12)
H68_4 H 0.6055 0.2293 0.5414
C76_4 C 0.6444(3) 0.2676(3) 0.6840(3)
O22_4 O 0.2913(3) 0.3053(3) 0.54450(18)
O23_4 O 0.3023(5) 0.3358(3) 0.6114(2)
C77_4 C 0.2823(7) 0.3098(6) 0.5838(5)
C78_4 C 0.2489(9) 0.2732(8) 0.6036(9)
H69_4 H 0.2359 0.2544 0.5795
H70_4 H 0.2218 0.2874 0.6196
H71_4 H 0.2678 0.2544 0.6242
Cr5_4 Cr 0.69043(3) 0.29975(3) 0.75332(3)
O24_4 O 0.2570(3) 0.33147(16) 0.45533(18)
O25_4 O 0.2495(2) 0.28080(17) 0.39953(15)
O30_4 O 0.12805(17) 0.2215(3) 0.27611(16)
O31_4 O 0.18903(18) 0.23019(18) 0.32423(15)
H72_4 H 0.128499 0.171707 0.189294
H73_4 H 0.148581 0.221672 0.173406
O5_4 O 0.2430(3) 0.83147(16) 0.04467(18)
O6_4 O 0.2505(2) 0.78080(17) 0.10047(15)
C5_4 C 0.2500(3) 0.8208(2) 0.0884(2)
C6_4 C 0.2565(2) 0.85905(12) 0.11937(12)
C7_4 C 0.2704(2) 0.84962(11) 0.16385(13)
H1_4 H 0.2783 0.8197 0.1724
C8_4 C 0.2728(2) 0.88484(14) 0.19560(11)
H2_4 H 0.2821 0.8785 0.2254
C9_4 C 0.2611(2) 0.92949(12) 0.18288(12)
C10_4 C 0.2471(2) 0.93892(10) 0.13840(14)
H3_4 H 0.2393 0.9688 0.1299
C11_4 C 0.2448(2) 0.90370(14) 0.10664(11)
H4_4 H 0.2354 0.9100 0.0769
C13_4 C 0.2651(2) 0.96802(12) 0.21494(14)
C14_4 C 0.23854(19) 0.96939(12) 0.25542(14)
C22_4 C 0.1982(3) 0.9314(2) 0.2660(3)
H15_4 H 0.2006 0.9073 0.2440
H16_4 H 0.1655 0.9448 0.2647
H17_4 H 0.2039 0.9191 0.2958
C24_4 C 0.22757(16) 0.97086(12) 0.36113(13)
C25_4 C 0.20011(18) 0.96694(12) 0.40097(12)
C26_4 C 0.16400(18) 0.99947(14) 0.41144(13)
H18_4 H 0.1456 0.9968 0.4381
C33_4 C 0.2729(3) 0.9384(3) 0.3537(3)
H28_4 H 0.2732 0.9153 0.3770
H29_4 H 0.3032 0.9559 0.3552
H30_4 H 0.2703 0.9240 0.3245
C34_4 C 0.2053(2) 0.92655(11) 0.43213(13)
C35_4 C 0.2147(2) 0.93290(10) 0.47812(13)
H31_4 H 0.2180 0.9624 0.4898
C36_4 C 0.2191(2) 0.89515(13) 0.50668(10)
H32_4 H 0.2254 0.8994 0.5374
C37_4 C 0.21419(19) 0.85106(11) 0.48926(12)
C38_4 C 0.2048(2) 0.84472(10) 0.44327(12)
H33_4 H 0.2015 0.8152 0.4316
C39_4 C 0.2003(2) 0.88246(13) 0.41470(10)
H34_4 H 0.1940 0.8782 0.3839
C40_4 C 0.2261(2) 0.8103(2) 0.5193(2)
Cr11_4 Cr 0.22768(4) 0.77497(3) 0.01179(3)
P1_5 P 0.27924(8) 0.61259(6) 0.19444(6)
P2_5 P 0.13492(6) 0.73539(7) 0.06979(6)
O7_5 O 0.2300(2) 0.58289(16) 0.20370(17)
O8_5 O 0.32292(19) 0.57549(15) 0.18836(16)
O9_5 O 0.2941(2) 0.63663(18) 0.23685(17)
O10_5 O 0.2682(2) 0.63806(15) 0.15277(15)
O11_3 O 0.27630(17) 0.27128(16) 0.00067(16)
O15_5 O 0.10127(16) 0.77989(19) 0.07791(15)
O16_5 O 0.09630(19) 0.6955(2) 0.05878(17)
O17_5 O 0.1641(2) 0.7466(2) 0.02884(16)
O18_5 O 0.16020(15) 0.7187(2) 0.11140(15)
O21_5 O 0.3415(2) 0.6914(3) 0.31403(19)
C5_5 C 0.2500(3) 0.3208(2) 0.4116(2)
C6_5 C 0.2435(2) 0.35905(12) 0.38063(12)
C7_5 C 0.2296(2) 0.34962(11) 0.33615(13)
H1_5 H 0.2217 0.3197 0.3276
C8_5 C 0.2272(2) 0.38484(14) 0.30440(11)
H2_5 H 0.2179 0.3785 0.2746
C9_5 C 0.2389(2) 0.42949(12) 0.31712(12)
C10_5 C 0.2529(2) 0.43892(10) 0.36160(14)
H3_5 H 0.2607 0.4688 0.3701
C11_5 C 0.2552(2) 0.40370(14) 0.39336(11)
H4_5 H 0.2646 0.4100 0.4231
C12_5 C 0.1667(3) 0.5825(3) 0.2845(3)
C13_5 C 0.2349(2) 0.46802(12) 0.28506(14)
C14_5 C 0.26146(19) 0.46939(12) 0.24458(14)
C15_5 C 0.25847(18) 0.50778(14) 0.21671(12)
C16_5 C 0.2289(2) 0.54480(12) 0.22932(14)
C17_5 C 0.2023(2) 0.54343(13) 0.26981(15)
C18_5 C 0.20525(19) 0.50504(15) 0.29768(13)
H5_5 H 0.1874 0.5041 0.3248
C19_5 C 0.1327(5) 0.5693(4) 0.3268(4)
H6_5 H 0.1120 0.5436 0.3190
H7_5 H 0.1121 0.5949 0.3348
H8_5 H 0.1536 0.5613 0.3521
C20_5 C 0.1966(4) 0.6234(3) 0.3037(3)
H9_5 H 0.2191 0.6347 0.2809
H10_5 H 0.2153 0.6136 0.3298
H11_5 H 0.1741 0.6475 0.3124
C21_5 C 0.1345(4) 0.6003(4) 0.2467(4)
H12_5 H 0.1551 0.6082 0.2212
H13_5 H 0.1169 0.6271 0.2569
H14_5 H 0.1110 0.5771 0.2379
C22_5 C 0.3018(3) 0.4314(2) 0.2340(3)
H15_5 H 0.2994 0.4073 0.2560
H16_5 H 0.3345 0.4448 0.2353
H17_5 H 0.2961 0.4191 0.2042
C23_5 C 0.28109(16) 0.50733(14) 0.16825(11)
C24_5 C 0.27243(16) 0.47086(12) 0.13887(13)
C25_5 C 0.29989(18) 0.46694(12) 0.09903(12)
C26_5 C 0.33600(18) 0.49947(14) 0.08856(13)
H18_5 H 0.3544 0.4968 0.0619
C27_5 C 0.34467(16) 0.53594(13) 0.11794(15)
C28_5 C 0.31721(17) 0.53987(12) 0.15779(13)
C29_5 C 0.3891(3) 0.5693(2) 0.1090(3)
C30_5 C 0.4280(5) 0.5631(5) 0.1461(5)
H19_5 H 0.4555 0.5835 0.1407
H20_5 H 0.4398 0.5319 0.1459
H21_5 H 0.4134 0.5698 0.1751
C31_5 C 0.4140(5) 0.5590(4) 0.0637(4)
H22_5 H 0.4412 0.5800 0.0590
H23_5 H 0.3901 0.5625 0.0397
H24_5 H 0.4264 0.5281 0.0639
C32_5 C 0.3767(4) 0.6202(2) 0.1068(3)
H25_5 H 0.4066 0.6374 0.1012
H26_5 H 0.3624 0.6298 0.1352
H27_5 H 0.3533 0.6256 0.0827
C33_5 C 0.2271(3) 0.4384(3) 0.1463(3)
H28_5 H 0.2268 0.4153 0.1230
H29_5 H 0.1968 0.4559 0.1448
H30_5 H 0.2297 0.4240 0.1755
C34_5 C 0.2947(2) 0.42655(11) 0.06787(13)
C35_5 C 0.2853(2) 0.43290(10) 0.02188(13)
H31_5 H 0.2820 0.4624 0.0102
C37_5 C 0.28581(19) 0.35106(11) 0.01074(12)
C38_5 C 0.2952(2) 0.34472(10) 0.05673(12)
H33_5 H 0.2985 0.3152 0.0684
C39_5 C 0.2997(2) 0.38246(13) 0.08530(10)
H34_5 H 0.3060 0.3782 0.1161
C48_5 C 0.0900(2) 0.8369(3) 0.1604(2)
C51_5 C 0.01957(14) 0.75291(17) 0.08363(11)
C52_5 C 0.05764(12) 0.77972(18) 0.10160(13)
C53_5 C 0.05132(12) 0.80113(15) 0.14337(13)
C54_5 C 0.00694(14) 0.79574(16) 0.16718(11)
H39_5 H 0.0027 0.8101 0.1951
C55_5 C 0.0961(4) 0.8759(3) 0.1260(4)
H40_5 H 0.0641 0.8895 0.1200
H41_5 H 0.1096 0.8638 0.0982
H42_5 H 0.1183 0.8986 0.1380
C56_5 C 0.1422(3) 0.8155(3) 0.1697(3)
H43_5 H 0.1646 0.8390 0.1800
H44_5 H 0.1549 0.8022 0.1422
H45_5 H 0.1393 0.7922 0.1926
C57_5 C 0.0738(3) 0.8580(4) 0.2057(3)
H46_5 H 0.0417 0.8723 0.2022
H47_5 H 0.0978 0.8805 0.2151
H48_5 H 0.0716 0.8343 0.2283
C59_5 C 0.02454(18) 0.7359(2) 0.03485(13)
C64_5 C 0.06069(18) 0.7029(2) 0.02590(15)
H58_5 H 0.1551 0.6574 0.0113
C68_5 C 0.0858(6) 0.6020(7) 0.0078(8)
H59_5 H 0.1067 0.5760 0.0016
H60_5 H 0.0514 0.5931 0.0055
H61_5 H 0.0924 0.6130 0.0379
O27_3 O 0.26339(18) 0.68336(16) 0.06064(14)
O28_3 O 0.25180(16) 0.73519(17) 0.26988(14)
O29_3 O 0.20769(15) 0.71610(17) 0.20824(14)
H72_5 H 0.371501 0.671707 0.310706
H73_5 H 0.351419 0.721672 0.326594
O12_3 O 0.26339(18) 0.31664(16) 0.93936(14)
C36_5 C 0.2809(2) 0.39515(13) 0.99332(10)
H32_5 H 0.2746 0.3994 0.9626
C40_5 C 0.2739(2) 0.3103(2) 0.9807(2)
C62_5 C 0.0276(2) 0.6932(3) 0.95050(16)
H52_5 H 0.0287 0.6789 0.9223
C63_5 C 0.0622(2) 0.6816(2) 0.98373(19)
C65_5 C 0.0968(5) 0.6406(6) 0.9729(5)
C66_5 C 0.0869(6) 0.6163(8) 0.9296(8)
H53_5 H 0.0922 0.6369 0.9047
H54_5 H 0.0530 0.6057 0.9293
H55_5 H 0.1091 0.5906 0.9269
C67_5 C 0.1497(5) 0.6474(8) 0.9806(8)
H56_5 H 0.1621 0.6702 0.9600
H57_5 H 0.1671 0.6190 0.9756
H65_5 H 0.0095 0.7505 0.8737
O22_5 O 0.2087(3) 0.8053(3) 0.95550(18)
O23_5 O 0.1977(5) 0.8358(3) 0.8886(2)
C77_5 C 0.2177(7) 0.8098(6) 0.9162(5)
C78_5 C 0.2511(9) 0.7732(8) 0.8964(9)
H69_5 H 0.2641 0.7544 0.9205
H70_5 H 0.2782 0.7874 0.8804
H71_5 H 0.2322 0.7544 0.8758
O26_3 O 0.27630(17) 0.72872(16) 0.99933(16)
O13_3 O 0.74820(16) 0.73519(17) 0.23012(14)
O14_3 O 0.79231(15) 0.71610(17) 0.29176(14)
C41_5 C 0.7890(2) 0.7300(2) 0.2527(2)
C42_5 C 0.83613(11) 0.74444(16) 0.22753(12)
C43_5 C 0.83382(11) 0.76782(17) 0.18644(13)
H35_5 H 0.8033 0.7783 0.1755
C44_5 C 0.87712(13) 0.77560(18) 0.16165(12)
H36_5 H 0.8756 0.7912 0.1342
C45_5 C 0.92273(11) 0.76000(18) 0.17794(13)
C46_5 C 0.92503(11) 0.73662(16) 0.21903(13)
H37_5 H 0.9555 0.7262 0.2299
C47_5 C 0.88174(13) 0.72884(15) 0.24382(10)
H38_5 H 0.8833 0.7132 0.2713
C49_5 C 0.96888(12) 0.76893(18) 0.14921(13)
C50_5 C 0.97520(13) 0.74751(17) 0.10743(13)
C58_5 C 0.9356(3) 0.7133(4) 0.0912(3)
H49_5 H 0.9449 0.7014 0.0620
H50_5 H 0.9040 0.7286 0.0889
H51_5 H 0.9331 0.6885 0.1126
C60_5 C 0.98995(18) 0.7475(2) 0.00163(15)
C69_5 C 0.9548(3) 0.7895(4) 0.0096(3)
H63_5 H 0.9746 0.8167 0.0134
H64_5 H 0.9352 0.7844 0.0364
C61_5 C 0.9915(2) 0.7261(3) 0.95946(14)
H62_5 H 0.9331 0.7931 0.9839
C70_5 C 0.95749(15) 0.7384(3) 0.92194(13)
C71_5 C 0.97531(12) 0.7493(3) 0.87896(15)
C72_5 C 0.94207(17) 0.7584(3) 0.84389(12)
H66_5 H 0.9540 0.7658 0.8151
C73_5 C 0.89100(15) 0.7566(2) 0.85179(12)
C74_5 C 0.87317(12) 0.7457(2) 0.89477(14)
H67_5 H 0.8390 0.7445 0.9001
C75_5 C 0.90641(16) 0.7366(2) 0.92985(12)
H68_5 H 0.8945 0.7293 0.9586
C76_5 C 0.8556(3) 0.7676(3) 0.8160(3)
O13_4 O 0.25180(16) 0.26481(17) 0.73012(14)
O14_4 O 0.20769(15) 0.28390(17) 0.79176(14)
C41_6 C 0.2110(2) 0.2700(2) 0.7527(2)
C42_6 C 0.16387(11) 0.25556(16) 0.72753(12)
C43_6 C 0.16618(11) 0.23218(17) 0.68644(13)
H35_6 H 0.1967 0.2217 0.6755
C44_6 C 0.12288(13) 0.22440(18) 0.66165(12)
H36_6 H 0.1244 0.2088 0.6342
C45_6 C 0.07727(11) 0.24000(18) 0.67794(13)
C46_6 C 0.07497(11) 0.26338(16) 0.71903(13)
H37_6 H 0.0445 0.2738 0.7299
C47_6 C 0.11826(13) 0.27116(15) 0.74382(10)
H38_6 H 0.1167 0.2868 0.7713
C49_6 C 0.03112(12) 0.23107(18) 0.64921(13)
C50_6 C 0.02480(13) 0.25249(17) 0.60743(13)
C58_6 C 0.0644(3) 0.2867(4) 0.5912(3)
H49_6 H 0.0551 0.2986 0.5620
H50_6 H 0.0960 0.2714 0.5889
H51_6 H 0.0669 0.3115 0.6126
C60_6 C 0.01005(18) 0.2525(2) 0.50163(15)
C61_6 C 0.0085(2) 0.2739(3) 0.45946(14)
C69_6 C 0.0452(3) 0.2105(4) 0.5096(3)
H62_6 H 0.0669 0.2069 0.4839
H63_6 H 0.0254 0.1833 0.5134
H64_6 H 0.0648 0.2156 0.5364
C70_6 C 0.04251(15) 0.2616(3) 0.42194(13)
C71_6 C 0.02469(12) 0.2507(3) 0.37896(15)
C72_6 C 0.05793(17) 0.2416(3) 0.34389(12)
H66_6 H 0.0460 0.2342 0.3151
C73_6 C 0.10900(15) 0.2434(2) 0.35179(12)
C74_6 C 0.12683(12) 0.2543(2) 0.39477(14)
H67_6 H 0.1610 0.2555 0.4001
C75_6 C 0.09359(16) 0.2634(2) 0.42985(12)
H68_6 H 0.1055 0.2707 0.4586
C76_6 C 0.1444(3) 0.2324(3) 0.3160(3)
P1_6 P 0.72076(8) 0.38741(6) 0.69444(6)
P2_6 P 0.86508(6) 0.26461(7) 0.56979(6)
O7_6 O 0.7700(2) 0.41711(16) 0.70370(17)
O8_6 O 0.67708(19) 0.42451(15) 0.68836(16)
O9_6 O 0.7059(2) 0.36337(18) 0.73685(17)
O10_6 O 0.7318(2) 0.36194(15) 0.65277(15)
O11_4 O 0.72370(17) 0.72872(16) 0.50067(16)
O12_4 O 0.73661(18) 0.68336(16) 0.43936(14)
O15_6 O 0.89873(16) 0.22011(19) 0.57791(15)
O16_6 O 0.90370(19) 0.3045(2) 0.55878(17)
O17_6 O 0.8359(2) 0.2534(2) 0.52884(16)
O18_6 O 0.83980(15) 0.2813(2) 0.61140(15)
O21_6 O 0.6585(2) 0.3086(3) 0.81403(19)
C5_6 C 0.7500(3) 0.6792(2) 0.9116(2)
C6_6 C 0.7565(2) 0.64095(12) 0.88063(12)
C7_6 C 0.7704(2) 0.65038(11) 0.83615(13)
H1_6 H 0.7783 0.6803 0.8276
C8_6 C 0.7728(2) 0.61516(14) 0.80440(11)
H2_6 H 0.7821 0.6215 0.7746
C9_6 C 0.7611(2) 0.57051(12) 0.81712(12)
C10_6 C 0.7471(2) 0.56108(10) 0.86160(14)
H3_6 H 0.7393 0.5312 0.8701
C11_6 C 0.7448(2) 0.59630(14) 0.89336(11)
H4_6 H 0.7354 0.5900 0.9231
C12_6 C 0.8333(3) 0.4175(3) 0.7845(3)
C13_6 C 0.7651(2) 0.53198(12) 0.78506(14)
C14_6 C 0.73854(19) 0.53061(12) 0.74458(14)
C15_6 C 0.74153(18) 0.49222(14) 0.71671(12)
C16_6 C 0.7711(2) 0.45520(12) 0.72932(14)
C17_6 C 0.7977(2) 0.45657(13) 0.76981(15)
C18_6 C 0.79475(19) 0.49496(15) 0.79768(13)
H5_6 H 0.8126 0.4959 0.8248
C19_6 C 0.8673(5) 0.4307(4) 0.8268(4)
H6_6 H 0.8880 0.4564 0.8190
H7_6 H 0.8879 0.4051 0.8348
H8_6 H 0.8464 0.4387 0.8521
C20_6 C 0.8034(4) 0.3766(3) 0.8037(3)
H9_6 H 0.7809 0.3653 0.7809
H10_6 H 0.7847 0.3864 0.8298
H11_6 H 0.8259 0.3525 0.8124
C21_6 C 0.8655(4) 0.3997(4) 0.7467(4)
H12_6 H 0.8449 0.3918 0.7212
H13_6 H 0.8831 0.3729 0.7569
H14_6 H 0.8890 0.4229 0.7379
C22_6 C 0.6982(3) 0.5686(2) 0.7340(3)
H15_6 H 0.7006 0.5927 0.7560
H16_6 H 0.6655 0.5552 0.7353
H17_6 H 0.7039 0.5809 0.7042
C23_6 C 0.71891(16) 0.49267(14) 0.66825(11)
C24_6 C 0.72757(16) 0.52914(12) 0.63887(13)
C25_6 C 0.70011(18) 0.53306(12) 0.59903(12)
C26_6 C 0.66400(18) 0.50053(14) 0.58856(13)
H18_6 H 0.6456 0.5032 0.5619
C27_6 C 0.65533(16) 0.46406(13) 0.61794(15)
C28_6 C 0.68279(17) 0.46013(12) 0.65779(13)
C29_6 C 0.6109(3) 0.4307(2) 0.6090(3)
C30_6 C 0.5720(5) 0.4369(5) 0.6461(5)
H19_6 H 0.5445 0.4165 0.6407
H20_6 H 0.5602 0.4681 0.6459
H21_6 H 0.5866 0.4302 0.6751
C31_6 C 0.5860(5) 0.4410(4) 0.5637(4)
H22_6 H 0.5588 0.4200 0.5590
H23_6 H 0.6099 0.4375 0.5397
H24_6 H 0.5736 0.4719 0.5639
C32_6 C 0.6233(4) 0.3798(2) 0.6068(3)
H25_6 H 0.5934 0.3626 0.6012
H26_6 H 0.6376 0.3702 0.6352
H27_6 H 0.6467 0.3744 0.5827
C33_6 C 0.7729(3) 0.5616(3) 0.6463(3)
H28_6 H 0.7732 0.5847 0.6230
H29_6 H 0.8032 0.5441 0.6448
H30_6 H 0.7703 0.5760 0.6755
C34_6 C 0.7053(2) 0.57345(11) 0.56787(13)
C35_6 C 0.7147(2) 0.56710(10) 0.52188(13)
H31_6 H 0.7180 0.5376 0.5102
C36_6 C 0.7191(2) 0.60485(13) 0.49332(10)
H32_6 H 0.7254 0.6006 0.4626
C37_6 C 0.71419(19) 0.64894(11) 0.51074(12)
C38_6 C 0.7048(2) 0.65528(10) 0.55673(12)
H33_6 H 0.7015 0.6848 0.5684
C39_6 C 0.7003(2) 0.61754(13) 0.58530(10)
H34_6 H 0.6940 0.6218 0.6161
C40_6 C 0.7261(2) 0.6897(2) 0.4807(2)
C48_6 C 0.9100(2) 0.1631(3) 0.6604(2)
C51_6 C 0.98043(14) 0.24709(17) 0.58363(11)
C52_6 C 0.94236(12) 0.22028(18) 0.60160(13)
C53_6 C 0.94868(12) 0.19887(15) 0.64337(13)
C54_6 C 0.99306(14) 0.20426(16) 0.66718(11)
H39_6 H 0.9973 0.1899 0.6951
C55_6 C 0.9039(4) 0.1241(3) 0.6260(4)
H40_6 H 0.9359 0.1105 0.6200
H41_6 H 0.8904 0.1362 0.5982
H42_6 H 0.8817 0.1014 0.6380
C56_6 C 0.8578(3) 0.1845(3) 0.6697(3)
H43_6 H 0.8354 0.1610 0.6800
H44_6 H 0.8451 0.1978 0.6422
H45_6 H 0.8607 0.2078 0.6926
C57_6 C 0.9262(3) 0.1420(4) 0.7057(3)
H46_6 H 0.9583 0.1277 0.7022
H47_6 H 0.9022 0.1195 0.7151
H48_6 H 0.9284 0.1657 0.7283
C59_6 C 0.97546(18) 0.2641(2) 0.53485(13)
C62_6 C 0.9724(2) 0.3068(3) 0.45050(16)
H52_6 H 0.9713 0.3211 0.4223
C63_6 C 0.9378(2) 0.3184(2) 0.48373(19)
C64_6 C 0.93931(18) 0.2971(2) 0.52590(15)
C65_6 C 0.9032(5) 0.3594(6) 0.4729(5)
C66_6 C 0.9131(6) 0.3837(8) 0.4296(8)
H53_6 H 0.9078 0.3631 0.4047
H54_6 H 0.9470 0.3943 0.4293
H55_6 H 0.8909 0.4094 0.4269
C67_6 C 0.8503(5) 0.3526(8) 0.4806(8)
H56_6 H 0.8379 0.3298 0.4600
H57_6 H 0.8329 0.3810 0.4756
H58_6 H 0.8449 0.3426 0.5113
C68_6 C 0.9142(6) 0.3980(7) 0.5078(8)
H59_6 H 0.8933 0.4240 0.5016
H60_6 H 0.9486 0.4069 0.5055
H61_6 H 0.9076 0.3870 0.5379
H65_6 H 0.9905 0.2495 0.3737
O22_6 O 0.7913(3) 0.1947(3) 0.45550(18)
O23_6 O 0.8023(5) 0.1642(3) 0.3886(2)
C77_6 C 0.7823(7) 0.1902(6) 0.4162(5)
C78_6 C 0.7489(9) 0.2268(8) 0.3964(9)
H69_6 H 0.7359 0.2456 0.4205
H70_6 H 0.7218 0.2126 0.3804
H71_6 H 0.7678 0.2456 0.3758
O26_4 O 0.72370(17) 0.27128(16) 0.49933(16)
O27_4 O 0.73661(18) 0.31664(16) 0.56064(14)
O28_4 O 0.74820(16) 0.26481(17) 0.76988(14)
O29_4 O 0.79231(15) 0.28390(17) 0.70824(14)
H72_6 H 0.628499 0.328293 0.810706
H73_6 H 0.648581 0.278328 0.826594
C36_7 C 0.2809(2) 0.60485(13) 0.00668(10)
H32_7 H 0.2746 0.6006 0.0374
C40_7 C 0.2739(2) 0.6897(2) 0.0193(2)
C62_7 C 0.0276(2) 0.3068(3) 0.04950(16)
H52_7 H 0.0287 0.3211 0.0777
C63_7 C 0.0622(2) 0.3184(2) 0.01627(19)
C65_7 C 0.0968(5) 0.3594(6) 0.0271(5)
C66_7 C 0.0869(6) 0.3837(8) 0.0704(8)
H53_7 H 0.0922 0.3631 0.0953
H54_7 H 0.0530 0.3943 0.0707
H55_7 H 0.1091 0.4094 0.0731
C67_7 C 0.1497(5) 0.3526(8) 0.0194(8)
H56_7 H 0.1621 0.3298 0.0400
H57_7 H 0.1671 0.3810 0.0244
H65_7 H 0.0095 0.2495 0.1263
O22_7 O 0.2087(3) 0.1947(3) 0.04450(18)
O23_7 O 0.1977(5) 0.1642(3) 0.1114(2)
C77_7 C 0.2177(7) 0.1902(6) 0.0838(5)
C78_7 C 0.2511(9) 0.2268(8) 0.1036(9)
H69_7 H 0.2641 0.2456 0.0795
H70_7 H 0.2782 0.2126 0.1196
H71_7 H 0.2322 0.2456 0.1242
P1_7 P 0.27924(8) 0.38741(6) 0.80556(6)
P2_7 P 0.13492(6) 0.26461(7) 0.93021(6)
O7_7 O 0.2300(2) 0.41711(16) 0.79630(17)
O8_7 O 0.32292(19) 0.42451(15) 0.81164(16)
O9_7 O 0.2941(2) 0.36337(18) 0.76315(17)
O10_7 O 0.2682(2) 0.36194(15) 0.84723(15)
O15_7 O 0.10127(16) 0.22011(19) 0.92209(15)
O16_7 O 0.09630(19) 0.3045(2) 0.94122(17)
O17_7 O 0.1641(2) 0.2534(2) 0.97116(16)
O18_7 O 0.16020(15) 0.2813(2) 0.88860(15)
O21_7 O 0.3415(2) 0.3086(3) 0.68597(19)
C5_7 C 0.2500(3) 0.6792(2) 0.5884(2)
C6_7 C 0.2435(2) 0.64095(12) 0.61937(12)
C7_7 C 0.2296(2) 0.65038(11) 0.66385(13)
H1_7 H 0.2217 0.6803 0.6724
C8_7 C 0.2272(2) 0.61516(14) 0.69560(11)
H2_7 H 0.2179 0.6215 0.7254
C9_7 C 0.2389(2) 0.57051(12) 0.68288(12)
C10_7 C 0.2529(2) 0.56108(10) 0.63840(14)
H3_7 H 0.2607 0.5312 0.6299
C11_7 C 0.2552(2) 0.59630(14) 0.60664(11)
H4_7 H 0.2646 0.5900 0.5769
C12_7 C 0.1667(3) 0.4175(3) 0.7155(3)
C13_7 C 0.2349(2) 0.53198(12) 0.71494(14)
C14_7 C 0.26146(19) 0.53061(12) 0.75542(14)
C15_7 C 0.25847(18) 0.49222(14) 0.78329(12)
C16_7 C 0.2289(2) 0.45520(12) 0.77068(14)
C17_7 C 0.2023(2) 0.45657(13) 0.73019(15)
C18_7 C 0.20525(19) 0.49496(15) 0.70232(13)
H5_7 H 0.1874 0.4959 0.6752
C19_7 C 0.1327(5) 0.4307(4) 0.6732(4)
H6_7 H 0.1120 0.4564 0.6810
H7_7 H 0.1121 0.4051 0.6652
H8_7 H 0.1536 0.4387 0.6479
C20_7 C 0.1966(4) 0.3766(3) 0.6963(3)
H9_7 H 0.2191 0.3653 0.7191
H10_7 H 0.2153 0.3864 0.6702
H11_7 H 0.1741 0.3525 0.6876
C21_7 C 0.1345(4) 0.3997(4) 0.7533(4)
H12_7 H 0.1551 0.3918 0.7788
H13_7 H 0.1169 0.3729 0.7431
H14_7 H 0.1110 0.4229 0.7621
C22_7 C 0.3018(3) 0.5686(2) 0.7660(3)
H15_7 H 0.2994 0.5927 0.7440
H16_7 H 0.3345 0.5552 0.7647
H17_7 H 0.2961 0.5809 0.7958
C23_7 C 0.28109(16) 0.49267(14) 0.83175(11)
C24_7 C 0.27243(16) 0.52914(12) 0.86113(13)
C25_7 C 0.29989(18) 0.53306(12) 0.90097(12)
C26_7 C 0.33600(18) 0.50053(14) 0.91144(13)
H18_7 H 0.3544 0.5032 0.9381
C27_7 C 0.34467(16) 0.46406(13) 0.88206(15)
C28_7 C 0.31721(17) 0.46013(12) 0.84221(13)
C29_7 C 0.3891(3) 0.4307(2) 0.8910(3)
C30_7 C 0.4280(5) 0.4369(5) 0.8539(5)
H19_7 H 0.4555 0.4165 0.8593
H20_7 H 0.4398 0.4681 0.8541
H21_7 H 0.4134 0.4302 0.8249
C31_7 C 0.4140(5) 0.4410(4) 0.9363(4)
H22_7 H 0.4412 0.4200 0.9410
H23_7 H 0.3901 0.4375 0.9603
H24_7 H 0.4264 0.4719 0.9361
C32_7 C 0.3767(4) 0.3798(2) 0.8932(3)
H25_7 H 0.4066 0.3626 0.8988
H26_7 H 0.3624 0.3702 0.8648
H27_7 H 0.3533 0.3744 0.9173
C33_7 C 0.2271(3) 0.5616(3) 0.8537(3)
H28_7 H 0.2268 0.5847 0.8770
H29_7 H 0.1968 0.5441 0.8552
H30_7 H 0.2297 0.5760 0.8245
C34_7 C 0.2947(2) 0.57345(11) 0.93213(13)
C35_7 C 0.2853(2) 0.56710(10) 0.97812(13)
H31_7 H 0.2820 0.5376 0.9898
C37_7 C 0.28581(19) 0.64894(11) 0.98926(12)
C38_7 C 0.2952(2) 0.65528(10) 0.94327(12)
H33_7 H 0.2985 0.6848 0.9316
C39_7 C 0.2997(2) 0.61754(13) 0.91470(10)
H34_7 H 0.3060 0.6218 0.8839
C48_7 C 0.0900(2) 0.1631(3) 0.8396(2)
C51_7 C 0.01957(14) 0.24709(17) 0.91637(11)
C52_7 C 0.05764(12) 0.22028(18) 0.89840(13)
C53_7 C 0.05132(12) 0.19887(15) 0.85663(13)
C54_7 C 0.00694(14) 0.20426(16) 0.83282(11)
H39_7 H 0.0027 0.1899 0.8049
C55_7 C 0.0961(4) 0.1241(3) 0.8740(4)
H40_7 H 0.0641 0.1105 0.8800
H41_7 H 0.1096 0.1362 0.9018
H42_7 H 0.1183 0.1014 0.8620
C56_7 C 0.1422(3) 0.1845(3) 0.8303(3)
H43_7 H 0.1646 0.1610 0.8200
H44_7 H 0.1549 0.1978 0.8578
H45_7 H 0.1393 0.2078 0.8074
C57_7 C 0.0738(3) 0.1420(4) 0.7943(3)
H46_7 H 0.0417 0.1277 0.7978
H47_7 H 0.0978 0.1195 0.7849
H48_7 H 0.0716 0.1657 0.7717
C59_7 C 0.02454(18) 0.2641(2) 0.96515(13)
C64_7 C 0.06069(18) 0.2971(2) 0.97410(15)
H58_7 H 0.1551 0.3426 0.9887
C68_7 C 0.0858(6) 0.3980(7) 0.9922(8)
H59_7 H 0.1067 0.4240 0.9984
H60_7 H 0.0514 0.4069 0.9945
H61_7 H 0.0924 0.3870 0.9621
H72_7 H 0.371501 0.328293 0.689294
H73_7 H 0.351419 0.278328 0.673406
C61_7 C 0.9915(2) 0.2739(3) 0.04054(14)
H62_7 H 0.9331 0.2069 0.0161
C70_7 C 0.95749(15) 0.2616(3) 0.07806(13)
C71_7 C 0.97531(12) 0.2507(3) 0.12104(15)
C72_7 C 0.94207(17) 0.2416(3) 0.15611(12)
H66_7 H 0.9540 0.2342 0.1849
C73_7 C 0.89100(15) 0.2434(2) 0.14821(12)
C74_7 C 0.87317(12) 0.2543(2) 0.10523(14)
H67_7 H 0.8390 0.2555 0.0999
C75_7 C 0.90641(16) 0.2634(2) 0.07015(12)
H68_7 H 0.8945 0.2707 0.0414
C76_7 C 0.8556(3) 0.2324(3) 0.1840(3)
C41_7 C 0.7890(2) 0.2700(2) 0.7473(2)
C42_7 C 0.83613(11) 0.25556(16) 0.77247(12)
C43_7 C 0.83382(11) 0.23218(17) 0.81356(13)
H35_7 H 0.8033 0.2217 0.8245
C44_7 C 0.87712(13) 0.22440(18) 0.83835(12)
H36_7 H 0.8756 0.2088 0.8658
C45_7 C 0.92273(11) 0.24000(18) 0.82206(13)
C46_7 C 0.92503(11) 0.26338(16) 0.78097(13)
H37_7 H 0.9555 0.2738 0.7701
C47_7 C 0.88174(13) 0.27116(15) 0.75618(10)
H38_7 H 0.8833 0.2868 0.7287
C49_7 C 0.96888(12) 0.23107(18) 0.85079(13)
C50_7 C 0.97520(13) 0.25249(17) 0.89257(13)
C58_7 C 0.9356(3) 0.2867(4) 0.9088(3)
H49_7 H 0.9449 0.2986 0.9380
H50_7 H 0.9040 0.2714 0.9111
H51_7 H 0.9331 0.3115 0.8874
C60_7 C 0.98995(18) 0.2525(2) 0.99837(15)
C69_7 C 0.9548(3) 0.2105(4) 0.9904(3)
H63_7 H 0.9746 0.1833 0.9866
H64_7 H 0.9352 0.2156 0.9636
C41_8 C 0.2110(2) 0.7300(2) 0.2473(2)
C42_8 C 0.16387(11) 0.74444(16) 0.27247(12)
C43_8 C 0.16618(11) 0.76782(17) 0.31356(13)
H35_8 H 0.1967 0.7783 0.3245
C44_8 C 0.12288(13) 0.77560(18) 0.33835(12)
H36_8 H 0.1244 0.7912 0.3658
C45_8 C 0.07727(11) 0.76000(18) 0.32206(13)
C46_8 C 0.07497(11) 0.73662(16) 0.28097(13)
H37_8 H 0.0445 0.7262 0.2701
C47_8 C 0.11826(13) 0.72884(15) 0.25618(10)
H38_8 H 0.1167 0.7132 0.2287
C49_8 C 0.03112(12) 0.76893(18) 0.35079(13)
C50_8 C 0.02480(13) 0.74751(17) 0.39257(13)
C58_8 C 0.0644(3) 0.7133(4) 0.4088(3)
H49_8 H 0.0551 0.7014 0.4380
H50_8 H 0.0960 0.7286 0.4111
H51_8 H 0.0669 0.6885 0.3874
C60_8 C 0.01005(18) 0.7475(2) 0.49837(15)
C61_8 C 0.0085(2) 0.7261(3) 0.54054(14)
C69_8 C 0.0452(3) 0.7895(4) 0.4904(3)
H62_8 H 0.0669 0.7931 0.5161
H63_8 H 0.0254 0.8167 0.4866
H64_8 H 0.0648 0.7844 0.4636
C70_8 C 0.04251(15) 0.7384(3) 0.57806(13)
C71_8 C 0.02469(12) 0.7493(3) 0.62104(15)
C72_8 C 0.05793(17) 0.7584(3) 0.65611(12)
H66_8 H 0.0460 0.7658 0.6849
C73_8 C 0.10900(15) 0.7566(2) 0.64821(12)
C74_8 C 0.12683(12) 0.7457(2) 0.60523(14)
H67_8 H 0.1610 0.7445 0.5999
C75_8 C 0.09359(16) 0.7366(2) 0.57015(12)
H68_8 H 0.1055 0.7293 0.5414
C76_8 C 0.1444(3) 0.7676(3) 0.6840(3)
P1_8 P 0.72076(8) 0.61259(6) 0.30556(6)
P2_8 P 0.86508(6) 0.73539(7) 0.43021(6)
O7_8 O 0.7700(2) 0.58289(16) 0.29630(17)
O8_8 O 0.67708(19) 0.57549(15) 0.31164(16)
O9_8 O 0.7059(2) 0.63663(18) 0.26315(17)
O10_8 O 0.7318(2) 0.63806(15) 0.34723(15)
O15_8 O 0.89873(16) 0.77989(19) 0.42209(15)
O16_8 O 0.90370(19) 0.6955(2) 0.44122(17)
O17_8 O 0.8359(2) 0.7466(2) 0.47116(16)
O18_8 O 0.83980(15) 0.7187(2) 0.38860(15)
O21_8 O 0.6585(2) 0.6914(3) 0.18597(19)
C5_8 C 0.7500(3) 0.3208(2) 0.0884(2)
C6_8 C 0.7565(2) 0.35905(12) 0.11937(12)
C7_8 C 0.7704(2) 0.34962(11) 0.16385(13)
H1_8 H 0.7783 0.3197 0.1724
C8_8 C 0.7728(2) 0.38484(14) 0.19560(11)
H2_8 H 0.7821 0.3785 0.2254
C9_8 C 0.7611(2) 0.42949(12) 0.18288(12)
C10_8 C 0.7471(2) 0.43892(10) 0.13840(14)
H3_8 H 0.7393 0.4688 0.1299
C11_8 C 0.7448(2) 0.40370(14) 0.10664(11)
H4_8 H 0.7354 0.4100 0.0769
C12_8 C 0.8333(3) 0.5825(3) 0.2155(3)
C13_8 C 0.7651(2) 0.46802(12) 0.21494(14)
C14_8 C 0.73854(19) 0.46939(12) 0.25542(14)
C15_8 C 0.74153(18) 0.50778(14) 0.28329(12)
C16_8 C 0.7711(2) 0.54480(12) 0.27068(14)
C17_8 C 0.7977(2) 0.54343(13) 0.23019(15)
C18_8 C 0.79475(19) 0.50504(15) 0.20232(13)
H5_8 H 0.8126 0.5041 0.1752
C19_8 C 0.8673(5) 0.5693(4) 0.1732(4)
H6_8 H 0.8880 0.5436 0.1810
H7_8 H 0.8879 0.5949 0.1652
H8_8 H 0.8464 0.5613 0.1479
C20_8 C 0.8034(4) 0.6234(3) 0.1963(3)
H9_8 H 0.7809 0.6347 0.2191
H10_8 H 0.7847 0.6136 0.1702
H11_8 H 0.8259 0.6475 0.1876
C21_8 C 0.8655(4) 0.6003(4) 0.2533(4)
H12_8 H 0.8449 0.6082 0.2788
H13_8 H 0.8831 0.6271 0.2431
H14_8 H 0.8890 0.5771 0.2621
C22_8 C 0.6982(3) 0.4314(2) 0.2660(3)
H15_8 H 0.7006 0.4073 0.2440
H16_8 H 0.6655 0.4448 0.2647
H17_8 H 0.7039 0.4191 0.2958
C23_8 C 0.71891(16) 0.50733(14) 0.33175(11)
C24_8 C 0.72757(16) 0.47086(12) 0.36113(13)
C25_8 C 0.70011(18) 0.46694(12) 0.40097(12)
C26_8 C 0.66400(18) 0.49947(14) 0.41144(13)
H18_8 H 0.6456 0.4968 0.4381
C27_8 C 0.65533(16) 0.53594(13) 0.38206(15)
C28_8 C 0.68279(17) 0.53987(12) 0.34221(13)
C29_8 C 0.6109(3) 0.5693(2) 0.3910(3)
C30_8 C 0.5720(5) 0.5631(5) 0.3539(5)
H19_8 H 0.5445 0.5835 0.3593
H20_8 H 0.5602 0.5319 0.3541
H21_8 H 0.5866 0.5698 0.3249
C31_8 C 0.5860(5) 0.5590(4) 0.4363(4)
H22_8 H 0.5588 0.5800 0.4410
H23_8 H 0.6099 0.5625 0.4603
H24_8 H 0.5736 0.5281 0.4361
C32_8 C 0.6233(4) 0.6202(2) 0.3932(3)
H25_8 H 0.5934 0.6374 0.3988
H26_8 H 0.6376 0.6298 0.3648
H27_8 H 0.6467 0.6256 0.4173
C33_8 C 0.7729(3) 0.4384(3) 0.3537(3)
H28_8 H 0.7732 0.4153 0.3770
H29_8 H 0.8032 0.4559 0.3552
H30_8 H 0.7703 0.4240 0.3245
C34_8 C 0.7053(2) 0.42655(11) 0.43213(13)
C35_8 C 0.7147(2) 0.43290(10) 0.47812(13)
H31_8 H 0.7180 0.4624 0.4898
C36_8 C 0.7191(2) 0.39515(13) 0.50668(10)
H32_8 H 0.7254 0.3994 0.5374
C37_8 C 0.71419(19) 0.35106(11) 0.48926(12)
C38_8 C 0.7048(2) 0.34472(10) 0.44327(12)
H33_8 H 0.7015 0.3152 0.4316
C39_8 C 0.7003(2) 0.38246(13) 0.41470(10)
H34_8 H 0.6940 0.3782 0.3839
C40_8 C 0.7261(2) 0.3103(2) 0.5193(2)
C48_8 C 0.9100(2) 0.8369(3) 0.3396(2)
C51_8 C 0.98043(14) 0.75291(17) 0.41637(11)
C52_8 C 0.94236(12) 0.77972(18) 0.39840(13)
C53_8 C 0.94868(12) 0.80113(15) 0.35663(13)
C54_8 C 0.99306(14) 0.79574(16) 0.33282(11)
H39_8 H 0.9973 0.8101 0.3049
C55_8 C 0.9039(4) 0.8759(3) 0.3740(4)
H40_8 H 0.9359 0.8895 0.3800
H41_8 H 0.8904 0.8638 0.4018
H42_8 H 0.8817 0.8986 0.3620
C56_8 C 0.8578(3) 0.8155(3) 0.3303(3)
H43_8 H 0.8354 0.8390 0.3200
H44_8 H 0.8451 0.8022 0.3578
H45_8 H 0.8607 0.7922 0.3074
C57_8 C 0.9262(3) 0.8580(4) 0.2943(3)
H46_8 H 0.9583 0.8723 0.2978
H47_8 H 0.9022 0.8805 0.2849
H48_8 H 0.9284 0.8343 0.2717
C59_8 C 0.97546(18) 0.7359(2) 0.46515(13)
C62_8 C 0.9724(2) 0.6932(3) 0.54950(16)
H52_8 H 0.9713 0.6789 0.5777
C63_8 C 0.9378(2) 0.6816(2) 0.51627(19)
C64_8 C 0.93931(18) 0.7029(2) 0.47410(15)
C65_8 C 0.9032(5) 0.6406(6) 0.5271(5)
C66_8 C 0.9131(6) 0.6163(8) 0.5704(8)
H53_8 H 0.9078 0.6369 0.5953
H54_8 H 0.9470 0.6057 0.5707
H55_8 H 0.8909 0.5906 0.5731
C67_8 C 0.8503(5) 0.6474(8) 0.5194(8)
H56_8 H 0.8379 0.6702 0.5400
H57_8 H 0.8329 0.6190 0.5244
H58_8 H 0.8449 0.6574 0.4887
C68_8 C 0.9142(6) 0.6020(7) 0.4922(8)
H59_8 H 0.8933 0.5760 0.4984
H60_8 H 0.9486 0.5931 0.4945
H61_8 H 0.9076 0.6130 0.4621
H65_8 H 0.9905 0.7505 0.6263
O22_8 O 0.7913(3) 0.8053(3) 0.54450(18)
O23_8 O 0.8023(5) 0.8358(3) 0.6114(2)
C77_8 C 0.7823(7) 0.8098(6) 0.5838(5)
C78_8 C 0.7489(9) 0.7732(8) 0.6036(9)
H69_8 H 0.7359 0.7544 0.5795
H70_8 H 0.7218 0.7874 0.6196
H71_8 H 0.7678 0.7544 0.6242
H72_8 H 0.628499 0.671707 0.189294
H73_8 H 0.648581 0.721672 0.173406
loop_
_geom_bond_atom_site_label_1
_geom_bond_atom_site_label_2
_geom_bond_site_symmetry_1
_geom_bond_site_symmetry_2
O1 C1 1_555 1_555
O2 C1 1_555 1_555
C1 C2 1_555 1_555
C2 H74 1_555 1_555
C2 H75 1_555 1_555
C2 H76 1_555 1_555
O1_2 C1_2 1_555 1_555
O2_2 C1_2 1_555 1_555
C1_2 C2_2 1_555 1_555
C2_2 H74_2 1_555 1_555
C2_2 H75_2 1_555 1_555
C2_2 H76_2 1_555 1_555
O1_3 C1_3 1_555 1_555
O2_3 C1_3 1_555 1_555
C1_3 C2_3 1_555 1_555
C2_3 H74_3 1_555 1_555
C2_3 H75_3 1_555 1_555
C2_3 H76_3 1_555 1_555
O1_4 C1_4 1_555 1_555
O2_4 C1_4 1_555 1_555
C1_4 C2_4 1_555 1_555
C2_4 H74_4 1_555 1_555
C2_4 H75_4 1_555 1_555
C2_4 H76_4 1_555 1_555
O1_5 C1_5 1_555 1_555
O2_5 C1_5 1_555 1_555
C1_5 C2_5 1_555 1_555
C2_5 H74_5 1_555 1_555
C2_5 H75_5 1_555 1_555
C2_5 H76_5 1_555 1_555
O1_6 C1_6 1_555 1_555
O2_6 C1_6 1_555 1_555
C1_6 C2_6 1_555 1_555
C2_6 H74_6 1_555 1_555
C2_6 H75_6 1_555 1_555
C2_6 H76_6 1_555 1_555
O1_7 C1_7 1_555 1_555
O2_7 C1_7 1_555 1_555
C1_7 C2_7 1_555 1_555
C2_7 H74_7 1_555 1_555
C2_7 H75_7 1_555 1_555
C2_7 H76_7 1_555 1_555
O1_8 C1_8 1_555 1_555
O2_8 C1_8 1_555 1_555
C1_8 C2_8 1_555 1_555
C2_8 H74_8 1_555 1_555
C2_8 H75_8 1_555 1_555
C2_8 H76_8 1_555 1_555
O3 C3 1_555 1_555
O4 C3 1_555 1_555
C3 C4 1_555 1_555
C4 H77 1_555 1_555
C4 H78 1_555 1_555
C4 H79 1_555 1_555
O3_2 C3_2 1_555 1_555
O4_2 C3_2 1_555 1_555
C3_2 C4_2 1_555 1_555
C4_2 H77_2 1_555 1_555
C4_2 H78_2 1_555 1_555
C4_2 H79_2 1_555 1_555
O3_3 C3_3 1_555 1_555
O4_3 C3_3 1_555 1_555
C3_3 C4_3 1_555 1_555
C4_3 H77_3 1_555 1_555
C4_3 H78_3 1_555 1_555
C4_3 H79_3 1_555 1_555
O3_4 C3_4 1_555 1_555
O4_4 C3_4 1_555 1_555
C3_4 C4_4 1_555 1_555
C4_4 H77_4 1_555 1_555
C4_4 H78_4 1_555 1_555
C4_4 H79_4 1_555 1_555
O3_5 C3_5 1_555 1_555
C3_5 C4_5 1_555 1_555
C4_5 H77_5 1_555 1_555
C4_5 H79_5 1_555 1_555
O3_6 C3_6 1_555 1_555
C3_6 C4_6 1_555 1_555
C4_6 H77_6 1_555 1_555
C4_6 H79_6 1_555 1_555
O3_7 C3_7 1_555 1_555
C3_7 C4_7 1_555 1_555
C4_7 H77_7 1_555 1_555
C4_7 H79_7 1_555 1_555
O3_8 C3_8 1_555 1_555
C3_8 C4_8 1_555 1_555
C4_8 H77_8 1_555 1_555
C4_8 H79_8 1_555 1_555
Cr1 O9 1_555 1_555
Cr2 O10 1_555 1_555
Cr3 O17 1_555 1_555
P1 O7 1_555 1_555
P2 O15 1_555 1_555
O7 C16 1_555 1_555
O8 P1 1_555 1_555
O9 P1 1_555 1_555
O10 P1 1_555 1_555
O13 C41 1_555 1_555
O14 C41 1_555 1_555
O15 C52 1_555 1_555
O16 P2 1_555 1_555
O17 P2 1_555 1_555
O18 Cr2 1_555 1_555
O21 Cr1 1_555 1_555
C12 C17 1_555 1_555
C16 C15 1_555 1_555
C17 C16 1_555 1_555
H5 C18 1_555 1_555
C19 C12 1_555 1_555
H6 C19 1_555 1_555
H7 C19 1_555 1_555
H8 C19 1_555 1_555
C20 C12 1_555 1_555
H9 C20 1_555 1_555
H10 C20 1_555 1_555
H11 C20 1_555 1_555
C21 C12 1_555 1_555
H12 C21 1_555 1_555
H13 C21 1_555 1_555
H14 C21 1_555 1_555
C23 C15 1_555 1_555
C28 O8 1_555 1_555
C29 C27 1_555 1_555
C30 C29 1_555 1_555
H19 C30 1_555 1_555
H20 C30 1_555 1_555
H21 C30 1_555 1_555
C31 C29 1_555 1_555
H22 C31 1_555 1_555
H23 C31 1_555 1_555
H24 C31 1_555 1_555
C32 C29 1_555 1_555
H25 C32 1_555 1_555
H26 C32 1_555 1_555
H27 C32 1_555 1_555
C41 C42 1_555 1_555
C42 C43 1_555 1_555
C43 H35 1_555 1_555
C44 C43 1_555 1_555
H36 C44 1_555 1_555
C45 C44 1_555 1_555
C46 C45 1_555 1_555
H37 C46 1_555 1_555
C47 C42 1_555 1_555
H38 C47 1_555 1_555
C48 C53 1_555 1_555
C49 C45 1_555 1_555
C50 C49 1_555 1_555
C51 C50 1_555 1_555
C52 C51 1_555 1_555
C53 C52 1_555 1_555
C54 C49 1_555 1_555
H39 C54 1_555 1_555
C55 C48 1_555 1_555
H40 C55 1_555 1_555
H41 C55 1_555 1_555
H42 C55 1_555 1_555
C56 C48 1_555 1_555
H43 C56 1_555 1_555
H44 C56 1_555 1_555
H45 C56 1_555 1_555
C57 C48 1_555 1_555
H46 C57 1_555 1_555
H47 C57 1_555 1_555
H48 C57 1_555 1_555
C58 C50 1_555 1_555
H49 C58 1_555 1_555
H50 C58 1_555 1_555
H51 C58 1_555 1_555
C59 C51 1_555 1_555
C60 C59 1_555 1_555
C64 O16 1_555 1_555
H59 C68 1_555 1_555
H60 C68 1_555 1_555
H61 C68 1_555 1_555
C69 C60 1_555 1_555
H63 C69 1_555 1_555
H64 C69 1_555 1_555
Cr4 O13 1_555 1_555
Cr7 O14 1_555 1_555
O24 Cr3 1_555 1_555
O25 Cr2 1_555 1_555
O27 Cr2 1_555 1_555
O28 Cr1 1_555 1_555
O29 Cr2 1_555 1_555
O30 Cr1 1_555 1_555
O31 Cr1 1_555 1_555
Cr2 O31 1_555 1_555
P2 O18 1_555 1_555
C17 C18 1_555 1_555
C23 C28 1_555 1_555
C27 C28 1_555 1_555
C46 C47 1_555 1_555
C53 C54 1_555 1_555
C59 C64 1_555 1_555
O21 H72 1_555 1_555
O21 H73 1_555 1_555
O19 C76 1_555 1_555
O20 C76 1_555 1_555
C62 C61 1_555 1_555
H52 C62 1_555 1_555
C63 C62 1_555 1_555
C65 C63 1_555 1_555
C66 C65 1_555 1_555
H53 C66 1_555 1_555
H54 C66 1_555 1_555
H55 C66 1_555 1_555
C67 C65 1_555 1_555
H56 C67 1_555 1_555
H57 C67 1_555 1_555
C70 C61 1_555 1_555
C71 C70 1_555 1_555
H65 C71 1_555 1_555
C72 C71 1_555 1_555
H66 C72 1_555 1_555
C73 C72 1_555 1_555
C74 C73 1_555 1_555
H67 C74 1_555 1_555
C75 C70 1_555 1_555
H68 C75 1_555 1_555
C76 C73 1_555 1_555
O23 C77 1_555 1_555
C77 O22 1_555 1_555
C78 C77 1_555 1_555
H69 C78 1_555 1_555
H70 C78 1_555 1_555
H71 C78 1_555 1_555
Cr5 O19 1_555 1_555
Cr8 O20 1_555 1_555
O20 Cr5 1_555 1_555
C74 C75 1_555 1_555
O5 C5 1_555 1_555
O6 C5 1_555 1_555
C5 C6 1_555 1_555
C6 C7 1_555 1_555
C7 H1 1_555 1_555
C8 C7 1_555 1_555
H2 C8 1_555 1_555
C9 C8 1_555 1_555
C10 C9 1_555 1_555
H3 C10 1_555 1_555
C11 C6 1_555 1_555
H4 C11 1_555 1_555
C13 C9 1_555 1_555
C14 C13 1_555 1_555
C22 C14 1_555 1_555
H15 C22 1_555 1_555
H16 C22 1_555 1_555
H17 C22 1_555 1_555
C25 C24 1_555 1_555
C26 C25 1_555 1_555
H18 C26 1_555 1_555
C33 C24 1_555 1_555
H28 C33 1_555 1_555
H29 C33 1_555 1_555
H30 C33 1_555 1_555
C34 C25 1_555 1_555
C35 C34 1_555 1_555
H31 C35 1_555 1_555
C38 C37 1_555 1_555
H33 C38 1_555 1_555
C39 C34 1_555 1_555
H34 C39 1_555 1_555
Cr9 O6 1_555 1_555
Cr11 O5 1_555 1_555
C10 C11 1_555 1_555
C38 C39 1_555 1_555
O12 C40 1_555 1_555
H32 C36 1_555 1_555
Cr6 O12 1_555 1_555
O5_2 C5_2 1_555 1_555
O6_2 C5_2 1_555 1_555
O11_2 C40_2 1_555 1_555
O12_2 C40_2 1_555 1_555
C5_2 C6_2 1_555 1_555
C6_2 C7_2 1_555 1_555
C7_2 H1_2 1_555 1_555
C8_2 C7_2 1_555 1_555
H2_2 C8_2 1_555 1_555
C9_2 C8_2 1_555 1_555
C10_2 C9_2 1_555 1_555
H3_2 C10_2 1_555 1_555
C11_2 C6_2 1_555 1_555
H4_2 C11_2 1_555 1_555
C13_2 C9_2 1_555 1_555
C14_2 C13_2 1_555 1_555
C22_2 C14_2 1_555 1_555
H15_2 C22_2 1_555 1_555
H16_2 C22_2 1_555 1_555
H17_2 C22_2 1_555 1_555
C25_2 C24_2 1_555 1_555
C26_2 C25_2 1_555 1_555
H18_2 C26_2 1_555 1_555
C33_2 C24_2 1_555 1_555
H28_2 C33_2 1_555 1_555
H29_2 C33_2 1_555 1_555
H30_2 C33_2 1_555 1_555
C34_2 C25_2 1_555 1_555
C35_2 C34_2 1_555 1_555
H31_2 C35_2 1_555 1_555
C36_2 C35_2 1_555 1_555
H32_2 C36_2 1_555 1_555
C37_2 C36_2 1_555 1_555
C38_2 C37_2 1_555 1_555
H33_2 C38_2 1_555 1_555
C39_2 C34_2 1_555 1_555
H34_2 C39_2 1_555 1_555
C40_2 C37_2 1_555 1_555
Cr7 O12_2 1_555 1_555
Cr8 O6_2 1_555 1_555
Cr10_2 O11_2 1_555 1_555
Cr11_2 O5_2 1_555 1_555
C10_2 C11_2 1_555 1_555
C38_2 C39_2 1_555 1_555
Cr1_2 O9_2 1_555 1_555
Cr2_2 O10_2 1_555 1_555
Cr3_2 O17_2 1_555 1_555
P1_2 O7_2 1_555 1_555
P2_2 O15_2 1_555 1_555
O7_2 C16_2 1_555 1_555
O8_2 P1_2 1_555 1_555
O9_2 P1_2 1_555 1_555
O10_2 P1_2 1_555 1_555
O13_2 C41_2 1_555 1_555
O14_2 C41_2 1_555 1_555
O15_2 C52_2 1_555 1_555
O16_2 P2_2 1_555 1_555
O17_2 P2_2 1_555 1_555
O18_2 Cr2_2 1_555 1_555
O19_2 C76_2 1_555 1_555
O20_2 C76_2 1_555 1_555
O21_2 Cr1_2 1_555 1_555
C12_2 C17_2 1_555 1_555
C16_2 C15_2 1_555 1_555
C17_2 C16_2 1_555 1_555
H5_2 C18_2 1_555 1_555
C19_2 C12_2 1_555 1_555
H6_2 C19_2 1_555 1_555
H7_2 C19_2 1_555 1_555
H8_2 C19_2 1_555 1_555
C20_2 C12_2 1_555 1_555
H9_2 C20_2 1_555 1_555
H10_2 C20_2 1_555 1_555
H11_2 C20_2 1_555 1_555
C21_2 C12_2 1_555 1_555
H12_2 C21_2 1_555 1_555
H13_2 C21_2 1_555 1_555
H14_2 C21_2 1_555 1_555
C23_2 C15_2 1_555 1_555
C28_2 O8_2 1_555 1_555
C29_2 C27_2 1_555 1_555
C30_2 C29_2 1_555 1_555
H19_2 C30_2 1_555 1_555
H20_2 C30_2 1_555 1_555
H21_2 C30_2 1_555 1_555
C31_2 C29_2 1_555 1_555
H22_2 C31_2 1_555 1_555
H23_2 C31_2 1_555 1_555
H24_2 C31_2 1_555 1_555
C32_2 C29_2 1_555 1_555
H25_2 C32_2 1_555 1_555
H26_2 C32_2 1_555 1_555
H27_2 C32_2 1_555 1_555
C41_2 C42_2 1_555 1_555
C42_2 C43_2 1_555 1_555
C43_2 H35_2 1_555 1_555
C44_2 C43_2 1_555 1_555
H36_2 C44_2 1_555 1_555
C45_2 C44_2 1_555 1_555
C46_2 C45_2 1_555 1_555
H37_2 C46_2 1_555 1_555
C47_2 C42_2 1_555 1_555
H38_2 C47_2 1_555 1_555
C48_2 C53_2 1_555 1_555
C49_2 C45_2 1_555 1_555
C50_2 C49_2 1_555 1_555
C51_2 C50_2 1_555 1_555
C52_2 C51_2 1_555 1_555
C53_2 C52_2 1_555 1_555
C54_2 C49_2 1_555 1_555
H39_2 C54_2 1_555 1_555
C55_2 C48_2 1_555 1_555
H40_2 C55_2 1_555 1_555
H41_2 C55_2 1_555 1_555
H42_2 C55_2 1_555 1_555
C56_2 C48_2 1_555 1_555
H43_2 C56_2 1_555 1_555
H44_2 C56_2 1_555 1_555
H45_2 C56_2 1_555 1_555
C57_2 C48_2 1_555 1_555
H46_2 C57_2 1_555 1_555
H47_2 C57_2 1_555 1_555
H48_2 C57_2 1_555 1_555
C58_2 C50_2 1_555 1_555
H49_2 C58_2 1_555 1_555
H50_2 C58_2 1_555 1_555
H51_2 C58_2 1_555 1_555
C59_2 C51_2 1_555 1_555
C60_2 C59_2 1_555 1_555
C61_2 C60_2 1_555 1_555
C62_2 C61_2 1_555 1_555
H52_2 C62_2 1_555 1_555
C63_2 C62_2 1_555 1_555
C64_2 O16_2 1_555 1_555
C65_2 C63_2 1_555 1_555
C66_2 C65_2 1_555 1_555
H53_2 C66_2 1_555 1_555
H54_2 C66_2 1_555 1_555
H55_2 C66_2 1_555 1_555
C67_2 C65_2 1_555 1_555
H56_2 C67_2 1_555 1_555
H57_2 C67_2 1_555 1_555
H58_2 C67_2 1_555 1_555
C68_2 C65_2 1_555 1_555
H59_2 C68_2 1_555 1_555
H60_2 C68_2 1_555 1_555
H61_2 C68_2 1_555 1_555
C69_2 C60_2 1_555 1_555
H62_2 C69_2 1_555 1_555
H63_2 C69_2 1_555 1_555
H64_2 C69_2 1_555 1_555
C70_2 C61_2 1_555 1_555
C71_2 C70_2 1_555 1_555
H65_2 C71_2 1_555 1_555
C72_2 C71_2 1_555 1_555
H66_2 C72_2 1_555 1_555
C73_2 C72_2 1_555 1_555
C74_2 C73_2 1_555 1_555
H67_2 C74_2 1_555 1_555
C75_2 C70_2 1_555 1_555
H68_2 C75_2 1_555 1_555
C76_2 C73_2 1_555 1_555
O22_2 Cr3_2 1_555 1_555
O23_2 C77_2 1_555 1_555
C77_2 O22_2 1_555 1_555
C78_2 C77_2 1_555 1_555
H69_2 C78_2 1_555 1_555
H70_2 C78_2 1_555 1_555
H71_2 C78_2 1_555 1_555
Cr4_2 O13_2 1_555 1_555
Cr5_2 O19_2 1_555 1_555
Cr6 O14_2 1_555 1_555
Cr9 O20_2 1_555 1_555
O24_2 Cr3_2 1_555 1_555
O25_2 Cr2_2 1_555 1_555
O26_2 Cr3_2 1_555 1_555
O27_2 Cr2_2 1_555 1_555
O28_2 Cr1_2 1_555 1_555
O29_2 Cr2_2 1_555 1_555
O30_2 Cr1_2 1_555 1_555
O31_2 Cr1_2 1_555 1_555
Cr2_2 O31_2 1_555 1_555
P2_2 O18_2 1_555 1_555
O20_2 Cr5_2 1_555 1_555
C17_2 C18_2 1_555 1_555
C23_2 C28_2 1_555 1_555
C27_2 C28_2 1_555 1_555
C46_2 C47_2 1_555 1_555
C53_2 C54_2 1_555 1_555
C59_2 C64_2 1_555 1_555
C63_2 C64_2 1_555 1_555
C74_2 C75_2 1_555 1_555
O21_2 H72_2 1_555 1_555
O21_2 H73_2 1_555 1_555
O27 C40_3 1_555 1_555
H32_3 C36_3 1_555 1_555
O5_3 C5_3 1_555 1_555
O6_3 C5_3 1_555 1_555
C5_3 C6_3 1_555 1_555
C6_3 C7_3 1_555 1_555
C7_3 H1_3 1_555 1_555
C8_3 C7_3 1_555 1_555
H2_3 C8_3 1_555 1_555
C9_3 C8_3 1_555 1_555
C10_3 C9_3 1_555 1_555
H3_3 C10_3 1_555 1_555
C11_3 C6_3 1_555 1_555
H4_3 C11_3 1_555 1_555
C13_3 C9_3 1_555 1_555
C14_3 C13_3 1_555 1_555
C22_3 C14_3 1_555 1_555
H15_3 C22_3 1_555 1_555
H16_3 C22_3 1_555 1_555
H17_3 C22_3 1_555 1_555
C25_3 C24_3 1_555 1_555
C26_3 C25_3 1_555 1_555
H18_3 C26_3 1_555 1_555
C33_3 C24_3 1_555 1_555
H28_3 C33_3 1_555 1_555
H29_3 C33_3 1_555 1_555
H30_3 C33_3 1_555 1_555
C34_3 C25_3 1_555 1_555
C35_3 C34_3 1_555 1_555
H31_3 C35_3 1_555 1_555
C38_3 C37_3 1_555 1_555
H33_3 C38_3 1_555 1_555
C39_3 C34_3 1_555 1_555
H34_3 C39_3 1_555 1_555
Cr9_2 O6_3 1_555 1_555
Cr11_3 O5_3 1_555 1_555
C10_3 C11_3 1_555 1_555
C38_3 C39_3 1_555 1_555
O19_3 C76_3 1_555 1_555
O20_3 C76_3 1_555 1_555
C62_3 C61_3 1_555 1_555
H52_3 C62_3 1_555 1_555
C63_3 C62_3 1_555 1_555
C65_3 C63_3 1_555 1_555
C66_3 C65_3 1_555 1_555
H53_3 C66_3 1_555 1_555
H54_3 C66_3 1_555 1_555
H55_3 C66_3 1_555 1_555
C67_3 C65_3 1_555 1_555
H56_3 C67_3 1_555 1_555
H57_3 C67_3 1_555 1_555
C70_3 C61_3 1_555 1_555
C71_3 C70_3 1_555 1_555
H65_3 C71_3 1_555 1_555
C72_3 C71_3 1_555 1_555
H66_3 C72_3 1_555 1_555
C73_3 C72_3 1_555 1_555
C74_3 C73_3 1_555 1_555
H67_3 C74_3 1_555 1_555
C75_3 C70_3 1_555 1_555
H68_3 C75_3 1_555 1_555
C76_3 C73_3 1_555 1_555
O23_3 C77_3 1_555 1_555
C77_3 O22_3 1_555 1_555
C78_3 C77_3 1_555 1_555
H69_3 C78_3 1_555 1_555
H70_3 C78_3 1_555 1_555
H71_3 C78_3 1_555 1_555
Cr5_3 O19_3 1_555 1_555
Cr8_2 O20_3 1_555 1_555
O20_3 Cr5_3 1_555 1_555
C74_3 C75_3 1_555 1_555
Cr4_2 O9_3 1_555 1_555
Cr6 O10_3 1_555 1_555
Cr10 O17_3 1_555 1_555
P1_3 O7_3 1_555 1_555
P2_3 O15_3 1_555 1_555
O7_3 C16_3 1_555 1_555
O8_3 P1_3 1_555 1_555
O9_3 P1_3 1_555 1_555
O10_3 P1_3 1_555 1_555
O28_2 C41_3 1_555 1_555
O29_2 C41_3 1_555 1_555
O15_3 C52_3 1_555 1_555
O16_3 P2_3 1_555 1_555
O17_3 P2_3 1_555 1_555
O18_3 Cr6 1_555 1_555
O21_3 Cr4_2 1_555 1_555
C12_3 C17_3 1_555 1_555
C16_3 C15_3 1_555 1_555
C17_3 C16_3 1_555 1_555
H5_3 C18_3 1_555 1_555
C19_3 C12_3 1_555 1_555
H6_3 C19_3 1_555 1_555
H7_3 C19_3 1_555 1_555
H8_3 C19_3 1_555 1_555
C20_3 C12_3 1_555 1_555
H9_3 C20_3 1_555 1_555
H10_3 C20_3 1_555 1_555
H11_3 C20_3 1_555 1_555
C21_3 C12_3 1_555 1_555
H12_3 C21_3 1_555 1_555
H13_3 C21_3 1_555 1_555
H14_3 C21_3 1_555 1_555
C23_3 C15_3 1_555 1_555
C28_3 O8_3 1_555 1_555
C29_3 C27_3 1_555 1_555
C30_3 C29_3 1_555 1_555
H19_3 C30_3 1_555 1_555
H20_3 C30_3 1_555 1_555
H21_3 C30_3 1_555 1_555
C31_3 C29_3 1_555 1_555
H22_3 C31_3 1_555 1_555
H23_3 C31_3 1_555 1_555
H24_3 C31_3 1_555 1_555
C32_3 C29_3 1_555 1_555
H25_3 C32_3 1_555 1_555
H26_3 C32_3 1_555 1_555
H27_3 C32_3 1_555 1_555
C41_3 C42_3 1_555 1_555
C42_3 C43_3 1_555 1_555
C43_3 H35_3 1_555 1_555
C44_3 C43_3 1_555 1_555
H36_3 C44_3 1_555 1_555
C45_3 C44_3 1_555 1_555
C46_3 C45_3 1_555 1_555
H37_3 C46_3 1_555 1_555
C47_3 C42_3 1_555 1_555
H38_3 C47_3 1_555 1_555
C48_3 C53_3 1_555 1_555
C49_3 C45_3 1_555 1_555
C50_3 C49_3 1_555 1_555
C51_3 C50_3 1_555 1_555
C52_3 C51_3 1_555 1_555
C53_3 C52_3 1_555 1_555
C54_3 C49_3 1_555 1_555
H39_3 C54_3 1_555 1_555
C55_3 C48_3 1_555 1_555
H40_3 C55_3 1_555 1_555
H41_3 C55_3 1_555 1_555
H42_3 C55_3 1_555 1_555
C56_3 C48_3 1_555 1_555
H43_3 C56_3 1_555 1_555
H44_3 C56_3 1_555 1_555
H45_3 C56_3 1_555 1_555
C57_3 C48_3 1_555 1_555
H46_3 C57_3 1_555 1_555
H47_3 C57_3 1_555 1_555
H48_3 C57_3 1_555 1_555
C58_3 C50_3 1_555 1_555
H49_3 C58_3 1_555 1_555
H50_3 C58_3 1_555 1_555
H51_3 C58_3 1_555 1_555
C59_3 C51_3 1_555 1_555
C60_3 C59_3 1_555 1_555
C64_3 O16_3 1_555 1_555
H59_3 C68_3 1_555 1_555
H60_3 C68_3 1_555 1_555
H61_3 C68_3 1_555 1_555
C69_3 C60_3 1_555 1_555
H63_3 C69_3 1_555 1_555
H64_3 C69_3 1_555 1_555
O24_3 Cr10 1_555 1_555
O25_3 Cr6 1_555 1_555
O30_3 Cr4_2 1_555 1_555
O31_3 Cr4_2 1_555 1_555
Cr6 O31_3 1_555 1_555
P2_3 O18_3 1_555 1_555
C17_3 C18_3 1_555 1_555
C23_3 C28_3 1_555 1_555
C27_3 C28_3 1_555 1_555
C46_3 C47_3 1_555 1_555
C53_3 C54_3 1_555 1_555
C59_3 C64_3 1_555 1_555
O21_3 H72_3 1_555 1_555
O21_3 H73_3 1_555 1_555
Cr4 O9_4 1_555 1_555
Cr7 O10_4 1_555 1_555
Cr10_2 O17_4 1_555 1_555
P1_4 O7_4 1_555 1_555
P2_4 O15_4 1_555 1_555
O7_4 C16_4 1_555 1_555
O8_4 P1_4 1_555 1_555
O9_4 P1_4 1_555 1_555
O10_4 P1_4 1_555 1_555
O28 C41_4 1_555 1_555
O29 C41_4 1_555 1_555
O15_4 C52_4 1_555 1_555
O16_4 P2_4 1_555 1_555
O17_4 P2_4 1_555 1_555
O18_4 Cr7 1_555 1_555
O19_4 C76_4 1_555 1_555
O20_4 C76_4 1_555 1_555
O21_4 Cr4 1_555 1_555
C12_4 C17_4 1_555 1_555
C16_4 C15_4 1_555 1_555
C17_4 C16_4 1_555 1_555
H5_4 C18_4 1_555 1_555
C19_4 C12_4 1_555 1_555
H6_4 C19_4 1_555 1_555
H7_4 C19_4 1_555 1_555
H8_4 C19_4 1_555 1_555
C20_4 C12_4 1_555 1_555
H9_4 C20_4 1_555 1_555
H10_4 C20_4 1_555 1_555
H11_4 C20_4 1_555 1_555
C21_4 C12_4 1_555 1_555
H12_4 C21_4 1_555 1_555
H13_4 C21_4 1_555 1_555
H14_4 C21_4 1_555 1_555
C23_4 C15_4 1_555 1_555
C28_4 O8_4 1_555 1_555
C29_4 C27_4 1_555 1_555
C30_4 C29_4 1_555 1_555
H19_4 C30_4 1_555 1_555
H20_4 C30_4 1_555 1_555
H21_4 C30_4 1_555 1_555
C31_4 C29_4 1_555 1_555
H22_4 C31_4 1_555 1_555
H23_4 C31_4 1_555 1_555
H24_4 C31_4 1_555 1_555
C32_4 C29_4 1_555 1_555
H25_4 C32_4 1_555 1_555
H26_4 C32_4 1_555 1_555
H27_4 C32_4 1_555 1_555
C41_4 C42_4 1_555 1_555
C42_4 C43_4 1_555 1_555
C43_4 H35_4 1_555 1_555
C44_4 C43_4 1_555 1_555
H36_4 C44_4 1_555 1_555
C45_4 C44_4 1_555 1_555
C46_4 C45_4 1_555 1_555
H37_4 C46_4 1_555 1_555
C47_4 C42_4 1_555 1_555
H38_4 C47_4 1_555 1_555
C48_4 C53_4 1_555 1_555
C49_4 C45_4 1_555 1_555
C50_4 C49_4 1_555 1_555
C51_4 C50_4 1_555 1_555
C52_4 C51_4 1_555 1_555
C53_4 C52_4 1_555 1_555
C54_4 C49_4 1_555 1_555
H39_4 C54_4 1_555 1_555
C55_4 C48_4 1_555 1_555
H40_4 C55_4 1_555 1_555
H41_4 C55_4 1_555 1_555
H42_4 C55_4 1_555 1_555
C56_4 C48_4 1_555 1_555
H43_4 C56_4 1_555 1_555
H44_4 C56_4 1_555 1_555
H45_4 C56_4 1_555 1_555
C57_4 C48_4 1_555 1_555
H46_4 C57_4 1_555 1_555
H47_4 C57_4 1_555 1_555
H48_4 C57_4 1_555 1_555
C58_4 C50_4 1_555 1_555
H49_4 C58_4 1_555 1_555
H50_4 C58_4 1_555 1_555
H51_4 C58_4 1_555 1_555
C59_4 C51_4 1_555 1_555
C60_4 C59_4 1_555 1_555
C61_4 C60_4 1_555 1_555
C62_4 C61_4 1_555 1_555
H52_4 C62_4 1_555 1_555
C63_4 C62_4 1_555 1_555
C64_4 O16_4 1_555 1_555
C65_4 C63_4 1_555 1_555
C66_4 C65_4 1_555 1_555
H53_4 C66_4 1_555 1_555
H54_4 C66_4 1_555 1_555
H55_4 C66_4 1_555 1_555
C67_4 C65_4 1_555 1_555
H56_4 C67_4 1_555 1_555
H57_4 C67_4 1_555 1_555
H58_4 C67_4 1_555 1_555
C68_4 C65_4 1_555 1_555
H59_4 C68_4 1_555 1_555
H60_4 C68_4 1_555 1_555
H61_4 C68_4 1_555 1_555
C69_4 C60_4 1_555 1_555
H62_4 C69_4 1_555 1_555
H63_4 C69_4 1_555 1_555
H64_4 C69_4 1_555 1_555
C70_4 C61_4 1_555 1_555
C71_4 C70_4 1_555 1_555
H65_4 C71_4 1_555 1_555
C72_4 C71_4 1_555 1_555
H66_4 C72_4 1_555 1_555
C73_4 C72_4 1_555 1_555
C74_4 C73_4 1_555 1_555
H67_4 C74_4 1_555 1_555
C75_4 C70_4 1_555 1_555
H68_4 C75_4 1_555 1_555
C76_4 C73_4 1_555 1_555
O22_4 Cr10_2 1_555 1_555
O23_4 C77_4 1_555 1_555
C77_4 O22_4 1_555 1_555
C78_4 C77_4 1_555 1_555
H69_4 C78_4 1_555 1_555
H70_4 C78_4 1_555 1_555
H71_4 C78_4 1_555 1_555
Cr5_4 O19_4 1_555 1_555
Cr9_2 O20_4 1_555 1_555
O24_4 Cr10_2 1_555 1_555
O25_4 Cr7 1_555 1_555
O30_4 Cr4 1_555 1_555
O31_4 Cr4 1_555 1_555
Cr7 O31_4 1_555 1_555
P2_4 O18_4 1_555 1_555
O20_4 Cr5_4 1_555 1_555
C17_4 C18_4 1_555 1_555
C23_4 C28_4 1_555 1_555
C27_4 C28_4 1_555 1_555
C46_4 C47_4 1_555 1_555
C53_4 C54_4 1_555 1_555
C59_4 C64_4 1_555 1_555
C63_4 C64_4 1_555 1_555
C74_4 C75_4 1_555 1_555
O21_4 H72_4 1_555 1_555
O21_4 H73_4 1_555 1_555
O5_4 C5_4 1_555 1_555
O6_4 C5_4 1_555 1_555
O26_2 C40_4 1_555 1_555
O27_2 C40_4 1_555 1_555
C5_4 C6_4 1_555 1_555
C6_4 C7_4 1_555 1_555
C7_4 H1_4 1_555 1_555
C8_4 C7_4 1_555 1_555
H2_4 C8_4 1_555 1_555
C9_4 C8_4 1_555 1_555
C10_4 C9_4 1_555 1_555
H3_4 C10_4 1_555 1_555
C11_4 C6_4 1_555 1_555
H4_4 C11_4 1_555 1_555
C13_4 C9_4 1_555 1_555
C14_4 C13_4 1_555 1_555
C22_4 C14_4 1_555 1_555
H15_4 C22_4 1_555 1_555
H16_4 C22_4 1_555 1_555
H17_4 C22_4 1_555 1_555
C25_4 C24_4 1_555 1_555
C26_4 C25_4 1_555 1_555
H18_4 C26_4 1_555 1_555
C33_4 C24_4 1_555 1_555
H28_4 C33_4 1_555 1_555
H29_4 C33_4 1_555 1_555
H30_4 C33_4 1_555 1_555
C34_4 C25_4 1_555 1_555
C35_4 C34_4 1_555 1_555
H31_4 C35_4 1_555 1_555
C36_4 C35_4 1_555 1_555
H32_4 C36_4 1_555 1_555
C37_4 C36_4 1_555 1_555
C38_4 C37_4 1_555 1_555
H33_4 C38_4 1_555 1_555
C39_4 C34_4 1_555 1_555
H34_4 C39_4 1_555 1_555
C40_4 C37_4 1_555 1_555
Cr8_2 O6_4 1_555 1_555
Cr11_4 O5_4 1_555 1_555
C10_4 C11_4 1_555 1_555
C38_4 C39_4 1_555 1_555
Cr5_3 O9_5 1_555 1_555
Cr8_2 O10_5 1_555 1_555
Cr11_4 O17_5 1_555 1_555
P1_5 O7_5 1_555 1_555
P2_5 O15_5 1_555 1_555
O24_4 C5_5 1_555 1_555
O25_4 C5_5 1_555 1_555
O7_5 C16_5 1_555 1_555
O8_5 P1_5 1_555 1_555
O9_5 P1_5 1_555 1_555
O10_5 P1_5 1_555 1_555
O15_5 C52_5 1_555 1_555
O16_5 P2_5 1_555 1_555
O17_5 P2_5 1_555 1_555
O18_5 Cr8_2 1_555 1_555
O21_5 Cr5_3 1_555 1_555
C5_5 C6_5 1_555 1_555
C6_5 C7_5 1_555 1_555
C7_5 H1_5 1_555 1_555
C8_5 C7_5 1_555 1_555
H2_5 C8_5 1_555 1_555
C9_5 C8_5 1_555 1_555
C10_5 C9_5 1_555 1_555
H3_5 C10_5 1_555 1_555
C11_5 C6_5 1_555 1_555
H4_5 C11_5 1_555 1_555
C12_5 C17_5 1_555 1_555
C13_5 C9_5 1_555 1_555
C14_5 C13_5 1_555 1_555
C15_5 C14_5 1_555 1_555
C16_5 C15_5 1_555 1_555
C17_5 C16_5 1_555 1_555
C18_5 C13_5 1_555 1_555
H5_5 C18_5 1_555 1_555
C19_5 C12_5 1_555 1_555
H6_5 C19_5 1_555 1_555
H7_5 C19_5 1_555 1_555
H8_5 C19_5 1_555 1_555
C20_5 C12_5 1_555 1_555
H9_5 C20_5 1_555 1_555
H10_5 C20_5 1_555 1_555
H11_5 C20_5 1_555 1_555
C21_5 C12_5 1_555 1_555
H12_5 C21_5 1_555 1_555
H13_5 C21_5 1_555 1_555
H14_5 C21_5 1_555 1_555
C22_5 C14_5 1_555 1_555
H15_5 C22_5 1_555 1_555
H16_5 C22_5 1_555 1_555
H17_5 C22_5 1_555 1_555
C23_5 C15_5 1_555 1_555
C24_5 C23_5 1_555 1_555
C25_5 C24_5 1_555 1_555
C26_5 C25_5 1_555 1_555
H18_5 C26_5 1_555 1_555
C27_5 C26_5 1_555 1_555
C28_5 O8_5 1_555 1_555
C29_5 C27_5 1_555 1_555
C30_5 C29_5 1_555 1_555
H19_5 C30_5 1_555 1_555
H20_5 C30_5 1_555 1_555
H21_5 C30_5 1_555 1_555
C31_5 C29_5 1_555 1_555
H22_5 C31_5 1_555 1_555
H23_5 C31_5 1_555 1_555
H24_5 C31_5 1_555 1_555
C32_5 C29_5 1_555 1_555
H25_5 C32_5 1_555 1_555
H26_5 C32_5 1_555 1_555
H27_5 C32_5 1_555 1_555
C33_5 C24_5 1_555 1_555
H28_5 C33_5 1_555 1_555
H29_5 C33_5 1_555 1_555
H30_5 C33_5 1_555 1_555
C34_5 C25_5 1_555 1_555
C35_5 C34_5 1_555 1_555
H31_5 C35_5 1_555 1_555
C38_5 C37_5 1_555 1_555
H33_5 C38_5 1_555 1_555
C39_5 C34_5 1_555 1_555
H34_5 C39_5 1_555 1_555
C48_5 C53_5 1_555 1_555
C52_5 C51_5 1_555 1_555
C53_5 C52_5 1_555 1_555
H39_5 C54_5 1_555 1_555
C55_5 C48_5 1_555 1_555
H40_5 C55_5 1_555 1_555
H41_5 C55_5 1_555 1_555
H42_5 C55_5 1_555 1_555
C56_5 C48_5 1_555 1_555
H43_5 C56_5 1_555 1_555
H44_5 C56_5 1_555 1_555
H45_5 C56_5 1_555 1_555
C57_5 C48_5 1_555 1_555
H46_5 C57_5 1_555 1_555
H47_5 C57_5 1_555 1_555
H48_5 C57_5 1_555 1_555
C59_5 C51_5 1_555 1_555
C64_5 O16_5 1_555 1_555
H59_5 C68_5 1_555 1_555
H60_5 C68_5 1_555 1_555
H61_5 C68_5 1_555 1_555
O27_3 Cr8_2 1_555 1_555
O28_3 Cr5_3 1_555 1_555
O29_3 Cr8_2 1_555 1_555
P2_5 O18_5 1_555 1_555
C10_5 C11_5 1_555 1_555
C17_5 C18_5 1_555 1_555
C23_5 C28_5 1_555 1_555
C27_5 C28_5 1_555 1_555
C38_5 C39_5 1_555 1_555
C53_5 C54_5 1_555 1_555
C59_5 C64_5 1_555 1_555
O21_5 H72_5 1_555 1_555
O21_5 H73_5 1_555 1_555
O12_3 C40_5 1_555 1_555
H32_5 C36_5 1_555 1_555
H52_5 C62_5 1_555 1_555
C63_5 C62_5 1_555 1_555
C65_5 C63_5 1_555 1_555
C66_5 C65_5 1_555 1_555
H53_5 C66_5 1_555 1_555
H54_5 C66_5 1_555 1_555
H55_5 C66_5 1_555 1_555
C67_5 C65_5 1_555 1_555
H56_5 C67_5 1_555 1_555
H57_5 C67_5 1_555 1_555
O23_5 C77_5 1_555 1_555
C77_5 O22_5 1_555 1_555
C78_5 C77_5 1_555 1_555
H69_5 C78_5 1_555 1_555
H70_5 C78_5 1_555 1_555
H71_5 C78_5 1_555 1_555
Cr8 O12_3 1_555 1_555
O13_3 C41_5 1_555 1_555
O14_3 C41_5 1_555 1_555
C41_5 C42_5 1_555 1_555
C42_5 C43_5 1_555 1_555
C43_5 H35_5 1_555 1_555
C44_5 C43_5 1_555 1_555
H36_5 C44_5 1_555 1_555
C45_5 C44_5 1_555 1_555
C46_5 C45_5 1_555 1_555
H37_5 C46_5 1_555 1_555
C47_5 C42_5 1_555 1_555
H38_5 C47_5 1_555 1_555
C49_5 C45_5 1_555 1_555
C50_5 C49_5 1_555 1_555
C58_5 C50_5 1_555 1_555
H49_5 C58_5 1_555 1_555
H50_5 C58_5 1_555 1_555
H51_5 C58_5 1_555 1_555
C69_5 C60_5 1_555 1_555
H63_5 C69_5 1_555 1_555
H64_5 C69_5 1_555 1_555
Cr5_2 O13_3 1_555 1_555
Cr9 O14_3 1_555 1_555
C46_5 C47_5 1_555 1_555
O30_3 C76_5 1_555 1_555
O31_3 C76_5 1_555 1_555
C70_5 C61_5 1_555 1_555
C71_5 C70_5 1_555 1_555
C72_5 C71_5 1_555 1_555
H66_5 C72_5 1_555 1_555
C73_5 C72_5 1_555 1_555
C74_5 C73_5 1_555 1_555
H67_5 C74_5 1_555 1_555
C75_5 C70_5 1_555 1_555
H68_5 C75_5 1_555 1_555
C76_5 C73_5 1_555 1_555
C74_5 C75_5 1_555 1_555
O13_4 C41_6 1_555 1_555
O14_4 C41_6 1_555 1_555
O30_4 C76_6 1_555 1_555
O31_4 C76_6 1_555 1_555
C41_6 C42_6 1_555 1_555
C42_6 C43_6 1_555 1_555
C43_6 H35_6 1_555 1_555
C44_6 C43_6 1_555 1_555
H36_6 C44_6 1_555 1_555
C45_6 C44_6 1_555 1_555
C46_6 C45_6 1_555 1_555
H37_6 C46_6 1_555 1_555
C47_6 C42_6 1_555 1_555
H38_6 C47_6 1_555 1_555
C49_6 C45_6 1_555 1_555
C50_6 C49_6 1_555 1_555
C58_6 C50_6 1_555 1_555
H49_6 C58_6 1_555 1_555
H50_6 C58_6 1_555 1_555
H51_6 C58_6 1_555 1_555
C61_6 C60_6 1_555 1_555
C69_6 C60_6 1_555 1_555
H62_6 C69_6 1_555 1_555
H63_6 C69_6 1_555 1_555
H64_6 C69_6 1_555 1_555
C70_6 C61_6 1_555 1_555
C71_6 C70_6 1_555 1_555
C72_6 C71_6 1_555 1_555
H66_6 C72_6 1_555 1_555
C73_6 C72_6 1_555 1_555
C74_6 C73_6 1_555 1_555
H67_6 C74_6 1_555 1_555
C75_6 C70_6 1_555 1_555
H68_6 C75_6 1_555 1_555
C76_6 C73_6 1_555 1_555
Cr5 O13_4 1_555 1_555
Cr8 O14_4 1_555 1_555
C46_6 C47_6 1_555 1_555
C74_6 C75_6 1_555 1_555
Cr5_4 O9_6 1_555 1_555
Cr9_2 O10_6 1_555 1_555
Cr11_3 O17_6 1_555 1_555
P1_6 O7_6 1_555 1_555
P2_6 O15_6 1_555 1_555
O24_3 C5_6 1_555 1_555
O25_3 C5_6 1_555 1_555
O7_6 C16_6 1_555 1_555
O8_6 P1_6 1_555 1_555
O9_6 P1_6 1_555 1_555
O10_6 P1_6 1_555 1_555
O11_4 C40_6 1_555 1_555
O12_4 C40_6 1_555 1_555
O15_6 C52_6 1_555 1_555
O16_6 P2_6 1_555 1_555
O17_6 P2_6 1_555 1_555
O18_6 Cr9_2 1_555 1_555
O21_6 Cr5_4 1_555 1_555
C5_6 C6_6 1_555 1_555
C6_6 C7_6 1_555 1_555
C7_6 H1_6 1_555 1_555
C8_6 C7_6 1_555 1_555
H2_6 C8_6 1_555 1_555
C9_6 C8_6 1_555 1_555
C10_6 C9_6 1_555 1_555
H3_6 C10_6 1_555 1_555
C11_6 C6_6 1_555 1_555
H4_6 C11_6 1_555 1_555
C12_6 C17_6 1_555 1_555
C13_6 C9_6 1_555 1_555
C14_6 C13_6 1_555 1_555
C15_6 C14_6 1_555 1_555
C16_6 C15_6 1_555 1_555
C17_6 C16_6 1_555 1_555
C18_6 C13_6 1_555 1_555
H5_6 C18_6 1_555 1_555
C19_6 C12_6 1_555 1_555
H6_6 C19_6 1_555 1_555
H7_6 C19_6 1_555 1_555
H8_6 C19_6 1_555 1_555
C20_6 C12_6 1_555 1_555
H9_6 C20_6 1_555 1_555
H10_6 C20_6 1_555 1_555
H11_6 C20_6 1_555 1_555
C21_6 C12_6 1_555 1_555
H12_6 C21_6 1_555 1_555
H13_6 C21_6 1_555 1_555
H14_6 C21_6 1_555 1_555
C22_6 C14_6 1_555 1_555
H15_6 C22_6 1_555 1_555
H16_6 C22_6 1_555 1_555
H17_6 C22_6 1_555 1_555
C23_6 C15_6 1_555 1_555
C24_6 C23_6 1_555 1_555
C25_6 C24_6 1_555 1_555
C26_6 C25_6 1_555 1_555
H18_6 C26_6 1_555 1_555
C27_6 C26_6 1_555 1_555
C28_6 O8_6 1_555 1_555
C29_6 C27_6 1_555 1_555
C30_6 C29_6 1_555 1_555
H19_6 C30_6 1_555 1_555
H20_6 C30_6 1_555 1_555
H21_6 C30_6 1_555 1_555
C31_6 C29_6 1_555 1_555
H22_6 C31_6 1_555 1_555
H23_6 C31_6 1_555 1_555
H24_6 C31_6 1_555 1_555
C32_6 C29_6 1_555 1_555
H25_6 C32_6 1_555 1_555
H26_6 C32_6 1_555 1_555
H27_6 C32_6 1_555 1_555
C33_6 C24_6 1_555 1_555
H28_6 C33_6 1_555 1_555
H29_6 C33_6 1_555 1_555
H30_6 C33_6 1_555 1_555
C34_6 C25_6 1_555 1_555
C35_6 C34_6 1_555 1_555
H31_6 C35_6 1_555 1_555
C36_6 C35_6 1_555 1_555
H32_6 C36_6 1_555 1_555
C37_6 C36_6 1_555 1_555
C38_6 C37_6 1_555 1_555
H33_6 C38_6 1_555 1_555
C39_6 C34_6 1_555 1_555
H34_6 C39_6 1_555 1_555
C40_6 C37_6 1_555 1_555
C48_6 C53_6 1_555 1_555
C52_6 C51_6 1_555 1_555
C53_6 C52_6 1_555 1_555
H39_6 C54_6 1_555 1_555
C55_6 C48_6 1_555 1_555
H40_6 C55_6 1_555 1_555
H41_6 C55_6 1_555 1_555
H42_6 C55_6 1_555 1_555
C56_6 C48_6 1_555 1_555
H43_6 C56_6 1_555 1_555
H44_6 C56_6 1_555 1_555
H45_6 C56_6 1_555 1_555
C57_6 C48_6 1_555 1_555
H46_6 C57_6 1_555 1_555
H47_6 C57_6 1_555 1_555
H48_6 C57_6 1_555 1_555
C59_6 C51_6 1_555 1_555
H52_6 C62_6 1_555 1_555
C63_6 C62_6 1_555 1_555
C64_6 O16_6 1_555 1_555
C65_6 C63_6 1_555 1_555
C66_6 C65_6 1_555 1_555
H53_6 C66_6 1_555 1_555
H54_6 C66_6 1_555 1_555
H55_6 C66_6 1_555 1_555
C67_6 C65_6 1_555 1_555
H56_6 C67_6 1_555 1_555
H57_6 C67_6 1_555 1_555
H58_6 C67_6 1_555 1_555
C68_6 C65_6 1_555 1_555
H59_6 C68_6 1_555 1_555
H60_6 C68_6 1_555 1_555
H61_6 C68_6 1_555 1_555
O22_6 Cr11_3 1_555 1_555
O23_6 C77_6 1_555 1_555
C77_6 O22_6 1_555 1_555
C78_6 C77_6 1_555 1_555
H69_6 C78_6 1_555 1_555
H70_6 C78_6 1_555 1_555
H71_6 C78_6 1_555 1_555
Cr9 O12_4 1_555 1_555
Cr11 O11_4 1_555 1_555
O26_4 Cr11_3 1_555 1_555
O27_4 Cr9_2 1_555 1_555
O28_4 Cr5_4 1_555 1_555
O29_4 Cr9_2 1_555 1_555
P2_6 O18_6 1_555 1_555
C10_6 C11_6 1_555 1_555
C17_6 C18_6 1_555 1_555
C23_6 C28_6 1_555 1_555
C27_6 C28_6 1_555 1_555
C38_6 C39_6 1_555 1_555
C53_6 C54_6 1_555 1_555
C59_6 C64_6 1_555 1_555
C63_6 C64_6 1_555 1_555
O21_6 H72_6 1_555 1_555
O21_6 H73_6 1_555 1_555
O27_3 C40_7 1_555 1_555
H32_7 C36_7 1_555 1_555
H52_7 C62_7 1_555 1_555
C63_7 C62_7 1_555 1_555
C65_7 C63_7 1_555 1_555
C66_7 C65_7 1_555 1_555
H53_7 C66_7 1_555 1_555
H54_7 C66_7 1_555 1_555
H55_7 C66_7 1_555 1_555
C67_7 C65_7 1_555 1_555
H56_7 C67_7 1_555 1_555
H57_7 C67_7 1_555 1_555
O23_7 C77_7 1_555 1_555
C77_7 O22_7 1_555 1_555
C78_7 C77_7 1_555 1_555
H69_7 C78_7 1_555 1_555
H70_7 C78_7 1_555 1_555
H71_7 C78_7 1_555 1_555
Cr5 O9_7 1_555 1_555
Cr8 O10_7 1_555 1_555
Cr11_2 O17_7 1_555 1_555
P1_7 O7_7 1_555 1_555
P2_7 O15_7 1_555 1_555
O24_2 C5_7 1_555 1_555
O25_2 C5_7 1_555 1_555
O7_7 C16_7 1_555 1_555
O8_7 P1_7 1_555 1_555
O9_7 P1_7 1_555 1_555
O10_7 P1_7 1_555 1_555
O15_7 C52_7 1_555 1_555
O16_7 P2_7 1_555 1_555
O17_7 P2_7 1_555 1_555
O18_7 Cr8 1_555 1_555
O21_7 Cr5 1_555 1_555
C5_7 C6_7 1_555 1_555
C6_7 C7_7 1_555 1_555
C7_7 H1_7 1_555 1_555
C8_7 C7_7 1_555 1_555
H2_7 C8_7 1_555 1_555
C9_7 C8_7 1_555 1_555
C10_7 C9_7 1_555 1_555
H3_7 C10_7 1_555 1_555
C11_7 C6_7 1_555 1_555
H4_7 C11_7 1_555 1_555
C12_7 C17_7 1_555 1_555
C13_7 C9_7 1_555 1_555
C14_7 C13_7 1_555 1_555
C15_7 C14_7 1_555 1_555
C16_7 C15_7 1_555 1_555
C17_7 C16_7 1_555 1_555
C18_7 C13_7 1_555 1_555
H5_7 C18_7 1_555 1_555
C19_7 C12_7 1_555 1_555
H6_7 C19_7 1_555 1_555
H7_7 C19_7 1_555 1_555
H8_7 C19_7 1_555 1_555
C20_7 C12_7 1_555 1_555
H9_7 C20_7 1_555 1_555
H10_7 C20_7 1_555 1_555
H11_7 C20_7 1_555 1_555
C21_7 C12_7 1_555 1_555
H12_7 C21_7 1_555 1_555
H13_7 C21_7 1_555 1_555
H14_7 C21_7 1_555 1_555
C22_7 C14_7 1_555 1_555
H15_7 C22_7 1_555 1_555
H16_7 C22_7 1_555 1_555
H17_7 C22_7 1_555 1_555
C23_7 C15_7 1_555 1_555
C24_7 C23_7 1_555 1_555
C25_7 C24_7 1_555 1_555
C26_7 C25_7 1_555 1_555
H18_7 C26_7 1_555 1_555
C27_7 C26_7 1_555 1_555
C28_7 O8_7 1_555 1_555
C29_7 C27_7 1_555 1_555
C30_7 C29_7 1_555 1_555
H19_7 C30_7 1_555 1_555
H20_7 C30_7 1_555 1_555
H21_7 C30_7 1_555 1_555
C31_7 C29_7 1_555 1_555
H22_7 C31_7 1_555 1_555
H23_7 C31_7 1_555 1_555
H24_7 C31_7 1_555 1_555
C32_7 C29_7 1_555 1_555
H25_7 C32_7 1_555 1_555
H26_7 C32_7 1_555 1_555
H27_7 C32_7 1_555 1_555
C33_7 C24_7 1_555 1_555
H28_7 C33_7 1_555 1_555
H29_7 C33_7 1_555 1_555
H30_7 C33_7 1_555 1_555
C34_7 C25_7 1_555 1_555
C35_7 C34_7 1_555 1_555
H31_7 C35_7 1_555 1_555
C38_7 C37_7 1_555 1_555
H33_7 C38_7 1_555 1_555
C39_7 C34_7 1_555 1_555
H34_7 C39_7 1_555 1_555
C48_7 C53_7 1_555 1_555
C52_7 C51_7 1_555 1_555
C53_7 C52_7 1_555 1_555
H39_7 C54_7 1_555 1_555
C55_7 C48_7 1_555 1_555
H40_7 C55_7 1_555 1_555
H41_7 C55_7 1_555 1_555
H42_7 C55_7 1_555 1_555
C56_7 C48_7 1_555 1_555
H43_7 C56_7 1_555 1_555
H44_7 C56_7 1_555 1_555
H45_7 C56_7 1_555 1_555
C57_7 C48_7 1_555 1_555
H46_7 C57_7 1_555 1_555
H47_7 C57_7 1_555 1_555
H48_7 C57_7 1_555 1_555
C59_7 C51_7 1_555 1_555
C64_7 O16_7 1_555 1_555
H59_7 C68_7 1_555 1_555
H60_7 C68_7 1_555 1_555
H61_7 C68_7 1_555 1_555
P2_7 O18_7 1_555 1_555
C10_7 C11_7 1_555 1_555
C17_7 C18_7 1_555 1_555
C23_7 C28_7 1_555 1_555
C27_7 C28_7 1_555 1_555
C38_7 C39_7 1_555 1_555
C53_7 C54_7 1_555 1_555
C59_7 C64_7 1_555 1_555
O21_7 H72_7 1_555 1_555
O21_7 H73_7 1_555 1_555
O30 C76_7 1_555 1_555
O31 C76_7 1_555 1_555
C70_7 C61_7 1_555 1_555
C71_7 C70_7 1_555 1_555
C72_7 C71_7 1_555 1_555
H66_7 C72_7 1_555 1_555
C73_7 C72_7 1_555 1_555
C74_7 C73_7 1_555 1_555
H67_7 C74_7 1_555 1_555
C75_7 C70_7 1_555 1_555
H68_7 C75_7 1_555 1_555
C76_7 C73_7 1_555 1_555
C74_7 C75_7 1_555 1_555
O28_4 C41_7 1_555 1_555
O29_4 C41_7 1_555 1_555
C41_7 C42_7 1_555 1_555
C42_7 C43_7 1_555 1_555
C43_7 H35_7 1_555 1_555
C44_7 C43_7 1_555 1_555
H36_7 C44_7 1_555 1_555
C45_7 C44_7 1_555 1_555
C46_7 C45_7 1_555 1_555
H37_7 C46_7 1_555 1_555
C47_7 C42_7 1_555 1_555
H38_7 C47_7 1_555 1_555
C49_7 C45_7 1_555 1_555
C50_7 C49_7 1_555 1_555
C58_7 C50_7 1_555 1_555
H49_7 C58_7 1_555 1_555
H50_7 C58_7 1_555 1_555
H51_7 C58_7 1_555 1_555
C69_7 C60_7 1_555 1_555
H63_7 C69_7 1_555 1_555
H64_7 C69_7 1_555 1_555
C46_7 C47_7 1_555 1_555
O28_3 C41_8 1_555 1_555
O29_3 C41_8 1_555 1_555
O30_2 C76_8 1_555 1_555
O31_2 C76_8 1_555 1_555
C41_8 C42_8 1_555 1_555
C42_8 C43_8 1_555 1_555
C43_8 H35_8 1_555 1_555
C44_8 C43_8 1_555 1_555
H36_8 C44_8 1_555 1_555
C45_8 C44_8 1_555 1_555
C46_8 C45_8 1_555 1_555
H37_8 C46_8 1_555 1_555
C47_8 C42_8 1_555 1_555
H38_8 C47_8 1_555 1_555
C49_8 C45_8 1_555 1_555
C50_8 C49_8 1_555 1_555
C58_8 C50_8 1_555 1_555
H49_8 C58_8 1_555 1_555
H50_8 C58_8 1_555 1_555
H51_8 C58_8 1_555 1_555
C61_8 C60_8 1_555 1_555
C69_8 C60_8 1_555 1_555
H62_8 C69_8 1_555 1_555
H63_8 C69_8 1_555 1_555
H64_8 C69_8 1_555 1_555
C70_8 C61_8 1_555 1_555
C71_8 C70_8 1_555 1_555
C72_8 C71_8 1_555 1_555
H66_8 C72_8 1_555 1_555
C73_8 C72_8 1_555 1_555
C74_8 C73_8 1_555 1_555
H67_8 C74_8 1_555 1_555
C75_8 C70_8 1_555 1_555
H68_8 C75_8 1_555 1_555
C76_8 C73_8 1_555 1_555
C46_8 C47_8 1_555 1_555
C74_8 C75_8 1_555 1_555
Cr5_2 O9_8 1_555 1_555
Cr9 O10_8 1_555 1_555
Cr11 O17_8 1_555 1_555
P1_8 O7_8 1_555 1_555
P2_8 O15_8 1_555 1_555
O24 C5_8 1_555 1_555
O25 C5_8 1_555 1_555
O7_8 C16_8 1_555 1_555
O8_8 P1_8 1_555 1_555
O9_8 P1_8 1_555 1_555
O10_8 P1_8 1_555 1_555
O26_4 C40_8 1_555 1_555
O27_4 C40_8 1_555 1_555
O15_8 C52_8 1_555 1_555
O16_8 P2_8 1_555 1_555
O17_8 P2_8 1_555 1_555
O18_8 Cr9 1_555 1_555
O21_8 Cr5_2 1_555 1_555
C5_8 C6_8 1_555 1_555
C6_8 C7_8 1_555 1_555
C7_8 H1_8 1_555 1_555
C8_8 C7_8 1_555 1_555
H2_8 C8_8 1_555 1_555
C9_8 C8_8 1_555 1_555
C10_8 C9_8 1_555 1_555
H3_8 C10_8 1_555 1_555
C11_8 C6_8 1_555 1_555
H4_8 C11_8 1_555 1_555
C12_8 C17_8 1_555 1_555
C13_8 C9_8 1_555 1_555
C14_8 C13_8 1_555 1_555
C15_8 C14_8 1_555 1_555
C16_8 C15_8 1_555 1_555
C17_8 C16_8 1_555 1_555
C18_8 C13_8 1_555 1_555
H5_8 C18_8 1_555 1_555
C19_8 C12_8 1_555 1_555
H6_8 C19_8 1_555 1_555
H7_8 C19_8 1_555 1_555
H8_8 C19_8 1_555 1_555
C20_8 C12_8 1_555 1_555
H9_8 C20_8 1_555 1_555
H10_8 C20_8 1_555 1_555
H11_8 C20_8 1_555 1_555
C21_8 C12_8 1_555 1_555
H12_8 C21_8 1_555 1_555
H13_8 C21_8 1_555 1_555
H14_8 C21_8 1_555 1_555
C22_8 C14_8 1_555 1_555
H15_8 C22_8 1_555 1_555
H16_8 C22_8 1_555 1_555
H17_8 C22_8 1_555 1_555
C23_8 C15_8 1_555 1_555
C24_8 C23_8 1_555 1_555
C25_8 C24_8 1_555 1_555
C26_8 C25_8 1_555 1_555
H18_8 C26_8 1_555 1_555
C27_8 C26_8 1_555 1_555
C28_8 O8_8 1_555 1_555
C29_8 C27_8 1_555 1_555
C30_8 C29_8 1_555 1_555
H19_8 C30_8 1_555 1_555
H20_8 C30_8 1_555 1_555
H21_8 C30_8 1_555 1_555
C31_8 C29_8 1_555 1_555
H22_8 C31_8 1_555 1_555
H23_8 C31_8 1_555 1_555
H24_8 C31_8 1_555 1_555
C32_8 C29_8 1_555 1_555
H25_8 C32_8 1_555 1_555
H26_8 C32_8 1_555 1_555
H27_8 C32_8 1_555 1_555
C33_8 C24_8 1_555 1_555
H28_8 C33_8 1_555 1_555
H29_8 C33_8 1_555 1_555
H30_8 C33_8 1_555 1_555
C34_8 C25_8 1_555 1_555
C35_8 C34_8 1_555 1_555
H31_8 C35_8 1_555 1_555
C36_8 C35_8 1_555 1_555
H32_8 C36_8 1_555 1_555
C37_8 C36_8 1_555 1_555
C38_8 C37_8 1_555 1_555
H33_8 C38_8 1_555 1_555
C39_8 C34_8 1_555 1_555
H34_8 C39_8 1_555 1_555
C40_8 C37_8 1_555 1_555
C48_8 C53_8 1_555 1_555
C52_8 C51_8 1_555 1_555
C53_8 C52_8 1_555 1_555
H39_8 C54_8 1_555 1_555
C55_8 C48_8 1_555 1_555
H40_8 C55_8 1_555 1_555
H41_8 C55_8 1_555 1_555
H42_8 C55_8 1_555 1_555
C56_8 C48_8 1_555 1_555
H43_8 C56_8 1_555 1_555
H44_8 C56_8 1_555 1_555
H45_8 C56_8 1_555 1_555
C57_8 C48_8 1_555 1_555
H46_8 C57_8 1_555 1_555
H47_8 C57_8 1_555 1_555
H48_8 C57_8 1_555 1_555
C59_8 C51_8 1_555 1_555
H52_8 C62_8 1_555 1_555
C63_8 C62_8 1_555 1_555
C64_8 O16_8 1_555 1_555
C65_8 C63_8 1_555 1_555
C66_8 C65_8 1_555 1_555
H53_8 C66_8 1_555 1_555
H54_8 C66_8 1_555 1_555
H55_8 C66_8 1_555 1_555
C67_8 C65_8 1_555 1_555
H56_8 C67_8 1_555 1_555
H57_8 C67_8 1_555 1_555
H58_8 C67_8 1_555 1_555
C68_8 C65_8 1_555 1_555
H59_8 C68_8 1_555 1_555
H60_8 C68_8 1_555 1_555
H61_8 C68_8 1_555 1_555
O22_8 Cr11 1_555 1_555
O23_8 C77_8 1_555 1_555
C77_8 O22_8 1_555 1_555
C78_8 C77_8 1_555 1_555
H69_8 C78_8 1_555 1_555
H70_8 C78_8 1_555 1_555
H71_8 C78_8 1_555 1_555
P2_8 O18_8 1_555 1_555
C10_8 C11_8 1_555 1_555
C17_8 C18_8 1_555 1_555
C23_8 C28_8 1_555 1_555
C27_8 C28_8 1_555 1_555
C38_8 C39_8 1_555 1_555
C53_8 C54_8 1_555 1_555
C59_8 C64_8 1_555 1_555
C63_8 C64_8 1_555 1_555
O21_8 H72_8 1_555 1_555
O21_8 H73_8 1_555 1_555

#END
