
###############################################################################
#
# This file contains modified crystal structure data generated from the
# MOF subset of the Cambridge Structural Database (CSD) v543 
# hosted by the Cambridge Crystallographic Data Centre (CCDC).
#
# This work is licensed under the Creative Commons
# Attribution-NonCommercial-ShareAlike 4.0 International License.
# To view a copy of this license, visit
# http://creativecommons.org/licenses/by-nc-sa/4.0/
# or send a letter to
# Creative Commons, PO Box 1866, Mountain View, CA 94042, USA.
#
# CIF created using the CSD Python API on 29 September 2022
# The structure has been converted into the P1 space group
# The structure has a 3D framework
# The original CSD entry WERCOO is in the orthorhombic crystal system
# The original CSD entry WERCOO is in a Sohncke space group
# The framework has been calculated to contain at least 10.0% void space
# The void calculation uses a probe of radius 1.32A, grid spacing 0.4
# The framework is charged, counterions have been retained in the structure
# H atom positions have been added when not included in the experimental data
#
###############################################################################

data_WERCOO
_chemical_formula_moiety         '(C624 H632 O184 P16 Zr24 24+)n'
_symmetry_cell_setting           triclinic
_symmetry_space_group_name_H-M   'P 1'
_symmetry_Int_Tables_number      1
_space_group_name_Hall           'P 1'
loop_
_symmetry_equiv_pos_site_id
_symmetry_equiv_pos_as_xyz
1 x,y,z
_cell_length_a                   27.0284(6)
_cell_length_b                   29.1892(6)
_cell_length_c                   29.5728(6)
_cell_angle_alpha                90
_cell_angle_beta                 90
_cell_angle_gamma                90
_cell_volume                     23331.1
loop_
_atom_site_label
_atom_site_type_symbol
_atom_site_fract_x
_atom_site_fract_y
_atom_site_fract_z
O1 O 0.4847(8) 0.4550(7) 0.1225(7)
O2 O 0.4246(10) 0.4169(8) 0.1606(8)
C1 C 0.4524(8) 0.4258(7) 0.1263(7)
C2 C 0.4355(11) 0.3956(9) 0.0864(8)
H77 H 0.466815 0.375893 0.0738102
H78 H 0.406591 0.372303 0.0977653
H79 H 0.421159 0.417277 0.0594476
O1_2 O 0.5153(8) 0.5450(7) 0.6225(7)
O2_2 O 0.5754(10) 0.5831(8) 0.6606(8)
C1_2 C 0.5476(8) 0.5742(7) 0.6263(7)
C2_2 C 0.5645(11) 0.6044(9) 0.5864(8)
H77_2 H 0.533185 0.624107 0.57381
H78_2 H 0.593409 0.627697 0.597765
H79_2 H 0.578841 0.582723 0.559448
O1_3 O 0.4847(8) 0.5450(7) 0.8775(7)
O2_3 O 0.4246(10) 0.5831(8) 0.8394(8)
C1_3 C 0.4524(8) 0.5742(7) 0.8737(7)
C2_3 C 0.4355(11) 0.6044(9) 0.9136(8)
H77_3 H 0.466815 0.624107 0.92619
H78_3 H 0.406591 0.627697 0.902235
H79_3 H 0.421159 0.582723 0.940552
O1_4 O 0.5153(8) 0.4550(7) 0.3775(7)
O2_4 O 0.5754(10) 0.4169(8) 0.3394(8)
C1_4 C 0.5476(8) 0.4258(7) 0.3737(7)
C2_4 C 0.5645(11) 0.3956(9) 0.4136(8)
H77_4 H 0.533185 0.375893 0.42619
H78_4 H 0.593409 0.372303 0.402235
H79_4 H 0.578841 0.417277 0.440552
O1_5 O 0.9847(8) 0.9550(7) 0.1225(7)
O2_5 O 0.9246(10) 0.9169(8) 0.1606(8)
C1_5 C 0.9524(8) 0.9258(7) 0.1263(7)
C2_5 C 0.9355(11) 0.8956(9) 0.0864(8)
H77_5 H 0.966815 0.875893 0.0738102
H78_5 H 0.906591 0.872303 0.0977653
H79_5 H 0.921159 0.917277 0.0594476
O1_6 O 0.0153(8) 0.0450(7) 0.6225(7)
O2_6 O 0.0754(10) 0.0831(8) 0.6606(8)
C1_6 C 0.0476(8) 0.0742(7) 0.6263(7)
C2_6 C 0.0645(11) 0.1044(9) 0.5864(8)
H77_6 H 0.0331846 0.124107 0.57381
H78_6 H 0.0934088 0.127697 0.597765
H79_6 H 0.0788412 0.0827226 0.559448
O1_7 O 0.9847(8) 0.0450(7) 0.8775(7)
O2_7 O 0.9246(10) 0.0831(8) 0.8394(8)
C1_7 C 0.9524(8) 0.0742(7) 0.8737(7)
C2_7 C 0.9355(11) 0.1044(9) 0.9136(8)
H77_7 H 0.966815 0.124107 0.92619
H78_7 H 0.906591 0.127697 0.902235
H79_7 H 0.921159 0.0827226 0.940552
O1_8 O 0.0153(8) 0.9550(7) 0.3775(7)
O2_8 O 0.0754(10) 0.9169(8) 0.3394(8)
C1_8 C 0.0476(8) 0.9258(7) 0.3737(7)
C2_8 C 0.0645(11) 0.8956(9) 0.4136(8)
H77_8 H 0.0331846 0.875893 0.42619
H78_8 H 0.0934088 0.872303 0.402235
H79_8 H 0.0788412 0.917277 0.440552
O3 O 0.5507(6) 0.1645(5) 0.1644(5)
O4 O 0.5042(9) 0.1501(7) 0.2246(6)
C3 C 0.5244(8) 0.1396(8) 0.1885(7)
C4 C 0.5163(13) 0.0893(7) 0.1731(11)
H72 H 0.55185 0.0718527 0.171149
H73 H 0.492647 0.0717821 0.197385
H74 H 0.498722 0.0889877 0.139966
O3_2 O 0.4493(6) 0.8355(5) 0.6644(5)
O4_2 O 0.4958(9) 0.8499(7) 0.7246(6)
C3_2 C 0.4756(8) 0.8604(8) 0.6885(7)
C4_2 C 0.4837(13) 0.9107(7) 0.6731(11)
H72_2 H 0.44815 0.928147 0.671149
H73_2 H 0.507353 0.928218 0.697385
H74_2 H 0.501278 0.911012 0.639966
O3_3 O 0.5507(6) 0.8355(5) 0.8356(5)
O4_3 O 0.5042(9) 0.8499(7) 0.7754(6)
C3_3 C 0.5244(8) 0.8604(8) 0.8115(7)
C4_3 C 0.5163(13) 0.9107(7) 0.8269(11)
H72_3 H 0.55185 0.928147 0.828851
H73_3 H 0.492647 0.928218 0.802615
H74_3 H 0.498722 0.911012 0.860034
O3_4 O 0.4493(6) 0.1645(5) 0.3356(5)
O4_4 O 0.4958(9) 0.1501(7) 0.2754(6)
C3_4 C 0.4756(8) 0.1396(8) 0.3115(7)
C4_4 C 0.4837(13) 0.0893(7) 0.3269(11)
H72_4 H 0.44815 0.0718527 0.328851
H73_4 H 0.507353 0.0717821 0.302615
H74_4 H 0.501278 0.0889877 0.360034
O3_5 O 0.0507(6) 0.6645(5) 0.1644(5)
O4_5 O 0.0042(9) 0.6501(7) 0.2246(6)
C3_5 C 0.0244(8) 0.6396(8) 0.1885(7)
C4_5 C 0.0163(13) 0.5893(7) 0.1731(11)
H72_5 H 0.0518496 0.571853 0.171149
H73_5 H 0.992647 0.571782 0.197385
H74_5 H 0.998722 0.588988 0.139966
H73_6 H 0.00735284 0.428218 0.697385
H74_6 H 0.00127767 0.411012 0.639966
O3_6 O 0.9493(6) 0.3355(5) 0.6644(5)
O4_6 O 0.9958(9) 0.3499(7) 0.7246(6)
C3_6 C 0.9756(8) 0.3604(8) 0.6885(7)
C4_6 C 0.9837(13) 0.4107(7) 0.6731(11)
H72_6 H 0.94815 0.428147 0.671149
O3_7 O 0.0507(6) 0.3355(5) 0.8356(5)
O4_7 O 0.0042(9) 0.3499(7) 0.7754(6)
C3_7 C 0.0244(8) 0.3604(8) 0.8115(7)
C4_7 C 0.0163(13) 0.4107(7) 0.8269(11)
H72_7 H 0.0518496 0.428147 0.828851
H73_7 H 0.992647 0.428218 0.802615
H74_7 H 0.998722 0.411012 0.860034
H73_8 H 0.00735284 0.571782 0.302615
H74_8 H 0.00127767 0.588988 0.360034
O3_8 O 0.9493(6) 0.6645(5) 0.3356(5)
O4_8 O 0.9958(9) 0.6501(7) 0.2754(6)
C3_8 C 0.9756(8) 0.6396(8) 0.3115(7)
C4_8 C 0.9837(13) 0.5893(7) 0.3269(11)
H72_8 H 0.94815 0.571853 0.328851
Zr1 Zr 0.80570(3) 0.19959(4) 0.25175(3)
Zr2 Zr 0.73763(4) 0.21128(4) 0.13313(4)
Zr3 Zr 0.72661(4) 0.27733(3) 0.01200(3)
P1 P 0.77306(7) 0.11274(6) 0.19188(6)
P2 P 0.63354(6) 0.23803(7) 0.06824(6)
O7 O 0.72465(18) 0.08206(17) 0.20137(18)
O8 O 0.81721(19) 0.07592(16) 0.18453(15)
O9 O 0.7885(2) 0.13749(18) 0.23458(16)
O10 O 0.76121(19) 0.13859(14) 0.15047(14)
O13 O 0.25099(16) 0.23602(18) 0.23144(15)
O14 O 0.29475(15) 0.21840(15) 0.29335(13)
O15 O 0.59980(15) 0.28291(17) 0.07688(14)
O16 O 0.59544(19) 0.19825(18) 0.05642(17)
O17 O 0.6625(2) 0.2506(2) 0.02736(17)
O18 O 0.65858(13) 0.22105(17) 0.10893(14)
O21 O 0.8378(2) 0.1904(3) 0.31198(18)
C12 C 0.6652(3) 0.0836(3) 0.2846(3)
C15 C 0.75523(19) 0.00769(15) 0.21497(13)
C16 C 0.7253(2) 0.04427(13) 0.22746(15)
C17 C 0.6999(2) 0.04314(14) 0.26835(17)
C18 C 0.7046(2) 0.00544(17) 0.29674(14)
H5 H 0.6876 0.0047 0.3241
C19 C 0.6315(5) 0.0679(4) 0.3244(5)
H6 H 0.6109 0.0930 0.3338
H7 H 0.6517 0.0581 0.3493
H8 H 0.6110 0.0429 0.3146
C20 C 0.6953(5) 0.1248(3) 0.3016(4)
H9 H 0.6732 0.1486 0.3112
H10 H 0.7160 0.1360 0.2776
H11 H 0.7156 0.1155 0.3266
C21 C 0.6338(4) 0.1013(4) 0.2481(4)
H12 H 0.6136 0.1258 0.2595
H13 H 0.6129 0.0771 0.2370
H14 H 0.6542 0.1125 0.2240
C23 C 0.77607(16) 0.00720(14) 0.16630(12)
C27 C 0.83863(16) 0.03580(13) 0.11569(14)
C28 C 0.81142(16) 0.03996(12) 0.15536(13)
C29 C 0.8826(3) 0.0699(2) 0.1052(3)
C30 C 0.9197(4) 0.0659(4) 0.1432(5)
H19 H 0.9468 0.0864 0.1377
H20 H 0.9318 0.0350 0.1448
H21 H 0.9041 0.0738 0.1713
C31 C 0.9093(4) 0.0591(3) 0.0605(4)
H22 H 0.9355 0.0809 0.0559
H23 H 0.8862 0.0610 0.0359
H24 H 0.9230 0.0288 0.0618
C32 C 0.8679(4) 0.1209(3) 0.1043(3)
H25 H 0.8965 0.1392 0.0977
H26 H 0.8547 0.1295 0.1332
H27 H 0.8433 0.1257 0.0814
C41 C 0.2909(3) 0.2311(2) 0.2530(3)
C42 C 0.33783(11) 0.24489(17) 0.22795(13)
C43 C 0.33421(11) 0.26682(19) 0.18636(14)
H35 H 0.3035 0.2760 0.1755
C44 C 0.37655(15) 0.27503(19) 0.16093(12)
H36 H 0.3741 0.2897 0.1331
C45 C 0.42251(12) 0.26131(19) 0.17710(13)
C46 C 0.42613(11) 0.23939(17) 0.21870(13)
H37 H 0.4569 0.2302 0.2295
C47 C 0.38379(13) 0.23118(16) 0.24412(11)
H38 H 0.3862 0.2165 0.2719
C48 C 0.5891(2) 0.3382(2) 0.1586(2)
C49 C 0.46871(12) 0.26943(19) 0.14824(14)
C50 C 0.47498(13) 0.24797(18) 0.10667(14)
C51 C 0.51863(14) 0.25403(17) 0.08255(11)
C52 C 0.55601(11) 0.28155(16) 0.10000(12)
C53 C 0.54975(12) 0.30300(15) 0.14157(13)
C54 C 0.50610(14) 0.29694(17) 0.16569(12)
H39 H 0.5019 0.3113 0.1935
C55 C 0.5941(3) 0.3765(3) 0.1237(3)
H40 H 0.6183 0.3982 0.1338
H41 H 0.5627 0.3915 0.1201
H42 H 0.6043 0.3637 0.0953
C56 C 0.6399(3) 0.3162(3) 0.1687(3)
H43 H 0.6625 0.3394 0.1789
H44 H 0.6526 0.3022 0.1418
H45 H 0.6361 0.2934 0.1919
C57 C 0.5729(3) 0.3613(3) 0.2032(3)
H46 H 0.5978 0.3826 0.2127
H47 H 0.5685 0.3383 0.2261
H48 H 0.5422 0.3772 0.1985
C58 C 0.4357(3) 0.2125(4) 0.0915(3)
H49 H 0.4082 0.2133 0.1121
H50 H 0.4501 0.1825 0.0915
H51 H 0.4244 0.2200 0.0616
C59 C 0.52353(18) 0.2379(2) 0.03403(13)
C60 C 0.48906(19) 0.2501(2) 0.00130(16)
C64 C 0.55944(18) 0.2053(2) 0.02432(15)
H56 H 0.6564 0.1675 0.0042
C68 C 0.5843(7) 0.1047(7) 0.0062(9)
H59 H 0.5892 0.1152 0.0367
H60 H 0.6063 0.0797 0.0001
H61 H 0.5507 0.0946 0.0027
C69 C 0.4531(3) 0.2900(3) 0.0105(3)
H62 H 0.4567 0.2999 0.0413
H63 H 0.4198 0.2799 0.0054
Zr4 Zr 0.19430(3) 0.19959(4) 0.24825(3)
Zr7 Zr 0.26237(4) 0.21128(4) 0.36687(4)
O24 O 0.7417(3) 0.33307(19) 0.04661(18)
O25 O 0.7490(2) 0.28191(14) 0.10090(16)
O27 O 0.75883(17) 0.18545(15) 0.05987(13)
O28 O 0.74901(16) 0.23602(18) 0.26856(15)
O29 O 0.70525(15) 0.21840(15) 0.20665(13)
O30 O 0.8681(2) 0.2212(3) 0.22172(17)
O31 O 0.80894(17) 0.22943(19) 0.17484(15)
H75 H 0.867137 0.17023 0.308485
H76 H 0.848353 0.220493 0.324319
O19 O 0.3681(2) 0.2788(3) 0.77828(17)
O20 O 0.30894(17) 0.27057(19) 0.82516(15)
C61 C 0.4905(2) 0.2297(3) 0.95886(15)
C62 C 0.5264(2) 0.1971(3) 0.94915(16)
H52 H 0.5274 0.1834 0.9208
C63 C 0.5609(2) 0.1848(2) 0.98189(19)
C65 C 0.5947(5) 0.1439(6) 0.9732(5)
C66 C 0.5837(5) 0.1173(5) 0.9288(4)
H53 H 0.5889 0.1371 0.9033
H54 H 0.5500 0.1069 0.9290
H55 H 0.6055 0.0914 0.9266
C67 C 0.6491(4) 0.1512(6) 0.9768(7)
H57 H 0.6603 0.1687 0.9513
H58 H 0.6656 0.1221 0.9772
H64 H 0.4606 0.3150 0.9905
C70 C 0.45553(15) 0.2415(3) 0.92222(13)
C71 C 0.47251(12) 0.2528(3) 0.87929(15)
H65 H 0.5063 0.2549 0.8738
C72 C 0.43897(16) 0.2611(3) 0.84461(13)
H66 H 0.4503 0.2687 0.8159
C73 C 0.38845(15) 0.2581(3) 0.85287(13)
C74 C 0.37147(12) 0.2468(3) 0.89580(15)
H67 H 0.3377 0.2448 0.9013
C75 C 0.40501(16) 0.2385(3) 0.93048(13)
H68 H 0.3936 0.2309 0.9592
C76 C 0.3508(3) 0.2684(3) 0.8181(2)
O22 O 0.7136(3) 0.3110(3) 0.95529(17)
O23 O 0.6990(4) 0.3354(3) 0.8884(2)
C77 C 0.7227(8) 0.3107(7) 0.9146(5)
C78 C 0.7448(12) 0.2661(9) 0.8968(10)
H69 H 0.7614 0.2504 0.9210
H70 H 0.7681 0.2728 0.8732
H71 H 0.7189 0.2471 0.8851
Zr5 Zr 0.30570(3) 0.30041(4) 0.74825(3)
Zr8 Zr 0.23763(4) 0.28872(4) 0.86687(4)
O26 O 0.77360(17) 0.22977(16) 0.99945(14)
O5 O 0.7583(3) 0.83307(19) 0.45339(18)
O6 O 0.7510(2) 0.78191(14) 0.39910(16)
O11 O 0.77360(17) 0.77023(16) 0.00055(14)
C5 C 0.7514(3) 0.8223(3) 0.4122(3)
C6 C 0.7451(2) 0.86072(11) 0.37968(12)
C7 C 0.7316(2) 0.85113(10) 0.33532(14)
H1 H 0.7247 0.8212 0.3267
C8 C 0.7285(2) 0.88634(14) 0.30380(11)
H2 H 0.7195 0.8799 0.2741
C9 C 0.7389(2) 0.93113(12) 0.31665(14)
C10 C 0.7523(3) 0.94072(10) 0.36102(15)
H3 H 0.7592 0.9707 0.3696
C11 C 0.7554(3) 0.90551(14) 0.39253(12)
H4 H 0.7644 0.9119 0.4222
C13 C 0.7345(2) 0.96886(14) 0.28425(15)
C14 C 0.75985(19) 0.96999(13) 0.24336(15)
C22 C 0.8001(4) 0.9319(3) 0.2329(3)
H15 H 0.8143 0.9373 0.2037
H16 H 0.7848 0.9022 0.2334
H17 H 0.8257 0.9331 0.2555
C24 C 0.76792(17) 0.97028(14) 0.13755(14)
C25 C 0.79512(19) 0.96613(13) 0.09788(13)
C26 C 0.83048(18) 0.99889(14) 0.08694(13)
H18 H 0.8487 0.9961 0.0604
C33 C 0.7240(3) 0.9369(3) 0.1458(3)
H28 H 0.7089 0.9437 0.1744
H29 H 0.7360 0.9060 0.1460
H30 H 0.7001 0.9404 0.1221
C34 C 0.7905(2) 0.92511(12) 0.06698(12)
C35 C 0.7797(2) 0.93139(11) 0.02143(13)
H31 H 0.7758 0.9608 0.0099
C37 C 0.7808(2) 0.84970(11) 0.01025(13)
C38 C 0.7915(2) 0.84342(11) 0.05580(14)
H33 H 0.7955 0.8140 0.0673
C39 C 0.7964(2) 0.88113(14) 0.08416(11)
H34 H 0.8036 0.8769 0.1146
Zr9 Zr 0.76237(4) 0.71128(4) 0.36687(4)
Zr11 Zr 0.77339(4) 0.77733(3) 0.48800(3)
O12 O 0.75883(17) 0.81455(15) 0.94013(13)
C36 C 0.7749(2) 0.89368(14) 0.99307(10)
H32 H 0.7677 0.8979 0.9626
C40 C 0.7703(2) 0.8082(2) 0.9797(2)
Zr6 Zr 0.73763(4) 0.78872(4) 0.86687(4)
Zr10 Zr 0.72661(4) 0.72267(3) 0.98800(3)
O5_2 O 0.2417(3) 0.16693(19) 0.95339(18)
O6_2 O 0.2490(2) 0.21809(14) 0.89910(16)
O11_2 O 0.22640(17) 0.22977(16) 0.50055(14)
O12_2 O 0.24117(17) 0.18545(15) 0.44013(13)
C5_2 C 0.2486(3) 0.1777(3) 0.9122(3)
C6_2 C 0.2549(2) 0.13928(11) 0.87968(12)
C7_2 C 0.2684(2) 0.14887(10) 0.83532(14)
H1_2 H 0.2753 0.1788 0.8267
C8_2 C 0.2715(2) 0.11366(14) 0.80380(11)
H2_2 H 0.2805 0.1201 0.7741
C9_2 C 0.2611(2) 0.06887(12) 0.81665(14)
C10_2 C 0.2477(3) 0.05928(10) 0.86102(15)
H3_2 H 0.2408 0.0293 0.8696
C11_2 C 0.2446(3) 0.09449(14) 0.89253(12)
H4_2 H 0.2356 0.0881 0.9222
C13_2 C 0.2655(2) 0.03114(14) 0.78425(15)
C14_2 C 0.24015(19) 0.03001(13) 0.74336(15)
C22_2 C 0.1999(4) 0.0681(3) 0.7329(3)
H15_2 H 0.1857 0.0627 0.7037
H16_2 H 0.2152 0.0978 0.7334
H17_2 H 0.1743 0.0669 0.7555
C24_2 C 0.23208(17) 0.02972(14) 0.63755(14)
C25_2 C 0.20488(19) 0.03387(13) 0.59788(13)
C26_2 C 0.16952(18) 0.00111(14) 0.58694(13)
H18_2 H 0.1513 0.0039 0.5604
C33_2 C 0.2760(3) 0.0631(3) 0.6458(3)
H28_2 H 0.2911 0.0563 0.6744
H29_2 H 0.2640 0.0940 0.6460
H30_2 H 0.2999 0.0596 0.6221
C34_2 C 0.2095(2) 0.07489(12) 0.56698(12)
C35_2 C 0.2203(2) 0.06861(11) 0.52143(13)
H31_2 H 0.2242 0.0392 0.5099
C36_2 C 0.2251(2) 0.10632(14) 0.49307(10)
H32_2 H 0.2323 0.1021 0.4626
C37_2 C 0.2192(2) 0.15030(11) 0.51025(13)
C38_2 C 0.2085(2) 0.15658(11) 0.55580(14)
H33_2 H 0.2045 0.1860 0.5673
C39_2 C 0.2036(2) 0.11887(14) 0.58416(11)
H34_2 H 0.1964 0.1231 0.6146
C40_2 C 0.2297(2) 0.1918(2) 0.4797(2)
Zr10_2 Zr 0.27339(4) 0.27733(3) 0.48800(3)
Zr11_2 Zr 0.22661(4) 0.22267(3) 0.98800(3)
Zr1_2 Zr 0.19430(3) 0.80041(4) 0.75175(3)
Zr2_2 Zr 0.26237(4) 0.78872(4) 0.63313(4)
Zr3_2 Zr 0.27339(4) 0.72267(3) 0.51200(3)
P1_2 P 0.22694(7) 0.88726(6) 0.69188(6)
P2_2 P 0.36646(6) 0.76197(7) 0.56824(6)
O7_2 O 0.27535(18) 0.91794(17) 0.70137(18)
O8_2 O 0.18279(19) 0.92408(16) 0.68453(15)
O9_2 O 0.2115(2) 0.86251(18) 0.73458(16)
O10_2 O 0.23879(19) 0.86141(14) 0.65047(14)
O13_2 O 0.74901(16) 0.76398(18) 0.73144(15)
O14_2 O 0.70525(15) 0.78160(15) 0.79335(13)
O15_2 O 0.40020(15) 0.71709(17) 0.57688(14)
O16_2 O 0.40456(19) 0.80175(18) 0.55642(17)
O17_2 O 0.3375(2) 0.7494(2) 0.52736(17)
O18_2 O 0.34142(13) 0.77895(17) 0.60893(14)
O19_2 O 0.6319(2) 0.7212(3) 0.27828(17)
O20_2 O 0.69106(17) 0.72943(19) 0.32516(15)
O21_2 O 0.1622(2) 0.8096(3) 0.81198(18)
C12_2 C 0.3348(3) 0.9164(3) 0.7846(3)
C15_2 C 0.24477(19) 0.99231(15) 0.71497(13)
C16_2 C 0.2747(2) 0.95573(13) 0.72746(15)
C17_2 C 0.3001(2) 0.95686(14) 0.76835(17)
C18_2 C 0.2954(2) 0.99456(17) 0.79674(14)
H5_2 H 0.3124 0.9953 0.8241
C19_2 C 0.3685(5) 0.9321(4) 0.8244(5)
H6_2 H 0.3891 0.9070 0.8338
H7_2 H 0.3483 0.9419 0.8493
H8_2 H 0.3890 0.9571 0.8146
C20_2 C 0.3047(5) 0.8752(3) 0.8016(4)
H9_2 H 0.3268 0.8514 0.8112
H10_2 H 0.2840 0.8640 0.7776
H11_2 H 0.2844 0.8845 0.8266
C21_2 C 0.3662(4) 0.8987(4) 0.7481(4)
H12_2 H 0.3864 0.8742 0.7595
H13_2 H 0.3871 0.9229 0.7370
H14_2 H 0.3458 0.8875 0.7240
C23_2 C 0.22393(16) 0.99280(14) 0.66630(12)
C27_2 C 0.16137(16) 0.96420(13) 0.61569(14)
C28_2 C 0.18858(16) 0.96004(12) 0.65536(13)
C29_2 C 0.1174(3) 0.9301(2) 0.6052(3)
C30_2 C 0.0803(4) 0.9341(4) 0.6432(5)
H19_2 H 0.0532 0.9136 0.6377
H20_2 H 0.0682 0.9650 0.6448
H21_2 H 0.0959 0.9262 0.6713
C31_2 C 0.0907(4) 0.9409(3) 0.5605(4)
H22_2 H 0.0645 0.9191 0.5559
H23_2 H 0.1138 0.9390 0.5359
H24_2 H 0.0770 0.9712 0.5618
C32_2 C 0.1321(4) 0.8791(3) 0.6043(3)
H25_2 H 0.1035 0.8608 0.5977
H26_2 H 0.1453 0.8705 0.6332
H27_2 H 0.1567 0.8743 0.5814
C41_2 C 0.7091(3) 0.7689(2) 0.7530(3)
C42_2 C 0.66217(11) 0.75511(17) 0.72795(13)
C43_2 C 0.66579(11) 0.73318(19) 0.68636(14)
H35_2 H 0.6965 0.7240 0.6755
C44_2 C 0.62345(15) 0.72497(19) 0.66093(12)
H36_2 H 0.6259 0.7103 0.6331
C45_2 C 0.57749(12) 0.73869(19) 0.67710(13)
C46_2 C 0.57387(11) 0.76061(17) 0.71870(13)
H37_2 H 0.5431 0.7698 0.7295
C47_2 C 0.61621(13) 0.76882(16) 0.74412(11)
H38_2 H 0.6138 0.7835 0.7719
C48_2 C 0.4109(2) 0.6618(2) 0.6586(2)
C49_2 C 0.53129(12) 0.73057(19) 0.64824(14)
C50_2 C 0.52502(13) 0.75203(18) 0.60667(14)
C51_2 C 0.48137(14) 0.74597(17) 0.58255(11)
C52_2 C 0.44399(11) 0.71845(16) 0.60000(12)
C53_2 C 0.45025(12) 0.69700(15) 0.64157(13)
C54_2 C 0.49390(14) 0.70306(17) 0.66569(12)
H39_2 H 0.4981 0.6887 0.6935
C55_2 C 0.4059(3) 0.6235(3) 0.6237(3)
H40_2 H 0.3817 0.6018 0.6338
H41_2 H 0.4373 0.6085 0.6201
H42_2 H 0.3957 0.6363 0.5953
C56_2 C 0.3601(3) 0.6838(3) 0.6687(3)
H43_2 H 0.3375 0.6606 0.6789
H44_2 H 0.3474 0.6978 0.6418
H45_2 H 0.3639 0.7066 0.6919
C57_2 C 0.4271(3) 0.6387(3) 0.7032(3)
H46_2 H 0.4022 0.6174 0.7127
H47_2 H 0.4315 0.6617 0.7261
H48_2 H 0.4578 0.6228 0.6985
C58_2 C 0.5643(3) 0.7875(4) 0.5915(3)
H49_2 H 0.5918 0.7867 0.6121
H50_2 H 0.5499 0.8175 0.5915
H51_2 H 0.5756 0.7800 0.5616
C59_2 C 0.47647(18) 0.7621(2) 0.53403(13)
C60_2 C 0.51094(19) 0.7499(2) 0.50130(16)
C61_2 C 0.5095(2) 0.7703(3) 0.45886(15)
C62_2 C 0.4736(2) 0.8029(3) 0.44915(16)
H52_2 H 0.4726 0.8166 0.4208
C63_2 C 0.4391(2) 0.8152(2) 0.48189(19)
C64_2 C 0.44056(18) 0.7947(2) 0.52432(15)
C65_2 C 0.4053(5) 0.8561(6) 0.4732(5)
C66_2 C 0.4163(5) 0.8827(5) 0.4288(4)
H53_2 H 0.4111 0.8629 0.4033
H54_2 H 0.4500 0.8931 0.4290
H55_2 H 0.3945 0.9086 0.4266
C67_2 C 0.3509(4) 0.8488(6) 0.4768(7)
H56_2 H 0.3436 0.8325 0.5042
H57_2 H 0.3397 0.8313 0.4513
H58_2 H 0.3344 0.8779 0.4772
C68_2 C 0.4157(7) 0.8953(7) 0.5062(9)
H59_2 H 0.4108 0.8848 0.5367
H60_2 H 0.3937 0.9203 0.5001
H61_2 H 0.4493 0.9054 0.5027
C69_2 C 0.5469(3) 0.7100(3) 0.5105(3)
H62_2 H 0.5433 0.7001 0.5413
H63_2 H 0.5802 0.7201 0.5054
H64_2 H 0.5394 0.6850 0.4905
C70_2 C 0.54447(15) 0.7585(3) 0.42222(13)
C71_2 C 0.52749(12) 0.7472(3) 0.37929(15)
H65_2 H 0.4937 0.7451 0.3738
C72_2 C 0.56103(16) 0.7389(3) 0.34461(13)
H66_2 H 0.5497 0.7313 0.3159
C73_2 C 0.61155(15) 0.7419(3) 0.35287(13)
C74_2 C 0.62853(12) 0.7532(3) 0.39580(15)
H67_2 H 0.6623 0.7552 0.4013
C75_2 C 0.59499(16) 0.7615(3) 0.43048(13)
H68_2 H 0.6064 0.7691 0.4592
C76_2 C 0.6492(3) 0.7316(3) 0.3181(2)
O22_2 O 0.2864(3) 0.6890(3) 0.45529(17)
O23_2 O 0.3010(4) 0.6646(3) 0.3884(2)
C77_2 C 0.2773(8) 0.6893(7) 0.4146(5)
C78_2 C 0.2552(12) 0.7339(9) 0.3968(10)
H69_2 H 0.2386 0.7496 0.4210
H70_2 H 0.2319 0.7272 0.3732
H71_2 H 0.2811 0.7529 0.3851
Zr4_2 Zr 0.80570(3) 0.80041(4) 0.74825(3)
Zr5_2 Zr 0.69430(3) 0.69959(4) 0.24825(3)
O24_2 O 0.2583(3) 0.66693(19) 0.54661(18)
O25_2 O 0.2510(2) 0.71809(14) 0.60090(16)
O26_2 O 0.22640(17) 0.77023(16) 0.49945(14)
O27_2 O 0.24117(17) 0.81455(15) 0.55987(13)
O28_2 O 0.25099(16) 0.76398(18) 0.76856(15)
O29_2 O 0.29475(15) 0.78160(15) 0.70665(13)
O30_2 O 0.1319(2) 0.7788(3) 0.72172(17)
O31_2 O 0.19106(17) 0.77057(19) 0.67484(15)
H75_2 H 0.132863 0.82977 0.808485
H76_2 H 0.151647 0.779507 0.824319
C36_3 C 0.7749(2) 0.10632(14) 0.00693(10)
H32_3 H 0.7677 0.1021 0.0374
C40_3 C 0.7703(2) 0.1918(2) 0.0203(2)
O5_3 O 0.7583(3) 0.16693(19) 0.54661(18)
O6_3 O 0.7510(2) 0.21809(14) 0.60090(16)
C5_3 C 0.7514(3) 0.1777(3) 0.5878(3)
C6_3 C 0.7451(2) 0.13928(11) 0.62032(12)
C7_3 C 0.7316(2) 0.14887(10) 0.66468(14)
H1_3 H 0.7247 0.1788 0.6733
C8_3 C 0.7285(2) 0.11366(14) 0.69620(11)
H2_3 H 0.7195 0.1201 0.7259
C9_3 C 0.7389(2) 0.06887(12) 0.68335(14)
C10_3 C 0.7523(3) 0.05928(10) 0.63898(15)
H3_3 H 0.7592 0.0293 0.6304
C11_3 C 0.7554(3) 0.09449(14) 0.60747(12)
H4_3 H 0.7644 0.0881 0.5778
C13_3 C 0.7345(2) 0.03114(14) 0.71575(15)
C14_3 C 0.75985(19) 0.03001(13) 0.75664(15)
C22_3 C 0.8001(4) 0.0681(3) 0.7671(3)
H15_3 H 0.8143 0.0627 0.7963
H16_3 H 0.7848 0.0978 0.7666
H17_3 H 0.8257 0.0669 0.7445
C24_3 C 0.76792(17) 0.02972(14) 0.86245(14)
C25_3 C 0.79512(19) 0.03387(13) 0.90212(13)
C26_3 C 0.83048(18) 0.00111(14) 0.91306(13)
H18_3 H 0.8487 0.0039 0.9396
C33_3 C 0.7240(3) 0.0631(3) 0.8542(3)
H28_3 H 0.7089 0.0563 0.8256
H29_3 H 0.7360 0.0940 0.8540
H30_3 H 0.7001 0.0596 0.8779
C34_3 C 0.7905(2) 0.07489(12) 0.93302(12)
C35_3 C 0.7797(2) 0.06861(11) 0.97857(13)
H31_3 H 0.7758 0.0392 0.9901
C37_3 C 0.7808(2) 0.15030(11) 0.98975(13)
C38_3 C 0.7915(2) 0.15658(11) 0.94420(14)
H33_3 H 0.7955 0.1860 0.9327
C39_3 C 0.7964(2) 0.11887(14) 0.91584(11)
H34_3 H 0.8036 0.1231 0.8854
Zr9_2 Zr 0.76237(4) 0.28872(4) 0.63313(4)
Zr11_3 Zr 0.77339(4) 0.22267(3) 0.51200(3)
O19_3 O 0.3681(2) 0.7212(3) 0.22172(17)
O20_3 O 0.30894(17) 0.72943(19) 0.17484(15)
C61_3 C 0.4905(2) 0.7703(3) 0.04114(15)
C62_3 C 0.5264(2) 0.8029(3) 0.05085(16)
H52_3 H 0.5274 0.8166 0.0792
C63_3 C 0.5609(2) 0.8152(2) 0.01811(19)
C65_3 C 0.5947(5) 0.8561(6) 0.0268(5)
C66_3 C 0.5837(5) 0.8827(5) 0.0712(4)
H53_3 H 0.5889 0.8629 0.0967
H54_3 H 0.5500 0.8931 0.0710
H55_3 H 0.6055 0.9086 0.0734
C67_3 C 0.6491(4) 0.8488(6) 0.0232(7)
H57_3 H 0.6603 0.8313 0.0487
H58_3 H 0.6656 0.8779 0.0228
H64_3 H 0.4606 0.6850 0.0095
C70_3 C 0.45553(15) 0.7585(3) 0.07778(13)
C71_3 C 0.47251(12) 0.7472(3) 0.12071(15)
H65_3 H 0.5063 0.7451 0.1262
C72_3 C 0.43897(16) 0.7389(3) 0.15539(13)
H66_3 H 0.4503 0.7313 0.1841
C73_3 C 0.38845(15) 0.7419(3) 0.14713(13)
C74_3 C 0.37147(12) 0.7532(3) 0.10420(15)
H67_3 H 0.3377 0.7552 0.0987
C75_3 C 0.40501(16) 0.7615(3) 0.06952(13)
H68_3 H 0.3936 0.7691 0.0408
C76_3 C 0.3508(3) 0.7316(3) 0.1819(2)
O22_3 O 0.7136(3) 0.6890(3) 0.04471(17)
O23_3 O 0.6990(4) 0.6646(3) 0.1116(2)
C77_3 C 0.7227(8) 0.6893(7) 0.0854(5)
C78_3 C 0.7448(12) 0.7339(9) 0.1032(10)
H69_3 H 0.7614 0.7496 0.0790
H70_3 H 0.7681 0.7272 0.1268
H71_3 H 0.7189 0.7529 0.1149
Zr5_3 Zr 0.30570(3) 0.69959(4) 0.25175(3)
Zr8_2 Zr 0.23763(4) 0.71128(4) 0.13313(4)
P1_3 P 0.77306(7) 0.88726(6) 0.80812(6)
P2_3 P 0.63354(6) 0.76197(7) 0.93176(6)
O7_3 O 0.72465(18) 0.91794(17) 0.79863(18)
O8_3 O 0.81721(19) 0.92408(16) 0.81547(15)
O9_3 O 0.7885(2) 0.86251(18) 0.76542(16)
O10_3 O 0.76121(19) 0.86141(14) 0.84953(14)
O15_3 O 0.59980(15) 0.71709(17) 0.92312(14)
O16_3 O 0.59544(19) 0.80175(18) 0.94358(17)
O17_3 O 0.6625(2) 0.7494(2) 0.97264(17)
O18_3 O 0.65858(13) 0.77895(17) 0.89107(14)
O21_3 O 0.8378(2) 0.8096(3) 0.68802(18)
C12_3 C 0.6652(3) 0.9164(3) 0.7154(3)
C15_3 C 0.75523(19) 0.99231(15) 0.78503(13)
C16_3 C 0.7253(2) 0.95573(13) 0.77254(15)
C17_3 C 0.6999(2) 0.95686(14) 0.73165(17)
C18_3 C 0.7046(2) 0.99456(17) 0.70326(14)
H5_3 H 0.6876 0.9953 0.6759
C19_3 C 0.6315(5) 0.9321(4) 0.6756(5)
H6_3 H 0.6109 0.9070 0.6662
H7_3 H 0.6517 0.9419 0.6507
H8_3 H 0.6110 0.9571 0.6854
C20_3 C 0.6953(5) 0.8752(3) 0.6984(4)
H9_3 H 0.6732 0.8514 0.6888
H10_3 H 0.7160 0.8640 0.7224
H11_3 H 0.7156 0.8845 0.6734
C21_3 C 0.6338(4) 0.8987(4) 0.7519(4)
H12_3 H 0.6136 0.8742 0.7405
H13_3 H 0.6129 0.9229 0.7630
H14_3 H 0.6542 0.8875 0.7760
C23_3 C 0.77607(16) 0.99280(14) 0.83370(12)
C27_3 C 0.83863(16) 0.96420(13) 0.88431(14)
C28_3 C 0.81142(16) 0.96004(12) 0.84464(13)
C29_3 C 0.8826(3) 0.9301(2) 0.8948(3)
C30_3 C 0.9197(4) 0.9341(4) 0.8568(5)
H19_3 H 0.9468 0.9136 0.8623
H20_3 H 0.9318 0.9650 0.8552
H21_3 H 0.9041 0.9262 0.8287
C31_3 C 0.9093(4) 0.9409(3) 0.9395(4)
H22_3 H 0.9355 0.9191 0.9441
H23_3 H 0.8862 0.9390 0.9641
H24_3 H 0.9230 0.9712 0.9382
C32_3 C 0.8679(4) 0.8791(3) 0.8957(3)
H25_3 H 0.8965 0.8608 0.9023
H26_3 H 0.8547 0.8705 0.8668
H27_3 H 0.8433 0.8743 0.9186
C41_3 C 0.2909(3) 0.7689(2) 0.7470(3)
C42_3 C 0.33783(11) 0.75511(17) 0.77205(13)
C43_3 C 0.33421(11) 0.73318(19) 0.81364(14)
H35_3 H 0.3035 0.7240 0.8245
C44_3 C 0.37655(15) 0.72497(19) 0.83907(12)
H36_3 H 0.3741 0.7103 0.8669
C45_3 C 0.42251(12) 0.73869(19) 0.82290(13)
C46_3 C 0.42613(11) 0.76061(17) 0.78130(13)
H37_3 H 0.4569 0.7698 0.7705
C47_3 C 0.38379(13) 0.76882(16) 0.75588(11)
H38_3 H 0.3862 0.7835 0.7281
C48_3 C 0.5891(2) 0.6618(2) 0.8414(2)
C49_3 C 0.46871(12) 0.73057(19) 0.85176(14)
C50_3 C 0.47498(13) 0.75203(18) 0.89333(14)
C51_3 C 0.51863(14) 0.74597(17) 0.91745(11)
C52_3 C 0.55601(11) 0.71845(16) 0.90000(12)
C53_3 C 0.54975(12) 0.69700(15) 0.85843(13)
C54_3 C 0.50610(14) 0.70306(17) 0.83431(12)
H39_3 H 0.5019 0.6887 0.8065
C55_3 C 0.5941(3) 0.6235(3) 0.8763(3)
H40_3 H 0.6183 0.6018 0.8662
H41_3 H 0.5627 0.6085 0.8799
H42_3 H 0.6043 0.6363 0.9047
C56_3 C 0.6399(3) 0.6838(3) 0.8313(3)
H43_3 H 0.6625 0.6606 0.8211
H44_3 H 0.6526 0.6978 0.8582
H45_3 H 0.6361 0.7066 0.8081
C57_3 C 0.5729(3) 0.6387(3) 0.7968(3)
H46_3 H 0.5978 0.6174 0.7873
H47_3 H 0.5685 0.6617 0.7739
H48_3 H 0.5422 0.6228 0.8015
C58_3 C 0.4357(3) 0.7875(4) 0.9085(3)
H49_3 H 0.4082 0.7867 0.8879
H50_3 H 0.4501 0.8175 0.9085
H51_3 H 0.4244 0.7800 0.9384
C59_3 C 0.52353(18) 0.7621(2) 0.96597(13)
C60_3 C 0.48906(19) 0.7499(2) 0.99870(16)
C64_3 C 0.55944(18) 0.7947(2) 0.97568(15)
H56_3 H 0.6564 0.8325 0.9958
C68_3 C 0.5843(7) 0.8953(7) 0.9938(9)
H59_3 H 0.5892 0.8848 0.9633
H60_3 H 0.6063 0.9203 0.9999
H61_3 H 0.5507 0.9054 0.9973
C69_3 C 0.4531(3) 0.7100(3) 0.9895(3)
H62_3 H 0.4567 0.7001 0.9587
H63_3 H 0.4198 0.7201 0.9946
O24_3 O 0.7417(3) 0.66693(19) 0.95339(18)
O25_3 O 0.7490(2) 0.71809(14) 0.89910(16)
O30_3 O 0.8681(2) 0.7788(3) 0.77828(17)
O31_3 O 0.80894(17) 0.77057(19) 0.82516(15)
H75_3 H 0.867137 0.82977 0.691515
H76_3 H 0.848353 0.779507 0.675681
P1_4 P 0.22694(7) 0.11274(6) 0.30812(6)
P2_4 P 0.36646(6) 0.23803(7) 0.43176(6)
O7_4 O 0.27535(18) 0.08206(17) 0.29863(18)
O8_4 O 0.18279(19) 0.07592(16) 0.31547(15)
O9_4 O 0.2115(2) 0.13749(18) 0.26542(16)
O10_4 O 0.23879(19) 0.13859(14) 0.34953(14)
O15_4 O 0.40020(15) 0.28291(17) 0.42312(14)
O16_4 O 0.40456(19) 0.19825(18) 0.44358(17)
O17_4 O 0.3375(2) 0.2506(2) 0.47264(17)
O18_4 O 0.34142(13) 0.22105(17) 0.39107(14)
O19_4 O 0.6319(2) 0.2788(3) 0.72172(17)
O20_4 O 0.69106(17) 0.27057(19) 0.67484(15)
O21_4 O 0.1622(2) 0.1904(3) 0.18802(18)
C12_4 C 0.3348(3) 0.0836(3) 0.2154(3)
C15_4 C 0.24477(19) 0.00769(15) 0.28503(13)
C16_4 C 0.2747(2) 0.04427(13) 0.27254(15)
C17_4 C 0.3001(2) 0.04314(14) 0.23165(17)
C18_4 C 0.2954(2) 0.00544(17) 0.20326(14)
H5_4 H 0.3124 0.0047 0.1759
C19_4 C 0.3685(5) 0.0679(4) 0.1756(5)
H6_4 H 0.3891 0.0930 0.1662
H7_4 H 0.3483 0.0581 0.1507
H8_4 H 0.3890 0.0429 0.1854
C20_4 C 0.3047(5) 0.1248(3) 0.1984(4)
H9_4 H 0.3268 0.1486 0.1888
H10_4 H 0.2840 0.1360 0.2224
H11_4 H 0.2844 0.1155 0.1734
C21_4 C 0.3662(4) 0.1013(4) 0.2519(4)
H12_4 H 0.3864 0.1258 0.2405
H13_4 H 0.3871 0.0771 0.2630
H14_4 H 0.3458 0.1125 0.2760
C23_4 C 0.22393(16) 0.00720(14) 0.33370(12)
C27_4 C 0.16137(16) 0.03580(13) 0.38431(14)
C28_4 C 0.18858(16) 0.03996(12) 0.34464(13)
C29_4 C 0.1174(3) 0.0699(2) 0.3948(3)
C30_4 C 0.0803(4) 0.0659(4) 0.3568(5)
H19_4 H 0.0532 0.0864 0.3623
H20_4 H 0.0682 0.0350 0.3552
H21_4 H 0.0959 0.0738 0.3287
C31_4 C 0.0907(4) 0.0591(3) 0.4395(4)
H22_4 H 0.0645 0.0809 0.4441
H23_4 H 0.1138 0.0610 0.4641
H24_4 H 0.0770 0.0288 0.4382
C32_4 C 0.1321(4) 0.1209(3) 0.3957(3)
H25_4 H 0.1035 0.1392 0.4023
H26_4 H 0.1453 0.1295 0.3668
H27_4 H 0.1567 0.1257 0.4186
C41_4 C 0.7091(3) 0.2311(2) 0.2470(3)
C42_4 C 0.66217(11) 0.24489(17) 0.27205(13)
C43_4 C 0.66579(11) 0.26682(19) 0.31364(14)
H35_4 H 0.6965 0.2760 0.3245
C44_4 C 0.62345(15) 0.27503(19) 0.33907(12)
H36_4 H 0.6259 0.2897 0.3669
C45_4 C 0.57749(12) 0.26131(19) 0.32290(13)
C46_4 C 0.57387(11) 0.23939(17) 0.28130(13)
H37_4 H 0.5431 0.2302 0.2705
C47_4 C 0.61621(13) 0.23118(16) 0.25588(11)
H38_4 H 0.6138 0.2165 0.2281
C48_4 C 0.4109(2) 0.3382(2) 0.3414(2)
C49_4 C 0.53129(12) 0.26943(19) 0.35176(14)
C50_4 C 0.52502(13) 0.24797(18) 0.39333(14)
C51_4 C 0.48137(14) 0.25403(17) 0.41745(11)
C52_4 C 0.44399(11) 0.28155(16) 0.40000(12)
C53_4 C 0.45025(12) 0.30300(15) 0.35843(13)
C54_4 C 0.49390(14) 0.29694(17) 0.33431(12)
H39_4 H 0.4981 0.3113 0.3065
C55_4 C 0.4059(3) 0.3765(3) 0.3763(3)
H40_4 H 0.3817 0.3982 0.3662
H41_4 H 0.4373 0.3915 0.3799
H42_4 H 0.3957 0.3637 0.4047
C56_4 C 0.3601(3) 0.3162(3) 0.3313(3)
H43_4 H 0.3375 0.3394 0.3211
H44_4 H 0.3474 0.3022 0.3582
H45_4 H 0.3639 0.2934 0.3081
C57_4 C 0.4271(3) 0.3613(3) 0.2968(3)
H46_4 H 0.4022 0.3826 0.2873
H47_4 H 0.4315 0.3383 0.2739
H48_4 H 0.4578 0.3772 0.3015
C58_4 C 0.5643(3) 0.2125(4) 0.4085(3)
H49_4 H 0.5918 0.2133 0.3879
H50_4 H 0.5499 0.1825 0.4085
H51_4 H 0.5756 0.2200 0.4384
C59_4 C 0.47647(18) 0.2379(2) 0.46597(13)
C60_4 C 0.51094(19) 0.2501(2) 0.49870(16)
C61_4 C 0.5095(2) 0.2297(3) 0.54114(15)
C62_4 C 0.4736(2) 0.1971(3) 0.55085(16)
H52_4 H 0.4726 0.1834 0.5792
C63_4 C 0.4391(2) 0.1848(2) 0.51811(19)
C64_4 C 0.44056(18) 0.2053(2) 0.47568(15)
C65_4 C 0.4053(5) 0.1439(6) 0.5268(5)
C66_4 C 0.4163(5) 0.1173(5) 0.5712(4)
H53_4 H 0.4111 0.1371 0.5967
H54_4 H 0.4500 0.1069 0.5710
H55_4 H 0.3945 0.0914 0.5734
C67_4 C 0.3509(4) 0.1512(6) 0.5232(7)
H56_4 H 0.3436 0.1675 0.4958
H57_4 H 0.3397 0.1687 0.5487
H58_4 H 0.3344 0.1221 0.5228
C68_4 C 0.4157(7) 0.1047(7) 0.4938(9)
H59_4 H 0.4108 0.1152 0.4633
H60_4 H 0.3937 0.0797 0.4999
H61_4 H 0.4493 0.0946 0.4973
C69_4 C 0.5469(3) 0.2900(3) 0.4895(3)
H62_4 H 0.5433 0.2999 0.4587
H63_4 H 0.5802 0.2799 0.4946
H64_4 H 0.5394 0.3150 0.5095
C70_4 C 0.54447(15) 0.2415(3) 0.57778(13)
C71_4 C 0.52749(12) 0.2528(3) 0.62071(15)
H65_4 H 0.4937 0.2549 0.6262
C72_4 C 0.56103(16) 0.2611(3) 0.65539(13)
H66_4 H 0.5497 0.2687 0.6841
C73_4 C 0.61155(15) 0.2581(3) 0.64713(13)
C74_4 C 0.62853(12) 0.2468(3) 0.60420(15)
H67_4 H 0.6623 0.2448 0.5987
C75_4 C 0.59499(16) 0.2385(3) 0.56952(13)
H68_4 H 0.6064 0.2309 0.5408
C76_4 C 0.6492(3) 0.2684(3) 0.6819(2)
O22_4 O 0.2864(3) 0.3110(3) 0.54471(17)
O23_4 O 0.3010(4) 0.3354(3) 0.6116(2)
C77_4 C 0.2773(8) 0.3107(7) 0.5854(5)
C78_4 C 0.2552(12) 0.2661(9) 0.6032(10)
H69_4 H 0.2386 0.2504 0.5790
H70_4 H 0.2319 0.2728 0.6268
H71_4 H 0.2811 0.2471 0.6149
Zr5_4 Zr 0.69430(3) 0.30041(4) 0.75175(3)
O24_4 O 0.2583(3) 0.33307(19) 0.45339(18)
O25_4 O 0.2510(2) 0.28191(14) 0.39910(16)
O30_4 O 0.1319(2) 0.2212(3) 0.27828(17)
O31_4 O 0.19106(17) 0.22943(19) 0.32516(15)
H75_4 H 0.132863 0.17023 0.191515
H76_4 H 0.151647 0.220493 0.175681
O5_4 O 0.2417(3) 0.83307(19) 0.04661(18)
O6_4 O 0.2490(2) 0.78191(14) 0.10090(16)
C5_4 C 0.2486(3) 0.8223(3) 0.0878(3)
C6_4 C 0.2549(2) 0.86072(11) 0.12032(12)
C7_4 C 0.2684(2) 0.85113(10) 0.16468(14)
H1_4 H 0.2753 0.8212 0.1733
C8_4 C 0.2715(2) 0.88634(14) 0.19620(11)
H2_4 H 0.2805 0.8799 0.2259
C9_4 C 0.2611(2) 0.93113(12) 0.18335(14)
C10_4 C 0.2477(3) 0.94072(10) 0.13898(15)
H3_4 H 0.2408 0.9707 0.1304
C11_4 C 0.2446(3) 0.90551(14) 0.10747(12)
H4_4 H 0.2356 0.9119 0.0778
C13_4 C 0.2655(2) 0.96886(14) 0.21575(15)
C14_4 C 0.24015(19) 0.96999(13) 0.25664(15)
C22_4 C 0.1999(4) 0.9319(3) 0.2671(3)
H15_4 H 0.1857 0.9373 0.2963
H16_4 H 0.2152 0.9022 0.2666
H17_4 H 0.1743 0.9331 0.2445
C24_4 C 0.23208(17) 0.97028(14) 0.36245(14)
C25_4 C 0.20488(19) 0.96613(13) 0.40212(13)
C26_4 C 0.16952(18) 0.99889(14) 0.41306(13)
H18_4 H 0.1513 0.9961 0.4396
C33_4 C 0.2760(3) 0.9369(3) 0.3542(3)
H28_4 H 0.2911 0.9437 0.3256
H29_4 H 0.2640 0.9060 0.3540
H30_4 H 0.2999 0.9404 0.3779
C34_4 C 0.2095(2) 0.92511(12) 0.43302(12)
C35_4 C 0.2203(2) 0.93139(11) 0.47857(13)
H31_4 H 0.2242 0.9608 0.4901
C36_4 C 0.2251(2) 0.89368(14) 0.50693(10)
H32_4 H 0.2323 0.8979 0.5374
C37_4 C 0.2192(2) 0.84970(11) 0.48975(13)
C38_4 C 0.2085(2) 0.84342(11) 0.44420(14)
H33_4 H 0.2045 0.8140 0.4327
C39_4 C 0.2036(2) 0.88113(14) 0.41584(11)
H34_4 H 0.1964 0.8769 0.3854
C40_4 C 0.2297(2) 0.8082(2) 0.5203(2)
Zr11_4 Zr 0.22661(4) 0.77733(3) 0.01200(3)
P1_5 P 0.27306(7) 0.61274(6) 0.19188(6)
P2_5 P 0.13354(6) 0.73803(7) 0.06824(6)
O7_5 O 0.22465(18) 0.58206(17) 0.20137(18)
O8_5 O 0.31721(19) 0.57592(16) 0.18453(15)
O9_5 O 0.2885(2) 0.63749(18) 0.23458(16)
O10_5 O 0.26121(19) 0.63859(14) 0.15047(14)
O11_3 O 0.27360(17) 0.27023(16) 0.00055(14)
O15_5 O 0.09980(15) 0.78291(17) 0.07688(14)
O16_5 O 0.09544(19) 0.69825(18) 0.05642(17)
O17_5 O 0.1625(2) 0.7506(2) 0.02736(17)
O18_5 O 0.15858(13) 0.72105(17) 0.10893(14)
O21_5 O 0.3378(2) 0.6904(3) 0.31198(18)
C5_5 C 0.2514(3) 0.3223(3) 0.4122(3)
C6_5 C 0.2451(2) 0.36072(11) 0.37968(12)
C7_5 C 0.2316(2) 0.35113(10) 0.33532(14)
H1_5 H 0.2247 0.3212 0.3267
C8_5 C 0.2285(2) 0.38634(14) 0.30380(11)
H2_5 H 0.2195 0.3799 0.2741
C9_5 C 0.2389(2) 0.43113(12) 0.31665(14)
C10_5 C 0.2523(3) 0.44072(10) 0.36102(15)
H3_5 H 0.2592 0.4707 0.3696
C11_5 C 0.2554(3) 0.40551(14) 0.39253(12)
H4_5 H 0.2644 0.4119 0.4222
C12_5 C 0.1652(3) 0.5836(3) 0.2846(3)
C13_5 C 0.2345(2) 0.46886(14) 0.28425(15)
C14_5 C 0.25985(19) 0.46999(13) 0.24336(15)
C15_5 C 0.25523(19) 0.50769(15) 0.21497(13)
C16_5 C 0.2253(2) 0.54427(13) 0.22746(15)
C17_5 C 0.1999(2) 0.54314(14) 0.26835(17)
C18_5 C 0.2046(2) 0.50544(17) 0.29674(14)
H5_5 H 0.1876 0.5047 0.3241
C19_5 C 0.1315(5) 0.5679(4) 0.3244(5)
H6_5 H 0.1109 0.5930 0.3338
H7_5 H 0.1517 0.5581 0.3493
H8_5 H 0.1110 0.5429 0.3146
C20_5 C 0.1953(5) 0.6248(3) 0.3016(4)
H9_5 H 0.1732 0.6486 0.3112
H10_5 H 0.2160 0.6360 0.2776
H11_5 H 0.2156 0.6155 0.3266
C21_5 C 0.1338(4) 0.6013(4) 0.2481(4)
H12_5 H 0.1136 0.6258 0.2595
H13_5 H 0.1129 0.5771 0.2370
H14_5 H 0.1542 0.6125 0.2240
C22_5 C 0.3001(4) 0.4319(3) 0.2329(3)
H15_5 H 0.3143 0.4373 0.2037
H16_5 H 0.2848 0.4022 0.2334
H17_5 H 0.3257 0.4331 0.2555
C23_5 C 0.27607(16) 0.50720(14) 0.16630(12)
C24_5 C 0.26792(17) 0.47028(14) 0.13755(14)
C25_5 C 0.29512(19) 0.46613(13) 0.09788(13)
C26_5 C 0.33048(18) 0.49889(14) 0.08694(13)
H18_5 H 0.3487 0.4961 0.0604
C27_5 C 0.33863(16) 0.53580(13) 0.11569(14)
C28_5 C 0.31142(16) 0.53996(12) 0.15536(13)
C29_5 C 0.3826(3) 0.5699(2) 0.1052(3)
C30_5 C 0.4197(4) 0.5659(4) 0.1432(5)
H19_5 H 0.4468 0.5864 0.1377
H20_5 H 0.4318 0.5350 0.1448
H21_5 H 0.4041 0.5738 0.1713
C31_5 C 0.4093(4) 0.5591(3) 0.0605(4)
H22_5 H 0.4355 0.5809 0.0559
H23_5 H 0.3862 0.5610 0.0359
H24_5 H 0.4230 0.5288 0.0618
C32_5 C 0.3679(4) 0.6209(3) 0.1043(3)
H25_5 H 0.3965 0.6392 0.0977
H26_5 H 0.3547 0.6295 0.1332
H27_5 H 0.3433 0.6257 0.0814
C33_5 C 0.2240(3) 0.4369(3) 0.1458(3)
H28_5 H 0.2089 0.4437 0.1744
H29_5 H 0.2360 0.4060 0.1460
H30_5 H 0.2001 0.4404 0.1221
C34_5 C 0.2905(2) 0.42511(12) 0.06698(12)
C35_5 C 0.2797(2) 0.43139(11) 0.02143(13)
H31_5 H 0.2758 0.4608 0.0099
C37_5 C 0.2808(2) 0.34970(11) 0.01025(13)
C38_5 C 0.2915(2) 0.34342(11) 0.05580(14)
H33_5 H 0.2955 0.3140 0.0673
C39_5 C 0.2964(2) 0.38113(14) 0.08416(11)
H34_5 H 0.3036 0.3769 0.1146
C48_5 C 0.0891(2) 0.8382(2) 0.1586(2)
C51_5 C 0.01863(14) 0.75403(17) 0.08255(11)
C52_5 C 0.05601(11) 0.78155(16) 0.10000(12)
C53_5 C 0.04975(12) 0.80300(15) 0.14157(13)
C54_5 C 0.00610(14) 0.79694(17) 0.16569(12)
H39_5 H 0.0019 0.8113 0.1935
C55_5 C 0.0941(3) 0.8765(3) 0.1237(3)
H40_5 H 0.1183 0.8982 0.1338
H41_5 H 0.0627 0.8915 0.1201
H42_5 H 0.1043 0.8637 0.0953
C56_5 C 0.1399(3) 0.8162(3) 0.1687(3)
H43_5 H 0.1625 0.8394 0.1789
H44_5 H 0.1526 0.8022 0.1418
H45_5 H 0.1361 0.7934 0.1919
C57_5 C 0.0729(3) 0.8613(3) 0.2032(3)
H46_5 H 0.0978 0.8826 0.2127
H47_5 H 0.0685 0.8383 0.2261
H48_5 H 0.0422 0.8772 0.1985
C59_5 C 0.02353(18) 0.7379(2) 0.03403(13)
C64_5 C 0.05944(18) 0.7053(2) 0.02432(15)
H56_5 H 0.1564 0.6675 0.0042
C68_5 C 0.0843(7) 0.6047(7) 0.0062(9)
H59_5 H 0.0892 0.6152 0.0367
H60_5 H 0.1063 0.5797 0.0001
H61_5 H 0.0507 0.5946 0.0027
O27_3 O 0.25883(17) 0.68545(15) 0.05987(13)
O28_3 O 0.24901(16) 0.73602(18) 0.26856(15)
O29_3 O 0.20525(15) 0.71840(15) 0.20665(13)
H75_5 H 0.367137 0.67023 0.308485
H76_5 H 0.348353 0.720493 0.324319
O12_3 O 0.25883(17) 0.31455(15) 0.94013(13)
C36_5 C 0.2749(2) 0.39368(14) 0.99307(10)
H32_5 H 0.2677 0.3979 0.9626
C40_5 C 0.2703(2) 0.3082(2) 0.9797(2)
C62_5 C 0.0264(2) 0.6971(3) 0.94915(16)
H52_5 H 0.0274 0.6834 0.9208
C63_5 C 0.0609(2) 0.6848(2) 0.98189(19)
C65_5 C 0.0947(5) 0.6439(6) 0.9732(5)
C66_5 C 0.0837(5) 0.6173(5) 0.9288(4)
H53_5 H 0.0889 0.6371 0.9033
H54_5 H 0.0500 0.6069 0.9290
H55_5 H 0.1055 0.5914 0.9266
C67_5 C 0.1491(4) 0.6512(6) 0.9768(7)
H57_5 H 0.1603 0.6687 0.9513
H58_5 H 0.1656 0.6221 0.9772
H65_5 H 0.0063 0.7549 0.8738
O22_5 O 0.2136(3) 0.8110(3) 0.95529(17)
O23_5 O 0.1990(4) 0.8354(3) 0.8884(2)
C77_5 C 0.2227(8) 0.8107(7) 0.9146(5)
C78_5 C 0.2448(12) 0.7661(9) 0.8968(10)
H69_5 H 0.2614 0.7504 0.9210
H70_5 H 0.2681 0.7728 0.8732
H71_5 H 0.2189 0.7471 0.8851
O26_3 O 0.27360(17) 0.72977(16) 0.99945(14)
O13_3 O 0.75099(16) 0.73602(18) 0.23144(15)
O14_3 O 0.79475(15) 0.71840(15) 0.29335(13)
C41_5 C 0.7909(3) 0.7311(2) 0.2530(3)
C42_5 C 0.83783(11) 0.74489(17) 0.22795(13)
C43_5 C 0.83421(11) 0.76682(19) 0.18636(14)
H35_5 H 0.8035 0.7760 0.1755
C44_5 C 0.87655(15) 0.77503(19) 0.16093(12)
H36_5 H 0.8741 0.7897 0.1331
C45_5 C 0.92251(12) 0.76131(19) 0.17710(13)
C46_5 C 0.92613(11) 0.73939(17) 0.21870(13)
H37_5 H 0.9569 0.7302 0.2295
C47_5 C 0.88379(13) 0.73118(16) 0.24412(11)
H38_5 H 0.8862 0.7165 0.2719
C49_5 C 0.96871(12) 0.76943(19) 0.14824(14)
C50_5 C 0.97498(13) 0.74797(18) 0.10667(14)
C58_5 C 0.9357(3) 0.7125(4) 0.0915(3)
H49_5 H 0.9082 0.7133 0.1121
H50_5 H 0.9501 0.6825 0.0915
H51_5 H 0.9244 0.7200 0.0616
C60_5 C 0.98906(19) 0.7501(2) 0.00130(16)
C69_5 C 0.9531(3) 0.7900(3) 0.0105(3)
H62_5 H 0.9567 0.7999 0.0413
H63_5 H 0.9198 0.7799 0.0054
C61_5 C 0.9905(2) 0.7297(3) 0.95886(15)
H64_5 H 0.9606 0.8150 0.9905
C70_5 C 0.95553(15) 0.7415(3) 0.92222(13)
C71_5 C 0.97251(12) 0.7528(3) 0.87929(15)
C72_5 C 0.93897(16) 0.7611(3) 0.84461(13)
H66_5 H 0.9503 0.7687 0.8159
C73_5 C 0.88845(15) 0.7581(3) 0.85287(13)
C74_5 C 0.87147(12) 0.7468(3) 0.89580(15)
H67_5 H 0.8377 0.7448 0.9013
C75_5 C 0.90501(16) 0.7385(3) 0.93048(13)
H68_5 H 0.8936 0.7309 0.9592
C76_5 C 0.8508(3) 0.7684(3) 0.8181(2)
O13_4 O 0.24901(16) 0.26398(18) 0.73144(15)
O14_4 O 0.20525(15) 0.28160(15) 0.79335(13)
C41_6 C 0.2091(3) 0.2689(2) 0.7530(3)
C42_6 C 0.16217(11) 0.25511(17) 0.72795(13)
C43_6 C 0.16579(11) 0.23318(19) 0.68636(14)
H35_6 H 0.1965 0.2240 0.6755
C44_6 C 0.12345(15) 0.22497(19) 0.66093(12)
H36_6 H 0.1259 0.2103 0.6331
C45_6 C 0.07749(12) 0.23869(19) 0.67710(13)
C46_6 C 0.07387(11) 0.26061(17) 0.71870(13)
H37_6 H 0.0431 0.2698 0.7295
C47_6 C 0.11621(13) 0.26882(16) 0.74412(11)
H38_6 H 0.1138 0.2835 0.7719
C49_6 C 0.03129(12) 0.23057(19) 0.64824(14)
C50_6 C 0.02502(13) 0.25203(18) 0.60667(14)
C58_6 C 0.0643(3) 0.2875(4) 0.5915(3)
H49_6 H 0.0918 0.2867 0.6121
H50_6 H 0.0499 0.3175 0.5915
H51_6 H 0.0756 0.2800 0.5616
C60_6 C 0.01094(19) 0.2499(2) 0.50130(16)
C61_6 C 0.0095(2) 0.2703(3) 0.45886(15)
C69_6 C 0.0469(3) 0.2100(3) 0.5105(3)
H62_6 H 0.0433 0.2001 0.5413
H63_6 H 0.0802 0.2201 0.5054
H64_6 H 0.0394 0.1850 0.4905
C70_6 C 0.04447(15) 0.2585(3) 0.42222(13)
C71_6 C 0.02749(12) 0.2472(3) 0.37929(15)
C72_6 C 0.06103(16) 0.2389(3) 0.34461(13)
H66_6 H 0.0497 0.2313 0.3159
C73_6 C 0.11155(15) 0.2419(3) 0.35287(13)
C74_6 C 0.12853(12) 0.2532(3) 0.39580(15)
H67_6 H 0.1623 0.2552 0.4013
C75_6 C 0.09499(16) 0.2615(3) 0.43048(13)
H68_6 H 0.1064 0.2691 0.4592
C76_6 C 0.1492(3) 0.2316(3) 0.3181(2)
P1_6 P 0.72694(7) 0.38726(6) 0.69188(6)
P2_6 P 0.86646(6) 0.26197(7) 0.56824(6)
O7_6 O 0.77535(18) 0.41794(17) 0.70137(18)
O8_6 O 0.68279(19) 0.42408(16) 0.68453(15)
O9_6 O 0.7115(2) 0.36251(18) 0.73458(16)
O10_6 O 0.73879(19) 0.36141(14) 0.65047(14)
O11_4 O 0.72640(17) 0.72977(16) 0.50055(14)
O12_4 O 0.74117(17) 0.68545(15) 0.44013(13)
O15_6 O 0.90020(15) 0.21709(17) 0.57688(14)
O16_6 O 0.90456(19) 0.30175(18) 0.55642(17)
O17_6 O 0.8375(2) 0.2494(2) 0.52736(17)
O18_6 O 0.84142(13) 0.27895(17) 0.60893(14)
O21_6 O 0.6622(2) 0.3096(3) 0.81198(18)
C5_6 C 0.7486(3) 0.6777(3) 0.9122(3)
C6_6 C 0.7549(2) 0.63928(11) 0.87968(12)
C7_6 C 0.7684(2) 0.64887(10) 0.83532(14)
H1_6 H 0.7753 0.6788 0.8267
C8_6 C 0.7715(2) 0.61366(14) 0.80380(11)
H2_6 H 0.7805 0.6201 0.7741
C9_6 C 0.7611(2) 0.56887(12) 0.81665(14)
C10_6 C 0.7477(3) 0.55928(10) 0.86102(15)
H3_6 H 0.7408 0.5293 0.8696
C11_6 C 0.7446(3) 0.59449(14) 0.89253(12)
H4_6 H 0.7356 0.5881 0.9222
C12_6 C 0.8348(3) 0.4164(3) 0.7846(3)
C13_6 C 0.7655(2) 0.53114(14) 0.78425(15)
C14_6 C 0.74015(19) 0.53001(13) 0.74336(15)
C15_6 C 0.74477(19) 0.49231(15) 0.71497(13)
C16_6 C 0.7747(2) 0.45573(13) 0.72746(15)
C17_6 C 0.8001(2) 0.45686(14) 0.76835(17)
C18_6 C 0.7954(2) 0.49456(17) 0.79674(14)
H5_6 H 0.8124 0.4953 0.8241
C19_6 C 0.8685(5) 0.4321(4) 0.8244(5)
H6_6 H 0.8891 0.4070 0.8338
H7_6 H 0.8483 0.4419 0.8493
H8_6 H 0.8890 0.4571 0.8146
C20_6 C 0.8047(5) 0.3752(3) 0.8016(4)
H9_6 H 0.8268 0.3514 0.8112
H10_6 H 0.7840 0.3640 0.7776
H11_6 H 0.7844 0.3845 0.8266
C21_6 C 0.8662(4) 0.3987(4) 0.7481(4)
H12_6 H 0.8864 0.3742 0.7595
H13_6 H 0.8871 0.4229 0.7370
H14_6 H 0.8458 0.3875 0.7240
C22_6 C 0.6999(4) 0.5681(3) 0.7329(3)
H15_6 H 0.6857 0.5627 0.7037
H16_6 H 0.7152 0.5978 0.7334
H17_6 H 0.6743 0.5669 0.7555
C23_6 C 0.72393(16) 0.49280(14) 0.66630(12)
C24_6 C 0.73208(17) 0.52972(14) 0.63755(14)
C25_6 C 0.70488(19) 0.53387(13) 0.59788(13)
C26_6 C 0.66952(18) 0.50111(14) 0.58694(13)
H18_6 H 0.6513 0.5039 0.5604
C27_6 C 0.66137(16) 0.46420(13) 0.61569(14)
C28_6 C 0.68858(16) 0.46004(12) 0.65536(13)
C29_6 C 0.6174(3) 0.4301(2) 0.6052(3)
C30_6 C 0.5803(4) 0.4341(4) 0.6432(5)
H19_6 H 0.5532 0.4136 0.6377
H20_6 H 0.5682 0.4650 0.6448
H21_6 H 0.5959 0.4262 0.6713
C31_6 C 0.5907(4) 0.4409(3) 0.5605(4)
H22_6 H 0.5645 0.4191 0.5559
H23_6 H 0.6138 0.4390 0.5359
H24_6 H 0.5770 0.4712 0.5618
C32_6 C 0.6321(4) 0.3791(3) 0.6043(3)
H25_6 H 0.6035 0.3608 0.5977
H26_6 H 0.6453 0.3705 0.6332
H27_6 H 0.6567 0.3743 0.5814
C33_6 C 0.7760(3) 0.5631(3) 0.6458(3)
H28_6 H 0.7911 0.5563 0.6744
H29_6 H 0.7640 0.5940 0.6460
H30_6 H 0.7999 0.5596 0.6221
C34_6 C 0.7095(2) 0.57489(12) 0.56698(12)
C35_6 C 0.7203(2) 0.56861(11) 0.52143(13)
H31_6 H 0.7242 0.5392 0.5099
C36_6 C 0.7251(2) 0.60632(14) 0.49307(10)
H32_6 H 0.7323 0.6021 0.4626
C37_6 C 0.7192(2) 0.65030(11) 0.51025(13)
C38_6 C 0.7085(2) 0.65658(11) 0.55580(14)
H33_6 H 0.7045 0.6860 0.5673
C39_6 C 0.7036(2) 0.61887(14) 0.58416(11)
H34_6 H 0.6964 0.6231 0.6146
C40_6 C 0.7297(2) 0.6918(2) 0.4797(2)
C48_6 C 0.9109(2) 0.1618(2) 0.6586(2)
C51_6 C 0.98137(14) 0.24597(17) 0.58255(11)
C52_6 C 0.94399(11) 0.21845(16) 0.60000(12)
C53_6 C 0.95025(12) 0.19700(15) 0.64157(13)
C54_6 C 0.99390(14) 0.20306(17) 0.66569(12)
H39_6 H 0.9981 0.1887 0.6935
C55_6 C 0.9059(3) 0.1235(3) 0.6237(3)
H40_6 H 0.8817 0.1018 0.6338
H41_6 H 0.9373 0.1085 0.6201
H42_6 H 0.8957 0.1363 0.5953
C56_6 C 0.8601(3) 0.1838(3) 0.6687(3)
H43_6 H 0.8375 0.1606 0.6789
H44_6 H 0.8474 0.1978 0.6418
H45_6 H 0.8639 0.2066 0.6919
C57_6 C 0.9271(3) 0.1387(3) 0.7032(3)
H46_6 H 0.9022 0.1174 0.7127
H47_6 H 0.9315 0.1617 0.7261
H48_6 H 0.9578 0.1228 0.6985
C59_6 C 0.97647(18) 0.2621(2) 0.53403(13)
C62_6 C 0.9736(2) 0.3029(3) 0.44915(16)
H52_6 H 0.9726 0.3166 0.4208
C63_6 C 0.9391(2) 0.3152(2) 0.48189(19)
C64_6 C 0.94056(18) 0.2947(2) 0.52432(15)
C65_6 C 0.9053(5) 0.3561(6) 0.4732(5)
C66_6 C 0.9163(5) 0.3827(5) 0.4288(4)
H53_6 H 0.9111 0.3629 0.4033
H54_6 H 0.9500 0.3931 0.4290
H55_6 H 0.8945 0.4086 0.4266
C67_6 C 0.8509(4) 0.3488(6) 0.4768(7)
H56_6 H 0.8436 0.3325 0.5042
H57_6 H 0.8397 0.3313 0.4513
H58_6 H 0.8344 0.3779 0.4772
C68_6 C 0.9157(7) 0.3953(7) 0.5062(9)
H59_6 H 0.9108 0.3848 0.5367
H60_6 H 0.8937 0.4203 0.5001
H61_6 H 0.9493 0.4054 0.5027
H65_6 H 0.9937 0.2451 0.3738
O22_6 O 0.7864(3) 0.1890(3) 0.45529(17)
O23_6 O 0.8010(4) 0.1646(3) 0.3884(2)
C77_6 C 0.7773(8) 0.1893(7) 0.4146(5)
C78_6 C 0.7552(12) 0.2339(9) 0.3968(10)
H69_6 H 0.7386 0.2496 0.4210
H70_6 H 0.7319 0.2272 0.3732
H71_6 H 0.7811 0.2529 0.3851
O26_4 O 0.72640(17) 0.27023(16) 0.49945(14)
O27_4 O 0.74117(17) 0.31455(15) 0.55987(13)
O28_4 O 0.75099(16) 0.26398(18) 0.76856(15)
O29_4 O 0.79475(15) 0.28160(15) 0.70665(13)
H75_6 H 0.632863 0.32977 0.808485
H76_6 H 0.651647 0.279507 0.824319
C36_7 C 0.2749(2) 0.60632(14) 0.00693(10)
H32_7 H 0.2677 0.6021 0.0374
C40_7 C 0.2703(2) 0.6918(2) 0.0203(2)
C62_7 C 0.0264(2) 0.3029(3) 0.05085(16)
H52_7 H 0.0274 0.3166 0.0792
C63_7 C 0.0609(2) 0.3152(2) 0.01811(19)
C65_7 C 0.0947(5) 0.3561(6) 0.0268(5)
C66_7 C 0.0837(5) 0.3827(5) 0.0712(4)
H53_7 H 0.0889 0.3629 0.0967
H54_7 H 0.0500 0.3931 0.0710
H55_7 H 0.1055 0.4086 0.0734
C67_7 C 0.1491(4) 0.3488(6) 0.0232(7)
H57_7 H 0.1603 0.3313 0.0487
H58_7 H 0.1656 0.3779 0.0228
H65_7 H 0.0063 0.2451 0.1262
O22_7 O 0.2136(3) 0.1890(3) 0.04471(17)
O23_7 O 0.1990(4) 0.1646(3) 0.1116(2)
C77_7 C 0.2227(8) 0.1893(7) 0.0854(5)
C78_7 C 0.2448(12) 0.2339(9) 0.1032(10)
H69_7 H 0.2614 0.2496 0.0790
H70_7 H 0.2681 0.2272 0.1268
H71_7 H 0.2189 0.2529 0.1149
P1_7 P 0.27306(7) 0.38726(6) 0.80812(6)
P2_7 P 0.13354(6) 0.26197(7) 0.93176(6)
O7_7 O 0.22465(18) 0.41794(17) 0.79863(18)
O8_7 O 0.31721(19) 0.42408(16) 0.81547(15)
O9_7 O 0.2885(2) 0.36251(18) 0.76542(16)
O10_7 O 0.26121(19) 0.36141(14) 0.84953(14)
O15_7 O 0.09980(15) 0.21709(17) 0.92312(14)
O16_7 O 0.09544(19) 0.30175(18) 0.94358(17)
O17_7 O 0.1625(2) 0.2494(2) 0.97264(17)
O18_7 O 0.15858(13) 0.27895(17) 0.89107(14)
O21_7 O 0.3378(2) 0.3096(3) 0.68802(18)
C5_7 C 0.2514(3) 0.6777(3) 0.5878(3)
C6_7 C 0.2451(2) 0.63928(11) 0.62032(12)
C7_7 C 0.2316(2) 0.64887(10) 0.66468(14)
H1_7 H 0.2247 0.6788 0.6733
C8_7 C 0.2285(2) 0.61366(14) 0.69620(11)
H2_7 H 0.2195 0.6201 0.7259
C9_7 C 0.2389(2) 0.56887(12) 0.68335(14)
C10_7 C 0.2523(3) 0.55928(10) 0.63898(15)
H3_7 H 0.2592 0.5293 0.6304
C11_7 C 0.2554(3) 0.59449(14) 0.60747(12)
H4_7 H 0.2644 0.5881 0.5778
C12_7 C 0.1652(3) 0.4164(3) 0.7154(3)
C13_7 C 0.2345(2) 0.53114(14) 0.71575(15)
C14_7 C 0.25985(19) 0.53001(13) 0.75664(15)
C15_7 C 0.25523(19) 0.49231(15) 0.78503(13)
C16_7 C 0.2253(2) 0.45573(13) 0.77254(15)
C17_7 C 0.1999(2) 0.45686(14) 0.73165(17)
C18_7 C 0.2046(2) 0.49456(17) 0.70326(14)
H5_7 H 0.1876 0.4953 0.6759
C19_7 C 0.1315(5) 0.4321(4) 0.6756(5)
H6_7 H 0.1109 0.4070 0.6662
H7_7 H 0.1517 0.4419 0.6507
H8_7 H 0.1110 0.4571 0.6854
C20_7 C 0.1953(5) 0.3752(3) 0.6984(4)
H9_7 H 0.1732 0.3514 0.6888
H10_7 H 0.2160 0.3640 0.7224
H11_7 H 0.2156 0.3845 0.6734
C21_7 C 0.1338(4) 0.3987(4) 0.7519(4)
H12_7 H 0.1136 0.3742 0.7405
H13_7 H 0.1129 0.4229 0.7630
H14_7 H 0.1542 0.3875 0.7760
C22_7 C 0.3001(4) 0.5681(3) 0.7671(3)
H15_7 H 0.3143 0.5627 0.7963
H16_7 H 0.2848 0.5978 0.7666
H17_7 H 0.3257 0.5669 0.7445
C23_7 C 0.27607(16) 0.49280(14) 0.83370(12)
C24_7 C 0.26792(17) 0.52972(14) 0.86245(14)
C25_7 C 0.29512(19) 0.53387(13) 0.90212(13)
C26_7 C 0.33048(18) 0.50111(14) 0.91306(13)
H18_7 H 0.3487 0.5039 0.9396
C27_7 C 0.33863(16) 0.46420(13) 0.88431(14)
C28_7 C 0.31142(16) 0.46004(12) 0.84464(13)
C29_7 C 0.3826(3) 0.4301(2) 0.8948(3)
C30_7 C 0.4197(4) 0.4341(4) 0.8568(5)
H19_7 H 0.4468 0.4136 0.8623
H20_7 H 0.4318 0.4650 0.8552
H21_7 H 0.4041 0.4262 0.8287
C31_7 C 0.4093(4) 0.4409(3) 0.9395(4)
H22_7 H 0.4355 0.4191 0.9441
H23_7 H 0.3862 0.4390 0.9641
H24_7 H 0.4230 0.4712 0.9382
C32_7 C 0.3679(4) 0.3791(3) 0.8957(3)
H25_7 H 0.3965 0.3608 0.9023
H26_7 H 0.3547 0.3705 0.8668
H27_7 H 0.3433 0.3743 0.9186
C33_7 C 0.2240(3) 0.5631(3) 0.8542(3)
H28_7 H 0.2089 0.5563 0.8256
H29_7 H 0.2360 0.5940 0.8540
H30_7 H 0.2001 0.5596 0.8779
C34_7 C 0.2905(2) 0.57489(12) 0.93302(12)
C35_7 C 0.2797(2) 0.56861(11) 0.97857(13)
H31_7 H 0.2758 0.5392 0.9901
C37_7 C 0.2808(2) 0.65030(11) 0.98975(13)
C38_7 C 0.2915(2) 0.65658(11) 0.94420(14)
H33_7 H 0.2955 0.6860 0.9327
C39_7 C 0.2964(2) 0.61887(14) 0.91584(11)
H34_7 H 0.3036 0.6231 0.8854
C48_7 C 0.0891(2) 0.1618(2) 0.8414(2)
C51_7 C 0.01863(14) 0.24597(17) 0.91745(11)
C52_7 C 0.05601(11) 0.21845(16) 0.90000(12)
C53_7 C 0.04975(12) 0.19700(15) 0.85843(13)
C54_7 C 0.00610(14) 0.20306(17) 0.83431(12)
H39_7 H 0.0019 0.1887 0.8065
C55_7 C 0.0941(3) 0.1235(3) 0.8763(3)
H40_7 H 0.1183 0.1018 0.8662
H41_7 H 0.0627 0.1085 0.8799
H42_7 H 0.1043 0.1363 0.9047
C56_7 C 0.1399(3) 0.1838(3) 0.8313(3)
H43_7 H 0.1625 0.1606 0.8211
H44_7 H 0.1526 0.1978 0.8582
H45_7 H 0.1361 0.2066 0.8081
C57_7 C 0.0729(3) 0.1387(3) 0.7968(3)
H46_7 H 0.0978 0.1174 0.7873
H47_7 H 0.0685 0.1617 0.7739
H48_7 H 0.0422 0.1228 0.8015
C59_7 C 0.02353(18) 0.2621(2) 0.96597(13)
C64_7 C 0.05944(18) 0.2947(2) 0.97568(15)
H56_7 H 0.1564 0.3325 0.9958
C68_7 C 0.0843(7) 0.3953(7) 0.9938(9)
H59_7 H 0.0892 0.3848 0.9633
H60_7 H 0.1063 0.4203 0.9999
H61_7 H 0.0507 0.4054 0.9973
H75_7 H 0.367137 0.32977 0.691515
H76_7 H 0.348353 0.279507 0.675681
C61_7 C 0.9905(2) 0.2703(3) 0.04114(15)
H64_7 H 0.9606 0.1850 0.0095
C70_7 C 0.95553(15) 0.2585(3) 0.07778(13)
C71_7 C 0.97251(12) 0.2472(3) 0.12071(15)
C72_7 C 0.93897(16) 0.2389(3) 0.15539(13)
H66_7 H 0.9503 0.2313 0.1841
C73_7 C 0.88845(15) 0.2419(3) 0.14713(13)
C74_7 C 0.87147(12) 0.2532(3) 0.10420(15)
H67_7 H 0.8377 0.2552 0.0987
C75_7 C 0.90501(16) 0.2615(3) 0.06952(13)
H68_7 H 0.8936 0.2691 0.0408
C76_7 C 0.8508(3) 0.2316(3) 0.1819(2)
C41_7 C 0.7909(3) 0.2689(2) 0.7470(3)
C42_7 C 0.83783(11) 0.25511(17) 0.77205(13)
C43_7 C 0.83421(11) 0.23318(19) 0.81364(14)
H35_7 H 0.8035 0.2240 0.8245
C44_7 C 0.87655(15) 0.22497(19) 0.83907(12)
H36_7 H 0.8741 0.2103 0.8669
C45_7 C 0.92251(12) 0.23869(19) 0.82290(13)
C46_7 C 0.92613(11) 0.26061(17) 0.78130(13)
H37_7 H 0.9569 0.2698 0.7705
C47_7 C 0.88379(13) 0.26882(16) 0.75588(11)
H38_7 H 0.8862 0.2835 0.7281
C49_7 C 0.96871(12) 0.23057(19) 0.85176(14)
C50_7 C 0.97498(13) 0.25203(18) 0.89333(14)
C58_7 C 0.9357(3) 0.2875(4) 0.9085(3)
H49_7 H 0.9082 0.2867 0.8879
H50_7 H 0.9501 0.3175 0.9085
H51_7 H 0.9244 0.2800 0.9384
C60_7 C 0.98906(19) 0.2499(2) 0.99870(16)
C69_7 C 0.9531(3) 0.2100(3) 0.9895(3)
H62_7 H 0.9567 0.2001 0.9587
H63_7 H 0.9198 0.2201 0.9946
C41_8 C 0.2091(3) 0.7311(2) 0.2470(3)
C42_8 C 0.16217(11) 0.74489(17) 0.27205(13)
C43_8 C 0.16579(11) 0.76682(19) 0.31364(14)
H35_8 H 0.1965 0.7760 0.3245
C44_8 C 0.12345(15) 0.77503(19) 0.33907(12)
H36_8 H 0.1259 0.7897 0.3669
C45_8 C 0.07749(12) 0.76131(19) 0.32290(13)
C46_8 C 0.07387(11) 0.73939(17) 0.28130(13)
H37_8 H 0.0431 0.7302 0.2705
C47_8 C 0.11621(13) 0.73118(16) 0.25588(11)
H38_8 H 0.1138 0.7165 0.2281
C49_8 C 0.03129(12) 0.76943(19) 0.35176(14)
C50_8 C 0.02502(13) 0.74797(18) 0.39333(14)
C58_8 C 0.0643(3) 0.7125(4) 0.4085(3)
H49_8 H 0.0918 0.7133 0.3879
H50_8 H 0.0499 0.6825 0.4085
H51_8 H 0.0756 0.7200 0.4384
C60_8 C 0.01094(19) 0.7501(2) 0.49870(16)
C61_8 C 0.0095(2) 0.7297(3) 0.54114(15)
C69_8 C 0.0469(3) 0.7900(3) 0.4895(3)
H62_8 H 0.0433 0.7999 0.4587
H63_8 H 0.0802 0.7799 0.4946
H64_8 H 0.0394 0.8150 0.5095
C70_8 C 0.04447(15) 0.7415(3) 0.57778(13)
C71_8 C 0.02749(12) 0.7528(3) 0.62071(15)
C72_8 C 0.06103(16) 0.7611(3) 0.65539(13)
H66_8 H 0.0497 0.7687 0.6841
C73_8 C 0.11155(15) 0.7581(3) 0.64713(13)
C74_8 C 0.12853(12) 0.7468(3) 0.60420(15)
H67_8 H 0.1623 0.7448 0.5987
C75_8 C 0.09499(16) 0.7385(3) 0.56952(13)
H68_8 H 0.1064 0.7309 0.5408
C76_8 C 0.1492(3) 0.7684(3) 0.6819(2)
P1_8 P 0.72694(7) 0.61274(6) 0.30812(6)
P2_8 P 0.86646(6) 0.73803(7) 0.43176(6)
O7_8 O 0.77535(18) 0.58206(17) 0.29863(18)
O8_8 O 0.68279(19) 0.57592(16) 0.31547(15)
O9_8 O 0.7115(2) 0.63749(18) 0.26542(16)
O10_8 O 0.73879(19) 0.63859(14) 0.34953(14)
O15_8 O 0.90020(15) 0.78291(17) 0.42312(14)
O16_8 O 0.90456(19) 0.69825(18) 0.44358(17)
O17_8 O 0.8375(2) 0.7506(2) 0.47264(17)
O18_8 O 0.84142(13) 0.72105(17) 0.39107(14)
O21_8 O 0.6622(2) 0.6904(3) 0.18802(18)
C5_8 C 0.7486(3) 0.3223(3) 0.0878(3)
C6_8 C 0.7549(2) 0.36072(11) 0.12032(12)
C7_8 C 0.7684(2) 0.35113(10) 0.16468(14)
H1_8 H 0.7753 0.3212 0.1733
C8_8 C 0.7715(2) 0.38634(14) 0.19620(11)
H2_8 H 0.7805 0.3799 0.2259
C9_8 C 0.7611(2) 0.43113(12) 0.18335(14)
C10_8 C 0.7477(3) 0.44072(10) 0.13898(15)
H3_8 H 0.7408 0.4707 0.1304
C11_8 C 0.7446(3) 0.40551(14) 0.10747(12)
H4_8 H 0.7356 0.4119 0.0778
C12_8 C 0.8348(3) 0.5836(3) 0.2154(3)
C13_8 C 0.7655(2) 0.46886(14) 0.21575(15)
C14_8 C 0.74015(19) 0.46999(13) 0.25664(15)
C15_8 C 0.74477(19) 0.50769(15) 0.28503(13)
C16_8 C 0.7747(2) 0.54427(13) 0.27254(15)
C17_8 C 0.8001(2) 0.54314(14) 0.23165(17)
C18_8 C 0.7954(2) 0.50544(17) 0.20326(14)
H5_8 H 0.8124 0.5047 0.1759
C19_8 C 0.8685(5) 0.5679(4) 0.1756(5)
H6_8 H 0.8891 0.5930 0.1662
H7_8 H 0.8483 0.5581 0.1507
H8_8 H 0.8890 0.5429 0.1854
C20_8 C 0.8047(5) 0.6248(3) 0.1984(4)
H9_8 H 0.8268 0.6486 0.1888
H10_8 H 0.7840 0.6360 0.2224
H11_8 H 0.7844 0.6155 0.1734
C21_8 C 0.8662(4) 0.6013(4) 0.2519(4)
H12_8 H 0.8864 0.6258 0.2405
H13_8 H 0.8871 0.5771 0.2630
H14_8 H 0.8458 0.6125 0.2760
C22_8 C 0.6999(4) 0.4319(3) 0.2671(3)
H15_8 H 0.6857 0.4373 0.2963
H16_8 H 0.7152 0.4022 0.2666
H17_8 H 0.6743 0.4331 0.2445
C23_8 C 0.72393(16) 0.50720(14) 0.33370(12)
C24_8 C 0.73208(17) 0.47028(14) 0.36245(14)
C25_8 C 0.70488(19) 0.46613(13) 0.40212(13)
C26_8 C 0.66952(18) 0.49889(14) 0.41306(13)
H18_8 H 0.6513 0.4961 0.4396
C27_8 C 0.66137(16) 0.53580(13) 0.38431(14)
C28_8 C 0.68858(16) 0.53996(12) 0.34464(13)
C29_8 C 0.6174(3) 0.5699(2) 0.3948(3)
C30_8 C 0.5803(4) 0.5659(4) 0.3568(5)
H19_8 H 0.5532 0.5864 0.3623
H20_8 H 0.5682 0.5350 0.3552
H21_8 H 0.5959 0.5738 0.3287
C31_8 C 0.5907(4) 0.5591(3) 0.4395(4)
H22_8 H 0.5645 0.5809 0.4441
H23_8 H 0.6138 0.5610 0.4641
H24_8 H 0.5770 0.5288 0.4382
C32_8 C 0.6321(4) 0.6209(3) 0.3957(3)
H25_8 H 0.6035 0.6392 0.4023
H26_8 H 0.6453 0.6295 0.3668
H27_8 H 0.6567 0.6257 0.4186
C33_8 C 0.7760(3) 0.4369(3) 0.3542(3)
H28_8 H 0.7911 0.4437 0.3256
H29_8 H 0.7640 0.4060 0.3540
H30_8 H 0.7999 0.4404 0.3779
C34_8 C 0.7095(2) 0.42511(12) 0.43302(12)
C35_8 C 0.7203(2) 0.43139(11) 0.47857(13)
H31_8 H 0.7242 0.4608 0.4901
C36_8 C 0.7251(2) 0.39368(14) 0.50693(10)
H32_8 H 0.7323 0.3979 0.5374
C37_8 C 0.7192(2) 0.34970(11) 0.48975(13)
C38_8 C 0.7085(2) 0.34342(11) 0.44420(14)
H33_8 H 0.7045 0.3140 0.4327
C39_8 C 0.7036(2) 0.38113(14) 0.41584(11)
H34_8 H 0.6964 0.3769 0.3854
C40_8 C 0.7297(2) 0.3082(2) 0.5203(2)
C48_8 C 0.9109(2) 0.8382(2) 0.3414(2)
C51_8 C 0.98137(14) 0.75403(17) 0.41745(11)
C52_8 C 0.94399(11) 0.78155(16) 0.40000(12)
C53_8 C 0.95025(12) 0.80300(15) 0.35843(13)
C54_8 C 0.99390(14) 0.79694(17) 0.33431(12)
H39_8 H 0.9981 0.8113 0.3065
C55_8 C 0.9059(3) 0.8765(3) 0.3763(3)
H40_8 H 0.8817 0.8982 0.3662
H41_8 H 0.9373 0.8915 0.3799
H42_8 H 0.8957 0.8637 0.4047
C56_8 C 0.8601(3) 0.8162(3) 0.3313(3)
H43_8 H 0.8375 0.8394 0.3211
H44_8 H 0.8474 0.8022 0.3582
H45_8 H 0.8639 0.7934 0.3081
C57_8 C 0.9271(3) 0.8613(3) 0.2968(3)
H46_8 H 0.9022 0.8826 0.2873
H47_8 H 0.9315 0.8383 0.2739
H48_8 H 0.9578 0.8772 0.3015
C59_8 C 0.97647(18) 0.7379(2) 0.46597(13)
C62_8 C 0.9736(2) 0.6971(3) 0.55085(16)
H52_8 H 0.9726 0.6834 0.5792
C63_8 C 0.9391(2) 0.6848(2) 0.51811(19)
C64_8 C 0.94056(18) 0.7053(2) 0.47568(15)
C65_8 C 0.9053(5) 0.6439(6) 0.5268(5)
C66_8 C 0.9163(5) 0.6173(5) 0.5712(4)
H53_8 H 0.9111 0.6371 0.5967
H54_8 H 0.9500 0.6069 0.5710
H55_8 H 0.8945 0.5914 0.5734
C67_8 C 0.8509(4) 0.6512(6) 0.5232(7)
H56_8 H 0.8436 0.6675 0.4958
H57_8 H 0.8397 0.6687 0.5487
H58_8 H 0.8344 0.6221 0.5228
C68_8 C 0.9157(7) 0.6047(7) 0.4938(9)
H59_8 H 0.9108 0.6152 0.4633
H60_8 H 0.8937 0.5797 0.4999
H61_8 H 0.9493 0.5946 0.4973
H65_8 H 0.9937 0.7549 0.6262
O22_8 O 0.7864(3) 0.8110(3) 0.54471(17)
O23_8 O 0.8010(4) 0.8354(3) 0.6116(2)
C77_8 C 0.7773(8) 0.8107(7) 0.5854(5)
C78_8 C 0.7552(12) 0.7661(9) 0.6032(10)
H69_8 H 0.7386 0.7504 0.5790
H70_8 H 0.7319 0.7728 0.6268
H71_8 H 0.7811 0.7471 0.6149
H75_8 H 0.632863 0.67023 0.191515
H76_8 H 0.651647 0.720493 0.175681
loop_
_geom_bond_atom_site_label_1
_geom_bond_atom_site_label_2
_geom_bond_site_symmetry_1
_geom_bond_site_symmetry_2
O1 C1 1_555 1_555
O2 C1 1_555 1_555
C1 C2 1_555 1_555
C2 H77 1_555 1_555
C2 H78 1_555 1_555
C2 H79 1_555 1_555
O1_2 C1_2 1_555 1_555
O2_2 C1_2 1_555 1_555
C1_2 C2_2 1_555 1_555
C2_2 H77_2 1_555 1_555
C2_2 H78_2 1_555 1_555
C2_2 H79_2 1_555 1_555
O1_3 C1_3 1_555 1_555
O2_3 C1_3 1_555 1_555
C1_3 C2_3 1_555 1_555
C2_3 H77_3 1_555 1_555
C2_3 H78_3 1_555 1_555
C2_3 H79_3 1_555 1_555
O1_4 C1_4 1_555 1_555
O2_4 C1_4 1_555 1_555
C1_4 C2_4 1_555 1_555
C2_4 H77_4 1_555 1_555
C2_4 H78_4 1_555 1_555
C2_4 H79_4 1_555 1_555
O1_5 C1_5 1_555 1_555
O2_5 C1_5 1_555 1_555
C1_5 C2_5 1_555 1_555
C2_5 H77_5 1_555 1_555
C2_5 H78_5 1_555 1_555
C2_5 H79_5 1_555 1_555
O1_6 C1_6 1_555 1_555
O2_6 C1_6 1_555 1_555
C1_6 C2_6 1_555 1_555
C2_6 H77_6 1_555 1_555
C2_6 H78_6 1_555 1_555
C2_6 H79_6 1_555 1_555
O1_7 C1_7 1_555 1_555
O2_7 C1_7 1_555 1_555
C1_7 C2_7 1_555 1_555
C2_7 H77_7 1_555 1_555
C2_7 H78_7 1_555 1_555
C2_7 H79_7 1_555 1_555
O1_8 C1_8 1_555 1_555
O2_8 C1_8 1_555 1_555
C1_8 C2_8 1_555 1_555
C2_8 H77_8 1_555 1_555
C2_8 H78_8 1_555 1_555
C2_8 H79_8 1_555 1_555
O3 C3 1_555 1_555
O4 C3 1_555 1_555
C3 C4 1_555 1_555
C4 H72 1_555 1_555
C4 H73 1_555 1_555
C4 H74 1_555 1_555
O3_2 C3_2 1_555 1_555
O4_2 C3_2 1_555 1_555
C3_2 C4_2 1_555 1_555
C4_2 H72_2 1_555 1_555
C4_2 H73_2 1_555 1_555
C4_2 H74_2 1_555 1_555
O3_3 C3_3 1_555 1_555
O4_3 C3_3 1_555 1_555
C3_3 C4_3 1_555 1_555
C4_3 H72_3 1_555 1_555
C4_3 H73_3 1_555 1_555
C4_3 H74_3 1_555 1_555
O3_4 C3_4 1_555 1_555
O4_4 C3_4 1_555 1_555
C3_4 C4_4 1_555 1_555
C4_4 H72_4 1_555 1_555
C4_4 H73_4 1_555 1_555
C4_4 H74_4 1_555 1_555
O3_5 C3_5 1_555 1_555
O4_5 C3_5 1_555 1_555
C3_5 C4_5 1_555 1_555
C4_5 H72_5 1_555 1_555
O3_6 C3_6 1_555 1_555
O4_6 C3_6 1_555 1_555
C3_6 C4_6 1_555 1_555
C4_6 H72_6 1_555 1_555
O3_7 C3_7 1_555 1_555
O4_7 C3_7 1_555 1_555
C3_7 C4_7 1_555 1_555
C4_7 H72_7 1_555 1_555
O3_8 C3_8 1_555 1_555
O4_8 C3_8 1_555 1_555
C3_8 C4_8 1_555 1_555
C4_8 H72_8 1_555 1_555
Zr1 O9 1_555 1_555
Zr2 O10 1_555 1_555
Zr3 O17 1_555 1_555
P1 O7 1_555 1_555
P2 O15 1_555 1_555
O7 C16 1_555 1_555
O8 P1 1_555 1_555
O9 P1 1_555 1_555
O10 P1 1_555 1_555
O13 C41 1_555 1_555
O14 C41 1_555 1_555
O15 C52 1_555 1_555
O16 P2 1_555 1_555
O17 P2 1_555 1_555
O18 Zr2 1_555 1_555
O21 Zr1 1_555 1_555
C12 C17 1_555 1_555
C16 C15 1_555 1_555
C17 C16 1_555 1_555
H5 C18 1_555 1_555
C19 C12 1_555 1_555
H6 C19 1_555 1_555
H7 C19 1_555 1_555
H8 C19 1_555 1_555
C20 C12 1_555 1_555
H9 C20 1_555 1_555
H10 C20 1_555 1_555
H11 C20 1_555 1_555
C21 C12 1_555 1_555
H12 C21 1_555 1_555
H13 C21 1_555 1_555
H14 C21 1_555 1_555
C23 C15 1_555 1_555
C28 O8 1_555 1_555
C29 C27 1_555 1_555
C30 C29 1_555 1_555
H19 C30 1_555 1_555
H20 C30 1_555 1_555
H21 C30 1_555 1_555
C31 C29 1_555 1_555
H22 C31 1_555 1_555
H23 C31 1_555 1_555
H24 C31 1_555 1_555
C32 C29 1_555 1_555
H25 C32 1_555 1_555
H26 C32 1_555 1_555
H27 C32 1_555 1_555
C41 C42 1_555 1_555
C42 C43 1_555 1_555
C43 H35 1_555 1_555
C44 C43 1_555 1_555
H36 C44 1_555 1_555
C45 C44 1_555 1_555
C46 C45 1_555 1_555
H37 C46 1_555 1_555
C47 C42 1_555 1_555
H38 C47 1_555 1_555
C48 C53 1_555 1_555
C49 C45 1_555 1_555
C50 C49 1_555 1_555
C51 C50 1_555 1_555
C52 C51 1_555 1_555
C53 C52 1_555 1_555
C54 C49 1_555 1_555
H39 C54 1_555 1_555
C55 C48 1_555 1_555
H40 C55 1_555 1_555
H41 C55 1_555 1_555
H42 C55 1_555 1_555
C56 C48 1_555 1_555
H43 C56 1_555 1_555
H44 C56 1_555 1_555
H45 C56 1_555 1_555
C57 C48 1_555 1_555
H46 C57 1_555 1_555
H47 C57 1_555 1_555
H48 C57 1_555 1_555
C58 C50 1_555 1_555
H49 C58 1_555 1_555
H50 C58 1_555 1_555
H51 C58 1_555 1_555
C59 C51 1_555 1_555
C60 C59 1_555 1_555
C64 O16 1_555 1_555
H59 C68 1_555 1_555
H60 C68 1_555 1_555
H61 C68 1_555 1_555
C69 C60 1_555 1_555
H62 C69 1_555 1_555
H63 C69 1_555 1_555
Zr4 O13 1_555 1_555
Zr7 O14 1_555 1_555
O24 Zr3 1_555 1_555
O25 Zr2 1_555 1_555
O27 Zr2 1_555 1_555
O28 Zr1 1_555 1_555
O29 Zr2 1_555 1_555
O30 Zr1 1_555 1_555
O31 Zr1 1_555 1_555
Zr2 O31 1_555 1_555
P2 O18 1_555 1_555
C17 C18 1_555 1_555
C23 C28 1_555 1_555
C27 C28 1_555 1_555
C46 C47 1_555 1_555
C53 C54 1_555 1_555
C59 C64 1_555 1_555
O21 H75 1_555 1_555
O21 H76 1_555 1_555
O19 C76 1_555 1_555
O20 C76 1_555 1_555
C62 C61 1_555 1_555
H52 C62 1_555 1_555
C63 C62 1_555 1_555
C65 C63 1_555 1_555
C66 C65 1_555 1_555
H53 C66 1_555 1_555
H54 C66 1_555 1_555
H55 C66 1_555 1_555
C67 C65 1_555 1_555
H57 C67 1_555 1_555
H58 C67 1_555 1_555
C70 C61 1_555 1_555
C71 C70 1_555 1_555
H65 C71 1_555 1_555
C72 C71 1_555 1_555
H66 C72 1_555 1_555
C73 C72 1_555 1_555
C74 C73 1_555 1_555
H67 C74 1_555 1_555
C75 C70 1_555 1_555
H68 C75 1_555 1_555
C76 C73 1_555 1_555
O23 C77 1_555 1_555
C77 O22 1_555 1_555
C78 C77 1_555 1_555
H69 C78 1_555 1_555
H70 C78 1_555 1_555
H71 C78 1_555 1_555
Zr5 O19 1_555 1_555
Zr8 O20 1_555 1_555
O20 Zr5 1_555 1_555
C74 C75 1_555 1_555
O5 C5 1_555 1_555
O6 C5 1_555 1_555
C5 C6 1_555 1_555
C6 C7 1_555 1_555
C7 H1 1_555 1_555
C8 C7 1_555 1_555
H2 C8 1_555 1_555
C9 C8 1_555 1_555
C10 C9 1_555 1_555
H3 C10 1_555 1_555
C11 C6 1_555 1_555
H4 C11 1_555 1_555
C13 C9 1_555 1_555
C14 C13 1_555 1_555
C22 C14 1_555 1_555
H15 C22 1_555 1_555
H16 C22 1_555 1_555
H17 C22 1_555 1_555
C25 C24 1_555 1_555
C26 C25 1_555 1_555
H18 C26 1_555 1_555
C33 C24 1_555 1_555
H28 C33 1_555 1_555
H29 C33 1_555 1_555
H30 C33 1_555 1_555
C34 C25 1_555 1_555
C35 C34 1_555 1_555
H31 C35 1_555 1_555
C38 C37 1_555 1_555
H33 C38 1_555 1_555
C39 C34 1_555 1_555
H34 C39 1_555 1_555
Zr9 O6 1_555 1_555
Zr11 O5 1_555 1_555
C10 C11 1_555 1_555
C38 C39 1_555 1_555
O12 C40 1_555 1_555
H32 C36 1_555 1_555
Zr6 O12 1_555 1_555
O5_2 C5_2 1_555 1_555
O6_2 C5_2 1_555 1_555
O11_2 C40_2 1_555 1_555
O12_2 C40_2 1_555 1_555
C5_2 C6_2 1_555 1_555
C6_2 C7_2 1_555 1_555
C7_2 H1_2 1_555 1_555
C8_2 C7_2 1_555 1_555
H2_2 C8_2 1_555 1_555
C9_2 C8_2 1_555 1_555
C10_2 C9_2 1_555 1_555
H3_2 C10_2 1_555 1_555
C11_2 C6_2 1_555 1_555
H4_2 C11_2 1_555 1_555
C13_2 C9_2 1_555 1_555
C14_2 C13_2 1_555 1_555
C22_2 C14_2 1_555 1_555
H15_2 C22_2 1_555 1_555
H16_2 C22_2 1_555 1_555
H17_2 C22_2 1_555 1_555
C25_2 C24_2 1_555 1_555
C26_2 C25_2 1_555 1_555
H18_2 C26_2 1_555 1_555
C33_2 C24_2 1_555 1_555
H28_2 C33_2 1_555 1_555
H29_2 C33_2 1_555 1_555
H30_2 C33_2 1_555 1_555
C34_2 C25_2 1_555 1_555
C35_2 C34_2 1_555 1_555
H31_2 C35_2 1_555 1_555
C36_2 C35_2 1_555 1_555
H32_2 C36_2 1_555 1_555
C37_2 C36_2 1_555 1_555
C38_2 C37_2 1_555 1_555
H33_2 C38_2 1_555 1_555
C39_2 C34_2 1_555 1_555
H34_2 C39_2 1_555 1_555
C40_2 C37_2 1_555 1_555
Zr7 O12_2 1_555 1_555
Zr8 O6_2 1_555 1_555
Zr10_2 O11_2 1_555 1_555
Zr11_2 O5_2 1_555 1_555
C10_2 C11_2 1_555 1_555
C38_2 C39_2 1_555 1_555
Zr1_2 O9_2 1_555 1_555
Zr2_2 O10_2 1_555 1_555
Zr3_2 O17_2 1_555 1_555
P1_2 O7_2 1_555 1_555
P2_2 O15_2 1_555 1_555
O7_2 C16_2 1_555 1_555
O8_2 P1_2 1_555 1_555
O9_2 P1_2 1_555 1_555
O10_2 P1_2 1_555 1_555
O13_2 C41_2 1_555 1_555
O14_2 C41_2 1_555 1_555
O15_2 C52_2 1_555 1_555
O16_2 P2_2 1_555 1_555
O17_2 P2_2 1_555 1_555
O18_2 Zr2_2 1_555 1_555
O19_2 C76_2 1_555 1_555
O20_2 C76_2 1_555 1_555
O21_2 Zr1_2 1_555 1_555
C12_2 C17_2 1_555 1_555
C16_2 C15_2 1_555 1_555
C17_2 C16_2 1_555 1_555
H5_2 C18_2 1_555 1_555
C19_2 C12_2 1_555 1_555
H6_2 C19_2 1_555 1_555
H7_2 C19_2 1_555 1_555
H8_2 C19_2 1_555 1_555
C20_2 C12_2 1_555 1_555
H9_2 C20_2 1_555 1_555
H10_2 C20_2 1_555 1_555
H11_2 C20_2 1_555 1_555
C21_2 C12_2 1_555 1_555
H12_2 C21_2 1_555 1_555
H13_2 C21_2 1_555 1_555
H14_2 C21_2 1_555 1_555
C23_2 C15_2 1_555 1_555
C28_2 O8_2 1_555 1_555
C29_2 C27_2 1_555 1_555
C30_2 C29_2 1_555 1_555
H19_2 C30_2 1_555 1_555
H20_2 C30_2 1_555 1_555
H21_2 C30_2 1_555 1_555
C31_2 C29_2 1_555 1_555
H22_2 C31_2 1_555 1_555
H23_2 C31_2 1_555 1_555
H24_2 C31_2 1_555 1_555
C32_2 C29_2 1_555 1_555
H25_2 C32_2 1_555 1_555
H26_2 C32_2 1_555 1_555
H27_2 C32_2 1_555 1_555
C41_2 C42_2 1_555 1_555
C42_2 C43_2 1_555 1_555
C43_2 H35_2 1_555 1_555
C44_2 C43_2 1_555 1_555
H36_2 C44_2 1_555 1_555
C45_2 C44_2 1_555 1_555
C46_2 C45_2 1_555 1_555
H37_2 C46_2 1_555 1_555
C47_2 C42_2 1_555 1_555
H38_2 C47_2 1_555 1_555
C48_2 C53_2 1_555 1_555
C49_2 C45_2 1_555 1_555
C50_2 C49_2 1_555 1_555
C51_2 C50_2 1_555 1_555
C52_2 C51_2 1_555 1_555
C53_2 C52_2 1_555 1_555
C54_2 C49_2 1_555 1_555
H39_2 C54_2 1_555 1_555
C55_2 C48_2 1_555 1_555
H40_2 C55_2 1_555 1_555
H41_2 C55_2 1_555 1_555
H42_2 C55_2 1_555 1_555
C56_2 C48_2 1_555 1_555
H43_2 C56_2 1_555 1_555
H44_2 C56_2 1_555 1_555
H45_2 C56_2 1_555 1_555
C57_2 C48_2 1_555 1_555
H46_2 C57_2 1_555 1_555
H47_2 C57_2 1_555 1_555
H48_2 C57_2 1_555 1_555
C58_2 C50_2 1_555 1_555
H49_2 C58_2 1_555 1_555
H50_2 C58_2 1_555 1_555
H51_2 C58_2 1_555 1_555
C59_2 C51_2 1_555 1_555
C60_2 C59_2 1_555 1_555
C61_2 C60_2 1_555 1_555
C62_2 C61_2 1_555 1_555
H52_2 C62_2 1_555 1_555
C63_2 C62_2 1_555 1_555
C64_2 O16_2 1_555 1_555
C65_2 C63_2 1_555 1_555
C66_2 C65_2 1_555 1_555
H53_2 C66_2 1_555 1_555
H54_2 C66_2 1_555 1_555
H55_2 C66_2 1_555 1_555
C67_2 C65_2 1_555 1_555
H56_2 C67_2 1_555 1_555
H57_2 C67_2 1_555 1_555
H58_2 C67_2 1_555 1_555
C68_2 C65_2 1_555 1_555
H59_2 C68_2 1_555 1_555
H60_2 C68_2 1_555 1_555
H61_2 C68_2 1_555 1_555
C69_2 C60_2 1_555 1_555
H62_2 C69_2 1_555 1_555
H63_2 C69_2 1_555 1_555
H64_2 C69_2 1_555 1_555
C70_2 C61_2 1_555 1_555
C71_2 C70_2 1_555 1_555
H65_2 C71_2 1_555 1_555
C72_2 C71_2 1_555 1_555
H66_2 C72_2 1_555 1_555
C73_2 C72_2 1_555 1_555
C74_2 C73_2 1_555 1_555
H67_2 C74_2 1_555 1_555
C75_2 C70_2 1_555 1_555
H68_2 C75_2 1_555 1_555
C76_2 C73_2 1_555 1_555
O22_2 Zr3_2 1_555 1_555
O23_2 C77_2 1_555 1_555
C77_2 O22_2 1_555 1_555
C78_2 C77_2 1_555 1_555
H69_2 C78_2 1_555 1_555
H70_2 C78_2 1_555 1_555
H71_2 C78_2 1_555 1_555
Zr4_2 O13_2 1_555 1_555
Zr5_2 O19_2 1_555 1_555
Zr6 O14_2 1_555 1_555
Zr9 O20_2 1_555 1_555
O24_2 Zr3_2 1_555 1_555
O25_2 Zr2_2 1_555 1_555
O26_2 Zr3_2 1_555 1_555
O27_2 Zr2_2 1_555 1_555
O28_2 Zr1_2 1_555 1_555
O29_2 Zr2_2 1_555 1_555
O30_2 Zr1_2 1_555 1_555
O31_2 Zr1_2 1_555 1_555
Zr2_2 O31_2 1_555 1_555
P2_2 O18_2 1_555 1_555
O20_2 Zr5_2 1_555 1_555
C17_2 C18_2 1_555 1_555
C23_2 C28_2 1_555 1_555
C27_2 C28_2 1_555 1_555
C46_2 C47_2 1_555 1_555
C53_2 C54_2 1_555 1_555
C59_2 C64_2 1_555 1_555
C63_2 C64_2 1_555 1_555
C74_2 C75_2 1_555 1_555
O21_2 H75_2 1_555 1_555
O21_2 H76_2 1_555 1_555
O27 C40_3 1_555 1_555
H32_3 C36_3 1_555 1_555
O5_3 C5_3 1_555 1_555
O6_3 C5_3 1_555 1_555
C5_3 C6_3 1_555 1_555
C6_3 C7_3 1_555 1_555
C7_3 H1_3 1_555 1_555
C8_3 C7_3 1_555 1_555
H2_3 C8_3 1_555 1_555
C9_3 C8_3 1_555 1_555
C10_3 C9_3 1_555 1_555
H3_3 C10_3 1_555 1_555
C11_3 C6_3 1_555 1_555
H4_3 C11_3 1_555 1_555
C13_3 C9_3 1_555 1_555
C14_3 C13_3 1_555 1_555
C22_3 C14_3 1_555 1_555
H15_3 C22_3 1_555 1_555
H16_3 C22_3 1_555 1_555
H17_3 C22_3 1_555 1_555
C25_3 C24_3 1_555 1_555
C26_3 C25_3 1_555 1_555
H18_3 C26_3 1_555 1_555
C33_3 C24_3 1_555 1_555
H28_3 C33_3 1_555 1_555
H29_3 C33_3 1_555 1_555
H30_3 C33_3 1_555 1_555
C34_3 C25_3 1_555 1_555
C35_3 C34_3 1_555 1_555
H31_3 C35_3 1_555 1_555
C38_3 C37_3 1_555 1_555
H33_3 C38_3 1_555 1_555
C39_3 C34_3 1_555 1_555
H34_3 C39_3 1_555 1_555
Zr9_2 O6_3 1_555 1_555
Zr11_3 O5_3 1_555 1_555
C10_3 C11_3 1_555 1_555
C38_3 C39_3 1_555 1_555
O19_3 C76_3 1_555 1_555
O20_3 C76_3 1_555 1_555
C62_3 C61_3 1_555 1_555
H52_3 C62_3 1_555 1_555
C63_3 C62_3 1_555 1_555
C65_3 C63_3 1_555 1_555
C66_3 C65_3 1_555 1_555
H53_3 C66_3 1_555 1_555
H54_3 C66_3 1_555 1_555
H55_3 C66_3 1_555 1_555
C67_3 C65_3 1_555 1_555
H57_3 C67_3 1_555 1_555
H58_3 C67_3 1_555 1_555
C70_3 C61_3 1_555 1_555
C71_3 C70_3 1_555 1_555
H65_3 C71_3 1_555 1_555
C72_3 C71_3 1_555 1_555
H66_3 C72_3 1_555 1_555
C73_3 C72_3 1_555 1_555
C74_3 C73_3 1_555 1_555
H67_3 C74_3 1_555 1_555
C75_3 C70_3 1_555 1_555
H68_3 C75_3 1_555 1_555
C76_3 C73_3 1_555 1_555
O23_3 C77_3 1_555 1_555
C77_3 O22_3 1_555 1_555
C78_3 C77_3 1_555 1_555
H69_3 C78_3 1_555 1_555
H70_3 C78_3 1_555 1_555
H71_3 C78_3 1_555 1_555
Zr5_3 O19_3 1_555 1_555
Zr8_2 O20_3 1_555 1_555
O20_3 Zr5_3 1_555 1_555
C74_3 C75_3 1_555 1_555
Zr4_2 O9_3 1_555 1_555
Zr6 O10_3 1_555 1_555
Zr10 O17_3 1_555 1_555
P1_3 O7_3 1_555 1_555
P2_3 O15_3 1_555 1_555
O7_3 C16_3 1_555 1_555
O8_3 P1_3 1_555 1_555
O9_3 P1_3 1_555 1_555
O10_3 P1_3 1_555 1_555
O28_2 C41_3 1_555 1_555
O29_2 C41_3 1_555 1_555
O15_3 C52_3 1_555 1_555
O16_3 P2_3 1_555 1_555
O17_3 P2_3 1_555 1_555
O18_3 Zr6 1_555 1_555
O21_3 Zr4_2 1_555 1_555
C12_3 C17_3 1_555 1_555
C16_3 C15_3 1_555 1_555
C17_3 C16_3 1_555 1_555
H5_3 C18_3 1_555 1_555
C19_3 C12_3 1_555 1_555
H6_3 C19_3 1_555 1_555
H7_3 C19_3 1_555 1_555
H8_3 C19_3 1_555 1_555
C20_3 C12_3 1_555 1_555
H9_3 C20_3 1_555 1_555
H10_3 C20_3 1_555 1_555
H11_3 C20_3 1_555 1_555
C21_3 C12_3 1_555 1_555
H12_3 C21_3 1_555 1_555
H13_3 C21_3 1_555 1_555
H14_3 C21_3 1_555 1_555
C23_3 C15_3 1_555 1_555
C28_3 O8_3 1_555 1_555
C29_3 C27_3 1_555 1_555
C30_3 C29_3 1_555 1_555
H19_3 C30_3 1_555 1_555
H20_3 C30_3 1_555 1_555
H21_3 C30_3 1_555 1_555
C31_3 C29_3 1_555 1_555
H22_3 C31_3 1_555 1_555
H23_3 C31_3 1_555 1_555
H24_3 C31_3 1_555 1_555
C32_3 C29_3 1_555 1_555
H25_3 C32_3 1_555 1_555
H26_3 C32_3 1_555 1_555
H27_3 C32_3 1_555 1_555
C41_3 C42_3 1_555 1_555
C42_3 C43_3 1_555 1_555
C43_3 H35_3 1_555 1_555
C44_3 C43_3 1_555 1_555
H36_3 C44_3 1_555 1_555
C45_3 C44_3 1_555 1_555
C46_3 C45_3 1_555 1_555
H37_3 C46_3 1_555 1_555
C47_3 C42_3 1_555 1_555
H38_3 C47_3 1_555 1_555
C48_3 C53_3 1_555 1_555
C49_3 C45_3 1_555 1_555
C50_3 C49_3 1_555 1_555
C51_3 C50_3 1_555 1_555
C52_3 C51_3 1_555 1_555
C53_3 C52_3 1_555 1_555
C54_3 C49_3 1_555 1_555
H39_3 C54_3 1_555 1_555
C55_3 C48_3 1_555 1_555
H40_3 C55_3 1_555 1_555
H41_3 C55_3 1_555 1_555
H42_3 C55_3 1_555 1_555
C56_3 C48_3 1_555 1_555
H43_3 C56_3 1_555 1_555
H44_3 C56_3 1_555 1_555
H45_3 C56_3 1_555 1_555
C57_3 C48_3 1_555 1_555
H46_3 C57_3 1_555 1_555
H47_3 C57_3 1_555 1_555
H48_3 C57_3 1_555 1_555
C58_3 C50_3 1_555 1_555
H49_3 C58_3 1_555 1_555
H50_3 C58_3 1_555 1_555
H51_3 C58_3 1_555 1_555
C59_3 C51_3 1_555 1_555
C60_3 C59_3 1_555 1_555
C64_3 O16_3 1_555 1_555
H59_3 C68_3 1_555 1_555
H60_3 C68_3 1_555 1_555
H61_3 C68_3 1_555 1_555
C69_3 C60_3 1_555 1_555
H62_3 C69_3 1_555 1_555
H63_3 C69_3 1_555 1_555
O24_3 Zr10 1_555 1_555
O25_3 Zr6 1_555 1_555
O30_3 Zr4_2 1_555 1_555
O31_3 Zr4_2 1_555 1_555
Zr6 O31_3 1_555 1_555
P2_3 O18_3 1_555 1_555
C17_3 C18_3 1_555 1_555
C23_3 C28_3 1_555 1_555
C27_3 C28_3 1_555 1_555
C46_3 C47_3 1_555 1_555
C53_3 C54_3 1_555 1_555
C59_3 C64_3 1_555 1_555
O21_3 H75_3 1_555 1_555
O21_3 H76_3 1_555 1_555
Zr4 O9_4 1_555 1_555
Zr7 O10_4 1_555 1_555
Zr10_2 O17_4 1_555 1_555
P1_4 O7_4 1_555 1_555
P2_4 O15_4 1_555 1_555
O7_4 C16_4 1_555 1_555
O8_4 P1_4 1_555 1_555
O9_4 P1_4 1_555 1_555
O10_4 P1_4 1_555 1_555
O28 C41_4 1_555 1_555
O29 C41_4 1_555 1_555
O15_4 C52_4 1_555 1_555
O16_4 P2_4 1_555 1_555
O17_4 P2_4 1_555 1_555
O18_4 Zr7 1_555 1_555
O19_4 C76_4 1_555 1_555
O20_4 C76_4 1_555 1_555
O21_4 Zr4 1_555 1_555
C12_4 C17_4 1_555 1_555
C16_4 C15_4 1_555 1_555
C17_4 C16_4 1_555 1_555
H5_4 C18_4 1_555 1_555
C19_4 C12_4 1_555 1_555
H6_4 C19_4 1_555 1_555
H7_4 C19_4 1_555 1_555
H8_4 C19_4 1_555 1_555
C20_4 C12_4 1_555 1_555
H9_4 C20_4 1_555 1_555
H10_4 C20_4 1_555 1_555
H11_4 C20_4 1_555 1_555
C21_4 C12_4 1_555 1_555
H12_4 C21_4 1_555 1_555
H13_4 C21_4 1_555 1_555
H14_4 C21_4 1_555 1_555
C23_4 C15_4 1_555 1_555
C28_4 O8_4 1_555 1_555
C29_4 C27_4 1_555 1_555
C30_4 C29_4 1_555 1_555
H19_4 C30_4 1_555 1_555
H20_4 C30_4 1_555 1_555
H21_4 C30_4 1_555 1_555
C31_4 C29_4 1_555 1_555
H22_4 C31_4 1_555 1_555
H23_4 C31_4 1_555 1_555
H24_4 C31_4 1_555 1_555
C32_4 C29_4 1_555 1_555
H25_4 C32_4 1_555 1_555
H26_4 C32_4 1_555 1_555
H27_4 C32_4 1_555 1_555
C41_4 C42_4 1_555 1_555
C42_4 C43_4 1_555 1_555
C43_4 H35_4 1_555 1_555
C44_4 C43_4 1_555 1_555
H36_4 C44_4 1_555 1_555
C45_4 C44_4 1_555 1_555
C46_4 C45_4 1_555 1_555
H37_4 C46_4 1_555 1_555
C47_4 C42_4 1_555 1_555
H38_4 C47_4 1_555 1_555
C48_4 C53_4 1_555 1_555
C49_4 C45_4 1_555 1_555
C50_4 C49_4 1_555 1_555
C51_4 C50_4 1_555 1_555
C52_4 C51_4 1_555 1_555
C53_4 C52_4 1_555 1_555
C54_4 C49_4 1_555 1_555
H39_4 C54_4 1_555 1_555
C55_4 C48_4 1_555 1_555
H40_4 C55_4 1_555 1_555
H41_4 C55_4 1_555 1_555
H42_4 C55_4 1_555 1_555
C56_4 C48_4 1_555 1_555
H43_4 C56_4 1_555 1_555
H44_4 C56_4 1_555 1_555
H45_4 C56_4 1_555 1_555
C57_4 C48_4 1_555 1_555
H46_4 C57_4 1_555 1_555
H47_4 C57_4 1_555 1_555
H48_4 C57_4 1_555 1_555
C58_4 C50_4 1_555 1_555
H49_4 C58_4 1_555 1_555
H50_4 C58_4 1_555 1_555
H51_4 C58_4 1_555 1_555
C59_4 C51_4 1_555 1_555
C60_4 C59_4 1_555 1_555
C61_4 C60_4 1_555 1_555
C62_4 C61_4 1_555 1_555
H52_4 C62_4 1_555 1_555
C63_4 C62_4 1_555 1_555
C64_4 O16_4 1_555 1_555
C65_4 C63_4 1_555 1_555
C66_4 C65_4 1_555 1_555
H53_4 C66_4 1_555 1_555
H54_4 C66_4 1_555 1_555
H55_4 C66_4 1_555 1_555
C67_4 C65_4 1_555 1_555
H56_4 C67_4 1_555 1_555
H57_4 C67_4 1_555 1_555
H58_4 C67_4 1_555 1_555
C68_4 C65_4 1_555 1_555
H59_4 C68_4 1_555 1_555
H60_4 C68_4 1_555 1_555
H61_4 C68_4 1_555 1_555
C69_4 C60_4 1_555 1_555
H62_4 C69_4 1_555 1_555
H63_4 C69_4 1_555 1_555
H64_4 C69_4 1_555 1_555
C70_4 C61_4 1_555 1_555
C71_4 C70_4 1_555 1_555
H65_4 C71_4 1_555 1_555
C72_4 C71_4 1_555 1_555
H66_4 C72_4 1_555 1_555
C73_4 C72_4 1_555 1_555
C74_4 C73_4 1_555 1_555
H67_4 C74_4 1_555 1_555
C75_4 C70_4 1_555 1_555
H68_4 C75_4 1_555 1_555
C76_4 C73_4 1_555 1_555
O22_4 Zr10_2 1_555 1_555
O23_4 C77_4 1_555 1_555
C77_4 O22_4 1_555 1_555
C78_4 C77_4 1_555 1_555
H69_4 C78_4 1_555 1_555
H70_4 C78_4 1_555 1_555
H71_4 C78_4 1_555 1_555
Zr5_4 O19_4 1_555 1_555
Zr9_2 O20_4 1_555 1_555
O24_4 Zr10_2 1_555 1_555
O25_4 Zr7 1_555 1_555
O30_4 Zr4 1_555 1_555
O31_4 Zr4 1_555 1_555
Zr7 O31_4 1_555 1_555
P2_4 O18_4 1_555 1_555
O20_4 Zr5_4 1_555 1_555
C17_4 C18_4 1_555 1_555
C23_4 C28_4 1_555 1_555
C27_4 C28_4 1_555 1_555
C46_4 C47_4 1_555 1_555
C53_4 C54_4 1_555 1_555
C59_4 C64_4 1_555 1_555
C63_4 C64_4 1_555 1_555
C74_4 C75_4 1_555 1_555
O21_4 H75_4 1_555 1_555
O21_4 H76_4 1_555 1_555
O5_4 C5_4 1_555 1_555
O6_4 C5_4 1_555 1_555
O26_2 C40_4 1_555 1_555
O27_2 C40_4 1_555 1_555
C5_4 C6_4 1_555 1_555
C6_4 C7_4 1_555 1_555
C7_4 H1_4 1_555 1_555
C8_4 C7_4 1_555 1_555
H2_4 C8_4 1_555 1_555
C9_4 C8_4 1_555 1_555
C10_4 C9_4 1_555 1_555
H3_4 C10_4 1_555 1_555
C11_4 C6_4 1_555 1_555
H4_4 C11_4 1_555 1_555
C13_4 C9_4 1_555 1_555
C14_4 C13_4 1_555 1_555
C22_4 C14_4 1_555 1_555
H15_4 C22_4 1_555 1_555
H16_4 C22_4 1_555 1_555
H17_4 C22_4 1_555 1_555
C25_4 C24_4 1_555 1_555
C26_4 C25_4 1_555 1_555
H18_4 C26_4 1_555 1_555
C33_4 C24_4 1_555 1_555
H28_4 C33_4 1_555 1_555
H29_4 C33_4 1_555 1_555
H30_4 C33_4 1_555 1_555
C34_4 C25_4 1_555 1_555
C35_4 C34_4 1_555 1_555
H31_4 C35_4 1_555 1_555
C36_4 C35_4 1_555 1_555
H32_4 C36_4 1_555 1_555
C37_4 C36_4 1_555 1_555
C38_4 C37_4 1_555 1_555
H33_4 C38_4 1_555 1_555
C39_4 C34_4 1_555 1_555
H34_4 C39_4 1_555 1_555
C40_4 C37_4 1_555 1_555
Zr8_2 O6_4 1_555 1_555
Zr11_4 O5_4 1_555 1_555
C10_4 C11_4 1_555 1_555
C38_4 C39_4 1_555 1_555
Zr5_3 O9_5 1_555 1_555
Zr8_2 O10_5 1_555 1_555
Zr11_4 O17_5 1_555 1_555
P1_5 O7_5 1_555 1_555
P2_5 O15_5 1_555 1_555
O24_4 C5_5 1_555 1_555
O25_4 C5_5 1_555 1_555
O7_5 C16_5 1_555 1_555
O8_5 P1_5 1_555 1_555
O9_5 P1_5 1_555 1_555
O10_5 P1_5 1_555 1_555
O15_5 C52_5 1_555 1_555
O16_5 P2_5 1_555 1_555
O17_5 P2_5 1_555 1_555
O18_5 Zr8_2 1_555 1_555
O21_5 Zr5_3 1_555 1_555
C5_5 C6_5 1_555 1_555
C6_5 C7_5 1_555 1_555
C7_5 H1_5 1_555 1_555
C8_5 C7_5 1_555 1_555
H2_5 C8_5 1_555 1_555
C9_5 C8_5 1_555 1_555
C10_5 C9_5 1_555 1_555
H3_5 C10_5 1_555 1_555
C11_5 C6_5 1_555 1_555
H4_5 C11_5 1_555 1_555
C12_5 C17_5 1_555 1_555
C13_5 C9_5 1_555 1_555
C14_5 C13_5 1_555 1_555
C15_5 C14_5 1_555 1_555
C16_5 C15_5 1_555 1_555
C17_5 C16_5 1_555 1_555
C18_5 C13_5 1_555 1_555
H5_5 C18_5 1_555 1_555
C19_5 C12_5 1_555 1_555
H6_5 C19_5 1_555 1_555
H7_5 C19_5 1_555 1_555
H8_5 C19_5 1_555 1_555
C20_5 C12_5 1_555 1_555
H9_5 C20_5 1_555 1_555
H10_5 C20_5 1_555 1_555
H11_5 C20_5 1_555 1_555
C21_5 C12_5 1_555 1_555
H12_5 C21_5 1_555 1_555
H13_5 C21_5 1_555 1_555
H14_5 C21_5 1_555 1_555
C22_5 C14_5 1_555 1_555
H15_5 C22_5 1_555 1_555
H16_5 C22_5 1_555 1_555
H17_5 C22_5 1_555 1_555
C23_5 C15_5 1_555 1_555
C24_5 C23_5 1_555 1_555
C25_5 C24_5 1_555 1_555
C26_5 C25_5 1_555 1_555
H18_5 C26_5 1_555 1_555
C27_5 C26_5 1_555 1_555
C28_5 O8_5 1_555 1_555
C29_5 C27_5 1_555 1_555
C30_5 C29_5 1_555 1_555
H19_5 C30_5 1_555 1_555
H20_5 C30_5 1_555 1_555
H21_5 C30_5 1_555 1_555
C31_5 C29_5 1_555 1_555
H22_5 C31_5 1_555 1_555
H23_5 C31_5 1_555 1_555
H24_5 C31_5 1_555 1_555
C32_5 C29_5 1_555 1_555
H25_5 C32_5 1_555 1_555
H26_5 C32_5 1_555 1_555
H27_5 C32_5 1_555 1_555
C33_5 C24_5 1_555 1_555
H28_5 C33_5 1_555 1_555
H29_5 C33_5 1_555 1_555
H30_5 C33_5 1_555 1_555
C34_5 C25_5 1_555 1_555
C35_5 C34_5 1_555 1_555
H31_5 C35_5 1_555 1_555
C38_5 C37_5 1_555 1_555
H33_5 C38_5 1_555 1_555
C39_5 C34_5 1_555 1_555
H34_5 C39_5 1_555 1_555
C48_5 C53_5 1_555 1_555
C52_5 C51_5 1_555 1_555
C53_5 C52_5 1_555 1_555
H39_5 C54_5 1_555 1_555
C55_5 C48_5 1_555 1_555
H40_5 C55_5 1_555 1_555
H41_5 C55_5 1_555 1_555
H42_5 C55_5 1_555 1_555
C56_5 C48_5 1_555 1_555
H43_5 C56_5 1_555 1_555
H44_5 C56_5 1_555 1_555
H45_5 C56_5 1_555 1_555
C57_5 C48_5 1_555 1_555
H46_5 C57_5 1_555 1_555
H47_5 C57_5 1_555 1_555
H48_5 C57_5 1_555 1_555
C59_5 C51_5 1_555 1_555
C64_5 O16_5 1_555 1_555
H59_5 C68_5 1_555 1_555
H60_5 C68_5 1_555 1_555
H61_5 C68_5 1_555 1_555
O27_3 Zr8_2 1_555 1_555
O28_3 Zr5_3 1_555 1_555
O29_3 Zr8_2 1_555 1_555
P2_5 O18_5 1_555 1_555
C10_5 C11_5 1_555 1_555
C17_5 C18_5 1_555 1_555
C23_5 C28_5 1_555 1_555
C27_5 C28_5 1_555 1_555
C38_5 C39_5 1_555 1_555
C53_5 C54_5 1_555 1_555
C59_5 C64_5 1_555 1_555
O21_5 H75_5 1_555 1_555
O21_5 H76_5 1_555 1_555
O12_3 C40_5 1_555 1_555
H32_5 C36_5 1_555 1_555
H52_5 C62_5 1_555 1_555
C63_5 C62_5 1_555 1_555
C65_5 C63_5 1_555 1_555
C66_5 C65_5 1_555 1_555
H53_5 C66_5 1_555 1_555
H54_5 C66_5 1_555 1_555
H55_5 C66_5 1_555 1_555
C67_5 C65_5 1_555 1_555
H57_5 C67_5 1_555 1_555
H58_5 C67_5 1_555 1_555
O23_5 C77_5 1_555 1_555
C77_5 O22_5 1_555 1_555
C78_5 C77_5 1_555 1_555
H69_5 C78_5 1_555 1_555
H70_5 C78_5 1_555 1_555
H71_5 C78_5 1_555 1_555
Zr8 O12_3 1_555 1_555
O13_3 C41_5 1_555 1_555
O14_3 C41_5 1_555 1_555
C41_5 C42_5 1_555 1_555
C42_5 C43_5 1_555 1_555
C43_5 H35_5 1_555 1_555
C44_5 C43_5 1_555 1_555
H36_5 C44_5 1_555 1_555
C45_5 C44_5 1_555 1_555
C46_5 C45_5 1_555 1_555
H37_5 C46_5 1_555 1_555
C47_5 C42_5 1_555 1_555
H38_5 C47_5 1_555 1_555
C49_5 C45_5 1_555 1_555
C50_5 C49_5 1_555 1_555
C58_5 C50_5 1_555 1_555
H49_5 C58_5 1_555 1_555
H50_5 C58_5 1_555 1_555
H51_5 C58_5 1_555 1_555
C69_5 C60_5 1_555 1_555
H62_5 C69_5 1_555 1_555
H63_5 C69_5 1_555 1_555
Zr5_2 O13_3 1_555 1_555
Zr9 O14_3 1_555 1_555
C46_5 C47_5 1_555 1_555
O30_3 C76_5 1_555 1_555
O31_3 C76_5 1_555 1_555
C70_5 C61_5 1_555 1_555
C71_5 C70_5 1_555 1_555
C72_5 C71_5 1_555 1_555
H66_5 C72_5 1_555 1_555
C73_5 C72_5 1_555 1_555
C74_5 C73_5 1_555 1_555
H67_5 C74_5 1_555 1_555
C75_5 C70_5 1_555 1_555
H68_5 C75_5 1_555 1_555
C76_5 C73_5 1_555 1_555
C74_5 C75_5 1_555 1_555
O13_4 C41_6 1_555 1_555
O14_4 C41_6 1_555 1_555
O30_4 C76_6 1_555 1_555
O31_4 C76_6 1_555 1_555
C41_6 C42_6 1_555 1_555
C42_6 C43_6 1_555 1_555
C43_6 H35_6 1_555 1_555
C44_6 C43_6 1_555 1_555
H36_6 C44_6 1_555 1_555
C45_6 C44_6 1_555 1_555
C46_6 C45_6 1_555 1_555
H37_6 C46_6 1_555 1_555
C47_6 C42_6 1_555 1_555
H38_6 C47_6 1_555 1_555
C49_6 C45_6 1_555 1_555
C50_6 C49_6 1_555 1_555
C58_6 C50_6 1_555 1_555
H49_6 C58_6 1_555 1_555
H50_6 C58_6 1_555 1_555
H51_6 C58_6 1_555 1_555
C61_6 C60_6 1_555 1_555
C69_6 C60_6 1_555 1_555
H62_6 C69_6 1_555 1_555
H63_6 C69_6 1_555 1_555
H64_6 C69_6 1_555 1_555
C70_6 C61_6 1_555 1_555
C71_6 C70_6 1_555 1_555
C72_6 C71_6 1_555 1_555
H66_6 C72_6 1_555 1_555
C73_6 C72_6 1_555 1_555
C74_6 C73_6 1_555 1_555
H67_6 C74_6 1_555 1_555
C75_6 C70_6 1_555 1_555
H68_6 C75_6 1_555 1_555
C76_6 C73_6 1_555 1_555
Zr5 O13_4 1_555 1_555
Zr8 O14_4 1_555 1_555
C46_6 C47_6 1_555 1_555
C74_6 C75_6 1_555 1_555
Zr5_4 O9_6 1_555 1_555
Zr9_2 O10_6 1_555 1_555
Zr11_3 O17_6 1_555 1_555
P1_6 O7_6 1_555 1_555
P2_6 O15_6 1_555 1_555
O24_3 C5_6 1_555 1_555
O25_3 C5_6 1_555 1_555
O7_6 C16_6 1_555 1_555
O8_6 P1_6 1_555 1_555
O9_6 P1_6 1_555 1_555
O10_6 P1_6 1_555 1_555
O11_4 C40_6 1_555 1_555
O12_4 C40_6 1_555 1_555
O15_6 C52_6 1_555 1_555
O16_6 P2_6 1_555 1_555
O17_6 P2_6 1_555 1_555
O18_6 Zr9_2 1_555 1_555
O21_6 Zr5_4 1_555 1_555
C5_6 C6_6 1_555 1_555
C6_6 C7_6 1_555 1_555
C7_6 H1_6 1_555 1_555
C8_6 C7_6 1_555 1_555
H2_6 C8_6 1_555 1_555
C9_6 C8_6 1_555 1_555
C10_6 C9_6 1_555 1_555
H3_6 C10_6 1_555 1_555
C11_6 C6_6 1_555 1_555
H4_6 C11_6 1_555 1_555
C12_6 C17_6 1_555 1_555
C13_6 C9_6 1_555 1_555
C14_6 C13_6 1_555 1_555
C15_6 C14_6 1_555 1_555
C16_6 C15_6 1_555 1_555
C17_6 C16_6 1_555 1_555
C18_6 C13_6 1_555 1_555
H5_6 C18_6 1_555 1_555
C19_6 C12_6 1_555 1_555
H6_6 C19_6 1_555 1_555
H7_6 C19_6 1_555 1_555
H8_6 C19_6 1_555 1_555
C20_6 C12_6 1_555 1_555
H9_6 C20_6 1_555 1_555
H10_6 C20_6 1_555 1_555
H11_6 C20_6 1_555 1_555
C21_6 C12_6 1_555 1_555
H12_6 C21_6 1_555 1_555
H13_6 C21_6 1_555 1_555
H14_6 C21_6 1_555 1_555
C22_6 C14_6 1_555 1_555
H15_6 C22_6 1_555 1_555
H16_6 C22_6 1_555 1_555
H17_6 C22_6 1_555 1_555
C23_6 C15_6 1_555 1_555
C24_6 C23_6 1_555 1_555
C25_6 C24_6 1_555 1_555
C26_6 C25_6 1_555 1_555
H18_6 C26_6 1_555 1_555
C27_6 C26_6 1_555 1_555
C28_6 O8_6 1_555 1_555
C29_6 C27_6 1_555 1_555
C30_6 C29_6 1_555 1_555
H19_6 C30_6 1_555 1_555
H20_6 C30_6 1_555 1_555
H21_6 C30_6 1_555 1_555
C31_6 C29_6 1_555 1_555
H22_6 C31_6 1_555 1_555
H23_6 C31_6 1_555 1_555
H24_6 C31_6 1_555 1_555
C32_6 C29_6 1_555 1_555
H25_6 C32_6 1_555 1_555
H26_6 C32_6 1_555 1_555
H27_6 C32_6 1_555 1_555
C33_6 C24_6 1_555 1_555
H28_6 C33_6 1_555 1_555
H29_6 C33_6 1_555 1_555
H30_6 C33_6 1_555 1_555
C34_6 C25_6 1_555 1_555
C35_6 C34_6 1_555 1_555
H31_6 C35_6 1_555 1_555
C36_6 C35_6 1_555 1_555
H32_6 C36_6 1_555 1_555
C37_6 C36_6 1_555 1_555
C38_6 C37_6 1_555 1_555
H33_6 C38_6 1_555 1_555
C39_6 C34_6 1_555 1_555
H34_6 C39_6 1_555 1_555
C40_6 C37_6 1_555 1_555
C48_6 C53_6 1_555 1_555
C52_6 C51_6 1_555 1_555
C53_6 C52_6 1_555 1_555
H39_6 C54_6 1_555 1_555
C55_6 C48_6 1_555 1_555
H40_6 C55_6 1_555 1_555
H41_6 C55_6 1_555 1_555
H42_6 C55_6 1_555 1_555
C56_6 C48_6 1_555 1_555
H43_6 C56_6 1_555 1_555
H44_6 C56_6 1_555 1_555
H45_6 C56_6 1_555 1_555
C57_6 C48_6 1_555 1_555
H46_6 C57_6 1_555 1_555
H47_6 C57_6 1_555 1_555
H48_6 C57_6 1_555 1_555
C59_6 C51_6 1_555 1_555
H52_6 C62_6 1_555 1_555
C63_6 C62_6 1_555 1_555
C64_6 O16_6 1_555 1_555
C65_6 C63_6 1_555 1_555
C66_6 C65_6 1_555 1_555
H53_6 C66_6 1_555 1_555
H54_6 C66_6 1_555 1_555
H55_6 C66_6 1_555 1_555
C67_6 C65_6 1_555 1_555
H56_6 C67_6 1_555 1_555
H57_6 C67_6 1_555 1_555
H58_6 C67_6 1_555 1_555
C68_6 C65_6 1_555 1_555
H59_6 C68_6 1_555 1_555
H60_6 C68_6 1_555 1_555
H61_6 C68_6 1_555 1_555
O22_6 Zr11_3 1_555 1_555
O23_6 C77_6 1_555 1_555
C77_6 O22_6 1_555 1_555
C78_6 C77_6 1_555 1_555
H69_6 C78_6 1_555 1_555
H70_6 C78_6 1_555 1_555
H71_6 C78_6 1_555 1_555
Zr9 O12_4 1_555 1_555
Zr11 O11_4 1_555 1_555
O26_4 Zr11_3 1_555 1_555
O27_4 Zr9_2 1_555 1_555
O28_4 Zr5_4 1_555 1_555
O29_4 Zr9_2 1_555 1_555
P2_6 O18_6 1_555 1_555
C10_6 C11_6 1_555 1_555
C17_6 C18_6 1_555 1_555
C23_6 C28_6 1_555 1_555
C27_6 C28_6 1_555 1_555
C38_6 C39_6 1_555 1_555
C53_6 C54_6 1_555 1_555
C59_6 C64_6 1_555 1_555
C63_6 C64_6 1_555 1_555
O21_6 H75_6 1_555 1_555
O21_6 H76_6 1_555 1_555
O27_3 C40_7 1_555 1_555
H32_7 C36_7 1_555 1_555
H52_7 C62_7 1_555 1_555
C63_7 C62_7 1_555 1_555
C65_7 C63_7 1_555 1_555
C66_7 C65_7 1_555 1_555
H53_7 C66_7 1_555 1_555
H54_7 C66_7 1_555 1_555
H55_7 C66_7 1_555 1_555
C67_7 C65_7 1_555 1_555
H57_7 C67_7 1_555 1_555
H58_7 C67_7 1_555 1_555
O23_7 C77_7 1_555 1_555
C77_7 O22_7 1_555 1_555
C78_7 C77_7 1_555 1_555
H69_7 C78_7 1_555 1_555
H70_7 C78_7 1_555 1_555
H71_7 C78_7 1_555 1_555
Zr5 O9_7 1_555 1_555
Zr8 O10_7 1_555 1_555
Zr11_2 O17_7 1_555 1_555
P1_7 O7_7 1_555 1_555
P2_7 O15_7 1_555 1_555
O24_2 C5_7 1_555 1_555
O25_2 C5_7 1_555 1_555
O7_7 C16_7 1_555 1_555
O8_7 P1_7 1_555 1_555
O9_7 P1_7 1_555 1_555
O10_7 P1_7 1_555 1_555
O15_7 C52_7 1_555 1_555
O16_7 P2_7 1_555 1_555
O17_7 P2_7 1_555 1_555
O18_7 Zr8 1_555 1_555
O21_7 Zr5 1_555 1_555
C5_7 C6_7 1_555 1_555
C6_7 C7_7 1_555 1_555
C7_7 H1_7 1_555 1_555
C8_7 C7_7 1_555 1_555
H2_7 C8_7 1_555 1_555
C9_7 C8_7 1_555 1_555
C10_7 C9_7 1_555 1_555
H3_7 C10_7 1_555 1_555
C11_7 C6_7 1_555 1_555
H4_7 C11_7 1_555 1_555
C12_7 C17_7 1_555 1_555
C13_7 C9_7 1_555 1_555
C14_7 C13_7 1_555 1_555
C15_7 C14_7 1_555 1_555
C16_7 C15_7 1_555 1_555
C17_7 C16_7 1_555 1_555
C18_7 C13_7 1_555 1_555
H5_7 C18_7 1_555 1_555
C19_7 C12_7 1_555 1_555
H6_7 C19_7 1_555 1_555
H7_7 C19_7 1_555 1_555
H8_7 C19_7 1_555 1_555
C20_7 C12_7 1_555 1_555
H9_7 C20_7 1_555 1_555
H10_7 C20_7 1_555 1_555
H11_7 C20_7 1_555 1_555
C21_7 C12_7 1_555 1_555
H12_7 C21_7 1_555 1_555
H13_7 C21_7 1_555 1_555
H14_7 C21_7 1_555 1_555
C22_7 C14_7 1_555 1_555
H15_7 C22_7 1_555 1_555
H16_7 C22_7 1_555 1_555
H17_7 C22_7 1_555 1_555
C23_7 C15_7 1_555 1_555
C24_7 C23_7 1_555 1_555
C25_7 C24_7 1_555 1_555
C26_7 C25_7 1_555 1_555
H18_7 C26_7 1_555 1_555
C27_7 C26_7 1_555 1_555
C28_7 O8_7 1_555 1_555
C29_7 C27_7 1_555 1_555
C30_7 C29_7 1_555 1_555
H19_7 C30_7 1_555 1_555
H20_7 C30_7 1_555 1_555
H21_7 C30_7 1_555 1_555
C31_7 C29_7 1_555 1_555
H22_7 C31_7 1_555 1_555
H23_7 C31_7 1_555 1_555
H24_7 C31_7 1_555 1_555
C32_7 C29_7 1_555 1_555
H25_7 C32_7 1_555 1_555
H26_7 C32_7 1_555 1_555
H27_7 C32_7 1_555 1_555
C33_7 C24_7 1_555 1_555
H28_7 C33_7 1_555 1_555
H29_7 C33_7 1_555 1_555
H30_7 C33_7 1_555 1_555
C34_7 C25_7 1_555 1_555
C35_7 C34_7 1_555 1_555
H31_7 C35_7 1_555 1_555
C38_7 C37_7 1_555 1_555
H33_7 C38_7 1_555 1_555
C39_7 C34_7 1_555 1_555
H34_7 C39_7 1_555 1_555
C48_7 C53_7 1_555 1_555
C52_7 C51_7 1_555 1_555
C53_7 C52_7 1_555 1_555
H39_7 C54_7 1_555 1_555
C55_7 C48_7 1_555 1_555
H40_7 C55_7 1_555 1_555
H41_7 C55_7 1_555 1_555
H42_7 C55_7 1_555 1_555
C56_7 C48_7 1_555 1_555
H43_7 C56_7 1_555 1_555
H44_7 C56_7 1_555 1_555
H45_7 C56_7 1_555 1_555
C57_7 C48_7 1_555 1_555
H46_7 C57_7 1_555 1_555
H47_7 C57_7 1_555 1_555
H48_7 C57_7 1_555 1_555
C59_7 C51_7 1_555 1_555
C64_7 O16_7 1_555 1_555
H59_7 C68_7 1_555 1_555
H60_7 C68_7 1_555 1_555
H61_7 C68_7 1_555 1_555
P2_7 O18_7 1_555 1_555
C10_7 C11_7 1_555 1_555
C17_7 C18_7 1_555 1_555
C23_7 C28_7 1_555 1_555
C27_7 C28_7 1_555 1_555
C38_7 C39_7 1_555 1_555
C53_7 C54_7 1_555 1_555
C59_7 C64_7 1_555 1_555
O21_7 H75_7 1_555 1_555
O21_7 H76_7 1_555 1_555
O30 C76_7 1_555 1_555
O31 C76_7 1_555 1_555
C70_7 C61_7 1_555 1_555
C71_7 C70_7 1_555 1_555
C72_7 C71_7 1_555 1_555
H66_7 C72_7 1_555 1_555
C73_7 C72_7 1_555 1_555
C74_7 C73_7 1_555 1_555
H67_7 C74_7 1_555 1_555
C75_7 C70_7 1_555 1_555
H68_7 C75_7 1_555 1_555
C76_7 C73_7 1_555 1_555
C74_7 C75_7 1_555 1_555
O28_4 C41_7 1_555 1_555
O29_4 C41_7 1_555 1_555
C41_7 C42_7 1_555 1_555
C42_7 C43_7 1_555 1_555
C43_7 H35_7 1_555 1_555
C44_7 C43_7 1_555 1_555
H36_7 C44_7 1_555 1_555
C45_7 C44_7 1_555 1_555
C46_7 C45_7 1_555 1_555
H37_7 C46_7 1_555 1_555
C47_7 C42_7 1_555 1_555
H38_7 C47_7 1_555 1_555
C49_7 C45_7 1_555 1_555
C50_7 C49_7 1_555 1_555
C58_7 C50_7 1_555 1_555
H49_7 C58_7 1_555 1_555
H50_7 C58_7 1_555 1_555
H51_7 C58_7 1_555 1_555
C69_7 C60_7 1_555 1_555
H62_7 C69_7 1_555 1_555
H63_7 C69_7 1_555 1_555
C46_7 C47_7 1_555 1_555
O28_3 C41_8 1_555 1_555
O29_3 C41_8 1_555 1_555
O30_2 C76_8 1_555 1_555
O31_2 C76_8 1_555 1_555
C41_8 C42_8 1_555 1_555
C42_8 C43_8 1_555 1_555
C43_8 H35_8 1_555 1_555
C44_8 C43_8 1_555 1_555
H36_8 C44_8 1_555 1_555
C45_8 C44_8 1_555 1_555
C46_8 C45_8 1_555 1_555
H37_8 C46_8 1_555 1_555
C47_8 C42_8 1_555 1_555
H38_8 C47_8 1_555 1_555
C49_8 C45_8 1_555 1_555
C50_8 C49_8 1_555 1_555
C58_8 C50_8 1_555 1_555
H49_8 C58_8 1_555 1_555
H50_8 C58_8 1_555 1_555
H51_8 C58_8 1_555 1_555
C61_8 C60_8 1_555 1_555
C69_8 C60_8 1_555 1_555
H62_8 C69_8 1_555 1_555
H63_8 C69_8 1_555 1_555
H64_8 C69_8 1_555 1_555
C70_8 C61_8 1_555 1_555
C71_8 C70_8 1_555 1_555
C72_8 C71_8 1_555 1_555
H66_8 C72_8 1_555 1_555
C73_8 C72_8 1_555 1_555
C74_8 C73_8 1_555 1_555
H67_8 C74_8 1_555 1_555
C75_8 C70_8 1_555 1_555
H68_8 C75_8 1_555 1_555
C76_8 C73_8 1_555 1_555
C46_8 C47_8 1_555 1_555
C74_8 C75_8 1_555 1_555
Zr5_2 O9_8 1_555 1_555
Zr9 O10_8 1_555 1_555
Zr11 O17_8 1_555 1_555
P1_8 O7_8 1_555 1_555
P2_8 O15_8 1_555 1_555
O24 C5_8 1_555 1_555
O25 C5_8 1_555 1_555
O7_8 C16_8 1_555 1_555
O8_8 P1_8 1_555 1_555
O9_8 P1_8 1_555 1_555
O10_8 P1_8 1_555 1_555
O26_4 C40_8 1_555 1_555
O27_4 C40_8 1_555 1_555
O15_8 C52_8 1_555 1_555
O16_8 P2_8 1_555 1_555
O17_8 P2_8 1_555 1_555
O18_8 Zr9 1_555 1_555
O21_8 Zr5_2 1_555 1_555
C5_8 C6_8 1_555 1_555
C6_8 C7_8 1_555 1_555
C7_8 H1_8 1_555 1_555
C8_8 C7_8 1_555 1_555
H2_8 C8_8 1_555 1_555
C9_8 C8_8 1_555 1_555
C10_8 C9_8 1_555 1_555
H3_8 C10_8 1_555 1_555
C11_8 C6_8 1_555 1_555
H4_8 C11_8 1_555 1_555
C12_8 C17_8 1_555 1_555
C13_8 C9_8 1_555 1_555
C14_8 C13_8 1_555 1_555
C15_8 C14_8 1_555 1_555
C16_8 C15_8 1_555 1_555
C17_8 C16_8 1_555 1_555
C18_8 C13_8 1_555 1_555
H5_8 C18_8 1_555 1_555
C19_8 C12_8 1_555 1_555
H6_8 C19_8 1_555 1_555
H7_8 C19_8 1_555 1_555
H8_8 C19_8 1_555 1_555
C20_8 C12_8 1_555 1_555
H9_8 C20_8 1_555 1_555
H10_8 C20_8 1_555 1_555
H11_8 C20_8 1_555 1_555
C21_8 C12_8 1_555 1_555
H12_8 C21_8 1_555 1_555
H13_8 C21_8 1_555 1_555
H14_8 C21_8 1_555 1_555
C22_8 C14_8 1_555 1_555
H15_8 C22_8 1_555 1_555
H16_8 C22_8 1_555 1_555
H17_8 C22_8 1_555 1_555
C23_8 C15_8 1_555 1_555
C24_8 C23_8 1_555 1_555
C25_8 C24_8 1_555 1_555
C26_8 C25_8 1_555 1_555
H18_8 C26_8 1_555 1_555
C27_8 C26_8 1_555 1_555
C28_8 O8_8 1_555 1_555
C29_8 C27_8 1_555 1_555
C30_8 C29_8 1_555 1_555
H19_8 C30_8 1_555 1_555
H20_8 C30_8 1_555 1_555
H21_8 C30_8 1_555 1_555
C31_8 C29_8 1_555 1_555
H22_8 C31_8 1_555 1_555
H23_8 C31_8 1_555 1_555
H24_8 C31_8 1_555 1_555
C32_8 C29_8 1_555 1_555
H25_8 C32_8 1_555 1_555
H26_8 C32_8 1_555 1_555
H27_8 C32_8 1_555 1_555
C33_8 C24_8 1_555 1_555
H28_8 C33_8 1_555 1_555
H29_8 C33_8 1_555 1_555
H30_8 C33_8 1_555 1_555
C34_8 C25_8 1_555 1_555
C35_8 C34_8 1_555 1_555
H31_8 C35_8 1_555 1_555
C36_8 C35_8 1_555 1_555
H32_8 C36_8 1_555 1_555
C37_8 C36_8 1_555 1_555
C38_8 C37_8 1_555 1_555
H33_8 C38_8 1_555 1_555
C39_8 C34_8 1_555 1_555
H34_8 C39_8 1_555 1_555
C40_8 C37_8 1_555 1_555
C48_8 C53_8 1_555 1_555
C52_8 C51_8 1_555 1_555
C53_8 C52_8 1_555 1_555
H39_8 C54_8 1_555 1_555
C55_8 C48_8 1_555 1_555
H40_8 C55_8 1_555 1_555
H41_8 C55_8 1_555 1_555
H42_8 C55_8 1_555 1_555
C56_8 C48_8 1_555 1_555
H43_8 C56_8 1_555 1_555
H44_8 C56_8 1_555 1_555
H45_8 C56_8 1_555 1_555
C57_8 C48_8 1_555 1_555
H46_8 C57_8 1_555 1_555
H47_8 C57_8 1_555 1_555
H48_8 C57_8 1_555 1_555
C59_8 C51_8 1_555 1_555
H52_8 C62_8 1_555 1_555
C63_8 C62_8 1_555 1_555
C64_8 O16_8 1_555 1_555
C65_8 C63_8 1_555 1_555
C66_8 C65_8 1_555 1_555
H53_8 C66_8 1_555 1_555
H54_8 C66_8 1_555 1_555
H55_8 C66_8 1_555 1_555
C67_8 C65_8 1_555 1_555
H56_8 C67_8 1_555 1_555
H57_8 C67_8 1_555 1_555
H58_8 C67_8 1_555 1_555
C68_8 C65_8 1_555 1_555
H59_8 C68_8 1_555 1_555
H60_8 C68_8 1_555 1_555
H61_8 C68_8 1_555 1_555
O22_8 Zr11 1_555 1_555
O23_8 C77_8 1_555 1_555
C77_8 O22_8 1_555 1_555
C78_8 C77_8 1_555 1_555
H69_8 C78_8 1_555 1_555
H70_8 C78_8 1_555 1_555
H71_8 C78_8 1_555 1_555
P2_8 O18_8 1_555 1_555
C10_8 C11_8 1_555 1_555
C17_8 C18_8 1_555 1_555
C23_8 C28_8 1_555 1_555
C27_8 C28_8 1_555 1_555
C38_8 C39_8 1_555 1_555
C53_8 C54_8 1_555 1_555
C59_8 C64_8 1_555 1_555
C63_8 C64_8 1_555 1_555
O21_8 H75_8 1_555 1_555
O21_8 H76_8 1_555 1_555

#END
