
###############################################################################
#
# This file contains modified crystal structure data generated from the
# MOF subset of the Cambridge Structural Database (CSD) v543 
# hosted by the Cambridge Crystallographic Data Centre (CCDC).
#
# This work is licensed under the Creative Commons
# Attribution-NonCommercial-ShareAlike 4.0 International License.
# To view a copy of this license, visit
# http://creativecommons.org/licenses/by-nc-sa/4.0/
# or send a letter to
# Creative Commons, PO Box 1866, Mountain View, CA 94042, USA.
#
# CIF created using the CSD Python API on 29 September 2022
# The structure has been converted into the P1 space group
# The structure has a 3D framework
# The original CSD entry WERCEE is in the orthorhombic crystal system
# The original CSD entry WERCEE is in a Sohncke space group
# The framework has been calculated to contain at least 10.0% void space
# The void calculation uses a probe of radius 1.32A, grid spacing 0.4
# The framework is charged, counterions have been retained in the structure
# H atom positions have been added when not included in the experimental data
#
###############################################################################

data_WERCEE
_chemical_formula_moiety         '(C624 H632 Ga24 O184 P16)n'
_symmetry_cell_setting           triclinic
_symmetry_space_group_name_H-M   'P 1'
_symmetry_Int_Tables_number      1
_space_group_name_Hall           'P 1'
loop_
_symmetry_equiv_pos_site_id
_symmetry_equiv_pos_as_xyz
1 x,y,z
_cell_length_a                   27.4162(7)
_cell_length_b                   29.2521(8)
_cell_length_c                   29.6153(7)
_cell_angle_alpha                90
_cell_angle_beta                 90
_cell_angle_gamma                90
_cell_volume                     23750.9
loop_
_atom_site_label
_atom_site_type_symbol
_atom_site_fract_x
_atom_site_fract_y
_atom_site_fract_z
O1 O 0.5576(4) 0.1380(4) 0.1516(4)
O2 O 0.5172(5) 0.1295(4) 0.2094(3)
C1 C 0.5333(6) 0.1132(6) 0.1749(6)
C2 C 0.5207(8) 0.0629(5) 0.1632(7)
H77 H 0.554232 0.0432121 0.159979
H78 H 0.498304 0.0483697 0.189964
H79 H 0.500715 0.061792 0.13144
O1_2 O 0.4424(4) 0.8620(4) 0.6516(4)
O2_2 O 0.4828(5) 0.8705(4) 0.7094(3)
C1_2 C 0.4667(6) 0.8868(6) 0.6749(6)
C2_2 C 0.4793(8) 0.9371(5) 0.6632(7)
H77_2 H 0.445768 0.956788 0.659979
H78_2 H 0.501696 0.95163 0.689964
H79_2 H 0.499285 0.938208 0.63144
O1_3 O 0.5576(4) 0.8620(4) 0.8484(4)
O2_3 O 0.5172(5) 0.8705(4) 0.7906(3)
C1_3 C 0.5333(6) 0.8868(6) 0.8251(6)
C2_3 C 0.5207(8) 0.9371(5) 0.8368(7)
H77_3 H 0.554232 0.956788 0.840021
H78_3 H 0.498304 0.95163 0.810036
H79_3 H 0.500715 0.938208 0.86856
O1_4 O 0.4424(4) 0.1380(4) 0.3484(4)
O2_4 O 0.4828(5) 0.1295(4) 0.2906(3)
C1_4 C 0.4667(6) 0.1132(6) 0.3251(6)
C2_4 C 0.4793(8) 0.0629(5) 0.3368(7)
H77_4 H 0.445768 0.0432121 0.340021
H78_4 H 0.501696 0.0483697 0.310036
H79_4 H 0.499285 0.061792 0.36856
O1_5 O 0.0576(4) 0.6380(4) 0.1516(4)
O2_5 O 0.0172(5) 0.6295(4) 0.2094(3)
C1_5 C 0.0333(6) 0.6132(6) 0.1749(6)
C2_5 C 0.0207(8) 0.5629(5) 0.1632(7)
H77_5 H 0.0542319 0.543212 0.159979
H79_5 H 0.000715279 0.561792 0.13144
H78_5 H 0.998304 0.54837 0.189964
H78_6 H 0.00169632 0.45163 0.689964
O1_6 O 0.9424(4) 0.3620(4) 0.6516(4)
O2_6 O 0.9828(5) 0.3705(4) 0.7094(3)
C1_6 C 0.9667(6) 0.3868(6) 0.6749(6)
C2_6 C 0.9793(8) 0.4371(5) 0.6632(7)
H77_6 H 0.945768 0.456788 0.659979
H79_6 H 0.999285 0.438208 0.63144
O1_7 O 0.0576(4) 0.3620(4) 0.8484(4)
O2_7 O 0.0172(5) 0.3705(4) 0.7906(3)
C1_7 C 0.0333(6) 0.3868(6) 0.8251(6)
C2_7 C 0.0207(8) 0.4371(5) 0.8368(7)
H77_7 H 0.0542319 0.456788 0.840021
H79_7 H 0.000715279 0.438208 0.86856
H78_7 H 0.998304 0.45163 0.810036
H78_8 H 0.00169632 0.54837 0.310036
O1_8 O 0.9424(4) 0.6380(4) 0.3484(4)
O2_8 O 0.9828(5) 0.6295(4) 0.2906(3)
C1_8 C 0.9667(6) 0.6132(6) 0.3251(6)
C2_8 C 0.9793(8) 0.5629(5) 0.3368(7)
H77_8 H 0.945768 0.543212 0.340021
H79_8 H 0.999285 0.561792 0.36856
O3 O 0.4251(5) 0.4177(5) 0.1669(5)
C3 C 0.4476(7) 0.4250(6) 0.1292(6)
C4 C 0.4175(6) 0.4043(6) 0.0890(5)
O4 O 0.4752(7) 0.4565(6) 0.1159(6)
H72 H 0.381681 0.420342 0.087761
H73 H 0.436658 0.410575 0.05739
H74 H 0.413283 0.367625 0.0939658
O3_2 O 0.5749(5) 0.5823(5) 0.6669(5)
C3_2 C 0.5524(7) 0.5750(6) 0.6292(6)
C4_2 C 0.5825(6) 0.5957(6) 0.5890(5)
O4_2 O 0.5248(7) 0.5435(6) 0.6159(6)
H72_2 H 0.618319 0.579658 0.587761
H73_2 H 0.563342 0.589425 0.55739
H74_2 H 0.586717 0.632375 0.593966
O3_3 O 0.4251(5) 0.5823(5) 0.8331(5)
C3_3 C 0.4476(7) 0.5750(6) 0.8708(6)
C4_3 C 0.4175(6) 0.5957(6) 0.9110(5)
O4_3 O 0.4752(7) 0.5435(6) 0.8841(6)
H72_3 H 0.381681 0.579658 0.912239
H73_3 H 0.436658 0.589425 0.94261
H74_3 H 0.413283 0.632375 0.906034
O3_4 O 0.5749(5) 0.4177(5) 0.3331(5)
C3_4 C 0.5524(7) 0.4250(6) 0.3708(6)
C4_4 C 0.5825(6) 0.4043(6) 0.4110(5)
O4_4 O 0.5248(7) 0.4565(6) 0.3841(6)
H72_4 H 0.618319 0.420342 0.412239
H73_4 H 0.563342 0.410575 0.44261
H74_4 H 0.586717 0.367625 0.406034
O3_5 O 0.9251(5) 0.9177(5) 0.1669(5)
C3_5 C 0.9476(7) 0.9250(6) 0.1292(6)
C4_5 C 0.9175(6) 0.9043(6) 0.0890(5)
O4_5 O 0.9752(7) 0.9565(6) 0.1159(6)
H72_5 H 0.881681 0.920342 0.087761
H73_5 H 0.936658 0.910575 0.05739
H74_5 H 0.913283 0.867625 0.0939658
O3_6 O 0.0749(5) 0.0823(5) 0.6669(5)
C3_6 C 0.0524(7) 0.0750(6) 0.6292(6)
C4_6 C 0.0825(6) 0.0957(6) 0.5890(5)
O4_6 O 0.0248(7) 0.0435(6) 0.6159(6)
H72_6 H 0.118319 0.0796578 0.587761
H73_6 H 0.0633421 0.0894252 0.55739
H74_6 H 0.0867167 0.132375 0.593966
O3_7 O 0.9251(5) 0.0823(5) 0.8331(5)
C3_7 C 0.9476(7) 0.0750(6) 0.8708(6)
C4_7 C 0.9175(6) 0.0957(6) 0.9110(5)
O4_7 O 0.9752(7) 0.0435(6) 0.8841(6)
H72_7 H 0.881681 0.0796578 0.912239
H73_7 H 0.936658 0.0894252 0.94261
H74_7 H 0.913283 0.132375 0.906034
O3_8 O 0.0749(5) 0.9177(5) 0.3331(5)
C3_8 C 0.0524(7) 0.9250(6) 0.3708(6)
C4_8 C 0.0825(6) 0.9043(6) 0.4110(5)
O4_8 O 0.0248(7) 0.9565(6) 0.3841(6)
H72_8 H 0.118319 0.920342 0.412239
H73_8 H 0.0633421 0.910575 0.44261
H74_8 H 0.0867167 0.867625 0.406034
Ga1 Ga 0.80042(3) 0.19760(3) 0.24818(3)
Ga2 Ga 0.73162(4) 0.20995(4) 0.13124(3)
Ga3 Ga 0.72345(3) 0.27843(3) 0.01186(2)
P1 P 0.76656(7) 0.11169(5) 0.19061(5)
P2 P 0.62971(6) 0.24194(7) 0.06687(5)
O7 O 0.71935(19) 0.07940(17) 0.19995(16)
O8 O 0.81182(17) 0.07730(14) 0.18263(14)
O9 O 0.7804(2) 0.13588(15) 0.23304(14)
O10 O 0.7540(2) 0.13689(13) 0.15002(14)
O13 O 0.25520(14) 0.23498(18) 0.23432(14)
O14 O 0.29939(16) 0.21864(18) 0.29569(13)
O15 O 0.59536(15) 0.28512(17) 0.07589(14)
O16 O 0.59292(16) 0.20155(18) 0.05437(16)
O17 O 0.65767(16) 0.2553(2) 0.02711(15)
O18 O 0.65508(15) 0.2256(2) 0.10781(13)
O21 O 0.8347(2) 0.1884(3) 0.30817(18)
C12 C 0.6613(4) 0.0785(3) 0.2846(4)
C15 C 0.75324(19) 0.00685(14) 0.21390(13)
C16 C 0.7225(2) 0.04239(13) 0.22663(14)
C17 C 0.6980(2) 0.04047(15) 0.26766(16)
C18 C 0.7042(2) 0.00301(17) 0.29596(14)
H5 H 0.6874 0.0017 0.3240
C19 C 0.6276(6) 0.0624(5) 0.3228(6)
H6 H 0.6063 0.0877 0.3320
H7 H 0.6473 0.0526 0.3487
H8 H 0.6076 0.0368 0.3122
C20 C 0.6906(5) 0.1220(4) 0.2983(6)
H9 H 0.6679 0.1456 0.3089
H10 H 0.7086 0.1335 0.2720
H11 H 0.7136 0.1144 0.3225
C21 C 0.6324(8) 0.0978(11) 0.2470(6)
H12 H 0.6104 0.1214 0.2587
H13 H 0.6133 0.0735 0.2328
H14 H 0.6544 0.1114 0.2247
C23 C 0.77235(17) 0.00659(13) 0.16619(12)
C27 C 0.83211(16) 0.03695(13) 0.11473(13)
C28 C 0.80579(17) 0.04036(12) 0.15470(12)
C29 C 0.8750(3) 0.0705(2) 0.1024(2)
C30 C 0.9117(5) 0.0698(5) 0.1412(5)
H19 H 0.9386 0.0906 0.1343
H20 H 0.9244 0.0387 0.1450
H21 H 0.8955 0.0795 0.1691
C31 C 0.9003(5) 0.0570(4) 0.0588(4)
H22 H 0.9266 0.0787 0.0523
H23 H 0.8766 0.0573 0.0340
H24 H 0.9140 0.0262 0.0619
C32 C 0.8569(4) 0.1202(3) 0.0991(4)
H25 H 0.8843 0.1403 0.0916
H26 H 0.8429 0.1295 0.1282
H27 H 0.8319 0.1224 0.0756
C41 C 0.2943(2) 0.2314(2) 0.25428(19)
C42 C 0.33984(11) 0.24417(18) 0.22974(12)
C43 C 0.33604(11) 0.2658(2) 0.18808(14)
H35 H 0.3050 0.2753 0.1772
C44 C 0.37759(15) 0.2735(2) 0.16229(12)
H36 H 0.3750 0.2882 0.1338
C45 C 0.42294(12) 0.2596(2) 0.17815(13)
C46 C 0.42674(10) 0.23796(18) 0.21981(14)
H37 H 0.4577 0.2285 0.2307
C47 C 0.38519(13) 0.23027(17) 0.24561(11)
H38 H 0.3878 0.2155 0.2741
C48 C 0.5838(3) 0.3406(3) 0.1589(2)
C49 C 0.46787(12) 0.26768(19) 0.14926(13)
C50 C 0.47384(13) 0.24672(17) 0.10750(14)
C51 C 0.51622(14) 0.25398(17) 0.08276(11)
C52 C 0.55264(12) 0.28219(17) 0.09978(12)
C53 C 0.54668(13) 0.30315(16) 0.14154(13)
C54 C 0.50429(15) 0.29590(17) 0.16628(11)
H39 H 0.5002 0.3102 0.1948
C55 C 0.5906(4) 0.3765(3) 0.1212(4)
H40 H 0.6136 0.4000 0.1313
H41 H 0.5591 0.3908 0.1143
H42 H 0.6033 0.3616 0.0940
C56 C 0.6347(3) 0.3209(3) 0.1669(3)
H43 H 0.6565 0.3452 0.1775
H44 H 0.6474 0.3082 0.1386
H45 H 0.6330 0.2967 0.1897
C57 C 0.5677(3) 0.3621(4) 0.2030(3)
H46 H 0.5917 0.3849 0.2124
H47 H 0.5650 0.3383 0.2262
H48 H 0.5359 0.3768 0.1988
C58 C 0.4369(4) 0.2114(4) 0.0922(3)
H49 H 0.4461 0.1999 0.0623
H50 H 0.4045 0.2254 0.0906
H51 H 0.4363 0.1860 0.1138
C59 C 0.52015(16) 0.23839(19) 0.03455(11)
C60 C 0.48498(15) 0.25019(19) 0.00282(14)
C64 C 0.55699(15) 0.20783(18) 0.02319(13)
C68 C 0.6209(7) 0.1237(7) 0.0016(6)
H60 H 0.5965 0.1074 0.0197
H61 H 0.6399 0.1440 0.0211
C69 C 0.4497(3) 0.2899(3) 0.0121(3)
H62 H 0.4525 0.2991 0.0438
H63 H 0.4162 0.2800 0.0059
Ga4 Ga 0.19958(3) 0.19760(3) 0.25182(3)
Ga7 Ga 0.26838(4) 0.20995(4) 0.36876(3)
O24 O 0.7404(2) 0.33310(16) 0.04661(15)
O25 O 0.74604(18) 0.28235(15) 0.10025(15)
O27 O 0.7503(2) 0.18554(16) 0.05804(13)
O28 O 0.74480(14) 0.23498(18) 0.26568(14)
O29 O 0.70061(16) 0.21864(18) 0.20431(13)
O30 O 0.86195(16) 0.2179(2) 0.21852(14)
O31 O 0.80370(16) 0.22706(18) 0.17052(15)
H75 H 0.862651 0.167214 0.304069
H76 H 0.846778 0.218283 0.319484
O19 O 0.36195(16) 0.2821(2) 0.78148(14)
O20 O 0.30370(16) 0.27294(18) 0.82948(15)
C61 C 0.48665(16) 0.2314(2) 0.95972(13)
C62 C 0.52348(18) 0.2009(2) 0.94836(13)
H52 H 0.5246 0.1881 0.9189
C63 C 0.55865(17) 0.1891(2) 0.98009(16)
C65 C 0.5957(4) 0.1514(5) 0.9661(4)
C66 C 0.5826(7) 0.1234(8) 0.9244(6)
H53 H 0.6084 0.1010 0.9184
H54 H 0.5791 0.1438 0.8983
H55 H 0.5517 0.1073 0.9296
C67 C 0.6409(7) 0.1741(6) 0.9518(6)
H56 H 0.6649 0.1510 0.9428
H57 H 0.6540 0.1922 0.9769
H58 H 0.6340 0.1942 0.9262
H59 H 0.6427 0.1016 0.9872
H64 H 0.4580 0.3158 0.9926
C70 C 0.45096(13) 0.2421(2) 0.92379(13)
C71 C 0.46706(11) 0.2554(3) 0.88127(15)
H65 H 0.5010 0.2583 0.8755
C72 C 0.43351(15) 0.2643(2) 0.84721(12)
H66 H 0.4445 0.2734 0.8181
C73 C 0.38386(14) 0.2600(2) 0.85567(12)
C74 C 0.36775(11) 0.2467(2) 0.89820(14)
H67 H 0.3338 0.2437 0.9040
C75 C 0.40130(15) 0.2378(2) 0.93226(12)
H68 H 0.3903 0.2287 0.9613
C76 C 0.3469(2) 0.2719(3) 0.8206(2)
O22 O 0.7103(3) 0.3087(2) 0.95420(15)
O23 O 0.6947(6) 0.3337(4) 0.8879(2)
C77 C 0.7201(5) 0.3113(5) 0.9141(4)
C78 C 0.7651(6) 0.2864(6) 0.9049(7)
H69 H 0.7759 0.2707 0.9323
H70 H 0.7904 0.3080 0.8951
H71 H 0.7593 0.2639 0.8810
Ga5 Ga 0.30042(3) 0.30240(3) 0.75182(3)
Ga8 Ga 0.23162(4) 0.29005(4) 0.86876(3)
O26 O 0.76735(17) 0.22793(15) 0.99762(14)
O5 O 0.7596(2) 0.83310(16) 0.45339(15)
O6 O 0.75396(18) 0.78235(15) 0.39975(15)
O11 O 0.76735(17) 0.77207(15) 0.00238(14)
C5 C 0.7547(3) 0.8227(2) 0.4123(2)
C6 C 0.7484(2) 0.86010(11) 0.37956(12)
C7 C 0.7350(2) 0.85027(11) 0.33535(14)
H1 H 0.7280 0.8197 0.3268
C8 C 0.7319(2) 0.88521(14) 0.30368(11)
H2 H 0.7227 0.8785 0.2735
C9 C 0.7421(2) 0.92999(12) 0.31622(13)
C10 C 0.7555(3) 0.93981(10) 0.36044(15)
H3 H 0.7625 0.9704 0.3690
C11 C 0.7587(2) 0.90487(13) 0.39211(11)
H4 H 0.7678 0.9116 0.4223
C13 C 0.7349(2) 0.96746(14) 0.28323(14)
C14 C 0.75942(19) 0.96939(13) 0.24220(15)
C22 C 0.8004(4) 0.9347(3) 0.2312(3)
H15 H 0.8005 0.9104 0.2540
H16 H 0.8319 0.9504 0.2314
H17 H 0.7946 0.9214 0.2013
C24 C 0.76524(17) 0.96941(13) 0.13771(14)
C25 C 0.79156(19) 0.96601(13) 0.09774(13)
C26 C 0.82500(17) 0.99978(15) 0.08625(11)
H18 H 0.8430 0.9975 0.0589
C33 C 0.7222(5) 0.9362(3) 0.1473(3)
H28 H 0.7080 0.9433 0.1768
H29 H 0.7342 0.9047 0.1473
H30 H 0.6973 0.9398 0.1238
C34 C 0.7856(2) 0.92587(12) 0.06621(13)
C35 C 0.7677(2) 0.93161(10) 0.02270(13)
H31 H 0.7597 0.9613 0.0121
C37 C 0.77310(19) 0.85043(11) 0.01033(12)
C38 C 0.7911(2) 0.84469(11) 0.05384(14)
H33 H 0.7991 0.8150 0.0645
C39 C 0.7974(2) 0.88241(15) 0.08179(11)
H34 H 0.8096 0.8785 0.1115
Ga9 Ga 0.76838(4) 0.70995(4) 0.36876(3)
Ga11 Ga 0.77655(3) 0.77843(3) 0.48814(2)
O12 O 0.7503(2) 0.81446(16) 0.94196(13)
C36 C 0.7614(2) 0.89389(13) 0.99475(10)
H32 H 0.7491 0.8978 0.9650
C40 C 0.7637(2) 0.8088(2) 0.98182(18)
Ga6 Ga 0.73162(4) 0.79005(4) 0.86876(3)
Ga10 Ga 0.72345(3) 0.72157(3) 0.98814(2)
O5_2 O 0.2404(2) 0.16690(16) 0.95339(15)
O6_2 O 0.24604(18) 0.21765(15) 0.89975(15)
O11_2 O 0.23265(17) 0.22793(15) 0.50238(14)
O12_2 O 0.2497(2) 0.18554(16) 0.44196(13)
C5_2 C 0.2453(3) 0.1773(2) 0.9123(2)
C6_2 C 0.2516(2) 0.13990(11) 0.87956(12)
C7_2 C 0.2650(2) 0.14973(11) 0.83535(14)
H1_2 H 0.2720 0.1803 0.8268
C8_2 C 0.2681(2) 0.11479(14) 0.80368(11)
H2_2 H 0.2773 0.1215 0.7735
C9_2 C 0.2579(2) 0.07001(12) 0.81622(13)
C10_2 C 0.2445(3) 0.06019(10) 0.86044(15)
H3_2 H 0.2375 0.0296 0.8690
C11_2 C 0.2413(2) 0.09513(13) 0.89211(11)
H4_2 H 0.2322 0.0884 0.9223
C13_2 C 0.2651(2) 0.03254(14) 0.78323(14)
C14_2 C 0.24058(19) 0.03061(13) 0.74220(15)
C22_2 C 0.1996(4) 0.0653(3) 0.7312(3)
H15_2 H 0.1995 0.0896 0.7540
H16_2 H 0.1681 0.0496 0.7314
H17_2 H 0.2054 0.0786 0.7013
C24_2 C 0.23476(17) 0.03059(13) 0.63771(14)
C25_2 C 0.20844(19) 0.03399(13) 0.59774(13)
C26_2 C 0.17500(17) 0.00022(15) 0.58625(11)
H18_2 H 0.1570 0.0025 0.5589
C33_2 C 0.2778(5) 0.0638(3) 0.6473(3)
H28_2 H 0.2920 0.0567 0.6768
H29_2 H 0.2658 0.0953 0.6473
H30_2 H 0.3027 0.0602 0.6238
C34_2 C 0.2144(2) 0.07413(12) 0.56621(13)
C35_2 C 0.2323(2) 0.06839(10) 0.52270(13)
H31_2 H 0.2403 0.0387 0.5121
C36_2 C 0.2386(2) 0.10611(13) 0.49475(10)
H32_2 H 0.2509 0.1022 0.4650
C37_2 C 0.22690(19) 0.14957(11) 0.51033(12)
C38_2 C 0.2089(2) 0.15531(11) 0.55384(14)
H33_2 H 0.2009 0.1850 0.5645
C39_2 C 0.2026(2) 0.11759(15) 0.58179(11)
H34_2 H 0.1904 0.1215 0.6115
C40_2 C 0.2363(2) 0.1912(2) 0.48182(18)
Ga10_2 Ga 0.27655(3) 0.27843(3) 0.48814(2)
Ga11_2 Ga 0.22345(3) 0.22157(3) 0.98814(2)
Ga1_2 Ga 0.19958(3) 0.80240(3) 0.74818(3)
Ga2_2 Ga 0.26838(4) 0.79005(4) 0.63124(3)
Ga3_2 Ga 0.27655(3) 0.72157(3) 0.51186(2)
P1_2 P 0.23344(7) 0.88831(5) 0.69061(5)
P2_2 P 0.37029(6) 0.75806(7) 0.56687(5)
O7_2 O 0.28065(19) 0.92060(17) 0.69995(16)
O8_2 O 0.18818(17) 0.92270(14) 0.68263(14)
O9_2 O 0.2196(2) 0.86412(15) 0.73304(14)
O10_2 O 0.2460(2) 0.86311(13) 0.65002(14)
O13_2 O 0.74480(14) 0.76502(18) 0.73432(14)
O14_2 O 0.70061(16) 0.78136(18) 0.79569(13)
O15_2 O 0.40464(15) 0.71488(17) 0.57589(14)
O16_2 O 0.40708(16) 0.79845(18) 0.55437(16)
O17_2 O 0.34233(16) 0.7447(2) 0.52711(15)
O18_2 O 0.34492(15) 0.7744(2) 0.60781(13)
O19_2 O 0.63805(16) 0.7179(2) 0.28148(14)
O20_2 O 0.69630(16) 0.72706(18) 0.32948(15)
O21_2 O 0.1653(2) 0.8116(3) 0.80817(18)
C12_2 C 0.3387(4) 0.9215(3) 0.7846(4)
C15_2 C 0.24676(19) 0.99315(14) 0.71390(13)
C16_2 C 0.2775(2) 0.95761(13) 0.72663(14)
C17_2 C 0.3020(2) 0.95953(15) 0.76766(16)
C18_2 C 0.2958(2) 0.99699(17) 0.79596(14)
H5_2 H 0.3126 0.9983 0.8240
C19_2 C 0.3724(6) 0.9376(5) 0.8228(6)
H6_2 H 0.3937 0.9123 0.8320
H7_2 H 0.3527 0.9474 0.8487
H8_2 H 0.3924 0.9632 0.8122
C20_2 C 0.3094(5) 0.8780(4) 0.7983(6)
H9_2 H 0.3321 0.8544 0.8089
H10_2 H 0.2914 0.8665 0.7720
H11_2 H 0.2864 0.8856 0.8225
C21_2 C 0.3676(8) 0.9022(11) 0.7470(6)
H12_2 H 0.3896 0.8786 0.7587
H13_2 H 0.3867 0.9265 0.7328
H14_2 H 0.3456 0.8886 0.7247
C23_2 C 0.22765(17) 0.99341(13) 0.66619(12)
C27_2 C 0.16789(16) 0.96305(13) 0.61473(13)
C28_2 C 0.19421(17) 0.95964(12) 0.65470(12)
C29_2 C 0.1250(3) 0.9295(2) 0.6024(2)
C30_2 C 0.0883(5) 0.9302(5) 0.6412(5)
H19_2 H 0.0614 0.9094 0.6343
H20_2 H 0.0756 0.9613 0.6450
H21_2 H 0.1045 0.9205 0.6691
C31_2 C 0.0997(5) 0.9430(4) 0.5588(4)
H22_2 H 0.0734 0.9213 0.5523
H23_2 H 0.1234 0.9427 0.5340
H24_2 H 0.0860 0.9738 0.5619
C32_2 C 0.1431(4) 0.8798(3) 0.5991(4)
H25_2 H 0.1157 0.8597 0.5916
H26_2 H 0.1571 0.8705 0.6282
H27_2 H 0.1681 0.8776 0.5756
C41_2 C 0.7057(2) 0.7686(2) 0.75428(19)
C42_2 C 0.66016(11) 0.75583(18) 0.72974(12)
C43_2 C 0.66396(11) 0.7342(2) 0.68808(14)
H35_2 H 0.6950 0.7247 0.6772
C44_2 C 0.62241(15) 0.7265(2) 0.66229(12)
H36_2 H 0.6250 0.7118 0.6338
C45_2 C 0.57706(12) 0.7404(2) 0.67815(13)
C46_2 C 0.57326(10) 0.76204(18) 0.71981(14)
H37_2 H 0.5423 0.7715 0.7307
C47_2 C 0.61481(13) 0.76973(17) 0.74561(11)
H38_2 H 0.6122 0.7845 0.7741
C48_2 C 0.4162(3) 0.6594(3) 0.6589(2)
C49_2 C 0.53213(12) 0.73232(19) 0.64926(13)
C50_2 C 0.52616(13) 0.75328(17) 0.60750(14)
C51_2 C 0.48378(14) 0.74602(17) 0.58276(11)
C52_2 C 0.44736(12) 0.71781(17) 0.59978(12)
C53_2 C 0.45332(13) 0.69685(16) 0.64154(13)
C54_2 C 0.49571(15) 0.70410(17) 0.66628(11)
H39_2 H 0.4998 0.6898 0.6948
C55_2 C 0.4094(4) 0.6235(3) 0.6212(4)
H40_2 H 0.3864 0.6000 0.6313
H41_2 H 0.4409 0.6092 0.6143
H42_2 H 0.3967 0.6384 0.5940
C56_2 C 0.3653(3) 0.6791(3) 0.6669(3)
H43_2 H 0.3435 0.6548 0.6775
H44_2 H 0.3526 0.6918 0.6386
H45_2 H 0.3670 0.7033 0.6897
C57_2 C 0.4323(3) 0.6379(4) 0.7030(3)
H46_2 H 0.4083 0.6151 0.7124
H47_2 H 0.4350 0.6617 0.7262
H48_2 H 0.4641 0.6232 0.6988
C58_2 C 0.5631(4) 0.7886(4) 0.5922(3)
H49_2 H 0.5539 0.8001 0.5623
H50_2 H 0.5955 0.7746 0.5906
H51_2 H 0.5637 0.8140 0.6138
C59_2 C 0.47985(16) 0.76161(19) 0.53455(11)
C60_2 C 0.51502(15) 0.74981(19) 0.50282(14)
C61_2 C 0.51335(16) 0.7686(2) 0.45972(13)
C62_2 C 0.47652(18) 0.7991(2) 0.44836(13)
H52_2 H 0.4754 0.8119 0.4189
C63_2 C 0.44135(17) 0.8109(2) 0.48009(16)
C64_2 C 0.44301(15) 0.79217(18) 0.52319(13)
C65_2 C 0.4043(4) 0.8486(5) 0.4661(4)
C66_2 C 0.4174(7) 0.8766(8) 0.4244(6)
H53_2 H 0.3916 0.8990 0.4184
H54_2 H 0.4209 0.8562 0.3983
H55_2 H 0.4483 0.8927 0.4296
C67_2 C 0.3591(7) 0.8259(6) 0.4518(6)
H56_2 H 0.3351 0.8490 0.4428
H57_2 H 0.3460 0.8078 0.4769
H58_2 H 0.3660 0.8058 0.4262
C68_2 C 0.3791(7) 0.8763(7) 0.5016(6)
H59_2 H 0.3573 0.8984 0.4872
H60_2 H 0.4035 0.8926 0.5197
H61_2 H 0.3601 0.8560 0.5211
C69_2 C 0.5503(3) 0.7101(3) 0.5121(3)
H62_2 H 0.5475 0.7009 0.5438
H63_2 H 0.5838 0.7200 0.5059
H64_2 H 0.5420 0.6842 0.4926
C70_2 C 0.54904(13) 0.7579(2) 0.42379(13)
C71_2 C 0.53294(11) 0.7446(3) 0.38127(15)
H65_2 H 0.4990 0.7417 0.3755
C72_2 C 0.56649(15) 0.7357(2) 0.34721(12)
H66_2 H 0.5555 0.7266 0.3181
C73_2 C 0.61614(14) 0.7400(2) 0.35567(12)
C74_2 C 0.63225(11) 0.7533(2) 0.39820(14)
H67_2 H 0.6662 0.7563 0.4040
C75_2 C 0.59870(15) 0.7622(2) 0.43226(12)
H68_2 H 0.6097 0.7713 0.4613
C76_2 C 0.6531(2) 0.7281(3) 0.3206(2)
O22_2 O 0.2897(3) 0.6913(2) 0.45420(15)
O23_2 O 0.3053(6) 0.6663(4) 0.3879(2)
C77_2 C 0.2799(5) 0.6887(5) 0.4141(4)
C78_2 C 0.2349(6) 0.7136(6) 0.4049(7)
H69_2 H 0.2241 0.7293 0.4323
H70_2 H 0.2096 0.6920 0.3951
H71_2 H 0.2407 0.7361 0.3810
Ga4_2 Ga 0.80042(3) 0.80240(3) 0.75182(3)
Ga5_2 Ga 0.69958(3) 0.69760(3) 0.25182(3)
O24_2 O 0.2596(2) 0.66690(16) 0.54661(15)
O25_2 O 0.25396(18) 0.71765(15) 0.60025(15)
O26_2 O 0.23265(17) 0.77207(15) 0.49762(14)
O27_2 O 0.2497(2) 0.81446(16) 0.55804(13)
O28_2 O 0.25520(14) 0.76502(18) 0.76568(14)
O29_2 O 0.29939(16) 0.78136(18) 0.70431(13)
O30_2 O 0.13805(16) 0.7821(2) 0.71852(14)
O31_2 O 0.19630(16) 0.77294(18) 0.67052(15)
H75_2 H 0.137349 0.832786 0.804069
H76_2 H 0.153222 0.781717 0.819484
C36_3 C 0.7614(2) 0.10611(13) 0.00525(10)
H32_3 H 0.7491 0.1022 0.0350
C40_3 C 0.7637(2) 0.1912(2) 0.01818(18)
O5_3 O 0.7596(2) 0.16690(16) 0.54661(15)
O6_3 O 0.75396(18) 0.21765(15) 0.60025(15)
C5_3 C 0.7547(3) 0.1773(2) 0.5877(2)
C6_3 C 0.7484(2) 0.13990(11) 0.62044(12)
C7_3 C 0.7350(2) 0.14973(11) 0.66465(14)
H1_3 H 0.7280 0.1803 0.6732
C8_3 C 0.7319(2) 0.11479(14) 0.69632(11)
H2_3 H 0.7227 0.1215 0.7265
C9_3 C 0.7421(2) 0.07001(12) 0.68378(13)
C10_3 C 0.7555(3) 0.06019(10) 0.63956(15)
H3_3 H 0.7625 0.0296 0.6310
C11_3 C 0.7587(2) 0.09513(13) 0.60789(11)
H4_3 H 0.7678 0.0884 0.5777
C13_3 C 0.7349(2) 0.03254(14) 0.71677(14)
C14_3 C 0.75942(19) 0.03061(13) 0.75780(15)
C22_3 C 0.8004(4) 0.0653(3) 0.7688(3)
H15_3 H 0.8005 0.0896 0.7460
H16_3 H 0.8319 0.0496 0.7686
H17_3 H 0.7946 0.0786 0.7987
C24_3 C 0.76524(17) 0.03059(13) 0.86229(14)
C25_3 C 0.79156(19) 0.03399(13) 0.90226(13)
C26_3 C 0.82500(17) 0.00022(15) 0.91375(11)
H18_3 H 0.8430 0.0025 0.9411
C33_3 C 0.7222(5) 0.0638(3) 0.8527(3)
H28_3 H 0.7080 0.0567 0.8232
H29_3 H 0.7342 0.0953 0.8527
H30_3 H 0.6973 0.0602 0.8762
C34_3 C 0.7856(2) 0.07413(12) 0.93379(13)
C35_3 C 0.7677(2) 0.06839(10) 0.97730(13)
H31_3 H 0.7597 0.0387 0.9879
C37_3 C 0.77310(19) 0.14957(11) 0.98967(12)
C38_3 C 0.7911(2) 0.15531(11) 0.94616(14)
H33_3 H 0.7991 0.1850 0.9355
C39_3 C 0.7974(2) 0.11759(15) 0.91821(11)
H34_3 H 0.8096 0.1215 0.8885
Ga9_2 Ga 0.76838(4) 0.29005(4) 0.63124(3)
Ga11_3 Ga 0.77655(3) 0.22157(3) 0.51186(2)
O19_3 O 0.36195(16) 0.7179(2) 0.21852(14)
O20_3 O 0.30370(16) 0.72706(18) 0.17052(15)
C61_3 C 0.48665(16) 0.7686(2) 0.04028(13)
C62_3 C 0.52348(18) 0.7991(2) 0.05164(13)
H52_3 H 0.5246 0.8119 0.0811
C63_3 C 0.55865(17) 0.8109(2) 0.01991(16)
C65_3 C 0.5957(4) 0.8486(5) 0.0339(4)
C66_3 C 0.5826(7) 0.8766(8) 0.0756(6)
H53_3 H 0.6084 0.8990 0.0816
H54_3 H 0.5791 0.8562 0.1017
H55_3 H 0.5517 0.8927 0.0704
C67_3 C 0.6409(7) 0.8259(6) 0.0482(6)
H56_3 H 0.6649 0.8490 0.0572
H57_3 H 0.6540 0.8078 0.0231
H58_3 H 0.6340 0.8058 0.0738
H59_3 H 0.6427 0.8984 0.0128
H64_3 H 0.4580 0.6842 0.0074
C70_3 C 0.45096(13) 0.7579(2) 0.07621(13)
C71_3 C 0.46706(11) 0.7446(3) 0.11873(15)
H65_3 H 0.5010 0.7417 0.1245
C72_3 C 0.43351(15) 0.7357(2) 0.15279(12)
H66_3 H 0.4445 0.7266 0.1819
C73_3 C 0.38386(14) 0.7400(2) 0.14433(12)
C74_3 C 0.36775(11) 0.7533(2) 0.10180(14)
H67_3 H 0.3338 0.7563 0.0960
C75_3 C 0.40130(15) 0.7622(2) 0.06774(12)
H68_3 H 0.3903 0.7713 0.0387
C76_3 C 0.3469(2) 0.7281(3) 0.1794(2)
O22_3 O 0.7103(3) 0.6913(2) 0.04580(15)
O23_3 O 0.6947(6) 0.6663(4) 0.1121(2)
C77_3 C 0.7201(5) 0.6887(5) 0.0859(4)
C78_3 C 0.7651(6) 0.7136(6) 0.0951(7)
H69_3 H 0.7759 0.7293 0.0677
H70_3 H 0.7904 0.6920 0.1049
H71_3 H 0.7593 0.7361 0.1190
Ga5_3 Ga 0.30042(3) 0.69760(3) 0.24818(3)
Ga8_2 Ga 0.23162(4) 0.70995(4) 0.13124(3)
P1_3 P 0.76656(7) 0.88831(5) 0.80939(5)
P2_3 P 0.62971(6) 0.75806(7) 0.93313(5)
O7_3 O 0.71935(19) 0.92060(17) 0.80005(16)
O8_3 O 0.81182(17) 0.92270(14) 0.81737(14)
O9_3 O 0.7804(2) 0.86412(15) 0.76696(14)
O10_3 O 0.7540(2) 0.86311(13) 0.84998(14)
O15_3 O 0.59536(15) 0.71488(17) 0.92411(14)
O16_3 O 0.59292(16) 0.79845(18) 0.94563(16)
O17_3 O 0.65767(16) 0.7447(2) 0.97289(15)
O18_3 O 0.65508(15) 0.7744(2) 0.89219(13)
O21_3 O 0.8347(2) 0.8116(3) 0.69183(18)
C12_3 C 0.6613(4) 0.9215(3) 0.7154(4)
C15_3 C 0.75324(19) 0.99315(14) 0.78610(13)
C16_3 C 0.7225(2) 0.95761(13) 0.77337(14)
C17_3 C 0.6980(2) 0.95953(15) 0.73234(16)
C18_3 C 0.7042(2) 0.99699(17) 0.70404(14)
H5_3 H 0.6874 0.9983 0.6760
C19_3 C 0.6276(6) 0.9376(5) 0.6772(6)
H6_3 H 0.6063 0.9123 0.6680
H7_3 H 0.6473 0.9474 0.6513
H8_3 H 0.6076 0.9632 0.6878
C20_3 C 0.6906(5) 0.8780(4) 0.7017(6)
H9_3 H 0.6679 0.8544 0.6911
H10_3 H 0.7086 0.8665 0.7280
H11_3 H 0.7136 0.8856 0.6775
C21_3 C 0.6324(8) 0.9022(11) 0.7530(6)
H12_3 H 0.6104 0.8786 0.7413
H13_3 H 0.6133 0.9265 0.7672
H14_3 H 0.6544 0.8886 0.7753
C23_3 C 0.77235(17) 0.99341(13) 0.83381(12)
C27_3 C 0.83211(16) 0.96305(13) 0.88527(13)
C28_3 C 0.80579(17) 0.95964(12) 0.84530(12)
C29_3 C 0.8750(3) 0.9295(2) 0.8976(2)
C30_3 C 0.9117(5) 0.9302(5) 0.8588(5)
H19_3 H 0.9386 0.9094 0.8657
H20_3 H 0.9244 0.9613 0.8550
H21_3 H 0.8955 0.9205 0.8309
C31_3 C 0.9003(5) 0.9430(4) 0.9412(4)
H22_3 H 0.9266 0.9213 0.9477
H23_3 H 0.8766 0.9427 0.9660
H24_3 H 0.9140 0.9738 0.9381
C32_3 C 0.8569(4) 0.8798(3) 0.9009(4)
H25_3 H 0.8843 0.8597 0.9084
H26_3 H 0.8429 0.8705 0.8718
H27_3 H 0.8319 0.8776 0.9244
C41_3 C 0.2943(2) 0.7686(2) 0.74572(19)
C42_3 C 0.33984(11) 0.75583(18) 0.77026(12)
C43_3 C 0.33604(11) 0.7342(2) 0.81192(14)
H35_3 H 0.3050 0.7247 0.8228
C44_3 C 0.37759(15) 0.7265(2) 0.83771(12)
H36_3 H 0.3750 0.7118 0.8662
C45_3 C 0.42294(12) 0.7404(2) 0.82185(13)
C46_3 C 0.42674(10) 0.76204(18) 0.78019(14)
H37_3 H 0.4577 0.7715 0.7693
C47_3 C 0.38519(13) 0.76973(17) 0.75439(11)
H38_3 H 0.3878 0.7845 0.7259
C48_3 C 0.5838(3) 0.6594(3) 0.8411(2)
C49_3 C 0.46787(12) 0.73232(19) 0.85074(13)
C50_3 C 0.47384(13) 0.75328(17) 0.89250(14)
C51_3 C 0.51622(14) 0.74602(17) 0.91724(11)
C52_3 C 0.55264(12) 0.71781(17) 0.90022(12)
C53_3 C 0.54668(13) 0.69685(16) 0.85846(13)
C54_3 C 0.50429(15) 0.70410(17) 0.83372(11)
H39_3 H 0.5002 0.6898 0.8052
C55_3 C 0.5906(4) 0.6235(3) 0.8788(4)
H40_3 H 0.6136 0.6000 0.8687
H41_3 H 0.5591 0.6092 0.8857
H42_3 H 0.6033 0.6384 0.9060
C56_3 C 0.6347(3) 0.6791(3) 0.8331(3)
H43_3 H 0.6565 0.6548 0.8225
H44_3 H 0.6474 0.6918 0.8614
H45_3 H 0.6330 0.7033 0.8103
C57_3 C 0.5677(3) 0.6379(4) 0.7970(3)
H46_3 H 0.5917 0.6151 0.7876
H47_3 H 0.5650 0.6617 0.7738
H48_3 H 0.5359 0.6232 0.8012
C58_3 C 0.4369(4) 0.7886(4) 0.9078(3)
H49_3 H 0.4461 0.8001 0.9377
H50_3 H 0.4045 0.7746 0.9094
H51_3 H 0.4363 0.8140 0.8862
C59_3 C 0.52015(16) 0.76161(19) 0.96545(11)
C60_3 C 0.48498(15) 0.74981(19) 0.99718(14)
C64_3 C 0.55699(15) 0.79217(18) 0.97681(13)
C68_3 C 0.6209(7) 0.8763(7) 0.9984(6)
H60_3 H 0.5965 0.8926 0.9803
H61_3 H 0.6399 0.8560 0.9789
C69_3 C 0.4497(3) 0.7101(3) 0.9879(3)
H62_3 H 0.4525 0.7009 0.9562
H63_3 H 0.4162 0.7200 0.9941
O24_3 O 0.7404(2) 0.66690(16) 0.95339(15)
O25_3 O 0.74604(18) 0.71765(15) 0.89975(15)
O30_3 O 0.86195(16) 0.7821(2) 0.78148(14)
O31_3 O 0.80370(16) 0.77294(18) 0.82948(15)
H75_3 H 0.862651 0.832786 0.695931
H76_3 H 0.846778 0.781717 0.680516
P1_4 P 0.23344(7) 0.11169(5) 0.30939(5)
P2_4 P 0.37029(6) 0.24194(7) 0.43313(5)
O7_4 O 0.28065(19) 0.07940(17) 0.30005(16)
O8_4 O 0.18818(17) 0.07730(14) 0.31737(14)
O9_4 O 0.2196(2) 0.13588(15) 0.26696(14)
O10_4 O 0.2460(2) 0.13689(13) 0.34998(14)
O15_4 O 0.40464(15) 0.28512(17) 0.42411(14)
O16_4 O 0.40708(16) 0.20155(18) 0.44563(16)
O17_4 O 0.34233(16) 0.2553(2) 0.47289(15)
O18_4 O 0.34492(15) 0.2256(2) 0.39219(13)
O19_4 O 0.63805(16) 0.2821(2) 0.71852(14)
O20_4 O 0.69630(16) 0.27294(18) 0.67052(15)
O21_4 O 0.1653(2) 0.1884(3) 0.19183(18)
C12_4 C 0.3387(4) 0.0785(3) 0.2154(4)
C15_4 C 0.24676(19) 0.00685(14) 0.28610(13)
C16_4 C 0.2775(2) 0.04239(13) 0.27337(14)
C17_4 C 0.3020(2) 0.04047(15) 0.23234(16)
C18_4 C 0.2958(2) 0.00301(17) 0.20404(14)
H5_4 H 0.3126 0.0017 0.1760
C19_4 C 0.3724(6) 0.0624(5) 0.1772(6)
H6_4 H 0.3937 0.0877 0.1680
H7_4 H 0.3527 0.0526 0.1513
H8_4 H 0.3924 0.0368 0.1878
C20_4 C 0.3094(5) 0.1220(4) 0.2017(6)
H9_4 H 0.3321 0.1456 0.1911
H10_4 H 0.2914 0.1335 0.2280
H11_4 H 0.2864 0.1144 0.1775
C21_4 C 0.3676(8) 0.0978(11) 0.2530(6)
H12_4 H 0.3896 0.1214 0.2413
H13_4 H 0.3867 0.0735 0.2672
H14_4 H 0.3456 0.1114 0.2753
C23_4 C 0.22765(17) 0.00659(13) 0.33381(12)
C27_4 C 0.16789(16) 0.03695(13) 0.38527(13)
C28_4 C 0.19421(17) 0.04036(12) 0.34530(12)
C29_4 C 0.1250(3) 0.0705(2) 0.3976(2)
C30_4 C 0.0883(5) 0.0698(5) 0.3588(5)
H19_4 H 0.0614 0.0906 0.3657
H20_4 H 0.0756 0.0387 0.3550
H21_4 H 0.1045 0.0795 0.3309
C31_4 C 0.0997(5) 0.0570(4) 0.4412(4)
H22_4 H 0.0734 0.0787 0.4477
H23_4 H 0.1234 0.0573 0.4660
H24_4 H 0.0860 0.0262 0.4381
C32_4 C 0.1431(4) 0.1202(3) 0.4009(4)
H25_4 H 0.1157 0.1403 0.4084
H26_4 H 0.1571 0.1295 0.3718
H27_4 H 0.1681 0.1224 0.4244
C41_4 C 0.7057(2) 0.2314(2) 0.24572(19)
C42_4 C 0.66016(11) 0.24417(18) 0.27026(12)
C43_4 C 0.66396(11) 0.2658(2) 0.31192(14)
H35_4 H 0.6950 0.2753 0.3228
C44_4 C 0.62241(15) 0.2735(2) 0.33771(12)
H36_4 H 0.6250 0.2882 0.3662
C45_4 C 0.57706(12) 0.2596(2) 0.32185(13)
C46_4 C 0.57326(10) 0.23796(18) 0.28019(14)
H37_4 H 0.5423 0.2285 0.2693
C47_4 C 0.61481(13) 0.23027(17) 0.25439(11)
H38_4 H 0.6122 0.2155 0.2259
C48_4 C 0.4162(3) 0.3406(3) 0.3411(2)
C49_4 C 0.53213(12) 0.26768(19) 0.35074(13)
C50_4 C 0.52616(13) 0.24672(17) 0.39250(14)
C51_4 C 0.48378(14) 0.25398(17) 0.41724(11)
C52_4 C 0.44736(12) 0.28219(17) 0.40022(12)
C53_4 C 0.45332(13) 0.30315(16) 0.35846(13)
C54_4 C 0.49571(15) 0.29590(17) 0.33372(11)
H39_4 H 0.4998 0.3102 0.3052
C55_4 C 0.4094(4) 0.3765(3) 0.3788(4)
H40_4 H 0.3864 0.4000 0.3687
H41_4 H 0.4409 0.3908 0.3857
H42_4 H 0.3967 0.3616 0.4060
C56_4 C 0.3653(3) 0.3209(3) 0.3331(3)
H43_4 H 0.3435 0.3452 0.3225
H44_4 H 0.3526 0.3082 0.3614
H45_4 H 0.3670 0.2967 0.3103
C57_4 C 0.4323(3) 0.3621(4) 0.2970(3)
H46_4 H 0.4083 0.3849 0.2876
H47_4 H 0.4350 0.3383 0.2738
H48_4 H 0.4641 0.3768 0.3012
C58_4 C 0.5631(4) 0.2114(4) 0.4078(3)
H49_4 H 0.5539 0.1999 0.4377
H50_4 H 0.5955 0.2254 0.4094
H51_4 H 0.5637 0.1860 0.3862
C59_4 C 0.47985(16) 0.23839(19) 0.46545(11)
C60_4 C 0.51502(15) 0.25019(19) 0.49718(14)
C61_4 C 0.51335(16) 0.2314(2) 0.54028(13)
C62_4 C 0.47652(18) 0.2009(2) 0.55164(13)
H52_4 H 0.4754 0.1881 0.5811
C63_4 C 0.44135(17) 0.1891(2) 0.51991(16)
C64_4 C 0.44301(15) 0.20783(18) 0.47681(13)
C65_4 C 0.4043(4) 0.1514(5) 0.5339(4)
C66_4 C 0.4174(7) 0.1234(8) 0.5756(6)
H53_4 H 0.3916 0.1010 0.5816
H54_4 H 0.4209 0.1438 0.6017
H55_4 H 0.4483 0.1073 0.5704
C67_4 C 0.3591(7) 0.1741(6) 0.5482(6)
H56_4 H 0.3351 0.1510 0.5572
H57_4 H 0.3460 0.1922 0.5231
H58_4 H 0.3660 0.1942 0.5738
C68_4 C 0.3791(7) 0.1237(7) 0.4984(6)
H59_4 H 0.3573 0.1016 0.5128
H60_4 H 0.4035 0.1074 0.4803
H61_4 H 0.3601 0.1440 0.4789
C69_4 C 0.5503(3) 0.2899(3) 0.4879(3)
H62_4 H 0.5475 0.2991 0.4562
H63_4 H 0.5838 0.2800 0.4941
H64_4 H 0.5420 0.3158 0.5074
C70_4 C 0.54904(13) 0.2421(2) 0.57621(13)
C71_4 C 0.53294(11) 0.2554(3) 0.61873(15)
H65_4 H 0.4990 0.2583 0.6245
C72_4 C 0.56649(15) 0.2643(2) 0.65279(12)
H66_4 H 0.5555 0.2734 0.6819
C73_4 C 0.61614(14) 0.2600(2) 0.64433(12)
C74_4 C 0.63225(11) 0.2467(2) 0.60180(14)
H67_4 H 0.6662 0.2437 0.5960
C75_4 C 0.59870(15) 0.2378(2) 0.56774(12)
H68_4 H 0.6097 0.2287 0.5387
C76_4 C 0.6531(2) 0.2719(3) 0.6794(2)
O22_4 O 0.2897(3) 0.3087(2) 0.54580(15)
O23_4 O 0.3053(6) 0.3337(4) 0.6121(2)
C77_4 C 0.2799(5) 0.3113(5) 0.5859(4)
C78_4 C 0.2349(6) 0.2864(6) 0.5951(7)
H69_4 H 0.2241 0.2707 0.5677
H70_4 H 0.2096 0.3080 0.6049
H71_4 H 0.2407 0.2639 0.6190
Ga5_4 Ga 0.69958(3) 0.30240(3) 0.74818(3)
O24_4 O 0.2596(2) 0.33310(16) 0.45339(15)
O25_4 O 0.25396(18) 0.28235(15) 0.39975(15)
O30_4 O 0.13805(16) 0.2179(2) 0.28148(14)
O31_4 O 0.19630(16) 0.22706(18) 0.32948(15)
H75_4 H 0.137349 0.167214 0.195931
H76_4 H 0.153222 0.218283 0.180516
O5_4 O 0.2404(2) 0.83310(16) 0.04661(15)
O6_4 O 0.24604(18) 0.78235(15) 0.10025(15)
C5_4 C 0.2453(3) 0.8227(2) 0.0877(2)
C6_4 C 0.2516(2) 0.86010(11) 0.12044(12)
C7_4 C 0.2650(2) 0.85027(11) 0.16465(14)
H1_4 H 0.2720 0.8197 0.1732
C8_4 C 0.2681(2) 0.88521(14) 0.19632(11)
H2_4 H 0.2773 0.8785 0.2265
C9_4 C 0.2579(2) 0.92999(12) 0.18378(13)
C10_4 C 0.2445(3) 0.93981(10) 0.13956(15)
H3_4 H 0.2375 0.9704 0.1310
C11_4 C 0.2413(2) 0.90487(13) 0.10789(11)
H4_4 H 0.2322 0.9116 0.0777
C13_4 C 0.2651(2) 0.96746(14) 0.21677(14)
C14_4 C 0.24058(19) 0.96939(13) 0.25780(15)
C22_4 C 0.1996(4) 0.9347(3) 0.2688(3)
H15_4 H 0.1995 0.9104 0.2460
H16_4 H 0.1681 0.9504 0.2686
H17_4 H 0.2054 0.9214 0.2987
C24_4 C 0.23476(17) 0.96941(13) 0.36229(14)
C25_4 C 0.20844(19) 0.96601(13) 0.40226(13)
C26_4 C 0.17500(17) 0.99978(15) 0.41375(11)
H18_4 H 0.1570 0.9975 0.4411
C33_4 C 0.2778(5) 0.9362(3) 0.3527(3)
H28_4 H 0.2920 0.9433 0.3232
H29_4 H 0.2658 0.9047 0.3527
H30_4 H 0.3027 0.9398 0.3762
C34_4 C 0.2144(2) 0.92587(12) 0.43379(13)
C35_4 C 0.2323(2) 0.93161(10) 0.47730(13)
H31_4 H 0.2403 0.9613 0.4879
C36_4 C 0.2386(2) 0.89389(13) 0.50525(10)
H32_4 H 0.2509 0.8978 0.5350
C37_4 C 0.22690(19) 0.85043(11) 0.48967(12)
C38_4 C 0.2089(2) 0.84469(11) 0.44616(14)
H33_4 H 0.2009 0.8150 0.4355
C39_4 C 0.2026(2) 0.88241(15) 0.41821(11)
H34_4 H 0.1904 0.8785 0.3885
C40_4 C 0.2363(2) 0.8088(2) 0.51818(18)
Ga11_4 Ga 0.22345(3) 0.77843(3) 0.01186(2)
P1_5 P 0.26656(7) 0.61169(5) 0.19061(5)
P2_5 P 0.12971(6) 0.74194(7) 0.06687(5)
O7_5 O 0.21935(19) 0.57940(17) 0.19995(16)
O8_5 O 0.31182(17) 0.57730(14) 0.18263(14)
O9_5 O 0.2804(2) 0.63588(15) 0.23304(14)
O10_5 O 0.2540(2) 0.63689(13) 0.15002(14)
O11_3 O 0.26735(17) 0.27207(15) 0.00238(14)
O15_5 O 0.09536(15) 0.78512(17) 0.07589(14)
O16_5 O 0.09292(16) 0.70155(18) 0.05437(16)
O17_5 O 0.15767(16) 0.7553(2) 0.02711(15)
O18_5 O 0.15508(15) 0.7256(2) 0.10781(13)
O21_5 O 0.3347(2) 0.6884(3) 0.30817(18)
C5_5 C 0.2547(3) 0.3227(2) 0.4123(2)
C6_5 C 0.2484(2) 0.36010(11) 0.37956(12)
C7_5 C 0.2350(2) 0.35027(11) 0.33535(14)
H1_5 H 0.2280 0.3197 0.3268
C8_5 C 0.2319(2) 0.38521(14) 0.30368(11)
H2_5 H 0.2227 0.3785 0.2735
C9_5 C 0.2421(2) 0.42999(12) 0.31622(13)
C10_5 C 0.2555(3) 0.43981(10) 0.36044(15)
H3_5 H 0.2625 0.4704 0.3690
C11_5 C 0.2587(2) 0.40487(13) 0.39211(11)
H4_5 H 0.2678 0.4116 0.4223
C12_5 C 0.1613(4) 0.5785(3) 0.2846(4)
C13_5 C 0.2349(2) 0.46746(14) 0.28323(14)
C14_5 C 0.25942(19) 0.46939(13) 0.24220(15)
C15_5 C 0.25324(19) 0.50685(14) 0.21390(13)
C16_5 C 0.2225(2) 0.54239(13) 0.22663(14)
C17_5 C 0.1980(2) 0.54047(15) 0.26766(16)
C18_5 C 0.2042(2) 0.50301(17) 0.29596(14)
H5_5 H 0.1874 0.5017 0.3240
C19_5 C 0.1276(6) 0.5624(5) 0.3228(6)
H6_5 H 0.1063 0.5877 0.3320
H7_5 H 0.1473 0.5526 0.3487
H8_5 H 0.1076 0.5368 0.3122
C20_5 C 0.1906(5) 0.6220(4) 0.2983(6)
H9_5 H 0.1679 0.6456 0.3089
H10_5 H 0.2086 0.6335 0.2720
H11_5 H 0.2136 0.6144 0.3225
C21_5 C 0.1324(8) 0.5978(11) 0.2470(6)
H12_5 H 0.1104 0.6214 0.2587
H13_5 H 0.1133 0.5735 0.2328
H14_5 H 0.1544 0.6114 0.2247
C22_5 C 0.3004(4) 0.4347(3) 0.2312(3)
H15_5 H 0.3005 0.4104 0.2540
H16_5 H 0.3319 0.4504 0.2314
H17_5 H 0.2946 0.4214 0.2013
C23_5 C 0.27235(17) 0.50659(13) 0.16619(12)
C24_5 C 0.26524(17) 0.46941(13) 0.13771(14)
C25_5 C 0.29156(19) 0.46601(13) 0.09774(13)
C26_5 C 0.32500(17) 0.49978(15) 0.08625(11)
H18_5 H 0.3430 0.4975 0.0589
C27_5 C 0.33211(16) 0.53695(13) 0.11473(13)
C28_5 C 0.30579(17) 0.54036(12) 0.15470(12)
C29_5 C 0.3750(3) 0.5705(2) 0.1024(2)
C30_5 C 0.4117(5) 0.5698(5) 0.1412(5)
H19_5 H 0.4386 0.5906 0.1343
H20_5 H 0.4244 0.5387 0.1450
H21_5 H 0.3955 0.5795 0.1691
C31_5 C 0.4003(5) 0.5570(4) 0.0588(4)
H22_5 H 0.4266 0.5787 0.0523
H23_5 H 0.3766 0.5573 0.0340
H24_5 H 0.4140 0.5262 0.0619
C32_5 C 0.3569(4) 0.6202(3) 0.0991(4)
H25_5 H 0.3843 0.6403 0.0916
H26_5 H 0.3429 0.6295 0.1282
H27_5 H 0.3319 0.6224 0.0756
C33_5 C 0.2222(5) 0.4362(3) 0.1473(3)
H28_5 H 0.2080 0.4433 0.1768
H29_5 H 0.2342 0.4047 0.1473
H30_5 H 0.1973 0.4398 0.1238
C34_5 C 0.2856(2) 0.42587(12) 0.06621(13)
C35_5 C 0.2677(2) 0.43161(10) 0.02270(13)
H31_5 H 0.2597 0.4613 0.0121
C37_5 C 0.27310(19) 0.35043(11) 0.01033(12)
C38_5 C 0.2911(2) 0.34469(11) 0.05384(14)
H33_5 H 0.2991 0.3150 0.0645
C39_5 C 0.2974(2) 0.38241(15) 0.08179(11)
H34_5 H 0.3096 0.3785 0.1115
C48_5 C 0.0838(3) 0.8406(3) 0.1589(2)
C51_5 C 0.01622(14) 0.75398(17) 0.08276(11)
C52_5 C 0.05264(12) 0.78219(17) 0.09978(12)
C53_5 C 0.04668(13) 0.80315(16) 0.14154(13)
C54_5 C 0.00429(15) 0.79590(17) 0.16628(11)
H39_5 H 0.0002 0.8102 0.1948
C55_5 C 0.0906(4) 0.8765(3) 0.1212(4)
H40_5 H 0.1136 0.9000 0.1313
H41_5 H 0.0591 0.8908 0.1143
H42_5 H 0.1033 0.8616 0.0940
C56_5 C 0.1347(3) 0.8209(3) 0.1669(3)
H43_5 H 0.1565 0.8452 0.1775
H44_5 H 0.1474 0.8082 0.1386
H45_5 H 0.1330 0.7967 0.1897
C57_5 C 0.0677(3) 0.8621(4) 0.2030(3)
H46_5 H 0.0917 0.8849 0.2124
H47_5 H 0.0650 0.8383 0.2262
H48_5 H 0.0359 0.8768 0.1988
C59_5 C 0.02015(16) 0.73839(19) 0.03455(11)
C64_5 C 0.05699(15) 0.70783(18) 0.02319(13)
C68_5 C 0.1209(7) 0.6237(7) 0.0016(6)
H60_5 H 0.0965 0.6074 0.0197
H61_5 H 0.1399 0.6440 0.0211
O27_3 O 0.2503(2) 0.68554(16) 0.05804(13)
O28_3 O 0.24480(14) 0.73498(18) 0.26568(14)
O29_3 O 0.20061(16) 0.71864(18) 0.20431(13)
H75_5 H 0.362651 0.667214 0.304069
H76_5 H 0.346778 0.718283 0.319484
O12_3 O 0.2503(2) 0.31446(16) 0.94196(13)
C36_5 C 0.2614(2) 0.39389(13) 0.99475(10)
H32_5 H 0.2491 0.3978 0.9650
C40_5 C 0.2637(2) 0.3088(2) 0.98182(18)
C62_5 C 0.02348(18) 0.7009(2) 0.94836(13)
H52_5 H 0.0246 0.6881 0.9189
C63_5 C 0.05865(17) 0.6891(2) 0.98009(16)
C65_5 C 0.0957(4) 0.6514(5) 0.9661(4)
C66_5 C 0.0826(7) 0.6234(8) 0.9244(6)
H53_5 H 0.1084 0.6010 0.9184
H54_5 H 0.0791 0.6438 0.8983
H55_5 H 0.0517 0.6073 0.9296
C67_5 C 0.1409(7) 0.6741(6) 0.9518(6)
H56_5 H 0.1649 0.6510 0.9428
H57_5 H 0.1540 0.6922 0.9769
H58_5 H 0.1340 0.6942 0.9262
H59_5 H 0.1427 0.6016 0.9872
H65_5 H 0.0010 0.7583 0.8755
O22_5 O 0.2103(3) 0.8087(2) 0.95420(15)
O23_5 O 0.1947(6) 0.8337(4) 0.8879(2)
C77_5 C 0.2201(5) 0.8113(5) 0.9141(4)
C78_5 C 0.2651(6) 0.7864(6) 0.9049(7)
H69_5 H 0.2759 0.7707 0.9323
H70_5 H 0.2904 0.8080 0.8951
H71_5 H 0.2593 0.7639 0.8810
O26_3 O 0.26735(17) 0.72793(15) 0.99762(14)
O13_3 O 0.75520(14) 0.73498(18) 0.23432(14)
O14_3 O 0.79939(16) 0.71864(18) 0.29569(13)
C41_5 C 0.7943(2) 0.7314(2) 0.25428(19)
C42_5 C 0.83984(11) 0.74417(18) 0.22974(12)
C43_5 C 0.83604(11) 0.7658(2) 0.18808(14)
H35_5 H 0.8050 0.7753 0.1772
C44_5 C 0.87759(15) 0.7735(2) 0.16229(12)
H36_5 H 0.8750 0.7882 0.1338
C45_5 C 0.92294(12) 0.7596(2) 0.17815(13)
C46_5 C 0.92674(10) 0.73796(18) 0.21981(14)
H37_5 H 0.9577 0.7285 0.2307
C47_5 C 0.88519(13) 0.73027(17) 0.24561(11)
H38_5 H 0.8878 0.7155 0.2741
C49_5 C 0.96787(12) 0.76768(19) 0.14926(13)
C50_5 C 0.97384(13) 0.74672(17) 0.10750(14)
C58_5 C 0.9369(4) 0.7114(4) 0.0922(3)
H49_5 H 0.9461 0.6999 0.0623
H50_5 H 0.9045 0.7254 0.0906
H51_5 H 0.9363 0.6860 0.1138
C60_5 C 0.98498(15) 0.75019(19) 0.00282(14)
C69_5 C 0.9497(3) 0.7899(3) 0.0121(3)
H62_5 H 0.9525 0.7991 0.0438
H63_5 H 0.9162 0.7800 0.0059
C61_5 C 0.98665(16) 0.7314(2) 0.95972(13)
H64_5 H 0.9580 0.8158 0.9926
C70_5 C 0.95096(13) 0.7421(2) 0.92379(13)
C71_5 C 0.96706(11) 0.7554(3) 0.88127(15)
C72_5 C 0.93351(15) 0.7643(2) 0.84721(12)
H66_5 H 0.9445 0.7734 0.8181
C73_5 C 0.88386(14) 0.7600(2) 0.85567(12)
C74_5 C 0.86775(11) 0.7467(2) 0.89820(14)
H67_5 H 0.8338 0.7437 0.9040
C75_5 C 0.90130(15) 0.7378(2) 0.93226(12)
H68_5 H 0.8903 0.7287 0.9613
C76_5 C 0.8469(2) 0.7719(3) 0.8206(2)
O13_4 O 0.24480(14) 0.26502(18) 0.73432(14)
O14_4 O 0.20061(16) 0.28136(18) 0.79569(13)
C41_6 C 0.2057(2) 0.2686(2) 0.75428(19)
C42_6 C 0.16016(11) 0.25583(18) 0.72974(12)
C43_6 C 0.16396(11) 0.2342(2) 0.68808(14)
H35_6 H 0.1950 0.2247 0.6772
C44_6 C 0.12241(15) 0.2265(2) 0.66229(12)
H36_6 H 0.1250 0.2118 0.6338
C45_6 C 0.07706(12) 0.2404(2) 0.67815(13)
C46_6 C 0.07326(10) 0.26204(18) 0.71981(14)
H37_6 H 0.0423 0.2715 0.7307
C47_6 C 0.11481(13) 0.26973(17) 0.74561(11)
H38_6 H 0.1122 0.2845 0.7741
C49_6 C 0.03213(12) 0.23232(19) 0.64926(13)
C50_6 C 0.02616(13) 0.25328(17) 0.60750(14)
C58_6 C 0.0631(4) 0.2886(4) 0.5922(3)
H49_6 H 0.0539 0.3001 0.5623
H50_6 H 0.0955 0.2746 0.5906
H51_6 H 0.0637 0.3140 0.6138
C60_6 C 0.01502(15) 0.24981(19) 0.50282(14)
C61_6 C 0.01335(16) 0.2686(2) 0.45972(13)
C69_6 C 0.0503(3) 0.2101(3) 0.5121(3)
H62_6 H 0.0475 0.2009 0.5438
H63_6 H 0.0838 0.2200 0.5059
H64_6 H 0.0420 0.1842 0.4926
C70_6 C 0.04904(13) 0.2579(2) 0.42379(13)
C71_6 C 0.03294(11) 0.2446(3) 0.38127(15)
C72_6 C 0.06649(15) 0.2357(2) 0.34721(12)
H66_6 H 0.0555 0.2266 0.3181
C73_6 C 0.11614(14) 0.2400(2) 0.35567(12)
C74_6 C 0.13225(11) 0.2533(2) 0.39820(14)
H67_6 H 0.1662 0.2563 0.4040
C75_6 C 0.09870(15) 0.2622(2) 0.43226(12)
H68_6 H 0.1097 0.2713 0.4613
C76_6 C 0.1531(2) 0.2281(3) 0.3206(2)
P1_6 P 0.73344(7) 0.38831(5) 0.69061(5)
P2_6 P 0.87029(6) 0.25806(7) 0.56687(5)
O7_6 O 0.78065(19) 0.42060(17) 0.69995(16)
O8_6 O 0.68818(17) 0.42270(14) 0.68263(14)
O9_6 O 0.7196(2) 0.36412(15) 0.73304(14)
O10_6 O 0.7460(2) 0.36311(13) 0.65002(14)
O11_4 O 0.73265(17) 0.72793(15) 0.50238(14)
O12_4 O 0.7497(2) 0.68554(16) 0.44196(13)
O15_6 O 0.90464(15) 0.21488(17) 0.57589(14)
O16_6 O 0.90708(16) 0.29845(18) 0.55437(16)
O17_6 O 0.84233(16) 0.2447(2) 0.52711(15)
O18_6 O 0.84492(15) 0.2744(2) 0.60781(13)
O21_6 O 0.6653(2) 0.3116(3) 0.80817(18)
C5_6 C 0.7453(3) 0.6773(2) 0.9123(2)
C6_6 C 0.7516(2) 0.63990(11) 0.87956(12)
C7_6 C 0.7650(2) 0.64973(11) 0.83535(14)
H1_6 H 0.7720 0.6803 0.8268
C8_6 C 0.7681(2) 0.61479(14) 0.80368(11)
H2_6 H 0.7773 0.6215 0.7735
C9_6 C 0.7579(2) 0.57001(12) 0.81622(13)
C10_6 C 0.7445(3) 0.56019(10) 0.86044(15)
H3_6 H 0.7375 0.5296 0.8690
C11_6 C 0.7413(2) 0.59513(13) 0.89211(11)
H4_6 H 0.7322 0.5884 0.9223
C12_6 C 0.8387(4) 0.4215(3) 0.7846(4)
C13_6 C 0.7651(2) 0.53254(14) 0.78323(14)
C14_6 C 0.74058(19) 0.53061(13) 0.74220(15)
C15_6 C 0.74676(19) 0.49315(14) 0.71390(13)
C16_6 C 0.7775(2) 0.45761(13) 0.72663(14)
C17_6 C 0.8020(2) 0.45953(15) 0.76766(16)
C18_6 C 0.7958(2) 0.49699(17) 0.79596(14)
H5_6 H 0.8126 0.4983 0.8240
C19_6 C 0.8724(6) 0.4376(5) 0.8228(6)
H6_6 H 0.8937 0.4123 0.8320
H7_6 H 0.8527 0.4474 0.8487
H8_6 H 0.8924 0.4632 0.8122
C20_6 C 0.8094(5) 0.3780(4) 0.7983(6)
H9_6 H 0.8321 0.3544 0.8089
H10_6 H 0.7914 0.3665 0.7720
H11_6 H 0.7864 0.3856 0.8225
C21_6 C 0.8676(8) 0.4022(11) 0.7470(6)
H12_6 H 0.8896 0.3786 0.7587
H13_6 H 0.8867 0.4265 0.7328
H14_6 H 0.8456 0.3886 0.7247
C22_6 C 0.6996(4) 0.5653(3) 0.7312(3)
H15_6 H 0.6995 0.5896 0.7540
H16_6 H 0.6681 0.5496 0.7314
H17_6 H 0.7054 0.5786 0.7013
C23_6 C 0.72765(17) 0.49341(13) 0.66619(12)
C24_6 C 0.73476(17) 0.53059(13) 0.63771(14)
C25_6 C 0.70844(19) 0.53399(13) 0.59774(13)
C26_6 C 0.67500(17) 0.50022(15) 0.58625(11)
H18_6 H 0.6570 0.5025 0.5589
C27_6 C 0.66789(16) 0.46305(13) 0.61473(13)
C28_6 C 0.69421(17) 0.45964(12) 0.65470(12)
C29_6 C 0.6250(3) 0.4295(2) 0.6024(2)
C30_6 C 0.5883(5) 0.4302(5) 0.6412(5)
H19_6 H 0.5614 0.4094 0.6343
H20_6 H 0.5756 0.4613 0.6450
H21_6 H 0.6045 0.4205 0.6691
C31_6 C 0.5997(5) 0.4430(4) 0.5588(4)
H22_6 H 0.5734 0.4213 0.5523
H23_6 H 0.6234 0.4427 0.5340
H24_6 H 0.5860 0.4738 0.5619
C32_6 C 0.6431(4) 0.3798(3) 0.5991(4)
H25_6 H 0.6157 0.3597 0.5916
H26_6 H 0.6571 0.3705 0.6282
H27_6 H 0.6681 0.3776 0.5756
C33_6 C 0.7778(5) 0.5638(3) 0.6473(3)
H28_6 H 0.7920 0.5567 0.6768
H29_6 H 0.7658 0.5953 0.6473
H30_6 H 0.8027 0.5602 0.6238
C34_6 C 0.7144(2) 0.57413(12) 0.56621(13)
C35_6 C 0.7323(2) 0.56839(10) 0.52270(13)
H31_6 H 0.7403 0.5387 0.5121
C36_6 C 0.7386(2) 0.60611(13) 0.49475(10)
H32_6 H 0.7509 0.6022 0.4650
C37_6 C 0.72690(19) 0.64957(11) 0.51033(12)
C38_6 C 0.7089(2) 0.65531(11) 0.55384(14)
H33_6 H 0.7009 0.6850 0.5645
C39_6 C 0.7026(2) 0.61759(15) 0.58179(11)
H34_6 H 0.6904 0.6215 0.6115
C40_6 C 0.7363(2) 0.6912(2) 0.48182(18)
C48_6 C 0.9162(3) 0.1594(3) 0.6589(2)
C51_6 C 0.98378(14) 0.24602(17) 0.58276(11)
C52_6 C 0.94736(12) 0.21781(17) 0.59978(12)
C53_6 C 0.95332(13) 0.19685(16) 0.64154(13)
C54_6 C 0.99571(15) 0.20410(17) 0.66628(11)
H39_6 H 0.9998 0.1898 0.6948
C55_6 C 0.9094(4) 0.1235(3) 0.6212(4)
H40_6 H 0.8864 0.1000 0.6313
H41_6 H 0.9409 0.1092 0.6143
H42_6 H 0.8967 0.1384 0.5940
C56_6 C 0.8653(3) 0.1791(3) 0.6669(3)
H43_6 H 0.8435 0.1548 0.6775
H44_6 H 0.8526 0.1918 0.6386
H45_6 H 0.8670 0.2033 0.6897
C57_6 C 0.9323(3) 0.1379(4) 0.7030(3)
H46_6 H 0.9083 0.1151 0.7124
H47_6 H 0.9350 0.1617 0.7262
H48_6 H 0.9641 0.1232 0.6988
C59_6 C 0.97985(16) 0.26161(19) 0.53455(11)
C62_6 C 0.97652(18) 0.2991(2) 0.44836(13)
H52_6 H 0.9754 0.3119 0.4189
C63_6 C 0.94135(17) 0.3109(2) 0.48009(16)
C64_6 C 0.94301(15) 0.29217(18) 0.52319(13)
C65_6 C 0.9043(4) 0.3486(5) 0.4661(4)
C66_6 C 0.9174(7) 0.3766(8) 0.4244(6)
H53_6 H 0.8916 0.3990 0.4184
H54_6 H 0.9209 0.3562 0.3983
H55_6 H 0.9483 0.3927 0.4296
C67_6 C 0.8591(7) 0.3259(6) 0.4518(6)
H56_6 H 0.8351 0.3490 0.4428
H57_6 H 0.8460 0.3078 0.4769
H58_6 H 0.8660 0.3058 0.4262
C68_6 C 0.8791(7) 0.3763(7) 0.5016(6)
H59_6 H 0.8573 0.3984 0.4872
H60_6 H 0.9035 0.3926 0.5197
H61_6 H 0.8601 0.3560 0.5211
H65_6 H 0.9990 0.2417 0.3755
O22_6 O 0.7897(3) 0.1913(2) 0.45420(15)
O23_6 O 0.8053(6) 0.1663(4) 0.3879(2)
C77_6 C 0.7799(5) 0.1887(5) 0.4141(4)
C78_6 C 0.7349(6) 0.2136(6) 0.4049(7)
H69_6 H 0.7241 0.2293 0.4323
H70_6 H 0.7096 0.1920 0.3951
H71_6 H 0.7407 0.2361 0.3810
O26_4 O 0.73265(17) 0.27207(15) 0.49762(14)
O27_4 O 0.7497(2) 0.31446(16) 0.55804(13)
O28_4 O 0.75520(14) 0.26502(18) 0.76568(14)
O29_4 O 0.79939(16) 0.28136(18) 0.70431(13)
H75_6 H 0.637349 0.332786 0.804069
H76_6 H 0.653222 0.281717 0.819484
C36_7 C 0.2614(2) 0.60611(13) 0.00525(10)
H32_7 H 0.2491 0.6022 0.0350
C40_7 C 0.2637(2) 0.6912(2) 0.01818(18)
C62_7 C 0.02348(18) 0.2991(2) 0.05164(13)
H52_7 H 0.0246 0.3119 0.0811
C63_7 C 0.05865(17) 0.3109(2) 0.01991(16)
C65_7 C 0.0957(4) 0.3486(5) 0.0339(4)
C66_7 C 0.0826(7) 0.3766(8) 0.0756(6)
H53_7 H 0.1084 0.3990 0.0816
H54_7 H 0.0791 0.3562 0.1017
H55_7 H 0.0517 0.3927 0.0704
C67_7 C 0.1409(7) 0.3259(6) 0.0482(6)
H56_7 H 0.1649 0.3490 0.0572
H57_7 H 0.1540 0.3078 0.0231
H58_7 H 0.1340 0.3058 0.0738
H59_7 H 0.1427 0.3984 0.0128
H65_7 H 0.0010 0.2417 0.1245
O22_7 O 0.2103(3) 0.1913(2) 0.04580(15)
O23_7 O 0.1947(6) 0.1663(4) 0.1121(2)
C77_7 C 0.2201(5) 0.1887(5) 0.0859(4)
C78_7 C 0.2651(6) 0.2136(6) 0.0951(7)
H69_7 H 0.2759 0.2293 0.0677
H70_7 H 0.2904 0.1920 0.1049
H71_7 H 0.2593 0.2361 0.1190
P1_7 P 0.26656(7) 0.38831(5) 0.80939(5)
P2_7 P 0.12971(6) 0.25806(7) 0.93313(5)
O7_7 O 0.21935(19) 0.42060(17) 0.80005(16)
O8_7 O 0.31182(17) 0.42270(14) 0.81737(14)
O9_7 O 0.2804(2) 0.36412(15) 0.76696(14)
O10_7 O 0.2540(2) 0.36311(13) 0.84998(14)
O15_7 O 0.09536(15) 0.21488(17) 0.92411(14)
O16_7 O 0.09292(16) 0.29845(18) 0.94563(16)
O17_7 O 0.15767(16) 0.2447(2) 0.97289(15)
O18_7 O 0.15508(15) 0.2744(2) 0.89219(13)
O21_7 O 0.3347(2) 0.3116(3) 0.69183(18)
C5_7 C 0.2547(3) 0.6773(2) 0.5877(2)
C6_7 C 0.2484(2) 0.63990(11) 0.62044(12)
C7_7 C 0.2350(2) 0.64973(11) 0.66465(14)
H1_7 H 0.2280 0.6803 0.6732
C8_7 C 0.2319(2) 0.61479(14) 0.69632(11)
H2_7 H 0.2227 0.6215 0.7265
C9_7 C 0.2421(2) 0.57001(12) 0.68378(13)
C10_7 C 0.2555(3) 0.56019(10) 0.63956(15)
H3_7 H 0.2625 0.5296 0.6310
C11_7 C 0.2587(2) 0.59513(13) 0.60789(11)
H4_7 H 0.2678 0.5884 0.5777
C12_7 C 0.1613(4) 0.4215(3) 0.7154(4)
C13_7 C 0.2349(2) 0.53254(14) 0.71677(14)
C14_7 C 0.25942(19) 0.53061(13) 0.75780(15)
C15_7 C 0.25324(19) 0.49315(14) 0.78610(13)
C16_7 C 0.2225(2) 0.45761(13) 0.77337(14)
C17_7 C 0.1980(2) 0.45953(15) 0.73234(16)
C18_7 C 0.2042(2) 0.49699(17) 0.70404(14)
H5_7 H 0.1874 0.4983 0.6760
C19_7 C 0.1276(6) 0.4376(5) 0.6772(6)
H6_7 H 0.1063 0.4123 0.6680
H7_7 H 0.1473 0.4474 0.6513
H8_7 H 0.1076 0.4632 0.6878
C20_7 C 0.1906(5) 0.3780(4) 0.7017(6)
H9_7 H 0.1679 0.3544 0.6911
H10_7 H 0.2086 0.3665 0.7280
H11_7 H 0.2136 0.3856 0.6775
C21_7 C 0.1324(8) 0.4022(11) 0.7530(6)
H12_7 H 0.1104 0.3786 0.7413
H13_7 H 0.1133 0.4265 0.7672
H14_7 H 0.1544 0.3886 0.7753
C22_7 C 0.3004(4) 0.5653(3) 0.7688(3)
H15_7 H 0.3005 0.5896 0.7460
H16_7 H 0.3319 0.5496 0.7686
H17_7 H 0.2946 0.5786 0.7987
C23_7 C 0.27235(17) 0.49341(13) 0.83381(12)
C24_7 C 0.26524(17) 0.53059(13) 0.86229(14)
C25_7 C 0.29156(19) 0.53399(13) 0.90226(13)
C26_7 C 0.32500(17) 0.50022(15) 0.91375(11)
H18_7 H 0.3430 0.5025 0.9411
C27_7 C 0.33211(16) 0.46305(13) 0.88527(13)
C28_7 C 0.30579(17) 0.45964(12) 0.84530(12)
C29_7 C 0.3750(3) 0.4295(2) 0.8976(2)
C30_7 C 0.4117(5) 0.4302(5) 0.8588(5)
H19_7 H 0.4386 0.4094 0.8657
H20_7 H 0.4244 0.4613 0.8550
H21_7 H 0.3955 0.4205 0.8309
C31_7 C 0.4003(5) 0.4430(4) 0.9412(4)
H22_7 H 0.4266 0.4213 0.9477
H23_7 H 0.3766 0.4427 0.9660
H24_7 H 0.4140 0.4738 0.9381
C32_7 C 0.3569(4) 0.3798(3) 0.9009(4)
H25_7 H 0.3843 0.3597 0.9084
H26_7 H 0.3429 0.3705 0.8718
H27_7 H 0.3319 0.3776 0.9244
C33_7 C 0.2222(5) 0.5638(3) 0.8527(3)
H28_7 H 0.2080 0.5567 0.8232
H29_7 H 0.2342 0.5953 0.8527
H30_7 H 0.1973 0.5602 0.8762
C34_7 C 0.2856(2) 0.57413(12) 0.93379(13)
C35_7 C 0.2677(2) 0.56839(10) 0.97730(13)
H31_7 H 0.2597 0.5387 0.9879
C37_7 C 0.27310(19) 0.64957(11) 0.98967(12)
C38_7 C 0.2911(2) 0.65531(11) 0.94616(14)
H33_7 H 0.2991 0.6850 0.9355
C39_7 C 0.2974(2) 0.61759(15) 0.91821(11)
H34_7 H 0.3096 0.6215 0.8885
C48_7 C 0.0838(3) 0.1594(3) 0.8411(2)
C51_7 C 0.01622(14) 0.24602(17) 0.91724(11)
C52_7 C 0.05264(12) 0.21781(17) 0.90022(12)
C53_7 C 0.04668(13) 0.19685(16) 0.85846(13)
C54_7 C 0.00429(15) 0.20410(17) 0.83372(11)
H39_7 H 0.0002 0.1898 0.8052
C55_7 C 0.0906(4) 0.1235(3) 0.8788(4)
H40_7 H 0.1136 0.1000 0.8687
H41_7 H 0.0591 0.1092 0.8857
H42_7 H 0.1033 0.1384 0.9060
C56_7 C 0.1347(3) 0.1791(3) 0.8331(3)
H43_7 H 0.1565 0.1548 0.8225
H44_7 H 0.1474 0.1918 0.8614
H45_7 H 0.1330 0.2033 0.8103
C57_7 C 0.0677(3) 0.1379(4) 0.7970(3)
H46_7 H 0.0917 0.1151 0.7876
H47_7 H 0.0650 0.1617 0.7738
H48_7 H 0.0359 0.1232 0.8012
C59_7 C 0.02015(16) 0.26161(19) 0.96545(11)
C64_7 C 0.05699(15) 0.29217(18) 0.97681(13)
C68_7 C 0.1209(7) 0.3763(7) 0.9984(6)
H60_7 H 0.0965 0.3926 0.9803
H61_7 H 0.1399 0.3560 0.9789
H75_7 H 0.362651 0.332786 0.695931
H76_7 H 0.346778 0.281717 0.680516
C61_7 C 0.98665(16) 0.2686(2) 0.04028(13)
H64_7 H 0.9580 0.1842 0.0074
C70_7 C 0.95096(13) 0.2579(2) 0.07621(13)
C71_7 C 0.96706(11) 0.2446(3) 0.11873(15)
C72_7 C 0.93351(15) 0.2357(2) 0.15279(12)
H66_7 H 0.9445 0.2266 0.1819
C73_7 C 0.88386(14) 0.2400(2) 0.14433(12)
C74_7 C 0.86775(11) 0.2533(2) 0.10180(14)
H67_7 H 0.8338 0.2563 0.0960
C75_7 C 0.90130(15) 0.2622(2) 0.06774(12)
H68_7 H 0.8903 0.2713 0.0387
C76_7 C 0.8469(2) 0.2281(3) 0.1794(2)
C41_7 C 0.7943(2) 0.2686(2) 0.74572(19)
C42_7 C 0.83984(11) 0.25583(18) 0.77026(12)
C43_7 C 0.83604(11) 0.2342(2) 0.81192(14)
H35_7 H 0.8050 0.2247 0.8228
C44_7 C 0.87759(15) 0.2265(2) 0.83771(12)
H36_7 H 0.8750 0.2118 0.8662
C45_7 C 0.92294(12) 0.2404(2) 0.82185(13)
C46_7 C 0.92674(10) 0.26204(18) 0.78019(14)
H37_7 H 0.9577 0.2715 0.7693
C47_7 C 0.88519(13) 0.26973(17) 0.75439(11)
H38_7 H 0.8878 0.2845 0.7259
C49_7 C 0.96787(12) 0.23232(19) 0.85074(13)
C50_7 C 0.97384(13) 0.25328(17) 0.89250(14)
C58_7 C 0.9369(4) 0.2886(4) 0.9078(3)
H49_7 H 0.9461 0.3001 0.9377
H50_7 H 0.9045 0.2746 0.9094
H51_7 H 0.9363 0.3140 0.8862
C60_7 C 0.98498(15) 0.24981(19) 0.99718(14)
C69_7 C 0.9497(3) 0.2101(3) 0.9879(3)
H62_7 H 0.9525 0.2009 0.9562
H63_7 H 0.9162 0.2200 0.9941
C41_8 C 0.2057(2) 0.7314(2) 0.24572(19)
C42_8 C 0.16016(11) 0.74417(18) 0.27026(12)
C43_8 C 0.16396(11) 0.7658(2) 0.31192(14)
H35_8 H 0.1950 0.7753 0.3228
C44_8 C 0.12241(15) 0.7735(2) 0.33771(12)
H36_8 H 0.1250 0.7882 0.3662
C45_8 C 0.07706(12) 0.7596(2) 0.32185(13)
C46_8 C 0.07326(10) 0.73796(18) 0.28019(14)
H37_8 H 0.0423 0.7285 0.2693
C47_8 C 0.11481(13) 0.73027(17) 0.25439(11)
H38_8 H 0.1122 0.7155 0.2259
C49_8 C 0.03213(12) 0.76768(19) 0.35074(13)
C50_8 C 0.02616(13) 0.74672(17) 0.39250(14)
C58_8 C 0.0631(4) 0.7114(4) 0.4078(3)
H49_8 H 0.0539 0.6999 0.4377
H50_8 H 0.0955 0.7254 0.4094
H51_8 H 0.0637 0.6860 0.3862
C60_8 C 0.01502(15) 0.75019(19) 0.49718(14)
C61_8 C 0.01335(16) 0.7314(2) 0.54028(13)
C69_8 C 0.0503(3) 0.7899(3) 0.4879(3)
H62_8 H 0.0475 0.7991 0.4562
H63_8 H 0.0838 0.7800 0.4941
H64_8 H 0.0420 0.8158 0.5074
C70_8 C 0.04904(13) 0.7421(2) 0.57621(13)
C71_8 C 0.03294(11) 0.7554(3) 0.61873(15)
C72_8 C 0.06649(15) 0.7643(2) 0.65279(12)
H66_8 H 0.0555 0.7734 0.6819
C73_8 C 0.11614(14) 0.7600(2) 0.64433(12)
C74_8 C 0.13225(11) 0.7467(2) 0.60180(14)
H67_8 H 0.1662 0.7437 0.5960
C75_8 C 0.09870(15) 0.7378(2) 0.56774(12)
H68_8 H 0.1097 0.7287 0.5387
C76_8 C 0.1531(2) 0.7719(3) 0.6794(2)
P1_8 P 0.73344(7) 0.61169(5) 0.30939(5)
P2_8 P 0.87029(6) 0.74194(7) 0.43313(5)
O7_8 O 0.78065(19) 0.57940(17) 0.30005(16)
O8_8 O 0.68818(17) 0.57730(14) 0.31737(14)
O9_8 O 0.7196(2) 0.63588(15) 0.26696(14)
O10_8 O 0.7460(2) 0.63689(13) 0.34998(14)
O15_8 O 0.90464(15) 0.78512(17) 0.42411(14)
O16_8 O 0.90708(16) 0.70155(18) 0.44563(16)
O17_8 O 0.84233(16) 0.7553(2) 0.47289(15)
O18_8 O 0.84492(15) 0.7256(2) 0.39219(13)
O21_8 O 0.6653(2) 0.6884(3) 0.19183(18)
C5_8 C 0.7453(3) 0.3227(2) 0.0877(2)
C6_8 C 0.7516(2) 0.36010(11) 0.12044(12)
C7_8 C 0.7650(2) 0.35027(11) 0.16465(14)
H1_8 H 0.7720 0.3197 0.1732
C8_8 C 0.7681(2) 0.38521(14) 0.19632(11)
H2_8 H 0.7773 0.3785 0.2265
C9_8 C 0.7579(2) 0.42999(12) 0.18378(13)
C10_8 C 0.7445(3) 0.43981(10) 0.13956(15)
H3_8 H 0.7375 0.4704 0.1310
C11_8 C 0.7413(2) 0.40487(13) 0.10789(11)
H4_8 H 0.7322 0.4116 0.0777
C12_8 C 0.8387(4) 0.5785(3) 0.2154(4)
C13_8 C 0.7651(2) 0.46746(14) 0.21677(14)
C14_8 C 0.74058(19) 0.46939(13) 0.25780(15)
C15_8 C 0.74676(19) 0.50685(14) 0.28610(13)
C16_8 C 0.7775(2) 0.54239(13) 0.27337(14)
C17_8 C 0.8020(2) 0.54047(15) 0.23234(16)
C18_8 C 0.7958(2) 0.50301(17) 0.20404(14)
H5_8 H 0.8126 0.5017 0.1760
C19_8 C 0.8724(6) 0.5624(5) 0.1772(6)
H6_8 H 0.8937 0.5877 0.1680
H7_8 H 0.8527 0.5526 0.1513
H8_8 H 0.8924 0.5368 0.1878
C20_8 C 0.8094(5) 0.6220(4) 0.2017(6)
H9_8 H 0.8321 0.6456 0.1911
H10_8 H 0.7914 0.6335 0.2280
H11_8 H 0.7864 0.6144 0.1775
C21_8 C 0.8676(8) 0.5978(11) 0.2530(6)
H12_8 H 0.8896 0.6214 0.2413
H13_8 H 0.8867 0.5735 0.2672
H14_8 H 0.8456 0.6114 0.2753
C22_8 C 0.6996(4) 0.4347(3) 0.2688(3)
H15_8 H 0.6995 0.4104 0.2460
H16_8 H 0.6681 0.4504 0.2686
H17_8 H 0.7054 0.4214 0.2987
C23_8 C 0.72765(17) 0.50659(13) 0.33381(12)
C24_8 C 0.73476(17) 0.46941(13) 0.36229(14)
C25_8 C 0.70844(19) 0.46601(13) 0.40226(13)
C26_8 C 0.67500(17) 0.49978(15) 0.41375(11)
H18_8 H 0.6570 0.4975 0.4411
C27_8 C 0.66789(16) 0.53695(13) 0.38527(13)
C28_8 C 0.69421(17) 0.54036(12) 0.34530(12)
C29_8 C 0.6250(3) 0.5705(2) 0.3976(2)
C30_8 C 0.5883(5) 0.5698(5) 0.3588(5)
H19_8 H 0.5614 0.5906 0.3657
H20_8 H 0.5756 0.5387 0.3550
H21_8 H 0.6045 0.5795 0.3309
C31_8 C 0.5997(5) 0.5570(4) 0.4412(4)
H22_8 H 0.5734 0.5787 0.4477
H23_8 H 0.6234 0.5573 0.4660
H24_8 H 0.5860 0.5262 0.4381
C32_8 C 0.6431(4) 0.6202(3) 0.4009(4)
H25_8 H 0.6157 0.6403 0.4084
H26_8 H 0.6571 0.6295 0.3718
H27_8 H 0.6681 0.6224 0.4244
C33_8 C 0.7778(5) 0.4362(3) 0.3527(3)
H28_8 H 0.7920 0.4433 0.3232
H29_8 H 0.7658 0.4047 0.3527
H30_8 H 0.8027 0.4398 0.3762
C34_8 C 0.7144(2) 0.42587(12) 0.43379(13)
C35_8 C 0.7323(2) 0.43161(10) 0.47730(13)
H31_8 H 0.7403 0.4613 0.4879
C36_8 C 0.7386(2) 0.39389(13) 0.50525(10)
H32_8 H 0.7509 0.3978 0.5350
C37_8 C 0.72690(19) 0.35043(11) 0.48967(12)
C38_8 C 0.7089(2) 0.34469(11) 0.44616(14)
H33_8 H 0.7009 0.3150 0.4355
C39_8 C 0.7026(2) 0.38241(15) 0.41821(11)
H34_8 H 0.6904 0.3785 0.3885
C40_8 C 0.7363(2) 0.3088(2) 0.51818(18)
C48_8 C 0.9162(3) 0.8406(3) 0.3411(2)
C51_8 C 0.98378(14) 0.75398(17) 0.41724(11)
C52_8 C 0.94736(12) 0.78219(17) 0.40022(12)
C53_8 C 0.95332(13) 0.80315(16) 0.35846(13)
C54_8 C 0.99571(15) 0.79590(17) 0.33372(11)
H39_8 H 0.9998 0.8102 0.3052
C55_8 C 0.9094(4) 0.8765(3) 0.3788(4)
H40_8 H 0.8864 0.9000 0.3687
H41_8 H 0.9409 0.8908 0.3857
H42_8 H 0.8967 0.8616 0.4060
C56_8 C 0.8653(3) 0.8209(3) 0.3331(3)
H43_8 H 0.8435 0.8452 0.3225
H44_8 H 0.8526 0.8082 0.3614
H45_8 H 0.8670 0.7967 0.3103
C57_8 C 0.9323(3) 0.8621(4) 0.2970(3)
H46_8 H 0.9083 0.8849 0.2876
H47_8 H 0.9350 0.8383 0.2738
H48_8 H 0.9641 0.8768 0.3012
C59_8 C 0.97985(16) 0.73839(19) 0.46545(11)
C62_8 C 0.97652(18) 0.7009(2) 0.55164(13)
H52_8 H 0.9754 0.6881 0.5811
C63_8 C 0.94135(17) 0.6891(2) 0.51991(16)
C64_8 C 0.94301(15) 0.70783(18) 0.47681(13)
C65_8 C 0.9043(4) 0.6514(5) 0.5339(4)
C66_8 C 0.9174(7) 0.6234(8) 0.5756(6)
H53_8 H 0.8916 0.6010 0.5816
H54_8 H 0.9209 0.6438 0.6017
H55_8 H 0.9483 0.6073 0.5704
C67_8 C 0.8591(7) 0.6741(6) 0.5482(6)
H56_8 H 0.8351 0.6510 0.5572
H57_8 H 0.8460 0.6922 0.5231
H58_8 H 0.8660 0.6942 0.5738
C68_8 C 0.8791(7) 0.6237(7) 0.4984(6)
H59_8 H 0.8573 0.6016 0.5128
H60_8 H 0.9035 0.6074 0.4803
H61_8 H 0.8601 0.6440 0.4789
H65_8 H 0.9990 0.7583 0.6245
O22_8 O 0.7897(3) 0.8087(2) 0.54580(15)
O23_8 O 0.8053(6) 0.8337(4) 0.6121(2)
C77_8 C 0.7799(5) 0.8113(5) 0.5859(4)
C78_8 C 0.7349(6) 0.7864(6) 0.5951(7)
H69_8 H 0.7241 0.7707 0.5677
H70_8 H 0.7096 0.8080 0.6049
H71_8 H 0.7407 0.7639 0.6190
H75_8 H 0.637349 0.667214 0.195931
H76_8 H 0.653222 0.718283 0.180516
loop_
_geom_bond_atom_site_label_1
_geom_bond_atom_site_label_2
_geom_bond_site_symmetry_1
_geom_bond_site_symmetry_2
O1 C1 1_555 1_555
O2 C1 1_555 1_555
C1 C2 1_555 1_555
C2 H77 1_555 1_555
C2 H78 1_555 1_555
C2 H79 1_555 1_555
O1_2 C1_2 1_555 1_555
O2_2 C1_2 1_555 1_555
C1_2 C2_2 1_555 1_555
C2_2 H77_2 1_555 1_555
C2_2 H78_2 1_555 1_555
C2_2 H79_2 1_555 1_555
O1_3 C1_3 1_555 1_555
O2_3 C1_3 1_555 1_555
C1_3 C2_3 1_555 1_555
C2_3 H77_3 1_555 1_555
C2_3 H78_3 1_555 1_555
C2_3 H79_3 1_555 1_555
O1_4 C1_4 1_555 1_555
O2_4 C1_4 1_555 1_555
C1_4 C2_4 1_555 1_555
C2_4 H77_4 1_555 1_555
C2_4 H78_4 1_555 1_555
C2_4 H79_4 1_555 1_555
O1_5 C1_5 1_555 1_555
O2_5 C1_5 1_555 1_555
C1_5 C2_5 1_555 1_555
C2_5 H77_5 1_555 1_555
C2_5 H79_5 1_555 1_555
O1_6 C1_6 1_555 1_555
O2_6 C1_6 1_555 1_555
C1_6 C2_6 1_555 1_555
C2_6 H77_6 1_555 1_555
C2_6 H79_6 1_555 1_555
O1_7 C1_7 1_555 1_555
O2_7 C1_7 1_555 1_555
C1_7 C2_7 1_555 1_555
C2_7 H77_7 1_555 1_555
C2_7 H79_7 1_555 1_555
O1_8 C1_8 1_555 1_555
O2_8 C1_8 1_555 1_555
C1_8 C2_8 1_555 1_555
C2_8 H77_8 1_555 1_555
C2_8 H79_8 1_555 1_555
O3 C3 1_555 1_555
C3 C4 1_555 1_555
O4 C3 1_555 1_555
C4 H72 1_555 1_555
C4 H73 1_555 1_555
C4 H74 1_555 1_555
O3_2 C3_2 1_555 1_555
C3_2 C4_2 1_555 1_555
O4_2 C3_2 1_555 1_555
C4_2 H72_2 1_555 1_555
C4_2 H73_2 1_555 1_555
C4_2 H74_2 1_555 1_555
O3_3 C3_3 1_555 1_555
C3_3 C4_3 1_555 1_555
O4_3 C3_3 1_555 1_555
C4_3 H72_3 1_555 1_555
C4_3 H73_3 1_555 1_555
C4_3 H74_3 1_555 1_555
O3_4 C3_4 1_555 1_555
C3_4 C4_4 1_555 1_555
O4_4 C3_4 1_555 1_555
C4_4 H72_4 1_555 1_555
C4_4 H73_4 1_555 1_555
C4_4 H74_4 1_555 1_555
O3_5 C3_5 1_555 1_555
C3_5 C4_5 1_555 1_555
O4_5 C3_5 1_555 1_555
C4_5 H72_5 1_555 1_555
C4_5 H73_5 1_555 1_555
C4_5 H74_5 1_555 1_555
O3_6 C3_6 1_555 1_555
C3_6 C4_6 1_555 1_555
O4_6 C3_6 1_555 1_555
C4_6 H72_6 1_555 1_555
C4_6 H73_6 1_555 1_555
C4_6 H74_6 1_555 1_555
O3_7 C3_7 1_555 1_555
C3_7 C4_7 1_555 1_555
O4_7 C3_7 1_555 1_555
C4_7 H72_7 1_555 1_555
C4_7 H73_7 1_555 1_555
C4_7 H74_7 1_555 1_555
O3_8 C3_8 1_555 1_555
C3_8 C4_8 1_555 1_555
O4_8 C3_8 1_555 1_555
C4_8 H72_8 1_555 1_555
C4_8 H73_8 1_555 1_555
C4_8 H74_8 1_555 1_555
Ga1 O9 1_555 1_555
Ga2 O10 1_555 1_555
Ga3 O17 1_555 1_555
P1 O7 1_555 1_555
P2 O15 1_555 1_555
O7 C16 1_555 1_555
O8 P1 1_555 1_555
O9 P1 1_555 1_555
O10 P1 1_555 1_555
O13 C41 1_555 1_555
O14 C41 1_555 1_555
O15 C52 1_555 1_555
O16 P2 1_555 1_555
O17 P2 1_555 1_555
O18 Ga2 1_555 1_555
O21 Ga1 1_555 1_555
C12 C17 1_555 1_555
C16 C15 1_555 1_555
C17 C16 1_555 1_555
H5 C18 1_555 1_555
C19 C12 1_555 1_555
H6 C19 1_555 1_555
H7 C19 1_555 1_555
H8 C19 1_555 1_555
C20 C12 1_555 1_555
H9 C20 1_555 1_555
H10 C20 1_555 1_555
H11 C20 1_555 1_555
C21 C12 1_555 1_555
H12 C21 1_555 1_555
H13 C21 1_555 1_555
H14 C21 1_555 1_555
C23 C15 1_555 1_555
C28 O8 1_555 1_555
C29 C27 1_555 1_555
C30 C29 1_555 1_555
H19 C30 1_555 1_555
H20 C30 1_555 1_555
H21 C30 1_555 1_555
C31 C29 1_555 1_555
H22 C31 1_555 1_555
H23 C31 1_555 1_555
H24 C31 1_555 1_555
C32 C29 1_555 1_555
H25 C32 1_555 1_555
H26 C32 1_555 1_555
H27 C32 1_555 1_555
C41 C42 1_555 1_555
C42 C43 1_555 1_555
C43 H35 1_555 1_555
C44 C43 1_555 1_555
H36 C44 1_555 1_555
C45 C44 1_555 1_555
C46 C45 1_555 1_555
H37 C46 1_555 1_555
C47 C42 1_555 1_555
H38 C47 1_555 1_555
C48 C53 1_555 1_555
C49 C45 1_555 1_555
C50 C49 1_555 1_555
C51 C50 1_555 1_555
C52 C51 1_555 1_555
C53 C52 1_555 1_555
C54 C49 1_555 1_555
H39 C54 1_555 1_555
C55 C48 1_555 1_555
H40 C55 1_555 1_555
H41 C55 1_555 1_555
H42 C55 1_555 1_555
C56 C48 1_555 1_555
H43 C56 1_555 1_555
H44 C56 1_555 1_555
H45 C56 1_555 1_555
C57 C48 1_555 1_555
H46 C57 1_555 1_555
H47 C57 1_555 1_555
H48 C57 1_555 1_555
C58 C50 1_555 1_555
H49 C58 1_555 1_555
H50 C58 1_555 1_555
H51 C58 1_555 1_555
C59 C51 1_555 1_555
C60 C59 1_555 1_555
C64 O16 1_555 1_555
H60 C68 1_555 1_555
H61 C68 1_555 1_555
C69 C60 1_555 1_555
H62 C69 1_555 1_555
H63 C69 1_555 1_555
Ga4 O13 1_555 1_555
Ga7 O14 1_555 1_555
O24 Ga3 1_555 1_555
O25 Ga2 1_555 1_555
O27 Ga2 1_555 1_555
O28 Ga1 1_555 1_555
O29 Ga2 1_555 1_555
O30 Ga1 1_555 1_555
O31 Ga2 1_555 1_555
P2 O18 1_555 1_555
C17 C18 1_555 1_555
C23 C28 1_555 1_555
C27 C28 1_555 1_555
C46 C47 1_555 1_555
C53 C54 1_555 1_555
C59 C64 1_555 1_555
O21 H75 1_555 1_555
O21 H76 1_555 1_555
O19 C76 1_555 1_555
O20 C76 1_555 1_555
C62 C61 1_555 1_555
H52 C62 1_555 1_555
C63 C62 1_555 1_555
C65 C63 1_555 1_555
C66 C65 1_555 1_555
H53 C66 1_555 1_555
H54 C66 1_555 1_555
H55 C66 1_555 1_555
C67 C65 1_555 1_555
H56 C67 1_555 1_555
H57 C67 1_555 1_555
H58 C67 1_555 1_555
C70 C61 1_555 1_555
C71 C70 1_555 1_555
H65 C71 1_555 1_555
C72 C71 1_555 1_555
H66 C72 1_555 1_555
C73 C72 1_555 1_555
C74 C73 1_555 1_555
H67 C74 1_555 1_555
C75 C70 1_555 1_555
H68 C75 1_555 1_555
C76 C73 1_555 1_555
O23 C77 1_555 1_555
C77 O22 1_555 1_555
C78 C77 1_555 1_555
H69 C78 1_555 1_555
H70 C78 1_555 1_555
H71 C78 1_555 1_555
Ga5 O19 1_555 1_555
Ga8 O20 1_555 1_555
C74 C75 1_555 1_555
O5 C5 1_555 1_555
O6 C5 1_555 1_555
C5 C6 1_555 1_555
C6 C7 1_555 1_555
C7 H1 1_555 1_555
C8 C7 1_555 1_555
H2 C8 1_555 1_555
C9 C8 1_555 1_555
C10 C9 1_555 1_555
H3 C10 1_555 1_555
C11 C6 1_555 1_555
H4 C11 1_555 1_555
C13 C9 1_555 1_555
C14 C13 1_555 1_555
C22 C14 1_555 1_555
H15 C22 1_555 1_555
H16 C22 1_555 1_555
H17 C22 1_555 1_555
C25 C24 1_555 1_555
C26 C25 1_555 1_555
H18 C26 1_555 1_555
C33 C24 1_555 1_555
H28 C33 1_555 1_555
H29 C33 1_555 1_555
H30 C33 1_555 1_555
C34 C25 1_555 1_555
C35 C34 1_555 1_555
H31 C35 1_555 1_555
C38 C37 1_555 1_555
H33 C38 1_555 1_555
C39 C34 1_555 1_555
H34 C39 1_555 1_555
Ga9 O6 1_555 1_555
Ga11 O5 1_555 1_555
C10 C11 1_555 1_555
C38 C39 1_555 1_555
O12 C40 1_555 1_555
H32 C36 1_555 1_555
Ga6 O12 1_555 1_555
O5_2 C5_2 1_555 1_555
O6_2 C5_2 1_555 1_555
O11_2 C40_2 1_555 1_555
O12_2 C40_2 1_555 1_555
C5_2 C6_2 1_555 1_555
C6_2 C7_2 1_555 1_555
C7_2 H1_2 1_555 1_555
C8_2 C7_2 1_555 1_555
H2_2 C8_2 1_555 1_555
C9_2 C8_2 1_555 1_555
C10_2 C9_2 1_555 1_555
H3_2 C10_2 1_555 1_555
C11_2 C6_2 1_555 1_555
H4_2 C11_2 1_555 1_555
C13_2 C9_2 1_555 1_555
C14_2 C13_2 1_555 1_555
C22_2 C14_2 1_555 1_555
H15_2 C22_2 1_555 1_555
H16_2 C22_2 1_555 1_555
H17_2 C22_2 1_555 1_555
C25_2 C24_2 1_555 1_555
C26_2 C25_2 1_555 1_555
H18_2 C26_2 1_555 1_555
C33_2 C24_2 1_555 1_555
H28_2 C33_2 1_555 1_555
H29_2 C33_2 1_555 1_555
H30_2 C33_2 1_555 1_555
C34_2 C25_2 1_555 1_555
C35_2 C34_2 1_555 1_555
H31_2 C35_2 1_555 1_555
C36_2 C35_2 1_555 1_555
H32_2 C36_2 1_555 1_555
C37_2 C36_2 1_555 1_555
C38_2 C37_2 1_555 1_555
H33_2 C38_2 1_555 1_555
C39_2 C34_2 1_555 1_555
H34_2 C39_2 1_555 1_555
C40_2 C37_2 1_555 1_555
Ga7 O12_2 1_555 1_555
Ga8 O6_2 1_555 1_555
Ga10_2 O11_2 1_555 1_555
Ga11_2 O5_2 1_555 1_555
C10_2 C11_2 1_555 1_555
C38_2 C39_2 1_555 1_555
Ga1_2 O9_2 1_555 1_555
Ga2_2 O10_2 1_555 1_555
Ga3_2 O17_2 1_555 1_555
P1_2 O7_2 1_555 1_555
P2_2 O15_2 1_555 1_555
O7_2 C16_2 1_555 1_555
O8_2 P1_2 1_555 1_555
O9_2 P1_2 1_555 1_555
O10_2 P1_2 1_555 1_555
O13_2 C41_2 1_555 1_555
O14_2 C41_2 1_555 1_555
O15_2 C52_2 1_555 1_555
O16_2 P2_2 1_555 1_555
O17_2 P2_2 1_555 1_555
O18_2 Ga2_2 1_555 1_555
O19_2 C76_2 1_555 1_555
O20_2 C76_2 1_555 1_555
O21_2 Ga1_2 1_555 1_555
C12_2 C17_2 1_555 1_555
C16_2 C15_2 1_555 1_555
C17_2 C16_2 1_555 1_555
H5_2 C18_2 1_555 1_555
C19_2 C12_2 1_555 1_555
H6_2 C19_2 1_555 1_555
H7_2 C19_2 1_555 1_555
H8_2 C19_2 1_555 1_555
C20_2 C12_2 1_555 1_555
H9_2 C20_2 1_555 1_555
H10_2 C20_2 1_555 1_555
H11_2 C20_2 1_555 1_555
C21_2 C12_2 1_555 1_555
H12_2 C21_2 1_555 1_555
H13_2 C21_2 1_555 1_555
H14_2 C21_2 1_555 1_555
C23_2 C15_2 1_555 1_555
C28_2 O8_2 1_555 1_555
C29_2 C27_2 1_555 1_555
C30_2 C29_2 1_555 1_555
H19_2 C30_2 1_555 1_555
H20_2 C30_2 1_555 1_555
H21_2 C30_2 1_555 1_555
C31_2 C29_2 1_555 1_555
H22_2 C31_2 1_555 1_555
H23_2 C31_2 1_555 1_555
H24_2 C31_2 1_555 1_555
C32_2 C29_2 1_555 1_555
H25_2 C32_2 1_555 1_555
H26_2 C32_2 1_555 1_555
H27_2 C32_2 1_555 1_555
C41_2 C42_2 1_555 1_555
C42_2 C43_2 1_555 1_555
C43_2 H35_2 1_555 1_555
C44_2 C43_2 1_555 1_555
H36_2 C44_2 1_555 1_555
C45_2 C44_2 1_555 1_555
C46_2 C45_2 1_555 1_555
H37_2 C46_2 1_555 1_555
C47_2 C42_2 1_555 1_555
H38_2 C47_2 1_555 1_555
C48_2 C53_2 1_555 1_555
C49_2 C45_2 1_555 1_555
C50_2 C49_2 1_555 1_555
C51_2 C50_2 1_555 1_555
C52_2 C51_2 1_555 1_555
C53_2 C52_2 1_555 1_555
C54_2 C49_2 1_555 1_555
H39_2 C54_2 1_555 1_555
C55_2 C48_2 1_555 1_555
H40_2 C55_2 1_555 1_555
H41_2 C55_2 1_555 1_555
H42_2 C55_2 1_555 1_555
C56_2 C48_2 1_555 1_555
H43_2 C56_2 1_555 1_555
H44_2 C56_2 1_555 1_555
H45_2 C56_2 1_555 1_555
C57_2 C48_2 1_555 1_555
H46_2 C57_2 1_555 1_555
H47_2 C57_2 1_555 1_555
H48_2 C57_2 1_555 1_555
C58_2 C50_2 1_555 1_555
H49_2 C58_2 1_555 1_555
H50_2 C58_2 1_555 1_555
H51_2 C58_2 1_555 1_555
C59_2 C51_2 1_555 1_555
C60_2 C59_2 1_555 1_555
C61_2 C60_2 1_555 1_555
C62_2 C61_2 1_555 1_555
H52_2 C62_2 1_555 1_555
C63_2 C62_2 1_555 1_555
C64_2 O16_2 1_555 1_555
C65_2 C63_2 1_555 1_555
C66_2 C65_2 1_555 1_555
H53_2 C66_2 1_555 1_555
H54_2 C66_2 1_555 1_555
H55_2 C66_2 1_555 1_555
C67_2 C65_2 1_555 1_555
H56_2 C67_2 1_555 1_555
H57_2 C67_2 1_555 1_555
H58_2 C67_2 1_555 1_555
C68_2 C65_2 1_555 1_555
H59_2 C68_2 1_555 1_555
H60_2 C68_2 1_555 1_555
H61_2 C68_2 1_555 1_555
C69_2 C60_2 1_555 1_555
H62_2 C69_2 1_555 1_555
H63_2 C69_2 1_555 1_555
H64_2 C69_2 1_555 1_555
C70_2 C61_2 1_555 1_555
C71_2 C70_2 1_555 1_555
H65_2 C71_2 1_555 1_555
C72_2 C71_2 1_555 1_555
H66_2 C72_2 1_555 1_555
C73_2 C72_2 1_555 1_555
C74_2 C73_2 1_555 1_555
H67_2 C74_2 1_555 1_555
C75_2 C70_2 1_555 1_555
H68_2 C75_2 1_555 1_555
C76_2 C73_2 1_555 1_555
O22_2 Ga3_2 1_555 1_555
O23_2 C77_2 1_555 1_555
C77_2 O22_2 1_555 1_555
C78_2 C77_2 1_555 1_555
H69_2 C78_2 1_555 1_555
H70_2 C78_2 1_555 1_555
H71_2 C78_2 1_555 1_555
Ga4_2 O13_2 1_555 1_555
Ga5_2 O19_2 1_555 1_555
Ga6 O14_2 1_555 1_555
Ga9 O20_2 1_555 1_555
O24_2 Ga3_2 1_555 1_555
O25_2 Ga2_2 1_555 1_555
O26_2 Ga3_2 1_555 1_555
O27_2 Ga2_2 1_555 1_555
O28_2 Ga1_2 1_555 1_555
O29_2 Ga2_2 1_555 1_555
O30_2 Ga1_2 1_555 1_555
O31_2 Ga2_2 1_555 1_555
P2_2 O18_2 1_555 1_555
C17_2 C18_2 1_555 1_555
C23_2 C28_2 1_555 1_555
C27_2 C28_2 1_555 1_555
C46_2 C47_2 1_555 1_555
C53_2 C54_2 1_555 1_555
C59_2 C64_2 1_555 1_555
C63_2 C64_2 1_555 1_555
C74_2 C75_2 1_555 1_555
O21_2 H75_2 1_555 1_555
O21_2 H76_2 1_555 1_555
O27 C40_3 1_555 1_555
H32_3 C36_3 1_555 1_555
O5_3 C5_3 1_555 1_555
O6_3 C5_3 1_555 1_555
C5_3 C6_3 1_555 1_555
C6_3 C7_3 1_555 1_555
C7_3 H1_3 1_555 1_555
C8_3 C7_3 1_555 1_555
H2_3 C8_3 1_555 1_555
C9_3 C8_3 1_555 1_555
C10_3 C9_3 1_555 1_555
H3_3 C10_3 1_555 1_555
C11_3 C6_3 1_555 1_555
H4_3 C11_3 1_555 1_555
C13_3 C9_3 1_555 1_555
C14_3 C13_3 1_555 1_555
C22_3 C14_3 1_555 1_555
H15_3 C22_3 1_555 1_555
H16_3 C22_3 1_555 1_555
H17_3 C22_3 1_555 1_555
C25_3 C24_3 1_555 1_555
C26_3 C25_3 1_555 1_555
H18_3 C26_3 1_555 1_555
C33_3 C24_3 1_555 1_555
H28_3 C33_3 1_555 1_555
H29_3 C33_3 1_555 1_555
H30_3 C33_3 1_555 1_555
C34_3 C25_3 1_555 1_555
C35_3 C34_3 1_555 1_555
H31_3 C35_3 1_555 1_555
C38_3 C37_3 1_555 1_555
H33_3 C38_3 1_555 1_555
C39_3 C34_3 1_555 1_555
H34_3 C39_3 1_555 1_555
Ga9_2 O6_3 1_555 1_555
Ga11_3 O5_3 1_555 1_555
C10_3 C11_3 1_555 1_555
C38_3 C39_3 1_555 1_555
O19_3 C76_3 1_555 1_555
O20_3 C76_3 1_555 1_555
C62_3 C61_3 1_555 1_555
H52_3 C62_3 1_555 1_555
C63_3 C62_3 1_555 1_555
C65_3 C63_3 1_555 1_555
C66_3 C65_3 1_555 1_555
H53_3 C66_3 1_555 1_555
H54_3 C66_3 1_555 1_555
H55_3 C66_3 1_555 1_555
C67_3 C65_3 1_555 1_555
H56_3 C67_3 1_555 1_555
H57_3 C67_3 1_555 1_555
H58_3 C67_3 1_555 1_555
C70_3 C61_3 1_555 1_555
C71_3 C70_3 1_555 1_555
H65_3 C71_3 1_555 1_555
C72_3 C71_3 1_555 1_555
H66_3 C72_3 1_555 1_555
C73_3 C72_3 1_555 1_555
C74_3 C73_3 1_555 1_555
H67_3 C74_3 1_555 1_555
C75_3 C70_3 1_555 1_555
H68_3 C75_3 1_555 1_555
C76_3 C73_3 1_555 1_555
O23_3 C77_3 1_555 1_555
C77_3 O22_3 1_555 1_555
C78_3 C77_3 1_555 1_555
H69_3 C78_3 1_555 1_555
H70_3 C78_3 1_555 1_555
H71_3 C78_3 1_555 1_555
Ga5_3 O19_3 1_555 1_555
Ga8_2 O20_3 1_555 1_555
C74_3 C75_3 1_555 1_555
Ga4_2 O9_3 1_555 1_555
Ga6 O10_3 1_555 1_555
Ga10 O17_3 1_555 1_555
P1_3 O7_3 1_555 1_555
P2_3 O15_3 1_555 1_555
O7_3 C16_3 1_555 1_555
O8_3 P1_3 1_555 1_555
O9_3 P1_3 1_555 1_555
O10_3 P1_3 1_555 1_555
O28_2 C41_3 1_555 1_555
O29_2 C41_3 1_555 1_555
O15_3 C52_3 1_555 1_555
O16_3 P2_3 1_555 1_555
O17_3 P2_3 1_555 1_555
O18_3 Ga6 1_555 1_555
O21_3 Ga4_2 1_555 1_555
C12_3 C17_3 1_555 1_555
C16_3 C15_3 1_555 1_555
C17_3 C16_3 1_555 1_555
H5_3 C18_3 1_555 1_555
C19_3 C12_3 1_555 1_555
H6_3 C19_3 1_555 1_555
H7_3 C19_3 1_555 1_555
H8_3 C19_3 1_555 1_555
C20_3 C12_3 1_555 1_555
H9_3 C20_3 1_555 1_555
H10_3 C20_3 1_555 1_555
H11_3 C20_3 1_555 1_555
C21_3 C12_3 1_555 1_555
H12_3 C21_3 1_555 1_555
H13_3 C21_3 1_555 1_555
H14_3 C21_3 1_555 1_555
C23_3 C15_3 1_555 1_555
C28_3 O8_3 1_555 1_555
C29_3 C27_3 1_555 1_555
C30_3 C29_3 1_555 1_555
H19_3 C30_3 1_555 1_555
H20_3 C30_3 1_555 1_555
H21_3 C30_3 1_555 1_555
C31_3 C29_3 1_555 1_555
H22_3 C31_3 1_555 1_555
H23_3 C31_3 1_555 1_555
H24_3 C31_3 1_555 1_555
C32_3 C29_3 1_555 1_555
H25_3 C32_3 1_555 1_555
H26_3 C32_3 1_555 1_555
H27_3 C32_3 1_555 1_555
C41_3 C42_3 1_555 1_555
C42_3 C43_3 1_555 1_555
C43_3 H35_3 1_555 1_555
C44_3 C43_3 1_555 1_555
H36_3 C44_3 1_555 1_555
C45_3 C44_3 1_555 1_555
C46_3 C45_3 1_555 1_555
H37_3 C46_3 1_555 1_555
C47_3 C42_3 1_555 1_555
H38_3 C47_3 1_555 1_555
C48_3 C53_3 1_555 1_555
C49_3 C45_3 1_555 1_555
C50_3 C49_3 1_555 1_555
C51_3 C50_3 1_555 1_555
C52_3 C51_3 1_555 1_555
C53_3 C52_3 1_555 1_555
C54_3 C49_3 1_555 1_555
H39_3 C54_3 1_555 1_555
C55_3 C48_3 1_555 1_555
H40_3 C55_3 1_555 1_555
H41_3 C55_3 1_555 1_555
H42_3 C55_3 1_555 1_555
C56_3 C48_3 1_555 1_555
H43_3 C56_3 1_555 1_555
H44_3 C56_3 1_555 1_555
H45_3 C56_3 1_555 1_555
C57_3 C48_3 1_555 1_555
H46_3 C57_3 1_555 1_555
H47_3 C57_3 1_555 1_555
H48_3 C57_3 1_555 1_555
C58_3 C50_3 1_555 1_555
H49_3 C58_3 1_555 1_555
H50_3 C58_3 1_555 1_555
H51_3 C58_3 1_555 1_555
C59_3 C51_3 1_555 1_555
C60_3 C59_3 1_555 1_555
C64_3 O16_3 1_555 1_555
H60_3 C68_3 1_555 1_555
H61_3 C68_3 1_555 1_555
C69_3 C60_3 1_555 1_555
H62_3 C69_3 1_555 1_555
H63_3 C69_3 1_555 1_555
O24_3 Ga10 1_555 1_555
O25_3 Ga6 1_555 1_555
O30_3 Ga4_2 1_555 1_555
O31_3 Ga6 1_555 1_555
P2_3 O18_3 1_555 1_555
C17_3 C18_3 1_555 1_555
C23_3 C28_3 1_555 1_555
C27_3 C28_3 1_555 1_555
C46_3 C47_3 1_555 1_555
C53_3 C54_3 1_555 1_555
C59_3 C64_3 1_555 1_555
O21_3 H75_3 1_555 1_555
O21_3 H76_3 1_555 1_555
Ga4 O9_4 1_555 1_555
Ga7 O10_4 1_555 1_555
Ga10_2 O17_4 1_555 1_555
P1_4 O7_4 1_555 1_555
P2_4 O15_4 1_555 1_555
O7_4 C16_4 1_555 1_555
O8_4 P1_4 1_555 1_555
O9_4 P1_4 1_555 1_555
O10_4 P1_4 1_555 1_555
O28 C41_4 1_555 1_555
O29 C41_4 1_555 1_555
O15_4 C52_4 1_555 1_555
O16_4 P2_4 1_555 1_555
O17_4 P2_4 1_555 1_555
O18_4 Ga7 1_555 1_555
O19_4 C76_4 1_555 1_555
O20_4 C76_4 1_555 1_555
O21_4 Ga4 1_555 1_555
C12_4 C17_4 1_555 1_555
C16_4 C15_4 1_555 1_555
C17_4 C16_4 1_555 1_555
H5_4 C18_4 1_555 1_555
C19_4 C12_4 1_555 1_555
H6_4 C19_4 1_555 1_555
H7_4 C19_4 1_555 1_555
H8_4 C19_4 1_555 1_555
C20_4 C12_4 1_555 1_555
H9_4 C20_4 1_555 1_555
H10_4 C20_4 1_555 1_555
H11_4 C20_4 1_555 1_555
C21_4 C12_4 1_555 1_555
H12_4 C21_4 1_555 1_555
H13_4 C21_4 1_555 1_555
H14_4 C21_4 1_555 1_555
C23_4 C15_4 1_555 1_555
C28_4 O8_4 1_555 1_555
C29_4 C27_4 1_555 1_555
C30_4 C29_4 1_555 1_555
H19_4 C30_4 1_555 1_555
H20_4 C30_4 1_555 1_555
H21_4 C30_4 1_555 1_555
C31_4 C29_4 1_555 1_555
H22_4 C31_4 1_555 1_555
H23_4 C31_4 1_555 1_555
H24_4 C31_4 1_555 1_555
C32_4 C29_4 1_555 1_555
H25_4 C32_4 1_555 1_555
H26_4 C32_4 1_555 1_555
H27_4 C32_4 1_555 1_555
C41_4 C42_4 1_555 1_555
C42_4 C43_4 1_555 1_555
C43_4 H35_4 1_555 1_555
C44_4 C43_4 1_555 1_555
H36_4 C44_4 1_555 1_555
C45_4 C44_4 1_555 1_555
C46_4 C45_4 1_555 1_555
H37_4 C46_4 1_555 1_555
C47_4 C42_4 1_555 1_555
H38_4 C47_4 1_555 1_555
C48_4 C53_4 1_555 1_555
C49_4 C45_4 1_555 1_555
C50_4 C49_4 1_555 1_555
C51_4 C50_4 1_555 1_555
C52_4 C51_4 1_555 1_555
C53_4 C52_4 1_555 1_555
C54_4 C49_4 1_555 1_555
H39_4 C54_4 1_555 1_555
C55_4 C48_4 1_555 1_555
H40_4 C55_4 1_555 1_555
H41_4 C55_4 1_555 1_555
H42_4 C55_4 1_555 1_555
C56_4 C48_4 1_555 1_555
H43_4 C56_4 1_555 1_555
H44_4 C56_4 1_555 1_555
H45_4 C56_4 1_555 1_555
C57_4 C48_4 1_555 1_555
H46_4 C57_4 1_555 1_555
H47_4 C57_4 1_555 1_555
H48_4 C57_4 1_555 1_555
C58_4 C50_4 1_555 1_555
H49_4 C58_4 1_555 1_555
H50_4 C58_4 1_555 1_555
H51_4 C58_4 1_555 1_555
C59_4 C51_4 1_555 1_555
C60_4 C59_4 1_555 1_555
C61_4 C60_4 1_555 1_555
C62_4 C61_4 1_555 1_555
H52_4 C62_4 1_555 1_555
C63_4 C62_4 1_555 1_555
C64_4 O16_4 1_555 1_555
C65_4 C63_4 1_555 1_555
C66_4 C65_4 1_555 1_555
H53_4 C66_4 1_555 1_555
H54_4 C66_4 1_555 1_555
H55_4 C66_4 1_555 1_555
C67_4 C65_4 1_555 1_555
H56_4 C67_4 1_555 1_555
H57_4 C67_4 1_555 1_555
H58_4 C67_4 1_555 1_555
C68_4 C65_4 1_555 1_555
H59_4 C68_4 1_555 1_555
H60_4 C68_4 1_555 1_555
H61_4 C68_4 1_555 1_555
C69_4 C60_4 1_555 1_555
H62_4 C69_4 1_555 1_555
H63_4 C69_4 1_555 1_555
H64_4 C69_4 1_555 1_555
C70_4 C61_4 1_555 1_555
C71_4 C70_4 1_555 1_555
H65_4 C71_4 1_555 1_555
C72_4 C71_4 1_555 1_555
H66_4 C72_4 1_555 1_555
C73_4 C72_4 1_555 1_555
C74_4 C73_4 1_555 1_555
H67_4 C74_4 1_555 1_555
C75_4 C70_4 1_555 1_555
H68_4 C75_4 1_555 1_555
C76_4 C73_4 1_555 1_555
O22_4 Ga10_2 1_555 1_555
O23_4 C77_4 1_555 1_555
C77_4 O22_4 1_555 1_555
C78_4 C77_4 1_555 1_555
H69_4 C78_4 1_555 1_555
H70_4 C78_4 1_555 1_555
H71_4 C78_4 1_555 1_555
Ga5_4 O19_4 1_555 1_555
Ga9_2 O20_4 1_555 1_555
O24_4 Ga10_2 1_555 1_555
O25_4 Ga7 1_555 1_555
O30_4 Ga4 1_555 1_555
O31_4 Ga7 1_555 1_555
P2_4 O18_4 1_555 1_555
C17_4 C18_4 1_555 1_555
C23_4 C28_4 1_555 1_555
C27_4 C28_4 1_555 1_555
C46_4 C47_4 1_555 1_555
C53_4 C54_4 1_555 1_555
C59_4 C64_4 1_555 1_555
C63_4 C64_4 1_555 1_555
C74_4 C75_4 1_555 1_555
O21_4 H75_4 1_555 1_555
O21_4 H76_4 1_555 1_555
O5_4 C5_4 1_555 1_555
O6_4 C5_4 1_555 1_555
O26_2 C40_4 1_555 1_555
O27_2 C40_4 1_555 1_555
C5_4 C6_4 1_555 1_555
C6_4 C7_4 1_555 1_555
C7_4 H1_4 1_555 1_555
C8_4 C7_4 1_555 1_555
H2_4 C8_4 1_555 1_555
C9_4 C8_4 1_555 1_555
C10_4 C9_4 1_555 1_555
H3_4 C10_4 1_555 1_555
C11_4 C6_4 1_555 1_555
H4_4 C11_4 1_555 1_555
C13_4 C9_4 1_555 1_555
C14_4 C13_4 1_555 1_555
C22_4 C14_4 1_555 1_555
H15_4 C22_4 1_555 1_555
H16_4 C22_4 1_555 1_555
H17_4 C22_4 1_555 1_555
C25_4 C24_4 1_555 1_555
C26_4 C25_4 1_555 1_555
H18_4 C26_4 1_555 1_555
C33_4 C24_4 1_555 1_555
H28_4 C33_4 1_555 1_555
H29_4 C33_4 1_555 1_555
H30_4 C33_4 1_555 1_555
C34_4 C25_4 1_555 1_555
C35_4 C34_4 1_555 1_555
H31_4 C35_4 1_555 1_555
C36_4 C35_4 1_555 1_555
H32_4 C36_4 1_555 1_555
C37_4 C36_4 1_555 1_555
C38_4 C37_4 1_555 1_555
H33_4 C38_4 1_555 1_555
C39_4 C34_4 1_555 1_555
H34_4 C39_4 1_555 1_555
C40_4 C37_4 1_555 1_555
Ga8_2 O6_4 1_555 1_555
Ga11_4 O5_4 1_555 1_555
C10_4 C11_4 1_555 1_555
C38_4 C39_4 1_555 1_555
Ga5_3 O9_5 1_555 1_555
Ga8_2 O10_5 1_555 1_555
Ga11_4 O17_5 1_555 1_555
P1_5 O7_5 1_555 1_555
P2_5 O15_5 1_555 1_555
O24_4 C5_5 1_555 1_555
O25_4 C5_5 1_555 1_555
O7_5 C16_5 1_555 1_555
O8_5 P1_5 1_555 1_555
O9_5 P1_5 1_555 1_555
O10_5 P1_5 1_555 1_555
O15_5 C52_5 1_555 1_555
O16_5 P2_5 1_555 1_555
O17_5 P2_5 1_555 1_555
O18_5 Ga8_2 1_555 1_555
O21_5 Ga5_3 1_555 1_555
C5_5 C6_5 1_555 1_555
C6_5 C7_5 1_555 1_555
C7_5 H1_5 1_555 1_555
C8_5 C7_5 1_555 1_555
H2_5 C8_5 1_555 1_555
C9_5 C8_5 1_555 1_555
C10_5 C9_5 1_555 1_555
H3_5 C10_5 1_555 1_555
C11_5 C6_5 1_555 1_555
H4_5 C11_5 1_555 1_555
C12_5 C17_5 1_555 1_555
C13_5 C9_5 1_555 1_555
C14_5 C13_5 1_555 1_555
C15_5 C14_5 1_555 1_555
C16_5 C15_5 1_555 1_555
C17_5 C16_5 1_555 1_555
C18_5 C13_5 1_555 1_555
H5_5 C18_5 1_555 1_555
C19_5 C12_5 1_555 1_555
H6_5 C19_5 1_555 1_555
H7_5 C19_5 1_555 1_555
H8_5 C19_5 1_555 1_555
C20_5 C12_5 1_555 1_555
H9_5 C20_5 1_555 1_555
H10_5 C20_5 1_555 1_555
H11_5 C20_5 1_555 1_555
C21_5 C12_5 1_555 1_555
H12_5 C21_5 1_555 1_555
H13_5 C21_5 1_555 1_555
H14_5 C21_5 1_555 1_555
C22_5 C14_5 1_555 1_555
H15_5 C22_5 1_555 1_555
H16_5 C22_5 1_555 1_555
H17_5 C22_5 1_555 1_555
C23_5 C15_5 1_555 1_555
C24_5 C23_5 1_555 1_555
C25_5 C24_5 1_555 1_555
C26_5 C25_5 1_555 1_555
H18_5 C26_5 1_555 1_555
C27_5 C26_5 1_555 1_555
C28_5 O8_5 1_555 1_555
C29_5 C27_5 1_555 1_555
C30_5 C29_5 1_555 1_555
H19_5 C30_5 1_555 1_555
H20_5 C30_5 1_555 1_555
H21_5 C30_5 1_555 1_555
C31_5 C29_5 1_555 1_555
H22_5 C31_5 1_555 1_555
H23_5 C31_5 1_555 1_555
H24_5 C31_5 1_555 1_555
C32_5 C29_5 1_555 1_555
H25_5 C32_5 1_555 1_555
H26_5 C32_5 1_555 1_555
H27_5 C32_5 1_555 1_555
C33_5 C24_5 1_555 1_555
H28_5 C33_5 1_555 1_555
H29_5 C33_5 1_555 1_555
H30_5 C33_5 1_555 1_555
C34_5 C25_5 1_555 1_555
C35_5 C34_5 1_555 1_555
H31_5 C35_5 1_555 1_555
C38_5 C37_5 1_555 1_555
H33_5 C38_5 1_555 1_555
C39_5 C34_5 1_555 1_555
H34_5 C39_5 1_555 1_555
C48_5 C53_5 1_555 1_555
C52_5 C51_5 1_555 1_555
C53_5 C52_5 1_555 1_555
H39_5 C54_5 1_555 1_555
C55_5 C48_5 1_555 1_555
H40_5 C55_5 1_555 1_555
H41_5 C55_5 1_555 1_555
H42_5 C55_5 1_555 1_555
C56_5 C48_5 1_555 1_555
H43_5 C56_5 1_555 1_555
H44_5 C56_5 1_555 1_555
H45_5 C56_5 1_555 1_555
C57_5 C48_5 1_555 1_555
H46_5 C57_5 1_555 1_555
H47_5 C57_5 1_555 1_555
H48_5 C57_5 1_555 1_555
C59_5 C51_5 1_555 1_555
C64_5 O16_5 1_555 1_555
H60_5 C68_5 1_555 1_555
H61_5 C68_5 1_555 1_555
O27_3 Ga8_2 1_555 1_555
O28_3 Ga5_3 1_555 1_555
O29_3 Ga8_2 1_555 1_555
P2_5 O18_5 1_555 1_555
C10_5 C11_5 1_555 1_555
C17_5 C18_5 1_555 1_555
C23_5 C28_5 1_555 1_555
C27_5 C28_5 1_555 1_555
C38_5 C39_5 1_555 1_555
C53_5 C54_5 1_555 1_555
C59_5 C64_5 1_555 1_555
O21_5 H75_5 1_555 1_555
O21_5 H76_5 1_555 1_555
O12_3 C40_5 1_555 1_555
H32_5 C36_5 1_555 1_555
H52_5 C62_5 1_555 1_555
C63_5 C62_5 1_555 1_555
C65_5 C63_5 1_555 1_555
C66_5 C65_5 1_555 1_555
H53_5 C66_5 1_555 1_555
H54_5 C66_5 1_555 1_555
H55_5 C66_5 1_555 1_555
C67_5 C65_5 1_555 1_555
H56_5 C67_5 1_555 1_555
H57_5 C67_5 1_555 1_555
H58_5 C67_5 1_555 1_555
O23_5 C77_5 1_555 1_555
C77_5 O22_5 1_555 1_555
C78_5 C77_5 1_555 1_555
H69_5 C78_5 1_555 1_555
H70_5 C78_5 1_555 1_555
H71_5 C78_5 1_555 1_555
Ga8 O12_3 1_555 1_555
O13_3 C41_5 1_555 1_555
O14_3 C41_5 1_555 1_555
C41_5 C42_5 1_555 1_555
C42_5 C43_5 1_555 1_555
C43_5 H35_5 1_555 1_555
C44_5 C43_5 1_555 1_555
H36_5 C44_5 1_555 1_555
C45_5 C44_5 1_555 1_555
C46_5 C45_5 1_555 1_555
H37_5 C46_5 1_555 1_555
C47_5 C42_5 1_555 1_555
H38_5 C47_5 1_555 1_555
C49_5 C45_5 1_555 1_555
C50_5 C49_5 1_555 1_555
C58_5 C50_5 1_555 1_555
H49_5 C58_5 1_555 1_555
H50_5 C58_5 1_555 1_555
H51_5 C58_5 1_555 1_555
C69_5 C60_5 1_555 1_555
H62_5 C69_5 1_555 1_555
H63_5 C69_5 1_555 1_555
Ga5_2 O13_3 1_555 1_555
Ga9 O14_3 1_555 1_555
C46_5 C47_5 1_555 1_555
O30_3 C76_5 1_555 1_555
O31_3 C76_5 1_555 1_555
C70_5 C61_5 1_555 1_555
C71_5 C70_5 1_555 1_555
C72_5 C71_5 1_555 1_555
H66_5 C72_5 1_555 1_555
C73_5 C72_5 1_555 1_555
C74_5 C73_5 1_555 1_555
H67_5 C74_5 1_555 1_555
C75_5 C70_5 1_555 1_555
H68_5 C75_5 1_555 1_555
C76_5 C73_5 1_555 1_555
C74_5 C75_5 1_555 1_555
O13_4 C41_6 1_555 1_555
O14_4 C41_6 1_555 1_555
O30_4 C76_6 1_555 1_555
O31_4 C76_6 1_555 1_555
C41_6 C42_6 1_555 1_555
C42_6 C43_6 1_555 1_555
C43_6 H35_6 1_555 1_555
C44_6 C43_6 1_555 1_555
H36_6 C44_6 1_555 1_555
C45_6 C44_6 1_555 1_555
C46_6 C45_6 1_555 1_555
H37_6 C46_6 1_555 1_555
C47_6 C42_6 1_555 1_555
H38_6 C47_6 1_555 1_555
C49_6 C45_6 1_555 1_555
C50_6 C49_6 1_555 1_555
C58_6 C50_6 1_555 1_555
H49_6 C58_6 1_555 1_555
H50_6 C58_6 1_555 1_555
H51_6 C58_6 1_555 1_555
C61_6 C60_6 1_555 1_555
C69_6 C60_6 1_555 1_555
H62_6 C69_6 1_555 1_555
H63_6 C69_6 1_555 1_555
H64_6 C69_6 1_555 1_555
C70_6 C61_6 1_555 1_555
C71_6 C70_6 1_555 1_555
C72_6 C71_6 1_555 1_555
H66_6 C72_6 1_555 1_555
C73_6 C72_6 1_555 1_555
C74_6 C73_6 1_555 1_555
H67_6 C74_6 1_555 1_555
C75_6 C70_6 1_555 1_555
H68_6 C75_6 1_555 1_555
C76_6 C73_6 1_555 1_555
Ga5 O13_4 1_555 1_555
Ga8 O14_4 1_555 1_555
C46_6 C47_6 1_555 1_555
C74_6 C75_6 1_555 1_555
Ga5_4 O9_6 1_555 1_555
Ga9_2 O10_6 1_555 1_555
Ga11_3 O17_6 1_555 1_555
P1_6 O7_6 1_555 1_555
P2_6 O15_6 1_555 1_555
O24_3 C5_6 1_555 1_555
O25_3 C5_6 1_555 1_555
O7_6 C16_6 1_555 1_555
O8_6 P1_6 1_555 1_555
O9_6 P1_6 1_555 1_555
O10_6 P1_6 1_555 1_555
O11_4 C40_6 1_555 1_555
O12_4 C40_6 1_555 1_555
O15_6 C52_6 1_555 1_555
O16_6 P2_6 1_555 1_555
O17_6 P2_6 1_555 1_555
O18_6 Ga9_2 1_555 1_555
O21_6 Ga5_4 1_555 1_555
C5_6 C6_6 1_555 1_555
C6_6 C7_6 1_555 1_555
C7_6 H1_6 1_555 1_555
C8_6 C7_6 1_555 1_555
H2_6 C8_6 1_555 1_555
C9_6 C8_6 1_555 1_555
C10_6 C9_6 1_555 1_555
H3_6 C10_6 1_555 1_555
C11_6 C6_6 1_555 1_555
H4_6 C11_6 1_555 1_555
C12_6 C17_6 1_555 1_555
C13_6 C9_6 1_555 1_555
C14_6 C13_6 1_555 1_555
C15_6 C14_6 1_555 1_555
C16_6 C15_6 1_555 1_555
C17_6 C16_6 1_555 1_555
C18_6 C13_6 1_555 1_555
H5_6 C18_6 1_555 1_555
C19_6 C12_6 1_555 1_555
H6_6 C19_6 1_555 1_555
H7_6 C19_6 1_555 1_555
H8_6 C19_6 1_555 1_555
C20_6 C12_6 1_555 1_555
H9_6 C20_6 1_555 1_555
H10_6 C20_6 1_555 1_555
H11_6 C20_6 1_555 1_555
C21_6 C12_6 1_555 1_555
H12_6 C21_6 1_555 1_555
H13_6 C21_6 1_555 1_555
H14_6 C21_6 1_555 1_555
C22_6 C14_6 1_555 1_555
H15_6 C22_6 1_555 1_555
H16_6 C22_6 1_555 1_555
H17_6 C22_6 1_555 1_555
C23_6 C15_6 1_555 1_555
C24_6 C23_6 1_555 1_555
C25_6 C24_6 1_555 1_555
C26_6 C25_6 1_555 1_555
H18_6 C26_6 1_555 1_555
C27_6 C26_6 1_555 1_555
C28_6 O8_6 1_555 1_555
C29_6 C27_6 1_555 1_555
C30_6 C29_6 1_555 1_555
H19_6 C30_6 1_555 1_555
H20_6 C30_6 1_555 1_555
H21_6 C30_6 1_555 1_555
C31_6 C29_6 1_555 1_555
H22_6 C31_6 1_555 1_555
H23_6 C31_6 1_555 1_555
H24_6 C31_6 1_555 1_555
C32_6 C29_6 1_555 1_555
H25_6 C32_6 1_555 1_555
H26_6 C32_6 1_555 1_555
H27_6 C32_6 1_555 1_555
C33_6 C24_6 1_555 1_555
H28_6 C33_6 1_555 1_555
H29_6 C33_6 1_555 1_555
H30_6 C33_6 1_555 1_555
C34_6 C25_6 1_555 1_555
C35_6 C34_6 1_555 1_555
H31_6 C35_6 1_555 1_555
C36_6 C35_6 1_555 1_555
H32_6 C36_6 1_555 1_555
C37_6 C36_6 1_555 1_555
C38_6 C37_6 1_555 1_555
H33_6 C38_6 1_555 1_555
C39_6 C34_6 1_555 1_555
H34_6 C39_6 1_555 1_555
C40_6 C37_6 1_555 1_555
C48_6 C53_6 1_555 1_555
C52_6 C51_6 1_555 1_555
C53_6 C52_6 1_555 1_555
H39_6 C54_6 1_555 1_555
C55_6 C48_6 1_555 1_555
H40_6 C55_6 1_555 1_555
H41_6 C55_6 1_555 1_555
H42_6 C55_6 1_555 1_555
C56_6 C48_6 1_555 1_555
H43_6 C56_6 1_555 1_555
H44_6 C56_6 1_555 1_555
H45_6 C56_6 1_555 1_555
C57_6 C48_6 1_555 1_555
H46_6 C57_6 1_555 1_555
H47_6 C57_6 1_555 1_555
H48_6 C57_6 1_555 1_555
C59_6 C51_6 1_555 1_555
H52_6 C62_6 1_555 1_555
C63_6 C62_6 1_555 1_555
C64_6 O16_6 1_555 1_555
C65_6 C63_6 1_555 1_555
C66_6 C65_6 1_555 1_555
H53_6 C66_6 1_555 1_555
H54_6 C66_6 1_555 1_555
H55_6 C66_6 1_555 1_555
C67_6 C65_6 1_555 1_555
H56_6 C67_6 1_555 1_555
H57_6 C67_6 1_555 1_555
H58_6 C67_6 1_555 1_555
C68_6 C65_6 1_555 1_555
H59_6 C68_6 1_555 1_555
H60_6 C68_6 1_555 1_555
H61_6 C68_6 1_555 1_555
O22_6 Ga11_3 1_555 1_555
O23_6 C77_6 1_555 1_555
C77_6 O22_6 1_555 1_555
C78_6 C77_6 1_555 1_555
H69_6 C78_6 1_555 1_555
H70_6 C78_6 1_555 1_555
H71_6 C78_6 1_555 1_555
Ga9 O12_4 1_555 1_555
Ga11 O11_4 1_555 1_555
O26_4 Ga11_3 1_555 1_555
O27_4 Ga9_2 1_555 1_555
O28_4 Ga5_4 1_555 1_555
O29_4 Ga9_2 1_555 1_555
P2_6 O18_6 1_555 1_555
C10_6 C11_6 1_555 1_555
C17_6 C18_6 1_555 1_555
C23_6 C28_6 1_555 1_555
C27_6 C28_6 1_555 1_555
C38_6 C39_6 1_555 1_555
C53_6 C54_6 1_555 1_555
C59_6 C64_6 1_555 1_555
C63_6 C64_6 1_555 1_555
O21_6 H75_6 1_555 1_555
O21_6 H76_6 1_555 1_555
O27_3 C40_7 1_555 1_555
H32_7 C36_7 1_555 1_555
H52_7 C62_7 1_555 1_555
C63_7 C62_7 1_555 1_555
C65_7 C63_7 1_555 1_555
C66_7 C65_7 1_555 1_555
H53_7 C66_7 1_555 1_555
H54_7 C66_7 1_555 1_555
H55_7 C66_7 1_555 1_555
C67_7 C65_7 1_555 1_555
H56_7 C67_7 1_555 1_555
H57_7 C67_7 1_555 1_555
H58_7 C67_7 1_555 1_555
O23_7 C77_7 1_555 1_555
C77_7 O22_7 1_555 1_555
C78_7 C77_7 1_555 1_555
H69_7 C78_7 1_555 1_555
H70_7 C78_7 1_555 1_555
H71_7 C78_7 1_555 1_555
Ga5 O9_7 1_555 1_555
Ga8 O10_7 1_555 1_555
Ga11_2 O17_7 1_555 1_555
P1_7 O7_7 1_555 1_555
P2_7 O15_7 1_555 1_555
O24_2 C5_7 1_555 1_555
O25_2 C5_7 1_555 1_555
O7_7 C16_7 1_555 1_555
O8_7 P1_7 1_555 1_555
O9_7 P1_7 1_555 1_555
O10_7 P1_7 1_555 1_555
O15_7 C52_7 1_555 1_555
O16_7 P2_7 1_555 1_555
O17_7 P2_7 1_555 1_555
O18_7 Ga8 1_555 1_555
O21_7 Ga5 1_555 1_555
C5_7 C6_7 1_555 1_555
C6_7 C7_7 1_555 1_555
C7_7 H1_7 1_555 1_555
C8_7 C7_7 1_555 1_555
H2_7 C8_7 1_555 1_555
C9_7 C8_7 1_555 1_555
C10_7 C9_7 1_555 1_555
H3_7 C10_7 1_555 1_555
C11_7 C6_7 1_555 1_555
H4_7 C11_7 1_555 1_555
C12_7 C17_7 1_555 1_555
C13_7 C9_7 1_555 1_555
C14_7 C13_7 1_555 1_555
C15_7 C14_7 1_555 1_555
C16_7 C15_7 1_555 1_555
C17_7 C16_7 1_555 1_555
C18_7 C13_7 1_555 1_555
H5_7 C18_7 1_555 1_555
C19_7 C12_7 1_555 1_555
H6_7 C19_7 1_555 1_555
H7_7 C19_7 1_555 1_555
H8_7 C19_7 1_555 1_555
C20_7 C12_7 1_555 1_555
H9_7 C20_7 1_555 1_555
H10_7 C20_7 1_555 1_555
H11_7 C20_7 1_555 1_555
C21_7 C12_7 1_555 1_555
H12_7 C21_7 1_555 1_555
H13_7 C21_7 1_555 1_555
H14_7 C21_7 1_555 1_555
C22_7 C14_7 1_555 1_555
H15_7 C22_7 1_555 1_555
H16_7 C22_7 1_555 1_555
H17_7 C22_7 1_555 1_555
C23_7 C15_7 1_555 1_555
C24_7 C23_7 1_555 1_555
C25_7 C24_7 1_555 1_555
C26_7 C25_7 1_555 1_555
H18_7 C26_7 1_555 1_555
C27_7 C26_7 1_555 1_555
C28_7 O8_7 1_555 1_555
C29_7 C27_7 1_555 1_555
C30_7 C29_7 1_555 1_555
H19_7 C30_7 1_555 1_555
H20_7 C30_7 1_555 1_555
H21_7 C30_7 1_555 1_555
C31_7 C29_7 1_555 1_555
H22_7 C31_7 1_555 1_555
H23_7 C31_7 1_555 1_555
H24_7 C31_7 1_555 1_555
C32_7 C29_7 1_555 1_555
H25_7 C32_7 1_555 1_555
H26_7 C32_7 1_555 1_555
H27_7 C32_7 1_555 1_555
C33_7 C24_7 1_555 1_555
H28_7 C33_7 1_555 1_555
H29_7 C33_7 1_555 1_555
H30_7 C33_7 1_555 1_555
C34_7 C25_7 1_555 1_555
C35_7 C34_7 1_555 1_555
H31_7 C35_7 1_555 1_555
C38_7 C37_7 1_555 1_555
H33_7 C38_7 1_555 1_555
C39_7 C34_7 1_555 1_555
H34_7 C39_7 1_555 1_555
C48_7 C53_7 1_555 1_555
C52_7 C51_7 1_555 1_555
C53_7 C52_7 1_555 1_555
H39_7 C54_7 1_555 1_555
C55_7 C48_7 1_555 1_555
H40_7 C55_7 1_555 1_555
H41_7 C55_7 1_555 1_555
H42_7 C55_7 1_555 1_555
C56_7 C48_7 1_555 1_555
H43_7 C56_7 1_555 1_555
H44_7 C56_7 1_555 1_555
H45_7 C56_7 1_555 1_555
C57_7 C48_7 1_555 1_555
H46_7 C57_7 1_555 1_555
H47_7 C57_7 1_555 1_555
H48_7 C57_7 1_555 1_555
C59_7 C51_7 1_555 1_555
C64_7 O16_7 1_555 1_555
H60_7 C68_7 1_555 1_555
H61_7 C68_7 1_555 1_555
P2_7 O18_7 1_555 1_555
C10_7 C11_7 1_555 1_555
C17_7 C18_7 1_555 1_555
C23_7 C28_7 1_555 1_555
C27_7 C28_7 1_555 1_555
C38_7 C39_7 1_555 1_555
C53_7 C54_7 1_555 1_555
C59_7 C64_7 1_555 1_555
O21_7 H75_7 1_555 1_555
O21_7 H76_7 1_555 1_555
O30 C76_7 1_555 1_555
O31 C76_7 1_555 1_555
C70_7 C61_7 1_555 1_555
C71_7 C70_7 1_555 1_555
C72_7 C71_7 1_555 1_555
H66_7 C72_7 1_555 1_555
C73_7 C72_7 1_555 1_555
C74_7 C73_7 1_555 1_555
H67_7 C74_7 1_555 1_555
C75_7 C70_7 1_555 1_555
H68_7 C75_7 1_555 1_555
C76_7 C73_7 1_555 1_555
C74_7 C75_7 1_555 1_555
O28_4 C41_7 1_555 1_555
O29_4 C41_7 1_555 1_555
C41_7 C42_7 1_555 1_555
C42_7 C43_7 1_555 1_555
C43_7 H35_7 1_555 1_555
C44_7 C43_7 1_555 1_555
H36_7 C44_7 1_555 1_555
C45_7 C44_7 1_555 1_555
C46_7 C45_7 1_555 1_555
H37_7 C46_7 1_555 1_555
C47_7 C42_7 1_555 1_555
H38_7 C47_7 1_555 1_555
C49_7 C45_7 1_555 1_555
C50_7 C49_7 1_555 1_555
C58_7 C50_7 1_555 1_555
H49_7 C58_7 1_555 1_555
H50_7 C58_7 1_555 1_555
H51_7 C58_7 1_555 1_555
C69_7 C60_7 1_555 1_555
H62_7 C69_7 1_555 1_555
H63_7 C69_7 1_555 1_555
C46_7 C47_7 1_555 1_555
O28_3 C41_8 1_555 1_555
O29_3 C41_8 1_555 1_555
O30_2 C76_8 1_555 1_555
O31_2 C76_8 1_555 1_555
C41_8 C42_8 1_555 1_555
C42_8 C43_8 1_555 1_555
C43_8 H35_8 1_555 1_555
C44_8 C43_8 1_555 1_555
H36_8 C44_8 1_555 1_555
C45_8 C44_8 1_555 1_555
C46_8 C45_8 1_555 1_555
H37_8 C46_8 1_555 1_555
C47_8 C42_8 1_555 1_555
H38_8 C47_8 1_555 1_555
C49_8 C45_8 1_555 1_555
C50_8 C49_8 1_555 1_555
C58_8 C50_8 1_555 1_555
H49_8 C58_8 1_555 1_555
H50_8 C58_8 1_555 1_555
H51_8 C58_8 1_555 1_555
C61_8 C60_8 1_555 1_555
C69_8 C60_8 1_555 1_555
H62_8 C69_8 1_555 1_555
H63_8 C69_8 1_555 1_555
H64_8 C69_8 1_555 1_555
C70_8 C61_8 1_555 1_555
C71_8 C70_8 1_555 1_555
C72_8 C71_8 1_555 1_555
H66_8 C72_8 1_555 1_555
C73_8 C72_8 1_555 1_555
C74_8 C73_8 1_555 1_555
H67_8 C74_8 1_555 1_555
C75_8 C70_8 1_555 1_555
H68_8 C75_8 1_555 1_555
C76_8 C73_8 1_555 1_555
C46_8 C47_8 1_555 1_555
C74_8 C75_8 1_555 1_555
Ga5_2 O9_8 1_555 1_555
Ga9 O10_8 1_555 1_555
Ga11 O17_8 1_555 1_555
P1_8 O7_8 1_555 1_555
P2_8 O15_8 1_555 1_555
O24 C5_8 1_555 1_555
O25 C5_8 1_555 1_555
O7_8 C16_8 1_555 1_555
O8_8 P1_8 1_555 1_555
O9_8 P1_8 1_555 1_555
O10_8 P1_8 1_555 1_555
O26_4 C40_8 1_555 1_555
O27_4 C40_8 1_555 1_555
O15_8 C52_8 1_555 1_555
O16_8 P2_8 1_555 1_555
O17_8 P2_8 1_555 1_555
O18_8 Ga9 1_555 1_555
O21_8 Ga5_2 1_555 1_555
C5_8 C6_8 1_555 1_555
C6_8 C7_8 1_555 1_555
C7_8 H1_8 1_555 1_555
C8_8 C7_8 1_555 1_555
H2_8 C8_8 1_555 1_555
C9_8 C8_8 1_555 1_555
C10_8 C9_8 1_555 1_555
H3_8 C10_8 1_555 1_555
C11_8 C6_8 1_555 1_555
H4_8 C11_8 1_555 1_555
C12_8 C17_8 1_555 1_555
C13_8 C9_8 1_555 1_555
C14_8 C13_8 1_555 1_555
C15_8 C14_8 1_555 1_555
C16_8 C15_8 1_555 1_555
C17_8 C16_8 1_555 1_555
C18_8 C13_8 1_555 1_555
H5_8 C18_8 1_555 1_555
C19_8 C12_8 1_555 1_555
H6_8 C19_8 1_555 1_555
H7_8 C19_8 1_555 1_555
H8_8 C19_8 1_555 1_555
C20_8 C12_8 1_555 1_555
H9_8 C20_8 1_555 1_555
H10_8 C20_8 1_555 1_555
H11_8 C20_8 1_555 1_555
C21_8 C12_8 1_555 1_555
H12_8 C21_8 1_555 1_555
H13_8 C21_8 1_555 1_555
H14_8 C21_8 1_555 1_555
C22_8 C14_8 1_555 1_555
H15_8 C22_8 1_555 1_555
H16_8 C22_8 1_555 1_555
H17_8 C22_8 1_555 1_555
C23_8 C15_8 1_555 1_555
C24_8 C23_8 1_555 1_555
C25_8 C24_8 1_555 1_555
C26_8 C25_8 1_555 1_555
H18_8 C26_8 1_555 1_555
C27_8 C26_8 1_555 1_555
C28_8 O8_8 1_555 1_555
C29_8 C27_8 1_555 1_555
C30_8 C29_8 1_555 1_555
H19_8 C30_8 1_555 1_555
H20_8 C30_8 1_555 1_555
H21_8 C30_8 1_555 1_555
C31_8 C29_8 1_555 1_555
H22_8 C31_8 1_555 1_555
H23_8 C31_8 1_555 1_555
H24_8 C31_8 1_555 1_555
C32_8 C29_8 1_555 1_555
H25_8 C32_8 1_555 1_555
H26_8 C32_8 1_555 1_555
H27_8 C32_8 1_555 1_555
C33_8 C24_8 1_555 1_555
H28_8 C33_8 1_555 1_555
H29_8 C33_8 1_555 1_555
H30_8 C33_8 1_555 1_555
C34_8 C25_8 1_555 1_555
C35_8 C34_8 1_555 1_555
H31_8 C35_8 1_555 1_555
C36_8 C35_8 1_555 1_555
H32_8 C36_8 1_555 1_555
C37_8 C36_8 1_555 1_555
C38_8 C37_8 1_555 1_555
H33_8 C38_8 1_555 1_555
C39_8 C34_8 1_555 1_555
H34_8 C39_8 1_555 1_555
C40_8 C37_8 1_555 1_555
C48_8 C53_8 1_555 1_555
C52_8 C51_8 1_555 1_555
C53_8 C52_8 1_555 1_555
H39_8 C54_8 1_555 1_555
C55_8 C48_8 1_555 1_555
H40_8 C55_8 1_555 1_555
H41_8 C55_8 1_555 1_555
H42_8 C55_8 1_555 1_555
C56_8 C48_8 1_555 1_555
H43_8 C56_8 1_555 1_555
H44_8 C56_8 1_555 1_555
H45_8 C56_8 1_555 1_555
C57_8 C48_8 1_555 1_555
H46_8 C57_8 1_555 1_555
H47_8 C57_8 1_555 1_555
H48_8 C57_8 1_555 1_555
C59_8 C51_8 1_555 1_555
H52_8 C62_8 1_555 1_555
C63_8 C62_8 1_555 1_555
C64_8 O16_8 1_555 1_555
C65_8 C63_8 1_555 1_555
C66_8 C65_8 1_555 1_555
H53_8 C66_8 1_555 1_555
H54_8 C66_8 1_555 1_555
H55_8 C66_8 1_555 1_555
C67_8 C65_8 1_555 1_555
H56_8 C67_8 1_555 1_555
H57_8 C67_8 1_555 1_555
H58_8 C67_8 1_555 1_555
C68_8 C65_8 1_555 1_555
H59_8 C68_8 1_555 1_555
H60_8 C68_8 1_555 1_555
H61_8 C68_8 1_555 1_555
O22_8 Ga11 1_555 1_555
O23_8 C77_8 1_555 1_555
C77_8 O22_8 1_555 1_555
C78_8 C77_8 1_555 1_555
H69_8 C78_8 1_555 1_555
H70_8 C78_8 1_555 1_555
H71_8 C78_8 1_555 1_555
P2_8 O18_8 1_555 1_555
C10_8 C11_8 1_555 1_555
C17_8 C18_8 1_555 1_555
C23_8 C28_8 1_555 1_555
C27_8 C28_8 1_555 1_555
C38_8 C39_8 1_555 1_555
C53_8 C54_8 1_555 1_555
C59_8 C64_8 1_555 1_555
C63_8 C64_8 1_555 1_555
O21_8 H75_8 1_555 1_555
O21_8 H76_8 1_555 1_555

#END
