
###############################################################################
#
# This file contains modified crystal structure data generated from the
# MOF subset of the Cambridge Structural Database (CSD) v543 
# hosted by the Cambridge Crystallographic Data Centre (CCDC).
#
# This work is licensed under the Creative Commons
# Attribution-NonCommercial-ShareAlike 4.0 International License.
# To view a copy of this license, visit
# http://creativecommons.org/licenses/by-nc-sa/4.0/
# or send a letter to
# Creative Commons, PO Box 1866, Mountain View, CA 94042, USA.
#
# CIF created using the CSD Python API on 29 September 2022
# The structure has been converted into the P1 space group
# The structure has a 3D framework
# The original CSD entry WERDAB is in the orthorhombic crystal system
# The original CSD entry WERDAB is in a Sohncke space group
# The framework has been calculated to contain at least 10.0% void space
# The void calculation uses a probe of radius 1.32A, grid spacing 0.4
# H atom positions have been added when not included in the experimental data
#
###############################################################################

data_WERDAB
_chemical_formula_moiety         '(C576 H576 Mn24 O144 P16)n'
_symmetry_cell_setting           triclinic
_symmetry_space_group_name_H-M   'P 1'
_symmetry_Int_Tables_number      1
_space_group_name_Hall           'P 1'
loop_
_symmetry_equiv_pos_site_id
_symmetry_equiv_pos_as_xyz
1 x,y,z
_cell_length_a                   27.3307(12)
_cell_length_b                   29.1106(12)
_cell_length_c                   29.5760(12)
_cell_angle_alpha                90
_cell_angle_beta                 90
_cell_angle_gamma                90
_cell_volume                     23531.1
loop_
_atom_site_label
_atom_site_type_symbol
_atom_site_fract_x
_atom_site_fract_y
_atom_site_fract_z
O8 O 0.2547(2) 0.68331(17) 0.05916(16)
C32 C 0.2717(2) 0.60538(13) 0.00608(11)
H32 H 0.2639 0.6009 0.0364
C36 C 0.2663(3) 0.6898(2) 0.0178(2)
C58 C 0.02177(19) 0.3058(2) 0.05031(14)
H52 H 0.0219 0.3199 0.0785
C59 C 0.05680(18) 0.3176(2) 0.01827(17)
C61 C 0.0892(4) 0.3594(4) 0.0270(3)
C62 C 0.0825(5) 0.3827(5) 0.0719(4)
H53 H 0.0889 0.3612 0.0958
H54 H 0.0495 0.3937 0.0744
H55 H 0.1047 0.4081 0.0742
C63 C 0.1438(4) 0.3503(5) 0.0236(5)
H56 H 0.1527 0.3266 0.0446
H57 H 0.1614 0.3779 0.0305
H65 H 0.0019 0.2480 0.1252
O18 O 0.2120(4) 0.1972(4) 0.0489(2)
Mn6 Mn 0.23409(5) 0.71021(4) 0.13200(4)
Mn10 Mn 0.22224(4) 0.77652(3) 0.01241(3)
O21 O 0.26788(18) 0.27037(16) 0.00052(15)
H71 H 0.185603 0.173794 0.0476845
H72 H 0.242774 0.182611 0.0594998
Mn1 Mn 0.30296(4) 0.29993(4) 0.74959(3)
Mn2 Mn 0.23409(5) 0.28979(4) 0.86800(4)
Mn3 Mn 0.22224(4) 0.22348(3) 0.98759(3)
P1 P 0.27035(8) 0.38731(6) 0.80778(6)
P2 P 0.13029(7) 0.26326(8) 0.93231(6)
O1 O 0.2638(3) 0.66712(19) 0.5444(2)
O2 O 0.2550(2) 0.71908(16) 0.59888(18)
O3 O 0.2237(2) 0.41922(19) 0.79792(17)
O4 O 0.3145(2) 0.42347(15) 0.81482(16)
O5 O 0.2856(2) 0.3629(2) 0.76624(16)
O6 O 0.2580(2) 0.36264(17) 0.84888(17)
O7 O 0.26788(18) 0.72963(16) 0.99948(15)
O11 O 0.09720(17) 0.2184(2) 0.92415(15)
O12 O 0.0919(2) 0.3039(2) 0.94354(17)
O13 O 0.15911(18) 0.2498(2) 0.97336(17)
O14 O 0.15486(18) 0.2798(2) 0.89143(16)
O17 O 0.3340(3) 0.3110(3) 0.6878(2)
C1 C 0.2549(4) 0.6773(3) 0.5858(3)
C2 C 0.2468(2) 0.64037(12) 0.61854(13)
C3 C 0.2333(2) 0.65020(11) 0.66280(15)
H1 H 0.2265 0.6803 0.6713
C4 C 0.2298(2) 0.61502(15) 0.69442(12)
H2 H 0.2208 0.6216 0.7240
C5 C 0.2399(3) 0.57001(12) 0.68178(14)
C6 C 0.2534(3) 0.56019(11) 0.63752(16)
H3 H 0.2602 0.5301 0.6291
C7 C 0.2569(3) 0.59536(14) 0.60590(12)
H4 H 0.2660 0.5888 0.5763
C8 C 0.1642(3) 0.4184(3) 0.7151(3)
C9 C 0.2340(2) 0.53155(13) 0.71532(15)
C10 C 0.2585(2) 0.53031(14) 0.75650(16)
C11 C 0.2536(2) 0.49239(16) 0.78470(14)
C12 C 0.2243(2) 0.45570(14) 0.77171(15)
C13 C 0.1998(2) 0.45694(15) 0.73052(17)
C14 C 0.2047(2) 0.49486(16) 0.70233(14)
H5 H 0.1883 0.4957 0.6748
C15 C 0.1312(6) 0.4341(4) 0.6777(5)
H6 H 0.1101 0.4093 0.6688
H7 H 0.1505 0.4437 0.6523
H8 H 0.1117 0.4595 0.6881
C16 C 0.1936(6) 0.3759(4) 0.6962(5)
H9 H 0.1710 0.3526 0.6866
H10 H 0.2144 0.3638 0.7196
H11 H 0.2132 0.3854 0.6710
C17 C 0.1328(5) 0.3970(4) 0.7525(5)
H12 H 0.1123 0.3735 0.7398
H13 H 0.1127 0.4204 0.7660
H14 H 0.1536 0.3838 0.7752
C18 C 0.2986(4) 0.5675(3) 0.7663(3)
H15 H 0.3124 0.5622 0.7957
H16 H 0.2840 0.5975 0.7654
H17 H 0.3238 0.5655 0.7439
C19 C 0.27529(18) 0.49374(16) 0.83242(13)
C20 C 0.26754(18) 0.53049(14) 0.86156(16)
C21 C 0.2945(2) 0.53404(14) 0.90126(14)
C22 C 0.32922(18) 0.50084(17) 0.91181(13)
H18 H 0.3473 0.5032 0.9384
C23 C 0.33697(17) 0.46409(15) 0.88267(16)
C24 C 0.31001(18) 0.46054(13) 0.84298(14)
C25 C 0.3793(3) 0.4297(2) 0.8940(3)
C26 C 0.4186(4) 0.4322(4) 0.8565(4)
H19 H 0.4445 0.4111 0.8633
H20 H 0.4315 0.4628 0.8550
H21 H 0.4042 0.4243 0.8280
C27 C 0.4040(4) 0.4404(4) 0.9389(3)
H22 H 0.4296 0.4185 0.9443
H23 H 0.3804 0.4387 0.9628
H24 H 0.4177 0.4708 0.9378
C28 C 0.3618(4) 0.3796(3) 0.8965(3)
H25 H 0.3890 0.3600 0.9033
H26 H 0.3479 0.3708 0.8679
H27 H 0.3374 0.3767 0.9197
C29 C 0.2229(4) 0.5611(3) 0.8519(3)
H28 H 0.2096 0.5534 0.8228
H29 H 0.2328 0.5928 0.8519
H30 H 0.1986 0.5563 0.8748
C30 C 0.2895(2) 0.57440(12) 0.93241(14)
C31 C 0.2777(2) 0.56776(10) 0.97767(15)
H31 H 0.2739 0.5382 0.9889
C33 C 0.2774(2) 0.64963(11) 0.98923(13)
C34 C 0.2891(2) 0.65626(11) 0.94396(13)
H33 H 0.2930 0.6859 0.9327
C35 C 0.2952(2) 0.61865(15) 0.91555(11)
H34 H 0.3030 0.6231 0.8853
C44 C 0.0863(3) 0.1629(3) 0.8417(3)
C47 C 0.01686(16) 0.24671(19) 0.91768(12)
C48 C 0.05414(14) 0.21943(19) 0.90034(13)
C49 C 0.04857(15) 0.19842(18) 0.85845(14)
C50 C 0.00571(16) 0.20468(19) 0.83391(13)
H39 H 0.0020 0.1906 0.8059
C51 C 0.0909(5) 0.1233(4) 0.8767(4)
H40 H 0.1145 0.1013 0.8662
H41 H 0.0598 0.1085 0.8804
H42 H 0.1014 0.1356 0.9053
C52 C 0.1372(3) 0.1829(4) 0.8339(3)
H43 H 0.1588 0.1590 0.8237
H44 H 0.1494 0.1955 0.8617
H45 H 0.1354 0.2066 0.8115
C53 C 0.0720(4) 0.1396(4) 0.7974(4)
H46 H 0.0970 0.1181 0.7889
H47 H 0.0686 0.1624 0.7741
H48 H 0.0416 0.1237 0.8012
C55 C 0.02126(18) 0.2638(2) 0.96591(13)
C60 C 0.05654(17) 0.2966(2) 0.97607(14)
H58 H 0.1516 0.3406 0.9934
C64 C 0.0775(7) 0.3982(5) 0.9919(7)
H59 H 0.0981 0.4242 0.9976
H60 H 0.0438 0.4071 0.9947
H61 H 0.0834 0.3870 0.9619
Mn9 Mn 0.26591(5) 0.78979(4) 0.63200(4)
Mn11 Mn 0.27776(4) 0.72348(3) 0.51241(3)
O19 O 0.2362(3) 0.16712(19) 0.9556(2)
O20 O 0.2450(2) 0.21908(16) 0.90112(18)
O22 O 0.2547(2) 0.31669(17) 0.94084(16)
O23 O 0.24716(17) 0.2629(2) 0.73354(16)
O24 O 0.20264(17) 0.28080(19) 0.79457(15)
O25 O 0.36397(19) 0.2795(3) 0.77951(17)
O26 O 0.3048(2) 0.2707(2) 0.82841(18)
H69 H 0.362603 0.331753 0.691176
H70 H 0.344897 0.281253 0.674816
O15 O 0.86397(19) 0.2205(3) 0.22049(17)
O16 O 0.8048(2) 0.2293(2) 0.17159(18)
C57 C 0.98649(17) 0.2730(2) 0.04015(14)
H62 H 0.9273 0.2084 0.0127
C66 C 0.95176(15) 0.2612(3) 0.07661(13)
C67 C 0.96850(12) 0.2495(3) 0.11947(15)
C68 C 0.93527(16) 0.2400(2) 0.15382(12)
H66 H 0.9465 0.2322 0.1825
C69 C 0.88531(14) 0.2423(2) 0.14531(13)
C70 C 0.86858(12) 0.2540(2) 0.10245(16)
H67 H 0.8352 0.2555 0.0967
C71 C 0.90180(16) 0.2634(2) 0.06810(13)
H68 H 0.8906 0.2713 0.0394
C72 C 0.8500(3) 0.2297(3) 0.1808(2)
Mn5 Mn 0.80296(4) 0.20007(4) 0.25041(3)
Mn8 Mn 0.73409(5) 0.21021(4) 0.13200(4)
O9 O 0.75284(17) 0.2629(2) 0.76646(16)
O10 O 0.79736(17) 0.28080(19) 0.70543(15)
C37 C 0.7936(2) 0.2674(2) 0.7452(2)
C38 C 0.83932(12) 0.25510(19) 0.77108(13)
C39 C 0.83582(13) 0.2338(2) 0.81300(15)
H35 H 0.8054 0.2247 0.8240
C40 C 0.87774(16) 0.2259(2) 0.83847(14)
H36 H 0.8754 0.2116 0.8665
C41 C 0.92316(13) 0.2394(2) 0.82201(15)
C42 C 0.92666(11) 0.26074(19) 0.78009(15)
H37 H 0.9571 0.2698 0.7691
C43 C 0.88474(14) 0.26858(18) 0.75462(12)
H38 H 0.8871 0.2829 0.7266
C45 C 0.96842(14) 0.2320(2) 0.85126(15)
C46 C 0.97400(15) 0.2530(2) 0.89315(15)
C54 C 0.9347(4) 0.2878(5) 0.9085(3)
H49 H 0.9433 0.2998 0.9377
H50 H 0.9035 0.2728 0.9103
H51 H 0.9329 0.3125 0.8871
C56 C 0.98623(18) 0.2520(2) 0.99796(16)
C65 C 0.9491(3) 0.2122(4) 0.9875(3)
H63 H 0.9667 0.1842 0.9824
H64 H 0.9305 0.2198 0.9610
Mn4 Mn 0.69704(4) 0.29993(4) 0.75041(3)
Mn7 Mn 0.76591(5) 0.28979(4) 0.63200(4)
O9_2 O 0.24716(17) 0.7371(2) 0.26646(16)
O10_2 O 0.20264(17) 0.71920(19) 0.20543(15)
O15_2 O 0.13603(19) 0.7795(3) 0.72049(17)
O16_2 O 0.1952(2) 0.7707(2) 0.67159(18)
C37_2 C 0.2064(2) 0.7326(2) 0.2452(2)
C38_2 C 0.16068(12) 0.74490(19) 0.27108(13)
C39_2 C 0.16418(13) 0.7662(2) 0.31300(15)
H35_2 H 0.1946 0.7753 0.3240
C40_2 C 0.12226(16) 0.7741(2) 0.33847(14)
H36_2 H 0.1246 0.7884 0.3665
C41_2 C 0.07684(13) 0.7606(2) 0.32201(15)
C42_2 C 0.07334(11) 0.73926(19) 0.28009(15)
H37_2 H 0.0429 0.7302 0.2691
C43_2 C 0.11526(14) 0.73142(18) 0.25462(12)
H38_2 H 0.1129 0.7171 0.2266
C45_2 C 0.03158(14) 0.7680(2) 0.35126(15)
C46_2 C 0.02600(15) 0.7470(2) 0.39315(15)
C54_2 C 0.0653(4) 0.7122(5) 0.4085(3)
H49_2 H 0.0567 0.7002 0.4377
H50_2 H 0.0965 0.7272 0.4103
H51_2 H 0.0671 0.6875 0.3871
C56_2 C 0.01377(18) 0.7480(2) 0.49796(16)
C57_2 C 0.01351(17) 0.7270(2) 0.54015(14)
C65_2 C 0.0509(3) 0.7878(4) 0.4875(3)
H62_2 H 0.0727 0.7916 0.5127
H63_2 H 0.0333 0.8158 0.4824
H64_2 H 0.0695 0.7802 0.4610
C66_2 C 0.04824(15) 0.7388(3) 0.57661(13)
C67_2 C 0.03150(12) 0.7505(3) 0.61947(15)
C68_2 C 0.06473(16) 0.7600(2) 0.65382(12)
H66_2 H 0.0535 0.7678 0.6825
C69_2 C 0.11469(14) 0.7577(2) 0.64531(13)
C70_2 C 0.13142(12) 0.7460(2) 0.60245(16)
H67_2 H 0.1648 0.7445 0.5967
C71_2 C 0.09820(16) 0.7366(2) 0.56810(13)
H68_2 H 0.1094 0.7287 0.5394
C72_2 C 0.1500(3) 0.7703(3) 0.6808(2)
Mn4_2 Mn 0.30296(4) 0.70007(4) 0.25041(3)
Mn5_2 Mn 0.19704(4) 0.79993(4) 0.75041(3)
Mn1_2 Mn 0.69704(4) 0.70007(4) 0.24959(3)
Mn2_2 Mn 0.76591(5) 0.71021(4) 0.36800(4)
Mn3_2 Mn 0.77776(4) 0.77652(3) 0.48759(3)
P1_2 P 0.72965(8) 0.61269(6) 0.30778(6)
P2_2 P 0.86971(7) 0.73674(8) 0.43231(6)
O1_2 O 0.7362(3) 0.33288(19) 0.0444(2)
O2_2 O 0.7450(2) 0.28092(16) 0.09888(18)
O3_2 O 0.7763(2) 0.58078(19) 0.29792(17)
O4_2 O 0.6855(2) 0.57653(15) 0.31482(16)
O5_2 O 0.7144(2) 0.6371(2) 0.26624(16)
O6_2 O 0.7420(2) 0.63736(17) 0.34888(17)
O7_2 O 0.73212(18) 0.27037(16) 0.49948(15)
O8_2 O 0.7453(2) 0.31669(17) 0.55916(16)
O11_2 O 0.90280(17) 0.7816(2) 0.42415(15)
O12_2 O 0.9081(2) 0.6961(2) 0.44354(17)
O13_2 O 0.84089(18) 0.7502(2) 0.47336(17)
O14_2 O 0.84514(18) 0.7202(2) 0.39143(16)
O17_2 O 0.6660(3) 0.6890(3) 0.1878(2)
C1_2 C 0.7451(4) 0.3227(3) 0.0858(3)
C2_2 C 0.7532(2) 0.35963(12) 0.11854(13)
C3_2 C 0.7667(2) 0.34980(11) 0.16280(15)
H1_2 H 0.7735 0.3197 0.1713
C4_2 C 0.7702(2) 0.38498(15) 0.19442(12)
H2_2 H 0.7792 0.3784 0.2240
C5_2 C 0.7601(3) 0.42999(12) 0.18178(14)
C6_2 C 0.7466(3) 0.43981(11) 0.13752(16)
H3_2 H 0.7398 0.4699 0.1291
C7_2 C 0.7431(3) 0.40464(14) 0.10590(12)
H4_2 H 0.7340 0.4112 0.0763
C8_2 C 0.8358(3) 0.5816(3) 0.2151(3)
C9_2 C 0.7660(2) 0.46845(13) 0.21532(15)
C10_2 C 0.7415(2) 0.46969(14) 0.25650(16)
C11_2 C 0.7464(2) 0.50761(16) 0.28470(14)
C12_2 C 0.7757(2) 0.54430(14) 0.27171(15)
C13_2 C 0.8002(2) 0.54306(15) 0.23052(17)
C14_2 C 0.7953(2) 0.50514(16) 0.20233(14)
H5_2 H 0.8117 0.5043 0.1748
C15_2 C 0.8688(6) 0.5659(4) 0.1777(5)
H6_2 H 0.8899 0.5907 0.1688
H7_2 H 0.8495 0.5563 0.1523
H8_2 H 0.8883 0.5405 0.1881
C16_2 C 0.8064(6) 0.6241(4) 0.1962(5)
H9_2 H 0.8290 0.6474 0.1866
H10_2 H 0.7856 0.6362 0.2196
H11_2 H 0.7868 0.6146 0.1710
C17_2 C 0.8672(5) 0.6030(4) 0.2525(5)
H12_2 H 0.8877 0.6265 0.2398
H13_2 H 0.8873 0.5796 0.2660
H14_2 H 0.8464 0.6162 0.2752
C18_2 C 0.7014(4) 0.4325(3) 0.2663(3)
H15_2 H 0.6876 0.4378 0.2957
H16_2 H 0.7160 0.4025 0.2654
H17_2 H 0.6762 0.4345 0.2439
C19_2 C 0.72471(18) 0.50626(16) 0.33242(13)
C20_2 C 0.73246(18) 0.46951(14) 0.36156(16)
C21_2 C 0.7055(2) 0.46596(14) 0.40126(14)
C22_2 C 0.67078(18) 0.49916(17) 0.41181(13)
H18_2 H 0.6527 0.4968 0.4384
C23_2 C 0.66303(17) 0.53591(15) 0.38267(16)
C24_2 C 0.68999(18) 0.53946(13) 0.34298(14)
C25_2 C 0.6207(3) 0.5703(2) 0.3940(3)
C26_2 C 0.5814(4) 0.5678(4) 0.3565(4)
H19_2 H 0.5555 0.5889 0.3633
H20_2 H 0.5685 0.5372 0.3550
H21_2 H 0.5958 0.5757 0.3280
C27_2 C 0.5960(4) 0.5596(4) 0.4389(3)
H22_2 H 0.5704 0.5815 0.4443
H23_2 H 0.6196 0.5613 0.4628
H24_2 H 0.5823 0.5292 0.4378
C28_2 C 0.6382(4) 0.6204(3) 0.3965(3)
H25_2 H 0.6110 0.6400 0.4033
H26_2 H 0.6521 0.6292 0.3679
H27_2 H 0.6626 0.6233 0.4197
C29_2 C 0.7771(4) 0.4389(3) 0.3519(3)
H28_2 H 0.7904 0.4466 0.3228
H29_2 H 0.7672 0.4072 0.3519
H30_2 H 0.8014 0.4437 0.3748
C30_2 C 0.7105(2) 0.42560(12) 0.43241(14)
C31_2 C 0.7223(2) 0.43224(10) 0.47767(15)
H31_2 H 0.7261 0.4618 0.4889
C32_2 C 0.7283(2) 0.39462(13) 0.50608(11)
H32_2 H 0.7361 0.3991 0.5364
C33_2 C 0.7226(2) 0.35037(11) 0.48923(13)
C34_2 C 0.7109(2) 0.34374(11) 0.44396(13)
H33_2 H 0.7070 0.3141 0.4327
C35_2 C 0.7048(2) 0.38135(15) 0.41555(11)
H34_2 H 0.6970 0.3769 0.3853
C36_2 C 0.7337(3) 0.3102(2) 0.5178(2)
C44_2 C 0.9137(3) 0.8371(3) 0.3417(3)
C47_2 C 0.98314(16) 0.75329(19) 0.41768(12)
C48_2 C 0.94586(14) 0.78057(19) 0.40034(13)
C49_2 C 0.95143(15) 0.80158(18) 0.35845(14)
C50_2 C 0.99429(16) 0.79532(19) 0.33391(13)
H39_2 H 0.9980 0.8094 0.3059
C51_2 C 0.9091(5) 0.8767(4) 0.3767(4)
H40_2 H 0.8855 0.8987 0.3662
H41_2 H 0.9402 0.8915 0.3804
H42_2 H 0.8986 0.8644 0.4053
C52_2 C 0.8628(3) 0.8171(4) 0.3339(3)
H43_2 H 0.8412 0.8410 0.3237
H44_2 H 0.8506 0.8045 0.3617
H45_2 H 0.8646 0.7934 0.3115
C53_2 C 0.9280(4) 0.8604(4) 0.2974(4)
H46_2 H 0.9030 0.8819 0.2889
H47_2 H 0.9314 0.8376 0.2741
H48_2 H 0.9584 0.8763 0.3012
C55_2 C 0.97874(18) 0.7362(2) 0.46591(13)
C58_2 C 0.97823(19) 0.6942(2) 0.55031(14)
H52_2 H 0.9781 0.6801 0.5785
C59_2 C 0.94320(18) 0.6824(2) 0.51827(17)
C60_2 C 0.94346(17) 0.7034(2) 0.47607(14)
C61_2 C 0.9108(4) 0.6406(4) 0.5270(3)
C62_2 C 0.9175(5) 0.6173(5) 0.5719(4)
H53_2 H 0.9111 0.6388 0.5958
H54_2 H 0.9505 0.6063 0.5744
H55_2 H 0.8953 0.5919 0.5742
C63_2 C 0.8562(4) 0.6497(5) 0.5236(5)
H56_2 H 0.8473 0.6734 0.5446
H57_2 H 0.8386 0.6221 0.5305
H58_2 H 0.8484 0.6594 0.4934
C64_2 C 0.9225(7) 0.6018(5) 0.4919(7)
H59_2 H 0.9019 0.5758 0.4976
H60_2 H 0.9562 0.5929 0.4947
H61_2 H 0.9166 0.6130 0.4619
H65_2 H 0.9981 0.7520 0.6252
O18_2 O 0.7880(4) 0.8028(4) 0.5489(2)
Mn10_2 Mn 0.77776(4) 0.22348(3) 0.51241(3)
Mn11_2 Mn 0.72224(4) 0.27652(3) 0.01241(3)
O19_2 O 0.7638(3) 0.83288(19) 0.4556(2)
O20_2 O 0.7550(2) 0.78092(16) 0.40112(18)
O21_2 O 0.73212(18) 0.72963(16) 0.50052(15)
O22_2 O 0.7453(2) 0.68331(17) 0.44084(16)
O23_2 O 0.75284(17) 0.7371(2) 0.23354(16)
O24_2 O 0.79736(17) 0.71920(19) 0.29457(15)
O25_2 O 0.63603(19) 0.7205(3) 0.27951(17)
O26_2 O 0.6952(2) 0.7293(2) 0.32841(18)
H69_2 H 0.637397 0.668247 0.191176
H70_2 H 0.655103 0.718747 0.174816
H71_2 H 0.814397 0.826206 0.547684
H72_2 H 0.757226 0.817389 0.5595
P1_3 P 0.27035(8) 0.61269(6) 0.19222(6)
P2_3 P 0.13029(7) 0.73674(8) 0.06769(6)
O1_3 O 0.2638(3) 0.33288(19) 0.4556(2)
O2_3 O 0.2550(2) 0.28092(16) 0.40112(18)
O3_3 O 0.2237(2) 0.58078(19) 0.20208(17)
O4_3 O 0.3145(2) 0.57653(15) 0.18518(16)
O5_3 O 0.2856(2) 0.6371(2) 0.23376(16)
O6_3 O 0.2580(2) 0.63736(17) 0.15112(17)
O11_3 O 0.09720(17) 0.7816(2) 0.07585(15)
O12_3 O 0.0919(2) 0.6961(2) 0.05646(17)
O13_3 O 0.15911(18) 0.7502(2) 0.02664(17)
O14_3 O 0.15486(18) 0.7202(2) 0.10857(16)
O17_3 O 0.3340(3) 0.6890(3) 0.3122(2)
C1_3 C 0.2549(4) 0.3227(3) 0.4142(3)
C2_3 C 0.2468(2) 0.35963(12) 0.38146(13)
C3_3 C 0.2333(2) 0.34980(11) 0.33720(15)
H1_3 H 0.2265 0.3197 0.3287
C4_3 C 0.2298(2) 0.38498(15) 0.30558(12)
H2_3 H 0.2208 0.3784 0.2760
C5_3 C 0.2399(3) 0.42999(12) 0.31822(14)
C6_3 C 0.2534(3) 0.43981(11) 0.36248(16)
H3_3 H 0.2602 0.4699 0.3709
C7_3 C 0.2569(3) 0.40464(14) 0.39410(12)
H4_3 H 0.2660 0.4112 0.4237
C8_3 C 0.1642(3) 0.5816(3) 0.2849(3)
C9_3 C 0.2340(2) 0.46845(13) 0.28468(15)
C10_3 C 0.2585(2) 0.46969(14) 0.24350(16)
C11_3 C 0.2536(2) 0.50761(16) 0.21530(14)
C12_3 C 0.2243(2) 0.54430(14) 0.22829(15)
C13_3 C 0.1998(2) 0.54306(15) 0.26948(17)
C14_3 C 0.2047(2) 0.50514(16) 0.29767(14)
H5_3 H 0.1883 0.5043 0.3252
C15_3 C 0.1312(6) 0.5659(4) 0.3223(5)
H6_3 H 0.1101 0.5907 0.3312
H7_3 H 0.1505 0.5563 0.3477
H8_3 H 0.1117 0.5405 0.3119
C16_3 C 0.1936(6) 0.6241(4) 0.3038(5)
H9_3 H 0.1710 0.6474 0.3134
H10_3 H 0.2144 0.6362 0.2804
H11_3 H 0.2132 0.6146 0.3290
C17_3 C 0.1328(5) 0.6030(4) 0.2475(5)
H12_3 H 0.1123 0.6265 0.2602
H13_3 H 0.1127 0.5796 0.2340
H14_3 H 0.1536 0.6162 0.2248
C18_3 C 0.2986(4) 0.4325(3) 0.2337(3)
H15_3 H 0.3124 0.4378 0.2043
H16_3 H 0.2840 0.4025 0.2346
H17_3 H 0.3238 0.4345 0.2561
C19_3 C 0.27529(18) 0.50626(16) 0.16758(13)
C20_3 C 0.26754(18) 0.46951(14) 0.13844(16)
C21_3 C 0.2945(2) 0.46596(14) 0.09874(14)
C22_3 C 0.32922(18) 0.49916(17) 0.08819(13)
H18_3 H 0.3473 0.4968 0.0616
C23_3 C 0.33697(17) 0.53591(15) 0.11733(16)
C24_3 C 0.31001(18) 0.53946(13) 0.15702(14)
C25_3 C 0.3793(3) 0.5703(2) 0.1060(3)
C26_3 C 0.4186(4) 0.5678(4) 0.1435(4)
H19_3 H 0.4445 0.5889 0.1367
H20_3 H 0.4315 0.5372 0.1450
H21_3 H 0.4042 0.5757 0.1720
C27_3 C 0.4040(4) 0.5596(4) 0.0611(3)
H22_3 H 0.4296 0.5815 0.0557
H23_3 H 0.3804 0.5613 0.0372
H24_3 H 0.4177 0.5292 0.0622
C28_3 C 0.3618(4) 0.6204(3) 0.1035(3)
H25_3 H 0.3890 0.6400 0.0967
H26_3 H 0.3479 0.6292 0.1321
H27_3 H 0.3374 0.6233 0.0803
C29_3 C 0.2229(4) 0.4389(3) 0.1481(3)
H28_3 H 0.2096 0.4466 0.1772
H29_3 H 0.2328 0.4072 0.1481
H30_3 H 0.1986 0.4437 0.1252
C30_3 C 0.2895(2) 0.42560(12) 0.06759(14)
C31_3 C 0.2777(2) 0.43224(10) 0.02233(15)
H31_3 H 0.2739 0.4618 0.0111
C33_3 C 0.2774(2) 0.35037(11) 0.01077(13)
C34_3 C 0.2891(2) 0.34374(11) 0.05604(13)
H33_3 H 0.2930 0.3141 0.0673
C35_3 C 0.2952(2) 0.38135(15) 0.08445(11)
H34_3 H 0.3030 0.3769 0.1147
C44_3 C 0.0863(3) 0.8371(3) 0.1583(3)
C47_3 C 0.01686(16) 0.75329(19) 0.08232(12)
C48_3 C 0.05414(14) 0.78057(19) 0.09966(13)
C49_3 C 0.04857(15) 0.80158(18) 0.14155(14)
C50_3 C 0.00571(16) 0.79532(19) 0.16609(13)
H39_3 H 0.0020 0.8094 0.1941
C51_3 C 0.0909(5) 0.8767(4) 0.1233(4)
H40_3 H 0.1145 0.8987 0.1338
H41_3 H 0.0598 0.8915 0.1196
H42_3 H 0.1014 0.8644 0.0947
C52_3 C 0.1372(3) 0.8171(4) 0.1661(3)
H43_3 H 0.1588 0.8410 0.1763
H44_3 H 0.1494 0.8045 0.1383
H45_3 H 0.1354 0.7934 0.1885
C53_3 C 0.0720(4) 0.8604(4) 0.2026(4)
H46_3 H 0.0970 0.8819 0.2111
H47_3 H 0.0686 0.8376 0.2259
H48_3 H 0.0416 0.8763 0.1988
C55_3 C 0.02126(18) 0.7362(2) 0.03409(13)
C60_3 C 0.05654(17) 0.7034(2) 0.02393(14)
H58_3 H 0.1516 0.6594 0.0066
C64_3 C 0.0775(7) 0.6018(5) 0.0081(7)
H59_3 H 0.0981 0.5758 0.0024
H60_3 H 0.0438 0.5929 0.0053
H61_3 H 0.0834 0.6130 0.0381
Mn9_2 Mn 0.26591(5) 0.21021(4) 0.36800(4)
Mn11_3 Mn 0.27776(4) 0.27652(3) 0.48759(3)
O19_3 O 0.2362(3) 0.83288(19) 0.0444(2)
O20_3 O 0.2450(2) 0.78092(16) 0.09888(18)
O25_3 O 0.36397(19) 0.7205(3) 0.22049(17)
O26_3 O 0.3048(2) 0.7293(2) 0.17159(18)
H69_3 H 0.362603 0.668247 0.308824
H70_3 H 0.344897 0.718747 0.325184
C32_3 C 0.2717(2) 0.39462(13) 0.99392(11)
H32_3 H 0.2639 0.3991 0.9636
C36_3 C 0.2663(3) 0.3102(2) 0.9822(2)
C58_3 C 0.02177(19) 0.6942(2) 0.94969(14)
H52_3 H 0.0219 0.6801 0.9215
C59_3 C 0.05680(18) 0.6824(2) 0.98173(17)
C61_3 C 0.0892(4) 0.6406(4) 0.9730(3)
C62_3 C 0.0825(5) 0.6173(5) 0.9281(4)
H53_3 H 0.0889 0.6388 0.9042
H54_3 H 0.0495 0.6063 0.9256
H55_3 H 0.1047 0.5919 0.9258
C63_3 C 0.1438(4) 0.6497(5) 0.9764(5)
H56_3 H 0.1527 0.6734 0.9554
H57_3 H 0.1614 0.6221 0.9695
H65_3 H 0.0019 0.7520 0.8748
O18_3 O 0.2120(4) 0.8028(4) 0.9511(2)
H71_3 H 0.185603 0.826206 0.952316
H72_3 H 0.242774 0.817389 0.9405
C37_3 C 0.7936(2) 0.7326(2) 0.2548(2)
C38_3 C 0.83932(12) 0.74490(19) 0.22892(13)
C39_3 C 0.83582(13) 0.7662(2) 0.18700(15)
H35_3 H 0.8054 0.7753 0.1760
C40_3 C 0.87774(16) 0.7741(2) 0.16153(14)
H36_3 H 0.8754 0.7884 0.1335
C41_3 C 0.92316(13) 0.7606(2) 0.17799(15)
C42_3 C 0.92666(11) 0.73926(19) 0.21991(15)
H37_3 H 0.9571 0.7302 0.2309
C43_3 C 0.88474(14) 0.73142(18) 0.24538(12)
H38_3 H 0.8871 0.7171 0.2734
C45_3 C 0.96842(14) 0.7680(2) 0.14874(15)
C46_3 C 0.97400(15) 0.7470(2) 0.10685(15)
C54_3 C 0.9347(4) 0.7122(5) 0.0915(3)
H49_3 H 0.9433 0.7002 0.0623
H50_3 H 0.9035 0.7272 0.0897
H51_3 H 0.9329 0.6875 0.1129
C56_3 C 0.98623(18) 0.7480(2) 0.00204(16)
C65_3 C 0.9491(3) 0.7878(4) 0.0125(3)
H63_3 H 0.9667 0.8158 0.0176
H64_3 H 0.9305 0.7802 0.0390
O15_3 O 0.86397(19) 0.7795(3) 0.77951(17)
O16_3 O 0.8048(2) 0.7707(2) 0.82841(18)
C57_3 C 0.98649(17) 0.7270(2) 0.95985(14)
H62_3 H 0.9273 0.7916 0.9873
C66_3 C 0.95176(15) 0.7388(3) 0.92339(13)
C67_3 C 0.96850(12) 0.7505(3) 0.88053(15)
C68_3 C 0.93527(16) 0.7600(2) 0.84618(12)
H66_3 H 0.9465 0.7678 0.8175
C69_3 C 0.88531(14) 0.7577(2) 0.85469(13)
C70_3 C 0.86858(12) 0.7460(2) 0.89755(16)
H67_3 H 0.8352 0.7445 0.9033
C71_3 C 0.90180(16) 0.7366(2) 0.93190(13)
H68_3 H 0.8906 0.7287 0.9606
C72_3 C 0.8500(3) 0.7703(3) 0.8192(2)
Mn5_3 Mn 0.80296(4) 0.79993(4) 0.74959(3)
Mn8_2 Mn 0.73409(5) 0.78979(4) 0.86800(4)
O15_4 O 0.13603(19) 0.2205(3) 0.27951(17)
O16_4 O 0.1952(2) 0.2293(2) 0.32841(18)
C37_4 C 0.2064(2) 0.2674(2) 0.7548(2)
C38_4 C 0.16068(12) 0.25510(19) 0.72892(13)
C39_4 C 0.16418(13) 0.2338(2) 0.68700(15)
H35_4 H 0.1946 0.2247 0.6760
C40_4 C 0.12226(16) 0.2259(2) 0.66153(14)
H36_4 H 0.1246 0.2116 0.6335
C41_4 C 0.07684(13) 0.2394(2) 0.67799(15)
C42_4 C 0.07334(11) 0.26074(19) 0.71991(15)
H37_4 H 0.0429 0.2698 0.7309
C43_4 C 0.11526(14) 0.26858(18) 0.74538(12)
H38_4 H 0.1129 0.2829 0.7734
C45_4 C 0.03158(14) 0.2320(2) 0.64874(15)
C46_4 C 0.02600(15) 0.2530(2) 0.60685(15)
C54_4 C 0.0653(4) 0.2878(5) 0.5915(3)
H49_4 H 0.0567 0.2998 0.5623
H50_4 H 0.0965 0.2728 0.5897
H51_4 H 0.0671 0.3125 0.6129
C56_4 C 0.01377(18) 0.2520(2) 0.50204(16)
C57_4 C 0.01351(17) 0.2730(2) 0.45985(14)
C65_4 C 0.0509(3) 0.2122(4) 0.5125(3)
H62_4 H 0.0727 0.2084 0.4873
H63_4 H 0.0333 0.1842 0.5176
H64_4 H 0.0695 0.2198 0.5390
C66_4 C 0.04824(15) 0.2612(3) 0.42339(13)
C67_4 C 0.03150(12) 0.2495(3) 0.38053(15)
C68_4 C 0.06473(16) 0.2400(2) 0.34618(12)
H66_4 H 0.0535 0.2322 0.3175
C69_4 C 0.11469(14) 0.2423(2) 0.35469(13)
C70_4 C 0.13142(12) 0.2540(2) 0.39755(16)
H67_4 H 0.1648 0.2555 0.4033
C71_4 C 0.09820(16) 0.2634(2) 0.43190(13)
H68_4 H 0.1094 0.2713 0.4606
C72_4 C 0.1500(3) 0.2297(3) 0.3192(2)
Mn5_4 Mn 0.19704(4) 0.20007(4) 0.24959(3)
P1_4 P 0.72965(8) 0.38731(6) 0.69222(6)
P2_4 P 0.86971(7) 0.26326(8) 0.56769(6)
O1_4 O 0.7362(3) 0.66712(19) 0.9556(2)
O2_4 O 0.7450(2) 0.71908(16) 0.90112(18)
O3_4 O 0.7763(2) 0.41922(19) 0.70208(17)
O4_4 O 0.6855(2) 0.42347(15) 0.68518(16)
O5_4 O 0.7144(2) 0.3629(2) 0.73376(16)
O6_4 O 0.7420(2) 0.36264(17) 0.65112(17)
O11_4 O 0.90280(17) 0.2184(2) 0.57585(15)
O12_4 O 0.9081(2) 0.3039(2) 0.55646(17)
O13_4 O 0.84089(18) 0.2498(2) 0.52664(17)
O14_4 O 0.84514(18) 0.2798(2) 0.60857(16)
O17_4 O 0.6660(3) 0.3110(3) 0.8122(2)
C1_4 C 0.7451(4) 0.6773(3) 0.9142(3)
C2_4 C 0.7532(2) 0.64037(12) 0.88146(13)
C3_4 C 0.7667(2) 0.65020(11) 0.83720(15)
H1_4 H 0.7735 0.6803 0.8287
C4_4 C 0.7702(2) 0.61502(15) 0.80558(12)
H2_4 H 0.7792 0.6216 0.7760
C5_4 C 0.7601(3) 0.57001(12) 0.81822(14)
C6_4 C 0.7466(3) 0.56019(11) 0.86248(16)
H3_4 H 0.7398 0.5301 0.8709
C7_4 C 0.7431(3) 0.59536(14) 0.89410(12)
H4_4 H 0.7340 0.5888 0.9237
C8_4 C 0.8358(3) 0.4184(3) 0.7849(3)
C9_4 C 0.7660(2) 0.53155(13) 0.78468(15)
C10_4 C 0.7415(2) 0.53031(14) 0.74350(16)
C11_4 C 0.7464(2) 0.49239(16) 0.71530(14)
C12_4 C 0.7757(2) 0.45570(14) 0.72829(15)
C13_4 C 0.8002(2) 0.45694(15) 0.76948(17)
C14_4 C 0.7953(2) 0.49486(16) 0.79767(14)
H5_4 H 0.8117 0.4957 0.8252
C15_4 C 0.8688(6) 0.4341(4) 0.8223(5)
H6_4 H 0.8899 0.4093 0.8312
H7_4 H 0.8495 0.4437 0.8477
H8_4 H 0.8883 0.4595 0.8119
C16_4 C 0.8064(6) 0.3759(4) 0.8038(5)
H9_4 H 0.8290 0.3526 0.8134
H10_4 H 0.7856 0.3638 0.7804
H11_4 H 0.7868 0.3854 0.8290
C17_4 C 0.8672(5) 0.3970(4) 0.7475(5)
H12_4 H 0.8877 0.3735 0.7602
H13_4 H 0.8873 0.4204 0.7340
H14_4 H 0.8464 0.3838 0.7248
C18_4 C 0.7014(4) 0.5675(3) 0.7337(3)
H15_4 H 0.6876 0.5622 0.7043
H16_4 H 0.7160 0.5975 0.7346
H17_4 H 0.6762 0.5655 0.7561
C19_4 C 0.72471(18) 0.49374(16) 0.66758(13)
C20_4 C 0.73246(18) 0.53049(14) 0.63844(16)
C21_4 C 0.7055(2) 0.53404(14) 0.59874(14)
C22_4 C 0.67078(18) 0.50084(17) 0.58819(13)
H18_4 H 0.6527 0.5032 0.5616
C23_4 C 0.66303(17) 0.46409(15) 0.61733(16)
C24_4 C 0.68999(18) 0.46054(13) 0.65702(14)
C25_4 C 0.6207(3) 0.4297(2) 0.6060(3)
C26_4 C 0.5814(4) 0.4322(4) 0.6435(4)
H19_4 H 0.5555 0.4111 0.6367
H20_4 H 0.5685 0.4628 0.6450
H21_4 H 0.5958 0.4243 0.6720
C27_4 C 0.5960(4) 0.4404(4) 0.5611(3)
H22_4 H 0.5704 0.4185 0.5557
H23_4 H 0.6196 0.4387 0.5372
H24_4 H 0.5823 0.4708 0.5622
C28_4 C 0.6382(4) 0.3796(3) 0.6035(3)
H25_4 H 0.6110 0.3600 0.5967
H26_4 H 0.6521 0.3708 0.6321
H27_4 H 0.6626 0.3767 0.5803
C29_4 C 0.7771(4) 0.5611(3) 0.6481(3)
H28_4 H 0.7904 0.5534 0.6772
H29_4 H 0.7672 0.5928 0.6481
H30_4 H 0.8014 0.5563 0.6252
C30_4 C 0.7105(2) 0.57440(12) 0.56759(14)
C31_4 C 0.7223(2) 0.56776(10) 0.52233(15)
H31_4 H 0.7261 0.5382 0.5111
C32_4 C 0.7283(2) 0.60538(13) 0.49392(11)
H32_4 H 0.7361 0.6009 0.4636
C33_4 C 0.7226(2) 0.64963(11) 0.51077(13)
C34_4 C 0.7109(2) 0.65626(11) 0.55604(13)
H33_4 H 0.7070 0.6859 0.5673
C35_4 C 0.7048(2) 0.61865(15) 0.58445(11)
H34_4 H 0.6970 0.6231 0.6147
C36_4 C 0.7337(3) 0.6898(2) 0.4822(2)
C44_4 C 0.9137(3) 0.1629(3) 0.6583(3)
C47_4 C 0.98314(16) 0.24671(19) 0.58232(12)
C48_4 C 0.94586(14) 0.21943(19) 0.59966(13)
C49_4 C 0.95143(15) 0.19842(18) 0.64155(14)
C50_4 C 0.99429(16) 0.20468(19) 0.66609(13)
H39_4 H 0.9980 0.1906 0.6941
C51_4 C 0.9091(5) 0.1233(4) 0.6233(4)
H40_4 H 0.8855 0.1013 0.6338
H41_4 H 0.9402 0.1085 0.6196
H42_4 H 0.8986 0.1356 0.5947
C52_4 C 0.8628(3) 0.1829(4) 0.6661(3)
H43_4 H 0.8412 0.1590 0.6763
H44_4 H 0.8506 0.1955 0.6383
H45_4 H 0.8646 0.2066 0.6885
C53_4 C 0.9280(4) 0.1396(4) 0.7026(4)
H46_4 H 0.9030 0.1181 0.7111
H47_4 H 0.9314 0.1624 0.7259
H48_4 H 0.9584 0.1237 0.6988
C55_4 C 0.97874(18) 0.2638(2) 0.53409(13)
C58_4 C 0.97823(19) 0.3058(2) 0.44969(14)
H52_4 H 0.9781 0.3199 0.4215
C59_4 C 0.94320(18) 0.3176(2) 0.48173(17)
C60_4 C 0.94346(17) 0.2966(2) 0.52393(14)
C61_4 C 0.9108(4) 0.3594(4) 0.4730(3)
C62_4 C 0.9175(5) 0.3827(5) 0.4281(4)
H53_4 H 0.9111 0.3612 0.4042
H54_4 H 0.9505 0.3937 0.4256
H55_4 H 0.8953 0.4081 0.4258
C63_4 C 0.8562(4) 0.3503(5) 0.4764(5)
H56_4 H 0.8473 0.3266 0.4554
H57_4 H 0.8386 0.3779 0.4695
H58_4 H 0.8484 0.3406 0.5066
C64_4 C 0.9225(7) 0.3982(5) 0.5081(7)
H59_4 H 0.9019 0.4242 0.5024
H60_4 H 0.9562 0.4071 0.5053
H61_4 H 0.9166 0.3870 0.5381
H65_4 H 0.9981 0.2480 0.3748
O18_4 O 0.7880(4) 0.1972(4) 0.4511(2)
Mn11_4 Mn 0.72224(4) 0.72348(3) 0.98759(3)
O19_4 O 0.7638(3) 0.16712(19) 0.5444(2)
O20_4 O 0.7550(2) 0.21908(16) 0.59888(18)
O25_4 O 0.63603(19) 0.2795(3) 0.72049(17)
O26_4 O 0.6952(2) 0.2707(2) 0.67159(18)
H69_4 H 0.637397 0.331753 0.808824
H70_4 H 0.655103 0.281253 0.825184
H71_4 H 0.814397 0.173794 0.452316
H72_4 H 0.757226 0.182611 0.4405
O8_3 O 0.7547(2) 0.18331(17) 0.05916(16)
C32_5 C 0.7717(2) 0.10538(13) 0.00608(11)
H32_5 H 0.7639 0.1009 0.0364
C36_5 C 0.7663(3) 0.1898(2) 0.0178(2)
O7_3 O 0.76788(18) 0.22963(16) 0.99948(15)
C1_5 C 0.7549(4) 0.1773(3) 0.5858(3)
C2_5 C 0.7468(2) 0.14037(12) 0.61854(13)
C3_5 C 0.7333(2) 0.15020(11) 0.66280(15)
H1_5 H 0.7265 0.1803 0.6713
C4_5 C 0.7298(2) 0.11502(15) 0.69442(12)
H2_5 H 0.7208 0.1216 0.7240
C5_5 C 0.7399(3) 0.07001(12) 0.68178(14)
C6_5 C 0.7534(3) 0.06019(11) 0.63752(16)
H3_5 H 0.7602 0.0301 0.6291
C7_5 C 0.7569(3) 0.09536(14) 0.60590(12)
H4_5 H 0.7660 0.0888 0.5763
C9_5 C 0.7340(2) 0.03155(13) 0.71532(15)
C10_5 C 0.7585(2) 0.03031(14) 0.75650(16)
C18_5 C 0.7986(4) 0.0675(3) 0.7663(3)
H15_5 H 0.8124 0.0622 0.7957
H16_5 H 0.7840 0.0975 0.7654
H17_5 H 0.8238 0.0655 0.7439
C20_5 C 0.76754(18) 0.03049(14) 0.86156(16)
C21_5 C 0.7945(2) 0.03404(14) 0.90126(14)
C22_5 C 0.82922(18) 0.00084(17) 0.91181(13)
H18_5 H 0.8473 0.0032 0.9384
C29_5 C 0.7229(4) 0.0611(3) 0.8519(3)
H28_5 H 0.7096 0.0534 0.8228
H29_5 H 0.7328 0.0928 0.8519
H30_5 H 0.6986 0.0563 0.8748
C30_5 C 0.7895(2) 0.07440(12) 0.93241(14)
C31_5 C 0.7777(2) 0.06776(10) 0.97767(15)
H31_5 H 0.7739 0.0382 0.9889
C33_5 C 0.7774(2) 0.14963(11) 0.98923(13)
C34_5 C 0.7891(2) 0.15626(11) 0.94396(13)
H33_5 H 0.7930 0.1859 0.9327
C35_5 C 0.7952(2) 0.11865(15) 0.91555(11)
H34_5 H 0.8030 0.1231 0.8853
C57_5 C 0.48649(17) 0.7730(2) 0.04015(14)
C58_5 C 0.52177(19) 0.8058(2) 0.05031(14)
H52_5 H 0.5219 0.8199 0.0785
C59_5 C 0.55680(18) 0.8176(2) 0.01827(17)
C61_5 C 0.5892(4) 0.8594(4) 0.0270(3)
C62_5 C 0.5825(5) 0.8827(5) 0.0719(4)
H53_5 H 0.5889 0.8612 0.0958
H54_5 H 0.5495 0.8937 0.0744
H55_5 H 0.6047 0.9081 0.0742
C63_5 C 0.6438(4) 0.8503(5) 0.0236(5)
H56_5 H 0.6527 0.8266 0.0446
H57_5 H 0.6614 0.8779 0.0305
H62_5 H 0.4273 0.7084 0.0127
C66_5 C 0.45176(15) 0.7612(3) 0.07661(13)
C67_5 C 0.46850(12) 0.7495(3) 0.11947(15)
H65_5 H 0.5019 0.7480 0.1252
C68_5 C 0.43527(16) 0.7400(2) 0.15382(12)
H66_5 H 0.4465 0.7322 0.1825
C69_5 C 0.38531(14) 0.7423(2) 0.14531(13)
C70_5 C 0.36858(12) 0.7540(2) 0.10245(16)
H67_5 H 0.3352 0.7555 0.0967
C71_5 C 0.40180(16) 0.7634(2) 0.06810(13)
H68_5 H 0.3906 0.7713 0.0394
C72_5 C 0.3500(3) 0.7297(3) 0.1808(2)
O18_5 O 0.7120(4) 0.6972(4) 0.0489(2)
O21_3 O 0.76788(18) 0.77037(16) 0.00052(15)
H71_5 H 0.685603 0.673794 0.0476845
H72_5 H 0.742774 0.682611 0.0594998
P1_5 P 0.77035(8) 0.88731(6) 0.80778(6)
P2_5 P 0.63029(7) 0.76326(8) 0.93231(6)
O3_5 O 0.7237(2) 0.91922(19) 0.79792(17)
O4_5 O 0.8145(2) 0.92347(15) 0.81482(16)
O5_5 O 0.7856(2) 0.8629(2) 0.76624(16)
O6_5 O 0.7580(2) 0.86264(17) 0.84888(17)
O9_3 O 0.25284(17) 0.7629(2) 0.76646(16)
O10_3 O 0.29736(17) 0.78080(19) 0.70543(15)
O11_5 O 0.59720(17) 0.7184(2) 0.92415(15)
O12_5 O 0.5919(2) 0.8039(2) 0.94354(17)
O13_5 O 0.65911(18) 0.7498(2) 0.97336(17)
O14_5 O 0.65486(18) 0.7798(2) 0.89143(16)
O17_5 O 0.8340(3) 0.8110(3) 0.6878(2)
C8_5 C 0.6642(3) 0.9184(3) 0.7151(3)
C11_5 C 0.7536(2) 0.99239(16) 0.78470(14)
C12_5 C 0.7243(2) 0.95570(14) 0.77171(15)
C13_5 C 0.6998(2) 0.95694(15) 0.73052(17)
C14_5 C 0.7047(2) 0.99486(16) 0.70233(14)
H5_5 H 0.6883 0.9957 0.6748
C15_5 C 0.6312(6) 0.9341(4) 0.6777(5)
H6_5 H 0.6101 0.9093 0.6688
H7_5 H 0.6505 0.9437 0.6523
H8_5 H 0.6117 0.9595 0.6881
C16_5 C 0.6936(6) 0.8759(4) 0.6962(5)
H9_5 H 0.6710 0.8526 0.6866
H10_5 H 0.7144 0.8638 0.7196
H11_5 H 0.7132 0.8854 0.6710
C17_5 C 0.6328(5) 0.8970(4) 0.7525(5)
H12_5 H 0.6123 0.8735 0.7398
H13_5 H 0.6127 0.9204 0.7660
H14_5 H 0.6536 0.8838 0.7752
C19_5 C 0.77529(18) 0.99374(16) 0.83242(13)
C23_5 C 0.83697(17) 0.96409(15) 0.88267(16)
C24_5 C 0.81001(18) 0.96054(13) 0.84298(14)
C25_5 C 0.8793(3) 0.9297(2) 0.8940(3)
C26_5 C 0.9186(4) 0.9322(4) 0.8565(4)
H19_5 H 0.9445 0.9111 0.8633
H20_5 H 0.9315 0.9628 0.8550
H21_5 H 0.9042 0.9243 0.8280
C27_5 C 0.9040(4) 0.9404(4) 0.9389(3)
H22_5 H 0.9296 0.9185 0.9443
H23_5 H 0.8804 0.9387 0.9628
H24_5 H 0.9177 0.9708 0.9378
C28_5 C 0.8618(4) 0.8796(3) 0.8965(3)
H25_5 H 0.8890 0.8600 0.9033
H26_5 H 0.8479 0.8708 0.8679
H27_5 H 0.8374 0.8767 0.9197
C37_5 C 0.2936(2) 0.7674(2) 0.7452(2)
C38_5 C 0.33932(12) 0.75510(19) 0.77108(13)
C39_5 C 0.33582(13) 0.7338(2) 0.81300(15)
H35_5 H 0.3054 0.7247 0.8240
C40_5 C 0.37774(16) 0.7259(2) 0.83847(14)
H36_5 H 0.3754 0.7116 0.8665
C41_5 C 0.42316(13) 0.7394(2) 0.82201(15)
C42_5 C 0.42666(11) 0.76074(19) 0.78009(15)
H37_5 H 0.4571 0.7698 0.7691
C43_5 C 0.38474(14) 0.76858(18) 0.75462(12)
H38_5 H 0.3871 0.7829 0.7266
C44_5 C 0.5863(3) 0.6629(3) 0.8417(3)
C45_5 C 0.46842(14) 0.7320(2) 0.85126(15)
C46_5 C 0.47400(15) 0.7530(2) 0.89315(15)
C47_5 C 0.51686(16) 0.74671(19) 0.91768(12)
C48_5 C 0.55414(14) 0.71943(19) 0.90034(13)
C49_5 C 0.54857(15) 0.69842(18) 0.85845(14)
C50_5 C 0.50571(16) 0.70468(19) 0.83391(13)
H39_5 H 0.5020 0.6906 0.8059
C51_5 C 0.5909(5) 0.6233(4) 0.8767(4)
H40_5 H 0.6145 0.6013 0.8662
H41_5 H 0.5598 0.6085 0.8804
H42_5 H 0.6014 0.6356 0.9053
C52_5 C 0.6372(3) 0.6829(4) 0.8339(3)
H43_5 H 0.6588 0.6590 0.8237
H44_5 H 0.6494 0.6955 0.8617
H45_5 H 0.6354 0.7066 0.8115
C53_5 C 0.5720(4) 0.6396(4) 0.7974(4)
H46_5 H 0.5970 0.6181 0.7889
H47_5 H 0.5686 0.6624 0.7741
H48_5 H 0.5416 0.6237 0.8012
C54_5 C 0.4347(4) 0.7878(5) 0.9085(3)
H49_5 H 0.4433 0.7998 0.9377
H50_5 H 0.4035 0.7728 0.9103
H51_5 H 0.4329 0.8125 0.8871
C55_5 C 0.52126(18) 0.7638(2) 0.96591(13)
C56_5 C 0.48623(18) 0.7520(2) 0.99796(16)
C60_5 C 0.55654(17) 0.7966(2) 0.97607(14)
H58_5 H 0.6516 0.8406 0.9934
C64_5 C 0.5775(7) 0.8982(5) 0.9919(7)
H59_5 H 0.5981 0.9242 0.9976
H60_5 H 0.5438 0.9071 0.9947
H61_5 H 0.5834 0.8870 0.9619
C65_5 C 0.4491(3) 0.7122(4) 0.9875(3)
H63_5 H 0.4667 0.6842 0.9824
H64_5 H 0.4305 0.7198 0.9610
O22_3 O 0.7547(2) 0.81669(17) 0.94084(16)
O23_3 O 0.74716(17) 0.7629(2) 0.73354(16)
O24_3 O 0.70264(17) 0.78080(19) 0.79457(15)
H69_5 H 0.862603 0.831753 0.691176
H70_5 H 0.844897 0.781253 0.674816
P1_6 P 0.22965(8) 0.11269(6) 0.30778(6)
P2_6 P 0.36971(7) 0.23674(8) 0.43231(6)
O3_6 O 0.2763(2) 0.08078(19) 0.29792(17)
O4_6 O 0.1855(2) 0.07653(15) 0.31482(16)
O5_6 O 0.2144(2) 0.1371(2) 0.26624(16)
O6_6 O 0.2420(2) 0.13736(17) 0.34888(17)
O9_4 O 0.74716(17) 0.2371(2) 0.26646(16)
O10_4 O 0.70264(17) 0.21920(19) 0.20543(15)
O11_6 O 0.40280(17) 0.2816(2) 0.42415(15)
O12_6 O 0.4081(2) 0.1961(2) 0.44354(17)
O13_6 O 0.34089(18) 0.2502(2) 0.47336(17)
O14_6 O 0.34514(18) 0.2202(2) 0.39143(16)
O17_6 O 0.1660(3) 0.1890(3) 0.1878(2)
C8_6 C 0.3358(3) 0.0816(3) 0.2151(3)
C11_6 C 0.2464(2) 0.00761(16) 0.28470(14)
C12_6 C 0.2757(2) 0.04430(14) 0.27171(15)
C13_6 C 0.3002(2) 0.04306(15) 0.23052(17)
C14_6 C 0.2953(2) 0.00514(16) 0.20233(14)
H5_6 H 0.3117 0.0043 0.1748
C15_6 C 0.3688(6) 0.0659(4) 0.1777(5)
H6_6 H 0.3899 0.0907 0.1688
H7_6 H 0.3495 0.0563 0.1523
H8_6 H 0.3883 0.0405 0.1881
C16_6 C 0.3064(6) 0.1241(4) 0.1962(5)
H9_6 H 0.3290 0.1474 0.1866
H10_6 H 0.2856 0.1362 0.2196
H11_6 H 0.2868 0.1146 0.1710
C17_6 C 0.3672(5) 0.1030(4) 0.2525(5)
H12_6 H 0.3877 0.1265 0.2398
H13_6 H 0.3873 0.0796 0.2660
H14_6 H 0.3464 0.1162 0.2752
C19_6 C 0.22471(18) 0.00626(16) 0.33242(13)
C23_6 C 0.16303(17) 0.03591(15) 0.38267(16)
C24_6 C 0.18999(18) 0.03946(13) 0.34298(14)
C25_6 C 0.1207(3) 0.0703(2) 0.3940(3)
C26_6 C 0.0814(4) 0.0678(4) 0.3565(4)
H19_6 H 0.0555 0.0889 0.3633
H20_6 H 0.0685 0.0372 0.3550
H21_6 H 0.0958 0.0757 0.3280
C27_6 C 0.0960(4) 0.0596(4) 0.4389(3)
H22_6 H 0.0704 0.0815 0.4443
H23_6 H 0.1196 0.0613 0.4628
H24_6 H 0.0823 0.0292 0.4378
C28_6 C 0.1382(4) 0.1204(3) 0.3965(3)
H25_6 H 0.1110 0.1400 0.4033
H26_6 H 0.1521 0.1292 0.3679
H27_6 H 0.1626 0.1233 0.4197
C37_6 C 0.7064(2) 0.2326(2) 0.2452(2)
C38_6 C 0.66068(12) 0.24490(19) 0.27108(13)
C39_6 C 0.66418(13) 0.2662(2) 0.31300(15)
H35_6 H 0.6946 0.2753 0.3240
C40_6 C 0.62226(16) 0.2741(2) 0.33847(14)
H36_6 H 0.6246 0.2884 0.3665
C41_6 C 0.57684(13) 0.2606(2) 0.32201(15)
C42_6 C 0.57334(11) 0.23926(19) 0.28009(15)
H37_6 H 0.5429 0.2302 0.2691
C43_6 C 0.61526(14) 0.23142(18) 0.25462(12)
H38_6 H 0.6129 0.2171 0.2266
C44_6 C 0.4137(3) 0.3371(3) 0.3417(3)
C45_6 C 0.53158(14) 0.2680(2) 0.35126(15)
C46_6 C 0.52600(15) 0.2470(2) 0.39315(15)
C47_6 C 0.48314(16) 0.25329(19) 0.41768(12)
C48_6 C 0.44586(14) 0.28057(19) 0.40034(13)
C49_6 C 0.45143(15) 0.30158(18) 0.35845(14)
C50_6 C 0.49429(16) 0.29532(19) 0.33391(13)
H39_6 H 0.4980 0.3094 0.3059
C51_6 C 0.4091(5) 0.3767(4) 0.3767(4)
H40_6 H 0.3855 0.3987 0.3662
H41_6 H 0.4402 0.3915 0.3804
H42_6 H 0.3986 0.3644 0.4053
C52_6 C 0.3628(3) 0.3171(4) 0.3339(3)
H43_6 H 0.3412 0.3410 0.3237
H44_6 H 0.3506 0.3045 0.3617
H45_6 H 0.3646 0.2934 0.3115
C53_6 C 0.4280(4) 0.3604(4) 0.2974(4)
H46_6 H 0.4030 0.3819 0.2889
H47_6 H 0.4314 0.3376 0.2741
H48_6 H 0.4584 0.3763 0.3012
C54_6 C 0.5653(4) 0.2122(5) 0.4085(3)
H49_6 H 0.5567 0.2002 0.4377
H50_6 H 0.5965 0.2272 0.4103
H51_6 H 0.5671 0.1875 0.3871
C55_6 C 0.47874(18) 0.2362(2) 0.46591(13)
C56_6 C 0.51377(18) 0.2480(2) 0.49796(16)
C57_6 C 0.51351(17) 0.2270(2) 0.54015(14)
C58_6 C 0.47823(19) 0.1942(2) 0.55031(14)
H52_6 H 0.4781 0.1801 0.5785
C59_6 C 0.44320(18) 0.1824(2) 0.51827(17)
C60_6 C 0.44346(17) 0.2034(2) 0.47607(14)
C61_6 C 0.4108(4) 0.1406(4) 0.5270(3)
C62_6 C 0.4175(5) 0.1173(5) 0.5719(4)
H53_6 H 0.4111 0.1388 0.5958
H54_6 H 0.4505 0.1063 0.5744
H55_6 H 0.3953 0.0919 0.5742
C63_6 C 0.3562(4) 0.1497(5) 0.5236(5)
H56_6 H 0.3473 0.1734 0.5446
H57_6 H 0.3386 0.1221 0.5305
H58_6 H 0.3484 0.1594 0.4934
C64_6 C 0.4225(7) 0.1018(5) 0.4919(7)
H59_6 H 0.4019 0.0758 0.4976
H60_6 H 0.4562 0.0929 0.4947
H61_6 H 0.4166 0.1130 0.4619
C65_6 C 0.5509(3) 0.2878(4) 0.4875(3)
H62_6 H 0.5727 0.2916 0.5127
H63_6 H 0.5333 0.3158 0.4824
H64_6 H 0.5695 0.2802 0.4610
C66_6 C 0.54824(15) 0.2388(3) 0.57661(13)
C67_6 C 0.53150(12) 0.2505(3) 0.61947(15)
H65_6 H 0.4981 0.2520 0.6252
C68_6 C 0.56473(16) 0.2600(2) 0.65382(12)
H66_6 H 0.5535 0.2678 0.6825
C69_6 C 0.61469(14) 0.2577(2) 0.64531(13)
C70_6 C 0.63142(12) 0.2460(2) 0.60245(16)
H67_6 H 0.6648 0.2445 0.5967
C71_6 C 0.59820(16) 0.2366(2) 0.56810(13)
H68_6 H 0.6094 0.2287 0.5394
C72_6 C 0.6500(3) 0.2703(3) 0.6808(2)
O18_6 O 0.2880(4) 0.3028(4) 0.5489(2)
O21_4 O 0.23212(18) 0.22963(16) 0.50052(15)
O22_4 O 0.2453(2) 0.18331(17) 0.44084(16)
O23_4 O 0.25284(17) 0.2371(2) 0.23354(16)
O24_4 O 0.29736(17) 0.21920(19) 0.29457(15)
H69_6 H 0.137397 0.168247 0.191176
H70_6 H 0.155103 0.218747 0.174816
H71_6 H 0.314397 0.326206 0.547684
H72_6 H 0.257226 0.317389 0.5595
O7_4 O 0.23212(18) 0.77037(16) 0.49948(15)
O8_4 O 0.2453(2) 0.81669(17) 0.55916(16)
C1_6 C 0.2451(4) 0.8227(3) 0.0858(3)
C2_6 C 0.2532(2) 0.85963(12) 0.11854(13)
C3_6 C 0.2667(2) 0.84980(11) 0.16280(15)
H1_6 H 0.2735 0.8197 0.1713
C4_6 C 0.2702(2) 0.88498(15) 0.19442(12)
H2_6 H 0.2792 0.8784 0.2240
C5_6 C 0.2601(3) 0.92999(12) 0.18178(14)
C6_6 C 0.2466(3) 0.93981(11) 0.13752(16)
H3_6 H 0.2398 0.9699 0.1291
C7_6 C 0.2431(3) 0.90464(14) 0.10590(12)
H4_6 H 0.2340 0.9112 0.0763
C9_6 C 0.2660(2) 0.96845(13) 0.21532(15)
C10_6 C 0.2415(2) 0.96969(14) 0.25650(16)
C18_6 C 0.2014(4) 0.9325(3) 0.2663(3)
H15_6 H 0.1876 0.9378 0.2957
H16_6 H 0.2160 0.9025 0.2654
H17_6 H 0.1762 0.9345 0.2439
C20_6 C 0.23246(18) 0.96951(14) 0.36156(16)
C21_6 C 0.2055(2) 0.96596(14) 0.40126(14)
C22_6 C 0.17078(18) 0.99916(17) 0.41181(13)
H18_6 H 0.1527 0.9968 0.4384
C29_6 C 0.2771(4) 0.9389(3) 0.3519(3)
H28_6 H 0.2904 0.9466 0.3228
H29_6 H 0.2672 0.9072 0.3519
H30_6 H 0.3014 0.9437 0.3748
C30_6 C 0.2105(2) 0.92560(12) 0.43241(14)
C31_6 C 0.2223(2) 0.93224(10) 0.47767(15)
H31_6 H 0.2261 0.9618 0.4889
C32_6 C 0.2283(2) 0.89462(13) 0.50608(11)
H32_6 H 0.2361 0.8991 0.5364
C33_6 C 0.2226(2) 0.85037(11) 0.48923(13)
C34_6 C 0.2109(2) 0.84374(11) 0.44396(13)
H33_6 H 0.2070 0.8141 0.4327
C35_6 C 0.2048(2) 0.88135(15) 0.41555(11)
H34_6 H 0.1970 0.8769 0.3853
C36_6 C 0.2337(3) 0.8102(2) 0.5178(2)
P1_7 P 0.77035(8) 0.11269(6) 0.19222(6)
P2_7 P 0.63029(7) 0.23674(8) 0.06769(6)
O3_7 O 0.7237(2) 0.08078(19) 0.20208(17)
O4_7 O 0.8145(2) 0.07653(15) 0.18518(16)
O5_7 O 0.7856(2) 0.1371(2) 0.23376(16)
O6_7 O 0.7580(2) 0.13736(17) 0.15112(17)
O11_7 O 0.59720(17) 0.2816(2) 0.07585(15)
O12_7 O 0.5919(2) 0.1961(2) 0.05646(17)
O13_7 O 0.65911(18) 0.2502(2) 0.02664(17)
O14_7 O 0.65486(18) 0.2202(2) 0.10857(16)
O17_7 O 0.8340(3) 0.1890(3) 0.3122(2)
C8_7 C 0.6642(3) 0.0816(3) 0.2849(3)
C11_7 C 0.7536(2) 0.00761(16) 0.21530(14)
C12_7 C 0.7243(2) 0.04430(14) 0.22829(15)
C13_7 C 0.6998(2) 0.04306(15) 0.26948(17)
C14_7 C 0.7047(2) 0.00514(16) 0.29767(14)
H5_7 H 0.6883 0.0043 0.3252
C15_7 C 0.6312(6) 0.0659(4) 0.3223(5)
H6_7 H 0.6101 0.0907 0.3312
H7_7 H 0.6505 0.0563 0.3477
H8_7 H 0.6117 0.0405 0.3119
C16_7 C 0.6936(6) 0.1241(4) 0.3038(5)
H9_7 H 0.6710 0.1474 0.3134
H10_7 H 0.7144 0.1362 0.2804
H11_7 H 0.7132 0.1146 0.3290
C17_7 C 0.6328(5) 0.1030(4) 0.2475(5)
H12_7 H 0.6123 0.1265 0.2602
H13_7 H 0.6127 0.0796 0.2340
H14_7 H 0.6536 0.1162 0.2248
C19_7 C 0.77529(18) 0.00626(16) 0.16758(13)
C23_7 C 0.83697(17) 0.03591(15) 0.11733(16)
C24_7 C 0.81001(18) 0.03946(13) 0.15702(14)
C25_7 C 0.8793(3) 0.0703(2) 0.1060(3)
C26_7 C 0.9186(4) 0.0678(4) 0.1435(4)
H19_7 H 0.9445 0.0889 0.1367
H20_7 H 0.9315 0.0372 0.1450
H21_7 H 0.9042 0.0757 0.1720
C27_7 C 0.9040(4) 0.0596(4) 0.0611(3)
H22_7 H 0.9296 0.0815 0.0557
H23_7 H 0.8804 0.0613 0.0372
H24_7 H 0.9177 0.0292 0.0622
C28_7 C 0.8618(4) 0.1204(3) 0.1035(3)
H25_7 H 0.8890 0.1400 0.0967
H26_7 H 0.8479 0.1292 0.1321
H27_7 H 0.8374 0.1233 0.0803
C37_7 C 0.2936(2) 0.2326(2) 0.2548(2)
C38_7 C 0.33932(12) 0.24490(19) 0.22892(13)
C39_7 C 0.33582(13) 0.2662(2) 0.18700(15)
H35_7 H 0.3054 0.2753 0.1760
C40_7 C 0.37774(16) 0.2741(2) 0.16153(14)
H36_7 H 0.3754 0.2884 0.1335
C41_7 C 0.42316(13) 0.2606(2) 0.17799(15)
C42_7 C 0.42666(11) 0.23926(19) 0.21991(15)
H37_7 H 0.4571 0.2302 0.2309
C43_7 C 0.38474(14) 0.23142(18) 0.24538(12)
H38_7 H 0.3871 0.2171 0.2734
C44_7 C 0.5863(3) 0.3371(3) 0.1583(3)
C45_7 C 0.46842(14) 0.2680(2) 0.14874(15)
C46_7 C 0.47400(15) 0.2470(2) 0.10685(15)
C47_7 C 0.51686(16) 0.25329(19) 0.08232(12)
C48_7 C 0.55414(14) 0.28057(19) 0.09966(13)
C49_7 C 0.54857(15) 0.30158(18) 0.14155(14)
C50_7 C 0.50571(16) 0.29532(19) 0.16609(13)
H39_7 H 0.5020 0.3094 0.1941
C51_7 C 0.5909(5) 0.3767(4) 0.1233(4)
H40_7 H 0.6145 0.3987 0.1338
H41_7 H 0.5598 0.3915 0.1196
H42_7 H 0.6014 0.3644 0.0947
C52_7 C 0.6372(3) 0.3171(4) 0.1661(3)
H43_7 H 0.6588 0.3410 0.1763
H44_7 H 0.6494 0.3045 0.1383
H45_7 H 0.6354 0.2934 0.1885
C53_7 C 0.5720(4) 0.3604(4) 0.2026(4)
H46_7 H 0.5970 0.3819 0.2111
H47_7 H 0.5686 0.3376 0.2259
H48_7 H 0.5416 0.3763 0.1988
C54_7 C 0.4347(4) 0.2122(5) 0.0915(3)
H49_7 H 0.4433 0.2002 0.0623
H50_7 H 0.4035 0.2272 0.0897
H51_7 H 0.4329 0.1875 0.1129
C55_7 C 0.52126(18) 0.2362(2) 0.03409(13)
C56_7 C 0.48623(18) 0.2480(2) 0.00204(16)
C60_7 C 0.55654(17) 0.2034(2) 0.02393(14)
H58_7 H 0.6516 0.1594 0.0066
C64_7 C 0.5775(7) 0.1018(5) 0.0081(7)
H59_7 H 0.5981 0.0758 0.0024
H60_7 H 0.5438 0.0929 0.0053
H61_7 H 0.5834 0.1130 0.0381
C65_7 C 0.4491(3) 0.2878(4) 0.0125(3)
H63_7 H 0.4667 0.3158 0.0176
H64_7 H 0.4305 0.2802 0.0390
H69_7 H 0.862603 0.168247 0.308824
H70_7 H 0.844897 0.218747 0.325184
C57_7 C 0.48649(17) 0.2270(2) 0.95985(14)
C58_7 C 0.52177(19) 0.1942(2) 0.94969(14)
H52_7 H 0.5219 0.1801 0.9215
C59_7 C 0.55680(18) 0.1824(2) 0.98173(17)
C61_7 C 0.5892(4) 0.1406(4) 0.9730(3)
C62_7 C 0.5825(5) 0.1173(5) 0.9281(4)
H53_7 H 0.5889 0.1388 0.9042
H54_7 H 0.5495 0.1063 0.9256
H55_7 H 0.6047 0.0919 0.9258
C63_7 C 0.6438(4) 0.1497(5) 0.9764(5)
H56_7 H 0.6527 0.1734 0.9554
H57_7 H 0.6614 0.1221 0.9695
H62_7 H 0.4273 0.2916 0.9873
C66_7 C 0.45176(15) 0.2388(3) 0.92339(13)
C67_7 C 0.46850(12) 0.2505(3) 0.88053(15)
H65_7 H 0.5019 0.2520 0.8748
C68_7 C 0.43527(16) 0.2600(2) 0.84618(12)
H66_7 H 0.4465 0.2678 0.8175
C69_7 C 0.38531(14) 0.2577(2) 0.85469(13)
C70_7 C 0.36858(12) 0.2460(2) 0.89755(16)
H67_7 H 0.3352 0.2445 0.9033
C71_7 C 0.40180(16) 0.2366(2) 0.93190(13)
H68_7 H 0.3906 0.2287 0.9606
C72_7 C 0.3500(3) 0.2703(3) 0.8192(2)
O18_7 O 0.7120(4) 0.3028(4) 0.9511(2)
H71_7 H 0.685603 0.326206 0.952316
H72_7 H 0.742774 0.317389 0.9405
C1_7 C 0.7549(4) 0.8227(3) 0.4142(3)
C2_7 C 0.7468(2) 0.85963(12) 0.38146(13)
C3_7 C 0.7333(2) 0.84980(11) 0.33720(15)
H1_7 H 0.7265 0.8197 0.3287
C4_7 C 0.7298(2) 0.88498(15) 0.30558(12)
H2_7 H 0.7208 0.8784 0.2760
C5_7 C 0.7399(3) 0.92999(12) 0.31822(14)
C6_7 C 0.7534(3) 0.93981(11) 0.36248(16)
H3_7 H 0.7602 0.9699 0.3709
C7_7 C 0.7569(3) 0.90464(14) 0.39410(12)
H4_7 H 0.7660 0.9112 0.4237
C9_7 C 0.7340(2) 0.96845(13) 0.28468(15)
C10_7 C 0.7585(2) 0.96969(14) 0.24350(16)
C18_7 C 0.7986(4) 0.9325(3) 0.2337(3)
H15_7 H 0.8124 0.9378 0.2043
H16_7 H 0.7840 0.9025 0.2346
H17_7 H 0.8238 0.9345 0.2561
C20_7 C 0.76754(18) 0.96951(14) 0.13844(16)
C21_7 C 0.7945(2) 0.96596(14) 0.09874(14)
C22_7 C 0.82922(18) 0.99916(17) 0.08819(13)
H18_7 H 0.8473 0.9968 0.0616
C29_7 C 0.7229(4) 0.9389(3) 0.1481(3)
H28_7 H 0.7096 0.9466 0.1772
H29_7 H 0.7328 0.9072 0.1481
H30_7 H 0.6986 0.9437 0.1252
C30_7 C 0.7895(2) 0.92560(12) 0.06759(14)
C31_7 C 0.7777(2) 0.93224(10) 0.02233(15)
H31_7 H 0.7739 0.9618 0.0111
C33_7 C 0.7774(2) 0.85037(11) 0.01077(13)
C34_7 C 0.7891(2) 0.84374(11) 0.05604(13)
H33_7 H 0.7930 0.8141 0.0673
C35_7 C 0.7952(2) 0.88135(15) 0.08445(11)
H34_7 H 0.8030 0.8769 0.1147
C32_7 C 0.7717(2) 0.89462(13) 0.99392(11)
H32_7 H 0.7639 0.8991 0.9636
C36_7 C 0.7663(3) 0.8102(2) 0.9822(2)
C1_8 C 0.2451(4) 0.1773(3) 0.9142(3)
C2_8 C 0.2532(2) 0.14037(12) 0.88146(13)
C3_8 C 0.2667(2) 0.15020(11) 0.83720(15)
H1_8 H 0.2735 0.1803 0.8287
C4_8 C 0.2702(2) 0.11502(15) 0.80558(12)
H2_8 H 0.2792 0.1216 0.7760
C5_8 C 0.2601(3) 0.07001(12) 0.81822(14)
C6_8 C 0.2466(3) 0.06019(11) 0.86248(16)
H3_8 H 0.2398 0.0301 0.8709
C7_8 C 0.2431(3) 0.09536(14) 0.89410(12)
H4_8 H 0.2340 0.0888 0.9237
C9_8 C 0.2660(2) 0.03155(13) 0.78468(15)
C10_8 C 0.2415(2) 0.03031(14) 0.74350(16)
C18_8 C 0.2014(4) 0.0675(3) 0.7337(3)
H15_8 H 0.1876 0.0622 0.7043
H16_8 H 0.2160 0.0975 0.7346
H17_8 H 0.1762 0.0655 0.7561
C20_8 C 0.23246(18) 0.03049(14) 0.63844(16)
C21_8 C 0.2055(2) 0.03404(14) 0.59874(14)
C22_8 C 0.17078(18) 0.00084(17) 0.58819(13)
H18_8 H 0.1527 0.0032 0.5616
C29_8 C 0.2771(4) 0.0611(3) 0.6481(3)
H28_8 H 0.2904 0.0534 0.6772
H29_8 H 0.2672 0.0928 0.6481
H30_8 H 0.3014 0.0563 0.6252
C30_8 C 0.2105(2) 0.07440(12) 0.56759(14)
C31_8 C 0.2223(2) 0.06776(10) 0.52233(15)
H31_8 H 0.2261 0.0382 0.5111
C32_8 C 0.2283(2) 0.10538(13) 0.49392(11)
H32_8 H 0.2361 0.1009 0.4636
C33_8 C 0.2226(2) 0.14963(11) 0.51077(13)
C34_8 C 0.2109(2) 0.15626(11) 0.55604(13)
H33_8 H 0.2070 0.1859 0.5673
C35_8 C 0.2048(2) 0.11865(15) 0.58445(11)
H34_8 H 0.1970 0.1231 0.6147
C36_8 C 0.2337(3) 0.1898(2) 0.4822(2)
P1_8 P 0.22965(8) 0.88731(6) 0.69222(6)
P2_8 P 0.36971(7) 0.76326(8) 0.56769(6)
O3_8 O 0.2763(2) 0.91922(19) 0.70208(17)
O4_8 O 0.1855(2) 0.92347(15) 0.68518(16)
O5_8 O 0.2144(2) 0.8629(2) 0.73376(16)
O6_8 O 0.2420(2) 0.86264(17) 0.65112(17)
O11_8 O 0.40280(17) 0.7184(2) 0.57585(15)
O12_8 O 0.4081(2) 0.8039(2) 0.55646(17)
O13_8 O 0.34089(18) 0.7498(2) 0.52664(17)
O14_8 O 0.34514(18) 0.7798(2) 0.60857(16)
O17_8 O 0.1660(3) 0.8110(3) 0.8122(2)
C8_8 C 0.3358(3) 0.9184(3) 0.7849(3)
C11_8 C 0.2464(2) 0.99239(16) 0.71530(14)
C12_8 C 0.2757(2) 0.95570(14) 0.72829(15)
C13_8 C 0.3002(2) 0.95694(15) 0.76948(17)
C14_8 C 0.2953(2) 0.99486(16) 0.79767(14)
H5_8 H 0.3117 0.9957 0.8252
C15_8 C 0.3688(6) 0.9341(4) 0.8223(5)
H6_8 H 0.3899 0.9093 0.8312
H7_8 H 0.3495 0.9437 0.8477
H8_8 H 0.3883 0.9595 0.8119
C16_8 C 0.3064(6) 0.8759(4) 0.8038(5)
H9_8 H 0.3290 0.8526 0.8134
H10_8 H 0.2856 0.8638 0.7804
H11_8 H 0.2868 0.8854 0.8290
C17_8 C 0.3672(5) 0.8970(4) 0.7475(5)
H12_8 H 0.3877 0.8735 0.7602
H13_8 H 0.3873 0.9204 0.7340
H14_8 H 0.3464 0.8838 0.7248
C19_8 C 0.22471(18) 0.99374(16) 0.66758(13)
C23_8 C 0.16303(17) 0.96409(15) 0.61733(16)
C24_8 C 0.18999(18) 0.96054(13) 0.65702(14)
C25_8 C 0.1207(3) 0.9297(2) 0.6060(3)
C26_8 C 0.0814(4) 0.9322(4) 0.6435(4)
H19_8 H 0.0555 0.9111 0.6367
H20_8 H 0.0685 0.9628 0.6450
H21_8 H 0.0958 0.9243 0.6720
C27_8 C 0.0960(4) 0.9404(4) 0.5611(3)
H22_8 H 0.0704 0.9185 0.5557
H23_8 H 0.1196 0.9387 0.5372
H24_8 H 0.0823 0.9708 0.5622
C28_8 C 0.1382(4) 0.8796(3) 0.6035(3)
H25_8 H 0.1110 0.8600 0.5967
H26_8 H 0.1521 0.8708 0.6321
H27_8 H 0.1626 0.8767 0.5803
C37_8 C 0.7064(2) 0.7674(2) 0.7548(2)
C38_8 C 0.66068(12) 0.75510(19) 0.72892(13)
C39_8 C 0.66418(13) 0.7338(2) 0.68700(15)
H35_8 H 0.6946 0.7247 0.6760
C40_8 C 0.62226(16) 0.7259(2) 0.66153(14)
H36_8 H 0.6246 0.7116 0.6335
C41_8 C 0.57684(13) 0.7394(2) 0.67799(15)
C42_8 C 0.57334(11) 0.76074(19) 0.71991(15)
H37_8 H 0.5429 0.7698 0.7309
C43_8 C 0.61526(14) 0.76858(18) 0.74538(12)
H38_8 H 0.6129 0.7829 0.7734
C44_8 C 0.4137(3) 0.6629(3) 0.6583(3)
C45_8 C 0.53158(14) 0.7320(2) 0.64874(15)
C46_8 C 0.52600(15) 0.7530(2) 0.60685(15)
C47_8 C 0.48314(16) 0.74671(19) 0.58232(12)
C48_8 C 0.44586(14) 0.71943(19) 0.59966(13)
C49_8 C 0.45143(15) 0.69842(18) 0.64155(14)
C50_8 C 0.49429(16) 0.70468(19) 0.66609(13)
H39_8 H 0.4980 0.6906 0.6941
C51_8 C 0.4091(5) 0.6233(4) 0.6233(4)
H40_8 H 0.3855 0.6013 0.6338
H41_8 H 0.4402 0.6085 0.6196
H42_8 H 0.3986 0.6356 0.5947
C52_8 C 0.3628(3) 0.6829(4) 0.6661(3)
H43_8 H 0.3412 0.6590 0.6763
H44_8 H 0.3506 0.6955 0.6383
H45_8 H 0.3646 0.7066 0.6885
C53_8 C 0.4280(4) 0.6396(4) 0.7026(4)
H46_8 H 0.4030 0.6181 0.7111
H47_8 H 0.4314 0.6624 0.7259
H48_8 H 0.4584 0.6237 0.6988
C54_8 C 0.5653(4) 0.7878(5) 0.5915(3)
H49_8 H 0.5567 0.7998 0.5623
H50_8 H 0.5965 0.7728 0.5897
H51_8 H 0.5671 0.8125 0.6129
C55_8 C 0.47874(18) 0.7638(2) 0.53409(13)
C56_8 C 0.51377(18) 0.7520(2) 0.50204(16)
C57_8 C 0.51351(17) 0.7730(2) 0.45985(14)
C58_8 C 0.47823(19) 0.8058(2) 0.44969(14)
H52_8 H 0.4781 0.8199 0.4215
C59_8 C 0.44320(18) 0.8176(2) 0.48173(17)
C60_8 C 0.44346(17) 0.7966(2) 0.52393(14)
C61_8 C 0.4108(4) 0.8594(4) 0.4730(3)
C62_8 C 0.4175(5) 0.8827(5) 0.4281(4)
H53_8 H 0.4111 0.8612 0.4042
H54_8 H 0.4505 0.8937 0.4256
H55_8 H 0.3953 0.9081 0.4258
C63_8 C 0.3562(4) 0.8503(5) 0.4764(5)
H56_8 H 0.3473 0.8266 0.4554
H57_8 H 0.3386 0.8779 0.4695
H58_8 H 0.3484 0.8406 0.5066
C64_8 C 0.4225(7) 0.8982(5) 0.5081(7)
H59_8 H 0.4019 0.9242 0.5024
H60_8 H 0.4562 0.9071 0.5053
H61_8 H 0.4166 0.8870 0.5381
C65_8 C 0.5509(3) 0.7122(4) 0.5125(3)
H62_8 H 0.5727 0.7084 0.4873
H63_8 H 0.5333 0.6842 0.5176
H64_8 H 0.5695 0.7198 0.5390
C66_8 C 0.54824(15) 0.7612(3) 0.42339(13)
C67_8 C 0.53150(12) 0.7495(3) 0.38053(15)
H65_8 H 0.4981 0.7480 0.3748
C68_8 C 0.56473(16) 0.7400(2) 0.34618(12)
H66_8 H 0.5535 0.7322 0.3175
C69_8 C 0.61469(14) 0.7423(2) 0.35469(13)
C70_8 C 0.63142(12) 0.7540(2) 0.39755(16)
H67_8 H 0.6648 0.7555 0.4033
C71_8 C 0.59820(16) 0.7634(2) 0.43190(13)
H68_8 H 0.6094 0.7713 0.4606
C72_8 C 0.6500(3) 0.7297(3) 0.3192(2)
O18_8 O 0.2880(4) 0.6972(4) 0.4511(2)
H69_8 H 0.137397 0.831753 0.808824
H70_8 H 0.155103 0.781253 0.825184
H71_8 H 0.314397 0.673794 0.452316
H72_8 H 0.257226 0.682611 0.4405
loop_
_geom_bond_atom_site_label_1
_geom_bond_atom_site_label_2
_geom_bond_site_symmetry_1
_geom_bond_site_symmetry_2
O8 C36 1_555 1_555
H32 C32 1_555 1_555
H52 C58 1_555 1_555
C59 C58 1_555 1_555
C61 C59 1_555 1_555
C62 C61 1_555 1_555
H53 C62 1_555 1_555
H54 C62 1_555 1_555
H55 C62 1_555 1_555
C63 C61 1_555 1_555
H56 C63 1_555 1_555
H57 C63 1_555 1_555
Mn6 O8 1_555 1_555
O18 H71 1_555 1_555
O18 H72 1_555 1_555
Mn1 O5 1_555 1_555
Mn2 O6 1_555 1_555
Mn3 O13 1_555 1_555
P1 O3 1_555 1_555
P2 O11 1_555 1_555
O1 C1 1_555 1_555
O2 C1 1_555 1_555
O3 C12 1_555 1_555
O4 P1 1_555 1_555
O5 P1 1_555 1_555
O6 P1 1_555 1_555
O11 C48 1_555 1_555
O12 P2 1_555 1_555
O13 P2 1_555 1_555
O14 Mn2 1_555 1_555
O17 Mn1 1_555 1_555
C1 C2 1_555 1_555
C2 C3 1_555 1_555
C3 H1 1_555 1_555
C4 C3 1_555 1_555
H2 C4 1_555 1_555
C5 C4 1_555 1_555
C6 C5 1_555 1_555
H3 C6 1_555 1_555
C7 C2 1_555 1_555
H4 C7 1_555 1_555
C8 C13 1_555 1_555
C9 C5 1_555 1_555
C10 C9 1_555 1_555
C11 C10 1_555 1_555
C12 C11 1_555 1_555
C13 C12 1_555 1_555
C14 C9 1_555 1_555
H5 C14 1_555 1_555
C15 C8 1_555 1_555
H6 C15 1_555 1_555
H7 C15 1_555 1_555
H8 C15 1_555 1_555
C16 C8 1_555 1_555
H9 C16 1_555 1_555
H10 C16 1_555 1_555
H11 C16 1_555 1_555
C17 C8 1_555 1_555
H12 C17 1_555 1_555
H13 C17 1_555 1_555
H14 C17 1_555 1_555
C18 C10 1_555 1_555
H15 C18 1_555 1_555
H16 C18 1_555 1_555
H17 C18 1_555 1_555
C19 C11 1_555 1_555
C20 C19 1_555 1_555
C21 C20 1_555 1_555
C22 C21 1_555 1_555
H18 C22 1_555 1_555
C23 C22 1_555 1_555
C24 O4 1_555 1_555
C25 C23 1_555 1_555
C26 C25 1_555 1_555
H19 C26 1_555 1_555
H20 C26 1_555 1_555
H21 C26 1_555 1_555
C27 C25 1_555 1_555
H22 C27 1_555 1_555
H23 C27 1_555 1_555
H24 C27 1_555 1_555
C28 C25 1_555 1_555
H25 C28 1_555 1_555
H26 C28 1_555 1_555
H27 C28 1_555 1_555
C29 C20 1_555 1_555
H28 C29 1_555 1_555
H29 C29 1_555 1_555
H30 C29 1_555 1_555
C30 C21 1_555 1_555
C31 C30 1_555 1_555
H31 C31 1_555 1_555
C34 C33 1_555 1_555
H33 C34 1_555 1_555
C35 C30 1_555 1_555
H34 C35 1_555 1_555
C44 C49 1_555 1_555
C48 C47 1_555 1_555
C49 C48 1_555 1_555
H39 C50 1_555 1_555
C51 C44 1_555 1_555
H40 C51 1_555 1_555
H41 C51 1_555 1_555
H42 C51 1_555 1_555
C52 C44 1_555 1_555
H43 C52 1_555 1_555
H44 C52 1_555 1_555
H45 C52 1_555 1_555
C53 C44 1_555 1_555
H46 C53 1_555 1_555
H47 C53 1_555 1_555
H48 C53 1_555 1_555
C55 C47 1_555 1_555
C60 O12 1_555 1_555
H59 C64 1_555 1_555
H60 C64 1_555 1_555
H61 C64 1_555 1_555
Mn9 O2 1_555 1_555
Mn11 O1 1_555 1_555
O19 Mn3 1_555 1_555
O20 Mn2 1_555 1_555
O22 Mn2 1_555 1_555
O23 Mn1 1_555 1_555
O24 Mn2 1_555 1_555
O25 Mn1 1_555 1_555
O26 Mn2 1_555 1_555
P2 O14 1_555 1_555
C6 C7 1_555 1_555
C13 C14 1_555 1_555
C19 C24 1_555 1_555
C23 C24 1_555 1_555
C34 C35 1_555 1_555
C49 C50 1_555 1_555
C55 C60 1_555 1_555
O17 H69 1_555 1_555
O17 H70 1_555 1_555
O15 C72 1_555 1_555
O16 C72 1_555 1_555
C66 C57 1_555 1_555
C67 C66 1_555 1_555
C68 C67 1_555 1_555
H66 C68 1_555 1_555
C69 C68 1_555 1_555
C70 C69 1_555 1_555
H67 C70 1_555 1_555
C71 C66 1_555 1_555
H68 C71 1_555 1_555
C72 C69 1_555 1_555
Mn5 O15 1_555 1_555
Mn8 O16 1_555 1_555
C70 C71 1_555 1_555
O9 C37 1_555 1_555
O10 C37 1_555 1_555
C37 C38 1_555 1_555
C38 C39 1_555 1_555
C39 H35 1_555 1_555
C40 C39 1_555 1_555
H36 C40 1_555 1_555
C41 C40 1_555 1_555
C42 C41 1_555 1_555
H37 C42 1_555 1_555
C43 C38 1_555 1_555
H38 C43 1_555 1_555
C45 C41 1_555 1_555
C46 C45 1_555 1_555
C54 C46 1_555 1_555
H49 C54 1_555 1_555
H50 C54 1_555 1_555
H51 C54 1_555 1_555
C65 C56 1_555 1_555
H63 C65 1_555 1_555
H64 C65 1_555 1_555
Mn4 O9 1_555 1_555
Mn7 O10 1_555 1_555
C42 C43 1_555 1_555
O9_2 C37_2 1_555 1_555
O10_2 C37_2 1_555 1_555
O15_2 C72_2 1_555 1_555
O16_2 C72_2 1_555 1_555
C37_2 C38_2 1_555 1_555
C38_2 C39_2 1_555 1_555
C39_2 H35_2 1_555 1_555
C40_2 C39_2 1_555 1_555
H36_2 C40_2 1_555 1_555
C41_2 C40_2 1_555 1_555
C42_2 C41_2 1_555 1_555
H37_2 C42_2 1_555 1_555
C43_2 C38_2 1_555 1_555
H38_2 C43_2 1_555 1_555
C45_2 C41_2 1_555 1_555
C46_2 C45_2 1_555 1_555
C54_2 C46_2 1_555 1_555
H49_2 C54_2 1_555 1_555
H50_2 C54_2 1_555 1_555
H51_2 C54_2 1_555 1_555
C57_2 C56_2 1_555 1_555
C65_2 C56_2 1_555 1_555
H62_2 C65_2 1_555 1_555
H63_2 C65_2 1_555 1_555
H64_2 C65_2 1_555 1_555
C66_2 C57_2 1_555 1_555
C67_2 C66_2 1_555 1_555
C68_2 C67_2 1_555 1_555
H66_2 C68_2 1_555 1_555
C69_2 C68_2 1_555 1_555
C70_2 C69_2 1_555 1_555
H67_2 C70_2 1_555 1_555
C71_2 C66_2 1_555 1_555
H68_2 C71_2 1_555 1_555
C72_2 C69_2 1_555 1_555
Mn4_2 O9_2 1_555 1_555
Mn5_2 O15_2 1_555 1_555
Mn6 O10_2 1_555 1_555
Mn9 O16_2 1_555 1_555
C42_2 C43_2 1_555 1_555
C70_2 C71_2 1_555 1_555
Mn1_2 O5_2 1_555 1_555
Mn2_2 O6_2 1_555 1_555
Mn3_2 O13_2 1_555 1_555
P1_2 O3_2 1_555 1_555
P2_2 O11_2 1_555 1_555
O1_2 C1_2 1_555 1_555
O2_2 C1_2 1_555 1_555
O3_2 C12_2 1_555 1_555
O4_2 P1_2 1_555 1_555
O5_2 P1_2 1_555 1_555
O6_2 P1_2 1_555 1_555
O7_2 C36_2 1_555 1_555
O8_2 C36_2 1_555 1_555
O11_2 C48_2 1_555 1_555
O12_2 P2_2 1_555 1_555
O13_2 P2_2 1_555 1_555
O14_2 Mn2_2 1_555 1_555
O17_2 Mn1_2 1_555 1_555
C1_2 C2_2 1_555 1_555
C2_2 C3_2 1_555 1_555
C3_2 H1_2 1_555 1_555
C4_2 C3_2 1_555 1_555
H2_2 C4_2 1_555 1_555
C5_2 C4_2 1_555 1_555
C6_2 C5_2 1_555 1_555
H3_2 C6_2 1_555 1_555
C7_2 C2_2 1_555 1_555
H4_2 C7_2 1_555 1_555
C8_2 C13_2 1_555 1_555
C9_2 C5_2 1_555 1_555
C10_2 C9_2 1_555 1_555
C11_2 C10_2 1_555 1_555
C12_2 C11_2 1_555 1_555
C13_2 C12_2 1_555 1_555
C14_2 C9_2 1_555 1_555
H5_2 C14_2 1_555 1_555
C15_2 C8_2 1_555 1_555
H6_2 C15_2 1_555 1_555
H7_2 C15_2 1_555 1_555
H8_2 C15_2 1_555 1_555
C16_2 C8_2 1_555 1_555
H9_2 C16_2 1_555 1_555
H10_2 C16_2 1_555 1_555
H11_2 C16_2 1_555 1_555
C17_2 C8_2 1_555 1_555
H12_2 C17_2 1_555 1_555
H13_2 C17_2 1_555 1_555
H14_2 C17_2 1_555 1_555
C18_2 C10_2 1_555 1_555
H15_2 C18_2 1_555 1_555
H16_2 C18_2 1_555 1_555
H17_2 C18_2 1_555 1_555
C19_2 C11_2 1_555 1_555
C20_2 C19_2 1_555 1_555
C21_2 C20_2 1_555 1_555
C22_2 C21_2 1_555 1_555
H18_2 C22_2 1_555 1_555
C23_2 C22_2 1_555 1_555
C24_2 O4_2 1_555 1_555
C25_2 C23_2 1_555 1_555
C26_2 C25_2 1_555 1_555
H19_2 C26_2 1_555 1_555
H20_2 C26_2 1_555 1_555
H21_2 C26_2 1_555 1_555
C27_2 C25_2 1_555 1_555
H22_2 C27_2 1_555 1_555
H23_2 C27_2 1_555 1_555
H24_2 C27_2 1_555 1_555
C28_2 C25_2 1_555 1_555
H25_2 C28_2 1_555 1_555
H26_2 C28_2 1_555 1_555
H27_2 C28_2 1_555 1_555
C29_2 C20_2 1_555 1_555
H28_2 C29_2 1_555 1_555
H29_2 C29_2 1_555 1_555
H30_2 C29_2 1_555 1_555
C30_2 C21_2 1_555 1_555
C31_2 C30_2 1_555 1_555
H31_2 C31_2 1_555 1_555
C32_2 C31_2 1_555 1_555
H32_2 C32_2 1_555 1_555
C33_2 C32_2 1_555 1_555
C34_2 C33_2 1_555 1_555
H33_2 C34_2 1_555 1_555
C35_2 C30_2 1_555 1_555
H34_2 C35_2 1_555 1_555
C36_2 C33_2 1_555 1_555
C44_2 C49_2 1_555 1_555
C48_2 C47_2 1_555 1_555
C49_2 C48_2 1_555 1_555
H39_2 C50_2 1_555 1_555
C51_2 C44_2 1_555 1_555
H40_2 C51_2 1_555 1_555
H41_2 C51_2 1_555 1_555
H42_2 C51_2 1_555 1_555
C52_2 C44_2 1_555 1_555
H43_2 C52_2 1_555 1_555
H44_2 C52_2 1_555 1_555
H45_2 C52_2 1_555 1_555
C53_2 C44_2 1_555 1_555
H46_2 C53_2 1_555 1_555
H47_2 C53_2 1_555 1_555
H48_2 C53_2 1_555 1_555
C55_2 C47_2 1_555 1_555
H52_2 C58_2 1_555 1_555
C59_2 C58_2 1_555 1_555
C60_2 O12_2 1_555 1_555
C61_2 C59_2 1_555 1_555
C62_2 C61_2 1_555 1_555
H53_2 C62_2 1_555 1_555
H54_2 C62_2 1_555 1_555
H55_2 C62_2 1_555 1_555
C63_2 C61_2 1_555 1_555
H56_2 C63_2 1_555 1_555
H57_2 C63_2 1_555 1_555
H58_2 C63_2 1_555 1_555
C64_2 C61_2 1_555 1_555
H59_2 C64_2 1_555 1_555
H60_2 C64_2 1_555 1_555
H61_2 C64_2 1_555 1_555
O18_2 Mn3_2 1_555 1_555
Mn7 O8_2 1_555 1_555
Mn8 O2_2 1_555 1_555
Mn10_2 O7_2 1_555 1_555
Mn11_2 O1_2 1_555 1_555
O19_2 Mn3_2 1_555 1_555
O20_2 Mn2_2 1_555 1_555
O21_2 Mn3_2 1_555 1_555
O22_2 Mn2_2 1_555 1_555
O23_2 Mn1_2 1_555 1_555
O24_2 Mn2_2 1_555 1_555
O25_2 Mn1_2 1_555 1_555
O26_2 Mn2_2 1_555 1_555
P2_2 O14_2 1_555 1_555
C6_2 C7_2 1_555 1_555
C13_2 C14_2 1_555 1_555
C19_2 C24_2 1_555 1_555
C23_2 C24_2 1_555 1_555
C34_2 C35_2 1_555 1_555
C49_2 C50_2 1_555 1_555
C55_2 C60_2 1_555 1_555
C59_2 C60_2 1_555 1_555
O17_2 H69_2 1_555 1_555
O17_2 H70_2 1_555 1_555
O18_2 H71_2 1_555 1_555
O18_2 H72_2 1_555 1_555
Mn4_2 O5_3 1_555 1_555
Mn6 O6_3 1_555 1_555
Mn10 O13_3 1_555 1_555
P1_3 O3_3 1_555 1_555
P2_3 O11_3 1_555 1_555
O1_3 C1_3 1_555 1_555
O2_3 C1_3 1_555 1_555
O3_3 C12_3 1_555 1_555
O4_3 P1_3 1_555 1_555
O5_3 P1_3 1_555 1_555
O6_3 P1_3 1_555 1_555
O11_3 C48_3 1_555 1_555
O12_3 P2_3 1_555 1_555
O13_3 P2_3 1_555 1_555
O14_3 Mn6 1_555 1_555
O17_3 Mn4_2 1_555 1_555
C1_3 C2_3 1_555 1_555
C2_3 C3_3 1_555 1_555
C3_3 H1_3 1_555 1_555
C4_3 C3_3 1_555 1_555
H2_3 C4_3 1_555 1_555
C5_3 C4_3 1_555 1_555
C6_3 C5_3 1_555 1_555
H3_3 C6_3 1_555 1_555
C7_3 C2_3 1_555 1_555
H4_3 C7_3 1_555 1_555
C8_3 C13_3 1_555 1_555
C9_3 C5_3 1_555 1_555
C10_3 C9_3 1_555 1_555
C11_3 C10_3 1_555 1_555
C12_3 C11_3 1_555 1_555
C13_3 C12_3 1_555 1_555
C14_3 C9_3 1_555 1_555
H5_3 C14_3 1_555 1_555
C15_3 C8_3 1_555 1_555
H6_3 C15_3 1_555 1_555
H7_3 C15_3 1_555 1_555
H8_3 C15_3 1_555 1_555
C16_3 C8_3 1_555 1_555
H9_3 C16_3 1_555 1_555
H10_3 C16_3 1_555 1_555
H11_3 C16_3 1_555 1_555
C17_3 C8_3 1_555 1_555
H12_3 C17_3 1_555 1_555
H13_3 C17_3 1_555 1_555
H14_3 C17_3 1_555 1_555
C18_3 C10_3 1_555 1_555
H15_3 C18_3 1_555 1_555
H16_3 C18_3 1_555 1_555
H17_3 C18_3 1_555 1_555
C19_3 C11_3 1_555 1_555
C20_3 C19_3 1_555 1_555
C21_3 C20_3 1_555 1_555
C22_3 C21_3 1_555 1_555
H18_3 C22_3 1_555 1_555
C23_3 C22_3 1_555 1_555
C24_3 O4_3 1_555 1_555
C25_3 C23_3 1_555 1_555
C26_3 C25_3 1_555 1_555
H19_3 C26_3 1_555 1_555
H20_3 C26_3 1_555 1_555
H21_3 C26_3 1_555 1_555
C27_3 C25_3 1_555 1_555
H22_3 C27_3 1_555 1_555
H23_3 C27_3 1_555 1_555
H24_3 C27_3 1_555 1_555
C28_3 C25_3 1_555 1_555
H25_3 C28_3 1_555 1_555
H26_3 C28_3 1_555 1_555
H27_3 C28_3 1_555 1_555
C29_3 C20_3 1_555 1_555
H28_3 C29_3 1_555 1_555
H29_3 C29_3 1_555 1_555
H30_3 C29_3 1_555 1_555
C30_3 C21_3 1_555 1_555
C31_3 C30_3 1_555 1_555
H31_3 C31_3 1_555 1_555
C34_3 C33_3 1_555 1_555
H33_3 C34_3 1_555 1_555
C35_3 C30_3 1_555 1_555
H34_3 C35_3 1_555 1_555
C44_3 C49_3 1_555 1_555
C48_3 C47_3 1_555 1_555
C49_3 C48_3 1_555 1_555
H39_3 C50_3 1_555 1_555
C51_3 C44_3 1_555 1_555
H40_3 C51_3 1_555 1_555
H41_3 C51_3 1_555 1_555
H42_3 C51_3 1_555 1_555
C52_3 C44_3 1_555 1_555
H43_3 C52_3 1_555 1_555
H44_3 C52_3 1_555 1_555
H45_3 C52_3 1_555 1_555
C53_3 C44_3 1_555 1_555
H46_3 C53_3 1_555 1_555
H47_3 C53_3 1_555 1_555
H48_3 C53_3 1_555 1_555
C55_3 C47_3 1_555 1_555
C60_3 O12_3 1_555 1_555
H59_3 C64_3 1_555 1_555
H60_3 C64_3 1_555 1_555
H61_3 C64_3 1_555 1_555
Mn9_2 O2_3 1_555 1_555
Mn11_3 O1_3 1_555 1_555
O19_3 Mn10 1_555 1_555
O20_3 Mn6 1_555 1_555
O25_3 Mn4_2 1_555 1_555
O26_3 Mn6 1_555 1_555
P2_3 O14_3 1_555 1_555
C6_3 C7_3 1_555 1_555
C13_3 C14_3 1_555 1_555
C19_3 C24_3 1_555 1_555
C23_3 C24_3 1_555 1_555
C34_3 C35_3 1_555 1_555
C49_3 C50_3 1_555 1_555
C55_3 C60_3 1_555 1_555
O17_3 H69_3 1_555 1_555
O17_3 H70_3 1_555 1_555
O22 C36_3 1_555 1_555
H32_3 C32_3 1_555 1_555
H52_3 C58_3 1_555 1_555
C59_3 C58_3 1_555 1_555
C61_3 C59_3 1_555 1_555
C62_3 C61_3 1_555 1_555
H53_3 C62_3 1_555 1_555
H54_3 C62_3 1_555 1_555
H55_3 C62_3 1_555 1_555
C63_3 C61_3 1_555 1_555
H56_3 C63_3 1_555 1_555
H57_3 C63_3 1_555 1_555
O18_3 H71_3 1_555 1_555
O18_3 H72_3 1_555 1_555
O23_2 C37_3 1_555 1_555
O24_2 C37_3 1_555 1_555
C37_3 C38_3 1_555 1_555
C38_3 C39_3 1_555 1_555
C39_3 H35_3 1_555 1_555
C40_3 C39_3 1_555 1_555
H36_3 C40_3 1_555 1_555
C41_3 C40_3 1_555 1_555
C42_3 C41_3 1_555 1_555
H37_3 C42_3 1_555 1_555
C43_3 C38_3 1_555 1_555
H38_3 C43_3 1_555 1_555
C45_3 C41_3 1_555 1_555
C46_3 C45_3 1_555 1_555
C54_3 C46_3 1_555 1_555
H49_3 C54_3 1_555 1_555
H50_3 C54_3 1_555 1_555
H51_3 C54_3 1_555 1_555
C65_3 C56_3 1_555 1_555
H63_3 C65_3 1_555 1_555
H64_3 C65_3 1_555 1_555
C42_3 C43_3 1_555 1_555
O15_3 C72_3 1_555 1_555
O16_3 C72_3 1_555 1_555
C66_3 C57_3 1_555 1_555
C67_3 C66_3 1_555 1_555
C68_3 C67_3 1_555 1_555
H66_3 C68_3 1_555 1_555
C69_3 C68_3 1_555 1_555
C70_3 C69_3 1_555 1_555
H67_3 C70_3 1_555 1_555
C71_3 C66_3 1_555 1_555
H68_3 C71_3 1_555 1_555
C72_3 C69_3 1_555 1_555
Mn5_3 O15_3 1_555 1_555
Mn8_2 O16_3 1_555 1_555
C70_3 C71_3 1_555 1_555
O23 C37_4 1_555 1_555
O24 C37_4 1_555 1_555
O15_4 C72_4 1_555 1_555
O16_4 C72_4 1_555 1_555
C37_4 C38_4 1_555 1_555
C38_4 C39_4 1_555 1_555
C39_4 H35_4 1_555 1_555
C40_4 C39_4 1_555 1_555
H36_4 C40_4 1_555 1_555
C41_4 C40_4 1_555 1_555
C42_4 C41_4 1_555 1_555
H37_4 C42_4 1_555 1_555
C43_4 C38_4 1_555 1_555
H38_4 C43_4 1_555 1_555
C45_4 C41_4 1_555 1_555
C46_4 C45_4 1_555 1_555
C54_4 C46_4 1_555 1_555
H49_4 C54_4 1_555 1_555
H50_4 C54_4 1_555 1_555
H51_4 C54_4 1_555 1_555
C57_4 C56_4 1_555 1_555
C65_4 C56_4 1_555 1_555
H62_4 C65_4 1_555 1_555
H63_4 C65_4 1_555 1_555
H64_4 C65_4 1_555 1_555
C66_4 C57_4 1_555 1_555
C67_4 C66_4 1_555 1_555
C68_4 C67_4 1_555 1_555
H66_4 C68_4 1_555 1_555
C69_4 C68_4 1_555 1_555
C70_4 C69_4 1_555 1_555
H67_4 C70_4 1_555 1_555
C71_4 C66_4 1_555 1_555
H68_4 C71_4 1_555 1_555
C72_4 C69_4 1_555 1_555
Mn5_4 O15_4 1_555 1_555
Mn9_2 O16_4 1_555 1_555
C42_4 C43_4 1_555 1_555
C70_4 C71_4 1_555 1_555
Mn4 O5_4 1_555 1_555
Mn7 O6_4 1_555 1_555
Mn10_2 O13_4 1_555 1_555
P1_4 O3_4 1_555 1_555
P2_4 O11_4 1_555 1_555
O1_4 C1_4 1_555 1_555
O2_4 C1_4 1_555 1_555
O3_4 C12_4 1_555 1_555
O4_4 P1_4 1_555 1_555
O5_4 P1_4 1_555 1_555
O6_4 P1_4 1_555 1_555
O21_2 C36_4 1_555 1_555
O22_2 C36_4 1_555 1_555
O11_4 C48_4 1_555 1_555
O12_4 P2_4 1_555 1_555
O13_4 P2_4 1_555 1_555
O14_4 Mn7 1_555 1_555
O17_4 Mn4 1_555 1_555
C1_4 C2_4 1_555 1_555
C2_4 C3_4 1_555 1_555
C3_4 H1_4 1_555 1_555
C4_4 C3_4 1_555 1_555
H2_4 C4_4 1_555 1_555
C5_4 C4_4 1_555 1_555
C6_4 C5_4 1_555 1_555
H3_4 C6_4 1_555 1_555
C7_4 C2_4 1_555 1_555
H4_4 C7_4 1_555 1_555
C8_4 C13_4 1_555 1_555
C9_4 C5_4 1_555 1_555
C10_4 C9_4 1_555 1_555
C11_4 C10_4 1_555 1_555
C12_4 C11_4 1_555 1_555
C13_4 C12_4 1_555 1_555
C14_4 C9_4 1_555 1_555
H5_4 C14_4 1_555 1_555
C15_4 C8_4 1_555 1_555
H6_4 C15_4 1_555 1_555
H7_4 C15_4 1_555 1_555
H8_4 C15_4 1_555 1_555
C16_4 C8_4 1_555 1_555
H9_4 C16_4 1_555 1_555
H10_4 C16_4 1_555 1_555
H11_4 C16_4 1_555 1_555
C17_4 C8_4 1_555 1_555
H12_4 C17_4 1_555 1_555
H13_4 C17_4 1_555 1_555
H14_4 C17_4 1_555 1_555
C18_4 C10_4 1_555 1_555
H15_4 C18_4 1_555 1_555
H16_4 C18_4 1_555 1_555
H17_4 C18_4 1_555 1_555
C19_4 C11_4 1_555 1_555
C20_4 C19_4 1_555 1_555
C21_4 C20_4 1_555 1_555
C22_4 C21_4 1_555 1_555
H18_4 C22_4 1_555 1_555
C23_4 C22_4 1_555 1_555
C24_4 O4_4 1_555 1_555
C25_4 C23_4 1_555 1_555
C26_4 C25_4 1_555 1_555
H19_4 C26_4 1_555 1_555
H20_4 C26_4 1_555 1_555
H21_4 C26_4 1_555 1_555
C27_4 C25_4 1_555 1_555
H22_4 C27_4 1_555 1_555
H23_4 C27_4 1_555 1_555
H24_4 C27_4 1_555 1_555
C28_4 C25_4 1_555 1_555
H25_4 C28_4 1_555 1_555
H26_4 C28_4 1_555 1_555
H27_4 C28_4 1_555 1_555
C29_4 C20_4 1_555 1_555
H28_4 C29_4 1_555 1_555
H29_4 C29_4 1_555 1_555
H30_4 C29_4 1_555 1_555
C30_4 C21_4 1_555 1_555
C31_4 C30_4 1_555 1_555
H31_4 C31_4 1_555 1_555
C32_4 C31_4 1_555 1_555
H32_4 C32_4 1_555 1_555
C33_4 C32_4 1_555 1_555
C34_4 C33_4 1_555 1_555
H33_4 C34_4 1_555 1_555
C35_4 C30_4 1_555 1_555
H34_4 C35_4 1_555 1_555
C36_4 C33_4 1_555 1_555
C44_4 C49_4 1_555 1_555
C48_4 C47_4 1_555 1_555
C49_4 C48_4 1_555 1_555
H39_4 C50_4 1_555 1_555
C51_4 C44_4 1_555 1_555
H40_4 C51_4 1_555 1_555
H41_4 C51_4 1_555 1_555
H42_4 C51_4 1_555 1_555
C52_4 C44_4 1_555 1_555
H43_4 C52_4 1_555 1_555
H44_4 C52_4 1_555 1_555
H45_4 C52_4 1_555 1_555
C53_4 C44_4 1_555 1_555
H46_4 C53_4 1_555 1_555
H47_4 C53_4 1_555 1_555
H48_4 C53_4 1_555 1_555
C55_4 C47_4 1_555 1_555
H52_4 C58_4 1_555 1_555
C59_4 C58_4 1_555 1_555
C60_4 O12_4 1_555 1_555
C61_4 C59_4 1_555 1_555
C62_4 C61_4 1_555 1_555
H53_4 C62_4 1_555 1_555
H54_4 C62_4 1_555 1_555
H55_4 C62_4 1_555 1_555
C63_4 C61_4 1_555 1_555
H56_4 C63_4 1_555 1_555
H57_4 C63_4 1_555 1_555
H58_4 C63_4 1_555 1_555
C64_4 C61_4 1_555 1_555
H59_4 C64_4 1_555 1_555
H60_4 C64_4 1_555 1_555
H61_4 C64_4 1_555 1_555
O18_4 Mn10_2 1_555 1_555
Mn8_2 O2_4 1_555 1_555
Mn11_4 O1_4 1_555 1_555
O19_4 Mn10_2 1_555 1_555
O20_4 Mn7 1_555 1_555
O25_4 Mn4 1_555 1_555
O26_4 Mn7 1_555 1_555
P2_4 O14_4 1_555 1_555
C6_4 C7_4 1_555 1_555
C13_4 C14_4 1_555 1_555
C19_4 C24_4 1_555 1_555
C23_4 C24_4 1_555 1_555
C34_4 C35_4 1_555 1_555
C49_4 C50_4 1_555 1_555
C55_4 C60_4 1_555 1_555
C59_4 C60_4 1_555 1_555
O17_4 H69_4 1_555 1_555
O17_4 H70_4 1_555 1_555
O18_4 H71_4 1_555 1_555
O18_4 H72_4 1_555 1_555
O8_3 C36_5 1_555 1_555
H32_5 C32_5 1_555 1_555
Mn8 O8_3 1_555 1_555
O19_4 C1_5 1_555 1_555
O20_4 C1_5 1_555 1_555
C1_5 C2_5 1_555 1_555
C2_5 C3_5 1_555 1_555
C3_5 H1_5 1_555 1_555
C4_5 C3_5 1_555 1_555
H2_5 C4_5 1_555 1_555
C5_5 C4_5 1_555 1_555
C6_5 C5_5 1_555 1_555
H3_5 C6_5 1_555 1_555
C7_5 C2_5 1_555 1_555
H4_5 C7_5 1_555 1_555
C9_5 C5_5 1_555 1_555
C10_5 C9_5 1_555 1_555
C18_5 C10_5 1_555 1_555
H15_5 C18_5 1_555 1_555
H16_5 C18_5 1_555 1_555
H17_5 C18_5 1_555 1_555
C21_5 C20_5 1_555 1_555
C22_5 C21_5 1_555 1_555
H18_5 C22_5 1_555 1_555
C29_5 C20_5 1_555 1_555
H28_5 C29_5 1_555 1_555
H29_5 C29_5 1_555 1_555
H30_5 C29_5 1_555 1_555
C30_5 C21_5 1_555 1_555
C31_5 C30_5 1_555 1_555
H31_5 C31_5 1_555 1_555
C34_5 C33_5 1_555 1_555
H33_5 C34_5 1_555 1_555
C35_5 C30_5 1_555 1_555
H34_5 C35_5 1_555 1_555
C6_5 C7_5 1_555 1_555
C34_5 C35_5 1_555 1_555
O25_3 C72_5 1_555 1_555
O26_3 C72_5 1_555 1_555
C58_5 C57_5 1_555 1_555
H52_5 C58_5 1_555 1_555
C59_5 C58_5 1_555 1_555
C61_5 C59_5 1_555 1_555
C62_5 C61_5 1_555 1_555
H53_5 C62_5 1_555 1_555
H54_5 C62_5 1_555 1_555
H55_5 C62_5 1_555 1_555
C63_5 C61_5 1_555 1_555
H56_5 C63_5 1_555 1_555
H57_5 C63_5 1_555 1_555
C66_5 C57_5 1_555 1_555
C67_5 C66_5 1_555 1_555
H65_5 C67_5 1_555 1_555
C68_5 C67_5 1_555 1_555
H66_5 C68_5 1_555 1_555
C69_5 C68_5 1_555 1_555
C70_5 C69_5 1_555 1_555
H67_5 C70_5 1_555 1_555
C71_5 C66_5 1_555 1_555
H68_5 C71_5 1_555 1_555
C72_5 C69_5 1_555 1_555
C70_5 C71_5 1_555 1_555
O18_5 H71_5 1_555 1_555
O18_5 H72_5 1_555 1_555
Mn5_3 O5_5 1_555 1_555
Mn8_2 O6_5 1_555 1_555
Mn11_4 O13_5 1_555 1_555
P1_5 O3_5 1_555 1_555
P2_5 O11_5 1_555 1_555
O3_5 C12_5 1_555 1_555
O4_5 P1_5 1_555 1_555
O5_5 P1_5 1_555 1_555
O6_5 P1_5 1_555 1_555
O9_3 C37_5 1_555 1_555
O10_3 C37_5 1_555 1_555
O11_5 C48_5 1_555 1_555
O12_5 P2_5 1_555 1_555
O13_5 P2_5 1_555 1_555
O14_5 Mn8_2 1_555 1_555
O17_5 Mn5_3 1_555 1_555
C8_5 C13_5 1_555 1_555
C12_5 C11_5 1_555 1_555
C13_5 C12_5 1_555 1_555
H5_5 C14_5 1_555 1_555
C15_5 C8_5 1_555 1_555
H6_5 C15_5 1_555 1_555
H7_5 C15_5 1_555 1_555
H8_5 C15_5 1_555 1_555
C16_5 C8_5 1_555 1_555
H9_5 C16_5 1_555 1_555
H10_5 C16_5 1_555 1_555
H11_5 C16_5 1_555 1_555
C17_5 C8_5 1_555 1_555
H12_5 C17_5 1_555 1_555
H13_5 C17_5 1_555 1_555
H14_5 C17_5 1_555 1_555
C19_5 C11_5 1_555 1_555
C24_5 O4_5 1_555 1_555
C25_5 C23_5 1_555 1_555
C26_5 C25_5 1_555 1_555
H19_5 C26_5 1_555 1_555
H20_5 C26_5 1_555 1_555
H21_5 C26_5 1_555 1_555
C27_5 C25_5 1_555 1_555
H22_5 C27_5 1_555 1_555
H23_5 C27_5 1_555 1_555
H24_5 C27_5 1_555 1_555
C28_5 C25_5 1_555 1_555
H25_5 C28_5 1_555 1_555
H26_5 C28_5 1_555 1_555
H27_5 C28_5 1_555 1_555
C37_5 C38_5 1_555 1_555
C38_5 C39_5 1_555 1_555
C39_5 H35_5 1_555 1_555
C40_5 C39_5 1_555 1_555
H36_5 C40_5 1_555 1_555
C41_5 C40_5 1_555 1_555
C42_5 C41_5 1_555 1_555
H37_5 C42_5 1_555 1_555
C43_5 C38_5 1_555 1_555
H38_5 C43_5 1_555 1_555
C44_5 C49_5 1_555 1_555
C45_5 C41_5 1_555 1_555
C46_5 C45_5 1_555 1_555
C47_5 C46_5 1_555 1_555
C48_5 C47_5 1_555 1_555
C49_5 C48_5 1_555 1_555
C50_5 C45_5 1_555 1_555
H39_5 C50_5 1_555 1_555
C51_5 C44_5 1_555 1_555
H40_5 C51_5 1_555 1_555
H41_5 C51_5 1_555 1_555
H42_5 C51_5 1_555 1_555
C52_5 C44_5 1_555 1_555
H43_5 C52_5 1_555 1_555
H44_5 C52_5 1_555 1_555
H45_5 C52_5 1_555 1_555
C53_5 C44_5 1_555 1_555
H46_5 C53_5 1_555 1_555
H47_5 C53_5 1_555 1_555
H48_5 C53_5 1_555 1_555
C54_5 C46_5 1_555 1_555
H49_5 C54_5 1_555 1_555
H50_5 C54_5 1_555 1_555
H51_5 C54_5 1_555 1_555
C55_5 C47_5 1_555 1_555
C56_5 C55_5 1_555 1_555
C60_5 O12_5 1_555 1_555
H59_5 C64_5 1_555 1_555
H60_5 C64_5 1_555 1_555
H61_5 C64_5 1_555 1_555
C65_5 C56_5 1_555 1_555
H63_5 C65_5 1_555 1_555
H64_5 C65_5 1_555 1_555
Mn5_2 O9_3 1_555 1_555
Mn9 O10_3 1_555 1_555
O22_3 Mn8_2 1_555 1_555
O23_3 Mn5_3 1_555 1_555
O24_3 Mn8_2 1_555 1_555
P2_5 O14_5 1_555 1_555
C13_5 C14_5 1_555 1_555
C19_5 C24_5 1_555 1_555
C23_5 C24_5 1_555 1_555
C42_5 C43_5 1_555 1_555
C49_5 C50_5 1_555 1_555
C55_5 C60_5 1_555 1_555
O17_5 H69_5 1_555 1_555
O17_5 H70_5 1_555 1_555
Mn5_4 O5_6 1_555 1_555
Mn9_2 O6_6 1_555 1_555
Mn11_3 O13_6 1_555 1_555
P1_6 O3_6 1_555 1_555
P2_6 O11_6 1_555 1_555
O3_6 C12_6 1_555 1_555
O4_6 P1_6 1_555 1_555
O5_6 P1_6 1_555 1_555
O6_6 P1_6 1_555 1_555
O9_4 C37_6 1_555 1_555
O10_4 C37_6 1_555 1_555
O11_6 C48_6 1_555 1_555
O12_6 P2_6 1_555 1_555
O13_6 P2_6 1_555 1_555
O14_6 Mn9_2 1_555 1_555
O25_4 C72_6 1_555 1_555
O26_4 C72_6 1_555 1_555
O17_6 Mn5_4 1_555 1_555
C8_6 C13_6 1_555 1_555
C12_6 C11_6 1_555 1_555
C13_6 C12_6 1_555 1_555
H5_6 C14_6 1_555 1_555
C15_6 C8_6 1_555 1_555
H6_6 C15_6 1_555 1_555
H7_6 C15_6 1_555 1_555
H8_6 C15_6 1_555 1_555
C16_6 C8_6 1_555 1_555
H9_6 C16_6 1_555 1_555
H10_6 C16_6 1_555 1_555
H11_6 C16_6 1_555 1_555
C17_6 C8_6 1_555 1_555
H12_6 C17_6 1_555 1_555
H13_6 C17_6 1_555 1_555
H14_6 C17_6 1_555 1_555
C19_6 C11_6 1_555 1_555
C24_6 O4_6 1_555 1_555
C25_6 C23_6 1_555 1_555
C26_6 C25_6 1_555 1_555
H19_6 C26_6 1_555 1_555
H20_6 C26_6 1_555 1_555
H21_6 C26_6 1_555 1_555
C27_6 C25_6 1_555 1_555
H22_6 C27_6 1_555 1_555
H23_6 C27_6 1_555 1_555
H24_6 C27_6 1_555 1_555
C28_6 C25_6 1_555 1_555
H25_6 C28_6 1_555 1_555
H26_6 C28_6 1_555 1_555
H27_6 C28_6 1_555 1_555
C37_6 C38_6 1_555 1_555
C38_6 C39_6 1_555 1_555
C39_6 H35_6 1_555 1_555
C40_6 C39_6 1_555 1_555
H36_6 C40_6 1_555 1_555
C41_6 C40_6 1_555 1_555
C42_6 C41_6 1_555 1_555
H37_6 C42_6 1_555 1_555
C43_6 C38_6 1_555 1_555
H38_6 C43_6 1_555 1_555
C44_6 C49_6 1_555 1_555
C45_6 C41_6 1_555 1_555
C46_6 C45_6 1_555 1_555
C47_6 C46_6 1_555 1_555
C48_6 C47_6 1_555 1_555
C49_6 C48_6 1_555 1_555
C50_6 C45_6 1_555 1_555
H39_6 C50_6 1_555 1_555
C51_6 C44_6 1_555 1_555
H40_6 C51_6 1_555 1_555
H41_6 C51_6 1_555 1_555
H42_6 C51_6 1_555 1_555
C52_6 C44_6 1_555 1_555
H43_6 C52_6 1_555 1_555
H44_6 C52_6 1_555 1_555
H45_6 C52_6 1_555 1_555
C53_6 C44_6 1_555 1_555
H46_6 C53_6 1_555 1_555
H47_6 C53_6 1_555 1_555
H48_6 C53_6 1_555 1_555
C54_6 C46_6 1_555 1_555
H49_6 C54_6 1_555 1_555
H50_6 C54_6 1_555 1_555
H51_6 C54_6 1_555 1_555
C55_6 C47_6 1_555 1_555
C56_6 C55_6 1_555 1_555
C57_6 C56_6 1_555 1_555
C58_6 C57_6 1_555 1_555
H52_6 C58_6 1_555 1_555
C59_6 C58_6 1_555 1_555
C60_6 O12_6 1_555 1_555
C61_6 C59_6 1_555 1_555
C62_6 C61_6 1_555 1_555
H53_6 C62_6 1_555 1_555
H54_6 C62_6 1_555 1_555
H55_6 C62_6 1_555 1_555
C63_6 C61_6 1_555 1_555
H56_6 C63_6 1_555 1_555
H57_6 C63_6 1_555 1_555
H58_6 C63_6 1_555 1_555
C64_6 C61_6 1_555 1_555
H59_6 C64_6 1_555 1_555
H60_6 C64_6 1_555 1_555
H61_6 C64_6 1_555 1_555
C65_6 C56_6 1_555 1_555
H62_6 C65_6 1_555 1_555
H63_6 C65_6 1_555 1_555
H64_6 C65_6 1_555 1_555
C66_6 C57_6 1_555 1_555
C67_6 C66_6 1_555 1_555
H65_6 C67_6 1_555 1_555
C68_6 C67_6 1_555 1_555
H66_6 C68_6 1_555 1_555
C69_6 C68_6 1_555 1_555
C70_6 C69_6 1_555 1_555
H67_6 C70_6 1_555 1_555
C71_6 C66_6 1_555 1_555
H68_6 C71_6 1_555 1_555
C72_6 C69_6 1_555 1_555
O18_6 Mn11_3 1_555 1_555
Mn5 O9_4 1_555 1_555
Mn8 O10_4 1_555 1_555
O21_4 Mn11_3 1_555 1_555
O22_4 Mn9_2 1_555 1_555
O23_4 Mn5_4 1_555 1_555
O24_4 Mn9_2 1_555 1_555
P2_6 O14_6 1_555 1_555
C13_6 C14_6 1_555 1_555
C19_6 C24_6 1_555 1_555
C23_6 C24_6 1_555 1_555
C42_6 C43_6 1_555 1_555
C49_6 C50_6 1_555 1_555
C55_6 C60_6 1_555 1_555
C59_6 C60_6 1_555 1_555
C70_6 C71_6 1_555 1_555
O17_6 H69_6 1_555 1_555
O17_6 H70_6 1_555 1_555
O18_6 H71_6 1_555 1_555
O18_6 H72_6 1_555 1_555
O19_3 C1_6 1_555 1_555
O20_3 C1_6 1_555 1_555
O7_4 C36_6 1_555 1_555
O8_4 C36_6 1_555 1_555
C1_6 C2_6 1_555 1_555
C2_6 C3_6 1_555 1_555
C3_6 H1_6 1_555 1_555
C4_6 C3_6 1_555 1_555
H2_6 C4_6 1_555 1_555
C5_6 C4_6 1_555 1_555
C6_6 C5_6 1_555 1_555
H3_6 C6_6 1_555 1_555
C7_6 C2_6 1_555 1_555
H4_6 C7_6 1_555 1_555
C9_6 C5_6 1_555 1_555
C10_6 C9_6 1_555 1_555
C18_6 C10_6 1_555 1_555
H15_6 C18_6 1_555 1_555
H16_6 C18_6 1_555 1_555
H17_6 C18_6 1_555 1_555
C21_6 C20_6 1_555 1_555
C22_6 C21_6 1_555 1_555
H18_6 C22_6 1_555 1_555
C29_6 C20_6 1_555 1_555
H28_6 C29_6 1_555 1_555
H29_6 C29_6 1_555 1_555
H30_6 C29_6 1_555 1_555
C30_6 C21_6 1_555 1_555
C31_6 C30_6 1_555 1_555
H31_6 C31_6 1_555 1_555
C32_6 C31_6 1_555 1_555
H32_6 C32_6 1_555 1_555
C33_6 C32_6 1_555 1_555
C34_6 C33_6 1_555 1_555
H33_6 C34_6 1_555 1_555
C35_6 C30_6 1_555 1_555
H34_6 C35_6 1_555 1_555
C36_6 C33_6 1_555 1_555
Mn9 O8_4 1_555 1_555
Mn11 O7_4 1_555 1_555
C6_6 C7_6 1_555 1_555
C34_6 C35_6 1_555 1_555
Mn5 O5_7 1_555 1_555
Mn8 O6_7 1_555 1_555
Mn11_2 O13_7 1_555 1_555
P1_7 O3_7 1_555 1_555
P2_7 O11_7 1_555 1_555
O3_7 C12_7 1_555 1_555
O4_7 P1_7 1_555 1_555
O5_7 P1_7 1_555 1_555
O6_7 P1_7 1_555 1_555
O23_4 C37_7 1_555 1_555
O24_4 C37_7 1_555 1_555
O11_7 C48_7 1_555 1_555
O12_7 P2_7 1_555 1_555
O13_7 P2_7 1_555 1_555
O14_7 Mn8 1_555 1_555
O17_7 Mn5 1_555 1_555
C8_7 C13_7 1_555 1_555
C12_7 C11_7 1_555 1_555
C13_7 C12_7 1_555 1_555
H5_7 C14_7 1_555 1_555
C15_7 C8_7 1_555 1_555
H6_7 C15_7 1_555 1_555
H7_7 C15_7 1_555 1_555
H8_7 C15_7 1_555 1_555
C16_7 C8_7 1_555 1_555
H9_7 C16_7 1_555 1_555
H10_7 C16_7 1_555 1_555
H11_7 C16_7 1_555 1_555
C17_7 C8_7 1_555 1_555
H12_7 C17_7 1_555 1_555
H13_7 C17_7 1_555 1_555
H14_7 C17_7 1_555 1_555
C19_7 C11_7 1_555 1_555
C24_7 O4_7 1_555 1_555
C25_7 C23_7 1_555 1_555
C26_7 C25_7 1_555 1_555
H19_7 C26_7 1_555 1_555
H20_7 C26_7 1_555 1_555
H21_7 C26_7 1_555 1_555
C27_7 C25_7 1_555 1_555
H22_7 C27_7 1_555 1_555
H23_7 C27_7 1_555 1_555
H24_7 C27_7 1_555 1_555
C28_7 C25_7 1_555 1_555
H25_7 C28_7 1_555 1_555
H26_7 C28_7 1_555 1_555
H27_7 C28_7 1_555 1_555
C37_7 C38_7 1_555 1_555
C38_7 C39_7 1_555 1_555
C39_7 H35_7 1_555 1_555
C40_7 C39_7 1_555 1_555
H36_7 C40_7 1_555 1_555
C41_7 C40_7 1_555 1_555
C42_7 C41_7 1_555 1_555
H37_7 C42_7 1_555 1_555
C43_7 C38_7 1_555 1_555
H38_7 C43_7 1_555 1_555
C44_7 C49_7 1_555 1_555
C45_7 C41_7 1_555 1_555
C46_7 C45_7 1_555 1_555
C47_7 C46_7 1_555 1_555
C48_7 C47_7 1_555 1_555
C49_7 C48_7 1_555 1_555
C50_7 C45_7 1_555 1_555
H39_7 C50_7 1_555 1_555
C51_7 C44_7 1_555 1_555
H40_7 C51_7 1_555 1_555
H41_7 C51_7 1_555 1_555
H42_7 C51_7 1_555 1_555
C52_7 C44_7 1_555 1_555
H43_7 C52_7 1_555 1_555
H44_7 C52_7 1_555 1_555
H45_7 C52_7 1_555 1_555
C53_7 C44_7 1_555 1_555
H46_7 C53_7 1_555 1_555
H47_7 C53_7 1_555 1_555
H48_7 C53_7 1_555 1_555
C54_7 C46_7 1_555 1_555
H49_7 C54_7 1_555 1_555
H50_7 C54_7 1_555 1_555
H51_7 C54_7 1_555 1_555
C55_7 C47_7 1_555 1_555
C56_7 C55_7 1_555 1_555
C60_7 O12_7 1_555 1_555
H59_7 C64_7 1_555 1_555
H60_7 C64_7 1_555 1_555
H61_7 C64_7 1_555 1_555
C65_7 C56_7 1_555 1_555
H63_7 C65_7 1_555 1_555
H64_7 C65_7 1_555 1_555
P2_7 O14_7 1_555 1_555
C13_7 C14_7 1_555 1_555
C19_7 C24_7 1_555 1_555
C23_7 C24_7 1_555 1_555
C42_7 C43_7 1_555 1_555
C49_7 C50_7 1_555 1_555
C55_7 C60_7 1_555 1_555
O17_7 H69_7 1_555 1_555
O17_7 H70_7 1_555 1_555
O25 C72_7 1_555 1_555
O26 C72_7 1_555 1_555
C58_7 C57_7 1_555 1_555
H52_7 C58_7 1_555 1_555
C59_7 C58_7 1_555 1_555
C61_7 C59_7 1_555 1_555
C62_7 C61_7 1_555 1_555
H53_7 C62_7 1_555 1_555
H54_7 C62_7 1_555 1_555
H55_7 C62_7 1_555 1_555
C63_7 C61_7 1_555 1_555
H56_7 C63_7 1_555 1_555
H57_7 C63_7 1_555 1_555
C66_7 C57_7 1_555 1_555
C67_7 C66_7 1_555 1_555
H65_7 C67_7 1_555 1_555
C68_7 C67_7 1_555 1_555
H66_7 C68_7 1_555 1_555
C69_7 C68_7 1_555 1_555
C70_7 C69_7 1_555 1_555
H67_7 C70_7 1_555 1_555
C71_7 C66_7 1_555 1_555
H68_7 C71_7 1_555 1_555
C72_7 C69_7 1_555 1_555
C70_7 C71_7 1_555 1_555
O18_7 H71_7 1_555 1_555
O18_7 H72_7 1_555 1_555
O19_2 C1_7 1_555 1_555
O20_2 C1_7 1_555 1_555
C1_7 C2_7 1_555 1_555
C2_7 C3_7 1_555 1_555
C3_7 H1_7 1_555 1_555
C4_7 C3_7 1_555 1_555
H2_7 C4_7 1_555 1_555
C5_7 C4_7 1_555 1_555
C6_7 C5_7 1_555 1_555
H3_7 C6_7 1_555 1_555
C7_7 C2_7 1_555 1_555
H4_7 C7_7 1_555 1_555
C9_7 C5_7 1_555 1_555
C10_7 C9_7 1_555 1_555
C18_7 C10_7 1_555 1_555
H15_7 C18_7 1_555 1_555
H16_7 C18_7 1_555 1_555
H17_7 C18_7 1_555 1_555
C21_7 C20_7 1_555 1_555
C22_7 C21_7 1_555 1_555
H18_7 C22_7 1_555 1_555
C29_7 C20_7 1_555 1_555
H28_7 C29_7 1_555 1_555
H29_7 C29_7 1_555 1_555
H30_7 C29_7 1_555 1_555
C30_7 C21_7 1_555 1_555
C31_7 C30_7 1_555 1_555
H31_7 C31_7 1_555 1_555
C34_7 C33_7 1_555 1_555
H33_7 C34_7 1_555 1_555
C35_7 C30_7 1_555 1_555
H34_7 C35_7 1_555 1_555
C6_7 C7_7 1_555 1_555
C34_7 C35_7 1_555 1_555
O22_3 C36_7 1_555 1_555
H32_7 C32_7 1_555 1_555
O19 C1_8 1_555 1_555
O20 C1_8 1_555 1_555
O21_4 C36_8 1_555 1_555
O22_4 C36_8 1_555 1_555
C1_8 C2_8 1_555 1_555
C2_8 C3_8 1_555 1_555
C3_8 H1_8 1_555 1_555
C4_8 C3_8 1_555 1_555
H2_8 C4_8 1_555 1_555
C5_8 C4_8 1_555 1_555
C6_8 C5_8 1_555 1_555
H3_8 C6_8 1_555 1_555
C7_8 C2_8 1_555 1_555
H4_8 C7_8 1_555 1_555
C9_8 C5_8 1_555 1_555
C10_8 C9_8 1_555 1_555
C18_8 C10_8 1_555 1_555
H15_8 C18_8 1_555 1_555
H16_8 C18_8 1_555 1_555
H17_8 C18_8 1_555 1_555
C21_8 C20_8 1_555 1_555
C22_8 C21_8 1_555 1_555
H18_8 C22_8 1_555 1_555
C29_8 C20_8 1_555 1_555
H28_8 C29_8 1_555 1_555
H29_8 C29_8 1_555 1_555
H30_8 C29_8 1_555 1_555
C30_8 C21_8 1_555 1_555
C31_8 C30_8 1_555 1_555
H31_8 C31_8 1_555 1_555
C32_8 C31_8 1_555 1_555
H32_8 C32_8 1_555 1_555
C33_8 C32_8 1_555 1_555
C34_8 C33_8 1_555 1_555
H33_8 C34_8 1_555 1_555
C35_8 C30_8 1_555 1_555
H34_8 C35_8 1_555 1_555
C36_8 C33_8 1_555 1_555
C6_8 C7_8 1_555 1_555
C34_8 C35_8 1_555 1_555
Mn5_2 O5_8 1_555 1_555
Mn9 O6_8 1_555 1_555
Mn11 O13_8 1_555 1_555
P1_8 O3_8 1_555 1_555
P2_8 O11_8 1_555 1_555
O3_8 C12_8 1_555 1_555
O4_8 P1_8 1_555 1_555
O5_8 P1_8 1_555 1_555
O6_8 P1_8 1_555 1_555
O23_3 C37_8 1_555 1_555
O24_3 C37_8 1_555 1_555
O11_8 C48_8 1_555 1_555
O12_8 P2_8 1_555 1_555
O13_8 P2_8 1_555 1_555
O14_8 Mn9 1_555 1_555
O25_2 C72_8 1_555 1_555
O26_2 C72_8 1_555 1_555
O17_8 Mn5_2 1_555 1_555
C8_8 C13_8 1_555 1_555
C12_8 C11_8 1_555 1_555
C13_8 C12_8 1_555 1_555
H5_8 C14_8 1_555 1_555
C15_8 C8_8 1_555 1_555
H6_8 C15_8 1_555 1_555
H7_8 C15_8 1_555 1_555
H8_8 C15_8 1_555 1_555
C16_8 C8_8 1_555 1_555
H9_8 C16_8 1_555 1_555
H10_8 C16_8 1_555 1_555
H11_8 C16_8 1_555 1_555
C17_8 C8_8 1_555 1_555
H12_8 C17_8 1_555 1_555
H13_8 C17_8 1_555 1_555
H14_8 C17_8 1_555 1_555
C19_8 C11_8 1_555 1_555
C24_8 O4_8 1_555 1_555
C25_8 C23_8 1_555 1_555
C26_8 C25_8 1_555 1_555
H19_8 C26_8 1_555 1_555
H20_8 C26_8 1_555 1_555
H21_8 C26_8 1_555 1_555
C27_8 C25_8 1_555 1_555
H22_8 C27_8 1_555 1_555
H23_8 C27_8 1_555 1_555
H24_8 C27_8 1_555 1_555
C28_8 C25_8 1_555 1_555
H25_8 C28_8 1_555 1_555
H26_8 C28_8 1_555 1_555
H27_8 C28_8 1_555 1_555
C37_8 C38_8 1_555 1_555
C38_8 C39_8 1_555 1_555
C39_8 H35_8 1_555 1_555
C40_8 C39_8 1_555 1_555
H36_8 C40_8 1_555 1_555
C41_8 C40_8 1_555 1_555
C42_8 C41_8 1_555 1_555
H37_8 C42_8 1_555 1_555
C43_8 C38_8 1_555 1_555
H38_8 C43_8 1_555 1_555
C44_8 C49_8 1_555 1_555
C45_8 C41_8 1_555 1_555
C46_8 C45_8 1_555 1_555
C47_8 C46_8 1_555 1_555
C48_8 C47_8 1_555 1_555
C49_8 C48_8 1_555 1_555
C50_8 C45_8 1_555 1_555
H39_8 C50_8 1_555 1_555
C51_8 C44_8 1_555 1_555
H40_8 C51_8 1_555 1_555
H41_8 C51_8 1_555 1_555
H42_8 C51_8 1_555 1_555
C52_8 C44_8 1_555 1_555
H43_8 C52_8 1_555 1_555
H44_8 C52_8 1_555 1_555
H45_8 C52_8 1_555 1_555
C53_8 C44_8 1_555 1_555
H46_8 C53_8 1_555 1_555
H47_8 C53_8 1_555 1_555
H48_8 C53_8 1_555 1_555
C54_8 C46_8 1_555 1_555
H49_8 C54_8 1_555 1_555
H50_8 C54_8 1_555 1_555
H51_8 C54_8 1_555 1_555
C55_8 C47_8 1_555 1_555
C56_8 C55_8 1_555 1_555
C57_8 C56_8 1_555 1_555
C58_8 C57_8 1_555 1_555
H52_8 C58_8 1_555 1_555
C59_8 C58_8 1_555 1_555
C60_8 O12_8 1_555 1_555
C61_8 C59_8 1_555 1_555
C62_8 C61_8 1_555 1_555
H53_8 C62_8 1_555 1_555
H54_8 C62_8 1_555 1_555
H55_8 C62_8 1_555 1_555
C63_8 C61_8 1_555 1_555
H56_8 C63_8 1_555 1_555
H57_8 C63_8 1_555 1_555
H58_8 C63_8 1_555 1_555
C64_8 C61_8 1_555 1_555
H59_8 C64_8 1_555 1_555
H60_8 C64_8 1_555 1_555
H61_8 C64_8 1_555 1_555
C65_8 C56_8 1_555 1_555
H62_8 C65_8 1_555 1_555
H63_8 C65_8 1_555 1_555
H64_8 C65_8 1_555 1_555
C66_8 C57_8 1_555 1_555
C67_8 C66_8 1_555 1_555
H65_8 C67_8 1_555 1_555
C68_8 C67_8 1_555 1_555
H66_8 C68_8 1_555 1_555
C69_8 C68_8 1_555 1_555
C70_8 C69_8 1_555 1_555
H67_8 C70_8 1_555 1_555
C71_8 C66_8 1_555 1_555
H68_8 C71_8 1_555 1_555
C72_8 C69_8 1_555 1_555
O18_8 Mn11 1_555 1_555
P2_8 O14_8 1_555 1_555
C13_8 C14_8 1_555 1_555
C19_8 C24_8 1_555 1_555
C23_8 C24_8 1_555 1_555
C42_8 C43_8 1_555 1_555
C49_8 C50_8 1_555 1_555
C55_8 C60_8 1_555 1_555
C59_8 C60_8 1_555 1_555
C70_8 C71_8 1_555 1_555
O17_8 H69_8 1_555 1_555
O17_8 H70_8 1_555 1_555
O18_8 H71_8 1_555 1_555
O18_8 H72_8 1_555 1_555

#END
