
###############################################################################
#
# This file contains modified crystal structure data generated from the
# MOF subset of the Cambridge Structural Database (CSD) v543 
# hosted by the Cambridge Crystallographic Data Centre (CCDC).
#
# This work is licensed under the Creative Commons
# Attribution-NonCommercial-ShareAlike 4.0 International License.
# To view a copy of this license, visit
# http://creativecommons.org/licenses/by-nc-sa/4.0/
# or send a letter to
# Creative Commons, PO Box 1866, Mountain View, CA 94042, USA.
#
# CIF created using the CSD Python API on 29 September 2022
# The structure has been converted into the P1 space group
# The structure has a 3D framework
# The original CSD entry WETPUJ is in the orthorhombic crystal system
# The framework has been calculated to contain at least 10.0% void space
# The void calculation uses a probe of radius 1.32A, grid spacing 0.4
# The framework is charged, counterions have been retained in the structure
#
###############################################################################

data_WETPUJ
_chemical_formula_moiety         '(C368 H384 N30 O240 Zn32)n'
_symmetry_cell_setting           triclinic
_symmetry_space_group_name_H-M   'P 1'
_symmetry_Int_Tables_number      1
_space_group_name_Hall           'P 1'
loop_
_symmetry_equiv_pos_site_id
_symmetry_equiv_pos_as_xyz
1 x,y,z
_cell_length_a                   36.709(6)
_cell_length_b                   14.468(2)
_cell_length_c                   22.856(4)
_cell_angle_alpha                90
_cell_angle_beta                 90
_cell_angle_gamma                90
_cell_volume                     12139
loop_
_atom_site_label
_atom_site_type_symbol
_atom_site_fract_x
_atom_site_fract_y
_atom_site_fract_z
C1 C 0.04651(15) 0.0433(4) 0.6694(3)
C2 C 0.00636(14) 0.0289(4) 0.6752(2)
H2 H 0.0039 0.0329 0.7641
C14 C 0.29867(16) 0.0157(4) 0.7243(3)
C15 C 0.25770(15) 0.0102(4) 0.7211(3)
C16 C 0.23903(15) 0.0122(4) 0.6685(3)
H9 H 0.2516 0.0173 0.6333
C17 C 0.20152(15) 0.0065(4) 0.6691(3)
C20 C 0.23945(15) 0.0018(4) 0.7737(3)
H10 H 0.2524 0.0014 0.8086
C21 C 0.19194(16) 0.0424(5) 0.5671(3)
H12 H 0.2090 0.0927 0.5734
C22 C 0.15954(18) 0.0762(5) 0.5326(3)
C26 C 0.22287(16) 0.0508(4) 0.8989(3)
C27 C 0.03130(16) 0.2816(4) 0.3801(2)
H17 H 0.0514 0.3073 0.3989
C28 C 0.03203(17) 0.2753(4) 0.3206(3)
H18 H 0.0521 0.2968 0.3000
C29 C 0.00293(16) 0.2371(4) 0.2911(2)
C32 C 0.00195(16) 0.2314(4) 0.2264(2)
C33 C 0.03315(16) 0.2168(4) 0.1936(2)
H21 H 0.0553 0.2078 0.2126
C34 C 0.03215(16) 0.2151(4) 0.1339(3)
H22 H 0.0538 0.2053 0.1136
C37 C 0.21919(15) 0.2427(4) 0.7630(2)
H25 H 0.1974 0.2367 0.7833
C38 C 0.21784(15) 0.2434(4) 0.7026(2)
H26 H 0.1956 0.2395 0.6833
C39 C 0.2500 0.2500 0.6709(3)
C40 C 0.2500 0.2500 0.6063(3)
C41 C 0.22199(16) 0.2900(4) 0.5738(3)
H27 H 0.2023 0.3172 0.5929
C42 C 0.22333(17) 0.2895(4) 0.5134(3)
H28 H 0.2045 0.3184 0.4931
N1 N 0.00359(13) 0.2531(3) 0.4129(2)
N2 N 0.00132(13) 0.2272(3) 0.10325(19)
N3 N 0.2500 0.2500 0.7941(3)
N4 N 0.2500 0.2500 0.4821(3)
O1 O 0.05961(10) 0.0627(3) 0.61959(17)
O2 O 0.06671(11) 0.0328(3) 0.7128(2)
O12 O 0.31689(11) 0.0104(3) 0.6771(2)
O13 O 0.31396(12) 0.0234(4) 0.7725(2)
O14 O 0.17921(10) 0.0081(3) 0.62151(18)
O15 O 0.16598(12) 0.0996(4) 0.4809(2)
O16 O 0.12894(11) 0.0802(3) 0.55552(17)
O21 O 0.21405(10) 0.1322(3) 0.88398(17)
O22 O 0.24903(13) 0.0306(3) 0.9312(2)
O23 O 0.13057(11) 0.1652(3) 0.66991(18)
H29 H 0.1272 0.2083 0.6466
H30 H 0.1278 0.1825 0.7042
O24 O 0.05254(11) 0.1977(3) 0.51743(18)
H31 H 0.0551 0.1626 0.5460
H32 H 0.0727 0.2191 0.5071
O25 O 0.02691(12) 0.3919(3) 0.49915(18)
H33 H 0.0243 0.4286 0.4712
H34 H 0.0340 0.4214 0.5289
O28 O 0.20239(10) 0.3359(3) 0.88374(18)
H39 H 0.2217 0.3703 0.8817
H40 H 0.1914 0.3458 0.9151
Zn1 Zn 0.114571(18) 0.04344(5) 0.63745(3)
Zn2 Zn 0.002116(19) 0.26243(5) 0.50779(3)
Zn4 Zn 0.2500 0.2500 0.88784(4)
C43 C 0.28081(15) 0.2573(4) 0.7630(2)
H41 H 0.3026 0.2633 0.7833
C44 C 0.28216(15) 0.2566(4) 0.7026(2)
H42 H 0.3044 0.2605 0.6833
C45 C 0.27801(16) 0.2100(4) 0.5738(3)
H43 H 0.2977 0.1828 0.5929
C46 C 0.27667(17) 0.2105(4) 0.5134(3)
H44 H 0.2955 0.1816 0.4931
C47 C 0.45349(15) 0.4567(4) 0.6694(3)
C48 C 0.49364(14) 0.4711(4) 0.6752(2)
C49 C 0.51434(15) 0.4835(4) 0.6251(2)
H45 H 0.5034 0.4800 0.5885
C50 C 0.55133(14) 0.5012(4) 0.6294(2)
C51 C 0.56718(15) 0.5069(4) 0.6841(2)
C52 C 0.54688(15) 0.4927(4) 0.7339(2)
C53 C 0.50986(15) 0.4755(4) 0.7304(2)
H46 H 0.4961 0.4671 0.7641
C54 C 0.55982(16) 0.4928(4) 0.5262(2)
H47 H 0.5766 0.5138 0.4963
H48 H 0.5369 0.5249 0.5206
C55 C 0.55388(18) 0.3898(4) 0.5199(2)
C56 C 0.61584(16) 0.6155(4) 0.6735(3)
H49 H 0.5976 0.6427 0.6481
H50 H 0.6386 0.6125 0.6519
C57 C 0.62081(14) 0.6761(4) 0.7272(3)
C58 C 0.54977(16) 0.4720(4) 0.8390(2)
H51 H 0.5418 0.4082 0.8375
H52 H 0.5288 0.5108 0.8470
C59 C 0.57811(16) 0.4842(4) 0.8862(3)
C60 C 0.20133(16) 0.4843(4) 0.7243(3)
C61 C 0.24230(15) 0.4898(4) 0.7211(3)
C62 C 0.26097(15) 0.4878(4) 0.6685(3)
H53 H 0.2484 0.4827 0.6333
C63 C 0.29848(15) 0.4935(4) 0.6691(3)
C64 C 0.31713(14) 0.5064(4) 0.7216(3)
C65 C 0.29821(15) 0.5061(4) 0.7745(2)
C66 C 0.26055(15) 0.4982(4) 0.7737(3)
H54 H 0.2476 0.4986 0.8086
C67 C 0.30806(16) 0.4576(5) 0.5671(3)
H55 H 0.2956 0.5062 0.5457
H56 H 0.2910 0.4073 0.5734
C68 C 0.34046(18) 0.4238(5) 0.5326(3)
C69 C 0.36625(17) 0.6112(4) 0.7256(3)
H57 H 0.3859 0.6153 0.7538
H58 H 0.3462 0.6484 0.7399
C70 C 0.37913(17) 0.6495(5) 0.6674(3)
C71 C 0.30030(17) 0.5297(4) 0.8775(3)
H59 H 0.2847 0.5833 0.8728
H60 H 0.3181 0.5445 0.9075
C72 C 0.27713(16) 0.4492(4) 0.8989(3)
C73 C 0.46870(16) 0.2184(4) 0.3801(2)
H61 H 0.4486 0.1927 0.3989
C74 C 0.46797(17) 0.2247(4) 0.3206(3)
H62 H 0.4479 0.2032 0.3000
C75 C 0.49707(16) 0.2629(4) 0.2911(2)
C76 C 0.52617(16) 0.2935(4) 0.3244(3)
H63 H 0.5463 0.3203 0.3065
C77 C 0.52495(17) 0.2839(4) 0.3844(3)
H64 H 0.5448 0.3041 0.4063
C78 C 0.49805(16) 0.2686(4) 0.2264(2)
C79 C 0.46685(16) 0.2832(4) 0.1936(2)
H65 H 0.4447 0.2922 0.2126
C80 C 0.46785(16) 0.2849(4) 0.1339(3)
H66 H 0.4462 0.2947 0.1136
C81 C 0.52906(16) 0.2595(4) 0.1345(3)
H67 H 0.5508 0.2513 0.1144
C82 C 0.53002(16) 0.2572(4) 0.1948(2)
H68 H 0.5520 0.2481 0.2142
N5 N 0.49641(13) 0.2469(3) 0.4129(2)
N6 N 0.49868(13) 0.2728(3) 0.10325(19)
O29 O 0.44039(10) 0.4373(3) 0.61959(17)
O30 O 0.43329(11) 0.4672(3) 0.7128(2)
O31 O 0.57424(10) 0.5148(3) 0.58306(16)
O32 O 0.58021(12) 0.3368(3) 0.5279(2)
O33 O 0.52204(11) 0.3648(3) 0.50762(17)
O34 O 0.60467(10) 0.5231(3) 0.68978(16)
O35 O 0.62239(12) 0.7610(3) 0.71977(18)
O36 O 0.62325(11) 0.6382(3) 0.77655(18)
O37 O 0.56613(10) 0.4978(3) 0.78511(17)
O38 O 0.56723(11) 0.4808(3) 0.93771(17)
O39 O 0.61080(11) 0.4966(3) 0.87142(17)
O40 O 0.18311(11) 0.4896(3) 0.6771(2)
O41 O 0.18604(12) 0.4766(4) 0.7725(2)
O42 O 0.32079(10) 0.4919(3) 0.62151(18)
O43 O 0.33402(12) 0.4004(4) 0.4809(2)
O44 O 0.37106(11) 0.4198(3) 0.55552(17)
O45 O 0.35457(10) 0.5159(3) 0.72081(17)
O46 O 0.38828(12) 0.5943(3) 0.62782(19)
O47 O 0.38102(15) 0.7352(3) 0.6631(2)
O48 O 0.31911(10) 0.5141(3) 0.82377(17)
O49 O 0.28595(10) 0.3678(3) 0.88398(17)
O50 O 0.25097(13) 0.4694(3) 0.9312(2)
O51 O 0.36943(11) 0.3348(3) 0.66991(18)
H69 H 0.3728 0.2917 0.6466
H70 H 0.3722 0.3175 0.7042
O52 O 0.44746(11) 0.3023(3) 0.51743(18)
H71 H 0.4449 0.3374 0.5460
H72 H 0.4273 0.2809 0.5071
O53 O 0.47309(12) 0.1081(3) 0.49915(18)
H73 H 0.4757 0.0714 0.4712
H74 H 0.4660 0.0786 0.5289
O54 O 0.54949(11) 0.1676(3) 0.50850(17)
H75 H 0.5534 0.1334 0.4801
H76 H 0.5636 0.2123 0.5093
O55 O 0.63011(15) 0.3702(3) 0.7654(2)
H77 H 0.6369 0.3740 0.7296
H78 H 0.6075 0.3669 0.7670
O56 O 0.29761(10) 0.1641(3) 0.88374(18)
H79 H 0.2783 0.1297 0.8817
H80 H 0.3086 0.1542 0.9151
Zn5 Zn 0.385429(18) 0.45656(5) 0.63745(3)
Zn6 Zn 0.497884(19) 0.23757(5) 0.50779(3)
Zn7 Zn 0.630977(18) 0.50366(5) 0.78771(3)
N7 N 0.00132(13) 0.2728(3) 0.60325(19)
N8 N 0.49868(13) 0.2272(3) 0.60325(19)
N9 N 0.2500 0.2500 0.9821(3)
O57 O 0.68311(11) 0.5104(3) 0.8229(2)
O59 O 0.68604(12) 0.5234(4) 0.7275(2)
Zn8 Zn 0.002116(19) 0.23757(5) 0.00779(3)
Zn9 Zn 0.497884(19) 0.26243(5) 0.00779(3)
Zn10 Zn 0.130977(18) 0.49634(5) 0.71229(3)
Zn11 Zn 0.369023(18) 0.00366(5) 0.71229(3)
Zn12 Zn 0.2500 0.2500 0.38784(4)
C4 C 0.94867(14) 0.9988(4) 0.6294(2)
C5 C 0.93282(15) 0.9931(4) 0.6841(2)
H3 H 0.9234 0.9862 0.4963
H4 H 0.9631 0.9751 0.5206
C10 C 0.88416(16) 0.8845(4) 0.6735(3)
H5 H 0.9024 0.8573 0.6481
H6 H 0.8614 0.8875 0.6519
C11 C 0.87919(14) 0.8239(4) 0.7272(3)
H8 H 0.9712 0.9892 0.8470
O3 O 0.92576(10) 0.9852(3) 0.58306(16)
O6 O 0.89533(10) 0.9769(3) 0.68978(16)
O7 O 0.87761(12) 0.7390(3) 0.71977(18)
O8 O 0.87675(11) 0.8618(3) 0.77655(18)
Zn3 Zn 0.869023(18) 0.99634(5) 0.78771(3)
O58 O 0.81689(11) 0.9896(3) 0.8229(2)
O60 O 0.81396(12) 0.9766(4) 0.7275(2)
C3 C 0.01434(15) 0.5165(4) 0.8749(2)
H1 H 0.0034 0.5200 0.9115
C4_2 C 0.05133(14) 0.4988(4) 0.8706(2)
C5_2 C 0.06718(15) 0.4931(4) 0.8159(2)
C6 C 0.04688(15) 0.5073(4) 0.7661(2)
C7 C 0.00986(15) 0.5245(4) 0.7696(2)
C8 C 0.05982(16) 0.5072(4) 0.9738(2)
H4_2 H 0.0369 0.4751 0.9794
C9 C 0.05388(18) 0.6102(4) 0.9801(2)
C10_2 C 0.11584(16) 0.3845(4) 0.8265(3)
H5_2 H 0.0976 0.3573 0.8519
H6_2 H 0.1386 0.3875 0.8481
C11_2 C 0.12081(14) 0.3239(4) 0.7728(3)
C12 C 0.04977(16) 0.5280(4) 0.6610(2)
H7 H 0.0418 0.5918 0.6625
H8_2 H 0.0288 0.4892 0.6530
C13 C 0.07811(16) 0.5158(4) 0.6138(3)
O3_2 O 0.07424(10) 0.4852(3) 0.91694(16)
O4 O 0.08021(12) 0.6632(3) 0.9721(2)
O5 O 0.02204(11) 0.6352(3) 0.99238(17)
O6_2 O 0.10467(10) 0.4769(3) 0.81022(16)
O7_2 O 0.12239(12) 0.2390(3) 0.78023(18)
O8_2 O 0.12325(11) 0.3618(3) 0.72345(18)
O9 O 0.06613(10) 0.5022(3) 0.71489(17)
O10 O 0.06723(11) 0.5192(3) 0.56229(17)
O11 O 0.11080(11) 0.5034(3) 0.62858(17)
O26 O 0.04949(11) 0.8324(3) 0.99150(17)
H36 H 0.0636 0.7877 0.9907
O27 O 0.13011(15) 0.6298(3) 0.7346(2)
H37 H 0.1369 0.6260 0.7704
H38 H 0.1075 0.6331 0.7330
C50_2 C 0.44867(14) 0.0012(4) 0.8706(2)
C51_2 C 0.43282(15) 0.0069(4) 0.8159(2)
H48_2 H 0.4631 0.0249 0.9794
C56_2 C 0.38416(16) 0.1155(4) 0.8265(3)
H49_2 H 0.4024 0.1427 0.8519
H50_2 H 0.3614 0.1125 0.8481
C57_2 C 0.37919(14) 0.1761(4) 0.7728(3)
H52_2 H 0.4712 0.0108 0.6530
C64_2 C 0.68287(14) 0.0064(4) 0.7784(3)
C65_2 C 0.70179(15) 0.0061(4) 0.7255(2)
H55_2 H 0.7044 0.0062 0.9543
C69_2 C 0.63375(17) 0.1112(4) 0.7744(3)
H57_2 H 0.6141 0.1153 0.7462
H58_2 H 0.6538 0.1484 0.7601
C70_2 C 0.62087(17) 0.1495(5) 0.8326(3)
C71_2 C 0.69970(17) 0.0297(4) 0.6225(3)
H59_2 H 0.7153 0.0833 0.6272
H60_2 H 0.6819 0.0445 0.5925
O31_2 O 0.42576(10) 0.0148(3) 0.91694(16)
O34_2 O 0.39533(10) 0.0231(3) 0.81022(16)
O35_2 O 0.37761(12) 0.2610(3) 0.78023(18)
O36_2 O 0.37675(11) 0.1382(3) 0.72345(18)
O45_2 O 0.64543(10) 0.0159(3) 0.77919(17)
O46_2 O 0.61172(12) 0.0943(3) 0.87218(19)
O47_2 O 0.61898(15) 0.2352(3) 0.8369(2)
O48_2 O 0.68089(10) 0.0141(3) 0.67623(17)
C27_2 C 0.96870(16) 0.7816(4) 0.1199(2)
H17_2 H 0.9486 0.8073 0.1011
C28_2 C 0.96797(17) 0.7753(4) 0.1794(3)
H18_2 H 0.9479 0.7968 0.2000
C29_2 C 0.99707(16) 0.7371(4) 0.2089(2)
C32_2 C 0.99805(16) 0.7314(4) 0.2736(2)
C33_2 C 0.96685(16) 0.7168(4) 0.3064(2)
H21_2 H 0.9447 0.7078 0.2874
C34_2 C 0.96785(16) 0.7151(4) 0.3661(3)
H22_2 H 0.9462 0.7053 0.3864
H28_2 H 0.7955 0.8184 0.0069
N1_2 N 0.99641(13) 0.7531(3) 0.0871(2)
N2_2 N 0.99868(13) 0.7272(3) 0.39675(19)
N4_2 N 0.7500 0.7500 0.0179(3)
O15_2 O 0.83402(12) 0.5996(4) 0.0191(2)
O25_2 O 0.97309(12) 0.8919(3) 0.00085(18)
H33_2 H 0.9757 0.9286 0.0288
H44_2 H 0.7045 0.6816 0.0069
C73_2 C 0.53130(16) 0.7184(4) 0.1199(2)
H61_2 H 0.5514 0.6927 0.1011
C74_2 C 0.53203(17) 0.7247(4) 0.1794(3)
H62_2 H 0.5521 0.7032 0.2000
C75_2 C 0.50293(16) 0.7629(4) 0.2089(2)
C76_2 C 0.47383(16) 0.7935(4) 0.1756(3)
H63_2 H 0.4537 0.8203 0.1935
C77_2 C 0.47505(17) 0.7839(4) 0.1156(3)
H64_2 H 0.4552 0.8041 0.0937
C78_2 C 0.50195(16) 0.7686(4) 0.2736(2)
C79_2 C 0.53315(16) 0.7832(4) 0.3064(2)
H65_2 H 0.5553 0.7922 0.2874
C80_2 C 0.53215(16) 0.7849(4) 0.3661(3)
H66_2 H 0.5538 0.7947 0.3864
C81_2 C 0.47094(16) 0.7595(4) 0.3655(3)
H67_2 H 0.4492 0.7513 0.3856
C82_2 C 0.46998(16) 0.7572(4) 0.3052(2)
H68_2 H 0.4480 0.7481 0.2858
N5_2 N 0.50359(13) 0.7469(3) 0.0871(2)
N6_2 N 0.50132(13) 0.7728(3) 0.39675(19)
O43_2 O 0.66598(12) 0.9004(4) 0.0191(2)
O53_2 O 0.52691(12) 0.6081(3) 0.00085(18)
H73_2 H 0.5243 0.5714 0.0288
H75_2 H 0.4466 0.6334 0.0199
Zn8_2 Zn 0.997884(19) 0.73757(5) 0.49221(3)
Zn9_2 Zn 0.502116(19) 0.76243(5) 0.49221(3)
Zn12_2 Zn 0.7500 0.7500 0.11216(4)
C1_2 C 0.95349(15) 0.5433(4) 0.8306(3)
C2_2 C 0.99364(14) 0.5289(4) 0.8248(2)
H2_2 H 0.9961 0.5329 0.7359
C14_2 C 0.70133(16) 0.5157(4) 0.7757(3)
C15_2 C 0.74230(15) 0.5102(4) 0.7789(3)
C16_2 C 0.76097(15) 0.5122(4) 0.8315(3)
H9_2 H 0.7484 0.5173 0.8667
C17_2 C 0.79848(15) 0.5065(4) 0.8309(3)
C18 C 0.81713(14) 0.4936(4) 0.7784(3)
C19 C 0.79821(15) 0.4939(4) 0.7255(2)
C20_2 C 0.76055(15) 0.5018(4) 0.7263(3)
H10_2 H 0.7476 0.5014 0.6914
C21_2 C 0.80806(16) 0.5424(5) 0.9329(3)
H11 H 0.7956 0.4938 0.9543
H12_2 H 0.7910 0.5927 0.9266
C22_2 C 0.84046(18) 0.5762(5) 0.9674(3)
C23 C 0.86625(17) 0.3888(4) 0.7744(3)
H13 H 0.8859 0.3847 0.7462
H14 H 0.8462 0.3516 0.7601
C24 C 0.87913(17) 0.3505(5) 0.8326(3)
C25 C 0.80030(17) 0.4703(4) 0.6225(3)
H15 H 0.7847 0.4167 0.6272
H16 H 0.8181 0.4555 0.5925
C26_2 C 0.77713(16) 0.5508(4) 0.6011(3)
C37_2 C 0.78081(15) 0.7427(4) 0.7370(2)
H25_2 H 0.8026 0.7367 0.7167
C38_2 C 0.78216(15) 0.7434(4) 0.7974(2)
H26_2 H 0.8044 0.7395 0.8167
C39_2 C 0.7500 0.7500 0.8291(3)
C40_2 C 0.7500 0.7500 0.8937(3)
C41_2 C 0.77801(16) 0.7900(4) 0.9262(3)
H27_2 H 0.7977 0.8172 0.9071
C42_2 C 0.77667(17) 0.7895(4) 0.9866(3)
N3_2 N 0.7500 0.7500 0.7059(3)
O1_2 O 0.94039(10) 0.5627(3) 0.88041(17)
O2_2 O 0.93329(11) 0.5328(3) 0.7872(2)
O14_2 O 0.82079(10) 0.5081(3) 0.87849(18)
O16_2 O 0.87106(11) 0.5802(3) 0.94448(17)
O17 O 0.85457(10) 0.4841(3) 0.77919(17)
O18 O 0.88828(12) 0.4057(3) 0.87218(19)
O19 O 0.88102(15) 0.2648(3) 0.8369(2)
O20 O 0.81911(10) 0.4859(3) 0.67623(17)
O21_2 O 0.78595(10) 0.6322(3) 0.61602(17)
O22_2 O 0.75097(13) 0.5306(3) 0.5688(2)
O23_2 O 0.86943(11) 0.6652(3) 0.83009(18)
H29_2 H 0.8728 0.7083 0.8534
H30_2 H 0.8722 0.6825 0.7958
O24_2 O 0.94746(11) 0.6977(3) 0.98257(18)
H31_2 H 0.9449 0.6626 0.9540
H32_2 H 0.9273 0.7191 0.9929
H34_2 H 0.9660 0.9214 0.9711
O28_2 O 0.79761(10) 0.8359(3) 0.61626(18)
H39_2 H 0.7783 0.8703 0.6183
H40_2 H 0.8086 0.8458 0.5849
Zn1_2 Zn 0.885429(18) 0.54344(5) 0.86255(3)
Zn2_2 Zn 0.997884(19) 0.76243(5) 0.99221(3)
Zn4_2 Zn 0.7500 0.7500 0.61216(4)
C43_2 C 0.71919(15) 0.7573(4) 0.7370(2)
H41_2 H 0.6974 0.7633 0.7167
C44_2 C 0.71784(15) 0.7566(4) 0.7974(2)
H42_2 H 0.6956 0.7605 0.8167
C45_2 C 0.72199(16) 0.7100(4) 0.9262(3)
H43_2 H 0.7023 0.6828 0.9071
C46_2 C 0.72333(17) 0.7105(4) 0.9866(3)
C47_2 C 0.54651(15) 0.9567(4) 0.8306(3)
C48_2 C 0.50636(14) 0.9711(4) 0.8248(2)
C49_2 C 0.48566(15) 0.9835(4) 0.8749(2)
H45_2 H 0.4966 0.9800 0.9115
C52_2 C 0.45312(15) 0.9927(4) 0.7661(2)
C53_2 C 0.49014(15) 0.9755(4) 0.7696(2)
H46_2 H 0.5039 0.9671 0.7359
C54_2 C 0.44018(16) 0.9928(4) 0.9738(2)
C55_2 C 0.44612(18) 0.8898(4) 0.9801(2)
C58_2 C 0.45023(16) 0.9720(4) 0.6610(2)
H51_2 H 0.4582 0.9082 0.6625
C59_2 C 0.42189(16) 0.9842(4) 0.6138(3)
C60_2 C 0.79867(16) 0.9843(4) 0.7757(3)
C61_2 C 0.75770(15) 0.9898(4) 0.7789(3)
C62_2 C 0.73903(15) 0.9878(4) 0.8315(3)
H53_2 H 0.7516 0.9827 0.8667
C63_2 C 0.70152(15) 0.9935(4) 0.8309(3)
C66_2 C 0.73945(15) 0.9982(4) 0.7263(3)
H54_2 H 0.7524 0.9986 0.6914
C67_2 C 0.69194(16) 0.9576(5) 0.9329(3)
H56_2 H 0.7090 0.9073 0.9266
C68_2 C 0.65954(18) 0.9238(5) 0.9674(3)
C72_2 C 0.72287(16) 0.9492(4) 0.6011(3)
O29_2 O 0.55961(10) 0.9373(3) 0.88041(17)
O30_2 O 0.56671(11) 0.9672(3) 0.7872(2)
O32_2 O 0.41979(12) 0.8368(3) 0.9721(2)
O33_2 O 0.47796(11) 0.8648(3) 0.99238(17)
O37_2 O 0.43387(10) 0.9978(3) 0.71489(17)
O38_2 O 0.43277(11) 0.9808(3) 0.56229(17)
O39_2 O 0.38920(11) 0.9966(3) 0.62858(17)
O42_2 O 0.67921(10) 0.9919(3) 0.87849(18)
O44_2 O 0.62894(11) 0.9198(3) 0.94448(17)
O49_2 O 0.71405(10) 0.8678(3) 0.61602(17)
O50_2 O 0.74903(13) 0.9694(3) 0.5688(2)
O51_2 O 0.63057(11) 0.8348(3) 0.83009(18)
H69_2 H 0.6272 0.7917 0.8534
H70_2 H 0.6278 0.8175 0.7958
O52_2 O 0.55254(11) 0.8023(3) 0.98257(18)
H71_2 H 0.5551 0.8374 0.9540
H72_2 H 0.5727 0.7809 0.9929
H74_2 H 0.5340 0.5786 0.9711
O54_2 O 0.45051(11) 0.6676(3) 0.99150(17)
H76_2 H 0.4364 0.7123 0.9907
O55_2 O 0.36989(15) 0.8702(3) 0.7346(2)
H77_2 H 0.3631 0.8740 0.7704
H78_2 H 0.3925 0.8669 0.7330
O56_2 O 0.70239(10) 0.6641(3) 0.61626(18)
H79_2 H 0.7217 0.6297 0.6183
H80_2 H 0.6914 0.6542 0.5849
Zn5_2 Zn 0.614571(18) 0.95656(5) 0.86255(3)
Zn6_2 Zn 0.502116(19) 0.73757(5) 0.99221(3)
N7_2 N 0.99868(13) 0.7728(3) 0.89675(19)
N8_2 N 0.50132(13) 0.7272(3) 0.89675(19)
N9_2 N 0.7500 0.7500 0.5179(3)
C4_3 C 0.05133(14) 0.0012(4) 0.3706(2)
C5_3 C 0.06718(15) 0.0069(4) 0.3159(2)
H3_2 H 0.0766 0.0138 0.5037
H4_3 H 0.0369 0.0249 0.4794
C10_3 C 0.11584(16) 0.1155(4) 0.3265(3)
H5_3 H 0.0976 0.1427 0.3519
H6_3 H 0.1386 0.1125 0.3481
C11_3 C 0.12081(14) 0.1761(4) 0.2728(3)
H8_3 H 0.0288 0.0108 0.1530
O3_3 O 0.07424(10) 0.0148(3) 0.41694(16)
O6_3 O 0.10467(10) 0.0231(3) 0.31022(16)
O7_3 O 0.12239(12) 0.2610(3) 0.28023(18)
O8_3 O 0.12325(11) 0.1382(3) 0.22345(18)
Zn3_2 Zn 0.130977(18) 0.00366(5) 0.21229(3)
O58_2 O 0.18311(11) 0.0104(3) 0.1771(2)
O60_2 O 0.18604(12) 0.0234(4) 0.2725(2)
C1_3 C 0.95349(15) 0.9567(4) 0.3306(3)
C2_3 C 0.99364(14) 0.9711(4) 0.3248(2)
H2_3 H 0.9961 0.9671 0.2359
C14_3 C 0.70133(16) 0.9843(4) 0.2757(3)
C15_3 C 0.74230(15) 0.9898(4) 0.2789(3)
C16_3 C 0.76097(15) 0.9878(4) 0.3315(3)
H9_3 H 0.7484 0.9827 0.3667
C17_3 C 0.79848(15) 0.9935(4) 0.3309(3)
C20_3 C 0.76055(15) 0.9982(4) 0.2263(3)
H10_3 H 0.7476 0.9986 0.1914
C21_3 C 0.80806(16) 0.9576(5) 0.4329(3)
H12_3 H 0.7910 0.9073 0.4266
C22_3 C 0.84046(18) 0.9238(5) 0.4674(3)
C26_3 C 0.77713(16) 0.9492(4) 0.1011(3)
C27_3 C 0.96870(16) 0.7184(4) 0.6199(2)
H17_3 H 0.9486 0.6927 0.6011
C28_3 C 0.96797(17) 0.7247(4) 0.6794(3)
H18_3 H 0.9479 0.7032 0.7000
C29_3 C 0.99707(16) 0.7629(4) 0.7089(2)
C32_3 C 0.99805(16) 0.7686(4) 0.7736(2)
C33_3 C 0.96685(16) 0.7832(4) 0.8064(2)
H21_3 H 0.9447 0.7922 0.7874
C34_3 C 0.96785(16) 0.7849(4) 0.8661(3)
H22_3 H 0.9462 0.7947 0.8864
C37_3 C 0.78081(15) 0.7573(4) 0.2370(2)
H25_3 H 0.8026 0.7633 0.2167
C38_3 C 0.78216(15) 0.7566(4) 0.2974(2)
H26_3 H 0.8044 0.7605 0.3167
C39_3 C 0.7500 0.7500 0.3291(3)
C40_3 C 0.7500 0.7500 0.3937(3)
C41_3 C 0.77801(16) 0.7100(4) 0.4262(3)
H27_3 H 0.7977 0.6828 0.4071
C42_3 C 0.77667(17) 0.7105(4) 0.4866(3)
H28_3 H 0.7955 0.6816 0.5069
N1_3 N 0.99641(13) 0.7469(3) 0.5871(2)
N3_3 N 0.7500 0.7500 0.2059(3)
O1_3 O 0.94039(10) 0.9373(3) 0.38041(17)
O2_3 O 0.93329(11) 0.9672(3) 0.2872(2)
O12_2 O 0.68311(11) 0.9896(3) 0.3229(2)
O13_2 O 0.68604(12) 0.9766(4) 0.2275(2)
O14_3 O 0.82079(10) 0.9919(3) 0.37849(18)
O15_3 O 0.83402(12) 0.9004(4) 0.5191(2)
O16_3 O 0.87106(11) 0.9198(3) 0.44448(17)
O21_3 O 0.78595(10) 0.8678(3) 0.11602(17)
O22_3 O 0.75097(13) 0.9694(3) 0.0688(2)
O23_3 O 0.86943(11) 0.8348(3) 0.33009(18)
H29_3 H 0.8728 0.7917 0.3534
H30_3 H 0.8722 0.8175 0.2958
O24_3 O 0.94746(11) 0.8023(3) 0.48257(18)
H31_3 H 0.9449 0.8374 0.4540
H32_3 H 0.9273 0.7809 0.4929
O25_3 O 0.97309(12) 0.6081(3) 0.50085(18)
H33_3 H 0.9757 0.5714 0.5288
H34_3 H 0.9660 0.5786 0.4711
O28_3 O 0.79761(10) 0.6641(3) 0.11626(18)
H39_3 H 0.7783 0.6297 0.1183
H40_3 H 0.8086 0.6542 0.0849
Zn1_3 Zn 0.885429(18) 0.95656(5) 0.36255(3)
C43_3 C 0.71919(15) 0.7427(4) 0.2370(2)
H41_3 H 0.6974 0.7367 0.2167
C44_3 C 0.71784(15) 0.7434(4) 0.2974(2)
H42_3 H 0.6956 0.7395 0.3167
C45_3 C 0.72199(16) 0.7900(4) 0.4262(3)
H43_3 H 0.7023 0.8172 0.4071
C46_3 C 0.72333(17) 0.7895(4) 0.4866(3)
H44_3 H 0.7045 0.8184 0.5069
C47_3 C 0.54651(15) 0.5433(4) 0.3306(3)
C48_3 C 0.50636(14) 0.5289(4) 0.3248(2)
C49_3 C 0.48566(15) 0.5165(4) 0.3749(2)
H45_3 H 0.4966 0.5200 0.4115
C50_3 C 0.44867(14) 0.4988(4) 0.3706(2)
C51_3 C 0.43282(15) 0.4931(4) 0.3159(2)
C52_3 C 0.45312(15) 0.5073(4) 0.2661(2)
C53_3 C 0.49014(15) 0.5245(4) 0.2696(2)
H46_3 H 0.5039 0.5329 0.2359
C54_3 C 0.44018(16) 0.5072(4) 0.4738(2)
H47_2 H 0.4234 0.4862 0.5037
H48_3 H 0.4631 0.4751 0.4794
C55_3 C 0.44612(18) 0.6102(4) 0.4801(2)
C56_3 C 0.38416(16) 0.3845(4) 0.3265(3)
H49_3 H 0.4024 0.3573 0.3519
H50_3 H 0.3614 0.3875 0.3481
C57_3 C 0.37919(14) 0.3239(4) 0.2728(3)
C58_3 C 0.45023(16) 0.5280(4) 0.1610(2)
H51_3 H 0.4582 0.5918 0.1625
H52_3 H 0.4712 0.4892 0.1530
C59_3 C 0.42189(16) 0.5158(4) 0.1138(3)
C60_3 C 0.79867(16) 0.5157(4) 0.2757(3)
C61_3 C 0.75770(15) 0.5102(4) 0.2789(3)
C62_3 C 0.73903(15) 0.5122(4) 0.3315(3)
H53_3 H 0.7516 0.5173 0.3667
C63_3 C 0.70152(15) 0.5065(4) 0.3309(3)
C64_3 C 0.68287(14) 0.4936(4) 0.2784(3)
C65_3 C 0.70179(15) 0.4939(4) 0.2255(2)
C66_3 C 0.73945(15) 0.5018(4) 0.2263(3)
H54_3 H 0.7524 0.5014 0.1914
C67_3 C 0.69194(16) 0.5424(5) 0.4329(3)
H55_3 H 0.7044 0.4938 0.4543
H56_3 H 0.7090 0.5927 0.4266
C68_3 C 0.65954(18) 0.5762(5) 0.4674(3)
C69_3 C 0.63375(17) 0.3888(4) 0.2744(3)
H57_3 H 0.6141 0.3847 0.2462
H58_3 H 0.6538 0.3516 0.2601
C70_3 C 0.62087(17) 0.3505(5) 0.3326(3)
C71_3 C 0.69970(17) 0.4703(4) 0.1225(3)
H59_3 H 0.7153 0.4167 0.1272
H60_3 H 0.6819 0.4555 0.0925
C72_3 C 0.72287(16) 0.5508(4) 0.1011(3)
C73_3 C 0.53130(16) 0.7816(4) 0.6199(2)
H61_3 H 0.5514 0.8073 0.6011
C74_3 C 0.53203(17) 0.7753(4) 0.6794(3)
H62_3 H 0.5521 0.7968 0.7000
C75_3 C 0.50293(16) 0.7371(4) 0.7089(2)
C76_3 C 0.47383(16) 0.7065(4) 0.6756(3)
H63_3 H 0.4537 0.6797 0.6935
C77_3 C 0.47505(17) 0.7161(4) 0.6156(3)
H64_3 H 0.4552 0.6959 0.5937
C78_3 C 0.50195(16) 0.7314(4) 0.7736(2)
C79_3 C 0.53315(16) 0.7168(4) 0.8064(2)
H65_3 H 0.5553 0.7078 0.7874
C80_3 C 0.53215(16) 0.7151(4) 0.8661(3)
H66_3 H 0.5538 0.7053 0.8864
C81_3 C 0.47094(16) 0.7405(4) 0.8655(3)
H67_3 H 0.4492 0.7487 0.8856
C82_3 C 0.46998(16) 0.7428(4) 0.8052(2)
H68_3 H 0.4480 0.7519 0.7858
N5_3 N 0.50359(13) 0.7531(3) 0.5871(2)
O29_3 O 0.55961(10) 0.5627(3) 0.38041(17)
O30_3 O 0.56671(11) 0.5328(3) 0.2872(2)
O31_3 O 0.42576(10) 0.4852(3) 0.41694(16)
O32_3 O 0.41979(12) 0.6632(3) 0.4721(2)
O33_3 O 0.47796(11) 0.6352(3) 0.49238(17)
O34_3 O 0.39533(10) 0.4769(3) 0.31022(16)
O35_3 O 0.37761(12) 0.2390(3) 0.28023(18)
O36_3 O 0.37675(11) 0.3618(3) 0.22345(18)
O37_3 O 0.43387(10) 0.5022(3) 0.21489(17)
O38_3 O 0.43277(11) 0.5192(3) 0.06229(17)
O39_3 O 0.38920(11) 0.5034(3) 0.12858(17)
O40_2 O 0.81689(11) 0.5104(3) 0.3229(2)
O41_2 O 0.81396(12) 0.5234(4) 0.2275(2)
O42_3 O 0.67921(10) 0.5081(3) 0.37849(18)
O43_3 O 0.66598(12) 0.5996(4) 0.5191(2)
O44_3 O 0.62894(11) 0.5802(3) 0.44448(17)
O45_3 O 0.64543(10) 0.4841(3) 0.27919(17)
O46_3 O 0.61172(12) 0.4057(3) 0.37218(19)
O47_3 O 0.61898(15) 0.2648(3) 0.3369(2)
O48_3 O 0.68089(10) 0.4859(3) 0.17623(17)
O49_3 O 0.71405(10) 0.6322(3) 0.11602(17)
O50_3 O 0.74903(13) 0.5306(3) 0.0688(2)
O51_3 O 0.63057(11) 0.6652(3) 0.33009(18)
H69_3 H 0.6272 0.7083 0.3534
H70_3 H 0.6278 0.6825 0.2958
O52_3 O 0.55254(11) 0.6977(3) 0.48257(18)
H71_3 H 0.5551 0.6626 0.4540
H72_3 H 0.5727 0.7191 0.4929
O53_3 O 0.52691(12) 0.8919(3) 0.50085(18)
H73_3 H 0.5243 0.9286 0.5288
H74_3 H 0.5340 0.9214 0.4711
O54_3 O 0.45051(11) 0.8324(3) 0.49150(17)
H75_3 H 0.4466 0.8666 0.5199
H76_3 H 0.4364 0.7877 0.4907
O55_3 O 0.36989(15) 0.6298(3) 0.2346(2)
H77_3 H 0.3631 0.6260 0.2704
H78_3 H 0.3925 0.6331 0.2330
O56_3 O 0.70239(10) 0.8359(3) 0.11626(18)
H79_3 H 0.7217 0.8703 0.1183
H80_3 H 0.6914 0.8458 0.0849
Zn5_3 Zn 0.614571(18) 0.54344(5) 0.36255(3)
Zn7_2 Zn 0.369023(18) 0.49634(5) 0.21229(3)
O57_2 O 0.31689(11) 0.4896(3) 0.1771(2)
O59_2 O 0.31396(12) 0.4766(4) 0.2725(2)
Zn10_2 Zn 0.869023(18) 0.50366(5) 0.28771(3)
Zn11_2 Zn 0.630977(18) 0.99634(5) 0.28771(3)
C1_4 C 0.04651(15) 0.4567(4) 0.1694(3)
C2_4 C 0.00636(14) 0.4711(4) 0.1752(2)
H2_4 H 0.0039 0.4671 0.2641
C14_4 C 0.29867(16) 0.4843(4) 0.2243(3)
C15_4 C 0.25770(15) 0.4898(4) 0.2211(3)
C16_4 C 0.23903(15) 0.4878(4) 0.1685(3)
H9_4 H 0.2516 0.4827 0.1333
C17_4 C 0.20152(15) 0.4935(4) 0.1691(3)
C18_2 C 0.18287(14) 0.5064(4) 0.2216(3)
C19_2 C 0.20179(15) 0.5061(4) 0.2745(2)
C20_4 C 0.23945(15) 0.4982(4) 0.2737(3)
H10_4 H 0.2524 0.4986 0.3086
C21_4 C 0.19194(16) 0.4576(5) 0.0671(3)
H11_2 H 0.2044 0.5062 0.0457
H12_4 H 0.2090 0.4073 0.0734
C22_4 C 0.15954(18) 0.4238(5) 0.0326(3)
C23_2 C 0.13375(17) 0.6112(4) 0.2256(3)
H13_2 H 0.1141 0.6153 0.2538
H14_2 H 0.1538 0.6484 0.2399
C24_2 C 0.12087(17) 0.6495(5) 0.1674(3)
C25_2 C 0.19970(17) 0.5297(4) 0.3775(3)
H15_2 H 0.2153 0.5833 0.3728
H16_2 H 0.1819 0.5445 0.4075
C26_4 C 0.22287(16) 0.4492(4) 0.3989(3)
C37_4 C 0.21919(15) 0.2573(4) 0.2630(2)
H25_4 H 0.1974 0.2633 0.2833
C38_4 C 0.21784(15) 0.2566(4) 0.2026(2)
H26_4 H 0.1956 0.2605 0.1833
C39_4 C 0.2500 0.2500 0.1709(3)
C40_4 C 0.2500 0.2500 0.1063(3)
C41_4 C 0.22199(16) 0.2100(4) 0.0738(3)
H27_4 H 0.2023 0.1828 0.0929
C42_4 C 0.22333(17) 0.2105(4) 0.0134(3)
N3_4 N 0.2500 0.2500 0.2941(3)
O1_4 O 0.05961(10) 0.4373(3) 0.11959(17)
O2_4 O 0.06671(11) 0.4672(3) 0.2128(2)
O14_4 O 0.17921(10) 0.4919(3) 0.12151(18)
O16_4 O 0.12894(11) 0.4198(3) 0.05552(17)
O17_2 O 0.14543(10) 0.5159(3) 0.22081(17)
O18_2 O 0.11172(12) 0.5943(3) 0.12782(19)
O19_2 O 0.11898(15) 0.7352(3) 0.1631(2)
O20_2 O 0.18089(10) 0.5141(3) 0.32377(17)
O21_4 O 0.21405(10) 0.3678(3) 0.38398(17)
O22_4 O 0.24903(13) 0.4694(3) 0.4312(2)
O23_4 O 0.13057(11) 0.3348(3) 0.16991(18)
H29_4 H 0.1272 0.2917 0.1466
H30_4 H 0.1278 0.3175 0.2042
O24_4 O 0.05254(11) 0.3023(3) 0.01743(18)
H31_4 H 0.0551 0.3374 0.0460
H32_4 H 0.0727 0.2809 0.0071
H34_4 H 0.0340 0.0786 0.0289
O28_4 O 0.20239(10) 0.1641(3) 0.38374(18)
H39_4 H 0.2217 0.1297 0.3817
H40_4 H 0.1914 0.1542 0.4151
Zn1_4 Zn 0.114571(18) 0.45656(5) 0.13745(3)
C43_4 C 0.28081(15) 0.2427(4) 0.2630(2)
H41_4 H 0.3026 0.2367 0.2833
C44_4 C 0.28216(15) 0.2434(4) 0.2026(2)
H42_4 H 0.3044 0.2395 0.1833
C45_4 C 0.27801(16) 0.2900(4) 0.0738(3)
H43_4 H 0.2977 0.3172 0.0929
C46_4 C 0.27667(17) 0.2895(4) 0.0134(3)
C47_4 C 0.45349(15) 0.0433(4) 0.1694(3)
C48_4 C 0.49364(14) 0.0289(4) 0.1752(2)
C49_4 C 0.51434(15) 0.0165(4) 0.1251(2)
H45_4 H 0.5034 0.0200 0.0885
C52_4 C 0.54688(15) 0.0073(4) 0.2339(2)
C53_4 C 0.50986(15) 0.0245(4) 0.2304(2)
H46_4 H 0.4961 0.0329 0.2641
C54_4 C 0.55982(16) 0.0072(4) 0.0262(2)
C55_4 C 0.55388(18) 0.1102(4) 0.0199(2)
C58_4 C 0.54977(16) 0.0280(4) 0.3390(2)
H51_4 H 0.5418 0.0918 0.3375
C59_4 C 0.57811(16) 0.0158(4) 0.3862(3)
C60_4 C 0.20133(16) 0.0157(4) 0.2243(3)
C61_4 C 0.24230(15) 0.0102(4) 0.2211(3)
C62_4 C 0.26097(15) 0.0122(4) 0.1685(3)
H53_4 H 0.2484 0.0173 0.1333
C63_4 C 0.29848(15) 0.0065(4) 0.1691(3)
C66_4 C 0.26055(15) 0.0018(4) 0.2737(3)
H54_4 H 0.2476 0.0014 0.3086
C67_4 C 0.30806(16) 0.0424(5) 0.0671(3)
H56_4 H 0.2910 0.0927 0.0734
C68_4 C 0.34046(18) 0.0762(5) 0.0326(3)
C72_4 C 0.27713(16) 0.0508(4) 0.3989(3)
O29_4 O 0.44039(10) 0.0627(3) 0.11959(17)
O30_4 O 0.43329(11) 0.0328(3) 0.2128(2)
O32_4 O 0.58021(12) 0.1632(3) 0.0279(2)
O33_4 O 0.52204(11) 0.1352(3) 0.00762(17)
O37_4 O 0.56613(10) 0.0022(3) 0.28511(17)
O38_4 O 0.56723(11) 0.0192(3) 0.43771(17)
O39_4 O 0.61080(11) 0.0034(3) 0.37142(17)
O42_4 O 0.32079(10) 0.0081(3) 0.12151(18)
O44_4 O 0.37106(11) 0.0802(3) 0.05552(17)
O49_4 O 0.28595(10) 0.1322(3) 0.38398(17)
O50_4 O 0.25097(13) 0.0306(3) 0.4312(2)
O51_4 O 0.36943(11) 0.1652(3) 0.16991(18)
H69_4 H 0.3728 0.2083 0.1466
H70_4 H 0.3722 0.1825 0.2042
O52_4 O 0.44746(11) 0.1977(3) 0.01743(18)
H71_4 H 0.4449 0.1626 0.0460
H72_4 H 0.4273 0.2191 0.0071
H74_4 H 0.4660 0.4214 0.0289
O54_4 O 0.54949(11) 0.3324(3) 0.00850(17)
H76_4 H 0.5636 0.2877 0.0093
O55_4 O 0.63011(15) 0.1298(3) 0.2654(2)
H77_4 H 0.6369 0.1260 0.2296
H78_4 H 0.6075 0.1331 0.2670
O56_4 O 0.29761(10) 0.3359(3) 0.38374(18)
H79_4 H 0.2783 0.3703 0.3817
H80_4 H 0.3086 0.3458 0.4151
Zn5_4 Zn 0.385429(18) 0.04344(5) 0.13745(3)
C27_4 C 0.03130(16) 0.2184(4) 0.8801(2)
H17_4 H 0.0514 0.1927 0.8989
C28_4 C 0.03203(17) 0.2247(4) 0.8206(3)
H18_4 H 0.0521 0.2032 0.8000
C29_4 C 0.00293(16) 0.2629(4) 0.7911(2)
C32_4 C 0.00195(16) 0.2686(4) 0.7264(2)
C33_4 C 0.03315(16) 0.2832(4) 0.6936(2)
H21_4 H 0.0553 0.2922 0.7126
C34_4 C 0.03215(16) 0.2849(4) 0.6339(3)
H22_4 H 0.0538 0.2947 0.6136
H28_4 H 0.2045 0.1816 0.9931
N1_4 N 0.00359(13) 0.2469(3) 0.9129(2)
O15_4 O 0.16598(12) 0.4004(4) 0.9809(2)
O25_4 O 0.02691(12) 0.1081(3) 0.99915(18)
H33_4 H 0.0243 0.0714 0.9712
H44_4 H 0.2955 0.3184 0.9931
C73_4 C 0.46870(16) 0.2816(4) 0.8801(2)
H61_4 H 0.4486 0.3073 0.8989
C74_4 C 0.46797(17) 0.2753(4) 0.8206(3)
H62_4 H 0.4479 0.2968 0.8000
C75_4 C 0.49707(16) 0.2371(4) 0.7911(2)
C76_4 C 0.52617(16) 0.2065(4) 0.8244(3)
H63_4 H 0.5463 0.1797 0.8065
C77_4 C 0.52495(17) 0.2161(4) 0.8844(3)
H64_4 H 0.5448 0.1959 0.9063
C78_4 C 0.49805(16) 0.2314(4) 0.7264(2)
C79_4 C 0.46685(16) 0.2168(4) 0.6936(2)
H65_4 H 0.4447 0.2078 0.7126
C80_4 C 0.46785(16) 0.2151(4) 0.6339(3)
H66_4 H 0.4462 0.2053 0.6136
C81_4 C 0.52906(16) 0.2405(4) 0.6345(3)
H67_4 H 0.5508 0.2487 0.6144
C82_4 C 0.53002(16) 0.2428(4) 0.6948(2)
H68_4 H 0.5520 0.2519 0.7142
N5_4 N 0.49641(13) 0.2531(3) 0.9129(2)
O43_4 O 0.33402(12) 0.0996(4) 0.9809(2)
O53_4 O 0.47309(12) 0.3919(3) 0.99915(18)
H73_4 H 0.4757 0.4286 0.9712
H75_4 H 0.5534 0.3666 0.9801
C50_4 C 0.55133(14) 0.9988(4) 0.1294(2)
C51_4 C 0.56718(15) 0.9931(4) 0.1841(2)
H48_4 H 0.5369 0.9751 0.0206
C56_4 C 0.61584(16) 0.8845(4) 0.1735(3)
H49_4 H 0.5976 0.8573 0.1481
H50_4 H 0.6386 0.8875 0.1519
C57_4 C 0.62081(14) 0.8239(4) 0.2272(3)
H52_4 H 0.5288 0.9892 0.3470
C64_4 C 0.31713(14) 0.9936(4) 0.2216(3)
C65_4 C 0.29821(15) 0.9939(4) 0.2745(2)
H55_4 H 0.2956 0.9938 0.0457
C69_4 C 0.36625(17) 0.8888(4) 0.2256(3)
H57_4 H 0.3859 0.8847 0.2538
H58_4 H 0.3462 0.8516 0.2399
C70_4 C 0.37913(17) 0.8505(5) 0.1674(3)
C71_4 C 0.30030(17) 0.9703(4) 0.3775(3)
H59_4 H 0.2847 0.9167 0.3728
H60_4 H 0.3181 0.9555 0.4075
O31_4 O 0.57424(10) 0.9852(3) 0.08306(16)
O34_4 O 0.60467(10) 0.9769(3) 0.18978(16)
O35_4 O 0.62239(12) 0.7390(3) 0.21977(18)
O36_4 O 0.62325(11) 0.8618(3) 0.27655(18)
O45_4 O 0.35457(10) 0.9841(3) 0.22081(17)
O46_4 O 0.38828(12) 0.9057(3) 0.12782(19)
O47_4 O 0.38102(15) 0.7648(3) 0.1631(2)
O48_4 O 0.31911(10) 0.9859(3) 0.32377(17)
C3_2 C 0.98566(15) 0.4835(4) 0.1251(2)
H1_2 H 0.9966 0.4800 0.0885
C4_4 C 0.94867(14) 0.5012(4) 0.1294(2)
C5_4 C 0.93282(15) 0.5069(4) 0.1841(2)
C6_2 C 0.95312(15) 0.4927(4) 0.2339(2)
C7_2 C 0.99014(15) 0.4755(4) 0.2304(2)
C8_2 C 0.94018(16) 0.4928(4) 0.0262(2)
H4_4 H 0.9631 0.5249 0.0206
C9_2 C 0.94612(18) 0.3898(4) 0.0199(2)
C10_4 C 0.88416(16) 0.6155(4) 0.1735(3)
H5_4 H 0.9024 0.6427 0.1481
H6_4 H 0.8614 0.6125 0.1519
C11_4 C 0.87919(14) 0.6761(4) 0.2272(3)
C12_2 C 0.95023(16) 0.4720(4) 0.3390(2)
H7_2 H 0.9582 0.4082 0.3375
H8_4 H 0.9712 0.5108 0.3470
C13_2 C 0.92189(16) 0.4842(4) 0.3862(3)
O3_4 O 0.92576(10) 0.5148(3) 0.08306(16)
O4_2 O 0.91979(12) 0.3368(3) 0.0279(2)
O5_2 O 0.97796(11) 0.3648(3) 0.00762(17)
O6_4 O 0.89533(10) 0.5231(3) 0.18978(16)
O7_4 O 0.87761(12) 0.7610(3) 0.21977(18)
O8_4 O 0.87675(11) 0.6382(3) 0.27655(18)
O9_2 O 0.93387(10) 0.4978(3) 0.28511(17)
O10_2 O 0.93277(11) 0.4808(3) 0.43771(17)
O11_2 O 0.88920(11) 0.4966(3) 0.37142(17)
O26_2 O 0.95051(11) 0.1676(3) 0.00850(17)
H36_2 H 0.9364 0.2123 0.0093
O27_2 O 0.86989(15) 0.3702(3) 0.2654(2)
H37_2 H 0.8631 0.3740 0.2296
H38_2 H 0.8925 0.3669 0.2670
C18_3 C 0.18287(14) 0.9936(4) 0.7216(3)
C19_3 C 0.20179(15) 0.9939(4) 0.7745(2)
H11_3 H 0.2044 0.9938 0.5457
C23_3 C 0.13375(17) 0.8888(4) 0.7256(3)
H13_3 H 0.1141 0.8847 0.7538
H14_3 H 0.1538 0.8516 0.7399
C24_3 C 0.12087(17) 0.8505(5) 0.6674(3)
C25_3 C 0.19970(17) 0.9703(4) 0.8775(3)
H15_3 H 0.2153 0.9167 0.8728
H16_3 H 0.1819 0.9555 0.9075
O17_3 O 0.14543(10) 0.9841(3) 0.72081(17)
O18_3 O 0.11172(12) 0.9057(3) 0.62782(19)
O19_3 O 0.11898(15) 0.7648(3) 0.6631(2)
O20_3 O 0.18089(10) 0.9859(3) 0.82377(17)
C3_3 C 0.98566(15) 0.0165(4) 0.6251(2)
H1_3 H 0.9966 0.0200 0.5885
C6_3 C 0.95312(15) 0.0073(4) 0.7339(2)
C7_3 C 0.99014(15) 0.0245(4) 0.7304(2)
C8_3 C 0.94018(16) 0.0072(4) 0.5262(2)
C9_3 C 0.94612(18) 0.1102(4) 0.5199(2)
C12_3 C 0.95023(16) 0.0280(4) 0.8390(2)
H7_3 H 0.9582 0.0918 0.8375
C13_3 C 0.92189(16) 0.0158(4) 0.8862(3)
C30 C 0.97383(16) 0.2065(4) 0.3244(3)
H19 H 0.9537 0.1797 0.3065
C31 C 0.97505(17) 0.2161(4) 0.3844(3)
H20 H 0.9552 0.1959 0.4063
C35 C 0.97094(16) 0.2405(4) 0.1345(3)
H23 H 0.9492 0.2487 0.1144
C36 C 0.96998(16) 0.2428(4) 0.1948(2)
H24 H 0.9480 0.2519 0.2142
O4_3 O 0.91979(12) 0.1632(3) 0.5279(2)
O5_3 O 0.97796(11) 0.1352(3) 0.50762(17)
O9_3 O 0.93387(10) 0.0022(3) 0.78511(17)
O10_3 O 0.93277(11) 0.0192(3) 0.93771(17)
O11_3 O 0.88920(11) 0.0034(3) 0.87142(17)
O26_3 O 0.95051(11) 0.3324(3) 0.50850(17)
H35 H 0.9466 0.3666 0.4801
H36_3 H 0.9364 0.2877 0.5093
O27_3 O 0.86989(15) 0.1298(3) 0.7654(2)
H37_3 H 0.8631 0.1260 0.7296
H38_3 H 0.8925 0.1331 0.7670
H3_3 H 0.0766 0.4862 0.0037
C30_2 C 0.02617(16) 0.7065(4) 0.1756(3)
H19_2 H 0.0463 0.6797 0.1935
C31_2 C 0.02495(17) 0.7161(4) 0.1156(3)
H20_2 H 0.0448 0.6959 0.0937
C35_2 C 0.02906(16) 0.7405(4) 0.3655(3)
H23_2 H 0.0508 0.7487 0.3856
C36_2 C 0.03002(16) 0.7428(4) 0.3052(2)
H24_2 H 0.0520 0.7519 0.2858
H35_2 H 0.0534 0.8666 0.0199
H47_3 H 0.4234 0.0138 0.0037
C3_4 C 0.01434(15) 0.9835(4) 0.3749(2)
H1_4 H 0.0034 0.9800 0.4115
C6_4 C 0.04688(15) 0.9927(4) 0.2661(2)
C7_4 C 0.00986(15) 0.9755(4) 0.2696(2)
C8_4 C 0.05982(16) 0.9928(4) 0.4738(2)
C9_4 C 0.05388(18) 0.8898(4) 0.4801(2)
C12_4 C 0.04977(16) 0.9720(4) 0.1610(2)
H7_4 H 0.0418 0.9082 0.1625
C13_4 C 0.07811(16) 0.9842(4) 0.1138(3)
C30_3 C 0.02617(16) 0.7935(4) 0.6756(3)
H19_3 H 0.0463 0.8203 0.6935
C31_3 C 0.02495(17) 0.7839(4) 0.6156(3)
H20_3 H 0.0448 0.8041 0.5937
C35_3 C 0.02906(16) 0.7595(4) 0.8655(3)
H23_3 H 0.0508 0.7513 0.8856
C36_3 C 0.03002(16) 0.7572(4) 0.8052(2)
H24_3 H 0.0520 0.7481 0.7858
O4_4 O 0.08021(12) 0.8368(3) 0.4721(2)
O5_4 O 0.02204(11) 0.8648(3) 0.49238(17)
O9_4 O 0.06613(10) 0.9978(3) 0.21489(17)
O10_4 O 0.06723(11) 0.9808(3) 0.06229(17)
O11_4 O 0.11080(11) 0.9966(3) 0.12858(17)
O26_4 O 0.04949(11) 0.6676(3) 0.49150(17)
H35_3 H 0.0534 0.6334 0.5199
H36_4 H 0.0636 0.7123 0.4907
O27_4 O 0.13011(15) 0.8702(3) 0.2346(2)
H37_4 H 0.1369 0.8740 0.2704
H38_4 H 0.1075 0.8669 0.2330
C18_4 C 0.81713(14) 0.0064(4) 0.2784(3)
C19_4 C 0.79821(15) 0.0061(4) 0.2255(2)
H11_4 H 0.7956 0.0062 0.4543
C23_4 C 0.86625(17) 0.1112(4) 0.2744(3)
H13_4 H 0.8859 0.1153 0.2462
H14_4 H 0.8462 0.1484 0.2601
C24_4 C 0.87913(17) 0.1495(5) 0.3326(3)
C25_4 C 0.80030(17) 0.0297(4) 0.1225(3)
H15_4 H 0.7847 0.0833 0.1272
H16_4 H 0.8181 0.0445 0.0925
O17_4 O 0.85457(10) 0.0159(3) 0.27919(17)
O18_4 O 0.88828(12) 0.0943(3) 0.37218(19)
O19_4 O 0.88102(15) 0.2352(3) 0.3369(2)
O20_4 O 0.81911(10) 0.0141(3) 0.17623(17)
H47_4 H 0.5766 0.9862 0.9963
H3_4 H 0.9234 0.5138 0.9963
C30_4 C 0.97383(16) 0.2935(4) 0.8244(3)
H19_4 H 0.9537 0.3203 0.8065
C31_4 C 0.97505(17) 0.2839(4) 0.8844(3)
H20_4 H 0.9552 0.3041 0.9063
C35_4 C 0.97094(16) 0.2595(4) 0.6345(3)
H23_4 H 0.9492 0.2513 0.6144
C36_4 C 0.96998(16) 0.2572(4) 0.6948(2)
H24_4 H 0.9480 0.2481 0.7142
H35_4 H 0.9466 0.1334 0.9801
O61 O 0.24286(15) 0.8922(3) 0.0070(2)
H85 H 0.2657 0.8871 0.0043
O62 O 0.19121(13) 0.7290(4) 0.0028(2)
H87 H 0.1971 0.7845 0.0040
H88 H 0.2043 0.6955 0.0244
Zn13 Zn 0.2500 0.7500 0.00385(4)
O63 O 0.25714(15) 0.6078(3) 0.0070(2)
H93 H 0.2343 0.6129 0.0043
O64 O 0.30879(13) 0.7710(4) 0.0028(2)
H95 H 0.3029 0.7155 0.0040
H96 H 0.2957 0.8045 0.0244
N12 N 0.2500 0.7500 0.0987(3)
C83 C 0.22344(18) 0.7103(5) 0.8787(3)
H81 H 0.2043 0.6829 0.8991
C84 C 0.22263(18) 0.7076(5) 0.8181(3)
H82 H 0.2038 0.6774 0.7988
C85 C 0.2500 0.7500 0.7866(3)
C86 C 0.2500 0.7500 0.7219(3)
C87 C 0.21950(18) 0.7294(5) 0.6897(3)
H83 H 0.1979 0.7145 0.7089
C88 C 0.22030(18) 0.7305(5) 0.6295(3)
H84 H 0.1990 0.7168 0.6093
N10 N 0.2500 0.7500 0.9095(3)
N11 N 0.2500 0.7500 0.5987(3)
H86 H 0.2333 0.9164 0.9762
C89 C 0.27656(18) 0.7897(5) 0.8787(3)
H89 H 0.2957 0.8171 0.8991
C90 C 0.27737(18) 0.7924(5) 0.8181(3)
H90 H 0.2962 0.8226 0.7988
C91 C 0.28050(18) 0.7706(5) 0.6897(3)
H91 H 0.3021 0.7855 0.7089
C92 C 0.27970(18) 0.7695(5) 0.6295(3)
H92 H 0.3010 0.7832 0.6093
H94 H 0.2667 0.5836 0.9762
Zn14 Zn 0.2500 0.7500 0.50385(4)
C83_2 C 0.22344(18) 0.7897(5) 0.3787(3)
H81_2 H 0.2043 0.8171 0.3991
C84_2 C 0.22263(18) 0.7924(5) 0.3181(3)
H82_2 H 0.2038 0.8226 0.2988
C85_2 C 0.2500 0.7500 0.2866(3)
C86_2 C 0.2500 0.7500 0.2219(3)
C87_2 C 0.21950(18) 0.7706(5) 0.1897(3)
H83_2 H 0.1979 0.7855 0.2089
C88_2 C 0.22030(18) 0.7695(5) 0.1295(3)
H84_2 H 0.1990 0.7832 0.1093
N10_2 N 0.2500 0.7500 0.4095(3)
O61_2 O 0.24286(15) 0.6078(3) 0.5070(2)
H85_2 H 0.2657 0.6129 0.5043
H86_2 H 0.2333 0.5836 0.4762
O62_2 O 0.19121(13) 0.7710(4) 0.5028(2)
H87_2 H 0.1971 0.7155 0.5040
H88_2 H 0.2043 0.8045 0.5244
C89_2 C 0.27656(18) 0.7103(5) 0.3787(3)
H89_2 H 0.2957 0.6829 0.3991
C90_2 C 0.27737(18) 0.7076(5) 0.3181(3)
H90_2 H 0.2962 0.6774 0.2988
C91_2 C 0.28050(18) 0.7294(5) 0.1897(3)
H91_2 H 0.3021 0.7145 0.2089
C92_2 C 0.27970(18) 0.7305(5) 0.1295(3)
H92_2 H 0.3010 0.7168 0.1093
O63_2 O 0.25714(15) 0.8922(3) 0.5070(2)
H93_2 H 0.2343 0.8871 0.5043
H94_2 H 0.2667 0.9164 0.4762
O64_2 O 0.30879(13) 0.7290(4) 0.5028(2)
H95_2 H 0.3029 0.7845 0.5040
H96_2 H 0.2957 0.6955 0.5244
C83_3 C 0.77656(18) 0.2103(5) 0.6213(3)
H81_3 H 0.7957 0.1829 0.6009
C84_3 C 0.77737(18) 0.2076(5) 0.6819(3)
H82_3 H 0.7962 0.1774 0.7012
C85_3 C 0.7500 0.2500 0.7134(3)
C86_3 C 0.7500 0.2500 0.7781(3)
C87_3 C 0.78050(18) 0.2294(5) 0.8103(3)
H83_3 H 0.8021 0.2145 0.7911
C88_3 C 0.77970(18) 0.2305(5) 0.8705(3)
H84_3 H 0.8010 0.2168 0.8907
N10_3 N 0.7500 0.2500 0.5905(3)
N11_2 N 0.7500 0.2500 0.9013(3)
O61_3 O 0.75714(15) 0.3922(3) 0.4930(2)
H85_3 H 0.7343 0.3871 0.4957
H86_3 H 0.7667 0.4164 0.5238
O62_3 O 0.80879(13) 0.2290(4) 0.4972(2)
H87_3 H 0.8029 0.2845 0.4960
H88_3 H 0.7957 0.1955 0.4756
Zn13_2 Zn 0.7500 0.2500 0.49615(4)
C89_3 C 0.72344(18) 0.2897(5) 0.6213(3)
H89_3 H 0.7043 0.3171 0.6009
C90_3 C 0.72263(18) 0.2924(5) 0.6819(3)
H90_3 H 0.7038 0.3226 0.7012
C91_3 C 0.71950(18) 0.2706(5) 0.8103(3)
H91_3 H 0.6979 0.2855 0.7911
C92_3 C 0.72030(18) 0.2695(5) 0.8705(3)
H92_3 H 0.6990 0.2832 0.8907
O63_3 O 0.74286(15) 0.1078(3) 0.4930(2)
H93_3 H 0.7657 0.1129 0.4957
H94_3 H 0.7333 0.0836 0.5238
O64_3 O 0.69121(13) 0.2710(4) 0.4972(2)
H95_3 H 0.6971 0.2155 0.4960
H96_3 H 0.7043 0.3045 0.4756
N12_2 N 0.7500 0.2500 0.4013(3)
Zn14_2 Zn 0.7500 0.2500 0.99615(4)
C83_4 C 0.77656(18) 0.2897(5) 0.1213(3)
H81_4 H 0.7957 0.3171 0.1009
C84_4 C 0.77737(18) 0.2924(5) 0.1819(3)
H82_4 H 0.7962 0.3226 0.2012
C85_4 C 0.7500 0.2500 0.2134(3)
C86_4 C 0.7500 0.2500 0.2781(3)
C87_4 C 0.78050(18) 0.2706(5) 0.3103(3)
H83_4 H 0.8021 0.2855 0.2911
C88_4 C 0.77970(18) 0.2695(5) 0.3705(3)
H84_4 H 0.8010 0.2832 0.3907
N10_4 N 0.7500 0.2500 0.0905(3)
H86_4 H 0.7667 0.0836 0.0238
C89_4 C 0.72344(18) 0.2103(5) 0.1213(3)
H89_4 H 0.7043 0.1829 0.1009
C90_4 C 0.72263(18) 0.2076(5) 0.1819(3)
H90_4 H 0.7038 0.1774 0.2012
C91_4 C 0.71950(18) 0.2294(5) 0.3103(3)
H91_4 H 0.6979 0.2145 0.2911
C92_4 C 0.72030(18) 0.2305(5) 0.3705(3)
H92_4 H 0.6990 0.2168 0.3907
H94_4 H 0.7333 0.4164 0.0238
O61_4 O 0.75714(15) 0.1078(3) 0.9930(2)
H85_4 H 0.7343 0.1129 0.9957
O62_4 O 0.80879(13) 0.2710(4) 0.9972(2)
H87_4 H 0.8029 0.2155 0.9960
H88_4 H 0.7957 0.3045 0.9756
O63_4 O 0.74286(15) 0.3922(3) 0.9930(2)
H93_4 H 0.7657 0.3871 0.9957
O64_4 O 0.69121(13) 0.2290(4) 0.9972(2)
H95_4 H 0.6971 0.2845 0.9960
H96_4 H 0.7043 0.1955 0.9756
loop_
_geom_bond_atom_site_label_1
_geom_bond_atom_site_label_2
_geom_bond_site_symmetry_1
_geom_bond_site_symmetry_2
C1 C2 1_555 1_555
C14 C15 1_555 1_555
C15 C16 1_555 1_555
C16 H9 1_555 1_555
C17 C16 1_555 1_555
C20 C15 1_555 1_555
H10 C20 1_555 1_555
H12 C21 1_555 1_555
C22 C21 1_555 1_555
C27 H17 1_555 1_555
C28 C27 1_555 1_555
H18 C28 1_555 1_555
C29 C28 1_555 1_555
C32 C29 1_555 1_555
C33 C32 1_555 1_555
H21 C33 1_555 1_555
C34 C33 1_555 1_555
H22 C34 1_555 1_555
C37 H25 1_555 1_555
C38 C37 1_555 1_555
H26 C38 1_555 1_555
C39 C38 1_555 1_555
C40 C39 1_555 1_555
C41 C40 1_555 1_555
H27 C41 1_555 1_555
C42 C41 1_555 1_555
H28 C42 1_555 1_555
N1 C27 1_555 1_555
N2 C34 1_555 1_555
N3 C37 1_555 1_555
N4 C42 1_555 1_555
O1 C1 1_555 1_555
O2 C1 1_555 1_555
O12 C14 1_555 1_555
O13 C14 1_555 1_555
O14 C17 1_555 1_555
O15 C22 1_555 1_555
O16 C22 1_555 1_555
O21 C26 1_555 1_555
O22 C26 1_555 1_555
O23 H29 1_555 1_555
H30 O23 1_555 1_555
O24 H31 1_555 1_555
H32 O24 1_555 1_555
O25 H33 1_555 1_555
H34 O25 1_555 1_555
O28 H39 1_555 1_555
H40 O28 1_555 1_555
Zn1 O1 1_555 1_555
Zn2 N1 1_555 1_555
Zn4 N3 1_555 1_555
C43 N3 1_555 1_555
H41 C43 1_555 1_555
C44 C39 1_555 1_555
H42 C44 1_555 1_555
C45 C40 1_555 1_555
H43 C45 1_555 1_555
C46 N4 1_555 1_555
H44 C46 1_555 1_555
C47 C48 1_555 1_555
C48 C49 1_555 1_555
C49 H45 1_555 1_555
C50 C49 1_555 1_555
C51 C50 1_555 1_555
C52 C51 1_555 1_555
C53 C48 1_555 1_555
H46 C53 1_555 1_555
C54 H47 1_555 1_555
H48 C54 1_555 1_555
C55 C54 1_555 1_555
C56 H49 1_555 1_555
H50 C56 1_555 1_555
C57 C56 1_555 1_555
C58 H51 1_555 1_555
H52 C58 1_555 1_555
C59 C58 1_555 1_555
C60 C61 1_555 1_555
C61 C62 1_555 1_555
C62 H53 1_555 1_555
C63 C62 1_555 1_555
C64 C63 1_555 1_555
C65 C64 1_555 1_555
C66 C61 1_555 1_555
H54 C66 1_555 1_555
C67 H55 1_555 1_555
H56 C67 1_555 1_555
C68 C67 1_555 1_555
C69 H57 1_555 1_555
H58 C69 1_555 1_555
C70 C69 1_555 1_555
C71 H59 1_555 1_555
H60 C71 1_555 1_555
C72 C71 1_555 1_555
C73 H61 1_555 1_555
C74 C73 1_555 1_555
H62 C74 1_555 1_555
C75 C74 1_555 1_555
C76 C75 1_555 1_555
H63 C76 1_555 1_555
C77 C76 1_555 1_555
H64 C77 1_555 1_555
C78 C75 1_555 1_555
C79 C78 1_555 1_555
H65 C79 1_555 1_555
C80 C79 1_555 1_555
H66 C80 1_555 1_555
C81 H67 1_555 1_555
C82 C78 1_555 1_555
H68 C82 1_555 1_555
N5 C73 1_555 1_555
N6 C80 1_555 1_555
O29 C47 1_555 1_555
O30 C47 1_555 1_555
O31 C50 1_555 1_555
O32 C55 1_555 1_555
O33 C55 1_555 1_555
O34 C51 1_555 1_555
O35 C57 1_555 1_555
O36 C57 1_555 1_555
O37 C52 1_555 1_555
O38 C59 1_555 1_555
O39 C59 1_555 1_555
O40 C60 1_555 1_555
O41 C60 1_555 1_555
O42 C63 1_555 1_555
O43 C68 1_555 1_555
O44 C68 1_555 1_555
O45 C64 1_555 1_555
O46 C70 1_555 1_555
O47 C70 1_555 1_555
O48 C65 1_555 1_555
O49 Zn4 1_555 1_555
O50 C72 1_555 1_555
O51 H69 1_555 1_555
H70 O51 1_555 1_555
O52 H71 1_555 1_555
H72 O52 1_555 1_555
O53 H73 1_555 1_555
H74 O53 1_555 1_555
O54 H75 1_555 1_555
H76 O54 1_555 1_555
O55 H77 1_555 1_555
H78 O55 1_555 1_555
O56 Zn4 1_555 1_555
H79 O56 1_555 1_555
H80 O56 1_555 1_555
Zn5 O29 1_555 1_555
Zn6 N5 1_555 1_555
Zn7 O34 1_555 1_555
N7 Zn2 1_555 1_555
N8 Zn6 1_555 1_555
N9 Zn4 1_555 1_555
O57 Zn7 1_555 1_555
O59 Zn7 1_555 1_555
Zn8 N2 1_555 1_555
Zn9 N6 1_555 1_555
Zn10 O40 1_555 1_555
Zn11 O12 1_555 1_555
Zn12 N4 1_555 1_555
C21 O14 1_555 1_555
O2 Zn1 1_555 1_555
O13 Zn11 1_555 1_555
O14 Zn1 1_555 1_555
O16 Zn1 1_555 1_555
O21 Zn4 1_555 1_555
O23 Zn1 1_555 1_555
O24 Zn2 1_555 1_555
O25 Zn2 1_555 1_555
O28 Zn4 1_555 1_555
C43 C44 1_555 1_555
C45 C46 1_555 1_555
C52 C53 1_555 1_555
C54 O31 1_555 1_555
C56 O34 1_555 1_555
C58 O37 1_555 1_555
C65 C66 1_555 1_555
C67 O42 1_555 1_555
C69 O45 1_555 1_555
C71 O48 1_555 1_555
C72 O49 1_555 1_555
C77 N5 1_555 1_555
C81 C82 1_555 1_555
C81 N6 1_555 1_555
O30 Zn5 1_555 1_555
O33 Zn6 1_555 1_555
O36 Zn7 1_555 1_555
O37 Zn7 1_555 1_555
O39 Zn7 1_555 1_555
O41 Zn10 1_555 1_555
O42 Zn5 1_555 1_555
O44 Zn5 1_555 1_555
O45 Zn5 1_555 1_555
O46 Zn5 1_555 1_555
O51 Zn5 1_555 1_555
O52 Zn6 1_555 1_555
O53 Zn6 1_555 1_555
O54 Zn6 1_555 1_555
O55 Zn7 1_555 1_555
C5 C4 1_555 1_555
C10 H5 1_555 1_555
H6 C10 1_555 1_555
C11 C10 1_555 1_555
O3 C4 1_555 1_555
O6 C5 1_555 1_555
O7 C11 1_555 1_555
O8 C11 1_555 1_555
Zn3 O6 1_555 1_555
O58 Zn3 1_555 1_555
O60 Zn3 1_555 1_555
C10 O6 1_555 1_555
O8 Zn3 1_555 1_555
C3 H1 1_555 1_555
C4_2 C3 1_555 1_555
C5_2 C4_2 1_555 1_555
C6 C5_2 1_555 1_555
H4_2 C8 1_555 1_555
C9 C8 1_555 1_555
C10_2 H5_2 1_555 1_555
H6_2 C10_2 1_555 1_555
C11_2 C10_2 1_555 1_555
C12 H7 1_555 1_555
H8_2 C12 1_555 1_555
C13 C12 1_555 1_555
O3_2 C4_2 1_555 1_555
O4 C9 1_555 1_555
O5 C9 1_555 1_555
O6_2 C5_2 1_555 1_555
O7_2 C11_2 1_555 1_555
O8_2 C11_2 1_555 1_555
O9 C6 1_555 1_555
O10 C13 1_555 1_555
O11 C13 1_555 1_555
H36 O26 1_555 1_555
O27 H37 1_555 1_555
H38 O27 1_555 1_555
Zn10 O6_2 1_555 1_555
C6 C7 1_555 1_555
C8 O3_2 1_555 1_555
C10_2 O6_2 1_555 1_555
C12 O9 1_555 1_555
O8_2 Zn10 1_555 1_555
O9 Zn10 1_555 1_555
O11 Zn10 1_555 1_555
O27 Zn10 1_555 1_555
C51_2 C50_2 1_555 1_555
C56_2 H49_2 1_555 1_555
H50_2 C56_2 1_555 1_555
C57_2 C56_2 1_555 1_555
C65_2 C64_2 1_555 1_555
C69_2 H57_2 1_555 1_555
H58_2 C69_2 1_555 1_555
C70_2 C69_2 1_555 1_555
C71_2 H59_2 1_555 1_555
H60_2 C71_2 1_555 1_555
O31_2 C50_2 1_555 1_555
O34_2 C51_2 1_555 1_555
O35_2 C57_2 1_555 1_555
O36_2 C57_2 1_555 1_555
O45_2 C64_2 1_555 1_555
O46_2 C70_2 1_555 1_555
O47_2 C70_2 1_555 1_555
O48_2 C65_2 1_555 1_555
Zn11 O34_2 1_555 1_555
C56_2 O34_2 1_555 1_555
C69_2 O45_2 1_555 1_555
C71_2 O48_2 1_555 1_555
O36_2 Zn11 1_555 1_555
C27_2 H17_2 1_555 1_555
C28_2 C27_2 1_555 1_555
H18_2 C28_2 1_555 1_555
C29_2 C28_2 1_555 1_555
C32_2 C29_2 1_555 1_555
C33_2 C32_2 1_555 1_555
H21_2 C33_2 1_555 1_555
C34_2 C33_2 1_555 1_555
H22_2 C34_2 1_555 1_555
N1_2 C27_2 1_555 1_555
N2_2 C34_2 1_555 1_555
O25_2 H33_2 1_555 1_555
C73_2 H61_2 1_555 1_555
C74_2 C73_2 1_555 1_555
H62_2 C74_2 1_555 1_555
C75_2 C74_2 1_555 1_555
C76_2 C75_2 1_555 1_555
H63_2 C76_2 1_555 1_555
C77_2 C76_2 1_555 1_555
H64_2 C77_2 1_555 1_555
C78_2 C75_2 1_555 1_555
C79_2 C78_2 1_555 1_555
H65_2 C79_2 1_555 1_555
C80_2 C79_2 1_555 1_555
H66_2 C80_2 1_555 1_555
C81_2 H67_2 1_555 1_555
C82_2 C78_2 1_555 1_555
H68_2 C82_2 1_555 1_555
N5_2 C73_2 1_555 1_555
N6_2 C80_2 1_555 1_555
O53_2 H73_2 1_555 1_555
Zn8_2 N2_2 1_555 1_555
Zn9_2 N6_2 1_555 1_555
Zn12_2 N4_2 1_555 1_555
C77_2 N5_2 1_555 1_555
C81_2 C82_2 1_555 1_555
C81_2 N6_2 1_555 1_555
C1_2 C2_2 1_555 1_555
C14_2 C15_2 1_555 1_555
C15_2 C16_2 1_555 1_555
C16_2 H9_2 1_555 1_555
C17_2 C16_2 1_555 1_555
C18 C17_2 1_555 1_555
C19 C18 1_555 1_555
C20_2 C15_2 1_555 1_555
H10_2 C20_2 1_555 1_555
C21_2 H11 1_555 1_555
H12_2 C21_2 1_555 1_555
C22_2 C21_2 1_555 1_555
C23 H13 1_555 1_555
H14 C23 1_555 1_555
C24 C23 1_555 1_555
C25 H15 1_555 1_555
H16 C25 1_555 1_555
C26_2 C25 1_555 1_555
C37_2 H25_2 1_555 1_555
C38_2 C37_2 1_555 1_555
H26_2 C38_2 1_555 1_555
C39_2 C38_2 1_555 1_555
C40_2 C39_2 1_555 1_555
C41_2 C40_2 1_555 1_555
H27_2 C41_2 1_555 1_555
C42_2 C41_2 1_555 1_555
N3_2 C37_2 1_555 1_555
O1_2 C1_2 1_555 1_555
O2_2 C1_2 1_555 1_555
O57 C14_2 1_555 1_555
O59 C14_2 1_555 1_555
O14_2 C17_2 1_555 1_555
O16_2 C22_2 1_555 1_555
O17 C18 1_555 1_555
O18 C24 1_555 1_555
O19 C24 1_555 1_555
O20 C19 1_555 1_555
O21_2 C26_2 1_555 1_555
O22_2 C26_2 1_555 1_555
O23_2 H29_2 1_555 1_555
H30_2 O23_2 1_555 1_555
O24_2 H31_2 1_555 1_555
H32_2 O24_2 1_555 1_555
O28_2 H39_2 1_555 1_555
H40_2 O28_2 1_555 1_555
Zn1_2 O1_2 1_555 1_555
Zn4_2 N3_2 1_555 1_555
C43_2 N3_2 1_555 1_555
H41_2 C43_2 1_555 1_555
C44_2 C39_2 1_555 1_555
H42_2 C44_2 1_555 1_555
C45_2 C40_2 1_555 1_555
H43_2 C45_2 1_555 1_555
C47_2 C48_2 1_555 1_555
C48_2 C49_2 1_555 1_555
C49_2 H45_2 1_555 1_555
C53_2 C48_2 1_555 1_555
H46_2 C53_2 1_555 1_555
C55_2 C54_2 1_555 1_555
C58_2 H51_2 1_555 1_555
C59_2 C58_2 1_555 1_555
C60_2 C61_2 1_555 1_555
C61_2 C62_2 1_555 1_555
C62_2 H53_2 1_555 1_555
C63_2 C62_2 1_555 1_555
C66_2 C61_2 1_555 1_555
H54_2 C66_2 1_555 1_555
H56_2 C67_2 1_555 1_555
C68_2 C67_2 1_555 1_555
O29_2 C47_2 1_555 1_555
O30_2 C47_2 1_555 1_555
O32_2 C55_2 1_555 1_555
O33_2 C55_2 1_555 1_555
O37_2 C52_2 1_555 1_555
O38_2 C59_2 1_555 1_555
O39_2 C59_2 1_555 1_555
O58 C60_2 1_555 1_555
O60 C60_2 1_555 1_555
O42_2 C63_2 1_555 1_555
O44_2 C68_2 1_555 1_555
O49_2 Zn4_2 1_555 1_555
O50_2 C72_2 1_555 1_555
O51_2 H69_2 1_555 1_555
H70_2 O51_2 1_555 1_555
O52_2 H71_2 1_555 1_555
H72_2 O52_2 1_555 1_555
H76_2 O54_2 1_555 1_555
O55_2 H77_2 1_555 1_555
H78_2 O55_2 1_555 1_555
O56_2 Zn4_2 1_555 1_555
H79_2 O56_2 1_555 1_555
H80_2 O56_2 1_555 1_555
Zn5_2 O29_2 1_555 1_555
N7_2 Zn2_2 1_555 1_555
N8_2 Zn6_2 1_555 1_555
N9_2 Zn4_2 1_555 1_555
C19 C20_2 1_555 1_555
C21_2 O14_2 1_555 1_555
C23 O17 1_555 1_555
C25 O20 1_555 1_555
O2_2 Zn1_2 1_555 1_555
O14_2 Zn1_2 1_555 1_555
O16_2 Zn1_2 1_555 1_555
O17 Zn1_2 1_555 1_555
O18 Zn1_2 1_555 1_555
O21_2 Zn4_2 1_555 1_555
O23_2 Zn1_2 1_555 1_555
O24_2 Zn2_2 1_555 1_555
O28_2 Zn4_2 1_555 1_555
C43_2 C44_2 1_555 1_555
C45_2 C46_2 1_555 1_555
C52_2 C53_2 1_555 1_555
C58_2 O37_2 1_555 1_555
C67_2 O42_2 1_555 1_555
C72_2 O49_2 1_555 1_555
O30_2 Zn5_2 1_555 1_555
O33_2 Zn6_2 1_555 1_555
O42_2 Zn5_2 1_555 1_555
O44_2 Zn5_2 1_555 1_555
O51_2 Zn5_2 1_555 1_555
O52_2 Zn6_2 1_555 1_555
O54_2 Zn6_2 1_555 1_555
C5_3 C4_3 1_555 1_555
C10_3 H5_3 1_555 1_555
H6_3 C10_3 1_555 1_555
C11_3 C10_3 1_555 1_555
O3_3 C4_3 1_555 1_555
O6_3 C5_3 1_555 1_555
O7_3 C11_3 1_555 1_555
O8_3 C11_3 1_555 1_555
Zn3_2 O6_3 1_555 1_555
O58_2 Zn3_2 1_555 1_555
O60_2 Zn3_2 1_555 1_555
C10_3 O6_3 1_555 1_555
O8_3 Zn3_2 1_555 1_555
C1_3 C2_3 1_555 1_555
C14_3 C15_3 1_555 1_555
C15_3 C16_3 1_555 1_555
C16_3 H9_3 1_555 1_555
C17_3 C16_3 1_555 1_555
C20_3 C15_3 1_555 1_555
H10_3 C20_3 1_555 1_555
H12_3 C21_3 1_555 1_555
C22_3 C21_3 1_555 1_555
C27_3 H17_3 1_555 1_555
C28_3 C27_3 1_555 1_555
H18_3 C28_3 1_555 1_555
C29_3 C28_3 1_555 1_555
C32_3 C29_3 1_555 1_555
C33_3 C32_3 1_555 1_555
H21_3 C33_3 1_555 1_555
C34_3 C33_3 1_555 1_555
H22_3 C34_3 1_555 1_555
C37_3 H25_3 1_555 1_555
C38_3 C37_3 1_555 1_555
H26_3 C38_3 1_555 1_555
C39_3 C38_3 1_555 1_555
C40_3 C39_3 1_555 1_555
C41_3 C40_3 1_555 1_555
H27_3 C41_3 1_555 1_555
C42_3 C41_3 1_555 1_555
H28_3 C42_3 1_555 1_555
N1_3 C27_3 1_555 1_555
N7_2 C34_3 1_555 1_555
N3_3 C37_3 1_555 1_555
N9_2 C42_3 1_555 1_555
O1_3 C1_3 1_555 1_555
O2_3 C1_3 1_555 1_555
O12_2 C14_3 1_555 1_555
O13_2 C14_3 1_555 1_555
O14_3 C17_3 1_555 1_555
O15_3 C22_3 1_555 1_555
O16_3 C22_3 1_555 1_555
O21_3 C26_3 1_555 1_555
O22_3 C26_3 1_555 1_555
O23_3 H29_3 1_555 1_555
H30_3 O23_3 1_555 1_555
O24_3 H31_3 1_555 1_555
H32_3 O24_3 1_555 1_555
O25_3 H33_3 1_555 1_555
H34_3 O25_3 1_555 1_555
O28_3 H39_3 1_555 1_555
H40_3 O28_3 1_555 1_555
Zn1_3 O1_3 1_555 1_555
Zn8_2 N1_3 1_555 1_555
Zn12_2 N3_3 1_555 1_555
C43_3 N3_3 1_555 1_555
H41_3 C43_3 1_555 1_555
C44_3 C39_3 1_555 1_555
H42_3 C44_3 1_555 1_555
C45_3 C40_3 1_555 1_555
H43_3 C45_3 1_555 1_555
C46_3 N9_2 1_555 1_555
H44_3 C46_3 1_555 1_555
C47_3 C48_3 1_555 1_555
C48_3 C49_3 1_555 1_555
C49_3 H45_3 1_555 1_555
C50_3 C49_3 1_555 1_555
C51_3 C50_3 1_555 1_555
C52_3 C51_3 1_555 1_555
C53_3 C48_3 1_555 1_555
H46_3 C53_3 1_555 1_555
C54_3 H47_2 1_555 1_555
H48_3 C54_3 1_555 1_555
C55_3 C54_3 1_555 1_555
C56_3 H49_3 1_555 1_555
H50_3 C56_3 1_555 1_555
C57_3 C56_3 1_555 1_555
C58_3 H51_3 1_555 1_555
H52_3 C58_3 1_555 1_555
C59_3 C58_3 1_555 1_555
C60_3 C61_3 1_555 1_555
C61_3 C62_3 1_555 1_555
C62_3 H53_3 1_555 1_555
C63_3 C62_3 1_555 1_555
C64_3 C63_3 1_555 1_555
C65_3 C64_3 1_555 1_555
C66_3 C61_3 1_555 1_555
H54_3 C66_3 1_555 1_555
C67_3 H55_3 1_555 1_555
H56_3 C67_3 1_555 1_555
C68_3 C67_3 1_555 1_555
C69_3 H57_3 1_555 1_555
H58_3 C69_3 1_555 1_555
C70_3 C69_3 1_555 1_555
C71_3 H59_3 1_555 1_555
H60_3 C71_3 1_555 1_555
C72_3 C71_3 1_555 1_555
C73_3 H61_3 1_555 1_555
C74_3 C73_3 1_555 1_555
H62_3 C74_3 1_555 1_555
C75_3 C74_3 1_555 1_555
C76_3 C75_3 1_555 1_555
H63_3 C76_3 1_555 1_555
C77_3 C76_3 1_555 1_555
H64_3 C77_3 1_555 1_555
C78_3 C75_3 1_555 1_555
C79_3 C78_3 1_555 1_555
H65_3 C79_3 1_555 1_555
C80_3 C79_3 1_555 1_555
H66_3 C80_3 1_555 1_555
C81_3 H67_3 1_555 1_555
C82_3 C78_3 1_555 1_555
H68_3 C82_3 1_555 1_555
N5_3 C73_3 1_555 1_555
N8_2 C80_3 1_555 1_555
O29_3 C47_3 1_555 1_555
O30_3 C47_3 1_555 1_555
O31_3 C50_3 1_555 1_555
O32_3 C55_3 1_555 1_555
O33_3 C55_3 1_555 1_555
O34_3 C51_3 1_555 1_555
O35_3 C57_3 1_555 1_555
O36_3 C57_3 1_555 1_555
O37_3 C52_3 1_555 1_555
O38_3 C59_3 1_555 1_555
O39_3 C59_3 1_555 1_555
O40_2 C60_3 1_555 1_555
O41_2 C60_3 1_555 1_555
O42_3 C63_3 1_555 1_555
O43_3 C68_3 1_555 1_555
O44_3 C68_3 1_555 1_555
O45_3 C64_3 1_555 1_555
O46_3 C70_3 1_555 1_555
O47_3 C70_3 1_555 1_555
O48_3 C65_3 1_555 1_555
O49_3 Zn12_2 1_555 1_555
O50_3 C72_3 1_555 1_555
O51_3 H69_3 1_555 1_555
H70_3 O51_3 1_555 1_555
O52_3 H71_3 1_555 1_555
H72_3 O52_3 1_555 1_555
O53_3 H73_3 1_555 1_555
H74_3 O53_3 1_555 1_555
O54_3 H75_3 1_555 1_555
H76_3 O54_3 1_555 1_555
O55_3 H77_3 1_555 1_555
H78_3 O55_3 1_555 1_555
O56_3 Zn12_2 1_555 1_555
H79_3 O56_3 1_555 1_555
H80_3 O56_3 1_555 1_555
Zn5_3 O29_3 1_555 1_555
Zn9_2 N5_3 1_555 1_555
Zn7_2 O34_3 1_555 1_555
O57_2 Zn7_2 1_555 1_555
O59_2 Zn7_2 1_555 1_555
Zn10_2 O40_2 1_555 1_555
Zn11_2 O12_2 1_555 1_555
C21_3 O14_3 1_555 1_555
O2_3 Zn1_3 1_555 1_555
O13_2 Zn11_2 1_555 1_555
O14_3 Zn1_3 1_555 1_555
O16_3 Zn1_3 1_555 1_555
O21_3 Zn12_2 1_555 1_555
O23_3 Zn1_3 1_555 1_555
O24_3 Zn8_2 1_555 1_555
O25_3 Zn8_2 1_555 1_555
O28_3 Zn12_2 1_555 1_555
C43_3 C44_3 1_555 1_555
C45_3 C46_3 1_555 1_555
C52_3 C53_3 1_555 1_555
C54_3 O31_3 1_555 1_555
C56_3 O34_3 1_555 1_555
C58_3 O37_3 1_555 1_555
C65_3 C66_3 1_555 1_555
C67_3 O42_3 1_555 1_555
C69_3 O45_3 1_555 1_555
C71_3 O48_3 1_555 1_555
C72_3 O49_3 1_555 1_555
C77_3 N5_3 1_555 1_555
C81_3 C82_3 1_555 1_555
C81_3 N8_2 1_555 1_555
O30_3 Zn5_3 1_555 1_555
O33_3 Zn9_2 1_555 1_555
O36_3 Zn7_2 1_555 1_555
O37_3 Zn7_2 1_555 1_555
O39_3 Zn7_2 1_555 1_555
O41_2 Zn10_2 1_555 1_555
O42_3 Zn5_3 1_555 1_555
O44_3 Zn5_3 1_555 1_555
O45_3 Zn5_3 1_555 1_555
O46_3 Zn5_3 1_555 1_555
O51_3 Zn5_3 1_555 1_555
O52_3 Zn9_2 1_555 1_555
O53_3 Zn9_2 1_555 1_555
O54_3 Zn9_2 1_555 1_555
O55_3 Zn7_2 1_555 1_555
C1_4 C2_4 1_555 1_555
C14_4 C15_4 1_555 1_555
C15_4 C16_4 1_555 1_555
C16_4 H9_4 1_555 1_555
C17_4 C16_4 1_555 1_555
C18_2 C17_4 1_555 1_555
C19_2 C18_2 1_555 1_555
C20_4 C15_4 1_555 1_555
H10_4 C20_4 1_555 1_555
C21_4 H11_2 1_555 1_555
H12_4 C21_4 1_555 1_555
C22_4 C21_4 1_555 1_555
C23_2 H13_2 1_555 1_555
H14_2 C23_2 1_555 1_555
C24_2 C23_2 1_555 1_555
C25_2 H15_2 1_555 1_555
H16_2 C25_2 1_555 1_555
C26_4 C25_2 1_555 1_555
C37_4 H25_4 1_555 1_555
C38_4 C37_4 1_555 1_555
H26_4 C38_4 1_555 1_555
C39_4 C38_4 1_555 1_555
C40_4 C39_4 1_555 1_555
C41_4 C40_4 1_555 1_555
H27_4 C41_4 1_555 1_555
C42_4 C41_4 1_555 1_555
N3_4 C37_4 1_555 1_555
O1_4 C1_4 1_555 1_555
O2_4 C1_4 1_555 1_555
O57_2 C14_4 1_555 1_555
O59_2 C14_4 1_555 1_555
O14_4 C17_4 1_555 1_555
O16_4 C22_4 1_555 1_555
O17_2 C18_2 1_555 1_555
O18_2 C24_2 1_555 1_555
O19_2 C24_2 1_555 1_555
O20_2 C19_2 1_555 1_555
O21_4 C26_4 1_555 1_555
O22_4 C26_4 1_555 1_555
O23_4 H29_4 1_555 1_555
H30_4 O23_4 1_555 1_555
O24_4 H31_4 1_555 1_555
H32_4 O24_4 1_555 1_555
O28_4 H39_4 1_555 1_555
H40_4 O28_4 1_555 1_555
Zn1_4 O1_4 1_555 1_555
Zn12 N3_4 1_555 1_555
C43_4 N3_4 1_555 1_555
H41_4 C43_4 1_555 1_555
C44_4 C39_4 1_555 1_555
H42_4 C44_4 1_555 1_555
C45_4 C40_4 1_555 1_555
H43_4 C45_4 1_555 1_555
C47_4 C48_4 1_555 1_555
C48_4 C49_4 1_555 1_555
C49_4 H45_4 1_555 1_555
C53_4 C48_4 1_555 1_555
H46_4 C53_4 1_555 1_555
C55_4 C54_4 1_555 1_555
C58_4 H51_4 1_555 1_555
C59_4 C58_4 1_555 1_555
C60_4 C61_4 1_555 1_555
C61_4 C62_4 1_555 1_555
C62_4 H53_4 1_555 1_555
C63_4 C62_4 1_555 1_555
C66_4 C61_4 1_555 1_555
H54_4 C66_4 1_555 1_555
H56_4 C67_4 1_555 1_555
C68_4 C67_4 1_555 1_555
O29_4 C47_4 1_555 1_555
O30_4 C47_4 1_555 1_555
O32_4 C55_4 1_555 1_555
O33_4 C55_4 1_555 1_555
O37_4 C52_4 1_555 1_555
O38_4 C59_4 1_555 1_555
O39_4 C59_4 1_555 1_555
O58_2 C60_4 1_555 1_555
O60_2 C60_4 1_555 1_555
O42_4 C63_4 1_555 1_555
O44_4 C68_4 1_555 1_555
O49_4 Zn12 1_555 1_555
O50_4 C72_4 1_555 1_555
O51_4 H69_4 1_555 1_555
H70_4 O51_4 1_555 1_555
O52_4 H71_4 1_555 1_555
H72_4 O52_4 1_555 1_555
H76_4 O54_4 1_555 1_555
O55_4 H77_4 1_555 1_555
H78_4 O55_4 1_555 1_555
O56_4 Zn12 1_555 1_555
H79_4 O56_4 1_555 1_555
H80_4 O56_4 1_555 1_555
Zn5_4 O29_4 1_555 1_555
C19_2 C20_4 1_555 1_555
C21_4 O14_4 1_555 1_555
C23_2 O17_2 1_555 1_555
C25_2 O20_2 1_555 1_555
O2_4 Zn1_4 1_555 1_555
O14_4 Zn1_4 1_555 1_555
O16_4 Zn1_4 1_555 1_555
O17_2 Zn1_4 1_555 1_555
O18_2 Zn1_4 1_555 1_555
O21_4 Zn12 1_555 1_555
O23_4 Zn1_4 1_555 1_555
O24_4 Zn8 1_555 1_555
O28_4 Zn12 1_555 1_555
C43_4 C44_4 1_555 1_555
C45_4 C46_4 1_555 1_555
C52_4 C53_4 1_555 1_555
C58_4 O37_4 1_555 1_555
C67_4 O42_4 1_555 1_555
C72_4 O49_4 1_555 1_555
O30_4 Zn5_4 1_555 1_555
O33_4 Zn9 1_555 1_555
O42_4 Zn5_4 1_555 1_555
O44_4 Zn5_4 1_555 1_555
O51_4 Zn5_4 1_555 1_555
O52_4 Zn9 1_555 1_555
O54_4 Zn9 1_555 1_555
C27_4 H17_4 1_555 1_555
C28_4 C27_4 1_555 1_555
H18_4 C28_4 1_555 1_555
C29_4 C28_4 1_555 1_555
C32_4 C29_4 1_555 1_555
C33_4 C32_4 1_555 1_555
H21_4 C33_4 1_555 1_555
C34_4 C33_4 1_555 1_555
H22_4 C34_4 1_555 1_555
N1_4 C27_4 1_555 1_555
N7 C34_4 1_555 1_555
O25_4 H33_4 1_555 1_555
C73_4 H61_4 1_555 1_555
C74_4 C73_4 1_555 1_555
H62_4 C74_4 1_555 1_555
C75_4 C74_4 1_555 1_555
C76_4 C75_4 1_555 1_555
H63_4 C76_4 1_555 1_555
C77_4 C76_4 1_555 1_555
H64_4 C77_4 1_555 1_555
C78_4 C75_4 1_555 1_555
C79_4 C78_4 1_555 1_555
H65_4 C79_4 1_555 1_555
C80_4 C79_4 1_555 1_555
H66_4 C80_4 1_555 1_555
C81_4 H67_4 1_555 1_555
C82_4 C78_4 1_555 1_555
H68_4 C82_4 1_555 1_555
N5_4 C73_4 1_555 1_555
N8 C80_4 1_555 1_555
O53_4 H73_4 1_555 1_555
C77_4 N5_4 1_555 1_555
C81_4 C82_4 1_555 1_555
C81_4 N8 1_555 1_555
C51_4 C50_4 1_555 1_555
C56_4 H49_4 1_555 1_555
H50_4 C56_4 1_555 1_555
C57_4 C56_4 1_555 1_555
C65_4 C64_4 1_555 1_555
C69_4 H57_4 1_555 1_555
H58_4 C69_4 1_555 1_555
C70_4 C69_4 1_555 1_555
C71_4 H59_4 1_555 1_555
H60_4 C71_4 1_555 1_555
O31_4 C50_4 1_555 1_555
O34_4 C51_4 1_555 1_555
O35_4 C57_4 1_555 1_555
O36_4 C57_4 1_555 1_555
O45_4 C64_4 1_555 1_555
O46_4 C70_4 1_555 1_555
O47_4 C70_4 1_555 1_555
O48_4 C65_4 1_555 1_555
Zn11_2 O34_4 1_555 1_555
C56_4 O34_4 1_555 1_555
C69_4 O45_4 1_555 1_555
C71_4 O48_4 1_555 1_555
O36_4 Zn11_2 1_555 1_555
C3_2 H1_2 1_555 1_555
C4_4 C3_2 1_555 1_555
C5_4 C4_4 1_555 1_555
C6_2 C5_4 1_555 1_555
H4_4 C8_2 1_555 1_555
C9_2 C8_2 1_555 1_555
C10_4 H5_4 1_555 1_555
H6_4 C10_4 1_555 1_555
C11_4 C10_4 1_555 1_555
C12_2 H7_2 1_555 1_555
H8_4 C12_2 1_555 1_555
C13_2 C12_2 1_555 1_555
O3_4 C4_4 1_555 1_555
O4_2 C9_2 1_555 1_555
O5_2 C9_2 1_555 1_555
O6_4 C5_4 1_555 1_555
O7_4 C11_4 1_555 1_555
O8_4 C11_4 1_555 1_555
O9_2 C6_2 1_555 1_555
O10_2 C13_2 1_555 1_555
O11_2 C13_2 1_555 1_555
H36_2 O26_2 1_555 1_555
O27_2 H37_2 1_555 1_555
H38_2 O27_2 1_555 1_555
Zn10_2 O6_4 1_555 1_555
C6_2 C7_2 1_555 1_555
C8_2 O3_4 1_555 1_555
C10_4 O6_4 1_555 1_555
C12_2 O9_2 1_555 1_555
O8_4 Zn10_2 1_555 1_555
O9_2 Zn10_2 1_555 1_555
O11_2 Zn10_2 1_555 1_555
O27_2 Zn10_2 1_555 1_555
C19_3 C18_3 1_555 1_555
C23_3 H13_3 1_555 1_555
H14_3 C23_3 1_555 1_555
C24_3 C23_3 1_555 1_555
C25_3 H15_3 1_555 1_555
H16_3 C25_3 1_555 1_555
O17_3 C18_3 1_555 1_555
O18_3 C24_3 1_555 1_555
O19_3 C24_3 1_555 1_555
O20_3 C19_3 1_555 1_555
C23_3 O17_3 1_555 1_555
C25_3 O20_3 1_555 1_555
C3_3 H1_3 1_555 1_555
C9_3 C8_3 1_555 1_555
C12_3 H7_3 1_555 1_555
C13_3 C12_3 1_555 1_555
H19 C30 1_555 1_555
C31 C30 1_555 1_555
H20 C31 1_555 1_555
C35 H23 1_555 1_555
H24 C36 1_555 1_555
O4_3 C9_3 1_555 1_555
O5_3 C9_3 1_555 1_555
O9_3 C6_3 1_555 1_555
O10_3 C13_3 1_555 1_555
O11_3 C13_3 1_555 1_555
O26_3 H35 1_555 1_555
H36_3 O26_3 1_555 1_555
O27_3 H37_3 1_555 1_555
H38_3 O27_3 1_555 1_555
C6_3 C7_3 1_555 1_555
C12_3 O9_3 1_555 1_555
C35 C36 1_555 1_555
H19_2 C30_2 1_555 1_555
C31_2 C30_2 1_555 1_555
H20_2 C31_2 1_555 1_555
C35_2 H23_2 1_555 1_555
H24_2 C36_2 1_555 1_555
C35_2 C36_2 1_555 1_555
C3_4 H1_4 1_555 1_555
C9_4 C8_4 1_555 1_555
C12_4 H7_4 1_555 1_555
C13_4 C12_4 1_555 1_555
H19_3 C30_3 1_555 1_555
C31_3 C30_3 1_555 1_555
H20_3 C31_3 1_555 1_555
C35_3 H23_3 1_555 1_555
H24_3 C36_3 1_555 1_555
O4_4 C9_4 1_555 1_555
O5_4 C9_4 1_555 1_555
O9_4 C6_4 1_555 1_555
O10_4 C13_4 1_555 1_555
O11_4 C13_4 1_555 1_555
O26_4 H35_3 1_555 1_555
H36_4 O26_4 1_555 1_555
O27_4 H37_4 1_555 1_555
H38_4 O27_4 1_555 1_555
C6_4 C7_4 1_555 1_555
C12_4 O9_4 1_555 1_555
C35_3 C36_3 1_555 1_555
C19_4 C18_4 1_555 1_555
C23_4 H13_4 1_555 1_555
H14_4 C23_4 1_555 1_555
C24_4 C23_4 1_555 1_555
C25_4 H15_4 1_555 1_555
H16_4 C25_4 1_555 1_555
O17_4 C18_4 1_555 1_555
O18_4 C24_4 1_555 1_555
O19_4 C24_4 1_555 1_555
O20_4 C19_4 1_555 1_555
C23_4 O17_4 1_555 1_555
C25_4 O20_4 1_555 1_555
H19_4 C30_4 1_555 1_555
C31_4 C30_4 1_555 1_555
H20_4 C31_4 1_555 1_555
C35_4 H23_4 1_555 1_555
H24_4 C36_4 1_555 1_555
C35_4 C36_4 1_555 1_555
O61 H85 1_555 1_555
O62 H87 1_555 1_555
H88 O62 1_555 1_555
O63 Zn13 1_555 1_555
H93 O63 1_555 1_555
O64 Zn13 1_555 1_555
H95 O64 1_555 1_555
H96 O64 1_555 1_555
N12 Zn13 1_555 1_555
O61 Zn13 1_555 1_555
O62 Zn13 1_555 1_555
C83 H81 1_555 1_555
C84 C83 1_555 1_555
H82 C84 1_555 1_555
C85 C84 1_555 1_555
C86 C85 1_555 1_555
C87 C86 1_555 1_555
H83 C87 1_555 1_555
C88 C87 1_555 1_555
H84 C88 1_555 1_555
N10 C83 1_555 1_555
N11 C88 1_555 1_555
C89 N10 1_555 1_555
H89 C89 1_555 1_555
C90 C85 1_555 1_555
H90 C90 1_555 1_555
C91 C86 1_555 1_555
H91 C91 1_555 1_555
C92 N11 1_555 1_555
H92 C92 1_555 1_555
Zn14 N11 1_555 1_555
C89 C90 1_555 1_555
C91 C92 1_555 1_555
C83_2 H81_2 1_555 1_555
C84_2 C83_2 1_555 1_555
H82_2 C84_2 1_555 1_555
C85_2 C84_2 1_555 1_555
C86_2 C85_2 1_555 1_555
C87_2 C86_2 1_555 1_555
H83_2 C87_2 1_555 1_555
C88_2 C87_2 1_555 1_555
H84_2 C88_2 1_555 1_555
N10_2 C83_2 1_555 1_555
N12 C88_2 1_555 1_555
O61_2 H85_2 1_555 1_555
H86_2 O61_2 1_555 1_555
O62_2 H87_2 1_555 1_555
H88_2 O62_2 1_555 1_555
Zn14 N10_2 1_555 1_555
C89_2 N10_2 1_555 1_555
H89_2 C89_2 1_555 1_555
C90_2 C85_2 1_555 1_555
H90_2 C90_2 1_555 1_555
C91_2 C86_2 1_555 1_555
H91_2 C91_2 1_555 1_555
C92_2 N12 1_555 1_555
H92_2 C92_2 1_555 1_555
O63_2 Zn14 1_555 1_555
H93_2 O63_2 1_555 1_555
H94_2 O63_2 1_555 1_555
O64_2 Zn14 1_555 1_555
H95_2 O64_2 1_555 1_555
H96_2 O64_2 1_555 1_555
O61_2 Zn14 1_555 1_555
O62_2 Zn14 1_555 1_555
C89_2 C90_2 1_555 1_555
C91_2 C92_2 1_555 1_555
C83_3 H81_3 1_555 1_555
C84_3 C83_3 1_555 1_555
H82_3 C84_3 1_555 1_555
C85_3 C84_3 1_555 1_555
C86_3 C85_3 1_555 1_555
C87_3 C86_3 1_555 1_555
H83_3 C87_3 1_555 1_555
C88_3 C87_3 1_555 1_555
H84_3 C88_3 1_555 1_555
N10_3 C83_3 1_555 1_555
N11_2 C88_3 1_555 1_555
O61_3 H85_3 1_555 1_555
H86_3 O61_3 1_555 1_555
O62_3 H87_3 1_555 1_555
H88_3 O62_3 1_555 1_555
Zn13_2 N10_3 1_555 1_555
C89_3 N10_3 1_555 1_555
H89_3 C89_3 1_555 1_555
C90_3 C85_3 1_555 1_555
H90_3 C90_3 1_555 1_555
C91_3 C86_3 1_555 1_555
H91_3 C91_3 1_555 1_555
C92_3 N11_2 1_555 1_555
H92_3 C92_3 1_555 1_555
O63_3 Zn13_2 1_555 1_555
H93_3 O63_3 1_555 1_555
H94_3 O63_3 1_555 1_555
O64_3 Zn13_2 1_555 1_555
H95_3 O64_3 1_555 1_555
H96_3 O64_3 1_555 1_555
N12_2 Zn13_2 1_555 1_555
Zn14_2 N11_2 1_555 1_555
O61_3 Zn13_2 1_555 1_555
O62_3 Zn13_2 1_555 1_555
C89_3 C90_3 1_555 1_555
C91_3 C92_3 1_555 1_555
C83_4 H81_4 1_555 1_555
C84_4 C83_4 1_555 1_555
H82_4 C84_4 1_555 1_555
C85_4 C84_4 1_555 1_555
C86_4 C85_4 1_555 1_555
C87_4 C86_4 1_555 1_555
H83_4 C87_4 1_555 1_555
C88_4 C87_4 1_555 1_555
H84_4 C88_4 1_555 1_555
N10_4 C83_4 1_555 1_555
N12_2 C88_4 1_555 1_555
C89_4 N10_4 1_555 1_555
H89_4 C89_4 1_555 1_555
C90_4 C85_4 1_555 1_555
H90_4 C90_4 1_555 1_555
C91_4 C86_4 1_555 1_555
H91_4 C91_4 1_555 1_555
C92_4 N12_2 1_555 1_555
H92_4 C92_4 1_555 1_555
C89_4 C90_4 1_555 1_555
C91_4 C92_4 1_555 1_555
O61_4 H85_4 1_555 1_555
O62_4 H87_4 1_555 1_555
H88_4 O62_4 1_555 1_555
O63_4 Zn14_2 1_555 1_555
H93_4 O63_4 1_555 1_555
O64_4 Zn14_2 1_555 1_555
H95_4 O64_4 1_555 1_555
H96_4 O64_4 1_555 1_555
O61_4 Zn14_2 1_555 1_555
O62_4 Zn14_2 1_555 1_555

#END
