
###############################################################################
#
# This file contains modified crystal structure data generated from the
# MOF subset of the Cambridge Structural Database (CSD) v543 
# hosted by the Cambridge Crystallographic Data Centre (CCDC).
#
# This work is licensed under the Creative Commons
# Attribution-NonCommercial-ShareAlike 4.0 International License.
# To view a copy of this license, visit
# http://creativecommons.org/licenses/by-nc-sa/4.0/
# or send a letter to
# Creative Commons, PO Box 1866, Mountain View, CA 94042, USA.
#
# CIF created using the CSD Python API on 29 September 2022
# The structure has been converted into the P1 space group
# The structure has a 3D framework
# The original CSD entry WEVQUJ is in the hexagonal crystal system
# The framework has been calculated to contain at least 10.0% void space
# The void calculation uses a probe of radius 1.32A, grid spacing 0.4
#
###############################################################################

data_WEVQUJ
_chemical_formula_moiety         '(C48 H72 Cu15 Eu4 O78)n'
_symmetry_cell_setting           triclinic
_symmetry_space_group_name_H-M   'P 1'
_symmetry_Int_Tables_number      1
_space_group_name_Hall           'P 1'
loop_
_symmetry_equiv_pos_site_id
_symmetry_equiv_pos_as_xyz
1 x,y,z
_cell_length_a                   14.872(1)
_cell_length_b                   14.872(1)
_cell_length_c                   15.019(2)
_cell_angle_alpha                90
_cell_angle_beta                 90
_cell_angle_gamma                120
_cell_volume                     2876.8
loop_
_atom_site_label
_atom_site_type_symbol
_atom_site_fract_x
_atom_site_fract_y
_atom_site_fract_z
Cu7 Cu 0.5000 0.0000 0.0000
Cu10 Cu 0.5000 -0.0000 0.5000
Cu7_2 Cu 0.5000 0.0000 1.0000
O3 O 0.23658(19) 0.4732(4) 0.2500
C2 C 0.1482(5) 0.4139(5) 0.3022(5)
H1 H 0.2078 0.3659 0.1611
H2 H 0.2856 0.3740 0.2358
Cu6 Cu -0.0000 0.5000 0.0000
O18 O 0.0509(3) 0.6080(4) 0.0909(3)
C8 C 0.1299(4) 0.6444(6) 0.1397(4)
O19 O 0.1940(3) 0.6136(4) 0.1428(3)
Eu2 Eu 0.3333 0.6667 0.2500
O20 O 0.4196(3) 0.8060(3) 0.1428(3)
C9 C 0.5145(4) 0.8701(4) 0.1397(4)
O21 O 0.5571(3) 0.9491(3) 0.0909(3)
Cu7_3 Cu 0.5000 1.0000 0.0000
Cu8 Cu 0.5000 0.5000 0.0000
O22 O 0.3920(4) 0.4429(3) 0.0909(3)
C10 C 0.3556(6) 0.4855(4) 0.1397(4)
O23 O 0.3864(4) 0.5804(3) 0.1428(3)
O24 O 0.4196(3) 0.6136(4) 0.3572(3)
C11 C 0.5145(4) 0.6444(6) 0.3603(4)
O25 O 0.5571(3) 0.6080(4) 0.4091(3)
Cu9 Cu 0.5000 0.5000 0.5000
Cu10_2 Cu 0.5000 1.0000 0.5000
O26 O 0.3920(4) 0.9491(3) 0.4091(3)
C12 C 0.3556(6) 0.8701(4) 0.3603(4)
O27 O 0.3864(4) 0.8060(3) 0.3572(3)
O28 O 0.1940(3) 0.5804(3) 0.3572(3)
C13 C 0.1299(4) 0.4855(4) 0.3603(4)
O29 O 0.0509(3) 0.4429(3) 0.4091(3)
Cu11 Cu -0.0000 0.5000 0.5000
C14 C 0.2657(7) 0.4139(5) 0.1978(5)
H4 H 0.1581 0.3659 0.3389
H5 H 0.0884 0.3740 0.2642
O30 O 0.23662(44) 0.76342(19) 0.2500
O31 O 0.5268(4) 0.76338(44) 0.2500
C15 C 0.2657(7) 0.8518(5) 0.3022(5)
C16 C 0.1482(5) 0.7343(7) 0.1978(5)
H6 H 0.1581 0.7922 0.1611
H7 H 0.0884 0.7144 0.2358
H8 H 0.2078 0.8419 0.3389
H9 H 0.2856 0.9116 0.2642
C17 C 0.5861(5) 0.7343(7) 0.3022(5)
C18 C 0.5861(5) 0.8518(5) 0.1978(5)
H10 H 0.6341 0.8419 0.1611
H11 H 0.6260 0.9116 0.2358
H12 H 0.6341 0.7922 0.3389
H13 H 0.6260 0.7144 0.2642
O33 O 0.1576(5) 0.4793(5) 0.0000
H27 H 0.179(5) 0.540(6) 0.046(5)
Cu6_2 Cu -0.0000 0.5000 1.0000
Cu7_4 Cu 0.5000 1.0000 1.0000
Cu8_2 Cu 0.5000 0.5000 1.0000
O32 O 0.0509(3) 0.6080(4) 0.9091(3)
O33_2 O 0.1576(5) 0.4793(5) 1.0000
H28 H 0.179(5) 0.540(6) 0.954(5)
O4 O 0.8424(5) 0.5207(5) 0.0000
H3 H 0.821(5) 0.460(6) 0.046(5)
O11 O 0.4429(3) 0.0509(3) 0.0909(3)
O12 O 0.6080(4) 0.5571(3) 0.0909(3)
Cu6_3 Cu 1.0000 0.5000 0.0000
O17 O 0.9491(3) 0.3920(4) 0.0909(3)
Cu11_2 Cu 1.0000 0.5000 0.5000
O39 O 0.4793(5) 0.3217(7) 0.0000
O40 O 0.5207(5) 0.6783(7) 0.0000
O43 O 0.6783(7) 0.1576(5) 0.0000
H29 H 0.540(6) 0.361(8) 0.046(5)
H31 H 0.460(6) 0.639(8) 0.046(5)
H34 H 0.639(8) 0.179(5) 0.046(5)
Eu1 Eu 0.6667 0.3333 0.7500
O1 O 0.8060(3) 0.4196(3) 0.6428(3)
O2 O 0.9491(3) 0.5571(3) 0.5909(3)
C1 C 0.8701(4) 0.5145(4) 0.6397(4)
O4_2 O 0.8424(5) 0.5207(5) 1.0000
O5 O 0.5804(3) 0.3864(4) 0.6428(3)
C3 C 0.4855(4) 0.3556(6) 0.6397(4)
O6 O 0.4429(3) 0.3920(4) 0.5909(3)
O7 O 0.6080(4) 0.0509(3) 0.5909(3)
C4 C 0.6444(6) 0.1299(4) 0.6397(4)
O8 O 0.6136(4) 0.1940(3) 0.6428(3)
O9 O 0.5804(3) 0.1940(3) 0.8572(3)
C5 C 0.4855(4) 0.1299(4) 0.8603(4)
O10 O 0.4429(3) 0.0509(3) 0.9091(3)
O13 O 0.6080(4) 0.5571(3) 0.9091(3)
C6 C 0.6444(6) 0.5145(4) 0.8603(4)
O14 O 0.6136(4) 0.4196(3) 0.8572(3)
O15 O 0.8060(3) 0.3864(4) 0.8572(3)
C7 C 0.8701(4) 0.3556(6) 0.8603(4)
O16 O 0.9491(3) 0.3920(4) 0.9091(3)
Cu6_4 Cu 1.0000 0.5000 1.0000
C19 C 0.8518(5) 0.2657(7) 0.8022(5)
O34 O 0.76342(19) 0.23662(44) 0.7500
C20 C 0.7343(7) 0.1482(5) 0.6978(5)
H14 H 0.7922 0.1581 0.6611
H15 H 0.7144 0.0884 0.7358
H16 H 0.8419 0.2078 0.8389
H17 H 0.9116 0.2856 0.7642
O35 O 0.76338(44) 0.5268(4) 0.7500
O36 O 0.4732(4) 0.23658(19) 0.7500
C21 C 0.7343(7) 0.5861(5) 0.8022(5)
C22 C 0.8518(5) 0.5861(5) 0.6978(5)
H18 H 0.8419 0.6341 0.6611
H19 H 0.9116 0.6260 0.7358
H20 H 0.7922 0.6341 0.8389
H21 H 0.7144 0.6260 0.7642
O37 O 0.3920(4) 0.4429(3) 0.9091(3)
O39_2 O 0.4793(5) 0.3217(7) 1.0000
O40_2 O 0.5207(5) 0.6783(7) 1.0000
O43_2 O 0.6783(7) 0.1576(5) 1.0000
C23 C 0.4139(5) 0.1482(5) 0.8022(5)
C24 C 0.4139(5) 0.2657(7) 0.6978(5)
H22 H 0.3659 0.2078 0.6611
H23 H 0.3740 0.2856 0.7358
H24 H 0.3659 0.1581 0.8389
H25 H 0.3740 0.0884 0.7642
H26 H 0.821(5) 0.460(6) 0.954(5)
H30 H 0.540(6) 0.361(8) 0.954(5)
H32 H 0.460(6) 0.639(8) 0.954(5)
H33 H 0.639(8) 0.179(5) 0.954(5)
O44 O 0.3217(7) 0.8424(5) 0.0000
H35 H 0.361(8) 0.821(5) 0.046(5)
O42 O 0.5571(3) 0.9491(3) 0.9091(3)
O44_2 O 0.3217(7) 0.8424(5) 1.0000
H36 H 0.361(8) 0.821(5) 0.954(5)
O3_2 O 0.4732(4) 0.23662(44) 0.2500
C2_2 C 0.4139(5) 0.2657(7) 0.3022(5)
H1_2 H 0.3659 0.1581 0.1611
H2_2 H 0.3740 0.0884 0.2358
C8_2 C 0.6444(6) 0.5145(7) 0.1397(4)
O19_2 O 0.6136(4) 0.4196(5) 0.1428(3)
Eu2_2 Eu 0.6667 0.3334 0.2500
O20_2 O 0.8060(3) 0.3864(4) 0.1428(3)
C9_2 C 0.8701(4) 0.3556(6) 0.1397(4)
C10_2 C 0.4855(4) 0.1299(7) 0.1397(4)
O23_2 O 0.5804(3) 0.1940(5) 0.1428(3)
O24_2 O 0.6136(4) 0.1940(5) 0.3572(3)
C11_2 C 0.6444(6) 0.1299(7) 0.3603(4)
O25_2 O 0.6080(4) 0.0509(5) 0.4091(3)
O26_2 O 0.9491(3) 0.5571(5) 0.4091(3)
C12_2 C 0.8701(4) 0.5145(7) 0.3603(4)
O27_2 O 0.8060(3) 0.4196(5) 0.3572(3)
O28_2 O 0.5804(3) 0.3864(4) 0.3572(3)
C13_2 C 0.4855(4) 0.3556(6) 0.3603(4)
O29_2 O 0.4429(3) 0.3920(4) 0.4091(3)
C14_2 C 0.4139(5) 0.1482(9) 0.1978(5)
H4_2 H 0.3659 0.2078 0.3389
H5_2 H 0.3740 0.2856 0.2642
O30_2 O 0.76342(19) 0.52680(48) 0.2500
O31_2 O 0.76338(44) 0.23658(59) 0.2500
C15_2 C 0.8518(5) 0.5861(9) 0.3022(5)
C16_2 C 0.7343(7) 0.5861(9) 0.1978(5)
H6_2 H 0.7922 0.6341 0.1611
H7_2 H 0.7144 0.6260 0.2358
H8_2 H 0.8419 0.6341 0.3389
H9_2 H 0.9116 0.6260 0.2642
C17_2 C 0.7343(7) 0.1482(9) 0.3022(5)
C18_2 C 0.8518(5) 0.2657(7) 0.1978(5)
H10_2 H 0.8419 0.2078 0.1611
H11_2 H 0.9116 0.2856 0.2358
H12_2 H 0.7922 0.1581 0.3389
H13_2 H 0.7144 0.0884 0.2642
Eu1_2 Eu 0.3333 0.6666 0.7500
O1_2 O 0.4196(3) 0.6136(4) 0.6428(3)
O2_2 O 0.5571(3) 0.6080(4) 0.5909(3)
C1_2 C 0.5145(4) 0.6444(6) 0.6397(4)
O5_2 O 0.3864(4) 0.8060(5) 0.6428(3)
C3_2 C 0.3556(6) 0.8701(7) 0.6397(4)
O6_2 O 0.3920(4) 0.9491(5) 0.5909(3)
O7_2 O 0.0509(3) 0.4429(5) 0.5909(3)
C4_2 C 0.1299(4) 0.4855(7) 0.6397(4)
O8_2 O 0.1940(3) 0.5804(5) 0.6428(3)
O9_2 O 0.1940(3) 0.6136(4) 0.8572(3)
C5_2 C 0.1299(4) 0.6444(6) 0.8603(4)
C6_2 C 0.5145(4) 0.8701(7) 0.8603(4)
O14_2 O 0.4196(3) 0.8060(5) 0.8572(3)
O15_2 O 0.3864(4) 0.5804(5) 0.8572(3)
C7_2 C 0.3556(6) 0.4855(7) 0.8603(4)
C19_2 C 0.2657(7) 0.4139(9) 0.8022(5)
O34_2 O 0.23662(44) 0.47320(48) 0.7500
C20_2 C 0.1482(5) 0.4139(9) 0.6978(5)
H14_2 H 0.1581 0.3659 0.6611
H15_2 H 0.0884 0.3740 0.7358
H16_2 H 0.2078 0.3659 0.8389
H17_2 H 0.2856 0.3740 0.7642
O35_2 O 0.5268(4) 0.76342(59) 0.7500
O36_2 O 0.23658(19) 0.76338(44) 0.7500
C21_2 C 0.5861(5) 0.8518(9) 0.8022(5)
C22_2 C 0.5861(5) 0.7343(7) 0.6978(5)
H18_2 H 0.6341 0.7922 0.6611
H19_2 H 0.6260 0.7144 0.7358
H20_2 H 0.6341 0.8419 0.8389
H21_2 H 0.6260 0.9116 0.7642
C23_2 C 0.1482(5) 0.7343(7) 0.8022(5)
C24_2 C 0.2657(7) 0.8518(9) 0.6978(5)
H22_2 H 0.2078 0.8419 0.6611
H23_2 H 0.2856 0.9116 0.7358
H24_2 H 0.1581 0.7922 0.8389
H25_2 H 0.0884 0.7144 0.7642
O40_3 O 0.1576(9) 0.6783(7) 0.5000
H31_2 H 0.179(10) 0.639(8) 0.546(5)
H32_2 H 0.179(10) 0.639(8) 0.454(5)
O4_3 O 0.6783(7) 0.5207(5) 0.5000
H3_2 H 0.639(8) 0.460(6) 0.546(5)
O33_3 O 0.3217(7) 0.4793(5) 0.5000
O39_3 O 0.8424(9) 0.3217(7) 0.5000
O43_3 O 0.4793(9) 0.1576(5) 0.5000
H26_2 H 0.639(8) 0.460(6) 0.454(5)
H27_2 H 0.361(8) 0.540(6) 0.546(5)
H28_2 H 0.361(8) 0.540(6) 0.454(5)
H29_2 H 0.821(10) 0.361(8) 0.546(5)
H30_2 H 0.821(10) 0.361(8) 0.454(5)
H33_2 H 0.540(9) 0.179(5) 0.454(5)
H34_2 H 0.540(9) 0.179(5) 0.546(5)
O44_3 O 0.5207(9) 0.8424(5) 0.5000
H35_2 H 0.460(9) 0.821(5) 0.546(5)
H36_2 H 0.460(9) 0.821(5) 0.454(5)
loop_
_geom_bond_atom_site_label_1
_geom_bond_atom_site_label_2
_geom_bond_site_symmetry_1
_geom_bond_site_symmetry_2
O3 C2 1_555 1_555
C2 C13 1_555 1_555
H1 C14 1_555 1_555
H2 C14 1_555 1_555
O18 Cu6 1_555 1_555
C8 O18 1_555 1_555
O19 C8 1_555 1_555
Eu2 O3 1_555 1_555
O20 Eu2 1_555 1_555
C9 O20 1_555 1_555
O21 C9 1_555 1_555
Cu7_3 O21 1_555 1_555
Cu8 O22 1_555 1_555
O22 C10 1_555 1_555
C10 O23 1_555 1_555
O23 Eu2 1_555 1_555
O24 Eu2 1_555 1_555
C11 O24 1_555 1_555
O25 C11 1_555 1_555
Cu9 O25 1_555 1_555
Cu10_2 O26 1_555 1_555
O26 C12 1_555 1_555
C12 O27 1_555 1_555
O27 Eu2 1_555 1_555
O28 Eu2 1_555 1_555
C13 O28 1_555 1_555
O29 C13 1_555 1_555
Cu11 O29 1_555 1_555
C14 O3 1_555 1_555
H4 C2 1_555 1_555
H5 C2 1_555 1_555
O30 Eu2 1_555 1_555
O31 Eu2 1_555 1_555
C15 C12 1_555 1_555
C16 C8 1_555 1_555
H6 C16 1_555 1_555
H7 C16 1_555 1_555
H8 C15 1_555 1_555
H9 C15 1_555 1_555
C17 C11 1_555 1_555
C18 C9 1_555 1_555
H10 C18 1_555 1_555
H11 C18 1_555 1_555
H12 C17 1_555 1_555
H13 C17 1_555 1_555
O33 Cu6 1_555 1_555
H27 O33 1_555 1_555
O19 Eu2 1_555 1_555
C10 C14 1_555 1_555
O30 C16 1_555 1_555
O30 C15 1_555 1_555
O31 C18 1_555 1_555
O31 C17 1_555 1_555
O32 Cu6_2 1_555 1_555
O33_2 Cu6_2 1_555 1_555
H28 O33_2 1_555 1_555
O4 H3 1_555 1_555
O11 Cu7 1_555 1_555
O12 Cu8 1_555 1_555
Cu6_3 O4 1_555 1_555
O17 Cu6_3 1_555 1_555
O39 Cu8 1_555 1_555
O40 Cu8 1_555 1_555
O43 Cu7 1_555 1_555
H29 O39 1_555 1_555
H31 O40 1_555 1_555
H34 O43 1_555 1_555
Eu1 O1 1_555 1_555
Cu7_2 O10 1_555 1_555
O1 C1 1_555 1_555
O2 C1 1_555 1_555
C1 C22 1_555 1_555
O5 Eu1 1_555 1_555
C3 O5 1_555 1_555
O6 C3 1_555 1_555
Cu9 O6 1_555 1_555
Cu10 O7 1_555 1_555
O7 C4 1_555 1_555
C4 O8 1_555 1_555
O8 Eu1 1_555 1_555
O9 Eu1 1_555 1_555
C5 O9 1_555 1_555
O10 C5 1_555 1_555
Cu11_2 O2 1_555 1_555
Cu8_2 O13 1_555 1_555
O13 C6 1_555 1_555
C6 O14 1_555 1_555
O14 Eu1 1_555 1_555
O15 Eu1 1_555 1_555
C7 O15 1_555 1_555
O16 C7 1_555 1_555
Cu6_4 O4_2 1_555 1_555
C19 C7 1_555 1_555
O34 Eu1 1_555 1_555
C20 C4 1_555 1_555
H14 C20 1_555 1_555
H15 C20 1_555 1_555
H16 C19 1_555 1_555
H17 C19 1_555 1_555
O35 Eu1 1_555 1_555
O36 Eu1 1_555 1_555
C21 C6 1_555 1_555
C22 O35 1_555 1_555
H18 C22 1_555 1_555
H19 C22 1_555 1_555
H20 C21 1_555 1_555
H21 C21 1_555 1_555
O37 Cu8_2 1_555 1_555
O39_2 Cu8_2 1_555 1_555
O40_2 Cu8_2 1_555 1_555
O43_2 Cu7_2 1_555 1_555
C23 C5 1_555 1_555
C24 C3 1_555 1_555
H22 C24 1_555 1_555
H23 C24 1_555 1_555
H24 C23 1_555 1_555
H25 C23 1_555 1_555
H26 O4_2 1_555 1_555
H30 O39_2 1_555 1_555
H32 O40_2 1_555 1_555
H33 O43_2 1_555 1_555
O16 Cu6_4 1_555 1_555
C19 O34 1_555 1_555
O34 C20 1_555 1_555
O35 C21 1_555 1_555
O36 C24 1_555 1_555
O36 C23 1_555 1_555
O44 Cu7_3 1_555 1_555
H35 O44 1_555 1_555
O42 Cu7_4 1_555 1_555
O44_2 Cu7_4 1_555 1_555
H36 O44_2 1_555 1_555
O3_2 C2_2 1_555 1_555
C2_2 C13_2 1_555 1_555
H1_2 C14_2 1_555 1_555
H2_2 C14_2 1_555 1_555
C8_2 O12 1_555 1_555
O19_2 C8_2 1_555 1_555
Eu2_2 O3_2 1_555 1_555
O20_2 Eu2_2 1_555 1_555
C9_2 O20_2 1_555 1_555
O17 C9_2 1_555 1_555
O11 C10_2 1_555 1_555
C10_2 O23_2 1_555 1_555
O23_2 Eu2_2 1_555 1_555
O24_2 Eu2_2 1_555 1_555
C11_2 O24_2 1_555 1_555
O25_2 C11_2 1_555 1_555
Cu10 O25_2 1_555 1_555
Cu11_2 O26_2 1_555 1_555
O26_2 C12_2 1_555 1_555
C12_2 O27_2 1_555 1_555
O27_2 Eu2_2 1_555 1_555
O28_2 Eu2_2 1_555 1_555
C13_2 O28_2 1_555 1_555
O29_2 C13_2 1_555 1_555
Cu9 O29_2 1_555 1_555
C14_2 O3_2 1_555 1_555
H4_2 C2_2 1_555 1_555
H5_2 C2_2 1_555 1_555
O30_2 Eu2_2 1_555 1_555
O31_2 Eu2_2 1_555 1_555
C15_2 C12_2 1_555 1_555
C16_2 C8_2 1_555 1_555
H6_2 C16_2 1_555 1_555
H7_2 C16_2 1_555 1_555
H8_2 C15_2 1_555 1_555
H9_2 C15_2 1_555 1_555
C17_2 C11_2 1_555 1_555
C18_2 C9_2 1_555 1_555
H10_2 C18_2 1_555 1_555
H11_2 C18_2 1_555 1_555
H12_2 C17_2 1_555 1_555
H13_2 C17_2 1_555 1_555
O19_2 Eu2_2 1_555 1_555
C10_2 C14_2 1_555 1_555
O30_2 C16_2 1_555 1_555
O30_2 C15_2 1_555 1_555
O31_2 C18_2 1_555 1_555
O31_2 C17_2 1_555 1_555
Eu1_2 O1_2 1_555 1_555
O1_2 C1_2 1_555 1_555
O2_2 C1_2 1_555 1_555
C1_2 C22_2 1_555 1_555
O5_2 Eu1_2 1_555 1_555
C3_2 O5_2 1_555 1_555
O6_2 C3_2 1_555 1_555
Cu10_2 O6_2 1_555 1_555
Cu11 O7_2 1_555 1_555
O7_2 C4_2 1_555 1_555
C4_2 O8_2 1_555 1_555
O8_2 Eu1_2 1_555 1_555
O9_2 Eu1_2 1_555 1_555
C5_2 O9_2 1_555 1_555
O32 C5_2 1_555 1_555
Cu9 O2_2 1_555 1_555
O42 C6_2 1_555 1_555
C6_2 O14_2 1_555 1_555
O14_2 Eu1_2 1_555 1_555
O15_2 Eu1_2 1_555 1_555
C7_2 O15_2 1_555 1_555
O37 C7_2 1_555 1_555
C19_2 C7_2 1_555 1_555
O34_2 Eu1_2 1_555 1_555
C20_2 C4_2 1_555 1_555
H14_2 C20_2 1_555 1_555
H15_2 C20_2 1_555 1_555
H16_2 C19_2 1_555 1_555
H17_2 C19_2 1_555 1_555
O35_2 Eu1_2 1_555 1_555
O36_2 Eu1_2 1_555 1_555
C21_2 C6_2 1_555 1_555
C22_2 O35_2 1_555 1_555
H18_2 C22_2 1_555 1_555
H19_2 C22_2 1_555 1_555
H20_2 C21_2 1_555 1_555
H21_2 C21_2 1_555 1_555
C23_2 C5_2 1_555 1_555
C24_2 C3_2 1_555 1_555
H22_2 C24_2 1_555 1_555
H23_2 C24_2 1_555 1_555
H24_2 C23_2 1_555 1_555
H25_2 C23_2 1_555 1_555
C19_2 O34_2 1_555 1_555
O34_2 C20_2 1_555 1_555
O35_2 C21_2 1_555 1_555
O36_2 C24_2 1_555 1_555
O36_2 C23_2 1_555 1_555
O40_3 Cu11 1_555 1_555
H31_2 O40_3 1_555 1_555
H32_2 O40_3 1_555 1_555
O4_3 H3_2 1_555 1_555
Cu9 O4_3 1_555 1_555
O33_3 Cu9 1_555 1_555
O39_3 Cu11_2 1_555 1_555
O43_3 Cu10 1_555 1_555
H26_2 O4_3 1_555 1_555
H27_2 O33_3 1_555 1_555
H28_2 O33_3 1_555 1_555
H29_2 O39_3 1_555 1_555
H30_2 O39_3 1_555 1_555
H33_2 O43_3 1_555 1_555
H34_2 O43_3 1_555 1_555
O44_3 Cu10_2 1_555 1_555
H35_2 O44_3 1_555 1_555
H36_2 O44_3 1_555 1_555

#END
