
###############################################################################
#
# This file contains modified crystal structure data generated from the
# MOF subset of the Cambridge Structural Database (CSD) v543 
# hosted by the Cambridge Crystallographic Data Centre (CCDC).
#
# This work is licensed under the Creative Commons
# Attribution-NonCommercial-ShareAlike 4.0 International License.
# To view a copy of this license, visit
# http://creativecommons.org/licenses/by-nc-sa/4.0/
# or send a letter to
# Creative Commons, PO Box 1866, Mountain View, CA 94042, USA.
#
# CIF created using the CSD Python API on 29 September 2022
# The structure has been converted into the P1 space group
# The structure has a 3D framework
# The original CSD entry WEVQOD01 is in the hexagonal crystal system
# The framework has been calculated to contain at least 10.0% void space
# The void calculation uses a probe of radius 1.32A, grid spacing 0.4
#
###############################################################################

data_WEVQOD01
_chemical_formula_moiety         '(C48 H72 Cu15 Gd4 O78)n'
_symmetry_cell_setting           triclinic
_symmetry_space_group_name_H-M   'P 1'
_symmetry_Int_Tables_number      1
_space_group_name_Hall           'P 1'
loop_
_symmetry_equiv_pos_site_id
_symmetry_equiv_pos_as_xyz
1 x,y,z
_cell_length_a                   14.4783(18)
_cell_length_b                   14.4783(18)
_cell_length_c                   15.293(2)
_cell_angle_alpha                90
_cell_angle_beta                 90
_cell_angle_gamma                120
_cell_volume                     2776.25
loop_
_atom_site_label
_atom_site_type_symbol
_atom_site_fract_x
_atom_site_fract_y
_atom_site_fract_z
Cu5 Cu 0.5000 -0.0000 0.5000
Cu1 Cu 0.0000 0.5000 0.0000
Gd2 Gd 0.3333 0.6667 0.2500
O19 O 0.1632(14) 0.4834(13) 0.0000
H19 H 0.1955 0.5173 0.0418
O20 O 0.0533(9) 0.6135(9) 0.0899(7)
C13 C 0.1311(12) 0.6476(12) 0.1381(9)
O21 O 0.1942(8) 0.6138(8) 0.1444(6)
O22 O 0.2352(7) 0.7648(7) 0.2500
C14 C 0.1459(12) 0.7401(14) 0.1954(12)
H20 H 0.1599 0.8024 0.1591
H21 H 0.0813 0.7192 0.2312
O23 O 0.3865(9) 0.9467(9) 0.4101(7)
C15 C 0.3524(12) 0.8689(12) 0.3619(9)
O24 O 0.3862(8) 0.8058(8) 0.3556(6)
C16 C 0.2599(14) 0.8541(12) 0.3046(12)
H23 H 0.1976 0.8401 0.3409
H24 H 0.2808 0.9187 0.2688
Cu5_2 Cu 0.5000 1.0000 0.5000
Cu9 Cu 0.0000 0.5000 0.5000
O43 O 0.3862(8) 0.5804(11) 0.1444(6)
O44 O 0.4196(11) 0.8058(8) 0.1444(6)
O45 O 0.4196(11) 0.6138(8) 0.3556(6)
O46 O 0.1942(8) 0.5804(11) 0.3556(6)
O47 O 0.2352(7) 0.4704(10) 0.2500
O48 O 0.5296(10) 0.7648(7) 0.2500
Cu1_2 Cu -0.0000 0.5000 1.0000
O19_2 O 0.1632(14) 0.4834(13) 1.0000
H22 H 0.1955 0.5173 0.9582
O37 O 0.0533(9) 0.6135(9) 0.9101(7)
Gd1 Gd 0.6667 0.3333 0.2500
Cu1_3 Cu 1.0000 0.5000 0.0000
O1 O 0.8368(14) 0.5166(13) 0.0000
H1 H 0.8045 0.4827 0.0418
O2 O 0.9467(9) 0.3865(9) 0.0899(7)
C1 C 0.8689(12) 0.3524(12) 0.1381(9)
O3 O 0.8058(8) 0.3862(8) 0.1444(6)
O4 O 0.7648(7) 0.2352(7) 0.2500
C2 C 0.8541(12) 0.2599(14) 0.1954(12)
H2 H 0.8401 0.1976 0.1591
H3 H 0.9187 0.2808 0.2312
O5 O 0.6135(9) 0.0533(9) 0.4101(7)
C3 C 0.6476(12) 0.1311(12) 0.3619(9)
O6 O 0.6138(8) 0.1942(8) 0.3556(6)
C4 C 0.7401(14) 0.1459(12) 0.3046(12)
H5 H 0.8024 0.1599 0.3409
H6 H 0.7192 0.0813 0.2688
Cu2 Cu 0.5000 0.5000 0.0000
O7 O 0.4834(13) 0.3202(19) 0.0000
H7 H 0.5173 0.3218 0.0418
O8 O 0.6135(9) 0.5602(13) 0.0899(7)
C5 C 0.6476(12) 0.5165(17) 0.1381(9)
O9 O 0.6138(8) 0.4196(11) 0.1444(6)
O10 O 0.7648(7) 0.5296(10) 0.2500
C6 C 0.7401(14) 0.5942(18) 0.1954(12)
H8 H 0.8024 0.6425 0.1591
H9 H 0.7192 0.6379 0.2312
O11 O 0.9467(9) 0.5602(13) 0.4101(7)
C7 C 0.8689(12) 0.5165(17) 0.3619(9)
O12 O 0.8058(8) 0.4196(11) 0.3556(6)
C8 C 0.8541(12) 0.5942(18) 0.3046(12)
H11 H 0.8401 0.6425 0.3409
H12 H 0.9187 0.6379 0.2688
Cu3 Cu 0.5000 0.0000 0.0000
O13 O 0.6798(19) 0.1632(14) 0.0000
H13 H 0.6782 0.1955 0.0418
O14 O 0.4398(13) 0.0533(9) 0.0899(7)
C9 C 0.4835(17) 0.1311(12) 0.1381(9)
O15 O 0.5804(11) 0.1942(8) 0.1444(6)
O16 O 0.4704(10) 0.2352(7) 0.2500
C10 C 0.4058(18) 0.1459(12) 0.1954(12)
H14 H 0.3575 0.1599 0.1591
H15 H 0.3621 0.0813 0.2312
O17 O 0.4398(13) 0.3865(9) 0.4101(7)
C11 C 0.4835(17) 0.3524(12) 0.3619(9)
O18 O 0.5804(11) 0.3862(8) 0.3556(6)
C12 C 0.4058(18) 0.2599(14) 0.3046(12)
H17 H 0.3575 0.1976 0.3409
H18 H 0.3621 0.2808 0.2688
O25 O 0.5166(13) 0.6798(19) 0.0000
H25 H 0.4827 0.6782 0.0418
O26 O 0.3865(9) 0.4398(13) 0.0899(7)
C17 C 0.3524(12) 0.4835(17) 0.1381(9)
C18 C 0.2599(14) 0.4058(18) 0.1954(12)
H26 H 0.1976 0.3575 0.1591
H27 H 0.2808 0.3621 0.2312
O29 O 0.0533(9) 0.4398(13) 0.4101(7)
C19 C 0.1311(12) 0.4835(17) 0.3619(9)
C20 C 0.1459(12) 0.4058(18) 0.3046(12)
H29 H 0.1599 0.3575 0.3409
H30 H 0.0813 0.3621 0.2688
Cu7 Cu 0.5000 0.5000 0.5000
Cu9_2 Cu 1.0000 0.5000 0.5000
Cu1_4 Cu 1.0000 0.5000 1.0000
O1_2 O 0.8368(14) 0.5166(13) 1.0000
H4 H 0.8045 0.4827 0.9582
Cu2_2 Cu 0.5000 0.5000 1.0000
O7_2 O 0.4834(13) 0.3202(19) 1.0000
H10 H 0.5173 0.3218 0.9582
Cu3_2 Cu 0.5000 0.0000 1.0000
O13_2 O 0.6798(19) 0.1632(14) 1.0000
H16 H 0.6782 0.1955 0.9582
O25_2 O 0.5166(13) 0.6798(19) 1.0000
H28 H 0.4827 0.6782 0.9582
O38 O 0.3865(9) 0.4398(13) 0.9101(7)
O40 O 0.9467(9) 0.3865(9) 0.9101(7)
O41 O 0.6135(9) 0.5602(13) 0.9101(7)
O42 O 0.4398(13) 0.0533(9) 0.9101(7)
Cu3_3 Cu 0.5000 1.0000 0.0000
O31 O 0.3202(19) 0.8368(14) 0.0000
H31 H 0.3218 0.8045 0.0418
O32 O 0.5602(13) 0.9467(9) 0.0899(7)
C21 C 0.5165(17) 0.8689(12) 0.1381(9)
C22 C 0.5942(18) 0.8541(12) 0.1954(12)
H32 H 0.6425 0.8401 0.1591
H33 H 0.6379 0.9187 0.2312
O35 O 0.5602(13) 0.6135(9) 0.4101(7)
C23 C 0.5165(17) 0.6476(12) 0.3619(9)
C24 C 0.5942(18) 0.7401(14) 0.3046(12)
H35 H 0.6425 0.8024 0.3409
H36 H 0.6379 0.7192 0.2688
Cu3_4 Cu 0.5000 1.0000 1.0000
O31_2 O 0.3202(19) 0.8368(14) 1.0000
H34 H 0.3218 0.8045 0.9582
O39 O 0.5602(13) 0.9467(9) 0.9101(7)
O19_3 O 0.4834(13) 0.1632(14) 0.5000
H19_2 H 0.5173 0.1955 0.4582
H22_2 H 0.5173 0.1955 0.5418
O37_2 O 0.6135(9) 0.0533(9) 0.5899(7)
O1_3 O 0.5166(13) 0.8368(14) 0.5000
H1_2 H 0.4827 0.8045 0.4582
H4_2 H 0.4827 0.8045 0.5418
O7_3 O 0.3202(19) 0.4834(13) 0.5000
H7_2 H 0.3218 0.5173 0.4582
H10_2 H 0.3218 0.5173 0.5418
O13_3 O 0.1632(14) 0.6798(19) 0.5000
H13_2 H 0.1955 0.6782 0.4582
H16_2 H 0.1955 0.6782 0.5418
O25_3 O 0.6798(19) 0.5166(13) 0.5000
H25_2 H 0.6782 0.4827 0.4582
H28_2 H 0.6782 0.4827 0.5418
O38_2 O 0.4398(13) 0.3865(9) 0.5899(7)
O40_2 O 0.3865(9) 0.9467(9) 0.5899(7)
O41_2 O 0.5602(13) 0.6135(9) 0.5899(7)
O42_2 O 0.0533(9) 0.4398(13) 0.5899(7)
O31_3 O 0.8368(14) 0.3202(19) 0.5000
H31_2 H 0.8045 0.3218 0.4582
H34_2 H 0.8045 0.3218 0.5418
O39_2 O 0.9467(9) 0.5602(13) 0.5899(7)
C21_2 C 0.4835(17) 0.1311(12) 0.8619(9)
O33 O 0.5804(11) 0.1942(8) 0.8556(6)
O34 O 0.4704(10) 0.2352(7) 0.7500
C22_2 C 0.4058(18) 0.1459(12) 0.8046(12)
H32_2 H 0.3575 0.1599 0.8409
H33_2 H 0.3621 0.0813 0.7688
C23_2 C 0.4835(17) 0.3524(12) 0.6381(9)
O36 O 0.5804(11) 0.3862(8) 0.6444(6)
C24_2 C 0.4058(18) 0.2599(14) 0.6954(12)
H35_2 H 0.3575 0.1976 0.6591
H36_2 H 0.3621 0.2808 0.7312
Gd3 Gd 0.6667 0.3333 0.7500
Gd1_2 Gd 0.3333 0.6667 0.7500
C1_2 C 0.1311(12) 0.6476(12) 0.8619(9)
O3_2 O 0.1942(8) 0.6138(8) 0.8556(6)
O4_2 O 0.2352(7) 0.7648(7) 0.7500
C2_2 C 0.1459(12) 0.7401(14) 0.8046(12)
H2_2 H 0.1599 0.8024 0.8409
H3_2 H 0.0813 0.7192 0.7688
C3_2 C 0.3524(12) 0.8689(12) 0.6381(9)
O6_2 O 0.3862(8) 0.8058(8) 0.6444(6)
C4_2 C 0.2599(14) 0.8541(12) 0.6954(12)
H5_2 H 0.1976 0.8401 0.6591
H6_2 H 0.2808 0.9187 0.7312
C5_2 C 0.3524(12) 0.4835(17) 0.8619(9)
O9_2 O 0.3862(8) 0.5804(11) 0.8556(6)
O10_2 O 0.2352(7) 0.4704(10) 0.7500
C6_2 C 0.2599(14) 0.4058(18) 0.8046(12)
H8_2 H 0.1976 0.3575 0.8409
H9_2 H 0.2808 0.3621 0.7688
C7_2 C 0.1311(12) 0.4835(17) 0.6381(9)
O12_2 O 0.1942(8) 0.5804(11) 0.6444(6)
C8_2 C 0.1459(12) 0.4058(18) 0.6954(12)
H11_2 H 0.1599 0.3575 0.6591
H12_2 H 0.0813 0.3621 0.7312
C9_2 C 0.5165(17) 0.8689(12) 0.8619(9)
O15_2 O 0.4196(11) 0.8058(8) 0.8556(6)
O16_2 O 0.5296(10) 0.7648(7) 0.7500
C10_2 C 0.5942(18) 0.8541(12) 0.8046(12)
H14_2 H 0.6425 0.8401 0.8409
H15_2 H 0.6379 0.9187 0.7688
C11_2 C 0.5165(17) 0.6476(12) 0.6381(9)
O18_2 O 0.4196(11) 0.6138(8) 0.6444(6)
C12_2 C 0.5942(18) 0.7401(14) 0.6954(12)
H17_2 H 0.6425 0.8024 0.6591
H18_2 H 0.6379 0.7192 0.7312
C17_2 C 0.6476(12) 0.5165(17) 0.8619(9)
O27 O 0.6138(8) 0.4196(11) 0.8556(6)
O28 O 0.7648(7) 0.5296(10) 0.7500
C18_2 C 0.7401(14) 0.5942(18) 0.8046(12)
H26_2 H 0.8024 0.6425 0.8409
H27_2 H 0.7192 0.6379 0.7688
C19_2 C 0.8689(12) 0.5165(17) 0.6381(9)
O30 O 0.8058(8) 0.4196(11) 0.6444(6)
C20_2 C 0.8541(12) 0.5942(18) 0.6954(12)
H29_2 H 0.8401 0.6425 0.6591
H30_2 H 0.9187 0.6379 0.7312
C13_2 C 0.8689(12) 0.3524(12) 0.8619(9)
O21_2 O 0.8058(8) 0.3862(8) 0.8556(6)
O22_2 O 0.7648(7) 0.2352(7) 0.7500
C14_2 C 0.8541(12) 0.2599(14) 0.8046(12)
H20_2 H 0.8401 0.1976 0.8409
H21_2 H 0.9187 0.2808 0.7688
C15_2 C 0.6476(12) 0.1311(12) 0.6381(9)
O24_2 O 0.6138(8) 0.1942(8) 0.6444(6)
C16_2 C 0.7401(14) 0.1459(12) 0.6954(12)
H23_2 H 0.8024 0.1599 0.6591
H24_2 H 0.7192 0.0813 0.7312
loop_
_geom_bond_atom_site_label_1
_geom_bond_atom_site_label_2
_geom_bond_site_symmetry_1
_geom_bond_site_symmetry_2
Gd2 O21 1_555 1_555
O19 Cu1 1_555 1_555
H19 O19 1_555 1_555
O20 Cu1 1_555 1_555
C13 O20 1_555 1_555
O21 C13 1_555 1_555
O22 Gd2 1_555 1_555
C14 C13 1_555 1_555
H20 C14 1_555 1_555
H21 C14 1_555 1_555
O23 C15 1_555 1_555
C15 O24 1_555 1_555
O24 Gd2 1_555 1_555
C16 O22 1_555 1_555
H23 C16 1_555 1_555
H24 C16 1_555 1_555
Cu5_2 O23 1_555 1_555
O43 Gd2 1_555 1_555
O44 Gd2 1_555 1_555
O45 Gd2 1_555 1_555
O46 Gd2 1_555 1_555
O47 Gd2 1_555 1_555
O48 Gd2 1_555 1_555
O22 C14 1_555 1_555
C15 C16 1_555 1_555
O19_2 Cu1_2 1_555 1_555
H22 O19_2 1_555 1_555
O37 Cu1_2 1_555 1_555
Gd1 O3 1_555 1_555
Cu1_3 O1 1_555 1_555
O1 H1 1_555 1_555
O2 Cu1_3 1_555 1_555
C1 O2 1_555 1_555
O3 C1 1_555 1_555
O4 Gd1 1_555 1_555
C2 C1 1_555 1_555
H2 C2 1_555 1_555
H3 C2 1_555 1_555
O5 C3 1_555 1_555
C3 O6 1_555 1_555
O6 Gd1 1_555 1_555
C4 O4 1_555 1_555
H5 C4 1_555 1_555
H6 C4 1_555 1_555
Cu2 O7 1_555 1_555
O7 H7 1_555 1_555
O8 Cu2 1_555 1_555
C5 O8 1_555 1_555
O9 Gd1 1_555 1_555
O10 Gd1 1_555 1_555
C6 C5 1_555 1_555
H8 C6 1_555 1_555
H9 C6 1_555 1_555
O11 C7 1_555 1_555
C7 O12 1_555 1_555
O12 Gd1 1_555 1_555
C8 O10 1_555 1_555
H11 C8 1_555 1_555
H12 C8 1_555 1_555
Cu3 O13 1_555 1_555
O13 H13 1_555 1_555
O14 Cu3 1_555 1_555
C9 O14 1_555 1_555
O15 Gd1 1_555 1_555
O16 Gd1 1_555 1_555
C10 C9 1_555 1_555
H14 C10 1_555 1_555
H15 C10 1_555 1_555
O17 C11 1_555 1_555
C11 O18 1_555 1_555
O18 Gd1 1_555 1_555
C12 O16 1_555 1_555
H17 C12 1_555 1_555
H18 C12 1_555 1_555
O25 Cu2 1_555 1_555
H25 O25 1_555 1_555
O26 Cu2 1_555 1_555
C17 O26 1_555 1_555
O43 C17 1_555 1_555
O47 C18 1_555 1_555
C18 C17 1_555 1_555
H26 C18 1_555 1_555
H27 C18 1_555 1_555
O29 C19 1_555 1_555
C19 O46 1_555 1_555
C20 O47 1_555 1_555
H29 C20 1_555 1_555
H30 C20 1_555 1_555
Cu5 O5 1_555 1_555
Cu7 O17 1_555 1_555
Cu9 O29 1_555 1_555
Cu9_2 O11 1_555 1_555
O4 C2 1_555 1_555
C3 C4 1_555 1_555
C5 O9 1_555 1_555
O10 C6 1_555 1_555
C7 C8 1_555 1_555
C9 O15 1_555 1_555
O16 C10 1_555 1_555
C11 C12 1_555 1_555
C19 C20 1_555 1_555
Cu1_4 O1_2 1_555 1_555
H4 O1_2 1_555 1_555
Cu2_2 O7_2 1_555 1_555
H10 O7_2 1_555 1_555
Cu3_2 O13_2 1_555 1_555
H16 O13_2 1_555 1_555
O25_2 Cu2_2 1_555 1_555
H28 O25_2 1_555 1_555
O38 Cu2_2 1_555 1_555
O40 Cu1_4 1_555 1_555
O41 Cu2_2 1_555 1_555
O42 Cu3_2 1_555 1_555
O31 Cu3_3 1_555 1_555
H31 O31 1_555 1_555
O32 Cu3_3 1_555 1_555
C21 O32 1_555 1_555
O44 C21 1_555 1_555
O48 C22 1_555 1_555
C22 C21 1_555 1_555
H32 C22 1_555 1_555
H33 C22 1_555 1_555
O35 C23 1_555 1_555
C23 O45 1_555 1_555
C24 O48 1_555 1_555
H35 C24 1_555 1_555
H36 C24 1_555 1_555
Cu7 O35 1_555 1_555
C23 C24 1_555 1_555
O31_2 Cu3_4 1_555 1_555
H34 O31_2 1_555 1_555
O39 Cu3_4 1_555 1_555
O19_3 Cu5 1_555 1_555
H19_2 O19_3 1_555 1_555
H22_2 O19_3 1_555 1_555
O37_2 Cu5 1_555 1_555
Cu5_2 O1_3 1_555 1_555
O1_3 H1_2 1_555 1_555
H4_2 O1_3 1_555 1_555
Cu7 O7_3 1_555 1_555
O7_3 H7_2 1_555 1_555
H10_2 O7_3 1_555 1_555
Cu9 O13_3 1_555 1_555
O13_3 H13_2 1_555 1_555
H16_2 O13_3 1_555 1_555
O25_3 Cu7 1_555 1_555
H25_2 O25_3 1_555 1_555
H28_2 O25_3 1_555 1_555
O38_2 Cu7 1_555 1_555
O40_2 Cu5_2 1_555 1_555
O41_2 Cu7 1_555 1_555
O42_2 Cu9 1_555 1_555
O31_3 Cu9_2 1_555 1_555
H31_2 O31_3 1_555 1_555
H34_2 O31_3 1_555 1_555
O39_2 Cu9_2 1_555 1_555
C21_2 O42 1_555 1_555
O33 C21_2 1_555 1_555
O34 C22_2 1_555 1_555
C22_2 C21_2 1_555 1_555
H32_2 C22_2 1_555 1_555
H33_2 C22_2 1_555 1_555
O38_2 C23_2 1_555 1_555
C23_2 O36 1_555 1_555
O36 Gd3 1_555 1_555
C24_2 O34 1_555 1_555
H35_2 C24_2 1_555 1_555
H36_2 C24_2 1_555 1_555
Gd3 O33 1_555 1_555
O34 Gd3 1_555 1_555
C23_2 C24_2 1_555 1_555
Gd1_2 O3_2 1_555 1_555
C1_2 O37 1_555 1_555
O3_2 C1_2 1_555 1_555
O4_2 Gd1_2 1_555 1_555
C2_2 C1_2 1_555 1_555
H2_2 C2_2 1_555 1_555
H3_2 C2_2 1_555 1_555
O40_2 C3_2 1_555 1_555
C3_2 O6_2 1_555 1_555
O6_2 Gd1_2 1_555 1_555
C4_2 O4_2 1_555 1_555
H5_2 C4_2 1_555 1_555
H6_2 C4_2 1_555 1_555
C5_2 O38 1_555 1_555
O9_2 Gd1_2 1_555 1_555
O10_2 Gd1_2 1_555 1_555
C6_2 C5_2 1_555 1_555
H8_2 C6_2 1_555 1_555
H9_2 C6_2 1_555 1_555
O42_2 C7_2 1_555 1_555
C7_2 O12_2 1_555 1_555
O12_2 Gd1_2 1_555 1_555
C8_2 O10_2 1_555 1_555
H11_2 C8_2 1_555 1_555
H12_2 C8_2 1_555 1_555
C9_2 O39 1_555 1_555
O15_2 Gd1_2 1_555 1_555
O16_2 Gd1_2 1_555 1_555
C10_2 C9_2 1_555 1_555
H14_2 C10_2 1_555 1_555
H15_2 C10_2 1_555 1_555
O41_2 C11_2 1_555 1_555
C11_2 O18_2 1_555 1_555
O18_2 Gd1_2 1_555 1_555
C12_2 O16_2 1_555 1_555
H17_2 C12_2 1_555 1_555
H18_2 C12_2 1_555 1_555
C17_2 O41 1_555 1_555
O27 C17_2 1_555 1_555
O28 C18_2 1_555 1_555
C18_2 C17_2 1_555 1_555
H26_2 C18_2 1_555 1_555
H27_2 C18_2 1_555 1_555
O39_2 C19_2 1_555 1_555
C19_2 O30 1_555 1_555
O30 Gd3 1_555 1_555
C20_2 O28 1_555 1_555
H29_2 C20_2 1_555 1_555
H30_2 C20_2 1_555 1_555
Gd3 O27 1_555 1_555
O4_2 C2_2 1_555 1_555
C3_2 C4_2 1_555 1_555
C5_2 O9_2 1_555 1_555
O10_2 C6_2 1_555 1_555
C7_2 C8_2 1_555 1_555
C9_2 O15_2 1_555 1_555
O16_2 C10_2 1_555 1_555
C11_2 C12_2 1_555 1_555
O28 Gd3 1_555 1_555
C19_2 C20_2 1_555 1_555
Gd3 O21_2 1_555 1_555
C13_2 O40 1_555 1_555
O21_2 C13_2 1_555 1_555
O22_2 Gd3 1_555 1_555
C14_2 C13_2 1_555 1_555
H20_2 C14_2 1_555 1_555
H21_2 C14_2 1_555 1_555
O37_2 C15_2 1_555 1_555
C15_2 O24_2 1_555 1_555
O24_2 Gd3 1_555 1_555
C16_2 O22_2 1_555 1_555
H23_2 C16_2 1_555 1_555
H24_2 C16_2 1_555 1_555
O22_2 C14_2 1_555 1_555
C15_2 C16_2 1_555 1_555

#END
