
###############################################################################
#
# This file contains modified crystal structure data generated from the
# MOF subset of the Cambridge Structural Database (CSD) v543 
# hosted by the Cambridge Crystallographic Data Centre (CCDC).
#
# This work is licensed under the Creative Commons
# Attribution-NonCommercial-ShareAlike 4.0 International License.
# To view a copy of this license, visit
# http://creativecommons.org/licenses/by-nc-sa/4.0/
# or send a letter to
# Creative Commons, PO Box 1866, Mountain View, CA 94042, USA.
#
# CIF created using the CSD Python API on 29 September 2022
# The structure has been converted into the P1 space group
# The structure has a 3D framework
# The original CSD entry WEVVOL is in the monoclinic crystal system
# The framework has been calculated to contain at least 10.0% void space
# The void calculation uses a probe of radius 1.32A, grid spacing 0.4
# The framework is charged, counterions have been retained in the structure
#
###############################################################################

data_WEVVOL
_chemical_formula_moiety         '(C216 H144 Cd16 N8 O80 8-)n'
_symmetry_cell_setting           triclinic
_symmetry_space_group_name_H-M   'P 1'
_symmetry_Int_Tables_number      1
_space_group_name_Hall           'P 1'
loop_
_symmetry_equiv_pos_site_id
_symmetry_equiv_pos_as_xyz
1 x,y,z
_cell_length_a                   31.840(10)
_cell_length_b                   13.478(4)
_cell_length_c                   19.854(6)
_cell_angle_alpha                90
_cell_angle_beta                 91.365(6)
_cell_angle_gamma                90
_cell_volume                     8517.72
loop_
_atom_site_label
_atom_site_type_symbol
_atom_site_fract_x
_atom_site_fract_y
_atom_site_fract_z
O1 O 0.14116(15) 0.4712(4) 0.3610(3)
Cd2 Cd 0.10359(2) 0.66437(4) 0.48999(3)
C1 C 0.09886(19) 0.2963(4) 0.3933(4)
H1 H 0.1261 0.2926 0.3778
C3 C 0.08068(19) 0.3886(4) 0.3992(3)
C4 C 0.09862(19) 0.1077(4) 0.4039(4)
C6 C 0.07855(19) 0.2085(5) 0.4094(4)
C7 C 0.0762(2) 0.0221(5) 0.4048(4)
H2 H 0.0471 0.0255 0.4070
C8 C 0.14244(18) 0.1000(4) 0.3977(4)
H3 H 0.1585 0.1577 0.3979
C9 C 0.03781(19) 0.2176(5) 0.4345(4)
H4 H 0.0235 0.1609 0.4475
C10 C 0.16231(18) 0.0096(4) 0.3912(3)
C11 C 0.0407(2) 0.3959(5) 0.4236(4)
H5 H 0.0285 0.4579 0.4291
C12 C 0.0184(2) 0.3103(5) 0.4402(4)
C15 C 0.29642(19) 0.0217(5) 0.3780(3)
H7 H 0.3254 0.0263 0.3747
C16 C 0.27067(19) 0.0519(4) 0.3240(3)
C17 C 0.20933(18) 0.0095(4) 0.3881(3)
C19 C 0.22771(18) 0.0457(4) 0.3296(3)
H9 H 0.2105 0.0661 0.2937
C21 C 0.2905(2) 0.0833(5) 0.2593(3)
O2 O 0.26833(15) 0.0814(4) 0.2064(3)
O4 O 0.32867(15) 0.1087(4) 0.2603(3)
C23 C 0.1053(2) 0.4806(5) 0.3847(4)
O8 O 0.08822(16) 0.5636(3) 0.3972(3)
O11 O 0.1315(2) 0.7523(6) 0.5780(4)
C24 C 0.2085(3) 0.7854(9) 0.5893(7)
H10 H 0.2135 0.8491 0.6098
H11 H 0.2060 0.7930 0.5413
H12 H 0.2316 0.7420 0.6002
C25 C 0.1694(6) 0.7429(9) 0.6150(9)
N1 N 0.1670(4) 0.7076(8) 0.6717(8)
C26 C 0.1230(5) 0.6631(11) 0.6928(10)
H13 H 0.1020 0.6797 0.6592
H14 H 0.1152 0.6904 0.7354
H15 H 0.1251 0.5922 0.6965
C27 C 0.2056(5) 0.7025(10) 0.7164(7)
H16 H 0.2253 0.6569 0.6976
H17 H 0.1980 0.6802 0.7604
H18 H 0.2181 0.7671 0.7198
Cd3 Cd 0.17482(2) 0.61987(3) 0.35994(2)
Cd4 Cd 0.32518(2) 0.11987(3) 0.14006(2)
O14 O 0.04730(15) 0.6054(4) 0.5489(3)
O17 O 0.15440(15) 0.5551(4) 0.5163(3)
O18 O 0.04019(15) 0.7499(4) 0.4992(3)
O19 O 0.13569(15) 0.7441(3) 0.4060(3)
C2 C 0.13829(19) 0.9207(4) 0.3937(4)
C5 C 0.1566(2) 0.8205(4) 0.3837(4)
C13 C 0.0956(2) 0.9287(5) 0.4026(4)
H6 H 0.0794 0.8716 0.4071
C14 C 0.27899(18) 0.9845(4) 0.4373(3)
C18 C 0.2352(2) 0.9788(5) 0.4395(4)
H8 H 0.2232 0.9528 0.4780
C20 C 0.3067(2) 0.9446(5) 0.4917(3)
O5 O 0.28906(16) 0.9169(4) 0.5458(3)
O6 O 0.34560(15) 0.9449(4) 0.4837(3)
O9 O 0.18918(16) 0.8060(3) 0.3538(3)
Cd5 Cd 0.32518(2) 0.88013(3) 0.64006(2)
Cd8 Cd 0.39641(2) 0.83563(4) 0.51001(3)
O13 O 0.23167(15) 0.5814(4) 0.2936(3)
O15 O 0.17133(15) 0.6087(4) 0.2397(3)
O16 O 0.21094(16) 0.5831(4) 0.4542(3)
C22 C 0.9743(2) 0.3181(5) 0.4648(4)
O3 O 0.95270(15) 0.3946(4) 0.4511(3)
O7 O 0.95981(15) 0.2501(4) 0.5008(3)
Cd7 Cd 0.89641(2) 0.33563(4) 0.51001(3)
C22_2 C 0.0257(2) 0.3181(5) 0.0352(4)
O3_2 O 0.04730(15) 0.3946(4) 0.0489(3)
O7_2 O 0.04019(15) 0.2501(4) 0.9992(3)
Cd7_2 Cd 0.10359(2) 0.33563(4) 0.98999(3)
O1_2 O 0.85884(15) 0.4712(4) 0.1390(3)
Cd2_2 Cd 0.89641(2) 0.66437(4) 0.01001(3)
C1_2 C 0.90114(19) 0.2963(4) 0.1067(4)
H1_2 H 0.8739 0.2926 0.1222
C3_2 C 0.91932(19) 0.3886(4) 0.1008(3)
C4_2 C 0.90138(19) 0.1077(4) 0.0961(4)
C6_2 C 0.92145(19) 0.2085(5) 0.0906(4)
C7_2 C 0.9238(2) 0.0221(5) 0.0952(4)
H2_2 H 0.9529 0.0255 0.0930
C8_2 C 0.85756(18) 0.1000(4) 0.1023(4)
H3_2 H 0.8415 0.1577 0.1021
C9_2 C 0.96219(19) 0.2176(5) 0.0655(4)
H4_2 H 0.9765 0.1609 0.0525
C10_2 C 0.83769(18) 0.0096(4) 0.1088(3)
C11_2 C 0.9593(2) 0.3959(5) 0.0764(4)
H5_2 H 0.9715 0.4579 0.0709
C12_2 C 0.9816(2) 0.3103(5) 0.0598(4)
C15_2 C 0.70358(19) 0.0217(5) 0.1220(3)
H7_2 H 0.6746 0.0263 0.1253
C16_2 C 0.72933(19) 0.0519(4) 0.1760(3)
C17_2 C 0.79067(18) 0.0095(4) 0.1119(3)
C19_2 C 0.77229(18) 0.0457(4) 0.1704(3)
H9_2 H 0.7895 0.0661 0.2063
C21_2 C 0.7095(2) 0.0833(5) 0.2407(3)
O2_2 O 0.73167(15) 0.0814(4) 0.2936(3)
O4_2 O 0.67133(15) 0.1087(4) 0.2397(3)
C23_2 C 0.8947(2) 0.4806(5) 0.1153(4)
O8_2 O 0.91178(16) 0.5636(3) 0.1028(3)
Cd3_2 Cd 0.82518(2) 0.61987(3) 0.14006(2)
Cd4_2 Cd 0.67482(2) 0.11987(3) 0.35994(2)
O18_2 O 0.95981(15) 0.7499(4) 0.0008(3)
O19_2 O 0.86431(15) 0.7441(3) 0.0940(3)
O11_2 O 0.8685(2) 0.7523(6) 0.9220(4)
C24_2 C 0.7915(3) 0.7854(9) 0.9107(7)
H10_2 H 0.7865 0.8491 0.8902
H11_2 H 0.7940 0.7930 0.9587
H12_2 H 0.7684 0.7420 0.8998
C25_2 C 0.8306(6) 0.7429(9) 0.8850(9)
N1_2 N 0.8330(4) 0.7076(8) 0.8283(8)
C26_2 C 0.8770(5) 0.6631(11) 0.8072(10)
H13_2 H 0.8980 0.6797 0.8408
H14_2 H 0.8848 0.6904 0.7646
H15_2 H 0.8749 0.5922 0.8035
C27_2 C 0.7944(5) 0.7025(10) 0.7836(7)
H16_2 H 0.7747 0.6569 0.8024
H17_2 H 0.8020 0.6802 0.7396
H18_2 H 0.7819 0.7671 0.7802
O14_2 O 0.95270(15) 0.6054(4) 0.9511(3)
O17_2 O 0.84560(15) 0.5551(4) 0.9837(3)
C2_2 C 0.86171(19) 0.9207(4) 0.1063(4)
C5_2 C 0.8434(2) 0.8205(4) 0.1163(4)
C13_2 C 0.9044(2) 0.9287(5) 0.0974(4)
H6_2 H 0.9206 0.8716 0.0929
C14_2 C 0.72101(18) 0.9845(4) 0.0627(3)
C18_2 C 0.7648(2) 0.9788(5) 0.0605(4)
H8_2 H 0.7768 0.9528 0.0220
C20_2 C 0.6933(2) 0.9446(5) 0.0083(3)
O6_2 O 0.65440(15) 0.9449(4) 0.0163(3)
O9_2 O 0.81082(16) 0.8060(3) 0.1462(3)
O13_2 O 0.76833(15) 0.5814(4) 0.2064(3)
O15_2 O 0.82867(15) 0.6087(4) 0.2603(3)
O16_2 O 0.78906(16) 0.5831(4) 0.0458(3)
O5_2 O 0.71094(16) 0.9169(4) 0.9542(3)
Cd5_2 Cd 0.67482(2) 0.88013(3) 0.85994(2)
Cd8_2 Cd 0.60359(2) 0.83563(4) 0.98999(3)
Cd2_3 Cd 0.60359(2) 0.16437(4) 0.48999(3)
O8_3 O 0.58822(16) 0.0636(3) 0.3972(3)
O11_3 O 0.6315(2) 0.2523(6) 0.5780(4)
C24_3 C 0.7085(3) 0.2854(9) 0.5893(7)
H10_3 H 0.7135 0.3491 0.6098
H11_3 H 0.7060 0.2930 0.5413
H12_3 H 0.7316 0.2420 0.6002
C25_3 C 0.6694(6) 0.2429(9) 0.6150(9)
N1_3 N 0.6670(4) 0.2076(8) 0.6717(8)
C26_3 C 0.6230(5) 0.1631(11) 0.6928(10)
H13_3 H 0.6020 0.1797 0.6592
H14_3 H 0.6152 0.1904 0.7354
H15_3 H 0.6251 0.0922 0.6965
C27_3 C 0.7056(5) 0.2025(10) 0.7164(7)
H16_3 H 0.7253 0.1569 0.6976
H17_3 H 0.6980 0.1802 0.7604
H18_3 H 0.7181 0.2671 0.7198
O14_3 O 0.54730(15) 0.1054(4) 0.5489(3)
O17_3 O 0.65440(15) 0.0551(4) 0.5163(3)
O18_3 O 0.54019(15) 0.2499(4) 0.4992(3)
O19_3 O 0.63569(15) 0.2441(3) 0.4060(3)
O1_3 O 0.64116(15) 0.9712(4) 0.3610(3)
C1_3 C 0.59886(19) 0.7963(4) 0.3933(4)
H1_3 H 0.6261 0.7926 0.3778
C2_3 C 0.63829(19) 0.4207(4) 0.3937(4)
C3_3 C 0.58068(19) 0.8886(4) 0.3992(3)
C4_3 C 0.59862(19) 0.6077(4) 0.4039(4)
C5_3 C 0.6566(2) 0.3205(4) 0.3837(4)
C6_3 C 0.57855(19) 0.7085(5) 0.4094(4)
C7_3 C 0.5762(2) 0.5221(5) 0.4048(4)
H2_3 H 0.5471 0.5255 0.4070
C8_3 C 0.64244(18) 0.6000(4) 0.3977(4)
H3_3 H 0.6585 0.6577 0.3979
C9_3 C 0.53781(19) 0.7176(5) 0.4345(4)
H4_3 H 0.5235 0.6609 0.4475
C10_3 C 0.66231(18) 0.5096(4) 0.3912(3)
C11_3 C 0.5407(2) 0.8959(5) 0.4236(4)
H5_3 H 0.5285 0.9579 0.4291
C12_3 C 0.5184(2) 0.8103(5) 0.4402(4)
C13_3 C 0.5956(2) 0.4287(5) 0.4026(4)
H6_3 H 0.5794 0.3716 0.4071
C14_3 C 0.77899(18) 0.4845(4) 0.4373(3)
C15_3 C 0.79642(19) 0.5217(5) 0.3780(3)
H7_3 H 0.8254 0.5263 0.3747
C16_3 C 0.77067(19) 0.5519(4) 0.3240(3)
C17_3 C 0.70933(18) 0.5095(4) 0.3881(3)
C18_3 C 0.7352(2) 0.4788(5) 0.4395(4)
H8_3 H 0.7232 0.4528 0.4780
C19_3 C 0.72771(18) 0.5457(4) 0.3296(3)
H9_3 H 0.7105 0.5661 0.2937
C20_3 C 0.8067(2) 0.4446(5) 0.4917(3)
C21_3 C 0.7905(2) 0.5833(5) 0.2593(3)
C22_3 C 0.4743(2) 0.8181(5) 0.4648(4)
O3_3 O 0.45270(15) 0.8946(4) 0.4511(3)
O5_3 O 0.78906(16) 0.4169(4) 0.5458(3)
O6_3 O 0.84560(15) 0.4449(4) 0.4837(3)
O7_3 O 0.45981(15) 0.7501(4) 0.5008(3)
C23_3 C 0.6053(2) 0.9806(5) 0.3847(4)
O9_3 O 0.68918(16) 0.3060(3) 0.3538(3)
Cd5_3 Cd 0.82518(2) 0.38013(3) 0.64006(2)
O16_3 O 0.71094(16) 0.0831(4) 0.4542(3)
Cd2_4 Cd 0.39641(2) 0.16437(4) 0.01001(3)
O8_4 O 0.41178(16) 0.0636(3) 0.1028(3)
O18_4 O 0.45981(15) 0.2499(4) 0.0008(3)
O19_4 O 0.36431(15) 0.2441(3) 0.0940(3)
O11_4 O 0.3685(2) 0.2523(6) 0.9220(4)
C24_4 C 0.2915(3) 0.2854(9) 0.9107(7)
H10_4 H 0.2865 0.3491 0.8902
H11_4 H 0.2940 0.2930 0.9587
H12_4 H 0.2684 0.2420 0.8998
C25_4 C 0.3306(6) 0.2429(9) 0.8850(9)
N1_4 N 0.3330(4) 0.2076(8) 0.8283(8)
C26_4 C 0.3770(5) 0.1631(11) 0.8072(10)
H13_4 H 0.3980 0.1797 0.8408
H14_4 H 0.3848 0.1904 0.7646
H15_4 H 0.3749 0.0922 0.8035
C27_4 C 0.2944(5) 0.2025(10) 0.7836(7)
H16_4 H 0.2747 0.1569 0.8024
H17_4 H 0.3020 0.1802 0.7396
H18_4 H 0.2819 0.2671 0.7802
O14_4 O 0.45270(15) 0.1054(4) 0.9511(3)
O17_4 O 0.34560(15) 0.0551(4) 0.9837(3)
O1_4 O 0.35884(15) 0.9712(4) 0.1390(3)
C1_4 C 0.40114(19) 0.7963(4) 0.1067(4)
H1_4 H 0.3739 0.7926 0.1222
C2_4 C 0.36171(19) 0.4207(4) 0.1063(4)
C3_4 C 0.41932(19) 0.8886(4) 0.1008(3)
C4_4 C 0.40138(19) 0.6077(4) 0.0961(4)
C5_4 C 0.3434(2) 0.3205(4) 0.1163(4)
C6_4 C 0.42145(19) 0.7085(5) 0.0906(4)
C7_4 C 0.4238(2) 0.5221(5) 0.0952(4)
H2_4 H 0.4529 0.5255 0.0930
C8_4 C 0.35756(18) 0.6000(4) 0.1023(4)
H3_4 H 0.3415 0.6577 0.1021
C9_4 C 0.46219(19) 0.7176(5) 0.0655(4)
H4_4 H 0.4765 0.6609 0.0525
C10_4 C 0.33769(18) 0.5096(4) 0.1088(3)
C11_4 C 0.4593(2) 0.8959(5) 0.0764(4)
H5_4 H 0.4715 0.9579 0.0709
C12_4 C 0.4816(2) 0.8103(5) 0.0598(4)
C13_4 C 0.4044(2) 0.4287(5) 0.0974(4)
H6_4 H 0.4206 0.3716 0.0929
C14_4 C 0.22101(18) 0.4845(4) 0.0627(3)
C15_4 C 0.20358(19) 0.5217(5) 0.1220(3)
H7_4 H 0.1746 0.5263 0.1253
C16_4 C 0.22933(19) 0.5519(4) 0.1760(3)
C17_4 C 0.29067(18) 0.5095(4) 0.1119(3)
C18_4 C 0.2648(2) 0.4788(5) 0.0605(4)
H8_4 H 0.2768 0.4528 0.0220
C19_4 C 0.27229(18) 0.5457(4) 0.1704(3)
H9_4 H 0.2895 0.5661 0.2063
C20_4 C 0.1933(2) 0.4446(5) 0.0083(3)
C21_4 C 0.2095(2) 0.5833(5) 0.2407(3)
C22_4 C 0.5257(2) 0.8181(5) 0.0352(4)
O3_4 O 0.54730(15) 0.8946(4) 0.0489(3)
O6_4 O 0.15440(15) 0.4449(4) 0.0163(3)
C23_4 C 0.3947(2) 0.9806(5) 0.1153(4)
O9_4 O 0.31082(16) 0.3060(3) 0.1462(3)
O16_4 O 0.28906(16) 0.0831(4) 0.0458(3)
O5_4 O 0.21094(16) 0.4169(4) 0.9542(3)
O7_4 O 0.54019(15) 0.7501(4) 0.9992(3)
Cd5_4 Cd 0.17482(2) 0.38013(3) 0.85994(2)
C22_5 C 0.0257(2) 0.6819(5) 0.5352(4)
C2_5 C 0.86171(19) 0.0793(4) 0.6063(4)
C5_5 C 0.8434(2) 0.1795(4) 0.6163(4)
C13_5 C 0.9044(2) 0.0713(5) 0.5974(4)
H6_5 H 0.9206 0.1284 0.5929
C14_5 C 0.72101(18) 0.0155(4) 0.5627(3)
C18_5 C 0.7648(2) 0.0212(5) 0.5605(4)
H8_5 H 0.7768 0.0472 0.5220
C20_5 C 0.6933(2) 0.0554(5) 0.5083(3)
O9_5 O 0.81082(16) 0.1940(3) 0.6462(3)
O10 O 0.86431(15) 0.2559(3) 0.5940(3)
O12 O 0.85884(15) 0.5288(4) 0.6390(3)
O13_3 O 0.76833(15) 0.4186(4) 0.7064(3)
O15_3 O 0.82867(15) 0.3913(4) 0.7603(3)
C1_5 C 0.90114(19) 0.7037(4) 0.6067(4)
H1_5 H 0.8739 0.7074 0.6222
C3_5 C 0.91932(19) 0.6114(4) 0.6008(3)
C4_5 C 0.90138(19) 0.8923(4) 0.5961(4)
C6_5 C 0.92145(19) 0.7915(5) 0.5906(4)
C7_5 C 0.9238(2) 0.9779(5) 0.5952(4)
H2_5 H 0.9529 0.9745 0.5930
C8_5 C 0.85756(18) 0.9000(4) 0.6023(4)
H3_5 H 0.8415 0.8423 0.6021
C9_5 C 0.96219(19) 0.7824(5) 0.5655(4)
H4_5 H 0.9765 0.8391 0.5525
C10_5 C 0.83769(18) 0.9904(4) 0.6088(3)
C11_5 C 0.9593(2) 0.6041(5) 0.5764(4)
H5_5 H 0.9715 0.5421 0.5709
C12_5 C 0.9816(2) 0.6897(5) 0.5598(4)
C15_5 C 0.70358(19) 0.9783(5) 0.6220(3)
H7_5 H 0.6746 0.9737 0.6253
C16_5 C 0.72933(19) 0.9481(4) 0.6760(3)
C17_5 C 0.79067(18) 0.9905(4) 0.6119(3)
C19_5 C 0.77229(18) 0.9543(4) 0.6704(3)
H9_5 H 0.7895 0.9339 0.7063
C21_5 C 0.7095(2) 0.9167(5) 0.7407(3)
O2_3 O 0.73167(15) 0.9186(4) 0.7936(3)
O4_3 O 0.67133(15) 0.8913(4) 0.7397(3)
C23_5 C 0.8947(2) 0.5194(5) 0.6153(4)
O8_5 O 0.91178(16) 0.4364(3) 0.6028(3)
O11_5 O 0.8685(2) 0.2477(6) 0.4220(4)
C24_5 C 0.7915(3) 0.2146(9) 0.4107(7)
H10_5 H 0.7865 0.1509 0.3902
H11_5 H 0.7940 0.2070 0.4587
H12_5 H 0.7684 0.2580 0.3998
C25_5 C 0.8306(6) 0.2571(9) 0.3850(9)
N1_5 N 0.8330(4) 0.2924(8) 0.3283(8)
C26_5 C 0.8770(5) 0.3369(11) 0.3072(10)
H13_5 H 0.8980 0.3203 0.3408
H14_5 H 0.8848 0.3096 0.2646
H15_5 H 0.8749 0.4078 0.3035
C27_5 C 0.7944(5) 0.2975(10) 0.2836(7)
H16_5 H 0.7747 0.3431 0.3024
H17_5 H 0.8020 0.3198 0.2396
H18_5 H 0.7819 0.2329 0.2802
C2_6 C 0.13829(19) 0.0793(4) 0.8937(4)
C5_6 C 0.1566(2) 0.1795(4) 0.8837(4)
C13_6 C 0.0956(2) 0.0713(5) 0.9026(4)
H6_6 H 0.0794 0.1284 0.9071
C14_6 C 0.27899(18) 0.0155(4) 0.9373(3)
C18_6 C 0.2352(2) 0.0212(5) 0.9395(4)
H8_6 H 0.2232 0.0472 0.9780
C20_6 C 0.3067(2) 0.0554(5) 0.9917(3)
O9_6 O 0.18918(16) 0.1940(3) 0.8538(3)
O10_2 O 0.13569(15) 0.2559(3) 0.9060(3)
O12_2 O 0.14116(15) 0.5288(4) 0.8610(3)
O13_4 O 0.23167(15) 0.4186(4) 0.7936(3)
O15_4 O 0.17133(15) 0.3913(4) 0.7397(3)
O11_6 O 0.1315(2) 0.2477(6) 0.0780(4)
C24_6 C 0.2085(3) 0.2146(9) 0.0893(7)
H10_6 H 0.2135 0.1509 0.1098
H11_6 H 0.2060 0.2070 0.0413
H12_6 H 0.2316 0.2580 0.1002
C25_6 C 0.1694(6) 0.2571(9) 0.1150(9)
N1_6 N 0.1670(4) 0.2924(8) 0.1717(8)
C26_6 C 0.1230(5) 0.3369(11) 0.1928(10)
H13_6 H 0.1020 0.3203 0.1592
H14_6 H 0.1152 0.3096 0.2354
H15_6 H 0.1251 0.4078 0.1965
C27_6 C 0.2056(5) 0.2975(10) 0.2164(7)
H16_6 H 0.2253 0.3431 0.1976
H17_6 H 0.1980 0.3198 0.2604
H18_6 H 0.2181 0.2329 0.2198
C1_6 C 0.09886(19) 0.7037(4) 0.8933(4)
H1_6 H 0.1261 0.7074 0.8778
C3_6 C 0.08068(19) 0.6114(4) 0.8992(3)
C4_6 C 0.09862(19) 0.8923(4) 0.9039(4)
C6_6 C 0.07855(19) 0.7915(5) 0.9094(4)
C7_6 C 0.0762(2) 0.9779(5) 0.9048(4)
H2_6 H 0.0471 0.9745 0.9070
C8_6 C 0.14244(18) 0.9000(4) 0.8977(4)
H3_6 H 0.1585 0.8423 0.8979
C9_6 C 0.03781(19) 0.7824(5) 0.9345(4)
H4_6 H 0.0235 0.8391 0.9475
C10_6 C 0.16231(18) 0.9904(4) 0.8912(3)
C11_6 C 0.0407(2) 0.6041(5) 0.9236(4)
H5_6 H 0.0285 0.5421 0.9291
C12_6 C 0.0184(2) 0.6897(5) 0.9402(4)
C15_6 C 0.29642(19) 0.9783(5) 0.8780(3)
H7_6 H 0.3254 0.9737 0.8747
C16_6 C 0.27067(19) 0.9481(4) 0.8240(3)
C17_6 C 0.20933(18) 0.9905(4) 0.8881(3)
C19_6 C 0.22771(18) 0.9543(4) 0.8296(3)
H9_6 H 0.2105 0.9339 0.7937
C21_6 C 0.2905(2) 0.9167(5) 0.7593(3)
O2_4 O 0.26833(15) 0.9186(4) 0.7064(3)
O4_4 O 0.32867(15) 0.8913(4) 0.7603(3)
C23_6 C 0.1053(2) 0.5194(5) 0.8847(4)
O8_6 O 0.08822(16) 0.4364(3) 0.8972(3)
C22_6 C 0.9743(2) 0.6819(5) 0.9648(4)
O12_3 O 0.35884(15) 0.0288(4) 0.6390(3)
C1_7 C 0.40114(19) 0.2037(4) 0.6067(4)
H1_7 H 0.3739 0.2074 0.6222
C2_7 C 0.36171(19) 0.5793(4) 0.6063(4)
C3_7 C 0.41932(19) 0.1114(4) 0.6008(3)
C4_7 C 0.40138(19) 0.3923(4) 0.5961(4)
C5_7 C 0.3434(2) 0.6795(4) 0.6163(4)
C6_7 C 0.42145(19) 0.2915(5) 0.5906(4)
C7_7 C 0.4238(2) 0.4779(5) 0.5952(4)
H2_7 H 0.4529 0.4745 0.5930
C8_7 C 0.35756(18) 0.4000(4) 0.6023(4)
H3_7 H 0.3415 0.3423 0.6021
C9_7 C 0.46219(19) 0.2824(5) 0.5655(4)
H4_7 H 0.4765 0.3391 0.5525
C10_7 C 0.33769(18) 0.4904(4) 0.6088(3)
C11_7 C 0.4593(2) 0.1041(5) 0.5764(4)
H5_7 H 0.4715 0.0421 0.5709
C12_7 C 0.4816(2) 0.1897(5) 0.5598(4)
C13_7 C 0.4044(2) 0.5713(5) 0.5974(4)
H6_7 H 0.4206 0.6284 0.5929
C14_7 C 0.22101(18) 0.5155(4) 0.5627(3)
C15_7 C 0.20358(19) 0.4783(5) 0.6220(3)
H7_7 H 0.1746 0.4737 0.6253
C16_7 C 0.22933(19) 0.4481(4) 0.6760(3)
C17_7 C 0.29067(18) 0.4905(4) 0.6119(3)
C18_7 C 0.2648(2) 0.5212(5) 0.5605(4)
H8_7 H 0.2768 0.5472 0.5220
C19_7 C 0.27229(18) 0.4543(4) 0.6704(3)
H9_7 H 0.2895 0.4339 0.7063
C20_7 C 0.1933(2) 0.5554(5) 0.5083(3)
C21_7 C 0.2095(2) 0.4167(5) 0.7407(3)
C22_7 C 0.5257(2) 0.1819(5) 0.5352(4)
C23_7 C 0.3947(2) 0.0194(5) 0.6153(4)
O9_7 O 0.31082(16) 0.6940(3) 0.6462(3)
O10_3 O 0.36431(15) 0.7559(3) 0.5940(3)
O8_7 O 0.41178(16) 0.9364(3) 0.6028(3)
O11_7 O 0.3685(2) 0.7477(6) 0.4220(4)
C24_7 C 0.2915(3) 0.7146(9) 0.4107(7)
H10_7 H 0.2865 0.6509 0.3902
H11_7 H 0.2940 0.7070 0.4587
H12_7 H 0.2684 0.7580 0.3998
C25_7 C 0.3306(6) 0.7571(9) 0.3850(9)
N1_7 N 0.3330(4) 0.7924(8) 0.3283(8)
C26_7 C 0.3770(5) 0.8369(11) 0.3072(10)
H13_7 H 0.3980 0.8203 0.3408
H14_7 H 0.3848 0.8096 0.2646
H15_7 H 0.3749 0.9078 0.3035
C27_7 C 0.2944(5) 0.7975(10) 0.2836(7)
H16_7 H 0.2747 0.8431 0.3024
H17_7 H 0.3020 0.8198 0.2396
H18_7 H 0.2819 0.7329 0.2802
O12_4 O 0.64116(15) 0.0288(4) 0.8610(3)
C1_8 C 0.59886(19) 0.2037(4) 0.8933(4)
H1_8 H 0.6261 0.2074 0.8778
C2_8 C 0.63829(19) 0.5793(4) 0.8937(4)
C3_8 C 0.58068(19) 0.1114(4) 0.8992(3)
C4_8 C 0.59862(19) 0.3923(4) 0.9039(4)
C5_8 C 0.6566(2) 0.6795(4) 0.8837(4)
C6_8 C 0.57855(19) 0.2915(5) 0.9094(4)
C7_8 C 0.5762(2) 0.4779(5) 0.9048(4)
H2_8 H 0.5471 0.4745 0.9070
C8_8 C 0.64244(18) 0.4000(4) 0.8977(4)
H3_8 H 0.6585 0.3423 0.8979
C9_8 C 0.53781(19) 0.2824(5) 0.9345(4)
H4_8 H 0.5235 0.3391 0.9475
C10_8 C 0.66231(18) 0.4904(4) 0.8912(3)
C11_8 C 0.5407(2) 0.1041(5) 0.9236(4)
H5_8 H 0.5285 0.0421 0.9291
C12_8 C 0.5184(2) 0.1897(5) 0.9402(4)
C13_8 C 0.5956(2) 0.5713(5) 0.9026(4)
H6_8 H 0.5794 0.6284 0.9071
C14_8 C 0.77899(18) 0.5155(4) 0.9373(3)
C15_8 C 0.79642(19) 0.4783(5) 0.8780(3)
H7_8 H 0.8254 0.4737 0.8747
C16_8 C 0.77067(19) 0.4481(4) 0.8240(3)
C17_8 C 0.70933(18) 0.4905(4) 0.8881(3)
C18_8 C 0.7352(2) 0.5212(5) 0.9395(4)
H8_8 H 0.7232 0.5472 0.9780
C19_8 C 0.72771(18) 0.4543(4) 0.8296(3)
H9_8 H 0.7105 0.4339 0.7937
C20_8 C 0.8067(2) 0.5554(5) 0.9917(3)
C21_8 C 0.7905(2) 0.4167(5) 0.7593(3)
C22_8 C 0.4743(2) 0.1819(5) 0.9648(4)
C23_8 C 0.6053(2) 0.0194(5) 0.8847(4)
O9_8 O 0.68918(16) 0.6940(3) 0.8538(3)
O10_4 O 0.63569(15) 0.7559(3) 0.9060(3)
O11_8 O 0.6315(2) 0.7477(6) 0.0780(4)
C24_8 C 0.7085(3) 0.7146(9) 0.0893(7)
H10_8 H 0.7135 0.6509 0.1098
H11_8 H 0.7060 0.7070 0.0413
H12_8 H 0.7316 0.7580 0.1002
C25_8 C 0.6694(6) 0.7571(9) 0.1150(9)
N1_8 N 0.6670(4) 0.7924(8) 0.1717(8)
C26_8 C 0.6230(5) 0.8369(11) 0.1928(10)
H13_8 H 0.6020 0.8203 0.1592
H14_8 H 0.6152 0.8096 0.2354
H15_8 H 0.6251 0.9078 0.1965
C27_8 C 0.7056(5) 0.7975(10) 0.2164(7)
H16_8 H 0.7253 0.8431 0.1976
H17_8 H 0.6980 0.8198 0.2604
H18_8 H 0.7181 0.7329 0.2198
O8_8 O 0.58822(16) 0.9364(3) 0.8972(3)
loop_
_geom_bond_atom_site_label_1
_geom_bond_atom_site_label_2
_geom_bond_site_symmetry_1
_geom_bond_site_symmetry_2
O1 C23 1_555 1_555
Cd2 O8 1_555 1_555
C1 H1 1_555 1_555
C3 C1 1_555 1_555
C4 C6 1_555 1_555
C6 C1 1_555 1_555
C7 C4 1_555 1_555
H2 C7 1_555 1_555
C8 C4 1_555 1_555
H3 C8 1_555 1_555
C9 C6 1_555 1_555
H4 C9 1_555 1_555
C11 C3 1_555 1_555
H5 C11 1_555 1_555
C12 C9 1_555 1_555
C15 H7 1_555 1_555
C16 C15 1_555 1_555
C17 C10 1_555 1_555
C19 C16 1_555 1_555
H9 C19 1_555 1_555
C21 C16 1_555 1_555
O2 C21 1_555 1_555
O4 C21 1_555 1_555
C23 C3 1_555 1_555
O8 C23 1_555 1_555
O11 Cd2 1_555 1_555
C24 H10 1_555 1_555
H11 C24 1_555 1_555
H12 C24 1_555 1_555
C25 O11 1_555 1_555
N1 C25 1_555 1_555
C26 N1 1_555 1_555
H13 C26 1_555 1_555
H14 C26 1_555 1_555
H15 C26 1_555 1_555
C27 N1 1_555 1_555
H16 C27 1_555 1_555
H17 C27 1_555 1_555
H18 C27 1_555 1_555
Cd3 O1 1_555 1_555
Cd4 O2 1_555 1_555
O14 Cd2 1_555 1_555
O17 Cd2 1_555 1_555
O18 Cd2 1_555 1_555
O19 Cd2 1_555 1_555
C8 C10 1_555 1_555
C11 C12 1_555 1_555
C17 C19 1_555 1_555
O4 Cd4 1_555 1_555
C24 C25 1_555 1_555
Cd3 O19 1_555 1_555
Cd3 O9 1_555 1_555
C2 C5 1_555 1_555
C5 O9 1_555 1_555
C13 C2 1_555 1_555
H6 C13 1_555 1_555
C18 C14 1_555 1_555
H8 C18 1_555 1_555
C20 C14 1_555 1_555
O5 C20 1_555 1_555
O6 C20 1_555 1_555
Cd5 O5 1_555 1_555
Cd8 O6 1_555 1_555
O13 Cd3 1_555 1_555
O15 Cd3 1_555 1_555
O16 Cd3 1_555 1_555
C5 O19 1_555 1_555
O3 C22 1_555 1_555
O7 C22 1_555 1_555
Cd7 O3 1_555 1_555
O7 Cd7 1_555 1_555
O3_2 C22_2 1_555 1_555
O7_2 Cd7_2 1_555 1_555
O1_2 C23_2 1_555 1_555
Cd2_2 O8_2 1_555 1_555
C1_2 H1_2 1_555 1_555
C3_2 C1_2 1_555 1_555
C4_2 C6_2 1_555 1_555
C6_2 C1_2 1_555 1_555
C7_2 C4_2 1_555 1_555
H2_2 C7_2 1_555 1_555
C8_2 C4_2 1_555 1_555
H3_2 C8_2 1_555 1_555
C9_2 C6_2 1_555 1_555
H4_2 C9_2 1_555 1_555
C11_2 C3_2 1_555 1_555
H5_2 C11_2 1_555 1_555
C12_2 C9_2 1_555 1_555
C15_2 H7_2 1_555 1_555
C16_2 C15_2 1_555 1_555
C17_2 C10_2 1_555 1_555
C19_2 C16_2 1_555 1_555
H9_2 C19_2 1_555 1_555
C21_2 C16_2 1_555 1_555
O2_2 C21_2 1_555 1_555
O4_2 C21_2 1_555 1_555
C23_2 C3_2 1_555 1_555
O8_2 C23_2 1_555 1_555
Cd3_2 O1_2 1_555 1_555
Cd4_2 O2_2 1_555 1_555
O18_2 Cd2_2 1_555 1_555
O19_2 Cd2_2 1_555 1_555
C8_2 C10_2 1_555 1_555
C11_2 C12_2 1_555 1_555
C17_2 C19_2 1_555 1_555
O4_2 Cd4_2 1_555 1_555
Cd3_2 O19_2 1_555 1_555
C24_2 H10_2 1_555 1_555
H11_2 C24_2 1_555 1_555
H12_2 C24_2 1_555 1_555
C25_2 O11_2 1_555 1_555
N1_2 C25_2 1_555 1_555
C26_2 N1_2 1_555 1_555
H13_2 C26_2 1_555 1_555
H14_2 C26_2 1_555 1_555
H15_2 C26_2 1_555 1_555
C27_2 N1_2 1_555 1_555
H16_2 C27_2 1_555 1_555
H17_2 C27_2 1_555 1_555
H18_2 C27_2 1_555 1_555
C24_2 C25_2 1_555 1_555
Cd3_2 O9_2 1_555 1_555
C2_2 C5_2 1_555 1_555
C5_2 O9_2 1_555 1_555
C13_2 C2_2 1_555 1_555
H6_2 C13_2 1_555 1_555
C18_2 C14_2 1_555 1_555
H8_2 C18_2 1_555 1_555
C20_2 C14_2 1_555 1_555
O6_2 C20_2 1_555 1_555
O13_2 Cd3_2 1_555 1_555
O15_2 Cd3_2 1_555 1_555
O16_2 Cd3_2 1_555 1_555
C5_2 O19_2 1_555 1_555
Cd5_2 O5_2 1_555 1_555
Cd2_3 O8_3 1_555 1_555
O11_3 Cd2_3 1_555 1_555
C24_3 H10_3 1_555 1_555
H11_3 C24_3 1_555 1_555
H12_3 C24_3 1_555 1_555
C25_3 O11_3 1_555 1_555
N1_3 C25_3 1_555 1_555
C26_3 N1_3 1_555 1_555
H13_3 C26_3 1_555 1_555
H14_3 C26_3 1_555 1_555
H15_3 C26_3 1_555 1_555
C27_3 N1_3 1_555 1_555
H16_3 C27_3 1_555 1_555
H17_3 C27_3 1_555 1_555
H18_3 C27_3 1_555 1_555
O14_3 Cd2_3 1_555 1_555
O17_3 Cd2_3 1_555 1_555
O18_3 Cd2_3 1_555 1_555
O19_3 Cd2_3 1_555 1_555
C24_3 C25_3 1_555 1_555
Cd4_2 O19_3 1_555 1_555
O1_3 C23_3 1_555 1_555
Cd4_2 O9_3 1_555 1_555
C1_3 H1_3 1_555 1_555
C2_3 C5_3 1_555 1_555
C3_3 C1_3 1_555 1_555
C4_3 C6_3 1_555 1_555
C5_3 O9_3 1_555 1_555
C6_3 C1_3 1_555 1_555
C7_3 C4_3 1_555 1_555
H2_3 C7_3 1_555 1_555
C8_3 C4_3 1_555 1_555
H3_3 C8_3 1_555 1_555
C9_3 C6_3 1_555 1_555
H4_3 C9_3 1_555 1_555
C10_3 C2_3 1_555 1_555
C11_3 C3_3 1_555 1_555
H5_3 C11_3 1_555 1_555
C12_3 C9_3 1_555 1_555
C13_3 C2_3 1_555 1_555
H6_3 C13_3 1_555 1_555
C14_3 C15_3 1_555 1_555
C15_3 H7_3 1_555 1_555
C16_3 C15_3 1_555 1_555
C17_3 C10_3 1_555 1_555
C18_3 C14_3 1_555 1_555
H8_3 C18_3 1_555 1_555
C19_3 C16_3 1_555 1_555
H9_3 C19_3 1_555 1_555
C20_3 C14_3 1_555 1_555
C21_3 C16_3 1_555 1_555
C22_3 C12_3 1_555 1_555
O13_2 C21_3 1_555 1_555
O3_3 C22_3 1_555 1_555
O15_2 C21_3 1_555 1_555
O5_3 C20_3 1_555 1_555
O6_3 C20_3 1_555 1_555
O7_3 C22_3 1_555 1_555
C23_3 C3_3 1_555 1_555
Cd5_3 O5_3 1_555 1_555
Cd8 O3_3 1_555 1_555
Cd7 O6_3 1_555 1_555
O16_3 Cd4_2 1_555 1_555
C5_3 O19_3 1_555 1_555
C7_3 C13_3 1_555 1_555
C8_3 C10_3 1_555 1_555
C11_3 C12_3 1_555 1_555
C17_3 C18_3 1_555 1_555
C17_3 C19_3 1_555 1_555
O7_3 Cd8 1_555 1_555
Cd2_4 O8_4 1_555 1_555
O18_4 Cd2_4 1_555 1_555
O19_4 Cd2_4 1_555 1_555
Cd4 O19_4 1_555 1_555
C24_4 H10_4 1_555 1_555
H11_4 C24_4 1_555 1_555
H12_4 C24_4 1_555 1_555
C25_4 O11_4 1_555 1_555
N1_4 C25_4 1_555 1_555
C26_4 N1_4 1_555 1_555
H13_4 C26_4 1_555 1_555
H14_4 C26_4 1_555 1_555
H15_4 C26_4 1_555 1_555
C27_4 N1_4 1_555 1_555
H16_4 C27_4 1_555 1_555
H17_4 C27_4 1_555 1_555
H18_4 C27_4 1_555 1_555
C24_4 C25_4 1_555 1_555
O1_4 C23_4 1_555 1_555
Cd4 O9_4 1_555 1_555
C1_4 H1_4 1_555 1_555
C2_4 C5_4 1_555 1_555
C3_4 C1_4 1_555 1_555
C4_4 C6_4 1_555 1_555
C5_4 O9_4 1_555 1_555
C6_4 C1_4 1_555 1_555
C7_4 C4_4 1_555 1_555
H2_4 C7_4 1_555 1_555
C8_4 C4_4 1_555 1_555
H3_4 C8_4 1_555 1_555
C9_4 C6_4 1_555 1_555
H4_4 C9_4 1_555 1_555
C10_4 C2_4 1_555 1_555
C11_4 C3_4 1_555 1_555
H5_4 C11_4 1_555 1_555
C12_4 C9_4 1_555 1_555
C13_4 C2_4 1_555 1_555
H6_4 C13_4 1_555 1_555
C14_4 C15_4 1_555 1_555
C15_4 H7_4 1_555 1_555
C16_4 C15_4 1_555 1_555
C17_4 C10_4 1_555 1_555
C18_4 C14_4 1_555 1_555
H8_4 C18_4 1_555 1_555
C19_4 C16_4 1_555 1_555
H9_4 C19_4 1_555 1_555
C20_4 C14_4 1_555 1_555
C21_4 C16_4 1_555 1_555
C22_4 C12_4 1_555 1_555
O13 C21_4 1_555 1_555
O3_4 C22_4 1_555 1_555
O15 C21_4 1_555 1_555
O6_4 C20_4 1_555 1_555
C23_4 C3_4 1_555 1_555
O16_4 Cd4 1_555 1_555
C5_4 O19_4 1_555 1_555
C7_4 C13_4 1_555 1_555
C8_4 C10_4 1_555 1_555
C11_4 C12_4 1_555 1_555
C17_4 C18_4 1_555 1_555
C17_4 C19_4 1_555 1_555
Cd5_4 O5_4 1_555 1_555
O7_4 Cd8_2 1_555 1_555
O14 C22_5 1_555 1_555
O18 C22_5 1_555 1_555
Cd5_3 O9_5 1_555 1_555
C2_5 C5_5 1_555 1_555
C5_5 O9_5 1_555 1_555
C13_5 C2_5 1_555 1_555
H6_5 C13_5 1_555 1_555
C18_5 C14_5 1_555 1_555
H8_5 C18_5 1_555 1_555
C20_5 C14_5 1_555 1_555
O16_3 C20_5 1_555 1_555
O17_3 C20_5 1_555 1_555
O10 Cd5_3 1_555 1_555
O12 Cd5_3 1_555 1_555
Cd7 O10 1_555 1_555
O13_3 Cd5_3 1_555 1_555
O15_3 Cd5_3 1_555 1_555
C5_5 O10 1_555 1_555
O12 C23_5 1_555 1_555
Cd7 O8_5 1_555 1_555
C1_5 H1_5 1_555 1_555
C3_5 C1_5 1_555 1_555
C4_5 C6_5 1_555 1_555
C6_5 C1_5 1_555 1_555
C7_5 C4_5 1_555 1_555
H2_5 C7_5 1_555 1_555
C8_5 C4_5 1_555 1_555
H3_5 C8_5 1_555 1_555
C9_5 C6_5 1_555 1_555
H4_5 C9_5 1_555 1_555
C11_5 C3_5 1_555 1_555
H5_5 C11_5 1_555 1_555
C12_5 C9_5 1_555 1_555
C15_5 H7_5 1_555 1_555
C16_5 C15_5 1_555 1_555
C17_5 C10_5 1_555 1_555
C19_5 C16_5 1_555 1_555
H9_5 C19_5 1_555 1_555
C21_5 C16_5 1_555 1_555
O2_3 C21_5 1_555 1_555
O4_3 C21_5 1_555 1_555
C23_5 C3_5 1_555 1_555
O8_5 C23_5 1_555 1_555
O11_5 Cd7 1_555 1_555
C24_5 H10_5 1_555 1_555
H11_5 C24_5 1_555 1_555
H12_5 C24_5 1_555 1_555
C25_5 O11_5 1_555 1_555
N1_5 C25_5 1_555 1_555
C26_5 N1_5 1_555 1_555
H13_5 C26_5 1_555 1_555
H14_5 C26_5 1_555 1_555
H15_5 C26_5 1_555 1_555
C27_5 N1_5 1_555 1_555
H16_5 C27_5 1_555 1_555
H17_5 C27_5 1_555 1_555
H18_5 C27_5 1_555 1_555
Cd5_2 O2_3 1_555 1_555
C8_5 C10_5 1_555 1_555
C11_5 C12_5 1_555 1_555
C17_5 C19_5 1_555 1_555
O4_3 Cd5_2 1_555 1_555
C24_5 C25_5 1_555 1_555
Cd5_4 O9_6 1_555 1_555
C2_6 C5_6 1_555 1_555
C5_6 O9_6 1_555 1_555
C13_6 C2_6 1_555 1_555
H6_6 C13_6 1_555 1_555
C18_6 C14_6 1_555 1_555
H8_6 C18_6 1_555 1_555
C20_6 C14_6 1_555 1_555
O17_4 C20_6 1_555 1_555
O10_2 Cd5_4 1_555 1_555
O12_2 Cd5_4 1_555 1_555
Cd7_2 O10_2 1_555 1_555
O13_4 Cd5_4 1_555 1_555
O15_4 Cd5_4 1_555 1_555
C5_6 O10_2 1_555 1_555
C24_6 H10_6 1_555 1_555
H11_6 C24_6 1_555 1_555
H12_6 C24_6 1_555 1_555
C25_6 O11_6 1_555 1_555
N1_6 C25_6 1_555 1_555
C26_6 N1_6 1_555 1_555
H13_6 C26_6 1_555 1_555
H14_6 C26_6 1_555 1_555
H15_6 C26_6 1_555 1_555
C27_6 N1_6 1_555 1_555
H16_6 C27_6 1_555 1_555
H17_6 C27_6 1_555 1_555
H18_6 C27_6 1_555 1_555
C24_6 C25_6 1_555 1_555
O12_2 C23_6 1_555 1_555
Cd7_2 O8_6 1_555 1_555
C1_6 H1_6 1_555 1_555
C3_6 C1_6 1_555 1_555
C4_6 C6_6 1_555 1_555
C6_6 C1_6 1_555 1_555
C7_6 C4_6 1_555 1_555
H2_6 C7_6 1_555 1_555
C8_6 C4_6 1_555 1_555
H3_6 C8_6 1_555 1_555
C9_6 C6_6 1_555 1_555
H4_6 C9_6 1_555 1_555
C11_6 C3_6 1_555 1_555
H5_6 C11_6 1_555 1_555
C12_6 C9_6 1_555 1_555
C15_6 H7_6 1_555 1_555
C16_6 C15_6 1_555 1_555
C17_6 C10_6 1_555 1_555
C19_6 C16_6 1_555 1_555
H9_6 C19_6 1_555 1_555
C21_6 C16_6 1_555 1_555
O2_4 C21_6 1_555 1_555
O4_4 C21_6 1_555 1_555
C23_6 C3_6 1_555 1_555
O8_6 C23_6 1_555 1_555
Cd5 O2_4 1_555 1_555
C8_6 C10_6 1_555 1_555
C11_6 C12_6 1_555 1_555
C17_6 C19_6 1_555 1_555
O4_4 Cd5 1_555 1_555
O14_2 C22_6 1_555 1_555
O12_3 C23_7 1_555 1_555
Cd5 O9_7 1_555 1_555
C1_7 H1_7 1_555 1_555
C2_7 C5_7 1_555 1_555
C3_7 C1_7 1_555 1_555
C4_7 C6_7 1_555 1_555
C5_7 O9_7 1_555 1_555
C6_7 C1_7 1_555 1_555
C7_7 C4_7 1_555 1_555
H2_7 C7_7 1_555 1_555
C8_7 C4_7 1_555 1_555
H3_7 C8_7 1_555 1_555
C9_7 C6_7 1_555 1_555
H4_7 C9_7 1_555 1_555
C10_7 C2_7 1_555 1_555
C11_7 C3_7 1_555 1_555
H5_7 C11_7 1_555 1_555
C12_7 C9_7 1_555 1_555
C13_7 C2_7 1_555 1_555
H6_7 C13_7 1_555 1_555
C14_7 C15_7 1_555 1_555
C15_7 H7_7 1_555 1_555
C16_7 C15_7 1_555 1_555
C17_7 C10_7 1_555 1_555
C18_7 C14_7 1_555 1_555
H8_7 C18_7 1_555 1_555
C19_7 C16_7 1_555 1_555
H9_7 C19_7 1_555 1_555
C20_7 C14_7 1_555 1_555
C21_7 C16_7 1_555 1_555
C22_7 C12_7 1_555 1_555
O13_4 C21_7 1_555 1_555
O14_3 C22_7 1_555 1_555
O15_4 C21_7 1_555 1_555
O16 C20_7 1_555 1_555
O17 C20_7 1_555 1_555
O18_3 C22_7 1_555 1_555
C23_7 C3_7 1_555 1_555
O10_3 Cd5 1_555 1_555
Cd8 O10_3 1_555 1_555
C5_7 O10_3 1_555 1_555
C7_7 C13_7 1_555 1_555
C8_7 C10_7 1_555 1_555
C11_7 C12_7 1_555 1_555
C17_7 C18_7 1_555 1_555
C17_7 C19_7 1_555 1_555
Cd8 O8_7 1_555 1_555
O11_7 Cd8 1_555 1_555
C24_7 H10_7 1_555 1_555
H11_7 C24_7 1_555 1_555
H12_7 C24_7 1_555 1_555
C25_7 O11_7 1_555 1_555
N1_7 C25_7 1_555 1_555
C26_7 N1_7 1_555 1_555
H13_7 C26_7 1_555 1_555
H14_7 C26_7 1_555 1_555
H15_7 C26_7 1_555 1_555
C27_7 N1_7 1_555 1_555
H16_7 C27_7 1_555 1_555
H17_7 C27_7 1_555 1_555
H18_7 C27_7 1_555 1_555
C24_7 C25_7 1_555 1_555
O12_4 C23_8 1_555 1_555
Cd5_2 O9_8 1_555 1_555
C1_8 H1_8 1_555 1_555
C2_8 C5_8 1_555 1_555
C3_8 C1_8 1_555 1_555
C4_8 C6_8 1_555 1_555
C5_8 O9_8 1_555 1_555
C6_8 C1_8 1_555 1_555
C7_8 C4_8 1_555 1_555
H2_8 C7_8 1_555 1_555
C8_8 C4_8 1_555 1_555
H3_8 C8_8 1_555 1_555
C9_8 C6_8 1_555 1_555
H4_8 C9_8 1_555 1_555
C10_8 C2_8 1_555 1_555
C11_8 C3_8 1_555 1_555
H5_8 C11_8 1_555 1_555
C12_8 C9_8 1_555 1_555
C13_8 C2_8 1_555 1_555
H6_8 C13_8 1_555 1_555
C14_8 C15_8 1_555 1_555
C15_8 H7_8 1_555 1_555
C16_8 C15_8 1_555 1_555
C17_8 C10_8 1_555 1_555
C18_8 C14_8 1_555 1_555
H8_8 C18_8 1_555 1_555
C19_8 C16_8 1_555 1_555
H9_8 C19_8 1_555 1_555
C20_8 C14_8 1_555 1_555
C21_8 C16_8 1_555 1_555
C22_8 C12_8 1_555 1_555
O13_3 C21_8 1_555 1_555
O14_4 C22_8 1_555 1_555
O15_3 C21_8 1_555 1_555
O17_2 C20_8 1_555 1_555
C23_8 C3_8 1_555 1_555
O10_4 Cd5_2 1_555 1_555
Cd8_2 O10_4 1_555 1_555
C5_8 O10_4 1_555 1_555
C7_8 C13_8 1_555 1_555
C8_8 C10_8 1_555 1_555
C11_8 C12_8 1_555 1_555
C17_8 C18_8 1_555 1_555
C17_8 C19_8 1_555 1_555
C24_8 H10_8 1_555 1_555
H11_8 C24_8 1_555 1_555
H12_8 C24_8 1_555 1_555
C25_8 O11_8 1_555 1_555
N1_8 C25_8 1_555 1_555
C26_8 N1_8 1_555 1_555
H13_8 C26_8 1_555 1_555
H14_8 C26_8 1_555 1_555
H15_8 C26_8 1_555 1_555
C27_8 N1_8 1_555 1_555
H16_8 C27_8 1_555 1_555
H17_8 C27_8 1_555 1_555
H18_8 C27_8 1_555 1_555
C24_8 C25_8 1_555 1_555
Cd8_2 O8_8 1_555 1_555

#END
