
###############################################################################
#
# This file contains modified crystal structure data generated from the
# MOF subset of the Cambridge Structural Database (CSD) v543 
# hosted by the Cambridge Crystallographic Data Centre (CCDC).
#
# This work is licensed under the Creative Commons
# Attribution-NonCommercial-ShareAlike 4.0 International License.
# To view a copy of this license, visit
# http://creativecommons.org/licenses/by-nc-sa/4.0/
# or send a letter to
# Creative Commons, PO Box 1866, Mountain View, CA 94042, USA.
#
# CIF created using the CSD Python API on 29 September 2022
# The structure has been converted into the P1 space group
# The structure has a 3D framework
# The original CSD entry WEVYEE is in the hexagonal crystal system
# The framework has been calculated to contain at least 10.0% void space
# The void calculation uses a probe of radius 1.32A, grid spacing 0.4
# H atom positions have been added when not included in the experimental data
# Generated hydrogen atom positions removed from atoms on special positions
#
###############################################################################

data_WEVYEE
_chemical_formula_moiety         '(C108 H240 Al29 O105)n'
_symmetry_cell_setting           triclinic
_symmetry_space_group_name_H-M   'P 1'
_symmetry_Int_Tables_number      1
_space_group_name_Hall           'P 1'
loop_
_symmetry_equiv_pos_site_id
_symmetry_equiv_pos_as_xyz
1 x,y,z
_cell_length_a                   14.290(2)
_cell_length_b                   14.290(2)
_cell_length_c                   31.300(6)
_cell_angle_alpha                90
_cell_angle_beta                 90
_cell_angle_gamma                120
_cell_volume                     5535.28
loop_
_atom_site_label
_atom_site_type_symbol
_atom_site_fract_x
_atom_site_fract_y
_atom_site_fract_z
Al21 Al -0.0000 0.5000 -0.0000
Al23 Al 0.5000 0.5000 -0.0000
O2 O -0.0000 -0.0000 0.7500
O44 O 0.00717(18) 0.17137(18) 0.79319(8)
O46 O 0.04883(19) 0.4311(2) 0.96288(9)
C46 C 0.1318(3) 0.2635(5) 0.8485(2)
C47 C 0.0637(3) 0.2940(3) 0.86759(14)
C48 C 0.0938(3) 0.3561(3) 0.90578(12)
C49 C 0.1910(3) 0.3820(5) 0.9232(2)
H17 H 0.2105 0.4210 0.9493
C50 C 0.0985(2) 0.1970(5) 0.80846(17)
C51 C 0.0248(3) 0.3909(3) 0.92622(14)
O47 O 0.16420(25) 0.17137(18) 0.79319(8)
O48 O 0.43622(25) 0.37768(18) 0.90580(8)
O49 O 0.38227(28) 0.4311(2) 0.96288(9)
C52 C 0.2303(4) 0.2940(3) 0.86759(14)
H18 H 0.2775 0.2731 0.8549
C53 C 0.2623(4) 0.3561(3) 0.90578(12)
C54 C 0.3661(4) 0.3909(3) 0.92622(14)
Al16 Al 0.14792(14) 0.07396(10) 0.7500
Al17 Al -0.0000 0.5000 0.5000
Al21_2 Al -0.0000 0.5000 1.0000
Al23_2 Al 0.5000 0.5000 1.0000
Al28 Al 0.58466(17) 0.41534(7) 0.91659(5)
O63 O 0.00717(18) 0.17137(18) 0.70681(8)
O2_2 O -0.0000 1.0000 0.7500
O59 O 0.00717(18) 0.83580(25) 0.70681(8)
O61 O 0.00717(18) 0.83580(25) 0.79319(8)
Al19 Al 0.5000 0.0000 -0.0000
Al21_3 Al 1.0000 0.5000 -0.0000
Al1 Al 0.92604(10) 0.07396(10) 0.7500
Al2 Al 0.5000 -0.0000 0.5000
O2_3 O 1.0000 -0.0000 0.7500
O3 O 0.62232(18) 0.05854(18) 0.59420(8)
O5 O 0.8471(2) 0.1529(2) 0.7500
H1 H 0.7269 0.0044 0.6451
O19 O 0.43622(25) 0.05854(18) 0.59420(8)
H6 H 0.2775 0.0044 0.6451
O31 O 0.43622(25) 0.05854(18) 0.90580(8)
O33 O 0.3058(3) 0.1529(2) 0.7500
H10 H 0.2775 0.0044 0.8549
O42 O 0.62232(18) 0.05854(18) 0.90580(8)
H15 H 0.7269 0.0044 0.8549
O45 O 0.94146(18) 0.37768(18) 0.90580(8)
H16 H 0.9956 0.2731 0.8549
Al10 Al 0.58466(17) 0.16932(15) 0.58341(5)
O50 O 0.56724(34) 0.1345(3) 0.52524(10)
O51 O 0.53986(23) 0.26993(16) 0.57767(13)
O52 O 0.59436(44) 0.1887(4) 0.64497(13)
Al11 Al 0.58466(7) 0.41534(17) 0.58341(5)
O53 O 0.56726(15) 0.43276(34) 0.52524(10)
O54 O 0.73007(16) 0.46014(23) 0.57767(13)
O55 O 0.59434(18) 0.40564(44) 0.64497(13)
O56 O 0.73007(16) 0.26993(16) 0.57767(13)
Al12 Al 0.83068(15) 0.41534(7) 0.58341(5)
O57 O 0.8655(3) 0.43274(15) 0.52524(10)
O58 O 0.8113(4) 0.40566(18) 0.64497(13)
Al17_2 Al 1.0000 0.5000 0.5000
Al18 Al 0.5000 0.5000 0.5000
Al19_2 Al 0.5000 -0.0000 1.0000
Al21_4 Al 1.0000 0.5000 1.0000
Al24 Al 0.58466(7) 0.16932(15) 0.91659(5)
Al26 Al 0.83068(15) 0.41534(17) 0.91659(5)
O60 O 0.16420(25) 0.17137(18) 0.70681(8)
O65 O 0.94146(18) 0.56378(25) 0.59420(8)
O66 O 0.43622(25) 0.37768(18) 0.59420(8)
O73 O 0.94146(18) 0.37768(18) 0.59420(8)
O74 O 0.62232(18) 0.56378(25) 0.59420(8)
O76 O 0.61773(28) 0.04883(19) 0.46288(9)
O78 O 0.4311(2) 0.04883(19) 0.46288(9)
Al19_3 Al 0.5000 1.0000 -0.0000
Al2_2 Al 0.5000 1.0000 0.5000
Al3 Al 0.41534(7) 0.83068(15) 0.41659(5)
O1 O 0.82863(18) 0.99283(18) 0.70681(8)
O2_4 O 1.0000 1.0000 0.7500
O4 O 0.5689(2) 0.95117(19) 0.53712(9)
O6 O 0.43274(15) 0.8655(3) 0.47476(10)
O7 O 0.26993(16) 0.73007(16) 0.42233(13)
O8 O 0.40566(18) 0.8113(4) 0.35503(13)
C1 C 0.7365(5) 0.8682(3) 0.6515(2)
C2 C 0.7060(3) 0.9363(3) 0.63241(14)
C3 C 0.6439(3) 0.9062(3) 0.59422(12)
C4 C 0.6180(5) 0.8090(3) 0.5768(2)
H2 H 0.5790 0.7895 0.5507
C5 C 0.8030(5) 0.9015(2) 0.69154(17)
C6 C 0.6091(3) 0.9752(3) 0.57378(14)
O9 O 0.82863(18) 0.83580(25) 0.70681(8)
O11 O 0.5689(2) 0.61773(28) 0.53712(9)
C7 C 0.7060(3) 0.7697(4) 0.63241(14)
H3 H 0.7269 0.7225 0.6451
C8 C 0.6439(3) 0.7377(4) 0.59422(12)
C9 C 0.6091(3) 0.6339(4) 0.57378(14)
Al5 Al 0.16932(15) 0.58466(17) 0.41659(5)
O14 O 0.04883(19) 0.61773(28) 0.53712(9)
O15 O 0.1345(3) 0.56724(34) 0.47476(10)
O16 O 0.26993(16) 0.53986(23) 0.42233(13)
O17 O 0.1887(4) 0.59436(44) 0.35503(13)
C10 C 0.1318(3) 0.8683(6) 0.6515(2)
C11 C 0.0637(3) 0.7697(4) 0.63241(14)
C12 C 0.0938(3) 0.7377(4) 0.59422(12)
C13 C 0.1910(3) 0.8090(6) 0.5768(2)
H5 H 0.2105 0.7895 0.5507
C14 C 0.0985(2) 0.9015(5) 0.69154(17)
C15 C 0.0248(3) 0.6339(4) 0.57378(14)
O18 O 0.16420(25) 0.99283(18) 0.70681(8)
O20 O 0.38227(28) 0.95117(19) 0.53712(9)
C16 C 0.2303(4) 0.9363(3) 0.63241(14)
C17 C 0.2623(4) 0.9062(3) 0.59422(12)
C18 C 0.3661(4) 0.9752(3) 0.57378(14)
Al7 Al 0.41534(17) 0.58466(7) 0.41659(5)
O23 O 0.38227(28) 0.4311(2) 0.53712(9)
O24 O 0.43276(34) 0.56726(15) 0.47476(10)
O25 O 0.46014(23) 0.73007(16) 0.42233(13)
O26 O 0.40564(44) 0.59434(18) 0.35503(13)
C19 C 0.1317(6) 0.2635(5) 0.6515(2)
C20 C 0.2303(4) 0.2940(3) 0.63241(14)
H7 H 0.2775 0.2731 0.6451
C21 C 0.2623(4) 0.3561(3) 0.59422(12)
C22 C 0.1910(6) 0.3820(5) 0.5768(2)
H8 H 0.2105 0.4210 0.5507
C23 C 0.0985(5) 0.1970(5) 0.69154(17)
C24 C 0.3661(4) 0.3909(3) 0.57378(14)
O29 O 0.04883(19) 0.4311(2) 0.53712(9)
C25 C 0.0637(3) 0.2940(3) 0.63241(14)
C26 C 0.0938(3) 0.3561(3) 0.59422(12)
C27 C 0.0248(3) 0.3909(3) 0.57378(14)
O30 O 0.16420(25) 0.99283(18) 0.79319(8)
O32 O 0.38227(28) 0.95117(19) 0.96288(9)
C28 C 0.1317(6) 0.8682(3) 0.8485(2)
C29 C 0.2303(4) 0.9363(3) 0.86759(14)
C30 C 0.2623(4) 0.9062(3) 0.90578(12)
C31 C 0.1910(6) 0.8090(3) 0.9232(2)
H11 H 0.2105 0.7895 0.9493
C32 C 0.0985(5) 0.9015(2) 0.80846(17)
C33 C 0.3661(4) 0.9752(3) 0.92622(14)
O36 O 0.04883(19) 0.61773(28) 0.96288(9)
C34 C 0.0637(3) 0.7697(4) 0.86759(14)
C35 C 0.0938(3) 0.7377(4) 0.90578(12)
C36 C 0.0248(3) 0.6339(4) 0.92622(14)
Al9 Al 0.92604(10) 0.85208(14) 0.7500
O37 O 0.82863(18) 0.83580(25) 0.79319(8)
O38 O 0.62232(18) 0.56378(25) 0.90580(8)
O39 O 0.5689(2) 0.61773(28) 0.96288(9)
O40 O 0.8471(2) 0.6942(3) 0.7500
C37 C 0.7365(5) 0.8683(6) 0.8485(2)
C38 C 0.7060(3) 0.7697(4) 0.86759(14)
H13 H 0.7269 0.7225 0.8549
C39 C 0.6439(3) 0.7377(4) 0.90578(12)
C40 C 0.6180(5) 0.8090(6) 0.9232(2)
H14 H 0.5790 0.7895 0.9493
C41 C 0.8030(5) 0.9015(5) 0.80846(17)
C42 C 0.6091(3) 0.6339(4) 0.92622(14)
O41 O 0.82863(18) 0.99283(18) 0.79319(8)
O43 O 0.5689(2) 0.95117(19) 0.96288(9)
C43 C 0.7060(3) 0.9363(3) 0.86759(14)
C44 C 0.6439(3) 0.9062(3) 0.90578(12)
C45 C 0.6091(3) 0.9752(3) 0.92622(14)
Al19_4 Al 0.5000 1.0000 1.0000
O67 O 0.05854(18) 0.62232(18) 0.40580(8)
O68 O 0.56378(25) 0.94146(18) 0.40580(8)
O69 O 0.37768(18) 0.43622(25) 0.40580(8)
O70 O 0.37768(18) 0.94146(18) 0.40580(8)
O71 O 0.05854(18) 0.43622(25) 0.40580(8)
O72 O 0.56378(25) 0.62232(18) 0.40580(8)
O77 O 0.4311(2) 0.38227(28) 0.46288(9)
O80 O 0.61773(28) 0.5689(2) 0.46288(9)
H4 H 0.9956 0.7225 0.6451
H9 H 0.9956 0.2731 0.6451
O35 O 0.94146(18) 0.56378(25) 0.90580(8)
H12 H 0.9956 0.7225 0.8549
O75 O 0.95117(19) 0.5689(2) 0.46288(9)
O79 O 0.95117(19) 0.38227(28) 0.46288(9)
O13 O 0.05854(18) 0.43622(25) 0.09420(8)
H4_2 H 0.0044 0.2775 0.1451
O28 O 0.05854(18) 0.62232(18) 0.09420(8)
H9_2 H 0.0044 0.7269 0.1451
H12_2 H 0.0044 0.2775 0.3549
Al13 Al 0.07396(10) 0.92604(10) 0.2500
Al14 Al 0.07396(10) 0.14792(14) 0.2500
Al29 Al 0.16932(15) 0.58466(7) 0.08341(5)
O64 O 0.0000 0.0000 0.2500
O81 O 0.1345(3) 0.56726(15) 0.02524(10)
O64_2 O 0.0000 1.0000 0.2500
O1_2 O 0.17137(18) 0.00717(18) 0.20681(8)
O4_2 O 0.4311(2) 0.04883(19) 0.03712(9)
C1_2 C 0.2635(5) 0.1318(3) 0.1515(2)
C2_2 C 0.2940(3) 0.0637(3) 0.13241(14)
C3_2 C 0.3561(3) 0.0938(3) 0.09422(12)
C4_2 C 0.3820(5) 0.1910(3) 0.0768(2)
H2_2 H 0.4210 0.2105 0.0507
C5_2 C 0.1970(5) 0.0985(2) 0.19154(17)
C6_2 C 0.3909(3) 0.0248(3) 0.07378(14)
O9_2 O 0.17137(18) 0.16420(25) 0.20681(8)
O10 O 0.37768(18) 0.43622(25) 0.09420(8)
O11_2 O 0.4311(2) 0.38227(28) 0.03712(9)
C7_2 C 0.2940(3) 0.2303(4) 0.13241(14)
H3_2 H 0.2731 0.2775 0.1451
C8_2 C 0.3561(3) 0.2623(4) 0.09422(12)
C9_2 C 0.3909(3) 0.3661(4) 0.07378(14)
O12 O 0.99283(18) 0.16420(25) 0.20681(8)
O14_2 O 0.95117(19) 0.38227(28) 0.03712(9)
C10_2 C 0.8682(3) 0.1317(6) 0.1515(2)
C11_2 C 0.9363(3) 0.2303(4) 0.13241(14)
C12_2 C 0.9062(3) 0.2623(4) 0.09422(12)
C13_2 C 0.8090(3) 0.1910(6) 0.0768(2)
H5_2 H 0.7895 0.2105 0.0507
C14_2 C 0.9015(2) 0.0985(5) 0.19154(17)
C15_2 C 0.9752(3) 0.3661(4) 0.07378(14)
O18_2 O 0.83580(25) 0.00717(18) 0.20681(8)
O20_2 O 0.61773(28) 0.04883(19) 0.03712(9)
C16_2 C 0.7697(4) 0.0637(3) 0.13241(14)
C17_2 C 0.7377(4) 0.0938(3) 0.09422(12)
C18_2 C 0.6339(4) 0.0248(3) 0.07378(14)
O21 O 0.83580(25) 0.82863(18) 0.20681(8)
O22 O 0.56378(25) 0.62232(18) 0.09420(8)
O23_2 O 0.61773(28) 0.5689(2) 0.03712(9)
C19_2 C 0.8683(6) 0.7365(5) 0.1515(2)
C20_2 C 0.7697(4) 0.7060(3) 0.13241(14)
H7_2 H 0.7225 0.7269 0.1451
C21_2 C 0.7377(4) 0.6439(3) 0.09422(12)
C22_2 C 0.8090(6) 0.6180(5) 0.0768(2)
H8_2 H 0.7895 0.5790 0.0507
C23_2 C 0.9015(5) 0.8030(5) 0.19154(17)
C24_2 C 0.6339(4) 0.6091(3) 0.07378(14)
O27 O 0.99283(18) 0.82863(18) 0.20681(8)
O29_2 O 0.95117(19) 0.5689(2) 0.03712(9)
C25_2 C 0.9363(3) 0.7060(3) 0.13241(14)
C26_2 C 0.9062(3) 0.6439(3) 0.09422(12)
C27_2 C 0.9752(3) 0.6091(3) 0.07378(14)
O30_2 O 0.83580(25) 0.00717(18) 0.29319(8)
C28_2 C 0.8683(6) 0.1318(3) 0.3485(2)
C29_2 C 0.7697(4) 0.0637(3) 0.36759(14)
C30_2 C 0.7377(4) 0.0938(3) 0.40578(12)
C31_2 C 0.8090(6) 0.1910(3) 0.4232(2)
H11_2 H 0.7895 0.2105 0.4493
C32_2 C 0.9015(5) 0.0985(2) 0.30846(17)
C33_2 C 0.6339(4) 0.0248(3) 0.42622(14)
O34 O 0.99283(18) 0.16420(25) 0.29319(8)
C34_2 C 0.9363(3) 0.2303(4) 0.36759(14)
C35_2 C 0.9062(3) 0.2623(4) 0.40578(12)
C36_2 C 0.9752(3) 0.3661(4) 0.42622(14)
O37_2 O 0.17137(18) 0.16420(25) 0.29319(8)
O40_2 O 0.1529(2) 0.3058(3) 0.2500
C37_2 C 0.2635(5) 0.1317(6) 0.3485(2)
C38_2 C 0.2940(3) 0.2303(4) 0.36759(14)
H13_2 H 0.2731 0.2775 0.3549
C39_2 C 0.3561(3) 0.2623(4) 0.40578(12)
C40_2 C 0.3820(5) 0.1910(6) 0.4232(2)
H14_2 H 0.4210 0.2105 0.4493
C41_2 C 0.1970(5) 0.0985(5) 0.30846(17)
C42_2 C 0.3909(3) 0.3661(4) 0.42622(14)
O41_2 O 0.17137(18) 0.00717(18) 0.29319(8)
C43_2 C 0.2940(3) 0.0637(3) 0.36759(14)
C44_2 C 0.3561(3) 0.0938(3) 0.40578(12)
C45_2 C 0.3909(3) 0.0248(3) 0.42622(14)
Al15 Al 0.85208(14) 0.92604(10) 0.2500
Al30 Al 0.41534(7) 0.58466(17) 0.08341(5)
O64_3 O 1.0000 0.0000 0.2500
O82 O 0.43274(15) 0.56724(34) 0.02524(10)
O6_2 O 0.56726(15) 0.1345(3) 0.97476(10)
O7_2 O 0.73007(16) 0.26993(16) 0.92233(13)
O8_2 O 0.59434(18) 0.1887(4) 0.85503(13)
O15_2 O 0.8655(3) 0.43276(34) 0.97476(10)
O16_2 O 0.73007(16) 0.46014(23) 0.92233(13)
O17_2 O 0.8113(4) 0.40564(44) 0.85503(13)
O24_2 O 0.56724(34) 0.43274(15) 0.97476(10)
O25_2 O 0.53986(23) 0.26993(16) 0.92233(13)
O26_2 O 0.59436(44) 0.40566(18) 0.85503(13)
O3_2 O 0.37768(18) 0.94146(18) 0.09420(8)
O5_2 O 0.1529(2) 0.8471(2) 0.2500
H1_2 H 0.2731 0.9956 0.1451
O19_2 O 0.56378(25) 0.94146(18) 0.09420(8)
H6_2 H 0.7225 0.9956 0.1451
O33_2 O 0.6942(3) 0.8471(2) 0.2500
H10_2 H 0.7225 0.9956 0.3549
H15_2 H 0.2731 0.9956 0.3549
H16_2 H 0.0044 0.7269 0.3549
Al10_2 Al 0.41534(17) 0.83068(15) 0.08341(5)
O50_2 O 0.43276(34) 0.8655(3) 0.02524(10)
O51_2 O 0.46014(23) 0.73007(16) 0.07767(13)
O52_2 O 0.40564(44) 0.8113(4) 0.14497(13)
O54_2 O 0.26993(16) 0.53986(23) 0.07767(13)
O55_2 O 0.40566(18) 0.59436(44) 0.14497(13)
O56_2 O 0.26993(16) 0.73007(16) 0.07767(13)
O58_2 O 0.1887(4) 0.59434(18) 0.14497(13)
O62 O 0.83580(25) 0.82863(18) 0.29319(8)
O64_4 O 1.0000 1.0000 0.2500
O44_2 O 0.99283(18) 0.82863(18) 0.29319(8)
C46_2 C 0.8682(3) 0.7365(5) 0.3485(2)
C47_2 C 0.9363(3) 0.7060(3) 0.36759(14)
C48_2 C 0.9062(3) 0.6439(3) 0.40578(12)
C49_2 C 0.8090(3) 0.6180(5) 0.4232(2)
H17_2 H 0.7895 0.5790 0.4493
C50_2 C 0.9015(2) 0.8030(5) 0.30846(17)
C51_2 C 0.9752(3) 0.6091(3) 0.42622(14)
C52_2 C 0.7697(4) 0.7060(3) 0.36759(14)
H18_2 H 0.7225 0.7269 0.3549
C53_2 C 0.7377(4) 0.6439(3) 0.40578(12)
C54_2 C 0.6339(4) 0.6091(3) 0.42622(14)
loop_
_geom_bond_atom_site_label_1
_geom_bond_atom_site_label_2
_geom_bond_site_symmetry_1
_geom_bond_site_symmetry_2
O46 C51 1_555 1_555
C46 C47 1_555 1_555
C48 C47 1_555 1_555
C49 C48 1_555 1_555
H17 C49 1_555 1_555
C50 O44 1_555 1_555
C51 C48 1_555 1_555
O47 C50 1_555 1_555
O48 C54 1_555 1_555
O49 C54 1_555 1_555
C52 C46 1_555 1_555
H18 C52 1_555 1_555
C53 C49 1_555 1_555
C54 C53 1_555 1_555
Al16 O2 1_555 1_555
Al21_2 O46 1_555 1_555
Al23_2 O49 1_555 1_555
Al28 O48 1_555 1_555
C46 C50 1_555 1_555
O47 Al16 1_555 1_555
C52 C53 1_555 1_555
O2_3 Al1 1_555 1_555
O5 Al1 1_555 1_555
O33 Al16 1_555 1_555
Al10 O3 1_555 1_555
O50 Al2 1_555 1_555
O51 Al10 1_555 1_555
O52 Al10 1_555 1_555
Al11 O51 1_555 1_555
O53 Al11 1_555 1_555
O54 Al11 1_555 1_555
O55 Al11 1_555 1_555
O56 Al10 1_555 1_555
Al12 O54 1_555 1_555
O57 Al12 1_555 1_555
O58 Al12 1_555 1_555
Al17_2 O57 1_555 1_555
Al18 O53 1_555 1_555
Al24 O31 1_555 1_555
Al26 O45 1_555 1_555
O60 Al16 1_555 1_555
O65 Al12 1_555 1_555
O66 Al11 1_555 1_555
O73 Al12 1_555 1_555
O74 Al11 1_555 1_555
O76 Al2 1_555 1_555
O78 Al2 1_555 1_555
O19 Al10 1_555 1_555
O42 Al24 1_555 1_555
Al10 O50 1_555 1_555
O56 Al12 1_555 1_555
Al2_2 O4 1_555 1_555
Al3 O6 1_555 1_555
O1 C5 1_555 1_555
O4 C6 1_555 1_555
O6 Al2_2 1_555 1_555
O7 Al3 1_555 1_555
O8 Al3 1_555 1_555
C1 C2 1_555 1_555
C3 C2 1_555 1_555
C4 C3 1_555 1_555
H2 C4 1_555 1_555
C5 C1 1_555 1_555
C6 C3 1_555 1_555
O9 C5 1_555 1_555
O74 C9 1_555 1_555
O11 C9 1_555 1_555
C7 C1 1_555 1_555
H3 C7 1_555 1_555
C8 C4 1_555 1_555
C9 C8 1_555 1_555
Al17 O14 1_555 1_555
Al5 O7 1_555 1_555
O59 C14 1_555 1_555
O14 C15 1_555 1_555
O15 Al17 1_555 1_555
O16 Al5 1_555 1_555
O17 Al5 1_555 1_555
C10 C11 1_555 1_555
C12 C11 1_555 1_555
C13 C12 1_555 1_555
H5 C13 1_555 1_555
C14 C10 1_555 1_555
C15 C12 1_555 1_555
O18 C14 1_555 1_555
O20 Al2_2 1_555 1_555
C16 C10 1_555 1_555
C17 C13 1_555 1_555
C18 O20 1_555 1_555
Al18 O11 1_555 1_555
Al7 O16 1_555 1_555
O60 C23 1_555 1_555
O66 C24 1_555 1_555
O23 Al18 1_555 1_555
O24 Al18 1_555 1_555
O25 Al3 1_555 1_555
O26 Al7 1_555 1_555
C19 C20 1_555 1_555
C20 H7 1_555 1_555
C21 C20 1_555 1_555
C22 C21 1_555 1_555
H8 C22 1_555 1_555
C23 C19 1_555 1_555
C24 O23 1_555 1_555
O63 C23 1_555 1_555
O29 Al17 1_555 1_555
C25 C19 1_555 1_555
C26 C22 1_555 1_555
C27 O29 1_555 1_555
O32 C33 1_555 1_555
C28 C29 1_555 1_555
C30 C29 1_555 1_555
C31 C30 1_555 1_555
H11 C31 1_555 1_555
C32 O30 1_555 1_555
C33 C30 1_555 1_555
O61 C32 1_555 1_555
O36 C36 1_555 1_555
C34 C28 1_555 1_555
C35 C31 1_555 1_555
C36 C35 1_555 1_555
Al9 O2_4 1_555 1_555
O37 Al9 1_555 1_555
O38 C42 1_555 1_555
O39 C42 1_555 1_555
O40 Al9 1_555 1_555
C37 C38 1_555 1_555
C38 H13 1_555 1_555
C39 C38 1_555 1_555
C40 C39 1_555 1_555
H14 C40 1_555 1_555
C41 O37 1_555 1_555
C42 C39 1_555 1_555
O43 C45 1_555 1_555
C43 C37 1_555 1_555
C44 C40 1_555 1_555
C45 C44 1_555 1_555
Al19_4 O32 1_555 1_555
Al21_2 O36 1_555 1_555
Al23_2 O39 1_555 1_555
Al28 O38 1_555 1_555
O67 Al5 1_555 1_555
O68 Al3 1_555 1_555
O69 Al7 1_555 1_555
O70 Al3 1_555 1_555
O71 Al5 1_555 1_555
O72 Al7 1_555 1_555
O77 Al18 1_555 1_555
O80 Al18 1_555 1_555
O9 Al9 1_555 1_555
C7 C8 1_555 1_555
Al5 O15 1_555 1_555
C16 C17 1_555 1_555
C17 C18 1_555 1_555
Al7 O24 1_555 1_555
Al7 O25 1_555 1_555
C21 C24 1_555 1_555
C25 C26 1_555 1_555
C26 C27 1_555 1_555
C28 C32 1_555 1_555
C34 C35 1_555 1_555
C37 C41 1_555 1_555
C41 O41 1_555 1_555
O43 Al19_4 1_555 1_555
C43 C44 1_555 1_555
Al26 O35 1_555 1_555
O75 Al17_2 1_555 1_555
O79 Al17_2 1_555 1_555
Al29 O13 1_555 1_555
O81 Al21 1_555 1_555
O28 Al29 1_555 1_555
Al14 O64 1_555 1_555
Al29 O81 1_555 1_555
Al19 O4_2 1_555 1_555
O1_2 C5_2 1_555 1_555
O4_2 C6_2 1_555 1_555
C1_2 C2_2 1_555 1_555
C3_2 C2_2 1_555 1_555
C4_2 C3_2 1_555 1_555
H2_2 C4_2 1_555 1_555
C5_2 C1_2 1_555 1_555
C6_2 C3_2 1_555 1_555
O9_2 C5_2 1_555 1_555
O10 C9_2 1_555 1_555
O11_2 C9_2 1_555 1_555
C7_2 C1_2 1_555 1_555
H3_2 C7_2 1_555 1_555
C8_2 C4_2 1_555 1_555
C9_2 C8_2 1_555 1_555
Al21_3 O14_2 1_555 1_555
O12 C14_2 1_555 1_555
O14_2 C15_2 1_555 1_555
C10_2 C11_2 1_555 1_555
C12_2 C11_2 1_555 1_555
C13_2 C12_2 1_555 1_555
H5_2 C13_2 1_555 1_555
C14_2 C10_2 1_555 1_555
C15_2 C12_2 1_555 1_555
O18_2 C14_2 1_555 1_555
O20_2 Al19 1_555 1_555
C16_2 C10_2 1_555 1_555
C17_2 C13_2 1_555 1_555
C18_2 O20_2 1_555 1_555
Al23 O11_2 1_555 1_555
O21 C23_2 1_555 1_555
O22 C24_2 1_555 1_555
O23_2 Al23 1_555 1_555
C19_2 C20_2 1_555 1_555
C20_2 H7_2 1_555 1_555
C21_2 C20_2 1_555 1_555
C22_2 C21_2 1_555 1_555
H8_2 C22_2 1_555 1_555
C23_2 C19_2 1_555 1_555
C24_2 O23_2 1_555 1_555
O27 C23_2 1_555 1_555
O29_2 Al21_3 1_555 1_555
C25_2 C19_2 1_555 1_555
C26_2 C22_2 1_555 1_555
C27_2 O29_2 1_555 1_555
O76 C33_2 1_555 1_555
C28_2 C29_2 1_555 1_555
C30_2 C29_2 1_555 1_555
C31_2 C30_2 1_555 1_555
H11_2 C31_2 1_555 1_555
C32_2 O30_2 1_555 1_555
C33_2 C30_2 1_555 1_555
O34 C32_2 1_555 1_555
O79 C36_2 1_555 1_555
C34_2 C28_2 1_555 1_555
C35_2 C31_2 1_555 1_555
C36_2 C35_2 1_555 1_555
O37_2 Al14 1_555 1_555
O69 C42_2 1_555 1_555
O77 C42_2 1_555 1_555
O40_2 Al14 1_555 1_555
C37_2 C38_2 1_555 1_555
C38_2 H13_2 1_555 1_555
C39_2 C38_2 1_555 1_555
C40_2 C39_2 1_555 1_555
H14_2 C40_2 1_555 1_555
C41_2 O37_2 1_555 1_555
C42_2 C39_2 1_555 1_555
O78 C45_2 1_555 1_555
C43_2 C37_2 1_555 1_555
C44_2 C40_2 1_555 1_555
C45_2 C44_2 1_555 1_555
Al15 O21 1_555 1_555
Al30 O10 1_555 1_555
O82 Al23 1_555 1_555
O9_2 Al14 1_555 1_555
C7_2 C8_2 1_555 1_555
C16_2 C17_2 1_555 1_555
C17_2 C18_2 1_555 1_555
O22 Al30 1_555 1_555
C21_2 C24_2 1_555 1_555
C25_2 C26_2 1_555 1_555
C26_2 C27_2 1_555 1_555
C28_2 C32_2 1_555 1_555
C34_2 C35_2 1_555 1_555
C37_2 C41_2 1_555 1_555
C41_2 O41_2 1_555 1_555
C43_2 C44_2 1_555 1_555
Al30 O82 1_555 1_555
Al24 O6_2 1_555 1_555
O6_2 Al19_2 1_555 1_555
O7_2 Al24 1_555 1_555
O8_2 Al24 1_555 1_555
Al26 O7_2 1_555 1_555
O15_2 Al21_4 1_555 1_555
O16_2 Al26 1_555 1_555
O17_2 Al26 1_555 1_555
Al28 O16_2 1_555 1_555
O24_2 Al23_2 1_555 1_555
O25_2 Al24 1_555 1_555
O26_2 Al28 1_555 1_555
Al26 O15_2 1_555 1_555
Al28 O24_2 1_555 1_555
Al28 O25_2 1_555 1_555
O64_2 Al13 1_555 1_555
O5_2 Al13 1_555 1_555
O33_2 Al15 1_555 1_555
Al10_2 O3_2 1_555 1_555
O50_2 Al19_3 1_555 1_555
O51_2 Al10_2 1_555 1_555
O52_2 Al10_2 1_555 1_555
Al30 O51_2 1_555 1_555
O54_2 Al30 1_555 1_555
O55_2 Al30 1_555 1_555
O56_2 Al10_2 1_555 1_555
Al29 O54_2 1_555 1_555
O58_2 Al29 1_555 1_555
O62 Al15 1_555 1_555
O64_4 Al15 1_555 1_555
O19_2 Al10_2 1_555 1_555
Al10_2 O50_2 1_555 1_555
O56_2 Al29 1_555 1_555
O75 C51_2 1_555 1_555
C46_2 C47_2 1_555 1_555
C48_2 C47_2 1_555 1_555
C49_2 C48_2 1_555 1_555
H17_2 C49_2 1_555 1_555
C50_2 O44_2 1_555 1_555
C51_2 C48_2 1_555 1_555
O62 C50_2 1_555 1_555
O72 C54_2 1_555 1_555
O80 C54_2 1_555 1_555
C52_2 C46_2 1_555 1_555
H18_2 C52_2 1_555 1_555
C53_2 C49_2 1_555 1_555
C54_2 C53_2 1_555 1_555
C46_2 C50_2 1_555 1_555
C52_2 C53_2 1_555 1_555

#END
