
###############################################################################
#
# This file contains modified crystal structure data generated from the
# MOF subset of the Cambridge Structural Database (CSD) v543 
# hosted by the Cambridge Crystallographic Data Centre (CCDC).
#
# This work is licensed under the Creative Commons
# Attribution-NonCommercial-ShareAlike 4.0 International License.
# To view a copy of this license, visit
# http://creativecommons.org/licenses/by-nc-sa/4.0/
# or send a letter to
# Creative Commons, PO Box 1866, Mountain View, CA 94042, USA.
#
# CIF created using the CSD Python API on 29 September 2022
# The structure has been converted into the P1 space group
# The structure has a 3D framework
# The original CSD entry WEWDEI is in the monoclinic crystal system
# The framework has been calculated to contain at least 10.0% void space
# The void calculation uses a probe of radius 1.32A, grid spacing 0.4
# The framework is charged, counterions have been retained in the structure
#
###############################################################################

data_WEWDEI
_chemical_formula_moiety         '(C240 H192 Cl12 Cu24 N48 O8 S16 W8 1+)n'
_symmetry_cell_setting           triclinic
_symmetry_space_group_name_H-M   'P 1'
_symmetry_Int_Tables_number      1
_space_group_name_Hall           'P 1'
loop_
_symmetry_equiv_pos_site_id
_symmetry_equiv_pos_as_xyz
1 x,y,z
_cell_length_a                   17.7743(16)
_cell_length_b                   25.311(2)
_cell_length_c                   16.5981(15)
_cell_angle_alpha                90
_cell_angle_beta                 105.408(2)
_cell_angle_gamma                90
_cell_volume                     7198.86
loop_
_atom_site_label
_atom_site_type_symbol
_atom_site_fract_x
_atom_site_fract_y
_atom_site_fract_z
N10 N 0.0138(2) 0.23749(16) 0.9031(2)
C51 C 0.2098(3) 0.4536(2) 0.9114(3)
C52 C 0.1746(3) 0.47444(19) 0.9691(3)
C53 C 0.0973(3) 0.46044(18) 0.9649(3)
N13 N 0.0568(2) 0.42603(16) 0.9033(3)
C54 C 0.0929(3) 0.40539(18) 0.8459(3)
H43 H 0.0658 0.3824 0.8046
C55 C 0.1704(3) 0.41906(18) 0.8499(3)
H44 H 0.1950 0.4051 0.8116
N14 N 0.4406(2) 0.50220(16) 0.9239(2)
C56 C 0.3918(3) 0.5347(2) 0.9555(3)
H45 H 0.4093 0.5671 0.9795
C57 C 0.3162(3) 0.5176(2) 0.9504(3)
H46 H 0.2828 0.5391 0.9704
C58 C 0.2900(3) 0.46888(19) 0.9158(3)
C59 C 0.3389(3) 0.4369(2) 0.8848(3)
H47 H 0.3210 0.4044 0.8611
C60 C 0.4146(3) 0.45305(19) 0.8887(3)
H48 H 0.4476 0.4314 0.8682
S8 S 0.88766(7) 0.26542(4) 0.03840(7)
Cu11 Cu 0.98019(3) 0.32469(2) 0.10207(3)
S6 S 0.93954(7) 0.40427(4) 0.03998(7)
Cl1 Cl 1.0000 0.32753(8) 0.2500
N3 N 0.9862(2) 0.23749(16) 0.5969(2)
C11 C 0.9485(3) 0.19685(17) 0.5574(3)
H9 H 0.9729 0.1739 0.5286
C12 C 0.8701(3) 0.18790(19) 0.5585(3)
H10 H 0.8431 0.1597 0.5282
C13 C 0.8329(3) 0.2194(2) 0.6028(3)
C14 C 0.8737(3) 0.26225(19) 0.6428(3)
H11 H 0.8502 0.2869 0.6699
C15 C 0.9486(3) 0.2674(2) 0.6414(3)
H12 H 0.9773 0.2941 0.6741
C16 C 0.7488(3) 0.20890(17) 0.5998(3)
C17 C 0.7068(3) 0.16568(19) 0.5545(3)
H13 H 0.7300 0.1423 0.5250
C18 C 0.7124(3) 0.24010(18) 0.6480(3)
H14 H 0.7401 0.2677 0.6795
N4 N 0.5946(2) 0.19073(16) 0.6011(2)
C19 C 0.6325(3) 0.23052(19) 0.6502(3)
H15 H 0.6086 0.2505 0.6834
C20 C 0.6271(3) 0.15989(19) 0.5565(4)
H16 H 0.5973 0.1332 0.5248
C21 C 0.7902(3) 0.4536(2) 0.5886(3)
C22 C 0.8254(3) 0.47444(19) 0.5309(3)
H17 H 0.7982 0.4975 0.4897
C23 C 0.9027(3) 0.46044(18) 0.5351(3)
H18 H 0.9269 0.4743 0.4965
N5 N 0.9432(2) 0.42603(16) 0.5967(3)
C24 C 0.9071(3) 0.40539(18) 0.6541(3)
H19 H 0.9342 0.3824 0.6954
C25 C 0.8296(3) 0.41906(18) 0.6501(3)
H20 H 0.8050 0.4051 0.6884
N6 N 0.5594(2) 0.50220(16) 0.5761(2)
C26 C 0.6082(3) 0.5347(2) 0.5445(3)
H21 H 0.5907 0.5671 0.5205
C27 C 0.6838(3) 0.5176(2) 0.5496(3)
H22 H 0.7172 0.5391 0.5296
C28 C 0.7100(3) 0.46888(19) 0.5842(3)
C29 C 0.6611(3) 0.4369(2) 0.6152(3)
H23 H 0.6790 0.4044 0.6389
C30 C 0.5854(3) 0.45305(19) 0.6113(3)
H24 H 0.5524 0.4314 0.6318
Cu6 Cu 0.40194(3) 0.24403(2) 0.40615(3)
Cu9 Cu 0.48019(3) 0.17531(2) 0.60207(3)
N9 N 0.5138(2) 0.26251(16) 0.4031(2)
C41 C 0.5515(3) 0.30315(17) 0.4426(3)
H33 H 0.5271 0.3261 0.4714
C42 C 0.6299(3) 0.31210(19) 0.4415(3)
H34 H 0.6569 0.3403 0.4718
C43 C 0.6671(3) 0.2806(2) 0.3972(3)
C44 C 0.6263(3) 0.23775(19) 0.3572(3)
H35 H 0.6498 0.2131 0.3301
C45 C 0.5514(3) 0.2326(2) 0.3586(3)
H36 H 0.5227 0.2059 0.3259
C46 C 0.7512(3) 0.29110(17) 0.4002(3)
C47 C 0.7932(3) 0.33432(19) 0.4455(3)
H37 H 0.7700 0.3577 0.4750
C48 C 0.7876(3) 0.25990(18) 0.3520(3)
H38 H 0.7599 0.2323 0.3205
N11 N 0.9054(2) 0.30927(16) 0.3989(2)
C49 C 0.8675(3) 0.26948(19) 0.3498(3)
H39 H 0.8914 0.2495 0.3166
C50 C 0.8729(3) 0.34011(19) 0.4435(4)
H40 H 0.9027 0.3668 0.4752
Cu6_2 Cu 0.09806(3) 0.74403(2) 0.09385(3)
C11_2 C 0.0515(3) 0.19685(17) 0.9426(3)
H9_2 H 0.0271 0.1739 0.9714
C12_2 C 0.1299(3) 0.18790(19) 0.9415(3)
H10_2 H 0.1569 0.1597 0.9718
C13_2 C 0.1671(3) 0.2194(2) 0.8972(3)
C14_2 C 0.1263(3) 0.26225(19) 0.8572(3)
H11_2 H 0.1498 0.2869 0.8301
C15_2 C 0.0514(3) 0.2674(2) 0.8586(3)
H12_2 H 0.0227 0.2941 0.8259
C16_2 C 0.2512(3) 0.20890(17) 0.9002(3)
C17_2 C 0.2932(3) 0.16568(19) 0.9455(3)
H13_2 H 0.2700 0.1423 0.9750
C18_2 C 0.2876(3) 0.24010(18) 0.8520(3)
H14_2 H 0.2599 0.2677 0.8205
N4_2 N 0.4054(2) 0.19073(16) 0.8989(2)
C19_2 C 0.3675(3) 0.23052(19) 0.8498(3)
H15_2 H 0.3914 0.2505 0.8166
C20_2 C 0.3729(3) 0.15989(19) 0.9435(4)
H16_2 H 0.4027 0.1332 0.9752
Cu9_2 Cu 0.51981(3) 0.17531(2) 0.89793(3)
W1 W 0.355193(10) 0.157166(7) 0.472279(11)
O1 O 0.26204(18) 0.13993(14) 0.4704(2)
S1 S 0.36581(7) 0.16424(5) 0.34024(8)
S2 S 0.43954(7) 0.09573(4) 0.53998(7)
Cu1 Cu 0.44335(3) 0.09506(2) 0.40160(3)
S3 S 0.38766(7) 0.23458(4) 0.53840(7)
N1 N 0.3843(2) 0.02667(16) 0.3465(2)
C1 C 0.3079(3) 0.02584(18) 0.3379(3)
H1 H 0.2838 0.0547 0.3551
Cl1_2 Cl 0.5000 0.17247(8) 0.7500
C21_2 C 0.7098(3) 0.0464(2) 0.4114(3)
C22_2 C 0.6746(3) 0.02556(19) 0.4691(3)
H17_2 H 0.7018 0.0025 0.5103
C23_2 C 0.5973(3) 0.03956(18) 0.4649(3)
H18_2 H 0.5731 0.0257 0.5035
N5_2 N 0.5568(2) 0.07397(16) 0.4033(3)
C24_2 C 0.5929(3) 0.09461(18) 0.3459(3)
H19_2 H 0.5658 0.1176 0.3046
C25_2 C 0.6704(3) 0.08094(18) 0.3499(3)
H20_2 H 0.6950 0.0949 0.3116
C28_2 C 0.7900(3) 0.03112(19) 0.4158(3)
C29_2 C 0.8389(3) 0.0631(2) 0.3848(3)
H23_2 H 0.8210 0.0956 0.3611
C30_2 C 0.9146(3) 0.04695(19) 0.3887(3)
H24_2 H 0.9476 0.0686 0.3682
W2 W 0.144807(10) 0.657166(7) 0.027721(11)
O2 O 0.23796(18) 0.63993(14) 0.0296(2)
S4 S 0.13419(7) 0.66424(5) 0.15976(8)
S7 S 0.56046(7) 0.09573(4) 0.96002(7)
Cu4 Cu 0.05665(3) 0.59506(2) 0.09840(3)
S9 S 0.61234(7) 0.23458(4) 0.96160(7)
N7 N 0.1157(2) 0.52667(16) 0.1535(2)
C31 C 0.1921(3) 0.52584(18) 0.1621(3)
H25 H 0.2162 0.5547 0.1449
C32 C 0.0817(3) 0.48855(17) 0.1868(3)
H26 H 0.0295 0.4925 0.1862
N8 N 0.3378(2) 0.30707(15) 0.3463(2)
C33 C 0.2661(3) 0.31348(19) 0.3537(3)
H27 H 0.2460 0.2890 0.3842
C34 C 0.2185(3) 0.3575(2) 0.3155(3)
H28 H 0.1687 0.3626 0.3222
C35 C 0.2504(3) 0.39223(19) 0.2680(3)
C36 C 0.3251(3) 0.38411(19) 0.2599(3)
H29 H 0.3453 0.4065 0.2265
C37 C 0.3705(3) 0.34165(15) 0.3026(3)
H30 H 0.4220 0.3374 0.3008
C38 C 0.2017(3) 0.43747(19) 0.2272(3)
C39 C 0.1214(3) 0.44265(18) 0.2228(3)
H31 H 0.0953 0.4162 0.2434
C40 C 0.2383(3) 0.48041(19) 0.1982(3)
H32 H 0.2915 0.4794 0.2022
C2 C 0.4183(3) 0.98855(17) 0.3132(3)
H2 H 0.4705 0.9925 0.3138
N2 N 0.1622(2) 0.80707(15) 0.1537(2)
C3 C 0.2339(3) 0.81348(19) 0.1463(3)
H3 H 0.2540 0.7890 0.1158
C4 C 0.2815(3) 0.8575(2) 0.1845(3)
H4 H 0.3313 0.8626 0.1778
C5 C 0.2496(3) 0.89223(19) 0.2320(3)
C6 C 0.1749(3) 0.88411(19) 0.2401(3)
H5 H 0.1547 0.9065 0.2735
C7 C 0.1295(3) 0.84165(15) 0.1974(3)
H6 H 0.0780 0.8374 0.1992
C8 C 0.2983(3) 0.93747(19) 0.2728(3)
C9 C 0.3786(3) 0.94265(18) 0.2772(3)
H7 H 0.4047 0.9162 0.2566
C10 C 0.2617(3) 0.98041(19) 0.3018(3)
H8 H 0.2085 0.9794 0.2978
N6_2 N 0.9406(2) 0.99780(16) 0.4239(2)
C26_2 C 0.8918(3) 0.9653(2) 0.4555(3)
H21_2 H 0.9093 0.9329 0.4795
C27_2 C 0.8162(3) 0.9824(2) 0.4504(3)
H22_2 H 0.7828 0.9609 0.4704
H41 H 0.2982 0.0025 0.9897
H42 H 0.4269 0.0257 0.9965
H41_2 H 0.2018 0.4975 0.0103
H42_2 H 0.0731 0.4743 0.0035
W4 W 0.355193(10) 0.842834(7) 0.972279(11)
Cu6_3 Cu 0.90194(3) 0.74403(2) 0.40615(3)
Cu9_3 Cu 0.98019(3) 0.67531(2) 0.60207(3)
W1_2 W 0.144807(10) 0.342834(7) 0.527721(11)
O1_2 O 0.23796(18) 0.36007(14) 0.5296(2)
S1_2 S 0.13419(7) 0.33576(5) 0.65976(8)
S2_2 S 0.06046(7) 0.40427(4) 0.46002(7)
Cu1_2 Cu 0.05665(3) 0.40494(2) 0.59840(3)
S3_2 S 0.11234(7) 0.26542(4) 0.46160(7)
Cu2 Cu 0.09806(3) 0.25597(2) 0.59385(3)
Cu3 Cu 0.01981(3) 0.32469(2) 0.39793(3)
N1_2 N 0.1157(2) 0.47333(16) 0.6535(2)
C1_2 C 0.1921(3) 0.47416(18) 0.6621(3)
H1_2 H 0.2162 0.4453 0.6449
C2_2 C 0.0817(3) 0.51145(17) 0.6868(3)
H2_2 H 0.0295 0.5075 0.6862
Cl1_3 Cl -0.0000 0.32753(8) 0.2500
N2_2 N 0.3378(2) 0.69293(15) 0.8463(2)
C3_2 C 0.2661(3) 0.68652(19) 0.8537(3)
H3_2 H 0.2460 0.7110 0.8842
C4_2 C 0.2185(3) 0.6425(2) 0.8155(3)
H4_2 H 0.1687 0.6374 0.8222
C5_2 C 0.2504(3) 0.60777(19) 0.7680(3)
C6_2 C 0.3251(3) 0.61589(19) 0.7599(3)
H5_2 H 0.3453 0.5935 0.7265
C7_2 C 0.3705(3) 0.65835(15) 0.8026(3)
H6_2 H 0.4220 0.6626 0.8008
C8_2 C 0.2017(3) 0.56253(19) 0.7272(3)
C9_2 C 0.1214(3) 0.55735(18) 0.7228(3)
H7_2 H 0.0953 0.5838 0.7434
C10_2 C 0.2383(3) 0.51959(19) 0.6982(3)
H8_2 H 0.2915 0.5206 0.7022
S5 S 0.36581(7) 0.83576(5) 0.84024(8)
Cu5 Cu 0.40194(3) 0.75597(2) 0.90615(3)
C32_2 C 0.4183(3) 0.01145(17) 0.8132(3)
H26_2 H 0.4705 0.0075 0.8138
N8_2 N 0.1622(2) 0.19293(15) 0.6537(2)
C33_2 C 0.2339(3) 0.18652(19) 0.6463(3)
H27_2 H 0.2540 0.2110 0.6158
C34_2 C 0.2815(3) 0.1425(2) 0.6845(3)
H28_2 H 0.3313 0.1374 0.6778
C35_2 C 0.2496(3) 0.10777(19) 0.7320(3)
C36_2 C 0.1749(3) 0.11589(19) 0.7401(3)
H29_2 H 0.1547 0.0935 0.7735
C37_2 C 0.1295(3) 0.15835(15) 0.6974(3)
H30_2 H 0.0780 0.1626 0.6992
C38_2 C 0.2983(3) 0.06253(19) 0.7728(3)
C39_2 C 0.3786(3) 0.05735(18) 0.7772(3)
H31_2 H 0.4047 0.0838 0.7566
C40_2 C 0.2617(3) 0.01959(19) 0.8018(3)
H32_2 H 0.2085 0.0206 0.7978
N10_2 N 0.5138(2) 0.73749(16) 0.9031(2)
N12 N 0.0946(2) 0.30927(16) 0.1011(2)
N14_2 N 0.9406(2) 0.00220(16) 0.9239(2)
C56_2 C 0.8918(3) 0.0347(2) 0.9555(3)
H45_2 H 0.9093 0.0671 0.9795
C57_2 C 0.8162(3) 0.0176(2) 0.9504(3)
H46_2 H 0.7828 0.0391 0.9704
O2_2 O 0.26204(18) 0.86007(14) 0.9704(2)
Cu4_2 Cu 0.44335(3) 0.90494(2) 0.90160(3)
N7_2 N 0.3843(2) 0.97333(16) 0.8465(2)
C31_2 C 0.3079(3) 0.97416(18) 0.8379(3)
H25_2 H 0.2838 0.9453 0.8551
C51_2 C 0.7098(3) 0.9536(2) 0.9114(3)
C52_2 C 0.6746(3) 0.97444(19) 0.9691(3)
C53_2 C 0.5973(3) 0.96044(18) 0.9649(3)
N13_2 N 0.5568(2) 0.92603(16) 0.9033(3)
C54_2 C 0.5929(3) 0.90539(18) 0.8459(3)
H43_2 H 0.5658 0.8824 0.8046
C55_2 C 0.6704(3) 0.91906(18) 0.8499(3)
H44_2 H 0.6950 0.9051 0.8116
C58_2 C 0.7900(3) 0.96888(19) 0.9158(3)
C59_2 C 0.8389(3) 0.9369(2) 0.8848(3)
H47_2 H 0.8210 0.9044 0.8611
C60_2 C 0.9146(3) 0.95305(19) 0.8887(3)
H48_2 H 0.9476 0.9314 0.8682
C11_3 C 0.5515(3) 0.69685(17) 0.9426(3)
H9_3 H 0.5271 0.6739 0.9714
C12_3 C 0.6299(3) 0.68790(19) 0.9415(3)
H10_3 H 0.6569 0.6597 0.9718
C13_3 C 0.6671(3) 0.7194(2) 0.8972(3)
C14_3 C 0.6263(3) 0.76225(19) 0.8572(3)
H11_3 H 0.6498 0.7869 0.8301
C15_3 C 0.5514(3) 0.7674(2) 0.8586(3)
H12_3 H 0.5227 0.7941 0.8259
C16_3 C 0.7512(3) 0.70890(17) 0.9002(3)
C17_3 C 0.7932(3) 0.66568(19) 0.9455(3)
H13_3 H 0.7700 0.6423 0.9750
C18_3 C 0.7876(3) 0.74010(18) 0.8520(3)
H14_3 H 0.7599 0.7677 0.8205
N4_3 N 0.9054(2) 0.69073(16) 0.8989(2)
C19_3 C 0.8675(3) 0.73052(19) 0.8498(3)
H15_3 H 0.8914 0.7505 0.8166
C20_3 C 0.8729(3) 0.65989(19) 0.9435(4)
H16_3 H 0.9027 0.6332 0.9752
Cu6_4 Cu 0.59806(3) 0.24403(2) 0.09385(3)
N9_2 N 0.4862(2) 0.26251(16) 0.0969(2)
C41_2 C 0.4485(3) 0.30315(17) 0.0574(3)
H33_2 H 0.4729 0.3261 0.0286
C42_2 C 0.3701(3) 0.31210(19) 0.0585(3)
H34_2 H 0.3431 0.3403 0.0282
C43_2 C 0.3329(3) 0.2806(2) 0.1028(3)
C44_2 C 0.3737(3) 0.23775(19) 0.1428(3)
H35_2 H 0.3502 0.2131 0.1699
C45_2 C 0.4486(3) 0.2326(2) 0.1414(3)
H36_2 H 0.4773 0.2059 0.1741
C46_2 C 0.2488(3) 0.29110(17) 0.0998(3)
C47_2 C 0.2068(3) 0.33432(19) 0.0545(3)
H37_2 H 0.2300 0.3577 0.0250
C48_2 C 0.2124(3) 0.25990(18) 0.1480(3)
H38_2 H 0.2401 0.2323 0.1795
C49_2 C 0.1325(3) 0.26948(19) 0.1502(3)
H39_2 H 0.1086 0.2495 0.1834
C50_2 C 0.1271(3) 0.34011(19) 0.0565(4)
H40_2 H 0.0973 0.3668 0.0248
W4_2 W 0.644807(10) 0.157166(7) 0.027721(11)
H41_3 H 0.7982 0.5025 0.9897
H42_3 H 0.9269 0.5257 0.9965
O2_3 O 0.73796(18) 0.13993(14) 0.0296(2)
S4_2 S 0.63419(7) 0.16424(5) 0.15976(8)
Cu4_3 Cu 0.55665(3) 0.09506(2) 0.09840(3)
N7_3 N 0.6157(2) 0.02667(16) 0.1535(2)
C31_3 C 0.6921(3) 0.02584(18) 0.1621(3)
H25_3 H 0.7162 0.0547 0.1449
C51_3 C 0.2902(3) 0.0464(2) 0.0886(3)
C52_3 C 0.3254(3) 0.02556(19) 0.0309(3)
C53_3 C 0.4027(3) 0.03956(18) 0.0351(3)
N13_3 N 0.4432(2) 0.07397(16) 0.0967(3)
C54_3 C 0.4071(3) 0.09461(18) 0.1541(3)
H43_3 H 0.4342 0.1176 0.1954
C55_3 C 0.3296(3) 0.08094(18) 0.1501(3)
H44_3 H 0.3050 0.0949 0.1884
C58_3 C 0.2100(3) 0.03112(19) 0.0842(3)
C59_3 C 0.1611(3) 0.0631(2) 0.1152(3)
H47_3 H 0.1790 0.0956 0.1389
C60_3 C 0.0854(3) 0.04695(19) 0.1113(3)
H48_3 H 0.0524 0.0686 0.1318
W1_3 W 0.855193(10) 0.657166(7) 0.472279(11)
O1_3 O 0.76204(18) 0.63993(14) 0.4704(2)
S1_3 S 0.86581(7) 0.66424(5) 0.34024(8)
S2_3 S 0.93954(7) 0.59573(4) 0.53998(7)
Cu1_3 Cu 0.94335(3) 0.59506(2) 0.40160(3)
S3_3 S 0.88766(7) 0.73458(4) 0.53840(7)
N1_3 N 0.8843(2) 0.52667(16) 0.3465(2)
C1_3 C 0.8079(3) 0.52584(18) 0.3379(3)
H1_3 H 0.7838 0.5547 0.3551
C2_3 C 0.9183(3) 0.48855(17) 0.3132(3)
H2_3 H 0.9705 0.4925 0.3138
Cl1_4 Cl 1.0000 0.67247(8) 0.7500
N2_3 N 0.6622(2) 0.30707(15) 0.1537(2)
C3_3 C 0.7339(3) 0.31348(19) 0.1463(3)
H3_3 H 0.7540 0.2890 0.1158
C4_3 C 0.7815(3) 0.3575(2) 0.1845(3)
H4_3 H 0.8313 0.3626 0.1778
C5_3 C 0.7496(3) 0.39223(19) 0.2320(3)
C6_3 C 0.6749(3) 0.38411(19) 0.2401(3)
H5_3 H 0.6547 0.4065 0.2735
C7_3 C 0.6295(3) 0.34165(15) 0.1974(3)
H6_3 H 0.5780 0.3374 0.1992
C8_3 C 0.7983(3) 0.43747(19) 0.2728(3)
C9_3 C 0.8786(3) 0.44265(18) 0.2772(3)
H7_3 H 0.9047 0.4162 0.2566
C10_3 C 0.7617(3) 0.48041(19) 0.3018(3)
H8_3 H 0.7085 0.4794 0.2978
C32_3 C 0.5817(3) 0.98855(17) 0.1868(3)
H26_3 H 0.5295 0.9925 0.1862
N8_3 N 0.8378(2) 0.80707(15) 0.3463(2)
C33_3 C 0.7661(3) 0.81348(19) 0.3537(3)
H27_3 H 0.7460 0.7890 0.3842
C34_3 C 0.7185(3) 0.8575(2) 0.3155(3)
H28_3 H 0.6687 0.8626 0.3222
C35_3 C 0.7504(3) 0.89223(19) 0.2680(3)
C36_3 C 0.8251(3) 0.88411(19) 0.2599(3)
H29_3 H 0.8453 0.9065 0.2265
C37_3 C 0.8705(3) 0.84165(15) 0.3026(3)
H30_3 H 0.9220 0.8374 0.3008
C38_3 C 0.7017(3) 0.93747(19) 0.2272(3)
C39_3 C 0.6214(3) 0.94265(18) 0.2228(3)
H31_3 H 0.5953 0.9162 0.2434
C40_3 C 0.7383(3) 0.98041(19) 0.1982(3)
H32_3 H 0.7915 0.9794 0.2022
N14_3 N 0.0594(2) 0.99780(16) 0.0761(2)
C56_3 C 0.1082(3) 0.9653(2) 0.0445(3)
H45_3 H 0.0907 0.9329 0.0205
C57_3 C 0.1838(3) 0.9824(2) 0.0496(3)
H46_3 H 0.2172 0.9609 0.0296
C2_4 C 0.5817(3) 0.01145(17) 0.6868(3)
H2_4 H 0.5295 0.0075 0.6862
N2_4 N 0.8378(2) 0.19293(15) 0.8463(2)
C3_4 C 0.7661(3) 0.18652(19) 0.8537(3)
H3_4 H 0.7460 0.2110 0.8842
C4_4 C 0.7185(3) 0.1425(2) 0.8155(3)
H4_4 H 0.6687 0.1374 0.8222
C5_4 C 0.7504(3) 0.10777(19) 0.7680(3)
C6_4 C 0.8251(3) 0.11589(19) 0.7599(3)
H5_4 H 0.8453 0.0935 0.7265
C7_4 C 0.8705(3) 0.15835(15) 0.8026(3)
H6_4 H 0.9220 0.1626 0.8008
C8_4 C 0.7017(3) 0.06253(19) 0.7272(3)
C9_4 C 0.6214(3) 0.05735(18) 0.7228(3)
H7_4 H 0.5953 0.0838 0.7434
C10_4 C 0.7383(3) 0.01959(19) 0.6982(3)
H8_4 H 0.7915 0.0206 0.7022
N6_3 N 0.0594(2) 0.00220(16) 0.5761(2)
C26_3 C 0.1082(3) 0.0347(2) 0.5445(3)
H21_3 H 0.0907 0.0671 0.5205
C27_3 C 0.1838(3) 0.0176(2) 0.5496(3)
H22_3 H 0.2172 0.0391 0.5296
W3 W 0.855193(10) 0.342834(7) 0.972279(11)
S5_2 S 0.86581(7) 0.33576(5) 0.84024(8)
Cu5_2 Cu 0.90194(3) 0.25597(2) 0.90615(3)
W1_4 W 0.644807(10) 0.842834(7) 0.527721(11)
O1_4 O 0.73796(18) 0.86007(14) 0.5296(2)
S1_4 S 0.63419(7) 0.83576(5) 0.65976(8)
S2_4 S 0.56046(7) 0.90427(4) 0.46002(7)
Cu1_4 Cu 0.55665(3) 0.90494(2) 0.59840(3)
S3_4 S 0.61234(7) 0.76542(4) 0.46160(7)
Cu2_2 Cu 0.59806(3) 0.75597(2) 0.59385(3)
Cu3_2 Cu 0.51981(3) 0.82469(2) 0.39793(3)
N1_4 N 0.6157(2) 0.97333(16) 0.6535(2)
C1_4 C 0.6921(3) 0.97416(18) 0.6621(3)
H1_4 H 0.7162 0.9453 0.6449
Cl1_5 Cl 0.5000 0.82753(8) 0.2500
N3_2 N 0.4862(2) 0.73749(16) 0.5969(2)
C11_4 C 0.4485(3) 0.69685(17) 0.5574(3)
H9_4 H 0.4729 0.6739 0.5286
C12_4 C 0.3701(3) 0.68790(19) 0.5585(3)
H10_4 H 0.3431 0.6597 0.5282
C13_4 C 0.3329(3) 0.7194(2) 0.6028(3)
C14_4 C 0.3737(3) 0.76225(19) 0.6428(3)
H11_4 H 0.3502 0.7869 0.6699
C15_4 C 0.4486(3) 0.7674(2) 0.6414(3)
H12_4 H 0.4773 0.7941 0.6741
C16_4 C 0.2488(3) 0.70890(17) 0.5998(3)
C17_4 C 0.2068(3) 0.66568(19) 0.5545(3)
H13_4 H 0.2300 0.6423 0.5250
C18_4 C 0.2124(3) 0.74010(18) 0.6480(3)
H14_4 H 0.2401 0.7677 0.6795
N4_4 N 0.0946(2) 0.69073(16) 0.6011(2)
C19_4 C 0.1325(3) 0.73052(19) 0.6502(3)
H15_4 H 0.1086 0.7505 0.6834
C20_4 C 0.1271(3) 0.65989(19) 0.5565(4)
H16_4 H 0.0973 0.6332 0.5248
C21_3 C 0.2902(3) 0.9536(2) 0.5886(3)
C22_3 C 0.3254(3) 0.97444(19) 0.5309(3)
H17_3 H 0.2982 0.9975 0.4897
C23_3 C 0.4027(3) 0.96044(18) 0.5351(3)
H18_3 H 0.4269 0.9743 0.4965
N5_3 N 0.4432(2) 0.92603(16) 0.5967(3)
C24_3 C 0.4071(3) 0.90539(18) 0.6541(3)
H19_3 H 0.4342 0.8824 0.6954
C25_3 C 0.3296(3) 0.91906(18) 0.6501(3)
H20_3 H 0.3050 0.9051 0.6884
C28_3 C 0.2100(3) 0.96888(19) 0.5842(3)
C29_3 C 0.1611(3) 0.9369(2) 0.6152(3)
H23_3 H 0.1790 0.9044 0.6389
C30_3 C 0.0854(3) 0.95305(19) 0.6113(3)
H24_3 H 0.0524 0.9314 0.6318
O2_4 O 0.76204(18) 0.36007(14) 0.9704(2)
S7_2 S 0.43954(7) 0.90427(4) 0.03998(7)
Cu4_4 Cu 0.94335(3) 0.40494(2) 0.90160(3)
S9_2 S 0.38766(7) 0.76542(4) 0.03840(7)
Cu8 Cu 0.48019(3) 0.82469(2) 0.10207(3)
N7_4 N 0.8843(2) 0.47333(16) 0.8465(2)
C31_4 C 0.8079(3) 0.47416(18) 0.8379(3)
H25_4 H 0.7838 0.4453 0.8551
C32_4 C 0.9183(3) 0.51145(17) 0.8132(3)
H26_4 H 0.9705 0.5075 0.8138
N8_4 N 0.6622(2) 0.69293(15) 0.6537(2)
C33_4 C 0.7339(3) 0.68652(19) 0.6463(3)
H27_4 H 0.7540 0.7110 0.6158
C34_4 C 0.7815(3) 0.6425(2) 0.6845(3)
H28_4 H 0.8313 0.6374 0.6778
C35_4 C 0.7496(3) 0.60777(19) 0.7320(3)
C36_4 C 0.6749(3) 0.61589(19) 0.7401(3)
H29_4 H 0.6547 0.5935 0.7735
C37_4 C 0.6295(3) 0.65835(15) 0.6974(3)
H30_4 H 0.5780 0.6626 0.6992
C38_4 C 0.7983(3) 0.56253(19) 0.7728(3)
C39_4 C 0.8786(3) 0.55735(18) 0.7772(3)
H31_4 H 0.9047 0.5838 0.7566
C40_4 C 0.7617(3) 0.51959(19) 0.8018(3)
H32_4 H 0.7085 0.5206 0.7978
N9_3 N 0.0138(2) 0.76251(16) 0.4031(2)
C41_3 C 0.0515(3) 0.80315(17) 0.4426(3)
H33_3 H 0.0271 0.8261 0.4714
C42_3 C 0.1299(3) 0.81210(19) 0.4415(3)
H34_3 H 0.1569 0.8403 0.4718
C43_3 C 0.1671(3) 0.7806(2) 0.3972(3)
C44_3 C 0.1263(3) 0.73775(19) 0.3572(3)
H35_3 H 0.1498 0.7131 0.3301
C45_3 C 0.0514(3) 0.7326(2) 0.3586(3)
H36_3 H 0.0227 0.7059 0.3259
C46_3 C 0.2512(3) 0.79110(17) 0.4002(3)
C47_3 C 0.2932(3) 0.83432(19) 0.4455(3)
H37_3 H 0.2700 0.8577 0.4750
C48_3 C 0.2876(3) 0.75990(18) 0.3520(3)
H38_3 H 0.2599 0.7323 0.3205
N11_2 N 0.4054(2) 0.80927(16) 0.3989(2)
N12_2 N 0.5946(2) 0.80927(16) 0.1011(2)
C49_3 C 0.3675(3) 0.76948(19) 0.3498(3)
H39_3 H 0.3914 0.7495 0.3166
C50_3 C 0.3729(3) 0.84011(19) 0.4435(4)
H40_3 H 0.4027 0.8668 0.4752
H41_4 H 0.7018 0.9975 0.0103
H42_4 H 0.5731 0.9743 0.0035
Cu9_4 Cu 0.01981(3) 0.67531(2) 0.89793(3)
N9_4 N 0.9862(2) 0.76251(16) 0.0969(2)
C41_4 C 0.9485(3) 0.80315(17) 0.0574(3)
H33_4 H 0.9729 0.8261 0.0286
C42_4 C 0.8701(3) 0.81210(19) 0.0585(3)
H34_4 H 0.8431 0.8403 0.0282
C43_4 C 0.8329(3) 0.7806(2) 0.1028(3)
C44_4 C 0.8737(3) 0.73775(19) 0.1428(3)
H35_4 H 0.8502 0.7131 0.1699
C45_4 C 0.9486(3) 0.7326(2) 0.1414(3)
H36_4 H 0.9773 0.7059 0.1741
C46_4 C 0.7488(3) 0.79110(17) 0.0998(3)
C47_4 C 0.7068(3) 0.83432(19) 0.0545(3)
H37_4 H 0.7300 0.8577 0.0250
C48_4 C 0.7124(3) 0.75990(18) 0.1480(3)
H38_4 H 0.7401 0.7323 0.1795
C49_4 C 0.6325(3) 0.76948(19) 0.1502(3)
H39_4 H 0.6086 0.7495 0.1834
C50_4 C 0.6271(3) 0.84011(19) 0.0565(4)
H40_4 H 0.5973 0.8668 0.0248
S6_2 S 0.06046(7) 0.59573(4) 0.96002(7)
S10 S 0.11234(7) 0.73458(4) 0.96160(7)
C51_4 C 0.7902(3) 0.5464(2) 0.0886(3)
C52_4 C 0.8254(3) 0.52556(19) 0.0309(3)
C53_4 C 0.9027(3) 0.53956(18) 0.0351(3)
N13_4 N 0.9432(2) 0.57397(16) 0.0967(3)
C54_4 C 0.9071(3) 0.59461(18) 0.1541(3)
H43_4 H 0.9342 0.6176 0.1954
C55_4 C 0.8296(3) 0.58094(18) 0.1501(3)
H44_4 H 0.8050 0.5949 0.1884
N14_4 N 0.5594(2) 0.49780(16) 0.0761(2)
C56_4 C 0.6082(3) 0.4653(2) 0.0445(3)
H45_4 H 0.5907 0.4329 0.0205
C57_4 C 0.6838(3) 0.4824(2) 0.0496(3)
H46_4 H 0.7172 0.4609 0.0296
C58_4 C 0.7100(3) 0.53112(19) 0.0842(3)
C59_4 C 0.6611(3) 0.5631(2) 0.1152(3)
H47_4 H 0.6790 0.5956 0.1389
C60_4 C 0.5854(3) 0.54695(19) 0.1113(3)
H48_4 H 0.5524 0.5686 0.1318
Cl1_6 Cl 0.0000 0.67247(8) 0.7500
C21_4 C 0.2098(3) 0.5464(2) 0.4114(3)
C22_4 C 0.1746(3) 0.52556(19) 0.4691(3)
H17_4 H 0.2018 0.5025 0.5103
C23_4 C 0.0973(3) 0.53956(18) 0.4649(3)
H18_4 H 0.0731 0.5257 0.5035
N5_4 N 0.0568(2) 0.57397(16) 0.4033(3)
C24_4 C 0.0929(3) 0.59461(18) 0.3459(3)
H19_4 H 0.0658 0.6176 0.3046
C25_4 C 0.1704(3) 0.58094(18) 0.3499(3)
H20_4 H 0.1950 0.5949 0.3116
N6_4 N 0.4406(2) 0.49780(16) 0.4239(2)
C26_4 C 0.3918(3) 0.4653(2) 0.4555(3)
H21_4 H 0.4093 0.4329 0.4795
C27_4 C 0.3162(3) 0.4824(2) 0.4504(3)
H22_4 H 0.2828 0.4609 0.4704
C28_4 C 0.2900(3) 0.53112(19) 0.4158(3)
C29_4 C 0.3389(3) 0.5631(2) 0.3848(3)
H23_4 H 0.3210 0.5956 0.3611
C30_4 C 0.4146(3) 0.54695(19) 0.3887(3)
H24_4 H 0.4476 0.5686 0.3682
Cl2 Cl 0.0000 0.80979(9) 0.7500
Cl2_2 Cl 1.0000 0.80979(9) 0.7500
Cl2_3 Cl 0.5000 0.30979(9) 0.7500
Cl2_4 Cl -0.0000 0.19021(9) 0.2500
Cl2_5 Cl 1.0000 0.19021(9) 0.2500
Cl2_6 Cl 0.5000 0.69021(9) 0.2500
loop_
_geom_bond_atom_site_label_1
_geom_bond_atom_site_label_2
_geom_bond_site_symmetry_1
_geom_bond_site_symmetry_2
C51 C52 1_555 1_555
C53 C52 1_555 1_555
C54 N13 1_555 1_555
H43 C54 1_555 1_555
C55 C51 1_555 1_555
H44 C55 1_555 1_555
N14 C56 1_555 1_555
C56 H45 1_555 1_555
C57 C56 1_555 1_555
H46 C57 1_555 1_555
C58 C51 1_555 1_555
C59 C58 1_555 1_555
H47 C59 1_555 1_555
C60 N14 1_555 1_555
H48 C60 1_555 1_555
C53 N13 1_555 1_555
C54 C55 1_555 1_555
C57 C58 1_555 1_555
C59 C60 1_555 1_555
S8 Cu11 1_555 1_555
S6 Cu11 1_555 1_555
C11 N3 1_555 1_555
H9 C11 1_555 1_555
C12 C11 1_555 1_555
H10 C12 1_555 1_555
C13 C12 1_555 1_555
C14 C13 1_555 1_555
H11 C14 1_555 1_555
C15 N3 1_555 1_555
H12 C15 1_555 1_555
C16 C13 1_555 1_555
C17 C16 1_555 1_555
H13 C17 1_555 1_555
C18 C16 1_555 1_555
H14 C18 1_555 1_555
N4 C19 1_555 1_555
C19 C18 1_555 1_555
H15 C19 1_555 1_555
C20 C17 1_555 1_555
H16 C20 1_555 1_555
C21 C22 1_555 1_555
C22 H17 1_555 1_555
C23 C22 1_555 1_555
H18 C23 1_555 1_555
C24 N5 1_555 1_555
H19 C24 1_555 1_555
C25 C21 1_555 1_555
H20 C25 1_555 1_555
N6 C26 1_555 1_555
C26 H21 1_555 1_555
C27 C26 1_555 1_555
H22 C27 1_555 1_555
C28 C21 1_555 1_555
C29 C28 1_555 1_555
H23 C29 1_555 1_555
C30 N6 1_555 1_555
H24 C30 1_555 1_555
Cu6 N9 1_555 1_555
Cu11 Cl1 1_555 1_555
Cu9 N4 1_555 1_555
N9 C41 1_555 1_555
C41 H33 1_555 1_555
C42 C41 1_555 1_555
H34 C42 1_555 1_555
C43 C42 1_555 1_555
C44 C43 1_555 1_555
H35 C44 1_555 1_555
C45 N9 1_555 1_555
H36 C45 1_555 1_555
C46 C43 1_555 1_555
C47 C46 1_555 1_555
H37 C47 1_555 1_555
C48 C46 1_555 1_555
H38 C48 1_555 1_555
C49 C48 1_555 1_555
H39 C49 1_555 1_555
C50 C47 1_555 1_555
H40 C50 1_555 1_555
C14 C15 1_555 1_555
N4 C20 1_555 1_555
C23 N5 1_555 1_555
C24 C25 1_555 1_555
C27 C28 1_555 1_555
C29 C30 1_555 1_555
C44 C45 1_555 1_555
N11 C49 1_555 1_555
N11 C50 1_555 1_555
C11_2 N10 1_555 1_555
H9_2 C11_2 1_555 1_555
C12_2 C11_2 1_555 1_555
H10_2 C12_2 1_555 1_555
C13_2 C12_2 1_555 1_555
C14_2 C13_2 1_555 1_555
H11_2 C14_2 1_555 1_555
C15_2 N10 1_555 1_555
H12_2 C15_2 1_555 1_555
C16_2 C13_2 1_555 1_555
C17_2 C16_2 1_555 1_555
H13_2 C17_2 1_555 1_555
C18_2 C16_2 1_555 1_555
H14_2 C18_2 1_555 1_555
N4_2 C19_2 1_555 1_555
C19_2 C18_2 1_555 1_555
H15_2 C19_2 1_555 1_555
C20_2 C17_2 1_555 1_555
H16_2 C20_2 1_555 1_555
Cu9_2 N4_2 1_555 1_555
C14_2 C15_2 1_555 1_555
N4_2 C20_2 1_555 1_555
W1 O1 1_555 1_555
S1 W1 1_555 1_555
S2 W1 1_555 1_555
Cu1 W1 1_555 1_555
S3 W1 1_555 1_555
Cu6 W1 1_555 1_555
Cu9 W1 1_555 1_555
N1 Cu1 1_555 1_555
C1 N1 1_555 1_555
H1 C1 1_555 1_555
Cl1_2 Cu9 1_555 1_555
C21_2 C22_2 1_555 1_555
C22_2 H17_2 1_555 1_555
C23_2 C22_2 1_555 1_555
H18_2 C23_2 1_555 1_555
N5_2 Cu1 1_555 1_555
C24_2 N5_2 1_555 1_555
H19_2 C24_2 1_555 1_555
C25_2 C21_2 1_555 1_555
H20_2 C25_2 1_555 1_555
C28_2 C21_2 1_555 1_555
C29_2 C28_2 1_555 1_555
H23_2 C29_2 1_555 1_555
H24_2 C30_2 1_555 1_555
W2 O2 1_555 1_555
S4 W2 1_555 1_555
S7 Cu9_2 1_555 1_555
Cu4 W2 1_555 1_555
Cu6_2 W2 1_555 1_555
Cu9_2 Cl1_2 1_555 1_555
N7 Cu4 1_555 1_555
C31 N7 1_555 1_555
H25 C31 1_555 1_555
C32 N7 1_555 1_555
H26 C32 1_555 1_555
N8 Cu6 1_555 1_555
C33 N8 1_555 1_555
H27 C33 1_555 1_555
C34 C33 1_555 1_555
H28 C34 1_555 1_555
C35 C34 1_555 1_555
C36 C35 1_555 1_555
H29 C36 1_555 1_555
C37 N8 1_555 1_555
H30 C37 1_555 1_555
C38 C35 1_555 1_555
C39 C32 1_555 1_555
H31 C39 1_555 1_555
C40 C31 1_555 1_555
H32 C40 1_555 1_555
S1 Cu1 1_555 1_555
S1 Cu6 1_555 1_555
S2 Cu1 1_555 1_555
S2 Cu9 1_555 1_555
S3 Cu6 1_555 1_555
S3 Cu9 1_555 1_555
C23_2 N5_2 1_555 1_555
C24_2 C25_2 1_555 1_555
C29_2 C30_2 1_555 1_555
S4 Cu4 1_555 1_555
S4 Cu6_2 1_555 1_555
S9 Cu9_2 1_555 1_555
C36 C37 1_555 1_555
C38 C39 1_555 1_555
C38 C40 1_555 1_555
H2 C2 1_555 1_555
N2 C3 1_555 1_555
C3 H3 1_555 1_555
C4 C3 1_555 1_555
H4 C4 1_555 1_555
C5 C4 1_555 1_555
C6 C5 1_555 1_555
H5 C6 1_555 1_555
C7 N2 1_555 1_555
H6 C7 1_555 1_555
C8 C5 1_555 1_555
C9 C2 1_555 1_555
H7 C9 1_555 1_555
H8 C10 1_555 1_555
N6_2 C26_2 1_555 1_555
C26_2 H21_2 1_555 1_555
C27_2 C26_2 1_555 1_555
H22_2 C27_2 1_555 1_555
Cu6_2 N2 1_555 1_555
C6 C7 1_555 1_555
C8 C9 1_555 1_555
C8 C10 1_555 1_555
W1_2 O1_2 1_555 1_555
S1_2 W1_2 1_555 1_555
S2_2 W1_2 1_555 1_555
Cu1_2 W1_2 1_555 1_555
S3_2 W1_2 1_555 1_555
Cu2 W1_2 1_555 1_555
Cu3 W1_2 1_555 1_555
N1_2 Cu1_2 1_555 1_555
C1_2 N1_2 1_555 1_555
H1_2 C1_2 1_555 1_555
C2_2 N1_2 1_555 1_555
H2_2 C2_2 1_555 1_555
Cl1_3 Cu3 1_555 1_555
N2_2 C3_2 1_555 1_555
C3_2 H3_2 1_555 1_555
C4_2 C3_2 1_555 1_555
H4_2 C4_2 1_555 1_555
C5_2 C4_2 1_555 1_555
C6_2 C5_2 1_555 1_555
H5_2 C6_2 1_555 1_555
C7_2 N2_2 1_555 1_555
H6_2 C7_2 1_555 1_555
C8_2 C5_2 1_555 1_555
C9_2 C2_2 1_555 1_555
H7_2 C9_2 1_555 1_555
C10_2 C1_2 1_555 1_555
H8_2 C10_2 1_555 1_555
W4 S5 1_555 1_555
S5 Cu5 1_555 1_555
Cu5 N2_2 1_555 1_555
H26_2 C32_2 1_555 1_555
N8_2 Cu2 1_555 1_555
C33_2 N8_2 1_555 1_555
H27_2 C33_2 1_555 1_555
C34_2 C33_2 1_555 1_555
H28_2 C34_2 1_555 1_555
C35_2 C34_2 1_555 1_555
C36_2 C35_2 1_555 1_555
H29_2 C36_2 1_555 1_555
C37_2 N8_2 1_555 1_555
H30_2 C37_2 1_555 1_555
C38_2 C35_2 1_555 1_555
C39_2 C32_2 1_555 1_555
H31_2 C39_2 1_555 1_555
H32_2 C40_2 1_555 1_555
N10_2 Cu5 1_555 1_555
N14_2 C56_2 1_555 1_555
C56_2 H45_2 1_555 1_555
C57_2 C56_2 1_555 1_555
H46_2 C57_2 1_555 1_555
S1_2 Cu1_2 1_555 1_555
S1_2 Cu2 1_555 1_555
S2_2 Cu1_2 1_555 1_555
S2_2 Cu3 1_555 1_555
S3_2 Cu2 1_555 1_555
S3_2 Cu3 1_555 1_555
C6_2 C7_2 1_555 1_555
C8_2 C9_2 1_555 1_555
C8_2 C10_2 1_555 1_555
W4 Cu5 1_555 1_555
C36_2 C37_2 1_555 1_555
C38_2 C39_2 1_555 1_555
C38_2 C40_2 1_555 1_555
W4 O2_2 1_555 1_555
Cu4_2 W4 1_555 1_555
N7_2 Cu4_2 1_555 1_555
C31_2 N7_2 1_555 1_555
H25_2 C31_2 1_555 1_555
C51_2 C52_2 1_555 1_555
C53_2 C52_2 1_555 1_555
N13_2 Cu4_2 1_555 1_555
C54_2 N13_2 1_555 1_555
H43_2 C54_2 1_555 1_555
C55_2 C51_2 1_555 1_555
H44_2 C55_2 1_555 1_555
C58_2 C51_2 1_555 1_555
C59_2 C58_2 1_555 1_555
H47_2 C59_2 1_555 1_555
H48_2 C60_2 1_555 1_555
S5 Cu4_2 1_555 1_555
C53_2 N13_2 1_555 1_555
C54_2 C55_2 1_555 1_555
C59_2 C60_2 1_555 1_555
C11_3 N10_2 1_555 1_555
H9_3 C11_3 1_555 1_555
C12_3 C11_3 1_555 1_555
H10_3 C12_3 1_555 1_555
C13_3 C12_3 1_555 1_555
C14_3 C13_3 1_555 1_555
H11_3 C14_3 1_555 1_555
C15_3 N10_2 1_555 1_555
H12_3 C15_3 1_555 1_555
C16_3 C13_3 1_555 1_555
C17_3 C16_3 1_555 1_555
H13_3 C17_3 1_555 1_555
C18_3 C16_3 1_555 1_555
H14_3 C18_3 1_555 1_555
N4_3 C19_3 1_555 1_555
C19_3 C18_3 1_555 1_555
H15_3 C19_3 1_555 1_555
C20_3 C17_3 1_555 1_555
H16_3 C20_3 1_555 1_555
C14_3 C15_3 1_555 1_555
N4_3 C20_3 1_555 1_555
Cu6_4 N9_2 1_555 1_555
N9_2 C41_2 1_555 1_555
C41_2 H33_2 1_555 1_555
C42_2 C41_2 1_555 1_555
H34_2 C42_2 1_555 1_555
C43_2 C42_2 1_555 1_555
C44_2 C43_2 1_555 1_555
H35_2 C44_2 1_555 1_555
C45_2 N9_2 1_555 1_555
H36_2 C45_2 1_555 1_555
C46_2 C43_2 1_555 1_555
C47_2 C46_2 1_555 1_555
H37_2 C47_2 1_555 1_555
C48_2 C46_2 1_555 1_555
H38_2 C48_2 1_555 1_555
C49_2 C48_2 1_555 1_555
H39_2 C49_2 1_555 1_555
C50_2 C47_2 1_555 1_555
H40_2 C50_2 1_555 1_555
C44_2 C45_2 1_555 1_555
N12 C49_2 1_555 1_555
N12 C50_2 1_555 1_555
W4_2 O2_3 1_555 1_555
S4_2 W4_2 1_555 1_555
Cu4_3 W4_2 1_555 1_555
Cu6_4 W4_2 1_555 1_555
N7_3 Cu4_3 1_555 1_555
C31_3 N7_3 1_555 1_555
H25_3 C31_3 1_555 1_555
C51_3 C52_3 1_555 1_555
C53_3 C52_3 1_555 1_555
N13_3 Cu4_3 1_555 1_555
C54_3 N13_3 1_555 1_555
H43_3 C54_3 1_555 1_555
C55_3 C51_3 1_555 1_555
H44_3 C55_3 1_555 1_555
C58_3 C51_3 1_555 1_555
C59_3 C58_3 1_555 1_555
H47_3 C59_3 1_555 1_555
H48_3 C60_3 1_555 1_555
S4_2 Cu4_3 1_555 1_555
S4_2 Cu6_4 1_555 1_555
C53_3 N13_3 1_555 1_555
C54_3 C55_3 1_555 1_555
C59_3 C60_3 1_555 1_555
W1_3 O1_3 1_555 1_555
S1_3 W1_3 1_555 1_555
S2_3 W1_3 1_555 1_555
Cu1_3 W1_3 1_555 1_555
S3_3 W1_3 1_555 1_555
Cu6_3 W1_3 1_555 1_555
Cu9_3 W1_3 1_555 1_555
N1_3 Cu1_3 1_555 1_555
C1_3 N1_3 1_555 1_555
H1_3 C1_3 1_555 1_555
C2_3 N1_3 1_555 1_555
H2_3 C2_3 1_555 1_555
Cl1_4 Cu9_3 1_555 1_555
N2_3 C3_3 1_555 1_555
C3_3 H3_3 1_555 1_555
C4_3 C3_3 1_555 1_555
H4_3 C4_3 1_555 1_555
C5_3 C4_3 1_555 1_555
C6_3 C5_3 1_555 1_555
H5_3 C6_3 1_555 1_555
C7_3 N2_3 1_555 1_555
H6_3 C7_3 1_555 1_555
C8_3 C5_3 1_555 1_555
C9_3 C2_3 1_555 1_555
H7_3 C9_3 1_555 1_555
C10_3 C1_3 1_555 1_555
H8_3 C10_3 1_555 1_555
Cu6_4 N2_3 1_555 1_555
H26_3 C32_3 1_555 1_555
N8_3 Cu6_3 1_555 1_555
C33_3 N8_3 1_555 1_555
H27_3 C33_3 1_555 1_555
C34_3 C33_3 1_555 1_555
H28_3 C34_3 1_555 1_555
C35_3 C34_3 1_555 1_555
C36_3 C35_3 1_555 1_555
H29_3 C36_3 1_555 1_555
C37_3 N8_3 1_555 1_555
H30_3 C37_3 1_555 1_555
C38_3 C35_3 1_555 1_555
C39_3 C32_3 1_555 1_555
H31_3 C39_3 1_555 1_555
H32_3 C40_3 1_555 1_555
N14_3 C56_3 1_555 1_555
C56_3 H45_3 1_555 1_555
C57_3 C56_3 1_555 1_555
H46_3 C57_3 1_555 1_555
S1_3 Cu1_3 1_555 1_555
S1_3 Cu6_3 1_555 1_555
S2_3 Cu1_3 1_555 1_555
S2_3 Cu9_3 1_555 1_555
S3_3 Cu6_3 1_555 1_555
S3_3 Cu9_3 1_555 1_555
C6_3 C7_3 1_555 1_555
C8_3 C9_3 1_555 1_555
C8_3 C10_3 1_555 1_555
C36_3 C37_3 1_555 1_555
C38_3 C39_3 1_555 1_555
C38_3 C40_3 1_555 1_555
H2_4 C2_4 1_555 1_555
N2_4 C3_4 1_555 1_555
C3_4 H3_4 1_555 1_555
C4_4 C3_4 1_555 1_555
H4_4 C4_4 1_555 1_555
C5_4 C4_4 1_555 1_555
C6_4 C5_4 1_555 1_555
H5_4 C6_4 1_555 1_555
C7_4 N2_4 1_555 1_555
H6_4 C7_4 1_555 1_555
C8_4 C5_4 1_555 1_555
C9_4 C2_4 1_555 1_555
H7_4 C9_4 1_555 1_555
H8_4 C10_4 1_555 1_555
N6_3 C26_3 1_555 1_555
C26_3 H21_3 1_555 1_555
C27_3 C26_3 1_555 1_555
H22_3 C27_3 1_555 1_555
W3 S5_2 1_555 1_555
S5_2 Cu5_2 1_555 1_555
Cu5_2 N2_4 1_555 1_555
C6_4 C7_4 1_555 1_555
C8_4 C9_4 1_555 1_555
C8_4 C10_4 1_555 1_555
W3 Cu5_2 1_555 1_555
W1_4 O1_4 1_555 1_555
S1_4 W1_4 1_555 1_555
S2_4 W1_4 1_555 1_555
Cu1_4 W1_4 1_555 1_555
S3_4 W1_4 1_555 1_555
Cu2_2 W1_4 1_555 1_555
Cu3_2 W1_4 1_555 1_555
N1_4 Cu1_4 1_555 1_555
C1_4 N1_4 1_555 1_555
H1_4 C1_4 1_555 1_555
Cl1_5 Cu3_2 1_555 1_555
N3_2 Cu2_2 1_555 1_555
C11_4 N3_2 1_555 1_555
H9_4 C11_4 1_555 1_555
C12_4 C11_4 1_555 1_555
H10_4 C12_4 1_555 1_555
C13_4 C12_4 1_555 1_555
C14_4 C13_4 1_555 1_555
H11_4 C14_4 1_555 1_555
C15_4 N3_2 1_555 1_555
H12_4 C15_4 1_555 1_555
C16_4 C13_4 1_555 1_555
C17_4 C16_4 1_555 1_555
H13_4 C17_4 1_555 1_555
C18_4 C16_4 1_555 1_555
H14_4 C18_4 1_555 1_555
N4_4 C19_4 1_555 1_555
C19_4 C18_4 1_555 1_555
H15_4 C19_4 1_555 1_555
C20_4 C17_4 1_555 1_555
H16_4 C20_4 1_555 1_555
C21_3 C22_3 1_555 1_555
C22_3 H17_3 1_555 1_555
C23_3 C22_3 1_555 1_555
H18_3 C23_3 1_555 1_555
N5_3 Cu1_4 1_555 1_555
C24_3 N5_3 1_555 1_555
H19_3 C24_3 1_555 1_555
C25_3 C21_3 1_555 1_555
H20_3 C25_3 1_555 1_555
C28_3 C21_3 1_555 1_555
C29_3 C28_3 1_555 1_555
H23_3 C29_3 1_555 1_555
H24_3 C30_3 1_555 1_555
W3 O2_4 1_555 1_555
S7_2 Cu8 1_555 1_555
Cu4_4 W3 1_555 1_555
Cu8 Cl1_5 1_555 1_555
N7_4 Cu4_4 1_555 1_555
C31_4 N7_4 1_555 1_555
H25_4 C31_4 1_555 1_555
C32_4 N7_4 1_555 1_555
H26_4 C32_4 1_555 1_555
N8_4 Cu2_2 1_555 1_555
C33_4 N8_4 1_555 1_555
H27_4 C33_4 1_555 1_555
C34_4 C33_4 1_555 1_555
H28_4 C34_4 1_555 1_555
C35_4 C34_4 1_555 1_555
C36_4 C35_4 1_555 1_555
H29_4 C36_4 1_555 1_555
C37_4 N8_4 1_555 1_555
H30_4 C37_4 1_555 1_555
C38_4 C35_4 1_555 1_555
C39_4 C32_4 1_555 1_555
H31_4 C39_4 1_555 1_555
C40_4 C31_4 1_555 1_555
H32_4 C40_4 1_555 1_555
N9_3 C41_3 1_555 1_555
C41_3 H33_3 1_555 1_555
C42_3 C41_3 1_555 1_555
H34_3 C42_3 1_555 1_555
C43_3 C42_3 1_555 1_555
C44_3 C43_3 1_555 1_555
H35_3 C44_3 1_555 1_555
C45_3 N9_3 1_555 1_555
H36_3 C45_3 1_555 1_555
C46_3 C43_3 1_555 1_555
C47_3 C46_3 1_555 1_555
H37_3 C47_3 1_555 1_555
C48_3 C46_3 1_555 1_555
H38_3 C48_3 1_555 1_555
N11_2 Cu3_2 1_555 1_555
N12_2 Cu8 1_555 1_555
C49_3 C48_3 1_555 1_555
H39_3 C49_3 1_555 1_555
C50_3 C47_3 1_555 1_555
H40_3 C50_3 1_555 1_555
S1_4 Cu1_4 1_555 1_555
S1_4 Cu2_2 1_555 1_555
S2_4 Cu1_4 1_555 1_555
S2_4 Cu3_2 1_555 1_555
S3_4 Cu2_2 1_555 1_555
S3_4 Cu3_2 1_555 1_555
C14_4 C15_4 1_555 1_555
N4_4 C20_4 1_555 1_555
C23_3 N5_3 1_555 1_555
C24_3 C25_3 1_555 1_555
C29_3 C30_3 1_555 1_555
S5_2 Cu4_4 1_555 1_555
S9_2 Cu8 1_555 1_555
C36_4 C37_4 1_555 1_555
C38_4 C39_4 1_555 1_555
C38_4 C40_4 1_555 1_555
C44_3 C45_3 1_555 1_555
N11_2 C49_3 1_555 1_555
N11_2 C50_3 1_555 1_555
N9_4 C41_4 1_555 1_555
C41_4 H33_4 1_555 1_555
C42_4 C41_4 1_555 1_555
H34_4 C42_4 1_555 1_555
C43_4 C42_4 1_555 1_555
C44_4 C43_4 1_555 1_555
H35_4 C44_4 1_555 1_555
C45_4 N9_4 1_555 1_555
H36_4 C45_4 1_555 1_555
C46_4 C43_4 1_555 1_555
C47_4 C46_4 1_555 1_555
H37_4 C47_4 1_555 1_555
C48_4 C46_4 1_555 1_555
H38_4 C48_4 1_555 1_555
C49_4 C48_4 1_555 1_555
H39_4 C49_4 1_555 1_555
C50_4 C47_4 1_555 1_555
H40_4 C50_4 1_555 1_555
C44_4 C45_4 1_555 1_555
N12_2 C49_4 1_555 1_555
N12_2 C50_4 1_555 1_555
S6_2 Cu9_4 1_555 1_555
S10 Cu9_4 1_555 1_555
C51_4 C52_4 1_555 1_555
C53_4 C52_4 1_555 1_555
C54_4 N13_4 1_555 1_555
H43_4 C54_4 1_555 1_555
C55_4 C51_4 1_555 1_555
H44_4 C55_4 1_555 1_555
N14_4 C56_4 1_555 1_555
C56_4 H45_4 1_555 1_555
C57_4 C56_4 1_555 1_555
H46_4 C57_4 1_555 1_555
C58_4 C51_4 1_555 1_555
C59_4 C58_4 1_555 1_555
H47_4 C59_4 1_555 1_555
C60_4 N14_4 1_555 1_555
H48_4 C60_4 1_555 1_555
C53_4 N13_4 1_555 1_555
C54_4 C55_4 1_555 1_555
C57_4 C58_4 1_555 1_555
C59_4 C60_4 1_555 1_555
C21_4 C22_4 1_555 1_555
C22_4 H17_4 1_555 1_555
C23_4 C22_4 1_555 1_555
H18_4 C23_4 1_555 1_555
C24_4 N5_4 1_555 1_555
H19_4 C24_4 1_555 1_555
C25_4 C21_4 1_555 1_555
H20_4 C25_4 1_555 1_555
N6_4 C26_4 1_555 1_555
C26_4 H21_4 1_555 1_555
C27_4 C26_4 1_555 1_555
H22_4 C27_4 1_555 1_555
C28_4 C21_4 1_555 1_555
C29_4 C28_4 1_555 1_555
H23_4 C29_4 1_555 1_555
C30_4 N6_4 1_555 1_555
H24_4 C30_4 1_555 1_555
Cu9_4 Cl1_6 1_555 1_555
C23_4 N5_4 1_555 1_555
C24_4 C25_4 1_555 1_555
C27_4 C28_4 1_555 1_555
C29_4 C30_4 1_555 1_555

#END
