
###############################################################################
#
# This file contains modified crystal structure data generated from the
# MOF subset of the Cambridge Structural Database (CSD) v543 
# hosted by the Cambridge Crystallographic Data Centre (CCDC).
#
# This work is licensed under the Creative Commons
# Attribution-NonCommercial-ShareAlike 4.0 International License.
# To view a copy of this license, visit
# http://creativecommons.org/licenses/by-nc-sa/4.0/
# or send a letter to
# Creative Commons, PO Box 1866, Mountain View, CA 94042, USA.
#
# CIF created using the CSD Python API on 29 September 2022
# The structure has been converted into the P1 space group
# The structure has a 3D framework
# The original CSD entry WEXJOB is in the triclinic crystal system
# The framework has been calculated to contain at least 10.0% void space
# The void calculation uses a probe of radius 1.32A, grid spacing 0.4
#
###############################################################################

data_WEXJOB
_chemical_formula_moiety         '(C110 H80 N14 Ni6 O40)n'
_symmetry_cell_setting           triclinic
_symmetry_space_group_name_H-M   'P 1'
_symmetry_Int_Tables_number      1
_space_group_name_Hall           'P 1'
loop_
_symmetry_equiv_pos_site_id
_symmetry_equiv_pos_as_xyz
1 x,y,z
_cell_length_a                   13.4144(9)
_cell_length_b                   16.2982(14)
_cell_length_c                   17.8894(13)
_cell_angle_alpha                113.460(8)
_cell_angle_beta                 104.921(6)
_cell_angle_gamma                96.805(6)
_cell_volume                     3357.41
loop_
_atom_site_label
_atom_site_type_symbol
_atom_site_fract_x
_atom_site_fract_y
_atom_site_fract_z
_atom_site_U_iso_or_equiv
_atom_site_thermal_displace_type
H25 H 0.1852 0.0011 0.7910 0.0480 Uiso
C37 C 0.0531(6) 0.0410(5) 0.7593(5) 0.0423 Uani
H26 H 0.0828 0.1037 0.7953 0.0510 Uiso
N8 N 0.2464(4) 0.1513(4) 0.6556(4) 0.0351 Uani
C56 C 0.2333(6) 0.0610(5) 0.6085(6) 0.0804 Uani
H41 H 0.2922 0.0368 0.6177 0.0970 Uiso
C57 C 0.1408(6) 0.0021(5) 0.5485(6) 0.0664 Uani
C58 C 0.0521(5) 0.0303(4) 0.5326(4) 0.0296 Uani
C59 C 0.0619(7) 0.1216(5) 0.5811(6) 0.0829 Uani
H43 H 0.0028 0.1456 0.5726 0.0990 Uiso
C60 C 0.1592(7) 0.1804(5) 0.6435(6) 0.0729 Uani
H44 H 0.1620 0.2418 0.6773 0.0870 Uiso
Ni11 Ni 0.38173(7) 0.23272(6) 0.76178(5) 0.0275 Uani
Ni3 Ni 0.16683(7) 0.78735(6) 0.69436(6) 0.0299 Uani
N4 N 0.0799(4) 0.8875(4) 0.7081(4) 0.0340 Uani
N6 N 0.0515(5) 0.6959(4) 0.7040(4) 0.0361 Uani
O13 O 0.1724(5) 0.7989(4) 0.5091(3) 0.0609 Uani
O14 O 0.0847(4) 0.7200(3) 0.5594(3) 0.0365 Uani
O19 O 0.2849(4) 0.8579(3) 0.6734(3) 0.0460 Uani
H5 H 0.2484 0.8388 0.6206 0.0550 Uiso
H6 H 0.3208 0.9138 0.6992 0.0550 Uiso
O20 O 0.2550(4) 0.6861(3) 0.6783(3) 0.0496 Uani
H7 H 0.3045 0.7018 0.7232 0.0590 Uiso
H8 H 0.2063 0.6959 0.6442 0.0590 Uiso
C27 C 0.0174(5) 0.6826(4) 0.4104(4) 0.0345 Uani
C28 C 0.0970(6) 0.7409(5) 0.5010(5) 0.0325 Uani
C29 C 0.0453(6) 0.6804(5) 0.3399(5) 0.0410 Uani
H19 H 0.1112 0.7154 0.3490 0.0490 Uiso
C36 C 0.1139(6) 0.9780(4) 0.7562(5) 0.0402 Uani
C46 C 0.0095(8) 0.7184(6) 0.7634(6) 0.0794 Uani
H33 H 0.0315 0.7793 0.8061 0.0940 Uiso
C50 C 0.0200(6) 0.6092(5) 0.6412(5) 0.0441 Uani
H36 H 0.0502 0.5931 0.5976 0.0530 Uiso
H42 H 0.1391 0.9404 0.5175 0.0800 Uiso
O43 O 0.2387(4) 0.8529(3) 0.8266(3) 0.0364 Uani
N5 N 0.7179(4) 0.1721(4) 0.7025(3) 0.0304 Uani
O3 O 0.3923(4) 0.2222(4) 0.5388(3) 0.0623 Uani
O4 O 0.5274(3) 0.1611(3) 0.5706(3) 0.0263 Uani
C2 C 0.4672(5) 0.0020(4) 0.3017(4) 0.0277 Uani
C3 C 0.4839(6) 0.0494(4) 0.3911(4) 0.0338 Uani
H9 H 0.5279 0.0329 0.4294 0.0410 Uiso
C4 C 0.4349(6) 0.1211(4) 0.4226(4) 0.0343 Uani
C5 C 0.4522(6) 0.1709(5) 0.5187(4) 0.0324 Uani
C6 C 0.3669(6) 0.1420(4) 0.3642(4) 0.0341 Uani
H10 H 0.3338 0.1894 0.3844 0.0410 Uiso
C7 C 0.3473(6) 0.0948(5) 0.2779(4) 0.0375 Uani
H11 H 0.2996 0.1093 0.2399 0.0450 Uiso
C8 C 0.3977(5) 0.0248(5) 0.2449(4) 0.0317 Uani
C10 C 0.3735(6) 0.0277(6) 0.1023(5) 0.0478 Uani
H12 H 0.3823 0.0914 0.1286 0.0580 Uiso
H22 H 0.8609 0.0596 0.4825 0.0800 Uiso
C38 C 0.9473(5) 0.0090(5) 0.7079(5) 0.0331 Uani
C41 C 0.8751(5) 0.0713(5) 0.7065(5) 0.0338 Uani
C42 C 0.8837(6) 0.1514(5) 0.7761(5) 0.0489 Uani
H29 H 0.9427 0.1741 0.8261 0.0590 Uiso
C43 C 0.8059(6) 0.1984(5) 0.7726(5) 0.0526 Uani
H30 H 0.8139 0.2520 0.8217 0.0630 Uiso
C44 C 0.7134(6) 0.0988(5) 0.6337(5) 0.0460 Uani
H31 H 0.6568 0.0811 0.5832 0.0550 Uiso
C45 C 0.7880(6) 0.0452(5) 0.6312(5) 0.0451 Uani
Ni10 Ni 0.58978(7) 0.23578(5) 0.70326(5) 0.0254 Uani
Ni1 Ni 0.41022(7) 0.76422(5) 0.29674(5) 0.0254 Uani
Ni2 Ni 0.61827(7) 0.76728(6) 0.23822(5) 0.0275 Uani
N2 N 0.8721(6) 0.6227(7) 0.4586(5) 0.0693 Uani
N3 N 0.7536(4) 0.8487(4) 0.3444(4) 0.0351 Uani
N7 N 0.6792(5) 0.3492(4) 0.7003(4) 0.0369 Uani
O1 O 0.5977(4) 0.9603(3) 0.2425(3) 0.0414 Uani
O2 O 0.5241(3) 0.8624(3) 0.2813(3) 0.0246 Uani
O9 O 0.6922(3) 0.6618(3) 0.2001(3) 0.0291 Uani
O10 O 0.5769(4) 0.5503(3) 0.2004(3) 0.0466 Uani
O15 O 0.8390(5) 0.6892(6) 0.4942(4) 0.1037 Uani
O16 O 0.8695(8) 0.5513(6) 0.4669(6) 0.1260 Uani
O17 O 0.6814(4) 0.8238(3) 0.1696(3) 0.0452 Uani
H1 H 0.6454 0.7962 0.1182 0.0540 Uiso
H2 H 0.6545 0.8679 0.1932 0.0540 Uiso
O18 O 0.5430(3) 0.7082(3) 0.2999(3) 0.0316 Uani
H3 H 0.5537 0.6576 0.2679 0.0380 Uiso
H4 H 0.5647 0.7321 0.3548 0.0380 Uiso
C1 C 0.5325(5) 0.9378(5) 0.2722(4) 0.0254 Uani
C9 C 0.3771(5) 0.9780(5) 0.1504(4) 0.0323 Uani
C11 C 0.3562(6) 0.9800(6) 0.0135(5) 0.0439 Uani
C14 C 0.3463(6) 0.8399(5) 0.0186(5) 0.0484 Uani
C15 C 0.3631(6) 0.8833(5) 0.1066(5) 0.0475 Uani
H14 H 0.3651 0.8482 0.1369 0.0570 Uiso
C16 C 0.6524(6) 0.5789(5) 0.1799(4) 0.0357 Uani
C17 C 0.6970(5) 0.5085(4) 0.1225(4) 0.0301 Uani
C18 C 0.6351(5) 0.4476(4) 0.0402(4) 0.0320 Uani
H15 H 0.5624 0.4439 0.0239 0.0380 Uiso
C21 C 0.7797(5) 0.3934(5) 0.0051(5) 0.0379 Uani
C22 C 0.8461(5) 0.4514(5) 0.0892(4) 0.0383 Uani
H17 H 0.9177 0.4511 0.1056 0.0460 Uiso
C23 C 0.8067(5) 0.5100(5) 0.1491(4) 0.0348 Uani
C24 C 0.8778(5) 0.5715(5) 0.2401(4) 0.0321 Uani
C25 C 0.8495(6) 0.5724(5) 0.3088(4) 0.0383 Uani
H18 H 0.7844 0.5360 0.2994 0.0470 Uiso
C26 C 0.9171(6) 0.6265(5) 0.3904(5) 0.0393 Uani
C30 C 0.9760(6) 0.6266(5) 0.2564(5) 0.0442 Uani
H20 H 0.9954 0.6272 0.2103 0.0530 Uiso
C31 C 0.7667(6) 0.9390(5) 0.3915(6) 0.0804 Uani
H21 H 0.7078 0.9632 0.3823 0.0970 Uiso
C32 C 0.8592(6) 0.9979(5) 0.4515(6) 0.0664 Uani
C33 C 0.9479(5) 0.9697(4) 0.4674(4) 0.0296 Uani
C34 C 0.9381(7) 0.8784(5) 0.4189(6) 0.0829 Uani
H23 H 0.9972 0.8544 0.4274 0.0990 Uiso
C35 C 0.8408(7) 0.8196(5) 0.3565(6) 0.0729 Uani
H24 H 0.8380 0.7582 0.3227 0.0870 Uiso
C39 C 0.9093(6) 0.9138(5) 0.6553(6) 0.0556 Uani
H27 H 0.8385 0.8887 0.6197 0.0670 Uiso
C40 C 0.9779(6) 0.8583(5) 0.6571(6) 0.0548 Uani
H28 H 0.9516 0.7955 0.6200 0.0660 Uiso
H32 H 0.7800 0.9934 0.5805 0.0540 Uiso
C47 C 0.9324(8) 0.6569(6) 0.7677(6) 0.0805 Uani
H34 H 0.9056 0.6764 0.8133 0.0960 Uiso
C48 C 0.8952(6) 0.5649(5) 0.7027(5) 0.0422 Uani
C49 C 0.9442(6) 0.5431(5) 0.6394(5) 0.0422 Uani
H35 H 0.9252 0.4831 0.5955 0.0510 Uiso
C51 C 0.8158(6) 0.4943(5) 0.7023(5) 0.0438 Uani
C52 C 0.8084(7) 0.4941(6) 0.7765(6) 0.0675 Uani
H37 H 0.8504 0.5431 0.8292 0.0810 Uiso
C53 C 0.7394(7) 0.4223(5) 0.7760(6) 0.0672 Uani
H38 H 0.7348 0.4249 0.8278 0.0810 Uiso
C54 C 0.6860(6) 0.3499(5) 0.6287(5) 0.0460 Uani
H39 H 0.6443 0.2999 0.5766 0.0550 Uiso
C55 C 0.7513(6) 0.4200(6) 0.6254(6) 0.0541 Uani
H40 H 0.7517 0.4173 0.5725 0.0650 Uiso
O25 O 0.7613(4) 0.1471(3) 0.1734(3) 0.0364 Uani
O26 O 0.6486(7) 0.2305(5) 0.1525(4) 0.1218 Uani
O31 O 0.4956(3) 0.6867(3) 0.1253(3) 0.0301 Uani
O32 O 0.3522(3) 0.7018(3) 0.1662(3) 0.0275 Uani
C72 C 0.6601(6) 0.1125(6) 0.0300(5) 0.0449 Uani
C73 C 0.6907(7) 0.1672(6) 0.1259(5) 0.0595 Uani
H57 H 0.6609 0.2235 0.0083 0.0580 Uiso
C79 C 0.3263(5) 0.6088(4) 0.0201(4) 0.0267 Uani
C80 C 0.3972(5) 0.6710(4) 0.1120(4) 0.0203 Uani
H60 H 0.1924 0.6443 0.0346 0.0450 Uiso
Ni13 Ni 0.83317(7) 0.21265(6) 0.30564(6) 0.0299 Uani
N17 N 0.2821(4) 0.8279(4) 0.2975(3) 0.0304 Uani
N19 N 0.3208(5) 0.6508(4) 0.2997(4) 0.0369 Uani
O42 O 0.4726(3) 0.8389(3) 0.4294(3) 0.0263 Uani
O6 O 0.3514(7) 0.7695(5) 0.8475(4) 0.1218 Uani
O11 O 0.5044(3) 0.3133(3) 0.8747(3) 0.0301 Uani
O12 O 0.6478(3) 0.2982(3) 0.8338(3) 0.0275 Uani
C12 C 0.3399(6) 0.8875(6) 0.9700(5) 0.0449 Uani
C13 C 0.3093(7) 0.8328(6) 0.8741(5) 0.0595 Uani
H13 H 0.3391 0.7765 0.9917 0.0580 Uiso
C19 C 0.6737(5) 0.3912(4) 0.9799(4) 0.0267 Uani
C20 C 0.6028(5) 0.3290(4) 0.8880(4) 0.0203 Uani
H16 H 0.8076 0.3557 0.9654 0.0450 Uiso
N10 N 0.1279(6) 0.3773(7) 0.5414(5) 0.0693 Uani
O21 O 0.4023(4) 0.0397(3) 0.7575(3) 0.0414 Uani
O22 O 0.4759(3) 0.1376(3) 0.7187(3) 0.0246 Uani
O29 O 0.3078(3) 0.3382(3) 0.7999(3) 0.0291 Uani
O30 O 0.4231(4) 0.4497(3) 0.7996(3) 0.0466 Uani
O35 O 0.1610(5) 0.3108(6) 0.5058(4) 0.1037 Uani
O36 O 0.1305(8) 0.4487(6) 0.5331(6) 0.1260 Uani
O37 O 0.3186(4) 0.1762(3) 0.8304(3) 0.0452 Uani
H45 H 0.3546 0.2038 0.8818 0.0540 Uiso
H46 H 0.3455 0.1321 0.8068 0.0540 Uiso
O38 O 0.4570(3) 0.2918(3) 0.7001(3) 0.0316 Uani
H47 H 0.4463 0.3424 0.7321 0.0380 Uiso
H48 H 0.4353 0.2679 0.6452 0.0380 Uiso
C61 C 0.4675(5) 0.0622(5) 0.7278(4) 0.0254 Uani
C69 C 0.6229(5) 0.0220(5) 0.8496(4) 0.0323 Uani
C71 C 0.6438(6) 0.0200(6) 0.9865(5) 0.0439 Uani
C74 C 0.6537(6) 0.1601(5) 0.9814(5) 0.0484 Uani
C75 C 0.6369(6) 0.1167(5) 0.8934(5) 0.0475 Uani
H58 H 0.6349 0.1518 0.8631 0.0570 Uiso
C76 C 0.3476(6) 0.4211(5) 0.8201(4) 0.0357 Uani
C77 C 0.3030(5) 0.4915(4) 0.8775(4) 0.0301 Uani
C78 C 0.3649(5) 0.5524(4) 0.9598(4) 0.0320 Uani
H59 H 0.4376 0.5561 0.9761 0.0380 Uiso
C81 C 0.2203(5) 0.6066(5) 0.9949(5) 0.0379 Uani
C82 C 0.1539(5) 0.5486(5) 0.9108(4) 0.0383 Uani
H61 H 0.0823 0.5489 0.8944 0.0460 Uiso
C83 C 0.1933(5) 0.4900(5) 0.8509(4) 0.0348 Uani
C84 C 0.1222(5) 0.4285(5) 0.7599(4) 0.0321 Uani
C85 C 0.1505(6) 0.4276(5) 0.6912(4) 0.0383 Uani
H62 H 0.2156 0.4640 0.7006 0.0470 Uiso
C86 C 0.0829(6) 0.3735(5) 0.6096(5) 0.0393 Uani
C90 C 0.0240(6) 0.3734(5) 0.7436(5) 0.0442 Uani
H64 H 0.0046 0.3728 0.7897 0.0530 Uiso
C94 C 0.0907(6) 0.0862(5) 0.3447(6) 0.0556 Uani
H67 H 0.1615 0.1113 0.3803 0.0670 Uiso
C95 C 0.0221(6) 0.1417(5) 0.3429(6) 0.0548 Uani
H68 H 0.0484 0.2045 0.3800 0.0660 Uiso
H72 H 0.2200 0.0066 0.4195 0.0540 Uiso
C102 C 0.0676(8) 0.3431(6) 0.2323(6) 0.0805 Uani
H74 H 0.0944 0.3236 0.1867 0.0960 Uiso
C103 C 0.1048(6) 0.4351(5) 0.2973(5) 0.0422 Uani
C104 C 0.0558(6) 0.4569(5) 0.3606(5) 0.0422 Uani
H75 H 0.0748 0.5169 0.4045 0.0510 Uiso
C106 C 0.1842(6) 0.5057(5) 0.2977(5) 0.0438 Uani
C107 C 0.1916(7) 0.5059(6) 0.2235(6) 0.0675 Uani
H77 H 0.1496 0.4569 0.1708 0.0810 Uiso
C108 C 0.2606(7) 0.5777(5) 0.2240(6) 0.0672 Uani
H78 H 0.2652 0.5751 0.1722 0.0810 Uiso
C109 C 0.3140(6) 0.6501(5) 0.3713(5) 0.0460 Uani
H79 H 0.3557 0.7001 0.4234 0.0550 Uiso
C110 C 0.2487(6) 0.5800(6) 0.3746(6) 0.0541 Uani
H80 H 0.2483 0.5827 0.4275 0.0650 Uiso
O23 O 0.6077(4) 0.7778(4) 0.4612(3) 0.0623 Uani
C62 C 0.5328(5) 0.9980(4) 0.6983(4) 0.0277 Uani
C63 C 0.5161(6) 0.9506(4) 0.6089(4) 0.0338 Uani
H53 H 0.4721 0.9671 0.5706 0.0410 Uiso
C64 C 0.5651(6) 0.8789(4) 0.5774(4) 0.0343 Uani
C65 C 0.5478(6) 0.8291(5) 0.4813(4) 0.0324 Uani
C66 C 0.6331(6) 0.8580(4) 0.6358(4) 0.0341 Uani
H54 H 0.6662 0.8106 0.6156 0.0410 Uiso
C67 C 0.6527(6) 0.9052(5) 0.7221(4) 0.0375 Uani
H55 H 0.7004 0.8907 0.7601 0.0450 Uiso
C68 C 0.6023(5) 0.9752(5) 0.7551(4) 0.0317 Uani
C70 C 0.6265(6) 0.9723(6) 0.8977(5) 0.0478 Uani
H56 H 0.6177 0.9086 0.8714 0.0580 Uiso
C93 C 0.0527(5) 0.9910(5) 0.2921(5) 0.0331 Uani
C96 C 0.1249(5) 0.9287(5) 0.2935(5) 0.0338 Uani
C97 C 0.1163(6) 0.8486(5) 0.2239(5) 0.0489 Uani
H69 H 0.0573 0.8259 0.1739 0.0590 Uiso
C98 C 0.1941(6) 0.8016(5) 0.2274(5) 0.0526 Uani
H70 H 0.1861 0.7480 0.1783 0.0630 Uiso
C99 C 0.2866(6) 0.9012(5) 0.3663(5) 0.0460 Uani
H71 H 0.3432 0.9189 0.4168 0.0550 Uiso
C100 C 0.2120(6) 0.9548(5) 0.3688(5) 0.0451 Uani
N11 N 0.9201(4) 0.1125(4) 0.2919(4) 0.0340 Uani
N13 N 0.9485(5) 0.3041(4) 0.2960(4) 0.0361 Uani
O33 O 0.8276(5) 0.2011(4) 0.4909(3) 0.0609 Uani
O34 O 0.9153(4) 0.2800(3) 0.4406(3) 0.0365 Uani
O39 O 0.7151(4) 0.1421(3) 0.3266(3) 0.0460 Uani
H49 H 0.7516 0.1612 0.3794 0.0550 Uiso
H50 H 0.6792 0.0862 0.3008 0.0550 Uiso
O40 O 0.7450(4) 0.3139(3) 0.3217(3) 0.0496 Uani
H51 H 0.6955 0.2982 0.2768 0.0590 Uiso
H52 H 0.7937 0.3041 0.3558 0.0590 Uiso
C87 C 0.9826(5) 0.3174(4) 0.5896(4) 0.0345 Uani
C88 C 0.9030(6) 0.2591(5) 0.4990(5) 0.0325 Uani
C89 C 0.9547(6) 0.3196(5) 0.6601(5) 0.0410 Uani
H63 H 0.8888 0.2846 0.6510 0.0490 Uiso
C91 C 0.8861(6) 0.0220(4) 0.2438(5) 0.0402 Uani
C101 C 0.9905(8) 0.2816(6) 0.2366(6) 0.0794 Uani
H73 H 0.9685 0.2207 0.1939 0.0940 Uiso
C105 C 0.9800(6) 0.3908(5) 0.3588(5) 0.0441 Uani
H76 H 0.9498 0.4069 0.4024 0.0530 Uiso
H65 H 0.8148 0.9989 0.2090 0.0480 Uiso
C92 C 0.9469(6) 0.9590(5) 0.2407(5) 0.0423 Uani
H66 H 0.9172 0.8963 0.2047 0.0510 Uiso
N1 N 0.3557(7) 0.0374(5) 0.9671(5) 0.0616 Uani
O7 O 0.3127(10) 0.0960(7) 0.9836(6) 0.1726 Uani
O8 O 0.4002(5) 0.0245(5) 0.9168(4) 0.0790 Uani
N9 N 0.6443(7) 0.9626(5) 0.0329(5) 0.0616 Uani
O27 O 0.6873(10) 0.9040(7) 0.0164(6) 0.1726 Uani
O28 O 0.5998(5) 0.9755(5) 0.0832(4) 0.0790 Uani
loop_
_atom_site_aniso_label
_atom_site_aniso_U_11
_atom_site_aniso_U_22
_atom_site_aniso_U_33
_atom_site_aniso_U_23
_atom_site_aniso_U_13
_atom_site_aniso_U_12
C37 0.03 0.038 0.05 0.017 0.003 0.01
N8 0.03 0.032 0.031 0.003 0.009 0.008
C56 0.035 0.043 0.089 -0.022 -0.015 0.016
C57 0.041 0.026 0.071 -0.01 -0.025 0.007
C58 0.033 0.02 0.026 0.005 0.004 0.004
C59 0.05 0.036 0.1 0.002 -0.03 0.017
C60 0.049 0.037 0.074 -0.003 -0.027 0.012
Ni11 0.0212 0.0275 0.0196 -0.0001 0.0042 0.0008
Ni3 0.03 0.0301 0.0203 0.0072 0.0034 0.0008
N4 0.03 0.032 0.027 0.006 0.003 0.003
N6 0.045 0.033 0.028 0.01 0.015 0.009
O13 0.062 0.056 0.032 0.012 -0.005 -0.026
O14 0.032 0.04 0.019 0.006 -0.001 -0.009
O19 0.04 0.042 0.03 0.005 0 -0.015
O20 0.046 0.061 0.034 0.02 -0.001 0.022
C27 0.033 0.03 0.02 0.001 -0.003 -0.001
C28 0.039 0.027 0.023 0.003 0.009 0.011
C29 0.04 0.032 0.027 0 -0.002 0.002
C36 0.04 0.029 0.029 0.005 -0.006 -0.003
C46 0.117 0.049 0.044 -0.006 0.045 -0.021
C50 0.046 0.034 0.052 0.012 0.027 0.011
O43 0.047 0.036 0.019 0.011 0.003 0.008
N5 0.017 0.039 0.022 0 0.009 0.005
O3 0.074 0.093 0.019 0.014 0.015 0.059
O4 0.034 0.028 0.012 0.004 0.006 0.012
C2 0.039 0.028 0.006 0.002 0.004 0.001
C3 0.049 0.036 0.022 0.016 0.016 0.01
C4 0.042 0.027 0.019 -0.003 0.008 0.01
C5 0.047 0.031 0.015 0.003 0.016 0.009
C6 0.041 0.034 0.026 0.012 0.009 0.015
C7 0.055 0.046 0.02 0.017 0.016 0.026
C8 0.029 0.039 0.015 0.002 0.003 0.012
C10 0.052 0.054 0.044 0.031 0.008 0.021
C38 0.024 0.039 0.035 0.015 0.01 0.009
C41 0.02 0.046 0.036 0.019 0.009 0.009
C42 0.036 0.058 0.027 -0.001 -0.001 0.02
C43 0.041 0.056 0.03 -0.004 0.002 0.01
C44 0.039 0.042 0.026 -0.005 -0.002 0.003
C45 0.038 0.05 0.036 0.006 0.012 0.02
Ni10 0.0237 0.0273 0.0162 0.0026 0.0058 0.003
Ni1 0.0237 0.0273 0.0162 0.0026 0.0058 0.003
Ni2 0.0212 0.0275 0.0196 -0.0001 0.0042 0.0008
N2 0.056 0.08 0.035 0.009 -0.005 -0.007
N3 0.03 0.032 0.031 0.003 0.009 0.008
N7 0.043 0.036 0.029 0.013 0.014 0.002
O1 0.052 0.032 0.046 0.015 0.031 0.007
O2 0.025 0.028 0.016 0.006 0.007 0.003
O9 0.025 0.025 0.026 0.002 0.006 0.006
O10 0.054 0.031 0.051 0.004 0.037 0.006
O15 0.069 0.145 0.052 0 0.022 0.025
O16 0.166 0.104 0.083 0.037 0.031 -0.013
O17 0.046 0.048 0.039 0.012 0.025 0.006
O18 0.036 0.029 0.019 0 0.011 0.005
C1 0.032 0.031 0.009 0.006 0.006 0.006
C9 0.028 0.047 0.021 0.016 0.006 0.008
C11 0.05 0.065 0.02 0.022 0.011 0.017
C14 0.062 0.042 0.034 0.013 0.009 0.018
C15 0.061 0.04 0.031 0.016 0.001 0.007
C16 0.029 0.04 0.019 0.003 -0.004 0.006
C17 0.029 0.032 0.015 -0.004 0.009 0.007
C18 0.03 0.033 0.026 0.005 0.012 0.007
C21 0.032 0.041 0.03 0 0.015 0.019
C22 0.022 0.05 0.024 0 0.003 0.013
C23 0.022 0.039 0.02 0 -0.007 0.005
C24 0.02 0.036 0.023 0 0.003 0.004
C25 0.027 0.05 0.015 0.003 -0.002 -0.009
C26 0.042 0.037 0.019 0.001 0.003 -0.002
C30 0.043 0.054 0.022 0.003 0.008 0.022
C31 0.035 0.043 0.089 -0.022 -0.015 0.016
C32 0.041 0.026 0.071 -0.01 -0.025 0.007
C33 0.033 0.02 0.026 0.005 0.004 0.004
C34 0.05 0.036 0.1 0.002 -0.03 0.017
C35 0.049 0.037 0.074 -0.003 -0.027 0.012
C39 0.025 0.04 0.068 0.009 -0.004 -0.012
C40 0.026 0.039 0.073 0.012 -0.006 0.013
C47 0.111 0.057 0.061 0.002 0.063 -0.011
C48 0.045 0.027 0.062 0.02 0.03 0.007
C49 0.046 0.029 0.05 0.017 0.019 -0.001
C51 0.041 0.044 0.042 0.013 0.021 0.002
C52 0.078 0.039 0.055 -0.003 0.028 -0.018
C53 0.074 0.045 0.056 0.007 0.017 -0.011
C54 0.04 0.04 0.038 0.013 -0.001 -0.013
C55 0.04 0.068 0.05 0.03 0.007 0.003
O25 0.047 0.036 0.019 0.011 0.003 0.008
O26 0.168 0.155 0.029 0.021 0.009 0.12
O31 0.026 0.039 0.013 0.002 0.004 0.006
O32 0.026 0.027 0.015 -0.001 0.004 0
C72 0.055 0.054 0.019 0.009 0.01 0.022
C73 0.069 0.067 0.023 0 0.008 0.038
C79 0.02 0.028 0.023 0.003 0.007 0.005
C80 0.021 0.022 0.019 0.008 0.01 0.006
Ni13 0.03 0.0301 0.0203 0.0072 0.0034 0.0008
N17 0.017 0.039 0.022 0 0.009 0.005
N19 0.043 0.036 0.029 0.013 0.014 0.002
O42 0.034 0.028 0.012 0.004 0.006 0.012
O6 0.168 0.155 0.029 0.021 0.009 0.12
O11 0.026 0.039 0.013 0.002 0.004 0.006
O12 0.026 0.027 0.015 -0.001 0.004 0
C12 0.055 0.054 0.019 0.009 0.01 0.022
C13 0.069 0.067 0.023 0 0.008 0.038
C19 0.02 0.028 0.023 0.003 0.007 0.005
C20 0.021 0.022 0.019 0.008 0.01 0.006
N10 0.056 0.08 0.035 0.009 -0.005 -0.007
O21 0.052 0.032 0.046 0.015 0.031 0.007
O22 0.025 0.028 0.016 0.006 0.007 0.003
O29 0.025 0.025 0.026 0.002 0.006 0.006
O30 0.054 0.031 0.051 0.004 0.037 0.006
O35 0.069 0.145 0.052 0 0.022 0.025
O36 0.166 0.104 0.083 0.037 0.031 -0.013
O37 0.046 0.048 0.039 0.012 0.025 0.006
O38 0.036 0.029 0.019 0 0.011 0.005
C61 0.032 0.031 0.009 0.006 0.006 0.006
C69 0.028 0.047 0.021 0.016 0.006 0.008
C71 0.05 0.065 0.02 0.022 0.011 0.017
C74 0.062 0.042 0.034 0.013 0.009 0.018
C75 0.061 0.04 0.031 0.016 0.001 0.007
C76 0.029 0.04 0.019 0.003 -0.004 0.006
C77 0.029 0.032 0.015 -0.004 0.009 0.007
C78 0.03 0.033 0.026 0.005 0.012 0.007
C81 0.032 0.041 0.03 0 0.015 0.019
C82 0.022 0.05 0.024 0 0.003 0.013
C83 0.022 0.039 0.02 0 -0.007 0.005
C84 0.02 0.036 0.023 0 0.003 0.004
C85 0.027 0.05 0.015 0.003 -0.002 -0.009
C86 0.042 0.037 0.019 0.001 0.003 -0.002
C90 0.043 0.054 0.022 0.003 0.008 0.022
C94 0.025 0.04 0.068 0.009 -0.004 -0.012
C95 0.026 0.039 0.073 0.012 -0.006 0.013
C102 0.111 0.057 0.061 0.002 0.063 -0.011
C103 0.045 0.027 0.062 0.02 0.03 0.007
C104 0.046 0.029 0.05 0.017 0.019 -0.001
C106 0.041 0.044 0.042 0.013 0.021 0.002
C107 0.078 0.039 0.055 -0.003 0.028 -0.018
C108 0.074 0.045 0.056 0.007 0.017 -0.011
C109 0.04 0.04 0.038 0.013 -0.001 -0.013
C110 0.04 0.068 0.05 0.03 0.007 0.003
O23 0.074 0.093 0.019 0.014 0.015 0.059
C62 0.039 0.028 0.006 0.002 0.004 0.001
C63 0.049 0.036 0.022 0.016 0.016 0.01
C64 0.042 0.027 0.019 -0.003 0.008 0.01
C65 0.047 0.031 0.015 0.003 0.016 0.009
C66 0.041 0.034 0.026 0.012 0.009 0.015
C67 0.055 0.046 0.02 0.017 0.016 0.026
C68 0.029 0.039 0.015 0.002 0.003 0.012
C70 0.052 0.054 0.044 0.031 0.008 0.021
C93 0.024 0.039 0.035 0.015 0.01 0.009
C96 0.02 0.046 0.036 0.019 0.009 0.009
C97 0.036 0.058 0.027 -0.001 -0.001 0.02
C98 0.041 0.056 0.03 -0.004 0.002 0.01
C99 0.039 0.042 0.026 -0.005 -0.002 0.003
C100 0.038 0.05 0.036 0.006 0.012 0.02
N11 0.03 0.032 0.027 0.006 0.003 0.003
N13 0.045 0.033 0.028 0.01 0.015 0.009
O33 0.062 0.056 0.032 0.012 -0.005 -0.026
O34 0.032 0.04 0.019 0.006 -0.001 -0.009
O39 0.04 0.042 0.03 0.005 0 -0.015
O40 0.046 0.061 0.034 0.02 -0.001 0.022
C87 0.033 0.03 0.02 0.001 -0.003 -0.001
C88 0.039 0.027 0.023 0.003 0.009 0.011
C89 0.04 0.032 0.027 0 -0.002 0.002
C91 0.04 0.029 0.029 0.005 -0.006 -0.003
C101 0.117 0.049 0.044 -0.006 0.045 -0.021
C105 0.046 0.034 0.052 0.012 0.027 0.011
C92 0.03 0.038 0.05 0.017 0.003 0.01
N1 0.076 0.064 0.047 0.023 0.021 0.031
O7 0.315 0.214 0.173 0.167 0.179 0.202
O8 0.066 0.106 0.054 0.031 0.022 -0.004
N9 0.076 0.064 0.047 0.023 0.021 0.031
O27 0.315 0.214 0.173 0.167 0.179 0.202
O28 0.066 0.106 0.054 0.031 0.022 -0.004
loop_
_geom_bond_atom_site_label_1
_geom_bond_atom_site_label_2
_geom_bond_site_symmetry_1
_geom_bond_site_symmetry_2
H26 C37 1_555 1_555
N8 C56 1_555 1_555
C56 H41 1_555 1_555
C57 C56 1_555 1_555
C59 C58 1_555 1_555
H43 C59 1_555 1_555
C60 N8 1_555 1_555
H44 C60 1_555 1_555
Ni11 N8 1_555 1_555
C57 C58 1_555 1_555
C59 C60 1_555 1_555
Ni3 N4 1_555 1_555
N4 C36 1_555 1_555
N6 Ni3 1_555 1_555
O13 C28 1_555 1_555
O14 Ni3 1_555 1_555
O19 Ni3 1_555 1_555
H5 O19 1_555 1_555
H6 O19 1_555 1_555
O20 Ni3 1_555 1_555
H7 O20 1_555 1_555
H8 O20 1_555 1_555
C28 O14 1_555 1_555
C29 C27 1_555 1_555
H19 C29 1_555 1_555
C46 N6 1_555 1_555
H33 C46 1_555 1_555
C50 N6 1_555 1_555
H36 C50 1_555 1_555
O43 Ni3 1_555 1_555
C27 C28 1_555 1_555
N5 C43 1_555 1_555
O3 C5 1_555 1_555
O4 C5 1_555 1_555
C3 C2 1_555 1_555
H9 C3 1_555 1_555
C4 C3 1_555 1_555
C5 C4 1_555 1_555
C6 C4 1_555 1_555
H10 C6 1_555 1_555
C7 C6 1_555 1_555
H11 C7 1_555 1_555
C8 C2 1_555 1_555
H12 C10 1_555 1_555
C41 C38 1_555 1_555
C42 C41 1_555 1_555
H29 C42 1_555 1_555
C43 C42 1_555 1_555
H30 C43 1_555 1_555
C44 N5 1_555 1_555
H31 C44 1_555 1_555
C45 C41 1_555 1_555
Ni10 N5 1_555 1_555
O4 Ni10 1_555 1_555
C7 C8 1_555 1_555
C44 C45 1_555 1_555
Ni1 O2 1_555 1_555
Ni2 N3 1_555 1_555
N2 O15 1_555 1_555
N3 C31 1_555 1_555
N7 C53 1_555 1_555
O1 C1 1_555 1_555
O2 Ni2 1_555 1_555
O9 Ni2 1_555 1_555
O10 C16 1_555 1_555
O16 N2 1_555 1_555
O17 Ni2 1_555 1_555
H1 O17 1_555 1_555
H2 O17 1_555 1_555
O18 Ni1 1_555 1_555
H3 O18 1_555 1_555
H4 O18 1_555 1_555
C1 O2 1_555 1_555
C15 C9 1_555 1_555
H14 C15 1_555 1_555
C16 O9 1_555 1_555
C17 C16 1_555 1_555
C18 C17 1_555 1_555
H15 C18 1_555 1_555
C22 C21 1_555 1_555
H17 C22 1_555 1_555
C23 C17 1_555 1_555
C24 C23 1_555 1_555
C25 C24 1_555 1_555
H18 C25 1_555 1_555
C26 N2 1_555 1_555
C30 C24 1_555 1_555
H20 C30 1_555 1_555
C31 H21 1_555 1_555
C32 C31 1_555 1_555
C33 C32 1_555 1_555
C34 C33 1_555 1_555
H23 C34 1_555 1_555
C35 N3 1_555 1_555
H24 C35 1_555 1_555
H27 C39 1_555 1_555
H28 C40 1_555 1_555
H34 C47 1_555 1_555
C48 C47 1_555 1_555
C49 C48 1_555 1_555
H35 C49 1_555 1_555
C51 C48 1_555 1_555
C52 C51 1_555 1_555
H37 C52 1_555 1_555
C53 C52 1_555 1_555
H38 C53 1_555 1_555
C54 N7 1_555 1_555
H39 C54 1_555 1_555
C55 C51 1_555 1_555
H40 C55 1_555 1_555
O25 C73 1_555 1_555
O26 C73 1_555 1_555
O31 Ni2 1_555 1_555
O32 Ni1 1_555 1_555
C73 C72 1_555 1_555
C80 O31 1_555 1_555
Ni10 N7 1_555 1_555
Ni13 O25 1_555 1_555
N17 Ni1 1_555 1_555
N19 Ni1 1_555 1_555
O42 Ni1 1_555 1_555
Ni2 O18 1_555 1_555
C14 C15 1_555 1_555
C22 C23 1_555 1_555
C25 C26 1_555 1_555
C34 C35 1_555 1_555
C39 C40 1_555 1_555
C54 C55 1_555 1_555
O32 C80 1_555 1_555
C79 C80 1_555 1_555
O43 C13 1_555 1_555
O6 C13 1_555 1_555
O11 C20 1_555 1_555
O12 C20 1_555 1_555
C13 C12 1_555 1_555
C20 C19 1_555 1_555
Ni10 O12 1_555 1_555
Ni11 O11 1_555 1_555
N10 O35 1_555 1_555
N19 C108 1_555 1_555
O21 C61 1_555 1_555
O22 Ni10 1_555 1_555
O29 Ni11 1_555 1_555
O30 C76 1_555 1_555
O36 N10 1_555 1_555
O37 Ni11 1_555 1_555
H45 O37 1_555 1_555
H46 O37 1_555 1_555
O38 Ni10 1_555 1_555
H47 O38 1_555 1_555
H48 O38 1_555 1_555
C61 O22 1_555 1_555
C75 C69 1_555 1_555
H58 C75 1_555 1_555
C76 O29 1_555 1_555
C77 C76 1_555 1_555
C78 C77 1_555 1_555
H59 C78 1_555 1_555
C82 C81 1_555 1_555
H61 C82 1_555 1_555
C83 C77 1_555 1_555
C84 C83 1_555 1_555
C85 C84 1_555 1_555
H62 C85 1_555 1_555
C86 N10 1_555 1_555
C90 C84 1_555 1_555
H64 C90 1_555 1_555
H67 C94 1_555 1_555
H68 C95 1_555 1_555
H74 C102 1_555 1_555
C103 C102 1_555 1_555
C104 C103 1_555 1_555
H75 C104 1_555 1_555
C106 C103 1_555 1_555
C107 C106 1_555 1_555
H77 C107 1_555 1_555
C108 C107 1_555 1_555
H78 C108 1_555 1_555
C109 N19 1_555 1_555
H79 C109 1_555 1_555
C110 C106 1_555 1_555
H80 C110 1_555 1_555
Ni11 O22 1_555 1_555
Ni11 O38 1_555 1_555
C74 C75 1_555 1_555
C82 C83 1_555 1_555
C85 C86 1_555 1_555
C94 C95 1_555 1_555
C109 C110 1_555 1_555
N17 C98 1_555 1_555
O23 C65 1_555 1_555
O42 C65 1_555 1_555
C63 C62 1_555 1_555
H53 C63 1_555 1_555
C64 C63 1_555 1_555
C65 C64 1_555 1_555
C66 C64 1_555 1_555
H54 C66 1_555 1_555
C67 C66 1_555 1_555
H55 C67 1_555 1_555
C68 C62 1_555 1_555
H56 C70 1_555 1_555
C96 C93 1_555 1_555
C97 C96 1_555 1_555
H69 C97 1_555 1_555
C98 C97 1_555 1_555
H70 C98 1_555 1_555
C99 N17 1_555 1_555
H71 C99 1_555 1_555
C100 C96 1_555 1_555
C67 C68 1_555 1_555
C99 C100 1_555 1_555
Ni13 N11 1_555 1_555
N11 C91 1_555 1_555
N13 Ni13 1_555 1_555
O33 C88 1_555 1_555
O34 Ni13 1_555 1_555
O39 Ni13 1_555 1_555
H49 O39 1_555 1_555
H50 O39 1_555 1_555
O40 Ni13 1_555 1_555
H51 O40 1_555 1_555
H52 O40 1_555 1_555
C88 O34 1_555 1_555
C89 C87 1_555 1_555
H63 C89 1_555 1_555
C101 N13 1_555 1_555
H73 C101 1_555 1_555
C105 N13 1_555 1_555
H76 C105 1_555 1_555
C87 C88 1_555 1_555
H66 C92 1_555 1_555
N1 O7 1_555 1_555
O8 N1 1_555 1_555
N9 O27 1_555 1_555
O28 N9 1_555 1_555

#END
