
###############################################################################
#
# This file contains modified crystal structure data generated from the
# MOF subset of the Cambridge Structural Database (CSD) v543 
# hosted by the Cambridge Crystallographic Data Centre (CCDC).
#
# This work is licensed under the Creative Commons
# Attribution-NonCommercial-ShareAlike 4.0 International License.
# To view a copy of this license, visit
# http://creativecommons.org/licenses/by-nc-sa/4.0/
# or send a letter to
# Creative Commons, PO Box 1866, Mountain View, CA 94042, USA.
#
# CIF created using the CSD Python API on 29 September 2022
# The structure has been converted into the P1 space group
# The structure has a 3D framework
# The original CSD entry WEXWEE is in the trigonal crystal system
# The original CSD entry WEXWEE is in a Sohncke space group
# The framework has been calculated to contain at least 10.0% void space
# The void calculation uses a probe of radius 1.32A, grid spacing 0.4
#
###############################################################################

data_WEXWEE
_chemical_formula_moiety         '(C348 H246 N6 O60 Zn12)n'
_symmetry_cell_setting           triclinic
_symmetry_space_group_name_H-M   'P 1'
_symmetry_Int_Tables_number      1
_space_group_name_Hall           'P 1'
loop_
_symmetry_equiv_pos_site_id
_symmetry_equiv_pos_as_xyz
1 x,y,z
_cell_length_a                   17.0482(7)
_cell_length_b                   17.0482(7)
_cell_length_c                   46.2316(17)
_cell_angle_alpha                90
_cell_angle_beta                 90
_cell_angle_gamma                120
_cell_volume                     11636.6
loop_
_atom_site_label
_atom_site_type_symbol
_atom_site_fract_x
_atom_site_fract_y
_atom_site_fract_z
O1 O 0.8877(5) 0.4523(4) 0.21477(10)
Zn1 Zn 0.76632(5) 0.43540(5) 0.20180(2)
O2 O 0.7944(3) 0.5316(3) 0.17347(9)
O3 O 0.8648(6) 0.5444(5) 0.24069(13)
O4 O 0.6376(6) 0.4482(4) 0.21245(12)
O5 O 0.6857(5) 0.3744(4) 0.23584(10)
O6 O 0.7232(3) 0.3253(3) 0.17729(10)
C1 C 0.6289(5) 0.4000(5) 0.23303(14)
C2 C 0.5506(5) 0.3666(5) 0.25302(14)
C3 C 0.5291(5) 0.2942(5) 0.27050(16)
C4 C 0.5006(5) 0.4105(5) 0.25502(15)
C5 C 0.4556(5) 0.2606(5) 0.28913(14)
H1 H 0.564453 0.266806 0.269926
C6 C 0.4271(5) 0.3784(5) 0.27484(14)
H2 H 0.515095 0.460569 0.243469
C7 C 0.4046(5) 0.3029(5) 0.29118(14)
H3 H 0.440627 0.209602 0.300267
H4 H 0.394412 0.408377 0.276700
C8 C 0.3221(5) 0.2643(4) 0.31031(13)
C9 C 0.2651(5) 0.1702(4) 0.31133(13)
C10 C 0.3024(5) 0.3190(4) 0.32671(13)
C11 C 0.1904(5) 0.1306(5) 0.32831(13)
H5 H 0.279051 0.133706 0.300002
C12 C 0.2254(5) 0.2797(4) 0.34445(13)
H6 H 0.339783 0.381613 0.326122
C13 C 0.1693(5) 0.1862(4) 0.34486(12)
H7 H 0.153896 0.067885 0.328930
C14 C 0.1944(4) 0.3259(4) 0.36604(12)
C15 C 0.0922(4) 0.1641(4) 0.36451(13)
C16 C 0.1051(4) 0.2441(4) 0.37625(12)
C17 C 0.2581(4) 0.3677(4) 0.39156(13)
C18 C 0.1844(4) 0.4052(4) 0.35561(12)
C19 C 0.0176(5) 0.0814(5) 0.37223(14)
C20 C 0.0444(5) 0.2423(5) 0.39671(12)
C21 C 0.2748(4) 0.4549(5) 0.39719(12)
C22 C 0.2984(5) 0.3320(5) 0.40830(14)
C23 C 0.1374(5) 0.4101(4) 0.33194(12)
C24 C 0.2297(5) 0.4788(5) 0.37473(13)
H8 H 0.009272 0.027455 0.364449
H9 H 0.054466 0.295845 0.405363
C27 C 0.3250(5) 0.5020(5) 0.42127(14)
H10 H 0.291290 0.275716 0.403655
C28 C 0.3502(5) 0.3789(5) 0.43234(13)
H11 H 0.107202 0.360754 0.319604
C29 C 0.1359(5) 0.4912(5) 0.32674(13)
C30 C 0.2292(5) 0.5589(5) 0.36945(14)
H13 H 0.333443 0.558925 0.425729
C32 C 0.3624(5) 0.4630(5) 0.43847(14)
C33 C 0.3970(5) 0.3401(5) 0.45065(15)
C34 C 0.1824(5) 0.5624(5) 0.34575(14)
C35 C 0.0824(5) 0.4973(5) 0.30192(14)
H14 H 0.259804 0.608693 0.381607
H15 H 0.396535 0.494293 0.454536
C38 C 0.4729(5) 0.3933(5) 0.46637(15)
C39 C 0.3576(6) 0.2451(7) 0.4531(2)
H16 H 0.182014 0.615982 0.342289
C40 C 0.0543(5) 0.5629(5) 0.30231(15)
C41 C 0.0561(5) 0.4404(5) 0.27899(14)
C44 C 0.5167(5) 0.3571(5) 0.48173(14)
H19 H 0.495848 0.455552 0.466781
C45 C 0.4020(6) 0.2092(7) 0.4680(2)
H20 H 0.301654 0.207019 0.444669
H21 H 0.073855 0.605830 0.317034
C47 C 0.0027(5) 0.4432(5) 0.25724(15)
H22 H 0.074916 0.397832 0.277919
C49 C 0.4838(5) 0.2655(5) 0.48285(17)
H25 H 0.569835 0.395750 0.491575
H26 H 0.377721 0.146723 0.468351
C52 C 0.5294(6) 0.2237(6) 0.49786(17)
Zn2 Zn 0.51958(6) 0.04325(6) 0.50857(2)
O8 O 0.4898(4) 0.1384(4) 0.49815(13)
Zn3 Zn 0.66908(7) 0.23368(5) 0.53513(2)
O12 O 0.6021(4) 0.2768(3) 0.51062(10)
C25 C 0.9578(5) 0.0816(5) 0.39129(13)
C26 C 0.9686(5) 0.1603(5) 0.40422(13)
H12 H 0.906937 0.026672 0.396035
C31 C 0.9025(5) 0.1545(5) 0.42581(13)
C36 C 0.8121(6) 0.0916(5) 0.42368(15)
C37 C 0.9282(5) 0.2149(5) 0.44898(14)
C42 C 0.7507(5) 0.0868(5) 0.44452(15)
H17 H 0.791463 0.051666 0.408126
H18 H 0.988954 0.259232 0.450644
C43 C 0.8678(5) 0.2123(5) 0.46973(14)
C46 C 0.9990(5) 0.5632(5) 0.28127(13)
C48 C 0.7767(5) 0.1447(5) 0.46746(13)
H23 H 0.690044 0.042593 0.442713
H24 H 0.887374 0.254329 0.484709
H27 H 0.980086 0.605680 0.282225
C50 C 0.9708(5) 0.5049(5) 0.25927(14)
H28 H 0.987668 0.404738 0.241383
C51 C 0.7107(6) 0.1436(6) 0.48892(16)
C53 C 0.9056(6) 0.5008(5) 0.23634(15)
O7 O 0.6313(4) 0.0730(4) 0.48810(10)
O11 O 0.7372(4) 0.2056(3) 0.50680(9)
Zn6 Zn 0.95675(6) 0.47633(8) 0.17524(2)
O16 O 0.5646(6) 0.1123(5) 0.54810(10)
H10_2 H 0.724284 0.015574 0.070322
C33_2 C 0.6599(5) 0.0569(7) 0.11732(15)
C38_2 C 0.6067(5) 0.0796(7) 0.13304(15)
C39_2 C 0.7549(7) 0.1125(9) 0.1198(2)
C44_2 C 0.6429(5) 0.1596(7) 0.14840(14)
H19_2 H 0.544448 0.040296 0.133448
C45_2 C 0.7908(7) 0.1928(9) 0.1347(2)
H20_2 H 0.792981 0.094635 0.111336
C49_2 C 0.7345(5) 0.2183(7) 0.14952(17)
H25_2 H 0.604250 0.174085 0.158242
H26_2 H 0.853277 0.230998 0.135018
C52_2 C 0.7763(6) 0.3057(8) 0.16453(17)
O8_2 O 0.8616(4) 0.3514(6) 0.16482(13)
O1_2 O 0.5477(4) 0.4354(6) 0.88144(10)
Zn1_2 Zn 0.56460(5) 0.33092(7) 0.86847(2)
O2_2 O 0.4684(3) 0.2628(4) 0.84014(9)
O3_2 O 0.4556(5) 0.3204(8) 0.90736(13)
O4_2 O 0.5518(4) 0.1894(7) 0.87912(12)
O5_2 O 0.6256(4) 0.3113(6) 0.90251(10)
O6_2 O 0.6747(3) 0.3979(4) 0.84396(10)
C1_2 C 0.6000(5) 0.2289(7) 0.89970(14)
C2_2 C 0.6334(5) 0.1840(7) 0.91969(14)
C3_2 C 0.7058(5) 0.2349(7) 0.93717(16)
C4_2 C 0.5895(5) 0.0901(7) 0.92169(15)
C5_2 C 0.7394(5) 0.1950(7) 0.95580(14)
H1_2 H 0.733194 0.297647 0.936593
C6_2 C 0.6216(5) 0.0487(7) 0.94151(14)
H2_2 H 0.539431 0.054526 0.910136
C7_2 C 0.6971(5) 0.1017(7) 0.95785(14)
H3_2 H 0.790398 0.231025 0.966934
C8_2 C 0.7357(4) 0.0578(6) 0.97698(13)
C9_2 C 0.8298(4) 0.0949(6) 0.97800(13)
C11_2 C 0.8694(5) 0.0598(7) 0.99498(13)
H5_2 H 0.866294 0.145345 0.966669
H7_2 H 0.932115 0.086011 0.995597
C12_2 C 0.7203(4) 0.9457(6) 0.01112(13)
C13_2 C 0.8138(4) 0.9831(6) 0.01153(12)
C14_2 C 0.6741(4) 0.8685(6) 0.03271(12)
C15_2 C 0.8359(4) 0.9281(6) 0.03118(13)
C16_2 C 0.7559(4) 0.8610(6) 0.04292(12)
C17_2 C 0.6323(4) 0.8904(6) 0.05823(13)
C18_2 C 0.5948(4) 0.7792(6) 0.02228(12)
C19_2 C 0.9186(5) 0.9362(7) 0.03890(14)
C20_2 C 0.7577(5) 0.8021(7) 0.06338(12)
C21_2 C 0.5451(5) 0.8199(6) 0.06386(12)
C22_2 C 0.6680(5) 0.9664(7) 0.07497(14)
C24_2 C 0.5212(5) 0.7509(7) 0.04140(13)
C25_2 C 0.9184(5) 0.8762(7) 0.05796(13)
H8_2 H 0.972545 0.981817 0.031116
C26_2 C 0.8397(5) 0.8083(7) 0.07089(13)
H9_2 H 0.704155 0.758621 0.072030
C27_2 C 0.4980(5) 0.8230(7) 0.08794(14)
C28_2 C 0.6211(5) 0.9713(7) 0.09901(13)
C30_2 C 0.4411(5) 0.6703(7) 0.03612(14)
H12_2 H 0.973328 0.880265 0.062702
C31_2 C 0.8455(5) 0.7480(7) 0.09248(13)
H13_2 H 0.441075 0.774518 0.092396
C32_2 C 0.5370(5) 0.8994(7) 0.10514(14)
C34_2 C 0.4376(5) 0.6200(7) 0.01242(14)
H14_2 H 0.391307 0.651111 0.048274
C36_2 C 0.9084(5) 0.7205(8) 0.09035(15)
C37_2 C 0.7851(5) 0.7133(7) 0.11565(14)
H15_2 H 0.505707 0.902242 0.121203
H16_2 H 0.384018 0.566032 0.008956
C42_2 C 0.9132(5) 0.6639(7) 0.11119(15)
H17_2 H 0.948334 0.739797 0.074793
H18_2 H 0.740768 0.729722 0.117311
C43_2 C 0.7877(5) 0.6555(7) 0.13640(14)
C48_2 C 0.8553(5) 0.6320(7) 0.13413(13)
H23_2 H 0.957407 0.647451 0.109380
H24_2 H 0.745671 0.633045 0.151376
C51_2 C 0.8564(6) 0.5671(8) 0.15559(16)
O7_2 O 0.9270(4) 0.5583(6) 0.15477(10)
H4_2 H 0.591623 0.986035 0.943367
C10_2 C 0.6810(4) 0.9834(6) 0.99338(13)
H6_2 H 0.618387 0.958170 0.992789
C23_2 C 0.5899(4) 0.7273(6) 0.99861(12)
H11_2 H 0.639246 0.746448 0.986271
C29_2 C 0.5088(5) 0.6447(7) 0.99341(13)
C35_2 C 0.5027(5) 0.5851(7) 0.96859(14)
C40_2 C 0.4371(5) 0.4914(7) 0.96898(15)
C41_2 C 0.5596(5) 0.6157(7) 0.94566(14)
H21_2 H 0.394170 0.468025 0.983701
C46_2 C 0.4368(5) 0.4358(7) 0.94794(13)
C47_2 C 0.5568(5) 0.5595(7) 0.92391(15)
H22_2 H 0.602168 0.677084 0.944586
H27_2 H 0.394320 0.374406 0.948892
C50_2 C 0.4951(5) 0.4659(7) 0.92594(14)
H28_2 H 0.595262 0.582930 0.908050
C53_2 C 0.4992(5) 0.4048(8) 0.90301(15)
Zn6_2 Zn 0.52367(8) 0.48042(10) 0.84190(2)
C25_3 C 0.1238(7) 0.0422(5) 0.72462(13)
C26_3 C 0.1917(7) 0.0314(5) 0.73755(13)
H12_3 H 0.119735 0.093063 0.729368
C31_3 C 0.2520(7) 0.0975(5) 0.75914(13)
C36_3 C 0.2795(8) 0.1879(6) 0.75701(15)
C37_3 C 0.2867(7) 0.0718(5) 0.78231(14)
C42_3 C 0.3361(7) 0.2493(5) 0.77785(15)
H17_3 H 0.260203 0.208537 0.741459
H18_3 H 0.270278 0.011046 0.783977
C43_3 C 0.3445(7) 0.1322(5) 0.80306(14)
C46_3 C 0.5642(7) 0.0010(5) 0.61460(13)
C48_3 C 0.3680(7) 0.2233(5) 0.80079(13)
H23_3 H 0.352549 0.309956 0.776046
H24_3 H 0.366955 0.112626 0.818042
H27_3 H 0.625594 0.019914 0.615558
C50_3 C 0.5341(7) 0.0292(5) 0.59260(14)
H28_3 H 0.417070 0.012332 0.574716
C51_3 C 0.4329(8) 0.2893(6) 0.82225(16)
C53_3 C 0.5952(8) 0.0944(6) 0.56967(15)
O7_3 O 0.4417(6) 0.3687(4) 0.82143(10)
O9 O 0.4297(6) 0.4986(4) 0.86324(11)
O10 O 0.5496(6) 0.5858(4) 0.81627(12)
C54 C 0.4287(9) 0.5709(6) 0.86650(18)
H29 H 0.521247 0.614494 0.818734
H30 H 0.589547 0.602173 0.803094
H31 H 0.467778 0.620522 0.855303
N1 N 0.3726(8) 0.5810(5) 0.88580(17)
C55 C 0.3088(11) 0.5064(7) 0.9043(2)
C56 C 0.3814(11) 0.6703(7) 0.8893(2)
H32 H 0.325997 0.460124 0.904676
C57 C 0.2151(13) 0.4651(9) 0.8958(3)
H33 H 0.314594 0.529163 0.923981
C58 C 0.4363(13) 0.7233(8) 0.9166(2)
H34 H 0.321333 0.663097 0.890450
H35 H 0.410842 0.706415 0.872299
H36 H 0.208007 0.440690 0.876686
H37 H 0.196582 0.509857 0.896027
H38 H 0.178296 0.417346 0.909089
H39 H 0.439234 0.780954 0.917521
H40 H 0.406947 0.689037 0.933731
H41 H 0.496573 0.732412 0.915556
O14 O 0.6796(8) 0.1352(6) 0.57402(13)
O15 O 0.6486(6) 0.5102(4) 0.83148(13)
O4_3 O 0.8106(7) 0.3624(6) 0.54578(12)
O5_3 O 0.6887(6) 0.3143(5) 0.56917(10)
C1_3 C 0.7711(7) 0.3711(5) 0.56636(14)
C2_3 C 0.8160(7) 0.4494(5) 0.58635(14)
C3_3 C 0.7651(7) 0.4709(5) 0.60383(16)
C4_3 C 0.9099(7) 0.4994(5) 0.58835(15)
C5_3 C 0.8050(7) 0.5444(5) 0.62246(14)
H1_3 H 0.702353 0.435547 0.603259
C6_3 C 0.9513(7) 0.5729(5) 0.60817(14)
H2_3 H 0.945474 0.484905 0.576802
C7_3 C 0.8983(7) 0.5954(5) 0.62451(14)
H3_3 H 0.768975 0.559373 0.633600
C8_3 C 0.9422(6) 0.6779(5) 0.64364(13)
C9_3 C 0.9051(6) 0.7349(5) 0.64466(13)
C11_3 C 0.9402(7) 0.8096(5) 0.66164(13)
H5_3 H 0.854655 0.720949 0.633335
H7_3 H 0.913989 0.846104 0.662263
H10_3 H 0.984426 0.708710 0.736988
C33_3 C 0.9431(7) 0.6030(5) 0.78398(15)
C38_3 C 0.9204(7) 0.5271(5) 0.79970(15)
C39_3 C 0.8875(9) 0.6424(6) 0.7864(2)
C44_3 C 0.8404(7) 0.4833(5) 0.81506(14)
H19_3 H 0.959704 0.504152 0.800114
C45_3 C 0.8072(9) 0.5980(6) 0.8013(2)
H20_3 H 0.905365 0.698346 0.778002
C49_3 C 0.7817(7) 0.5162(5) 0.81618(17)
H25_3 H 0.825915 0.430165 0.824908
H26_3 H 0.769002 0.622279 0.801684
C52_3 C 0.6943(8) 0.4706(6) 0.83119(17)
O9_2 O 0.5014(4) 0.9311(4) 0.52991(11)
O10_2 O 0.4142(4) 0.9638(4) 0.48294(12)
C54_2 C 0.4291(6) 0.8578(7) 0.53317(18)
H29_2 H 0.385506 0.906753 0.485401
H30_2 H 0.397827 0.987374 0.469761
H31_2 H 0.379478 0.847256 0.521970
N1_2 N 0.4190(5) 0.7916(6) 0.55247(17)
C55_2 C 0.4936(7) 0.8024(8) 0.5710(2)
C56_2 C 0.3297(7) 0.7111(9) 0.5560(2)
H32_2 H 0.539876 0.865873 0.571343
C57_2 C 0.5349(9) 0.7500(9) 0.5625(3)
H33_2 H 0.470837 0.785431 0.590648
C58_2 C 0.2767(8) 0.7130(10) 0.5833(2)
H34_2 H 0.336903 0.658236 0.557117
H35_2 H 0.293585 0.704427 0.538966
H36_2 H 0.559310 0.767317 0.543353
H37_2 H 0.490143 0.686725 0.562694
H38_2 H 0.582654 0.760950 0.575756
H39_2 H 0.219046 0.658280 0.584188
H40_2 H 0.310963 0.717910 0.600398
H41_2 H 0.267588 0.764161 0.582223
O9_3 O 0.0689(4) 0.5703(6) 0.19658(11)
O10_3 O 0.0362(4) 0.4504(6) 0.14961(12)
C54_3 C 0.1422(7) 0.5713(9) 0.19984(18)
H29_3 H 0.093247 0.478753 0.152068
H30_3 H 0.012626 0.410453 0.136428
H31_3 H 0.152744 0.532222 0.188637
N1_3 N 0.2084(6) 0.6274(8) 0.21914(17)
C55_3 C 0.1976(8) 0.6912(11) 0.2377(2)
C56_3 C 0.2889(9) 0.6186(11) 0.2227(2)
H32_3 H 0.134127 0.674003 0.238010
C57_3 C 0.2500(9) 0.7849(13) 0.2292(3)
H33_3 H 0.214569 0.685406 0.257315
C58_3 C 0.2870(10) 0.5637(13) 0.2500(2)
H34_3 H 0.341764 0.678667 0.223784
H35_3 H 0.295573 0.589158 0.205633
H36_3 H 0.232683 0.791993 0.210020
H37_3 H 0.313275 0.803418 0.229361
H38_3 H 0.239050 0.821704 0.242423
H39_3 H 0.341720 0.560766 0.250855
H40_3 H 0.282090 0.593053 0.267065
H41_3 H 0.235839 0.503427 0.248890
H4_3 H 0.013965 0.605588 0.610033
C10_3 C 0.0166(6) 0.6976(5) 0.66004(13)
C12_3 C 0.0543(6) 0.7746(5) 0.67778(13)
H6_3 H 0.041830 0.660217 0.659455
C13_3 C 0.0169(6) 0.8307(5) 0.67819(12)
C14_3 C 0.1315(6) 0.8056(4) 0.69937(12)
C15_3 C 0.0719(6) 0.9078(4) 0.69784(13)
C16_3 C 0.1390(6) 0.8949(4) 0.70958(12)
C17_3 C 0.1096(6) 0.7419(4) 0.72489(13)
C18_3 C 0.2208(6) 0.8156(4) 0.68894(12)
C19_3 C 0.0638(7) 0.9824(5) 0.70556(14)
C20_3 C 0.1979(7) 0.9556(5) 0.73004(12)
C21_3 C 0.1801(6) 0.7252(4) 0.73052(12)
C22_3 C 0.0336(7) 0.7016(5) 0.74163(14)
C23_3 C 0.2727(6) 0.8626(5) 0.66527(12)
C24_3 C 0.2491(7) 0.7703(5) 0.70806(13)
H8_3 H 0.018183 0.990728 0.697782
H9_3 H 0.241379 0.945534 0.738696
C27_3 C 0.1770(7) 0.6750(5) 0.75460(14)
C28_3 C 0.0287(7) 0.6498(5) 0.76567(13)
H11_3 H 0.253552 0.892798 0.652937
C29_3 C 0.3553(7) 0.8641(5) 0.66007(13)
C30_3 C 0.3297(7) 0.7708(5) 0.70278(14)
H13_3 H 0.225482 0.666557 0.759062
C32_3 C 0.1006(7) 0.6376(5) 0.77180(14)
C34_3 C 0.3800(7) 0.8176(5) 0.67908(14)
C35_3 C 0.4149(7) 0.9176(5) 0.63525(14)
H14_3 H 0.348889 0.740196 0.714940
H15_3 H 0.097758 0.603465 0.787869
H16_3 H 0.433968 0.817986 0.675622
C40_3 C 0.5086(7) 0.9457(5) 0.63564(15)
C41_3 C 0.3843(7) 0.9439(5) 0.61232(14)
H21_3 H 0.531975 0.926145 0.650367
C47_3 C 0.4405(7) 0.9973(5) 0.59057(15)
H22_3 H 0.322916 0.925084 0.611252
O1_3 O 0.4523(4) 0.8877(5) 0.78523(10)
Zn1_3 Zn 0.43540(5) 0.76632(5) 0.79820(2)
O2_3 O 0.5316(3) 0.7944(3) 0.82653(9)
O3_3 O 0.5444(5) 0.8648(6) 0.75931(13)
O4_4 O 0.4482(4) 0.6376(6) 0.78755(12)
O5_4 O 0.3744(4) 0.6857(5) 0.76416(10)
O6_3 O 0.3253(3) 0.7232(3) 0.82271(10)
C1_4 C 0.4000(5) 0.6289(5) 0.76697(14)
C2_4 C 0.3666(5) 0.5506(5) 0.74698(14)
C3_4 C 0.2942(5) 0.5291(5) 0.72950(16)
C4_4 C 0.4105(5) 0.5006(5) 0.74498(15)
C5_4 C 0.2606(5) 0.4556(5) 0.71087(14)
H1_4 H 0.266806 0.564453 0.730074
C6_4 C 0.3784(5) 0.4271(5) 0.72516(14)
H2_4 H 0.460569 0.515095 0.756531
C7_4 C 0.3029(5) 0.4046(5) 0.70882(14)
H3_4 H 0.209602 0.440627 0.699733
H4_4 H 0.408377 0.394412 0.723300
C8_4 C 0.2643(4) 0.3221(5) 0.68969(13)
C9_4 C 0.1702(4) 0.2651(5) 0.68867(13)
C10_4 C 0.3190(4) 0.3024(5) 0.67329(13)
C11_4 C 0.1306(5) 0.1904(5) 0.67169(13)
H5_4 H 0.133706 0.279051 0.699998
C12_4 C 0.2797(4) 0.2254(5) 0.65555(13)
H6_4 H 0.381613 0.339783 0.673878
C13_4 C 0.1862(4) 0.1693(5) 0.65514(12)
H7_4 H 0.067885 0.153896 0.671070
C14_4 C 0.3259(4) 0.1944(4) 0.63396(12)
C15_4 C 0.1641(4) 0.0922(4) 0.63549(13)
C16_4 C 0.2441(4) 0.1051(4) 0.62375(12)
C17_4 C 0.3677(4) 0.2581(4) 0.60844(13)
C18_4 C 0.4052(4) 0.1844(4) 0.64439(12)
C19_4 C 0.0814(5) 0.0176(5) 0.62777(14)
C20_4 C 0.2423(5) 0.0444(5) 0.60329(12)
C21_4 C 0.4549(5) 0.2748(4) 0.60281(12)
C22_4 C 0.3320(5) 0.2984(5) 0.59170(14)
C23_4 C 0.4101(4) 0.1374(5) 0.66806(12)
C24_4 C 0.4788(5) 0.2297(5) 0.62527(13)
H8_4 H 0.027455 0.009272 0.635551
H9_4 H 0.295845 0.054466 0.594637
C27_4 C 0.5020(5) 0.3250(5) 0.57873(14)
H10_4 H 0.275716 0.291290 0.596345
C28_4 C 0.3789(5) 0.3502(5) 0.56766(13)
H11_4 H 0.360754 0.107202 0.680396
C29_4 C 0.4912(5) 0.1359(5) 0.67326(13)
C30_4 C 0.5589(5) 0.2292(5) 0.63055(14)
H13_4 H 0.558925 0.333443 0.574271
C32_4 C 0.4630(5) 0.3624(5) 0.56153(14)
C33_4 C 0.3401(5) 0.3970(5) 0.54935(15)
C34_4 C 0.5624(5) 0.1824(5) 0.65425(14)
C35_4 C 0.4973(5) 0.0824(5) 0.69808(14)
H14_4 H 0.608693 0.259804 0.618393
H15_4 H 0.494293 0.396535 0.545464
C38_4 C 0.3933(5) 0.4729(5) 0.53363(15)
C39_4 C 0.2451(7) 0.3576(6) 0.5469(2)
H16_4 H 0.615982 0.182014 0.657711
C40_4 C 0.5629(5) 0.0543(5) 0.69769(15)
C41_4 C 0.4404(5) 0.0561(5) 0.72101(14)
C44_4 C 0.3571(5) 0.5167(5) 0.51827(14)
H19_4 H 0.455552 0.495848 0.533219
C45_4 C 0.2092(7) 0.4020(6) 0.5320(2)
H20_4 H 0.207019 0.301654 0.555331
H21_4 H 0.605830 0.073855 0.682966
C47_4 C 0.4432(5) 0.0027(5) 0.74276(15)
H22_4 H 0.397832 0.074916 0.722081
C49_4 C 0.2655(5) 0.4838(5) 0.51715(17)
H25_4 H 0.395750 0.569835 0.508425
H26_4 H 0.146723 0.377721 0.531649
C52_4 C 0.2237(6) 0.5294(6) 0.50214(17)
Zn2_2 Zn 0.04325(6) 0.51958(6) 0.49143(2)
O8_3 O 0.1384(4) 0.4898(4) 0.50185(13)
Zn3_2 Zn 0.23368(5) 0.66908(7) 0.46487(2)
O12_2 O 0.2768(3) 0.6021(4) 0.48938(10)
C25_4 C 0.0816(5) 0.9578(5) 0.60871(13)
C26_4 C 0.1603(5) 0.9686(5) 0.59578(13)
H12_4 H 0.026672 0.906937 0.603965
C31_4 C 0.1545(5) 0.9025(5) 0.57419(13)
C36_4 C 0.0916(5) 0.8121(6) 0.57632(15)
C37_4 C 0.2149(5) 0.9282(5) 0.55102(14)
C42_4 C 0.0868(5) 0.7507(5) 0.55548(15)
H17_4 H 0.051666 0.791463 0.591874
H18_4 H 0.259232 0.988954 0.549356
C43_4 C 0.2123(5) 0.8678(5) 0.53027(14)
C46_4 C 0.5632(5) 0.9990(5) 0.71873(13)
C48_4 C 0.1447(5) 0.7767(5) 0.53254(13)
H23_4 H 0.042593 0.690044 0.557287
H24_4 H 0.254329 0.887374 0.515291
H27_4 H 0.605680 0.980086 0.717775
C50_4 C 0.5049(5) 0.9708(5) 0.74073(14)
H28_4 H 0.404738 0.987668 0.758617
C51_4 C 0.1436(6) 0.7107(6) 0.51108(16)
C53_4 C 0.5008(5) 0.9056(6) 0.76366(15)
O7_4 O 0.0730(4) 0.6313(4) 0.51190(10)
O11_2 O 0.2056(3) 0.7372(4) 0.49320(9)
Zn6_3 Zn 0.47633(8) 0.95675(6) 0.82476(2)
O16_2 O 0.1123(5) 0.5646(6) 0.45190(10)
C25_5 C 0.0422(5) 0.1238(7) 0.27538(13)
C26_5 C 0.0314(5) 0.1917(7) 0.26245(13)
H12_5 H 0.093063 0.119735 0.270632
C31_5 C 0.0975(5) 0.2520(7) 0.24086(13)
C36_5 C 0.1879(6) 0.2795(8) 0.24299(15)
C37_5 C 0.0718(5) 0.2867(7) 0.21769(14)
C42_5 C 0.2493(5) 0.3361(7) 0.22215(15)
H17_5 H 0.208537 0.260203 0.258541
H18_5 H 0.011046 0.270278 0.216023
C43_5 C 0.1322(5) 0.3445(7) 0.19694(14)
C46_5 C 0.0010(5) 0.5642(7) 0.38540(13)
C48_5 C 0.2233(5) 0.3680(7) 0.19921(13)
H23_5 H 0.309956 0.352549 0.223954
H24_5 H 0.112626 0.366955 0.181958
H27_5 H 0.019914 0.625594 0.384442
C50_5 C 0.0292(5) 0.5341(7) 0.40740(14)
H28_5 H 0.012332 0.417070 0.425284
C51_5 C 0.2893(6) 0.4329(8) 0.17775(16)
C53_5 C 0.0944(6) 0.5952(8) 0.43033(15)
O7_5 O 0.3687(4) 0.4417(6) 0.17857(10)
O9_4 O 0.4986(4) 0.4297(6) 0.13676(11)
O10_4 O 0.5858(4) 0.5496(6) 0.18373(12)
C54_4 C 0.5709(6) 0.4287(9) 0.13350(18)
H29_4 H 0.614494 0.521247 0.181266
H30_4 H 0.602173 0.589547 0.196906
H31_4 H 0.620522 0.467778 0.144697
N1_4 N 0.5810(5) 0.3726(8) 0.11420(17)
C55_4 C 0.5064(7) 0.3088(11) 0.0957(2)
C56_4 C 0.6703(7) 0.3814(11) 0.1107(2)
H32_4 H 0.460124 0.325997 0.095324
C57_4 C 0.4651(9) 0.2151(13) 0.1042(3)
H33_4 H 0.529163 0.314594 0.076019
C58_4 C 0.7233(8) 0.4363(13) 0.0834(2)
H34_4 H 0.663097 0.321333 0.109550
H35_4 H 0.706415 0.410842 0.127701
H36_4 H 0.440690 0.208007 0.123314
H37_4 H 0.509857 0.196582 0.103973
H38_4 H 0.417346 0.178296 0.090911
H39_4 H 0.780954 0.439234 0.082479
H40_4 H 0.689037 0.406947 0.066269
H41_4 H 0.732412 0.496573 0.084444
O11_3 O 0.2628(4) 0.4684(5) 0.15986(9)
O14_2 O 0.1352(6) 0.6796(8) 0.42598(13)
Zn4 Zn 0.48042(6) 0.52367(8) 0.15810(2)
Zn5 Zn 0.33092(7) 0.56460(9) 0.13153(2)
O15_2 O 0.5102(4) 0.6486(6) 0.16852(13)
O16_3 O 0.4354(6) 0.5477(8) 0.11856(10)
O4_5 O 0.3624(6) 0.8106(7) 0.45422(12)
O5_5 O 0.3143(5) 0.6887(6) 0.43083(10)
C1_5 C 0.3711(5) 0.7711(7) 0.43364(14)
C2_5 C 0.4494(5) 0.8160(7) 0.41365(14)
C3_5 C 0.4709(5) 0.7651(7) 0.39617(16)
C4_5 C 0.4994(5) 0.9099(7) 0.41165(15)
C5_5 C 0.5444(5) 0.8050(7) 0.37754(14)
H1_5 H 0.435547 0.702353 0.396741
C6_5 C 0.5729(5) 0.9513(7) 0.39183(14)
H2_5 H 0.484905 0.945474 0.423198
C7_5 C 0.5954(5) 0.8983(7) 0.37549(14)
H3_5 H 0.559373 0.768975 0.366400
C8_5 C 0.6779(5) 0.9422(6) 0.35636(13)
C9_5 C 0.7349(5) 0.9051(6) 0.35534(13)
C11_5 C 0.8096(5) 0.9402(7) 0.33836(13)
H5_5 H 0.720949 0.854655 0.366665
H7_5 H 0.846104 0.913989 0.337737
H10_5 H 0.708710 0.984426 0.263012
C33_5 C 0.6030(5) 0.9431(7) 0.21602(15)
C38_5 C 0.5271(5) 0.9204(7) 0.20030(15)
C39_5 C 0.6424(6) 0.8875(9) 0.2136(2)
C44_5 C 0.4833(5) 0.8404(7) 0.18494(14)
H19_5 H 0.504152 0.959704 0.199886
C45_5 C 0.5980(6) 0.8072(9) 0.1987(2)
H20_5 H 0.698346 0.905365 0.221998
C49_5 C 0.5162(5) 0.7817(7) 0.18382(17)
H25_5 H 0.430165 0.825915 0.175092
H26_5 H 0.622279 0.769002 0.198316
C52_5 C 0.4706(6) 0.6943(8) 0.16881(17)
O12_3 O 0.3979(4) 0.6747(5) 0.15604(10)
O3_4 O 0.3204(8) 0.4556(5) 0.09264(13)
O4_6 O 0.1894(7) 0.5518(4) 0.12088(12)
O5_6 O 0.3113(6) 0.6256(4) 0.09749(10)
C1_6 C 0.2289(7) 0.6000(5) 0.10030(14)
C2_6 C 0.1840(7) 0.6334(5) 0.08031(14)
C3_6 C 0.2349(7) 0.7058(5) 0.06283(16)
C4_6 C 0.0901(7) 0.5895(5) 0.07831(15)
C5_6 C 0.1950(7) 0.7394(5) 0.04420(14)
H1_6 H 0.297647 0.733194 0.063407
C6_6 C 0.0487(7) 0.6216(5) 0.05849(14)
H2_6 H 0.054526 0.539431 0.089864
C7_6 C 0.1017(7) 0.6971(5) 0.04215(14)
H3_6 H 0.231025 0.790398 0.033066
C8_6 C 0.0578(6) 0.7357(4) 0.02302(13)
C9_6 C 0.0949(6) 0.8298(4) 0.02200(13)
C11_6 C 0.0598(7) 0.8694(5) 0.00502(13)
H5_6 H 0.145345 0.866294 0.033331
H7_6 H 0.086011 0.932115 0.004403
H10_6 H 0.015574 0.724284 0.929678
C33_6 C 0.0569(7) 0.6599(5) 0.88268(15)
C38_6 C 0.0796(7) 0.6067(5) 0.86696(15)
C39_6 C 0.1125(9) 0.7549(7) 0.8802(2)
C44_6 C 0.1596(7) 0.6429(5) 0.85160(14)
H19_6 H 0.040296 0.544448 0.866552
C45_6 C 0.1928(9) 0.7908(7) 0.8653(2)
H20_6 H 0.094635 0.792981 0.888664
C49_6 C 0.2183(7) 0.7345(5) 0.85048(17)
H25_6 H 0.174085 0.604250 0.841758
H26_6 H 0.230998 0.853277 0.864982
C52_6 C 0.3057(8) 0.7763(6) 0.83547(17)
O8_4 O 0.3514(6) 0.8616(4) 0.83518(13)
H4_5 H 0.986035 0.591623 0.056633
C10_5 C 0.9834(6) 0.6810(4) 0.00662(13)
H6_5 H 0.958170 0.618387 0.007211
C23_5 C 0.7273(6) 0.5899(4) 0.00139(12)
H11_5 H 0.746448 0.639246 0.013729
C29_5 C 0.6447(7) 0.5088(5) 0.00659(13)
C35_5 C 0.5851(7) 0.5027(5) 0.03141(14)
C40_5 C 0.4914(7) 0.4371(5) 0.03102(15)
C41_5 C 0.6157(7) 0.5596(5) 0.05434(14)
H21_5 H 0.468025 0.394170 0.016299
C46_6 C 0.4358(7) 0.4368(5) 0.05206(13)
C47_5 C 0.5595(7) 0.5568(5) 0.07609(15)
H22_5 H 0.677084 0.602168 0.055414
H27_6 H 0.374406 0.394320 0.051108
C50_6 C 0.4659(7) 0.4951(5) 0.07406(14)
H28_6 H 0.582930 0.595262 0.091950
C53_6 C 0.4048(8) 0.4992(5) 0.09699(15)
C12_5 C 0.9457(6) 0.7203(4) 0.98888(13)
C13_5 C 0.9831(6) 0.8138(4) 0.98847(12)
C14_5 C 0.8685(6) 0.6741(4) 0.96729(12)
C15_5 C 0.9281(6) 0.8359(4) 0.96882(13)
C16_5 C 0.8610(6) 0.7559(4) 0.95708(12)
C17_5 C 0.8904(6) 0.6323(4) 0.94177(13)
C18_5 C 0.7792(6) 0.5948(4) 0.97772(12)
C19_5 C 0.9362(7) 0.9186(5) 0.96110(14)
C20_5 C 0.8021(7) 0.7577(5) 0.93662(12)
C21_5 C 0.8199(6) 0.5451(5) 0.93614(12)
C22_5 C 0.9664(7) 0.6680(5) 0.92503(14)
C24_5 C 0.7509(7) 0.5212(5) 0.95860(13)
C25_6 C 0.8762(7) 0.9184(5) 0.94204(13)
H8_5 H 0.981817 0.972545 0.968884
C26_6 C 0.8083(7) 0.8397(5) 0.92911(13)
H9_5 H 0.758621 0.704155 0.927970
C27_5 C 0.8230(7) 0.4980(5) 0.91206(14)
C28_5 C 0.9713(7) 0.6211(5) 0.90099(13)
C30_5 C 0.6703(7) 0.4411(5) 0.96388(14)
H12_6 H 0.880265 0.973328 0.937298
C31_6 C 0.7480(7) 0.8455(5) 0.90752(13)
H13_5 H 0.774518 0.441075 0.907604
C32_5 C 0.8994(7) 0.5370(5) 0.89486(14)
C34_5 C 0.6200(7) 0.4376(5) 0.98758(14)
H14_5 H 0.651111 0.391307 0.951726
C36_6 C 0.7205(8) 0.9084(5) 0.90965(15)
C37_6 C 0.7133(7) 0.7851(5) 0.88435(14)
H15_5 H 0.902242 0.505707 0.878797
H16_5 H 0.566032 0.384018 0.991044
C42_6 C 0.6639(7) 0.9132(5) 0.88881(15)
H17_6 H 0.739797 0.948334 0.925207
H18_6 H 0.729722 0.740768 0.882689
C43_6 C 0.6555(7) 0.7877(5) 0.86360(14)
C48_6 C 0.6320(7) 0.8553(5) 0.86587(13)
H23_6 H 0.647451 0.957407 0.890620
H24_6 H 0.633045 0.745671 0.848624
C51_6 C 0.5671(8) 0.8564(6) 0.84441(16)
O7_6 O 0.5583(6) 0.9270(4) 0.84523(10)
O9_5 O 0.9311(4) 0.5014(4) 0.47009(11)
O10_5 O 0.9638(4) 0.4142(4) 0.51706(12)
C54_5 C 0.8578(7) 0.4291(6) 0.46683(18)
H29_5 H 0.906753 0.385506 0.514599
H30_5 H 0.987374 0.397827 0.530239
H31_5 H 0.847256 0.379478 0.478030
N1_5 N 0.7916(6) 0.4190(5) 0.44753(17)
C55_5 C 0.8024(8) 0.4936(7) 0.4290(2)
C56_5 C 0.7111(9) 0.3297(7) 0.4440(2)
H32_5 H 0.865873 0.539876 0.428657
C57_5 C 0.7500(9) 0.5349(9) 0.4375(3)
H33_5 H 0.785431 0.470837 0.409352
C58_5 C 0.7130(10) 0.2767(8) 0.4167(2)
H34_5 H 0.658236 0.336903 0.442883
H35_5 H 0.704427 0.293585 0.461034
H36_5 H 0.767317 0.559310 0.456647
H37_5 H 0.686725 0.490143 0.437306
H38_5 H 0.760950 0.582654 0.424244
H39_5 H 0.658280 0.219046 0.415812
H40_5 H 0.717910 0.310963 0.399602
H41_5 H 0.764161 0.267588 0.417777
H4_6 H 0.605588 0.013965 0.389967
C10_6 C 0.6976(5) 0.0166(6) 0.33996(13)
C12_6 C 0.7746(5) 0.0543(6) 0.32222(13)
H6_6 H 0.660217 0.041830 0.340545
C13_6 C 0.8307(5) 0.0169(6) 0.32181(12)
C14_6 C 0.8056(4) 0.1315(6) 0.30063(12)
C15_6 C 0.9078(4) 0.0719(6) 0.30216(13)
C16_6 C 0.8949(4) 0.1390(6) 0.29042(12)
C17_6 C 0.7419(4) 0.1096(6) 0.27511(13)
C18_6 C 0.8156(4) 0.2208(6) 0.31106(12)
C19_6 C 0.9824(5) 0.0638(7) 0.29444(14)
C20_6 C 0.9556(5) 0.1979(7) 0.26996(12)
C21_6 C 0.7252(4) 0.1801(6) 0.26948(12)
C22_6 C 0.7016(5) 0.0336(7) 0.25837(14)
C23_6 C 0.8626(5) 0.2727(6) 0.33473(12)
C24_6 C 0.7703(5) 0.2491(7) 0.29194(13)
H8_6 H 0.990728 0.018183 0.302218
H9_6 H 0.945534 0.241379 0.261304
C27_6 C 0.6750(5) 0.1770(7) 0.24540(14)
C28_6 C 0.6498(5) 0.0287(7) 0.23433(13)
H11_6 H 0.892798 0.253552 0.347063
C29_6 C 0.8641(5) 0.3553(7) 0.33993(13)
C30_6 C 0.7708(5) 0.3297(7) 0.29722(14)
H13_6 H 0.666557 0.225482 0.240938
C32_6 C 0.6376(5) 0.1006(7) 0.22820(14)
C34_6 C 0.8176(5) 0.3800(7) 0.32092(14)
C35_6 C 0.9176(5) 0.4149(7) 0.36475(14)
H14_6 H 0.740196 0.348889 0.285060
H15_6 H 0.603465 0.097758 0.212131
H16_6 H 0.817986 0.433968 0.324378
C40_6 C 0.9457(5) 0.5086(7) 0.36436(15)
C41_6 C 0.9439(5) 0.3843(7) 0.38768(14)
H21_6 H 0.926145 0.531975 0.349633
C47_6 C 0.9973(5) 0.4405(7) 0.40943(15)
H22_6 H 0.925084 0.322916 0.388748
O9_6 O 0.5703(6) 0.0689(4) 0.80342(11)
O10_6 O 0.4504(6) 0.0362(4) 0.85039(12)
C54_6 C 0.5713(9) 0.1422(7) 0.80016(18)
H29_6 H 0.478753 0.093247 0.847932
H30_6 H 0.410453 0.012626 0.863572
H31_6 H 0.532222 0.152744 0.811363
N1_6 N 0.6274(8) 0.2084(6) 0.78086(17)
C55_6 C 0.6912(11) 0.1976(8) 0.7623(2)
C56_6 C 0.6186(11) 0.2889(9) 0.7773(2)
H32_6 H 0.674003 0.134127 0.761990
C57_6 C 0.7849(13) 0.2500(9) 0.7708(3)
H33_6 H 0.685406 0.214569 0.742685
C58_6 C 0.5637(13) 0.2870(10) 0.7500(2)
H34_6 H 0.678667 0.341764 0.776216
H35_6 H 0.589158 0.295573 0.794367
H36_6 H 0.791993 0.232683 0.789980
H37_6 H 0.803418 0.313275 0.770639
H38_6 H 0.821704 0.239050 0.757577
H39_6 H 0.560766 0.341720 0.749145
H40_6 H 0.593053 0.282090 0.732935
H41_6 H 0.503427 0.235839 0.751110
loop_
_geom_bond_atom_site_label_1
_geom_bond_atom_site_label_2
_geom_bond_site_symmetry_1
_geom_bond_site_symmetry_2
O1 Zn1 1_555 1_555
Zn1 O2 1_555 1_555
O3 Zn1 1_555 1_555
O4 Zn1 1_555 1_555
O5 Zn1 1_555 1_555
O6 Zn1 1_555 1_555
C1 O4 1_555 1_555
C2 C1 1_555 1_555
C3 C2 1_555 1_555
C4 C2 1_555 1_555
C5 C3 1_555 1_555
H1 C3 1_555 1_555
C6 C4 1_555 1_555
H2 C4 1_555 1_555
C7 C5 1_555 1_555
H3 C5 1_555 1_555
H4 C6 1_555 1_555
C8 C7 1_555 1_555
C9 C8 1_555 1_555
C10 C8 1_555 1_555
C11 C9 1_555 1_555
H5 C9 1_555 1_555
C12 C10 1_555 1_555
H6 C10 1_555 1_555
C13 C11 1_555 1_555
H7 C11 1_555 1_555
C14 C12 1_555 1_555
C15 C13 1_555 1_555
C16 C14 1_555 1_555
C17 C14 1_555 1_555
C18 C14 1_555 1_555
C19 C15 1_555 1_555
C20 C16 1_555 1_555
C21 C17 1_555 1_555
C22 C17 1_555 1_555
C23 C18 1_555 1_555
C24 C18 1_555 1_555
H8 C19 1_555 1_555
H9 C20 1_555 1_555
C27 C21 1_555 1_555
H10 C22 1_555 1_555
C28 C22 1_555 1_555
H11 C23 1_555 1_555
C29 C23 1_555 1_555
C30 C24 1_555 1_555
H13 C27 1_555 1_555
C32 C27 1_555 1_555
C33 C28 1_555 1_555
C34 C29 1_555 1_555
C35 C29 1_555 1_555
H14 C30 1_555 1_555
H15 C32 1_555 1_555
C38 C33 1_555 1_555
C39 C33 1_555 1_555
H16 C34 1_555 1_555
C40 C35 1_555 1_555
C41 C35 1_555 1_555
C44 C38 1_555 1_555
H19 C38 1_555 1_555
C45 C39 1_555 1_555
H20 C39 1_555 1_555
H21 C40 1_555 1_555
C47 C41 1_555 1_555
H22 C41 1_555 1_555
C49 C44 1_555 1_555
H25 C44 1_555 1_555
H26 C45 1_555 1_555
C52 C49 1_555 1_555
Zn2 O8 1_555 1_555
O8 C52 1_555 1_555
Zn3 O12 1_555 1_555
O12 C52 1_555 1_555
O5 C1 1_555 1_555
C6 C7 1_555 1_555
C12 C13 1_555 1_555
C15 C16 1_555 1_555
C21 C24 1_555 1_555
C28 C32 1_555 1_555
C30 C34 1_555 1_555
C45 C49 1_555 1_555
H12 C25 1_555 1_555
C31 C26 1_555 1_555
C36 C31 1_555 1_555
C37 C31 1_555 1_555
C42 C36 1_555 1_555
H17 C36 1_555 1_555
H18 C37 1_555 1_555
C43 C37 1_555 1_555
C48 C42 1_555 1_555
H23 C42 1_555 1_555
H24 C43 1_555 1_555
H27 C46 1_555 1_555
C50 C46 1_555 1_555
C51 C48 1_555 1_555
C53 C50 1_555 1_555
O7 C51 1_555 1_555
O11 C51 1_555 1_555
O1 C53 1_555 1_555
O3 C53 1_555 1_555
Zn2 O7 1_555 1_555
Zn3 O11 1_555 1_555
Zn6 O1 1_555 1_555
O16 Zn2 1_555 1_555
C25 C26 1_555 1_555
C43 C48 1_555 1_555
Zn3 O16 1_555 1_555
C38_2 C33_2 1_555 1_555
C39_2 C33_2 1_555 1_555
C44_2 C38_2 1_555 1_555
H19_2 C38_2 1_555 1_555
C45_2 C39_2 1_555 1_555
H20_2 C39_2 1_555 1_555
C49_2 C44_2 1_555 1_555
H25_2 C44_2 1_555 1_555
H26_2 C45_2 1_555 1_555
C52_2 C49_2 1_555 1_555
Zn6 O8_2 1_555 1_555
O8_2 C52_2 1_555 1_555
O6 C52_2 1_555 1_555
C45_2 C49_2 1_555 1_555
O1_2 Zn1_2 1_555 1_555
Zn1_2 O2_2 1_555 1_555
O3_2 Zn1_2 1_555 1_555
O4_2 Zn1_2 1_555 1_555
O5_2 Zn1_2 1_555 1_555
O6_2 Zn1_2 1_555 1_555
C1_2 O4_2 1_555 1_555
C2_2 C1_2 1_555 1_555
C3_2 C2_2 1_555 1_555
C4_2 C2_2 1_555 1_555
C5_2 C3_2 1_555 1_555
H1_2 C3_2 1_555 1_555
C6_2 C4_2 1_555 1_555
H2_2 C4_2 1_555 1_555
C7_2 C5_2 1_555 1_555
H3_2 C5_2 1_555 1_555
C8_2 C7_2 1_555 1_555
C9_2 C8_2 1_555 1_555
C11_2 C9_2 1_555 1_555
H5_2 C9_2 1_555 1_555
H7_2 C11_2 1_555 1_555
O5_2 C1_2 1_555 1_555
C6_2 C7_2 1_555 1_555
C14_2 C12_2 1_555 1_555
C15_2 C13_2 1_555 1_555
C16_2 C14_2 1_555 1_555
C17_2 C14_2 1_555 1_555
C18_2 C14_2 1_555 1_555
C19_2 C15_2 1_555 1_555
C20_2 C16_2 1_555 1_555
C21_2 C17_2 1_555 1_555
C22_2 C17_2 1_555 1_555
C24_2 C18_2 1_555 1_555
C25_2 C19_2 1_555 1_555
H8_2 C19_2 1_555 1_555
C26_2 C20_2 1_555 1_555
H9_2 C20_2 1_555 1_555
C27_2 C21_2 1_555 1_555
C28_2 C22_2 1_555 1_555
C30_2 C24_2 1_555 1_555
H12_2 C25_2 1_555 1_555
C31_2 C26_2 1_555 1_555
H13_2 C27_2 1_555 1_555
C32_2 C27_2 1_555 1_555
H14_2 C30_2 1_555 1_555
C36_2 C31_2 1_555 1_555
C37_2 C31_2 1_555 1_555
H15_2 C32_2 1_555 1_555
H16_2 C34_2 1_555 1_555
C42_2 C36_2 1_555 1_555
H17_2 C36_2 1_555 1_555
H18_2 C37_2 1_555 1_555
C43_2 C37_2 1_555 1_555
C48_2 C42_2 1_555 1_555
H23_2 C42_2 1_555 1_555
H24_2 C43_2 1_555 1_555
C51_2 C48_2 1_555 1_555
O7_2 C51_2 1_555 1_555
O2 C51_2 1_555 1_555
Zn6 O7_2 1_555 1_555
C12_2 C13_2 1_555 1_555
C15_2 C16_2 1_555 1_555
C21_2 C24_2 1_555 1_555
C25_2 C26_2 1_555 1_555
C28_2 C32_2 1_555 1_555
C30_2 C34_2 1_555 1_555
C43_2 C48_2 1_555 1_555
H6_2 C10_2 1_555 1_555
H11_2 C23_2 1_555 1_555
C29_2 C23_2 1_555 1_555
C35_2 C29_2 1_555 1_555
C40_2 C35_2 1_555 1_555
C41_2 C35_2 1_555 1_555
H21_2 C40_2 1_555 1_555
C46_2 C40_2 1_555 1_555
C47_2 C41_2 1_555 1_555
H22_2 C41_2 1_555 1_555
H27_2 C46_2 1_555 1_555
C50_2 C46_2 1_555 1_555
H28_2 C47_2 1_555 1_555
C53_2 C50_2 1_555 1_555
O1_2 C53_2 1_555 1_555
O3_2 C53_2 1_555 1_555
Zn6_2 O1_2 1_555 1_555
C47_2 C50_2 1_555 1_555
H12_3 C25_3 1_555 1_555
C31_3 C26_3 1_555 1_555
C36_3 C31_3 1_555 1_555
C37_3 C31_3 1_555 1_555
C42_3 C36_3 1_555 1_555
H17_3 C36_3 1_555 1_555
H18_3 C37_3 1_555 1_555
C43_3 C37_3 1_555 1_555
C48_3 C42_3 1_555 1_555
H23_3 C42_3 1_555 1_555
H24_3 C43_3 1_555 1_555
H27_3 C46_3 1_555 1_555
C50_3 C46_3 1_555 1_555
C51_3 C48_3 1_555 1_555
C53_3 C50_3 1_555 1_555
O7_3 C51_3 1_555 1_555
O9 C54 1_555 1_555
O10 H29 1_555 1_555
C54 H31 1_555 1_555
H30 O10 1_555 1_555
N1 C54 1_555 1_555
C55 N1 1_555 1_555
C56 N1 1_555 1_555
H32 C55 1_555 1_555
C57 C55 1_555 1_555
H33 C55 1_555 1_555
C58 C56 1_555 1_555
H34 C56 1_555 1_555
H35 C56 1_555 1_555
H36 C57 1_555 1_555
H37 C57 1_555 1_555
H38 C57 1_555 1_555
H39 C58 1_555 1_555
H40 C58 1_555 1_555
H41 C58 1_555 1_555
O2_2 C51_3 1_555 1_555
O16 C53_3 1_555 1_555
O14 C53_3 1_555 1_555
Zn6_2 O7_3 1_555 1_555
O15 Zn6_2 1_555 1_555
C25_3 C26_3 1_555 1_555
C43_3 C48_3 1_555 1_555
O9 Zn6_2 1_555 1_555
O10 Zn6_2 1_555 1_555
O14 Zn3 1_555 1_555
O4_3 Zn3 1_555 1_555
O5_3 Zn3 1_555 1_555
C1_3 O4_3 1_555 1_555
C2_3 C1_3 1_555 1_555
C3_3 C2_3 1_555 1_555
C4_3 C2_3 1_555 1_555
C5_3 C3_3 1_555 1_555
H1_3 C3_3 1_555 1_555
C6_3 C4_3 1_555 1_555
H2_3 C4_3 1_555 1_555
C7_3 C5_3 1_555 1_555
H3_3 C5_3 1_555 1_555
C8_3 C7_3 1_555 1_555
C9_3 C8_3 1_555 1_555
C11_3 C9_3 1_555 1_555
H5_3 C9_3 1_555 1_555
H7_3 C11_3 1_555 1_555
C38_3 C33_3 1_555 1_555
C39_3 C33_3 1_555 1_555
C44_3 C38_3 1_555 1_555
H19_3 C38_3 1_555 1_555
C45_3 C39_3 1_555 1_555
H20_3 C39_3 1_555 1_555
C49_3 C44_3 1_555 1_555
H25_3 C44_3 1_555 1_555
H26_3 C45_3 1_555 1_555
C52_3 C49_3 1_555 1_555
O15 C52_3 1_555 1_555
O6_2 C52_3 1_555 1_555
O5_3 C1_3 1_555 1_555
C6_3 C7_3 1_555 1_555
C45_3 C49_3 1_555 1_555
O9_2 C54_2 1_555 1_555
O10_2 H29_2 1_555 1_555
C54_2 H31_2 1_555 1_555
H30_2 O10_2 1_555 1_555
N1_2 C54_2 1_555 1_555
C55_2 N1_2 1_555 1_555
C56_2 N1_2 1_555 1_555
H32_2 C55_2 1_555 1_555
C57_2 C55_2 1_555 1_555
H33_2 C55_2 1_555 1_555
C58_2 C56_2 1_555 1_555
H34_2 C56_2 1_555 1_555
H35_2 C56_2 1_555 1_555
H36_2 C57_2 1_555 1_555
H37_2 C57_2 1_555 1_555
H38_2 C57_2 1_555 1_555
H39_2 C58_2 1_555 1_555
H40_2 C58_2 1_555 1_555
H41_2 C58_2 1_555 1_555
O9_3 C54_3 1_555 1_555
O10_3 H29_3 1_555 1_555
C54_3 H31_3 1_555 1_555
H30_3 O10_3 1_555 1_555
N1_3 C54_3 1_555 1_555
C55_3 N1_3 1_555 1_555
C56_3 N1_3 1_555 1_555
H32_3 C55_3 1_555 1_555
C57_3 C55_3 1_555 1_555
H33_3 C55_3 1_555 1_555
C58_3 C56_3 1_555 1_555
H34_3 C56_3 1_555 1_555
H35_3 C56_3 1_555 1_555
H36_3 C57_3 1_555 1_555
H37_3 C57_3 1_555 1_555
H38_3 C57_3 1_555 1_555
H39_3 C58_3 1_555 1_555
H40_3 C58_3 1_555 1_555
H41_3 C58_3 1_555 1_555
C12_3 C10_3 1_555 1_555
H6_3 C10_3 1_555 1_555
C14_3 C12_3 1_555 1_555
C15_3 C13_3 1_555 1_555
C16_3 C14_3 1_555 1_555
C17_3 C14_3 1_555 1_555
C18_3 C14_3 1_555 1_555
C19_3 C15_3 1_555 1_555
C20_3 C16_3 1_555 1_555
C21_3 C17_3 1_555 1_555
C22_3 C17_3 1_555 1_555
C23_3 C18_3 1_555 1_555
C24_3 C18_3 1_555 1_555
H8_3 C19_3 1_555 1_555
H9_3 C20_3 1_555 1_555
C27_3 C21_3 1_555 1_555
C28_3 C22_3 1_555 1_555
H11_3 C23_3 1_555 1_555
C29_3 C23_3 1_555 1_555
C30_3 C24_3 1_555 1_555
H13_3 C27_3 1_555 1_555
C32_3 C27_3 1_555 1_555
C34_3 C29_3 1_555 1_555
C35_3 C29_3 1_555 1_555
H14_3 C30_3 1_555 1_555
H15_3 C32_3 1_555 1_555
H16_3 C34_3 1_555 1_555
C40_3 C35_3 1_555 1_555
C41_3 C35_3 1_555 1_555
H21_3 C40_3 1_555 1_555
C47_3 C41_3 1_555 1_555
H22_3 C41_3 1_555 1_555
C12_3 C13_3 1_555 1_555
C15_3 C16_3 1_555 1_555
C21_3 C24_3 1_555 1_555
C28_3 C32_3 1_555 1_555
C30_3 C34_3 1_555 1_555
O1_3 Zn1_3 1_555 1_555
Zn1_3 O2_3 1_555 1_555
O3_3 Zn1_3 1_555 1_555
O4_4 Zn1_3 1_555 1_555
O5_4 Zn1_3 1_555 1_555
O6_3 Zn1_3 1_555 1_555
C1_4 O4_4 1_555 1_555
C2_4 C1_4 1_555 1_555
C3_4 C2_4 1_555 1_555
C4_4 C2_4 1_555 1_555
C5_4 C3_4 1_555 1_555
H1_4 C3_4 1_555 1_555
C6_4 C4_4 1_555 1_555
H2_4 C4_4 1_555 1_555
C7_4 C5_4 1_555 1_555
H3_4 C5_4 1_555 1_555
H4_4 C6_4 1_555 1_555
C8_4 C7_4 1_555 1_555
C9_4 C8_4 1_555 1_555
C10_4 C8_4 1_555 1_555
C11_4 C9_4 1_555 1_555
H5_4 C9_4 1_555 1_555
C12_4 C10_4 1_555 1_555
H6_4 C10_4 1_555 1_555
C13_4 C11_4 1_555 1_555
H7_4 C11_4 1_555 1_555
C14_4 C12_4 1_555 1_555
C15_4 C13_4 1_555 1_555
C16_4 C14_4 1_555 1_555
C17_4 C14_4 1_555 1_555
C18_4 C14_4 1_555 1_555
C19_4 C15_4 1_555 1_555
C20_4 C16_4 1_555 1_555
C21_4 C17_4 1_555 1_555
C22_4 C17_4 1_555 1_555
C23_4 C18_4 1_555 1_555
C24_4 C18_4 1_555 1_555
H8_4 C19_4 1_555 1_555
H9_4 C20_4 1_555 1_555
C27_4 C21_4 1_555 1_555
H10_4 C22_4 1_555 1_555
C28_4 C22_4 1_555 1_555
H11_4 C23_4 1_555 1_555
C29_4 C23_4 1_555 1_555
C30_4 C24_4 1_555 1_555
H13_4 C27_4 1_555 1_555
C32_4 C27_4 1_555 1_555
C33_4 C28_4 1_555 1_555
C34_4 C29_4 1_555 1_555
C35_4 C29_4 1_555 1_555
H14_4 C30_4 1_555 1_555
H15_4 C32_4 1_555 1_555
C38_4 C33_4 1_555 1_555
C39_4 C33_4 1_555 1_555
H16_4 C34_4 1_555 1_555
C40_4 C35_4 1_555 1_555
C41_4 C35_4 1_555 1_555
C44_4 C38_4 1_555 1_555
H19_4 C38_4 1_555 1_555
C45_4 C39_4 1_555 1_555
H20_4 C39_4 1_555 1_555
H21_4 C40_4 1_555 1_555
C47_4 C41_4 1_555 1_555
H22_4 C41_4 1_555 1_555
C49_4 C44_4 1_555 1_555
H25_4 C44_4 1_555 1_555
H26_4 C45_4 1_555 1_555
C52_4 C49_4 1_555 1_555
Zn2_2 O8_3 1_555 1_555
O8_3 C52_4 1_555 1_555
Zn3_2 O12_2 1_555 1_555
O12_2 C52_4 1_555 1_555
O5_4 C1_4 1_555 1_555
C6_4 C7_4 1_555 1_555
C12_4 C13_4 1_555 1_555
C15_4 C16_4 1_555 1_555
C21_4 C24_4 1_555 1_555
C28_4 C32_4 1_555 1_555
C30_4 C34_4 1_555 1_555
C45_4 C49_4 1_555 1_555
H12_4 C25_4 1_555 1_555
C31_4 C26_4 1_555 1_555
C36_4 C31_4 1_555 1_555
C37_4 C31_4 1_555 1_555
C42_4 C36_4 1_555 1_555
H17_4 C36_4 1_555 1_555
H18_4 C37_4 1_555 1_555
C43_4 C37_4 1_555 1_555
C48_4 C42_4 1_555 1_555
H23_4 C42_4 1_555 1_555
H24_4 C43_4 1_555 1_555
H27_4 C46_4 1_555 1_555
C50_4 C46_4 1_555 1_555
C51_4 C48_4 1_555 1_555
C53_4 C50_4 1_555 1_555
O7_4 C51_4 1_555 1_555
O11_2 C51_4 1_555 1_555
O1_3 C53_4 1_555 1_555
O3_3 C53_4 1_555 1_555
Zn2_2 O7_4 1_555 1_555
Zn3_2 O11_2 1_555 1_555
Zn6_3 O1_3 1_555 1_555
O16_2 Zn2_2 1_555 1_555
C25_4 C26_4 1_555 1_555
C43_4 C48_4 1_555 1_555
Zn3_2 O16_2 1_555 1_555
H12_5 C25_5 1_555 1_555
C31_5 C26_5 1_555 1_555
C36_5 C31_5 1_555 1_555
C37_5 C31_5 1_555 1_555
C42_5 C36_5 1_555 1_555
H17_5 C36_5 1_555 1_555
H18_5 C37_5 1_555 1_555
C43_5 C37_5 1_555 1_555
C48_5 C42_5 1_555 1_555
H23_5 C42_5 1_555 1_555
H24_5 C43_5 1_555 1_555
H27_5 C46_5 1_555 1_555
C50_5 C46_5 1_555 1_555
C51_5 C48_5 1_555 1_555
C53_5 C50_5 1_555 1_555
O7_5 C51_5 1_555 1_555
O9_4 C54_4 1_555 1_555
O10_4 H29_4 1_555 1_555
C54_4 H31_4 1_555 1_555
H30_4 O10_4 1_555 1_555
N1_4 C54_4 1_555 1_555
C55_4 N1_4 1_555 1_555
C56_4 N1_4 1_555 1_555
H32_4 C55_4 1_555 1_555
C57_4 C55_4 1_555 1_555
H33_4 C55_4 1_555 1_555
C58_4 C56_4 1_555 1_555
H34_4 C56_4 1_555 1_555
H35_4 C56_4 1_555 1_555
H36_4 C57_4 1_555 1_555
H37_4 C57_4 1_555 1_555
H38_4 C57_4 1_555 1_555
H39_4 C58_4 1_555 1_555
H40_4 C58_4 1_555 1_555
H41_4 C58_4 1_555 1_555
O11_3 C51_5 1_555 1_555
O16_2 C53_5 1_555 1_555
O14_2 C53_5 1_555 1_555
Zn4 O7_5 1_555 1_555
Zn5 O11_3 1_555 1_555
O15_2 Zn4 1_555 1_555
O16_3 Zn4 1_555 1_555
C25_5 C26_5 1_555 1_555
C43_5 C48_5 1_555 1_555
O9_4 Zn4 1_555 1_555
O10_4 Zn4 1_555 1_555
O14_2 Zn3_2 1_555 1_555
Zn5 O16_3 1_555 1_555
O4_5 Zn3_2 1_555 1_555
O5_5 Zn3_2 1_555 1_555
C1_5 O4_5 1_555 1_555
C2_5 C1_5 1_555 1_555
C3_5 C2_5 1_555 1_555
C4_5 C2_5 1_555 1_555
C5_5 C3_5 1_555 1_555
H1_5 C3_5 1_555 1_555
C6_5 C4_5 1_555 1_555
H2_5 C4_5 1_555 1_555
C7_5 C5_5 1_555 1_555
H3_5 C5_5 1_555 1_555
C8_5 C7_5 1_555 1_555
C9_5 C8_5 1_555 1_555
C11_5 C9_5 1_555 1_555
H5_5 C9_5 1_555 1_555
H7_5 C11_5 1_555 1_555
C38_5 C33_5 1_555 1_555
C39_5 C33_5 1_555 1_555
C44_5 C38_5 1_555 1_555
H19_5 C38_5 1_555 1_555
C45_5 C39_5 1_555 1_555
H20_5 C39_5 1_555 1_555
C49_5 C44_5 1_555 1_555
H25_5 C44_5 1_555 1_555
H26_5 C45_5 1_555 1_555
C52_5 C49_5 1_555 1_555
O15_2 C52_5 1_555 1_555
Zn5 O12_3 1_555 1_555
O12_3 C52_5 1_555 1_555
O5_5 C1_5 1_555 1_555
C6_5 C7_5 1_555 1_555
C45_5 C49_5 1_555 1_555
O3_4 Zn5 1_555 1_555
O4_6 Zn5 1_555 1_555
O5_6 Zn5 1_555 1_555
C1_6 O4_6 1_555 1_555
C2_6 C1_6 1_555 1_555
C3_6 C2_6 1_555 1_555
C4_6 C2_6 1_555 1_555
C5_6 C3_6 1_555 1_555
H1_6 C3_6 1_555 1_555
C6_6 C4_6 1_555 1_555
H2_6 C4_6 1_555 1_555
C7_6 C5_6 1_555 1_555
H3_6 C5_6 1_555 1_555
C8_6 C7_6 1_555 1_555
C9_6 C8_6 1_555 1_555
C11_6 C9_6 1_555 1_555
H5_6 C9_6 1_555 1_555
H7_6 C11_6 1_555 1_555
O5_6 C1_6 1_555 1_555
C6_6 C7_6 1_555 1_555
C38_6 C33_6 1_555 1_555
C39_6 C33_6 1_555 1_555
C44_6 C38_6 1_555 1_555
H19_6 C38_6 1_555 1_555
C45_6 C39_6 1_555 1_555
H20_6 C39_6 1_555 1_555
C49_6 C44_6 1_555 1_555
H25_6 C44_6 1_555 1_555
H26_6 C45_6 1_555 1_555
C52_6 C49_6 1_555 1_555
Zn6_3 O8_4 1_555 1_555
O8_4 C52_6 1_555 1_555
O6_3 C52_6 1_555 1_555
C45_6 C49_6 1_555 1_555
H6_5 C10_5 1_555 1_555
H11_5 C23_5 1_555 1_555
C29_5 C23_5 1_555 1_555
C35_5 C29_5 1_555 1_555
C40_5 C35_5 1_555 1_555
C41_5 C35_5 1_555 1_555
H21_5 C40_5 1_555 1_555
C46_6 C40_5 1_555 1_555
C47_5 C41_5 1_555 1_555
H22_5 C41_5 1_555 1_555
H27_6 C46_6 1_555 1_555
C50_6 C46_6 1_555 1_555
H28_6 C47_5 1_555 1_555
C53_6 C50_6 1_555 1_555
O16_3 C53_6 1_555 1_555
O3_4 C53_6 1_555 1_555
C47_5 C50_6 1_555 1_555
C14_5 C12_5 1_555 1_555
C15_5 C13_5 1_555 1_555
C16_5 C14_5 1_555 1_555
C17_5 C14_5 1_555 1_555
C18_5 C14_5 1_555 1_555
C19_5 C15_5 1_555 1_555
C20_5 C16_5 1_555 1_555
C21_5 C17_5 1_555 1_555
C22_5 C17_5 1_555 1_555
C24_5 C18_5 1_555 1_555
C25_6 C19_5 1_555 1_555
H8_5 C19_5 1_555 1_555
C26_6 C20_5 1_555 1_555
H9_5 C20_5 1_555 1_555
C27_5 C21_5 1_555 1_555
C28_5 C22_5 1_555 1_555
C30_5 C24_5 1_555 1_555
H12_6 C25_6 1_555 1_555
C31_6 C26_6 1_555 1_555
H13_5 C27_5 1_555 1_555
C32_5 C27_5 1_555 1_555
H14_5 C30_5 1_555 1_555
C36_6 C31_6 1_555 1_555
C37_6 C31_6 1_555 1_555
H15_5 C32_5 1_555 1_555
H16_5 C34_5 1_555 1_555
C42_6 C36_6 1_555 1_555
H17_6 C36_6 1_555 1_555
H18_6 C37_6 1_555 1_555
C43_6 C37_6 1_555 1_555
C48_6 C42_6 1_555 1_555
H23_6 C42_6 1_555 1_555
H24_6 C43_6 1_555 1_555
C51_6 C48_6 1_555 1_555
O7_6 C51_6 1_555 1_555
O2_3 C51_6 1_555 1_555
Zn6_3 O7_6 1_555 1_555
C12_5 C13_5 1_555 1_555
C15_5 C16_5 1_555 1_555
C21_5 C24_5 1_555 1_555
C25_6 C26_6 1_555 1_555
C28_5 C32_5 1_555 1_555
C30_5 C34_5 1_555 1_555
C43_6 C48_6 1_555 1_555
O9_5 C54_5 1_555 1_555
O10_5 H29_5 1_555 1_555
C54_5 H31_5 1_555 1_555
H30_5 O10_5 1_555 1_555
N1_5 C54_5 1_555 1_555
C55_5 N1_5 1_555 1_555
C56_5 N1_5 1_555 1_555
H32_5 C55_5 1_555 1_555
C57_5 C55_5 1_555 1_555
H33_5 C55_5 1_555 1_555
C58_5 C56_5 1_555 1_555
H34_5 C56_5 1_555 1_555
H35_5 C56_5 1_555 1_555
H36_5 C57_5 1_555 1_555
H37_5 C57_5 1_555 1_555
H38_5 C57_5 1_555 1_555
H39_5 C58_5 1_555 1_555
H40_5 C58_5 1_555 1_555
H41_5 C58_5 1_555 1_555
C12_6 C10_6 1_555 1_555
H6_6 C10_6 1_555 1_555
C14_6 C12_6 1_555 1_555
C15_6 C13_6 1_555 1_555
C16_6 C14_6 1_555 1_555
C17_6 C14_6 1_555 1_555
C18_6 C14_6 1_555 1_555
C19_6 C15_6 1_555 1_555
C20_6 C16_6 1_555 1_555
C21_6 C17_6 1_555 1_555
C22_6 C17_6 1_555 1_555
C23_6 C18_6 1_555 1_555
C24_6 C18_6 1_555 1_555
H8_6 C19_6 1_555 1_555
H9_6 C20_6 1_555 1_555
C27_6 C21_6 1_555 1_555
C28_6 C22_6 1_555 1_555
H11_6 C23_6 1_555 1_555
C29_6 C23_6 1_555 1_555
C30_6 C24_6 1_555 1_555
H13_6 C27_6 1_555 1_555
C32_6 C27_6 1_555 1_555
C34_6 C29_6 1_555 1_555
C35_6 C29_6 1_555 1_555
H14_6 C30_6 1_555 1_555
H15_6 C32_6 1_555 1_555
H16_6 C34_6 1_555 1_555
C40_6 C35_6 1_555 1_555
C41_6 C35_6 1_555 1_555
H21_6 C40_6 1_555 1_555
C47_6 C41_6 1_555 1_555
H22_6 C41_6 1_555 1_555
C12_6 C13_6 1_555 1_555
C15_6 C16_6 1_555 1_555
C21_6 C24_6 1_555 1_555
C28_6 C32_6 1_555 1_555
C30_6 C34_6 1_555 1_555
O9_6 C54_6 1_555 1_555
O10_6 H29_6 1_555 1_555
C54_6 H31_6 1_555 1_555
H30_6 O10_6 1_555 1_555
N1_6 C54_6 1_555 1_555
C55_6 N1_6 1_555 1_555
C56_6 N1_6 1_555 1_555
H32_6 C55_6 1_555 1_555
C57_6 C55_6 1_555 1_555
H33_6 C55_6 1_555 1_555
C58_6 C56_6 1_555 1_555
H34_6 C56_6 1_555 1_555
H35_6 C56_6 1_555 1_555
H36_6 C57_6 1_555 1_555
H37_6 C57_6 1_555 1_555
H38_6 C57_6 1_555 1_555
H39_6 C58_6 1_555 1_555
H40_6 C58_6 1_555 1_555
H41_6 C58_6 1_555 1_555

#END
