
###############################################################################
#
# This file contains modified crystal structure data generated from the
# MOF subset of the Cambridge Structural Database (CSD) v543 
# hosted by the Cambridge Crystallographic Data Centre (CCDC).
#
# This work is licensed under the Creative Commons
# Attribution-NonCommercial-ShareAlike 4.0 International License.
# To view a copy of this license, visit
# http://creativecommons.org/licenses/by-nc-sa/4.0/
# or send a letter to
# Creative Commons, PO Box 1866, Mountain View, CA 94042, USA.
#
# CIF created using the CSD Python API on 29 September 2022
# The structure has been converted into the P1 space group
# The structure has a 3D framework
# The original CSD entry WEXWAA is in the trigonal crystal system
# The original CSD entry WEXWAA is in a Sohncke space group
# The framework has been calculated to contain at least 10.0% void space
# The void calculation uses a probe of radius 1.32A, grid spacing 0.4
#
###############################################################################

data_WEXWAA
_chemical_formula_moiety         '(C348 H246 N6 O60 Zn12)n'
_symmetry_cell_setting           triclinic
_symmetry_space_group_name_H-M   'P 1'
_symmetry_Int_Tables_number      1
_space_group_name_Hall           'P 1'
loop_
_symmetry_equiv_pos_site_id
_symmetry_equiv_pos_as_xyz
1 x,y,z
_cell_length_a                   16.9917(7)
_cell_length_b                   16.9917(7)
_cell_length_c                   46.4157(18)
_cell_angle_alpha                90
_cell_angle_beta                 90
_cell_angle_gamma                120
_cell_volume                     11605.6
loop_
_atom_site_label
_atom_site_type_symbol
_atom_site_fract_x
_atom_site_fract_y
_atom_site_fract_z
O5 O 0.3272(2) 0.7240(2) 0.17761(7)
O6 O 0.3519(3) 0.8618(3) 0.16476(10)
H12 H 0.017509 0.727706 0.070433
C20 C 0.0568(4) 0.6611(4) 0.11674(11)
C21 C 0.0807(4) 0.6064(3) 0.13304(10)
H13 H 0.042146 0.543743 0.133293
C22 C 0.1607(3) 0.6443(4) 0.14871(10)
H14 H 0.174621 0.606311 0.159217
C23 C 0.2196(4) 0.7356(4) 0.14924(12)
C24 C 0.1947(5) 0.7909(5) 0.13360(18)
H15 H 0.233870 0.853398 0.133146
C25 C 0.1114(5) 0.7531(5) 0.11862(17)
H16 H 0.093609 0.791093 0.109973
C26 C 0.3062(4) 0.7781(4) 0.16445(11)
Zn5 Zn 0.43659(3) 0.76682(4) 0.20177(2)
Zn6 Zn 0.47757(3) 0.95814(3) 0.17578(2)
Zn1 Zn 0.33023(3) 0.56341(3) 0.86844(2)
O1 O 0.3121(2) 0.6255(3) 0.90329(6)
O2 O 0.1900(3) 0.5530(3) 0.87825(8)
C27 C 0.2308(3) 0.6010(3) 0.89945(9)
C28 C 0.1835(3) 0.6323(4) 0.91999(10)
C29 C 0.2361(3) 0.7063(3) 0.93721(10)
H17 H 0.299108 0.733627 0.936542
C30 C 0.1959(3) 0.7404(4) 0.95555(10)
H18 H 0.232090 0.791859 0.966524
C31 C 0.1025(3) 0.6983(3) 0.95761(8)
C32 C 0.0494(3) 0.6216(4) 0.94122(9)
C33 C 0.0900(3) 0.5895(4) 0.92159(10)
H20 H 0.054228 0.539919 0.909835
C34 C 0.0592(3) 0.7365(3) 0.97647(8)
C35 C 0.0973(3) 0.8314(3) 0.97761(9)
H21 H 0.148411 0.868137 0.966573
C36 C 0.0605(3) 0.8715(3) 0.99472(9)
H22 H 0.086382 0.934355 0.995221
O11 O 0.2626(3) 0.4672(2) 0.83992(6)
O12 O 0.3968(3) 0.6728(2) 0.84428(7)
O14 O 0.4370(2) 0.5485(2) 0.88133(6)
O16 O 0.3206(3) 0.4539(4) 0.90685(8)
O3 O 0.5608(3) 0.9299(2) 0.15505(7)
O4 O 0.5328(2) 0.7954(2) 0.17325(6)
C9 C 0.6185(3) 0.4368(3) 0.01241(9)
H7 H 0.564466 0.382988 0.008898
C10 C 0.6705(3) 0.4422(3) 0.03638(9)
H8 H 0.651333 0.392966 0.048802
C11 C 0.7510(3) 0.5219(3) 0.04130(8)
C12 C 0.7801(3) 0.5953(3) 0.02237(8)
C14 C 0.8194(3) 0.5459(3) 0.06373(8)
C15 C 0.8226(3) 0.4972(3) 0.08772(9)
H10 H 0.774523 0.439599 0.092011
C16 C 0.8998(3) 0.5378(3) 0.10475(9)
H11 H 0.901874 0.506730 0.120947
C17 C 0.9735(3) 0.6218(3) 0.09894(9)
C18 C 0.9687(3) 0.6707(3) 0.07491(9)
C19 C 0.8916(3) 0.6333(3) 0.05828(8)
C37 C 0.9840(3) 0.8161(3) 0.01119(8)
C38 C 0.9464(3) 0.7208(3) 0.01082(8)
C40 C 0.9307(3) 0.8375(3) 0.03113(8)
C41 C 0.9396(3) 0.9209(3) 0.03859(9)
H24 H 0.985749 0.974690 0.030762
C42 C 0.8783(3) 0.9219(3) 0.05793(9)
H25 H 0.881978 0.977011 0.062362
C43 C 0.8100(3) 0.8416(3) 0.07121(8)
C44 C 0.8026(3) 0.7590(3) 0.06325(8)
H26 H 0.758052 0.705161 0.071537
C45 C 0.8613(3) 0.7568(3) 0.04309(8)
C46 C 0.7487(3) 0.8473(3) 0.09271(8)
C47 C 0.7139(3) 0.7845(3) 0.11570(8)
H27 H 0.729621 0.739491 0.117031
C48 C 0.6570(3) 0.7884(4) 0.13630(9)
H28 H 0.634317 0.746093 0.151167
C49 C 0.6339(3) 0.8571(3) 0.13451(9)
C50 C 0.6671(4) 0.9178(4) 0.11185(10)
H29 H 0.651898 0.963155 0.110612
C51 C 0.7231(4) 0.9127(4) 0.09072(9)
H30 H 0.743029 0.953267 0.075351
C52 C 0.5715(3) 0.8613(3) 0.15588(9)
C58 C 0.8686(3) 0.6748(3) 0.03269(7)
O15 O 0.4515(2) 0.8885(3) 0.21466(6)
C1 C 0.4025(4) 0.4960(4) 0.90326(9)
C2 C 0.4657(3) 0.4950(3) 0.92532(9)
C3 C 0.4349(3) 0.4336(4) 0.94763(9)
H3 H 0.373819 0.389138 0.948293
C4 C 0.4918(3) 0.4363(3) 0.96884(9)
H4 H 0.468504 0.393533 0.983563
C5 C 0.5854(3) 0.5026(3) 0.96902(8)
C6 C 0.6155(3) 0.5606(3) 0.94599(9)
H5 H 0.677016 0.603540 0.944989
C7 C 0.5594(3) 0.5587(3) 0.92415(9)
H6 H 0.583251 0.599190 0.908806
C8 C 0.6453(3) 0.5101(3) 0.99348(8)
C13 C 0.7269(3) 0.5908(3) 0.99896(7)
H9 H 0.745342 0.641047 0.987037
H19 H 0.986515 0.591149 0.943183
C39 C 0.9827(3) 0.6813(3) 0.99316(8)
H23 H 0.956261 0.618430 0.992404
Zn7 Zn 0.48057(4) 0.52243(3) 0.84245(2)
O1_2 O 0.3745(3) 0.6866(4) 0.23662(6)
O2_2 O 0.4470(3) 0.6370(4) 0.21158(8)
O5_2 O 0.2760(2) 0.6032(3) 0.51094(7)
O6_2 O 0.1382(3) 0.4901(4) 0.49809(10)
C3_2 C 0.5664(4) 0.0013(5) 0.28096(9)
C4_2 C 0.5637(3) 0.0555(4) 0.30217(9)
H4_2 H 0.606467 0.074971 0.316896
C5_2 C 0.4974(3) 0.0828(4) 0.30235(8)
C6_2 C 0.4394(3) 0.0549(4) 0.27932(9)
H5_2 H 0.396460 0.073476 0.278322
C7_2 C 0.4413(3) 0.0007(4) 0.25748(9)
C8_2 C 0.4899(3) 0.1352(4) 0.32681(8)
C9_2 C 0.5632(3) 0.1817(4) 0.34574(9)
H7_2 H 0.617012 0.181478 0.342231
C10_2 C 0.5578(3) 0.2283(4) 0.36971(9)
H8_2 H 0.607034 0.258367 0.382135
C11_2 C 0.4781(3) 0.2291(4) 0.37463(8)
C12_2 C 0.4047(3) 0.1848(4) 0.35570(8)
C13_2 C 0.4092(3) 0.1361(4) 0.33229(7)
H9_2 H 0.358953 0.104295 0.320370
C14_2 C 0.4541(3) 0.2735(4) 0.39706(8)
C15_2 C 0.5028(3) 0.3254(4) 0.42105(9)
H10_2 H 0.560401 0.334924 0.425344
C16_2 C 0.4622(3) 0.3620(4) 0.43808(9)
H11_2 H 0.493270 0.395144 0.454280
C17_2 C 0.3782(3) 0.3517(4) 0.43227(9)
C18_2 C 0.3293(3) 0.2980(4) 0.40824(9)
H12_2 H 0.272294 0.289803 0.403766
C19_2 C 0.3667(3) 0.2583(4) 0.39161(8)
C20_2 C 0.3389(4) 0.3957(6) 0.45007(11)
C21_2 C 0.3936(3) 0.4743(5) 0.46637(10)
H13_2 H 0.456257 0.498403 0.466626
C22_2 C 0.3557(4) 0.5164(5) 0.48204(10)
H14_2 H 0.393689 0.568310 0.492550
C23_2 C 0.2644(4) 0.4840(6) 0.48257(12)
C24_2 C 0.2091(5) 0.4038(7) 0.46693(18)
H15_2 H 0.146602 0.380472 0.466479
C25_2 C 0.2469(5) 0.3583(7) 0.45195(17)
H16_2 H 0.208907 0.302516 0.443306
C26_2 C 0.2219(4) 0.5281(6) 0.49778(11)
C27_2 C 0.3990(3) 0.6298(4) 0.23278(9)
C28_2 C 0.3677(4) 0.5512(5) 0.25332(10)
C29_2 C 0.2937(3) 0.5298(4) 0.27054(10)
H17_2 H 0.266373 0.565481 0.269875
C30_2 C 0.2596(4) 0.4555(5) 0.28888(10)
H18_2 H 0.208141 0.440231 0.299857
C31_2 C 0.3017(3) 0.4042(4) 0.29094(8)
C32_2 C 0.3784(4) 0.4278(5) 0.27455(9)
H19_2 H 0.408851 0.395366 0.276516
C33_2 C 0.4105(4) 0.5005(5) 0.25492(10)
H20_2 H 0.460081 0.514309 0.243168
C34_2 C 0.2635(3) 0.3227(4) 0.30980(8)
C35_2 C 0.1686(3) 0.2659(4) 0.31094(9)
H21_2 H 0.131863 0.280274 0.299906
C36_2 C 0.1285(3) 0.1890(4) 0.32805(9)
H22_2 H 0.065645 0.152027 0.328554
C37_2 C 0.1839(3) 0.1679(4) 0.34452(8)
C38_2 C 0.2792(3) 0.2256(4) 0.34415(8)
C39_2 C 0.3187(3) 0.3014(4) 0.32649(8)
H23_2 H 0.381570 0.337831 0.325737
C40_2 C 0.1625(3) 0.0932(4) 0.36446(8)
C41_2 C 0.0791(3) 0.0187(4) 0.37192(9)
H24_2 H 0.025310 0.011059 0.364095
C44_2 C 0.2410(3) 0.0436(4) 0.39658(8)
H26_2 H 0.294839 0.052891 0.404870
C45_2 C 0.2432(3) 0.1045(4) 0.37642(8)
C58_2 C 0.3252(3) 0.1938(4) 0.36602(7)
Zn5_2 Zn 0.23318(4) 0.66977(5) 0.53511(2)
Zn6_2 Zn 0.04186(3) 0.51943(4) 0.50911(2)
O16_2 O 0.5461(4) 0.8667(5) 0.24018(8)
O3_2 O 0.0701(2) 0.6309(4) 0.48838(7)
O4_2 O 0.2046(2) 0.7374(3) 0.50658(6)
C1_2 C 0.5040(4) 0.9065(6) 0.23659(9)
C2_2 C 0.5050(3) 0.9707(4) 0.25865(9)
H3_2 H 0.610862 0.984681 0.281626
H6_2 H 0.400810 0.984061 0.242139
C42_2 C 0.0781(3) 0.9564(4) 0.39126(9)
H25_2 H 0.022989 0.904967 0.395695
C43_2 C 0.1584(3) 0.9684(4) 0.40454(8)
C46_2 C 0.1527(3) 0.9014(4) 0.42604(8)
C47_2 C 0.2155(3) 0.9294(4) 0.44903(8)
H27_2 H 0.260509 0.990130 0.450364
C48_2 C 0.2116(4) 0.8686(5) 0.46963(9)
H28_2 H 0.253907 0.888224 0.484500
C49_2 C 0.1429(3) 0.7768(4) 0.46784(9)
C50_2 C 0.0822(4) 0.7493(6) 0.44518(10)
H29_2 H 0.036845 0.688743 0.443945
C51_2 C 0.0873(4) 0.8104(6) 0.42405(9)
H30_2 H 0.046733 0.789762 0.408684
C52_2 C 0.1387(3) 0.7102(4) 0.48921(9)
O15_2 O 0.1115(3) 0.5630(4) 0.54800(6)
O3_3 O 0.3691(4) 0.4392(3) 0.82172(7)
O8 O 0.1333(5) 0.6794(3) 0.57352(8)
O9 O 0.5874(4) 0.5490(3) 0.81727(8)
H1 H 0.595373 0.590113 0.805253
H2 H 0.577082 0.501242 0.808223
O10 O 0.5002(3) 0.4285(2) 0.86368(7)
N1 N 0.5841(5) 0.3752(4) 0.88585(10)
C1_3 C 0.0935(6) 0.5975(4) 0.56993(9)
C2_3 C 0.0293(4) 0.5343(3) 0.59199(9)
H3_3 H 0.015319 0.626181 0.614960
H6_3 H 0.015939 0.416749 0.575473
C42_3 C 0.0436(4) 0.1217(3) 0.72460(9)
H25_3 H 0.095033 0.118022 0.729029
C43_3 C 0.0316(4) 0.1900(3) 0.73788(8)
C46_3 C 0.0986(4) 0.2513(3) 0.75938(8)
C47_3 C 0.0706(4) 0.2861(3) 0.78237(8)
H27_3 H 0.009870 0.270379 0.783698
C48_3 C 0.1314(5) 0.3430(3) 0.80297(9)
H28_3 H 0.111776 0.365683 0.817834
C49_3 C 0.2232(4) 0.3661(3) 0.80118(9)
C50_3 C 0.2507(6) 0.3329(4) 0.77852(10)
H29_3 H 0.311257 0.348102 0.777279
C51_3 C 0.1896(6) 0.2769(4) 0.75739(9)
H30_3 H 0.210238 0.256971 0.742018
C52_3 C 0.2898(4) 0.4285(3) 0.82255(9)
C53 C 0.5747(6) 0.4290(5) 0.86748(11)
H31 H 0.624987 0.469399 0.856715
C54 C 0.6728(7) 0.3818(6) 0.88938(13)
H32 H 0.709448 0.410472 0.872433
H33 H 0.664203 0.320989 0.890746
C55 C 0.5060(6) 0.3099(5) 0.90378(14)
H34 H 0.525113 0.316527 0.923751
H35 H 0.457810 0.324533 0.902462
C56 C 0.4712(6) 0.2165(5) 0.89495(14)
H36 H 0.460915 0.211480 0.874518
H37 H 0.414932 0.178129 0.904747
H38 H 0.514443 0.197943 0.899719
C57 C 0.7253(9) 0.4374(7) 0.91680(17)
H39 H 0.730788 0.496409 0.916163
H40 H 0.784751 0.443891 0.917189
H41 H 0.692453 0.405889 0.933790
O13 O 0.5099(4) 0.6481(3) 0.83143(10)
O1_3 O 0.3134(4) 0.6879(2) 0.56996(6)
O2_3 O 0.3630(4) 0.8100(3) 0.54492(8)
H12_3 H 0.710197 0.982491 0.737100
C20_3 C 0.6043(6) 0.9432(4) 0.78341(11)
C21_3 C 0.5257(5) 0.9193(4) 0.79971(10)
H13_3 H 0.501597 0.957854 0.799960
C22_3 C 0.4836(5) 0.8393(3) 0.81538(10)
H14_3 H 0.431690 0.825379 0.825884
C23_3 C 0.5160(6) 0.7804(4) 0.81591(12)
C24_3 C 0.5962(7) 0.8053(5) 0.80027(18)
H15_3 H 0.619528 0.766130 0.799813
C25_3 C 0.6417(7) 0.8886(5) 0.78529(17)
H16_3 H 0.697484 0.906391 0.776640
C26_3 C 0.4719(6) 0.6938(4) 0.83112(11)
C27_3 C 0.3702(4) 0.7692(3) 0.56612(9)
C28_3 C 0.4488(5) 0.8165(3) 0.58666(10)
C29_3 C 0.4702(4) 0.7639(3) 0.60388(10)
H17_3 H 0.434519 0.700892 0.603209
C30_3 C 0.5445(5) 0.8041(3) 0.62222(10)
H18_3 H 0.559769 0.767910 0.633191
C31_3 C 0.5958(4) 0.8975(3) 0.62428(8)
C32_3 C 0.5722(5) 0.9506(3) 0.60789(9)
C33_3 C 0.4995(5) 0.9100(3) 0.58826(10)
H20_3 H 0.485691 0.945772 0.576502
C34_3 C 0.6773(4) 0.9408(3) 0.64314(8)
C35_3 C 0.7341(4) 0.9027(3) 0.64428(9)
H21_3 H 0.719726 0.851589 0.633240
C36_3 C 0.8110(4) 0.9395(3) 0.66139(9)
H22_3 H 0.847973 0.913618 0.661888
O9_2 O 0.4510(3) 0.0384(3) 0.15060(8)
H1_2 H 0.409887 0.005260 0.138586
H2_2 H 0.498758 0.075840 0.141556
O10_2 O 0.5715(2) 0.0717(2) 0.19701(7)
N1_2 N 0.6248(4) 0.2089(3) 0.21918(10)
C53_2 C 0.5710(5) 0.1457(4) 0.20081(11)
H31_2 H 0.530601 0.155588 0.190048
C54_2 C 0.6182(6) 0.2910(4) 0.22271(13)
H32_2 H 0.589528 0.298976 0.205766
H33_2 H 0.679011 0.343214 0.224079
C55_2 C 0.6901(5) 0.1961(4) 0.23711(14)
H34_2 H 0.683473 0.208586 0.257084
H35_2 H 0.675467 0.133277 0.235795
C56_2 C 0.7835(5) 0.2547(4) 0.22828(14)
H36_2 H 0.788520 0.249435 0.207851
H37_2 H 0.821871 0.236803 0.238080
H38_2 H 0.802057 0.316500 0.233052
C57_2 C 0.5626(7) 0.2879(6) 0.25013(17)
H39_2 H 0.503591 0.234379 0.249496
H40_2 H 0.556109 0.340860 0.250522
H41_2 H 0.594111 0.286564 0.267123
O9_3 O 0.9616(3) 0.4126(4) 0.48393(8)
H1_3 H 0.994740 0.404627 0.471919
H2_3 H 0.924160 0.422918 0.474889
O10_3 O 0.9283(2) 0.4998(3) 0.53034(7)
N1_3 N 0.7911(3) 0.4159(5) 0.55251(10)
C53_3 C 0.8543(4) 0.4253(6) 0.53414(11)
H31_3 H 0.844412 0.375013 0.523381
C54_3 C 0.7090(4) 0.3272(7) 0.55604(13)
H32_3 H 0.701024 0.290552 0.539099
H33_3 H 0.656786 0.335797 0.557412
C55_3 C 0.8039(4) 0.4940(6) 0.57044(14)
H34_3 H 0.791414 0.474887 0.590417
H35_3 H 0.866723 0.542190 0.569128
C56_3 C 0.7453(4) 0.5288(6) 0.56161(14)
H36_3 H 0.750565 0.539085 0.541184
H37_3 H 0.763197 0.585068 0.571413
H38_3 H 0.683500 0.485557 0.566385
C57_3 C 0.7121(6) 0.2747(9) 0.58346(17)
H39_3 H 0.765621 0.269212 0.582829
H40_3 H 0.659140 0.215249 0.583855
H41_3 H 0.713436 0.307547 0.600456
C3_3 C 0.9987(5) 0.5651(3) 0.61430(9)
C4_3 C 0.9445(4) 0.5082(3) 0.63551(9)
H4_3 H 0.925029 0.531496 0.650230
C5_3 C 0.9172(4) 0.4146(3) 0.63569(8)
C6_3 C 0.9451(4) 0.3845(3) 0.61266(9)
H5_3 H 0.926524 0.322984 0.611656
C7_3 C 0.9993(4) 0.4406(3) 0.59082(9)
C8_3 C 0.8648(4) 0.3547(3) 0.66015(8)
C9_3 C 0.8183(4) 0.3815(3) 0.67908(9)
H7_3 H 0.818522 0.435534 0.675565
C10_3 C 0.7717(4) 0.3295(3) 0.70305(9)
H8_3 H 0.741633 0.348667 0.715469
C11_3 C 0.7709(4) 0.2490(3) 0.70797(8)
C12_3 C 0.8152(4) 0.2199(3) 0.68904(8)
C13_3 C 0.8639(4) 0.2731(3) 0.66563(7)
H9_3 H 0.895705 0.254658 0.653704
C14_3 C 0.7265(4) 0.1806(3) 0.73040(8)
C15_3 C 0.6746(4) 0.1774(3) 0.75439(9)
H10_3 H 0.665076 0.225477 0.758678
C16_3 C 0.6380(4) 0.1002(3) 0.77142(9)
H11_3 H 0.604856 0.098126 0.787614
C17_3 C 0.6483(4) 0.0265(3) 0.76561(9)
C18_3 C 0.7020(4) 0.0313(3) 0.74158(9)
C19_3 C 0.7417(4) 0.1084(3) 0.72495(8)
H19_3 H 0.604634 0.013485 0.609850
C37_3 C 0.8321(4) 0.0160(3) 0.67786(8)
C38_3 C 0.7744(4) 0.0536(3) 0.67749(8)
C39_3 C 0.6986(4) 0.0173(3) 0.65983(8)
H23_3 H 0.662169 0.043739 0.659071
C40_3 C 0.9068(4) 0.0693(3) 0.69780(8)
C41_3 C 0.9813(4) 0.0604(3) 0.70526(9)
H24_3 H 0.988941 0.014251 0.697429
C44_3 C 0.9564(4) 0.1974(3) 0.72992(8)
H26_3 H 0.947109 0.241948 0.738204
C45_3 C 0.8955(4) 0.1387(3) 0.70976(8)
C58_3 C 0.8062(4) 0.1314(3) 0.69936(7)
O9_4 O 0.0384(3) 0.4510(3) 0.84940(8)
H1_4 H 0.005260 0.409887 0.861414
H2_4 H 0.075840 0.498758 0.858444
O10_4 O 0.0717(2) 0.5715(2) 0.80299(7)
N1_4 N 0.2089(3) 0.6248(4) 0.78082(10)
C53_4 C 0.1457(4) 0.5710(5) 0.79919(11)
H31_4 H 0.155588 0.530601 0.809952
C54_4 C 0.2910(4) 0.6182(6) 0.77729(13)
H32_4 H 0.298976 0.589528 0.794234
H33_4 H 0.343214 0.679011 0.775921
C55_4 C 0.1961(4) 0.6901(5) 0.76289(14)
H34_4 H 0.208586 0.683473 0.742916
H35_4 H 0.133277 0.675467 0.764205
C56_4 C 0.2547(4) 0.7835(5) 0.77172(14)
H36_4 H 0.249435 0.788520 0.792149
H37_4 H 0.236803 0.821871 0.761920
H38_4 H 0.316500 0.802057 0.766948
C57_4 C 0.2879(6) 0.5626(7) 0.74987(17)
H39_4 H 0.234379 0.503591 0.750504
H40_4 H 0.340860 0.556109 0.749478
H41_4 H 0.286564 0.594111 0.732877
Zn1_2 Zn 0.56341(3) 0.33023(3) 0.13156(2)
O1_4 O 0.6255(3) 0.3121(2) 0.09671(6)
O2_4 O 0.5530(3) 0.1900(3) 0.12175(8)
C27_4 C 0.6010(3) 0.2308(3) 0.10055(9)
C28_4 C 0.6323(4) 0.1835(3) 0.08001(10)
C29_4 C 0.7063(3) 0.2361(3) 0.06279(10)
H17_4 H 0.733627 0.299108 0.063458
C30_4 C 0.7404(4) 0.1959(3) 0.04445(10)
H18_4 H 0.791859 0.232090 0.033476
C31_4 C 0.6983(3) 0.1025(3) 0.04239(8)
C32_4 C 0.6216(4) 0.0494(3) 0.05878(9)
C33_4 C 0.5895(4) 0.0900(3) 0.07841(10)
H20_4 H 0.539919 0.054228 0.090165
C34_4 C 0.7365(3) 0.0592(3) 0.02353(8)
C35_4 C 0.8314(3) 0.0973(3) 0.02239(9)
H21_4 H 0.868137 0.148411 0.033427
C36_4 C 0.8715(3) 0.0605(3) 0.00528(9)
H22_4 H 0.934355 0.086382 0.004779
O11_2 O 0.4672(2) 0.2626(3) 0.16008(6)
O12_2 O 0.6728(2) 0.3968(3) 0.15572(7)
O14_2 O 0.5485(2) 0.4370(2) 0.11867(6)
O16_3 O 0.4539(4) 0.3206(3) 0.09315(8)
O5_3 O 0.7240(2) 0.3272(2) 0.82239(7)
O6_3 O 0.8618(3) 0.3519(3) 0.83524(10)
H12_4 H 0.727706 0.017509 0.929567
C20_4 C 0.6611(4) 0.0568(4) 0.88326(11)
C21_4 C 0.6064(3) 0.0807(4) 0.86696(10)
H13_4 H 0.543743 0.042146 0.866707
C22_4 C 0.6443(4) 0.1607(3) 0.85129(10)
H14_4 H 0.606311 0.174621 0.840783
C23_4 C 0.7356(4) 0.2196(4) 0.85076(12)
C24_4 C 0.7909(5) 0.1947(5) 0.86640(18)
H15_4 H 0.853398 0.233870 0.866854
C25_4 C 0.7531(5) 0.1114(5) 0.88138(17)
H16_4 H 0.791093 0.093609 0.890027
C26_4 C 0.7781(4) 0.3062(4) 0.83555(11)
Zn5_3 Zn 0.76682(4) 0.43659(3) 0.79823(2)
Zn6_3 Zn 0.95814(3) 0.47757(3) 0.82422(2)
C1_4 C 0.4960(4) 0.4025(4) 0.09674(9)
C2_4 C 0.4950(3) 0.4657(3) 0.07468(9)
C3_4 C 0.4336(4) 0.4349(3) 0.05237(9)
H3_4 H 0.389138 0.373819 0.051707
C4_4 C 0.4363(3) 0.4918(3) 0.03116(9)
H4_4 H 0.393533 0.468504 0.016437
C5_4 C 0.5026(3) 0.5854(3) 0.03098(8)
C6_4 C 0.5606(3) 0.6155(3) 0.05401(9)
H5_4 H 0.603540 0.677016 0.055011
C7_4 C 0.5587(3) 0.5594(3) 0.07585(9)
H6_4 H 0.599190 0.583251 0.091194
C8_4 C 0.5101(3) 0.6453(3) 0.00652(8)
C13_4 C 0.5908(3) 0.7269(3) 0.00104(7)
H9_4 H 0.641047 0.745342 0.012963
H19_4 H 0.591149 0.986515 0.056817
C39_4 C 0.6813(3) 0.9827(3) 0.00684(8)
H23_4 H 0.618430 0.956261 0.007596
Zn7_2 Zn 0.52243(3) 0.48057(4) 0.15755(2)
O3_4 O 0.9299(2) 0.5608(3) 0.84495(7)
O4_3 O 0.7954(2) 0.5328(2) 0.82675(6)
C9_4 C 0.4368(3) 0.6185(3) 0.98759(9)
H7_4 H 0.382988 0.564466 0.991102
C10_4 C 0.4422(3) 0.6705(3) 0.96362(9)
H8_4 H 0.392966 0.651333 0.951198
C11_4 C 0.5219(3) 0.7510(3) 0.95870(8)
C12_4 C 0.5953(3) 0.7801(3) 0.97763(8)
C14_4 C 0.5459(3) 0.8194(3) 0.93627(8)
C15_4 C 0.4972(3) 0.8226(3) 0.91228(9)
H10_4 H 0.439599 0.774523 0.907989
C16_4 C 0.5378(3) 0.8998(3) 0.89525(9)
H11_4 H 0.506730 0.901874 0.879053
C17_4 C 0.6218(3) 0.9735(3) 0.90106(9)
C18_4 C 0.6707(3) 0.9687(3) 0.92509(9)
C19_4 C 0.6333(3) 0.8916(3) 0.94172(8)
C37_4 C 0.8161(3) 0.9840(3) 0.98881(8)
C38_4 C 0.7208(3) 0.9464(3) 0.98918(8)
C40_4 C 0.8375(3) 0.9307(3) 0.96887(8)
C41_4 C 0.9209(3) 0.9396(3) 0.96141(9)
H24_4 H 0.974690 0.985749 0.969238
C42_4 C 0.9219(3) 0.8783(3) 0.94207(9)
H25_4 H 0.977011 0.881978 0.937638
C43_4 C 0.8416(3) 0.8100(3) 0.92879(8)
C44_4 C 0.7590(3) 0.8026(3) 0.93675(8)
H26_4 H 0.705161 0.758052 0.928463
C45_4 C 0.7568(3) 0.8613(3) 0.95691(8)
C46_4 C 0.8473(3) 0.7487(3) 0.90729(8)
C47_4 C 0.7845(3) 0.7139(3) 0.88430(8)
H27_4 H 0.739491 0.729621 0.882969
C48_4 C 0.7884(4) 0.6570(3) 0.86370(9)
H28_4 H 0.746093 0.634317 0.848833
C49_4 C 0.8571(3) 0.6339(3) 0.86549(9)
C50_4 C 0.9178(4) 0.6671(4) 0.88815(10)
H29_4 H 0.963155 0.651898 0.889388
C51_4 C 0.9127(4) 0.7231(4) 0.90928(9)
H30_4 H 0.953267 0.743029 0.924649
C52_4 C 0.8613(3) 0.5715(3) 0.84412(9)
C58_4 C 0.6748(3) 0.8686(3) 0.96731(7)
O15_3 O 0.8885(3) 0.4515(2) 0.78534(6)
O3_5 O 0.4392(3) 0.3691(4) 0.17828(7)
O7 O 0.5630(2) 0.1115(3) 0.45200(6)
O8_2 O 0.6794(3) 0.1333(5) 0.42648(8)
O9_5 O 0.5490(3) 0.5874(4) 0.18273(8)
H1_5 H 0.590113 0.595373 0.194747
H2_5 H 0.501242 0.577082 0.191777
O10_5 O 0.4285(2) 0.5002(3) 0.13632(7)
N1_5 N 0.3752(4) 0.5841(5) 0.11415(10)
C1_5 C 0.5975(4) 0.0935(6) 0.43007(9)
C2_5 C 0.5343(3) 0.0293(4) 0.40801(9)
H3_5 H 0.626181 0.015319 0.385040
H6_5 H 0.416749 0.015939 0.424527
C42_5 C 0.1217(3) 0.0436(4) 0.27540(9)
H25_5 H 0.118022 0.095033 0.270971
C43_5 C 0.1900(3) 0.0316(4) 0.26212(8)
C46_5 C 0.2513(3) 0.0986(4) 0.24062(8)
C47_5 C 0.2861(3) 0.0706(4) 0.21763(8)
H27_5 H 0.270379 0.009870 0.216302
C48_5 C 0.3430(3) 0.1314(5) 0.19703(9)
H28_5 H 0.365683 0.111776 0.182166
C49_5 C 0.3661(3) 0.2232(4) 0.19882(9)
C50_5 C 0.3329(4) 0.2507(6) 0.22148(10)
H29_5 H 0.348102 0.311257 0.222721
C51_5 C 0.2769(4) 0.1896(6) 0.24261(9)
H30_5 H 0.256971 0.210238 0.257982
C52_5 C 0.4285(3) 0.2898(4) 0.17745(9)
C53_5 C 0.4290(5) 0.5747(6) 0.13252(11)
H31_5 H 0.469399 0.624987 0.143285
C54_5 C 0.3818(6) 0.6728(7) 0.11062(13)
H32_5 H 0.410472 0.709448 0.127567
H33_5 H 0.320989 0.664203 0.109254
C55_5 C 0.3099(5) 0.5060(6) 0.09622(14)
H34_5 H 0.316527 0.525113 0.076249
H35_5 H 0.324533 0.457810 0.097538
C56_5 C 0.2165(5) 0.4712(6) 0.10505(14)
H36_5 H 0.211480 0.460915 0.125482
H37_5 H 0.178129 0.414932 0.095253
H38_5 H 0.197943 0.514443 0.100281
C57_5 C 0.4374(7) 0.7253(9) 0.08320(17)
H39_5 H 0.496409 0.730788 0.083837
H40_5 H 0.443891 0.784751 0.082811
H41_5 H 0.405889 0.692453 0.066210
Zn3 Zn 0.66977(3) 0.23318(4) 0.46489(2)
Zn7_3 Zn 0.51943(4) 0.04186(5) 0.49089(2)
O13_2 O 0.6481(3) 0.5099(4) 0.16857(10)
O1_5 O 0.6879(2) 0.3134(4) 0.43004(6)
O2_5 O 0.8100(3) 0.3630(4) 0.45508(8)
H12_5 H 0.982491 0.710197 0.262900
C20_5 C 0.9432(4) 0.6043(6) 0.21659(11)
C21_5 C 0.9193(4) 0.5257(5) 0.20029(10)
H13_5 H 0.957854 0.501597 0.200040
C22_5 C 0.8393(3) 0.4836(5) 0.18462(10)
H14_5 H 0.825379 0.431690 0.174116
C23_5 C 0.7804(4) 0.5160(6) 0.18409(12)
C24_5 C 0.8053(5) 0.5962(7) 0.19973(18)
H15_5 H 0.766130 0.619528 0.200187
C25_5 C 0.8886(5) 0.6417(7) 0.21471(17)
H16_5 H 0.906391 0.697484 0.223360
C26_5 C 0.6938(4) 0.4719(6) 0.16888(11)
C27_5 C 0.7692(3) 0.3702(4) 0.43388(9)
C28_5 C 0.8165(3) 0.4488(5) 0.41334(10)
C29_5 C 0.7639(3) 0.4702(4) 0.39612(10)
H17_5 H 0.700892 0.434519 0.396791
C30_5 C 0.8041(3) 0.5445(5) 0.37778(10)
H18_5 H 0.767910 0.559769 0.366809
C31_5 C 0.8975(3) 0.5958(4) 0.37572(8)
C32_5 C 0.9506(3) 0.5722(5) 0.39211(9)
C33_5 C 0.9100(3) 0.4995(5) 0.41174(10)
H20_5 H 0.945772 0.485691 0.423498
C34_5 C 0.9408(3) 0.6773(4) 0.35686(8)
C35_5 C 0.9027(3) 0.7341(4) 0.35572(9)
H21_5 H 0.851589 0.719726 0.366760
C36_5 C 0.9395(3) 0.8110(4) 0.33861(9)
H22_5 H 0.913618 0.847973 0.338112
O11_3 O 0.7374(3) 0.2046(4) 0.49342(6)
O12_3 O 0.6032(3) 0.2760(4) 0.48906(7)
O1_6 O 0.6866(4) 0.3745(3) 0.76338(6)
O2_6 O 0.6370(4) 0.4470(3) 0.78842(8)
O6_4 O 0.4901(4) 0.1382(3) 0.50191(10)
C3_5 C 0.0013(5) 0.5664(4) 0.71904(9)
C4_5 C 0.0555(4) 0.5637(3) 0.69783(9)
H4_5 H 0.074971 0.606467 0.683104
C5_5 C 0.0828(4) 0.4974(3) 0.69765(8)
C6_5 C 0.0549(4) 0.4394(3) 0.72068(9)
H5_5 H 0.073476 0.396460 0.721678
C7_5 C 0.0007(4) 0.4413(3) 0.74252(9)
C8_5 C 0.1352(4) 0.4899(3) 0.67319(8)
C9_5 C 0.1817(4) 0.5632(3) 0.65426(9)
H7_5 H 0.181478 0.617012 0.657769
C10_5 C 0.2283(4) 0.5578(3) 0.63029(9)
H8_5 H 0.258367 0.607034 0.617865
C11_5 C 0.2291(4) 0.4781(3) 0.62537(8)
C12_5 C 0.1848(4) 0.4047(3) 0.64430(8)
C13_5 C 0.1361(4) 0.4092(3) 0.66771(7)
H9_5 H 0.104295 0.358953 0.679630
C14_5 C 0.2735(4) 0.4541(3) 0.60294(8)
C15_5 C 0.3254(4) 0.5028(3) 0.57895(9)
H10_5 H 0.334924 0.560401 0.574656
C16_5 C 0.3620(4) 0.4622(3) 0.56192(9)
H11_5 H 0.395144 0.493270 0.545720
C17_5 C 0.3517(4) 0.3782(3) 0.56773(9)
C18_5 C 0.2980(4) 0.3293(3) 0.59176(9)
H12_6 H 0.289803 0.272294 0.596234
C19_5 C 0.2583(4) 0.3667(3) 0.60839(8)
C20_6 C 0.3957(6) 0.3389(4) 0.54993(11)
C21_6 C 0.4743(5) 0.3936(3) 0.53363(10)
H13_6 H 0.498403 0.456257 0.533374
C22_6 C 0.5164(5) 0.3557(4) 0.51796(10)
H14_6 H 0.568310 0.393689 0.507450
C23_6 C 0.4840(6) 0.2644(4) 0.51743(12)
C24_6 C 0.4038(7) 0.2091(5) 0.53307(18)
H15_6 H 0.380472 0.146602 0.533521
C25_6 C 0.3583(7) 0.2469(5) 0.54805(17)
H16_6 H 0.302516 0.208907 0.556694
C26_6 C 0.5281(6) 0.2219(4) 0.50222(11)
C27_6 C 0.6298(4) 0.3990(3) 0.76722(9)
C28_6 C 0.5512(5) 0.3677(4) 0.74668(10)
C29_6 C 0.5298(4) 0.2937(3) 0.72946(10)
H17_6 H 0.565481 0.266373 0.730125
C30_6 C 0.4555(5) 0.2596(4) 0.71112(10)
H18_6 H 0.440231 0.208141 0.700143
C31_6 C 0.4042(4) 0.3017(3) 0.70906(8)
C32_6 C 0.4278(5) 0.3784(4) 0.72545(9)
H19_5 H 0.395366 0.408851 0.723484
C33_6 C 0.5005(5) 0.4105(4) 0.74508(10)
H20_6 H 0.514309 0.460081 0.756832
C34_6 C 0.3227(4) 0.2635(3) 0.69020(8)
C35_6 C 0.2659(4) 0.1686(3) 0.68906(9)
H21_6 H 0.280274 0.131863 0.700094
C36_6 C 0.1890(4) 0.1285(3) 0.67195(9)
H22_6 H 0.152027 0.065645 0.671446
C37_5 C 0.1679(4) 0.1839(3) 0.65548(8)
C38_5 C 0.2256(4) 0.2792(3) 0.65585(8)
C39_5 C 0.3014(4) 0.3187(3) 0.67351(8)
H23_5 H 0.337831 0.381570 0.674263
C40_5 C 0.0932(4) 0.1625(3) 0.63554(8)
C41_5 C 0.0187(4) 0.0791(3) 0.62808(9)
H24_5 H 0.011059 0.025310 0.635905
C44_5 C 0.0436(4) 0.2410(3) 0.60342(8)
H26_5 H 0.052891 0.294839 0.595130
C45_5 C 0.1045(4) 0.2432(3) 0.62358(8)
C58_5 C 0.1938(4) 0.3252(3) 0.63398(7)
O16_4 O 0.8667(5) 0.5461(4) 0.75982(8)
O3_6 O 0.6309(4) 0.0701(2) 0.51162(7)
C1_6 C 0.9065(6) 0.5040(4) 0.76341(9)
C2_6 C 0.9707(4) 0.5050(3) 0.74135(9)
H3_6 H 0.984681 0.610862 0.718374
H6_6 H 0.984061 0.400810 0.757861
C42_6 C 0.9564(4) 0.0781(3) 0.60874(9)
H25_6 H 0.904967 0.022989 0.604305
C43_6 C 0.9684(4) 0.1584(3) 0.59546(8)
C46_6 C 0.9014(4) 0.1527(3) 0.57396(8)
C47_6 C 0.9294(4) 0.2155(3) 0.55097(8)
H27_6 H 0.990130 0.260509 0.549636
C48_6 C 0.8686(5) 0.2116(4) 0.53037(9)
H28_6 H 0.888224 0.253907 0.515500
C49_6 C 0.7768(4) 0.1429(3) 0.53216(9)
C50_6 C 0.7493(6) 0.0822(4) 0.55482(10)
H29_6 H 0.688743 0.036845 0.556055
C51_6 C 0.8104(6) 0.0873(4) 0.57595(9)
H30_6 H 0.789762 0.046733 0.591316
C52_6 C 0.7102(4) 0.1387(3) 0.51079(9)
C3_6 C 0.5651(3) 0.9987(5) 0.38570(9)
C4_6 C 0.5082(3) 0.9445(4) 0.36449(9)
H4_6 H 0.531496 0.925029 0.349770
C5_6 C 0.4146(3) 0.9172(4) 0.36431(8)
C6_6 C 0.3845(3) 0.9451(4) 0.38734(9)
H5_6 H 0.322984 0.926524 0.388344
C7_6 C 0.4406(3) 0.9993(4) 0.40918(9)
C8_6 C 0.3547(3) 0.8648(4) 0.33985(8)
C9_6 C 0.3815(3) 0.8183(4) 0.32092(9)
H7_6 H 0.435534 0.818522 0.324435
C10_6 C 0.3295(3) 0.7717(4) 0.29695(9)
H8_6 H 0.348667 0.741633 0.284531
C11_6 C 0.2490(3) 0.7709(4) 0.29203(8)
C12_6 C 0.2199(3) 0.8152(4) 0.31096(8)
C13_6 C 0.2731(3) 0.8639(4) 0.33437(7)
H9_6 H 0.254658 0.895705 0.346296
C14_6 C 0.1806(3) 0.7265(4) 0.26960(8)
C15_6 C 0.1774(3) 0.6746(4) 0.24561(9)
H10_6 H 0.225477 0.665076 0.241322
C16_6 C 0.1002(3) 0.6380(4) 0.22858(9)
H11_6 H 0.098126 0.604856 0.212386
C17_6 C 0.0265(3) 0.6483(4) 0.23439(9)
C18_6 C 0.0313(3) 0.7020(4) 0.25842(9)
C19_6 C 0.1084(3) 0.7417(4) 0.27505(8)
H19_6 H 0.013485 0.604634 0.390150
C37_6 C 0.0160(3) 0.8321(4) 0.32214(8)
C38_6 C 0.0536(3) 0.7744(4) 0.32251(8)
C39_6 C 0.0173(3) 0.6986(4) 0.34017(8)
H23_6 H 0.043739 0.662169 0.340929
C40_6 C 0.0693(3) 0.9068(4) 0.30220(8)
C41_6 C 0.0604(3) 0.9813(4) 0.29474(9)
H24_6 H 0.014251 0.988941 0.302571
C44_6 C 0.1974(3) 0.9564(4) 0.27008(8)
H26_6 H 0.241948 0.947109 0.261796
C45_6 C 0.1387(3) 0.8955(4) 0.29024(8)
C58_6 C 0.1314(3) 0.8062(4) 0.30064(7)
O9_6 O 0.4126(4) 0.9616(3) 0.51607(8)
H1_6 H 0.404627 0.994740 0.528081
H2_6 H 0.422918 0.924160 0.525111
O10_6 O 0.4998(3) 0.9283(2) 0.46966(7)
N1_6 N 0.4159(5) 0.7911(3) 0.44749(10)
C53_6 C 0.4253(6) 0.8543(4) 0.46586(11)
H31_6 H 0.375013 0.844412 0.476619
C54_6 C 0.3272(7) 0.7090(4) 0.44396(13)
H32_6 H 0.290552 0.701024 0.460901
H33_6 H 0.335797 0.656786 0.442588
C55_6 C 0.4940(6) 0.8039(4) 0.42956(14)
H34_6 H 0.474887 0.791414 0.409583
H35_6 H 0.542190 0.866723 0.430872
C56_6 C 0.5288(6) 0.7453(4) 0.43839(14)
H36_6 H 0.539085 0.750565 0.458816
H37_6 H 0.585068 0.763197 0.428587
H38_6 H 0.485557 0.683500 0.433615
C57_6 C 0.2747(9) 0.7121(6) 0.41654(17)
H39_6 H 0.269212 0.765621 0.417171
H40_6 H 0.215249 0.659140 0.416145
H41_6 H 0.307547 0.713436 0.399544
loop_
_geom_bond_atom_site_label_1
_geom_bond_atom_site_label_2
_geom_bond_site_symmetry_1
_geom_bond_site_symmetry_2
O5 C26 1_555 1_555
O6 C26 1_555 1_555
C21 C20 1_555 1_555
H13 C21 1_555 1_555
C22 C21 1_555 1_555
H14 C22 1_555 1_555
C23 C22 1_555 1_555
C24 C23 1_555 1_555
H15 C24 1_555 1_555
C25 C20 1_555 1_555
H16 C25 1_555 1_555
C26 C23 1_555 1_555
Zn5 O5 1_555 1_555
Zn6 O6 1_555 1_555
C24 C25 1_555 1_555
Zn1 O1 1_555 1_555
O1 C27 1_555 1_555
O2 Zn1 1_555 1_555
C27 O2 1_555 1_555
C28 C27 1_555 1_555
C29 C28 1_555 1_555
H17 C29 1_555 1_555
C30 C29 1_555 1_555
H18 C30 1_555 1_555
C31 C30 1_555 1_555
C32 C31 1_555 1_555
C33 C28 1_555 1_555
H20 C33 1_555 1_555
C34 C31 1_555 1_555
C35 C34 1_555 1_555
H21 C35 1_555 1_555
C36 C35 1_555 1_555
H22 C36 1_555 1_555
O11 Zn1 1_555 1_555
O12 Zn1 1_555 1_555
O14 Zn1 1_555 1_555
O16 Zn1 1_555 1_555
C32 C33 1_555 1_555
Zn6 O3 1_555 1_555
O3 C52 1_555 1_555
O4 C52 1_555 1_555
H7 C9 1_555 1_555
C10 C9 1_555 1_555
H8 C10 1_555 1_555
C11 C10 1_555 1_555
C12 C11 1_555 1_555
C14 C11 1_555 1_555
C15 C14 1_555 1_555
H10 C15 1_555 1_555
C16 C15 1_555 1_555
H11 C16 1_555 1_555
C17 C16 1_555 1_555
C18 C17 1_555 1_555
C19 C14 1_555 1_555
C38 C37 1_555 1_555
C40 C37 1_555 1_555
C41 C40 1_555 1_555
H24 C41 1_555 1_555
C42 C41 1_555 1_555
H25 C42 1_555 1_555
C43 C42 1_555 1_555
C44 C43 1_555 1_555
H26 C44 1_555 1_555
C45 C40 1_555 1_555
C46 C43 1_555 1_555
C47 C46 1_555 1_555
H27 C47 1_555 1_555
C48 C47 1_555 1_555
H28 C48 1_555 1_555
C49 C48 1_555 1_555
C50 C49 1_555 1_555
H29 C50 1_555 1_555
C51 C46 1_555 1_555
H30 C51 1_555 1_555
C52 C49 1_555 1_555
C58 C12 1_555 1_555
Zn5 O4 1_555 1_555
O15 Zn6 1_555 1_555
C18 C19 1_555 1_555
C19 C58 1_555 1_555
C38 C58 1_555 1_555
C44 C45 1_555 1_555
C45 C58 1_555 1_555
C50 C51 1_555 1_555
Zn5 O15 1_555 1_555
O14 C1 1_555 1_555
O16 C1 1_555 1_555
C1 C2 1_555 1_555
C2 C3 1_555 1_555
C3 H3 1_555 1_555
C4 C3 1_555 1_555
H4 C4 1_555 1_555
C5 C4 1_555 1_555
C6 C5 1_555 1_555
H5 C6 1_555 1_555
C7 C2 1_555 1_555
H6 C7 1_555 1_555
C8 C5 1_555 1_555
C13 C8 1_555 1_555
H9 C13 1_555 1_555
H23 C39 1_555 1_555
Zn7 O14 1_555 1_555
C6 C7 1_555 1_555
Zn5 O1_2 1_555 1_555
O1_2 C27_2 1_555 1_555
O2_2 Zn5 1_555 1_555
O5_2 C26_2 1_555 1_555
O6_2 C26_2 1_555 1_555
C4_2 C3_2 1_555 1_555
H4_2 C4_2 1_555 1_555
C5_2 C4_2 1_555 1_555
C6_2 C5_2 1_555 1_555
H5_2 C6_2 1_555 1_555
C8_2 C5_2 1_555 1_555
C9_2 C8_2 1_555 1_555
H7_2 C9_2 1_555 1_555
C10_2 C9_2 1_555 1_555
H8_2 C10_2 1_555 1_555
C11_2 C10_2 1_555 1_555
C12_2 C11_2 1_555 1_555
C13_2 C8_2 1_555 1_555
H9_2 C13_2 1_555 1_555
C14_2 C11_2 1_555 1_555
C15_2 C14_2 1_555 1_555
H10_2 C15_2 1_555 1_555
C16_2 C15_2 1_555 1_555
H11_2 C16_2 1_555 1_555
C17_2 C16_2 1_555 1_555
C18_2 C17_2 1_555 1_555
H12_2 C18_2 1_555 1_555
C19_2 C14_2 1_555 1_555
C20_2 C17_2 1_555 1_555
C21_2 C20_2 1_555 1_555
H13_2 C21_2 1_555 1_555
C22_2 C21_2 1_555 1_555
H14_2 C22_2 1_555 1_555
C23_2 C22_2 1_555 1_555
C24_2 C23_2 1_555 1_555
H15_2 C24_2 1_555 1_555
C25_2 C20_2 1_555 1_555
H16_2 C25_2 1_555 1_555
C26_2 C23_2 1_555 1_555
C27_2 O2_2 1_555 1_555
C28_2 C27_2 1_555 1_555
C29_2 C28_2 1_555 1_555
H17_2 C29_2 1_555 1_555
C30_2 C29_2 1_555 1_555
H18_2 C30_2 1_555 1_555
C31_2 C30_2 1_555 1_555
C32_2 C31_2 1_555 1_555
H19_2 C32_2 1_555 1_555
C33_2 C28_2 1_555 1_555
H20_2 C33_2 1_555 1_555
C34_2 C31_2 1_555 1_555
C35_2 C34_2 1_555 1_555
H21_2 C35_2 1_555 1_555
C36_2 C35_2 1_555 1_555
H22_2 C36_2 1_555 1_555
C37_2 C36_2 1_555 1_555
C38_2 C37_2 1_555 1_555
C39_2 C34_2 1_555 1_555
H23_2 C39_2 1_555 1_555
C40_2 C37_2 1_555 1_555
C41_2 C40_2 1_555 1_555
H24_2 C41_2 1_555 1_555
H26_2 C44_2 1_555 1_555
C45_2 C40_2 1_555 1_555
C58_2 C12_2 1_555 1_555
Zn5_2 O5_2 1_555 1_555
Zn6_2 O6_2 1_555 1_555
O16_2 Zn5 1_555 1_555
C6_2 C7_2 1_555 1_555
C12_2 C13_2 1_555 1_555
C18_2 C19_2 1_555 1_555
C19_2 C58_2 1_555 1_555
C24_2 C25_2 1_555 1_555
C32_2 C33_2 1_555 1_555
C38_2 C39_2 1_555 1_555
C38_2 C58_2 1_555 1_555
C44_2 C45_2 1_555 1_555
C45_2 C58_2 1_555 1_555
Zn6_2 O3_2 1_555 1_555
O3_2 C52_2 1_555 1_555
O4_2 C52_2 1_555 1_555
O15 C1_2 1_555 1_555
O16_2 C1_2 1_555 1_555
C1_2 C2_2 1_555 1_555
H25_2 C42_2 1_555 1_555
C43_2 C42_2 1_555 1_555
C46_2 C43_2 1_555 1_555
C47_2 C46_2 1_555 1_555
H27_2 C47_2 1_555 1_555
C48_2 C47_2 1_555 1_555
H28_2 C48_2 1_555 1_555
C49_2 C48_2 1_555 1_555
C50_2 C49_2 1_555 1_555
H29_2 C50_2 1_555 1_555
C51_2 C46_2 1_555 1_555
H30_2 C51_2 1_555 1_555
C52_2 C49_2 1_555 1_555
Zn5_2 O4_2 1_555 1_555
O15_2 Zn6_2 1_555 1_555
C50_2 C51_2 1_555 1_555
Zn5_2 O15_2 1_555 1_555
Zn7 O3_3 1_555 1_555
O3_3 C52_3 1_555 1_555
O11 C52_3 1_555 1_555
O15_2 C1_3 1_555 1_555
O8 C1_3 1_555 1_555
O9 Zn7 1_555 1_555
H1 O9 1_555 1_555
H2 O9 1_555 1_555
O10 Zn7 1_555 1_555
N1 C53 1_555 1_555
C1_3 C2_3 1_555 1_555
H25_3 C42_3 1_555 1_555
C43_3 C42_3 1_555 1_555
C46_3 C43_3 1_555 1_555
C47_3 C46_3 1_555 1_555
H27_3 C47_3 1_555 1_555
C48_3 C47_3 1_555 1_555
H28_3 C48_3 1_555 1_555
C49_3 C48_3 1_555 1_555
C50_3 C49_3 1_555 1_555
H29_3 C50_3 1_555 1_555
C51_3 C46_3 1_555 1_555
H30_3 C51_3 1_555 1_555
C52_3 C49_3 1_555 1_555
C53 O10 1_555 1_555
H31 C53 1_555 1_555
C54 N1 1_555 1_555
H32 C54 1_555 1_555
H33 C54 1_555 1_555
C55 N1 1_555 1_555
H34 C55 1_555 1_555
H35 C55 1_555 1_555
C56 C55 1_555 1_555
H36 C56 1_555 1_555
H37 C56 1_555 1_555
H38 C56 1_555 1_555
C57 C54 1_555 1_555
H39 C57 1_555 1_555
H40 C57 1_555 1_555
H41 C57 1_555 1_555
O13 Zn7 1_555 1_555
O8 Zn5_2 1_555 1_555
C50_3 C51_3 1_555 1_555
Zn5_2 O1_3 1_555 1_555
O1_3 C27_3 1_555 1_555
O2_3 Zn5_2 1_555 1_555
O12 C26_3 1_555 1_555
O13 C26_3 1_555 1_555
C21_3 C20_3 1_555 1_555
H13_3 C21_3 1_555 1_555
C22_3 C21_3 1_555 1_555
H14_3 C22_3 1_555 1_555
C23_3 C22_3 1_555 1_555
C24_3 C23_3 1_555 1_555
H15_3 C24_3 1_555 1_555
C25_3 C20_3 1_555 1_555
H16_3 C25_3 1_555 1_555
C26_3 C23_3 1_555 1_555
C27_3 O2_3 1_555 1_555
C28_3 C27_3 1_555 1_555
C29_3 C28_3 1_555 1_555
H17_3 C29_3 1_555 1_555
C30_3 C29_3 1_555 1_555
H18_3 C30_3 1_555 1_555
C31_3 C30_3 1_555 1_555
C32_3 C31_3 1_555 1_555
C33_3 C28_3 1_555 1_555
H20_3 C33_3 1_555 1_555
C34_3 C31_3 1_555 1_555
C35_3 C34_3 1_555 1_555
H21_3 C35_3 1_555 1_555
C36_3 C35_3 1_555 1_555
H22_3 C36_3 1_555 1_555
C24_3 C25_3 1_555 1_555
C32_3 C33_3 1_555 1_555
H1_2 O9_2 1_555 1_555
H2_2 O9_2 1_555 1_555
N1_2 C53_2 1_555 1_555
C53_2 O10_2 1_555 1_555
H31_2 C53_2 1_555 1_555
C54_2 N1_2 1_555 1_555
H32_2 C54_2 1_555 1_555
H33_2 C54_2 1_555 1_555
C55_2 N1_2 1_555 1_555
H34_2 C55_2 1_555 1_555
H35_2 C55_2 1_555 1_555
C56_2 C55_2 1_555 1_555
H36_2 C56_2 1_555 1_555
H37_2 C56_2 1_555 1_555
H38_2 C56_2 1_555 1_555
C57_2 C54_2 1_555 1_555
H39_2 C57_2 1_555 1_555
H40_2 C57_2 1_555 1_555
H41_2 C57_2 1_555 1_555
H1_3 O9_3 1_555 1_555
H2_3 O9_3 1_555 1_555
N1_3 C53_3 1_555 1_555
C53_3 O10_3 1_555 1_555
H31_3 C53_3 1_555 1_555
C54_3 N1_3 1_555 1_555
H32_3 C54_3 1_555 1_555
H33_3 C54_3 1_555 1_555
C55_3 N1_3 1_555 1_555
H34_3 C55_3 1_555 1_555
H35_3 C55_3 1_555 1_555
C56_3 C55_3 1_555 1_555
H36_3 C56_3 1_555 1_555
H37_3 C56_3 1_555 1_555
H38_3 C56_3 1_555 1_555
C57_3 C54_3 1_555 1_555
H39_3 C57_3 1_555 1_555
H40_3 C57_3 1_555 1_555
H41_3 C57_3 1_555 1_555
C4_3 C3_3 1_555 1_555
H4_3 C4_3 1_555 1_555
C5_3 C4_3 1_555 1_555
C6_3 C5_3 1_555 1_555
H5_3 C6_3 1_555 1_555
C8_3 C5_3 1_555 1_555
C9_3 C8_3 1_555 1_555
H7_3 C9_3 1_555 1_555
C10_3 C9_3 1_555 1_555
H8_3 C10_3 1_555 1_555
C11_3 C10_3 1_555 1_555
C12_3 C11_3 1_555 1_555
C13_3 C8_3 1_555 1_555
H9_3 C13_3 1_555 1_555
C14_3 C11_3 1_555 1_555
C15_3 C14_3 1_555 1_555
H10_3 C15_3 1_555 1_555
C16_3 C15_3 1_555 1_555
H11_3 C16_3 1_555 1_555
C17_3 C16_3 1_555 1_555
C18_3 C17_3 1_555 1_555
C19_3 C14_3 1_555 1_555
C38_3 C37_3 1_555 1_555
H23_3 C39_3 1_555 1_555
C40_3 C37_3 1_555 1_555
C41_3 C40_3 1_555 1_555
H24_3 C41_3 1_555 1_555
H26_3 C44_3 1_555 1_555
C45_3 C40_3 1_555 1_555
C58_3 C12_3 1_555 1_555
C6_3 C7_3 1_555 1_555
C12_3 C13_3 1_555 1_555
C18_3 C19_3 1_555 1_555
C19_3 C58_3 1_555 1_555
C38_3 C39_3 1_555 1_555
C38_3 C58_3 1_555 1_555
C44_3 C45_3 1_555 1_555
C45_3 C58_3 1_555 1_555
H1_4 O9_4 1_555 1_555
H2_4 O9_4 1_555 1_555
N1_4 C53_4 1_555 1_555
C53_4 O10_4 1_555 1_555
H31_4 C53_4 1_555 1_555
C54_4 N1_4 1_555 1_555
H32_4 C54_4 1_555 1_555
H33_4 C54_4 1_555 1_555
C55_4 N1_4 1_555 1_555
H34_4 C55_4 1_555 1_555
H35_4 C55_4 1_555 1_555
C56_4 C55_4 1_555 1_555
H36_4 C56_4 1_555 1_555
H37_4 C56_4 1_555 1_555
H38_4 C56_4 1_555 1_555
C57_4 C54_4 1_555 1_555
H39_4 C57_4 1_555 1_555
H40_4 C57_4 1_555 1_555
H41_4 C57_4 1_555 1_555
Zn1_2 O1_4 1_555 1_555
O1_4 C27_4 1_555 1_555
O2_4 Zn1_2 1_555 1_555
C27_4 O2_4 1_555 1_555
C28_4 C27_4 1_555 1_555
C29_4 C28_4 1_555 1_555
H17_4 C29_4 1_555 1_555
C30_4 C29_4 1_555 1_555
H18_4 C30_4 1_555 1_555
C31_4 C30_4 1_555 1_555
C32_4 C31_4 1_555 1_555
C33_4 C28_4 1_555 1_555
H20_4 C33_4 1_555 1_555
C34_4 C31_4 1_555 1_555
C35_4 C34_4 1_555 1_555
H21_4 C35_4 1_555 1_555
C36_4 C35_4 1_555 1_555
H22_4 C36_4 1_555 1_555
O11_2 Zn1_2 1_555 1_555
O12_2 Zn1_2 1_555 1_555
O14_2 Zn1_2 1_555 1_555
O16_3 Zn1_2 1_555 1_555
C32_4 C33_4 1_555 1_555
O5_3 C26_4 1_555 1_555
O6_3 C26_4 1_555 1_555
C21_4 C20_4 1_555 1_555
H13_4 C21_4 1_555 1_555
C22_4 C21_4 1_555 1_555
H14_4 C22_4 1_555 1_555
C23_4 C22_4 1_555 1_555
C24_4 C23_4 1_555 1_555
H15_4 C24_4 1_555 1_555
C25_4 C20_4 1_555 1_555
H16_4 C25_4 1_555 1_555
C26_4 C23_4 1_555 1_555
Zn5_3 O5_3 1_555 1_555
Zn6_3 O6_3 1_555 1_555
C24_4 C25_4 1_555 1_555
O14_2 C1_4 1_555 1_555
O16_3 C1_4 1_555 1_555
C1_4 C2_4 1_555 1_555
C2_4 C3_4 1_555 1_555
C3_4 H3_4 1_555 1_555
C4_4 C3_4 1_555 1_555
H4_4 C4_4 1_555 1_555
C5_4 C4_4 1_555 1_555
C6_4 C5_4 1_555 1_555
H5_4 C6_4 1_555 1_555
C7_4 C2_4 1_555 1_555
H6_4 C7_4 1_555 1_555
C8_4 C5_4 1_555 1_555
C13_4 C8_4 1_555 1_555
H9_4 C13_4 1_555 1_555
H23_4 C39_4 1_555 1_555
Zn7_2 O14_2 1_555 1_555
C6_4 C7_4 1_555 1_555
Zn6_3 O3_4 1_555 1_555
O3_4 C52_4 1_555 1_555
O4_3 C52_4 1_555 1_555
H7_4 C9_4 1_555 1_555
C10_4 C9_4 1_555 1_555
H8_4 C10_4 1_555 1_555
C11_4 C10_4 1_555 1_555
C12_4 C11_4 1_555 1_555
C14_4 C11_4 1_555 1_555
C15_4 C14_4 1_555 1_555
H10_4 C15_4 1_555 1_555
C16_4 C15_4 1_555 1_555
H11_4 C16_4 1_555 1_555
C17_4 C16_4 1_555 1_555
C18_4 C17_4 1_555 1_555
C19_4 C14_4 1_555 1_555
C38_4 C37_4 1_555 1_555
C40_4 C37_4 1_555 1_555
C41_4 C40_4 1_555 1_555
H24_4 C41_4 1_555 1_555
C42_4 C41_4 1_555 1_555
H25_4 C42_4 1_555 1_555
C43_4 C42_4 1_555 1_555
C44_4 C43_4 1_555 1_555
H26_4 C44_4 1_555 1_555
C45_4 C40_4 1_555 1_555
C46_4 C43_4 1_555 1_555
C47_4 C46_4 1_555 1_555
H27_4 C47_4 1_555 1_555
C48_4 C47_4 1_555 1_555
H28_4 C48_4 1_555 1_555
C49_4 C48_4 1_555 1_555
C50_4 C49_4 1_555 1_555
H29_4 C50_4 1_555 1_555
C51_4 C46_4 1_555 1_555
H30_4 C51_4 1_555 1_555
C52_4 C49_4 1_555 1_555
C58_4 C12_4 1_555 1_555
Zn5_3 O4_3 1_555 1_555
O15_3 Zn6_3 1_555 1_555
C18_4 C19_4 1_555 1_555
C19_4 C58_4 1_555 1_555
C38_4 C58_4 1_555 1_555
C44_4 C45_4 1_555 1_555
C45_4 C58_4 1_555 1_555
C50_4 C51_4 1_555 1_555
Zn5_3 O15_3 1_555 1_555
Zn7_2 O3_5 1_555 1_555
O3_5 C52_5 1_555 1_555
O11_2 C52_5 1_555 1_555
O7 C1_5 1_555 1_555
O8_2 C1_5 1_555 1_555
O9_5 Zn7_2 1_555 1_555
H1_5 O9_5 1_555 1_555
H2_5 O9_5 1_555 1_555
O10_5 Zn7_2 1_555 1_555
N1_5 C53_5 1_555 1_555
C1_5 C2_5 1_555 1_555
H25_5 C42_5 1_555 1_555
C43_5 C42_5 1_555 1_555
C46_5 C43_5 1_555 1_555
C47_5 C46_5 1_555 1_555
H27_5 C47_5 1_555 1_555
C48_5 C47_5 1_555 1_555
H28_5 C48_5 1_555 1_555
C49_5 C48_5 1_555 1_555
C50_5 C49_5 1_555 1_555
H29_5 C50_5 1_555 1_555
C51_5 C46_5 1_555 1_555
H30_5 C51_5 1_555 1_555
C52_5 C49_5 1_555 1_555
C53_5 O10_5 1_555 1_555
H31_5 C53_5 1_555 1_555
C54_5 N1_5 1_555 1_555
H32_5 C54_5 1_555 1_555
H33_5 C54_5 1_555 1_555
C55_5 N1_5 1_555 1_555
H34_5 C55_5 1_555 1_555
H35_5 C55_5 1_555 1_555
C56_5 C55_5 1_555 1_555
H36_5 C56_5 1_555 1_555
H37_5 C56_5 1_555 1_555
H38_5 C56_5 1_555 1_555
C57_5 C54_5 1_555 1_555
H39_5 C57_5 1_555 1_555
H40_5 C57_5 1_555 1_555
H41_5 C57_5 1_555 1_555
Zn3 O7 1_555 1_555
Zn7_3 O7 1_555 1_555
O13_2 Zn7_2 1_555 1_555
O8_2 Zn3 1_555 1_555
C50_5 C51_5 1_555 1_555
Zn3 O1_5 1_555 1_555
O1_5 C27_5 1_555 1_555
O2_5 Zn3 1_555 1_555
O12_2 C26_5 1_555 1_555
O13_2 C26_5 1_555 1_555
C21_5 C20_5 1_555 1_555
H13_5 C21_5 1_555 1_555
C22_5 C21_5 1_555 1_555
H14_5 C22_5 1_555 1_555
C23_5 C22_5 1_555 1_555
C24_5 C23_5 1_555 1_555
H15_5 C24_5 1_555 1_555
C25_5 C20_5 1_555 1_555
H16_5 C25_5 1_555 1_555
C26_5 C23_5 1_555 1_555
C27_5 O2_5 1_555 1_555
C28_5 C27_5 1_555 1_555
C29_5 C28_5 1_555 1_555
H17_5 C29_5 1_555 1_555
C30_5 C29_5 1_555 1_555
H18_5 C30_5 1_555 1_555
C31_5 C30_5 1_555 1_555
C32_5 C31_5 1_555 1_555
C33_5 C28_5 1_555 1_555
H20_5 C33_5 1_555 1_555
C34_5 C31_5 1_555 1_555
C35_5 C34_5 1_555 1_555
H21_5 C35_5 1_555 1_555
C36_5 C35_5 1_555 1_555
H22_5 C36_5 1_555 1_555
O11_3 Zn3 1_555 1_555
O12_3 Zn3 1_555 1_555
C24_5 C25_5 1_555 1_555
C32_5 C33_5 1_555 1_555
Zn5_3 O1_6 1_555 1_555
O1_6 C27_6 1_555 1_555
O2_6 Zn5_3 1_555 1_555
O12_3 C26_6 1_555 1_555
O6_4 C26_6 1_555 1_555
C4_5 C3_5 1_555 1_555
H4_5 C4_5 1_555 1_555
C5_5 C4_5 1_555 1_555
C6_5 C5_5 1_555 1_555
H5_5 C6_5 1_555 1_555
C8_5 C5_5 1_555 1_555
C9_5 C8_5 1_555 1_555
H7_5 C9_5 1_555 1_555
C10_5 C9_5 1_555 1_555
H8_5 C10_5 1_555 1_555
C11_5 C10_5 1_555 1_555
C12_5 C11_5 1_555 1_555
C13_5 C8_5 1_555 1_555
H9_5 C13_5 1_555 1_555
C14_5 C11_5 1_555 1_555
C15_5 C14_5 1_555 1_555
H10_5 C15_5 1_555 1_555
C16_5 C15_5 1_555 1_555
H11_5 C16_5 1_555 1_555
C17_5 C16_5 1_555 1_555
C18_5 C17_5 1_555 1_555
H12_6 C18_5 1_555 1_555
C19_5 C14_5 1_555 1_555
C20_6 C17_5 1_555 1_555
C21_6 C20_6 1_555 1_555
H13_6 C21_6 1_555 1_555
C22_6 C21_6 1_555 1_555
H14_6 C22_6 1_555 1_555
C23_6 C22_6 1_555 1_555
C24_6 C23_6 1_555 1_555
H15_6 C24_6 1_555 1_555
C25_6 C20_6 1_555 1_555
H16_6 C25_6 1_555 1_555
C26_6 C23_6 1_555 1_555
C27_6 O2_6 1_555 1_555
C28_6 C27_6 1_555 1_555
C29_6 C28_6 1_555 1_555
H17_6 C29_6 1_555 1_555
C30_6 C29_6 1_555 1_555
H18_6 C30_6 1_555 1_555
C31_6 C30_6 1_555 1_555
C32_6 C31_6 1_555 1_555
H19_5 C32_6 1_555 1_555
C33_6 C28_6 1_555 1_555
H20_6 C33_6 1_555 1_555
C34_6 C31_6 1_555 1_555
C35_6 C34_6 1_555 1_555
H21_6 C35_6 1_555 1_555
C36_6 C35_6 1_555 1_555
H22_6 C36_6 1_555 1_555
C37_5 C36_6 1_555 1_555
C38_5 C37_5 1_555 1_555
C39_5 C34_6 1_555 1_555
H23_5 C39_5 1_555 1_555
C40_5 C37_5 1_555 1_555
C41_5 C40_5 1_555 1_555
H24_5 C41_5 1_555 1_555
H26_5 C44_5 1_555 1_555
C45_5 C40_5 1_555 1_555
C58_5 C12_5 1_555 1_555
Zn7_3 O6_4 1_555 1_555
O16_4 Zn5_3 1_555 1_555
C6_5 C7_5 1_555 1_555
C12_5 C13_5 1_555 1_555
C18_5 C19_5 1_555 1_555
C19_5 C58_5 1_555 1_555
C24_6 C25_6 1_555 1_555
C32_6 C33_6 1_555 1_555
C38_5 C39_5 1_555 1_555
C38_5 C58_5 1_555 1_555
C44_5 C45_5 1_555 1_555
C45_5 C58_5 1_555 1_555
Zn7_3 O3_6 1_555 1_555
O3_6 C52_6 1_555 1_555
O11_3 C52_6 1_555 1_555
O15_3 C1_6 1_555 1_555
O16_4 C1_6 1_555 1_555
C1_6 C2_6 1_555 1_555
H25_6 C42_6 1_555 1_555
C43_6 C42_6 1_555 1_555
C46_6 C43_6 1_555 1_555
C47_6 C46_6 1_555 1_555
H27_6 C47_6 1_555 1_555
C48_6 C47_6 1_555 1_555
H28_6 C48_6 1_555 1_555
C49_6 C48_6 1_555 1_555
C50_6 C49_6 1_555 1_555
H29_6 C50_6 1_555 1_555
C51_6 C46_6 1_555 1_555
H30_6 C51_6 1_555 1_555
C52_6 C49_6 1_555 1_555
C50_6 C51_6 1_555 1_555
C4_6 C3_6 1_555 1_555
H4_6 C4_6 1_555 1_555
C5_6 C4_6 1_555 1_555
C6_6 C5_6 1_555 1_555
H5_6 C6_6 1_555 1_555
C8_6 C5_6 1_555 1_555
C9_6 C8_6 1_555 1_555
H7_6 C9_6 1_555 1_555
C10_6 C9_6 1_555 1_555
H8_6 C10_6 1_555 1_555
C11_6 C10_6 1_555 1_555
C12_6 C11_6 1_555 1_555
C13_6 C8_6 1_555 1_555
H9_6 C13_6 1_555 1_555
C14_6 C11_6 1_555 1_555
C15_6 C14_6 1_555 1_555
H10_6 C15_6 1_555 1_555
C16_6 C15_6 1_555 1_555
H11_6 C16_6 1_555 1_555
C17_6 C16_6 1_555 1_555
C18_6 C17_6 1_555 1_555
C19_6 C14_6 1_555 1_555
C38_6 C37_6 1_555 1_555
H23_6 C39_6 1_555 1_555
C40_6 C37_6 1_555 1_555
C41_6 C40_6 1_555 1_555
H24_6 C41_6 1_555 1_555
H26_6 C44_6 1_555 1_555
C45_6 C40_6 1_555 1_555
C58_6 C12_6 1_555 1_555
C6_6 C7_6 1_555 1_555
C12_6 C13_6 1_555 1_555
C18_6 C19_6 1_555 1_555
C19_6 C58_6 1_555 1_555
C38_6 C39_6 1_555 1_555
C38_6 C58_6 1_555 1_555
C44_6 C45_6 1_555 1_555
C45_6 C58_6 1_555 1_555
H1_6 O9_6 1_555 1_555
H2_6 O9_6 1_555 1_555
N1_6 C53_6 1_555 1_555
C53_6 O10_6 1_555 1_555
H31_6 C53_6 1_555 1_555
C54_6 N1_6 1_555 1_555
H32_6 C54_6 1_555 1_555
H33_6 C54_6 1_555 1_555
C55_6 N1_6 1_555 1_555
H34_6 C55_6 1_555 1_555
H35_6 C55_6 1_555 1_555
C56_6 C55_6 1_555 1_555
H36_6 C56_6 1_555 1_555
H37_6 C56_6 1_555 1_555
H38_6 C56_6 1_555 1_555
C57_6 C54_6 1_555 1_555
H39_6 C57_6 1_555 1_555
H40_6 C57_6 1_555 1_555
H41_6 C57_6 1_555 1_555

#END
