
###############################################################################
#
# This file contains modified crystal structure data generated from the
# MOF subset of the Cambridge Structural Database (CSD) v543 
# hosted by the Cambridge Crystallographic Data Centre (CCDC).
#
# This work is licensed under the Creative Commons
# Attribution-NonCommercial-ShareAlike 4.0 International License.
# To view a copy of this license, visit
# http://creativecommons.org/licenses/by-nc-sa/4.0/
# or send a letter to
# Creative Commons, PO Box 1866, Mountain View, CA 94042, USA.
#
# CIF created using the CSD Python API on 29 September 2022
# The structure has been converted into the P1 space group
# The structure has a 3D framework
# The original CSD entry WEYCEL is in the monoclinic crystal system
# The framework has been calculated to contain at least 10.0% void space
# The void calculation uses a probe of radius 1.32A, grid spacing 0.4
#
###############################################################################

data_WEYCEL
_chemical_formula_moiety         '(C224 H184 Co6 N24 O28)n'
_symmetry_cell_setting           triclinic
_symmetry_space_group_name_H-M   'P 1'
_symmetry_Int_Tables_number      1
_space_group_name_Hall           'P 1'
loop_
_symmetry_equiv_pos_site_id
_symmetry_equiv_pos_as_xyz
1 x,y,z
_cell_length_a                   29.131(2)
_cell_length_b                   8.3239(6)
_cell_length_c                   22.9927(16)
_cell_angle_alpha                90
_cell_angle_beta                 94.6100(10)
_cell_angle_gamma                90
_cell_volume                     5557.31
loop_
_atom_site_label
_atom_site_type_symbol
_atom_site_fract_x
_atom_site_fract_y
_atom_site_fract_z
Co4 Co 0.466733(13) 0.11694(5) 0.004157(17)
N4 N 0.91177(10) 0.2333(3) 0.48197(12)
C29 C 0.87124(13) 0.2518(6) 0.50280(18)
H24 H 0.8682 0.3312 0.5307
C31 C 0.83632(15) 0.0436(6) 0.44426(17)
H28 H 0.7734 0.0111 0.3987
C34 C 0.91447(17) 0.1206(6) 0.4417(3)
H31 H 0.9427 0.1043 0.4264
C35 C 0.87774(18) 0.0261(8) 0.4214(3)
C36 C 0.83318(15) 0.1607(7) 0.4857(2)
H33 H 0.8055 0.1783 0.5021
Co7 Co 0.966733(13) 0.38306(5) 0.504157(17)
Co1 Co 0.533267(13) 0.11694(5) 0.495843(17)
N1 N 0.58823(10) 0.2667(3) 0.51803(12)
N3 N 0.72881(12) 0.6231(5) 0.52983(17)
C18 C 0.62876(13) 0.2482(6) 0.49720(18)
H11 H 0.6318 0.1688 0.4693
C19 C 0.70193(15) 0.7458(7) 0.4987(2)
H12 H 0.6961 0.8327 0.5252
H13 H 0.6725 0.7013 0.4840
C20 C 0.66368(15) 0.4564(6) 0.55574(17)
C21 C 0.70527(18) 0.5559(7) 0.5774(2)
H14 H 0.6954 0.6425 0.6017
H15 H 0.7266 0.4889 0.6013
C22 C 0.72656(16) 0.8108(8) 0.4484(2)
H16 H 0.7310 0.7255 0.4207
H17 H 0.7081 0.8941 0.4285
C23 C 0.58553(17) 0.3794(6) 0.5583(3)
H18 H 0.5573 0.3957 0.5736
C24 C 0.62226(18) 0.4739(8) 0.5786(3)
H19 H 0.6188 0.5493 0.6078
C26 C 0.66682(15) 0.3393(7) 0.5143(2)
H21 H 0.6945 0.3217 0.4979
N5 N 0.77119(12) 0.8769(5) 0.47017(17)
C30 C 0.79807(15) 0.7542(7) 0.5013(2)
H25 H 0.8039 0.6673 0.4748
H26 H 0.8275 0.7987 0.5160
C32 C 0.79473(18) 0.9441(7) 0.4226(2)
H27 H 0.8046 0.8575 0.3983
C33 C 0.77344(16) 0.6892(8) 0.5516(2)
H29 H 0.7690 0.7745 0.5793
H30 H 0.7919 0.6059 0.5715
H32 H 0.8812 0.9507 0.3922
O5 O 0.48648(8) 0.2377(3) 0.54084(12)
O6 O 0.50321(9) 0.7943(3) 0.92084(11)
O7 O 0.43230(9) 0.0496(3) 0.54796(11)
O8 O 0.44994(10) 0.9840(3) 0.92898(11)
N6 N 0.35794(12) 0.6015(5) 0.70888(16)
C37 C 0.42313(11) 0.2998(4) 0.59401(14)
C38 C 0.2139(2) 0.6304(8) 0.6946(5)
H34 H 0.1821 0.6421 0.6916
C39 C 0.43703(13) 0.4581(5) 0.60127(16)
H35 H 0.4613 0.4969 0.5815
C40 C 0.37904(13) 0.5019(5) 0.66820(16)
C41 C 0.46569(13) 0.8630(4) 0.90459(15)
C42 C 0.38602(13) 0.2463(5) 0.62273(17)
H36 H 0.3758 0.1412 0.6171
C43 C 0.41482(14) 0.5593(5) 0.63798(18)
H37 H 0.4240 0.6659 0.6423
C44 C 0.2377(2) 0.6443(8) 0.6459(4)
H38 H 0.2219 0.6579 0.6095
C45 C 0.42720(14) 0.6012(5) 0.77558(18)
H39 H 0.4380 0.5129 0.7560
C46 C 0.44900(11) 0.1873(4) 0.55778(14)
C47 C 0.36396(14) 0.3455(6) 0.65955(19)
H40 H 0.3391 0.3075 0.6785
C48 C 0.45330(13) 0.6647(5) 0.82213(16)
H41 H 0.4817 0.6188 0.8337
C49 C 0.43812(13) 0.7972(5) 0.85255(16)
C50 C 0.30887(14) 0.6115(6) 0.7047(2)
C51 C 0.38474(13) 0.6671(6) 0.75718(17)
C52 C 0.39564(16) 0.8621(5) 0.83434(19)
H42 H 0.3844 0.9486 0.8545
C53 C 0.36959(15) 0.7996(6) 0.7864(2)
H43 H 0.3417 0.8473 0.7738
C54 C 0.28584(18) 0.6381(7) 0.6508(3)
H44 H 0.3022 0.6519 0.6180
C55 C 0.2842(2) 0.5888(8) 0.7524(3)
H45 H 0.2996 0.5660 0.7885
C56 C 0.2367(2) 0.5998(10) 0.7471(4)
H46 H 0.2202 0.5859 0.7798
Co6 Co 0.533267(13) 0.88306(5) 0.995843(17)
O9 O 0.50321(9) 0.2057(3) 0.42084(11)
O11 O 0.44994(10) 0.0160(3) 0.42898(11)
O1 O 0.51352(8) 0.7623(3) 0.45916(12)
O2 O 0.49679(9) 0.2057(3) 0.07916(11)
O3 O 0.56770(9) 0.9504(3) 0.45204(11)
O4 O 0.55006(10) 0.0160(3) 0.07102(11)
N2 N 0.64206(12) 0.3985(5) 0.29112(16)
C1 C 0.57687(11) 0.7002(4) 0.40599(14)
C2 C 0.7861(2) 0.3696(8) 0.3054(5)
H1 H 0.8179 0.3579 0.3084
C3 C 0.56297(13) 0.5419(5) 0.39873(16)
H2 H 0.5387 0.5031 0.4185
C4 C 0.62096(13) 0.4981(5) 0.33180(16)
C5 C 0.53431(13) 0.1370(4) 0.09541(15)
C6 C 0.61398(13) 0.7537(5) 0.37727(17)
H3 H 0.6242 0.8588 0.3829
C7 C 0.58518(14) 0.4407(5) 0.36202(18)
H4 H 0.5760 0.3341 0.3577
C8 C 0.7623(2) 0.3557(8) 0.3541(4)
H5 H 0.7781 0.3421 0.3905
C9 C 0.57280(14) 0.3988(5) 0.22442(18)
H6 H 0.5620 0.4871 0.2440
C10 C 0.55100(11) 0.8127(4) 0.44222(14)
C11 C 0.63604(14) 0.6545(6) 0.34045(19)
H7 H 0.6609 0.6925 0.3215
C12 C 0.54670(13) 0.3353(5) 0.17787(16)
H8 H 0.5183 0.3812 0.1663
C13 C 0.56188(13) 0.2028(5) 0.14745(16)
C14 C 0.69113(14) 0.3885(6) 0.2953(2)
C15 C 0.61526(13) 0.3329(6) 0.24282(17)
C16 C 0.60436(16) 0.1379(5) 0.16566(19)
H9 H 0.6156 0.0514 0.1455
C17 C 0.63041(15) 0.2004(6) 0.2136(2)
H10 H 0.6583 0.1527 0.2262
C25 C 0.71416(18) 0.3619(7) 0.3492(3)
H20 H 0.6978 0.3481 0.3820
C27 C 0.7158(2) 0.4112(8) 0.2476(3)
H22 H 0.7004 0.4340 0.2115
C28 C 0.7633(2) 0.4002(10) 0.2529(4)
H23 H 0.7798 0.4141 0.2202
Co2 Co 0.466733(13) 0.88306(5) 0.504157(17)
O10 O 0.49679(9) 0.7943(3) 0.57916(11)
O12 O 0.55006(10) 0.9840(3) 0.57102(11)
N7 N 0.41177(10) 0.7333(3) 0.48197(12)
C29_2 C 0.12876(13) 0.2518(6) 0.99720(18)
H24_2 H 0.1318 0.3312 0.9693
H33_2 H 0.1945 0.1783 0.9979
Co7_2 Co 0.033267(13) 0.38306(5) 0.995843(17)
C18_2 C 0.37124(13) 0.2482(6) 0.00280(18)
H11_2 H 0.3682 0.1688 0.0307
C19_2 C 0.29807(15) 0.7458(7) 0.0013(2)
H13_2 H 0.3275 0.7013 0.0160
C22_2 C 0.27344(16) 0.8108(8) 0.0516(2)
H16_2 H 0.2690 0.7255 0.0793
H17_2 H 0.2919 0.8941 0.0715
H21_2 H 0.3055 0.3217 0.0021
N5_2 N 0.22881(12) 0.8769(5) 0.02983(17)
H25_2 H 0.1961 0.6673 0.0252
C32_2 C 0.20527(18) 0.9441(7) 0.0774(2)
H27_2 H 0.1954 0.8575 0.1017
H32_2 H 0.1188 0.9507 0.1078
N1_2 N 0.41177(10) 0.2667(3) 0.98197(12)
N3_2 N 0.27119(12) 0.6231(5) 0.97017(17)
H12_2 H 0.3039 0.8327 0.9748
C20_2 C 0.33632(15) 0.4564(6) 0.94426(17)
C21_2 C 0.29473(18) 0.5559(7) 0.9226(2)
H14_2 H 0.3046 0.6425 0.8983
H15_2 H 0.2734 0.4889 0.8987
C23_2 C 0.41447(17) 0.3794(6) 0.9417(3)
H18_2 H 0.4427 0.3957 0.9264
C24_2 C 0.37774(18) 0.4739(8) 0.9214(3)
H19_2 H 0.3812 0.5493 0.8922
C26_2 C 0.33318(15) 0.3393(7) 0.9857(2)
C30_2 C 0.20193(15) 0.7542(7) 0.9987(2)
H26_2 H 0.1725 0.7987 0.9840
C33_2 C 0.22656(16) 0.6892(8) 0.9484(2)
H29_2 H 0.2310 0.7745 0.9207
H30_2 H 0.2081 0.6059 0.9285
O5_2 O 0.51352(8) 0.2377(3) 0.95916(12)
O7_2 O 0.56770(9) 0.0496(3) 0.95204(11)
N6_2 N 0.64206(12) 0.6015(5) 0.79112(16)
C37_2 C 0.57687(11) 0.2998(4) 0.90599(14)
C38_2 C 0.7861(2) 0.6304(8) 0.8054(5)
H34_2 H 0.8179 0.6421 0.8084
C39_2 C 0.56297(13) 0.4581(5) 0.89873(16)
H35_2 H 0.5387 0.4969 0.9185
C40_2 C 0.62096(13) 0.5019(5) 0.83180(16)
C41_2 C 0.53431(13) 0.8630(4) 0.59541(15)
C42_2 C 0.61398(13) 0.2463(5) 0.87727(17)
H36_2 H 0.6242 0.1412 0.8829
C43_2 C 0.58518(14) 0.5593(5) 0.86202(18)
H37_2 H 0.5760 0.6659 0.8577
C44_2 C 0.7623(2) 0.6443(8) 0.8541(4)
H38_2 H 0.7781 0.6579 0.8905
C45_2 C 0.57280(14) 0.6012(5) 0.72442(18)
H39_2 H 0.5620 0.5129 0.7440
C46_2 C 0.55100(11) 0.1873(4) 0.94222(14)
C47_2 C 0.63604(14) 0.3455(6) 0.84045(19)
H40_2 H 0.6609 0.3075 0.8215
C48_2 C 0.54670(13) 0.6647(5) 0.67787(16)
H41_2 H 0.5183 0.6188 0.6663
C49_2 C 0.56188(13) 0.7972(5) 0.64745(16)
C50_2 C 0.69113(14) 0.6115(6) 0.7953(2)
C51_2 C 0.61526(13) 0.6671(6) 0.74282(17)
C52_2 C 0.60436(16) 0.8621(5) 0.66566(19)
H42_2 H 0.6156 0.9486 0.6455
C53_2 C 0.63041(15) 0.7996(6) 0.7136(2)
H43_2 H 0.6583 0.8473 0.7262
C54_2 C 0.71416(18) 0.6381(7) 0.8492(3)
H44_2 H 0.6978 0.6519 0.8820
C55_2 C 0.7158(2) 0.5888(8) 0.7476(3)
H45_2 H 0.7004 0.5660 0.7115
C56_2 C 0.7633(2) 0.5998(10) 0.7529(4)
H46_2 H 0.7798 0.5859 0.7202
O1_2 O 0.48648(8) 0.7623(3) 0.04084(12)
O3_2 O 0.43230(9) 0.9504(3) 0.04796(11)
N2_2 N 0.35794(12) 0.3985(5) 0.20888(16)
C1_2 C 0.42313(11) 0.7002(4) 0.09401(14)
C2_2 C 0.2139(2) 0.3696(8) 0.1946(5)
H1_2 H 0.1821 0.3579 0.1916
C3_2 C 0.43703(13) 0.5419(5) 0.10127(16)
H2_2 H 0.4613 0.5031 0.0815
C4_2 C 0.37904(13) 0.4981(5) 0.16820(16)
C5_2 C 0.46569(13) 0.1370(4) 0.40459(15)
C6_2 C 0.38602(13) 0.7537(5) 0.12273(17)
H3_2 H 0.3758 0.8588 0.1171
C7_2 C 0.41482(14) 0.4407(5) 0.13798(18)
H4_2 H 0.4240 0.3341 0.1423
C8_2 C 0.2377(2) 0.3557(8) 0.1459(4)
H5_2 H 0.2219 0.3421 0.1095
C9_2 C 0.42720(14) 0.3988(5) 0.27558(18)
H6_2 H 0.4380 0.4871 0.2560
C10_2 C 0.44900(11) 0.8127(4) 0.05778(14)
C11_2 C 0.36396(14) 0.6545(6) 0.15955(19)
H7_2 H 0.3391 0.6925 0.1785
C12_2 C 0.45330(13) 0.3353(5) 0.32213(16)
H8_2 H 0.4817 0.3812 0.3337
C13_2 C 0.43812(13) 0.2028(5) 0.35255(16)
C14_2 C 0.30887(14) 0.3885(6) 0.2047(2)
C15_2 C 0.38474(13) 0.3329(6) 0.25718(17)
C16_2 C 0.39564(16) 0.1379(5) 0.33434(19)
H9_2 H 0.3844 0.0514 0.3545
C17_2 C 0.36959(15) 0.2004(6) 0.2864(2)
H10_2 H 0.3417 0.1527 0.2738
C25_2 C 0.28584(18) 0.3619(7) 0.1508(3)
H20_2 H 0.3022 0.3481 0.1180
C27_2 C 0.2842(2) 0.4112(8) 0.2524(3)
H22_2 H 0.2996 0.4340 0.2885
C28_2 C 0.2367(2) 0.4002(10) 0.2471(4)
H23_2 H 0.2202 0.4141 0.2798
N7_2 N 0.58823(10) 0.7333(3) 0.01803(12)
N3_3 N 0.22881(12) 0.1231(5) 0.52983(17)
C19_3 C 0.20193(15) 0.2458(7) 0.4987(2)
H12_3 H 0.1961 0.3327 0.5252
H13_3 H 0.1725 0.2013 0.4840
C21_3 C 0.20527(18) 0.0559(7) 0.5774(2)
H14_3 H 0.1954 0.1425 0.6017
C22_3 C 0.22656(16) 0.3108(8) 0.4484(2)
H16_3 H 0.2310 0.2255 0.4207
H17_3 H 0.2081 0.3941 0.4285
H19_3 H 0.1188 0.0493 0.6078
N5_3 N 0.27119(12) 0.3769(5) 0.47017(17)
C29_3 C 0.37124(13) 0.7518(6) 0.50280(18)
H24_3 H 0.3682 0.8312 0.5307
C30_3 C 0.29807(15) 0.2542(7) 0.5013(2)
H25_3 H 0.3039 0.1673 0.4748
H26_3 H 0.3275 0.2987 0.5160
C31_2 C 0.33632(15) 0.5436(6) 0.44426(17)
C32_3 C 0.29473(18) 0.4441(7) 0.4226(2)
H27_3 H 0.3046 0.3575 0.3983
H28_2 H 0.2734 0.5111 0.3987
C33_3 C 0.27344(16) 0.1892(8) 0.5516(2)
H29_3 H 0.2690 0.2745 0.5793
H30_3 H 0.2919 0.1059 0.5715
C34_2 C 0.41447(17) 0.6206(6) 0.4417(3)
H31_2 H 0.4427 0.6043 0.4264
C35_2 C 0.37774(18) 0.5261(8) 0.4214(3)
H32_3 H 0.3812 0.4507 0.3922
C36_2 C 0.33318(15) 0.6607(7) 0.4857(2)
H33_3 H 0.3055 0.6783 0.5021
O6_2 O 0.00321(9) 0.2943(3) 0.92084(11)
Co1_2 Co 0.033267(13) 0.61694(5) 0.495843(17)
O1_3 O 0.01352(8) 0.2623(3) 0.45916(12)
O3_3 O 0.06770(9) 0.4504(3) 0.45204(11)
N1_3 N 0.08823(10) 0.7667(3) 0.51803(12)
C1_3 C 0.07687(11) 0.2002(4) 0.40599(14)
C3_3 C 0.06297(13) 0.0419(5) 0.39873(16)
H2_3 H 0.0387 0.0031 0.4185
C6_3 C 0.11398(13) 0.2537(5) 0.37727(17)
H3_3 H 0.1242 0.3588 0.3829
C10_3 C 0.05100(11) 0.3127(4) 0.44222(14)
C11_3 C 0.13604(14) 0.1545(6) 0.34045(19)
H7_3 H 0.1609 0.1925 0.3215
C18_3 C 0.12876(13) 0.7482(6) 0.49720(18)
H11_3 H 0.1318 0.6688 0.4693
C20_3 C 0.16368(15) 0.9564(6) 0.55574(17)
H15_3 H 0.2266 0.9889 0.6013
C23_3 C 0.08553(17) 0.8794(6) 0.5583(3)
H18_3 H 0.0573 0.8957 0.5736
C24_3 C 0.12226(18) 0.9739(8) 0.5786(3)
C26_3 C 0.16682(15) 0.8393(7) 0.5143(2)
H21_3 H 0.1945 0.8217 0.4979
O9_2 O 0.00321(9) 0.7057(3) 0.42084(11)
O12_2 O 0.05006(10) 0.4840(3) 0.57102(11)
Co4_2 Co 0.966733(13) 0.61694(5) 0.004157(17)
O5_3 O 0.98648(8) 0.7377(3) 0.54084(12)
O7_3 O 0.93230(9) 0.5496(3) 0.54796(11)
C37_3 C 0.92313(11) 0.7998(4) 0.59401(14)
C39_3 C 0.93703(13) 0.9581(5) 0.60127(16)
H35_3 H 0.9613 0.9969 0.5815
C42_3 C 0.88602(13) 0.7463(5) 0.62273(17)
H36_3 H 0.8758 0.6412 0.6171
C46_3 C 0.94900(11) 0.6873(4) 0.55778(14)
C47_3 C 0.86396(14) 0.8455(6) 0.65955(19)
H40_3 H 0.8391 0.8075 0.6785
O10_2 O 0.99679(9) 0.2943(3) 0.57916(11)
O11_2 O 0.94994(10) 0.5160(3) 0.42898(11)
O2_2 O 0.99679(9) 0.7057(3) 0.07916(11)
N6_3 N 0.14206(12) 0.1015(5) 0.79112(16)
C38_3 C 0.2861(2) 0.1304(8) 0.8054(5)
H34_3 H 0.3179 0.1421 0.8084
C40_3 C 0.12096(13) 0.0019(5) 0.83180(16)
C41_3 C 0.03431(13) 0.3630(4) 0.59541(15)
C43_3 C 0.08518(14) 0.0593(5) 0.86202(18)
H37_3 H 0.0760 0.1659 0.8577
C44_3 C 0.2623(2) 0.1443(8) 0.8541(4)
H38_3 H 0.2781 0.1579 0.8905
C45_3 C 0.07280(14) 0.1012(5) 0.72442(18)
H39_3 H 0.0620 0.0129 0.7440
C48_3 C 0.04670(13) 0.1647(5) 0.67787(16)
H41_3 H 0.0183 0.1188 0.6663
C49_3 C 0.06188(13) 0.2972(5) 0.64745(16)
C50_3 C 0.19113(14) 0.1115(6) 0.7953(2)
C51_3 C 0.11526(13) 0.1671(6) 0.74282(17)
C52_3 C 0.10436(16) 0.3621(5) 0.66566(19)
H42_3 H 0.1156 0.4486 0.6455
C53_3 C 0.13041(15) 0.2996(6) 0.7136(2)
H43_3 H 0.1583 0.3473 0.7262
C54_3 C 0.21416(18) 0.1381(7) 0.8492(3)
H44_3 H 0.1978 0.1519 0.8820
C55_3 C 0.2158(2) 0.0888(8) 0.7476(3)
H45_3 H 0.2004 0.0660 0.7115
C56_3 C 0.2633(2) 0.0998(10) 0.7529(4)
H46_3 H 0.2798 0.0859 0.7202
O5_4 O 0.01352(8) 0.7377(3) 0.95916(12)
O7_4 O 0.06770(9) 0.5496(3) 0.95204(11)
C37_4 C 0.07687(11) 0.7998(4) 0.90599(14)
C39_4 C 0.06297(13) 0.9581(5) 0.89873(16)
H35_4 H 0.0387 0.9969 0.9185
C42_4 C 0.11398(13) 0.7463(5) 0.87727(17)
H36_4 H 0.1242 0.6412 0.8829
C46_4 C 0.05100(11) 0.6873(4) 0.94222(14)
C47_4 C 0.13604(14) 0.8455(6) 0.84045(19)
H40_4 H 0.1609 0.8075 0.8215
C19_4 C 0.79807(15) 0.2458(7) 0.0013(2)
H13_4 H 0.8275 0.2013 0.0160
C22_4 C 0.77344(16) 0.3108(8) 0.0516(2)
H16_4 H 0.7690 0.2255 0.0793
H17_4 H 0.7919 0.3941 0.0715
N5_4 N 0.72881(12) 0.3769(5) 0.02983(17)
H25_4 H 0.6961 0.1673 0.0252
C31_3 C 0.66368(15) 0.5436(6) 0.05574(17)
C32_4 C 0.70527(18) 0.4441(7) 0.0774(2)
H27_4 H 0.6954 0.3575 0.1017
H28_3 H 0.7266 0.5111 0.1013
C34_3 C 0.58553(17) 0.6206(6) 0.0583(3)
H31_3 H 0.5573 0.6043 0.0736
C35_3 C 0.62226(18) 0.5261(8) 0.0786(3)
H32_4 H 0.6188 0.4507 0.1078
C36_3 C 0.66682(15) 0.6607(7) 0.0143(2)
N3_4 N 0.77119(12) 0.1231(5) 0.97017(17)
H12_4 H 0.8039 0.3327 0.9748
C21_4 C 0.79473(18) 0.0559(7) 0.9226(2)
H14_4 H 0.8046 0.1425 0.8983
H19_4 H 0.8812 0.0493 0.8922
C29_4 C 0.62876(13) 0.7518(6) 0.99720(18)
H24_4 H 0.6318 0.8312 0.9693
C30_4 C 0.70193(15) 0.2542(7) 0.9987(2)
H26_4 H 0.6725 0.2987 0.9840
C33_4 C 0.72656(16) 0.1892(8) 0.9484(2)
H29_4 H 0.7310 0.2745 0.9207
H30_4 H 0.7081 0.1059 0.9285
H33_4 H 0.6945 0.6783 0.9979
O1_4 O 0.98648(8) 0.2623(3) 0.04084(12)
O3_4 O 0.93230(9) 0.4504(3) 0.04796(11)
C1_4 C 0.92313(11) 0.2002(4) 0.09401(14)
C3_4 C 0.93703(13) 0.0419(5) 0.10127(16)
H2_4 H 0.9613 0.0031 0.0815
C6_4 C 0.88602(13) 0.2537(5) 0.12273(17)
H3_4 H 0.8758 0.3588 0.1171
C10_4 C 0.94900(11) 0.3127(4) 0.05778(14)
C11_4 C 0.86396(14) 0.1545(6) 0.15955(19)
H7_4 H 0.8391 0.1925 0.1785
C18_4 C 0.87124(13) 0.7482(6) 0.00280(18)
H11_4 H 0.8682 0.6688 0.0307
H21_4 H 0.8055 0.8217 0.0021
N2_3 N 0.85794(12) 0.8985(5) 0.20888(16)
C2_3 C 0.7139(2) 0.8696(8) 0.1946(5)
H1_3 H 0.6821 0.8579 0.1916
C4_3 C 0.87904(13) 0.9981(5) 0.16820(16)
C5_3 C 0.96569(13) 0.6370(4) 0.40459(15)
C7_3 C 0.91482(14) 0.9407(5) 0.13798(18)
H4_3 H 0.9240 0.8341 0.1423
C8_3 C 0.7377(2) 0.8557(8) 0.1459(4)
H5_3 H 0.7219 0.8421 0.1095
C9_3 C 0.92720(14) 0.8988(5) 0.27558(18)
H6_3 H 0.9380 0.9871 0.2560
C12_3 C 0.95330(13) 0.8353(5) 0.32213(16)
H8_3 H 0.9817 0.8812 0.3337
C13_3 C 0.93812(13) 0.7028(5) 0.35255(16)
C14_3 C 0.80887(14) 0.8885(6) 0.2047(2)
C15_3 C 0.88474(13) 0.8329(6) 0.25718(17)
C16_3 C 0.89564(16) 0.6379(5) 0.33434(19)
H9_3 H 0.8844 0.5514 0.3545
C17_3 C 0.86959(15) 0.7004(6) 0.2864(2)
H10_3 H 0.8417 0.6527 0.2738
C25_3 C 0.78584(18) 0.8619(7) 0.1508(3)
H20_3 H 0.8022 0.8481 0.1180
C27_3 C 0.7842(2) 0.9112(8) 0.2524(3)
H22_3 H 0.7996 0.9340 0.2885
C28_3 C 0.7367(2) 0.9002(10) 0.2471(4)
H23_3 H 0.7202 0.9141 0.2798
N4_2 N 0.08823(10) 0.2333(3) 0.01803(12)
C31_4 C 0.16368(15) 0.0436(6) 0.05574(17)
H28_4 H 0.2266 0.0111 0.1013
C34_4 C 0.08553(17) 0.1206(6) 0.0583(3)
H31_4 H 0.0573 0.1043 0.0736
C35_4 C 0.12226(18) 0.0261(8) 0.0786(3)
C36_4 C 0.16682(15) 0.1607(7) 0.0143(2)
O4_2 O 0.05006(10) 0.5160(3) 0.07102(11)
N2_4 N 0.14206(12) 0.8985(5) 0.29112(16)
C2_4 C 0.2861(2) 0.8696(8) 0.3054(5)
H1_4 H 0.3179 0.8579 0.3084
C4_4 C 0.12096(13) 0.9981(5) 0.33180(16)
C5_4 C 0.03431(13) 0.6370(4) 0.09541(15)
C7_4 C 0.08518(14) 0.9407(5) 0.36202(18)
H4_4 H 0.0760 0.8341 0.3577
C8_4 C 0.2623(2) 0.8557(8) 0.3541(4)
H5_4 H 0.2781 0.8421 0.3905
C9_4 C 0.07280(14) 0.8988(5) 0.22442(18)
H6_4 H 0.0620 0.9871 0.2440
C12_4 C 0.04670(13) 0.8353(5) 0.17787(16)
H8_4 H 0.0183 0.8812 0.1663
C13_4 C 0.06188(13) 0.7028(5) 0.14745(16)
C14_4 C 0.19113(14) 0.8885(6) 0.2953(2)
C15_4 C 0.11526(13) 0.8329(6) 0.24282(17)
C16_4 C 0.10436(16) 0.6379(5) 0.16566(19)
H9_4 H 0.1156 0.5514 0.1455
C17_4 C 0.13041(15) 0.7004(6) 0.2136(2)
H10_4 H 0.1583 0.6527 0.2262
C25_4 C 0.21416(18) 0.8619(7) 0.3492(3)
H20_4 H 0.1978 0.8481 0.3820
C27_4 C 0.2158(2) 0.9112(8) 0.2476(3)
H22_4 H 0.2004 0.9340 0.2115
C28_4 C 0.2633(2) 0.9002(10) 0.2529(4)
H23_4 H 0.2798 0.9141 0.2202
O8_2 O 0.94994(10) 0.4840(3) 0.92898(11)
N6_4 N 0.85794(12) 0.1015(5) 0.70888(16)
C38_4 C 0.7139(2) 0.1304(8) 0.6946(5)
H34_4 H 0.6821 0.1421 0.6916
C40_4 C 0.87904(13) 0.0019(5) 0.66820(16)
C41_4 C 0.96569(13) 0.3630(4) 0.90459(15)
C43_4 C 0.91482(14) 0.0593(5) 0.63798(18)
H37_4 H 0.9240 0.1659 0.6423
C44_4 C 0.7377(2) 0.1443(8) 0.6459(4)
H38_4 H 0.7219 0.1579 0.6095
C45_4 C 0.92720(14) 0.1012(5) 0.77558(18)
H39_4 H 0.9380 0.0129 0.7560
C48_4 C 0.95330(13) 0.1647(5) 0.82213(16)
H41_4 H 0.9817 0.1188 0.8337
C49_4 C 0.93812(13) 0.2972(5) 0.85255(16)
C50_4 C 0.80887(14) 0.1115(6) 0.7047(2)
C51_4 C 0.88474(13) 0.1671(6) 0.75718(17)
C52_4 C 0.89564(16) 0.3621(5) 0.83434(19)
H42_4 H 0.8844 0.4486 0.8545
C53_4 C 0.86959(15) 0.2996(6) 0.7864(2)
H43_4 H 0.8417 0.3473 0.7738
C54_4 C 0.78584(18) 0.1381(7) 0.6508(3)
H44_4 H 0.8022 0.1519 0.6180
C55_4 C 0.7842(2) 0.0888(8) 0.7524(3)
H45_4 H 0.7996 0.0660 0.7885
C56_4 C 0.7367(2) 0.0998(10) 0.7471(4)
H46_4 H 0.7202 0.0859 0.7798
N1_4 N 0.91177(10) 0.7667(3) 0.98197(12)
C20_4 C 0.83632(15) 0.9564(6) 0.94426(17)
H15_4 H 0.7734 0.9889 0.8987
C23_4 C 0.91447(17) 0.8794(6) 0.9417(3)
H18_4 H 0.9427 0.8957 0.9264
C24_4 C 0.87774(18) 0.9739(8) 0.9214(3)
C26_4 C 0.83318(15) 0.8393(7) 0.9857(2)
loop_
_geom_bond_atom_site_label_1
_geom_bond_atom_site_label_2
_geom_bond_site_symmetry_1
_geom_bond_site_symmetry_2
N4 C29 1_555 1_555
C29 H24 1_555 1_555
C34 N4 1_555 1_555
H31 C34 1_555 1_555
C35 C31 1_555 1_555
C36 C29 1_555 1_555
H33 C36 1_555 1_555
Co7 N4 1_555 1_555
C31 C36 1_555 1_555
C34 C35 1_555 1_555
N1 Co1 1_555 1_555
N3 C19 1_555 1_555
C18 N1 1_555 1_555
H11 C18 1_555 1_555
C19 H12 1_555 1_555
H13 C19 1_555 1_555
C20 C21 1_555 1_555
C21 N3 1_555 1_555
H14 C21 1_555 1_555
H15 C21 1_555 1_555
C22 C19 1_555 1_555
H16 C22 1_555 1_555
H17 C22 1_555 1_555
C23 N1 1_555 1_555
H18 C23 1_555 1_555
C24 C20 1_555 1_555
H19 C24 1_555 1_555
C26 C18 1_555 1_555
H21 C26 1_555 1_555
N5 C22 1_555 1_555
C30 N5 1_555 1_555
H25 C30 1_555 1_555
H26 C30 1_555 1_555
C32 N5 1_555 1_555
H27 C32 1_555 1_555
C33 N3 1_555 1_555
H29 C33 1_555 1_555
H30 C33 1_555 1_555
O5 Co1 1_555 1_555
O6 C41 1_555 1_555
O8 C41 1_555 1_555
N6 C40 1_555 1_555
C37 C39 1_555 1_555
C38 H34 1_555 1_555
C39 H35 1_555 1_555
C40 C43 1_555 1_555
C41 C49 1_555 1_555
C42 C37 1_555 1_555
H36 C42 1_555 1_555
C43 C39 1_555 1_555
H37 C43 1_555 1_555
C44 C38 1_555 1_555
H38 C44 1_555 1_555
C45 H39 1_555 1_555
C46 O5 1_555 1_555
C47 C40 1_555 1_555
H40 C47 1_555 1_555
C48 C45 1_555 1_555
H41 C48 1_555 1_555
C49 C48 1_555 1_555
C50 N6 1_555 1_555
C51 N6 1_555 1_555
C52 C49 1_555 1_555
H42 C52 1_555 1_555
C53 C51 1_555 1_555
H43 C53 1_555 1_555
C54 C44 1_555 1_555
H44 C54 1_555 1_555
C55 C50 1_555 1_555
H45 C55 1_555 1_555
C56 C38 1_555 1_555
H46 C56 1_555 1_555
Co6 O6 1_555 1_555
O9 Co1 1_555 1_555
C20 C26 1_555 1_555
C23 C24 1_555 1_555
C30 C33 1_555 1_555
O7 C46 1_555 1_555
C37 C46 1_555 1_555
C42 C47 1_555 1_555
C45 C51 1_555 1_555
C50 C54 1_555 1_555
C52 C53 1_555 1_555
C55 C56 1_555 1_555
O1 C10 1_555 1_555
O2 C5 1_555 1_555
O3 C10 1_555 1_555
O4 C5 1_555 1_555
N2 C4 1_555 1_555
C1 C3 1_555 1_555
C2 H1 1_555 1_555
C3 H2 1_555 1_555
C4 C7 1_555 1_555
C5 C13 1_555 1_555
C6 C1 1_555 1_555
H3 C6 1_555 1_555
C7 C3 1_555 1_555
H4 C7 1_555 1_555
C8 C2 1_555 1_555
H5 C8 1_555 1_555
C9 H6 1_555 1_555
C10 C1 1_555 1_555
C11 C4 1_555 1_555
H7 C11 1_555 1_555
C12 C9 1_555 1_555
H8 C12 1_555 1_555
C13 C12 1_555 1_555
C14 N2 1_555 1_555
C15 N2 1_555 1_555
C16 C13 1_555 1_555
H9 C16 1_555 1_555
C17 C15 1_555 1_555
H10 C17 1_555 1_555
C25 C8 1_555 1_555
H20 C25 1_555 1_555
C27 C14 1_555 1_555
H22 C27 1_555 1_555
C28 C2 1_555 1_555
H23 C28 1_555 1_555
Co4 O2 1_555 1_555
O10 Co2 1_555 1_555
N7 Co2 1_555 1_555
O1 Co2 1_555 1_555
C6 C11 1_555 1_555
C9 C15 1_555 1_555
C14 C25 1_555 1_555
C16 C17 1_555 1_555
C27 C28 1_555 1_555
C29_2 H24_2 1_555 1_555
H11_2 C18_2 1_555 1_555
H13_2 C19_2 1_555 1_555
C22_2 C19_2 1_555 1_555
H16_2 C22_2 1_555 1_555
H17_2 C22_2 1_555 1_555
N5_2 C22_2 1_555 1_555
C32_2 N5_2 1_555 1_555
H27_2 C32_2 1_555 1_555
C20_2 C21_2 1_555 1_555
C21_2 N3_2 1_555 1_555
H14_2 C21_2 1_555 1_555
H15_2 C21_2 1_555 1_555
C23_2 N1_2 1_555 1_555
H18_2 C23_2 1_555 1_555
C24_2 C20_2 1_555 1_555
H19_2 C24_2 1_555 1_555
H26_2 C30_2 1_555 1_555
C33_2 N3_2 1_555 1_555
H29_2 C33_2 1_555 1_555
H30_2 C33_2 1_555 1_555
O10 C41_2 1_555 1_555
O12 C41_2 1_555 1_555
N6_2 C40_2 1_555 1_555
C37_2 C39_2 1_555 1_555
C38_2 H34_2 1_555 1_555
C39_2 H35_2 1_555 1_555
C40_2 C43_2 1_555 1_555
C41_2 C49_2 1_555 1_555
C42_2 C37_2 1_555 1_555
H36_2 C42_2 1_555 1_555
C43_2 C39_2 1_555 1_555
H37_2 C43_2 1_555 1_555
C44_2 C38_2 1_555 1_555
H38_2 C44_2 1_555 1_555
C45_2 H39_2 1_555 1_555
C46_2 O5_2 1_555 1_555
C47_2 C40_2 1_555 1_555
H40_2 C47_2 1_555 1_555
C48_2 C45_2 1_555 1_555
H41_2 C48_2 1_555 1_555
C49_2 C48_2 1_555 1_555
C50_2 N6_2 1_555 1_555
C51_2 N6_2 1_555 1_555
C52_2 C49_2 1_555 1_555
H42_2 C52_2 1_555 1_555
C53_2 C51_2 1_555 1_555
H43_2 C53_2 1_555 1_555
C54_2 C44_2 1_555 1_555
H44_2 C54_2 1_555 1_555
C55_2 C50_2 1_555 1_555
H45_2 C55_2 1_555 1_555
C56_2 C38_2 1_555 1_555
H46_2 C56_2 1_555 1_555
C20_2 C26_2 1_555 1_555
C23_2 C24_2 1_555 1_555
C30_2 C33_2 1_555 1_555
O7_2 C46_2 1_555 1_555
C37_2 C46_2 1_555 1_555
C42_2 C47_2 1_555 1_555
C45_2 C51_2 1_555 1_555
C50_2 C54_2 1_555 1_555
C52_2 C53_2 1_555 1_555
C55_2 C56_2 1_555 1_555
O1_2 C10_2 1_555 1_555
O9 C5_2 1_555 1_555
O3_2 C10_2 1_555 1_555
O11 C5_2 1_555 1_555
N2_2 C4_2 1_555 1_555
C1_2 C3_2 1_555 1_555
C2_2 H1_2 1_555 1_555
C3_2 H2_2 1_555 1_555
C4_2 C7_2 1_555 1_555
C5_2 C13_2 1_555 1_555
C6_2 C1_2 1_555 1_555
H3_2 C6_2 1_555 1_555
C7_2 C3_2 1_555 1_555
H4_2 C7_2 1_555 1_555
C8_2 C2_2 1_555 1_555
H5_2 C8_2 1_555 1_555
C9_2 H6_2 1_555 1_555
C10_2 C1_2 1_555 1_555
C11_2 C4_2 1_555 1_555
H7_2 C11_2 1_555 1_555
C12_2 C9_2 1_555 1_555
H8_2 C12_2 1_555 1_555
C13_2 C12_2 1_555 1_555
C14_2 N2_2 1_555 1_555
C15_2 N2_2 1_555 1_555
C16_2 C13_2 1_555 1_555
H9_2 C16_2 1_555 1_555
C17_2 C15_2 1_555 1_555
H10_2 C17_2 1_555 1_555
C25_2 C8_2 1_555 1_555
H20_2 C25_2 1_555 1_555
C27_2 C14_2 1_555 1_555
H22_2 C27_2 1_555 1_555
C28_2 C2_2 1_555 1_555
H23_2 C28_2 1_555 1_555
C6_2 C11_2 1_555 1_555
C9_2 C15_2 1_555 1_555
C14_2 C25_2 1_555 1_555
C16_2 C17_2 1_555 1_555
C27_2 C28_2 1_555 1_555
N3_3 C19_3 1_555 1_555
C19_3 H12_3 1_555 1_555
H13_3 C19_3 1_555 1_555
C21_3 N3_3 1_555 1_555
H14_3 C21_3 1_555 1_555
C22_3 C19_3 1_555 1_555
H16_3 C22_3 1_555 1_555
H17_3 C22_3 1_555 1_555
N7 C29_3 1_555 1_555
N5_3 C22_3 1_555 1_555
C29_3 H24_3 1_555 1_555
C30_3 N5_3 1_555 1_555
H25_3 C30_3 1_555 1_555
H26_3 C30_3 1_555 1_555
C31_2 C32_3 1_555 1_555
C32_3 N5_3 1_555 1_555
H27_3 C32_3 1_555 1_555
H28_2 C32_3 1_555 1_555
C33_3 N3_3 1_555 1_555
H29_3 C33_3 1_555 1_555
H30_3 C33_3 1_555 1_555
C34_2 N7 1_555 1_555
H31_2 C34_2 1_555 1_555
C35_2 C31_2 1_555 1_555
H32_3 C35_2 1_555 1_555
C36_2 C29_3 1_555 1_555
H33_3 C36_2 1_555 1_555
Co7_2 O6_2 1_555 1_555
C30_3 C33_3 1_555 1_555
C31_2 C36_2 1_555 1_555
C34_2 C35_2 1_555 1_555
Co1_2 O3_3 1_555 1_555
O1_3 C10_3 1_555 1_555
O3_3 C10_3 1_555 1_555
N1_3 Co1_2 1_555 1_555
C1_3 C3_3 1_555 1_555
C3_3 H2_3 1_555 1_555
C6_3 C1_3 1_555 1_555
H3_3 C6_3 1_555 1_555
C10_3 C1_3 1_555 1_555
H7_3 C11_3 1_555 1_555
C18_3 N1_3 1_555 1_555
H11_3 C18_3 1_555 1_555
C23_3 N1_3 1_555 1_555
H18_3 C23_3 1_555 1_555
C24_3 C20_3 1_555 1_555
C26_3 C18_3 1_555 1_555
H21_3 C26_3 1_555 1_555
O9_2 Co1_2 1_555 1_555
O12_2 Co1_2 1_555 1_555
C6_3 C11_3 1_555 1_555
C20_3 C26_3 1_555 1_555
C23_3 C24_3 1_555 1_555
O7_3 Co7 1_555 1_555
C37_3 C39_3 1_555 1_555
C39_3 H35_3 1_555 1_555
C42_3 C37_3 1_555 1_555
H36_3 C42_3 1_555 1_555
C46_3 O5_3 1_555 1_555
H40_3 C47_3 1_555 1_555
O10_2 Co7 1_555 1_555
O11_2 Co7 1_555 1_555
O7_3 C46_3 1_555 1_555
C37_3 C46_3 1_555 1_555
C42_3 C47_3 1_555 1_555
Co4_2 O2_2 1_555 1_555
O12_2 C41_3 1_555 1_555
N6_3 C40_3 1_555 1_555
C38_3 H34_3 1_555 1_555
C40_3 C43_3 1_555 1_555
C41_3 C49_3 1_555 1_555
H37_3 C43_3 1_555 1_555
C44_3 C38_3 1_555 1_555
H38_3 C44_3 1_555 1_555
C45_3 H39_3 1_555 1_555
C48_3 C45_3 1_555 1_555
H41_3 C48_3 1_555 1_555
C49_3 C48_3 1_555 1_555
C50_3 N6_3 1_555 1_555
C51_3 N6_3 1_555 1_555
C52_3 C49_3 1_555 1_555
H42_3 C52_3 1_555 1_555
C53_3 C51_3 1_555 1_555
H43_3 C53_3 1_555 1_555
C54_3 C44_3 1_555 1_555
H44_3 C54_3 1_555 1_555
C55_3 C50_3 1_555 1_555
H45_3 C55_3 1_555 1_555
C56_3 C38_3 1_555 1_555
H46_3 C56_3 1_555 1_555
C45_3 C51_3 1_555 1_555
C50_3 C54_3 1_555 1_555
C52_3 C53_3 1_555 1_555
C55_3 C56_3 1_555 1_555
O7_4 Co7_2 1_555 1_555
C37_4 C39_4 1_555 1_555
C39_4 H35_4 1_555 1_555
C42_4 C37_4 1_555 1_555
H36_4 C42_4 1_555 1_555
C46_4 O5_4 1_555 1_555
H40_4 C47_4 1_555 1_555
O7_4 C46_4 1_555 1_555
C37_4 C46_4 1_555 1_555
C42_4 C47_4 1_555 1_555
H13_4 C19_4 1_555 1_555
C22_4 C19_4 1_555 1_555
H16_4 C22_4 1_555 1_555
H17_4 C22_4 1_555 1_555
N5_4 C22_4 1_555 1_555
C31_3 C32_4 1_555 1_555
C32_4 N5_4 1_555 1_555
H27_4 C32_4 1_555 1_555
H28_3 C32_4 1_555 1_555
C34_3 N7_2 1_555 1_555
H31_3 C34_3 1_555 1_555
C35_3 C31_3 1_555 1_555
H32_4 C35_3 1_555 1_555
C31_3 C36_3 1_555 1_555
C34_3 C35_3 1_555 1_555
C21_4 N3_4 1_555 1_555
H14_4 C21_4 1_555 1_555
C29_4 H24_4 1_555 1_555
H26_4 C30_4 1_555 1_555
C33_4 N3_4 1_555 1_555
H29_4 C33_4 1_555 1_555
H30_4 C33_4 1_555 1_555
C30_4 C33_4 1_555 1_555
Co4_2 O3_4 1_555 1_555
O1_4 C10_4 1_555 1_555
O3_4 C10_4 1_555 1_555
C1_4 C3_4 1_555 1_555
C3_4 H2_4 1_555 1_555
C6_4 C1_4 1_555 1_555
H3_4 C6_4 1_555 1_555
C10_4 C1_4 1_555 1_555
H7_4 C11_4 1_555 1_555
H11_4 C18_4 1_555 1_555
C6_4 C11_4 1_555 1_555
O11_2 C5_3 1_555 1_555
N2_3 C4_3 1_555 1_555
C2_3 H1_3 1_555 1_555
C4_3 C7_3 1_555 1_555
C5_3 C13_3 1_555 1_555
H4_3 C7_3 1_555 1_555
C8_3 C2_3 1_555 1_555
H5_3 C8_3 1_555 1_555
C9_3 H6_3 1_555 1_555
C12_3 C9_3 1_555 1_555
H8_3 C12_3 1_555 1_555
C13_3 C12_3 1_555 1_555
C14_3 N2_3 1_555 1_555
C15_3 N2_3 1_555 1_555
C16_3 C13_3 1_555 1_555
H9_3 C16_3 1_555 1_555
C17_3 C15_3 1_555 1_555
H10_3 C17_3 1_555 1_555
C25_3 C8_3 1_555 1_555
H20_3 C25_3 1_555 1_555
C27_3 C14_3 1_555 1_555
H22_3 C27_3 1_555 1_555
C28_3 C2_3 1_555 1_555
H23_3 C28_3 1_555 1_555
C9_3 C15_3 1_555 1_555
C14_3 C25_3 1_555 1_555
C16_3 C17_3 1_555 1_555
C27_3 C28_3 1_555 1_555
C34_4 N4_2 1_555 1_555
H31_4 C34_4 1_555 1_555
C35_4 C31_4 1_555 1_555
C31_4 C36_4 1_555 1_555
C34_4 C35_4 1_555 1_555
O4_2 C5_4 1_555 1_555
N2_4 C4_4 1_555 1_555
C2_4 H1_4 1_555 1_555
C4_4 C7_4 1_555 1_555
C5_4 C13_4 1_555 1_555
H4_4 C7_4 1_555 1_555
C8_4 C2_4 1_555 1_555
H5_4 C8_4 1_555 1_555
C9_4 H6_4 1_555 1_555
C12_4 C9_4 1_555 1_555
H8_4 C12_4 1_555 1_555
C13_4 C12_4 1_555 1_555
C14_4 N2_4 1_555 1_555
C15_4 N2_4 1_555 1_555
C16_4 C13_4 1_555 1_555
H9_4 C16_4 1_555 1_555
C17_4 C15_4 1_555 1_555
H10_4 C17_4 1_555 1_555
C25_4 C8_4 1_555 1_555
H20_4 C25_4 1_555 1_555
C27_4 C14_4 1_555 1_555
H22_4 C27_4 1_555 1_555
C28_4 C2_4 1_555 1_555
H23_4 C28_4 1_555 1_555
C9_4 C15_4 1_555 1_555
C14_4 C25_4 1_555 1_555
C16_4 C17_4 1_555 1_555
C27_4 C28_4 1_555 1_555
O8_2 C41_4 1_555 1_555
N6_4 C40_4 1_555 1_555
C38_4 H34_4 1_555 1_555
C40_4 C43_4 1_555 1_555
C41_4 C49_4 1_555 1_555
H37_4 C43_4 1_555 1_555
C44_4 C38_4 1_555 1_555
H38_4 C44_4 1_555 1_555
C45_4 H39_4 1_555 1_555
C48_4 C45_4 1_555 1_555
H41_4 C48_4 1_555 1_555
C49_4 C48_4 1_555 1_555
C50_4 N6_4 1_555 1_555
C51_4 N6_4 1_555 1_555
C52_4 C49_4 1_555 1_555
H42_4 C52_4 1_555 1_555
C53_4 C51_4 1_555 1_555
H43_4 C53_4 1_555 1_555
C54_4 C44_4 1_555 1_555
H44_4 C54_4 1_555 1_555
C55_4 C50_4 1_555 1_555
H45_4 C55_4 1_555 1_555
C56_4 C38_4 1_555 1_555
H46_4 C56_4 1_555 1_555
C45_4 C51_4 1_555 1_555
C50_4 C54_4 1_555 1_555
C52_4 C53_4 1_555 1_555
C55_4 C56_4 1_555 1_555
C23_4 N1_4 1_555 1_555
H18_4 C23_4 1_555 1_555
C24_4 C20_4 1_555 1_555
C20_4 C26_4 1_555 1_555
C23_4 C24_4 1_555 1_555

#END
