
###############################################################################
#
# This file contains modified crystal structure data generated from the
# MOF subset of the Cambridge Structural Database (CSD) v543 
# hosted by the Cambridge Crystallographic Data Centre (CCDC).
#
# This work is licensed under the Creative Commons
# Attribution-NonCommercial-ShareAlike 4.0 International License.
# To view a copy of this license, visit
# http://creativecommons.org/licenses/by-nc-sa/4.0/
# or send a letter to
# Creative Commons, PO Box 1866, Mountain View, CA 94042, USA.
#
# CIF created using the CSD Python API on 29 September 2022
# The structure has been converted into the P1 space group
# The structure has a 3D framework
# The original CSD entry WEZCIO is in the hexagonal crystal system
# The framework has been calculated to contain at least 10.0% void space
# The void calculation uses a probe of radius 1.32A, grid spacing 0.4
#
###############################################################################

data_WEZCIO
_chemical_formula_moiety         '(C48 H72 Co15 La4 O78)n'
_symmetry_cell_setting           triclinic
_symmetry_space_group_name_H-M   'P 1'
_symmetry_Int_Tables_number      1
_space_group_name_Hall           'P 1'
loop_
_symmetry_equiv_pos_site_id
_symmetry_equiv_pos_as_xyz
1 x,y,z
_cell_length_a                   15.3090(5)
_cell_length_b                   15.3090(5)
_cell_length_c                   15.1797(6)
_cell_angle_alpha                90
_cell_angle_beta                 90
_cell_angle_gamma                120
_cell_volume                     3080.97
loop_
_atom_site_label
_atom_site_type_symbol
_atom_site_fract_x
_atom_site_fract_y
_atom_site_fract_z
Co9 Co -0.00000 0.50000 0.50000
La9 La 0.66666 0.33333 0.25000
Co3 Co 0.50000 0.00000 0.00000
Co6 Co 0.50000 -0.00000 0.50000
Co15 Co 0.50000 0.50000 0.50000
O9 O 0.6451(3) 0.1361(4) 0.00000
O15 O 0.4910(3) 0.1361(4) 0.50000
O26 O 0.4709(3) 0.23545(34) 0.25000
O53 O 0.4401(2) 0.0517(4) 0.0954(2)
O54 O 0.4401(2) 0.3884(3) 0.4046(2)
O62 O 0.6116(3) 0.0517(4) 0.5954(2)
O63 O 0.6116(3) 0.0517(4) 0.4046(2)
O85 O 0.5743(2) 0.1931(3) 0.14180(19)
O86 O 0.5743(2) 0.3812(2) 0.35820(19)
C24 C 0.4812(3) 0.1288(4) 0.1413(3)
C25 C 0.4812(3) 0.3524(3) 0.3587(3)
C47 C 0.4133(4) 0.1468(6) 0.2000(4)
C48 C 0.4133(4) 0.2665(4) 0.3000(4)
H14 H 0.61710 0.13910 0.04740
H25 H 0.52200 0.13910 0.54740
H26 H 0.52200 0.13910 0.45260
H48 H 0.36430 0.15370 0.16470
H49 H 0.36430 0.21060 0.33530
H71 H 0.37700 0.08960 0.23920
H72 H 0.37700 0.28740 0.26080
La8 La 0.66667 0.33333 0.75000
Co3_2 Co 0.50000 0.00000 1.00000
O9_2 O 0.6451(3) 0.1361(4) 1.00000
O25 O 0.4709(3) 0.23545(15) 0.75000
O51 O 0.4401(2) 0.0517(4) 0.9046(2)
O52 O 0.4401(2) 0.3884(3) 0.5954(2)
O83 O 0.5743(2) 0.1931(3) 0.85820(19)
O84 O 0.5743(2) 0.3812(2) 0.64180(19)
C22 C 0.4812(3) 0.1288(4) 0.8587(3)
C23 C 0.4812(3) 0.3524(3) 0.6413(3)
C45 C 0.4133(4) 0.1468(6) 0.8000(4)
C46 C 0.4133(4) 0.2665(4) 0.7000(4)
H13 H 0.61710 0.13910 0.95260
H46 H 0.36430 0.15370 0.83530
H47 H 0.36430 0.21060 0.66470
H69 H 0.37700 0.08960 0.76080
H70 H 0.37700 0.28740 0.73920
Co10 Co 0.50000 0.50000 -0.00000
La1 La 0.33333 0.66667 0.25000
O1 O 0.5090(3) 0.6451(3) 0.00000
O2 O 0.23545(15) 0.4709(3) 0.25000
O3 O 0.3884(3) 0.4401(2) 0.0954(2)
O4 O 0.3812(2) 0.5743(2) 0.14180(19)
C1 C 0.3524(3) 0.4812(3) 0.1413(3)
C2 C 0.2665(4) 0.4133(4) 0.2000(4)
H1 H 0.47800 0.61710 0.04740
H2 H 0.21060 0.36430 0.16470
H3 H 0.28740 0.37700 0.23920
La5 La 0.33333 0.66667 0.75000
Co3_3 Co 0.50000 1.00000 0.00000
Co5 Co 0.00000 0.50000 0.00000
Co6_2 Co 0.50000 1.00000 0.50000
Co9_2 Co 1.00000 0.50000 0.50000
Co10_2 Co 0.50000 0.50000 1.00000
O5 O 0.4910(3) 0.3549(3) 0.00000
O6 O 0.1361(4) 0.6451(3) 0.50000
O8 O 0.3549(3) 0.8639(4) 0.00000
O10 O 0.3549(3) 0.4910(3) 0.50000
O11 O 0.6451(3) 0.5090(3) 0.50000
O12 O 0.1361(4) 0.4910(3) 0.00000
O14 O 0.5090(3) 0.8639(4) 0.50000
O16 O 0.5291(3) 0.76455(34) 0.25000
O17 O 0.23545(34) 0.76455(15) 0.25000
O20 O 0.76455(15) 0.5291(3) 0.25000
O21 O 0.23545(15) 0.4709(3) 0.75000
O30 O 0.76455(34) 0.23545(15) 0.25000
O32 O 0.0517(4) 0.4401(2) 0.4046(2)
O33 O 0.5599(2) 0.9483(4) 0.0954(2)
O34 O 0.5599(2) 0.6116(3) 0.4046(2)
O35 O 0.0517(4) 0.6116(3) 0.0954(2)
O36 O 0.3884(3) 0.9483(4) 0.4046(2)
O41 O 0.6116(3) 0.5599(2) 0.0954(2)
O42 O 0.9483(4) 0.5599(2) 0.4046(2)
O43 O 0.0517(4) 0.4401(2) 0.5954(2)
O44 O 0.3884(3) 0.4401(2) 0.9046(2)
O57 O 0.5599(2) 0.6116(3) 0.5954(2)
O61 O 0.3884(3) 0.9483(4) 0.5954(2)
O64 O 0.1931(3) 0.5743(2) 0.35820(19)
O65 O 0.4257(2) 0.8069(3) 0.14180(19)
O66 O 0.4257(2) 0.6188(2) 0.35820(19)
O67 O 0.1931(3) 0.6188(2) 0.14180(19)
O68 O 0.3812(2) 0.8069(3) 0.35820(19)
O73 O 0.6188(2) 0.4257(2) 0.14180(19)
O74 O 0.8069(3) 0.4257(2) 0.35820(19)
O75 O 0.1931(3) 0.5743(2) 0.64180(19)
O76 O 0.3812(2) 0.5743(2) 0.85820(19)
O93 O 0.8069(3) 0.3812(2) 0.14180(19)
O96 O 0.6188(2) 0.1931(3) 0.35820(19)
C3 C 0.1288(4) 0.4812(3) 0.3587(3)
C4 C 0.5188(3) 0.8712(4) 0.1413(3)
C5 C 0.5188(3) 0.6476(3) 0.3587(3)
C6 C 0.1288(4) 0.6476(3) 0.1413(3)
C7 C 0.3524(3) 0.8712(4) 0.3587(3)
C12 C 0.6476(3) 0.5188(3) 0.1413(3)
C13 C 0.8712(4) 0.5188(3) 0.3587(3)
C14 C 0.1288(4) 0.4812(3) 0.6413(3)
C15 C 0.3524(3) 0.4812(3) 0.8587(3)
C26 C 0.1468(6) 0.4133(4) 0.3000(4)
C27 C 0.5867(4) 0.8532(6) 0.2000(4)
C28 C 0.5867(4) 0.7335(4) 0.3000(4)
C29 C 0.1468(6) 0.7335(4) 0.2000(4)
C30 C 0.2665(4) 0.8532(6) 0.3000(4)
C35 C 0.7335(4) 0.5867(4) 0.2000(4)
C36 C 0.8532(6) 0.5867(4) 0.3000(4)
C37 C 0.1468(6) 0.4133(4) 0.7000(4)
C38 C 0.2665(4) 0.4133(4) 0.8000(4)
H6 H 0.52200 0.38290 0.04740
H7 H 0.13910 0.61710 0.45260
H8 H 0.13910 0.61710 0.54740
H11 H 0.38290 0.86090 0.04740
H15 H 0.38290 0.52200 0.45260
H16 H 0.38290 0.52200 0.54740
H17 H 0.61710 0.47800 0.54740
H18 H 0.61710 0.47800 0.45260
H19 H 0.13910 0.52200 0.04740
H23 H 0.47800 0.86090 0.45260
H24 H 0.47800 0.86090 0.54740
H27 H 0.15370 0.36430 0.33530
H28 H 0.63570 0.84630 0.16470
H29 H 0.63570 0.78940 0.33530
H30 H 0.15370 0.78940 0.16470
H31 H 0.21060 0.84630 0.33530
H36 H 0.78940 0.63570 0.16470
H37 H 0.84630 0.63570 0.33530
H38 H 0.15370 0.36430 0.66470
H39 H 0.21060 0.36430 0.83530
H50 H 0.08960 0.37700 0.26080
H51 H 0.62300 0.91040 0.23920
H52 H 0.62300 0.71260 0.26080
H53 H 0.08960 0.71260 0.23920
H54 H 0.28740 0.91040 0.26080
H59 H 0.71260 0.62300 0.23920
H60 H 0.91040 0.62300 0.26080
H61 H 0.08960 0.37700 0.73920
H62 H 0.28740 0.37700 0.76080
O1_2 O 0.5090(3) 0.6451(3) 1.00000
Co3_4 Co 0.50000 1.00000 1.00000
Co5_2 Co 0.00000 0.50000 1.00000
O5_2 O 0.4910(3) 0.3549(3) 1.00000
O8_2 O 0.3549(3) 0.8639(4) 1.00000
O12_2 O 0.1361(4) 0.4910(3) 1.00000
O19 O 0.76455(15) 0.5291(3) 0.75000
O24 O 0.5291(3) 0.76455(34) 0.75000
O27 O 0.23545(15) 0.76455(34) 0.75000
O29 O 0.76455(34) 0.23545(15) 0.75000
O39 O 0.6116(3) 0.5599(2) 0.9046(2)
O40 O 0.9483(4) 0.5599(2) 0.5954(2)
O49 O 0.5599(2) 0.9483(4) 0.9046(2)
O59 O 0.0517(4) 0.6116(3) 0.9046(2)
O71 O 0.6188(2) 0.4257(2) 0.85820(19)
O72 O 0.8069(3) 0.4257(2) 0.64180(19)
O81 O 0.4257(2) 0.8069(3) 0.85820(19)
O82 O 0.4257(2) 0.6188(2) 0.64180(19)
O87 O 0.3812(2) 0.8069(3) 0.64180(19)
O88 O 0.1931(3) 0.6188(2) 0.85820(19)
O91 O 0.8069(3) 0.3812(2) 0.85820(19)
O92 O 0.6188(2) 0.1931(3) 0.64180(19)
C10 C 0.6476(3) 0.5188(3) 0.8587(3)
C11 C 0.8712(4) 0.5188(3) 0.6413(3)
C20 C 0.5188(3) 0.8712(4) 0.8587(3)
C21 C 0.5188(3) 0.6476(3) 0.6413(3)
C33 C 0.7335(4) 0.5867(4) 0.8000(4)
C34 C 0.8532(6) 0.5867(4) 0.7000(4)
C43 C 0.5867(4) 0.8532(6) 0.8000(4)
C44 C 0.5867(4) 0.7335(4) 0.7000(4)
H4 H 0.47800 0.61710 0.95260
H5 H 0.52200 0.38290 0.95260
H12 H 0.38290 0.86090 0.95260
H20 H 0.13910 0.52200 0.95260
H34 H 0.78940 0.63570 0.83530
H35 H 0.84630 0.63570 0.66470
H44 H 0.63570 0.84630 0.83530
H45 H 0.63570 0.78940 0.66470
H57 H 0.71260 0.62300 0.76080
H58 H 0.91040 0.62300 0.73920
H67 H 0.62300 0.91040 0.76080
H68 H 0.62300 0.71260 0.73920
Co5_3 Co 1.00000 0.50000 0.00000
O7 O 0.8639(4) 0.3549(3) 0.50000
O13 O 0.8639(4) 0.5090(3) 0.00000
O58 O 0.9483(4) 0.3884(3) 0.0954(2)
H9 H 0.86090 0.38290 0.54740
H10 H 0.86090 0.38290 0.45260
H22 H 0.86090 0.47800 0.04740
Co5_4 Co 1.00000 0.50000 1.00000
O13_2 O 0.8639(4) 0.5090(3) 1.00000
O60 O 0.9483(4) 0.3884(3) 0.9046(2)
H21 H 0.86090 0.47800 0.95260
C10_2 C 0.1288(4) 0.6476(3) 0.8587(3)
C11_2 C 0.3524(5) 0.8712(4) 0.6413(3)
C33_2 C 0.1468(6) 0.7335(4) 0.8000(4)
C34_2 C 0.2665(7) 0.8532(6) 0.7000(4)
H34_2 H 0.15370 0.78940 0.83530
H35_2 H 0.21060 0.84630 0.66470
H57_2 H 0.08960 0.71260 0.76080
H58_2 H 0.28740 0.91040 0.73920
C1_2 C 0.8712(4) 0.3524(3) 0.1413(3)
C2_2 C 0.8532(6) 0.2665(4) 0.2000(4)
H2_2 H 0.84630 0.21060 0.16470
H3_2 H 0.91040 0.28740 0.23920
C3_2 C 0.6476(5) 0.1288(4) 0.3587(3)
C14_2 C 0.6476(5) 0.1288(4) 0.6413(3)
C15_2 C 0.8712(4) 0.3524(3) 0.8587(3)
C26_2 C 0.7335(7) 0.1468(6) 0.3000(4)
C37_2 C 0.7335(7) 0.1468(6) 0.7000(4)
C38_2 C 0.8532(6) 0.2665(4) 0.8000(4)
H27_2 H 0.78940 0.15370 0.33530
H38_2 H 0.78940 0.15370 0.66470
H39_2 H 0.84630 0.21060 0.83530
H50_2 H 0.71260 0.08960 0.26080
H61_2 H 0.71260 0.08960 0.73920
H62_2 H 0.91040 0.28740 0.76080
loop_
_geom_bond_atom_site_label_1
_geom_bond_atom_site_label_2
_geom_bond_site_symmetry_1
_geom_bond_site_symmetry_2
La9 O26 1_555 1_555
Co15 O54 1_555 1_555
O9 Co3 1_555 1_555
O15 Co6 1_555 1_555
O26 C47 1_555 1_555
O53 Co3 1_555 1_555
O54 C25 1_555 1_555
O62 Co6 1_555 1_555
O63 Co6 1_555 1_555
O85 La9 1_555 1_555
O86 La9 1_555 1_555
C24 O53 1_555 1_555
C25 O86 1_555 1_555
C47 C24 1_555 1_555
C48 O26 1_555 1_555
H14 O9 1_555 1_555
H25 O15 1_555 1_555
H26 O15 1_555 1_555
H48 C47 1_555 1_555
H49 C48 1_555 1_555
H71 C47 1_555 1_555
H72 C48 1_555 1_555
O85 C24 1_555 1_555
C25 C48 1_555 1_555
La8 O25 1_555 1_555
Co15 O52 1_555 1_555
O9_2 Co3_2 1_555 1_555
O25 C45 1_555 1_555
O51 Co3_2 1_555 1_555
O52 C23 1_555 1_555
O83 La8 1_555 1_555
O84 La8 1_555 1_555
C22 O51 1_555 1_555
C23 O84 1_555 1_555
C45 C22 1_555 1_555
C46 O25 1_555 1_555
H13 O9_2 1_555 1_555
H46 C45 1_555 1_555
H47 C46 1_555 1_555
H69 C45 1_555 1_555
H70 C46 1_555 1_555
O83 C22 1_555 1_555
C23 C46 1_555 1_555
La1 O2 1_555 1_555
Co10 O1 1_555 1_555
O1 H1 1_555 1_555
O2 C2 1_555 1_555
O3 Co10 1_555 1_555
O4 La1 1_555 1_555
C1 O3 1_555 1_555
C2 C1 1_555 1_555
H2 C2 1_555 1_555
H3 C2 1_555 1_555
La9 O20 1_555 1_555
La5 O21 1_555 1_555
Co9 O6 1_555 1_555
Co3_3 O8 1_555 1_555
Co15 O10 1_555 1_555
Co5 O12 1_555 1_555
Co6_2 O14 1_555 1_555
Co9_2 O42 1_555 1_555
Co10_2 O44 1_555 1_555
O5 Co10 1_555 1_555
O6 H7 1_555 1_555
O8 H11 1_555 1_555
O10 H15 1_555 1_555
O11 Co15 1_555 1_555
O12 H19 1_555 1_555
O14 H23 1_555 1_555
O16 La1 1_555 1_555
O17 La1 1_555 1_555
O20 C35 1_555 1_555
O21 C37 1_555 1_555
O30 La9 1_555 1_555
O32 Co9 1_555 1_555
O33 Co3_3 1_555 1_555
O34 Co15 1_555 1_555
O35 Co5 1_555 1_555
O36 Co6_2 1_555 1_555
O41 Co10 1_555 1_555
O42 C13 1_555 1_555
O43 Co9 1_555 1_555
O44 C15 1_555 1_555
O57 Co15 1_555 1_555
O61 Co6_2 1_555 1_555
O64 La1 1_555 1_555
O65 La1 1_555 1_555
O66 La1 1_555 1_555
O67 La1 1_555 1_555
O68 La1 1_555 1_555
O73 La9 1_555 1_555
O74 La9 1_555 1_555
O75 La5 1_555 1_555
O76 La5 1_555 1_555
O93 La9 1_555 1_555
O96 La9 1_555 1_555
C3 O32 1_555 1_555
C4 O33 1_555 1_555
C5 O34 1_555 1_555
C6 O35 1_555 1_555
C7 O36 1_555 1_555
C12 O41 1_555 1_555
C13 O74 1_555 1_555
C14 O43 1_555 1_555
C15 O76 1_555 1_555
C26 O2 1_555 1_555
C27 O16 1_555 1_555
C28 O16 1_555 1_555
C29 O17 1_555 1_555
C30 O17 1_555 1_555
C35 C12 1_555 1_555
C36 O20 1_555 1_555
C37 C14 1_555 1_555
C38 O21 1_555 1_555
H6 O5 1_555 1_555
H8 O6 1_555 1_555
H16 O10 1_555 1_555
H17 O11 1_555 1_555
H18 O11 1_555 1_555
H24 O14 1_555 1_555
H27 C26 1_555 1_555
H28 C27 1_555 1_555
H29 C28 1_555 1_555
H30 C29 1_555 1_555
H31 C30 1_555 1_555
H36 C35 1_555 1_555
H37 C36 1_555 1_555
H38 C37 1_555 1_555
H39 C38 1_555 1_555
H50 C26 1_555 1_555
H51 C27 1_555 1_555
H52 C28 1_555 1_555
H53 C29 1_555 1_555
H54 C30 1_555 1_555
H59 C35 1_555 1_555
H60 C36 1_555 1_555
H61 C37 1_555 1_555
H62 C38 1_555 1_555
O4 C1 1_555 1_555
O64 C3 1_555 1_555
O65 C4 1_555 1_555
O66 C5 1_555 1_555
O67 C6 1_555 1_555
O68 C7 1_555 1_555
O73 C12 1_555 1_555
O75 C14 1_555 1_555
C3 C26 1_555 1_555
C4 C27 1_555 1_555
C5 C28 1_555 1_555
C6 C29 1_555 1_555
C7 C30 1_555 1_555
C13 C36 1_555 1_555
C15 C38 1_555 1_555
Co10_2 O1_2 1_555 1_555
La8 O19 1_555 1_555
Co3_4 O8_2 1_555 1_555
Co5_2 O12_2 1_555 1_555
Co9_2 O40 1_555 1_555
O5_2 Co10_2 1_555 1_555
O19 C33 1_555 1_555
O24 La5 1_555 1_555
O27 La5 1_555 1_555
O29 La8 1_555 1_555
O39 Co10_2 1_555 1_555
O40 C11 1_555 1_555
O49 Co3_4 1_555 1_555
O57 C21 1_555 1_555
O59 Co5_2 1_555 1_555
O71 La8 1_555 1_555
O72 La8 1_555 1_555
O81 La5 1_555 1_555
O82 La5 1_555 1_555
O87 La5 1_555 1_555
O88 La5 1_555 1_555
O91 La8 1_555 1_555
O92 La8 1_555 1_555
C10 O39 1_555 1_555
C11 O72 1_555 1_555
C20 O49 1_555 1_555
C21 O82 1_555 1_555
C33 C10 1_555 1_555
C34 O19 1_555 1_555
C43 O24 1_555 1_555
C44 O24 1_555 1_555
H4 O1_2 1_555 1_555
H5 O5_2 1_555 1_555
H12 O8_2 1_555 1_555
H20 O12_2 1_555 1_555
H34 C33 1_555 1_555
H35 C34 1_555 1_555
H44 C43 1_555 1_555
H45 C44 1_555 1_555
H57 C33 1_555 1_555
H58 C34 1_555 1_555
H67 C43 1_555 1_555
H68 C44 1_555 1_555
O71 C10 1_555 1_555
O81 C20 1_555 1_555
C11 C34 1_555 1_555
C20 C43 1_555 1_555
C21 C44 1_555 1_555
O7 Co9_2 1_555 1_555
O13 Co5_3 1_555 1_555
O58 Co5_3 1_555 1_555
H9 O7 1_555 1_555
H10 O7 1_555 1_555
H22 O13 1_555 1_555
O13_2 Co5_4 1_555 1_555
O60 Co5_4 1_555 1_555
H21 O13_2 1_555 1_555
O27 C33_2 1_555 1_555
O61 C11_2 1_555 1_555
C10_2 O59 1_555 1_555
C11_2 O87 1_555 1_555
C33_2 C10_2 1_555 1_555
C34_2 O27 1_555 1_555
H34_2 C33_2 1_555 1_555
H35_2 C34_2 1_555 1_555
H57_2 C33_2 1_555 1_555
H58_2 C34_2 1_555 1_555
O88 C10_2 1_555 1_555
C11_2 C34_2 1_555 1_555
O30 C2_2 1_555 1_555
C1_2 O58 1_555 1_555
C2_2 C1_2 1_555 1_555
H2_2 C2_2 1_555 1_555
H3_2 C2_2 1_555 1_555
O29 C37_2 1_555 1_555
O60 C15_2 1_555 1_555
C3_2 O63 1_555 1_555
C14_2 O62 1_555 1_555
C15_2 O91 1_555 1_555
C26_2 O30 1_555 1_555
C37_2 C14_2 1_555 1_555
C38_2 O29 1_555 1_555
H27_2 C26_2 1_555 1_555
H38_2 C37_2 1_555 1_555
H39_2 C38_2 1_555 1_555
H50_2 C26_2 1_555 1_555
H61_2 C37_2 1_555 1_555
H62_2 C38_2 1_555 1_555
O93 C1_2 1_555 1_555
O96 C3_2 1_555 1_555
O92 C14_2 1_555 1_555
C3_2 C26_2 1_555 1_555
C15_2 C38_2 1_555 1_555

#END
