
###############################################################################
#
# This file contains modified crystal structure data generated from the
# MOF subset of the Cambridge Structural Database (CSD) v543 
# hosted by the Cambridge Crystallographic Data Centre (CCDC).
#
# This work is licensed under the Creative Commons
# Attribution-NonCommercial-ShareAlike 4.0 International License.
# To view a copy of this license, visit
# http://creativecommons.org/licenses/by-nc-sa/4.0/
# or send a letter to
# Creative Commons, PO Box 1866, Mountain View, CA 94042, USA.
#
# CIF created using the CSD Python API on 29 September 2022
# The structure has been converted into the P1 space group
# The structure has a 3D framework
# The original CSD entry WICVIO is in the triclinic crystal system
# The framework has been calculated to contain at least 10.0% void space
# The void calculation uses a probe of radius 1.32A, grid spacing 0.4
#
###############################################################################

data_WICVIO
_chemical_formula_moiety         '(C68 H40 Cu4 Gd2 N4 O22)n'
_symmetry_cell_setting           triclinic
_symmetry_space_group_name_H-M   'P 1'
_symmetry_Int_Tables_number      1
_space_group_name_Hall           'P 1'
loop_
_symmetry_equiv_pos_site_id
_symmetry_equiv_pos_as_xyz
1 x,y,z
_cell_length_a                   11.0119(15)
_cell_length_b                   12.8729(19)
_cell_length_c                   13.295(2)
_cell_angle_alpha                75.334(2)
_cell_angle_beta                 81.530(3)
_cell_angle_gamma                69.204(2)
_cell_volume                     1701.01
loop_
_atom_site_label
_atom_site_type_symbol
_atom_site_fract_x
_atom_site_fract_y
_atom_site_fract_z
O20 O 0.0051(4) 0.4830(3) 0.2772(3)
O27 O 0.0945(4) 0.2088(4) 0.1775(3)
O33 O 0.0520(4) 0.1314(3) 0.4165(3)
O35 O 0.1664(4) 0.2473(4) 0.3779(3)
C54 C 0.4133(6) 0.0496(6) 0.6174(5)
H30 H 0.4801 0.0711 0.6315
C55 C 0.3353(6) 0.1153(6) 0.5371(5)
H31 H 0.3492 0.1812 0.4973
C56 C 0.2369(6) 0.0836(5) 0.5157(4)
C57 C 0.1478(6) 0.1588(5) 0.4308(4)
Gd6 Gd 0.04669(3) 0.68221(3) 0.69854(2)
Cu4 Cu 0.32606(8) 0.62415(7) 0.88928(6)
O29 O 0.1892(4) 0.7798(4) 0.6957(3)
O31 O 0.3307(5) 0.7681(4) 0.8040(3)
C51 C 0.2690(6) 0.8154(5) 0.7230(5)
C52 C 0.2944(6) 0.9194(5) 0.6552(4)
C53 C 0.3931(6) 0.9521(5) 0.6769(5)
H29 H 0.4455 0.9082 0.7316
C58 C 0.2164(6) 0.9840(5) 0.5742(4)
H32 H 0.1511 0.9615 0.5588
H27 H 0.2044 0.0943 0.0379
C49 C 0.0402(6) 0.2790(6) 0.0978(5)
Gd1 Gd 0.95331(3) 0.31779(3) 0.30146(2)
Cu1 Cu -0.0000 0.5000 0.5000
Cu2 Cu 0.67394(8) 0.37585(7) 0.11072(6)
O1 O 0.7473(4) 0.4702(4) 0.2804(3)
O2 O 0.5779(4) 0.4542(4) 0.2175(3)
O3 O 0.1701(4) 0.5158(4) 0.4434(3)
O4 O 0.1131(4) 0.6543(4) 0.5294(3)
O9 O 0.8108(4) 0.2202(4) 0.3043(3)
O10 O 0.6693(5) 0.2319(4) 0.1960(3)
N2 N 0.6560(5) 0.5194(5) 0.0024(4)
C1 C 0.6281(6) 0.4891(5) 0.2770(5)
C2 C 0.5320(6) 0.5612(5) 0.3459(4)
C3 C 0.5614(6) 0.6427(6) 0.3798(5)
H1 H 0.6421 0.6525 0.3616
C4 C 0.4694(6) 0.7089(6) 0.4408(5)
H2 H 0.4881 0.7643 0.4628
C5 C 0.3506(6) 0.6941(5) 0.4695(5)
H3 H 0.2893 0.7401 0.5099
C6 C 0.3213(6) 0.6107(5) 0.4384(4)
C7 C 0.1937(6) 0.5923(6) 0.4733(4)
C8 C 0.4119(6) 0.5452(5) 0.3760(4)
H4 H 0.3928 0.4900 0.3539
C17 C 0.7310(6) 0.1846(5) 0.2770(5)
C18 C 0.7056(6) 0.0806(5) 0.3448(4)
C19 C 0.6069(6) 0.0479(5) 0.3231(5)
H9 H 0.5545 0.0918 0.2684
C24 C 0.7836(6) 0.0160(5) 0.4258(4)
H12 H 0.8489 0.0385 0.4412
H13 H 0.7834 0.1449 0.0506
C34 C 0.6094(7) 0.6253(6) 0.0170(6)
H20 H 0.5766 0.6373 0.0833
O17 O 0.8869(4) 0.3457(4) 0.4706(3)
O22 O 0.0804(4) 0.3905(4) 0.6235(3)
O24 O 0.9416(4) 0.3637(4) 0.1088(3)
C43 C 0.0571(5) 0.4185(5) 0.7107(4)
C44 C 0.1021(6) 0.3264(5) 0.8053(4)
C45 C 0.1818(7) 0.2182(6) 0.7944(5)
H25 H 0.2084 0.2030 0.7284
C46 C 0.2218(8) 0.1326(6) 0.8826(5)
H26 H 0.2788 0.0613 0.8753
C47 C 0.1780(7) 0.1524(6) 0.9796(5)
C48 C 0.0935(6) 0.2600(5) 0.9919(5)
C50 C 0.0593(6) 0.3463(5) 0.9038(4)
H28 H 0.0066 0.4189 0.9112
O7 O 0.0584(4) 0.6363(4) 0.8912(3)
N1 N 0.7429(5) 0.3075(5) 0.9883(4)
C25 C 0.7867(9) 0.1969(7) 0.9882(6)
C26 C 0.8368(10) 0.1572(8) 0.8990(7)
H14 H 0.8656 0.0796 0.9006
C27 C 0.8435(9) 0.2334(9) 0.8082(7)
H15 H 0.8789 0.2079 0.7474
C28 C 0.7987(7) 0.3465(8) 0.8062(5)
H16 H 0.8014 0.3989 0.7440
C29 C 0.7490(6) 0.3829(6) 0.8975(5)
C30 C 0.7022(6) 0.5011(6) 0.9058(5)
C31 C 0.7033(7) 0.5929(7) 0.8231(5)
H17 H 0.7364 0.5808 0.7570
C32 C 0.6557(7) 0.6998(7) 0.8404(6)
H18 H 0.6554 0.7615 0.7858
C33 C 0.6081(8) 0.7175(7) 0.9376(7)
H19 H 0.5754 0.7907 0.9499
O11 O 0.9480(4) 0.8686(3) 0.5835(3)
O12 O 0.8336(4) 0.7527(4) 0.6221(3)
C20 C 0.5867(6) 0.9504(6) 0.3826(5)
H10 H 0.5199 0.9289 0.3685
C21 C 0.6647(6) 0.8847(6) 0.4629(5)
H11 H 0.6508 0.8188 0.5027
C22 C 0.7631(6) 0.9164(5) 0.4843(4)
C23 C 0.8522(6) 0.8412(5) 0.5692(4)
N3 N 0.2571(5) 0.6925(5) 0.0117(4)
C59 C 0.2133(9) 0.8031(7) 0.0118(6)
C60 C 0.1632(10) 0.8428(8) 0.1010(7)
H34 H 0.1344 0.9204 0.0994
C61 C 0.1565(9) 0.7666(9) 0.1918(7)
H35 H 0.1211 0.7921 0.2526
C62 C 0.2013(7) 0.6535(8) 0.1938(5)
H36 H 0.1986 0.6011 0.2560
C63 C 0.2510(6) 0.6171(6) 0.1025(5)
C64 C 0.2978(6) 0.4989(6) 0.0942(5)
C65 C 0.2967(7) 0.4071(7) 0.1769(5)
H37 H 0.2636 0.4192 0.2430
C66 C 0.3443(7) 0.3002(7) 0.1596(6)
H38 H 0.3446 0.2385 0.2142
C67 C 0.3919(8) 0.2825(7) 0.0624(7)
H39 H 0.4246 0.2093 0.0501
Cu1_2 Cu 1.0000 0.5000 0.5000
O6 O 0.9196(4) 0.6095(4) 0.3765(3)
C9 C 0.9429(5) 0.5815(5) 0.2893(4)
C10 C 0.8979(6) 0.6736(5) 0.1947(4)
C11 C 0.8182(7) 0.7818(6) 0.2056(5)
H5 H 0.7916 0.7970 0.2716
C12 C 0.7782(8) 0.8674(6) 0.1174(5)
H6 H 0.7212 0.9387 0.1247
C13 C 0.8220(7) 0.8476(6) 0.0204(5)
C14 C 0.9065(6) 0.7400(5) 0.0081(5)
C16 C 0.9407(6) 0.6537(5) 0.0962(4)
H8 H 0.9934 0.5811 0.0888
O13 O 0.2527(4) 0.5298(4) 0.7196(3)
O14 O 0.4221(4) 0.5458(4) 0.7825(3)
O15 O 0.8299(4) 0.4842(4) 0.5566(3)
O19 O 0.9949(4) 0.5170(3) 0.7228(3)
N4 N 0.3440(5) 0.4806(5) 0.9976(4)
C35 C 0.3719(6) 0.5109(5) 0.7230(5)
C36 C 0.4680(6) 0.4388(5) 0.6541(4)
C37 C 0.4386(6) 0.3573(6) 0.6202(5)
H21 H 0.3579 0.3475 0.6384
C38 C 0.5306(6) 0.2911(6) 0.5592(5)
H22 H 0.5119 0.2357 0.5372
C39 C 0.6494(6) 0.3059(5) 0.5305(5)
H23 H 0.7107 0.2599 0.4901
C40 C 0.6787(6) 0.3893(5) 0.5616(4)
C41 C 0.8063(6) 0.4077(6) 0.5267(4)
C42 C 0.5881(6) 0.4548(5) 0.6240(4)
H24 H 0.6072 0.5100 0.6461
H33 H 0.2166 0.8551 0.9494
C68 C 0.3906(7) 0.3747(6) 0.9830(6)
H40 H 0.4234 0.3627 0.9167
O8 O 0.9055(4) 0.7912(4) 0.8225(3)
H7 H 0.7956 0.9057 0.9621
C15 C 0.9598(6) 0.7210(6) 0.9022(5)
loop_
_geom_bond_atom_site_label_1
_geom_bond_atom_site_label_2
_geom_bond_site_symmetry_1
_geom_bond_site_symmetry_2
H30 C54 1_555 1_555
C55 C54 1_555 1_555
H31 C55 1_555 1_555
C56 C55 1_555 1_555
C57 O33 1_555 1_555
O35 C57 1_555 1_555
C56 C57 1_555 1_555
Cu4 O31 1_555 1_555
O29 Gd6 1_555 1_555
O31 C51 1_555 1_555
C51 O29 1_555 1_555
C52 C51 1_555 1_555
C53 C52 1_555 1_555
H29 C53 1_555 1_555
C58 C52 1_555 1_555
H32 C58 1_555 1_555
C49 O27 1_555 1_555
Gd1 O1 1_555 1_555
Cu1 O3 1_555 1_555
Cu2 O2 1_555 1_555
O1 C1 1_555 1_555
O2 C1 1_555 1_555
O3 C7 1_555 1_555
O4 C7 1_555 1_555
O9 Gd1 1_555 1_555
O10 Cu2 1_555 1_555
N2 Cu2 1_555 1_555
C1 C2 1_555 1_555
C2 C3 1_555 1_555
C3 H1 1_555 1_555
C4 C3 1_555 1_555
H2 C4 1_555 1_555
C5 C4 1_555 1_555
H3 C5 1_555 1_555
C6 C5 1_555 1_555
C7 C6 1_555 1_555
C8 C2 1_555 1_555
H4 C8 1_555 1_555
C17 O9 1_555 1_555
C18 C17 1_555 1_555
C19 C18 1_555 1_555
H9 C19 1_555 1_555
C24 C18 1_555 1_555
H12 C24 1_555 1_555
C34 N2 1_555 1_555
H20 C34 1_555 1_555
Gd6 O4 1_555 1_555
O17 Gd1 1_555 1_555
O22 Cu1 1_555 1_555
O24 Gd1 1_555 1_555
C44 C43 1_555 1_555
C45 C44 1_555 1_555
H25 C45 1_555 1_555
C46 C45 1_555 1_555
H26 C46 1_555 1_555
C47 C46 1_555 1_555
C48 C47 1_555 1_555
C50 C44 1_555 1_555
H28 C50 1_555 1_555
O10 C17 1_555 1_555
C6 C8 1_555 1_555
O22 C43 1_555 1_555
C48 C50 1_555 1_555
C25 N1 1_555 1_555
C26 C25 1_555 1_555
H14 C26 1_555 1_555
C27 C26 1_555 1_555
H15 C27 1_555 1_555
C28 C27 1_555 1_555
H16 C28 1_555 1_555
C29 N1 1_555 1_555
C31 C30 1_555 1_555
H17 C31 1_555 1_555
C32 C31 1_555 1_555
H18 C32 1_555 1_555
C33 C32 1_555 1_555
H19 C33 1_555 1_555
Gd6 O7 1_555 1_555
C28 C29 1_555 1_555
C29 C30 1_555 1_555
O11 C23 1_555 1_555
O12 C23 1_555 1_555
H10 C20 1_555 1_555
C21 C20 1_555 1_555
H11 C21 1_555 1_555
C22 C21 1_555 1_555
C23 C22 1_555 1_555
C59 N3 1_555 1_555
C60 C59 1_555 1_555
H34 C60 1_555 1_555
C61 C60 1_555 1_555
H35 C61 1_555 1_555
C62 C61 1_555 1_555
H36 C62 1_555 1_555
C63 N3 1_555 1_555
C65 C64 1_555 1_555
H37 C65 1_555 1_555
C66 C65 1_555 1_555
H38 C66 1_555 1_555
C67 C66 1_555 1_555
H39 C67 1_555 1_555
C62 C63 1_555 1_555
C63 C64 1_555 1_555
O6 Cu1_2 1_555 1_555
C9 O6 1_555 1_555
C10 C9 1_555 1_555
C11 C10 1_555 1_555
H5 C11 1_555 1_555
C12 C11 1_555 1_555
H6 C12 1_555 1_555
C13 C12 1_555 1_555
C14 C13 1_555 1_555
C16 C10 1_555 1_555
H8 C16 1_555 1_555
Gd6 O13 1_555 1_555
Cu4 O14 1_555 1_555
O13 C35 1_555 1_555
O14 C35 1_555 1_555
O15 Cu1_2 1_555 1_555
N4 Cu4 1_555 1_555
C35 C36 1_555 1_555
C36 C37 1_555 1_555
C37 H21 1_555 1_555
C38 C37 1_555 1_555
H22 C38 1_555 1_555
C39 C38 1_555 1_555
H23 C39 1_555 1_555
C40 C39 1_555 1_555
C41 O15 1_555 1_555
C42 C36 1_555 1_555
H24 C42 1_555 1_555
C68 N4 1_555 1_555
H40 C68 1_555 1_555
C14 C16 1_555 1_555
O17 C41 1_555 1_555
C40 C41 1_555 1_555
C40 C42 1_555 1_555
O8 C15 1_555 1_555

#END
