
###############################################################################
#
# This file contains modified crystal structure data generated from the
# MOF subset of the Cambridge Structural Database (CSD) v543 
# hosted by the Cambridge Crystallographic Data Centre (CCDC).
#
# This work is licensed under the Creative Commons
# Attribution-NonCommercial-ShareAlike 4.0 International License.
# To view a copy of this license, visit
# http://creativecommons.org/licenses/by-nc-sa/4.0/
# or send a letter to
# Creative Commons, PO Box 1866, Mountain View, CA 94042, USA.
#
# CIF created using the CSD Python API on 29 September 2022
# The structure has been converted into the P1 space group
# The structure has a 3D framework
# The original CSD entry WICVOU is in the triclinic crystal system
# The framework has been calculated to contain at least 10.0% void space
# The void calculation uses a probe of radius 1.32A, grid spacing 0.4
#
###############################################################################

data_WICVOU
_chemical_formula_moiety         '(C68 H40 Cu6 N4 O22 Yb2)n'
_symmetry_cell_setting           triclinic
_symmetry_space_group_name_H-M   'P 1'
_symmetry_Int_Tables_number      1
_space_group_name_Hall           'P 1'
loop_
_symmetry_equiv_pos_site_id
_symmetry_equiv_pos_as_xyz
1 x,y,z
_cell_length_a                   10.9774(13)
_cell_length_b                   12.8338(16)
_cell_length_c                   13.2340(16)
_cell_angle_alpha                75.135(2)
_cell_angle_beta                 80.874(2)
_cell_angle_gamma                69.436(2)
_cell_volume                     1682.37
loop_
_atom_site_label
_atom_site_type_symbol
_atom_site_fract_x
_atom_site_fract_y
_atom_site_fract_z
Cu2 Cu 0.0000 0.0000 0.5000
O11 O 0.1721(4) 0.0143(4) 0.4454(3)
O12 O 0.1102(4) 0.1566(4) 0.5284(3)
N1 N 0.6571(5) 0.0213(5) 0.0027(4)
C18 C 0.5358(6) 0.0612(5) 0.3485(4)
C19 C 0.5630(6) 0.1449(6) 0.3827(5)
H9 H 0.6445 0.1544 0.3658
C20 C 0.4688(6) 0.2128(5) 0.4413(5)
H10 H 0.4860 0.2697 0.4624
C21 C 0.3490(6) 0.1971(5) 0.4690(5)
H11 H 0.2859 0.2438 0.5084
C22 C 0.3212(5) 0.1126(5) 0.4389(4)
C23 C 0.4154(5) 0.0453(5) 0.3779(4)
C24 C 0.1932(5) 0.0927(5) 0.4739(4)
C25 C 0.6084(7) 0.1271(6) 0.0184(6)
H13 H 0.5767 0.1380 0.0857
Yb2 Yb 0.04804(2) 0.18170(2) 0.693399(18)
O21 O 0.1836(4) 0.2793(4) 0.6896(3)
O26 O 0.0704(4) 0.1343(4) 0.8821(3)
O32 O 0.2465(4) 0.0338(4) 0.7091(3)
C26 C 0.6036(8) 0.2212(7) 0.9379(7)
H14 H 0.5692 0.2945 0.9505
C27 C 0.6503(7) 0.2044(8) 0.8397(7)
H15 H 0.6497 0.2665 0.7848
C28 C 0.6979(7) 0.0969(7) 0.8215(5)
H16 H 0.7292 0.0852 0.7544
C29 C 0.6991(6) 0.0053(6) 0.9047(5)
O27 O 0.0907(4) 0.7188(4) 0.1835(3)
H27 H 0.1961 0.6017 0.0453
C50 C 0.0320(6) 0.7847(5) 0.1052(4)
Cu1 Cu 0.68277(7) 0.87713(6) 0.11180(5)
Cu2_2 Cu 0.0000 1.0000 0.5000
O1 O 0.0462(4) 0.6361(4) 0.4156(3)
O2 O 0.1590(4) 0.7540(4) 0.3796(3)
O3 O 0.3195(5) 0.2688(4) 0.8027(3)
O5 O 0.0070(4) 0.9758(3) 0.2735(3)
O9 O 0.7535(4) 0.9662(4) 0.2909(3)
O10 O 0.5877(4) 0.9544(4) 0.2198(3)
C1 C 0.1424(6) 0.6623(5) 0.4310(4)
C2 C 0.2309(6) 0.5865(5) 0.5139(4)
C3 C 0.3291(6) 0.6179(6) 0.5380(5)
H1 H 0.3427 0.6851 0.4998
C4 C 0.4074(7) 0.5505(6) 0.6184(5)
H2 H 0.4750 0.5712 0.6326
C5 C 0.3854(6) 0.4530(5) 0.6773(5)
H3 H 0.4363 0.4092 0.7327
C6 C 0.2869(6) 0.4193(5) 0.6542(4)
C7 C 0.2117(6) 0.4861(5) 0.5715(4)
H4 H 0.1474 0.4633 0.5545
C8 C 0.2614(6) 0.3138(5) 0.7203(4)
C17 C 0.6349(6) 0.9874(5) 0.2827(4)
H12 H 0.3975 0.9888 0.3566
H20 H 0.7860 0.6468 0.0496
Yb5 Yb 0.95196(2) 0.81830(2) 0.306601(18)
Cu4 Cu 0.31723(7) 0.12287(6) 0.88820(5)
O18 O 0.6805(5) 0.7312(4) 0.1973(3)
O23 O 0.0746(4) 0.8948(3) 0.6279(3)
C43 C 0.0519(5) 0.9241(5) 0.7154(4)
C44 C 0.0958(6) 0.8320(5) 0.8102(4)
C45 C 0.1763(7) 0.7234(6) 0.7998(5)
H25 H 0.2051 0.7086 0.7333
C46 C 0.2138(8) 0.6377(6) 0.8871(5)
H26 H 0.2687 0.5656 0.8797
C47 C 0.1693(7) 0.6591(6) 0.9863(5)
C48 C 0.0859(6) 0.7647(5) 0.9978(4)
C49 C 0.0523(5) 0.8522(5) 0.9095(4)
H28 H 0.0001 0.9249 0.9174
Cu2_3 Cu 1.0000 0.0000 0.5000
O6 O 0.9254(4) 0.1052(3) 0.3721(3)
C9 C 0.9481(5) 0.0759(5) 0.2846(4)
C10 C 0.9042(6) 0.1680(5) 0.1898(4)
C11 C 0.8237(7) 0.2766(6) 0.2002(5)
H5 H 0.7949 0.2914 0.2667
C12 C 0.7862(8) 0.3623(6) 0.1129(5)
H6 H 0.7313 0.4344 0.1203
C13 C 0.8307(7) 0.3409(6) 0.0137(5)
C14 C 0.9141(6) 0.2353(5) 0.0022(4)
C15 C 0.9477(5) 0.1478(5) 0.0905(4)
H8 H 0.9999 0.0751 0.0826
O14 O 0.9538(4) 0.3639(4) 0.5844(3)
O16 O 0.8410(4) 0.2460(4) 0.6204(3)
O22 O 0.9930(4) 0.0242(3) 0.7265(3)
O29 O 0.9093(4) 0.2812(4) 0.8165(3)
O33 O 0.4123(4) 0.0456(4) 0.7802(3)
C51 C 0.3651(6) 0.0126(5) 0.7173(4)
H32 H 0.6025 0.0112 0.6434
H40 H 0.2140 0.3532 0.9504
H7 H 0.8039 0.3983 0.9547
C16 C 0.9680(6) 0.2153(5) 0.8948(4)
O24 O 0.9296(4) 0.8657(4) 0.1179(3)
C60 C 0.3964(8) 0.7788(7) 0.0621(7)
H34 H 0.4308 0.7055 0.0495
C61 C 0.3497(7) 0.7956(8) 0.1603(7)
H35 H 0.3503 0.7335 0.2152
C62 C 0.3021(7) 0.9031(7) 0.1785(5)
H36 H 0.2708 0.9148 0.2456
C63 C 0.3009(6) 0.9947(6) 0.0953(5)
Cu2_4 Cu 1.0000 1.0000 0.5000
O20 O 0.8164(4) 0.7207(4) 0.3104(3)
O34 O 0.8279(4) 0.9857(4) 0.5546(3)
O35 O 0.8898(4) 0.8434(4) 0.4716(3)
N3 N 0.3429(5) 0.9787(5) 0.9973(4)
C35 C 0.8576(6) 0.3377(5) 0.5690(4)
C36 C 0.7691(6) 0.4135(5) 0.4861(4)
C37 C 0.6709(6) 0.3821(6) 0.4620(5)
H21 H 0.6573 0.3149 0.5002
C38 C 0.5926(7) 0.4495(6) 0.3816(5)
H22 H 0.5250 0.4288 0.3674
C39 C 0.6146(6) 0.5470(5) 0.3227(5)
H23 H 0.5637 0.5908 0.2673
C40 C 0.7131(6) 0.5807(5) 0.3458(4)
C41 C 0.7883(6) 0.5139(5) 0.4285(4)
H24 H 0.8526 0.5367 0.4455
C42 C 0.7386(6) 0.6862(5) 0.2797(4)
C52 C 0.4642(6) 0.9388(5) 0.6515(4)
C53 C 0.4370(6) 0.8551(6) 0.6173(5)
H29 H 0.3555 0.8456 0.6342
C54 C 0.5312(6) 0.7872(5) 0.5587(5)
H30 H 0.5140 0.7303 0.5376
C55 C 0.6510(6) 0.8029(5) 0.5310(5)
H31 H 0.7141 0.7562 0.4916
C56 C 0.6788(5) 0.8874(5) 0.5611(4)
C57 C 0.5846(5) 0.9547(5) 0.6221(4)
C58 C 0.8068(5) 0.9073(5) 0.5261(4)
C59 C 0.3916(7) 0.8729(6) 0.9816(6)
H33 H 0.4233 0.8620 0.9143
N2 N 0.7436(5) 0.8096(5) 0.9870(4)
C30 C 0.7471(6) 0.8863(6) 0.8960(5)
C31 C 0.7931(7) 0.8512(8) 0.8030(5)
H17 H 0.7932 0.9045 0.7404
C32 C 0.8387(10) 0.7373(9) 0.8036(7)
H18 H 0.8726 0.7127 0.7416
C33 C 0.8344(10) 0.6602(8) 0.8950(7)
H19 H 0.8625 0.5826 0.8961
C34 C 0.7872(9) 0.6994(7) 0.9866(6)
N4 N 0.2564(5) 0.1904(5) 0.0130(4)
C64 C 0.2529(6) 0.1137(6) 0.1040(5)
C65 C 0.2069(7) 0.1488(8) 0.1970(5)
H37 H 0.2068 0.0955 0.2596
C66 C 0.1613(10) 0.2627(9) 0.1964(7)
H38 H 0.1274 0.2873 0.2584
C67 C 0.1656(10) 0.3398(8) 0.1050(7)
H39 H 0.1375 0.4174 0.1039
C68 C 0.2128(9) 0.3006(7) 0.0134(6)
loop_
_geom_bond_atom_site_label_1
_geom_bond_atom_site_label_2
_geom_bond_site_symmetry_1
_geom_bond_site_symmetry_2
O11 Cu2 1_555 1_555
O12 C24 1_555 1_555
C18 C19 1_555 1_555
C19 H9 1_555 1_555
C20 C19 1_555 1_555
H10 C20 1_555 1_555
C21 C20 1_555 1_555
H11 C21 1_555 1_555
C22 C21 1_555 1_555
C23 C18 1_555 1_555
C24 O11 1_555 1_555
C25 N1 1_555 1_555
H13 C25 1_555 1_555
Yb2 O12 1_555 1_555
O21 Yb2 1_555 1_555
O26 Yb2 1_555 1_555
O32 Yb2 1_555 1_555
C22 C23 1_555 1_555
C22 C24 1_555 1_555
H14 C26 1_555 1_555
C27 C26 1_555 1_555
H15 C27 1_555 1_555
C28 C27 1_555 1_555
H16 C28 1_555 1_555
C28 C29 1_555 1_555
C50 O27 1_555 1_555
Cu1 O10 1_555 1_555
O1 C1 1_555 1_555
O3 C8 1_555 1_555
O21 C8 1_555 1_555
O9 C17 1_555 1_555
O10 C17 1_555 1_555
C1 O2 1_555 1_555
C2 C1 1_555 1_555
C3 C2 1_555 1_555
H1 C3 1_555 1_555
C4 C3 1_555 1_555
H2 C4 1_555 1_555
C5 C4 1_555 1_555
H3 C5 1_555 1_555
C6 C5 1_555 1_555
C7 C2 1_555 1_555
H4 C7 1_555 1_555
C8 C6 1_555 1_555
Yb5 O9 1_555 1_555
Cu4 O3 1_555 1_555
O18 Cu1 1_555 1_555
O23 Cu2_2 1_555 1_555
C44 C43 1_555 1_555
C45 C44 1_555 1_555
H25 C45 1_555 1_555
C46 C45 1_555 1_555
H26 C46 1_555 1_555
C47 C46 1_555 1_555
C48 C47 1_555 1_555
C49 C44 1_555 1_555
H28 C49 1_555 1_555
C6 C7 1_555 1_555
O23 C43 1_555 1_555
C48 C49 1_555 1_555
Cu2_3 O6 1_555 1_555
O6 C9 1_555 1_555
C10 C9 1_555 1_555
C11 C10 1_555 1_555
H5 C11 1_555 1_555
C12 C11 1_555 1_555
H6 C12 1_555 1_555
C13 C12 1_555 1_555
C14 C13 1_555 1_555
C15 C10 1_555 1_555
H8 C15 1_555 1_555
O32 C51 1_555 1_555
O33 Cu4 1_555 1_555
C51 O33 1_555 1_555
C14 C15 1_555 1_555
O29 C16 1_555 1_555
Yb5 O24 1_555 1_555
H34 C60 1_555 1_555
C61 C60 1_555 1_555
H35 C61 1_555 1_555
C62 C61 1_555 1_555
H36 C62 1_555 1_555
C62 C63 1_555 1_555
O18 C42 1_555 1_555
O20 Yb5 1_555 1_555
O34 Cu2_4 1_555 1_555
O35 Yb5 1_555 1_555
C35 O14 1_555 1_555
C36 C35 1_555 1_555
C37 C36 1_555 1_555
H21 C37 1_555 1_555
C38 C37 1_555 1_555
H22 C38 1_555 1_555
C39 C38 1_555 1_555
H23 C39 1_555 1_555
C40 C39 1_555 1_555
C41 C36 1_555 1_555
H24 C41 1_555 1_555
C42 O20 1_555 1_555
C53 C52 1_555 1_555
H29 C53 1_555 1_555
C54 C53 1_555 1_555
H30 C54 1_555 1_555
C55 C54 1_555 1_555
H31 C55 1_555 1_555
C56 C55 1_555 1_555
C57 C52 1_555 1_555
C58 O34 1_555 1_555
C59 N3 1_555 1_555
H33 C59 1_555 1_555
O16 C35 1_555 1_555
O35 C58 1_555 1_555
C40 C41 1_555 1_555
C40 C42 1_555 1_555
C56 C57 1_555 1_555
C56 C58 1_555 1_555
C30 N2 1_555 1_555
C31 C30 1_555 1_555
H17 C31 1_555 1_555
C32 C31 1_555 1_555
H18 C32 1_555 1_555
C33 C32 1_555 1_555
H19 C33 1_555 1_555
C34 N2 1_555 1_555
C33 C34 1_555 1_555
C64 N4 1_555 1_555
C65 C64 1_555 1_555
H37 C65 1_555 1_555
C66 C65 1_555 1_555
H38 C66 1_555 1_555
C67 C66 1_555 1_555
H39 C67 1_555 1_555
C68 N4 1_555 1_555
C67 C68 1_555 1_555

#END
