
###############################################################################
#
# This file contains modified crystal structure data generated from the
# MOF subset of the Cambridge Structural Database (CSD) v543 
# hosted by the Cambridge Crystallographic Data Centre (CCDC).
#
# This work is licensed under the Creative Commons
# Attribution-NonCommercial-ShareAlike 4.0 International License.
# To view a copy of this license, visit
# http://creativecommons.org/licenses/by-nc-sa/4.0/
# or send a letter to
# Creative Commons, PO Box 1866, Mountain View, CA 94042, USA.
#
# CIF created using the CSD Python API on 29 September 2022
# The structure has been converted into the P1 space group
# The structure has a 3D framework
# The original CSD entry WICVUA is in the triclinic crystal system
# The framework has been calculated to contain at least 10.0% void space
# The void calculation uses a probe of radius 1.32A, grid spacing 0.4
#
###############################################################################

data_WICVUA
_chemical_formula_moiety         '(C68 H40 Cu6 N4 O20 Tb2)n'
_symmetry_cell_setting           triclinic
_symmetry_space_group_name_H-M   'P 1'
_symmetry_Int_Tables_number      1
_space_group_name_Hall           'P 1'
loop_
_symmetry_equiv_pos_site_id
_symmetry_equiv_pos_as_xyz
1 x,y,z
_cell_length_a                   10.9785(5)
_cell_length_b                   12.8812(6)
_cell_length_c                   13.2657(6)
_cell_angle_alpha                75.0650(10)
_cell_angle_beta                 81.2510(10)
_cell_angle_gamma                69.4670(10)
_cell_volume                     1693.51
loop_
_atom_site_label
_atom_site_type_symbol
_atom_site_fract_x
_atom_site_fract_y
_atom_site_fract_z
O21 O 0.00622(19) 0.48017(16) 0.77611(15)
O25 O 0.0919(2) 0.21204(19) 0.67982(16)
O34 O 0.0497(2) 0.13292(17) 0.91664(16)
O36 O 0.1639(2) 0.24951(17) 0.87805(16)
Cu2 Cu -0.0000 0.5000 0.0000
Tb6 Tb 0.047290(12) 0.682020(11) 0.196420(10)
O16 O 0.1118(2) 0.65706(19) 0.02817(16)
O22 O 0.0780(2) 0.39270(17) 0.12483(15)
H29 H 0.2888 0.7419 0.0092
C53 C 0.0992(3) 0.3285(2) 0.3072(2)
C54 C 0.1775(4) 0.2205(3) 0.2962(3)
H33 H 0.2049 0.2059 0.2299
C55 C 0.2150(4) 0.1345(3) 0.3840(3)
H34 H 0.2693 0.0625 0.3767
C56 C 0.1720(4) 0.1555(3) 0.4823(3)
H35 H 0.1988 0.0979 0.5412
C57 C 0.0890(3) 0.2619(3) 0.4942(2)
C58 C 0.0561(3) 0.3491(2) 0.4061(2)
H36 H 0.0049 0.4219 0.4136
C59 C 0.0550(3) 0.4205(2) 0.2125(2)
C60 C 0.0361(3) 0.2811(3) 0.6006(2)
Cu2_2 Cu -0.0000 0.5000 1.0000
O8 O 0.0630(2) 0.63547(18) 0.38754(16)
Tb2 Tb 0.952710(12) 0.317980(11) 0.803580(10)
Cu3 Cu 0.67557(4) 0.37706(3) 0.61185(3)
O13 O 0.7496(2) 0.46842(18) 0.78491(18)
O14 O 0.5812(2) 0.4547(2) 0.71909(17)
O15 O 0.17084(19) 0.51624(18) 0.94506(16)
O18 O 0.8882(2) 0.34294(19) 0.97183(16)
O28 O 0.9370(2) 0.36453(18) 0.61246(16)
O30 O 0.6712(2) 0.23281(19) 0.69761(16)
O32 O 0.8119(2) 0.22060(18) 0.80710(17)
N3 N 0.6555(3) 0.5202(2) 0.5034(2)
N4 N 0.7405(3) 0.3101(2) 0.4882(2)
C35 C 0.6087(4) 0.6262(3) 0.5185(3)
H21 H 0.5761 0.6373 0.5852
C36 C 0.6070(4) 0.7198(3) 0.4386(4)
H22 H 0.5744 0.7927 0.4511
C37 C 0.6547(4) 0.7024(3) 0.3403(3)
H23 H 0.6551 0.7640 0.2853
C38 C 0.7015(3) 0.5949(3) 0.3231(3)
H24 H 0.7341 0.5824 0.2568
C39 C 0.6996(3) 0.5045(3) 0.4064(2)
C40 C 0.7464(3) 0.3859(3) 0.3975(2)
C41 C 0.7944(4) 0.3508(4) 0.3051(3)
H25 H 0.7965 0.4039 0.2428
C42 C 0.8390(5) 0.2365(4) 0.3060(3)
H26 H 0.8725 0.2115 0.2446
C43 C 0.8336(5) 0.1603(4) 0.3981(4)
H27 H 0.8631 0.0828 0.4002
C44 C 0.7839(5) 0.1996(3) 0.4879(3)
H28 H 0.7804 0.1473 0.5505
C45 C 0.3217(3) 0.6121(2) 0.9384(2)
C46 C 0.3507(3) 0.6957(3) 0.9694(2)
C47 C 0.4707(3) 0.7101(3) 0.9413(3)
H30 H 0.4896 0.7657 0.9628
C48 C 0.5632(3) 0.6429(3) 0.8816(3)
H31 H 0.6447 0.6521 0.8642
C49 C 0.5341(3) 0.5609(2) 0.8472(2)
C50 C 0.4130(3) 0.5455(2) 0.8771(2)
H32 H 0.3937 0.4901 0.8556
C51 C 0.1936(3) 0.5930(3) 0.9733(2)
C52 C 0.6300(3) 0.4891(3) 0.7799(2)
H20 H 0.3483 0.1823 0.9975
C33 C 0.1458(3) 0.1595(2) 0.9305(2)
Cu1 Cu 0.32443(4) 0.62294(3) 0.38815(3)
Cu2_3 Cu 1.0000 0.5000 0.0000
O1 O 0.2504(2) 0.53158(18) 0.21509(18)
O2 O 0.4188(2) 0.5453(2) 0.28091(17)
O3 O 0.82916(19) 0.48376(18) 0.05494(16)
O9 O 0.3288(2) 0.76719(19) 0.30239(16)
O10 O 0.1881(2) 0.77940(18) 0.19290(17)
N1 N 0.3445(3) 0.4798(2) 0.4966(2)
N2 N 0.2595(3) 0.6899(2) 0.5118(2)
C1 C 0.3913(4) 0.3738(3) 0.4815(3)
H1 H 0.4239 0.3627 0.4148
C2 C 0.3930(4) 0.2802(3) 0.5614(4)
H2 H 0.4256 0.2073 0.5489
C3 C 0.3453(4) 0.2976(3) 0.6597(3)
H3 H 0.3449 0.2360 0.7147
C4 C 0.2985(3) 0.4051(3) 0.6769(3)
H4 H 0.2659 0.4176 0.7432
C5 C 0.3004(3) 0.4955(3) 0.5936(2)
C6 C 0.2536(3) 0.6141(3) 0.6025(2)
C7 C 0.2056(4) 0.6492(4) 0.6949(3)
H5 H 0.2035 0.5961 0.7572
C8 C 0.1610(5) 0.7635(4) 0.6940(3)
H6 H 0.1275 0.7885 0.7554
C9 C 0.1664(5) 0.8397(4) 0.6019(4)
H7 H 0.1369 0.9172 0.5998
C10 C 0.2161(5) 0.8004(3) 0.5121(3)
H8 H 0.2196 0.8527 0.4495
C11 C 0.6783(3) 0.3879(2) 0.0616(2)
C12 C 0.6493(3) 0.3043(3) 0.0306(2)
C13 C 0.5293(3) 0.2899(3) 0.0587(3)
H10 H 0.5104 0.2343 0.0372
C14 C 0.4368(3) 0.3571(3) 0.1184(3)
H11 H 0.3553 0.3479 0.1358
C15 C 0.4659(3) 0.4391(2) 0.1528(2)
C16 C 0.5870(3) 0.4545(2) 0.1229(2)
H12 H 0.6063 0.5099 0.1444
C17 C 0.8064(3) 0.4070(3) 0.0267(2)
C18 C 0.3700(3) 0.5109(3) 0.2201(2)
C27 C 0.2161(3) 0.9840(2) 0.0724(2)
H17 H 0.1516 0.9608 0.0561
C28 C 0.2933(3) 0.9184(2) 0.1546(2)
C29 C 0.3916(3) 0.9523(3) 0.1774(3)
H18 H 0.4434 0.9087 0.2325
C34 C 0.2681(3) 0.8140(3) 0.2205(2)
O19 O 0.99378(19) 0.51983(16) 0.22389(15)
Cu2_4 Cu 1.0000 0.5000 1.0000
O6 O 0.9220(2) 0.60730(17) 0.87517(15)
O7 O 0.9081(2) 0.78796(19) 0.32018(16)
H9 H 0.7112 0.2581 0.9908
C19 C 0.9008(3) 0.6715(2) 0.6928(2)
C20 C 0.8225(4) 0.7795(3) 0.7038(3)
H13 H 0.7951 0.7941 0.7701
C21 C 0.7850(4) 0.8655(3) 0.6160(3)
H14 H 0.7307 0.9375 0.6233
C22 C 0.8280(4) 0.8445(3) 0.5177(3)
H15 H 0.8012 0.9021 0.4588
C23 C 0.9110(3) 0.7381(3) 0.5058(2)
C24 C 0.9439(3) 0.6509(2) 0.5939(2)
H16 H 0.9951 0.5781 0.5864
C25 C 0.9450(3) 0.5795(2) 0.7875(2)
C26 C 0.9639(3) 0.7189(3) 0.3994(2)
C61 C 0.7839(3) 0.0160(2) 0.9276(2)
H37 H 0.8484 0.0392 0.9439
C62 C 0.7067(3) 0.0816(2) 0.8454(2)
C63 C 0.6084(3) 0.0477(3) 0.8226(3)
H38 H 0.5566 0.0913 0.7675
C68 C 0.7319(3) 0.1860(3) 0.7795(2)
O33 O 0.9503(2) 0.86708(17) 0.08336(16)
O35 O 0.8361(2) 0.75049(17) 0.12195(16)
H40 H 0.6517 0.8177 0.0025
C67 C 0.8542(3) 0.8405(2) 0.0695(2)
C30 C 0.4118(3) 0.0505(3) 0.1182(3)
H19 H 0.4780 0.0726 0.1328
C31 C 0.3341(3) 0.1162(3) 0.0371(3)
C32 C 0.2349(3) 0.0843(2) 0.0142(2)
C64 C 0.5882(3) 0.9495(3) 0.8818(3)
H39 H 0.5220 0.9274 0.8672
C65 C 0.6659(3) 0.8838(3) 0.9629(3)
C66 C 0.7651(3) 0.9157(2) 0.9858(2)
loop_
_geom_bond_atom_site_label_1
_geom_bond_atom_site_label_2
_geom_bond_site_symmetry_1
_geom_bond_site_symmetry_2
Tb6 O16 1_555 1_555
O22 Cu2 1_555 1_555
O25 C60 1_555 1_555
C53 C54 1_555 1_555
C54 H33 1_555 1_555
C55 C54 1_555 1_555
H34 C55 1_555 1_555
C56 C55 1_555 1_555
H35 C56 1_555 1_555
C57 C56 1_555 1_555
C58 C53 1_555 1_555
H36 C58 1_555 1_555
O22 C59 1_555 1_555
C53 C59 1_555 1_555
C57 C58 1_555 1_555
C57 C60 1_555 1_555
Tb2 O13 1_555 1_555
Cu3 O14 1_555 1_555
O13 C52 1_555 1_555
O14 C52 1_555 1_555
O15 Cu2_2 1_555 1_555
O18 Tb2 1_555 1_555
O28 Tb2 1_555 1_555
O30 Cu3 1_555 1_555
O32 Tb2 1_555 1_555
N3 Cu3 1_555 1_555
N4 Cu3 1_555 1_555
C35 N3 1_555 1_555
H21 C35 1_555 1_555
C36 C35 1_555 1_555
H22 C36 1_555 1_555
C37 C36 1_555 1_555
H23 C37 1_555 1_555
C38 C37 1_555 1_555
H24 C38 1_555 1_555
C39 N3 1_555 1_555
C40 N4 1_555 1_555
C41 C40 1_555 1_555
H25 C41 1_555 1_555
C42 C41 1_555 1_555
H26 C42 1_555 1_555
C43 C42 1_555 1_555
H27 C43 1_555 1_555
C44 N4 1_555 1_555
H28 C44 1_555 1_555
C45 C46 1_555 1_555
C47 C46 1_555 1_555
H30 C47 1_555 1_555
C48 C47 1_555 1_555
H31 C48 1_555 1_555
C49 C48 1_555 1_555
C50 C45 1_555 1_555
H32 C50 1_555 1_555
C51 O15 1_555 1_555
C52 C49 1_555 1_555
O8 Tb6 1_555 1_555
C38 C39 1_555 1_555
C39 C40 1_555 1_555
C43 C44 1_555 1_555
C45 C51 1_555 1_555
C49 C50 1_555 1_555
O34 C33 1_555 1_555
O36 C33 1_555 1_555
Tb6 O1 1_555 1_555
Cu1 O2 1_555 1_555
Cu2_3 O3 1_555 1_555
O1 C18 1_555 1_555
O2 C18 1_555 1_555
O3 C17 1_555 1_555
O9 Cu1 1_555 1_555
O10 Tb6 1_555 1_555
N1 Cu1 1_555 1_555
N2 Cu1 1_555 1_555
C1 N1 1_555 1_555
H1 C1 1_555 1_555
C2 C1 1_555 1_555
H2 C2 1_555 1_555
C3 C2 1_555 1_555
H3 C3 1_555 1_555
C4 C3 1_555 1_555
H4 C4 1_555 1_555
C5 N1 1_555 1_555
C6 N2 1_555 1_555
C7 C6 1_555 1_555
H5 C7 1_555 1_555
C8 C7 1_555 1_555
H6 C8 1_555 1_555
C9 C8 1_555 1_555
H7 C9 1_555 1_555
C10 N2 1_555 1_555
H8 C10 1_555 1_555
C11 C12 1_555 1_555
C13 C12 1_555 1_555
H10 C13 1_555 1_555
C14 C13 1_555 1_555
H11 C14 1_555 1_555
C15 C14 1_555 1_555
C16 C11 1_555 1_555
H12 C16 1_555 1_555
C17 C11 1_555 1_555
C18 C15 1_555 1_555
C27 H17 1_555 1_555
C28 C27 1_555 1_555
C29 C28 1_555 1_555
H18 C29 1_555 1_555
C34 O9 1_555 1_555
O10 C34 1_555 1_555
C4 C5 1_555 1_555
C5 C6 1_555 1_555
C9 C10 1_555 1_555
C15 C16 1_555 1_555
C28 C34 1_555 1_555
O6 Cu2_4 1_555 1_555
O7 C26 1_555 1_555
C19 C20 1_555 1_555
C20 H13 1_555 1_555
C21 C20 1_555 1_555
H14 C21 1_555 1_555
C22 C21 1_555 1_555
H15 C22 1_555 1_555
C23 C22 1_555 1_555
C24 C19 1_555 1_555
H16 C24 1_555 1_555
C25 O6 1_555 1_555
C26 C23 1_555 1_555
C19 C25 1_555 1_555
C23 C24 1_555 1_555
O30 C68 1_555 1_555
C61 H37 1_555 1_555
C62 C61 1_555 1_555
C63 C62 1_555 1_555
H38 C63 1_555 1_555
C68 O32 1_555 1_555
C62 C68 1_555 1_555
C67 O33 1_555 1_555
O35 C67 1_555 1_555
H19 C30 1_555 1_555
C31 C30 1_555 1_555
C31 C32 1_555 1_555
H39 C64 1_555 1_555
C65 C64 1_555 1_555
C65 C66 1_555 1_555

#END
