
###############################################################################
#
# This file contains modified crystal structure data generated from the
# MOF subset of the Cambridge Structural Database (CSD) v543 
# hosted by the Cambridge Crystallographic Data Centre (CCDC).
#
# This work is licensed under the Creative Commons
# Attribution-NonCommercial-ShareAlike 4.0 International License.
# To view a copy of this license, visit
# http://creativecommons.org/licenses/by-nc-sa/4.0/
# or send a letter to
# Creative Commons, PO Box 1866, Mountain View, CA 94042, USA.
#
# CIF created using the CSD Python API on 29 September 2022
# The structure has been converted into the P1 space group
# The structure has a 3D framework
# The original CSD entry WIDPIL is in the monoclinic crystal system
# The framework has been calculated to contain at least 10.0% void space
# The void calculation uses a probe of radius 1.32A, grid spacing 0.4
#
###############################################################################

data_WIDPIL
_chemical_formula_moiety         '(C300 H204 Cd8 Cl4 N46 O24)n'
_symmetry_cell_setting           triclinic
_symmetry_space_group_name_H-M   'P 1'
_symmetry_Int_Tables_number      1
_space_group_name_Hall           'P 1'
loop_
_symmetry_equiv_pos_site_id
_symmetry_equiv_pos_as_xyz
1 x,y,z
_cell_length_a                   21.0221(5)
_cell_length_b                   17.4201(5)
_cell_length_c                   26.3666(7)
_cell_angle_alpha                90
_cell_angle_beta                 111.047(3)
_cell_angle_gamma                90
_cell_volume                     9011.47
loop_
_atom_site_label
_atom_site_type_symbol
_atom_site_fract_x
_atom_site_fract_y
_atom_site_fract_z
C64 C 0.0264(3) 0.5585(4) 0.1496(3)
H46 H 0.0199 0.5539 0.1121
C65 C 0.0738(3) 0.5672(4) 0.2363(3)
H47 H 0.1082 0.5702 0.2714
C66 C 0.0049(3) 0.5686(4) 0.2254(3)
N12 N 0.0852(3) 0.5609(3) 0.1881(2)
Cd4 Cd 0.19068(2) 0.58687(2) 0.17792(2)
Cd5 Cd 0.30932(2) 0.08687(2) 0.32208(2)
C1 C 0.1130(3) 0.6192(4) 0.0469(3)
H1 H 0.1369 0.5794 0.0366
C2 C 0.0801(3) 0.6999(4) 0.0941(2)
H2 H 0.0779 0.7277 0.1244
C3 C 0.0393(4) 0.7125(4) 0.0419(3)
H3 H 0.0032 0.7487 0.0289
C34 C 0.3947(3) 0.6895(4) 0.1941(3)
H25 H 0.4321 0.7233 0.2098
C35 C 0.3367(3) 0.6840(4) 0.2058(2)
H26 H 0.3273 0.7147 0.2321
C36 C 0.3252(3) 0.6002(4) 0.1435(3)
H27 H 0.3073 0.5611 0.1172
C37 C 0.4340(3) 0.6211(4) 0.1269(3)
C38 C 0.4105(4) 0.5976(5) 0.0732(3)
H28 H 0.3632 0.5891 0.0543
C39 C 0.4568(4) 0.5867(5) 0.0474(3)
H29 H 0.4408 0.5681 0.0111
C40 C 0.5259(4) 0.6021(5) 0.0731(3)
C41 C 0.5482(4) 0.6243(5) 0.1272(3)
H30 H 0.5953 0.6337 0.1460
C42 C 0.5028(3) 0.6331(5) 0.1546(3)
H31 H 0.5191 0.6472 0.1918
C43 C 0.5742(4) 0.5953(5) 0.0438(3)
C47 C 0.6901(4) 0.5797(6) 0.0455(3)
C48 C 0.6426(4) 0.5811(5) 0.0717(3)
H34 H 0.6579 0.5720 0.1097
C58 C 0.7639(4) 0.5720(5) 0.0772(3)
C59 C 0.8122(4) 0.6006(7) 0.0573(3)
H42 H 0.7971 0.6220 0.0219
C60 C 0.8819(4) 0.5990(6) 0.0873(3)
H43 H 0.9136 0.6206 0.0732
C61 C 0.9035(4) 0.5649(5) 0.1382(3)
C62 C 0.8564(4) 0.5380(6) 0.1589(3)
H44 H 0.8716 0.5181 0.1949
C63 C 0.7887(4) 0.5392(6) 0.1291(3)
H45 H 0.7576 0.5173 0.1437
H48 H 0.9826 0.5722 0.2509
N1 N 0.1253(3) 0.6411(3) 0.09726(19)
N2 N 0.0612(3) 0.6614(3) 0.0113(2)
N7 N 0.2935(3) 0.6282(3) 0.1749(2)
N8 N 0.3868(3) 0.6349(3) 0.1541(2)
N11 N 0.9746(3) 0.5634(4) 0.1693(2)
O7 O 0.1808(2) 0.7179(3) 0.22337(16)
O8 O 0.2316(2) 0.6139(3) 0.26919(17)
O9 O 0.2213(2) 0.4643(3) 0.18457(18)
C4 C 0.0355(3) 0.6557(4) 0.9534(2)
C8 C 0.0530(3) 0.6215(4) 0.8715(3)
H6 H 0.0822 0.6028 0.8539
C9 C 0.0777(4) 0.6273(5) 0.9271(3)
H7 H 0.1231 0.6121 0.9475
C15 C 0.0051(3) 0.6351(4) 0.7521(2)
H10 H 0.0518 0.6456 0.7718
C25 C 0.0318(4) 0.6286(5) 0.6672(3)
C26 C 0.0132(4) 0.6630(5) 0.6164(3)
C27 C 0.0581(4) 0.6711(5) 0.5894(3)
H19 H 0.0437 0.6928 0.5539
C28 C 0.1253(4) 0.6468(5) 0.6154(3)
C29 C 0.1456(4) 0.6123(6) 0.6656(3)
H20 H 0.1913 0.5953 0.6827
C30 C 0.0983(4) 0.6026(6) 0.6912(4)
H21 H 0.1119 0.5778 0.7256
C31 C 0.1737(5) 0.7204(7) 0.5564(5)
H22 H 0.1407 0.7603 0.5449
C32 C 0.2302(5) 0.7120(6) 0.5433(4)
H23 H 0.2432 0.7456 0.5203
C33 C 0.2306(4) 0.6182(5) 0.5957(3)
H24 H 0.2433 0.5731 0.6172
C44 C 0.5515(4) 0.6092(5) 0.9875(3)
H32 H 0.5049 0.6211 0.9682
C45 C 0.5973(4) 0.6057(5) 0.9596(3)
C46 C 0.6658(4) 0.5905(5) 0.9883(3)
H33 H 0.6966 0.5874 0.9694
C49 C 0.5712(4) 0.6188(5) 0.9003(3)
C50 C 0.5082(4) 0.5922(5) 0.8668(3)
H35 H 0.4821 0.5626 0.8825
C51 C 0.4812(4) 0.6065(5) 0.8117(3)
H36 H 0.4375 0.5876 0.7900
C52 C 0.5201(4) 0.6498(5) 0.7886(3)
C53 C 0.5830(4) 0.6758(5) 0.8200(3)
H37 H 0.6098 0.7028 0.8035
C54 C 0.6086(4) 0.6635(6) 0.8758(3)
H38 H 0.6512 0.6850 0.8975
C55 C 0.4466(3) 0.6249(5) 0.6928(3)
H39 H 0.4283 0.5776 0.6991
C56 C 0.4672(4) 0.7237(5) 0.6531(3)
H40 H 0.4657 0.7592 0.6253
C57 C 0.5064(4) 0.7317(5) 0.7065(3)
H41 H 0.5366 0.7727 0.7229
C67 C 0.3294(3) 0.6941(4) 0.4696(2)
C68 C 0.3005(3) 0.7343(3) 0.4161(2)
C69 C 0.2712(3) 0.6928(3) 0.3685(2)
H49 H 0.2698 0.6384 0.3699
C70 C 0.2438(3) 0.7303(3) 0.3186(2)
C71 C 0.2464(3) 0.8106(3) 0.3168(2)
H50 H 0.2280 0.8366 0.2830
C72 C 0.2756(3) 0.8520(3) 0.3642(2)
C73 C 0.3022(3) 0.8139(4) 0.4139(2)
H51 H 0.3216 0.8426 0.4465
C74 C 0.2158(3) 0.6850(4) 0.2665(2)
C75 C 0.2841(3) 0.9377(4) 0.3619(3)
Cd2 Cd 0.36785(2) 0.60740(3) 0.56191(2)
Cl1 Cl 0.35942(11) 0.46968(13) 0.58777(9)
N5 N 0.1737(3) 0.6596(4) 0.5898(3)
N6 N 0.2661(3) 0.6473(4) 0.5683(3)
N9 N 0.4930(3) 0.6669(4) 0.7320(2)
N10 N 0.4301(3) 0.6575(4) 0.6449(2)
O1 O 0.3633(2) 0.7307(3) 0.51165(15)
O2 O 0.3185(2) 0.6221(2) 0.47039(16)
O5 O 0.2787(2) 0.9643(3) 0.31543(18)
O6 O 0.2960(3) 0.9774(3) 0.40351(19)
N13 N 0.4712(3) 0.5938(3) 0.5473(2)
C5 C 0.9695(3) 0.6766(5) 0.9236(3)
H4 H 0.9406 0.6956 0.9414
C6 C 0.9451(3) 0.6698(5) 0.8674(3)
H5 H 0.8994 0.6840 0.8471
C7 C 0.9862(3) 0.6424(4) 0.8399(2)
C10 C 0.9592(3) 0.6324(4) 0.7800(2)
C11 C 0.8902(3) 0.6172(4) 0.7501(2)
H8 H 0.8586 0.6144 0.7683
C12 C 0.8678(3) 0.6062(4) 0.6943(2)
C13 C 0.9138(3) 0.6086(4) 0.6675(3)
H9 H 0.8980 0.6006 0.6293
C14 C 0.9832(3) 0.6227(4) 0.6956(3)
C16 C 0.7930(3) 0.5957(4) 0.6623(2)
C17 C 0.7450(3) 0.6354(4) 0.6770(2)
H11 H 0.7599 0.6654 0.7093
C18 C 0.6763(3) 0.6328(4) 0.6463(3)
H12 H 0.6445 0.6611 0.6569
C19 C 0.6543(3) 0.5885(4) 0.5999(2)
C20 C 0.6993(3) 0.5445(4) 0.5849(3)
H13 H 0.6834 0.5118 0.5540
C21 C 0.7690(3) 0.5492(4) 0.6163(3)
H14 H 0.8006 0.5201 0.6060
C22 C 0.5321(3) 0.5905(4) 0.5867(3)
H15 H 0.5386 0.5903 0.6243
C23 C 0.4844(3) 0.5940(4) 0.4997(3)
H16 H 0.4506 0.5972 0.4643
C24 C 0.5531(4) 0.5890(4) 0.5107(3)
H17 H 0.5754 0.5871 0.4852
H18 H 0.9679 0.6815 0.5997
N3 N 0.5836(3) 0.5873(3) 0.5677(2)
N4 N 0.0288(3) 0.0938(3) 0.9527(2)
Cd6 Cd 0.13215(2) 0.10740(3) 0.93809(2)
H17_2 H 0.9246 0.0871 0.0148
C67_2 C 0.1706(3) 0.1941(4) 0.0304(2)
C68_2 C 0.1995(3) 0.2343(3) 0.0839(2)
C69_2 C 0.2288(3) 0.1928(3) 0.1315(2)
H49_2 H 0.2302 0.1384 0.1301
C70_2 C 0.2562(3) 0.2303(3) 0.1814(2)
C71_2 C 0.2536(3) 0.3106(3) 0.1832(2)
H50_2 H 0.2720 0.3366 0.2170
C72_2 C 0.2244(3) 0.3520(3) 0.1358(2)
C73_2 C 0.1978(3) 0.3139(4) 0.0861(2)
H51_2 H 0.1784 0.3426 0.0535
C74_2 C 0.2842(3) 0.1850(4) 0.2335(2)
C75_2 C 0.2159(3) 0.4377(4) 0.1381(3)
O2_2 O 0.1815(2) 0.1221(2) 0.02961(16)
O3 O 0.3192(2) 0.2179(3) 0.27663(16)
O4 O 0.2684(2) 0.1139(3) 0.23081(17)
O6_2 O 0.2040(3) 0.4774(3) 0.09649(19)
C1_2 C 0.3870(3) 0.1192(4) 0.4531(3)
H1_2 H 0.3631 0.0794 0.4634
C2_2 C 0.4199(3) 0.1999(4) 0.4059(2)
H2_2 H 0.4221 0.2277 0.3756
C3_2 C 0.4607(4) 0.2125(4) 0.4581(3)
H3_2 H 0.4968 0.2487 0.4711
C4_2 C 0.4645(3) 0.1557(4) 0.5466(2)
C5_2 C 0.5305(3) 0.1766(5) 0.5764(3)
H4_2 H 0.5594 0.1956 0.5586
C6_2 C 0.5549(3) 0.1698(5) 0.6326(3)
H5_2 H 0.6006 0.1840 0.6529
C7_2 C 0.5138(3) 0.1424(4) 0.6601(2)
C8_2 C 0.4470(3) 0.1215(4) 0.6285(3)
H6_2 H 0.4178 0.1028 0.6461
C9_2 C 0.4223(4) 0.1273(5) 0.5729(3)
H7_2 H 0.3769 0.1121 0.5525
C10_2 C 0.5408(3) 0.1324(4) 0.7200(2)
C11_2 C 0.6098(3) 0.1172(4) 0.7499(2)
H8_2 H 0.6414 0.1144 0.7317
C12_2 C 0.6322(3) 0.1062(4) 0.8057(2)
C13_2 C 0.5862(3) 0.1086(4) 0.8325(3)
H9_2 H 0.6020 0.1006 0.8707
C14_2 C 0.5168(3) 0.1227(4) 0.8044(3)
C15_2 C 0.4949(3) 0.1351(4) 0.7479(2)
H10_2 H 0.4482 0.1456 0.7282
C16_2 C 0.7070(3) 0.0957(4) 0.8377(2)
C17_2 C 0.7550(3) 0.1354(4) 0.8230(2)
H11_2 H 0.7401 0.1654 0.7907
C18_2 C 0.8237(3) 0.1328(4) 0.8537(3)
H12_2 H 0.8555 0.1611 0.8431
C19_2 C 0.8457(3) 0.0885(4) 0.9001(2)
C20_2 C 0.8007(3) 0.0445(4) 0.9151(3)
H13_2 H 0.8166 0.0118 0.9460
C21_2 C 0.7310(3) 0.0492(4) 0.8837(3)
H14_2 H 0.6994 0.0201 0.8940
C22_2 C 0.9679(3) 0.0905(4) 0.9133(3)
H15_2 H 0.9614 0.0903 0.8757
C24_2 C 0.9469(4) 0.0890(4) 0.9893(3)
C25_2 C 0.4682(4) 0.1286(5) 0.8328(3)
C26_2 C 0.4868(4) 0.1630(5) 0.8836(3)
H18_2 H 0.5321 0.1815 0.9003
C27_2 C 0.4419(4) 0.1711(5) 0.9106(3)
H19_2 H 0.4563 0.1928 0.9461
C28_2 C 0.3747(4) 0.1468(5) 0.8846(3)
C29_2 C 0.3544(4) 0.1123(6) 0.8344(3)
H20_2 H 0.3087 0.0953 0.8173
C30_2 C 0.4017(4) 0.1026(6) 0.8088(4)
H21_2 H 0.3881 0.0778 0.7744
C31_2 C 0.3263(5) 0.2204(7) 0.9436(5)
H22_2 H 0.3593 0.2603 0.9551
C32_2 C 0.2698(5) 0.2120(6) 0.9567(4)
H23_2 H 0.2568 0.2456 0.9797
C33_2 C 0.2694(4) 0.1182(5) 0.9043(3)
H24_2 H 0.2567 0.0731 0.8828
C34_2 C 0.1053(3) 0.1895(4) 0.3059(3)
H25_2 H 0.0679 0.2233 0.2902
C35_2 C 0.1633(3) 0.1840(4) 0.2942(2)
H26_2 H 0.1727 0.2147 0.2679
C36_2 C 0.1748(3) 0.1002(4) 0.3565(3)
H27_2 H 0.1927 0.0611 0.3828
C37_2 C 0.0660(3) 0.1211(4) 0.3731(3)
C38_2 C 0.0895(4) 0.0976(5) 0.4268(3)
H28_2 H 0.1368 0.0891 0.4457
C39_2 C 0.0432(4) 0.0867(5) 0.4526(3)
H29_2 H 0.0592 0.0681 0.4889
H35_2 H 0.0179 0.0626 0.6175
C51_2 C 0.0188(4) 0.1065(5) 0.6883(3)
H36_2 H 0.0625 0.0876 0.7100
C55_2 C 0.0534(3) 0.1249(5) 0.8072(3)
H39_2 H 0.0717 0.0776 0.8009
C56_2 C 0.0328(4) 0.2237(5) 0.8469(3)
H40_2 H 0.0343 0.2592 0.8747
N1_2 N 0.3747(3) 0.1411(3) 0.40274(19)
N2_2 N 0.4388(3) 0.1614(3) 0.4887(2)
N3_2 N 0.9164(3) 0.0873(3) 0.9323(2)
N5_2 N 0.3263(3) 0.1596(4) 0.9102(3)
N6_2 N 0.2339(3) 0.1473(4) 0.9317(3)
N7_2 N 0.2065(3) 0.1282(3) 0.3251(2)
N8_2 N 0.1132(3) 0.1349(3) 0.3459(2)
N9_2 N 0.0070(3) 0.1669(4) 0.7680(2)
N10_2 N 0.0699(3) 0.1575(4) 0.8551(2)
O1_2 O 0.1367(2) 0.2307(3) 0.98835(15)
N14 N 0.4148(3) 0.0609(3) 0.3119(2)
Cl1_2 Cl 0.14058(11) 0.96968(13) 0.91223(9)
C40_2 C 0.9741(4) 0.1021(5) 0.4269(3)
C41_2 C 0.9518(4) 0.1243(5) 0.3728(3)
H30_2 H 0.9047 0.1337 0.3540
C42_2 C 0.9972(3) 0.1331(5) 0.3454(3)
H31_2 H 0.9809 0.1472 0.3082
C43_2 C 0.9258(4) 0.0953(5) 0.4562(3)
C44_2 C 0.9485(4) 0.1092(5) 0.5125(3)
H32_2 H 0.9951 0.1211 0.5318
C45_2 C 0.9027(4) 0.1057(5) 0.5404(3)
C46_2 C 0.8342(4) 0.0905(5) 0.5117(3)
H33_2 H 0.8034 0.0874 0.5306
C47_2 C 0.8099(4) 0.0797(6) 0.4545(3)
C48_2 C 0.8574(4) 0.0811(5) 0.4283(3)
H34_2 H 0.8421 0.0720 0.3903
C49_2 C 0.9288(4) 0.1188(5) 0.5997(3)
C50_2 C 0.9918(4) 0.0922(5) 0.6332(3)
C52_2 C 0.9799(4) 0.1498(5) 0.7114(3)
C53_2 C 0.9170(4) 0.1758(5) 0.6800(3)
H37_2 H 0.8902 0.2028 0.6965
C54_2 C 0.8914(4) 0.1635(6) 0.6242(3)
H38_2 H 0.8488 0.1850 0.6025
C57_2 C 0.9936(4) 0.2317(5) 0.7935(3)
H41_2 H 0.9634 0.2727 0.7771
C58_2 C 0.7361(4) 0.0720(5) 0.4228(3)
C59_2 C 0.6878(4) 0.1006(7) 0.4427(3)
H42_2 H 0.7029 0.1220 0.4781
C60_2 C 0.6181(4) 0.0990(6) 0.4127(3)
H43_2 H 0.5864 0.1206 0.4268
C61_2 C 0.5965(4) 0.0649(5) 0.3618(3)
C62_2 C 0.6436(4) 0.0380(6) 0.3411(3)
H44_2 H 0.6284 0.0181 0.3051
C63_2 C 0.7113(4) 0.0392(6) 0.3709(3)
H45_2 H 0.7424 0.0173 0.3563
C64_2 C 0.4736(3) 0.0585(4) 0.3504(3)
H46_2 H 0.4801 0.0539 0.3879
C65_2 C 0.4262(3) 0.0672(4) 0.2637(3)
H47_2 H 0.3918 0.0702 0.2286
C66_2 C 0.4951(3) 0.0686(4) 0.2746(3)
H48_2 H 0.5174 0.0722 0.2491
N11_2 N 0.5254(3) 0.0634(4) 0.3307(2)
C23_2 C 0.0156(3) 0.0940(4) 0.0003(3)
H16_2 H 0.0494 0.0972 0.0357
C5_3 C 0.0305(3) 0.3234(5) 0.0764(3)
H4_3 H 0.0594 0.3044 0.0586
C6_3 C 0.0549(3) 0.3302(5) 0.1326(3)
H5_3 H 0.1006 0.3160 0.1529
C7_3 C 0.0138(3) 0.3576(4) 0.1601(2)
C10_3 C 0.0408(3) 0.3676(4) 0.2200(2)
C11_3 C 0.1098(3) 0.3828(4) 0.2499(2)
H8_3 H 0.1414 0.3856 0.2317
C12_3 C 0.1322(3) 0.3938(4) 0.3057(2)
C13_3 C 0.0862(3) 0.3914(4) 0.3325(3)
H9_3 H 0.1020 0.3994 0.3707
C14_3 C 0.0168(3) 0.3773(4) 0.3044(3)
C16_3 C 0.2070(3) 0.4043(4) 0.3377(2)
C17_3 C 0.2550(3) 0.3646(4) 0.3230(2)
H11_3 H 0.2401 0.3346 0.2907
C18_3 C 0.3237(3) 0.3672(4) 0.3537(3)
H12_3 H 0.3555 0.3389 0.3431
C19_3 C 0.3457(3) 0.4115(4) 0.4001(2)
C20_3 C 0.3007(3) 0.4555(4) 0.4151(3)
H13_3 H 0.3166 0.4882 0.4460
C21_3 C 0.2310(3) 0.4508(4) 0.3837(3)
H14_3 H 0.1994 0.4799 0.3940
C22_3 C 0.4679(3) 0.4095(4) 0.4133(3)
H15_3 H 0.4614 0.4097 0.3757
C23_3 C 0.5156(3) 0.4060(4) 0.5003(3)
H16_3 H 0.5494 0.4028 0.5357
C24_3 C 0.4469(4) 0.4110(4) 0.4893(3)
H17_3 H 0.4246 0.4129 0.5148
H18_3 H 0.0321 0.3185 0.4003
N3_3 N 0.4164(3) 0.4127(3) 0.4323(2)
N4_2 N 0.5288(3) 0.4062(3) 0.4527(2)
Cd6_2 Cd 0.63215(2) 0.39260(3) 0.43809(2)
C4_3 C 0.9645(3) 0.3443(4) 0.0466(2)
C8_3 C 0.9470(3) 0.3785(4) 0.1285(3)
H6_3 H 0.9178 0.3972 0.1461
C9_3 C 0.9223(4) 0.3727(5) 0.0729(3)
H7_3 H 0.8769 0.3879 0.0525
C15_3 C 0.9949(3) 0.3649(4) 0.2479(2)
H10_3 H 0.9482 0.3544 0.2282
C25_3 C 0.9682(4) 0.3714(5) 0.3328(3)
C26_3 C 0.9868(4) 0.3370(5) 0.3836(3)
C27_3 C 0.9419(4) 0.3289(5) 0.4106(3)
H19_3 H 0.9563 0.3072 0.4461
C28_3 C 0.8747(4) 0.3532(5) 0.3846(3)
C29_3 C 0.8544(4) 0.3877(6) 0.3344(3)
H20_3 H 0.8087 0.4047 0.3173
C30_3 C 0.9017(4) 0.3974(6) 0.3088(4)
H21_3 H 0.8881 0.4222 0.2744
C31_3 C 0.8263(5) 0.2796(7) 0.4436(5)
H22_3 H 0.8593 0.2397 0.4551
C32_3 C 0.7698(5) 0.2880(6) 0.4567(4)
H23_3 H 0.7568 0.2544 0.4797
C33_3 C 0.7694(4) 0.3818(5) 0.4043(3)
H24_3 H 0.7567 0.4269 0.3828
C44_3 C 0.4485(4) 0.3908(5) 0.0125(3)
H32_3 H 0.4951 0.3789 0.0318
C45_3 C 0.4027(4) 0.3943(5) 0.0404(3)
C46_3 C 0.3342(4) 0.4095(5) 0.0117(3)
H33_3 H 0.3034 0.4126 0.0306
C49_3 C 0.4288(4) 0.3812(5) 0.0997(3)
C50_3 C 0.4918(4) 0.4078(5) 0.1332(3)
H35_3 H 0.5179 0.4374 0.1175
C51_3 C 0.5188(4) 0.3935(5) 0.1883(3)
H36_3 H 0.5625 0.4124 0.2100
C52_3 C 0.4799(4) 0.3502(5) 0.2114(3)
C53_3 C 0.4170(4) 0.3242(5) 0.1800(3)
H37_3 H 0.3902 0.2972 0.1965
C54_3 C 0.3914(4) 0.3365(6) 0.1242(3)
H38_3 H 0.3488 0.3150 0.1025
C55_3 C 0.5534(3) 0.3751(5) 0.3072(3)
H39_3 H 0.5717 0.4224 0.3009
C56_3 C 0.5328(4) 0.2763(5) 0.3469(3)
H40_3 H 0.5343 0.2408 0.3747
C57_3 C 0.4936(4) 0.2683(5) 0.2935(3)
H41_3 H 0.4634 0.2273 0.2771
C67_3 C 0.6706(3) 0.3059(4) 0.5304(2)
C68_3 C 0.6995(3) 0.2657(3) 0.5839(2)
C69_3 C 0.7288(3) 0.3072(3) 0.6315(2)
H49_3 H 0.7302 0.3616 0.6301
C70_3 C 0.7562(3) 0.2697(3) 0.6814(2)
C71_3 C 0.7536(3) 0.1894(3) 0.6832(2)
H50_3 H 0.7720 0.1634 0.7170
C72_3 C 0.7244(3) 0.1480(3) 0.6358(2)
C73_3 C 0.6978(3) 0.1861(4) 0.5861(2)
H51_3 H 0.6784 0.1574 0.5535
C74_3 C 0.7842(3) 0.3150(4) 0.7335(2)
C75_3 C 0.7159(3) 0.0623(4) 0.6381(3)
Cl1_3 Cl 0.64058(11) 0.53032(13) 0.41223(9)
N5_3 N 0.8263(3) 0.3404(4) 0.4102(3)
N6_3 N 0.7339(3) 0.3527(4) 0.4317(3)
N9_3 N 0.5070(3) 0.3331(4) 0.2680(2)
N10_3 N 0.5699(3) 0.3425(4) 0.3551(2)
O1_3 O 0.6367(2) 0.2693(3) 0.48835(15)
O2_3 O 0.6815(2) 0.3779(2) 0.52961(16)
O3_2 O 0.8192(2) 0.2821(3) 0.77663(16)
O4_2 O 0.7684(2) 0.3861(3) 0.73081(17)
O5_2 O 0.7213(2) 0.0357(3) 0.68457(18)
O6_3 O 0.7040(3) 0.0226(3) 0.59649(19)
Cd3 Cd 0.80932(2) 0.41313(2) 0.82208(2)
C1_3 C 0.8870(3) 0.3808(4) 0.9531(3)
H1_3 H 0.8631 0.4206 0.9634
C2_3 C 0.9199(3) 0.3001(4) 0.9059(2)
H2_3 H 0.9221 0.2723 0.8756
C3_3 C 0.9607(4) 0.2875(4) 0.9581(3)
H3_3 H 0.9968 0.2513 0.9711
C34_3 C 0.6053(3) 0.3105(4) 0.8059(3)
H25_3 H 0.5679 0.2767 0.7902
C35_3 C 0.6633(3) 0.3160(4) 0.7942(2)
H26_3 H 0.6727 0.2853 0.7679
C36_3 C 0.6748(3) 0.3998(4) 0.8565(3)
H27_3 H 0.6927 0.4389 0.8828
C37_3 C 0.5660(3) 0.3789(4) 0.8731(3)
C38_3 C 0.5895(4) 0.4024(5) 0.9268(3)
H28_3 H 0.6368 0.4109 0.9457
C39_3 C 0.5432(4) 0.4133(5) 0.9526(3)
H29_3 H 0.5592 0.4319 0.9889
C40_3 C 0.4741(4) 0.3979(5) 0.9269(3)
C41_3 C 0.4518(4) 0.3757(5) 0.8728(3)
H30_3 H 0.4047 0.3663 0.8540
C42_3 C 0.4972(3) 0.3669(5) 0.8454(3)
H31_3 H 0.4809 0.3528 0.8082
C43_3 C 0.4258(4) 0.4047(5) 0.9562(3)
C47_3 C 0.3099(4) 0.4203(6) 0.9545(3)
C48_3 C 0.3574(4) 0.4189(5) 0.9283(3)
H34_3 H 0.3421 0.4280 0.8903
C58_3 C 0.2361(4) 0.4280(5) 0.9228(3)
C59_3 C 0.1878(4) 0.3994(7) 0.9427(3)
H42_3 H 0.2029 0.3780 0.9781
C60_3 C 0.1181(4) 0.4010(6) 0.9127(3)
H43_3 H 0.0864 0.3794 0.9268
C61_3 C 0.0965(4) 0.4351(5) 0.8618(3)
C62_3 C 0.1436(4) 0.4620(6) 0.8411(3)
H44_3 H 0.1284 0.4819 0.8051
C63_3 C 0.2113(4) 0.4608(6) 0.8709(3)
H45_3 H 0.2424 0.4827 0.8563
H48_3 H 0.0174 0.4278 0.7491
N1_3 N 0.8747(3) 0.3589(3) 0.90274(19)
N2_3 N 0.9388(3) 0.3386(3) 0.9887(2)
N7_3 N 0.7065(3) 0.3718(3) 0.8251(2)
N8_3 N 0.6132(3) 0.3651(3) 0.8459(2)
N11_3 N 0.0254(3) 0.4366(4) 0.8307(2)
N14_2 N 0.9148(3) 0.4391(3) 0.8119(2)
O9_2 O 0.7787(2) 0.5357(3) 0.81543(18)
Cd5_2 Cd 0.69068(2) 0.91313(2) 0.67792(2)
C64_3 C 0.9736(3) 0.4415(4) 0.8504(3)
H46_3 H 0.9801 0.4461 0.8879
C65_3 C 0.9262(3) 0.4328(4) 0.7637(3)
H47_3 H 0.8918 0.4298 0.7286
C66_3 C 0.9951(3) 0.4314(4) 0.7746(3)
C40_4 C 0.0259(4) 0.8979(5) 0.5731(3)
C41_4 C 0.0482(4) 0.8757(5) 0.6272(3)
H30_4 H 0.0953 0.8663 0.6460
C42_4 C 0.0028(3) 0.8669(5) 0.6546(3)
H31_4 H 0.0191 0.8528 0.6918
C43_4 C 0.0742(4) 0.9047(5) 0.5438(3)
C44_4 C 0.0515(4) 0.8908(5) 0.4875(3)
H32_4 H 0.0049 0.8789 0.4682
C45_4 C 0.0973(4) 0.8943(5) 0.4596(3)
C46_4 C 0.1658(4) 0.9095(5) 0.4883(3)
H33_4 H 0.1966 0.9126 0.4694
C47_4 C 0.1901(4) 0.9203(6) 0.5455(3)
C48_4 C 0.1426(4) 0.9189(5) 0.5717(3)
H34_4 H 0.1579 0.9280 0.6097
C49_4 C 0.0712(4) 0.8812(5) 0.4003(3)
C50_4 C 0.0082(4) 0.9078(5) 0.3668(3)
C52_4 C 0.0201(4) 0.8502(5) 0.2886(3)
C53_4 C 0.0830(4) 0.8242(5) 0.3200(3)
H37_4 H 0.1098 0.7972 0.3035
C54_4 C 0.1086(4) 0.8365(6) 0.3758(3)
H38_4 H 0.1512 0.8150 0.3975
C57_4 C 0.0064(4) 0.7683(5) 0.2065(3)
H41_4 H 0.0366 0.7273 0.2229
C58_4 C 0.2639(4) 0.9280(5) 0.5772(3)
C59_4 C 0.3122(4) 0.8994(7) 0.5573(3)
H42_4 H 0.2971 0.8780 0.5219
C60_4 C 0.3819(4) 0.9010(6) 0.5873(3)
H43_4 H 0.4136 0.8794 0.5732
C61_4 C 0.4035(4) 0.9351(5) 0.6382(3)
C62_4 C 0.3564(4) 0.9620(6) 0.6589(3)
H44_4 H 0.3716 0.9819 0.6949
C63_4 C 0.2887(4) 0.9608(6) 0.6291(3)
H45_4 H 0.2576 0.9827 0.6437
C64_4 C 0.5264(3) 0.9415(4) 0.6496(3)
H46_4 H 0.5199 0.9461 0.6121
C65_4 C 0.5738(3) 0.9328(4) 0.7363(3)
H47_4 H 0.6082 0.9298 0.7714
C66_4 C 0.5049(3) 0.9314(4) 0.7254(3)
H48_4 H 0.4826 0.9278 0.7509
N11_4 N 0.4746(3) 0.9366(4) 0.6693(2)
N12_2 N 0.5852(3) 0.9391(3) 0.6881(2)
Cl1_4 Cl 0.85942(11) 0.03032(13) 0.08777(9)
C1_4 C 0.6130(3) 0.8808(4) 0.5469(3)
H1_4 H 0.6369 0.9206 0.5366
C2_4 C 0.5801(3) 0.8001(4) 0.5941(2)
H2_4 H 0.5779 0.7723 0.6244
C3_4 C 0.5393(4) 0.7875(4) 0.5419(3)
H3_4 H 0.5032 0.7513 0.5289
C4_4 C 0.5355(3) 0.8443(4) 0.4534(2)
C5_4 C 0.4695(3) 0.8234(5) 0.4236(3)
H4_4 H 0.4406 0.8044 0.4414
C6_4 C 0.4451(3) 0.8302(5) 0.3674(3)
H5_4 H 0.3994 0.8160 0.3471
C7_4 C 0.4862(3) 0.8576(4) 0.3399(2)
C8_4 C 0.5530(3) 0.8785(4) 0.3715(3)
H6_4 H 0.5822 0.8972 0.3539
C9_4 C 0.5777(4) 0.8727(5) 0.4271(3)
H7_4 H 0.6231 0.8879 0.4475
C10_4 C 0.4592(3) 0.8676(4) 0.2800(2)
C11_4 C 0.3902(3) 0.8828(4) 0.2501(2)
H8_4 H 0.3586 0.8856 0.2683
C12_4 C 0.3678(3) 0.8938(4) 0.1943(2)
C13_4 C 0.4138(3) 0.8914(4) 0.1675(3)
H9_4 H 0.3980 0.8994 0.1293
C14_4 C 0.4832(3) 0.8773(4) 0.1956(3)
C15_4 C 0.5051(3) 0.8649(4) 0.2521(2)
H10_4 H 0.5518 0.8544 0.2718
C16_4 C 0.2930(3) 0.9043(4) 0.1623(2)
C17_4 C 0.2450(3) 0.8646(4) 0.1770(2)
H11_4 H 0.2599 0.8346 0.2093
C18_4 C 0.1763(3) 0.8672(4) 0.1463(3)
H12_4 H 0.1445 0.8389 0.1569
C19_4 C 0.1543(3) 0.9115(4) 0.0999(2)
C20_4 C 0.1993(3) 0.9555(4) 0.0849(3)
H13_4 H 0.1834 0.9882 0.0540
C21_4 C 0.2690(3) 0.9508(4) 0.1163(3)
H14_4 H 0.3006 0.9799 0.1060
C22_4 C 0.0321(3) 0.9095(4) 0.0867(3)
H15_4 H 0.0386 0.9097 0.1243
C24_4 C 0.0531(4) 0.9110(4) 0.0107(3)
C25_4 C 0.5318(4) 0.8714(5) 0.1672(3)
C26_4 C 0.5132(4) 0.8370(5) 0.1164(3)
H18_4 H 0.4679 0.8185 0.0997
C27_4 C 0.5581(4) 0.8289(5) 0.0894(3)
H19_4 H 0.5437 0.8072 0.0539
C28_4 C 0.6253(4) 0.8532(5) 0.1154(3)
C29_4 C 0.6456(4) 0.8877(6) 0.1656(3)
H20_4 H 0.6913 0.9047 0.1827
C30_4 C 0.5983(4) 0.8974(6) 0.1912(4)
H21_4 H 0.6119 0.9222 0.2256
C31_4 C 0.6737(5) 0.7796(7) 0.0564(5)
H22_4 H 0.6407 0.7397 0.0449
C32_4 C 0.7302(5) 0.7880(6) 0.0433(4)
H23_4 H 0.7432 0.7544 0.0203
C33_4 C 0.7306(4) 0.8818(5) 0.0957(3)
H24_4 H 0.7433 0.9269 0.1172
C34_4 C 0.8947(3) 0.8105(4) 0.6941(3)
H25_4 H 0.9321 0.7767 0.7098
C35_4 C 0.8367(3) 0.8160(4) 0.7058(2)
H26_4 H 0.8273 0.7853 0.7321
C36_4 C 0.8252(3) 0.8998(4) 0.6435(3)
H27_4 H 0.8073 0.9389 0.6172
C37_4 C 0.9340(3) 0.8789(4) 0.6269(3)
C38_4 C 0.9105(4) 0.9024(5) 0.5732(3)
H28_4 H 0.8632 0.9109 0.5543
C39_4 C 0.9568(4) 0.9133(5) 0.5474(3)
H29_4 H 0.9408 0.9319 0.5111
H35_4 H 0.9821 0.9374 0.3825
C51_4 C 0.9812(4) 0.8935(5) 0.3117(3)
H36_4 H 0.9375 0.9124 0.2900
C55_4 C 0.9466(3) 0.8751(5) 0.1928(3)
H39_4 H 0.9283 0.9224 0.1991
C56_4 C 0.9672(4) 0.7763(5) 0.1531(3)
H40_4 H 0.9657 0.7408 0.1253
Cd2_2 Cd 0.86785(2) 0.89260(3) 0.06191(2)
N1_4 N 0.6253(3) 0.8589(3) 0.59726(19)
N2_4 N 0.5612(3) 0.8386(3) 0.5113(2)
N3_4 N 0.0836(3) 0.9127(3) 0.0677(2)
N5_4 N 0.6737(3) 0.8404(4) 0.0898(3)
N6_4 N 0.7661(3) 0.8527(4) 0.0683(3)
N7_4 N 0.7935(3) 0.8718(3) 0.6749(2)
N8_4 N 0.8868(3) 0.8651(3) 0.6541(2)
N9_4 N 0.9930(3) 0.8331(4) 0.2320(2)
N10_4 N 0.9301(3) 0.8425(4) 0.1449(2)
O1_4 O 0.8633(2) 0.7693(3) 0.01165(15)
N13_2 N 0.9712(3) 0.9062(3) 0.0473(2)
O7_2 O 0.6808(2) 0.7821(3) 0.72337(16)
O8_2 O 0.7316(2) 0.8861(3) 0.76919(17)
H17_4 H 0.0754 0.9129 0.9852
C67_4 C 0.8294(3) 0.8059(4) 0.9696(2)
C68_4 C 0.8005(3) 0.7657(3) 0.9161(2)
C69_4 C 0.7712(3) 0.8072(3) 0.8685(2)
H49_4 H 0.7698 0.8616 0.8699
C70_4 C 0.7438(3) 0.7697(3) 0.8186(2)
C71_4 C 0.7464(3) 0.6894(3) 0.8168(2)
H50_4 H 0.7280 0.6634 0.7830
C72_4 C 0.7756(3) 0.6480(3) 0.8642(2)
C73_4 C 0.8022(3) 0.6861(4) 0.9139(2)
H51_4 H 0.8216 0.6574 0.9465
C74_4 C 0.7158(3) 0.8150(4) 0.7665(2)
C75_4 C 0.7841(3) 0.5623(4) 0.8619(3)
O2_4 O 0.8185(2) 0.8779(2) 0.97039(16)
O6_4 O 0.7960(3) 0.5226(3) 0.90351(19)
C23_4 C 0.9844(3) 0.9060(4) 0.9997(3)
H16_4 H 0.9506 0.9028 0.9643
loop_
_geom_bond_atom_site_label_1
_geom_bond_atom_site_label_2
_geom_bond_site_symmetry_1
_geom_bond_site_symmetry_2
C64 H46 1_555 1_555
C65 H47 1_555 1_555
C66 C65 1_555 1_555
N12 C64 1_555 1_555
Cd4 N12 1_555 1_555
C65 N12 1_555 1_555
C1 H1 1_555 1_555
C2 H2 1_555 1_555
C3 C2 1_555 1_555
H3 C3 1_555 1_555
C34 H25 1_555 1_555
C35 C34 1_555 1_555
H26 C35 1_555 1_555
C36 H27 1_555 1_555
C37 C38 1_555 1_555
C38 H28 1_555 1_555
C39 C38 1_555 1_555
H29 C39 1_555 1_555
C40 C39 1_555 1_555
C41 C40 1_555 1_555
H30 C41 1_555 1_555
C42 C37 1_555 1_555
H31 C42 1_555 1_555
C43 C40 1_555 1_555
C48 C43 1_555 1_555
H34 C48 1_555 1_555
C58 C47 1_555 1_555
C59 C58 1_555 1_555
H42 C59 1_555 1_555
C60 C59 1_555 1_555
H43 C60 1_555 1_555
C61 C60 1_555 1_555
C62 C61 1_555 1_555
H44 C62 1_555 1_555
C63 C58 1_555 1_555
H45 C63 1_555 1_555
Cd4 N1 1_555 1_555
N1 C1 1_555 1_555
N2 C1 1_555 1_555
N7 C35 1_555 1_555
N8 C34 1_555 1_555
N11 C61 1_555 1_555
O7 Cd4 1_555 1_555
O8 Cd4 1_555 1_555
O9 Cd4 1_555 1_555
C2 N1 1_555 1_555
C3 N2 1_555 1_555
C36 N7 1_555 1_555
C36 N8 1_555 1_555
C37 N8 1_555 1_555
C41 C42 1_555 1_555
C47 C48 1_555 1_555
C62 C63 1_555 1_555
Cd4 N7 1_555 1_555
H6 C8 1_555 1_555
C9 C4 1_555 1_555
H7 C9 1_555 1_555
H10 C15 1_555 1_555
C26 C25 1_555 1_555
C27 C26 1_555 1_555
H19 C27 1_555 1_555
C28 C27 1_555 1_555
C29 C28 1_555 1_555
H20 C29 1_555 1_555
C30 C25 1_555 1_555
H21 C30 1_555 1_555
C31 H22 1_555 1_555
C32 C31 1_555 1_555
H23 C32 1_555 1_555
C33 H24 1_555 1_555
H32 C44 1_555 1_555
C45 C44 1_555 1_555
C46 C45 1_555 1_555
H33 C46 1_555 1_555
C49 C45 1_555 1_555
C50 C49 1_555 1_555
H35 C50 1_555 1_555
C51 C50 1_555 1_555
H36 C51 1_555 1_555
C52 C51 1_555 1_555
C53 C52 1_555 1_555
H37 C53 1_555 1_555
C54 C49 1_555 1_555
H38 C54 1_555 1_555
C55 H39 1_555 1_555
C56 H40 1_555 1_555
C57 C56 1_555 1_555
H41 C57 1_555 1_555
C67 C68 1_555 1_555
C68 C69 1_555 1_555
C69 H49 1_555 1_555
C70 C69 1_555 1_555
C71 C70 1_555 1_555
H50 C71 1_555 1_555
C72 C71 1_555 1_555
C73 C68 1_555 1_555
H51 C73 1_555 1_555
C74 C70 1_555 1_555
C75 C72 1_555 1_555
Cd2 Cl1 1_555 1_555
N5 C28 1_555 1_555
N6 C32 1_555 1_555
N9 C52 1_555 1_555
N10 C55 1_555 1_555
O1 C67 1_555 1_555
O2 C67 1_555 1_555
O7 C74 1_555 1_555
O8 C74 1_555 1_555
O5 C75 1_555 1_555
O6 C75 1_555 1_555
N13 Cd2 1_555 1_555
C8 C9 1_555 1_555
C29 C30 1_555 1_555
C31 N5 1_555 1_555
C33 N5 1_555 1_555
C33 N6 1_555 1_555
C53 C54 1_555 1_555
C55 N9 1_555 1_555
C56 N10 1_555 1_555
C57 N9 1_555 1_555
C72 C73 1_555 1_555
Cd2 N6 1_555 1_555
Cd2 N10 1_555 1_555
Cd2 O1 1_555 1_555
Cd2 O2 1_555 1_555
C5 H4 1_555 1_555
C6 C5 1_555 1_555
H5 C6 1_555 1_555
C7 C6 1_555 1_555
C10 C7 1_555 1_555
C11 C10 1_555 1_555
H8 C11 1_555 1_555
C12 C11 1_555 1_555
C13 C12 1_555 1_555
H9 C13 1_555 1_555
C14 C13 1_555 1_555
C16 C12 1_555 1_555
C17 C16 1_555 1_555
H11 C17 1_555 1_555
C18 C17 1_555 1_555
H12 C18 1_555 1_555
C19 C18 1_555 1_555
C20 C19 1_555 1_555
H13 C20 1_555 1_555
C21 C16 1_555 1_555
H14 C21 1_555 1_555
C22 H15 1_555 1_555
C23 H16 1_555 1_555
C24 C23 1_555 1_555
H17 C24 1_555 1_555
N3 C19 1_555 1_555
N13 C22 1_555 1_555
C20 C21 1_555 1_555
C22 N3 1_555 1_555
C23 N13 1_555 1_555
C24 N3 1_555 1_555
Cd6 N4 1_555 1_555
C67_2 C68_2 1_555 1_555
C68_2 C69_2 1_555 1_555
C69_2 H49_2 1_555 1_555
C70_2 C69_2 1_555 1_555
C71_2 C70_2 1_555 1_555
H50_2 C71_2 1_555 1_555
C72_2 C71_2 1_555 1_555
C73_2 C68_2 1_555 1_555
H51_2 C73_2 1_555 1_555
C74_2 C70_2 1_555 1_555
C75_2 C72_2 1_555 1_555
O2_2 C67_2 1_555 1_555
O3 C74_2 1_555 1_555
O4 C74_2 1_555 1_555
O9 C75_2 1_555 1_555
O6_2 C75_2 1_555 1_555
Cd5 O3 1_555 1_555
C72_2 C73_2 1_555 1_555
O4 Cd5 1_555 1_555
C1_2 H1_2 1_555 1_555
C2_2 H2_2 1_555 1_555
C3_2 C2_2 1_555 1_555
H3_2 C3_2 1_555 1_555
C4_2 C5_2 1_555 1_555
C5_2 H4_2 1_555 1_555
C6_2 C5_2 1_555 1_555
H5_2 C6_2 1_555 1_555
C7_2 C6_2 1_555 1_555
C8_2 C7_2 1_555 1_555
H6_2 C8_2 1_555 1_555
C9_2 C4_2 1_555 1_555
H7_2 C9_2 1_555 1_555
C10_2 C7_2 1_555 1_555
C11_2 C10_2 1_555 1_555
H8_2 C11_2 1_555 1_555
C12_2 C11_2 1_555 1_555
C13_2 C12_2 1_555 1_555
H9_2 C13_2 1_555 1_555
C14_2 C13_2 1_555 1_555
C15_2 C10_2 1_555 1_555
H10_2 C15_2 1_555 1_555
C16_2 C12_2 1_555 1_555
C17_2 C16_2 1_555 1_555
H11_2 C17_2 1_555 1_555
C18_2 C17_2 1_555 1_555
H12_2 C18_2 1_555 1_555
C19_2 C18_2 1_555 1_555
C20_2 C19_2 1_555 1_555
H13_2 C20_2 1_555 1_555
C21_2 C16_2 1_555 1_555
H14_2 C21_2 1_555 1_555
C22_2 H15_2 1_555 1_555
C25_2 C14_2 1_555 1_555
C26_2 C25_2 1_555 1_555
H18_2 C26_2 1_555 1_555
C27_2 C26_2 1_555 1_555
H19_2 C27_2 1_555 1_555
C28_2 C27_2 1_555 1_555
C29_2 C28_2 1_555 1_555
H20_2 C29_2 1_555 1_555
C30_2 C25_2 1_555 1_555
H21_2 C30_2 1_555 1_555
C31_2 H22_2 1_555 1_555
C32_2 C31_2 1_555 1_555
H23_2 C32_2 1_555 1_555
C33_2 H24_2 1_555 1_555
C34_2 H25_2 1_555 1_555
C35_2 C34_2 1_555 1_555
H26_2 C35_2 1_555 1_555
C36_2 H27_2 1_555 1_555
C37_2 C38_2 1_555 1_555
C38_2 H28_2 1_555 1_555
C39_2 C38_2 1_555 1_555
H29_2 C39_2 1_555 1_555
H36_2 C51_2 1_555 1_555
C55_2 H39_2 1_555 1_555
C56_2 H40_2 1_555 1_555
Cd5 N1_2 1_555 1_555
N1_2 C1_2 1_555 1_555
N2_2 C1_2 1_555 1_555
N3_2 C19_2 1_555 1_555
N5_2 C28_2 1_555 1_555
N6_2 C32_2 1_555 1_555
N7_2 C35_2 1_555 1_555
N8_2 C34_2 1_555 1_555
N10_2 C55_2 1_555 1_555
N14 Cd5 1_555 1_555
C2_2 N1_2 1_555 1_555
C3_2 N2_2 1_555 1_555
C4_2 N2_2 1_555 1_555
C8_2 C9_2 1_555 1_555
C14_2 C15_2 1_555 1_555
C20_2 C21_2 1_555 1_555
C22_2 N3_2 1_555 1_555
C24_2 N3_2 1_555 1_555
C29_2 C30_2 1_555 1_555
C31_2 N5_2 1_555 1_555
C33_2 N5_2 1_555 1_555
C33_2 N6_2 1_555 1_555
C36_2 N7_2 1_555 1_555
C36_2 N8_2 1_555 1_555
C37_2 N8_2 1_555 1_555
C55_2 N9_2 1_555 1_555
C56_2 N10_2 1_555 1_555
Cd5 N7_2 1_555 1_555
Cd6 N6_2 1_555 1_555
Cd6 N10_2 1_555 1_555
Cd6 O1_2 1_555 1_555
C41_2 C40_2 1_555 1_555
H30_2 C41_2 1_555 1_555
H31_2 C42_2 1_555 1_555
C43_2 C40_2 1_555 1_555
C44_2 C43_2 1_555 1_555
H32_2 C44_2 1_555 1_555
C45_2 C44_2 1_555 1_555
C46_2 C45_2 1_555 1_555
H33_2 C46_2 1_555 1_555
C47_2 C46_2 1_555 1_555
C48_2 C43_2 1_555 1_555
H34_2 C48_2 1_555 1_555
C49_2 C45_2 1_555 1_555
C50_2 C49_2 1_555 1_555
C53_2 C52_2 1_555 1_555
H37_2 C53_2 1_555 1_555
C54_2 C49_2 1_555 1_555
H38_2 C54_2 1_555 1_555
H41_2 C57_2 1_555 1_555
C58_2 C47_2 1_555 1_555
C59_2 C58_2 1_555 1_555
H42_2 C59_2 1_555 1_555
C60_2 C59_2 1_555 1_555
H43_2 C60_2 1_555 1_555
C61_2 C60_2 1_555 1_555
C62_2 C61_2 1_555 1_555
H44_2 C62_2 1_555 1_555
C63_2 C58_2 1_555 1_555
H45_2 C63_2 1_555 1_555
C64_2 H46_2 1_555 1_555
C65_2 H47_2 1_555 1_555
C66_2 C65_2 1_555 1_555
H48_2 C66_2 1_555 1_555
N11_2 C61_2 1_555 1_555
N14 C64_2 1_555 1_555
C41_2 C42_2 1_555 1_555
C47_2 C48_2 1_555 1_555
C53_2 C54_2 1_555 1_555
C62_2 C63_2 1_555 1_555
C64_2 N11_2 1_555 1_555
C65_2 N14 1_555 1_555
C66_2 N11_2 1_555 1_555
C23_2 H16_2 1_555 1_555
C5_3 H4_3 1_555 1_555
C6_3 C5_3 1_555 1_555
H5_3 C6_3 1_555 1_555
C7_3 C6_3 1_555 1_555
C10_3 C7_3 1_555 1_555
C11_3 C10_3 1_555 1_555
H8_3 C11_3 1_555 1_555
C12_3 C11_3 1_555 1_555
C13_3 C12_3 1_555 1_555
H9_3 C13_3 1_555 1_555
C14_3 C13_3 1_555 1_555
C16_3 C12_3 1_555 1_555
C17_3 C16_3 1_555 1_555
H11_3 C17_3 1_555 1_555
C18_3 C17_3 1_555 1_555
H12_3 C18_3 1_555 1_555
C19_3 C18_3 1_555 1_555
C20_3 C19_3 1_555 1_555
H13_3 C20_3 1_555 1_555
C21_3 C16_3 1_555 1_555
H14_3 C21_3 1_555 1_555
C22_3 H15_3 1_555 1_555
C23_3 H16_3 1_555 1_555
C24_3 C23_3 1_555 1_555
H17_3 C24_3 1_555 1_555
N3_3 C19_3 1_555 1_555
N4_2 C22_3 1_555 1_555
Cd6_2 N4_2 1_555 1_555
C20_3 C21_3 1_555 1_555
C22_3 N3_3 1_555 1_555
C23_3 N4_2 1_555 1_555
C24_3 N3_3 1_555 1_555
H6_3 C8_3 1_555 1_555
C9_3 C4_3 1_555 1_555
H7_3 C9_3 1_555 1_555
H10_3 C15_3 1_555 1_555
C26_3 C25_3 1_555 1_555
C27_3 C26_3 1_555 1_555
H19_3 C27_3 1_555 1_555
C28_3 C27_3 1_555 1_555
C29_3 C28_3 1_555 1_555
H20_3 C29_3 1_555 1_555
C30_3 C25_3 1_555 1_555
H21_3 C30_3 1_555 1_555
C31_3 H22_3 1_555 1_555
C32_3 C31_3 1_555 1_555
H23_3 C32_3 1_555 1_555
C33_3 H24_3 1_555 1_555
H32_3 C44_3 1_555 1_555
C45_3 C44_3 1_555 1_555
C46_3 C45_3 1_555 1_555
H33_3 C46_3 1_555 1_555
C49_3 C45_3 1_555 1_555
C50_3 C49_3 1_555 1_555
H35_3 C50_3 1_555 1_555
C51_3 C50_3 1_555 1_555
H36_3 C51_3 1_555 1_555
C52_3 C51_3 1_555 1_555
C53_3 C52_3 1_555 1_555
H37_3 C53_3 1_555 1_555
C54_3 C49_3 1_555 1_555
H38_3 C54_3 1_555 1_555
C55_3 H39_3 1_555 1_555
C56_3 H40_3 1_555 1_555
C57_3 C56_3 1_555 1_555
H41_3 C57_3 1_555 1_555
C67_3 C68_3 1_555 1_555
C68_3 C69_3 1_555 1_555
C69_3 H49_3 1_555 1_555
C70_3 C69_3 1_555 1_555
C71_3 C70_3 1_555 1_555
H50_3 C71_3 1_555 1_555
C72_3 C71_3 1_555 1_555
C73_3 C68_3 1_555 1_555
H51_3 C73_3 1_555 1_555
C74_3 C70_3 1_555 1_555
C75_3 C72_3 1_555 1_555
Cd6_2 Cl1_3 1_555 1_555
N5_3 C28_3 1_555 1_555
N6_3 C32_3 1_555 1_555
N9_3 C52_3 1_555 1_555
N10_3 C55_3 1_555 1_555
O1_3 C67_3 1_555 1_555
O2_3 C67_3 1_555 1_555
O3_2 C74_3 1_555 1_555
O4_2 C74_3 1_555 1_555
O5_2 C75_3 1_555 1_555
O6_3 C75_3 1_555 1_555
Cd3 O3_2 1_555 1_555
C8_3 C9_3 1_555 1_555
C29_3 C30_3 1_555 1_555
C31_3 N5_3 1_555 1_555
C33_3 N5_3 1_555 1_555
C33_3 N6_3 1_555 1_555
C53_3 C54_3 1_555 1_555
C55_3 N9_3 1_555 1_555
C56_3 N10_3 1_555 1_555
C57_3 N9_3 1_555 1_555
C72_3 C73_3 1_555 1_555
Cd6_2 N6_3 1_555 1_555
Cd6_2 N10_3 1_555 1_555
Cd6_2 O1_3 1_555 1_555
Cd6_2 O2_3 1_555 1_555
O4_2 Cd3 1_555 1_555
C1_3 H1_3 1_555 1_555
C2_3 H2_3 1_555 1_555
C3_3 C2_3 1_555 1_555
H3_3 C3_3 1_555 1_555
C34_3 H25_3 1_555 1_555
C35_3 C34_3 1_555 1_555
H26_3 C35_3 1_555 1_555
C36_3 H27_3 1_555 1_555
C37_3 C38_3 1_555 1_555
C38_3 H28_3 1_555 1_555
C39_3 C38_3 1_555 1_555
H29_3 C39_3 1_555 1_555
C40_3 C39_3 1_555 1_555
C41_3 C40_3 1_555 1_555
H30_3 C41_3 1_555 1_555
C42_3 C37_3 1_555 1_555
H31_3 C42_3 1_555 1_555
C43_3 C40_3 1_555 1_555
C48_3 C43_3 1_555 1_555
H34_3 C48_3 1_555 1_555
C58_3 C47_3 1_555 1_555
C59_3 C58_3 1_555 1_555
H42_3 C59_3 1_555 1_555
C60_3 C59_3 1_555 1_555
H43_3 C60_3 1_555 1_555
C61_3 C60_3 1_555 1_555
C62_3 C61_3 1_555 1_555
H44_3 C62_3 1_555 1_555
C63_3 C58_3 1_555 1_555
H45_3 C63_3 1_555 1_555
Cd3 N1_3 1_555 1_555
N1_3 C1_3 1_555 1_555
N2_3 C1_3 1_555 1_555
N7_3 C35_3 1_555 1_555
N8_3 C34_3 1_555 1_555
N11_3 C61_3 1_555 1_555
N14_2 Cd3 1_555 1_555
O9_2 Cd3 1_555 1_555
C2_3 N1_3 1_555 1_555
C3_3 N2_3 1_555 1_555
C36_3 N7_3 1_555 1_555
C36_3 N8_3 1_555 1_555
C37_3 N8_3 1_555 1_555
C41_3 C42_3 1_555 1_555
C47_3 C48_3 1_555 1_555
C62_3 C63_3 1_555 1_555
Cd3 N7_3 1_555 1_555
C64_3 H46_3 1_555 1_555
C65_3 H47_3 1_555 1_555
C66_3 C65_3 1_555 1_555
N14_2 C64_3 1_555 1_555
C65_3 N14_2 1_555 1_555
C41_4 C40_4 1_555 1_555
H30_4 C41_4 1_555 1_555
H31_4 C42_4 1_555 1_555
C43_4 C40_4 1_555 1_555
C44_4 C43_4 1_555 1_555
H32_4 C44_4 1_555 1_555
C45_4 C44_4 1_555 1_555
C46_4 C45_4 1_555 1_555
H33_4 C46_4 1_555 1_555
C47_4 C46_4 1_555 1_555
C48_4 C43_4 1_555 1_555
H34_4 C48_4 1_555 1_555
C49_4 C45_4 1_555 1_555
C50_4 C49_4 1_555 1_555
C53_4 C52_4 1_555 1_555
H37_4 C53_4 1_555 1_555
C54_4 C49_4 1_555 1_555
H38_4 C54_4 1_555 1_555
H41_4 C57_4 1_555 1_555
C58_4 C47_4 1_555 1_555
C59_4 C58_4 1_555 1_555
H42_4 C59_4 1_555 1_555
C60_4 C59_4 1_555 1_555
H43_4 C60_4 1_555 1_555
C61_4 C60_4 1_555 1_555
C62_4 C61_4 1_555 1_555
H44_4 C62_4 1_555 1_555
C63_4 C58_4 1_555 1_555
H45_4 C63_4 1_555 1_555
C64_4 H46_4 1_555 1_555
C65_4 H47_4 1_555 1_555
C66_4 C65_4 1_555 1_555
H48_4 C66_4 1_555 1_555
N11_4 C61_4 1_555 1_555
N12_2 C64_4 1_555 1_555
Cd5_2 N12_2 1_555 1_555
C41_4 C42_4 1_555 1_555
C47_4 C48_4 1_555 1_555
C53_4 C54_4 1_555 1_555
C62_4 C63_4 1_555 1_555
C64_4 N11_4 1_555 1_555
C65_4 N12_2 1_555 1_555
C66_4 N11_4 1_555 1_555
C1_4 H1_4 1_555 1_555
C2_4 H2_4 1_555 1_555
C3_4 C2_4 1_555 1_555
H3_4 C3_4 1_555 1_555
C4_4 C5_4 1_555 1_555
C5_4 H4_4 1_555 1_555
C6_4 C5_4 1_555 1_555
H5_4 C6_4 1_555 1_555
C7_4 C6_4 1_555 1_555
C8_4 C7_4 1_555 1_555
H6_4 C8_4 1_555 1_555
C9_4 C4_4 1_555 1_555
H7_4 C9_4 1_555 1_555
C10_4 C7_4 1_555 1_555
C11_4 C10_4 1_555 1_555
H8_4 C11_4 1_555 1_555
C12_4 C11_4 1_555 1_555
C13_4 C12_4 1_555 1_555
H9_4 C13_4 1_555 1_555
C14_4 C13_4 1_555 1_555
C15_4 C10_4 1_555 1_555
H10_4 C15_4 1_555 1_555
C16_4 C12_4 1_555 1_555
C17_4 C16_4 1_555 1_555
H11_4 C17_4 1_555 1_555
C18_4 C17_4 1_555 1_555
H12_4 C18_4 1_555 1_555
C19_4 C18_4 1_555 1_555
C20_4 C19_4 1_555 1_555
H13_4 C20_4 1_555 1_555
C21_4 C16_4 1_555 1_555
H14_4 C21_4 1_555 1_555
C22_4 H15_4 1_555 1_555
C25_4 C14_4 1_555 1_555
C26_4 C25_4 1_555 1_555
H18_4 C26_4 1_555 1_555
C27_4 C26_4 1_555 1_555
H19_4 C27_4 1_555 1_555
C28_4 C27_4 1_555 1_555
C29_4 C28_4 1_555 1_555
H20_4 C29_4 1_555 1_555
C30_4 C25_4 1_555 1_555
H21_4 C30_4 1_555 1_555
C31_4 H22_4 1_555 1_555
C32_4 C31_4 1_555 1_555
H23_4 C32_4 1_555 1_555
C33_4 H24_4 1_555 1_555
C34_4 H25_4 1_555 1_555
C35_4 C34_4 1_555 1_555
H26_4 C35_4 1_555 1_555
C36_4 H27_4 1_555 1_555
C37_4 C38_4 1_555 1_555
C38_4 H28_4 1_555 1_555
C39_4 C38_4 1_555 1_555
H29_4 C39_4 1_555 1_555
H36_4 C51_4 1_555 1_555
C55_4 H39_4 1_555 1_555
C56_4 H40_4 1_555 1_555
Cd5_2 N1_4 1_555 1_555
N1_4 C1_4 1_555 1_555
N2_4 C1_4 1_555 1_555
N3_4 C19_4 1_555 1_555
N5_4 C28_4 1_555 1_555
N6_4 C32_4 1_555 1_555
N7_4 C35_4 1_555 1_555
N8_4 C34_4 1_555 1_555
N10_4 C55_4 1_555 1_555
N13_2 Cd2_2 1_555 1_555
O7_2 Cd5_2 1_555 1_555
O8_2 Cd5_2 1_555 1_555
C2_4 N1_4 1_555 1_555
C3_4 N2_4 1_555 1_555
C4_4 N2_4 1_555 1_555
C8_4 C9_4 1_555 1_555
C14_4 C15_4 1_555 1_555
C20_4 C21_4 1_555 1_555
C22_4 N3_4 1_555 1_555
C24_4 N3_4 1_555 1_555
C29_4 C30_4 1_555 1_555
C31_4 N5_4 1_555 1_555
C33_4 N5_4 1_555 1_555
C33_4 N6_4 1_555 1_555
C36_4 N7_4 1_555 1_555
C36_4 N8_4 1_555 1_555
C37_4 N8_4 1_555 1_555
C55_4 N9_4 1_555 1_555
C56_4 N10_4 1_555 1_555
Cd5_2 N7_4 1_555 1_555
Cd2_2 N6_4 1_555 1_555
Cd2_2 N10_4 1_555 1_555
Cd2_2 O1_4 1_555 1_555
C67_4 C68_4 1_555 1_555
C68_4 C69_4 1_555 1_555
C69_4 H49_4 1_555 1_555
C70_4 C69_4 1_555 1_555
C71_4 C70_4 1_555 1_555
H50_4 C71_4 1_555 1_555
C72_4 C71_4 1_555 1_555
C73_4 C68_4 1_555 1_555
H51_4 C73_4 1_555 1_555
C74_4 C70_4 1_555 1_555
C75_4 C72_4 1_555 1_555
O2_4 C67_4 1_555 1_555
O7_2 C74_4 1_555 1_555
O8_2 C74_4 1_555 1_555
O9_2 C75_4 1_555 1_555
O6_4 C75_4 1_555 1_555
C72_4 C73_4 1_555 1_555
C23_4 H16_4 1_555 1_555

#END
