
###############################################################################
#
# This file contains modified crystal structure data generated from the
# MOF subset of the Cambridge Structural Database (CSD) v543 
# hosted by the Cambridge Crystallographic Data Centre (CCDC).
#
# This work is licensed under the Creative Commons
# Attribution-NonCommercial-ShareAlike 4.0 International License.
# To view a copy of this license, visit
# http://creativecommons.org/licenses/by-nc-sa/4.0/
# or send a letter to
# Creative Commons, PO Box 1866, Mountain View, CA 94042, USA.
#
# CIF created using the CSD Python API on 29 September 2022
# The structure has been converted into the P1 space group
# The structure has a 3D framework
# The original CSD entry WIDQAE is in the monoclinic crystal system
# The framework has been calculated to contain at least 10.0% void space
# The void calculation uses a probe of radius 1.32A, grid spacing 0.4
#
###############################################################################

data_WIDQAE
_chemical_formula_moiety         '(C300 H204 Cd8 Cl4 N48 O24)n'
_symmetry_cell_setting           triclinic
_symmetry_space_group_name_H-M   'P 1'
_symmetry_Int_Tables_number      1
_space_group_name_Hall           'P 1'
loop_
_symmetry_equiv_pos_site_id
_symmetry_equiv_pos_as_xyz
1 x,y,z
_cell_length_a                   21.0432(4)
_cell_length_b                   17.4458(3)
_cell_length_c                   26.3825(4)
_cell_angle_alpha                90
_cell_angle_beta                 111.3592(19)
_cell_angle_gamma                90
_cell_volume                     9020.18
loop_
_atom_site_label
_atom_site_type_symbol
_atom_site_fract_x
_atom_site_fract_y
_atom_site_fract_z
C1 C 0.0230(3) 0.4412(4) 0.1483(3)
H1 H 0.0152 0.4448 0.1106
C2 C 0.0721(3) 0.4339(4) 0.2353(3)
H2 H 0.1066 0.4311 0.2705
C3 C 0.0048(3) 0.4328(4) 0.2252(3)
C34 C 0.1119(3) 0.3792(4) 0.0461(3)
H25 H 0.1364 0.4182 0.0359
C35 C 0.0777(3) 0.3001(4) 0.0937(3)
H26 H 0.0744 0.2736 0.1241
C36 C 0.0377(3) 0.2867(4) 0.0409(2)
H27 H 0.0021 0.2501 0.0276
Cd1 Cd 0.18859(2) 0.41342(2) 0.17704(2)
N1 N 0.0842(3) 0.4396(3) 0.1873(2)
N7 N 0.1234(2) 0.3577(3) 0.0965(2)
N8 N 0.0597(2) 0.3374(3) 0.0105(2)
N13 N 0.2927(2) 0.3728(3) 0.1746(2)
O7 O 0.2285(2) 0.3853(2) 0.26784(16)
O8 O 0.1791(2) 0.2816(2) 0.22250(16)
O9 O 0.2209(2) 0.5364(2) 0.18529(17)
C37 C 0.0341(3) 0.3436(4) 0.9521(2)
C41 C 0.0503(3) 0.3785(4) 0.8704(3)
H30 H 0.0795 0.3975 0.8530
C42 C 0.0750(3) 0.3725(4) 0.9263(3)
H31 H 0.1203 0.3883 0.9470
C48 C 0.0027(3) 0.3647(4) 0.7506(2)
H34 H 0.0497 0.3549 0.7702
C49 C 0.0291(3) 0.3715(5) 0.6657(3)
C50 C 0.0097(3) 0.3380(5) 0.6147(3)
C51 C 0.0561(4) 0.3286(5) 0.5883(3)
H36 H 0.0425 0.3047 0.5536
C52 C 0.1220(4) 0.3548(5) 0.6137(3)
C53 C 0.1423(4) 0.3877(6) 0.6647(4)
H37 H 0.1882 0.4040 0.6821
C54 C 0.0971(4) 0.3969(5) 0.6906(4)
H38 H 0.1116 0.4204 0.7255
C55 C 0.1698(5) 0.2812(6) 0.5544(4)
H39 H 0.1356 0.2429 0.5413
C56 C 0.2273(5) 0.2877(6) 0.5432(4)
H40 H 0.2412 0.2527 0.5216
C57 C 0.2277(4) 0.3824(5) 0.5952(3)
H41 H 0.2405 0.4272 0.6171
N9 N 0.1708(3) 0.3411(4) 0.5884(3)
N10 N 0.2631(3) 0.3529(4) 0.5678(3)
Cd6 Cd 0.36514(2) 0.39281(3) 0.56123(2)
H3 H 0.9832 0.4297 0.2511
C4 C 0.9015(3) 0.4344(4) 0.1376(3)
C5 C 0.8554(4) 0.4642(5) 0.1585(3)
H4 H 0.8713 0.4868 0.1937
C6 C 0.7860(4) 0.4614(5) 0.1283(3)
H5 H 0.7547 0.4825 0.1429
C7 C 0.7616(3) 0.4276(5) 0.0764(3)
C8 C 0.8100(4) 0.3968(6) 0.0579(3)
H6 H 0.7950 0.3720 0.0235
C9 C 0.8770(4) 0.4006(5) 0.0867(3)
H7 H 0.9083 0.3798 0.0719
C10 C 0.6873(3) 0.4182(5) 0.0448(3)
C11 C 0.6399(4) 0.4184(5) 0.0715(3)
H8 H 0.6555 0.4286 0.1094
C12 C 0.5713(3) 0.4039(5) 0.0435(3)
C16 C 0.5231(4) 0.3977(5) 0.0722(3)
C17 C 0.5456(4) 0.3749(5) 0.1273(3)
H11 H 0.5928 0.3653 0.1462
C18 C 0.5012(3) 0.3665(5) 0.1542(3)
H12 H 0.5179 0.3519 0.1915
C19 C 0.4317(3) 0.3791(4) 0.1271(3)
C20 C 0.4083(3) 0.4039(5) 0.0734(3)
H13 H 0.3612 0.4141 0.0546
C21 C 0.4550(4) 0.4137(5) 0.0474(3)
H14 H 0.4389 0.4323 0.0110
C22 C 0.3921(3) 0.3115(4) 0.1941(3)
H15 H 0.4294 0.2775 0.2099
C23 C 0.3354(3) 0.3165(4) 0.2059(3)
H16 H 0.3259 0.2857 0.2320
C24 C 0.3244(3) 0.4013(4) 0.1435(3)
H17 H 0.3069 0.4410 0.1176
N2 N 0.9731(3) 0.4370(3) 0.1689(2)
N3 N 0.3851(3) 0.3660(3) 0.1540(2)
C13 C 0.5487(4) 0.3895(5) 0.9875(3)
H9 H 0.5021 0.3773 0.9682
C14 C 0.5943(4) 0.3929(5) 0.9594(3)
C15 C 0.6633(4) 0.4068(5) 0.9894(3)
H10 H 0.6946 0.4085 0.9710
C25 C 0.5688(4) 0.3785(5) 0.9002(3)
C26 C 0.5056(4) 0.4070(5) 0.8668(3)
H18 H 0.4799 0.4373 0.8823
C27 C 0.4792(4) 0.3919(5) 0.8111(3)
H19 H 0.4354 0.4106 0.7891
C28 C 0.5170(3) 0.3501(4) 0.7884(3)
C29 C 0.5816(4) 0.3246(5) 0.8200(3)
H20 H 0.6086 0.2983 0.8036
C30 C 0.6067(3) 0.3375(5) 0.8753(3)
H21 H 0.6504 0.3183 0.8969
C31 C 0.4443(3) 0.3745(4) 0.6923(3)
H22 H 0.4254 0.4212 0.6989
C32 C 0.4652(4) 0.2777(5) 0.6522(3)
H23 H 0.4639 0.2423 0.6245
C33 C 0.5044(4) 0.2700(5) 0.7054(3)
H24 H 0.5353 0.2294 0.7216
C38 C 0.9682(3) 0.3203(5) 0.9221(3)
H28 H 0.9398 0.2997 0.9397
C39 C 0.9444(3) 0.3278(5) 0.8658(3)
H29 H 0.8991 0.3119 0.8452
C40 C 0.9837(3) 0.3573(4) 0.8387(2)
C43 C 0.9570(3) 0.3673(4) 0.7785(3)
C44 C 0.8882(3) 0.3822(3) 0.7490(2)
H32 H 0.8572 0.3850 0.7677
C45 C 0.8638(4) 0.3930(4) 0.6928(3)
C46 C 0.9103(3) 0.3915(4) 0.6658(3)
H33 H 0.8945 0.4010 0.6278
C47 C 0.9797(3) 0.3764(4) 0.6941(3)
H35 H 0.9640 0.3210 0.5973
C58 C 0.7903(3) 0.4037(3) 0.6606(3)
C59 C 0.7428(3) 0.3639(4) 0.6756(2)
H42 H 0.7580 0.3342 0.7080
C60 C 0.6729(3) 0.3663(4) 0.6441(2)
H43 H 0.6410 0.3378 0.6544
C61 C 0.6516(3) 0.4116(3) 0.5976(3)
C62 C 0.6971(3) 0.4548(4) 0.5833(3)
H44 H 0.6813 0.4874 0.5524
C63 C 0.7657(3) 0.4507(4) 0.6144(3)
H45 H 0.7970 0.4803 0.6043
C64 C 0.5287(3) 0.4101(4) 0.5852(3)
H46 H 0.5358 0.4107 0.6229
C65 C 0.4811(3) 0.4059(4) 0.4979(3)
H47 H 0.4472 0.4033 0.4624
C66 C 0.5492(4) 0.4098(4) 0.5091(3)
H48 H 0.5716 0.4104 0.4836
C67 C 0.3276(3) 0.3061(3) 0.4692(2)
C68 C 0.2980(3) 0.2653(3) 0.4151(2)
C69 C 0.2683(3) 0.3061(3) 0.3672(2)
H49 H 0.2659 0.3604 0.3686
C70 C 0.2423(3) 0.2696(3) 0.3177(2)
C71 C 0.2458(3) 0.1895(3) 0.3160(2)
H50 H 0.2273 0.1637 0.2820
C72 C 0.2764(3) 0.1470(3) 0.3637(2)
C73 C 0.3009(3) 0.1852(3) 0.4130(2)
H51 H 0.3198 0.1568 0.4458
C74 C 0.2141(3) 0.3151(3) 0.2655(2)
C75 C 0.2855(3) 0.0624(3) 0.3609(2)
Cl1 Cl 0.35936(11) 0.53038(12) 0.58775(9)
N5 N 0.4908(3) 0.3325(3) 0.7315(2)
N6 N 0.4282(3) 0.3429(3) 0.6440(2)
N11 N 0.5794(3) 0.4128(3) 0.5654(2)
N12 N 0.4684(3) 0.4064(3) 0.5461(2)
O1 O 0.3610(2) 0.2692(2) 0.51071(15)
O2 O 0.3144(2) 0.3773(2) 0.46931(17)
O5 O 0.2791(2) 0.0364(2) 0.31471(17)
O6 O 0.2994(3) 0.0222(3) 0.4028(2)
Cd5 Cd 0.31141(2) 0.91342(2) 0.32296(2)
C65_2 C 0.0189(3) 0.9059(4) 0.0021(3)
H47_2 H 0.0528 0.9033 0.0376
C67_2 C 0.1724(3) 0.8061(3) 0.0308(2)
C68_2 C 0.2020(3) 0.7653(3) 0.0849(2)
C69_2 C 0.2317(3) 0.8061(3) 0.1328(2)
H49_2 H 0.2341 0.8604 0.1314
C70_2 C 0.2577(3) 0.7696(3) 0.1823(2)
C71_2 C 0.2542(3) 0.6895(3) 0.1840(2)
H50_2 H 0.2727 0.6637 0.2180
C72_2 C 0.2236(3) 0.6470(3) 0.1363(2)
C73_2 C 0.1991(3) 0.6852(3) 0.0870(2)
H51_2 H 0.1802 0.6568 0.0542
C74_2 C 0.2859(3) 0.8151(3) 0.2345(2)
C75_2 C 0.2145(3) 0.5624(3) 0.1391(2)
O2_2 O 0.1856(2) 0.8773(2) 0.03069(17)
O3 O 0.2715(2) 0.8853(2) 0.23216(16)
O4 O 0.3209(2) 0.7816(2) 0.27750(16)
O6_2 O 0.2006(3) 0.5222(3) 0.0972(2)
C19_2 C 0.0683(3) 0.8791(4) 0.3729(3)
C20_2 C 0.0917(3) 0.9039(5) 0.4266(3)
H13_2 H 0.1388 0.9141 0.4454
C21_2 C 0.0450(4) 0.9137(5) 0.4526(3)
H14_2 H 0.0611 0.9323 0.4890
C22_2 C 0.1079(3) 0.8115(4) 0.3059(3)
H15_2 H 0.0706 0.7775 0.2901
C23_2 C 0.1646(3) 0.8165(4) 0.2941(3)
H16_2 H 0.1741 0.7857 0.2680
C24_2 C 0.1756(3) 0.9013(4) 0.3565(3)
H17_2 H 0.1931 0.9410 0.3824
H18_2 H 0.0201 0.9373 0.6177
C27_2 C 0.0208(4) 0.8919(5) 0.6889(3)
H19_2 H 0.0646 0.9106 0.7109
C31_2 C 0.0557(3) 0.8745(4) 0.8077(3)
H22_2 H 0.0746 0.9212 0.8011
C32_2 C 0.0348(4) 0.7777(5) 0.8478(3)
H23_2 H 0.0361 0.7423 0.8755
Cd2 Cd 0.13486(2) 0.89281(3) 0.93877(2)
N3_2 N 0.1149(3) 0.8660(3) 0.3460(2)
N4 N 0.2073(2) 0.8728(3) 0.3254(2)
N5_2 N 0.0092(3) 0.8325(3) 0.7685(2)
N6_2 N 0.0718(3) 0.8429(3) 0.8560(2)
N12_2 N 0.0316(3) 0.9064(3) 0.9539(2)
O1_2 O 0.1390(2) 0.7692(2) 0.98929(15)
N14 N 0.2369(3) 0.8529(4) 0.9322(3)
C1_2 C 0.4770(3) 0.9412(4) 0.3517(3)
H1_2 H 0.4848 0.9448 0.3894
C2_2 C 0.4279(3) 0.9339(4) 0.2647(3)
H2_2 H 0.3934 0.9311 0.2295
C3_2 C 0.4952(3) 0.9328(4) 0.2748(3)
H3_2 H 0.5168 0.9297 0.2489
C4_2 C 0.5985(3) 0.9344(4) 0.3624(3)
C5_2 C 0.6446(4) 0.9642(5) 0.3415(3)
H4_2 H 0.6287 0.9868 0.3063
C6_2 C 0.7140(4) 0.9614(5) 0.3717(3)
H5_2 H 0.7453 0.9825 0.3571
C7_2 C 0.7384(3) 0.9276(5) 0.4236(3)
C8_2 C 0.6900(4) 0.8968(6) 0.4421(3)
H6_2 H 0.7050 0.8720 0.4765
C9_2 C 0.6230(4) 0.9006(5) 0.4133(3)
H7_2 H 0.5917 0.8798 0.4281
C10_2 C 0.8127(3) 0.9182(5) 0.4552(3)
C11_2 C 0.8601(4) 0.9184(5) 0.4285(3)
H8_2 H 0.8445 0.9286 0.3906
C12_2 C 0.9287(3) 0.9039(5) 0.4565(3)
C13_2 C 0.9513(4) 0.8895(5) 0.5125(3)
H9_2 H 0.9979 0.8773 0.5318
C14_2 C 0.9057(4) 0.8929(5) 0.5406(3)
C15_2 C 0.8367(4) 0.9068(5) 0.5106(3)
H10_2 H 0.8054 0.9085 0.5290
C16_2 C 0.9769(4) 0.8977(5) 0.4278(3)
C17_2 C 0.9544(4) 0.8749(5) 0.3727(3)
H11_2 H 0.9072 0.8653 0.3538
C18_2 C 0.9988(3) 0.8665(5) 0.3458(3)
H12_2 H 0.9821 0.8519 0.3085
C25_2 C 0.9312(4) 0.8785(5) 0.5998(3)
C26_2 C 0.9944(4) 0.9070(5) 0.6332(3)
C28_2 C 0.9830(3) 0.8501(4) 0.7116(3)
C29_2 C 0.9184(4) 0.8246(5) 0.6800(3)
H20_2 H 0.8914 0.7983 0.6964
C30_2 C 0.8933(3) 0.8375(5) 0.6247(3)
H21_2 H 0.8496 0.8183 0.6031
C33_2 C 0.9956(4) 0.7700(5) 0.7946(3)
H24_2 H 0.9647 0.7294 0.7784
C34_2 C 0.3881(3) 0.8792(4) 0.4539(3)
H25_2 H 0.3636 0.9182 0.4641
C35_2 C 0.4223(3) 0.8001(4) 0.4063(3)
H26_2 H 0.4256 0.7736 0.3759
C36_2 C 0.4623(3) 0.7867(4) 0.4591(2)
H27_2 H 0.4979 0.7501 0.4724
C37_2 C 0.4659(3) 0.8436(4) 0.5479(2)
C38_2 C 0.5318(3) 0.8203(5) 0.5779(3)
H28_2 H 0.5602 0.7997 0.5603
C39_2 C 0.5556(3) 0.8278(5) 0.6342(3)
H29_2 H 0.6009 0.8119 0.6548
C40_2 C 0.5163(3) 0.8573(4) 0.6613(2)
C41_2 C 0.4497(3) 0.8785(4) 0.6296(3)
H30_2 H 0.4205 0.8975 0.6470
C42_2 C 0.4250(3) 0.8725(4) 0.5737(3)
H31_2 H 0.3797 0.8883 0.5530
C43_2 C 0.5430(3) 0.8673(4) 0.7215(3)
C44_2 C 0.6118(3) 0.8822(3) 0.7510(2)
H32_2 H 0.6428 0.8850 0.7323
C45_2 C 0.6362(4) 0.8930(4) 0.8072(3)
C46_2 C 0.5897(3) 0.8915(4) 0.8342(3)
H33_2 H 0.6055 0.9010 0.8722
C47_2 C 0.5203(3) 0.8764(4) 0.8059(3)
C48_2 C 0.4973(3) 0.8647(4) 0.7494(2)
H34_2 H 0.4503 0.8549 0.7298
C49_2 C 0.4709(3) 0.8715(5) 0.8343(3)
C50_2 C 0.4903(3) 0.8380(5) 0.8853(3)
H35_2 H 0.5360 0.8210 0.9027
C51_2 C 0.4439(4) 0.8286(5) 0.9117(3)
H36_2 H 0.4575 0.8047 0.9464
C52_2 C 0.3780(4) 0.8548(5) 0.8863(3)
C53_2 C 0.3577(4) 0.8877(6) 0.8353(4)
H37_2 H 0.3118 0.9040 0.8179
C54_2 C 0.4029(4) 0.8969(5) 0.8094(4)
H38_2 H 0.3884 0.9204 0.7745
C55_2 C 0.3302(5) 0.7812(6) 0.9456(4)
H39_2 H 0.3644 0.7429 0.9587
C56_2 C 0.2727(5) 0.7877(6) 0.9568(4)
H40_2 H 0.2588 0.7527 0.9784
C57_2 C 0.2723(4) 0.8824(5) 0.9048(3)
H41_2 H 0.2595 0.9272 0.8829
C58_2 C 0.7097(3) 0.9037(3) 0.8394(3)
C59_2 C 0.7572(3) 0.8639(4) 0.8244(2)
H42_2 H 0.7420 0.8342 0.7920
C60_2 C 0.8271(3) 0.8663(4) 0.8559(2)
H43_2 H 0.8590 0.8378 0.8456
C61_2 C 0.8484(3) 0.9116(3) 0.9024(3)
C62_2 C 0.8029(3) 0.9548(4) 0.9167(3)
H44_2 H 0.8187 0.9874 0.9476
C63_2 C 0.7343(3) 0.9507(4) 0.8856(3)
H45_2 H 0.7030 0.9803 0.8957
C64_2 C 0.9713(3) 0.9101(4) 0.9148(3)
H46_2 H 0.9642 0.9107 0.8771
C66_2 C 0.9508(4) 0.9098(4) 0.9909(3)
N1_2 N 0.4158(3) 0.9396(3) 0.3127(2)
N2_2 N 0.5269(3) 0.9370(3) 0.3311(2)
N7_2 N 0.3766(2) 0.8577(3) 0.4035(2)
N8_2 N 0.4403(2) 0.8374(3) 0.4895(2)
N9_2 N 0.3292(3) 0.8411(4) 0.9116(3)
N11_2 N 0.9206(3) 0.9128(3) 0.9346(2)
Cl1_2 Cl 0.14064(11) 0.03038(12) 0.91225(9)
H48_2 H 0.9284 0.9104 0.0164
Cd5_2 Cd 0.68859(2) 0.08658(2) 0.67704(2)
C13_3 C 0.4513(4) 0.6105(5) 0.0125(3)
H9_3 H 0.4979 0.6227 0.0318
C14_3 C 0.4057(4) 0.6071(5) 0.0406(3)
C15_3 C 0.3367(4) 0.5932(5) 0.0106(3)
H10_3 H 0.3054 0.5915 0.0290
C25_3 C 0.4312(4) 0.6215(5) 0.0998(3)
C26_3 C 0.4944(4) 0.5930(5) 0.1332(3)
H18_3 H 0.5201 0.5627 0.1177
C27_3 C 0.5208(4) 0.6081(5) 0.1889(3)
H19_3 H 0.5646 0.5894 0.2109
C28_3 C 0.4830(3) 0.6499(4) 0.2116(3)
C29_3 C 0.4184(4) 0.6754(5) 0.1800(3)
H20_3 H 0.3914 0.7017 0.1964
C30_3 C 0.3933(3) 0.6625(5) 0.1247(3)
H21_3 H 0.3496 0.6817 0.1031
C31_3 C 0.5557(3) 0.6255(4) 0.3077(3)
H22_3 H 0.5746 0.5788 0.3011
C32_3 C 0.5348(4) 0.7223(5) 0.3478(3)
H23_3 H 0.5361 0.7577 0.3755
C33_3 C 0.4956(4) 0.7300(5) 0.2946(3)
H24_3 H 0.4647 0.7706 0.2784
C38_3 C 0.0318(3) 0.6797(5) 0.0779(3)
H28_3 H 0.0602 0.7003 0.0603
C39_3 C 0.0556(3) 0.6722(5) 0.1342(3)
H29_3 H 0.1009 0.6881 0.1548
C40_3 C 0.0163(3) 0.6427(4) 0.1613(2)
C43_3 C 0.0430(3) 0.6327(4) 0.2215(3)
C44_3 C 0.1118(3) 0.6178(3) 0.2510(2)
H32_3 H 0.1428 0.6150 0.2323
C45_3 C 0.1362(4) 0.6070(4) 0.3072(3)
C46_3 C 0.0897(3) 0.6085(4) 0.3342(3)
H33_3 H 0.1055 0.5990 0.3722
C47_3 C 0.0203(3) 0.6236(4) 0.3059(3)
H35_3 H 0.0360 0.6790 0.4027
C58_3 C 0.2097(3) 0.5963(3) 0.3394(3)
C59_3 C 0.2572(3) 0.6361(4) 0.3244(2)
H42_3 H 0.2420 0.6658 0.2920
C60_3 C 0.3271(3) 0.6337(4) 0.3559(2)
H43_3 H 0.3590 0.6622 0.3456
C61_3 C 0.3484(3) 0.5884(3) 0.4024(3)
C62_3 C 0.3029(3) 0.5452(4) 0.4167(3)
H44_3 H 0.3187 0.5126 0.4476
C63_3 C 0.2343(3) 0.5493(4) 0.3856(3)
H45_3 H 0.2030 0.5197 0.3957
C64_3 C 0.4713(3) 0.5899(4) 0.4148(3)
H46_3 H 0.4642 0.5893 0.3771
C65_3 C 0.5189(3) 0.5941(4) 0.5021(3)
H47_3 H 0.5528 0.5967 0.5376
C66_3 C 0.4508(4) 0.5902(4) 0.4909(3)
H48_3 H 0.4284 0.5896 0.5164
C67_3 C 0.6724(3) 0.6939(3) 0.5308(2)
C68_3 C 0.7020(3) 0.7347(3) 0.5849(2)
C69_3 C 0.7317(3) 0.6939(3) 0.6328(2)
H49_3 H 0.7341 0.6396 0.6314
C70_3 C 0.7577(3) 0.7304(3) 0.6823(2)
C71_3 C 0.7542(3) 0.8105(3) 0.6840(2)
H50_3 H 0.7727 0.8363 0.7180
C72_3 C 0.7236(3) 0.8530(3) 0.6363(2)
C73_3 C 0.6991(3) 0.8148(3) 0.5870(2)
H51_3 H 0.6802 0.8432 0.5542
C74_3 C 0.7859(3) 0.6849(3) 0.7345(2)
C75_3 C 0.7145(3) 0.9376(3) 0.6391(2)
Cd2_2 Cd 0.63486(2) 0.60719(3) 0.43877(2)
Cl1_3 Cl 0.64064(11) 0.46962(12) 0.41225(9)
N5_3 N 0.5092(3) 0.6675(3) 0.2685(2)
N6_3 N 0.5718(3) 0.6571(3) 0.3560(2)
N11_3 N 0.4206(3) 0.5872(3) 0.4346(2)
N12_3 N 0.5316(3) 0.5936(3) 0.4539(2)
O1_3 O 0.6390(2) 0.7308(2) 0.48929(15)
O2_3 O 0.6856(2) 0.6227(2) 0.53069(17)
O3_2 O 0.7715(2) 0.6147(2) 0.73216(16)
O4_2 O 0.8209(2) 0.7184(2) 0.77750(16)
O5_2 O 0.7209(2) 0.9636(2) 0.68529(17)
O6_3 O 0.7006(3) 0.9778(3) 0.5972(2)
Cd3 Cd 0.81141(2) 0.58658(2) 0.82296(2)
N14_2 N 0.7369(3) 0.6471(4) 0.4322(3)
H3_3 H 0.0168 0.5703 0.7489
C4_3 C 0.0985(3) 0.5656(4) 0.8624(3)
C5_3 C 0.1446(4) 0.5358(5) 0.8415(3)
H4_3 H 0.1287 0.5132 0.8063
C6_3 C 0.2140(4) 0.5386(5) 0.8717(3)
H5_3 H 0.2453 0.5175 0.8571
C7_3 C 0.2384(3) 0.5724(5) 0.9236(3)
C8_3 C 0.1900(4) 0.6032(6) 0.9421(3)
H6_3 H 0.2050 0.6280 0.9765
C9_3 C 0.1230(4) 0.5994(5) 0.9133(3)
H7_3 H 0.0917 0.6202 0.9281
C10_3 C 0.3127(3) 0.5818(5) 0.9552(3)
C11_3 C 0.3601(4) 0.5816(5) 0.9285(3)
H8_3 H 0.3445 0.5714 0.8906
C12_3 C 0.4287(3) 0.5961(5) 0.9565(3)
C16_3 C 0.4769(4) 0.6023(5) 0.9278(3)
C17_3 C 0.4544(4) 0.6251(5) 0.8727(3)
H11_3 H 0.4072 0.6347 0.8538
C18_3 C 0.4988(3) 0.6335(5) 0.8458(3)
H12_3 H 0.4821 0.6481 0.8085
C19_3 C 0.5683(3) 0.6209(4) 0.8729(3)
C20_3 C 0.5917(3) 0.5961(5) 0.9266(3)
H13_3 H 0.6388 0.5859 0.9454
C21_3 C 0.5450(4) 0.5863(5) 0.9526(3)
H14_3 H 0.5611 0.5677 0.9890
C22_3 C 0.6079(3) 0.6885(4) 0.8059(3)
H15_3 H 0.5706 0.7225 0.7901
C23_3 C 0.6646(3) 0.6835(4) 0.7941(3)
H16_3 H 0.6741 0.7143 0.7680
C24_3 C 0.6756(3) 0.5987(4) 0.8565(3)
H17_3 H 0.6931 0.5590 0.8824
N2_3 N 0.0269(3) 0.5630(3) 0.8311(2)
N3_3 N 0.6149(3) 0.6340(3) 0.8460(2)
N4_2 N 0.7073(2) 0.6272(3) 0.8254(2)
C37_3 C 0.9659(3) 0.6564(4) 0.0479(2)
C41_3 C 0.9497(3) 0.6215(4) 0.1296(3)
H30_3 H 0.9205 0.6025 0.1470
C42_3 C 0.9250(3) 0.6275(4) 0.0737(3)
H31_3 H 0.8797 0.6117 0.0530
C48_3 C 0.9973(3) 0.6353(4) 0.2494(2)
H34_3 H 0.9503 0.6451 0.2298
C49_3 C 0.9709(3) 0.6285(5) 0.3343(3)
C50_3 C 0.9903(3) 0.6620(5) 0.3853(3)
C51_3 C 0.9439(4) 0.6714(5) 0.4117(3)
H36_3 H 0.9575 0.6953 0.4464
C52_3 C 0.8780(4) 0.6452(5) 0.3863(3)
C53_3 C 0.8577(4) 0.6123(6) 0.3353(4)
H37_3 H 0.8118 0.5960 0.3179
C54_3 C 0.9029(4) 0.6031(5) 0.3094(4)
H38_3 H 0.8884 0.5796 0.2745
C55_3 C 0.8302(5) 0.7188(6) 0.4456(4)
H39_3 H 0.8644 0.7571 0.4587
C56_3 C 0.7727(5) 0.7123(6) 0.4568(4)
H40_3 H 0.7588 0.7473 0.4784
C57_3 C 0.7723(4) 0.6176(5) 0.4048(3)
H41_3 H 0.7595 0.5728 0.3829
N9_3 N 0.8292(3) 0.6589(4) 0.4116(3)
C1_3 C 0.9770(3) 0.5588(4) 0.8517(3)
H1_3 H 0.9848 0.5552 0.8894
C2_3 C 0.9279(3) 0.5661(4) 0.7647(3)
H2_3 H 0.8934 0.5689 0.7295
C3_3 C 0.9952(3) 0.5672(4) 0.7748(3)
C34_3 C 0.8881(3) 0.6208(4) 0.9539(3)
H25_3 H 0.8636 0.5818 0.9641
C35_3 C 0.9223(3) 0.6999(4) 0.9063(3)
H26_3 H 0.9256 0.7264 0.8759
C36_3 C 0.9623(3) 0.7133(4) 0.9591(2)
H27_3 H 0.9979 0.7499 0.9724
N1_3 N 0.9158(3) 0.5604(3) 0.8127(2)
N7_3 N 0.8766(2) 0.6423(3) 0.9035(2)
N8_3 N 0.9403(2) 0.6626(3) 0.9895(2)
O9_2 O 0.7791(2) 0.4636(2) 0.81471(17)
C1_4 C 0.5230(3) 0.0588(4) 0.6483(3)
H1_4 H 0.5152 0.0552 0.6106
C2_4 C 0.5721(3) 0.0661(4) 0.7353(3)
H2_4 H 0.6066 0.0689 0.7705
C3_4 C 0.5048(3) 0.0672(4) 0.7252(3)
H3_4 H 0.4832 0.0703 0.7511
C4_4 C 0.4015(3) 0.0656(4) 0.6376(3)
C5_4 C 0.3554(4) 0.0358(5) 0.6585(3)
H4_4 H 0.3713 0.0132 0.6937
C6_4 C 0.2860(4) 0.0386(5) 0.6283(3)
H5_4 H 0.2547 0.0175 0.6429
C7_4 C 0.2616(3) 0.0724(5) 0.5764(3)
C8_4 C 0.3100(4) 0.1032(6) 0.5579(3)
H6_4 H 0.2950 0.1280 0.5235
C9_4 C 0.3770(4) 0.0994(5) 0.5867(3)
H7_4 H 0.4083 0.1202 0.5719
C10_4 C 0.1873(3) 0.0818(5) 0.5448(3)
C11_4 C 0.1399(4) 0.0816(5) 0.5715(3)
H8_4 H 0.1555 0.0714 0.6094
C12_4 C 0.0713(3) 0.0961(5) 0.5435(3)
C13_4 C 0.0487(4) 0.1105(5) 0.4875(3)
H9_4 H 0.0021 0.1227 0.4682
C14_4 C 0.0943(4) 0.1071(5) 0.4594(3)
C15_4 C 0.1633(4) 0.0932(5) 0.4894(3)
H10_4 H 0.1946 0.0915 0.4710
C16_4 C 0.0231(4) 0.1023(5) 0.5722(3)
C17_4 C 0.0456(4) 0.1251(5) 0.6273(3)
H11_4 H 0.0928 0.1347 0.6462
C18_4 C 0.0012(3) 0.1335(5) 0.6542(3)
H12_4 H 0.0179 0.1481 0.6915
C25_4 C 0.0688(4) 0.1215(5) 0.4002(3)
C26_4 C 0.0056(4) 0.0930(5) 0.3668(3)
C28_4 C 0.0170(3) 0.1499(4) 0.2884(3)
C29_4 C 0.0816(4) 0.1754(5) 0.3200(3)
H20_4 H 0.1086 0.2017 0.3036
C30_4 C 0.1067(3) 0.1625(5) 0.3753(3)
H21_4 H 0.1504 0.1817 0.3969
C33_4 C 0.0044(4) 0.2300(5) 0.2054(3)
H24_4 H 0.0353 0.2706 0.2216
C34_4 C 0.6119(3) 0.1208(4) 0.5461(3)
H25_4 H 0.6364 0.0818 0.5359
C35_4 C 0.5777(3) 0.1999(4) 0.5937(3)
H26_4 H 0.5744 0.2264 0.6241
C36_4 C 0.5377(3) 0.2133(4) 0.5409(2)
H27_4 H 0.5021 0.2499 0.5276
C37_4 C 0.5341(3) 0.1564(4) 0.4521(2)
C38_4 C 0.4682(3) 0.1797(5) 0.4221(3)
H28_4 H 0.4398 0.2003 0.4397
C39_4 C 0.4444(3) 0.1722(5) 0.3658(3)
H29_4 H 0.3991 0.1881 0.3452
C40_4 C 0.4837(3) 0.1427(4) 0.3387(2)
C41_4 C 0.5503(3) 0.1215(4) 0.3704(3)
H30_4 H 0.5795 0.1025 0.3530
C42_4 C 0.5750(3) 0.1275(4) 0.4263(3)
H31_4 H 0.6203 0.1117 0.4470
C43_4 C 0.4570(3) 0.1327(4) 0.2785(3)
C44_4 C 0.3882(3) 0.1178(3) 0.2490(2)
H32_4 H 0.3572 0.1150 0.2677
C45_4 C 0.3638(4) 0.1070(4) 0.1928(3)
C46_4 C 0.4103(3) 0.1085(4) 0.1658(3)
H33_4 H 0.3945 0.0990 0.1278
C47_4 C 0.4797(3) 0.1236(4) 0.1941(3)
C48_4 C 0.5027(3) 0.1353(4) 0.2506(2)
H34_4 H 0.5497 0.1451 0.2702
C49_4 C 0.5291(3) 0.1285(5) 0.1657(3)
C50_4 C 0.5097(3) 0.1620(5) 0.1147(3)
H35_4 H 0.4640 0.1790 0.0973
C51_4 C 0.5561(4) 0.1714(5) 0.0883(3)
H36_4 H 0.5425 0.1953 0.0536
C52_4 C 0.6220(4) 0.1452(5) 0.1137(3)
C53_4 C 0.6423(4) 0.1123(6) 0.1647(4)
H37_4 H 0.6882 0.0960 0.1821
C54_4 C 0.5971(4) 0.1031(5) 0.1906(4)
H38_4 H 0.6116 0.0796 0.2255
C55_4 C 0.6698(5) 0.2188(6) 0.0544(4)
H39_4 H 0.6356 0.2571 0.0413
C56_4 C 0.7273(5) 0.2123(6) 0.0432(4)
H40_4 H 0.7412 0.2473 0.0216
C57_4 C 0.7277(4) 0.1176(5) 0.0952(3)
H41_4 H 0.7405 0.0728 0.1171
C58_4 C 0.2903(3) 0.0963(3) 0.1606(3)
C59_4 C 0.2428(3) 0.1361(4) 0.1756(2)
H42_4 H 0.2580 0.1658 0.2080
C60_4 C 0.1729(3) 0.1337(4) 0.1441(2)
H43_4 H 0.1410 0.1622 0.1544
C61_4 C 0.1516(3) 0.0884(3) 0.0976(3)
C62_4 C 0.1971(3) 0.0452(4) 0.0833(3)
H44_4 H 0.1813 0.0126 0.0524
C63_4 C 0.2657(3) 0.0493(4) 0.1144(3)
H45_4 H 0.2970 0.0197 0.1043
C64_4 C 0.0287(3) 0.0899(4) 0.0852(3)
H46_4 H 0.0358 0.0893 0.1229
C66_4 C 0.0492(4) 0.0902(4) 0.0091(3)
N1_4 N 0.5842(3) 0.0604(3) 0.6873(2)
N2_4 N 0.4731(3) 0.0630(3) 0.6689(2)
N7_4 N 0.6234(2) 0.1423(3) 0.5965(2)
N8_4 N 0.5597(2) 0.1626(3) 0.5105(2)
N9_4 N 0.6708(3) 0.1589(4) 0.0884(3)
N10_2 N 0.7631(3) 0.1471(4) 0.0678(3)
N11_4 N 0.0794(3) 0.0872(3) 0.0654(2)
Cd6_2 Cd 0.86514(2) 0.10719(3) 0.06123(2)
N13_2 N 0.7927(2) 0.1272(3) 0.6746(2)
O7_2 O 0.7285(2) 0.1147(2) 0.76784(16)
O8_2 O 0.6791(2) 0.2184(2) 0.72250(16)
C19_4 C 0.9317(3) 0.1209(4) 0.6271(3)
C20_4 C 0.9083(3) 0.0961(5) 0.5734(3)
H13_4 H 0.8612 0.0859 0.5546
C21_4 C 0.9550(4) 0.0863(5) 0.5474(3)
H14_4 H 0.9389 0.0677 0.5110
C22_4 C 0.8921(3) 0.1885(4) 0.6941(3)
H15_4 H 0.9294 0.2225 0.7099
C23_4 C 0.8354(3) 0.1835(4) 0.7059(3)
H16_4 H 0.8259 0.2143 0.7320
C24_4 C 0.8244(3) 0.0987(4) 0.6435(3)
H17_4 H 0.8069 0.0590 0.6176
H18_4 H 0.9799 0.0627 0.3823
C27_4 C 0.9792(4) 0.1081(5) 0.3111(3)
H19_4 H 0.9354 0.0894 0.2891
C31_4 C 0.9443(3) 0.1255(4) 0.1923(3)
H22_4 H 0.9254 0.0788 0.1989
C32_4 C 0.9652(4) 0.2223(5) 0.1522(3)
H23_4 H 0.9639 0.2577 0.1245
N3_4 N 0.8851(3) 0.1340(3) 0.6540(2)
N5_4 N 0.9908(3) 0.1675(3) 0.2315(2)
N6_4 N 0.9282(3) 0.1571(3) 0.1440(2)
N12_4 N 0.9684(3) 0.0936(3) 0.0461(2)
O1_4 O 0.8610(2) 0.2308(2) 0.01071(15)
C65_4 C 0.9811(3) 0.0941(4) 0.9979(3)
H47_4 H 0.9472 0.0967 0.9624
C67_4 C 0.8276(3) 0.1939(3) 0.9692(2)
C68_4 C 0.7980(3) 0.2347(3) 0.9151(2)
C69_4 C 0.7683(3) 0.1939(3) 0.8672(2)
H49_4 H 0.7659 0.1396 0.8686
C70_4 C 0.7423(3) 0.2304(3) 0.8177(2)
C71_4 C 0.7458(3) 0.3105(3) 0.8160(2)
H50_4 H 0.7273 0.3363 0.7820
C72_4 C 0.7764(3) 0.3530(3) 0.8637(2)
C73_4 C 0.8009(3) 0.3148(3) 0.9130(2)
H51_4 H 0.8198 0.3432 0.9458
C74_4 C 0.7141(3) 0.1849(3) 0.7655(2)
C75_4 C 0.7855(3) 0.4376(3) 0.8609(2)
O2_4 O 0.8144(2) 0.1227(2) 0.96931(17)
O6_4 O 0.7994(3) 0.4778(3) 0.9028(2)
H48_4 H 0.0716 0.0896 0.9836
Cl1_4 Cl 0.85936(11) 0.96962(12) 0.08775(9)
loop_
_geom_bond_atom_site_label_1
_geom_bond_atom_site_label_2
_geom_bond_site_symmetry_1
_geom_bond_site_symmetry_2
C1 H1 1_555 1_555
C2 H2 1_555 1_555
C3 C2 1_555 1_555
C34 H25 1_555 1_555
C35 H26 1_555 1_555
C36 C35 1_555 1_555
H27 C36 1_555 1_555
Cd1 N1 1_555 1_555
N1 C1 1_555 1_555
N7 C34 1_555 1_555
N8 C34 1_555 1_555
N13 Cd1 1_555 1_555
O7 Cd1 1_555 1_555
O8 Cd1 1_555 1_555
O9 Cd1 1_555 1_555
C2 N1 1_555 1_555
C35 N7 1_555 1_555
C36 N8 1_555 1_555
Cd1 N7 1_555 1_555
H30 C41 1_555 1_555
C42 C37 1_555 1_555
H31 C42 1_555 1_555
H34 C48 1_555 1_555
C50 C49 1_555 1_555
C51 C50 1_555 1_555
H36 C51 1_555 1_555
C52 C51 1_555 1_555
C53 C52 1_555 1_555
H37 C53 1_555 1_555
C54 C49 1_555 1_555
H38 C54 1_555 1_555
C55 H39 1_555 1_555
C56 C55 1_555 1_555
H40 C56 1_555 1_555
C57 H41 1_555 1_555
N9 C52 1_555 1_555
N10 C56 1_555 1_555
Cd6 N10 1_555 1_555
C41 C42 1_555 1_555
C53 C54 1_555 1_555
C55 N9 1_555 1_555
C57 N9 1_555 1_555
C57 N10 1_555 1_555
C4 C5 1_555 1_555
C5 H4 1_555 1_555
C6 C5 1_555 1_555
H5 C6 1_555 1_555
C7 C6 1_555 1_555
C8 C7 1_555 1_555
H6 C8 1_555 1_555
C9 C4 1_555 1_555
H7 C9 1_555 1_555
C10 C7 1_555 1_555
C11 C10 1_555 1_555
H8 C11 1_555 1_555
C12 C11 1_555 1_555
C16 C12 1_555 1_555
C17 C16 1_555 1_555
H11 C17 1_555 1_555
C18 C17 1_555 1_555
H12 C18 1_555 1_555
C19 C18 1_555 1_555
C20 C19 1_555 1_555
H13 C20 1_555 1_555
C21 C16 1_555 1_555
H14 C21 1_555 1_555
C22 H15 1_555 1_555
C23 C22 1_555 1_555
H16 C23 1_555 1_555
C24 H17 1_555 1_555
N3 C19 1_555 1_555
N13 C23 1_555 1_555
C4 N2 1_555 1_555
C8 C9 1_555 1_555
C20 C21 1_555 1_555
C22 N3 1_555 1_555
C24 N3 1_555 1_555
C24 N13 1_555 1_555
H9 C13 1_555 1_555
C14 C13 1_555 1_555
H10 C15 1_555 1_555
C25 C14 1_555 1_555
C26 C25 1_555 1_555
H18 C26 1_555 1_555
C27 C26 1_555 1_555
H19 C27 1_555 1_555
C28 C27 1_555 1_555
C29 C28 1_555 1_555
H20 C29 1_555 1_555
C30 C25 1_555 1_555
H21 C30 1_555 1_555
C31 H22 1_555 1_555
C32 H23 1_555 1_555
C33 C32 1_555 1_555
H24 C33 1_555 1_555
C38 H28 1_555 1_555
C39 C38 1_555 1_555
H29 C39 1_555 1_555
C40 C39 1_555 1_555
C43 C40 1_555 1_555
C44 C43 1_555 1_555
H32 C44 1_555 1_555
C45 C44 1_555 1_555
C46 C45 1_555 1_555
H33 C46 1_555 1_555
C47 C46 1_555 1_555
C58 C45 1_555 1_555
C59 C58 1_555 1_555
H42 C59 1_555 1_555
C60 C59 1_555 1_555
H43 C60 1_555 1_555
C61 C60 1_555 1_555
C62 C61 1_555 1_555
H44 C62 1_555 1_555
C63 C58 1_555 1_555
H45 C63 1_555 1_555
C64 H46 1_555 1_555
C65 H47 1_555 1_555
C66 C65 1_555 1_555
H48 C66 1_555 1_555
C67 C68 1_555 1_555
C68 C69 1_555 1_555
C69 H49 1_555 1_555
C70 C69 1_555 1_555
C71 C70 1_555 1_555
H50 C71 1_555 1_555
C72 C71 1_555 1_555
C73 C68 1_555 1_555
H51 C73 1_555 1_555
C74 C70 1_555 1_555
C75 C72 1_555 1_555
Cd6 Cl1 1_555 1_555
N5 C28 1_555 1_555
N6 C31 1_555 1_555
N11 C61 1_555 1_555
N12 C64 1_555 1_555
O1 C67 1_555 1_555
O2 C67 1_555 1_555
O7 C74 1_555 1_555
O8 C74 1_555 1_555
O5 C75 1_555 1_555
O6 C75 1_555 1_555
C14 C15 1_555 1_555
C29 C30 1_555 1_555
C31 N5 1_555 1_555
C32 N6 1_555 1_555
C33 N5 1_555 1_555
C62 C63 1_555 1_555
C64 N11 1_555 1_555
C65 N12 1_555 1_555
C66 N11 1_555 1_555
C72 C73 1_555 1_555
Cd6 N6 1_555 1_555
Cd6 N12 1_555 1_555
Cd6 O1 1_555 1_555
Cd6 O2 1_555 1_555
C65_2 H47_2 1_555 1_555
C67_2 C68_2 1_555 1_555
C68_2 C69_2 1_555 1_555
C69_2 H49_2 1_555 1_555
C70_2 C69_2 1_555 1_555
C71_2 C70_2 1_555 1_555
H50_2 C71_2 1_555 1_555
C72_2 C71_2 1_555 1_555
C73_2 C68_2 1_555 1_555
H51_2 C73_2 1_555 1_555
C74_2 C70_2 1_555 1_555
C75_2 C72_2 1_555 1_555
O2_2 C67_2 1_555 1_555
O3 C74_2 1_555 1_555
O4 C74_2 1_555 1_555
O9 C75_2 1_555 1_555
O6_2 C75_2 1_555 1_555
Cd5 O3 1_555 1_555
C72_2 C73_2 1_555 1_555
O4 Cd5 1_555 1_555
C20_2 C19_2 1_555 1_555
H13_2 C20_2 1_555 1_555
H14_2 C21_2 1_555 1_555
C22_2 H15_2 1_555 1_555
C23_2 C22_2 1_555 1_555
H16_2 C23_2 1_555 1_555
C24_2 H17_2 1_555 1_555
H19_2 C27_2 1_555 1_555
C31_2 H22_2 1_555 1_555
C32_2 H23_2 1_555 1_555
N3_2 C19_2 1_555 1_555
N4 C23_2 1_555 1_555
N6_2 C31_2 1_555 1_555
Cd5 N4 1_555 1_555
N14 Cd2 1_555 1_555
C20_2 C21_2 1_555 1_555
C22_2 N3_2 1_555 1_555
C24_2 N3_2 1_555 1_555
C24_2 N4 1_555 1_555
C31_2 N5_2 1_555 1_555
C32_2 N6_2 1_555 1_555
Cd2 N6_2 1_555 1_555
Cd2 N12_2 1_555 1_555
Cd2 O1_2 1_555 1_555
C1_2 H1_2 1_555 1_555
C2_2 H2_2 1_555 1_555
C3_2 C2_2 1_555 1_555
H3_2 C3_2 1_555 1_555
C4_2 C5_2 1_555 1_555
C5_2 H4_2 1_555 1_555
C6_2 C5_2 1_555 1_555
H5_2 C6_2 1_555 1_555
C7_2 C6_2 1_555 1_555
C8_2 C7_2 1_555 1_555
H6_2 C8_2 1_555 1_555
C9_2 C4_2 1_555 1_555
H7_2 C9_2 1_555 1_555
C10_2 C7_2 1_555 1_555
C11_2 C10_2 1_555 1_555
H8_2 C11_2 1_555 1_555
C12_2 C11_2 1_555 1_555
C13_2 C12_2 1_555 1_555
H9_2 C13_2 1_555 1_555
C14_2 C13_2 1_555 1_555
C15_2 C10_2 1_555 1_555
H10_2 C15_2 1_555 1_555
C16_2 C12_2 1_555 1_555
C17_2 C16_2 1_555 1_555
H11_2 C17_2 1_555 1_555
C18_2 C17_2 1_555 1_555
H12_2 C18_2 1_555 1_555
C25_2 C14_2 1_555 1_555
C26_2 C25_2 1_555 1_555
C29_2 C28_2 1_555 1_555
H20_2 C29_2 1_555 1_555
C30_2 C25_2 1_555 1_555
H21_2 C30_2 1_555 1_555
H24_2 C33_2 1_555 1_555
C34_2 H25_2 1_555 1_555
C35_2 H26_2 1_555 1_555
C36_2 C35_2 1_555 1_555
H27_2 C36_2 1_555 1_555
C37_2 C38_2 1_555 1_555
C38_2 H28_2 1_555 1_555
C39_2 C38_2 1_555 1_555
H29_2 C39_2 1_555 1_555
C40_2 C39_2 1_555 1_555
C41_2 C40_2 1_555 1_555
H30_2 C41_2 1_555 1_555
C42_2 C37_2 1_555 1_555
H31_2 C42_2 1_555 1_555
C43_2 C40_2 1_555 1_555
C44_2 C43_2 1_555 1_555
H32_2 C44_2 1_555 1_555
C45_2 C44_2 1_555 1_555
C46_2 C45_2 1_555 1_555
H33_2 C46_2 1_555 1_555
C47_2 C46_2 1_555 1_555
C48_2 C43_2 1_555 1_555
H34_2 C48_2 1_555 1_555
C49_2 C47_2 1_555 1_555
C50_2 C49_2 1_555 1_555
H35_2 C50_2 1_555 1_555
C51_2 C50_2 1_555 1_555
H36_2 C51_2 1_555 1_555
C52_2 C51_2 1_555 1_555
C53_2 C52_2 1_555 1_555
H37_2 C53_2 1_555 1_555
C54_2 C49_2 1_555 1_555
H38_2 C54_2 1_555 1_555
C55_2 H39_2 1_555 1_555
C56_2 C55_2 1_555 1_555
H40_2 C56_2 1_555 1_555
C57_2 H41_2 1_555 1_555
C58_2 C45_2 1_555 1_555
C59_2 C58_2 1_555 1_555
H42_2 C59_2 1_555 1_555
C60_2 C59_2 1_555 1_555
H43_2 C60_2 1_555 1_555
C61_2 C60_2 1_555 1_555
C62_2 C61_2 1_555 1_555
H44_2 C62_2 1_555 1_555
C63_2 C58_2 1_555 1_555
H45_2 C63_2 1_555 1_555
C64_2 H46_2 1_555 1_555
Cd5 N1_2 1_555 1_555
N1_2 C1_2 1_555 1_555
N2_2 C1_2 1_555 1_555
N7_2 C34_2 1_555 1_555
N8_2 C34_2 1_555 1_555
N9_2 C52_2 1_555 1_555
N14 C56_2 1_555 1_555
N11_2 C61_2 1_555 1_555
C2_2 N1_2 1_555 1_555
C3_2 N2_2 1_555 1_555
C4_2 N2_2 1_555 1_555
C8_2 C9_2 1_555 1_555
C14_2 C15_2 1_555 1_555
C29_2 C30_2 1_555 1_555
C35_2 N7_2 1_555 1_555
C36_2 N8_2 1_555 1_555
C37_2 N8_2 1_555 1_555
C41_2 C42_2 1_555 1_555
C47_2 C48_2 1_555 1_555
C53_2 C54_2 1_555 1_555
C55_2 N9_2 1_555 1_555
C57_2 N9_2 1_555 1_555
C57_2 N14 1_555 1_555
C62_2 C63_2 1_555 1_555
C64_2 N11_2 1_555 1_555
C66_2 N11_2 1_555 1_555
Cd5 N7_2 1_555 1_555
H9_3 C13_3 1_555 1_555
C14_3 C13_3 1_555 1_555
H10_3 C15_3 1_555 1_555
C25_3 C14_3 1_555 1_555
C26_3 C25_3 1_555 1_555
H18_3 C26_3 1_555 1_555
C27_3 C26_3 1_555 1_555
H19_3 C27_3 1_555 1_555
C28_3 C27_3 1_555 1_555
C29_3 C28_3 1_555 1_555
H20_3 C29_3 1_555 1_555
C30_3 C25_3 1_555 1_555
H21_3 C30_3 1_555 1_555
C31_3 H22_3 1_555 1_555
C32_3 H23_3 1_555 1_555
C33_3 C32_3 1_555 1_555
H24_3 C33_3 1_555 1_555
C38_3 H28_3 1_555 1_555
C39_3 C38_3 1_555 1_555
H29_3 C39_3 1_555 1_555
C40_3 C39_3 1_555 1_555
C43_3 C40_3 1_555 1_555
C44_3 C43_3 1_555 1_555
H32_3 C44_3 1_555 1_555
C45_3 C44_3 1_555 1_555
C46_3 C45_3 1_555 1_555
H33_3 C46_3 1_555 1_555
C47_3 C46_3 1_555 1_555
C58_3 C45_3 1_555 1_555
C59_3 C58_3 1_555 1_555
H42_3 C59_3 1_555 1_555
C60_3 C59_3 1_555 1_555
H43_3 C60_3 1_555 1_555
C61_3 C60_3 1_555 1_555
C62_3 C61_3 1_555 1_555
H44_3 C62_3 1_555 1_555
C63_3 C58_3 1_555 1_555
H45_3 C63_3 1_555 1_555
C64_3 H46_3 1_555 1_555
C65_3 H47_3 1_555 1_555
C66_3 C65_3 1_555 1_555
H48_3 C66_3 1_555 1_555
C67_3 C68_3 1_555 1_555
C68_3 C69_3 1_555 1_555
C69_3 H49_3 1_555 1_555
C70_3 C69_3 1_555 1_555
C71_3 C70_3 1_555 1_555
H50_3 C71_3 1_555 1_555
C72_3 C71_3 1_555 1_555
C73_3 C68_3 1_555 1_555
H51_3 C73_3 1_555 1_555
C74_3 C70_3 1_555 1_555
C75_3 C72_3 1_555 1_555
Cd2_2 Cl1_3 1_555 1_555
N5_3 C28_3 1_555 1_555
N6_3 C31_3 1_555 1_555
N11_3 C61_3 1_555 1_555
N12_3 C64_3 1_555 1_555
O1_3 C67_3 1_555 1_555
O2_3 C67_3 1_555 1_555
O3_2 C74_3 1_555 1_555
O4_2 C74_3 1_555 1_555
O5_2 C75_3 1_555 1_555
O6_3 C75_3 1_555 1_555
Cd3 O3_2 1_555 1_555
N14_2 Cd2_2 1_555 1_555
C14_3 C15_3 1_555 1_555
C29_3 C30_3 1_555 1_555
C31_3 N5_3 1_555 1_555
C32_3 N6_3 1_555 1_555
C33_3 N5_3 1_555 1_555
C62_3 C63_3 1_555 1_555
C64_3 N11_3 1_555 1_555
C65_3 N12_3 1_555 1_555
C66_3 N11_3 1_555 1_555
C72_3 C73_3 1_555 1_555
Cd2_2 N6_3 1_555 1_555
Cd2_2 N12_3 1_555 1_555
Cd2_2 O1_3 1_555 1_555
Cd2_2 O2_3 1_555 1_555
O4_2 Cd3 1_555 1_555
C4_3 C5_3 1_555 1_555
C5_3 H4_3 1_555 1_555
C6_3 C5_3 1_555 1_555
H5_3 C6_3 1_555 1_555
C7_3 C6_3 1_555 1_555
C8_3 C7_3 1_555 1_555
H6_3 C8_3 1_555 1_555
C9_3 C4_3 1_555 1_555
H7_3 C9_3 1_555 1_555
C10_3 C7_3 1_555 1_555
C11_3 C10_3 1_555 1_555
H8_3 C11_3 1_555 1_555
C12_3 C11_3 1_555 1_555
C16_3 C12_3 1_555 1_555
C17_3 C16_3 1_555 1_555
H11_3 C17_3 1_555 1_555
C18_3 C17_3 1_555 1_555
H12_3 C18_3 1_555 1_555
C19_3 C18_3 1_555 1_555
C20_3 C19_3 1_555 1_555
H13_3 C20_3 1_555 1_555
C21_3 C16_3 1_555 1_555
H14_3 C21_3 1_555 1_555
C22_3 H15_3 1_555 1_555
C23_3 C22_3 1_555 1_555
H16_3 C23_3 1_555 1_555
C24_3 H17_3 1_555 1_555
N3_3 C19_3 1_555 1_555
N4_2 C23_3 1_555 1_555
Cd3 N4_2 1_555 1_555
C4_3 N2_3 1_555 1_555
C8_3 C9_3 1_555 1_555
C20_3 C21_3 1_555 1_555
C22_3 N3_3 1_555 1_555
C24_3 N3_3 1_555 1_555
C24_3 N4_2 1_555 1_555
H30_3 C41_3 1_555 1_555
C42_3 C37_3 1_555 1_555
H31_3 C42_3 1_555 1_555
H34_3 C48_3 1_555 1_555
C50_3 C49_3 1_555 1_555
C51_3 C50_3 1_555 1_555
H36_3 C51_3 1_555 1_555
C52_3 C51_3 1_555 1_555
C53_3 C52_3 1_555 1_555
H37_3 C53_3 1_555 1_555
C54_3 C49_3 1_555 1_555
H38_3 C54_3 1_555 1_555
C55_3 H39_3 1_555 1_555
C56_3 C55_3 1_555 1_555
H40_3 C56_3 1_555 1_555
C57_3 H41_3 1_555 1_555
N9_3 C52_3 1_555 1_555
N14_2 C56_3 1_555 1_555
C41_3 C42_3 1_555 1_555
C53_3 C54_3 1_555 1_555
C55_3 N9_3 1_555 1_555
C57_3 N9_3 1_555 1_555
C57_3 N14_2 1_555 1_555
C1_3 H1_3 1_555 1_555
C2_3 H2_3 1_555 1_555
C3_3 C2_3 1_555 1_555
C34_3 H25_3 1_555 1_555
C35_3 H26_3 1_555 1_555
C36_3 C35_3 1_555 1_555
H27_3 C36_3 1_555 1_555
Cd3 N1_3 1_555 1_555
N1_3 C1_3 1_555 1_555
N7_3 C34_3 1_555 1_555
N8_3 C34_3 1_555 1_555
O9_2 Cd3 1_555 1_555
C2_3 N1_3 1_555 1_555
C35_3 N7_3 1_555 1_555
C36_3 N8_3 1_555 1_555
Cd3 N7_3 1_555 1_555
C1_4 H1_4 1_555 1_555
C2_4 H2_4 1_555 1_555
C3_4 C2_4 1_555 1_555
H3_4 C3_4 1_555 1_555
C4_4 C5_4 1_555 1_555
C5_4 H4_4 1_555 1_555
C6_4 C5_4 1_555 1_555
H5_4 C6_4 1_555 1_555
C7_4 C6_4 1_555 1_555
C8_4 C7_4 1_555 1_555
H6_4 C8_4 1_555 1_555
C9_4 C4_4 1_555 1_555
H7_4 C9_4 1_555 1_555
C10_4 C7_4 1_555 1_555
C11_4 C10_4 1_555 1_555
H8_4 C11_4 1_555 1_555
C12_4 C11_4 1_555 1_555
C13_4 C12_4 1_555 1_555
H9_4 C13_4 1_555 1_555
C14_4 C13_4 1_555 1_555
C15_4 C10_4 1_555 1_555
H10_4 C15_4 1_555 1_555
C16_4 C12_4 1_555 1_555
C17_4 C16_4 1_555 1_555
H11_4 C17_4 1_555 1_555
C18_4 C17_4 1_555 1_555
H12_4 C18_4 1_555 1_555
C25_4 C14_4 1_555 1_555
C26_4 C25_4 1_555 1_555
C29_4 C28_4 1_555 1_555
H20_4 C29_4 1_555 1_555
C30_4 C25_4 1_555 1_555
H21_4 C30_4 1_555 1_555
H24_4 C33_4 1_555 1_555
C34_4 H25_4 1_555 1_555
C35_4 H26_4 1_555 1_555
C36_4 C35_4 1_555 1_555
H27_4 C36_4 1_555 1_555
C37_4 C38_4 1_555 1_555
C38_4 H28_4 1_555 1_555
C39_4 C38_4 1_555 1_555
H29_4 C39_4 1_555 1_555
C40_4 C39_4 1_555 1_555
C41_4 C40_4 1_555 1_555
H30_4 C41_4 1_555 1_555
C42_4 C37_4 1_555 1_555
H31_4 C42_4 1_555 1_555
C43_4 C40_4 1_555 1_555
C44_4 C43_4 1_555 1_555
H32_4 C44_4 1_555 1_555
C45_4 C44_4 1_555 1_555
C46_4 C45_4 1_555 1_555
H33_4 C46_4 1_555 1_555
C47_4 C46_4 1_555 1_555
C48_4 C43_4 1_555 1_555
H34_4 C48_4 1_555 1_555
C49_4 C47_4 1_555 1_555
C50_4 C49_4 1_555 1_555
H35_4 C50_4 1_555 1_555
C51_4 C50_4 1_555 1_555
H36_4 C51_4 1_555 1_555
C52_4 C51_4 1_555 1_555
C53_4 C52_4 1_555 1_555
H37_4 C53_4 1_555 1_555
C54_4 C49_4 1_555 1_555
H38_4 C54_4 1_555 1_555
C55_4 H39_4 1_555 1_555
C56_4 C55_4 1_555 1_555
H40_4 C56_4 1_555 1_555
C57_4 H41_4 1_555 1_555
C58_4 C45_4 1_555 1_555
C59_4 C58_4 1_555 1_555
H42_4 C59_4 1_555 1_555
C60_4 C59_4 1_555 1_555
H43_4 C60_4 1_555 1_555
C61_4 C60_4 1_555 1_555
C62_4 C61_4 1_555 1_555
H44_4 C62_4 1_555 1_555
C63_4 C58_4 1_555 1_555
H45_4 C63_4 1_555 1_555
C64_4 H46_4 1_555 1_555
Cd5_2 N1_4 1_555 1_555
N1_4 C1_4 1_555 1_555
N2_4 C1_4 1_555 1_555
N7_4 C34_4 1_555 1_555
N8_4 C34_4 1_555 1_555
N9_4 C52_4 1_555 1_555
N10_2 C56_4 1_555 1_555
N11_4 C61_4 1_555 1_555
Cd6_2 N10_2 1_555 1_555
N13_2 Cd5_2 1_555 1_555
O7_2 Cd5_2 1_555 1_555
O8_2 Cd5_2 1_555 1_555
C2_4 N1_4 1_555 1_555
C3_4 N2_4 1_555 1_555
C4_4 N2_4 1_555 1_555
C8_4 C9_4 1_555 1_555
C14_4 C15_4 1_555 1_555
C29_4 C30_4 1_555 1_555
C35_4 N7_4 1_555 1_555
C36_4 N8_4 1_555 1_555
C37_4 N8_4 1_555 1_555
C41_4 C42_4 1_555 1_555
C47_4 C48_4 1_555 1_555
C53_4 C54_4 1_555 1_555
C55_4 N9_4 1_555 1_555
C57_4 N9_4 1_555 1_555
C57_4 N10_2 1_555 1_555
C62_4 C63_4 1_555 1_555
C64_4 N11_4 1_555 1_555
C66_4 N11_4 1_555 1_555
Cd5_2 N7_4 1_555 1_555
C20_4 C19_4 1_555 1_555
H13_4 C20_4 1_555 1_555
H14_4 C21_4 1_555 1_555
C22_4 H15_4 1_555 1_555
C23_4 C22_4 1_555 1_555
H16_4 C23_4 1_555 1_555
C24_4 H17_4 1_555 1_555
H19_4 C27_4 1_555 1_555
C31_4 H22_4 1_555 1_555
C32_4 H23_4 1_555 1_555
N3_4 C19_4 1_555 1_555
N13_2 C23_4 1_555 1_555
N6_4 C31_4 1_555 1_555
C20_4 C21_4 1_555 1_555
C22_4 N3_4 1_555 1_555
C24_4 N3_4 1_555 1_555
C24_4 N13_2 1_555 1_555
C31_4 N5_4 1_555 1_555
C32_4 N6_4 1_555 1_555
Cd6_2 N6_4 1_555 1_555
Cd6_2 N12_4 1_555 1_555
Cd6_2 O1_4 1_555 1_555
C65_4 H47_4 1_555 1_555
C67_4 C68_4 1_555 1_555
C68_4 C69_4 1_555 1_555
C69_4 H49_4 1_555 1_555
C70_4 C69_4 1_555 1_555
C71_4 C70_4 1_555 1_555
H50_4 C71_4 1_555 1_555
C72_4 C71_4 1_555 1_555
C73_4 C68_4 1_555 1_555
H51_4 C73_4 1_555 1_555
C74_4 C70_4 1_555 1_555
C75_4 C72_4 1_555 1_555
O2_4 C67_4 1_555 1_555
O7_2 C74_4 1_555 1_555
O8_2 C74_4 1_555 1_555
O9_2 C75_4 1_555 1_555
O6_4 C75_4 1_555 1_555
C72_4 C73_4 1_555 1_555

#END
