
###############################################################################
#
# This file contains modified crystal structure data generated from the
# MOF subset of the Cambridge Structural Database (CSD) v543 
# hosted by the Cambridge Crystallographic Data Centre (CCDC).
#
# This work is licensed under the Creative Commons
# Attribution-NonCommercial-ShareAlike 4.0 International License.
# To view a copy of this license, visit
# http://creativecommons.org/licenses/by-nc-sa/4.0/
# or send a letter to
# Creative Commons, PO Box 1866, Mountain View, CA 94042, USA.
#
# CIF created using the CSD Python API on 29 September 2022
# The structure has been converted into the P1 space group
# The structure has a 3D framework
# The original CSD entry WIDREH is in the rhombohedral crystal system
# The framework has been calculated to contain at least 10.0% void space
# The void calculation uses a probe of radius 1.32A, grid spacing 0.4
# H atom positions have been added when not included in the experimental data
#
###############################################################################

data_WIDREH
_chemical_formula_moiety         '(C360 H252 Eu49 N272)n'
_symmetry_cell_setting           triclinic
_symmetry_space_group_name_H-M   'P 1'
_symmetry_Int_Tables_number      1
_space_group_name_Hall           'P 1'
loop_
_symmetry_equiv_pos_site_id
_symmetry_equiv_pos_as_xyz
1 x,y,z
_cell_length_a                   14.099(2)
_cell_length_b                   14.099(2)
_cell_length_c                   69.409(6)
_cell_angle_alpha                90
_cell_angle_beta                 90
_cell_angle_gamma                120.00
_cell_volume                     11948.8
loop_
_atom_site_label
_atom_site_type_symbol
_atom_site_fract_x
_atom_site_fract_y
_atom_site_fract_z
Eu1 Eu -0.0000 -0.0000 0.06543(3)
Eu3 Eu 0.0000 0.0000 0.0000
N1 N 0.243(3) 0.106(2) 0.0902(5)
N2 N 0.1652(19) 0.1237(18) 0.0882(3)
N3 N 0.167(2) 0.215(2) 0.0961(3)
N4 N 0.326(4) 0.344(3) 0.1118(6)
N7 N 0.1373(17) 0.008(2) 0.0329(5)
C1 C 0.289(3) 0.265(2) 0.1031(3)
C2 C 0.441(3) 0.376(4) 0.1184(6)
H1 H 0.4839 0.4375 0.1264
C3 C 0.484(3) 0.301(3) 0.1115(6)
H2 H 0.5601 0.3266 0.1131
C4 C 0.426(3) 0.207(4) 0.1036(6)
H3 H 0.4512 0.1573 0.1011
C5 C 0.301(3) 0.182(2) 0.0984(4)
C6 C 0.2202(16) 0.0175(17) 0.0206(3)
N8 N 0.238(3) 0.040(2) 0.0010(3)
C8 C 0.398(3) 0.020(4) 0.0026(4)
Eu6 Eu 0.08143(13) 0.33334(18) 0.0833
N14 N 0.090(3) 0.530(4) 0.0765(5)
N33 N 0.285(3) 0.452(2) 0.0706(3)
N45 N 0.023(3) 0.281(4) 0.0479(4)
N51 N 0.075(2) 0.386(4) 0.1188(4)
N56 N 0.024(2) 0.199(3) 0.0501(4)
N62 N 0.158(2) 0.468(3) 0.1166(4)
C18 C 0.709(4) 0.108(3) 0.0483(6)
H9 H 0.7708 0.1506 0.0403
C23 C 0.634(3) 0.151(3) 0.0552(6)
H14 H 0.6599 0.2268 0.0536
C28 C 0.540(4) 0.093(3) 0.0631(6)
H19 H 0.4906 0.1179 0.0656
C45 C 0.285(4) 0.326(3) 0.0080(2)
H26 H 0.2818 0.3381 0.0214
H31 H 0.4369 0.4584 0.0036
C51 C 0.002(3) 0.382(4) 0.0222(3)
H32 H 0.0158 0.4450 0.0294
C56 C 0.003(2) 0.2946(27) 0.0312(2)
Eu3_2 Eu 0.0000 0.0000 1.0000
C7 C 0.326(3) 0.041(3) 0.9920(2)
H4 H 0.3381 0.0563 0.9786
H5 H 0.4584 0.0215 0.9964
Eu4 Eu 0.0000 0.0000 0.93457(3)
Eu10 Eu 0.33334(18) 0.25191(13) 0.9167
N19 N 0.530(4) 0.439(2) 0.9235(5)
N20 N 0.137(4) 0.243(3) 0.9098(5)
N27 N 0.0415(26) 0.1652(19) 0.9118(3)
N38 N 0.215(2) 0.048(3) 0.9039(3)
N39 N 0.452(2) 0.166(2) 0.9294(3)
N49 N 0.281(4) 0.258(2) 0.9521(4)
N55 N 0.386(4) 0.310(3) 0.8812(4)
N60 N 0.199(3) 0.175(2) 0.9499(4)
N66 N 0.468(3) 0.309(2) 0.8834(4)
N71 N 0.1293(26) 0.1373(17) 0.9671(5)
C40 C 0.2027(23) 0.2202(16) 0.9794(3)
N76 N 0.198(4) 0.238(3) 0.9990(3)
C50 C 0.378(5) 0.398(3) 0.9974(4)
C55 C 0.382(4) 0.380(2) 0.9778(3)
H36 H 0.4450 0.4292 0.9706
C60 C 0.2946(27) 0.2916(18) 0.9688(2)
H38 H 0.335195 0.298009 0.941326
Eu1_2 Eu -0.0000 1.0000 0.06543(3)
Eu2 Eu 0.25191(13) 0.91857(13) 0.0833
Eu3_3 Eu 0.0000 1.0000 0.0000
N5 N 0.258(2) 0.977(3) 0.0479(4)
N6 N 0.175(2) 0.976(2) 0.0501(4)
C9 C 0.380(2) 0.998(3) 0.0222(3)
H6 H 0.4292 0.9842 0.0294
C10 C 0.2916(18) 0.997(2) 0.0312(2)
Eu5 Eu 0.3333 0.6667 0.10124(3)
Eu11 Eu 0.66666(18) 0.74809(13) 0.0833
N11 N 0.439(2) 0.910(3) 0.0765(5)
N23 N 0.4570(18) 0.8319(19) 0.0785(3)
N24 N 0.1681(19) 0.6252(26) 0.0785(3)
N29 N 0.048(3) 0.833(2) 0.0961(3)
N30 N 0.548(2) 0.834(2) 0.0706(3)
N31 N 0.166(2) 0.715(3) 0.0706(3)
N41 N 0.018(5) 0.674(4) 0.1118(6)
N42 N 0.677(3) 0.993(4) 0.0549(6)
N43 N 0.007(4) 0.685(5) 0.0549(6)
N50 N 0.310(3) 0.925(2) 0.1188(4)
N61 N 0.309(2) 0.842(2) 0.1166(4)
C13 C 0.598(2) 0.956(3) 0.0636(3)
C14 C 0.044(3) 0.643(4) 0.0636(3)
C33 C 0.515(2) 0.968(3) 0.0683(4)
C34 C 0.032(3) 0.548(4) 0.0683(4)
C44 C 0.041(3) 0.715(4) 0.0080(2)
H25 H 0.0563 0.7182 0.0214
H30 H 0.0215 0.5631 0.0036
Eu3_4 Eu 0.0000 1.0000 1.0000
Eu4_2 Eu 0.0000 1.0000 0.93457(3)
N18 N 0.106(2) 0.863(4) 0.9098(5)
N26 N 0.1237(18) 0.9585(26) 0.9118(3)
N70 N 0.008(2) 0.8707(26) 0.9671(5)
C39 C 0.0175(17) 0.7973(23) 0.9794(3)
N75 N 0.040(2) 0.802(4) 0.9990(3)
C49 C 0.020(4) 0.622(5) 0.9974(4)
Eu1_3 Eu 1.0000 -0.0000 0.06543(3)
Eu3_5 Eu 1.0000 0.0000 0.0000
N9 N 0.894(2) 0.137(4) 0.0902(5)
N21 N 0.8763(18) 0.0415(26) 0.0882(3)
N67 N 0.992(2) 0.1293(26) 0.0329(5)
C11 C 0.735(2) 0.024(4) 0.1031(3)
C16 C 0.624(4) 0.065(5) 0.1184(6)
H7 H 0.5625 0.0464 0.1264
C21 C 0.699(3) 0.183(4) 0.1115(6)
H12 H 0.6734 0.2335 0.1131
C26 C 0.793(4) 0.219(5) 0.1036(6)
H17 H 0.8427 0.2939 0.1011
C31 C 0.818(2) 0.119(4) 0.0984(4)
C36 C 0.9825(17) 0.2027(23) 0.0206(3)
N72 N 0.960(2) 0.198(4) 0.0010(3)
C46 C 0.980(4) 0.378(5) 0.0026(4)
Eu3_6 Eu 1.0000 0.0000 1.0000
Eu4_3 Eu 1.0000 0.0000 0.93457(3)
Eu8 Eu 0.74809(13) 0.08143(13) 0.9167
N16 N 0.561(2) 0.090(3) 0.9235(5)
N35 N 0.834(2) 0.285(3) 0.9294(3)
N36 N 0.952(3) 0.167(2) 0.9039(3)
N47 N 0.742(2) 0.023(3) 0.9521(4)
N53 N 0.690(3) 0.075(2) 0.8812(4)
N58 N 0.825(2) 0.024(2) 0.9499(4)
N64 N 0.691(2) 0.158(2) 0.8834(4)
C41 C 0.959(3) 0.285(4) 0.9920(2)
H22 H 0.9437 0.2818 0.9786
H27 H 0.9785 0.4369 0.9964
C53 C 0.620(2) 0.002(3) 0.9778(3)
H34 H 0.5708 0.0158 0.9706
C58 C 0.7084(18) 0.003(2) 0.9688(2)
H37 H 0.701991 0.0371862 0.941326
Eu1_4 Eu 1.0000 1.0000 0.06543(3)
Eu3_7 Eu 1.0000 1.0000 0.0000
N10 N 0.863(4) 0.757(3) 0.0902(5)
N15 N 0.470(4) 0.561(2) 0.0765(5)
N22 N 0.9585(26) 0.8348(19) 0.0882(3)
N28 N 0.785(2) 0.952(3) 0.0961(3)
N40 N 0.656(3) 0.982(5) 0.1118(6)
N46 N 0.719(4) 0.742(2) 0.0479(4)
N52 N 0.614(4) 0.690(3) 0.1188(4)
N57 N 0.801(3) 0.825(2) 0.0501(4)
N63 N 0.532(3) 0.691(2) 0.1166(4)
N68 N 0.8707(26) 0.8627(17) 0.0329(5)
C12 C 0.976(4) 0.711(3) 0.1031(3)
C17 C 0.935(5) 0.559(3) 0.1184(6)
C19 C 0.892(3) 0.602(5) 0.0483(6)
H8 H 0.9536 0.5161 0.1264
H10 H 0.8494 0.6203 0.0403
C22 C 0.817(4) 0.516(3) 0.1115(6)
C24 C 0.849(3) 0.484(4) 0.0552(6)
H13 H 0.7665 0.4399 0.1131
H15 H 0.7732 0.4332 0.0536
C27 C 0.781(5) 0.574(3) 0.1036(6)
C29 C 0.907(3) 0.448(5) 0.0631(6)
H18 H 0.7061 0.5488 0.1011
H20 H 0.8821 0.3728 0.0656
C32 C 0.881(4) 0.699(3) 0.0984(4)
C37 C 0.7973(23) 0.7798(16) 0.0206(3)
N73 N 0.802(4) 0.762(3) 0.0010(3)
C43 C 0.674(3) 0.959(3) 0.0080(2)
H24 H 0.6619 0.9437 0.0214
C47 C 0.622(5) 0.602(3) 0.0026(4)
H29 H 0.5416 0.9785 0.0036
C52 C 0.618(4) 0.620(2) 0.0222(3)
H33 H 0.5550 0.5708 0.0294
C57 C 0.7054(27) 0.7084(18) 0.0312(2)
Eu3_8 Eu 1.0000 1.0000 1.0000
Eu4_4 Eu 1.0000 1.0000 0.93457(3)
Eu9 Eu 0.91857(13) 0.66666(18) 0.9167
N13 N 0.757(3) 0.894(2) 0.9098(5)
N17 N 0.910(3) 0.470(4) 0.9235(5)
N25 N 0.8348(19) 0.8763(18) 0.9118(3)
N32 N 0.833(2) 0.785(2) 0.9039(3)
N37 N 0.715(3) 0.548(2) 0.9294(3)
N44 N 0.674(4) 0.656(3) 0.8882(6)
N48 N 0.977(3) 0.719(4) 0.9521(4)
N54 N 0.925(2) 0.614(4) 0.8812(4)
N59 N 0.976(2) 0.801(3) 0.9499(4)
N65 N 0.842(2) 0.532(3) 0.8834(4)
N69 N 0.8627(17) 0.992(2) 0.9671(5)
C15 C 0.711(3) 0.735(2) 0.8969(3)
C20 C 0.559(3) 0.624(4) 0.8816(6)
H11 H 0.5161 0.5625 0.8736
C25 C 0.516(3) 0.699(3) 0.8885(6)
H16 H 0.4399 0.6734 0.8869
C30 C 0.574(3) 0.793(4) 0.8964(6)
H21 H 0.5488 0.8427 0.8989
C35 C 0.699(3) 0.818(2) 0.9016(4)
C38 C 0.7798(16) 0.9825(17) 0.9794(3)
N74 N 0.762(3) 0.960(2) 0.9990(3)
C42 C 0.715(4) 0.674(3) 0.9920(2)
H23 H 0.7182 0.6619 0.9786
C48 C 0.602(3) 0.980(4) 0.9974(4)
H28 H 0.5631 0.5416 0.9964
C54 C 0.998(3) 0.618(4) 0.9778(3)
H35 H 0.9842 0.5550 0.9706
C59 C 0.997(2) 0.7054(27) 0.9688(2)
H39 H 0.962814 0.664805 0.941326
N24_2 N 0.3748(26) 0.5430(32) 0.0785(3)
N43_2 N 0.315(5) 0.323(6) 0.0549(6)
C14_2 C 0.357(4) 0.402(5) 0.0636(3)
C19_2 C 0.398(5) 0.291(6) 0.0483(6)
H10_2 H 0.3797 0.2292 0.0403
C24_2 C 0.516(4) 0.366(5) 0.0552(6)
H15_2 H 0.5668 0.3401 0.0536
C29_2 C 0.552(5) 0.460(6) 0.0631(6)
H20_2 H 0.6272 0.5094 0.0656
C34_2 C 0.452(4) 0.485(5) 0.0683(4)
N44_2 N 0.344(3) 0.018(5) 0.8882(6)
C15_2 C 0.265(2) 0.976(4) 0.8969(3)
C20_2 C 0.376(4) 0.935(5) 0.8816(6)
H11_2 H 0.4375 0.9536 0.8736
C25_2 C 0.301(3) 0.817(4) 0.8885(6)
H16_2 H 0.3266 0.7665 0.8869
C30_2 C 0.207(4) 0.781(5) 0.8964(6)
H21_2 H 0.1573 0.7061 0.8989
C35_2 C 0.182(2) 0.881(4) 0.9016(4)
C15_3 C 0.024(4) 0.289(3) 0.8969(3)
C20_3 C 0.065(5) 0.441(3) 0.8816(6)
H11_3 H 0.0464 0.4839 0.8736
C25_3 C 0.183(4) 0.484(3) 0.8885(6)
H16_3 H 0.2335 0.5601 0.8869
C30_3 C 0.219(5) 0.426(3) 0.8964(6)
H21_3 H 0.2939 0.4512 0.8989
C35_3 C 0.119(4) 0.301(3) 0.9016(4)
N44_3 N 0.982(5) 0.326(4) 0.8882(6)
Eu1_5 Eu 0.0000 -0.0000 0.43457(3)
Eu3_9 Eu 0.0000 0.0000 0.5000
N1_2 N 0.106(2) 0.243(3) 0.4098(5)
N2_2 N 0.1237(18) 0.1652(19) 0.4118(3)
N3_2 N 0.215(2) 0.167(2) 0.4039(3)
N4_2 N 0.344(3) 0.326(4) 0.3882(6)
N7_2 N 0.008(2) 0.1373(17) 0.4671(5)
C1_2 C 0.265(2) 0.289(3) 0.3969(3)
C2_2 C 0.376(4) 0.441(3) 0.3816(6)
H1_2 H 0.4375 0.4839 0.3736
C3_2 C 0.301(3) 0.484(3) 0.3885(6)
H2_2 H 0.3266 0.5601 0.3869
C4_2 C 0.207(4) 0.426(3) 0.3964(6)
H3_2 H 0.1573 0.4512 0.3989
C5_2 C 0.182(2) 0.301(3) 0.4016(4)
C6_2 C 0.0175(17) 0.2202(16) 0.4794(3)
N8_2 N 0.040(2) 0.238(3) 0.4990(3)
C7_2 C 0.041(3) 0.326(3) 0.5080(2)
H4_2 H 0.0563 0.3381 0.5214
C8_2 C 0.020(4) 0.398(3) 0.4974(4)
H5_2 H 0.0215 0.4584 0.5036
Eu4_5 Eu 0.0000 0.0000 0.56543(3)
Eu6_2 Eu 0.33334(18) 0.08143(13) 0.4167
Eu10_2 Eu 0.25191(13) 0.33334(18) 0.5833
N14_2 N 0.530(4) 0.090(3) 0.4235(5)
N19_2 N 0.439(2) 0.530(4) 0.5765(5)
N20_2 N 0.243(3) 0.137(4) 0.5902(5)
N27_2 N 0.1652(19) 0.0415(26) 0.5882(3)
N33_2 N 0.452(2) 0.285(3) 0.4294(3)
N38_2 N 0.048(3) 0.215(2) 0.5961(3)
N39_2 N 0.166(2) 0.452(2) 0.5706(3)
N45_2 N 0.281(4) 0.023(3) 0.4521(4)
N49_2 N 0.258(2) 0.281(4) 0.5479(4)
N51_2 N 0.386(4) 0.075(2) 0.3812(4)
N55_2 N 0.310(3) 0.386(4) 0.6188(4)
N56_2 N 0.199(3) 0.024(2) 0.4499(4)
N60_2 N 0.175(2) 0.199(3) 0.5501(4)
N62_2 N 0.468(3) 0.158(2) 0.3834(4)
N66_2 N 0.309(2) 0.468(3) 0.6166(4)
N71_2 N 0.1373(17) 0.1293(26) 0.5329(5)
C18_2 C 0.108(3) 0.709(4) 0.4517(6)
H9_2 H 0.1506 0.7708 0.4597
C23_2 C 0.151(3) 0.634(3) 0.4448(6)
H14_2 H 0.2268 0.6599 0.4464
C28_2 C 0.093(3) 0.540(4) 0.4369(6)
H19_2 H 0.1179 0.4906 0.4344
C40_2 C 0.2202(16) 0.2027(23) 0.5206(3)
N76_2 N 0.238(3) 0.198(4) 0.5010(3)
C45_2 C 0.326(3) 0.285(4) 0.4920(2)
H26_2 H 0.3381 0.2818 0.4786
C50_2 C 0.398(3) 0.378(5) 0.5026(4)
H31_2 H 0.4584 0.4369 0.4964
C51_2 C 0.382(4) 0.002(3) 0.4778(3)
C55_2 C 0.380(2) 0.382(4) 0.5222(3)
H32_2 H 0.4450 0.0158 0.4706
H36_2 H 0.4292 0.4450 0.5294
C56_2 C 0.2946(27) 0.003(2) 0.4688(2)
C60_2 C 0.2916(18) 0.2946(27) 0.5312(2)
H38_2 H 0.298009 0.335195 0.558674
Eu1_6 Eu 0.0000 1.0000 0.43457(3)
Eu3_10 Eu -0.0000 1.0000 0.5000
Eu4_6 Eu -0.0000 1.0000 0.56543(3)
Eu8_2 Eu 0.08143(13) 0.74809(13) 0.5833
N9_2 N 0.137(4) 0.894(2) 0.4098(5)
N16_2 N 0.090(3) 0.561(2) 0.5765(5)
N21_2 N 0.0415(26) 0.8763(18) 0.4118(3)
N35_2 N 0.285(3) 0.834(2) 0.5706(3)
N36_2 N 0.167(2) 0.952(3) 0.5961(3)
N47_2 N 0.023(3) 0.742(2) 0.5479(4)
N53_2 N 0.075(2) 0.690(3) 0.6188(4)
N58_2 N 0.024(2) 0.825(2) 0.5501(4)
N64_2 N 0.158(2) 0.691(2) 0.6166(4)
N67_2 N 0.1293(26) 0.992(2) 0.4671(5)
C11_2 C 0.024(4) 0.735(2) 0.3969(3)
C16_2 C 0.065(5) 0.624(4) 0.3816(6)
H7_2 H 0.0464 0.5625 0.3736
C21_2 C 0.183(4) 0.699(3) 0.3885(6)
H12_2 H 0.2335 0.6734 0.3869
C26_2 C 0.219(5) 0.793(4) 0.3964(6)
H17_2 H 0.2939 0.8427 0.3989
C31_2 C 0.119(4) 0.818(2) 0.4016(4)
C36_2 C 0.2027(23) 0.9825(17) 0.4794(3)
N72_2 N 0.198(4) 0.960(2) 0.4990(3)
C41_2 C 0.285(4) 0.959(3) 0.5080(2)
H22_2 H 0.2818 0.9437 0.5214
C46_2 C 0.378(5) 0.980(4) 0.4974(4)
H27_2 H 0.4369 0.9785 0.5036
C53_2 C 0.002(3) 0.620(2) 0.5222(3)
H34_2 H 0.0158 0.5708 0.5294
C58_2 C 0.003(2) 0.7084(18) 0.5312(2)
H37_2 H 0.0371862 0.701991 0.558674
Eu1_7 Eu 1.0000 -0.0000 0.43457(3)
Eu2_2 Eu 0.91857(13) 0.25191(13) 0.4167
Eu3_11 Eu 1.0000 0.0000 0.5000
N5_2 N 0.977(3) 0.258(2) 0.4521(4)
N6_2 N 0.976(2) 0.175(2) 0.4499(4)
C9_2 C 0.998(3) 0.380(2) 0.4778(3)
H6_2 H 0.9842 0.4292 0.4706
C10_2 C 0.997(2) 0.2916(18) 0.4688(2)
Eu4_7 Eu 1.0000 0.0000 0.56543(3)
Eu5_2 Eu 0.6667 0.3333 0.39876(3)
Eu11_2 Eu 0.74809(13) 0.66666(18) 0.4167
N11_2 N 0.910(3) 0.439(2) 0.4235(5)
N18_2 N 0.863(4) 0.106(2) 0.5902(5)
N23_2 N 0.8319(19) 0.4570(18) 0.4215(3)
N24_3 N 0.6252(26) 0.1681(19) 0.4215(3)
N26_2 N 0.9585(26) 0.1237(18) 0.5882(3)
N29_2 N 0.833(2) 0.048(3) 0.4039(3)
N30_2 N 0.834(2) 0.548(2) 0.4294(3)
N31_2 N 0.715(3) 0.166(2) 0.4294(3)
N41_2 N 0.674(4) 0.018(5) 0.3882(6)
N42_2 N 0.993(4) 0.677(3) 0.4451(6)
N43_3 N 0.685(5) 0.007(4) 0.4451(6)
N50_2 N 0.925(2) 0.310(3) 0.3812(4)
N61_2 N 0.842(2) 0.309(2) 0.3834(4)
N70_2 N 0.8707(26) 0.008(2) 0.5329(5)
C13_2 C 0.956(3) 0.598(2) 0.4364(3)
C14_3 C 0.643(4) 0.044(3) 0.4364(3)
C33_2 C 0.968(3) 0.515(2) 0.4317(4)
C34_3 C 0.548(4) 0.032(3) 0.4317(4)
C39_2 C 0.7973(23) 0.0175(17) 0.5206(3)
N75_2 N 0.802(4) 0.040(2) 0.5010(3)
C44_2 C 0.715(4) 0.041(3) 0.4920(2)
H25_2 H 0.7182 0.0563 0.4786
C49_2 C 0.622(5) 0.020(4) 0.5026(4)
H30_2 H 0.5631 0.0215 0.4964
Eu1_8 Eu 1.0000 1.0000 0.43457(3)
Eu3_12 Eu 1.0000 1.0000 0.5000
Eu4_8 Eu 1.0000 1.0000 0.56543(3)
Eu9_2 Eu 0.66666(18) 0.91857(13) 0.5833
N10_2 N 0.757(3) 0.863(4) 0.4098(5)
N13_2 N 0.894(2) 0.757(3) 0.5902(5)
N15_2 N 0.561(2) 0.470(4) 0.4235(5)
N17_2 N 0.470(4) 0.910(3) 0.5765(5)
N22_2 N 0.8348(19) 0.9585(26) 0.4118(3)
N25_2 N 0.8763(18) 0.8348(19) 0.5882(3)
N28_2 N 0.952(3) 0.785(2) 0.4039(3)
N32_2 N 0.785(2) 0.833(2) 0.5961(3)
N37_2 N 0.548(2) 0.715(3) 0.5706(3)
N40_2 N 0.982(5) 0.656(3) 0.3882(6)
N44_4 N 0.656(3) 0.674(4) 0.6118(6)
N46_2 N 0.742(2) 0.719(4) 0.4521(4)
N48_2 N 0.719(4) 0.977(3) 0.5479(4)
N52_2 N 0.690(3) 0.614(4) 0.3812(4)
N54_2 N 0.614(4) 0.925(2) 0.6188(4)
N57_2 N 0.825(2) 0.801(3) 0.4499(4)
N59_2 N 0.801(3) 0.976(2) 0.5501(4)
N63_2 N 0.691(2) 0.532(3) 0.3834(4)
N65_2 N 0.532(3) 0.842(2) 0.6166(4)
N68_2 N 0.8627(17) 0.8707(26) 0.4671(5)
N69_2 N 0.992(2) 0.8627(17) 0.5329(5)
C12_2 C 0.711(3) 0.976(4) 0.3969(3)
C15_4 C 0.735(2) 0.711(3) 0.6031(3)
C17_2 C 0.559(3) 0.935(5) 0.3816(6)
C19_3 C 0.602(5) 0.892(3) 0.4517(6)
C20_4 C 0.624(4) 0.559(3) 0.6184(6)
H8_2 H 0.5161 0.9536 0.3736
H10_3 H 0.6203 0.8494 0.4597
H11_4 H 0.5625 0.5161 0.6264
C22_2 C 0.516(3) 0.817(4) 0.3885(6)
C24_3 C 0.484(4) 0.849(3) 0.4448(6)
C25_4 C 0.699(3) 0.516(3) 0.6115(6)
H13_2 H 0.4399 0.7665 0.3869
H15_3 H 0.4332 0.7732 0.4464
H16_4 H 0.6734 0.4399 0.6131
C27_2 C 0.574(3) 0.781(5) 0.3964(6)
C29_3 C 0.448(5) 0.907(3) 0.4369(6)
C30_4 C 0.793(4) 0.574(3) 0.6036(6)
H18_2 H 0.5488 0.7061 0.3989
H20_3 H 0.3728 0.8821 0.4344
H21_4 H 0.8427 0.5488 0.6011
C32_2 C 0.699(3) 0.881(4) 0.4016(4)
C35_4 C 0.818(2) 0.699(3) 0.5984(4)
C37_2 C 0.7798(16) 0.7973(23) 0.4794(3)
C38_2 C 0.9825(17) 0.7798(16) 0.5206(3)
N73_2 N 0.762(3) 0.802(4) 0.4990(3)
N74_2 N 0.960(2) 0.762(3) 0.5010(3)
C42_2 C 0.674(3) 0.715(4) 0.5080(2)
C43_2 C 0.959(3) 0.674(3) 0.4920(2)
H23_2 H 0.6619 0.7182 0.5214
H24_2 H 0.9437 0.6619 0.4786
C47_2 C 0.602(3) 0.622(5) 0.4974(4)
C48_2 C 0.980(4) 0.602(3) 0.5026(4)
H28_2 H 0.5416 0.5631 0.5036
H29_2 H 0.9785 0.5416 0.4964
C52_2 C 0.620(2) 0.618(4) 0.4778(3)
C54_2 C 0.618(4) 0.998(3) 0.5222(3)
H33_2 H 0.5708 0.5550 0.4706
H35_2 H 0.5550 0.9842 0.5294
C57_2 C 0.7084(18) 0.7054(27) 0.4688(2)
C59_2 C 0.7054(27) 0.997(2) 0.5312(2)
H39_2 H 0.664805 0.962814 0.558674
H4_3 H 0.0048 0.3896 0.3119
C8_3 C 0.065(3) 0.353(4) 0.3359(4)
H5_3 H 0.1251 0.3548 0.3297
C9_3 C 0.047(2) 0.331(3) 0.3555(3)
H6_3 H 0.0959 0.3175 0.3627
Eu10_3 Eu 0.00001(18) 0.58524(13) 0.2500
N19_3 N 0.196(4) 0.773(2) 0.2569(5)
N39_3 N 0.118(2) 0.500(2) 0.2628(3)
N55_3 N 0.052(4) 0.644(3) 0.2146(4)
N66_3 N 0.134(3) 0.643(2) 0.2168(4)
C50_3 C 0.045(5) 0.731(3) 0.3307(4)
H31_3 H 0.1036 0.7917 0.3369
C55_3 C 0.049(4) 0.713(2) 0.3111(3)
H36_3 H 0.1117 0.7625 0.3039
H38_3 H 0.0018615 0.631342 0.274659
Eu3_13 Eu 0.6667 0.3333 0.3333
N7_3 N 0.8040(17) 0.341(2) 0.3662(5)
C6_3 C 0.8869(16) 0.3508(17) 0.3539(3)
N8_3 N 0.905(3) 0.373(2) 0.3343(3)
C7_3 C 0.993(3) 0.374(3) 0.3253(2)
C10_3 C 0.9583(18) 0.330(2) 0.3645(2)
Eu4_9 Eu 0.6667 0.3333 0.26790(3)
Eu8_3 Eu 0.41476(13) 0.41476(13) 0.2500
Eu9_3 Eu 0.58524(13) -0.00001(18) 0.2500
Eu10_4 Eu 1.00001(18) 0.58524(13) 0.2500
N13_3 N 0.424(3) 0.227(2) 0.2431(5)
N16_3 N 0.227(2) 0.424(3) 0.2569(5)
N18_3 N 0.773(2) 0.196(4) 0.2431(5)
N20_3 N 0.804(4) 0.576(3) 0.2431(5)
N21_3 N 0.5430(18) 0.3748(26) 0.4215(3)
N25_3 N 0.5015(19) 0.2096(18) 0.2451(3)
N26_3 N 0.7904(18) 0.2918(26) 0.2451(3)
N27_3 N 0.7082(26) 0.4985(19) 0.2451(3)
N32_3 N 0.500(2) 0.118(2) 0.2372(3)
N35_3 N 0.500(2) 0.619(3) 0.2628(3)
N36_3 N 0.619(3) 0.500(2) 0.2372(3)
N38_3 N 0.882(2) 0.381(3) 0.2372(3)
N40_3 N 0.323(3) 0.315(5) 0.4451(6)
N47_3 N 0.409(2) 0.356(3) 0.2854(4)
N48_3 N 0.644(3) 0.052(4) 0.2854(4)
N49_3 N 0.948(4) 0.591(2) 0.2854(4)
N53_3 N 0.356(3) 0.409(2) 0.2146(4)
N58_3 N 0.492(2) 0.357(2) 0.2832(4)
N59_3 N 0.643(2) 0.134(3) 0.2832(4)
N60_3 N 0.866(3) 0.508(2) 0.2832(4)
N64_3 N 0.357(2) 0.492(2) 0.2168(4)
N67_3 N 0.659(2) 0.4626(26) 0.3662(5)
N68_3 N 0.5374(26) 0.1960(17) 0.3662(5)
N69_3 N 0.5294(17) 0.325(2) 0.3004(5)
N70_3 N 0.675(2) 0.2040(26) 0.3004(5)
N71_3 N 0.7960(26) 0.4706(17) 0.3004(5)
C11_3 C 0.402(2) 0.357(4) 0.4364(3)
C15_5 C 0.378(3) 0.068(2) 0.2302(3)
C16_3 C 0.291(4) 0.398(5) 0.4517(6)
H7_3 H 0.2292 0.3797 0.4597
C21_3 C 0.366(3) 0.516(4) 0.4448(6)
C25_5 C 0.183(3) 0.032(3) 0.2218(6)
H12_3 H 0.3401 0.5668 0.4464
H16_5 H 0.1066 0.0067 0.2202
C26_3 C 0.460(4) 0.552(5) 0.4369(6)
C30_5 C 0.241(3) 0.126(4) 0.2297(6)
H17_3 H 0.5094 0.6272 0.4344
H21_5 H 0.2155 0.1760 0.2322
C31_3 C 0.485(2) 0.452(4) 0.4317(4)
C35_5 C 0.366(3) 0.151(2) 0.2349(4)
C36_3 C 0.6492(17) 0.5360(23) 0.3539(3)
C37_3 C 0.4640(23) 0.1131(16) 0.3539(3)
C38_3 C 0.4465(16) 0.3158(17) 0.3127(3)
C39_3 C 0.6842(17) 0.1306(23) 0.3127(3)
C40_3 C 0.8694(23) 0.5535(16) 0.3127(3)
N72_3 N 0.627(2) 0.531(4) 0.3343(3)
N73_3 N 0.469(4) 0.095(3) 0.3343(3)
N74_3 N 0.429(3) 0.293(2) 0.3323(3)
N75_3 N 0.707(2) 0.135(4) 0.3323(3)
N76_3 N 0.865(4) 0.571(3) 0.3323(3)
C41_3 C 0.626(3) 0.618(4) 0.3253(2)
C42_3 C 0.382(4) 0.007(3) 0.3253(2)
C43_3 C 0.341(3) 0.292(3) 0.3413(2)
C44_3 C 0.708(3) 0.048(4) 0.3413(2)
C45_3 C 0.952(4) 0.659(3) 0.3413(2)
H22_3 H 0.6104 0.6151 0.3119
H24_3 H 0.3286 0.2770 0.3547
H25_3 H 0.7230 0.0515 0.3547
H26_3 H 0.9485 0.6714 0.3547
C46_3 C 0.647(4) 0.711(5) 0.3359(4)
C48_3 C 0.269(3) 0.313(4) 0.3307(4)
H27_3 H 0.6452 0.7702 0.3297
H29_3 H 0.2083 0.3118 0.3369
C51_3 C 0.669(3) 0.715(4) 0.3555(3)
C53_3 C 0.287(2) 0.335(3) 0.3111(3)
H32_3 H 0.6825 0.7783 0.3627
H34_3 H 0.2375 0.3491 0.3039
C56_3 C 0.670(2) 0.6279(27) 0.3645(2)
C57_3 C 0.3721(27) 0.0417(18) 0.3645(2)
C58_3 C 0.3751(18) 0.336(2) 0.3021(2)
C59_3 C 0.664(2) 0.0387(27) 0.3021(2)
C60_3 C 0.9613(27) 0.6249(18) 0.3021(2)
H37_3 H 0.368658 0.37052 0.274659
Eu9_4 Eu 0.58524(13) 0.99999(18) 0.2500
N17_3 N 0.576(3) 0.804(4) 0.2569(5)
N37_3 N 0.381(3) 0.882(2) 0.2628(3)
N44_5 N 0.341(4) 0.989(3) 0.2215(6)
N54_3 N 0.591(2) 0.948(4) 0.2146(4)
N65_3 N 0.508(2) 0.866(3) 0.2168(4)
C20_5 C 0.226(3) 0.957(4) 0.2149(6)
H11_5 H 0.1828 0.8958 0.2069
H23_3 H 0.3849 0.9952 0.3119
C47_3 C 0.289(5) 0.935(3) 0.3359(4)
C49_3 C 0.687(4) 0.955(5) 0.3307(4)
H28_3 H 0.2298 0.8749 0.3297
H30_3 H 0.6882 0.8964 0.3369
C52_3 C 0.285(4) 0.953(2) 0.3555(3)
C54_3 C 0.665(3) 0.951(4) 0.3111(3)
H33_3 H 0.2217 0.9041 0.3627
H35_3 H 0.6509 0.8883 0.3039
H39_3 H 0.62948 0.998139 0.274659
N44_6 N 0.011(3) 0.351(5) 0.2215(6)
C20_6 C 0.043(4) 0.268(5) 0.2149(6)
H11_6 H 0.1042 0.2869 0.2069
C15_6 C 0.932(2) 0.309(4) 0.2302(3)
C25_6 C 0.968(3) 0.150(4) 0.2218(6)
H16_6 H 0.9933 0.0998 0.2202
C30_6 C 0.874(4) 0.114(5) 0.2297(6)
H21_6 H 0.8240 0.0394 0.2322
C35_6 C 0.849(2) 0.214(4) 0.2349(4)
N44_7 N 0.649(5) 0.659(4) 0.2215(6)
C15_7 C 0.691(4) 0.622(3) 0.2302(3)
C20_7 C 0.732(5) 0.774(3) 0.2149(6)
H11_7 H 0.7131 0.8172 0.2069
C25_7 C 0.850(4) 0.817(3) 0.2218(6)
H16_7 H 0.9002 0.8934 0.2202
C30_7 C 0.886(5) 0.759(3) 0.2297(6)
H21_7 H 0.9606 0.7845 0.2322
C35_7 C 0.786(4) 0.634(3) 0.2349(4)
N4_3 N 0.011(3) 0.659(4) 0.7215(6)
C2_3 C 0.043(4) 0.774(3) 0.7149(6)
H1_3 H 0.1042 0.8172 0.7069
Eu6_3 Eu 0.00001(18) 0.41476(13) 0.7500
N14_3 N 0.196(4) 0.424(3) 0.7569(5)
N33_3 N 0.118(2) 0.619(3) 0.7628(3)
N51_3 N 0.052(4) 0.409(2) 0.7146(4)
N62_3 N 0.134(3) 0.492(2) 0.7168(4)
H26_4 H 0.0048 0.6151 0.8119
C46_4 C 0.045(5) 0.313(4) 0.8307(4)
C50_4 C 0.065(3) 0.711(5) 0.8359(4)
H27_4 H 0.1036 0.3118 0.8369
H31_4 H 0.1251 0.7702 0.8297
C51_4 C 0.049(4) 0.335(3) 0.8111(3)
C55_4 C 0.047(2) 0.715(4) 0.8555(3)
H32_4 H 0.1117 0.3491 0.8039
H36_4 H 0.0959 0.7783 0.8627
Eu11_3 Eu 0.41476(13) -0.00001(18) 0.7500
N42_3 N 0.659(4) 0.011(3) 0.7785(6)
C18_3 C 0.774(3) 0.043(4) 0.7851(6)
H9_3 H 0.8172 0.1042 0.7931
Eu1_9 Eu 0.6667 0.3333 0.76790(3)
Eu2_3 Eu 0.58524(13) 0.58524(13) 0.7500
Eu3_14 Eu 0.6667 0.3333 0.8333
N1_3 N 0.773(2) 0.576(3) 0.7431(5)
N2_3 N 0.7904(18) 0.4985(19) 0.7451(3)
N3_3 N 0.882(2) 0.500(2) 0.7372(3)
N5_3 N 0.644(3) 0.591(2) 0.7854(4)
N6_3 N 0.643(2) 0.508(2) 0.7832(4)
N7_4 N 0.675(2) 0.4706(17) 0.8004(5)
C1_3 C 0.932(2) 0.622(3) 0.7302(3)
C3_3 C 0.968(3) 0.817(3) 0.7218(6)
H2_3 H 0.9933 0.8934 0.7202
C4_3 C 0.874(4) 0.759(3) 0.7297(6)
H3_3 H 0.8240 0.7845 0.7322
C5_3 C 0.849(2) 0.634(3) 0.7349(4)
C6_4 C 0.6842(17) 0.5535(16) 0.8127(3)
N8_4 N 0.707(2) 0.571(3) 0.8323(3)
C7_4 C 0.708(3) 0.659(3) 0.8413(2)
H4_4 H 0.7230 0.6714 0.8547
C8_4 C 0.687(4) 0.731(3) 0.8307(4)
H5_4 H 0.6882 0.7917 0.8369
C9_4 C 0.665(3) 0.713(2) 0.8111(3)
H6_4 H 0.6509 0.7625 0.8039
C10_4 C 0.664(2) 0.6249(18) 0.8021(2)
Eu4_10 Eu 0.6667 0.3333 0.89876(3)
Eu5_3 Eu 0.3333 0.6667 0.73210(3)
Eu6_4 Eu 1.00001(18) 0.41476(13) 0.7500
Eu11_4 Eu 0.41476(13) 0.99999(18) 0.7500
N9_3 N 0.804(4) 0.227(2) 0.7431(5)
N10_3 N 0.424(3) 0.196(4) 0.7431(5)
N11_3 N 0.576(3) 0.773(2) 0.7569(5)
N21_4 N 0.7082(26) 0.2096(18) 0.7451(3)
N22_3 N 0.5015(19) 0.2918(26) 0.7451(3)
N23_3 N 0.4985(19) 0.7904(18) 0.7549(3)
N24_4 N 0.2918(26) 0.5015(19) 0.7549(3)
N25_4 N 0.5430(18) 0.1681(19) 0.9215(3)
N26_4 N 0.6252(26) 0.4570(18) 0.9215(3)
N27_4 N 0.8319(19) 0.3748(26) 0.9215(3)
N28_3 N 0.619(3) 0.118(2) 0.7372(3)
N29_3 N 0.500(2) 0.381(3) 0.7372(3)
N30_3 N 0.500(2) 0.882(2) 0.7628(3)
N31_3 N 0.381(3) 0.500(2) 0.7628(3)
N41_3 N 0.341(4) 0.351(5) 0.7215(6)
N43_4 N 0.351(5) 0.341(4) 0.7785(6)
N44_8 N 0.323(3) 0.007(4) 0.9451(6)
N45_3 N 0.948(4) 0.356(3) 0.7854(4)
N46_3 N 0.409(2) 0.052(4) 0.7854(4)
N50_3 N 0.591(2) 0.644(3) 0.7146(4)
N56_3 N 0.866(3) 0.357(2) 0.7832(4)
N57_3 N 0.492(2) 0.134(3) 0.7832(4)
N61_3 N 0.508(2) 0.643(2) 0.7168(4)
N67_4 N 0.7960(26) 0.325(2) 0.8004(5)
N68_4 N 0.5294(17) 0.2040(26) 0.8004(5)
N69_4 N 0.659(2) 0.1960(17) 0.8662(5)
N70_4 N 0.5374(26) 0.341(2) 0.8662(5)
N71_4 N 0.8040(17) 0.4626(26) 0.8662(5)
C11_4 C 0.691(4) 0.068(2) 0.7302(3)
C12_3 C 0.378(3) 0.309(4) 0.7302(3)
C13_3 C 0.622(3) 0.932(2) 0.7698(3)
C14_4 C 0.309(4) 0.378(3) 0.7698(3)
C15_8 C 0.402(2) 0.044(3) 0.9364(3)
C17_3 C 0.226(3) 0.268(5) 0.7149(6)
C19_4 C 0.268(5) 0.226(3) 0.7851(6)
H8_3 H 0.1828 0.2869 0.7069
H10_4 H 0.2869 0.1828 0.7931
C21_4 C 0.850(4) 0.032(3) 0.7218(6)
C22_3 C 0.183(3) 0.150(4) 0.7218(6)
C23_3 C 0.817(3) 0.968(3) 0.7782(6)
C24_4 C 0.150(4) 0.183(3) 0.7782(6)
H12_4 H 0.9002 0.0067 0.7202
H13_3 H 0.1066 0.0998 0.7202
H14_3 H 0.8934 0.9933 0.7798
H15_4 H 0.0998 0.1066 0.7798
C26_4 C 0.886(5) 0.126(4) 0.7297(6)
C27_3 C 0.241(3) 0.114(5) 0.7297(6)
C28_3 C 0.759(3) 0.874(4) 0.7703(6)
C29_4 C 0.114(5) 0.241(3) 0.7703(6)
H17_4 H 0.9606 0.1760 0.7322
H18_3 H 0.2155 0.0394 0.7322
H19_3 H 0.7845 0.8240 0.7678
H20_4 H 0.0394 0.2155 0.7678
C31_4 C 0.786(4) 0.151(2) 0.7349(4)
C32_3 C 0.366(3) 0.214(4) 0.7349(4)
C33_3 C 0.634(3) 0.849(2) 0.7651(4)
C34_4 C 0.214(4) 0.366(3) 0.7651(4)
C35_8 C 0.485(2) 0.032(3) 0.9317(4)
C36_4 C 0.8694(23) 0.3158(17) 0.8127(3)
C37_4 C 0.4465(16) 0.1306(23) 0.8127(3)
C38_4 C 0.6492(17) 0.1131(16) 0.8539(3)
C39_4 C 0.4640(23) 0.3508(17) 0.8539(3)
C40_4 C 0.8869(16) 0.5360(23) 0.8539(3)
N72_4 N 0.865(4) 0.293(2) 0.8323(3)
N73_4 N 0.429(3) 0.135(4) 0.8323(3)
N74_4 N 0.627(2) 0.095(3) 0.8343(3)
N75_4 N 0.469(4) 0.373(2) 0.8343(3)
N76_4 N 0.905(3) 0.531(4) 0.8343(3)
C41_4 C 0.952(4) 0.292(3) 0.8413(2)
C42_4 C 0.341(3) 0.048(4) 0.8413(2)
C43_4 C 0.626(3) 0.007(3) 0.8253(2)
C44_4 C 0.382(4) 0.374(3) 0.8253(2)
C45_4 C 0.993(3) 0.618(4) 0.8253(2)
H22_4 H 0.9485 0.2770 0.8547
H23_4 H 0.3286 0.0515 0.8547
H25_4 H 0.3849 0.3896 0.8119
C49_4 C 0.289(5) 0.353(4) 0.8359(4)
H30_4 H 0.2298 0.3548 0.8297
C54_4 C 0.285(4) 0.331(3) 0.8555(3)
H35_4 H 0.2217 0.3175 0.8627
C56_4 C 0.9613(27) 0.336(2) 0.8021(2)
C57_4 C 0.3751(18) 0.0387(27) 0.8021(2)
C58_4 C 0.670(2) 0.0417(18) 0.8645(2)
C59_4 C 0.3721(27) 0.330(2) 0.8645(2)
C60_4 C 0.9583(18) 0.6279(27) 0.8645(2)
H37_4 H 0.703853 0.0353247 0.892007
H38_4 H 0.964675 0.668528 0.892007
H39_4 H 0.331472 0.296147 0.892007
N15_3 N 0.227(2) 0.804(4) 0.7569(5)
N40_4 N 0.649(5) 0.989(3) 0.7215(6)
N52_3 N 0.356(3) 0.948(4) 0.7146(4)
N63_3 N 0.357(2) 0.866(3) 0.7168(4)
C16_4 C 0.732(5) 0.957(4) 0.7149(6)
C20_8 C 0.291(4) 0.892(3) 0.9517(6)
H7_4 H 0.7131 0.8958 0.7069
H11_8 H 0.2292 0.8494 0.9597
C25_8 C 0.366(3) 0.849(3) 0.9448(6)
H16_8 H 0.3401 0.7732 0.9464
C30_8 C 0.460(4) 0.907(3) 0.9369(6)
H21_8 H 0.5094 0.8821 0.9344
H24_4 H 0.6104 0.9952 0.8119
C47_4 C 0.269(3) 0.955(5) 0.8307(4)
C48_4 C 0.647(4) 0.935(3) 0.8359(4)
H28_4 H 0.2083 0.8964 0.8369
H29_4 H 0.6452 0.8749 0.8297
C52_4 C 0.287(2) 0.951(4) 0.8111(3)
C53_4 C 0.669(3) 0.953(2) 0.8555(3)
H33_4 H 0.2375 0.8883 0.8039
H34_4 H 0.6825 0.9041 0.8627
H26_5 H 0.6151 0.0048 0.6881
C46_5 C 0.313(4) 0.045(5) 0.6693(4)
C50_5 C 0.711(5) 0.065(3) 0.6641(4)
H27_5 H 0.3118 0.1036 0.6631
H31_5 H 0.7702 0.1251 0.6703
C51_5 C 0.335(3) 0.049(4) 0.6889(3)
C55_5 C 0.715(4) 0.047(2) 0.6445(3)
H32_5 H 0.3491 0.1117 0.6961
H36_5 H 0.7783 0.0959 0.6373
Eu3_15 Eu 0.3333 0.6667 0.6667
N7_5 N 0.4706(17) 0.675(2) 0.6996(5)
C6_5 C 0.5535(16) 0.6842(17) 0.6873(3)
N8_5 N 0.571(3) 0.707(2) 0.6677(3)
C7_5 C 0.659(3) 0.708(3) 0.6587(2)
H4_5 H 0.6714 0.7230 0.6453
C8_5 C 0.731(3) 0.687(4) 0.6693(4)
H5_5 H 0.7917 0.6882 0.6631
C9_5 C 0.713(2) 0.665(3) 0.6889(3)
H6_5 H 0.7625 0.6509 0.6961
C10_5 C 0.6249(18) 0.664(2) 0.6979(2)
Eu4_11 Eu 0.3333 0.6667 0.60124(3)
N21_5 N 0.2096(18) 0.7082(26) 0.7549(3)
N25_5 N 0.1681(19) 0.5430(18) 0.5785(3)
N26_5 N 0.4570(18) 0.6252(26) 0.5785(3)
N27_5 N 0.3748(26) 0.8319(19) 0.5785(3)
N44_9 N 0.007(4) 0.323(3) 0.5549(6)
N67_5 N 0.325(2) 0.7960(26) 0.6996(5)
N68_5 N 0.2040(26) 0.5294(17) 0.6996(5)
N69_5 N 0.1960(17) 0.659(2) 0.6338(5)
N70_5 N 0.341(2) 0.5374(26) 0.6338(5)
N71_5 N 0.4626(26) 0.8040(17) 0.6338(5)
C11_5 C 0.068(2) 0.691(4) 0.7698(3)
C15_9 C 0.044(3) 0.402(2) 0.5636(3)
C21_5 C 0.032(3) 0.850(4) 0.7782(6)
H12_5 H 0.0067 0.9002 0.7798
C26_5 C 0.126(4) 0.886(5) 0.7703(6)
H17_5 H 0.1760 0.9606 0.7678
C31_5 C 0.151(2) 0.786(4) 0.7651(4)
C35_9 C 0.032(3) 0.485(2) 0.5683(4)
C36_5 C 0.3158(17) 0.8694(23) 0.6873(3)
C37_5 C 0.1306(23) 0.4465(16) 0.6873(3)
C38_5 C 0.1131(16) 0.6492(17) 0.6461(3)
C39_5 C 0.3508(17) 0.4640(23) 0.6461(3)
C40_5 C 0.5360(23) 0.8869(16) 0.6461(3)
N72_5 N 0.293(2) 0.865(4) 0.6677(3)
N73_5 N 0.135(4) 0.429(3) 0.6677(3)
N74_5 N 0.095(3) 0.627(2) 0.6657(3)
N75_5 N 0.373(2) 0.469(4) 0.6657(3)
N76_5 N 0.531(4) 0.905(3) 0.6657(3)
C41_5 C 0.292(3) 0.952(4) 0.6587(2)
C42_5 C 0.048(4) 0.341(3) 0.6587(2)
C43_5 C 0.007(3) 0.626(3) 0.6747(2)
C44_5 C 0.374(3) 0.382(4) 0.6747(2)
C45_5 C 0.618(4) 0.993(3) 0.6747(2)
H22_5 H 0.2770 0.9485 0.6453
H23_5 H 0.0515 0.3286 0.6453
H25_5 H 0.3896 0.3849 0.6881
C49_5 C 0.353(4) 0.289(5) 0.6641(4)
H30_5 H 0.3548 0.2298 0.6703
C54_5 C 0.331(3) 0.285(4) 0.6445(3)
H35_5 H 0.3175 0.2217 0.6373
C56_5 C 0.336(2) 0.9613(27) 0.6979(2)
C57_5 C 0.0387(27) 0.3751(18) 0.6979(2)
C58_5 C 0.0417(18) 0.670(2) 0.6355(2)
C59_5 C 0.330(2) 0.3721(27) 0.6355(2)
C60_5 C 0.6279(27) 0.9583(18) 0.6355(2)
H37_5 H 0.0353247 0.703853 0.607993
H38_5 H 0.668528 0.964675 0.607993
H39_5 H 0.296147 0.331472 0.607993
N40_5 N 0.989(3) 0.649(5) 0.7785(6)
C16_5 C 0.957(4) 0.732(5) 0.7851(6)
C20_9 C 0.892(3) 0.291(4) 0.5483(6)
H7_5 H 0.8958 0.7131 0.7931
H11_9 H 0.8494 0.2292 0.5403
C25_9 C 0.849(3) 0.366(3) 0.5552(6)
H16_9 H 0.7732 0.3401 0.5536
C30_9 C 0.907(3) 0.460(4) 0.5631(6)
H21_9 H 0.8821 0.5094 0.5656
H24_5 H 0.9952 0.6104 0.6881
C47_5 C 0.955(5) 0.269(3) 0.6693(4)
C48_5 C 0.935(3) 0.647(4) 0.6641(4)
H28_5 H 0.8964 0.2083 0.6631
H29_5 H 0.8749 0.6452 0.6703
C52_5 C 0.951(4) 0.287(2) 0.6889(3)
C53_5 C 0.953(2) 0.669(3) 0.6445(3)
H33_5 H 0.8883 0.2375 0.6961
H34_5 H 0.9041 0.6825 0.6373
H4_6 H 0.3896 0.0048 0.1881
C8_6 C 0.353(4) 0.065(3) 0.1641(4)
H5_6 H 0.3548 0.1251 0.1703
C9_6 C 0.331(3) 0.047(2) 0.1445(3)
H6_6 H 0.3175 0.0959 0.1373
C50_6 C 0.731(3) 0.045(5) 0.1693(4)
H31_6 H 0.7917 0.1036 0.1631
C55_6 C 0.713(2) 0.049(4) 0.1889(3)
H36_6 H 0.7625 0.1117 0.1961
H38_6 H 0.631342 0.0018615 0.225341
Eu3_16 Eu 0.3333 0.6667 0.1667
N7_6 N 0.341(2) 0.8040(17) 0.1338(5)
C6_6 C 0.3508(17) 0.8869(16) 0.1461(3)
N8_6 N 0.373(2) 0.905(3) 0.1657(3)
C7_6 C 0.374(3) 0.993(3) 0.1747(2)
C10_6 C 0.330(2) 0.9583(18) 0.1355(2)
Eu4_12 Eu 0.3333 0.6667 0.23210(3)
N25_6 N 0.2096(18) 0.5015(19) 0.2549(3)
N26_6 N 0.2918(26) 0.7904(18) 0.2549(3)
N27_6 N 0.4985(19) 0.7082(26) 0.2549(3)
N67_6 N 0.4626(26) 0.659(2) 0.1338(5)
N68_6 N 0.1960(17) 0.5374(26) 0.1338(5)
N69_6 N 0.325(2) 0.5294(17) 0.1996(5)
N70_6 N 0.2040(26) 0.675(2) 0.1996(5)
N71_6 N 0.4706(17) 0.7960(26) 0.1996(5)
C15_10 C 0.068(2) 0.378(3) 0.2698(3)
C25_10 C 0.032(3) 0.183(3) 0.2782(6)
H16_10 H 0.0067 0.1066 0.2798
C30_10 C 0.126(4) 0.241(3) 0.2703(6)
H21_10 H 0.1760 0.2155 0.2678
C35_10 C 0.151(2) 0.366(3) 0.2651(4)
C36_6 C 0.5360(23) 0.6492(17) 0.1461(3)
C37_6 C 0.1131(16) 0.4640(23) 0.1461(3)
C38_6 C 0.3158(17) 0.4465(16) 0.1873(3)
C39_6 C 0.1306(23) 0.6842(17) 0.1873(3)
C40_6 C 0.5535(16) 0.8694(23) 0.1873(3)
N72_6 N 0.531(4) 0.627(2) 0.1657(3)
N73_6 N 0.095(3) 0.469(4) 0.1657(3)
N74_6 N 0.293(2) 0.429(3) 0.1677(3)
N75_6 N 0.135(4) 0.707(2) 0.1677(3)
N76_6 N 0.571(3) 0.865(4) 0.1677(3)
C41_6 C 0.618(4) 0.626(3) 0.1747(2)
C42_6 C 0.007(3) 0.382(4) 0.1747(2)
C43_6 C 0.292(3) 0.341(3) 0.1587(2)
C44_6 C 0.048(4) 0.708(3) 0.1587(2)
C45_6 C 0.659(3) 0.952(4) 0.1587(2)
H22_6 H 0.6151 0.6104 0.1881
H24_6 H 0.2770 0.3286 0.1453
H25_6 H 0.0515 0.7230 0.1453
H26_6 H 0.6714 0.9485 0.1453
C46_6 C 0.711(5) 0.647(4) 0.1641(4)
C48_6 C 0.313(4) 0.269(3) 0.1693(4)
H27_6 H 0.7702 0.6452 0.1703
H29_6 H 0.3118 0.2083 0.1631
C51_6 C 0.715(4) 0.669(3) 0.1445(3)
C53_6 C 0.335(3) 0.287(2) 0.1889(3)
H32_6 H 0.7783 0.6825 0.1373
H34_6 H 0.3491 0.2375 0.1961
C56_6 C 0.6279(27) 0.670(2) 0.1355(2)
C57_6 C 0.0417(18) 0.3721(27) 0.1355(2)
C58_6 C 0.336(2) 0.3751(18) 0.1979(2)
C59_6 C 0.0387(27) 0.664(2) 0.1979(2)
C60_6 C 0.6249(18) 0.9613(27) 0.1979(2)
H37_6 H 0.37052 0.368658 0.225341
N44_10 N 0.989(3) 0.341(4) 0.2785(6)
C20_10 C 0.957(4) 0.226(3) 0.2851(6)
H11_10 H 0.8958 0.1828 0.2931
H23_6 H 0.9952 0.3849 0.1881
C47_6 C 0.935(3) 0.289(5) 0.1641(4)
C49_6 C 0.955(5) 0.687(4) 0.1693(4)
H28_6 H 0.8749 0.2298 0.1703
H30_6 H 0.8964 0.6882 0.1631
C52_6 C 0.953(2) 0.285(4) 0.1445(3)
C54_6 C 0.951(4) 0.665(3) 0.1889(3)
H33_6 H 0.9041 0.2217 0.1373
H35_6 H 0.8883 0.6509 0.1961
H39_6 H 0.998139 0.62948 0.225341
N44_11 N 0.018(5) 0.344(3) 0.6118(6)
C15_11 C 0.976(4) 0.265(2) 0.6031(3)
C20_11 C 0.935(5) 0.376(4) 0.6184(6)
H11_11 H 0.9536 0.4375 0.6264
C25_11 C 0.817(4) 0.301(3) 0.6115(6)
H16_11 H 0.7665 0.3266 0.6131
C30_11 C 0.781(5) 0.207(4) 0.6036(6)
H21_11 H 0.7061 0.1573 0.6011
C35_11 C 0.881(4) 0.182(2) 0.5984(4)
C15_12 C 0.289(3) 0.024(4) 0.6031(3)
C20_12 C 0.441(3) 0.065(5) 0.6184(6)
H11_12 H 0.4839 0.0464 0.6264
C25_12 C 0.484(3) 0.183(4) 0.6115(6)
H16_12 H 0.5601 0.2335 0.6131
C30_12 C 0.426(3) 0.219(5) 0.6036(6)
H21_12 H 0.4512 0.2939 0.6011
C35_12 C 0.301(3) 0.119(4) 0.5984(4)
N44_12 N 0.326(4) 0.982(5) 0.6118(6)
N44_13 N 0.677(3) 0.685(5) 0.5549(6)
C15_13 C 0.598(2) 0.643(4) 0.5636(3)
C20_13 C 0.709(4) 0.602(5) 0.5483(6)
H11_13 H 0.7708 0.6203 0.5403
C25_13 C 0.634(3) 0.484(4) 0.5552(6)
H16_13 H 0.6599 0.4332 0.5536
C30_13 C 0.540(4) 0.448(5) 0.5631(6)
H21_13 H 0.4906 0.3728 0.5656
C35_13 C 0.515(2) 0.548(4) 0.5683(4)
C20_14 C 0.398(5) 0.108(3) 0.5483(6)
H11_14 H 0.3797 0.1506 0.5403
C25_14 C 0.516(4) 0.151(3) 0.5552(6)
H16_14 H 0.5668 0.2268 0.5536
C30_14 C 0.552(5) 0.093(3) 0.5631(6)
H21_14 H 0.6272 0.1179 0.5656
N44_14 N 0.315(5) 0.993(4) 0.5549(6)
C15_14 C 0.357(4) 0.956(3) 0.5636(3)
C35_14 C 0.452(4) 0.968(3) 0.5683(4)
N44_15 N 0.351(5) 0.011(3) 0.2785(6)
C20_15 C 0.268(5) 0.043(4) 0.2851(6)
H11_15 H 0.2869 0.1042 0.2931
C15_15 C 0.309(4) 0.932(2) 0.2698(3)
C25_15 C 0.150(4) 0.968(3) 0.2782(6)
H16_15 H 0.0998 0.9933 0.2798
C30_15 C 0.114(5) 0.874(4) 0.2703(6)
H21_15 H 0.0394 0.8240 0.2678
C35_15 C 0.214(4) 0.849(2) 0.2651(4)
N44_16 N 0.659(4) 0.649(5) 0.2785(6)
C15_16 C 0.622(3) 0.691(4) 0.2698(3)
C20_16 C 0.774(3) 0.732(5) 0.2851(6)
H11_16 H 0.8172 0.7131 0.2931
C25_16 C 0.817(3) 0.850(4) 0.2782(6)
H16_16 H 0.8934 0.9002 0.2798
C30_16 C 0.759(3) 0.886(5) 0.2703(6)
H21_16 H 0.7845 0.9606 0.2678
C35_16 C 0.634(3) 0.786(4) 0.2651(4)
N44_17 N 0.685(5) 0.677(3) 0.9451(6)
C15_17 C 0.643(4) 0.598(2) 0.9364(3)
C20_17 C 0.602(5) 0.709(4) 0.9517(6)
H11_17 H 0.6203 0.7708 0.9597
C25_17 C 0.484(4) 0.634(3) 0.9448(6)
H16_17 H 0.4332 0.6599 0.9464
C30_17 C 0.448(5) 0.540(4) 0.9369(6)
H21_17 H 0.3728 0.4906 0.9344
C35_17 C 0.548(4) 0.515(2) 0.9317(4)
C20_18 C 0.108(3) 0.398(5) 0.9517(6)
H11_18 H 0.1506 0.3797 0.9597
C25_18 C 0.151(3) 0.516(4) 0.9448(6)
H16_18 H 0.2268 0.5668 0.9464
C30_18 C 0.093(3) 0.552(5) 0.9369(6)
H21_18 H 0.1179 0.6272 0.9344
N44_18 N 0.993(4) 0.315(5) 0.9451(6)
C15_18 C 0.956(3) 0.357(4) 0.9364(3)
C35_18 C 0.968(3) 0.452(4) 0.9317(4)
H39_7 H 0.0371862 0.335195 0.0586739
H37_7 H 0.298009 0.962814 0.0586739
H38_7 H 0.664805 0.701991 0.0586739
H39_8 H 0.335195 0.0371862 0.441326
H37_8 H 0.962814 0.298009 0.441326
H38_8 H 0.701991 0.664805 0.441326
H39_9 H 0.37052 0.0018615 0.725341
H37_9 H 0.631342 0.62948 0.725341
H38_9 H 0.998139 0.368658 0.725341
H37_10 H 0.296147 0.964675 0.107993
H38_10 H 0.0353247 0.331472 0.107993
H39_10 H 0.668528 0.703853 0.107993
H37_11 H 0.964675 0.296147 0.392007
H38_11 H 0.331472 0.0353247 0.392007
H39_11 H 0.703853 0.668528 0.392007
H39_12 H 0.0018615 0.37052 0.774659
H37_12 H 0.62948 0.631342 0.774659
H38_12 H 0.368658 0.998139 0.774659
loop_
_geom_bond_atom_site_label_1
_geom_bond_atom_site_label_2
_geom_bond_site_symmetry_1
_geom_bond_site_symmetry_2
Eu1 N2 1_555 1_555
Eu3 N7 1_555 1_555
N1 N2 1_555 1_555
N2 N3 1_555 1_555
N3 C1 1_555 1_555
N4 C1 1_555 1_555
N7 Eu1 1_555 1_555
C1 C5 1_555 1_555
C2 N4 1_555 1_555
H1 C2 1_555 1_555
C3 C2 1_555 1_555
H2 C3 1_555 1_555
C4 C3 1_555 1_555
H3 C4 1_555 1_555
C5 N1 1_555 1_555
C6 N7 1_555 1_555
N8 Eu3 1_555 1_555
Eu6 N3 1_555 1_555
N14 Eu6 1_555 1_555
N33 Eu6 1_555 1_555
N45 Eu6 1_555 1_555
N51 Eu6 1_555 1_555
N56 Eu1 1_555 1_555
N62 Eu6 1_555 1_555
H9 C18 1_555 1_555
C23 C18 1_555 1_555
H14 C23 1_555 1_555
C28 C23 1_555 1_555
H19 C28 1_555 1_555
H26 C45 1_555 1_555
H32 C51 1_555 1_555
C56 N45 1_555 1_555
C4 C5 1_555 1_555
C6 N8 1_555 1_555
Eu6 N56 1_555 1_555
N45 N56 1_555 1_555
N51 N62 1_555 1_555
C51 C56 1_555 1_555
H4 C7 1_555 1_555
Eu10 N19 1_555 1_555
N20 Eu10 1_555 1_555
N27 Eu4 1_555 1_555
N38 Eu10 1_555 1_555
N39 Eu10 1_555 1_555
N49 Eu10 1_555 1_555
N55 Eu10 1_555 1_555
N60 Eu4 1_555 1_555
N66 Eu10 1_555 1_555
N71 Eu3_2 1_555 1_555
C40 N71 1_555 1_555
N76 Eu3_2 1_555 1_555
C55 C50 1_555 1_555
H36 C55 1_555 1_555
C60 N49 1_555 1_555
Eu4 N71 1_555 1_555
Eu10 N60 1_555 1_555
N20 N27 1_555 1_555
N49 N60 1_555 1_555
N55 N66 1_555 1_555
N60 N71 1_555 1_555
C40 N76 1_555 1_555
C40 C60 1_555 1_555
C55 C60 1_555 1_555
N49 H38 1_555 1_555
N5 Eu2 1_555 1_555
N6 Eu1_2 1_555 1_555
H6 C9 1_555 1_555
C10 N5 1_555 1_555
Eu5 N23 1_555 1_555
Eu11 N30 1_555 1_555
N11 Eu2 1_555 1_555
N14 N24 1_555 1_555
N23 N11 1_555 1_555
N24 Eu5 1_555 1_555
N29 Eu2 1_555 1_555
N30 N23 1_555 1_555
N31 Eu2 1_555 1_555
N42 C13 1_555 1_555
N43 C14 1_555 1_555
N50 Eu2 1_555 1_555
N61 Eu2 1_555 1_555
C13 N30 1_555 1_555
C14 N31 1_555 1_555
C33 N11 1_555 1_555
C34 N14 1_555 1_555
H25 C44 1_555 1_555
Eu2 N6 1_555 1_555
N5 N6 1_555 1_555
C9 C10 1_555 1_555
Eu5 N61 1_555 1_555
N24 N31 1_555 1_555
N50 N61 1_555 1_555
C13 C33 1_555 1_555
C14 C34 1_555 1_555
N26 Eu4_2 1_555 1_555
N70 Eu3_4 1_555 1_555
C39 N70 1_555 1_555
N75 Eu3_4 1_555 1_555
Eu4_2 N70 1_555 1_555
N18 N26 1_555 1_555
C39 N75 1_555 1_555
N21 Eu1_3 1_555 1_555
N67 Eu1_3 1_555 1_555
H7 C16 1_555 1_555
C21 C16 1_555 1_555
H12 C21 1_555 1_555
C26 C21 1_555 1_555
H17 C26 1_555 1_555
C31 N9 1_555 1_555
C36 N67 1_555 1_555
N72 Eu3_5 1_555 1_555
Eu3_5 N67 1_555 1_555
N9 N21 1_555 1_555
C11 C31 1_555 1_555
C26 C31 1_555 1_555
C36 N72 1_555 1_555
N16 Eu8 1_555 1_555
N35 Eu8 1_555 1_555
N36 Eu8 1_555 1_555
N47 Eu8 1_555 1_555
N53 Eu8 1_555 1_555
N58 Eu4_3 1_555 1_555
N64 Eu8 1_555 1_555
H22 C41 1_555 1_555
H34 C53 1_555 1_555
C58 N47 1_555 1_555
Eu8 N58 1_555 1_555
N47 N58 1_555 1_555
N53 N64 1_555 1_555
C53 C58 1_555 1_555
N47 H37 1_555 1_555
Eu11 N10 1_555 1_555
N10 N22 1_555 1_555
N15 Eu11 1_555 1_555
N22 Eu1_4 1_555 1_555
N28 Eu11 1_555 1_555
N46 Eu11 1_555 1_555
N52 Eu11 1_555 1_555
N57 Eu1_4 1_555 1_555
N63 Eu11 1_555 1_555
N68 Eu1_4 1_555 1_555
H8 C17 1_555 1_555
H10 C19 1_555 1_555
C22 C17 1_555 1_555
C24 C19 1_555 1_555
H13 C22 1_555 1_555
H15 C24 1_555 1_555
C27 C22 1_555 1_555
C29 C24 1_555 1_555
H18 C27 1_555 1_555
H20 C29 1_555 1_555
C32 N10 1_555 1_555
C37 N68 1_555 1_555
N73 Eu3_7 1_555 1_555
H24 C43 1_555 1_555
C52 C47 1_555 1_555
H33 C52 1_555 1_555
C57 N46 1_555 1_555
Eu3_7 N68 1_555 1_555
Eu11 N57 1_555 1_555
N46 N57 1_555 1_555
N52 N63 1_555 1_555
N57 N68 1_555 1_555
C12 C32 1_555 1_555
C27 C32 1_555 1_555
C37 N73 1_555 1_555
C37 C57 1_555 1_555
C52 C57 1_555 1_555
Eu4_4 N25 1_555 1_555
Eu9 N17 1_555 1_555
N13 N25 1_555 1_555
N25 N32 1_555 1_555
N32 Eu9 1_555 1_555
N37 Eu9 1_555 1_555
N44 C15 1_555 1_555
N48 Eu9 1_555 1_555
N54 Eu9 1_555 1_555
N59 Eu4_4 1_555 1_555
N65 Eu9 1_555 1_555
N69 Eu3_8 1_555 1_555
C15 N32 1_555 1_555
C20 N44 1_555 1_555
H11 C20 1_555 1_555
C25 C20 1_555 1_555
H16 C25 1_555 1_555
C30 C25 1_555 1_555
H21 C30 1_555 1_555
C35 N13 1_555 1_555
C38 N69 1_555 1_555
N74 Eu3_8 1_555 1_555
H23 C42 1_555 1_555
H35 C54 1_555 1_555
C59 N48 1_555 1_555
Eu4_4 N69 1_555 1_555
Eu9 N59 1_555 1_555
N48 N59 1_555 1_555
N54 N65 1_555 1_555
C15 C35 1_555 1_555
C30 C35 1_555 1_555
C38 N74 1_555 1_555
C54 C59 1_555 1_555
N48 H39 1_555 1_555
N15 N24_2 1_555 1_555
N24_2 Eu5 1_555 1_555
N43_2 C14_2 1_555 1_555
C14_2 N33 1_555 1_555
C19_2 N43_2 1_555 1_555
H10_2 C19_2 1_555 1_555
C24_2 C19_2 1_555 1_555
H15_2 C24_2 1_555 1_555
C29_2 C24_2 1_555 1_555
H20_2 C29_2 1_555 1_555
C34_2 N15 1_555 1_555
Eu5 N62 1_555 1_555
N24_2 N33 1_555 1_555
C14_2 C34_2 1_555 1_555
C29_2 C34_2 1_555 1_555
H11_2 C20_2 1_555 1_555
C25_2 C20_2 1_555 1_555
H16_2 C25_2 1_555 1_555
C30_2 C25_2 1_555 1_555
H21_2 C30_2 1_555 1_555
C35_2 N18 1_555 1_555
C15_2 C35_2 1_555 1_555
C30_2 C35_2 1_555 1_555
H11_3 C20_3 1_555 1_555
C25_3 C20_3 1_555 1_555
H16_3 C25_3 1_555 1_555
C30_3 C25_3 1_555 1_555
H21_3 C30_3 1_555 1_555
C35_3 N20 1_555 1_555
C15_3 C35_3 1_555 1_555
C30_3 C35_3 1_555 1_555
Eu5 N63 1_555 1_555
Eu1_5 N2_2 1_555 1_555
Eu3_9 N7_2 1_555 1_555
N1_2 N2_2 1_555 1_555
N2_2 N3_2 1_555 1_555
N3_2 C1_2 1_555 1_555
N4_2 C1_2 1_555 1_555
N7_2 Eu1_5 1_555 1_555
C1_2 C5_2 1_555 1_555
C2_2 N4_2 1_555 1_555
H1_2 C2_2 1_555 1_555
C3_2 C2_2 1_555 1_555
H2_2 C3_2 1_555 1_555
C4_2 C3_2 1_555 1_555
H3_2 C4_2 1_555 1_555
C5_2 N1_2 1_555 1_555
C6_2 N7_2 1_555 1_555
N8_2 Eu3_9 1_555 1_555
C7_2 N8_2 1_555 1_555
H4_2 C7_2 1_555 1_555
C8_2 C7_2 1_555 1_555
H5_2 C8_2 1_555 1_555
Eu6_2 N3_2 1_555 1_555
Eu10_2 N19_2 1_555 1_555
N14_2 Eu6_2 1_555 1_555
N20_2 Eu10_2 1_555 1_555
N27_2 Eu4_5 1_555 1_555
N33_2 Eu6_2 1_555 1_555
N38_2 Eu10_2 1_555 1_555
N39_2 Eu10_2 1_555 1_555
N45_2 Eu6_2 1_555 1_555
N49_2 Eu10_2 1_555 1_555
N51_2 Eu6_2 1_555 1_555
N55_2 Eu10_2 1_555 1_555
N56_2 Eu1_5 1_555 1_555
N60_2 Eu4_5 1_555 1_555
N62_2 Eu6_2 1_555 1_555
N66_2 Eu10_2 1_555 1_555
N71_2 Eu3_9 1_555 1_555
H9_2 C18_2 1_555 1_555
C23_2 C18_2 1_555 1_555
H14_2 C23_2 1_555 1_555
C28_2 C23_2 1_555 1_555
H19_2 C28_2 1_555 1_555
C40_2 N71_2 1_555 1_555
N76_2 Eu3_9 1_555 1_555
C45_2 N76_2 1_555 1_555
H26_2 C45_2 1_555 1_555
C50_2 C45_2 1_555 1_555
H31_2 C50_2 1_555 1_555
C55_2 C50_2 1_555 1_555
H32_2 C51_2 1_555 1_555
H36_2 C55_2 1_555 1_555
C56_2 N45_2 1_555 1_555
C60_2 N49_2 1_555 1_555
C4_2 C5_2 1_555 1_555
C6_2 N8_2 1_555 1_555
Eu4_5 N71_2 1_555 1_555
Eu6_2 N56_2 1_555 1_555
Eu10_2 N60_2 1_555 1_555
N20_2 N27_2 1_555 1_555
N45_2 N56_2 1_555 1_555
N49_2 N60_2 1_555 1_555
N51_2 N62_2 1_555 1_555
N55_2 N66_2 1_555 1_555
N60_2 N71_2 1_555 1_555
C40_2 N76_2 1_555 1_555
C40_2 C60_2 1_555 1_555
C51_2 C56_2 1_555 1_555
C55_2 C60_2 1_555 1_555
N49_2 H38_2 1_555 1_555
N16_2 Eu8_2 1_555 1_555
N21_2 Eu1_6 1_555 1_555
N35_2 Eu8_2 1_555 1_555
N36_2 Eu8_2 1_555 1_555
N47_2 Eu8_2 1_555 1_555
N53_2 Eu8_2 1_555 1_555
N58_2 Eu4_6 1_555 1_555
N64_2 Eu8_2 1_555 1_555
N67_2 Eu1_6 1_555 1_555
H7_2 C16_2 1_555 1_555
C21_2 C16_2 1_555 1_555
H12_2 C21_2 1_555 1_555
C26_2 C21_2 1_555 1_555
H17_2 C26_2 1_555 1_555
C31_2 N9_2 1_555 1_555
C36_2 N67_2 1_555 1_555
N72_2 Eu3_10 1_555 1_555
C41_2 N72_2 1_555 1_555
H22_2 C41_2 1_555 1_555
C46_2 C41_2 1_555 1_555
H27_2 C46_2 1_555 1_555
H34_2 C53_2 1_555 1_555
C58_2 N47_2 1_555 1_555
Eu3_10 N67_2 1_555 1_555
Eu8_2 N58_2 1_555 1_555
N9_2 N21_2 1_555 1_555
N47_2 N58_2 1_555 1_555
N53_2 N64_2 1_555 1_555
C11_2 C31_2 1_555 1_555
C26_2 C31_2 1_555 1_555
C36_2 N72_2 1_555 1_555
C53_2 C58_2 1_555 1_555
N47_2 H37_2 1_555 1_555
N5_2 Eu2_2 1_555 1_555
N6_2 Eu1_7 1_555 1_555
H6_2 C9_2 1_555 1_555
C10_2 N5_2 1_555 1_555
Eu5_2 N23_2 1_555 1_555
Eu11_2 N30_2 1_555 1_555
N11_2 Eu2_2 1_555 1_555
N14_2 N24_3 1_555 1_555
N23_2 N11_2 1_555 1_555
N24_3 Eu5_2 1_555 1_555
N26_2 Eu4_7 1_555 1_555
N29_2 Eu2_2 1_555 1_555
N30_2 N23_2 1_555 1_555
N31_2 Eu2_2 1_555 1_555
N42_2 C13_2 1_555 1_555
N43_3 C14_3 1_555 1_555
N50_2 Eu2_2 1_555 1_555
N61_2 Eu2_2 1_555 1_555
N70_2 Eu3_11 1_555 1_555
C13_2 N30_2 1_555 1_555
C14_3 N31_2 1_555 1_555
C33_2 N11_2 1_555 1_555
C34_3 N14_2 1_555 1_555
C39_2 N70_2 1_555 1_555
N75_2 Eu3_11 1_555 1_555
C44_2 N75_2 1_555 1_555
H25_2 C44_2 1_555 1_555
C49_2 C44_2 1_555 1_555
H30_2 C49_2 1_555 1_555
Eu2_2 N6_2 1_555 1_555
N5_2 N6_2 1_555 1_555
C9_2 C10_2 1_555 1_555
Eu4_7 N70_2 1_555 1_555
Eu5_2 N61_2 1_555 1_555
N18_2 N26_2 1_555 1_555
N24_3 N31_2 1_555 1_555
N50_2 N61_2 1_555 1_555
C13_2 C33_2 1_555 1_555
C14_3 C34_3 1_555 1_555
C39_2 N75_2 1_555 1_555
Eu4_8 N25_2 1_555 1_555
Eu11_2 N10_2 1_555 1_555
Eu9_2 N17_2 1_555 1_555
N10_2 N22_2 1_555 1_555
N13_2 N25_2 1_555 1_555
N15_2 Eu11_2 1_555 1_555
N22_2 Eu1_8 1_555 1_555
N25_2 N32_2 1_555 1_555
N28_2 Eu11_2 1_555 1_555
N32_2 Eu9_2 1_555 1_555
N37_2 Eu9_2 1_555 1_555
N44_4 C15_4 1_555 1_555
N46_2 Eu11_2 1_555 1_555
N48_2 Eu9_2 1_555 1_555
N52_2 Eu11_2 1_555 1_555
N54_2 Eu9_2 1_555 1_555
N57_2 Eu1_8 1_555 1_555
N59_2 Eu4_8 1_555 1_555
N63_2 Eu11_2 1_555 1_555
N65_2 Eu9_2 1_555 1_555
N68_2 Eu1_8 1_555 1_555
N69_2 Eu3_12 1_555 1_555
C15_4 N32_2 1_555 1_555
C20_4 N44_4 1_555 1_555
H8_2 C17_2 1_555 1_555
H10_3 C19_3 1_555 1_555
H11_4 C20_4 1_555 1_555
C22_2 C17_2 1_555 1_555
C24_3 C19_3 1_555 1_555
C25_4 C20_4 1_555 1_555
H13_2 C22_2 1_555 1_555
H15_3 C24_3 1_555 1_555
H16_4 C25_4 1_555 1_555
C27_2 C22_2 1_555 1_555
C29_3 C24_3 1_555 1_555
C30_4 C25_4 1_555 1_555
H18_2 C27_2 1_555 1_555
H20_3 C29_3 1_555 1_555
H21_4 C30_4 1_555 1_555
C32_2 N10_2 1_555 1_555
C35_4 N13_2 1_555 1_555
C37_2 N68_2 1_555 1_555
C38_2 N69_2 1_555 1_555
N73_2 Eu3_12 1_555 1_555
N74_2 Eu3_12 1_555 1_555
C42_2 N73_2 1_555 1_555
C43_2 N74_2 1_555 1_555
H23_2 C42_2 1_555 1_555
H24_2 C43_2 1_555 1_555
C47_2 C42_2 1_555 1_555
C48_2 C43_2 1_555 1_555
H28_2 C47_2 1_555 1_555
H29_2 C48_2 1_555 1_555
C52_2 C47_2 1_555 1_555
H33_2 C52_2 1_555 1_555
H35_2 C54_2 1_555 1_555
C57_2 N46_2 1_555 1_555
C59_2 N48_2 1_555 1_555
Eu3_12 N68_2 1_555 1_555
Eu4_8 N69_2 1_555 1_555
Eu11_2 N57_2 1_555 1_555
Eu9_2 N59_2 1_555 1_555
N46_2 N57_2 1_555 1_555
N48_2 N59_2 1_555 1_555
N52_2 N63_2 1_555 1_555
N54_2 N65_2 1_555 1_555
N57_2 N68_2 1_555 1_555
C12_2 C32_2 1_555 1_555
C15_4 C35_4 1_555 1_555
C27_2 C32_2 1_555 1_555
C30_4 C35_4 1_555 1_555
C37_2 N73_2 1_555 1_555
C37_2 C57_2 1_555 1_555
C38_2 N74_2 1_555 1_555
C52_2 C57_2 1_555 1_555
C54_2 C59_2 1_555 1_555
N48_2 H39_2 1_555 1_555
H5_3 C8_3 1_555 1_555
C9_3 C8_3 1_555 1_555
H6_3 C9_3 1_555 1_555
Eu10_3 N19_3 1_555 1_555
N39_3 Eu10_3 1_555 1_555
N55_3 Eu10_3 1_555 1_555
N66_3 Eu10_3 1_555 1_555
H31_3 C50_3 1_555 1_555
C55_3 C50_3 1_555 1_555
H36_3 C55_3 1_555 1_555
N55_3 N66_3 1_555 1_555
Eu3_13 N7_3 1_555 1_555
N7_3 Eu5_2 1_555 1_555
C6_3 N7_3 1_555 1_555
N8_3 Eu3_13 1_555 1_555
C7_3 N8_3 1_555 1_555
C10_3 N50_2 1_555 1_555
Eu4_9 N25_3 1_555 1_555
Eu8_3 N13_3 1_555 1_555
N13_3 N25_3 1_555 1_555
N16_3 Eu8_3 1_555 1_555
N18_3 Eu9_3 1_555 1_555
N20_3 Eu10_4 1_555 1_555
N21_3 Eu5_2 1_555 1_555
N25_3 N32_3 1_555 1_555
N26_3 Eu4_9 1_555 1_555
N27_3 Eu4_9 1_555 1_555
N32_3 Eu9_3 1_555 1_555
N35_3 Eu8_3 1_555 1_555
N36_3 Eu8_3 1_555 1_555
N38_3 Eu10_4 1_555 1_555
N40_3 C11_3 1_555 1_555
N47_3 Eu8_3 1_555 1_555
N48_3 Eu9_3 1_555 1_555
N49_3 Eu10_4 1_555 1_555
N53_3 Eu8_3 1_555 1_555
N63_2 Eu5_2 1_555 1_555
N62_2 Eu5_2 1_555 1_555
N58_3 Eu4_9 1_555 1_555
N59_3 Eu4_9 1_555 1_555
N60_3 Eu4_9 1_555 1_555
N64_3 Eu8_3 1_555 1_555
N67_3 Eu5_2 1_555 1_555
N68_3 Eu5_2 1_555 1_555
N69_3 Eu3_13 1_555 1_555
N70_3 Eu3_13 1_555 1_555
N71_3 Eu3_13 1_555 1_555
C11_3 N33_2 1_555 1_555
C15_5 N32_3 1_555 1_555
C16_3 N40_3 1_555 1_555
H7_3 C16_3 1_555 1_555
C21_3 C16_3 1_555 1_555
H12_3 C21_3 1_555 1_555
H16_5 C25_5 1_555 1_555
C26_3 C21_3 1_555 1_555
C30_5 C25_5 1_555 1_555
H17_3 C26_3 1_555 1_555
H21_5 C30_5 1_555 1_555
C31_3 N15_2 1_555 1_555
C35_5 N13_3 1_555 1_555
C36_3 N67_3 1_555 1_555
C37_3 N68_3 1_555 1_555
C38_3 N69_3 1_555 1_555
C39_3 N70_3 1_555 1_555
C40_3 N71_3 1_555 1_555
N72_3 Eu3_13 1_555 1_555
N73_3 Eu3_13 1_555 1_555
N74_3 Eu3_13 1_555 1_555
N75_3 Eu3_13 1_555 1_555
N76_3 Eu3_13 1_555 1_555
C41_3 N72_3 1_555 1_555
C42_3 N73_3 1_555 1_555
C43_3 N74_3 1_555 1_555
C44_3 N75_3 1_555 1_555
C45_3 N76_3 1_555 1_555
H22_3 C41_3 1_555 1_555
H24_3 C43_3 1_555 1_555
H25_3 C44_3 1_555 1_555
H26_3 C45_3 1_555 1_555
C46_3 C41_3 1_555 1_555
C48_3 C43_3 1_555 1_555
H27_3 C46_3 1_555 1_555
H29_3 C48_3 1_555 1_555
C51_3 C46_3 1_555 1_555
C53_3 C48_3 1_555 1_555
H32_3 C51_3 1_555 1_555
H34_3 C53_3 1_555 1_555
C56_3 N52_2 1_555 1_555
C57_3 N51_2 1_555 1_555
C58_3 N47_3 1_555 1_555
C59_3 N48_3 1_555 1_555
C60_3 N49_3 1_555 1_555
Eu3_13 N67_3 1_555 1_555
Eu3_13 N68_3 1_555 1_555
N61_2 N7_3 1_555 1_555
C6_3 N8_3 1_555 1_555
C6_3 C10_3 1_555 1_555
Eu4_9 N69_3 1_555 1_555
Eu4_9 N70_3 1_555 1_555
Eu4_9 N71_3 1_555 1_555
Eu8_3 N58_3 1_555 1_555
Eu9_3 N59_3 1_555 1_555
Eu10_4 N60_3 1_555 1_555
N15_2 N21_3 1_555 1_555
N18_3 N26_3 1_555 1_555
N20_3 N27_3 1_555 1_555
N21_3 N33_2 1_555 1_555
N26_3 N38_3 1_555 1_555
N27_3 N36_3 1_555 1_555
N47_3 N58_3 1_555 1_555
N48_3 N59_3 1_555 1_555
N49_3 N60_3 1_555 1_555
N53_3 N64_3 1_555 1_555
N63_2 N67_3 1_555 1_555
N62_2 N68_3 1_555 1_555
N58_3 N69_3 1_555 1_555
N59_3 N70_3 1_555 1_555
N60_3 N71_3 1_555 1_555
C11_3 C31_3 1_555 1_555
C15_5 C35_5 1_555 1_555
C26_3 C31_3 1_555 1_555
C30_5 C35_5 1_555 1_555
C36_3 N72_3 1_555 1_555
C36_3 C56_3 1_555 1_555
C37_3 N73_3 1_555 1_555
C37_3 C57_3 1_555 1_555
C38_3 N74_3 1_555 1_555
C38_3 C58_3 1_555 1_555
C39_3 N75_3 1_555 1_555
C39_3 C59_3 1_555 1_555
C40_3 N76_3 1_555 1_555
C40_3 C60_3 1_555 1_555
C51_3 C56_3 1_555 1_555
C53_3 C58_3 1_555 1_555
N47_3 H37_3 1_555 1_555
Eu9_4 N17_3 1_555 1_555
N37_3 Eu9_4 1_555 1_555
N54_3 Eu9_4 1_555 1_555
N65_3 Eu9_4 1_555 1_555
C20_5 N44_5 1_555 1_555
H11_5 C20_5 1_555 1_555
H28_3 C47_3 1_555 1_555
H30_3 C49_3 1_555 1_555
C52_3 C47_3 1_555 1_555
C54_3 C49_3 1_555 1_555
H33_3 C52_3 1_555 1_555
H35_3 C54_3 1_555 1_555
N54_3 N65_3 1_555 1_555
C20_6 N44_6 1_555 1_555
H11_6 C20_6 1_555 1_555
C15_6 N38_3 1_555 1_555
H16_6 C25_6 1_555 1_555
C30_6 C25_6 1_555 1_555
H21_6 C30_6 1_555 1_555
C35_6 N18_3 1_555 1_555
C15_6 C35_6 1_555 1_555
C30_6 C35_6 1_555 1_555
N44_7 C15_7 1_555 1_555
C15_7 N36_3 1_555 1_555
C20_7 N44_7 1_555 1_555
H11_7 C20_7 1_555 1_555
C25_7 C20_7 1_555 1_555
H16_7 C25_7 1_555 1_555
C30_7 C25_7 1_555 1_555
H21_7 C30_7 1_555 1_555
C35_7 N20_3 1_555 1_555
C15_7 C35_7 1_555 1_555
C30_7 C35_7 1_555 1_555
C2_3 N4_3 1_555 1_555
H1_3 C2_3 1_555 1_555
N14_3 Eu6_3 1_555 1_555
N33_3 Eu6_3 1_555 1_555
N51_3 Eu6_3 1_555 1_555
N62_3 Eu6_3 1_555 1_555
H27_4 C46_4 1_555 1_555
H31_4 C50_4 1_555 1_555
C51_4 C46_4 1_555 1_555
C55_4 C50_4 1_555 1_555
H32_4 C51_4 1_555 1_555
H36_4 C55_4 1_555 1_555
N51_3 N62_3 1_555 1_555
C18_3 N42_3 1_555 1_555
H9_3 C18_3 1_555 1_555
Eu1_9 N2_3 1_555 1_555
Eu2_3 N1_3 1_555 1_555
Eu3_14 N7_4 1_555 1_555
N1_3 N2_3 1_555 1_555
N2_3 N3_3 1_555 1_555
N3_3 C1_3 1_555 1_555
N5_3 Eu2_3 1_555 1_555
N6_3 Eu1_9 1_555 1_555
N7_4 Eu1_9 1_555 1_555
C1_3 C5_3 1_555 1_555
H2_3 C3_3 1_555 1_555
C4_3 C3_3 1_555 1_555
H3_3 C4_3 1_555 1_555
C5_3 N1_3 1_555 1_555
C6_4 N7_4 1_555 1_555
N8_4 Eu3_14 1_555 1_555
C7_4 N8_4 1_555 1_555
H4_4 C7_4 1_555 1_555
C8_4 C7_4 1_555 1_555
H5_4 C8_4 1_555 1_555
C9_4 C8_4 1_555 1_555
H6_4 C9_4 1_555 1_555
C10_4 N5_3 1_555 1_555
Eu4_10 N25_4 1_555 1_555
Eu5_3 N23_3 1_555 1_555
Eu6_4 N3_3 1_555 1_555
Eu11_3 N10_3 1_555 1_555
Eu11_4 N30_3 1_555 1_555
N9_3 Eu6_4 1_555 1_555
N10_3 N22_3 1_555 1_555
N11_3 Eu2_3 1_555 1_555
N14_3 N24_4 1_555 1_555
N16 N25_4 1_555 1_555
N21_4 Eu1_9 1_555 1_555
N22_3 Eu1_9 1_555 1_555
N23_3 N11_3 1_555 1_555
N24_4 Eu5_3 1_555 1_555
N25_4 N39 1_555 1_555
N26_4 Eu4_10 1_555 1_555
N27_4 Eu4_10 1_555 1_555
N28_3 Eu11_3 1_555 1_555
N29_3 Eu2_3 1_555 1_555
N30_3 N23_3 1_555 1_555
N31_3 Eu2_3 1_555 1_555
N41_3 C12_3 1_555 1_555
N43_4 C14_4 1_555 1_555
N44_8 C15_8 1_555 1_555
N45_3 Eu6_4 1_555 1_555
N46_3 Eu11_3 1_555 1_555
N50_3 Eu2_3 1_555 1_555
N56_3 Eu1_9 1_555 1_555
N57_3 Eu1_9 1_555 1_555
N64 Eu4_10 1_555 1_555
N66 Eu4_10 1_555 1_555
N65 Eu4_10 1_555 1_555
N61_3 Eu2_3 1_555 1_555
N67_4 Eu1_9 1_555 1_555
N68_4 Eu1_9 1_555 1_555
N69_4 Eu3_14 1_555 1_555
N70_4 Eu3_14 1_555 1_555
N71_4 Eu3_14 1_555 1_555
C11_4 N28_3 1_555 1_555
C12_3 N29_3 1_555 1_555
C13_3 N30_3 1_555 1_555
C14_4 N31_3 1_555 1_555
C15_8 N39 1_555 1_555
C17_3 N41_3 1_555 1_555
C19_4 N43_4 1_555 1_555
H8_3 C17_3 1_555 1_555
H10_4 C19_4 1_555 1_555
C22_3 C17_3 1_555 1_555
C24_4 C19_4 1_555 1_555
H12_4 C21_4 1_555 1_555
H13_3 C22_3 1_555 1_555
H14_3 C23_3 1_555 1_555
H15_4 C24_4 1_555 1_555
C26_4 C21_4 1_555 1_555
C27_3 C22_3 1_555 1_555
C28_3 C23_3 1_555 1_555
C29_4 C24_4 1_555 1_555
H17_4 C26_4 1_555 1_555
H18_3 C27_3 1_555 1_555
H19_3 C28_3 1_555 1_555
H20_4 C29_4 1_555 1_555
C31_4 N9_3 1_555 1_555
C32_3 N10_3 1_555 1_555
C33_3 N11_3 1_555 1_555
C34_4 N14_3 1_555 1_555
C35_8 N16 1_555 1_555
C36_4 N67_4 1_555 1_555
C37_4 N68_4 1_555 1_555
C38_4 N69_4 1_555 1_555
C39_4 N70_4 1_555 1_555
C40_4 N71_4 1_555 1_555
N72_4 Eu3_14 1_555 1_555
N73_4 Eu3_14 1_555 1_555
N74_4 Eu3_14 1_555 1_555
N75_4 Eu3_14 1_555 1_555
N76_4 Eu3_14 1_555 1_555
C41_4 N72_4 1_555 1_555
C42_4 N73_4 1_555 1_555
C43_4 N74_4 1_555 1_555
C44_4 N75_4 1_555 1_555
C45_4 N76_4 1_555 1_555
H22_4 C41_4 1_555 1_555
H23_4 C42_4 1_555 1_555
H25_4 C44_4 1_555 1_555
C49_4 C44_4 1_555 1_555
H30_4 C49_4 1_555 1_555
C54_4 C49_4 1_555 1_555
H35_4 C54_4 1_555 1_555
C56_4 N45_3 1_555 1_555
C57_4 N46_3 1_555 1_555
C58_4 N53 1_555 1_555
C59_4 N55 1_555 1_555
C60_4 N54 1_555 1_555
Eu2_3 N6_3 1_555 1_555
Eu3_14 N67_4 1_555 1_555
Eu3_14 N68_4 1_555 1_555
N5_3 N6_3 1_555 1_555
N6_3 N7_4 1_555 1_555
C4_3 C5_3 1_555 1_555
C6_4 N8_4 1_555 1_555
C6_4 C10_4 1_555 1_555
C9_4 C10_4 1_555 1_555
Eu4_10 N69_4 1_555 1_555
Eu4_10 N70_4 1_555 1_555
Eu4_10 N71_4 1_555 1_555
Eu5_3 N61_3 1_555 1_555
Eu6_4 N56_3 1_555 1_555
Eu11_3 N57_3 1_555 1_555
N9_3 N21_4 1_555 1_555
N19 N26_4 1_555 1_555
N17 N27_4 1_555 1_555
N21_4 N28_3 1_555 1_555
N22_3 N29_3 1_555 1_555
N24_4 N31_3 1_555 1_555
N26_4 N37 1_555 1_555
N27_4 N35 1_555 1_555
N45_3 N56_3 1_555 1_555
N46_3 N57_3 1_555 1_555
N50_3 N61_3 1_555 1_555
N56_3 N67_4 1_555 1_555
N57_3 N68_4 1_555 1_555
N64 N69_4 1_555 1_555
N66 N70_4 1_555 1_555
N65 N71_4 1_555 1_555
C11_4 C31_4 1_555 1_555
C12_3 C32_3 1_555 1_555
C13_3 C33_3 1_555 1_555
C14_4 C34_4 1_555 1_555
C15_8 C35_8 1_555 1_555
C26_4 C31_4 1_555 1_555
C27_3 C32_3 1_555 1_555
C28_3 C33_3 1_555 1_555
C29_4 C34_4 1_555 1_555
C36_4 N72_4 1_555 1_555
C36_4 C56_4 1_555 1_555
C37_4 N73_4 1_555 1_555
C37_4 C57_4 1_555 1_555
C38_4 N74_4 1_555 1_555
C38_4 C58_4 1_555 1_555
C39_4 N75_4 1_555 1_555
C39_4 C59_4 1_555 1_555
C40_4 N76_4 1_555 1_555
C40_4 C60_4 1_555 1_555
C54_4 C59_4 1_555 1_555
N53 H37_4 1_555 1_555
N54 H38_4 1_555 1_555
N55 H39_4 1_555 1_555
N15_3 Eu11_4 1_555 1_555
N52_3 Eu11_4 1_555 1_555
N63_3 Eu11_4 1_555 1_555
C16_4 N40_4 1_555 1_555
H7_4 C16_4 1_555 1_555
H11_8 C20_8 1_555 1_555
C25_8 C20_8 1_555 1_555
H16_8 C25_8 1_555 1_555
C30_8 C25_8 1_555 1_555
H21_8 C30_8 1_555 1_555
H28_4 C47_4 1_555 1_555
H29_4 C48_4 1_555 1_555
C52_4 C47_4 1_555 1_555
C53_4 C48_4 1_555 1_555
H33_4 C52_4 1_555 1_555
H34_4 C53_4 1_555 1_555
N52_3 N63_3 1_555 1_555
H27_5 C46_5 1_555 1_555
H31_5 C50_5 1_555 1_555
C51_5 C46_5 1_555 1_555
C55_5 C50_5 1_555 1_555
H32_5 C51_5 1_555 1_555
H36_5 C55_5 1_555 1_555
Eu3_15 N7_5 1_555 1_555
N7_5 Eu5_3 1_555 1_555
C6_5 N7_5 1_555 1_555
N8_5 Eu3_15 1_555 1_555
C7_5 N8_5 1_555 1_555
H4_5 C7_5 1_555 1_555
C8_5 C7_5 1_555 1_555
H5_5 C8_5 1_555 1_555
C9_5 C8_5 1_555 1_555
H6_5 C9_5 1_555 1_555
C10_5 N50_3 1_555 1_555
Eu4_11 N25_5 1_555 1_555
N16_2 N25_5 1_555 1_555
N21_5 Eu5_3 1_555 1_555
N25_5 N39_2 1_555 1_555
N26_5 Eu4_11 1_555 1_555
N27_5 Eu4_11 1_555 1_555
N44_9 C15_9 1_555 1_555
N63_3 Eu5_3 1_555 1_555
N62_3 Eu5_3 1_555 1_555
N64_2 Eu4_11 1_555 1_555
N66_2 Eu4_11 1_555 1_555
N65_2 Eu4_11 1_555 1_555
N67_5 Eu5_3 1_555 1_555
N68_5 Eu5_3 1_555 1_555
N69_5 Eu3_15 1_555 1_555
N70_5 Eu3_15 1_555 1_555
N71_5 Eu3_15 1_555 1_555
C11_5 N33_3 1_555 1_555
C15_9 N39_2 1_555 1_555
H12_5 C21_5 1_555 1_555
C26_5 C21_5 1_555 1_555
H17_5 C26_5 1_555 1_555
C31_5 N15_3 1_555 1_555
C35_9 N16_2 1_555 1_555
C36_5 N67_5 1_555 1_555
C37_5 N68_5 1_555 1_555
C38_5 N69_5 1_555 1_555
C39_5 N70_5 1_555 1_555
C40_5 N71_5 1_555 1_555
N72_5 Eu3_15 1_555 1_555
N73_5 Eu3_15 1_555 1_555
N74_5 Eu3_15 1_555 1_555
N75_5 Eu3_15 1_555 1_555
N76_5 Eu3_15 1_555 1_555
C41_5 N72_5 1_555 1_555
C42_5 N73_5 1_555 1_555
C43_5 N74_5 1_555 1_555
C44_5 N75_5 1_555 1_555
C45_5 N76_5 1_555 1_555
H22_5 C41_5 1_555 1_555
H23_5 C42_5 1_555 1_555
H25_5 C44_5 1_555 1_555
C49_5 C44_5 1_555 1_555
H30_5 C49_5 1_555 1_555
C54_5 C49_5 1_555 1_555
H35_5 C54_5 1_555 1_555
C56_5 N52_3 1_555 1_555
C57_5 N51_3 1_555 1_555
C58_5 N53_2 1_555 1_555
C59_5 N55_2 1_555 1_555
C60_5 N54_2 1_555 1_555
Eu3_15 N67_5 1_555 1_555
Eu3_15 N68_5 1_555 1_555
N61_3 N7_5 1_555 1_555
C6_5 N8_5 1_555 1_555
C6_5 C10_5 1_555 1_555
C9_5 C10_5 1_555 1_555
Eu4_11 N69_5 1_555 1_555
Eu4_11 N70_5 1_555 1_555
Eu4_11 N71_5 1_555 1_555
N15_3 N21_5 1_555 1_555
N19_2 N26_5 1_555 1_555
N17_2 N27_5 1_555 1_555
N21_5 N33_3 1_555 1_555
N26_5 N37_2 1_555 1_555
N27_5 N35_2 1_555 1_555
N63_3 N67_5 1_555 1_555
N62_3 N68_5 1_555 1_555
N64_2 N69_5 1_555 1_555
N66_2 N70_5 1_555 1_555
N65_2 N71_5 1_555 1_555
C11_5 C31_5 1_555 1_555
C15_9 C35_9 1_555 1_555
C26_5 C31_5 1_555 1_555
C36_5 N72_5 1_555 1_555
C36_5 C56_5 1_555 1_555
C37_5 N73_5 1_555 1_555
C37_5 C57_5 1_555 1_555
C38_5 N74_5 1_555 1_555
C38_5 C58_5 1_555 1_555
C39_5 N75_5 1_555 1_555
C39_5 C59_5 1_555 1_555
C40_5 N76_5 1_555 1_555
C40_5 C60_5 1_555 1_555
C54_5 C59_5 1_555 1_555
N53_2 H37_5 1_555 1_555
N54_2 H38_5 1_555 1_555
N55_2 H39_5 1_555 1_555
C16_5 N40_5 1_555 1_555
H7_5 C16_5 1_555 1_555
H11_9 C20_9 1_555 1_555
C25_9 C20_9 1_555 1_555
H16_9 C25_9 1_555 1_555
C30_9 C25_9 1_555 1_555
H21_9 C30_9 1_555 1_555
H28_5 C47_5 1_555 1_555
H29_5 C48_5 1_555 1_555
C52_5 C47_5 1_555 1_555
C53_5 C48_5 1_555 1_555
H33_5 C52_5 1_555 1_555
H34_5 C53_5 1_555 1_555
H5_6 C8_6 1_555 1_555
C9_6 C8_6 1_555 1_555
H6_6 C9_6 1_555 1_555
H31_6 C50_6 1_555 1_555
C55_6 C50_6 1_555 1_555
H36_6 C55_6 1_555 1_555
Eu3_16 N7_6 1_555 1_555
N7_6 Eu5 1_555 1_555
C6_6 N7_6 1_555 1_555
N8_6 Eu3_16 1_555 1_555
C7_6 N8_6 1_555 1_555
C10_6 N50 1_555 1_555
Eu4_12 N25_6 1_555 1_555
N16_3 N25_6 1_555 1_555
N25_6 N39_3 1_555 1_555
N26_6 Eu4_12 1_555 1_555
N27_6 Eu4_12 1_555 1_555
N64_3 Eu4_12 1_555 1_555
N66_3 Eu4_12 1_555 1_555
N65_3 Eu4_12 1_555 1_555
N67_6 Eu5 1_555 1_555
N68_6 Eu5 1_555 1_555
N69_6 Eu3_16 1_555 1_555
N70_6 Eu3_16 1_555 1_555
N71_6 Eu3_16 1_555 1_555
C15_10 N39_3 1_555 1_555
H16_10 C25_10 1_555 1_555
C30_10 C25_10 1_555 1_555
H21_10 C30_10 1_555 1_555
C35_10 N16_3 1_555 1_555
C36_6 N67_6 1_555 1_555
C37_6 N68_6 1_555 1_555
C38_6 N69_6 1_555 1_555
C39_6 N70_6 1_555 1_555
C40_6 N71_6 1_555 1_555
N72_6 Eu3_16 1_555 1_555
N73_6 Eu3_16 1_555 1_555
N74_6 Eu3_16 1_555 1_555
N75_6 Eu3_16 1_555 1_555
N76_6 Eu3_16 1_555 1_555
C41_6 N72_6 1_555 1_555
C42_6 N73_6 1_555 1_555
C43_6 N74_6 1_555 1_555
C44_6 N75_6 1_555 1_555
C45_6 N76_6 1_555 1_555
H22_6 C41_6 1_555 1_555
H24_6 C43_6 1_555 1_555
H25_6 C44_6 1_555 1_555
H26_6 C45_6 1_555 1_555
C46_6 C41_6 1_555 1_555
C48_6 C43_6 1_555 1_555
H27_6 C46_6 1_555 1_555
H29_6 C48_6 1_555 1_555
C51_6 C46_6 1_555 1_555
C53_6 C48_6 1_555 1_555
H32_6 C51_6 1_555 1_555
H34_6 C53_6 1_555 1_555
C56_6 N52 1_555 1_555
C57_6 N51 1_555 1_555
C58_6 N53_3 1_555 1_555
C59_6 N55_3 1_555 1_555
C60_6 N54_3 1_555 1_555
Eu3_16 N67_6 1_555 1_555
Eu3_16 N68_6 1_555 1_555
N61 N7_6 1_555 1_555
C6_6 N8_6 1_555 1_555
C6_6 C10_6 1_555 1_555
Eu4_12 N69_6 1_555 1_555
Eu4_12 N70_6 1_555 1_555
Eu4_12 N71_6 1_555 1_555
N19_3 N26_6 1_555 1_555
N17_3 N27_6 1_555 1_555
N26_6 N37_3 1_555 1_555
N27_6 N35_3 1_555 1_555
N63 N67_6 1_555 1_555
N62 N68_6 1_555 1_555
N64_3 N69_6 1_555 1_555
N66_3 N70_6 1_555 1_555
N65_3 N71_6 1_555 1_555
C15_10 C35_10 1_555 1_555
C30_10 C35_10 1_555 1_555
C36_6 N72_6 1_555 1_555
C36_6 C56_6 1_555 1_555
C37_6 N73_6 1_555 1_555
C37_6 C57_6 1_555 1_555
C38_6 N74_6 1_555 1_555
C38_6 C58_6 1_555 1_555
C39_6 N75_6 1_555 1_555
C39_6 C59_6 1_555 1_555
C40_6 N76_6 1_555 1_555
C40_6 C60_6 1_555 1_555
C51_6 C56_6 1_555 1_555
C53_6 C58_6 1_555 1_555
N53_3 H37_6 1_555 1_555
C20_10 N44_10 1_555 1_555
H11_10 C20_10 1_555 1_555
H28_6 C47_6 1_555 1_555
H30_6 C49_6 1_555 1_555
C52_6 C47_6 1_555 1_555
C54_6 C49_6 1_555 1_555
H33_6 C52_6 1_555 1_555
H35_6 C54_6 1_555 1_555
H11_11 C20_11 1_555 1_555
C25_11 C20_11 1_555 1_555
H16_11 C25_11 1_555 1_555
C30_11 C25_11 1_555 1_555
H21_11 C30_11 1_555 1_555
C35_11 N18_2 1_555 1_555
C15_11 C35_11 1_555 1_555
C30_11 C35_11 1_555 1_555
H11_12 C20_12 1_555 1_555
C25_12 C20_12 1_555 1_555
H16_12 C25_12 1_555 1_555
C30_12 C25_12 1_555 1_555
H21_12 C30_12 1_555 1_555
C35_12 N20_2 1_555 1_555
C15_12 C35_12 1_555 1_555
C30_12 C35_12 1_555 1_555
N44_13 C15_13 1_555 1_555
C15_13 N37_2 1_555 1_555
C20_13 N44_13 1_555 1_555
H11_13 C20_13 1_555 1_555
C25_13 C20_13 1_555 1_555
H16_13 C25_13 1_555 1_555
C30_13 C25_13 1_555 1_555
H21_13 C30_13 1_555 1_555
C35_13 N19_2 1_555 1_555
C15_13 C35_13 1_555 1_555
C30_13 C35_13 1_555 1_555
H11_14 C20_14 1_555 1_555
C25_14 C20_14 1_555 1_555
H16_14 C25_14 1_555 1_555
C30_14 C25_14 1_555 1_555
H21_14 C30_14 1_555 1_555
N44_14 C15_14 1_555 1_555
C15_14 N35_2 1_555 1_555
C35_14 N17_2 1_555 1_555
C15_14 C35_14 1_555 1_555
C20_15 N44_15 1_555 1_555
H11_15 C20_15 1_555 1_555
C15_15 N37_3 1_555 1_555
H16_15 C25_15 1_555 1_555
C30_15 C25_15 1_555 1_555
H21_15 C30_15 1_555 1_555
C35_15 N19_3 1_555 1_555
C15_15 C35_15 1_555 1_555
C30_15 C35_15 1_555 1_555
N44_16 C15_16 1_555 1_555
C15_16 N35_3 1_555 1_555
C20_16 N44_16 1_555 1_555
H11_16 C20_16 1_555 1_555
C25_16 C20_16 1_555 1_555
H16_16 C25_16 1_555 1_555
C30_16 C25_16 1_555 1_555
H21_16 C30_16 1_555 1_555
C35_16 N17_3 1_555 1_555
C15_16 C35_16 1_555 1_555
C30_16 C35_16 1_555 1_555
N44_17 C15_17 1_555 1_555
C15_17 N37 1_555 1_555
C20_17 N44_17 1_555 1_555
H11_17 C20_17 1_555 1_555
C25_17 C20_17 1_555 1_555
H16_17 C25_17 1_555 1_555
C30_17 C25_17 1_555 1_555
H21_17 C30_17 1_555 1_555
C35_17 N19 1_555 1_555
C15_17 C35_17 1_555 1_555
C30_17 C35_17 1_555 1_555
H11_18 C20_18 1_555 1_555
C25_18 C20_18 1_555 1_555
H16_18 C25_18 1_555 1_555
C30_18 C25_18 1_555 1_555
H21_18 C30_18 1_555 1_555
N44_18 C15_18 1_555 1_555
C15_18 N35 1_555 1_555
C35_18 N17 1_555 1_555
C15_18 C35_18 1_555 1_555
N45 H39_7 1_555 1_555
N5 H37_7 1_555 1_555
N46 H38_7 1_555 1_555
N45_2 H39_8 1_555 1_555
N5_2 H37_8 1_555 1_555
N46_2 H38_8 1_555 1_555
N50_3 H37_9 1_555 1_555
N50 H37_10 1_555 1_555
N51 H38_10 1_555 1_555
N52 H39_10 1_555 1_555
N50_2 H37_11 1_555 1_555
N51_2 H38_11 1_555 1_555
N52_2 H39_11 1_555 1_555
N5_3 H37_12 1_555 1_555

#END
