
###############################################################################
#
# This file contains modified crystal structure data generated from the
# MOF subset of the Cambridge Structural Database (CSD) v543 
# hosted by the Cambridge Crystallographic Data Centre (CCDC).
#
# This work is licensed under the Creative Commons
# Attribution-NonCommercial-ShareAlike 4.0 International License.
# To view a copy of this license, visit
# http://creativecommons.org/licenses/by-nc-sa/4.0/
# or send a letter to
# Creative Commons, PO Box 1866, Mountain View, CA 94042, USA.
#
# CIF created using the CSD Python API on 29 September 2022
# The structure has been converted into the P1 space group
# The structure has a 3D framework
# The original CSD entry WIDWOX is in the tetragonal crystal system
# The original CSD entry WIDWOX is in a Sohncke space group
# The framework has been calculated to contain at least 10.0% void space
# The void calculation uses a probe of radius 1.32A, grid spacing 0.4
# The framework is charged, counterions have been retained in the structure
# H atom positions have been added when not included in the experimental data
#
###############################################################################

data_WIDWOX
_chemical_formula_moiety         
'(C496 H1024 Ag64 Cl8 La8 N96 Ni48 O236 S96 20-)n'
_symmetry_cell_setting           triclinic
_symmetry_space_group_name_H-M   'P 1'
_symmetry_Int_Tables_number      1
_space_group_name_Hall           'P 1'
loop_
_symmetry_equiv_pos_site_id
_symmetry_equiv_pos_as_xyz
1 x,y,z
_cell_length_a                   24.3687(14)
_cell_length_b                   24.3687(14)
_cell_length_c                   47.322(6)
_cell_angle_alpha                90
_cell_angle_beta                 90
_cell_angle_gamma                90
_cell_volume                     28101.4
loop_
_atom_site_label
_atom_site_type_symbol
_atom_site_fract_x
_atom_site_fract_y
_atom_site_fract_z
La1 La 0.08148(2) 0.37847(2) 0.637236(11)
Cl1 Cl 0.23546(8) 0.62421(8) 0.46086(4)
Ag1 Ag 0.12970(3) 0.70674(4) 0.441151(17)
Ag2 Ag 0.14749(3) 0.60745(3) 0.499872(15)
Ag3 Ag 0.18913(3) 0.50353(3) 0.462873(14)
Ag4 Ag 0.20192(3) 0.59285(3) 0.406453(15)
Ag5 Ag 0.26758(3) 0.73702(3) 0.460550(14)
Ag6 Ag 0.27796(3) 0.65584(3) 0.518664(14)
Ag7 Ag 0.32518(3) 0.55688(3) 0.477451(14)
Ag8 Ag 0.33970(3) 0.63970(3) 0.412680(18)
Ni1 Ni 0.04422(4) 0.56512(4) 0.43659(2)
Ni2 Ni 0.42624(4) 0.68774(4) 0.48227(2)
Ni3 Ni 0.23553(4) 0.74759(4) 0.37710(2)
Ni4 Ni 0.24293(4) 0.49593(4) 0.54525(2)
Ni5 Ni 0.16095(5) 0.77355(4) 0.52076(2)
Ni6 Ni 0.31556(4) 0.47307(4) 0.40471(2)
S1 S 0.07610(9) 0.62913(8) 0.46366(5)
S2 S 0.12423(8) 0.53340(8) 0.42521(4)
S3 S 0.34549(8) 0.71651(8) 0.49471(4)
S4 S 0.39535(8) 0.62083(8) 0.45655(4)
S5 S 0.29624(8) 0.73224(8) 0.40944(4)
S6 S 0.17599(9) 0.69066(9) 0.39416(5)
S7 S 0.29866(8) 0.55738(8) 0.52940(4)
S8 S 0.17753(8) 0.51334(8) 0.51540(4)
S9 S 0.18271(9) 0.68855(9) 0.52777(4)
S10 S 0.17549(10) 0.77081(9) 0.47583(5)
S11 S 0.28565(8) 0.48045(8) 0.44756(4)
S12 S 0.29410(9) 0.55595(8) 0.39264(4)
O3 O 0.0442(3) 0.3681(3) 0.39161(18)
O5 O 0.4870(3) 0.8240(3) 0.54194(14)
O6 O 0.4188(3) 0.8125(3) 0.57270(13)
O7 O 0.5891(3) 0.6094(4) 0.4615(2)
O8 O 0.5714(4) 0.6005(4) 0.4130(3)
O9 O 0.4289(2) 0.8416(3) 0.35970(13)
O10 O 0.3506(3) 0.8865(3) 0.35441(17)
O11 O 0.1154(5) 0.7550(5) 0.3042(2)
O12 O 0.0411(3) 0.7508(3) 0.3277(2)
O13 O 0.3886(3) 0.4498(3) 0.59960(15)
O14 O 0.4106(3) 0.5349(3) 0.61250(15)
O15 O 0.1185(3) 0.3915(3) 0.58878(13)
O16 O 0.0690(4) 0.3675(4) 0.55245(18)
O17 O 0.2032(3) 0.7233(4) 0.62615(14)
O18 O 0.1256(3) 0.7670(3) 0.61482(14)
O19 O 0.1291(6) 0.9539(3) 0.5067(2)
O20 O 0.0892(6) 0.9444(4) 0.4638(3)
O21 O 0.3629(3) 0.2986(2) 0.43429(14)
O22 O 0.2843(3) 0.2866(3) 0.45622(15)
O23 O 0.3405(4) 0.4485(3) 0.31093(15)
O24 O 0.3788(4) 0.5308(3) 0.30239(17)
O25 O 0.0871(3) 0.4333(3) 0.68706(15)
O26 O 0.0492(5) 0.2853(3) 0.61945(18)
O28 O 0.1666(4) 0.3151(3) 0.6300(2)
O29 O 0.0018(2) 0.3898(3) 0.60202(13)
N2 N 0.0124(3) 0.5055(3) 0.41503(15)
N3 N 0.4565(3) 0.7390(3) 0.50947(14)
N4 N 0.4992(3) 0.6707(3) 0.46856(15)
N5 N 0.2873(3) 0.7972(3) 0.35988(14)
N6 N 0.1831(3) 0.7657(3) 0.34837(19)
N7 N 0.2958(3) 0.4812(3) 0.57435(14)
N8 N 0.1993(3) 0.4359(3) 0.55904(16)
N9 N 0.1576(3) 0.7833(3) 0.56148(15)
N10 N 0.1324(3) 0.8462(3) 0.51635(15)
N11 N 0.3276(3) 0.3966(3) 0.41133(13)
N12 N 0.3465(3) 0.4629(3) 0.36743(14)
C2 C 0.0112(4) 0.6522(4) 0.48084(19)
C3 C 0.0195(4) 0.7114(4) 0.4915(2)
H3 H 0.0281 0.7349 0.4758
H4 H 0.0492 0.7122 0.5048
H6 H 0.0279 0.6173 0.5189
C6 C 0.0489(3) 0.4577(3) 0.41188(18)
H8 H 0.0543 0.4416 0.4307
C7 C 0.1052(3) 0.4766(3) 0.40105(18)
C8 C 0.1015(4) 0.4983(4) 0.37104(17)
H9 H 0.0916 0.4689 0.3585
H10 H 0.1364 0.5130 0.3655
H11 H 0.0742 0.5266 0.3701
C9 C 0.1494(4) 0.4338(4) 0.4029(2)
H12 H 0.1405 0.4038 0.3906
H13 H 0.1520 0.4208 0.4220
H14 H 0.1838 0.4496 0.3973
C10 C 0.0219(4) 0.4135(4) 0.3928(2)
C11 C 0.4181(3) 0.7557(3) 0.53062(17)
H15 H 0.4102 0.7236 0.5424
C12 C 0.3641(3) 0.7750(3) 0.51792(17)
C13 C 0.3717(4) 0.8258(3) 0.49937(19)
H16 H 0.3813 0.8566 0.5110
H17 H 0.3381 0.8335 0.4896
H18 H 0.4004 0.8192 0.4859
C14 C 0.3187(4) 0.7815(4) 0.53976(19)
H19 H 0.3274 0.8116 0.5521
H20 H 0.3156 0.7484 0.5506
H21 H 0.2846 0.7887 0.5303
C15 C 0.4436(4) 0.8020(3) 0.5508(2)
C16 C 0.4996(4) 0.6323(4) 0.4437(2)
H22 H 0.4882 0.6530 0.4270
C17 C 0.4608(3) 0.5859(4) 0.44753(19)
C18 C 0.4520(4) 0.5518(4) 0.42176(19)
H23 H 0.4855 0.5332 0.4170
H24 H 0.4412 0.5749 0.4063
H25 H 0.4238 0.5252 0.4253
C19 C 0.4757(4) 0.5507(4) 0.4728(2)
H26 H 0.5093 0.5316 0.4691
H27 H 0.4469 0.5247 0.4763
H28 H 0.4803 0.5737 0.4891
C20 C 0.5603(7) 0.6136(6) 0.4392(4)
C21 C 0.3453(3) 0.7941(3) 0.36968(18)
H29 H 0.3623 0.7618 0.3609
C22 C 0.3468(4) 0.7865(3) 0.40141(18)
C23 C 0.4014(4) 0.7679(6) 0.4135(3)
H30 H 0.4288 0.7952 0.4097
H31 H 0.4119 0.7338 0.4049
H32 H 0.3979 0.7628 0.4335
C24 C 0.3298(6) 0.8389(4) 0.4164(2)
H33 H 0.3560 0.8674 0.4124
H34 H 0.3286 0.8326 0.4364
H35 H 0.2942 0.8500 0.4099
C25 C 0.3775(4) 0.8454(4) 0.3601(2)
C26 C 0.1250(4) 0.7486(3) 0.3543(2)
H36 H 0.1087 0.7732 0.3684
C27 C 0.1239(4) 0.6887(3) 0.36544(19)
C28 C 0.0704(4) 0.6707(5) 0.3778(3)
H37 H 0.0431 0.6693 0.3632
H38 H 0.0592 0.6963 0.3921
H39 H 0.0746 0.6349 0.3861
C29 C 0.1457(6) 0.6486(4) 0.3430(2)
H40 H 0.1199 0.6460 0.3277
H41 H 0.1507 0.6130 0.3513
H42 H 0.1802 0.6617 0.3358
C30 C 0.0909(5) 0.7505(4) 0.3265(3)
C31 C 0.3359(4) 0.5253(4) 0.58006(17)
H43 H 0.3177 0.5548 0.5906
C32 C 0.3590(3) 0.5486(3) 0.55293(17)
C33 C 0.3858(4) 0.6036(4) 0.5575(2)
H44 H 0.4171 0.5994 0.5696
H45 H 0.3600 0.6283 0.5661
H46 H 0.3974 0.6183 0.5396
C34 C 0.3990(4) 0.5087(4) 0.53805(19)
H47 H 0.4309 0.5035 0.5497
H48 H 0.4098 0.5238 0.5202
H49 H 0.3811 0.4741 0.5351
C35 C 0.3835(4) 0.4997(5) 0.59916(19)
C36 C 0.1486(3) 0.4214(3) 0.54301(17)
H50 H 0.1584 0.3974 0.5272
C37 C 0.1201(3) 0.4749(3) 0.53109(17)
C38 C 0.0964(4) 0.5070(4) 0.5552(2)
H51 H 0.0665 0.4869 0.5634
H52 H 0.0834 0.5418 0.5484
H53 H 0.1243 0.5129 0.5692
C39 C 0.0807(4) 0.4612(4) 0.50778(19)
H54 H 0.0503 0.4410 0.5154
H55 H 0.0991 0.4393 0.4938
H56 H 0.0677 0.4944 0.4992
C40 C 0.1087(4) 0.3894(4) 0.5635(2)
C41 C 0.1832(4) 0.7383(3) 0.57789(16)
H57 H 0.2230 0.7414 0.5755
C42 C 0.1658(3) 0.6820(3) 0.56604(17)
C43 C 0.1033(4) 0.6722(4) 0.5693(2)
H58 H 0.0944 0.6686 0.5889
H59 H 0.0932 0.6392 0.5595
H60 H 0.0836 0.7027 0.5614
C44 C 0.1972(4) 0.6350(4) 0.57814(17)
H61 H 0.1888 0.6314 0.5979
H62 H 0.2358 0.6415 0.5759
H63 H 0.1873 0.6018 0.5684
C45 C 0.1707(4) 0.7453(4) 0.6093(2)
C46 C 0.1203(5) 0.8611(4) 0.4865(2)
H64 H 0.0859 0.8439 0.4805
C47 C 0.1665(7) 0.8436(4) 0.4669(2)
C48 C 0.2233(6) 0.8734(4) 0.4739(3)
H65 H 0.2205 0.9117 0.4694
H66 H 0.2521 0.8571 0.4629
H67 H 0.2314 0.8692 0.4937
C49 C 0.1141(8) 0.9265(6) 0.4858(4)
C50 C 0.1547(7) 0.8485(7) 0.4359(4)
H68 H 0.1502 0.8865 0.4310
H69 H 0.1217 0.8288 0.4315
H70 H 0.1848 0.8334 0.4253
C51 C 0.2993(3) 0.3745(3) 0.43707(16)
H71 H 0.2599 0.3730 0.4330
C52 C 0.3075(3) 0.4129(3) 0.46115(16)
C53 C 0.3678(3) 0.4161(3) 0.46898(17)
H72 H 0.3798 0.3812 0.4761
H73 H 0.3729 0.4437 0.4832
H74 H 0.3889 0.4255 0.4525
C54 C 0.2754(4) 0.3986(4) 0.48699(17)
H75 H 0.2871 0.3635 0.4939
H76 H 0.2371 0.3971 0.4824
H77 H 0.2815 0.4259 0.5012
C55 C 0.3194(5) 0.3143(4) 0.44295(19)
C56 C 0.3505(4) 0.5128(3) 0.34913(18)
H78 H 0.3833 0.5332 0.3549
C57 C 0.3009(4) 0.5497(4) 0.35402(18)
C58 C 0.2506(5) 0.5241(4) 0.3424(2)
H79 H 0.2540 0.5209 0.3222
H80 H 0.2194 0.5465 0.3469
H81 H 0.2459 0.4883 0.3504
C59 C 0.3105(5) 0.6073(4) 0.3424(2)
H82 H 0.3143 0.6055 0.3222
H83 H 0.3434 0.6222 0.3504
H84 H 0.2799 0.6303 0.3471
C60 C 0.3582(5) 0.4957(5) 0.3189(2)
O30 O 0.1684(5) 0.4137(5) 0.6645(2)
C61 C 0.1348(7) 0.4377(7) 0.6873(4)
C62 C 0.1662(8) 0.4714(8) 0.7136(4)
H85 H 0.1493 0.4620 0.7313
H86 H 0.1631 0.5102 0.7105
H87 H 0.2043 0.4613 0.7141
La3 La 0.41852(2) 0.87847(2) 0.612764(11)
O31 O 0.0722(2) 0.4786(2) 0.63042(12)
O32 O 0.0812(3) 0.3125(3) 0.67730(13)
H88 H 0.449929 0.53202 0.607213
H89 H 0.579382 0.560608 0.411804
H90 H 0.105692 0.79051 0.295203
H91 H 0.444895 0.868327 0.37323
H92 H 0.112279 0.972494 0.454325
H93 H 0.300748 0.272595 0.474012
H94 H 0.00293781 0.519729 0.395469
H98 H 0.199265 0.337922 0.625611
H99 H 0.173433 0.293784 0.647534
H100 H 0.00358127 0.360206 0.587624
H104 H 0.0813502 0.263483 0.613125
H105 H 0.0300695 0.265548 0.634936
H106 H 0.469484 0.772878 0.498935
H107 H 0.488925 0.720891 0.51918
H108 H 0.273851 0.83598 0.363526
H109 H 0.287146 0.789715 0.33878
H110 H 0.131211 0.797836 0.62823
H111 H 0.520736 0.653088 0.484523
H112 H 0.517712 0.706254 0.462733
H113 H 0.370994 0.427449 0.302199
H114 H 0.195121 0.747258 0.330162
H115 H 0.183531 0.807041 0.345764
H116 H 0.317067 0.447126 0.568672
H117 H 0.274975 0.473753 0.592525
H118 H 0.117553 0.786016 0.567208
H119 H 0.177115 0.818822 0.566424
H120 H 0.160387 0.873182 0.52405
H121 H 0.0971431 0.849157 0.527668
H122 H 0.368554 0.390412 0.413597
H123 H 0.313854 0.375484 0.39425
H124 H 0.187743 0.445312 0.579069
H125 H 0.223646 0.402109 0.559319
H126 H 0.322899 0.435016 0.357127
H127 H 0.384975 0.447668 0.369873
O1 O 0.1169(4) 0.3852(7) 0.9730(2)
O2 O 0.1070(5) 0.3004(6) 0.9748(3)
O4 O 0.0214(2) 0.5722(2) 0.88042(12)
N1 N 0.0286(3) 0.4066(3) 0.94434(17)
C1 C 0.0314(4) 0.3525(4) 0.9572(2)
H1 H 0.0246 0.3243 0.9429
H7 H 0.0059 0.4215 0.9990
C5 C 0.0892(6) 0.3441(7) 0.9703(3)
La2 La 0.12153(2) 0.58148(2) 0.887236(11)
H95 H 0.0223904 0.506933 0.924934
H102 H 0.0475497 0.433394 0.957548
H103 H 0.0492771 0.40497 0.92574
H128 H 0.149041 0.383194 0.960143
Ni4_2 Ni 0.00407(4) 0.74293(4) 0.79525(2)
Ni6_2 Ni 0.02693(4) 0.81556(4) 0.65471(2)
S11_2 S 0.01955(8) 0.78565(8) 0.69756(4)
O3_2 O 0.1319(3) 0.5442(3) 0.64161(18)
O13_2 O 0.0502(3) 0.8886(3) 0.84960(15)
O15_2 O 0.1085(3) 0.6185(3) 0.83878(13)
O16_2 O 0.1325(4) 0.5690(4) 0.80245(18)
O21_2 O 0.2014(2) 0.8629(3) 0.68429(14)
O22_2 O 0.2134(3) 0.7843(3) 0.70622(15)
O23_2 O 0.0515(3) 0.8405(4) 0.56093(15)
O25_2 O 0.0667(3) 0.5871(3) 0.93706(15)
O26_2 O 0.2147(3) 0.5492(5) 0.86945(18)
O27 O 0.1132(2) 0.4878(2) 0.91323(12)
O28_2 O 0.1849(3) 0.6666(4) 0.8800(2)
O29_2 O 0.1102(3) 0.5018(2) 0.85202(13)
N7_2 N 0.0188(3) 0.7958(3) 0.82435(14)
N8_2 N 0.0641(3) 0.6993(3) 0.80904(16)
N11_2 N 0.1034(3) 0.8276(3) 0.66133(13)
N12_2 N 0.0371(3) 0.8465(3) 0.61743(14)
C6_2 C 0.0423(3) 0.5489(3) 0.66188(18)
H8_2 H 0.0584 0.5543 0.6807
C7_2 C 0.0234(3) 0.6052(3) 0.65105(18)
C8_2 C 0.0017(4) 0.6015(4) 0.62104(17)
H9_2 H 0.0311 0.5916 0.6085
C9_2 C 0.0662(4) 0.6494(4) 0.6529(2)
H12_2 H 0.0962 0.6405 0.6406
H13_2 H 0.0792 0.6520 0.6720
H14_2 H 0.0504 0.6838 0.6473
C10_2 C 0.0865(4) 0.5219(4) 0.6428(2)
H49_2 H 0.0259 0.8811 0.7851
C35_2 C 0.0003(5) 0.8835(4) 0.84916(19)
C36_2 C 0.0786(3) 0.6486(3) 0.79301(17)
H50_2 H 0.1026 0.6584 0.7772
C37_2 C 0.0251(3) 0.6201(3) 0.78109(17)
H51_2 H 0.0131 0.5665 0.8134
C39_2 C 0.0388(4) 0.5807(4) 0.75778(19)
H54_2 H 0.0590 0.5503 0.7654
H55_2 H 0.0607 0.5991 0.7438
H56_2 H 0.0056 0.5677 0.7492
C40_2 C 0.1106(4) 0.6087(4) 0.8135(2)
C51_2 C 0.1255(3) 0.7993(3) 0.68707(16)
H71_2 H 0.1270 0.7599 0.6830
C52_2 C 0.0871(3) 0.8075(3) 0.71115(16)
C53_2 C 0.0839(3) 0.8678(3) 0.71898(17)
H72_2 H 0.1188 0.8798 0.7261
H73_2 H 0.0563 0.8729 0.7332
H74_2 H 0.0745 0.8889 0.7025
C54_2 C 0.1014(4) 0.7754(4) 0.73699(17)
H75_2 H 0.1365 0.7871 0.7439
H76_2 H 0.1029 0.7371 0.7324
H77_2 H 0.0741 0.7815 0.7512
C55_2 C 0.1857(4) 0.8194(5) 0.69295(19)
H81_2 H 0.0117 0.7459 0.6004
C60_2 C 0.0043(5) 0.8582(5) 0.5689(2)
O30_2 O 0.0863(5) 0.6684(5) 0.9145(2)
C61_2 C 0.0623(7) 0.6348(7) 0.9373(4)
C62_2 C 0.0286(8) 0.6662(8) 0.9636(4)
H85_2 H 0.0380 0.6493 0.9813
H87_2 H 0.0387 0.7043 0.9641
O32_2 O 0.1875(3) 0.5812(3) 0.92730(13)
H93_2 H 0.227405 0.800748 0.724012
H95_2 H 0.00693344 0.47761 0.674934
H96 H 0.13863 0.460891 0.904465
H97 H 0.122853 0.492637 0.933464
H98_2 H 0.162078 0.699265 0.875611
H99_2 H 0.206216 0.673433 0.897534
H100_2 H 0.139794 0.503581 0.837624
H101 H 0.112481 0.466345 0.862296
H104_2 H 0.236517 0.58135 0.863125
H105_2 H 0.234452 0.53007 0.884936
H113_2 H 0.0725508 0.870994 0.552199
H116_2 H 0.0528738 0.817067 0.818672
H117_2 H 0.0262469 0.774975 0.842525
H122_2 H 0.109588 0.868554 0.663597
H123_2 H 0.124516 0.813854 0.64425
H124_2 H 0.0546885 0.687743 0.829069
H125_2 H 0.0978912 0.723646 0.809319
H126_2 H 0.0649839 0.822899 0.607127
H127_2 H 0.0523317 0.884975 0.619873
Cl1_2 Cl 0.87579(8) 0.73546(8) 0.71086(4)
Ag1_2 Ag 0.79326(4) 0.62970(3) 0.691151(17)
Ag2_2 Ag 0.89255(3) 0.64749(3) 0.749872(15)
Ag3_2 Ag 0.99647(3) 0.68913(3) 0.712873(14)
Ag4_2 Ag 0.90715(3) 0.70192(3) 0.656453(15)
Ag5_2 Ag 0.76298(3) 0.76758(3) 0.710550(14)
Ag6_2 Ag 0.84416(3) 0.77796(3) 0.768664(14)
Ag7_2 Ag 0.94312(3) 0.82518(3) 0.727451(14)
Ag8_2 Ag 0.86030(3) 0.83970(3) 0.662680(18)
Ni1_2 Ni 0.93488(4) 0.54422(4) 0.68659(2)
Ni2_2 Ni 0.81226(4) 0.92624(4) 0.73227(2)
Ni3_2 Ni 0.75241(4) 0.73553(4) 0.62710(2)
Ni5_2 Ni 0.72645(4) 0.66095(5) 0.77076(2)
S1_2 S 0.87087(8) 0.57610(9) 0.71366(5)
S2_2 S 0.96660(8) 0.62423(8) 0.67521(4)
S3_2 S 0.78349(8) 0.84549(8) 0.74471(4)
S4_2 S 0.87917(8) 0.89535(8) 0.70655(4)
S5_2 S 0.76776(8) 0.79624(8) 0.65944(4)
S6_2 S 0.80934(9) 0.67599(9) 0.64416(5)
S7_2 S 0.94262(8) 0.79866(8) 0.77940(4)
S8_2 S 0.98666(8) 0.67753(8) 0.76540(4)
S9_2 S 0.81145(9) 0.68271(9) 0.77777(4)
S10_2 S 0.72919(9) 0.67549(10) 0.72583(5)
S12_2 S 0.94405(8) 0.79410(9) 0.64264(4)
O1_2 O 0.8852(7) 0.3831(4) 0.7230(2)
O2_2 O 0.8004(6) 0.3930(5) 0.7248(3)
O5_2 O 0.6760(3) 0.9870(3) 0.79194(14)
O6_2 O 0.6875(3) 0.9188(3) 0.82270(13)
O9_2 O 0.6584(3) 0.9289(2) 0.60970(13)
O10_2 O 0.6135(3) 0.8506(3) 0.60441(17)
O11_2 O 0.7450(5) 0.6154(5) 0.5542(2)
O12_2 O 0.7492(3) 0.5411(3) 0.5777(2)
O14_2 O 0.9651(3) 0.9106(3) 0.86250(15)
O17_2 O 0.7767(4) 0.7032(3) 0.87615(14)
O18_2 O 0.7330(3) 0.6256(3) 0.86482(14)
O19_2 O 0.5461(3) 0.6291(6) 0.7567(2)
O20_2 O 0.5556(4) 0.5892(6) 0.7138(3)
O24_2 O 0.9692(3) 0.8788(4) 0.55239(17)
N1_2 N 0.9066(3) 0.4714(3) 0.69434(17)
N2_2 N 0.9945(3) 0.5124(3) 0.66503(15)
N3_2 N 0.7610(3) 0.9565(3) 0.75947(14)
N4_2 N 0.8293(3) 0.9992(3) 0.71856(15)
N5_2 N 0.7028(3) 0.7873(3) 0.60988(14)
N6_2 N 0.7343(3) 0.6831(3) 0.59837(19)
N9_2 N 0.7167(3) 0.6576(3) 0.81148(15)
N10_2 N 0.6538(3) 0.6324(3) 0.76635(15)
C1_2 C 0.8525(4) 0.4686(4) 0.7072(2)
H1_2 H 0.8243 0.4754 0.6929
C2_2 C 0.8478(4) 0.5112(4) 0.73084(19)
C3_2 C 0.7886(4) 0.5195(4) 0.7415(2)
H2 H 0.7760 0.4865 0.7504
H3_2 H 0.7651 0.5281 0.7258
H4_2 H 0.7878 0.5492 0.7548
C4 C 0.8844(4) 0.4984(4) 0.7555(2)
H5 H 0.8724 0.4650 0.7643
H6_2 H 0.8827 0.5279 0.7689
H7_2 H 0.9215 0.4941 0.7490
C5_2 C 0.8441(7) 0.4108(6) 0.7203(3)
H10_2 H 0.9870 0.6364 0.6155
H11_2 H 0.9734 0.5742 0.6201
C11_2 C 0.7443(3) 0.9181(3) 0.78062(17)
H15_2 H 0.7764 0.9102 0.7924
C12_2 C 0.7250(3) 0.8641(3) 0.76792(17)
C13_2 C 0.6742(3) 0.8717(4) 0.74937(19)
H16_2 H 0.6434 0.8813 0.7610
H17_2 H 0.6665 0.8381 0.7396
H18_2 H 0.6808 0.9004 0.7359
C14_2 C 0.7185(4) 0.8187(4) 0.78976(19)
H19_2 H 0.6884 0.8274 0.8021
H20_2 H 0.7516 0.8156 0.8006
H21_2 H 0.7113 0.7846 0.7803
C15_2 C 0.6980(3) 0.9436(4) 0.8008(2)
C16_2 C 0.8677(4) 0.9996(4) 0.6937(2)
H22_2 H 0.8470 0.9882 0.6770
C17_2 C 0.9141(4) 0.9608(3) 0.69753(19)
C18_2 C 0.9482(4) 0.9520(4) 0.67176(19)
H23_2 H 0.9668 0.9855 0.6670
H24_2 H 0.9251 0.9412 0.6563
H25_2 H 0.9748 0.9238 0.6753
C19_2 C 0.9493(4) 0.9757(4) 0.7228(2)
H27_2 H 0.9753 0.9469 0.7263
H28_2 H 0.9263 0.9803 0.7391
C21_2 C 0.7059(3) 0.8453(3) 0.61968(18)
H29_2 H 0.7382 0.8623 0.6109
C22_2 C 0.7135(3) 0.8468(4) 0.65141(18)
C23_2 C 0.7321(6) 0.9014(4) 0.6635(3)
H30_2 H 0.7048 0.9288 0.6597
H31_2 H 0.7662 0.9119 0.6549
H32_2 H 0.7372 0.8979 0.6835
C24_2 C 0.6611(4) 0.8298(6) 0.6664(2)
H33_2 H 0.6326 0.8560 0.6624
H34_2 H 0.6674 0.8286 0.6864
H35_2 H 0.6500 0.7942 0.6599
C25_2 C 0.6546(4) 0.8775(4) 0.6101(2)
C26_2 C 0.7514(3) 0.6250(4) 0.6043(2)
H36_2 H 0.7268 0.6087 0.6184
C27_2 C 0.8113(3) 0.6239(4) 0.61544(19)
C28_2 C 0.8293(5) 0.5704(4) 0.6278(3)
H37_2 H 0.8307 0.5431 0.6132
H38_2 H 0.8037 0.5592 0.6421
H39_2 H 0.8651 0.5746 0.6361
C29_2 C 0.8514(4) 0.6457(6) 0.5930(2)
H40_2 H 0.8540 0.6199 0.5777
H41_2 H 0.8870 0.6507 0.6013
H42_2 H 0.8383 0.6802 0.5858
C30_2 C 0.7495(4) 0.5909(5) 0.5765(3)
C31_2 C 0.9747(4) 0.8359(4) 0.83006(17)
H43_2 H 0.9452 0.8177 0.8406
C32_2 C 0.9514(3) 0.8590(3) 0.80293(17)
C33_2 C 0.8964(4) 0.8858(4) 0.8075(2)
H44_2 H 0.9006 0.9171 0.8196
H45_2 H 0.8717 0.8600 0.8161
H46_2 H 0.8817 0.8974 0.7896
C34_2 C 0.9913(4) 0.8990(4) 0.78805(19)
H47_2 H 0.9965 0.9309 0.7997
H48_2 H 0.9762 0.9098 0.7702
C38_2 C 0.9930(4) 0.5964(4) 0.8052(2)
H52_2 H 0.9582 0.5834 0.7984
H53_2 H 0.9871 0.6243 0.8192
C41_2 C 0.7617(3) 0.6832(4) 0.82789(16)
H57_2 H 0.7586 0.7230 0.8255
C42_2 C 0.8180(3) 0.6658(3) 0.81604(17)
C43_2 C 0.8278(4) 0.6033(4) 0.8193(2)
H58_2 H 0.8314 0.5944 0.8389
H59_2 H 0.8608 0.5932 0.8095
H60_2 H 0.7973 0.5836 0.8114
C44_2 C 0.8650(4) 0.6972(4) 0.82814(17)
H61_2 H 0.8686 0.6888 0.8479
H62_2 H 0.8585 0.7358 0.8259
H63_2 H 0.8982 0.6873 0.8184
C45_2 C 0.7547(4) 0.6707(4) 0.8593(2)
C46_2 C 0.6389(4) 0.6203(5) 0.7365(2)
H64_2 H 0.6561 0.5859 0.7305
C47_2 C 0.6564(4) 0.6665(7) 0.7169(2)
C48_2 C 0.6266(4) 0.7233(6) 0.7239(3)
H65_2 H 0.5883 0.7205 0.7194
H66_2 H 0.6429 0.7521 0.7129
H67_2 H 0.6308 0.7314 0.7437
C49_2 C 0.5735(6) 0.6141(8) 0.7358(4)
C50_2 C 0.6515(7) 0.6547(7) 0.6859(4)
H68_2 H 0.6135 0.6502 0.6810
H69_2 H 0.6712 0.6217 0.6815
H70_2 H 0.6666 0.6848 0.6753
C56_2 C 0.9872(3) 0.8505(4) 0.59913(18)
H78_2 H 0.9668 0.8833 0.6049
C57_2 C 0.9503(4) 0.8009(4) 0.60402(18)
C58_2 C 0.9759(4) 0.7506(5) 0.5924(2)
H79_2 H 0.9791 0.7540 0.5722
H80_2 H 0.9535 0.7194 0.5969
C59_2 C 0.8927(4) 0.8105(5) 0.5924(2)
H82_2 H 0.8945 0.8143 0.5722
H83_2 H 0.8778 0.8434 0.6004
H84_2 H 0.8697 0.7799 0.5971
H86_2 H 0.9898 0.6631 0.9605
La3_2 La 0.62153(2) 0.91852(2) 0.862764(11)
H88_2 H 0.96798 0.949929 0.857213
H90_2 H 0.70949 0.605692 0.545203
H91_2 H 0.631673 0.944895 0.62323
H92_2 H 0.527506 0.612279 0.704325
H94_2 H 0.980271 0.502938 0.645469
H102_2 H 0.933394 0.45245 0.707548
H103_2 H 0.90497 0.450723 0.67574
H106_2 H 0.727122 0.969484 0.748935
H107_2 H 0.779109 0.988925 0.76918
H108_2 H 0.66402 0.773851 0.613526
H109_2 H 0.710285 0.787146 0.58878
H110_2 H 0.702164 0.631211 0.87823
H114_2 H 0.752742 0.695121 0.580162
H115_2 H 0.692959 0.683531 0.595764
H118_2 H 0.713984 0.617553 0.817208
H119_2 H 0.681178 0.677115 0.816424
H120_2 H 0.626818 0.660387 0.77405
H121_2 H 0.650843 0.597143 0.777668
H128_2 H 0.883194 0.350959 0.710143
Cl1_3 Cl 0.26454(8) 0.12421(8) 0.78914(4)
Ag1_3 Ag 0.37030(3) 0.20674(4) 0.808849(17)
Ag2_3 Ag 0.35251(3) 0.10745(3) 0.750128(15)
Ag3_3 Ag 0.31087(3) 0.00353(3) 0.787127(14)
Ag4_3 Ag 0.29808(3) 0.09285(3) 0.843547(15)
Ag5_3 Ag 0.23242(3) 0.23702(3) 0.789450(14)
Ag6_3 Ag 0.22204(3) 0.15584(3) 0.731336(14)
Ag7_3 Ag 0.17482(3) 0.05688(3) 0.772549(14)
Ag8_3 Ag 0.16030(3) 0.13970(3) 0.837320(18)
Ni1_3 Ni 0.45578(4) 0.06512(4) 0.81341(2)
Ni2_3 Ni 0.07376(4) 0.18774(4) 0.76773(2)
Ni3_3 Ni 0.26447(4) 0.24759(4) 0.87290(2)
Ni5_3 Ni 0.33905(5) 0.27355(4) 0.72924(2)
S1_3 S 0.42390(9) 0.12913(8) 0.78634(5)
S2_3 S 0.37577(8) 0.03340(8) 0.82479(4)
S3_3 S 0.15451(8) 0.21651(8) 0.75529(4)
S4_3 S 0.10465(8) 0.12083(8) 0.79345(4)
S5_3 S 0.20376(8) 0.23224(8) 0.84056(4)
S6_3 S 0.32401(9) 0.19066(9) 0.85584(5)
S7_3 S 0.20134(8) 0.05738(8) 0.72060(4)
S8_3 S 0.32247(8) 0.01334(8) 0.73460(4)
S9_3 S 0.31729(9) 0.18855(9) 0.72223(4)
S10_3 S 0.32451(10) 0.27081(9) 0.77417(5)
S12_3 S 0.20590(9) 0.05595(8) 0.85736(4)
O1_3 O 0.6169(4) 0.1148(7) 0.7770(2)
O2_3 O 0.6070(5) 0.1996(6) 0.7752(3)
O5_3 O 0.0130(3) 0.3240(3) 0.70806(14)
O9_3 O 0.0711(2) 0.3416(3) 0.89030(13)
O10_3 O 0.1494(3) 0.3865(3) 0.89559(17)
O11_3 O 0.3846(5) 0.2550(5) 0.9458(2)
O12_3 O 0.4589(3) 0.2508(3) 0.9223(2)
O14_3 O 0.0894(3) 0.0349(3) 0.63750(15)
O17_3 O 0.2968(3) 0.2233(4) 0.62385(14)
O18_3 O 0.3744(3) 0.2670(3) 0.63518(14)
O19_3 O 0.3709(6) 0.4539(3) 0.7433(2)
O20_3 O 0.4108(6) 0.4444(4) 0.7862(3)
O24_3 O 0.1212(4) 0.0308(3) 0.94761(17)
N1_3 N 0.5286(3) 0.0934(3) 0.80566(17)
N2_3 N 0.4876(3) 0.0055(3) 0.83497(15)
N3_3 N 0.0435(3) 0.2390(3) 0.74053(14)
N4_3 N 0.0008(3) 0.1707(3) 0.78144(15)
N5_3 N 0.2127(3) 0.2972(3) 0.89012(14)
N6_3 N 0.3169(3) 0.2657(3) 0.90163(19)
N9_3 N 0.3424(3) 0.2833(3) 0.68852(15)
N10_3 N 0.3676(3) 0.3462(3) 0.73365(15)
C1_3 C 0.5314(4) 0.1475(4) 0.7928(2)
H1_3 H 0.5246 0.1757 0.8071
C2_3 C 0.4888(4) 0.1522(4) 0.76916(19)
C3_3 C 0.4805(4) 0.2114(4) 0.7585(2)
H2_2 H 0.5135 0.2240 0.7496
H3_3 H 0.4719 0.2349 0.7742
H4_3 H 0.4508 0.2122 0.7452
C4_2 C 0.5016(4) 0.1156(4) 0.7445(2)
H5_2 H 0.5350 0.1276 0.7357
H6_3 H 0.4721 0.1173 0.7311
H7_3 H 0.5059 0.0785 0.7510
C5_3 C 0.5892(6) 0.1559(7) 0.7797(3)
H10_3 H 0.3636 0.0130 0.8845
H11_3 H 0.4258 0.0266 0.8799
C11_3 C 0.0819(3) 0.2557(3) 0.71938(17)
H15_3 H 0.0898 0.2236 0.7076
C12_3 C 0.1359(3) 0.2750(3) 0.73208(17)
C13_3 C 0.1283(4) 0.3258(3) 0.75063(19)
H16_3 H 0.1187 0.3566 0.7390
H17_3 H 0.1619 0.3335 0.7604
H18_3 H 0.0996 0.3192 0.7641
C14_3 C 0.1813(4) 0.2815(4) 0.71024(19)
H19_3 H 0.1726 0.3116 0.6979
H20_3 H 0.1844 0.2484 0.6994
H21_3 H 0.2154 0.2887 0.7197
C15_3 C 0.0564(4) 0.3020(3) 0.6992(2)
C16_3 C 0.0004(4) 0.1323(4) 0.8063(2)
H22_3 H 0.0118 0.1530 0.8230
C17_3 C 0.0392(3) 0.0859(4) 0.80247(19)
C18_3 C 0.0480(4) 0.0518(4) 0.82824(19)
H23_3 H 0.0145 0.0332 0.8330
H24_3 H 0.0588 0.0749 0.8437
H25_3 H 0.0762 0.0252 0.8247
C19_3 C 0.0243(4) 0.0507(4) 0.7772(2)
H27_3 H 0.0531 0.0247 0.7737
H28_3 H 0.0197 0.0737 0.7609
C21_3 C 0.1547(3) 0.2941(3) 0.88032(18)
H29_3 H 0.1377 0.2618 0.8891
C22_3 C 0.1532(4) 0.2865(3) 0.84859(18)
C23_3 C 0.0986(4) 0.2679(6) 0.8365(3)
H30_3 H 0.0712 0.2952 0.8403
H31_3 H 0.0881 0.2338 0.8451
H32_3 H 0.1021 0.2628 0.8165
C24_3 C 0.1702(6) 0.3389(4) 0.8336(2)
H33_3 H 0.1440 0.3674 0.8376
H34_3 H 0.1714 0.3326 0.8136
H35_3 H 0.2058 0.3500 0.8401
C25_3 C 0.1225(4) 0.3454(4) 0.8899(2)
C26_3 C 0.3750(4) 0.2486(3) 0.8957(2)
H36_3 H 0.3913 0.2732 0.8816
C27_3 C 0.3761(4) 0.1887(3) 0.88456(19)
C28_3 C 0.4296(4) 0.1707(5) 0.8722(3)
H37_3 H 0.4569 0.1693 0.8868
H38_3 H 0.4408 0.1963 0.8579
H39_3 H 0.4254 0.1349 0.8639
C29_3 C 0.3543(6) 0.1486(4) 0.9070(2)
H40_3 H 0.3801 0.1460 0.9223
H41_3 H 0.3493 0.1130 0.8987
H42_3 H 0.3198 0.1617 0.9142
C30_3 C 0.4091(5) 0.2505(4) 0.9235(3)
C31_3 C 0.1641(4) 0.0253(4) 0.66994(17)
H43_3 H 0.1823 0.0548 0.6594
C32_3 C 0.1410(3) 0.0486(3) 0.69707(17)
C33_3 C 0.1142(4) 0.1036(4) 0.6925(2)
H44_3 H 0.0829 0.0994 0.6804
H45_3 H 0.1400 0.1283 0.6839
H46_3 H 0.1026 0.1183 0.7104
C34_3 C 0.1010(4) 0.0087(4) 0.71195(19)
H47_3 H 0.0691 0.0035 0.7003
H48_3 H 0.0902 0.0238 0.7298
C38_3 C 0.4036(4) 0.0070(4) 0.6948(2)
H52_3 H 0.4166 0.0418 0.7016
H53_3 H 0.3757 0.0129 0.6808
C41_3 C 0.3168(4) 0.2383(3) 0.67211(16)
H57_3 H 0.2770 0.2414 0.6745
C42_3 C 0.3342(3) 0.1820(3) 0.68396(17)
C43_3 C 0.3967(4) 0.1722(4) 0.6807(2)
H58_3 H 0.4056 0.1686 0.6611
H59_3 H 0.4068 0.1392 0.6905
H60_3 H 0.4164 0.2027 0.6886
C44_3 C 0.3028(4) 0.1350(4) 0.67186(17)
H61_3 H 0.3112 0.1314 0.6521
H62_3 H 0.2642 0.1415 0.6741
H63_3 H 0.3127 0.1018 0.6816
C45_3 C 0.3293(4) 0.2453(4) 0.6407(2)
C46_3 C 0.3797(5) 0.3611(4) 0.7635(2)
H64_3 H 0.4141 0.3439 0.7695
C47_3 C 0.3335(7) 0.3436(4) 0.7831(2)
C48_3 C 0.2767(6) 0.3734(4) 0.7761(3)
H65_3 H 0.2795 0.4117 0.7806
H66_3 H 0.2479 0.3571 0.7871
H67_3 H 0.2686 0.3692 0.7563
C49_3 C 0.3859(8) 0.4265(6) 0.7642(4)
C50_3 C 0.3453(7) 0.3485(7) 0.8141(4)
H68_3 H 0.3498 0.3865 0.8190
H69_3 H 0.3783 0.3288 0.8185
H70_3 H 0.3152 0.3334 0.8247
C56_3 C 0.1495(4) 0.0128(3) 0.90087(18)
H78_3 H 0.1167 0.0332 0.8951
C57_3 C 0.1991(4) 0.0497(4) 0.89598(18)
C58_3 C 0.2494(5) 0.0241(4) 0.9076(2)
H79_3 H 0.2460 0.0209 0.9278
H80_3 H 0.2806 0.0465 0.9031
C59_3 C 0.1895(5) 0.1073(4) 0.9076(2)
H82_3 H 0.1857 0.1055 0.9278
H83_3 H 0.1566 0.1222 0.8996
H84_3 H 0.2201 0.1303 0.9029
H86_3 H 0.3369 0.0102 0.5395
H88_3 H 0.0500708 0.0320203 0.642787
H90_3 H 0.394308 0.29051 0.954797
H91_3 H 0.0551054 0.368327 0.87677
H92_3 H 0.387721 0.472494 0.795675
H94_3 H 0.497062 0.0197294 0.854531
H102_3 H 0.54755 0.0666061 0.792452
H103_3 H 0.549277 0.0950299 0.82426
H106_3 H 0.0305161 0.272878 0.751065
H107_3 H 0.0110754 0.220891 0.73082
H108_3 H 0.226149 0.33598 0.886474
H109_3 H 0.212854 0.289715 0.91122
H110_3 H 0.368789 0.297836 0.62177
H114_3 H 0.304879 0.247258 0.919838
H115_3 H 0.316469 0.307041 0.904236
H118_3 H 0.382447 0.286016 0.682792
H119_3 H 0.322885 0.318822 0.683576
H120_3 H 0.339613 0.373182 0.72595
H121_3 H 0.402857 0.349157 0.722332
H128_3 H 0.649041 0.116806 0.789857
Ni4_3 Ni 0.25707(4) 0.99593(4) 0.70475(2)
Ni6_3 Ni 0.18444(4) 0.97307(4) 0.84529(2)
S11_3 S 0.21435(8) 0.98045(8) 0.80244(4)
O3_3 O 0.4558(3) 0.8681(3) 0.85839(18)
O4_2 O 0.5214(2) 0.9278(2) 0.86958(12)
O13_3 O 0.1114(3) 0.9498(3) 0.65040(15)
O15_3 O 0.3815(3) 0.8915(3) 0.66122(13)
O16_3 O 0.4310(4) 0.8675(4) 0.69755(18)
O21_3 O 0.1371(3) 0.7986(2) 0.81571(14)
O22_3 O 0.2157(3) 0.7866(3) 0.79378(15)
O23_3 O 0.1595(4) 0.9485(3) 0.93907(15)
O25_3 O 0.4129(3) 0.9333(3) 0.56294(15)
O26_3 O 0.4508(5) 0.7853(3) 0.63055(18)
O27_2 O 0.5122(2) 0.8868(2) 0.58677(12)
O28_3 O 0.3334(4) 0.8151(3) 0.6200(2)
O29_3 O 0.4982(2) 0.8898(3) 0.64798(13)
N7_3 N 0.2042(3) 0.9812(3) 0.67565(14)
N8_3 N 0.3007(3) 0.9359(3) 0.69096(16)
N11_3 N 0.1724(3) 0.8966(3) 0.83867(13)
N12_3 N 0.1535(3) 0.9629(3) 0.88257(14)
C6_3 C 0.4511(3) 0.9577(3) 0.83812(18)
H8_3 H 0.4457 0.9416 0.8193
C7_3 C 0.3948(3) 0.9766(3) 0.84895(18)
C8_3 C 0.3985(4) 0.9983(4) 0.87896(17)
H9_3 H 0.4084 0.9689 0.8915
C9_3 C 0.3506(4) 0.9338(4) 0.8471(2)
H12_3 H 0.3595 0.9038 0.8594
H13_3 H 0.3480 0.9208 0.8280
H14_3 H 0.3162 0.9496 0.8527
C10_3 C 0.4781(4) 0.9135(4) 0.8572(2)
H49_3 H 0.1189 0.9741 0.7149
C35_3 C 0.1165(4) 0.9997(5) 0.65084(19)
C36_3 C 0.3514(3) 0.9214(3) 0.70699(17)
H50_3 H 0.3416 0.8974 0.7228
C37_3 C 0.3799(3) 0.9749(3) 0.71891(17)
H51_3 H 0.4335 0.9869 0.6866
C39_3 C 0.4193(4) 0.9612(4) 0.74222(19)
H54_3 H 0.4497 0.9410 0.7346
H55_3 H 0.4009 0.9393 0.7562
H56_3 H 0.4323 0.9944 0.7508
C40_3 C 0.3913(4) 0.8894(4) 0.6865(2)
C51_3 C 0.2007(3) 0.8745(3) 0.81293(16)
H71_3 H 0.2401 0.8730 0.8170
C52_3 C 0.1925(3) 0.9129(3) 0.78885(16)
C53_3 C 0.1322(3) 0.9161(3) 0.78102(17)
H72_3 H 0.1202 0.8812 0.7739
H73_3 H 0.1271 0.9437 0.7668
H74_3 H 0.1111 0.9255 0.7975
C54_3 C 0.2246(4) 0.8986(4) 0.76301(17)
H75_3 H 0.2129 0.8635 0.7561
H76_3 H 0.2629 0.8971 0.7676
H77_3 H 0.2185 0.9259 0.7488
C55_3 C 0.1806(5) 0.8143(4) 0.80705(19)
H81_3 H 0.2541 0.9883 0.8996
C60_3 C 0.1418(5) 0.9957(5) 0.9311(2)
O30_3 O 0.3316(5) 0.9137(5) 0.5855(2)
C61_3 C 0.3652(7) 0.9377(7) 0.5627(4)
C62_3 C 0.3338(8) 0.9714(8) 0.5364(4)
H85_3 H 0.3507 0.9620 0.5187
H87_3 H 0.2957 0.9613 0.5359
O31_2 O 0.4278(2) 0.9786(2) 0.61958(12)
H93_3 H 0.199252 0.772595 0.775988
H95_3 H 0.52239 0.993067 0.825066
H96_2 H 0.539109 0.86137 0.595535
H97_2 H 0.507363 0.877147 0.566536
H98_3 H 0.300735 0.837922 0.624389
H99_3 H 0.326567 0.793784 0.602466
H100_3 H 0.496419 0.860206 0.662376
H101_2 H 0.533655 0.887519 0.637704
H104_3 H 0.41865 0.763483 0.636875
H105_3 H 0.46993 0.765548 0.615064
H113_3 H 0.129006 0.927449 0.947801
H116_3 H 0.182933 0.947126 0.681328
H117_3 H 0.225025 0.973753 0.657475
H122_3 H 0.131446 0.890412 0.836403
H123_3 H 0.186146 0.875484 0.85575
H124_3 H 0.312257 0.945312 0.670931
H125_3 H 0.276354 0.902109 0.690681
H126_3 H 0.177101 0.935016 0.892873
H127_3 H 0.115025 0.947668 0.880127
O1_4 O 0.6148(7) 0.8831(4) 0.5270(2)
O2_4 O 0.6996(6) 0.8930(5) 0.5252(3)
O27_3 O 0.3868(2) 0.9878(2) 0.33677(12)
N1_4 N 0.5934(3) 0.9714(3) 0.55566(17)
C1_4 C 0.6475(4) 0.9686(4) 0.5428(2)
H1_4 H 0.6757 0.9754 0.5571
H2_3 H 0.7240 0.9865 0.4996
C4_3 C 0.6156(4) 0.9984(4) 0.4945(2)
H5_3 H 0.6276 0.9650 0.4857
H7_4 H 0.5785 0.9941 0.5010
C5_4 C 0.6559(7) 0.9108(6) 0.5297(3)
H95_4 H 0.493067 0.97761 0.575066
H96_3 H 0.36137 0.960891 0.345535
H97_3 H 0.377147 0.992637 0.316536
H101_3 H 0.387519 0.966345 0.387704
H102_4 H 0.566606 0.95245 0.542452
H103_4 H 0.59503 0.950723 0.57426
H128_4 H 0.616806 0.850959 0.539857
Ag6_4 Ag 0.34416(3) 0.72204(3) 0.981336(14)
Ni4_4 Ni 0.50407(4) 0.75707(4) 0.95475(2)
Ni5_4 Ni 0.22645(4) 0.83905(5) 0.97924(2)
S7_4 S 0.44262(8) 0.70134(8) 0.97060(4)
S8_4 S 0.48666(8) 0.82247(8) 0.98460(4)
S9_4 S 0.31145(9) 0.81729(9) 0.97223(4)
O5_4 O 0.1760(3) 0.5130(3) 0.95806(14)
O13_4 O 0.5502(3) 0.6114(3) 0.90040(15)
O14_4 O 0.4651(3) 0.5894(3) 0.88750(15)
O15_4 O 0.6085(3) 0.8815(3) 0.91122(13)
O16_4 O 0.6325(4) 0.9310(4) 0.94755(18)
O17_4 O 0.2767(4) 0.7968(3) 0.87385(14)
O18_4 O 0.2330(3) 0.8744(3) 0.88518(14)
O19_4 O 0.0461(3) 0.8709(6) 0.9933(2)
O25_4 O 0.5667(3) 0.9129(3) 0.81294(15)
O26_4 O 0.7147(3) 0.9508(5) 0.88055(18)
O28_4 O 0.6849(3) 0.8334(4) 0.8700(2)
O29_4 O 0.6102(3) 0.9982(2) 0.89798(13)
N3_4 N 0.2610(3) 0.5435(3) 0.99053(14)
N7_4 N 0.5188(3) 0.7042(3) 0.92565(14)
N8_4 N 0.5641(3) 0.8007(3) 0.94096(16)
N9_4 N 0.2167(3) 0.8424(3) 0.93852(15)
N10_4 N 0.1538(3) 0.8676(3) 0.98365(15)
H4_4 H 0.2878 0.9508 0.9952
H6_4 H 0.3827 0.9721 0.9811
C11_4 C 0.2443(3) 0.5819(3) 0.96938(17)
H15_4 H 0.2764 0.5898 0.9576
C12_4 C 0.2250(3) 0.6359(3) 0.98208(17)
H16_4 H 0.1434 0.6187 0.9890
C14_4 C 0.2185(4) 0.6813(4) 0.96024(19)
H19_4 H 0.1884 0.6726 0.9479
H20_4 H 0.2516 0.6844 0.9494
H21_4 H 0.2113 0.7154 0.9697
C15_4 C 0.1980(3) 0.5564(4) 0.9492(2)
C31_4 C 0.4747(4) 0.6641(4) 0.91994(17)
H43_4 H 0.4452 0.6823 0.9094
C32_4 C 0.4514(3) 0.6410(3) 0.94707(17)
C33_4 C 0.3964(4) 0.6142(4) 0.9425(2)
H44_4 H 0.4006 0.5829 0.9304
H45_4 H 0.3717 0.6400 0.9339
H46_4 H 0.3817 0.6026 0.9604
C34_4 C 0.4913(4) 0.6010(4) 0.96195(19)
H47_4 H 0.4965 0.5691 0.9503
H48_4 H 0.4762 0.5902 0.9798
H49_4 H 0.5259 0.6189 0.9649
C35_4 C 0.5003(5) 0.6165(4) 0.90084(19)
C36_4 C 0.5786(3) 0.8514(3) 0.95699(17)
H50_4 H 0.6026 0.8416 0.9728
C37_4 C 0.5251(3) 0.8799(3) 0.96891(17)
C38_4 C 0.4930(4) 0.9036(4) 0.9448(2)
H51_4 H 0.5131 0.9335 0.9366
H52_4 H 0.4582 0.9166 0.9516
H53_4 H 0.4871 0.8757 0.9308
C39_4 C 0.5388(4) 0.9193(4) 0.99222(19)
H54_4 H 0.5590 0.9497 0.9846
C40_4 C 0.6106(4) 0.8913(4) 0.9365(2)
C41_4 C 0.2617(3) 0.8168(4) 0.92211(16)
H57_4 H 0.2586 0.7770 0.9245
C42_4 C 0.3180(3) 0.8342(3) 0.93396(17)
C43_4 C 0.3278(4) 0.8967(4) 0.9307(2)
H58_4 H 0.3314 0.9056 0.9111
H59_4 H 0.3608 0.9068 0.9405
H60_4 H 0.2973 0.9164 0.9386
C44_4 C 0.3650(4) 0.8028(4) 0.92186(17)
H61_4 H 0.3686 0.8112 0.9021
H62_4 H 0.3585 0.7642 0.9241
H63_4 H 0.3982 0.8127 0.9316
C45_4 C 0.2547(4) 0.8293(4) 0.8907(2)
H77_4 H 0.5741 0.7185 0.9988
O30_4 O 0.5863(5) 0.8316(5) 0.8355(2)
C61_4 C 0.5623(7) 0.8652(7) 0.8127(4)
C62_4 C 0.5286(8) 0.8338(8) 0.7864(4)
H85_4 H 0.5380 0.8507 0.7687
H86_4 H 0.4898 0.8369 0.7895
H87_4 H 0.5387 0.7957 0.7859
H88_4 H 0.46798 0.550071 0.892787
H98_4 H 0.662078 0.800735 0.874389
H99_4 H 0.706216 0.826567 0.852466
H100_4 H 0.639794 0.996419 0.912376
H104_4 H 0.736517 0.91865 0.886875
H105_4 H 0.734452 0.96993 0.865064
H107_4 H 0.279109 0.511075 0.98082
H110_4 H 0.202164 0.868789 0.87177
H116_4 H 0.552874 0.682933 0.931328
H117_4 H 0.526247 0.725025 0.907475
H118_4 H 0.213984 0.882447 0.932792
H119_4 H 0.181178 0.822885 0.933576
H120_4 H 0.126818 0.839613 0.97595
H121_4 H 0.150843 0.902857 0.972332
H124_4 H 0.554688 0.812257 0.920931
H125_4 H 0.597891 0.776354 0.940681
O1_5 O 0.8831(4) 0.6148(7) 0.4730(2)
O2_5 O 0.8930(5) 0.6996(6) 0.4748(3)
O4_3 O 0.9786(2) 0.4278(2) 0.38042(12)
O27_4 O 0.9878(2) 0.3868(2) 0.66323(12)
N1_5 N 0.9714(3) 0.5934(3) 0.44434(17)
C1_5 C 0.9686(4) 0.6475(4) 0.4572(2)
H1_5 H 0.9754 0.6757 0.4429
H2_4 H 0.9865 0.7240 0.5004
C4_4 C 0.9984(4) 0.6156(4) 0.5055(2)
H5_4 H 0.9650 0.6276 0.5143
H7_5 H 0.9941 0.5785 0.4990
C5_5 C 0.9108(6) 0.6559(7) 0.4703(3)
La2_2 La 0.87847(2) 0.41852(2) 0.387236(11)
H95_5 H 0.97761 0.493067 0.424934
H96_4 H 0.960891 0.36137 0.654465
H97_4 H 0.992637 0.377147 0.683464
H101_4 H 0.966345 0.387519 0.612296
H102_5 H 0.95245 0.566606 0.457548
H103_5 H 0.950723 0.59503 0.42574
H128_5 H 0.850959 0.616806 0.460143
La1_2 La 0.91852(2) 0.62153(2) 0.137236(11)
Ag6_5 Ag 0.72204(3) 0.34416(3) 0.018664(14)
Ni4_5 Ni 0.75707(4) 0.50407(4) 0.04525(2)
Ni5_5 Ni 0.83905(5) 0.22645(4) 0.02076(2)
S7_5 S 0.70134(8) 0.44262(8) 0.02940(4)
S8_5 S 0.82247(8) 0.48666(8) 0.01540(4)
S9_5 S 0.81729(9) 0.31145(9) 0.02777(4)
O5_5 O 0.5130(3) 0.1760(3) 0.04194(14)
O6_3 O 0.5812(3) 0.1875(3) 0.07270(13)
O13_5 O 0.6114(3) 0.5502(3) 0.09960(15)
O14_5 O 0.5894(3) 0.4651(3) 0.11250(15)
O15_5 O 0.8815(3) 0.6085(3) 0.08878(13)
O16_5 O 0.9310(4) 0.6325(4) 0.05245(18)
O17_5 O 0.7968(3) 0.2767(4) 0.12615(14)
O18_5 O 0.8744(3) 0.2330(3) 0.11482(14)
O19_5 O 0.8709(6) 0.0461(3) 0.0067(2)
O25_5 O 0.9129(3) 0.5667(3) 0.18706(15)
O26_5 O 0.9508(5) 0.7147(3) 0.11945(18)
O28_5 O 0.8334(4) 0.6849(3) 0.1300(2)
O29_5 O 0.9982(2) 0.6102(3) 0.10202(13)
N3_5 N 0.5435(3) 0.2610(3) 0.00947(14)
N7_5 N 0.7042(3) 0.5188(3) 0.07435(14)
N8_5 N 0.8007(3) 0.5641(3) 0.05904(16)
N9_5 N 0.8424(3) 0.2167(3) 0.06148(15)
N10_5 N 0.8676(3) 0.1538(3) 0.01635(15)
H4_5 H 0.9508 0.2878 0.0048
H6_5 H 0.9721 0.3827 0.0189
C11_5 C 0.5819(3) 0.2443(3) 0.03062(17)
H15_5 H 0.5898 0.2764 0.0424
C12_5 C 0.6359(3) 0.2250(3) 0.01792(17)
H16_5 H 0.6187 0.1434 0.0110
C14_5 C 0.6813(4) 0.2185(4) 0.03976(19)
H19_5 H 0.6726 0.1884 0.0521
H20_5 H 0.6844 0.2516 0.0506
H21_5 H 0.7154 0.2113 0.0303
C15_5 C 0.5564(4) 0.1980(3) 0.0508(2)
C31_5 C 0.6641(4) 0.4747(4) 0.08006(17)
H43_5 H 0.6823 0.4452 0.0906
C32_5 C 0.6410(3) 0.4514(3) 0.05293(17)
C33_5 C 0.6142(4) 0.3964(4) 0.0575(2)
H44_5 H 0.5829 0.4006 0.0696
H45_5 H 0.6400 0.3717 0.0661
H46_5 H 0.6026 0.3817 0.0396
C34_5 C 0.6010(4) 0.4913(4) 0.03805(19)
H47_5 H 0.5691 0.4965 0.0497
H48_5 H 0.5902 0.4762 0.0202
H49_5 H 0.6189 0.5259 0.0351
C35_5 C 0.6165(4) 0.5003(5) 0.09916(19)
C36_5 C 0.8514(3) 0.5786(3) 0.04301(17)
H50_5 H 0.8416 0.6026 0.0272
C37_5 C 0.8799(3) 0.5251(3) 0.03109(17)
C38_5 C 0.9036(4) 0.4930(4) 0.0552(2)
H51_5 H 0.9335 0.5131 0.0634
H52_5 H 0.9166 0.4582 0.0484
H53_5 H 0.8757 0.4871 0.0692
C39_5 C 0.9193(4) 0.5388(4) 0.00778(19)
H54_5 H 0.9497 0.5590 0.0154
C40_5 C 0.8913(4) 0.6106(4) 0.0635(2)
C41_5 C 0.8168(4) 0.2617(3) 0.07789(16)
H57_5 H 0.7770 0.2586 0.0755
C42_5 C 0.8342(3) 0.3180(3) 0.06604(17)
C43_5 C 0.8967(4) 0.3278(4) 0.0693(2)
H58_5 H 0.9056 0.3314 0.0889
H59_5 H 0.9068 0.3608 0.0595
H60_5 H 0.9164 0.2973 0.0614
C44_5 C 0.8028(4) 0.3650(4) 0.07814(17)
H61_5 H 0.8112 0.3686 0.0979
H62_5 H 0.7642 0.3585 0.0759
H63_5 H 0.8127 0.3982 0.0684
C45_5 C 0.8293(4) 0.2547(4) 0.1093(2)
H77_5 H 0.7185 0.5741 0.0012
O30_5 O 0.8316(5) 0.5863(5) 0.1645(2)
C61_5 C 0.8652(7) 0.5623(7) 0.1873(4)
C62_5 C 0.8338(8) 0.5286(8) 0.2136(4)
H85_5 H 0.8507 0.5380 0.2313
H86_5 H 0.8369 0.4898 0.2105
H87_5 H 0.7957 0.5387 0.2141
La3_3 La 0.58148(2) 0.12153(2) 0.112764(11)
O31_3 O 0.9278(2) 0.5214(2) 0.13042(12)
O32_3 O 0.9188(3) 0.6875(3) 0.17730(13)
H88_5 H 0.550071 0.46798 0.107213
H98_5 H 0.800735 0.662078 0.125611
H99_5 H 0.826567 0.706216 0.147534
H100_5 H 0.996419 0.639794 0.0876243
H104_5 H 0.91865 0.736517 0.113125
H105_5 H 0.96993 0.734452 0.134936
H107_5 H 0.511075 0.279109 0.0191802
H110_5 H 0.868789 0.202164 0.12823
H116_5 H 0.682933 0.552874 0.0686722
H117_5 H 0.725025 0.526247 0.0925254
H118_5 H 0.882447 0.213984 0.0672076
H119_5 H 0.822885 0.181178 0.066424
H120_5 H 0.839613 0.126818 0.0240501
H121_5 H 0.902857 0.150843 0.0276682
H124_5 H 0.812257 0.554688 0.0790686
H125_5 H 0.776354 0.597891 0.0593194
Cl1_4 Cl 0.12421(8) 0.26454(8) 0.21086(4)
Ag1_4 Ag 0.20674(4) 0.37030(3) 0.191151(17)
Ag2_4 Ag 0.10745(3) 0.35251(3) 0.249872(15)
Ag3_4 Ag 0.00353(3) 0.31087(3) 0.212873(14)
Ag4_4 Ag 0.09285(3) 0.29808(3) 0.156453(15)
Ag5_4 Ag 0.23702(3) 0.23242(3) 0.210550(14)
Ag6_6 Ag 0.15584(3) 0.22204(3) 0.268664(14)
Ag7_4 Ag 0.05688(3) 0.17482(3) 0.227451(14)
Ag8_4 Ag 0.13970(3) 0.16030(3) 0.162680(18)
Ni1_4 Ni 0.06512(4) 0.45578(4) 0.18659(2)
Ni2_4 Ni 0.18774(4) 0.07376(4) 0.23227(2)
Ni3_4 Ni 0.24759(4) 0.26447(4) 0.12710(2)
Ni5_6 Ni 0.27355(4) 0.33905(5) 0.27076(2)
S1_4 S 0.12913(8) 0.42390(9) 0.21366(5)
S2_4 S 0.03340(8) 0.37577(8) 0.17521(4)
S3_4 S 0.21651(8) 0.15451(8) 0.24471(4)
S4_4 S 0.12083(8) 0.10465(8) 0.20655(4)
S5_4 S 0.23224(8) 0.20376(8) 0.15944(4)
S6_4 S 0.19066(9) 0.32401(9) 0.14416(5)
S7_6 S 0.05738(8) 0.20134(8) 0.27940(4)
S8_6 S 0.01334(8) 0.32247(8) 0.26540(4)
S9_6 S 0.18855(9) 0.31729(9) 0.27777(4)
S10_4 S 0.27081(9) 0.32451(10) 0.22583(5)
S12_4 S 0.05595(8) 0.20590(9) 0.14264(4)
O1_6 O 0.1148(7) 0.6169(4) 0.2230(2)
O2_6 O 0.1996(6) 0.6070(5) 0.2248(3)
O5_6 O 0.3240(3) 0.0130(3) 0.29194(14)
O6_4 O 0.3125(3) 0.0812(3) 0.32270(13)
O9_4 O 0.3416(3) 0.0711(2) 0.10970(13)
O10_4 O 0.3865(3) 0.1494(3) 0.10441(17)
O11_4 O 0.2550(5) 0.3846(5) 0.0542(2)
O12_4 O 0.2508(3) 0.4589(3) 0.0777(2)
O14_6 O 0.0349(3) 0.0894(3) 0.36250(15)
O17_6 O 0.2233(4) 0.2968(3) 0.37615(14)
O18_6 O 0.2670(3) 0.3744(3) 0.36482(14)
O19_6 O 0.4539(3) 0.3709(6) 0.2567(2)
O20_4 O 0.4444(4) 0.4108(6) 0.2138(3)
O24_4 O 0.0308(3) 0.1212(4) 0.05239(17)
N1_6 N 0.0934(3) 0.5286(3) 0.19434(17)
N2_4 N 0.0055(3) 0.4876(3) 0.16503(15)
N3_6 N 0.2390(3) 0.0435(3) 0.25947(14)
N4_4 N 0.1707(3) 0.0008(3) 0.21856(15)
N5_4 N 0.2972(3) 0.2127(3) 0.10988(14)
N6_4 N 0.2657(3) 0.3169(3) 0.09837(19)
N9_6 N 0.2833(3) 0.3424(3) 0.31148(15)
N10_6 N 0.3462(3) 0.3676(3) 0.26635(15)
C1_6 C 0.1475(4) 0.5314(4) 0.2072(2)
H1_6 H 0.1757 0.5246 0.1929
C2_4 C 0.1522(4) 0.4888(4) 0.23084(19)
C3_4 C 0.2114(4) 0.4805(4) 0.2415(2)
H2_5 H 0.2240 0.5135 0.2504
H3_4 H 0.2349 0.4719 0.2258
H4_6 H 0.2122 0.4508 0.2548
C4_5 C 0.1156(4) 0.5016(4) 0.2555(2)
H5_5 H 0.1276 0.5350 0.2643
H6_6 H 0.1173 0.4721 0.2689
H7_6 H 0.0785 0.5059 0.2490
C5_6 C 0.1559(7) 0.5892(6) 0.2203(3)
H10_4 H 0.0130 0.3636 0.1155
H11_4 H 0.0266 0.4258 0.1201
C11_6 C 0.2557(3) 0.0819(3) 0.28062(17)
H15_6 H 0.2236 0.0898 0.2924
C12_6 C 0.2750(3) 0.1359(3) 0.26792(17)
C13_4 C 0.3258(3) 0.1283(4) 0.24937(19)
H16_6 H 0.3566 0.1187 0.2610
H17_4 H 0.3335 0.1619 0.2396
H18_4 H 0.3192 0.0996 0.2359
C14_6 C 0.2815(4) 0.1813(4) 0.28976(19)
H19_6 H 0.3116 0.1726 0.3021
H20_6 H 0.2484 0.1844 0.3006
H21_6 H 0.2887 0.2154 0.2803
C15_6 C 0.3020(3) 0.0564(4) 0.3008(2)
C16_4 C 0.1323(4) 0.0004(4) 0.1937(2)
H22_4 H 0.1530 0.0118 0.1770
C17_4 C 0.0859(4) 0.0392(3) 0.19753(19)
C18_4 C 0.0518(4) 0.0480(4) 0.17176(19)
H23_4 H 0.0332 0.0145 0.1670
H24_4 H 0.0749 0.0588 0.1563
H25_4 H 0.0252 0.0762 0.1753
C19_4 C 0.0507(4) 0.0243(4) 0.2228(2)
H27_4 H 0.0247 0.0531 0.2263
H28_4 H 0.0737 0.0197 0.2391
C21_4 C 0.2941(3) 0.1547(3) 0.11968(18)
H29_4 H 0.2618 0.1377 0.1109
C22_4 C 0.2865(3) 0.1532(4) 0.15141(18)
C23_4 C 0.2679(6) 0.0986(4) 0.1635(3)
H30_4 H 0.2952 0.0712 0.1597
H31_4 H 0.2338 0.0881 0.1549
H32_4 H 0.2628 0.1021 0.1835
C24_4 C 0.3389(4) 0.1702(6) 0.1664(2)
H33_4 H 0.3674 0.1440 0.1624
H34_4 H 0.3326 0.1714 0.1864
H35_4 H 0.3500 0.2058 0.1599
C25_4 C 0.3454(4) 0.1225(4) 0.1101(2)
C26_4 C 0.2486(3) 0.3750(4) 0.1043(2)
H36_4 H 0.2732 0.3913 0.1184
C27_4 C 0.1887(3) 0.3761(4) 0.11544(19)
C28_4 C 0.1707(5) 0.4296(4) 0.1278(3)
H37_4 H 0.1693 0.4569 0.1132
H38_4 H 0.1963 0.4408 0.1421
H39_4 H 0.1349 0.4254 0.1361
C29_4 C 0.1486(4) 0.3543(6) 0.0930(2)
H40_4 H 0.1460 0.3801 0.0777
H41_4 H 0.1130 0.3493 0.1013
H42_4 H 0.1617 0.3198 0.0858
C30_4 C 0.2505(4) 0.4091(5) 0.0765(3)
C31_6 C 0.0253(4) 0.1641(4) 0.33006(17)
H43_6 H 0.0548 0.1823 0.3406
C32_6 C 0.0486(3) 0.1410(3) 0.30293(17)
C33_6 C 0.1036(4) 0.1142(4) 0.3075(2)
H44_6 H 0.0994 0.0829 0.3196
H45_6 H 0.1283 0.1400 0.3161
H46_6 H 0.1183 0.1026 0.2896
C34_6 C 0.0087(4) 0.1010(4) 0.28805(19)
H47_6 H 0.0035 0.0691 0.2997
H48_6 H 0.0238 0.0902 0.2702
C38_6 C 0.0070(4) 0.4036(4) 0.3052(2)
H52_6 H 0.0418 0.4166 0.2984
H53_6 H 0.0129 0.3757 0.3192
C41_6 C 0.2383(3) 0.3168(4) 0.32789(16)
H57_6 H 0.2414 0.2770 0.3255
C42_6 C 0.1820(3) 0.3342(3) 0.31604(17)
C43_6 C 0.1722(4) 0.3967(4) 0.3193(2)
H58_6 H 0.1686 0.4056 0.3389
H59_6 H 0.1392 0.4068 0.3095
H60_6 H 0.2027 0.4164 0.3114
C44_6 C 0.1350(4) 0.3028(4) 0.32814(17)
H61_6 H 0.1314 0.3112 0.3479
H62_6 H 0.1415 0.2642 0.3259
H63_6 H 0.1018 0.3127 0.3184
C45_6 C 0.2453(4) 0.3293(4) 0.3593(2)
C46_4 C 0.3611(4) 0.3797(5) 0.2365(2)
H64_4 H 0.3439 0.4141 0.2305
C47_4 C 0.3436(4) 0.3335(7) 0.2169(2)
C48_4 C 0.3734(4) 0.2767(6) 0.2239(3)
H65_4 H 0.4117 0.2795 0.2194
H66_4 H 0.3571 0.2479 0.2129
H67_4 H 0.3692 0.2686 0.2437
C49_4 C 0.4265(6) 0.3859(8) 0.2358(4)
C50_4 C 0.3485(7) 0.3453(7) 0.1859(4)
H68_4 H 0.3865 0.3498 0.1810
H69_4 H 0.3288 0.3783 0.1815
H70_4 H 0.3334 0.3152 0.1753
C56_4 C 0.0128(3) 0.1495(4) 0.09913(18)
H78_4 H 0.0332 0.1167 0.1049
C57_4 C 0.0497(4) 0.1991(4) 0.10402(18)
C58_4 C 0.0241(4) 0.2494(5) 0.0924(2)
H79_4 H 0.0209 0.2460 0.0722
H80_4 H 0.0465 0.2806 0.0969
C59_4 C 0.1073(4) 0.1895(5) 0.0924(2)
H82_4 H 0.1055 0.1857 0.0722
H83_4 H 0.1222 0.1566 0.1004
H84_4 H 0.1303 0.2201 0.0971
H86_6 H 0.0102 0.3369 0.4605
La3_4 La 0.37847(2) 0.08148(2) 0.362764(11)
H88_6 H 0.0320203 0.0500708 0.357213
H90_4 H 0.29051 0.394308 0.0452025
H91_4 H 0.368327 0.0551054 0.12323
H92_4 H 0.472494 0.387721 0.204325
H94_4 H 0.0197294 0.497062 0.145469
H102_6 H 0.0666061 0.54755 0.207548
H103_6 H 0.0950299 0.549277 0.17574
H106_4 H 0.272878 0.0305161 0.248935
H107_6 H 0.220891 0.0110754 0.26918
H108_4 H 0.33598 0.226149 0.113526
H109_4 H 0.289715 0.212854 0.0887805
H110_6 H 0.297836 0.368789 0.37823
H114_4 H 0.247258 0.304879 0.0801618
H115_4 H 0.307041 0.316469 0.0957638
H118_6 H 0.286016 0.382447 0.317208
H119_6 H 0.318822 0.322885 0.316424
H120_6 H 0.373182 0.339613 0.27405
H121_6 H 0.349157 0.402857 0.277668
H128_6 H 0.116806 0.649041 0.210143
Ni4_6 Ni 0.99593(4) 0.25707(4) 0.29525(2)
Ni6_4 Ni 0.97307(4) 0.18444(4) 0.15471(2)
S11_4 S 0.98045(8) 0.21435(8) 0.19756(4)
O3_4 O 0.8681(3) 0.4558(3) 0.14161(18)
O13_6 O 0.9498(3) 0.1114(3) 0.34960(15)
O15_6 O 0.8915(3) 0.3815(3) 0.33878(13)
O16_6 O 0.8675(4) 0.4310(4) 0.30245(18)
O21_4 O 0.7986(2) 0.1371(3) 0.18429(14)
O22_4 O 0.7866(3) 0.2157(3) 0.20622(15)
O23_4 O 0.9485(3) 0.1595(4) 0.06093(15)
O25_6 O 0.9333(3) 0.4129(3) 0.43706(15)
O26_6 O 0.7853(3) 0.4508(5) 0.36945(18)
O27_5 O 0.8868(2) 0.5122(2) 0.41323(12)
O28_6 O 0.8151(3) 0.3334(4) 0.3800(2)
O29_6 O 0.8898(3) 0.4982(2) 0.35202(13)
N7_6 N 0.9812(3) 0.2042(3) 0.32435(14)
N8_6 N 0.9359(3) 0.3007(3) 0.30904(16)
N11_4 N 0.8966(3) 0.1724(3) 0.16133(13)
N12_4 N 0.9629(3) 0.1535(3) 0.11743(14)
C6_4 C 0.9577(3) 0.4511(3) 0.16188(18)
H8_4 H 0.9416 0.4457 0.1807
C7_4 C 0.9766(3) 0.3948(3) 0.15105(18)
C8_4 C 0.9983(4) 0.3985(4) 0.12104(17)
H9_4 H 0.9689 0.4084 0.1085
C9_4 C 0.9338(4) 0.3506(4) 0.1529(2)
H12_4 H 0.9038 0.3595 0.1406
H13_4 H 0.9208 0.3480 0.1720
H14_4 H 0.9496 0.3162 0.1473
C10_4 C 0.9135(4) 0.4781(4) 0.1428(2)
H49_6 H 0.9741 0.1189 0.2851
C35_6 C 0.9997(5) 0.1165(4) 0.34916(19)
C36_6 C 0.9214(3) 0.3514(3) 0.29301(17)
H50_6 H 0.8974 0.3416 0.2772
C37_6 C 0.9749(3) 0.3799(3) 0.28109(17)
H51_6 H 0.9869 0.4335 0.3134
C39_6 C 0.9612(4) 0.4193(4) 0.25778(19)
H54_6 H 0.9410 0.4497 0.2654
H55_4 H 0.9393 0.4009 0.2438
H56_4 H 0.9944 0.4323 0.2492
C40_6 C 0.8894(4) 0.3913(4) 0.3135(2)
C51_4 C 0.8745(3) 0.2007(3) 0.18707(16)
H71_4 H 0.8730 0.2401 0.1830
C52_4 C 0.9129(3) 0.1925(3) 0.21115(16)
C53_4 C 0.9161(3) 0.1322(3) 0.21898(17)
H72_4 H 0.8812 0.1202 0.2261
H73_4 H 0.9437 0.1271 0.2332
H74_4 H 0.9255 0.1111 0.2025
C54_4 C 0.8986(4) 0.2246(4) 0.23699(17)
H75_4 H 0.8635 0.2129 0.2439
H76_4 H 0.8971 0.2629 0.2324
H77_6 H 0.9259 0.2185 0.2512
C55_4 C 0.8143(4) 0.1806(5) 0.19295(19)
H81_4 H 0.9883 0.2541 0.1004
C60_4 C 0.9957(5) 0.1418(5) 0.0689(2)
O30_6 O 0.9137(5) 0.3316(5) 0.4145(2)
C61_6 C 0.9377(7) 0.3652(7) 0.4373(4)
C62_6 C 0.9714(8) 0.3338(8) 0.4636(4)
H85_6 H 0.9620 0.3507 0.4813
H87_6 H 0.9613 0.2957 0.4641
O32_4 O 0.8125(3) 0.4188(3) 0.42730(13)
H93_4 H 0.772595 0.199252 0.224012
H95_6 H 0.993067 0.52239 0.174934
H96_5 H 0.86137 0.539109 0.404465
H97_5 H 0.877147 0.507363 0.433464
H98_6 H 0.837922 0.300735 0.375611
H99_6 H 0.793784 0.326567 0.397534
H100_6 H 0.860206 0.496419 0.337624
H101_5 H 0.887519 0.533655 0.362296
H104_6 H 0.763483 0.41865 0.363125
H105_6 H 0.765548 0.46993 0.384936
H113_4 H 0.927449 0.129006 0.0521992
H116_6 H 0.947126 0.182933 0.318672
H117_6 H 0.973753 0.225025 0.342525
H122_4 H 0.890412 0.131446 0.163597
H123_4 H 0.875484 0.186146 0.14425
H124_6 H 0.945312 0.312257 0.329069
H125_6 H 0.902109 0.276354 0.309319
H126_4 H 0.935016 0.177101 0.107127
H127_4 H 0.947668 0.115025 0.119873
Ni4_7 Ni 0.74293(4) 0.00407(4) 0.20475(2)
Ni6_5 Ni 0.81556(4) 0.02693(4) 0.34529(2)
S11_5 S 0.78565(8) 0.01955(8) 0.30244(4)
O3_5 O 0.5442(3) 0.1319(3) 0.35839(18)
O4_4 O 0.4786(2) 0.0722(2) 0.36958(12)
O13_7 O 0.8886(3) 0.0502(3) 0.15040(15)
O15_7 O 0.6185(3) 0.1085(3) 0.16122(13)
O16_7 O 0.5690(4) 0.1325(4) 0.19755(18)
O21_5 O 0.8629(3) 0.2014(2) 0.31571(14)
O22_5 O 0.7843(3) 0.2134(3) 0.29378(15)
O23_5 O 0.8405(4) 0.0515(3) 0.43907(15)
O25_7 O 0.5871(3) 0.0667(3) 0.06294(15)
O26_7 O 0.5492(5) 0.2147(3) 0.13055(18)
O27_6 O 0.4878(2) 0.1132(2) 0.08677(12)
O28_7 O 0.6666(4) 0.1849(3) 0.1200(2)
O29_7 O 0.5018(2) 0.1102(3) 0.14798(13)
N7_7 N 0.7958(3) 0.0188(3) 0.17565(14)
N8_7 N 0.6993(3) 0.0641(3) 0.19096(16)
N11_5 N 0.8276(3) 0.1034(3) 0.33867(13)
N12_5 N 0.8465(3) 0.0371(3) 0.38257(14)
C6_5 C 0.5489(3) 0.0423(3) 0.33812(18)
H8_5 H 0.5543 0.0584 0.3193
C7_5 C 0.6052(3) 0.0234(3) 0.34895(18)
C8_5 C 0.6015(4) 0.0017(4) 0.37896(17)
H9_5 H 0.5916 0.0311 0.3915
C9_5 C 0.6494(4) 0.0662(4) 0.3471(2)
H12_5 H 0.6405 0.0962 0.3594
H13_5 H 0.6520 0.0792 0.3280
H14_5 H 0.6838 0.0504 0.3527
C10_5 C 0.5219(4) 0.0865(4) 0.3572(2)
H49_7 H 0.8811 0.0259 0.2149
C35_7 C 0.8835(4) 0.0003(5) 0.15084(19)
C36_7 C 0.6486(3) 0.0786(3) 0.20699(17)
H50_7 H 0.6584 0.1026 0.2228
C37_7 C 0.6201(3) 0.0251(3) 0.21891(17)
H51_7 H 0.5665 0.0131 0.1866
C39_7 C 0.5807(4) 0.0388(4) 0.24222(19)
H54_7 H 0.5503 0.0590 0.2346
H55_5 H 0.5991 0.0607 0.2562
H56_5 H 0.5677 0.0056 0.2508
C40_7 C 0.6087(4) 0.1106(4) 0.1865(2)
C51_5 C 0.7993(3) 0.1255(3) 0.31293(16)
H71_5 H 0.7599 0.1270 0.3170
C52_5 C 0.8075(3) 0.0871(3) 0.28885(16)
C53_5 C 0.8678(3) 0.0839(3) 0.28102(17)
H72_5 H 0.8798 0.1188 0.2739
H73_5 H 0.8729 0.0563 0.2668
H74_5 H 0.8889 0.0745 0.2975
C54_5 C 0.7754(4) 0.1014(4) 0.26301(17)
H75_5 H 0.7871 0.1365 0.2561
H76_5 H 0.7371 0.1029 0.2676
H77_7 H 0.7815 0.0741 0.2488
C55_5 C 0.8194(5) 0.1857(4) 0.30705(19)
H81_5 H 0.7459 0.0117 0.3996
C60_5 C 0.8582(5) 0.0043(5) 0.4311(2)
O30_7 O 0.6684(5) 0.0863(5) 0.0855(2)
C61_7 C 0.6348(7) 0.0623(7) 0.0627(4)
C62_7 C 0.6662(8) 0.0286(8) 0.0364(4)
H85_7 H 0.6493 0.0380 0.0187
H87_7 H 0.7043 0.0387 0.0359
O31_4 O 0.5722(2) 0.0214(2) 0.11958(12)
H93_5 H 0.800748 0.227405 0.275988
H95_7 H 0.47761 0.00693344 0.325066
H96_6 H 0.460891 0.13863 0.095535
H97_6 H 0.492637 0.122853 0.0665361
H98_7 H 0.699265 0.162078 0.124389
H99_7 H 0.673433 0.206216 0.102466
H100_7 H 0.503581 0.139794 0.162376
H101_6 H 0.466345 0.112481 0.137704
H104_7 H 0.58135 0.236517 0.136875
H105_7 H 0.53007 0.234452 0.115064
H113_5 H 0.870994 0.0725508 0.447801
H116_7 H 0.817067 0.0528738 0.181328
H117_7 H 0.774975 0.0262469 0.157475
H122_5 H 0.868554 0.109588 0.336403
H123_5 H 0.813854 0.124516 0.35575
H124_7 H 0.687743 0.0546885 0.170931
H125_7 H 0.723646 0.0978912 0.190681
H126_5 H 0.822899 0.0649839 0.392873
H127_5 H 0.884975 0.0523317 0.380127
Cl1_5 Cl 0.73546(8) 0.87579(8) 0.28914(4)
Ag1_5 Ag 0.62970(3) 0.79326(4) 0.308849(17)
Ag2_5 Ag 0.64749(3) 0.89255(3) 0.250128(15)
Ag3_5 Ag 0.68913(3) 0.99647(3) 0.287127(14)
Ag4_5 Ag 0.70192(3) 0.90715(3) 0.343547(15)
Ag5_5 Ag 0.76758(3) 0.76298(3) 0.289450(14)
Ag6_7 Ag 0.77796(3) 0.84416(3) 0.231336(14)
Ag7_5 Ag 0.82518(3) 0.94312(3) 0.272549(14)
Ag8_5 Ag 0.83970(3) 0.86030(3) 0.337320(18)
Ni1_5 Ni 0.54422(4) 0.93488(4) 0.31341(2)
Ni2_5 Ni 0.92624(4) 0.81226(4) 0.26773(2)
Ni3_5 Ni 0.73553(4) 0.75241(4) 0.37290(2)
Ni5_7 Ni 0.66095(5) 0.72645(4) 0.22924(2)
S1_5 S 0.57610(9) 0.87087(8) 0.28634(5)
S2_5 S 0.62423(8) 0.96660(8) 0.32479(4)
S3_5 S 0.84549(8) 0.78349(8) 0.25529(4)
S4_5 S 0.89535(8) 0.87917(8) 0.29345(4)
S5_5 S 0.79624(8) 0.76776(8) 0.34056(4)
S6_5 S 0.67599(9) 0.80934(9) 0.35584(5)
S7_7 S 0.79866(8) 0.94262(8) 0.22060(4)
S8_7 S 0.67753(8) 0.98666(8) 0.23460(4)
S9_7 S 0.68271(9) 0.81145(9) 0.22223(4)
S10_5 S 0.67549(10) 0.72919(9) 0.27417(5)
S12_5 S 0.79410(9) 0.94405(8) 0.35736(4)
O1_7 O 0.3831(4) 0.8852(7) 0.2770(2)
O2_7 O 0.3930(5) 0.8004(6) 0.2752(3)
O5_7 O 0.9870(3) 0.6760(3) 0.20806(14)
O9_5 O 0.9289(2) 0.6584(3) 0.39030(13)
O10_5 O 0.8506(3) 0.6135(3) 0.39559(17)
O11_5 O 0.6154(5) 0.7450(5) 0.4458(2)
O12_5 O 0.5411(3) 0.7492(3) 0.4223(2)
O14_7 O 0.9106(3) 0.9651(3) 0.13750(15)
O17_7 O 0.7032(3) 0.7767(4) 0.12385(14)
O18_7 O 0.6256(3) 0.7330(3) 0.13518(14)
O19_7 O 0.6291(6) 0.5461(3) 0.2433(2)
O20_5 O 0.5892(6) 0.5556(4) 0.2862(3)
O24_5 O 0.8788(4) 0.9692(3) 0.44761(17)
N1_7 N 0.4714(3) 0.9066(3) 0.30566(17)
N2_5 N 0.5124(3) 0.9945(3) 0.33497(15)
N3_7 N 0.9565(3) 0.7610(3) 0.24053(14)
N4_5 N 0.9992(3) 0.8293(3) 0.28144(15)
N5_5 N 0.7873(3) 0.7028(3) 0.39012(14)
N6_5 N 0.6831(3) 0.7343(3) 0.40163(19)
N9_7 N 0.6576(3) 0.7167(3) 0.18852(15)
N10_7 N 0.6324(3) 0.6538(3) 0.23365(15)
C1_7 C 0.4686(4) 0.8525(4) 0.2928(2)
H1_7 H 0.4754 0.8243 0.3071
C2_5 C 0.5112(4) 0.8478(4) 0.26916(19)
C3_5 C 0.5195(4) 0.7886(4) 0.2585(2)
H2_6 H 0.4865 0.7760 0.2496
H3_5 H 0.5281 0.7651 0.2742
H4_7 H 0.5492 0.7878 0.2452
C4_6 C 0.4984(4) 0.8844(4) 0.2445(2)
H5_6 H 0.4650 0.8724 0.2357
H6_7 H 0.5279 0.8827 0.2311
H7_7 H 0.4941 0.9215 0.2510
C5_7 C 0.4108(6) 0.8441(7) 0.2797(3)
H10_5 H 0.6364 0.9870 0.3845
H11_5 H 0.5742 0.9734 0.3799
C11_7 C 0.9181(3) 0.7443(3) 0.21938(17)
H15_7 H 0.9102 0.7764 0.2076
C12_7 C 0.8641(3) 0.7250(3) 0.23208(17)
C13_5 C 0.8717(4) 0.6742(3) 0.25063(19)
H16_7 H 0.8813 0.6434 0.2390
H17_5 H 0.8381 0.6665 0.2604
H18_5 H 0.9004 0.6808 0.2641
C14_7 C 0.8187(4) 0.7185(4) 0.21024(19)
H19_7 H 0.8274 0.6884 0.1979
H20_7 H 0.8156 0.7516 0.1994
H21_7 H 0.7846 0.7113 0.2197
C15_7 C 0.9436(4) 0.6980(3) 0.1992(2)
C16_5 C 0.9996(4) 0.8677(4) 0.3063(2)
H22_5 H 0.9882 0.8470 0.3230
C17_5 C 0.9608(3) 0.9141(4) 0.30247(19)
C18_5 C 0.9520(4) 0.9482(4) 0.32824(19)
H23_5 H 0.9855 0.9668 0.3330
H24_5 H 0.9412 0.9251 0.3437
H25_5 H 0.9238 0.9748 0.3247
C19_5 C 0.9757(4) 0.9493(4) 0.2772(2)
H27_5 H 0.9469 0.9753 0.2737
H28_5 H 0.9803 0.9263 0.2609
C21_5 C 0.8453(3) 0.7059(3) 0.38032(18)
H29_5 H 0.8623 0.7382 0.3891
C22_5 C 0.8468(4) 0.7135(3) 0.34859(18)
C23_5 C 0.9014(4) 0.7321(6) 0.3365(3)
H30_5 H 0.9288 0.7048 0.3403
H31_5 H 0.9119 0.7662 0.3451
H32_5 H 0.8979 0.7372 0.3165
C24_5 C 0.8298(6) 0.6611(4) 0.3336(2)
H33_5 H 0.8560 0.6326 0.3376
H34_5 H 0.8286 0.6674 0.3136
H35_5 H 0.7942 0.6500 0.3401
C25_5 C 0.8775(4) 0.6546(4) 0.3899(2)
C26_5 C 0.6250(4) 0.7514(3) 0.3957(2)
H36_5 H 0.6087 0.7268 0.3816
C27_5 C 0.6239(4) 0.8113(3) 0.38456(19)
C28_5 C 0.5704(4) 0.8293(5) 0.3722(3)
H37_5 H 0.5431 0.8307 0.3868
H38_5 H 0.5592 0.8037 0.3579
H39_5 H 0.5746 0.8651 0.3639
C29_5 C 0.6457(6) 0.8514(4) 0.4070(2)
H40_5 H 0.6199 0.8540 0.4223
H41_5 H 0.6507 0.8870 0.3987
H42_5 H 0.6802 0.8383 0.4142
C30_5 C 0.5909(5) 0.7495(4) 0.4235(3)
C31_7 C 0.8359(4) 0.9747(4) 0.16994(17)
H43_7 H 0.8177 0.9452 0.1594
C32_7 C 0.8590(3) 0.9514(3) 0.19707(17)
C33_7 C 0.8858(4) 0.8964(4) 0.1925(2)
H44_7 H 0.9171 0.9006 0.1804
H45_7 H 0.8600 0.8717 0.1839
H46_7 H 0.8974 0.8817 0.2104
C34_7 C 0.8990(4) 0.9913(4) 0.21195(19)
H47_7 H 0.9309 0.9965 0.2003
H48_7 H 0.9098 0.9762 0.2298
C38_7 C 0.5964(4) 0.9930(4) 0.1948(2)
H52_7 H 0.5834 0.9582 0.2016
H53_7 H 0.6243 0.9871 0.1808
C41_7 C 0.6832(4) 0.7617(3) 0.17211(16)
H57_7 H 0.7230 0.7586 0.1745
C42_7 C 0.6658(3) 0.8180(3) 0.18396(17)
C43_7 C 0.6033(4) 0.8278(4) 0.1807(2)
H58_7 H 0.5944 0.8314 0.1611
H59_7 H 0.5932 0.8608 0.1905
H60_7 H 0.5836 0.7973 0.1886
C44_7 C 0.6972(4) 0.8650(4) 0.17186(17)
H61_7 H 0.6888 0.8686 0.1521
H62_7 H 0.7358 0.8585 0.1741
H63_7 H 0.6873 0.8982 0.1816
C45_7 C 0.6707(4) 0.7547(4) 0.1407(2)
C46_5 C 0.6203(5) 0.6389(4) 0.2635(2)
H64_5 H 0.5859 0.6561 0.2695
C47_5 C 0.6665(7) 0.6564(4) 0.2831(2)
C48_5 C 0.7233(6) 0.6266(4) 0.2761(3)
H65_5 H 0.7205 0.5883 0.2806
H66_5 H 0.7521 0.6429 0.2871
H67_5 H 0.7314 0.6308 0.2563
C49_5 C 0.6141(8) 0.5735(6) 0.2642(4)
C50_5 C 0.6547(7) 0.6515(7) 0.3141(4)
H68_5 H 0.6502 0.6135 0.3190
H69_5 H 0.6217 0.6712 0.3185
H70_5 H 0.6848 0.6666 0.3247
C56_5 C 0.8505(4) 0.9872(3) 0.40087(18)
H78_5 H 0.8833 0.9668 0.3951
C57_5 C 0.8009(4) 0.9503(4) 0.39598(18)
C58_5 C 0.7506(5) 0.9759(4) 0.4076(2)
H79_5 H 0.7540 0.9791 0.4278
H80_5 H 0.7194 0.9535 0.4031
C59_5 C 0.8105(5) 0.8927(4) 0.4076(2)
H82_5 H 0.8143 0.8945 0.4278
H83_5 H 0.8434 0.8778 0.3996
H84_5 H 0.7799 0.8697 0.4029
H86_7 H 0.6631 0.9898 0.0395
H88_7 H 0.949929 0.96798 0.142787
H90_5 H 0.605692 0.70949 0.454797
H91_5 H 0.944895 0.631673 0.37677
H92_5 H 0.612279 0.527506 0.295675
H94_5 H 0.502938 0.980271 0.354531
H102_7 H 0.45245 0.933394 0.292452
H103_7 H 0.450723 0.90497 0.32426
H106_5 H 0.969484 0.727122 0.251065
H107_7 H 0.988925 0.779109 0.23082
H108_5 H 0.773851 0.66402 0.386474
H109_5 H 0.787146 0.710285 0.41122
H110_7 H 0.631211 0.702164 0.12177
H114_5 H 0.695121 0.752742 0.419838
H115_5 H 0.683531 0.692959 0.404236
H118_7 H 0.617553 0.713984 0.182792
H119_7 H 0.677115 0.681178 0.183576
H120_7 H 0.660387 0.626818 0.22595
H121_7 H 0.597143 0.650843 0.222332
H128_7 H 0.350959 0.883194 0.289857
Cl1_6 Cl 0.62421(8) 0.23546(8) 0.53914(4)
Ag1_6 Ag 0.70674(4) 0.12970(3) 0.558849(17)
Ag2_6 Ag 0.60745(3) 0.14749(3) 0.500128(15)
Ag3_6 Ag 0.50353(3) 0.18913(3) 0.537127(14)
Ag4_6 Ag 0.59285(3) 0.20192(3) 0.593547(15)
Ag5_6 Ag 0.73702(3) 0.26758(3) 0.539450(14)
Ag6_8 Ag 0.65584(3) 0.27796(3) 0.481336(14)
Ag7_6 Ag 0.55688(3) 0.32518(3) 0.522549(14)
Ag8_6 Ag 0.63970(3) 0.33970(3) 0.587320(18)
Ni1_6 Ni 0.56512(4) 0.04422(4) 0.56341(2)
Ni2_6 Ni 0.68774(4) 0.42624(4) 0.51773(2)
Ni3_6 Ni 0.74759(4) 0.23553(4) 0.62290(2)
Ni4_8 Ni 0.49593(4) 0.24293(4) 0.45475(2)
Ni5_8 Ni 0.77355(4) 0.16095(5) 0.47924(2)
Ni6_6 Ni 0.47307(4) 0.31556(4) 0.59529(2)
S1_6 S 0.62913(8) 0.07610(9) 0.53634(5)
S2_6 S 0.53340(8) 0.12423(8) 0.57479(4)
S3_6 S 0.71651(8) 0.34549(8) 0.50529(4)
S4_6 S 0.62083(8) 0.39535(8) 0.54345(4)
S5_6 S 0.73224(8) 0.29624(8) 0.59056(4)
S6_6 S 0.69066(9) 0.17599(9) 0.60584(5)
S7_8 S 0.55738(8) 0.29866(8) 0.47060(4)
S8_8 S 0.51334(8) 0.17753(8) 0.48460(4)
S9_8 S 0.68855(9) 0.18271(9) 0.47223(4)
S10_6 S 0.77081(9) 0.17549(10) 0.52417(5)
S11_6 S 0.48045(8) 0.28565(8) 0.55244(4)
S12_6 S 0.55595(8) 0.29410(9) 0.60736(4)
O3_6 O 0.3681(3) 0.0442(3) 0.60839(18)
O5_8 O 0.8240(3) 0.4870(3) 0.45806(14)
O7_2 O 0.6094(4) 0.5891(3) 0.5385(2)
O8_2 O 0.6005(4) 0.5714(4) 0.5870(3)
O9_6 O 0.8416(3) 0.4289(2) 0.64030(13)
O10_6 O 0.8865(3) 0.3506(3) 0.64559(17)
O11_6 O 0.7550(5) 0.1154(5) 0.6958(2)
O12_6 O 0.7508(3) 0.0411(3) 0.6723(2)
O13_8 O 0.4498(3) 0.3886(3) 0.40040(15)
O14_8 O 0.5349(3) 0.4106(3) 0.38750(15)
O15_8 O 0.3915(3) 0.1185(3) 0.41122(13)
O16_8 O 0.3675(4) 0.0690(4) 0.44755(18)
O17_8 O 0.7233(4) 0.2032(3) 0.37385(14)
O18_8 O 0.7670(3) 0.1256(3) 0.38518(14)
O19_8 O 0.9539(3) 0.1291(6) 0.4933(2)
O20_6 O 0.9444(4) 0.0892(6) 0.5362(3)
O21_6 O 0.2986(2) 0.3629(3) 0.56571(14)
O22_6 O 0.2866(3) 0.2843(3) 0.54378(15)
O23_6 O 0.4485(3) 0.3405(4) 0.68907(15)
O24_6 O 0.5308(3) 0.3788(4) 0.69761(17)
O25_8 O 0.4333(3) 0.0871(3) 0.31294(15)
O26_8 O 0.2853(3) 0.0492(5) 0.38055(18)
O28_8 O 0.3151(3) 0.1666(4) 0.3700(2)
O29_8 O 0.3898(3) 0.0018(2) 0.39798(13)
N2_6 N 0.5055(3) 0.0124(3) 0.58497(15)
N3_8 N 0.7390(3) 0.4565(3) 0.49053(14)
N4_6 N 0.6707(3) 0.4992(3) 0.53144(15)
N5_6 N 0.7972(3) 0.2873(3) 0.64012(14)
N6_6 N 0.7657(3) 0.1831(3) 0.65163(19)
N7_8 N 0.4812(3) 0.2958(3) 0.42565(14)
N8_8 N 0.4359(3) 0.1993(3) 0.44096(16)
N9_8 N 0.7833(3) 0.1576(3) 0.43852(15)
N10_8 N 0.8462(3) 0.1324(3) 0.48365(15)
N11_6 N 0.3966(3) 0.3276(3) 0.58867(13)
N12_6 N 0.4629(3) 0.3465(3) 0.63257(14)
C2_6 C 0.6522(4) 0.0112(4) 0.51916(19)
C3_6 C 0.7114(4) 0.0195(4) 0.5085(2)
H3_6 H 0.7349 0.0281 0.5242
H4_8 H 0.7122 0.0492 0.4952
H6_8 H 0.6173 0.0279 0.4811
C6_6 C 0.4577(3) 0.0489(3) 0.58812(18)
H8_6 H 0.4416 0.0543 0.5693
C7_6 C 0.4766(3) 0.1052(3) 0.59895(18)
C8_6 C 0.4983(4) 0.1015(4) 0.62896(17)
H9_6 H 0.4689 0.0916 0.6415
H10_6 H 0.5130 0.1364 0.6345
H11_6 H 0.5266 0.0742 0.6299
C9_6 C 0.4338(4) 0.1494(4) 0.5971(2)
H12_6 H 0.4038 0.1405 0.6094
H13_6 H 0.4208 0.1520 0.5780
H14_6 H 0.4496 0.1838 0.6027
C10_6 C 0.4135(4) 0.0219(4) 0.6072(2)
C11_8 C 0.7557(3) 0.4181(3) 0.46938(17)
H15_8 H 0.7236 0.4102 0.4576
C12_8 C 0.7750(3) 0.3641(3) 0.48208(17)
C13_6 C 0.8258(3) 0.3717(4) 0.50063(19)
H16_8 H 0.8566 0.3813 0.4890
H17_6 H 0.8335 0.3381 0.5104
H18_6 H 0.8192 0.4004 0.5141
C14_8 C 0.7815(4) 0.3187(4) 0.46024(19)
H19_8 H 0.8116 0.3274 0.4479
H20_8 H 0.7484 0.3156 0.4494
H21_8 H 0.7887 0.2846 0.4697
C15_8 C 0.8020(3) 0.4436(4) 0.4492(2)
C16_6 C 0.6323(4) 0.4996(4) 0.5563(2)
H22_6 H 0.6530 0.4882 0.5730
C17_6 C 0.5859(4) 0.4608(3) 0.55247(19)
C18_6 C 0.5518(4) 0.4520(4) 0.57824(19)
H23_6 H 0.5332 0.4855 0.5830
H24_6 H 0.5749 0.4412 0.5937
H25_6 H 0.5252 0.4238 0.5747
C19_6 C 0.5507(4) 0.4757(4) 0.5272(2)
H26_2 H 0.5316 0.5093 0.5309
H27_6 H 0.5247 0.4469 0.5237
H28_6 H 0.5737 0.4803 0.5109
C20_2 C 0.6136(6) 0.5603(7) 0.5608(4)
C21_6 C 0.7941(3) 0.3453(3) 0.63032(18)
H29_6 H 0.7618 0.3623 0.6391
C22_6 C 0.7865(3) 0.3468(4) 0.59859(18)
C23_6 C 0.7679(6) 0.4014(4) 0.5865(3)
H30_6 H 0.7952 0.4288 0.5903
H31_6 H 0.7338 0.4119 0.5951
H32_6 H 0.7628 0.3979 0.5665
C24_6 C 0.8389(4) 0.3298(6) 0.5836(2)
H33_6 H 0.8674 0.3560 0.5876
H34_6 H 0.8326 0.3286 0.5636
H35_6 H 0.8500 0.2942 0.5901
C25_6 C 0.8454(4) 0.3775(4) 0.6399(2)
C26_6 C 0.7486(3) 0.1250(4) 0.6457(2)
H36_6 H 0.7732 0.1087 0.6316
C27_6 C 0.6887(3) 0.1239(4) 0.63456(19)
C28_6 C 0.6707(5) 0.0704(4) 0.6222(3)
H37_6 H 0.6693 0.0431 0.6368
H38_6 H 0.6963 0.0592 0.6079
H39_6 H 0.6349 0.0746 0.6139
C29_6 C 0.6486(4) 0.1457(6) 0.6570(2)
H40_6 H 0.6460 0.1199 0.6723
H41_6 H 0.6130 0.1507 0.6487
H42_6 H 0.6617 0.1802 0.6642
C30_6 C 0.7505(4) 0.0909(5) 0.6735(3)
C31_8 C 0.5253(4) 0.3359(4) 0.41994(17)
H43_8 H 0.5548 0.3177 0.4094
C32_8 C 0.5486(3) 0.3590(3) 0.44707(17)
C33_8 C 0.6036(4) 0.3858(4) 0.4425(2)
H44_8 H 0.5994 0.4171 0.4304
H45_8 H 0.6283 0.3600 0.4339
H46_8 H 0.6183 0.3974 0.4604
C34_8 C 0.5087(4) 0.3990(4) 0.46195(19)
H47_8 H 0.5035 0.4309 0.4503
H48_8 H 0.5238 0.4098 0.4798
H49_8 H 0.4741 0.3811 0.4649
C35_8 C 0.4997(5) 0.3835(4) 0.40084(19)
C36_8 C 0.4214(3) 0.1486(3) 0.45699(17)
H50_8 H 0.3974 0.1584 0.4728
C37_8 C 0.4749(3) 0.1201(3) 0.46891(17)
C38_8 C 0.5070(4) 0.0964(4) 0.4448(2)
H51_8 H 0.4869 0.0665 0.4366
H52_8 H 0.5418 0.0834 0.4516
H53_8 H 0.5129 0.1243 0.4308
C39_8 C 0.4612(4) 0.0807(4) 0.49222(19)
H54_8 H 0.4410 0.0503 0.4846
H55_6 H 0.4393 0.0991 0.5062
H56_6 H 0.4944 0.0677 0.5008
C40_8 C 0.3894(4) 0.1087(4) 0.4365(2)
C41_8 C 0.7383(3) 0.1832(4) 0.42211(16)
H57_8 H 0.7414 0.2230 0.4245
C42_8 C 0.6820(3) 0.1658(3) 0.43396(17)
C43_8 C 0.6722(4) 0.1033(4) 0.4307(2)
H58_8 H 0.6686 0.0944 0.4111
H59_8 H 0.6392 0.0932 0.4405
H60_8 H 0.7027 0.0836 0.4386
C44_8 C 0.6350(4) 0.1972(4) 0.42186(17)
H61_8 H 0.6314 0.1888 0.4021
H62_8 H 0.6415 0.2358 0.4241
H63_8 H 0.6018 0.1873 0.4316
C45_8 C 0.7453(4) 0.1707(4) 0.3907(2)
C46_6 C 0.8611(4) 0.1203(5) 0.5135(2)
H64_6 H 0.8439 0.0859 0.5195
C47_6 C 0.8436(4) 0.1665(7) 0.5331(2)
C48_6 C 0.8734(4) 0.2233(6) 0.5261(3)
H65_6 H 0.9117 0.2205 0.5306
H66_6 H 0.8571 0.2521 0.5371
H67_6 H 0.8692 0.2314 0.5063
C49_6 C 0.9265(6) 0.1141(8) 0.5142(4)
C50_6 C 0.8485(7) 0.1547(7) 0.5641(4)
H68_6 H 0.8865 0.1502 0.5690
H69_6 H 0.8288 0.1217 0.5685
H70_6 H 0.8334 0.1848 0.5747
C51_6 C 0.3745(3) 0.2993(3) 0.56293(16)
H71_6 H 0.3730 0.2599 0.5670
C52_6 C 0.4129(3) 0.3075(3) 0.53885(16)
C53_6 C 0.4161(3) 0.3678(3) 0.53102(17)
H72_6 H 0.3812 0.3798 0.5239
H73_6 H 0.4437 0.3729 0.5168
H74_6 H 0.4255 0.3889 0.5475
C54_6 C 0.3986(4) 0.2754(4) 0.51301(17)
H75_6 H 0.3635 0.2871 0.5061
H76_6 H 0.3971 0.2371 0.5176
H77_8 H 0.4259 0.2815 0.4988
C55_6 C 0.3143(4) 0.3194(5) 0.55705(19)
C56_6 C 0.5128(3) 0.3505(4) 0.65087(18)
H78_6 H 0.5332 0.3833 0.6451
C57_6 C 0.5497(4) 0.3009(4) 0.64598(18)
C58_6 C 0.5241(4) 0.2506(5) 0.6576(2)
H79_6 H 0.5209 0.2540 0.6778
H80_6 H 0.5465 0.2194 0.6531
H81_6 H 0.4883 0.2459 0.6496
C59_6 C 0.6073(4) 0.3105(5) 0.6576(2)
H82_6 H 0.6055 0.3143 0.6778
H83_6 H 0.6222 0.3434 0.6496
H84_6 H 0.6303 0.2799 0.6529
C60_6 C 0.4957(5) 0.3582(5) 0.6811(2)
O30_8 O 0.4137(5) 0.1684(5) 0.3355(2)
C61_8 C 0.4377(7) 0.1348(7) 0.3127(4)
C62_8 C 0.4714(8) 0.1662(8) 0.2864(4)
H85_8 H 0.4620 0.1493 0.2687
H86_8 H 0.5102 0.1631 0.2895
H87_8 H 0.4613 0.2043 0.2859
H88_8 H 0.53202 0.449929 0.392787
H89_2 H 0.560608 0.579382 0.588196
H90_6 H 0.79051 0.105692 0.704797
H91_6 H 0.868327 0.444895 0.62677
H92_6 H 0.972494 0.112279 0.545675
H93_6 H 0.272595 0.300748 0.525988
H94_6 H 0.519729 0.00293781 0.604531
H98_8 H 0.337922 0.199265 0.374389
H99_8 H 0.293784 0.173433 0.352466
H100_8 H 0.360206 0.00358127 0.412376
H104_8 H 0.263483 0.0813502 0.386875
H105_8 H 0.265548 0.0300695 0.365064
H106_6 H 0.772878 0.469484 0.501065
H107_8 H 0.720891 0.488925 0.48082
H108_6 H 0.83598 0.273851 0.636474
H109_6 H 0.789715 0.287146 0.66122
H110_8 H 0.797836 0.131211 0.37177
H111_2 H 0.653088 0.520736 0.515477
H112_2 H 0.706254 0.517712 0.537267
H113_6 H 0.427449 0.370994 0.697801
H114_6 H 0.747258 0.195121 0.669838
H115_6 H 0.807041 0.183531 0.654236
H116_8 H 0.447126 0.317067 0.431328
H117_8 H 0.473753 0.274975 0.407475
H118_8 H 0.786016 0.117553 0.432792
H119_8 H 0.818822 0.177115 0.433576
H120_8 H 0.873182 0.160387 0.47595
H121_8 H 0.849157 0.0971431 0.472332
H122_6 H 0.390412 0.368554 0.586403
H123_6 H 0.375484 0.313854 0.60575
H124_8 H 0.445312 0.187743 0.420931
H125_8 H 0.402109 0.223646 0.440681
H126_6 H 0.435016 0.322899 0.642873
H127_6 H 0.447668 0.384975 0.630127
O1_8 O 0.3852(7) 0.1169(4) 0.0270(2)
O2_8 O 0.3004(6) 0.1070(5) 0.0252(3)
N1_8 N 0.4066(3) 0.0286(3) 0.05566(17)
C1_8 C 0.3525(4) 0.0314(4) 0.0428(2)
H1_8 H 0.3243 0.0246 0.0571
H7_8 H 0.4215 0.0059 0.0010
C5_8 C 0.3441(7) 0.0892(6) 0.0297(3)
H95_8 H 0.506933 0.0223904 0.0750659
H102_8 H 0.433394 0.0475497 0.042452
H103_8 H 0.40497 0.0492771 0.0742603
H128_8 H 0.383194 0.149041 0.0398574
O27_7 O 0.0122(2) 0.6132(2) 0.16323(12)
H2_7 H 0.0135 0.2760 0.0004
C4_7 C 0.0016(4) 0.3844(4) 0.0055(2)
H5_7 H 0.0350 0.3724 0.0143
H96_7 H 0.0391093 0.63863 0.154465
H97_7 H 0.00736268 0.622853 0.183464
H101_7 H 0.0336551 0.612481 0.112296
Cl1_7 Cl 0.76454(8) 0.37579(8) 0.96086(4)
Ag1_7 Ag 0.87030(3) 0.29326(4) 0.941151(17)
Ag2_7 Ag 0.85251(3) 0.39255(3) 0.999872(15)
Ag3_7 Ag 0.81087(3) 0.49647(3) 0.962873(14)
Ag4_7 Ag 0.79808(3) 0.40715(3) 0.906453(15)
Ag5_7 Ag 0.73242(3) 0.26298(3) 0.960550(14)
Ag7_7 Ag 0.67482(3) 0.44312(3) 0.977451(14)
Ag8_7 Ag 0.66030(3) 0.36030(3) 0.912680(18)
Ni1_7 Ni 0.95578(4) 0.43488(4) 0.93659(2)
Ni2_7 Ni 0.57376(4) 0.31226(4) 0.98227(2)
Ni3_7 Ni 0.76447(4) 0.25241(4) 0.87710(2)
Ni6_7 Ni 0.68444(4) 0.52693(4) 0.90471(2)
S1_7 S 0.92390(9) 0.37087(8) 0.96366(5)
S2_7 S 0.87577(8) 0.46660(8) 0.92521(4)
S3_7 S 0.65451(8) 0.28349(8) 0.99471(4)
S4_7 S 0.60465(8) 0.37917(8) 0.95655(4)
S5_7 S 0.70376(8) 0.26776(8) 0.90944(4)
S6_7 S 0.82401(9) 0.30934(9) 0.89416(5)
S10_7 S 0.82451(10) 0.22919(9) 0.97583(5)
S11_7 S 0.71435(8) 0.51955(8) 0.94756(4)
S12_7 S 0.70590(9) 0.44405(8) 0.89264(4)
O3_7 O 0.9558(3) 0.6319(3) 0.89161(18)
O7_3 O 0.4109(3) 0.3906(4) 0.9615(2)
O8_3 O 0.4286(4) 0.3995(4) 0.9130(3)
O9_7 O 0.5711(2) 0.1584(3) 0.85970(13)
O10_7 O 0.6494(3) 0.1135(3) 0.85441(17)
O11_7 O 0.8846(5) 0.2450(5) 0.8042(2)
O12_7 O 0.9589(3) 0.2492(3) 0.8277(2)
O20_7 O 0.9108(6) 0.0556(4) 0.9638(3)
O21_7 O 0.6371(3) 0.7014(2) 0.93429(14)
O22_7 O 0.7157(3) 0.7134(3) 0.95622(15)
O23_7 O 0.6595(4) 0.5515(3) 0.81093(15)
O24_7 O 0.6212(4) 0.4692(3) 0.80239(17)
N2_7 N 0.9876(3) 0.4945(3) 0.91503(15)
N4_7 N 0.5008(3) 0.3293(3) 0.96856(15)
N5_7 N 0.7127(3) 0.2028(3) 0.85988(14)
N6_7 N 0.8169(3) 0.2343(3) 0.84837(19)
N11_7 N 0.6724(3) 0.6034(3) 0.91133(13)
N12_7 N 0.6535(3) 0.5371(3) 0.86743(14)
C2_7 C 0.9888(4) 0.3478(4) 0.98084(19)
C3_7 C 0.9805(4) 0.2886(4) 0.9915(2)
H3_7 H 0.9719 0.2651 0.9758
C6_7 C 0.9511(3) 0.5423(3) 0.91188(18)
H8_7 H 0.9457 0.5584 0.9307
C7_7 C 0.8948(3) 0.5234(3) 0.90105(18)
C8_7 C 0.8985(4) 0.5017(4) 0.87104(17)
H9_7 H 0.9084 0.5311 0.8585
H10_7 H 0.8636 0.4870 0.8655
H11_7 H 0.9258 0.4734 0.8701
C9_7 C 0.8506(4) 0.5662(4) 0.9029(2)
H12_7 H 0.8595 0.5962 0.8906
H13_7 H 0.8480 0.5792 0.9220
H14_7 H 0.8162 0.5504 0.8973
C10_7 C 0.9781(4) 0.5865(4) 0.8928(2)
C13_7 C 0.6283(4) 0.1742(3) 0.99937(19)
H17_7 H 0.6619 0.1665 0.9896
H18_7 H 0.5996 0.1808 0.9859
C16_7 C 0.5004(4) 0.3677(4) 0.9437(2)
H22_7 H 0.5118 0.3470 0.9270
C17_7 C 0.5392(3) 0.4141(4) 0.94753(19)
C18_7 C 0.5480(4) 0.4482(4) 0.92176(19)
H23_7 H 0.5145 0.4668 0.9170
H24_7 H 0.5588 0.4251 0.9063
H25_7 H 0.5762 0.4748 0.9253
C19_7 C 0.5243(4) 0.4493(4) 0.9728(2)
H26_3 H 0.4907 0.4684 0.9691
H27_7 H 0.5531 0.4753 0.9763
H28_7 H 0.5197 0.4263 0.9891
C20_3 C 0.4397(7) 0.3864(6) 0.9392(4)
C21_7 C 0.6547(3) 0.2059(3) 0.86968(18)
H29_7 H 0.6377 0.2382 0.8609
C22_7 C 0.6532(4) 0.2135(3) 0.90141(18)
C23_7 C 0.5986(4) 0.2321(6) 0.9135(3)
H30_7 H 0.5712 0.2048 0.9097
H31_7 H 0.5881 0.2662 0.9049
H32_7 H 0.6021 0.2372 0.9335
C24_7 C 0.6702(6) 0.1611(4) 0.9164(2)
H33_7 H 0.6440 0.1326 0.9124
H34_7 H 0.6714 0.1674 0.9364
H35_7 H 0.7058 0.1500 0.9099
C25_7 C 0.6225(4) 0.1546(4) 0.8601(2)
C26_7 C 0.8750(4) 0.2514(3) 0.8543(2)
H36_7 H 0.8913 0.2268 0.8684
C27_7 C 0.8761(4) 0.3113(3) 0.86544(19)
C28_7 C 0.9296(4) 0.3293(5) 0.8778(3)
H37_7 H 0.9569 0.3307 0.8632
H38_7 H 0.9408 0.3037 0.8921
H39_7 H 0.9254 0.3651 0.8861
C29_7 C 0.8543(6) 0.3514(4) 0.8430(2)
H40_7 H 0.8801 0.3540 0.8277
H41_7 H 0.8493 0.3870 0.8513
H42_7 H 0.8198 0.3383 0.8358
C30_7 C 0.9091(5) 0.2495(4) 0.8265(3)
H55_7 H 0.9009 0.5607 0.9938
H56_7 H 0.9323 0.5056 0.9992
C46_7 C 0.8797(5) 0.1389(4) 0.9865(2)
H64_7 H 0.9141 0.1561 0.9805
C47_7 C 0.8335(7) 0.1564(4) 0.9669(2)
C48_7 C 0.7767(6) 0.1266(4) 0.9739(3)
H65_7 H 0.7795 0.0883 0.9694
H66_7 H 0.7479 0.1429 0.9629
H67_7 H 0.7686 0.1308 0.9937
C49_7 C 0.8859(8) 0.0735(6) 0.9858(4)
C50_7 C 0.8453(7) 0.1515(7) 0.9359(4)
H68_7 H 0.8498 0.1135 0.9310
H69_7 H 0.8783 0.1712 0.9315
H70_7 H 0.8152 0.1666 0.9253
C51_7 C 0.7007(3) 0.6255(3) 0.93707(16)
H71_7 H 0.7401 0.6270 0.9330
C52_7 C 0.6925(3) 0.5871(3) 0.96115(16)
C53_7 C 0.6322(3) 0.5839(3) 0.96898(17)
H72_7 H 0.6202 0.6188 0.9761
H73_7 H 0.6271 0.5563 0.9832
H74_7 H 0.6111 0.5745 0.9525
C54_7 C 0.7246(4) 0.6014(4) 0.98699(17)
H75_7 H 0.7129 0.6365 0.9939
H76_7 H 0.7629 0.6029 0.9824
C55_7 C 0.6806(5) 0.6857(4) 0.94295(19)
C56_7 C 0.6495(4) 0.4872(3) 0.84913(18)
H78_7 H 0.6167 0.4668 0.8549
C57_7 C 0.6991(4) 0.4503(4) 0.85402(18)
C58_7 C 0.7494(5) 0.4759(4) 0.8424(2)
H79_7 H 0.7460 0.4791 0.8222
H80_7 H 0.7806 0.4535 0.8469
H81_7 H 0.7541 0.5117 0.8504
C59_7 C 0.6895(5) 0.3927(4) 0.8424(2)
H82_7 H 0.6857 0.3945 0.8222
H83_7 H 0.6566 0.3778 0.8504
H84_7 H 0.7201 0.3697 0.8471
C60_7 C 0.6418(5) 0.5043(5) 0.8189(2)
H89_3 H 0.420618 0.439392 0.911804
H90_7 H 0.894308 0.20949 0.795203
H91_7 H 0.555105 0.131673 0.87323
H92_7 H 0.887721 0.0275064 0.954325
H93_7 H 0.699252 0.727405 0.974012
H94_7 H 0.997062 0.480271 0.895469
H106_7 H 0.530516 0.227122 0.998935
H108_7 H 0.726149 0.16402 0.863526
H109_7 H 0.712854 0.210285 0.83878
H111_3 H 0.479264 0.346912 0.984523
H112_3 H 0.482288 0.293746 0.962733
H113_7 H 0.629006 0.572551 0.802199
H114_7 H 0.804879 0.252742 0.830162
H115_7 H 0.816469 0.192959 0.845764
H122_7 H 0.631446 0.609588 0.913597
H123_7 H 0.686146 0.624516 0.89425
H126_7 H 0.677101 0.564984 0.857127
H127_7 H 0.615025 0.552332 0.869873
O7_4 O 0.8906(4) 0.0891(3) 0.7115(2)
O8_4 O 0.8995(4) 0.0714(4) 0.6630(3)
H26_4 H 0.9684 0.0093 0.7191
C20_4 C 0.8864(6) 0.0603(7) 0.6892(4)
H89_4 H 0.939392 0.0793819 0.661804
H111_4 H 0.846912 0.020736 0.734523
H112_4 H 0.793746 0.0177121 0.712733
O7_5 O 0.1094(4) 0.9109(3) 0.2115(2)
O8_5 O 0.1005(4) 0.9286(4) 0.1630(3)
H26_5 H 0.0316 0.9907 0.2191
C20_5 C 0.1136(6) 0.9397(7) 0.1892(4)
H89_5 H 0.060608 0.920618 0.161804
H111_5 H 0.153088 0.979264 0.234523
H112_5 H 0.206254 0.982288 0.212733
O7_6 O 0.9109(3) 0.1094(4) 0.7885(2)
O8_6 O 0.9286(4) 0.1005(4) 0.8370(3)
H26_6 H 0.9907 0.0316 0.7809
C20_6 C 0.9397(7) 0.1136(6) 0.8108(4)
H89_6 H 0.920618 0.060608 0.838196
H111_6 H 0.979264 0.153088 0.765477
H112_6 H 0.982288 0.206254 0.787267
O7_7 O 0.0891(3) 0.8906(4) 0.2885(2)
O8_7 O 0.0714(4) 0.8995(4) 0.3370(3)
H26_7 H 0.0093 0.9684 0.2809
C20_7 C 0.0603(7) 0.8864(6) 0.3108(4)
H89_7 H 0.0793819 0.939392 0.338196
H111_7 H 0.020736 0.846912 0.265477
H112_7 H 0.0177121 0.793746 0.287267
O27_8 O 0.6132(2) 0.0122(2) 0.83677(12)
H2_8 H 0.2760 0.0135 0.9996
C4_8 C 0.3844(4) 0.0016(4) 0.9945(2)
H5_8 H 0.3724 0.0350 0.9857
H96_8 H 0.63863 0.0391093 0.845535
H97_8 H 0.622853 0.00736268 0.816536
H101_8 H 0.612481 0.0336551 0.887704
Cl1_8 Cl 0.37579(8) 0.76454(8) 0.03914(4)
Ag1_8 Ag 0.29326(4) 0.87030(3) 0.058849(17)
Ag2_8 Ag 0.39255(3) 0.85251(3) 0.000128(15)
Ag3_8 Ag 0.49647(3) 0.81087(3) 0.037127(14)
Ag4_8 Ag 0.40715(3) 0.79808(3) 0.093547(15)
Ag5_8 Ag 0.26298(3) 0.73242(3) 0.039450(14)
Ag7_8 Ag 0.44312(3) 0.67482(3) 0.022549(14)
Ag8_8 Ag 0.36030(3) 0.66030(3) 0.087320(18)
Ni1_8 Ni 0.43488(4) 0.95578(4) 0.06341(2)
Ni2_8 Ni 0.31226(4) 0.57376(4) 0.01773(2)
Ni3_8 Ni 0.25241(4) 0.76447(4) 0.12290(2)
Ni6_8 Ni 0.52693(4) 0.68444(4) 0.09529(2)
S1_8 S 0.37087(8) 0.92390(9) 0.03634(5)
S2_8 S 0.46660(8) 0.87577(8) 0.07479(4)
S3_8 S 0.28349(8) 0.65451(8) 0.00529(4)
S4_8 S 0.37917(8) 0.60465(8) 0.04345(4)
S5_8 S 0.26776(8) 0.70376(8) 0.09056(4)
S6_8 S 0.30934(9) 0.82401(9) 0.10584(5)
S10_8 S 0.22919(9) 0.82451(10) 0.02417(5)
S11_8 S 0.51955(8) 0.71435(8) 0.05244(4)
S12_8 S 0.44405(8) 0.70590(9) 0.10736(4)
O3_8 O 0.6319(3) 0.9558(3) 0.10839(18)
O7_8 O 0.3906(4) 0.4109(3) 0.0385(2)
O8_8 O 0.3995(4) 0.4286(4) 0.0870(3)
O9_8 O 0.1584(3) 0.5711(2) 0.14030(13)
O10_8 O 0.1135(3) 0.6494(3) 0.14559(17)
O11_8 O 0.2450(5) 0.8846(5) 0.1958(2)
O12_8 O 0.2492(3) 0.9589(3) 0.1723(2)
O20_8 O 0.0556(4) 0.9108(6) 0.0362(3)
O21_8 O 0.7014(2) 0.6371(3) 0.06571(14)
O22_8 O 0.7134(3) 0.7157(3) 0.04378(15)
O23_8 O 0.5515(3) 0.6595(4) 0.18907(15)
O24_8 O 0.4692(3) 0.6212(4) 0.19761(17)
N2_8 N 0.4945(3) 0.9876(3) 0.08497(15)
N4_8 N 0.3293(3) 0.5008(3) 0.03144(15)
N5_8 N 0.2028(3) 0.7127(3) 0.14012(14)
N6_8 N 0.2343(3) 0.8169(3) 0.15163(19)
N11_8 N 0.6034(3) 0.6724(3) 0.08867(13)
N12_8 N 0.5371(3) 0.6535(3) 0.13257(14)
C2_8 C 0.3478(4) 0.9888(4) 0.01916(19)
C3_8 C 0.2886(4) 0.9805(4) 0.0085(2)
H3_8 H 0.2651 0.9719 0.0242
C6_8 C 0.5423(3) 0.9511(3) 0.08812(18)
H8_8 H 0.5584 0.9457 0.0693
C7_8 C 0.5234(3) 0.8948(3) 0.09895(18)
C8_8 C 0.5017(4) 0.8985(4) 0.12896(17)
H9_8 H 0.5311 0.9084 0.1415
H10_8 H 0.4870 0.8636 0.1345
H11_8 H 0.4734 0.9258 0.1299
C9_8 C 0.5662(4) 0.8506(4) 0.0971(2)
H12_8 H 0.5962 0.8595 0.1094
H13_8 H 0.5792 0.8480 0.0780
H14_8 H 0.5504 0.8162 0.1027
C10_8 C 0.5865(4) 0.9781(4) 0.1072(2)
C13_8 C 0.1742(3) 0.6283(4) 0.00063(19)
H17_8 H 0.1665 0.6619 0.0104
H18_8 H 0.1808 0.5996 0.0141
C16_8 C 0.3677(4) 0.5004(4) 0.0563(2)
H22_8 H 0.3470 0.5118 0.0730
C17_8 C 0.4141(4) 0.5392(3) 0.05247(19)
C18_8 C 0.4482(4) 0.5480(4) 0.07824(19)
H23_8 H 0.4668 0.5145 0.0830
H24_8 H 0.4251 0.5588 0.0937
H25_8 H 0.4748 0.5762 0.0747
C19_8 C 0.4493(4) 0.5243(4) 0.0272(2)
H26_8 H 0.4684 0.4907 0.0309
H27_8 H 0.4753 0.5531 0.0237
H28_8 H 0.4263 0.5197 0.0109
C20_8 C 0.3864(6) 0.4397(7) 0.0608(4)
C21_8 C 0.2059(3) 0.6547(3) 0.13032(18)
H29_8 H 0.2382 0.6377 0.1391
C22_8 C 0.2135(3) 0.6532(4) 0.09859(18)
C23_8 C 0.2321(6) 0.5986(4) 0.0865(3)
H30_8 H 0.2048 0.5712 0.0903
H31_8 H 0.2662 0.5881 0.0951
H32_8 H 0.2372 0.6021 0.0665
C24_8 C 0.1611(4) 0.6702(6) 0.0836(2)
H33_8 H 0.1326 0.6440 0.0876
H34_8 H 0.1674 0.6714 0.0636
H35_8 H 0.1500 0.7058 0.0901
C25_8 C 0.1546(4) 0.6225(4) 0.1399(2)
C26_8 C 0.2514(3) 0.8750(4) 0.1457(2)
H36_8 H 0.2268 0.8913 0.1316
C27_8 C 0.3113(3) 0.8761(4) 0.13456(19)
C28_8 C 0.3293(5) 0.9296(4) 0.1222(3)
H37_8 H 0.3307 0.9569 0.1368
H38_8 H 0.3037 0.9408 0.1079
H39_8 H 0.3651 0.9254 0.1139
C29_8 C 0.3514(4) 0.8543(6) 0.1570(2)
H40_8 H 0.3540 0.8801 0.1723
H41_8 H 0.3870 0.8493 0.1487
H42_8 H 0.3383 0.8198 0.1642
C30_8 C 0.2495(4) 0.9091(5) 0.1735(3)
H55_8 H 0.5607 0.9009 0.0062
H56_8 H 0.5056 0.9323 0.0008
C46_8 C 0.1389(4) 0.8797(5) 0.0135(2)
H64_8 H 0.1561 0.9141 0.0195
C47_8 C 0.1564(4) 0.8335(7) 0.0331(2)
C48_8 C 0.1266(4) 0.7767(6) 0.0261(3)
H65_8 H 0.0883 0.7795 0.0306
H66_8 H 0.1429 0.7479 0.0371
H67_8 H 0.1308 0.7686 0.0063
C49_8 C 0.0735(6) 0.8859(8) 0.0142(4)
C50_8 C 0.1515(7) 0.8453(7) 0.0641(4)
H68_8 H 0.1135 0.8498 0.0690
H69_8 H 0.1712 0.8783 0.0685
H70_8 H 0.1666 0.8152 0.0747
C51_8 C 0.6255(3) 0.7007(3) 0.06293(16)
H71_8 H 0.6270 0.7401 0.0670
C52_8 C 0.5871(3) 0.6925(3) 0.03885(16)
C53_8 C 0.5839(3) 0.6322(3) 0.03102(17)
H72_8 H 0.6188 0.6202 0.0239
H73_8 H 0.5563 0.6271 0.0168
H74_8 H 0.5745 0.6111 0.0475
C54_8 C 0.6014(4) 0.7246(4) 0.01301(17)
H75_8 H 0.6365 0.7129 0.0061
H76_8 H 0.6029 0.7629 0.0176
C55_8 C 0.6857(4) 0.6806(5) 0.05705(19)
C56_8 C 0.4872(3) 0.6495(4) 0.15087(18)
H78_8 H 0.4668 0.6167 0.1451
C57_8 C 0.4503(4) 0.6991(4) 0.14598(18)
C58_8 C 0.4759(4) 0.7494(5) 0.1576(2)
H79_8 H 0.4791 0.7460 0.1778
H80_8 H 0.4535 0.7806 0.1531
H81_8 H 0.5117 0.7541 0.1496
C59_8 C 0.3927(4) 0.6895(5) 0.1576(2)
H82_8 H 0.3945 0.6857 0.1778
H83_8 H 0.3778 0.6566 0.1496
H84_8 H 0.3697 0.7201 0.1529
C60_8 C 0.5043(5) 0.6418(5) 0.1811(2)
H89_8 H 0.439392 0.420618 0.0881962
H90_8 H 0.20949 0.894308 0.204797
H91_8 H 0.131673 0.555105 0.12677
H92_8 H 0.0275064 0.887721 0.0456755
H93_8 H 0.727405 0.699252 0.0259876
H94_8 H 0.480271 0.997062 0.104531
H106_8 H 0.227122 0.530516 0.00106511
H108_8 H 0.16402 0.726149 0.136474
H109_8 H 0.210285 0.712854 0.16122
H111_8 H 0.346912 0.479264 0.0154773
H112_8 H 0.293746 0.482288 0.0372675
H113_8 H 0.572551 0.629006 0.197801
H114_8 H 0.252742 0.804879 0.169838
H115_8 H 0.192959 0.816469 0.154236
H122_8 H 0.609588 0.631446 0.0864031
H123_8 H 0.624516 0.686146 0.10575
H126_8 H 0.564984 0.677101 0.142873
H127_8 H 0.552332 0.615025 0.130127
loop_
_geom_bond_atom_site_label_1
_geom_bond_atom_site_label_2
_geom_bond_site_symmetry_1
_geom_bond_site_symmetry_2
La1 O15 1_555 1_555
Cl1 Ag2 1_555 1_555
Ag1 S1 1_555 1_555
Ag2 S1 1_555 1_555
Ag3 S2 1_555 1_555
Ag4 Cl1 1_555 1_555
Ag5 Cl1 1_555 1_555
Ag6 Cl1 1_555 1_555
Ag7 Cl1 1_555 1_555
Ag8 S4 1_555 1_555
Ni1 S1 1_555 1_555
Ni2 S3 1_555 1_555
Ni3 S5 1_555 1_555
Ni4 S7 1_555 1_555
Ni5 S9 1_555 1_555
Ni6 S11 1_555 1_555
S1 C2 1_555 1_555
S2 Ag4 1_555 1_555
S3 Ag5 1_555 1_555
S4 Ag7 1_555 1_555
S5 Ag5 1_555 1_555
S6 Ag1 1_555 1_555
S7 Ag6 1_555 1_555
S8 Ag2 1_555 1_555
S9 Ag2 1_555 1_555
S10 Ag1 1_555 1_555
S11 Ag3 1_555 1_555
S12 Ag4 1_555 1_555
O3 C10 1_555 1_555
O5 C15 1_555 1_555
O6 C15 1_555 1_555
O7 C20 1_555 1_555
O8 C20 1_555 1_555
O9 C25 1_555 1_555
O10 C25 1_555 1_555
O11 C30 1_555 1_555
O12 C30 1_555 1_555
O13 C35 1_555 1_555
O14 C35 1_555 1_555
O15 C40 1_555 1_555
O16 C40 1_555 1_555
O17 C45 1_555 1_555
O18 C45 1_555 1_555
O19 C49 1_555 1_555
O20 C49 1_555 1_555
O21 C55 1_555 1_555
O22 C55 1_555 1_555
O23 C60 1_555 1_555
O24 C60 1_555 1_555
O25 La1 1_555 1_555
O26 La1 1_555 1_555
O28 La1 1_555 1_555
O29 La1 1_555 1_555
N2 Ni1 1_555 1_555
N3 Ni2 1_555 1_555
N4 Ni2 1_555 1_555
N5 Ni3 1_555 1_555
N6 Ni3 1_555 1_555
N7 Ni4 1_555 1_555
N8 Ni4 1_555 1_555
N9 Ni5 1_555 1_555
N10 Ni5 1_555 1_555
N11 Ni6 1_555 1_555
N12 Ni6 1_555 1_555
C3 C2 1_555 1_555
H3 C3 1_555 1_555
H4 C3 1_555 1_555
C6 N2 1_555 1_555
H8 C6 1_555 1_555
C7 S2 1_555 1_555
C8 C7 1_555 1_555
H9 C8 1_555 1_555
H10 C8 1_555 1_555
H11 C8 1_555 1_555
C9 C7 1_555 1_555
H12 C9 1_555 1_555
H13 C9 1_555 1_555
H14 C9 1_555 1_555
C10 C6 1_555 1_555
C11 N3 1_555 1_555
H15 C11 1_555 1_555
C12 S3 1_555 1_555
C13 C12 1_555 1_555
H16 C13 1_555 1_555
H17 C13 1_555 1_555
H18 C13 1_555 1_555
C14 C12 1_555 1_555
H19 C14 1_555 1_555
H20 C14 1_555 1_555
H21 C14 1_555 1_555
C15 C11 1_555 1_555
C16 N4 1_555 1_555
H22 C16 1_555 1_555
C17 S4 1_555 1_555
C18 C17 1_555 1_555
H23 C18 1_555 1_555
H24 C18 1_555 1_555
H25 C18 1_555 1_555
C19 C17 1_555 1_555
H26 C19 1_555 1_555
H27 C19 1_555 1_555
H28 C19 1_555 1_555
C20 C16 1_555 1_555
C21 N5 1_555 1_555
H29 C21 1_555 1_555
C22 S5 1_555 1_555
C23 C22 1_555 1_555
H30 C23 1_555 1_555
H31 C23 1_555 1_555
H32 C23 1_555 1_555
C24 C22 1_555 1_555
H33 C24 1_555 1_555
H34 C24 1_555 1_555
H35 C24 1_555 1_555
C25 C21 1_555 1_555
C26 N6 1_555 1_555
H36 C26 1_555 1_555
C27 S6 1_555 1_555
C28 C27 1_555 1_555
H37 C28 1_555 1_555
H38 C28 1_555 1_555
H39 C28 1_555 1_555
C29 C27 1_555 1_555
H40 C29 1_555 1_555
H41 C29 1_555 1_555
H42 C29 1_555 1_555
C30 C26 1_555 1_555
C31 N7 1_555 1_555
H43 C31 1_555 1_555
C32 S7 1_555 1_555
C33 C32 1_555 1_555
H44 C33 1_555 1_555
H45 C33 1_555 1_555
H46 C33 1_555 1_555
C34 C32 1_555 1_555
H47 C34 1_555 1_555
H48 C34 1_555 1_555
H49 C34 1_555 1_555
C35 C31 1_555 1_555
C36 N8 1_555 1_555
H50 C36 1_555 1_555
C37 S8 1_555 1_555
C38 C37 1_555 1_555
H51 C38 1_555 1_555
H52 C38 1_555 1_555
H53 C38 1_555 1_555
C39 C37 1_555 1_555
H54 C39 1_555 1_555
H55 C39 1_555 1_555
H56 C39 1_555 1_555
C40 C36 1_555 1_555
C41 N9 1_555 1_555
H57 C41 1_555 1_555
C42 S9 1_555 1_555
C43 C42 1_555 1_555
H58 C43 1_555 1_555
H59 C43 1_555 1_555
H60 C43 1_555 1_555
C44 C42 1_555 1_555
H61 C44 1_555 1_555
H62 C44 1_555 1_555
H63 C44 1_555 1_555
C45 C41 1_555 1_555
C46 N10 1_555 1_555
H64 C46 1_555 1_555
C47 S10 1_555 1_555
C48 C47 1_555 1_555
H65 C48 1_555 1_555
H66 C48 1_555 1_555
H67 C48 1_555 1_555
C49 C46 1_555 1_555
C50 C47 1_555 1_555
H68 C50 1_555 1_555
H69 C50 1_555 1_555
H70 C50 1_555 1_555
C51 N11 1_555 1_555
H71 C51 1_555 1_555
C52 S11 1_555 1_555
C53 C52 1_555 1_555
H72 C53 1_555 1_555
H73 C53 1_555 1_555
H74 C53 1_555 1_555
C54 C52 1_555 1_555
H75 C54 1_555 1_555
H76 C54 1_555 1_555
H77 C54 1_555 1_555
C55 C51 1_555 1_555
C56 N12 1_555 1_555
H78 C56 1_555 1_555
C57 S12 1_555 1_555
C58 C57 1_555 1_555
H79 C58 1_555 1_555
H80 C58 1_555 1_555
H81 C58 1_555 1_555
C59 C57 1_555 1_555
H82 C59 1_555 1_555
H83 C59 1_555 1_555
H84 C59 1_555 1_555
C60 C56 1_555 1_555
O30 La1 1_555 1_555
C61 O25 1_555 1_555
C62 C61 1_555 1_555
H85 C62 1_555 1_555
H86 C62 1_555 1_555
H87 C62 1_555 1_555
La3 O6 1_555 1_555
O31 La1 1_555 1_555
O32 La1 1_555 1_555
Ag3 S8 1_555 1_555
Ag4 S6 1_555 1_555
Ag5 S10 1_555 1_555
Ag6 S3 1_555 1_555
Ag6 S9 1_555 1_555
Ag7 S7 1_555 1_555
Ag7 S11 1_555 1_555
Ag8 S5 1_555 1_555
Ag8 S12 1_555 1_555
Ni1 S2 1_555 1_555
Ni2 S4 1_555 1_555
Ni3 S6 1_555 1_555
Ni4 S8 1_555 1_555
Ni5 S10 1_555 1_555
Ni6 S12 1_555 1_555
C6 C7 1_555 1_555
C11 C12 1_555 1_555
C16 C17 1_555 1_555
C21 C22 1_555 1_555
C26 C27 1_555 1_555
C31 C32 1_555 1_555
C36 C37 1_555 1_555
C41 C42 1_555 1_555
C46 C47 1_555 1_555
C51 C52 1_555 1_555
C56 C57 1_555 1_555
O30 C61 1_555 1_555
O14 H88 1_555 1_555
O8 H89 1_555 1_555
O11 H90 1_555 1_555
O9 H91 1_555 1_555
O20 H92 1_555 1_555
O22 H93 1_555 1_555
N2 H94 1_555 1_555
O28 H98 1_555 1_555
O28 H99 1_555 1_555
O29 H100 1_555 1_555
O26 H104 1_555 1_555
O26 H105 1_555 1_555
N3 H106 1_555 1_555
N3 H107 1_555 1_555
N5 H108 1_555 1_555
N5 H109 1_555 1_555
O18 H110 1_555 1_555
N4 H111 1_555 1_555
N4 H112 1_555 1_555
O23 H113 1_555 1_555
N6 H114 1_555 1_555
N6 H115 1_555 1_555
N7 H116 1_555 1_555
N7 H117 1_555 1_555
N9 H118 1_555 1_555
N9 H119 1_555 1_555
N10 H120 1_555 1_555
N10 H121 1_555 1_555
N11 H122 1_555 1_555
N11 H123 1_555 1_555
N8 H124 1_555 1_555
N8 H125 1_555 1_555
N12 H126 1_555 1_555
N12 H127 1_555 1_555
O1 C5 1_555 1_555
O2 C5 1_555 1_555
C1 N1 1_555 1_555
H1 C1 1_555 1_555
C5 C1 1_555 1_555
La2 O4 1_555 1_555
N1 H102 1_555 1_555
N1 H103 1_555 1_555
O1 H128 1_555 1_555
La2 O15_2 1_555 1_555
Ni6_2 S11_2 1_555 1_555
O3_2 C10_2 1_555 1_555
O31 C10_2 1_555 1_555
O13_2 C35_2 1_555 1_555
O15_2 C40_2 1_555 1_555
O16_2 C40_2 1_555 1_555
O21_2 C55_2 1_555 1_555
O22_2 C55_2 1_555 1_555
O23_2 C60_2 1_555 1_555
O25_2 La2 1_555 1_555
O26_2 La2 1_555 1_555
O27 La2 1_555 1_555
O28_2 La2 1_555 1_555
O29_2 La2 1_555 1_555
N7_2 Ni4_2 1_555 1_555
N8_2 Ni4_2 1_555 1_555
N11_2 Ni6_2 1_555 1_555
N12_2 Ni6_2 1_555 1_555
H8_2 C6_2 1_555 1_555
C8_2 C7_2 1_555 1_555
H9_2 C8_2 1_555 1_555
C9_2 C7_2 1_555 1_555
H12_2 C9_2 1_555 1_555
H13_2 C9_2 1_555 1_555
H14_2 C9_2 1_555 1_555
C10_2 C6_2 1_555 1_555
C36_2 N8_2 1_555 1_555
H50_2 C36_2 1_555 1_555
C39_2 C37_2 1_555 1_555
H54_2 C39_2 1_555 1_555
H55_2 C39_2 1_555 1_555
H56_2 C39_2 1_555 1_555
C40_2 C36_2 1_555 1_555
C51_2 N11_2 1_555 1_555
H71_2 C51_2 1_555 1_555
C52_2 S11_2 1_555 1_555
C53_2 C52_2 1_555 1_555
H72_2 C53_2 1_555 1_555
H73_2 C53_2 1_555 1_555
H74_2 C53_2 1_555 1_555
C54_2 C52_2 1_555 1_555
H75_2 C54_2 1_555 1_555
H76_2 C54_2 1_555 1_555
H77_2 C54_2 1_555 1_555
C55_2 C51_2 1_555 1_555
O30_2 La2 1_555 1_555
C61_2 O25_2 1_555 1_555
C62_2 C61_2 1_555 1_555
H85_2 C62_2 1_555 1_555
H87_2 C62_2 1_555 1_555
O32_2 La2 1_555 1_555
C6_2 C7_2 1_555 1_555
C36_2 C37_2 1_555 1_555
C51_2 C52_2 1_555 1_555
O30_2 C61_2 1_555 1_555
O22_2 H93_2 1_555 1_555
O27 H96 1_555 1_555
O27 H97 1_555 1_555
O28_2 H98_2 1_555 1_555
O28_2 H99_2 1_555 1_555
O29_2 H100_2 1_555 1_555
O29_2 H101 1_555 1_555
O26_2 H104_2 1_555 1_555
O26_2 H105_2 1_555 1_555
O23_2 H113_2 1_555 1_555
N7_2 H116_2 1_555 1_555
N7_2 H117_2 1_555 1_555
N11_2 H122_2 1_555 1_555
N11_2 H123_2 1_555 1_555
N8_2 H124_2 1_555 1_555
N8_2 H125_2 1_555 1_555
N12_2 H126_2 1_555 1_555
N12_2 H127_2 1_555 1_555
Cl1_2 Ag2_2 1_555 1_555
Ag1_2 S1_2 1_555 1_555
Ag2_2 S1_2 1_555 1_555
Ag3_2 S2_2 1_555 1_555
Ag4_2 Cl1_2 1_555 1_555
Ag5_2 Cl1_2 1_555 1_555
Ag6_2 Cl1_2 1_555 1_555
Ag7_2 Cl1_2 1_555 1_555
Ag8_2 S4_2 1_555 1_555
Ni1_2 S1_2 1_555 1_555
Ni2_2 S3_2 1_555 1_555
Ni3_2 S5_2 1_555 1_555
Ni5_2 S9_2 1_555 1_555
S1_2 C2_2 1_555 1_555
S2_2 Ag4_2 1_555 1_555
S3_2 Ag5_2 1_555 1_555
S4_2 Ag7_2 1_555 1_555
S5_2 Ag5_2 1_555 1_555
S6_2 Ag1_2 1_555 1_555
S7_2 Ag6_2 1_555 1_555
S8_2 Ag2_2 1_555 1_555
S9_2 Ag2_2 1_555 1_555
S10_2 Ag1_2 1_555 1_555
S12_2 Ag4_2 1_555 1_555
O1_2 C5_2 1_555 1_555
O2_2 C5_2 1_555 1_555
O5_2 C15_2 1_555 1_555
O6_2 C15_2 1_555 1_555
O9_2 C25_2 1_555 1_555
O10_2 C25_2 1_555 1_555
O11_2 C30_2 1_555 1_555
O12_2 C30_2 1_555 1_555
O17_2 C45_2 1_555 1_555
O18_2 C45_2 1_555 1_555
O19_2 C49_2 1_555 1_555
O20_2 C49_2 1_555 1_555
N1_2 Ni1_2 1_555 1_555
N2_2 Ni1_2 1_555 1_555
N3_2 Ni2_2 1_555 1_555
N4_2 Ni2_2 1_555 1_555
N5_2 Ni3_2 1_555 1_555
N6_2 Ni3_2 1_555 1_555
N9_2 Ni5_2 1_555 1_555
N10_2 Ni5_2 1_555 1_555
C1_2 N1_2 1_555 1_555
H1_2 C1_2 1_555 1_555
C2_2 C1_2 1_555 1_555
C3_2 C2_2 1_555 1_555
H2 C3_2 1_555 1_555
H3_2 C3_2 1_555 1_555
H4_2 C3_2 1_555 1_555
C4 C2_2 1_555 1_555
H5 C4 1_555 1_555
H6_2 C4 1_555 1_555
H7_2 C4 1_555 1_555
C5_2 C1_2 1_555 1_555
C11_2 N3_2 1_555 1_555
H15_2 C11_2 1_555 1_555
C12_2 S3_2 1_555 1_555
C13_2 C12_2 1_555 1_555
H16_2 C13_2 1_555 1_555
H17_2 C13_2 1_555 1_555
H18_2 C13_2 1_555 1_555
C14_2 C12_2 1_555 1_555
H19_2 C14_2 1_555 1_555
H20_2 C14_2 1_555 1_555
H21_2 C14_2 1_555 1_555
C15_2 C11_2 1_555 1_555
C16_2 N4_2 1_555 1_555
H22_2 C16_2 1_555 1_555
C17_2 S4_2 1_555 1_555
C18_2 C17_2 1_555 1_555
H23_2 C18_2 1_555 1_555
H24_2 C18_2 1_555 1_555
H25_2 C18_2 1_555 1_555
C19_2 C17_2 1_555 1_555
H27_2 C19_2 1_555 1_555
H28_2 C19_2 1_555 1_555
C21_2 N5_2 1_555 1_555
H29_2 C21_2 1_555 1_555
C22_2 S5_2 1_555 1_555
C23_2 C22_2 1_555 1_555
H30_2 C23_2 1_555 1_555
H31_2 C23_2 1_555 1_555
H32_2 C23_2 1_555 1_555
C24_2 C22_2 1_555 1_555
H33_2 C24_2 1_555 1_555
H34_2 C24_2 1_555 1_555
H35_2 C24_2 1_555 1_555
C25_2 C21_2 1_555 1_555
C26_2 N6_2 1_555 1_555
H36_2 C26_2 1_555 1_555
C27_2 S6_2 1_555 1_555
C28_2 C27_2 1_555 1_555
H37_2 C28_2 1_555 1_555
H38_2 C28_2 1_555 1_555
H39_2 C28_2 1_555 1_555
C29_2 C27_2 1_555 1_555
H40_2 C29_2 1_555 1_555
H41_2 C29_2 1_555 1_555
H42_2 C29_2 1_555 1_555
C30_2 C26_2 1_555 1_555
H43_2 C31_2 1_555 1_555
C32_2 S7_2 1_555 1_555
C33_2 C32_2 1_555 1_555
H44_2 C33_2 1_555 1_555
H45_2 C33_2 1_555 1_555
H46_2 C33_2 1_555 1_555
C34_2 C32_2 1_555 1_555
H47_2 C34_2 1_555 1_555
H48_2 C34_2 1_555 1_555
H52_2 C38_2 1_555 1_555
H53_2 C38_2 1_555 1_555
C41_2 N9_2 1_555 1_555
H57_2 C41_2 1_555 1_555
C42_2 S9_2 1_555 1_555
C43_2 C42_2 1_555 1_555
H58_2 C43_2 1_555 1_555
H59_2 C43_2 1_555 1_555
H60_2 C43_2 1_555 1_555
C44_2 C42_2 1_555 1_555
H61_2 C44_2 1_555 1_555
H62_2 C44_2 1_555 1_555
H63_2 C44_2 1_555 1_555
C45_2 C41_2 1_555 1_555
C46_2 N10_2 1_555 1_555
H64_2 C46_2 1_555 1_555
C47_2 S10_2 1_555 1_555
C48_2 C47_2 1_555 1_555
H65_2 C48_2 1_555 1_555
H66_2 C48_2 1_555 1_555
H67_2 C48_2 1_555 1_555
C49_2 C46_2 1_555 1_555
C50_2 C47_2 1_555 1_555
H68_2 C50_2 1_555 1_555
H69_2 C50_2 1_555 1_555
H70_2 C50_2 1_555 1_555
H78_2 C56_2 1_555 1_555
C57_2 S12_2 1_555 1_555
C58_2 C57_2 1_555 1_555
H79_2 C58_2 1_555 1_555
H80_2 C58_2 1_555 1_555
C59_2 C57_2 1_555 1_555
H82_2 C59_2 1_555 1_555
H83_2 C59_2 1_555 1_555
H84_2 C59_2 1_555 1_555
La3_2 O6_2 1_555 1_555
Ag3_2 S8_2 1_555 1_555
Ag4_2 S6_2 1_555 1_555
Ag5_2 S10_2 1_555 1_555
Ag6_2 S3_2 1_555 1_555
Ag6_2 S9_2 1_555 1_555
Ag7_2 S7_2 1_555 1_555
Ag8_2 S5_2 1_555 1_555
Ag8_2 S12_2 1_555 1_555
Ni1_2 S2_2 1_555 1_555
Ni2_2 S4_2 1_555 1_555
Ni3_2 S6_2 1_555 1_555
Ni5_2 S10_2 1_555 1_555
C11_2 C12_2 1_555 1_555
C16_2 C17_2 1_555 1_555
C21_2 C22_2 1_555 1_555
C26_2 C27_2 1_555 1_555
C31_2 C32_2 1_555 1_555
C41_2 C42_2 1_555 1_555
C46_2 C47_2 1_555 1_555
C56_2 C57_2 1_555 1_555
O14_2 H88_2 1_555 1_555
O11_2 H90_2 1_555 1_555
O9_2 H91_2 1_555 1_555
O20_2 H92_2 1_555 1_555
N2_2 H94_2 1_555 1_555
N1_2 H102_2 1_555 1_555
N1_2 H103_2 1_555 1_555
N3_2 H106_2 1_555 1_555
N3_2 H107_2 1_555 1_555
N5_2 H108_2 1_555 1_555
N5_2 H109_2 1_555 1_555
O18_2 H110_2 1_555 1_555
N6_2 H114_2 1_555 1_555
N6_2 H115_2 1_555 1_555
N9_2 H118_2 1_555 1_555
N9_2 H119_2 1_555 1_555
N10_2 H120_2 1_555 1_555
N10_2 H121_2 1_555 1_555
O1_2 H128_2 1_555 1_555
Cl1_3 Ag2_3 1_555 1_555
Ag1_3 S1_3 1_555 1_555
Ag2_3 S1_3 1_555 1_555
Ag3_3 S2_3 1_555 1_555
Ag4_3 Cl1_3 1_555 1_555
Ag5_3 Cl1_3 1_555 1_555
Ag6_3 Cl1_3 1_555 1_555
Ag7_3 Cl1_3 1_555 1_555
Ag8_3 S4_3 1_555 1_555
Ni1_3 S1_3 1_555 1_555
Ni2_3 S3_3 1_555 1_555
Ni3_3 S5_3 1_555 1_555
Ni5_3 S9_3 1_555 1_555
S1_3 C2_3 1_555 1_555
S2_3 Ag4_3 1_555 1_555
S3_3 Ag5_3 1_555 1_555
S4_3 Ag7_3 1_555 1_555
S5_3 Ag5_3 1_555 1_555
S6_3 Ag1_3 1_555 1_555
S7_3 Ag6_3 1_555 1_555
S8_3 Ag2_3 1_555 1_555
S9_3 Ag2_3 1_555 1_555
S10_3 Ag1_3 1_555 1_555
S12_3 Ag4_3 1_555 1_555
O1_3 C5_3 1_555 1_555
O2_3 C5_3 1_555 1_555
O5_3 C15_3 1_555 1_555
O32 C15_3 1_555 1_555
O9_3 C25_3 1_555 1_555
O10_3 C25_3 1_555 1_555
O11_3 C30_3 1_555 1_555
O12_3 C30_3 1_555 1_555
O17_3 C45_3 1_555 1_555
O18_3 C45_3 1_555 1_555
O19_3 C49_3 1_555 1_555
O20_3 C49_3 1_555 1_555
N1_3 Ni1_3 1_555 1_555
N2_3 Ni1_3 1_555 1_555
N3_3 Ni2_3 1_555 1_555
N4_3 Ni2_3 1_555 1_555
N5_3 Ni3_3 1_555 1_555
N6_3 Ni3_3 1_555 1_555
N9_3 Ni5_3 1_555 1_555
N10_3 Ni5_3 1_555 1_555
C1_3 N1_3 1_555 1_555
H1_3 C1_3 1_555 1_555
C2_3 C1_3 1_555 1_555
C3_3 C2_3 1_555 1_555
H2_2 C3_3 1_555 1_555
H3_3 C3_3 1_555 1_555
H4_3 C3_3 1_555 1_555
C4_2 C2_3 1_555 1_555
H5_2 C4_2 1_555 1_555
H6_3 C4_2 1_555 1_555
H7_3 C4_2 1_555 1_555
C5_3 C1_3 1_555 1_555
C11_3 N3_3 1_555 1_555
H15_3 C11_3 1_555 1_555
C12_3 S3_3 1_555 1_555
C13_3 C12_3 1_555 1_555
H16_3 C13_3 1_555 1_555
H17_3 C13_3 1_555 1_555
H18_3 C13_3 1_555 1_555
C14_3 C12_3 1_555 1_555
H19_3 C14_3 1_555 1_555
H20_3 C14_3 1_555 1_555
H21_3 C14_3 1_555 1_555
C15_3 C11_3 1_555 1_555
C16_3 N4_3 1_555 1_555
H22_3 C16_3 1_555 1_555
C17_3 S4_3 1_555 1_555
C18_3 C17_3 1_555 1_555
H23_3 C18_3 1_555 1_555
H24_3 C18_3 1_555 1_555
H25_3 C18_3 1_555 1_555
C19_3 C17_3 1_555 1_555
H27_3 C19_3 1_555 1_555
H28_3 C19_3 1_555 1_555
C21_3 N5_3 1_555 1_555
H29_3 C21_3 1_555 1_555
C22_3 S5_3 1_555 1_555
C23_3 C22_3 1_555 1_555
H30_3 C23_3 1_555 1_555
H31_3 C23_3 1_555 1_555
H32_3 C23_3 1_555 1_555
C24_3 C22_3 1_555 1_555
H33_3 C24_3 1_555 1_555
H34_3 C24_3 1_555 1_555
H35_3 C24_3 1_555 1_555
C25_3 C21_3 1_555 1_555
C26_3 N6_3 1_555 1_555
H36_3 C26_3 1_555 1_555
C27_3 S6_3 1_555 1_555
C28_3 C27_3 1_555 1_555
H37_3 C28_3 1_555 1_555
H38_3 C28_3 1_555 1_555
H39_3 C28_3 1_555 1_555
C29_3 C27_3 1_555 1_555
H40_3 C29_3 1_555 1_555
H41_3 C29_3 1_555 1_555
H42_3 C29_3 1_555 1_555
C30_3 C26_3 1_555 1_555
H43_3 C31_3 1_555 1_555
C32_3 S7_3 1_555 1_555
C33_3 C32_3 1_555 1_555
H44_3 C33_3 1_555 1_555
H45_3 C33_3 1_555 1_555
H46_3 C33_3 1_555 1_555
C34_3 C32_3 1_555 1_555
H47_3 C34_3 1_555 1_555
H48_3 C34_3 1_555 1_555
H52_3 C38_3 1_555 1_555
H53_3 C38_3 1_555 1_555
C41_3 N9_3 1_555 1_555
H57_3 C41_3 1_555 1_555
C42_3 S9_3 1_555 1_555
C43_3 C42_3 1_555 1_555
H58_3 C43_3 1_555 1_555
H59_3 C43_3 1_555 1_555
H60_3 C43_3 1_555 1_555
C44_3 C42_3 1_555 1_555
H61_3 C44_3 1_555 1_555
H62_3 C44_3 1_555 1_555
H63_3 C44_3 1_555 1_555
C45_3 C41_3 1_555 1_555
C46_3 N10_3 1_555 1_555
H64_3 C46_3 1_555 1_555
C47_3 S10_3 1_555 1_555
C48_3 C47_3 1_555 1_555
H65_3 C48_3 1_555 1_555
H66_3 C48_3 1_555 1_555
H67_3 C48_3 1_555 1_555
C49_3 C46_3 1_555 1_555
C50_3 C47_3 1_555 1_555
H68_3 C50_3 1_555 1_555
H69_3 C50_3 1_555 1_555
H70_3 C50_3 1_555 1_555
H78_3 C56_3 1_555 1_555
C57_3 S12_3 1_555 1_555
C58_3 C57_3 1_555 1_555
H79_3 C58_3 1_555 1_555
H80_3 C58_3 1_555 1_555
C59_3 C57_3 1_555 1_555
H82_3 C59_3 1_555 1_555
H83_3 C59_3 1_555 1_555
H84_3 C59_3 1_555 1_555
Ag3_3 S8_3 1_555 1_555
Ag4_3 S6_3 1_555 1_555
Ag5_3 S10_3 1_555 1_555
Ag6_3 S3_3 1_555 1_555
Ag6_3 S9_3 1_555 1_555
Ag7_3 S7_3 1_555 1_555
Ag8_3 S5_3 1_555 1_555
Ag8_3 S12_3 1_555 1_555
Ni1_3 S2_3 1_555 1_555
Ni2_3 S4_3 1_555 1_555
Ni3_3 S6_3 1_555 1_555
Ni5_3 S10_3 1_555 1_555
C11_3 C12_3 1_555 1_555
C16_3 C17_3 1_555 1_555
C21_3 C22_3 1_555 1_555
C26_3 C27_3 1_555 1_555
C31_3 C32_3 1_555 1_555
C41_3 C42_3 1_555 1_555
C46_3 C47_3 1_555 1_555
C56_3 C57_3 1_555 1_555
O14_3 H88_3 1_555 1_555
O11_3 H90_3 1_555 1_555
O9_3 H91_3 1_555 1_555
O20_3 H92_3 1_555 1_555
N2_3 H94_3 1_555 1_555
N1_3 H102_3 1_555 1_555
N1_3 H103_3 1_555 1_555
N3_3 H106_3 1_555 1_555
N3_3 H107_3 1_555 1_555
N5_3 H108_3 1_555 1_555
N5_3 H109_3 1_555 1_555
O18_3 H110_3 1_555 1_555
N6_3 H114_3 1_555 1_555
N6_3 H115_3 1_555 1_555
N9_3 H118_3 1_555 1_555
N9_3 H119_3 1_555 1_555
N10_3 H120_3 1_555 1_555
N10_3 H121_3 1_555 1_555
O1_3 H128_3 1_555 1_555
La3 O15_3 1_555 1_555
Ni6_3 S11_3 1_555 1_555
O3_3 C10_3 1_555 1_555
O4_2 C10_3 1_555 1_555
O13_3 C35_3 1_555 1_555
O15_3 C40_3 1_555 1_555
O16_3 C40_3 1_555 1_555
O21_3 C55_3 1_555 1_555
O22_3 C55_3 1_555 1_555
O23_3 C60_3 1_555 1_555
O25_3 La3 1_555 1_555
O26_3 La3 1_555 1_555
O27_2 La3 1_555 1_555
O28_3 La3 1_555 1_555
O29_3 La3 1_555 1_555
N7_3 Ni4_3 1_555 1_555
N8_3 Ni4_3 1_555 1_555
N11_3 Ni6_3 1_555 1_555
N12_3 Ni6_3 1_555 1_555
H8_3 C6_3 1_555 1_555
C8_3 C7_3 1_555 1_555
H9_3 C8_3 1_555 1_555
C9_3 C7_3 1_555 1_555
H12_3 C9_3 1_555 1_555
H13_3 C9_3 1_555 1_555
H14_3 C9_3 1_555 1_555
C10_3 C6_3 1_555 1_555
C36_3 N8_3 1_555 1_555
H50_3 C36_3 1_555 1_555
C39_3 C37_3 1_555 1_555
H54_3 C39_3 1_555 1_555
H55_3 C39_3 1_555 1_555
H56_3 C39_3 1_555 1_555
C40_3 C36_3 1_555 1_555
C51_3 N11_3 1_555 1_555
H71_3 C51_3 1_555 1_555
C52_3 S11_3 1_555 1_555
C53_3 C52_3 1_555 1_555
H72_3 C53_3 1_555 1_555
H73_3 C53_3 1_555 1_555
H74_3 C53_3 1_555 1_555
C54_3 C52_3 1_555 1_555
H75_3 C54_3 1_555 1_555
H76_3 C54_3 1_555 1_555
H77_3 C54_3 1_555 1_555
C55_3 C51_3 1_555 1_555
O30_3 La3 1_555 1_555
C61_3 O25_3 1_555 1_555
C62_3 C61_3 1_555 1_555
H85_3 C62_3 1_555 1_555
H87_3 C62_3 1_555 1_555
La3_2 O4_2 1_555 1_555
O31_2 La3 1_555 1_555
C6_3 C7_3 1_555 1_555
C36_3 C37_3 1_555 1_555
C51_3 C52_3 1_555 1_555
O30_3 C61_3 1_555 1_555
O22_3 H93_3 1_555 1_555
O27_2 H96_2 1_555 1_555
O27_2 H97_2 1_555 1_555
O28_3 H98_3 1_555 1_555
O28_3 H99_3 1_555 1_555
O29_3 H100_3 1_555 1_555
O29_3 H101_2 1_555 1_555
O26_3 H104_3 1_555 1_555
O26_3 H105_3 1_555 1_555
O23_3 H113_3 1_555 1_555
N7_3 H116_3 1_555 1_555
N7_3 H117_3 1_555 1_555
N11_3 H122_3 1_555 1_555
N11_3 H123_3 1_555 1_555
N8_3 H124_3 1_555 1_555
N8_3 H125_3 1_555 1_555
N12_3 H126_3 1_555 1_555
N12_3 H127_3 1_555 1_555
O1_4 C5_4 1_555 1_555
O2_4 C5_4 1_555 1_555
C1_4 N1_4 1_555 1_555
H1_4 C1_4 1_555 1_555
H5_3 C4_3 1_555 1_555
H7_4 C4_3 1_555 1_555
C5_4 C1_4 1_555 1_555
O27_3 H96_3 1_555 1_555
O27_3 H97_3 1_555 1_555
N1_4 H102_4 1_555 1_555
N1_4 H103_4 1_555 1_555
O1_4 H128_4 1_555 1_555
La3_2 O15_4 1_555 1_555
Ni4_4 S7_4 1_555 1_555
Ni5_4 S9_4 1_555 1_555
S7_4 Ag6_4 1_555 1_555
O5_4 C15_4 1_555 1_555
O32_2 C15_4 1_555 1_555
O13_4 C35_4 1_555 1_555
O14_4 C35_4 1_555 1_555
O15_4 C40_4 1_555 1_555
O16_4 C40_4 1_555 1_555
O17_4 C45_4 1_555 1_555
O18_4 C45_4 1_555 1_555
O25_4 La3_2 1_555 1_555
O26_4 La3_2 1_555 1_555
O28_4 La3_2 1_555 1_555
O29_4 La3_2 1_555 1_555
N7_4 Ni4_4 1_555 1_555
N8_4 Ni4_4 1_555 1_555
N9_4 Ni5_4 1_555 1_555
N10_4 Ni5_4 1_555 1_555
C11_4 N3_4 1_555 1_555
H15_4 C11_4 1_555 1_555
C14_4 C12_4 1_555 1_555
H19_4 C14_4 1_555 1_555
H20_4 C14_4 1_555 1_555
H21_4 C14_4 1_555 1_555
C15_4 C11_4 1_555 1_555
C31_4 N7_4 1_555 1_555
H43_4 C31_4 1_555 1_555
C32_4 S7_4 1_555 1_555
C33_4 C32_4 1_555 1_555
H44_4 C33_4 1_555 1_555
H45_4 C33_4 1_555 1_555
H46_4 C33_4 1_555 1_555
C34_4 C32_4 1_555 1_555
H47_4 C34_4 1_555 1_555
H48_4 C34_4 1_555 1_555
H49_4 C34_4 1_555 1_555
C35_4 C31_4 1_555 1_555
C36_4 N8_4 1_555 1_555
H50_4 C36_4 1_555 1_555
C37_4 S8_4 1_555 1_555
C38_4 C37_4 1_555 1_555
H51_4 C38_4 1_555 1_555
H52_4 C38_4 1_555 1_555
H53_4 C38_4 1_555 1_555
C39_4 C37_4 1_555 1_555
H54_4 C39_4 1_555 1_555
C40_4 C36_4 1_555 1_555
C41_4 N9_4 1_555 1_555
H57_4 C41_4 1_555 1_555
C42_4 S9_4 1_555 1_555
C43_4 C42_4 1_555 1_555
H58_4 C43_4 1_555 1_555
H59_4 C43_4 1_555 1_555
H60_4 C43_4 1_555 1_555
C44_4 C42_4 1_555 1_555
H61_4 C44_4 1_555 1_555
H62_4 C44_4 1_555 1_555
H63_4 C44_4 1_555 1_555
C45_4 C41_4 1_555 1_555
O30_4 La3_2 1_555 1_555
C61_4 O25_4 1_555 1_555
C62_4 C61_4 1_555 1_555
H85_4 C62_4 1_555 1_555
H86_4 C62_4 1_555 1_555
H87_4 C62_4 1_555 1_555
Ag6_4 S9_4 1_555 1_555
Ni4_4 S8_4 1_555 1_555
C11_4 C12_4 1_555 1_555
C31_4 C32_4 1_555 1_555
C36_4 C37_4 1_555 1_555
C41_4 C42_4 1_555 1_555
O30_4 C61_4 1_555 1_555
O14_4 H88_4 1_555 1_555
O28_4 H98_4 1_555 1_555
O28_4 H99_4 1_555 1_555
O29_4 H100_4 1_555 1_555
O26_4 H104_4 1_555 1_555
O26_4 H105_4 1_555 1_555
N3_4 H107_4 1_555 1_555
O18_4 H110_4 1_555 1_555
N7_4 H116_4 1_555 1_555
N7_4 H117_4 1_555 1_555
N9_4 H118_4 1_555 1_555
N9_4 H119_4 1_555 1_555
N10_4 H120_4 1_555 1_555
N10_4 H121_4 1_555 1_555
N8_4 H124_4 1_555 1_555
N8_4 H125_4 1_555 1_555
O1_5 C5_5 1_555 1_555
O2_5 C5_5 1_555 1_555
C1_5 N1_5 1_555 1_555
H1_5 C1_5 1_555 1_555
H5_4 C4_4 1_555 1_555
H7_5 C4_4 1_555 1_555
C5_5 C1_5 1_555 1_555
La2_2 O4_3 1_555 1_555
O27_4 H96_4 1_555 1_555
O27_4 H97_4 1_555 1_555
N1_5 H102_5 1_555 1_555
N1_5 H103_5 1_555 1_555
O1_5 H128_5 1_555 1_555
La1_2 O15_5 1_555 1_555
Ni4_5 S7_5 1_555 1_555
Ni5_5 S9_5 1_555 1_555
S7_5 Ag6_5 1_555 1_555
O5_5 C15_5 1_555 1_555
O6_3 C15_5 1_555 1_555
O13_5 C35_5 1_555 1_555
O14_5 C35_5 1_555 1_555
O15_5 C40_5 1_555 1_555
O16_5 C40_5 1_555 1_555
O17_5 C45_5 1_555 1_555
O18_5 C45_5 1_555 1_555
O25_5 La1_2 1_555 1_555
O26_5 La1_2 1_555 1_555
O28_5 La1_2 1_555 1_555
O29_5 La1_2 1_555 1_555
N7_5 Ni4_5 1_555 1_555
N8_5 Ni4_5 1_555 1_555
N9_5 Ni5_5 1_555 1_555
N10_5 Ni5_5 1_555 1_555
C11_5 N3_5 1_555 1_555
H15_5 C11_5 1_555 1_555
C14_5 C12_5 1_555 1_555
H19_5 C14_5 1_555 1_555
H20_5 C14_5 1_555 1_555
H21_5 C14_5 1_555 1_555
C15_5 C11_5 1_555 1_555
C31_5 N7_5 1_555 1_555
H43_5 C31_5 1_555 1_555
C32_5 S7_5 1_555 1_555
C33_5 C32_5 1_555 1_555
H44_5 C33_5 1_555 1_555
H45_5 C33_5 1_555 1_555
H46_5 C33_5 1_555 1_555
C34_5 C32_5 1_555 1_555
H47_5 C34_5 1_555 1_555
H48_5 C34_5 1_555 1_555
H49_5 C34_5 1_555 1_555
C35_5 C31_5 1_555 1_555
C36_5 N8_5 1_555 1_555
H50_5 C36_5 1_555 1_555
C37_5 S8_5 1_555 1_555
C38_5 C37_5 1_555 1_555
H51_5 C38_5 1_555 1_555
H52_5 C38_5 1_555 1_555
H53_5 C38_5 1_555 1_555
C39_5 C37_5 1_555 1_555
H54_5 C39_5 1_555 1_555
C40_5 C36_5 1_555 1_555
C41_5 N9_5 1_555 1_555
H57_5 C41_5 1_555 1_555
C42_5 S9_5 1_555 1_555
C43_5 C42_5 1_555 1_555
H58_5 C43_5 1_555 1_555
H59_5 C43_5 1_555 1_555
H60_5 C43_5 1_555 1_555
C44_5 C42_5 1_555 1_555
H61_5 C44_5 1_555 1_555
H62_5 C44_5 1_555 1_555
H63_5 C44_5 1_555 1_555
C45_5 C41_5 1_555 1_555
O30_5 La1_2 1_555 1_555
C61_5 O25_5 1_555 1_555
C62_5 C61_5 1_555 1_555
H85_5 C62_5 1_555 1_555
H86_5 C62_5 1_555 1_555
H87_5 C62_5 1_555 1_555
La3_3 O6_3 1_555 1_555
O31_3 La1_2 1_555 1_555
O32_3 La1_2 1_555 1_555
Ag6_5 S9_5 1_555 1_555
Ni4_5 S8_5 1_555 1_555
C11_5 C12_5 1_555 1_555
C31_5 C32_5 1_555 1_555
C36_5 C37_5 1_555 1_555
C41_5 C42_5 1_555 1_555
O30_5 C61_5 1_555 1_555
O14_5 H88_5 1_555 1_555
O28_5 H98_5 1_555 1_555
O28_5 H99_5 1_555 1_555
O29_5 H100_5 1_555 1_555
O26_5 H104_5 1_555 1_555
O26_5 H105_5 1_555 1_555
N3_5 H107_5 1_555 1_555
O18_5 H110_5 1_555 1_555
N7_5 H116_5 1_555 1_555
N7_5 H117_5 1_555 1_555
N9_5 H118_5 1_555 1_555
N9_5 H119_5 1_555 1_555
N10_5 H120_5 1_555 1_555
N10_5 H121_5 1_555 1_555
N8_5 H124_5 1_555 1_555
N8_5 H125_5 1_555 1_555
Cl1_4 Ag2_4 1_555 1_555
Ag1_4 S1_4 1_555 1_555
Ag2_4 S1_4 1_555 1_555
Ag3_4 S2_4 1_555 1_555
Ag4_4 Cl1_4 1_555 1_555
Ag5_4 Cl1_4 1_555 1_555
Ag6_6 Cl1_4 1_555 1_555
Ag7_4 Cl1_4 1_555 1_555
Ag8_4 S4_4 1_555 1_555
Ni1_4 S1_4 1_555 1_555
Ni2_4 S3_4 1_555 1_555
Ni3_4 S5_4 1_555 1_555
Ni5_6 S9_6 1_555 1_555
S1_4 C2_4 1_555 1_555
S2_4 Ag4_4 1_555 1_555
S3_4 Ag5_4 1_555 1_555
S4_4 Ag7_4 1_555 1_555
S5_4 Ag5_4 1_555 1_555
S6_4 Ag1_4 1_555 1_555
S7_6 Ag6_6 1_555 1_555
S8_6 Ag2_4 1_555 1_555
S9_6 Ag2_4 1_555 1_555
S10_4 Ag1_4 1_555 1_555
S12_4 Ag4_4 1_555 1_555
O1_6 C5_6 1_555 1_555
O2_6 C5_6 1_555 1_555
O5_6 C15_6 1_555 1_555
O6_4 C15_6 1_555 1_555
O9_4 C25_4 1_555 1_555
O10_4 C25_4 1_555 1_555
O11_4 C30_4 1_555 1_555
O12_4 C30_4 1_555 1_555
O17_6 C45_6 1_555 1_555
O18_6 C45_6 1_555 1_555
O19_6 C49_4 1_555 1_555
O20_4 C49_4 1_555 1_555
N1_6 Ni1_4 1_555 1_555
N2_4 Ni1_4 1_555 1_555
N3_6 Ni2_4 1_555 1_555
N4_4 Ni2_4 1_555 1_555
N5_4 Ni3_4 1_555 1_555
N6_4 Ni3_4 1_555 1_555
N9_6 Ni5_6 1_555 1_555
N10_6 Ni5_6 1_555 1_555
C1_6 N1_6 1_555 1_555
H1_6 C1_6 1_555 1_555
C2_4 C1_6 1_555 1_555
C3_4 C2_4 1_555 1_555
H2_5 C3_4 1_555 1_555
H3_4 C3_4 1_555 1_555
H4_6 C3_4 1_555 1_555
C4_5 C2_4 1_555 1_555
H5_5 C4_5 1_555 1_555
H6_6 C4_5 1_555 1_555
H7_6 C4_5 1_555 1_555
C5_6 C1_6 1_555 1_555
C11_6 N3_6 1_555 1_555
H15_6 C11_6 1_555 1_555
C12_6 S3_4 1_555 1_555
C13_4 C12_6 1_555 1_555
H16_6 C13_4 1_555 1_555
H17_4 C13_4 1_555 1_555
H18_4 C13_4 1_555 1_555
C14_6 C12_6 1_555 1_555
H19_6 C14_6 1_555 1_555
H20_6 C14_6 1_555 1_555
H21_6 C14_6 1_555 1_555
C15_6 C11_6 1_555 1_555
C16_4 N4_4 1_555 1_555
H22_4 C16_4 1_555 1_555
C17_4 S4_4 1_555 1_555
C18_4 C17_4 1_555 1_555
H23_4 C18_4 1_555 1_555
H24_4 C18_4 1_555 1_555
H25_4 C18_4 1_555 1_555
C19_4 C17_4 1_555 1_555
H27_4 C19_4 1_555 1_555
H28_4 C19_4 1_555 1_555
C21_4 N5_4 1_555 1_555
H29_4 C21_4 1_555 1_555
C22_4 S5_4 1_555 1_555
C23_4 C22_4 1_555 1_555
H30_4 C23_4 1_555 1_555
H31_4 C23_4 1_555 1_555
H32_4 C23_4 1_555 1_555
C24_4 C22_4 1_555 1_555
H33_4 C24_4 1_555 1_555
H34_4 C24_4 1_555 1_555
H35_4 C24_4 1_555 1_555
C25_4 C21_4 1_555 1_555
C26_4 N6_4 1_555 1_555
H36_4 C26_4 1_555 1_555
C27_4 S6_4 1_555 1_555
C28_4 C27_4 1_555 1_555
H37_4 C28_4 1_555 1_555
H38_4 C28_4 1_555 1_555
H39_4 C28_4 1_555 1_555
C29_4 C27_4 1_555 1_555
H40_4 C29_4 1_555 1_555
H41_4 C29_4 1_555 1_555
H42_4 C29_4 1_555 1_555
C30_4 C26_4 1_555 1_555
H43_6 C31_6 1_555 1_555
C32_6 S7_6 1_555 1_555
C33_6 C32_6 1_555 1_555
H44_6 C33_6 1_555 1_555
H45_6 C33_6 1_555 1_555
H46_6 C33_6 1_555 1_555
C34_6 C32_6 1_555 1_555
H47_6 C34_6 1_555 1_555
H48_6 C34_6 1_555 1_555
H52_6 C38_6 1_555 1_555
H53_6 C38_6 1_555 1_555
C41_6 N9_6 1_555 1_555
H57_6 C41_6 1_555 1_555
C42_6 S9_6 1_555 1_555
C43_6 C42_6 1_555 1_555
H58_6 C43_6 1_555 1_555
H59_6 C43_6 1_555 1_555
H60_6 C43_6 1_555 1_555
C44_6 C42_6 1_555 1_555
H61_6 C44_6 1_555 1_555
H62_6 C44_6 1_555 1_555
H63_6 C44_6 1_555 1_555
C45_6 C41_6 1_555 1_555
C46_4 N10_6 1_555 1_555
H64_4 C46_4 1_555 1_555
C47_4 S10_4 1_555 1_555
C48_4 C47_4 1_555 1_555
H65_4 C48_4 1_555 1_555
H66_4 C48_4 1_555 1_555
H67_4 C48_4 1_555 1_555
C49_4 C46_4 1_555 1_555
C50_4 C47_4 1_555 1_555
H68_4 C50_4 1_555 1_555
H69_4 C50_4 1_555 1_555
H70_4 C50_4 1_555 1_555
H78_4 C56_4 1_555 1_555
C57_4 S12_4 1_555 1_555
C58_4 C57_4 1_555 1_555
H79_4 C58_4 1_555 1_555
H80_4 C58_4 1_555 1_555
C59_4 C57_4 1_555 1_555
H82_4 C59_4 1_555 1_555
H83_4 C59_4 1_555 1_555
H84_4 C59_4 1_555 1_555
La3_4 O6_4 1_555 1_555
Ag3_4 S8_6 1_555 1_555
Ag4_4 S6_4 1_555 1_555
Ag5_4 S10_4 1_555 1_555
Ag6_6 S3_4 1_555 1_555
Ag6_6 S9_6 1_555 1_555
Ag7_4 S7_6 1_555 1_555
Ag8_4 S5_4 1_555 1_555
Ag8_4 S12_4 1_555 1_555
Ni1_4 S2_4 1_555 1_555
Ni2_4 S4_4 1_555 1_555
Ni3_4 S6_4 1_555 1_555
Ni5_6 S10_4 1_555 1_555
C11_6 C12_6 1_555 1_555
C16_4 C17_4 1_555 1_555
C21_4 C22_4 1_555 1_555
C26_4 C27_4 1_555 1_555
C31_6 C32_6 1_555 1_555
C41_6 C42_6 1_555 1_555
C46_4 C47_4 1_555 1_555
C56_4 C57_4 1_555 1_555
O14_6 H88_6 1_555 1_555
O11_4 H90_4 1_555 1_555
O9_4 H91_4 1_555 1_555
O20_4 H92_4 1_555 1_555
N2_4 H94_4 1_555 1_555
N1_6 H102_6 1_555 1_555
N1_6 H103_6 1_555 1_555
N3_6 H106_4 1_555 1_555
N3_6 H107_6 1_555 1_555
N5_4 H108_4 1_555 1_555
N5_4 H109_4 1_555 1_555
O18_6 H110_6 1_555 1_555
N6_4 H114_4 1_555 1_555
N6_4 H115_4 1_555 1_555
N9_6 H118_6 1_555 1_555
N9_6 H119_6 1_555 1_555
N10_6 H120_6 1_555 1_555
N10_6 H121_6 1_555 1_555
O1_6 H128_6 1_555 1_555
La2_2 O15_6 1_555 1_555
Ni6_4 S11_4 1_555 1_555
O3_4 C10_4 1_555 1_555
O31_3 C10_4 1_555 1_555
O13_6 C35_6 1_555 1_555
O15_6 C40_6 1_555 1_555
O16_6 C40_6 1_555 1_555
O21_4 C55_4 1_555 1_555
O22_4 C55_4 1_555 1_555
O23_4 C60_4 1_555 1_555
O25_6 La2_2 1_555 1_555
O26_6 La2_2 1_555 1_555
O27_5 La2_2 1_555 1_555
O28_6 La2_2 1_555 1_555
O29_6 La2_2 1_555 1_555
N7_6 Ni4_6 1_555 1_555
N8_6 Ni4_6 1_555 1_555
N11_4 Ni6_4 1_555 1_555
N12_4 Ni6_4 1_555 1_555
H8_4 C6_4 1_555 1_555
C8_4 C7_4 1_555 1_555
H9_4 C8_4 1_555 1_555
C9_4 C7_4 1_555 1_555
H12_4 C9_4 1_555 1_555
H13_4 C9_4 1_555 1_555
H14_4 C9_4 1_555 1_555
C10_4 C6_4 1_555 1_555
C36_6 N8_6 1_555 1_555
H50_6 C36_6 1_555 1_555
C39_6 C37_6 1_555 1_555
H54_6 C39_6 1_555 1_555
H55_4 C39_6 1_555 1_555
H56_4 C39_6 1_555 1_555
C40_6 C36_6 1_555 1_555
C51_4 N11_4 1_555 1_555
H71_4 C51_4 1_555 1_555
C52_4 S11_4 1_555 1_555
C53_4 C52_4 1_555 1_555
H72_4 C53_4 1_555 1_555
H73_4 C53_4 1_555 1_555
H74_4 C53_4 1_555 1_555
C54_4 C52_4 1_555 1_555
H75_4 C54_4 1_555 1_555
H76_4 C54_4 1_555 1_555
H77_6 C54_4 1_555 1_555
C55_4 C51_4 1_555 1_555
O30_6 La2_2 1_555 1_555
C61_6 O25_6 1_555 1_555
C62_6 C61_6 1_555 1_555
H85_6 C62_6 1_555 1_555
H87_6 C62_6 1_555 1_555
O32_4 La2_2 1_555 1_555
C6_4 C7_4 1_555 1_555
C36_6 C37_6 1_555 1_555
C51_4 C52_4 1_555 1_555
O30_6 C61_6 1_555 1_555
O22_4 H93_4 1_555 1_555
O27_5 H96_5 1_555 1_555
O27_5 H97_5 1_555 1_555
O28_6 H98_6 1_555 1_555
O28_6 H99_6 1_555 1_555
O29_6 H100_6 1_555 1_555
O29_6 H101_5 1_555 1_555
O26_6 H104_6 1_555 1_555
O26_6 H105_6 1_555 1_555
O23_4 H113_4 1_555 1_555
N7_6 H116_6 1_555 1_555
N7_6 H117_6 1_555 1_555
N11_4 H122_4 1_555 1_555
N11_4 H123_4 1_555 1_555
N8_6 H124_6 1_555 1_555
N8_6 H125_6 1_555 1_555
N12_4 H126_4 1_555 1_555
N12_4 H127_4 1_555 1_555
La3_3 O15_7 1_555 1_555
Ni6_5 S11_5 1_555 1_555
O3_5 C10_5 1_555 1_555
O4_4 C10_5 1_555 1_555
O13_7 C35_7 1_555 1_555
O15_7 C40_7 1_555 1_555
O16_7 C40_7 1_555 1_555
O21_5 C55_5 1_555 1_555
O22_5 C55_5 1_555 1_555
O23_5 C60_5 1_555 1_555
O25_7 La3_3 1_555 1_555
O26_7 La3_3 1_555 1_555
O27_6 La3_3 1_555 1_555
O28_7 La3_3 1_555 1_555
O29_7 La3_3 1_555 1_555
N7_7 Ni4_7 1_555 1_555
N8_7 Ni4_7 1_555 1_555
N11_5 Ni6_5 1_555 1_555
N12_5 Ni6_5 1_555 1_555
H8_5 C6_5 1_555 1_555
C8_5 C7_5 1_555 1_555
H9_5 C8_5 1_555 1_555
C9_5 C7_5 1_555 1_555
H12_5 C9_5 1_555 1_555
H13_5 C9_5 1_555 1_555
H14_5 C9_5 1_555 1_555
C10_5 C6_5 1_555 1_555
C36_7 N8_7 1_555 1_555
H50_7 C36_7 1_555 1_555
C39_7 C37_7 1_555 1_555
H54_7 C39_7 1_555 1_555
H55_5 C39_7 1_555 1_555
H56_5 C39_7 1_555 1_555
C40_7 C36_7 1_555 1_555
C51_5 N11_5 1_555 1_555
H71_5 C51_5 1_555 1_555
C52_5 S11_5 1_555 1_555
C53_5 C52_5 1_555 1_555
H72_5 C53_5 1_555 1_555
H73_5 C53_5 1_555 1_555
H74_5 C53_5 1_555 1_555
C54_5 C52_5 1_555 1_555
H75_5 C54_5 1_555 1_555
H76_5 C54_5 1_555 1_555
H77_7 C54_5 1_555 1_555
C55_5 C51_5 1_555 1_555
O30_7 La3_3 1_555 1_555
C61_7 O25_7 1_555 1_555
C62_7 C61_7 1_555 1_555
H85_7 C62_7 1_555 1_555
H87_7 C62_7 1_555 1_555
La3_4 O4_4 1_555 1_555
O31_4 La3_3 1_555 1_555
C6_5 C7_5 1_555 1_555
C36_7 C37_7 1_555 1_555
C51_5 C52_5 1_555 1_555
O30_7 C61_7 1_555 1_555
O22_5 H93_5 1_555 1_555
O27_6 H96_6 1_555 1_555
O27_6 H97_6 1_555 1_555
O28_7 H98_7 1_555 1_555
O28_7 H99_7 1_555 1_555
O29_7 H100_7 1_555 1_555
O29_7 H101_6 1_555 1_555
O26_7 H104_7 1_555 1_555
O26_7 H105_7 1_555 1_555
O23_5 H113_5 1_555 1_555
N7_7 H116_7 1_555 1_555
N7_7 H117_7 1_555 1_555
N11_5 H122_5 1_555 1_555
N11_5 H123_5 1_555 1_555
N8_7 H124_7 1_555 1_555
N8_7 H125_7 1_555 1_555
N12_5 H126_5 1_555 1_555
N12_5 H127_5 1_555 1_555
Cl1_5 Ag2_5 1_555 1_555
Ag1_5 S1_5 1_555 1_555
Ag2_5 S1_5 1_555 1_555
Ag3_5 S2_5 1_555 1_555
Ag4_5 Cl1_5 1_555 1_555
Ag5_5 Cl1_5 1_555 1_555
Ag6_7 Cl1_5 1_555 1_555
Ag7_5 Cl1_5 1_555 1_555
Ag8_5 S4_5 1_555 1_555
Ni1_5 S1_5 1_555 1_555
Ni2_5 S3_5 1_555 1_555
Ni3_5 S5_5 1_555 1_555
Ni5_7 S9_7 1_555 1_555
S1_5 C2_5 1_555 1_555
S2_5 Ag4_5 1_555 1_555
S3_5 Ag5_5 1_555 1_555
S4_5 Ag7_5 1_555 1_555
S5_5 Ag5_5 1_555 1_555
S6_5 Ag1_5 1_555 1_555
S7_7 Ag6_7 1_555 1_555
S8_7 Ag2_5 1_555 1_555
S9_7 Ag2_5 1_555 1_555
S10_5 Ag1_5 1_555 1_555
S12_5 Ag4_5 1_555 1_555
O1_7 C5_7 1_555 1_555
O2_7 C5_7 1_555 1_555
O5_7 C15_7 1_555 1_555
O32_3 C15_7 1_555 1_555
O9_5 C25_5 1_555 1_555
O10_5 C25_5 1_555 1_555
O11_5 C30_5 1_555 1_555
O12_5 C30_5 1_555 1_555
O17_7 C45_7 1_555 1_555
O18_7 C45_7 1_555 1_555
O19_7 C49_5 1_555 1_555
O20_5 C49_5 1_555 1_555
N1_7 Ni1_5 1_555 1_555
N2_5 Ni1_5 1_555 1_555
N3_7 Ni2_5 1_555 1_555
N4_5 Ni2_5 1_555 1_555
N5_5 Ni3_5 1_555 1_555
N6_5 Ni3_5 1_555 1_555
N9_7 Ni5_7 1_555 1_555
N10_7 Ni5_7 1_555 1_555
C1_7 N1_7 1_555 1_555
H1_7 C1_7 1_555 1_555
C2_5 C1_7 1_555 1_555
C3_5 C2_5 1_555 1_555
H2_6 C3_5 1_555 1_555
H3_5 C3_5 1_555 1_555
H4_7 C3_5 1_555 1_555
C4_6 C2_5 1_555 1_555
H5_6 C4_6 1_555 1_555
H6_7 C4_6 1_555 1_555
H7_7 C4_6 1_555 1_555
C5_7 C1_7 1_555 1_555
C11_7 N3_7 1_555 1_555
H15_7 C11_7 1_555 1_555
C12_7 S3_5 1_555 1_555
C13_5 C12_7 1_555 1_555
H16_7 C13_5 1_555 1_555
H17_5 C13_5 1_555 1_555
H18_5 C13_5 1_555 1_555
C14_7 C12_7 1_555 1_555
H19_7 C14_7 1_555 1_555
H20_7 C14_7 1_555 1_555
H21_7 C14_7 1_555 1_555
C15_7 C11_7 1_555 1_555
C16_5 N4_5 1_555 1_555
H22_5 C16_5 1_555 1_555
C17_5 S4_5 1_555 1_555
C18_5 C17_5 1_555 1_555
H23_5 C18_5 1_555 1_555
H24_5 C18_5 1_555 1_555
H25_5 C18_5 1_555 1_555
C19_5 C17_5 1_555 1_555
H27_5 C19_5 1_555 1_555
H28_5 C19_5 1_555 1_555
C21_5 N5_5 1_555 1_555
H29_5 C21_5 1_555 1_555
C22_5 S5_5 1_555 1_555
C23_5 C22_5 1_555 1_555
H30_5 C23_5 1_555 1_555
H31_5 C23_5 1_555 1_555
H32_5 C23_5 1_555 1_555
C24_5 C22_5 1_555 1_555
H33_5 C24_5 1_555 1_555
H34_5 C24_5 1_555 1_555
H35_5 C24_5 1_555 1_555
C25_5 C21_5 1_555 1_555
C26_5 N6_5 1_555 1_555
H36_5 C26_5 1_555 1_555
C27_5 S6_5 1_555 1_555
C28_5 C27_5 1_555 1_555
H37_5 C28_5 1_555 1_555
H38_5 C28_5 1_555 1_555
H39_5 C28_5 1_555 1_555
C29_5 C27_5 1_555 1_555
H40_5 C29_5 1_555 1_555
H41_5 C29_5 1_555 1_555
H42_5 C29_5 1_555 1_555
C30_5 C26_5 1_555 1_555
H43_7 C31_7 1_555 1_555
C32_7 S7_7 1_555 1_555
C33_7 C32_7 1_555 1_555
H44_7 C33_7 1_555 1_555
H45_7 C33_7 1_555 1_555
H46_7 C33_7 1_555 1_555
C34_7 C32_7 1_555 1_555
H47_7 C34_7 1_555 1_555
H48_7 C34_7 1_555 1_555
H52_7 C38_7 1_555 1_555
H53_7 C38_7 1_555 1_555
C41_7 N9_7 1_555 1_555
H57_7 C41_7 1_555 1_555
C42_7 S9_7 1_555 1_555
C43_7 C42_7 1_555 1_555
H58_7 C43_7 1_555 1_555
H59_7 C43_7 1_555 1_555
H60_7 C43_7 1_555 1_555
C44_7 C42_7 1_555 1_555
H61_7 C44_7 1_555 1_555
H62_7 C44_7 1_555 1_555
H63_7 C44_7 1_555 1_555
C45_7 C41_7 1_555 1_555
C46_5 N10_7 1_555 1_555
H64_5 C46_5 1_555 1_555
C47_5 S10_5 1_555 1_555
C48_5 C47_5 1_555 1_555
H65_5 C48_5 1_555 1_555
H66_5 C48_5 1_555 1_555
H67_5 C48_5 1_555 1_555
C49_5 C46_5 1_555 1_555
C50_5 C47_5 1_555 1_555
H68_5 C50_5 1_555 1_555
H69_5 C50_5 1_555 1_555
H70_5 C50_5 1_555 1_555
H78_5 C56_5 1_555 1_555
C57_5 S12_5 1_555 1_555
C58_5 C57_5 1_555 1_555
H79_5 C58_5 1_555 1_555
H80_5 C58_5 1_555 1_555
C59_5 C57_5 1_555 1_555
H82_5 C59_5 1_555 1_555
H83_5 C59_5 1_555 1_555
H84_5 C59_5 1_555 1_555
Ag3_5 S8_7 1_555 1_555
Ag4_5 S6_5 1_555 1_555
Ag5_5 S10_5 1_555 1_555
Ag6_7 S3_5 1_555 1_555
Ag6_7 S9_7 1_555 1_555
Ag7_5 S7_7 1_555 1_555
Ag8_5 S5_5 1_555 1_555
Ag8_5 S12_5 1_555 1_555
Ni1_5 S2_5 1_555 1_555
Ni2_5 S4_5 1_555 1_555
Ni3_5 S6_5 1_555 1_555
Ni5_7 S10_5 1_555 1_555
C11_7 C12_7 1_555 1_555
C16_5 C17_5 1_555 1_555
C21_5 C22_5 1_555 1_555
C26_5 C27_5 1_555 1_555
C31_7 C32_7 1_555 1_555
C41_7 C42_7 1_555 1_555
C46_5 C47_5 1_555 1_555
C56_5 C57_5 1_555 1_555
O14_7 H88_7 1_555 1_555
O11_5 H90_5 1_555 1_555
O9_5 H91_5 1_555 1_555
O20_5 H92_5 1_555 1_555
N2_5 H94_5 1_555 1_555
N1_7 H102_7 1_555 1_555
N1_7 H103_7 1_555 1_555
N3_7 H106_5 1_555 1_555
N3_7 H107_7 1_555 1_555
N5_5 H108_5 1_555 1_555
N5_5 H109_5 1_555 1_555
O18_7 H110_7 1_555 1_555
N6_5 H114_5 1_555 1_555
N6_5 H115_5 1_555 1_555
N9_7 H118_7 1_555 1_555
N9_7 H119_7 1_555 1_555
N10_7 H120_7 1_555 1_555
N10_7 H121_7 1_555 1_555
O1_7 H128_7 1_555 1_555
La3_4 O15_8 1_555 1_555
Cl1_6 Ag2_6 1_555 1_555
Ag1_6 S1_6 1_555 1_555
Ag2_6 S1_6 1_555 1_555
Ag3_6 S2_6 1_555 1_555
Ag4_6 Cl1_6 1_555 1_555
Ag5_6 Cl1_6 1_555 1_555
Ag6_8 Cl1_6 1_555 1_555
Ag7_6 Cl1_6 1_555 1_555
Ag8_6 S4_6 1_555 1_555
Ni1_6 S1_6 1_555 1_555
Ni2_6 S3_6 1_555 1_555
Ni3_6 S5_6 1_555 1_555
Ni4_8 S7_8 1_555 1_555
Ni5_8 S9_8 1_555 1_555
Ni6_6 S11_6 1_555 1_555
S1_6 C2_6 1_555 1_555
S2_6 Ag4_6 1_555 1_555
S3_6 Ag5_6 1_555 1_555
S4_6 Ag7_6 1_555 1_555
S5_6 Ag5_6 1_555 1_555
S6_6 Ag1_6 1_555 1_555
S7_8 Ag6_8 1_555 1_555
S8_8 Ag2_6 1_555 1_555
S9_8 Ag2_6 1_555 1_555
S10_6 Ag1_6 1_555 1_555
S11_6 Ag3_6 1_555 1_555
S12_6 Ag4_6 1_555 1_555
O3_6 C10_6 1_555 1_555
O5_8 C15_8 1_555 1_555
O32_4 C15_8 1_555 1_555
O7_2 C20_2 1_555 1_555
O8_2 C20_2 1_555 1_555
O9_6 C25_6 1_555 1_555
O10_6 C25_6 1_555 1_555
O11_6 C30_6 1_555 1_555
O12_6 C30_6 1_555 1_555
O13_8 C35_8 1_555 1_555
O14_8 C35_8 1_555 1_555
O15_8 C40_8 1_555 1_555
O16_8 C40_8 1_555 1_555
O17_8 C45_8 1_555 1_555
O18_8 C45_8 1_555 1_555
O19_8 C49_6 1_555 1_555
O20_6 C49_6 1_555 1_555
O21_6 C55_6 1_555 1_555
O22_6 C55_6 1_555 1_555
O23_6 C60_6 1_555 1_555
O24_6 C60_6 1_555 1_555
O25_8 La3_4 1_555 1_555
O26_8 La3_4 1_555 1_555
O28_8 La3_4 1_555 1_555
O29_8 La3_4 1_555 1_555
N2_6 Ni1_6 1_555 1_555
N3_8 Ni2_6 1_555 1_555
N4_6 Ni2_6 1_555 1_555
N5_6 Ni3_6 1_555 1_555
N6_6 Ni3_6 1_555 1_555
N7_8 Ni4_8 1_555 1_555
N8_8 Ni4_8 1_555 1_555
N9_8 Ni5_8 1_555 1_555
N10_8 Ni5_8 1_555 1_555
N11_6 Ni6_6 1_555 1_555
N12_6 Ni6_6 1_555 1_555
C3_6 C2_6 1_555 1_555
H3_6 C3_6 1_555 1_555
H4_8 C3_6 1_555 1_555
C6_6 N2_6 1_555 1_555
H8_6 C6_6 1_555 1_555
C7_6 S2_6 1_555 1_555
C8_6 C7_6 1_555 1_555
H9_6 C8_6 1_555 1_555
H10_6 C8_6 1_555 1_555
H11_6 C8_6 1_555 1_555
C9_6 C7_6 1_555 1_555
H12_6 C9_6 1_555 1_555
H13_6 C9_6 1_555 1_555
H14_6 C9_6 1_555 1_555
C10_6 C6_6 1_555 1_555
C11_8 N3_8 1_555 1_555
H15_8 C11_8 1_555 1_555
C12_8 S3_6 1_555 1_555
C13_6 C12_8 1_555 1_555
H16_8 C13_6 1_555 1_555
H17_6 C13_6 1_555 1_555
H18_6 C13_6 1_555 1_555
C14_8 C12_8 1_555 1_555
H19_8 C14_8 1_555 1_555
H20_8 C14_8 1_555 1_555
H21_8 C14_8 1_555 1_555
C15_8 C11_8 1_555 1_555
C16_6 N4_6 1_555 1_555
H22_6 C16_6 1_555 1_555
C17_6 S4_6 1_555 1_555
C18_6 C17_6 1_555 1_555
H23_6 C18_6 1_555 1_555
H24_6 C18_6 1_555 1_555
H25_6 C18_6 1_555 1_555
C19_6 C17_6 1_555 1_555
H26_2 C19_6 1_555 1_555
H27_6 C19_6 1_555 1_555
H28_6 C19_6 1_555 1_555
C20_2 C16_6 1_555 1_555
C21_6 N5_6 1_555 1_555
H29_6 C21_6 1_555 1_555
C22_6 S5_6 1_555 1_555
C23_6 C22_6 1_555 1_555
H30_6 C23_6 1_555 1_555
H31_6 C23_6 1_555 1_555
H32_6 C23_6 1_555 1_555
C24_6 C22_6 1_555 1_555
H33_6 C24_6 1_555 1_555
H34_6 C24_6 1_555 1_555
H35_6 C24_6 1_555 1_555
C25_6 C21_6 1_555 1_555
C26_6 N6_6 1_555 1_555
H36_6 C26_6 1_555 1_555
C27_6 S6_6 1_555 1_555
C28_6 C27_6 1_555 1_555
H37_6 C28_6 1_555 1_555
H38_6 C28_6 1_555 1_555
H39_6 C28_6 1_555 1_555
C29_6 C27_6 1_555 1_555
H40_6 C29_6 1_555 1_555
H41_6 C29_6 1_555 1_555
H42_6 C29_6 1_555 1_555
C30_6 C26_6 1_555 1_555
C31_8 N7_8 1_555 1_555
H43_8 C31_8 1_555 1_555
C32_8 S7_8 1_555 1_555
C33_8 C32_8 1_555 1_555
H44_8 C33_8 1_555 1_555
H45_8 C33_8 1_555 1_555
H46_8 C33_8 1_555 1_555
C34_8 C32_8 1_555 1_555
H47_8 C34_8 1_555 1_555
H48_8 C34_8 1_555 1_555
H49_8 C34_8 1_555 1_555
C35_8 C31_8 1_555 1_555
C36_8 N8_8 1_555 1_555
H50_8 C36_8 1_555 1_555
C37_8 S8_8 1_555 1_555
C38_8 C37_8 1_555 1_555
H51_8 C38_8 1_555 1_555
H52_8 C38_8 1_555 1_555
H53_8 C38_8 1_555 1_555
C39_8 C37_8 1_555 1_555
H54_8 C39_8 1_555 1_555
H55_6 C39_8 1_555 1_555
H56_6 C39_8 1_555 1_555
C40_8 C36_8 1_555 1_555
C41_8 N9_8 1_555 1_555
H57_8 C41_8 1_555 1_555
C42_8 S9_8 1_555 1_555
C43_8 C42_8 1_555 1_555
H58_8 C43_8 1_555 1_555
H59_8 C43_8 1_555 1_555
H60_8 C43_8 1_555 1_555
C44_8 C42_8 1_555 1_555
H61_8 C44_8 1_555 1_555
H62_8 C44_8 1_555 1_555
H63_8 C44_8 1_555 1_555
C45_8 C41_8 1_555 1_555
C46_6 N10_8 1_555 1_555
H64_6 C46_6 1_555 1_555
C47_6 S10_6 1_555 1_555
C48_6 C47_6 1_555 1_555
H65_6 C48_6 1_555 1_555
H66_6 C48_6 1_555 1_555
H67_6 C48_6 1_555 1_555
C49_6 C46_6 1_555 1_555
C50_6 C47_6 1_555 1_555
H68_6 C50_6 1_555 1_555
H69_6 C50_6 1_555 1_555
H70_6 C50_6 1_555 1_555
C51_6 N11_6 1_555 1_555
H71_6 C51_6 1_555 1_555
C52_6 S11_6 1_555 1_555
C53_6 C52_6 1_555 1_555
H72_6 C53_6 1_555 1_555
H73_6 C53_6 1_555 1_555
H74_6 C53_6 1_555 1_555
C54_6 C52_6 1_555 1_555
H75_6 C54_6 1_555 1_555
H76_6 C54_6 1_555 1_555
H77_8 C54_6 1_555 1_555
C55_6 C51_6 1_555 1_555
C56_6 N12_6 1_555 1_555
H78_6 C56_6 1_555 1_555
C57_6 S12_6 1_555 1_555
C58_6 C57_6 1_555 1_555
H79_6 C58_6 1_555 1_555
H80_6 C58_6 1_555 1_555
H81_6 C58_6 1_555 1_555
C59_6 C57_6 1_555 1_555
H82_6 C59_6 1_555 1_555
H83_6 C59_6 1_555 1_555
H84_6 C59_6 1_555 1_555
C60_6 C56_6 1_555 1_555
O30_8 La3_4 1_555 1_555
C61_8 O25_8 1_555 1_555
C62_8 C61_8 1_555 1_555
H85_8 C62_8 1_555 1_555
H86_8 C62_8 1_555 1_555
H87_8 C62_8 1_555 1_555
Ag3_6 S8_8 1_555 1_555
Ag4_6 S6_6 1_555 1_555
Ag5_6 S10_6 1_555 1_555
Ag6_8 S3_6 1_555 1_555
Ag6_8 S9_8 1_555 1_555
Ag7_6 S7_8 1_555 1_555
Ag7_6 S11_6 1_555 1_555
Ag8_6 S5_6 1_555 1_555
Ag8_6 S12_6 1_555 1_555
Ni1_6 S2_6 1_555 1_555
Ni2_6 S4_6 1_555 1_555
Ni3_6 S6_6 1_555 1_555
Ni4_8 S8_8 1_555 1_555
Ni5_8 S10_6 1_555 1_555
Ni6_6 S12_6 1_555 1_555
C6_6 C7_6 1_555 1_555
C11_8 C12_8 1_555 1_555
C16_6 C17_6 1_555 1_555
C21_6 C22_6 1_555 1_555
C26_6 C27_6 1_555 1_555
C31_8 C32_8 1_555 1_555
C36_8 C37_8 1_555 1_555
C41_8 C42_8 1_555 1_555
C46_6 C47_6 1_555 1_555
C51_6 C52_6 1_555 1_555
C56_6 C57_6 1_555 1_555
O30_8 C61_8 1_555 1_555
O14_8 H88_8 1_555 1_555
O8_2 H89_2 1_555 1_555
O11_6 H90_6 1_555 1_555
O9_6 H91_6 1_555 1_555
O20_6 H92_6 1_555 1_555
O22_6 H93_6 1_555 1_555
N2_6 H94_6 1_555 1_555
O28_8 H98_8 1_555 1_555
O28_8 H99_8 1_555 1_555
O29_8 H100_8 1_555 1_555
O26_8 H104_8 1_555 1_555
O26_8 H105_8 1_555 1_555
N3_8 H106_6 1_555 1_555
N3_8 H107_8 1_555 1_555
N5_6 H108_6 1_555 1_555
N5_6 H109_6 1_555 1_555
O18_8 H110_8 1_555 1_555
N4_6 H111_2 1_555 1_555
N4_6 H112_2 1_555 1_555
O23_6 H113_6 1_555 1_555
N6_6 H114_6 1_555 1_555
N6_6 H115_6 1_555 1_555
N7_8 H116_8 1_555 1_555
N7_8 H117_8 1_555 1_555
N9_8 H118_8 1_555 1_555
N9_8 H119_8 1_555 1_555
N10_8 H120_8 1_555 1_555
N10_8 H121_8 1_555 1_555
N11_6 H122_6 1_555 1_555
N11_6 H123_6 1_555 1_555
N8_8 H124_8 1_555 1_555
N8_8 H125_8 1_555 1_555
N12_6 H126_6 1_555 1_555
N12_6 H127_6 1_555 1_555
O1_8 C5_8 1_555 1_555
O2_8 C5_8 1_555 1_555
C1_8 N1_8 1_555 1_555
H1_8 C1_8 1_555 1_555
C5_8 C1_8 1_555 1_555
N1_8 H102_8 1_555 1_555
N1_8 H103_8 1_555 1_555
O1_8 H128_8 1_555 1_555
H5_7 C4_7 1_555 1_555
O27_7 H96_7 1_555 1_555
O27_7 H97_7 1_555 1_555
Cl1_7 Ag2_7 1_555 1_555
Ag1_7 S1_7 1_555 1_555
Ag2_7 S1_7 1_555 1_555
Ag3_7 S2_7 1_555 1_555
Ag4_7 Cl1_7 1_555 1_555
Ag5_7 Cl1_7 1_555 1_555
Ag7_7 Cl1_7 1_555 1_555
Ag8_7 S4_7 1_555 1_555
Ni1_7 S1_7 1_555 1_555
Ni2_7 S3_7 1_555 1_555
Ni3_7 S5_7 1_555 1_555
Ni6_7 S11_7 1_555 1_555
S1_7 C2_7 1_555 1_555
S2_7 Ag4_7 1_555 1_555
S3_7 Ag5_7 1_555 1_555
S4_7 Ag7_7 1_555 1_555
S5_7 Ag5_7 1_555 1_555
S6_7 Ag1_7 1_555 1_555
S10_7 Ag1_7 1_555 1_555
S11_7 Ag3_7 1_555 1_555
S12_7 Ag4_7 1_555 1_555
O3_7 C10_7 1_555 1_555
O7_3 C20_3 1_555 1_555
O8_3 C20_3 1_555 1_555
O9_7 C25_7 1_555 1_555
O10_7 C25_7 1_555 1_555
O11_7 C30_7 1_555 1_555
O12_7 C30_7 1_555 1_555
O20_7 C49_7 1_555 1_555
O21_7 C55_7 1_555 1_555
O22_7 C55_7 1_555 1_555
O23_7 C60_7 1_555 1_555
O24_7 C60_7 1_555 1_555
N2_7 Ni1_7 1_555 1_555
N4_7 Ni2_7 1_555 1_555
N5_7 Ni3_7 1_555 1_555
N6_7 Ni3_7 1_555 1_555
N11_7 Ni6_7 1_555 1_555
N12_7 Ni6_7 1_555 1_555
C3_7 C2_7 1_555 1_555
H3_7 C3_7 1_555 1_555
C6_7 N2_7 1_555 1_555
H8_7 C6_7 1_555 1_555
C7_7 S2_7 1_555 1_555
C8_7 C7_7 1_555 1_555
H9_7 C8_7 1_555 1_555
H10_7 C8_7 1_555 1_555
H11_7 C8_7 1_555 1_555
C9_7 C7_7 1_555 1_555
H12_7 C9_7 1_555 1_555
H13_7 C9_7 1_555 1_555
H14_7 C9_7 1_555 1_555
C10_7 C6_7 1_555 1_555
H17_7 C13_7 1_555 1_555
H18_7 C13_7 1_555 1_555
C16_7 N4_7 1_555 1_555
H22_7 C16_7 1_555 1_555
C17_7 S4_7 1_555 1_555
C18_7 C17_7 1_555 1_555
H23_7 C18_7 1_555 1_555
H24_7 C18_7 1_555 1_555
H25_7 C18_7 1_555 1_555
C19_7 C17_7 1_555 1_555
H26_3 C19_7 1_555 1_555
H27_7 C19_7 1_555 1_555
H28_7 C19_7 1_555 1_555
C20_3 C16_7 1_555 1_555
C21_7 N5_7 1_555 1_555
H29_7 C21_7 1_555 1_555
C22_7 S5_7 1_555 1_555
C23_7 C22_7 1_555 1_555
H30_7 C23_7 1_555 1_555
H31_7 C23_7 1_555 1_555
H32_7 C23_7 1_555 1_555
C24_7 C22_7 1_555 1_555
H33_7 C24_7 1_555 1_555
H34_7 C24_7 1_555 1_555
H35_7 C24_7 1_555 1_555
C25_7 C21_7 1_555 1_555
C26_7 N6_7 1_555 1_555
H36_7 C26_7 1_555 1_555
C27_7 S6_7 1_555 1_555
C28_7 C27_7 1_555 1_555
H37_7 C28_7 1_555 1_555
H38_7 C28_7 1_555 1_555
H39_7 C28_7 1_555 1_555
C29_7 C27_7 1_555 1_555
H40_7 C29_7 1_555 1_555
H41_7 C29_7 1_555 1_555
H42_7 C29_7 1_555 1_555
C30_7 C26_7 1_555 1_555
H64_7 C46_7 1_555 1_555
C47_7 S10_7 1_555 1_555
C48_7 C47_7 1_555 1_555
H65_7 C48_7 1_555 1_555
H66_7 C48_7 1_555 1_555
H67_7 C48_7 1_555 1_555
C49_7 C46_7 1_555 1_555
C50_7 C47_7 1_555 1_555
H68_7 C50_7 1_555 1_555
H69_7 C50_7 1_555 1_555
H70_7 C50_7 1_555 1_555
C51_7 N11_7 1_555 1_555
H71_7 C51_7 1_555 1_555
C52_7 S11_7 1_555 1_555
C53_7 C52_7 1_555 1_555
H72_7 C53_7 1_555 1_555
H73_7 C53_7 1_555 1_555
H74_7 C53_7 1_555 1_555
C54_7 C52_7 1_555 1_555
H75_7 C54_7 1_555 1_555
H76_7 C54_7 1_555 1_555
C55_7 C51_7 1_555 1_555
C56_7 N12_7 1_555 1_555
H78_7 C56_7 1_555 1_555
C57_7 S12_7 1_555 1_555
C58_7 C57_7 1_555 1_555
H79_7 C58_7 1_555 1_555
H80_7 C58_7 1_555 1_555
H81_7 C58_7 1_555 1_555
C59_7 C57_7 1_555 1_555
H82_7 C59_7 1_555 1_555
H83_7 C59_7 1_555 1_555
H84_7 C59_7 1_555 1_555
C60_7 C56_7 1_555 1_555
Ag4_7 S6_7 1_555 1_555
Ag5_7 S10_7 1_555 1_555
Ag7_7 S11_7 1_555 1_555
Ag8_7 S5_7 1_555 1_555
Ag8_7 S12_7 1_555 1_555
Ni1_7 S2_7 1_555 1_555
Ni2_7 S4_7 1_555 1_555
Ni3_7 S6_7 1_555 1_555
Ni6_7 S12_7 1_555 1_555
C6_7 C7_7 1_555 1_555
C16_7 C17_7 1_555 1_555
C21_7 C22_7 1_555 1_555
C26_7 C27_7 1_555 1_555
C46_7 C47_7 1_555 1_555
C51_7 C52_7 1_555 1_555
C56_7 C57_7 1_555 1_555
O8_3 H89_3 1_555 1_555
O11_7 H90_7 1_555 1_555
O9_7 H91_7 1_555 1_555
O20_7 H92_7 1_555 1_555
O22_7 H93_7 1_555 1_555
N2_7 H94_7 1_555 1_555
N5_7 H108_7 1_555 1_555
N5_7 H109_7 1_555 1_555
N4_7 H111_3 1_555 1_555
N4_7 H112_3 1_555 1_555
O23_7 H113_7 1_555 1_555
N6_7 H114_7 1_555 1_555
N6_7 H115_7 1_555 1_555
N11_7 H122_7 1_555 1_555
N11_7 H123_7 1_555 1_555
N12_7 H126_7 1_555 1_555
N12_7 H127_7 1_555 1_555
O7_4 C20_4 1_555 1_555
O8_4 C20_4 1_555 1_555
O8_4 H89_4 1_555 1_555
O7_5 C20_5 1_555 1_555
O8_5 C20_5 1_555 1_555
O8_5 H89_5 1_555 1_555
O7_6 C20_6 1_555 1_555
O8_6 C20_6 1_555 1_555
O8_6 H89_6 1_555 1_555
O7_7 C20_7 1_555 1_555
O8_7 C20_7 1_555 1_555
O8_7 H89_7 1_555 1_555
H5_8 C4_8 1_555 1_555
O27_8 H96_8 1_555 1_555
O27_8 H97_8 1_555 1_555
Cl1_8 Ag2_8 1_555 1_555
Ag1_8 S1_8 1_555 1_555
Ag2_8 S1_8 1_555 1_555
Ag3_8 S2_8 1_555 1_555
Ag4_8 Cl1_8 1_555 1_555
Ag5_8 Cl1_8 1_555 1_555
Ag7_8 Cl1_8 1_555 1_555
Ag8_8 S4_8 1_555 1_555
Ni1_8 S1_8 1_555 1_555
Ni2_8 S3_8 1_555 1_555
Ni3_8 S5_8 1_555 1_555
Ni6_8 S11_8 1_555 1_555
S1_8 C2_8 1_555 1_555
S2_8 Ag4_8 1_555 1_555
S3_8 Ag5_8 1_555 1_555
S4_8 Ag7_8 1_555 1_555
S5_8 Ag5_8 1_555 1_555
S6_8 Ag1_8 1_555 1_555
S10_8 Ag1_8 1_555 1_555
S11_8 Ag3_8 1_555 1_555
S12_8 Ag4_8 1_555 1_555
O3_8 C10_8 1_555 1_555
O7_8 C20_8 1_555 1_555
O8_8 C20_8 1_555 1_555
O9_8 C25_8 1_555 1_555
O10_8 C25_8 1_555 1_555
O11_8 C30_8 1_555 1_555
O12_8 C30_8 1_555 1_555
O20_8 C49_8 1_555 1_555
O21_8 C55_8 1_555 1_555
O22_8 C55_8 1_555 1_555
O23_8 C60_8 1_555 1_555
O24_8 C60_8 1_555 1_555
N2_8 Ni1_8 1_555 1_555
N4_8 Ni2_8 1_555 1_555
N5_8 Ni3_8 1_555 1_555
N6_8 Ni3_8 1_555 1_555
N11_8 Ni6_8 1_555 1_555
N12_8 Ni6_8 1_555 1_555
C3_8 C2_8 1_555 1_555
H3_8 C3_8 1_555 1_555
C6_8 N2_8 1_555 1_555
H8_8 C6_8 1_555 1_555
C7_8 S2_8 1_555 1_555
C8_8 C7_8 1_555 1_555
H9_8 C8_8 1_555 1_555
H10_8 C8_8 1_555 1_555
H11_8 C8_8 1_555 1_555
C9_8 C7_8 1_555 1_555
H12_8 C9_8 1_555 1_555
H13_8 C9_8 1_555 1_555
H14_8 C9_8 1_555 1_555
C10_8 C6_8 1_555 1_555
H17_8 C13_8 1_555 1_555
H18_8 C13_8 1_555 1_555
C16_8 N4_8 1_555 1_555
H22_8 C16_8 1_555 1_555
C17_8 S4_8 1_555 1_555
C18_8 C17_8 1_555 1_555
H23_8 C18_8 1_555 1_555
H24_8 C18_8 1_555 1_555
H25_8 C18_8 1_555 1_555
C19_8 C17_8 1_555 1_555
H26_8 C19_8 1_555 1_555
H27_8 C19_8 1_555 1_555
H28_8 C19_8 1_555 1_555
C20_8 C16_8 1_555 1_555
C21_8 N5_8 1_555 1_555
H29_8 C21_8 1_555 1_555
C22_8 S5_8 1_555 1_555
C23_8 C22_8 1_555 1_555
H30_8 C23_8 1_555 1_555
H31_8 C23_8 1_555 1_555
H32_8 C23_8 1_555 1_555
C24_8 C22_8 1_555 1_555
H33_8 C24_8 1_555 1_555
H34_8 C24_8 1_555 1_555
H35_8 C24_8 1_555 1_555
C25_8 C21_8 1_555 1_555
C26_8 N6_8 1_555 1_555
H36_8 C26_8 1_555 1_555
C27_8 S6_8 1_555 1_555
C28_8 C27_8 1_555 1_555
H37_8 C28_8 1_555 1_555
H38_8 C28_8 1_555 1_555
H39_8 C28_8 1_555 1_555
C29_8 C27_8 1_555 1_555
H40_8 C29_8 1_555 1_555
H41_8 C29_8 1_555 1_555
H42_8 C29_8 1_555 1_555
C30_8 C26_8 1_555 1_555
H64_8 C46_8 1_555 1_555
C47_8 S10_8 1_555 1_555
C48_8 C47_8 1_555 1_555
H65_8 C48_8 1_555 1_555
H66_8 C48_8 1_555 1_555
H67_8 C48_8 1_555 1_555
C49_8 C46_8 1_555 1_555
C50_8 C47_8 1_555 1_555
H68_8 C50_8 1_555 1_555
H69_8 C50_8 1_555 1_555
H70_8 C50_8 1_555 1_555
C51_8 N11_8 1_555 1_555
H71_8 C51_8 1_555 1_555
C52_8 S11_8 1_555 1_555
C53_8 C52_8 1_555 1_555
H72_8 C53_8 1_555 1_555
H73_8 C53_8 1_555 1_555
H74_8 C53_8 1_555 1_555
C54_8 C52_8 1_555 1_555
H75_8 C54_8 1_555 1_555
H76_8 C54_8 1_555 1_555
C55_8 C51_8 1_555 1_555
C56_8 N12_8 1_555 1_555
H78_8 C56_8 1_555 1_555
C57_8 S12_8 1_555 1_555
C58_8 C57_8 1_555 1_555
H79_8 C58_8 1_555 1_555
H80_8 C58_8 1_555 1_555
H81_8 C58_8 1_555 1_555
C59_8 C57_8 1_555 1_555
H82_8 C59_8 1_555 1_555
H83_8 C59_8 1_555 1_555
H84_8 C59_8 1_555 1_555
C60_8 C56_8 1_555 1_555
Ag4_8 S6_8 1_555 1_555
Ag5_8 S10_8 1_555 1_555
Ag7_8 S11_8 1_555 1_555
Ag8_8 S5_8 1_555 1_555
Ag8_8 S12_8 1_555 1_555
Ni1_8 S2_8 1_555 1_555
Ni2_8 S4_8 1_555 1_555
Ni3_8 S6_8 1_555 1_555
Ni6_8 S12_8 1_555 1_555
C6_8 C7_8 1_555 1_555
C16_8 C17_8 1_555 1_555
C21_8 C22_8 1_555 1_555
C26_8 C27_8 1_555 1_555
C46_8 C47_8 1_555 1_555
C51_8 C52_8 1_555 1_555
C56_8 C57_8 1_555 1_555
O8_8 H89_8 1_555 1_555
O11_8 H90_8 1_555 1_555
O9_8 H91_8 1_555 1_555
O20_8 H92_8 1_555 1_555
O22_8 H93_8 1_555 1_555
N2_8 H94_8 1_555 1_555
N5_8 H108_8 1_555 1_555
N5_8 H109_8 1_555 1_555
N4_8 H111_8 1_555 1_555
N4_8 H112_8 1_555 1_555
O23_8 H113_8 1_555 1_555
N6_8 H114_8 1_555 1_555
N6_8 H115_8 1_555 1_555
N11_8 H122_8 1_555 1_555
N11_8 H123_8 1_555 1_555
N12_8 H126_8 1_555 1_555
N12_8 H127_8 1_555 1_555

#END
