
###############################################################################
#
# This file contains modified crystal structure data generated from the
# MOF subset of the Cambridge Structural Database (CSD) v543 
# hosted by the Cambridge Crystallographic Data Centre (CCDC).
#
# This work is licensed under the Creative Commons
# Attribution-NonCommercial-ShareAlike 4.0 International License.
# To view a copy of this license, visit
# http://creativecommons.org/licenses/by-nc-sa/4.0/
# or send a letter to
# Creative Commons, PO Box 1866, Mountain View, CA 94042, USA.
#
# CIF created using the CSD Python API on 29 September 2022
# The structure has been converted into the P1 space group
# The structure has a 3D framework
# The original CSD entry WIDZUG is in the monoclinic crystal system
# The framework has been calculated to contain at least 10.0% void space
# The void calculation uses a probe of radius 1.32A, grid spacing 0.4
#
###############################################################################

data_WIDZUG
_chemical_formula_moiety         '(C112 H96 Cd8 N32 O32)n'
_symmetry_cell_setting           triclinic
_symmetry_space_group_name_H-M   'P 1'
_symmetry_Int_Tables_number      1
_space_group_name_Hall           'P 1'
loop_
_symmetry_equiv_pos_site_id
_symmetry_equiv_pos_as_xyz
1 x,y,z
_cell_length_a                   24.709(3)
_cell_length_b                   11.5985(12)
_cell_length_c                   14.2484(15)
_cell_angle_alpha                90
_cell_angle_beta                 103.464(7)
_cell_angle_gamma                90
_cell_volume                     3971.18
loop_
_atom_site_label
_atom_site_type_symbol
_atom_site_fract_x
_atom_site_fract_y
_atom_site_fract_z
C1 C 0.33213(14) 0.4024(3) 0.2924(3)
C2 C 0.36425(15) 0.4611(4) 0.3833(3)
H1 H 0.3948 0.4114 0.4140
H2 H 0.3802 0.5317 0.3651
C3 C 0.33088(17) 0.4903(3) 0.4561(3)
H3 H 0.3561 0.5147 0.5156
H4 H 0.3119 0.4215 0.4700
C4 C 0.28856(13) 0.5839(3) 0.4227(2)
C5 C 0.40644(16) 0.2456(4) 0.1335(3)
H5 H 0.4047 0.3255 0.1377
C6 C 0.45659(15) 0.1948(4) 0.1307(3)
H6 H 0.4881 0.2395 0.1328
C7 C 0.45888(14) 0.0769(3) 0.1248(2)
C8 C 0.41169(14) 0.0128(3) 0.1217(3)
C9 C 0.36277(15) 0.0697(3) 0.1243(3)
H8 H 0.3308 0.0264 0.1218
C10 C 0.59928(13) 0.0032(3) 0.1304(2)
C11 C 0.64725(15) 0.0621(3) 0.1253(3)
H9 H 0.6474 0.1420 0.1202
H10 H 0.7274 0.0379 0.1259
N1 N 0.35985(11) 0.1834(3) 0.1302(2)
N2 N 0.50902(12) 0.0128(3) 0.1245(2)
N3 N 0.54969(12) 0.0704(3) 0.1276(2)
O1 O 0.30159(12) 0.3191(2) 0.30228(18)
O2 O 0.33795(11) 0.4336(2) 0.2112(2)
O3 O 0.27121(11) 0.6041(2) 0.33597(17)
O4 O 0.27175(11) 0.6426(3) 0.48417(18)
Cd1 Cd 0.277023(8) 0.278120(17) 0.135749(15)
N5 N 0.19649(11) 0.3837(2) 0.1339(2)
O5 O 0.22879(11) 0.1041(2) 0.16403(17)
O6 O 0.22825(11) 0.1426(3) 0.01583(18)
Cd3 Cd 0.222977(8) 0.778120(17) 0.364251(15)
Cd4 Cd 0.277023(8) 0.721880(17) 0.635749(15)
O7 O 0.27175(11) 0.3574(3) 0.98417(18)
H7 H 0.5874 0.9328 0.3821
C12 C 0.30509(14) 0.9987(3) 0.3719(3)
C13 C 0.35001(16) 0.8297(3) 0.3587(4)
H11 H 0.3489 0.7501 0.3511
C14 C 0.39978(16) 0.8860(4) 0.3619(4)
H12 H 0.4317 0.8450 0.3589
N4 N 0.30351(11) 0.8837(2) 0.3661(2)
C10_2 C 0.09928(13) 0.5032(3) 0.1304(2)
C11_2 C 0.14725(15) 0.5621(3) 0.1253(3)
H9_2 H 0.1474 0.6420 0.1202
C12_2 C 0.19491(14) 0.4987(3) 0.1281(3)
H10_2 H 0.2274 0.5379 0.1259
C13_2 C 0.14999(16) 0.3297(3) 0.1413(4)
H11_2 H 0.1511 0.2501 0.1489
C14_2 C 0.10022(16) 0.3860(4) 0.1381(4)
H12_2 H 0.0683 0.3450 0.1411
N2_2 N 0.00902(12) 0.5128(3) 0.1245(2)
N3_2 N 0.04969(12) 0.5704(3) 0.1276(2)
H2_2 H 0.1198 0.0317 0.1349
C4_2 C 0.21144(13) 0.0839(3) 0.0773(2)
H3_2 H 0.1439 0.0147 0.9844
Cd4_2 Cd 0.222977(8) 0.221880(17) 0.864251(15)
C1_2 C 0.16787(14) 0.9024(3) 0.2076(3)
C2_2 C 0.13575(15) 0.9611(4) 0.1167(3)
H1_2 H 0.1052 0.9114 0.0860
C3_2 C 0.16912(17) 0.9903(3) 0.0439(3)
H4_2 H 0.1881 0.9215 0.0300
C5_2 C 0.09356(16) 0.7456(4) 0.3665(3)
H5_2 H 0.0953 0.8255 0.3623
C6_2 C 0.04341(15) 0.6948(4) 0.3693(3)
H6_2 H 0.0119 0.7395 0.3672
C7_2 C 0.04112(14) 0.5769(3) 0.3752(2)
C8_2 C 0.08831(14) 0.5128(3) 0.3783(3)
H7_2 H 0.0874 0.4328 0.3821
C9_2 C 0.13723(15) 0.5697(3) 0.3757(3)
H8_2 H 0.1692 0.5264 0.3782
N1_2 N 0.14015(11) 0.6834(3) 0.3698(2)
O1_2 O 0.19841(12) 0.8191(2) 0.19772(18)
O2_2 O 0.16205(11) 0.9336(2) 0.2888(2)
O7_2 O 0.22825(11) 0.8574(3) 0.51583(18)
H7_3 H 0.5874 0.0672 0.8821
C12_3 C 0.30509(14) 0.0013(3) 0.8719(3)
C13_3 C 0.35001(16) 0.1703(3) 0.8587(4)
H11_3 H 0.3489 0.2499 0.8511
C14_3 C 0.39978(16) 0.1140(4) 0.8619(4)
H12_3 H 0.4317 0.1550 0.8589
N4_2 N 0.30351(11) 0.1163(2) 0.8661(2)
H3_3 H 0.3561 0.4853 0.0156
C1_3 C 0.33213(14) 0.5976(3) 0.7924(3)
C2_3 C 0.36425(15) 0.5389(4) 0.8833(3)
H1_3 H 0.3948 0.5886 0.9140
H2_3 H 0.3802 0.4683 0.8651
C3_3 C 0.33088(17) 0.5097(3) 0.9561(3)
H4_3 H 0.3119 0.5785 0.9700
C4_3 C 0.28856(13) 0.4161(3) 0.9227(2)
C5_3 C 0.40644(16) 0.7544(4) 0.6335(3)
H5_3 H 0.4047 0.6745 0.6377
C6_3 C 0.45659(15) 0.8052(4) 0.6307(3)
H6_3 H 0.4881 0.7605 0.6328
C7_3 C 0.45888(14) 0.9231(3) 0.6248(2)
C8_3 C 0.41169(14) 0.9872(3) 0.6217(3)
C9_3 C 0.36277(15) 0.9303(3) 0.6243(3)
H8_3 H 0.3308 0.9736 0.6218
C10_3 C 0.59928(13) 0.9968(3) 0.6304(2)
C11_3 C 0.64725(15) 0.9379(3) 0.6253(3)
H9_3 H 0.6474 0.8580 0.6202
H10_3 H 0.7274 0.9621 0.6259
N1_3 N 0.35985(11) 0.8166(3) 0.6302(2)
N2_3 N 0.50902(12) 0.9872(3) 0.6245(2)
N3_3 N 0.54969(12) 0.9296(3) 0.6276(2)
O1_3 O 0.30159(12) 0.6809(2) 0.80228(18)
O2_3 O 0.33795(11) 0.5664(2) 0.7112(2)
O3_2 O 0.27121(11) 0.3959(2) 0.83597(17)
N5_2 N 0.19649(11) 0.6163(2) 0.6339(2)
O5_2 O 0.22879(11) 0.8959(2) 0.66403(17)
C1_4 C 0.16787(14) 0.0976(3) 0.7076(3)
C2_4 C 0.13575(15) 0.0389(4) 0.6167(3)
H1_4 H 0.1052 0.0886 0.5860
C3_4 C 0.16912(17) 0.0097(3) 0.5439(3)
H4_4 H 0.1881 0.0785 0.5300
C5_4 C 0.09356(16) 0.2544(4) 0.8665(3)
H5_4 H 0.0953 0.1745 0.8623
C6_4 C 0.04341(15) 0.3052(4) 0.8693(3)
H6_4 H 0.0119 0.2605 0.8672
C7_4 C 0.04112(14) 0.4231(3) 0.8752(2)
C8_4 C 0.08831(14) 0.4872(3) 0.8783(3)
H7_4 H 0.0874 0.5672 0.8821
C9_4 C 0.13723(15) 0.4303(3) 0.8757(3)
H8_4 H 0.1692 0.4736 0.8782
N1_4 N 0.14015(11) 0.3166(3) 0.8698(2)
O1_4 O 0.19841(12) 0.1809(2) 0.69772(18)
O2_4 O 0.16205(11) 0.0664(2) 0.7888(2)
H2_4 H 0.1198 0.9683 0.6349
H3_4 H 0.1439 0.9853 0.4844
C4_4 C 0.21144(13) 0.9161(3) 0.5773(2)
C10_4 C 0.09928(13) 0.4968(3) 0.6304(2)
C11_4 C 0.14725(15) 0.4379(3) 0.6253(3)
H9_4 H 0.1474 0.3580 0.6202
C12_4 C 0.19491(14) 0.5013(3) 0.6281(3)
H10_4 H 0.2274 0.4621 0.6259
C13_4 C 0.14999(16) 0.6703(3) 0.6413(4)
H11_4 H 0.1511 0.7499 0.6489
C14_4 C 0.10022(16) 0.6140(4) 0.6381(4)
H12_4 H 0.0683 0.6550 0.6411
N2_4 N 0.00902(12) 0.4872(3) 0.6245(2)
N3_4 N 0.04969(12) 0.4296(3) 0.6276(2)
H7_5 H 0.4126 0.9328 0.1179
C12_5 C 0.69491(14) 0.9987(3) 0.1281(3)
C13_5 C 0.64999(16) 0.8297(3) 0.1413(4)
H11_5 H 0.6511 0.7501 0.1489
C14_5 C 0.60022(16) 0.8860(4) 0.1381(4)
H12_5 H 0.5683 0.8450 0.1411
N4_3 N 0.69649(11) 0.8837(2) 0.1339(2)
Cd2 Cd 0.777023(8) 0.778120(17) 0.135749(15)
C1_5 C 0.66787(14) 0.4024(3) 0.2076(3)
C2_5 C 0.63575(15) 0.4611(4) 0.1167(3)
H1_5 H 0.6052 0.4114 0.0860
H2_5 H 0.6198 0.5317 0.1349
C3_5 C 0.66912(17) 0.4903(3) 0.0439(3)
H4_5 H 0.6881 0.4215 0.0300
C4_5 C 0.71144(13) 0.5839(3) 0.0773(2)
C5_5 C 0.59356(16) 0.2456(4) 0.3665(3)
H5_5 H 0.5953 0.3255 0.3623
C6_5 C 0.54341(15) 0.1948(4) 0.3693(3)
H6_5 H 0.5119 0.2395 0.3672
C7_5 C 0.54112(14) 0.0769(3) 0.3752(2)
C8_5 C 0.58831(14) 0.0128(3) 0.3783(3)
C9_5 C 0.63723(15) 0.0697(3) 0.3757(3)
H8_5 H 0.6692 0.0264 0.3782
C10_5 C 0.40072(13) 0.0032(3) 0.3696(2)
C11_5 C 0.35275(15) 0.0621(3) 0.3747(3)
H9_5 H 0.3526 0.1420 0.3798
H10_5 H 0.2726 0.0379 0.3741
N1_5 N 0.64015(11) 0.1834(3) 0.3698(2)
N2_5 N 0.49098(12) 0.0128(3) 0.3755(2)
N3_5 N 0.45031(12) 0.0704(3) 0.3724(2)
O1_5 O 0.69841(12) 0.3191(2) 0.19772(18)
O2_5 O 0.66205(11) 0.4336(2) 0.2888(2)
O3_3 O 0.72879(11) 0.6041(2) 0.16403(17)
O4_2 O 0.72825(11) 0.6426(3) 0.01583(18)
Cd1_2 Cd 0.722977(8) 0.278120(17) 0.364251(15)
N5_3 N 0.80351(11) 0.3837(2) 0.3661(2)
O5_3 O 0.77121(11) 0.1041(2) 0.33597(17)
O6_2 O 0.77175(11) 0.1426(3) 0.48417(18)
O7_3 O 0.72825(11) 0.3574(3) 0.51583(18)
H3_5 H 0.6439 0.5147 0.9844
Cd4_3 Cd 0.722977(8) 0.721880(17) 0.864251(15)
H2_6 H 0.8802 0.0317 0.3651
H3_6 H 0.8561 0.0147 0.5156
C4_6 C 0.78856(13) 0.0839(3) 0.4227(2)
Cd4_4 Cd 0.777023(8) 0.221880(17) 0.635749(15)
C1_6 C 0.83213(14) 0.9024(3) 0.2924(3)
C2_6 C 0.86425(15) 0.9611(4) 0.3833(3)
H1_6 H 0.8948 0.9114 0.4140
C3_6 C 0.83088(17) 0.9903(3) 0.4561(3)
H4_6 H 0.8119 0.9215 0.4700
C5_6 C 0.90644(16) 0.7456(4) 0.1335(3)
H5_6 H 0.9047 0.8255 0.1377
C6_6 C 0.95659(15) 0.6948(4) 0.1307(3)
H6_6 H 0.9881 0.7395 0.1328
C7_6 C 0.95888(14) 0.5769(3) 0.1248(2)
C8_6 C 0.91169(14) 0.5128(3) 0.1217(3)
H7_6 H 0.9126 0.4328 0.1179
C9_6 C 0.86277(15) 0.5697(3) 0.1243(3)
H8_6 H 0.8308 0.5264 0.1218
N1_6 N 0.85985(11) 0.6834(3) 0.1302(2)
O1_6 O 0.80159(12) 0.8191(2) 0.30228(18)
O2_6 O 0.83795(11) 0.9336(2) 0.2112(2)
O7_4 O 0.77175(11) 0.8574(3) 0.98417(18)
C10_6 C 0.90072(13) 0.5032(3) 0.3696(2)
C11_6 C 0.85275(15) 0.5621(3) 0.3747(3)
H9_6 H 0.8526 0.6420 0.3798
C12_6 C 0.80509(14) 0.4987(3) 0.3719(3)
H10_6 H 0.7726 0.5379 0.3741
C13_6 C 0.85001(16) 0.3297(3) 0.3587(4)
H11_6 H 0.8489 0.2501 0.3511
C14_6 C 0.89978(16) 0.3860(4) 0.3619(4)
H12_6 H 0.9317 0.3450 0.3589
N2_6 N 0.99098(12) 0.5128(3) 0.3755(2)
N3_6 N 0.95031(12) 0.5704(3) 0.3724(2)
C1_7 C 0.66787(14) 0.5976(3) 0.7076(3)
C2_7 C 0.63575(15) 0.5389(4) 0.6167(3)
H1_7 H 0.6052 0.5886 0.5860
H2_7 H 0.6198 0.4683 0.6349
C3_7 C 0.66912(17) 0.5097(3) 0.5439(3)
H3_7 H 0.6439 0.4853 0.4844
H4_7 H 0.6881 0.5785 0.5300
C4_7 C 0.71144(13) 0.4161(3) 0.5773(2)
C5_7 C 0.59356(16) 0.7544(4) 0.8665(3)
H5_7 H 0.5953 0.6745 0.8623
C6_7 C 0.54341(15) 0.8052(4) 0.8693(3)
H6_7 H 0.5119 0.7605 0.8672
C7_7 C 0.54112(14) 0.9231(3) 0.8752(2)
C8_7 C 0.58831(14) 0.9872(3) 0.8783(3)
C9_7 C 0.63723(15) 0.9303(3) 0.8757(3)
H8_7 H 0.6692 0.9736 0.8782
C10_7 C 0.40072(13) 0.9968(3) 0.8696(2)
C11_7 C 0.35275(15) 0.9379(3) 0.8747(3)
H9_7 H 0.3526 0.8580 0.8798
H10_7 H 0.2726 0.9621 0.8741
N1_7 N 0.64015(11) 0.8166(3) 0.8698(2)
N2_7 N 0.49098(12) 0.9872(3) 0.8755(2)
N3_7 N 0.45031(12) 0.9296(3) 0.8724(2)
O1_7 O 0.69841(12) 0.6809(2) 0.69772(18)
O2_7 O 0.66205(11) 0.5664(2) 0.7888(2)
O3_4 O 0.72879(11) 0.3959(2) 0.66403(17)
N5_4 N 0.80351(11) 0.6163(2) 0.8661(2)
O5_4 O 0.77121(11) 0.8959(2) 0.83597(17)
H7_7 H 0.4126 0.0672 0.6179
C12_7 C 0.69491(14) 0.0013(3) 0.6281(3)
C13_7 C 0.64999(16) 0.1703(3) 0.6413(4)
H11_7 H 0.6511 0.2499 0.6489
C14_7 C 0.60022(16) 0.1140(4) 0.6381(4)
H12_7 H 0.5683 0.1550 0.6411
N4_4 N 0.69649(11) 0.1163(2) 0.6339(2)
C10_8 C 0.90072(13) 0.4968(3) 0.8696(2)
C11_8 C 0.85275(15) 0.4379(3) 0.8747(3)
H9_8 H 0.8526 0.3580 0.8798
C12_8 C 0.80509(14) 0.5013(3) 0.8719(3)
H10_8 H 0.7726 0.4621 0.8741
C13_8 C 0.85001(16) 0.6703(3) 0.8587(4)
H11_8 H 0.8489 0.7499 0.8511
C14_8 C 0.89978(16) 0.6140(4) 0.8619(4)
H12_8 H 0.9317 0.6550 0.8589
N2_8 N 0.99098(12) 0.4872(3) 0.8755(2)
N3_8 N 0.95031(12) 0.4296(3) 0.8724(2)
C1_8 C 0.83213(14) 0.0976(3) 0.7924(3)
C2_8 C 0.86425(15) 0.0389(4) 0.8833(3)
H1_8 H 0.8948 0.0886 0.9140
C3_8 C 0.83088(17) 0.0097(3) 0.9561(3)
H4_8 H 0.8119 0.0785 0.9700
C5_8 C 0.90644(16) 0.2544(4) 0.6335(3)
H5_8 H 0.9047 0.1745 0.6377
C6_8 C 0.95659(15) 0.3052(4) 0.6307(3)
H6_8 H 0.9881 0.2605 0.6328
C7_8 C 0.95888(14) 0.4231(3) 0.6248(2)
C8_8 C 0.91169(14) 0.4872(3) 0.6217(3)
H7_8 H 0.9126 0.5672 0.6179
C9_8 C 0.86277(15) 0.4303(3) 0.6243(3)
H8_8 H 0.8308 0.4736 0.6218
N1_8 N 0.85985(11) 0.3166(3) 0.6302(2)
O1_8 O 0.80159(12) 0.1809(2) 0.80228(18)
O2_8 O 0.83795(11) 0.0664(2) 0.7112(2)
H3_8 H 0.8561 0.9853 0.0156
H2_8 H 0.8802 0.9683 0.8651
C4_8 C 0.78856(13) 0.9161(3) 0.9227(2)
loop_
_geom_bond_atom_site_label_1
_geom_bond_atom_site_label_2
_geom_bond_site_symmetry_1
_geom_bond_site_symmetry_2
C1 C2 1_555 1_555
C2 H1 1_555 1_555
H2 C2 1_555 1_555
C3 C2 1_555 1_555
H3 C3 1_555 1_555
H4 C3 1_555 1_555
C4 C3 1_555 1_555
C5 H5 1_555 1_555
C6 C5 1_555 1_555
H6 C6 1_555 1_555
C7 C6 1_555 1_555
C8 C7 1_555 1_555
C9 C8 1_555 1_555
H8 C9 1_555 1_555
C10 C11 1_555 1_555
C11 H9 1_555 1_555
N1 C5 1_555 1_555
N2 C7 1_555 1_555
N3 C10 1_555 1_555
O1 C1 1_555 1_555
O2 C1 1_555 1_555
O3 C4 1_555 1_555
O4 C4 1_555 1_555
Cd1 N1 1_555 1_555
N5 Cd1 1_555 1_555
O5 Cd1 1_555 1_555
O6 Cd1 1_555 1_555
Cd3 O3 1_555 1_555
Cd4 O4 1_555 1_555
C9 N1 1_555 1_555
N2 N3 1_555 1_555
O1 Cd1 1_555 1_555
O2 Cd1 1_555 1_555
O4 Cd3 1_555 1_555
C13 H11 1_555 1_555
H12 C14 1_555 1_555
N4 C12 1_555 1_555
Cd3 N4 1_555 1_555
C13 C14 1_555 1_555
C13 N4 1_555 1_555
C10_2 C11_2 1_555 1_555
C11_2 H9_2 1_555 1_555
C12_2 C11_2 1_555 1_555
H10_2 C12_2 1_555 1_555
C13_2 H11_2 1_555 1_555
C14_2 C10_2 1_555 1_555
H12_2 C14_2 1_555 1_555
N3_2 C10_2 1_555 1_555
N5 C12_2 1_555 1_555
C13_2 C14_2 1_555 1_555
C13_2 N5 1_555 1_555
N2_2 N3_2 1_555 1_555
O5 C4_2 1_555 1_555
O6 C4_2 1_555 1_555
C1_2 C2_2 1_555 1_555
C2_2 H1_2 1_555 1_555
C3_2 C2_2 1_555 1_555
H4_2 C3_2 1_555 1_555
C5_2 H5_2 1_555 1_555
C6_2 C5_2 1_555 1_555
H6_2 C6_2 1_555 1_555
C7_2 C6_2 1_555 1_555
C8_2 C7_2 1_555 1_555
H7_2 C8_2 1_555 1_555
C9_2 C8_2 1_555 1_555
H8_2 C9_2 1_555 1_555
N1_2 C5_2 1_555 1_555
O1_2 C1_2 1_555 1_555
O2_2 C1_2 1_555 1_555
Cd3 N1_2 1_555 1_555
O7_2 Cd3 1_555 1_555
C9_2 N1_2 1_555 1_555
O1_2 Cd3 1_555 1_555
O2_2 Cd3 1_555 1_555
C13_3 H11_3 1_555 1_555
H12_3 C14_3 1_555 1_555
N4_2 C12_3 1_555 1_555
Cd4_2 N4_2 1_555 1_555
C13_3 C14_3 1_555 1_555
C13_3 N4_2 1_555 1_555
C1_3 C2_3 1_555 1_555
C2_3 H1_3 1_555 1_555
H2_3 C2_3 1_555 1_555
C3_3 C2_3 1_555 1_555
H4_3 C3_3 1_555 1_555
C4_3 C3_3 1_555 1_555
C5_3 H5_3 1_555 1_555
C6_3 C5_3 1_555 1_555
H6_3 C6_3 1_555 1_555
C7_3 C6_3 1_555 1_555
C8_3 C7_3 1_555 1_555
C9_3 C8_3 1_555 1_555
H8_3 C9_3 1_555 1_555
C10_3 C11_3 1_555 1_555
C11_3 H9_3 1_555 1_555
N1_3 C5_3 1_555 1_555
N2_3 C7_3 1_555 1_555
N3_3 C10_3 1_555 1_555
O1_3 C1_3 1_555 1_555
O2_3 C1_3 1_555 1_555
O3_2 C4_3 1_555 1_555
O7 C4_3 1_555 1_555
Cd4 N1_3 1_555 1_555
N5_2 Cd4 1_555 1_555
O5_2 Cd4 1_555 1_555
O7_2 Cd4 1_555 1_555
Cd4_2 O3_2 1_555 1_555
C9_3 N1_3 1_555 1_555
N2_3 N3_3 1_555 1_555
O1_3 Cd4 1_555 1_555
O2_3 Cd4 1_555 1_555
O7 Cd4_2 1_555 1_555
C1_4 C2_4 1_555 1_555
C2_4 H1_4 1_555 1_555
C3_4 C2_4 1_555 1_555
H4_4 C3_4 1_555 1_555
C5_4 H5_4 1_555 1_555
C6_4 C5_4 1_555 1_555
H6_4 C6_4 1_555 1_555
C7_4 C6_4 1_555 1_555
C8_4 C7_4 1_555 1_555
H7_4 C8_4 1_555 1_555
C9_4 C8_4 1_555 1_555
H8_4 C9_4 1_555 1_555
N1_4 C5_4 1_555 1_555
O1_4 C1_4 1_555 1_555
O2_4 C1_4 1_555 1_555
Cd4_2 N1_4 1_555 1_555
C9_4 N1_4 1_555 1_555
O1_4 Cd4_2 1_555 1_555
O2_4 Cd4_2 1_555 1_555
O5_2 C4_4 1_555 1_555
O7_2 C4_4 1_555 1_555
C10_4 C11_4 1_555 1_555
C11_4 H9_4 1_555 1_555
C12_4 C11_4 1_555 1_555
H10_4 C12_4 1_555 1_555
C13_4 H11_4 1_555 1_555
C14_4 C10_4 1_555 1_555
H12_4 C14_4 1_555 1_555
N3_4 C10_4 1_555 1_555
N5_2 C12_4 1_555 1_555
C13_4 C14_4 1_555 1_555
C13_4 N5_2 1_555 1_555
N2_4 N3_4 1_555 1_555
C13_5 H11_5 1_555 1_555
H12_5 C14_5 1_555 1_555
N4_3 C12_5 1_555 1_555
Cd2 N4_3 1_555 1_555
C13_5 C14_5 1_555 1_555
C13_5 N4_3 1_555 1_555
C1_5 C2_5 1_555 1_555
C2_5 H1_5 1_555 1_555
H2_5 C2_5 1_555 1_555
C3_5 C2_5 1_555 1_555
H4_5 C3_5 1_555 1_555
C4_5 C3_5 1_555 1_555
C5_5 H5_5 1_555 1_555
C6_5 C5_5 1_555 1_555
H6_5 C6_5 1_555 1_555
C7_5 C6_5 1_555 1_555
C8_5 C7_5 1_555 1_555
C9_5 C8_5 1_555 1_555
H8_5 C9_5 1_555 1_555
C10_5 C11_5 1_555 1_555
C11_5 H9_5 1_555 1_555
N1_5 C5_5 1_555 1_555
N2_5 C7_5 1_555 1_555
N3_5 C10_5 1_555 1_555
O1_5 C1_5 1_555 1_555
O2_5 C1_5 1_555 1_555
O3_3 C4_5 1_555 1_555
O4_2 C4_5 1_555 1_555
Cd1_2 N1_5 1_555 1_555
N5_3 Cd1_2 1_555 1_555
O5_3 Cd1_2 1_555 1_555
O6_2 Cd1_2 1_555 1_555
O7_3 Cd1_2 1_555 1_555
Cd2 O3_3 1_555 1_555
C9_5 N1_5 1_555 1_555
N2_5 N3_5 1_555 1_555
O1_5 Cd1_2 1_555 1_555
O2_5 Cd1_2 1_555 1_555
O4_2 Cd2 1_555 1_555
O5_3 C4_6 1_555 1_555
O6_2 C4_6 1_555 1_555
Cd4_4 O6_2 1_555 1_555
C1_6 C2_6 1_555 1_555
C2_6 H1_6 1_555 1_555
C3_6 C2_6 1_555 1_555
H4_6 C3_6 1_555 1_555
C5_6 H5_6 1_555 1_555
C6_6 C5_6 1_555 1_555
H6_6 C6_6 1_555 1_555
C7_6 C6_6 1_555 1_555
C8_6 C7_6 1_555 1_555
H7_6 C8_6 1_555 1_555
C9_6 C8_6 1_555 1_555
H8_6 C9_6 1_555 1_555
N1_6 C5_6 1_555 1_555
O1_6 C1_6 1_555 1_555
O2_6 C1_6 1_555 1_555
Cd2 N1_6 1_555 1_555
C9_6 N1_6 1_555 1_555
O1_6 Cd2 1_555 1_555
O2_6 Cd2 1_555 1_555
C10_6 C11_6 1_555 1_555
C11_6 H9_6 1_555 1_555
C12_6 C11_6 1_555 1_555
H10_6 C12_6 1_555 1_555
C13_6 H11_6 1_555 1_555
C14_6 C10_6 1_555 1_555
H12_6 C14_6 1_555 1_555
N3_6 C10_6 1_555 1_555
N5_3 C12_6 1_555 1_555
C13_6 C14_6 1_555 1_555
C13_6 N5_3 1_555 1_555
N2_6 N3_6 1_555 1_555
C1_7 C2_7 1_555 1_555
C2_7 H1_7 1_555 1_555
H2_7 C2_7 1_555 1_555
C3_7 C2_7 1_555 1_555
H3_7 C3_7 1_555 1_555
H4_7 C3_7 1_555 1_555
C4_7 C3_7 1_555 1_555
C5_7 H5_7 1_555 1_555
C6_7 C5_7 1_555 1_555
H6_7 C6_7 1_555 1_555
C7_7 C6_7 1_555 1_555
C8_7 C7_7 1_555 1_555
C9_7 C8_7 1_555 1_555
H8_7 C9_7 1_555 1_555
C10_7 C11_7 1_555 1_555
C11_7 H9_7 1_555 1_555
N1_7 C5_7 1_555 1_555
N2_7 C7_7 1_555 1_555
N3_7 C10_7 1_555 1_555
O1_7 C1_7 1_555 1_555
O2_7 C1_7 1_555 1_555
O3_4 C4_7 1_555 1_555
O7_3 C4_7 1_555 1_555
Cd4_3 N1_7 1_555 1_555
N5_4 Cd4_3 1_555 1_555
O5_4 Cd4_3 1_555 1_555
O7_4 Cd4_3 1_555 1_555
Cd4_4 O3_4 1_555 1_555
C9_7 N1_7 1_555 1_555
N2_7 N3_7 1_555 1_555
O1_7 Cd4_3 1_555 1_555
O2_7 Cd4_3 1_555 1_555
O7_3 Cd4_4 1_555 1_555
C13_7 H11_7 1_555 1_555
H12_7 C14_7 1_555 1_555
N4_4 C12_7 1_555 1_555
Cd4_4 N4_4 1_555 1_555
C13_7 C14_7 1_555 1_555
C13_7 N4_4 1_555 1_555
C10_8 C11_8 1_555 1_555
C11_8 H9_8 1_555 1_555
C12_8 C11_8 1_555 1_555
H10_8 C12_8 1_555 1_555
C13_8 H11_8 1_555 1_555
C14_8 C10_8 1_555 1_555
H12_8 C14_8 1_555 1_555
N3_8 C10_8 1_555 1_555
N5_4 C12_8 1_555 1_555
C13_8 C14_8 1_555 1_555
C13_8 N5_4 1_555 1_555
N2_8 N3_8 1_555 1_555
C1_8 C2_8 1_555 1_555
C2_8 H1_8 1_555 1_555
C3_8 C2_8 1_555 1_555
H4_8 C3_8 1_555 1_555
C5_8 H5_8 1_555 1_555
C6_8 C5_8 1_555 1_555
H6_8 C6_8 1_555 1_555
C7_8 C6_8 1_555 1_555
C8_8 C7_8 1_555 1_555
H7_8 C8_8 1_555 1_555
C9_8 C8_8 1_555 1_555
H8_8 C9_8 1_555 1_555
N1_8 C5_8 1_555 1_555
O1_8 C1_8 1_555 1_555
O2_8 C1_8 1_555 1_555
Cd4_4 N1_8 1_555 1_555
C9_8 N1_8 1_555 1_555
O1_8 Cd4_4 1_555 1_555
O2_8 Cd4_4 1_555 1_555
O5_4 C4_8 1_555 1_555
O7_4 C4_8 1_555 1_555

#END
