
###############################################################################
#
# This file contains modified crystal structure data generated from the
# MOF subset of the Cambridge Structural Database (CSD) v543 
# hosted by the Cambridge Crystallographic Data Centre (CCDC).
#
# This work is licensed under the Creative Commons
# Attribution-NonCommercial-ShareAlike 4.0 International License.
# To view a copy of this license, visit
# http://creativecommons.org/licenses/by-nc-sa/4.0/
# or send a letter to
# Creative Commons, PO Box 1866, Mountain View, CA 94042, USA.
#
# CIF created using the CSD Python API on 29 September 2022
# The structure has been converted into the P1 space group
# The structure has a 3D framework
# The original CSD entry WIDZIU is in the monoclinic crystal system
# The framework has been calculated to contain at least 10.0% void space
# The void calculation uses a probe of radius 1.32A, grid spacing 0.4
# The framework is charged, counterions have been retained in the structure
#
###############################################################################

data_WIDZIU
_chemical_formula_moiety         '(C180 H192 Cd12 N32 O60 6-)n'
_symmetry_cell_setting           triclinic
_symmetry_space_group_name_H-M   'P 1'
_symmetry_Int_Tables_number      1
_space_group_name_Hall           'P 1'
loop_
_symmetry_equiv_pos_site_id
_symmetry_equiv_pos_as_xyz
1 x,y,z
_cell_length_a                   23.7901(9)
_cell_length_b                   8.6694(3)
_cell_length_c                   29.5375(9)
_cell_angle_alpha                90
_cell_angle_beta                 113.205(3)
_cell_angle_gamma                90
_cell_volume                     5599.15
loop_
_atom_site_label
_atom_site_type_symbol
_atom_site_fract_x
_atom_site_fract_y
_atom_site_fract_z
C25 C 0.0219(2) 0.2153(5) 0.50420(18)
O8 O 0.07562(17) 0.2174(5) 0.50674(16)
Cd9 Cd 0.082949(14) 0.49158(4) 0.503586(11)
C33 C 0.1354(3) 0.3325(7) 0.1062(2)
H35 H 0.1345 0.2534 0.0847
C34 C 0.1560(3) 0.3002(7) 0.1560(2)
H36 H 0.1679 0.2003 0.1673
C35 C 0.1590(3) 0.4153(7) 0.18906(19)
C36 C 0.1393(3) 0.5611(7) 0.1699(2)
H37 H 0.1405 0.6427 0.1907
C37 C 0.1178(2) 0.5838(7) 0.11948(18)
H38 H 0.1035 0.6811 0.1070
C38 C 0.1796(4) 0.3756(9) 0.2434(2)
H39 H 0.1448 0.3343 0.2487
H40 H 0.2100 0.2945 0.2512
C39 C 0.2059(3) 0.5066(9) 0.2788(2)
H41 H 0.2434 0.5420 0.2765
H42 H 0.1772 0.5918 0.2700
C40 C 0.2191(3) 0.4567(8) 0.3306(2)
C41 C 0.1743(3) 0.4619(12) 0.3492(2)
H43 H 0.1365 0.5054 0.3305
C42 C 0.1849(3) 0.4035(12) 0.3950(2)
H44 H 0.1531 0.4041 0.4058
C43 C 0.2825(3) 0.3475(9) 0.4076(2)
H45 H 0.3210 0.3117 0.4281
C44 C 0.2742(3) 0.3991(9) 0.3613(2)
H46 H 0.3063 0.3946 0.3509
N5 N 0.1168(2) 0.4727(5) 0.08793(15)
N6 N 0.2385(2) 0.3461(6) 0.42453(15)
Cd3 Cd 0.082949(14) 0.50842(4) 0.003586(11)
O11 O 0.15125(16) 0.3183(4) 0.00426(14)
O12 O 0.19119(16) 0.5479(4) 0.00996(14)
O14 O 0.07562(17) 0.7826(5) 0.00674(16)
Cd5 Cd 0.2500 0.2500 0.5000
C16 C 0.0132(3) 0.9340(7) 0.4963(4)
H15 H 0.0539 0.9258 0.5220
H16 H 0.0176 0.9426 0.4651
C18 C 0.0000(3) 0.6165(10) 0.6612(2)
H18 H 0.0158 0.7048 0.6797
C22 C 0.0233(3) 0.4686(12) 0.7401(2)
H21 H 0.0466 0.3737 0.7498
H22 H 0.0511 0.5536 0.7545
O5 O 0.00494(18) 0.6625(5) 0.49648(16)
C27 C 0.0216(3) 0.6237(8) 0.8895(2)
H29 H 0.0199 0.7174 0.9042
C28 C 0.0000(3) 0.6165(10) 0.8388(2)
C29 C 0.0015(3) 0.4827(10) 0.8156(2)
C30 C 0.0253(3) 0.3555(9) 0.8450(2)
H31 H 0.0268 0.2608 0.8308
C31 C 0.0470(3) 0.3691(8) 0.8960(2)
H32 H 0.0636 0.2827 0.9153
N4 N 0.0449(2) 0.5021(6) 0.91814(15)
O17 O 0.00494(18) 0.3375(5) 0.99648(16)
C26 C 0.9868(3) 0.0660(7) 0.5037(4)
H27 H 0.9461 0.0742 0.4780
H28 H 0.9824 0.0574 0.5349
O9 O 0.99506(18) 0.3375(5) 0.50352(16)
Cd7 Cd 0.917051(14) 0.50842(4) 0.496414(11)
O15 O 0.99506(18) 0.6625(5) 0.00352(16)
C1 C 0.8646(3) 0.3325(7) 0.3938(2)
H1 H 0.8655 0.2534 0.4153
C2 C 0.8440(3) 0.3002(7) 0.3440(2)
H2 H 0.8321 0.2003 0.3327
C3 C 0.8410(3) 0.4153(7) 0.31094(19)
C4 C 0.8607(3) 0.5611(7) 0.3301(2)
H3 H 0.8595 0.6427 0.3093
C5 C 0.8822(2) 0.5838(7) 0.38052(18)
H4 H 0.8965 0.6811 0.3930
C6 C 0.8204(4) 0.3756(9) 0.2566(2)
H5 H 0.8552 0.3343 0.2513
H6 H 0.7900 0.2945 0.2488
C7 C 0.7941(3) 0.5066(9) 0.2212(2)
H7 H 0.7566 0.5420 0.2235
H8 H 0.8228 0.5918 0.2300
C8 C 0.7809(3) 0.4567(8) 0.1694(2)
C9 C 0.8257(3) 0.4619(12) 0.1508(2)
H9 H 0.8635 0.5054 0.1695
C10 C 0.8151(3) 0.4035(12) 0.1050(2)
H10 H 0.8469 0.4041 0.0942
C11 C 0.7175(3) 0.3475(9) 0.0924(2)
H11 H 0.6790 0.3117 0.0719
C12 C 0.7258(3) 0.3991(9) 0.1387(2)
H12 H 0.6937 0.3946 0.1491
C13 C 0.8049(2) 0.4018(6) 0.49280(19)
C14 C 0.7474(3) 0.3313(6) 0.4926(3)
H13 H 0.7342 0.3903 0.5145
H14 H 0.7158 0.3402 0.4596
C15 C 0.9781(2) 0.7847(5) 0.49580(18)
C17 C 0.9784(3) 0.6237(8) 0.6105(2)
H17 H 0.9801 0.7174 0.5958
C18_2 C 1.0000(3) 0.6165(10) 0.6612(2)
C19 C 0.9985(3) 0.4827(10) 0.6844(2)
C20 C 0.9747(3) 0.3555(9) 0.6550(2)
H19 H 0.9732 0.2608 0.6692
C21 C 0.9530(3) 0.3691(8) 0.6040(2)
H20 H 0.9364 0.2827 0.5847
N1 N 0.8832(2) 0.4727(5) 0.41207(15)
N2 N 0.7615(2) 0.3461(6) 0.07547(15)
N3 N 0.9551(2) 0.5021(6) 0.58186(15)
O1 O 0.84875(16) 0.3183(4) 0.49574(14)
O2 O 0.80881(16) 0.5479(4) 0.49004(14)
O3 O 0.65483(17) 0.6337(6) 0.46356(16)
H23 H 0.6518 0.5789 0.4369
H24 H 0.6475 0.5684 0.4842
O4 O 0.92438(17) 0.7826(5) 0.49326(16)
Cd1 Cd 0.7500 0.7500 0.5000
C23 C 0.6951(2) 0.0982(6) 0.50720(19)
C24 C 0.7526(3) 0.1687(6) 0.5074(3)
H25 H 0.7658 0.1097 0.4855
H26 H 0.7842 0.1598 0.5404
O6 O 0.65125(16) 0.1817(4) 0.50426(14)
C28_2 C 1.0000(3) 0.6165(10) 0.8388(2)
H30 H 0.9842 0.7048 0.8203
C32 C 0.9767(3) 0.4686(12) 0.7599(2)
H33 H 0.9534 0.3737 0.7502
H34 H 0.9489 0.5536 0.7455
O10 O 0.84517(17) 0.8663(6) 0.53644(16)
H47 H 0.8482 0.9211 0.5631
H48 H 0.8525 0.9316 0.5158
N7 N 0.7385(2) 0.8461(6) 0.42453(15)
N8 N 0.7615(2) 0.6539(6) 0.57547(15)
O13 O 0.69119(16) 0.9521(4) 0.50996(14)
Cd6 Cd 0.7500 0.2500 0.0000
Cd6_2 Cd 0.7500 0.2500 1.0000
Cd10 Cd 0.582949(14) 0.99158(4) 0.503586(11)
H27_2 H 0.0539 0.0742 0.0220
C26_2 C 0.0132(3) 0.0660(7) 0.9963(4)
H28_2 H 0.0176 0.0574 0.9651
C13_2 C 0.1951(2) 0.4018(6) 0.00720(19)
C14_2 C 0.2526(3) 0.3313(6) 0.0074(3)
H14_2 H 0.2842 0.3402 0.0404
C15_2 C 0.0219(2) 0.7847(5) 0.00420(18)
O3_2 O 0.34517(17) 0.6337(6) 0.03644(16)
H23_2 H 0.3482 0.5789 0.0631
H24_2 H 0.3525 0.5684 0.0158
Cd1_2 Cd 0.2500 0.7500 0.0000
H25_2 H 0.2342 0.1097 0.0145
N7_2 N 0.2615(2) 0.8461(6) 0.07547(15)
H13_2 H 0.2658 0.3903 0.9855
Cd1_3 Cd 0.2500 0.7500 1.0000
C23_2 C 0.3049(2) 0.0982(6) 0.99280(19)
C24_2 C 0.2474(3) 0.1687(6) 0.9926(3)
H26_2 H 0.2158 0.1598 0.9596
O6_2 O 0.34875(16) 0.1817(4) 0.99574(14)
O10_2 O 0.15483(17) 0.8663(6) 0.96356(16)
H47_2 H 0.1518 0.9211 0.9369
H48_2 H 0.1475 0.9316 0.9842
N8_2 N 0.2385(2) 0.6539(6) 0.92453(15)
O13_2 O 0.30881(16) 0.9521(4) 0.99004(14)
Cd10_2 Cd 0.417051(14) 0.99158(4) 0.996414(11)
C25_2 C 0.9781(2) 0.2153(5) 0.99580(18)
O8_2 O 0.92438(17) 0.2174(5) 0.99326(16)
Cd9_2 Cd 0.917051(14) 0.49158(4) 0.996414(11)
C16_2 C 0.9868(3) 0.9340(7) 0.0037(4)
H16_2 H 0.9824 0.9426 0.0349
H15_2 H 0.9461 0.9258 0.9780
Cd7_2 Cd 0.417051(14) 0.00842(4) 0.496414(11)
C36_2 C 0.6393(3) 0.0611(7) 0.1699(2)
H37_2 H 0.6405 0.1427 0.1907
C37_2 C 0.6178(2) 0.0838(7) 0.11948(18)
H38_2 H 0.6035 0.1811 0.1070
C39_2 C 0.7059(3) 0.0066(9) 0.2788(2)
H41_2 H 0.7434 0.0420 0.2765
H42_2 H 0.6772 0.0918 0.2700
H43_2 H 0.6365 0.0054 0.3305
Cd3_2 Cd 0.582949(14) 0.00842(4) 0.003586(11)
O12_2 O 0.69119(16) 0.0479(4) 0.00996(14)
O14_2 O 0.57562(17) 0.2826(5) 0.00674(16)
O15_2 O 0.49506(18) 0.1625(5) 0.00352(16)
C4_2 C 0.3607(3) 0.0611(7) 0.3301(2)
H3_2 H 0.3595 0.1427 0.3093
C5_2 C 0.3822(2) 0.0838(7) 0.38052(18)
H4_2 H 0.3965 0.1811 0.3930
C7_2 C 0.2941(3) 0.0066(9) 0.2212(2)
H7_2 H 0.2566 0.0420 0.2235
H8_2 H 0.3228 0.0918 0.2300
H9_2 H 0.3635 0.0054 0.1695
C15_3 C 0.4781(2) 0.2847(5) 0.49580(18)
C16_3 C 0.5132(3) 0.4340(7) 0.4963(4)
H15_3 H 0.5539 0.4258 0.5220
H16_3 H 0.5176 0.4426 0.4651
C17_2 C 0.4784(3) 0.1237(8) 0.6105(2)
H17_2 H 0.4801 0.2174 0.5958
C18_3 C 0.5000(3) 0.1165(10) 0.6612(2)
H18_2 H 0.5158 0.2048 0.6797
H22_2 H 0.5511 0.0536 0.7545
N3_2 N 0.4551(2) 0.0021(6) 0.58186(15)
O2_2 O 0.30881(16) 0.0479(4) 0.49004(14)
O3_3 O 0.15483(17) 0.1337(6) 0.46356(16)
H23_3 H 0.1518 0.0789 0.4369
H24_3 H 0.1475 0.0684 0.4842
O4_2 O 0.42438(17) 0.2826(5) 0.49326(16)
O5_2 O 0.50494(18) 0.1625(5) 0.49648(16)
C25_3 C 0.5219(2) 0.7153(5) 0.50420(18)
C26_3 C 0.4868(3) 0.5660(7) 0.5037(4)
H27_3 H 0.4461 0.5742 0.4780
H28_3 H 0.4824 0.5574 0.5349
O8_3 O 0.57562(17) 0.7174(5) 0.50674(16)
O9_2 O 0.49506(18) 0.8375(5) 0.50352(16)
C27_2 C 0.5216(3) 0.1237(8) 0.8895(2)
H29_2 H 0.5199 0.2174 0.9042
C28_3 C 0.5000(3) 0.1165(10) 0.8388(2)
H30_2 H 0.4842 0.2048 0.8203
H34_2 H 0.4489 0.0536 0.7455
N4_2 N 0.5449(2) 0.0021(6) 0.91814(15)
O10_3 O 0.34517(17) 0.3663(6) 0.53644(16)
H47_3 H 0.3482 0.4211 0.5631
H48_3 H 0.3525 0.4316 0.5158
N8_3 N 0.2615(2) 0.1539(6) 0.57547(15)
O13_3 O 0.19119(16) 0.4521(4) 0.50996(14)
C33_2 C 0.6354(3) 0.8325(7) 0.1062(2)
H35_2 H 0.6345 0.7534 0.0847
C34_2 C 0.6560(3) 0.8002(7) 0.1560(2)
H36_2 H 0.6679 0.7003 0.1673
C35_2 C 0.6590(3) 0.9153(7) 0.18906(19)
C38_2 C 0.6796(4) 0.8756(9) 0.2434(2)
H39_2 H 0.6448 0.8343 0.2487
H40_2 H 0.7100 0.7945 0.2512
C40_2 C 0.7191(3) 0.9567(8) 0.3306(2)
C41_2 C 0.6743(3) 0.9619(12) 0.3492(2)
C42_2 C 0.6849(3) 0.9035(12) 0.3950(2)
H44_2 H 0.6531 0.9041 0.4058
C43_2 C 0.7825(3) 0.8475(9) 0.4076(2)
H45_2 H 0.8210 0.8117 0.4281
C44_2 C 0.7742(3) 0.8991(9) 0.3613(2)
H46_2 H 0.8063 0.8946 0.3509
N5_2 N 0.6168(2) 0.9727(5) 0.08793(15)
O11_2 O 0.65125(16) 0.8183(4) 0.00426(14)
C1_2 C 0.3646(3) 0.8325(7) 0.3938(2)
H1_2 H 0.3655 0.7534 0.4153
C2_2 C 0.3440(3) 0.8002(7) 0.3440(2)
H2_2 H 0.3321 0.7003 0.3327
C3_2 C 0.3410(3) 0.9153(7) 0.31094(19)
C6_2 C 0.3204(4) 0.8756(9) 0.2566(2)
H5_2 H 0.3552 0.8343 0.2513
H6_2 H 0.2900 0.7945 0.2488
C8_2 C 0.2809(3) 0.9567(8) 0.1694(2)
C9_2 C 0.3257(3) 0.9619(12) 0.1508(2)
C10_2 C 0.3151(3) 0.9035(12) 0.1050(2)
H10_2 H 0.3469 0.9041 0.0942
C11_2 C 0.2175(3) 0.8475(9) 0.0924(2)
H11_2 H 0.1790 0.8117 0.0719
C12_2 C 0.2258(3) 0.8991(9) 0.1387(2)
H12_2 H 0.1937 0.8946 0.1491
C13_3 C 0.3049(2) 0.9018(6) 0.49280(19)
C14_3 C 0.2474(3) 0.8313(6) 0.4926(3)
H13_3 H 0.2342 0.8903 0.5145
H14_3 H 0.2158 0.8402 0.4596
C19_2 C 0.4985(3) 0.9827(10) 0.6844(2)
C20_2 C 0.4747(3) 0.8555(9) 0.6550(2)
H19_2 H 0.4732 0.7608 0.6692
C21_2 C 0.4530(3) 0.8691(8) 0.6040(2)
H20_2 H 0.4364 0.7827 0.5847
C22_2 C 0.5233(3) 0.9686(12) 0.7401(2)
H21_2 H 0.5466 0.8737 0.7498
N1_2 N 0.3832(2) 0.9727(5) 0.41207(15)
O1_2 O 0.34875(16) 0.8183(4) 0.49574(14)
C23_3 C 0.1951(2) 0.5982(6) 0.50720(19)
C24_3 C 0.2526(3) 0.6687(6) 0.5074(3)
H25_3 H 0.2658 0.6097 0.4855
H26_3 H 0.2842 0.6598 0.5404
O6_3 O 0.15125(16) 0.6817(4) 0.50426(14)
C29_2 C 0.5015(3) 0.9827(10) 0.8156(2)
C30_2 C 0.5253(3) 0.8555(9) 0.8450(2)
H31_2 H 0.5268 0.7608 0.8308
C31_2 C 0.5470(3) 0.8691(8) 0.8960(2)
H32_2 H 0.5636 0.7827 0.9153
C32_2 C 0.4767(3) 0.9686(12) 0.7599(2)
H33_2 H 0.4534 0.8737 0.7502
O17_2 O 0.50494(18) 0.8375(5) 0.99648(16)
C15_4 C 0.5219(2) 0.2847(5) 0.00420(18)
C16_4 C 0.4868(3) 0.4340(7) 0.0037(4)
H16_4 H 0.4824 0.4426 0.0349
O3_4 O 0.84517(17) 0.1337(6) 0.03644(16)
H23_4 H 0.8482 0.0789 0.0631
H24_4 H 0.8525 0.0684 0.0158
H27_4 H 0.5539 0.5742 0.0220
H15_4 H 0.4461 0.4258 0.9780
C25_4 C 0.4781(2) 0.7153(5) 0.99580(18)
C26_4 C 0.5132(3) 0.5660(7) 0.9963(4)
H28_4 H 0.5176 0.5574 0.9651
O8_4 O 0.42438(17) 0.7174(5) 0.99326(16)
O10_4 O 0.65483(17) 0.3663(6) 0.96356(16)
H47_4 H 0.6518 0.4211 0.9369
H48_4 H 0.6475 0.4316 0.9842
N8_4 N 0.7385(2) 0.1539(6) 0.92453(15)
O13_4 O 0.80881(16) 0.4521(4) 0.99004(14)
C13_4 C 0.6951(2) 0.9018(6) 0.00720(19)
C14_4 C 0.7526(3) 0.8313(6) 0.0074(3)
H14_4 H 0.7842 0.8402 0.0404
H25_4 H 0.7342 0.6097 0.0145
H13_4 H 0.7658 0.8903 0.9855
C23_4 C 0.8049(2) 0.5982(6) 0.99280(19)
C24_4 C 0.7474(3) 0.6687(6) 0.9926(3)
H26_4 H 0.7158 0.6598 0.9596
O6_4 O 0.84875(16) 0.6817(4) 0.99574(14)
C1_3 C 0.1354(3) 0.6675(7) 0.6062(2)
H1_3 H 0.1345 0.7466 0.5847
C2_3 C 0.1560(3) 0.6998(7) 0.6560(2)
H2_3 H 0.1679 0.7997 0.6673
C3_3 C 0.1590(3) 0.5847(7) 0.68906(19)
C4_3 C 0.1393(3) 0.4389(7) 0.6699(2)
H3_3 H 0.1405 0.3573 0.6907
C5_3 C 0.1178(2) 0.4162(7) 0.61948(18)
H4_3 H 0.1035 0.3189 0.6070
C6_3 C 0.1796(4) 0.6244(9) 0.7434(2)
H5_3 H 0.1448 0.6657 0.7487
H6_3 H 0.2100 0.7055 0.7512
C7_3 C 0.2059(3) 0.4934(9) 0.7788(2)
H7_3 H 0.2434 0.4580 0.7765
H8_3 H 0.1772 0.4082 0.7700
C8_3 C 0.2191(3) 0.5433(8) 0.8306(2)
C9_3 C 0.1743(3) 0.5381(12) 0.8492(2)
H9_3 H 0.1365 0.4946 0.8305
C10_3 C 0.1849(3) 0.5965(12) 0.8950(2)
H10_3 H 0.1531 0.5959 0.9058
C11_3 C 0.2825(3) 0.6525(9) 0.9076(2)
H11_3 H 0.3210 0.6883 0.9281
C12_3 C 0.2742(3) 0.6009(9) 0.8613(2)
H12_3 H 0.3063 0.6054 0.8509
C17_3 C 0.0216(3) 0.3763(8) 0.3895(2)
H17_3 H 0.0199 0.2826 0.4042
C18_4 C 0.0000(3) 0.3835(10) 0.3388(2)
C19_3 C 0.0015(3) 0.5173(10) 0.3156(2)
C20_3 C 0.0253(3) 0.6445(9) 0.3450(2)
H19_3 H 0.0268 0.7392 0.3308
C21_3 C 0.0470(3) 0.6309(8) 0.3960(2)
H20_3 H 0.0636 0.7173 0.4153
N1_3 N 0.1168(2) 0.5273(5) 0.58793(15)
N3_3 N 0.0449(2) 0.4979(6) 0.41814(15)
C28_4 C -0.0000(3) 0.3835(10) 0.1612(2)
H30_3 H 0.0158 0.2952 0.1797
C32_3 C 0.0233(3) 0.5314(12) 0.2401(2)
H33_3 H 0.0466 0.6263 0.2498
H34_3 H 0.0511 0.4464 0.2545
C18_5 C 1.0000(3) 0.3835(10) 0.3388(2)
H18_3 H 0.9842 0.2952 0.3203
C22_3 C 0.9767(3) 0.5314(12) 0.2599(2)
H21_3 H 0.9534 0.6263 0.2502
H22_3 H 0.9489 0.4464 0.2455
C27_3 C 0.9784(3) 0.3763(8) 0.1105(2)
H29_3 H 0.9801 0.2826 0.0958
C28_5 C 1.0000(3) 0.3835(10) 0.1612(2)
C29_3 C 0.9985(3) 0.5173(10) 0.1844(2)
C30_3 C 0.9747(3) 0.6445(9) 0.1550(2)
H31_3 H 0.9732 0.7392 0.1692
C31_3 C 0.9530(3) 0.6309(8) 0.1040(2)
H32_3 H 0.9364 0.7173 0.0847
N4_3 N 0.9551(2) 0.4979(6) 0.08186(15)
C33_3 C 0.8646(3) 0.6675(7) 0.8938(2)
H35_3 H 0.8655 0.7466 0.9153
C34_3 C 0.8440(3) 0.6998(7) 0.8440(2)
H36_3 H 0.8321 0.7997 0.8327
C35_3 C 0.8410(3) 0.5847(7) 0.81094(19)
C36_3 C 0.8607(3) 0.4389(7) 0.8301(2)
H37_3 H 0.8595 0.3573 0.8093
C37_3 C 0.8822(2) 0.4162(7) 0.88052(18)
H38_3 H 0.8965 0.3189 0.8930
C38_3 C 0.8204(4) 0.6244(9) 0.7566(2)
H39_3 H 0.8552 0.6657 0.7513
H40_3 H 0.7900 0.7055 0.7488
C39_3 C 0.7941(3) 0.4934(9) 0.7212(2)
H41_3 H 0.7566 0.4580 0.7235
H42_3 H 0.8228 0.4082 0.7300
C40_3 C 0.7809(3) 0.5433(8) 0.6694(2)
C41_3 C 0.8257(3) 0.5381(12) 0.6508(2)
H43_3 H 0.8635 0.4946 0.6695
C42_3 C 0.8151(3) 0.5965(12) 0.6050(2)
H44_3 H 0.8469 0.5959 0.5942
C43_3 C 0.7175(3) 0.6525(9) 0.5924(2)
H45_3 H 0.6790 0.6883 0.5719
C44_3 C 0.7258(3) 0.6009(9) 0.6387(2)
H46_3 H 0.6937 0.6054 0.6491
N5_3 N 0.8832(2) 0.5273(5) 0.91207(15)
C1_4 C 0.6354(3) 0.1675(7) 0.6062(2)
H1_4 H 0.6345 0.2466 0.5847
C2_4 C 0.6560(3) 0.1998(7) 0.6560(2)
H2_4 H 0.6679 0.2997 0.6673
C3_4 C 0.6590(3) 0.0847(7) 0.68906(19)
C6_4 C 0.6796(4) 0.1244(9) 0.7434(2)
H5_4 H 0.6448 0.1657 0.7487
H6_4 H 0.7100 0.2055 0.7512
C8_4 C 0.7191(3) 0.0433(8) 0.8306(2)
C9_4 C 0.6743(3) 0.0381(12) 0.8492(2)
C10_4 C 0.6849(3) 0.0965(12) 0.8950(2)
H10_4 H 0.6531 0.0959 0.9058
C11_4 C 0.7825(3) 0.1525(9) 0.9076(2)
H11_4 H 0.8210 0.1883 0.9281
C12_4 C 0.7742(3) 0.1009(9) 0.8613(2)
H12_4 H 0.8063 0.1054 0.8509
C19_4 C 0.5015(3) 0.0173(10) 0.3156(2)
C20_4 C 0.5253(3) 0.1445(9) 0.3450(2)
H19_4 H 0.5268 0.2392 0.3308
C21_4 C 0.5470(3) 0.1309(8) 0.3960(2)
H20_4 H 0.5636 0.2173 0.4153
C22_4 C 0.4767(3) 0.0314(12) 0.2599(2)
H21_4 H 0.4534 0.1263 0.2502
N1_4 N 0.6168(2) 0.0273(5) 0.58793(15)
C29_4 C 0.4985(3) 0.0173(10) 0.1844(2)
C30_4 C 0.4747(3) 0.1445(9) 0.1550(2)
H31_4 H 0.4732 0.2392 0.1692
C31_4 C 0.4530(3) 0.1309(8) 0.1040(2)
H32_4 H 0.4364 0.2173 0.0847
C32_4 C 0.5233(3) 0.0314(12) 0.2401(2)
H33_4 H 0.5466 0.1263 0.2498
C33_4 C 0.3646(3) 0.1675(7) 0.8938(2)
H35_4 H 0.3655 0.2466 0.9153
C34_4 C 0.3440(3) 0.1998(7) 0.8440(2)
H36_4 H 0.3321 0.2997 0.8327
C35_4 C 0.3410(3) 0.0847(7) 0.81094(19)
C38_4 C 0.3204(4) 0.1244(9) 0.7566(2)
H39_4 H 0.3552 0.1657 0.7513
H40_4 H 0.2900 0.2055 0.7488
C40_4 C 0.2809(3) 0.0433(8) 0.6694(2)
C41_4 C 0.3257(3) 0.0381(12) 0.6508(2)
C42_4 C 0.3151(3) 0.0965(12) 0.6050(2)
H44_4 H 0.3469 0.0959 0.5942
C43_4 C 0.2175(3) 0.1525(9) 0.5924(2)
H45_4 H 0.1790 0.1883 0.5719
C44_4 C 0.2258(3) 0.1009(9) 0.6387(2)
H46_4 H 0.1937 0.1054 0.6491
N5_4 N 0.3832(2) 0.0273(5) 0.91207(15)
C4_4 C 0.6393(3) 0.9389(7) 0.6699(2)
H3_4 H 0.6405 0.8573 0.6907
C5_4 C 0.6178(2) 0.9162(7) 0.61948(18)
H4_4 H 0.6035 0.8189 0.6070
C7_4 C 0.7059(3) 0.9934(9) 0.7788(2)
H7_4 H 0.7434 0.9580 0.7765
H8_4 H 0.6772 0.9082 0.7700
H9_4 H 0.6365 0.9946 0.8305
C17_4 C 0.5216(3) 0.8763(8) 0.3895(2)
H17_4 H 0.5199 0.7826 0.4042
C18_6 C 0.5000(3) 0.8835(10) 0.3388(2)
H18_4 H 0.4842 0.7952 0.3203
H22_4 H 0.4489 0.9464 0.2455
N3_4 N 0.5449(2) 0.9979(6) 0.41814(15)
C27_4 C 0.4784(3) 0.8763(8) 0.1105(2)
H29_4 H 0.4801 0.7826 0.0958
C28_6 C 0.5000(3) 0.8835(10) 0.1612(2)
H30_4 H 0.5158 0.7952 0.1797
H34_4 H 0.5511 0.9464 0.2545
N4_4 N 0.4551(2) 0.9979(6) 0.08186(15)
C36_4 C 0.3607(3) 0.9389(7) 0.8301(2)
H37_4 H 0.3595 0.8573 0.8093
C37_4 C 0.3822(2) 0.9162(7) 0.88052(18)
H38_4 H 0.3965 0.8189 0.8930
C39_4 C 0.2941(3) 0.9934(9) 0.7212(2)
H41_4 H 0.2566 0.9580 0.7235
H42_4 H 0.3228 0.9082 0.7300
H43_4 H 0.3635 0.9946 0.6695
O19 O 0.9491(6) 0.0087(14) 0.2958(6)
N9 N 0.9195(5) 0.9707(10) 0.3186(5)
O18 O 0.8661(5) 0.9367(11) 0.2945(4)
O20 O 0.9379(6) 0.9695(15) 0.3616(5)
O19_2 O 0.0509(6) 0.0087(14) 0.2042(6)
N9_2 N 0.0805(5) 0.9707(10) 0.1814(5)
O18_2 O 0.1339(5) 0.9367(11) 0.2055(4)
O20_2 O 0.0621(6) 0.9695(15) 0.1384(5)
N9_3 N 0.4195(5) 0.4707(10) 0.3186(5)
O18_3 O 0.3661(5) 0.4367(11) 0.2945(4)
O19_3 O 0.4491(6) 0.5087(14) 0.2958(6)
O20_3 O 0.4379(6) 0.4695(15) 0.3616(5)
N9_4 N 0.5805(5) 0.4707(10) 0.1814(5)
O18_4 O 0.6339(5) 0.4367(11) 0.2055(4)
O19_4 O 0.5509(6) 0.5087(14) 0.2042(6)
O20_4 O 0.5621(6) 0.4695(15) 0.1384(5)
N9_5 N 0.0805(5) 0.0293(10) 0.6814(5)
O18_5 O 0.1339(5) 0.0633(11) 0.7055(4)
O20_5 O 0.0621(6) 0.0305(15) 0.6384(5)
O19_5 O 0.0509(6) 0.9913(14) 0.7042(6)
N9_6 N 0.9195(5) 0.0293(10) 0.8186(5)
O18_6 O 0.8661(5) 0.0633(11) 0.7945(4)
O20_6 O 0.9379(6) 0.0305(15) 0.8616(5)
O19_6 O 0.9491(6) 0.9913(14) 0.7958(6)
N9_7 N 0.5805(5) 0.5293(10) 0.6814(5)
O18_7 O 0.6339(5) 0.5633(11) 0.7055(4)
O19_7 O 0.5509(6) 0.4913(14) 0.7042(6)
O20_7 O 0.5621(6) 0.5305(15) 0.6384(5)
N9_8 N 0.4195(5) 0.5293(10) 0.8186(5)
O18_8 O 0.3661(5) 0.5633(11) 0.7945(4)
O19_8 O 0.4491(6) 0.4913(14) 0.7958(6)
O20_8 O 0.4379(6) 0.5305(15) 0.8616(5)
loop_
_geom_bond_atom_site_label_1
_geom_bond_atom_site_label_2
_geom_bond_site_symmetry_1
_geom_bond_site_symmetry_2
O8 C25 1_555 1_555
Cd9 O8 1_555 1_555
C33 H35 1_555 1_555
C34 C33 1_555 1_555
H36 C34 1_555 1_555
C35 C34 1_555 1_555
C36 C35 1_555 1_555
H37 C36 1_555 1_555
C37 C36 1_555 1_555
H38 C37 1_555 1_555
C38 C35 1_555 1_555
H39 C38 1_555 1_555
H40 C38 1_555 1_555
C39 C38 1_555 1_555
H41 C39 1_555 1_555
H42 C39 1_555 1_555
C40 C39 1_555 1_555
C41 C40 1_555 1_555
H43 C41 1_555 1_555
C42 C41 1_555 1_555
H44 C42 1_555 1_555
C43 H45 1_555 1_555
C44 C40 1_555 1_555
H46 C44 1_555 1_555
N5 C33 1_555 1_555
N6 C42 1_555 1_555
O11 Cd3 1_555 1_555
O12 Cd3 1_555 1_555
O14 Cd3 1_555 1_555
Cd5 N6 1_555 1_555
C37 N5 1_555 1_555
C43 C44 1_555 1_555
C43 N6 1_555 1_555
N5 Cd3 1_555 1_555
C16 H15 1_555 1_555
H16 C16 1_555 1_555
H18 C18 1_555 1_555
H21 C22 1_555 1_555
H22 C22 1_555 1_555
C27 H29 1_555 1_555
C28 C27 1_555 1_555
C29 C28 1_555 1_555
C30 C29 1_555 1_555
H31 C30 1_555 1_555
C31 C30 1_555 1_555
H32 C31 1_555 1_555
N4 C27 1_555 1_555
Cd9 O5 1_555 1_555
C31 N4 1_555 1_555
H27 C26 1_555 1_555
H28 C26 1_555 1_555
Cd7 O9 1_555 1_555
C1 H1 1_555 1_555
C2 C1 1_555 1_555
H2 C2 1_555 1_555
C3 C2 1_555 1_555
C4 C3 1_555 1_555
H3 C4 1_555 1_555
C5 C4 1_555 1_555
H4 C5 1_555 1_555
C6 C3 1_555 1_555
H5 C6 1_555 1_555
H6 C6 1_555 1_555
C7 C6 1_555 1_555
H7 C7 1_555 1_555
H8 C7 1_555 1_555
C8 C7 1_555 1_555
C9 C8 1_555 1_555
H9 C9 1_555 1_555
C10 C9 1_555 1_555
H10 C10 1_555 1_555
C11 H11 1_555 1_555
C12 C8 1_555 1_555
H12 C12 1_555 1_555
C13 C14 1_555 1_555
C14 H13 1_555 1_555
H14 C14 1_555 1_555
C17 H17 1_555 1_555
C18_2 C17 1_555 1_555
C19 C18_2 1_555 1_555
C20 C19 1_555 1_555
H19 C20 1_555 1_555
C21 C20 1_555 1_555
H20 C21 1_555 1_555
N1 C1 1_555 1_555
N2 C10 1_555 1_555
N3 C17 1_555 1_555
O1 C13 1_555 1_555
O2 C13 1_555 1_555
O3 H23 1_555 1_555
H24 O3 1_555 1_555
O4 C15 1_555 1_555
Cd1 O2 1_555 1_555
Cd7 N1 1_555 1_555
C23 C24 1_555 1_555
C24 C14 1_555 1_555
H25 C24 1_555 1_555
H26 C24 1_555 1_555
O6 C23 1_555 1_555
H30 C28_2 1_555 1_555
H33 C32 1_555 1_555
H34 C32 1_555 1_555
O10 Cd1 1_555 1_555
H47 O10 1_555 1_555
H48 O10 1_555 1_555
N7 Cd1 1_555 1_555
N8 Cd1 1_555 1_555
O13 Cd1 1_555 1_555
Cd6 N2 1_555 1_555
C5 N1 1_555 1_555
C11 C12 1_555 1_555
C11 N2 1_555 1_555
C21 N3 1_555 1_555
N3 Cd7 1_555 1_555
O1 Cd7 1_555 1_555
O2 Cd7 1_555 1_555
O3 Cd1 1_555 1_555
O4 Cd7 1_555 1_555
O13 Cd10 1_555 1_555
H28_2 C26_2 1_555 1_555
C13_2 C14_2 1_555 1_555
H14_2 C14_2 1_555 1_555
O11 C13_2 1_555 1_555
O12 C13_2 1_555 1_555
O3_2 H23_2 1_555 1_555
H24_2 O3_2 1_555 1_555
O14 C15_2 1_555 1_555
Cd1_2 O12 1_555 1_555
N7_2 Cd1_2 1_555 1_555
O3_2 Cd1_2 1_555 1_555
C23_2 C24_2 1_555 1_555
H26_2 C24_2 1_555 1_555
O6_2 C23_2 1_555 1_555
O10_2 Cd1_3 1_555 1_555
H47_2 O10_2 1_555 1_555
H48_2 O10_2 1_555 1_555
N8_2 Cd1_3 1_555 1_555
O13_2 Cd1_3 1_555 1_555
O13_2 Cd10_2 1_555 1_555
O8_2 C25_2 1_555 1_555
Cd9_2 O8_2 1_555 1_555
H16_2 C16_2 1_555 1_555
H37_2 C36_2 1_555 1_555
C37_2 C36_2 1_555 1_555
H38_2 C37_2 1_555 1_555
H41_2 C39_2 1_555 1_555
H42_2 C39_2 1_555 1_555
O12_2 Cd3_2 1_555 1_555
O14_2 Cd3_2 1_555 1_555
O15_2 Cd3_2 1_555 1_555
H3_2 C4_2 1_555 1_555
C5_2 C4_2 1_555 1_555
H4_2 C5_2 1_555 1_555
H7_2 C7_2 1_555 1_555
H8_2 C7_2 1_555 1_555
C15_3 C16_3 1_555 1_555
C16_3 H15_3 1_555 1_555
H16_3 C16_3 1_555 1_555
C17_2 H17_2 1_555 1_555
C18_3 C17_2 1_555 1_555
H18_2 C18_3 1_555 1_555
N3_2 C17_2 1_555 1_555
O3_3 H23_3 1_555 1_555
H24_3 O3_3 1_555 1_555
O4_2 C15_3 1_555 1_555
O5_2 C15_3 1_555 1_555
Cd5 O2_2 1_555 1_555
C25_3 C26_3 1_555 1_555
C26_3 C16_3 1_555 1_555
H27_3 C26_3 1_555 1_555
H28_3 C26_3 1_555 1_555
O8_3 C25_3 1_555 1_555
O9_2 C25_3 1_555 1_555
C27_2 H29_2 1_555 1_555
C28_3 C27_2 1_555 1_555
H30_2 C28_3 1_555 1_555
N4_2 C27_2 1_555 1_555
O10_3 Cd5 1_555 1_555
H47_3 O10_3 1_555 1_555
H48_3 O10_3 1_555 1_555
N8_3 Cd5 1_555 1_555
O13_3 Cd5 1_555 1_555
Cd10 O8_3 1_555 1_555
N3_2 Cd7_2 1_555 1_555
O2_2 Cd7_2 1_555 1_555
O3_3 Cd5 1_555 1_555
O4_2 Cd7_2 1_555 1_555
O5_2 Cd7_2 1_555 1_555
O9_2 Cd10 1_555 1_555
C33_2 H35_2 1_555 1_555
C34_2 C33_2 1_555 1_555
H36_2 C34_2 1_555 1_555
C35_2 C34_2 1_555 1_555
C38_2 C35_2 1_555 1_555
H39_2 C38_2 1_555 1_555
H40_2 C38_2 1_555 1_555
C41_2 C40_2 1_555 1_555
C42_2 C41_2 1_555 1_555
H44_2 C42_2 1_555 1_555
C43_2 H45_2 1_555 1_555
C44_2 C40_2 1_555 1_555
H46_2 C44_2 1_555 1_555
N5_2 C33_2 1_555 1_555
N7 C42_2 1_555 1_555
C43_2 C44_2 1_555 1_555
C43_2 N7 1_555 1_555
C1_2 H1_2 1_555 1_555
C2_2 C1_2 1_555 1_555
H2_2 C2_2 1_555 1_555
C3_2 C2_2 1_555 1_555
C6_2 C3_2 1_555 1_555
H5_2 C6_2 1_555 1_555
H6_2 C6_2 1_555 1_555
C9_2 C8_2 1_555 1_555
C10_2 C9_2 1_555 1_555
H10_2 C10_2 1_555 1_555
C11_2 H11_2 1_555 1_555
C12_2 C8_2 1_555 1_555
H12_2 C12_2 1_555 1_555
C13_3 C14_3 1_555 1_555
C14_3 H13_3 1_555 1_555
H14_3 C14_3 1_555 1_555
C20_2 C19_2 1_555 1_555
H19_2 C20_2 1_555 1_555
C21_2 C20_2 1_555 1_555
H20_2 C21_2 1_555 1_555
C22_2 C19_2 1_555 1_555
H21_2 C22_2 1_555 1_555
N1_2 C1_2 1_555 1_555
N7_2 C10_2 1_555 1_555
O1_2 C13_3 1_555 1_555
C23_3 C24_3 1_555 1_555
C24_3 C14_3 1_555 1_555
H25_3 C24_3 1_555 1_555
H26_3 C24_3 1_555 1_555
O6_3 C23_3 1_555 1_555
O13_3 C23_3 1_555 1_555
C30_2 C29_2 1_555 1_555
H31_2 C30_2 1_555 1_555
C31_2 C30_2 1_555 1_555
H32_2 C31_2 1_555 1_555
C32_2 C22_2 1_555 1_555
H33_2 C32_2 1_555 1_555
Cd9 O6_3 1_555 1_555
C11_2 C12_2 1_555 1_555
C11_2 N7_2 1_555 1_555
O13_3 Cd9 1_555 1_555
C29_2 C32_2 1_555 1_555
C15_4 C16_4 1_555 1_555
H16_4 C16_4 1_555 1_555
O3_4 H23_4 1_555 1_555
H24_4 O3_4 1_555 1_555
O14_2 C15_4 1_555 1_555
O15_2 C15_4 1_555 1_555
Cd6 O12_2 1_555 1_555
O3_4 Cd6 1_555 1_555
C25_4 C26_4 1_555 1_555
H28_4 C26_4 1_555 1_555
O8_4 C25_4 1_555 1_555
O17_2 C25_4 1_555 1_555
O10_4 Cd6_2 1_555 1_555
H47_4 O10_4 1_555 1_555
H48_4 O10_4 1_555 1_555
N8_4 Cd6_2 1_555 1_555
O13_4 Cd6_2 1_555 1_555
Cd10_2 O8_4 1_555 1_555
O17_2 Cd10_2 1_555 1_555
C13_4 C14_4 1_555 1_555
H14_4 C14_4 1_555 1_555
O11_2 C13_4 1_555 1_555
C23_4 C24_4 1_555 1_555
H26_4 C24_4 1_555 1_555
O6_4 C23_4 1_555 1_555
O13_4 C23_4 1_555 1_555
Cd9_2 O6_4 1_555 1_555
O13_4 Cd9_2 1_555 1_555
C1_3 H1_3 1_555 1_555
C2_3 C1_3 1_555 1_555
H2_3 C2_3 1_555 1_555
C3_3 C2_3 1_555 1_555
C4_3 C3_3 1_555 1_555
H3_3 C4_3 1_555 1_555
C5_3 C4_3 1_555 1_555
H4_3 C5_3 1_555 1_555
C6_3 C3_3 1_555 1_555
H5_3 C6_3 1_555 1_555
H6_3 C6_3 1_555 1_555
C7_3 C6_3 1_555 1_555
H7_3 C7_3 1_555 1_555
H8_3 C7_3 1_555 1_555
C8_3 C7_3 1_555 1_555
C9_3 C8_3 1_555 1_555
H9_3 C9_3 1_555 1_555
C10_3 C9_3 1_555 1_555
H10_3 C10_3 1_555 1_555
C11_3 H11_3 1_555 1_555
C12_3 C8_3 1_555 1_555
H12_3 C12_3 1_555 1_555
C17_3 H17_3 1_555 1_555
C18_4 C17_3 1_555 1_555
C19_3 C18_4 1_555 1_555
C20_3 C19_3 1_555 1_555
H19_3 C20_3 1_555 1_555
C21_3 C20_3 1_555 1_555
H20_3 C21_3 1_555 1_555
N1_3 C1_3 1_555 1_555
N8_2 C10_3 1_555 1_555
N3_3 C17_3 1_555 1_555
Cd9 N1_3 1_555 1_555
H30_3 C28_4 1_555 1_555
H33_3 C32_3 1_555 1_555
H34_3 C32_3 1_555 1_555
C5_3 N1_3 1_555 1_555
C11_3 C12_3 1_555 1_555
C11_3 N8_2 1_555 1_555
C21_3 N3_3 1_555 1_555
N3_3 Cd9 1_555 1_555
H18_3 C18_5 1_555 1_555
H21_3 C22_3 1_555 1_555
H22_3 C22_3 1_555 1_555
C27_3 H29_3 1_555 1_555
C28_5 C27_3 1_555 1_555
C29_3 C28_5 1_555 1_555
C30_3 C29_3 1_555 1_555
H31_3 C30_3 1_555 1_555
C31_3 C30_3 1_555 1_555
H32_3 C31_3 1_555 1_555
N4_3 C27_3 1_555 1_555
C31_3 N4_3 1_555 1_555
C33_3 H35_3 1_555 1_555
C34_3 C33_3 1_555 1_555
H36_3 C34_3 1_555 1_555
C35_3 C34_3 1_555 1_555
C36_3 C35_3 1_555 1_555
H37_3 C36_3 1_555 1_555
C37_3 C36_3 1_555 1_555
H38_3 C37_3 1_555 1_555
C38_3 C35_3 1_555 1_555
H39_3 C38_3 1_555 1_555
H40_3 C38_3 1_555 1_555
C39_3 C38_3 1_555 1_555
H41_3 C39_3 1_555 1_555
H42_3 C39_3 1_555 1_555
C40_3 C39_3 1_555 1_555
C41_3 C40_3 1_555 1_555
H43_3 C41_3 1_555 1_555
C42_3 C41_3 1_555 1_555
H44_3 C42_3 1_555 1_555
C43_3 H45_3 1_555 1_555
C44_3 C40_3 1_555 1_555
H46_3 C44_3 1_555 1_555
N5_3 C33_3 1_555 1_555
N8 C42_3 1_555 1_555
C37_3 N5_3 1_555 1_555
C43_3 C44_3 1_555 1_555
C43_3 N8 1_555 1_555
N5_3 Cd9_2 1_555 1_555
C1_4 H1_4 1_555 1_555
C2_4 C1_4 1_555 1_555
H2_4 C2_4 1_555 1_555
C3_4 C2_4 1_555 1_555
C6_4 C3_4 1_555 1_555
H5_4 C6_4 1_555 1_555
H6_4 C6_4 1_555 1_555
C9_4 C8_4 1_555 1_555
C10_4 C9_4 1_555 1_555
H10_4 C10_4 1_555 1_555
C11_4 H11_4 1_555 1_555
C12_4 C8_4 1_555 1_555
H12_4 C12_4 1_555 1_555
C20_4 C19_4 1_555 1_555
H19_4 C20_4 1_555 1_555
C21_4 C20_4 1_555 1_555
H20_4 C21_4 1_555 1_555
C22_4 C19_4 1_555 1_555
H21_4 C22_4 1_555 1_555
N1_4 C1_4 1_555 1_555
N8_4 C10_4 1_555 1_555
C30_4 C29_4 1_555 1_555
H31_4 C30_4 1_555 1_555
C31_4 C30_4 1_555 1_555
H32_4 C31_4 1_555 1_555
C32_4 C22_4 1_555 1_555
H33_4 C32_4 1_555 1_555
C11_4 C12_4 1_555 1_555
C11_4 N8_4 1_555 1_555
C29_4 C32_4 1_555 1_555
C33_4 H35_4 1_555 1_555
C34_4 C33_4 1_555 1_555
H36_4 C34_4 1_555 1_555
C35_4 C34_4 1_555 1_555
C38_4 C35_4 1_555 1_555
H39_4 C38_4 1_555 1_555
H40_4 C38_4 1_555 1_555
C41_4 C40_4 1_555 1_555
C42_4 C41_4 1_555 1_555
H44_4 C42_4 1_555 1_555
C43_4 H45_4 1_555 1_555
C44_4 C40_4 1_555 1_555
H46_4 C44_4 1_555 1_555
N5_4 C33_4 1_555 1_555
N8_3 C42_4 1_555 1_555
C43_4 C44_4 1_555 1_555
C43_4 N8_3 1_555 1_555
H3_4 C4_4 1_555 1_555
C5_4 C4_4 1_555 1_555
H4_4 C5_4 1_555 1_555
H7_4 C7_4 1_555 1_555
H8_4 C7_4 1_555 1_555
C17_4 H17_4 1_555 1_555
C18_6 C17_4 1_555 1_555
H18_4 C18_6 1_555 1_555
N3_4 C17_4 1_555 1_555
C27_4 H29_4 1_555 1_555
C28_6 C27_4 1_555 1_555
H30_4 C28_6 1_555 1_555
N4_4 C27_4 1_555 1_555
N3_4 Cd10 1_555 1_555
H37_4 C36_4 1_555 1_555
C37_4 C36_4 1_555 1_555
H38_4 C37_4 1_555 1_555
H41_4 C39_4 1_555 1_555
H42_4 C39_4 1_555 1_555
N9 O18 1_555 1_555
O20 N9 1_555 1_555
N9_2 O18_2 1_555 1_555
O20_2 N9_2 1_555 1_555
N9_3 O18_3 1_555 1_555
O19_3 N9_3 1_555 1_555
O20_3 N9_3 1_555 1_555
N9_4 O18_4 1_555 1_555
O19_4 N9_4 1_555 1_555
O20_4 N9_4 1_555 1_555
N9_5 O18_5 1_555 1_555
O20_5 N9_5 1_555 1_555
N9_6 O18_6 1_555 1_555
O20_6 N9_6 1_555 1_555
N9_7 O18_7 1_555 1_555
O19_7 N9_7 1_555 1_555
O20_7 N9_7 1_555 1_555
N9_8 O18_8 1_555 1_555
O19_8 N9_8 1_555 1_555
O20_8 N9_8 1_555 1_555

#END
