
###############################################################################
#
# This file contains modified crystal structure data generated from the
# MOF subset of the Cambridge Structural Database (CSD) v543 
# hosted by the Cambridge Crystallographic Data Centre (CCDC).
#
# This work is licensed under the Creative Commons
# Attribution-NonCommercial-ShareAlike 4.0 International License.
# To view a copy of this license, visit
# http://creativecommons.org/licenses/by-nc-sa/4.0/
# or send a letter to
# Creative Commons, PO Box 1866, Mountain View, CA 94042, USA.
#
# CIF created using the CSD Python API on 29 September 2022
# The structure has been converted into the P1 space group
# The structure has a 3D framework
# The original CSD entry WIFBAQ is in the monoclinic crystal system
# The framework has been calculated to contain at least 10.0% void space
# The void calculation uses a probe of radius 1.32A, grid spacing 0.4
#
###############################################################################

data_WIFBAQ
_chemical_formula_moiety         '(C144 H148 Cd8 N32 O32)n'
_symmetry_cell_setting           triclinic
_symmetry_space_group_name_H-M   'P 1'
_symmetry_Int_Tables_number      1
_space_group_name_Hall           'P 1'
loop_
_symmetry_equiv_pos_site_id
_symmetry_equiv_pos_as_xyz
1 x,y,z
_cell_length_a                   29.200(2)
_cell_length_b                   11.9144(9)
_cell_length_c                   14.0146(10)
_cell_angle_alpha                90
_cell_angle_beta                 92.054(7)
_cell_angle_gamma                90
_cell_volume                     4872.55
loop_
_atom_site_label
_atom_site_type_symbol
_atom_site_fract_x
_atom_site_fract_y
_atom_site_fract_z
H5 H -0.0000 0.6480 0.6276
C8 C 0.0813(2) 0.3065(6) 0.6344(6)
H8 H 0.0504 0.2786 0.6303
H9 H 0.0960 0.2809 0.6927
H10 H 0.0978 0.2793 0.5811
C9 C 0.08062(16) 0.4300(5) 0.6331(4)
C10 C 0.12511(14) 0.4928(4) 0.6389(3)
C11 C 0.16742(17) 0.4406(5) 0.6347(4)
H11 H 0.1695 0.3630 0.6297
C12 C 0.20619(16) 0.5056(5) 0.6379(4)
H12 H 0.2344 0.4696 0.6347
C13 C 0.16531(16) 0.6654(5) 0.6521(4)
H13 H 0.1645 0.7429 0.6600
C14 C 0.12482(16) 0.6081(5) 0.6481(4)
H14 H 0.0972 0.6465 0.6515
N2 N 0.00375(14) 0.4315(4) 0.6201(4)
N3 N 0.04544(13) 0.4909(4) 0.6285(4)
N4 N 0.20599(12) 0.6159(4) 0.6454(3)
Cd2 Cd 0.272739(10) 0.72070(3) 0.62754(2)
O7 O 0.23138(12) 0.1484(3) 0.0269(3)
C1 C 0.11992(19) 0.2678(5) 0.9030(5)
H1 H 0.1205 0.1901 0.9099
C2 C 0.07816(17) 0.3207(5) 0.9014(5)
H2 H 0.0513 0.2798 0.9075
C3 C 0.07681(15) 0.4358(5) 0.8906(4)
C4 C 0.11814(16) 0.4927(5) 0.8869(4)
H3 H 0.1187 0.5706 0.8831
C5 C 0.15840(16) 0.4325(5) 0.8890(4)
H4 H 0.1859 0.4715 0.8859
C6 C 0.03150(16) 0.4960(5) 0.8829(4)
C7 C 0.03111(19) 0.6218(5) 0.8766(5)
H5_2 H 0.0000 0.6480 0.8724
H6 H 0.0467 0.6451 0.8208
H7 H 0.0463 0.6528 0.9324
C15 C 0.18126(16) 0.0931(5) 0.7375(4)
C16 C 0.15416(18) 0.0288(6) 0.6591(5)
H16 H 0.1283 0.0742 0.6373
H18 H 0.1982 0.0656 0.5522
N1 N 0.15985(12) 0.3217(4) 0.8951(3)
O1 O 0.20518(13) 0.1742(4) 0.7131(3)
O2 O 0.17739(13) 0.0666(4) 0.8229(3)
Cd1 Cd 0.227261(10) 0.22070(3) 0.87246(2)
N5 N 0.29401(12) 0.1159(4) 0.8546(3)
O5 O 0.26909(12) 0.3892(3) 0.8218(3)
O6 O 0.26862(12) 0.3516(3) 0.9731(3)
H15 H 0.1422 0.9603 0.6861
C17 C 0.1826(2) 0.9988(5) 0.5734(4)
H17 H 0.1622 0.9737 0.5216
C18 C 0.21732(15) 0.9089(4) 0.5950(4)
O3 O 0.23091(12) 0.8892(3) 0.6782(3)
O4 O 0.23138(12) 0.8516(3) 0.5269(3)
Cd4 Cd 0.227261(10) 0.77930(3) 0.37246(2)
Cd4_2 Cd 0.272739(10) 0.27930(3) 0.12754(2)
C1_2 C 0.38008(19) 0.7678(5) 0.5970(5)
H1_2 H 0.3795 0.6901 0.5901
C2_2 C 0.42184(17) 0.8207(5) 0.5986(5)
H2_2 H 0.4487 0.7798 0.5925
C3_2 C 0.42319(15) 0.9358(5) 0.6094(4)
C4_2 C 0.38186(16) 0.9927(5) 0.6131(4)
C5_2 C 0.34160(16) 0.9325(5) 0.6110(4)
H4_2 H 0.3141 0.9715 0.6141
C6_2 C 0.46850(16) 0.9960(5) 0.6171(4)
C8_2 C 0.5813(2) 0.8065(6) 0.6344(6)
H8_2 H 0.5504 0.7786 0.6303
H9_2 H 0.5960 0.7809 0.6927
H10_2 H 0.5978 0.7793 0.5811
C9_2 C 0.58062(16) 0.9300(5) 0.6331(4)
C10_2 C 0.62511(14) 0.9928(4) 0.6389(3)
C11_2 C 0.66742(17) 0.9406(5) 0.6347(4)
H11_2 H 0.6695 0.8630 0.6297
H12_2 H 0.7344 0.9696 0.6347
C15_2 C 0.31874(16) 0.5931(5) 0.7625(4)
C16_2 C 0.34584(18) 0.5288(6) 0.8409(5)
H15_2 H 0.3578 0.4603 0.8139
H16_2 H 0.3717 0.5742 0.8627
C17_2 C 0.3174(2) 0.4988(5) 0.9266(4)
H17_2 H 0.3378 0.4737 0.9784
H18_2 H 0.3018 0.5656 0.9478
C18_2 C 0.28268(15) 0.4089(4) 0.9050(4)
N1_2 N 0.34015(12) 0.8217(4) 0.6049(3)
N2_2 N 0.50375(14) 0.9315(4) 0.6201(4)
N3_2 N 0.54544(13) 0.9909(4) 0.6285(4)
O1_2 O 0.29482(13) 0.6742(4) 0.7869(3)
O2_2 O 0.32261(13) 0.5666(4) 0.6771(3)
O7_2 O 0.26862(12) 0.6484(3) 0.4731(3)
H3_2 H 0.6187 0.0706 0.8831
C7_2 C 0.53111(19) 0.1218(5) 0.8766(5)
H5_3 H 0.5000 0.1480 0.8724
H6_2 H 0.5467 0.1451 0.8208
H7_2 H 0.5463 0.1528 0.9324
C12_2 C 0.29381(16) 0.0056(5) 0.8621(4)
C13_2 C 0.33469(16) 0.1654(5) 0.8479(4)
H13_2 H 0.3355 0.2429 0.8400
C14_2 C 0.37518(16) 0.1081(5) 0.8519(4)
H14_2 H 0.4028 0.1465 0.8485
H15_3 H 0.1422 0.0397 0.1861
C17_3 C 0.1826(2) 0.0012(5) 0.0734(4)
H17_3 H 0.1622 0.0263 0.0216
C18_3 C 0.21732(15) 0.0911(4) 0.0950(4)
O3_2 O 0.23091(12) 0.1108(3) 0.1782(3)
C1_3 C 0.11992(19) 0.7322(5) 0.4030(5)
H1_3 H 0.1205 0.8099 0.4099
C2_3 C 0.07816(17) 0.6793(5) 0.4014(5)
H2_3 H 0.0513 0.7202 0.4075
C3_3 C 0.07681(15) 0.5642(5) 0.3906(4)
C4_3 C 0.11814(16) 0.5073(5) 0.3869(4)
H3_3 H 0.1187 0.4294 0.3831
C5_3 C 0.15840(16) 0.5675(5) 0.3890(4)
H4_3 H 0.1859 0.5285 0.3859
C6_3 C 0.03150(16) 0.5040(5) 0.3829(4)
C7_3 C 0.03111(19) 0.3782(5) 0.3766(5)
H5_4 H 0.0000 0.3520 0.3724
H6_3 H 0.0467 0.3549 0.3208
H7_3 H 0.0463 0.3472 0.4324
C15_3 C 0.18126(16) 0.9069(5) 0.2375(4)
C16_3 C 0.15416(18) 0.9712(6) 0.1591(5)
H16_3 H 0.1283 0.9258 0.1373
H18_3 H 0.1982 0.9344 0.0522
N1_3 N 0.15985(12) 0.6783(4) 0.3951(3)
O1_3 O 0.20518(13) 0.8258(4) 0.2131(3)
O2_3 O 0.17739(13) 0.9334(4) 0.3229(3)
N5_2 N 0.29401(12) 0.8841(4) 0.3546(3)
O5_2 O 0.26909(12) 0.6108(3) 0.3218(3)
H5_5 H -0.0000 0.3520 0.1276
C8_3 C 0.0813(2) 0.6935(6) 0.1344(6)
H8_3 H 0.0504 0.7214 0.1303
H9_3 H 0.0960 0.7191 0.1927
H10_3 H 0.0978 0.7207 0.0811
C9_3 C 0.08062(16) 0.5700(5) 0.1331(4)
C10_3 C 0.12511(14) 0.5072(4) 0.1389(3)
C11_3 C 0.16742(17) 0.5594(5) 0.1347(4)
H11_3 H 0.1695 0.6370 0.1297
C12_3 C 0.20619(16) 0.4944(5) 0.1379(4)
H12_3 H 0.2344 0.5304 0.1347
C13_3 C 0.16531(16) 0.3346(5) 0.1521(4)
H13_3 H 0.1645 0.2571 0.1600
C14_3 C 0.12482(16) 0.3919(5) 0.1481(4)
H14_3 H 0.0972 0.3535 0.1515
N2_3 N 0.00375(14) 0.5685(4) 0.1201(4)
N3_3 N 0.04544(13) 0.5091(4) 0.1285(4)
N4_2 N 0.20599(12) 0.3841(4) 0.1454(3)
H3_4 H 0.6187 0.9294 0.3831
C7_4 C 0.53111(19) 0.8782(5) 0.3766(5)
H5_6 H 0.5000 0.8520 0.3724
H6_4 H 0.5467 0.8549 0.3208
H7_4 H 0.5463 0.8472 0.4324
C12_4 C 0.29381(16) 0.9944(5) 0.3621(4)
C13_4 C 0.33469(16) 0.8346(5) 0.3479(4)
H13_4 H 0.3355 0.7571 0.3400
C14_4 C 0.37518(16) 0.8919(5) 0.3519(4)
H14_4 H 0.4028 0.8535 0.3485
C1_4 C 0.38008(19) 0.2322(5) 0.0970(5)
H1_4 H 0.3795 0.3099 0.0901
C2_4 C 0.42184(17) 0.1793(5) 0.0986(5)
H2_4 H 0.4487 0.2202 0.0925
C3_4 C 0.42319(15) 0.0642(5) 0.1094(4)
C4_4 C 0.38186(16) 0.0073(5) 0.1131(4)
C5_4 C 0.34160(16) 0.0675(5) 0.1110(4)
H4_4 H 0.3141 0.0285 0.1141
C6_4 C 0.46850(16) 0.0040(5) 0.1171(4)
C8_4 C 0.5813(2) 0.1935(6) 0.1344(6)
H8_4 H 0.5504 0.2214 0.1303
H9_4 H 0.5960 0.2191 0.1927
H10_4 H 0.5978 0.2207 0.0811
C9_4 C 0.58062(16) 0.0700(5) 0.1331(4)
C10_4 C 0.62511(14) 0.0072(4) 0.1389(3)
C11_4 C 0.66742(17) 0.0594(5) 0.1347(4)
H11_4 H 0.6695 0.1370 0.1297
H12_4 H 0.7344 0.0304 0.1347
C15_4 C 0.31874(16) 0.4069(5) 0.2625(4)
C16_4 C 0.34584(18) 0.4712(6) 0.3409(5)
H15_4 H 0.3578 0.5397 0.3139
H16_4 H 0.3717 0.4258 0.3627
C17_4 C 0.3174(2) 0.5012(5) 0.4266(4)
H17_4 H 0.3378 0.5263 0.4784
H18_4 H 0.3018 0.4344 0.4478
C18_4 C 0.28268(15) 0.5911(4) 0.4050(4)
N1_4 N 0.34015(12) 0.1783(4) 0.1049(3)
N2_4 N 0.50375(14) 0.0685(4) 0.1201(4)
N3_4 N 0.54544(13) 0.0091(4) 0.1285(4)
O1_4 O 0.29482(13) 0.3258(4) 0.2869(3)
O2_4 O 0.32261(13) 0.4334(4) 0.1771(3)
C1_5 C 0.88008(19) 0.2678(5) 0.5970(5)
H1_5 H 0.8795 0.1901 0.5901
C2_5 C 0.92184(17) 0.3207(5) 0.5986(5)
H2_5 H 0.9487 0.2798 0.5925
C3_5 C 0.92319(15) 0.4358(5) 0.6094(4)
C4_5 C 0.88186(16) 0.4927(5) 0.6131(4)
H3_5 H 0.8813 0.5706 0.6169
C5_5 C 0.84160(16) 0.4325(5) 0.6110(4)
H4_5 H 0.8141 0.4715 0.6141
C6_5 C 0.96850(16) 0.4960(5) 0.6171(4)
C7_5 C 0.96889(19) 0.6218(5) 0.6234(5)
H5_7 H 1.0000 0.6480 0.6276
H6_5 H 0.9533 0.6451 0.6792
H7_5 H 0.9537 0.6528 0.5676
C15_5 C 0.81874(16) 0.0931(5) 0.7625(4)
C16_5 C 0.84584(18) 0.0288(6) 0.8409(5)
H16_5 H 0.8717 0.0742 0.8627
H18_5 H 0.8018 0.0656 0.9478
N1_5 N 0.84015(12) 0.3217(4) 0.6049(3)
O1_5 O 0.79482(13) 0.1742(4) 0.7869(3)
O2_5 O 0.82261(13) 0.0666(4) 0.6771(3)
Cd1_2 Cd 0.772739(10) 0.22070(3) 0.62754(2)
N5_3 N 0.70599(12) 0.1159(4) 0.6454(3)
O5_3 O 0.73091(12) 0.3892(3) 0.6782(3)
O6_2 O 0.73138(12) 0.3516(3) 0.5269(3)
O7_3 O 0.76862(12) 0.1484(3) 0.4731(3)
Cd4_3 Cd 0.772739(10) 0.77930(3) 0.12754(2)
H15_5 H 0.8578 0.9603 0.8139
C17_5 C 0.8174(2) 0.9988(5) 0.9266(4)
H17_5 H 0.8378 0.9737 0.9784
C18_5 C 0.78268(15) 0.9089(4) 0.9050(4)
O3_3 O 0.76909(12) 0.8892(3) 0.8218(3)
O4_2 O 0.76862(12) 0.8516(3) 0.9731(3)
Cd3 Cd 0.727261(10) 0.72070(3) 0.87246(2)
H5_8 H 1.0000 0.6480 0.8724
C8_5 C 0.9187(2) 0.3065(6) 0.8656(6)
H8_5 H 0.9496 0.2786 0.8697
H9_5 H 0.9040 0.2809 0.8073
H10_5 H 0.9022 0.2793 0.9189
C9_5 C 0.91938(16) 0.4300(5) 0.8669(4)
C10_5 C 0.87489(14) 0.4928(4) 0.8611(3)
C11_5 C 0.83258(17) 0.4406(5) 0.8653(4)
H11_5 H 0.8305 0.3630 0.8703
C12_5 C 0.79381(16) 0.5056(5) 0.8621(4)
H12_5 H 0.7656 0.4696 0.8653
C13_5 C 0.83469(16) 0.6654(5) 0.8479(4)
H13_5 H 0.8355 0.7429 0.8400
C14_5 C 0.87518(16) 0.6081(5) 0.8519(4)
H14_5 H 0.9028 0.6465 0.8485
N2_5 N 0.99625(14) 0.4315(4) 0.8799(4)
N3_5 N 0.95456(13) 0.4909(4) 0.8715(4)
N4_3 N 0.79401(12) 0.6159(4) 0.8546(3)
H3_6 H 0.3813 0.0706 0.6169
C7_6 C 0.46889(19) 0.1218(5) 0.6234(5)
H5_9 H 0.5000 0.1480 0.6276
H6_6 H 0.4533 0.1451 0.6792
H7_6 H 0.4537 0.1528 0.5676
C12_6 C 0.70619(16) 0.0056(5) 0.6379(4)
C13_6 C 0.66531(16) 0.1654(5) 0.6521(4)
H13_6 H 0.6645 0.2429 0.6600
C14_6 C 0.62482(16) 0.1081(5) 0.6481(4)
H14_6 H 0.5972 0.1465 0.6515
O7_4 O 0.73138(12) 0.6484(3) 0.0269(3)
C1_6 C 0.61992(19) 0.7678(5) 0.9030(5)
H1_6 H 0.6205 0.6901 0.9099
C2_6 C 0.57816(17) 0.8207(5) 0.9014(5)
H2_6 H 0.5513 0.7798 0.9075
C3_6 C 0.57681(15) 0.9358(5) 0.8906(4)
C4_6 C 0.61814(16) 0.9927(5) 0.8869(4)
C5_6 C 0.65840(16) 0.9325(5) 0.8890(4)
H4_6 H 0.6859 0.9715 0.8859
C6_6 C 0.53150(16) 0.9960(5) 0.8829(4)
C8_6 C 0.4187(2) 0.8065(6) 0.8656(6)
H8_6 H 0.4496 0.7786 0.8697
H9_6 H 0.4040 0.7809 0.8073
H10_6 H 0.4022 0.7793 0.9189
C9_6 C 0.41938(16) 0.9300(5) 0.8669(4)
C10_6 C 0.37489(14) 0.9928(4) 0.8611(3)
C11_6 C 0.33258(17) 0.9406(5) 0.8653(4)
H11_6 H 0.3305 0.8630 0.8703
H12_6 H 0.2656 0.9696 0.8653
C15_6 C 0.68126(16) 0.5931(5) 0.7375(4)
C16_6 C 0.65416(18) 0.5288(6) 0.6591(5)
H15_6 H 0.6422 0.4603 0.6861
H16_6 H 0.6283 0.5742 0.6373
C17_6 C 0.6826(2) 0.4988(5) 0.5734(4)
H17_6 H 0.6622 0.4737 0.5216
H18_6 H 0.6982 0.5656 0.5522
C18_6 C 0.71732(15) 0.4089(4) 0.5950(4)
N1_6 N 0.65985(12) 0.8217(4) 0.8951(3)
N2_6 N 0.49625(14) 0.9315(4) 0.8799(4)
N3_6 N 0.45456(13) 0.9909(4) 0.8715(4)
O1_6 O 0.70518(13) 0.6742(4) 0.7131(3)
O2_6 O 0.67739(13) 0.5666(4) 0.8229(3)
Cd4_4 Cd 0.727261(10) 0.27930(3) 0.37246(2)
H5_10 H 1.0000 0.3520 0.3724
C8_7 C 0.9187(2) 0.6935(6) 0.3656(6)
H8_7 H 0.9496 0.7214 0.3697
H9_7 H 0.9040 0.7191 0.3073
H10_7 H 0.9022 0.7207 0.4189
C9_7 C 0.91938(16) 0.5700(5) 0.3669(4)
C10_7 C 0.87489(14) 0.5072(4) 0.3611(3)
C11_7 C 0.83258(17) 0.5594(5) 0.3653(4)
H11_7 H 0.8305 0.6370 0.3703
C12_7 C 0.79381(16) 0.4944(5) 0.3621(4)
H12_7 H 0.7656 0.5304 0.3653
C13_7 C 0.83469(16) 0.3346(5) 0.3479(4)
H13_7 H 0.8355 0.2571 0.3400
C14_7 C 0.87518(16) 0.3919(5) 0.3519(4)
H14_7 H 0.9028 0.3535 0.3485
N2_7 N 0.99625(14) 0.5685(4) 0.3799(4)
N3_7 N 0.95456(13) 0.5091(4) 0.3715(4)
N4_4 N 0.79401(12) 0.3841(4) 0.3546(3)
H15_7 H 0.8578 0.0397 0.3139
C17_7 C 0.8174(2) 0.0012(5) 0.4266(4)
H17_7 H 0.8378 0.0263 0.4784
C18_7 C 0.78268(15) 0.0911(4) 0.4050(4)
O3_4 O 0.76909(12) 0.1108(3) 0.3218(3)
C1_7 C 0.88008(19) 0.7322(5) 0.0970(5)
H1_7 H 0.8795 0.8099 0.0901
C2_7 C 0.92184(17) 0.6793(5) 0.0986(5)
H2_7 H 0.9487 0.7202 0.0925
C3_7 C 0.92319(15) 0.5642(5) 0.1094(4)
C4_7 C 0.88186(16) 0.5073(5) 0.1131(4)
H3_7 H 0.8813 0.4294 0.1169
C5_7 C 0.84160(16) 0.5675(5) 0.1110(4)
H4_7 H 0.8141 0.5285 0.1141
C6_7 C 0.96850(16) 0.5040(5) 0.1171(4)
C7_7 C 0.96889(19) 0.3782(5) 0.1234(5)
H5_11 H 1.0000 0.3520 0.1276
H6_7 H 0.9533 0.3549 0.1792
H7_7 H 0.9537 0.3472 0.0676
C15_7 C 0.81874(16) 0.9069(5) 0.2625(4)
C16_7 C 0.84584(18) 0.9712(6) 0.3409(5)
H16_7 H 0.8717 0.9258 0.3627
H18_7 H 0.8018 0.9344 0.4478
N1_7 N 0.84015(12) 0.6783(4) 0.1049(3)
O1_7 O 0.79482(13) 0.8258(4) 0.2869(3)
O2_7 O 0.82261(13) 0.9334(4) 0.1771(3)
N5_4 N 0.70599(12) 0.8841(4) 0.1454(3)
O5_4 O 0.73091(12) 0.6108(3) 0.1782(3)
C1_8 C 0.61992(19) 0.2322(5) 0.4030(5)
H1_8 H 0.6205 0.3099 0.4099
C2_8 C 0.57816(17) 0.1793(5) 0.4014(5)
H2_8 H 0.5513 0.2202 0.4075
C3_8 C 0.57681(15) 0.0642(5) 0.3906(4)
C4_8 C 0.61814(16) 0.0073(5) 0.3869(4)
C5_8 C 0.65840(16) 0.0675(5) 0.3890(4)
H4_8 H 0.6859 0.0285 0.3859
C6_8 C 0.53150(16) 0.0040(5) 0.3829(4)
C8_8 C 0.4187(2) 0.1935(6) 0.3656(6)
H8_8 H 0.4496 0.2214 0.3697
H9_8 H 0.4040 0.2191 0.3073
H10_8 H 0.4022 0.2207 0.4189
C9_8 C 0.41938(16) 0.0700(5) 0.3669(4)
C10_8 C 0.37489(14) 0.0072(4) 0.3611(3)
C11_8 C 0.33258(17) 0.0594(5) 0.3653(4)
H11_8 H 0.3305 0.1370 0.3703
H12_8 H 0.2656 0.0304 0.3653
C15_8 C 0.68126(16) 0.4069(5) 0.2375(4)
C16_8 C 0.65416(18) 0.4712(6) 0.1591(5)
H15_8 H 0.6422 0.5397 0.1861
H16_8 H 0.6283 0.4258 0.1373
C17_8 C 0.6826(2) 0.5012(5) 0.0734(4)
H17_8 H 0.6622 0.5263 0.0216
H18_8 H 0.6982 0.4344 0.0522
C18_8 C 0.71732(15) 0.5911(4) 0.0950(4)
N1_8 N 0.65985(12) 0.1783(4) 0.3951(3)
N2_8 N 0.49625(14) 0.0685(4) 0.3799(4)
N3_8 N 0.45456(13) 0.0091(4) 0.3715(4)
O1_8 O 0.70518(13) 0.3258(4) 0.2131(3)
O2_8 O 0.67739(13) 0.4334(4) 0.3229(3)
H3_8 H 0.3813 0.9294 0.1169
C7_8 C 0.46889(19) 0.8782(5) 0.1234(5)
H5_12 H 0.5000 0.8520 0.1276
H6_8 H 0.4533 0.8549 0.1792
H7_8 H 0.4537 0.8472 0.0676
C12_8 C 0.70619(16) 0.9944(5) 0.1379(4)
C13_8 C 0.66531(16) 0.8346(5) 0.1521(4)
H13_8 H 0.6645 0.7571 0.1600
C14_8 C 0.62482(16) 0.8919(5) 0.1481(4)
H14_8 H 0.5972 0.8535 0.1515
loop_
_geom_bond_atom_site_label_1
_geom_bond_atom_site_label_2
_geom_bond_site_symmetry_1
_geom_bond_site_symmetry_2
C8 H8 1_555 1_555
H9 C8 1_555 1_555
H10 C8 1_555 1_555
C9 C8 1_555 1_555
C10 C9 1_555 1_555
C11 C10 1_555 1_555
H11 C11 1_555 1_555
C12 C11 1_555 1_555
H12 C12 1_555 1_555
C13 H13 1_555 1_555
C14 C10 1_555 1_555
H14 C14 1_555 1_555
N3 C9 1_555 1_555
N4 C12 1_555 1_555
Cd2 N4 1_555 1_555
C13 C14 1_555 1_555
C13 N4 1_555 1_555
N2 N3 1_555 1_555
C1 H1 1_555 1_555
C2 C1 1_555 1_555
H2 C2 1_555 1_555
C3 C2 1_555 1_555
C4 C3 1_555 1_555
H3 C4 1_555 1_555
C5 C4 1_555 1_555
H4 C5 1_555 1_555
C6 C3 1_555 1_555
C7 C6 1_555 1_555
H5_2 C7 1_555 1_555
H6 C7 1_555 1_555
H7 C7 1_555 1_555
C15 C16 1_555 1_555
H16 C16 1_555 1_555
N1 C1 1_555 1_555
O1 C15 1_555 1_555
O2 C15 1_555 1_555
Cd1 N1 1_555 1_555
N5 Cd1 1_555 1_555
O5 Cd1 1_555 1_555
O6 Cd1 1_555 1_555
C5 N1 1_555 1_555
O1 Cd1 1_555 1_555
O2 Cd1 1_555 1_555
H17 C17 1_555 1_555
C18 C17 1_555 1_555
O3 C18 1_555 1_555
O4 C18 1_555 1_555
Cd2 O3 1_555 1_555
Cd4 O4 1_555 1_555
O4 Cd2 1_555 1_555
C1_2 H1_2 1_555 1_555
C2_2 C1_2 1_555 1_555
H2_2 C2_2 1_555 1_555
C3_2 C2_2 1_555 1_555
C4_2 C3_2 1_555 1_555
C5_2 C4_2 1_555 1_555
H4_2 C5_2 1_555 1_555
C6_2 C3_2 1_555 1_555
C8_2 H8_2 1_555 1_555
H9_2 C8_2 1_555 1_555
H10_2 C8_2 1_555 1_555
C9_2 C8_2 1_555 1_555
C10_2 C9_2 1_555 1_555
C11_2 C10_2 1_555 1_555
H11_2 C11_2 1_555 1_555
C15_2 C16_2 1_555 1_555
C16_2 H15_2 1_555 1_555
H16_2 C16_2 1_555 1_555
C17_2 C16_2 1_555 1_555
H17_2 C17_2 1_555 1_555
H18_2 C17_2 1_555 1_555
C18_2 C17_2 1_555 1_555
N1_2 C1_2 1_555 1_555
N2_2 C6_2 1_555 1_555
N3_2 C9_2 1_555 1_555
O1_2 C15_2 1_555 1_555
O2_2 C15_2 1_555 1_555
O5 C18_2 1_555 1_555
O6 C18_2 1_555 1_555
Cd2 N1_2 1_555 1_555
O7_2 Cd2 1_555 1_555
C5_2 N1_2 1_555 1_555
N2_2 N3_2 1_555 1_555
O1_2 Cd2 1_555 1_555
O2_2 Cd2 1_555 1_555
H5_3 C7_2 1_555 1_555
H6_2 C7_2 1_555 1_555
H7_2 C7_2 1_555 1_555
C13_2 H13_2 1_555 1_555
H14_2 C14_2 1_555 1_555
N5 C12_2 1_555 1_555
C13_2 C14_2 1_555 1_555
C13_2 N5 1_555 1_555
H17_3 C17_3 1_555 1_555
C18_3 C17_3 1_555 1_555
O3_2 C18_3 1_555 1_555
O7 C18_3 1_555 1_555
Cd4_2 O3_2 1_555 1_555
O7 Cd4_2 1_555 1_555
C1_3 H1_3 1_555 1_555
C2_3 C1_3 1_555 1_555
H2_3 C2_3 1_555 1_555
C3_3 C2_3 1_555 1_555
C4_3 C3_3 1_555 1_555
H3_3 C4_3 1_555 1_555
C5_3 C4_3 1_555 1_555
H4_3 C5_3 1_555 1_555
C6_3 C3_3 1_555 1_555
C7_3 C6_3 1_555 1_555
H5_4 C7_3 1_555 1_555
H6_3 C7_3 1_555 1_555
H7_3 C7_3 1_555 1_555
C15_3 C16_3 1_555 1_555
H16_3 C16_3 1_555 1_555
N1_3 C1_3 1_555 1_555
O1_3 C15_3 1_555 1_555
O2_3 C15_3 1_555 1_555
Cd4 N1_3 1_555 1_555
N5_2 Cd4 1_555 1_555
O5_2 Cd4 1_555 1_555
O7_2 Cd4 1_555 1_555
C5_3 N1_3 1_555 1_555
O1_3 Cd4 1_555 1_555
O2_3 Cd4 1_555 1_555
C8_3 H8_3 1_555 1_555
H9_3 C8_3 1_555 1_555
H10_3 C8_3 1_555 1_555
C9_3 C8_3 1_555 1_555
C10_3 C9_3 1_555 1_555
C11_3 C10_3 1_555 1_555
H11_3 C11_3 1_555 1_555
C12_3 C11_3 1_555 1_555
H12_3 C12_3 1_555 1_555
C13_3 H13_3 1_555 1_555
C14_3 C10_3 1_555 1_555
H14_3 C14_3 1_555 1_555
N3_3 C9_3 1_555 1_555
N4_2 C12_3 1_555 1_555
Cd4_2 N4_2 1_555 1_555
C13_3 C14_3 1_555 1_555
C13_3 N4_2 1_555 1_555
N2_3 N3_3 1_555 1_555
H5_6 C7_4 1_555 1_555
H6_4 C7_4 1_555 1_555
H7_4 C7_4 1_555 1_555
C13_4 H13_4 1_555 1_555
H14_4 C14_4 1_555 1_555
N5_2 C12_4 1_555 1_555
C13_4 C14_4 1_555 1_555
C13_4 N5_2 1_555 1_555
C1_4 H1_4 1_555 1_555
C2_4 C1_4 1_555 1_555
H2_4 C2_4 1_555 1_555
C3_4 C2_4 1_555 1_555
C4_4 C3_4 1_555 1_555
C5_4 C4_4 1_555 1_555
H4_4 C5_4 1_555 1_555
C6_4 C3_4 1_555 1_555
C8_4 H8_4 1_555 1_555
H9_4 C8_4 1_555 1_555
H10_4 C8_4 1_555 1_555
C9_4 C8_4 1_555 1_555
C10_4 C9_4 1_555 1_555
C11_4 C10_4 1_555 1_555
H11_4 C11_4 1_555 1_555
C15_4 C16_4 1_555 1_555
C16_4 H15_4 1_555 1_555
H16_4 C16_4 1_555 1_555
C17_4 C16_4 1_555 1_555
H17_4 C17_4 1_555 1_555
H18_4 C17_4 1_555 1_555
C18_4 C17_4 1_555 1_555
N1_4 C1_4 1_555 1_555
N2_4 C6_4 1_555 1_555
N3_4 C9_4 1_555 1_555
O1_4 C15_4 1_555 1_555
O2_4 C15_4 1_555 1_555
O5_2 C18_4 1_555 1_555
O7_2 C18_4 1_555 1_555
Cd4_2 N1_4 1_555 1_555
C5_4 N1_4 1_555 1_555
N2_4 N3_4 1_555 1_555
O1_4 Cd4_2 1_555 1_555
O2_4 Cd4_2 1_555 1_555
C1_5 H1_5 1_555 1_555
C2_5 C1_5 1_555 1_555
H2_5 C2_5 1_555 1_555
C3_5 C2_5 1_555 1_555
C4_5 C3_5 1_555 1_555
H3_5 C4_5 1_555 1_555
C5_5 C4_5 1_555 1_555
H4_5 C5_5 1_555 1_555
C6_5 C3_5 1_555 1_555
C7_5 C6_5 1_555 1_555
H5_7 C7_5 1_555 1_555
H6_5 C7_5 1_555 1_555
H7_5 C7_5 1_555 1_555
C15_5 C16_5 1_555 1_555
H16_5 C16_5 1_555 1_555
N1_5 C1_5 1_555 1_555
O1_5 C15_5 1_555 1_555
O2_5 C15_5 1_555 1_555
Cd1_2 N1_5 1_555 1_555
N5_3 Cd1_2 1_555 1_555
O5_3 Cd1_2 1_555 1_555
O6_2 Cd1_2 1_555 1_555
O7_3 Cd1_2 1_555 1_555
C5_5 N1_5 1_555 1_555
O1_5 Cd1_2 1_555 1_555
O2_5 Cd1_2 1_555 1_555
H17_5 C17_5 1_555 1_555
C18_5 C17_5 1_555 1_555
O3_3 C18_5 1_555 1_555
O4_2 C18_5 1_555 1_555
Cd3 O3_3 1_555 1_555
O4_2 Cd3 1_555 1_555
C8_5 H8_5 1_555 1_555
H9_5 C8_5 1_555 1_555
H10_5 C8_5 1_555 1_555
C9_5 C8_5 1_555 1_555
C10_5 C9_5 1_555 1_555
C11_5 C10_5 1_555 1_555
H11_5 C11_5 1_555 1_555
C12_5 C11_5 1_555 1_555
H12_5 C12_5 1_555 1_555
C13_5 H13_5 1_555 1_555
C14_5 C10_5 1_555 1_555
H14_5 C14_5 1_555 1_555
N3_5 C9_5 1_555 1_555
N4_3 C12_5 1_555 1_555
Cd3 N4_3 1_555 1_555
C13_5 C14_5 1_555 1_555
C13_5 N4_3 1_555 1_555
N2_5 N3_5 1_555 1_555
H5_9 C7_6 1_555 1_555
H6_6 C7_6 1_555 1_555
H7_6 C7_6 1_555 1_555
C13_6 H13_6 1_555 1_555
H14_6 C14_6 1_555 1_555
N5_3 C12_6 1_555 1_555
C13_6 C14_6 1_555 1_555
C13_6 N5_3 1_555 1_555
C1_6 H1_6 1_555 1_555
C2_6 C1_6 1_555 1_555
H2_6 C2_6 1_555 1_555
C3_6 C2_6 1_555 1_555
C4_6 C3_6 1_555 1_555
C5_6 C4_6 1_555 1_555
H4_6 C5_6 1_555 1_555
C6_6 C3_6 1_555 1_555
C8_6 H8_6 1_555 1_555
H9_6 C8_6 1_555 1_555
H10_6 C8_6 1_555 1_555
C9_6 C8_6 1_555 1_555
C10_6 C9_6 1_555 1_555
C11_6 C10_6 1_555 1_555
H11_6 C11_6 1_555 1_555
C15_6 C16_6 1_555 1_555
C16_6 H15_6 1_555 1_555
H16_6 C16_6 1_555 1_555
C17_6 C16_6 1_555 1_555
H17_6 C17_6 1_555 1_555
H18_6 C17_6 1_555 1_555
C18_6 C17_6 1_555 1_555
N1_6 C1_6 1_555 1_555
N2_6 C6_6 1_555 1_555
N3_6 C9_6 1_555 1_555
O1_6 C15_6 1_555 1_555
O2_6 C15_6 1_555 1_555
O5_3 C18_6 1_555 1_555
O6_2 C18_6 1_555 1_555
Cd3 N1_6 1_555 1_555
Cd4_4 O6_2 1_555 1_555
C5_6 N1_6 1_555 1_555
N2_6 N3_6 1_555 1_555
O1_6 Cd3 1_555 1_555
O2_6 Cd3 1_555 1_555
C8_7 H8_7 1_555 1_555
H9_7 C8_7 1_555 1_555
H10_7 C8_7 1_555 1_555
C9_7 C8_7 1_555 1_555
C10_7 C9_7 1_555 1_555
C11_7 C10_7 1_555 1_555
H11_7 C11_7 1_555 1_555
C12_7 C11_7 1_555 1_555
H12_7 C12_7 1_555 1_555
C13_7 H13_7 1_555 1_555
C14_7 C10_7 1_555 1_555
H14_7 C14_7 1_555 1_555
N3_7 C9_7 1_555 1_555
N4_4 C12_7 1_555 1_555
Cd4_4 N4_4 1_555 1_555
C13_7 C14_7 1_555 1_555
C13_7 N4_4 1_555 1_555
N2_7 N3_7 1_555 1_555
H17_7 C17_7 1_555 1_555
C18_7 C17_7 1_555 1_555
O3_4 C18_7 1_555 1_555
O7_3 C18_7 1_555 1_555
Cd4_4 O3_4 1_555 1_555
O7_3 Cd4_4 1_555 1_555
C1_7 H1_7 1_555 1_555
C2_7 C1_7 1_555 1_555
H2_7 C2_7 1_555 1_555
C3_7 C2_7 1_555 1_555
C4_7 C3_7 1_555 1_555
H3_7 C4_7 1_555 1_555
C5_7 C4_7 1_555 1_555
H4_7 C5_7 1_555 1_555
C6_7 C3_7 1_555 1_555
C7_7 C6_7 1_555 1_555
H5_11 C7_7 1_555 1_555
H6_7 C7_7 1_555 1_555
H7_7 C7_7 1_555 1_555
C15_7 C16_7 1_555 1_555
H16_7 C16_7 1_555 1_555
N1_7 C1_7 1_555 1_555
O1_7 C15_7 1_555 1_555
O2_7 C15_7 1_555 1_555
Cd4_3 N1_7 1_555 1_555
N5_4 Cd4_3 1_555 1_555
O5_4 Cd4_3 1_555 1_555
O7_4 Cd4_3 1_555 1_555
C5_7 N1_7 1_555 1_555
O1_7 Cd4_3 1_555 1_555
O2_7 Cd4_3 1_555 1_555
C1_8 H1_8 1_555 1_555
C2_8 C1_8 1_555 1_555
H2_8 C2_8 1_555 1_555
C3_8 C2_8 1_555 1_555
C4_8 C3_8 1_555 1_555
C5_8 C4_8 1_555 1_555
H4_8 C5_8 1_555 1_555
C6_8 C3_8 1_555 1_555
C8_8 H8_8 1_555 1_555
H9_8 C8_8 1_555 1_555
H10_8 C8_8 1_555 1_555
C9_8 C8_8 1_555 1_555
C10_8 C9_8 1_555 1_555
C11_8 C10_8 1_555 1_555
H11_8 C11_8 1_555 1_555
C15_8 C16_8 1_555 1_555
C16_8 H15_8 1_555 1_555
H16_8 C16_8 1_555 1_555
C17_8 C16_8 1_555 1_555
H17_8 C17_8 1_555 1_555
H18_8 C17_8 1_555 1_555
C18_8 C17_8 1_555 1_555
N1_8 C1_8 1_555 1_555
N2_8 C6_8 1_555 1_555
N3_8 C9_8 1_555 1_555
O1_8 C15_8 1_555 1_555
O2_8 C15_8 1_555 1_555
O5_4 C18_8 1_555 1_555
O7_4 C18_8 1_555 1_555
Cd4_4 N1_8 1_555 1_555
C5_8 N1_8 1_555 1_555
N2_8 N3_8 1_555 1_555
O1_8 Cd4_4 1_555 1_555
O2_8 Cd4_4 1_555 1_555
H5_12 C7_8 1_555 1_555
H6_8 C7_8 1_555 1_555
H7_8 C7_8 1_555 1_555
C13_8 H13_8 1_555 1_555
H14_8 C14_8 1_555 1_555
N5_4 C12_8 1_555 1_555
C13_8 C14_8 1_555 1_555
C13_8 N5_4 1_555 1_555

#END
