
###############################################################################
#
# This file contains modified crystal structure data generated from the
# MOF subset of the Cambridge Structural Database (CSD) v543 
# hosted by the Cambridge Crystallographic Data Centre (CCDC).
#
# This work is licensed under the Creative Commons
# Attribution-NonCommercial-ShareAlike 4.0 International License.
# To view a copy of this license, visit
# http://creativecommons.org/licenses/by-nc-sa/4.0/
# or send a letter to
# Creative Commons, PO Box 1866, Mountain View, CA 94042, USA.
#
# CIF created using the CSD Python API on 29 September 2022
# The structure has been converted into the P1 space group
# The structure has a 3D framework
# The original CSD entry WIFGOJ is in the tetragonal crystal system
# The framework has been calculated to contain at least 10.0% void space
# The void calculation uses a probe of radius 1.32A, grid spacing 0.4
#
###############################################################################

data_WIFGOJ
_chemical_formula_moiety         '(C96 H144 Cd44 Cl44 N184)n'
_symmetry_cell_setting           triclinic
_symmetry_space_group_name_H-M   'P 1'
_symmetry_Int_Tables_number      1
_space_group_name_Hall           'P 1'
loop_
_symmetry_equiv_pos_site_id
_symmetry_equiv_pos_as_xyz
1 x,y,z
_cell_length_a                   22.2366(2)
_cell_length_b                   22.2366(2)
_cell_length_c                   18.6742(3)
_cell_angle_alpha                90
_cell_angle_beta                 90
_cell_angle_gamma                90
_cell_volume                     9233.76
loop_
_atom_site_label
_atom_site_type_symbol
_atom_site_fract_x
_atom_site_fract_y
_atom_site_fract_z
Cd5 Cd 0.08406(5) 0.70123(5) 0.23020(6)
Cd6 Cd 0.18373(5) 0.69365(5) 0.39483(5)
Cl3 Cl 0.0001(2) 0.84387(18) 0.0001(2)
Cl4 Cl 0.0371(2) 0.80434(18) 0.2021(2)
Cl5 Cl 0.07353(18) 0.7149(2) 0.3689(2)
Cl6 Cl 0.21334(19) 0.78655(19) 0.46757(19)
N17 N 0.1282(5) 0.6081(6) 0.2622(6)
N18 N 0.1661(5) 0.6075(5) 0.3169(6)
N19 N 0.1865(5) 0.5521(6) 0.3268(6)
N20 N 0.1617(5) 0.5158(5) 0.2796(6)
N21 N 0.1800(6) 0.6333(5) 0.4951(6)
N22 N 0.2096(5) 0.5809(5) 0.4952(6)
N23 N 0.2101(6) 0.5580(5) 0.5619(6)
N24 N 0.1805(5) 0.5968(5) 0.6055(6)
C9 C 0.1256(7) 0.5518(7) 0.2392(8)
C10 C 0.0879(7) 0.5300(7) 0.1749(9)
H13 H 0.0570 0.5589 0.1646
H14 H 0.0697 0.4920 0.1862
H15 H 0.1134 0.5255 0.1338
C11 C 0.1623(7) 0.6423(7) 0.5655(8)
C12 C 0.1303(8) 0.6960(8) 0.5901(9)
H16 H 0.0885 0.6928 0.5776
H17 H 0.1472 0.7310 0.5676
H18 H 0.1342 0.6995 0.6411
Cd7 Cd 0.30628(5) 0.81619(5) 0.39483(5)
Cd9 Cd 0.20133(5) 0.58406(5) 0.73024(6)
Cd12 Cd 0.26822(5) 0.47394(4) 0.59729(5)
Cd14 Cd 0.26812(5) 0.52597(4) 0.40279(5)
Cd17 Cd 0.20123(5) 0.41594(5) 0.26980(6)
N26 N 0.0581(5) 0.7094(5) 0.0614(6)
N27 N 0.0964(5) 0.6805(5) 0.1056(6)
N30 N 0.2094(6) 0.7499(6) 0.2910(6)
N31 N 0.1789(5) 0.7511(5) 0.2301(6)
N32 N 0.2905(5) 0.6687(5) 0.3913(6)
Cd3 Cd 0.02606(4) 0.76822(5) 0.90271(5)
N25 N 0.0801(6) 0.7093(5) 0.9955(6)
N28 N 0.0527(6) 0.6861(5) 0.8268(6)
N29 N 0.0155(5) 0.6626(5) 0.7798(6)
N34 N 0.1142(6) 0.8161(6) 0.8791(6)
Cd4 Cd 0.97403(4) 0.76812(5) 0.09721(5)
N13 N 0.8850(5) 0.8153(5) 0.1199(7)
N14 N 0.8313(5) 0.7905(5) 0.1087(6)
N15 N 0.7901(5) 0.8309(5) 0.1097(7)
N16 N 0.8161(6) 0.8858(6) 0.1209(6)
C7 C 0.8739(7) 0.8736(7) 0.1262(7)
C8 C 0.9229(7) 0.9230(8) 0.1357(10)
H10 H 0.9114 0.9496 0.1737
H11 H 0.9268 0.9454 0.0920
H12 H 0.9607 0.9044 0.1471
Cd8 Cd 0.68381(5) 0.80628(5) 0.10517(5)
Cd11 Cd 0.76822(5) 0.97394(4) 0.09729(5)
Cd20 Cd 0.80635(5) 0.68373(5) 0.10517(5)
N35 N 0.9479(6) 0.6865(5) 0.1732(6)
N36 N 0.9842(5) 0.6617(5) 0.2204(6)
N37 N 0.9191(5) 0.7096(5) 0.0048(6)
Cd1 Cd 0.81619(5) 0.69372(5) 0.60517(5)
Cd2 Cd 0.91594(5) 0.70133(5) 0.76976(6)
Cl1 Cl 0.92635(18) 0.7152(2) 0.6311(2)
Cl2 Cl 0.9628(2) 0.80436(18) 0.7980(2)
N1 N 0.8201(6) 0.6330(6) 0.5043(6)
N2 N 0.7907(5) 0.5801(6) 0.5045(6)
N3 N 0.7906(5) 0.5581(5) 0.4386(6)
N4 N 0.8195(5) 0.5964(5) 0.3944(6)
N5 N 0.8723(5) 0.6083(5) 0.7385(6)
N6 N 0.8336(5) 0.6075(5) 0.6821(6)
N7 N 0.8139(5) 0.5527(6) 0.6732(6)
N8 N 0.8374(5) 0.5155(5) 0.7202(6)
N9 N 0.8211(5) 0.7508(5) 0.7706(6)
N10 N 0.7911(6) 0.7504(6) 0.7090(6)
N11 N 0.7499(6) 0.7906(6) 0.7090(6)
N12 N 0.7511(5) 0.8211(5) 0.7699(6)
C1 C 0.8371(7) 0.6427(7) 0.4357(8)
C2 C 0.8691(8) 0.6947(8) 0.4093(9)
H1 H 0.8690 0.6943 0.3579
H2 H 0.9098 0.6938 0.4264
H3 H 0.8497 0.7306 0.4261
C3 C 0.8735(7) 0.5515(7) 0.7603(8)
C4 C 0.9121(8) 0.5306(7) 0.8254(9)
H4 H 0.9307 0.5649 0.8473
H5 H 0.9425 0.5032 0.8093
H6 H 0.8867 0.5109 0.8597
C5 C 0.7954(7) 0.7963(6) 0.8081(7)
C6 C 0.8131(7) 0.8143(7) 0.8817(7)
H7 H 0.7867 0.8454 0.8984
H8 H 0.8537 0.8290 0.8813
H9 H 0.8104 0.7801 0.9130
Cd10 Cd 0.79867(5) 0.41594(5) 0.73024(6)
Cd13 Cd 0.73178(5) 0.52606(4) 0.59729(5)
Cd15 Cd 0.73188(5) 0.47403(4) 0.40279(5)
Cd16 Cd 0.70123(5) 0.91594(5) 0.76980(6)
Cd18 Cd 0.79877(5) 0.58406(5) 0.26980(6)
Cd19 Cd 0.69365(5) 0.81627(5) 0.60517(5)
Cl7 Cl 0.78655(19) 0.78666(19) 0.53243(19)
N33 N 0.7099(5) 0.6691(5) 0.6097(7)
N38 N 0.9420(5) 0.7101(6) 0.9381(6)
N39 N 0.9032(5) 0.6805(5) 0.8945(6)
Cd4_2 Cd 0.02597(4) 0.23188(5) 0.09721(5)
N13_2 N 0.1150(5) 0.1847(5) 0.1199(7)
N14_2 N 0.1687(5) 0.2095(5) 0.1087(6)
N15_2 N 0.2099(5) 0.1691(5) 0.1097(7)
N16_2 N 0.1839(6) 0.1142(6) 0.1209(6)
C7_2 C 0.1261(7) 0.1264(7) 0.1262(7)
C8_2 C 0.0771(7) 0.0770(8) 0.1357(10)
H10_2 H 0.0886 0.0504 0.1737
H11_2 H 0.0732 0.0546 0.0920
H12_2 H 0.0393 0.0956 0.1471
Cd8_2 Cd 0.31619(5) 0.19372(5) 0.10517(5)
Cd11_2 Cd 0.23178(5) 0.02606(4) 0.09729(5)
Cd20_2 Cd 0.19365(5) 0.31627(5) 0.10517(5)
N35_2 N 0.0521(6) 0.3135(5) 0.1732(6)
N36_2 N 0.0158(5) 0.3383(5) 0.2204(6)
N37_2 N 0.0809(5) 0.2904(5) 0.0048(6)
Cd1_2 Cd 0.18381(5) 0.30628(5) 0.60517(5)
Cd2_2 Cd 0.08406(5) 0.29867(5) 0.76976(6)
Cl1_2 Cl 0.07365(18) 0.2848(2) 0.6311(2)
Cl2_2 Cl 0.0372(2) 0.19564(18) 0.7980(2)
N1_2 N 0.1799(6) 0.3670(6) 0.5043(6)
N2_2 N 0.2093(5) 0.4199(6) 0.5045(6)
N3_2 N 0.2094(5) 0.4419(5) 0.4386(6)
N4_2 N 0.1805(5) 0.4036(5) 0.3944(6)
N5_2 N 0.1277(5) 0.3917(5) 0.7385(6)
N6_2 N 0.1664(5) 0.3925(5) 0.6821(6)
N7_2 N 0.1861(5) 0.4473(6) 0.6732(6)
N8_2 N 0.1626(5) 0.4845(5) 0.7202(6)
N9_2 N 0.1789(5) 0.2492(5) 0.7706(6)
N10_2 N 0.2089(6) 0.2496(6) 0.7090(6)
N11_2 N 0.2501(6) 0.2094(6) 0.7090(6)
N12_2 N 0.2489(5) 0.1789(5) 0.7699(6)
C1_2 C 0.1629(7) 0.3573(7) 0.4357(8)
C2_2 C 0.1309(8) 0.3053(8) 0.4093(9)
H1_2 H 0.1310 0.3057 0.3579
H2_2 H 0.0902 0.3062 0.4264
H3_2 H 0.1503 0.2694 0.4261
C3_2 C 0.1265(7) 0.4485(7) 0.7603(8)
C4_2 C 0.0879(8) 0.4694(7) 0.8254(9)
H4_2 H 0.0693 0.4351 0.8473
H5_2 H 0.0575 0.4968 0.8093
H6_2 H 0.1133 0.4891 0.8597
C5_2 C 0.2046(7) 0.2037(6) 0.8081(7)
C6_2 C 0.1869(7) 0.1857(7) 0.8817(7)
H7_2 H 0.2133 0.1546 0.8984
H8_2 H 0.1463 0.1710 0.8813
H9_2 H 0.1896 0.2199 0.9130
Cd16_2 Cd 0.29877(5) 0.08406(5) 0.76980(6)
Cd19_2 Cd 0.30635(5) 0.18373(5) 0.60517(5)
Cl7_2 Cl 0.21345(19) 0.21334(19) 0.53243(19)
N33_2 N 0.2901(5) 0.3309(5) 0.6097(7)
N38_2 N 0.0580(5) 0.2899(6) 0.9381(6)
N39_2 N 0.0968(5) 0.3195(5) 0.8945(6)
Cd5_2 Cd 0.91594(5) 0.29877(5) 0.23020(6)
Cd6_2 Cd 0.81627(5) 0.30635(5) 0.39483(5)
Cl3_2 Cl 0.9999(2) 0.15613(18) 0.0001(2)
Cl4_2 Cl 0.9629(2) 0.19566(18) 0.2021(2)
Cl5_2 Cl 0.92647(18) 0.2851(2) 0.3689(2)
Cl6_2 Cl 0.78666(19) 0.21345(19) 0.46757(19)
N17_2 N 0.8718(5) 0.3919(6) 0.2622(6)
N18_2 N 0.8339(5) 0.3925(5) 0.3169(6)
N19_2 N 0.8135(5) 0.4479(6) 0.3268(6)
N20_2 N 0.8383(5) 0.4842(5) 0.2796(6)
N21_2 N 0.8200(6) 0.3667(5) 0.4951(6)
N22_2 N 0.7904(5) 0.4191(5) 0.4952(6)
N23_2 N 0.7899(6) 0.4420(5) 0.5619(6)
N24_2 N 0.8195(5) 0.4032(5) 0.6055(6)
C9_2 C 0.8744(7) 0.4482(7) 0.2392(8)
C10_2 C 0.9121(7) 0.4700(7) 0.1749(9)
H13_2 H 0.9430 0.4411 0.1646
H14_2 H 0.9303 0.5080 0.1862
H15_2 H 0.8866 0.4745 0.1338
C11_2 C 0.8377(7) 0.3577(7) 0.5655(8)
C12_2 C 0.8697(8) 0.3040(8) 0.5901(9)
H16_2 H 0.9115 0.3072 0.5776
H17_2 H 0.8528 0.2690 0.5676
H18_2 H 0.8658 0.3005 0.6411
Cd7_2 Cd 0.69372(5) 0.18381(5) 0.39483(5)
N26_2 N 0.9419(5) 0.2906(5) 0.0614(6)
N27_2 N 0.9036(5) 0.3195(5) 0.1056(6)
N30_2 N 0.7906(6) 0.2501(6) 0.2910(6)
N31_2 N 0.8211(5) 0.2489(5) 0.2301(6)
N32_2 N 0.7095(5) 0.3313(5) 0.3913(6)
Cd3_2 Cd 0.97394(4) 0.23178(5) 0.90271(5)
N25_2 N 0.9199(6) 0.2907(5) 0.9955(6)
N28_2 N 0.9473(6) 0.3139(5) 0.8268(6)
N29_2 N 0.9845(5) 0.3374(5) 0.7798(6)
N34_2 N 0.8858(6) 0.1839(6) 0.8791(6)
Cd2_3 Cd 0.70133(5) 0.08406(5) 0.23024(6)
Cl1_3 Cl 0.7152(2) 0.07365(18) 0.3689(2)
Cl2_3 Cl 0.80436(18) 0.0372(2) 0.2020(2)
N1_3 N 0.6330(6) 0.1799(6) 0.4957(6)
N2_3 N 0.5801(6) 0.2093(5) 0.4955(6)
N3_3 N 0.5581(5) 0.2094(5) 0.5614(6)
N4_3 N 0.5964(5) 0.1805(5) 0.6056(6)
N5_3 N 0.6083(5) 0.1277(5) 0.2615(6)
N6_3 N 0.6075(5) 0.1664(5) 0.3179(6)
N7_3 N 0.5527(6) 0.1861(5) 0.3268(6)
N8_3 N 0.5155(5) 0.1626(5) 0.2798(6)
N9_3 N 0.7508(5) 0.1789(5) 0.2294(6)
N10_3 N 0.7504(6) 0.2089(6) 0.2910(6)
C1_3 C 0.6427(7) 0.1629(7) 0.5643(8)
C2_3 C 0.6947(8) 0.1309(8) 0.5907(9)
H1_3 H 0.6943 0.1310 0.6421
H2_3 H 0.6938 0.0902 0.5736
H3_3 H 0.7306 0.1503 0.5739
C3_3 C 0.5515(7) 0.1265(7) 0.2397(8)
C4_3 C 0.5306(7) 0.0879(8) 0.1746(9)
H4_3 H 0.5649 0.0693 0.1527
H5_3 H 0.5032 0.0575 0.1907
H6_3 H 0.5109 0.1133 0.1403
C5_3 C 0.7963(6) 0.2046(7) 0.1919(7)
C6_3 C 0.8143(7) 0.1869(7) 0.1183(7)
H7_3 H 0.8454 0.2133 0.1016
H8_3 H 0.8290 0.1463 0.1187
H9_3 H 0.7801 0.1896 0.0870
Cd10_2 Cd 0.41594(5) 0.20133(5) 0.26976(6)
Cd13_2 Cd 0.52606(4) 0.26822(5) 0.40271(5)
Cd15_2 Cd 0.47403(4) 0.26812(5) 0.59721(5)
Cd18_2 Cd 0.58406(5) 0.20123(5) 0.73020(6)
N33_3 N 0.6691(5) 0.2901(5) 0.3903(7)
N38_3 N 0.7101(6) 0.0580(5) 0.0619(6)
N39_3 N 0.6805(5) 0.0968(5) 0.1055(6)
Cd4_3 Cd 0.76812(5) 0.02597(4) 0.90279(5)
N13_3 N 0.8153(5) 0.1150(5) 0.8801(7)
N14_3 N 0.7905(5) 0.1687(5) 0.8913(6)
N15_3 N 0.8309(5) 0.2099(5) 0.8903(7)
C7_3 C 0.8736(7) 0.1261(7) 0.8738(7)
C8_3 C 0.9230(8) 0.0771(7) 0.8643(10)
H10_3 H 0.9496 0.0886 0.8263
H11_3 H 0.9454 0.0732 0.9080
H12_3 H 0.9044 0.0393 0.8529
Cd8_3 Cd 0.80628(5) 0.31619(5) 0.89483(5)
Cd20_3 Cd 0.68373(5) 0.19365(5) 0.89483(5)
N35_3 N 0.6865(5) 0.0521(6) 0.8268(6)
N36_3 N 0.6617(5) 0.0158(5) 0.7796(6)
N37_3 N 0.7096(5) 0.0809(5) 0.9952(6)
N25_3 N 0.7093(5) 0.9199(6) 0.0045(6)
N28_3 N 0.6861(5) 0.9473(6) 0.1732(6)
N29_3 N 0.6626(5) 0.9845(5) 0.2202(6)
Cl3_3 Cl 0.84387(18) 0.9999(2) 0.9999(2)
Cl4_3 Cl 0.80434(18) 0.9629(2) 0.7979(2)
Cl5_3 Cl 0.7149(2) 0.92647(18) 0.6311(2)
N17_3 N 0.6081(6) 0.8718(5) 0.7378(6)
N18_3 N 0.6075(5) 0.8339(5) 0.6831(6)
N19_3 N 0.5521(6) 0.8135(5) 0.6732(6)
N20_3 N 0.5158(5) 0.8383(5) 0.7204(6)
N21_3 N 0.6333(5) 0.8200(6) 0.5049(6)
N22_3 N 0.5809(5) 0.7904(5) 0.5048(6)
N23_3 N 0.5580(5) 0.7899(6) 0.4381(6)
N24_3 N 0.5968(5) 0.8195(5) 0.3945(6)
C9_3 C 0.5518(7) 0.8744(7) 0.7608(8)
C10_3 C 0.5300(7) 0.9121(7) 0.8251(9)
H13_3 H 0.5589 0.9430 0.8354
H14_3 H 0.4920 0.9303 0.8138
H15_3 H 0.5255 0.8866 0.8662
C11_3 C 0.6423(7) 0.8377(7) 0.4345(8)
C12_3 C 0.6960(8) 0.8697(8) 0.4099(9)
H16_3 H 0.6928 0.9115 0.4224
H17_3 H 0.7310 0.8528 0.4324
H18_3 H 0.6995 0.8658 0.3589
Cd9_2 Cd 0.58406(5) 0.79867(5) 0.26976(6)
Cd12_2 Cd 0.47394(4) 0.73178(5) 0.40271(5)
Cd14_2 Cd 0.52597(4) 0.73188(5) 0.59721(5)
Cd17_2 Cd 0.41594(5) 0.79877(5) 0.73020(6)
N26_3 N 0.7094(5) 0.9419(5) 0.9386(6)
N27_3 N 0.6805(5) 0.9036(5) 0.8944(6)
N32_3 N 0.6687(5) 0.7095(5) 0.6087(6)
N25_4 N 0.2907(5) 0.0801(6) 0.0045(6)
N28_4 N 0.3139(5) 0.0527(6) 0.1732(6)
N29_4 N 0.3374(5) 0.0155(5) 0.2202(6)
Cl3_4 Cl 0.15613(18) 0.0001(2) 0.9999(2)
Cl4_4 Cl 0.19566(18) 0.0371(2) 0.7979(2)
Cl5_4 Cl 0.2851(2) 0.07353(18) 0.6311(2)
N17_4 N 0.3919(6) 0.1282(5) 0.7378(6)
N18_4 N 0.3925(5) 0.1661(5) 0.6831(6)
N19_4 N 0.4479(6) 0.1865(5) 0.6732(6)
N20_4 N 0.4842(5) 0.1617(5) 0.7204(6)
N21_4 N 0.3667(5) 0.1800(6) 0.5049(6)
N22_4 N 0.4191(5) 0.2096(5) 0.5048(6)
N23_4 N 0.4420(5) 0.2101(6) 0.4381(6)
N24_4 N 0.4032(5) 0.1805(5) 0.3945(6)
C9_4 C 0.4482(7) 0.1256(7) 0.7608(8)
C10_4 C 0.4700(7) 0.0879(7) 0.8251(9)
H13_4 H 0.4411 0.0570 0.8354
H14_4 H 0.5080 0.0697 0.8138
H15_4 H 0.4745 0.1134 0.8662
C11_4 C 0.3577(7) 0.1623(7) 0.4345(8)
C12_4 C 0.3040(8) 0.1303(8) 0.4099(9)
H16_4 H 0.3072 0.0885 0.4224
H17_4 H 0.2690 0.1472 0.4324
H18_4 H 0.3005 0.1342 0.3589
N26_4 N 0.2906(5) 0.0581(5) 0.9386(6)
N27_4 N 0.3195(5) 0.0964(5) 0.8944(6)
N32_4 N 0.3313(5) 0.2905(5) 0.6087(6)
Cd2_4 Cd 0.29867(5) 0.91594(5) 0.23024(6)
Cl1_4 Cl 0.2848(2) 0.92635(18) 0.3689(2)
Cl2_4 Cl 0.19564(18) 0.9628(2) 0.2020(2)
N1_4 N 0.3670(6) 0.8201(6) 0.4957(6)
N2_4 N 0.4199(6) 0.7907(5) 0.4955(6)
N3_4 N 0.4419(5) 0.7906(5) 0.5614(6)
N4_4 N 0.4036(5) 0.8195(5) 0.6056(6)
N5_4 N 0.3917(5) 0.8723(5) 0.2615(6)
N6_4 N 0.3925(5) 0.8336(5) 0.3179(6)
N7_4 N 0.4473(6) 0.8139(5) 0.3268(6)
N8_4 N 0.4845(5) 0.8374(5) 0.2798(6)
N9_4 N 0.2492(5) 0.8211(5) 0.2294(6)
N10_4 N 0.2496(6) 0.7911(6) 0.2910(6)
C1_4 C 0.3573(7) 0.8371(7) 0.5643(8)
C2_4 C 0.3053(8) 0.8691(8) 0.5907(9)
H1_4 H 0.3057 0.8690 0.6421
H2_4 H 0.3062 0.9098 0.5736
H3_4 H 0.2694 0.8497 0.5739
C3_4 C 0.4485(7) 0.8735(7) 0.2397(8)
C4_4 C 0.4694(7) 0.9121(8) 0.1746(9)
H4_4 H 0.4351 0.9307 0.1527
H5_4 H 0.4968 0.9425 0.1907
H6_4 H 0.4891 0.8867 0.1403
C5_4 C 0.2037(6) 0.7954(7) 0.1919(7)
C6_4 C 0.1857(7) 0.8131(7) 0.1183(7)
H7_4 H 0.1546 0.7867 0.1016
H8_4 H 0.1710 0.8537 0.1187
H9_4 H 0.2199 0.8104 0.0870
N33_4 N 0.3309(5) 0.7099(5) 0.3903(7)
N38_4 N 0.2899(6) 0.9420(5) 0.0619(6)
N39_4 N 0.3195(5) 0.9032(5) 0.1055(6)
Cd4_4 Cd 0.23188(5) 0.97403(4) 0.90279(5)
N13_4 N 0.1847(5) 0.8850(5) 0.8801(7)
N14_4 N 0.2095(5) 0.8313(5) 0.8913(6)
N15_4 N 0.1691(5) 0.7901(5) 0.8903(7)
C7_4 C 0.1264(7) 0.8739(7) 0.8738(7)
C8_4 C 0.0770(8) 0.9229(7) 0.8643(10)
H10_4 H 0.0504 0.9114 0.8263
H11_4 H 0.0546 0.9268 0.9080
H12_4 H 0.0956 0.9607 0.8529
Cd8_4 Cd 0.19372(5) 0.68381(5) 0.89483(5)
Cd20_4 Cd 0.31627(5) 0.80635(5) 0.89483(5)
N35_4 N 0.3135(5) 0.9479(6) 0.8268(6)
N36_4 N 0.3383(5) 0.9842(5) 0.7796(6)
N37_4 N 0.2904(5) 0.9191(5) 0.9952(6)
C11_5 C 0.6623(7) 0.1423(7) 0.0655(8)
C12_5 C 0.6303(8) 0.1960(8) 0.0901(9)
H16_5 H 0.5885 0.1928 0.0776
H17_5 H 0.6472 0.2310 0.0676
H18_5 H 0.6342 0.1995 0.1411
Cl1_5 Cl 0.42635(18) 0.2152(2) 0.1311(2)
Cl2_5 Cl 0.4628(2) 0.30436(18) 0.2980(2)
Cl3_5 Cl 0.5001(2) 0.34387(18) 0.5001(2)
Cl4_5 Cl 0.5371(2) 0.30434(18) 0.7021(2)
Cl5_5 Cl 0.57353(18) 0.2149(2) 0.8689(2)
Cl6_3 Cl 0.71334(19) 0.28655(19) 0.96757(19)
N1_5 N 0.3201(6) 0.1330(6) 0.0043(6)
N5_5 N 0.3723(5) 0.1083(5) 0.2385(6)
N6_5 N 0.3336(5) 0.1075(5) 0.1821(6)
N9_5 N 0.3211(5) 0.2508(5) 0.2706(6)
N10_5 N 0.2911(6) 0.2504(6) 0.2090(6)
N11_3 N 0.2499(6) 0.2906(6) 0.2090(6)
N12_3 N 0.2511(5) 0.3211(5) 0.2699(6)
N13_5 N 0.3850(5) 0.3153(5) 0.6199(7)
N16_3 N 0.3161(6) 0.3858(6) 0.6209(6)
N17_5 N 0.6282(5) 0.1081(6) 0.7622(6)
N18_5 N 0.6661(5) 0.1075(5) 0.8169(6)
N21_5 N 0.6800(6) 0.1333(5) 0.9951(6)
C3_5 C 0.3735(7) 0.0515(7) 0.2603(8)
C4_5 C 0.4121(8) 0.0306(7) 0.3254(9)
H4_5 H 0.4307 0.0649 0.3473
H5_5 H 0.4425 0.0032 0.3093
H6_5 H 0.3867 0.0109 0.3597
C5_5 C 0.2954(7) 0.2963(6) 0.3081(7)
C6_5 C 0.3131(7) 0.3143(7) 0.3817(7)
H7_5 H 0.2867 0.3454 0.3984
H8_5 H 0.3537 0.3290 0.3813
H9_5 H 0.3104 0.2801 0.4130
C7_5 C 0.3739(7) 0.3736(7) 0.6262(7)
C8_5 C 0.4229(7) 0.4230(8) 0.6357(10)
H10_5 H 0.4114 0.4496 0.6737
H11_5 H 0.4268 0.4454 0.5920
H12_5 H 0.4607 0.4044 0.6471
C9_5 C 0.6256(7) 0.0518(7) 0.7392(8)
C10_5 C 0.5879(7) 0.0300(7) 0.6749(9)
H13_5 H 0.5570 0.0589 0.6646
H15_5 H 0.6134 0.0255 0.6338
Cl7_3 Cl 0.28655(19) 0.28666(19) 0.03243(19)
N30_3 N 0.7094(6) 0.2499(6) 0.7910(6)
N31_3 N 0.6789(5) 0.2511(5) 0.7301(6)
N34_3 N 0.6142(6) 0.3161(6) 0.3791(6)
C1_5 C 0.3371(7) 0.1427(7) 0.9357(8)
C2_5 C 0.3691(8) 0.1947(8) 0.9093(9)
H1_5 H 0.3690 0.1943 0.8579
H2_5 H 0.4098 0.1938 0.9264
H3_5 H 0.3497 0.2306 0.9261
H14_5 H 0.5697 0.9920 0.6862
H14_6 H 0.4303 0.0080 0.6862
C11_6 C 0.3377(7) 0.8577(7) 0.0655(8)
C12_6 C 0.3697(8) 0.8040(8) 0.0901(9)
H16_6 H 0.4115 0.8072 0.0776
H17_6 H 0.3528 0.7690 0.0676
H18_6 H 0.3658 0.8005 0.1411
Cl1_6 Cl 0.57365(18) 0.7848(2) 0.1311(2)
Cl2_6 Cl 0.5372(2) 0.69564(18) 0.2980(2)
Cl3_6 Cl 0.4999(2) 0.65613(18) 0.5001(2)
Cl4_6 Cl 0.4629(2) 0.69566(18) 0.7021(2)
Cl5_6 Cl 0.42647(18) 0.7851(2) 0.8689(2)
Cl6_4 Cl 0.28666(19) 0.71345(19) 0.96757(19)
N1_6 N 0.6799(6) 0.8670(6) 0.0043(6)
N5_6 N 0.6277(5) 0.8917(5) 0.2385(6)
N6_6 N 0.6664(5) 0.8925(5) 0.1821(6)
N9_6 N 0.6789(5) 0.7492(5) 0.2706(6)
N10_6 N 0.7089(6) 0.7496(6) 0.2090(6)
N11_4 N 0.7501(6) 0.7094(6) 0.2090(6)
N12_4 N 0.7489(5) 0.6789(5) 0.2699(6)
N13_6 N 0.6150(5) 0.6847(5) 0.6199(7)
N16_4 N 0.6839(6) 0.6142(6) 0.6209(6)
N17_6 N 0.3718(5) 0.8919(6) 0.7622(6)
N18_6 N 0.3339(5) 0.8925(5) 0.8169(6)
N21_6 N 0.3200(6) 0.8667(5) 0.9951(6)
C3_6 C 0.6265(7) 0.9485(7) 0.2603(8)
C4_6 C 0.5879(8) 0.9694(7) 0.3254(9)
H4_6 H 0.5693 0.9351 0.3473
H5_6 H 0.5575 0.9968 0.3093
H6_6 H 0.6133 0.9891 0.3597
C5_6 C 0.7046(7) 0.7037(6) 0.3081(7)
C6_6 C 0.6869(7) 0.6857(7) 0.3817(7)
H7_6 H 0.7133 0.6546 0.3984
H8_6 H 0.6463 0.6710 0.3813
H9_6 H 0.6896 0.7199 0.4130
C7_6 C 0.6261(7) 0.6264(7) 0.6262(7)
C8_6 C 0.5771(7) 0.5770(8) 0.6357(10)
H10_6 H 0.5886 0.5504 0.6737
H11_6 H 0.5732 0.5546 0.5920
H12_6 H 0.5393 0.5956 0.6471
C9_6 C 0.3744(7) 0.9482(7) 0.7392(8)
C10_6 C 0.4121(7) 0.9700(7) 0.6749(9)
H13_6 H 0.4430 0.9411 0.6646
H15_6 H 0.3866 0.9745 0.6338
Cl7_4 Cl 0.71345(19) 0.71334(19) 0.03243(19)
N30_4 N 0.2906(6) 0.7501(6) 0.7910(6)
N31_4 N 0.3211(5) 0.7489(5) 0.7301(6)
N34_4 N 0.3858(6) 0.6839(6) 0.3791(6)
C1_6 C 0.6629(7) 0.8573(7) 0.9357(8)
C2_6 C 0.6309(8) 0.8053(8) 0.9093(9)
H1_6 H 0.6310 0.8057 0.8579
H2_6 H 0.5902 0.8062 0.9264
H3_6 H 0.6503 0.7694 0.9261
C1_7 C 0.1427(7) 0.6629(7) 0.0643(8)
C2_7 C 0.1947(8) 0.6309(8) 0.0907(9)
H1_7 H 0.1943 0.6310 0.1421
H2_7 H 0.1938 0.5902 0.0736
H3_7 H 0.2306 0.6503 0.0739
Cl1_7 Cl 0.2152(2) 0.57365(18) 0.8689(2)
Cl2_7 Cl 0.30436(18) 0.5372(2) 0.7020(2)
Cl3_7 Cl 0.34387(18) 0.4999(2) 0.4999(2)
Cl4_7 Cl 0.30434(18) 0.4629(2) 0.2979(2)
Cl5_7 Cl 0.2149(2) 0.42647(18) 0.1311(2)
N1_7 N 0.1330(6) 0.6799(6) 0.9957(6)
N5_7 N 0.1083(5) 0.6277(5) 0.7615(6)
N6_7 N 0.1075(5) 0.6664(5) 0.8179(6)
N9_7 N 0.2508(5) 0.6789(5) 0.7294(6)
N10_7 N 0.2504(6) 0.7089(6) 0.7910(6)
N13_7 N 0.3153(5) 0.6150(5) 0.3801(7)
N17_7 N 0.1081(6) 0.3718(5) 0.2378(6)
N18_7 N 0.1075(5) 0.3339(5) 0.1831(6)
N21_7 N 0.1333(5) 0.3200(6) 0.0049(6)
C3_7 C 0.0515(7) 0.6265(7) 0.7397(8)
C4_7 C 0.0306(7) 0.5879(8) 0.6746(9)
H4_7 H 0.0649 0.5693 0.6527
H5_7 H 0.0032 0.5575 0.6907
H6_7 H 0.0109 0.6133 0.6403
C5_7 C 0.2963(6) 0.7046(7) 0.6919(7)
C6_7 C 0.3143(7) 0.6869(7) 0.6183(7)
H7_7 H 0.3454 0.7133 0.6016
H8_7 H 0.3290 0.6463 0.6187
H9_7 H 0.2801 0.6896 0.5870
C7_7 C 0.3736(7) 0.6261(7) 0.3738(7)
C8_7 C 0.4230(8) 0.5771(7) 0.3643(10)
H10_7 H 0.4496 0.5886 0.3263
H11_7 H 0.4454 0.5732 0.4080
H12_7 H 0.4044 0.5393 0.3529
C9_7 C 0.0518(7) 0.3744(7) 0.2608(8)
C10_7 C 0.0300(7) 0.4121(7) 0.3251(9)
H13_7 H 0.0589 0.4430 0.3354
H15_7 H 0.0255 0.3866 0.3662
C11_7 C 0.1423(7) 0.3377(7) 0.9345(8)
C12_7 C 0.1960(8) 0.3697(8) 0.9099(9)
H16_7 H 0.1928 0.4115 0.9224
H17_7 H 0.2310 0.3528 0.9324
H18_7 H 0.1995 0.3658 0.8589
H14_7 H 0.9920 0.4303 0.3138
H14_8 H 0.0080 0.5697 0.3138
C1_8 C 0.8573(7) 0.3371(7) 0.0643(8)
C2_8 C 0.8053(8) 0.3691(8) 0.0907(9)
H1_8 H 0.8057 0.3690 0.1421
H2_8 H 0.8062 0.4098 0.0736
H3_8 H 0.7694 0.3497 0.0739
Cl1_8 Cl 0.7848(2) 0.42635(18) 0.8689(2)
Cl2_8 Cl 0.69564(18) 0.4628(2) 0.7020(2)
Cl3_8 Cl 0.65613(18) 0.5001(2) 0.4999(2)
Cl4_8 Cl 0.69566(18) 0.5371(2) 0.2979(2)
Cl5_8 Cl 0.7851(2) 0.57353(18) 0.1311(2)
N1_8 N 0.8670(6) 0.3201(6) 0.9957(6)
N5_8 N 0.8917(5) 0.3723(5) 0.7615(6)
N6_8 N 0.8925(5) 0.3336(5) 0.8179(6)
N9_8 N 0.7492(5) 0.3211(5) 0.7294(6)
N10_8 N 0.7496(6) 0.2911(6) 0.7910(6)
N13_8 N 0.6847(5) 0.3850(5) 0.3801(7)
N17_8 N 0.8919(6) 0.6282(5) 0.2378(6)
N18_8 N 0.8925(5) 0.6661(5) 0.1831(6)
N21_8 N 0.8667(5) 0.6800(6) 0.0049(6)
C3_8 C 0.9485(7) 0.3735(7) 0.7397(8)
C4_8 C 0.9694(7) 0.4121(8) 0.6746(9)
H4_8 H 0.9351 0.4307 0.6527
H5_8 H 0.9968 0.4425 0.6907
H6_8 H 0.9891 0.3867 0.6403
C5_8 C 0.7037(6) 0.2954(7) 0.6919(7)
C6_8 C 0.6857(7) 0.3131(7) 0.6183(7)
H7_8 H 0.6546 0.2867 0.6016
H8_8 H 0.6710 0.3537 0.6187
H9_8 H 0.7199 0.3104 0.5870
C7_8 C 0.6264(7) 0.3739(7) 0.3738(7)
C8_8 C 0.5770(8) 0.4229(7) 0.3643(10)
H10_8 H 0.5504 0.4114 0.3263
H11_8 H 0.5546 0.4268 0.4080
H12_8 H 0.5956 0.4607 0.3529
C9_8 C 0.9482(7) 0.6256(7) 0.2608(8)
C10_8 C 0.9700(7) 0.5879(7) 0.3251(9)
H13_8 H 0.9411 0.5570 0.3354
H15_8 H 0.9745 0.6134 0.3662
C11_8 C 0.8577(7) 0.6623(7) 0.9345(8)
C12_8 C 0.8040(8) 0.6303(8) 0.9099(9)
H16_8 H 0.8072 0.5885 0.9224
H17_8 H 0.7690 0.6472 0.9324
H18_8 H 0.8005 0.6342 0.8589
loop_
_geom_bond_atom_site_label_1
_geom_bond_atom_site_label_2
_geom_bond_site_symmetry_1
_geom_bond_site_symmetry_2
Cd5 Cl4 1_555 1_555
Cd6 Cl5 1_555 1_555
Cl5 Cd5 1_555 1_555
Cl6 Cd6 1_555 1_555
N17 Cd5 1_555 1_555
N18 Cd6 1_555 1_555
N19 N18 1_555 1_555
N20 N19 1_555 1_555
N21 Cd6 1_555 1_555
N22 N21 1_555 1_555
N23 N22 1_555 1_555
N24 N23 1_555 1_555
C9 N17 1_555 1_555
C10 C9 1_555 1_555
H13 C10 1_555 1_555
H14 C10 1_555 1_555
H15 C10 1_555 1_555
C11 N21 1_555 1_555
C12 C11 1_555 1_555
H16 C12 1_555 1_555
H17 C12 1_555 1_555
H18 C12 1_555 1_555
Cd7 Cl6 1_555 1_555
Cd9 N24 1_555 1_555
Cd12 N23 1_555 1_555
Cd14 N19 1_555 1_555
Cd17 N20 1_555 1_555
N27 Cd5 1_555 1_555
N30 Cd6 1_555 1_555
N31 Cd5 1_555 1_555
N32 Cd6 1_555 1_555
N17 N18 1_555 1_555
N20 C9 1_555 1_555
N22 Cd14 1_555 1_555
N24 C11 1_555 1_555
N26 N27 1_555 1_555
N30 N31 1_555 1_555
N25 Cd3 1_555 1_555
N28 Cd3 1_555 1_555
N34 Cd3 1_555 1_555
N28 N29 1_555 1_555
N13 Cd4 1_555 1_555
N14 N13 1_555 1_555
N15 N14 1_555 1_555
N16 N15 1_555 1_555
C7 N13 1_555 1_555
C8 C7 1_555 1_555
H10 C8 1_555 1_555
H11 C8 1_555 1_555
H12 C8 1_555 1_555
Cd8 N15 1_555 1_555
Cd11 N16 1_555 1_555
Cd20 N14 1_555 1_555
N35 Cd4 1_555 1_555
N37 Cd4 1_555 1_555
N16 C7 1_555 1_555
N35 N36 1_555 1_555
Cd1 Cl1 1_555 1_555
Cd2 Cl1 1_555 1_555
Cl2 Cd2 1_555 1_555
N1 Cd1 1_555 1_555
N2 N1 1_555 1_555
N3 N2 1_555 1_555
N4 N3 1_555 1_555
N5 Cd2 1_555 1_555
N6 Cd1 1_555 1_555
N7 N6 1_555 1_555
N8 N7 1_555 1_555
N9 Cd2 1_555 1_555
N10 Cd1 1_555 1_555
N11 N10 1_555 1_555
N12 N11 1_555 1_555
C1 N1 1_555 1_555
C2 C1 1_555 1_555
H1 C2 1_555 1_555
H2 C2 1_555 1_555
H3 C2 1_555 1_555
C3 N5 1_555 1_555
C4 C3 1_555 1_555
H4 C4 1_555 1_555
H5 C4 1_555 1_555
H6 C4 1_555 1_555
C5 N9 1_555 1_555
C6 C5 1_555 1_555
H7 C6 1_555 1_555
H8 C6 1_555 1_555
H9 C6 1_555 1_555
Cd10 N8 1_555 1_555
Cd13 N2 1_555 1_555
Cd15 N3 1_555 1_555
Cd16 N12 1_555 1_555
Cd18 N4 1_555 1_555
Cd19 N11 1_555 1_555
Cl7 Cd1 1_555 1_555
N33 Cd1 1_555 1_555
N39 Cd2 1_555 1_555
N4 C1 1_555 1_555
N5 N6 1_555 1_555
N7 Cd13 1_555 1_555
N8 C3 1_555 1_555
N9 N10 1_555 1_555
N12 C5 1_555 1_555
Cd19 Cl7 1_555 1_555
N38 N39 1_555 1_555
N13_2 Cd4_2 1_555 1_555
N14_2 N13_2 1_555 1_555
N15_2 N14_2 1_555 1_555
N16_2 N15_2 1_555 1_555
C7_2 N13_2 1_555 1_555
C8_2 C7_2 1_555 1_555
H10_2 C8_2 1_555 1_555
H11_2 C8_2 1_555 1_555
H12_2 C8_2 1_555 1_555
Cd8_2 N15_2 1_555 1_555
Cd11_2 N16_2 1_555 1_555
Cd20_2 N14_2 1_555 1_555
N35_2 Cd4_2 1_555 1_555
N37_2 Cd4_2 1_555 1_555
N16_2 C7_2 1_555 1_555
N35_2 N36_2 1_555 1_555
Cd1_2 Cl1_2 1_555 1_555
Cd2_2 Cl1_2 1_555 1_555
Cl2_2 Cd2_2 1_555 1_555
N1_2 Cd1_2 1_555 1_555
N2_2 N1_2 1_555 1_555
N3_2 N2_2 1_555 1_555
N4_2 N3_2 1_555 1_555
N5_2 Cd2_2 1_555 1_555
N6_2 Cd1_2 1_555 1_555
N7_2 N6_2 1_555 1_555
N8_2 N7_2 1_555 1_555
N9_2 Cd2_2 1_555 1_555
N10_2 Cd1_2 1_555 1_555
N11_2 N10_2 1_555 1_555
N12_2 N11_2 1_555 1_555
C1_2 N1_2 1_555 1_555
C2_2 C1_2 1_555 1_555
H1_2 C2_2 1_555 1_555
H2_2 C2_2 1_555 1_555
H3_2 C2_2 1_555 1_555
C3_2 N5_2 1_555 1_555
C4_2 C3_2 1_555 1_555
H4_2 C4_2 1_555 1_555
H5_2 C4_2 1_555 1_555
H6_2 C4_2 1_555 1_555
C5_2 N9_2 1_555 1_555
C6_2 C5_2 1_555 1_555
H7_2 C6_2 1_555 1_555
H8_2 C6_2 1_555 1_555
H9_2 C6_2 1_555 1_555
Cd9 N8_2 1_555 1_555
Cd12 N2_2 1_555 1_555
Cd14 N3_2 1_555 1_555
Cd16_2 N12_2 1_555 1_555
Cd17 N4_2 1_555 1_555
Cd19_2 N11_2 1_555 1_555
Cl7_2 Cd1_2 1_555 1_555
N33_2 Cd1_2 1_555 1_555
N39_2 Cd2_2 1_555 1_555
N4_2 C1_2 1_555 1_555
N5_2 N6_2 1_555 1_555
N7_2 Cd12 1_555 1_555
N8_2 C3_2 1_555 1_555
N9_2 N10_2 1_555 1_555
N12_2 C5_2 1_555 1_555
Cd19_2 Cl7_2 1_555 1_555
N38_2 N39_2 1_555 1_555
Cd5_2 Cl4_2 1_555 1_555
Cd6_2 Cl5_2 1_555 1_555
Cl5_2 Cd5_2 1_555 1_555
Cl6_2 Cd6_2 1_555 1_555
N17_2 Cd5_2 1_555 1_555
N18_2 Cd6_2 1_555 1_555
N19_2 N18_2 1_555 1_555
N20_2 N19_2 1_555 1_555
N21_2 Cd6_2 1_555 1_555
N22_2 N21_2 1_555 1_555
N23_2 N22_2 1_555 1_555
N24_2 N23_2 1_555 1_555
C9_2 N17_2 1_555 1_555
C10_2 C9_2 1_555 1_555
H13_2 C10_2 1_555 1_555
H14_2 C10_2 1_555 1_555
H15_2 C10_2 1_555 1_555
C11_2 N21_2 1_555 1_555
C12_2 C11_2 1_555 1_555
H16_2 C12_2 1_555 1_555
H17_2 C12_2 1_555 1_555
H18_2 C12_2 1_555 1_555
Cd7_2 Cl6_2 1_555 1_555
Cd10 N24_2 1_555 1_555
Cd13 N23_2 1_555 1_555
Cd15 N19_2 1_555 1_555
Cd18 N20_2 1_555 1_555
N27_2 Cd5_2 1_555 1_555
N30_2 Cd6_2 1_555 1_555
N31_2 Cd5_2 1_555 1_555
N32_2 Cd6_2 1_555 1_555
N17_2 N18_2 1_555 1_555
N20_2 C9_2 1_555 1_555
N22_2 Cd15 1_555 1_555
N24_2 C11_2 1_555 1_555
N26_2 N27_2 1_555 1_555
N30_2 N31_2 1_555 1_555
N25_2 Cd3_2 1_555 1_555
N28_2 Cd3_2 1_555 1_555
N34_2 Cd3_2 1_555 1_555
N28_2 N29_2 1_555 1_555
Cd7_2 Cl1_3 1_555 1_555
Cd2_3 Cl1_3 1_555 1_555
Cl2_3 Cd2_3 1_555 1_555
N1_3 Cd7_2 1_555 1_555
N2_3 N1_3 1_555 1_555
N3_3 N2_3 1_555 1_555
N4_3 N3_3 1_555 1_555
N5_3 Cd2_3 1_555 1_555
N6_3 Cd7_2 1_555 1_555
N7_3 N6_3 1_555 1_555
N8_3 N7_3 1_555 1_555
N9_3 Cd2_3 1_555 1_555
N10_3 Cd7_2 1_555 1_555
N30_2 N10_3 1_555 1_555
C1_3 N1_3 1_555 1_555
C2_3 C1_3 1_555 1_555
H1_3 C2_3 1_555 1_555
H2_3 C2_3 1_555 1_555
H3_3 C2_3 1_555 1_555
C3_3 N5_3 1_555 1_555
C4_3 C3_3 1_555 1_555
H4_3 C4_3 1_555 1_555
H5_3 C4_3 1_555 1_555
H6_3 C4_3 1_555 1_555
C5_3 N9_3 1_555 1_555
C6_3 C5_3 1_555 1_555
H7_3 C6_3 1_555 1_555
H8_3 C6_3 1_555 1_555
H9_3 C6_3 1_555 1_555
Cd10_2 N8_3 1_555 1_555
Cd13_2 N2_3 1_555 1_555
Cd15_2 N3_3 1_555 1_555
Cd18_2 N4_3 1_555 1_555
N33_3 Cd7_2 1_555 1_555
N39_3 Cd2_3 1_555 1_555
N4_3 C1_3 1_555 1_555
N5_3 N6_3 1_555 1_555
N7_3 Cd13_2 1_555 1_555
N8_3 C3_3 1_555 1_555
N9_3 N10_3 1_555 1_555
N31_2 C5_3 1_555 1_555
N38_3 N39_3 1_555 1_555
N13_3 Cd4_3 1_555 1_555
N14_3 N13_3 1_555 1_555
N15_3 N14_3 1_555 1_555
N34_2 N15_3 1_555 1_555
C7_3 N13_3 1_555 1_555
C8_3 C7_3 1_555 1_555
H10_3 C8_3 1_555 1_555
H11_3 C8_3 1_555 1_555
H12_3 C8_3 1_555 1_555
Cd8_3 N15_3 1_555 1_555
Cd20_3 N14_3 1_555 1_555
N35_3 Cd4_3 1_555 1_555
N37_3 Cd4_3 1_555 1_555
N34_2 C7_3 1_555 1_555
N35_3 N36_3 1_555 1_555
N25_3 Cd11 1_555 1_555
N28_3 Cd11 1_555 1_555
N28_3 N29_3 1_555 1_555
Cd16 Cl4_3 1_555 1_555
Cd19 Cl5_3 1_555 1_555
Cl5_3 Cd16 1_555 1_555
N17_3 Cd16 1_555 1_555
N18_3 Cd19 1_555 1_555
N19_3 N18_3 1_555 1_555
N20_3 N19_3 1_555 1_555
N21_3 Cd19 1_555 1_555
N22_3 N21_3 1_555 1_555
N23_3 N22_3 1_555 1_555
N24_3 N23_3 1_555 1_555
C9_3 N17_3 1_555 1_555
C10_3 C9_3 1_555 1_555
H13_3 C10_3 1_555 1_555
H14_3 C10_3 1_555 1_555
H15_3 C10_3 1_555 1_555
C11_3 N21_3 1_555 1_555
C12_3 C11_3 1_555 1_555
H16_3 C12_3 1_555 1_555
H17_3 C12_3 1_555 1_555
H18_3 C12_3 1_555 1_555
Cd9_2 N24_3 1_555 1_555
Cd12_2 N23_3 1_555 1_555
Cd14_2 N19_3 1_555 1_555
Cd17_2 N20_3 1_555 1_555
N27_3 Cd16 1_555 1_555
N32_3 Cd19 1_555 1_555
N17_3 N18_3 1_555 1_555
N20_3 C9_3 1_555 1_555
N22_3 Cd14_2 1_555 1_555
N24_3 C11_3 1_555 1_555
N26_3 N27_3 1_555 1_555
N25_4 Cd11_2 1_555 1_555
N28_4 Cd11_2 1_555 1_555
N28_4 N29_4 1_555 1_555
Cd16_2 Cl4_4 1_555 1_555
Cd19_2 Cl5_4 1_555 1_555
Cl5_4 Cd16_2 1_555 1_555
N17_4 Cd16_2 1_555 1_555
N18_4 Cd19_2 1_555 1_555
N19_4 N18_4 1_555 1_555
N20_4 N19_4 1_555 1_555
N21_4 Cd19_2 1_555 1_555
N22_4 N21_4 1_555 1_555
N23_4 N22_4 1_555 1_555
N24_4 N23_4 1_555 1_555
C9_4 N17_4 1_555 1_555
C10_4 C9_4 1_555 1_555
H13_4 C10_4 1_555 1_555
H14_4 C10_4 1_555 1_555
H15_4 C10_4 1_555 1_555
C11_4 N21_4 1_555 1_555
C12_4 C11_4 1_555 1_555
H16_4 C12_4 1_555 1_555
H17_4 C12_4 1_555 1_555
H18_4 C12_4 1_555 1_555
Cd10_2 N24_4 1_555 1_555
Cd13_2 N23_4 1_555 1_555
Cd15_2 N19_4 1_555 1_555
Cd18_2 N20_4 1_555 1_555
N27_4 Cd16_2 1_555 1_555
N32_4 Cd19_2 1_555 1_555
N17_4 N18_4 1_555 1_555
N20_4 C9_4 1_555 1_555
N22_4 Cd15_2 1_555 1_555
N24_4 C11_4 1_555 1_555
N26_4 N27_4 1_555 1_555
Cd7 Cl1_4 1_555 1_555
Cd2_4 Cl1_4 1_555 1_555
Cl2_4 Cd2_4 1_555 1_555
N1_4 Cd7 1_555 1_555
N2_4 N1_4 1_555 1_555
N3_4 N2_4 1_555 1_555
N4_4 N3_4 1_555 1_555
N5_4 Cd2_4 1_555 1_555
N6_4 Cd7 1_555 1_555
N7_4 N6_4 1_555 1_555
N8_4 N7_4 1_555 1_555
N9_4 Cd2_4 1_555 1_555
N10_4 Cd7 1_555 1_555
N30 N10_4 1_555 1_555
C1_4 N1_4 1_555 1_555
C2_4 C1_4 1_555 1_555
H1_4 C2_4 1_555 1_555
H2_4 C2_4 1_555 1_555
H3_4 C2_4 1_555 1_555
C3_4 N5_4 1_555 1_555
C4_4 C3_4 1_555 1_555
H4_4 C4_4 1_555 1_555
H5_4 C4_4 1_555 1_555
H6_4 C4_4 1_555 1_555
C5_4 N9_4 1_555 1_555
C6_4 C5_4 1_555 1_555
H7_4 C6_4 1_555 1_555
H8_4 C6_4 1_555 1_555
H9_4 C6_4 1_555 1_555
Cd9_2 N8_4 1_555 1_555
Cd12_2 N2_4 1_555 1_555
Cd14_2 N3_4 1_555 1_555
Cd17_2 N4_4 1_555 1_555
N33_4 Cd7 1_555 1_555
N39_4 Cd2_4 1_555 1_555
N4_4 C1_4 1_555 1_555
N5_4 N6_4 1_555 1_555
N7_4 Cd12_2 1_555 1_555
N8_4 C3_4 1_555 1_555
N9_4 N10_4 1_555 1_555
N31 C5_4 1_555 1_555
N38_4 N39_4 1_555 1_555
N13_4 Cd4_4 1_555 1_555
N14_4 N13_4 1_555 1_555
N15_4 N14_4 1_555 1_555
N34 N15_4 1_555 1_555
C7_4 N13_4 1_555 1_555
C8_4 C7_4 1_555 1_555
H10_4 C8_4 1_555 1_555
H11_4 C8_4 1_555 1_555
H12_4 C8_4 1_555 1_555
Cd8_4 N15_4 1_555 1_555
Cd20_4 N14_4 1_555 1_555
N35_4 Cd4_4 1_555 1_555
N37_4 Cd4_4 1_555 1_555
N34 C7_4 1_555 1_555
N35_4 N36_4 1_555 1_555
C12_5 C11_5 1_555 1_555
H16_5 C12_5 1_555 1_555
H17_5 C12_5 1_555 1_555
H18_5 C12_5 1_555 1_555
N39_3 C11_5 1_555 1_555
Cd8_2 Cl1_5 1_555 1_555
Cd10_2 Cl1_5 1_555 1_555
Cd13_2 Cl2_5 1_555 1_555
Cd15_2 Cl3_5 1_555 1_555
Cd18_2 Cl4_5 1_555 1_555
Cd20_3 Cl5_5 1_555 1_555
Cl2_5 Cd10_2 1_555 1_555
Cl3_5 Cd13_2 1_555 1_555
Cl4_5 Cd15_2 1_555 1_555
Cl5_5 Cd18_2 1_555 1_555
Cl6_3 Cd20_3 1_555 1_555
N1_5 Cd8_2 1_555 1_555
N25_4 N1_5 1_555 1_555
N5_5 Cd10_2 1_555 1_555
N6_5 Cd8_2 1_555 1_555
N28_4 N6_5 1_555 1_555
N9_5 Cd10_2 1_555 1_555
N10_5 Cd8_2 1_555 1_555
N11_3 N10_5 1_555 1_555
N12_3 N11_3 1_555 1_555
N13_5 Cd15_2 1_555 1_555
N32_4 N13_5 1_555 1_555
N33_2 N32_4 1_555 1_555
N16_3 N33_2 1_555 1_555
N17_5 Cd18_2 1_555 1_555
N18_5 Cd20_3 1_555 1_555
N35_3 N18_5 1_555 1_555
N21_5 Cd20_3 1_555 1_555
N37_3 N21_5 1_555 1_555
C3_5 N5_5 1_555 1_555
C4_5 C3_5 1_555 1_555
H4_5 C4_5 1_555 1_555
H5_5 C4_5 1_555 1_555
H6_5 C4_5 1_555 1_555
C5_5 N9_5 1_555 1_555
C6_5 C5_5 1_555 1_555
H7_5 C6_5 1_555 1_555
H8_5 C6_5 1_555 1_555
H9_5 C6_5 1_555 1_555
C7_5 N13_5 1_555 1_555
C8_5 C7_5 1_555 1_555
H10_5 C8_5 1_555 1_555
H11_5 C8_5 1_555 1_555
H12_5 C8_5 1_555 1_555
C9_5 N17_5 1_555 1_555
C10_5 C9_5 1_555 1_555
H13_5 C10_5 1_555 1_555
H15_5 C10_5 1_555 1_555
Cd8_3 Cl6_3 1_555 1_555
Cd12 N16_3 1_555 1_555
Cd17 N12_3 1_555 1_555
Cd20_2 N11_3 1_555 1_555
Cl7_3 Cd8_2 1_555 1_555
N30_3 Cd20_3 1_555 1_555
N31_3 Cd18_2 1_555 1_555
N34_3 Cd13_2 1_555 1_555
N5_5 N6_5 1_555 1_555
N29_4 C3_5 1_555 1_555
N9_5 N10_5 1_555 1_555
N12_3 C5_5 1_555 1_555
N16_3 C7_5 1_555 1_555
N17_5 N18_5 1_555 1_555
N36_3 C9_5 1_555 1_555
Cd20_2 Cl7_3 1_555 1_555
N30_3 N31_3 1_555 1_555
C2_5 C1_5 1_555 1_555
H1_5 C2_5 1_555 1_555
H2_5 C2_5 1_555 1_555
H3_5 C2_5 1_555 1_555
N27_4 C1_5 1_555 1_555
C12_6 C11_6 1_555 1_555
H16_6 C12_6 1_555 1_555
H17_6 C12_6 1_555 1_555
H18_6 C12_6 1_555 1_555
N39_4 C11_6 1_555 1_555
Cd8 Cl1_6 1_555 1_555
Cd9_2 Cl1_6 1_555 1_555
Cd12_2 Cl2_6 1_555 1_555
Cd14_2 Cl3_6 1_555 1_555
Cd17_2 Cl4_6 1_555 1_555
Cd20_4 Cl5_6 1_555 1_555
Cl2_6 Cd9_2 1_555 1_555
Cl3_6 Cd12_2 1_555 1_555
Cl4_6 Cd14_2 1_555 1_555
Cl5_6 Cd17_2 1_555 1_555
Cl6_4 Cd20_4 1_555 1_555
N1_6 Cd8 1_555 1_555
N25_3 N1_6 1_555 1_555
N5_6 Cd9_2 1_555 1_555
N6_6 Cd8 1_555 1_555
N28_3 N6_6 1_555 1_555
N9_6 Cd9_2 1_555 1_555
N10_6 Cd8 1_555 1_555
N11_4 N10_6 1_555 1_555
N12_4 N11_4 1_555 1_555
N13_6 Cd14_2 1_555 1_555
N32_3 N13_6 1_555 1_555
N33 N32_3 1_555 1_555
N16_4 N33 1_555 1_555
N17_6 Cd17_2 1_555 1_555
N18_6 Cd20_4 1_555 1_555
N35_4 N18_6 1_555 1_555
N21_6 Cd20_4 1_555 1_555
N37_4 N21_6 1_555 1_555
C3_6 N5_6 1_555 1_555
C4_6 C3_6 1_555 1_555
H4_6 C4_6 1_555 1_555
H5_6 C4_6 1_555 1_555
H6_6 C4_6 1_555 1_555
C5_6 N9_6 1_555 1_555
C6_6 C5_6 1_555 1_555
H7_6 C6_6 1_555 1_555
H8_6 C6_6 1_555 1_555
H9_6 C6_6 1_555 1_555
C7_6 N13_6 1_555 1_555
C8_6 C7_6 1_555 1_555
H10_6 C8_6 1_555 1_555
H11_6 C8_6 1_555 1_555
H12_6 C8_6 1_555 1_555
C9_6 N17_6 1_555 1_555
C10_6 C9_6 1_555 1_555
H13_6 C10_6 1_555 1_555
H15_6 C10_6 1_555 1_555
Cd8_4 Cl6_4 1_555 1_555
Cd13 N16_4 1_555 1_555
Cd18 N12_4 1_555 1_555
Cd20 N11_4 1_555 1_555
Cl7_4 Cd8 1_555 1_555
N30_4 Cd20_4 1_555 1_555
N31_4 Cd17_2 1_555 1_555
N34_4 Cd12_2 1_555 1_555
N5_6 N6_6 1_555 1_555
N29_3 C3_6 1_555 1_555
N9_6 N10_6 1_555 1_555
N12_4 C5_6 1_555 1_555
N16_4 C7_6 1_555 1_555
N17_6 N18_6 1_555 1_555
N36_4 C9_6 1_555 1_555
Cd20 Cl7_4 1_555 1_555
N30_4 N31_4 1_555 1_555
C2_6 C1_6 1_555 1_555
H1_6 C2_6 1_555 1_555
H2_6 C2_6 1_555 1_555
H3_6 C2_6 1_555 1_555
N27_3 C1_6 1_555 1_555
C2_7 C1_7 1_555 1_555
H1_7 C2_7 1_555 1_555
H2_7 C2_7 1_555 1_555
H3_7 C2_7 1_555 1_555
N27 C1_7 1_555 1_555
Cd8_4 Cl1_7 1_555 1_555
Cd9 Cl1_7 1_555 1_555
Cd12 Cl2_7 1_555 1_555
Cd14 Cl3_7 1_555 1_555
Cd17 Cl4_7 1_555 1_555
Cd20_2 Cl5_7 1_555 1_555
Cl2_7 Cd9 1_555 1_555
Cl3_7 Cd12 1_555 1_555
Cl4_7 Cd14 1_555 1_555
Cl5_7 Cd17 1_555 1_555
N1_7 Cd8_4 1_555 1_555
N25 N1_7 1_555 1_555
N5_7 Cd9 1_555 1_555
N6_7 Cd8_4 1_555 1_555
N28 N6_7 1_555 1_555
N9_7 Cd9 1_555 1_555
N10_7 Cd8_4 1_555 1_555
N30_4 N10_7 1_555 1_555
N13_7 Cd14 1_555 1_555
N32 N13_7 1_555 1_555
N33_4 N32 1_555 1_555
N34_4 N33_4 1_555 1_555
N17_7 Cd17 1_555 1_555
N18_7 Cd20_2 1_555 1_555
N35_2 N18_7 1_555 1_555
N21_7 Cd20_2 1_555 1_555
N37_2 N21_7 1_555 1_555
C3_7 N5_7 1_555 1_555
C4_7 C3_7 1_555 1_555
H4_7 C4_7 1_555 1_555
H5_7 C4_7 1_555 1_555
H6_7 C4_7 1_555 1_555
C5_7 N9_7 1_555 1_555
C6_7 C5_7 1_555 1_555
H7_7 C6_7 1_555 1_555
H8_7 C6_7 1_555 1_555
H9_7 C6_7 1_555 1_555
C7_7 N13_7 1_555 1_555
C8_7 C7_7 1_555 1_555
H10_7 C8_7 1_555 1_555
H11_7 C8_7 1_555 1_555
H12_7 C8_7 1_555 1_555
C9_7 N17_7 1_555 1_555
C10_7 C9_7 1_555 1_555
H13_7 C10_7 1_555 1_555
H15_7 C10_7 1_555 1_555
N5_7 N6_7 1_555 1_555
N29 C3_7 1_555 1_555
N9_7 N10_7 1_555 1_555
N31_4 C5_7 1_555 1_555
N34_4 C7_7 1_555 1_555
N17_7 N18_7 1_555 1_555
N36_2 C9_7 1_555 1_555
C12_7 C11_7 1_555 1_555
H16_7 C12_7 1_555 1_555
H17_7 C12_7 1_555 1_555
H18_7 C12_7 1_555 1_555
N39_2 C11_7 1_555 1_555
C2_8 C1_8 1_555 1_555
H1_8 C2_8 1_555 1_555
H2_8 C2_8 1_555 1_555
H3_8 C2_8 1_555 1_555
N27_2 C1_8 1_555 1_555
Cd8_3 Cl1_8 1_555 1_555
Cd10 Cl1_8 1_555 1_555
Cd13 Cl2_8 1_555 1_555
Cd15 Cl3_8 1_555 1_555
Cd18 Cl4_8 1_555 1_555
Cd20 Cl5_8 1_555 1_555
Cl2_8 Cd10 1_555 1_555
Cl3_8 Cd13 1_555 1_555
Cl4_8 Cd15 1_555 1_555
Cl5_8 Cd18 1_555 1_555
N1_8 Cd8_3 1_555 1_555
N25_2 N1_8 1_555 1_555
N5_8 Cd10 1_555 1_555
N6_8 Cd8_3 1_555 1_555
N28_2 N6_8 1_555 1_555
N9_8 Cd10 1_555 1_555
N10_8 Cd8_3 1_555 1_555
N30_3 N10_8 1_555 1_555
N13_8 Cd15 1_555 1_555
N32_2 N13_8 1_555 1_555
N33_3 N32_2 1_555 1_555
N34_3 N33_3 1_555 1_555
N17_8 Cd18 1_555 1_555
N18_8 Cd20 1_555 1_555
N35 N18_8 1_555 1_555
N21_8 Cd20 1_555 1_555
N37 N21_8 1_555 1_555
C3_8 N5_8 1_555 1_555
C4_8 C3_8 1_555 1_555
H4_8 C4_8 1_555 1_555
H5_8 C4_8 1_555 1_555
H6_8 C4_8 1_555 1_555
C5_8 N9_8 1_555 1_555
C6_8 C5_8 1_555 1_555
H7_8 C6_8 1_555 1_555
H8_8 C6_8 1_555 1_555
H9_8 C6_8 1_555 1_555
C7_8 N13_8 1_555 1_555
C8_8 C7_8 1_555 1_555
H10_8 C8_8 1_555 1_555
H11_8 C8_8 1_555 1_555
H12_8 C8_8 1_555 1_555
C9_8 N17_8 1_555 1_555
C10_8 C9_8 1_555 1_555
H13_8 C10_8 1_555 1_555
H15_8 C10_8 1_555 1_555
N5_8 N6_8 1_555 1_555
N29_2 C3_8 1_555 1_555
N9_8 N10_8 1_555 1_555
N31_3 C5_8 1_555 1_555
N34_3 C7_8 1_555 1_555
N17_8 N18_8 1_555 1_555
N36 C9_8 1_555 1_555
C12_8 C11_8 1_555 1_555
H16_8 C12_8 1_555 1_555
H17_8 C12_8 1_555 1_555
H18_8 C12_8 1_555 1_555
N39 C11_8 1_555 1_555

#END
