
###############################################################################
#
# This file contains modified crystal structure data generated from the
# MOF subset of the Cambridge Structural Database (CSD) v543 
# hosted by the Cambridge Crystallographic Data Centre (CCDC).
#
# This work is licensed under the Creative Commons
# Attribution-NonCommercial-ShareAlike 4.0 International License.
# To view a copy of this license, visit
# http://creativecommons.org/licenses/by-nc-sa/4.0/
# or send a letter to
# Creative Commons, PO Box 1866, Mountain View, CA 94042, USA.
#
# CIF created using the CSD Python API on 29 September 2022
# The structure has been converted into the P1 space group
# The structure has a 3D framework
# The original CSD entry WIFSAI is in the monoclinic crystal system
# The framework has been calculated to contain at least 10.0% void space
# The void calculation uses a probe of radius 1.32A, grid spacing 0.4
#
###############################################################################

data_WIFSAI
_chemical_formula_moiety         '(C116 H76 Cu8 N64)n'
_symmetry_cell_setting           triclinic
_symmetry_space_group_name_H-M   'P 1'
_symmetry_Int_Tables_number      1
_space_group_name_Hall           'P 1'
loop_
_symmetry_equiv_pos_site_id
_symmetry_equiv_pos_as_xyz
1 x,y,z
_cell_length_a                   10.934(4)
_cell_length_b                   31.788(11)
_cell_length_c                   10.119(3)
_cell_angle_alpha                90
_cell_angle_beta                 98.757(6)
_cell_angle_gamma                90
_cell_volume                     3476.06
loop_
_atom_site_label
_atom_site_type_symbol
_atom_site_fract_x
_atom_site_fract_y
_atom_site_fract_z
Cu1 Cu 0.22768(5) 0.12379(2) 0.09549(7)
C1 C 0.500000 0.11185(18) 0.250000
C4 C 0.5935(4) 0.04384(14) 0.2003(5)
H2 H 0.656461 0.058334 0.167742
C6 C 0.500000 0.06572(19) 0.250000
N7 N 0.4014(3) 0.13532(11) 0.2075(4)
C10 C 0.5917(4) 0.00024(14) 0.1999(5)
N8 N 0.4408(3) 0.17538(11) 0.2254(5)
H8 H 0.840798 0.015320 0.167231
C22 C 0.4065(4) 0.04384(14) 0.2997(5)
H15 H 0.343539 0.058334 0.332258
N15 N 0.5986(3) 0.13532(11) 0.2925(4)
C24 C 0.4083(4) 0.00024(14) 0.3001(5)
N16 N 0.5592(3) 0.17538(11) 0.2746(5)
H17 H 0.159202 0.015320 0.332769
Cu3 Cu 0.77232(5) 0.12379(2) 0.40451(7)
N17 N 0.0816(3) 0.11930(11) 0.1976(4)
N1 N 0.4184(3) 0.38070(11) 0.8024(4)
C2 C 0.500000 0.35673(19) 0.750000
N3 N 0.4512(4) 0.42082(11) 0.7794(4)
N4 N 0.3096(4) 0.22132(11) 0.8425(4)
C5 C 0.500000 0.2226(2) 0.750000
H3 H 0.500001 0.193370 0.750000
C7 C 0.4024(4) 0.28756(14) 0.7902(5)
H4 H 0.335213 0.301842 0.815066
C8 C 0.500000 0.3104(2) 0.750000
N6 N 0.2208(4) 0.17209(12) 0.9513(4)
C11 C 0.4045(4) 0.24440(14) 0.7932(5)
C12 C 0.3249(5) 0.18461(15) 0.9135(5)
H6 H 0.399654 0.170264 0.932702
C13 C 0.1876(4) 0.23264(16) 0.8373(5)
H7 H 0.149101 0.256415 0.796688
C15 C 0.1352(5) 0.20226(15) 0.9031(5)
H9 H 0.052332 0.201772 0.914372
N9 N 0.5816(3) 0.38070(11) 0.6976(4)
N10 N 0.5488(4) 0.42082(11) 0.7206(4)
N11 N 0.6904(4) 0.22132(11) 0.6575(4)
C17 C 0.5976(4) 0.28756(14) 0.7098(5)
H11 H 0.664787 0.301842 0.684934
N12 N 0.7792(4) 0.17209(12) 0.5487(4)
C18 C 0.5955(4) 0.24440(14) 0.7068(5)
C19 C 0.6751(5) 0.18461(15) 0.5865(5)
H12 H 0.600346 0.170264 0.567298
C20 C 0.8124(4) 0.23264(16) 0.6627(5)
H13 H 0.850899 0.256415 0.703312
C21 C 0.8648(5) 0.20226(15) 0.5969(5)
H14 H 0.947668 0.201772 0.585628
Cu6 Cu 0.27232(5) 0.37621(2) 0.90451(7)
Cu7 Cu 0.72768(5) 0.37621(2) 0.59549(7)
N18 N 0.9184(3) 0.11930(11) 0.3024(4)
N19 N 0.2390(4) 0.06941(12) 0.9852(4)
N20 N 0.7610(4) 0.06941(12) 0.5148(4)
N2 N 0.6821(3) 0.97790(12) 0.1393(4)
C3 C 0.500000 0.9778(2) 0.250000
H1 H 0.500001 0.948579 0.250001
N5 N 0.7610(4) 0.93059(12) 0.0148(4)
C9 C 0.6632(4) 0.94171(14) 0.0679(5)
H5 H 0.589656 0.926521 0.057709
C14 C 0.8012(5) 0.99131(16) 0.1296(6)
C16 C 0.8478(5) 0.96174(16) 0.0531(6)
H10 H 0.926881 0.962419 0.029812
N13 N 0.3179(3) 0.97790(12) 0.3607(4)
N14 N 0.2390(4) 0.93059(12) 0.4852(4)
C23 C 0.3368(4) 0.94171(14) 0.4321(5)
H16 H 0.410344 0.926521 0.442291
C25 C 0.1988(5) 0.99131(16) 0.3704(6)
C26 C 0.1522(5) 0.96174(16) 0.4469(6)
H18 H 0.073119 0.962419 0.470188
Cu5 Cu 0.22768(5) 0.87621(2) 0.59549(7)
Cu4 Cu 0.77232(5) 0.87621(2) 0.90451(7)
C1_2 C 0.000000 0.61185(18) 0.250000
N2_2 N 0.1821(3) 0.47790(12) 0.1393(4)
C3_2 C 0.000000 0.4778(2) 0.250000
H1_2 H 0.000001 0.448579 0.250001
N5_2 N 0.2610(4) 0.43059(12) 0.0148(4)
C4_2 C 0.0935(4) 0.54384(14) 0.2003(5)
H2_2 H 0.156461 0.558334 0.167742
C6_2 C 0.000000 0.56572(19) 0.250000
C9_2 C 0.1632(4) 0.44171(14) 0.0679(5)
H5_2 H 0.089656 0.426521 0.057709
C10_2 C 0.0917(4) 0.50024(14) 0.1999(5)
C14_2 C 0.3012(5) 0.49131(16) 0.1296(6)
H8_2 H 0.340798 0.515320 0.167231
C16_2 C 0.3478(5) 0.46174(16) 0.0531(6)
H10_2 H 0.426881 0.462419 0.029812
N15_2 N 0.0986(3) 0.63532(11) 0.2925(4)
N16_2 N 0.0592(3) 0.67538(11) 0.2746(5)
Cu3_2 Cu 0.27232(5) 0.62379(2) 0.40451(7)
C2_2 C -0.000000 0.85673(19) 0.750000
C5_2 C 0.000000 0.7226(2) 0.750000
H3_2 H 0.000001 0.693370 0.750000
C8_2 C 0.000000 0.8104(2) 0.750000
N9_2 N 0.0816(3) 0.88070(11) 0.6976(4)
N10_2 N 0.0488(4) 0.92082(11) 0.7206(4)
N11_2 N 0.1904(4) 0.72132(11) 0.6575(4)
C17_2 C 0.0976(4) 0.78756(14) 0.7098(5)
H11_2 H 0.164787 0.801842 0.684934
N12_2 N 0.2792(4) 0.67209(12) 0.5487(4)
C18_2 C 0.0955(4) 0.74440(14) 0.7068(5)
C19_2 C 0.1751(5) 0.68461(15) 0.5865(5)
H12_2 H 0.100346 0.670264 0.567298
C20_2 C 0.3124(4) 0.73264(16) 0.6627(5)
H13_2 H 0.350899 0.756415 0.703312
C21_2 C 0.3648(5) 0.70226(15) 0.5969(5)
H14_2 H 0.447668 0.701772 0.585628
N18_2 N 0.4184(3) 0.61930(11) 0.3024(4)
N20_2 N 0.2610(4) 0.56941(12) 0.5148(4)
Cu1_2 Cu 0.72768(5) 0.62379(2) 0.09549(7)
C1_3 C 1.000000 0.61185(18) 0.250000
C3_3 C 1.000000 0.4778(2) 0.250000
H1_3 H 1.000001 0.448579 0.250001
C6_3 C 1.000000 0.56572(19) 0.250000
N7_2 N 0.9014(3) 0.63532(11) 0.2075(4)
N8_2 N 0.9408(3) 0.67538(11) 0.2254(5)
N13_2 N 0.8179(3) 0.47790(12) 0.3607(4)
N14_2 N 0.7390(4) 0.43059(12) 0.4852(4)
C22_2 C 0.9065(4) 0.54384(14) 0.2997(5)
H15_2 H 0.843539 0.558334 0.332258
C23_2 C 0.8368(4) 0.44171(14) 0.4321(5)
H16_2 H 0.910344 0.426521 0.442291
C24_2 C 0.9083(4) 0.50024(14) 0.3001(5)
C25_2 C 0.6988(5) 0.49131(16) 0.3704(6)
H17_2 H 0.659202 0.515320 0.332769
C26_2 C 0.6522(5) 0.46174(16) 0.4469(6)
H18_2 H 0.573119 0.462419 0.470188
N17_2 N 0.5816(3) 0.61930(11) 0.1976(4)
N1_2 N 0.9184(3) 0.88070(11) 0.8024(4)
C2_3 C 1.000000 0.85673(19) 0.750000
N3_2 N 0.9512(4) 0.92082(11) 0.7794(4)
N4_2 N 0.8096(4) 0.72132(11) 0.8425(4)
C5_3 C 1.000000 0.7226(2) 0.750000
H3_3 H 1.000001 0.693370 0.750000
C7_2 C 0.9024(4) 0.78756(14) 0.7902(5)
H4_2 H 0.835213 0.801842 0.815066
C8_3 C 1.000000 0.8104(2) 0.750000
N6_2 N 0.7208(4) 0.67209(12) 0.9513(4)
C11_2 C 0.9045(4) 0.74440(14) 0.7932(5)
C12_2 C 0.8249(5) 0.68461(15) 0.9135(5)
H6_2 H 0.899654 0.670264 0.932702
C13_2 C 0.6876(4) 0.73264(16) 0.8373(5)
H7_2 H 0.649101 0.756415 0.796688
C15_2 C 0.6352(5) 0.70226(15) 0.9031(5)
H9_2 H 0.552332 0.701772 0.914372
N19_2 N 0.7390(4) 0.56941(12) 0.9852(4)
N2_3 N 0.3179(3) 0.02210(12) 0.8607(4)
C3_4 C 0.500000 0.0222(2) 0.750000
H1_4 H 0.499999 0.051421 0.749999
C9_3 C 0.3368(4) 0.05829(14) 0.9321(5)
H5_3 H 0.410344 0.073479 0.942291
C14_3 C 0.1988(5) 0.00869(16) 0.8704(6)
C16_3 C 0.1522(5) 0.03826(16) 0.9469(6)
H10_3 H 0.073119 0.037581 0.970188
N13_3 N 0.6821(3) 0.02210(12) 0.6393(4)
C23_3 C 0.6632(4) 0.05829(14) 0.5679(5)
H16_3 H 0.589656 0.073479 0.557709
C25_3 C 0.8012(5) 0.00869(16) 0.6296(6)
C26_3 C 0.8478(5) 0.03826(16) 0.5531(6)
H18_3 H 0.926881 0.037581 0.529812
C2_4 C 0.500000 0.64327(19) 0.250000
N3_3 N 0.5488(4) 0.57918(11) 0.2206(4)
N4_3 N 0.6904(4) 0.77868(11) 0.1575(4)
C5_4 C 0.500000 0.7774(2) 0.250000
H3_4 H 0.499999 0.806630 0.250000
C7_3 C 0.5976(4) 0.71244(14) 0.2098(5)
H4_3 H 0.664787 0.698158 0.184934
C8_4 C 0.500000 0.6896(2) 0.250000
N6_3 N 0.7792(4) 0.82791(12) 0.0487(4)
C11_3 C 0.5955(4) 0.75560(14) 0.2068(5)
C12_3 C 0.6751(5) 0.81539(15) 0.0865(5)
H6_3 H 0.600346 0.829736 0.067298
C13_3 C 0.8124(4) 0.76736(16) 0.1627(5)
H7_3 H 0.850899 0.743585 0.203312
C15_3 C 0.8648(5) 0.79774(15) 0.0969(5)
H9_3 H 0.947668 0.798228 0.085628
N10_3 N 0.4512(4) 0.57918(11) 0.2794(4)
N11_3 N 0.3096(4) 0.77868(11) 0.3425(4)
C17_3 C 0.4024(4) 0.71244(14) 0.2902(5)
H11_3 H 0.335213 0.698158 0.315066
N12_3 N 0.2208(4) 0.82791(12) 0.4513(4)
C18_3 C 0.4045(4) 0.75560(14) 0.2932(5)
C19_3 C 0.3249(5) 0.81539(15) 0.4135(5)
H12_3 H 0.399654 0.829736 0.432702
C20_3 C 0.1876(4) 0.76736(16) 0.3373(5)
H13_3 H 0.149101 0.743585 0.296688
C21_3 C 0.1352(5) 0.79774(15) 0.4031(5)
H14_3 H 0.052332 0.798228 0.414372
N21 N 0.4014(3) 0.86468(11) 0.7075(4)
C1_4 C 0.500000 0.88815(18) 0.750000
C4_3 C 0.4065(4) 0.95616(14) 0.7997(5)
H2_3 H 0.343539 0.941666 0.832258
C6_4 C 0.500000 0.93428(19) 0.750000
N7_3 N 0.5986(3) 0.86468(11) 0.7925(4)
C10_3 C 0.4083(4) 0.99976(14) 0.8001(5)
N8_3 N 0.5592(3) 0.82462(11) 0.7746(5)
H8_3 H 0.159202 0.984680 0.832769
C22_3 C 0.5935(4) 0.95616(14) 0.7003(5)
H15_3 H 0.656461 0.941666 0.667742
C24_3 C 0.5917(4) 0.99976(14) 0.6999(5)
N16_3 N 0.4408(3) 0.82462(11) 0.7254(5)
H17_3 H 0.840798 0.984680 0.667231
C2_5 C 0.000000 0.14327(19) 0.250000
N3_4 N 0.0488(4) 0.07918(11) 0.2206(4)
N4_4 N 0.1904(4) 0.27868(11) 0.1575(4)
C5_5 C 0.000000 0.2774(2) 0.250000
H3_5 H -0.000001 0.306630 0.250000
C7_4 C 0.0976(4) 0.21244(14) 0.2098(5)
H4_4 H 0.164787 0.198158 0.184934
C8_5 C 0.000000 0.1896(2) 0.250000
N6_4 N 0.2792(4) 0.32791(12) 0.0487(4)
C11_4 C 0.0955(4) 0.25560(14) 0.2068(5)
C12_4 C 0.1751(5) 0.31539(15) 0.0865(5)
H6_4 H 0.100346 0.329736 0.067298
C13_4 C 0.3124(4) 0.26736(16) 0.1627(5)
H7_4 H 0.350899 0.243585 0.203312
C15_4 C 0.3648(5) 0.29774(15) 0.0969(5)
H9_4 H 0.447668 0.298228 0.085628
C1_5 C 0.000000 0.38815(18) 0.750000
C3_5 C 0.000000 0.5222(2) 0.750000
H1_5 H -0.000001 0.551421 0.749999
C6_5 C 0.000000 0.43428(19) 0.750000
N7_4 N 0.0986(3) 0.36468(11) 0.7925(4)
N8_4 N 0.0592(3) 0.32462(11) 0.7746(5)
N13_4 N 0.1821(3) 0.52210(12) 0.6393(4)
C22_4 C 0.0935(4) 0.45616(14) 0.7003(5)
H15_4 H 0.156461 0.441666 0.667742
C23_4 C 0.1632(4) 0.55829(14) 0.5679(5)
H16_4 H 0.089656 0.573479 0.557709
C24_4 C 0.0917(4) 0.49976(14) 0.6999(5)
C25_4 C 0.3012(5) 0.50869(16) 0.6296(6)
H17_4 H 0.340798 0.484680 0.667231
C26_4 C 0.3478(5) 0.53826(16) 0.5531(6)
H18_4 H 0.426881 0.537581 0.529812
C2_6 C 1.000000 0.14327(19) 0.250000
C5_6 C 1.000000 0.2774(2) 0.250000
H3_6 H 0.999999 0.306630 0.250000
C8_6 C 1.000000 0.1896(2) 0.250000
N10_4 N 0.9512(4) 0.07918(11) 0.2794(4)
N11_4 N 0.8096(4) 0.27868(11) 0.3425(4)
C17_4 C 0.9024(4) 0.21244(14) 0.2902(5)
H11_4 H 0.835213 0.198158 0.315066
N12_4 N 0.7208(4) 0.32791(12) 0.4513(4)
C18_4 C 0.9045(4) 0.25560(14) 0.2932(5)
C19_4 C 0.8249(5) 0.31539(15) 0.4135(5)
H12_4 H 0.899654 0.329736 0.432702
C20_4 C 0.6876(4) 0.26736(16) 0.3373(5)
H13_4 H 0.649101 0.243585 0.296688
C21_4 C 0.6352(5) 0.29774(15) 0.4031(5)
H14_4 H 0.552332 0.298228 0.414372
N21_2 N 0.9014(3) 0.36468(11) 0.7075(4)
C1_6 C 1.000000 0.38815(18) 0.750000
N2_4 N 0.8179(3) 0.52210(12) 0.8607(4)
C3_6 C 1.000000 0.5222(2) 0.750000
H1_6 H 0.999999 0.551421 0.749999
C4_4 C 0.9065(4) 0.45616(14) 0.7997(5)
H2_4 H 0.843539 0.441666 0.832258
C6_6 C 1.000000 0.43428(19) 0.750000
C9_4 C 0.8368(4) 0.55829(14) 0.9321(5)
H5_4 H 0.910344 0.573479 0.942291
C10_4 C 0.9083(4) 0.49976(14) 0.8001(5)
C14_4 C 0.6988(5) 0.50869(16) 0.8704(6)
H8_4 H 0.659202 0.484680 0.832769
C16_4 C 0.6522(5) 0.53826(16) 0.9469(6)
H10_4 H 0.573119 0.537581 0.970188
N16_4 N 0.9408(3) 0.32462(11) 0.7254(5)
loop_
_geom_bond_atom_site_label_1
_geom_bond_atom_site_label_2
_geom_bond_site_symmetry_1
_geom_bond_site_symmetry_2
C1 C6 1_555 1_555
C4 H2 1_555 1_555
C6 C4 1_555 1_555
N7 Cu1 1_555 1_555
N8 N7 1_555 1_555
C22 C6 1_555 1_555
H15 C22 1_555 1_555
N15 C1 1_555 1_555
N16 N8 1_555 1_555
Cu3 N15 1_555 1_555
N17 Cu1 1_555 1_555
C1 N7 1_555 1_555
C4 C10 1_555 1_555
C22 C24 1_555 1_555
N15 N16 1_555 1_555
N1 C2 1_555 1_555
C2 C8 1_555 1_555
N3 N1 1_555 1_555
N4 C11 1_555 1_555
C5 H3 1_555 1_555
C7 H4 1_555 1_555
C8 C7 1_555 1_555
N6 C12 1_555 1_555
C11 C5 1_555 1_555
C12 N4 1_555 1_555
H6 C12 1_555 1_555
C13 N4 1_555 1_555
H7 C13 1_555 1_555
C15 N6 1_555 1_555
H9 C15 1_555 1_555
N9 C2 1_555 1_555
N10 N3 1_555 1_555
N11 C18 1_555 1_555
C17 C8 1_555 1_555
H11 C17 1_555 1_555
N12 C19 1_555 1_555
C18 C5 1_555 1_555
C19 N11 1_555 1_555
H12 C19 1_555 1_555
C20 N11 1_555 1_555
H13 C20 1_555 1_555
C21 N12 1_555 1_555
H14 C21 1_555 1_555
Cu3 N12 1_555 1_555
Cu6 N1 1_555 1_555
Cu7 N9 1_555 1_555
N18 Cu3 1_555 1_555
N20 Cu3 1_555 1_555
C7 C11 1_555 1_555
C13 C15 1_555 1_555
N9 N10 1_555 1_555
C17 C18 1_555 1_555
C20 C21 1_555 1_555
N2 C9 1_555 1_555
C3 H1 1_555 1_555
N5 C9 1_555 1_555
C9 H5 1_555 1_555
C14 N2 1_555 1_555
C16 N5 1_555 1_555
H10 C16 1_555 1_555
N13 C23 1_555 1_555
N14 C23 1_555 1_555
C23 H16 1_555 1_555
C25 N13 1_555 1_555
C26 N14 1_555 1_555
H18 C26 1_555 1_555
Cu5 N14 1_555 1_555
C14 C16 1_555 1_555
C25 C26 1_555 1_555
C1_2 C6_2 1_555 1_555
N2_2 C9_2 1_555 1_555
C3_2 H1_2 1_555 1_555
N5_2 C9_2 1_555 1_555
C4_2 H2_2 1_555 1_555
C6_2 C4_2 1_555 1_555
C9_2 H5_2 1_555 1_555
C10_2 N2_2 1_555 1_555
C14_2 N2_2 1_555 1_555
H8_2 C14_2 1_555 1_555
C16_2 N5_2 1_555 1_555
H10_2 C16_2 1_555 1_555
N15_2 C1_2 1_555 1_555
Cu3_2 N15_2 1_555 1_555
C3_2 C10_2 1_555 1_555
C4_2 C10_2 1_555 1_555
C14_2 C16_2 1_555 1_555
N15_2 N16_2 1_555 1_555
C2_2 C8_2 1_555 1_555
C5_2 H3_2 1_555 1_555
N9_2 C2_2 1_555 1_555
N11_2 C18_2 1_555 1_555
C17_2 C8_2 1_555 1_555
H11_2 C17_2 1_555 1_555
N12_2 C19_2 1_555 1_555
C18_2 C5_2 1_555 1_555
C19_2 N11_2 1_555 1_555
H12_2 C19_2 1_555 1_555
C20_2 N11_2 1_555 1_555
H13_2 C20_2 1_555 1_555
C21_2 N12_2 1_555 1_555
H14_2 C21_2 1_555 1_555
Cu3_2 N12_2 1_555 1_555
Cu5 N9_2 1_555 1_555
N18_2 Cu3_2 1_555 1_555
N20_2 Cu3_2 1_555 1_555
N9_2 N10_2 1_555 1_555
C17_2 C18_2 1_555 1_555
C20_2 C21_2 1_555 1_555
C1_3 C6_3 1_555 1_555
C3_3 H1_3 1_555 1_555
N7_2 Cu1_2 1_555 1_555
N8_2 N7_2 1_555 1_555
N13_2 C23_2 1_555 1_555
N14_2 C23_2 1_555 1_555
C22_2 C6_3 1_555 1_555
H15_2 C22_2 1_555 1_555
C23_2 H16_2 1_555 1_555
C24_2 C3_3 1_555 1_555
C25_2 N13_2 1_555 1_555
H17_2 C25_2 1_555 1_555
C26_2 N14_2 1_555 1_555
H18_2 C26_2 1_555 1_555
Cu7 N14_2 1_555 1_555
N17_2 Cu1_2 1_555 1_555
C1_3 N7_2 1_555 1_555
N13_2 C24_2 1_555 1_555
C22_2 C24_2 1_555 1_555
C25_2 C26_2 1_555 1_555
N1_2 C2_3 1_555 1_555
C2_3 C8_3 1_555 1_555
N3_2 N1_2 1_555 1_555
N4_2 C11_2 1_555 1_555
C5_3 H3_3 1_555 1_555
C7_2 H4_2 1_555 1_555
C8_3 C7_2 1_555 1_555
N6_2 C12_2 1_555 1_555
C11_2 C5_3 1_555 1_555
C12_2 N4_2 1_555 1_555
H6_2 C12_2 1_555 1_555
C13_2 N4_2 1_555 1_555
H7_2 C13_2 1_555 1_555
C15_2 N6_2 1_555 1_555
H9_2 C15_2 1_555 1_555
Cu4 N1_2 1_555 1_555
C7_2 C11_2 1_555 1_555
C13_2 C15_2 1_555 1_555
N2_3 C9_3 1_555 1_555
C3_4 H1_4 1_555 1_555
N19 C9_3 1_555 1_555
C9_3 H5_3 1_555 1_555
C14_3 N2_3 1_555 1_555
C16_3 N19 1_555 1_555
H10_3 C16_3 1_555 1_555
N13_3 C23_3 1_555 1_555
N20 C23_3 1_555 1_555
C23_3 H16_3 1_555 1_555
C25_3 N13_3 1_555 1_555
C26_3 N20 1_555 1_555
H18_3 C26_3 1_555 1_555
C14_3 C16_3 1_555 1_555
C25_3 C26_3 1_555 1_555
N17_2 C2_4 1_555 1_555
C2_4 C8_4 1_555 1_555
N3_3 N17_2 1_555 1_555
N4_3 C11_3 1_555 1_555
C5_4 H3_4 1_555 1_555
C7_3 H4_3 1_555 1_555
C8_4 C7_3 1_555 1_555
N6_3 C12_3 1_555 1_555
C11_3 C5_4 1_555 1_555
C12_3 N4_3 1_555 1_555
H6_3 C12_3 1_555 1_555
C13_3 N4_3 1_555 1_555
H7_3 C13_3 1_555 1_555
C15_3 N6_3 1_555 1_555
H9_3 C15_3 1_555 1_555
N18_2 C2_4 1_555 1_555
N10_3 N3_3 1_555 1_555
N11_3 C18_3 1_555 1_555
C17_3 C8_4 1_555 1_555
H11_3 C17_3 1_555 1_555
N12_3 C19_3 1_555 1_555
C18_3 C5_4 1_555 1_555
C19_3 N11_3 1_555 1_555
H12_3 C19_3 1_555 1_555
C20_3 N11_3 1_555 1_555
H13_3 C20_3 1_555 1_555
C21_3 N12_3 1_555 1_555
H14_3 C21_3 1_555 1_555
Cu5 N12_3 1_555 1_555
N21 Cu5 1_555 1_555
C7_3 C11_3 1_555 1_555
C13_3 C15_3 1_555 1_555
N18_2 N10_3 1_555 1_555
C17_3 C18_3 1_555 1_555
C20_3 C21_3 1_555 1_555
C1_4 C6_4 1_555 1_555
C4_3 H2_3 1_555 1_555
C6_4 C4_3 1_555 1_555
N7_3 Cu4 1_555 1_555
N8_3 N7_3 1_555 1_555
C22_3 C6_4 1_555 1_555
H15_3 C22_3 1_555 1_555
N21 C1_4 1_555 1_555
N16_3 N8_3 1_555 1_555
C1_4 N7_3 1_555 1_555
C4_3 C10_3 1_555 1_555
C22_3 C24_3 1_555 1_555
N21 N16_3 1_555 1_555
N17 C2_5 1_555 1_555
C2_5 C8_5 1_555 1_555
N3_4 N17 1_555 1_555
N4_4 C11_4 1_555 1_555
C5_5 H3_5 1_555 1_555
C7_4 H4_4 1_555 1_555
C8_5 C7_4 1_555 1_555
N6_4 C12_4 1_555 1_555
C11_4 C5_5 1_555 1_555
C12_4 N4_4 1_555 1_555
H6_4 C12_4 1_555 1_555
C13_4 N4_4 1_555 1_555
H7_4 C13_4 1_555 1_555
C15_4 N6_4 1_555 1_555
H9_4 C15_4 1_555 1_555
C7_4 C11_4 1_555 1_555
C13_4 C15_4 1_555 1_555
C1_5 C6_5 1_555 1_555
C3_5 H1_5 1_555 1_555
N7_4 Cu6 1_555 1_555
N8_4 N7_4 1_555 1_555
N13_4 C23_4 1_555 1_555
N20_2 C23_4 1_555 1_555
C22_4 C6_5 1_555 1_555
H15_4 C22_4 1_555 1_555
C23_4 H16_4 1_555 1_555
C24_4 C3_5 1_555 1_555
C25_4 N13_4 1_555 1_555
H17_4 C25_4 1_555 1_555
C26_4 N20_2 1_555 1_555
H18_4 C26_4 1_555 1_555
C1_5 N7_4 1_555 1_555
N13_4 C24_4 1_555 1_555
C22_4 C24_4 1_555 1_555
C25_4 C26_4 1_555 1_555
C2_6 C8_6 1_555 1_555
C5_6 H3_6 1_555 1_555
N18 C2_6 1_555 1_555
N11_4 C18_4 1_555 1_555
C17_4 C8_6 1_555 1_555
H11_4 C17_4 1_555 1_555
N12_4 C19_4 1_555 1_555
C18_4 C5_6 1_555 1_555
C19_4 N11_4 1_555 1_555
H12_4 C19_4 1_555 1_555
C20_4 N11_4 1_555 1_555
H13_4 C20_4 1_555 1_555
C21_4 N12_4 1_555 1_555
H14_4 C21_4 1_555 1_555
Cu7 N12_4 1_555 1_555
N21_2 Cu7 1_555 1_555
N18 N10_4 1_555 1_555
C17_4 C18_4 1_555 1_555
C20_4 C21_4 1_555 1_555
C1_6 C6_6 1_555 1_555
N2_4 C9_4 1_555 1_555
C3_6 H1_6 1_555 1_555
N19_2 C9_4 1_555 1_555
C4_4 H2_4 1_555 1_555
C6_6 C4_4 1_555 1_555
C9_4 H5_4 1_555 1_555
C10_4 N2_4 1_555 1_555
C14_4 N2_4 1_555 1_555
H8_4 C14_4 1_555 1_555
C16_4 N19_2 1_555 1_555
H10_4 C16_4 1_555 1_555
N21_2 C1_6 1_555 1_555
C3_6 C10_4 1_555 1_555
C4_4 C10_4 1_555 1_555
C14_4 C16_4 1_555 1_555
N21_2 N16_4 1_555 1_555

#END
