
###############################################################################
#
# This file contains modified crystal structure data generated from the
# MOF subset of the Cambridge Structural Database (CSD) v543 
# hosted by the Cambridge Crystallographic Data Centre (CCDC).
#
# This work is licensed under the Creative Commons
# Attribution-NonCommercial-ShareAlike 4.0 International License.
# To view a copy of this license, visit
# http://creativecommons.org/licenses/by-nc-sa/4.0/
# or send a letter to
# Creative Commons, PO Box 1866, Mountain View, CA 94042, USA.
#
# CIF created using the CSD Python API on 29 September 2022
# The structure has been converted into the P1 space group
# The structure has a 3D framework
# The original CSD entry WIGGUR is in the monoclinic crystal system
# The original CSD entry WIGGUR is in a Sohncke space group
# The framework has been calculated to contain at least 10.0% void space
# The void calculation uses a probe of radius 1.32A, grid spacing 0.4
#
###############################################################################

data_WIGGUR
_chemical_formula_moiety         '(C162 H160 Co8 N34 O32)n'
_symmetry_cell_setting           triclinic
_symmetry_space_group_name_H-M   'P 1'
_symmetry_Int_Tables_number      1
_space_group_name_Hall           'P 1'
loop_
_symmetry_equiv_pos_site_id
_symmetry_equiv_pos_as_xyz
1 x,y,z
_cell_length_a                   30.1080(10)
_cell_length_b                   11.7280(4)
_cell_length_c                   14.1648(4)
_cell_angle_alpha                90
_cell_angle_beta                 99.366(2)
_cell_angle_gamma                90
_cell_volume                     4935.01
loop_
_atom_site_label
_atom_site_type_symbol
_atom_site_fract_x
_atom_site_fract_y
_atom_site_fract_z
N5 N 0.0380(3) 0.0286(10) 0.0389(6)
C12 C -0.0000 0.0823(17) 0.0000
C18 C 0.0310(7) 0.2698(19) 0.0601(18)
H11 H 0.0528 0.2332 0.1038
C19 C 0.0301(7) 0.3885(19) 0.056(2)
H12 H 0.0523 0.4285 0.0966
C20 C 0.0000 0.2056(19) 0.0000
N8 N 0.0000 0.446(3) 0.0000
C12_2 C 0.0000 0.0823(17) 1.0000
C20_2 C 0.0000 0.2056(19) 1.0000
N8_2 N 0.0000 0.446(3) 1.0000
Co1 Co 0.29054(5) 0.53806(13) 0.27499(10)
Co2 Co 0.20986(5) 0.63600(12) 0.21387(9)
C1 C 0.4635(4) 0.2649(12) 0.4640(7)
N1 N 0.4621(3) 0.1520(11) 0.4627(7)
C2 C 0.5000 0.1000(17) 0.5000
N2 N 0.5000 0.3276(15) 0.5000
C3 C 0.4224(4) 0.3289(12) 0.4233(7)
C4 C 0.4214(4) 0.4478(12) 0.4270(8)
H1 H 0.4460 0.4891 0.4574
C5 C 0.3827(4) 0.5020(12) 0.3841(8)
H2 H 0.3823 0.5813 0.3847
N3 N 0.3456(3) 0.4474(10) 0.3414(6)
C6 C 0.3472(5) 0.3336(13) 0.3411(8)
H3 H 0.3218 0.2944 0.3122
C7 C 0.3845(4) 0.2702(13) 0.3811(8)
H4 H 0.3840 0.1909 0.3794
C11 C 0.0363(4) 0.9148(11) 0.0364(7)
N6 N 0.0000 0.8542(14) 0.0000
C13 C 0.0767(4) 0.8497(11) 0.0744(7)
C14 C 0.0777(4) 0.7340(13) 0.0751(8)
H7 H 0.0519 0.6939 0.0493
C15 C 0.1161(4) 0.6739(12) 0.1134(8)
H8 H 0.1155 0.5947 0.1128
N7 N 0.1539(3) 0.7278(10) 0.1509(6)
C16 C 0.1545(4) 0.8414(12) 0.1511(8)
H9 H 0.1808 0.8796 0.1771
C17 C 0.1174(4) 0.9022(14) 0.1139(9)
H10 H 0.1189 0.9814 0.1146
C21 C 0.2006(4) 0.3880(11) 0.6276(7)
O1 O 0.2567(3) 0.5208(10) 0.3869(6)
C22 C 0.1544(5) 0.3815(18) 0.5640(12)
H13 H 0.1308 0.3998 0.6008
H14 H 0.1491 0.3053 0.5380
O2 O 0.1882(3) 0.5958(8) 0.3375(5)
C23 C 0.1545(4) 0.4695(19) 0.4816(9)
H15 H 0.1456 0.4335 0.4198
H16 H 0.1340 0.5320 0.4877
O3 O 0.2541(3) 0.2709(9) 0.7265(5)
C24 C 0.2028(3) 0.5115(12) 0.4933(7)
H17 H 0.2050 0.5807 0.5325
O4 O 0.1881(3) 0.1900(8) 0.6673(6)
C25 C 0.2178(4) 0.5412(13) 0.3995(7)
C26 C 0.2324(4) 0.4184(12) 0.5508(8)
C27 C 0.2393(5) 0.3146(13) 0.4938(8)
H18 H 0.2107 0.2837 0.4660
H19 H 0.2559 0.3348 0.4438
H20 H 0.2559 0.2588 0.5348
C28 C 0.2793(5) 0.4657(16) 0.5942(10)
H21 H 0.2758 0.5326 0.6313
H22 H 0.2957 0.4089 0.6346
H23 H 0.2957 0.4849 0.5436
C29 C 0.2147(4) 0.2750(12) 0.6753(6)
C30 C 0.2030(7) 0.4792(15) 0.7038(10)
H24 H 0.1941 0.5512 0.6743
H25 H 0.1832 0.4598 0.7479
H26 H 0.2333 0.4846 0.7375
C31 C 0.1950(4) 0.2856(13) 0.1366(7)
C32 C 0.2239(6) 0.1829(12) 0.1738(8)
H27 H 0.2507 0.2087 0.2160
H28 H 0.2071 0.1336 0.2102
C33 C 0.2368(5) 0.1201(14) 0.0953(7)
H29 H 0.2359 0.0387 0.1072
H30 H 0.2670 0.1406 0.0863
O7 O 0.1880(3) 0.4808(8) 0.1632(5)
C34 C 0.2032(4) 0.1519(12) 0.0084(7)
H31 H 0.1757 0.1081 0.0115
O8 O 0.2545(3) 0.4034(9) 0.2142(6)
C36 C 0.1920(5) 0.2783(12) 0.0238(7)
H35 H 0.2170 0.4335 0.0006
H36 H 0.2545 0.3403 0.0243
C39 C 0.2142(4) 0.3975(12) 0.1753(7)
C40 C 0.1484(6) 0.2713(16) 0.1700(10)
H38 H 0.1351 0.2003 0.1465
H39 H 0.1525 0.2718 0.2387
H40 H 0.1290 0.3331 0.1454
C41 C 0.5365(4) 0.2649(12) 0.5360(7)
N9 N 0.5379(3) 0.1520(11) 0.5373(7)
C42 C 0.5776(4) 0.3289(12) 0.5767(7)
C43 C 0.5786(4) 0.4478(12) 0.5730(8)
H41 H 0.5540 0.4891 0.5426
C44 C 0.6173(4) 0.5020(12) 0.6159(8)
H42 H 0.6177 0.5813 0.6153
N10 N 0.6544(3) 0.4474(10) 0.6586(6)
C45 C 0.6528(5) 0.3336(13) 0.6589(8)
H43 H 0.6782 0.2944 0.6878
C46 C 0.6155(4) 0.2702(13) 0.6189(8)
H44 H 0.6160 0.1909 0.6206
Co5 Co 0.70946(5) 0.53806(13) 0.72501(10)
Co9 Co 0.20946(5) 0.03806(13) 0.72501(10)
Co13 Co 0.29014(5) 0.13600(12) 0.78613(9)
O18 O 0.2459(3) 0.7709(9) 0.2735(5)
O20 O 0.3119(3) 0.6900(8) 0.3327(6)
O22 O 0.2420(2) 0.6461(10) 0.0960(5)
O24 O 0.3105(3) 0.5815(8) 0.1510(5)
N6_2 N 0.0000 0.8542(14) 1.0000
O5 O 0.2580(2) 0.1461(10) 0.9040(5)
O6 O 0.1895(3) 0.0815(8) 0.8490(5)
C35 C 0.2177(4) 0.1239(12) 0.9121(6)
C37 C 0.1436(6) 0.301(2) 0.9714(10)
H32 H 0.1231 0.2500 0.9949
H33 H 0.1353 0.3786 0.9829
H34 H 0.1424 0.2898 0.9039
C38 C 0.2250(8) 0.3558(13) 0.9898(9)
H37 H 0.2247 0.3438 0.9227
N6_3 N 1.0000 0.8542(14) 0.0000
O13 O 0.7420(2) 0.1461(10) 0.0960(5)
O14 O 0.8105(3) 0.0815(8) 0.1510(5)
C71 C 0.7823(4) 0.1239(12) 0.0879(6)
C73 C 0.8564(6) 0.301(2) 0.0286(10)
H72 H 0.8769 0.2500 0.0051
H73 H 0.8647 0.3786 0.0171
H74 H 0.8576 0.2898 0.0961
C74 C 0.7750(8) 0.3558(13) 0.0102(9)
H77 H 0.7753 0.3438 0.0773
Co7 Co 0.79054(5) 0.03806(13) 0.27499(10)
Co11 Co 0.70986(5) 0.13600(12) 0.21387(9)
N6_4 N 1.0000 0.8542(14) 1.0000
C49 C 0.9637(4) 0.9148(11) 0.9636(7)
C50 C 0.9233(4) 0.8497(11) 0.9256(7)
C51 C 0.9223(4) 0.7340(13) 0.9249(8)
H47 H 0.9481 0.6939 0.9507
C52 C 0.8839(4) 0.6739(12) 0.8866(8)
H48 H 0.8845 0.5947 0.8872
N12 N 0.8461(3) 0.7278(10) 0.8491(6)
C53 C 0.8455(4) 0.8414(12) 0.8489(8)
H49 H 0.8192 0.8796 0.8229
C54 C 0.8826(4) 0.9022(14) 0.8861(9)
H50 H 0.8811 0.9814 0.8854
Co4 Co 0.79014(5) 0.63600(12) 0.78613(9)
C57 C 0.7994(4) 0.3880(11) 0.3724(7)
O9 O 0.7433(3) 0.5208(10) 0.6131(6)
C58 C 0.8456(5) 0.3815(18) 0.4360(12)
H53 H 0.8692 0.3998 0.3992
H54 H 0.8509 0.3053 0.4620
O10 O 0.8118(3) 0.5958(8) 0.6625(5)
C59 C 0.8455(4) 0.4695(19) 0.5184(9)
H55 H 0.8544 0.4335 0.5802
H56 H 0.8660 0.5320 0.5123
O11 O 0.7459(3) 0.2709(9) 0.2735(5)
C60 C 0.7972(3) 0.5115(12) 0.5067(7)
H57 H 0.7950 0.5807 0.4675
O12 O 0.8119(3) 0.1900(8) 0.3327(6)
C61 C 0.7822(4) 0.5412(13) 0.6005(7)
C62 C 0.7676(4) 0.4184(12) 0.4492(8)
C63 C 0.7607(5) 0.3146(13) 0.5062(8)
H58 H 0.7893 0.2837 0.5340
H59 H 0.7441 0.3348 0.5562
H60 H 0.7441 0.2588 0.4652
C64 C 0.7207(5) 0.4657(16) 0.4058(10)
H61 H 0.7242 0.5326 0.3687
H62 H 0.7043 0.4089 0.3654
H63 H 0.7043 0.4849 0.4564
C65 C 0.7853(4) 0.2750(12) 0.3247(6)
C66 C 0.7970(7) 0.4792(15) 0.2962(10)
H64 H 0.8059 0.5512 0.3257
H65 H 0.8168 0.4598 0.2521
H66 H 0.7667 0.4846 0.2625
C67 C 0.8050(4) 0.2856(13) 0.8634(7)
C68 C 0.7761(6) 0.1829(12) 0.8262(8)
H67 H 0.7493 0.2087 0.7840
H68 H 0.7929 0.1336 0.7898
C69 C 0.7632(5) 0.1201(14) 0.9047(7)
H69 H 0.7641 0.0387 0.8928
H70 H 0.7330 0.1406 0.9137
O15 O 0.8120(3) 0.4808(8) 0.8368(5)
C70 C 0.7968(4) 0.1519(12) 0.9916(7)
H71 H 0.8243 0.1081 0.9885
O16 O 0.7455(3) 0.4034(9) 0.7858(6)
C72 C 0.8080(5) 0.2783(12) 0.9762(7)
H75 H 0.7830 0.4335 0.9994
H76 H 0.7455 0.3403 0.9757
C75 C 0.7858(4) 0.3975(12) 0.8247(7)
C76 C 0.8516(6) 0.2713(16) 0.8300(10)
H78 H 0.8649 0.2003 0.8535
H79 H 0.8475 0.2718 0.7613
H80 H 0.8710 0.3331 0.8546
O17 O 0.7541(3) 0.7709(9) 0.7265(5)
O19 O 0.6881(3) 0.6900(8) 0.6673(6)
O21 O 0.7580(2) 0.6461(10) 0.9040(5)
O23 O 0.6895(3) 0.5815(8) 0.8490(5)
C44_2 C 0.1173(4) 0.0020(12) 0.6159(8)
H42_2 H 0.1177 0.0813 0.6153
C2_2 C 0.0000 0.6000(17) 0.5000
N2_2 N 0.0000 0.8276(15) 0.5000
C8 C 0.0000 0.471(2) 0.5000
N4 N 0.0000 0.234(3) 0.5000
C41_2 C 0.0365(4) 0.7649(12) 0.5360(7)
N9_2 N 0.0379(3) 0.6520(11) 0.5373(7)
C42_2 C 0.0776(4) 0.8289(12) 0.5767(7)
C43_2 C 0.0786(4) 0.9478(12) 0.5730(8)
H41_2 H 0.0540 0.9891 0.5426
N10_2 N 0.1544(3) 0.9474(10) 0.6586(6)
C45_2 C 0.1528(5) 0.8336(13) 0.6589(8)
H43_2 H 0.1782 0.7944 0.6878
C46_2 C 0.1155(4) 0.7702(13) 0.6189(8)
H44_2 H 0.1160 0.6909 0.6206
C47 C 0.0351(6) 0.4139(17) 0.5478(18)
H45 H 0.0595 0.4518 0.5829
C48 C 0.0335(8) 0.297(2) 0.543(2)
H46 H 0.0589 0.2586 0.5732
C5_2 C 0.8827(4) 0.0020(12) 0.3841(8)
H2_2 H 0.8823 0.0813 0.3847
C11_2 C 0.5363(4) 0.4148(11) 0.0364(7)
N5_2 N 0.5380(3) 0.5286(10) 0.0389(6)
C12_3 C 0.5000 0.5823(17) 0.0000
N6_5 N 0.5000 0.3542(14) 0.0000
C13_2 C 0.5767(4) 0.3497(11) 0.0744(7)
C14_2 C 0.5777(4) 0.2340(13) 0.0751(8)
H7_2 H 0.5519 0.1939 0.0493
C15_2 C 0.6161(4) 0.1739(12) 0.1134(8)
H8_2 H 0.6155 0.0947 0.1128
N7_2 N 0.6539(3) 0.2278(10) 0.1509(6)
C16_2 C 0.6545(4) 0.3414(12) 0.1511(8)
H9_2 H 0.6808 0.3796 0.1771
C17_2 C 0.6174(4) 0.4022(14) 0.1139(9)
H10_2 H 0.6189 0.4814 0.1146
C18_2 C 0.5310(7) 0.7698(19) 0.0601(18)
H11_2 H 0.5528 0.7332 0.1038
C19_2 C 0.5301(7) 0.8885(19) 0.056(2)
H12_2 H 0.5523 0.9285 0.0966
C20_3 C 0.5000 0.7056(19) 0.0000
N8_3 N 0.5000 0.946(3) 0.0000
O1_2 O 0.7567(3) 0.0208(10) 0.3869(6)
O2_2 O 0.6882(3) 0.0958(8) 0.3375(5)
H16_2 H 0.6340 0.0320 0.4877
C24_2 C 0.7028(3) 0.0115(12) 0.4933(7)
H17_2 H 0.7050 0.0807 0.5325
C25_2 C 0.7178(4) 0.0412(13) 0.3995(7)
H21_2 H 0.7758 0.0326 0.6313
H24_2 H 0.6941 0.0512 0.6743
C12_4 C 0.5000 0.5823(17) 1.0000
N6_6 N 0.5000 0.3542(14) 1.0000
C20_4 C 0.5000 0.7056(19) 1.0000
N8_4 N 0.5000 0.946(3) 1.0000
C49_2 C 0.4637(4) 0.4148(11) 0.9636(7)
N11 N 0.4620(3) 0.5286(10) 0.9611(6)
C50_2 C 0.4233(4) 0.3497(11) 0.9256(7)
C51_2 C 0.4223(4) 0.2340(13) 0.9249(8)
H47_2 H 0.4481 0.1939 0.9507
C52_2 C 0.3839(4) 0.1739(12) 0.8866(8)
H48_2 H 0.3845 0.0947 0.8872
N12_2 N 0.3461(3) 0.2278(10) 0.8491(6)
C53_2 C 0.3455(4) 0.3414(12) 0.8489(8)
H49_2 H 0.3192 0.3796 0.8229
C54_2 C 0.3826(4) 0.4022(14) 0.8861(9)
H50_2 H 0.3811 0.4814 0.8854
C55 C 0.4690(7) 0.7698(19) 0.9399(18)
H51 H 0.4472 0.7332 0.8962
C56 C 0.4699(7) 0.8885(19) 0.944(2)
H52 H 0.4477 0.9285 0.9034
O9_2 O 0.2433(3) 0.0208(10) 0.6131(6)
O10_2 O 0.3118(3) 0.0958(8) 0.6625(5)
H56_2 H 0.3660 0.0320 0.5123
C60_2 C 0.2972(3) 0.0115(12) 0.5067(7)
H57_2 H 0.2950 0.0807 0.4675
C61_2 C 0.2822(4) 0.0412(13) 0.6005(7)
H61_2 H 0.2242 0.0326 0.3687
H64_2 H 0.3059 0.0512 0.3257
C1_2 C 0.9635(4) 0.7649(12) 0.4640(7)
N1_2 N 0.9621(3) 0.6520(11) 0.4627(7)
C2_3 C 1.0000 0.6000(17) 0.5000
N2_3 N 1.0000 0.8276(15) 0.5000
C3_2 C 0.9224(4) 0.8289(12) 0.4233(7)
C4_2 C 0.9214(4) 0.9478(12) 0.4270(8)
H1_2 H 0.9460 0.9891 0.4574
N3_2 N 0.8456(3) 0.9474(10) 0.3414(6)
C6_2 C 0.8472(5) 0.8336(13) 0.3411(8)
H3_2 H 0.8218 0.7944 0.3122
C7_2 C 0.8845(4) 0.7702(13) 0.3811(8)
H4_2 H 0.8840 0.6909 0.3794
C8_2 C 1.0000 0.471(2) 0.5000
C9 C 0.9649(6) 0.4139(17) 0.4522(18)
H5 H 0.9405 0.4518 0.4171
C10 C 0.9665(8) 0.297(2) 0.457(2)
H6 H 0.9411 0.2586 0.4268
N4_2 N 1.0000 0.234(3) 0.5000
C21_2 C 0.7006(4) 0.8880(11) 0.6276(7)
C22_2 C 0.6544(5) 0.8815(18) 0.5640(12)
H13_2 H 0.6308 0.8998 0.6008
H14_2 H 0.6491 0.8053 0.5380
C23_2 C 0.6545(4) 0.9695(19) 0.4816(9)
H15_2 H 0.6456 0.9335 0.4198
C26_2 C 0.7324(4) 0.9184(12) 0.5508(8)
C27_2 C 0.7393(5) 0.8146(13) 0.4938(8)
H18_2 H 0.7107 0.7837 0.4660
H19_2 H 0.7559 0.8348 0.4438
H20_2 H 0.7559 0.7588 0.5348
C28_2 C 0.7793(5) 0.9657(16) 0.5942(10)
H22_2 H 0.7957 0.9089 0.6346
H23_2 H 0.7957 0.9849 0.5436
C29_2 C 0.7147(4) 0.7750(12) 0.6753(6)
C30_2 C 0.7030(7) 0.9792(15) 0.7038(10)
H25_2 H 0.6832 0.9598 0.7479
H26_2 H 0.7333 0.9846 0.7375
C31_2 C 0.6950(4) 0.7856(13) 0.1366(7)
C32_2 C 0.7239(6) 0.6829(12) 0.1738(8)
H27_2 H 0.7507 0.7087 0.2160
H28_2 H 0.7071 0.6336 0.2102
C33_2 C 0.7368(5) 0.6201(14) 0.0953(7)
H29_2 H 0.7359 0.5387 0.1072
H30_2 H 0.7670 0.6406 0.0863
O7_2 O 0.6880(3) 0.9808(8) 0.1632(5)
C34_2 C 0.7032(4) 0.6519(12) 0.0084(7)
H31_2 H 0.6757 0.6081 0.0115
O8_2 O 0.7545(3) 0.9034(9) 0.2142(6)
C36_2 C 0.6920(5) 0.7783(12) 0.0238(7)
H35_2 H 0.7170 0.9335 0.0006
H36_2 H 0.7545 0.8403 0.0243
C39_2 C 0.7142(4) 0.8975(12) 0.1753(7)
C40_2 C 0.6484(6) 0.7713(16) 0.1700(10)
H38_2 H 0.6351 0.7003 0.1465
H39_2 H 0.6525 0.7718 0.2387
H40_2 H 0.6290 0.8331 0.1454
C71_2 C 0.2823(4) 0.6239(12) 0.0879(6)
C73_2 C 0.3564(6) 0.801(2) 0.0286(10)
H72_2 H 0.3769 0.7500 0.0051
H73_2 H 0.3647 0.8786 0.0171
H74_2 H 0.3576 0.7898 0.0961
C74_2 C 0.2750(8) 0.8558(13) 0.0102(9)
H77_2 H 0.2753 0.8438 0.0773
C35_2 C 0.7177(4) 0.6239(12) 0.9121(6)
C37_2 C 0.6436(6) 0.801(2) 0.9714(10)
H32_2 H 0.6231 0.7500 0.9949
H33_2 H 0.6353 0.8786 0.9829
H34_2 H 0.6424 0.7898 0.9039
C38_2 C 0.7250(8) 0.8558(13) 0.9898(9)
H37_2 H 0.7247 0.8438 0.9227
C57_2 C 0.2994(4) 0.8880(11) 0.3724(7)
C58_2 C 0.3456(5) 0.8815(18) 0.4360(12)
H53_2 H 0.3692 0.8998 0.3992
H54_2 H 0.3509 0.8053 0.4620
C59_2 C 0.3455(4) 0.9695(19) 0.5184(9)
H55_2 H 0.3544 0.9335 0.5802
C62_2 C 0.2676(4) 0.9184(12) 0.4492(8)
C63_2 C 0.2607(5) 0.8146(13) 0.5062(8)
H58_2 H 0.2893 0.7837 0.5340
H59_2 H 0.2441 0.8348 0.5562
H60_2 H 0.2441 0.7588 0.4652
C64_2 C 0.2207(5) 0.9657(16) 0.4058(10)
H62_2 H 0.2043 0.9089 0.3654
H63_2 H 0.2043 0.9849 0.4564
C65_2 C 0.2853(4) 0.7750(12) 0.3247(6)
C66_2 C 0.2970(7) 0.9792(15) 0.2962(10)
H65_2 H 0.3168 0.9598 0.2521
H66_2 H 0.2667 0.9846 0.2625
C67_2 C 0.3050(4) 0.7856(13) 0.8634(7)
C68_2 C 0.2761(6) 0.6829(12) 0.8262(8)
H67_2 H 0.2493 0.7087 0.7840
H68_2 H 0.2929 0.6336 0.7898
C69_2 C 0.2632(5) 0.6201(14) 0.9047(7)
H69_2 H 0.2641 0.5387 0.8928
H70_2 H 0.2330 0.6406 0.9137
O15_2 O 0.3120(3) 0.9808(8) 0.8368(5)
C70_2 C 0.2968(4) 0.6519(12) 0.9916(7)
H71_2 H 0.3243 0.6081 0.9885
O16_2 O 0.2455(3) 0.9034(9) 0.7858(6)
C72_2 C 0.3080(5) 0.7783(12) 0.9762(7)
H75_2 H 0.2830 0.9335 0.9994
H76_2 H 0.2455 0.8403 0.9757
C75_2 C 0.2858(4) 0.8975(12) 0.8247(7)
C76_2 C 0.3516(6) 0.7713(16) 0.8300(10)
H78_2 H 0.3649 0.7003 0.8535
H79_2 H 0.3475 0.7718 0.7613
H80_2 H 0.3710 0.8331 0.8546
C8_3 C 0.5000 0.971(2) 0.5000
C9_2 C 0.4649(6) 0.9139(17) 0.4522(18)
H5_2 H 0.4405 0.9518 0.4171
C10_2 C 0.4665(8) 0.797(2) 0.457(2)
H6_2 H 0.4411 0.7586 0.4268
N4_3 N 0.5000 0.734(3) 0.5000
C47_2 C 0.5351(6) 0.9139(17) 0.5478(18)
H45_2 H 0.5595 0.9518 0.5829
C48_2 C 0.5335(8) 0.797(2) 0.543(2)
H46_2 H 0.5589 0.7586 0.5732
C12_5 C 1.0000 0.0823(17) 0.0000
C20_5 C 1.0000 0.2056(19) 0.0000
N8_5 N 1.0000 0.446(3) 0.0000
C12_6 C 1.0000 0.0823(17) 1.0000
C20_6 C 1.0000 0.2056(19) 1.0000
N8_6 N 1.0000 0.446(3) 1.0000
N11_2 N 0.9620(3) 0.0286(10) 0.9611(6)
C55_2 C 0.9690(7) 0.2698(19) 0.9399(18)
H51_2 H 0.9472 0.2332 0.8962
C56_2 C 0.9699(7) 0.3885(19) 0.944(2)
H52_2 H 0.9477 0.4285 0.9034
loop_
_geom_bond_atom_site_label_1
_geom_bond_atom_site_label_2
_geom_bond_site_symmetry_1
_geom_bond_site_symmetry_2
N5 C12 1_555 1_555
C12 C20 1_555 1_555
C18 H11 1_555 1_555
C19 C18 1_555 1_555
H12 C19 1_555 1_555
C20 C18 1_555 1_555
N8 C19 1_555 1_555
C12_2 C20_2 1_555 1_555
Co1 Co2 1_555 1_555
Co2 N7 1_555 1_555
C1 N1 1_555 1_555
N1 C2 1_555 1_555
N2 C1 1_555 1_555
C3 C1 1_555 1_555
C4 C3 1_555 1_555
H1 C4 1_555 1_555
C5 C4 1_555 1_555
H2 C5 1_555 1_555
N3 Co1 1_555 1_555
C6 N3 1_555 1_555
H3 C6 1_555 1_555
C7 C3 1_555 1_555
H4 C7 1_555 1_555
N6 C11 1_555 1_555
C13 C11 1_555 1_555
C14 C13 1_555 1_555
H7 C14 1_555 1_555
C15 C14 1_555 1_555
H8 C15 1_555 1_555
N7 C15 1_555 1_555
C16 N7 1_555 1_555
H9 C16 1_555 1_555
C17 C13 1_555 1_555
H10 C17 1_555 1_555
C21 C22 1_555 1_555
O1 Co1 1_555 1_555
C22 H13 1_555 1_555
H14 C22 1_555 1_555
O2 Co2 1_555 1_555
C23 C22 1_555 1_555
H15 C23 1_555 1_555
H16 C23 1_555 1_555
O3 C29 1_555 1_555
C24 C23 1_555 1_555
H17 C24 1_555 1_555
O4 C29 1_555 1_555
C25 O1 1_555 1_555
C26 C21 1_555 1_555
C27 C26 1_555 1_555
H18 C27 1_555 1_555
H19 C27 1_555 1_555
H20 C27 1_555 1_555
C28 C26 1_555 1_555
H21 C28 1_555 1_555
H22 C28 1_555 1_555
H23 C28 1_555 1_555
C29 C21 1_555 1_555
C30 C21 1_555 1_555
H24 C30 1_555 1_555
H25 C30 1_555 1_555
H26 C30 1_555 1_555
C31 C32 1_555 1_555
C32 H27 1_555 1_555
H28 C32 1_555 1_555
C33 C32 1_555 1_555
H29 C33 1_555 1_555
H30 C33 1_555 1_555
O7 Co2 1_555 1_555
C34 C33 1_555 1_555
H31 C34 1_555 1_555
O8 Co1 1_555 1_555
C36 C31 1_555 1_555
C39 C31 1_555 1_555
C40 C31 1_555 1_555
H38 C40 1_555 1_555
H39 C40 1_555 1_555
H40 C40 1_555 1_555
C41 N2 1_555 1_555
N9 C2 1_555 1_555
C42 C41 1_555 1_555
C43 C42 1_555 1_555
H41 C43 1_555 1_555
C44 C43 1_555 1_555
H42 C44 1_555 1_555
N10 C44 1_555 1_555
C45 N10 1_555 1_555
H43 C45 1_555 1_555
C46 C42 1_555 1_555
H44 C46 1_555 1_555
Co5 N10 1_555 1_555
Co9 O4 1_555 1_555
Co13 O3 1_555 1_555
O18 Co2 1_555 1_555
O20 Co1 1_555 1_555
O22 Co2 1_555 1_555
O24 Co1 1_555 1_555
C5 N3 1_555 1_555
C6 C7 1_555 1_555
C16 C17 1_555 1_555
O2 C25 1_555 1_555
C24 C25 1_555 1_555
C24 C26 1_555 1_555
O7 C39 1_555 1_555
C34 C36 1_555 1_555
O8 C39 1_555 1_555
C41 N9 1_555 1_555
C45 C46 1_555 1_555
Co9 Co13 1_555 1_555
O5 C35 1_555 1_555
O6 C35 1_555 1_555
H32 C37 1_555 1_555
H33 C37 1_555 1_555
H34 C37 1_555 1_555
H37 C38 1_555 1_555
Co9 O6 1_555 1_555
Co13 O5 1_555 1_555
O13 C71 1_555 1_555
O14 C71 1_555 1_555
H72 C73 1_555 1_555
H73 C73 1_555 1_555
H74 C73 1_555 1_555
H77 C74 1_555 1_555
Co7 O14 1_555 1_555
Co11 O13 1_555 1_555
Co7 Co11 1_555 1_555
C49 N6_4 1_555 1_555
C50 C49 1_555 1_555
C51 C50 1_555 1_555
H47 C51 1_555 1_555
C52 C51 1_555 1_555
H48 C52 1_555 1_555
N12 C52 1_555 1_555
C53 N12 1_555 1_555
H49 C53 1_555 1_555
C54 C50 1_555 1_555
H50 C54 1_555 1_555
Co5 Co4 1_555 1_555
Co4 N12 1_555 1_555
C57 C58 1_555 1_555
O9 Co5 1_555 1_555
C58 H53 1_555 1_555
H54 C58 1_555 1_555
O10 Co4 1_555 1_555
C59 C58 1_555 1_555
H55 C59 1_555 1_555
H56 C59 1_555 1_555
O11 C65 1_555 1_555
C60 C59 1_555 1_555
H57 C60 1_555 1_555
O12 C65 1_555 1_555
C61 O9 1_555 1_555
C62 C57 1_555 1_555
C63 C62 1_555 1_555
H58 C63 1_555 1_555
H59 C63 1_555 1_555
H60 C63 1_555 1_555
C64 C62 1_555 1_555
H61 C64 1_555 1_555
H62 C64 1_555 1_555
H63 C64 1_555 1_555
C65 C57 1_555 1_555
C66 C57 1_555 1_555
H64 C66 1_555 1_555
H65 C66 1_555 1_555
H66 C66 1_555 1_555
C67 C68 1_555 1_555
C68 H67 1_555 1_555
H68 C68 1_555 1_555
C69 C68 1_555 1_555
H69 C69 1_555 1_555
H70 C69 1_555 1_555
O15 Co4 1_555 1_555
C70 C69 1_555 1_555
H71 C70 1_555 1_555
O16 Co5 1_555 1_555
C72 C67 1_555 1_555
C75 C67 1_555 1_555
C76 C67 1_555 1_555
H78 C76 1_555 1_555
H79 C76 1_555 1_555
H80 C76 1_555 1_555
Co7 O12 1_555 1_555
Co11 O11 1_555 1_555
O17 Co4 1_555 1_555
O19 Co5 1_555 1_555
O21 Co4 1_555 1_555
O23 Co5 1_555 1_555
C53 C54 1_555 1_555
O10 C61 1_555 1_555
C60 C61 1_555 1_555
C60 C62 1_555 1_555
O15 C75 1_555 1_555
C70 C72 1_555 1_555
O16 C75 1_555 1_555
H42_2 C44_2 1_555 1_555
C2_2 C8 1_555 1_555
C41_2 N2_2 1_555 1_555
N9_2 C2_2 1_555 1_555
C42_2 C41_2 1_555 1_555
C43_2 C42_2 1_555 1_555
H41_2 C43_2 1_555 1_555
C45_2 N10_2 1_555 1_555
H43_2 C45_2 1_555 1_555
C46_2 C42_2 1_555 1_555
H44_2 C46_2 1_555 1_555
C47 C8 1_555 1_555
H45 C47 1_555 1_555
C48 N4 1_555 1_555
H46 C48 1_555 1_555
C41_2 N9_2 1_555 1_555
C45_2 C46_2 1_555 1_555
C47 C48 1_555 1_555
Co11 N7_2 1_555 1_555
H2_2 C5_2 1_555 1_555
C11_2 N5_2 1_555 1_555
N5_2 C12_3 1_555 1_555
C12_3 C20_3 1_555 1_555
N6_5 C11_2 1_555 1_555
C13_2 C11_2 1_555 1_555
C14_2 C13_2 1_555 1_555
H7_2 C14_2 1_555 1_555
C15_2 C14_2 1_555 1_555
H8_2 C15_2 1_555 1_555
N7_2 C15_2 1_555 1_555
C16_2 N7_2 1_555 1_555
H9_2 C16_2 1_555 1_555
C17_2 C13_2 1_555 1_555
H10_2 C17_2 1_555 1_555
C18_2 H11_2 1_555 1_555
C19_2 C18_2 1_555 1_555
H12_2 C19_2 1_555 1_555
C20_3 C18_2 1_555 1_555
N8_3 C19_2 1_555 1_555
O1_2 Co7 1_555 1_555
O2_2 Co11 1_555 1_555
H17_2 C24_2 1_555 1_555
C25_2 O1_2 1_555 1_555
C16_2 C17_2 1_555 1_555
O2_2 C25_2 1_555 1_555
C24_2 C25_2 1_555 1_555
C12_4 C20_4 1_555 1_555
C49_2 N6_6 1_555 1_555
N11 C12_4 1_555 1_555
C50_2 C49_2 1_555 1_555
C51_2 C50_2 1_555 1_555
H47_2 C51_2 1_555 1_555
C52_2 C51_2 1_555 1_555
H48_2 C52_2 1_555 1_555
N12_2 C52_2 1_555 1_555
C53_2 N12_2 1_555 1_555
H49_2 C53_2 1_555 1_555
C54_2 C50_2 1_555 1_555
H50_2 C54_2 1_555 1_555
C55 C20_4 1_555 1_555
H51 C55 1_555 1_555
C56 N8_4 1_555 1_555
H52 C56 1_555 1_555
Co13 N12_2 1_555 1_555
O9_2 Co9 1_555 1_555
O10_2 Co13 1_555 1_555
H57_2 C60_2 1_555 1_555
C61_2 O9_2 1_555 1_555
C49_2 N11 1_555 1_555
C53_2 C54_2 1_555 1_555
C55 C56 1_555 1_555
O10_2 C61_2 1_555 1_555
C60_2 C61_2 1_555 1_555
C1_2 N1_2 1_555 1_555
N1_2 C2_3 1_555 1_555
C2_3 C8_2 1_555 1_555
N2_3 C1_2 1_555 1_555
C3_2 C1_2 1_555 1_555
C4_2 C3_2 1_555 1_555
H1_2 C4_2 1_555 1_555
C6_2 N3_2 1_555 1_555
H3_2 C6_2 1_555 1_555
C7_2 C3_2 1_555 1_555
H4_2 C7_2 1_555 1_555
C8_2 C9 1_555 1_555
C9 H5 1_555 1_555
C10 C9 1_555 1_555
H6 C10 1_555 1_555
N4_2 C10 1_555 1_555
C21_2 C22_2 1_555 1_555
C22_2 H13_2 1_555 1_555
H14_2 C22_2 1_555 1_555
C23_2 C22_2 1_555 1_555
H15_2 C23_2 1_555 1_555
O17 C29_2 1_555 1_555
O19 C29_2 1_555 1_555
C26_2 C21_2 1_555 1_555
C27_2 C26_2 1_555 1_555
H18_2 C27_2 1_555 1_555
H19_2 C27_2 1_555 1_555
H20_2 C27_2 1_555 1_555
C28_2 C26_2 1_555 1_555
H22_2 C28_2 1_555 1_555
H23_2 C28_2 1_555 1_555
C29_2 C21_2 1_555 1_555
C30_2 C21_2 1_555 1_555
H25_2 C30_2 1_555 1_555
H26_2 C30_2 1_555 1_555
C31_2 C32_2 1_555 1_555
C32_2 H27_2 1_555 1_555
H28_2 C32_2 1_555 1_555
C33_2 C32_2 1_555 1_555
H29_2 C33_2 1_555 1_555
H30_2 C33_2 1_555 1_555
C34_2 C33_2 1_555 1_555
H31_2 C34_2 1_555 1_555
C36_2 C31_2 1_555 1_555
C39_2 C31_2 1_555 1_555
C40_2 C31_2 1_555 1_555
H38_2 C40_2 1_555 1_555
H39_2 C40_2 1_555 1_555
H40_2 C40_2 1_555 1_555
O22 C71_2 1_555 1_555
O24 C71_2 1_555 1_555
H72_2 C73_2 1_555 1_555
H73_2 C73_2 1_555 1_555
H74_2 C73_2 1_555 1_555
H77_2 C74_2 1_555 1_555
C6_2 C7_2 1_555 1_555
O7_2 C39_2 1_555 1_555
C34_2 C36_2 1_555 1_555
O8_2 C39_2 1_555 1_555
O21 C35_2 1_555 1_555
O23 C35_2 1_555 1_555
H32_2 C37_2 1_555 1_555
H33_2 C37_2 1_555 1_555
H34_2 C37_2 1_555 1_555
H37_2 C38_2 1_555 1_555
C57_2 C58_2 1_555 1_555
C58_2 H53_2 1_555 1_555
H54_2 C58_2 1_555 1_555
C59_2 C58_2 1_555 1_555
H55_2 C59_2 1_555 1_555
O18 C65_2 1_555 1_555
O20 C65_2 1_555 1_555
C62_2 C57_2 1_555 1_555
C63_2 C62_2 1_555 1_555
H58_2 C63_2 1_555 1_555
H59_2 C63_2 1_555 1_555
H60_2 C63_2 1_555 1_555
C64_2 C62_2 1_555 1_555
H62_2 C64_2 1_555 1_555
H63_2 C64_2 1_555 1_555
C65_2 C57_2 1_555 1_555
C66_2 C57_2 1_555 1_555
H65_2 C66_2 1_555 1_555
H66_2 C66_2 1_555 1_555
C67_2 C68_2 1_555 1_555
C68_2 H67_2 1_555 1_555
H68_2 C68_2 1_555 1_555
C69_2 C68_2 1_555 1_555
H69_2 C69_2 1_555 1_555
H70_2 C69_2 1_555 1_555
C70_2 C69_2 1_555 1_555
H71_2 C70_2 1_555 1_555
C72_2 C67_2 1_555 1_555
C75_2 C67_2 1_555 1_555
C76_2 C67_2 1_555 1_555
H78_2 C76_2 1_555 1_555
H79_2 C76_2 1_555 1_555
H80_2 C76_2 1_555 1_555
O15_2 C75_2 1_555 1_555
C70_2 C72_2 1_555 1_555
O16_2 C75_2 1_555 1_555
C8_3 C9_2 1_555 1_555
C9_2 H5_2 1_555 1_555
C10_2 C9_2 1_555 1_555
H6_2 C10_2 1_555 1_555
N4_3 C10_2 1_555 1_555
C47_2 C8_3 1_555 1_555
H45_2 C47_2 1_555 1_555
C48_2 N4_3 1_555 1_555
H46_2 C48_2 1_555 1_555
C47_2 C48_2 1_555 1_555
C12_5 C20_5 1_555 1_555
C12_6 C20_6 1_555 1_555
N11_2 C12_6 1_555 1_555
C55_2 C20_6 1_555 1_555
H51_2 C55_2 1_555 1_555
C56_2 N8_6 1_555 1_555
H52_2 C56_2 1_555 1_555
C55_2 C56_2 1_555 1_555

#END
