
###############################################################################
#
# This file contains modified crystal structure data generated from the
# MOF subset of the Cambridge Structural Database (CSD) v543 
# hosted by the Cambridge Crystallographic Data Centre (CCDC).
#
# This work is licensed under the Creative Commons
# Attribution-NonCommercial-ShareAlike 4.0 International License.
# To view a copy of this license, visit
# http://creativecommons.org/licenses/by-nc-sa/4.0/
# or send a letter to
# Creative Commons, PO Box 1866, Mountain View, CA 94042, USA.
#
# CIF created using the CSD Python API on 29 September 2022
# The structure has been converted into the P1 space group
# The structure has a 3D framework
# The original CSD entry WIGHAY is in the monoclinic crystal system
# The original CSD entry WIGHAY is in a Sohncke space group
# The framework has been calculated to contain at least 10.0% void space
# The void calculation uses a probe of radius 1.32A, grid spacing 0.4
#
###############################################################################

data_WIGHAY
_chemical_formula_moiety         '(C162 H160 Co8 N34 O32)n'
_symmetry_cell_setting           triclinic
_symmetry_space_group_name_H-M   'P 1'
_symmetry_Int_Tables_number      1
_space_group_name_Hall           'P 1'
loop_
_symmetry_equiv_pos_site_id
_symmetry_equiv_pos_as_xyz
1 x,y,z
_cell_length_a                   29.386(4)
_cell_length_b                   11.5486(15)
_cell_length_c                   14.2415(18)
_cell_angle_alpha                90
_cell_angle_beta                 97.942(2)
_cell_angle_gamma                90
_cell_volume                     4786.74
loop_
_atom_site_label
_atom_site_type_symbol
_atom_site_fract_x
_atom_site_fract_y
_atom_site_fract_z
N8 N 0.5000 0.113(2) 0.0000
C19 C 0.5227(7) 0.0574(19) 0.0753(15)
H11 H 0.5368 0.0990 0.1273
O13 O 0.6867(3) 0.1365(7) 0.1675(5)
O14 O 0.7538(2) 0.0489(8) 0.2101(5)
C72 C 0.7128(4) 0.0493(10) 0.1743(6)
Co6 Co 0.79057(4) 0.18726(11) 0.27020(9)
Co11 Co 0.70939(4) 0.29214(11) 0.21765(8)
N8_2 N 0.5000 0.113(2) 1.0000
H35 H 0.3708 0.0270 0.0122
C40 C 0.2786(8) 0.0105(14) 0.0118(10)
H38 H 0.2871 0.0892 0.0011
C55 C 0.4773(7) 0.0574(19) 0.9247(15)
H51 H 0.4632 0.0990 0.8727
H75 H 0.6292 0.0270 0.9878
C76 C 0.7214(8) 0.0105(14) 0.9882(10)
H78 H 0.7129 0.0892 0.9989
O5 O 0.3133(3) 0.1365(7) 0.8325(5)
O6 O 0.2462(2) 0.0489(8) 0.7899(5)
C36 C 0.2872(4) 0.0493(10) 0.8257(6)
Co8 Co 0.20943(4) 0.18726(11) 0.72980(9)
Co9 Co 0.29061(4) 0.29214(11) 0.78235(8)
C12 C 0.5000 0.7458(16) 0.0000
N6 N 0.5000 0.5173(12) 0.0000
C18 C 0.5000 0.8735(18) 0.0000
C20 C 0.5250(6) 0.9356(15) 0.0746(11)
H12 H 0.5430 0.8965 0.1234
C49 C 0.5362(4) 0.5801(11) 0.0390(7)
N11 N 0.5378(3) 0.6972(9) 0.0413(6)
C50 C 0.5766(3) 0.5122(10) 0.0790(7)
C51 C 0.5771(4) 0.3946(12) 0.0776(8)
H47 H 0.5511 0.3544 0.0506
C52 C 0.6155(3) 0.3346(9) 0.1155(7)
H48 H 0.6145 0.2541 0.1139
N12 N 0.6545(3) 0.3856(9) 0.1547(6)
C53 C 0.6543(4) 0.5017(11) 0.1551(8)
H49 H 0.6809 0.5397 0.1815
C54 C 0.6179(4) 0.5661(12) 0.1195(8)
H50 H 0.6199 0.6465 0.1215
C67 C 0.6904(4) 0.9358(10) 0.1379(6)
C68 C 0.7185(5) 0.8281(10) 0.1754(7)
H67 H 0.7435 0.8503 0.2238
H68 H 0.6991 0.7731 0.2026
C69 C 0.7367(5) 0.7764(13) 0.0932(7)
H69 H 0.7402 0.6932 0.1008
H70 H 0.7663 0.8097 0.0855
C70 C 0.7010(4) 0.8052(11) 0.0087(6)
H71 H 0.6740 0.7571 0.0144
C71 C 0.6875(5) 0.9290(11) 0.0257(7)
C73 C 0.6425(5) 0.9291(13) 0.1745(11)
H72 H 0.6274 0.8584 0.1529
H73 H 0.6469 0.9308 0.2426
H74 H 0.6240 0.9939 0.1505
H77 H 0.6178 0.8965 0.0038
H79 H 0.7517 0.9959 0.0206
Co1 Co 0.29057(4) 0.68726(11) 0.27020(9)
C1 C 0.4637(4) 0.4058(11) 0.4632(7)
N1 N 0.4619(3) 0.2939(12) 0.4590(9)
C2 C 0.5000 0.239(2) 0.5000
N2 N 0.5000 0.4672(12) 0.5000
C3 C 0.4220(4) 0.4719(10) 0.4201(7)
C4 C 0.4219(4) 0.5940(11) 0.4228(7)
H1 H 0.4469 0.6352 0.4528
C5 C 0.3834(4) 0.6497(13) 0.3795(8)
H2 H 0.3831 0.7302 0.3786
N3 N 0.3461(3) 0.5927(9) 0.3384(6)
C6 C 0.3466(4) 0.4784(11) 0.3377(8)
H3 H 0.3207 0.4393 0.3087
C7 C 0.3843(3) 0.4141(12) 0.3788(8)
H4 H 0.3836 0.3336 0.3780
C8 C 0.5000 0.109(4) 0.5000
C9 C 0.4702(11) 0.053(3) 0.429(2)
H5 H 0.4525 0.0886 0.3783
C11 C 0.4638(4) 0.5801(11) 0.9610(7)
N5 N 0.4622(3) 0.6972(9) 0.9587(6)
C12_2 C 0.5000 0.7458(16) 1.0000
N6_2 N 0.5000 0.5173(12) 1.0000
C13 C 0.4234(3) 0.5122(10) 0.9210(7)
C14 C 0.4229(4) 0.3946(12) 0.9224(8)
H7 H 0.4489 0.3544 0.9494
C15 C 0.3845(3) 0.3346(9) 0.8845(7)
H8 H 0.3855 0.2541 0.8861
N7 N 0.3455(3) 0.3856(9) 0.8453(6)
C16 C 0.3457(4) 0.5017(11) 0.8449(8)
H9 H 0.3191 0.5397 0.8185
C17 C 0.3821(4) 0.5661(12) 0.8805(8)
H10 H 0.3801 0.6465 0.8785
C18_2 C 0.5000 0.8735(18) 1.0000
C21 C 0.1986(4) 0.5392(11) 0.6259(6)
O1 O 0.2536(2) 0.4261(7) 0.7239(5)
C22 C 0.1504(4) 0.5347(15) 0.5700(9)
H13 H 0.1279 0.5597 0.6095
H14 H 0.1430 0.4563 0.5486
O2 O 0.1875(3) 0.3417(7) 0.6699(5)
C23 C 0.1501(4) 0.6168(14) 0.4841(8)
H15 H 0.1421 0.5746 0.4252
H16 H 0.1280 0.6787 0.4868
O3 O 0.2532(3) 0.6742(9) 0.3803(6)
C24 C 0.1988(4) 0.6655(11) 0.4906(6)
H17 H 0.2001 0.7356 0.5297
O4 O 0.1847(3) 0.7524(7) 0.3392(4)
C25 C 0.2301(4) 0.5708(9) 0.5485(7)
C26 C 0.2134(4) 0.4296(11) 0.6771(6)
C27 C 0.2008(5) 0.6364(12) 0.7011(9)
H18 H 0.1915 0.7084 0.6706
H19 H 0.1806 0.6179 0.7464
H20 H 0.2317 0.6433 0.7329
C28 C 0.2131(4) 0.6990(10) 0.3955(6)
O7 O 0.3135(3) 0.7302(8) 0.1486(5)
O8 O 0.2441(3) 0.8014(10) 0.1002(5)
C29 C 0.2773(4) 0.6192(13) 0.5863(8)
H21 H 0.2738 0.6875 0.6231
H22 H 0.2944 0.5621 0.6256
H23 H 0.2934 0.6383 0.5342
C30 C 0.2380(4) 0.4665(11) 0.4930(8)
H24 H 0.2090 0.4330 0.4676
H25 H 0.2546 0.4875 0.4420
H26 H 0.2556 0.4113 0.5333
C38 C 0.2846(4) 0.7783(11) 0.0874(7)
C39 C 0.3618(9) 0.949(3) 0.0225(12)
H36 H 0.3634 0.9346 0.0893
H40 H 0.2790 0.9978 0.0785
C41 C 0.5363(4) 0.4058(11) 0.5368(7)
N9 N 0.5381(3) 0.2939(12) 0.5410(9)
C42 C 0.5780(4) 0.4719(10) 0.5799(7)
C43 C 0.5781(4) 0.5940(11) 0.5772(7)
H41 H 0.5531 0.6352 0.5472
C44 C 0.6166(4) 0.6497(13) 0.6205(8)
H42 H 0.6169 0.7302 0.6214
N10 N 0.6539(3) 0.5927(9) 0.6616(6)
C45 C 0.6534(4) 0.4784(11) 0.6623(8)
H43 H 0.6793 0.4393 0.6913
C46 C 0.6157(3) 0.4141(12) 0.6212(8)
H44 H 0.6164 0.3336 0.6220
C47 C 0.5298(11) 0.053(3) 0.571(2)
H45 H 0.5475 0.0886 0.6217
C56 C 0.4750(6) 0.9356(15) 0.9254(11)
H52 H 0.4570 0.8965 0.8766
Co3 Co 0.70943(4) 0.68726(11) 0.72980(9)
C57 C 0.8014(4) 0.5392(11) 0.3741(6)
O9 O 0.7464(2) 0.4261(7) 0.2761(5)
C58 C 0.8496(4) 0.5347(15) 0.4300(9)
H53 H 0.8721 0.5597 0.3905
H54 H 0.8570 0.4563 0.4514
O10 O 0.8125(3) 0.3417(7) 0.3301(5)
C59 C 0.8499(4) 0.6168(14) 0.5159(8)
H55 H 0.8579 0.5746 0.5748
H56 H 0.8720 0.6787 0.5132
O11 O 0.7468(3) 0.6742(9) 0.6197(6)
C60 C 0.8012(4) 0.6655(11) 0.5094(6)
H57 H 0.7999 0.7356 0.4703
O12 O 0.8153(3) 0.7524(7) 0.6608(4)
C61 C 0.7699(4) 0.5708(9) 0.4515(7)
C62 C 0.7866(4) 0.4296(11) 0.3229(6)
C63 C 0.7992(5) 0.6364(12) 0.2989(9)
H58 H 0.8085 0.7084 0.3294
H59 H 0.8194 0.6179 0.2536
H60 H 0.7683 0.6433 0.2671
C64 C 0.7869(4) 0.6990(10) 0.6045(6)
O15 O 0.6865(3) 0.7302(8) 0.8514(5)
O16 O 0.7559(3) 0.8014(10) 0.8998(5)
C65 C 0.7227(4) 0.6192(13) 0.4137(8)
H61 H 0.7262 0.6875 0.3769
H62 H 0.7056 0.5621 0.3744
H63 H 0.7066 0.6383 0.4658
C66 C 0.7620(4) 0.4665(11) 0.5070(8)
H64 H 0.7910 0.4330 0.5324
H65 H 0.7454 0.4875 0.5580
H66 H 0.7444 0.4113 0.4667
C74 C 0.7154(4) 0.7783(11) 0.9126(7)
C75 C 0.6382(9) 0.949(3) 0.9775(12)
H76 H 0.6366 0.9346 0.9107
H80 H 0.7210 0.9978 0.9215
Co12 Co 0.79061(4) 0.79214(11) 0.78235(8)
Co13 Co 0.20939(4) 0.79214(11) 0.21765(8)
O17 O 0.6875(3) 0.8417(7) 0.6699(5)
O18 O 0.3125(3) 0.8417(7) 0.3301(5)
O19 O 0.6847(3) 0.2524(7) 0.3392(4)
O20 O 0.3153(3) 0.2524(7) 0.6608(4)
O23 O 0.7462(2) 0.5489(8) 0.7899(5)
O24 O 0.2538(2) 0.5489(8) 0.2101(5)
O25 O 0.7441(3) 0.3014(10) 0.1002(5)
O26 O 0.2559(3) 0.3014(10) 0.8998(5)
C31 C 0.3096(4) 0.9358(10) 0.8621(6)
C32 C 0.2815(5) 0.8281(10) 0.8246(7)
H27 H 0.2565 0.8503 0.7762
H28 H 0.3009 0.7731 0.7974
C33 C 0.2633(5) 0.7764(13) 0.9068(7)
H29 H 0.2598 0.6932 0.8992
H30 H 0.2337 0.8097 0.9145
C34 C 0.2990(4) 0.8052(11) 0.9913(6)
H31 H 0.3260 0.7571 0.9856
C35 C 0.3125(5) 0.9290(11) 0.9743(7)
C37 C 0.3575(5) 0.9291(13) 0.8255(11)
H32 H 0.3726 0.8584 0.8471
H33 H 0.3531 0.9308 0.7574
H34 H 0.3760 0.9939 0.8495
H37 H 0.3822 0.8965 0.9962
H39 H 0.2483 0.9959 0.9794
C12_3 C -0.0000 0.2458(16) 0.0000
N6_3 N 0.0000 0.0173(12) 0.0000
C18_3 C 0.0000 0.3735(18) 0.0000
N8_3 N -0.0000 0.613(2) 0.0000
C19_2 C 0.0227(7) 0.5574(19) 0.0753(15)
H11_2 H 0.0368 0.5990 0.1273
C20_2 C 0.0250(6) 0.4356(15) 0.0746(11)
H12_2 H 0.0430 0.3965 0.1234
C49_2 C 0.0362(4) 0.0801(11) 0.0390(7)
N11_2 N 0.0378(3) 0.1972(9) 0.0413(6)
C50_2 C 0.0766(3) 0.0122(10) 0.0790(7)
C53_2 C 0.1543(4) 0.0017(11) 0.1551(8)
H49_2 H 0.1809 0.0397 0.1815
C54_2 C 0.1179(4) 0.0661(12) 0.1195(8)
H50_2 H 0.1199 0.1465 0.1215
O13_2 O 0.1867(3) 0.6365(7) 0.1675(5)
C67_2 C 0.1904(4) 0.4358(10) 0.1379(6)
C68_2 C 0.2185(5) 0.3281(10) 0.1754(7)
H67_2 H 0.2435 0.3503 0.2238
H68_2 H 0.1991 0.2731 0.2026
C69_2 C 0.2367(5) 0.2764(13) 0.0932(7)
H69_2 H 0.2402 0.1932 0.1008
H70_2 H 0.2663 0.3097 0.0855
C70_2 C 0.2010(4) 0.3052(11) 0.0087(6)
H71_2 H 0.1740 0.2571 0.0144
C71_2 C 0.1875(5) 0.4290(11) 0.0257(7)
C72_2 C 0.2128(4) 0.5493(10) 0.1743(6)
C73_2 C 0.1425(5) 0.4291(13) 0.1745(11)
H72_2 H 0.1274 0.3584 0.1529
H73_2 H 0.1469 0.4308 0.2426
H74_2 H 0.1240 0.4939 0.1505
H77_2 H 0.1178 0.3965 0.0038
H79_2 H 0.2517 0.4959 0.0206
C12_4 C 0.0000 0.2458(16) 1.0000
N6_4 N 0.0000 0.0173(12) 1.0000
C18_4 C 0.0000 0.3735(18) 1.0000
N8_4 N 0.0000 0.613(2) 1.0000
C43_2 C 0.0781(4) 0.0940(11) 0.5772(7)
H41_2 H 0.0531 0.1352 0.5472
C44_2 C 0.1166(4) 0.1497(13) 0.6205(8)
H42_2 H 0.1169 0.2302 0.6214
N10_2 N 0.1539(3) 0.0927(9) 0.6616(6)
C57_2 C 0.3014(4) 0.0392(11) 0.3741(6)
C58_2 C 0.3496(4) 0.0347(15) 0.4300(9)
H53_2 H 0.3721 0.0597 0.3905
C59_2 C 0.3499(4) 0.1168(14) 0.5159(8)
H55_2 H 0.3579 0.0746 0.5748
H56_2 H 0.3720 0.1787 0.5132
O11_2 O 0.2468(3) 0.1742(9) 0.6197(6)
C60_2 C 0.3012(4) 0.1655(11) 0.5094(6)
H57_2 H 0.2999 0.2356 0.4703
C61_2 C 0.2699(4) 0.0708(9) 0.4515(7)
C63_2 C 0.2992(5) 0.1364(12) 0.2989(9)
H58_2 H 0.3085 0.2084 0.3294
H59_2 H 0.3194 0.1179 0.2536
H60_2 H 0.2683 0.1433 0.2671
C64_2 C 0.2869(4) 0.1990(10) 0.6045(6)
O15_2 O 0.1865(3) 0.2302(8) 0.8514(5)
C65_2 C 0.2227(4) 0.1192(13) 0.4137(8)
H61_2 H 0.2262 0.1875 0.3769
H62_2 H 0.2056 0.0621 0.3744
H63_2 H 0.2066 0.1383 0.4658
C74_2 C 0.2154(4) 0.2783(11) 0.9126(7)
C75_2 C 0.1382(9) 0.449(3) 0.9775(12)
H75_2 H 0.1292 0.5270 0.9878
H76_2 H 0.1366 0.4346 0.9107
C76_2 C 0.2214(8) 0.5105(14) 0.9882(10)
H78_2 H 0.2129 0.5892 0.9989
H80_2 H 0.2210 0.4978 0.9215
C51_2 C 0.0771(4) 0.8946(12) 0.0776(8)
H47_2 H 0.0511 0.8544 0.0506
C52_2 C 0.1155(3) 0.8346(9) 0.1155(7)
H48_2 H 0.1145 0.7541 0.1139
N12_2 N 0.1545(3) 0.8856(9) 0.1547(6)
C2_2 C 0.0000 0.739(2) 0.5000
N2_2 N 0.0000 0.9672(12) 0.5000
C8_2 C 0.0000 0.609(4) 0.5000
N4 N 0.0000 0.356(4) 0.5000
C41_2 C 0.0363(4) 0.9058(11) 0.5368(7)
N9_2 N 0.0381(3) 0.7939(12) 0.5410(9)
C42_2 C 0.0780(4) 0.9719(10) 0.5799(7)
C45_2 C 0.1534(4) 0.9784(11) 0.6623(8)
H43_2 H 0.1793 0.9393 0.6913
C46_2 C 0.1157(3) 0.9141(12) 0.6212(8)
H44_2 H 0.1164 0.8336 0.6220
C47_2 C 0.0298(11) 0.553(3) 0.571(2)
H45_2 H 0.0475 0.5886 0.6217
C48 C 0.0285(13) 0.428(3) 0.552(3)
H46 H 0.0539 0.3904 0.5844
O9_2 O 0.2464(2) 0.9261(7) 0.2761(5)
H54_2 H 0.3570 0.9563 0.4514
C62_2 C 0.2866(4) 0.9296(11) 0.3229(6)
C66_2 C 0.2620(4) 0.9665(11) 0.5070(8)
H64_2 H 0.2910 0.9330 0.5324
H65_2 H 0.2454 0.9875 0.5580
H66_2 H 0.2444 0.9113 0.4667
C12_5 C 1.0000 0.2458(16) 0.0000
N6_5 N 1.0000 0.0173(12) 0.0000
C18_5 C 1.0000 0.3735(18) 0.0000
N8_5 N 1.0000 0.613(2) 0.0000
C4_2 C 0.9219(4) 0.0940(11) 0.4228(7)
H1_2 H 0.9469 0.1352 0.4528
C5_2 C 0.8834(4) 0.1497(13) 0.3795(8)
H2_2 H 0.8831 0.2302 0.3786
N3_2 N 0.8461(3) 0.0927(9) 0.3384(6)
C11_2 C 0.9638(4) 0.0801(11) 0.9610(7)
N5_2 N 0.9622(3) 0.1972(9) 0.9587(6)
C12_6 C 1.0000 0.2458(16) 1.0000
N6_6 N 1.0000 0.0173(12) 1.0000
C13_2 C 0.9234(3) 0.0122(10) 0.9210(7)
C16_2 C 0.8457(4) 0.0017(11) 0.8449(8)
H9_2 H 0.8191 0.0397 0.8185
C17_2 C 0.8821(4) 0.0661(12) 0.8805(8)
H10_2 H 0.8801 0.1465 0.8785
C18_6 C 1.0000 0.3735(18) 1.0000
N8_6 N 1.0000 0.613(2) 1.0000
C21_2 C 0.6986(4) 0.0392(11) 0.6259(6)
C22_2 C 0.6504(4) 0.0347(15) 0.5700(9)
H13_2 H 0.6279 0.0597 0.6095
C23_2 C 0.6501(4) 0.1168(14) 0.4841(8)
H15_2 H 0.6421 0.0746 0.4252
H16_2 H 0.6280 0.1787 0.4868
O3_2 O 0.7532(3) 0.1742(9) 0.3803(6)
C24_2 C 0.6988(4) 0.1655(11) 0.4906(6)
H17_2 H 0.7001 0.2356 0.5297
C25_2 C 0.7301(4) 0.0708(9) 0.5485(7)
C27_2 C 0.7008(5) 0.1364(12) 0.7011(9)
H18_2 H 0.6915 0.2084 0.6706
H19_2 H 0.6806 0.1179 0.7464
H20_2 H 0.7317 0.1433 0.7329
C28_2 C 0.7131(4) 0.1990(10) 0.3955(6)
O7_2 O 0.8135(3) 0.2302(8) 0.1486(5)
C29_2 C 0.7773(4) 0.1192(13) 0.5863(8)
H21_2 H 0.7738 0.1875 0.6231
H22_2 H 0.7944 0.0621 0.6256
H23_2 H 0.7934 0.1383 0.5342
C38_2 C 0.7846(4) 0.2783(11) 0.0874(7)
C39_2 C 0.8618(9) 0.449(3) 0.0225(12)
H35_2 H 0.8708 0.5270 0.0122
H36_2 H 0.8634 0.4346 0.0893
C40_2 C 0.7786(8) 0.5105(14) 0.0118(10)
H38_2 H 0.7871 0.5892 0.0011
H40_2 H 0.7790 0.4978 0.0785
C55_2 C 0.9773(7) 0.5574(19) 0.9247(15)
H51_2 H 0.9632 0.5990 0.8727
C56_2 C 0.9750(6) 0.4356(15) 0.9254(11)
H52_2 H 0.9570 0.3965 0.8766
O5_2 O 0.8133(3) 0.6365(7) 0.8325(5)
C31_2 C 0.8096(4) 0.4358(10) 0.8621(6)
C32_2 C 0.7815(5) 0.3281(10) 0.8246(7)
H27_2 H 0.7565 0.3503 0.7762
H28_2 H 0.8009 0.2731 0.7974
C33_2 C 0.7633(5) 0.2764(13) 0.9068(7)
H29_2 H 0.7598 0.1932 0.8992
H30_2 H 0.7337 0.3097 0.9145
C34_2 C 0.7990(4) 0.3052(11) 0.9913(6)
H31_2 H 0.8260 0.2571 0.9856
C35_2 C 0.8125(5) 0.4290(11) 0.9743(7)
C36_2 C 0.7872(4) 0.5493(10) 0.8257(6)
C37_2 C 0.8575(5) 0.4291(13) 0.8255(11)
H32_2 H 0.8726 0.3584 0.8471
H33_2 H 0.8531 0.4308 0.7574
H34_2 H 0.8760 0.4939 0.8495
H37_2 H 0.8822 0.3965 0.9962
H39_2 H 0.7483 0.4959 0.9794
C1_2 C 0.9637(4) 0.9058(11) 0.4632(7)
N1_2 N 0.9619(3) 0.7939(12) 0.4590(9)
C2_3 C 1.0000 0.739(2) 0.5000
N2_3 N 1.0000 0.9672(12) 0.5000
C3_2 C 0.9220(4) 0.9719(10) 0.4201(7)
C6_2 C 0.8466(4) 0.9784(11) 0.3377(8)
H3_2 H 0.8207 0.9393 0.3087
C7_2 C 0.8843(3) 0.9141(12) 0.3788(8)
H4_2 H 0.8836 0.8336 0.3780
C8_3 C 1.0000 0.609(4) 0.5000
C9_2 C 0.9702(11) 0.553(3) 0.429(2)
H5_2 H 0.9525 0.5886 0.3783
C10 C 0.9715(13) 0.428(3) 0.448(3)
H6 H 0.9461 0.3904 0.4156
N4_2 N 1.0000 0.356(4) 0.5000
C14_2 C 0.9229(4) 0.8946(12) 0.9224(8)
H7_2 H 0.9489 0.8544 0.9494
C15_2 C 0.8845(3) 0.8346(9) 0.8845(7)
H8_2 H 0.8855 0.7541 0.8861
N7_2 N 0.8455(3) 0.8856(9) 0.8453(6)
O1_2 O 0.7536(2) 0.9261(7) 0.7239(5)
H14_2 H 0.6430 0.9563 0.5486
C26_2 C 0.7134(4) 0.9296(11) 0.6771(6)
C30_2 C 0.7380(4) 0.9665(11) 0.4930(8)
H24_2 H 0.7090 0.9330 0.4676
H25_2 H 0.7546 0.9875 0.4420
H26_2 H 0.7556 0.9113 0.5333
C10_2 C 0.4715(13) 0.928(3) 0.448(3)
H6_2 H 0.4461 0.8904 0.4156
N4_3 N 0.5000 0.856(4) 0.5000
C48_2 C 0.5285(13) 0.928(3) 0.552(3)
H46_2 H 0.5539 0.8904 0.5844
loop_
_geom_bond_atom_site_label_1
_geom_bond_atom_site_label_2
_geom_bond_site_symmetry_1
_geom_bond_site_symmetry_2
N8 C19 1_555 1_555
C19 H11 1_555 1_555
O13 C72 1_555 1_555
O14 C72 1_555 1_555
Co6 O14 1_555 1_555
Co11 O13 1_555 1_555
Co6 Co11 1_555 1_555
H38 C40 1_555 1_555
C55 N8_2 1_555 1_555
H51 C55 1_555 1_555
H78 C76 1_555 1_555
O5 C36 1_555 1_555
O6 C36 1_555 1_555
Co8 O6 1_555 1_555
Co9 O5 1_555 1_555
Co8 Co9 1_555 1_555
C12 C18 1_555 1_555
C18 C20 1_555 1_555
H12 C20 1_555 1_555
C49 N6 1_555 1_555
N11 C12 1_555 1_555
C50 C49 1_555 1_555
C51 C50 1_555 1_555
H47 C51 1_555 1_555
C52 C51 1_555 1_555
H48 C52 1_555 1_555
N12 C52 1_555 1_555
C53 N12 1_555 1_555
H49 C53 1_555 1_555
C54 C50 1_555 1_555
H50 C54 1_555 1_555
C67 C68 1_555 1_555
C68 H67 1_555 1_555
H68 C68 1_555 1_555
C69 C68 1_555 1_555
H69 C69 1_555 1_555
H70 C69 1_555 1_555
C70 C69 1_555 1_555
H71 C70 1_555 1_555
C71 C67 1_555 1_555
C73 C67 1_555 1_555
H72 C73 1_555 1_555
H73 C73 1_555 1_555
H74 C73 1_555 1_555
Co11 N12 1_555 1_555
C49 N11 1_555 1_555
C53 C54 1_555 1_555
C70 C71 1_555 1_555
Co1 N3 1_555 1_555
Co9 N7 1_555 1_555
C1 N1 1_555 1_555
N1 C2 1_555 1_555
C2 C8 1_555 1_555
N2 C1 1_555 1_555
C3 C1 1_555 1_555
C4 C3 1_555 1_555
H1 C4 1_555 1_555
C5 C4 1_555 1_555
H2 C5 1_555 1_555
N3 C5 1_555 1_555
C6 N3 1_555 1_555
H3 C6 1_555 1_555
C7 C3 1_555 1_555
H4 C7 1_555 1_555
C8 C9 1_555 1_555
C9 H5 1_555 1_555
C11 N5 1_555 1_555
N5 C12_2 1_555 1_555
C12_2 C18_2 1_555 1_555
N6_2 C11 1_555 1_555
C13 C11 1_555 1_555
C14 C13 1_555 1_555
H7 C14 1_555 1_555
C15 C14 1_555 1_555
H8 C15 1_555 1_555
N7 C15 1_555 1_555
C16 N7 1_555 1_555
H9 C16 1_555 1_555
C17 C13 1_555 1_555
H10 C17 1_555 1_555
C21 C22 1_555 1_555
O1 Co9 1_555 1_555
C22 H13 1_555 1_555
H14 C22 1_555 1_555
O2 C26 1_555 1_555
C23 C22 1_555 1_555
H15 C23 1_555 1_555
H16 C23 1_555 1_555
O3 Co1 1_555 1_555
C24 C23 1_555 1_555
H17 C24 1_555 1_555
O4 C28 1_555 1_555
C25 C21 1_555 1_555
C26 C21 1_555 1_555
C27 C21 1_555 1_555
H18 C27 1_555 1_555
H19 C27 1_555 1_555
H20 C27 1_555 1_555
C28 O3 1_555 1_555
O7 Co1 1_555 1_555
O8 C38 1_555 1_555
C29 C25 1_555 1_555
H21 C29 1_555 1_555
H22 C29 1_555 1_555
H23 C29 1_555 1_555
C30 C25 1_555 1_555
H24 C30 1_555 1_555
H25 C30 1_555 1_555
H26 C30 1_555 1_555
C38 O7 1_555 1_555
H36 C39 1_555 1_555
C41 N2 1_555 1_555
N9 C2 1_555 1_555
C42 C41 1_555 1_555
C43 C42 1_555 1_555
H41 C43 1_555 1_555
C44 C43 1_555 1_555
H42 C44 1_555 1_555
N10 C44 1_555 1_555
C45 N10 1_555 1_555
H43 C45 1_555 1_555
C46 C42 1_555 1_555
H44 C46 1_555 1_555
C47 C8 1_555 1_555
H45 C47 1_555 1_555
C56 C18_2 1_555 1_555
H52 C56 1_555 1_555
Co3 N10 1_555 1_555
Co11 O9 1_555 1_555
C57 C58 1_555 1_555
O9 C62 1_555 1_555
C58 H53 1_555 1_555
H54 C58 1_555 1_555
O10 C62 1_555 1_555
C59 C58 1_555 1_555
H55 C59 1_555 1_555
H56 C59 1_555 1_555
O11 Co3 1_555 1_555
C60 C59 1_555 1_555
H57 C60 1_555 1_555
O12 C64 1_555 1_555
C61 C57 1_555 1_555
C62 C57 1_555 1_555
C63 C57 1_555 1_555
H58 C63 1_555 1_555
H59 C63 1_555 1_555
H60 C63 1_555 1_555
C64 O11 1_555 1_555
O15 Co3 1_555 1_555
O16 C74 1_555 1_555
C65 C61 1_555 1_555
H61 C65 1_555 1_555
H62 C65 1_555 1_555
H63 C65 1_555 1_555
C66 C61 1_555 1_555
H64 C66 1_555 1_555
H65 C66 1_555 1_555
H66 C66 1_555 1_555
C74 O15 1_555 1_555
H76 C75 1_555 1_555
Co12 Co3 1_555 1_555
Co13 Co1 1_555 1_555
O17 Co3 1_555 1_555
O18 Co1 1_555 1_555
O19 Co11 1_555 1_555
O20 Co9 1_555 1_555
O23 Co3 1_555 1_555
O24 Co1 1_555 1_555
O25 Co11 1_555 1_555
O26 Co9 1_555 1_555
C6 C7 1_555 1_555
C16 C17 1_555 1_555
O1 C26 1_555 1_555
O2 Co8 1_555 1_555
C24 C25 1_555 1_555
C24 C28 1_555 1_555
O4 Co13 1_555 1_555
O8 Co13 1_555 1_555
C41 N9 1_555 1_555
C45 C46 1_555 1_555
O10 Co6 1_555 1_555
C60 C61 1_555 1_555
C60 C64 1_555 1_555
O12 Co12 1_555 1_555
O16 Co12 1_555 1_555
C31 C32 1_555 1_555
C32 H27 1_555 1_555
H28 C32 1_555 1_555
C33 C32 1_555 1_555
H29 C33 1_555 1_555
H30 C33 1_555 1_555
C34 C33 1_555 1_555
H31 C34 1_555 1_555
C35 C31 1_555 1_555
C37 C31 1_555 1_555
H32 C37 1_555 1_555
H33 C37 1_555 1_555
H34 C37 1_555 1_555
C34 C35 1_555 1_555
C12_3 C18_3 1_555 1_555
C18_3 C20_2 1_555 1_555
N8_3 C19_2 1_555 1_555
C19_2 H11_2 1_555 1_555
C20_2 C19_2 1_555 1_555
H12_2 C20_2 1_555 1_555
C49_2 N6_3 1_555 1_555
N11_2 C12_3 1_555 1_555
C50_2 C49_2 1_555 1_555
H49_2 C53_2 1_555 1_555
C54_2 C50_2 1_555 1_555
H50_2 C54_2 1_555 1_555
O13_2 C72_2 1_555 1_555
O24 C72_2 1_555 1_555
C67_2 C68_2 1_555 1_555
C68_2 H67_2 1_555 1_555
H68_2 C68_2 1_555 1_555
C69_2 C68_2 1_555 1_555
H69_2 C69_2 1_555 1_555
H70_2 C69_2 1_555 1_555
C70_2 C69_2 1_555 1_555
H71_2 C70_2 1_555 1_555
C71_2 C67_2 1_555 1_555
C72_2 C67_2 1_555 1_555
C73_2 C67_2 1_555 1_555
H72_2 C73_2 1_555 1_555
H73_2 C73_2 1_555 1_555
H74_2 C73_2 1_555 1_555
Co13 O13_2 1_555 1_555
C49_2 N11_2 1_555 1_555
C53_2 C54_2 1_555 1_555
C70_2 C71_2 1_555 1_555
C12_4 C18_4 1_555 1_555
H41_2 C43_2 1_555 1_555
C44_2 C43_2 1_555 1_555
H42_2 C44_2 1_555 1_555
N10_2 C44_2 1_555 1_555
Co8 N10_2 1_555 1_555
C57_2 C58_2 1_555 1_555
C58_2 H53_2 1_555 1_555
C59_2 C58_2 1_555 1_555
H55_2 C59_2 1_555 1_555
H56_2 C59_2 1_555 1_555
O11_2 Co8 1_555 1_555
C60_2 C59_2 1_555 1_555
H57_2 C60_2 1_555 1_555
O20 C64_2 1_555 1_555
C61_2 C57_2 1_555 1_555
C63_2 C57_2 1_555 1_555
H58_2 C63_2 1_555 1_555
H59_2 C63_2 1_555 1_555
H60_2 C63_2 1_555 1_555
C64_2 O11_2 1_555 1_555
O15_2 Co8 1_555 1_555
O26 C74_2 1_555 1_555
C65_2 C61_2 1_555 1_555
H61_2 C65_2 1_555 1_555
H62_2 C65_2 1_555 1_555
H63_2 C65_2 1_555 1_555
C74_2 O15_2 1_555 1_555
H75_2 C75_2 1_555 1_555
H76_2 C75_2 1_555 1_555
H78_2 C76_2 1_555 1_555
H80_2 C76_2 1_555 1_555
C60_2 C61_2 1_555 1_555
C60_2 C64_2 1_555 1_555
H47_2 C51_2 1_555 1_555
C52_2 C51_2 1_555 1_555
H48_2 C52_2 1_555 1_555
N12_2 C52_2 1_555 1_555
Co13 N12_2 1_555 1_555
C2_2 C8_2 1_555 1_555
C41_2 N2_2 1_555 1_555
N9_2 C2_2 1_555 1_555
C42_2 C41_2 1_555 1_555
H43_2 C45_2 1_555 1_555
C46_2 C42_2 1_555 1_555
H44_2 C46_2 1_555 1_555
C47_2 C8_2 1_555 1_555
H45_2 C47_2 1_555 1_555
C48 N4 1_555 1_555
H46 C48 1_555 1_555
Co13 O9_2 1_555 1_555
O9_2 C62_2 1_555 1_555
O18 C62_2 1_555 1_555
H64_2 C66_2 1_555 1_555
H65_2 C66_2 1_555 1_555
H66_2 C66_2 1_555 1_555
C41_2 N9_2 1_555 1_555
C45_2 C46_2 1_555 1_555
C47_2 C48 1_555 1_555
C12_5 C18_5 1_555 1_555
Co6 N3_2 1_555 1_555
H1_2 C4_2 1_555 1_555
C5_2 C4_2 1_555 1_555
H2_2 C5_2 1_555 1_555
N3_2 C5_2 1_555 1_555
C11_2 N5_2 1_555 1_555
N5_2 C12_6 1_555 1_555
C12_6 C18_6 1_555 1_555
N6_6 C11_2 1_555 1_555
C13_2 C11_2 1_555 1_555
H9_2 C16_2 1_555 1_555
C17_2 C13_2 1_555 1_555
H10_2 C17_2 1_555 1_555
C21_2 C22_2 1_555 1_555
C22_2 H13_2 1_555 1_555
C23_2 C22_2 1_555 1_555
H15_2 C23_2 1_555 1_555
H16_2 C23_2 1_555 1_555
O3_2 Co6 1_555 1_555
C24_2 C23_2 1_555 1_555
H17_2 C24_2 1_555 1_555
O19 C28_2 1_555 1_555
C25_2 C21_2 1_555 1_555
C27_2 C21_2 1_555 1_555
H18_2 C27_2 1_555 1_555
H19_2 C27_2 1_555 1_555
H20_2 C27_2 1_555 1_555
C28_2 O3_2 1_555 1_555
O7_2 Co6 1_555 1_555
O25 C38_2 1_555 1_555
C29_2 C25_2 1_555 1_555
H21_2 C29_2 1_555 1_555
H22_2 C29_2 1_555 1_555
H23_2 C29_2 1_555 1_555
C38_2 O7_2 1_555 1_555
H35_2 C39_2 1_555 1_555
H36_2 C39_2 1_555 1_555
H38_2 C40_2 1_555 1_555
H40_2 C40_2 1_555 1_555
C55_2 N8_6 1_555 1_555
H51_2 C55_2 1_555 1_555
C56_2 C18_6 1_555 1_555
H52_2 C56_2 1_555 1_555
C16_2 C17_2 1_555 1_555
C24_2 C25_2 1_555 1_555
C24_2 C28_2 1_555 1_555
C55_2 C56_2 1_555 1_555
O5_2 C36_2 1_555 1_555
O23 C36_2 1_555 1_555
C31_2 C32_2 1_555 1_555
C32_2 H27_2 1_555 1_555
H28_2 C32_2 1_555 1_555
C33_2 C32_2 1_555 1_555
H29_2 C33_2 1_555 1_555
H30_2 C33_2 1_555 1_555
C34_2 C33_2 1_555 1_555
H31_2 C34_2 1_555 1_555
C35_2 C31_2 1_555 1_555
C36_2 C31_2 1_555 1_555
C37_2 C31_2 1_555 1_555
H32_2 C37_2 1_555 1_555
H33_2 C37_2 1_555 1_555
H34_2 C37_2 1_555 1_555
Co12 O5_2 1_555 1_555
C34_2 C35_2 1_555 1_555
Co12 N7_2 1_555 1_555
C1_2 N1_2 1_555 1_555
N1_2 C2_3 1_555 1_555
C2_3 C8_3 1_555 1_555
N2_3 C1_2 1_555 1_555
C3_2 C1_2 1_555 1_555
H3_2 C6_2 1_555 1_555
C7_2 C3_2 1_555 1_555
H4_2 C7_2 1_555 1_555
C8_3 C9_2 1_555 1_555
C9_2 H5_2 1_555 1_555
C10 C9_2 1_555 1_555
H6 C10 1_555 1_555
N4_2 C10 1_555 1_555
H7_2 C14_2 1_555 1_555
C15_2 C14_2 1_555 1_555
H8_2 C15_2 1_555 1_555
N7_2 C15_2 1_555 1_555
O1_2 Co12 1_555 1_555
O17 C26_2 1_555 1_555
H24_2 C30_2 1_555 1_555
H25_2 C30_2 1_555 1_555
H26_2 C30_2 1_555 1_555
C6_2 C7_2 1_555 1_555
O1_2 C26_2 1_555 1_555
H6_2 C10_2 1_555 1_555
N4_3 C10_2 1_555 1_555
C48_2 N4_3 1_555 1_555
H46_2 C48_2 1_555 1_555

#END
