
###############################################################################
#
# This file contains modified crystal structure data generated from the
# MOF subset of the Cambridge Structural Database (CSD) v543 
# hosted by the Cambridge Crystallographic Data Centre (CCDC).
#
# This work is licensed under the Creative Commons
# Attribution-NonCommercial-ShareAlike 4.0 International License.
# To view a copy of this license, visit
# http://creativecommons.org/licenses/by-nc-sa/4.0/
# or send a letter to
# Creative Commons, PO Box 1866, Mountain View, CA 94042, USA.
#
# CIF created using the CSD Python API on 29 September 2022
# The structure has been converted into the P1 space group
# The structure has a 3D framework
# The original CSD entry WIGPUA is in the monoclinic crystal system
# The framework has been calculated to contain at least 10.0% void space
# The void calculation uses a probe of radius 1.32A, grid spacing 0.4
# H atom positions have been added when not included in the experimental data
# Generated hydrogen atom positions removed from atoms on special positions
#
###############################################################################

data_WIGPUA
_chemical_formula_moiety         '(C156 H140 Br2 Mn8 N24 O31 2-)n'
_symmetry_cell_setting           triclinic
_symmetry_space_group_name_H-M   'P 1'
_symmetry_Int_Tables_number      1
_space_group_name_Hall           'P 1'
loop_
_symmetry_equiv_pos_site_id
_symmetry_equiv_pos_as_xyz
1 x,y,z
_cell_length_a                   12.3848(17)
_cell_length_b                   33.886(5)
_cell_length_c                   12.8929(12)
_cell_angle_alpha                90
_cell_angle_beta                 99.101(10)
_cell_angle_gamma                90
_cell_volume                     5342.66
loop_
_atom_site_label
_atom_site_type_symbol
_atom_site_fract_x
_atom_site_fract_y
_atom_site_fract_z
Br1 Br 0.13652(12) 0.7500 0.15810(9)
Br1_2 Br 0.86348(12) 0.2500 0.84190(9)
Mn2 Mn 0.5000 0.0000 0.5000
O5 O 0.3663(3) 0.02591(11) 0.4031(3)
C26 C 0.2692(4) 0.01898(16) 0.3638(4)
C28 C 0.0241(5) 0.18674(16) 0.1794(4)
C29 C 0.0083(5) 0.15960(16) 0.2560(5)
C32 C 0.1042(6) 0.18852(19) 0.1057(5)
H28 H 0.1634 0.2067 0.1332
H29 H 0.1344 0.1621 0.0981
H30 H 0.0677 0.1979 0.0371
C33 C 0.0746(5) 0.12320(16) 0.2797(4)
C34 C 0.1863(6) 0.12568(18) 0.3128(5)
H31 H 0.2204 0.1509 0.3180
C35 C 0.2500(6) 0.09200(18) 0.3386(5)
H32 H 0.3266 0.0943 0.3610
C36 C 0.2002(5) 0.05485(16) 0.3311(4)
C37 C 0.0902(5) 0.05271(16) 0.2960(4)
H33 H 0.0559 0.0276 0.2881
C38 C 0.0273(5) 0.08628(17) 0.2715(4)
O10 O 0.3663(3) 0.47409(11) 0.4031(3)
C41 C 0.2692(4) 0.48102(16) 0.3638(4)
O11 O 0.2243(3) 0.51357(10) 0.3500(3)
C42 C 0.0241(5) 0.31326(16) 0.1794(4)
C43 C 0.0083(5) 0.34040(16) 0.2560(5)
C46 C 0.1042(6) 0.31148(19) 0.1057(5)
H38 H 0.1634 0.2933 0.1332
H39 H 0.1344 0.3379 0.0981
H40 H 0.0677 0.3021 0.0371
C47 C 0.0746(5) 0.37680(16) 0.2797(4)
C48 C 0.1863(6) 0.37432(18) 0.3128(5)
H41 H 0.2204 0.3491 0.3180
C49 C 0.2500(6) 0.40800(18) 0.3386(5)
H42 H 0.3266 0.4057 0.3610
C50 C 0.2002(5) 0.44515(16) 0.3311(4)
C51 C 0.0902(5) 0.44729(16) 0.2960(4)
H43 H 0.0559 0.4724 0.2881
C52 C 0.0273(5) 0.41372(17) 0.2715(4)
C55 C 0.0429(4) 0.11073(15) 0.6497(4)
C57 C 0.0480(5) 0.16826(19) 0.7830(5)
H47 H 0.0330 0.1632 0.8541
H48 H 0.1272 0.1680 0.7832
H49 H 0.0185 0.1941 0.7592
H51 H 0.0270 0.0547 0.4970
C59 C 0.1576(4) 0.10697(15) 0.6378(4)
C60 C 0.2194(4) 0.13876(17) 0.6119(4)
H53 H 0.1865 0.1641 0.6038
C61 C 0.3260(4) 0.13458(16) 0.5977(4)
H54 H 0.3659 0.1569 0.5800
C62 C 0.3760(4) 0.09772(15) 0.6092(3)
C63 C 0.3160(4) 0.06525(15) 0.6353(4)
H55 H 0.3488 0.0399 0.6434
C64 C 0.2083(4) 0.07051(16) 0.6494(4)
H56 H 0.1680 0.0484 0.6675
O12 O 0.5547(2) 0.12034(10) 0.5900(2)
C76 C 0.4919(4) 0.09118(16) 0.5947(3)
O13 O 0.5273(2) 0.05582(9) 0.5938(2)
Mn8 Mn 0.70125(5) 0.06824(2) 0.60651(5)
Mn9 Mn 0.29875(5) 0.56824(2) 0.39349(5)
O20 O 0.5998(3) 0.02159(11) 0.3905(3)
Mn13 Mn 0.5000 0.5000 0.5000
Mn1 Mn 0.29875(5) 0.93176(2) 0.39349(5)
C1 C 0.2012(4) 0.85325(14) 0.2572(3)
H1 H 0.2621 0.8462 0.3136
H2 H 0.1751 0.8288 0.2195
N1 N 0.1123(3) 0.87067(11) 0.3038(3)
C2 C 0.0041(4) 0.86268(15) 0.2890(4)
C4 C 0.0439(4) 0.91298(15) 0.3990(3)
N2 N 0.1389(3) 0.90119(11) 0.3717(3)
C6 C 0.0412(4) 0.94633(18) 0.4735(4)
H6 H 0.1036 0.9443 0.5303
H8 H 0.0450 0.9714 0.4362
N3 N 0.2403(3) 0.88028(11) 0.1852(3)
N4 N 0.2942(3) 0.91275(11) 0.2235(3)
C13 C 0.3243(4) 0.93215(15) 0.1419(3)
C14 C 0.2873(4) 0.91012(15) 0.0485(3)
C15 C 0.2340(4) 0.87774(15) 0.0788(3)
C16 C 0.1779(5) 0.84483(18) 0.0165(4)
H13 H 0.2192 0.8204 0.0332
H15 H 0.1040 0.8417 0.0337
C17 C 0.3865(5) 0.96992(17) 0.1546(4)
H16 H 0.3354 0.9921 0.1426
H17 H 0.4373 0.9710 0.1037
H18 H 0.4276 0.9715 0.2260
Mn2_2 Mn 0.5000 1.0000 0.5000
O6 O 0.2243(3) 0.98643(10) 0.3500(3)
O17 O 0.4727(2) 0.94418(9) 0.4062(2)
O19 O 0.4002(3) 0.97841(11) 0.6095(3)
O21 O 0.3070(3) 0.92498(11) 0.5559(2)
O23 O 0.6337(3) 0.97409(11) 0.5969(3)
H14 H 0.1732 0.8506 0.9415
C18 C 0.3053(4) 0.92040(16) 0.9407(3)
C19 C 0.2951(5) 0.95841(18) 0.9039(4)
H19 H 0.2755 0.9787 0.9484
C20 C 0.3128(5) 0.96792(17) 0.8035(4)
H20 H 0.3096 0.9947 0.7813
C21 C 0.3349(4) 0.93875(14) 0.7359(3)
C22 C 0.3425(5) 0.90075(19) 0.7703(4)
H21 H 0.3571 0.8804 0.7238
C23 C 0.3292(5) 0.89132(17) 0.8727(4)
H22 H 0.3367 0.8647 0.8960
C25 C 0.3496(4) 0.94757(15) 0.6242(4)
H58 H 0.8268 0.1494 0.0585
C70 C 0.6947(4) 0.07960(16) 0.0593(3)
C71 C 0.7049(5) 0.04159(18) 0.0961(4)
H63 H 0.7245 0.0213 0.0516
C72 C 0.6872(5) 0.03208(17) 0.1965(4)
H64 H 0.6904 0.0053 0.2187
C73 C 0.6651(4) 0.06125(14) 0.2641(3)
C74 C 0.6575(5) 0.09925(19) 0.2297(4)
H65 H 0.6429 0.1196 0.2762
C75 C 0.6708(5) 0.10868(17) 0.1273(4)
H66 H 0.6633 0.1353 0.1040
C77 C 0.6504(4) 0.05243(15) 0.3758(4)
O15 O 0.6930(3) 0.07502(11) 0.4441(2)
Mn3 Mn 0.77380(14) 0.2500 0.29775(15)
C27 C 0.9269(8) 0.2500 0.1209(7)
H23 H 0.8505 0.2500 0.0839
H24 H 0.9763 0.2500 0.0675
N5 N 0.9466(4) 0.21478(13) 0.1867(4)
C30 C 0.9235(6) 0.17326(18) 0.3049(5)
N6 N 0.8855(4) 0.20785(14) 0.2619(4)
C31 C 0.8797(6) 0.15491(19) 0.3970(6)
H25 H 0.8095 0.1420 0.3720
H26 H 0.9320 0.1353 0.4308
H27 H 0.8693 0.1755 0.4479
H34 H 0.9508 0.0838 0.2488
C39 C 0.6928(9) 0.2500 0.1682(11)
O7 O 0.6403(8) 0.2500 0.0885(10)
C40 C 0.6789(9) 0.2129(3) 0.3325(10)
O8 O 0.6141(6) 0.1913(2) 0.3484(9)
O9 O 0.8654(7) 0.2500 0.4461(7)
N7 N 0.9466(4) 0.28522(13) 0.1867(4)
C44 C 0.9235(6) 0.32674(18) 0.3049(5)
N8 N 0.8855(4) 0.29215(14) 0.2619(4)
C45 C 0.8797(6) 0.34509(19) 0.3970(6)
H35 H 0.8095 0.3580 0.3720
H36 H 0.9320 0.3647 0.4308
H37 H 0.8693 0.3245 0.4479
H44 H 0.9508 0.4162 0.2488
C53 C 0.7988(4) 0.14675(14) 0.7428(3)
H45 H 0.7379 0.1538 0.6864
H46 H 0.8249 0.1712 0.7805
N9 N 0.8877(3) 0.12933(11) 0.6962(3)
C54 C 0.9959(4) 0.13732(15) 0.7110(4)
C56 C 0.9561(4) 0.08702(15) 0.6010(3)
N10 N 0.8611(3) 0.09881(11) 0.6283(3)
C58 C 0.9588(4) 0.05367(18) 0.5265(4)
H50 H 0.8964 0.0557 0.4697
H52 H 0.9550 0.0286 0.5638
N11 N 0.7597(3) 0.11972(11) 0.8148(3)
N12 N 0.7058(3) 0.08725(11) 0.7765(3)
C65 C 0.6757(4) 0.06785(15) 0.8581(3)
C66 C 0.7127(4) 0.08988(15) 0.9515(3)
C67 C 0.7660(4) 0.12226(15) 0.9212(3)
C68 C 0.8221(5) 0.15517(18) 0.9835(4)
H57 H 0.7808 0.1796 0.9668
H59 H 0.8960 0.1583 0.9663
C69 C 0.6135(5) 0.03008(17) 0.8454(4)
H60 H 0.6646 0.0079 0.8574
H61 H 0.5627 0.0290 0.8963
H62 H 0.5724 0.0285 0.7740
C78 C 0.6789(9) 0.2871(3) 0.3325(10)
O16 O 0.6141(6) 0.3087(2) 0.3484(9)
O24 O 0.7757(3) 0.01357(10) 0.6500(3)
C3 C 0.9571(4) 0.88927(15) 0.3503(4)
C5 C 0.9520(5) 0.83174(19) 0.2170(5)
H3 H 0.9670 0.8368 0.1459
H4 H 0.8728 0.8320 0.2168
H5 H 0.9815 0.8059 0.2408
H7 H 0.9730 0.9453 0.5030
C7 C 0.8424(4) 0.89303(15) 0.3622(4)
C8 C 0.7806(4) 0.86124(17) 0.3881(4)
H9 H 0.8135 0.8359 0.3962
C9 C 0.6740(4) 0.86542(16) 0.4023(4)
H10 H 0.6341 0.8431 0.4200
C10 C 0.6240(4) 0.90228(15) 0.3908(3)
C11 C 0.6840(4) 0.93475(15) 0.3647(4)
H11 H 0.6512 0.9601 0.3566
C12 C 0.7917(4) 0.92949(16) 0.3506(4)
H12 H 0.8320 0.9516 0.3325
O1 O 0.4453(2) 0.87966(10) 0.4100(2)
C24 C 0.5081(4) 0.90882(16) 0.4053(3)
C3_2 C 0.0429(4) 0.38927(15) 0.6497(4)
C5_2 C 0.0480(5) 0.33174(19) 0.7830(5)
H3_2 H 0.0330 0.3368 0.8541
H4_2 H 0.1272 0.3320 0.7832
H5_2 H 0.0185 0.3059 0.7592
H7_2 H 0.0270 0.4453 0.4970
C7_2 C 0.1576(4) 0.39303(15) 0.6378(4)
C8_2 C 0.2194(4) 0.36124(17) 0.6119(4)
H9_2 H 0.1865 0.3359 0.6038
C9_2 C 0.3260(4) 0.36542(16) 0.5977(4)
H10_2 H 0.3659 0.3431 0.5800
C10_2 C 0.3760(4) 0.40228(15) 0.6092(3)
C11_2 C 0.3160(4) 0.43475(15) 0.6353(4)
H11_2 H 0.3488 0.4601 0.6434
C12_2 C 0.2083(4) 0.42949(16) 0.6494(4)
H12_2 H 0.1680 0.4516 0.6675
O1_2 O 0.5547(2) 0.37966(10) 0.5900(2)
C24_2 C 0.4919(4) 0.40882(16) 0.5947(3)
O2 O 0.5273(2) 0.44418(9) 0.5938(2)
Mn3_2 Mn 0.22620(14) 0.7500 0.70225(15)
C27_2 C 0.0731(8) 0.7500 0.8791(7)
H23_2 H 0.1495 0.7500 0.9161
H24_2 H 0.0237 0.7500 0.9325
N5_2 N 0.0534(4) 0.71478(13) 0.8133(4)
C30_2 C 0.0765(6) 0.67326(18) 0.6951(5)
N6_2 N 0.1145(4) 0.70785(14) 0.7381(4)
C31_2 C 0.1203(6) 0.65491(19) 0.6030(6)
H25_2 H 0.1905 0.6420 0.6280
H26_2 H 0.0680 0.6353 0.5692
H27_2 H 0.1307 0.6755 0.5521
H34_2 H 0.0492 0.5838 0.7512
C39_2 C 0.3072(9) 0.7500 0.8318(11)
O7_2 O 0.3597(8) 0.7500 0.9115(10)
C40_2 C 0.3211(9) 0.7129(3) 0.6675(10)
O8_2 O 0.3859(6) 0.6913(2) 0.6516(9)
O9_2 O 0.1346(7) 0.7500 0.5539(7)
N7_2 N 0.0534(4) 0.78522(13) 0.8133(4)
C44_2 C 0.0765(6) 0.82674(18) 0.6951(5)
N8_2 N 0.1145(4) 0.79215(14) 0.7381(4)
C45_2 C 0.1203(6) 0.84509(19) 0.6030(6)
H35_2 H 0.1905 0.8580 0.6280
H36_2 H 0.0680 0.8647 0.5692
H37_2 H 0.1307 0.8245 0.5521
H44_2 H 0.0492 0.9162 0.7512
C53_2 C 0.2012(4) 0.64675(14) 0.2572(3)
H45_2 H 0.2621 0.6538 0.3136
H46_2 H 0.1751 0.6712 0.2195
N9_2 N 0.1123(3) 0.62933(11) 0.3038(3)
C54_2 C 0.0041(4) 0.63732(15) 0.2890(4)
C56_2 C 0.0439(4) 0.58702(15) 0.3990(3)
N10_2 N 0.1389(3) 0.59881(11) 0.3717(3)
C58_2 C 0.0412(4) 0.55367(18) 0.4735(4)
H50_2 H 0.1036 0.5557 0.5303
H52_2 H 0.0450 0.5286 0.4362
N11_2 N 0.2403(3) 0.61972(11) 0.1852(3)
N12_2 N 0.2942(3) 0.58725(11) 0.2235(3)
C65_2 C 0.3243(4) 0.56785(15) 0.1419(3)
C66_2 C 0.2873(4) 0.58988(15) 0.0485(3)
C67_2 C 0.2340(4) 0.62226(15) 0.0788(3)
C68_2 C 0.1779(5) 0.65517(18) 0.0165(4)
H57_2 H 0.2192 0.6796 0.0332
H59_2 H 0.1040 0.6583 0.0337
C69_2 C 0.3865(5) 0.53008(17) 0.1546(4)
H60_2 H 0.3354 0.5079 0.1426
H61_2 H 0.4373 0.5290 0.1037
H62_2 H 0.4276 0.5285 0.2260
C78_2 C 0.3211(9) 0.7871(3) 0.6675(10)
O16_2 O 0.3859(6) 0.8087(2) 0.6516(9)
Mn5 Mn 0.70125(5) 0.43176(2) 0.60651(5)
O18 O 0.4727(2) 0.55582(9) 0.4062(2)
O22 O 0.3070(3) 0.57502(11) 0.5559(2)
H58_2 H 0.1732 0.6494 0.9415
C70_2 C 0.3053(4) 0.57960(16) 0.9407(3)
C71_2 C 0.2951(5) 0.54159(18) 0.9039(4)
H63_2 H 0.2755 0.5213 0.9484
C72_2 C 0.3128(5) 0.53208(17) 0.8035(4)
H64_2 H 0.3096 0.5053 0.7813
C73_2 C 0.3349(4) 0.56125(14) 0.7359(3)
C74_2 C 0.3425(5) 0.59925(19) 0.7703(4)
H65_2 H 0.3571 0.6196 0.7238
C75_2 C 0.3292(5) 0.60868(17) 0.8727(4)
H66_2 H 0.3367 0.6353 0.8960
O14 O 0.4002(3) 0.52159(11) 0.6095(3)
C77_2 C 0.3496(4) 0.55243(15) 0.6242(4)
H14_2 H 0.8268 0.3506 0.0585
C18_2 C 0.6947(4) 0.42040(16) 0.0593(3)
C19_2 C 0.7049(5) 0.45841(18) 0.0961(4)
H19_2 H 0.7245 0.4787 0.0516
C20_2 C 0.6872(5) 0.46792(17) 0.1965(4)
H20_2 H 0.6904 0.4947 0.2187
C21_2 C 0.6651(4) 0.43875(14) 0.2641(3)
C22_2 C 0.6575(5) 0.40075(19) 0.2297(4)
H21_2 H 0.6429 0.3804 0.2762
C23_2 C 0.6708(5) 0.39132(17) 0.1273(4)
H22_2 H 0.6633 0.3647 0.1040
O3 O 0.5998(3) 0.47841(11) 0.3905(3)
C25_2 C 0.6504(4) 0.44757(15) 0.3758(4)
O4 O 0.6930(3) 0.42498(11) 0.4441(2)
C1_2 C 0.7988(4) 0.35325(14) 0.7428(3)
H1_2 H 0.7379 0.3462 0.6864
H2_2 H 0.8249 0.3288 0.7805
N1_2 N 0.8877(3) 0.37067(11) 0.6962(3)
C2_2 C 0.9959(4) 0.36268(15) 0.7110(4)
C4_2 C 0.9561(4) 0.41298(15) 0.6010(3)
N2_2 N 0.8611(3) 0.40119(11) 0.6283(3)
C6_2 C 0.9588(4) 0.44633(18) 0.5265(4)
H6_2 H 0.8964 0.4443 0.4697
H8_2 H 0.9550 0.4714 0.5638
N3_2 N 0.7597(3) 0.38028(11) 0.8148(3)
N4_2 N 0.7058(3) 0.41275(11) 0.7765(3)
C13_2 C 0.6757(4) 0.43215(15) 0.8581(3)
C14_2 C 0.7127(4) 0.41012(15) 0.9515(3)
C15_2 C 0.7660(4) 0.37774(15) 0.9212(3)
C16_2 C 0.8221(5) 0.34483(18) 0.9835(4)
H13_2 H 0.7808 0.3204 0.9668
H15_2 H 0.8960 0.3417 0.9663
C17_2 C 0.6135(5) 0.46992(17) 0.8454(4)
H16_2 H 0.6646 0.4921 0.8574
H17_2 H 0.5627 0.4710 0.8963
H18_2 H 0.5724 0.4715 0.7740
O5_2 O 0.6337(3) 0.52591(11) 0.5969(3)
C26_2 C 0.7308(4) 0.51898(16) 0.6362(4)
O6_2 O 0.7757(3) 0.48643(10) 0.6500(3)
C28_2 C 0.9759(5) 0.68674(16) 0.8206(4)
C29_2 C 0.9917(5) 0.65960(16) 0.7440(5)
C32_2 C 0.8958(6) 0.68852(19) 0.8943(5)
H28_2 H 0.8366 0.7067 0.8668
H29_2 H 0.8656 0.6621 0.9019
H30_2 H 0.9323 0.6979 0.9629
C33_2 C 0.9254(5) 0.62320(16) 0.7203(4)
C34_2 C 0.8137(6) 0.62568(18) 0.6872(5)
H31_2 H 0.7796 0.6509 0.6820
C35_2 C 0.7500(6) 0.59200(18) 0.6614(5)
H32_2 H 0.6734 0.5943 0.6390
C36_2 C 0.7998(5) 0.55485(16) 0.6689(4)
C37_2 C 0.9098(5) 0.55271(16) 0.7040(4)
H33_2 H 0.9441 0.5276 0.7119
C38_2 C 0.9727(5) 0.58628(17) 0.7285(4)
C41_2 C 0.7308(4) 0.98102(16) 0.6362(4)
C42_2 C 0.9759(5) 0.81326(16) 0.8206(4)
C43_2 C 0.9917(5) 0.84040(16) 0.7440(5)
C46_2 C 0.8958(6) 0.81148(19) 0.8943(5)
H38_2 H 0.8366 0.7933 0.8668
H39_2 H 0.8656 0.8379 0.9019
H40_2 H 0.9323 0.8021 0.9629
C47_2 C 0.9254(5) 0.87680(16) 0.7203(4)
C48_2 C 0.8137(6) 0.87432(18) 0.6872(5)
H41_2 H 0.7796 0.8491 0.6820
C49_2 C 0.7500(6) 0.90800(18) 0.6614(5)
H42_2 H 0.6734 0.9057 0.6390
C50_2 C 0.7998(5) 0.94515(16) 0.6689(4)
C51_2 C 0.9098(5) 0.94729(16) 0.7040(4)
H43_2 H 0.9441 0.9724 0.7119
C52_2 C 0.9727(5) 0.91372(17) 0.7285(4)
C55_2 C 0.9571(4) 0.61073(15) 0.3503(4)
C57_2 C 0.9520(5) 0.66826(19) 0.2170(5)
H47_2 H 0.9670 0.6632 0.1459
H48_2 H 0.8728 0.6680 0.2168
H49_2 H 0.9815 0.6941 0.2408
H51_2 H 0.9730 0.5547 0.5030
C59_2 C 0.8424(4) 0.60697(15) 0.3622(4)
C60_2 C 0.7806(4) 0.63876(17) 0.3881(4)
H53_2 H 0.8135 0.6641 0.3962
C61_2 C 0.6740(4) 0.63458(16) 0.4023(4)
H54_2 H 0.6341 0.6569 0.4200
C62_2 C 0.6240(4) 0.59772(15) 0.3908(3)
C63_2 C 0.6840(4) 0.56525(15) 0.3647(4)
H55_2 H 0.6512 0.5399 0.3566
C64_2 C 0.7917(4) 0.57051(16) 0.3506(4)
H56_2 H 0.8320 0.5484 0.3325
O12_2 O 0.4453(2) 0.62034(10) 0.4100(2)
C76_2 C 0.5081(4) 0.59118(16) 0.4053(3)
loop_
_geom_bond_atom_site_label_1
_geom_bond_atom_site_label_2
_geom_bond_site_symmetry_1
_geom_bond_site_symmetry_2
Mn2 O5 1_555 1_555
O5 C26 1_555 1_555
C29 C28 1_555 1_555
C32 C28 1_555 1_555
H28 C32 1_555 1_555
H29 C32 1_555 1_555
H30 C32 1_555 1_555
C33 C29 1_555 1_555
C34 C33 1_555 1_555
H31 C34 1_555 1_555
C35 C34 1_555 1_555
H32 C35 1_555 1_555
C36 C26 1_555 1_555
C37 C36 1_555 1_555
H33 C37 1_555 1_555
C38 C33 1_555 1_555
O10 C41 1_555 1_555
C41 O11 1_555 1_555
O11 Mn9 1_555 1_555
C43 C42 1_555 1_555
C46 C42 1_555 1_555
H38 C46 1_555 1_555
H39 C46 1_555 1_555
H40 C46 1_555 1_555
C47 C43 1_555 1_555
C48 C47 1_555 1_555
H41 C48 1_555 1_555
C49 C48 1_555 1_555
H42 C49 1_555 1_555
C50 C41 1_555 1_555
C51 C50 1_555 1_555
H43 C51 1_555 1_555
C52 C47 1_555 1_555
H47 C57 1_555 1_555
H48 C57 1_555 1_555
H49 C57 1_555 1_555
C59 C55 1_555 1_555
C60 C59 1_555 1_555
H53 C60 1_555 1_555
C61 C60 1_555 1_555
H54 C61 1_555 1_555
C62 C61 1_555 1_555
C63 C62 1_555 1_555
H55 C63 1_555 1_555
C64 C59 1_555 1_555
H56 C64 1_555 1_555
O12 C76 1_555 1_555
C76 C62 1_555 1_555
O13 Mn2 1_555 1_555
Mn8 O13 1_555 1_555
O20 Mn2 1_555 1_555
Mn13 O10 1_555 1_555
C35 C36 1_555 1_555
C37 C38 1_555 1_555
C49 C50 1_555 1_555
C51 C52 1_555 1_555
C63 C64 1_555 1_555
C76 O13 1_555 1_555
Mn1 N2 1_555 1_555
C1 H1 1_555 1_555
H2 C1 1_555 1_555
N1 C1 1_555 1_555
C2 N1 1_555 1_555
N2 N1 1_555 1_555
C6 C4 1_555 1_555
H6 C6 1_555 1_555
H8 C6 1_555 1_555
N3 C1 1_555 1_555
N4 Mn1 1_555 1_555
C13 N4 1_555 1_555
C14 C13 1_555 1_555
C15 N3 1_555 1_555
C16 C15 1_555 1_555
H13 C16 1_555 1_555
H15 C16 1_555 1_555
C17 C13 1_555 1_555
H16 C17 1_555 1_555
H17 C17 1_555 1_555
H18 C17 1_555 1_555
O6 Mn1 1_555 1_555
O17 Mn1 1_555 1_555
O19 Mn2_2 1_555 1_555
O21 Mn1 1_555 1_555
O23 Mn2_2 1_555 1_555
C4 N2 1_555 1_555
N3 N4 1_555 1_555
C14 C15 1_555 1_555
Mn2_2 O17 1_555 1_555
C19 C18 1_555 1_555
H19 C19 1_555 1_555
C20 C19 1_555 1_555
H20 C20 1_555 1_555
C21 C20 1_555 1_555
C22 C21 1_555 1_555
H21 C22 1_555 1_555
C23 C18 1_555 1_555
H22 C23 1_555 1_555
O19 C25 1_555 1_555
C25 C21 1_555 1_555
O21 C25 1_555 1_555
C22 C23 1_555 1_555
C71 C70 1_555 1_555
H63 C71 1_555 1_555
C72 C71 1_555 1_555
H64 C72 1_555 1_555
C73 C72 1_555 1_555
C74 C73 1_555 1_555
H65 C74 1_555 1_555
C75 C70 1_555 1_555
H66 C75 1_555 1_555
O20 C77 1_555 1_555
C77 C73 1_555 1_555
O15 C77 1_555 1_555
Mn8 O15 1_555 1_555
C74 C75 1_555 1_555
Mn3 N6 1_555 1_555
C27 H23 1_555 1_555
H24 C27 1_555 1_555
N5 C27 1_555 1_555
N6 N5 1_555 1_555
C31 C30 1_555 1_555
H25 C31 1_555 1_555
H26 C31 1_555 1_555
H27 C31 1_555 1_555
C39 Mn3 1_555 1_555
O7 C39 1_555 1_555
C40 Mn3 1_555 1_555
O8 C40 1_555 1_555
O9 Mn3 1_555 1_555
N7 C27 1_555 1_555
N8 Mn3 1_555 1_555
C45 C44 1_555 1_555
H35 C45 1_555 1_555
H36 C45 1_555 1_555
H37 C45 1_555 1_555
Mn8 N10 1_555 1_555
C53 H45 1_555 1_555
H46 C53 1_555 1_555
N9 C53 1_555 1_555
C54 N9 1_555 1_555
N10 N9 1_555 1_555
C58 C56 1_555 1_555
H50 C58 1_555 1_555
H52 C58 1_555 1_555
N11 C53 1_555 1_555
N12 Mn8 1_555 1_555
C65 N12 1_555 1_555
C66 C65 1_555 1_555
C67 N11 1_555 1_555
C68 C67 1_555 1_555
H57 C68 1_555 1_555
H59 C68 1_555 1_555
C69 C65 1_555 1_555
H60 C69 1_555 1_555
H61 C69 1_555 1_555
H62 C69 1_555 1_555
C78 Mn3 1_555 1_555
O16 C78 1_555 1_555
O24 Mn8 1_555 1_555
C30 N6 1_555 1_555
N7 N8 1_555 1_555
C44 N8 1_555 1_555
C56 N10 1_555 1_555
N11 N12 1_555 1_555
C66 C67 1_555 1_555
H3 C5 1_555 1_555
H4 C5 1_555 1_555
H5 C5 1_555 1_555
C7 C3 1_555 1_555
C8 C7 1_555 1_555
H9 C8 1_555 1_555
C9 C8 1_555 1_555
H10 C9 1_555 1_555
C10 C9 1_555 1_555
C11 C10 1_555 1_555
H11 C11 1_555 1_555
C12 C7 1_555 1_555
H12 C12 1_555 1_555
O1 C24 1_555 1_555
C24 C10 1_555 1_555
O17 C24 1_555 1_555
C11 C12 1_555 1_555
H3_2 C5_2 1_555 1_555
H4_2 C5_2 1_555 1_555
H5_2 C5_2 1_555 1_555
C7_2 C3_2 1_555 1_555
C8_2 C7_2 1_555 1_555
H9_2 C8_2 1_555 1_555
C9_2 C8_2 1_555 1_555
H10_2 C9_2 1_555 1_555
C10_2 C9_2 1_555 1_555
C11_2 C10_2 1_555 1_555
H11_2 C11_2 1_555 1_555
C12_2 C7_2 1_555 1_555
H12_2 C12_2 1_555 1_555
O1_2 C24_2 1_555 1_555
C24_2 C10_2 1_555 1_555
O2 C24_2 1_555 1_555
Mn3_2 N6_2 1_555 1_555
C27_2 H23_2 1_555 1_555
H24_2 C27_2 1_555 1_555
N5_2 C27_2 1_555 1_555
N6_2 N5_2 1_555 1_555
C31_2 C30_2 1_555 1_555
H25_2 C31_2 1_555 1_555
H26_2 C31_2 1_555 1_555
H27_2 C31_2 1_555 1_555
C39_2 Mn3_2 1_555 1_555
O7_2 C39_2 1_555 1_555
C40_2 Mn3_2 1_555 1_555
O8_2 C40_2 1_555 1_555
O9_2 Mn3_2 1_555 1_555
N7_2 C27_2 1_555 1_555
N8_2 Mn3_2 1_555 1_555
C45_2 C44_2 1_555 1_555
H35_2 C45_2 1_555 1_555
H36_2 C45_2 1_555 1_555
H37_2 C45_2 1_555 1_555
Mn9 N10_2 1_555 1_555
C53_2 H45_2 1_555 1_555
H46_2 C53_2 1_555 1_555
N9_2 C53_2 1_555 1_555
C54_2 N9_2 1_555 1_555
N10_2 N9_2 1_555 1_555
C58_2 C56_2 1_555 1_555
H50_2 C58_2 1_555 1_555
H52_2 C58_2 1_555 1_555
N11_2 C53_2 1_555 1_555
N12_2 Mn9 1_555 1_555
C65_2 N12_2 1_555 1_555
C66_2 C65_2 1_555 1_555
C67_2 N11_2 1_555 1_555
C68_2 C67_2 1_555 1_555
H57_2 C68_2 1_555 1_555
H59_2 C68_2 1_555 1_555
C69_2 C65_2 1_555 1_555
H60_2 C69_2 1_555 1_555
H61_2 C69_2 1_555 1_555
H62_2 C69_2 1_555 1_555
C78_2 Mn3_2 1_555 1_555
O16_2 C78_2 1_555 1_555
Mn5 O2 1_555 1_555
O18 Mn9 1_555 1_555
O22 Mn9 1_555 1_555
Mn13 O2 1_555 1_555
C11_2 C12_2 1_555 1_555
C30_2 N6_2 1_555 1_555
N7_2 N8_2 1_555 1_555
C44_2 N8_2 1_555 1_555
C56_2 N10_2 1_555 1_555
N11_2 N12_2 1_555 1_555
C66_2 C67_2 1_555 1_555
O18 Mn13 1_555 1_555
C71_2 C70_2 1_555 1_555
H63_2 C71_2 1_555 1_555
C72_2 C71_2 1_555 1_555
H64_2 C72_2 1_555 1_555
C73_2 C72_2 1_555 1_555
C74_2 C73_2 1_555 1_555
H65_2 C74_2 1_555 1_555
C75_2 C70_2 1_555 1_555
H66_2 C75_2 1_555 1_555
O14 C77_2 1_555 1_555
C77_2 C73_2 1_555 1_555
O22 C77_2 1_555 1_555
Mn13 O14 1_555 1_555
C74_2 C75_2 1_555 1_555
C19_2 C18_2 1_555 1_555
H19_2 C19_2 1_555 1_555
C20_2 C19_2 1_555 1_555
H20_2 C20_2 1_555 1_555
C21_2 C20_2 1_555 1_555
C22_2 C21_2 1_555 1_555
H21_2 C22_2 1_555 1_555
C23_2 C18_2 1_555 1_555
H22_2 C23_2 1_555 1_555
O3 C25_2 1_555 1_555
C25_2 C21_2 1_555 1_555
O4 C25_2 1_555 1_555
Mn5 O4 1_555 1_555
Mn13 O3 1_555 1_555
C22_2 C23_2 1_555 1_555
Mn5 N2_2 1_555 1_555
C1_2 H1_2 1_555 1_555
H2_2 C1_2 1_555 1_555
N1_2 C1_2 1_555 1_555
C2_2 N1_2 1_555 1_555
N2_2 N1_2 1_555 1_555
C6_2 C4_2 1_555 1_555
H6_2 C6_2 1_555 1_555
H8_2 C6_2 1_555 1_555
N3_2 C1_2 1_555 1_555
N4_2 Mn5 1_555 1_555
C13_2 N4_2 1_555 1_555
C14_2 C13_2 1_555 1_555
C15_2 N3_2 1_555 1_555
C16_2 C15_2 1_555 1_555
H13_2 C16_2 1_555 1_555
H15_2 C16_2 1_555 1_555
C17_2 C13_2 1_555 1_555
H16_2 C17_2 1_555 1_555
H17_2 C17_2 1_555 1_555
H18_2 C17_2 1_555 1_555
Mn13 O5_2 1_555 1_555
O5_2 C26_2 1_555 1_555
C26_2 O6_2 1_555 1_555
O6_2 Mn5 1_555 1_555
C29_2 C28_2 1_555 1_555
C32_2 C28_2 1_555 1_555
H28_2 C32_2 1_555 1_555
H29_2 C32_2 1_555 1_555
H30_2 C32_2 1_555 1_555
C33_2 C29_2 1_555 1_555
C34_2 C33_2 1_555 1_555
H31_2 C34_2 1_555 1_555
C35_2 C34_2 1_555 1_555
H32_2 C35_2 1_555 1_555
C36_2 C26_2 1_555 1_555
C37_2 C36_2 1_555 1_555
H33_2 C37_2 1_555 1_555
C38_2 C33_2 1_555 1_555
O23 C41_2 1_555 1_555
C43_2 C42_2 1_555 1_555
C46_2 C42_2 1_555 1_555
H38_2 C46_2 1_555 1_555
H39_2 C46_2 1_555 1_555
H40_2 C46_2 1_555 1_555
C47_2 C43_2 1_555 1_555
C48_2 C47_2 1_555 1_555
H41_2 C48_2 1_555 1_555
C49_2 C48_2 1_555 1_555
H42_2 C49_2 1_555 1_555
C50_2 C41_2 1_555 1_555
C51_2 C50_2 1_555 1_555
H43_2 C51_2 1_555 1_555
C52_2 C47_2 1_555 1_555
H47_2 C57_2 1_555 1_555
H48_2 C57_2 1_555 1_555
H49_2 C57_2 1_555 1_555
C59_2 C55_2 1_555 1_555
C60_2 C59_2 1_555 1_555
H53_2 C60_2 1_555 1_555
C61_2 C60_2 1_555 1_555
H54_2 C61_2 1_555 1_555
C62_2 C61_2 1_555 1_555
C63_2 C62_2 1_555 1_555
H55_2 C63_2 1_555 1_555
C64_2 C59_2 1_555 1_555
H56_2 C64_2 1_555 1_555
O12_2 C76_2 1_555 1_555
C76_2 C62_2 1_555 1_555
C4_2 N2_2 1_555 1_555
N3_2 N4_2 1_555 1_555
C14_2 C15_2 1_555 1_555
C35_2 C36_2 1_555 1_555
C37_2 C38_2 1_555 1_555
C49_2 C50_2 1_555 1_555
C51_2 C52_2 1_555 1_555
C63_2 C64_2 1_555 1_555
C76_2 O18 1_555 1_555

#END
