
###############################################################################
#
# This file contains modified crystal structure data generated from the
# MOF subset of the Cambridge Structural Database (CSD) v543 
# hosted by the Cambridge Crystallographic Data Centre (CCDC).
#
# This work is licensed under the Creative Commons
# Attribution-NonCommercial-ShareAlike 4.0 International License.
# To view a copy of this license, visit
# http://creativecommons.org/licenses/by-nc-sa/4.0/
# or send a letter to
# Creative Commons, PO Box 1866, Mountain View, CA 94042, USA.
#
# CIF created using the CSD Python API on 29 September 2022
# The structure has been converted into the P1 space group
# The structure has a 3D framework
# The original CSD entry WIGQEL is in the monoclinic crystal system
# The framework has been calculated to contain at least 10.0% void space
# The void calculation uses a probe of radius 1.32A, grid spacing 0.4
#
###############################################################################

data_WIGQEL
_chemical_formula_moiety         '(C156 H132 Mn11 N30 O28)n'
_symmetry_cell_setting           triclinic
_symmetry_space_group_name_H-M   'P 1'
_symmetry_Int_Tables_number      1
_space_group_name_Hall           'P 1'
loop_
_symmetry_equiv_pos_site_id
_symmetry_equiv_pos_as_xyz
1 x,y,z
_cell_length_a                   12.418(3)
_cell_length_b                   32.716(7)
_cell_length_c                   12.989(3)
_cell_angle_alpha                90
_cell_angle_beta                 94.42(3)
_cell_angle_gamma                90
_cell_volume                     5261.31
loop_
_atom_site_label
_atom_site_type_symbol
_atom_site_fract_x
_atom_site_fract_y
_atom_site_fract_z
Mn6 Mn 0.5000 -0.0000 0.0000
Mn6_2 Mn 0.5000 0.0000 1.0000
Mn2 Mn 0.23448(9) 0.7500 0.19140(10)
N1 N 0.0674(3) 0.78621(10) 0.3253(3)
C5 C 0.0910(5) 0.7500 0.3859(5)
H2 H 0.1683 0.7500 0.4113
H3 H 0.0474 0.7500 0.4465
N2 N 0.1230(3) 0.79244(10) 0.2385(3)
C7 C 0.0769(3) 0.82505(12) 0.1920(4)
H4 H 0.0027 0.9179 0.3143
C12 C 0.1072(5) 0.84254(15) 0.0927(4)
H7 H 0.1850 0.8480 0.0971
H8 H 0.0677 0.8681 0.0787
H9 H 0.0888 0.8231 0.0367
O3 O 0.3791(5) 0.7500 0.3790(7)
N4 N 0.1400(7) 0.7500 0.0542(6)
O4 O 0.3829(5) 0.8114(2) 0.1166(7)
C14 C 0.3171(7) 0.7500 0.3124(10)
C15 C 0.3237(5) 0.7877(2) 0.1464(8)
H20 H 0.0960 0.9504 0.0155
N10 N 0.0674(3) 0.71379(10) 0.3253(3)
N11 N 0.1230(3) 0.70756(10) 0.2385(3)
C46 C 0.0769(3) 0.67495(12) 0.1920(4)
H36 H 0.0027 0.5821 0.3143
C51 C 0.1072(5) 0.65746(15) 0.0927(4)
H39 H 0.1850 0.6520 0.0971
H40 H 0.0677 0.6319 0.0787
H41 H 0.0888 0.6769 0.0367
O15 O 0.3829(5) 0.6886(2) 0.1166(7)
C78 C 0.3237(5) 0.7123(2) 0.1464(8)
O23 O 0.29044(19) 0.92672(8) 0.06191(17)
N3 N 0.1495(6) 0.7500 0.9652(6)
N5 N 0.1523(9) 0.7500 0.8691(9)
Mn3 Mn 0.29878(3) 0.92938(2) 0.90055(3)
N6 N 0.1385(2) 0.89764(8) 0.88164(19)
N7 N 0.1206(2) 0.86505(8) 0.8167(2)
N8 N 0.3001(2) 0.90900(8) 0.72947(19)
N9 N 0.2578(2) 0.87202(8) 0.6991(2)
C19 C 0.0412(2) 0.91141(9) 0.9007(2)
C20 C 0.3531(3) 0.94333(10) 0.1307(2)
O8 O 0.4239(2) 0.96893(8) 0.11632(19)
C23 C 0.3420(3) 0.93088(12) 0.2413(2)
C24 C 0.0135(3) 0.85798(10) 0.7957(3)
C25 C 0.4158(3) 0.92899(13) 0.4188(3)
H14 H 0.4734 0.9348 0.4691
C26 C 0.3316(3) 0.92648(10) 0.6446(2)
C28 C 0.3084(3) 0.90052(12) 0.5575(2)
C29 C 0.2141(3) 0.84631(9) 0.7765(2)
H16 H 0.1935 0.8195 0.7457
H17 H 0.2701 0.8416 0.8338
C30 C 0.3233(3) 0.90994(13) 0.4484(2)
C32 C 0.4251(3) 0.93977(13) 0.3160(3)
H19 H 0.4884 0.9532 0.2969
C33 C 0.2613(3) 0.86617(12) 0.5960(2)
C34 C 0.0294(3) 0.94698(11) 0.9707(3)
H22 H 0.0157 0.9718 0.9294
C35 C 0.3816(4) 0.96766(12) 0.6483(3)
H23 H 0.3618 0.9821 0.7101
H24 H 0.3558 0.9831 0.5866
H25 H 0.4604 0.9650 0.6505
C37 C 0.2505(3) 0.91142(15) 0.2703(3)
H29 H 0.1937 0.9052 0.2195
C38 C 0.2245(4) 0.82706(16) 0.5437(3)
H30 H 0.2444 0.8039 0.5890
H31 H 0.2592 0.8241 0.4788
H32 H 0.1459 0.8277 0.5291
C40 C 0.2403(3) 0.90093(16) 0.3719(3)
H34 H 0.1768 0.8875 0.3904
Mn6_3 Mn 0.5000 1.0000 0.0000
O17 O 0.23258(18) 0.98551(7) 0.85539(18)
O19 O 0.46923(17) 0.94602(7) 0.89565(17)
O21 O 0.44218(17) 0.87950(7) 0.90385(18)
Mn6_4 Mn 0.5000 1.0000 1.0000
O1 O 0.76742(18) 0.01449(7) 0.14461(18)
O11 O 0.53077(17) 0.05398(7) 0.10435(17)
O12 O 0.55782(17) 0.12050(7) 0.09615(18)
C53 C 0.2055(3) 0.06953(11) 0.1592(3)
H45 H 0.1618 0.0468 0.1744
C54 C 0.3795(2) 0.09739(10) 0.1260(3)
C55 C 0.4953(2) 0.09087(10) 0.1070(2)
C58 C 0.1587(2) 0.10818(10) 0.1467(3)
C59 C 0.0406(2) 0.11296(10) 0.1504(2)
C64 C 0.3154(3) 0.06393(10) 0.1496(3)
H47 H 0.3468 0.0376 0.1591
C68 C 0.2233(3) 0.14154(11) 0.1250(3)
H50 H 0.1921 0.1680 0.1164
C73 C 0.0271(3) 0.17590(14) 0.2736(3)
H58 H 0.0003 0.1722 0.3420
H59 H 0.1062 0.1757 0.2797
H60 H 0.0014 0.2021 0.2445
C76 C 0.3338(3) 0.13604(11) 0.1160(3)
H65 H 0.3779 0.1589 0.1029
Mn12 Mn 0.70122(3) 0.07062(2) 0.09945(3)
H53 H 0.0312 0.0579 0.9868
O18 O 0.3549(2) 0.02718(8) 0.9341(2)
O26 O 0.5761(2) 0.03107(8) 0.88368(19)
O2 O 0.6451(2) 0.97282(8) 0.0659(2)
C1 C 0.7307(3) 0.97965(10) 0.1198(2)
C2 C 0.7966(3) 0.94367(10) 0.1588(3)
C3 C 0.9240(3) 0.87629(11) 0.2223(3)
C4 C 0.8833(3) 0.94795(11) 0.2307(3)
H1 H 0.9010 0.9742 0.2585
C6 C 0.9943(3) 0.84053(11) 0.2493(3)
C8 C 0.9897(3) 0.81463(11) 0.3317(3)
C9 C 0.9447(3) 0.91441(12) 0.2629(3)
C10 C 0.7732(3) 0.90511(12) 0.1181(4)
H5 H 0.7130 0.9015 0.0692
C11 C 0.8371(4) 0.87184(12) 0.1482(4)
H6 H 0.8218 0.8458 0.1181
C13 C 0.9126(5) 0.81458(16) 0.4170(3)
H10 H 0.8865 0.7867 0.4272
H11 H 0.8511 0.8325 0.3975
H12 H 0.9503 0.8245 0.4812
H21 H 0.9688 0.9421 0.0132
O9 O 0.76742(18) 0.48551(7) 0.14461(18)
O10 O 0.6451(2) 0.52718(8) 0.0659(2)
C41 C 0.7307(3) 0.52035(10) 0.1198(2)
C42 C 0.7966(3) 0.55633(10) 0.1588(3)
C43 C 0.9240(3) 0.62371(11) 0.2223(3)
C44 C 0.8833(3) 0.55205(11) 0.2307(3)
H35 H 0.9010 0.5258 0.2585
C45 C 0.9943(3) 0.65947(11) 0.2493(3)
C47 C 0.9897(3) 0.68537(11) 0.3317(3)
C48 C 0.9447(3) 0.58559(12) 0.2629(3)
C49 C 0.7732(3) 0.59489(12) 0.1181(4)
H37 H 0.7130 0.5985 0.0692
C50 C 0.8371(4) 0.62816(12) 0.1482(4)
H38 H 0.8218 0.6542 0.1181
C52 C 0.9126(5) 0.68542(16) 0.4170(3)
H42 H 0.8865 0.7133 0.4272
H43 H 0.8511 0.6675 0.3975
H44 H 0.9503 0.6755 0.4812
Mn7 Mn 0.5000 0.5000 0.0000
Mn10 Mn 0.70122(3) 0.42938(2) 0.09945(3)
C16 C 0.7945(3) 0.93047(11) 0.8408(3)
H13 H 0.8382 0.9532 0.8256
C17 C 0.6205(2) 0.90261(10) 0.8740(3)
C18 C 0.5047(2) 0.90913(10) 0.8930(2)
C21 C 0.8413(2) 0.89182(10) 0.8533(3)
C22 C 0.9594(2) 0.88704(10) 0.8496(2)
C27 C 0.6846(3) 0.93607(10) 0.8504(3)
H15 H 0.6532 0.9624 0.8409
C31 C 0.7767(3) 0.85846(11) 0.8750(3)
H18 H 0.8079 0.8320 0.8836
C36 C 0.9729(3) 0.82410(14) 0.7264(3)
H26 H 0.9997 0.8278 0.6580
H27 H 0.8938 0.8243 0.7203
H28 H 0.9986 0.7979 0.7555
C39 C 0.6662(3) 0.86396(11) 0.8840(3)
H33 H 0.6221 0.8411 0.8971
Mn7_2 Mn 0.5000 0.5000 1.0000
N12 N 0.8615(2) 0.10236(8) 0.11836(19)
O13 O 0.70956(19) 0.07328(8) 0.93809(17)
N13 N 0.8794(2) 0.13495(8) 0.1833(2)
N14 N 0.6999(2) 0.09100(8) 0.27053(19)
N15 N 0.7422(2) 0.12798(8) 0.3009(2)
C56 C 0.9588(2) 0.08859(9) 0.0993(2)
C57 C 0.6469(3) 0.05667(10) 0.8693(2)
C60 C 0.6580(3) 0.06912(12) 0.7587(2)
C61 C 0.9865(3) 0.14202(10) 0.2043(3)
C62 C 0.5842(3) 0.07101(13) 0.5812(3)
H46 H 0.5266 0.0652 0.5309
C63 C 0.6684(3) 0.07352(10) 0.3554(2)
C65 C 0.6916(3) 0.09948(12) 0.4425(2)
C66 C 0.7859(3) 0.15369(9) 0.2235(2)
H48 H 0.8065 0.1805 0.2543
H49 H 0.7299 0.1584 0.1662
C67 C 0.6767(3) 0.09006(13) 0.5516(2)
C69 C 0.5749(3) 0.06023(13) 0.6840(3)
H51 H 0.5116 0.0468 0.7031
C70 C 0.7387(3) 0.13383(12) 0.4040(2)
C71 C 0.9706(3) 0.05302(11) 0.0293(3)
H54 H 0.9843 0.0282 0.0706
C72 C 0.6184(4) 0.03234(12) 0.3517(3)
H55 H 0.6382 0.0179 0.2899
H56 H 0.6442 0.0169 0.4134
H57 H 0.5396 0.0350 0.3495
C74 C 0.7495(3) 0.08858(15) 0.7297(3)
H61 H 0.8063 0.0948 0.7805
C75 C 0.7755(4) 0.17294(16) 0.4563(3)
H62 H 0.7556 0.1961 0.4110
H63 H 0.7408 0.1759 0.5212
H64 H 0.8541 0.1723 0.4709
C77 C 0.7597(3) 0.09907(16) 0.6281(3)
H66 H 0.8232 0.1125 0.6096
H52 H 0.9040 0.0496 0.9845
H52_2 H 0.0960 0.5496 0.0155
O24 O 0.29044(19) 0.57328(8) 0.06191(17)
Mn4 Mn 0.29878(3) 0.57062(2) 0.90055(3)
N12_2 N 0.1385(2) 0.60236(8) 0.88164(19)
N13_2 N 0.1206(2) 0.63495(8) 0.8167(2)
N14_2 N 0.3001(2) 0.59100(8) 0.72947(19)
N15_2 N 0.2578(2) 0.62798(8) 0.6991(2)
C56_2 C 0.0412(2) 0.58859(9) 0.9007(2)
C57_2 C 0.3531(3) 0.55667(10) 0.1307(2)
O14 O 0.4239(2) 0.53107(8) 0.11632(19)
C60_2 C 0.3420(3) 0.56912(12) 0.2413(2)
C61_2 C 0.0135(3) 0.64202(10) 0.7957(3)
C62_2 C 0.4158(3) 0.57101(13) 0.4188(3)
H46_2 H 0.4734 0.5652 0.4691
C63_2 C 0.3316(3) 0.57352(10) 0.6446(2)
C65_2 C 0.3084(3) 0.59948(12) 0.5575(2)
C66_2 C 0.2141(3) 0.65369(9) 0.7765(2)
H48_2 H 0.1935 0.6805 0.7457
H49_2 H 0.2701 0.6584 0.8338
C67_2 C 0.3233(3) 0.59006(13) 0.4484(2)
C69_2 C 0.4251(3) 0.56023(13) 0.3160(3)
H51_2 H 0.4884 0.5468 0.2969
C70_2 C 0.2613(3) 0.63383(12) 0.5960(2)
C71_2 C 0.0294(3) 0.55302(11) 0.9707(3)
H54_2 H 0.0157 0.5282 0.9294
C72_2 C 0.3816(4) 0.53234(12) 0.6483(3)
H55_2 H 0.3618 0.5179 0.7101
H56_2 H 0.3558 0.5169 0.5866
H57_2 H 0.4604 0.5350 0.6505
C74_2 C 0.2505(3) 0.58858(15) 0.2703(3)
H61_2 H 0.1937 0.5948 0.2195
C75_2 C 0.2245(4) 0.67294(16) 0.5437(3)
H62_2 H 0.2444 0.6961 0.5890
H63_2 H 0.2592 0.6759 0.4788
H64_2 H 0.1459 0.6723 0.5291
C77_2 C 0.2403(3) 0.59907(16) 0.3719(3)
H66_2 H 0.1768 0.6125 0.3904
O16 O 0.23258(18) 0.51449(7) 0.85539(18)
O20 O 0.46923(17) 0.55398(7) 0.89565(17)
O22 O 0.44218(17) 0.62050(7) 0.90385(18)
O5 O 0.53077(17) 0.44602(7) 0.10435(17)
O6 O 0.55782(17) 0.37950(7) 0.09615(18)
C16_2 C 0.2055(3) 0.43047(11) 0.1592(3)
H13_2 H 0.1618 0.4532 0.1744
C17_2 C 0.3795(2) 0.40261(10) 0.1260(3)
C18_2 C 0.4953(2) 0.40913(10) 0.1070(2)
C21_2 C 0.1587(2) 0.39182(10) 0.1467(3)
C22_2 C 0.0406(2) 0.38704(10) 0.1504(2)
C27_2 C 0.3154(3) 0.43607(10) 0.1496(3)
H15_2 H 0.3468 0.4624 0.1591
C31_2 C 0.2233(3) 0.35846(11) 0.1250(3)
H18_2 H 0.1921 0.3320 0.1164
C36_2 C 0.0271(3) 0.32410(14) 0.2736(3)
H26_2 H 0.0003 0.3278 0.3420
H27_2 H 0.1062 0.3243 0.2797
H28_2 H 0.0014 0.2979 0.2445
C39_2 C 0.3338(3) 0.36396(11) 0.1160(3)
H33_2 H 0.3779 0.3411 0.1029
H53_2 H 0.9688 0.5579 0.0132
O2_2 O 0.3549(2) 0.47282(8) 0.9341(2)
C1_2 C 0.2693(3) 0.47965(10) 0.8802(2)
C2_2 C 0.2034(3) 0.44367(10) 0.8412(3)
C3_2 C 0.0760(3) 0.37629(11) 0.7777(3)
C4_2 C 0.1167(3) 0.44795(11) 0.7693(3)
H1_2 H 0.0990 0.4742 0.7415
C6_2 C 0.0057(3) 0.34053(11) 0.7507(3)
C8_2 C 0.0103(3) 0.31463(11) 0.6683(3)
C9_2 C 0.0553(3) 0.41441(12) 0.7371(3)
C10_2 C 0.2268(3) 0.40511(12) 0.8819(4)
H5_2 H 0.2870 0.4015 0.9308
C11_2 C 0.1629(4) 0.37184(12) 0.8518(4)
H6_2 H 0.1782 0.3458 0.8819
C13_2 C 0.0874(5) 0.31458(16) 0.5830(3)
H10_2 H 0.1135 0.2867 0.5728
H11_2 H 0.1489 0.3325 0.6025
H12_2 H 0.0497 0.3245 0.5188
H21_2 H 0.0312 0.4421 0.9868
C41_2 C 0.2693(3) 0.02035(10) 0.8802(2)
C42_2 C 0.2034(3) 0.05633(10) 0.8412(3)
C43_2 C 0.0760(3) 0.12371(11) 0.7777(3)
C44_2 C 0.1167(3) 0.05205(11) 0.7693(3)
H35_2 H 0.0990 0.0258 0.7415
C45_2 C 0.0057(3) 0.15947(11) 0.7507(3)
C47_2 C 0.0103(3) 0.18537(11) 0.6683(3)
C48_2 C 0.0553(3) 0.08559(12) 0.7371(3)
C49_2 C 0.2268(3) 0.09489(12) 0.8819(4)
H37_2 H 0.2870 0.0985 0.9308
C50_2 C 0.1629(4) 0.12816(12) 0.8518(4)
H38_2 H 0.1782 0.1542 0.8819
C52_2 C 0.0874(5) 0.18542(16) 0.5830(3)
H42_2 H 0.1135 0.2133 0.5728
H43_2 H 0.1489 0.1675 0.6025
H44_2 H 0.0497 0.1755 0.5188
C53_2 C 0.7945(3) 0.56953(11) 0.8408(3)
H45_2 H 0.8382 0.5468 0.8256
C54_2 C 0.6205(2) 0.59739(10) 0.8740(3)
C55_2 C 0.5047(2) 0.59087(10) 0.8930(2)
C58_2 C 0.8413(2) 0.60818(10) 0.8533(3)
C59_2 C 0.9594(2) 0.61296(10) 0.8496(2)
C64_2 C 0.6846(3) 0.56393(10) 0.8504(3)
H47_2 H 0.6532 0.5376 0.8409
C68_2 C 0.7767(3) 0.64154(11) 0.8750(3)
H50_2 H 0.8079 0.6680 0.8836
C73_2 C 0.9729(3) 0.67590(14) 0.7264(3)
H58_2 H 0.9997 0.6722 0.6580
H59_2 H 0.8938 0.6757 0.7203
H60_2 H 0.9986 0.7021 0.7555
C76_2 C 0.6662(3) 0.63604(11) 0.8840(3)
H65_2 H 0.6221 0.6589 0.8971
O25 O 0.5761(2) 0.46893(8) 0.88368(19)
N3_2 N 0.8505(6) 0.2500 0.0348(6)
N5_2 N 0.8477(9) 0.2500 0.1309(9)
N6_2 N 0.8615(2) 0.39764(8) 0.11836(19)
O7 O 0.70956(19) 0.42672(8) 0.93809(17)
N7_2 N 0.8794(2) 0.36505(8) 0.1833(2)
N8_2 N 0.6999(2) 0.40900(8) 0.27053(19)
N9_2 N 0.7422(2) 0.37202(8) 0.3009(2)
C19_2 C 0.9588(2) 0.41141(9) 0.0993(2)
C20_2 C 0.6469(3) 0.44333(10) 0.8693(2)
C23_2 C 0.6580(3) 0.43088(12) 0.7587(2)
C24_2 C 0.9865(3) 0.35798(10) 0.2043(3)
C25_2 C 0.5842(3) 0.42899(13) 0.5812(3)
H14_2 H 0.5266 0.4348 0.5309
C26_2 C 0.6684(3) 0.42648(10) 0.3554(2)
C28_2 C 0.6916(3) 0.40052(12) 0.4425(2)
C29_2 C 0.7859(3) 0.34631(9) 0.2235(2)
H16_2 H 0.8065 0.3195 0.2543
H17_2 H 0.7299 0.3416 0.1662
C30_2 C 0.6767(3) 0.40994(13) 0.5516(2)
C32_2 C 0.5749(3) 0.43977(13) 0.6840(3)
H19_2 H 0.5116 0.4532 0.7031
C33_2 C 0.7387(3) 0.36617(12) 0.4040(2)
C34_2 C 0.9706(3) 0.44698(11) 0.0293(3)
H22_2 H 0.9843 0.4718 0.0706
C35_2 C 0.6184(4) 0.46766(12) 0.3517(3)
H23_2 H 0.6382 0.4821 0.2899
H24_2 H 0.6442 0.4831 0.4134
H25_2 H 0.5396 0.4650 0.3495
C37_2 C 0.7495(3) 0.41142(15) 0.7297(3)
H29_2 H 0.8063 0.4052 0.7805
C38_2 C 0.7755(4) 0.32706(16) 0.4563(3)
H30_2 H 0.7556 0.3039 0.4110
H31_2 H 0.7408 0.3241 0.5212
H32_2 H 0.8541 0.3277 0.4709
C40_2 C 0.7597(3) 0.40093(16) 0.6281(3)
H34_2 H 0.8232 0.3875 0.6096
Mn2_2 Mn 0.76552(9) 0.2500 0.80860(10)
N1_2 N 0.9326(3) 0.28621(10) 0.6747(3)
C5_2 C 0.9090(5) 0.2500 0.6141(5)
H2_2 H 0.8317 0.2500 0.5887
H3_2 H 0.9526 0.2500 0.5535
N2_2 N 0.8770(3) 0.29244(10) 0.7615(3)
C7_2 C 0.9231(3) 0.32505(12) 0.8080(4)
H4_2 H 0.9973 0.4179 0.6857
C12_2 C 0.8928(5) 0.34254(15) 0.9073(4)
H7_2 H 0.8150 0.3480 0.9029
H8_2 H 0.9323 0.3681 0.9213
H9_2 H 0.9112 0.3231 0.9633
O3_2 O 0.6209(5) 0.2500 0.6210(7)
N4_2 N 0.8600(7) 0.2500 0.9458(6)
O4_2 O 0.6171(5) 0.3114(2) 0.8834(7)
C14_2 C 0.6829(7) 0.2500 0.6876(10)
C15_2 C 0.6763(5) 0.2877(2) 0.8536(8)
H20_2 H 0.9040 0.4504 0.9845
N10_2 N 0.9326(3) 0.21379(10) 0.6747(3)
N11_2 N 0.8770(3) 0.20756(10) 0.7615(3)
C46_2 C 0.9231(3) 0.17495(12) 0.8080(4)
H36_2 H 0.9973 0.0821 0.6857
C51_2 C 0.8928(5) 0.15746(15) 0.9073(4)
H39_2 H 0.8150 0.1520 0.9029
H40_2 H 0.9323 0.1319 0.9213
H41_2 H 0.9112 0.1769 0.9633
O15_2 O 0.6171(5) 0.1886(2) 0.8834(7)
C78_2 C 0.6763(5) 0.2123(2) 0.8536(8)
loop_
_geom_bond_atom_site_label_1
_geom_bond_atom_site_label_2
_geom_bond_site_symmetry_1
_geom_bond_site_symmetry_2
Mn2 N2 1_555 1_555
N1 C5 1_555 1_555
C5 H2 1_555 1_555
H3 C5 1_555 1_555
N2 N1 1_555 1_555
C7 N2 1_555 1_555
C12 C7 1_555 1_555
H7 C12 1_555 1_555
H8 C12 1_555 1_555
H9 C12 1_555 1_555
O3 C14 1_555 1_555
N4 Mn2 1_555 1_555
O4 C15 1_555 1_555
C14 Mn2 1_555 1_555
C15 Mn2 1_555 1_555
N10 C5 1_555 1_555
N11 Mn2 1_555 1_555
C46 N11 1_555 1_555
C51 C46 1_555 1_555
H39 C51 1_555 1_555
H40 C51 1_555 1_555
H41 C51 1_555 1_555
O15 C78 1_555 1_555
C78 Mn2 1_555 1_555
N10 N11 1_555 1_555
N5 N3 1_555 1_555
Mn3 N6 1_555 1_555
N6 N7 1_555 1_555
O23 C20 1_555 1_555
N7 C24 1_555 1_555
N8 Mn3 1_555 1_555
N9 N8 1_555 1_555
C19 N6 1_555 1_555
C20 O8 1_555 1_555
O8 Mn6_3 1_555 1_555
C23 C20 1_555 1_555
C25 H14 1_555 1_555
C26 N8 1_555 1_555
C28 C26 1_555 1_555
C29 N7 1_555 1_555
H16 C29 1_555 1_555
H17 C29 1_555 1_555
C30 C25 1_555 1_555
C32 C23 1_555 1_555
H19 C32 1_555 1_555
C33 N9 1_555 1_555
C34 C19 1_555 1_555
H22 C34 1_555 1_555
C35 C26 1_555 1_555
H23 C35 1_555 1_555
H24 C35 1_555 1_555
H25 C35 1_555 1_555
C37 C23 1_555 1_555
H29 C37 1_555 1_555
C38 C33 1_555 1_555
H30 C38 1_555 1_555
H31 C38 1_555 1_555
H32 C38 1_555 1_555
C40 C30 1_555 1_555
H34 C40 1_555 1_555
O17 Mn3 1_555 1_555
O19 Mn3 1_555 1_555
O21 Mn3 1_555 1_555
N9 C29 1_555 1_555
C25 C32 1_555 1_555
C28 C30 1_555 1_555
C28 C33 1_555 1_555
C37 C40 1_555 1_555
O11 Mn6 1_555 1_555
O12 C55 1_555 1_555
C53 H45 1_555 1_555
C54 C55 1_555 1_555
C55 O11 1_555 1_555
C58 C53 1_555 1_555
C64 C53 1_555 1_555
H47 C64 1_555 1_555
C68 C58 1_555 1_555
H50 C68 1_555 1_555
H58 C73 1_555 1_555
H59 C73 1_555 1_555
H60 C73 1_555 1_555
C76 C54 1_555 1_555
H65 C76 1_555 1_555
Mn12 O1 1_555 1_555
O11 Mn12 1_555 1_555
O12 Mn12 1_555 1_555
C54 C64 1_555 1_555
C58 C59 1_555 1_555
C68 C76 1_555 1_555
O18 Mn6_2 1_555 1_555
O26 Mn6_2 1_555 1_555
Mn6_3 O2 1_555 1_555
O2 C1 1_555 1_555
C1 C2 1_555 1_555
C2 C4 1_555 1_555
C3 C6 1_555 1_555
C4 H1 1_555 1_555
C9 C3 1_555 1_555
C10 C2 1_555 1_555
H5 C10 1_555 1_555
C11 C3 1_555 1_555
H6 C11 1_555 1_555
C13 C8 1_555 1_555
H10 C13 1_555 1_555
H11 C13 1_555 1_555
H12 C13 1_555 1_555
O9 C41 1_555 1_555
O10 C41 1_555 1_555
C41 C42 1_555 1_555
C42 C44 1_555 1_555
C43 C45 1_555 1_555
C44 H35 1_555 1_555
C48 C43 1_555 1_555
C49 C42 1_555 1_555
H37 C49 1_555 1_555
C50 C43 1_555 1_555
H38 C50 1_555 1_555
C52 C47 1_555 1_555
H42 C52 1_555 1_555
H43 C52 1_555 1_555
H44 C52 1_555 1_555
Mn7 O10 1_555 1_555
Mn10 O9 1_555 1_555
C4 C9 1_555 1_555
C6 C8 1_555 1_555
C10 C11 1_555 1_555
C44 C48 1_555 1_555
C45 C47 1_555 1_555
C49 C50 1_555 1_555
O19 Mn6_4 1_555 1_555
O21 C18 1_555 1_555
C16 H13 1_555 1_555
C17 C18 1_555 1_555
C18 O19 1_555 1_555
C21 C16 1_555 1_555
C27 C16 1_555 1_555
H15 C27 1_555 1_555
C31 C21 1_555 1_555
H18 C31 1_555 1_555
H26 C36 1_555 1_555
H27 C36 1_555 1_555
H28 C36 1_555 1_555
C39 C17 1_555 1_555
H33 C39 1_555 1_555
C17 C27 1_555 1_555
C21 C22 1_555 1_555
C31 C39 1_555 1_555
Mn12 N12 1_555 1_555
N12 N13 1_555 1_555
O13 C57 1_555 1_555
N13 C61 1_555 1_555
N14 Mn12 1_555 1_555
N15 N14 1_555 1_555
C56 N12 1_555 1_555
C57 O26 1_555 1_555
C60 C57 1_555 1_555
C62 H46 1_555 1_555
C63 N14 1_555 1_555
C65 C63 1_555 1_555
C66 N13 1_555 1_555
H48 C66 1_555 1_555
H49 C66 1_555 1_555
C67 C62 1_555 1_555
C69 C60 1_555 1_555
H51 C69 1_555 1_555
C70 N15 1_555 1_555
C71 C56 1_555 1_555
H54 C71 1_555 1_555
C72 C63 1_555 1_555
H55 C72 1_555 1_555
H56 C72 1_555 1_555
H57 C72 1_555 1_555
C74 C60 1_555 1_555
H61 C74 1_555 1_555
C75 C70 1_555 1_555
H62 C75 1_555 1_555
H63 C75 1_555 1_555
H64 C75 1_555 1_555
C77 C67 1_555 1_555
H66 C77 1_555 1_555
N15 C66 1_555 1_555
C62 C69 1_555 1_555
C65 C67 1_555 1_555
C65 C70 1_555 1_555
C74 C77 1_555 1_555
Mn4 N12_2 1_555 1_555
N12_2 N13_2 1_555 1_555
O24 C57_2 1_555 1_555
N13_2 C61_2 1_555 1_555
N14_2 Mn4 1_555 1_555
N15_2 N14_2 1_555 1_555
C56_2 N12_2 1_555 1_555
C57_2 O14 1_555 1_555
O14 Mn7 1_555 1_555
C60_2 C57_2 1_555 1_555
C62_2 H46_2 1_555 1_555
C63_2 N14_2 1_555 1_555
C65_2 C63_2 1_555 1_555
C66_2 N13_2 1_555 1_555
H48_2 C66_2 1_555 1_555
H49_2 C66_2 1_555 1_555
C67_2 C62_2 1_555 1_555
C69_2 C60_2 1_555 1_555
H51_2 C69_2 1_555 1_555
C70_2 N15_2 1_555 1_555
C71_2 C56_2 1_555 1_555
H54_2 C71_2 1_555 1_555
C72_2 C63_2 1_555 1_555
H55_2 C72_2 1_555 1_555
H56_2 C72_2 1_555 1_555
H57_2 C72_2 1_555 1_555
C74_2 C60_2 1_555 1_555
H61_2 C74_2 1_555 1_555
C75_2 C70_2 1_555 1_555
H62_2 C75_2 1_555 1_555
H63_2 C75_2 1_555 1_555
H64_2 C75_2 1_555 1_555
C77_2 C67_2 1_555 1_555
H66_2 C77_2 1_555 1_555
O16 Mn4 1_555 1_555
O20 Mn4 1_555 1_555
O22 Mn4 1_555 1_555
N15_2 C66_2 1_555 1_555
C62_2 C69_2 1_555 1_555
C65_2 C67_2 1_555 1_555
C65_2 C70_2 1_555 1_555
C74_2 C77_2 1_555 1_555
O5 Mn7 1_555 1_555
O6 C18_2 1_555 1_555
C16_2 H13_2 1_555 1_555
C17_2 C18_2 1_555 1_555
C18_2 O5 1_555 1_555
C21_2 C16_2 1_555 1_555
C27_2 C16_2 1_555 1_555
H15_2 C27_2 1_555 1_555
C31_2 C21_2 1_555 1_555
H18_2 C31_2 1_555 1_555
H26_2 C36_2 1_555 1_555
H27_2 C36_2 1_555 1_555
H28_2 C36_2 1_555 1_555
C39_2 C17_2 1_555 1_555
H33_2 C39_2 1_555 1_555
Mn10 O5 1_555 1_555
O6 Mn10 1_555 1_555
C17_2 C27_2 1_555 1_555
C21_2 C22_2 1_555 1_555
C31_2 C39_2 1_555 1_555
Mn7_2 O2_2 1_555 1_555
O16 C1_2 1_555 1_555
O2_2 C1_2 1_555 1_555
C1_2 C2_2 1_555 1_555
C2_2 C4_2 1_555 1_555
C3_2 C6_2 1_555 1_555
C4_2 H1_2 1_555 1_555
C9_2 C3_2 1_555 1_555
C10_2 C2_2 1_555 1_555
H5_2 C10_2 1_555 1_555
C11_2 C3_2 1_555 1_555
H6_2 C11_2 1_555 1_555
C13_2 C8_2 1_555 1_555
H10_2 C13_2 1_555 1_555
H11_2 C13_2 1_555 1_555
H12_2 C13_2 1_555 1_555
O18 C41_2 1_555 1_555
C41_2 C42_2 1_555 1_555
C42_2 C44_2 1_555 1_555
C43_2 C45_2 1_555 1_555
C44_2 H35_2 1_555 1_555
C48_2 C43_2 1_555 1_555
C49_2 C42_2 1_555 1_555
H37_2 C49_2 1_555 1_555
C50_2 C43_2 1_555 1_555
H38_2 C50_2 1_555 1_555
C52_2 C47_2 1_555 1_555
H42_2 C52_2 1_555 1_555
H43_2 C52_2 1_555 1_555
H44_2 C52_2 1_555 1_555
O20 Mn7_2 1_555 1_555
O22 C55_2 1_555 1_555
C53_2 H45_2 1_555 1_555
C54_2 C55_2 1_555 1_555
C55_2 O20 1_555 1_555
C58_2 C53_2 1_555 1_555
C64_2 C53_2 1_555 1_555
H47_2 C64_2 1_555 1_555
C68_2 C58_2 1_555 1_555
H50_2 C68_2 1_555 1_555
H58_2 C73_2 1_555 1_555
H59_2 C73_2 1_555 1_555
H60_2 C73_2 1_555 1_555
C76_2 C54_2 1_555 1_555
H65_2 C76_2 1_555 1_555
O25 Mn7_2 1_555 1_555
C4_2 C9_2 1_555 1_555
C6_2 C8_2 1_555 1_555
C10_2 C11_2 1_555 1_555
C44_2 C48_2 1_555 1_555
C45_2 C47_2 1_555 1_555
C49_2 C50_2 1_555 1_555
C54_2 C64_2 1_555 1_555
C58_2 C59_2 1_555 1_555
C68_2 C76_2 1_555 1_555
N5_2 N3_2 1_555 1_555
Mn10 N6_2 1_555 1_555
N6_2 N7_2 1_555 1_555
O7 C20_2 1_555 1_555
N7_2 C24_2 1_555 1_555
N8_2 Mn10 1_555 1_555
N9_2 N8_2 1_555 1_555
C19_2 N6_2 1_555 1_555
C20_2 O25 1_555 1_555
C23_2 C20_2 1_555 1_555
C25_2 H14_2 1_555 1_555
C26_2 N8_2 1_555 1_555
C28_2 C26_2 1_555 1_555
C29_2 N7_2 1_555 1_555
H16_2 C29_2 1_555 1_555
H17_2 C29_2 1_555 1_555
C30_2 C25_2 1_555 1_555
C32_2 C23_2 1_555 1_555
H19_2 C32_2 1_555 1_555
C33_2 N9_2 1_555 1_555
C34_2 C19_2 1_555 1_555
H22_2 C34_2 1_555 1_555
C35_2 C26_2 1_555 1_555
H23_2 C35_2 1_555 1_555
H24_2 C35_2 1_555 1_555
H25_2 C35_2 1_555 1_555
C37_2 C23_2 1_555 1_555
H29_2 C37_2 1_555 1_555
C38_2 C33_2 1_555 1_555
H30_2 C38_2 1_555 1_555
H31_2 C38_2 1_555 1_555
H32_2 C38_2 1_555 1_555
C40_2 C30_2 1_555 1_555
H34_2 C40_2 1_555 1_555
N9_2 C29_2 1_555 1_555
C25_2 C32_2 1_555 1_555
C28_2 C30_2 1_555 1_555
C28_2 C33_2 1_555 1_555
C37_2 C40_2 1_555 1_555
Mn2_2 N2_2 1_555 1_555
N1_2 C5_2 1_555 1_555
C5_2 H2_2 1_555 1_555
H3_2 C5_2 1_555 1_555
N2_2 N1_2 1_555 1_555
C7_2 N2_2 1_555 1_555
C12_2 C7_2 1_555 1_555
H7_2 C12_2 1_555 1_555
H8_2 C12_2 1_555 1_555
H9_2 C12_2 1_555 1_555
O3_2 C14_2 1_555 1_555
N4_2 Mn2_2 1_555 1_555
O4_2 C15_2 1_555 1_555
C14_2 Mn2_2 1_555 1_555
C15_2 Mn2_2 1_555 1_555
N10_2 C5_2 1_555 1_555
N11_2 Mn2_2 1_555 1_555
C46_2 N11_2 1_555 1_555
C51_2 C46_2 1_555 1_555
H39_2 C51_2 1_555 1_555
H40_2 C51_2 1_555 1_555
H41_2 C51_2 1_555 1_555
O15_2 C78_2 1_555 1_555
C78_2 Mn2_2 1_555 1_555
N10_2 N11_2 1_555 1_555

#END
