
###############################################################################
#
# This file contains modified crystal structure data generated from the
# MOF subset of the Cambridge Structural Database (CSD) v543 
# hosted by the Cambridge Crystallographic Data Centre (CCDC).
#
# This work is licensed under the Creative Commons
# Attribution-NonCommercial-ShareAlike 4.0 International License.
# To view a copy of this license, visit
# http://creativecommons.org/licenses/by-nc-sa/4.0/
# or send a letter to
# Creative Commons, PO Box 1866, Mountain View, CA 94042, USA.
#
# CIF created using the CSD Python API on 29 September 2022
# The structure has been converted into the P1 space group
# The structure has a 3D framework
# The original CSD entry WIHHAZ is in the cubic crystal system
# The framework has been calculated to contain at least 10.0% void space
# The void calculation uses a probe of radius 1.32A, grid spacing 0.4
# H atom positions have been added when not included in the experimental data
# Generated hydrogen atom positions removed from atoms on special positions
#
###############################################################################

data_WIHHAZ
_chemical_formula_moiety         '(C1728 H1536 Cl108 N384 O1056 Tb144 148-)n'
_symmetry_cell_setting           triclinic
_symmetry_space_group_name_H-M   'P 1'
_symmetry_Int_Tables_number      1
_space_group_name_Hall           'P 1'
loop_
_symmetry_equiv_pos_site_id
_symmetry_equiv_pos_as_xyz
1 x,y,z
_cell_length_a                   54.8796(9)
_cell_length_b                   54.8796(9)
_cell_length_c                   54.8796(9)
_cell_angle_alpha                90
_cell_angle_beta                 90
_cell_angle_gamma                90
_cell_volume                     165285
loop_
_atom_site_label
_atom_site_type_symbol
_atom_site_fract_x
_atom_site_fract_y
_atom_site_fract_z
Cl1 Cl 0.500000 0.500000 0.31148(3)
Cl1_2 Cl 0.500000 0.500000 0.68852(3)
Cl1_3 Cl 0.31148(3) 0.500000 0.500000
Cl1_4 Cl 0.68852(3) 0.500000 0.500000
Cl1_5 Cl 0.500000 0.31148(3) 0.500000
Cl1_6 Cl 0.500000 0.68852(3) 0.500000
Cl1_7 Cl 0.000000 -0.000000 0.18852(3)
Cl1_8 Cl -0.000000 1.000000 0.18852(3)
Cl1_9 Cl 1.000000 -0.000000 0.18852(3)
Cl1_10 Cl 1.000000 1.000000 0.18852(3)
Cl1_11 Cl -0.000000 0.000000 0.81148(3)
Cl1_12 Cl -0.000000 1.000000 0.81148(3)
Cl1_13 Cl 1.000000 0.000000 0.81148(3)
Cl1_14 Cl 1.000000 1.000000 0.81148(3)
Cl1_15 Cl -0.000000 0.81148(3) 0.000000
Cl1_16 Cl -0.000000 0.81148(3) 1.000000
Cl1_17 Cl 1.000000 0.81148(3) 0.000000
Cl1_18 Cl 1.000000 0.81148(3) 1.000000
Cl1_19 Cl 0.000000 0.18852(3) 0.000000
Cl1_20 Cl 0.000000 0.18852(3) 1.000000
Cl1_21 Cl 1.000000 0.18852(3) 0.000000
Cl1_22 Cl 1.000000 0.18852(3) 1.000000
Cl1_23 Cl 0.81148(3) 0.000000 0.000000
Cl1_24 Cl 0.81148(3) 0.000000 1.000000
Cl1_25 Cl 0.81148(3) 1.000000 0.000000
Cl1_26 Cl 0.81148(3) 1.000000 1.000000
Cl1_27 Cl 0.18852(3) 0.000000 -0.000000
Cl1_28 Cl 0.18852(3) 0.000000 1.000000
Cl1_29 Cl 0.18852(3) 1.000000 -0.000000
Cl1_30 Cl 0.18852(3) 1.000000 1.000000
Cl1_31 Cl 0.500000 0.000000 0.81148(3)
Cl1_32 Cl 0.500000 1.000000 0.81148(3)
Cl1_33 Cl 0.500000 0.000000 0.18852(3)
Cl1_34 Cl 0.500000 1.000000 0.18852(3)
Cl1_35 Cl 0.31148(3) -0.000000 0.000000
Cl1_36 Cl 0.31148(3) -0.000000 1.000000
Cl1_37 Cl 0.31148(3) 1.000000 0.000000
Cl1_38 Cl 0.31148(3) 1.000000 1.000000
Cl1_39 Cl 0.68852(3) 0.000000 0.000000
Cl1_40 Cl 0.68852(3) 0.000000 1.000000
Cl1_41 Cl 0.68852(3) 1.000000 0.000000
Cl1_42 Cl 0.68852(3) 1.000000 1.000000
Cl1_43 Cl 0.500000 0.81148(3) -0.000000
Cl1_44 Cl 0.500000 0.81148(3) 1.000000
Cl1_45 Cl 0.500000 0.18852(3) 0.000000
Cl1_46 Cl 0.500000 0.18852(3) 1.000000
Cl1_47 Cl -0.000000 0.500000 0.68852(3)
Cl1_48 Cl 1.000000 0.500000 0.68852(3)
Cl1_49 Cl 0.000000 0.500000 0.31148(3)
Cl1_50 Cl 1.000000 0.500000 0.31148(3)
Cl1_51 Cl -0.000000 0.31148(3) 0.500000
Cl1_52 Cl 1.000000 0.31148(3) 0.500000
Cl1_53 Cl 0.000000 0.68852(3) 0.500000
Cl1_54 Cl 1.000000 0.68852(3) 0.500000
Cl1_55 Cl 0.81148(3) 0.500000 0.500000
Cl1_56 Cl 0.18852(3) 0.500000 0.500000
Cl1_57 Cl -0.000000 0.500000 0.81148(3)
Cl1_58 Cl 1.000000 0.500000 0.81148(3)
Cl1_59 Cl 0.000000 0.500000 0.18852(3)
Cl1_60 Cl 1.000000 0.500000 0.18852(3)
Cl1_61 Cl 0.81148(3) 0.500000 0.000000
Cl1_62 Cl 0.81148(3) 0.500000 1.000000
Cl1_63 Cl 0.18852(3) 0.500000 0.000000
Cl1_64 Cl 0.18852(3) 0.500000 1.000000
Cl1_65 Cl 0.000000 0.31148(3) -0.000000
Cl1_66 Cl 0.000000 0.31148(3) 1.000000
Cl1_67 Cl 1.000000 0.31148(3) -0.000000
Cl1_68 Cl 1.000000 0.31148(3) 1.000000
Cl1_69 Cl -0.000000 0.68852(3) 0.000000
Cl1_70 Cl 0.000000 0.68852(3) 1.000000
Cl1_71 Cl 1.000000 0.68852(3) 0.000000
Cl1_72 Cl 1.000000 0.68852(3) 1.000000
Cl1_73 Cl 0.500000 -0.000000 0.68852(3)
Cl1_74 Cl 0.500000 1.000000 0.68852(3)
Cl1_75 Cl 0.500000 0.000000 0.31148(3)
Cl1_76 Cl 0.500000 1.000000 0.31148(3)
Cl1_77 Cl 0.500000 0.81148(3) 0.500000
Cl1_78 Cl 0.500000 0.18852(3) 0.500000
Cl1_79 Cl 0.31148(3) 0.000000 0.500000
Cl1_80 Cl 0.31148(3) 1.000000 0.500000
Cl1_81 Cl 0.68852(3) -0.000000 0.500000
Cl1_82 Cl 0.68852(3) 1.000000 0.500000
Cl1_83 Cl -0.000000 0.000000 0.31148(3)
Cl1_84 Cl -0.000000 1.000000 0.31148(3)
Cl1_85 Cl 1.000000 0.000000 0.31148(3)
Cl1_86 Cl 1.000000 1.000000 0.31148(3)
Cl1_87 Cl 0.000000 0.000000 0.68852(3)
Cl1_88 Cl 0.000000 1.000000 0.68852(3)
Cl1_89 Cl 1.000000 0.000000 0.68852(3)
Cl1_90 Cl 1.000000 1.000000 0.68852(3)
Cl1_91 Cl 0.81148(3) -0.000000 0.500000
Cl1_92 Cl 0.81148(3) 1.000000 0.500000
Cl1_93 Cl 0.18852(3) 0.000000 0.500000
Cl1_94 Cl 0.18852(3) 1.000000 0.500000
Cl1_95 Cl -0.000000 0.81148(3) 0.500000
Cl1_96 Cl 1.000000 0.81148(3) 0.500000
Cl1_97 Cl 0.000000 0.18852(3) 0.500000
Cl1_98 Cl 1.000000 0.18852(3) 0.500000
Cl1_99 Cl 0.500000 0.500000 0.18852(3)
Cl1_100 Cl 0.500000 0.500000 0.81148(3)
Cl1_101 Cl 0.500000 0.31148(3) 0.000000
Cl1_102 Cl 0.500000 0.31148(3) 1.000000
Cl1_103 Cl 0.500000 0.68852(3) 0.000000
Cl1_104 Cl 0.500000 0.68852(3) 1.000000
Cl1_105 Cl 0.31148(3) 0.500000 0.000000
Cl1_106 Cl 0.31148(3) 0.500000 1.000000
Cl1_107 Cl 0.68852(3) 0.500000 -0.000000
Cl1_108 Cl 0.68852(3) 0.500000 1.000000
Tb1 Tb 0.39942(2) 0.500000 0.25405(2)
O1 O 0.39047(9) 0.53032(7) 0.27963(7)
O2 O 0.47007(7) 0.57330(7) 0.26499(6)
O3 O 0.35523(13) 0.500000 0.25157(11)
O4 O 0.47183(8) 0.61147(9) 0.27782(8)
O5 O 0.36707(10) 0.54171(9) 0.31013(10)
O6 O 0.43520(13) 0.500000 0.27798(10)
C1 C 0.46153(11) 0.59110(11) 0.27752(9)
C2 C 0.42347(11) 0.56753(11) 0.28775(9)
H1 H 0.427736 0.555468 0.276092
C3 C 0.38543(13) 0.54440(11) 0.29671(11)
C4 C 0.40191(13) 0.56555(13) 0.30095(12)
C5 C 0.43857(13) 0.58722(12) 0.29180(11)
C6 C 0.43266(16) 0.60455(15) 0.30903(14)
H2 H 0.443229 0.618006 0.311648
N1 N 0.39402(17) 0.64127(17) 0.37295(18)
N2 N 0.40801(17) 0.61992(17) 0.34042(17)
H3 H 0.418650 0.631909 0.340179
C7 C 0.39618(18) 0.58186(17) 0.31881(17)
H4 H 0.382133 0.579435 0.328639
C8 C 0.3910(2) 0.6215(2) 0.3581(2)
C9 C 0.4113(2) 0.60248(19) 0.32263(19)
O7 O 0.27963(7) 0.60953(9) 0.46968(7)
O8 O 0.26499(6) 0.52993(7) 0.42670(7)
O9 O 0.27782(8) 0.52817(8) 0.38853(9)
O10 O 0.31013(10) 0.63293(10) 0.45829(9)
C10 C 0.27752(9) 0.53847(11) 0.40890(11)
C11 C 0.28775(9) 0.57653(11) 0.43247(11)
H5 H 0.276092 0.572264 0.444532
C12 C 0.29671(11) 0.61457(13) 0.45560(11)
C13 C 0.30095(12) 0.59809(13) 0.43445(13)
C14 C 0.29180(11) 0.56143(13) 0.41278(12)
C15 C 0.30903(14) 0.56734(16) 0.39545(15)
H6 H 0.311648 0.556771 0.381994
N3 N 0.37295(18) 0.60598(17) 0.35873(17)
N4 N 0.34042(17) 0.59199(17) 0.38008(17)
H7 H 0.340179 0.581350 0.368091
C16 C 0.31881(17) 0.60382(18) 0.41814(17)
H8 H 0.328639 0.617867 0.420565
C17 C 0.3581(2) 0.6090(2) 0.3785(2)
C18 C 0.32263(19) 0.5887(2) 0.39752(19)
O11 O 0.46968(7) 0.72037(7) 0.39047(9)
O12 O 0.42670(7) 0.73501(6) 0.47007(7)
O13 O 0.38853(9) 0.72218(8) 0.47183(8)
O14 O 0.45829(9) 0.68987(10) 0.36707(10)
C19 C 0.40890(11) 0.72248(9) 0.46153(11)
C20 C 0.43247(11) 0.71225(9) 0.42347(11)
H9 H 0.444532 0.723908 0.427736
C21 C 0.45560(11) 0.70329(11) 0.38543(13)
C22 C 0.43445(13) 0.69905(12) 0.40191(13)
C23 C 0.41278(12) 0.70820(11) 0.43857(13)
C24 C 0.39545(15) 0.69097(14) 0.43266(16)
H10 H 0.381994 0.688352 0.443229
N5 N 0.35873(17) 0.62705(18) 0.39402(17)
N6 N 0.38008(17) 0.65958(17) 0.40801(17)
H11 H 0.368091 0.659821 0.418650
C25 C 0.41814(17) 0.68119(17) 0.39618(18)
H12 H 0.420565 0.671361 0.382133
C26 C 0.3785(2) 0.6419(2) 0.3910(2)
C27 C 0.39752(19) 0.67737(19) 0.4113(2)
Tb2 Tb 0.25405(2) 0.60058(2) 0.500000
O15 O 0.25157(11) 0.64477(13) 0.500000
O16 O 0.27798(10) 0.56480(13) 0.500000
Tb3 Tb 0.500000 0.74595(2) 0.39942(2)
O17 O 0.500000 0.74843(11) 0.35523(13)
O18 O 0.500000 0.72202(10) 0.43520(13)
O19 O 0.03032(7) 0.60953(9) 0.27963(7)
O20 O 0.07330(7) 0.52993(7) 0.26499(6)
O21 O 0.11147(9) 0.52817(8) 0.27782(8)
O22 O 0.04171(9) 0.63293(10) 0.31013(10)
C28 C 0.09110(11) 0.53847(11) 0.27752(9)
C29 C 0.06753(11) 0.57653(11) 0.28775(9)
H13 H 0.055468 0.572264 0.276092
C30 C 0.04440(11) 0.61457(13) 0.29671(11)
C31 C 0.06555(13) 0.59809(13) 0.30095(12)
C32 C 0.08722(12) 0.56143(13) 0.29180(11)
C33 C 0.10455(15) 0.56734(16) 0.30903(14)
H14 H 0.118006 0.556771 0.311648
N7 N 0.14127(17) 0.60598(17) 0.37295(18)
N8 N 0.11992(17) 0.59199(17) 0.34042(17)
H15 H 0.131909 0.581350 0.340179
C34 C 0.08186(17) 0.60382(18) 0.31881(17)
H16 H 0.079435 0.617867 0.328639
C35 C 0.1215(2) 0.6090(2) 0.3581(2)
C36 C 0.10248(19) 0.5887(2) 0.32263(19)
O23 O 0.10953(9) 0.72037(7) 0.46968(7)
O24 O 0.02993(7) 0.73501(6) 0.42670(7)
O25 O 0.02817(8) 0.72218(8) 0.38853(9)
O26 O 0.13293(10) 0.68987(10) 0.45829(9)
C37 C 0.03847(11) 0.72248(9) 0.40890(11)
C38 C 0.07653(11) 0.71225(9) 0.43247(11)
H17 H 0.072264 0.723908 0.444532
C39 C 0.11457(13) 0.70329(11) 0.45560(11)
C40 C 0.09809(13) 0.69905(12) 0.43445(13)
C41 C 0.06143(13) 0.70820(11) 0.41278(12)
C42 C 0.06734(16) 0.69097(14) 0.39545(15)
H18 H 0.056771 0.688352 0.381994
N9 N 0.10598(17) 0.62705(18) 0.35873(17)
N10 N 0.09199(17) 0.65958(17) 0.38008(17)
H19 H 0.081350 0.659821 0.368091
C43 C 0.10382(18) 0.68119(17) 0.41814(17)
H20 H 0.117867 0.671361 0.420565
C44 C 0.1090(2) 0.6419(2) 0.3785(2)
C45 C 0.0887(2) 0.67737(19) 0.39752(19)
O27 O 0.22037(7) 0.53032(7) 0.39047(9)
O28 O 0.23501(6) 0.57330(7) 0.47007(7)
O29 O 0.22218(8) 0.61147(9) 0.47183(8)
O30 O 0.18987(10) 0.54171(9) 0.36707(10)
C46 C 0.22248(9) 0.59110(11) 0.46153(11)
C47 C 0.21225(9) 0.56753(11) 0.42347(11)
H21 H 0.223908 0.555468 0.427736
C48 C 0.20329(11) 0.54440(11) 0.38543(13)
C49 C 0.19905(12) 0.56555(13) 0.40191(13)
C50 C 0.20820(11) 0.58722(12) 0.43857(13)
C51 C 0.19097(14) 0.60455(15) 0.43266(16)
H22 H 0.188352 0.618006 0.443229
N11 N 0.12705(18) 0.64127(17) 0.39402(17)
N12 N 0.15958(17) 0.61992(17) 0.40801(17)
H23 H 0.159821 0.631909 0.418650
C52 C 0.18119(17) 0.58186(17) 0.39618(18)
H24 H 0.171361 0.579435 0.382133
C53 C 0.1419(2) 0.6215(2) 0.3910(2)
C54 C 0.17737(19) 0.60248(19) 0.4113(2)
Tb4 Tb -0.000000 0.60058(2) 0.25405(2)
Tb5 Tb 0.10058(2) 0.74595(2) 0.500000
Tb6 Tb 0.24595(2) 0.500000 0.39942(2)
Tb7 Tb 0.10058(2) 0.500000 0.24595(2)
Tb8 Tb 0.39942(2) 0.75405(2) 0.500000
Tb9 Tb -0.000000 0.75405(2) 0.39942(2)
Tb10 Tb 0.500000 0.60058(2) 0.24595(2)
O31 O 0.39047(9) 0.46968(7) 0.27963(7)
O32 O 0.27963(7) 0.60953(9) 0.53032(7)
O33 O 0.53032(7) 0.72037(7) 0.39047(9)
O34 O 0.47007(7) 0.76499(6) 0.42670(7)
O35 O 0.42670(7) 0.52993(7) 0.23501(6)
O36 O 0.23501(6) 0.57330(7) 0.52993(7)
O37 O 0.52993(7) 0.76499(6) 0.42670(7)
O38 O 0.42670(7) 0.47007(7) 0.23501(6)
O39 O 0.47183(8) 0.77782(8) 0.38853(9)
O40 O 0.38853(9) 0.52817(8) 0.22218(8)
O41 O 0.22218(8) 0.61147(9) 0.52817(8)
O42 O 0.52817(8) 0.77782(8) 0.38853(9)
O43 O 0.38853(9) 0.47183(8) 0.22218(8)
Tb4_2 Tb 1.000000 0.60058(2) 0.25405(2)
Tb9_2 Tb 1.000000 0.75405(2) 0.39942(2)
Tb4_3 Tb 0.000000 0.39942(2) 0.25405(2)
Tb9_3 Tb 0.000000 0.24595(2) 0.39942(2)
Tb1_2 Tb 0.60058(2) 0.500000 0.25405(2)
O1_2 O 0.60953(9) 0.46968(7) 0.27963(7)
O2_2 O 0.52993(7) 0.42670(7) 0.26499(6)
O3_2 O 0.64477(13) 0.500000 0.25157(11)
O4_2 O 0.52817(8) 0.38853(9) 0.27782(8)
O5_2 O 0.63293(10) 0.45829(9) 0.31013(10)
O6_2 O 0.56480(13) 0.500000 0.27798(10)
C1_2 C 0.53847(11) 0.40890(11) 0.27752(9)
C2_2 C 0.57653(11) 0.43247(11) 0.28775(9)
H1_2 H 0.572264 0.444532 0.276092
C3_2 C 0.61457(13) 0.45560(11) 0.29671(11)
C4_2 C 0.59809(13) 0.43445(13) 0.30095(12)
C5_2 C 0.56143(13) 0.41278(12) 0.29180(11)
C6_2 C 0.56734(16) 0.39545(15) 0.30903(14)
H2_2 H 0.556771 0.381994 0.311648
N1_2 N 0.60598(17) 0.35873(17) 0.37295(18)
N2_2 N 0.59199(17) 0.38008(17) 0.34042(17)
H3_2 H 0.581350 0.368091 0.340179
C7_2 C 0.60382(18) 0.41814(17) 0.31881(17)
H4_2 H 0.617867 0.420565 0.328639
C8_2 C 0.6090(2) 0.3785(2) 0.3581(2)
C9_2 C 0.5887(2) 0.39752(19) 0.32263(19)
O7_2 O 0.72037(7) 0.39047(9) 0.46968(7)
O8_2 O 0.73501(6) 0.47007(7) 0.42670(7)
O9_2 O 0.72218(8) 0.47183(8) 0.38853(9)
O10_2 O 0.68987(10) 0.36707(10) 0.45829(9)
C10_2 C 0.72248(9) 0.46153(11) 0.40890(11)
C11_2 C 0.71225(9) 0.42347(11) 0.43247(11)
H5_2 H 0.723908 0.427736 0.444532
C12_2 C 0.70329(11) 0.38543(13) 0.45560(11)
C13_2 C 0.69905(12) 0.40191(13) 0.43445(13)
C14_2 C 0.70820(11) 0.43857(13) 0.41278(12)
C15_2 C 0.69097(14) 0.43266(16) 0.39545(15)
H6_2 H 0.688352 0.443229 0.381994
N3_2 N 0.62705(18) 0.39402(17) 0.35873(17)
N4_2 N 0.65958(17) 0.40801(17) 0.38008(17)
H7_2 H 0.659821 0.418650 0.368091
C16_2 C 0.68119(17) 0.39618(18) 0.41814(17)
H8_2 H 0.671361 0.382133 0.420565
C17_2 C 0.6419(2) 0.3910(2) 0.3785(2)
C18_2 C 0.67737(19) 0.4113(2) 0.39752(19)
O11_2 O 0.53032(7) 0.27963(7) 0.39047(9)
O12_2 O 0.57330(7) 0.26499(6) 0.47007(7)
O13_2 O 0.61147(9) 0.27782(8) 0.47183(8)
O14_2 O 0.54171(9) 0.31013(10) 0.36707(10)
C19_2 C 0.59110(11) 0.27752(9) 0.46153(11)
C20_2 C 0.56753(11) 0.28775(9) 0.42347(11)
H9_2 H 0.555468 0.276092 0.427736
C21_2 C 0.54440(11) 0.29671(11) 0.38543(13)
C22_2 C 0.56555(13) 0.30095(12) 0.40191(13)
C23_2 C 0.58722(12) 0.29180(11) 0.43857(13)
C24_2 C 0.60455(15) 0.30903(14) 0.43266(16)
H10_2 H 0.618006 0.311648 0.443229
N5_2 N 0.64127(17) 0.37295(18) 0.39402(17)
N6_2 N 0.61992(17) 0.34042(17) 0.40801(17)
H11_2 H 0.631909 0.340179 0.418650
C25_2 C 0.58186(17) 0.31881(17) 0.39618(18)
H12_2 H 0.579435 0.328639 0.382133
C26_2 C 0.6215(2) 0.3581(2) 0.3910(2)
C27_2 C 0.60248(19) 0.32263(19) 0.4113(2)
Tb2_2 Tb 0.74595(2) 0.39942(2) 0.500000
O15_2 O 0.74843(11) 0.35523(13) 0.500000
O16_2 O 0.72202(10) 0.43520(13) 0.500000
Tb3_2 Tb 0.500000 0.25405(2) 0.39942(2)
O17_2 O 0.500000 0.25157(11) 0.35523(13)
O18_2 O 0.500000 0.27798(10) 0.43520(13)
O19_2 O 0.96968(7) 0.39047(9) 0.27963(7)
O20_2 O 0.92670(7) 0.47007(7) 0.26499(6)
O21_2 O 0.88853(9) 0.47183(8) 0.27782(8)
O22_2 O 0.95829(9) 0.36707(10) 0.31013(10)
C28_2 C 0.90890(11) 0.46153(11) 0.27752(9)
C29_2 C 0.93247(11) 0.42347(11) 0.28775(9)
H13_2 H 0.944532 0.427736 0.276092
C30_2 C 0.95560(11) 0.38543(13) 0.29671(11)
C31_2 C 0.93445(13) 0.40191(13) 0.30095(12)
C32_2 C 0.91278(12) 0.43857(13) 0.29180(11)
C33_2 C 0.89545(15) 0.43266(16) 0.30903(14)
H14_2 H 0.881994 0.443229 0.311648
N7_2 N 0.85873(17) 0.39402(17) 0.37295(18)
N8_2 N 0.88008(17) 0.40801(17) 0.34042(17)
H15_2 H 0.868091 0.418650 0.340179
C34_2 C 0.91814(17) 0.39618(18) 0.31881(17)
H16_2 H 0.920565 0.382133 0.328639
C35_2 C 0.8785(2) 0.3910(2) 0.3581(2)
C36_2 C 0.89752(19) 0.4113(2) 0.32263(19)
O23_2 O 0.89047(9) 0.27963(7) 0.46968(7)
O24_2 O 0.97007(7) 0.26499(6) 0.42670(7)
O25_2 O 0.97183(8) 0.27782(8) 0.38853(9)
O26_2 O 0.86707(10) 0.31013(10) 0.45829(9)
C37_2 C 0.96153(11) 0.27752(9) 0.40890(11)
C38_2 C 0.92347(11) 0.28775(9) 0.43247(11)
H17_2 H 0.927736 0.276092 0.444532
C39_2 C 0.88543(13) 0.29671(11) 0.45560(11)
C40_2 C 0.90191(13) 0.30095(12) 0.43445(13)
C41_2 C 0.93857(13) 0.29180(11) 0.41278(12)
C42_2 C 0.93266(16) 0.30903(14) 0.39545(15)
H18_2 H 0.943229 0.311648 0.381994
N9_2 N 0.89402(17) 0.37295(18) 0.35873(17)
N10_2 N 0.90801(17) 0.34042(17) 0.38008(17)
H19_2 H 0.918650 0.340179 0.368091
C43_2 C 0.89618(18) 0.31881(17) 0.41814(17)
H20_2 H 0.882133 0.328639 0.420565
C44_2 C 0.8910(2) 0.3581(2) 0.3785(2)
C45_2 C 0.9113(2) 0.32263(19) 0.39752(19)
O27_2 O 0.77963(7) 0.46968(7) 0.39047(9)
O28_2 O 0.76499(6) 0.42670(7) 0.47007(7)
O29_2 O 0.77782(8) 0.38853(9) 0.47183(8)
O30_2 O 0.81013(10) 0.45829(9) 0.36707(10)
C46_2 C 0.77752(9) 0.40890(11) 0.46153(11)
C47_2 C 0.78775(9) 0.43247(11) 0.42347(11)
H21_2 H 0.776092 0.444532 0.427736
C48_2 C 0.79671(11) 0.45560(11) 0.38543(13)
C49_2 C 0.80095(12) 0.43445(13) 0.40191(13)
C50_2 C 0.79180(11) 0.41278(12) 0.43857(13)
C51_2 C 0.80903(14) 0.39545(15) 0.43266(16)
H22_2 H 0.811648 0.381994 0.443229
N11_2 N 0.87295(18) 0.35873(17) 0.39402(17)
N12_2 N 0.84042(17) 0.38008(17) 0.40801(17)
H23_2 H 0.840179 0.368091 0.418650
C52_2 C 0.81881(17) 0.41814(17) 0.39618(18)
H24_2 H 0.828639 0.420565 0.382133
C53_2 C 0.8581(2) 0.3785(2) 0.3910(2)
C54_2 C 0.82263(19) 0.39752(19) 0.4113(2)
Tb4_4 Tb 1.000000 0.39942(2) 0.25405(2)
Tb5_2 Tb 0.89942(2) 0.25405(2) 0.500000
Tb6_2 Tb 0.75405(2) 0.500000 0.39942(2)
Tb7_2 Tb 0.89942(2) 0.500000 0.24595(2)
Tb8_2 Tb 0.60058(2) 0.24595(2) 0.500000
Tb9_4 Tb 1.000000 0.24595(2) 0.39942(2)
Tb10_2 Tb 0.500000 0.39942(2) 0.24595(2)
O31_2 O 0.60953(9) 0.53032(7) 0.27963(7)
O32_2 O 0.72037(7) 0.39047(9) 0.53032(7)
O33_2 O 0.46968(7) 0.27963(7) 0.39047(9)
O34_2 O 0.52993(7) 0.23501(6) 0.42670(7)
O35_2 O 0.57330(7) 0.47007(7) 0.23501(6)
O36_2 O 0.76499(6) 0.42670(7) 0.52993(7)
O37_2 O 0.47007(7) 0.23501(6) 0.42670(7)
O38_2 O 0.57330(7) 0.52993(7) 0.23501(6)
O39_2 O 0.52817(8) 0.22218(8) 0.38853(9)
O40_2 O 0.61147(9) 0.47183(8) 0.22218(8)
O41_2 O 0.77782(8) 0.38853(9) 0.52817(8)
O42_2 O 0.47183(8) 0.22218(8) 0.38853(9)
O43_2 O 0.61147(9) 0.52817(8) 0.22218(8)
Tb4_5 Tb -0.000000 0.60058(2) 0.74595(2)
Tb9_5 Tb 0.000000 0.75405(2) 0.60058(2)
Tb1_3 Tb 0.60058(2) 0.500000 0.74595(2)
O1_3 O 0.60953(9) 0.53032(7) 0.72037(7)
O2_3 O 0.52993(7) 0.57330(7) 0.73501(6)
O3_3 O 0.64477(13) 0.500000 0.74843(11)
O4_3 O 0.52817(8) 0.61147(9) 0.72218(8)
O5_3 O 0.63293(10) 0.54171(9) 0.68987(10)
O6_3 O 0.56480(13) 0.500000 0.72202(10)
C1_3 C 0.53847(11) 0.59110(11) 0.72248(9)
C2_3 C 0.57653(11) 0.56753(11) 0.71225(9)
H1_3 H 0.572264 0.555468 0.723908
C3_3 C 0.61457(13) 0.54440(11) 0.70329(11)
C4_3 C 0.59809(13) 0.56555(13) 0.69905(12)
C5_3 C 0.56143(13) 0.58722(12) 0.70820(11)
C6_3 C 0.56734(16) 0.60455(15) 0.69097(14)
H2_3 H 0.556771 0.618006 0.688352
N1_3 N 0.60598(17) 0.64127(17) 0.62705(18)
N2_3 N 0.59199(17) 0.61992(17) 0.65958(17)
H3_3 H 0.581350 0.631909 0.659821
C7_3 C 0.60382(18) 0.58186(17) 0.68119(17)
H4_3 H 0.617867 0.579435 0.671361
C8_3 C 0.6090(2) 0.6215(2) 0.6419(2)
C9_3 C 0.5887(2) 0.60248(19) 0.67737(19)
O7_3 O 0.72037(7) 0.60953(9) 0.53032(7)
O8_3 O 0.73501(6) 0.52993(7) 0.57330(7)
O9_3 O 0.72218(8) 0.52817(8) 0.61147(9)
O10_3 O 0.68987(10) 0.63293(10) 0.54171(9)
C10_3 C 0.72248(9) 0.53847(11) 0.59110(11)
C11_3 C 0.71225(9) 0.57653(11) 0.56753(11)
H5_3 H 0.723908 0.572264 0.555468
C12_3 C 0.70329(11) 0.61457(13) 0.54440(11)
C13_3 C 0.69905(12) 0.59809(13) 0.56555(13)
C14_3 C 0.70820(11) 0.56143(13) 0.58722(12)
C15_3 C 0.69097(14) 0.56734(16) 0.60455(15)
H6_3 H 0.688352 0.556771 0.618006
N3_3 N 0.62705(18) 0.60598(17) 0.64127(17)
N4_3 N 0.65958(17) 0.59199(17) 0.61992(17)
H7_3 H 0.659821 0.581350 0.631909
C16_3 C 0.68119(17) 0.60382(18) 0.58186(17)
H8_3 H 0.671361 0.617867 0.579435
C17_3 C 0.6419(2) 0.6090(2) 0.6215(2)
C18_3 C 0.67737(19) 0.5887(2) 0.60248(19)
O11_3 O 0.53032(7) 0.72037(7) 0.60953(9)
O12_3 O 0.57330(7) 0.73501(6) 0.52993(7)
O13_3 O 0.61147(9) 0.72218(8) 0.52817(8)
O14_3 O 0.54171(9) 0.68987(10) 0.63293(10)
C19_3 C 0.59110(11) 0.72248(9) 0.53847(11)
C20_3 C 0.56753(11) 0.71225(9) 0.57653(11)
H9_3 H 0.555468 0.723908 0.572264
C21_3 C 0.54440(11) 0.70329(11) 0.61457(13)
C22_3 C 0.56555(13) 0.69905(12) 0.59809(13)
C23_3 C 0.58722(12) 0.70820(11) 0.56143(13)
C24_3 C 0.60455(15) 0.69097(14) 0.56734(16)
H10_3 H 0.618006 0.688352 0.556771
N5_3 N 0.64127(17) 0.62705(18) 0.60598(17)
N6_3 N 0.61992(17) 0.65958(17) 0.59199(17)
H11_3 H 0.631909 0.659821 0.581350
C25_3 C 0.58186(17) 0.68119(17) 0.60382(18)
H12_3 H 0.579435 0.671361 0.617867
C26_3 C 0.6215(2) 0.6419(2) 0.6090(2)
C27_3 C 0.60248(19) 0.67737(19) 0.5887(2)
Tb2_3 Tb 0.74595(2) 0.60058(2) 0.500000
O15_3 O 0.74843(11) 0.64477(13) 0.500000
O16_3 O 0.72202(10) 0.56480(13) 0.500000
Tb3_3 Tb 0.500000 0.74595(2) 0.60058(2)
O17_3 O 0.500000 0.74843(11) 0.64477(13)
O18_3 O 0.500000 0.72202(10) 0.56480(13)
O19_3 O 0.96968(7) 0.60953(9) 0.72037(7)
O20_3 O 0.92670(7) 0.52993(7) 0.73501(6)
O21_3 O 0.88853(9) 0.52817(8) 0.72218(8)
O22_3 O 0.95829(9) 0.63293(10) 0.68987(10)
C28_3 C 0.90890(11) 0.53847(11) 0.72248(9)
C29_3 C 0.93247(11) 0.57653(11) 0.71225(9)
H13_3 H 0.944532 0.572264 0.723908
C30_3 C 0.95560(11) 0.61457(13) 0.70329(11)
C31_3 C 0.93445(13) 0.59809(13) 0.69905(12)
C32_3 C 0.91278(12) 0.56143(13) 0.70820(11)
C33_3 C 0.89545(15) 0.56734(16) 0.69097(14)
H14_3 H 0.881994 0.556771 0.688352
N7_3 N 0.85873(17) 0.60598(17) 0.62705(18)
N8_3 N 0.88008(17) 0.59199(17) 0.65958(17)
H15_3 H 0.868091 0.581350 0.659821
C34_3 C 0.91814(17) 0.60382(18) 0.68119(17)
H16_3 H 0.920565 0.617867 0.671361
C35_3 C 0.8785(2) 0.6090(2) 0.6419(2)
C36_3 C 0.89752(19) 0.5887(2) 0.67737(19)
O23_3 O 0.89047(9) 0.72037(7) 0.53032(7)
O24_3 O 0.97007(7) 0.73501(6) 0.57330(7)
O25_3 O 0.97183(8) 0.72218(8) 0.61147(9)
O26_3 O 0.86707(10) 0.68987(10) 0.54171(9)
C37_3 C 0.96153(11) 0.72248(9) 0.59110(11)
C38_3 C 0.92347(11) 0.71225(9) 0.56753(11)
H17_3 H 0.927736 0.723908 0.555468
C39_3 C 0.88543(13) 0.70329(11) 0.54440(11)
C40_3 C 0.90191(13) 0.69905(12) 0.56555(13)
C41_3 C 0.93857(13) 0.70820(11) 0.58722(12)
C42_3 C 0.93266(16) 0.69097(14) 0.60455(15)
H18_3 H 0.943229 0.688352 0.618006
N9_3 N 0.89402(17) 0.62705(18) 0.64127(17)
N10_3 N 0.90801(17) 0.65958(17) 0.61992(17)
H19_3 H 0.918650 0.659821 0.631909
C43_3 C 0.89618(18) 0.68119(17) 0.58186(17)
H20_3 H 0.882133 0.671361 0.579435
C44_3 C 0.8910(2) 0.6419(2) 0.6215(2)
C45_3 C 0.9113(2) 0.67737(19) 0.60248(19)
O27_3 O 0.77963(7) 0.53032(7) 0.60953(9)
O28_3 O 0.76499(6) 0.57330(7) 0.52993(7)
O29_3 O 0.77782(8) 0.61147(9) 0.52817(8)
O30_3 O 0.81013(10) 0.54171(9) 0.63293(10)
C46_3 C 0.77752(9) 0.59110(11) 0.53847(11)
C47_3 C 0.78775(9) 0.56753(11) 0.57653(11)
H21_3 H 0.776092 0.555468 0.572264
C48_3 C 0.79671(11) 0.54440(11) 0.61457(13)
C49_3 C 0.80095(12) 0.56555(13) 0.59809(13)
C50_3 C 0.79180(11) 0.58722(12) 0.56143(13)
C51_3 C 0.80903(14) 0.60455(15) 0.56734(16)
H22_3 H 0.811648 0.618006 0.556771
N11_3 N 0.87295(18) 0.64127(17) 0.60598(17)
N12_3 N 0.84042(17) 0.61992(17) 0.59199(17)
H23_3 H 0.840179 0.631909 0.581350
C52_3 C 0.81881(17) 0.58186(17) 0.60382(18)
H24_3 H 0.828639 0.579435 0.617867
C53_3 C 0.8581(2) 0.6215(2) 0.6090(2)
C54_3 C 0.82263(19) 0.60248(19) 0.5887(2)
Tb4_6 Tb 1.000000 0.60058(2) 0.74595(2)
Tb5_3 Tb 0.89942(2) 0.74595(2) 0.500000
Tb6_3 Tb 0.75405(2) 0.500000 0.60058(2)
Tb7_3 Tb 0.89942(2) 0.500000 0.75405(2)
Tb8_3 Tb 0.60058(2) 0.75405(2) 0.500000
Tb9_6 Tb 1.000000 0.75405(2) 0.60058(2)
Tb10_3 Tb 0.500000 0.60058(2) 0.75405(2)
O31_3 O 0.60953(9) 0.46968(7) 0.72037(7)
O32_3 O 0.72037(7) 0.60953(9) 0.46968(7)
O33_3 O 0.46968(7) 0.72037(7) 0.60953(9)
O34_3 O 0.52993(7) 0.76499(6) 0.57330(7)
O35_3 O 0.57330(7) 0.52993(7) 0.76499(6)
O36_3 O 0.76499(6) 0.57330(7) 0.47007(7)
O37_3 O 0.47007(7) 0.76499(6) 0.57330(7)
O38_3 O 0.57330(7) 0.47007(7) 0.76499(6)
O39_3 O 0.52817(8) 0.77782(8) 0.61147(9)
O40_3 O 0.61147(9) 0.52817(8) 0.77782(8)
O41_3 O 0.77782(8) 0.61147(9) 0.47183(8)
O42_3 O 0.47183(8) 0.77782(8) 0.61147(9)
O43_3 O 0.61147(9) 0.47183(8) 0.77782(8)
Tb1_4 Tb 0.39942(2) 0.500000 0.74595(2)
O1_4 O 0.39047(9) 0.46968(7) 0.72037(7)
O2_4 O 0.47007(7) 0.42670(7) 0.73501(6)
O3_4 O 0.35523(13) 0.500000 0.74843(11)
O4_4 O 0.47183(8) 0.38853(9) 0.72218(8)
O5_4 O 0.36707(10) 0.45829(9) 0.68987(10)
O6_4 O 0.43520(13) 0.500000 0.72202(10)
C1_4 C 0.46153(11) 0.40890(11) 0.72248(9)
C2_4 C 0.42347(11) 0.43247(11) 0.71225(9)
H1_4 H 0.427736 0.444532 0.723908
C3_4 C 0.38543(13) 0.45560(11) 0.70329(11)
C4_4 C 0.40191(13) 0.43445(13) 0.69905(12)
C5_4 C 0.43857(13) 0.41278(12) 0.70820(11)
C6_4 C 0.43266(16) 0.39545(15) 0.69097(14)
H2_4 H 0.443229 0.381994 0.688352
N1_4 N 0.39402(17) 0.35873(17) 0.62705(18)
N2_4 N 0.40801(17) 0.38008(17) 0.65958(17)
H3_4 H 0.418650 0.368091 0.659821
C7_4 C 0.39618(18) 0.41814(17) 0.68119(17)
H4_4 H 0.382133 0.420565 0.671361
C8_4 C 0.3910(2) 0.3785(2) 0.6419(2)
C9_4 C 0.4113(2) 0.39752(19) 0.67737(19)
O7_4 O 0.27963(7) 0.39047(9) 0.53032(7)
O8_4 O 0.26499(6) 0.47007(7) 0.57330(7)
O9_4 O 0.27782(8) 0.47183(8) 0.61147(9)
O10_4 O 0.31013(10) 0.36707(10) 0.54171(9)
C10_4 C 0.27752(9) 0.46153(11) 0.59110(11)
C11_4 C 0.28775(9) 0.42347(11) 0.56753(11)
H5_4 H 0.276092 0.427736 0.555468
C12_4 C 0.29671(11) 0.38543(13) 0.54440(11)
C13_4 C 0.30095(12) 0.40191(13) 0.56555(13)
C14_4 C 0.29180(11) 0.43857(13) 0.58722(12)
C15_4 C 0.30903(14) 0.43266(16) 0.60455(15)
H6_4 H 0.311648 0.443229 0.618006
N3_4 N 0.37295(18) 0.39402(17) 0.64127(17)
N4_4 N 0.34042(17) 0.40801(17) 0.61992(17)
H7_4 H 0.340179 0.418650 0.631909
C16_4 C 0.31881(17) 0.39618(18) 0.58186(17)
H8_4 H 0.328639 0.382133 0.579435
C17_4 C 0.3581(2) 0.3910(2) 0.6215(2)
C18_4 C 0.32263(19) 0.4113(2) 0.60248(19)
O11_4 O 0.46968(7) 0.27963(7) 0.60953(9)
O12_4 O 0.42670(7) 0.26499(6) 0.52993(7)
O13_4 O 0.38853(9) 0.27782(8) 0.52817(8)
O14_4 O 0.45829(9) 0.31013(10) 0.63293(10)
C19_4 C 0.40890(11) 0.27752(9) 0.53847(11)
C20_4 C 0.43247(11) 0.28775(9) 0.57653(11)
H9_4 H 0.444532 0.276092 0.572264
C21_4 C 0.45560(11) 0.29671(11) 0.61457(13)
C22_4 C 0.43445(13) 0.30095(12) 0.59809(13)
C23_4 C 0.41278(12) 0.29180(11) 0.56143(13)
C24_4 C 0.39545(15) 0.30903(14) 0.56734(16)
H10_4 H 0.381994 0.311648 0.556771
N5_4 N 0.35873(17) 0.37295(18) 0.60598(17)
N6_4 N 0.38008(17) 0.34042(17) 0.59199(17)
H11_4 H 0.368091 0.340179 0.581350
C25_4 C 0.41814(17) 0.31881(17) 0.60382(18)
H12_4 H 0.420565 0.328639 0.617867
C26_4 C 0.3785(2) 0.3581(2) 0.6090(2)
C27_4 C 0.39752(19) 0.32263(19) 0.5887(2)
Tb2_4 Tb 0.25405(2) 0.39942(2) 0.500000
O15_4 O 0.25157(11) 0.35523(13) 0.500000
O16_4 O 0.27798(10) 0.43520(13) 0.500000
Tb3_4 Tb 0.500000 0.25405(2) 0.60058(2)
O17_4 O 0.500000 0.25157(11) 0.64477(13)
O18_4 O 0.500000 0.27798(10) 0.56480(13)
O19_4 O 0.03032(7) 0.39047(9) 0.72037(7)
O20_4 O 0.07330(7) 0.47007(7) 0.73501(6)
O21_4 O 0.11147(9) 0.47183(8) 0.72218(8)
O22_4 O 0.04171(9) 0.36707(10) 0.68987(10)
C28_4 C 0.09110(11) 0.46153(11) 0.72248(9)
C29_4 C 0.06753(11) 0.42347(11) 0.71225(9)
H13_4 H 0.055468 0.427736 0.723908
C30_4 C 0.04440(11) 0.38543(13) 0.70329(11)
C31_4 C 0.06555(13) 0.40191(13) 0.69905(12)
C32_4 C 0.08722(12) 0.43857(13) 0.70820(11)
C33_4 C 0.10455(15) 0.43266(16) 0.69097(14)
H14_4 H 0.118006 0.443229 0.688352
N7_4 N 0.14127(17) 0.39402(17) 0.62705(18)
N8_4 N 0.11992(17) 0.40801(17) 0.65958(17)
H15_4 H 0.131909 0.418650 0.659821
C34_4 C 0.08186(17) 0.39618(18) 0.68119(17)
H16_4 H 0.079435 0.382133 0.671361
C35_4 C 0.1215(2) 0.3910(2) 0.6419(2)
C36_4 C 0.10248(19) 0.4113(2) 0.67737(19)
O23_4 O 0.10953(9) 0.27963(7) 0.53032(7)
O24_4 O 0.02993(7) 0.26499(6) 0.57330(7)
O25_4 O 0.02817(8) 0.27782(8) 0.61147(9)
O26_4 O 0.13293(10) 0.31013(10) 0.54171(9)
C37_4 C 0.03847(11) 0.27752(9) 0.59110(11)
C38_4 C 0.07653(11) 0.28775(9) 0.56753(11)
H17_4 H 0.072264 0.276092 0.555468
C39_4 C 0.11457(13) 0.29671(11) 0.54440(11)
C40_4 C 0.09809(13) 0.30095(12) 0.56555(13)
C41_4 C 0.06143(13) 0.29180(11) 0.58722(12)
C42_4 C 0.06734(16) 0.30903(14) 0.60455(15)
H18_4 H 0.056771 0.311648 0.618006
N9_4 N 0.10598(17) 0.37295(18) 0.64127(17)
N10_4 N 0.09199(17) 0.34042(17) 0.61992(17)
H19_4 H 0.081350 0.340179 0.631909
C43_4 C 0.10382(18) 0.31881(17) 0.58186(17)
H20_4 H 0.117867 0.328639 0.579435
C44_4 C 0.1090(2) 0.3581(2) 0.6215(2)
C45_4 C 0.0887(2) 0.32263(19) 0.60248(19)
O27_4 O 0.22037(7) 0.46968(7) 0.60953(9)
O28_4 O 0.23501(6) 0.42670(7) 0.52993(7)
O29_4 O 0.22218(8) 0.38853(9) 0.52817(8)
O30_4 O 0.18987(10) 0.45829(9) 0.63293(10)
C46_4 C 0.22248(9) 0.40890(11) 0.53847(11)
C47_4 C 0.21225(9) 0.43247(11) 0.57653(11)
H21_4 H 0.223908 0.444532 0.572264
C48_4 C 0.20329(11) 0.45560(11) 0.61457(13)
C49_4 C 0.19905(12) 0.43445(13) 0.59809(13)
C50_4 C 0.20820(11) 0.41278(12) 0.56143(13)
C51_4 C 0.19097(14) 0.39545(15) 0.56734(16)
H22_4 H 0.188352 0.381994 0.556771
N11_4 N 0.12705(18) 0.35873(17) 0.60598(17)
N12_4 N 0.15958(17) 0.38008(17) 0.59199(17)
H23_4 H 0.159821 0.368091 0.581350
C52_4 C 0.18119(17) 0.41814(17) 0.60382(18)
H24_4 H 0.171361 0.420565 0.617867
C53_4 C 0.1419(2) 0.3785(2) 0.6090(2)
C54_4 C 0.17737(19) 0.39752(19) 0.5887(2)
Tb4_7 Tb -0.000000 0.39942(2) 0.74595(2)
Tb5_4 Tb 0.10058(2) 0.25405(2) 0.500000
Tb6_4 Tb 0.24595(2) 0.500000 0.60058(2)
Tb7_4 Tb 0.10058(2) 0.500000 0.75405(2)
Tb8_4 Tb 0.39942(2) 0.24595(2) 0.500000
Tb9_7 Tb -0.000000 0.24595(2) 0.60058(2)
Tb10_4 Tb 0.500000 0.39942(2) 0.75405(2)
O31_4 O 0.39047(9) 0.53032(7) 0.72037(7)
O32_4 O 0.27963(7) 0.39047(9) 0.46968(7)
O33_4 O 0.53032(7) 0.27963(7) 0.60953(9)
O34_4 O 0.47007(7) 0.23501(6) 0.57330(7)
O35_4 O 0.42670(7) 0.47007(7) 0.76499(6)
O36_4 O 0.23501(6) 0.42670(7) 0.47007(7)
O37_4 O 0.52993(7) 0.23501(6) 0.57330(7)
O38_4 O 0.42670(7) 0.52993(7) 0.76499(6)
O39_4 O 0.47183(8) 0.22218(8) 0.61147(9)
O40_4 O 0.38853(9) 0.47183(8) 0.77782(8)
O41_4 O 0.22218(8) 0.38853(9) 0.47183(8)
O42_4 O 0.52817(8) 0.22218(8) 0.61147(9)
O43_4 O 0.38853(9) 0.52817(8) 0.77782(8)
Tb4_8 Tb 1.000000 0.39942(2) 0.74595(2)
Tb9_8 Tb 1.000000 0.24595(2) 0.60058(2)
O19_5 O 0.27963(7) 0.03032(7) 0.60953(9)
O20_5 O 0.26499(6) 0.07330(7) 0.52993(7)
O21_5 O 0.27782(8) 0.11147(9) 0.52817(8)
O22_5 O 0.31013(10) 0.04171(9) 0.63293(10)
C28_5 C 0.27752(9) 0.09110(11) 0.53847(11)
C29_5 C 0.28775(9) 0.06753(11) 0.57653(11)
H13_5 H 0.276092 0.055468 0.572264
C30_5 C 0.29671(11) 0.04440(11) 0.61457(13)
C31_5 C 0.30095(12) 0.06555(13) 0.59809(13)
C32_5 C 0.29180(11) 0.08722(12) 0.56143(13)
C33_5 C 0.30903(14) 0.10455(15) 0.56734(16)
H14_5 H 0.311648 0.118006 0.556771
N7_5 N 0.37295(18) 0.14127(17) 0.60598(17)
N8_5 N 0.34042(17) 0.11992(17) 0.59199(17)
H15_5 H 0.340179 0.131909 0.581350
C34_5 C 0.31881(17) 0.08186(17) 0.60382(18)
H16_5 H 0.328639 0.079435 0.617867
C35_5 C 0.3581(2) 0.1215(2) 0.6090(2)
C36_5 C 0.32263(19) 0.10248(19) 0.5887(2)
O23_5 O 0.46968(7) 0.10953(9) 0.72037(7)
O24_5 O 0.42670(7) 0.02993(7) 0.73501(6)
O25_5 O 0.38853(9) 0.02817(8) 0.72218(8)
O26_5 O 0.45829(9) 0.13293(10) 0.68987(10)
C37_5 C 0.40890(11) 0.03847(11) 0.72248(9)
C38_5 C 0.43247(11) 0.07653(11) 0.71225(9)
H17_5 H 0.444532 0.072264 0.723908
C39_5 C 0.45560(11) 0.11457(13) 0.70329(11)
C40_5 C 0.43445(13) 0.09809(13) 0.69905(12)
C41_5 C 0.41278(12) 0.06143(13) 0.70820(11)
C42_5 C 0.39545(15) 0.06734(16) 0.69097(14)
H18_5 H 0.381994 0.056771 0.688352
N9_5 N 0.35873(17) 0.10598(17) 0.62705(18)
N10_5 N 0.38008(17) 0.09199(17) 0.65958(17)
H19_5 H 0.368091 0.081350 0.659821
C43_5 C 0.41814(17) 0.10382(18) 0.68119(17)
H20_5 H 0.420565 0.117867 0.671361
C44_5 C 0.3785(2) 0.1090(2) 0.6419(2)
C45_5 C 0.39752(19) 0.0887(2) 0.67737(19)
O27_5 O 0.39047(9) 0.22037(7) 0.53032(7)
O30_5 O 0.36707(10) 0.18987(10) 0.54171(9)
C46_5 C 0.46153(11) 0.22248(9) 0.59110(11)
C47_5 C 0.42347(11) 0.21225(9) 0.56753(11)
H21_5 H 0.427736 0.223908 0.555468
C48_5 C 0.38543(13) 0.20329(11) 0.54440(11)
C49_5 C 0.40191(13) 0.19905(12) 0.56555(13)
C50_5 C 0.43857(13) 0.20820(11) 0.58722(12)
C51_5 C 0.43266(16) 0.19097(14) 0.60455(15)
H22_5 H 0.443229 0.188352 0.618006
N11_5 N 0.39402(17) 0.12705(18) 0.64127(17)
N12_5 N 0.40801(17) 0.15958(17) 0.61992(17)
H23_5 H 0.418650 0.159821 0.631909
C52_5 C 0.39618(18) 0.18119(17) 0.58186(17)
H24_5 H 0.382133 0.171361 0.579435
C53_5 C 0.3910(2) 0.1419(2) 0.6215(2)
C54_5 C 0.4113(2) 0.17737(19) 0.60248(19)
Tb4_9 Tb 0.25405(2) -0.000000 0.60058(2)
Tb5_5 Tb 0.500000 0.10058(2) 0.74595(2)
Tb7_5 Tb 0.24595(2) 0.10058(2) 0.500000
Tb9_9 Tb 0.39942(2) -0.000000 0.75405(2)
Tb4_10 Tb 0.25405(2) 1.000000 0.60058(2)
Tb9_10 Tb 0.39942(2) 1.000000 0.75405(2)
Tb4_11 Tb 0.25405(2) 0.000000 0.39942(2)
Tb9_11 Tb 0.39942(2) 0.000000 0.24595(2)
O19_6 O 0.27963(7) 0.96968(7) 0.39047(9)
O20_6 O 0.26499(6) 0.92670(7) 0.47007(7)
O21_6 O 0.27782(8) 0.88853(9) 0.47183(8)
O22_6 O 0.31013(10) 0.95829(9) 0.36707(10)
C28_6 C 0.27752(9) 0.90890(11) 0.46153(11)
C29_6 C 0.28775(9) 0.93247(11) 0.42347(11)
H13_6 H 0.276092 0.944532 0.427736
C30_6 C 0.29671(11) 0.95560(11) 0.38543(13)
C31_6 C 0.30095(12) 0.93445(13) 0.40191(13)
C32_6 C 0.29180(11) 0.91278(12) 0.43857(13)
C33_6 C 0.30903(14) 0.89545(15) 0.43266(16)
H14_6 H 0.311648 0.881994 0.443229
N7_6 N 0.37295(18) 0.85873(17) 0.39402(17)
N8_6 N 0.34042(17) 0.88008(17) 0.40801(17)
H15_6 H 0.340179 0.868091 0.418650
C34_6 C 0.31881(17) 0.91814(17) 0.39618(18)
H16_6 H 0.328639 0.920565 0.382133
C35_6 C 0.3581(2) 0.8785(2) 0.3910(2)
C36_6 C 0.32263(19) 0.89752(19) 0.4113(2)
O23_6 O 0.46968(7) 0.89047(9) 0.27963(7)
O24_6 O 0.42670(7) 0.97007(7) 0.26499(6)
O25_6 O 0.38853(9) 0.97183(8) 0.27782(8)
O26_6 O 0.45829(9) 0.86707(10) 0.31013(10)
C37_6 C 0.40890(11) 0.96153(11) 0.27752(9)
C38_6 C 0.43247(11) 0.92347(11) 0.28775(9)
H17_6 H 0.444532 0.927736 0.276092
C39_6 C 0.45560(11) 0.88543(13) 0.29671(11)
C40_6 C 0.43445(13) 0.90191(13) 0.30095(12)
C41_6 C 0.41278(12) 0.93857(13) 0.29180(11)
C42_6 C 0.39545(15) 0.93266(16) 0.30903(14)
H18_6 H 0.381994 0.943229 0.311648
N9_6 N 0.35873(17) 0.89402(17) 0.37295(18)
N10_6 N 0.38008(17) 0.90801(17) 0.34042(17)
H19_6 H 0.368091 0.918650 0.340179
C43_6 C 0.41814(17) 0.89618(18) 0.31881(17)
H20_6 H 0.420565 0.882133 0.328639
C44_6 C 0.3785(2) 0.8910(2) 0.3581(2)
C45_6 C 0.39752(19) 0.9113(2) 0.32263(19)
O27_6 O 0.39047(9) 0.77963(7) 0.46968(7)
O30_6 O 0.36707(10) 0.81013(10) 0.45829(9)
C46_6 C 0.46153(11) 0.77752(9) 0.40890(11)
C47_6 C 0.42347(11) 0.78775(9) 0.43247(11)
H21_6 H 0.427736 0.776092 0.444532
C48_6 C 0.38543(13) 0.79671(11) 0.45560(11)
C49_6 C 0.40191(13) 0.80095(12) 0.43445(13)
C50_6 C 0.43857(13) 0.79180(11) 0.41278(12)
C51_6 C 0.43266(16) 0.80903(14) 0.39545(15)
H22_6 H 0.443229 0.811648 0.381994
N11_6 N 0.39402(17) 0.87295(18) 0.35873(17)
N12_6 N 0.40801(17) 0.84042(17) 0.38008(17)
H23_6 H 0.418650 0.840179 0.368091
C52_6 C 0.39618(18) 0.81881(17) 0.41814(17)
H24_6 H 0.382133 0.828639 0.420565
C53_6 C 0.3910(2) 0.8581(2) 0.3785(2)
C54_6 C 0.4113(2) 0.82263(19) 0.39752(19)
Tb4_12 Tb 0.25405(2) 1.000000 0.39942(2)
Tb5_6 Tb 0.500000 0.89942(2) 0.25405(2)
Tb7_6 Tb 0.24595(2) 0.89942(2) 0.500000
Tb9_12 Tb 0.39942(2) 1.000000 0.24595(2)
Tb4_13 Tb 0.74595(2) 0.000000 0.60058(2)
Tb9_13 Tb 0.60058(2) 0.000000 0.75405(2)
O19_7 O 0.72037(7) 0.96968(7) 0.60953(9)
O20_7 O 0.73501(6) 0.92670(7) 0.52993(7)
O21_7 O 0.72218(8) 0.88853(9) 0.52817(8)
O22_7 O 0.68987(10) 0.95829(9) 0.63293(10)
C28_7 C 0.72248(9) 0.90890(11) 0.53847(11)
C29_7 C 0.71225(9) 0.93247(11) 0.57653(11)
H13_7 H 0.723908 0.944532 0.572264
C30_7 C 0.70329(11) 0.95560(11) 0.61457(13)
C31_7 C 0.69905(12) 0.93445(13) 0.59809(13)
C32_7 C 0.70820(11) 0.91278(12) 0.56143(13)
C33_7 C 0.69097(14) 0.89545(15) 0.56734(16)
H14_7 H 0.688352 0.881994 0.556771
N7_7 N 0.62705(18) 0.85873(17) 0.60598(17)
N8_7 N 0.65958(17) 0.88008(17) 0.59199(17)
H15_7 H 0.659821 0.868091 0.581350
C34_7 C 0.68119(17) 0.91814(17) 0.60382(18)
H16_7 H 0.671361 0.920565 0.617867
C35_7 C 0.6419(2) 0.8785(2) 0.6090(2)
C36_7 C 0.67737(19) 0.89752(19) 0.5887(2)
O23_7 O 0.53032(7) 0.89047(9) 0.72037(7)
O24_7 O 0.57330(7) 0.97007(7) 0.73501(6)
O25_7 O 0.61147(9) 0.97183(8) 0.72218(8)
O26_7 O 0.54171(9) 0.86707(10) 0.68987(10)
C37_7 C 0.59110(11) 0.96153(11) 0.72248(9)
C38_7 C 0.56753(11) 0.92347(11) 0.71225(9)
H17_7 H 0.555468 0.927736 0.723908
C39_7 C 0.54440(11) 0.88543(13) 0.70329(11)
C40_7 C 0.56555(13) 0.90191(13) 0.69905(12)
C41_7 C 0.58722(12) 0.93857(13) 0.70820(11)
C42_7 C 0.60455(15) 0.93266(16) 0.69097(14)
H18_7 H 0.618006 0.943229 0.688352
N9_7 N 0.64127(17) 0.89402(17) 0.62705(18)
N10_7 N 0.61992(17) 0.90801(17) 0.65958(17)
H19_7 H 0.631909 0.918650 0.659821
C43_7 C 0.58186(17) 0.89618(18) 0.68119(17)
H20_7 H 0.579435 0.882133 0.671361
C44_7 C 0.6215(2) 0.8910(2) 0.6419(2)
C45_7 C 0.60248(19) 0.9113(2) 0.67737(19)
O27_7 O 0.60953(9) 0.77963(7) 0.53032(7)
O30_7 O 0.63293(10) 0.81013(10) 0.54171(9)
C46_7 C 0.53847(11) 0.77752(9) 0.59110(11)
C47_7 C 0.57653(11) 0.78775(9) 0.56753(11)
H21_7 H 0.572264 0.776092 0.555468
C48_7 C 0.61457(13) 0.79671(11) 0.54440(11)
C49_7 C 0.59809(13) 0.80095(12) 0.56555(13)
C50_7 C 0.56143(13) 0.79180(11) 0.58722(12)
C51_7 C 0.56734(16) 0.80903(14) 0.60455(15)
H22_7 H 0.556771 0.811648 0.618006
N11_7 N 0.60598(17) 0.87295(18) 0.64127(17)
N12_7 N 0.59199(17) 0.84042(17) 0.61992(17)
H23_7 H 0.581350 0.840179 0.631909
C52_7 C 0.60382(18) 0.81881(17) 0.58186(17)
H24_7 H 0.617867 0.828639 0.579435
C53_7 C 0.6090(2) 0.8581(2) 0.6215(2)
C54_7 C 0.5887(2) 0.82263(19) 0.60248(19)
Tb4_14 Tb 0.74595(2) 1.000000 0.60058(2)
Tb5_7 Tb 0.500000 0.89942(2) 0.74595(2)
Tb7_7 Tb 0.75405(2) 0.89942(2) 0.500000
Tb9_14 Tb 0.60058(2) 1.000000 0.75405(2)
O19_8 O 0.72037(7) 0.03032(7) 0.39047(9)
O20_8 O 0.73501(6) 0.07330(7) 0.47007(7)
O21_8 O 0.72218(8) 0.11147(9) 0.47183(8)
O22_8 O 0.68987(10) 0.04171(9) 0.36707(10)
C28_8 C 0.72248(9) 0.09110(11) 0.46153(11)
C29_8 C 0.71225(9) 0.06753(11) 0.42347(11)
H13_8 H 0.723908 0.055468 0.427736
C30_8 C 0.70329(11) 0.04440(11) 0.38543(13)
C31_8 C 0.69905(12) 0.06555(13) 0.40191(13)
C32_8 C 0.70820(11) 0.08722(12) 0.43857(13)
C33_8 C 0.69097(14) 0.10455(15) 0.43266(16)
H14_8 H 0.688352 0.118006 0.443229
N7_8 N 0.62705(18) 0.14127(17) 0.39402(17)
N8_8 N 0.65958(17) 0.11992(17) 0.40801(17)
H15_8 H 0.659821 0.131909 0.418650
C34_8 C 0.68119(17) 0.08186(17) 0.39618(18)
H16_8 H 0.671361 0.079435 0.382133
C35_8 C 0.6419(2) 0.1215(2) 0.3910(2)
C36_8 C 0.67737(19) 0.10248(19) 0.4113(2)
O23_8 O 0.53032(7) 0.10953(9) 0.27963(7)
O24_8 O 0.57330(7) 0.02993(7) 0.26499(6)
O25_8 O 0.61147(9) 0.02817(8) 0.27782(8)
O26_8 O 0.54171(9) 0.13293(10) 0.31013(10)
C37_8 C 0.59110(11) 0.03847(11) 0.27752(9)
C38_8 C 0.56753(11) 0.07653(11) 0.28775(9)
H17_8 H 0.555468 0.072264 0.276092
C39_8 C 0.54440(11) 0.11457(13) 0.29671(11)
C40_8 C 0.56555(13) 0.09809(13) 0.30095(12)
C41_8 C 0.58722(12) 0.06143(13) 0.29180(11)
C42_8 C 0.60455(15) 0.06734(16) 0.30903(14)
H18_8 H 0.618006 0.056771 0.311648
N9_8 N 0.64127(17) 0.10598(17) 0.37295(18)
N10_8 N 0.61992(17) 0.09199(17) 0.34042(17)
H19_8 H 0.631909 0.081350 0.340179
C43_8 C 0.58186(17) 0.10382(18) 0.31881(17)
H20_8 H 0.579435 0.117867 0.328639
C44_8 C 0.6215(2) 0.1090(2) 0.3581(2)
C45_8 C 0.60248(19) 0.0887(2) 0.32263(19)
O27_8 O 0.60953(9) 0.22037(7) 0.46968(7)
O30_8 O 0.63293(10) 0.18987(10) 0.45829(9)
C46_8 C 0.53847(11) 0.22248(9) 0.40890(11)
C47_8 C 0.57653(11) 0.21225(9) 0.43247(11)
H21_8 H 0.572264 0.223908 0.444532
C48_8 C 0.61457(13) 0.20329(11) 0.45560(11)
C49_8 C 0.59809(13) 0.19905(12) 0.43445(13)
C50_8 C 0.56143(13) 0.20820(11) 0.41278(12)
C51_8 C 0.56734(16) 0.19097(14) 0.39545(15)
H22_8 H 0.556771 0.188352 0.381994
N11_8 N 0.60598(17) 0.12705(18) 0.35873(17)
N12_8 N 0.59199(17) 0.15958(17) 0.38008(17)
H23_8 H 0.581350 0.159821 0.368091
C52_8 C 0.60382(18) 0.18119(17) 0.41814(17)
H24_8 H 0.617867 0.171361 0.420565
C53_8 C 0.6090(2) 0.1419(2) 0.3785(2)
C54_8 C 0.5887(2) 0.17737(19) 0.39752(19)
Tb4_15 Tb 0.74595(2) -0.000000 0.39942(2)
Tb5_8 Tb 0.500000 0.10058(2) 0.25405(2)
Tb7_8 Tb 0.75405(2) 0.10058(2) 0.500000
Tb9_15 Tb 0.60058(2) -0.000000 0.24595(2)
Tb4_16 Tb 0.74595(2) 1.000000 0.39942(2)
Tb9_16 Tb 0.60058(2) 1.000000 0.24595(2)
O19_9 O 0.60953(9) 0.27963(7) 0.03032(7)
O20_9 O 0.52993(7) 0.26499(6) 0.07330(7)
O21_9 O 0.52817(8) 0.27782(8) 0.11147(9)
O22_9 O 0.63293(10) 0.31013(10) 0.04171(9)
C28_9 C 0.53847(11) 0.27752(9) 0.09110(11)
C29_9 C 0.57653(11) 0.28775(9) 0.06753(11)
H13_9 H 0.572264 0.276092 0.055468
C30_9 C 0.61457(13) 0.29671(11) 0.04440(11)
C31_9 C 0.59809(13) 0.30095(12) 0.06555(13)
C32_9 C 0.56143(13) 0.29180(11) 0.08722(12)
C33_9 C 0.56734(16) 0.30903(14) 0.10455(15)
H14_9 H 0.556771 0.311648 0.118006
N7_9 N 0.60598(17) 0.37295(18) 0.14127(17)
N8_9 N 0.59199(17) 0.34042(17) 0.11992(17)
H15_9 H 0.581350 0.340179 0.131909
C34_9 C 0.60382(18) 0.31881(17) 0.08186(17)
H16_9 H 0.617867 0.328639 0.079435
C35_9 C 0.6090(2) 0.3581(2) 0.1215(2)
C36_9 C 0.5887(2) 0.32263(19) 0.10248(19)
O23_9 O 0.72037(7) 0.46968(7) 0.10953(9)
O24_9 O 0.73501(6) 0.42670(7) 0.02993(7)
O25_9 O 0.72218(8) 0.38853(9) 0.02817(8)
O26_9 O 0.68987(10) 0.45829(9) 0.13293(10)
C37_9 C 0.72248(9) 0.40890(11) 0.03847(11)
C38_9 C 0.71225(9) 0.43247(11) 0.07653(11)
H17_9 H 0.723908 0.444532 0.072264
C39_9 C 0.70329(11) 0.45560(11) 0.11457(13)
C40_9 C 0.69905(12) 0.43445(13) 0.09809(13)
C41_9 C 0.70820(11) 0.41278(12) 0.06143(13)
C42_9 C 0.69097(14) 0.39545(15) 0.06734(16)
H18_9 H 0.688352 0.381994 0.056771
N9_9 N 0.62705(18) 0.35873(17) 0.10598(17)
N10_9 N 0.65958(17) 0.38008(17) 0.09199(17)
H19_9 H 0.659821 0.368091 0.081350
C43_9 C 0.68119(17) 0.41814(17) 0.10382(18)
H20_9 H 0.671361 0.420565 0.117867
C44_9 C 0.6419(2) 0.3785(2) 0.1090(2)
C45_9 C 0.67737(19) 0.39752(19) 0.0887(2)
O27_9 O 0.53032(7) 0.39047(9) 0.22037(7)
O30_9 O 0.54171(9) 0.36707(10) 0.18987(10)
C46_9 C 0.59110(11) 0.46153(11) 0.22248(9)
C47_9 C 0.56753(11) 0.42347(11) 0.21225(9)
H21_9 H 0.555468 0.427736 0.223908
C48_9 C 0.54440(11) 0.38543(13) 0.20329(11)
C49_9 C 0.56555(13) 0.40191(13) 0.19905(12)
C50_9 C 0.58722(12) 0.43857(13) 0.20820(11)
C51_9 C 0.60455(15) 0.43266(16) 0.19097(14)
H22_9 H 0.618006 0.443229 0.188352
N11_9 N 0.64127(17) 0.39402(17) 0.12705(18)
N12_9 N 0.61992(17) 0.40801(17) 0.15958(17)
H23_9 H 0.631909 0.418650 0.159821
C52_9 C 0.58186(17) 0.39618(18) 0.18119(17)
H24_9 H 0.579435 0.382133 0.171361
C53_9 C 0.6215(2) 0.3910(2) 0.1419(2)
C54_9 C 0.60248(19) 0.4113(2) 0.17737(19)
Tb4_17 Tb 0.60058(2) 0.25405(2) -0.000000
Tb5_9 Tb 0.74595(2) 0.500000 0.10058(2)
Tb7_9 Tb 0.500000 0.24595(2) 0.10058(2)
Tb9_17 Tb 0.75405(2) 0.39942(2) -0.000000
Tb4_18 Tb 0.60058(2) 0.25405(2) 1.000000
Tb9_18 Tb 0.75405(2) 0.39942(2) 1.000000
Tb4_19 Tb 0.39942(2) 0.25405(2) 0.000000
Tb9_19 Tb 0.24595(2) 0.39942(2) 0.000000
O19_10 O 0.39047(9) 0.27963(7) 0.96968(7)
O20_10 O 0.47007(7) 0.26499(6) 0.92670(7)
O21_10 O 0.47183(8) 0.27782(8) 0.88853(9)
O22_10 O 0.36707(10) 0.31013(10) 0.95829(9)
C28_10 C 0.46153(11) 0.27752(9) 0.90890(11)
C29_10 C 0.42347(11) 0.28775(9) 0.93247(11)
H13_10 H 0.427736 0.276092 0.944532
C30_10 C 0.38543(13) 0.29671(11) 0.95560(11)
C31_10 C 0.40191(13) 0.30095(12) 0.93445(13)
C32_10 C 0.43857(13) 0.29180(11) 0.91278(12)
C33_10 C 0.43266(16) 0.30903(14) 0.89545(15)
H14_10 H 0.443229 0.311648 0.881994
N7_10 N 0.39402(17) 0.37295(18) 0.85873(17)
N8_10 N 0.40801(17) 0.34042(17) 0.88008(17)
H15_10 H 0.418650 0.340179 0.868091
C34_10 C 0.39618(18) 0.31881(17) 0.91814(17)
H16_10 H 0.382133 0.328639 0.920565
C35_10 C 0.3910(2) 0.3581(2) 0.8785(2)
C36_10 C 0.4113(2) 0.32263(19) 0.89752(19)
O23_10 O 0.27963(7) 0.46968(7) 0.89047(9)
O24_10 O 0.26499(6) 0.42670(7) 0.97007(7)
O25_10 O 0.27782(8) 0.38853(9) 0.97183(8)
O26_10 O 0.31013(10) 0.45829(9) 0.86707(10)
C37_10 C 0.27752(9) 0.40890(11) 0.96153(11)
C38_10 C 0.28775(9) 0.43247(11) 0.92347(11)
H17_10 H 0.276092 0.444532 0.927736
C39_10 C 0.29671(11) 0.45560(11) 0.88543(13)
C40_10 C 0.30095(12) 0.43445(13) 0.90191(13)
C41_10 C 0.29180(11) 0.41278(12) 0.93857(13)
C42_10 C 0.30903(14) 0.39545(15) 0.93266(16)
H18_10 H 0.311648 0.381994 0.943229
N9_10 N 0.37295(18) 0.35873(17) 0.89402(17)
N10_10 N 0.34042(17) 0.38008(17) 0.90801(17)
H19_10 H 0.340179 0.368091 0.918650
C43_10 C 0.31881(17) 0.41814(17) 0.89618(18)
H20_10 H 0.328639 0.420565 0.882133
C44_10 C 0.3581(2) 0.3785(2) 0.8910(2)
C45_10 C 0.32263(19) 0.39752(19) 0.9113(2)
O27_10 O 0.46968(7) 0.39047(9) 0.77963(7)
O30_10 O 0.45829(9) 0.36707(10) 0.81013(10)
C46_10 C 0.40890(11) 0.46153(11) 0.77752(9)
C47_10 C 0.43247(11) 0.42347(11) 0.78775(9)
H21_10 H 0.444532 0.427736 0.776092
C48_10 C 0.45560(11) 0.38543(13) 0.79671(11)
C49_10 C 0.43445(13) 0.40191(13) 0.80095(12)
C50_10 C 0.41278(12) 0.43857(13) 0.79180(11)
C51_10 C 0.39545(15) 0.43266(16) 0.80903(14)
H22_10 H 0.381994 0.443229 0.811648
N11_10 N 0.35873(17) 0.39402(17) 0.87295(18)
N12_10 N 0.38008(17) 0.40801(17) 0.84042(17)
H23_10 H 0.368091 0.418650 0.840179
C52_10 C 0.41814(17) 0.39618(18) 0.81881(17)
H24_10 H 0.420565 0.382133 0.828639
C53_10 C 0.3785(2) 0.3910(2) 0.8581(2)
C54_10 C 0.39752(19) 0.4113(2) 0.82263(19)
Tb4_20 Tb 0.39942(2) 0.25405(2) 1.000000
Tb5_10 Tb 0.25405(2) 0.500000 0.89942(2)
Tb7_10 Tb 0.500000 0.24595(2) 0.89942(2)
Tb9_20 Tb 0.24595(2) 0.39942(2) 1.000000
Tb4_21 Tb 0.60058(2) 0.74595(2) 0.000000
Tb9_21 Tb 0.75405(2) 0.60058(2) 0.000000
O19_11 O 0.60953(9) 0.72037(7) 0.96968(7)
O20_11 O 0.52993(7) 0.73501(6) 0.92670(7)
O21_11 O 0.52817(8) 0.72218(8) 0.88853(9)
O22_11 O 0.63293(10) 0.68987(10) 0.95829(9)
C28_11 C 0.53847(11) 0.72248(9) 0.90890(11)
C29_11 C 0.57653(11) 0.71225(9) 0.93247(11)
H13_11 H 0.572264 0.723908 0.944532
C30_11 C 0.61457(13) 0.70329(11) 0.95560(11)
C31_11 C 0.59809(13) 0.69905(12) 0.93445(13)
C32_11 C 0.56143(13) 0.70820(11) 0.91278(12)
C33_11 C 0.56734(16) 0.69097(14) 0.89545(15)
H14_11 H 0.556771 0.688352 0.881994
N7_11 N 0.60598(17) 0.62705(18) 0.85873(17)
N8_11 N 0.59199(17) 0.65958(17) 0.88008(17)
H15_11 H 0.581350 0.659821 0.868091
C34_11 C 0.60382(18) 0.68119(17) 0.91814(17)
H16_11 H 0.617867 0.671361 0.920565
C35_11 C 0.6090(2) 0.6419(2) 0.8785(2)
C36_11 C 0.5887(2) 0.67737(19) 0.89752(19)
O23_11 O 0.72037(7) 0.53032(7) 0.89047(9)
O24_11 O 0.73501(6) 0.57330(7) 0.97007(7)
O25_11 O 0.72218(8) 0.61147(9) 0.97183(8)
O26_11 O 0.68987(10) 0.54171(9) 0.86707(10)
C37_11 C 0.72248(9) 0.59110(11) 0.96153(11)
C38_11 C 0.71225(9) 0.56753(11) 0.92347(11)
H17_11 H 0.723908 0.555468 0.927736
C39_11 C 0.70329(11) 0.54440(11) 0.88543(13)
C40_11 C 0.69905(12) 0.56555(13) 0.90191(13)
C41_11 C 0.70820(11) 0.58722(12) 0.93857(13)
C42_11 C 0.69097(14) 0.60455(15) 0.93266(16)
H18_11 H 0.688352 0.618006 0.943229
N9_11 N 0.62705(18) 0.64127(17) 0.89402(17)
N10_11 N 0.65958(17) 0.61992(17) 0.90801(17)
H19_11 H 0.659821 0.631909 0.918650
C43_11 C 0.68119(17) 0.58186(17) 0.89618(18)
H20_11 H 0.671361 0.579435 0.882133
C44_11 C 0.6419(2) 0.6215(2) 0.8910(2)
C45_11 C 0.67737(19) 0.60248(19) 0.9113(2)
O27_11 O 0.53032(7) 0.60953(9) 0.77963(7)
O30_11 O 0.54171(9) 0.63293(10) 0.81013(10)
C46_11 C 0.59110(11) 0.53847(11) 0.77752(9)
C47_11 C 0.56753(11) 0.57653(11) 0.78775(9)
H21_11 H 0.555468 0.572264 0.776092
C48_11 C 0.54440(11) 0.61457(13) 0.79671(11)
C49_11 C 0.56555(13) 0.59809(13) 0.80095(12)
C50_11 C 0.58722(12) 0.56143(13) 0.79180(11)
C51_11 C 0.60455(15) 0.56734(16) 0.80903(14)
H22_11 H 0.618006 0.556771 0.811648
N11_11 N 0.64127(17) 0.60598(17) 0.87295(18)
N12_11 N 0.61992(17) 0.59199(17) 0.84042(17)
H23_11 H 0.631909 0.581350 0.840179
C52_11 C 0.58186(17) 0.60382(18) 0.81881(17)
H24_11 H 0.579435 0.617867 0.828639
C53_11 C 0.6215(2) 0.6090(2) 0.8581(2)
C54_11 C 0.60248(19) 0.5887(2) 0.82263(19)
Tb4_22 Tb 0.60058(2) 0.74595(2) 1.000000
Tb5_11 Tb 0.74595(2) 0.500000 0.89942(2)
Tb7_11 Tb 0.500000 0.75405(2) 0.89942(2)
Tb9_22 Tb 0.75405(2) 0.60058(2) 1.000000
O19_12 O 0.39047(9) 0.72037(7) 0.03032(7)
O20_12 O 0.47007(7) 0.73501(6) 0.07330(7)
O21_12 O 0.47183(8) 0.72218(8) 0.11147(9)
O22_12 O 0.36707(10) 0.68987(10) 0.04171(9)
C28_12 C 0.46153(11) 0.72248(9) 0.09110(11)
C29_12 C 0.42347(11) 0.71225(9) 0.06753(11)
H13_12 H 0.427736 0.723908 0.055468
C30_12 C 0.38543(13) 0.70329(11) 0.04440(11)
C31_12 C 0.40191(13) 0.69905(12) 0.06555(13)
C32_12 C 0.43857(13) 0.70820(11) 0.08722(12)
C33_12 C 0.43266(16) 0.69097(14) 0.10455(15)
H14_12 H 0.443229 0.688352 0.118006
N7_12 N 0.39402(17) 0.62705(18) 0.14127(17)
N8_12 N 0.40801(17) 0.65958(17) 0.11992(17)
H15_12 H 0.418650 0.659821 0.131909
C34_12 C 0.39618(18) 0.68119(17) 0.08186(17)
H16_12 H 0.382133 0.671361 0.079435
C35_12 C 0.3910(2) 0.6419(2) 0.1215(2)
C36_12 C 0.4113(2) 0.67737(19) 0.10248(19)
O23_12 O 0.27963(7) 0.53032(7) 0.10953(9)
O24_12 O 0.26499(6) 0.57330(7) 0.02993(7)
O25_12 O 0.27782(8) 0.61147(9) 0.02817(8)
O26_12 O 0.31013(10) 0.54171(9) 0.13293(10)
C37_12 C 0.27752(9) 0.59110(11) 0.03847(11)
C38_12 C 0.28775(9) 0.56753(11) 0.07653(11)
H17_12 H 0.276092 0.555468 0.072264
C39_12 C 0.29671(11) 0.54440(11) 0.11457(13)
C40_12 C 0.30095(12) 0.56555(13) 0.09809(13)
C41_12 C 0.29180(11) 0.58722(12) 0.06143(13)
C42_12 C 0.30903(14) 0.60455(15) 0.06734(16)
H18_12 H 0.311648 0.618006 0.056771
N9_12 N 0.37295(18) 0.64127(17) 0.10598(17)
N10_12 N 0.34042(17) 0.61992(17) 0.09199(17)
H19_12 H 0.340179 0.631909 0.081350
C43_12 C 0.31881(17) 0.58186(17) 0.10382(18)
H20_12 H 0.328639 0.579435 0.117867
C44_12 C 0.3581(2) 0.6215(2) 0.1090(2)
C45_12 C 0.32263(19) 0.60248(19) 0.0887(2)
O27_12 O 0.46968(7) 0.60953(9) 0.22037(7)
O30_12 O 0.45829(9) 0.63293(10) 0.18987(10)
C46_12 C 0.40890(11) 0.53847(11) 0.22248(9)
C47_12 C 0.43247(11) 0.57653(11) 0.21225(9)
H21_12 H 0.444532 0.572264 0.223908
C48_12 C 0.45560(11) 0.61457(13) 0.20329(11)
C49_12 C 0.43445(13) 0.59809(13) 0.19905(12)
C50_12 C 0.41278(12) 0.56143(13) 0.20820(11)
C51_12 C 0.39545(15) 0.56734(16) 0.19097(14)
H22_12 H 0.381994 0.556771 0.188352
N11_12 N 0.35873(17) 0.60598(17) 0.12705(18)
N12_12 N 0.38008(17) 0.59199(17) 0.15958(17)
H23_12 H 0.368091 0.581350 0.159821
C52_12 C 0.41814(17) 0.60382(18) 0.18119(17)
H24_12 H 0.420565 0.617867 0.171361
C53_12 C 0.3785(2) 0.6090(2) 0.1419(2)
C54_12 C 0.39752(19) 0.5887(2) 0.17737(19)
Tb4_23 Tb 0.39942(2) 0.74595(2) -0.000000
Tb5_12 Tb 0.25405(2) 0.500000 0.10058(2)
Tb7_12 Tb 0.500000 0.75405(2) 0.10058(2)
Tb9_23 Tb 0.24595(2) 0.60058(2) -0.000000
Tb4_24 Tb 0.39942(2) 0.74595(2) 1.000000
Tb9_24 Tb 0.24595(2) 0.60058(2) 1.000000
Tb3_5 Tb 0.24595(2) -0.000000 0.10058(2)
O17_5 O 0.24843(11) -0.000000 0.14477(13)
O18_5 O 0.22202(10) -0.000000 0.06480(13)
Tb10_5 Tb 0.10058(2) -0.000000 0.25405(2)
O33_5 O 0.22037(7) 0.03032(7) 0.10953(9)
O37_5 O 0.26499(6) 0.02993(7) 0.07330(7)
O42_5 O 0.27782(8) 0.02817(8) 0.11147(9)
H29 H 0.204741 0.00321775 0.0691002
H30 H 0.227946 0.0128997 0.0535806
H36 H 0.259866 0.0129413 0.150169
Tb1_5 Tb -0.000000 0.89942(2) 0.24595(2)
O1_5 O 0.03032(7) 0.89047(9) 0.22037(7)
O2_5 O 0.07330(7) 0.97007(7) 0.23501(6)
O3_5 O -0.000000 0.85523(13) 0.24843(11)
O4_5 O 0.11147(9) 0.97183(8) 0.22218(8)
O5_5 O 0.04171(9) 0.86707(10) 0.18987(10)
O6_5 O 0.000000 0.93520(13) 0.22202(10)
C1_5 C 0.09110(11) 0.96153(11) 0.22248(9)
C2_5 C 0.06753(11) 0.92347(11) 0.21225(9)
H1_5 H 0.055468 0.927736 0.223908
C3_5 C 0.04440(11) 0.88543(13) 0.20329(11)
C4_5 C 0.06555(13) 0.90191(13) 0.19905(12)
C5_5 C 0.08722(12) 0.93857(13) 0.20820(11)
C6_5 C 0.10455(15) 0.93266(16) 0.19097(14)
H2_5 H 0.118006 0.943229 0.188352
N1_5 N 0.14127(17) 0.89402(17) 0.12705(18)
N2_5 N 0.11992(17) 0.90801(17) 0.15958(17)
H3_5 H 0.131909 0.918650 0.159821
C7_5 C 0.08186(17) 0.89618(18) 0.18119(17)
H4_5 H 0.079435 0.882133 0.171361
C8_5 C 0.1215(2) 0.8910(2) 0.1419(2)
C9_5 C 0.10248(19) 0.9113(2) 0.17737(19)
O7_5 O 0.10953(9) 0.77963(7) 0.03032(7)
O8_5 O 0.02993(7) 0.76499(6) 0.07330(7)
O9_5 O 0.02817(8) 0.77782(8) 0.11147(9)
O10_5 O 0.13293(10) 0.81013(10) 0.04171(9)
C10_5 C 0.03847(11) 0.77752(9) 0.09110(11)
C11_5 C 0.07653(11) 0.78775(9) 0.06753(11)
H5_5 H 0.072264 0.776092 0.055468
C12_5 C 0.11457(13) 0.79671(11) 0.04440(11)
C13_5 C 0.09809(13) 0.80095(12) 0.06555(13)
C14_5 C 0.06143(13) 0.79180(11) 0.08722(12)
C15_5 C 0.06734(16) 0.80903(14) 0.10455(15)
H6_5 H 0.056771 0.811648 0.118006
N3_5 N 0.10598(17) 0.87295(18) 0.14127(17)
N4_5 N 0.09199(17) 0.84042(17) 0.11992(17)
H7_5 H 0.081350 0.840179 0.131909
C16_5 C 0.10382(18) 0.81881(17) 0.08186(17)
H8_5 H 0.117867 0.828639 0.079435
C17_5 C 0.1090(2) 0.8581(2) 0.1215(2)
C18_5 C 0.0887(2) 0.82263(19) 0.10248(19)
O11_5 O 0.22037(7) 0.96968(7) 0.10953(9)
O12_5 O 0.23501(6) 0.92670(7) 0.02993(7)
O13_5 O 0.22218(8) 0.88853(9) 0.02817(8)
O14_5 O 0.18987(10) 0.95829(9) 0.13293(10)
C19_5 C 0.22248(9) 0.90890(11) 0.03847(11)
C20_5 C 0.21225(9) 0.93247(11) 0.07653(11)
H9_5 H 0.223908 0.944532 0.072264
C21_5 C 0.20329(11) 0.95560(11) 0.11457(13)
C22_5 C 0.19905(12) 0.93445(13) 0.09809(13)
C23_5 C 0.20820(11) 0.91278(12) 0.06143(13)
C24_5 C 0.19097(14) 0.89545(15) 0.06734(16)
H10_5 H 0.188352 0.881994 0.056771
N5_5 N 0.12705(18) 0.85873(17) 0.10598(17)
N6_5 N 0.15958(17) 0.88008(17) 0.09199(17)
H11_5 H 0.159821 0.868091 0.081350
C25_5 C 0.18119(17) 0.91814(17) 0.10382(18)
H12_5 H 0.171361 0.920565 0.117867
C26_5 C 0.1419(2) 0.8785(2) 0.1090(2)
C27_5 C 0.17737(19) 0.89752(19) 0.0887(2)
Tb2_5 Tb 0.10058(2) 0.75405(2) 0.000000
O15_5 O 0.14477(13) 0.75157(11) 0.000000
O16_5 O 0.06480(13) 0.77798(10) 0.000000
Tb3_6 Tb 0.24595(2) 1.000000 0.10058(2)
O17_6 O 0.24843(11) 1.000000 0.14477(13)
O18_6 O 0.22202(10) 1.000000 0.06480(13)
O19_13 O 0.10953(9) 0.53032(7) 0.22037(7)
O20_13 O 0.02993(7) 0.57330(7) 0.23501(6)
O21_13 O 0.02817(8) 0.61147(9) 0.22218(8)
O22_13 O 0.13293(10) 0.54171(9) 0.18987(10)
C28_13 C 0.03847(11) 0.59110(11) 0.22248(9)
C29_13 C 0.07653(11) 0.56753(11) 0.21225(9)
H13_13 H 0.072264 0.555468 0.223908
C30_13 C 0.11457(13) 0.54440(11) 0.20329(11)
C31_13 C 0.09809(13) 0.56555(13) 0.19905(12)
C32_13 C 0.06143(13) 0.58722(12) 0.20820(11)
C33_13 C 0.06734(16) 0.60455(15) 0.19097(14)
H14_13 H 0.056771 0.618006 0.188352
N7_13 N 0.10598(17) 0.64127(17) 0.12705(18)
N8_13 N 0.09199(17) 0.61992(17) 0.15958(17)
H15_13 H 0.081350 0.631909 0.159821
C34_13 C 0.10382(18) 0.58186(17) 0.18119(17)
H16_13 H 0.117867 0.579435 0.171361
C35_13 C 0.1090(2) 0.6215(2) 0.1419(2)
C36_13 C 0.0887(2) 0.60248(19) 0.17737(19)
O23_13 O 0.22037(7) 0.60953(9) 0.03032(7)
O24_13 O 0.23501(6) 0.52993(7) 0.07330(7)
O25_13 O 0.22218(8) 0.52817(8) 0.11147(9)
O26_13 O 0.18987(10) 0.63293(10) 0.04171(9)
C37_13 C 0.22248(9) 0.53847(11) 0.09110(11)
C38_13 C 0.21225(9) 0.57653(11) 0.06753(11)
H17_13 H 0.223908 0.572264 0.055468
C39_13 C 0.20329(11) 0.61457(13) 0.04440(11)
C40_13 C 0.19905(12) 0.59809(13) 0.06555(13)
C41_13 C 0.20820(11) 0.56143(13) 0.08722(12)
C42_13 C 0.19097(14) 0.56734(16) 0.10455(15)
H18_13 H 0.188352 0.556771 0.118006
N9_13 N 0.12705(18) 0.60598(17) 0.14127(17)
N10_13 N 0.15958(17) 0.59199(17) 0.11992(17)
H19_13 H 0.159821 0.581350 0.131909
C43_13 C 0.18119(17) 0.60382(18) 0.08186(17)
H20_13 H 0.171361 0.617867 0.079435
C44_13 C 0.1419(2) 0.6090(2) 0.1215(2)
C45_13 C 0.17737(19) 0.5887(2) 0.10248(19)
O27_13 O 0.03032(7) 0.72037(7) 0.10953(9)
O28_5 O 0.07330(7) 0.73501(6) 0.02993(7)
O29_5 O 0.11147(9) 0.72218(8) 0.02817(8)
O30_13 O 0.04171(9) 0.68987(10) 0.13293(10)
C46_13 C 0.09110(11) 0.72248(9) 0.03847(11)
C47_13 C 0.06753(11) 0.71225(9) 0.07653(11)
H21_13 H 0.055468 0.723908 0.072264
C48_13 C 0.04440(11) 0.70329(11) 0.11457(13)
C49_13 C 0.06555(13) 0.69905(12) 0.09809(13)
C50_13 C 0.08722(12) 0.70820(11) 0.06143(13)
C51_13 C 0.10455(15) 0.69097(14) 0.06734(16)
H22_13 H 0.118006 0.688352 0.056771
N11_13 N 0.14127(17) 0.62705(18) 0.10598(17)
N12_13 N 0.11992(17) 0.65958(17) 0.09199(17)
H23_13 H 0.131909 0.659821 0.081350
C52_13 C 0.08186(17) 0.68119(17) 0.10382(18)
H24_13 H 0.079435 0.671361 0.117867
C53_13 C 0.1215(2) 0.6419(2) 0.1090(2)
C54_13 C 0.10248(19) 0.67737(19) 0.0887(2)
Tb6_5 Tb -0.000000 0.74595(2) 0.10058(2)
Tb8_5 Tb 0.25405(2) 0.89942(2) 0.000000
Tb10_6 Tb 0.10058(2) 1.000000 0.25405(2)
O34_5 O 0.26499(6) 0.97007(7) 0.07330(7)
O35_5 O 0.02993(7) 0.92670(7) 0.26499(6)
O39_5 O 0.27782(8) 0.97183(8) 0.11147(9)
O40_5 O 0.02817(8) 0.88853(9) 0.27782(8)
H25 H 0.0160965 0.849525 0.254409
H33 H 0.150475 0.745591 0.0160965
H35 H 0.254409 0.983903 0.150475
Tb2_6 Tb 0.10058(2) 0.75405(2) 1.000000
O15_6 O 0.14477(13) 0.75157(11) 1.000000
O16_6 O 0.06480(13) 0.77798(10) 1.000000
Tb8_6 Tb 0.25405(2) 0.89942(2) 1.000000
O32_5 O 0.10953(9) 0.77963(7) 0.96968(7)
O36_5 O 0.07330(7) 0.73501(6) 0.97007(7)
O41_5 O 0.11147(9) 0.72218(8) 0.97183(8)
H31 H 0.0691002 0.795259 0.996782
H32 H 0.0535806 0.772054 0.9871
H34 H 0.150169 0.740134 0.987059
Tb1_6 Tb 1.000000 0.89942(2) 0.24595(2)
O3_6 O 1.000000 0.85523(13) 0.24843(11)
O6_6 O 1.000000 0.93520(13) 0.22202(10)
Tb6_6 Tb 1.000000 0.74595(2) 0.10058(2)
O31_5 O 0.96968(7) 0.89047(9) 0.22037(7)
O38_5 O 0.97007(7) 0.92670(7) 0.26499(6)
O43_5 O 0.97183(8) 0.88853(9) 0.27782(8)
H26 H 0.987059 0.849831 0.259866
H27 H 0.996782 0.9309 0.204741
H28 H 0.9871 0.946419 0.227946
Tb1_7 Tb -0.000000 0.10058(2) 0.24595(2)
O3_7 O -0.000000 0.14477(13) 0.24843(11)
O6_7 O -0.000000 0.06480(13) 0.22202(10)
Tb6_7 Tb -0.000000 0.25405(2) 0.10058(2)
O31_6 O 0.03032(7) 0.10953(9) 0.22037(7)
O38_6 O 0.02993(7) 0.07330(7) 0.26499(6)
O43_6 O 0.02817(8) 0.11147(9) 0.27782(8)
H26_2 H 0.0129413 0.150169 0.259866
H27_2 H 0.00321775 0.0691002 0.204741
H28_2 H 0.0128997 0.0535806 0.227946
Tb1_8 Tb 1.000000 0.10058(2) 0.24595(2)
O1_6 O 0.96968(7) 0.10953(9) 0.22037(7)
O2_6 O 0.92670(7) 0.02993(7) 0.23501(6)
O3_8 O 1.000000 0.14477(13) 0.24843(11)
O4_6 O 0.88853(9) 0.02817(8) 0.22218(8)
O5_6 O 0.95829(9) 0.13293(10) 0.18987(10)
O6_8 O 1.000000 0.06480(13) 0.22202(10)
C1_6 C 0.90890(11) 0.03847(11) 0.22248(9)
C2_6 C 0.93247(11) 0.07653(11) 0.21225(9)
H1_6 H 0.944532 0.072264 0.223908
C3_6 C 0.95560(11) 0.11457(13) 0.20329(11)
C4_6 C 0.93445(13) 0.09809(13) 0.19905(12)
C5_6 C 0.91278(12) 0.06143(13) 0.20820(11)
C6_6 C 0.89545(15) 0.06734(16) 0.19097(14)
H2_6 H 0.881994 0.056771 0.188352
N1_6 N 0.85873(17) 0.10598(17) 0.12705(18)
N2_6 N 0.88008(17) 0.09199(17) 0.15958(17)
H3_6 H 0.868091 0.081350 0.159821
C7_6 C 0.91814(17) 0.10382(18) 0.18119(17)
H4_6 H 0.920565 0.117867 0.171361
C8_6 C 0.8785(2) 0.1090(2) 0.1419(2)
C9_6 C 0.89752(19) 0.0887(2) 0.17737(19)
O7_6 O 0.89047(9) 0.22037(7) 0.03032(7)
O8_6 O 0.97007(7) 0.23501(6) 0.07330(7)
O9_6 O 0.97183(8) 0.22218(8) 0.11147(9)
O10_6 O 0.86707(10) 0.18987(10) 0.04171(9)
C10_6 C 0.96153(11) 0.22248(9) 0.09110(11)
C11_6 C 0.92347(11) 0.21225(9) 0.06753(11)
H5_6 H 0.927736 0.223908 0.055468
C12_6 C 0.88543(13) 0.20329(11) 0.04440(11)
C13_6 C 0.90191(13) 0.19905(12) 0.06555(13)
C14_6 C 0.93857(13) 0.20820(11) 0.08722(12)
C15_6 C 0.93266(16) 0.19097(14) 0.10455(15)
H6_6 H 0.943229 0.188352 0.118006
N3_6 N 0.89402(17) 0.12705(18) 0.14127(17)
N4_6 N 0.90801(17) 0.15958(17) 0.11992(17)
H7_6 H 0.918650 0.159821 0.131909
C16_6 C 0.89618(18) 0.18119(17) 0.08186(17)
H8_6 H 0.882133 0.171361 0.079435
C17_6 C 0.8910(2) 0.1419(2) 0.1215(2)
C18_6 C 0.9113(2) 0.17737(19) 0.10248(19)
O11_6 O 0.77963(7) 0.03032(7) 0.10953(9)
O12_6 O 0.76499(6) 0.07330(7) 0.02993(7)
O13_6 O 0.77782(8) 0.11147(9) 0.02817(8)
O14_6 O 0.81013(10) 0.04171(9) 0.13293(10)
C19_6 C 0.77752(9) 0.09110(11) 0.03847(11)
C20_6 C 0.78775(9) 0.06753(11) 0.07653(11)
H9_6 H 0.776092 0.055468 0.072264
C21_6 C 0.79671(11) 0.04440(11) 0.11457(13)
C22_6 C 0.80095(12) 0.06555(13) 0.09809(13)
C23_6 C 0.79180(11) 0.08722(12) 0.06143(13)
C24_6 C 0.80903(14) 0.10455(15) 0.06734(16)
H10_6 H 0.811648 0.118006 0.056771
N5_6 N 0.87295(18) 0.14127(17) 0.10598(17)
N6_6 N 0.84042(17) 0.11992(17) 0.09199(17)
H11_6 H 0.840179 0.131909 0.081350
C25_6 C 0.81881(17) 0.08186(17) 0.10382(18)
H12_6 H 0.828639 0.079435 0.117867
C26_6 C 0.8581(2) 0.1215(2) 0.1090(2)
C27_6 C 0.82263(19) 0.10248(19) 0.0887(2)
Tb2_7 Tb 0.89942(2) 0.24595(2) 0.000000
O15_7 O 0.85523(13) 0.24843(11) 0.000000
O16_7 O 0.93520(13) 0.22202(10) 0.000000
Tb3_7 Tb 0.75405(2) 0.000000 0.10058(2)
O17_7 O 0.75157(11) 0.000000 0.14477(13)
O18_7 O 0.77798(10) 0.000000 0.06480(13)
O19_14 O 0.89047(9) 0.46968(7) 0.22037(7)
O20_14 O 0.97007(7) 0.42670(7) 0.23501(6)
O21_14 O 0.97183(8) 0.38853(9) 0.22218(8)
O22_14 O 0.86707(10) 0.45829(9) 0.18987(10)
C28_14 C 0.96153(11) 0.40890(11) 0.22248(9)
C29_14 C 0.92347(11) 0.43247(11) 0.21225(9)
H13_14 H 0.927736 0.444532 0.223908
C30_14 C 0.88543(13) 0.45560(11) 0.20329(11)
C31_14 C 0.90191(13) 0.43445(13) 0.19905(12)
C32_14 C 0.93857(13) 0.41278(12) 0.20820(11)
C33_14 C 0.93266(16) 0.39545(15) 0.19097(14)
H14_14 H 0.943229 0.381994 0.188352
N7_14 N 0.89402(17) 0.35873(17) 0.12705(18)
N8_14 N 0.90801(17) 0.38008(17) 0.15958(17)
H15_14 H 0.918650 0.368091 0.159821
C34_14 C 0.89618(18) 0.41814(17) 0.18119(17)
H16_14 H 0.882133 0.420565 0.171361
C35_14 C 0.8910(2) 0.3785(2) 0.1419(2)
C36_14 C 0.9113(2) 0.39752(19) 0.17737(19)
O23_14 O 0.77963(7) 0.39047(9) 0.03032(7)
O24_14 O 0.76499(6) 0.47007(7) 0.07330(7)
O25_14 O 0.77782(8) 0.47183(8) 0.11147(9)
O26_14 O 0.81013(10) 0.36707(10) 0.04171(9)
C37_14 C 0.77752(9) 0.46153(11) 0.09110(11)
C38_14 C 0.78775(9) 0.42347(11) 0.06753(11)
H17_14 H 0.776092 0.427736 0.055468
C39_14 C 0.79671(11) 0.38543(13) 0.04440(11)
C40_14 C 0.80095(12) 0.40191(13) 0.06555(13)
C41_14 C 0.79180(11) 0.43857(13) 0.08722(12)
C42_14 C 0.80903(14) 0.43266(16) 0.10455(15)
H18_14 H 0.811648 0.443229 0.118006
N9_14 N 0.87295(18) 0.39402(17) 0.14127(17)
N10_14 N 0.84042(17) 0.40801(17) 0.11992(17)
H19_14 H 0.840179 0.418650 0.131909
C43_14 C 0.81881(17) 0.39618(18) 0.08186(17)
H20_14 H 0.828639 0.382133 0.079435
C44_14 C 0.8581(2) 0.3910(2) 0.1215(2)
C45_14 C 0.82263(19) 0.4113(2) 0.10248(19)
O27_14 O 0.96968(7) 0.27963(7) 0.10953(9)
O28_6 O 0.92670(7) 0.26499(6) 0.02993(7)
O29_6 O 0.88853(9) 0.27782(8) 0.02817(8)
O30_14 O 0.95829(9) 0.31013(10) 0.13293(10)
C46_14 C 0.90890(11) 0.27752(9) 0.03847(11)
C47_14 C 0.93247(11) 0.28775(9) 0.07653(11)
H21_14 H 0.944532 0.276092 0.072264
C48_14 C 0.95560(11) 0.29671(11) 0.11457(13)
C49_14 C 0.93445(13) 0.30095(12) 0.09809(13)
C50_14 C 0.91278(12) 0.29180(11) 0.06143(13)
C51_14 C 0.89545(15) 0.30903(14) 0.06734(16)
H22_14 H 0.881994 0.311648 0.056771
N11_14 N 0.85873(17) 0.37295(18) 0.10598(17)
N12_14 N 0.88008(17) 0.34042(17) 0.09199(17)
H23_14 H 0.868091 0.340179 0.081350
C52_14 C 0.91814(17) 0.31881(17) 0.10382(18)
H24_14 H 0.920565 0.328639 0.117867
C53_14 C 0.8785(2) 0.3581(2) 0.1090(2)
C54_14 C 0.89752(19) 0.32263(19) 0.0887(2)
Tb6_8 Tb 1.000000 0.25405(2) 0.10058(2)
Tb8_7 Tb 0.74595(2) 0.10058(2) 0.000000
Tb10_7 Tb 0.89942(2) 0.000000 0.25405(2)
O34_6 O 0.73501(6) 0.02993(7) 0.07330(7)
O35_6 O 0.97007(7) 0.07330(7) 0.26499(6)
O39_6 O 0.72218(8) 0.02817(8) 0.11147(9)
O40_6 O 0.97183(8) 0.11147(9) 0.27782(8)
H25_2 H 0.983903 0.150475 0.254409
H33_2 H 0.849525 0.254409 0.0160965
H35_2 H 0.745591 0.0160965 0.150475
Tb2_8 Tb 0.89942(2) 0.24595(2) 1.000000
O15_8 O 0.85523(13) 0.24843(11) 1.000000
O16_8 O 0.93520(13) 0.22202(10) 1.000000
Tb8_8 Tb 0.74595(2) 0.10058(2) 1.000000
O32_6 O 0.89047(9) 0.22037(7) 0.96968(7)
O36_6 O 0.92670(7) 0.26499(6) 0.97007(7)
O41_6 O 0.88853(9) 0.27782(8) 0.97183(8)
H31_2 H 0.9309 0.204741 0.996782
H32_2 H 0.946419 0.227946 0.9871
H34_2 H 0.849831 0.259866 0.987059
Tb3_8 Tb 0.75405(2) 1.000000 0.10058(2)
O17_8 O 0.75157(11) 1.000000 0.14477(13)
O18_8 O 0.77798(10) 1.000000 0.06480(13)
Tb10_8 Tb 0.89942(2) 1.000000 0.25405(2)
O33_6 O 0.77963(7) 0.96968(7) 0.10953(9)
O37_6 O 0.73501(6) 0.97007(7) 0.07330(7)
O42_6 O 0.72218(8) 0.97183(8) 0.11147(9)
H29_2 H 0.795259 0.996782 0.0691002
H30_2 H 0.772054 0.9871 0.0535806
H36_2 H 0.740134 0.987059 0.150169
Tb2_9 Tb 0.10058(2) 0.24595(2) 0.000000
O15_9 O 0.14477(13) 0.24843(11) 0.000000
O16_9 O 0.06480(13) 0.22202(10) 0.000000
Tb8_9 Tb 0.25405(2) 0.10058(2) 0.000000
O32_7 O 0.10953(9) 0.22037(7) 0.03032(7)
O36_7 O 0.07330(7) 0.26499(6) 0.02993(7)
O41_7 O 0.11147(9) 0.27782(8) 0.02817(8)
H31_3 H 0.0691002 0.204741 0.00321775
H32_3 H 0.0535806 0.227946 0.0128997
H34_3 H 0.150169 0.259866 0.0129413
Tb1_9 Tb -0.000000 0.10058(2) 0.75405(2)
O1_7 O 0.03032(7) 0.10953(9) 0.77963(7)
O2_7 O 0.07330(7) 0.02993(7) 0.76499(6)
O3_9 O 0.000000 0.14477(13) 0.75157(11)
O4_7 O 0.11147(9) 0.02817(8) 0.77782(8)
O5_7 O 0.04171(9) 0.13293(10) 0.81013(10)
O6_9 O -0.000000 0.06480(13) 0.77798(10)
C1_7 C 0.09110(11) 0.03847(11) 0.77752(9)
C2_7 C 0.06753(11) 0.07653(11) 0.78775(9)
H1_7 H 0.055468 0.072264 0.776092
C3_7 C 0.04440(11) 0.11457(13) 0.79671(11)
C4_7 C 0.06555(13) 0.09809(13) 0.80095(12)
C5_7 C 0.08722(12) 0.06143(13) 0.79180(11)
C6_7 C 0.10455(15) 0.06734(16) 0.80903(14)
H2_7 H 0.118006 0.056771 0.811648
N1_7 N 0.14127(17) 0.10598(17) 0.87295(18)
N2_7 N 0.11992(17) 0.09199(17) 0.84042(17)
H3_7 H 0.131909 0.081350 0.840179
C7_7 C 0.08186(17) 0.10382(18) 0.81881(17)
H4_7 H 0.079435 0.117867 0.828639
C8_7 C 0.1215(2) 0.1090(2) 0.8581(2)
C9_7 C 0.10248(19) 0.0887(2) 0.82263(19)
O7_7 O 0.10953(9) 0.22037(7) 0.96968(7)
O8_7 O 0.02993(7) 0.23501(6) 0.92670(7)
O9_7 O 0.02817(8) 0.22218(8) 0.88853(9)
O10_7 O 0.13293(10) 0.18987(10) 0.95829(9)
C10_7 C 0.03847(11) 0.22248(9) 0.90890(11)
C11_7 C 0.07653(11) 0.21225(9) 0.93247(11)
H5_7 H 0.072264 0.223908 0.944532
C12_7 C 0.11457(13) 0.20329(11) 0.95560(11)
C13_7 C 0.09809(13) 0.19905(12) 0.93445(13)
C14_7 C 0.06143(13) 0.20820(11) 0.91278(12)
C15_7 C 0.06734(16) 0.19097(14) 0.89545(15)
H6_7 H 0.056771 0.188352 0.881994
N3_7 N 0.10598(17) 0.12705(18) 0.85873(17)
N4_7 N 0.09199(17) 0.15958(17) 0.88008(17)
H7_7 H 0.081350 0.159821 0.868091
C16_7 C 0.10382(18) 0.18119(17) 0.91814(17)
H8_7 H 0.117867 0.171361 0.920565
C17_7 C 0.1090(2) 0.1419(2) 0.8785(2)
C18_7 C 0.0887(2) 0.17737(19) 0.89752(19)
O11_7 O 0.22037(7) 0.03032(7) 0.89047(9)
O12_7 O 0.23501(6) 0.07330(7) 0.97007(7)
O13_7 O 0.22218(8) 0.11147(9) 0.97183(8)
O14_7 O 0.18987(10) 0.04171(9) 0.86707(10)
C19_7 C 0.22248(9) 0.09110(11) 0.96153(11)
C20_7 C 0.21225(9) 0.06753(11) 0.92347(11)
H9_7 H 0.223908 0.055468 0.927736
C21_7 C 0.20329(11) 0.04440(11) 0.88543(13)
C22_7 C 0.19905(12) 0.06555(13) 0.90191(13)
C23_7 C 0.20820(11) 0.08722(12) 0.93857(13)
C24_7 C 0.19097(14) 0.10455(15) 0.93266(16)
H10_7 H 0.188352 0.118006 0.943229
N5_7 N 0.12705(18) 0.14127(17) 0.89402(17)
N6_7 N 0.15958(17) 0.11992(17) 0.90801(17)
H11_7 H 0.159821 0.131909 0.918650
C25_7 C 0.18119(17) 0.08186(17) 0.89618(18)
H12_7 H 0.171361 0.079435 0.882133
C26_7 C 0.1419(2) 0.1215(2) 0.8910(2)
C27_7 C 0.17737(19) 0.10248(19) 0.9113(2)
Tb2_10 Tb 0.10058(2) 0.24595(2) 1.000000
O15_10 O 0.14477(13) 0.24843(11) 1.000000
O16_10 O 0.06480(13) 0.22202(10) 1.000000
Tb3_9 Tb 0.24595(2) 0.000000 0.89942(2)
O17_9 O 0.24843(11) 0.000000 0.85523(13)
O18_9 O 0.22202(10) 0.000000 0.93520(13)
O19_15 O 0.10953(9) 0.46968(7) 0.77963(7)
O20_15 O 0.02993(7) 0.42670(7) 0.76499(6)
O21_15 O 0.02817(8) 0.38853(9) 0.77782(8)
O22_15 O 0.13293(10) 0.45829(9) 0.81013(10)
C28_15 C 0.03847(11) 0.40890(11) 0.77752(9)
C29_15 C 0.07653(11) 0.43247(11) 0.78775(9)
H13_15 H 0.072264 0.444532 0.776092
C30_15 C 0.11457(13) 0.45560(11) 0.79671(11)
C31_15 C 0.09809(13) 0.43445(13) 0.80095(12)
C32_15 C 0.06143(13) 0.41278(12) 0.79180(11)
C33_15 C 0.06734(16) 0.39545(15) 0.80903(14)
H14_15 H 0.056771 0.381994 0.811648
N7_15 N 0.10598(17) 0.35873(17) 0.87295(18)
N8_15 N 0.09199(17) 0.38008(17) 0.84042(17)
H15_15 H 0.081350 0.368091 0.840179
C34_15 C 0.10382(18) 0.41814(17) 0.81881(17)
H16_15 H 0.117867 0.420565 0.828639
C35_15 C 0.1090(2) 0.3785(2) 0.8581(2)
C36_15 C 0.0887(2) 0.39752(19) 0.82263(19)
O23_15 O 0.22037(7) 0.39047(9) 0.96968(7)
O24_15 O 0.23501(6) 0.47007(7) 0.92670(7)
O25_15 O 0.22218(8) 0.47183(8) 0.88853(9)
O26_15 O 0.18987(10) 0.36707(10) 0.95829(9)
C37_15 C 0.22248(9) 0.46153(11) 0.90890(11)
C38_15 C 0.21225(9) 0.42347(11) 0.93247(11)
H17_15 H 0.223908 0.427736 0.944532
C39_15 C 0.20329(11) 0.38543(13) 0.95560(11)
C40_15 C 0.19905(12) 0.40191(13) 0.93445(13)
C41_15 C 0.20820(11) 0.43857(13) 0.91278(12)
C42_15 C 0.19097(14) 0.43266(16) 0.89545(15)
H18_15 H 0.188352 0.443229 0.881994
N9_15 N 0.12705(18) 0.39402(17) 0.85873(17)
N10_15 N 0.15958(17) 0.40801(17) 0.88008(17)
H19_15 H 0.159821 0.418650 0.868091
C43_15 C 0.18119(17) 0.39618(18) 0.91814(17)
H20_15 H 0.171361 0.382133 0.920565
C44_15 C 0.1419(2) 0.3910(2) 0.8785(2)
C45_15 C 0.17737(19) 0.4113(2) 0.89752(19)
O27_15 O 0.03032(7) 0.27963(7) 0.89047(9)
O28_7 O 0.07330(7) 0.26499(6) 0.97007(7)
O29_7 O 0.11147(9) 0.27782(8) 0.97183(8)
O30_15 O 0.04171(9) 0.31013(10) 0.86707(10)
C46_15 C 0.09110(11) 0.27752(9) 0.96153(11)
C47_15 C 0.06753(11) 0.28775(9) 0.92347(11)
H21_15 H 0.055468 0.276092 0.927736
C48_15 C 0.04440(11) 0.29671(11) 0.88543(13)
C49_15 C 0.06555(13) 0.30095(12) 0.90191(13)
C50_15 C 0.08722(12) 0.29180(11) 0.93857(13)
C51_15 C 0.10455(15) 0.30903(14) 0.93266(16)
H22_15 H 0.118006 0.311648 0.943229
N11_15 N 0.14127(17) 0.37295(18) 0.89402(17)
N12_15 N 0.11992(17) 0.34042(17) 0.90801(17)
H23_15 H 0.131909 0.340179 0.918650
C52_15 C 0.08186(17) 0.31881(17) 0.89618(18)
H24_15 H 0.079435 0.328639 0.882133
C53_15 C 0.1215(2) 0.3581(2) 0.8910(2)
C54_15 C 0.10248(19) 0.32263(19) 0.9113(2)
Tb6_9 Tb -0.000000 0.25405(2) 0.89942(2)
Tb8_10 Tb 0.25405(2) 0.10058(2) 1.000000
Tb10_9 Tb 0.10058(2) 0.000000 0.74595(2)
O34_7 O 0.26499(6) 0.02993(7) 0.92670(7)
O35_7 O 0.02993(7) 0.07330(7) 0.73501(6)
O39_7 O 0.27782(8) 0.02817(8) 0.88853(9)
O40_7 O 0.02817(8) 0.11147(9) 0.72218(8)
H25_3 H 0.0160965 0.150475 0.745591
H33_3 H 0.150475 0.254409 0.983903
H35_3 H 0.254409 0.0160965 0.849525
Tb3_10 Tb 0.24595(2) 1.000000 0.89942(2)
O17_10 O 0.24843(11) 1.000000 0.85523(13)
O18_10 O 0.22202(10) 1.000000 0.93520(13)
Tb10_10 Tb 0.10058(2) 1.000000 0.74595(2)
O33_7 O 0.22037(7) 0.96968(7) 0.89047(9)
O37_7 O 0.26499(6) 0.97007(7) 0.92670(7)
O42_7 O 0.27782(8) 0.97183(8) 0.88853(9)
H29_3 H 0.204741 0.996782 0.9309
H30_3 H 0.227946 0.9871 0.946419
H36_3 H 0.259866 0.987059 0.849831
Tb1_10 Tb 1.000000 0.10058(2) 0.75405(2)
O3_10 O 1.000000 0.14477(13) 0.75157(11)
O6_10 O 1.000000 0.06480(13) 0.77798(10)
Tb6_10 Tb 1.000000 0.25405(2) 0.89942(2)
O31_7 O 0.96968(7) 0.10953(9) 0.77963(7)
O38_7 O 0.97007(7) 0.07330(7) 0.73501(6)
O43_7 O 0.97183(8) 0.11147(9) 0.72218(8)
H26_3 H 0.987059 0.150169 0.740134
H27_3 H 0.996782 0.0691002 0.795259
H28_3 H 0.9871 0.0535806 0.772054
Tb1_11 Tb 0.000000 0.89942(2) 0.75405(2)
O3_11 O -0.000000 0.85523(13) 0.75157(11)
O6_11 O 0.000000 0.93520(13) 0.77798(10)
Tb6_11 Tb -0.000000 0.74595(2) 0.89942(2)
O31_8 O 0.03032(7) 0.89047(9) 0.77963(7)
O38_8 O 0.02993(7) 0.92670(7) 0.73501(6)
O43_8 O 0.02817(8) 0.88853(9) 0.72218(8)
H26_4 H 0.0129413 0.849831 0.740134
H27_4 H 0.00321775 0.9309 0.795259
H28_4 H 0.0128997 0.946419 0.772054
Tb3_11 Tb 0.75405(2) -0.000000 0.89942(2)
O17_11 O 0.75157(11) -0.000000 0.85523(13)
O18_11 O 0.77798(10) -0.000000 0.93520(13)
Tb10_11 Tb 0.89942(2) -0.000000 0.74595(2)
O33_8 O 0.77963(7) 0.03032(7) 0.89047(9)
O37_8 O 0.73501(6) 0.02993(7) 0.92670(7)
O42_8 O 0.72218(8) 0.02817(8) 0.88853(9)
H29_4 H 0.795259 0.00321775 0.9309
H30_4 H 0.772054 0.0128997 0.946419
H36_4 H 0.740134 0.0129413 0.849831
Tb2_11 Tb 0.89942(2) 0.75405(2) 0.000000
O15_11 O 0.85523(13) 0.75157(11) 0.000000
O16_11 O 0.93520(13) 0.77798(10) 0.000000
Tb8_11 Tb 0.74595(2) 0.89942(2) 0.000000
O32_8 O 0.89047(9) 0.77963(7) 0.03032(7)
O36_8 O 0.92670(7) 0.73501(6) 0.02993(7)
O41_8 O 0.88853(9) 0.72218(8) 0.02817(8)
H31_4 H 0.9309 0.795259 0.00321775
H32_4 H 0.946419 0.772054 0.0128997
H34_4 H 0.849831 0.740134 0.0129413
Tb1_12 Tb 1.000000 0.89942(2) 0.75405(2)
O1_8 O 0.96968(7) 0.89047(9) 0.77963(7)
O2_8 O 0.92670(7) 0.97007(7) 0.76499(6)
O3_12 O 1.000000 0.85523(13) 0.75157(11)
O4_8 O 0.88853(9) 0.97183(8) 0.77782(8)
O5_8 O 0.95829(9) 0.86707(10) 0.81013(10)
O6_12 O 1.000000 0.93520(13) 0.77798(10)
C1_8 C 0.90890(11) 0.96153(11) 0.77752(9)
C2_8 C 0.93247(11) 0.92347(11) 0.78775(9)
H1_8 H 0.944532 0.927736 0.776092
C3_8 C 0.95560(11) 0.88543(13) 0.79671(11)
C4_8 C 0.93445(13) 0.90191(13) 0.80095(12)
C5_8 C 0.91278(12) 0.93857(13) 0.79180(11)
C6_8 C 0.89545(15) 0.93266(16) 0.80903(14)
H2_8 H 0.881994 0.943229 0.811648
N1_8 N 0.85873(17) 0.89402(17) 0.87295(18)
N2_8 N 0.88008(17) 0.90801(17) 0.84042(17)
H3_8 H 0.868091 0.918650 0.840179
C7_8 C 0.91814(17) 0.89618(18) 0.81881(17)
H4_8 H 0.920565 0.882133 0.828639
C8_8 C 0.8785(2) 0.8910(2) 0.8581(2)
C9_8 C 0.89752(19) 0.9113(2) 0.82263(19)
O7_8 O 0.89047(9) 0.77963(7) 0.96968(7)
O8_8 O 0.97007(7) 0.76499(6) 0.92670(7)
O9_8 O 0.97183(8) 0.77782(8) 0.88853(9)
O10_8 O 0.86707(10) 0.81013(10) 0.95829(9)
C10_8 C 0.96153(11) 0.77752(9) 0.90890(11)
C11_8 C 0.92347(11) 0.78775(9) 0.93247(11)
H5_8 H 0.927736 0.776092 0.944532
C12_8 C 0.88543(13) 0.79671(11) 0.95560(11)
C13_8 C 0.90191(13) 0.80095(12) 0.93445(13)
C14_8 C 0.93857(13) 0.79180(11) 0.91278(12)
C15_8 C 0.93266(16) 0.80903(14) 0.89545(15)
H6_8 H 0.943229 0.811648 0.881994
N3_8 N 0.89402(17) 0.87295(18) 0.85873(17)
N4_8 N 0.90801(17) 0.84042(17) 0.88008(17)
H7_8 H 0.918650 0.840179 0.868091
C16_8 C 0.89618(18) 0.81881(17) 0.91814(17)
H8_8 H 0.882133 0.828639 0.920565
C17_8 C 0.8910(2) 0.8581(2) 0.8785(2)
C18_8 C 0.9113(2) 0.82263(19) 0.89752(19)
O11_8 O 0.77963(7) 0.96968(7) 0.89047(9)
O12_8 O 0.76499(6) 0.92670(7) 0.97007(7)
O13_8 O 0.77782(8) 0.88853(9) 0.97183(8)
O14_8 O 0.81013(10) 0.95829(9) 0.86707(10)
C19_8 C 0.77752(9) 0.90890(11) 0.96153(11)
C20_8 C 0.78775(9) 0.93247(11) 0.92347(11)
H9_8 H 0.776092 0.944532 0.927736
C21_8 C 0.79671(11) 0.95560(11) 0.88543(13)
C22_8 C 0.80095(12) 0.93445(13) 0.90191(13)
C23_8 C 0.79180(11) 0.91278(12) 0.93857(13)
C24_8 C 0.80903(14) 0.89545(15) 0.93266(16)
H10_8 H 0.811648 0.881994 0.943229
N5_8 N 0.87295(18) 0.85873(17) 0.89402(17)
N6_8 N 0.84042(17) 0.88008(17) 0.90801(17)
H11_8 H 0.840179 0.868091 0.918650
C25_8 C 0.81881(17) 0.91814(17) 0.89618(18)
H12_8 H 0.828639 0.920565 0.882133
C26_8 C 0.8581(2) 0.8785(2) 0.8910(2)
C27_8 C 0.82263(19) 0.89752(19) 0.9113(2)
Tb2_12 Tb 0.89942(2) 0.75405(2) 1.000000
O15_12 O 0.85523(13) 0.75157(11) 1.000000
O16_12 O 0.93520(13) 0.77798(10) 1.000000
Tb3_12 Tb 0.75405(2) 1.000000 0.89942(2)
O17_12 O 0.75157(11) 1.000000 0.85523(13)
O18_12 O 0.77798(10) 1.000000 0.93520(13)
O19_16 O 0.89047(9) 0.53032(7) 0.77963(7)
O20_16 O 0.97007(7) 0.57330(7) 0.76499(6)
O21_16 O 0.97183(8) 0.61147(9) 0.77782(8)
O22_16 O 0.86707(10) 0.54171(9) 0.81013(10)
C28_16 C 0.96153(11) 0.59110(11) 0.77752(9)
C29_16 C 0.92347(11) 0.56753(11) 0.78775(9)
H13_16 H 0.927736 0.555468 0.776092
C30_16 C 0.88543(13) 0.54440(11) 0.79671(11)
C31_16 C 0.90191(13) 0.56555(13) 0.80095(12)
C32_16 C 0.93857(13) 0.58722(12) 0.79180(11)
C33_16 C 0.93266(16) 0.60455(15) 0.80903(14)
H14_16 H 0.943229 0.618006 0.811648
N7_16 N 0.89402(17) 0.64127(17) 0.87295(18)
N8_16 N 0.90801(17) 0.61992(17) 0.84042(17)
H15_16 H 0.918650 0.631909 0.840179
C34_16 C 0.89618(18) 0.58186(17) 0.81881(17)
H16_16 H 0.882133 0.579435 0.828639
C35_16 C 0.8910(2) 0.6215(2) 0.8581(2)
C36_16 C 0.9113(2) 0.60248(19) 0.82263(19)
O23_16 O 0.77963(7) 0.60953(9) 0.96968(7)
O24_16 O 0.76499(6) 0.52993(7) 0.92670(7)
O25_16 O 0.77782(8) 0.52817(8) 0.88853(9)
O26_16 O 0.81013(10) 0.63293(10) 0.95829(9)
C37_16 C 0.77752(9) 0.53847(11) 0.90890(11)
C38_16 C 0.78775(9) 0.57653(11) 0.93247(11)
H17_16 H 0.776092 0.572264 0.944532
C39_16 C 0.79671(11) 0.61457(13) 0.95560(11)
C40_16 C 0.80095(12) 0.59809(13) 0.93445(13)
C41_16 C 0.79180(11) 0.56143(13) 0.91278(12)
C42_16 C 0.80903(14) 0.56734(16) 0.89545(15)
H18_16 H 0.811648 0.556771 0.881994
N9_16 N 0.87295(18) 0.60598(17) 0.85873(17)
N10_16 N 0.84042(17) 0.59199(17) 0.88008(17)
H19_16 H 0.840179 0.581350 0.868091
C43_16 C 0.81881(17) 0.60382(18) 0.91814(17)
H20_16 H 0.828639 0.617867 0.920565
C44_16 C 0.8581(2) 0.6090(2) 0.8785(2)
C45_16 C 0.82263(19) 0.5887(2) 0.89752(19)
O27_16 O 0.96968(7) 0.72037(7) 0.89047(9)
O28_8 O 0.92670(7) 0.73501(6) 0.97007(7)
O29_8 O 0.88853(9) 0.72218(8) 0.97183(8)
O30_16 O 0.95829(9) 0.68987(10) 0.86707(10)
C46_16 C 0.90890(11) 0.72248(9) 0.96153(11)
C47_16 C 0.93247(11) 0.71225(9) 0.92347(11)
H21_16 H 0.944532 0.723908 0.927736
C48_16 C 0.95560(11) 0.70329(11) 0.88543(13)
C49_16 C 0.93445(13) 0.69905(12) 0.90191(13)
C50_16 C 0.91278(12) 0.70820(11) 0.93857(13)
C51_16 C 0.89545(15) 0.69097(14) 0.93266(16)
H22_16 H 0.881994 0.688352 0.943229
N11_16 N 0.85873(17) 0.62705(18) 0.89402(17)
N12_16 N 0.88008(17) 0.65958(17) 0.90801(17)
H23_16 H 0.868091 0.659821 0.918650
C52_16 C 0.91814(17) 0.68119(17) 0.89618(18)
H24_16 H 0.920565 0.671361 0.882133
C53_16 C 0.8785(2) 0.6419(2) 0.8910(2)
C54_16 C 0.89752(19) 0.67737(19) 0.9113(2)
Tb6_12 Tb 1.000000 0.74595(2) 0.89942(2)
Tb8_12 Tb 0.74595(2) 0.89942(2) 1.000000
Tb10_12 Tb 0.89942(2) 1.000000 0.74595(2)
O34_8 O 0.73501(6) 0.97007(7) 0.92670(7)
O35_8 O 0.97007(7) 0.92670(7) 0.73501(6)
O39_8 O 0.72218(8) 0.97183(8) 0.88853(9)
O40_8 O 0.97183(8) 0.88853(9) 0.72218(8)
H25_4 H 0.983903 0.849525 0.745591
H33_4 H 0.849525 0.745591 0.983903
H35_4 H 0.745591 0.983903 0.849525
O19_17 O 0.53032(7) 0.77963(7) 0.89047(9)
O20_17 O 0.57330(7) 0.76499(6) 0.97007(7)
O21_17 O 0.61147(9) 0.77782(8) 0.97183(8)
O22_17 O 0.54171(9) 0.81013(10) 0.86707(10)
C28_17 C 0.59110(11) 0.77752(9) 0.96153(11)
C29_17 C 0.56753(11) 0.78775(9) 0.92347(11)
H13_17 H 0.555468 0.776092 0.927736
C30_17 C 0.54440(11) 0.79671(11) 0.88543(13)
C31_17 C 0.56555(13) 0.80095(12) 0.90191(13)
C32_17 C 0.58722(12) 0.79180(11) 0.93857(13)
C33_17 C 0.60455(15) 0.80903(14) 0.93266(16)
H14_17 H 0.618006 0.811648 0.943229
N7_17 N 0.64127(17) 0.87295(18) 0.89402(17)
N8_17 N 0.61992(17) 0.84042(17) 0.90801(17)
H15_17 H 0.631909 0.840179 0.918650
C34_17 C 0.58186(17) 0.81881(17) 0.89618(18)
H16_17 H 0.579435 0.828639 0.882133
C35_17 C 0.6215(2) 0.8581(2) 0.8910(2)
C36_17 C 0.60248(19) 0.82263(19) 0.9113(2)
O23_17 O 0.60953(9) 0.96968(7) 0.77963(7)
O24_17 O 0.52993(7) 0.92670(7) 0.76499(6)
O25_17 O 0.52817(8) 0.88853(9) 0.77782(8)
O26_17 O 0.63293(10) 0.95829(9) 0.81013(10)
C37_17 C 0.53847(11) 0.90890(11) 0.77752(9)
C38_17 C 0.57653(11) 0.93247(11) 0.78775(9)
H17_17 H 0.572264 0.944532 0.776092
C39_17 C 0.61457(13) 0.95560(11) 0.79671(11)
C40_17 C 0.59809(13) 0.93445(13) 0.80095(12)
C41_17 C 0.56143(13) 0.91278(12) 0.79180(11)
C42_17 C 0.56734(16) 0.89545(15) 0.80903(14)
H18_17 H 0.556771 0.881994 0.811648
N9_17 N 0.60598(17) 0.85873(17) 0.87295(18)
N10_17 N 0.59199(17) 0.88008(17) 0.84042(17)
H19_17 H 0.581350 0.868091 0.840179
C43_17 C 0.60382(18) 0.91814(17) 0.81881(17)
H20_17 H 0.617867 0.920565 0.828639
C44_17 C 0.6090(2) 0.8785(2) 0.8581(2)
C45_17 C 0.5887(2) 0.89752(19) 0.82263(19)
O27_17 O 0.72037(7) 0.89047(9) 0.96968(7)
O30_17 O 0.68987(10) 0.86707(10) 0.95829(9)
C46_17 C 0.72248(9) 0.96153(11) 0.90890(11)
C47_17 C 0.71225(9) 0.92347(11) 0.93247(11)
H21_17 H 0.723908 0.927736 0.944532
C48_17 C 0.70329(11) 0.88543(13) 0.95560(11)
C49_17 C 0.69905(12) 0.90191(13) 0.93445(13)
C50_17 C 0.70820(11) 0.93857(13) 0.91278(12)
C51_17 C 0.69097(14) 0.93266(16) 0.89545(15)
H22_17 H 0.688352 0.943229 0.881994
N11_17 N 0.62705(18) 0.89402(17) 0.85873(17)
N12_17 N 0.65958(17) 0.90801(17) 0.88008(17)
H23_17 H 0.659821 0.918650 0.868091
C52_17 C 0.68119(17) 0.89618(18) 0.91814(17)
H24_17 H 0.671361 0.882133 0.920565
C53_17 C 0.6419(2) 0.8910(2) 0.8785(2)
C54_17 C 0.67737(19) 0.9113(2) 0.89752(19)
O19_18 O 0.46968(7) 0.77963(7) 0.10953(9)
O20_18 O 0.42670(7) 0.76499(6) 0.02993(7)
O21_18 O 0.38853(9) 0.77782(8) 0.02817(8)
O22_18 O 0.45829(9) 0.81013(10) 0.13293(10)
C28_18 C 0.40890(11) 0.77752(9) 0.03847(11)
C29_18 C 0.43247(11) 0.78775(9) 0.07653(11)
H13_18 H 0.444532 0.776092 0.072264
C30_18 C 0.45560(11) 0.79671(11) 0.11457(13)
C31_18 C 0.43445(13) 0.80095(12) 0.09809(13)
C32_18 C 0.41278(12) 0.79180(11) 0.06143(13)
C33_18 C 0.39545(15) 0.80903(14) 0.06734(16)
H14_18 H 0.381994 0.811648 0.056771
N7_18 N 0.35873(17) 0.87295(18) 0.10598(17)
N8_18 N 0.38008(17) 0.84042(17) 0.09199(17)
H15_18 H 0.368091 0.840179 0.081350
C34_18 C 0.41814(17) 0.81881(17) 0.10382(18)
H16_18 H 0.420565 0.828639 0.117867
C35_18 C 0.3785(2) 0.8581(2) 0.1090(2)
C36_18 C 0.39752(19) 0.82263(19) 0.0887(2)
O23_18 O 0.39047(9) 0.96968(7) 0.22037(7)
O24_18 O 0.47007(7) 0.92670(7) 0.23501(6)
O25_18 O 0.47183(8) 0.88853(9) 0.22218(8)
O26_18 O 0.36707(10) 0.95829(9) 0.18987(10)
C37_18 C 0.46153(11) 0.90890(11) 0.22248(9)
C38_18 C 0.42347(11) 0.93247(11) 0.21225(9)
H17_18 H 0.427736 0.944532 0.223908
C39_18 C 0.38543(13) 0.95560(11) 0.20329(11)
C40_18 C 0.40191(13) 0.93445(13) 0.19905(12)
C41_18 C 0.43857(13) 0.91278(12) 0.20820(11)
C42_18 C 0.43266(16) 0.89545(15) 0.19097(14)
H18_18 H 0.443229 0.881994 0.188352
N9_18 N 0.39402(17) 0.85873(17) 0.12705(18)
N10_18 N 0.40801(17) 0.88008(17) 0.15958(17)
H19_18 H 0.418650 0.868091 0.159821
C43_18 C 0.39618(18) 0.91814(17) 0.18119(17)
H20_18 H 0.382133 0.920565 0.171361
C44_18 C 0.3910(2) 0.8785(2) 0.1419(2)
C45_18 C 0.4113(2) 0.89752(19) 0.17737(19)
O27_18 O 0.27963(7) 0.89047(9) 0.03032(7)
O30_18 O 0.31013(10) 0.86707(10) 0.04171(9)
C46_18 C 0.27752(9) 0.96153(11) 0.09110(11)
C47_18 C 0.28775(9) 0.92347(11) 0.06753(11)
H21_18 H 0.276092 0.927736 0.055468
C48_18 C 0.29671(11) 0.88543(13) 0.04440(11)
C49_18 C 0.30095(12) 0.90191(13) 0.06555(13)
C50_18 C 0.29180(11) 0.93857(13) 0.08722(12)
C51_18 C 0.30903(14) 0.93266(16) 0.10455(15)
H22_18 H 0.311648 0.943229 0.118006
N11_18 N 0.37295(18) 0.89402(17) 0.14127(17)
N12_18 N 0.34042(17) 0.90801(17) 0.11992(17)
H23_18 H 0.340179 0.918650 0.131909
C52_18 C 0.31881(17) 0.89618(18) 0.08186(17)
H24_18 H 0.328639 0.882133 0.079435
C53_18 C 0.3581(2) 0.8910(2) 0.1215(2)
C54_18 C 0.32263(19) 0.9113(2) 0.10248(19)
O19_19 O 0.46968(7) 0.22037(7) 0.89047(9)
O20_19 O 0.42670(7) 0.23501(6) 0.97007(7)
O21_19 O 0.38853(9) 0.22218(8) 0.97183(8)
O22_19 O 0.45829(9) 0.18987(10) 0.86707(10)
C28_19 C 0.40890(11) 0.22248(9) 0.96153(11)
C29_19 C 0.43247(11) 0.21225(9) 0.92347(11)
H13_19 H 0.444532 0.223908 0.927736
C30_19 C 0.45560(11) 0.20329(11) 0.88543(13)
C31_19 C 0.43445(13) 0.19905(12) 0.90191(13)
C32_19 C 0.41278(12) 0.20820(11) 0.93857(13)
C33_19 C 0.39545(15) 0.19097(14) 0.93266(16)
H14_19 H 0.381994 0.188352 0.943229
N7_19 N 0.35873(17) 0.12705(18) 0.89402(17)
N8_19 N 0.38008(17) 0.15958(17) 0.90801(17)
H15_19 H 0.368091 0.159821 0.918650
C34_19 C 0.41814(17) 0.18119(17) 0.89618(18)
H16_19 H 0.420565 0.171361 0.882133
C35_19 C 0.3785(2) 0.1419(2) 0.8910(2)
C36_19 C 0.39752(19) 0.17737(19) 0.9113(2)
O23_19 O 0.39047(9) 0.03032(7) 0.77963(7)
O24_19 O 0.47007(7) 0.07330(7) 0.76499(6)
O25_19 O 0.47183(8) 0.11147(9) 0.77782(8)
O26_19 O 0.36707(10) 0.04171(9) 0.81013(10)
C37_19 C 0.46153(11) 0.09110(11) 0.77752(9)
C38_19 C 0.42347(11) 0.06753(11) 0.78775(9)
H17_19 H 0.427736 0.055468 0.776092
C39_19 C 0.38543(13) 0.04440(11) 0.79671(11)
C40_19 C 0.40191(13) 0.06555(13) 0.80095(12)
C41_19 C 0.43857(13) 0.08722(12) 0.79180(11)
C42_19 C 0.43266(16) 0.10455(15) 0.80903(14)
H18_19 H 0.443229 0.118006 0.811648
N9_19 N 0.39402(17) 0.14127(17) 0.87295(18)
N10_19 N 0.40801(17) 0.11992(17) 0.84042(17)
H19_19 H 0.418650 0.131909 0.840179
C43_19 C 0.39618(18) 0.08186(17) 0.81881(17)
H20_19 H 0.382133 0.079435 0.828639
C44_19 C 0.3910(2) 0.1215(2) 0.8581(2)
C45_19 C 0.4113(2) 0.10248(19) 0.82263(19)
O27_19 O 0.27963(7) 0.10953(9) 0.96968(7)
O30_19 O 0.31013(10) 0.13293(10) 0.95829(9)
C46_19 C 0.27752(9) 0.03847(11) 0.90890(11)
C47_19 C 0.28775(9) 0.07653(11) 0.93247(11)
H21_19 H 0.276092 0.072264 0.944532
C48_19 C 0.29671(11) 0.11457(13) 0.95560(11)
C49_19 C 0.30095(12) 0.09809(13) 0.93445(13)
C50_19 C 0.29180(11) 0.06143(13) 0.91278(12)
C51_19 C 0.30903(14) 0.06734(16) 0.89545(15)
H22_19 H 0.311648 0.056771 0.881994
N11_19 N 0.37295(18) 0.10598(17) 0.85873(17)
N12_19 N 0.34042(17) 0.09199(17) 0.88008(17)
H23_19 H 0.340179 0.081350 0.868091
C52_19 C 0.31881(17) 0.10382(18) 0.91814(17)
H24_19 H 0.328639 0.117867 0.920565
C53_19 C 0.3581(2) 0.1090(2) 0.8785(2)
C54_19 C 0.32263(19) 0.0887(2) 0.89752(19)
O19_20 O 0.53032(7) 0.22037(7) 0.10953(9)
O20_20 O 0.57330(7) 0.23501(6) 0.02993(7)
O21_20 O 0.61147(9) 0.22218(8) 0.02817(8)
O22_20 O 0.54171(9) 0.18987(10) 0.13293(10)
C28_20 C 0.59110(11) 0.22248(9) 0.03847(11)
C29_20 C 0.56753(11) 0.21225(9) 0.07653(11)
H13_20 H 0.555468 0.223908 0.072264
C30_20 C 0.54440(11) 0.20329(11) 0.11457(13)
C31_20 C 0.56555(13) 0.19905(12) 0.09809(13)
C32_20 C 0.58722(12) 0.20820(11) 0.06143(13)
C33_20 C 0.60455(15) 0.19097(14) 0.06734(16)
H14_20 H 0.618006 0.188352 0.056771
N7_20 N 0.64127(17) 0.12705(18) 0.10598(17)
N8_20 N 0.61992(17) 0.15958(17) 0.09199(17)
H15_20 H 0.631909 0.159821 0.081350
C34_20 C 0.58186(17) 0.18119(17) 0.10382(18)
H16_20 H 0.579435 0.171361 0.117867
C35_20 C 0.6215(2) 0.1419(2) 0.1090(2)
C36_20 C 0.60248(19) 0.17737(19) 0.0887(2)
O23_20 O 0.60953(9) 0.03032(7) 0.22037(7)
O24_20 O 0.52993(7) 0.07330(7) 0.23501(6)
O25_20 O 0.52817(8) 0.11147(9) 0.22218(8)
O26_20 O 0.63293(10) 0.04171(9) 0.18987(10)
C37_20 C 0.53847(11) 0.09110(11) 0.22248(9)
C38_20 C 0.57653(11) 0.06753(11) 0.21225(9)
H17_20 H 0.572264 0.055468 0.223908
C39_20 C 0.61457(13) 0.04440(11) 0.20329(11)
C40_20 C 0.59809(13) 0.06555(13) 0.19905(12)
C41_20 C 0.56143(13) 0.08722(12) 0.20820(11)
C42_20 C 0.56734(16) 0.10455(15) 0.19097(14)
H18_20 H 0.556771 0.118006 0.188352
N9_20 N 0.60598(17) 0.14127(17) 0.12705(18)
N10_20 N 0.59199(17) 0.11992(17) 0.15958(17)
H19_20 H 0.581350 0.131909 0.159821
C43_20 C 0.60382(18) 0.08186(17) 0.18119(17)
H20_20 H 0.617867 0.079435 0.171361
C44_20 C 0.6090(2) 0.1215(2) 0.1419(2)
C45_20 C 0.5887(2) 0.10248(19) 0.17737(19)
O27_20 O 0.72037(7) 0.10953(9) 0.03032(7)
O30_20 O 0.68987(10) 0.13293(10) 0.04171(9)
C46_20 C 0.72248(9) 0.03847(11) 0.09110(11)
C47_20 C 0.71225(9) 0.07653(11) 0.06753(11)
H21_20 H 0.723908 0.072264 0.055468
C48_20 C 0.70329(11) 0.11457(13) 0.04440(11)
C49_20 C 0.69905(12) 0.09809(13) 0.06555(13)
C50_20 C 0.70820(11) 0.06143(13) 0.08722(12)
C51_20 C 0.69097(14) 0.06734(16) 0.10455(15)
H22_20 H 0.688352 0.056771 0.118006
N11_20 N 0.62705(18) 0.10598(17) 0.14127(17)
N12_20 N 0.65958(17) 0.09199(17) 0.11992(17)
H23_20 H 0.659821 0.081350 0.131909
C52_20 C 0.68119(17) 0.10382(18) 0.08186(17)
H24_20 H 0.671361 0.117867 0.079435
C53_20 C 0.6419(2) 0.1090(2) 0.1215(2)
C54_20 C 0.67737(19) 0.0887(2) 0.10248(19)
O19_21 O 0.77963(7) 0.10953(9) 0.46968(7)
O20_21 O 0.76499(6) 0.02993(7) 0.42670(7)
O21_21 O 0.77782(8) 0.02817(8) 0.38853(9)
O22_21 O 0.81013(10) 0.13293(10) 0.45829(9)
C28_21 C 0.77752(9) 0.03847(11) 0.40890(11)
C29_21 C 0.78775(9) 0.07653(11) 0.43247(11)
H13_21 H 0.776092 0.072264 0.444532
C30_21 C 0.79671(11) 0.11457(13) 0.45560(11)
C31_21 C 0.80095(12) 0.09809(13) 0.43445(13)
C32_21 C 0.79180(11) 0.06143(13) 0.41278(12)
C33_21 C 0.80903(14) 0.06734(16) 0.39545(15)
H14_21 H 0.811648 0.056771 0.381994
N7_21 N 0.87295(18) 0.10598(17) 0.35873(17)
N8_21 N 0.84042(17) 0.09199(17) 0.38008(17)
H15_21 H 0.840179 0.081350 0.368091
C34_21 C 0.81881(17) 0.10382(18) 0.41814(17)
H16_21 H 0.828639 0.117867 0.420565
C35_21 C 0.8581(2) 0.1090(2) 0.3785(2)
C36_21 C 0.82263(19) 0.0887(2) 0.39752(19)
O23_21 O 0.96968(7) 0.22037(7) 0.39047(9)
O24_21 O 0.92670(7) 0.23501(6) 0.47007(7)
O25_21 O 0.88853(9) 0.22218(8) 0.47183(8)
O26_21 O 0.95829(9) 0.18987(10) 0.36707(10)
C37_21 C 0.90890(11) 0.22248(9) 0.46153(11)
C38_21 C 0.93247(11) 0.21225(9) 0.42347(11)
H17_21 H 0.944532 0.223908 0.427736
C39_21 C 0.95560(11) 0.20329(11) 0.38543(13)
C40_21 C 0.93445(13) 0.19905(12) 0.40191(13)
C41_21 C 0.91278(12) 0.20820(11) 0.43857(13)
C42_21 C 0.89545(15) 0.19097(14) 0.43266(16)
H18_21 H 0.881994 0.188352 0.443229
N9_21 N 0.85873(17) 0.12705(18) 0.39402(17)
N10_21 N 0.88008(17) 0.15958(17) 0.40801(17)
H19_21 H 0.868091 0.159821 0.418650
C43_21 C 0.91814(17) 0.18119(17) 0.39618(18)
H20_21 H 0.920565 0.171361 0.382133
C44_21 C 0.8785(2) 0.1419(2) 0.3910(2)
C45_21 C 0.89752(19) 0.17737(19) 0.4113(2)
O27_21 O 0.89047(9) 0.03032(7) 0.27963(7)
O30_21 O 0.86707(10) 0.04171(9) 0.31013(10)
C46_21 C 0.96153(11) 0.09110(11) 0.27752(9)
C47_21 C 0.92347(11) 0.06753(11) 0.28775(9)
H21_21 H 0.927736 0.055468 0.276092
C48_21 C 0.88543(13) 0.04440(11) 0.29671(11)
C49_21 C 0.90191(13) 0.06555(13) 0.30095(12)
C50_21 C 0.93857(13) 0.08722(12) 0.29180(11)
C51_21 C 0.93266(16) 0.10455(15) 0.30903(14)
H22_21 H 0.943229 0.118006 0.311648
N11_21 N 0.89402(17) 0.14127(17) 0.37295(18)
N12_21 N 0.90801(17) 0.11992(17) 0.34042(17)
H23_21 H 0.918650 0.131909 0.340179
C52_21 C 0.89618(18) 0.08186(17) 0.31881(17)
H24_21 H 0.882133 0.079435 0.328639
C53_21 C 0.8910(2) 0.1215(2) 0.3581(2)
C54_21 C 0.9113(2) 0.10248(19) 0.32263(19)
O19_22 O 0.77963(7) 0.89047(9) 0.53032(7)
O20_22 O 0.76499(6) 0.97007(7) 0.57330(7)
O21_22 O 0.77782(8) 0.97183(8) 0.61147(9)
O22_22 O 0.81013(10) 0.86707(10) 0.54171(9)
C28_22 C 0.77752(9) 0.96153(11) 0.59110(11)
C29_22 C 0.78775(9) 0.92347(11) 0.56753(11)
H13_22 H 0.776092 0.927736 0.555468
C30_22 C 0.79671(11) 0.88543(13) 0.54440(11)
C31_22 C 0.80095(12) 0.90191(13) 0.56555(13)
C32_22 C 0.79180(11) 0.93857(13) 0.58722(12)
C33_22 C 0.80903(14) 0.93266(16) 0.60455(15)
H14_22 H 0.811648 0.943229 0.618006
N7_22 N 0.87295(18) 0.89402(17) 0.64127(17)
N8_22 N 0.84042(17) 0.90801(17) 0.61992(17)
H15_22 H 0.840179 0.918650 0.631909
C34_22 C 0.81881(17) 0.89618(18) 0.58186(17)
H16_22 H 0.828639 0.882133 0.579435
C35_22 C 0.8581(2) 0.8910(2) 0.6215(2)
C36_22 C 0.82263(19) 0.9113(2) 0.60248(19)
O23_22 O 0.96968(7) 0.77963(7) 0.60953(9)
O24_22 O 0.92670(7) 0.76499(6) 0.52993(7)
O25_22 O 0.88853(9) 0.77782(8) 0.52817(8)
O26_22 O 0.95829(9) 0.81013(10) 0.63293(10)
C37_22 C 0.90890(11) 0.77752(9) 0.53847(11)
C38_22 C 0.93247(11) 0.78775(9) 0.57653(11)
H17_22 H 0.944532 0.776092 0.572264
C39_22 C 0.95560(11) 0.79671(11) 0.61457(13)
C40_22 C 0.93445(13) 0.80095(12) 0.59809(13)
C41_22 C 0.91278(12) 0.79180(11) 0.56143(13)
C42_22 C 0.89545(15) 0.80903(14) 0.56734(16)
H18_22 H 0.881994 0.811648 0.556771
N9_22 N 0.85873(17) 0.87295(18) 0.60598(17)
N10_22 N 0.88008(17) 0.84042(17) 0.59199(17)
H19_22 H 0.868091 0.840179 0.581350
C43_22 C 0.91814(17) 0.81881(17) 0.60382(18)
H20_22 H 0.920565 0.828639 0.617867
C44_22 C 0.8785(2) 0.8581(2) 0.6090(2)
C45_22 C 0.89752(19) 0.82263(19) 0.5887(2)
O27_22 O 0.89047(9) 0.96968(7) 0.72037(7)
O30_22 O 0.86707(10) 0.95829(9) 0.68987(10)
C46_22 C 0.96153(11) 0.90890(11) 0.72248(9)
C47_22 C 0.92347(11) 0.93247(11) 0.71225(9)
H21_22 H 0.927736 0.944532 0.723908
C48_22 C 0.88543(13) 0.95560(11) 0.70329(11)
C49_22 C 0.90191(13) 0.93445(13) 0.69905(12)
C50_22 C 0.93857(13) 0.91278(12) 0.70820(11)
C51_22 C 0.93266(16) 0.89545(15) 0.69097(14)
H22_22 H 0.943229 0.881994 0.688352
N11_22 N 0.89402(17) 0.85873(17) 0.62705(18)
N12_22 N 0.90801(17) 0.88008(17) 0.65958(17)
H23_22 H 0.918650 0.868091 0.659821
C52_22 C 0.89618(18) 0.91814(17) 0.68119(17)
H24_22 H 0.882133 0.920565 0.671361
C53_22 C 0.8910(2) 0.8785(2) 0.6419(2)
C54_22 C 0.9113(2) 0.89752(19) 0.67737(19)
O19_23 O 0.22037(7) 0.10953(9) 0.53032(7)
O20_23 O 0.23501(6) 0.02993(7) 0.57330(7)
O21_23 O 0.22218(8) 0.02817(8) 0.61147(9)
O22_23 O 0.18987(10) 0.13293(10) 0.54171(9)
C28_23 C 0.22248(9) 0.03847(11) 0.59110(11)
C29_23 C 0.21225(9) 0.07653(11) 0.56753(11)
H13_23 H 0.223908 0.072264 0.555468
C30_23 C 0.20329(11) 0.11457(13) 0.54440(11)
C31_23 C 0.19905(12) 0.09809(13) 0.56555(13)
C32_23 C 0.20820(11) 0.06143(13) 0.58722(12)
C33_23 C 0.19097(14) 0.06734(16) 0.60455(15)
H14_23 H 0.188352 0.056771 0.618006
N7_23 N 0.12705(18) 0.10598(17) 0.64127(17)
N8_23 N 0.15958(17) 0.09199(17) 0.61992(17)
H15_23 H 0.159821 0.081350 0.631909
C34_23 C 0.18119(17) 0.10382(18) 0.58186(17)
H16_23 H 0.171361 0.117867 0.579435
C35_23 C 0.1419(2) 0.1090(2) 0.6215(2)
C36_23 C 0.17737(19) 0.0887(2) 0.60248(19)
O23_23 O 0.03032(7) 0.22037(7) 0.60953(9)
O24_23 O 0.07330(7) 0.23501(6) 0.52993(7)
O25_23 O 0.11147(9) 0.22218(8) 0.52817(8)
O26_23 O 0.04171(9) 0.18987(10) 0.63293(10)
C37_23 C 0.09110(11) 0.22248(9) 0.53847(11)
C38_23 C 0.06753(11) 0.21225(9) 0.57653(11)
H17_23 H 0.055468 0.223908 0.572264
C39_23 C 0.04440(11) 0.20329(11) 0.61457(13)
C40_23 C 0.06555(13) 0.19905(12) 0.59809(13)
C41_23 C 0.08722(12) 0.20820(11) 0.56143(13)
C42_23 C 0.10455(15) 0.19097(14) 0.56734(16)
H18_23 H 0.118006 0.188352 0.556771
N9_23 N 0.14127(17) 0.12705(18) 0.60598(17)
N10_23 N 0.11992(17) 0.15958(17) 0.59199(17)
H19_23 H 0.131909 0.159821 0.581350
C43_23 C 0.08186(17) 0.18119(17) 0.60382(18)
H20_23 H 0.079435 0.171361 0.617867
C44_23 C 0.1215(2) 0.1419(2) 0.6090(2)
C45_23 C 0.10248(19) 0.17737(19) 0.5887(2)
O27_23 O 0.10953(9) 0.03032(7) 0.72037(7)
O30_23 O 0.13293(10) 0.04171(9) 0.68987(10)
C46_23 C 0.03847(11) 0.09110(11) 0.72248(9)
C47_23 C 0.07653(11) 0.06753(11) 0.71225(9)
H21_23 H 0.072264 0.055468 0.723908
C48_23 C 0.11457(13) 0.04440(11) 0.70329(11)
C49_23 C 0.09809(13) 0.06555(13) 0.69905(12)
C50_23 C 0.06143(13) 0.08722(12) 0.70820(11)
C51_23 C 0.06734(16) 0.10455(15) 0.69097(14)
H22_23 H 0.056771 0.118006 0.688352
N11_23 N 0.10598(17) 0.14127(17) 0.62705(18)
N12_23 N 0.09199(17) 0.11992(17) 0.65958(17)
H23_23 H 0.081350 0.131909 0.659821
C52_23 C 0.10382(18) 0.08186(17) 0.68119(17)
H24_23 H 0.117867 0.079435 0.671361
C53_23 C 0.1090(2) 0.1215(2) 0.6419(2)
C54_23 C 0.0887(2) 0.10248(19) 0.67737(19)
O19_24 O 0.22037(7) 0.89047(9) 0.46968(7)
O20_24 O 0.23501(6) 0.97007(7) 0.42670(7)
O21_24 O 0.22218(8) 0.97183(8) 0.38853(9)
O22_24 O 0.18987(10) 0.86707(10) 0.45829(9)
C28_24 C 0.22248(9) 0.96153(11) 0.40890(11)
C29_24 C 0.21225(9) 0.92347(11) 0.43247(11)
H13_24 H 0.223908 0.927736 0.444532
C30_24 C 0.20329(11) 0.88543(13) 0.45560(11)
C31_24 C 0.19905(12) 0.90191(13) 0.43445(13)
C32_24 C 0.20820(11) 0.93857(13) 0.41278(12)
C33_24 C 0.19097(14) 0.93266(16) 0.39545(15)
H14_24 H 0.188352 0.943229 0.381994
N7_24 N 0.12705(18) 0.89402(17) 0.35873(17)
N8_24 N 0.15958(17) 0.90801(17) 0.38008(17)
H15_24 H 0.159821 0.918650 0.368091
C34_24 C 0.18119(17) 0.89618(18) 0.41814(17)
H16_24 H 0.171361 0.882133 0.420565
C35_24 C 0.1419(2) 0.8910(2) 0.3785(2)
C36_24 C 0.17737(19) 0.9113(2) 0.39752(19)
O23_24 O 0.03032(7) 0.77963(7) 0.39047(9)
O24_24 O 0.07330(7) 0.76499(6) 0.47007(7)
O25_24 O 0.11147(9) 0.77782(8) 0.47183(8)
O26_24 O 0.04171(9) 0.81013(10) 0.36707(10)
C37_24 C 0.09110(11) 0.77752(9) 0.46153(11)
C38_24 C 0.06753(11) 0.78775(9) 0.42347(11)
H17_24 H 0.055468 0.776092 0.427736
C39_24 C 0.04440(11) 0.79671(11) 0.38543(13)
C40_24 C 0.06555(13) 0.80095(12) 0.40191(13)
C41_24 C 0.08722(12) 0.79180(11) 0.43857(13)
C42_24 C 0.10455(15) 0.80903(14) 0.43266(16)
H18_24 H 0.118006 0.811648 0.443229
N9_24 N 0.14127(17) 0.87295(18) 0.39402(17)
N10_24 N 0.11992(17) 0.84042(17) 0.40801(17)
H19_24 H 0.131909 0.840179 0.418650
C43_24 C 0.08186(17) 0.81881(17) 0.39618(18)
H20_24 H 0.079435 0.828639 0.382133
C44_24 C 0.1215(2) 0.8581(2) 0.3910(2)
C45_24 C 0.10248(19) 0.82263(19) 0.4113(2)
O27_24 O 0.10953(9) 0.96968(7) 0.27963(7)
O30_24 O 0.13293(10) 0.95829(9) 0.31013(10)
C46_24 C 0.03847(11) 0.90890(11) 0.27752(9)
C47_24 C 0.07653(11) 0.93247(11) 0.28775(9)
H21_24 H 0.072264 0.944532 0.276092
C48_24 C 0.11457(13) 0.95560(11) 0.29671(11)
C49_24 C 0.09809(13) 0.93445(13) 0.30095(12)
C50_24 C 0.06143(13) 0.91278(12) 0.29180(11)
C51_24 C 0.06734(16) 0.89545(15) 0.30903(14)
H22_24 H 0.056771 0.881994 0.311648
N11_24 N 0.10598(17) 0.85873(17) 0.37295(18)
N12_24 N 0.09199(17) 0.88008(17) 0.34042(17)
H23_24 H 0.081350 0.868091 0.340179
C52_24 C 0.10382(18) 0.91814(17) 0.31881(17)
H24_24 H 0.117867 0.920565 0.328639
C53_24 C 0.1090(2) 0.8785(2) 0.3581(2)
C54_24 C 0.0887(2) 0.89752(19) 0.32263(19)
O15_13 O 0.25157(11) 0.14477(13) 0.000000
O16_13 O 0.27798(10) 0.06480(13) 0.000000
O32_9 O 0.27963(7) 0.10953(9) 0.03032(7)
O36_9 O 0.23501(6) 0.07330(7) 0.02993(7)
O41_9 O 0.22218(8) 0.11147(9) 0.02817(8)
H31_5 H 0.295259 0.0691002 0.00321775
H32_5 H 0.272054 0.0535806 0.0128997
H34_5 H 0.240134 0.150169 0.0129413
O3_13 O 0.35523(13) -0.000000 0.75157(11)
O6_13 O 0.43520(13) 0.000000 0.77798(10)
O15_14 O 0.25157(11) 0.14477(13) 1.000000
O16_14 O 0.27798(10) 0.06480(13) 1.000000
O17_13 O 0.500000 0.24843(11) 0.85523(13)
O18_13 O 0.500000 0.22202(10) 0.93520(13)
O33_9 O 0.53032(7) 0.22037(7) 0.89047(9)
O37_9 O 0.52993(7) 0.26499(6) 0.92670(7)
O42_9 O 0.52817(8) 0.27782(8) 0.88853(9)
H25_5 H 0.349525 0.0160965 0.745591
H33_5 H 0.245591 0.150475 0.983903
O3_14 O 0.35523(13) 1.000000 0.75157(11)
O6_14 O 0.43520(13) 1.000000 0.77798(10)
O31_9 O 0.39047(9) 0.96968(7) 0.77963(7)
O38_9 O 0.42670(7) 0.97007(7) 0.73501(6)
O43_9 O 0.38853(9) 0.97183(8) 0.72218(8)
H26_5 H 0.349831 0.987059 0.740134
H27_5 H 0.4309 0.996782 0.795259
H28_5 H 0.446419 0.9871 0.772054
O3_15 O 0.64477(13) -0.000000 0.75157(11)
O6_15 O 0.56480(13) 0.000000 0.77798(10)
O31_10 O 0.60953(9) 0.03032(7) 0.77963(7)
O38_10 O 0.57330(7) 0.02993(7) 0.73501(6)
O43_10 O 0.61147(9) 0.02817(8) 0.72218(8)
H26_6 H 0.650169 0.0129413 0.740134
H27_6 H 0.5691 0.00321775 0.795259
H28_6 H 0.553581 0.0128997 0.772054
O15_15 O 0.74843(11) 0.85523(13) 0.000000
O16_15 O 0.72202(10) 0.93520(13) 0.000000
O32_10 O 0.72037(7) 0.89047(9) 0.03032(7)
O36_10 O 0.76499(6) 0.92670(7) 0.02993(7)
O41_10 O 0.77782(8) 0.88853(9) 0.02817(8)
H31_6 H 0.704741 0.9309 0.00321775
H32_6 H 0.727946 0.946419 0.0128997
H34_6 H 0.759866 0.849831 0.0129413
O3_16 O 0.64477(13) 1.000000 0.75157(11)
O6_16 O 0.56480(13) 1.000000 0.77798(10)
O15_16 O 0.74843(11) 0.85523(13) 1.000000
O16_16 O 0.72202(10) 0.93520(13) 1.000000
O17_14 O 0.500000 0.75157(11) 0.85523(13)
O18_14 O 0.500000 0.77798(10) 0.93520(13)
O33_10 O 0.46968(7) 0.77963(7) 0.89047(9)
O37_10 O 0.47007(7) 0.73501(6) 0.92670(7)
O42_10 O 0.47183(8) 0.72218(8) 0.88853(9)
H25_6 H 0.650475 0.983903 0.745591
H33_6 H 0.754409 0.849525 0.983903
O3_17 O 0.64477(13) -0.000000 0.24843(11)
O6_17 O 0.56480(13) 0.000000 0.22202(10)
O15_17 O 0.74843(11) 0.14477(13) 0.000000
O16_17 O 0.72202(10) 0.06480(13) 0.000000
O17_15 O 0.500000 0.24843(11) 0.14477(13)
O18_15 O 0.500000 0.22202(10) 0.06480(13)
O33_11 O 0.46968(7) 0.22037(7) 0.10953(9)
O37_11 O 0.47007(7) 0.26499(6) 0.07330(7)
O42_11 O 0.47183(8) 0.27782(8) 0.11147(9)
H25_7 H 0.650475 0.0160965 0.254409
H33_7 H 0.754409 0.150475 0.0160965
O15_18 O 0.74843(11) 0.14477(13) 1.000000
O16_18 O 0.72202(10) 0.06480(13) 1.000000
O32_11 O 0.72037(7) 0.10953(9) 0.96968(7)
O36_11 O 0.76499(6) 0.07330(7) 0.97007(7)
O41_11 O 0.77782(8) 0.11147(9) 0.97183(8)
H31_7 H 0.704741 0.0691002 0.996782
H32_7 H 0.727946 0.0535806 0.9871
H34_7 H 0.759866 0.150169 0.987059
O3_18 O 0.64477(13) 1.000000 0.24843(11)
O6_18 O 0.56480(13) 1.000000 0.22202(10)
O31_11 O 0.60953(9) 0.96968(7) 0.22037(7)
O38_11 O 0.57330(7) 0.97007(7) 0.26499(6)
O43_11 O 0.61147(9) 0.97183(8) 0.27782(8)
H26_7 H 0.650169 0.987059 0.259866
H27_7 H 0.5691 0.996782 0.204741
H28_7 H 0.553581 0.9871 0.227946
O3_19 O 0.35523(13) -0.000000 0.24843(11)
O6_19 O 0.43520(13) 0.000000 0.22202(10)
O31_12 O 0.39047(9) 0.03032(7) 0.22037(7)
O38_12 O 0.42670(7) 0.02993(7) 0.26499(6)
O43_12 O 0.38853(9) 0.02817(8) 0.27782(8)
H26_8 H 0.349831 0.0129413 0.259866
H27_8 H 0.4309 0.00321775 0.204741
H28_8 H 0.446419 0.0128997 0.227946
O3_20 O 0.35523(13) 1.000000 0.24843(11)
O6_20 O 0.43520(13) 1.000000 0.22202(10)
O15_19 O 0.25157(11) 0.85523(13) 0.000000
O16_19 O 0.27798(10) 0.93520(13) 0.000000
O17_16 O 0.500000 0.75157(11) 0.14477(13)
O18_16 O 0.500000 0.77798(10) 0.06480(13)
O33_12 O 0.53032(7) 0.77963(7) 0.10953(9)
O37_12 O 0.52993(7) 0.73501(6) 0.07330(7)
O42_12 O 0.52817(8) 0.72218(8) 0.11147(9)
H25_8 H 0.349525 0.983903 0.254409
H33_8 H 0.245591 0.849525 0.0160965
O15_20 O 0.25157(11) 0.85523(13) 1.000000
O16_20 O 0.27798(10) 0.93520(13) 1.000000
O32_12 O 0.27963(7) 0.89047(9) 0.96968(7)
O36_12 O 0.23501(6) 0.92670(7) 0.97007(7)
O41_12 O 0.22218(8) 0.88853(9) 0.97183(8)
H31_8 H 0.295259 0.9309 0.996782
H32_8 H 0.272054 0.946419 0.9871
H34_8 H 0.240134 0.849831 0.987059
O3_21 O -0.000000 0.35523(13) 0.74843(11)
O6_21 O 0.000000 0.43520(13) 0.72202(10)
O15_21 O 0.14477(13) 0.25157(11) 0.500000
O16_21 O 0.06480(13) 0.27798(10) 0.500000
O17_17 O 0.24843(11) 0.500000 0.64477(13)
O18_17 O 0.22202(10) 0.500000 0.56480(13)
O32_13 O 0.10953(9) 0.27963(7) 0.46968(7)
O33_13 O 0.22037(7) 0.53032(7) 0.60953(9)
O36_13 O 0.07330(7) 0.23501(6) 0.47007(7)
O37_13 O 0.26499(6) 0.52993(7) 0.57330(7)
O41_13 O 0.11147(9) 0.22218(8) 0.47183(8)
O42_13 O 0.27782(8) 0.52817(8) 0.61147(9)
H25_9 H 0.0160965 0.349525 0.754409
O3_22 O 1.000000 0.35523(13) 0.74843(11)
O6_22 O 1.000000 0.43520(13) 0.72202(10)
O31_13 O 0.96968(7) 0.39047(9) 0.72037(7)
O38_13 O 0.97007(7) 0.42670(7) 0.76499(6)
O43_13 O 0.97183(8) 0.38853(9) 0.77782(8)
H26_9 H 0.987059 0.349831 0.759866
H27_9 H 0.996782 0.4309 0.704741
H28_9 H 0.9871 0.446419 0.727946
O3_23 O -0.000000 0.64477(13) 0.74843(11)
O6_23 O -0.000000 0.56480(13) 0.72202(10)
O31_14 O 0.03032(7) 0.60953(9) 0.72037(7)
O38_14 O 0.02993(7) 0.57330(7) 0.76499(6)
O43_14 O 0.02817(8) 0.61147(9) 0.77782(8)
H26_10 H 0.0129413 0.650169 0.759866
H27_10 H 0.00321775 0.5691 0.704741
H28_10 H 0.0128997 0.553581 0.727946
O3_24 O 1.000000 0.64477(13) 0.74843(11)
O6_24 O 1.000000 0.56480(13) 0.72202(10)
O15_22 O 0.85523(13) 0.74843(11) 0.500000
O16_22 O 0.93520(13) 0.72202(10) 0.500000
O17_18 O 0.75157(11) 0.500000 0.64477(13)
O18_18 O 0.77798(10) 0.500000 0.56480(13)
O32_14 O 0.89047(9) 0.72037(7) 0.46968(7)
O33_14 O 0.77963(7) 0.46968(7) 0.60953(9)
O36_14 O 0.92670(7) 0.76499(6) 0.47007(7)
O37_14 O 0.73501(6) 0.47007(7) 0.57330(7)
O41_14 O 0.88853(9) 0.77782(8) 0.47183(8)
O42_14 O 0.72218(8) 0.47183(8) 0.61147(9)
H25_10 H 0.983903 0.650475 0.754409
O3_25 O 0.000000 0.64477(13) 0.25157(11)
O6_25 O -0.000000 0.56480(13) 0.27798(10)
O15_23 O 0.14477(13) 0.74843(11) 0.500000
O16_23 O 0.06480(13) 0.72202(10) 0.500000
O17_19 O 0.24843(11) 0.500000 0.35523(13)
O18_19 O 0.22202(10) 0.500000 0.43520(13)
O32_15 O 0.10953(9) 0.72037(7) 0.53032(7)
O33_15 O 0.22037(7) 0.46968(7) 0.39047(9)
O36_15 O 0.07330(7) 0.76499(6) 0.52993(7)
O37_15 O 0.26499(6) 0.47007(7) 0.42670(7)
O41_15 O 0.11147(9) 0.77782(8) 0.52817(8)
O42_15 O 0.27782(8) 0.47183(8) 0.38853(9)
H25_11 H 0.0160965 0.650475 0.245591
O3_26 O 1.000000 0.64477(13) 0.25157(11)
O6_26 O 1.000000 0.56480(13) 0.27798(10)
O31_15 O 0.96968(7) 0.60953(9) 0.27963(7)
O38_15 O 0.97007(7) 0.57330(7) 0.23501(6)
O43_15 O 0.97183(8) 0.61147(9) 0.22218(8)
H26_11 H 0.987059 0.650169 0.240134
H27_11 H 0.996782 0.5691 0.295259
H28_11 H 0.9871 0.553581 0.272054
O3_27 O 0.000000 0.35523(13) 0.25157(11)
O6_27 O -0.000000 0.43520(13) 0.27798(10)
O31_16 O 0.03032(7) 0.39047(9) 0.27963(7)
O38_16 O 0.02993(7) 0.42670(7) 0.23501(6)
O43_16 O 0.02817(8) 0.38853(9) 0.22218(8)
H26_12 H 0.0129413 0.349831 0.240134
H27_12 H 0.00321775 0.4309 0.295259
H28_12 H 0.0128997 0.446419 0.272054
O3_28 O 1.000000 0.35523(13) 0.25157(11)
O6_28 O 1.000000 0.43520(13) 0.27798(10)
O15_24 O 0.85523(13) 0.25157(11) 0.500000
O16_24 O 0.93520(13) 0.27798(10) 0.500000
O17_20 O 0.75157(11) 0.500000 0.35523(13)
O18_20 O 0.77798(10) 0.500000 0.43520(13)
O32_16 O 0.89047(9) 0.27963(7) 0.53032(7)
O33_16 O 0.77963(7) 0.53032(7) 0.39047(9)
O36_16 O 0.92670(7) 0.23501(6) 0.52993(7)
O37_16 O 0.73501(6) 0.52993(7) 0.42670(7)
O41_16 O 0.88853(9) 0.22218(8) 0.52817(8)
O42_16 O 0.72218(8) 0.52817(8) 0.38853(9)
H25_12 H 0.983903 0.349525 0.245591
O17_21 O -0.000000 0.74843(11) 0.85523(13)
O18_21 O -0.000000 0.72202(10) 0.93520(13)
O33_17 O 0.03032(7) 0.72037(7) 0.89047(9)
O37_17 O 0.02993(7) 0.76499(6) 0.92670(7)
O42_17 O 0.02817(8) 0.77782(8) 0.88853(9)
H29_5 H 0.00321775 0.704741 0.9309
H30_5 H 0.0128997 0.727946 0.946419
H36_5 H 0.0129413 0.759866 0.849831
O15_25 O 0.75157(11) 0.64477(13) 0.000000
O16_25 O 0.77798(10) 0.56480(13) 0.000000
O32_17 O 0.77963(7) 0.60953(9) 0.03032(7)
O36_17 O 0.73501(6) 0.57330(7) 0.02993(7)
O41_17 O 0.72218(8) 0.61147(9) 0.02817(8)
H31_9 H 0.795259 0.5691 0.00321775
H32_9 H 0.772054 0.553581 0.0128997
H34_9 H 0.740134 0.650169 0.0129413
O3_29 O 0.85523(13) 0.500000 0.75157(11)
O6_29 O 0.93520(13) 0.500000 0.77798(10)
O15_26 O 0.75157(11) 0.64477(13) 1.000000
O16_26 O 0.77798(10) 0.56480(13) 1.000000
O17_22 O 1.000000 0.74843(11) 0.85523(13)
O18_22 O 1.000000 0.72202(10) 0.93520(13)
O31_17 O 0.89047(9) 0.46968(7) 0.77963(7)
O38_17 O 0.92670(7) 0.47007(7) 0.73501(6)
O43_17 O 0.88853(9) 0.47183(8) 0.72218(8)
H33_9 H 0.745591 0.650475 0.983903
H35_5 H 0.983903 0.754409 0.849525
O15_27 O 0.24843(11) 0.35523(13) 0.000000
O16_27 O 0.22202(10) 0.43520(13) 0.000000
O32_18 O 0.22037(7) 0.39047(9) 0.03032(7)
O36_18 O 0.26499(6) 0.42670(7) 0.02993(7)
O41_18 O 0.27782(8) 0.38853(9) 0.02817(8)
H31_10 H 0.204741 0.4309 0.00321775
H32_10 H 0.227946 0.446419 0.0128997
H34_10 H 0.259866 0.349831 0.0129413
O3_30 O 0.14477(13) 0.500000 0.75157(11)
O6_30 O 0.06480(13) 0.500000 0.77798(10)
O15_28 O 0.24843(11) 0.35523(13) 1.000000
O16_28 O 0.22202(10) 0.43520(13) 1.000000
O17_23 O 0.000000 0.25157(11) 0.85523(13)
O18_23 O 0.000000 0.27798(10) 0.93520(13)
O31_18 O 0.10953(9) 0.53032(7) 0.77963(7)
O38_18 O 0.07330(7) 0.52993(7) 0.73501(6)
O43_18 O 0.11147(9) 0.52817(8) 0.72218(8)
H33_10 H 0.254409 0.349525 0.983903
H35_6 H 0.0160965 0.245591 0.849525
O17_24 O 1.000000 0.25157(11) 0.85523(13)
O18_24 O 1.000000 0.27798(10) 0.93520(13)
O33_18 O 0.96968(7) 0.27963(7) 0.89047(9)
O37_18 O 0.97007(7) 0.23501(6) 0.92670(7)
O42_18 O 0.97183(8) 0.22218(8) 0.88853(9)
H29_6 H 0.996782 0.295259 0.9309
H30_6 H 0.9871 0.272054 0.946419
H36_6 H 0.987059 0.240134 0.849831
O3_31 O 0.14477(13) 0.500000 0.24843(11)
O6_31 O 0.06480(13) 0.500000 0.22202(10)
O15_29 O 0.24843(11) 0.64477(13) 0.000000
O16_29 O 0.22202(10) 0.56480(13) 0.000000
O17_25 O 0.000000 0.74843(11) 0.14477(13)
O18_25 O 0.000000 0.72202(10) 0.06480(13)
O31_19 O 0.10953(9) 0.46968(7) 0.22037(7)
O38_19 O 0.07330(7) 0.47007(7) 0.26499(6)
O43_19 O 0.11147(9) 0.47183(8) 0.27782(8)
H33_11 H 0.254409 0.650475 0.0160965
H35_7 H 0.0160965 0.754409 0.150475
O15_30 O 0.24843(11) 0.64477(13) 1.000000
O16_30 O 0.22202(10) 0.56480(13) 1.000000
O32_19 O 0.22037(7) 0.60953(9) 0.96968(7)
O36_19 O 0.26499(6) 0.57330(7) 0.97007(7)
O41_19 O 0.27782(8) 0.61147(9) 0.97183(8)
H31_11 H 0.204741 0.5691 0.996782
H32_11 H 0.227946 0.553581 0.9871
H34_11 H 0.259866 0.650169 0.987059
O17_26 O 1.000000 0.74843(11) 0.14477(13)
O18_26 O 1.000000 0.72202(10) 0.06480(13)
O33_19 O 0.96968(7) 0.72037(7) 0.10953(9)
O37_19 O 0.97007(7) 0.76499(6) 0.07330(7)
O42_19 O 0.97183(8) 0.77782(8) 0.11147(9)
H29_7 H 0.996782 0.704741 0.0691002
H30_7 H 0.9871 0.727946 0.0535806
H36_7 H 0.987059 0.759866 0.150169
O17_27 O -0.000000 0.25157(11) 0.14477(13)
O18_27 O -0.000000 0.27798(10) 0.06480(13)
O33_20 O 0.03032(7) 0.27963(7) 0.10953(9)
O37_20 O 0.02993(7) 0.23501(6) 0.07330(7)
O42_20 O 0.02817(8) 0.22218(8) 0.11147(9)
H29_8 H 0.00321775 0.295259 0.0691002
H30_8 H 0.0128997 0.272054 0.0535806
H36_8 H 0.0129413 0.240134 0.150169
O3_32 O 0.85523(13) 0.500000 0.24843(11)
O6_32 O 0.93520(13) 0.500000 0.22202(10)
O15_31 O 0.75157(11) 0.35523(13) 0.000000
O16_31 O 0.77798(10) 0.43520(13) 0.000000
O17_28 O 1.000000 0.25157(11) 0.14477(13)
O18_28 O 1.000000 0.27798(10) 0.06480(13)
O31_20 O 0.89047(9) 0.53032(7) 0.22037(7)
O38_20 O 0.92670(7) 0.52993(7) 0.26499(6)
O43_20 O 0.88853(9) 0.52817(8) 0.27782(8)
H33_12 H 0.745591 0.349525 0.0160965
H35_8 H 0.983903 0.245591 0.150475
O15_32 O 0.75157(11) 0.35523(13) 1.000000
O16_32 O 0.77798(10) 0.43520(13) 1.000000
O32_20 O 0.77963(7) 0.39047(9) 0.96968(7)
O36_20 O 0.73501(6) 0.42670(7) 0.97007(7)
O41_20 O 0.72218(8) 0.38853(9) 0.97183(8)
H31_12 H 0.795259 0.4309 0.996782
H32_12 H 0.772054 0.446419 0.9871
H34_12 H 0.740134 0.349831 0.987059
O17_29 O 0.74843(11) -0.000000 0.64477(13)
O18_29 O 0.72202(10) -0.000000 0.56480(13)
O33_21 O 0.72037(7) 0.03032(7) 0.60953(9)
O37_21 O 0.76499(6) 0.02993(7) 0.57330(7)
O42_21 O 0.77782(8) 0.02817(8) 0.61147(9)
H29_9 H 0.704741 0.00321775 0.5691
H30_9 H 0.727946 0.0128997 0.553581
H36_9 H 0.759866 0.0129413 0.650169
O3_33 O 0.500000 0.85523(13) 0.74843(11)
O6_33 O 0.500000 0.93520(13) 0.72202(10)
O15_33 O 0.64477(13) 0.75157(11) 0.500000
O16_33 O 0.56480(13) 0.77798(10) 0.500000
O17_30 O 0.74843(11) 1.000000 0.64477(13)
O18_30 O 0.72202(10) 1.000000 0.56480(13)
O31_21 O 0.46968(7) 0.89047(9) 0.72037(7)
O32_21 O 0.60953(9) 0.77963(7) 0.46968(7)
O36_21 O 0.57330(7) 0.73501(6) 0.47007(7)
O38_21 O 0.47007(7) 0.92670(7) 0.76499(6)
O41_21 O 0.61147(9) 0.72218(8) 0.47183(8)
O43_21 O 0.47183(8) 0.88853(9) 0.77782(8)
H35_9 H 0.754409 0.983903 0.650475
O3_34 O 0.500000 0.14477(13) 0.74843(11)
O6_34 O 0.500000 0.06480(13) 0.72202(10)
O15_34 O 0.35523(13) 0.24843(11) 0.500000
O16_34 O 0.43520(13) 0.22202(10) 0.500000
O17_31 O 0.25157(11) 0.000000 0.64477(13)
O18_31 O 0.27798(10) 0.000000 0.56480(13)
O31_22 O 0.53032(7) 0.10953(9) 0.72037(7)
O32_22 O 0.39047(9) 0.22037(7) 0.46968(7)
O36_22 O 0.42670(7) 0.26499(6) 0.47007(7)
O38_22 O 0.52993(7) 0.07330(7) 0.76499(6)
O41_22 O 0.38853(9) 0.27782(8) 0.47183(8)
O43_22 O 0.52817(8) 0.11147(9) 0.77782(8)
H35_10 H 0.245591 0.0160965 0.650475
O17_32 O 0.25157(11) 1.000000 0.64477(13)
O18_32 O 0.27798(10) 1.000000 0.56480(13)
O33_22 O 0.27963(7) 0.96968(7) 0.60953(9)
O37_22 O 0.23501(6) 0.97007(7) 0.57330(7)
O42_22 O 0.22218(8) 0.97183(8) 0.61147(9)
H29_10 H 0.295259 0.996782 0.5691
H30_10 H 0.272054 0.9871 0.553581
H36_10 H 0.240134 0.987059 0.650169
O3_35 O 0.500000 0.14477(13) 0.25157(11)
O6_35 O 0.500000 0.06480(13) 0.27798(10)
O15_35 O 0.64477(13) 0.24843(11) 0.500000
O16_35 O 0.56480(13) 0.22202(10) 0.500000
O17_33 O 0.74843(11) 0.000000 0.35523(13)
O18_33 O 0.72202(10) 0.000000 0.43520(13)
O31_23 O 0.46968(7) 0.10953(9) 0.27963(7)
O32_23 O 0.60953(9) 0.22037(7) 0.53032(7)
O36_23 O 0.57330(7) 0.26499(6) 0.52993(7)
O38_23 O 0.47007(7) 0.07330(7) 0.23501(6)
O41_23 O 0.61147(9) 0.27782(8) 0.52817(8)
O43_23 O 0.47183(8) 0.11147(9) 0.22218(8)
H35_11 H 0.754409 0.0160965 0.349525
O17_34 O 0.74843(11) 1.000000 0.35523(13)
O18_34 O 0.72202(10) 1.000000 0.43520(13)
O33_23 O 0.72037(7) 0.96968(7) 0.39047(9)
O37_23 O 0.76499(6) 0.97007(7) 0.42670(7)
O42_23 O 0.77782(8) 0.97183(8) 0.38853(9)
H29_11 H 0.704741 0.996782 0.4309
H30_11 H 0.727946 0.9871 0.446419
H36_11 H 0.759866 0.987059 0.349831
O17_35 O 0.25157(11) -0.000000 0.35523(13)
O18_35 O 0.27798(10) -0.000000 0.43520(13)
O33_24 O 0.27963(7) 0.03032(7) 0.39047(9)
O37_24 O 0.23501(6) 0.02993(7) 0.42670(7)
O42_24 O 0.22218(8) 0.02817(8) 0.38853(9)
H29_12 H 0.295259 0.00321775 0.4309
H30_12 H 0.272054 0.0128997 0.446419
H36_12 H 0.240134 0.0129413 0.349831
O3_36 O 0.500000 0.85523(13) 0.25157(11)
O6_36 O 0.500000 0.93520(13) 0.27798(10)
O15_36 O 0.35523(13) 0.75157(11) 0.500000
O16_36 O 0.43520(13) 0.77798(10) 0.500000
O17_36 O 0.25157(11) 1.000000 0.35523(13)
O18_36 O 0.27798(10) 1.000000 0.43520(13)
O31_24 O 0.53032(7) 0.89047(9) 0.27963(7)
O32_24 O 0.39047(9) 0.77963(7) 0.53032(7)
O36_24 O 0.42670(7) 0.73501(6) 0.52993(7)
O38_24 O 0.52993(7) 0.92670(7) 0.23501(6)
O41_24 O 0.38853(9) 0.72218(8) 0.52817(8)
O43_24 O 0.52817(8) 0.88853(9) 0.22218(8)
H35_12 H 0.245591 0.983903 0.349525
O17_37 O -0.000000 0.24843(11) 0.35523(13)
O18_37 O -0.000000 0.22202(10) 0.43520(13)
O33_25 O 0.03032(7) 0.22037(7) 0.39047(9)
O37_25 O 0.02993(7) 0.26499(6) 0.42670(7)
O42_25 O 0.02817(8) 0.27782(8) 0.38853(9)
H29_13 H 0.00321775 0.204741 0.4309
H30_13 H 0.0128997 0.227946 0.446419
H36_13 H 0.0129413 0.259866 0.349831
O3_37 O 0.85523(13) 0.000000 0.25157(11)
O6_37 O 0.93520(13) -0.000000 0.27798(10)
O15_37 O 0.75157(11) 0.14477(13) 0.500000
O16_37 O 0.77798(10) 0.06480(13) 0.500000
O17_38 O 1.000000 0.24843(11) 0.35523(13)
O18_38 O 1.000000 0.22202(10) 0.43520(13)
O32_25 O 0.77963(7) 0.10953(9) 0.53032(7)
O36_25 O 0.73501(6) 0.07330(7) 0.52993(7)
O41_25 O 0.72218(8) 0.11147(9) 0.52817(8)
H25_13 H 0.849525 0.0160965 0.245591
H35_13 H 0.983903 0.254409 0.349525
O3_38 O 0.85523(13) 1.000000 0.25157(11)
O6_38 O 0.93520(13) 1.000000 0.27798(10)
O31_25 O 0.89047(9) 0.96968(7) 0.27963(7)
O38_25 O 0.92670(7) 0.97007(7) 0.23501(6)
O43_25 O 0.88853(9) 0.97183(8) 0.22218(8)
H26_13 H 0.849831 0.987059 0.240134
H27_13 H 0.9309 0.996782 0.295259
H28_13 H 0.946419 0.9871 0.272054
O3_39 O 0.14477(13) 0.000000 0.25157(11)
O6_39 O 0.06480(13) -0.000000 0.27798(10)
O31_26 O 0.10953(9) 0.03032(7) 0.27963(7)
O38_26 O 0.07330(7) 0.02993(7) 0.23501(6)
O43_26 O 0.11147(9) 0.02817(8) 0.22218(8)
H26_14 H 0.150169 0.0129413 0.240134
H27_14 H 0.0691002 0.00321775 0.295259
H28_14 H 0.0535806 0.0128997 0.272054
O3_40 O 0.14477(13) 1.000000 0.25157(11)
O6_40 O 0.06480(13) 1.000000 0.27798(10)
O15_38 O 0.24843(11) 0.85523(13) 0.500000
O16_38 O 0.22202(10) 0.93520(13) 0.500000
O17_39 O 0.000000 0.75157(11) 0.35523(13)
O18_39 O 0.000000 0.77798(10) 0.43520(13)
O32_26 O 0.22037(7) 0.89047(9) 0.53032(7)
O36_26 O 0.26499(6) 0.92670(7) 0.52993(7)
O41_26 O 0.27782(8) 0.88853(9) 0.52817(8)
H25_14 H 0.150475 0.983903 0.245591
H35_14 H 0.0160965 0.745591 0.349525
O17_40 O 1.000000 0.75157(11) 0.35523(13)
O18_40 O 1.000000 0.77798(10) 0.43520(13)
O33_26 O 0.96968(7) 0.77963(7) 0.39047(9)
O37_26 O 0.97007(7) 0.73501(6) 0.42670(7)
O42_26 O 0.97183(8) 0.72218(8) 0.38853(9)
H29_14 H 0.996782 0.795259 0.4309
H30_14 H 0.9871 0.772054 0.446419
H36_14 H 0.987059 0.740134 0.349831
O3_41 O 0.14477(13) -0.000000 0.74843(11)
O6_41 O 0.06480(13) 0.000000 0.72202(10)
O15_39 O 0.24843(11) 0.14477(13) 0.500000
O16_39 O 0.22202(10) 0.06480(13) 0.500000
O17_41 O 0.000000 0.24843(11) 0.64477(13)
O18_41 O 0.000000 0.22202(10) 0.56480(13)
O32_27 O 0.22037(7) 0.10953(9) 0.46968(7)
O36_27 O 0.26499(6) 0.07330(7) 0.47007(7)
O41_27 O 0.27782(8) 0.11147(9) 0.47183(8)
H25_15 H 0.150475 0.0160965 0.754409
H35_15 H 0.0160965 0.254409 0.650475
O3_42 O 0.14477(13) 1.000000 0.74843(11)
O6_42 O 0.06480(13) 1.000000 0.72202(10)
O31_27 O 0.10953(9) 0.96968(7) 0.72037(7)
O38_27 O 0.07330(7) 0.97007(7) 0.76499(6)
O43_27 O 0.11147(9) 0.97183(8) 0.77782(8)
H26_15 H 0.150169 0.987059 0.759866
H27_15 H 0.0691002 0.996782 0.704741
H28_15 H 0.0535806 0.9871 0.727946
O17_42 O 1.000000 0.24843(11) 0.64477(13)
O18_42 O 1.000000 0.22202(10) 0.56480(13)
O33_27 O 0.96968(7) 0.22037(7) 0.60953(9)
O37_27 O 0.97007(7) 0.26499(6) 0.57330(7)
O42_27 O 0.97183(8) 0.27782(8) 0.61147(9)
H29_15 H 0.996782 0.204741 0.5691
H30_15 H 0.9871 0.227946 0.553581
H36_15 H 0.987059 0.259866 0.650169
O17_43 O -0.000000 0.75157(11) 0.64477(13)
O18_43 O -0.000000 0.77798(10) 0.56480(13)
O33_28 O 0.03032(7) 0.77963(7) 0.60953(9)
O37_28 O 0.02993(7) 0.73501(6) 0.57330(7)
O42_28 O 0.02817(8) 0.72218(8) 0.61147(9)
H29_16 H 0.00321775 0.795259 0.5691
H30_16 H 0.0128997 0.772054 0.553581
H36_16 H 0.0129413 0.740134 0.650169
O3_43 O 0.85523(13) -0.000000 0.74843(11)
O6_43 O 0.93520(13) 0.000000 0.72202(10)
O31_28 O 0.89047(9) 0.03032(7) 0.72037(7)
O38_28 O 0.92670(7) 0.02993(7) 0.76499(6)
O43_28 O 0.88853(9) 0.02817(8) 0.77782(8)
H26_16 H 0.849831 0.0129413 0.759866
H27_16 H 0.9309 0.00321775 0.704741
H28_16 H 0.946419 0.0128997 0.727946
O3_44 O 0.85523(13) 1.000000 0.74843(11)
O6_44 O 0.93520(13) 1.000000 0.72202(10)
O15_40 O 0.75157(11) 0.85523(13) 0.500000
O16_40 O 0.77798(10) 0.93520(13) 0.500000
O17_44 O 1.000000 0.75157(11) 0.64477(13)
O18_44 O 1.000000 0.77798(10) 0.56480(13)
O32_28 O 0.77963(7) 0.89047(9) 0.46968(7)
O36_28 O 0.73501(6) 0.92670(7) 0.47007(7)
O41_28 O 0.72218(8) 0.88853(9) 0.47183(8)
H25_16 H 0.849525 0.983903 0.754409
H35_16 H 0.983903 0.745591 0.650475
O3_45 O 0.500000 0.35523(13) 0.24843(11)
O6_45 O 0.500000 0.43520(13) 0.22202(10)
O15_41 O 0.64477(13) 0.25157(11) 0.000000
O16_41 O 0.56480(13) 0.27798(10) 0.000000
O17_45 O 0.74843(11) 0.500000 0.14477(13)
O18_45 O 0.72202(10) 0.500000 0.06480(13)
O31_29 O 0.46968(7) 0.39047(9) 0.22037(7)
O33_29 O 0.72037(7) 0.53032(7) 0.10953(9)
O37_29 O 0.76499(6) 0.52993(7) 0.07330(7)
O38_29 O 0.47007(7) 0.42670(7) 0.26499(6)
O42_29 O 0.77782(8) 0.52817(8) 0.11147(9)
O43_29 O 0.47183(8) 0.38853(9) 0.27782(8)
H33_13 H 0.650475 0.245591 0.0160965
O15_42 O 0.64477(13) 0.25157(11) 1.000000
O16_42 O 0.56480(13) 0.27798(10) 1.000000
O32_29 O 0.60953(9) 0.27963(7) 0.96968(7)
O36_29 O 0.57330(7) 0.23501(6) 0.97007(7)
O41_29 O 0.61147(9) 0.22218(8) 0.97183(8)
H31_13 H 0.5691 0.295259 0.996782
H32_13 H 0.553581 0.272054 0.9871
H34_13 H 0.650169 0.240134 0.987059
O3_46 O 0.500000 0.64477(13) 0.24843(11)
O6_46 O 0.500000 0.56480(13) 0.22202(10)
O15_43 O 0.35523(13) 0.74843(11) 0.000000
O16_43 O 0.43520(13) 0.72202(10) 0.000000
O17_46 O 0.25157(11) 0.500000 0.14477(13)
O18_46 O 0.27798(10) 0.500000 0.06480(13)
O31_30 O 0.53032(7) 0.60953(9) 0.22037(7)
O33_30 O 0.27963(7) 0.46968(7) 0.10953(9)
O37_30 O 0.23501(6) 0.47007(7) 0.07330(7)
O38_30 O 0.52993(7) 0.57330(7) 0.26499(6)
O42_30 O 0.22218(8) 0.47183(8) 0.11147(9)
O43_30 O 0.52817(8) 0.61147(9) 0.27782(8)
H33_14 H 0.349525 0.754409 0.0160965
O15_44 O 0.35523(13) 0.74843(11) 1.000000
O16_44 O 0.43520(13) 0.72202(10) 1.000000
O32_30 O 0.39047(9) 0.72037(7) 0.96968(7)
O36_30 O 0.42670(7) 0.76499(6) 0.97007(7)
O41_30 O 0.38853(9) 0.77782(8) 0.97183(8)
H31_14 H 0.4309 0.704741 0.996782
H32_14 H 0.446419 0.727946 0.9871
H34_14 H 0.349831 0.759866 0.987059
O15_45 O 0.64477(13) 0.74843(11) 0.000000
O16_45 O 0.56480(13) 0.72202(10) 0.000000
O32_31 O 0.60953(9) 0.72037(7) 0.03032(7)
O36_31 O 0.57330(7) 0.76499(6) 0.02993(7)
O41_31 O 0.61147(9) 0.77782(8) 0.02817(8)
H31_15 H 0.5691 0.704741 0.00321775
H32_15 H 0.553581 0.727946 0.0128997
H34_15 H 0.650169 0.759866 0.0129413
O3_47 O 0.500000 0.64477(13) 0.75157(11)
O6_47 O 0.500000 0.56480(13) 0.77798(10)
O15_46 O 0.64477(13) 0.74843(11) 1.000000
O16_46 O 0.56480(13) 0.72202(10) 1.000000
O17_47 O 0.74843(11) 0.500000 0.85523(13)
O18_47 O 0.72202(10) 0.500000 0.93520(13)
O31_31 O 0.46968(7) 0.60953(9) 0.77963(7)
O33_31 O 0.72037(7) 0.46968(7) 0.89047(9)
O37_31 O 0.76499(6) 0.47007(7) 0.92670(7)
O38_31 O 0.47007(7) 0.57330(7) 0.73501(6)
O42_31 O 0.77782(8) 0.47183(8) 0.88853(9)
O43_31 O 0.47183(8) 0.61147(9) 0.72218(8)
H33_15 H 0.650475 0.754409 0.983903
O15_47 O 0.35523(13) 0.25157(11) 0.000000
O16_47 O 0.43520(13) 0.27798(10) 0.000000
O32_32 O 0.39047(9) 0.27963(7) 0.03032(7)
O36_32 O 0.42670(7) 0.23501(6) 0.02993(7)
O41_32 O 0.38853(9) 0.22218(8) 0.02817(8)
H31_16 H 0.4309 0.295259 0.00321775
H32_16 H 0.446419 0.272054 0.0128997
H34_16 H 0.349831 0.240134 0.0129413
O3_48 O 0.500000 0.35523(13) 0.75157(11)
O6_48 O 0.500000 0.43520(13) 0.77798(10)
O15_48 O 0.35523(13) 0.25157(11) 1.000000
O16_48 O 0.43520(13) 0.27798(10) 1.000000
O17_48 O 0.25157(11) 0.500000 0.85523(13)
O18_48 O 0.27798(10) 0.500000 0.93520(13)
O31_32 O 0.53032(7) 0.39047(9) 0.77963(7)
O33_32 O 0.27963(7) 0.53032(7) 0.89047(9)
O37_32 O 0.23501(6) 0.52993(7) 0.92670(7)
O38_32 O 0.52993(7) 0.42670(7) 0.73501(6)
O42_32 O 0.22218(8) 0.52817(8) 0.88853(9)
O43_32 O 0.52817(8) 0.38853(9) 0.72218(8)
H33_16 H 0.349525 0.245591 0.983903
O5_9 O 0.63293(10) 0.45829(9) 0.68987(10)
C1_9 C 0.53847(11) 0.40890(11) 0.72248(9)
C2_9 C 0.57653(11) 0.43247(11) 0.71225(9)
H1_9 H 0.572264 0.444532 0.723908
C3_9 C 0.61457(13) 0.45560(11) 0.70329(11)
C4_9 C 0.59809(13) 0.43445(13) 0.69905(12)
C5_9 C 0.56143(13) 0.41278(12) 0.70820(11)
C6_9 C 0.56734(16) 0.39545(15) 0.69097(14)
H2_9 H 0.556771 0.381994 0.688352
N1_9 N 0.60598(17) 0.35873(17) 0.62705(18)
N2_9 N 0.59199(17) 0.38008(17) 0.65958(17)
H3_9 H 0.581350 0.368091 0.659821
C7_9 C 0.60382(18) 0.41814(17) 0.68119(17)
H4_9 H 0.617867 0.420565 0.671361
C8_9 C 0.6090(2) 0.3785(2) 0.6419(2)
C9_9 C 0.5887(2) 0.39752(19) 0.67737(19)
O10_9 O 0.68987(10) 0.36707(10) 0.54171(9)
C10_9 C 0.72248(9) 0.46153(11) 0.59110(11)
C11_9 C 0.71225(9) 0.42347(11) 0.56753(11)
H5_9 H 0.723908 0.427736 0.555468
C12_9 C 0.70329(11) 0.38543(13) 0.54440(11)
C13_9 C 0.69905(12) 0.40191(13) 0.56555(13)
C14_9 C 0.70820(11) 0.43857(13) 0.58722(12)
C15_9 C 0.69097(14) 0.43266(16) 0.60455(15)
H6_9 H 0.688352 0.443229 0.618006
N3_9 N 0.62705(18) 0.39402(17) 0.64127(17)
N4_9 N 0.65958(17) 0.40801(17) 0.61992(17)
H7_9 H 0.659821 0.418650 0.631909
C16_9 C 0.68119(17) 0.39618(18) 0.58186(17)
H8_9 H 0.671361 0.382133 0.579435
C17_9 C 0.6419(2) 0.3910(2) 0.6215(2)
C18_9 C 0.67737(19) 0.4113(2) 0.60248(19)
O14_9 O 0.54171(9) 0.31013(10) 0.63293(10)
C19_9 C 0.59110(11) 0.27752(9) 0.53847(11)
C20_9 C 0.56753(11) 0.28775(9) 0.57653(11)
H9_9 H 0.555468 0.276092 0.572264
C21_9 C 0.54440(11) 0.29671(11) 0.61457(13)
C22_9 C 0.56555(13) 0.30095(12) 0.59809(13)
C23_9 C 0.58722(12) 0.29180(11) 0.56143(13)
C24_9 C 0.60455(15) 0.30903(14) 0.56734(16)
H10_9 H 0.618006 0.311648 0.556771
N5_9 N 0.64127(17) 0.37295(18) 0.60598(17)
N6_9 N 0.61992(17) 0.34042(17) 0.59199(17)
H11_9 H 0.631909 0.340179 0.581350
C25_9 C 0.58186(17) 0.31881(17) 0.60382(18)
H12_9 H 0.579435 0.328639 0.617867
C26_9 C 0.6215(2) 0.3581(2) 0.6090(2)
C27_9 C 0.60248(19) 0.32263(19) 0.5887(2)
O22_25 O 0.95829(9) 0.36707(10) 0.68987(10)
C28_25 C 0.90890(11) 0.46153(11) 0.72248(9)
C29_25 C 0.93247(11) 0.42347(11) 0.71225(9)
H13_25 H 0.944532 0.427736 0.723908
C30_25 C 0.95560(11) 0.38543(13) 0.70329(11)
C31_25 C 0.93445(13) 0.40191(13) 0.69905(12)
C32_25 C 0.91278(12) 0.43857(13) 0.70820(11)
C33_25 C 0.89545(15) 0.43266(16) 0.69097(14)
H14_25 H 0.881994 0.443229 0.688352
N7_25 N 0.85873(17) 0.39402(17) 0.62705(18)
N8_25 N 0.88008(17) 0.40801(17) 0.65958(17)
H15_25 H 0.868091 0.418650 0.659821
C34_25 C 0.91814(17) 0.39618(18) 0.68119(17)
H16_25 H 0.920565 0.382133 0.671361
C35_25 C 0.8785(2) 0.3910(2) 0.6419(2)
C36_25 C 0.89752(19) 0.4113(2) 0.67737(19)
O26_25 O 0.86707(10) 0.31013(10) 0.54171(9)
C37_25 C 0.96153(11) 0.27752(9) 0.59110(11)
C38_25 C 0.92347(11) 0.28775(9) 0.56753(11)
H17_25 H 0.927736 0.276092 0.555468
C39_25 C 0.88543(13) 0.29671(11) 0.54440(11)
C40_25 C 0.90191(13) 0.30095(12) 0.56555(13)
C41_25 C 0.93857(13) 0.29180(11) 0.58722(12)
C42_25 C 0.93266(16) 0.30903(14) 0.60455(15)
H18_25 H 0.943229 0.311648 0.618006
N9_25 N 0.89402(17) 0.37295(18) 0.64127(17)
N10_25 N 0.90801(17) 0.34042(17) 0.61992(17)
H19_25 H 0.918650 0.340179 0.631909
C43_25 C 0.89618(18) 0.31881(17) 0.58186(17)
H20_25 H 0.882133 0.328639 0.579435
C44_25 C 0.8910(2) 0.3581(2) 0.6215(2)
C45_25 C 0.9113(2) 0.32263(19) 0.60248(19)
O30_25 O 0.81013(10) 0.45829(9) 0.63293(10)
C46_25 C 0.77752(9) 0.40890(11) 0.53847(11)
C47_25 C 0.78775(9) 0.43247(11) 0.57653(11)
H21_25 H 0.776092 0.444532 0.572264
C48_25 C 0.79671(11) 0.45560(11) 0.61457(13)
C49_25 C 0.80095(12) 0.43445(13) 0.59809(13)
C50_25 C 0.79180(11) 0.41278(12) 0.56143(13)
C51_25 C 0.80903(14) 0.39545(15) 0.56734(16)
H22_25 H 0.811648 0.381994 0.556771
N11_25 N 0.87295(18) 0.35873(17) 0.60598(17)
N12_25 N 0.84042(17) 0.38008(17) 0.59199(17)
H23_25 H 0.840179 0.368091 0.581350
C52_25 C 0.81881(17) 0.41814(17) 0.60382(18)
H24_25 H 0.828639 0.420565 0.617867
C53_25 C 0.8581(2) 0.3785(2) 0.6090(2)
C54_25 C 0.82263(19) 0.39752(19) 0.5887(2)
O5_10 O 0.36707(10) 0.54171(9) 0.68987(10)
C1_10 C 0.46153(11) 0.59110(11) 0.72248(9)
C2_10 C 0.42347(11) 0.56753(11) 0.71225(9)
H1_10 H 0.427736 0.555468 0.723908
C3_10 C 0.38543(13) 0.54440(11) 0.70329(11)
C4_10 C 0.40191(13) 0.56555(13) 0.69905(12)
C5_10 C 0.43857(13) 0.58722(12) 0.70820(11)
C6_10 C 0.43266(16) 0.60455(15) 0.69097(14)
H2_10 H 0.443229 0.618006 0.688352
N1_10 N 0.39402(17) 0.64127(17) 0.62705(18)
N2_10 N 0.40801(17) 0.61992(17) 0.65958(17)
H3_10 H 0.418650 0.631909 0.659821
C7_10 C 0.39618(18) 0.58186(17) 0.68119(17)
H4_10 H 0.382133 0.579435 0.671361
C8_10 C 0.3910(2) 0.6215(2) 0.6419(2)
C9_10 C 0.4113(2) 0.60248(19) 0.67737(19)
O10_10 O 0.31013(10) 0.63293(10) 0.54171(9)
C10_10 C 0.27752(9) 0.53847(11) 0.59110(11)
C11_10 C 0.28775(9) 0.57653(11) 0.56753(11)
H5_10 H 0.276092 0.572264 0.555468
C12_10 C 0.29671(11) 0.61457(13) 0.54440(11)
C13_10 C 0.30095(12) 0.59809(13) 0.56555(13)
C14_10 C 0.29180(11) 0.56143(13) 0.58722(12)
C15_10 C 0.30903(14) 0.56734(16) 0.60455(15)
H6_10 H 0.311648 0.556771 0.618006
N3_10 N 0.37295(18) 0.60598(17) 0.64127(17)
N4_10 N 0.34042(17) 0.59199(17) 0.61992(17)
H7_10 H 0.340179 0.581350 0.631909
C16_10 C 0.31881(17) 0.60382(18) 0.58186(17)
H8_10 H 0.328639 0.617867 0.579435
C17_10 C 0.3581(2) 0.6090(2) 0.6215(2)
C18_10 C 0.32263(19) 0.5887(2) 0.60248(19)
O14_10 O 0.45829(9) 0.68987(10) 0.63293(10)
C19_10 C 0.40890(11) 0.72248(9) 0.53847(11)
C20_10 C 0.43247(11) 0.71225(9) 0.57653(11)
H9_10 H 0.444532 0.723908 0.572264
C21_10 C 0.45560(11) 0.70329(11) 0.61457(13)
C22_10 C 0.43445(13) 0.69905(12) 0.59809(13)
C23_10 C 0.41278(12) 0.70820(11) 0.56143(13)
C24_10 C 0.39545(15) 0.69097(14) 0.56734(16)
H10_10 H 0.381994 0.688352 0.556771
N5_10 N 0.35873(17) 0.62705(18) 0.60598(17)
N6_10 N 0.38008(17) 0.65958(17) 0.59199(17)
H11_10 H 0.368091 0.659821 0.581350
C25_10 C 0.41814(17) 0.68119(17) 0.60382(18)
H12_10 H 0.420565 0.671361 0.617867
C26_10 C 0.3785(2) 0.6419(2) 0.6090(2)
C27_10 C 0.39752(19) 0.67737(19) 0.5887(2)
O22_26 O 0.04171(9) 0.63293(10) 0.68987(10)
C28_26 C 0.09110(11) 0.53847(11) 0.72248(9)
C29_26 C 0.06753(11) 0.57653(11) 0.71225(9)
H13_26 H 0.055468 0.572264 0.723908
C30_26 C 0.04440(11) 0.61457(13) 0.70329(11)
C31_26 C 0.06555(13) 0.59809(13) 0.69905(12)
C32_26 C 0.08722(12) 0.56143(13) 0.70820(11)
C33_26 C 0.10455(15) 0.56734(16) 0.69097(14)
H14_26 H 0.118006 0.556771 0.688352
N7_26 N 0.14127(17) 0.60598(17) 0.62705(18)
N8_26 N 0.11992(17) 0.59199(17) 0.65958(17)
H15_26 H 0.131909 0.581350 0.659821
C34_26 C 0.08186(17) 0.60382(18) 0.68119(17)
H16_26 H 0.079435 0.617867 0.671361
C35_26 C 0.1215(2) 0.6090(2) 0.6419(2)
C36_26 C 0.10248(19) 0.5887(2) 0.67737(19)
O26_26 O 0.13293(10) 0.68987(10) 0.54171(9)
C37_26 C 0.03847(11) 0.72248(9) 0.59110(11)
C38_26 C 0.07653(11) 0.71225(9) 0.56753(11)
H17_26 H 0.072264 0.723908 0.555468
C39_26 C 0.11457(13) 0.70329(11) 0.54440(11)
C40_26 C 0.09809(13) 0.69905(12) 0.56555(13)
C41_26 C 0.06143(13) 0.70820(11) 0.58722(12)
C42_26 C 0.06734(16) 0.69097(14) 0.60455(15)
H18_26 H 0.056771 0.688352 0.618006
N9_26 N 0.10598(17) 0.62705(18) 0.64127(17)
N10_26 N 0.09199(17) 0.65958(17) 0.61992(17)
H19_26 H 0.081350 0.659821 0.631909
C43_26 C 0.10382(18) 0.68119(17) 0.58186(17)
H20_26 H 0.117867 0.671361 0.579435
C44_26 C 0.1090(2) 0.6419(2) 0.6215(2)
C45_26 C 0.0887(2) 0.67737(19) 0.60248(19)
O30_26 O 0.18987(10) 0.54171(9) 0.63293(10)
C46_26 C 0.22248(9) 0.59110(11) 0.53847(11)
C47_26 C 0.21225(9) 0.56753(11) 0.57653(11)
H21_26 H 0.223908 0.555468 0.572264
C48_26 C 0.20329(11) 0.54440(11) 0.61457(13)
C49_26 C 0.19905(12) 0.56555(13) 0.59809(13)
C50_26 C 0.20820(11) 0.58722(12) 0.56143(13)
C51_26 C 0.19097(14) 0.60455(15) 0.56734(16)
H22_26 H 0.188352 0.618006 0.556771
N11_26 N 0.12705(18) 0.64127(17) 0.60598(17)
N12_26 N 0.15958(17) 0.61992(17) 0.59199(17)
H23_26 H 0.159821 0.631909 0.581350
C52_26 C 0.18119(17) 0.58186(17) 0.60382(18)
H24_26 H 0.171361 0.579435 0.617867
C53_26 C 0.1419(2) 0.6215(2) 0.6090(2)
C54_26 C 0.17737(19) 0.60248(19) 0.5887(2)
O5_11 O 0.36707(10) 0.45829(9) 0.31013(10)
C1_11 C 0.46153(11) 0.40890(11) 0.27752(9)
C2_11 C 0.42347(11) 0.43247(11) 0.28775(9)
H1_11 H 0.427736 0.444532 0.276092
C3_11 C 0.38543(13) 0.45560(11) 0.29671(11)
C4_11 C 0.40191(13) 0.43445(13) 0.30095(12)
C5_11 C 0.43857(13) 0.41278(12) 0.29180(11)
C6_11 C 0.43266(16) 0.39545(15) 0.30903(14)
H2_11 H 0.443229 0.381994 0.311648
N1_11 N 0.39402(17) 0.35873(17) 0.37295(18)
N2_11 N 0.40801(17) 0.38008(17) 0.34042(17)
H3_11 H 0.418650 0.368091 0.340179
C7_11 C 0.39618(18) 0.41814(17) 0.31881(17)
H4_11 H 0.382133 0.420565 0.328639
C8_11 C 0.3910(2) 0.3785(2) 0.3581(2)
C9_11 C 0.4113(2) 0.39752(19) 0.32263(19)
O10_11 O 0.31013(10) 0.36707(10) 0.45829(9)
C10_11 C 0.27752(9) 0.46153(11) 0.40890(11)
C11_11 C 0.28775(9) 0.42347(11) 0.43247(11)
H5_11 H 0.276092 0.427736 0.444532
C12_11 C 0.29671(11) 0.38543(13) 0.45560(11)
C13_11 C 0.30095(12) 0.40191(13) 0.43445(13)
C14_11 C 0.29180(11) 0.43857(13) 0.41278(12)
C15_11 C 0.30903(14) 0.43266(16) 0.39545(15)
H6_11 H 0.311648 0.443229 0.381994
N3_11 N 0.37295(18) 0.39402(17) 0.35873(17)
N4_11 N 0.34042(17) 0.40801(17) 0.38008(17)
H7_11 H 0.340179 0.418650 0.368091
C16_11 C 0.31881(17) 0.39618(18) 0.41814(17)
H8_11 H 0.328639 0.382133 0.420565
C17_11 C 0.3581(2) 0.3910(2) 0.3785(2)
C18_11 C 0.32263(19) 0.4113(2) 0.39752(19)
O14_11 O 0.45829(9) 0.31013(10) 0.36707(10)
C19_11 C 0.40890(11) 0.27752(9) 0.46153(11)
C20_11 C 0.43247(11) 0.28775(9) 0.42347(11)
H9_11 H 0.444532 0.276092 0.427736
C21_11 C 0.45560(11) 0.29671(11) 0.38543(13)
C22_11 C 0.43445(13) 0.30095(12) 0.40191(13)
C23_11 C 0.41278(12) 0.29180(11) 0.43857(13)
C24_11 C 0.39545(15) 0.30903(14) 0.43266(16)
H10_11 H 0.381994 0.311648 0.443229
N5_11 N 0.35873(17) 0.37295(18) 0.39402(17)
N6_11 N 0.38008(17) 0.34042(17) 0.40801(17)
H11_11 H 0.368091 0.340179 0.418650
C25_11 C 0.41814(17) 0.31881(17) 0.39618(18)
H12_11 H 0.420565 0.328639 0.382133
C26_11 C 0.3785(2) 0.3581(2) 0.3910(2)
C27_11 C 0.39752(19) 0.32263(19) 0.4113(2)
O22_27 O 0.04171(9) 0.36707(10) 0.31013(10)
C28_27 C 0.09110(11) 0.46153(11) 0.27752(9)
C29_27 C 0.06753(11) 0.42347(11) 0.28775(9)
H13_27 H 0.055468 0.427736 0.276092
C30_27 C 0.04440(11) 0.38543(13) 0.29671(11)
C31_27 C 0.06555(13) 0.40191(13) 0.30095(12)
C32_27 C 0.08722(12) 0.43857(13) 0.29180(11)
C33_27 C 0.10455(15) 0.43266(16) 0.30903(14)
H14_27 H 0.118006 0.443229 0.311648
N7_27 N 0.14127(17) 0.39402(17) 0.37295(18)
N8_27 N 0.11992(17) 0.40801(17) 0.34042(17)
H15_27 H 0.131909 0.418650 0.340179
C34_27 C 0.08186(17) 0.39618(18) 0.31881(17)
H16_27 H 0.079435 0.382133 0.328639
C35_27 C 0.1215(2) 0.3910(2) 0.3581(2)
C36_27 C 0.10248(19) 0.4113(2) 0.32263(19)
O26_27 O 0.13293(10) 0.31013(10) 0.45829(9)
C37_27 C 0.03847(11) 0.27752(9) 0.40890(11)
C38_27 C 0.07653(11) 0.28775(9) 0.43247(11)
H17_27 H 0.072264 0.276092 0.444532
C39_27 C 0.11457(13) 0.29671(11) 0.45560(11)
C40_27 C 0.09809(13) 0.30095(12) 0.43445(13)
C41_27 C 0.06143(13) 0.29180(11) 0.41278(12)
C42_27 C 0.06734(16) 0.30903(14) 0.39545(15)
H18_27 H 0.056771 0.311648 0.381994
N9_27 N 0.10598(17) 0.37295(18) 0.35873(17)
N10_27 N 0.09199(17) 0.34042(17) 0.38008(17)
H19_27 H 0.081350 0.340179 0.368091
C43_27 C 0.10382(18) 0.31881(17) 0.41814(17)
H20_27 H 0.117867 0.328639 0.420565
C44_27 C 0.1090(2) 0.3581(2) 0.3785(2)
C45_27 C 0.0887(2) 0.32263(19) 0.39752(19)
O30_27 O 0.18987(10) 0.45829(9) 0.36707(10)
C46_27 C 0.22248(9) 0.40890(11) 0.46153(11)
C47_27 C 0.21225(9) 0.43247(11) 0.42347(11)
H21_27 H 0.223908 0.444532 0.427736
C48_27 C 0.20329(11) 0.45560(11) 0.38543(13)
C49_27 C 0.19905(12) 0.43445(13) 0.40191(13)
C50_27 C 0.20820(11) 0.41278(12) 0.43857(13)
C51_27 C 0.19097(14) 0.39545(15) 0.43266(16)
H22_27 H 0.188352 0.381994 0.443229
N11_27 N 0.12705(18) 0.35873(17) 0.39402(17)
N12_27 N 0.15958(17) 0.38008(17) 0.40801(17)
H23_27 H 0.159821 0.368091 0.418650
C52_27 C 0.18119(17) 0.41814(17) 0.39618(18)
H24_27 H 0.171361 0.420565 0.382133
C53_27 C 0.1419(2) 0.3785(2) 0.3910(2)
C54_27 C 0.17737(19) 0.39752(19) 0.4113(2)
O5_12 O 0.63293(10) 0.54171(9) 0.31013(10)
C1_12 C 0.53847(11) 0.59110(11) 0.27752(9)
C2_12 C 0.57653(11) 0.56753(11) 0.28775(9)
H1_12 H 0.572264 0.555468 0.276092
C3_12 C 0.61457(13) 0.54440(11) 0.29671(11)
C4_12 C 0.59809(13) 0.56555(13) 0.30095(12)
C5_12 C 0.56143(13) 0.58722(12) 0.29180(11)
C6_12 C 0.56734(16) 0.60455(15) 0.30903(14)
H2_12 H 0.556771 0.618006 0.311648
N1_12 N 0.60598(17) 0.64127(17) 0.37295(18)
N2_12 N 0.59199(17) 0.61992(17) 0.34042(17)
H3_12 H 0.581350 0.631909 0.340179
C7_12 C 0.60382(18) 0.58186(17) 0.31881(17)
H4_12 H 0.617867 0.579435 0.328639
C8_12 C 0.6090(2) 0.6215(2) 0.3581(2)
C9_12 C 0.5887(2) 0.60248(19) 0.32263(19)
O10_12 O 0.68987(10) 0.63293(10) 0.45829(9)
C10_12 C 0.72248(9) 0.53847(11) 0.40890(11)
C11_12 C 0.71225(9) 0.57653(11) 0.43247(11)
H5_12 H 0.723908 0.572264 0.444532
C12_12 C 0.70329(11) 0.61457(13) 0.45560(11)
C13_12 C 0.69905(12) 0.59809(13) 0.43445(13)
C14_12 C 0.70820(11) 0.56143(13) 0.41278(12)
C15_12 C 0.69097(14) 0.56734(16) 0.39545(15)
H6_12 H 0.688352 0.556771 0.381994
N3_12 N 0.62705(18) 0.60598(17) 0.35873(17)
N4_12 N 0.65958(17) 0.59199(17) 0.38008(17)
H7_12 H 0.659821 0.581350 0.368091
C16_12 C 0.68119(17) 0.60382(18) 0.41814(17)
H8_12 H 0.671361 0.617867 0.420565
C17_12 C 0.6419(2) 0.6090(2) 0.3785(2)
C18_12 C 0.67737(19) 0.5887(2) 0.39752(19)
O14_12 O 0.54171(9) 0.68987(10) 0.36707(10)
C19_12 C 0.59110(11) 0.72248(9) 0.46153(11)
C20_12 C 0.56753(11) 0.71225(9) 0.42347(11)
H9_12 H 0.555468 0.723908 0.427736
C21_12 C 0.54440(11) 0.70329(11) 0.38543(13)
C22_12 C 0.56555(13) 0.69905(12) 0.40191(13)
C23_12 C 0.58722(12) 0.70820(11) 0.43857(13)
C24_12 C 0.60455(15) 0.69097(14) 0.43266(16)
H10_12 H 0.618006 0.688352 0.443229
N5_12 N 0.64127(17) 0.62705(18) 0.39402(17)
N6_12 N 0.61992(17) 0.65958(17) 0.40801(17)
H11_12 H 0.631909 0.659821 0.418650
C25_12 C 0.58186(17) 0.68119(17) 0.39618(18)
H12_12 H 0.579435 0.671361 0.382133
C26_12 C 0.6215(2) 0.6419(2) 0.3910(2)
C27_12 C 0.60248(19) 0.67737(19) 0.4113(2)
O22_28 O 0.95829(9) 0.63293(10) 0.31013(10)
C28_28 C 0.90890(11) 0.53847(11) 0.27752(9)
C29_28 C 0.93247(11) 0.57653(11) 0.28775(9)
H13_28 H 0.944532 0.572264 0.276092
C30_28 C 0.95560(11) 0.61457(13) 0.29671(11)
C31_28 C 0.93445(13) 0.59809(13) 0.30095(12)
C32_28 C 0.91278(12) 0.56143(13) 0.29180(11)
C33_28 C 0.89545(15) 0.56734(16) 0.30903(14)
H14_28 H 0.881994 0.556771 0.311648
N7_28 N 0.85873(17) 0.60598(17) 0.37295(18)
N8_28 N 0.88008(17) 0.59199(17) 0.34042(17)
H15_28 H 0.868091 0.581350 0.340179
C34_28 C 0.91814(17) 0.60382(18) 0.31881(17)
H16_28 H 0.920565 0.617867 0.328639
C35_28 C 0.8785(2) 0.6090(2) 0.3581(2)
C36_28 C 0.89752(19) 0.5887(2) 0.32263(19)
O26_28 O 0.86707(10) 0.68987(10) 0.45829(9)
C37_28 C 0.96153(11) 0.72248(9) 0.40890(11)
C38_28 C 0.92347(11) 0.71225(9) 0.43247(11)
H17_28 H 0.927736 0.723908 0.444532
C39_28 C 0.88543(13) 0.70329(11) 0.45560(11)
C40_28 C 0.90191(13) 0.69905(12) 0.43445(13)
C41_28 C 0.93857(13) 0.70820(11) 0.41278(12)
C42_28 C 0.93266(16) 0.69097(14) 0.39545(15)
H18_28 H 0.943229 0.688352 0.381994
N9_28 N 0.89402(17) 0.62705(18) 0.35873(17)
N10_28 N 0.90801(17) 0.65958(17) 0.38008(17)
H19_28 H 0.918650 0.659821 0.368091
C43_28 C 0.89618(18) 0.68119(17) 0.41814(17)
H20_28 H 0.882133 0.671361 0.420565
C44_28 C 0.8910(2) 0.6419(2) 0.3785(2)
C45_28 C 0.9113(2) 0.67737(19) 0.39752(19)
O30_28 O 0.81013(10) 0.54171(9) 0.36707(10)
C46_28 C 0.77752(9) 0.59110(11) 0.46153(11)
C47_28 C 0.78775(9) 0.56753(11) 0.42347(11)
H21_28 H 0.776092 0.555468 0.427736
C48_28 C 0.79671(11) 0.54440(11) 0.38543(13)
C49_28 C 0.80095(12) 0.56555(13) 0.40191(13)
C50_28 C 0.79180(11) 0.58722(12) 0.43857(13)
C51_28 C 0.80903(14) 0.60455(15) 0.43266(16)
H22_28 H 0.811648 0.618006 0.443229
N11_28 N 0.87295(18) 0.64127(17) 0.39402(17)
N12_28 N 0.84042(17) 0.61992(17) 0.40801(17)
H23_28 H 0.840179 0.631909 0.418650
C52_28 C 0.81881(17) 0.58186(17) 0.39618(18)
H24_28 H 0.828639 0.579435 0.382133
C53_28 C 0.8581(2) 0.6215(2) 0.3910(2)
C54_28 C 0.82263(19) 0.60248(19) 0.4113(2)
O22_29 O 0.68987(10) 0.95829(9) 0.36707(10)
C28_29 C 0.72248(9) 0.90890(11) 0.46153(11)
C29_29 C 0.71225(9) 0.93247(11) 0.42347(11)
H13_29 H 0.723908 0.944532 0.427736
C30_29 C 0.70329(11) 0.95560(11) 0.38543(13)
C31_29 C 0.69905(12) 0.93445(13) 0.40191(13)
C32_29 C 0.70820(11) 0.91278(12) 0.43857(13)
C33_29 C 0.69097(14) 0.89545(15) 0.43266(16)
H14_29 H 0.688352 0.881994 0.443229
N7_29 N 0.62705(18) 0.85873(17) 0.39402(17)
N8_29 N 0.65958(17) 0.88008(17) 0.40801(17)
H15_29 H 0.659821 0.868091 0.418650
C34_29 C 0.68119(17) 0.91814(17) 0.39618(18)
H16_29 H 0.671361 0.920565 0.382133
C35_29 C 0.6419(2) 0.8785(2) 0.3910(2)
C36_29 C 0.67737(19) 0.89752(19) 0.4113(2)
O26_29 O 0.54171(9) 0.86707(10) 0.31013(10)
C37_29 C 0.59110(11) 0.96153(11) 0.27752(9)
C38_29 C 0.56753(11) 0.92347(11) 0.28775(9)
H17_29 H 0.555468 0.927736 0.276092
C39_29 C 0.54440(11) 0.88543(13) 0.29671(11)
C40_29 C 0.56555(13) 0.90191(13) 0.30095(12)
C41_29 C 0.58722(12) 0.93857(13) 0.29180(11)
C42_29 C 0.60455(15) 0.93266(16) 0.30903(14)
H18_29 H 0.618006 0.943229 0.311648
N9_29 N 0.64127(17) 0.89402(17) 0.37295(18)
N10_29 N 0.61992(17) 0.90801(17) 0.34042(17)
H19_29 H 0.631909 0.918650 0.340179
C43_29 C 0.58186(17) 0.89618(18) 0.31881(17)
H20_29 H 0.579435 0.882133 0.328639
C44_29 C 0.6215(2) 0.8910(2) 0.3581(2)
C45_29 C 0.60248(19) 0.9113(2) 0.32263(19)
O30_29 O 0.63293(10) 0.81013(10) 0.45829(9)
C46_29 C 0.53847(11) 0.77752(9) 0.40890(11)
C47_29 C 0.57653(11) 0.78775(9) 0.43247(11)
H21_29 H 0.572264 0.776092 0.444532
C48_29 C 0.61457(13) 0.79671(11) 0.45560(11)
C49_29 C 0.59809(13) 0.80095(12) 0.43445(13)
C50_29 C 0.56143(13) 0.79180(11) 0.41278(12)
C51_29 C 0.56734(16) 0.80903(14) 0.39545(15)
H22_29 H 0.556771 0.811648 0.381994
N11_29 N 0.60598(17) 0.87295(18) 0.35873(17)
N12_29 N 0.59199(17) 0.84042(17) 0.38008(17)
H23_29 H 0.581350 0.840179 0.368091
C52_29 C 0.60382(18) 0.81881(17) 0.41814(17)
H24_29 H 0.617867 0.828639 0.420565
C53_29 C 0.6090(2) 0.8581(2) 0.3785(2)
C54_29 C 0.5887(2) 0.82263(19) 0.39752(19)
O22_30 O 0.68987(10) 0.04171(9) 0.63293(10)
C28_30 C 0.72248(9) 0.09110(11) 0.53847(11)
C29_30 C 0.71225(9) 0.06753(11) 0.57653(11)
H13_30 H 0.723908 0.055468 0.572264
C30_30 C 0.70329(11) 0.04440(11) 0.61457(13)
C31_30 C 0.69905(12) 0.06555(13) 0.59809(13)
C32_30 C 0.70820(11) 0.08722(12) 0.56143(13)
C33_30 C 0.69097(14) 0.10455(15) 0.56734(16)
H14_30 H 0.688352 0.118006 0.556771
N7_30 N 0.62705(18) 0.14127(17) 0.60598(17)
N8_30 N 0.65958(17) 0.11992(17) 0.59199(17)
H15_30 H 0.659821 0.131909 0.581350
C34_30 C 0.68119(17) 0.08186(17) 0.60382(18)
H16_30 H 0.671361 0.079435 0.617867
C35_30 C 0.6419(2) 0.1215(2) 0.6090(2)
C36_30 C 0.67737(19) 0.10248(19) 0.5887(2)
O26_30 O 0.54171(9) 0.13293(10) 0.68987(10)
C37_30 C 0.59110(11) 0.03847(11) 0.72248(9)
C38_30 C 0.56753(11) 0.07653(11) 0.71225(9)
H17_30 H 0.555468 0.072264 0.723908
C39_30 C 0.54440(11) 0.11457(13) 0.70329(11)
C40_30 C 0.56555(13) 0.09809(13) 0.69905(12)
C41_30 C 0.58722(12) 0.06143(13) 0.70820(11)
C42_30 C 0.60455(15) 0.06734(16) 0.69097(14)
H18_30 H 0.618006 0.056771 0.688352
N9_30 N 0.64127(17) 0.10598(17) 0.62705(18)
N10_30 N 0.61992(17) 0.09199(17) 0.65958(17)
H19_30 H 0.631909 0.081350 0.659821
C43_30 C 0.58186(17) 0.10382(18) 0.68119(17)
H20_30 H 0.579435 0.117867 0.671361
C44_30 C 0.6215(2) 0.1090(2) 0.6419(2)
C45_30 C 0.60248(19) 0.0887(2) 0.67737(19)
O30_30 O 0.63293(10) 0.18987(10) 0.54171(9)
C46_30 C 0.53847(11) 0.22248(9) 0.59110(11)
C47_30 C 0.57653(11) 0.21225(9) 0.56753(11)
H21_30 H 0.572264 0.223908 0.555468
C48_30 C 0.61457(13) 0.20329(11) 0.54440(11)
C49_30 C 0.59809(13) 0.19905(12) 0.56555(13)
C50_30 C 0.56143(13) 0.20820(11) 0.58722(12)
C51_30 C 0.56734(16) 0.19097(14) 0.60455(15)
H22_30 H 0.556771 0.188352 0.618006
N11_30 N 0.60598(17) 0.12705(18) 0.64127(17)
N12_30 N 0.59199(17) 0.15958(17) 0.61992(17)
H23_30 H 0.581350 0.159821 0.631909
C52_30 C 0.60382(18) 0.18119(17) 0.58186(17)
H24_30 H 0.617867 0.171361 0.579435
C53_30 C 0.6090(2) 0.1419(2) 0.6215(2)
C54_30 C 0.5887(2) 0.17737(19) 0.60248(19)
O22_31 O 0.31013(10) 0.04171(9) 0.36707(10)
C28_31 C 0.27752(9) 0.09110(11) 0.46153(11)
C29_31 C 0.28775(9) 0.06753(11) 0.42347(11)
H13_31 H 0.276092 0.055468 0.427736
C30_31 C 0.29671(11) 0.04440(11) 0.38543(13)
C31_31 C 0.30095(12) 0.06555(13) 0.40191(13)
C32_31 C 0.29180(11) 0.08722(12) 0.43857(13)
C33_31 C 0.30903(14) 0.10455(15) 0.43266(16)
H14_31 H 0.311648 0.118006 0.443229
N7_31 N 0.37295(18) 0.14127(17) 0.39402(17)
N8_31 N 0.34042(17) 0.11992(17) 0.40801(17)
H15_31 H 0.340179 0.131909 0.418650
C34_31 C 0.31881(17) 0.08186(17) 0.39618(18)
H16_31 H 0.328639 0.079435 0.382133
C35_31 C 0.3581(2) 0.1215(2) 0.3910(2)
C36_31 C 0.32263(19) 0.10248(19) 0.4113(2)
O26_31 O 0.45829(9) 0.13293(10) 0.31013(10)
C37_31 C 0.40890(11) 0.03847(11) 0.27752(9)
C38_31 C 0.43247(11) 0.07653(11) 0.28775(9)
H17_31 H 0.444532 0.072264 0.276092
C39_31 C 0.45560(11) 0.11457(13) 0.29671(11)
C40_31 C 0.43445(13) 0.09809(13) 0.30095(12)
C41_31 C 0.41278(12) 0.06143(13) 0.29180(11)
C42_31 C 0.39545(15) 0.06734(16) 0.30903(14)
H18_31 H 0.381994 0.056771 0.311648
N9_31 N 0.35873(17) 0.10598(17) 0.37295(18)
N10_31 N 0.38008(17) 0.09199(17) 0.34042(17)
H19_31 H 0.368091 0.081350 0.340179
C43_31 C 0.41814(17) 0.10382(18) 0.31881(17)
H20_31 H 0.420565 0.117867 0.328639
C44_31 C 0.3785(2) 0.1090(2) 0.3581(2)
C45_31 C 0.39752(19) 0.0887(2) 0.32263(19)
O30_31 O 0.36707(10) 0.18987(10) 0.45829(9)
C46_31 C 0.46153(11) 0.22248(9) 0.40890(11)
C47_31 C 0.42347(11) 0.21225(9) 0.43247(11)
H21_31 H 0.427736 0.223908 0.444532
C48_31 C 0.38543(13) 0.20329(11) 0.45560(11)
C49_31 C 0.40191(13) 0.19905(12) 0.43445(13)
C50_31 C 0.43857(13) 0.20820(11) 0.41278(12)
C51_31 C 0.43266(16) 0.19097(14) 0.39545(15)
H22_31 H 0.443229 0.188352 0.381994
N11_31 N 0.39402(17) 0.12705(18) 0.35873(17)
N12_31 N 0.40801(17) 0.15958(17) 0.38008(17)
H23_31 H 0.418650 0.159821 0.368091
C52_31 C 0.39618(18) 0.18119(17) 0.41814(17)
H24_31 H 0.382133 0.171361 0.420565
C53_31 C 0.3910(2) 0.1419(2) 0.3785(2)
C54_31 C 0.4113(2) 0.17737(19) 0.39752(19)
O22_32 O 0.31013(10) 0.95829(9) 0.63293(10)
C28_32 C 0.27752(9) 0.90890(11) 0.53847(11)
C29_32 C 0.28775(9) 0.93247(11) 0.57653(11)
H13_32 H 0.276092 0.944532 0.572264
C30_32 C 0.29671(11) 0.95560(11) 0.61457(13)
C31_32 C 0.30095(12) 0.93445(13) 0.59809(13)
C32_32 C 0.29180(11) 0.91278(12) 0.56143(13)
C33_32 C 0.30903(14) 0.89545(15) 0.56734(16)
H14_32 H 0.311648 0.881994 0.556771
N7_32 N 0.37295(18) 0.85873(17) 0.60598(17)
N8_32 N 0.34042(17) 0.88008(17) 0.59199(17)
H15_32 H 0.340179 0.868091 0.581350
C34_32 C 0.31881(17) 0.91814(17) 0.60382(18)
H16_32 H 0.328639 0.920565 0.617867
C35_32 C 0.3581(2) 0.8785(2) 0.6090(2)
C36_32 C 0.32263(19) 0.89752(19) 0.5887(2)
O26_32 O 0.45829(9) 0.86707(10) 0.68987(10)
C37_32 C 0.40890(11) 0.96153(11) 0.72248(9)
C38_32 C 0.43247(11) 0.92347(11) 0.71225(9)
H17_32 H 0.444532 0.927736 0.723908
C39_32 C 0.45560(11) 0.88543(13) 0.70329(11)
C40_32 C 0.43445(13) 0.90191(13) 0.69905(12)
C41_32 C 0.41278(12) 0.93857(13) 0.70820(11)
C42_32 C 0.39545(15) 0.93266(16) 0.69097(14)
H18_32 H 0.381994 0.943229 0.688352
N9_32 N 0.35873(17) 0.89402(17) 0.62705(18)
N10_32 N 0.38008(17) 0.90801(17) 0.65958(17)
H19_32 H 0.368091 0.918650 0.659821
C43_32 C 0.41814(17) 0.89618(18) 0.68119(17)
H20_32 H 0.420565 0.882133 0.671361
C44_32 C 0.3785(2) 0.8910(2) 0.6419(2)
C45_32 C 0.39752(19) 0.9113(2) 0.67737(19)
O30_32 O 0.36707(10) 0.81013(10) 0.54171(9)
C46_32 C 0.46153(11) 0.77752(9) 0.59110(11)
C47_32 C 0.42347(11) 0.78775(9) 0.56753(11)
H21_32 H 0.427736 0.776092 0.555468
C48_32 C 0.38543(13) 0.79671(11) 0.54440(11)
C49_32 C 0.40191(13) 0.80095(12) 0.56555(13)
C50_32 C 0.43857(13) 0.79180(11) 0.58722(12)
C51_32 C 0.43266(16) 0.80903(14) 0.60455(15)
H22_32 H 0.443229 0.811648 0.618006
N11_32 N 0.39402(17) 0.87295(18) 0.64127(17)
N12_32 N 0.40801(17) 0.84042(17) 0.61992(17)
H23_32 H 0.418650 0.840179 0.631909
C52_32 C 0.39618(18) 0.81881(17) 0.58186(17)
H24_32 H 0.382133 0.828639 0.579435
C53_32 C 0.3910(2) 0.8581(2) 0.6215(2)
C54_32 C 0.4113(2) 0.82263(19) 0.60248(19)
O22_33 O 0.36707(10) 0.68987(10) 0.95829(9)
C28_33 C 0.46153(11) 0.72248(9) 0.90890(11)
C29_33 C 0.42347(11) 0.71225(9) 0.93247(11)
H13_33 H 0.427736 0.723908 0.944532
C30_33 C 0.38543(13) 0.70329(11) 0.95560(11)
C31_33 C 0.40191(13) 0.69905(12) 0.93445(13)
C32_33 C 0.43857(13) 0.70820(11) 0.91278(12)
C33_33 C 0.43266(16) 0.69097(14) 0.89545(15)
H14_33 H 0.443229 0.688352 0.881994
N7_33 N 0.39402(17) 0.62705(18) 0.85873(17)
N8_33 N 0.40801(17) 0.65958(17) 0.88008(17)
H15_33 H 0.418650 0.659821 0.868091
C34_33 C 0.39618(18) 0.68119(17) 0.91814(17)
H16_33 H 0.382133 0.671361 0.920565
C35_33 C 0.3910(2) 0.6419(2) 0.8785(2)
C36_33 C 0.4113(2) 0.67737(19) 0.89752(19)
O26_33 O 0.31013(10) 0.54171(9) 0.86707(10)
C37_33 C 0.27752(9) 0.59110(11) 0.96153(11)
C38_33 C 0.28775(9) 0.56753(11) 0.92347(11)
H17_33 H 0.276092 0.555468 0.927736
C39_33 C 0.29671(11) 0.54440(11) 0.88543(13)
C40_33 C 0.30095(12) 0.56555(13) 0.90191(13)
C41_33 C 0.29180(11) 0.58722(12) 0.93857(13)
C42_33 C 0.30903(14) 0.60455(15) 0.93266(16)
H18_33 H 0.311648 0.618006 0.943229
N9_33 N 0.37295(18) 0.64127(17) 0.89402(17)
N10_33 N 0.34042(17) 0.61992(17) 0.90801(17)
H19_33 H 0.340179 0.631909 0.918650
C43_33 C 0.31881(17) 0.58186(17) 0.89618(18)
H20_33 H 0.328639 0.579435 0.882133
C44_33 C 0.3581(2) 0.6215(2) 0.8910(2)
C45_33 C 0.32263(19) 0.60248(19) 0.9113(2)
O30_33 O 0.45829(9) 0.63293(10) 0.81013(10)
C46_33 C 0.40890(11) 0.53847(11) 0.77752(9)
C47_33 C 0.43247(11) 0.57653(11) 0.78775(9)
H21_33 H 0.444532 0.572264 0.776092
C48_33 C 0.45560(11) 0.61457(13) 0.79671(11)
C49_33 C 0.43445(13) 0.59809(13) 0.80095(12)
C50_33 C 0.41278(12) 0.56143(13) 0.79180(11)
C51_33 C 0.39545(15) 0.56734(16) 0.80903(14)
H22_33 H 0.381994 0.556771 0.811648
N11_33 N 0.35873(17) 0.60598(17) 0.87295(18)
N12_33 N 0.38008(17) 0.59199(17) 0.84042(17)
H23_33 H 0.368091 0.581350 0.840179
C52_33 C 0.41814(17) 0.60382(18) 0.81881(17)
H24_33 H 0.420565 0.617867 0.828639
C53_33 C 0.3785(2) 0.6090(2) 0.8581(2)
C54_33 C 0.39752(19) 0.5887(2) 0.82263(19)
O22_34 O 0.63293(10) 0.68987(10) 0.04171(9)
C28_34 C 0.53847(11) 0.72248(9) 0.09110(11)
C29_34 C 0.57653(11) 0.71225(9) 0.06753(11)
H13_34 H 0.572264 0.723908 0.055468
C30_34 C 0.61457(13) 0.70329(11) 0.04440(11)
C31_34 C 0.59809(13) 0.69905(12) 0.06555(13)
C32_34 C 0.56143(13) 0.70820(11) 0.08722(12)
C33_34 C 0.56734(16) 0.69097(14) 0.10455(15)
H14_34 H 0.556771 0.688352 0.118006
N7_34 N 0.60598(17) 0.62705(18) 0.14127(17)
N8_34 N 0.59199(17) 0.65958(17) 0.11992(17)
H15_34 H 0.581350 0.659821 0.131909
C34_34 C 0.60382(18) 0.68119(17) 0.08186(17)
H16_34 H 0.617867 0.671361 0.079435
C35_34 C 0.6090(2) 0.6419(2) 0.1215(2)
C36_34 C 0.5887(2) 0.67737(19) 0.10248(19)
O26_34 O 0.68987(10) 0.54171(9) 0.13293(10)
C37_34 C 0.72248(9) 0.59110(11) 0.03847(11)
C38_34 C 0.71225(9) 0.56753(11) 0.07653(11)
H17_34 H 0.723908 0.555468 0.072264
C39_34 C 0.70329(11) 0.54440(11) 0.11457(13)
C40_34 C 0.69905(12) 0.56555(13) 0.09809(13)
C41_34 C 0.70820(11) 0.58722(12) 0.06143(13)
C42_34 C 0.69097(14) 0.60455(15) 0.06734(16)
H18_34 H 0.688352 0.618006 0.056771
N9_34 N 0.62705(18) 0.64127(17) 0.10598(17)
N10_34 N 0.65958(17) 0.61992(17) 0.09199(17)
H19_34 H 0.659821 0.631909 0.081350
C43_34 C 0.68119(17) 0.58186(17) 0.10382(18)
H20_34 H 0.671361 0.579435 0.117867
C44_34 C 0.6419(2) 0.6215(2) 0.1090(2)
C45_34 C 0.67737(19) 0.60248(19) 0.0887(2)
O30_34 O 0.54171(9) 0.63293(10) 0.18987(10)
C46_34 C 0.59110(11) 0.53847(11) 0.22248(9)
C47_34 C 0.56753(11) 0.57653(11) 0.21225(9)
H21_34 H 0.555468 0.572264 0.223908
C48_34 C 0.54440(11) 0.61457(13) 0.20329(11)
C49_34 C 0.56555(13) 0.59809(13) 0.19905(12)
C50_34 C 0.58722(12) 0.56143(13) 0.20820(11)
C51_34 C 0.60455(15) 0.56734(16) 0.19097(14)
H22_34 H 0.618006 0.556771 0.188352
N11_34 N 0.64127(17) 0.60598(17) 0.12705(18)
N12_34 N 0.61992(17) 0.59199(17) 0.15958(17)
H23_34 H 0.631909 0.581350 0.159821
C52_34 C 0.58186(17) 0.60382(18) 0.18119(17)
H24_34 H 0.579435 0.617867 0.171361
C53_34 C 0.6215(2) 0.6090(2) 0.1419(2)
C54_34 C 0.60248(19) 0.5887(2) 0.17737(19)
O22_35 O 0.36707(10) 0.31013(10) 0.04171(9)
C28_35 C 0.46153(11) 0.27752(9) 0.09110(11)
C29_35 C 0.42347(11) 0.28775(9) 0.06753(11)
H13_35 H 0.427736 0.276092 0.055468
C30_35 C 0.38543(13) 0.29671(11) 0.04440(11)
C31_35 C 0.40191(13) 0.30095(12) 0.06555(13)
C32_35 C 0.43857(13) 0.29180(11) 0.08722(12)
C33_35 C 0.43266(16) 0.30903(14) 0.10455(15)
H14_35 H 0.443229 0.311648 0.118006
N7_35 N 0.39402(17) 0.37295(18) 0.14127(17)
N8_35 N 0.40801(17) 0.34042(17) 0.11992(17)
H15_35 H 0.418650 0.340179 0.131909
C34_35 C 0.39618(18) 0.31881(17) 0.08186(17)
H16_35 H 0.382133 0.328639 0.079435
C35_35 C 0.3910(2) 0.3581(2) 0.1215(2)
C36_35 C 0.4113(2) 0.32263(19) 0.10248(19)
O26_35 O 0.31013(10) 0.45829(9) 0.13293(10)
C37_35 C 0.27752(9) 0.40890(11) 0.03847(11)
C38_35 C 0.28775(9) 0.43247(11) 0.07653(11)
H17_35 H 0.276092 0.444532 0.072264
C39_35 C 0.29671(11) 0.45560(11) 0.11457(13)
C40_35 C 0.30095(12) 0.43445(13) 0.09809(13)
C41_35 C 0.29180(11) 0.41278(12) 0.06143(13)
C42_35 C 0.30903(14) 0.39545(15) 0.06734(16)
H18_35 H 0.311648 0.381994 0.056771
N9_35 N 0.37295(18) 0.35873(17) 0.10598(17)
N10_35 N 0.34042(17) 0.38008(17) 0.09199(17)
H19_35 H 0.340179 0.368091 0.081350
C43_35 C 0.31881(17) 0.41814(17) 0.10382(18)
H20_35 H 0.328639 0.420565 0.117867
C44_35 C 0.3581(2) 0.3785(2) 0.1090(2)
C45_35 C 0.32263(19) 0.39752(19) 0.0887(2)
O30_35 O 0.45829(9) 0.36707(10) 0.18987(10)
C46_35 C 0.40890(11) 0.46153(11) 0.22248(9)
C47_35 C 0.43247(11) 0.42347(11) 0.21225(9)
H21_35 H 0.444532 0.427736 0.223908
C48_35 C 0.45560(11) 0.38543(13) 0.20329(11)
C49_35 C 0.43445(13) 0.40191(13) 0.19905(12)
C50_35 C 0.41278(12) 0.43857(13) 0.20820(11)
C51_35 C 0.39545(15) 0.43266(16) 0.19097(14)
H22_35 H 0.381994 0.443229 0.188352
N11_35 N 0.35873(17) 0.39402(17) 0.12705(18)
N12_35 N 0.38008(17) 0.40801(17) 0.15958(17)
H23_35 H 0.368091 0.418650 0.159821
C52_35 C 0.41814(17) 0.39618(18) 0.18119(17)
H24_35 H 0.420565 0.382133 0.171361
C53_35 C 0.3785(2) 0.3910(2) 0.1419(2)
C54_35 C 0.39752(19) 0.4113(2) 0.17737(19)
O22_36 O 0.63293(10) 0.31013(10) 0.95829(9)
C28_36 C 0.53847(11) 0.27752(9) 0.90890(11)
C29_36 C 0.57653(11) 0.28775(9) 0.93247(11)
H13_36 H 0.572264 0.276092 0.944532
C30_36 C 0.61457(13) 0.29671(11) 0.95560(11)
C31_36 C 0.59809(13) 0.30095(12) 0.93445(13)
C32_36 C 0.56143(13) 0.29180(11) 0.91278(12)
C33_36 C 0.56734(16) 0.30903(14) 0.89545(15)
H14_36 H 0.556771 0.311648 0.881994
N7_36 N 0.60598(17) 0.37295(18) 0.85873(17)
N8_36 N 0.59199(17) 0.34042(17) 0.88008(17)
H15_36 H 0.581350 0.340179 0.868091
C34_36 C 0.60382(18) 0.31881(17) 0.91814(17)
H16_36 H 0.617867 0.328639 0.920565
C35_36 C 0.6090(2) 0.3581(2) 0.8785(2)
C36_36 C 0.5887(2) 0.32263(19) 0.89752(19)
O26_36 O 0.68987(10) 0.45829(9) 0.86707(10)
C37_36 C 0.72248(9) 0.40890(11) 0.96153(11)
C38_36 C 0.71225(9) 0.43247(11) 0.92347(11)
H17_36 H 0.723908 0.444532 0.927736
C39_36 C 0.70329(11) 0.45560(11) 0.88543(13)
C40_36 C 0.69905(12) 0.43445(13) 0.90191(13)
C41_36 C 0.70820(11) 0.41278(12) 0.93857(13)
C42_36 C 0.69097(14) 0.39545(15) 0.93266(16)
H18_36 H 0.688352 0.381994 0.943229
N9_36 N 0.62705(18) 0.35873(17) 0.89402(17)
N10_36 N 0.65958(17) 0.38008(17) 0.90801(17)
H19_36 H 0.659821 0.368091 0.918650
C43_36 C 0.68119(17) 0.41814(17) 0.89618(18)
H20_36 H 0.671361 0.420565 0.882133
C44_36 C 0.6419(2) 0.3785(2) 0.8910(2)
C45_36 C 0.67737(19) 0.39752(19) 0.9113(2)
O30_36 O 0.54171(9) 0.36707(10) 0.81013(10)
C46_36 C 0.59110(11) 0.46153(11) 0.77752(9)
C47_36 C 0.56753(11) 0.42347(11) 0.78775(9)
H21_36 H 0.555468 0.427736 0.776092
C48_36 C 0.54440(11) 0.38543(13) 0.79671(11)
C49_36 C 0.56555(13) 0.40191(13) 0.80095(12)
C50_36 C 0.58722(12) 0.43857(13) 0.79180(11)
C51_36 C 0.60455(15) 0.43266(16) 0.80903(14)
H22_36 H 0.618006 0.443229 0.811648
N11_36 N 0.64127(17) 0.39402(17) 0.87295(18)
N12_36 N 0.61992(17) 0.40801(17) 0.84042(17)
H23_36 H 0.631909 0.418650 0.840179
C52_36 C 0.58186(17) 0.39618(18) 0.81881(17)
H24_36 H 0.579435 0.382133 0.828639
C53_36 C 0.6215(2) 0.3910(2) 0.8581(2)
C54_36 C 0.60248(19) 0.4113(2) 0.82263(19)
H26_17 H 0.0129413 0.150169 0.740134
H27_17 H 0.00321775 0.0691002 0.795259
H28_17 H 0.0128997 0.0535806 0.772054
H31_17 H 0.9309 0.204741 0.00321775
H32_17 H 0.946419 0.227946 0.0128997
H34_17 H 0.849831 0.259866 0.0129413
O5_13 O 0.95829(9) 0.13293(10) 0.81013(10)
C1_13 C 0.90890(11) 0.03847(11) 0.77752(9)
C2_13 C 0.93247(11) 0.07653(11) 0.78775(9)
H1_13 H 0.944532 0.072264 0.776092
C3_13 C 0.95560(11) 0.11457(13) 0.79671(11)
C4_13 C 0.93445(13) 0.09809(13) 0.80095(12)
C5_13 C 0.91278(12) 0.06143(13) 0.79180(11)
C6_13 C 0.89545(15) 0.06734(16) 0.80903(14)
H2_13 H 0.881994 0.056771 0.811648
N1_13 N 0.85873(17) 0.10598(17) 0.87295(18)
N2_13 N 0.88008(17) 0.09199(17) 0.84042(17)
H3_13 H 0.868091 0.081350 0.840179
C7_13 C 0.91814(17) 0.10382(18) 0.81881(17)
H4_13 H 0.920565 0.117867 0.828639
C8_13 C 0.8785(2) 0.1090(2) 0.8581(2)
C9_13 C 0.89752(19) 0.0887(2) 0.82263(19)
O10_13 O 0.86707(10) 0.18987(10) 0.95829(9)
C10_13 C 0.96153(11) 0.22248(9) 0.90890(11)
C11_13 C 0.92347(11) 0.21225(9) 0.93247(11)
H5_13 H 0.927736 0.223908 0.944532
C12_13 C 0.88543(13) 0.20329(11) 0.95560(11)
C13_13 C 0.90191(13) 0.19905(12) 0.93445(13)
C14_13 C 0.93857(13) 0.20820(11) 0.91278(12)
C15_13 C 0.93266(16) 0.19097(14) 0.89545(15)
H6_13 H 0.943229 0.188352 0.881994
N3_13 N 0.89402(17) 0.12705(18) 0.85873(17)
N4_13 N 0.90801(17) 0.15958(17) 0.88008(17)
H7_13 H 0.918650 0.159821 0.868091
C16_13 C 0.89618(18) 0.18119(17) 0.91814(17)
H8_13 H 0.882133 0.171361 0.920565
C17_13 C 0.8910(2) 0.1419(2) 0.8785(2)
C18_13 C 0.9113(2) 0.17737(19) 0.89752(19)
O14_13 O 0.81013(10) 0.04171(9) 0.86707(10)
C19_13 C 0.77752(9) 0.09110(11) 0.96153(11)
C20_13 C 0.78775(9) 0.06753(11) 0.92347(11)
H9_13 H 0.776092 0.055468 0.927736
C21_13 C 0.79671(11) 0.04440(11) 0.88543(13)
C22_13 C 0.80095(12) 0.06555(13) 0.90191(13)
C23_13 C 0.79180(11) 0.08722(12) 0.93857(13)
C24_13 C 0.80903(14) 0.10455(15) 0.93266(16)
H10_13 H 0.811648 0.118006 0.943229
N5_13 N 0.87295(18) 0.14127(17) 0.89402(17)
N6_13 N 0.84042(17) 0.11992(17) 0.90801(17)
H11_13 H 0.840179 0.131909 0.918650
C25_13 C 0.81881(17) 0.08186(17) 0.89618(18)
H12_13 H 0.828639 0.079435 0.882133
C26_13 C 0.8581(2) 0.1215(2) 0.8910(2)
C27_13 C 0.82263(19) 0.10248(19) 0.9113(2)
O22_37 O 0.86707(10) 0.45829(9) 0.81013(10)
C28_37 C 0.96153(11) 0.40890(11) 0.77752(9)
C29_37 C 0.92347(11) 0.43247(11) 0.78775(9)
H13_37 H 0.927736 0.444532 0.776092
C30_37 C 0.88543(13) 0.45560(11) 0.79671(11)
C31_37 C 0.90191(13) 0.43445(13) 0.80095(12)
C32_37 C 0.93857(13) 0.41278(12) 0.79180(11)
C33_37 C 0.93266(16) 0.39545(15) 0.80903(14)
H14_37 H 0.943229 0.381994 0.811648
N7_37 N 0.89402(17) 0.35873(17) 0.87295(18)
N8_37 N 0.90801(17) 0.38008(17) 0.84042(17)
H15_37 H 0.918650 0.368091 0.840179
C34_37 C 0.89618(18) 0.41814(17) 0.81881(17)
H16_37 H 0.882133 0.420565 0.828639
C35_37 C 0.8910(2) 0.3785(2) 0.8581(2)
C36_37 C 0.9113(2) 0.39752(19) 0.82263(19)
O26_37 O 0.81013(10) 0.36707(10) 0.95829(9)
C37_37 C 0.77752(9) 0.46153(11) 0.90890(11)
C38_37 C 0.78775(9) 0.42347(11) 0.93247(11)
H17_37 H 0.776092 0.427736 0.944532
C39_37 C 0.79671(11) 0.38543(13) 0.95560(11)
C40_37 C 0.80095(12) 0.40191(13) 0.93445(13)
C41_37 C 0.79180(11) 0.43857(13) 0.91278(12)
C42_37 C 0.80903(14) 0.43266(16) 0.89545(15)
H18_37 H 0.811648 0.443229 0.881994
N9_37 N 0.87295(18) 0.39402(17) 0.85873(17)
N10_37 N 0.84042(17) 0.40801(17) 0.88008(17)
H19_37 H 0.840179 0.418650 0.868091
C43_37 C 0.81881(17) 0.39618(18) 0.91814(17)
H20_37 H 0.828639 0.382133 0.920565
C44_37 C 0.8581(2) 0.3910(2) 0.8785(2)
C45_37 C 0.82263(19) 0.4113(2) 0.89752(19)
O30_37 O 0.95829(9) 0.31013(10) 0.86707(10)
C46_37 C 0.90890(11) 0.27752(9) 0.96153(11)
C47_37 C 0.93247(11) 0.28775(9) 0.92347(11)
H21_37 H 0.944532 0.276092 0.927736
C48_37 C 0.95560(11) 0.29671(11) 0.88543(13)
C49_37 C 0.93445(13) 0.30095(12) 0.90191(13)
C50_37 C 0.91278(12) 0.29180(11) 0.93857(13)
C51_37 C 0.89545(15) 0.30903(14) 0.93266(16)
H22_37 H 0.881994 0.311648 0.943229
N11_37 N 0.85873(17) 0.37295(18) 0.89402(17)
N12_37 N 0.88008(17) 0.34042(17) 0.90801(17)
H23_37 H 0.868091 0.340179 0.918650
C52_37 C 0.91814(17) 0.31881(17) 0.89618(18)
H24_37 H 0.920565 0.328639 0.882133
C53_37 C 0.8785(2) 0.3581(2) 0.8910(2)
C54_37 C 0.89752(19) 0.32263(19) 0.9113(2)
H25_17 H 0.983903 0.150475 0.745591
H33_17 H 0.849525 0.254409 0.983903
H35_17 H 0.745591 0.0160965 0.849525
H29_17 H 0.795259 0.996782 0.9309
H30_17 H 0.772054 0.9871 0.946419
H36_17 H 0.740134 0.987059 0.849831
H29_18 H 0.204741 0.00321775 0.9309
H30_18 H 0.227946 0.0128997 0.946419
H36_18 H 0.259866 0.0129413 0.849831
H31_18 H 0.0691002 0.795259 0.00321775
H32_18 H 0.0535806 0.772054 0.0128997
H34_18 H 0.150169 0.740134 0.0129413
O5_14 O 0.04171(9) 0.86707(10) 0.81013(10)
C1_14 C 0.09110(11) 0.96153(11) 0.77752(9)
C2_14 C 0.06753(11) 0.92347(11) 0.78775(9)
H1_14 H 0.055468 0.927736 0.776092
C3_14 C 0.04440(11) 0.88543(13) 0.79671(11)
C4_14 C 0.06555(13) 0.90191(13) 0.80095(12)
C5_14 C 0.08722(12) 0.93857(13) 0.79180(11)
C6_14 C 0.10455(15) 0.93266(16) 0.80903(14)
H2_14 H 0.118006 0.943229 0.811648
N1_14 N 0.14127(17) 0.89402(17) 0.87295(18)
N2_14 N 0.11992(17) 0.90801(17) 0.84042(17)
H3_14 H 0.131909 0.918650 0.840179
C7_14 C 0.08186(17) 0.89618(18) 0.81881(17)
H4_14 H 0.079435 0.882133 0.828639
C8_14 C 0.1215(2) 0.8910(2) 0.8581(2)
C9_14 C 0.10248(19) 0.9113(2) 0.82263(19)
O10_14 O 0.13293(10) 0.81013(10) 0.95829(9)
C10_14 C 0.03847(11) 0.77752(9) 0.90890(11)
C11_14 C 0.07653(11) 0.78775(9) 0.93247(11)
H5_14 H 0.072264 0.776092 0.944532
C12_14 C 0.11457(13) 0.79671(11) 0.95560(11)
C13_14 C 0.09809(13) 0.80095(12) 0.93445(13)
C14_14 C 0.06143(13) 0.79180(11) 0.91278(12)
C15_14 C 0.06734(16) 0.80903(14) 0.89545(15)
H6_14 H 0.056771 0.811648 0.881994
N3_14 N 0.10598(17) 0.87295(18) 0.85873(17)
N4_14 N 0.09199(17) 0.84042(17) 0.88008(17)
H7_14 H 0.081350 0.840179 0.868091
C16_14 C 0.10382(18) 0.81881(17) 0.91814(17)
H8_14 H 0.117867 0.828639 0.920565
C17_14 C 0.1090(2) 0.8581(2) 0.8785(2)
C18_14 C 0.0887(2) 0.82263(19) 0.89752(19)
O14_14 O 0.18987(10) 0.95829(9) 0.86707(10)
C19_14 C 0.22248(9) 0.90890(11) 0.96153(11)
C20_14 C 0.21225(9) 0.93247(11) 0.92347(11)
H9_14 H 0.223908 0.944532 0.927736
C21_14 C 0.20329(11) 0.95560(11) 0.88543(13)
C22_14 C 0.19905(12) 0.93445(13) 0.90191(13)
C23_14 C 0.20820(11) 0.91278(12) 0.93857(13)
C24_14 C 0.19097(14) 0.89545(15) 0.93266(16)
H10_14 H 0.188352 0.881994 0.943229
N5_14 N 0.12705(18) 0.85873(17) 0.89402(17)
N6_14 N 0.15958(17) 0.88008(17) 0.90801(17)
H11_14 H 0.159821 0.868091 0.918650
C25_14 C 0.18119(17) 0.91814(17) 0.89618(18)
H12_14 H 0.171361 0.920565 0.882133
C26_14 C 0.1419(2) 0.8785(2) 0.8910(2)
C27_14 C 0.17737(19) 0.89752(19) 0.9113(2)
O22_38 O 0.13293(10) 0.54171(9) 0.81013(10)
C28_38 C 0.03847(11) 0.59110(11) 0.77752(9)
C29_38 C 0.07653(11) 0.56753(11) 0.78775(9)
H13_38 H 0.072264 0.555468 0.776092
C30_38 C 0.11457(13) 0.54440(11) 0.79671(11)
C31_38 C 0.09809(13) 0.56555(13) 0.80095(12)
C32_38 C 0.06143(13) 0.58722(12) 0.79180(11)
C33_38 C 0.06734(16) 0.60455(15) 0.80903(14)
H14_38 H 0.056771 0.618006 0.811648
N7_38 N 0.10598(17) 0.64127(17) 0.87295(18)
N8_38 N 0.09199(17) 0.61992(17) 0.84042(17)
H15_38 H 0.081350 0.631909 0.840179
C34_38 C 0.10382(18) 0.58186(17) 0.81881(17)
H16_38 H 0.117867 0.579435 0.828639
C35_38 C 0.1090(2) 0.6215(2) 0.8581(2)
C36_38 C 0.0887(2) 0.60248(19) 0.82263(19)
O26_38 O 0.18987(10) 0.63293(10) 0.95829(9)
C37_38 C 0.22248(9) 0.53847(11) 0.90890(11)
C38_38 C 0.21225(9) 0.57653(11) 0.93247(11)
H17_38 H 0.223908 0.572264 0.944532
C39_38 C 0.20329(11) 0.61457(13) 0.95560(11)
C40_38 C 0.19905(12) 0.59809(13) 0.93445(13)
C41_38 C 0.20820(11) 0.56143(13) 0.91278(12)
C42_38 C 0.19097(14) 0.56734(16) 0.89545(15)
H18_38 H 0.188352 0.556771 0.881994
N9_38 N 0.12705(18) 0.60598(17) 0.85873(17)
N10_38 N 0.15958(17) 0.59199(17) 0.88008(17)
H19_38 H 0.159821 0.581350 0.868091
C43_38 C 0.18119(17) 0.60382(18) 0.91814(17)
H20_38 H 0.171361 0.617867 0.920565
C44_38 C 0.1419(2) 0.6090(2) 0.8785(2)
C45_38 C 0.17737(19) 0.5887(2) 0.89752(19)
O30_38 O 0.04171(9) 0.68987(10) 0.86707(10)
C46_38 C 0.09110(11) 0.72248(9) 0.96153(11)
C47_38 C 0.06753(11) 0.71225(9) 0.92347(11)
H21_38 H 0.055468 0.723908 0.927736
C48_38 C 0.04440(11) 0.70329(11) 0.88543(13)
C49_38 C 0.06555(13) 0.69905(12) 0.90191(13)
C50_38 C 0.08722(12) 0.70820(11) 0.93857(13)
C51_38 C 0.10455(15) 0.69097(14) 0.93266(16)
H22_38 H 0.118006 0.688352 0.943229
N11_38 N 0.14127(17) 0.62705(18) 0.89402(17)
N12_38 N 0.11992(17) 0.65958(17) 0.90801(17)
H23_38 H 0.131909 0.659821 0.918650
C52_38 C 0.08186(17) 0.68119(17) 0.89618(18)
H24_38 H 0.079435 0.671361 0.882133
C53_38 C 0.1215(2) 0.6419(2) 0.8910(2)
C54_38 C 0.10248(19) 0.67737(19) 0.9113(2)
H25_18 H 0.0160965 0.849525 0.745591
H33_18 H 0.150475 0.745591 0.983903
H35_18 H 0.254409 0.983903 0.849525
H26_18 H 0.987059 0.849831 0.740134
H27_18 H 0.996782 0.9309 0.795259
H28_18 H 0.9871 0.946419 0.772054
H26_19 H 0.0129413 0.849831 0.259866
H27_19 H 0.00321775 0.9309 0.204741
H28_19 H 0.0128997 0.946419 0.227946
H29_19 H 0.795259 0.00321775 0.0691002
H30_19 H 0.772054 0.0128997 0.0535806
H36_19 H 0.740134 0.0129413 0.150169
O5_15 O 0.95829(9) 0.86707(10) 0.18987(10)
C1_15 C 0.90890(11) 0.96153(11) 0.22248(9)
C2_15 C 0.93247(11) 0.92347(11) 0.21225(9)
H1_15 H 0.944532 0.927736 0.223908
C3_15 C 0.95560(11) 0.88543(13) 0.20329(11)
C4_15 C 0.93445(13) 0.90191(13) 0.19905(12)
C5_15 C 0.91278(12) 0.93857(13) 0.20820(11)
C6_15 C 0.89545(15) 0.93266(16) 0.19097(14)
H2_15 H 0.881994 0.943229 0.188352
N1_15 N 0.85873(17) 0.89402(17) 0.12705(18)
N2_15 N 0.88008(17) 0.90801(17) 0.15958(17)
H3_15 H 0.868091 0.918650 0.159821
C7_15 C 0.91814(17) 0.89618(18) 0.18119(17)
H4_15 H 0.920565 0.882133 0.171361
C8_15 C 0.8785(2) 0.8910(2) 0.1419(2)
C9_15 C 0.89752(19) 0.9113(2) 0.17737(19)
O10_15 O 0.86707(10) 0.81013(10) 0.04171(9)
C10_15 C 0.96153(11) 0.77752(9) 0.09110(11)
C11_15 C 0.92347(11) 0.78775(9) 0.06753(11)
H5_15 H 0.927736 0.776092 0.055468
C12_15 C 0.88543(13) 0.79671(11) 0.04440(11)
C13_15 C 0.90191(13) 0.80095(12) 0.06555(13)
C14_15 C 0.93857(13) 0.79180(11) 0.08722(12)
C15_15 C 0.93266(16) 0.80903(14) 0.10455(15)
H6_15 H 0.943229 0.811648 0.118006
N3_15 N 0.89402(17) 0.87295(18) 0.14127(17)
N4_15 N 0.90801(17) 0.84042(17) 0.11992(17)
H7_15 H 0.918650 0.840179 0.131909
C16_15 C 0.89618(18) 0.81881(17) 0.08186(17)
H8_15 H 0.882133 0.828639 0.079435
C17_15 C 0.8910(2) 0.8581(2) 0.1215(2)
C18_15 C 0.9113(2) 0.82263(19) 0.10248(19)
O14_15 O 0.81013(10) 0.95829(9) 0.13293(10)
C19_15 C 0.77752(9) 0.90890(11) 0.03847(11)
C20_15 C 0.78775(9) 0.93247(11) 0.07653(11)
H9_15 H 0.776092 0.944532 0.072264
C21_15 C 0.79671(11) 0.95560(11) 0.11457(13)
C22_15 C 0.80095(12) 0.93445(13) 0.09809(13)
C23_15 C 0.79180(11) 0.91278(12) 0.06143(13)
C24_15 C 0.80903(14) 0.89545(15) 0.06734(16)
H10_15 H 0.811648 0.881994 0.056771
N5_15 N 0.87295(18) 0.85873(17) 0.10598(17)
N6_15 N 0.84042(17) 0.88008(17) 0.09199(17)
H11_15 H 0.840179 0.868091 0.081350
C25_15 C 0.81881(17) 0.91814(17) 0.10382(18)
H12_15 H 0.828639 0.920565 0.117867
C26_15 C 0.8581(2) 0.8785(2) 0.1090(2)
C27_15 C 0.82263(19) 0.89752(19) 0.0887(2)
O22_39 O 0.86707(10) 0.54171(9) 0.18987(10)
C28_39 C 0.96153(11) 0.59110(11) 0.22248(9)
C29_39 C 0.92347(11) 0.56753(11) 0.21225(9)
H13_39 H 0.927736 0.555468 0.223908
C30_39 C 0.88543(13) 0.54440(11) 0.20329(11)
C31_39 C 0.90191(13) 0.56555(13) 0.19905(12)
C32_39 C 0.93857(13) 0.58722(12) 0.20820(11)
C33_39 C 0.93266(16) 0.60455(15) 0.19097(14)
H14_39 H 0.943229 0.618006 0.188352
N7_39 N 0.89402(17) 0.64127(17) 0.12705(18)
N8_39 N 0.90801(17) 0.61992(17) 0.15958(17)
H15_39 H 0.918650 0.631909 0.159821
C34_39 C 0.89618(18) 0.58186(17) 0.18119(17)
H16_39 H 0.882133 0.579435 0.171361
C35_39 C 0.8910(2) 0.6215(2) 0.1419(2)
C36_39 C 0.9113(2) 0.60248(19) 0.17737(19)
O26_39 O 0.81013(10) 0.63293(10) 0.04171(9)
C37_39 C 0.77752(9) 0.53847(11) 0.09110(11)
C38_39 C 0.78775(9) 0.57653(11) 0.06753(11)
H17_39 H 0.776092 0.572264 0.055468
C39_39 C 0.79671(11) 0.61457(13) 0.04440(11)
C40_39 C 0.80095(12) 0.59809(13) 0.06555(13)
C41_39 C 0.79180(11) 0.56143(13) 0.08722(12)
C42_39 C 0.80903(14) 0.56734(16) 0.10455(15)
H18_39 H 0.811648 0.556771 0.118006
N9_39 N 0.87295(18) 0.60598(17) 0.14127(17)
N10_39 N 0.84042(17) 0.59199(17) 0.11992(17)
H19_39 H 0.840179 0.581350 0.131909
C43_39 C 0.81881(17) 0.60382(18) 0.08186(17)
H20_39 H 0.828639 0.617867 0.079435
C44_39 C 0.8581(2) 0.6090(2) 0.1215(2)
C45_39 C 0.82263(19) 0.5887(2) 0.10248(19)
O30_39 O 0.95829(9) 0.68987(10) 0.13293(10)
C46_39 C 0.90890(11) 0.72248(9) 0.03847(11)
C47_39 C 0.93247(11) 0.71225(9) 0.07653(11)
H21_39 H 0.944532 0.723908 0.072264
C48_39 C 0.95560(11) 0.70329(11) 0.11457(13)
C49_39 C 0.93445(13) 0.69905(12) 0.09809(13)
C50_39 C 0.91278(12) 0.70820(11) 0.06143(13)
C51_39 C 0.89545(15) 0.69097(14) 0.06734(16)
H22_39 H 0.881994 0.688352 0.056771
N11_39 N 0.85873(17) 0.62705(18) 0.10598(17)
N12_39 N 0.88008(17) 0.65958(17) 0.09199(17)
H23_39 H 0.868091 0.659821 0.081350
C52_39 C 0.91814(17) 0.68119(17) 0.10382(18)
H24_39 H 0.920565 0.671361 0.117867
C53_39 C 0.8785(2) 0.6419(2) 0.1090(2)
C54_39 C 0.89752(19) 0.67737(19) 0.0887(2)
H25_19 H 0.983903 0.849525 0.254409
H33_19 H 0.849525 0.745591 0.0160965
H35_19 H 0.745591 0.983903 0.150475
H31_19 H 0.9309 0.795259 0.996782
H32_19 H 0.946419 0.772054 0.9871
H34_19 H 0.849831 0.740134 0.987059
O5_16 O 0.04171(9) 0.13293(10) 0.18987(10)
C1_16 C 0.09110(11) 0.03847(11) 0.22248(9)
C2_16 C 0.06753(11) 0.07653(11) 0.21225(9)
H1_16 H 0.055468 0.072264 0.223908
C3_16 C 0.04440(11) 0.11457(13) 0.20329(11)
C4_16 C 0.06555(13) 0.09809(13) 0.19905(12)
C5_16 C 0.08722(12) 0.06143(13) 0.20820(11)
C6_16 C 0.10455(15) 0.06734(16) 0.19097(14)
H2_16 H 0.118006 0.056771 0.188352
N1_16 N 0.14127(17) 0.10598(17) 0.12705(18)
N2_16 N 0.11992(17) 0.09199(17) 0.15958(17)
H3_16 H 0.131909 0.081350 0.159821
C7_16 C 0.08186(17) 0.10382(18) 0.18119(17)
H4_16 H 0.079435 0.117867 0.171361
C8_16 C 0.1215(2) 0.1090(2) 0.1419(2)
C9_16 C 0.10248(19) 0.0887(2) 0.17737(19)
O10_16 O 0.13293(10) 0.18987(10) 0.04171(9)
C10_16 C 0.03847(11) 0.22248(9) 0.09110(11)
C11_16 C 0.07653(11) 0.21225(9) 0.06753(11)
H5_16 H 0.072264 0.223908 0.055468
C12_16 C 0.11457(13) 0.20329(11) 0.04440(11)
C13_16 C 0.09809(13) 0.19905(12) 0.06555(13)
C14_16 C 0.06143(13) 0.20820(11) 0.08722(12)
C15_16 C 0.06734(16) 0.19097(14) 0.10455(15)
H6_16 H 0.056771 0.188352 0.118006
N3_16 N 0.10598(17) 0.12705(18) 0.14127(17)
N4_16 N 0.09199(17) 0.15958(17) 0.11992(17)
H7_16 H 0.081350 0.159821 0.131909
C16_16 C 0.10382(18) 0.18119(17) 0.08186(17)
H8_16 H 0.117867 0.171361 0.079435
C17_16 C 0.1090(2) 0.1419(2) 0.1215(2)
C18_16 C 0.0887(2) 0.17737(19) 0.10248(19)
O14_16 O 0.18987(10) 0.04171(9) 0.13293(10)
C19_16 C 0.22248(9) 0.09110(11) 0.03847(11)
C20_16 C 0.21225(9) 0.06753(11) 0.07653(11)
H9_16 H 0.223908 0.055468 0.072264
C21_16 C 0.20329(11) 0.04440(11) 0.11457(13)
C22_16 C 0.19905(12) 0.06555(13) 0.09809(13)
C23_16 C 0.20820(11) 0.08722(12) 0.06143(13)
C24_16 C 0.19097(14) 0.10455(15) 0.06734(16)
H10_16 H 0.188352 0.118006 0.056771
N5_16 N 0.12705(18) 0.14127(17) 0.10598(17)
N6_16 N 0.15958(17) 0.11992(17) 0.09199(17)
H11_16 H 0.159821 0.131909 0.081350
C25_16 C 0.18119(17) 0.08186(17) 0.10382(18)
H12_16 H 0.171361 0.079435 0.117867
C26_16 C 0.1419(2) 0.1215(2) 0.1090(2)
C27_16 C 0.17737(19) 0.10248(19) 0.0887(2)
O22_40 O 0.13293(10) 0.45829(9) 0.18987(10)
C28_40 C 0.03847(11) 0.40890(11) 0.22248(9)
C29_40 C 0.07653(11) 0.43247(11) 0.21225(9)
H13_40 H 0.072264 0.444532 0.223908
C30_40 C 0.11457(13) 0.45560(11) 0.20329(11)
C31_40 C 0.09809(13) 0.43445(13) 0.19905(12)
C32_40 C 0.06143(13) 0.41278(12) 0.20820(11)
C33_40 C 0.06734(16) 0.39545(15) 0.19097(14)
H14_40 H 0.056771 0.381994 0.188352
N7_40 N 0.10598(17) 0.35873(17) 0.12705(18)
N8_40 N 0.09199(17) 0.38008(17) 0.15958(17)
H15_40 H 0.081350 0.368091 0.159821
C34_40 C 0.10382(18) 0.41814(17) 0.18119(17)
H16_40 H 0.117867 0.420565 0.171361
C35_40 C 0.1090(2) 0.3785(2) 0.1419(2)
C36_40 C 0.0887(2) 0.39752(19) 0.17737(19)
O26_40 O 0.18987(10) 0.36707(10) 0.04171(9)
C37_40 C 0.22248(9) 0.46153(11) 0.09110(11)
C38_40 C 0.21225(9) 0.42347(11) 0.06753(11)
H17_40 H 0.223908 0.427736 0.055468
C39_40 C 0.20329(11) 0.38543(13) 0.04440(11)
C40_40 C 0.19905(12) 0.40191(13) 0.06555(13)
C41_40 C 0.20820(11) 0.43857(13) 0.08722(12)
C42_40 C 0.19097(14) 0.43266(16) 0.10455(15)
H18_40 H 0.188352 0.443229 0.118006
N9_40 N 0.12705(18) 0.39402(17) 0.14127(17)
N10_40 N 0.15958(17) 0.40801(17) 0.11992(17)
H19_40 H 0.159821 0.418650 0.131909
C43_40 C 0.18119(17) 0.39618(18) 0.08186(17)
H20_40 H 0.171361 0.382133 0.079435
C44_40 C 0.1419(2) 0.3910(2) 0.1215(2)
C45_40 C 0.17737(19) 0.4113(2) 0.10248(19)
O30_40 O 0.04171(9) 0.31013(10) 0.13293(10)
C46_40 C 0.09110(11) 0.27752(9) 0.03847(11)
C47_40 C 0.06753(11) 0.28775(9) 0.07653(11)
H21_40 H 0.055468 0.276092 0.072264
C48_40 C 0.04440(11) 0.29671(11) 0.11457(13)
C49_40 C 0.06555(13) 0.30095(12) 0.09809(13)
C50_40 C 0.08722(12) 0.29180(11) 0.06143(13)
C51_40 C 0.10455(15) 0.30903(14) 0.06734(16)
H22_40 H 0.118006 0.311648 0.056771
N11_40 N 0.14127(17) 0.37295(18) 0.10598(17)
N12_40 N 0.11992(17) 0.34042(17) 0.09199(17)
H23_40 H 0.131909 0.340179 0.081350
C52_40 C 0.08186(17) 0.31881(17) 0.10382(18)
H24_40 H 0.079435 0.328639 0.117867
C53_40 C 0.1215(2) 0.3581(2) 0.1090(2)
C54_40 C 0.10248(19) 0.32263(19) 0.0887(2)
H25_20 H 0.0160965 0.150475 0.254409
H33_20 H 0.150475 0.254409 0.0160965
H35_20 H 0.254409 0.0160965 0.150475
H31_20 H 0.0691002 0.204741 0.996782
H32_20 H 0.0535806 0.227946 0.9871
H34_20 H 0.150169 0.259866 0.987059
H29_20 H 0.204741 0.996782 0.0691002
H30_20 H 0.227946 0.9871 0.0535806
H36_20 H 0.259866 0.987059 0.150169
H26_20 H 0.987059 0.150169 0.259866
H27_20 H 0.996782 0.0691002 0.204741
H28_20 H 0.9871 0.0535806 0.227946
O22_41 O 0.45829(9) 0.18987(10) 0.13293(10)
C28_41 C 0.40890(11) 0.22248(9) 0.03847(11)
C29_41 C 0.43247(11) 0.21225(9) 0.07653(11)
H13_41 H 0.444532 0.223908 0.072264
C30_41 C 0.45560(11) 0.20329(11) 0.11457(13)
C31_41 C 0.43445(13) 0.19905(12) 0.09809(13)
C32_41 C 0.41278(12) 0.20820(11) 0.06143(13)
C33_41 C 0.39545(15) 0.19097(14) 0.06734(16)
H14_41 H 0.381994 0.188352 0.056771
N7_41 N 0.35873(17) 0.12705(18) 0.10598(17)
N8_41 N 0.38008(17) 0.15958(17) 0.09199(17)
H15_41 H 0.368091 0.159821 0.081350
C34_41 C 0.41814(17) 0.18119(17) 0.10382(18)
H16_41 H 0.420565 0.171361 0.117867
C35_41 C 0.3785(2) 0.1419(2) 0.1090(2)
C36_41 C 0.39752(19) 0.17737(19) 0.0887(2)
O26_41 O 0.36707(10) 0.04171(9) 0.18987(10)
C37_41 C 0.46153(11) 0.09110(11) 0.22248(9)
C38_41 C 0.42347(11) 0.06753(11) 0.21225(9)
H17_41 H 0.427736 0.055468 0.223908
C39_41 C 0.38543(13) 0.04440(11) 0.20329(11)
C40_41 C 0.40191(13) 0.06555(13) 0.19905(12)
C41_41 C 0.43857(13) 0.08722(12) 0.20820(11)
C42_41 C 0.43266(16) 0.10455(15) 0.19097(14)
H18_41 H 0.443229 0.118006 0.188352
N9_41 N 0.39402(17) 0.14127(17) 0.12705(18)
N10_41 N 0.40801(17) 0.11992(17) 0.15958(17)
H19_41 H 0.418650 0.131909 0.159821
C43_41 C 0.39618(18) 0.08186(17) 0.18119(17)
H20_41 H 0.382133 0.079435 0.171361
C44_41 C 0.3910(2) 0.1215(2) 0.1419(2)
C45_41 C 0.4113(2) 0.10248(19) 0.17737(19)
O30_41 O 0.31013(10) 0.13293(10) 0.04171(9)
C46_41 C 0.27752(9) 0.03847(11) 0.09110(11)
C47_41 C 0.28775(9) 0.07653(11) 0.06753(11)
H21_41 H 0.276092 0.072264 0.055468
C48_41 C 0.29671(11) 0.11457(13) 0.04440(11)
C49_41 C 0.30095(12) 0.09809(13) 0.06555(13)
C50_41 C 0.29180(11) 0.06143(13) 0.08722(12)
C51_41 C 0.30903(14) 0.06734(16) 0.10455(15)
H22_41 H 0.311648 0.056771 0.118006
N11_41 N 0.37295(18) 0.10598(17) 0.14127(17)
N12_41 N 0.34042(17) 0.09199(17) 0.11992(17)
H23_41 H 0.340179 0.081350 0.131909
C52_41 C 0.31881(17) 0.10382(18) 0.08186(17)
H24_41 H 0.328639 0.117867 0.079435
C53_41 C 0.3581(2) 0.1090(2) 0.1215(2)
C54_41 C 0.32263(19) 0.0887(2) 0.10248(19)
O22_42 O 0.54171(9) 0.18987(10) 0.86707(10)
C28_42 C 0.59110(11) 0.22248(9) 0.96153(11)
C29_42 C 0.56753(11) 0.21225(9) 0.92347(11)
H13_42 H 0.555468 0.223908 0.927736
C30_42 C 0.54440(11) 0.20329(11) 0.88543(13)
C31_42 C 0.56555(13) 0.19905(12) 0.90191(13)
C32_42 C 0.58722(12) 0.20820(11) 0.93857(13)
C33_42 C 0.60455(15) 0.19097(14) 0.93266(16)
H14_42 H 0.618006 0.188352 0.943229
N7_42 N 0.64127(17) 0.12705(18) 0.89402(17)
N8_42 N 0.61992(17) 0.15958(17) 0.90801(17)
H15_42 H 0.631909 0.159821 0.918650
C34_42 C 0.58186(17) 0.18119(17) 0.89618(18)
H16_42 H 0.579435 0.171361 0.882133
C35_42 C 0.6215(2) 0.1419(2) 0.8910(2)
C36_42 C 0.60248(19) 0.17737(19) 0.9113(2)
O26_42 O 0.63293(10) 0.04171(9) 0.81013(10)
C37_42 C 0.53847(11) 0.09110(11) 0.77752(9)
C38_42 C 0.57653(11) 0.06753(11) 0.78775(9)
H17_42 H 0.572264 0.055468 0.776092
C39_42 C 0.61457(13) 0.04440(11) 0.79671(11)
C40_42 C 0.59809(13) 0.06555(13) 0.80095(12)
C41_42 C 0.56143(13) 0.08722(12) 0.79180(11)
C42_42 C 0.56734(16) 0.10455(15) 0.80903(14)
H18_42 H 0.556771 0.118006 0.811648
N9_42 N 0.60598(17) 0.14127(17) 0.87295(18)
N10_42 N 0.59199(17) 0.11992(17) 0.84042(17)
H19_42 H 0.581350 0.131909 0.840179
C43_42 C 0.60382(18) 0.08186(17) 0.81881(17)
H20_42 H 0.617867 0.079435 0.828639
C44_42 C 0.6090(2) 0.1215(2) 0.8581(2)
C45_42 C 0.5887(2) 0.10248(19) 0.82263(19)
O30_42 O 0.68987(10) 0.13293(10) 0.95829(9)
C46_42 C 0.72248(9) 0.03847(11) 0.90890(11)
C47_42 C 0.71225(9) 0.07653(11) 0.93247(11)
H21_42 H 0.723908 0.072264 0.944532
C48_42 C 0.70329(11) 0.11457(13) 0.95560(11)
C49_42 C 0.69905(12) 0.09809(13) 0.93445(13)
C50_42 C 0.70820(11) 0.06143(13) 0.91278(12)
C51_42 C 0.69097(14) 0.06734(16) 0.89545(15)
H22_42 H 0.688352 0.056771 0.881994
N11_42 N 0.62705(18) 0.10598(17) 0.85873(17)
N12_42 N 0.65958(17) 0.09199(17) 0.88008(17)
H23_42 H 0.659821 0.081350 0.868091
C52_42 C 0.68119(17) 0.10382(18) 0.91814(17)
H24_42 H 0.671361 0.117867 0.920565
C53_42 C 0.6419(2) 0.1090(2) 0.8785(2)
C54_42 C 0.67737(19) 0.0887(2) 0.89752(19)
O22_43 O 0.54171(9) 0.81013(10) 0.13293(10)
C28_43 C 0.59110(11) 0.77752(9) 0.03847(11)
C29_43 C 0.56753(11) 0.78775(9) 0.07653(11)
H13_43 H 0.555468 0.776092 0.072264
C30_43 C 0.54440(11) 0.79671(11) 0.11457(13)
C31_43 C 0.56555(13) 0.80095(12) 0.09809(13)
C32_43 C 0.58722(12) 0.79180(11) 0.06143(13)
C33_43 C 0.60455(15) 0.80903(14) 0.06734(16)
H14_43 H 0.618006 0.811648 0.056771
N7_43 N 0.64127(17) 0.87295(18) 0.10598(17)
N8_43 N 0.61992(17) 0.84042(17) 0.09199(17)
H15_43 H 0.631909 0.840179 0.081350
C34_43 C 0.58186(17) 0.81881(17) 0.10382(18)
H16_43 H 0.579435 0.828639 0.117867
C35_43 C 0.6215(2) 0.8581(2) 0.1090(2)
C36_43 C 0.60248(19) 0.82263(19) 0.0887(2)
O26_43 O 0.63293(10) 0.95829(9) 0.18987(10)
C37_43 C 0.53847(11) 0.90890(11) 0.22248(9)
C38_43 C 0.57653(11) 0.93247(11) 0.21225(9)
H17_43 H 0.572264 0.944532 0.223908
C39_43 C 0.61457(13) 0.95560(11) 0.20329(11)
C40_43 C 0.59809(13) 0.93445(13) 0.19905(12)
C41_43 C 0.56143(13) 0.91278(12) 0.20820(11)
C42_43 C 0.56734(16) 0.89545(15) 0.19097(14)
H18_43 H 0.556771 0.881994 0.188352
N9_43 N 0.60598(17) 0.85873(17) 0.12705(18)
N10_43 N 0.59199(17) 0.88008(17) 0.15958(17)
H19_43 H 0.581350 0.868091 0.159821
C43_43 C 0.60382(18) 0.91814(17) 0.18119(17)
H20_43 H 0.617867 0.920565 0.171361
C44_43 C 0.6090(2) 0.8785(2) 0.1419(2)
C45_43 C 0.5887(2) 0.89752(19) 0.17737(19)
O30_43 O 0.68987(10) 0.86707(10) 0.04171(9)
C46_43 C 0.72248(9) 0.96153(11) 0.09110(11)
C47_43 C 0.71225(9) 0.92347(11) 0.06753(11)
H21_43 H 0.723908 0.927736 0.055468
C48_43 C 0.70329(11) 0.88543(13) 0.04440(11)
C49_43 C 0.69905(12) 0.90191(13) 0.06555(13)
C50_43 C 0.70820(11) 0.93857(13) 0.08722(12)
C51_43 C 0.69097(14) 0.93266(16) 0.10455(15)
H22_43 H 0.688352 0.943229 0.118006
N11_43 N 0.62705(18) 0.89402(17) 0.14127(17)
N12_43 N 0.65958(17) 0.90801(17) 0.11992(17)
H23_43 H 0.659821 0.918650 0.131909
C52_43 C 0.68119(17) 0.89618(18) 0.08186(17)
H24_43 H 0.671361 0.882133 0.079435
C53_43 C 0.6419(2) 0.8910(2) 0.1215(2)
C54_43 C 0.67737(19) 0.9113(2) 0.10248(19)
O22_44 O 0.45829(9) 0.81013(10) 0.86707(10)
C28_44 C 0.40890(11) 0.77752(9) 0.96153(11)
C29_44 C 0.43247(11) 0.78775(9) 0.92347(11)
H13_44 H 0.444532 0.776092 0.927736
C30_44 C 0.45560(11) 0.79671(11) 0.88543(13)
C31_44 C 0.43445(13) 0.80095(12) 0.90191(13)
C32_44 C 0.41278(12) 0.79180(11) 0.93857(13)
C33_44 C 0.39545(15) 0.80903(14) 0.93266(16)
H14_44 H 0.381994 0.811648 0.943229
N7_44 N 0.35873(17) 0.87295(18) 0.89402(17)
N8_44 N 0.38008(17) 0.84042(17) 0.90801(17)
H15_44 H 0.368091 0.840179 0.918650
C34_44 C 0.41814(17) 0.81881(17) 0.89618(18)
H16_44 H 0.420565 0.828639 0.882133
C35_44 C 0.3785(2) 0.8581(2) 0.8910(2)
C36_44 C 0.39752(19) 0.82263(19) 0.9113(2)
O26_44 O 0.36707(10) 0.95829(9) 0.81013(10)
C37_44 C 0.46153(11) 0.90890(11) 0.77752(9)
C38_44 C 0.42347(11) 0.93247(11) 0.78775(9)
H17_44 H 0.427736 0.944532 0.776092
C39_44 C 0.38543(13) 0.95560(11) 0.79671(11)
C40_44 C 0.40191(13) 0.93445(13) 0.80095(12)
C41_44 C 0.43857(13) 0.91278(12) 0.79180(11)
C42_44 C 0.43266(16) 0.89545(15) 0.80903(14)
H18_44 H 0.443229 0.881994 0.811648
N9_44 N 0.39402(17) 0.85873(17) 0.87295(18)
N10_44 N 0.40801(17) 0.88008(17) 0.84042(17)
H19_44 H 0.418650 0.868091 0.840179
C43_44 C 0.39618(18) 0.91814(17) 0.81881(17)
H20_44 H 0.382133 0.920565 0.828639
C44_44 C 0.3910(2) 0.8785(2) 0.8581(2)
C45_44 C 0.4113(2) 0.89752(19) 0.82263(19)
O30_44 O 0.31013(10) 0.86707(10) 0.95829(9)
C46_44 C 0.27752(9) 0.96153(11) 0.90890(11)
C47_44 C 0.28775(9) 0.92347(11) 0.93247(11)
H21_44 H 0.276092 0.927736 0.944532
C48_44 C 0.29671(11) 0.88543(13) 0.95560(11)
C49_44 C 0.30095(12) 0.90191(13) 0.93445(13)
C50_44 C 0.29180(11) 0.93857(13) 0.91278(12)
C51_44 C 0.30903(14) 0.93266(16) 0.89545(15)
H22_44 H 0.311648 0.943229 0.881994
N11_44 N 0.37295(18) 0.89402(17) 0.85873(17)
N12_44 N 0.34042(17) 0.90801(17) 0.88008(17)
H23_44 H 0.340179 0.918650 0.868091
C52_44 C 0.31881(17) 0.89618(18) 0.91814(17)
H24_44 H 0.328639 0.882133 0.920565
C53_44 C 0.3581(2) 0.8910(2) 0.8785(2)
C54_44 C 0.32263(19) 0.9113(2) 0.89752(19)
O22_45 O 0.18987(10) 0.86707(10) 0.54171(9)
C28_45 C 0.22248(9) 0.96153(11) 0.59110(11)
C29_45 C 0.21225(9) 0.92347(11) 0.56753(11)
H13_45 H 0.223908 0.927736 0.555468
C30_45 C 0.20329(11) 0.88543(13) 0.54440(11)
C31_45 C 0.19905(12) 0.90191(13) 0.56555(13)
C32_45 C 0.20820(11) 0.93857(13) 0.58722(12)
C33_45 C 0.19097(14) 0.93266(16) 0.60455(15)
H14_45 H 0.188352 0.943229 0.618006
N7_45 N 0.12705(18) 0.89402(17) 0.64127(17)
N8_45 N 0.15958(17) 0.90801(17) 0.61992(17)
H15_45 H 0.159821 0.918650 0.631909
C34_45 C 0.18119(17) 0.89618(18) 0.58186(17)
H16_45 H 0.171361 0.882133 0.579435
C35_45 C 0.1419(2) 0.8910(2) 0.6215(2)
C36_45 C 0.17737(19) 0.9113(2) 0.60248(19)
O26_45 O 0.04171(9) 0.81013(10) 0.63293(10)
C37_45 C 0.09110(11) 0.77752(9) 0.53847(11)
C38_45 C 0.06753(11) 0.78775(9) 0.57653(11)
H17_45 H 0.055468 0.776092 0.572264
C39_45 C 0.04440(11) 0.79671(11) 0.61457(13)
C40_45 C 0.06555(13) 0.80095(12) 0.59809(13)
C41_45 C 0.08722(12) 0.79180(11) 0.56143(13)
C42_45 C 0.10455(15) 0.80903(14) 0.56734(16)
H18_45 H 0.118006 0.811648 0.556771
N9_45 N 0.14127(17) 0.87295(18) 0.60598(17)
N10_45 N 0.11992(17) 0.84042(17) 0.59199(17)
H19_45 H 0.131909 0.840179 0.581350
C43_45 C 0.08186(17) 0.81881(17) 0.60382(18)
H20_45 H 0.079435 0.828639 0.617867
C44_45 C 0.1215(2) 0.8581(2) 0.6090(2)
C45_45 C 0.10248(19) 0.82263(19) 0.5887(2)
O30_45 O 0.13293(10) 0.95829(9) 0.68987(10)
C46_45 C 0.03847(11) 0.90890(11) 0.72248(9)
C47_45 C 0.07653(11) 0.93247(11) 0.71225(9)
H21_45 H 0.072264 0.944532 0.723908
C48_45 C 0.11457(13) 0.95560(11) 0.70329(11)
C49_45 C 0.09809(13) 0.93445(13) 0.69905(12)
C50_45 C 0.06143(13) 0.91278(12) 0.70820(11)
C51_45 C 0.06734(16) 0.89545(15) 0.69097(14)
H22_45 H 0.056771 0.881994 0.688352
N11_45 N 0.10598(17) 0.85873(17) 0.62705(18)
N12_45 N 0.09199(17) 0.88008(17) 0.65958(17)
H23_45 H 0.081350 0.868091 0.659821
C52_45 C 0.10382(18) 0.91814(17) 0.68119(17)
H24_45 H 0.117867 0.920565 0.671361
C53_45 C 0.1090(2) 0.8785(2) 0.6419(2)
C54_45 C 0.0887(2) 0.89752(19) 0.67737(19)
O22_46 O 0.18987(10) 0.13293(10) 0.45829(9)
C28_46 C 0.22248(9) 0.03847(11) 0.40890(11)
C29_46 C 0.21225(9) 0.07653(11) 0.43247(11)
H13_46 H 0.223908 0.072264 0.444532
C30_46 C 0.20329(11) 0.11457(13) 0.45560(11)
C31_46 C 0.19905(12) 0.09809(13) 0.43445(13)
C32_46 C 0.20820(11) 0.06143(13) 0.41278(12)
C33_46 C 0.19097(14) 0.06734(16) 0.39545(15)
H14_46 H 0.188352 0.056771 0.381994
N7_46 N 0.12705(18) 0.10598(17) 0.35873(17)
N8_46 N 0.15958(17) 0.09199(17) 0.38008(17)
H15_46 H 0.159821 0.081350 0.368091
C34_46 C 0.18119(17) 0.10382(18) 0.41814(17)
H16_46 H 0.171361 0.117867 0.420565
C35_46 C 0.1419(2) 0.1090(2) 0.3785(2)
C36_46 C 0.17737(19) 0.0887(2) 0.39752(19)
O26_46 O 0.04171(9) 0.18987(10) 0.36707(10)
C37_46 C 0.09110(11) 0.22248(9) 0.46153(11)
C38_46 C 0.06753(11) 0.21225(9) 0.42347(11)
H17_46 H 0.055468 0.223908 0.427736
C39_46 C 0.04440(11) 0.20329(11) 0.38543(13)
C40_46 C 0.06555(13) 0.19905(12) 0.40191(13)
C41_46 C 0.08722(12) 0.20820(11) 0.43857(13)
C42_46 C 0.10455(15) 0.19097(14) 0.43266(16)
H18_46 H 0.118006 0.188352 0.443229
N9_46 N 0.14127(17) 0.12705(18) 0.39402(17)
N10_46 N 0.11992(17) 0.15958(17) 0.40801(17)
H19_46 H 0.131909 0.159821 0.418650
C43_46 C 0.08186(17) 0.18119(17) 0.39618(18)
H20_46 H 0.079435 0.171361 0.382133
C44_46 C 0.1215(2) 0.1419(2) 0.3910(2)
C45_46 C 0.10248(19) 0.17737(19) 0.4113(2)
O30_46 O 0.13293(10) 0.04171(9) 0.31013(10)
C46_46 C 0.03847(11) 0.09110(11) 0.27752(9)
C47_46 C 0.07653(11) 0.06753(11) 0.28775(9)
H21_46 H 0.072264 0.055468 0.276092
C48_46 C 0.11457(13) 0.04440(11) 0.29671(11)
C49_46 C 0.09809(13) 0.06555(13) 0.30095(12)
C50_46 C 0.06143(13) 0.08722(12) 0.29180(11)
C51_46 C 0.06734(16) 0.10455(15) 0.30903(14)
H22_46 H 0.056771 0.118006 0.311648
N11_46 N 0.10598(17) 0.14127(17) 0.37295(18)
N12_46 N 0.09199(17) 0.11992(17) 0.34042(17)
H23_46 H 0.081350 0.131909 0.340179
C52_46 C 0.10382(18) 0.08186(17) 0.31881(17)
H24_46 H 0.117867 0.079435 0.328639
C53_46 C 0.1090(2) 0.1215(2) 0.3581(2)
C54_46 C 0.0887(2) 0.10248(19) 0.32263(19)
O22_47 O 0.81013(10) 0.86707(10) 0.45829(9)
C28_47 C 0.77752(9) 0.96153(11) 0.40890(11)
C29_47 C 0.78775(9) 0.92347(11) 0.43247(11)
H13_47 H 0.776092 0.927736 0.444532
C30_47 C 0.79671(11) 0.88543(13) 0.45560(11)
C31_47 C 0.80095(12) 0.90191(13) 0.43445(13)
C32_47 C 0.79180(11) 0.93857(13) 0.41278(12)
C33_47 C 0.80903(14) 0.93266(16) 0.39545(15)
H14_47 H 0.811648 0.943229 0.381994
N7_47 N 0.87295(18) 0.89402(17) 0.35873(17)
N8_47 N 0.84042(17) 0.90801(17) 0.38008(17)
H15_47 H 0.840179 0.918650 0.368091
C34_47 C 0.81881(17) 0.89618(18) 0.41814(17)
H16_47 H 0.828639 0.882133 0.420565
C35_47 C 0.8581(2) 0.8910(2) 0.3785(2)
C36_47 C 0.82263(19) 0.9113(2) 0.39752(19)
O26_47 O 0.95829(9) 0.81013(10) 0.36707(10)
C37_47 C 0.90890(11) 0.77752(9) 0.46153(11)
C38_47 C 0.93247(11) 0.78775(9) 0.42347(11)
H17_47 H 0.944532 0.776092 0.427736
C39_47 C 0.95560(11) 0.79671(11) 0.38543(13)
C40_47 C 0.93445(13) 0.80095(12) 0.40191(13)
C41_47 C 0.91278(12) 0.79180(11) 0.43857(13)
C42_47 C 0.89545(15) 0.80903(14) 0.43266(16)
H18_47 H 0.881994 0.811648 0.443229
N9_47 N 0.85873(17) 0.87295(18) 0.39402(17)
N10_47 N 0.88008(17) 0.84042(17) 0.40801(17)
H19_47 H 0.868091 0.840179 0.418650
C43_47 C 0.91814(17) 0.81881(17) 0.39618(18)
H20_47 H 0.920565 0.828639 0.382133
C44_47 C 0.8785(2) 0.8581(2) 0.3910(2)
C45_47 C 0.89752(19) 0.82263(19) 0.4113(2)
O30_47 O 0.86707(10) 0.95829(9) 0.31013(10)
C46_47 C 0.96153(11) 0.90890(11) 0.27752(9)
C47_47 C 0.92347(11) 0.93247(11) 0.28775(9)
H21_47 H 0.927736 0.944532 0.276092
C48_47 C 0.88543(13) 0.95560(11) 0.29671(11)
C49_47 C 0.90191(13) 0.93445(13) 0.30095(12)
C50_47 C 0.93857(13) 0.91278(12) 0.29180(11)
C51_47 C 0.93266(16) 0.89545(15) 0.30903(14)
H22_47 H 0.943229 0.881994 0.311648
N11_47 N 0.89402(17) 0.85873(17) 0.37295(18)
N12_47 N 0.90801(17) 0.88008(17) 0.34042(17)
H23_47 H 0.918650 0.868091 0.340179
C52_47 C 0.89618(18) 0.91814(17) 0.31881(17)
H24_47 H 0.882133 0.920565 0.328639
C53_47 C 0.8910(2) 0.8785(2) 0.3581(2)
C54_47 C 0.9113(2) 0.89752(19) 0.32263(19)
O22_48 O 0.81013(10) 0.13293(10) 0.54171(9)
C28_48 C 0.77752(9) 0.03847(11) 0.59110(11)
C29_48 C 0.78775(9) 0.07653(11) 0.56753(11)
H13_48 H 0.776092 0.072264 0.555468
C30_48 C 0.79671(11) 0.11457(13) 0.54440(11)
C31_48 C 0.80095(12) 0.09809(13) 0.56555(13)
C32_48 C 0.79180(11) 0.06143(13) 0.58722(12)
C33_48 C 0.80903(14) 0.06734(16) 0.60455(15)
H14_48 H 0.811648 0.056771 0.618006
N7_48 N 0.87295(18) 0.10598(17) 0.64127(17)
N8_48 N 0.84042(17) 0.09199(17) 0.61992(17)
H15_48 H 0.840179 0.081350 0.631909
C34_48 C 0.81881(17) 0.10382(18) 0.58186(17)
H16_48 H 0.828639 0.117867 0.579435
C35_48 C 0.8581(2) 0.1090(2) 0.6215(2)
C36_48 C 0.82263(19) 0.0887(2) 0.60248(19)
O26_48 O 0.95829(9) 0.18987(10) 0.63293(10)
C37_48 C 0.90890(11) 0.22248(9) 0.53847(11)
C38_48 C 0.93247(11) 0.21225(9) 0.57653(11)
H17_48 H 0.944532 0.223908 0.572264
C39_48 C 0.95560(11) 0.20329(11) 0.61457(13)
C40_48 C 0.93445(13) 0.19905(12) 0.59809(13)
C41_48 C 0.91278(12) 0.20820(11) 0.56143(13)
C42_48 C 0.89545(15) 0.19097(14) 0.56734(16)
H18_48 H 0.881994 0.188352 0.556771
N9_48 N 0.85873(17) 0.12705(18) 0.60598(17)
N10_48 N 0.88008(17) 0.15958(17) 0.59199(17)
H19_48 H 0.868091 0.159821 0.581350
C43_48 C 0.91814(17) 0.18119(17) 0.60382(18)
H20_48 H 0.920565 0.171361 0.617867
C44_48 C 0.8785(2) 0.1419(2) 0.6090(2)
C45_48 C 0.89752(19) 0.17737(19) 0.5887(2)
O30_48 O 0.86707(10) 0.04171(9) 0.68987(10)
C46_48 C 0.96153(11) 0.09110(11) 0.72248(9)
C47_48 C 0.92347(11) 0.06753(11) 0.71225(9)
H21_48 H 0.927736 0.055468 0.723908
C48_48 C 0.88543(13) 0.04440(11) 0.70329(11)
C49_48 C 0.90191(13) 0.06555(13) 0.69905(12)
C50_48 C 0.93857(13) 0.08722(12) 0.70820(11)
C51_48 C 0.93266(16) 0.10455(15) 0.69097(14)
H22_48 H 0.943229 0.118006 0.688352
N11_48 N 0.89402(17) 0.14127(17) 0.62705(18)
N12_48 N 0.90801(17) 0.11992(17) 0.65958(17)
H23_48 H 0.918650 0.131909 0.659821
C52_48 C 0.89618(18) 0.08186(17) 0.68119(17)
H24_48 H 0.882133 0.079435 0.671361
C53_48 C 0.8910(2) 0.1215(2) 0.6419(2)
C54_48 C 0.9113(2) 0.10248(19) 0.67737(19)
H26_21 H 0.650169 0.0129413 0.259866
H27_21 H 0.5691 0.00321775 0.204741
H28_21 H 0.553581 0.0128997 0.227946
H25_21 H 0.650475 0.983903 0.254409
H33_21 H 0.754409 0.849525 0.0160965
H31_21 H 0.704741 0.9309 0.996782
H32_21 H 0.727946 0.946419 0.9871
H34_21 H 0.759866 0.849831 0.987059
H25_22 H 0.349525 0.0160965 0.254409
H33_22 H 0.245591 0.150475 0.0160965
H31_22 H 0.295259 0.0691002 0.996782
H32_22 H 0.272054 0.0535806 0.9871
H34_22 H 0.240134 0.150169 0.987059
H26_22 H 0.349831 0.987059 0.259866
H27_22 H 0.4309 0.996782 0.204741
H28_22 H 0.446419 0.9871 0.227946
H26_23 H 0.349831 0.0129413 0.740134
H27_23 H 0.4309 0.00321775 0.795259
H28_23 H 0.446419 0.0128997 0.772054
H31_23 H 0.295259 0.9309 0.00321775
H32_23 H 0.272054 0.946419 0.0128997
H34_23 H 0.240134 0.849831 0.0129413
H25_23 H 0.349525 0.983903 0.745591
H33_23 H 0.245591 0.849525 0.983903
H31_24 H 0.704741 0.0691002 0.00321775
H32_24 H 0.727946 0.0535806 0.0128997
H34_24 H 0.759866 0.150169 0.0129413
H25_24 H 0.650475 0.0160965 0.745591
H33_24 H 0.754409 0.150475 0.983903
H26_24 H 0.650169 0.987059 0.740134
H27_24 H 0.5691 0.996782 0.795259
H28_24 H 0.553581 0.9871 0.772054
H26_25 H 0.0129413 0.650169 0.240134
H27_25 H 0.00321775 0.5691 0.295259
H28_25 H 0.0128997 0.553581 0.272054
H25_25 H 0.983903 0.650475 0.245591
H25_26 H 0.0160965 0.349525 0.245591
H26_26 H 0.987059 0.349831 0.240134
H27_26 H 0.996782 0.4309 0.295259
H28_26 H 0.9871 0.446419 0.272054
H26_27 H 0.0129413 0.349831 0.759866
H27_27 H 0.00321775 0.4309 0.704741
H28_27 H 0.0128997 0.446419 0.727946
H25_27 H 0.983903 0.349525 0.754409
H25_28 H 0.0160965 0.650475 0.754409
H26_28 H 0.987059 0.650169 0.759866
H27_28 H 0.996782 0.5691 0.704741
H28_28 H 0.9871 0.553581 0.727946
H33_25 H 0.254409 0.349525 0.0160965
H35_21 H 0.0160965 0.245591 0.150475
H31_25 H 0.204741 0.4309 0.996782
H32_25 H 0.227946 0.446419 0.9871
H34_25 H 0.259866 0.349831 0.987059
H29_21 H 0.996782 0.295259 0.0691002
H30_21 H 0.9871 0.272054 0.0535806
H36_21 H 0.987059 0.240134 0.150169
H29_22 H 0.00321775 0.704741 0.0691002
H30_22 H 0.0128997 0.727946 0.0535806
H36_22 H 0.0129413 0.759866 0.150169
H33_26 H 0.745591 0.650475 0.0160965
H35_22 H 0.983903 0.754409 0.150475
H31_26 H 0.795259 0.5691 0.996782
H32_26 H 0.772054 0.553581 0.9871
H34_26 H 0.740134 0.650169 0.987059
H29_23 H 0.00321775 0.295259 0.9309
H30_23 H 0.0128997 0.272054 0.946419
H36_23 H 0.0129413 0.240134 0.849831
H31_27 H 0.795259 0.4309 0.00321775
H32_27 H 0.772054 0.446419 0.0128997
H34_27 H 0.740134 0.349831 0.0129413
H33_27 H 0.745591 0.349525 0.983903
H35_23 H 0.983903 0.245591 0.849525
H31_28 H 0.204741 0.5691 0.00321775
H32_28 H 0.227946 0.553581 0.0128997
H34_28 H 0.259866 0.650169 0.0129413
H33_28 H 0.254409 0.650475 0.983903
H35_24 H 0.0160965 0.754409 0.849525
H29_24 H 0.996782 0.704741 0.9309
H30_24 H 0.9871 0.727946 0.946419
H36_24 H 0.987059 0.759866 0.849831
H35_25 H 0.245591 0.0160965 0.349525
H29_25 H 0.295259 0.996782 0.4309
H30_25 H 0.272054 0.9871 0.446419
H36_25 H 0.240134 0.987059 0.349831
H29_26 H 0.704741 0.00321775 0.4309
H30_26 H 0.727946 0.0128997 0.446419
H36_26 H 0.759866 0.0129413 0.349831
H35_26 H 0.754409 0.983903 0.349525
H29_27 H 0.295259 0.00321775 0.5691
H30_27 H 0.272054 0.0128997 0.553581
H36_27 H 0.240134 0.0129413 0.650169
H35_27 H 0.245591 0.983903 0.650475
H35_28 H 0.754409 0.0160965 0.650475
H29_28 H 0.704741 0.996782 0.5691
H30_28 H 0.727946 0.9871 0.553581
H36_28 H 0.759866 0.987059 0.650169
H26_29 H 0.150169 0.0129413 0.759866
H27_29 H 0.0691002 0.00321775 0.704741
H28_29 H 0.0535806 0.0128997 0.727946
H25_29 H 0.150475 0.983903 0.754409
H35_29 H 0.0160965 0.745591 0.650475
H29_29 H 0.996782 0.795259 0.5691
H30_29 H 0.9871 0.772054 0.553581
H36_29 H 0.987059 0.740134 0.650169
H29_30 H 0.00321775 0.204741 0.5691
H30_30 H 0.0128997 0.227946 0.553581
H36_30 H 0.0129413 0.259866 0.650169
H25_30 H 0.849525 0.0160965 0.754409
H35_30 H 0.983903 0.254409 0.650475
H26_30 H 0.849831 0.987059 0.759866
H27_30 H 0.9309 0.996782 0.704741
H28_30 H 0.946419 0.9871 0.727946
H29_31 H 0.00321775 0.795259 0.4309
H30_31 H 0.0128997 0.772054 0.446419
H36_31 H 0.0129413 0.740134 0.349831
H26_31 H 0.849831 0.0129413 0.240134
H27_31 H 0.9309 0.00321775 0.295259
H28_31 H 0.946419 0.0128997 0.272054
H25_31 H 0.849525 0.983903 0.245591
H35_31 H 0.983903 0.745591 0.349525
H25_32 H 0.150475 0.0160965 0.245591
H35_32 H 0.0160965 0.254409 0.349525
H26_32 H 0.150169 0.987059 0.240134
H27_32 H 0.0691002 0.996782 0.295259
H28_32 H 0.0535806 0.9871 0.272054
H29_32 H 0.996782 0.204741 0.4309
H30_32 H 0.9871 0.227946 0.446419
H36_32 H 0.987059 0.259866 0.349831
H31_29 H 0.4309 0.704741 0.00321775
H32_29 H 0.446419 0.727946 0.0128997
H34_29 H 0.349831 0.759866 0.0129413
H33_29 H 0.349525 0.754409 0.983903
H31_30 H 0.5691 0.295259 0.00321775
H32_30 H 0.553581 0.272054 0.0128997
H34_30 H 0.650169 0.240134 0.0129413
H33_30 H 0.650475 0.245591 0.983903
H33_31 H 0.349525 0.245591 0.0160965
H31_31 H 0.4309 0.295259 0.996782
H32_31 H 0.446419 0.272054 0.9871
H34_31 H 0.349831 0.240134 0.987059
H33_32 H 0.650475 0.754409 0.0160965
H31_32 H 0.5691 0.704741 0.996782
H32_32 H 0.553581 0.727946 0.9871
H34_32 H 0.650169 0.759866 0.987059
loop_
_geom_bond_atom_site_label_1
_geom_bond_atom_site_label_2
_geom_bond_site_symmetry_1
_geom_bond_site_symmetry_2
Tb1 O1 1_555 1_555
O1 C3 1_555 1_555
O2 C1 1_555 1_555
O3 Tb1 1_555 1_555
O4 C1 1_555 1_555
O5 C3 1_555 1_555
O6 Tb1 1_555 1_555
C1 C5 1_555 1_555
C2 H1 1_555 1_555
C3 C4 1_555 1_555
C4 C2 1_555 1_555
C5 C2 1_555 1_555
C6 C5 1_555 1_555
H2 C6 1_555 1_555
N1 C8 1_555 1_555
N2 H3 1_555 1_555
C7 C4 1_555 1_555
H4 C7 1_555 1_555
C8 N2 1_555 1_555
C9 C6 1_555 1_555
O7 C12 1_555 1_555
O8 C10 1_555 1_555
O9 C10 1_555 1_555
O10 C12 1_555 1_555
C10 C14 1_555 1_555
C11 H5 1_555 1_555
C12 C13 1_555 1_555
C13 C11 1_555 1_555
C14 C11 1_555 1_555
C15 C14 1_555 1_555
H6 C15 1_555 1_555
N3 C8 1_555 1_555
N4 H7 1_555 1_555
C16 C13 1_555 1_555
H8 C16 1_555 1_555
C17 N3 1_555 1_555
C18 C15 1_555 1_555
O11 C21 1_555 1_555
O12 C19 1_555 1_555
O13 C19 1_555 1_555
O14 C21 1_555 1_555
C19 C23 1_555 1_555
C20 H9 1_555 1_555
C21 C22 1_555 1_555
C22 C20 1_555 1_555
C23 C20 1_555 1_555
C24 C23 1_555 1_555
H10 C24 1_555 1_555
N5 C17 1_555 1_555
N6 H11 1_555 1_555
C25 C22 1_555 1_555
H12 C25 1_555 1_555
C26 N1 1_555 1_555
C27 C24 1_555 1_555
Tb2 O7 1_555 1_555
O15 Tb2 1_555 1_555
O16 Tb2 1_555 1_555
Tb3 O11 1_555 1_555
O17 Tb3 1_555 1_555
O18 Tb3 1_555 1_555
O19 C30 1_555 1_555
O20 C28 1_555 1_555
O21 C28 1_555 1_555
O22 C30 1_555 1_555
C28 C32 1_555 1_555
C29 H13 1_555 1_555
C30 C31 1_555 1_555
C31 C29 1_555 1_555
C32 C29 1_555 1_555
C33 C32 1_555 1_555
H14 C33 1_555 1_555
N7 C35 1_555 1_555
N8 H15 1_555 1_555
C34 C31 1_555 1_555
H16 C34 1_555 1_555
C35 N8 1_555 1_555
C36 C33 1_555 1_555
O23 C39 1_555 1_555
O24 C37 1_555 1_555
O25 C37 1_555 1_555
O26 C39 1_555 1_555
C37 C41 1_555 1_555
C38 H17 1_555 1_555
C39 C40 1_555 1_555
C40 C38 1_555 1_555
C41 C38 1_555 1_555
C42 C41 1_555 1_555
H18 C42 1_555 1_555
N9 C35 1_555 1_555
N10 H19 1_555 1_555
C43 C40 1_555 1_555
H20 C43 1_555 1_555
C44 N9 1_555 1_555
C45 C42 1_555 1_555
O27 C48 1_555 1_555
O28 Tb2 1_555 1_555
O29 Tb2 1_555 1_555
O30 C48 1_555 1_555
C46 O28 1_555 1_555
C47 H21 1_555 1_555
C48 C49 1_555 1_555
C49 C47 1_555 1_555
C50 C46 1_555 1_555
C51 C50 1_555 1_555
H22 C51 1_555 1_555
N11 C44 1_555 1_555
N12 H23 1_555 1_555
C52 C49 1_555 1_555
H24 C52 1_555 1_555
C53 N7 1_555 1_555
C54 C51 1_555 1_555
Tb4 O19 1_555 1_555
Tb5 O23 1_555 1_555
Tb6 O8 1_555 1_555
Tb7 O20 1_555 1_555
Tb8 O12 1_555 1_555
Tb9 O24 1_555 1_555
Tb10 O2 1_555 1_555
O31 Tb1 1_555 1_555
O32 Tb2 1_555 1_555
O33 Tb3 1_555 1_555
O34 Tb3 1_555 1_555
O35 Tb1 1_555 1_555
O36 Tb2 1_555 1_555
O37 Tb3 1_555 1_555
O38 Tb1 1_555 1_555
O39 Tb3 1_555 1_555
O40 Tb1 1_555 1_555
O41 Tb2 1_555 1_555
O42 Tb3 1_555 1_555
O43 Tb1 1_555 1_555
O4 Tb10 1_555 1_555
N2 C9 1_555 1_555
C7 C9 1_555 1_555
O9 Tb6 1_555 1_555
N4 C17 1_555 1_555
N4 C18 1_555 1_555
C16 C18 1_555 1_555
O13 Tb8 1_555 1_555
N5 C26 1_555 1_555
N6 C26 1_555 1_555
N6 C27 1_555 1_555
C25 C27 1_555 1_555
O21 Tb7 1_555 1_555
N8 C36 1_555 1_555
C34 C36 1_555 1_555
O25 Tb9 1_555 1_555
N10 C44 1_555 1_555
N10 C45 1_555 1_555
C43 C45 1_555 1_555
O27 Tb6 1_555 1_555
O29 C46 1_555 1_555
C47 C50 1_555 1_555
N11 C53 1_555 1_555
N12 C53 1_555 1_555
N12 C54 1_555 1_555
C52 C54 1_555 1_555
Tb1_2 O1_2 1_555 1_555
O1_2 C3_2 1_555 1_555
O2_2 C1_2 1_555 1_555
O3_2 Tb1_2 1_555 1_555
O4_2 C1_2 1_555 1_555
O5_2 C3_2 1_555 1_555
O6_2 Tb1_2 1_555 1_555
C1_2 C5_2 1_555 1_555
C2_2 H1_2 1_555 1_555
C3_2 C4_2 1_555 1_555
C4_2 C2_2 1_555 1_555
C5_2 C2_2 1_555 1_555
C6_2 C5_2 1_555 1_555
H2_2 C6_2 1_555 1_555
N1_2 C8_2 1_555 1_555
N2_2 H3_2 1_555 1_555
C7_2 C4_2 1_555 1_555
H4_2 C7_2 1_555 1_555
C8_2 N2_2 1_555 1_555
C9_2 C6_2 1_555 1_555
O7_2 C12_2 1_555 1_555
O8_2 C10_2 1_555 1_555
O9_2 C10_2 1_555 1_555
O10_2 C12_2 1_555 1_555
C10_2 C14_2 1_555 1_555
C11_2 H5_2 1_555 1_555
C12_2 C13_2 1_555 1_555
C13_2 C11_2 1_555 1_555
C14_2 C11_2 1_555 1_555
C15_2 C14_2 1_555 1_555
H6_2 C15_2 1_555 1_555
N3_2 C8_2 1_555 1_555
N4_2 H7_2 1_555 1_555
C16_2 C13_2 1_555 1_555
H8_2 C16_2 1_555 1_555
C17_2 N3_2 1_555 1_555
C18_2 C15_2 1_555 1_555
O11_2 C21_2 1_555 1_555
O12_2 C19_2 1_555 1_555
O13_2 C19_2 1_555 1_555
O14_2 C21_2 1_555 1_555
C19_2 C23_2 1_555 1_555
C20_2 H9_2 1_555 1_555
C21_2 C22_2 1_555 1_555
C22_2 C20_2 1_555 1_555
C23_2 C20_2 1_555 1_555
C24_2 C23_2 1_555 1_555
H10_2 C24_2 1_555 1_555
N5_2 C17_2 1_555 1_555
N6_2 H11_2 1_555 1_555
C25_2 C22_2 1_555 1_555
H12_2 C25_2 1_555 1_555
C26_2 N1_2 1_555 1_555
C27_2 C24_2 1_555 1_555
Tb2_2 O7_2 1_555 1_555
O15_2 Tb2_2 1_555 1_555
O16_2 Tb2_2 1_555 1_555
Tb3_2 O11_2 1_555 1_555
O17_2 Tb3_2 1_555 1_555
O18_2 Tb3_2 1_555 1_555
O19_2 C30_2 1_555 1_555
O20_2 C28_2 1_555 1_555
O21_2 C28_2 1_555 1_555
O22_2 C30_2 1_555 1_555
C28_2 C32_2 1_555 1_555
C29_2 H13_2 1_555 1_555
C30_2 C31_2 1_555 1_555
C31_2 C29_2 1_555 1_555
C32_2 C29_2 1_555 1_555
C33_2 C32_2 1_555 1_555
H14_2 C33_2 1_555 1_555
N7_2 C35_2 1_555 1_555
N8_2 H15_2 1_555 1_555
C34_2 C31_2 1_555 1_555
H16_2 C34_2 1_555 1_555
C35_2 N8_2 1_555 1_555
C36_2 C33_2 1_555 1_555
O23_2 C39_2 1_555 1_555
O24_2 C37_2 1_555 1_555
O25_2 C37_2 1_555 1_555
O26_2 C39_2 1_555 1_555
C37_2 C41_2 1_555 1_555
C38_2 H17_2 1_555 1_555
C39_2 C40_2 1_555 1_555
C40_2 C38_2 1_555 1_555
C41_2 C38_2 1_555 1_555
C42_2 C41_2 1_555 1_555
H18_2 C42_2 1_555 1_555
N9_2 C35_2 1_555 1_555
N10_2 H19_2 1_555 1_555
C43_2 C40_2 1_555 1_555
H20_2 C43_2 1_555 1_555
C44_2 N9_2 1_555 1_555
C45_2 C42_2 1_555 1_555
O27_2 C48_2 1_555 1_555
O28_2 Tb2_2 1_555 1_555
O29_2 Tb2_2 1_555 1_555
O30_2 C48_2 1_555 1_555
C46_2 O28_2 1_555 1_555
C47_2 H21_2 1_555 1_555
C48_2 C49_2 1_555 1_555
C49_2 C47_2 1_555 1_555
C50_2 C46_2 1_555 1_555
C51_2 C50_2 1_555 1_555
H22_2 C51_2 1_555 1_555
N11_2 C44_2 1_555 1_555
N12_2 H23_2 1_555 1_555
C52_2 C49_2 1_555 1_555
H24_2 C52_2 1_555 1_555
C53_2 N7_2 1_555 1_555
C54_2 C51_2 1_555 1_555
Tb4_4 O19_2 1_555 1_555
Tb5_2 O23_2 1_555 1_555
Tb6_2 O8_2 1_555 1_555
Tb7_2 O20_2 1_555 1_555
Tb8_2 O12_2 1_555 1_555
Tb9_4 O24_2 1_555 1_555
Tb10_2 O2_2 1_555 1_555
O31_2 Tb1_2 1_555 1_555
O32_2 Tb2_2 1_555 1_555
O33_2 Tb3_2 1_555 1_555
O34_2 Tb3_2 1_555 1_555
O35_2 Tb1_2 1_555 1_555
O36_2 Tb2_2 1_555 1_555
O37_2 Tb3_2 1_555 1_555
O38_2 Tb1_2 1_555 1_555
O39_2 Tb3_2 1_555 1_555
O40_2 Tb1_2 1_555 1_555
O41_2 Tb2_2 1_555 1_555
O42_2 Tb3_2 1_555 1_555
O43_2 Tb1_2 1_555 1_555
O4_2 Tb10_2 1_555 1_555
N2_2 C9_2 1_555 1_555
C7_2 C9_2 1_555 1_555
O9_2 Tb6_2 1_555 1_555
N4_2 C17_2 1_555 1_555
N4_2 C18_2 1_555 1_555
C16_2 C18_2 1_555 1_555
O13_2 Tb8_2 1_555 1_555
N5_2 C26_2 1_555 1_555
N6_2 C26_2 1_555 1_555
N6_2 C27_2 1_555 1_555
C25_2 C27_2 1_555 1_555
O21_2 Tb7_2 1_555 1_555
N8_2 C36_2 1_555 1_555
C34_2 C36_2 1_555 1_555
O25_2 Tb9_4 1_555 1_555
N10_2 C44_2 1_555 1_555
N10_2 C45_2 1_555 1_555
C43_2 C45_2 1_555 1_555
O27_2 Tb6_2 1_555 1_555
O29_2 C46_2 1_555 1_555
C47_2 C50_2 1_555 1_555
N11_2 C53_2 1_555 1_555
N12_2 C53_2 1_555 1_555
N12_2 C54_2 1_555 1_555
C52_2 C54_2 1_555 1_555
Tb1_3 O1_3 1_555 1_555
O1_3 C3_3 1_555 1_555
O2_3 C1_3 1_555 1_555
O3_3 Tb1_3 1_555 1_555
O4_3 C1_3 1_555 1_555
O5_3 C3_3 1_555 1_555
O6_3 Tb1_3 1_555 1_555
C1_3 C5_3 1_555 1_555
C2_3 H1_3 1_555 1_555
C3_3 C4_3 1_555 1_555
C4_3 C2_3 1_555 1_555
C5_3 C2_3 1_555 1_555
C6_3 C5_3 1_555 1_555
H2_3 C6_3 1_555 1_555
N1_3 C8_3 1_555 1_555
N2_3 H3_3 1_555 1_555
C7_3 C4_3 1_555 1_555
H4_3 C7_3 1_555 1_555
C8_3 N2_3 1_555 1_555
C9_3 C6_3 1_555 1_555
O7_3 C12_3 1_555 1_555
O8_3 C10_3 1_555 1_555
O9_3 C10_3 1_555 1_555
O10_3 C12_3 1_555 1_555
C10_3 C14_3 1_555 1_555
C11_3 H5_3 1_555 1_555
C12_3 C13_3 1_555 1_555
C13_3 C11_3 1_555 1_555
C14_3 C11_3 1_555 1_555
C15_3 C14_3 1_555 1_555
H6_3 C15_3 1_555 1_555
N3_3 C8_3 1_555 1_555
N4_3 H7_3 1_555 1_555
C16_3 C13_3 1_555 1_555
H8_3 C16_3 1_555 1_555
C17_3 N3_3 1_555 1_555
C18_3 C15_3 1_555 1_555
O11_3 C21_3 1_555 1_555
O12_3 C19_3 1_555 1_555
O13_3 C19_3 1_555 1_555
O14_3 C21_3 1_555 1_555
C19_3 C23_3 1_555 1_555
C20_3 H9_3 1_555 1_555
C21_3 C22_3 1_555 1_555
C22_3 C20_3 1_555 1_555
C23_3 C20_3 1_555 1_555
C24_3 C23_3 1_555 1_555
H10_3 C24_3 1_555 1_555
N5_3 C17_3 1_555 1_555
N6_3 H11_3 1_555 1_555
C25_3 C22_3 1_555 1_555
H12_3 C25_3 1_555 1_555
C26_3 N1_3 1_555 1_555
C27_3 C24_3 1_555 1_555
Tb2_3 O7_3 1_555 1_555
O15_3 Tb2_3 1_555 1_555
O16_3 Tb2_3 1_555 1_555
Tb3_3 O11_3 1_555 1_555
O17_3 Tb3_3 1_555 1_555
O18_3 Tb3_3 1_555 1_555
O19_3 C30_3 1_555 1_555
O20_3 C28_3 1_555 1_555
O21_3 C28_3 1_555 1_555
O22_3 C30_3 1_555 1_555
C28_3 C32_3 1_555 1_555
C29_3 H13_3 1_555 1_555
C30_3 C31_3 1_555 1_555
C31_3 C29_3 1_555 1_555
C32_3 C29_3 1_555 1_555
C33_3 C32_3 1_555 1_555
H14_3 C33_3 1_555 1_555
N7_3 C35_3 1_555 1_555
N8_3 H15_3 1_555 1_555
C34_3 C31_3 1_555 1_555
H16_3 C34_3 1_555 1_555
C35_3 N8_3 1_555 1_555
C36_3 C33_3 1_555 1_555
O23_3 C39_3 1_555 1_555
O24_3 C37_3 1_555 1_555
O25_3 C37_3 1_555 1_555
O26_3 C39_3 1_555 1_555
C37_3 C41_3 1_555 1_555
C38_3 H17_3 1_555 1_555
C39_3 C40_3 1_555 1_555
C40_3 C38_3 1_555 1_555
C41_3 C38_3 1_555 1_555
C42_3 C41_3 1_555 1_555
H18_3 C42_3 1_555 1_555
N9_3 C35_3 1_555 1_555
N10_3 H19_3 1_555 1_555
C43_3 C40_3 1_555 1_555
H20_3 C43_3 1_555 1_555
C44_3 N9_3 1_555 1_555
C45_3 C42_3 1_555 1_555
O27_3 C48_3 1_555 1_555
O28_3 Tb2_3 1_555 1_555
O29_3 Tb2_3 1_555 1_555
O30_3 C48_3 1_555 1_555
C46_3 O28_3 1_555 1_555
C47_3 H21_3 1_555 1_555
C48_3 C49_3 1_555 1_555
C49_3 C47_3 1_555 1_555
C50_3 C46_3 1_555 1_555
C51_3 C50_3 1_555 1_555
H22_3 C51_3 1_555 1_555
N11_3 C44_3 1_555 1_555
N12_3 H23_3 1_555 1_555
C52_3 C49_3 1_555 1_555
H24_3 C52_3 1_555 1_555
C53_3 N7_3 1_555 1_555
C54_3 C51_3 1_555 1_555
Tb4_6 O19_3 1_555 1_555
Tb5_3 O23_3 1_555 1_555
Tb6_3 O8_3 1_555 1_555
Tb7_3 O20_3 1_555 1_555
Tb8_3 O12_3 1_555 1_555
Tb9_6 O24_3 1_555 1_555
Tb10_3 O2_3 1_555 1_555
O31_3 Tb1_3 1_555 1_555
O32_3 Tb2_3 1_555 1_555
O33_3 Tb3_3 1_555 1_555
O34_3 Tb3_3 1_555 1_555
O35_3 Tb1_3 1_555 1_555
O36_3 Tb2_3 1_555 1_555
O37_3 Tb3_3 1_555 1_555
O38_3 Tb1_3 1_555 1_555
O39_3 Tb3_3 1_555 1_555
O40_3 Tb1_3 1_555 1_555
O41_3 Tb2_3 1_555 1_555
O42_3 Tb3_3 1_555 1_555
O43_3 Tb1_3 1_555 1_555
O4_3 Tb10_3 1_555 1_555
N2_3 C9_3 1_555 1_555
C7_3 C9_3 1_555 1_555
O9_3 Tb6_3 1_555 1_555
N4_3 C17_3 1_555 1_555
N4_3 C18_3 1_555 1_555
C16_3 C18_3 1_555 1_555
O13_3 Tb8_3 1_555 1_555
N5_3 C26_3 1_555 1_555
N6_3 C26_3 1_555 1_555
N6_3 C27_3 1_555 1_555
C25_3 C27_3 1_555 1_555
O21_3 Tb7_3 1_555 1_555
N8_3 C36_3 1_555 1_555
C34_3 C36_3 1_555 1_555
O25_3 Tb9_6 1_555 1_555
N10_3 C44_3 1_555 1_555
N10_3 C45_3 1_555 1_555
C43_3 C45_3 1_555 1_555
O27_3 Tb6_3 1_555 1_555
O29_3 C46_3 1_555 1_555
C47_3 C50_3 1_555 1_555
N11_3 C53_3 1_555 1_555
N12_3 C53_3 1_555 1_555
N12_3 C54_3 1_555 1_555
C52_3 C54_3 1_555 1_555
Tb1_4 O1_4 1_555 1_555
O1_4 C3_4 1_555 1_555
O2_4 C1_4 1_555 1_555
O3_4 Tb1_4 1_555 1_555
O4_4 C1_4 1_555 1_555
O5_4 C3_4 1_555 1_555
O6_4 Tb1_4 1_555 1_555
C1_4 C5_4 1_555 1_555
C2_4 H1_4 1_555 1_555
C3_4 C4_4 1_555 1_555
C4_4 C2_4 1_555 1_555
C5_4 C2_4 1_555 1_555
C6_4 C5_4 1_555 1_555
H2_4 C6_4 1_555 1_555
N1_4 C8_4 1_555 1_555
N2_4 H3_4 1_555 1_555
C7_4 C4_4 1_555 1_555
H4_4 C7_4 1_555 1_555
C8_4 N2_4 1_555 1_555
C9_4 C6_4 1_555 1_555
O7_4 C12_4 1_555 1_555
O8_4 C10_4 1_555 1_555
O9_4 C10_4 1_555 1_555
O10_4 C12_4 1_555 1_555
C10_4 C14_4 1_555 1_555
C11_4 H5_4 1_555 1_555
C12_4 C13_4 1_555 1_555
C13_4 C11_4 1_555 1_555
C14_4 C11_4 1_555 1_555
C15_4 C14_4 1_555 1_555
H6_4 C15_4 1_555 1_555
N3_4 C8_4 1_555 1_555
N4_4 H7_4 1_555 1_555
C16_4 C13_4 1_555 1_555
H8_4 C16_4 1_555 1_555
C17_4 N3_4 1_555 1_555
C18_4 C15_4 1_555 1_555
O11_4 C21_4 1_555 1_555
O12_4 C19_4 1_555 1_555
O13_4 C19_4 1_555 1_555
O14_4 C21_4 1_555 1_555
C19_4 C23_4 1_555 1_555
C20_4 H9_4 1_555 1_555
C21_4 C22_4 1_555 1_555
C22_4 C20_4 1_555 1_555
C23_4 C20_4 1_555 1_555
C24_4 C23_4 1_555 1_555
H10_4 C24_4 1_555 1_555
N5_4 C17_4 1_555 1_555
N6_4 H11_4 1_555 1_555
C25_4 C22_4 1_555 1_555
H12_4 C25_4 1_555 1_555
C26_4 N1_4 1_555 1_555
C27_4 C24_4 1_555 1_555
Tb2_4 O7_4 1_555 1_555
O15_4 Tb2_4 1_555 1_555
O16_4 Tb2_4 1_555 1_555
Tb3_4 O11_4 1_555 1_555
O17_4 Tb3_4 1_555 1_555
O18_4 Tb3_4 1_555 1_555
O19_4 C30_4 1_555 1_555
O20_4 C28_4 1_555 1_555
O21_4 C28_4 1_555 1_555
O22_4 C30_4 1_555 1_555
C28_4 C32_4 1_555 1_555
C29_4 H13_4 1_555 1_555
C30_4 C31_4 1_555 1_555
C31_4 C29_4 1_555 1_555
C32_4 C29_4 1_555 1_555
C33_4 C32_4 1_555 1_555
H14_4 C33_4 1_555 1_555
N7_4 C35_4 1_555 1_555
N8_4 H15_4 1_555 1_555
C34_4 C31_4 1_555 1_555
H16_4 C34_4 1_555 1_555
C35_4 N8_4 1_555 1_555
C36_4 C33_4 1_555 1_555
O23_4 C39_4 1_555 1_555
O24_4 C37_4 1_555 1_555
O25_4 C37_4 1_555 1_555
O26_4 C39_4 1_555 1_555
C37_4 C41_4 1_555 1_555
C38_4 H17_4 1_555 1_555
C39_4 C40_4 1_555 1_555
C40_4 C38_4 1_555 1_555
C41_4 C38_4 1_555 1_555
C42_4 C41_4 1_555 1_555
H18_4 C42_4 1_555 1_555
N9_4 C35_4 1_555 1_555
N10_4 H19_4 1_555 1_555
C43_4 C40_4 1_555 1_555
H20_4 C43_4 1_555 1_555
C44_4 N9_4 1_555 1_555
C45_4 C42_4 1_555 1_555
O27_4 C48_4 1_555 1_555
O28_4 Tb2_4 1_555 1_555
O29_4 Tb2_4 1_555 1_555
O30_4 C48_4 1_555 1_555
C46_4 O28_4 1_555 1_555
C47_4 H21_4 1_555 1_555
C48_4 C49_4 1_555 1_555
C49_4 C47_4 1_555 1_555
C50_4 C46_4 1_555 1_555
C51_4 C50_4 1_555 1_555
H22_4 C51_4 1_555 1_555
N11_4 C44_4 1_555 1_555
N12_4 H23_4 1_555 1_555
C52_4 C49_4 1_555 1_555
H24_4 C52_4 1_555 1_555
C53_4 N7_4 1_555 1_555
C54_4 C51_4 1_555 1_555
Tb4_7 O19_4 1_555 1_555
Tb5_4 O23_4 1_555 1_555
Tb6_4 O8_4 1_555 1_555
Tb7_4 O20_4 1_555 1_555
Tb8_4 O12_4 1_555 1_555
Tb9_7 O24_4 1_555 1_555
Tb10_4 O2_4 1_555 1_555
O31_4 Tb1_4 1_555 1_555
O32_4 Tb2_4 1_555 1_555
O33_4 Tb3_4 1_555 1_555
O34_4 Tb3_4 1_555 1_555
O35_4 Tb1_4 1_555 1_555
O36_4 Tb2_4 1_555 1_555
O37_4 Tb3_4 1_555 1_555
O38_4 Tb1_4 1_555 1_555
O39_4 Tb3_4 1_555 1_555
O40_4 Tb1_4 1_555 1_555
O41_4 Tb2_4 1_555 1_555
O42_4 Tb3_4 1_555 1_555
O43_4 Tb1_4 1_555 1_555
O4_4 Tb10_4 1_555 1_555
N2_4 C9_4 1_555 1_555
C7_4 C9_4 1_555 1_555
O9_4 Tb6_4 1_555 1_555
N4_4 C17_4 1_555 1_555
N4_4 C18_4 1_555 1_555
C16_4 C18_4 1_555 1_555
O13_4 Tb8_4 1_555 1_555
N5_4 C26_4 1_555 1_555
N6_4 C26_4 1_555 1_555
N6_4 C27_4 1_555 1_555
C25_4 C27_4 1_555 1_555
O21_4 Tb7_4 1_555 1_555
N8_4 C36_4 1_555 1_555
C34_4 C36_4 1_555 1_555
O25_4 Tb9_7 1_555 1_555
N10_4 C44_4 1_555 1_555
N10_4 C45_4 1_555 1_555
C43_4 C45_4 1_555 1_555
O27_4 Tb6_4 1_555 1_555
O29_4 C46_4 1_555 1_555
C47_4 C50_4 1_555 1_555
N11_4 C53_4 1_555 1_555
N12_4 C53_4 1_555 1_555
N12_4 C54_4 1_555 1_555
C52_4 C54_4 1_555 1_555
O19_5 C30_5 1_555 1_555
O20_5 C28_5 1_555 1_555
O21_5 C28_5 1_555 1_555
O22_5 C30_5 1_555 1_555
C28_5 C32_5 1_555 1_555
C29_5 H13_5 1_555 1_555
C30_5 C31_5 1_555 1_555
C31_5 C29_5 1_555 1_555
C32_5 C29_5 1_555 1_555
C33_5 C32_5 1_555 1_555
H14_5 C33_5 1_555 1_555
N7_5 C35_5 1_555 1_555
N8_5 H15_5 1_555 1_555
C34_5 C31_5 1_555 1_555
H16_5 C34_5 1_555 1_555
C35_5 N8_5 1_555 1_555
C36_5 C33_5 1_555 1_555
O23_5 C39_5 1_555 1_555
O24_5 C37_5 1_555 1_555
O25_5 C37_5 1_555 1_555
O26_5 C39_5 1_555 1_555
C37_5 C41_5 1_555 1_555
C38_5 H17_5 1_555 1_555
C39_5 C40_5 1_555 1_555
C40_5 C38_5 1_555 1_555
C41_5 C38_5 1_555 1_555
C42_5 C41_5 1_555 1_555
H18_5 C42_5 1_555 1_555
N9_5 C35_5 1_555 1_555
N10_5 H19_5 1_555 1_555
C43_5 C40_5 1_555 1_555
H20_5 C43_5 1_555 1_555
C44_5 N9_5 1_555 1_555
C45_5 C42_5 1_555 1_555
O27_5 C48_5 1_555 1_555
O30_5 C48_5 1_555 1_555
C46_5 O34_4 1_555 1_555
C47_5 H21_5 1_555 1_555
C48_5 C49_5 1_555 1_555
C49_5 C47_5 1_555 1_555
C50_5 C46_5 1_555 1_555
C51_5 C50_5 1_555 1_555
H22_5 C51_5 1_555 1_555
N11_5 C44_5 1_555 1_555
N12_5 H23_5 1_555 1_555
C52_5 C49_5 1_555 1_555
H24_5 C52_5 1_555 1_555
C53_5 N7_5 1_555 1_555
C54_5 C51_5 1_555 1_555
Tb4_9 O19_5 1_555 1_555
Tb5_5 O23_5 1_555 1_555
Tb7_5 O20_5 1_555 1_555
Tb9_9 O24_5 1_555 1_555
O21_5 Tb7_5 1_555 1_555
N8_5 C36_5 1_555 1_555
C34_5 C36_5 1_555 1_555
O25_5 Tb9_9 1_555 1_555
N10_5 C44_5 1_555 1_555
N10_5 C45_5 1_555 1_555
C43_5 C45_5 1_555 1_555
O27_5 Tb8_4 1_555 1_555
O39_4 C46_5 1_555 1_555
C47_5 C50_5 1_555 1_555
N11_5 C53_5 1_555 1_555
N12_5 C53_5 1_555 1_555
N12_5 C54_5 1_555 1_555
C52_5 C54_5 1_555 1_555
O19_6 C30_6 1_555 1_555
O20_6 C28_6 1_555 1_555
O21_6 C28_6 1_555 1_555
O22_6 C30_6 1_555 1_555
C28_6 C32_6 1_555 1_555
C29_6 H13_6 1_555 1_555
C30_6 C31_6 1_555 1_555
C31_6 C29_6 1_555 1_555
C32_6 C29_6 1_555 1_555
C33_6 C32_6 1_555 1_555
H14_6 C33_6 1_555 1_555
N7_6 C35_6 1_555 1_555
N8_6 H15_6 1_555 1_555
C34_6 C31_6 1_555 1_555
H16_6 C34_6 1_555 1_555
C35_6 N8_6 1_555 1_555
C36_6 C33_6 1_555 1_555
O23_6 C39_6 1_555 1_555
O24_6 C37_6 1_555 1_555
O25_6 C37_6 1_555 1_555
O26_6 C39_6 1_555 1_555
C37_6 C41_6 1_555 1_555
C38_6 H17_6 1_555 1_555
C39_6 C40_6 1_555 1_555
C40_6 C38_6 1_555 1_555
C41_6 C38_6 1_555 1_555
C42_6 C41_6 1_555 1_555
H18_6 C42_6 1_555 1_555
N9_6 C35_6 1_555 1_555
N10_6 H19_6 1_555 1_555
C43_6 C40_6 1_555 1_555
H20_6 C43_6 1_555 1_555
C44_6 N9_6 1_555 1_555
C45_6 C42_6 1_555 1_555
O27_6 C48_6 1_555 1_555
O30_6 C48_6 1_555 1_555
C46_6 O34 1_555 1_555
C47_6 H21_6 1_555 1_555
C48_6 C49_6 1_555 1_555
C49_6 C47_6 1_555 1_555
C50_6 C46_6 1_555 1_555
C51_6 C50_6 1_555 1_555
H22_6 C51_6 1_555 1_555
N11_6 C44_6 1_555 1_555
N12_6 H23_6 1_555 1_555
C52_6 C49_6 1_555 1_555
H24_6 C52_6 1_555 1_555
C53_6 N7_6 1_555 1_555
C54_6 C51_6 1_555 1_555
Tb4_12 O19_6 1_555 1_555
Tb5_6 O23_6 1_555 1_555
Tb7_6 O20_6 1_555 1_555
Tb9_12 O24_6 1_555 1_555
O21_6 Tb7_6 1_555 1_555
N8_6 C36_6 1_555 1_555
C34_6 C36_6 1_555 1_555
O25_6 Tb9_12 1_555 1_555
N10_6 C44_6 1_555 1_555
N10_6 C45_6 1_555 1_555
C43_6 C45_6 1_555 1_555
O27_6 Tb8 1_555 1_555
O39 C46_6 1_555 1_555
C47_6 C50_6 1_555 1_555
N11_6 C53_6 1_555 1_555
N12_6 C53_6 1_555 1_555
N12_6 C54_6 1_555 1_555
C52_6 C54_6 1_555 1_555
O19_7 C30_7 1_555 1_555
O20_7 C28_7 1_555 1_555
O21_7 C28_7 1_555 1_555
O22_7 C30_7 1_555 1_555
C28_7 C32_7 1_555 1_555
C29_7 H13_7 1_555 1_555
C30_7 C31_7 1_555 1_555
C31_7 C29_7 1_555 1_555
C32_7 C29_7 1_555 1_555
C33_7 C32_7 1_555 1_555
H14_7 C33_7 1_555 1_555
N7_7 C35_7 1_555 1_555
N8_7 H15_7 1_555 1_555
C34_7 C31_7 1_555 1_555
H16_7 C34_7 1_555 1_555
C35_7 N8_7 1_555 1_555
C36_7 C33_7 1_555 1_555
O23_7 C39_7 1_555 1_555
O24_7 C37_7 1_555 1_555
O25_7 C37_7 1_555 1_555
O26_7 C39_7 1_555 1_555
C37_7 C41_7 1_555 1_555
C38_7 H17_7 1_555 1_555
C39_7 C40_7 1_555 1_555
C40_7 C38_7 1_555 1_555
C41_7 C38_7 1_555 1_555
C42_7 C41_7 1_555 1_555
H18_7 C42_7 1_555 1_555
N9_7 C35_7 1_555 1_555
N10_7 H19_7 1_555 1_555
C43_7 C40_7 1_555 1_555
H20_7 C43_7 1_555 1_555
C44_7 N9_7 1_555 1_555
C45_7 C42_7 1_555 1_555
O27_7 C48_7 1_555 1_555
O30_7 C48_7 1_555 1_555
C46_7 O34_3 1_555 1_555
C47_7 H21_7 1_555 1_555
C48_7 C49_7 1_555 1_555
C49_7 C47_7 1_555 1_555
C50_7 C46_7 1_555 1_555
C51_7 C50_7 1_555 1_555
H22_7 C51_7 1_555 1_555
N11_7 C44_7 1_555 1_555
N12_7 H23_7 1_555 1_555
C52_7 C49_7 1_555 1_555
H24_7 C52_7 1_555 1_555
C53_7 N7_7 1_555 1_555
C54_7 C51_7 1_555 1_555
Tb4_14 O19_7 1_555 1_555
Tb5_7 O23_7 1_555 1_555
Tb7_7 O20_7 1_555 1_555
Tb9_14 O24_7 1_555 1_555
O21_7 Tb7_7 1_555 1_555
N8_7 C36_7 1_555 1_555
C34_7 C36_7 1_555 1_555
O25_7 Tb9_14 1_555 1_555
N10_7 C44_7 1_555 1_555
N10_7 C45_7 1_555 1_555
C43_7 C45_7 1_555 1_555
O27_7 Tb8_3 1_555 1_555
O39_3 C46_7 1_555 1_555
C47_7 C50_7 1_555 1_555
N11_7 C53_7 1_555 1_555
N12_7 C53_7 1_555 1_555
N12_7 C54_7 1_555 1_555
C52_7 C54_7 1_555 1_555
O19_8 C30_8 1_555 1_555
O20_8 C28_8 1_555 1_555
O21_8 C28_8 1_555 1_555
O22_8 C30_8 1_555 1_555
C28_8 C32_8 1_555 1_555
C29_8 H13_8 1_555 1_555
C30_8 C31_8 1_555 1_555
C31_8 C29_8 1_555 1_555
C32_8 C29_8 1_555 1_555
C33_8 C32_8 1_555 1_555
H14_8 C33_8 1_555 1_555
N7_8 C35_8 1_555 1_555
N8_8 H15_8 1_555 1_555
C34_8 C31_8 1_555 1_555
H16_8 C34_8 1_555 1_555
C35_8 N8_8 1_555 1_555
C36_8 C33_8 1_555 1_555
O23_8 C39_8 1_555 1_555
O24_8 C37_8 1_555 1_555
O25_8 C37_8 1_555 1_555
O26_8 C39_8 1_555 1_555
C37_8 C41_8 1_555 1_555
C38_8 H17_8 1_555 1_555
C39_8 C40_8 1_555 1_555
C40_8 C38_8 1_555 1_555
C41_8 C38_8 1_555 1_555
C42_8 C41_8 1_555 1_555
H18_8 C42_8 1_555 1_555
N9_8 C35_8 1_555 1_555
N10_8 H19_8 1_555 1_555
C43_8 C40_8 1_555 1_555
H20_8 C43_8 1_555 1_555
C44_8 N9_8 1_555 1_555
C45_8 C42_8 1_555 1_555
O27_8 C48_8 1_555 1_555
O30_8 C48_8 1_555 1_555
C46_8 O34_2 1_555 1_555
C47_8 H21_8 1_555 1_555
C48_8 C49_8 1_555 1_555
C49_8 C47_8 1_555 1_555
C50_8 C46_8 1_555 1_555
C51_8 C50_8 1_555 1_555
H22_8 C51_8 1_555 1_555
N11_8 C44_8 1_555 1_555
N12_8 H23_8 1_555 1_555
C52_8 C49_8 1_555 1_555
H24_8 C52_8 1_555 1_555
C53_8 N7_8 1_555 1_555
C54_8 C51_8 1_555 1_555
Tb4_15 O19_8 1_555 1_555
Tb5_8 O23_8 1_555 1_555
Tb7_8 O20_8 1_555 1_555
Tb9_15 O24_8 1_555 1_555
O21_8 Tb7_8 1_555 1_555
N8_8 C36_8 1_555 1_555
C34_8 C36_8 1_555 1_555
O25_8 Tb9_15 1_555 1_555
N10_8 C44_8 1_555 1_555
N10_8 C45_8 1_555 1_555
C43_8 C45_8 1_555 1_555
O27_8 Tb8_2 1_555 1_555
O39_2 C46_8 1_555 1_555
C47_8 C50_8 1_555 1_555
N11_8 C53_8 1_555 1_555
N12_8 C53_8 1_555 1_555
N12_8 C54_8 1_555 1_555
C52_8 C54_8 1_555 1_555
O19_9 C30_9 1_555 1_555
O20_9 C28_9 1_555 1_555
O21_9 C28_9 1_555 1_555
O22_9 C30_9 1_555 1_555
C28_9 C32_9 1_555 1_555
C29_9 H13_9 1_555 1_555
C30_9 C31_9 1_555 1_555
C31_9 C29_9 1_555 1_555
C32_9 C29_9 1_555 1_555
C33_9 C32_9 1_555 1_555
H14_9 C33_9 1_555 1_555
N7_9 C35_9 1_555 1_555
N8_9 H15_9 1_555 1_555
C34_9 C31_9 1_555 1_555
H16_9 C34_9 1_555 1_555
C35_9 N8_9 1_555 1_555
C36_9 C33_9 1_555 1_555
O23_9 C39_9 1_555 1_555
O24_9 C37_9 1_555 1_555
O25_9 C37_9 1_555 1_555
O26_9 C39_9 1_555 1_555
C37_9 C41_9 1_555 1_555
C38_9 H17_9 1_555 1_555
C39_9 C40_9 1_555 1_555
C40_9 C38_9 1_555 1_555
C41_9 C38_9 1_555 1_555
C42_9 C41_9 1_555 1_555
H18_9 C42_9 1_555 1_555
N9_9 C35_9 1_555 1_555
N10_9 H19_9 1_555 1_555
C43_9 C40_9 1_555 1_555
H20_9 C43_9 1_555 1_555
C44_9 N9_9 1_555 1_555
C45_9 C42_9 1_555 1_555
O27_9 C48_9 1_555 1_555
O30_9 C48_9 1_555 1_555
C46_9 O35_2 1_555 1_555
C47_9 H21_9 1_555 1_555
C48_9 C49_9 1_555 1_555
C49_9 C47_9 1_555 1_555
C50_9 C46_9 1_555 1_555
C51_9 C50_9 1_555 1_555
H22_9 C51_9 1_555 1_555
N11_9 C44_9 1_555 1_555
N12_9 H23_9 1_555 1_555
C52_9 C49_9 1_555 1_555
H24_9 C52_9 1_555 1_555
C53_9 N7_9 1_555 1_555
C54_9 C51_9 1_555 1_555
Tb4_17 O19_9 1_555 1_555
Tb5_9 O23_9 1_555 1_555
Tb7_9 O20_9 1_555 1_555
Tb9_17 O24_9 1_555 1_555
O21_9 Tb7_9 1_555 1_555
N8_9 C36_9 1_555 1_555
C34_9 C36_9 1_555 1_555
O25_9 Tb9_17 1_555 1_555
N10_9 C44_9 1_555 1_555
N10_9 C45_9 1_555 1_555
C43_9 C45_9 1_555 1_555
O27_9 Tb10_2 1_555 1_555
O40_2 C46_9 1_555 1_555
C47_9 C50_9 1_555 1_555
N11_9 C53_9 1_555 1_555
N12_9 C53_9 1_555 1_555
N12_9 C54_9 1_555 1_555
C52_9 C54_9 1_555 1_555
O19_10 C30_10 1_555 1_555
O20_10 C28_10 1_555 1_555
O21_10 C28_10 1_555 1_555
O22_10 C30_10 1_555 1_555
C28_10 C32_10 1_555 1_555
C29_10 H13_10 1_555 1_555
C30_10 C31_10 1_555 1_555
C31_10 C29_10 1_555 1_555
C32_10 C29_10 1_555 1_555
C33_10 C32_10 1_555 1_555
H14_10 C33_10 1_555 1_555
N7_10 C35_10 1_555 1_555
N8_10 H15_10 1_555 1_555
C34_10 C31_10 1_555 1_555
H16_10 C34_10 1_555 1_555
C35_10 N8_10 1_555 1_555
C36_10 C33_10 1_555 1_555
O23_10 C39_10 1_555 1_555
O24_10 C37_10 1_555 1_555
O25_10 C37_10 1_555 1_555
O26_10 C39_10 1_555 1_555
C37_10 C41_10 1_555 1_555
C38_10 H17_10 1_555 1_555
C39_10 C40_10 1_555 1_555
C40_10 C38_10 1_555 1_555
C41_10 C38_10 1_555 1_555
C42_10 C41_10 1_555 1_555
H18_10 C42_10 1_555 1_555
N9_10 C35_10 1_555 1_555
N10_10 H19_10 1_555 1_555
C43_10 C40_10 1_555 1_555
H20_10 C43_10 1_555 1_555
C44_10 N9_10 1_555 1_555
C45_10 C42_10 1_555 1_555
O27_10 C48_10 1_555 1_555
O30_10 C48_10 1_555 1_555
C46_10 O35_4 1_555 1_555
C47_10 H21_10 1_555 1_555
C48_10 C49_10 1_555 1_555
C49_10 C47_10 1_555 1_555
C50_10 C46_10 1_555 1_555
C51_10 C50_10 1_555 1_555
H22_10 C51_10 1_555 1_555
N11_10 C44_10 1_555 1_555
N12_10 H23_10 1_555 1_555
C52_10 C49_10 1_555 1_555
H24_10 C52_10 1_555 1_555
C53_10 N7_10 1_555 1_555
C54_10 C51_10 1_555 1_555
Tb4_20 O19_10 1_555 1_555
Tb5_10 O23_10 1_555 1_555
Tb7_10 O20_10 1_555 1_555
Tb9_20 O24_10 1_555 1_555
O21_10 Tb7_10 1_555 1_555
N8_10 C36_10 1_555 1_555
C34_10 C36_10 1_555 1_555
O25_10 Tb9_20 1_555 1_555
N10_10 C44_10 1_555 1_555
N10_10 C45_10 1_555 1_555
C43_10 C45_10 1_555 1_555
O27_10 Tb10_4 1_555 1_555
O40_4 C46_10 1_555 1_555
C47_10 C50_10 1_555 1_555
N11_10 C53_10 1_555 1_555
N12_10 C53_10 1_555 1_555
N12_10 C54_10 1_555 1_555
C52_10 C54_10 1_555 1_555
O19_11 C30_11 1_555 1_555
O20_11 C28_11 1_555 1_555
O21_11 C28_11 1_555 1_555
O22_11 C30_11 1_555 1_555
C28_11 C32_11 1_555 1_555
C29_11 H13_11 1_555 1_555
C30_11 C31_11 1_555 1_555
C31_11 C29_11 1_555 1_555
C32_11 C29_11 1_555 1_555
C33_11 C32_11 1_555 1_555
H14_11 C33_11 1_555 1_555
N7_11 C35_11 1_555 1_555
N8_11 H15_11 1_555 1_555
C34_11 C31_11 1_555 1_555
H16_11 C34_11 1_555 1_555
C35_11 N8_11 1_555 1_555
C36_11 C33_11 1_555 1_555
O23_11 C39_11 1_555 1_555
O24_11 C37_11 1_555 1_555
O25_11 C37_11 1_555 1_555
O26_11 C39_11 1_555 1_555
C37_11 C41_11 1_555 1_555
C38_11 H17_11 1_555 1_555
C39_11 C40_11 1_555 1_555
C40_11 C38_11 1_555 1_555
C41_11 C38_11 1_555 1_555
C42_11 C41_11 1_555 1_555
H18_11 C42_11 1_555 1_555
N9_11 C35_11 1_555 1_555
N10_11 H19_11 1_555 1_555
C43_11 C40_11 1_555 1_555
H20_11 C43_11 1_555 1_555
C44_11 N9_11 1_555 1_555
C45_11 C42_11 1_555 1_555
O27_11 C48_11 1_555 1_555
O30_11 C48_11 1_555 1_555
C46_11 O35_3 1_555 1_555
C47_11 H21_11 1_555 1_555
C48_11 C49_11 1_555 1_555
C49_11 C47_11 1_555 1_555
C50_11 C46_11 1_555 1_555
C51_11 C50_11 1_555 1_555
H22_11 C51_11 1_555 1_555
N11_11 C44_11 1_555 1_555
N12_11 H23_11 1_555 1_555
C52_11 C49_11 1_555 1_555
H24_11 C52_11 1_555 1_555
C53_11 N7_11 1_555 1_555
C54_11 C51_11 1_555 1_555
Tb4_22 O19_11 1_555 1_555
Tb5_11 O23_11 1_555 1_555
Tb7_11 O20_11 1_555 1_555
Tb9_22 O24_11 1_555 1_555
O21_11 Tb7_11 1_555 1_555
N8_11 C36_11 1_555 1_555
C34_11 C36_11 1_555 1_555
O25_11 Tb9_22 1_555 1_555
N10_11 C44_11 1_555 1_555
N10_11 C45_11 1_555 1_555
C43_11 C45_11 1_555 1_555
O27_11 Tb10_3 1_555 1_555
O40_3 C46_11 1_555 1_555
C47_11 C50_11 1_555 1_555
N11_11 C53_11 1_555 1_555
N12_11 C53_11 1_555 1_555
N12_11 C54_11 1_555 1_555
C52_11 C54_11 1_555 1_555
O19_12 C30_12 1_555 1_555
O20_12 C28_12 1_555 1_555
O21_12 C28_12 1_555 1_555
O22_12 C30_12 1_555 1_555
C28_12 C32_12 1_555 1_555
C29_12 H13_12 1_555 1_555
C30_12 C31_12 1_555 1_555
C31_12 C29_12 1_555 1_555
C32_12 C29_12 1_555 1_555
C33_12 C32_12 1_555 1_555
H14_12 C33_12 1_555 1_555
N7_12 C35_12 1_555 1_555
N8_12 H15_12 1_555 1_555
C34_12 C31_12 1_555 1_555
H16_12 C34_12 1_555 1_555
C35_12 N8_12 1_555 1_555
C36_12 C33_12 1_555 1_555
O23_12 C39_12 1_555 1_555
O24_12 C37_12 1_555 1_555
O25_12 C37_12 1_555 1_555
O26_12 C39_12 1_555 1_555
C37_12 C41_12 1_555 1_555
C38_12 H17_12 1_555 1_555
C39_12 C40_12 1_555 1_555
C40_12 C38_12 1_555 1_555
C41_12 C38_12 1_555 1_555
C42_12 C41_12 1_555 1_555
H18_12 C42_12 1_555 1_555
N9_12 C35_12 1_555 1_555
N10_12 H19_12 1_555 1_555
C43_12 C40_12 1_555 1_555
H20_12 C43_12 1_555 1_555
C44_12 N9_12 1_555 1_555
C45_12 C42_12 1_555 1_555
O27_12 C48_12 1_555 1_555
O30_12 C48_12 1_555 1_555
C46_12 O35 1_555 1_555
C47_12 H21_12 1_555 1_555
C48_12 C49_12 1_555 1_555
C49_12 C47_12 1_555 1_555
C50_12 C46_12 1_555 1_555
C51_12 C50_12 1_555 1_555
H22_12 C51_12 1_555 1_555
N11_12 C44_12 1_555 1_555
N12_12 H23_12 1_555 1_555
C52_12 C49_12 1_555 1_555
H24_12 C52_12 1_555 1_555
C53_12 N7_12 1_555 1_555
C54_12 C51_12 1_555 1_555
Tb4_23 O19_12 1_555 1_555
Tb5_12 O23_12 1_555 1_555
Tb7_12 O20_12 1_555 1_555
Tb9_23 O24_12 1_555 1_555
O21_12 Tb7_12 1_555 1_555
N8_12 C36_12 1_555 1_555
C34_12 C36_12 1_555 1_555
O25_12 Tb9_23 1_555 1_555
N10_12 C44_12 1_555 1_555
N10_12 C45_12 1_555 1_555
C43_12 C45_12 1_555 1_555
O27_12 Tb10 1_555 1_555
O40 C46_12 1_555 1_555
C47_12 C50_12 1_555 1_555
N11_12 C53_12 1_555 1_555
N12_12 C53_12 1_555 1_555
N12_12 C54_12 1_555 1_555
C52_12 C54_12 1_555 1_555
O17_5 Tb3_5 1_555 1_555
O18_5 Tb3_5 1_555 1_555
O33_5 Tb3_5 1_555 1_555
O37_5 Tb3_5 1_555 1_555
O42_5 Tb3_5 1_555 1_555
O18_5 H29 1_555 1_555
O18_5 H30 1_555 1_555
O17_5 H36 1_555 1_555
Tb1_5 O1_5 1_555 1_555
O1_5 C3_5 1_555 1_555
O2_5 C1_5 1_555 1_555
O3_5 Tb1_5 1_555 1_555
O4_5 C1_5 1_555 1_555
O5_5 C3_5 1_555 1_555
O6_5 Tb1_5 1_555 1_555
C1_5 C5_5 1_555 1_555
C2_5 H1_5 1_555 1_555
C3_5 C4_5 1_555 1_555
C4_5 C2_5 1_555 1_555
C5_5 C2_5 1_555 1_555
C6_5 C5_5 1_555 1_555
H2_5 C6_5 1_555 1_555
N1_5 C8_5 1_555 1_555
N2_5 H3_5 1_555 1_555
C7_5 C4_5 1_555 1_555
H4_5 C7_5 1_555 1_555
C8_5 N2_5 1_555 1_555
C9_5 C6_5 1_555 1_555
O7_5 C12_5 1_555 1_555
O8_5 C10_5 1_555 1_555
O9_5 C10_5 1_555 1_555
O10_5 C12_5 1_555 1_555
C10_5 C14_5 1_555 1_555
C11_5 H5_5 1_555 1_555
C12_5 C13_5 1_555 1_555
C13_5 C11_5 1_555 1_555
C14_5 C11_5 1_555 1_555
C15_5 C14_5 1_555 1_555
H6_5 C15_5 1_555 1_555
N3_5 C8_5 1_555 1_555
N4_5 H7_5 1_555 1_555
C16_5 C13_5 1_555 1_555
H8_5 C16_5 1_555 1_555
C17_5 N3_5 1_555 1_555
C18_5 C15_5 1_555 1_555
O11_5 C21_5 1_555 1_555
O12_5 C19_5 1_555 1_555
O13_5 C19_5 1_555 1_555
O14_5 C21_5 1_555 1_555
C19_5 C23_5 1_555 1_555
C20_5 H9_5 1_555 1_555
C21_5 C22_5 1_555 1_555
C22_5 C20_5 1_555 1_555
C23_5 C20_5 1_555 1_555
C24_5 C23_5 1_555 1_555
H10_5 C24_5 1_555 1_555
N5_5 C17_5 1_555 1_555
N6_5 H11_5 1_555 1_555
C25_5 C22_5 1_555 1_555
H12_5 C25_5 1_555 1_555
C26_5 N1_5 1_555 1_555
C27_5 C24_5 1_555 1_555
Tb2_5 O7_5 1_555 1_555
O15_5 Tb2_5 1_555 1_555
O16_5 Tb2_5 1_555 1_555
Tb3_6 O11_5 1_555 1_555
O17_6 Tb3_6 1_555 1_555
O18_6 Tb3_6 1_555 1_555
O19_13 C30_13 1_555 1_555
O20_13 C28_13 1_555 1_555
O21_13 C28_13 1_555 1_555
O22_13 C30_13 1_555 1_555
C28_13 C32_13 1_555 1_555
C29_13 H13_13 1_555 1_555
C30_13 C31_13 1_555 1_555
C31_13 C29_13 1_555 1_555
C32_13 C29_13 1_555 1_555
C33_13 C32_13 1_555 1_555
H14_13 C33_13 1_555 1_555
N7_13 C35_13 1_555 1_555
N8_13 H15_13 1_555 1_555
C34_13 C31_13 1_555 1_555
H16_13 C34_13 1_555 1_555
C35_13 N8_13 1_555 1_555
C36_13 C33_13 1_555 1_555
O23_13 C39_13 1_555 1_555
O24_13 C37_13 1_555 1_555
O25_13 C37_13 1_555 1_555
O26_13 C39_13 1_555 1_555
C37_13 C41_13 1_555 1_555
C38_13 H17_13 1_555 1_555
C39_13 C40_13 1_555 1_555
C40_13 C38_13 1_555 1_555
C41_13 C38_13 1_555 1_555
C42_13 C41_13 1_555 1_555
H18_13 C42_13 1_555 1_555
N9_13 C35_13 1_555 1_555
N10_13 H19_13 1_555 1_555
C43_13 C40_13 1_555 1_555
H20_13 C43_13 1_555 1_555
C44_13 N9_13 1_555 1_555
C45_13 C42_13 1_555 1_555
O27_13 C48_13 1_555 1_555
O28_5 Tb2_5 1_555 1_555
O29_5 Tb2_5 1_555 1_555
O30_13 C48_13 1_555 1_555
C46_13 O28_5 1_555 1_555
C47_13 H21_13 1_555 1_555
C48_13 C49_13 1_555 1_555
C49_13 C47_13 1_555 1_555
C50_13 C46_13 1_555 1_555
C51_13 C50_13 1_555 1_555
H22_13 C51_13 1_555 1_555
N11_13 C44_13 1_555 1_555
N12_13 H23_13 1_555 1_555
C52_13 C49_13 1_555 1_555
H24_13 C52_13 1_555 1_555
C53_13 N7_13 1_555 1_555
C54_13 C51_13 1_555 1_555
Tb7 O19_13 1_555 1_555
Tb9_23 O23_13 1_555 1_555
Tb6_5 O8_5 1_555 1_555
Tb4 O20_13 1_555 1_555
Tb8_5 O12_5 1_555 1_555
Tb5_12 O24_13 1_555 1_555
Tb10_6 O2_5 1_555 1_555
O34_5 Tb3_6 1_555 1_555
O35_5 Tb1_5 1_555 1_555
O39_5 Tb3_6 1_555 1_555
O40_5 Tb1_5 1_555 1_555
O4_5 Tb10_6 1_555 1_555
N2_5 C9_5 1_555 1_555
C7_5 C9_5 1_555 1_555
O9_5 Tb6_5 1_555 1_555
N4_5 C17_5 1_555 1_555
N4_5 C18_5 1_555 1_555
C16_5 C18_5 1_555 1_555
O13_5 Tb8_5 1_555 1_555
N5_5 C26_5 1_555 1_555
N6_5 C26_5 1_555 1_555
N6_5 C27_5 1_555 1_555
C25_5 C27_5 1_555 1_555
O21_13 Tb4 1_555 1_555
N8_13 C36_13 1_555 1_555
C34_13 C36_13 1_555 1_555
O25_13 Tb5_12 1_555 1_555
N10_13 C44_13 1_555 1_555
N10_13 C45_13 1_555 1_555
C43_13 C45_13 1_555 1_555
O27_13 Tb6_5 1_555 1_555
O29_5 C46_13 1_555 1_555
C47_13 C50_13 1_555 1_555
N11_13 C53_13 1_555 1_555
N12_13 C53_13 1_555 1_555
N12_13 C54_13 1_555 1_555
C52_13 C54_13 1_555 1_555
O3_5 H25 1_555 1_555
O15_5 H33 1_555 1_555
O17_6 H35 1_555 1_555
O15_6 Tb2_6 1_555 1_555
O16_6 Tb2_6 1_555 1_555
O32_5 Tb2_6 1_555 1_555
O36_5 Tb2_6 1_555 1_555
O41_5 Tb2_6 1_555 1_555
O16_6 H31 1_555 1_555
O16_6 H32 1_555 1_555
O15_6 H34 1_555 1_555
O3_6 Tb1_6 1_555 1_555
O6_6 Tb1_6 1_555 1_555
O31_5 Tb1_6 1_555 1_555
O38_5 Tb1_6 1_555 1_555
O43_5 Tb1_6 1_555 1_555
O3_6 H26 1_555 1_555
O6_6 H27 1_555 1_555
O6_6 H28 1_555 1_555
O3_7 Tb1_7 1_555 1_555
O6_7 Tb1_7 1_555 1_555
O31_6 Tb1_7 1_555 1_555
O38_6 Tb1_7 1_555 1_555
O43_6 Tb1_7 1_555 1_555
O3_7 H26_2 1_555 1_555
O6_7 H27_2 1_555 1_555
O6_7 H28_2 1_555 1_555
Tb1_8 O1_6 1_555 1_555
O1_6 C3_6 1_555 1_555
O2_6 C1_6 1_555 1_555
O3_8 Tb1_8 1_555 1_555
O4_6 C1_6 1_555 1_555
O5_6 C3_6 1_555 1_555
O6_8 Tb1_8 1_555 1_555
C1_6 C5_6 1_555 1_555
C2_6 H1_6 1_555 1_555
C3_6 C4_6 1_555 1_555
C4_6 C2_6 1_555 1_555
C5_6 C2_6 1_555 1_555
C6_6 C5_6 1_555 1_555
H2_6 C6_6 1_555 1_555
N1_6 C8_6 1_555 1_555
N2_6 H3_6 1_555 1_555
C7_6 C4_6 1_555 1_555
H4_6 C7_6 1_555 1_555
C8_6 N2_6 1_555 1_555
C9_6 C6_6 1_555 1_555
O7_6 C12_6 1_555 1_555
O8_6 C10_6 1_555 1_555
O9_6 C10_6 1_555 1_555
O10_6 C12_6 1_555 1_555
C10_6 C14_6 1_555 1_555
C11_6 H5_6 1_555 1_555
C12_6 C13_6 1_555 1_555
C13_6 C11_6 1_555 1_555
C14_6 C11_6 1_555 1_555
C15_6 C14_6 1_555 1_555
H6_6 C15_6 1_555 1_555
N3_6 C8_6 1_555 1_555
N4_6 H7_6 1_555 1_555
C16_6 C13_6 1_555 1_555
H8_6 C16_6 1_555 1_555
C17_6 N3_6 1_555 1_555
C18_6 C15_6 1_555 1_555
O11_6 C21_6 1_555 1_555
O12_6 C19_6 1_555 1_555
O13_6 C19_6 1_555 1_555
O14_6 C21_6 1_555 1_555
C19_6 C23_6 1_555 1_555
C20_6 H9_6 1_555 1_555
C21_6 C22_6 1_555 1_555
C22_6 C20_6 1_555 1_555
C23_6 C20_6 1_555 1_555
C24_6 C23_6 1_555 1_555
H10_6 C24_6 1_555 1_555
N5_6 C17_6 1_555 1_555
N6_6 H11_6 1_555 1_555
C25_6 C22_6 1_555 1_555
H12_6 C25_6 1_555 1_555
C26_6 N1_6 1_555 1_555
C27_6 C24_6 1_555 1_555
Tb2_7 O7_6 1_555 1_555
O15_7 Tb2_7 1_555 1_555
O16_7 Tb2_7 1_555 1_555
Tb3_7 O11_6 1_555 1_555
O17_7 Tb3_7 1_555 1_555
O18_7 Tb3_7 1_555 1_555
O19_14 C30_14 1_555 1_555
O20_14 C28_14 1_555 1_555
O21_14 C28_14 1_555 1_555
O22_14 C30_14 1_555 1_555
C28_14 C32_14 1_555 1_555
C29_14 H13_14 1_555 1_555
C30_14 C31_14 1_555 1_555
C31_14 C29_14 1_555 1_555
C32_14 C29_14 1_555 1_555
C33_14 C32_14 1_555 1_555
H14_14 C33_14 1_555 1_555
N7_14 C35_14 1_555 1_555
N8_14 H15_14 1_555 1_555
C34_14 C31_14 1_555 1_555
H16_14 C34_14 1_555 1_555
C35_14 N8_14 1_555 1_555
C36_14 C33_14 1_555 1_555
O23_14 C39_14 1_555 1_555
O24_14 C37_14 1_555 1_555
O25_14 C37_14 1_555 1_555
O26_14 C39_14 1_555 1_555
C37_14 C41_14 1_555 1_555
C38_14 H17_14 1_555 1_555
C39_14 C40_14 1_555 1_555
C40_14 C38_14 1_555 1_555
C41_14 C38_14 1_555 1_555
C42_14 C41_14 1_555 1_555
H18_14 C42_14 1_555 1_555
N9_14 C35_14 1_555 1_555
N10_14 H19_14 1_555 1_555
C43_14 C40_14 1_555 1_555
H20_14 C43_14 1_555 1_555
C44_14 N9_14 1_555 1_555
C45_14 C42_14 1_555 1_555
O27_14 C48_14 1_555 1_555
O28_6 Tb2_7 1_555 1_555
O29_6 Tb2_7 1_555 1_555
O30_14 C48_14 1_555 1_555
C46_14 O28_6 1_555 1_555
C47_14 H21_14 1_555 1_555
C48_14 C49_14 1_555 1_555
C49_14 C47_14 1_555 1_555
C50_14 C46_14 1_555 1_555
C51_14 C50_14 1_555 1_555
H22_14 C51_14 1_555 1_555
N11_14 C44_14 1_555 1_555
N12_14 H23_14 1_555 1_555
C52_14 C49_14 1_555 1_555
H24_14 C52_14 1_555 1_555
C53_14 N7_14 1_555 1_555
C54_14 C51_14 1_555 1_555
Tb7_2 O19_14 1_555 1_555
Tb9_17 O23_14 1_555 1_555
Tb6_8 O8_6 1_555 1_555
Tb4_4 O20_14 1_555 1_555
Tb8_7 O12_6 1_555 1_555
Tb5_9 O24_14 1_555 1_555
Tb10_7 O2_6 1_555 1_555
O34_6 Tb3_7 1_555 1_555
O35_6 Tb1_8 1_555 1_555
O39_6 Tb3_7 1_555 1_555
O40_6 Tb1_8 1_555 1_555
O4_6 Tb10_7 1_555 1_555
N2_6 C9_6 1_555 1_555
C7_6 C9_6 1_555 1_555
O9_6 Tb6_8 1_555 1_555
N4_6 C17_6 1_555 1_555
N4_6 C18_6 1_555 1_555
C16_6 C18_6 1_555 1_555
O13_6 Tb8_7 1_555 1_555
N5_6 C26_6 1_555 1_555
N6_6 C26_6 1_555 1_555
N6_6 C27_6 1_555 1_555
C25_6 C27_6 1_555 1_555
O21_14 Tb4_4 1_555 1_555
N8_14 C36_14 1_555 1_555
C34_14 C36_14 1_555 1_555
O25_14 Tb5_9 1_555 1_555
N10_14 C44_14 1_555 1_555
N10_14 C45_14 1_555 1_555
C43_14 C45_14 1_555 1_555
O27_14 Tb6_8 1_555 1_555
O29_6 C46_14 1_555 1_555
C47_14 C50_14 1_555 1_555
N11_14 C53_14 1_555 1_555
N12_14 C53_14 1_555 1_555
N12_14 C54_14 1_555 1_555
C52_14 C54_14 1_555 1_555
O3_8 H25_2 1_555 1_555
O15_7 H33_2 1_555 1_555
O17_7 H35_2 1_555 1_555
O15_8 Tb2_8 1_555 1_555
O16_8 Tb2_8 1_555 1_555
O32_6 Tb2_8 1_555 1_555
O36_6 Tb2_8 1_555 1_555
O41_6 Tb2_8 1_555 1_555
O16_8 H31_2 1_555 1_555
O16_8 H32_2 1_555 1_555
O15_8 H34_2 1_555 1_555
O17_8 Tb3_8 1_555 1_555
O18_8 Tb3_8 1_555 1_555
O33_6 Tb3_8 1_555 1_555
O37_6 Tb3_8 1_555 1_555
O42_6 Tb3_8 1_555 1_555
O18_8 H29_2 1_555 1_555
O18_8 H30_2 1_555 1_555
O17_8 H36_2 1_555 1_555
O15_9 Tb2_9 1_555 1_555
O16_9 Tb2_9 1_555 1_555
O32_7 Tb2_9 1_555 1_555
O36_7 Tb2_9 1_555 1_555
O41_7 Tb2_9 1_555 1_555
O16_9 H31_3 1_555 1_555
O16_9 H32_3 1_555 1_555
O15_9 H34_3 1_555 1_555
Tb1_9 O1_7 1_555 1_555
O1_7 C3_7 1_555 1_555
O2_7 C1_7 1_555 1_555
O3_9 Tb1_9 1_555 1_555
O4_7 C1_7 1_555 1_555
O5_7 C3_7 1_555 1_555
O6_9 Tb1_9 1_555 1_555
C1_7 C5_7 1_555 1_555
C2_7 H1_7 1_555 1_555
C3_7 C4_7 1_555 1_555
C4_7 C2_7 1_555 1_555
C5_7 C2_7 1_555 1_555
C6_7 C5_7 1_555 1_555
H2_7 C6_7 1_555 1_555
N1_7 C8_7 1_555 1_555
N2_7 H3_7 1_555 1_555
C7_7 C4_7 1_555 1_555
H4_7 C7_7 1_555 1_555
C8_7 N2_7 1_555 1_555
C9_7 C6_7 1_555 1_555
O7_7 C12_7 1_555 1_555
O8_7 C10_7 1_555 1_555
O9_7 C10_7 1_555 1_555
O10_7 C12_7 1_555 1_555
C10_7 C14_7 1_555 1_555
C11_7 H5_7 1_555 1_555
C12_7 C13_7 1_555 1_555
C13_7 C11_7 1_555 1_555
C14_7 C11_7 1_555 1_555
C15_7 C14_7 1_555 1_555
H6_7 C15_7 1_555 1_555
N3_7 C8_7 1_555 1_555
N4_7 H7_7 1_555 1_555
C16_7 C13_7 1_555 1_555
H8_7 C16_7 1_555 1_555
C17_7 N3_7 1_555 1_555
C18_7 C15_7 1_555 1_555
O11_7 C21_7 1_555 1_555
O12_7 C19_7 1_555 1_555
O13_7 C19_7 1_555 1_555
O14_7 C21_7 1_555 1_555
C19_7 C23_7 1_555 1_555
C20_7 H9_7 1_555 1_555
C21_7 C22_7 1_555 1_555
C22_7 C20_7 1_555 1_555
C23_7 C20_7 1_555 1_555
C24_7 C23_7 1_555 1_555
H10_7 C24_7 1_555 1_555
N5_7 C17_7 1_555 1_555
N6_7 H11_7 1_555 1_555
C25_7 C22_7 1_555 1_555
H12_7 C25_7 1_555 1_555
C26_7 N1_7 1_555 1_555
C27_7 C24_7 1_555 1_555
Tb2_10 O7_7 1_555 1_555
O15_10 Tb2_10 1_555 1_555
O16_10 Tb2_10 1_555 1_555
Tb3_9 O11_7 1_555 1_555
O17_9 Tb3_9 1_555 1_555
O18_9 Tb3_9 1_555 1_555
O19_15 C30_15 1_555 1_555
O20_15 C28_15 1_555 1_555
O21_15 C28_15 1_555 1_555
O22_15 C30_15 1_555 1_555
C28_15 C32_15 1_555 1_555
C29_15 H13_15 1_555 1_555
C30_15 C31_15 1_555 1_555
C31_15 C29_15 1_555 1_555
C32_15 C29_15 1_555 1_555
C33_15 C32_15 1_555 1_555
H14_15 C33_15 1_555 1_555
N7_15 C35_15 1_555 1_555
N8_15 H15_15 1_555 1_555
C34_15 C31_15 1_555 1_555
H16_15 C34_15 1_555 1_555
C35_15 N8_15 1_555 1_555
C36_15 C33_15 1_555 1_555
O23_15 C39_15 1_555 1_555
O24_15 C37_15 1_555 1_555
O25_15 C37_15 1_555 1_555
O26_15 C39_15 1_555 1_555
C37_15 C41_15 1_555 1_555
C38_15 H17_15 1_555 1_555
C39_15 C40_15 1_555 1_555
C40_15 C38_15 1_555 1_555
C41_15 C38_15 1_555 1_555
C42_15 C41_15 1_555 1_555
H18_15 C42_15 1_555 1_555
N9_15 C35_15 1_555 1_555
N10_15 H19_15 1_555 1_555
C43_15 C40_15 1_555 1_555
H20_15 C43_15 1_555 1_555
C44_15 N9_15 1_555 1_555
C45_15 C42_15 1_555 1_555
O27_15 C48_15 1_555 1_555
O28_7 Tb2_10 1_555 1_555
O29_7 Tb2_10 1_555 1_555
O30_15 C48_15 1_555 1_555
C46_15 O28_7 1_555 1_555
C47_15 H21_15 1_555 1_555
C48_15 C49_15 1_555 1_555
C49_15 C47_15 1_555 1_555
C50_15 C46_15 1_555 1_555
C51_15 C50_15 1_555 1_555
H22_15 C51_15 1_555 1_555
N11_15 C44_15 1_555 1_555
N12_15 H23_15 1_555 1_555
C52_15 C49_15 1_555 1_555
H24_15 C52_15 1_555 1_555
C53_15 N7_15 1_555 1_555
C54_15 C51_15 1_555 1_555
Tb7_4 O19_15 1_555 1_555
Tb9_20 O23_15 1_555 1_555
Tb6_9 O8_7 1_555 1_555
Tb4_7 O20_15 1_555 1_555
Tb8_10 O12_7 1_555 1_555
Tb5_10 O24_15 1_555 1_555
Tb10_9 O2_7 1_555 1_555
O34_7 Tb3_9 1_555 1_555
O35_7 Tb1_9 1_555 1_555
O39_7 Tb3_9 1_555 1_555
O40_7 Tb1_9 1_555 1_555
O4_7 Tb10_9 1_555 1_555
N2_7 C9_7 1_555 1_555
C7_7 C9_7 1_555 1_555
O9_7 Tb6_9 1_555 1_555
N4_7 C17_7 1_555 1_555
N4_7 C18_7 1_555 1_555
C16_7 C18_7 1_555 1_555
O13_7 Tb8_10 1_555 1_555
N5_7 C26_7 1_555 1_555
N6_7 C26_7 1_555 1_555
N6_7 C27_7 1_555 1_555
C25_7 C27_7 1_555 1_555
O21_15 Tb4_7 1_555 1_555
N8_15 C36_15 1_555 1_555
C34_15 C36_15 1_555 1_555
O25_15 Tb5_10 1_555 1_555
N10_15 C44_15 1_555 1_555
N10_15 C45_15 1_555 1_555
C43_15 C45_15 1_555 1_555
O27_15 Tb6_9 1_555 1_555
O29_7 C46_15 1_555 1_555
C47_15 C50_15 1_555 1_555
N11_15 C53_15 1_555 1_555
N12_15 C53_15 1_555 1_555
N12_15 C54_15 1_555 1_555
C52_15 C54_15 1_555 1_555
O3_9 H25_3 1_555 1_555
O15_10 H33_3 1_555 1_555
O17_9 H35_3 1_555 1_555
O17_10 Tb3_10 1_555 1_555
O18_10 Tb3_10 1_555 1_555
O33_7 Tb3_10 1_555 1_555
O37_7 Tb3_10 1_555 1_555
O42_7 Tb3_10 1_555 1_555
O18_10 H29_3 1_555 1_555
O18_10 H30_3 1_555 1_555
O17_10 H36_3 1_555 1_555
O3_10 Tb1_10 1_555 1_555
O6_10 Tb1_10 1_555 1_555
O31_7 Tb1_10 1_555 1_555
O38_7 Tb1_10 1_555 1_555
O43_7 Tb1_10 1_555 1_555
O3_10 H26_3 1_555 1_555
O6_10 H27_3 1_555 1_555
O6_10 H28_3 1_555 1_555
O3_11 Tb1_11 1_555 1_555
O6_11 Tb1_11 1_555 1_555
O31_8 Tb1_11 1_555 1_555
O38_8 Tb1_11 1_555 1_555
O43_8 Tb1_11 1_555 1_555
O3_11 H26_4 1_555 1_555
O6_11 H27_4 1_555 1_555
O6_11 H28_4 1_555 1_555
O17_11 Tb3_11 1_555 1_555
O18_11 Tb3_11 1_555 1_555
O33_8 Tb3_11 1_555 1_555
O37_8 Tb3_11 1_555 1_555
O42_8 Tb3_11 1_555 1_555
O18_11 H29_4 1_555 1_555
O18_11 H30_4 1_555 1_555
O17_11 H36_4 1_555 1_555
O15_11 Tb2_11 1_555 1_555
O16_11 Tb2_11 1_555 1_555
O32_8 Tb2_11 1_555 1_555
O36_8 Tb2_11 1_555 1_555
O41_8 Tb2_11 1_555 1_555
O16_11 H31_4 1_555 1_555
O16_11 H32_4 1_555 1_555
O15_11 H34_4 1_555 1_555
Tb1_12 O1_8 1_555 1_555
O1_8 C3_8 1_555 1_555
O2_8 C1_8 1_555 1_555
O3_12 Tb1_12 1_555 1_555
O4_8 C1_8 1_555 1_555
O5_8 C3_8 1_555 1_555
O6_12 Tb1_12 1_555 1_555
C1_8 C5_8 1_555 1_555
C2_8 H1_8 1_555 1_555
C3_8 C4_8 1_555 1_555
C4_8 C2_8 1_555 1_555
C5_8 C2_8 1_555 1_555
C6_8 C5_8 1_555 1_555
H2_8 C6_8 1_555 1_555
N1_8 C8_8 1_555 1_555
N2_8 H3_8 1_555 1_555
C7_8 C4_8 1_555 1_555
H4_8 C7_8 1_555 1_555
C8_8 N2_8 1_555 1_555
C9_8 C6_8 1_555 1_555
O7_8 C12_8 1_555 1_555
O8_8 C10_8 1_555 1_555
O9_8 C10_8 1_555 1_555
O10_8 C12_8 1_555 1_555
C10_8 C14_8 1_555 1_555
C11_8 H5_8 1_555 1_555
C12_8 C13_8 1_555 1_555
C13_8 C11_8 1_555 1_555
C14_8 C11_8 1_555 1_555
C15_8 C14_8 1_555 1_555
H6_8 C15_8 1_555 1_555
N3_8 C8_8 1_555 1_555
N4_8 H7_8 1_555 1_555
C16_8 C13_8 1_555 1_555
H8_8 C16_8 1_555 1_555
C17_8 N3_8 1_555 1_555
C18_8 C15_8 1_555 1_555
O11_8 C21_8 1_555 1_555
O12_8 C19_8 1_555 1_555
O13_8 C19_8 1_555 1_555
O14_8 C21_8 1_555 1_555
C19_8 C23_8 1_555 1_555
C20_8 H9_8 1_555 1_555
C21_8 C22_8 1_555 1_555
C22_8 C20_8 1_555 1_555
C23_8 C20_8 1_555 1_555
C24_8 C23_8 1_555 1_555
H10_8 C24_8 1_555 1_555
N5_8 C17_8 1_555 1_555
N6_8 H11_8 1_555 1_555
C25_8 C22_8 1_555 1_555
H12_8 C25_8 1_555 1_555
C26_8 N1_8 1_555 1_555
C27_8 C24_8 1_555 1_555
Tb2_12 O7_8 1_555 1_555
O15_12 Tb2_12 1_555 1_555
O16_12 Tb2_12 1_555 1_555
Tb3_12 O11_8 1_555 1_555
O17_12 Tb3_12 1_555 1_555
O18_12 Tb3_12 1_555 1_555
O19_16 C30_16 1_555 1_555
O20_16 C28_16 1_555 1_555
O21_16 C28_16 1_555 1_555
O22_16 C30_16 1_555 1_555
C28_16 C32_16 1_555 1_555
C29_16 H13_16 1_555 1_555
C30_16 C31_16 1_555 1_555
C31_16 C29_16 1_555 1_555
C32_16 C29_16 1_555 1_555
C33_16 C32_16 1_555 1_555
H14_16 C33_16 1_555 1_555
N7_16 C35_16 1_555 1_555
N8_16 H15_16 1_555 1_555
C34_16 C31_16 1_555 1_555
H16_16 C34_16 1_555 1_555
C35_16 N8_16 1_555 1_555
C36_16 C33_16 1_555 1_555
O23_16 C39_16 1_555 1_555
O24_16 C37_16 1_555 1_555
O25_16 C37_16 1_555 1_555
O26_16 C39_16 1_555 1_555
C37_16 C41_16 1_555 1_555
C38_16 H17_16 1_555 1_555
C39_16 C40_16 1_555 1_555
C40_16 C38_16 1_555 1_555
C41_16 C38_16 1_555 1_555
C42_16 C41_16 1_555 1_555
H18_16 C42_16 1_555 1_555
N9_16 C35_16 1_555 1_555
N10_16 H19_16 1_555 1_555
C43_16 C40_16 1_555 1_555
H20_16 C43_16 1_555 1_555
C44_16 N9_16 1_555 1_555
C45_16 C42_16 1_555 1_555
O27_16 C48_16 1_555 1_555
O28_8 Tb2_12 1_555 1_555
O29_8 Tb2_12 1_555 1_555
O30_16 C48_16 1_555 1_555
C46_16 O28_8 1_555 1_555
C47_16 H21_16 1_555 1_555
C48_16 C49_16 1_555 1_555
C49_16 C47_16 1_555 1_555
C50_16 C46_16 1_555 1_555
C51_16 C50_16 1_555 1_555
H22_16 C51_16 1_555 1_555
N11_16 C44_16 1_555 1_555
N12_16 H23_16 1_555 1_555
C52_16 C49_16 1_555 1_555
H24_16 C52_16 1_555 1_555
C53_16 N7_16 1_555 1_555
C54_16 C51_16 1_555 1_555
Tb7_3 O19_16 1_555 1_555
Tb9_22 O23_16 1_555 1_555
Tb6_12 O8_8 1_555 1_555
Tb4_6 O20_16 1_555 1_555
Tb8_12 O12_8 1_555 1_555
Tb5_11 O24_16 1_555 1_555
Tb10_12 O2_8 1_555 1_555
O34_8 Tb3_12 1_555 1_555
O35_8 Tb1_12 1_555 1_555
O39_8 Tb3_12 1_555 1_555
O40_8 Tb1_12 1_555 1_555
O4_8 Tb10_12 1_555 1_555
N2_8 C9_8 1_555 1_555
C7_8 C9_8 1_555 1_555
O9_8 Tb6_12 1_555 1_555
N4_8 C17_8 1_555 1_555
N4_8 C18_8 1_555 1_555
C16_8 C18_8 1_555 1_555
O13_8 Tb8_12 1_555 1_555
N5_8 C26_8 1_555 1_555
N6_8 C26_8 1_555 1_555
N6_8 C27_8 1_555 1_555
C25_8 C27_8 1_555 1_555
O21_16 Tb4_6 1_555 1_555
N8_16 C36_16 1_555 1_555
C34_16 C36_16 1_555 1_555
O25_16 Tb5_11 1_555 1_555
N10_16 C44_16 1_555 1_555
N10_16 C45_16 1_555 1_555
C43_16 C45_16 1_555 1_555
O27_16 Tb6_12 1_555 1_555
O29_8 C46_16 1_555 1_555
C47_16 C50_16 1_555 1_555
N11_16 C53_16 1_555 1_555
N12_16 C53_16 1_555 1_555
N12_16 C54_16 1_555 1_555
C52_16 C54_16 1_555 1_555
O3_12 H25_4 1_555 1_555
O15_12 H33_4 1_555 1_555
O17_12 H35_4 1_555 1_555
O19_17 C30_17 1_555 1_555
O20_17 C28_17 1_555 1_555
O21_17 C28_17 1_555 1_555
O22_17 C30_17 1_555 1_555
C28_17 C32_17 1_555 1_555
C29_17 H13_17 1_555 1_555
C30_17 C31_17 1_555 1_555
C31_17 C29_17 1_555 1_555
C32_17 C29_17 1_555 1_555
C33_17 C32_17 1_555 1_555
H14_17 C33_17 1_555 1_555
N7_17 C35_17 1_555 1_555
N8_17 H15_17 1_555 1_555
C34_17 C31_17 1_555 1_555
H16_17 C34_17 1_555 1_555
C35_17 N8_17 1_555 1_555
C36_17 C33_17 1_555 1_555
O23_17 C39_17 1_555 1_555
O24_17 C37_17 1_555 1_555
O25_17 C37_17 1_555 1_555
O26_17 C39_17 1_555 1_555
C37_17 C41_17 1_555 1_555
C38_17 H17_17 1_555 1_555
C39_17 C40_17 1_555 1_555
C40_17 C38_17 1_555 1_555
C41_17 C38_17 1_555 1_555
C42_17 C41_17 1_555 1_555
H18_17 C42_17 1_555 1_555
N9_17 C35_17 1_555 1_555
N10_17 H19_17 1_555 1_555
C43_17 C40_17 1_555 1_555
H20_17 C43_17 1_555 1_555
C44_17 N9_17 1_555 1_555
C45_17 C42_17 1_555 1_555
O27_17 C48_17 1_555 1_555
O30_17 C48_17 1_555 1_555
C46_17 O34_8 1_555 1_555
C47_17 H21_17 1_555 1_555
C48_17 C49_17 1_555 1_555
C49_17 C47_17 1_555 1_555
C50_17 C46_17 1_555 1_555
C51_17 C50_17 1_555 1_555
H22_17 C51_17 1_555 1_555
N11_17 C44_17 1_555 1_555
N12_17 H23_17 1_555 1_555
C52_17 C49_17 1_555 1_555
H24_17 C52_17 1_555 1_555
C53_17 N7_17 1_555 1_555
C54_17 C51_17 1_555 1_555
Tb7_11 O19_17 1_555 1_555
Tb9_14 O23_17 1_555 1_555
Tb4_22 O20_17 1_555 1_555
Tb5_7 O24_17 1_555 1_555
O21_17 Tb4_22 1_555 1_555
N8_17 C36_17 1_555 1_555
C34_17 C36_17 1_555 1_555
O25_17 Tb5_7 1_555 1_555
N10_17 C44_17 1_555 1_555
N10_17 C45_17 1_555 1_555
C43_17 C45_17 1_555 1_555
O27_17 Tb8_12 1_555 1_555
O39_8 C46_17 1_555 1_555
C47_17 C50_17 1_555 1_555
N11_17 C53_17 1_555 1_555
N12_17 C53_17 1_555 1_555
N12_17 C54_17 1_555 1_555
C52_17 C54_17 1_555 1_555
O19_18 C30_18 1_555 1_555
O20_18 C28_18 1_555 1_555
O21_18 C28_18 1_555 1_555
O22_18 C30_18 1_555 1_555
C28_18 C32_18 1_555 1_555
C29_18 H13_18 1_555 1_555
C30_18 C31_18 1_555 1_555
C31_18 C29_18 1_555 1_555
C32_18 C29_18 1_555 1_555
C33_18 C32_18 1_555 1_555
H14_18 C33_18 1_555 1_555
N7_18 C35_18 1_555 1_555
N8_18 H15_18 1_555 1_555
C34_18 C31_18 1_555 1_555
H16_18 C34_18 1_555 1_555
C35_18 N8_18 1_555 1_555
C36_18 C33_18 1_555 1_555
O23_18 C39_18 1_555 1_555
O24_18 C37_18 1_555 1_555
O25_18 C37_18 1_555 1_555
O26_18 C39_18 1_555 1_555
C37_18 C41_18 1_555 1_555
C38_18 H17_18 1_555 1_555
C39_18 C40_18 1_555 1_555
C40_18 C38_18 1_555 1_555
C41_18 C38_18 1_555 1_555
C42_18 C41_18 1_555 1_555
H18_18 C42_18 1_555 1_555
N9_18 C35_18 1_555 1_555
N10_18 H19_18 1_555 1_555
C43_18 C40_18 1_555 1_555
H20_18 C43_18 1_555 1_555
C44_18 N9_18 1_555 1_555
C45_18 C42_18 1_555 1_555
O27_18 C48_18 1_555 1_555
O30_18 C48_18 1_555 1_555
C46_18 O34_5 1_555 1_555
C47_18 H21_18 1_555 1_555
C48_18 C49_18 1_555 1_555
C49_18 C47_18 1_555 1_555
C50_18 C46_18 1_555 1_555
C51_18 C50_18 1_555 1_555
H22_18 C51_18 1_555 1_555
N11_18 C44_18 1_555 1_555
N12_18 H23_18 1_555 1_555
C52_18 C49_18 1_555 1_555
H24_18 C52_18 1_555 1_555
C53_18 N7_18 1_555 1_555
C54_18 C51_18 1_555 1_555
Tb7_12 O19_18 1_555 1_555
Tb9_12 O23_18 1_555 1_555
Tb4_23 O20_18 1_555 1_555
Tb5_6 O24_18 1_555 1_555
O21_18 Tb4_23 1_555 1_555
N8_18 C36_18 1_555 1_555
C34_18 C36_18 1_555 1_555
O25_18 Tb5_6 1_555 1_555
N10_18 C44_18 1_555 1_555
N10_18 C45_18 1_555 1_555
C43_18 C45_18 1_555 1_555
O27_18 Tb8_5 1_555 1_555
O39_5 C46_18 1_555 1_555
C47_18 C50_18 1_555 1_555
N11_18 C53_18 1_555 1_555
N12_18 C53_18 1_555 1_555
N12_18 C54_18 1_555 1_555
C52_18 C54_18 1_555 1_555
O19_19 C30_19 1_555 1_555
O20_19 C28_19 1_555 1_555
O21_19 C28_19 1_555 1_555
O22_19 C30_19 1_555 1_555
C28_19 C32_19 1_555 1_555
C29_19 H13_19 1_555 1_555
C30_19 C31_19 1_555 1_555
C31_19 C29_19 1_555 1_555
C32_19 C29_19 1_555 1_555
C33_19 C32_19 1_555 1_555
H14_19 C33_19 1_555 1_555
N7_19 C35_19 1_555 1_555
N8_19 H15_19 1_555 1_555
C34_19 C31_19 1_555 1_555
H16_19 C34_19 1_555 1_555
C35_19 N8_19 1_555 1_555
C36_19 C33_19 1_555 1_555
O23_19 C39_19 1_555 1_555
O24_19 C37_19 1_555 1_555
O25_19 C37_19 1_555 1_555
O26_19 C39_19 1_555 1_555
C37_19 C41_19 1_555 1_555
C38_19 H17_19 1_555 1_555
C39_19 C40_19 1_555 1_555
C40_19 C38_19 1_555 1_555
C41_19 C38_19 1_555 1_555
C42_19 C41_19 1_555 1_555
H18_19 C42_19 1_555 1_555
N9_19 C35_19 1_555 1_555
N10_19 H19_19 1_555 1_555
C43_19 C40_19 1_555 1_555
H20_19 C43_19 1_555 1_555
C44_19 N9_19 1_555 1_555
C45_19 C42_19 1_555 1_555
O27_19 C48_19 1_555 1_555
O30_19 C48_19 1_555 1_555
C46_19 O34_7 1_555 1_555
C47_19 H21_19 1_555 1_555
C48_19 C49_19 1_555 1_555
C49_19 C47_19 1_555 1_555
C50_19 C46_19 1_555 1_555
C51_19 C50_19 1_555 1_555
H22_19 C51_19 1_555 1_555
N11_19 C44_19 1_555 1_555
N12_19 H23_19 1_555 1_555
C52_19 C49_19 1_555 1_555
H24_19 C52_19 1_555 1_555
C53_19 N7_19 1_555 1_555
C54_19 C51_19 1_555 1_555
Tb7_10 O19_19 1_555 1_555
Tb9_9 O23_19 1_555 1_555
Tb4_20 O20_19 1_555 1_555
Tb5_5 O24_19 1_555 1_555
O21_19 Tb4_20 1_555 1_555
N8_19 C36_19 1_555 1_555
C34_19 C36_19 1_555 1_555
O25_19 Tb5_5 1_555 1_555
N10_19 C44_19 1_555 1_555
N10_19 C45_19 1_555 1_555
C43_19 C45_19 1_555 1_555
O27_19 Tb8_10 1_555 1_555
O39_7 C46_19 1_555 1_555
C47_19 C50_19 1_555 1_555
N11_19 C53_19 1_555 1_555
N12_19 C53_19 1_555 1_555
N12_19 C54_19 1_555 1_555
C52_19 C54_19 1_555 1_555
O19_20 C30_20 1_555 1_555
O20_20 C28_20 1_555 1_555
O21_20 C28_20 1_555 1_555
O22_20 C30_20 1_555 1_555
C28_20 C32_20 1_555 1_555
C29_20 H13_20 1_555 1_555
C30_20 C31_20 1_555 1_555
C31_20 C29_20 1_555 1_555
C32_20 C29_20 1_555 1_555
C33_20 C32_20 1_555 1_555
H14_20 C33_20 1_555 1_555
N7_20 C35_20 1_555 1_555
N8_20 H15_20 1_555 1_555
C34_20 C31_20 1_555 1_555
H16_20 C34_20 1_555 1_555
C35_20 N8_20 1_555 1_555
C36_20 C33_20 1_555 1_555
O23_20 C39_20 1_555 1_555
O24_20 C37_20 1_555 1_555
O25_20 C37_20 1_555 1_555
O26_20 C39_20 1_555 1_555
C37_20 C41_20 1_555 1_555
C38_20 H17_20 1_555 1_555
C39_20 C40_20 1_555 1_555
C40_20 C38_20 1_555 1_555
C41_20 C38_20 1_555 1_555
C42_20 C41_20 1_555 1_555
H18_20 C42_20 1_555 1_555
N9_20 C35_20 1_555 1_555
N10_20 H19_20 1_555 1_555
C43_20 C40_20 1_555 1_555
H20_20 C43_20 1_555 1_555
C44_20 N9_20 1_555 1_555
C45_20 C42_20 1_555 1_555
O27_20 C48_20 1_555 1_555
O30_20 C48_20 1_555 1_555
C46_20 O34_6 1_555 1_555
C47_20 H21_20 1_555 1_555
C48_20 C49_20 1_555 1_555
C49_20 C47_20 1_555 1_555
C50_20 C46_20 1_555 1_555
C51_20 C50_20 1_555 1_555
H22_20 C51_20 1_555 1_555
N11_20 C44_20 1_555 1_555
N12_20 H23_20 1_555 1_555
C52_20 C49_20 1_555 1_555
H24_20 C52_20 1_555 1_555
C53_20 N7_20 1_555 1_555
C54_20 C51_20 1_555 1_555
Tb7_9 O19_20 1_555 1_555
Tb9_15 O23_20 1_555 1_555
Tb4_17 O20_20 1_555 1_555
Tb5_8 O24_20 1_555 1_555
O21_20 Tb4_17 1_555 1_555
N8_20 C36_20 1_555 1_555
C34_20 C36_20 1_555 1_555
O25_20 Tb5_8 1_555 1_555
N10_20 C44_20 1_555 1_555
N10_20 C45_20 1_555 1_555
C43_20 C45_20 1_555 1_555
O27_20 Tb8_7 1_555 1_555
O39_6 C46_20 1_555 1_555
C47_20 C50_20 1_555 1_555
N11_20 C53_20 1_555 1_555
N12_20 C53_20 1_555 1_555
N12_20 C54_20 1_555 1_555
C52_20 C54_20 1_555 1_555
O19_21 C30_21 1_555 1_555
O20_21 C28_21 1_555 1_555
O21_21 C28_21 1_555 1_555
O22_21 C30_21 1_555 1_555
C28_21 C32_21 1_555 1_555
C29_21 H13_21 1_555 1_555
C30_21 C31_21 1_555 1_555
C31_21 C29_21 1_555 1_555
C32_21 C29_21 1_555 1_555
C33_21 C32_21 1_555 1_555
H14_21 C33_21 1_555 1_555
N7_21 C35_21 1_555 1_555
N8_21 H15_21 1_555 1_555
C34_21 C31_21 1_555 1_555
H16_21 C34_21 1_555 1_555
C35_21 N8_21 1_555 1_555
C36_21 C33_21 1_555 1_555
O23_21 C39_21 1_555 1_555
O24_21 C37_21 1_555 1_555
O25_21 C37_21 1_555 1_555
O26_21 C39_21 1_555 1_555
C37_21 C41_21 1_555 1_555
C38_21 H17_21 1_555 1_555
C39_21 C40_21 1_555 1_555
C40_21 C38_21 1_555 1_555
C41_21 C38_21 1_555 1_555
C42_21 C41_21 1_555 1_555
H18_21 C42_21 1_555 1_555
N9_21 C35_21 1_555 1_555
N10_21 H19_21 1_555 1_555
C43_21 C40_21 1_555 1_555
H20_21 C43_21 1_555 1_555
C44_21 N9_21 1_555 1_555
C45_21 C42_21 1_555 1_555
O27_21 C48_21 1_555 1_555
O30_21 C48_21 1_555 1_555
C46_21 O35_6 1_555 1_555
C47_21 H21_21 1_555 1_555
C48_21 C49_21 1_555 1_555
C49_21 C47_21 1_555 1_555
C50_21 C46_21 1_555 1_555
C51_21 C50_21 1_555 1_555
H22_21 C51_21 1_555 1_555
N11_21 C44_21 1_555 1_555
N12_21 H23_21 1_555 1_555
C52_21 C49_21 1_555 1_555
H24_21 C52_21 1_555 1_555
C53_21 N7_21 1_555 1_555
C54_21 C51_21 1_555 1_555
Tb7_8 O19_21 1_555 1_555
Tb9_4 O23_21 1_555 1_555
Tb4_15 O20_21 1_555 1_555
Tb5_2 O24_21 1_555 1_555
O21_21 Tb4_15 1_555 1_555
N8_21 C36_21 1_555 1_555
C34_21 C36_21 1_555 1_555
O25_21 Tb5_2 1_555 1_555
N10_21 C44_21 1_555 1_555
N10_21 C45_21 1_555 1_555
C43_21 C45_21 1_555 1_555
O27_21 Tb10_7 1_555 1_555
O40_6 C46_21 1_555 1_555
C47_21 C50_21 1_555 1_555
N11_21 C53_21 1_555 1_555
N12_21 C53_21 1_555 1_555
N12_21 C54_21 1_555 1_555
C52_21 C54_21 1_555 1_555
O19_22 C30_22 1_555 1_555
O20_22 C28_22 1_555 1_555
O21_22 C28_22 1_555 1_555
O22_22 C30_22 1_555 1_555
C28_22 C32_22 1_555 1_555
C29_22 H13_22 1_555 1_555
C30_22 C31_22 1_555 1_555
C31_22 C29_22 1_555 1_555
C32_22 C29_22 1_555 1_555
C33_22 C32_22 1_555 1_555
H14_22 C33_22 1_555 1_555
N7_22 C35_22 1_555 1_555
N8_22 H15_22 1_555 1_555
C34_22 C31_22 1_555 1_555
H16_22 C34_22 1_555 1_555
C35_22 N8_22 1_555 1_555
C36_22 C33_22 1_555 1_555
O23_22 C39_22 1_555 1_555
O24_22 C37_22 1_555 1_555
O25_22 C37_22 1_555 1_555
O26_22 C39_22 1_555 1_555
C37_22 C41_22 1_555 1_555
C38_22 H17_22 1_555 1_555
C39_22 C40_22 1_555 1_555
C40_22 C38_22 1_555 1_555
C41_22 C38_22 1_555 1_555
C42_22 C41_22 1_555 1_555
H18_22 C42_22 1_555 1_555
N9_22 C35_22 1_555 1_555
N10_22 H19_22 1_555 1_555
C43_22 C40_22 1_555 1_555
H20_22 C43_22 1_555 1_555
C44_22 N9_22 1_555 1_555
C45_22 C42_22 1_555 1_555
O27_22 C48_22 1_555 1_555
O30_22 C48_22 1_555 1_555
C46_22 O35_8 1_555 1_555
C47_22 H21_22 1_555 1_555
C48_22 C49_22 1_555 1_555
C49_22 C47_22 1_555 1_555
C50_22 C46_22 1_555 1_555
C51_22 C50_22 1_555 1_555
H22_22 C51_22 1_555 1_555
N11_22 C44_22 1_555 1_555
N12_22 H23_22 1_555 1_555
C52_22 C49_22 1_555 1_555
H24_22 C52_22 1_555 1_555
C53_22 N7_22 1_555 1_555
C54_22 C51_22 1_555 1_555
Tb7_7 O19_22 1_555 1_555
Tb9_6 O23_22 1_555 1_555
Tb4_14 O20_22 1_555 1_555
Tb5_3 O24_22 1_555 1_555
O21_22 Tb4_14 1_555 1_555
N8_22 C36_22 1_555 1_555
C34_22 C36_22 1_555 1_555
O25_22 Tb5_3 1_555 1_555
N10_22 C44_22 1_555 1_555
N10_22 C45_22 1_555 1_555
C43_22 C45_22 1_555 1_555
O27_22 Tb10_12 1_555 1_555
O40_8 C46_22 1_555 1_555
C47_22 C50_22 1_555 1_555
N11_22 C53_22 1_555 1_555
N12_22 C53_22 1_555 1_555
N12_22 C54_22 1_555 1_555
C52_22 C54_22 1_555 1_555
O19_23 C30_23 1_555 1_555
O20_23 C28_23 1_555 1_555
O21_23 C28_23 1_555 1_555
O22_23 C30_23 1_555 1_555
C28_23 C32_23 1_555 1_555
C29_23 H13_23 1_555 1_555
C30_23 C31_23 1_555 1_555
C31_23 C29_23 1_555 1_555
C32_23 C29_23 1_555 1_555
C33_23 C32_23 1_555 1_555
H14_23 C33_23 1_555 1_555
N7_23 C35_23 1_555 1_555
N8_23 H15_23 1_555 1_555
C34_23 C31_23 1_555 1_555
H16_23 C34_23 1_555 1_555
C35_23 N8_23 1_555 1_555
C36_23 C33_23 1_555 1_555
O23_23 C39_23 1_555 1_555
O24_23 C37_23 1_555 1_555
O25_23 C37_23 1_555 1_555
O26_23 C39_23 1_555 1_555
C37_23 C41_23 1_555 1_555
C38_23 H17_23 1_555 1_555
C39_23 C40_23 1_555 1_555
C40_23 C38_23 1_555 1_555
C41_23 C38_23 1_555 1_555
C42_23 C41_23 1_555 1_555
H18_23 C42_23 1_555 1_555
N9_23 C35_23 1_555 1_555
N10_23 H19_23 1_555 1_555
C43_23 C40_23 1_555 1_555
H20_23 C43_23 1_555 1_555
C44_23 N9_23 1_555 1_555
C45_23 C42_23 1_555 1_555
O27_23 C48_23 1_555 1_555
O30_23 C48_23 1_555 1_555
C46_23 O35_7 1_555 1_555
C47_23 H21_23 1_555 1_555
C48_23 C49_23 1_555 1_555
C49_23 C47_23 1_555 1_555
C50_23 C46_23 1_555 1_555
C51_23 C50_23 1_555 1_555
H22_23 C51_23 1_555 1_555
N11_23 C44_23 1_555 1_555
N12_23 H23_23 1_555 1_555
C52_23 C49_23 1_555 1_555
H24_23 C52_23 1_555 1_555
C53_23 N7_23 1_555 1_555
C54_23 C51_23 1_555 1_555
Tb7_5 O19_23 1_555 1_555
Tb9_7 O23_23 1_555 1_555
Tb4_9 O20_23 1_555 1_555
Tb5_4 O24_23 1_555 1_555
O21_23 Tb4_9 1_555 1_555
N8_23 C36_23 1_555 1_555
C34_23 C36_23 1_555 1_555
O25_23 Tb5_4 1_555 1_555
N10_23 C44_23 1_555 1_555
N10_23 C45_23 1_555 1_555
C43_23 C45_23 1_555 1_555
O27_23 Tb10_9 1_555 1_555
O40_7 C46_23 1_555 1_555
C47_23 C50_23 1_555 1_555
N11_23 C53_23 1_555 1_555
N12_23 C53_23 1_555 1_555
N12_23 C54_23 1_555 1_555
C52_23 C54_23 1_555 1_555
O19_24 C30_24 1_555 1_555
O20_24 C28_24 1_555 1_555
O21_24 C28_24 1_555 1_555
O22_24 C30_24 1_555 1_555
C28_24 C32_24 1_555 1_555
C29_24 H13_24 1_555 1_555
C30_24 C31_24 1_555 1_555
C31_24 C29_24 1_555 1_555
C32_24 C29_24 1_555 1_555
C33_24 C32_24 1_555 1_555
H14_24 C33_24 1_555 1_555
N7_24 C35_24 1_555 1_555
N8_24 H15_24 1_555 1_555
C34_24 C31_24 1_555 1_555
H16_24 C34_24 1_555 1_555
C35_24 N8_24 1_555 1_555
C36_24 C33_24 1_555 1_555
O23_24 C39_24 1_555 1_555
O24_24 C37_24 1_555 1_555
O25_24 C37_24 1_555 1_555
O26_24 C39_24 1_555 1_555
C37_24 C41_24 1_555 1_555
C38_24 H17_24 1_555 1_555
C39_24 C40_24 1_555 1_555
C40_24 C38_24 1_555 1_555
C41_24 C38_24 1_555 1_555
C42_24 C41_24 1_555 1_555
H18_24 C42_24 1_555 1_555
N9_24 C35_24 1_555 1_555
N10_24 H19_24 1_555 1_555
C43_24 C40_24 1_555 1_555
H20_24 C43_24 1_555 1_555
C44_24 N9_24 1_555 1_555
C45_24 C42_24 1_555 1_555
O27_24 C48_24 1_555 1_555
O30_24 C48_24 1_555 1_555
C46_24 O35_5 1_555 1_555
C47_24 H21_24 1_555 1_555
C48_24 C49_24 1_555 1_555
C49_24 C47_24 1_555 1_555
C50_24 C46_24 1_555 1_555
C51_24 C50_24 1_555 1_555
H22_24 C51_24 1_555 1_555
N11_24 C44_24 1_555 1_555
N12_24 H23_24 1_555 1_555
C52_24 C49_24 1_555 1_555
H24_24 C52_24 1_555 1_555
C53_24 N7_24 1_555 1_555
C54_24 C51_24 1_555 1_555
Tb7_6 O19_24 1_555 1_555
Tb9 O23_24 1_555 1_555
Tb4_12 O20_24 1_555 1_555
Tb5 O24_24 1_555 1_555
O21_24 Tb4_12 1_555 1_555
N8_24 C36_24 1_555 1_555
C34_24 C36_24 1_555 1_555
O25_24 Tb5 1_555 1_555
N10_24 C44_24 1_555 1_555
N10_24 C45_24 1_555 1_555
C43_24 C45_24 1_555 1_555
O27_24 Tb10_6 1_555 1_555
O40_5 C46_24 1_555 1_555
C47_24 C50_24 1_555 1_555
N11_24 C53_24 1_555 1_555
N12_24 C53_24 1_555 1_555
N12_24 C54_24 1_555 1_555
C52_24 C54_24 1_555 1_555
O15_13 Tb8_9 1_555 1_555
O16_13 Tb8_9 1_555 1_555
O32_9 Tb8_9 1_555 1_555
O36_9 Tb8_9 1_555 1_555
O41_9 Tb8_9 1_555 1_555
O16_13 H31_5 1_555 1_555
O16_13 H32_5 1_555 1_555
O15_13 H34_5 1_555 1_555
O3_13 Tb9_9 1_555 1_555
O6_13 Tb9_9 1_555 1_555
O15_14 Tb8_10 1_555 1_555
O16_14 Tb8_10 1_555 1_555
O17_13 Tb7_10 1_555 1_555
O18_13 Tb7_10 1_555 1_555
O33_9 Tb7_10 1_555 1_555
O37_9 Tb7_10 1_555 1_555
O42_9 Tb7_10 1_555 1_555
O3_13 H25_5 1_555 1_555
O15_14 H33_5 1_555 1_555
O3_14 Tb9_10 1_555 1_555
O6_14 Tb9_10 1_555 1_555
O31_9 Tb9_10 1_555 1_555
O38_9 Tb9_10 1_555 1_555
O43_9 Tb9_10 1_555 1_555
O3_14 H26_5 1_555 1_555
O6_14 H27_5 1_555 1_555
O6_14 H28_5 1_555 1_555
O3_15 Tb9_13 1_555 1_555
O6_15 Tb9_13 1_555 1_555
O31_10 Tb9_13 1_555 1_555
O38_10 Tb9_13 1_555 1_555
O43_10 Tb9_13 1_555 1_555
O3_15 H26_6 1_555 1_555
O6_15 H27_6 1_555 1_555
O6_15 H28_6 1_555 1_555
O15_15 Tb8_11 1_555 1_555
O16_15 Tb8_11 1_555 1_555
O32_10 Tb8_11 1_555 1_555
O36_10 Tb8_11 1_555 1_555
O41_10 Tb8_11 1_555 1_555
O16_15 H31_6 1_555 1_555
O16_15 H32_6 1_555 1_555
O15_15 H34_6 1_555 1_555
O3_16 Tb9_14 1_555 1_555
O6_16 Tb9_14 1_555 1_555
O15_16 Tb8_12 1_555 1_555
O16_16 Tb8_12 1_555 1_555
O17_14 Tb7_11 1_555 1_555
O18_14 Tb7_11 1_555 1_555
O33_10 Tb7_11 1_555 1_555
O37_10 Tb7_11 1_555 1_555
O42_10 Tb7_11 1_555 1_555
O3_16 H25_6 1_555 1_555
O15_16 H33_6 1_555 1_555
O3_17 Tb9_15 1_555 1_555
O6_17 Tb9_15 1_555 1_555
O15_17 Tb8_7 1_555 1_555
O16_17 Tb8_7 1_555 1_555
O17_15 Tb7_9 1_555 1_555
O18_15 Tb7_9 1_555 1_555
O33_11 Tb7_9 1_555 1_555
O37_11 Tb7_9 1_555 1_555
O42_11 Tb7_9 1_555 1_555
O3_17 H25_7 1_555 1_555
O15_17 H33_7 1_555 1_555
O15_18 Tb8_8 1_555 1_555
O16_18 Tb8_8 1_555 1_555
O32_11 Tb8_8 1_555 1_555
O36_11 Tb8_8 1_555 1_555
O41_11 Tb8_8 1_555 1_555
O16_18 H31_7 1_555 1_555
O16_18 H32_7 1_555 1_555
O15_18 H34_7 1_555 1_555
O3_18 Tb9_16 1_555 1_555
O6_18 Tb9_16 1_555 1_555
O31_11 Tb9_16 1_555 1_555
O38_11 Tb9_16 1_555 1_555
O43_11 Tb9_16 1_555 1_555
O3_18 H26_7 1_555 1_555
O6_18 H27_7 1_555 1_555
O6_18 H28_7 1_555 1_555
O3_19 Tb9_11 1_555 1_555
O6_19 Tb9_11 1_555 1_555
O31_12 Tb9_11 1_555 1_555
O38_12 Tb9_11 1_555 1_555
O43_12 Tb9_11 1_555 1_555
O3_19 H26_8 1_555 1_555
O6_19 H27_8 1_555 1_555
O6_19 H28_8 1_555 1_555
O3_20 Tb9_12 1_555 1_555
O6_20 Tb9_12 1_555 1_555
O15_19 Tb8_5 1_555 1_555
O16_19 Tb8_5 1_555 1_555
O17_16 Tb7_12 1_555 1_555
O18_16 Tb7_12 1_555 1_555
O33_12 Tb7_12 1_555 1_555
O37_12 Tb7_12 1_555 1_555
O42_12 Tb7_12 1_555 1_555
O3_20 H25_8 1_555 1_555
O15_19 H33_8 1_555 1_555
O15_20 Tb8_6 1_555 1_555
O16_20 Tb8_6 1_555 1_555
O32_12 Tb8_6 1_555 1_555
O36_12 Tb8_6 1_555 1_555
O41_12 Tb8_6 1_555 1_555
O16_20 H31_8 1_555 1_555
O16_20 H32_8 1_555 1_555
O15_20 H34_8 1_555 1_555
O3_21 Tb4_7 1_555 1_555
O6_21 Tb4_7 1_555 1_555
O15_21 Tb5_4 1_555 1_555
O16_21 Tb5_4 1_555 1_555
O17_17 Tb6_4 1_555 1_555
O18_17 Tb6_4 1_555 1_555
O32_13 Tb5_4 1_555 1_555
O33_13 Tb6_4 1_555 1_555
O36_13 Tb5_4 1_555 1_555
O37_13 Tb6_4 1_555 1_555
O41_13 Tb5_4 1_555 1_555
O42_13 Tb6_4 1_555 1_555
O3_21 H25_9 1_555 1_555
O3_22 Tb4_8 1_555 1_555
O6_22 Tb4_8 1_555 1_555
O31_13 Tb4_8 1_555 1_555
O38_13 Tb4_8 1_555 1_555
O43_13 Tb4_8 1_555 1_555
O3_22 H26_9 1_555 1_555
O6_22 H27_9 1_555 1_555
O6_22 H28_9 1_555 1_555
O3_23 Tb4_5 1_555 1_555
O6_23 Tb4_5 1_555 1_555
O31_14 Tb4_5 1_555 1_555
O38_14 Tb4_5 1_555 1_555
O43_14 Tb4_5 1_555 1_555
O3_23 H26_10 1_555 1_555
O6_23 H27_10 1_555 1_555
O6_23 H28_10 1_555 1_555
O3_24 Tb4_6 1_555 1_555
O6_24 Tb4_6 1_555 1_555
O15_22 Tb5_3 1_555 1_555
O16_22 Tb5_3 1_555 1_555
O17_18 Tb6_3 1_555 1_555
O18_18 Tb6_3 1_555 1_555
O32_14 Tb5_3 1_555 1_555
O33_14 Tb6_3 1_555 1_555
O36_14 Tb5_3 1_555 1_555
O37_14 Tb6_3 1_555 1_555
O41_14 Tb5_3 1_555 1_555
O42_14 Tb6_3 1_555 1_555
O3_24 H25_10 1_555 1_555
O3_25 Tb4 1_555 1_555
O6_25 Tb4 1_555 1_555
O15_23 Tb5 1_555 1_555
O16_23 Tb5 1_555 1_555
O17_19 Tb6 1_555 1_555
O18_19 Tb6 1_555 1_555
O32_15 Tb5 1_555 1_555
O33_15 Tb6 1_555 1_555
O36_15 Tb5 1_555 1_555
O37_15 Tb6 1_555 1_555
O41_15 Tb5 1_555 1_555
O42_15 Tb6 1_555 1_555
O3_25 H25_11 1_555 1_555
O3_26 Tb4_2 1_555 1_555
O6_26 Tb4_2 1_555 1_555
O31_15 Tb4_2 1_555 1_555
O38_15 Tb4_2 1_555 1_555
O43_15 Tb4_2 1_555 1_555
O3_26 H26_11 1_555 1_555
O6_26 H27_11 1_555 1_555
O6_26 H28_11 1_555 1_555
O3_27 Tb4_3 1_555 1_555
O6_27 Tb4_3 1_555 1_555
O31_16 Tb4_3 1_555 1_555
O38_16 Tb4_3 1_555 1_555
O43_16 Tb4_3 1_555 1_555
O3_27 H26_12 1_555 1_555
O6_27 H27_12 1_555 1_555
O6_27 H28_12 1_555 1_555
O3_28 Tb4_4 1_555 1_555
O6_28 Tb4_4 1_555 1_555
O15_24 Tb5_2 1_555 1_555
O16_24 Tb5_2 1_555 1_555
O17_20 Tb6_2 1_555 1_555
O18_20 Tb6_2 1_555 1_555
O32_16 Tb5_2 1_555 1_555
O33_16 Tb6_2 1_555 1_555
O36_16 Tb5_2 1_555 1_555
O37_16 Tb6_2 1_555 1_555
O41_16 Tb5_2 1_555 1_555
O42_16 Tb6_2 1_555 1_555
O3_28 H25_12 1_555 1_555
O17_21 Tb6_11 1_555 1_555
O18_21 Tb6_11 1_555 1_555
O33_17 Tb6_11 1_555 1_555
O37_17 Tb6_11 1_555 1_555
O42_17 Tb6_11 1_555 1_555
O18_21 H29_5 1_555 1_555
O18_21 H30_5 1_555 1_555
O17_21 H36_5 1_555 1_555
O15_25 Tb9_21 1_555 1_555
O16_25 Tb9_21 1_555 1_555
O32_17 Tb9_21 1_555 1_555
O36_17 Tb9_21 1_555 1_555
O41_17 Tb9_21 1_555 1_555
O16_25 H31_9 1_555 1_555
O16_25 H32_9 1_555 1_555
O15_25 H34_9 1_555 1_555
O3_29 Tb7_3 1_555 1_555
O6_29 Tb7_3 1_555 1_555
O15_26 Tb9_22 1_555 1_555
O16_26 Tb9_22 1_555 1_555
O17_22 Tb6_12 1_555 1_555
O18_22 Tb6_12 1_555 1_555
O31_17 Tb7_3 1_555 1_555
O38_17 Tb7_3 1_555 1_555
O43_17 Tb7_3 1_555 1_555
O15_26 H33_9 1_555 1_555
O17_22 H35_5 1_555 1_555
O15_27 Tb9_19 1_555 1_555
O16_27 Tb9_19 1_555 1_555
O32_18 Tb9_19 1_555 1_555
O36_18 Tb9_19 1_555 1_555
O41_18 Tb9_19 1_555 1_555
O16_27 H31_10 1_555 1_555
O16_27 H32_10 1_555 1_555
O15_27 H34_10 1_555 1_555
O3_30 Tb7_4 1_555 1_555
O6_30 Tb7_4 1_555 1_555
O15_28 Tb9_20 1_555 1_555
O16_28 Tb9_20 1_555 1_555
O17_23 Tb6_9 1_555 1_555
O18_23 Tb6_9 1_555 1_555
O31_18 Tb7_4 1_555 1_555
O38_18 Tb7_4 1_555 1_555
O43_18 Tb7_4 1_555 1_555
O15_28 H33_10 1_555 1_555
O17_23 H35_6 1_555 1_555
O17_24 Tb6_10 1_555 1_555
O18_24 Tb6_10 1_555 1_555
O33_18 Tb6_10 1_555 1_555
O37_18 Tb6_10 1_555 1_555
O42_18 Tb6_10 1_555 1_555
O18_24 H29_6 1_555 1_555
O18_24 H30_6 1_555 1_555
O17_24 H36_6 1_555 1_555
O3_31 Tb7 1_555 1_555
O6_31 Tb7 1_555 1_555
O15_29 Tb9_23 1_555 1_555
O16_29 Tb9_23 1_555 1_555
O17_25 Tb6_5 1_555 1_555
O18_25 Tb6_5 1_555 1_555
O31_19 Tb7 1_555 1_555
O38_19 Tb7 1_555 1_555
O43_19 Tb7 1_555 1_555
O15_29 H33_11 1_555 1_555
O17_25 H35_7 1_555 1_555
O15_30 Tb9_24 1_555 1_555
O16_30 Tb9_24 1_555 1_555
O32_19 Tb9_24 1_555 1_555
O36_19 Tb9_24 1_555 1_555
O41_19 Tb9_24 1_555 1_555
O16_30 H31_11 1_555 1_555
O16_30 H32_11 1_555 1_555
O15_30 H34_11 1_555 1_555
O17_26 Tb6_6 1_555 1_555
O18_26 Tb6_6 1_555 1_555
O33_19 Tb6_6 1_555 1_555
O37_19 Tb6_6 1_555 1_555
O42_19 Tb6_6 1_555 1_555
O18_26 H29_7 1_555 1_555
O18_26 H30_7 1_555 1_555
O17_26 H36_7 1_555 1_555
O17_27 Tb6_7 1_555 1_555
O18_27 Tb6_7 1_555 1_555
O33_20 Tb6_7 1_555 1_555
O37_20 Tb6_7 1_555 1_555
O42_20 Tb6_7 1_555 1_555
O18_27 H29_8 1_555 1_555
O18_27 H30_8 1_555 1_555
O17_27 H36_8 1_555 1_555
O3_32 Tb7_2 1_555 1_555
O6_32 Tb7_2 1_555 1_555
O15_31 Tb9_17 1_555 1_555
O16_31 Tb9_17 1_555 1_555
O17_28 Tb6_8 1_555 1_555
O18_28 Tb6_8 1_555 1_555
O31_20 Tb7_2 1_555 1_555
O38_20 Tb7_2 1_555 1_555
O43_20 Tb7_2 1_555 1_555
O15_31 H33_12 1_555 1_555
O17_28 H35_8 1_555 1_555
O15_32 Tb9_18 1_555 1_555
O16_32 Tb9_18 1_555 1_555
O32_20 Tb9_18 1_555 1_555
O36_20 Tb9_18 1_555 1_555
O41_20 Tb9_18 1_555 1_555
O16_32 H31_12 1_555 1_555
O16_32 H32_12 1_555 1_555
O15_32 H34_12 1_555 1_555
O17_29 Tb4_13 1_555 1_555
O18_29 Tb4_13 1_555 1_555
O33_21 Tb4_13 1_555 1_555
O37_21 Tb4_13 1_555 1_555
O42_21 Tb4_13 1_555 1_555
O18_29 H29_9 1_555 1_555
O18_29 H30_9 1_555 1_555
O17_29 H36_9 1_555 1_555
O3_33 Tb5_7 1_555 1_555
O6_33 Tb5_7 1_555 1_555
O15_33 Tb8_3 1_555 1_555
O16_33 Tb8_3 1_555 1_555
O17_30 Tb4_14 1_555 1_555
O18_30 Tb4_14 1_555 1_555
O31_21 Tb5_7 1_555 1_555
O32_21 Tb8_3 1_555 1_555
O36_21 Tb8_3 1_555 1_555
O38_21 Tb5_7 1_555 1_555
O41_21 Tb8_3 1_555 1_555
O43_21 Tb5_7 1_555 1_555
O17_30 H35_9 1_555 1_555
O3_34 Tb5_5 1_555 1_555
O6_34 Tb5_5 1_555 1_555
O15_34 Tb8_4 1_555 1_555
O16_34 Tb8_4 1_555 1_555
O17_31 Tb4_9 1_555 1_555
O18_31 Tb4_9 1_555 1_555
O31_22 Tb5_5 1_555 1_555
O32_22 Tb8_4 1_555 1_555
O36_22 Tb8_4 1_555 1_555
O38_22 Tb5_5 1_555 1_555
O41_22 Tb8_4 1_555 1_555
O43_22 Tb5_5 1_555 1_555
O17_31 H35_10 1_555 1_555
O17_32 Tb4_10 1_555 1_555
O18_32 Tb4_10 1_555 1_555
O33_22 Tb4_10 1_555 1_555
O37_22 Tb4_10 1_555 1_555
O42_22 Tb4_10 1_555 1_555
O18_32 H29_10 1_555 1_555
O18_32 H30_10 1_555 1_555
O17_32 H36_10 1_555 1_555
O3_35 Tb5_8 1_555 1_555
O6_35 Tb5_8 1_555 1_555
O15_35 Tb8_2 1_555 1_555
O16_35 Tb8_2 1_555 1_555
O17_33 Tb4_15 1_555 1_555
O18_33 Tb4_15 1_555 1_555
O31_23 Tb5_8 1_555 1_555
O32_23 Tb8_2 1_555 1_555
O36_23 Tb8_2 1_555 1_555
O38_23 Tb5_8 1_555 1_555
O41_23 Tb8_2 1_555 1_555
O43_23 Tb5_8 1_555 1_555
O17_33 H35_11 1_555 1_555
O17_34 Tb4_16 1_555 1_555
O18_34 Tb4_16 1_555 1_555
O33_23 Tb4_16 1_555 1_555
O37_23 Tb4_16 1_555 1_555
O42_23 Tb4_16 1_555 1_555
O18_34 H29_11 1_555 1_555
O18_34 H30_11 1_555 1_555
O17_34 H36_11 1_555 1_555
O17_35 Tb4_11 1_555 1_555
O18_35 Tb4_11 1_555 1_555
O33_24 Tb4_11 1_555 1_555
O37_24 Tb4_11 1_555 1_555
O42_24 Tb4_11 1_555 1_555
O18_35 H29_12 1_555 1_555
O18_35 H30_12 1_555 1_555
O17_35 H36_12 1_555 1_555
O3_36 Tb5_6 1_555 1_555
O6_36 Tb5_6 1_555 1_555
O15_36 Tb8 1_555 1_555
O16_36 Tb8 1_555 1_555
O17_36 Tb4_12 1_555 1_555
O18_36 Tb4_12 1_555 1_555
O31_24 Tb5_6 1_555 1_555
O32_24 Tb8 1_555 1_555
O36_24 Tb8 1_555 1_555
O38_24 Tb5_6 1_555 1_555
O41_24 Tb8 1_555 1_555
O43_24 Tb5_6 1_555 1_555
O17_36 H35_12 1_555 1_555
O17_37 Tb9_3 1_555 1_555
O18_37 Tb9_3 1_555 1_555
O33_25 Tb9_3 1_555 1_555
O37_25 Tb9_3 1_555 1_555
O42_25 Tb9_3 1_555 1_555
O18_37 H29_13 1_555 1_555
O18_37 H30_13 1_555 1_555
O17_37 H36_13 1_555 1_555
O3_37 Tb10_7 1_555 1_555
O6_37 Tb10_7 1_555 1_555
O15_37 Tb7_8 1_555 1_555
O16_37 Tb7_8 1_555 1_555
O17_38 Tb9_4 1_555 1_555
O18_38 Tb9_4 1_555 1_555
O32_25 Tb7_8 1_555 1_555
O36_25 Tb7_8 1_555 1_555
O41_25 Tb7_8 1_555 1_555
O3_37 H25_13 1_555 1_555
O17_38 H35_13 1_555 1_555
O3_38 Tb10_8 1_555 1_555
O6_38 Tb10_8 1_555 1_555
O31_25 Tb10_8 1_555 1_555
O38_25 Tb10_8 1_555 1_555
O43_25 Tb10_8 1_555 1_555
O3_38 H26_13 1_555 1_555
O6_38 H27_13 1_555 1_555
O6_38 H28_13 1_555 1_555
O3_39 Tb10_5 1_555 1_555
O6_39 Tb10_5 1_555 1_555
O31_26 Tb10_5 1_555 1_555
O38_26 Tb10_5 1_555 1_555
O43_26 Tb10_5 1_555 1_555
O3_39 H26_14 1_555 1_555
O6_39 H27_14 1_555 1_555
O6_39 H28_14 1_555 1_555
O3_40 Tb10_6 1_555 1_555
O6_40 Tb10_6 1_555 1_555
O15_38 Tb7_6 1_555 1_555
O16_38 Tb7_6 1_555 1_555
O17_39 Tb9 1_555 1_555
O18_39 Tb9 1_555 1_555
O32_26 Tb7_6 1_555 1_555
O36_26 Tb7_6 1_555 1_555
O41_26 Tb7_6 1_555 1_555
O3_40 H25_14 1_555 1_555
O17_39 H35_14 1_555 1_555
O17_40 Tb9_2 1_555 1_555
O18_40 Tb9_2 1_555 1_555
O33_26 Tb9_2 1_555 1_555
O37_26 Tb9_2 1_555 1_555
O42_26 Tb9_2 1_555 1_555
O18_40 H29_14 1_555 1_555
O18_40 H30_14 1_555 1_555
O17_40 H36_14 1_555 1_555
O3_41 Tb10_9 1_555 1_555
O6_41 Tb10_9 1_555 1_555
O15_39 Tb7_5 1_555 1_555
O16_39 Tb7_5 1_555 1_555
O17_41 Tb9_7 1_555 1_555
O18_41 Tb9_7 1_555 1_555
O32_27 Tb7_5 1_555 1_555
O36_27 Tb7_5 1_555 1_555
O41_27 Tb7_5 1_555 1_555
O3_41 H25_15 1_555 1_555
O17_41 H35_15 1_555 1_555
O3_42 Tb10_10 1_555 1_555
O6_42 Tb10_10 1_555 1_555
O31_27 Tb10_10 1_555 1_555
O38_27 Tb10_10 1_555 1_555
O43_27 Tb10_10 1_555 1_555
O3_42 H26_15 1_555 1_555
O6_42 H27_15 1_555 1_555
O6_42 H28_15 1_555 1_555
O17_42 Tb9_8 1_555 1_555
O18_42 Tb9_8 1_555 1_555
O33_27 Tb9_8 1_555 1_555
O37_27 Tb9_8 1_555 1_555
O42_27 Tb9_8 1_555 1_555
O18_42 H29_15 1_555 1_555
O18_42 H30_15 1_555 1_555
O17_42 H36_15 1_555 1_555
O17_43 Tb9_5 1_555 1_555
O18_43 Tb9_5 1_555 1_555
O33_28 Tb9_5 1_555 1_555
O37_28 Tb9_5 1_555 1_555
O42_28 Tb9_5 1_555 1_555
O18_43 H29_16 1_555 1_555
O18_43 H30_16 1_555 1_555
O17_43 H36_16 1_555 1_555
O3_43 Tb10_11 1_555 1_555
O6_43 Tb10_11 1_555 1_555
O31_28 Tb10_11 1_555 1_555
O38_28 Tb10_11 1_555 1_555
O43_28 Tb10_11 1_555 1_555
O3_43 H26_16 1_555 1_555
O6_43 H27_16 1_555 1_555
O6_43 H28_16 1_555 1_555
O3_44 Tb10_12 1_555 1_555
O6_44 Tb10_12 1_555 1_555
O15_40 Tb7_7 1_555 1_555
O16_40 Tb7_7 1_555 1_555
O17_44 Tb9_6 1_555 1_555
O18_44 Tb9_6 1_555 1_555
O32_28 Tb7_7 1_555 1_555
O36_28 Tb7_7 1_555 1_555
O41_28 Tb7_7 1_555 1_555
O3_44 H25_16 1_555 1_555
O17_44 H35_16 1_555 1_555
O3_45 Tb10_2 1_555 1_555
O6_45 Tb10_2 1_555 1_555
O15_41 Tb4_17 1_555 1_555
O16_41 Tb4_17 1_555 1_555
O17_45 Tb5_9 1_555 1_555
O18_45 Tb5_9 1_555 1_555
O31_29 Tb10_2 1_555 1_555
O33_29 Tb5_9 1_555 1_555
O37_29 Tb5_9 1_555 1_555
O38_29 Tb10_2 1_555 1_555
O42_29 Tb5_9 1_555 1_555
O43_29 Tb10_2 1_555 1_555
O15_41 H33_13 1_555 1_555
O15_42 Tb4_18 1_555 1_555
O16_42 Tb4_18 1_555 1_555
O32_29 Tb4_18 1_555 1_555
O36_29 Tb4_18 1_555 1_555
O41_29 Tb4_18 1_555 1_555
O16_42 H31_13 1_555 1_555
O16_42 H32_13 1_555 1_555
O15_42 H34_13 1_555 1_555
O3_46 Tb10 1_555 1_555
O6_46 Tb10 1_555 1_555
O15_43 Tb4_23 1_555 1_555
O16_43 Tb4_23 1_555 1_555
O17_46 Tb5_12 1_555 1_555
O18_46 Tb5_12 1_555 1_555
O31_30 Tb10 1_555 1_555
O33_30 Tb5_12 1_555 1_555
O37_30 Tb5_12 1_555 1_555
O38_30 Tb10 1_555 1_555
O42_30 Tb5_12 1_555 1_555
O43_30 Tb10 1_555 1_555
O15_43 H33_14 1_555 1_555
O15_44 Tb4_24 1_555 1_555
O16_44 Tb4_24 1_555 1_555
O32_30 Tb4_24 1_555 1_555
O36_30 Tb4_24 1_555 1_555
O41_30 Tb4_24 1_555 1_555
O16_44 H31_14 1_555 1_555
O16_44 H32_14 1_555 1_555
O15_44 H34_14 1_555 1_555
O15_45 Tb4_21 1_555 1_555
O16_45 Tb4_21 1_555 1_555
O32_31 Tb4_21 1_555 1_555
O36_31 Tb4_21 1_555 1_555
O41_31 Tb4_21 1_555 1_555
O16_45 H31_15 1_555 1_555
O16_45 H32_15 1_555 1_555
O15_45 H34_15 1_555 1_555
O3_47 Tb10_3 1_555 1_555
O6_47 Tb10_3 1_555 1_555
O15_46 Tb4_22 1_555 1_555
O16_46 Tb4_22 1_555 1_555
O17_47 Tb5_11 1_555 1_555
O18_47 Tb5_11 1_555 1_555
O31_31 Tb10_3 1_555 1_555
O33_31 Tb5_11 1_555 1_555
O37_31 Tb5_11 1_555 1_555
O38_31 Tb10_3 1_555 1_555
O42_31 Tb5_11 1_555 1_555
O43_31 Tb10_3 1_555 1_555
O15_46 H33_15 1_555 1_555
O15_47 Tb4_19 1_555 1_555
O16_47 Tb4_19 1_555 1_555
O32_32 Tb4_19 1_555 1_555
O36_32 Tb4_19 1_555 1_555
O41_32 Tb4_19 1_555 1_555
O16_47 H31_16 1_555 1_555
O16_47 H32_16 1_555 1_555
O15_47 H34_16 1_555 1_555
O3_48 Tb10_4 1_555 1_555
O6_48 Tb10_4 1_555 1_555
O15_48 Tb4_20 1_555 1_555
O16_48 Tb4_20 1_555 1_555
O17_48 Tb5_10 1_555 1_555
O18_48 Tb5_10 1_555 1_555
O31_32 Tb10_4 1_555 1_555
O33_32 Tb5_10 1_555 1_555
O37_32 Tb5_10 1_555 1_555
O38_32 Tb10_4 1_555 1_555
O42_32 Tb5_10 1_555 1_555
O43_32 Tb10_4 1_555 1_555
O15_48 H33_16 1_555 1_555
O31_3 C3_9 1_555 1_555
O38_32 C1_9 1_555 1_555
O43_32 C1_9 1_555 1_555
O5_9 C3_9 1_555 1_555
C1_9 C5_9 1_555 1_555
C2_9 H1_9 1_555 1_555
C3_9 C4_9 1_555 1_555
C4_9 C2_9 1_555 1_555
C5_9 C2_9 1_555 1_555
C6_9 C5_9 1_555 1_555
H2_9 C6_9 1_555 1_555
N1_9 C8_9 1_555 1_555
N2_9 H3_9 1_555 1_555
C7_9 C4_9 1_555 1_555
H4_9 C7_9 1_555 1_555
C8_9 N2_9 1_555 1_555
C9_9 C6_9 1_555 1_555
O32_2 C12_9 1_555 1_555
O37_14 C10_9 1_555 1_555
O42_14 C10_9 1_555 1_555
O10_9 C12_9 1_555 1_555
C10_9 C14_9 1_555 1_555
C11_9 H5_9 1_555 1_555
C12_9 C13_9 1_555 1_555
C13_9 C11_9 1_555 1_555
C14_9 C11_9 1_555 1_555
C15_9 C14_9 1_555 1_555
H6_9 C15_9 1_555 1_555
N3_9 C8_9 1_555 1_555
N4_9 H7_9 1_555 1_555
C16_9 C13_9 1_555 1_555
H8_9 C16_9 1_555 1_555
C17_9 N3_9 1_555 1_555
C18_9 C15_9 1_555 1_555
O33_4 C21_9 1_555 1_555
O36_23 C19_9 1_555 1_555
O41_23 C19_9 1_555 1_555
O14_9 C21_9 1_555 1_555
C19_9 C23_9 1_555 1_555
C20_9 H9_9 1_555 1_555
C21_9 C22_9 1_555 1_555
C22_9 C20_9 1_555 1_555
C23_9 C20_9 1_555 1_555
C24_9 C23_9 1_555 1_555
H10_9 C24_9 1_555 1_555
N5_9 C17_9 1_555 1_555
N6_9 H11_9 1_555 1_555
C25_9 C22_9 1_555 1_555
H12_9 C25_9 1_555 1_555
C26_9 N1_9 1_555 1_555
C27_9 C24_9 1_555 1_555
O31_13 C30_25 1_555 1_555
O38_17 C28_25 1_555 1_555
O43_17 C28_25 1_555 1_555
O22_25 C30_25 1_555 1_555
C28_25 C32_25 1_555 1_555
C29_25 H13_25 1_555 1_555
C30_25 C31_25 1_555 1_555
C31_25 C29_25 1_555 1_555
C32_25 C29_25 1_555 1_555
C33_25 C32_25 1_555 1_555
H14_25 C33_25 1_555 1_555
N7_25 C35_25 1_555 1_555
N8_25 H15_25 1_555 1_555
C34_25 C31_25 1_555 1_555
H16_25 C34_25 1_555 1_555
C35_25 N8_25 1_555 1_555
C36_25 C33_25 1_555 1_555
O32_16 C39_25 1_555 1_555
O37_27 C37_25 1_555 1_555
O42_27 C37_25 1_555 1_555
O26_25 C39_25 1_555 1_555
C37_25 C41_25 1_555 1_555
C38_25 H17_25 1_555 1_555
C39_25 C40_25 1_555 1_555
C40_25 C38_25 1_555 1_555
C41_25 C38_25 1_555 1_555
C42_25 C41_25 1_555 1_555
H18_25 C42_25 1_555 1_555
N9_25 C35_25 1_555 1_555
N10_25 H19_25 1_555 1_555
C43_25 C40_25 1_555 1_555
H20_25 C43_25 1_555 1_555
C44_25 N9_25 1_555 1_555
C45_25 C42_25 1_555 1_555
O33_14 C48_25 1_555 1_555
O30_25 C48_25 1_555 1_555
C46_25 O36_2 1_555 1_555
C47_25 H21_25 1_555 1_555
C48_25 C49_25 1_555 1_555
C49_25 C47_25 1_555 1_555
C50_25 C46_25 1_555 1_555
C51_25 C50_25 1_555 1_555
H22_25 C51_25 1_555 1_555
N11_25 C44_25 1_555 1_555
N12_25 H23_25 1_555 1_555
C52_25 C49_25 1_555 1_555
H24_25 C52_25 1_555 1_555
C53_25 N7_25 1_555 1_555
C54_25 C51_25 1_555 1_555
N2_9 C9_9 1_555 1_555
C7_9 C9_9 1_555 1_555
N4_9 C17_9 1_555 1_555
N4_9 C18_9 1_555 1_555
C16_9 C18_9 1_555 1_555
N5_9 C26_9 1_555 1_555
N6_9 C26_9 1_555 1_555
N6_9 C27_9 1_555 1_555
C25_9 C27_9 1_555 1_555
N8_25 C36_25 1_555 1_555
C34_25 C36_25 1_555 1_555
N10_25 C44_25 1_555 1_555
N10_25 C45_25 1_555 1_555
C43_25 C45_25 1_555 1_555
O41_2 C46_25 1_555 1_555
C47_25 C50_25 1_555 1_555
N11_25 C53_25 1_555 1_555
N12_25 C53_25 1_555 1_555
N12_25 C54_25 1_555 1_555
C52_25 C54_25 1_555 1_555
O31_4 C3_10 1_555 1_555
O38_31 C1_10 1_555 1_555
O43_31 C1_10 1_555 1_555
O5_10 C3_10 1_555 1_555
C1_10 C5_10 1_555 1_555
C2_10 H1_10 1_555 1_555
C3_10 C4_10 1_555 1_555
C4_10 C2_10 1_555 1_555
C5_10 C2_10 1_555 1_555
C6_10 C5_10 1_555 1_555
H2_10 C6_10 1_555 1_555
N1_10 C8_10 1_555 1_555
N2_10 H3_10 1_555 1_555
C7_10 C4_10 1_555 1_555
H4_10 C7_10 1_555 1_555
C8_10 N2_10 1_555 1_555
C9_10 C6_10 1_555 1_555
O32 C12_10 1_555 1_555
O37_13 C10_10 1_555 1_555
O42_13 C10_10 1_555 1_555
O10_10 C12_10 1_555 1_555
C10_10 C14_10 1_555 1_555
C11_10 H5_10 1_555 1_555
C12_10 C13_10 1_555 1_555
C13_10 C11_10 1_555 1_555
C14_10 C11_10 1_555 1_555
C15_10 C14_10 1_555 1_555
H6_10 C15_10 1_555 1_555
N3_10 C8_10 1_555 1_555
N4_10 H7_10 1_555 1_555
C16_10 C13_10 1_555 1_555
H8_10 C16_10 1_555 1_555
C17_10 N3_10 1_555 1_555
C18_10 C15_10 1_555 1_555
O33_3 C21_10 1_555 1_555
O36_24 C19_10 1_555 1_555
O41_24 C19_10 1_555 1_555
O14_10 C21_10 1_555 1_555
C19_10 C23_10 1_555 1_555
C20_10 H9_10 1_555 1_555
C21_10 C22_10 1_555 1_555
C22_10 C20_10 1_555 1_555
C23_10 C20_10 1_555 1_555
C24_10 C23_10 1_555 1_555
H10_10 C24_10 1_555 1_555
N5_10 C17_10 1_555 1_555
N6_10 H11_10 1_555 1_555
C25_10 C22_10 1_555 1_555
H12_10 C25_10 1_555 1_555
C26_10 N1_10 1_555 1_555
C27_10 C24_10 1_555 1_555
O31_14 C30_26 1_555 1_555
O38_18 C28_26 1_555 1_555
O43_18 C28_26 1_555 1_555
O22_26 C30_26 1_555 1_555
C28_26 C32_26 1_555 1_555
C29_26 H13_26 1_555 1_555
C30_26 C31_26 1_555 1_555
C31_26 C29_26 1_555 1_555
C32_26 C29_26 1_555 1_555
C33_26 C32_26 1_555 1_555
H14_26 C33_26 1_555 1_555
N7_26 C35_26 1_555 1_555
N8_26 H15_26 1_555 1_555
C34_26 C31_26 1_555 1_555
H16_26 C34_26 1_555 1_555
C35_26 N8_26 1_555 1_555
C36_26 C33_26 1_555 1_555
O32_15 C39_26 1_555 1_555
O37_28 C37_26 1_555 1_555
O42_28 C37_26 1_555 1_555
O26_26 C39_26 1_555 1_555
C37_26 C41_26 1_555 1_555
C38_26 H17_26 1_555 1_555
C39_26 C40_26 1_555 1_555
C40_26 C38_26 1_555 1_555
C41_26 C38_26 1_555 1_555
C42_26 C41_26 1_555 1_555
H18_26 C42_26 1_555 1_555
N9_26 C35_26 1_555 1_555
N10_26 H19_26 1_555 1_555
C43_26 C40_26 1_555 1_555
H20_26 C43_26 1_555 1_555
C44_26 N9_26 1_555 1_555
C45_26 C42_26 1_555 1_555
O33_13 C48_26 1_555 1_555
O30_26 C48_26 1_555 1_555
C46_26 O36 1_555 1_555
C47_26 H21_26 1_555 1_555
C48_26 C49_26 1_555 1_555
C49_26 C47_26 1_555 1_555
C50_26 C46_26 1_555 1_555
C51_26 C50_26 1_555 1_555
H22_26 C51_26 1_555 1_555
N11_26 C44_26 1_555 1_555
N12_26 H23_26 1_555 1_555
C52_26 C49_26 1_555 1_555
H24_26 C52_26 1_555 1_555
C53_26 N7_26 1_555 1_555
C54_26 C51_26 1_555 1_555
N2_10 C9_10 1_555 1_555
C7_10 C9_10 1_555 1_555
N4_10 C17_10 1_555 1_555
N4_10 C18_10 1_555 1_555
C16_10 C18_10 1_555 1_555
N5_10 C26_10 1_555 1_555
N6_10 C26_10 1_555 1_555
N6_10 C27_10 1_555 1_555
C25_10 C27_10 1_555 1_555
N8_26 C36_26 1_555 1_555
C34_26 C36_26 1_555 1_555
N10_26 C44_26 1_555 1_555
N10_26 C45_26 1_555 1_555
C43_26 C45_26 1_555 1_555
O41 C46_26 1_555 1_555
C47_26 C50_26 1_555 1_555
N11_26 C53_26 1_555 1_555
N12_26 C53_26 1_555 1_555
N12_26 C54_26 1_555 1_555
C52_26 C54_26 1_555 1_555
O31 C3_11 1_555 1_555
O38_29 C1_11 1_555 1_555
O43_29 C1_11 1_555 1_555
O5_11 C3_11 1_555 1_555
C1_11 C5_11 1_555 1_555
C2_11 H1_11 1_555 1_555
C3_11 C4_11 1_555 1_555
C4_11 C2_11 1_555 1_555
C5_11 C2_11 1_555 1_555
C6_11 C5_11 1_555 1_555
H2_11 C6_11 1_555 1_555
N1_11 C8_11 1_555 1_555
N2_11 H3_11 1_555 1_555
C7_11 C4_11 1_555 1_555
H4_11 C7_11 1_555 1_555
C8_11 N2_11 1_555 1_555
C9_11 C6_11 1_555 1_555
O32_4 C12_11 1_555 1_555
O37_15 C10_11 1_555 1_555
O42_15 C10_11 1_555 1_555
O10_11 C12_11 1_555 1_555
C10_11 C14_11 1_555 1_555
C11_11 H5_11 1_555 1_555
C12_11 C13_11 1_555 1_555
C13_11 C11_11 1_555 1_555
C14_11 C11_11 1_555 1_555
C15_11 C14_11 1_555 1_555
H6_11 C15_11 1_555 1_555
N3_11 C8_11 1_555 1_555
N4_11 H7_11 1_555 1_555
C16_11 C13_11 1_555 1_555
H8_11 C16_11 1_555 1_555
C17_11 N3_11 1_555 1_555
C18_11 C15_11 1_555 1_555
O33_2 C21_11 1_555 1_555
O36_22 C19_11 1_555 1_555
O41_22 C19_11 1_555 1_555
O14_11 C21_11 1_555 1_555
C19_11 C23_11 1_555 1_555
C20_11 H9_11 1_555 1_555
C21_11 C22_11 1_555 1_555
C22_11 C20_11 1_555 1_555
C23_11 C20_11 1_555 1_555
C24_11 C23_11 1_555 1_555
H10_11 C24_11 1_555 1_555
N5_11 C17_11 1_555 1_555
N6_11 H11_11 1_555 1_555
C25_11 C22_11 1_555 1_555
H12_11 C25_11 1_555 1_555
C26_11 N1_11 1_555 1_555
C27_11 C24_11 1_555 1_555
O31_16 C30_27 1_555 1_555
O38_19 C28_27 1_555 1_555
O43_19 C28_27 1_555 1_555
O22_27 C30_27 1_555 1_555
C28_27 C32_27 1_555 1_555
C29_27 H13_27 1_555 1_555
C30_27 C31_27 1_555 1_555
C31_27 C29_27 1_555 1_555
C32_27 C29_27 1_555 1_555
C33_27 C32_27 1_555 1_555
H14_27 C33_27 1_555 1_555
N7_27 C35_27 1_555 1_555
N8_27 H15_27 1_555 1_555
C34_27 C31_27 1_555 1_555
H16_27 C34_27 1_555 1_555
C35_27 N8_27 1_555 1_555
C36_27 C33_27 1_555 1_555
O32_13 C39_27 1_555 1_555
O37_25 C37_27 1_555 1_555
O42_25 C37_27 1_555 1_555
O26_27 C39_27 1_555 1_555
C37_27 C41_27 1_555 1_555
C38_27 H17_27 1_555 1_555
C39_27 C40_27 1_555 1_555
C40_27 C38_27 1_555 1_555
C41_27 C38_27 1_555 1_555
C42_27 C41_27 1_555 1_555
H18_27 C42_27 1_555 1_555
N9_27 C35_27 1_555 1_555
N10_27 H19_27 1_555 1_555
C43_27 C40_27 1_555 1_555
H20_27 C43_27 1_555 1_555
C44_27 N9_27 1_555 1_555
C45_27 C42_27 1_555 1_555
O33_15 C48_27 1_555 1_555
O30_27 C48_27 1_555 1_555
C46_27 O36_4 1_555 1_555
C47_27 H21_27 1_555 1_555
C48_27 C49_27 1_555 1_555
C49_27 C47_27 1_555 1_555
C50_27 C46_27 1_555 1_555
C51_27 C50_27 1_555 1_555
H22_27 C51_27 1_555 1_555
N11_27 C44_27 1_555 1_555
N12_27 H23_27 1_555 1_555
C52_27 C49_27 1_555 1_555
H24_27 C52_27 1_555 1_555
C53_27 N7_27 1_555 1_555
C54_27 C51_27 1_555 1_555
N2_11 C9_11 1_555 1_555
C7_11 C9_11 1_555 1_555
N4_11 C17_11 1_555 1_555
N4_11 C18_11 1_555 1_555
C16_11 C18_11 1_555 1_555
N5_11 C26_11 1_555 1_555
N6_11 C26_11 1_555 1_555
N6_11 C27_11 1_555 1_555
C25_11 C27_11 1_555 1_555
N8_27 C36_27 1_555 1_555
C34_27 C36_27 1_555 1_555
N10_27 C44_27 1_555 1_555
N10_27 C45_27 1_555 1_555
C43_27 C45_27 1_555 1_555
O41_4 C46_27 1_555 1_555
C47_27 C50_27 1_555 1_555
N11_27 C53_27 1_555 1_555
N12_27 C53_27 1_555 1_555
N12_27 C54_27 1_555 1_555
C52_27 C54_27 1_555 1_555
O31_2 C3_12 1_555 1_555
O38_30 C1_12 1_555 1_555
O43_30 C1_12 1_555 1_555
O5_12 C3_12 1_555 1_555
C1_12 C5_12 1_555 1_555
C2_12 H1_12 1_555 1_555
C3_12 C4_12 1_555 1_555
C4_12 C2_12 1_555 1_555
C5_12 C2_12 1_555 1_555
C6_12 C5_12 1_555 1_555
H2_12 C6_12 1_555 1_555
N1_12 C8_12 1_555 1_555
N2_12 H3_12 1_555 1_555
C7_12 C4_12 1_555 1_555
H4_12 C7_12 1_555 1_555
C8_12 N2_12 1_555 1_555
C9_12 C6_12 1_555 1_555
O32_3 C12_12 1_555 1_555
O37_16 C10_12 1_555 1_555
O42_16 C10_12 1_555 1_555
O10_12 C12_12 1_555 1_555
C10_12 C14_12 1_555 1_555
C11_12 H5_12 1_555 1_555
C12_12 C13_12 1_555 1_555
C13_12 C11_12 1_555 1_555
C14_12 C11_12 1_555 1_555
C15_12 C14_12 1_555 1_555
H6_12 C15_12 1_555 1_555
N3_12 C8_12 1_555 1_555
N4_12 H7_12 1_555 1_555
C16_12 C13_12 1_555 1_555
H8_12 C16_12 1_555 1_555
C17_12 N3_12 1_555 1_555
C18_12 C15_12 1_555 1_555
O33 C21_12 1_555 1_555
O36_21 C19_12 1_555 1_555
O41_21 C19_12 1_555 1_555
O14_12 C21_12 1_555 1_555
C19_12 C23_12 1_555 1_555
C20_12 H9_12 1_555 1_555
C21_12 C22_12 1_555 1_555
C22_12 C20_12 1_555 1_555
C23_12 C20_12 1_555 1_555
C24_12 C23_12 1_555 1_555
H10_12 C24_12 1_555 1_555
N5_12 C17_12 1_555 1_555
N6_12 H11_12 1_555 1_555
C25_12 C22_12 1_555 1_555
H12_12 C25_12 1_555 1_555
C26_12 N1_12 1_555 1_555
C27_12 C24_12 1_555 1_555
O31_15 C30_28 1_555 1_555
O38_20 C28_28 1_555 1_555
O43_20 C28_28 1_555 1_555
O22_28 C30_28 1_555 1_555
C28_28 C32_28 1_555 1_555
C29_28 H13_28 1_555 1_555
C30_28 C31_28 1_555 1_555
C31_28 C29_28 1_555 1_555
C32_28 C29_28 1_555 1_555
C33_28 C32_28 1_555 1_555
H14_28 C33_28 1_555 1_555
N7_28 C35_28 1_555 1_555
N8_28 H15_28 1_555 1_555
C34_28 C31_28 1_555 1_555
H16_28 C34_28 1_555 1_555
C35_28 N8_28 1_555 1_555
C36_28 C33_28 1_555 1_555
O32_14 C39_28 1_555 1_555
O37_26 C37_28 1_555 1_555
O42_26 C37_28 1_555 1_555
O26_28 C39_28 1_555 1_555
C37_28 C41_28 1_555 1_555
C38_28 H17_28 1_555 1_555
C39_28 C40_28 1_555 1_555
C40_28 C38_28 1_555 1_555
C41_28 C38_28 1_555 1_555
C42_28 C41_28 1_555 1_555
H18_28 C42_28 1_555 1_555
N9_28 C35_28 1_555 1_555
N10_28 H19_28 1_555 1_555
C43_28 C40_28 1_555 1_555
H20_28 C43_28 1_555 1_555
C44_28 N9_28 1_555 1_555
C45_28 C42_28 1_555 1_555
O33_16 C48_28 1_555 1_555
O30_28 C48_28 1_555 1_555
C46_28 O36_3 1_555 1_555
C47_28 H21_28 1_555 1_555
C48_28 C49_28 1_555 1_555
C49_28 C47_28 1_555 1_555
C50_28 C46_28 1_555 1_555
C51_28 C50_28 1_555 1_555
H22_28 C51_28 1_555 1_555
N11_28 C44_28 1_555 1_555
N12_28 H23_28 1_555 1_555
C52_28 C49_28 1_555 1_555
H24_28 C52_28 1_555 1_555
C53_28 N7_28 1_555 1_555
C54_28 C51_28 1_555 1_555
N2_12 C9_12 1_555 1_555
C7_12 C9_12 1_555 1_555
N4_12 C17_12 1_555 1_555
N4_12 C18_12 1_555 1_555
C16_12 C18_12 1_555 1_555
N5_12 C26_12 1_555 1_555
N6_12 C26_12 1_555 1_555
N6_12 C27_12 1_555 1_555
C25_12 C27_12 1_555 1_555
N8_28 C36_28 1_555 1_555
C34_28 C36_28 1_555 1_555
N10_28 C44_28 1_555 1_555
N10_28 C45_28 1_555 1_555
C43_28 C45_28 1_555 1_555
O41_3 C46_28 1_555 1_555
C47_28 C50_28 1_555 1_555
N11_28 C53_28 1_555 1_555
N12_28 C53_28 1_555 1_555
N12_28 C54_28 1_555 1_555
C52_28 C54_28 1_555 1_555
O33_23 C30_29 1_555 1_555
O36_28 C28_29 1_555 1_555
O41_28 C28_29 1_555 1_555
O22_29 C30_29 1_555 1_555
C28_29 C32_29 1_555 1_555
C29_29 H13_29 1_555 1_555
C30_29 C31_29 1_555 1_555
C31_29 C29_29 1_555 1_555
C32_29 C29_29 1_555 1_555
C33_29 C32_29 1_555 1_555
H14_29 C33_29 1_555 1_555
N7_29 C35_29 1_555 1_555
N8_29 H15_29 1_555 1_555
C34_29 C31_29 1_555 1_555
H16_29 C34_29 1_555 1_555
C35_29 N8_29 1_555 1_555
C36_29 C33_29 1_555 1_555
O31_24 C39_29 1_555 1_555
O38_11 C37_29 1_555 1_555
O43_11 C37_29 1_555 1_555
O26_29 C39_29 1_555 1_555
C37_29 C41_29 1_555 1_555
C38_29 H17_29 1_555 1_555
C39_29 C40_29 1_555 1_555
C40_29 C38_29 1_555 1_555
C41_29 C38_29 1_555 1_555
C42_29 C41_29 1_555 1_555
H18_29 C42_29 1_555 1_555
N9_29 C35_29 1_555 1_555
N10_29 H19_29 1_555 1_555
C43_29 C40_29 1_555 1_555
H20_29 C43_29 1_555 1_555
C44_29 N9_29 1_555 1_555
C45_29 C42_29 1_555 1_555
O32_21 C48_29 1_555 1_555
O30_29 C48_29 1_555 1_555
C46_29 O37 1_555 1_555
C47_29 H21_29 1_555 1_555
C48_29 C49_29 1_555 1_555
C49_29 C47_29 1_555 1_555
C50_29 C46_29 1_555 1_555
C51_29 C50_29 1_555 1_555
H22_29 C51_29 1_555 1_555
N11_29 C44_29 1_555 1_555
N12_29 H23_29 1_555 1_555
C52_29 C49_29 1_555 1_555
H24_29 C52_29 1_555 1_555
C53_29 N7_29 1_555 1_555
C54_29 C51_29 1_555 1_555
N8_29 C36_29 1_555 1_555
C34_29 C36_29 1_555 1_555
N10_29 C44_29 1_555 1_555
N10_29 C45_29 1_555 1_555
C43_29 C45_29 1_555 1_555
O42 C46_29 1_555 1_555
C47_29 C50_29 1_555 1_555
N11_29 C53_29 1_555 1_555
N12_29 C53_29 1_555 1_555
N12_29 C54_29 1_555 1_555
C52_29 C54_29 1_555 1_555
O33_21 C30_30 1_555 1_555
O36_25 C28_30 1_555 1_555
O41_25 C28_30 1_555 1_555
O22_30 C30_30 1_555 1_555
C28_30 C32_30 1_555 1_555
C29_30 H13_30 1_555 1_555
C30_30 C31_30 1_555 1_555
C31_30 C29_30 1_555 1_555
C32_30 C29_30 1_555 1_555
C33_30 C32_30 1_555 1_555
H14_30 C33_30 1_555 1_555
N7_30 C35_30 1_555 1_555
N8_30 H15_30 1_555 1_555
C34_30 C31_30 1_555 1_555
H16_30 C34_30 1_555 1_555
C35_30 N8_30 1_555 1_555
C36_30 C33_30 1_555 1_555
O31_22 C39_30 1_555 1_555
O38_10 C37_30 1_555 1_555
O43_10 C37_30 1_555 1_555
O26_30 C39_30 1_555 1_555
C37_30 C41_30 1_555 1_555
C38_30 H17_30 1_555 1_555
C39_30 C40_30 1_555 1_555
C40_30 C38_30 1_555 1_555
C41_30 C38_30 1_555 1_555
C42_30 C41_30 1_555 1_555
H18_30 C42_30 1_555 1_555
N9_30 C35_30 1_555 1_555
N10_30 H19_30 1_555 1_555
C43_30 C40_30 1_555 1_555
H20_30 C43_30 1_555 1_555
C44_30 N9_30 1_555 1_555
C45_30 C42_30 1_555 1_555
O32_23 C48_30 1_555 1_555
O30_30 C48_30 1_555 1_555
C46_30 O37_4 1_555 1_555
C47_30 H21_30 1_555 1_555
C48_30 C49_30 1_555 1_555
C49_30 C47_30 1_555 1_555
C50_30 C46_30 1_555 1_555
C51_30 C50_30 1_555 1_555
H22_30 C51_30 1_555 1_555
N11_30 C44_30 1_555 1_555
N12_30 H23_30 1_555 1_555
C52_30 C49_30 1_555 1_555
H24_30 C52_30 1_555 1_555
C53_30 N7_30 1_555 1_555
C54_30 C51_30 1_555 1_555
N8_30 C36_30 1_555 1_555
C34_30 C36_30 1_555 1_555
N10_30 C44_30 1_555 1_555
N10_30 C45_30 1_555 1_555
C43_30 C45_30 1_555 1_555
O42_4 C46_30 1_555 1_555
C47_30 C50_30 1_555 1_555
N11_30 C53_30 1_555 1_555
N12_30 C53_30 1_555 1_555
N12_30 C54_30 1_555 1_555
C52_30 C54_30 1_555 1_555
O33_24 C30_31 1_555 1_555
O36_27 C28_31 1_555 1_555
O41_27 C28_31 1_555 1_555
O22_31 C30_31 1_555 1_555
C28_31 C32_31 1_555 1_555
C29_31 H13_31 1_555 1_555
C30_31 C31_31 1_555 1_555
C31_31 C29_31 1_555 1_555
C32_31 C29_31 1_555 1_555
C33_31 C32_31 1_555 1_555
H14_31 C33_31 1_555 1_555
N7_31 C35_31 1_555 1_555
N8_31 H15_31 1_555 1_555
C34_31 C31_31 1_555 1_555
H16_31 C34_31 1_555 1_555
C35_31 N8_31 1_555 1_555
C36_31 C33_31 1_555 1_555
O31_23 C39_31 1_555 1_555
O38_12 C37_31 1_555 1_555
O43_12 C37_31 1_555 1_555
O26_31 C39_31 1_555 1_555
C37_31 C41_31 1_555 1_555
C38_31 H17_31 1_555 1_555
C39_31 C40_31 1_555 1_555
C40_31 C38_31 1_555 1_555
C41_31 C38_31 1_555 1_555
C42_31 C41_31 1_555 1_555
H18_31 C42_31 1_555 1_555
N9_31 C35_31 1_555 1_555
N10_31 H19_31 1_555 1_555
C43_31 C40_31 1_555 1_555
H20_31 C43_31 1_555 1_555
C44_31 N9_31 1_555 1_555
C45_31 C42_31 1_555 1_555
O32_22 C48_31 1_555 1_555
O30_31 C48_31 1_555 1_555
C46_31 O37_2 1_555 1_555
C47_31 H21_31 1_555 1_555
C48_31 C49_31 1_555 1_555
C49_31 C47_31 1_555 1_555
C50_31 C46_31 1_555 1_555
C51_31 C50_31 1_555 1_555
H22_31 C51_31 1_555 1_555
N11_31 C44_31 1_555 1_555
N12_31 H23_31 1_555 1_555
C52_31 C49_31 1_555 1_555
H24_31 C52_31 1_555 1_555
C53_31 N7_31 1_555 1_555
C54_31 C51_31 1_555 1_555
N8_31 C36_31 1_555 1_555
C34_31 C36_31 1_555 1_555
N10_31 C44_31 1_555 1_555
N10_31 C45_31 1_555 1_555
C43_31 C45_31 1_555 1_555
O42_2 C46_31 1_555 1_555
C47_31 C50_31 1_555 1_555
N11_31 C53_31 1_555 1_555
N12_31 C53_31 1_555 1_555
N12_31 C54_31 1_555 1_555
C52_31 C54_31 1_555 1_555
O33_22 C30_32 1_555 1_555
O36_26 C28_32 1_555 1_555
O41_26 C28_32 1_555 1_555
O22_32 C30_32 1_555 1_555
C28_32 C32_32 1_555 1_555
C29_32 H13_32 1_555 1_555
C30_32 C31_32 1_555 1_555
C31_32 C29_32 1_555 1_555
C32_32 C29_32 1_555 1_555
C33_32 C32_32 1_555 1_555
H14_32 C33_32 1_555 1_555
N7_32 C35_32 1_555 1_555
N8_32 H15_32 1_555 1_555
C34_32 C31_32 1_555 1_555
H16_32 C34_32 1_555 1_555
C35_32 N8_32 1_555 1_555
C36_32 C33_32 1_555 1_555
O31_21 C39_32 1_555 1_555
O38_9 C37_32 1_555 1_555
O43_9 C37_32 1_555 1_555
O26_32 C39_32 1_555 1_555
C37_32 C41_32 1_555 1_555
C38_32 H17_32 1_555 1_555
C39_32 C40_32 1_555 1_555
C40_32 C38_32 1_555 1_555
C41_32 C38_32 1_555 1_555
C42_32 C41_32 1_555 1_555
H18_32 C42_32 1_555 1_555
N9_32 C35_32 1_555 1_555
N10_32 H19_32 1_555 1_555
C43_32 C40_32 1_555 1_555
H20_32 C43_32 1_555 1_555
C44_32 N9_32 1_555 1_555
C45_32 C42_32 1_555 1_555
O32_24 C48_32 1_555 1_555
O30_32 C48_32 1_555 1_555
C46_32 O37_3 1_555 1_555
C47_32 H21_32 1_555 1_555
C48_32 C49_32 1_555 1_555
C49_32 C47_32 1_555 1_555
C50_32 C46_32 1_555 1_555
C51_32 C50_32 1_555 1_555
H22_32 C51_32 1_555 1_555
N11_32 C44_32 1_555 1_555
N12_32 H23_32 1_555 1_555
C52_32 C49_32 1_555 1_555
H24_32 C52_32 1_555 1_555
C53_32 N7_32 1_555 1_555
C54_32 C51_32 1_555 1_555
N8_32 C36_32 1_555 1_555
C34_32 C36_32 1_555 1_555
N10_32 C44_32 1_555 1_555
N10_32 C45_32 1_555 1_555
C43_32 C45_32 1_555 1_555
O42_3 C46_32 1_555 1_555
C47_32 C50_32 1_555 1_555
N11_32 C53_32 1_555 1_555
N12_32 C53_32 1_555 1_555
N12_32 C54_32 1_555 1_555
C52_32 C54_32 1_555 1_555
O32_30 C30_33 1_555 1_555
O37_10 C28_33 1_555 1_555
O42_10 C28_33 1_555 1_555
O22_33 C30_33 1_555 1_555
C28_33 C32_33 1_555 1_555
C29_33 H13_33 1_555 1_555
C30_33 C31_33 1_555 1_555
C31_33 C29_33 1_555 1_555
C32_33 C29_33 1_555 1_555
C33_33 C32_33 1_555 1_555
H14_33 C33_33 1_555 1_555
N7_33 C35_33 1_555 1_555
N8_33 H15_33 1_555 1_555
C34_33 C31_33 1_555 1_555
H16_33 C34_33 1_555 1_555
C35_33 N8_33 1_555 1_555
C36_33 C33_33 1_555 1_555
O33_32 C39_33 1_555 1_555
O36_19 C37_33 1_555 1_555
O41_19 C37_33 1_555 1_555
O26_33 C39_33 1_555 1_555
C37_33 C41_33 1_555 1_555
C38_33 H17_33 1_555 1_555
C39_33 C40_33 1_555 1_555
C40_33 C38_33 1_555 1_555
C41_33 C38_33 1_555 1_555
C42_33 C41_33 1_555 1_555
H18_33 C42_33 1_555 1_555
N9_33 C35_33 1_555 1_555
N10_33 H19_33 1_555 1_555
C43_33 C40_33 1_555 1_555
H20_33 C43_33 1_555 1_555
C44_33 N9_33 1_555 1_555
C45_33 C42_33 1_555 1_555
O31_31 C48_33 1_555 1_555
O30_33 C48_33 1_555 1_555
C46_33 O38_4 1_555 1_555
C47_33 H21_33 1_555 1_555
C48_33 C49_33 1_555 1_555
C49_33 C47_33 1_555 1_555
C50_33 C46_33 1_555 1_555
C51_33 C50_33 1_555 1_555
H22_33 C51_33 1_555 1_555
N11_33 C44_33 1_555 1_555
N12_33 H23_33 1_555 1_555
C52_33 C49_33 1_555 1_555
H24_33 C52_33 1_555 1_555
C53_33 N7_33 1_555 1_555
C54_33 C51_33 1_555 1_555
N8_33 C36_33 1_555 1_555
C34_33 C36_33 1_555 1_555
N10_33 C44_33 1_555 1_555
N10_33 C45_33 1_555 1_555
C43_33 C45_33 1_555 1_555
O43_4 C46_33 1_555 1_555
C47_33 C50_33 1_555 1_555
N11_33 C53_33 1_555 1_555
N12_33 C53_33 1_555 1_555
N12_33 C54_33 1_555 1_555
C52_33 C54_33 1_555 1_555
O32_31 C30_34 1_555 1_555
O37_12 C28_34 1_555 1_555
O42_12 C28_34 1_555 1_555
O22_34 C30_34 1_555 1_555
C28_34 C32_34 1_555 1_555
C29_34 H13_34 1_555 1_555
C30_34 C31_34 1_555 1_555
C31_34 C29_34 1_555 1_555
C32_34 C29_34 1_555 1_555
C33_34 C32_34 1_555 1_555
H14_34 C33_34 1_555 1_555
N7_34 C35_34 1_555 1_555
N8_34 H15_34 1_555 1_555
C34_34 C31_34 1_555 1_555
H16_34 C34_34 1_555 1_555
C35_34 N8_34 1_555 1_555
C36_34 C33_34 1_555 1_555
O33_29 C39_34 1_555 1_555
O36_17 C37_34 1_555 1_555
O41_17 C37_34 1_555 1_555
O26_34 C39_34 1_555 1_555
C37_34 C41_34 1_555 1_555
C38_34 H17_34 1_555 1_555
C39_34 C40_34 1_555 1_555
C40_34 C38_34 1_555 1_555
C41_34 C38_34 1_555 1_555
C42_34 C41_34 1_555 1_555
H18_34 C42_34 1_555 1_555
N9_34 C35_34 1_555 1_555
N10_34 H19_34 1_555 1_555
C43_34 C40_34 1_555 1_555
H20_34 C43_34 1_555 1_555
C44_34 N9_34 1_555 1_555
C45_34 C42_34 1_555 1_555
O31_30 C48_34 1_555 1_555
O30_34 C48_34 1_555 1_555
C46_34 O38_2 1_555 1_555
C47_34 H21_34 1_555 1_555
C48_34 C49_34 1_555 1_555
C49_34 C47_34 1_555 1_555
C50_34 C46_34 1_555 1_555
C51_34 C50_34 1_555 1_555
H22_34 C51_34 1_555 1_555
N11_34 C44_34 1_555 1_555
N12_34 H23_34 1_555 1_555
C52_34 C49_34 1_555 1_555
H24_34 C52_34 1_555 1_555
C53_34 N7_34 1_555 1_555
C54_34 C51_34 1_555 1_555
N8_34 C36_34 1_555 1_555
C34_34 C36_34 1_555 1_555
N10_34 C44_34 1_555 1_555
N10_34 C45_34 1_555 1_555
C43_34 C45_34 1_555 1_555
O43_2 C46_34 1_555 1_555
C47_34 C50_34 1_555 1_555
N11_34 C53_34 1_555 1_555
N12_34 C53_34 1_555 1_555
N12_34 C54_34 1_555 1_555
C52_34 C54_34 1_555 1_555
O32_32 C30_35 1_555 1_555
O37_11 C28_35 1_555 1_555
O42_11 C28_35 1_555 1_555
O22_35 C30_35 1_555 1_555
C28_35 C32_35 1_555 1_555
C29_35 H13_35 1_555 1_555
C30_35 C31_35 1_555 1_555
C31_35 C29_35 1_555 1_555
C32_35 C29_35 1_555 1_555
C33_35 C32_35 1_555 1_555
H14_35 C33_35 1_555 1_555
N7_35 C35_35 1_555 1_555
N8_35 H15_35 1_555 1_555
C34_35 C31_35 1_555 1_555
H16_35 C34_35 1_555 1_555
C35_35 N8_35 1_555 1_555
C36_35 C33_35 1_555 1_555
O33_30 C39_35 1_555 1_555
O36_18 C37_35 1_555 1_555
O41_18 C37_35 1_555 1_555
O26_35 C39_35 1_555 1_555
C37_35 C41_35 1_555 1_555
C38_35 H17_35 1_555 1_555
C39_35 C40_35 1_555 1_555
C40_35 C38_35 1_555 1_555
C41_35 C38_35 1_555 1_555
C42_35 C41_35 1_555 1_555
H18_35 C42_35 1_555 1_555
N9_35 C35_35 1_555 1_555
N10_35 H19_35 1_555 1_555
C43_35 C40_35 1_555 1_555
H20_35 C43_35 1_555 1_555
C44_35 N9_35 1_555 1_555
C45_35 C42_35 1_555 1_555
O31_29 C48_35 1_555 1_555
O30_35 C48_35 1_555 1_555
C46_35 O38 1_555 1_555
C47_35 H21_35 1_555 1_555
C48_35 C49_35 1_555 1_555
C49_35 C47_35 1_555 1_555
C50_35 C46_35 1_555 1_555
C51_35 C50_35 1_555 1_555
H22_35 C51_35 1_555 1_555
N11_35 C44_35 1_555 1_555
N12_35 H23_35 1_555 1_555
C52_35 C49_35 1_555 1_555
H24_35 C52_35 1_555 1_555
C53_35 N7_35 1_555 1_555
C54_35 C51_35 1_555 1_555
N8_35 C36_35 1_555 1_555
C34_35 C36_35 1_555 1_555
N10_35 C44_35 1_555 1_555
N10_35 C45_35 1_555 1_555
C43_35 C45_35 1_555 1_555
O43 C46_35 1_555 1_555
C47_35 C50_35 1_555 1_555
N11_35 C53_35 1_555 1_555
N12_35 C53_35 1_555 1_555
N12_35 C54_35 1_555 1_555
C52_35 C54_35 1_555 1_555
O32_29 C30_36 1_555 1_555
O37_9 C28_36 1_555 1_555
O42_9 C28_36 1_555 1_555
O22_36 C30_36 1_555 1_555
C28_36 C32_36 1_555 1_555
C29_36 H13_36 1_555 1_555
C30_36 C31_36 1_555 1_555
C31_36 C29_36 1_555 1_555
C32_36 C29_36 1_555 1_555
C33_36 C32_36 1_555 1_555
H14_36 C33_36 1_555 1_555
N7_36 C35_36 1_555 1_555
N8_36 H15_36 1_555 1_555
C34_36 C31_36 1_555 1_555
H16_36 C34_36 1_555 1_555
C35_36 N8_36 1_555 1_555
C36_36 C33_36 1_555 1_555
O33_31 C39_36 1_555 1_555
O36_20 C37_36 1_555 1_555
O41_20 C37_36 1_555 1_555
O26_36 C39_36 1_555 1_555
C37_36 C41_36 1_555 1_555
C38_36 H17_36 1_555 1_555
C39_36 C40_36 1_555 1_555
C40_36 C38_36 1_555 1_555
C41_36 C38_36 1_555 1_555
C42_36 C41_36 1_555 1_555
H18_36 C42_36 1_555 1_555
N9_36 C35_36 1_555 1_555
N10_36 H19_36 1_555 1_555
C43_36 C40_36 1_555 1_555
H20_36 C43_36 1_555 1_555
C44_36 N9_36 1_555 1_555
C45_36 C42_36 1_555 1_555
O31_32 C48_36 1_555 1_555
O30_36 C48_36 1_555 1_555
C46_36 O38_3 1_555 1_555
C47_36 H21_36 1_555 1_555
C48_36 C49_36 1_555 1_555
C49_36 C47_36 1_555 1_555
C50_36 C46_36 1_555 1_555
C51_36 C50_36 1_555 1_555
H22_36 C51_36 1_555 1_555
N11_36 C44_36 1_555 1_555
N12_36 H23_36 1_555 1_555
C52_36 C49_36 1_555 1_555
H24_36 C52_36 1_555 1_555
C53_36 N7_36 1_555 1_555
C54_36 C51_36 1_555 1_555
N8_36 C36_36 1_555 1_555
C34_36 C36_36 1_555 1_555
N10_36 C44_36 1_555 1_555
N10_36 C45_36 1_555 1_555
C43_36 C45_36 1_555 1_555
O43_3 C46_36 1_555 1_555
C47_36 C50_36 1_555 1_555
N11_36 C53_36 1_555 1_555
N12_36 C53_36 1_555 1_555
N12_36 C54_36 1_555 1_555
C52_36 C54_36 1_555 1_555
O3_9 H26_17 1_555 1_555
O6_9 H27_17 1_555 1_555
O6_9 H28_17 1_555 1_555
O16_7 H31_17 1_555 1_555
O16_7 H32_17 1_555 1_555
O15_7 H34_17 1_555 1_555
O31_7 C3_13 1_555 1_555
O38_28 C1_13 1_555 1_555
O43_28 C1_13 1_555 1_555
O5_13 C3_13 1_555 1_555
C1_13 C5_13 1_555 1_555
C2_13 H1_13 1_555 1_555
C3_13 C4_13 1_555 1_555
C4_13 C2_13 1_555 1_555
C5_13 C2_13 1_555 1_555
C6_13 C5_13 1_555 1_555
H2_13 C6_13 1_555 1_555
N1_13 C8_13 1_555 1_555
N2_13 H3_13 1_555 1_555
C7_13 C4_13 1_555 1_555
H4_13 C7_13 1_555 1_555
C8_13 N2_13 1_555 1_555
C9_13 C6_13 1_555 1_555
O32_6 C12_13 1_555 1_555
O37_18 C10_13 1_555 1_555
O42_18 C10_13 1_555 1_555
O10_13 C12_13 1_555 1_555
C10_13 C14_13 1_555 1_555
C11_13 H5_13 1_555 1_555
C12_13 C13_13 1_555 1_555
C13_13 C11_13 1_555 1_555
C14_13 C11_13 1_555 1_555
C15_13 C14_13 1_555 1_555
H6_13 C15_13 1_555 1_555
N3_13 C8_13 1_555 1_555
N4_13 H7_13 1_555 1_555
C16_13 C13_13 1_555 1_555
H8_13 C16_13 1_555 1_555
C17_13 N3_13 1_555 1_555
C18_13 C15_13 1_555 1_555
O33_8 C21_13 1_555 1_555
O36_11 C19_13 1_555 1_555
O41_11 C19_13 1_555 1_555
O14_13 C21_13 1_555 1_555
C19_13 C23_13 1_555 1_555
C20_13 H9_13 1_555 1_555
C21_13 C22_13 1_555 1_555
C22_13 C20_13 1_555 1_555
C23_13 C20_13 1_555 1_555
C24_13 C23_13 1_555 1_555
H10_13 C24_13 1_555 1_555
N5_13 C17_13 1_555 1_555
N6_13 H11_13 1_555 1_555
C25_13 C22_13 1_555 1_555
H12_13 C25_13 1_555 1_555
C26_13 N1_13 1_555 1_555
C27_13 C24_13 1_555 1_555
O31_17 C30_37 1_555 1_555
O38_13 C28_37 1_555 1_555
O43_13 C28_37 1_555 1_555
O22_37 C30_37 1_555 1_555
C28_37 C32_37 1_555 1_555
C29_37 H13_37 1_555 1_555
C30_37 C31_37 1_555 1_555
C31_37 C29_37 1_555 1_555
C32_37 C29_37 1_555 1_555
C33_37 C32_37 1_555 1_555
H14_37 C33_37 1_555 1_555
N7_37 C35_37 1_555 1_555
N8_37 H15_37 1_555 1_555
C34_37 C31_37 1_555 1_555
H16_37 C34_37 1_555 1_555
C35_37 N8_37 1_555 1_555
C36_37 C33_37 1_555 1_555
O32_20 C39_37 1_555 1_555
O37_31 C37_37 1_555 1_555
O42_31 C37_37 1_555 1_555
O26_37 C39_37 1_555 1_555
C37_37 C41_37 1_555 1_555
C38_37 H17_37 1_555 1_555
C39_37 C40_37 1_555 1_555
C40_37 C38_37 1_555 1_555
C41_37 C38_37 1_555 1_555
C42_37 C41_37 1_555 1_555
H18_37 C42_37 1_555 1_555
N9_37 C35_37 1_555 1_555
N10_37 H19_37 1_555 1_555
C43_37 C40_37 1_555 1_555
H20_37 C43_37 1_555 1_555
C44_37 N9_37 1_555 1_555
C45_37 C42_37 1_555 1_555
O33_18 C48_37 1_555 1_555
O30_37 C48_37 1_555 1_555
C46_37 O36_6 1_555 1_555
C47_37 H21_37 1_555 1_555
C48_37 C49_37 1_555 1_555
C49_37 C47_37 1_555 1_555
C50_37 C46_37 1_555 1_555
C51_37 C50_37 1_555 1_555
H22_37 C51_37 1_555 1_555
N11_37 C44_37 1_555 1_555
N12_37 H23_37 1_555 1_555
C52_37 C49_37 1_555 1_555
H24_37 C52_37 1_555 1_555
C53_37 N7_37 1_555 1_555
C54_37 C51_37 1_555 1_555
N2_13 C9_13 1_555 1_555
C7_13 C9_13 1_555 1_555
N4_13 C17_13 1_555 1_555
N4_13 C18_13 1_555 1_555
C16_13 C18_13 1_555 1_555
N5_13 C26_13 1_555 1_555
N6_13 C26_13 1_555 1_555
N6_13 C27_13 1_555 1_555
C25_13 C27_13 1_555 1_555
N8_37 C36_37 1_555 1_555
C34_37 C36_37 1_555 1_555
N10_37 C44_37 1_555 1_555
N10_37 C45_37 1_555 1_555
C43_37 C45_37 1_555 1_555
O41_6 C46_37 1_555 1_555
C47_37 C50_37 1_555 1_555
N11_37 C53_37 1_555 1_555
N12_37 C53_37 1_555 1_555
N12_37 C54_37 1_555 1_555
C52_37 C54_37 1_555 1_555
O3_10 H25_17 1_555 1_555
O15_8 H33_17 1_555 1_555
O17_11 H35_17 1_555 1_555
O18_12 H29_17 1_555 1_555
O18_12 H30_17 1_555 1_555
O17_12 H36_17 1_555 1_555
O18_9 H29_18 1_555 1_555
O18_9 H30_18 1_555 1_555
O17_9 H36_18 1_555 1_555
O16_5 H31_18 1_555 1_555
O16_5 H32_18 1_555 1_555
O15_5 H34_18 1_555 1_555
O31_8 C3_14 1_555 1_555
O38_27 C1_14 1_555 1_555
O43_27 C1_14 1_555 1_555
O5_14 C3_14 1_555 1_555
C1_14 C5_14 1_555 1_555
C2_14 H1_14 1_555 1_555
C3_14 C4_14 1_555 1_555
C4_14 C2_14 1_555 1_555
C5_14 C2_14 1_555 1_555
C6_14 C5_14 1_555 1_555
H2_14 C6_14 1_555 1_555
N1_14 C8_14 1_555 1_555
N2_14 H3_14 1_555 1_555
C7_14 C4_14 1_555 1_555
H4_14 C7_14 1_555 1_555
C8_14 N2_14 1_555 1_555
C9_14 C6_14 1_555 1_555
O32_5 C12_14 1_555 1_555
O37_17 C10_14 1_555 1_555
O42_17 C10_14 1_555 1_555
O10_14 C12_14 1_555 1_555
C10_14 C14_14 1_555 1_555
C11_14 H5_14 1_555 1_555
C12_14 C13_14 1_555 1_555
C13_14 C11_14 1_555 1_555
C14_14 C11_14 1_555 1_555
C15_14 C14_14 1_555 1_555
H6_14 C15_14 1_555 1_555
N3_14 C8_14 1_555 1_555
N4_14 H7_14 1_555 1_555
C16_14 C13_14 1_555 1_555
H8_14 C16_14 1_555 1_555
C17_14 N3_14 1_555 1_555
C18_14 C15_14 1_555 1_555
O33_7 C21_14 1_555 1_555
O36_12 C19_14 1_555 1_555
O41_12 C19_14 1_555 1_555
O14_14 C21_14 1_555 1_555
C19_14 C23_14 1_555 1_555
C20_14 H9_14 1_555 1_555
C21_14 C22_14 1_555 1_555
C22_14 C20_14 1_555 1_555
C23_14 C20_14 1_555 1_555
C24_14 C23_14 1_555 1_555
H10_14 C24_14 1_555 1_555
N5_14 C17_14 1_555 1_555
N6_14 H11_14 1_555 1_555
C25_14 C22_14 1_555 1_555
H12_14 C25_14 1_555 1_555
C26_14 N1_14 1_555 1_555
C27_14 C24_14 1_555 1_555
O31_18 C30_38 1_555 1_555
O38_14 C28_38 1_555 1_555
O43_14 C28_38 1_555 1_555
O22_38 C30_38 1_555 1_555
C28_38 C32_38 1_555 1_555
C29_38 H13_38 1_555 1_555
C30_38 C31_38 1_555 1_555
C31_38 C29_38 1_555 1_555
C32_38 C29_38 1_555 1_555
C33_38 C32_38 1_555 1_555
H14_38 C33_38 1_555 1_555
N7_38 C35_38 1_555 1_555
N8_38 H15_38 1_555 1_555
C34_38 C31_38 1_555 1_555
H16_38 C34_38 1_555 1_555
C35_38 N8_38 1_555 1_555
C36_38 C33_38 1_555 1_555
O32_19 C39_38 1_555 1_555
O37_32 C37_38 1_555 1_555
O42_32 C37_38 1_555 1_555
O26_38 C39_38 1_555 1_555
C37_38 C41_38 1_555 1_555
C38_38 H17_38 1_555 1_555
C39_38 C40_38 1_555 1_555
C40_38 C38_38 1_555 1_555
C41_38 C38_38 1_555 1_555
C42_38 C41_38 1_555 1_555
H18_38 C42_38 1_555 1_555
N9_38 C35_38 1_555 1_555
N10_38 H19_38 1_555 1_555
C43_38 C40_38 1_555 1_555
H20_38 C43_38 1_555 1_555
C44_38 N9_38 1_555 1_555
C45_38 C42_38 1_555 1_555
O33_17 C48_38 1_555 1_555
O30_38 C48_38 1_555 1_555
C46_38 O36_5 1_555 1_555
C47_38 H21_38 1_555 1_555
C48_38 C49_38 1_555 1_555
C49_38 C47_38 1_555 1_555
C50_38 C46_38 1_555 1_555
C51_38 C50_38 1_555 1_555
H22_38 C51_38 1_555 1_555
N11_38 C44_38 1_555 1_555
N12_38 H23_38 1_555 1_555
C52_38 C49_38 1_555 1_555
H24_38 C52_38 1_555 1_555
C53_38 N7_38 1_555 1_555
C54_38 C51_38 1_555 1_555
N2_14 C9_14 1_555 1_555
C7_14 C9_14 1_555 1_555
N4_14 C17_14 1_555 1_555
N4_14 C18_14 1_555 1_555
C16_14 C18_14 1_555 1_555
N5_14 C26_14 1_555 1_555
N6_14 C26_14 1_555 1_555
N6_14 C27_14 1_555 1_555
C25_14 C27_14 1_555 1_555
N8_38 C36_38 1_555 1_555
C34_38 C36_38 1_555 1_555
N10_38 C44_38 1_555 1_555
N10_38 C45_38 1_555 1_555
C43_38 C45_38 1_555 1_555
O41_5 C46_38 1_555 1_555
C47_38 C50_38 1_555 1_555
N11_38 C53_38 1_555 1_555
N12_38 C53_38 1_555 1_555
N12_38 C54_38 1_555 1_555
C52_38 C54_38 1_555 1_555
O3_11 H25_18 1_555 1_555
O15_6 H33_18 1_555 1_555
O17_10 H35_18 1_555 1_555
O3_12 H26_18 1_555 1_555
O6_12 H27_18 1_555 1_555
O6_12 H28_18 1_555 1_555
O3_5 H26_19 1_555 1_555
O6_5 H27_19 1_555 1_555
O6_5 H28_19 1_555 1_555
O18_7 H29_19 1_555 1_555
O18_7 H30_19 1_555 1_555
O17_7 H36_19 1_555 1_555
O31_5 C3_15 1_555 1_555
O38_25 C1_15 1_555 1_555
O43_25 C1_15 1_555 1_555
O5_15 C3_15 1_555 1_555
C1_15 C5_15 1_555 1_555
C2_15 H1_15 1_555 1_555
C3_15 C4_15 1_555 1_555
C4_15 C2_15 1_555 1_555
C5_15 C2_15 1_555 1_555
C6_15 C5_15 1_555 1_555
H2_15 C6_15 1_555 1_555
N1_15 C8_15 1_555 1_555
N2_15 H3_15 1_555 1_555
C7_15 C4_15 1_555 1_555
H4_15 C7_15 1_555 1_555
C8_15 N2_15 1_555 1_555
C9_15 C6_15 1_555 1_555
O32_8 C12_15 1_555 1_555
O37_19 C10_15 1_555 1_555
O42_19 C10_15 1_555 1_555
O10_15 C12_15 1_555 1_555
C10_15 C14_15 1_555 1_555
C11_15 H5_15 1_555 1_555
C12_15 C13_15 1_555 1_555
C13_15 C11_15 1_555 1_555
C14_15 C11_15 1_555 1_555
C15_15 C14_15 1_555 1_555
H6_15 C15_15 1_555 1_555
N3_15 C8_15 1_555 1_555
N4_15 H7_15 1_555 1_555
C16_15 C13_15 1_555 1_555
H8_15 C16_15 1_555 1_555
C17_15 N3_15 1_555 1_555
C18_15 C15_15 1_555 1_555
O33_6 C21_15 1_555 1_555
O36_10 C19_15 1_555 1_555
O41_10 C19_15 1_555 1_555
O14_15 C21_15 1_555 1_555
C19_15 C23_15 1_555 1_555
C20_15 H9_15 1_555 1_555
C21_15 C22_15 1_555 1_555
C22_15 C20_15 1_555 1_555
C23_15 C20_15 1_555 1_555
C24_15 C23_15 1_555 1_555
H10_15 C24_15 1_555 1_555
N5_15 C17_15 1_555 1_555
N6_15 H11_15 1_555 1_555
C25_15 C22_15 1_555 1_555
H12_15 C25_15 1_555 1_555
C26_15 N1_15 1_555 1_555
C27_15 C24_15 1_555 1_555
O31_20 C30_39 1_555 1_555
O38_15 C28_39 1_555 1_555
O43_15 C28_39 1_555 1_555
O22_39 C30_39 1_555 1_555
C28_39 C32_39 1_555 1_555
C29_39 H13_39 1_555 1_555
C30_39 C31_39 1_555 1_555
C31_39 C29_39 1_555 1_555
C32_39 C29_39 1_555 1_555
C33_39 C32_39 1_555 1_555
H14_39 C33_39 1_555 1_555
N7_39 C35_39 1_555 1_555
N8_39 H15_39 1_555 1_555
C34_39 C31_39 1_555 1_555
H16_39 C34_39 1_555 1_555
C35_39 N8_39 1_555 1_555
C36_39 C33_39 1_555 1_555
O32_17 C39_39 1_555 1_555
O37_29 C37_39 1_555 1_555
O42_29 C37_39 1_555 1_555
O26_39 C39_39 1_555 1_555
C37_39 C41_39 1_555 1_555
C38_39 H17_39 1_555 1_555
C39_39 C40_39 1_555 1_555
C40_39 C38_39 1_555 1_555
C41_39 C38_39 1_555 1_555
C42_39 C41_39 1_555 1_555
H18_39 C42_39 1_555 1_555
N9_39 C35_39 1_555 1_555
N10_39 H19_39 1_555 1_555
C43_39 C40_39 1_555 1_555
H20_39 C43_39 1_555 1_555
C44_39 N9_39 1_555 1_555
C45_39 C42_39 1_555 1_555
O33_19 C48_39 1_555 1_555
O30_39 C48_39 1_555 1_555
C46_39 O36_8 1_555 1_555
C47_39 H21_39 1_555 1_555
C48_39 C49_39 1_555 1_555
C49_39 C47_39 1_555 1_555
C50_39 C46_39 1_555 1_555
C51_39 C50_39 1_555 1_555
H22_39 C51_39 1_555 1_555
N11_39 C44_39 1_555 1_555
N12_39 H23_39 1_555 1_555
C52_39 C49_39 1_555 1_555
H24_39 C52_39 1_555 1_555
C53_39 N7_39 1_555 1_555
C54_39 C51_39 1_555 1_555
N2_15 C9_15 1_555 1_555
C7_15 C9_15 1_555 1_555
N4_15 C17_15 1_555 1_555
N4_15 C18_15 1_555 1_555
C16_15 C18_15 1_555 1_555
N5_15 C26_15 1_555 1_555
N6_15 C26_15 1_555 1_555
N6_15 C27_15 1_555 1_555
C25_15 C27_15 1_555 1_555
N8_39 C36_39 1_555 1_555
C34_39 C36_39 1_555 1_555
N10_39 C44_39 1_555 1_555
N10_39 C45_39 1_555 1_555
C43_39 C45_39 1_555 1_555
O41_8 C46_39 1_555 1_555
C47_39 C50_39 1_555 1_555
N11_39 C53_39 1_555 1_555
N12_39 C53_39 1_555 1_555
N12_39 C54_39 1_555 1_555
C52_39 C54_39 1_555 1_555
O3_6 H25_19 1_555 1_555
O15_11 H33_19 1_555 1_555
O17_8 H35_19 1_555 1_555
O16_12 H31_19 1_555 1_555
O16_12 H32_19 1_555 1_555
O15_12 H34_19 1_555 1_555
O31_6 C3_16 1_555 1_555
O38_26 C1_16 1_555 1_555
O43_26 C1_16 1_555 1_555
O5_16 C3_16 1_555 1_555
C1_16 C5_16 1_555 1_555
C2_16 H1_16 1_555 1_555
C3_16 C4_16 1_555 1_555
C4_16 C2_16 1_555 1_555
C5_16 C2_16 1_555 1_555
C6_16 C5_16 1_555 1_555
H2_16 C6_16 1_555 1_555
N1_16 C8_16 1_555 1_555
N2_16 H3_16 1_555 1_555
C7_16 C4_16 1_555 1_555
H4_16 C7_16 1_555 1_555
C8_16 N2_16 1_555 1_555
C9_16 C6_16 1_555 1_555
O32_7 C12_16 1_555 1_555
O37_20 C10_16 1_555 1_555
O42_20 C10_16 1_555 1_555
O10_16 C12_16 1_555 1_555
C10_16 C14_16 1_555 1_555
C11_16 H5_16 1_555 1_555
C12_16 C13_16 1_555 1_555
C13_16 C11_16 1_555 1_555
C14_16 C11_16 1_555 1_555
C15_16 C14_16 1_555 1_555
H6_16 C15_16 1_555 1_555
N3_16 C8_16 1_555 1_555
N4_16 H7_16 1_555 1_555
C16_16 C13_16 1_555 1_555
H8_16 C16_16 1_555 1_555
C17_16 N3_16 1_555 1_555
C18_16 C15_16 1_555 1_555
O33_5 C21_16 1_555 1_555
O36_9 C19_16 1_555 1_555
O41_9 C19_16 1_555 1_555
O14_16 C21_16 1_555 1_555
C19_16 C23_16 1_555 1_555
C20_16 H9_16 1_555 1_555
C21_16 C22_16 1_555 1_555
C22_16 C20_16 1_555 1_555
C23_16 C20_16 1_555 1_555
C24_16 C23_16 1_555 1_555
H10_16 C24_16 1_555 1_555
N5_16 C17_16 1_555 1_555
N6_16 H11_16 1_555 1_555
C25_16 C22_16 1_555 1_555
H12_16 C25_16 1_555 1_555
C26_16 N1_16 1_555 1_555
C27_16 C24_16 1_555 1_555
O31_19 C30_40 1_555 1_555
O38_16 C28_40 1_555 1_555
O43_16 C28_40 1_555 1_555
O22_40 C30_40 1_555 1_555
C28_40 C32_40 1_555 1_555
C29_40 H13_40 1_555 1_555
C30_40 C31_40 1_555 1_555
C31_40 C29_40 1_555 1_555
C32_40 C29_40 1_555 1_555
C33_40 C32_40 1_555 1_555
H14_40 C33_40 1_555 1_555
N7_40 C35_40 1_555 1_555
N8_40 H15_40 1_555 1_555
C34_40 C31_40 1_555 1_555
H16_40 C34_40 1_555 1_555
C35_40 N8_40 1_555 1_555
C36_40 C33_40 1_555 1_555
O32_18 C39_40 1_555 1_555
O37_30 C37_40 1_555 1_555
O42_30 C37_40 1_555 1_555
O26_40 C39_40 1_555 1_555
C37_40 C41_40 1_555 1_555
C38_40 H17_40 1_555 1_555
C39_40 C40_40 1_555 1_555
C40_40 C38_40 1_555 1_555
C41_40 C38_40 1_555 1_555
C42_40 C41_40 1_555 1_555
H18_40 C42_40 1_555 1_555
N9_40 C35_40 1_555 1_555
N10_40 H19_40 1_555 1_555
C43_40 C40_40 1_555 1_555
H20_40 C43_40 1_555 1_555
C44_40 N9_40 1_555 1_555
C45_40 C42_40 1_555 1_555
O33_20 C48_40 1_555 1_555
O30_40 C48_40 1_555 1_555
C46_40 O36_7 1_555 1_555
C47_40 H21_40 1_555 1_555
C48_40 C49_40 1_555 1_555
C49_40 C47_40 1_555 1_555
C50_40 C46_40 1_555 1_555
C51_40 C50_40 1_555 1_555
H22_40 C51_40 1_555 1_555
N11_40 C44_40 1_555 1_555
N12_40 H23_40 1_555 1_555
C52_40 C49_40 1_555 1_555
H24_40 C52_40 1_555 1_555
C53_40 N7_40 1_555 1_555
C54_40 C51_40 1_555 1_555
N2_16 C9_16 1_555 1_555
C7_16 C9_16 1_555 1_555
N4_16 C17_16 1_555 1_555
N4_16 C18_16 1_555 1_555
C16_16 C18_16 1_555 1_555
N5_16 C26_16 1_555 1_555
N6_16 C26_16 1_555 1_555
N6_16 C27_16 1_555 1_555
C25_16 C27_16 1_555 1_555
N8_40 C36_40 1_555 1_555
C34_40 C36_40 1_555 1_555
N10_40 C44_40 1_555 1_555
N10_40 C45_40 1_555 1_555
C43_40 C45_40 1_555 1_555
O41_7 C46_40 1_555 1_555
C47_40 C50_40 1_555 1_555
N11_40 C53_40 1_555 1_555
N12_40 C53_40 1_555 1_555
N12_40 C54_40 1_555 1_555
C52_40 C54_40 1_555 1_555
O3_7 H25_20 1_555 1_555
O15_9 H33_20 1_555 1_555
O17_5 H35_20 1_555 1_555
O16_10 H31_20 1_555 1_555
O16_10 H32_20 1_555 1_555
O15_10 H34_20 1_555 1_555
O18_6 H29_20 1_555 1_555
O18_6 H30_20 1_555 1_555
O17_6 H36_20 1_555 1_555
O3_8 H26_20 1_555 1_555
O6_8 H27_20 1_555 1_555
O6_8 H28_20 1_555 1_555
O33_11 C30_41 1_555 1_555
O36_32 C28_41 1_555 1_555
O41_32 C28_41 1_555 1_555
O22_41 C30_41 1_555 1_555
C28_41 C32_41 1_555 1_555
C29_41 H13_41 1_555 1_555
C30_41 C31_41 1_555 1_555
C31_41 C29_41 1_555 1_555
C32_41 C29_41 1_555 1_555
C33_41 C32_41 1_555 1_555
H14_41 C33_41 1_555 1_555
N7_41 C35_41 1_555 1_555
N8_41 H15_41 1_555 1_555
C34_41 C31_41 1_555 1_555
H16_41 C34_41 1_555 1_555
C35_41 N8_41 1_555 1_555
C36_41 C33_41 1_555 1_555
O31_12 C39_41 1_555 1_555
O38_23 C37_41 1_555 1_555
O43_23 C37_41 1_555 1_555
O26_41 C39_41 1_555 1_555
C37_41 C41_41 1_555 1_555
C38_41 H17_41 1_555 1_555
C39_41 C40_41 1_555 1_555
C40_41 C38_41 1_555 1_555
C41_41 C38_41 1_555 1_555
C42_41 C41_41 1_555 1_555
H18_41 C42_41 1_555 1_555
N9_41 C35_41 1_555 1_555
N10_41 H19_41 1_555 1_555
C43_41 C40_41 1_555 1_555
H20_41 C43_41 1_555 1_555
C44_41 N9_41 1_555 1_555
C45_41 C42_41 1_555 1_555
O32_9 C48_41 1_555 1_555
O30_41 C48_41 1_555 1_555
C46_41 O37_5 1_555 1_555
C47_41 H21_41 1_555 1_555
C48_41 C49_41 1_555 1_555
C49_41 C47_41 1_555 1_555
C50_41 C46_41 1_555 1_555
C51_41 C50_41 1_555 1_555
H22_41 C51_41 1_555 1_555
N11_41 C44_41 1_555 1_555
N12_41 H23_41 1_555 1_555
C52_41 C49_41 1_555 1_555
H24_41 C52_41 1_555 1_555
C53_41 N7_41 1_555 1_555
C54_41 C51_41 1_555 1_555
N8_41 C36_41 1_555 1_555
C34_41 C36_41 1_555 1_555
N10_41 C44_41 1_555 1_555
N10_41 C45_41 1_555 1_555
C43_41 C45_41 1_555 1_555
O42_5 C46_41 1_555 1_555
C47_41 C50_41 1_555 1_555
N11_41 C53_41 1_555 1_555
N12_41 C53_41 1_555 1_555
N12_41 C54_41 1_555 1_555
C52_41 C54_41 1_555 1_555
O33_9 C30_42 1_555 1_555
O36_29 C28_42 1_555 1_555
O41_29 C28_42 1_555 1_555
O22_42 C30_42 1_555 1_555
C28_42 C32_42 1_555 1_555
C29_42 H13_42 1_555 1_555
C30_42 C31_42 1_555 1_555
C31_42 C29_42 1_555 1_555
C32_42 C29_42 1_555 1_555
C33_42 C32_42 1_555 1_555
H14_42 C33_42 1_555 1_555
N7_42 C35_42 1_555 1_555
N8_42 H15_42 1_555 1_555
C34_42 C31_42 1_555 1_555
H16_42 C34_42 1_555 1_555
C35_42 N8_42 1_555 1_555
C36_42 C33_42 1_555 1_555
O31_10 C39_42 1_555 1_555
O38_22 C37_42 1_555 1_555
O43_22 C37_42 1_555 1_555
O26_42 C39_42 1_555 1_555
C37_42 C41_42 1_555 1_555
C38_42 H17_42 1_555 1_555
C39_42 C40_42 1_555 1_555
C40_42 C38_42 1_555 1_555
C41_42 C38_42 1_555 1_555
C42_42 C41_42 1_555 1_555
H18_42 C42_42 1_555 1_555
N9_42 C35_42 1_555 1_555
N10_42 H19_42 1_555 1_555
C43_42 C40_42 1_555 1_555
H20_42 C43_42 1_555 1_555
C44_42 N9_42 1_555 1_555
C45_42 C42_42 1_555 1_555
O32_11 C48_42 1_555 1_555
O30_42 C48_42 1_555 1_555
C46_42 O37_8 1_555 1_555
C47_42 H21_42 1_555 1_555
C48_42 C49_42 1_555 1_555
C49_42 C47_42 1_555 1_555
C50_42 C46_42 1_555 1_555
C51_42 C50_42 1_555 1_555
H22_42 C51_42 1_555 1_555
N11_42 C44_42 1_555 1_555
N12_42 H23_42 1_555 1_555
C52_42 C49_42 1_555 1_555
H24_42 C52_42 1_555 1_555
C53_42 N7_42 1_555 1_555
C54_42 C51_42 1_555 1_555
N8_42 C36_42 1_555 1_555
C34_42 C36_42 1_555 1_555
N10_42 C44_42 1_555 1_555
N10_42 C45_42 1_555 1_555
C43_42 C45_42 1_555 1_555
O42_8 C46_42 1_555 1_555
C47_42 C50_42 1_555 1_555
N11_42 C53_42 1_555 1_555
N12_42 C53_42 1_555 1_555
N12_42 C54_42 1_555 1_555
C52_42 C54_42 1_555 1_555
O33_12 C30_43 1_555 1_555
O36_31 C28_43 1_555 1_555
O41_31 C28_43 1_555 1_555
O22_43 C30_43 1_555 1_555
C28_43 C32_43 1_555 1_555
C29_43 H13_43 1_555 1_555
C30_43 C31_43 1_555 1_555
C31_43 C29_43 1_555 1_555
C32_43 C29_43 1_555 1_555
C33_43 C32_43 1_555 1_555
H14_43 C33_43 1_555 1_555
N7_43 C35_43 1_555 1_555
N8_43 H15_43 1_555 1_555
C34_43 C31_43 1_555 1_555
H16_43 C34_43 1_555 1_555
C35_43 N8_43 1_555 1_555
C36_43 C33_43 1_555 1_555
O31_11 C39_43 1_555 1_555
O38_24 C37_43 1_555 1_555
O43_24 C37_43 1_555 1_555
O26_43 C39_43 1_555 1_555
C37_43 C41_43 1_555 1_555
C38_43 H17_43 1_555 1_555
C39_43 C40_43 1_555 1_555
C40_43 C38_43 1_555 1_555
C41_43 C38_43 1_555 1_555
C42_43 C41_43 1_555 1_555
H18_43 C42_43 1_555 1_555
N9_43 C35_43 1_555 1_555
N10_43 H19_43 1_555 1_555
C43_43 C40_43 1_555 1_555
H20_43 C43_43 1_555 1_555
C44_43 N9_43 1_555 1_555
C45_43 C42_43 1_555 1_555
O32_10 C48_43 1_555 1_555
O30_43 C48_43 1_555 1_555
C46_43 O37_6 1_555 1_555
C47_43 H21_43 1_555 1_555
C48_43 C49_43 1_555 1_555
C49_43 C47_43 1_555 1_555
C50_43 C46_43 1_555 1_555
C51_43 C50_43 1_555 1_555
H22_43 C51_43 1_555 1_555
N11_43 C44_43 1_555 1_555
N12_43 H23_43 1_555 1_555
C52_43 C49_43 1_555 1_555
H24_43 C52_43 1_555 1_555
C53_43 N7_43 1_555 1_555
C54_43 C51_43 1_555 1_555
N8_43 C36_43 1_555 1_555
C34_43 C36_43 1_555 1_555
N10_43 C44_43 1_555 1_555
N10_43 C45_43 1_555 1_555
C43_43 C45_43 1_555 1_555
O42_6 C46_43 1_555 1_555
C47_43 C50_43 1_555 1_555
N11_43 C53_43 1_555 1_555
N12_43 C53_43 1_555 1_555
N12_43 C54_43 1_555 1_555
C52_43 C54_43 1_555 1_555
O33_10 C30_44 1_555 1_555
O36_30 C28_44 1_555 1_555
O41_30 C28_44 1_555 1_555
O22_44 C30_44 1_555 1_555
C28_44 C32_44 1_555 1_555
C29_44 H13_44 1_555 1_555
C30_44 C31_44 1_555 1_555
C31_44 C29_44 1_555 1_555
C32_44 C29_44 1_555 1_555
C33_44 C32_44 1_555 1_555
H14_44 C33_44 1_555 1_555
N7_44 C35_44 1_555 1_555
N8_44 H15_44 1_555 1_555
C34_44 C31_44 1_555 1_555
H16_44 C34_44 1_555 1_555
C35_44 N8_44 1_555 1_555
C36_44 C33_44 1_555 1_555
O31_9 C39_44 1_555 1_555
O38_21 C37_44 1_555 1_555
O43_21 C37_44 1_555 1_555
O26_44 C39_44 1_555 1_555
C37_44 C41_44 1_555 1_555
C38_44 H17_44 1_555 1_555
C39_44 C40_44 1_555 1_555
C40_44 C38_44 1_555 1_555
C41_44 C38_44 1_555 1_555
C42_44 C41_44 1_555 1_555
H18_44 C42_44 1_555 1_555
N9_44 C35_44 1_555 1_555
N10_44 H19_44 1_555 1_555
C43_44 C40_44 1_555 1_555
H20_44 C43_44 1_555 1_555
C44_44 N9_44 1_555 1_555
C45_44 C42_44 1_555 1_555
O32_12 C48_44 1_555 1_555
O30_44 C48_44 1_555 1_555
C46_44 O37_7 1_555 1_555
C47_44 H21_44 1_555 1_555
C48_44 C49_44 1_555 1_555
C49_44 C47_44 1_555 1_555
C50_44 C46_44 1_555 1_555
C51_44 C50_44 1_555 1_555
H22_44 C51_44 1_555 1_555
N11_44 C44_44 1_555 1_555
N12_44 H23_44 1_555 1_555
C52_44 C49_44 1_555 1_555
H24_44 C52_44 1_555 1_555
C53_44 N7_44 1_555 1_555
C54_44 C51_44 1_555 1_555
N8_44 C36_44 1_555 1_555
C34_44 C36_44 1_555 1_555
N10_44 C44_44 1_555 1_555
N10_44 C45_44 1_555 1_555
C43_44 C45_44 1_555 1_555
O42_7 C46_44 1_555 1_555
C47_44 C50_44 1_555 1_555
N11_44 C53_44 1_555 1_555
N12_44 C53_44 1_555 1_555
N12_44 C54_44 1_555 1_555
C52_44 C54_44 1_555 1_555
O32_26 C30_45 1_555 1_555
O37_22 C28_45 1_555 1_555
O42_22 C28_45 1_555 1_555
O22_45 C30_45 1_555 1_555
C28_45 C32_45 1_555 1_555
C29_45 H13_45 1_555 1_555
C30_45 C31_45 1_555 1_555
C31_45 C29_45 1_555 1_555
C32_45 C29_45 1_555 1_555
C33_45 C32_45 1_555 1_555
H14_45 C33_45 1_555 1_555
N7_45 C35_45 1_555 1_555
N8_45 H15_45 1_555 1_555
C34_45 C31_45 1_555 1_555
H16_45 C34_45 1_555 1_555
C35_45 N8_45 1_555 1_555
C36_45 C33_45 1_555 1_555
O33_28 C39_45 1_555 1_555
O36_15 C37_45 1_555 1_555
O41_15 C37_45 1_555 1_555
O26_45 C39_45 1_555 1_555
C37_45 C41_45 1_555 1_555
C38_45 H17_45 1_555 1_555
C39_45 C40_45 1_555 1_555
C40_45 C38_45 1_555 1_555
C41_45 C38_45 1_555 1_555
C42_45 C41_45 1_555 1_555
H18_45 C42_45 1_555 1_555
N9_45 C35_45 1_555 1_555
N10_45 H19_45 1_555 1_555
C43_45 C40_45 1_555 1_555
H20_45 C43_45 1_555 1_555
C44_45 N9_45 1_555 1_555
C45_45 C42_45 1_555 1_555
O31_27 C48_45 1_555 1_555
O30_45 C48_45 1_555 1_555
C46_45 O38_8 1_555 1_555
C47_45 H21_45 1_555 1_555
C48_45 C49_45 1_555 1_555
C49_45 C47_45 1_555 1_555
C50_45 C46_45 1_555 1_555
C51_45 C50_45 1_555 1_555
H22_45 C51_45 1_555 1_555
N11_45 C44_45 1_555 1_555
N12_45 H23_45 1_555 1_555
C52_45 C49_45 1_555 1_555
H24_45 C52_45 1_555 1_555
C53_45 N7_45 1_555 1_555
C54_45 C51_45 1_555 1_555
N8_45 C36_45 1_555 1_555
C34_45 C36_45 1_555 1_555
N10_45 C44_45 1_555 1_555
N10_45 C45_45 1_555 1_555
C43_45 C45_45 1_555 1_555
O43_8 C46_45 1_555 1_555
C47_45 C50_45 1_555 1_555
N11_45 C53_45 1_555 1_555
N12_45 C53_45 1_555 1_555
N12_45 C54_45 1_555 1_555
C52_45 C54_45 1_555 1_555
O32_27 C30_46 1_555 1_555
O37_24 C28_46 1_555 1_555
O42_24 C28_46 1_555 1_555
O22_46 C30_46 1_555 1_555
C28_46 C32_46 1_555 1_555
C29_46 H13_46 1_555 1_555
C30_46 C31_46 1_555 1_555
C31_46 C29_46 1_555 1_555
C32_46 C29_46 1_555 1_555
C33_46 C32_46 1_555 1_555
H14_46 C33_46 1_555 1_555
N7_46 C35_46 1_555 1_555
N8_46 H15_46 1_555 1_555
C34_46 C31_46 1_555 1_555
H16_46 C34_46 1_555 1_555
C35_46 N8_46 1_555 1_555
C36_46 C33_46 1_555 1_555
O33_25 C39_46 1_555 1_555
O36_13 C37_46 1_555 1_555
O41_13 C37_46 1_555 1_555
O26_46 C39_46 1_555 1_555
C37_46 C41_46 1_555 1_555
C38_46 H17_46 1_555 1_555
C39_46 C40_46 1_555 1_555
C40_46 C38_46 1_555 1_555
C41_46 C38_46 1_555 1_555
C42_46 C41_46 1_555 1_555
H18_46 C42_46 1_555 1_555
N9_46 C35_46 1_555 1_555
N10_46 H19_46 1_555 1_555
C43_46 C40_46 1_555 1_555
H20_46 C43_46 1_555 1_555
C44_46 N9_46 1_555 1_555
C45_46 C42_46 1_555 1_555
O31_26 C48_46 1_555 1_555
O30_46 C48_46 1_555 1_555
C46_46 O38_6 1_555 1_555
C47_46 H21_46 1_555 1_555
C48_46 C49_46 1_555 1_555
C49_46 C47_46 1_555 1_555
C50_46 C46_46 1_555 1_555
C51_46 C50_46 1_555 1_555
H22_46 C51_46 1_555 1_555
N11_46 C44_46 1_555 1_555
N12_46 H23_46 1_555 1_555
C52_46 C49_46 1_555 1_555
H24_46 C52_46 1_555 1_555
C53_46 N7_46 1_555 1_555
C54_46 C51_46 1_555 1_555
N8_46 C36_46 1_555 1_555
C34_46 C36_46 1_555 1_555
N10_46 C44_46 1_555 1_555
N10_46 C45_46 1_555 1_555
C43_46 C45_46 1_555 1_555
O43_6 C46_46 1_555 1_555
C47_46 C50_46 1_555 1_555
N11_46 C53_46 1_555 1_555
N12_46 C53_46 1_555 1_555
N12_46 C54_46 1_555 1_555
C52_46 C54_46 1_555 1_555
O32_28 C30_47 1_555 1_555
O37_23 C28_47 1_555 1_555
O42_23 C28_47 1_555 1_555
O22_47 C30_47 1_555 1_555
C28_47 C32_47 1_555 1_555
C29_47 H13_47 1_555 1_555
C30_47 C31_47 1_555 1_555
C31_47 C29_47 1_555 1_555
C32_47 C29_47 1_555 1_555
C33_47 C32_47 1_555 1_555
H14_47 C33_47 1_555 1_555
N7_47 C35_47 1_555 1_555
N8_47 H15_47 1_555 1_555
C34_47 C31_47 1_555 1_555
H16_47 C34_47 1_555 1_555
C35_47 N8_47 1_555 1_555
C36_47 C33_47 1_555 1_555
O33_26 C39_47 1_555 1_555
O36_14 C37_47 1_555 1_555
O41_14 C37_47 1_555 1_555
O26_47 C39_47 1_555 1_555
C37_47 C41_47 1_555 1_555
C38_47 H17_47 1_555 1_555
C39_47 C40_47 1_555 1_555
C40_47 C38_47 1_555 1_555
C41_47 C38_47 1_555 1_555
C42_47 C41_47 1_555 1_555
H18_47 C42_47 1_555 1_555
N9_47 C35_47 1_555 1_555
N10_47 H19_47 1_555 1_555
C43_47 C40_47 1_555 1_555
H20_47 C43_47 1_555 1_555
C44_47 N9_47 1_555 1_555
C45_47 C42_47 1_555 1_555
O31_25 C48_47 1_555 1_555
O30_47 C48_47 1_555 1_555
C46_47 O38_5 1_555 1_555
C47_47 H21_47 1_555 1_555
C48_47 C49_47 1_555 1_555
C49_47 C47_47 1_555 1_555
C50_47 C46_47 1_555 1_555
C51_47 C50_47 1_555 1_555
H22_47 C51_47 1_555 1_555
N11_47 C44_47 1_555 1_555
N12_47 H23_47 1_555 1_555
C52_47 C49_47 1_555 1_555
H24_47 C52_47 1_555 1_555
C53_47 N7_47 1_555 1_555
C54_47 C51_47 1_555 1_555
N8_47 C36_47 1_555 1_555
C34_47 C36_47 1_555 1_555
N10_47 C44_47 1_555 1_555
N10_47 C45_47 1_555 1_555
C43_47 C45_47 1_555 1_555
O43_5 C46_47 1_555 1_555
C47_47 C50_47 1_555 1_555
N11_47 C53_47 1_555 1_555
N12_47 C53_47 1_555 1_555
N12_47 C54_47 1_555 1_555
C52_47 C54_47 1_555 1_555
O32_25 C30_48 1_555 1_555
O37_21 C28_48 1_555 1_555
O42_21 C28_48 1_555 1_555
O22_48 C30_48 1_555 1_555
C28_48 C32_48 1_555 1_555
C29_48 H13_48 1_555 1_555
C30_48 C31_48 1_555 1_555
C31_48 C29_48 1_555 1_555
C32_48 C29_48 1_555 1_555
C33_48 C32_48 1_555 1_555
H14_48 C33_48 1_555 1_555
N7_48 C35_48 1_555 1_555
N8_48 H15_48 1_555 1_555
C34_48 C31_48 1_555 1_555
H16_48 C34_48 1_555 1_555
C35_48 N8_48 1_555 1_555
C36_48 C33_48 1_555 1_555
O33_27 C39_48 1_555 1_555
O36_16 C37_48 1_555 1_555
O41_16 C37_48 1_555 1_555
O26_48 C39_48 1_555 1_555
C37_48 C41_48 1_555 1_555
C38_48 H17_48 1_555 1_555
C39_48 C40_48 1_555 1_555
C40_48 C38_48 1_555 1_555
C41_48 C38_48 1_555 1_555
C42_48 C41_48 1_555 1_555
H18_48 C42_48 1_555 1_555
N9_48 C35_48 1_555 1_555
N10_48 H19_48 1_555 1_555
C43_48 C40_48 1_555 1_555
H20_48 C43_48 1_555 1_555
C44_48 N9_48 1_555 1_555
C45_48 C42_48 1_555 1_555
O31_28 C48_48 1_555 1_555
O30_48 C48_48 1_555 1_555
C46_48 O38_7 1_555 1_555
C47_48 H21_48 1_555 1_555
C48_48 C49_48 1_555 1_555
C49_48 C47_48 1_555 1_555
C50_48 C46_48 1_555 1_555
C51_48 C50_48 1_555 1_555
H22_48 C51_48 1_555 1_555
N11_48 C44_48 1_555 1_555
N12_48 H23_48 1_555 1_555
C52_48 C49_48 1_555 1_555
H24_48 C52_48 1_555 1_555
C53_48 N7_48 1_555 1_555
C54_48 C51_48 1_555 1_555
N8_48 C36_48 1_555 1_555
C34_48 C36_48 1_555 1_555
N10_48 C44_48 1_555 1_555
N10_48 C45_48 1_555 1_555
C43_48 C45_48 1_555 1_555
O43_7 C46_48 1_555 1_555
C47_48 C50_48 1_555 1_555
N11_48 C53_48 1_555 1_555
N12_48 C53_48 1_555 1_555
N12_48 C54_48 1_555 1_555
C52_48 C54_48 1_555 1_555
O3_17 H26_21 1_555 1_555
O6_17 H27_21 1_555 1_555
O6_17 H28_21 1_555 1_555
O3_18 H25_21 1_555 1_555
O15_15 H33_21 1_555 1_555
O16_16 H31_21 1_555 1_555
O16_16 H32_21 1_555 1_555
O15_16 H34_21 1_555 1_555
O3_19 H25_22 1_555 1_555
O15_13 H33_22 1_555 1_555
O16_14 H31_22 1_555 1_555
O16_14 H32_22 1_555 1_555
O15_14 H34_22 1_555 1_555
O3_20 H26_22 1_555 1_555
O6_20 H27_22 1_555 1_555
O6_20 H28_22 1_555 1_555
O3_13 H26_23 1_555 1_555
O6_13 H27_23 1_555 1_555
O6_13 H28_23 1_555 1_555
O16_19 H31_23 1_555 1_555
O16_19 H32_23 1_555 1_555
O15_19 H34_23 1_555 1_555
O3_14 H25_23 1_555 1_555
O15_20 H33_23 1_555 1_555
O16_17 H31_24 1_555 1_555
O16_17 H32_24 1_555 1_555
O15_17 H34_24 1_555 1_555
O3_15 H25_24 1_555 1_555
O15_18 H33_24 1_555 1_555
O3_16 H26_24 1_555 1_555
O6_16 H27_24 1_555 1_555
O6_16 H28_24 1_555 1_555
O3_25 H26_25 1_555 1_555
O6_25 H27_25 1_555 1_555
O6_25 H28_25 1_555 1_555
O3_26 H25_25 1_555 1_555
O3_27 H25_26 1_555 1_555
O3_28 H26_26 1_555 1_555
O6_28 H27_26 1_555 1_555
O6_28 H28_26 1_555 1_555
O3_21 H26_27 1_555 1_555
O6_21 H27_27 1_555 1_555
O6_21 H28_27 1_555 1_555
O3_22 H25_27 1_555 1_555
O3_23 H25_28 1_555 1_555
O3_24 H26_28 1_555 1_555
O6_24 H27_28 1_555 1_555
O6_24 H28_28 1_555 1_555
O15_27 H33_25 1_555 1_555
O17_27 H35_21 1_555 1_555
O16_28 H31_25 1_555 1_555
O16_28 H32_25 1_555 1_555
O15_28 H34_25 1_555 1_555
O18_28 H29_21 1_555 1_555
O18_28 H30_21 1_555 1_555
O17_28 H36_21 1_555 1_555
O18_25 H29_22 1_555 1_555
O18_25 H30_22 1_555 1_555
O17_25 H36_22 1_555 1_555
O15_25 H33_26 1_555 1_555
O17_26 H35_22 1_555 1_555
O16_26 H31_26 1_555 1_555
O16_26 H32_26 1_555 1_555
O15_26 H34_26 1_555 1_555
O18_23 H29_23 1_555 1_555
O18_23 H30_23 1_555 1_555
O17_23 H36_23 1_555 1_555
O16_31 H31_27 1_555 1_555
O16_31 H32_27 1_555 1_555
O15_31 H34_27 1_555 1_555
O15_32 H33_27 1_555 1_555
O17_24 H35_23 1_555 1_555
O16_29 H31_28 1_555 1_555
O16_29 H32_28 1_555 1_555
O15_29 H34_28 1_555 1_555
O15_30 H33_28 1_555 1_555
O17_21 H35_24 1_555 1_555
O18_22 H29_24 1_555 1_555
O18_22 H30_24 1_555 1_555
O17_22 H36_24 1_555 1_555
O17_35 H35_25 1_555 1_555
O18_36 H29_25 1_555 1_555
O18_36 H30_25 1_555 1_555
O17_36 H36_25 1_555 1_555
O18_33 H29_26 1_555 1_555
O18_33 H30_26 1_555 1_555
O17_33 H36_26 1_555 1_555
O17_34 H35_26 1_555 1_555
O18_31 H29_27 1_555 1_555
O18_31 H30_27 1_555 1_555
O17_31 H36_27 1_555 1_555
O17_32 H35_27 1_555 1_555
O17_29 H35_28 1_555 1_555
O18_30 H29_28 1_555 1_555
O18_30 H30_28 1_555 1_555
O17_30 H36_28 1_555 1_555
O3_41 H26_29 1_555 1_555
O6_41 H27_29 1_555 1_555
O6_41 H28_29 1_555 1_555
O3_42 H25_29 1_555 1_555
O17_43 H35_29 1_555 1_555
O18_44 H29_29 1_555 1_555
O18_44 H30_29 1_555 1_555
O17_44 H36_29 1_555 1_555
O18_41 H29_30 1_555 1_555
O18_41 H30_30 1_555 1_555
O17_41 H36_30 1_555 1_555
O3_43 H25_30 1_555 1_555
O17_42 H35_30 1_555 1_555
O3_44 H26_30 1_555 1_555
O6_44 H27_30 1_555 1_555
O6_44 H28_30 1_555 1_555
O18_39 H29_31 1_555 1_555
O18_39 H30_31 1_555 1_555
O17_39 H36_31 1_555 1_555
O3_37 H26_31 1_555 1_555
O6_37 H27_31 1_555 1_555
O6_37 H28_31 1_555 1_555
O3_38 H25_31 1_555 1_555
O17_40 H35_31 1_555 1_555
O3_39 H25_32 1_555 1_555
O17_37 H35_32 1_555 1_555
O3_40 H26_32 1_555 1_555
O6_40 H27_32 1_555 1_555
O6_40 H28_32 1_555 1_555
O18_38 H29_32 1_555 1_555
O18_38 H30_32 1_555 1_555
O17_38 H36_32 1_555 1_555
O16_43 H31_29 1_555 1_555
O16_43 H32_29 1_555 1_555
O15_43 H34_29 1_555 1_555
O15_44 H33_29 1_555 1_555
O16_41 H31_30 1_555 1_555
O16_41 H32_30 1_555 1_555
O15_41 H34_30 1_555 1_555
O15_42 H33_30 1_555 1_555
O15_47 H33_31 1_555 1_555
O16_48 H31_31 1_555 1_555
O16_48 H32_31 1_555 1_555
O15_48 H34_31 1_555 1_555
O15_45 H33_32 1_555 1_555
O16_46 H31_32 1_555 1_555
O16_46 H32_32 1_555 1_555
O15_46 H34_32 1_555 1_555

#END
