
###############################################################################
#
# This file contains modified crystal structure data generated from the
# MOF subset of the Cambridge Structural Database (CSD) v543 
# hosted by the Cambridge Crystallographic Data Centre (CCDC).
#
# This work is licensed under the Creative Commons
# Attribution-NonCommercial-ShareAlike 4.0 International License.
# To view a copy of this license, visit
# http://creativecommons.org/licenses/by-nc-sa/4.0/
# or send a letter to
# Creative Commons, PO Box 1866, Mountain View, CA 94042, USA.
#
# CIF created using the CSD Python API on 29 September 2022
# The structure has been converted into the P1 space group
# The structure has a 3D framework
# The original CSD entry WIHVEP is in the monoclinic crystal system
# The framework has been calculated to contain at least 10.0% void space
# The void calculation uses a probe of radius 1.32A, grid spacing 0.4
#
###############################################################################

data_WIHVEP
_chemical_formula_moiety         '(C24 H24 Mn21 O48)n'
_symmetry_cell_setting           triclinic
_symmetry_space_group_name_H-M   'P 1'
_symmetry_Int_Tables_number      1
_space_group_name_Hall           'P 1'
loop_
_symmetry_equiv_pos_site_id
_symmetry_equiv_pos_as_xyz
1 x,y,z
_cell_length_a                   11.7561(2)
_cell_length_b                   10.2072(2)
_cell_length_c                   18.7245(4)
_cell_angle_alpha                90
_cell_angle_beta                 127.0030(10)
_cell_angle_gamma                90
_cell_volume                     1794.37
loop_
_atom_site_label
_atom_site_type_symbol
_atom_site_fract_x
_atom_site_fract_y
_atom_site_fract_z
Mn13 Mn 0.0000 0.0000 0.0000
Mn13_2 Mn 0.0000 0.0000 1.0000
Mn13_3 Mn 0.0000 1.0000 0.0000
Mn14 Mn 0.0000 0.5000 0.5000
Mn13_4 Mn 0.0000 1.0000 1.0000
Mn1 Mn 0.37486(4) 0.08069(4) 0.13165(2)
Mn3 Mn 0.5000 0.0000 0.0000
O1 O 0.44525(17) 0.20066(16) 0.24918(11)
O2 O 0.55605(19) 0.06690(17) 0.36781(12)
O5 O 0.45193(17) 0.25789(16) 0.10712(11)
O6 O 0.48315(19) 0.20998(18) 0.00331(12)
O11 O 0.16144(16) 0.15758(16) 0.06436(11)
O12 O 0.20205(17) 0.37107(17) 0.09719(12)
C1 C 0.5074(3) 0.1746(3) 0.33146(17)
C3 C 0.4731(3) 0.2876(3) 0.04999(18)
C6 C 0.1229(3) 0.2755(3) 0.05969(17)
H1 H 0.524(3) 0.247(3) 0.3708(17)
H3 H 0.475(3) 0.385(3) 0.0411(18)
H6 H 0.031(3) 0.293(3) 0.0273(19)
Mn9 Mn 0.42634(4) 0.39312(4) 0.18718(2)
Mn13_5 Mn 1.0000 0.0000 0.0000
O28 O 0.88847(18) 0.09836(18) 0.04434(13)
C11 C 0.7764(3) 0.0971(3) 0.03587(18)
H11 H 0.771(3) 0.153(2) 0.0742(17)
Mn3_2 Mn 0.5000 0.0000 1.0000
Mn8 Mn 0.42634(4) 0.10688(4) 0.68718(2)
Mn13_6 Mn 1.0000 0.0000 1.0000
O15 O 0.44525(17) 0.29934(16) 0.74918(11)
O18 O 0.41139(17) 0.00751(16) 0.78371(11)
O19 O 0.32209(19) 0.00210(18) 0.86012(12)
O22 O 0.45193(17) 0.24211(16) 0.60712(11)
O25 O 0.65296(17) 0.08066(16) 0.80396(11)
O27 O 0.66590(17) 0.02890(17) 0.97924(11)
O34 O 0.20205(17) 0.12893(17) 0.59719(12)
C8 C 0.3113(3) 0.0186(3) 0.79141(18)
H8 H 0.218(3) 0.034(3) 0.7347(18)
Mn2 Mn 0.57366(4) 0.89312(4) 0.31282(2)
Mn3_3 Mn 0.5000 1.0000 0.0000
O3 O 0.58861(17) 0.99249(16) 0.21629(11)
O4 O 0.67791(19) 0.99790(18) 0.13988(12)
O7 O 0.34704(17) 0.91934(16) 0.19604(11)
O8 O 0.11403(18) 0.88110(19) 0.11860(13)
O9 O 0.33410(17) 0.97110(17) 0.02076(11)
C2 C 0.6887(3) 0.9814(3) 0.20859(18)
C4 C 0.2394(3) 0.8596(3) 0.18048(17)
H2 H 0.782(3) 0.966(3) 0.2653(18)
H4 H 0.262(3) 0.786(3) 0.2238(18)
Mn6 Mn 0.62514(4) 0.58069(4) 0.36835(2)
Mn13_7 Mn 1.0000 1.0000 0.0000
Mn14_2 Mn 1.0000 0.5000 0.5000
O13 O 0.55475(17) 0.70066(16) 0.25082(11)
O16 O 0.44395(19) 0.56690(17) 0.13219(12)
O21 O 0.54807(17) 0.75789(16) 0.39288(11)
O30 O 0.83856(16) 0.65758(16) 0.43564(11)
O33 O 0.79795(17) 0.87107(17) 0.40281(12)
C7 C 0.4926(3) 0.6746(3) 0.16854(17)
C12 C 0.8771(3) 0.7755(3) 0.44031(17)
H7 H 0.476(3) 0.747(3) 0.1292(17)
H12 H 0.969(3) 0.793(3) 0.4727(19)
Mn3_4 Mn 0.5000 1.0000 1.0000
O10 O 0.11153(18) 0.90164(18) 0.95566(13)
C5 C 0.2236(3) 0.9029(3) 0.96413(18)
H5 H 0.229(3) 0.847(2) 0.9258(17)
Mn5 Mn 0.62514(4) 0.91931(4) 0.86835(2)
Mn10 Mn 0.57366(4) 0.60688(4) 0.81282(2)
Mn13_8 Mn 1.0000 1.0000 1.0000
O14 O 0.55475(17) 0.79934(16) 0.75082(11)
O17 O 0.44395(19) 0.93310(17) 0.63219(12)
O20 O 0.54807(17) 0.74211(16) 0.89288(11)
O23 O 0.51685(19) 0.79002(18) 0.99669(12)
O32 O 0.83856(16) 0.84242(16) 0.93564(11)
C9 C 0.5269(3) 0.7124(3) 0.95001(18)
H9 H 0.525(3) 0.615(3) 0.9589(18)
O26 O 0.88597(18) 0.11890(19) 0.88140(13)
C10 C 0.7606(3) 0.1404(3) 0.81952(17)
H10 H 0.738(3) 0.214(3) 0.7762(18)
Mn7 Mn 0.37486(4) 0.41931(4) 0.63165(2)
O24 O 0.34704(17) 0.58066(16) 0.69604(11)
O26_2 O 0.11403(18) 0.61890(19) 0.61860(13)
O29 O 0.11153(18) 0.59836(18) 0.45566(13)
O31 O 0.16144(16) 0.34242(16) 0.56436(11)
C10_2 C 0.2394(3) 0.6404(3) 0.68048(17)
H10_2 H 0.262(3) 0.714(3) 0.7238(18)
Mn3_5 Mn 0.5000 0.5000 0.5000
O3_2 O 0.41139(17) 0.49249(16) 0.28371(11)
O4_2 O 0.32209(19) 0.49790(18) 0.36012(12)
O6_2 O 0.51685(19) 0.70998(18) 0.49669(12)
O7_2 O 0.65296(17) 0.41934(16) 0.30396(11)
O8_2 O 0.88597(18) 0.38110(19) 0.38140(13)
O9_2 O 0.66590(17) 0.47110(17) 0.47924(11)
O10_2 O 0.88847(18) 0.40164(18) 0.54434(13)
C2_2 C 0.3113(3) 0.4814(3) 0.29141(18)
C3_2 C 0.5269(3) 0.7876(3) 0.45001(18)
C4_2 C 0.7606(3) 0.3596(3) 0.31952(17)
C5_2 C 0.7764(3) 0.4029(3) 0.53587(18)
H2_2 H 0.218(3) 0.466(3) 0.2347(18)
H3_2 H 0.525(3) 0.885(3) 0.4589(18)
H4_2 H 0.738(3) 0.286(3) 0.2762(18)
H5_2 H 0.771(3) 0.347(2) 0.5742(17)
O17_2 O 0.55605(19) 0.43310(17) 0.86781(12)
O18_2 O 0.58861(17) 0.50751(16) 0.71629(11)
O19_2 O 0.67791(19) 0.50210(18) 0.63988(12)
O23_2 O 0.48315(19) 0.29002(18) 0.50331(12)
O27_2 O 0.33410(17) 0.52890(17) 0.52076(11)
O34_2 O 0.79795(17) 0.62893(17) 0.90281(12)
C8_2 C 0.6887(3) 0.5186(3) 0.70859(18)
C9_2 C 0.4731(3) 0.2124(3) 0.54999(18)
C11_2 C 0.2236(3) 0.5971(3) 0.46413(18)
H8_2 H 0.782(3) 0.534(3) 0.7653(18)
H9_2 H 0.475(3) 0.115(3) 0.5411(18)
H11_2 H 0.229(3) 0.653(2) 0.4258(17)
C7_2 C 0.5074(3) 0.3254(3) 0.83146(17)
C12_2 C 0.1229(3) 0.2245(3) 0.55969(17)
H7_2 H 0.524(3) 0.253(3) 0.8708(17)
H12_2 H 0.031(3) 0.207(3) 0.5273(19)
C1_2 C 0.4926(3) 0.8254(3) 0.66854(17)
C6_2 C 0.8771(3) 0.7245(3) 0.94031(17)
H1_2 H 0.476(3) 0.753(3) 0.6292(17)
H6_2 H 0.969(3) 0.707(3) 0.9727(19)
loop_
_geom_bond_atom_site_label_1
_geom_bond_atom_site_label_2
_geom_bond_site_symmetry_1
_geom_bond_site_symmetry_2
Mn1 O1 1_555 1_555
O1 C1 1_555 1_555
O2 C1 1_555 1_555
O5 Mn1 1_555 1_555
O6 Mn3 1_555 1_555
O11 Mn1 1_555 1_555
O12 C6 1_555 1_555
C1 H1 1_555 1_555
C3 O5 1_555 1_555
C6 O11 1_555 1_555
H3 C3 1_555 1_555
H6 C6 1_555 1_555
Mn9 O1 1_555 1_555
Mn13_5 O28 1_555 1_555
O28 C11 1_555 1_555
H11 C11 1_555 1_555
Mn13 O11 1_555 1_555
O5 Mn9 1_555 1_555
O6 C3 1_555 1_555
O12 Mn9 1_555 1_555
Mn8 O15 1_555 1_555
O19 Mn3_2 1_555 1_555
O22 Mn8 1_555 1_555
O27 Mn3_2 1_555 1_555
O34 Mn8 1_555 1_555
C8 O18 1_555 1_555
H8 C8 1_555 1_555
Mn8 O18 1_555 1_555
Mn8 O25 1_555 1_555
O19 C8 1_555 1_555
Mn3_3 O4 1_555 1_555
Mn13_3 O8 1_555 1_555
O4 C2 1_555 1_555
O8 C4 1_555 1_555
C2 O3 1_555 1_555
C4 O7 1_555 1_555
H2 C2 1_555 1_555
H4 C4 1_555 1_555
Mn6 O13 1_555 1_555
Mn9 O16 1_555 1_555
Mn14_2 O30 1_555 1_555
O13 Mn2 1_555 1_555
O16 C7 1_555 1_555
O21 Mn2 1_555 1_555
O30 Mn6 1_555 1_555
O33 Mn2 1_555 1_555
C7 O13 1_555 1_555
C12 O30 1_555 1_555
H7 C7 1_555 1_555
H12 C12 1_555 1_555
Mn2 O3 1_555 1_555
Mn2 O7 1_555 1_555
Mn3_3 O9 1_555 1_555
Mn6 O21 1_555 1_555
O33 C12 1_555 1_555
O10 Mn13_4 1_555 1_555
H5 C5 1_555 1_555
Mn5 O14 1_555 1_555
Mn10 O14 1_555 1_555
O20 Mn5 1_555 1_555
O23 Mn3_4 1_555 1_555
O32 Mn5 1_555 1_555
C9 O20 1_555 1_555
H9 C9 1_555 1_555
O10 C5 1_555 1_555
Mn10 O20 1_555 1_555
Mn13_8 O32 1_555 1_555
O23 C9 1_555 1_555
O25 C10 1_555 1_555
O26 Mn13_6 1_555 1_555
C10 O26 1_555 1_555
H10 C10 1_555 1_555
Mn7 O24 1_555 1_555
Mn10 O24 1_555 1_555
O24 C10_2 1_555 1_555
O26_2 Mn14 1_555 1_555
O29 Mn14 1_555 1_555
O31 Mn14 1_555 1_555
C10_2 O26_2 1_555 1_555
H10_2 C10_2 1_555 1_555
Mn7 O31 1_555 1_555
Mn3_5 O4_2 1_555 1_555
Mn14_2 O8_2 1_555 1_555
O3_2 Mn6 1_555 1_555
O4_2 C2_2 1_555 1_555
O6_2 Mn3_5 1_555 1_555
O7_2 Mn6 1_555 1_555
O8_2 C4_2 1_555 1_555
O9_2 Mn6 1_555 1_555
O10_2 Mn14_2 1_555 1_555
C2_2 O3_2 1_555 1_555
C3_2 O21 1_555 1_555
C4_2 O7_2 1_555 1_555
C5_2 O9_2 1_555 1_555
H2_2 C2_2 1_555 1_555
H3_2 C3_2 1_555 1_555
H4_2 C4_2 1_555 1_555
H5_2 C5_2 1_555 1_555
Mn7 O15 1_555 1_555
O17_2 Mn10 1_555 1_555
O18_2 Mn7 1_555 1_555
O19_2 Mn3_5 1_555 1_555
O22 Mn7 1_555 1_555
O23_2 Mn3_5 1_555 1_555
O27_2 Mn3_5 1_555 1_555
O29 C11_2 1_555 1_555
O34_2 Mn10 1_555 1_555
C8_2 O18_2 1_555 1_555
C9_2 O22 1_555 1_555
C11_2 O27_2 1_555 1_555
H8_2 C8_2 1_555 1_555
H9_2 C9_2 1_555 1_555
H11_2 C11_2 1_555 1_555
Mn9 O3_2 1_555 1_555
Mn9 O7_2 1_555 1_555
Mn3_5 O9_2 1_555 1_555
O6_2 C3_2 1_555 1_555
O10_2 C5_2 1_555 1_555
Mn7 O27_2 1_555 1_555
Mn10 O18_2 1_555 1_555
O19_2 C8_2 1_555 1_555
O23_2 C9_2 1_555 1_555
O17_2 C7_2 1_555 1_555
C7_2 O15 1_555 1_555
C12_2 O31 1_555 1_555
H7_2 C7_2 1_555 1_555
H12_2 C12_2 1_555 1_555
O34 C12_2 1_555 1_555
O14 C1_2 1_555 1_555
O17 C1_2 1_555 1_555
O34_2 C6_2 1_555 1_555
C1_2 H1_2 1_555 1_555
C6_2 O32 1_555 1_555
H6_2 C6_2 1_555 1_555

#END
