
###############################################################################
#
# This file contains modified crystal structure data generated from the
# MOF subset of the Cambridge Structural Database (CSD) v543 
# hosted by the Cambridge Crystallographic Data Centre (CCDC).
#
# This work is licensed under the Creative Commons
# Attribution-NonCommercial-ShareAlike 4.0 International License.
# To view a copy of this license, visit
# http://creativecommons.org/licenses/by-nc-sa/4.0/
# or send a letter to
# Creative Commons, PO Box 1866, Mountain View, CA 94042, USA.
#
# CIF created using the CSD Python API on 29 September 2022
# The structure has been converted into the P1 space group
# The structure has a 3D framework
# The original CSD entry WIHVAL is in the monoclinic crystal system
# The original CSD entry WIHVAL is in a Sohncke space group
# The framework has been calculated to contain at least 10.0% void space
# The void calculation uses a probe of radius 1.32A, grid spacing 0.4
#
###############################################################################

data_WIHVAL
_chemical_formula_moiety         '(C24 H24 Mn12 O48)n'
_symmetry_cell_setting           triclinic
_symmetry_space_group_name_H-M   'P 1'
_symmetry_Int_Tables_number      1
_space_group_name_Hall           'P 1'
loop_
_symmetry_equiv_pos_site_id
_symmetry_equiv_pos_as_xyz
1 x,y,z
_cell_length_a                   11.7856(2)
_cell_length_b                   10.1959(2)
_cell_length_c                   18.7133(4)
_cell_angle_alpha                90
_cell_angle_beta                 127.1550(10)
_cell_angle_gamma                90
_cell_volume                     1792.21
loop_
_atom_site_label
_atom_site_type_symbol
_atom_site_fract_x
_atom_site_fract_y
_atom_site_fract_z
Mn9 Mn 0.00305(13) 0.04154(18) 0.74779(9)
C3 C 0.3143(7) 0.0204(7) 0.5417(4)
O5 O 0.4152(5) 0.0320(5) 0.5349(3)
O6 O 0.3297(5) 0.0393(6) 0.6133(3)
Mn8 Mn 0.62856(11) 0.12075(9) 0.61885(7)
Mn14 Mn 0.50695(15) 0.04004(18) 0.75201(10)
O25 O 0.4424(5) 0.1085(6) 0.3814(3)
Mn1 Mn 0.42710(11) 0.93307(10) 0.43727(7)
Mn2 Mn 0.37144(11) 0.62075(9) 0.38115(7)
Mn6 Mn 0.49305(15) 0.54004(18) 0.24799(10)
C1 C 0.5101(8) 0.7145(9) 0.5829(5)
H1 H 0.5213 0.7827 0.6196
C2 C 0.4641(8) 0.8287(8) 0.2968(5)
H2 H 0.4706 0.9176 0.2885
H3 H 0.2247 0.9967 0.4909
C4 C 0.1207(8) 0.8201(8) 0.3116(6)
H4 H 0.0236 0.8376 0.2771
C5 C 0.2183(7) 0.4459(8) 0.2127(5)
H5 H 0.2212 0.3911 0.1740
C6 C 0.7604(8) 0.8991(8) 0.5666(5)
H6 H 0.7423 0.8320 0.5274
C11 C 0.5240(7) 0.2523(8) 0.2003(5)
H11 H 0.5154 0.1639 0.2087
C12 C 0.3063(7) 0.5506(9) 0.0389(5)
O1 O 0.4459(5) 0.7424(5) 0.4997(3)
O2 O 0.5576(5) 0.6085(6) 0.6186(3)
O3 O 0.4474(5) 0.7981(5) 0.3551(3)
O4 O 0.4727(6) 0.7489(6) 0.2486(4)
O7 O 0.2020(5) 0.9139(5) 0.3487(3)
O8 O 0.1585(5) 0.6985(5) 0.3165(3)
O9 O 0.3275(5) 0.5147(5) 0.2680(3)
O10 O 0.1056(5) 0.4474(6) 0.2070(3)
O11 O 0.6537(5) 0.9582(6) 0.5522(3)
O12 O 0.8877(5) 0.9235(6) 0.6291(4)
O21 O 0.5475(5) 0.2786(5) 0.1430(3)
O22 O 0.5119(5) 0.3283(5) 0.2440(3)
O23 O 0.4070(4) 0.5412(6) 0.0311(3)
O24 O 0.3164(5) 0.5401(6) 0.1074(3)
Mn7 Mn 0.57290(11) 0.43307(10) 0.56273(7)
Mn10 Mn 0.62228(10) 0.45677(10) 0.11876(7)
Mn12 Mn 0.57701(11) 0.14347(10) 0.06444(7)
O26 O 0.5848(5) 0.5320(5) 0.4651(3)
O27 O 0.6703(5) 0.5393(6) 0.3867(3)
O28 O 0.3463(5) 0.4582(6) 0.4478(3)
O29 O 0.1123(5) 0.4235(6) 0.3709(4)
O30 O 0.6599(5) 0.5715(5) 0.2271(3)
H12 H 0.2157 0.5673 0.9866
Mn13 Mn 0.42299(11) 0.64347(10) 0.93556(7)
Mn3 Mn 0.99695(13) 0.54154(18) 0.25221(9)
C7 C 0.8787(8) 0.2699(9) 0.1915(5)
H7 H 0.9765 0.2571 0.2258
C8 C 0.7719(7) 0.6395(8) 0.2860(5)
H8 H 0.7656 0.6928 0.3239
C9 C 0.7564(8) 0.6821(8) 0.0718(5)
H9 H 0.7361 0.7492 0.0320
O13 O 0.8374(5) 0.3832(5) 0.1877(3)
O14 O 0.8009(5) 0.1701(5) 0.1536(3)
O15 O 0.8839(5) 0.6402(6) 0.2966(3)
O17 O 0.8818(5) 0.6643(6) 0.1338(3)
O18 O 0.6508(5) 0.6183(5) 0.0560(3)
O19 O 0.5568(5) 0.3385(5) 0.0026(3)
C10 C 0.4955(8) 0.3617(8) 0.9206(5)
H10 H 0.4900 0.2934 0.8857
O20 O 0.4410(5) 0.4704(5) 0.8822(3)
O31 O 0.3492(5) 0.1183(5) 0.9440(3)
O35 O 0.5930(4) 0.0412(6) 0.9689(3)
O32 O 0.5590(5) 0.9704(5) 0.1178(3)
C8_2 C 0.2281(7) 0.1395(8) 0.7140(5)
H8_2 H 0.2344 0.1928 0.6761
C9_2 C 0.2436(8) 0.1821(8) 0.9282(5)
H9_2 H 0.2639 0.2492 0.9680
O15_2 O 0.1161(5) 0.1402(6) 0.7034(3)
O16 O 0.3401(5) 0.0715(5) 0.7729(3)
O17_2 O 0.1182(5) 0.1643(6) 0.8662(3)
C10_2 C 0.5045(8) 0.8617(8) 0.0794(5)
H10_2 H 0.5100 0.7934 0.1143
Mn4 Mn 0.37772(10) 0.95677(10) 0.88124(7)
C7_2 C 0.1213(8) 0.7699(9) 0.8085(5)
H7_2 H 0.0235 0.7571 0.7742
O13_2 O 0.1626(5) 0.8832(5) 0.8123(3)
O14_2 O 0.1991(5) 0.6701(5) 0.8464(3)
O19_2 O 0.4432(5) 0.8385(5) 0.9974(3)
O33 O 0.4525(5) 0.7786(5) 0.8570(3)
H12_2 H 0.7843 0.0673 0.0134
C1_2 C 0.4899(8) 0.2145(9) 0.4171(5)
H1_2 H 0.4787 0.2827 0.3804
C2_2 C 0.5359(8) 0.3287(8) 0.7032(5)
H2_2 H 0.5294 0.4176 0.7115
C3_2 C 0.6857(7) 0.5204(7) 0.4583(4)
H3_2 H 0.7753 0.4967 0.5091
C4_2 C 0.8793(8) 0.3201(8) 0.6884(6)
H4_2 H 0.9764 0.3376 0.7229
C6_2 C 0.2396(8) 0.3991(8) 0.4334(5)
H6_2 H 0.2577 0.3320 0.4726
C12_2 C 0.6937(7) 0.0506(9) 0.9611(5)
O1_2 O 0.5541(5) 0.2424(5) 0.5003(3)
O3_2 O 0.5526(5) 0.2981(5) 0.6449(3)
O4_2 O 0.5273(6) 0.2489(6) 0.7514(4)
O7_2 O 0.7980(5) 0.4139(5) 0.6513(3)
O8_2 O 0.8415(5) 0.1985(5) 0.6835(3)
O9_2 O 0.6725(5) 0.0147(5) 0.7320(3)
O24_2 O 0.6836(5) 0.0401(6) 0.8926(3)
C5_2 C 0.7817(7) 0.9459(8) 0.7873(5)
H5_2 H 0.7788 0.8911 0.8260
C11_2 C 0.4760(7) 0.7523(8) 0.7997(5)
H11_2 H 0.4846 0.6639 0.7913
O10_2 O 0.8944(5) 0.9474(6) 0.7930(3)
O22_2 O 0.4881(5) 0.8283(5) 0.7560(3)
loop_
_geom_bond_atom_site_label_1
_geom_bond_atom_site_label_2
_geom_bond_site_symmetry_1
_geom_bond_site_symmetry_2
O6 C3 1_555 1_555
Mn8 O5 1_555 1_555
Mn14 O6 1_555 1_555
C3 O5 1_555 1_555
Mn1 O1 1_555 1_555
Mn2 O1 1_555 1_555
Mn6 O4 1_555 1_555
C1 H1 1_555 1_555
C2 H2 1_555 1_555
C4 H4 1_555 1_555
C5 H5 1_555 1_555
C6 H6 1_555 1_555
C11 H11 1_555 1_555
O1 C1 1_555 1_555
O2 C1 1_555 1_555
O3 Mn1 1_555 1_555
O4 C2 1_555 1_555
O7 Mn1 1_555 1_555
O8 Mn2 1_555 1_555
O9 Mn2 1_555 1_555
O11 Mn1 1_555 1_555
O12 C6 1_555 1_555
O21 C11 1_555 1_555
O22 Mn6 1_555 1_555
O23 C12 1_555 1_555
O24 Mn6 1_555 1_555
Mn7 O2 1_555 1_555
Mn10 O21 1_555 1_555
Mn12 O21 1_555 1_555
O26 Mn2 1_555 1_555
O27 Mn6 1_555 1_555
O28 Mn2 1_555 1_555
O30 Mn6 1_555 1_555
Mn2 O3 1_555 1_555
Mn6 O9 1_555 1_555
C2 O3 1_555 1_555
C4 O7 1_555 1_555
C4 O8 1_555 1_555
C5 O9 1_555 1_555
C5 O10 1_555 1_555
C6 O11 1_555 1_555
C11 O22 1_555 1_555
C12 O24 1_555 1_555
O23 Mn10 1_555 1_555
Mn7 O26 1_555 1_555
Mn7 O28 1_555 1_555
Mn10 O30 1_555 1_555
Mn10 O13 1_555 1_555
Mn12 O14 1_555 1_555
C7 H7 1_555 1_555
C8 H8 1_555 1_555
C9 H9 1_555 1_555
O13 Mn3 1_555 1_555
O14 C7 1_555 1_555
O15 Mn3 1_555 1_555
O17 Mn3 1_555 1_555
O18 Mn10 1_555 1_555
O19 Mn10 1_555 1_555
Mn12 O19 1_555 1_555
C7 O13 1_555 1_555
C8 O15 1_555 1_555
C8 O30 1_555 1_555
C9 O17 1_555 1_555
C9 O18 1_555 1_555
C10 H10 1_555 1_555
O20 C10 1_555 1_555
O20 Mn13 1_555 1_555
C8_2 H8_2 1_555 1_555
C9_2 H9_2 1_555 1_555
O15_2 Mn9 1_555 1_555
O17_2 Mn9 1_555 1_555
Mn14 O16 1_555 1_555
C8_2 O15_2 1_555 1_555
C8_2 O16 1_555 1_555
C9_2 O17_2 1_555 1_555
C9_2 O31 1_555 1_555
C10_2 H10_2 1_555 1_555
O32 C10_2 1_555 1_555
Mn4 O13_2 1_555 1_555
Mn13 O14_2 1_555 1_555
C7_2 H7_2 1_555 1_555
O14_2 C7_2 1_555 1_555
O19_2 Mn4 1_555 1_555
O33 Mn4 1_555 1_555
Mn13 O19_2 1_555 1_555
Mn13 O33 1_555 1_555
C7_2 O13_2 1_555 1_555
Mn7 O1_2 1_555 1_555
Mn8 O1_2 1_555 1_555
Mn14 O4_2 1_555 1_555
C1_2 H1_2 1_555 1_555
C2_2 H2_2 1_555 1_555
C3_2 H3_2 1_555 1_555
C4_2 H4_2 1_555 1_555
C6_2 H6_2 1_555 1_555
O1_2 C1_2 1_555 1_555
O25 C1_2 1_555 1_555
O3_2 Mn7 1_555 1_555
O4_2 C2_2 1_555 1_555
O27 C3_2 1_555 1_555
O7_2 Mn7 1_555 1_555
O8_2 Mn8 1_555 1_555
O9_2 Mn8 1_555 1_555
O29 C6_2 1_555 1_555
O35 C12_2 1_555 1_555
O24_2 Mn14 1_555 1_555
Mn8 O3_2 1_555 1_555
Mn14 O9_2 1_555 1_555
C2_2 O3_2 1_555 1_555
C3_2 O26 1_555 1_555
C4_2 O7_2 1_555 1_555
C4_2 O8_2 1_555 1_555
C6_2 O28 1_555 1_555
C12_2 O24_2 1_555 1_555
C5_2 H5_2 1_555 1_555
C11_2 H11_2 1_555 1_555
O33 C11_2 1_555 1_555
C5_2 O10_2 1_555 1_555
C11_2 O22_2 1_555 1_555

#END
