
###############################################################################
#
# This file contains modified crystal structure data generated from the
# MOF subset of the Cambridge Structural Database (CSD) v543 
# hosted by the Cambridge Crystallographic Data Centre (CCDC).
#
# This work is licensed under the Creative Commons
# Attribution-NonCommercial-ShareAlike 4.0 International License.
# To view a copy of this license, visit
# http://creativecommons.org/licenses/by-nc-sa/4.0/
# or send a letter to
# Creative Commons, PO Box 1866, Mountain View, CA 94042, USA.
#
# CIF created using the CSD Python API on 29 September 2022
# The structure has been converted into the P1 space group
# The structure has a 3D framework
# The original CSD entry WIJCUQ is in the hexagonal crystal system
# The original CSD entry WIJCUQ is in a Sohncke space group
# The framework has been calculated to contain at least 10.0% void space
# The void calculation uses a probe of radius 1.32A, grid spacing 0.4
#
###############################################################################

data_WIJCUQ
_chemical_formula_moiety         '(C192 H163 Cd6 N24 O48)n'
_symmetry_cell_setting           triclinic
_symmetry_space_group_name_H-M   'P 1'
_symmetry_Int_Tables_number      1
_space_group_name_Hall           'P 1'
loop_
_symmetry_equiv_pos_site_id
_symmetry_equiv_pos_as_xyz
1 x,y,z
_cell_length_a                   16.0933(4)
_cell_length_b                   16.0933(4)
_cell_length_c                   23.0939(12)
_cell_angle_alpha                90
_cell_angle_beta                 90
_cell_angle_gamma                120
_cell_volume                     5179.86
loop_
_atom_site_label
_atom_site_type_symbol
_atom_site_fract_x
_atom_site_fract_y
_atom_site_fract_z
C15 C 0.1192(4) 0.2587(4) 0.5621(3)
C16 C 0.0940(4) 0.2491(5) 0.5048(4)
H8 H 0.0411 0.1931 0.4914
C17 C 0.1956(4) 0.3428(5) 0.5827(3)
H9 H 0.2111 0.3492 0.6219
C18 C 0.1484(5) 0.3238(5) 0.4667(3)
H10 H 0.1328 0.3177 0.4276
C19 C 0.2488(4) 0.4171(4) 0.5452(4)
H11 H 0.3002 0.4739 0.5591
C20 C 0.2265(4) 0.4080(4) 0.4877(3)
C21 C 0.2866(5) 0.4892(5) 0.4457(4)
O6 O 0.0712(3) 0.1851(3) 0.6012(2)
O7 O 0.3585(3) 0.5617(3) 0.4642(3)
O8 O 0.2621(5) 0.4786(4) 0.3931(3)
Cd2 Cd 0.40713(4) 0.63517(3) 0.37362(3)
C9 C 0.9311(4) 0.0304(5) 0.5976(4)
H5 H 0.9693 0.0028 0.6028
C10 C 0.7771(4) 0.0159(4) 0.5841(3)
C11 C 0.9727(4) 0.1308(4) 0.5952(3)
C12 C 0.8188(4) 0.1143(4) 0.5814(3)
C13 C 0.9178(4) 0.1724(4) 0.5880(3)
H7 H 0.9460 0.2388 0.5874
C14 C 0.7564(4) 0.1581(5) 0.5715(3)
C22 C 0.5886(5) 0.1110(6) 0.4223(4)
H12 H 0.6544 0.1413 0.4158
C23 C 0.4536(5) 0.0733(6) 0.4590(4)
H13 H 0.4073 0.0720 0.4837
C24 C 0.4355(6) 0.0209(8) 0.4133(5)
C25 C 0.5426(6) 0.0087(6) 0.3335(4)
H16 H 0.6075 0.0195 0.3333
C26 C 0.5293(6) 0.0610(6) 0.2827(4)
H17 H 0.4638 0.0488 0.2821
H18 H 0.5720 0.1296 0.2868
C27 C 0.5504(7) 0.0271(5) 0.2274(3)
H20 H 0.6149 0.0368 0.2286
C28 C 0.5412(8) 0.0826(6) 0.1760(4)
H21 H 0.5850 0.1507 0.1812
H22 H 0.4765 0.0721 0.1744
C29 C 0.5649(7) 0.0485(6) 0.1183(4)
H23 H 0.6236 0.0461 0.1226
C30 C 0.5122(6) 0.0983(5) 0.0314(4)
H25 H 0.4537 0.0419 0.0273
C31 C 0.6327(8) 0.2435(7) 0.0201(6)
H26 H 0.6714 0.3049 0.0054
C32 C 0.6515(7) 0.2071(6) 0.0655(5)
H27 H 0.7056 0.2377 0.0889
N2 N 0.5762(5) 0.1154(4) 0.0719(3)
N3 N 0.5247(4) 0.0434(4) 0.3879(3)
N4 N 0.5508(4) 0.1311(4) 0.4660(3)
O4 O 0.6698(3) 0.1034(3) 0.5595(3)
O5 O 0.7940(4) 0.2472(3) 0.5748(3)
Cd1 Cd 0.63517(3) 0.22804(3) 0.54029(3)
O9 O 0.7390(5) 0.3465(3) 0.4676(2)
O10 O 0.7104(4) 0.3914(3) 0.5511(2)
O11 O 0.5617(3) 0.2032(4) 0.6309(3)
O12 O 0.4786(4) 0.2165(6) 0.5598(3)
C1 C 0.4098(4) 0.6639(4) 0.6685(3)
C2 C 0.5134(4) 0.7172(4) 0.6486(3)
C3 C 0.5385(5) 0.7068(4) 0.5936(3)
H1 H 0.4914 0.6644 0.5684
C4 C 0.5832(4) 0.7797(4) 0.6869(4)
H2 H 0.5674 0.7853 0.7249
C5 C 0.6343(5) 0.7590(5) 0.5745(4)
H3 H 0.6508 0.7502 0.5373
C6 C 0.6789(5) 0.8348(5) 0.6669(4)
H4 H 0.7261 0.8794 0.6913
C7 C 0.7022(4) 0.8226(4) 0.6115(4)
C8 C 0.8336(4) 0.9740(4) 0.5923(3)
H6 H 0.7110 0.9774 0.5804
H14 H 0.3750 0.9765 0.3995
H15 H 0.4986 0.9403 0.3298
H19 H 0.5059 0.9590 0.2225
H24 H 0.5134 0.9846 0.1087
O1 O 0.3465(3) 0.6075(4) 0.6343(2)
O2 O 0.3914(3) 0.6810(3) 0.7178(2)
O3 O 0.7958(3) 0.8764(3) 0.5932(3)
Cd3 Cd 0.22804(3) 0.59287(4) 0.70696(3)
C1_2 C 0.3361(4) 0.7459(6) 0.3352(3)
C2_2 C 0.2828(4) 0.7962(6) 0.3153(3)
C3_2 C 0.2932(4) 0.8317(6) 0.2603(3)
H1_2 H 0.3356 0.8270 0.2351
C4_2 C 0.2203(4) 0.8035(6) 0.3536(4)
H2_2 H 0.2147 0.7821 0.3916
C5_2 C 0.2410(5) 0.8753(7) 0.2412(4)
H3_2 H 0.2498 0.9006 0.2040
C6_2 C 0.1652(5) 0.8441(7) 0.3336(4)
H4_2 H 0.1206 0.8467 0.3580
C7_2 C 0.1774(4) 0.8796(6) 0.2782(4)
C8_2 C 0.0260(4) 0.8596(6) 0.2590(3)
H6_2 H 0.0226 0.7336 0.2471
H14_2 H 0.0235 0.3985 0.0662
O1_2 O 0.3925(4) 0.7390(5) 0.3010(2)
O2_2 O 0.3190(3) 0.7104(4) 0.3845(2)
O3_2 O 0.1236(3) 0.9194(4) 0.2599(3)
C15_2 C 0.1395(6) 0.8808(4) 0.8954(3)
C16_2 C 0.1551(6) 0.9060(4) 0.8381(4)
H8_2 H 0.1520 0.9589 0.8247
C17_2 C 0.1472(6) 0.8044(4) 0.9160(3)
H9_2 H 0.1381 0.7889 0.9552
C18_2 C 0.1754(7) 0.8516(5) 0.8000(3)
H10_2 H 0.1849 0.8672 0.7609
C19_2 C 0.1683(6) 0.7512(4) 0.8785(4)
H11_2 H 0.1737 0.6998 0.8924
C20_2 C 0.1815(6) 0.7735(4) 0.8210(3)
C21_2 C 0.2026(7) 0.7134(5) 0.7790(4)
O6_2 O 0.1139(4) 0.9288(3) 0.9345(2)
O7_2 O 0.2032(4) 0.6415(3) 0.7975(3)
O8_2 O 0.2165(6) 0.7379(5) 0.7264(3)
C1_3 C 0.7459(6) 0.4098(4) 0.5018(3)
C2_3 C 0.7962(6) 0.5134(4) 0.4819(3)
C3_3 C 0.8317(6) 0.5385(5) 0.4269(3)
H1_3 H 0.8270 0.4914 0.4017
C4_3 C 0.8035(6) 0.5832(4) 0.5202(4)
H2_3 H 0.7821 0.5674 0.5582
C5_3 C 0.8753(7) 0.6343(5) 0.4078(4)
H3_3 H 0.9006 0.6508 0.3706
C6_3 C 0.8441(7) 0.6789(5) 0.5002(4)
H4_3 H 0.8467 0.7261 0.5246
C7_3 C 0.8796(6) 0.7022(4) 0.4448(4)
C8_3 C 0.8596(6) 0.8336(4) 0.4256(3)
C9_2 C 0.9007(6) 0.9311(4) 0.4309(4)
H5_2 H 0.9665 0.9693 0.4361
C10_2 C 0.7612(6) 0.7771(4) 0.4174(3)
H6_3 H 0.7336 0.7110 0.4137
C11_2 C 0.8419(6) 0.9727(4) 0.4285(3)
C12_2 C 0.7045(6) 0.8188(4) 0.4147(3)
C13_2 C 0.7454(6) 0.9178(4) 0.4213(3)
H7_2 H 0.7072 0.9460 0.4207
C14_2 C 0.5983(6) 0.7564(4) 0.4048(3)
C22_2 C 0.4776(8) 0.5886(5) 0.2556(4)
H12_2 H 0.5131 0.6544 0.2491
C23_2 C 0.3803(8) 0.4536(5) 0.2923(4)
H13_2 H 0.3353 0.4073 0.3170
C24_2 C 0.4146(10) 0.4355(6) 0.2466(5)
H14_3 H 0.3985 0.3750 0.2328
C25_2 C 0.5339(8) 0.5426(6) 0.1668(4)
H15_2 H 0.5583 0.4986 0.1631
H16_2 H 0.5880 0.6075 0.1666
C26_2 C 0.4683(8) 0.5293(6) 0.1160(4)
H17_2 H 0.4150 0.4638 0.1154
H18_2 H 0.4424 0.5720 0.1201
C27_2 C 0.5233(9) 0.5504(7) 0.0607(3)
H19_2 H 0.5469 0.5059 0.0558
H20_2 H 0.5781 0.6149 0.0619
C28_2 C 0.4586(10) 0.5412(8) 0.0093(4)
H21_2 H 0.4343 0.5850 0.0145
H22_2 H 0.4044 0.4765 0.0077
N3_2 N 0.4813(6) 0.5247(4) 0.2212(3)
N4_2 N 0.4197(6) 0.5508(4) 0.2993(3)
O3_3 O 0.9194(4) 0.7958(3) 0.4265(3)
O4_2 O 0.5664(4) 0.6698(3) 0.3928(3)
O5_2 O 0.5468(5) 0.7940(4) 0.4081(3)
C9_3 C 0.0304(5) 0.0993(6) 0.7643(4)
H5_3 H 0.0028 0.0335 0.7695
C10_3 C 0.0159(4) 0.2388(6) 0.7508(3)
C11_3 C 0.1308(4) 0.1581(6) 0.7619(3)
C12_3 C 0.1143(4) 0.2955(6) 0.7481(3)
C13_3 C 0.1724(4) 0.2546(6) 0.7547(3)
H7_3 H 0.2388 0.2928 0.7541
C14_3 C 0.1581(5) 0.4017(6) 0.7382(3)
C15_3 C 0.2587(4) 0.1395(6) 0.7288(3)
C16_3 C 0.2491(5) 0.1551(6) 0.6715(4)
H8_3 H 0.1931 0.1520 0.6581
C17_3 C 0.3428(5) 0.1472(6) 0.7494(3)
H9_3 H 0.3492 0.1381 0.7886
C18_3 C 0.3238(5) 0.1754(7) 0.6334(3)
H10_3 H 0.3177 0.1849 0.5943
C19_3 C 0.4171(4) 0.1683(6) 0.7119(4)
H11_3 H 0.4739 0.1737 0.7258
C20_3 C 0.4080(4) 0.1815(6) 0.6544(3)
C21_3 C 0.4892(5) 0.2026(7) 0.6124(4)
C22_3 C 0.1110(6) 0.5224(8) 0.5890(4)
H12_3 H 0.1413 0.4869 0.5825
C23_3 C 0.0733(6) 0.6197(8) 0.6257(4)
H13_3 H 0.0720 0.6647 0.6504
C24_3 C 0.0209(8) 0.5854(10) 0.5800(5)
C25_3 C 0.0087(6) 0.4661(8) 0.5002(4)
H16_3 H 0.0195 0.4120 0.5000
C26_3 C 0.0610(6) 0.5317(8) 0.4494(4)
H17_3 H 0.0488 0.5850 0.4488
H18_3 H 0.1296 0.5576 0.4535
C27_3 C 0.0271(5) 0.4767(9) 0.3941(3)
H20_3 H 0.0368 0.4219 0.3953
C28_3 C 0.0826(6) 0.5414(10) 0.3427(4)
H21_3 H 0.1507 0.5657 0.3479
H22_3 H 0.0721 0.5956 0.3411
C29_2 C 0.0485(6) 0.4836(9) 0.2850(4)
H23_2 H 0.0461 0.4225 0.2893
C30_2 C 0.0983(5) 0.5861(8) 0.1981(4)
H25_2 H 0.0419 0.5882 0.1940
C31_2 C 0.2435(7) 0.6108(11) 0.1868(6)
H26_2 H 0.3049 0.6335 0.1721
C32_2 C 0.2071(6) 0.5556(9) 0.2322(5)
H27_2 H 0.2377 0.5321 0.2556
N1 N 0.1745(5) 0.6298(8) 0.1643(3)
N2_2 N 0.1154(4) 0.5392(6) 0.2386(3)
N3_3 N 0.0434(4) 0.5187(6) 0.5546(3)
N4_3 N 0.1311(4) 0.5803(6) 0.6327(3)
O4_3 O 0.1034(3) 0.4336(4) 0.7262(3)
O5_3 O 0.2472(3) 0.4532(5) 0.7415(3)
O6_3 O 0.1851(3) 0.1139(4) 0.7679(2)
N1_2 N 0.5447(6) 0.1745(5) 0.9976(3)
C1_4 C 0.5902(4) 0.3361(4) 0.1685(3)
C2_4 C 0.4866(4) 0.2828(4) 0.1486(3)
C3_4 C 0.4615(5) 0.2932(4) 0.0936(3)
H1_4 H 0.5086 0.3356 0.0684
C4_4 C 0.4168(4) 0.2203(4) 0.1869(4)
H2_4 H 0.4326 0.2147 0.2249
C5_4 C 0.3657(5) 0.2410(5) 0.0745(4)
H3_4 H 0.3492 0.2498 0.0373
C6_4 C 0.3211(5) 0.1652(5) 0.1669(4)
H4_4 H 0.2739 0.1206 0.1913
C7_4 C 0.2978(4) 0.1774(4) 0.1115(4)
C8_4 C 0.1664(4) 0.0260(4) 0.0923(3)
H6_4 H 0.2890 0.0226 0.0804
O1_3 O 0.6535(3) 0.3925(4) 0.1343(2)
O2_3 O 0.6086(3) 0.3190(3) 0.2178(2)
O3_4 O 0.2042(3) 0.1236(3) 0.0932(3)
Cd3_2 Cd 0.77196(3) 0.40713(4) 0.20696(3)
C9_4 C 0.0689(4) 0.9696(5) 0.0976(4)
H5_4 H 0.0307 0.9972 0.1028
C10_4 C 0.2229(4) 0.9841(4) 0.0841(3)
C11_4 C 0.0273(4) 0.8692(4) 0.0952(3)
C12_4 C 0.1812(4) 0.8857(4) 0.0814(3)
C13_4 C 0.0822(4) 0.8276(4) 0.0880(3)
H7_4 H 0.0540 0.7612 0.0874
C14_4 C 0.2436(4) 0.8419(5) 0.0715(3)
O4_4 O 0.3302(3) 0.8966(3) 0.0595(3)
O5_4 O 0.2060(4) 0.7528(3) 0.0748(3)
Cd1_2 Cd 0.36483(3) 0.77196(3) 0.04029(3)
O10_2 O 0.2896(4) 0.6086(3) 0.0511(2)
O11_2 O 0.4383(3) 0.7968(4) 0.1309(3)
O12_2 O 0.5214(4) 0.7835(6) 0.0598(3)
C9_5 C 0.9696(5) 0.9007(6) 0.2643(4)
H5_5 H 0.9972 0.9665 0.2695
C10_5 C 0.9841(4) 0.7612(6) 0.2508(3)
C11_5 C 0.8692(4) 0.8419(6) 0.2619(3)
C12_5 C 0.8857(4) 0.7045(6) 0.2481(3)
C13_5 C 0.8276(4) 0.7454(6) 0.2547(3)
H7_5 H 0.7612 0.7072 0.2541
C14_5 C 0.8419(5) 0.5983(6) 0.2382(3)
C15_4 C 0.7413(4) 0.8605(6) 0.2288(3)
C16_4 C 0.7509(5) 0.8449(6) 0.1715(4)
H8_4 H 0.8069 0.8480 0.1581
C17_4 C 0.6572(5) 0.8528(6) 0.2494(3)
H9_4 H 0.6508 0.8619 0.2886
C18_4 C 0.6762(5) 0.8246(7) 0.1334(3)
H10_4 H 0.6823 0.8151 0.0943
C19_4 C 0.5829(4) 0.8317(6) 0.2119(4)
H11_4 H 0.5261 0.8263 0.2258
C20_4 C 0.5920(4) 0.8185(6) 0.1544(3)
C21_4 C 0.5108(5) 0.7974(7) 0.1124(4)
C22_4 C 0.8890(6) 0.4776(8) 0.0890(4)
H12_4 H 0.8587 0.5131 0.0825
C23_4 C 0.9267(6) 0.3803(8) 0.1257(4)
H13_4 H 0.9280 0.3353 0.1504
C24_4 C 0.9791(8) 0.4146(10) 0.0800(5)
C25_4 C 0.9913(6) 0.5339(8) 0.0002(4)
H16_4 H 0.9805 0.5880 -0.0000
N3_4 N 0.9566(4) 0.4813(6) 0.0546(3)
N4_4 N 0.8689(4) 0.4197(6) 0.1327(3)
O4_5 O 0.8966(3) 0.5664(4) 0.2262(3)
O5_5 O 0.7528(3) 0.5468(5) 0.2415(3)
O6_4 O 0.8149(3) 0.8861(4) 0.2679(2)
O11_3 O 0.7968(4) 0.3585(5) 0.2975(3)
O12_3 O 0.7835(6) 0.2621(7) 0.2264(3)
C1_5 C 0.2541(6) 0.5902(4) 0.0018(3)
C4_5 C 0.1965(6) 0.4168(4) 0.0202(4)
H2_5 H 0.2179 0.4326 0.0582
C6_5 C 0.1559(7) 0.3211(5) 0.0002(4)
H4_5 H 0.1533 0.2739 0.0246
C15_5 C 0.8605(6) 0.1192(4) 0.3954(3)
C16_5 C 0.8449(6) 0.0940(4) 0.3381(4)
H8_5 H 0.8480 0.0411 0.3247
C17_5 C 0.8528(6) 0.1956(4) 0.4160(3)
H9_5 H 0.8619 0.2111 0.4552
C18_5 C 0.8246(7) 0.1484(5) 0.3000(3)
H10_5 H 0.8151 0.1328 0.2609
C19_5 C 0.8317(6) 0.2488(4) 0.3785(4)
H11_5 H 0.8263 0.3002 0.3924
C20_5 C 0.8185(6) 0.2265(4) 0.3210(3)
C21_5 C 0.7974(7) 0.2866(5) 0.2790(4)
O6_5 O 0.8861(4) 0.0712(3) 0.4345(2)
H14_4 H 0.6250 0.0235 0.8995
H15_3 H 0.5014 0.0597 0.8298
H19_3 H 0.4941 0.0410 0.7225
H24_2 H 0.4866 0.0154 0.6087
C22_5 C 0.4114(5) 0.8890(6) 0.9223(4)
H12_5 H 0.3456 0.8587 0.9158
C23_5 C 0.5464(5) 0.9267(6) 0.9590(4)
H13_5 H 0.5927 0.9280 0.9837
C24_5 C 0.5645(6) 0.9791(8) 0.9133(5)
C25_5 C 0.4574(6) 0.9913(6) 0.8335(4)
H16_5 H 0.3925 0.9805 0.8333
C26_4 C 0.4707(6) 0.9390(6) 0.7827(4)
H17_4 H 0.5362 0.9512 0.7821
H18_4 H 0.4280 0.8704 0.7868
C27_4 C 0.4496(7) 0.9729(5) 0.7274(3)
H20_4 H 0.3851 0.9632 0.7286
C28_4 C 0.4588(8) 0.9174(6) 0.6760(4)
H21_4 H 0.4150 0.8493 0.6812
H22_4 H 0.5235 0.9279 0.6744
C29_3 C 0.4351(7) 0.9515(6) 0.6183(4)
H23_3 H 0.3764 0.9539 0.6226
C30_3 C 0.4878(6) 0.9017(5) 0.5314(4)
H25_3 H 0.5463 0.9581 0.5273
C31_3 C 0.3673(8) 0.7565(7) 0.5201(6)
H26_3 H 0.3286 0.6951 0.5054
C32_3 C 0.3485(7) 0.7929(6) 0.5655(5)
H27_3 H 0.2944 0.7623 0.5889
N1_3 N 0.4553(6) 0.8255(5) 0.4976(3)
N2_3 N 0.4238(5) 0.8846(4) 0.5719(3)
N3_5 N 0.4753(4) 0.9566(4) 0.8879(3)
N4_5 N 0.4492(4) 0.8689(4) 0.9660(3)
O9_2 O 0.2610(5) 0.6535(3) 0.9676(2)
H8_6 H 0.9589 0.8069 0.9914
C18_6 C 0.8516(5) 0.6762(5) 0.9667(3)
H10_6 H 0.8672 0.6823 0.9276
C20_6 C 0.7735(4) 0.5920(4) 0.9877(3)
C21_6 C 0.7134(5) 0.5108(5) 0.9457(4)
O7_3 O 0.6415(3) 0.4383(3) 0.9642(3)
O8_3 O 0.7379(5) 0.5214(4) 0.8931(3)
Cd2_2 Cd 0.59287(4) 0.36483(3) 0.87362(3)
C2_5 C 0.2038(6) 0.4866(4) 0.9819(3)
C3_5 C 0.1683(6) 0.4615(5) 0.9269(3)
H1_5 H 0.1730 0.5086 0.9017
C5_5 C 0.1247(7) 0.3657(5) 0.9078(4)
H3_5 H 0.0994 0.3492 0.8706
C7_5 C 0.1204(6) 0.2978(4) 0.9448(4)
C8_5 C 0.1404(6) 0.1664(4) 0.9256(3)
C9_6 C 0.0993(6) 0.0689(4) 0.9309(4)
H5_6 H 0.0335 0.0307 0.9361
C10_6 C 0.2388(6) 0.2229(4) 0.9174(3)
H6_5 H 0.2664 0.2890 0.9137
C11_6 C 0.1581(6) 0.0273(4) 0.9285(3)
C12_6 C 0.2955(6) 0.1812(4) 0.9147(3)
C13_6 C 0.2546(6) 0.0822(4) 0.9213(3)
H7_6 H 0.2928 0.0540 0.9207
C14_6 C 0.4017(6) 0.2436(4) 0.9048(3)
C22_6 C 0.5224(8) 0.4114(5) 0.7556(4)
H12_6 H 0.4869 0.3456 0.7491
C23_6 C 0.6197(8) 0.5464(5) 0.7923(4)
H13_6 H 0.6647 0.5927 0.8170
C24_6 C 0.5854(10) 0.5645(6) 0.7466(5)
H14_5 H 0.6015 0.6250 0.7328
C25_6 C 0.4661(8) 0.4574(6) 0.6668(4)
H15_4 H 0.4417 0.5014 0.6631
H16_6 H 0.4120 0.3925 0.6666
C26_5 C 0.5317(8) 0.4707(6) 0.6160(4)
H17_5 H 0.5850 0.5362 0.6154
H18_5 H 0.5576 0.4280 0.6201
C27_5 C 0.4767(9) 0.4496(7) 0.5607(3)
H19_4 H 0.4531 0.4941 0.5558
H20_5 H 0.4219 0.3851 0.5619
C28_5 C 0.5414(10) 0.4588(8) 0.5093(4)
H21_5 H 0.5657 0.4150 0.5145
H22_5 H 0.5956 0.5235 0.5077
C29_4 C 0.4836(9) 0.4351(7) 0.4516(4)
H23_4 H 0.4225 0.3764 0.4559
H24_3 H 0.4712 0.4866 0.4420
C30_4 C 0.5861(8) 0.4878(6) 0.3647(4)
H25_4 H 0.5882 0.5463 0.3606
C31_4 C 0.6108(11) 0.3673(8) 0.3534(6)
H26_4 H 0.6335 0.3286 0.3387
C32_4 C 0.5556(9) 0.3485(7) 0.3988(5)
H27_4 H 0.5321 0.2944 0.4222
N1_4 N 0.6298(8) 0.4553(6) 0.3309(3)
N2_4 N 0.5392(6) 0.4238(5) 0.4052(3)
N3_6 N 0.5187(6) 0.4753(4) 0.7212(3)
N4_6 N 0.5803(6) 0.4492(4) 0.7993(3)
O3_5 O 0.0806(4) 0.2042(3) 0.9265(3)
O4_6 O 0.4336(4) 0.3302(3) 0.8928(3)
O5_6 O 0.4532(5) 0.2060(4) 0.9081(3)
O9_3 O 0.6075(6) 0.2610(5) 0.8010(2)
O10_3 O 0.6810(5) 0.2896(4) 0.8845(2)
C1_6 C 0.6639(4) 0.2541(6) 0.8352(3)
C2_6 C 0.7172(4) 0.2038(6) 0.8153(3)
C3_6 C 0.7068(4) 0.1683(6) 0.7603(3)
H1_6 H 0.6644 0.1730 0.7351
C4_6 C 0.7797(4) 0.1965(6) 0.8536(4)
H2_6 H 0.7853 0.2179 0.8916
C5_6 C 0.7590(5) 0.1247(7) 0.7412(4)
H3_6 H 0.7502 0.0994 0.7040
C6_6 C 0.8348(5) 0.1559(7) 0.8336(4)
H4_6 H 0.8794 0.1533 0.8580
C7_6 C 0.8226(4) 0.1204(6) 0.7782(4)
C8_6 C 0.9740(4) 0.1404(6) 0.7590(3)
H6_6 H 0.9774 0.2664 0.7471
H14_6 H 0.9765 0.6015 0.5662
H15_5 H 0.9403 0.4417 0.4965
H19_5 H 0.9590 0.4531 0.3892
H24_4 H 0.9846 0.4712 0.2754
O3_6 O 0.8764(3) 0.0806(4) 0.7599(3)
C15_6 C 0.8808(4) 0.7413(4) 0.0621(3)
C16_6 C 0.9060(4) 0.7509(5) 0.0048(4)
C17_6 C 0.8044(4) 0.6572(5) 0.0827(3)
H9_6 H 0.7889 0.6508 0.1219
C19_6 C 0.7512(4) 0.5829(4) 0.0452(4)
H11_6 H 0.6998 0.5261 0.0591
O6_6 O 0.9288(3) 0.8149(3) 0.1012(2)
H15_6 H 0.0597 0.5583 0.9965
H19_6 H 0.0410 0.5469 0.8892
H24_5 H 0.0154 0.5288 0.7754
H16_7 H 0.9805 0.5880 1.0000
C26_6 C 0.9390(6) 0.4683(8) 0.9494(4)
H17_6 H 0.9512 0.4150 0.9488
H18_6 H 0.8704 0.4424 0.9535
C27_6 C 0.9729(5) 0.5233(9) 0.8941(3)
H20_6 H 0.9632 0.5781 0.8953
C28_6 C 0.9174(6) 0.4586(10) 0.8427(4)
H21_6 H 0.8493 0.4343 0.8479
H22_6 H 0.9279 0.4044 0.8411
C29_5 C 0.9515(6) 0.5164(9) 0.7850(4)
H23_5 H 0.9539 0.5775 0.7893
C30_5 C 0.9017(5) 0.4139(8) 0.6981(4)
H25_5 H 0.9581 0.4118 0.6940
C31_5 C 0.7565(7) 0.3892(11) 0.6868(6)
H26_5 H 0.6951 0.3665 0.6721
C32_5 C 0.7929(6) 0.4444(9) 0.7322(5)
H27_5 H 0.7623 0.4679 0.7556
N1_5 N 0.8255(5) 0.3702(8) 0.6643(3)
N2_5 N 0.8846(4) 0.4608(6) 0.7386(3)
C29_6 C 0.5164(9) 0.5649(7) 0.9516(4)
H23_6 H 0.5775 0.6236 0.9559
H24_6 H 0.5288 0.5134 0.9420
C30_6 C 0.4139(8) 0.5122(6) 0.8647(4)
H25_6 H 0.4118 0.4537 0.8606
C31_6 C 0.3892(11) 0.6327(8) 0.8534(6)
H26_6 H 0.3665 0.6714 0.8387
C32_6 C 0.4444(9) 0.6515(7) 0.8988(5)
H27_6 H 0.4679 0.7056 0.9222
N1_6 N 0.3702(8) 0.5447(6) 0.8309(3)
N2_6 N 0.4608(6) 0.5762(5) 0.9052(3)
loop_
_geom_bond_atom_site_label_1
_geom_bond_atom_site_label_2
_geom_bond_site_symmetry_1
_geom_bond_site_symmetry_2
C15 C16 1_555 1_555
C16 H8 1_555 1_555
C17 C15 1_555 1_555
H9 C17 1_555 1_555
C18 C16 1_555 1_555
H10 C18 1_555 1_555
C19 C17 1_555 1_555
H11 C19 1_555 1_555
C20 C18 1_555 1_555
C21 C20 1_555 1_555
O7 C21 1_555 1_555
O8 C21 1_555 1_555
Cd2 O7 1_555 1_555
C15 O6 1_555 1_555
C19 C20 1_555 1_555
O8 Cd2 1_555 1_555
C9 H5 1_555 1_555
C11 C9 1_555 1_555
C12 C10 1_555 1_555
C13 C11 1_555 1_555
H7 C13 1_555 1_555
C14 C12 1_555 1_555
C22 H12 1_555 1_555
C23 H13 1_555 1_555
C24 C23 1_555 1_555
H16 C25 1_555 1_555
C26 C25 1_555 1_555
H17 C26 1_555 1_555
H18 C26 1_555 1_555
C27 C26 1_555 1_555
H20 C27 1_555 1_555
C28 C27 1_555 1_555
H21 C28 1_555 1_555
H22 C28 1_555 1_555
C29 C28 1_555 1_555
H23 C29 1_555 1_555
C30 H25 1_555 1_555
C31 H26 1_555 1_555
C32 C31 1_555 1_555
H27 C32 1_555 1_555
N2 C29 1_555 1_555
N3 C22 1_555 1_555
N4 C22 1_555 1_555
O4 C14 1_555 1_555
O5 C14 1_555 1_555
Cd1 N4 1_555 1_555
O9 Cd1 1_555 1_555
O10 Cd1 1_555 1_555
O11 Cd1 1_555 1_555
O12 Cd1 1_555 1_555
C12 C13 1_555 1_555
C23 N4 1_555 1_555
C24 N3 1_555 1_555
C25 N3 1_555 1_555
C30 N2 1_555 1_555
C32 N2 1_555 1_555
O4 Cd1 1_555 1_555
O5 Cd1 1_555 1_555
C1 C2 1_555 1_555
C2 C3 1_555 1_555
C3 H1 1_555 1_555
C4 C2 1_555 1_555
H2 C4 1_555 1_555
C5 C3 1_555 1_555
H3 C5 1_555 1_555
C6 C4 1_555 1_555
H4 C6 1_555 1_555
C7 C5 1_555 1_555
O1 C1 1_555 1_555
O2 C1 1_555 1_555
O3 C7 1_555 1_555
Cd3 O1 1_555 1_555
C6 C7 1_555 1_555
C8 O3 1_555 1_555
O2 Cd3 1_555 1_555
C1_2 C2_2 1_555 1_555
C2_2 C3_2 1_555 1_555
C3_2 H1_2 1_555 1_555
C4_2 C2_2 1_555 1_555
H2_2 C4_2 1_555 1_555
C5_2 C3_2 1_555 1_555
H3_2 C5_2 1_555 1_555
C6_2 C4_2 1_555 1_555
H4_2 C6_2 1_555 1_555
C7_2 C5_2 1_555 1_555
O1_2 C1_2 1_555 1_555
O2_2 C1_2 1_555 1_555
O3_2 C7_2 1_555 1_555
Cd2 O1_2 1_555 1_555
C6_2 C7_2 1_555 1_555
C8_2 O3_2 1_555 1_555
O2_2 Cd2 1_555 1_555
C15_2 C16_2 1_555 1_555
C16_2 H8_2 1_555 1_555
C17_2 C15_2 1_555 1_555
H9_2 C17_2 1_555 1_555
C18_2 C16_2 1_555 1_555
H10_2 C18_2 1_555 1_555
C19_2 C17_2 1_555 1_555
H11_2 C19_2 1_555 1_555
C20_2 C18_2 1_555 1_555
C21_2 C20_2 1_555 1_555
O7_2 C21_2 1_555 1_555
O8_2 C21_2 1_555 1_555
Cd3 O7_2 1_555 1_555
C15_2 O6_2 1_555 1_555
C19_2 C20_2 1_555 1_555
O8_2 Cd3 1_555 1_555
C1_3 C2_3 1_555 1_555
C2_3 C3_3 1_555 1_555
C3_3 H1_3 1_555 1_555
C4_3 C2_3 1_555 1_555
H2_3 C4_3 1_555 1_555
C5_3 C3_3 1_555 1_555
H3_3 C5_3 1_555 1_555
C6_3 C4_3 1_555 1_555
H4_3 C6_3 1_555 1_555
C7_3 C5_3 1_555 1_555
C8_3 C9_2 1_555 1_555
C9_2 H5_2 1_555 1_555
C10_2 C8_3 1_555 1_555
H6_3 C10_2 1_555 1_555
C11_2 C9_2 1_555 1_555
C12_2 C10_2 1_555 1_555
C13_2 C11_2 1_555 1_555
H7_2 C13_2 1_555 1_555
C14_2 C12_2 1_555 1_555
C22_2 H12_2 1_555 1_555
C23_2 H13_2 1_555 1_555
C24_2 C23_2 1_555 1_555
H14_3 C24_2 1_555 1_555
C25_2 H15_2 1_555 1_555
H16_2 C25_2 1_555 1_555
C26_2 C25_2 1_555 1_555
H17_2 C26_2 1_555 1_555
H18_2 C26_2 1_555 1_555
C27_2 C26_2 1_555 1_555
H19_2 C27_2 1_555 1_555
H20_2 C27_2 1_555 1_555
C28_2 C27_2 1_555 1_555
H21_2 C28_2 1_555 1_555
H22_2 C28_2 1_555 1_555
N3_2 C22_2 1_555 1_555
N4_2 C22_2 1_555 1_555
O9 C1_3 1_555 1_555
O10 C1_3 1_555 1_555
O3_3 C7_3 1_555 1_555
O4_2 C14_2 1_555 1_555
O5_2 C14_2 1_555 1_555
Cd2 N4_2 1_555 1_555
C6_3 C7_3 1_555 1_555
C8_3 O3_3 1_555 1_555
C12_2 C13_2 1_555 1_555
C23_2 N4_2 1_555 1_555
C24_2 N3_2 1_555 1_555
C25_2 N3_2 1_555 1_555
O4_2 Cd2 1_555 1_555
O5_2 Cd2 1_555 1_555
C9_3 H5_3 1_555 1_555
C11_3 C9_3 1_555 1_555
C12_3 C10_3 1_555 1_555
C13_3 C11_3 1_555 1_555
H7_3 C13_3 1_555 1_555
C14_3 C12_3 1_555 1_555
C15_3 C16_3 1_555 1_555
C16_3 H8_3 1_555 1_555
C17_3 C15_3 1_555 1_555
H9_3 C17_3 1_555 1_555
C18_3 C16_3 1_555 1_555
H10_3 C18_3 1_555 1_555
C19_3 C17_3 1_555 1_555
H11_3 C19_3 1_555 1_555
C20_3 C18_3 1_555 1_555
C21_3 C20_3 1_555 1_555
C22_3 H12_3 1_555 1_555
C23_3 H13_3 1_555 1_555
C24_3 C23_3 1_555 1_555
H16_3 C25_3 1_555 1_555
C26_3 C25_3 1_555 1_555
H17_3 C26_3 1_555 1_555
H18_3 C26_3 1_555 1_555
C27_3 C26_3 1_555 1_555
H20_3 C27_3 1_555 1_555
C28_3 C27_3 1_555 1_555
H21_3 C28_3 1_555 1_555
H22_3 C28_3 1_555 1_555
C29_2 C28_3 1_555 1_555
H23_2 C29_2 1_555 1_555
C30_2 H25_2 1_555 1_555
C31_2 H26_2 1_555 1_555
C32_2 C31_2 1_555 1_555
H27_2 C32_2 1_555 1_555
N1 C30_2 1_555 1_555
N2_2 C29_2 1_555 1_555
N3_3 C22_3 1_555 1_555
N4_3 C22_3 1_555 1_555
O4_3 C14_3 1_555 1_555
O5_3 C14_3 1_555 1_555
O6_3 C11_3 1_555 1_555
O11 C21_3 1_555 1_555
O12 C21_3 1_555 1_555
Cd3 N4_3 1_555 1_555
C12_3 C13_3 1_555 1_555
C15_3 O6_3 1_555 1_555
C19_3 C20_3 1_555 1_555
C23_3 N4_3 1_555 1_555
C24_3 N3_3 1_555 1_555
C25_3 N3_3 1_555 1_555
C30_2 N2_2 1_555 1_555
C31_2 N1 1_555 1_555
C32_2 N2_2 1_555 1_555
O4_3 Cd3 1_555 1_555
O5_3 Cd3 1_555 1_555
C1_4 C2_4 1_555 1_555
C2_4 C3_4 1_555 1_555
C3_4 H1_4 1_555 1_555
C4_4 C2_4 1_555 1_555
H2_4 C4_4 1_555 1_555
C5_4 C3_4 1_555 1_555
H3_4 C5_4 1_555 1_555
C6_4 C4_4 1_555 1_555
H4_4 C6_4 1_555 1_555
C7_4 C5_4 1_555 1_555
O1_3 C1_4 1_555 1_555
O2_3 C1_4 1_555 1_555
O3_4 C7_4 1_555 1_555
Cd3_2 O1_3 1_555 1_555
C6_4 C7_4 1_555 1_555
C8_4 O3_4 1_555 1_555
O2_3 Cd3_2 1_555 1_555
C9_4 H5_4 1_555 1_555
C11_4 C9_4 1_555 1_555
C12_4 C10_4 1_555 1_555
C13_4 C11_4 1_555 1_555
H7_4 C13_4 1_555 1_555
C14_4 C12_4 1_555 1_555
O4_4 C14_4 1_555 1_555
O5_4 C14_4 1_555 1_555
O10_2 Cd1_2 1_555 1_555
O11_2 Cd1_2 1_555 1_555
O12_2 Cd1_2 1_555 1_555
C12_4 C13_4 1_555 1_555
O4_4 Cd1_2 1_555 1_555
O5_4 Cd1_2 1_555 1_555
C9_5 H5_5 1_555 1_555
C11_5 C9_5 1_555 1_555
C12_5 C10_5 1_555 1_555
C13_5 C11_5 1_555 1_555
H7_5 C13_5 1_555 1_555
C14_5 C12_5 1_555 1_555
C15_4 C16_4 1_555 1_555
C16_4 H8_4 1_555 1_555
C17_4 C15_4 1_555 1_555
H9_4 C17_4 1_555 1_555
C18_4 C16_4 1_555 1_555
H10_4 C18_4 1_555 1_555
C19_4 C17_4 1_555 1_555
H11_4 C19_4 1_555 1_555
C20_4 C18_4 1_555 1_555
C21_4 C20_4 1_555 1_555
C22_4 H12_4 1_555 1_555
C23_4 H13_4 1_555 1_555
C24_4 C23_4 1_555 1_555
H16_4 C25_4 1_555 1_555
N3_4 C22_4 1_555 1_555
N4_4 C22_4 1_555 1_555
O4_5 C14_5 1_555 1_555
O5_5 C14_5 1_555 1_555
O6_4 C11_5 1_555 1_555
O11_2 C21_4 1_555 1_555
O12_2 C21_4 1_555 1_555
Cd3_2 N4_4 1_555 1_555
O11_3 Cd3_2 1_555 1_555
O12_3 Cd3_2 1_555 1_555
C12_5 C13_5 1_555 1_555
C15_4 O6_4 1_555 1_555
C19_4 C20_4 1_555 1_555
C23_4 N4_4 1_555 1_555
C24_4 N3_4 1_555 1_555
C25_4 N3_4 1_555 1_555
O4_5 Cd3_2 1_555 1_555
O5_5 Cd3_2 1_555 1_555
H2_5 C4_5 1_555 1_555
C6_5 C4_5 1_555 1_555
H4_5 C6_5 1_555 1_555
O10_2 C1_5 1_555 1_555
C15_5 C16_5 1_555 1_555
C16_5 H8_5 1_555 1_555
C17_5 C15_5 1_555 1_555
H9_5 C17_5 1_555 1_555
C18_5 C16_5 1_555 1_555
H10_5 C18_5 1_555 1_555
C19_5 C17_5 1_555 1_555
H11_5 C19_5 1_555 1_555
C20_5 C18_5 1_555 1_555
C21_5 C20_5 1_555 1_555
O11_3 C21_5 1_555 1_555
O12_3 C21_5 1_555 1_555
C15_5 O6_5 1_555 1_555
C19_5 C20_5 1_555 1_555
C22_5 H12_5 1_555 1_555
C23_5 H13_5 1_555 1_555
C24_5 C23_5 1_555 1_555
H16_5 C25_5 1_555 1_555
C26_4 C25_5 1_555 1_555
H17_4 C26_4 1_555 1_555
H18_4 C26_4 1_555 1_555
C27_4 C26_4 1_555 1_555
H20_4 C27_4 1_555 1_555
C28_4 C27_4 1_555 1_555
H21_4 C28_4 1_555 1_555
H22_4 C28_4 1_555 1_555
C29_3 C28_4 1_555 1_555
H23_3 C29_3 1_555 1_555
C30_3 H25_3 1_555 1_555
C31_3 H26_3 1_555 1_555
C32_3 C31_3 1_555 1_555
H27_3 C32_3 1_555 1_555
N1_3 C30_3 1_555 1_555
N2_3 C29_3 1_555 1_555
N3_5 C22_5 1_555 1_555
N4_5 C22_5 1_555 1_555
C23_5 N4_5 1_555 1_555
C24_5 N3_5 1_555 1_555
C25_5 N3_5 1_555 1_555
C30_3 N2_3 1_555 1_555
C31_3 N1_3 1_555 1_555
C32_3 N2_3 1_555 1_555
H10_6 C18_6 1_555 1_555
C20_6 C18_6 1_555 1_555
C21_6 C20_6 1_555 1_555
O7_3 C21_6 1_555 1_555
O8_3 C21_6 1_555 1_555
Cd2_2 O7_3 1_555 1_555
O8_3 Cd2_2 1_555 1_555
C2_5 C3_5 1_555 1_555
C3_5 H1_5 1_555 1_555
C5_5 C3_5 1_555 1_555
H3_5 C5_5 1_555 1_555
C7_5 C5_5 1_555 1_555
C8_5 C9_6 1_555 1_555
C9_6 H5_6 1_555 1_555
C10_6 C8_5 1_555 1_555
H6_5 C10_6 1_555 1_555
C11_6 C9_6 1_555 1_555
C12_6 C10_6 1_555 1_555
C13_6 C11_6 1_555 1_555
H7_6 C13_6 1_555 1_555
C14_6 C12_6 1_555 1_555
C22_6 H12_6 1_555 1_555
C23_6 H13_6 1_555 1_555
C24_6 C23_6 1_555 1_555
H14_5 C24_6 1_555 1_555
C25_6 H15_4 1_555 1_555
H16_6 C25_6 1_555 1_555
C26_5 C25_6 1_555 1_555
H17_5 C26_5 1_555 1_555
H18_5 C26_5 1_555 1_555
C27_5 C26_5 1_555 1_555
H19_4 C27_5 1_555 1_555
H20_5 C27_5 1_555 1_555
C28_5 C27_5 1_555 1_555
H21_5 C28_5 1_555 1_555
H22_5 C28_5 1_555 1_555
C29_4 C28_5 1_555 1_555
H23_4 C29_4 1_555 1_555
H24_3 C29_4 1_555 1_555
C30_4 H25_4 1_555 1_555
C31_4 H26_4 1_555 1_555
C32_4 C31_4 1_555 1_555
H27_4 C32_4 1_555 1_555
N1_4 C30_4 1_555 1_555
N2_4 C29_4 1_555 1_555
N3_6 C22_6 1_555 1_555
N4_6 C22_6 1_555 1_555
O3_5 C7_5 1_555 1_555
O4_6 C14_6 1_555 1_555
O5_6 C14_6 1_555 1_555
Cd2_2 N4_6 1_555 1_555
O9_3 Cd2_2 1_555 1_555
O10_3 Cd2_2 1_555 1_555
C8_5 O3_5 1_555 1_555
C12_6 C13_6 1_555 1_555
C23_6 N4_6 1_555 1_555
C24_6 N3_6 1_555 1_555
C25_6 N3_6 1_555 1_555
C30_4 N2_4 1_555 1_555
C31_4 N1_4 1_555 1_555
C32_4 N2_4 1_555 1_555
O4_6 Cd2_2 1_555 1_555
O5_6 Cd2_2 1_555 1_555
C1_6 C2_6 1_555 1_555
C2_6 C3_6 1_555 1_555
C3_6 H1_6 1_555 1_555
C4_6 C2_6 1_555 1_555
H2_6 C4_6 1_555 1_555
C5_6 C3_6 1_555 1_555
H3_6 C5_6 1_555 1_555
C6_6 C4_6 1_555 1_555
H4_6 C6_6 1_555 1_555
C7_6 C5_6 1_555 1_555
O9_3 C1_6 1_555 1_555
O10_3 C1_6 1_555 1_555
O3_6 C7_6 1_555 1_555
C6_6 C7_6 1_555 1_555
C8_6 O3_6 1_555 1_555
C15_6 C16_6 1_555 1_555
C17_6 C15_6 1_555 1_555
H9_6 C17_6 1_555 1_555
C19_6 C17_6 1_555 1_555
H11_6 C19_6 1_555 1_555
C15_6 O6_6 1_555 1_555
H17_6 C26_6 1_555 1_555
H18_6 C26_6 1_555 1_555
C27_6 C26_6 1_555 1_555
H20_6 C27_6 1_555 1_555
C28_6 C27_6 1_555 1_555
H21_6 C28_6 1_555 1_555
H22_6 C28_6 1_555 1_555
C29_5 C28_6 1_555 1_555
H23_5 C29_5 1_555 1_555
C30_5 H25_5 1_555 1_555
C31_5 H26_5 1_555 1_555
C32_5 C31_5 1_555 1_555
H27_5 C32_5 1_555 1_555
N1_5 C30_5 1_555 1_555
N2_5 C29_5 1_555 1_555
C30_5 N2_5 1_555 1_555
C31_5 N1_5 1_555 1_555
C32_5 N2_5 1_555 1_555
H23_6 C29_6 1_555 1_555
H24_6 C29_6 1_555 1_555
C30_6 H25_6 1_555 1_555
C31_6 H26_6 1_555 1_555
C32_6 C31_6 1_555 1_555
H27_6 C32_6 1_555 1_555
N1_6 C30_6 1_555 1_555
N2_6 C29_6 1_555 1_555
C30_6 N2_6 1_555 1_555
C31_6 N1_6 1_555 1_555
C32_6 N2_6 1_555 1_555

#END
