
###############################################################################
#
# This file contains modified crystal structure data generated from the
# MOF subset of the Cambridge Structural Database (CSD) v543 
# hosted by the Cambridge Crystallographic Data Centre (CCDC).
#
# This work is licensed under the Creative Commons
# Attribution-NonCommercial-ShareAlike 4.0 International License.
# To view a copy of this license, visit
# http://creativecommons.org/licenses/by-nc-sa/4.0/
# or send a letter to
# Creative Commons, PO Box 1866, Mountain View, CA 94042, USA.
#
# CIF created using the CSD Python API on 29 September 2022
# The structure has been converted into the P1 space group
# The structure has a 3D framework
# The original CSD entry WIJRIT is in the rhombohedral crystal system
# The framework has been calculated to contain at least 10.0% void space
# The void calculation uses a probe of radius 1.32A, grid spacing 0.4
# H atom positions have been added when not included in the experimental data
# Generated hydrogen atom positions removed from atoms on special positions
#
###############################################################################

data_WIJRIT
_chemical_formula_moiety         '(C234 H252 Cu18 O99)n'
_symmetry_cell_setting           triclinic
_symmetry_space_group_name_H-M   'P 1'
_symmetry_Int_Tables_number      1
_space_group_name_Hall           'P 1'
loop_
_symmetry_equiv_pos_site_id
_symmetry_equiv_pos_as_xyz
1 x,y,z
_cell_length_a                   18.6648(11)
_cell_length_b                   18.6648(11)
_cell_length_c                   39.660(6)
_cell_angle_alpha                90
_cell_angle_beta                 90
_cell_angle_gamma                120
_cell_volume                     11965.5
loop_
_atom_site_label
_atom_site_type_symbol
_atom_site_fract_x
_atom_site_fract_y
_atom_site_fract_z
O16 O 0.5895(4) 0.0304(3) 0.04230(13)
O17 O 0.4409(3) 0.0304(3) 0.04230(13)
O5 O 0.8141(3) 0.0380(4) 0.66359(13)
O6 O 0.7742(3) 0.0772(4) 0.70897(13)
C11 C 0.7873(4) 0.0288(5) 0.69217(19)
Cu2 Cu 0.52327(7) 0.04654(6) 0.97271(3)
O12 O 0.5601(6) 0.1202(5) 0.9268(2)
Cu6 Cu 0.81006(7) 0.18994(3) 0.69396(3)
Cu8 Cu 0.85660(3) 0.14340(7) 0.63938(3)
O13 O 0.6287(4) 0.1095(2) 0.99692(13)
O14 O 0.4808(3) 0.1095(2) 0.99692(13)
Cu1 Cu 0.47673(3) 0.95346(6) 0.02729(3)
O1 O 0.5192(3) 0.8905(2) 0.00308(13)
O3 O 0.4399(3) 0.8798(5) 0.0732(2)
O8 O 0.5192(3) 0.6287(4) 0.00308(13)
Cu3 Cu 0.47673(7) 0.52327(3) 0.02729(3)
O15 O 0.3713(4) 0.8905(2) 0.00308(13)
O2 O 0.5591(3) 0.9696(3) 0.95770(13)
O4 O 0.8197(9) 0.9099(5) 0.9077(4)
H1 H 0.7889 0.8945 0.9241
C1 C 0.5460(4) 0.9081(3) 0.97450(19)
C2 C 0.5734(5) 0.8507(4) 0.95889(19)
C3 C 0.5555(6) 0.7778(3) 0.9742(3)
H2 H 0.5309 0.7654 0.9954
C4 C 0.6151(7) 0.8714(5) 0.9275(2)
H3 H 0.6244 0.9191 0.9164
C5 C 0.6426(8) 0.8213(4) 0.9131(3)
C6 C 0.5573(9) 0.7786(5) 0.8504(5)
H4 H 0.5282 0.7641 0.8706
C7 C 0.6481(7) 0.8241(3) 0.8493(3)
C8 C 0.6925(10) 0.8462(5) 0.8788(4)
C9 C 0.7712(12) 0.8856(6) 0.8775(5)
C10 C 0.8160(10) 0.9080(5) 0.8474(6)
H5 H 0.8735 0.9368 0.8482
O7 O 0.5136(9) 0.7569(10) 0.7590(4)
H6 H 0.5444 0.7723 0.7426
C12 C 0.7599(5) 0.9440(6) 0.70778(19)
C13 C 0.7778(6) 0.8890(7) 0.6925(3)
H7 H 0.8024 0.9012 0.6713
C14 C 0.7182(7) 0.9230(9) 0.7392(2)
H8 H 0.7089 0.9614 0.7503
C15 C 0.6907(8) 0.8454(9) 0.7536(3)
C16 C 0.7760(9) 0.8880(10) 0.8163(5)
H9 H 0.8051 0.9026 0.7961
C17 C 0.6852(7) 0.8427(8) 0.8174(3)
C18 C 0.6408(10) 0.8204(11) 0.7879(4)
C19 C 0.5621(12) 0.7811(13) 0.7892(5)
C20 C 0.5173(10) 0.7587(11) 0.8193(6)
H10 H 0.4598 0.7300 0.8185
O9 O 0.5591(3) 0.5895(4) 0.95770(13)
C21 C 0.5460(4) 0.6379(5) 0.97450(19)
C22 C 0.5734(5) 0.7227(6) 0.95889(19)
C23 C 0.6151(7) 0.7437(9) 0.9275(2)
H11 H 0.6244 0.7053 0.9164
O10 O 0.8141(3) 0.7762(2) 0.66359(13)
O11 O 0.7742(3) 0.6971(3) 0.70897(13)
C24 C 0.7873(4) 0.7586(3) 0.69217(19)
C25 C 0.7599(5) 0.8160(4) 0.70778(19)
C26 C 0.7182(7) 0.7953(5) 0.7392(2)
H12 H 0.7089 0.7476 0.7503
Cu4 Cu 0.52327(3) 0.47673(7) 0.97271(3)
Cu5 Cu 0.81006(3) 0.62013(6) 0.69396(3)
Cu7 Cu 0.85660(7) 0.71321(6) 0.63938(3)
O18 O 0.4105(4) 0.9696(3) 0.95770(13)
O10_2 O 0.2238(2) 0.0380(4) 0.66359(13)
O11_2 O 0.3029(3) 0.0772(4) 0.70897(13)
C24_2 C 0.2414(3) 0.0288(5) 0.69217(19)
Cu5_2 Cu 0.37987(6) 0.18994(7) 0.69396(3)
Cu7_2 Cu 0.28679(6) 0.14340(9) 0.63938(3)
Cu1_2 Cu 0.04654(6) 0.52327(7) 0.02729(3)
O1_2 O 0.1095(2) 0.6287(4) 0.00308(13)
O3_2 O 0.1202(5) 0.5601(6) 0.0732(2)
O15_2 O 0.1095(2) 0.4808(4) 0.00308(13)
O2_2 O 0.0304(3) 0.5895(4) 0.95770(13)
O4_2 O 0.0901(5) 0.9098(10) 0.9077(4)
H1_2 H 0.1055 0.8944 0.9241
C1_2 C 0.0919(3) 0.6379(5) 0.97450(19)
C2_2 C 0.1493(4) 0.7227(6) 0.95889(19)
C3_2 C 0.2222(3) 0.7777(7) 0.9742(3)
H2_2 H 0.2346 0.7655 0.9954
C4_2 C 0.1286(5) 0.7437(9) 0.9275(2)
H3_2 H 0.0809 0.7053 0.9164
C5_2 C 0.1787(4) 0.8213(9) 0.9131(3)
C6_2 C 0.2214(5) 0.7787(10) 0.8504(5)
H4_2 H 0.2359 0.7641 0.8706
C7_2 C 0.1759(3) 0.8240(8) 0.8493(3)
C8_2 C 0.1538(5) 0.8463(11) 0.8788(4)
C9_2 C 0.1144(6) 0.8856(13) 0.8775(5)
C10_2 C 0.0920(5) 0.9080(11) 0.8474(6)
H5_2 H 0.0632 0.9367 0.8482
O7_2 O 0.2431(10) 0.7568(13) 0.7590(4)
H6_2 H 0.2277 0.7722 0.7426
C12_2 C 0.0560(6) 0.8160(8) 0.70778(19)
C13_2 C 0.1110(7) 0.8889(9) 0.6925(3)
H7_2 H 0.0988 0.9013 0.6713
C14_2 C 0.0770(9) 0.7953(11) 0.7392(2)
H8_2 H 0.0386 0.7476 0.7503
C15_2 C 0.1546(9) 0.8454(12) 0.7536(3)
C16_2 C 0.1120(10) 0.8881(13) 0.8163(5)
H9_2 H 0.0974 0.9026 0.7961
C17_2 C 0.1573(8) 0.8426(11) 0.8174(3)
C18_2 C 0.1796(11) 0.8205(15) 0.7879(4)
C19_2 C 0.2189(13) 0.7811(18) 0.7892(5)
C20_2 C 0.2413(11) 0.7587(15) 0.8193(6)
H10_2 H 0.2700 0.7299 0.8185
C21_2 C 0.3621(5) 0.9081(6) 0.97450(19)
C22_2 C 0.2773(6) 0.8507(8) 0.95889(19)
C23_2 C 0.2563(9) 0.8714(11) 0.9275(2)
H11_2 H 0.2947 0.9191 0.9164
C25_2 C 0.1840(4) 0.9440(6) 0.70778(19)
C26_2 C 0.2047(5) 0.9230(9) 0.7392(2)
H12_2 H 0.2524 0.9614 0.7503
O18_2 O 0.0304(3) 0.4409(5) 0.95770(13)
O16_2 O 0.9696(3) 0.5591(5) 0.04230(13)
O17_2 O 0.9696(3) 0.4105(4) 0.04230(13)
O5_2 O 0.9620(4) 0.7762(5) 0.66359(13)
O6_2 O 0.9228(4) 0.6971(5) 0.70897(13)
C11_2 C 0.9712(5) 0.7586(6) 0.69217(19)
Cu2_2 Cu 0.95346(6) 0.47673(9) 0.97271(3)
O12_2 O 0.8798(5) 0.4399(8) 0.9268(2)
O13_2 O 0.8905(2) 0.5192(4) 0.99692(13)
O14_2 O 0.8905(2) 0.3713(4) 0.99692(13)
O1_3 O 0.3713(4) 0.4808(3) 0.00308(13)
O3_3 O 0.4399(6) 0.5601(3) 0.0732(2)
O16_3 O 0.4409(5) 0.4105(4) 0.04230(13)
O17_3 O 0.5895(4) 0.5591(3) 0.04230(13)
O2_3 O 0.4105(4) 0.4409(3) 0.95770(13)
O4_3 O 0.0902(10) 0.1803(9) 0.9077(4)
H1_3 H 0.1056 0.2111 0.9241
C1_3 C 0.3621(5) 0.4540(4) 0.97450(19)
C2_3 C 0.2773(6) 0.4266(5) 0.95889(19)
C3_3 C 0.2223(7) 0.4445(6) 0.9742(3)
H2_3 H 0.2345 0.4691 0.9954
C4_3 C 0.2563(9) 0.3849(7) 0.9275(2)
H3_3 H 0.2947 0.3756 0.9164
C5_3 C 0.1787(9) 0.3574(8) 0.9131(3)
C6_3 C 0.2213(10) 0.4427(9) 0.8504(5)
H4_3 H 0.2359 0.4718 0.8706
C7_3 C 0.1760(8) 0.3519(7) 0.8493(3)
C8_3 C 0.1537(11) 0.3075(10) 0.8788(4)
C9_3 C 0.1144(13) 0.2288(12) 0.8775(5)
C10_3 C 0.0920(11) 0.1840(10) 0.8474(6)
H5_3 H 0.0633 0.1265 0.8482
O5_3 O 0.2238(5) 0.1859(3) 0.66359(13)
O6_3 O 0.3029(5) 0.2258(3) 0.70897(13)
O7_3 O 0.2432(13) 0.4864(9) 0.7590(4)
H6_3 H 0.2278 0.4556 0.7426
C11_3 C 0.2414(6) 0.2127(4) 0.69217(19)
C12_3 C 0.1840(8) 0.2401(5) 0.70778(19)
C13_3 C 0.1111(9) 0.2222(6) 0.6925(3)
H7_3 H 0.0987 0.1976 0.6713
C14_3 C 0.2047(11) 0.2818(7) 0.7392(2)
H8_3 H 0.2524 0.2911 0.7503
C15_3 C 0.1546(12) 0.3093(8) 0.7536(3)
C16_3 C 0.1119(13) 0.2240(9) 0.8163(5)
H9_3 H 0.0974 0.1949 0.7961
C17_3 C 0.1574(11) 0.3148(7) 0.8174(3)
C18_3 C 0.1795(15) 0.3592(10) 0.7879(4)
C19_3 C 0.2189(18) 0.4379(12) 0.7892(5)
C20_3 C 0.2413(15) 0.4827(10) 0.8193(6)
H10_3 H 0.2701 0.5402 0.8185
C21_3 C 0.0919(6) 0.4540(4) 0.97450(19)
C22_3 C 0.1493(8) 0.4266(5) 0.95889(19)
C23_3 C 0.1286(11) 0.3849(7) 0.9275(2)
H11_3 H 0.0809 0.3756 0.9164
C25_3 C 0.0560(6) 0.2401(5) 0.70778(19)
C26_3 C 0.0770(9) 0.2818(7) 0.7392(2)
H12_3 H 0.0386 0.2911 0.7503
O12_3 O 0.5601(8) 0.4399(6) 0.9268(2)
O13_3 O 0.4808(4) 0.3713(4) 0.99692(13)
O14_3 O 0.6287(4) 0.5192(3) 0.99692(13)
O10_3 O 0.9620(4) 0.1859(3) 0.66359(13)
O11_3 O 0.9228(4) 0.2258(3) 0.70897(13)
C24_3 C 0.9712(5) 0.2127(4) 0.69217(19)
O5_4 O 0.0380(4) 0.8141(3) 0.33641(13)
O6_4 O 0.0772(4) 0.7742(3) 0.29103(13)
C11_4 C 0.0288(5) 0.7873(4) 0.30783(19)
Cu6_2 Cu 0.18994(3) 0.81006(7) 0.30604(3)
Cu8_2 Cu 0.14340(7) 0.85660(3) 0.36062(3)
O4_4 O 0.9099(5) 0.8197(9) 0.0923(4)
H1_4 H 0.8945 0.7889 0.0759
C1_4 C 0.9081(3) 0.5460(4) 0.02550(19)
C2_4 C 0.8507(4) 0.5734(5) 0.04111(19)
C3_4 C 0.7778(3) 0.5555(6) 0.0258(3)
H2_4 H 0.7654 0.5309 0.0046
C4_4 C 0.8714(5) 0.6151(7) 0.0725(2)
H3_4 H 0.9191 0.6244 0.0836
C5_4 C 0.8213(4) 0.6426(8) 0.0869(3)
C6_4 C 0.7786(5) 0.5573(9) 0.1496(5)
H4_4 H 0.7641 0.5282 0.1294
C7_4 C 0.8241(3) 0.6481(7) 0.1507(3)
C8_4 C 0.8462(5) 0.6925(10) 0.1212(4)
C9_4 C 0.8856(6) 0.7712(12) 0.1225(5)
C10_4 C 0.9080(5) 0.8160(10) 0.1526(6)
H5_4 H 0.9368 0.8735 0.1518
O7_4 O 0.7569(10) 0.5136(9) 0.2410(4)
H6_4 H 0.7723 0.5444 0.2574
C12_4 C 0.9440(6) 0.7599(5) 0.29222(19)
C13_4 C 0.8890(7) 0.7778(6) 0.3075(3)
H7_4 H 0.9012 0.8024 0.3287
C14_4 C 0.9230(9) 0.7182(7) 0.2608(2)
H8_4 H 0.9614 0.7089 0.2497
C15_4 C 0.8454(9) 0.6907(8) 0.2464(3)
C16_4 C 0.8880(10) 0.7760(9) 0.1837(5)
H9_4 H 0.9026 0.8051 0.2039
C17_4 C 0.8427(8) 0.6852(7) 0.1826(3)
C18_4 C 0.8204(11) 0.6408(10) 0.2121(4)
C19_4 C 0.7811(13) 0.5621(12) 0.2108(5)
C20_4 C 0.7587(11) 0.5173(10) 0.1807(6)
H10_4 H 0.7300 0.4598 0.1815
C21_4 C 0.6379(5) 0.5460(4) 0.02550(19)
C22_4 C 0.7227(6) 0.5734(5) 0.04111(19)
C23_4 C 0.7437(9) 0.6151(7) 0.0725(2)
H11_4 H 0.7053 0.6244 0.0836
O10_4 O 0.7762(2) 0.8141(3) 0.33641(13)
O11_4 O 0.6971(3) 0.7742(3) 0.29103(13)
C24_4 C 0.7586(3) 0.7873(4) 0.30783(19)
C25_4 C 0.8160(4) 0.7599(5) 0.29222(19)
C26_4 C 0.7953(5) 0.7182(7) 0.2608(2)
H12_4 H 0.7476 0.7089 0.2497
Cu5_3 Cu 0.62013(6) 0.81006(3) 0.30604(3)
Cu7_3 Cu 0.71321(6) 0.85660(7) 0.36062(3)
O10_5 O 0.0380(4) 0.2238(2) 0.33641(13)
O11_5 O 0.0772(4) 0.3029(3) 0.29103(13)
C24_5 C 0.0288(5) 0.2414(3) 0.30783(19)
Cu5_4 Cu 0.18994(7) 0.37987(6) 0.30604(3)
Cu7_4 Cu 0.14340(9) 0.28679(6) 0.36062(3)
O4_5 O 0.9098(10) 0.0901(5) 0.0923(4)
H1_5 H 0.8944 0.1055 0.0759
C1_5 C 0.6379(5) 0.0919(3) 0.02550(19)
C2_5 C 0.7227(6) 0.1493(4) 0.04111(19)
C3_5 C 0.7777(7) 0.2222(3) 0.0258(3)
H2_5 H 0.7655 0.2346 0.0046
C4_5 C 0.7437(9) 0.1286(5) 0.0725(2)
H3_5 H 0.7053 0.0809 0.0836
C5_5 C 0.8213(9) 0.1787(4) 0.0869(3)
C6_5 C 0.7787(10) 0.2214(5) 0.1496(5)
H4_5 H 0.7641 0.2359 0.1294
C7_5 C 0.8240(8) 0.1759(3) 0.1507(3)
C8_5 C 0.8463(11) 0.1538(5) 0.1212(4)
C9_5 C 0.8856(13) 0.1144(6) 0.1225(5)
C10_5 C 0.9080(11) 0.0920(5) 0.1526(6)
H5_5 H 0.9367 0.0632 0.1518
O7_5 O 0.7568(13) 0.2431(10) 0.2410(4)
H6_5 H 0.7722 0.2277 0.2574
C12_5 C 0.8160(8) 0.0560(6) 0.29222(19)
C13_5 C 0.8889(9) 0.1110(7) 0.3075(3)
H7_5 H 0.9013 0.0988 0.3287
C14_5 C 0.7953(11) 0.0770(9) 0.2608(2)
H8_5 H 0.7476 0.0386 0.2497
C15_5 C 0.8454(12) 0.1546(9) 0.2464(3)
C16_5 C 0.8881(13) 0.1120(10) 0.1837(5)
H9_5 H 0.9026 0.0974 0.2039
C17_5 C 0.8426(11) 0.1573(8) 0.1826(3)
C18_5 C 0.8205(15) 0.1796(11) 0.2121(4)
C19_5 C 0.7811(18) 0.2189(13) 0.2108(5)
C20_5 C 0.7587(15) 0.2413(11) 0.1807(6)
H10_5 H 0.7299 0.2700 0.1815
C21_5 C 0.9081(6) 0.3621(5) 0.02550(19)
C22_5 C 0.8507(8) 0.2773(6) 0.04111(19)
C23_5 C 0.8714(11) 0.2563(9) 0.0725(2)
H11_5 H 0.9191 0.2947 0.0836
C25_5 C 0.9440(6) 0.1840(4) 0.29222(19)
C26_5 C 0.9230(9) 0.2047(5) 0.2608(2)
H12_5 H 0.9614 0.2524 0.2497
O5_5 O 0.7762(5) 0.9620(4) 0.33641(13)
O6_5 O 0.6971(5) 0.9228(4) 0.29103(13)
C11_5 C 0.7586(6) 0.9712(5) 0.30783(19)
O4_6 O 0.1803(9) 0.0902(10) 0.0923(4)
H1_6 H 0.2111 0.1056 0.0759
C1_6 C 0.4540(4) 0.3621(5) 0.02550(19)
C2_6 C 0.4266(5) 0.2773(6) 0.04111(19)
C3_6 C 0.4445(6) 0.2223(7) 0.0258(3)
H2_6 H 0.4691 0.2345 0.0046
C4_6 C 0.3849(7) 0.2563(9) 0.0725(2)
H3_6 H 0.3756 0.2947 0.0836
C5_6 C 0.3574(8) 0.1787(9) 0.0869(3)
C6_6 C 0.4427(9) 0.2213(10) 0.1496(5)
H4_6 H 0.4718 0.2359 0.1294
C7_6 C 0.3519(7) 0.1760(8) 0.1507(3)
C8_6 C 0.3075(10) 0.1537(11) 0.1212(4)
C9_6 C 0.2288(12) 0.1144(13) 0.1225(5)
C10_6 C 0.1840(10) 0.0920(11) 0.1526(6)
H5_6 H 0.1265 0.0633 0.1518
O5_6 O 0.1859(3) 0.2238(5) 0.33641(13)
O6_6 O 0.2258(3) 0.3029(5) 0.29103(13)
O7_6 O 0.4864(9) 0.2432(13) 0.2410(4)
H6_6 H 0.4556 0.2278 0.2574
C11_6 C 0.2127(4) 0.2414(6) 0.30783(19)
C12_6 C 0.2401(5) 0.1840(8) 0.29222(19)
C13_6 C 0.2222(6) 0.1111(9) 0.3075(3)
H7_6 H 0.1976 0.0987 0.3287
C14_6 C 0.2818(7) 0.2047(11) 0.2608(2)
H8_6 H 0.2911 0.2524 0.2497
C15_6 C 0.3093(8) 0.1546(12) 0.2464(3)
C16_6 C 0.2240(9) 0.1119(13) 0.1837(5)
H9_6 H 0.1949 0.0974 0.2039
C17_6 C 0.3148(7) 0.1574(11) 0.1826(3)
C18_6 C 0.3592(10) 0.1795(15) 0.2121(4)
C19_6 C 0.4379(12) 0.2189(18) 0.2108(5)
C20_6 C 0.4827(10) 0.2413(15) 0.1807(6)
H10_6 H 0.5402 0.2701 0.1815
C21_6 C 0.4540(4) 0.0919(6) 0.02550(19)
C22_6 C 0.4266(5) 0.1493(8) 0.04111(19)
C23_6 C 0.3849(7) 0.1286(11) 0.0725(2)
H11_6 H 0.3756 0.0809 0.0836
C25_6 C 0.2401(5) 0.0560(6) 0.29222(19)
C26_6 C 0.2818(7) 0.0770(9) 0.2608(2)
H12_6 H 0.2911 0.0386 0.2497
O10_6 O 0.1859(3) 0.9620(4) 0.33641(13)
O11_6 O 0.2258(3) 0.9228(4) 0.29103(13)
C24_6 C 0.2127(4) 0.9712(5) 0.30783(19)
O3_4 O 0.1066(3) 0.2131(5) 0.4065(2)
O12_4 O 0.2268(6) 0.4535(5) 0.2601(2)
O13_4 O 0.2954(4) 0.4428(2) 0.33025(13)
O14_4 O 0.1475(3) 0.4428(2) 0.33025(13)
O16_4 O 0.2562(4) 0.3637(3) 0.37563(13)
O17_4 O 0.1076(3) 0.3637(3) 0.37563(13)
O3_5 O 0.7869(5) 0.8934(6) 0.4065(2)
O12_5 O 0.5465(5) 0.7732(8) 0.2601(2)
O13_5 O 0.5572(2) 0.8525(4) 0.33025(13)
O14_5 O 0.5572(2) 0.7046(4) 0.33025(13)
O16_5 O 0.6363(3) 0.8924(5) 0.37563(13)
O17_5 O 0.6363(3) 0.7438(4) 0.37563(13)
O3_6 O 0.1066(6) 0.8934(3) 0.4065(2)
O12_6 O 0.2268(8) 0.7732(6) 0.2601(2)
O13_6 O 0.1475(4) 0.7046(4) 0.33025(13)
O14_6 O 0.2954(4) 0.8525(3) 0.33025(13)
O16_6 O 0.1076(5) 0.7438(4) 0.37563(13)
O17_6 O 0.2562(4) 0.8924(3) 0.37563(13)
O4_7 O 0.5766(5) 0.1530(9) 0.4256(4)
H1_7 H 0.5612 0.1222 0.4092
C8_7 C 0.5129(5) 0.0258(10) 0.4545(4)
C9_7 C 0.5523(6) 0.1045(12) 0.4558(5)
C10_7 C 0.5747(5) 0.1493(10) 0.4859(6)
H5_7 H 0.6035 0.2068 0.4851
O5_7 O 0.7046(4) 0.1475(3) 0.66975(13)
O6_7 O 0.7438(4) 0.1076(3) 0.62437(13)
C11_7 C 0.6954(5) 0.1207(4) 0.64117(19)
C12_7 C 0.6106(6) 0.0933(5) 0.62556(19)
C13_7 C 0.5556(7) 0.1112(6) 0.6409(3)
H7_7 H 0.5678 0.1358 0.6621
C14_7 C 0.5896(9) 0.0516(7) 0.5942(2)
H8_7 H 0.6280 0.0423 0.5831
C15_7 C 0.5120(9) 0.0241(8) 0.5798(3)
C16_7 C 0.5546(10) 0.1094(9) 0.5171(5)
H9_7 H 0.5692 0.1385 0.5373
C17_7 C 0.5093(8) 0.0186(7) 0.5160(3)
O10_7 O 0.4428(2) 0.1475(3) 0.66975(13)
O11_7 O 0.3637(3) 0.1076(3) 0.62437(13)
C24_7 C 0.4252(3) 0.1207(4) 0.64117(19)
C25_7 C 0.4826(4) 0.0933(5) 0.62556(19)
C26_7 C 0.4619(5) 0.0516(7) 0.5942(2)
H12_7 H 0.4142 0.0423 0.5831
C1_7 C 0.5748(3) 0.8793(4) 0.35883(19)
C2_7 C 0.5174(4) 0.9067(5) 0.37444(19)
C3_7 C 0.4445(3) 0.8888(6) 0.3591(3)
H2_7 H 0.4321 0.8642 0.3379
C4_7 C 0.5381(5) 0.9484(7) 0.4058(2)
H3_7 H 0.5858 0.9577 0.4169
C5_7 C 0.4880(4) 0.9759(8) 0.4202(3)
C6_7 C 0.4453(5) 0.8906(9) 0.4829(5)
H4_7 H 0.4308 0.8615 0.4627
C7_7 C 0.4908(3) 0.9814(7) 0.4840(3)
O7_7 O 0.4235(10) 0.8470(9) 0.5744(4)
H6_7 H 0.4389 0.8778 0.5908
C18_7 C 0.4870(11) 0.9742(10) 0.5455(4)
C19_7 C 0.4477(13) 0.8955(12) 0.5442(5)
C20_7 C 0.4253(11) 0.8507(10) 0.5141(6)
H10_7 H 0.3966 0.7932 0.5149
C21_7 C 0.3046(5) 0.8793(4) 0.35883(19)
C22_7 C 0.3894(6) 0.9067(5) 0.37444(19)
C23_7 C 0.4104(9) 0.9484(7) 0.4058(2)
H11_7 H 0.3720 0.9577 0.4169
O4_8 O 0.5765(10) 0.4234(5) 0.4256(4)
H1_8 H 0.5611 0.4388 0.4092
C1_8 C 0.3046(5) 0.4252(3) 0.35883(19)
C2_8 C 0.3894(6) 0.4826(4) 0.37444(19)
C3_8 C 0.4444(7) 0.5555(3) 0.3591(3)
H2_8 H 0.4322 0.5679 0.3379
C4_8 C 0.4104(9) 0.4619(5) 0.4058(2)
H3_8 H 0.3720 0.4142 0.4169
C5_8 C 0.4880(9) 0.5120(4) 0.4202(3)
C6_8 C 0.4454(10) 0.5547(5) 0.4829(5)
H4_8 H 0.4308 0.5692 0.4627
C7_8 C 0.4907(8) 0.5092(3) 0.4840(3)
C8_8 C 0.5130(11) 0.4871(5) 0.4545(4)
C9_8 C 0.5523(13) 0.4477(6) 0.4558(5)
C10_8 C 0.5747(11) 0.4253(5) 0.4859(6)
H5_8 H 0.6034 0.3965 0.4851
O5_8 O 0.4428(5) 0.2954(4) 0.66975(13)
O6_8 O 0.3637(5) 0.2562(4) 0.62437(13)
O7_8 O 0.4234(13) 0.5765(10) 0.5744(4)
H6_8 H 0.4388 0.5611 0.5908
C11_8 C 0.4252(6) 0.3046(5) 0.64117(19)
C12_8 C 0.4826(8) 0.3894(6) 0.62556(19)
C13_8 C 0.5555(9) 0.4444(7) 0.6409(3)
H7_8 H 0.5679 0.4322 0.6621
C14_8 C 0.4619(11) 0.4104(9) 0.5942(2)
H8_8 H 0.4142 0.3720 0.5831
C15_8 C 0.5120(12) 0.4880(9) 0.5798(3)
C16_8 C 0.5547(13) 0.4454(10) 0.5171(5)
H9_8 H 0.5692 0.4308 0.5373
C17_8 C 0.5092(11) 0.4907(8) 0.5160(3)
C18_8 C 0.4871(15) 0.5130(11) 0.5455(4)
C19_8 C 0.4477(18) 0.5523(13) 0.5442(5)
C20_8 C 0.4253(15) 0.5747(11) 0.5141(6)
H10_8 H 0.3965 0.6034 0.5149
C21_8 C 0.5748(6) 0.6954(5) 0.35883(19)
C22_8 C 0.5174(8) 0.6106(6) 0.37444(19)
C23_8 C 0.5381(11) 0.5896(9) 0.4058(2)
H11_8 H 0.5858 0.6280 0.4169
O10_8 O 0.7046(4) 0.5572(2) 0.66975(13)
O11_8 O 0.7438(4) 0.6363(3) 0.62437(13)
C24_8 C 0.6954(5) 0.5748(3) 0.64117(19)
C25_8 C 0.6106(6) 0.5174(4) 0.62556(19)
C26_8 C 0.5896(9) 0.5381(5) 0.5942(2)
H12_8 H 0.6280 0.5858 0.5831
C1_9 C 0.1207(4) 0.6954(5) 0.35883(19)
C2_9 C 0.0933(5) 0.6106(6) 0.37444(19)
C3_9 C 0.1112(6) 0.5556(7) 0.3591(3)
H2_9 H 0.1358 0.5678 0.3379
C4_9 C 0.0516(7) 0.5896(9) 0.4058(2)
H3_9 H 0.0423 0.6280 0.4169
C5_9 C 0.0241(8) 0.5120(9) 0.4202(3)
C6_9 C 0.1094(9) 0.5546(10) 0.4829(5)
H4_9 H 0.1385 0.5692 0.4627
C7_9 C 0.0186(7) 0.5093(8) 0.4840(3)
O7_9 O 0.1530(9) 0.5766(13) 0.5744(4)
H6_9 H 0.1222 0.5612 0.5908
C18_9 C 0.0258(10) 0.5129(15) 0.5455(4)
C19_9 C 0.1045(12) 0.5523(18) 0.5442(5)
C20_9 C 0.1493(10) 0.5747(15) 0.5141(6)
H10_9 H 0.2068 0.6035 0.5149
C21_9 C 0.1207(4) 0.4252(6) 0.35883(19)
C22_9 C 0.0933(5) 0.4826(8) 0.37444(19)
C23_9 C 0.0516(7) 0.4619(11) 0.4058(2)
H11_9 H 0.0423 0.4142 0.4169
O4_9 O 0.8470(9) 0.4235(10) 0.4256(4)
H1_9 H 0.8778 0.4389 0.4092
C8_9 C 0.9742(10) 0.4870(11) 0.4545(4)
C9_9 C 0.8955(12) 0.4477(13) 0.4558(5)
C10_9 C 0.8507(10) 0.4253(11) 0.4859(6)
H5_9 H 0.7932 0.3966 0.4851
O5_9 O 0.8525(3) 0.5572(5) 0.66975(13)
O6_9 O 0.8924(3) 0.6363(5) 0.62437(13)
C11_9 C 0.8793(4) 0.5748(6) 0.64117(19)
C12_9 C 0.9067(5) 0.5174(8) 0.62556(19)
C13_9 C 0.8888(6) 0.4445(9) 0.6409(3)
H7_9 H 0.8642 0.4321 0.6621
C14_9 C 0.9484(7) 0.5381(11) 0.5942(2)
H8_9 H 0.9577 0.5858 0.5831
C15_9 C 0.9759(8) 0.4880(12) 0.5798(3)
C16_9 C 0.8906(9) 0.4453(13) 0.5171(5)
H9_9 H 0.8615 0.4308 0.5373
C17_9 C 0.9814(7) 0.4908(11) 0.5160(3)
O10_9 O 0.8525(3) 0.2954(4) 0.66975(13)
O11_9 O 0.8924(3) 0.2562(4) 0.62437(13)
C24_9 C 0.8793(4) 0.3046(5) 0.64117(19)
C25_9 C 0.9067(5) 0.3894(6) 0.62556(19)
C26_9 C 0.9484(7) 0.4104(9) 0.5942(2)
H12_9 H 0.9577 0.3720 0.5831
O3_7 O 0.7732(3) 0.5465(5) 0.7399(2)
O12_7 O 0.8934(6) 0.7869(5) 0.5935(2)
O3_8 O 0.4535(5) 0.2268(6) 0.7399(2)
O12_8 O 0.2131(5) 0.1066(8) 0.5935(2)
O3_9 O 0.7732(6) 0.2268(3) 0.7399(2)
O12_9 O 0.8934(8) 0.1066(6) 0.5935(2)
loop_
_geom_bond_atom_site_label_1
_geom_bond_atom_site_label_2
_geom_bond_site_symmetry_1
_geom_bond_site_symmetry_2
O5 C11 1_555 1_555
O6 C11 1_555 1_555
O12 Cu2 1_555 1_555
Cu6 O6 1_555 1_555
Cu8 O5 1_555 1_555
O13 Cu2 1_555 1_555
O14 Cu2 1_555 1_555
Cu1 O1 1_555 1_555
O3 Cu1 1_555 1_555
Cu3 O8 1_555 1_555
O15 Cu1 1_555 1_555
O2 C1 1_555 1_555
O4 H1 1_555 1_555
C1 C2 1_555 1_555
C2 C3 1_555 1_555
C3 H2 1_555 1_555
C4 C2 1_555 1_555
H3 C4 1_555 1_555
C5 C4 1_555 1_555
C6 H4 1_555 1_555
C7 C6 1_555 1_555
C8 C5 1_555 1_555
C9 O4 1_555 1_555
C10 C9 1_555 1_555
H5 C10 1_555 1_555
O7 H6 1_555 1_555
C12 C13 1_555 1_555
C13 H7 1_555 1_555
C14 C12 1_555 1_555
H8 C14 1_555 1_555
C15 C14 1_555 1_555
C16 C10 1_555 1_555
H9 C16 1_555 1_555
C17 C7 1_555 1_555
C18 C15 1_555 1_555
C19 O7 1_555 1_555
C20 C6 1_555 1_555
H10 C20 1_555 1_555
O9 C21 1_555 1_555
C21 C22 1_555 1_555
C22 C3 1_555 1_555
C23 C5 1_555 1_555
H11 C23 1_555 1_555
O10 C24 1_555 1_555
O11 C24 1_555 1_555
C24 C25 1_555 1_555
C25 C13 1_555 1_555
C26 C15 1_555 1_555
H12 C26 1_555 1_555
Cu4 O9 1_555 1_555
Cu5 O11 1_555 1_555
Cu7 O10 1_555 1_555
C7 C8 1_555 1_555
C8 C9 1_555 1_555
C16 C17 1_555 1_555
C17 C18 1_555 1_555
C18 C19 1_555 1_555
C19 C20 1_555 1_555
C22 C23 1_555 1_555
C25 C26 1_555 1_555
O10_2 C24_2 1_555 1_555
O11_2 C24_2 1_555 1_555
Cu5_2 O11_2 1_555 1_555
Cu7_2 O10_2 1_555 1_555
Cu1_2 O1_2 1_555 1_555
O3_2 Cu1_2 1_555 1_555
O15_2 Cu1_2 1_555 1_555
O2_2 C1_2 1_555 1_555
O4_2 H1_2 1_555 1_555
C1_2 C2_2 1_555 1_555
C2_2 C3_2 1_555 1_555
C3_2 H2_2 1_555 1_555
C4_2 C2_2 1_555 1_555
H3_2 C4_2 1_555 1_555
C5_2 C4_2 1_555 1_555
C6_2 H4_2 1_555 1_555
C7_2 C6_2 1_555 1_555
C8_2 C5_2 1_555 1_555
C9_2 O4_2 1_555 1_555
C10_2 C9_2 1_555 1_555
H5_2 C10_2 1_555 1_555
O7_2 H6_2 1_555 1_555
C12_2 C13_2 1_555 1_555
C13_2 H7_2 1_555 1_555
C14_2 C12_2 1_555 1_555
H8_2 C14_2 1_555 1_555
C15_2 C14_2 1_555 1_555
C16_2 C10_2 1_555 1_555
H9_2 C16_2 1_555 1_555
C17_2 C7_2 1_555 1_555
C18_2 C15_2 1_555 1_555
C19_2 O7_2 1_555 1_555
C20_2 C6_2 1_555 1_555
H10_2 C20_2 1_555 1_555
O18 C21_2 1_555 1_555
C21_2 C22_2 1_555 1_555
C22_2 C3_2 1_555 1_555
C23_2 C5_2 1_555 1_555
H11_2 C23_2 1_555 1_555
C25_2 C13_2 1_555 1_555
C26_2 C15_2 1_555 1_555
H12_2 C26_2 1_555 1_555
C7_2 C8_2 1_555 1_555
C8_2 C9_2 1_555 1_555
C16_2 C17_2 1_555 1_555
C17_2 C18_2 1_555 1_555
C18_2 C19_2 1_555 1_555
C19_2 C20_2 1_555 1_555
C22_2 C23_2 1_555 1_555
C25_2 C26_2 1_555 1_555
O5_2 C11_2 1_555 1_555
O6_2 C11_2 1_555 1_555
O12_2 Cu2_2 1_555 1_555
Cu5 O6_2 1_555 1_555
Cu7 O5_2 1_555 1_555
O13_2 Cu2_2 1_555 1_555
O14_2 Cu2_2 1_555 1_555
Cu3 O1_3 1_555 1_555
O3_3 Cu3 1_555 1_555
O16_3 Cu3 1_555 1_555
O17_3 Cu3 1_555 1_555
O2_3 C1_3 1_555 1_555
O4_3 H1_3 1_555 1_555
C1_3 C2_3 1_555 1_555
C2_3 C3_3 1_555 1_555
C3_3 H2_3 1_555 1_555
C4_3 C2_3 1_555 1_555
H3_3 C4_3 1_555 1_555
C5_3 C4_3 1_555 1_555
C6_3 H4_3 1_555 1_555
C7_3 C6_3 1_555 1_555
C8_3 C5_3 1_555 1_555
C9_3 O4_3 1_555 1_555
C10_3 C9_3 1_555 1_555
H5_3 C10_3 1_555 1_555
O5_3 C11_3 1_555 1_555
O6_3 C11_3 1_555 1_555
O7_3 H6_3 1_555 1_555
C11_3 C12_3 1_555 1_555
C12_3 C13_3 1_555 1_555
C13_3 H7_3 1_555 1_555
C14_3 C12_3 1_555 1_555
H8_3 C14_3 1_555 1_555
C15_3 C14_3 1_555 1_555
C16_3 C10_3 1_555 1_555
H9_3 C16_3 1_555 1_555
C17_3 C7_3 1_555 1_555
C18_3 C15_3 1_555 1_555
C19_3 O7_3 1_555 1_555
C20_3 C6_3 1_555 1_555
H10_3 C20_3 1_555 1_555
O18_2 C21_3 1_555 1_555
C21_3 C22_3 1_555 1_555
C22_3 C3_3 1_555 1_555
C23_3 C5_3 1_555 1_555
H11_3 C23_3 1_555 1_555
C25_3 C13_3 1_555 1_555
C26_3 C15_3 1_555 1_555
H12_3 C26_3 1_555 1_555
Cu4 O2_3 1_555 1_555
O12_3 Cu4 1_555 1_555
Cu5_2 O6_3 1_555 1_555
Cu7_2 O5_3 1_555 1_555
O13_3 Cu4 1_555 1_555
O14_3 Cu4 1_555 1_555
C7_3 C8_3 1_555 1_555
C8_3 C9_3 1_555 1_555
C16_3 C17_3 1_555 1_555
C17_3 C18_3 1_555 1_555
C18_3 C19_3 1_555 1_555
C19_3 C20_3 1_555 1_555
C22_3 C23_3 1_555 1_555
C25_3 C26_3 1_555 1_555
O10_3 C24_3 1_555 1_555
O11_3 C24_3 1_555 1_555
Cu6 O11_3 1_555 1_555
Cu8 O10_3 1_555 1_555
O5_4 C11_4 1_555 1_555
O6_4 C11_4 1_555 1_555
Cu6_2 O6_4 1_555 1_555
Cu8_2 O5_4 1_555 1_555
O16_2 C1_4 1_555 1_555
O4_4 H1_4 1_555 1_555
C1_4 C2_4 1_555 1_555
C2_4 C3_4 1_555 1_555
C3_4 H2_4 1_555 1_555
C4_4 C2_4 1_555 1_555
H3_4 C4_4 1_555 1_555
C5_4 C4_4 1_555 1_555
C6_4 H4_4 1_555 1_555
C7_4 C6_4 1_555 1_555
C8_4 C5_4 1_555 1_555
C9_4 O4_4 1_555 1_555
C10_4 C9_4 1_555 1_555
H5_4 C10_4 1_555 1_555
O7_4 H6_4 1_555 1_555
C12_4 C13_4 1_555 1_555
C13_4 H7_4 1_555 1_555
C14_4 C12_4 1_555 1_555
H8_4 C14_4 1_555 1_555
C15_4 C14_4 1_555 1_555
C16_4 C10_4 1_555 1_555
H9_4 C16_4 1_555 1_555
C17_4 C7_4 1_555 1_555
C18_4 C15_4 1_555 1_555
C19_4 O7_4 1_555 1_555
C20_4 C6_4 1_555 1_555
H10_4 C20_4 1_555 1_555
O17_3 C21_4 1_555 1_555
C21_4 C22_4 1_555 1_555
C22_4 C3_4 1_555 1_555
C23_4 C5_4 1_555 1_555
H11_4 C23_4 1_555 1_555
O10_4 C24_4 1_555 1_555
O11_4 C24_4 1_555 1_555
C24_4 C25_4 1_555 1_555
C25_4 C13_4 1_555 1_555
C26_4 C15_4 1_555 1_555
H12_4 C26_4 1_555 1_555
Cu5_3 O11_4 1_555 1_555
Cu7_3 O10_4 1_555 1_555
C7_4 C8_4 1_555 1_555
C8_4 C9_4 1_555 1_555
C16_4 C17_4 1_555 1_555
C17_4 C18_4 1_555 1_555
C18_4 C19_4 1_555 1_555
C19_4 C20_4 1_555 1_555
C22_4 C23_4 1_555 1_555
C25_4 C26_4 1_555 1_555
O10_5 C24_5 1_555 1_555
O11_5 C24_5 1_555 1_555
Cu5_4 O11_5 1_555 1_555
Cu7_4 O10_5 1_555 1_555
O16 C1_5 1_555 1_555
O4_5 H1_5 1_555 1_555
C1_5 C2_5 1_555 1_555
C2_5 C3_5 1_555 1_555
C3_5 H2_5 1_555 1_555
C4_5 C2_5 1_555 1_555
H3_5 C4_5 1_555 1_555
C5_5 C4_5 1_555 1_555
C6_5 H4_5 1_555 1_555
C7_5 C6_5 1_555 1_555
C8_5 C5_5 1_555 1_555
C9_5 O4_5 1_555 1_555
C10_5 C9_5 1_555 1_555
H5_5 C10_5 1_555 1_555
O7_5 H6_5 1_555 1_555
C12_5 C13_5 1_555 1_555
C13_5 H7_5 1_555 1_555
C14_5 C12_5 1_555 1_555
H8_5 C14_5 1_555 1_555
C15_5 C14_5 1_555 1_555
C16_5 C10_5 1_555 1_555
H9_5 C16_5 1_555 1_555
C17_5 C7_5 1_555 1_555
C18_5 C15_5 1_555 1_555
C19_5 O7_5 1_555 1_555
C20_5 C6_5 1_555 1_555
H10_5 C20_5 1_555 1_555
O17_2 C21_5 1_555 1_555
C21_5 C22_5 1_555 1_555
C22_5 C3_5 1_555 1_555
C23_5 C5_5 1_555 1_555
H11_5 C23_5 1_555 1_555
C25_5 C13_5 1_555 1_555
C26_5 C15_5 1_555 1_555
H12_5 C26_5 1_555 1_555
C7_5 C8_5 1_555 1_555
C8_5 C9_5 1_555 1_555
C16_5 C17_5 1_555 1_555
C17_5 C18_5 1_555 1_555
C18_5 C19_5 1_555 1_555
C19_5 C20_5 1_555 1_555
C22_5 C23_5 1_555 1_555
C25_5 C26_5 1_555 1_555
O5_5 C11_5 1_555 1_555
O6_5 C11_5 1_555 1_555
Cu5_3 O6_5 1_555 1_555
Cu7_3 O5_5 1_555 1_555
O16_3 C1_6 1_555 1_555
O4_6 H1_6 1_555 1_555
C1_6 C2_6 1_555 1_555
C2_6 C3_6 1_555 1_555
C3_6 H2_6 1_555 1_555
C4_6 C2_6 1_555 1_555
H3_6 C4_6 1_555 1_555
C5_6 C4_6 1_555 1_555
C6_6 H4_6 1_555 1_555
C7_6 C6_6 1_555 1_555
C8_6 C5_6 1_555 1_555
C9_6 O4_6 1_555 1_555
C10_6 C9_6 1_555 1_555
H5_6 C10_6 1_555 1_555
O5_6 C11_6 1_555 1_555
O6_6 C11_6 1_555 1_555
O7_6 H6_6 1_555 1_555
C11_6 C12_6 1_555 1_555
C12_6 C13_6 1_555 1_555
C13_6 H7_6 1_555 1_555
C14_6 C12_6 1_555 1_555
H8_6 C14_6 1_555 1_555
C15_6 C14_6 1_555 1_555
C16_6 C10_6 1_555 1_555
H9_6 C16_6 1_555 1_555
C17_6 C7_6 1_555 1_555
C18_6 C15_6 1_555 1_555
C19_6 O7_6 1_555 1_555
C20_6 C6_6 1_555 1_555
H10_6 C20_6 1_555 1_555
O17 C21_6 1_555 1_555
C21_6 C22_6 1_555 1_555
C22_6 C3_6 1_555 1_555
C23_6 C5_6 1_555 1_555
H11_6 C23_6 1_555 1_555
C25_6 C13_6 1_555 1_555
C26_6 C15_6 1_555 1_555
H12_6 C26_6 1_555 1_555
Cu5_4 O6_6 1_555 1_555
Cu7_4 O5_6 1_555 1_555
C7_6 C8_6 1_555 1_555
C8_6 C9_6 1_555 1_555
C16_6 C17_6 1_555 1_555
C17_6 C18_6 1_555 1_555
C18_6 C19_6 1_555 1_555
C19_6 C20_6 1_555 1_555
C22_6 C23_6 1_555 1_555
C25_6 C26_6 1_555 1_555
O10_6 C24_6 1_555 1_555
O11_6 C24_6 1_555 1_555
Cu6_2 O11_6 1_555 1_555
Cu8_2 O10_6 1_555 1_555
O3_4 Cu7_4 1_555 1_555
O12_4 Cu5_4 1_555 1_555
O13_4 Cu5_4 1_555 1_555
O14_4 Cu5_4 1_555 1_555
O16_4 Cu7_4 1_555 1_555
O17_4 Cu7_4 1_555 1_555
O3_5 Cu7_3 1_555 1_555
O12_5 Cu5_3 1_555 1_555
O13_5 Cu5_3 1_555 1_555
O14_5 Cu5_3 1_555 1_555
O16_5 Cu7_3 1_555 1_555
O17_5 Cu7_3 1_555 1_555
O3_6 Cu8_2 1_555 1_555
O12_6 Cu6_2 1_555 1_555
O13_6 Cu6_2 1_555 1_555
O14_6 Cu6_2 1_555 1_555
O16_6 Cu8_2 1_555 1_555
O17_6 Cu8_2 1_555 1_555
O4_7 H1_7 1_555 1_555
C9_7 O4_7 1_555 1_555
C10_7 C9_7 1_555 1_555
H5_7 C10_7 1_555 1_555
O5_7 C11_7 1_555 1_555
O6_7 C11_7 1_555 1_555
C11_7 C12_7 1_555 1_555
C12_7 C13_7 1_555 1_555
C13_7 H7_7 1_555 1_555
C14_7 C12_7 1_555 1_555
H8_7 C14_7 1_555 1_555
C15_7 C14_7 1_555 1_555
C16_7 C10_7 1_555 1_555
H9_7 C16_7 1_555 1_555
O10_7 C24_7 1_555 1_555
O11_7 C24_7 1_555 1_555
C24_7 C25_7 1_555 1_555
C25_7 C13_7 1_555 1_555
C26_7 C15_7 1_555 1_555
H12_7 C26_7 1_555 1_555
Cu7_2 O11_7 1_555 1_555
Cu8 O6_7 1_555 1_555
Cu5_2 O10_7 1_555 1_555
Cu6 O5_7 1_555 1_555
C8_7 C9_7 1_555 1_555
C16_7 C17_7 1_555 1_555
C25_7 C26_7 1_555 1_555
O13_5 C1_7 1_555 1_555
O16_5 C1_7 1_555 1_555
C1_7 C2_7 1_555 1_555
C2_7 C3_7 1_555 1_555
C3_7 H2_7 1_555 1_555
C4_7 C2_7 1_555 1_555
H3_7 C4_7 1_555 1_555
C5_7 C4_7 1_555 1_555
C6_7 H4_7 1_555 1_555
C7_7 C6_7 1_555 1_555
O7_7 H6_7 1_555 1_555
C19_7 O7_7 1_555 1_555
C20_7 C6_7 1_555 1_555
H10_7 C20_7 1_555 1_555
O14_6 C21_7 1_555 1_555
O17_6 C21_7 1_555 1_555
C21_7 C22_7 1_555 1_555
C22_7 C3_7 1_555 1_555
C23_7 C5_7 1_555 1_555
H11_7 C23_7 1_555 1_555
C18_7 C19_7 1_555 1_555
C19_7 C20_7 1_555 1_555
C22_7 C23_7 1_555 1_555
O13_4 C1_8 1_555 1_555
O16_4 C1_8 1_555 1_555
O4_8 H1_8 1_555 1_555
C1_8 C2_8 1_555 1_555
C2_8 C3_8 1_555 1_555
C3_8 H2_8 1_555 1_555
C4_8 C2_8 1_555 1_555
H3_8 C4_8 1_555 1_555
C5_8 C4_8 1_555 1_555
C6_8 H4_8 1_555 1_555
C7_8 C6_8 1_555 1_555
C8_8 C5_8 1_555 1_555
C9_8 O4_8 1_555 1_555
C10_8 C9_8 1_555 1_555
H5_8 C10_8 1_555 1_555
O5_8 C11_8 1_555 1_555
O6_8 C11_8 1_555 1_555
O7_8 H6_8 1_555 1_555
C11_8 C12_8 1_555 1_555
C12_8 C13_8 1_555 1_555
C13_8 H7_8 1_555 1_555
C14_8 C12_8 1_555 1_555
H8_8 C14_8 1_555 1_555
C15_8 C14_8 1_555 1_555
C16_8 C10_8 1_555 1_555
H9_8 C16_8 1_555 1_555
C17_8 C7_8 1_555 1_555
C18_8 C15_8 1_555 1_555
C19_8 O7_8 1_555 1_555
C20_8 C6_8 1_555 1_555
H10_8 C20_8 1_555 1_555
O14_5 C21_8 1_555 1_555
O17_5 C21_8 1_555 1_555
C21_8 C22_8 1_555 1_555
C22_8 C3_8 1_555 1_555
C23_8 C5_8 1_555 1_555
H11_8 C23_8 1_555 1_555
O10_8 C24_8 1_555 1_555
O11_8 C24_8 1_555 1_555
C24_8 C25_8 1_555 1_555
C25_8 C13_8 1_555 1_555
C26_8 C15_8 1_555 1_555
H12_8 C26_8 1_555 1_555
Cu7 O11_8 1_555 1_555
Cu7_2 O6_8 1_555 1_555
Cu5 O10_8 1_555 1_555
Cu5_2 O5_8 1_555 1_555
C7_8 C8_8 1_555 1_555
C8_8 C9_8 1_555 1_555
C16_8 C17_8 1_555 1_555
C17_8 C18_8 1_555 1_555
C18_8 C19_8 1_555 1_555
C19_8 C20_8 1_555 1_555
C22_8 C23_8 1_555 1_555
C25_8 C26_8 1_555 1_555
O13_6 C1_9 1_555 1_555
O16_6 C1_9 1_555 1_555
C1_9 C2_9 1_555 1_555
C2_9 C3_9 1_555 1_555
C3_9 H2_9 1_555 1_555
C4_9 C2_9 1_555 1_555
H3_9 C4_9 1_555 1_555
C5_9 C4_9 1_555 1_555
C6_9 H4_9 1_555 1_555
C7_9 C6_9 1_555 1_555
O7_9 H6_9 1_555 1_555
C19_9 O7_9 1_555 1_555
C20_9 C6_9 1_555 1_555
H10_9 C20_9 1_555 1_555
O14_4 C21_9 1_555 1_555
O17_4 C21_9 1_555 1_555
C21_9 C22_9 1_555 1_555
C22_9 C3_9 1_555 1_555
C23_9 C5_9 1_555 1_555
H11_9 C23_9 1_555 1_555
C18_9 C19_9 1_555 1_555
C19_9 C20_9 1_555 1_555
C22_9 C23_9 1_555 1_555
O4_9 H1_9 1_555 1_555
C9_9 O4_9 1_555 1_555
C10_9 C9_9 1_555 1_555
H5_9 C10_9 1_555 1_555
O5_9 C11_9 1_555 1_555
O6_9 C11_9 1_555 1_555
C11_9 C12_9 1_555 1_555
C12_9 C13_9 1_555 1_555
C13_9 H7_9 1_555 1_555
C14_9 C12_9 1_555 1_555
H8_9 C14_9 1_555 1_555
C15_9 C14_9 1_555 1_555
C16_9 C10_9 1_555 1_555
H9_9 C16_9 1_555 1_555
O10_9 C24_9 1_555 1_555
O11_9 C24_9 1_555 1_555
C24_9 C25_9 1_555 1_555
C25_9 C13_9 1_555 1_555
C26_9 C15_9 1_555 1_555
H12_9 C26_9 1_555 1_555
Cu8 O11_9 1_555 1_555
Cu7 O6_9 1_555 1_555
Cu6 O10_9 1_555 1_555
Cu5 O5_9 1_555 1_555
C8_9 C9_9 1_555 1_555
C16_9 C17_9 1_555 1_555
C25_9 C26_9 1_555 1_555
O3_7 Cu5 1_555 1_555
O12_7 Cu7 1_555 1_555
O3_8 Cu5_2 1_555 1_555
O12_8 Cu7_2 1_555 1_555
O3_9 Cu6 1_555 1_555
O12_9 Cu8 1_555 1_555

#END
