
###############################################################################
#
# This file contains modified crystal structure data generated from the
# MOF subset of the Cambridge Structural Database (CSD) v543 
# hosted by the Cambridge Crystallographic Data Centre (CCDC).
#
# This work is licensed under the Creative Commons
# Attribution-NonCommercial-ShareAlike 4.0 International License.
# To view a copy of this license, visit
# http://creativecommons.org/licenses/by-nc-sa/4.0/
# or send a letter to
# Creative Commons, PO Box 1866, Mountain View, CA 94042, USA.
#
# CIF created using the CSD Python API on 29 September 2022
# The structure has been converted into the P1 space group
# The structure has a 3D framework
# The original CSD entry WIJXIY is in the orthorhombic crystal system
# The framework has been calculated to contain at least 10.0% void space
# The void calculation uses a probe of radius 1.32A, grid spacing 0.4
#
###############################################################################

data_WIJXIY
_chemical_formula_moiety         '(C264 H208 N24 O80 Zn20)n'
_symmetry_cell_setting           triclinic
_symmetry_space_group_name_H-M   'P 1'
_symmetry_Int_Tables_number      1
_space_group_name_Hall           'P 1'
loop_
_symmetry_equiv_pos_site_id
_symmetry_equiv_pos_as_xyz
1 x,y,z
_cell_length_a                   22.8973(12)
_cell_length_b                   26.5061(14)
_cell_length_c                   31.6472(17)
_cell_angle_alpha                90
_cell_angle_beta                 90
_cell_angle_gamma                90
_cell_volume                     19207.3
loop_
_atom_site_label
_atom_site_type_symbol
_atom_site_fract_x
_atom_site_fract_y
_atom_site_fract_z
O3 O 0.15156(9) 0.38986(7) 0.81589(7)
O4 O 0.08576(9) 0.35046(8) 0.77479(7)
C8 C 0.00030(14) 0.52188(13) 0.79357(11)
C9 C 0.05067(17) 0.52039(13) 0.81725(13)
H7 H 0.0623 0.5483 0.8329
C10 C 0.08354(15) 0.47688(14) 0.81740(12)
H8 H 0.1178 0.4760 0.8332
C11 C 0.06722(14) 0.43433(12) 0.79470(10)
C12 C 0.01631(14) 0.43509(12) 0.77166(11)
H9 H 0.0043 0.4069 0.7565
C14 C 0.10481(14) 0.38797(13) 0.79526(11)
C63 C 0.0333(5) 0.6875(4) 0.6701(4)
H43 H 0.0358 0.7234 0.6761
H44 H 0.0546 0.6793 0.6445
C65 C 0.0509(6) 0.6521(7) 0.7102(5)
H47 H 0.0915 0.6567 0.7167
H48 H 0.0439 0.6173 0.7033
H49 H 0.0277 0.6614 0.7343
H51 H 0.0126 0.6445 0.6024
Zn7 Zn 0.219043(13) 0.343600(11) 0.819087(10)
Zn9 Zn 0.116646(13) 0.282497(12) 0.766670(10)
N4 N 0.56841(12) 0.01122(10) 0.75105(9)
H27 H 0.5875 0.0323 0.7357
O13 O 0.34844(9) 0.11014(7) 0.81589(7)
O14 O 0.41424(9) 0.14954(8) 0.77479(7)
C43 C 0.41646(15) 0.02312(14) 0.81740(12)
H34 H 0.3822 0.0240 0.8332
C44 C 0.43278(14) 0.06567(12) 0.79470(10)
C45 C 0.48369(14) 0.06491(12) 0.77166(11)
H35 H 0.4957 0.0931 0.7565
C46 C 0.51688(15) 0.02088(13) 0.77153(11)
C47 C 0.39519(14) 0.11203(13) 0.79526(11)
Zn8 Zn 0.280957(13) 0.156400(11) 0.819087(10)
Zn10 Zn 0.383354(13) 0.217503(12) 0.766670(10)
Zn1 Zn 0.7500 0.7500 0.751103(13)
Zn2 Zn 0.719043(13) 0.656400(11) 0.680913(10)
Zn3 Zn 0.616646(13) 0.717503(12) 0.733330(10)
N1 N 0.93159(12) 0.48878(10) 0.75105(9)
H1 H 0.9125 0.4677 0.7357
N2 N 0.76990(10) 0.68724(9) 0.45863(8)
H2 H 0.7371 0.6727 0.4536
N3 N 0.5275(2) 0.8319(2) 0.67020(18)
O1 O 0.80837(7) 0.69005(7) 0.75133(6)
O2 O 0.77390(8) 0.62198(7) 0.71739(6)
O5 O 0.80687(9) 0.70321(7) 0.64747(6)
O6 O 0.73446(9) 0.65976(8) 0.61990(6)
O7 O 0.79747(9) 0.71150(7) 0.29665(6)
O8 O 0.89244(8) 0.72992(7) 0.29341(6)
O9 O 0.55770(10) 0.75915(10) 0.70532(8)
O10 O 0.69205(8) 0.72106(7) 0.70481(6)
H3 H 0.6921(12) 0.7413(10) 0.6894(8)
C1 C 0.81033(12) 0.64433(11) 0.74091(9)
C2 C 0.86072(13) 0.61392(12) 0.75705(10)
C3 C 0.90248(15) 0.63655(12) 0.78355(12)
H4 H 0.8976 0.6699 0.7920
C4 C 0.95055(16) 0.60986(13) 0.79706(13)
H5 H 0.9783 0.6253 0.8142
C5 C 0.95762(14) 0.55970(12) 0.78500(11)
C6 C 0.91539(14) 0.53783(12) 0.75906(11)
C7 C 0.86706(13) 0.56449(12) 0.74459(10)
H6 H 0.8397 0.5493 0.7270
C13 C 0.98312(15) 0.47912(13) 0.77153(11)
C15 C 0.77990(15) 0.68677(11) 0.61590(10)
C16 C 0.80129(13) 0.69804(11) 0.57274(9)
C17 C 0.85382(16) 0.72417(14) 0.56820(10)
H10 H 0.8742 0.7337 0.5924
C18 C 0.87659(15) 0.73636(15) 0.52930(11)
H11 H 0.9116 0.7539 0.5271
C19 C 0.84606(14) 0.72179(13) 0.49319(10)
C20 C 0.79226(13) 0.69615(11) 0.49822(10)
C21 C 0.77036(13) 0.68446(11) 0.53756(10)
H12 H 0.7350 0.6675 0.5402
C22 C 0.85568(14) 0.72742(12) 0.44835(10)
C23 C 0.90014(14) 0.74732(15) 0.42440(11)
H13 H 0.9324 0.7618 0.4376
C24 C 0.89700(14) 0.74591(14) 0.38112(11)
H14 H 0.9272 0.7594 0.3650
C25 C 0.84799(13) 0.72402(11) 0.36098(9)
C26 C 0.80293(12) 0.70449(11) 0.38447(9)
H15 H 0.7700 0.6912 0.3714
C27 C 0.80769(12) 0.70509(11) 0.42816(10)
C28 C 0.84531(14) 0.72181(10) 0.31382(9)
C29 C 0.5638(2) 0.7981(2) 0.68731(16)
H16 H 0.6029 0.8071 0.6844
C30 C 0.4667(5) 0.8125(4) 0.6701(4)
H17 H 0.4642 0.7766 0.6761
H18 H 0.4454 0.8207 0.6445
C31 C 0.5400(5) 0.8835(4) 0.6495(4)
H19 H 0.5132 0.9097 0.6586
H20 H 0.5801 0.8945 0.6534
C32 C 0.4491(6) 0.8479(7) 0.7102(5)
H21 H 0.4085 0.8433 0.7167
H22 H 0.4561 0.8827 0.7033
H23 H 0.4723 0.8386 0.7343
C33 C 0.5277(9) 0.8649(8) 0.6047(4)
H24 H 0.5361 0.8914 0.5849
H25 H 0.4874 0.8555 0.6024
H26 H 0.5519 0.8362 0.5987
Zn4 Zn 0.780957(13) 0.843600(11) 0.680913(10)
Zn5 Zn 0.883354(13) 0.782497(12) 0.733330(10)
N5 N 0.73010(10) 0.81276(9) 0.45863(8)
H28 H 0.7629 0.8273 0.4536
N6 N 0.9725(2) 0.6681(2) 0.67020(18)
O11 O 0.69163(7) 0.80995(7) 0.75133(6)
O12 O 0.72610(8) 0.87802(7) 0.71739(6)
O15 O 0.69313(9) 0.79679(7) 0.64747(6)
O16 O 0.76554(9) 0.84024(8) 0.61990(6)
O17 O 0.70253(9) 0.78850(7) 0.29665(6)
O18 O 0.60756(8) 0.77008(7) 0.29341(6)
O19 O 0.94230(10) 0.74085(10) 0.70532(8)
O20 O 0.80795(8) 0.77894(7) 0.70481(6)
H29 H 0.8079(12) 0.7587(10) 0.6894(8)
C34 C 0.68967(12) 0.85567(11) 0.74091(9)
C35 C 0.63928(13) 0.88608(12) 0.75705(10)
C36 C 0.59752(15) 0.86345(12) 0.78355(12)
H30 H 0.6024 0.8301 0.7920
C37 C 0.54945(16) 0.89014(13) 0.79706(13)
H31 H 0.5217 0.8747 0.8142
C38 C 0.54238(14) 0.94030(12) 0.78500(11)
C39 C 0.58461(14) 0.96217(12) 0.75906(11)
C40 C 0.63294(13) 0.93551(12) 0.74459(10)
H32 H 0.6603 0.9507 0.7270
C41 C 0.49970(14) 0.97812(13) 0.79357(11)
C42 C 0.44933(17) 0.97961(13) 0.81725(13)
H33 H 0.4377 0.9517 0.8329
C48 C 0.72010(15) 0.81323(11) 0.61590(10)
C49 C 0.69871(13) 0.80196(11) 0.57274(9)
C50 C 0.64618(16) 0.77583(14) 0.56820(10)
H36 H 0.6258 0.7663 0.5924
C51 C 0.62341(15) 0.76364(15) 0.52930(11)
H37 H 0.5884 0.7461 0.5271
C52 C 0.65394(14) 0.77821(13) 0.49319(10)
C53 C 0.70774(13) 0.80385(11) 0.49822(10)
C54 C 0.72964(13) 0.81554(11) 0.53756(10)
H38 H 0.7650 0.8325 0.5402
C55 C 0.64432(14) 0.77258(12) 0.44835(10)
C56 C 0.59986(14) 0.75268(15) 0.42440(11)
H39 H 0.5676 0.7382 0.4376
C57 C 0.60300(14) 0.75409(14) 0.38112(11)
H40 H 0.5728 0.7406 0.3650
C58 C 0.65201(13) 0.77598(11) 0.36098(9)
C59 C 0.69707(12) 0.79551(11) 0.38447(9)
H41 H 0.7300 0.8088 0.3714
C60 C 0.69231(12) 0.79491(11) 0.42816(10)
C61 C 0.65469(14) 0.77819(10) 0.31382(9)
C62 C 0.9362(2) 0.7019(2) 0.68731(16)
H42 H 0.8971 0.6929 0.6844
C64 C 0.9600(5) 0.6165(4) 0.6495(4)
H45 H 0.9868 0.5903 0.6586
H46 H 0.9199 0.6055 0.6534
C66 C 0.9723(9) 0.6351(8) 0.6047(4)
H50 H 0.9639 0.6086 0.5849
H52 H 0.9481 0.6638 0.5987
Zn6 Zn 0.7500 0.7500 0.251103(13)
Zn11 Zn 0.883354(13) 0.717503(12) 0.233330(10)
Zn12 Zn 0.616646(13) 0.782497(12) 0.233330(10)
O21 O 0.65156(9) 0.61014(7) 0.68411(7)
O22 O 0.84844(9) 0.88986(7) 0.68411(7)
O23 O 0.58576(9) 0.64954(8) 0.72521(7)
O24 O 0.91424(9) 0.85046(8) 0.72521(7)
O25 O 0.70253(9) 0.71150(7) 0.79665(6)
O26 O 0.79747(9) 0.78850(7) 0.79665(6)
O27 O 0.60756(8) 0.72992(7) 0.79341(6)
O28 O 0.89244(8) 0.77008(7) 0.79341(6)
N2_2 N 0.26990(10) 0.31276(9) 0.04137(8)
H2_2 H 0.2371 0.3273 0.0464
O7_2 O 0.29747(9) 0.28850(7) 0.20335(6)
O8_2 O 0.39244(8) 0.27008(7) 0.20659(6)
C19_2 C 0.34606(14) 0.27821(13) 0.00681(10)
C20_2 C 0.29226(13) 0.30385(11) 0.00178(10)
C22_2 C 0.35568(14) 0.27258(12) 0.05165(10)
C23_2 C 0.40014(14) 0.25268(15) 0.07560(11)
H13_2 H 0.4324 0.2382 0.0624
C24_2 C 0.39700(14) 0.25409(14) 0.11888(11)
H14_2 H 0.4272 0.2406 0.1350
C25_2 C 0.34799(13) 0.27598(11) 0.13902(9)
C26_2 C 0.30293(12) 0.29551(11) 0.11553(9)
H15_2 H 0.2700 0.3088 0.1286
C27_2 C 0.30769(12) 0.29491(11) 0.07184(10)
C28_2 C 0.34531(14) 0.27819(10) 0.18618(9)
N5_2 N 0.23010(10) 0.18724(9) 0.04137(8)
H28_2 H 0.2629 0.1727 0.0464
O17_2 O 0.20253(9) 0.21150(7) 0.20335(6)
O18_2 O 0.10756(8) 0.22992(7) 0.20659(6)
C52_2 C 0.15394(14) 0.22179(13) 0.00681(10)
C53_2 C 0.20774(13) 0.19615(11) 0.00178(10)
C55_2 C 0.14432(14) 0.22742(12) 0.05165(10)
C56_2 C 0.09986(14) 0.24732(15) 0.07560(11)
H39_2 H 0.0676 0.2618 0.0624
C57_2 C 0.10300(14) 0.24591(14) 0.11888(11)
H40_2 H 0.0728 0.2594 0.1350
C58_2 C 0.15201(13) 0.22402(11) 0.13902(9)
C59_2 C 0.19707(12) 0.20449(11) 0.11553(9)
H41_2 H 0.2300 0.1912 0.1286
C60_2 C 0.19231(12) 0.20509(11) 0.07184(10)
C61_2 C 0.15469(14) 0.22181(10) 0.18618(9)
Zn6_2 Zn 0.2500 0.2500 0.248897(13)
Zn11_2 Zn 0.383354(13) 0.282497(12) 0.266670(10)
Zn12_2 Zn 0.116646(13) 0.217503(12) 0.266670(10)
Zn1_2 Zn 0.2500 0.2500 0.748897(13)
N1_2 N 0.43159(12) 0.51122(10) 0.74895(9)
H1_2 H 0.4125 0.5323 0.7643
N3_2 N 0.0275(2) 0.1681(2) 0.82980(18)
O1_2 O 0.30837(7) 0.30995(7) 0.74867(6)
O2_2 O 0.27390(8) 0.37802(7) 0.78261(6)
O5_2 O 0.30687(9) 0.29679(7) 0.85253(6)
O6_2 O 0.23446(9) 0.34024(8) 0.88010(6)
O9_2 O 0.05770(10) 0.24085(10) 0.79468(8)
O10_2 O 0.19205(8) 0.27894(7) 0.79519(6)
H3_2 H 0.1921(12) 0.2587(10) 0.8106(8)
C1_2 C 0.31033(12) 0.35567(11) 0.75909(9)
C2_2 C 0.36072(13) 0.38608(12) 0.74295(10)
C3_2 C 0.40248(15) 0.36345(12) 0.71645(12)
H4_2 H 0.3976 0.3301 0.7080
C4_2 C 0.45055(16) 0.39014(13) 0.70294(13)
H5_2 H 0.4783 0.3747 0.6858
C5_2 C 0.45762(14) 0.44030(12) 0.71500(11)
C6_2 C 0.41539(14) 0.46217(12) 0.74094(11)
C7_2 C 0.36706(13) 0.43551(12) 0.75541(10)
H6_2 H 0.3397 0.4507 0.7730
C8_2 C 0.50030(14) 0.47812(13) 0.70643(11)
C9_2 C 0.55067(17) 0.47961(13) 0.68275(13)
H7_2 H 0.5623 0.4517 0.6671
C10_2 C 0.58354(15) 0.52312(14) 0.68260(12)
H8_2 H 0.6178 0.5240 0.6668
C11_2 C 0.56722(14) 0.56567(12) 0.70530(10)
C12_2 C 0.51631(14) 0.56491(12) 0.72834(11)
H9_2 H 0.5043 0.5931 0.7435
C13_2 C 0.48312(15) 0.52088(13) 0.72847(11)
C14_2 C 0.60481(14) 0.61203(13) 0.70474(11)
C15_2 C 0.27990(15) 0.31323(11) 0.88410(10)
C16_2 C 0.30129(13) 0.30196(11) 0.92726(9)
C17_2 C 0.35382(16) 0.27583(14) 0.93180(10)
H10_2 H 0.3742 0.2663 0.9076
C18_2 C 0.37659(15) 0.26364(15) 0.97070(11)
H11_2 H 0.4116 0.2461 0.9729
C21_2 C 0.27036(13) 0.31554(11) 0.96244(10)
H12_2 H 0.2350 0.3325 0.9598
C29_2 C 0.0638(2) 0.2019(2) 0.81269(16)
H16_2 H 0.1029 0.1929 0.8156
C31_2 C 0.0400(5) 0.1165(4) 0.8505(4)
H19_2 H 0.0132 0.0903 0.8414
H20_2 H 0.0801 0.1055 0.8466
C33_2 C 0.0277(9) 0.1351(8) 0.8953(4)
H24_2 H 0.0361 0.1086 0.9151
H26_2 H 0.0519 0.1638 0.9013
N6_2 N 0.4725(2) 0.3319(2) 0.82980(18)
O11_2 O 0.19163(7) 0.19005(7) 0.74867(6)
O12_2 O 0.22610(8) 0.12198(7) 0.78261(6)
O15_2 O 0.19313(9) 0.20321(7) 0.85253(6)
O16_2 O 0.26554(9) 0.15976(8) 0.88010(6)
O19_2 O 0.44230(10) 0.25915(10) 0.79468(8)
O20_2 O 0.30795(8) 0.22106(7) 0.79519(6)
H29_2 H 0.3079(12) 0.2413(10) 0.8106(8)
C34_2 C 0.18967(12) 0.14433(11) 0.75909(9)
C35_2 C 0.13928(13) 0.11392(12) 0.74295(10)
C36_2 C 0.09752(15) 0.13655(12) 0.71645(12)
H30_2 H 0.1024 0.1699 0.7080
C37_2 C 0.04945(16) 0.10986(13) 0.70294(13)
H31_2 H 0.0217 0.1253 0.6858
C38_2 C 0.04238(14) 0.05970(12) 0.71500(11)
C39_2 C 0.08461(14) 0.03783(12) 0.74094(11)
C40_2 C 0.13294(13) 0.06449(12) 0.75541(10)
H32_2 H 0.1603 0.0493 0.7730
C48_2 C 0.22010(15) 0.18677(11) 0.88410(10)
C49_2 C 0.19871(13) 0.19804(11) 0.92726(9)
C50_2 C 0.14618(16) 0.22417(14) 0.93180(10)
H36_2 H 0.1258 0.2337 0.9076
C51_2 C 0.12341(15) 0.23636(15) 0.97070(11)
H37_2 H 0.0884 0.2539 0.9729
C54_2 C 0.22964(13) 0.18446(11) 0.96244(10)
H38_2 H 0.2650 0.1675 0.9598
C62_2 C 0.4362(2) 0.2981(2) 0.81269(16)
H42_2 H 0.3971 0.3071 0.8156
C63_2 C 0.5333(5) 0.3125(4) 0.8299(4)
H43_2 H 0.5358 0.2766 0.8239
H44_2 H 0.5546 0.3207 0.8555
C64_2 C 0.4600(5) 0.3835(4) 0.8505(4)
H45_2 H 0.4868 0.4097 0.8414
H46_2 H 0.4199 0.3945 0.8466
C65_2 C 0.5509(6) 0.3479(7) 0.7898(5)
H47_2 H 0.5915 0.3433 0.7833
H48_2 H 0.5439 0.3827 0.7967
H49_2 H 0.5277 0.3386 0.7657
C66_2 C 0.4723(9) 0.3649(8) 0.8953(4)
H50_2 H 0.4639 0.3914 0.9151
H51_2 H 0.5126 0.3555 0.8976
H52_2 H 0.4481 0.3362 0.9013
O25_2 O 0.20253(9) 0.28850(7) 0.70335(6)
O26_2 O 0.29747(9) 0.21150(7) 0.70335(6)
O27_2 O 0.10756(8) 0.27008(7) 0.70659(6)
O28_2 O 0.39244(8) 0.22992(7) 0.70659(6)
C43_2 C 0.91646(15) 0.97688(14) 0.68260(12)
H34_2 H 0.8822 0.9760 0.6668
C44_2 C 0.93278(14) 0.93433(12) 0.70530(10)
C45_2 C 0.98369(14) 0.93509(12) 0.72834(11)
H35_2 H 0.9957 0.9069 0.7435
C47_2 C 0.89519(14) 0.88797(13) 0.70474(11)
Zn2_2 Zn 0.280957(13) 0.343600(11) 0.319087(10)
N1_3 N 0.06841(12) 0.51122(10) 0.24895(9)
H1_3 H 0.0875 0.5323 0.2643
N2_3 N 0.23010(10) 0.31276(9) 0.54137(8)
H2_3 H 0.2629 0.3273 0.5464
N3_3 N 0.4725(2) 0.1681(2) 0.32980(18)
O1_3 O 0.19163(7) 0.30995(7) 0.24867(6)
O2_3 O 0.22610(8) 0.37802(7) 0.28261(6)
O5_3 O 0.19313(9) 0.29679(7) 0.35253(6)
O6_3 O 0.26554(9) 0.34024(8) 0.38010(6)
O9_3 O 0.44230(10) 0.24085(10) 0.29468(8)
O10_3 O 0.30795(8) 0.27894(7) 0.29519(6)
H3_3 H 0.3079(12) 0.2587(10) 0.3106(8)
C1_3 C 0.18967(12) 0.35567(11) 0.25909(9)
C2_3 C 0.13928(13) 0.38608(12) 0.24295(10)
C3_3 C 0.09752(15) 0.36345(12) 0.21645(12)
H4_3 H 0.1024 0.3301 0.2080
C4_3 C 0.04945(16) 0.39014(13) 0.20294(13)
H5_3 H 0.0217 0.3747 0.1858
C5_3 C 0.04238(14) 0.44030(12) 0.21500(11)
C6_3 C 0.08461(14) 0.46217(12) 0.24094(11)
C7_3 C 0.13294(13) 0.43551(12) 0.25541(10)
H6_3 H 0.1603 0.4507 0.2730
C13_3 C 0.01688(15) 0.52088(13) 0.22847(11)
C15_3 C 0.22010(15) 0.31323(11) 0.38410(10)
C16_3 C 0.19871(13) 0.30196(11) 0.42726(9)
C17_3 C 0.14618(16) 0.27583(14) 0.43180(10)
H10_3 H 0.1258 0.2663 0.4076
C18_3 C 0.12341(15) 0.26364(15) 0.47070(11)
H11_3 H 0.0884 0.2461 0.4729
C19_3 C 0.15394(14) 0.27821(13) 0.50681(10)
C20_3 C 0.20774(13) 0.30385(11) 0.50178(10)
C21_3 C 0.22964(13) 0.31554(11) 0.46244(10)
H12_3 H 0.2650 0.3325 0.4598
C22_3 C 0.14432(14) 0.27258(12) 0.55165(10)
C23_3 C 0.09986(14) 0.25268(15) 0.57560(11)
H13_3 H 0.0676 0.2382 0.5624
C24_3 C 0.10300(14) 0.25409(14) 0.61888(11)
H14_3 H 0.0728 0.2406 0.6350
C25_3 C 0.15201(13) 0.27598(11) 0.63902(9)
C26_3 C 0.19707(12) 0.29551(11) 0.61553(9)
H15_3 H 0.2300 0.3088 0.6286
C27_3 C 0.19231(12) 0.29491(11) 0.57184(10)
C28_3 C 0.15469(14) 0.27819(10) 0.68618(9)
C29_3 C 0.4362(2) 0.2019(2) 0.31269(16)
H16_3 H 0.3971 0.1929 0.3156
C30_2 C 0.5333(5) 0.1875(4) 0.3299(4)
H17_2 H 0.5358 0.2234 0.3239
H18_2 H 0.5546 0.1793 0.3555
C31_3 C 0.4600(5) 0.1165(4) 0.3505(4)
H19_3 H 0.4868 0.0903 0.3414
H20_3 H 0.4199 0.1055 0.3466
C32_2 C 0.5509(6) 0.1521(7) 0.2898(5)
H21_2 H 0.5915 0.1567 0.2833
H22_2 H 0.5439 0.1173 0.2967
H23_2 H 0.5277 0.1614 0.2657
C33_3 C 0.4723(9) 0.1351(8) 0.3953(4)
H24_3 H 0.4639 0.1086 0.4151
H25_2 H 0.5126 0.1445 0.3976
H26_3 H 0.4481 0.1638 0.4013
Zn4_2 Zn 0.219043(13) 0.156400(11) 0.319087(10)
N5_3 N 0.26990(10) 0.18724(9) 0.54137(8)
H28_3 H 0.2371 0.1727 0.5464
N6_3 N 0.0275(2) 0.3319(2) 0.32980(18)
O11_3 O 0.30837(7) 0.19005(7) 0.24867(6)
O12_3 O 0.27390(8) 0.12198(7) 0.28261(6)
O15_3 O 0.30687(9) 0.20321(7) 0.35253(6)
O16_3 O 0.23446(9) 0.15976(8) 0.38010(6)
O19_3 O 0.05770(10) 0.25915(10) 0.29468(8)
O20_3 O 0.19205(8) 0.22106(7) 0.29519(6)
H29_3 H 0.1921(12) 0.2413(10) 0.3106(8)
C34_3 C 0.31033(12) 0.14433(11) 0.25909(9)
C35_3 C 0.36072(13) 0.11392(12) 0.24295(10)
C36_3 C 0.40248(15) 0.13655(12) 0.21645(12)
H30_3 H 0.3976 0.1699 0.2080
C37_3 C 0.45055(16) 0.10986(13) 0.20294(13)
H31_3 H 0.4783 0.1253 0.1858
C38_3 C 0.45762(14) 0.05970(12) 0.21500(11)
C39_3 C 0.41539(14) 0.03783(12) 0.24094(11)
C40_3 C 0.36706(13) 0.06449(12) 0.25541(10)
H32_3 H 0.3397 0.0493 0.2730
C41_2 C 0.50030(14) 0.02188(13) 0.20643(11)
C42_2 C 0.55067(17) 0.02039(13) 0.18275(13)
H33_2 H 0.5623 0.0483 0.1671
C48_3 C 0.27990(15) 0.18677(11) 0.38410(10)
C49_3 C 0.30129(13) 0.19804(11) 0.42726(9)
C50_3 C 0.35382(16) 0.22417(14) 0.43180(10)
H36_3 H 0.3742 0.2337 0.4076
C51_3 C 0.37659(15) 0.23636(15) 0.47070(11)
H37_3 H 0.4116 0.2539 0.4729
C52_3 C 0.34606(14) 0.22179(13) 0.50681(10)
C53_3 C 0.29226(13) 0.19615(11) 0.50178(10)
C54_3 C 0.27036(13) 0.18446(11) 0.46244(10)
H38_3 H 0.2350 0.1675 0.4598
C55_3 C 0.35568(14) 0.22742(12) 0.55165(10)
C56_3 C 0.40014(14) 0.24732(15) 0.57560(11)
H39_3 H 0.4324 0.2618 0.5624
C57_3 C 0.39700(14) 0.24591(14) 0.61888(11)
H40_3 H 0.4272 0.2594 0.6350
C58_3 C 0.34799(13) 0.22402(11) 0.63902(9)
C59_3 C 0.30293(12) 0.20449(11) 0.61553(9)
H41_3 H 0.2700 0.1912 0.6286
C60_3 C 0.30769(12) 0.20509(11) 0.57184(10)
C61_3 C 0.34531(14) 0.22181(10) 0.68618(9)
C62_3 C 0.0638(2) 0.2981(2) 0.31269(16)
H42_3 H 0.1029 0.3071 0.3156
C64_3 C 0.0400(5) 0.3835(4) 0.3505(4)
H45_3 H 0.0132 0.4097 0.3414
H46_3 H 0.0801 0.3945 0.3466
C66_3 C 0.0277(9) 0.3649(8) 0.3953(4)
H50_3 H 0.0361 0.3914 0.4151
H52_3 H 0.0519 0.3362 0.4013
O21_2 O 0.34844(9) 0.38986(7) 0.31589(7)
O22_2 O 0.15156(9) 0.11014(7) 0.31589(7)
O23_2 O 0.41424(9) 0.35046(8) 0.27479(7)
O24_2 O 0.08576(9) 0.14954(8) 0.27479(7)
N4_2 N 0.43159(12) 0.98878(10) 0.24895(9)
H27_2 H 0.4125 0.9677 0.2643
O13_2 O 0.65156(9) 0.88986(7) 0.18411(7)
O14_2 O 0.58576(9) 0.85046(8) 0.22521(7)
C43_3 C 0.58354(15) 0.97688(14) 0.18260(12)
H34_3 H 0.6178 0.9760 0.1668
C44_3 C 0.56722(14) 0.93433(12) 0.20530(10)
C45_3 C 0.51631(14) 0.93509(12) 0.22834(11)
H35_3 H 0.5043 0.9069 0.2435
C46_2 C 0.48312(15) 0.97912(13) 0.22847(11)
C47_3 C 0.60481(14) 0.88797(13) 0.20474(11)
Zn8_2 Zn 0.719043(13) 0.843600(11) 0.180913(10)
O3_2 O 0.84844(9) 0.61014(7) 0.18411(7)
O4_2 O 0.91424(9) 0.64954(8) 0.22521(7)
C8_3 C 0.99970(14) 0.47812(13) 0.20643(11)
C9_3 C 0.94933(17) 0.47961(13) 0.18275(13)
H7_3 H 0.9377 0.4517 0.1671
C10_3 C 0.91646(15) 0.52312(14) 0.18260(12)
H8_3 H 0.8822 0.5240 0.1668
C11_3 C 0.93278(14) 0.56567(12) 0.20530(10)
C12_3 C 0.98369(14) 0.56491(12) 0.22834(11)
H9_3 H 0.9957 0.5931 0.2435
C14_3 C 0.89519(14) 0.61203(13) 0.20474(11)
C63_3 C 0.9667(5) 0.3125(4) 0.3299(4)
H43_3 H 0.9642 0.2766 0.3239
H44_3 H 0.9454 0.3207 0.3555
C65_3 C 0.9491(6) 0.3479(7) 0.2898(5)
H47_3 H 0.9085 0.3433 0.2833
H48_3 H 0.9561 0.3827 0.2967
H49_3 H 0.9723 0.3386 0.2657
H51_3 H 0.9874 0.3555 0.3976
Zn7_2 Zn 0.780957(13) 0.656400(11) 0.180913(10)
C43_4 C 0.08354(15) 0.02312(14) 0.31740(12)
H34_4 H 0.1178 0.0240 0.3332
C44_4 C 0.06722(14) 0.06567(12) 0.29470(10)
C45_4 C 0.01631(14) 0.06491(12) 0.27166(11)
H35_4 H 0.0043 0.0931 0.2565
C47_4 C 0.10481(14) 0.11203(13) 0.29526(11)
N1_4 N 0.56841(12) 0.48878(10) 0.25105(9)
H1_4 H 0.5875 0.4677 0.2357
N3_4 N 0.9725(2) 0.8319(2) 0.17020(18)
O1_4 O 0.69163(7) 0.69005(7) 0.25133(6)
O2_4 O 0.72610(8) 0.62198(7) 0.21739(6)
O5_4 O 0.69313(9) 0.70321(7) 0.14747(6)
O6_4 O 0.76554(9) 0.65976(8) 0.11990(6)
O9_4 O 0.94230(10) 0.75915(10) 0.20532(8)
O10_4 O 0.80795(8) 0.72106(7) 0.20481(6)
H3_4 H 0.8079(12) 0.7413(10) 0.1894(8)
C1_4 C 0.68967(12) 0.64433(11) 0.24091(9)
C2_4 C 0.63928(13) 0.61392(12) 0.25705(10)
C3_4 C 0.59752(15) 0.63655(12) 0.28355(12)
H4_4 H 0.6024 0.6699 0.2920
C4_4 C 0.54945(16) 0.60986(13) 0.29706(13)
H5_4 H 0.5217 0.6253 0.3142
C5_4 C 0.54238(14) 0.55970(12) 0.28500(11)
C6_4 C 0.58461(14) 0.53783(12) 0.25906(11)
C7_4 C 0.63294(13) 0.56449(12) 0.24459(10)
H6_4 H 0.6603 0.5493 0.2270
C8_4 C 0.49970(14) 0.52188(13) 0.29357(11)
C9_4 C 0.44933(17) 0.52039(13) 0.31725(13)
H7_4 H 0.4377 0.5483 0.3329
C10_4 C 0.41646(15) 0.47688(14) 0.31740(12)
H8_4 H 0.3822 0.4760 0.3332
C11_4 C 0.43278(14) 0.43433(12) 0.29470(10)
C12_4 C 0.48369(14) 0.43509(12) 0.27166(11)
H9_4 H 0.4957 0.4069 0.2565
C13_4 C 0.51688(15) 0.47912(13) 0.27153(11)
C14_4 C 0.39519(14) 0.38797(13) 0.29526(11)
C15_4 C 0.72010(15) 0.68677(11) 0.11590(10)
C16_4 C 0.69871(13) 0.69804(11) 0.07274(9)
C17_4 C 0.64618(16) 0.72417(14) 0.06820(10)
H10_4 H 0.6258 0.7337 0.0924
C18_4 C 0.62341(15) 0.73636(15) 0.02930(11)
H11_4 H 0.5884 0.7539 0.0271
C21_4 C 0.72964(13) 0.68446(11) 0.03756(10)
H12_4 H 0.7650 0.6675 0.0402
C29_4 C 0.9362(2) 0.7981(2) 0.18731(16)
H16_4 H 0.8971 0.8071 0.1844
C31_4 C 0.9600(5) 0.8835(4) 0.1495(4)
H19_4 H 0.9868 0.9097 0.1586
H20_4 H 0.9199 0.8945 0.1534
C33_4 C 0.9723(9) 0.8649(8) 0.1047(4)
H24_4 H 0.9639 0.8914 0.0849
H26_4 H 0.9481 0.8362 0.0987
N6_4 N 0.5275(2) 0.6681(2) 0.17020(18)
O11_4 O 0.80837(7) 0.80995(7) 0.25133(6)
O12_4 O 0.77390(8) 0.87802(7) 0.21739(6)
O15_4 O 0.80687(9) 0.79679(7) 0.14747(6)
O16_4 O 0.73446(9) 0.84024(8) 0.11990(6)
O19_4 O 0.55770(10) 0.74085(10) 0.20532(8)
O20_4 O 0.69205(8) 0.77894(7) 0.20481(6)
H29_4 H 0.6921(12) 0.7587(10) 0.1894(8)
C34_4 C 0.81033(12) 0.85567(11) 0.24091(9)
C35_4 C 0.86072(13) 0.88608(12) 0.25705(10)
C36_4 C 0.90248(15) 0.86345(12) 0.28355(12)
H30_4 H 0.8976 0.8301 0.2920
C37_4 C 0.95055(16) 0.89014(13) 0.29706(13)
H31_4 H 0.9783 0.8747 0.3142
C38_4 C 0.95762(14) 0.94030(12) 0.28500(11)
C39_4 C 0.91539(14) 0.96217(12) 0.25906(11)
C40_4 C 0.86706(13) 0.93551(12) 0.24459(10)
H32_4 H 0.8397 0.9507 0.2270
C48_4 C 0.77990(15) 0.81323(11) 0.11590(10)
C49_4 C 0.80129(13) 0.80196(11) 0.07274(9)
C50_4 C 0.85382(16) 0.77583(14) 0.06820(10)
H36_4 H 0.8742 0.7663 0.0924
C51_4 C 0.87659(15) 0.76364(15) 0.02930(11)
H37_4 H 0.9116 0.7461 0.0271
C54_4 C 0.77036(13) 0.81554(11) 0.03756(10)
H38_4 H 0.7350 0.8325 0.0402
C62_4 C 0.5638(2) 0.7019(2) 0.18731(16)
H42_4 H 0.6029 0.6929 0.1844
C63_4 C 0.4667(5) 0.6875(4) 0.1701(4)
H43_4 H 0.4642 0.7234 0.1761
H44_4 H 0.4454 0.6793 0.1445
C64_4 C 0.5400(5) 0.6165(4) 0.1495(4)
H45_4 H 0.5132 0.5903 0.1586
H46_4 H 0.5801 0.6055 0.1534
C65_4 C 0.4491(6) 0.6521(7) 0.2102(5)
H47_4 H 0.4085 0.6567 0.2167
H48_4 H 0.4561 0.6173 0.2033
H49_4 H 0.4723 0.6614 0.2343
C66_4 C 0.5277(9) 0.6351(8) 0.1047(4)
H50_4 H 0.5361 0.6086 0.0849
H51_4 H 0.4874 0.6445 0.1024
H52_4 H 0.5519 0.6638 0.0987
N2_4 N 0.73010(10) 0.68724(9) 0.95863(8)
H2_4 H 0.7629 0.6727 0.9536
C19_4 C 0.65394(14) 0.72179(13) 0.99319(10)
C20_4 C 0.70774(13) 0.69615(11) 0.99822(10)
C22_4 C 0.64432(14) 0.72742(12) 0.94835(10)
C23_4 C 0.59986(14) 0.74732(15) 0.92440(11)
H13_4 H 0.5676 0.7618 0.9376
C24_4 C 0.60300(14) 0.74591(14) 0.88112(11)
H14_4 H 0.5728 0.7594 0.8650
C25_4 C 0.65201(13) 0.72402(11) 0.86098(9)
C26_4 C 0.69707(12) 0.70449(11) 0.88447(9)
H15_4 H 0.7300 0.6912 0.8714
C27_4 C 0.69231(12) 0.70509(11) 0.92816(10)
C28_4 C 0.65469(14) 0.72181(10) 0.81382(9)
N5_4 N 0.76990(10) 0.81276(9) 0.95863(8)
H28_4 H 0.7371 0.8273 0.9536
C52_4 C 0.84606(14) 0.77821(13) 0.99319(10)
C53_4 C 0.79226(13) 0.80385(11) 0.99822(10)
C55_4 C 0.85568(14) 0.77258(12) 0.94835(10)
C56_4 C 0.90014(14) 0.75268(15) 0.92440(11)
H39_4 H 0.9324 0.7382 0.9376
C57_4 C 0.89700(14) 0.75409(14) 0.88112(11)
H40_4 H 0.9272 0.7406 0.8650
C58_4 C 0.84799(13) 0.77598(11) 0.86098(9)
C59_4 C 0.80293(12) 0.79551(11) 0.88447(9)
H41_4 H 0.7700 0.8088 0.8714
C60_4 C 0.80769(12) 0.79491(11) 0.92816(10)
C61_4 C 0.84531(14) 0.77819(10) 0.81382(9)
N4_3 N 0.06841(12) 0.98878(10) 0.74895(9)
H27_3 H 0.0875 0.9677 0.7643
C46_3 C 0.01688(15) 0.97912(13) 0.72847(11)
C30_3 C 0.9667(5) 0.1875(4) 0.8299(4)
H17_3 H 0.9642 0.2234 0.8239
H18_3 H 0.9454 0.1793 0.8555
C32_3 C 0.9491(6) 0.1521(7) 0.7898(5)
H21_3 H 0.9085 0.1567 0.7833
H22_3 H 0.9561 0.1173 0.7967
H23_3 H 0.9723 0.1614 0.7657
H25_3 H 0.9874 0.1445 0.8976
C41_3 C 0.99970(14) 0.02188(13) 0.70643(11)
C42_3 C 0.94933(17) 0.02039(13) 0.68275(13)
H33_3 H 0.9377 0.0483 0.6671
C30_4 C 0.0333(5) 0.8125(4) 0.1701(4)
H17_4 H 0.0358 0.7766 0.1761
H18_4 H 0.0546 0.8207 0.1445
C32_4 C 0.0509(6) 0.8479(7) 0.2102(5)
H21_4 H 0.0915 0.8433 0.2167
H22_4 H 0.0439 0.8827 0.2033
H23_4 H 0.0277 0.8386 0.2343
H25_4 H 0.0126 0.8555 0.1024
C41_4 C 0.00030(14) 0.97812(13) 0.29357(11)
C42_4 C 0.05067(17) 0.97961(13) 0.31725(13)
H33_4 H 0.0623 0.9517 0.3329
N4_4 N 0.93159(12) 0.01122(10) 0.25105(9)
H27_4 H 0.9125 0.0323 0.2357
C46_4 C 0.98312(15) 0.02088(13) 0.27153(11)
loop_
_geom_bond_atom_site_label_1
_geom_bond_atom_site_label_2
_geom_bond_site_symmetry_1
_geom_bond_site_symmetry_2
O3 C14 1_555 1_555
O4 C14 1_555 1_555
C9 C8 1_555 1_555
H7 C9 1_555 1_555
C10 C9 1_555 1_555
H8 C10 1_555 1_555
C11 C10 1_555 1_555
C12 C11 1_555 1_555
H9 C12 1_555 1_555
C14 C11 1_555 1_555
H43 C63 1_555 1_555
H44 C63 1_555 1_555
C65 C63 1_555 1_555
H47 C65 1_555 1_555
H48 C65 1_555 1_555
H49 C65 1_555 1_555
Zn7 O3 1_555 1_555
Zn9 O4 1_555 1_555
N4 H27 1_555 1_555
O13 C47 1_555 1_555
O14 C47 1_555 1_555
H34 C43 1_555 1_555
C44 C43 1_555 1_555
C45 C44 1_555 1_555
H35 C45 1_555 1_555
C46 N4 1_555 1_555
C47 C44 1_555 1_555
Zn8 O13 1_555 1_555
Zn10 O14 1_555 1_555
C45 C46 1_555 1_555
Zn1 O1 1_555 1_555
Zn2 O2 1_555 1_555
Zn3 O9 1_555 1_555
N1 H1 1_555 1_555
N2 H2 1_555 1_555
N3 C29 1_555 1_555
O1 C1 1_555 1_555
O2 C1 1_555 1_555
O5 C15 1_555 1_555
O6 Zn2 1_555 1_555
O7 C28 1_555 1_555
O8 C28 1_555 1_555
O9 C29 1_555 1_555
O10 Zn1 1_555 1_555
H3 O10 1_555 1_555
C1 C2 1_555 1_555
C2 C3 1_555 1_555
C3 H4 1_555 1_555
C4 C3 1_555 1_555
H5 C4 1_555 1_555
C5 C4 1_555 1_555
C6 N1 1_555 1_555
C7 C2 1_555 1_555
H6 C7 1_555 1_555
C13 N1 1_555 1_555
C15 O6 1_555 1_555
C16 C15 1_555 1_555
C17 C16 1_555 1_555
H10 C17 1_555 1_555
C18 C17 1_555 1_555
H11 C18 1_555 1_555
C19 C18 1_555 1_555
C20 N2 1_555 1_555
C21 C16 1_555 1_555
H12 C21 1_555 1_555
C22 C19 1_555 1_555
C23 C22 1_555 1_555
H13 C23 1_555 1_555
C24 C23 1_555 1_555
H14 C24 1_555 1_555
C25 C24 1_555 1_555
C26 C25 1_555 1_555
H15 C26 1_555 1_555
C27 N2 1_555 1_555
C28 C25 1_555 1_555
C29 H16 1_555 1_555
C30 N3 1_555 1_555
H17 C30 1_555 1_555
H18 C30 1_555 1_555
C31 N3 1_555 1_555
H19 C31 1_555 1_555
H20 C31 1_555 1_555
C32 C30 1_555 1_555
H21 C32 1_555 1_555
H22 C32 1_555 1_555
H23 C32 1_555 1_555
C33 C31 1_555 1_555
H24 C33 1_555 1_555
H25 C33 1_555 1_555
H26 C33 1_555 1_555
Zn4 O12 1_555 1_555
Zn5 O19 1_555 1_555
N5 H28 1_555 1_555
N6 C62 1_555 1_555
O11 Zn1 1_555 1_555
O12 C34 1_555 1_555
O15 C48 1_555 1_555
O16 Zn4 1_555 1_555
O17 C61 1_555 1_555
O18 C61 1_555 1_555
O19 C62 1_555 1_555
O20 Zn1 1_555 1_555
H29 O20 1_555 1_555
C34 O11 1_555 1_555
C35 C34 1_555 1_555
C36 C35 1_555 1_555
H30 C36 1_555 1_555
C37 C36 1_555 1_555
H31 C37 1_555 1_555
C38 C37 1_555 1_555
C40 C35 1_555 1_555
H32 C40 1_555 1_555
C41 C38 1_555 1_555
C42 C41 1_555 1_555
H33 C42 1_555 1_555
C48 O16 1_555 1_555
C49 C48 1_555 1_555
C50 C49 1_555 1_555
H36 C50 1_555 1_555
C51 C50 1_555 1_555
H37 C51 1_555 1_555
C52 C51 1_555 1_555
C53 N5 1_555 1_555
C54 C49 1_555 1_555
H38 C54 1_555 1_555
C55 C52 1_555 1_555
C56 C55 1_555 1_555
H39 C56 1_555 1_555
C57 C56 1_555 1_555
H40 C57 1_555 1_555
C58 C57 1_555 1_555
C59 C58 1_555 1_555
H41 C59 1_555 1_555
C60 N5 1_555 1_555
C61 C58 1_555 1_555
C62 H42 1_555 1_555
C64 N6 1_555 1_555
H45 C64 1_555 1_555
H46 C64 1_555 1_555
C66 C64 1_555 1_555
H50 C66 1_555 1_555
H52 C66 1_555 1_555
Zn6 O7 1_555 1_555
Zn11 O8 1_555 1_555
Zn12 O18 1_555 1_555
O21 Zn2 1_555 1_555
O22 Zn4 1_555 1_555
O23 Zn3 1_555 1_555
O24 Zn5 1_555 1_555
O25 Zn1 1_555 1_555
O26 Zn1 1_555 1_555
O27 Zn3 1_555 1_555
O28 Zn5 1_555 1_555
Zn2 O10 1_555 1_555
Zn3 O10 1_555 1_555
C5 C6 1_555 1_555
C6 C7 1_555 1_555
C19 C20 1_555 1_555
C20 C21 1_555 1_555
C22 C27 1_555 1_555
C26 C27 1_555 1_555
Zn4 O20 1_555 1_555
Zn5 O20 1_555 1_555
O17 Zn6 1_555 1_555
C38 C39 1_555 1_555
C39 C40 1_555 1_555
C52 C53 1_555 1_555
C53 C54 1_555 1_555
C55 C60 1_555 1_555
C59 C60 1_555 1_555
N2_2 H2_2 1_555 1_555
O7_2 C28_2 1_555 1_555
O8_2 C28_2 1_555 1_555
C20_2 N2_2 1_555 1_555
C22_2 C19_2 1_555 1_555
C23_2 C22_2 1_555 1_555
H13_2 C23_2 1_555 1_555
C24_2 C23_2 1_555 1_555
H14_2 C24_2 1_555 1_555
C25_2 C24_2 1_555 1_555
C26_2 C25_2 1_555 1_555
H15_2 C26_2 1_555 1_555
C27_2 N2_2 1_555 1_555
C28_2 C25_2 1_555 1_555
N5_2 H28_2 1_555 1_555
O17_2 C61_2 1_555 1_555
O18_2 C61_2 1_555 1_555
C53_2 N5_2 1_555 1_555
C55_2 C52_2 1_555 1_555
C56_2 C55_2 1_555 1_555
H39_2 C56_2 1_555 1_555
C57_2 C56_2 1_555 1_555
H40_2 C57_2 1_555 1_555
C58_2 C57_2 1_555 1_555
C59_2 C58_2 1_555 1_555
H41_2 C59_2 1_555 1_555
C60_2 N5_2 1_555 1_555
C61_2 C58_2 1_555 1_555
Zn6_2 O7_2 1_555 1_555
Zn11_2 O8_2 1_555 1_555
Zn12_2 O18_2 1_555 1_555
C19_2 C20_2 1_555 1_555
C22_2 C27_2 1_555 1_555
C26_2 C27_2 1_555 1_555
O17_2 Zn6_2 1_555 1_555
C52_2 C53_2 1_555 1_555
C55_2 C60_2 1_555 1_555
C59_2 C60_2 1_555 1_555
Zn1_2 O1_2 1_555 1_555
Zn7 O2_2 1_555 1_555
Zn9 O9_2 1_555 1_555
N1_2 H1_2 1_555 1_555
N3_2 C29_2 1_555 1_555
O1_2 C1_2 1_555 1_555
O2_2 C1_2 1_555 1_555
O21 C14_2 1_555 1_555
O23 C14_2 1_555 1_555
O5_2 C15_2 1_555 1_555
O6_2 Zn7 1_555 1_555
O9_2 C29_2 1_555 1_555
O10_2 Zn1_2 1_555 1_555
H3_2 O10_2 1_555 1_555
C1_2 C2_2 1_555 1_555
C2_2 C3_2 1_555 1_555
C3_2 H4_2 1_555 1_555
C4_2 C3_2 1_555 1_555
H5_2 C4_2 1_555 1_555
C5_2 C4_2 1_555 1_555
C6_2 N1_2 1_555 1_555
C7_2 C2_2 1_555 1_555
H6_2 C7_2 1_555 1_555
C8_2 C5_2 1_555 1_555
C9_2 C8_2 1_555 1_555
H7_2 C9_2 1_555 1_555
C10_2 C9_2 1_555 1_555
H8_2 C10_2 1_555 1_555
C11_2 C10_2 1_555 1_555
C12_2 C11_2 1_555 1_555
H9_2 C12_2 1_555 1_555
C13_2 N1_2 1_555 1_555
C14_2 C11_2 1_555 1_555
C15_2 O6_2 1_555 1_555
C16_2 C15_2 1_555 1_555
C17_2 C16_2 1_555 1_555
H10_2 C17_2 1_555 1_555
C18_2 C17_2 1_555 1_555
H11_2 C18_2 1_555 1_555
C21_2 C16_2 1_555 1_555
H12_2 C21_2 1_555 1_555
C29_2 H16_2 1_555 1_555
C31_2 N3_2 1_555 1_555
H19_2 C31_2 1_555 1_555
H20_2 C31_2 1_555 1_555
C33_2 C31_2 1_555 1_555
H24_2 C33_2 1_555 1_555
H26_2 C33_2 1_555 1_555
Zn8 O12_2 1_555 1_555
Zn10 O19_2 1_555 1_555
N6_2 C62_2 1_555 1_555
O11_2 Zn1_2 1_555 1_555
O12_2 C34_2 1_555 1_555
O15_2 C48_2 1_555 1_555
O16_2 Zn8 1_555 1_555
O19_2 C62_2 1_555 1_555
O20_2 Zn1_2 1_555 1_555
H29_2 O20_2 1_555 1_555
C34_2 O11_2 1_555 1_555
C35_2 C34_2 1_555 1_555
C36_2 C35_2 1_555 1_555
H30_2 C36_2 1_555 1_555
C37_2 C36_2 1_555 1_555
H31_2 C37_2 1_555 1_555
C38_2 C37_2 1_555 1_555
C40_2 C35_2 1_555 1_555
H32_2 C40_2 1_555 1_555
C48_2 O16_2 1_555 1_555
C49_2 C48_2 1_555 1_555
C50_2 C49_2 1_555 1_555
H36_2 C50_2 1_555 1_555
C51_2 C50_2 1_555 1_555
H37_2 C51_2 1_555 1_555
C54_2 C49_2 1_555 1_555
H38_2 C54_2 1_555 1_555
C62_2 H42_2 1_555 1_555
C63_2 N6_2 1_555 1_555
H43_2 C63_2 1_555 1_555
H44_2 C63_2 1_555 1_555
C64_2 N6_2 1_555 1_555
H45_2 C64_2 1_555 1_555
H46_2 C64_2 1_555 1_555
C65_2 C63_2 1_555 1_555
H47_2 C65_2 1_555 1_555
H48_2 C65_2 1_555 1_555
H49_2 C65_2 1_555 1_555
C66_2 C64_2 1_555 1_555
H50_2 C66_2 1_555 1_555
H51_2 C66_2 1_555 1_555
H52_2 C66_2 1_555 1_555
O25_2 Zn1_2 1_555 1_555
O26_2 Zn1_2 1_555 1_555
O27_2 Zn9 1_555 1_555
O28_2 Zn10 1_555 1_555
Zn7 O10_2 1_555 1_555
Zn9 O10_2 1_555 1_555
C5_2 C6_2 1_555 1_555
C6_2 C7_2 1_555 1_555
C8_2 C13_2 1_555 1_555
C12_2 C13_2 1_555 1_555
Zn8 O20_2 1_555 1_555
Zn10 O20_2 1_555 1_555
C38_2 C39_2 1_555 1_555
C39_2 C40_2 1_555 1_555
O22 C47_2 1_555 1_555
O24 C47_2 1_555 1_555
H34_2 C43_2 1_555 1_555
C44_2 C43_2 1_555 1_555
C45_2 C44_2 1_555 1_555
H35_2 C45_2 1_555 1_555
C47_2 C44_2 1_555 1_555
Zn6_2 O1_3 1_555 1_555
Zn2_2 O2_3 1_555 1_555
Zn11_2 O9_3 1_555 1_555
N1_3 H1_3 1_555 1_555
N2_3 H2_3 1_555 1_555
N3_3 C29_3 1_555 1_555
O1_3 C1_3 1_555 1_555
O2_3 C1_3 1_555 1_555
O5_3 C15_3 1_555 1_555
O6_3 Zn2_2 1_555 1_555
O25_2 C28_3 1_555 1_555
O27_2 C28_3 1_555 1_555
O9_3 C29_3 1_555 1_555
O10_3 Zn6_2 1_555 1_555
H3_3 O10_3 1_555 1_555
C1_3 C2_3 1_555 1_555
C2_3 C3_3 1_555 1_555
C3_3 H4_3 1_555 1_555
C4_3 C3_3 1_555 1_555
H5_3 C4_3 1_555 1_555
C5_3 C4_3 1_555 1_555
C6_3 N1_3 1_555 1_555
C7_3 C2_3 1_555 1_555
H6_3 C7_3 1_555 1_555
C13_3 N1_3 1_555 1_555
C15_3 O6_3 1_555 1_555
C16_3 C15_3 1_555 1_555
C17_3 C16_3 1_555 1_555
H10_3 C17_3 1_555 1_555
C18_3 C17_3 1_555 1_555
H11_3 C18_3 1_555 1_555
C19_3 C18_3 1_555 1_555
C20_3 N2_3 1_555 1_555
C21_3 C16_3 1_555 1_555
H12_3 C21_3 1_555 1_555
C22_3 C19_3 1_555 1_555
C23_3 C22_3 1_555 1_555
H13_3 C23_3 1_555 1_555
C24_3 C23_3 1_555 1_555
H14_3 C24_3 1_555 1_555
C25_3 C24_3 1_555 1_555
C26_3 C25_3 1_555 1_555
H15_3 C26_3 1_555 1_555
C27_3 N2_3 1_555 1_555
C28_3 C25_3 1_555 1_555
C29_3 H16_3 1_555 1_555
C30_2 N3_3 1_555 1_555
H17_2 C30_2 1_555 1_555
H18_2 C30_2 1_555 1_555
C31_3 N3_3 1_555 1_555
H19_3 C31_3 1_555 1_555
H20_3 C31_3 1_555 1_555
C32_2 C30_2 1_555 1_555
H21_2 C32_2 1_555 1_555
H22_2 C32_2 1_555 1_555
H23_2 C32_2 1_555 1_555
C33_3 C31_3 1_555 1_555
H24_3 C33_3 1_555 1_555
H25_2 C33_3 1_555 1_555
H26_3 C33_3 1_555 1_555
Zn4_2 O12_3 1_555 1_555
Zn12_2 O19_3 1_555 1_555
N5_3 H28_3 1_555 1_555
N6_3 C62_3 1_555 1_555
O11_3 Zn6_2 1_555 1_555
O12_3 C34_3 1_555 1_555
O15_3 C48_3 1_555 1_555
O16_3 Zn4_2 1_555 1_555
O26_2 C61_3 1_555 1_555
O28_2 C61_3 1_555 1_555
O19_3 C62_3 1_555 1_555
O20_3 Zn6_2 1_555 1_555
H29_3 O20_3 1_555 1_555
C34_3 O11_3 1_555 1_555
C35_3 C34_3 1_555 1_555
C36_3 C35_3 1_555 1_555
H30_3 C36_3 1_555 1_555
C37_3 C36_3 1_555 1_555
H31_3 C37_3 1_555 1_555
C38_3 C37_3 1_555 1_555
C40_3 C35_3 1_555 1_555
H32_3 C40_3 1_555 1_555
C41_2 C38_3 1_555 1_555
C42_2 C41_2 1_555 1_555
H33_2 C42_2 1_555 1_555
C48_3 O16_3 1_555 1_555
C49_3 C48_3 1_555 1_555
C50_3 C49_3 1_555 1_555
H36_3 C50_3 1_555 1_555
C51_3 C50_3 1_555 1_555
H37_3 C51_3 1_555 1_555
C52_3 C51_3 1_555 1_555
C53_3 N5_3 1_555 1_555
C54_3 C49_3 1_555 1_555
H38_3 C54_3 1_555 1_555
C55_3 C52_3 1_555 1_555
C56_3 C55_3 1_555 1_555
H39_3 C56_3 1_555 1_555
C57_3 C56_3 1_555 1_555
H40_3 C57_3 1_555 1_555
C58_3 C57_3 1_555 1_555
C59_3 C58_3 1_555 1_555
H41_3 C59_3 1_555 1_555
C60_3 N5_3 1_555 1_555
C61_3 C58_3 1_555 1_555
C62_3 H42_3 1_555 1_555
C64_3 N6_3 1_555 1_555
H45_3 C64_3 1_555 1_555
H46_3 C64_3 1_555 1_555
C66_3 C64_3 1_555 1_555
H50_3 C66_3 1_555 1_555
H52_3 C66_3 1_555 1_555
O21_2 Zn2_2 1_555 1_555
O22_2 Zn4_2 1_555 1_555
O23_2 Zn11_2 1_555 1_555
O24_2 Zn12_2 1_555 1_555
Zn2_2 O10_3 1_555 1_555
Zn11_2 O10_3 1_555 1_555
C5_3 C6_3 1_555 1_555
C6_3 C7_3 1_555 1_555
C19_3 C20_3 1_555 1_555
C20_3 C21_3 1_555 1_555
C22_3 C27_3 1_555 1_555
C26_3 C27_3 1_555 1_555
Zn4_2 O20_3 1_555 1_555
Zn12_2 O20_3 1_555 1_555
C38_3 C39_3 1_555 1_555
C39_3 C40_3 1_555 1_555
C52_3 C53_3 1_555 1_555
C53_3 C54_3 1_555 1_555
C55_3 C60_3 1_555 1_555
C59_3 C60_3 1_555 1_555
N4_2 H27_2 1_555 1_555
O13_2 C47_3 1_555 1_555
O14_2 C47_3 1_555 1_555
H34_3 C43_3 1_555 1_555
C44_3 C43_3 1_555 1_555
C45_3 C44_3 1_555 1_555
H35_3 C45_3 1_555 1_555
C46_2 N4_2 1_555 1_555
C47_3 C44_3 1_555 1_555
Zn8_2 O13_2 1_555 1_555
Zn12 O14_2 1_555 1_555
C45_3 C46_2 1_555 1_555
O3_2 C14_3 1_555 1_555
O4_2 C14_3 1_555 1_555
C9_3 C8_3 1_555 1_555
H7_3 C9_3 1_555 1_555
C10_3 C9_3 1_555 1_555
H8_3 C10_3 1_555 1_555
C11_3 C10_3 1_555 1_555
C12_3 C11_3 1_555 1_555
H9_3 C12_3 1_555 1_555
C14_3 C11_3 1_555 1_555
H43_3 C63_3 1_555 1_555
H44_3 C63_3 1_555 1_555
C65_3 C63_3 1_555 1_555
H47_3 C65_3 1_555 1_555
H48_3 C65_3 1_555 1_555
H49_3 C65_3 1_555 1_555
Zn7_2 O3_2 1_555 1_555
Zn11 O4_2 1_555 1_555
O22_2 C47_4 1_555 1_555
O24_2 C47_4 1_555 1_555
H34_4 C43_4 1_555 1_555
C44_4 C43_4 1_555 1_555
C45_4 C44_4 1_555 1_555
H35_4 C45_4 1_555 1_555
C47_4 C44_4 1_555 1_555
Zn6 O1_4 1_555 1_555
Zn7_2 O2_4 1_555 1_555
Zn11 O9_4 1_555 1_555
N1_4 H1_4 1_555 1_555
N3_4 C29_4 1_555 1_555
O1_4 C1_4 1_555 1_555
O2_4 C1_4 1_555 1_555
O21_2 C14_4 1_555 1_555
O23_2 C14_4 1_555 1_555
O5_4 C15_4 1_555 1_555
O6_4 Zn7_2 1_555 1_555
O9_4 C29_4 1_555 1_555
O10_4 Zn6 1_555 1_555
H3_4 O10_4 1_555 1_555
C1_4 C2_4 1_555 1_555
C2_4 C3_4 1_555 1_555
C3_4 H4_4 1_555 1_555
C4_4 C3_4 1_555 1_555
H5_4 C4_4 1_555 1_555
C5_4 C4_4 1_555 1_555
C6_4 N1_4 1_555 1_555
C7_4 C2_4 1_555 1_555
H6_4 C7_4 1_555 1_555
C8_4 C5_4 1_555 1_555
C9_4 C8_4 1_555 1_555
H7_4 C9_4 1_555 1_555
C10_4 C9_4 1_555 1_555
H8_4 C10_4 1_555 1_555
C11_4 C10_4 1_555 1_555
C12_4 C11_4 1_555 1_555
H9_4 C12_4 1_555 1_555
C13_4 N1_4 1_555 1_555
C14_4 C11_4 1_555 1_555
C15_4 O6_4 1_555 1_555
C16_4 C15_4 1_555 1_555
C17_4 C16_4 1_555 1_555
H10_4 C17_4 1_555 1_555
C18_4 C17_4 1_555 1_555
H11_4 C18_4 1_555 1_555
C21_4 C16_4 1_555 1_555
H12_4 C21_4 1_555 1_555
C29_4 H16_4 1_555 1_555
C31_4 N3_4 1_555 1_555
H19_4 C31_4 1_555 1_555
H20_4 C31_4 1_555 1_555
C33_4 C31_4 1_555 1_555
H24_4 C33_4 1_555 1_555
H26_4 C33_4 1_555 1_555
Zn8_2 O12_4 1_555 1_555
Zn12 O19_4 1_555 1_555
N6_4 C62_4 1_555 1_555
O11_4 Zn6 1_555 1_555
O12_4 C34_4 1_555 1_555
O15_4 C48_4 1_555 1_555
O16_4 Zn8_2 1_555 1_555
O19_4 C62_4 1_555 1_555
O20_4 Zn6 1_555 1_555
H29_4 O20_4 1_555 1_555
C34_4 O11_4 1_555 1_555
C35_4 C34_4 1_555 1_555
C36_4 C35_4 1_555 1_555
H30_4 C36_4 1_555 1_555
C37_4 C36_4 1_555 1_555
H31_4 C37_4 1_555 1_555
C38_4 C37_4 1_555 1_555
C40_4 C35_4 1_555 1_555
H32_4 C40_4 1_555 1_555
C48_4 O16_4 1_555 1_555
C49_4 C48_4 1_555 1_555
C50_4 C49_4 1_555 1_555
H36_4 C50_4 1_555 1_555
C51_4 C50_4 1_555 1_555
H37_4 C51_4 1_555 1_555
C54_4 C49_4 1_555 1_555
H38_4 C54_4 1_555 1_555
C62_4 H42_4 1_555 1_555
C63_4 N6_4 1_555 1_555
H43_4 C63_4 1_555 1_555
H44_4 C63_4 1_555 1_555
C64_4 N6_4 1_555 1_555
H45_4 C64_4 1_555 1_555
H46_4 C64_4 1_555 1_555
C65_4 C63_4 1_555 1_555
H47_4 C65_4 1_555 1_555
H48_4 C65_4 1_555 1_555
H49_4 C65_4 1_555 1_555
C66_4 C64_4 1_555 1_555
H50_4 C66_4 1_555 1_555
H51_4 C66_4 1_555 1_555
H52_4 C66_4 1_555 1_555
Zn7_2 O10_4 1_555 1_555
Zn11 O10_4 1_555 1_555
C5_4 C6_4 1_555 1_555
C6_4 C7_4 1_555 1_555
C8_4 C13_4 1_555 1_555
C12_4 C13_4 1_555 1_555
Zn8_2 O20_4 1_555 1_555
Zn12 O20_4 1_555 1_555
C38_4 C39_4 1_555 1_555
C39_4 C40_4 1_555 1_555
N2_4 H2_4 1_555 1_555
O25 C28_4 1_555 1_555
O27 C28_4 1_555 1_555
C20_4 N2_4 1_555 1_555
C22_4 C19_4 1_555 1_555
C23_4 C22_4 1_555 1_555
H13_4 C23_4 1_555 1_555
C24_4 C23_4 1_555 1_555
H14_4 C24_4 1_555 1_555
C25_4 C24_4 1_555 1_555
C26_4 C25_4 1_555 1_555
H15_4 C26_4 1_555 1_555
C27_4 N2_4 1_555 1_555
C28_4 C25_4 1_555 1_555
N5_4 H28_4 1_555 1_555
O26 C61_4 1_555 1_555
O28 C61_4 1_555 1_555
C53_4 N5_4 1_555 1_555
C55_4 C52_4 1_555 1_555
C56_4 C55_4 1_555 1_555
H39_4 C56_4 1_555 1_555
C57_4 C56_4 1_555 1_555
H40_4 C57_4 1_555 1_555
C58_4 C57_4 1_555 1_555
C59_4 C58_4 1_555 1_555
H41_4 C59_4 1_555 1_555
C60_4 N5_4 1_555 1_555
C61_4 C58_4 1_555 1_555
C19_4 C20_4 1_555 1_555
C22_4 C27_4 1_555 1_555
C26_4 C27_4 1_555 1_555
C52_4 C53_4 1_555 1_555
C55_4 C60_4 1_555 1_555
C59_4 C60_4 1_555 1_555
N4_3 H27_3 1_555 1_555
C46_3 N4_3 1_555 1_555
H17_3 C30_3 1_555 1_555
H18_3 C30_3 1_555 1_555
C32_3 C30_3 1_555 1_555
H21_3 C32_3 1_555 1_555
H22_3 C32_3 1_555 1_555
H23_3 C32_3 1_555 1_555
C42_3 C41_3 1_555 1_555
H33_3 C42_3 1_555 1_555
H17_4 C30_4 1_555 1_555
H18_4 C30_4 1_555 1_555
C32_4 C30_4 1_555 1_555
H21_4 C32_4 1_555 1_555
H22_4 C32_4 1_555 1_555
H23_4 C32_4 1_555 1_555
C42_4 C41_4 1_555 1_555
H33_4 C42_4 1_555 1_555
N4_4 H27_4 1_555 1_555
C46_4 N4_4 1_555 1_555

#END
