
###############################################################################
#
# This file contains modified crystal structure data generated from the
# MOF subset of the Cambridge Structural Database (CSD) v543 
# hosted by the Cambridge Crystallographic Data Centre (CCDC).
#
# This work is licensed under the Creative Commons
# Attribution-NonCommercial-ShareAlike 4.0 International License.
# To view a copy of this license, visit
# http://creativecommons.org/licenses/by-nc-sa/4.0/
# or send a letter to
# Creative Commons, PO Box 1866, Mountain View, CA 94042, USA.
#
# CIF created using the CSD Python API on 29 September 2022
# The structure has been converted into the P1 space group
# The structure has a 3D framework
# The original CSD entry WIJXEU is in the monoclinic crystal system
# The framework has been calculated to contain at least 10.0% void space
# The void calculation uses a probe of radius 1.32A, grid spacing 0.4
# H atom positions have been added when not included in the experimental data
#
###############################################################################

data_WIJXEU
_chemical_formula_moiety         '(C272 H224 N32 O72 Zn16)n'
_symmetry_cell_setting           triclinic
_symmetry_space_group_name_H-M   'P 1'
_symmetry_Int_Tables_number      1
_space_group_name_Hall           'P 1'
loop_
_symmetry_equiv_pos_site_id
_symmetry_equiv_pos_as_xyz
1 x,y,z
_cell_length_a                   39.826(8)
_cell_length_b                   14.012(2)
_cell_length_c                   29.269(4)
_cell_angle_alpha                90
_cell_angle_beta                 123.206(9)
_cell_angle_gamma                90
_cell_volume                     13666.2
loop_
_atom_site_label
_atom_site_type_symbol
_atom_site_fract_x
_atom_site_fract_y
_atom_site_fract_z
C4 C 0.07220(19) 0.4447(4) 0.0297(3)
C9 C 0.11373(18) 0.4119(5) 0.0557(2)
C11 C 0.12740(19) 0.3812(4) 0.0236(3)
C12 C 0.1388(2) 0.4120(7) 0.1115(3)
C15 C 0.16632(19) 0.3504(5) 0.0503(2)
C16 C 0.1759(2) 0.3798(7) 0.1375(3)
H14 H 0.1292 0.4358 0.1320
N3 N 0.18768(15) 0.3158(4) 0.02968(19)
C19 C 0.1920(2) 0.3459(7) 0.1063(3)
H17 H 0.1916 0.3787 0.1755
C21 C 0.22647(19) 0.2875(6) 0.0720(2)
C22 C 0.2303(2) 0.3040(7) 0.1223(3)
C25 C 0.25738(18) 0.2469(6) 0.0702(3)
C26 C 0.2660(3) 0.2788(8) 0.1707(3)
H21 H 0.2543 0.2344 0.0369
C29 C 0.2924(2) 0.2256(5) 0.1181(3)
C30 C 0.2980(3) 0.2413(8) 0.1701(3)
H22 H 0.2684 0.2872 0.2038
C33 C 0.3271(2) 0.1824(6) 0.1181(3)
H25 H 0.3222 0.2269 0.2023
O8 O 0.32532(16) 0.1733(5) 0.0748(2)
O10 O 0.06175(12) 0.4807(3) 0.05958(17)
Zn3 Zn 0.010493(19) 0.52831(4) 0.05490(2)
O12 O 0.35568(14) 0.1522(4) 0.16277(19)
Zn4 Zn 0.40635(2) 0.10843(5) 0.17627(3)
Zn1 Zn 0.989507(19) 0.47169(4) 0.94510(2)
N1 N 0.96463(13) 0.4441(3) 0.86331(17)
O2 O 0.98303(13) 0.3457(2) 0.97300(17)
O3 O 0.93825(12) 0.5193(3) 0.94042(17)
C1 C 0.9540(2) 0.3440(4) 0.8497(3)
C2 C 0.99283(18) 0.4685(5) 0.8480(2)
C3 C 0.9284(2) 0.5007(6) 0.8298(3)
H1 H 0.9365 0.3244 0.8614
H2 H 0.9781 0.3052 0.8688
C6 C 0.9323(3) 0.3277(5) 0.7869(3)
H4 H 0.9990 0.5361 0.8540
C7 C 0.9750(2) 0.4444(5) 0.7880(2)
H5 H 0.9346 0.5677 0.8390
H6 H 0.9085 0.4822 0.8374
C8 C 0.9113(2) 0.4860(5) 0.7685(2)
N2 N 0.93404(14) 0.4118(3) 0.76095(17)
H7 H 0.9449 0.2753 0.7802
H8 H 0.9044 0.3108 0.7717
H9 H 0.9760 0.5006 0.7694
H10 H 0.9911 0.3951 0.7856
H11 H 0.8833 0.4674 0.7497
H12 H 0.9127 0.5455 0.7527
C13 C 0.9714(2) 0.1555(4) 0.9904(3)
Zn2 Zn 0.90635(2) 0.39157(5) 0.67627(3)
H15 H 0.9715 0.1699 0.9595
C17 C 0.9630(3) 0.0632(4) 0.9977(3)
O5 O 0.9064(4) 0.5145(5) 0.6597(4)
O6 O 0.85568(14) 0.3478(4) 0.66277(19)
O7 O 0.92833(17) 0.3353(4) 0.6365(3)
H18 H 0.9559 0.0170 0.9711
H27 H 0.934441 0.538398 0.679608
H28 H 0.894034 0.52097 0.619773
C23 C 0.9590(2) 0.9529(4) 0.0665(3)
C24 C 0.9633(3) 0.9771(5) 0.1142(3)
C27 C 0.9496(2) 0.8612(4) 0.0482(3)
C28 C 0.9571(2) 0.9151(5) 0.1459(3)
C31 C 0.9441(2) 0.7933(5) 0.0781(3)
H23 H 0.9468 0.8441 0.0155
H24 H 0.9588 0.9345 0.1775
C32 C 0.9478(2) 0.8209(5) 0.1264(3)
H26 H 0.9381 0.7304 0.0661
C34 C 0.9378(2) 0.7455(7) 0.1561(4)
O9 O 0.9364(2) 0.7744(4) 0.1951(3)
O13 O 0.92833(17) 0.6647(4) 0.1365(3)
Zn5 Zn 0.90635(2) 0.60843(5) 0.17627(3)
Zn1_2 Zn 0.010493(19) 0.47169(4) 0.55490(2)
N1_2 N 0.03537(13) 0.4441(3) 0.63669(17)
O2_2 O 0.01697(13) 0.3457(2) 0.52700(17)
O3_2 O 0.06175(12) 0.5193(3) 0.55958(17)
C1_2 C 0.0460(2) 0.3440(4) 0.6503(3)
C2_2 C 0.00717(18) 0.4685(5) 0.6520(2)
C3_2 C 0.0716(2) 0.5007(6) 0.6702(3)
C5 C 0.01247(18) 0.3293(4) 0.4808(2)
H1_2 H 0.0635 0.3244 0.6386
H2_2 H 0.0219 0.3052 0.6312
C6_2 C 0.0677(3) 0.3277(5) 0.7131(3)
H4_2 H 0.0010 0.5361 0.6460
C7_2 C 0.0250(2) 0.4444(5) 0.7120(2)
H5_2 H 0.0654 0.5677 0.6610
H6_2 H 0.0915 0.4822 0.6626
C8_2 C 0.0887(2) 0.4860(5) 0.7315(2)
C10 C 0.0201(2) 0.2280(4) 0.4718(2)
N2_2 N 0.06596(14) 0.4118(3) 0.73905(17)
H7_2 H 0.0551 0.2753 0.7198
H8_2 H 0.0956 0.3108 0.7283
H9_2 H 0.0240 0.5006 0.7306
H10_2 H 0.0089 0.3951 0.7144
H11_2 H 0.1167 0.4674 0.7503
H12_2 H 0.0873 0.5455 0.7473
C13_2 C 0.0286(2) 0.1555(4) 0.5096(3)
C14 C 0.0176(2) 0.2072(4) 0.4240(2)
Zn2_2 Zn 0.09365(2) 0.39157(5) 0.82373(3)
H15_2 H 0.0285 0.1699 0.5405
C17_2 C 0.0370(3) 0.0632(4) 0.5023(3)
C18 C 0.0258(2) 0.1129(4) 0.4162(3)
H16 H 0.0108 0.2539 0.3978
O5_2 O 0.0936(4) 0.5145(5) 0.8403(4)
O6_2 O 0.14432(14) 0.3478(4) 0.83723(19)
O7_2 O 0.07167(17) 0.3353(4) 0.8635(3)
H18_2 H 0.0441 0.0170 0.5289
C20 C 0.0347(2) 0.0415(4) 0.4554(3)
N4 N 0.0272(2) 0.0744(4) 0.3738(2)
H20 H 0.0231 0.1042 0.3455
O11 O 0.00196(13) 0.3879(2) 0.44351(16)
H27_2 H 0.0655594 0.538398 0.820392
H28_2 H 0.105966 0.52097 0.880227
C23_2 C 0.0410(2) 0.9529(4) 0.4335(3)
C24_2 C 0.0367(3) 0.9771(5) 0.3858(3)
C27_2 C 0.0504(2) 0.8612(4) 0.4518(3)
C28_2 C 0.0429(2) 0.9151(5) 0.3541(3)
C31_2 C 0.0559(2) 0.7933(5) 0.4219(3)
H23_2 H 0.0532 0.8441 0.4845
H24_2 H 0.0412 0.9345 0.3225
C32_2 C 0.0522(2) 0.8209(5) 0.3736(3)
H26_2 H 0.0619 0.7304 0.4339
C34_2 C 0.0622(2) 0.7455(7) 0.3439(4)
O9_2 O 0.0636(2) 0.7744(4) 0.3049(3)
O13_2 O 0.07167(17) 0.6647(4) 0.3635(3)
Zn5_2 Zn 0.09365(2) 0.60843(5) 0.32373(3)
O1 O 0.95177(12) 0.4377(3) 0.52114(16)
O4 O 0.99804(13) 0.6121(2) 0.55649(16)
C4_2 C 0.92780(19) 0.4447(4) 0.4703(3)
H3 H 0.9824 0.4333 0.6292
C9_2 C 0.88627(18) 0.4119(5) 0.4443(2)
C11_2 C 0.87260(19) 0.3812(4) 0.4764(3)
C12_2 C 0.8612(2) 0.4120(7) 0.3885(3)
H13 H 0.8891 0.3815 0.5143
C15_2 C 0.83368(19) 0.3504(5) 0.4497(2)
C16_2 C 0.8241(2) 0.3798(7) 0.3625(3)
H14_2 H 0.8708 0.4358 0.3680
N3_2 N 0.81232(15) 0.3158(4) 0.47032(19)
C19_2 C 0.8080(2) 0.3459(7) 0.3937(3)
H17_2 H 0.8084 0.3787 0.3245
H19 H 0.8214 0.3118 0.5045
C21_2 C 0.77353(19) 0.2875(6) 0.4280(2)
C22_2 C 0.7697(2) 0.3040(7) 0.3777(3)
C25_2 C 0.74262(18) 0.2469(6) 0.4298(3)
C26_2 C 0.7340(3) 0.2788(8) 0.3293(3)
H21_2 H 0.7457 0.2344 0.4631
C29_2 C 0.7076(2) 0.2256(5) 0.3819(3)
C30_2 C 0.7020(3) 0.2413(8) 0.3299(3)
H22_2 H 0.7316 0.2872 0.2962
C33_2 C 0.6729(2) 0.1824(6) 0.3819(3)
H25_2 H 0.6778 0.2269 0.2977
O8_2 O 0.67468(16) 0.1733(5) 0.4252(2)
O10_2 O 0.93825(12) 0.4807(3) 0.44042(17)
Zn3_2 Zn 0.989507(19) 0.52831(4) 0.44510(2)
O12_2 O 0.64432(14) 0.1522(4) 0.33723(19)
Zn4_2 Zn 0.59365(2) 0.10843(5) 0.32373(3)
Zn3_3 Zn 0.510493(19) 0.02831(4) 0.05490(2)
O3_3 O 0.43825(12) 0.0193(3) 0.94042(17)
O4_2 O 0.50196(13) 0.1121(2) 0.94351(16)
C3_3 C 0.4284(2) 0.0007(6) 0.8298(3)
H4_3 H 0.4990 0.0361 0.8540
H5_3 H 0.4346 0.0677 0.8390
H9_3 H 0.4760 0.0006 0.7694
H12_3 H 0.4127 0.0455 0.7527
O5_3 O 0.4064(4) 0.0145(5) 0.6597(4)
H27_3 H 0.434441 0.0383984 0.679608
H28_3 H 0.394034 0.0209702 0.619773
C4_3 C 0.57220(19) 0.9447(4) 0.0297(3)
C5_2 C 0.48753(18) 0.8293(4) 0.0192(2)
C9_3 C 0.61373(18) 0.9119(5) 0.0557(2)
C10_2 C 0.4799(2) 0.7280(4) 0.0282(2)
C11_3 C 0.62740(19) 0.8812(4) 0.0236(3)
C12_3 C 0.6388(2) 0.9120(7) 0.1115(3)
C14_2 C 0.4824(2) 0.7072(4) 0.0760(2)
C15_3 C 0.66632(19) 0.8504(5) 0.0503(2)
C16_3 C 0.6759(2) 0.8798(7) 0.1375(3)
H14_3 H 0.6292 0.9358 0.1320
C18_2 C 0.4742(2) 0.6129(4) 0.0838(3)
H16_2 H 0.4892 0.7539 0.1022
N3_3 N 0.68768(15) 0.8158(4) 0.02968(19)
C19_3 C 0.6920(2) 0.8459(7) 0.1063(3)
H17_3 H 0.6916 0.8787 0.1755
C20_2 C 0.4653(2) 0.5415(4) 0.0446(3)
N4_2 N 0.4728(2) 0.5744(4) 0.1262(2)
C21_3 C 0.72647(19) 0.7875(6) 0.0720(2)
C22_3 C 0.7303(2) 0.8040(7) 0.1223(3)
C23_3 C 0.4590(2) 0.4529(4) 0.0665(3)
H20_2 H 0.4769 0.6042 0.1545
C24_3 C 0.4633(3) 0.4771(5) 0.1142(3)
C25_3 C 0.75738(18) 0.7469(6) 0.0702(3)
C26_3 C 0.7660(3) 0.7788(8) 0.1707(3)
C27_3 C 0.4496(2) 0.3612(4) 0.0482(3)
C28_3 C 0.4571(2) 0.4151(5) 0.1459(3)
H21_3 H 0.7543 0.7344 0.0369
C29_3 C 0.7924(2) 0.7256(5) 0.1181(3)
C30_3 C 0.7980(3) 0.7413(8) 0.1701(3)
H22_3 H 0.7684 0.7872 0.2038
C31_3 C 0.4441(2) 0.2933(5) 0.0781(3)
H23_3 H 0.4468 0.3441 0.0155
H24_3 H 0.4588 0.4345 0.1775
C32_3 C 0.4478(2) 0.3209(5) 0.1264(3)
C33_3 C 0.8271(2) 0.6824(6) 0.1181(3)
H25_3 H 0.8222 0.7269 0.2023
H26_3 H 0.4381 0.2304 0.0661
C34_3 C 0.4378(2) 0.2455(7) 0.1561(4)
O8_3 O 0.82532(16) 0.6733(5) 0.0748(2)
O9_3 O 0.4364(2) 0.2744(4) 0.1951(3)
O10_3 O 0.56175(12) 0.9807(3) 0.05958(17)
O11_2 O 0.49804(13) 0.8879(2) 0.05649(16)
O12_3 O 0.85568(14) 0.6522(4) 0.16277(19)
O13_3 O 0.42833(17) 0.1647(4) 0.1365(3)
Zn1_3 Zn 0.489507(19) 0.97169(4) 0.94510(2)
N1_3 N 0.46463(13) 0.9441(3) 0.86331(17)
O1_2 O 0.54823(12) 0.9377(3) 0.97886(16)
O2_3 O 0.48303(13) 0.8457(2) 0.97300(17)
C1_3 C 0.4540(2) 0.8440(4) 0.8497(3)
C2_3 C 0.49283(18) 0.9685(5) 0.8480(2)
H1_3 H 0.4365 0.8244 0.8614
H2_3 H 0.4781 0.8052 0.8688
C6_3 C 0.4323(3) 0.8277(5) 0.7869(3)
H3_2 H 0.5176 0.9333 0.8708
C7_3 C 0.4750(2) 0.9444(5) 0.7880(2)
H6_3 H 0.4085 0.9822 0.8374
C8_3 C 0.4113(2) 0.9860(5) 0.7685(2)
N2_3 N 0.43404(14) 0.9118(3) 0.76095(17)
H7_3 H 0.4449 0.7753 0.7802
H8_3 H 0.4044 0.8108 0.7717
H10_3 H 0.4911 0.8951 0.7856
H11_3 H 0.3833 0.9674 0.7497
C13_3 C 0.4714(2) 0.6555(4) 0.9904(3)
Zn2_3 Zn 0.40635(2) 0.89157(5) 0.67627(3)
H13_2 H 0.6109 0.8815 0.9857
H15_3 H 0.4715 0.6699 0.9595
C17_3 C 0.4630(3) 0.5632(4) 0.9977(3)
O6_3 O 0.35568(14) 0.8478(4) 0.66277(19)
O7_3 O 0.42833(17) 0.8353(4) 0.6365(3)
H18_3 H 0.4559 0.5170 0.9711
H19_2 H 0.6786 0.8118 0.9955
O3_4 O 0.56175(12) 0.0193(3) 0.55958(17)
O4_3 O 0.49804(13) 0.1121(2) 0.55649(16)
C3_4 C 0.5716(2) 0.0007(6) 0.6702(3)
H4_4 H 0.5010 0.0361 0.6460
H5_4 H 0.5654 0.0677 0.6610
H9_4 H 0.5240 0.0006 0.7306
H12_4 H 0.5873 0.0455 0.7473
O5_4 O 0.5936(4) 0.0145(5) 0.8403(4)
Zn3_4 Zn 0.489507(19) 0.02831(4) 0.44510(2)
H27_4 H 0.565559 0.0383984 0.820392
H28_4 H 0.605966 0.0209702 0.880227
Zn1_4 Zn 0.510493(19) 0.97169(4) 0.55490(2)
N1_4 N 0.53537(13) 0.9441(3) 0.63669(17)
O1_3 O 0.45177(12) 0.9377(3) 0.52114(16)
O2_4 O 0.51697(13) 0.8457(2) 0.52700(17)
C1_4 C 0.5460(2) 0.8440(4) 0.6503(3)
C2_4 C 0.50717(18) 0.9685(5) 0.6520(2)
C4_4 C 0.42780(19) 0.9447(4) 0.4703(3)
C5_3 C 0.51247(18) 0.8293(4) 0.4808(2)
H1_4 H 0.5635 0.8244 0.6386
H2_4 H 0.5219 0.8052 0.6312
C6_4 C 0.5677(3) 0.8277(5) 0.7131(3)
H3_3 H 0.4824 0.9333 0.6292
C7_4 C 0.5250(2) 0.9444(5) 0.7120(2)
H6_4 H 0.5915 0.9822 0.6626
C8_4 C 0.5887(2) 0.9860(5) 0.7315(2)
C9_4 C 0.38627(18) 0.9119(5) 0.4443(2)
C10_3 C 0.5201(2) 0.7280(4) 0.4718(2)
N2_4 N 0.56596(14) 0.9118(3) 0.73905(17)
H7_4 H 0.5551 0.7753 0.7198
H8_4 H 0.5956 0.8108 0.7283
H10_4 H 0.5089 0.8951 0.7144
H11_4 H 0.6167 0.9674 0.7503
C11_4 C 0.37260(19) 0.8812(4) 0.4764(3)
C12_4 C 0.3612(2) 0.9120(7) 0.3885(3)
C13_4 C 0.5286(2) 0.6555(4) 0.5096(3)
C14_3 C 0.5176(2) 0.7072(4) 0.4240(2)
Zn2_4 Zn 0.59365(2) 0.89157(5) 0.82373(3)
H13_3 H 0.3891 0.8815 0.5143
C15_4 C 0.33368(19) 0.8504(5) 0.4497(2)
C16_4 C 0.3241(2) 0.8798(7) 0.3625(3)
H14_4 H 0.3708 0.9358 0.3680
H15_4 H 0.5285 0.6699 0.5405
C17_4 C 0.5370(3) 0.5632(4) 0.5023(3)
C18_3 C 0.5258(2) 0.6129(4) 0.4162(3)
H16_3 H 0.5108 0.7539 0.3978
O6_4 O 0.64432(14) 0.8478(4) 0.83723(19)
O7_4 O 0.57167(17) 0.8353(4) 0.8635(3)
N3_4 N 0.31232(15) 0.8158(4) 0.47032(19)
C19_4 C 0.3080(2) 0.8459(7) 0.3937(3)
H17_4 H 0.3084 0.8787 0.3245
H18_4 H 0.5441 0.5170 0.5289
C20_3 C 0.5347(2) 0.5415(4) 0.4554(3)
N4_3 N 0.5272(2) 0.5744(4) 0.3738(2)
H19_3 H 0.3214 0.8118 0.5045
C21_4 C 0.27353(19) 0.7875(6) 0.4280(2)
C22_4 C 0.2697(2) 0.8040(7) 0.3777(3)
C23_4 C 0.5410(2) 0.4529(4) 0.4335(3)
H20_3 H 0.5231 0.6042 0.3455
C24_4 C 0.5367(3) 0.4771(5) 0.3858(3)
C25_4 C 0.24262(18) 0.7469(6) 0.4298(3)
C26_4 C 0.2340(3) 0.7788(8) 0.3293(3)
C27_4 C 0.5504(2) 0.3612(4) 0.4518(3)
C28_4 C 0.5429(2) 0.4151(5) 0.3541(3)
H21_4 H 0.2457 0.7344 0.4631
C29_4 C 0.2076(2) 0.7256(5) 0.3819(3)
C30_4 C 0.2020(3) 0.7413(8) 0.3299(3)
H22_4 H 0.2316 0.7872 0.2962
C31_4 C 0.5559(2) 0.2933(5) 0.4219(3)
H23_4 H 0.5532 0.3441 0.4845
H24_4 H 0.5412 0.4345 0.3225
C32_4 C 0.5522(2) 0.3209(5) 0.3736(3)
C33_4 C 0.1729(2) 0.6824(6) 0.3819(3)
H25_4 H 0.1778 0.7269 0.2977
H26_4 H 0.5619 0.2304 0.4339
C34_4 C 0.5622(2) 0.2455(7) 0.3439(4)
O8_4 O 0.17468(16) 0.6733(5) 0.4252(2)
O9_4 O 0.5636(2) 0.2744(4) 0.3049(3)
O10_4 O 0.43825(12) 0.9807(3) 0.44042(17)
O11_3 O 0.50196(13) 0.8879(2) 0.44351(16)
O12_4 O 0.14432(14) 0.6522(4) 0.33723(19)
O13_4 O 0.57167(17) 0.1647(4) 0.3635(3)
C23_5 C 0.0410(2) 0.0471(4) 0.9335(3)
C24_5 C 0.0367(3) 0.0229(5) 0.8858(3)
C27_5 C 0.0504(2) 0.1388(4) 0.9518(3)
C28_5 C 0.0429(2) 0.0849(5) 0.8541(3)
C31_5 C 0.0559(2) 0.2067(5) 0.9219(3)
H23_5 H 0.0532 0.1559 0.9845
H24_5 H 0.0412 0.0655 0.8225
C32_5 C 0.0522(2) 0.1791(5) 0.8736(3)
H26_5 H 0.0619 0.2696 0.9339
C34_5 C 0.0622(2) 0.2545(7) 0.8439(4)
O9_5 O 0.0636(2) 0.2256(4) 0.8049(3)
N1_5 N 0.03537(13) 0.5559(3) 0.13669(17)
O2_5 O 0.01697(13) 0.6543(2) 0.02700(17)
C1_5 C 0.0460(2) 0.6560(4) 0.1503(3)
C2_5 C 0.00717(18) 0.5315(5) 0.1520(2)
C3_5 C 0.0716(2) 0.4993(6) 0.1702(3)
H1_5 H 0.0635 0.6756 0.1386
H2_5 H 0.0219 0.6948 0.1312
C6_5 C 0.0677(3) 0.6723(5) 0.2131(3)
H4_5 H 0.0010 0.4639 0.1460
C7_5 C 0.0250(2) 0.5556(5) 0.2120(2)
H5_5 H 0.0654 0.4323 0.1610
H6_5 H 0.0915 0.5178 0.1626
C8_5 C 0.0887(2) 0.5140(5) 0.2315(2)
N2_5 N 0.06596(14) 0.5882(3) 0.23905(17)
H7_5 H 0.0551 0.7247 0.2198
H8_5 H 0.0956 0.6892 0.2283
H9_5 H 0.0240 0.4994 0.2306
H10_5 H 0.0089 0.6049 0.2144
H11_5 H 0.1167 0.5326 0.2503
H12_5 H 0.0873 0.4545 0.2473
C13_5 C 0.0286(2) 0.8445(4) 0.0096(3)
H15_5 H 0.0285 0.8301 0.0405
C17_5 C 0.0370(3) 0.9368(4) 0.0023(3)
O5_5 O 0.0936(4) 0.4855(5) 0.3403(4)
H18_5 H 0.0441 0.9830 0.0289
H27_5 H 0.0655594 0.461602 0.320392
H28_5 H 0.105966 0.47903 0.380227
C4_5 C 0.92780(19) 0.5553(4) 0.9703(3)
C9_5 C 0.88627(18) 0.5881(5) 0.9443(2)
C11_5 C 0.87260(19) 0.6188(4) 0.9764(3)
C12_5 C 0.8612(2) 0.5880(7) 0.8885(3)
C15_5 C 0.83368(19) 0.6496(5) 0.9497(2)
C16_5 C 0.8241(2) 0.6202(7) 0.8625(3)
H14_5 H 0.8708 0.5642 0.8680
N3_5 N 0.81232(15) 0.6842(4) 0.97032(19)
C19_5 C 0.8080(2) 0.6541(7) 0.8937(3)
H17_5 H 0.8084 0.6213 0.8245
C21_5 C 0.77353(19) 0.7125(6) 0.9280(2)
C22_5 C 0.7697(2) 0.6960(7) 0.8777(3)
C25_5 C 0.74262(18) 0.7531(6) 0.9298(3)
C26_5 C 0.7340(3) 0.7212(8) 0.8293(3)
H21_5 H 0.7457 0.7656 0.9631
C29_5 C 0.7076(2) 0.7744(5) 0.8819(3)
C30_5 C 0.7020(3) 0.7587(8) 0.8299(3)
H22_5 H 0.7316 0.7128 0.7962
C33_5 C 0.6729(2) 0.8176(6) 0.8819(3)
H25_5 H 0.6778 0.7731 0.7977
O8_5 O 0.67468(16) 0.8267(5) 0.9252(2)
O1_4 O 0.04823(12) 0.5623(3) 0.47886(16)
C4_6 C 0.07220(19) 0.5553(4) 0.5297(3)
H3_4 H 0.0176 0.5667 0.3708
C9_6 C 0.11373(18) 0.5881(5) 0.5557(2)
C11_6 C 0.12740(19) 0.6188(4) 0.5236(3)
C12_6 C 0.1388(2) 0.5880(7) 0.6115(3)
H13_4 H 0.1109 0.6185 0.4857
C15_6 C 0.16632(19) 0.6496(5) 0.5503(2)
C16_6 C 0.1759(2) 0.6202(7) 0.6375(3)
H14_6 H 0.1292 0.5642 0.6320
N3_6 N 0.18768(15) 0.6842(4) 0.52968(19)
C19_6 C 0.1920(2) 0.6541(7) 0.6063(3)
H17_6 H 0.1916 0.6213 0.6755
H19_4 H 0.1786 0.6882 0.4955
C21_6 C 0.22647(19) 0.7125(6) 0.5720(2)
C22_6 C 0.2303(2) 0.6960(7) 0.6223(3)
C25_6 C 0.25738(18) 0.7531(6) 0.5702(3)
C26_6 C 0.2660(3) 0.7212(8) 0.6707(3)
H21_6 H 0.2543 0.7656 0.5369
C29_6 C 0.2924(2) 0.7744(5) 0.6181(3)
C30_6 C 0.2980(3) 0.7587(8) 0.6701(3)
H22_6 H 0.2684 0.7128 0.7038
C33_6 C 0.3271(2) 0.8176(6) 0.6181(3)
H25_6 H 0.3222 0.7731 0.7023
O8_6 O 0.32532(16) 0.8267(5) 0.5748(2)
C23_6 C 0.9590(2) 0.0471(4) 0.5665(3)
C24_6 C 0.9633(3) 0.0229(5) 0.6142(3)
C27_6 C 0.9496(2) 0.1388(4) 0.5482(3)
C28_6 C 0.9571(2) 0.0849(5) 0.6459(3)
C31_6 C 0.9441(2) 0.2067(5) 0.5781(3)
H23_6 H 0.9468 0.1559 0.5155
H24_6 H 0.9588 0.0655 0.6775
C32_6 C 0.9478(2) 0.1791(5) 0.6264(3)
H26_6 H 0.9381 0.2696 0.5661
C34_6 C 0.9378(2) 0.2545(7) 0.6561(4)
O9_6 O 0.9364(2) 0.2256(4) 0.6951(3)
N1_6 N 0.96463(13) 0.5559(3) 0.36331(17)
O2_6 O 0.98303(13) 0.6543(2) 0.47300(17)
C1_6 C 0.9540(2) 0.6560(4) 0.3497(3)
C2_6 C 0.99283(18) 0.5315(5) 0.3480(2)
C3_6 C 0.9284(2) 0.4993(6) 0.3298(3)
C5_4 C 0.98753(18) 0.6707(4) 0.5192(2)
H1_6 H 0.9365 0.6756 0.3614
H2_6 H 0.9781 0.6948 0.3688
C6_6 C 0.9323(3) 0.6723(5) 0.2869(3)
H4_6 H 0.9990 0.4639 0.3540
C7_6 C 0.9750(2) 0.5556(5) 0.2880(2)
H5_6 H 0.9346 0.4323 0.3390
H6_6 H 0.9085 0.5178 0.3374
C8_6 C 0.9113(2) 0.5140(5) 0.2685(2)
C10_4 C 0.9799(2) 0.7720(4) 0.5282(2)
N2_6 N 0.93404(14) 0.5882(3) 0.26095(17)
H7_6 H 0.9449 0.7247 0.2802
H8_6 H 0.9044 0.6892 0.2717
H9_6 H 0.9760 0.4994 0.2694
H10_6 H 0.9911 0.6049 0.2856
H11_6 H 0.8833 0.5326 0.2497
H12_6 H 0.9127 0.4545 0.2527
C13_6 C 0.9714(2) 0.8445(4) 0.4904(3)
C14_4 C 0.9824(2) 0.7928(4) 0.5760(2)
H15_6 H 0.9715 0.8301 0.4595
C17_6 C 0.9630(3) 0.9368(4) 0.4977(3)
C18_4 C 0.9742(2) 0.8871(4) 0.5838(3)
H16_4 H 0.9892 0.7461 0.6022
O5_6 O 0.9064(4) 0.4855(5) 0.1597(4)
H18_6 H 0.9559 0.9830 0.4711
C20_4 C 0.9653(2) 0.9585(4) 0.5446(3)
N4_4 N 0.9728(2) 0.9256(4) 0.6262(2)
H20_4 H 0.9769 0.8958 0.6545
H27_6 H 0.934441 0.461602 0.179608
H28_6 H 0.894034 0.47903 0.119773
N1_7 N 0.53537(13) 0.0559(3) 0.13669(17)
O1_5 O 0.45177(12) 0.0623(3) 0.02114(16)
O2_7 O 0.51697(13) 0.1543(2) 0.02700(17)
C1_7 C 0.5460(2) 0.1560(4) 0.1503(3)
C2_7 C 0.50717(18) 0.0315(5) 0.1520(2)
H1_7 H 0.5635 0.1756 0.1386
H2_7 H 0.5219 0.1948 0.1312
C6_7 C 0.5677(3) 0.1723(5) 0.2131(3)
H3_5 H 0.4824 0.0667 0.1292
C7_7 C 0.5250(2) 0.0556(5) 0.2120(2)
H6_7 H 0.5915 0.0178 0.1626
C8_7 C 0.5887(2) 0.0140(5) 0.2315(2)
N2_7 N 0.56596(14) 0.0882(3) 0.23905(17)
H7_7 H 0.5551 0.2247 0.2198
H8_7 H 0.5956 0.1892 0.2283
H10_7 H 0.5089 0.1049 0.2144
H11_7 H 0.6167 0.0326 0.2503
C13_7 C 0.5286(2) 0.3445(4) 0.0096(3)
H13_5 H 0.3891 0.1185 0.0143
H15_7 H 0.5285 0.3301 0.0405
C17_7 C 0.5370(3) 0.4368(4) 0.0023(3)
H18_7 H 0.5441 0.4830 0.0289
H19_5 H 0.3214 0.1882 0.0045
C4_7 C 0.42780(19) 0.0553(4) 0.9703(3)
C5_5 C 0.51247(18) 0.1707(4) 0.9808(2)
C9_7 C 0.38627(18) 0.0881(5) 0.9443(2)
C10_5 C 0.5201(2) 0.2720(4) 0.9718(2)
C11_7 C 0.37260(19) 0.1188(4) 0.9764(3)
C12_7 C 0.3612(2) 0.0880(7) 0.8885(3)
C14_5 C 0.5176(2) 0.2928(4) 0.9240(2)
C15_7 C 0.33368(19) 0.1496(5) 0.9497(2)
C16_7 C 0.3241(2) 0.1202(7) 0.8625(3)
H14_7 H 0.3708 0.0642 0.8680
C18_5 C 0.5258(2) 0.3871(4) 0.9162(3)
H16_5 H 0.5108 0.2461 0.8978
N3_7 N 0.31232(15) 0.1842(4) 0.97032(19)
C19_7 C 0.3080(2) 0.1541(7) 0.8937(3)
H17_7 H 0.3084 0.1213 0.8245
C20_5 C 0.5347(2) 0.4585(4) 0.9554(3)
N4_5 N 0.5272(2) 0.4256(4) 0.8738(2)
C21_7 C 0.27353(19) 0.2125(6) 0.9280(2)
C22_7 C 0.2697(2) 0.1960(7) 0.8777(3)
C23_7 C 0.5410(2) 0.5471(4) 0.9335(3)
H20_5 H 0.5231 0.3958 0.8455
C24_7 C 0.5367(3) 0.5229(5) 0.8858(3)
C25_7 C 0.24262(18) 0.2531(6) 0.9298(3)
C26_7 C 0.2340(3) 0.2212(8) 0.8293(3)
C27_7 C 0.5504(2) 0.6388(4) 0.9518(3)
C28_7 C 0.5429(2) 0.5849(5) 0.8541(3)
H21_7 H 0.2457 0.2656 0.9631
C29_7 C 0.2076(2) 0.2744(5) 0.8819(3)
C30_7 C 0.2020(3) 0.2587(8) 0.8299(3)
H22_7 H 0.2316 0.2128 0.7962
C31_7 C 0.5559(2) 0.7067(5) 0.9219(3)
H23_7 H 0.5532 0.6559 0.9845
H24_7 H 0.5412 0.5655 0.8225
C32_7 C 0.5522(2) 0.6791(5) 0.8736(3)
C33_7 C 0.1729(2) 0.3176(6) 0.8819(3)
H25_7 H 0.1778 0.2731 0.7977
H26_7 H 0.5619 0.7696 0.9339
C34_7 C 0.5622(2) 0.7545(7) 0.8439(4)
O8_7 O 0.17468(16) 0.3267(5) 0.9252(2)
O9_7 O 0.5636(2) 0.7256(4) 0.8049(3)
C3_7 C 0.5716(2) 0.9993(6) 0.1702(3)
H4_7 H 0.5010 0.9639 0.1460
H5_7 H 0.5654 0.9323 0.1610
H9_7 H 0.5240 0.9994 0.2306
H12_7 H 0.5873 0.9545 0.2473
O5_7 O 0.5936(4) 0.9855(5) 0.3403(4)
H27_7 H 0.565559 0.961602 0.320392
H28_7 H 0.605966 0.97903 0.380227
N1_8 N 0.46463(13) 0.0559(3) 0.36331(17)
O1_6 O 0.54823(12) 0.0623(3) 0.47886(16)
O2_8 O 0.48303(13) 0.1543(2) 0.47300(17)
C1_8 C 0.4540(2) 0.1560(4) 0.3497(3)
C2_8 C 0.49283(18) 0.0315(5) 0.3480(2)
C4_8 C 0.57220(19) 0.0553(4) 0.5297(3)
C5_6 C 0.48753(18) 0.1707(4) 0.5192(2)
H1_8 H 0.4365 0.1756 0.3614
H2_8 H 0.4781 0.1948 0.3688
C6_8 C 0.4323(3) 0.1723(5) 0.2869(3)
H3_6 H 0.5176 0.0667 0.3708
C7_8 C 0.4750(2) 0.0556(5) 0.2880(2)
H6_8 H 0.4085 0.0178 0.3374
C8_8 C 0.4113(2) 0.0140(5) 0.2685(2)
C9_8 C 0.61373(18) 0.0881(5) 0.5557(2)
C10_6 C 0.4799(2) 0.2720(4) 0.5282(2)
N2_8 N 0.43404(14) 0.0882(3) 0.26095(17)
H7_8 H 0.4449 0.2247 0.2802
H8_8 H 0.4044 0.1892 0.2717
H10_8 H 0.4911 0.1049 0.2856
H11_8 H 0.3833 0.0326 0.2497
C11_8 C 0.62740(19) 0.1188(4) 0.5236(3)
C12_8 C 0.6388(2) 0.0880(7) 0.6115(3)
C13_8 C 0.4714(2) 0.3445(4) 0.4904(3)
C14_6 C 0.4824(2) 0.2928(4) 0.5760(2)
H13_6 H 0.6109 0.1185 0.4857
C15_8 C 0.66632(19) 0.1496(5) 0.5503(2)
C16_8 C 0.6759(2) 0.1202(7) 0.6375(3)
H14_8 H 0.6292 0.0642 0.6320
H15_8 H 0.4715 0.3301 0.4595
C17_8 C 0.4630(3) 0.4368(4) 0.4977(3)
C18_6 C 0.4742(2) 0.3871(4) 0.5838(3)
H16_6 H 0.4892 0.2461 0.6022
N3_8 N 0.68768(15) 0.1842(4) 0.52968(19)
C19_8 C 0.6920(2) 0.1541(7) 0.6063(3)
H17_8 H 0.6916 0.1213 0.6755
H18_8 H 0.4559 0.4830 0.4711
C20_6 C 0.4653(2) 0.4585(4) 0.5446(3)
N4_6 N 0.4728(2) 0.4256(4) 0.6262(2)
H19_6 H 0.6786 0.1882 0.4955
C21_8 C 0.72647(19) 0.2125(6) 0.5720(2)
C22_8 C 0.7303(2) 0.1960(7) 0.6223(3)
C23_8 C 0.4590(2) 0.5471(4) 0.5665(3)
H20_6 H 0.4769 0.3958 0.6545
C24_8 C 0.4633(3) 0.5229(5) 0.6142(3)
C25_8 C 0.75738(18) 0.2531(6) 0.5702(3)
C26_8 C 0.7660(3) 0.2212(8) 0.6707(3)
C27_8 C 0.4496(2) 0.6388(4) 0.5482(3)
C28_8 C 0.4571(2) 0.5849(5) 0.6459(3)
H21_8 H 0.7543 0.2656 0.5369
C29_8 C 0.7924(2) 0.2744(5) 0.6181(3)
C30_8 C 0.7980(3) 0.2587(8) 0.6701(3)
H22_8 H 0.7684 0.2128 0.7038
C31_8 C 0.4441(2) 0.7067(5) 0.5781(3)
H23_8 H 0.4468 0.6559 0.5155
H24_8 H 0.4588 0.5655 0.6775
C32_8 C 0.4478(2) 0.6791(5) 0.6264(3)
C33_8 C 0.8271(2) 0.3176(6) 0.6181(3)
H25_8 H 0.8222 0.2731 0.7023
H26_8 H 0.4381 0.7696 0.5661
C34_8 C 0.4378(2) 0.7545(7) 0.6561(4)
O8_8 O 0.82532(16) 0.3267(5) 0.5748(2)
O9_8 O 0.4364(2) 0.7256(4) 0.6951(3)
C3_8 C 0.4284(2) 0.9993(6) 0.3298(3)
H4_8 H 0.4990 0.9639 0.3540
H5_8 H 0.4346 0.9323 0.3390
H9_8 H 0.4760 0.9994 0.2694
H12_8 H 0.4127 0.9545 0.2527
O5_8 O 0.4064(4) 0.9855(5) 0.1597(4)
H27_8 H 0.434441 0.961602 0.179608
H28_8 H 0.394034 0.97903 0.119773
O1_7 O 0.04823(12) 0.4377(3) 0.97886(16)
O4_4 O 0.00196(13) 0.6121(2) 0.94351(16)
H3_7 H 0.0176 0.4333 0.8708
H13_7 H 0.1109 0.3815 0.9857
H19_7 H 0.1786 0.3118 0.9955
C5_7 C 0.01247(18) 0.6707(4) 0.9808(2)
C10_7 C 0.0201(2) 0.7720(4) 0.9718(2)
C14_7 C 0.0176(2) 0.7928(4) 0.9240(2)
C18_7 C 0.0258(2) 0.8871(4) 0.9162(3)
H16_7 H 0.0108 0.7461 0.8978
C20_7 C 0.0347(2) 0.9585(4) 0.9554(3)
N4_7 N 0.0272(2) 0.9256(4) 0.8738(2)
H20_7 H 0.0231 0.8958 0.8455
C5_8 C 0.98753(18) 0.3293(4) 0.0192(2)
C10_8 C 0.9799(2) 0.2280(4) 0.0282(2)
C14_8 C 0.9824(2) 0.2072(4) 0.0760(2)
C18_8 C 0.9742(2) 0.1129(4) 0.0838(3)
H16_8 H 0.9892 0.2539 0.1022
C20_8 C 0.9653(2) 0.0415(4) 0.0446(3)
N4_8 N 0.9728(2) 0.0744(4) 0.1262(2)
H20_8 H 0.9769 0.1042 0.1545
O11_4 O 0.99804(13) 0.3879(2) 0.05649(16)
O1_8 O 0.95177(12) 0.5623(3) 0.02114(16)
H3_8 H 0.9824 0.5667 0.1292
H13_8 H 0.8891 0.6185 0.0143
H19_8 H 0.8214 0.6882 0.0045
loop_
_geom_bond_atom_site_label_1
_geom_bond_atom_site_label_2
_geom_bond_site_symmetry_1
_geom_bond_site_symmetry_2
C9 C4 1_555 1_555
C11 C9 1_555 1_555
C12 C9 1_555 1_555
C15 C11 1_555 1_555
C16 C12 1_555 1_555
H14 C12 1_555 1_555
N3 C15 1_555 1_555
C19 C15 1_555 1_555
H17 C16 1_555 1_555
C21 N3 1_555 1_555
C22 C19 1_555 1_555
C25 C21 1_555 1_555
C26 C22 1_555 1_555
H21 C25 1_555 1_555
C29 C25 1_555 1_555
C30 C26 1_555 1_555
H22 C26 1_555 1_555
C33 C29 1_555 1_555
H25 C30 1_555 1_555
O8 C33 1_555 1_555
O10 C4 1_555 1_555
Zn3 O10 1_555 1_555
O12 C33 1_555 1_555
Zn4 O12 1_555 1_555
C16 C19 1_555 1_555
C21 C22 1_555 1_555
C29 C30 1_555 1_555
Zn1 N1 1_555 1_555
N1 C1 1_555 1_555
O2 Zn1 1_555 1_555
O3 Zn1 1_555 1_555
C1 H1 1_555 1_555
C2 N1 1_555 1_555
C3 N1 1_555 1_555
H2 C1 1_555 1_555
C6 C1 1_555 1_555
H4 C2 1_555 1_555
C7 C2 1_555 1_555
H5 C3 1_555 1_555
H6 C3 1_555 1_555
C8 C3 1_555 1_555
N2 C6 1_555 1_555
H7 C6 1_555 1_555
H8 C6 1_555 1_555
H9 C7 1_555 1_555
H10 C7 1_555 1_555
H11 C8 1_555 1_555
H12 C8 1_555 1_555
Zn2 N2 1_555 1_555
H15 C13 1_555 1_555
C17 C13 1_555 1_555
O5 Zn2 1_555 1_555
O6 Zn2 1_555 1_555
O7 Zn2 1_555 1_555
H18 C17 1_555 1_555
C7 N2 1_555 1_555
C8 N2 1_555 1_555
O5 H27 1_555 1_555
O5 H28 1_555 1_555
C27 C23 1_555 1_555
C28 C24 1_555 1_555
C31 C27 1_555 1_555
H23 C27 1_555 1_555
H24 C28 1_555 1_555
C32 C28 1_555 1_555
H26 C31 1_555 1_555
C34 C32 1_555 1_555
O9 C34 1_555 1_555
O13 C34 1_555 1_555
Zn5 O13 1_555 1_555
C23 C24 1_555 1_555
C31 C32 1_555 1_555
Zn1_2 N1_2 1_555 1_555
N1_2 C1_2 1_555 1_555
O2_2 Zn1_2 1_555 1_555
O3_2 Zn1_2 1_555 1_555
C1_2 H1_2 1_555 1_555
C2_2 N1_2 1_555 1_555
C3_2 N1_2 1_555 1_555
C5 O2_2 1_555 1_555
H2_2 C1_2 1_555 1_555
C6_2 C1_2 1_555 1_555
H4_2 C2_2 1_555 1_555
C7_2 C2_2 1_555 1_555
H5_2 C3_2 1_555 1_555
H6_2 C3_2 1_555 1_555
C8_2 C3_2 1_555 1_555
C10 C5 1_555 1_555
N2_2 C6_2 1_555 1_555
H7_2 C6_2 1_555 1_555
H8_2 C6_2 1_555 1_555
H9_2 C7_2 1_555 1_555
H10_2 C7_2 1_555 1_555
H11_2 C8_2 1_555 1_555
H12_2 C8_2 1_555 1_555
C13_2 C10 1_555 1_555
C14 C10 1_555 1_555
Zn2_2 N2_2 1_555 1_555
H15_2 C13_2 1_555 1_555
C17_2 C13_2 1_555 1_555
C18 C14 1_555 1_555
H16 C14 1_555 1_555
O5_2 Zn2_2 1_555 1_555
O6_2 Zn2_2 1_555 1_555
O7_2 Zn2_2 1_555 1_555
H18_2 C17_2 1_555 1_555
C20 C17_2 1_555 1_555
N4 C18 1_555 1_555
H20 N4 1_555 1_555
O11 C5 1_555 1_555
C7_2 N2_2 1_555 1_555
C8_2 N2_2 1_555 1_555
C18 C20 1_555 1_555
O5_2 H27_2 1_555 1_555
O5_2 H28_2 1_555 1_555
C27_2 C23_2 1_555 1_555
C28_2 C24_2 1_555 1_555
C31_2 C27_2 1_555 1_555
H23_2 C27_2 1_555 1_555
H24_2 C28_2 1_555 1_555
C32_2 C28_2 1_555 1_555
H26_2 C31_2 1_555 1_555
C34_2 C32_2 1_555 1_555
O9_2 C34_2 1_555 1_555
O13_2 C34_2 1_555 1_555
Zn5_2 O13_2 1_555 1_555
C23_2 C24_2 1_555 1_555
C31_2 C32_2 1_555 1_555
C4_2 O1 1_555 1_555
C9_2 C4_2 1_555 1_555
C11_2 C9_2 1_555 1_555
C12_2 C9_2 1_555 1_555
H13 C11_2 1_555 1_555
C15_2 C11_2 1_555 1_555
C16_2 C12_2 1_555 1_555
H14_2 C12_2 1_555 1_555
N3_2 C15_2 1_555 1_555
C19_2 C15_2 1_555 1_555
H17_2 C16_2 1_555 1_555
H19 N3_2 1_555 1_555
C21_2 N3_2 1_555 1_555
C22_2 C19_2 1_555 1_555
C25_2 C21_2 1_555 1_555
C26_2 C22_2 1_555 1_555
H21_2 C25_2 1_555 1_555
C29_2 C25_2 1_555 1_555
C30_2 C26_2 1_555 1_555
H22_2 C26_2 1_555 1_555
C33_2 C29_2 1_555 1_555
H25_2 C30_2 1_555 1_555
O8_2 C33_2 1_555 1_555
O10_2 C4_2 1_555 1_555
Zn3_2 O10_2 1_555 1_555
O12_2 C33_2 1_555 1_555
Zn4_2 O12_2 1_555 1_555
C16_2 C19_2 1_555 1_555
C21_2 C22_2 1_555 1_555
C29_2 C30_2 1_555 1_555
H5_3 C3_3 1_555 1_555
O5_3 H27_3 1_555 1_555
O5_3 H28_3 1_555 1_555
C9_3 C4_3 1_555 1_555
C10_2 C5_2 1_555 1_555
C11_3 C9_3 1_555 1_555
C12_3 C9_3 1_555 1_555
C14_2 C10_2 1_555 1_555
C15_3 C11_3 1_555 1_555
C16_3 C12_3 1_555 1_555
H14_3 C12_3 1_555 1_555
C18_2 C14_2 1_555 1_555
H16_2 C14_2 1_555 1_555
N3_3 C15_3 1_555 1_555
C19_3 C15_3 1_555 1_555
H17_3 C16_3 1_555 1_555
N4_2 C18_2 1_555 1_555
C21_3 N3_3 1_555 1_555
C22_3 C19_3 1_555 1_555
C23_3 C20_2 1_555 1_555
H20_2 N4_2 1_555 1_555
C24_3 N4_2 1_555 1_555
C25_3 C21_3 1_555 1_555
C26_3 C22_3 1_555 1_555
C27_3 C23_3 1_555 1_555
C28_3 C24_3 1_555 1_555
H21_3 C25_3 1_555 1_555
C29_3 C25_3 1_555 1_555
C30_3 C26_3 1_555 1_555
H22_3 C26_3 1_555 1_555
C31_3 C27_3 1_555 1_555
H23_3 C27_3 1_555 1_555
H24_3 C28_3 1_555 1_555
C32_3 C28_3 1_555 1_555
C33_3 C29_3 1_555 1_555
H25_3 C30_3 1_555 1_555
H26_3 C31_3 1_555 1_555
C34_3 C32_3 1_555 1_555
O8_3 C33_3 1_555 1_555
O9_3 C34_3 1_555 1_555
O10_3 C4_3 1_555 1_555
O11_2 C5_2 1_555 1_555
O12_3 C33_3 1_555 1_555
O13_3 C34_3 1_555 1_555
Zn5 O12_3 1_555 1_555
Zn4 O13_3 1_555 1_555
C16_3 C19_3 1_555 1_555
C18_2 C20_2 1_555 1_555
C21_3 C22_3 1_555 1_555
C23_3 C24_3 1_555 1_555
C29_3 C30_3 1_555 1_555
C31_3 C32_3 1_555 1_555
Zn1_3 N1_3 1_555 1_555
N1_3 C1_3 1_555 1_555
O1_2 Zn1_3 1_555 1_555
O2_3 Zn1_3 1_555 1_555
C1_3 H1_3 1_555 1_555
C2_3 N1_3 1_555 1_555
H2_3 C1_3 1_555 1_555
C6_3 C1_3 1_555 1_555
H3_2 C2_3 1_555 1_555
C7_3 C2_3 1_555 1_555
N2_3 C6_3 1_555 1_555
H7_3 C6_3 1_555 1_555
H8_3 C6_3 1_555 1_555
H10_3 C7_3 1_555 1_555
H11_3 C8_3 1_555 1_555
Zn2_3 N2_3 1_555 1_555
H15_3 C13_3 1_555 1_555
C17_3 C13_3 1_555 1_555
O6_3 Zn2_3 1_555 1_555
O7_3 Zn2_3 1_555 1_555
H18_3 C17_3 1_555 1_555
C7_3 N2_3 1_555 1_555
C8_3 N2_3 1_555 1_555
H5_4 C3_4 1_555 1_555
O5_4 H27_4 1_555 1_555
O5_4 H28_4 1_555 1_555
Zn1_4 N1_4 1_555 1_555
N1_4 C1_4 1_555 1_555
O1_3 Zn1_4 1_555 1_555
O2_4 Zn1_4 1_555 1_555
C1_4 H1_4 1_555 1_555
C2_4 N1_4 1_555 1_555
C4_4 O1_3 1_555 1_555
C5_3 O2_4 1_555 1_555
H2_4 C1_4 1_555 1_555
C6_4 C1_4 1_555 1_555
H3_3 C2_4 1_555 1_555
C7_4 C2_4 1_555 1_555
C9_4 C4_4 1_555 1_555
C10_3 C5_3 1_555 1_555
N2_4 C6_4 1_555 1_555
H7_4 C6_4 1_555 1_555
H8_4 C6_4 1_555 1_555
H10_4 C7_4 1_555 1_555
H11_4 C8_4 1_555 1_555
C11_4 C9_4 1_555 1_555
C12_4 C9_4 1_555 1_555
C13_4 C10_3 1_555 1_555
C14_3 C10_3 1_555 1_555
Zn2_4 N2_4 1_555 1_555
H13_3 C11_4 1_555 1_555
C15_4 C11_4 1_555 1_555
C16_4 C12_4 1_555 1_555
H14_4 C12_4 1_555 1_555
H15_4 C13_4 1_555 1_555
C17_4 C13_4 1_555 1_555
C18_3 C14_3 1_555 1_555
H16_3 C14_3 1_555 1_555
O6_4 Zn2_4 1_555 1_555
O7_4 Zn2_4 1_555 1_555
N3_4 C15_4 1_555 1_555
C19_4 C15_4 1_555 1_555
H17_4 C16_4 1_555 1_555
H18_4 C17_4 1_555 1_555
C20_3 C17_4 1_555 1_555
N4_3 C18_3 1_555 1_555
H19_3 N3_4 1_555 1_555
C21_4 N3_4 1_555 1_555
C22_4 C19_4 1_555 1_555
C23_4 C20_3 1_555 1_555
H20_3 N4_3 1_555 1_555
C24_4 N4_3 1_555 1_555
C25_4 C21_4 1_555 1_555
C26_4 C22_4 1_555 1_555
C27_4 C23_4 1_555 1_555
C28_4 C24_4 1_555 1_555
H21_4 C25_4 1_555 1_555
C29_4 C25_4 1_555 1_555
C30_4 C26_4 1_555 1_555
H22_4 C26_4 1_555 1_555
C31_4 C27_4 1_555 1_555
H23_4 C27_4 1_555 1_555
H24_4 C28_4 1_555 1_555
C32_4 C28_4 1_555 1_555
C33_4 C29_4 1_555 1_555
H25_4 C30_4 1_555 1_555
H26_4 C31_4 1_555 1_555
C34_4 C32_4 1_555 1_555
O8_4 C33_4 1_555 1_555
O9_4 C34_4 1_555 1_555
O10_4 C4_4 1_555 1_555
O11_3 C5_3 1_555 1_555
O12_4 C33_4 1_555 1_555
O13_4 C34_4 1_555 1_555
Zn5_2 O12_4 1_555 1_555
Zn4_2 O13_4 1_555 1_555
C7_4 N2_4 1_555 1_555
C8_4 N2_4 1_555 1_555
C16_4 C19_4 1_555 1_555
C18_3 C20_3 1_555 1_555
C21_4 C22_4 1_555 1_555
C23_4 C24_4 1_555 1_555
C29_4 C30_4 1_555 1_555
C31_4 C32_4 1_555 1_555
C27_5 C23_5 1_555 1_555
C28_5 C24_5 1_555 1_555
C31_5 C27_5 1_555 1_555
H23_5 C27_5 1_555 1_555
H24_5 C28_5 1_555 1_555
C32_5 C28_5 1_555 1_555
H26_5 C31_5 1_555 1_555
C34_5 C32_5 1_555 1_555
O9_5 C34_5 1_555 1_555
O7_2 C34_5 1_555 1_555
C23_5 C24_5 1_555 1_555
C31_5 C32_5 1_555 1_555
Zn3 N1_5 1_555 1_555
N1_5 C1_5 1_555 1_555
O2_5 Zn3 1_555 1_555
C1_5 H1_5 1_555 1_555
C2_5 N1_5 1_555 1_555
C3_5 N1_5 1_555 1_555
H2_5 C1_5 1_555 1_555
C6_5 C1_5 1_555 1_555
H4_5 C2_5 1_555 1_555
C7_5 C2_5 1_555 1_555
H5_5 C3_5 1_555 1_555
H6_5 C3_5 1_555 1_555
C8_5 C3_5 1_555 1_555
N2_5 C6_5 1_555 1_555
H7_5 C6_5 1_555 1_555
H8_5 C6_5 1_555 1_555
H9_5 C7_5 1_555 1_555
H10_5 C7_5 1_555 1_555
H11_5 C8_5 1_555 1_555
H12_5 C8_5 1_555 1_555
Zn5_2 N2_5 1_555 1_555
H15_5 C13_5 1_555 1_555
C17_5 C13_5 1_555 1_555
O5_5 Zn5_2 1_555 1_555
H18_5 C17_5 1_555 1_555
C7_5 N2_5 1_555 1_555
C8_5 N2_5 1_555 1_555
O5_5 H27_5 1_555 1_555
O5_5 H28_5 1_555 1_555
C9_5 C4_5 1_555 1_555
C11_5 C9_5 1_555 1_555
C12_5 C9_5 1_555 1_555
C15_5 C11_5 1_555 1_555
C16_5 C12_5 1_555 1_555
H14_5 C12_5 1_555 1_555
N3_5 C15_5 1_555 1_555
C19_5 C15_5 1_555 1_555
H17_5 C16_5 1_555 1_555
C21_5 N3_5 1_555 1_555
C22_5 C19_5 1_555 1_555
C25_5 C21_5 1_555 1_555
C26_5 C22_5 1_555 1_555
H21_5 C25_5 1_555 1_555
C29_5 C25_5 1_555 1_555
C30_5 C26_5 1_555 1_555
H22_5 C26_5 1_555 1_555
C33_5 C29_5 1_555 1_555
H25_5 C30_5 1_555 1_555
O8_5 C33_5 1_555 1_555
O3 C4_5 1_555 1_555
O6_4 C33_5 1_555 1_555
C16_5 C19_5 1_555 1_555
C21_5 C22_5 1_555 1_555
C29_5 C30_5 1_555 1_555
C4_6 O1_4 1_555 1_555
C9_6 C4_6 1_555 1_555
C11_6 C9_6 1_555 1_555
C12_6 C9_6 1_555 1_555
H13_4 C11_6 1_555 1_555
C15_6 C11_6 1_555 1_555
C16_6 C12_6 1_555 1_555
H14_6 C12_6 1_555 1_555
N3_6 C15_6 1_555 1_555
C19_6 C15_6 1_555 1_555
H17_6 C16_6 1_555 1_555
H19_4 N3_6 1_555 1_555
C21_6 N3_6 1_555 1_555
C22_6 C19_6 1_555 1_555
C25_6 C21_6 1_555 1_555
C26_6 C22_6 1_555 1_555
H21_6 C25_6 1_555 1_555
C29_6 C25_6 1_555 1_555
C30_6 C26_6 1_555 1_555
H22_6 C26_6 1_555 1_555
C33_6 C29_6 1_555 1_555
H25_6 C30_6 1_555 1_555
O8_6 C33_6 1_555 1_555
O3_2 C4_6 1_555 1_555
O6_3 C33_6 1_555 1_555
C16_6 C19_6 1_555 1_555
C21_6 C22_6 1_555 1_555
C29_6 C30_6 1_555 1_555
C27_6 C23_6 1_555 1_555
C28_6 C24_6 1_555 1_555
C31_6 C27_6 1_555 1_555
H23_6 C27_6 1_555 1_555
H24_6 C28_6 1_555 1_555
C32_6 C28_6 1_555 1_555
H26_6 C31_6 1_555 1_555
C34_6 C32_6 1_555 1_555
O9_6 C34_6 1_555 1_555
O7 C34_6 1_555 1_555
C23_6 C24_6 1_555 1_555
C31_6 C32_6 1_555 1_555
Zn3_2 N1_6 1_555 1_555
N1_6 C1_6 1_555 1_555
O2_6 Zn3_2 1_555 1_555
C1_6 H1_6 1_555 1_555
C2_6 N1_6 1_555 1_555
C3_6 N1_6 1_555 1_555
C5_4 O2_6 1_555 1_555
H2_6 C1_6 1_555 1_555
C6_6 C1_6 1_555 1_555
H4_6 C2_6 1_555 1_555
C7_6 C2_6 1_555 1_555
H5_6 C3_6 1_555 1_555
H6_6 C3_6 1_555 1_555
C8_6 C3_6 1_555 1_555
C10_4 C5_4 1_555 1_555
N2_6 C6_6 1_555 1_555
H7_6 C6_6 1_555 1_555
H8_6 C6_6 1_555 1_555
H9_6 C7_6 1_555 1_555
H10_6 C7_6 1_555 1_555
H11_6 C8_6 1_555 1_555
H12_6 C8_6 1_555 1_555
C13_6 C10_4 1_555 1_555
C14_4 C10_4 1_555 1_555
Zn5 N2_6 1_555 1_555
H15_6 C13_6 1_555 1_555
C17_6 C13_6 1_555 1_555
C18_4 C14_4 1_555 1_555
H16_4 C14_4 1_555 1_555
O5_6 Zn5 1_555 1_555
H18_6 C17_6 1_555 1_555
C20_4 C17_6 1_555 1_555
N4_4 C18_4 1_555 1_555
H20_4 N4_4 1_555 1_555
O4 C5_4 1_555 1_555
C7_6 N2_6 1_555 1_555
C8_6 N2_6 1_555 1_555
C18_4 C20_4 1_555 1_555
O5_6 H27_6 1_555 1_555
O5_6 H28_6 1_555 1_555
Zn3_3 N1_7 1_555 1_555
N1_7 C1_7 1_555 1_555
O1_5 Zn3_3 1_555 1_555
O2_7 Zn3_3 1_555 1_555
C1_7 H1_7 1_555 1_555
C2_7 N1_7 1_555 1_555
H2_7 C1_7 1_555 1_555
C6_7 C1_7 1_555 1_555
H3_5 C2_7 1_555 1_555
C7_7 C2_7 1_555 1_555
N2_7 C6_7 1_555 1_555
H7_7 C6_7 1_555 1_555
H8_7 C6_7 1_555 1_555
H10_7 C7_7 1_555 1_555
H11_7 C8_7 1_555 1_555
Zn4_2 N2_7 1_555 1_555
H15_7 C13_7 1_555 1_555
C17_7 C13_7 1_555 1_555
H18_7 C17_7 1_555 1_555
C7_7 N2_7 1_555 1_555
C8_7 N2_7 1_555 1_555
C9_7 C4_7 1_555 1_555
C10_5 C5_5 1_555 1_555
C11_7 C9_7 1_555 1_555
C12_7 C9_7 1_555 1_555
C14_5 C10_5 1_555 1_555
C15_7 C11_7 1_555 1_555
C16_7 C12_7 1_555 1_555
H14_7 C12_7 1_555 1_555
C18_5 C14_5 1_555 1_555
H16_5 C14_5 1_555 1_555
N3_7 C15_7 1_555 1_555
C19_7 C15_7 1_555 1_555
H17_7 C16_7 1_555 1_555
N4_5 C18_5 1_555 1_555
C21_7 N3_7 1_555 1_555
C22_7 C19_7 1_555 1_555
C23_7 C20_5 1_555 1_555
H20_5 N4_5 1_555 1_555
C24_7 N4_5 1_555 1_555
C25_7 C21_7 1_555 1_555
C26_7 C22_7 1_555 1_555
C27_7 C23_7 1_555 1_555
C28_7 C24_7 1_555 1_555
H21_7 C25_7 1_555 1_555
C29_7 C25_7 1_555 1_555
C30_7 C26_7 1_555 1_555
H22_7 C26_7 1_555 1_555
C31_7 C27_7 1_555 1_555
H23_7 C27_7 1_555 1_555
H24_7 C28_7 1_555 1_555
C32_7 C28_7 1_555 1_555
C33_7 C29_7 1_555 1_555
H25_7 C30_7 1_555 1_555
H26_7 C31_7 1_555 1_555
C34_7 C32_7 1_555 1_555
O8_7 C33_7 1_555 1_555
O9_7 C34_7 1_555 1_555
O3_3 C4_7 1_555 1_555
O4_2 C5_5 1_555 1_555
O6_2 C33_7 1_555 1_555
O7_4 C34_7 1_555 1_555
C16_7 C19_7 1_555 1_555
C18_5 C20_5 1_555 1_555
C21_7 C22_7 1_555 1_555
C23_7 C24_7 1_555 1_555
C29_7 C30_7 1_555 1_555
C31_7 C32_7 1_555 1_555
H5_7 C3_7 1_555 1_555
O5_7 H27_7 1_555 1_555
O5_7 H28_7 1_555 1_555
Zn3_4 N1_8 1_555 1_555
N1_8 C1_8 1_555 1_555
O1_6 Zn3_4 1_555 1_555
O2_8 Zn3_4 1_555 1_555
C1_8 H1_8 1_555 1_555
C2_8 N1_8 1_555 1_555
C4_8 O1_6 1_555 1_555
C5_6 O2_8 1_555 1_555
H2_8 C1_8 1_555 1_555
C6_8 C1_8 1_555 1_555
H3_6 C2_8 1_555 1_555
C7_8 C2_8 1_555 1_555
C9_8 C4_8 1_555 1_555
C10_6 C5_6 1_555 1_555
N2_8 C6_8 1_555 1_555
H7_8 C6_8 1_555 1_555
H8_8 C6_8 1_555 1_555
H10_8 C7_8 1_555 1_555
H11_8 C8_8 1_555 1_555
C11_8 C9_8 1_555 1_555
C12_8 C9_8 1_555 1_555
C13_8 C10_6 1_555 1_555
C14_6 C10_6 1_555 1_555
Zn4 N2_8 1_555 1_555
H13_6 C11_8 1_555 1_555
C15_8 C11_8 1_555 1_555
C16_8 C12_8 1_555 1_555
H14_8 C12_8 1_555 1_555
H15_8 C13_8 1_555 1_555
C17_8 C13_8 1_555 1_555
C18_6 C14_6 1_555 1_555
H16_6 C14_6 1_555 1_555
N3_8 C15_8 1_555 1_555
C19_8 C15_8 1_555 1_555
H17_8 C16_8 1_555 1_555
H18_8 C17_8 1_555 1_555
C20_6 C17_8 1_555 1_555
N4_6 C18_6 1_555 1_555
H19_6 N3_8 1_555 1_555
C21_8 N3_8 1_555 1_555
C22_8 C19_8 1_555 1_555
C23_8 C20_6 1_555 1_555
H20_6 N4_6 1_555 1_555
C24_8 N4_6 1_555 1_555
C25_8 C21_8 1_555 1_555
C26_8 C22_8 1_555 1_555
C27_8 C23_8 1_555 1_555
C28_8 C24_8 1_555 1_555
H21_8 C25_8 1_555 1_555
C29_8 C25_8 1_555 1_555
C30_8 C26_8 1_555 1_555
H22_8 C26_8 1_555 1_555
C31_8 C27_8 1_555 1_555
H23_8 C27_8 1_555 1_555
H24_8 C28_8 1_555 1_555
C32_8 C28_8 1_555 1_555
C33_8 C29_8 1_555 1_555
H25_8 C30_8 1_555 1_555
H26_8 C31_8 1_555 1_555
C34_8 C32_8 1_555 1_555
O8_8 C33_8 1_555 1_555
O9_8 C34_8 1_555 1_555
O3_4 C4_8 1_555 1_555
O4_3 C5_6 1_555 1_555
O6 C33_8 1_555 1_555
O7_3 C34_8 1_555 1_555
C7_8 N2_8 1_555 1_555
C8_8 N2_8 1_555 1_555
C16_8 C19_8 1_555 1_555
C18_6 C20_6 1_555 1_555
C21_8 C22_8 1_555 1_555
C23_8 C24_8 1_555 1_555
C29_8 C30_8 1_555 1_555
C31_8 C32_8 1_555 1_555
H5_8 C3_8 1_555 1_555
O5_8 H27_8 1_555 1_555
O5_8 H28_8 1_555 1_555
C10_7 C5_7 1_555 1_555
C14_7 C10_7 1_555 1_555
C18_7 C14_7 1_555 1_555
H16_7 C14_7 1_555 1_555
N4_7 C18_7 1_555 1_555
H20_7 N4_7 1_555 1_555
O4_4 C5_7 1_555 1_555
C18_7 C20_7 1_555 1_555
C10_8 C5_8 1_555 1_555
C14_8 C10_8 1_555 1_555
C18_8 C14_8 1_555 1_555
H16_8 C14_8 1_555 1_555
N4_8 C18_8 1_555 1_555
H20_8 N4_8 1_555 1_555
O11_4 C5_8 1_555 1_555
C18_8 C20_8 1_555 1_555

#END
