
###############################################################################
#
# This file contains modified crystal structure data generated from the
# MOF subset of the Cambridge Structural Database (CSD) v543 
# hosted by the Cambridge Crystallographic Data Centre (CCDC).
#
# This work is licensed under the Creative Commons
# Attribution-NonCommercial-ShareAlike 4.0 International License.
# To view a copy of this license, visit
# http://creativecommons.org/licenses/by-nc-sa/4.0/
# or send a letter to
# Creative Commons, PO Box 1866, Mountain View, CA 94042, USA.
#
# CIF created using the CSD Python API on 29 September 2022
# The structure has been converted into the P1 space group
# The structure has a 3D framework
# The original CSD entry WIKGAB is in the monoclinic crystal system
# The framework has been calculated to contain at least 10.0% void space
# The void calculation uses a probe of radius 1.32A, grid spacing 0.4
#
###############################################################################

data_WIKGAB
_chemical_formula_moiety         '(C192 H96 O62 Th8)n'
_symmetry_cell_setting           triclinic
_symmetry_space_group_name_H-M   'P 1'
_symmetry_Int_Tables_number      1
_space_group_name_Hall           'P 1'
loop_
_symmetry_equiv_pos_site_id
_symmetry_equiv_pos_as_xyz
1 x,y,z
_cell_length_a                   17.7915(5)
_cell_length_b                   22.1958(6)
_cell_length_c                   12.5210(4)
_cell_angle_alpha                90
_cell_angle_beta                 108.917(3)
_cell_angle_gamma                90
_cell_volume                     4677.44
loop_
_atom_site_label
_atom_site_type_symbol
_atom_site_fract_x
_atom_site_fract_y
_atom_site_fract_z
O3 O 0.014(2) 0.7479(11) 0.157(3)
O4 O 0.0937(16) 0.7393(10) 0.339(2)
H5 H 0.0294 0.7270 0.4755
C12 C 0.028(3) 0.7426(19) 0.268(4)
Th7 Th 0.19354(4) 0.74966(5) 0.23023(4)
O15 O 0.2948(15) 0.1890(10) 0.712(2)
O16 O 0.4289(13) 0.1830(9) 0.790(2)
C41 C 0.2932(15) 0.0122(9) 0.595(2)
C43 C 0.4323(15) 0.0233(9) 0.619(2)
H22 H 0.4791 0.0078 0.6118
C44 C 0.4315(15) 0.0806(9) 0.663(2)
H23 H 0.4778 0.1035 0.6856
C45 C 0.3616(16) 0.1037(9) 0.673(2)
C46 C 0.2925(15) 0.0695(9) 0.639(2)
H24 H 0.2457 0.0850 0.6464
C48 C 0.363(2) 0.1629(15) 0.731(3)
Th4 Th 0.46587(3) 0.25040(5) 0.95927(4)
Th9 Th 0.19354(4) 0.25034(5) 0.73023(4)
Th1 Th 0.46587(3) 0.74960(5) 0.45927(4)
O1 O 0.6412(17) 0.7488(9) 0.525(2)
O2 O 0.5545(14) 0.7437(8) 0.357(2)
O5 O 0.5294(15) 0.6524(11) 0.513(2)
O6 O 0.6289(16) 0.6550(11) 0.676(2)
O7 O 0.3974(18) 0.3095(11) 0.804(2)
O8 O 0.2828(17) 0.3153(10) 0.661(2)
O9 O 0.2595(16) 0.6918(11) 0.381(2)
O10 O 0.3740(15) 0.6811(11) 0.519(2)
O11 O 0.1320(14) 0.3461(11) 0.676(2)
O12 O 0.0313(16) 0.3479(11) 0.513(2)
O13 O 0.3624(18) 0.8114(12) 0.473(3)
O14 O 0.2368(15) 0.8147(12) 0.394(3)
C1 C 0.7749(10) 0.7361(9) 0.4448(17)
H1 H 0.7854 0.7329 0.5223
C2 C 0.6970(10) 0.7411(9) 0.3732(17)
C3 C 0.6813(10) 0.7459(9) 0.2573(17)
H2 H 0.6291 0.7493 0.2094
C4 C 0.7435(11) 0.7456(9) 0.2130(17)
H3 H 0.7330 0.7488 0.1354
C5 C 0.8214(10) 0.7406(5) 0.2845(17)
C6 C 0.8371(10) 0.7358(5) 0.4004(17)
C7 C 0.9150(10) 0.7307(9) 0.4720(17)
H4 H 0.9255 0.7275 0.5495
C8 C 0.9772(10) 0.7304(9) 0.4277(19)
C9 C 0.9615(11) 0.7352(10) 0.3118(19)
C10 C 0.8836(11) 0.7403(10) 0.2402(18)
H6 H 0.8731 0.7435 0.1627
C11 C 0.628(2) 0.7427(13) 0.422(4)
C13 C 0.4757(14) 0.5389(8) 0.5591(18)
H7 H 0.4493 0.5552 0.4884
C14 C 0.5441(14) 0.5664(8) 0.629(2)
C15 C 0.5836(12) 0.5420(9) 0.7350(19)
H8 H 0.6293 0.5604 0.7821
C16 C 0.5547(12) 0.4900(9) 0.7702(16)
H9 H 0.5811 0.4737 0.8408
C17 C 0.4864(11) 0.4625(7) 0.6998(15)
C18 C 0.4469(11) 0.4870(7) 0.5943(15)
C19 C 0.3786(12) 0.4595(9) 0.5239(17)
H10 H 0.3522 0.4758 0.4533
C20 C 0.3497(13) 0.4076(10) 0.559(2)
H11 H 0.3040 0.3892 0.5120
C21 C 0.3892(14) 0.3831(9) 0.665(2)
C22 C 0.4575(14) 0.4106(8) 0.7350(18)
H12 H 0.4839 0.3943 0.8056
C23 C 0.566(2) 0.6311(13) 0.596(3)
C24 C 0.355(2) 0.3345(17) 0.714(3)
C25 C 0.1948(14) 0.5920(8) 0.4562(19)
H13 H 0.1666 0.6098 0.3877
C26 C 0.2654(14) 0.6176(8) 0.524(2)
C27 C 0.3076(13) 0.5909(9) 0.626(2)
H14 H 0.3548 0.6081 0.6719
C28 C 0.2791(13) 0.5386(9) 0.6608(18)
H15 H 0.3073 0.5207 0.7293
C29 C 0.2085(11) 0.5130(6) 0.5929(15)
C30 C 0.1664(11) 0.5397(6) 0.4906(15)
C31 C 0.0958(12) 0.5140(9) 0.4226(17)
H16 H 0.0676 0.5319 0.3542
C32 C 0.0673(12) 0.4617(9) 0.457(2)
H17 H 0.0201 0.4445 0.4116
C33 C 0.1095(14) 0.4350(8) 0.559(2)
C34 C 0.1801(14) 0.4606(8) 0.6273(19)
H18 H 0.2083 0.4428 0.6958
C35 C 0.305(2) 0.6673(18) 0.472(3)
C36 C 0.087(2) 0.3750(14) 0.577(3)
C37 C 0.3639(15) 0.9317(9) 0.541(2)
H19 H 0.4107 0.9162 0.5337
C38 C 0.2947(15) 0.8975(9) 0.507(2)
C39 C 0.2248(15) 0.9206(9) 0.517(2)
H20 H 0.1786 0.8977 0.4944
C40 C 0.2241(15) 0.9780(9) 0.561(2)
H21 H 0.1773 0.9934 0.5683
C42 C 0.3631(15) 0.9890(9) 0.585(2)
C47 C 0.298(3) 0.838(2) 0.460(4)
Th10 Th 0.69354(4) 0.75034(5) 0.73023(4)
O17 O 0.1412(17) 0.7512(9) 0.025(2)
O18 O 0.514(2) 0.7521(11) 0.657(3)
O20 O 0.1289(16) 0.8450(11) 0.176(2)
O21 O 0.3974(18) 0.6905(11) 0.304(2)
O22 O 0.2828(17) 0.6847(10) 0.161(2)
O23 O 0.1320(14) 0.6539(11) 0.176(2)
O24 O 0.5313(16) 0.8479(11) 0.513(2)
O25 O 0.2948(15) 0.8110(10) 0.212(2)
O26 O 0.4289(13) 0.8170(9) 0.290(2)
Th6 Th 0.96587(3) 0.75040(5) 0.95927(4)
Th5 Th 0.96587(3) 0.24960(5) 0.45927(4)
O3_2 O 0.014(2) 0.2521(11) 0.657(3)
O4_2 O 0.0937(16) 0.2607(10) 0.839(2)
H5_2 H 0.0294 0.2730 0.9755
C12_2 C 0.028(3) 0.2574(19) 0.768(4)
O1_2 O 0.6412(17) 0.2512(9) 0.025(2)
O5_2 O 0.5294(15) 0.3476(11) 0.013(2)
O6_2 O 0.6289(16) 0.3450(11) 0.176(2)
O10_2 O 0.3740(15) 0.3189(11) 0.019(2)
O12_2 O 0.0313(16) 0.6521(11) 0.013(2)
H1_2 H 0.7854 0.2671 0.0223
H4_2 H 0.9255 0.2725 0.0495
C13_2 C 0.4757(14) 0.4611(8) 0.0591(18)
C14_2 C 0.5441(14) 0.4336(8) 0.129(2)
C15_2 C 0.5836(12) 0.4580(9) 0.2350(19)
H8_2 H 0.6293 0.4396 0.2821
C16_2 C 0.5547(12) 0.5100(9) 0.2702(16)
H9_2 H 0.5811 0.5263 0.3408
C17_2 C 0.4864(11) 0.5375(7) 0.1998(15)
C18_2 C 0.4469(11) 0.5130(7) 0.0943(15)
C19_2 C 0.3786(12) 0.5405(9) 0.0239(17)
C20_2 C 0.3497(13) 0.5924(10) 0.059(2)
H11_2 H 0.3040 0.6108 0.0120
C21_2 C 0.3892(14) 0.6169(9) 0.165(2)
C22_2 C 0.4575(14) 0.5894(8) 0.2350(18)
H12_2 H 0.4839 0.6057 0.3056
C23_2 C 0.566(2) 0.3689(13) 0.096(3)
C24_2 C 0.355(2) 0.6655(17) 0.214(3)
C26_2 C 0.2654(14) 0.3824(8) 0.024(2)
C27_2 C 0.3076(13) 0.4091(9) 0.126(2)
H14_2 H 0.3548 0.3919 0.1719
C28_2 C 0.2791(13) 0.4614(9) 0.1608(18)
H15_2 H 0.3073 0.4793 0.2293
C29_2 C 0.2085(11) 0.4870(6) 0.0929(15)
C33_2 C 0.1095(14) 0.5650(8) 0.059(2)
C34_2 C 0.1801(14) 0.5394(8) 0.1273(19)
H18_2 H 0.2083 0.5572 0.1958
C36_2 C 0.087(2) 0.6250(14) 0.077(3)
C37_2 C 0.3639(15) 0.0683(9) 0.041(2)
H19_2 H 0.4107 0.0838 0.0337
C38_2 C 0.2947(15) 0.1025(9) 0.007(2)
C39_2 C 0.2248(15) 0.0794(9) 0.017(2)
C40_2 C 0.2241(15) 0.0220(9) 0.061(2)
H21_2 H 0.1773 0.0066 0.0683
C42_2 C 0.3631(15) 0.0110(9) 0.085(2)
Th10_2 Th 0.69354(4) 0.24966(5) 0.23023(4)
O18_2 O 0.514(2) 0.2479(11) 0.157(3)
O24_2 O 0.5313(16) 0.1521(11) 0.013(2)
O2_2 O 0.5545(14) 0.2563(8) 0.857(2)
O9_2 O 0.2595(16) 0.3082(11) 0.881(2)
O13_2 O 0.3624(18) 0.1886(12) 0.973(3)
O14_2 O 0.2368(15) 0.1853(12) 0.894(3)
C1_2 C 0.7749(10) 0.2639(9) 0.9448(17)
C2_2 C 0.6970(10) 0.2589(9) 0.8732(17)
C3_2 C 0.6813(10) 0.2541(9) 0.7573(17)
H2_2 H 0.6291 0.2507 0.7094
C4_2 C 0.7435(11) 0.2544(9) 0.7130(17)
H3_2 H 0.7330 0.2512 0.6354
C5_2 C 0.8214(10) 0.2594(5) 0.7845(17)
C6_2 C 0.8371(10) 0.2642(5) 0.9004(17)
C7_2 C 0.9150(10) 0.2693(9) 0.9720(17)
C8_2 C 0.9772(10) 0.2696(9) 0.9277(19)
C9_2 C 0.9615(11) 0.2648(10) 0.8118(19)
C10_2 C 0.8836(11) 0.2597(10) 0.7402(18)
H6_2 H 0.8731 0.2565 0.6627
C11_2 C 0.628(2) 0.2573(13) 0.922(4)
H7_2 H 0.4493 0.4448 0.9884
H10_2 H 0.3522 0.5242 0.9533
C25_2 C 0.1948(14) 0.4080(8) 0.9562(19)
H13_2 H 0.1666 0.3902 0.8877
C30_2 C 0.1664(11) 0.4603(6) 0.9906(15)
C31_2 C 0.0958(12) 0.4860(9) 0.9226(17)
H16_2 H 0.0676 0.4681 0.8542
C32_2 C 0.0673(12) 0.5383(9) 0.957(2)
H17_2 H 0.0201 0.5555 0.9116
C35_2 C 0.305(2) 0.3327(18) 0.972(3)
H20_2 H 0.1786 0.1023 0.9944
C47_2 C 0.298(3) 0.162(2) 0.960(4)
O17_2 O 0.1412(17) 0.2488(9) 0.525(2)
O20_2 O 0.1289(16) 0.1550(11) 0.676(2)
C41_2 C 0.2932(15) 0.9878(9) 0.095(2)
C43_2 C 0.4323(15) 0.9767(9) 0.119(2)
H22_2 H 0.4791 0.9922 0.1118
C44_2 C 0.4315(15) 0.9194(9) 0.163(2)
H23_2 H 0.4778 0.8965 0.1856
C45_2 C 0.3616(16) 0.8963(9) 0.173(2)
C46_2 C 0.2925(15) 0.9305(9) 0.139(2)
H24_2 H 0.2457 0.9150 0.1464
C48_2 C 0.363(2) 0.8371(15) 0.231(3)
O2_3 O 0.0545(14) 0.2437(8) 0.357(2)
O4_3 O 0.5937(16) 0.2393(10) 0.339(2)
O5_3 O 0.0294(15) 0.1524(11) 0.513(2)
C1_3 C 0.2749(10) 0.2361(9) 0.4448(17)
H1_3 H 0.2854 0.2329 0.5223
C2_3 C 0.1970(10) 0.2411(9) 0.3732(17)
C3_3 C 0.1813(10) 0.2459(9) 0.2573(17)
H2_3 H 0.1291 0.2493 0.2094
C4_3 C 0.2435(11) 0.2456(9) 0.2130(17)
H3_3 H 0.2330 0.2488 0.1354
C5_3 C 0.3214(10) 0.2406(5) 0.2845(17)
C6_3 C 0.3371(10) 0.2358(5) 0.4004(17)
C7_3 C 0.4150(10) 0.2307(9) 0.4720(17)
H4_3 H 0.4255 0.2275 0.5495
C8_3 C 0.4772(10) 0.2304(9) 0.4277(19)
H5_3 H 0.5294 0.2270 0.4755
C9_3 C 0.4615(11) 0.2352(10) 0.3118(19)
C10_3 C 0.3836(11) 0.2403(10) 0.2402(18)
H6_3 H 0.3731 0.2435 0.1627
C11_3 C 0.128(2) 0.2427(13) 0.422(4)
C12_3 C 0.528(3) 0.2426(19) 0.268(4)
C14_3 C 0.0441(14) 0.0664(8) 0.629(2)
C15_3 C 0.0836(12) 0.0420(9) 0.7350(19)
H8_3 H 0.1293 0.0604 0.7821
C23_3 C 0.066(2) 0.1311(13) 0.596(3)
O9_3 O 0.7595(16) 0.1918(11) 0.381(2)
O10_3 O 0.8740(15) 0.1811(11) 0.519(2)
O13_3 O 0.8624(18) 0.3114(12) 0.473(3)
O14_3 O 0.7368(15) 0.3147(12) 0.394(3)
O15_2 O 0.7948(15) 0.6890(10) 0.712(2)
O16_2 O 0.9289(13) 0.6830(9) 0.790(2)
C13_3 C 0.9757(14) 0.0389(8) 0.5591(18)
H7_3 H 0.9493 0.0552 0.4884
C25_3 C 0.6948(14) 0.0920(8) 0.4562(19)
H13_3 H 0.6666 0.1098 0.3877
C26_3 C 0.7654(14) 0.1176(8) 0.524(2)
C27_3 C 0.8076(13) 0.0909(9) 0.626(2)
H14_3 H 0.8548 0.1081 0.6719
C28_3 C 0.7791(13) 0.0386(9) 0.6608(18)
H15_3 H 0.8073 0.0207 0.7293
C29_3 C 0.7085(11) 0.0130(6) 0.5929(15)
C30_3 C 0.6664(11) 0.0397(6) 0.4906(15)
C31_3 C 0.5958(12) 0.0140(9) 0.4226(17)
H16_3 H 0.5676 0.0319 0.3542
C35_3 C 0.805(2) 0.1673(18) 0.472(3)
C37_3 C 0.8639(15) 0.4317(9) 0.541(2)
H19_3 H 0.9107 0.4162 0.5337
C38_3 C 0.7947(15) 0.3975(9) 0.507(2)
C39_3 C 0.7248(15) 0.4206(9) 0.517(2)
H20_3 H 0.6786 0.3977 0.4944
C40_3 C 0.7241(15) 0.4780(9) 0.561(2)
H21_3 H 0.6773 0.4934 0.5683
C41_3 C 0.7932(15) 0.5122(9) 0.595(2)
C42_3 C 0.8631(15) 0.4890(9) 0.585(2)
C43_3 C 0.9323(15) 0.5233(9) 0.619(2)
H22_3 H 0.9791 0.5078 0.6118
C44_3 C 0.9315(15) 0.5806(9) 0.663(2)
H23_3 H 0.9778 0.6035 0.6856
C45_3 C 0.8616(16) 0.6037(9) 0.673(2)
C46_3 C 0.7925(15) 0.5695(9) 0.639(2)
H24_3 H 0.7457 0.5850 0.6464
C47_3 C 0.798(3) 0.338(2) 0.460(4)
C48_3 C 0.863(2) 0.6629(15) 0.731(3)
O21_2 O 0.8974(18) 0.1905(11) 0.304(2)
O22_2 O 0.7828(17) 0.1847(10) 0.161(2)
O23_2 O 0.6320(14) 0.1539(11) 0.176(2)
O25_2 O 0.7948(15) 0.3110(10) 0.212(2)
O26_2 O 0.9289(13) 0.3170(9) 0.290(2)
O7_2 O 0.8974(18) 0.8095(11) 0.804(2)
O8_2 O 0.7828(17) 0.8153(10) 0.661(2)
O11_2 O 0.6320(14) 0.8461(11) 0.676(2)
C17_3 C 0.9864(11) 0.9625(7) 0.6998(15)
C18_3 C 0.9469(11) 0.9870(7) 0.5943(15)
C19_3 C 0.8786(12) 0.9595(9) 0.5239(17)
H10_3 H 0.8522 0.9758 0.4533
C20_3 C 0.8497(13) 0.9076(10) 0.559(2)
H11_3 H 0.8040 0.8892 0.5120
C21_3 C 0.8892(14) 0.8831(9) 0.665(2)
C22_3 C 0.9575(14) 0.9106(8) 0.7350(18)
H12_3 H 0.9839 0.8943 0.8056
C24_3 C 0.855(2) 0.8345(17) 0.714(3)
C32_3 C 0.5673(12) 0.9617(9) 0.457(2)
H17_3 H 0.5201 0.9445 0.4116
C33_3 C 0.6095(14) 0.9350(8) 0.559(2)
C34_3 C 0.6801(14) 0.9606(8) 0.6273(19)
H18_3 H 0.7083 0.9428 0.6958
C36_3 C 0.587(2) 0.8750(14) 0.577(3)
O5_4 O 0.0294(15) 0.8476(11) 0.013(2)
H1_4 H 0.2854 0.7671 0.0223
H4_4 H 0.4255 0.7725 0.0495
C14_4 C 0.0441(14) 0.9336(8) 0.129(2)
C15_4 C 0.0836(12) 0.9580(9) 0.2350(19)
H8_4 H 0.1293 0.9396 0.2821
C23_4 C 0.066(2) 0.8689(13) 0.096(3)
O2_4 O 0.0545(14) 0.7563(8) 0.857(2)
O4_4 O 0.5937(16) 0.7607(10) 0.839(2)
C1_4 C 0.2749(10) 0.7639(9) 0.9448(17)
C2_4 C 0.1970(10) 0.7589(9) 0.8732(17)
C3_4 C 0.1813(10) 0.7541(9) 0.7573(17)
H2_4 H 0.1291 0.7507 0.7094
C4_4 C 0.2435(11) 0.7544(9) 0.7130(17)
H3_4 H 0.2330 0.7512 0.6354
C5_4 C 0.3214(10) 0.7594(5) 0.7845(17)
C6_4 C 0.3371(10) 0.7642(5) 0.9004(17)
C7_4 C 0.4150(10) 0.7693(9) 0.9720(17)
C8_4 C 0.4772(10) 0.7696(9) 0.9277(19)
H5_4 H 0.5294 0.7730 0.9755
C9_4 C 0.4615(11) 0.7648(10) 0.8118(19)
C10_4 C 0.3836(11) 0.7597(10) 0.7402(18)
H6_4 H 0.3731 0.7565 0.6627
C11_4 C 0.128(2) 0.7573(13) 0.922(4)
C12_4 C 0.528(3) 0.7574(19) 0.768(4)
C17_4 C 0.9864(11) 0.0375(7) 0.1998(15)
C18_4 C 0.9469(11) 0.0130(7) 0.0943(15)
C19_4 C 0.8786(12) 0.0405(9) 0.0239(17)
C20_4 C 0.8497(13) 0.0924(10) 0.059(2)
H11_4 H 0.8040 0.1108 0.0120
C21_4 C 0.8892(14) 0.1169(9) 0.165(2)
C22_4 C 0.9575(14) 0.0894(8) 0.2350(18)
H12_4 H 0.9839 0.1057 0.3056
C24_4 C 0.855(2) 0.1655(17) 0.214(3)
C33_4 C 0.6095(14) 0.0650(8) 0.059(2)
C34_4 C 0.6801(14) 0.0394(8) 0.1273(19)
H18_4 H 0.7083 0.0572 0.1958
C36_4 C 0.587(2) 0.1250(14) 0.077(3)
H10_4 H 0.8522 0.0242 0.9533
C32_4 C 0.5673(12) 0.0383(9) 0.957(2)
H17_4 H 0.5201 0.0555 0.9116
O10_4 O 0.8740(15) 0.8189(11) 0.019(2)
C13_4 C 0.9757(14) 0.9611(8) 0.0591(18)
C26_4 C 0.7654(14) 0.8824(8) 0.024(2)
C27_4 C 0.8076(13) 0.9091(9) 0.126(2)
H14_4 H 0.8548 0.8919 0.1719
C28_4 C 0.7791(13) 0.9614(9) 0.1608(18)
H15_4 H 0.8073 0.9793 0.2293
C29_4 C 0.7085(11) 0.9870(6) 0.0929(15)
C37_4 C 0.8639(15) 0.5683(9) 0.041(2)
H19_4 H 0.9107 0.5838 0.0337
C38_4 C 0.7947(15) 0.6025(9) 0.007(2)
C39_4 C 0.7248(15) 0.5794(9) 0.017(2)
C40_4 C 0.7241(15) 0.5220(9) 0.061(2)
H21_4 H 0.6773 0.5066 0.0683
C41_4 C 0.7932(15) 0.4878(9) 0.095(2)
C42_4 C 0.8631(15) 0.5110(9) 0.085(2)
C43_4 C 0.9323(15) 0.4767(9) 0.119(2)
H22_4 H 0.9791 0.4922 0.1118
C44_4 C 0.9315(15) 0.4194(9) 0.163(2)
H23_4 H 0.9778 0.3965 0.1856
C45_4 C 0.8616(16) 0.3963(9) 0.173(2)
C46_4 C 0.7925(15) 0.4305(9) 0.139(2)
H24_4 H 0.7457 0.4150 0.1464
C48_4 C 0.863(2) 0.3371(15) 0.231(3)
O9_4 O 0.7595(16) 0.8082(11) 0.881(2)
O13_4 O 0.8624(18) 0.6886(12) 0.973(3)
O14_4 O 0.7368(15) 0.6853(12) 0.894(3)
H7_4 H 0.9493 0.9448 0.9884
C25_4 C 0.6948(14) 0.9080(8) 0.9562(19)
H13_4 H 0.6666 0.8902 0.8877
C30_4 C 0.6664(11) 0.9603(6) 0.9906(15)
C31_4 C 0.5958(12) 0.9860(9) 0.9226(17)
H16_4 H 0.5676 0.9681 0.8542
C35_4 C 0.805(2) 0.8327(18) 0.972(3)
H20_4 H 0.6786 0.6023 0.9944
C47_4 C 0.798(3) 0.662(2) 0.960(4)
C16_3 C 0.0547(12) 0.9900(9) 0.7702(16)
H9_3 H 0.0811 0.9737 0.8408
C16_4 C 0.0547(12) 0.0100(9) 0.2702(16)
H9_4 H 0.0811 0.0263 0.3408
loop_
_geom_bond_atom_site_label_1
_geom_bond_atom_site_label_2
_geom_bond_site_symmetry_1
_geom_bond_site_symmetry_2
O3 C12 1_555 1_555
O4 C12 1_555 1_555
Th7 O4 1_555 1_555
O15 C48 1_555 1_555
O16 C48 1_555 1_555
H22 C43 1_555 1_555
C44 C43 1_555 1_555
H23 C44 1_555 1_555
C45 C44 1_555 1_555
C46 C41 1_555 1_555
H24 C46 1_555 1_555
C48 C45 1_555 1_555
Th4 O16 1_555 1_555
Th9 O15 1_555 1_555
C45 C46 1_555 1_555
Th1 O2 1_555 1_555
Th7 O9 1_555 1_555
O1 C11 1_555 1_555
O2 C11 1_555 1_555
O5 Th1 1_555 1_555
O6 C23 1_555 1_555
O7 C24 1_555 1_555
O8 C24 1_555 1_555
O9 C35 1_555 1_555
O10 Th1 1_555 1_555
O11 C36 1_555 1_555
O12 C36 1_555 1_555
O13 Th1 1_555 1_555
O14 Th7 1_555 1_555
C1 H1 1_555 1_555
C2 C1 1_555 1_555
C3 C2 1_555 1_555
H2 C3 1_555 1_555
C4 C3 1_555 1_555
H3 C4 1_555 1_555
C5 C4 1_555 1_555
C6 C1 1_555 1_555
C7 C6 1_555 1_555
H4 C7 1_555 1_555
C8 C7 1_555 1_555
C9 C8 1_555 1_555
C10 C5 1_555 1_555
H6 C10 1_555 1_555
C11 C2 1_555 1_555
C13 H7 1_555 1_555
C14 C13 1_555 1_555
C15 C14 1_555 1_555
H8 C15 1_555 1_555
C16 C15 1_555 1_555
H9 C16 1_555 1_555
C17 C16 1_555 1_555
C18 C13 1_555 1_555
C19 C18 1_555 1_555
H10 C19 1_555 1_555
C20 C19 1_555 1_555
H11 C20 1_555 1_555
C21 C20 1_555 1_555
C22 C17 1_555 1_555
H12 C22 1_555 1_555
C23 O5 1_555 1_555
C24 C21 1_555 1_555
C25 H13 1_555 1_555
C26 C25 1_555 1_555
C27 C26 1_555 1_555
H14 C27 1_555 1_555
C28 C27 1_555 1_555
H15 C28 1_555 1_555
C29 C28 1_555 1_555
C30 C25 1_555 1_555
C31 C30 1_555 1_555
H16 C31 1_555 1_555
C32 C31 1_555 1_555
H17 C32 1_555 1_555
C33 C32 1_555 1_555
C34 C29 1_555 1_555
H18 C34 1_555 1_555
C35 O10 1_555 1_555
C36 C33 1_555 1_555
C37 H19 1_555 1_555
C38 C37 1_555 1_555
C39 C38 1_555 1_555
H20 C39 1_555 1_555
C40 C39 1_555 1_555
H21 C40 1_555 1_555
C42 C37 1_555 1_555
C47 O13 1_555 1_555
Th4 O7 1_555 1_555
Th9 O8 1_555 1_555
Th10 O1 1_555 1_555
O17 Th7 1_555 1_555
O18 Th1 1_555 1_555
O20 Th7 1_555 1_555
O21 Th1 1_555 1_555
O22 Th7 1_555 1_555
O23 Th7 1_555 1_555
O24 Th1 1_555 1_555
O25 Th7 1_555 1_555
O26 Th1 1_555 1_555
O6 Th10 1_555 1_555
O11 Th9 1_555 1_555
O14 C47 1_555 1_555
C5 C6 1_555 1_555
C9 C10 1_555 1_555
C14 C23 1_555 1_555
C17 C18 1_555 1_555
C21 C22 1_555 1_555
C26 C35 1_555 1_555
C29 C30 1_555 1_555
C33 C34 1_555 1_555
C38 C47 1_555 1_555
O3_2 C12_2 1_555 1_555
O4_2 C12_2 1_555 1_555
Th9 O4_2 1_555 1_555
O6_2 C23_2 1_555 1_555
O21 C24_2 1_555 1_555
O22 C24_2 1_555 1_555
O23 C36_2 1_555 1_555
O12_2 C36_2 1_555 1_555
C14_2 C13_2 1_555 1_555
C15_2 C14_2 1_555 1_555
H8_2 C15_2 1_555 1_555
C16_2 C15_2 1_555 1_555
H9_2 C16_2 1_555 1_555
C17_2 C16_2 1_555 1_555
C18_2 C13_2 1_555 1_555
C19_2 C18_2 1_555 1_555
C20_2 C19_2 1_555 1_555
H11_2 C20_2 1_555 1_555
C21_2 C20_2 1_555 1_555
C22_2 C17_2 1_555 1_555
H12_2 C22_2 1_555 1_555
C23_2 O5_2 1_555 1_555
C24_2 C21_2 1_555 1_555
C27_2 C26_2 1_555 1_555
H14_2 C27_2 1_555 1_555
C28_2 C27_2 1_555 1_555
H15_2 C28_2 1_555 1_555
C29_2 C28_2 1_555 1_555
C34_2 C29_2 1_555 1_555
H18_2 C34_2 1_555 1_555
C36_2 C33_2 1_555 1_555
C37_2 H19_2 1_555 1_555
C38_2 C37_2 1_555 1_555
C39_2 C38_2 1_555 1_555
C40_2 C39_2 1_555 1_555
H21_2 C40_2 1_555 1_555
C42_2 C37_2 1_555 1_555
Th10_2 O1_2 1_555 1_555
O6_2 Th10_2 1_555 1_555
C14_2 C23_2 1_555 1_555
C17_2 C18_2 1_555 1_555
C21_2 C22_2 1_555 1_555
C33_2 C34_2 1_555 1_555
Th4 O2_2 1_555 1_555
Th9 O9_2 1_555 1_555
O2_2 C11_2 1_555 1_555
O9_2 C35_2 1_555 1_555
O13_2 Th4 1_555 1_555
O14_2 Th9 1_555 1_555
C2_2 C1_2 1_555 1_555
C3_2 C2_2 1_555 1_555
H2_2 C3_2 1_555 1_555
C4_2 C3_2 1_555 1_555
H3_2 C4_2 1_555 1_555
C5_2 C4_2 1_555 1_555
C6_2 C1_2 1_555 1_555
C7_2 C6_2 1_555 1_555
C8_2 C7_2 1_555 1_555
C9_2 C8_2 1_555 1_555
C10_2 C5_2 1_555 1_555
H6_2 C10_2 1_555 1_555
C11_2 C2_2 1_555 1_555
C25_2 H13_2 1_555 1_555
C30_2 C25_2 1_555 1_555
C31_2 C30_2 1_555 1_555
H16_2 C31_2 1_555 1_555
C32_2 C31_2 1_555 1_555
H17_2 C32_2 1_555 1_555
C47_2 O13_2 1_555 1_555
O17_2 Th9 1_555 1_555
O20_2 Th9 1_555 1_555
O14_2 C47_2 1_555 1_555
C5_2 C6_2 1_555 1_555
C9_2 C10_2 1_555 1_555
O25 C48_2 1_555 1_555
O26 C48_2 1_555 1_555
H22_2 C43_2 1_555 1_555
C44_2 C43_2 1_555 1_555
H23_2 C44_2 1_555 1_555
C45_2 C44_2 1_555 1_555
C46_2 C41_2 1_555 1_555
H24_2 C46_2 1_555 1_555
C48_2 C45_2 1_555 1_555
C45_2 C46_2 1_555 1_555
O17_2 C11_3 1_555 1_555
O2_3 C11_3 1_555 1_555
O18_2 C12_3 1_555 1_555
O4_3 C12_3 1_555 1_555
O20_2 C23_3 1_555 1_555
C1_3 H1_3 1_555 1_555
C2_3 C1_3 1_555 1_555
C3_3 C2_3 1_555 1_555
H2_3 C3_3 1_555 1_555
C4_3 C3_3 1_555 1_555
H3_3 C4_3 1_555 1_555
C5_3 C4_3 1_555 1_555
C6_3 C1_3 1_555 1_555
C7_3 C6_3 1_555 1_555
H4_3 C7_3 1_555 1_555
C8_3 C7_3 1_555 1_555
H5_3 C8_3 1_555 1_555
C9_3 C8_3 1_555 1_555
C10_3 C5_3 1_555 1_555
H6_3 C10_3 1_555 1_555
C11_3 C2_3 1_555 1_555
C12_3 C9_3 1_555 1_555
C15_3 C14_3 1_555 1_555
H8_3 C15_3 1_555 1_555
C23_3 O5_3 1_555 1_555
Th10_2 O4_3 1_555 1_555
C5_3 C6_3 1_555 1_555
C9_3 C10_3 1_555 1_555
C14_3 C23_3 1_555 1_555
Th10_2 O9_3 1_555 1_555
O9_3 C35_3 1_555 1_555
O10_3 Th5 1_555 1_555
O13_3 Th5 1_555 1_555
O14_3 Th10_2 1_555 1_555
O15_2 C48_3 1_555 1_555
O16_2 C48_3 1_555 1_555
C13_3 H7_3 1_555 1_555
C25_3 H13_3 1_555 1_555
C26_3 C25_3 1_555 1_555
C27_3 C26_3 1_555 1_555
H14_3 C27_3 1_555 1_555
C28_3 C27_3 1_555 1_555
H15_3 C28_3 1_555 1_555
C29_3 C28_3 1_555 1_555
C30_3 C25_3 1_555 1_555
C31_3 C30_3 1_555 1_555
H16_3 C31_3 1_555 1_555
C35_3 O10_3 1_555 1_555
C37_3 H19_3 1_555 1_555
C38_3 C37_3 1_555 1_555
C39_3 C38_3 1_555 1_555
H20_3 C39_3 1_555 1_555
C40_3 C39_3 1_555 1_555
H21_3 C40_3 1_555 1_555
C41_3 C40_3 1_555 1_555
C42_3 C37_3 1_555 1_555
C43_3 C42_3 1_555 1_555
H22_3 C43_3 1_555 1_555
C44_3 C43_3 1_555 1_555
H23_3 C44_3 1_555 1_555
C45_3 C44_3 1_555 1_555
C46_3 C41_3 1_555 1_555
H24_3 C46_3 1_555 1_555
C47_3 O13_3 1_555 1_555
C48_3 C45_3 1_555 1_555
Th6 O16_2 1_555 1_555
Th10 O15_2 1_555 1_555
O21_2 Th5 1_555 1_555
O22_2 Th10_2 1_555 1_555
O23_2 Th10_2 1_555 1_555
O25_2 Th10_2 1_555 1_555
O26_2 Th5 1_555 1_555
O14_3 C47_3 1_555 1_555
C26_3 C35_3 1_555 1_555
C29_3 C30_3 1_555 1_555
C38_3 C47_3 1_555 1_555
C41_3 C42_3 1_555 1_555
C45_3 C46_3 1_555 1_555
O7_2 C24_3 1_555 1_555
O8_2 C24_3 1_555 1_555
O11_2 C36_3 1_555 1_555
O24 C36_3 1_555 1_555
C19_3 C18_3 1_555 1_555
H10_3 C19_3 1_555 1_555
C20_3 C19_3 1_555 1_555
H11_3 C20_3 1_555 1_555
C21_3 C20_3 1_555 1_555
C22_3 C17_3 1_555 1_555
H12_3 C22_3 1_555 1_555
C24_3 C21_3 1_555 1_555
H17_3 C32_3 1_555 1_555
C33_3 C32_3 1_555 1_555
H18_3 C34_3 1_555 1_555
C36_3 C33_3 1_555 1_555
Th6 O7_2 1_555 1_555
Th10 O8_2 1_555 1_555
O11_2 Th10 1_555 1_555
C17_3 C18_3 1_555 1_555
C21_3 C22_3 1_555 1_555
C33_3 C34_3 1_555 1_555
O20 C23_4 1_555 1_555
C15_4 C14_4 1_555 1_555
H8_4 C15_4 1_555 1_555
C23_4 O5_4 1_555 1_555
C14_4 C23_4 1_555 1_555
O2_4 C11_4 1_555 1_555
O18 C12_4 1_555 1_555
O4_4 C12_4 1_555 1_555
C2_4 C1_4 1_555 1_555
C3_4 C2_4 1_555 1_555
H2_4 C3_4 1_555 1_555
C4_4 C3_4 1_555 1_555
H3_4 C4_4 1_555 1_555
C5_4 C4_4 1_555 1_555
C6_4 C1_4 1_555 1_555
C7_4 C6_4 1_555 1_555
C8_4 C7_4 1_555 1_555
H5_4 C8_4 1_555 1_555
C9_4 C8_4 1_555 1_555
C10_4 C5_4 1_555 1_555
H6_4 C10_4 1_555 1_555
C11_4 C2_4 1_555 1_555
C12_4 C9_4 1_555 1_555
Th10 O4_4 1_555 1_555
C5_4 C6_4 1_555 1_555
C9_4 C10_4 1_555 1_555
O21_2 C24_4 1_555 1_555
O22_2 C24_4 1_555 1_555
O23_2 C36_4 1_555 1_555
O24_2 C36_4 1_555 1_555
C19_4 C18_4 1_555 1_555
C20_4 C19_4 1_555 1_555
H11_4 C20_4 1_555 1_555
C21_4 C20_4 1_555 1_555
C22_4 C17_4 1_555 1_555
H12_4 C22_4 1_555 1_555
C24_4 C21_4 1_555 1_555
H18_4 C34_4 1_555 1_555
C36_4 C33_4 1_555 1_555
C17_4 C18_4 1_555 1_555
C21_4 C22_4 1_555 1_555
C33_4 C34_4 1_555 1_555
H17_4 C32_4 1_555 1_555
O25_2 C48_4 1_555 1_555
O26_2 C48_4 1_555 1_555
C27_4 C26_4 1_555 1_555
H14_4 C27_4 1_555 1_555
C28_4 C27_4 1_555 1_555
H15_4 C28_4 1_555 1_555
C29_4 C28_4 1_555 1_555
C37_4 H19_4 1_555 1_555
C38_4 C37_4 1_555 1_555
C39_4 C38_4 1_555 1_555
C40_4 C39_4 1_555 1_555
H21_4 C40_4 1_555 1_555
C41_4 C40_4 1_555 1_555
C42_4 C37_4 1_555 1_555
C43_4 C42_4 1_555 1_555
H22_4 C43_4 1_555 1_555
C44_4 C43_4 1_555 1_555
H23_4 C44_4 1_555 1_555
C45_4 C44_4 1_555 1_555
C46_4 C41_4 1_555 1_555
H24_4 C46_4 1_555 1_555
C48_4 C45_4 1_555 1_555
C41_4 C42_4 1_555 1_555
C45_4 C46_4 1_555 1_555
Th10 O9_4 1_555 1_555
O9_4 C35_4 1_555 1_555
O13_4 Th6 1_555 1_555
O14_4 Th10 1_555 1_555
C25_4 H13_4 1_555 1_555
C30_4 C25_4 1_555 1_555
C31_4 C30_4 1_555 1_555
H16_4 C31_4 1_555 1_555
C47_4 O13_4 1_555 1_555
O14_4 C47_4 1_555 1_555
H9_3 C16_3 1_555 1_555
H9_4 C16_4 1_555 1_555

#END
