
###############################################################################
#
# This file contains modified crystal structure data generated from the
# MOF subset of the Cambridge Structural Database (CSD) v543 
# hosted by the Cambridge Crystallographic Data Centre (CCDC).
#
# This work is licensed under the Creative Commons
# Attribution-NonCommercial-ShareAlike 4.0 International License.
# To view a copy of this license, visit
# http://creativecommons.org/licenses/by-nc-sa/4.0/
# or send a letter to
# Creative Commons, PO Box 1866, Mountain View, CA 94042, USA.
#
# CIF created using the CSD Python API on 29 September 2022
# The structure has been converted into the P1 space group
# The structure has a 3D framework
# The original CSD entry WIKGUV is in the rhombohedral crystal system
# The original CSD entry WIKGUV is in a Sohncke space group
# The framework has been calculated to contain at least 10.0% void space
# The void calculation uses a probe of radius 1.32A, grid spacing 0.4
#
###############################################################################

data_WIKGUV
_chemical_formula_moiety         '(C396 H396 N106 O77 Zn48)n'
_symmetry_cell_setting           triclinic
_symmetry_space_group_name_H-M   'P 1'
_symmetry_Int_Tables_number      1
_space_group_name_Hall           'P 1'
loop_
_symmetry_equiv_pos_site_id
_symmetry_equiv_pos_as_xyz
1 x,y,z
_cell_length_a                   21.407(4)
_cell_length_b                   21.407(4)
_cell_length_c                   29.254(6)
_cell_angle_alpha                90
_cell_angle_beta                 90
_cell_angle_gamma                120
_cell_volume                     11609.9
loop_
_atom_site_label
_atom_site_type_symbol
_atom_site_fract_x
_atom_site_fract_y
_atom_site_fract_z
Zn2 Zn -0.0000 -0.0000 0.54934(6)
O9 O -0.0000 -0.0000 0.4822(3)
Zn15 Zn 0.08019(3) 0.08665(5) 0.45824(5)
O28 O 0.0835(3) 0.0894(4) 0.57250(19)
Zn1 Zn 0.00646(4) 0.91981(3) 0.45824(5)
Zn2_2 Zn -0.0000 1.0000 0.54934(6)
O5 O 0.0185(3) 0.8677(3) 0.50904(19)
O6 O 0.0059(3) 0.9165(3) 0.57250(19)
O9_2 O -0.0000 1.0000 0.4822(3)
C11 C 0.0170(4) 0.8118(3) 0.5801(3)
C14 C 0.0182(5) 0.7285(5) 0.5230(4)
H16 H 0.0334 0.7424 0.4916
H17 H 0.0213 0.6858 0.5300
C15 C 0.0659(4) 0.7892(4) 0.5551(3)
H18 H 0.1030 0.8296 0.5381
H19 H 0.0890 0.7731 0.5769
C16 C 0.0426(6) 0.8406(5) 0.6274(3)
H20 H 0.0099 0.8536 0.6410
H21 H 0.0442 0.8042 0.6457
H22 H 0.0899 0.8823 0.6258
C19 C 0.0132(3) 0.8706(3) 0.5512(3)
O27 O 0.0923(3) 0.9474(4) 0.42249(19)
Zn2_3 Zn 1.0000 -0.0000 0.54934(6)
O9_3 O 1.0000 -0.0000 0.4822(3)
Zn2_4 Zn 1.0000 1.0000 0.54934(6)
Zn3 Zn 0.50793(4) 0.71140(4) 0.49186(5)
Zn4 Zn 0.3333 0.6667 0.53473(6)
Zn5 Zn 0.79669(4) 0.51060(4) 0.49620(5)
Zn6 Zn 0.6667 0.3333 0.45504(6)
Zn7 Zn 0.3333 0.6667 0.66097(7)
O1 O 0.8551(3) 0.9077(3) 0.42249(19)
O2 O 0.9168(3) 0.8497(3) 0.4297(2)
O3 O 0.5691(3) 0.7245(4) 0.4276(3)
O4 O 0.6158(3) 0.7587(4) 0.4937(3)
O7 O 0.8264(6) 0.6212(5) 0.5033(4)
O8 O 0.8962(6) 0.5881(6) 0.5197(4)
O9_4 O 1.0000 1.0000 0.4822(3)
N1 N 0.4237(3) 0.6122(3) 0.4797(2)
N2 N 0.3575(3) 0.5976(3) 0.49226(17)
N3 N 0.3087(3) 0.5319(3) 0.47758(18)
N4 N 0.4924(3) 0.7072(3) 0.5605(2)
N5 N 0.4263(3) 0.6874(2) 0.5768(3)
N6 N 0.4260(4) 0.6854(3) 0.6208(3)
N7 N 0.7878(3) 0.4932(3) 0.4275(2)
N8 N 0.7374(3) 0.4276(3) 0.4122(2)
N9 N 0.7400(3) 0.4266(3) 0.3672(2)
N10 N 0.6901(3) 0.4688(3) 0.51101(17)
N11 N 0.6423(3) 0.4024(3) 0.49875(15)
N12 N 0.5760(3) 0.3861(3) 0.51124(17)
C1 C 0.7980(4) 0.7841(5) 0.3990(3)
C2 C 0.7376(4) 0.7505(4) 0.4375(3)
C3 C 0.6990(4) 0.7945(4) 0.4313(3)
H1 H 0.7276 0.8408 0.4470
C4 C 0.6998(6) 0.8096(8) 0.3802(3)
H2 H 0.6546 0.7750 0.3660
H3 H 0.7076 0.8578 0.3751
C5 C 0.7621(5) 0.8025(7) 0.3609(3)
H4 H 0.7442 0.7650 0.3379
H5 H 0.7969 0.8475 0.3466
C6 C 0.8255(5) 0.7322(6) 0.3851(5)
H6 H 0.8474 0.7234 0.4110
H7 H 0.7857 0.6875 0.3746
H8 H 0.8604 0.7536 0.3610
C7 C 0.7679(5) 0.7584(5) 0.4847(4)
H9 H 0.8006 0.8084 0.4909
H10 H 0.7293 0.7397 0.5066
H11 H 0.7932 0.7320 0.4868
C8 C 0.6859(6) 0.6706(5) 0.4286(5)
H12 H 0.6660 0.6645 0.3984
H13 H 0.7116 0.6446 0.4309
H14 H 0.6477 0.6524 0.4507
C9 C 0.8618(4) 0.8530(4) 0.4180(3)
C10 C 0.6235(4) 0.7573(5) 0.4519(4)
C12 C 0.9402(4) 0.7407(3) 0.5780(3)
C13 C 0.9418(4) 0.7133(4) 0.5296(3)
H15 H 0.9351 0.7447 0.5082
C17 C 0.8774(5) 0.7555(5) 0.5846(4)
H23 H 0.8803 0.7891 0.5618
H24 H 0.8324 0.7112 0.5815
H25 H 0.8804 0.7754 0.6144
C18 C 0.9365(6) 0.6876(5) 0.6136(4)
H26 H 0.9759 0.6788 0.6092
H27 H 0.9397 0.7074 0.6436
H28 H 0.8917 0.6432 0.6107
C20 C 0.8839(5) 0.6358(4) 0.5181(4)
C21 C 0.4157(4) 0.5533(4) 0.4559(2)
C22 C 0.4667(5) 0.5399(5) 0.4357(3)
H29 H 0.5158 0.5733 0.4364
C23 C 0.4393(5) 0.4732(5) 0.4146(3)
H30 H 0.4712 0.4617 0.4005
C24 C 0.3676(5) 0.4240(5) 0.4137(3)
H31 H 0.3522 0.3800 0.3992
C25 C 0.3176(5) 0.4374(4) 0.4335(3)
H32 H 0.2685 0.4039 0.4323
C26 C 0.3438(4) 0.5038(4) 0.4556(2)
C27 C 0.5350(4) 0.7175(3) 0.5957(3)
C28 C 0.6082(4) 0.7388(4) 0.5991(4)
H33 H 0.6363 0.7481 0.5730
C29 C 0.6376(5) 0.7457(4) 0.6420(4)
H34 H 0.6862 0.7599 0.6452
C30 C 0.5946(5) 0.7315(4) 0.6804(4)
H35 H 0.6160 0.7364 0.7089
C31 C 0.5226(5) 0.7107(4) 0.6794(3)
H36 H 0.4950 0.7017 0.7058
C32 C 0.4941(5) 0.7041(3) 0.6351(3)
C33 C 0.8225(3) 0.5338(4) 0.3929(3)
C34 C 0.8790(4) 0.6057(4) 0.3896(3)
H37 H 0.8994 0.6342 0.4154
C35 C 0.9028(4) 0.6321(4) 0.3455(3)
H38 H 0.9398 0.6796 0.3421
C36 C 0.8734(4) 0.5902(4) 0.3065(3)
H39 H 0.8919 0.6101 0.2780
C37 C 0.8180(4) 0.5205(4) 0.3091(3)
H40 H 0.7979 0.4929 0.2830
C38 C 0.7928(3) 0.4925(4) 0.3531(3)
C39 C 0.6540(4) 0.4975(4) 0.5326(2)
C40 C 0.6786(5) 0.5657(4) 0.5519(3)
H41 H 0.7272 0.6008 0.5517
C41 C 0.6267(5) 0.5779(5) 0.5712(3)
H42 H 0.6407 0.6225 0.5844
C42 C 0.5543(5) 0.5252(5) 0.5713(4)
H43 H 0.5213 0.5358 0.5847
C43 C 0.5292(5) 0.4576(5) 0.5524(3)
H44 H 0.4806 0.4228 0.5529
C44 C 0.5805(4) 0.4441(4) 0.5324(2)
Zn10 Zn 0.48940(4) 0.28609(6) 0.49620(5)
O11 O 0.1503(3) 0.0671(4) 0.4297(2)
O14 O 0.1323(3) 0.1508(4) 0.50904(19)
O16 O 0.3788(5) 0.2052(8) 0.5033(4)
O17 O 0.4119(6) 0.3081(8) 0.5197(4)
N19 N 0.5068(3) 0.2946(4) 0.4275(2)
N20 N 0.5724(3) 0.3098(4) 0.4122(2)
N21 N 0.5734(3) 0.3134(4) 0.3672(2)
N22 N 0.5312(3) 0.2213(4) 0.51101(17)
N23 N 0.5976(3) 0.2399(4) 0.49875(15)
N24 N 0.6139(3) 0.1899(4) 0.51124(17)
C45 C 0.2159(5) 0.0139(6) 0.3990(3)
C50 C 0.2678(6) 0.0933(8) 0.3851(5)
H50 H 0.2766 0.1240 0.4110
H51 H 0.3125 0.0982 0.3746
H52 H 0.2464 0.1068 0.3610
C51 C 0.2416(5) 0.0095(7) 0.4847(4)
H55 H 0.2680 0.0612 0.4868
C52 C 0.3294(5) 0.0153(8) 0.4286(5)
H56 H 0.3355 0.0015 0.3984
H57 H 0.3554 0.0670 0.4309
C53 C 0.1470(4) 0.0088(6) 0.4180(3)
C55 C 0.1882(3) 0.2052(5) 0.5801(3)
C56 C 0.2593(3) 0.1995(5) 0.5780(3)
C57 C 0.2867(4) 0.2285(6) 0.5296(3)
H59 H 0.2553 0.1904 0.5082
C58 C 0.2715(5) 0.2897(7) 0.5230(4)
H60 H 0.2576 0.2910 0.4916
H61 H 0.3142 0.3355 0.5300
C59 C 0.2108(4) 0.2767(6) 0.5551(3)
H62 H 0.1704 0.2734 0.5381
H63 H 0.2269 0.3159 0.5769
C60 C 0.1594(5) 0.2020(8) 0.6274(3)
H64 H 0.1464 0.1563 0.6410
H65 H 0.1958 0.2400 0.6457
H66 H 0.1177 0.2076 0.6258
C61 C 0.2445(5) 0.1219(7) 0.5846(4)
H67 H 0.2109 0.0912 0.5618
H68 H 0.2888 0.1212 0.5815
H69 H 0.2246 0.1050 0.6144
C62 C 0.3124(5) 0.2489(8) 0.6136(4)
H70 H 0.3212 0.2971 0.6092
H71 H 0.2926 0.2323 0.6436
H72 H 0.3568 0.2485 0.6107
C63 C 0.1294(3) 0.1426(4) 0.5512(3)
C64 C 0.3642(4) 0.2481(6) 0.5181(4)
H74 H 0.5383 0.0095 0.4005
C77 C 0.4662(4) 0.2887(5) 0.3929(3)
C78 C 0.3943(4) 0.2733(6) 0.3896(3)
H81 H 0.3658 0.2652 0.4154
C79 C 0.3679(4) 0.2707(6) 0.3455(3)
H82 H 0.3204 0.2602 0.3421
C80 C 0.4098(4) 0.2832(6) 0.3065(3)
H83 H 0.3899 0.2818 0.2780
C81 C 0.4795(4) 0.2975(6) 0.3091(3)
H84 H 0.5071 0.3050 0.2830
C82 C 0.5075(4) 0.3003(5) 0.3531(3)
C83 C 0.5025(4) 0.1565(6) 0.5326(2)
C84 C 0.4343(4) 0.1129(6) 0.5519(3)
H85 H 0.3992 0.1264 0.5517
C85 C 0.4221(5) 0.0488(7) 0.5712(3)
H86 H 0.3775 0.0182 0.5844
C86 C 0.4748(5) 0.0291(7) 0.5713(4)
C87 C 0.5424(5) 0.0716(7) 0.5524(3)
H88 H 0.5772 0.0578 0.5529
C88 C 0.5559(4) 0.1364(6) 0.5324(2)
Zn12 Zn 0.20347(6) 0.49207(4) 0.49186(5)
O18 O 0.0526(4) 0.1449(3) 0.42249(19)
O20 O 0.1554(5) 0.4309(3) 0.4276(3)
O21 O 0.1429(5) 0.3842(3) 0.4937(3)
N25 N 0.1885(4) 0.5763(3) 0.4797(2)
N26 N 0.2401(4) 0.6425(3) 0.49226(17)
N27 N 0.2232(4) 0.6913(3) 0.47758(18)
N28 N 0.2148(4) 0.5076(3) 0.5605(2)
N29 N 0.2611(4) 0.5737(3) 0.5768(3)
N30 N 0.2594(5) 0.5740(4) 0.6208(3)
C90 C 0.0129(6) 0.2624(4) 0.4375(3)
C91 C 0.0955(6) 0.3010(4) 0.4313(3)
H89 H 0.1132 0.2724 0.4470
C92 C 0.1098(10) 0.3002(6) 0.3802(3)
H90 H 0.1204 0.3454 0.3660
H91 H 0.1502 0.2924 0.3751
C93 C 0.0404(9) 0.2379(5) 0.3609(3)
H92 H 0.0208 0.2558 0.3379
H93 H 0.0506 0.2031 0.3466
H97 H 0.0078 0.1994 0.4909
H98 H 0.0104 0.2707 0.5066
H102 H 0.0047 0.3523 0.4507
C98 C 0.1338(6) 0.3765(4) 0.4519(4)
C109 C 0.1376(6) 0.5843(4) 0.4559(2)
C110 C 0.0732(7) 0.5333(5) 0.4357(3)
H117 H 0.0575 0.4842 0.4364
C111 C 0.0339(7) 0.5607(5) 0.4146(3)
C112 C 0.0564(7) 0.6324(5) 0.4137(3)
H119 H 0.0278 0.6478 0.3992
C113 C 0.1198(6) 0.6824(5) 0.4335(3)
H120 H 0.1354 0.7315 0.4323
C114 C 0.1600(6) 0.6562(4) 0.4556(2)
C115 C 0.1825(5) 0.4650(4) 0.5957(3)
C116 C 0.1306(6) 0.3918(4) 0.5991(4)
H121 H 0.1118 0.3637 0.5730
C117 C 0.1081(6) 0.3624(5) 0.6420(4)
H122 H 0.0737 0.3138 0.6452
C118 C 0.1369(6) 0.4054(5) 0.6804(4)
H123 H 0.1204 0.3840 0.7089
C119 C 0.1881(6) 0.4774(5) 0.6794(3)
H124 H 0.2067 0.5050 0.7058
C120 C 0.2100(6) 0.5059(5) 0.6351(3)
H131 H 0.0145 0.4787 0.5847
Zn16 Zn 0.91335(5) 0.99354(4) 0.45824(5)
Zn19 Zn 0.28860(4) 0.79653(6) 0.49186(5)
Zn22 Zn 0.71391(6) 0.20331(4) 0.49620(5)
Zn26 Zn 0.6666 0.3334 0.32764(7)
O29 O 0.9106(4) 0.9941(3) 0.57250(19)
N37 N 0.4024(3) 0.7599(4) 0.49226(17)
N38 N 0.4681(3) 0.7768(4) 0.47758(18)
N40 N 0.3126(2) 0.7389(4) 0.5768(3)
N41 N 0.3146(3) 0.7406(5) 0.6208(3)
N42 N 0.6902(4) 0.2626(3) 0.4122(2)
N43 N 0.4067(3) 0.7599(3) 0.7005(2)
N44 N 0.2401(3) 0.6467(4) 0.7005(2)
N45 N 0.3533(4) 0.5933(3) 0.7005(2)
N46 N 0.7601(4) 0.3577(3) 0.49875(15)
N48 N 0.8101(4) 0.4240(3) 0.51124(17)
O12 O 0.2755(4) 0.8446(5) 0.4276(3)
O13 O 0.2413(4) 0.8571(5) 0.4937(3)
N13 N 0.3878(3) 0.8115(4) 0.4797(2)
N16 N 0.2928(3) 0.7852(4) 0.5605(2)
C46 C 0.2495(4) 0.9871(6) 0.4375(3)
C47 C 0.2055(4) 0.9045(6) 0.4313(3)
H45 H 0.1592 0.8868 0.4470
C48 C 0.1904(8) 0.8902(10) 0.3802(3)
H46 H 0.2250 0.8796 0.3660
H47 H 0.1422 0.8498 0.3751
C49 C 0.1975(7) 0.9596(9) 0.3609(3)
H48 H 0.2350 0.9792 0.3379
H49 H 0.1525 0.9494 0.3466
H53 H 0.1916 0.9922 0.4909
H54 H 0.2603 0.9896 0.5066
H58 H 0.3476 0.9953 0.4507
C54 C 0.2427(5) 0.8662(6) 0.4519(4)
C65 C 0.4467(4) 0.8624(6) 0.4559(2)
C66 C 0.4601(5) 0.9268(7) 0.4357(3)
H73 H 0.4267 0.9425 0.4364
C67 C 0.5268(5) 0.9661(7) 0.4146(3)
C68 C 0.5760(5) 0.9436(7) 0.4137(3)
H75 H 0.6200 0.9722 0.3992
C69 C 0.5626(4) 0.8802(6) 0.4335(3)
H76 H 0.5961 0.8646 0.4323
C70 C 0.4962(4) 0.8400(6) 0.4556(2)
C71 C 0.2825(3) 0.8175(5) 0.5957(3)
C72 C 0.2612(4) 0.8694(6) 0.5991(4)
H77 H 0.2519 0.8882 0.5730
C73 C 0.2543(4) 0.8919(6) 0.6420(4)
H78 H 0.2401 0.9263 0.6452
C74 C 0.2685(4) 0.8631(6) 0.6804(4)
H79 H 0.2636 0.8796 0.7089
C75 C 0.2893(4) 0.8119(6) 0.6794(3)
H80 H 0.2983 0.7933 0.7058
C76 C 0.2959(3) 0.7900(6) 0.6351(3)
H87 H 0.4642 0.9855 0.5847
O19 O 0.9329(4) 0.0832(3) 0.4297(2)
O24 O 0.7948(8) 0.1736(6) 0.5033(4)
O25 O 0.6919(8) 0.1038(6) 0.5197(4)
N31 N 0.7054(4) 0.2122(3) 0.4275(2)
N33 N 0.6866(4) 0.2600(3) 0.3672(2)
N34 N 0.7787(4) 0.3099(3) 0.51101(17)
C89 C 0.9861(6) 0.2020(4) 0.3990(3)
C94 C 0.9067(8) 0.1745(5) 0.3851(5)
H94 H 0.8760 0.1526 0.4110
H95 H 0.9018 0.2143 0.3746
H96 H 0.8932 0.1396 0.3610
C95 C 0.9905(7) 0.2321(5) 0.4847(4)
H99 H 0.9388 0.2068 0.4868
C96 C 0.9847(8) 0.3141(6) 0.4286(5)
H100 H 0.9985 0.3340 0.3984
H101 H 0.9330 0.2884 0.4309
C97 C 0.9912(6) 0.1382(4) 0.4180(3)
C100 C 0.8005(5) 0.0598(4) 0.5780(3)
C101 C 0.7715(6) 0.0582(4) 0.5296(3)
H103 H 0.8096 0.0649 0.5082
C105 C 0.8781(7) 0.1226(5) 0.5846(4)
H111 H 0.9088 0.1197 0.5618
H112 H 0.8788 0.1676 0.5815
H113 H 0.8950 0.1196 0.6144
C106 C 0.7511(8) 0.0635(6) 0.6136(4)
H114 H 0.7029 0.0241 0.6092
H115 H 0.7677 0.0603 0.6436
H116 H 0.7515 0.1083 0.6107
C108 C 0.7519(6) 0.1161(5) 0.5181(4)
H118 H 0.9905 0.5288 0.4005
C121 C 0.7113(5) 0.1775(3) 0.3929(3)
C122 C 0.7267(6) 0.1210(4) 0.3896(3)
H125 H 0.7348 0.1006 0.4154
C123 C 0.7293(6) 0.0972(4) 0.3455(3)
H126 H 0.7398 0.0602 0.3421
C124 C 0.7168(6) 0.1266(4) 0.3065(3)
H127 H 0.7182 0.1081 0.2780
C125 C 0.7025(6) 0.1820(4) 0.3091(3)
H128 H 0.6950 0.2021 0.2830
C126 C 0.6997(5) 0.2072(3) 0.3531(3)
C127 C 0.8435(6) 0.3460(4) 0.5326(2)
C128 C 0.8871(6) 0.3214(5) 0.5519(3)
H129 H 0.8736 0.2728 0.5517
C129 C 0.9512(7) 0.3733(5) 0.5712(3)
H130 H 0.9818 0.3593 0.5844
C130 C 0.9709(7) 0.4457(5) 0.5713(4)
C131 C 0.9284(7) 0.4708(5) 0.5524(3)
H132 H 0.9422 0.5194 0.5529
C132 C 0.8636(6) 0.4195(4) 0.5324(2)
O22 O 0.8492(4) 0.9815(3) 0.50904(19)
C99 C 0.7948(5) 0.9830(4) 0.5801(3)
C102 C 0.7103(7) 0.9818(5) 0.5230(4)
H104 H 0.7090 0.9666 0.4916
H105 H 0.6645 0.9787 0.5300
C103 C 0.7233(6) 0.9341(4) 0.5551(3)
H106 H 0.7266 0.8970 0.5381
H107 H 0.6841 0.9110 0.5769
C104 C 0.7980(8) 0.9574(6) 0.6274(3)
H108 H 0.8437 0.9901 0.6410
H109 H 0.7600 0.9558 0.6457
H110 H 0.7924 0.9101 0.6258
C107 C 0.8574(4) 0.9868(3) 0.5512(3)
C30_2 C 0.2613(5) 0.0648(4) 0.0137(4)
H35_2 H 0.2827 0.0697 0.0422
C31_2 C 0.1893(5) 0.0440(4) 0.0127(3)
H36_2 H 0.1617 0.0350 0.0391
N43_2 N 0.0733(3) 0.0933(3) 0.0339(2)
Zn1_2 Zn 0.67313(4) 0.25314(3) 0.79157(5)
Zn2_5 Zn 0.6667 0.3333 0.88267(6)
Zn3_2 Zn 0.17460(4) 0.04473(4) 0.82519(5)
Zn4_2 Zn -0.0000 0.0000 0.86806(6)
Zn7_2 Zn -0.0000 0.0000 0.99430(7)
O1_2 O 0.5218(3) 0.2410(3) 0.75582(19)
O2_2 O 0.5835(3) 0.1830(3) 0.7630(2)
O3_2 O 0.2358(3) 0.0578(4) 0.7609(3)
O4_2 O 0.2825(3) 0.0920(4) 0.8270(3)
O5_2 O 0.6852(3) 0.2010(3) 0.84237(19)
O6_2 O 0.6726(3) 0.2498(3) 0.90583(19)
O9_5 O 0.6667 0.3333 0.8155(3)
N4_2 N 0.1591(3) 0.0405(3) 0.8938(2)
N5_2 N 0.0930(3) 0.0207(2) 0.9101(3)
N6_2 N 0.0927(4) 0.0187(3) 0.9541(3)
C1_2 C 0.4647(4) 0.1174(5) 0.7323(3)
C2_2 C 0.4043(4) 0.0838(4) 0.7708(3)
C3_2 C 0.3657(4) 0.1278(4) 0.7646(3)
H1_2 H 0.3943 0.1741 0.7803
C4_2 C 0.3665(6) 0.1429(8) 0.7135(3)
H2_2 H 0.3213 0.1083 0.6993
H3_2 H 0.3743 0.1911 0.7084
C5_2 C 0.4288(5) 0.1358(7) 0.6942(3)
H4_2 H 0.4109 0.0983 0.6712
H5_2 H 0.4636 0.1808 0.6799
C6_2 C 0.4922(5) 0.0655(6) 0.7184(5)
H6_2 H 0.5141 0.0567 0.7443
H7_2 H 0.4524 0.0208 0.7079
H8_2 H 0.5271 0.0869 0.6943
C7_2 C 0.4346(5) 0.0917(5) 0.8180(4)
H9_2 H 0.4673 0.1417 0.8242
H10_2 H 0.3960 0.0730 0.8399
H11_2 H 0.4599 0.0653 0.8201
C8_2 C 0.3526(6) 0.0039(5) 0.7619(5)
C9_2 C 0.5285(4) 0.1863(4) 0.7513(3)
C10_2 C 0.2902(4) 0.0906(5) 0.7852(4)
C11_2 C 0.6837(4) 0.1451(3) 0.9134(3)
C12_2 C 0.6069(4) 0.0740(3) 0.9113(3)
C13_2 C 0.6085(4) 0.0466(4) 0.8629(3)
H15_2 H 0.6018 0.0780 0.8415
C14_2 C 0.6849(5) 0.0618(5) 0.8563(4)
H16_2 H 0.7001 0.0757 0.8249
H17_2 H 0.6880 0.0191 0.8633
C15_2 C 0.7326(4) 0.1225(4) 0.8884(3)
H18_2 H 0.7697 0.1629 0.8714
H19_2 H 0.7557 0.1064 0.9102
C16_2 C 0.7093(6) 0.1739(5) 0.9607(3)
H20_2 H 0.6766 0.1869 0.9743
H21_2 H 0.7109 0.1375 0.9790
H22_2 H 0.7566 0.2156 0.9591
C17_2 C 0.5441(5) 0.0888(5) 0.9179(4)
H23_2 H 0.5470 0.1224 0.8951
H24_2 H 0.4991 0.0445 0.9148
H25_2 H 0.5471 0.1087 0.9477
C18_2 C 0.6032(6) 0.0209(5) 0.9469(4)
H26_2 H 0.6426 0.0121 0.9425
H27_2 H 0.6064 0.0407 0.9769
C19_2 C 0.6799(3) 0.2039(3) 0.8845(3)
C27_2 C 0.2017(4) 0.0508(3) 0.9290(3)
C28_2 C 0.2749(4) 0.0721(4) 0.9324(4)
H33_2 H 0.3030 0.0814 0.9063
C29_2 C 0.3043(5) 0.0790(4) 0.9753(4)
H34_2 H 0.3529 0.0932 0.9785
C32_2 C 0.1608(5) 0.0374(3) 0.9684(3)
H38_2 H 0.6065 0.0129 0.6754
Zn15_2 Zn 0.74686(3) 0.41998(5) 0.79157(5)
Zn16_2 Zn 0.58002(5) 0.32687(4) 0.79157(5)
O27_2 O 0.7590(3) 0.2807(4) 0.75582(19)
O28_2 O 0.7502(3) 0.4227(4) 0.90583(19)
O29_2 O 0.5773(4) 0.3274(3) 0.90583(19)
N37_2 N 0.0691(3) 0.0932(4) 0.82559(17)
N38_2 N 0.1348(3) 0.1101(4) 0.81091(18)
N45_2 N 0.0199(4) 0.9267(3) 0.0339(2)
Zn4_3 Zn -0.0000 1.0000 0.86806(6)
Zn5_2 Zn 0.46336(4) 0.84393(4) 0.82953(5)
Zn6_2 Zn 0.3334 0.6666 0.78837(6)
Zn7_3 Zn -0.0000 1.0000 0.99430(7)
O7_2 O 0.4931(6) 0.9545(5) 0.8366(4)
O8_2 O 0.5629(6) 0.9214(6) 0.8530(4)
N1_2 N 0.0904(3) 0.9455(3) 0.8130(2)
N2_2 N 0.0242(3) 0.9309(3) 0.82559(17)
N7_2 N 0.4545(3) 0.8265(3) 0.7608(2)
N8_2 N 0.4041(3) 0.7609(3) 0.7455(2)
N10_2 N 0.3568(3) 0.8021(3) 0.84434(17)
N11_2 N 0.3090(3) 0.7357(3) 0.83208(15)
N12_2 N 0.2427(3) 0.7194(3) 0.84457(17)
H12_2 H 0.3327 0.9978 0.7317
H13_2 H 0.3783 0.9779 0.7642
H14_2 H 0.3144 0.9857 0.7840
H28_2 H 0.5584 0.9765 0.9440
C20_2 C 0.5506(5) 0.9691(4) 0.8514(4)
C21_2 C 0.0824(4) 0.8866(4) 0.7892(2)
C22_2 C 0.1334(5) 0.8732(5) 0.7690(3)
H29_2 H 0.1825 0.9066 0.7697
C23_2 C 0.1060(5) 0.8065(5) 0.7479(3)
H30_2 H 0.1379 0.7950 0.7338
C24_2 C 0.0343(5) 0.7573(5) 0.7470(3)
H31_2 H 0.0189 0.7133 0.7325
C26_2 C 0.0105(4) 0.8371(4) 0.7889(2)
C33_2 C 0.4892(3) 0.8671(4) 0.7262(3)
C34_2 C 0.5457(4) 0.9390(4) 0.7229(3)
H37_2 H 0.5661 0.9675 0.7487
C35_2 C 0.5695(4) 0.9654(4) 0.6788(3)
C36_2 C 0.5401(4) 0.9235(4) 0.6398(3)
H39_2 H 0.5586 0.9434 0.6113
C37_2 C 0.4847(4) 0.8538(4) 0.6424(3)
H40_2 H 0.4646 0.8262 0.6163
C38_2 C 0.4595(3) 0.8258(4) 0.6864(3)
C39_2 C 0.3207(4) 0.8308(4) 0.8659(2)
C40_2 C 0.3453(5) 0.8990(4) 0.8852(3)
H41_2 H 0.3939 0.9341 0.8850
C41_2 C 0.2934(5) 0.9112(5) 0.9045(3)
H42_2 H 0.3074 0.9558 0.9177
C42_2 C 0.2210(5) 0.8585(5) 0.9046(4)
H43_2 H 0.1880 0.8691 0.9180
C43_2 C 0.1959(5) 0.7909(5) 0.8857(3)
H44_2 H 0.1473 0.7561 0.8862
C44_2 C 0.2472(4) 0.7774(4) 0.8657(2)
Zn10_2 Zn 0.15607(4) 0.61942(6) 0.82953(5)
O16_2 O 0.0455(5) 0.5385(8) 0.8366(4)
O17_2 O 0.0786(6) 0.6414(8) 0.8530(4)
N13_2 N 0.0545(3) 0.1448(4) 0.8130(2)
N19_2 N 0.1735(3) 0.6279(4) 0.7608(2)
N20_2 N 0.2391(3) 0.6431(4) 0.7455(2)
N22_2 N 0.1979(3) 0.5546(4) 0.84434(17)
N23_2 N 0.2643(3) 0.5732(4) 0.83208(15)
N24_2 N 0.2806(3) 0.5232(4) 0.84457(17)
H56_2 H 0.0022 0.3348 0.7317
H57_2 H 0.0221 0.4003 0.7642
H58_2 H 0.0143 0.3286 0.7840
H72_2 H 0.0235 0.5818 0.9440
C64_2 C 0.0309(4) 0.5814(6) 0.8514(4)
C65_2 C 0.1134(4) 0.1957(6) 0.7892(2)
C66_2 C 0.1268(5) 0.2601(7) 0.7690(3)
H73_2 H 0.0934 0.2758 0.7697
C67_2 C 0.1935(5) 0.2994(7) 0.7479(3)
H74_2 H 0.2050 0.3428 0.7338
C68_2 C 0.2427(5) 0.2769(7) 0.7470(3)
H75_2 H 0.2867 0.3055 0.7325
C69_2 C 0.2293(4) 0.2135(6) 0.7668(3)
H76_2 H 0.2628 0.1979 0.7656
C70_2 C 0.1629(4) 0.1733(6) 0.7889(2)
C77_2 C 0.1329(4) 0.6220(5) 0.7262(3)
C78_2 C 0.0610(4) 0.6066(6) 0.7229(3)
H81_2 H 0.0325 0.5985 0.7487
C79_2 C 0.0346(4) 0.6040(6) 0.6788(3)
C80_2 C 0.0765(4) 0.6165(6) 0.6398(3)
H83_2 H 0.0566 0.6151 0.6113
C81_2 C 0.1462(4) 0.6308(6) 0.6424(3)
H84_2 H 0.1738 0.6383 0.6163
C82_2 C 0.1742(4) 0.6336(5) 0.6864(3)
C83_2 C 0.1692(4) 0.4898(6) 0.8659(2)
C84_2 C 0.1010(4) 0.4462(6) 0.8852(3)
H85_2 H 0.0659 0.4597 0.8850
C85_2 C 0.0888(5) 0.3821(7) 0.9045(3)
H86_2 H 0.0442 0.3515 0.9177
C86_2 C 0.1415(5) 0.3624(7) 0.9046(4)
H87_2 H 0.1309 0.3188 0.9180
C87_2 C 0.2091(5) 0.4049(7) 0.8857(3)
H88_2 H 0.2439 0.3911 0.8862
C88_2 C 0.2226(4) 0.4697(6) 0.8657(2)
Zn22_2 Zn 0.38058(6) 0.53664(4) 0.82953(5)
N42_2 N 0.3569(4) 0.5959(3) 0.7455(2)
N46_2 N 0.4268(4) 0.6910(3) 0.83208(15)
N48_2 N 0.4768(4) 0.7573(3) 0.84457(17)
Zn4_4 Zn 1.0000 0.0000 0.86806(6)
Zn7_4 Zn 1.0000 0.0000 0.99430(7)
N27_2 N 0.8899(4) 0.0246(3) 0.81091(18)
C113_2 C 0.7865(6) 0.0157(5) 0.7668(3)
H120_2 H 0.8021 0.0648 0.7656
Zn19_2 Zn 0.95527(4) 0.12986(6) 0.82519(5)
N40_2 N 0.9793(2) 0.0722(4) 0.9101(3)
N41_2 N 0.9813(3) 0.0739(5) 0.9541(3)
C74_2 C 0.9352(4) 0.1964(6) 0.0137(4)
H79_2 H 0.9303 0.2129 0.0422
C75_2 C 0.9560(4) 0.1452(6) 0.0127(3)
H80_2 H 0.9650 0.1266 0.0391
C118_2 C 0.8036(6) 0.7387(5) 0.0137(4)
H123_2 H 0.7871 0.7173 0.0422
C119_2 C 0.8548(6) 0.8107(5) 0.0127(3)
H124_2 H 0.8734 0.8383 0.0391
N44_2 N 0.9067(3) 0.9801(4) 0.0339(2)
Zn4_5 Zn 1.0000 1.0000 0.86806(6)
Zn7_5 Zn 1.0000 1.0000 0.99430(7)
N3_2 N 0.9754(3) 0.8652(3) 0.81091(18)
C25_2 C 0.9843(5) 0.7707(4) 0.7668(3)
H32_2 H 0.9352 0.7372 0.7656
O11_2 O 0.8170(3) 0.4004(4) 0.7630(2)
O12_2 O 0.9422(4) 0.1779(5) 0.7609(3)
O13_2 O 0.9080(4) 0.1904(5) 0.8270(3)
O14_2 O 0.7990(3) 0.4841(4) 0.84237(19)
N16_2 N 0.9595(3) 0.1185(4) 0.8938(2)
C45_2 C 0.8826(5) 0.3472(6) 0.7323(3)
C46_2 C 0.9162(4) 0.3204(6) 0.7708(3)
C47_2 C 0.8722(4) 0.2378(6) 0.7646(3)
H45_2 H 0.8259 0.2201 0.7803
C48_2 C 0.8571(8) 0.2235(10) 0.7135(3)
H46_2 H 0.8917 0.2129 0.6993
H47_2 H 0.8089 0.1831 0.7084
C49_2 C 0.8642(7) 0.2929(9) 0.6942(3)
H48_2 H 0.9017 0.3125 0.6712
H49_2 H 0.8192 0.2827 0.6799
C50_2 C 0.9345(6) 0.4266(8) 0.7184(5)
H50_2 H 0.9433 0.4573 0.7443
H51_2 H 0.9792 0.4315 0.7079
H52_2 H 0.9131 0.4401 0.6943
C51_2 C 0.9083(5) 0.3428(7) 0.8180(4)
H53_2 H 0.8583 0.3255 0.8242
H54_2 H 0.9270 0.3229 0.8399
H55_2 H 0.9347 0.3945 0.8201
C52_2 C 0.9961(5) 0.3486(8) 0.7619(5)
C53_2 C 0.8137(4) 0.3421(6) 0.7513(3)
C54_2 C 0.9094(5) 0.1995(6) 0.7852(4)
C55_2 C 0.8549(3) 0.5385(5) 0.9134(3)
C56_2 C 0.9260(3) 0.5328(5) 0.9113(3)
C57_2 C 0.9534(4) 0.5618(6) 0.8629(3)
H59_2 H 0.9220 0.5237 0.8415
C58_2 C 0.9382(5) 0.6230(7) 0.8563(4)
H60_2 H 0.9243 0.6243 0.8249
H61_2 H 0.9809 0.6688 0.8633
C59_2 C 0.8775(4) 0.6100(6) 0.8884(3)
H62_2 H 0.8371 0.6067 0.8714
H63_2 H 0.8936 0.6492 0.9102
C60_2 C 0.8261(5) 0.5353(8) 0.9607(3)
H64_2 H 0.8131 0.4896 0.9743
H65_2 H 0.8625 0.5733 0.9790
H66_2 H 0.7844 0.5409 0.9591
C61_2 C 0.9112(5) 0.4552(7) 0.9179(4)
H67_2 H 0.8776 0.4245 0.8951
H68_2 H 0.9555 0.4545 0.9148
H69_2 H 0.8913 0.4383 0.9477
C62_2 C 0.9791(5) 0.5822(8) 0.9469(4)
H70_2 H 0.9879 0.6304 0.9425
H71_2 H 0.9593 0.5656 0.9769
C63_2 C 0.7961(3) 0.4759(4) 0.8845(3)
C71_2 C 0.9492(3) 0.1508(5) 0.9290(3)
C72_2 C 0.9279(4) 0.2027(6) 0.9324(4)
H77_2 H 0.9186 0.2215 0.9063
C73_2 C 0.9210(4) 0.2252(6) 0.9753(4)
H78_2 H 0.9068 0.2596 0.9785
C76_2 C 0.9626(3) 0.1233(6) 0.9684(3)
H82_2 H 0.9871 0.5935 0.6754
Zn12_2 Zn 0.87014(6) 0.82540(4) 0.82519(5)
O18_2 O 0.7193(4) 0.4782(3) 0.75582(19)
O19_2 O 0.5996(4) 0.4165(3) 0.7630(2)
O20_2 O 0.8221(5) 0.7642(3) 0.7609(3)
O21_2 O 0.8096(5) 0.7175(3) 0.8270(3)
O22_2 O 0.5159(4) 0.3148(3) 0.84237(19)
O24_2 O 0.4615(8) 0.5069(6) 0.8366(4)
O25_2 O 0.3586(8) 0.4371(6) 0.8530(4)
N25_2 N 0.8552(4) 0.9096(3) 0.8130(2)
N26_2 N 0.9068(4) 0.9758(3) 0.82559(17)
N28_2 N 0.8815(4) 0.8409(3) 0.8938(2)
N29_2 N 0.9278(4) 0.9070(3) 0.9101(3)
N30_2 N 0.9261(5) 0.9073(4) 0.9541(3)
N31_2 N 0.3721(4) 0.5455(3) 0.7608(2)
N34_2 N 0.4454(4) 0.6432(3) 0.84434(17)
C89_2 C 0.6528(6) 0.5353(4) 0.7323(3)
C90_2 C 0.6796(6) 0.5957(4) 0.7708(3)
C91_2 C 0.7622(6) 0.6343(4) 0.7646(3)
H89_2 H 0.7799 0.6057 0.7803
C92_2 C 0.7765(10) 0.6335(6) 0.7135(3)
H90_2 H 0.7871 0.6787 0.6993
H91_2 H 0.8169 0.6257 0.7084
C93_2 C 0.7071(9) 0.5712(5) 0.6942(3)
H92_2 H 0.6875 0.5891 0.6712
H93_2 H 0.7173 0.5364 0.6799
C94_2 C 0.5734(8) 0.5078(5) 0.7184(5)
H94_2 H 0.5427 0.4859 0.7443
H95_2 H 0.5685 0.5476 0.7079
H96_2 H 0.5599 0.4729 0.6943
C95_2 C 0.6572(7) 0.5654(5) 0.8180(4)
H97_2 H 0.6745 0.5327 0.8242
H98_2 H 0.6771 0.6040 0.8399
H99_2 H 0.6055 0.5401 0.8201
C96_2 C 0.6514(8) 0.6474(6) 0.7619(5)
H100_2 H 0.6652 0.6673 0.7317
H101_2 H 0.5997 0.6217 0.7642
H102_2 H 0.6714 0.6856 0.7840
C97_2 C 0.6579(6) 0.4715(4) 0.7513(3)
C98_2 C 0.8005(6) 0.7098(4) 0.7852(4)
C99_2 C 0.4615(5) 0.3163(4) 0.9134(3)
C100_2 C 0.4672(5) 0.3931(4) 0.9113(3)
C101_2 C 0.4382(6) 0.3915(4) 0.8629(3)
H103_2 H 0.4763 0.3982 0.8415
C102_2 C 0.3770(7) 0.3151(5) 0.8563(4)
H104_2 H 0.3757 0.2999 0.8249
H105_2 H 0.3312 0.3120 0.8633
C103_2 C 0.3900(6) 0.2674(4) 0.8884(3)
H106_2 H 0.3933 0.2303 0.8714
H107_2 H 0.3508 0.2443 0.9102
C104_2 C 0.4647(8) 0.2907(6) 0.9607(3)
H108_2 H 0.5104 0.3234 0.9743
H109_2 H 0.4267 0.2891 0.9790
H110_2 H 0.4591 0.2434 0.9591
C105_2 C 0.5448(7) 0.4559(5) 0.9179(4)
H111_2 H 0.5755 0.4530 0.8951
H112_2 H 0.5455 0.5009 0.9148
H113_2 H 0.5617 0.4529 0.9477
C106_2 C 0.4178(8) 0.3968(6) 0.9469(4)
H114_2 H 0.3696 0.3574 0.9425
H115_2 H 0.4344 0.3936 0.9769
H116_2 H 0.4182 0.4416 0.9440
C107_2 C 0.5241(4) 0.3201(3) 0.8845(3)
C108_2 C 0.4186(6) 0.4494(5) 0.8514(4)
C109_2 C 0.8043(6) 0.9176(4) 0.7892(2)
C110_2 C 0.7399(7) 0.8666(5) 0.7690(3)
H117_2 H 0.7242 0.8175 0.7697
C111_2 C 0.7006(7) 0.8940(5) 0.7479(3)
H118_2 H 0.6572 0.8621 0.7338
C112_2 C 0.7231(7) 0.9657(5) 0.7470(3)
H119_2 H 0.6945 0.9811 0.7325
C114_2 C 0.8267(6) 0.9895(4) 0.7889(2)
C115_2 C 0.8492(5) 0.7983(4) 0.9290(3)
C116_2 C 0.7973(6) 0.7251(4) 0.9324(4)
H121_2 H 0.7785 0.6970 0.9063
C117_2 C 0.7748(6) 0.6957(5) 0.9753(4)
H122_2 H 0.7404 0.6471 0.9785
C120_2 C 0.8767(6) 0.8392(5) 0.9684(3)
C121_2 C 0.3780(5) 0.5108(3) 0.7262(3)
C122_2 C 0.3934(6) 0.4543(4) 0.7229(3)
H125_2 H 0.4015 0.4339 0.7487
C123_2 C 0.3960(6) 0.4305(4) 0.6788(3)
H126_2 H 0.4065 0.3935 0.6754
C124_2 C 0.3835(6) 0.4599(4) 0.6398(3)
H127_2 H 0.3849 0.4414 0.6113
C125_2 C 0.3692(6) 0.5153(4) 0.6424(3)
H128_2 H 0.3617 0.5354 0.6163
C126_2 C 0.3664(5) 0.5405(3) 0.6864(3)
C127_2 C 0.5102(6) 0.6793(4) 0.8659(2)
C128_2 C 0.5538(6) 0.6547(5) 0.8852(3)
H129_2 H 0.5403 0.6061 0.8850
C129_2 C 0.6179(7) 0.7066(5) 0.9045(3)
H130_2 H 0.6485 0.6926 0.9177
C130_2 C 0.6376(7) 0.7790(5) 0.9046(4)
H131_2 H 0.6812 0.8120 0.9180
C131_2 C 0.5951(7) 0.8041(5) 0.8857(3)
H132_2 H 0.6089 0.8527 0.8862
C132_2 C 0.5303(6) 0.7528(4) 0.8657(2)
Zn1_3 Zn 0.33979(4) 0.58648(3) 0.12491(5)
Zn2_6 Zn 0.3333 0.6667 0.21601(6)
Zn5_3 Zn 0.13002(4) 0.17727(4) 0.16287(5)
Zn6_3 Zn 0.0000 -0.0000 0.12171(6)
O1_3 O 0.1884(3) 0.5744(3) 0.08916(19)
O2_3 O 0.2501(3) 0.5164(3) 0.0964(2)
O5_3 O 0.3518(3) 0.5344(3) 0.17571(19)
O6_3 O 0.3392(3) 0.5832(3) 0.23917(19)
O7_3 O 0.1597(6) 0.2879(5) 0.1700(4)
O8_3 O 0.2295(6) 0.2548(6) 0.1864(4)
O9_6 O 0.3333 0.6667 0.1489(3)
N7_3 N 0.1211(3) 0.1599(3) 0.0942(2)
N8_3 N 0.0707(3) 0.0943(3) 0.0789(2)
N10_3 N 0.0234(3) 0.1355(3) 0.17768(17)
C1_3 C 0.1313(4) 0.4508(5) 0.0657(3)
C2_3 C 0.0709(4) 0.4172(4) 0.1042(3)
C3_3 C 0.0323(4) 0.4612(4) 0.0980(3)
H1_3 H 0.0609 0.5075 0.1137
C4_3 C 0.0331(6) 0.4763(8) 0.0469(3)
H3_3 H 0.0409 0.5245 0.0418
C5_3 C 0.0954(5) 0.4692(7) 0.0276(3)
H4_3 H 0.0775 0.4317 0.0046
H5_3 H 0.1302 0.5142 0.0133
C6_3 C 0.1588(5) 0.3989(6) 0.0518(5)
H6_3 H 0.1807 0.3901 0.0777
H7_3 H 0.1190 0.3542 0.0413
H8_3 H 0.1937 0.4203 0.0277
C7_3 C 0.1012(5) 0.4251(5) 0.1514(4)
H9_3 H 0.1339 0.4751 0.1576
H10_3 H 0.0626 0.4064 0.1733
H11_3 H 0.1265 0.3987 0.1535
C8_3 C 0.0192(6) 0.3373(5) 0.0953(5)
H13_3 H 0.0449 0.3113 0.0976
C9_3 C 0.1951(4) 0.5197(4) 0.0847(3)
C11_3 C 0.3503(4) 0.4785(3) 0.2468(3)
C12_3 C 0.2735(4) 0.4074(3) 0.2447(3)
C13_3 C 0.2751(4) 0.3800(4) 0.1963(3)
H15_3 H 0.2684 0.4114 0.1749
C14_3 C 0.3515(5) 0.3952(5) 0.1897(4)
H16_3 H 0.3667 0.4091 0.1583
H17_3 H 0.3546 0.3525 0.1967
C15_3 C 0.3992(4) 0.4559(4) 0.2218(3)
H18_3 H 0.4363 0.4963 0.2048
H19_3 H 0.4223 0.4398 0.2436
C16_3 C 0.3759(6) 0.5073(5) 0.2941(3)
H20_3 H 0.3432 0.5203 0.3077
H21_3 H 0.3775 0.4709 0.3124
H22_3 H 0.4232 0.5490 0.2925
C17_3 C 0.2107(5) 0.4222(5) 0.2513(4)
H23_3 H 0.2136 0.4558 0.2285
H24_3 H 0.1657 0.3779 0.2482
H25_3 H 0.2137 0.4421 0.2811
C18_3 C 0.2698(6) 0.3543(5) 0.2803(4)
H26_3 H 0.3092 0.3455 0.2759
H27_3 H 0.2730 0.3741 0.3103
H28_3 H 0.2250 0.3099 0.2774
C19_3 C 0.3465(3) 0.5373(3) 0.2179(3)
C20_3 C 0.2172(5) 0.3025(4) 0.1848(4)
H34_3 H 0.0195 0.4266 0.3119
C33_3 C 0.1558(3) 0.2005(4) 0.0596(3)
C34_3 C 0.2123(4) 0.2724(4) 0.0563(3)
H37_3 H 0.2327 0.3009 0.0821
C35_3 C 0.2361(4) 0.2988(4) 0.0122(3)
H38_3 H 0.2731 0.3463 0.0088
C38_3 C 0.1261(3) 0.1592(4) 0.0198(3)
C40_3 C 0.0119(5) 0.2324(4) 0.2186(3)
H41_3 H 0.0605 0.2675 0.2184
Zn15_3 Zn 0.41352(3) 0.75332(5) 0.12491(5)
Zn16_3 Zn 0.24668(5) 0.66021(4) 0.12491(5)
O27_3 O 0.4256(3) 0.6141(4) 0.08916(19)
O28_3 O 0.4168(3) 0.7561(4) 0.23917(19)
O29_3 O 0.2439(4) 0.6608(3) 0.23917(19)
N46_3 N 0.0934(4) 0.0244(3) 0.16542(15)
N48_3 N 0.1434(4) 0.0907(3) 0.17791(17)
C36_3 C 0.2067(4) 0.2569(4) 0.9732(3)
H39_3 H 0.2252 0.2768 0.9447
C37_3 C 0.1513(4) 0.1872(4) 0.9758(3)
H40_3 H 0.1312 0.1596 0.9497
Zn6_4 Zn 0.0000 1.0000 0.12171(6)
Zn22_3 Zn 0.04724(6) 0.86998(4) 0.16287(5)
N42_3 N 0.0235(4) 0.9293(3) 0.0789(2)
Zn3_3 Zn 0.84126(4) 0.37807(4) 0.15853(5)
Zn4_6 Zn 0.6666 0.3334 0.20140(6)
Zn6_5 Zn 1.0000 -0.0000 0.12171(6)
O3_3 O 0.9024(3) 0.3912(4) 0.0943(3)
O4_3 O 0.9491(3) 0.4254(4) 0.1604(3)
N1_3 N 0.7570(3) 0.2789(3) 0.1464(2)
N2_3 N 0.6908(3) 0.2643(3) 0.15893(17)
N3_3 N 0.6420(3) 0.1986(3) 0.14425(18)
N4_3 N 0.8257(3) 0.3739(3) 0.2272(2)
N5_3 N 0.7596(3) 0.3541(2) 0.2435(3)
N6_3 N 0.7593(4) 0.3521(3) 0.2875(3)
N11_3 N 0.9756(3) 0.0691(3) 0.16542(15)
N12_3 N 0.9093(3) 0.0528(3) 0.17791(17)
H2_3 H 0.9879 0.4417 0.0327
H12_3 H 0.9993 0.3312 0.0651
H14_3 H 0.9810 0.3191 0.1174
C10_3 C 0.9568(4) 0.4240(5) 0.1186(4)
C21_3 C 0.7490(4) 0.2200(4) 0.1226(2)
C22_3 C 0.8000(5) 0.2066(5) 0.1024(3)
H29_3 H 0.8491 0.2400 0.1031
C23_3 C 0.7726(5) 0.1399(5) 0.0813(3)
H30_3 H 0.8045 0.1284 0.0672
C24_3 C 0.7009(5) 0.0907(5) 0.0804(3)
H31_3 H 0.6855 0.0467 0.0659
C25_3 C 0.6509(5) 0.1041(4) 0.1002(3)
H32_3 H 0.6018 0.0706 0.0990
C26_3 C 0.6771(4) 0.1705(4) 0.1223(2)
C27_3 C 0.8683(4) 0.3842(3) 0.2624(3)
C28_3 C 0.9415(4) 0.4055(4) 0.2658(4)
H33_3 H 0.9696 0.4148 0.2397
C29_3 C 0.9709(5) 0.4124(4) 0.3087(4)
C30_3 C 0.9279(5) 0.3982(4) 0.3471(4)
H35_3 H 0.9493 0.4031 0.3756
C31_3 C 0.8559(5) 0.3774(4) 0.3461(3)
H36_3 H 0.8283 0.3684 0.3725
C32_3 C 0.8274(5) 0.3708(3) 0.3018(3)
C39_3 C 0.9873(4) 0.1642(4) 0.1993(2)
C41_3 C 0.9600(5) 0.2446(5) 0.2379(3)
H42_3 H 0.9740 0.2892 0.2511
C42_3 C 0.8876(5) 0.1919(5) 0.2380(4)
H43_3 H 0.8546 0.2025 0.2514
C43_3 C 0.8625(5) 0.1243(5) 0.2191(3)
H44_3 H 0.8139 0.0895 0.2196
C44_3 C 0.9138(4) 0.1108(4) 0.1991(2)
H61_3 H 0.6475 0.0022 0.1967
Zn12_3 Zn 0.53680(6) 0.15874(4) 0.15853(5)
O20_3 O 0.4887(5) 0.0976(3) 0.0943(3)
O21_3 O 0.4762(5) 0.0509(3) 0.1604(3)
N25_3 N 0.5218(4) 0.2430(3) 0.1464(2)
N26_3 N 0.5734(4) 0.3092(3) 0.15893(17)
N27_3 N 0.5565(4) 0.3580(3) 0.14425(18)
N28_3 N 0.5481(4) 0.1743(3) 0.2272(2)
N29_3 N 0.5944(4) 0.2404(3) 0.2435(3)
N30_3 N 0.5927(5) 0.2407(4) 0.2875(3)
H90_3 H 0.4537 0.0121 0.0327
H100_3 H 0.3318 0.0007 0.0651
H102_3 H 0.3380 0.0190 0.1174
C98_3 C 0.4671(6) 0.0432(4) 0.1186(4)
C109_3 C 0.4709(6) 0.2510(4) 0.1226(2)
C110_3 C 0.4065(7) 0.2000(5) 0.1024(3)
H117_3 H 0.3908 0.1509 0.1031
C111_3 C 0.3672(7) 0.2274(5) 0.0813(3)
H118_3 H 0.3238 0.1955 0.0672
C112_3 C 0.3897(7) 0.2991(5) 0.0804(3)
H119_3 H 0.3611 0.3145 0.0659
C113_3 C 0.4531(6) 0.3491(5) 0.1002(3)
H120_3 H 0.4687 0.3982 0.0990
C114_3 C 0.4933(6) 0.3229(4) 0.1223(2)
C115_3 C 0.5158(5) 0.1317(4) 0.2624(3)
C116_3 C 0.4639(6) 0.0585(4) 0.2658(4)
H121_3 H 0.4451 0.0304 0.2397
C117_3 C 0.4414(6) 0.0291(5) 0.3087(4)
C118_3 C 0.4702(6) 0.0721(5) 0.3471(4)
H123_3 H 0.4537 0.0507 0.3756
C119_3 C 0.5214(6) 0.1441(5) 0.3461(3)
H124_3 H 0.5400 0.1717 0.3725
C120_3 C 0.5433(6) 0.1726(5) 0.3018(3)
C127_3 C 0.1768(6) 0.0127(4) 0.1993(2)
C129_3 C 0.2845(7) 0.0400(5) 0.2379(3)
H130_3 H 0.3151 0.0260 0.2511
C130_3 C 0.3042(7) 0.1124(5) 0.2380(4)
H131_3 H 0.3478 0.1454 0.2514
C131_3 C 0.2617(7) 0.1375(5) 0.2191(3)
H132_3 H 0.2755 0.1861 0.2196
C132_3 C 0.1969(6) 0.0862(4) 0.1991(2)
Zn19_3 Zn 0.62193(4) 0.46320(6) 0.15853(5)
N37_3 N 0.7357(3) 0.4266(4) 0.15893(17)
N38_3 N 0.8014(3) 0.4435(4) 0.14425(18)
N40_3 N 0.6459(2) 0.4056(4) 0.2435(3)
N41_3 N 0.6479(3) 0.4073(5) 0.2875(3)
Zn6_6 Zn 1.0000 1.0000 0.12171(6)
Zn10_3 Zn 0.82273(4) 0.95276(6) 0.16287(5)
O11_3 O 0.4836(3) 0.7338(4) 0.0964(2)
O12_3 O 0.6088(4) 0.5113(5) 0.0943(3)
O13_3 O 0.5746(4) 0.5238(5) 0.1604(3)
O14_3 O 0.4656(3) 0.8175(4) 0.17571(19)
O16_3 O 0.7121(5) 0.8719(8) 0.1700(4)
O17_3 O 0.7452(6) 0.9748(8) 0.1864(4)
N13_3 N 0.7211(3) 0.4782(4) 0.1464(2)
N16_3 N 0.6261(3) 0.4519(4) 0.2272(2)
N19_3 N 0.8401(3) 0.9613(4) 0.0942(2)
N20_3 N 0.9057(3) 0.9765(4) 0.0789(2)
N22_3 N 0.8645(3) 0.8880(4) 0.17768(17)
N23_3 N 0.9309(3) 0.9066(4) 0.16542(15)
N24_3 N 0.9472(3) 0.8566(4) 0.17791(17)
C45_3 C 0.5492(5) 0.6806(6) 0.0657(3)
C46_3 C 0.5828(4) 0.6538(6) 0.1042(3)
C47_3 C 0.5388(4) 0.5712(6) 0.0980(3)
H45_3 H 0.4925 0.5535 0.1137
C48_3 C 0.5237(8) 0.5569(10) 0.0469(3)
H46_3 H 0.5583 0.5463 0.0327
H47_3 H 0.4755 0.5165 0.0418
C49_3 C 0.5308(7) 0.6263(9) 0.0276(3)
H48_3 H 0.5683 0.6459 0.0046
H49_3 H 0.4858 0.6161 0.0133
C50_3 C 0.6011(6) 0.7600(8) 0.0518(5)
H50_3 H 0.6099 0.7907 0.0777
H51_3 H 0.6458 0.7649 0.0413
H52_3 H 0.5797 0.7735 0.0277
C51_3 C 0.5749(5) 0.6762(7) 0.1514(4)
H53_3 H 0.5249 0.6589 0.1576
H54_3 H 0.5936 0.6563 0.1733
H55_3 H 0.6013 0.7279 0.1535
C52_3 C 0.6627(5) 0.6820(8) 0.0953(5)
H56_3 H 0.6688 0.6682 0.0651
H57_3 H 0.6887 0.7337 0.0976
H58_3 H 0.6809 0.6620 0.1174
C53_3 C 0.4803(4) 0.6755(6) 0.0847(3)
C54_3 C 0.5760(5) 0.5329(6) 0.1186(4)
C55_3 C 0.5215(3) 0.8719(5) 0.2468(3)
C56_3 C 0.5926(3) 0.8662(5) 0.2447(3)
C57_3 C 0.6200(4) 0.8952(6) 0.1963(3)
H59_3 H 0.5886 0.8571 0.1749
C58_3 C 0.6048(5) 0.9564(7) 0.1897(4)
H60_3 H 0.5909 0.9577 0.1583
C59_3 C 0.5441(4) 0.9434(6) 0.2218(3)
H62_3 H 0.5037 0.9401 0.2048
H63_3 H 0.5602 0.9826 0.2436
C60_3 C 0.4927(5) 0.8687(8) 0.2941(3)
H64_3 H 0.4797 0.8230 0.3077
H65_3 H 0.5291 0.9067 0.3124
H66_3 H 0.4510 0.8743 0.2925
C61_3 C 0.5778(5) 0.7886(7) 0.2513(4)
H67_3 H 0.5442 0.7579 0.2285
H68_3 H 0.6221 0.7879 0.2482
H69_3 H 0.5579 0.7717 0.2811
C62_3 C 0.6457(5) 0.9156(8) 0.2803(4)
H70_3 H 0.6545 0.9638 0.2759
H71_3 H 0.6259 0.8990 0.3103
H72_3 H 0.6901 0.9152 0.2774
C63_3 C 0.4627(3) 0.8093(4) 0.2179(3)
C64_3 C 0.6975(4) 0.9148(6) 0.1848(4)
C65_3 C 0.7800(4) 0.5291(6) 0.1226(2)
C66_3 C 0.7934(5) 0.5935(7) 0.1024(3)
H73_3 H 0.7600 0.6092 0.1031
C67_3 C 0.8601(5) 0.6328(7) 0.0813(3)
H74_3 H 0.8716 0.6762 0.0672
C68_3 C 0.9093(5) 0.6103(7) 0.0804(3)
H75_3 H 0.9533 0.6389 0.0659
C69_3 C 0.8959(4) 0.5469(6) 0.1002(3)
H76_3 H 0.9294 0.5313 0.0990
C70_3 C 0.8295(4) 0.5067(6) 0.1223(2)
C71_3 C 0.6158(3) 0.4842(5) 0.2624(3)
C72_3 C 0.5945(4) 0.5361(6) 0.2658(4)
H77_3 H 0.5852 0.5549 0.2397
C73_3 C 0.5876(4) 0.5586(6) 0.3087(4)
H78_3 H 0.5734 0.5930 0.3119
C74_3 C 0.6018(4) 0.5298(6) 0.3471(4)
H79_3 H 0.5969 0.5463 0.3756
C75_3 C 0.6226(4) 0.4786(6) 0.3461(3)
H80_3 H 0.6316 0.4600 0.3725
C76_3 C 0.6292(3) 0.4567(6) 0.3018(3)
C77_3 C 0.7995(4) 0.9554(5) 0.0596(3)
C78_3 C 0.7276(4) 0.9400(6) 0.0563(3)
H81_3 H 0.6991 0.9319 0.0821
C79_3 C 0.7012(4) 0.9374(6) 0.0122(3)
H82_3 H 0.6537 0.9269 0.0088
C82_3 C 0.8408(4) 0.9670(5) 0.0198(3)
C83_3 C 0.8358(4) 0.8232(6) 0.1993(2)
C84_3 C 0.7676(4) 0.7796(6) 0.2186(3)
H85_3 H 0.7325 0.7931 0.2184
C85_3 C 0.7554(5) 0.7155(7) 0.2379(3)
H86_3 H 0.7108 0.6849 0.2511
C86_3 C 0.8081(5) 0.6958(7) 0.2380(4)
H87_3 H 0.7975 0.6522 0.2514
C87_3 C 0.8757(5) 0.7383(7) 0.2191(3)
H88_3 H 0.9105 0.7245 0.2196
C88_3 C 0.8892(4) 0.8031(6) 0.1991(2)
O18_3 O 0.3859(4) 0.8116(3) 0.08916(19)
O19_3 O 0.2662(4) 0.7499(3) 0.0964(2)
O22_3 O 0.1825(4) 0.6482(3) 0.17571(19)
O24_3 O 0.1281(8) 0.8403(6) 0.1700(4)
O25_3 O 0.0252(8) 0.7705(6) 0.1864(4)
N31_3 N 0.0387(4) 0.8789(3) 0.0942(2)
N34_3 N 0.1120(4) 0.9766(3) 0.17768(17)
C89_3 C 0.3194(6) 0.8687(4) 0.0657(3)
C90_3 C 0.3462(6) 0.9291(4) 0.1042(3)
C91_3 C 0.4288(6) 0.9677(4) 0.0980(3)
H89_3 H 0.4465 0.9391 0.1137
C92_3 C 0.4431(10) 0.9669(6) 0.0469(3)
H91_3 H 0.4835 0.9591 0.0418
C93_3 C 0.3737(9) 0.9046(5) 0.0276(3)
H92_3 H 0.3541 0.9225 0.0046
H93_3 H 0.3839 0.8698 0.0133
C94_3 C 0.2400(8) 0.8412(5) 0.0518(5)
H94_3 H 0.2093 0.8193 0.0777
H95_3 H 0.2351 0.8810 0.0413
H96_3 H 0.2265 0.8063 0.0277
C95_3 C 0.3238(7) 0.8988(5) 0.1514(4)
H97_3 H 0.3411 0.8661 0.1576
H98_3 H 0.3437 0.9374 0.1733
H99_3 H 0.2721 0.8735 0.1535
C96_3 C 0.3180(8) 0.9808(6) 0.0953(5)
H101_3 H 0.2663 0.9551 0.0976
C97_3 C 0.3245(6) 0.8049(4) 0.0847(3)
C99_3 C 0.1281(5) 0.6497(4) 0.2468(3)
C100_3 C 0.1338(5) 0.7265(4) 0.2447(3)
C101_3 C 0.1048(6) 0.7249(4) 0.1963(3)
H103_3 H 0.1429 0.7316 0.1749
C102_3 C 0.0436(7) 0.6485(5) 0.1897(4)
H104_3 H 0.0423 0.6333 0.1583
C103_3 C 0.0566(6) 0.6008(4) 0.2218(3)
H106_3 H 0.0599 0.5637 0.2048
H107_3 H 0.0174 0.5777 0.2436
C104_3 C 0.1313(8) 0.6241(6) 0.2941(3)
H108_3 H 0.1770 0.6568 0.3077
H109_3 H 0.0933 0.6225 0.3124
H110_3 H 0.1257 0.5768 0.2925
C105_3 C 0.2114(7) 0.7893(5) 0.2513(4)
H111_3 H 0.2421 0.7864 0.2285
H112_3 H 0.2121 0.8343 0.2482
H113_3 H 0.2283 0.7863 0.2811
C106_3 C 0.0844(8) 0.7302(6) 0.2803(4)
H114_3 H 0.0362 0.6908 0.2759
H115_3 H 0.1010 0.7270 0.3103
H116_3 H 0.0848 0.7750 0.2774
C107_3 C 0.1907(4) 0.6535(3) 0.2179(3)
C108_3 C 0.0852(6) 0.7828(5) 0.1848(4)
H122_3 H 0.4070 0.9805 0.3119
C121_3 C 0.0446(5) 0.8442(3) 0.0596(3)
C122_3 C 0.0600(6) 0.7877(4) 0.0563(3)
H125_3 H 0.0681 0.7673 0.0821
C123_3 C 0.0626(6) 0.7639(4) 0.0122(3)
H126_3 H 0.0731 0.7269 0.0088
C126_3 C 0.0330(5) 0.8739(3) 0.0198(3)
C128_3 C 0.2204(6) 0.9881(5) 0.2186(3)
H129_3 H 0.2069 0.9395 0.2184
C80_3 C 0.7431(4) 0.9499(6) 0.9732(3)
H83_3 H 0.7232 0.9485 0.9447
C81_3 C 0.8128(4) 0.9642(6) 0.9758(3)
H84_3 H 0.8404 0.9717 0.9497
C124_3 C 0.0501(6) 0.7933(4) 0.9732(3)
H127_3 H 0.0515 0.7748 0.9447
C125_3 C 0.0358(6) 0.8487(4) 0.9758(3)
H128_3 H 0.0283 0.8688 0.9497
H105_3 H 0.9978 0.6454 0.1967
loop_
_geom_bond_atom_site_label_1
_geom_bond_atom_site_label_2
_geom_bond_site_symmetry_1
_geom_bond_site_symmetry_2
Zn15 O9 1_555 1_555
O28 Zn2 1_555 1_555
Zn2 O9 1_555 1_555
Zn2_2 O6 1_555 1_555
O5 Zn1 1_555 1_555
O6 C19 1_555 1_555
O9_2 Zn1 1_555 1_555
H16 C14 1_555 1_555
H17 C14 1_555 1_555
C15 C11 1_555 1_555
H18 C15 1_555 1_555
H19 C15 1_555 1_555
C16 C11 1_555 1_555
H20 C16 1_555 1_555
H21 C16 1_555 1_555
H22 C16 1_555 1_555
C19 O5 1_555 1_555
O27 Zn1 1_555 1_555
Zn2_2 O9_2 1_555 1_555
C11 C19 1_555 1_555
C14 C15 1_555 1_555
Zn2_3 O9_3 1_555 1_555
Zn3 O3 1_555 1_555
Zn4 N2 1_555 1_555
Zn5 O7 1_555 1_555
Zn6 N8 1_555 1_555
Zn7 N6 1_555 1_555
O1 C9 1_555 1_555
O2 C9 1_555 1_555
O3 C10 1_555 1_555
O4 Zn3 1_555 1_555
O7 C20 1_555 1_555
O8 Zn5 1_555 1_555
N1 Zn3 1_555 1_555
N2 N1 1_555 1_555
N3 N2 1_555 1_555
N4 Zn3 1_555 1_555
N5 Zn4 1_555 1_555
N6 N5 1_555 1_555
N7 Zn5 1_555 1_555
N8 N7 1_555 1_555
N9 N8 1_555 1_555
N10 Zn5 1_555 1_555
N11 Zn6 1_555 1_555
N12 N11 1_555 1_555
C1 C2 1_555 1_555
C2 C3 1_555 1_555
C3 H1 1_555 1_555
C4 C3 1_555 1_555
H2 C4 1_555 1_555
H3 C4 1_555 1_555
C5 C1 1_555 1_555
H4 C5 1_555 1_555
H5 C5 1_555 1_555
C6 C1 1_555 1_555
H6 C6 1_555 1_555
H7 C6 1_555 1_555
H8 C6 1_555 1_555
C7 C2 1_555 1_555
H9 C7 1_555 1_555
H10 C7 1_555 1_555
H11 C7 1_555 1_555
C8 C2 1_555 1_555
H12 C8 1_555 1_555
H13 C8 1_555 1_555
H14 C8 1_555 1_555
C9 C1 1_555 1_555
C10 O4 1_555 1_555
C12 C13 1_555 1_555
C13 H15 1_555 1_555
C17 C12 1_555 1_555
H23 C17 1_555 1_555
H24 C17 1_555 1_555
H25 C17 1_555 1_555
C18 C12 1_555 1_555
H26 C18 1_555 1_555
H27 C18 1_555 1_555
H28 C18 1_555 1_555
C20 O8 1_555 1_555
C21 N1 1_555 1_555
C22 C21 1_555 1_555
H29 C22 1_555 1_555
C23 C22 1_555 1_555
H30 C23 1_555 1_555
C24 C23 1_555 1_555
H31 C24 1_555 1_555
C25 C24 1_555 1_555
H32 C25 1_555 1_555
C26 N3 1_555 1_555
C27 N4 1_555 1_555
C28 C27 1_555 1_555
H33 C28 1_555 1_555
C29 C28 1_555 1_555
H34 C29 1_555 1_555
C30 C29 1_555 1_555
H35 C30 1_555 1_555
C31 C30 1_555 1_555
H36 C31 1_555 1_555
C32 N6 1_555 1_555
C33 N7 1_555 1_555
C34 C33 1_555 1_555
H37 C34 1_555 1_555
C35 C34 1_555 1_555
H38 C35 1_555 1_555
C36 C35 1_555 1_555
H39 C36 1_555 1_555
C37 C36 1_555 1_555
H40 C37 1_555 1_555
C38 N9 1_555 1_555
C39 N10 1_555 1_555
C40 C39 1_555 1_555
H41 C40 1_555 1_555
C41 C40 1_555 1_555
H42 C41 1_555 1_555
C42 C41 1_555 1_555
H43 C42 1_555 1_555
C43 C42 1_555 1_555
H44 C43 1_555 1_555
C44 N12 1_555 1_555
Zn15 O11 1_555 1_555
Zn10 N12 1_555 1_555
O11 C53 1_555 1_555
O14 Zn15 1_555 1_555
O28 C63 1_555 1_555
O16 Zn10 1_555 1_555
O17 Zn10 1_555 1_555
N19 Zn10 1_555 1_555
N20 Zn6 1_555 1_555
N21 N20 1_555 1_555
N22 Zn10 1_555 1_555
N23 Zn6 1_555 1_555
N24 N23 1_555 1_555
C50 C45 1_555 1_555
H50 C50 1_555 1_555
H51 C50 1_555 1_555
H52 C50 1_555 1_555
H55 C51 1_555 1_555
H56 C52 1_555 1_555
H57 C52 1_555 1_555
C53 C45 1_555 1_555
C55 C56 1_555 1_555
C56 C57 1_555 1_555
C57 H59 1_555 1_555
C58 C57 1_555 1_555
H60 C58 1_555 1_555
H61 C58 1_555 1_555
C59 C55 1_555 1_555
H62 C59 1_555 1_555
H63 C59 1_555 1_555
C60 C55 1_555 1_555
H64 C60 1_555 1_555
H65 C60 1_555 1_555
H66 C60 1_555 1_555
C61 C56 1_555 1_555
H67 C61 1_555 1_555
H68 C61 1_555 1_555
H69 C61 1_555 1_555
C62 C56 1_555 1_555
H70 C62 1_555 1_555
H71 C62 1_555 1_555
H72 C62 1_555 1_555
C63 O14 1_555 1_555
C64 O16 1_555 1_555
C77 N19 1_555 1_555
C78 C77 1_555 1_555
H81 C78 1_555 1_555
C79 C78 1_555 1_555
H82 C79 1_555 1_555
C80 C79 1_555 1_555
H83 C80 1_555 1_555
C81 C80 1_555 1_555
H84 C81 1_555 1_555
C82 N21 1_555 1_555
C83 N22 1_555 1_555
C84 C83 1_555 1_555
H85 C84 1_555 1_555
C85 C84 1_555 1_555
H86 C85 1_555 1_555
C86 C85 1_555 1_555
C87 C86 1_555 1_555
H88 C87 1_555 1_555
C88 N24 1_555 1_555
Zn12 N3 1_555 1_555
O18 Zn15 1_555 1_555
O20 Zn12 1_555 1_555
O21 Zn12 1_555 1_555
N25 Zn12 1_555 1_555
N26 Zn4 1_555 1_555
N27 N26 1_555 1_555
N28 Zn12 1_555 1_555
N29 Zn4 1_555 1_555
N30 Zn7 1_555 1_555
C90 C91 1_555 1_555
C91 H89 1_555 1_555
C92 C91 1_555 1_555
H90 C92 1_555 1_555
H91 C92 1_555 1_555
H92 C93 1_555 1_555
H93 C93 1_555 1_555
C98 O20 1_555 1_555
C109 N25 1_555 1_555
C110 C109 1_555 1_555
H117 C110 1_555 1_555
C111 C110 1_555 1_555
C112 C111 1_555 1_555
H119 C112 1_555 1_555
C113 C112 1_555 1_555
H120 C113 1_555 1_555
C114 N27 1_555 1_555
C115 N28 1_555 1_555
C116 C115 1_555 1_555
H121 C116 1_555 1_555
C117 C116 1_555 1_555
H122 C117 1_555 1_555
C118 C117 1_555 1_555
H123 C118 1_555 1_555
C119 C118 1_555 1_555
H124 C119 1_555 1_555
C120 N30 1_555 1_555
Zn16 O1 1_555 1_555
Zn19 N27 1_555 1_555
Zn22 N24 1_555 1_555
Zn26 N9 1_555 1_555
O29 Zn2_4 1_555 1_555
N37 Zn4 1_555 1_555
N38 Zn3 1_555 1_555
N40 Zn4 1_555 1_555
N41 Zn7 1_555 1_555
N42 Zn6 1_555 1_555
N43 Zn7 1_555 1_555
N44 Zn7 1_555 1_555
N45 Zn7 1_555 1_555
N46 Zn6 1_555 1_555
N48 Zn5 1_555 1_555
Zn2_4 O9_4 1_555 1_555
O9_4 Zn16 1_555 1_555
N4 N5 1_555 1_555
N10 N11 1_555 1_555
C3 C10 1_555 1_555
C4 C5 1_555 1_555
C13 C20 1_555 1_555
C21 C26 1_555 1_555
C25 C26 1_555 1_555
C27 C32 1_555 1_555
C31 C32 1_555 1_555
C33 C38 1_555 1_555
C37 C38 1_555 1_555
C39 C44 1_555 1_555
C43 C44 1_555 1_555
O17 C64 1_555 1_555
N19 N20 1_555 1_555
N21 Zn26 1_555 1_555
N22 N23 1_555 1_555
C55 C63 1_555 1_555
C57 C64 1_555 1_555
C58 C59 1_555 1_555
C77 C82 1_555 1_555
C81 C82 1_555 1_555
C83 C88 1_555 1_555
C87 C88 1_555 1_555
O21 C98 1_555 1_555
N25 N26 1_555 1_555
N28 N29 1_555 1_555
N29 N30 1_555 1_555
C91 C98 1_555 1_555
C92 C93 1_555 1_555
C109 C114 1_555 1_555
C113 C114 1_555 1_555
C115 C120 1_555 1_555
C119 C120 1_555 1_555
N37 N38 1_555 1_555
N40 N41 1_555 1_555
N46 N48 1_555 1_555
Zn19 O12 1_555 1_555
O12 C54 1_555 1_555
O13 Zn19 1_555 1_555
N13 Zn19 1_555 1_555
N37 N13 1_555 1_555
N16 Zn19 1_555 1_555
N40 N16 1_555 1_555
C46 C47 1_555 1_555
C47 H45 1_555 1_555
C48 C47 1_555 1_555
H46 C48 1_555 1_555
H47 C48 1_555 1_555
H48 C49 1_555 1_555
H49 C49 1_555 1_555
C54 O13 1_555 1_555
C65 N13 1_555 1_555
C66 C65 1_555 1_555
H73 C66 1_555 1_555
C67 C66 1_555 1_555
C68 C67 1_555 1_555
H75 C68 1_555 1_555
C69 C68 1_555 1_555
H76 C69 1_555 1_555
C70 N38 1_555 1_555
C71 N16 1_555 1_555
C72 C71 1_555 1_555
H77 C72 1_555 1_555
C73 C72 1_555 1_555
H78 C73 1_555 1_555
C74 C73 1_555 1_555
H79 C74 1_555 1_555
C75 C74 1_555 1_555
H80 C75 1_555 1_555
C76 N41 1_555 1_555
C47 C54 1_555 1_555
C48 C49 1_555 1_555
C65 C70 1_555 1_555
C69 C70 1_555 1_555
C71 C76 1_555 1_555
C75 C76 1_555 1_555
Zn22 O24 1_555 1_555
O19 C97 1_555 1_555
O24 C108 1_555 1_555
O25 Zn22 1_555 1_555
N31 Zn22 1_555 1_555
N42 N31 1_555 1_555
N33 N42 1_555 1_555
N34 Zn22 1_555 1_555
N46 N34 1_555 1_555
C94 C89 1_555 1_555
H94 C94 1_555 1_555
H95 C94 1_555 1_555
H96 C94 1_555 1_555
H99 C95 1_555 1_555
H100 C96 1_555 1_555
H101 C96 1_555 1_555
C100 C101 1_555 1_555
C101 H103 1_555 1_555
C105 C100 1_555 1_555
H111 C105 1_555 1_555
H112 C105 1_555 1_555
H113 C105 1_555 1_555
C106 C100 1_555 1_555
H114 C106 1_555 1_555
H115 C106 1_555 1_555
H116 C106 1_555 1_555
C108 O25 1_555 1_555
C121 N31 1_555 1_555
C122 C121 1_555 1_555
H125 C122 1_555 1_555
C123 C122 1_555 1_555
H126 C123 1_555 1_555
C124 C123 1_555 1_555
H127 C124 1_555 1_555
C125 C124 1_555 1_555
H128 C125 1_555 1_555
C126 N33 1_555 1_555
C127 N34 1_555 1_555
C128 C127 1_555 1_555
H129 C128 1_555 1_555
C129 C128 1_555 1_555
H130 C129 1_555 1_555
C130 C129 1_555 1_555
C131 C130 1_555 1_555
H132 C131 1_555 1_555
C132 N48 1_555 1_555
Zn26 N33 1_555 1_555
C89 C97 1_555 1_555
C101 C108 1_555 1_555
C121 C126 1_555 1_555
C125 C126 1_555 1_555
C127 C132 1_555 1_555
C131 C132 1_555 1_555
O22 Zn16 1_555 1_555
O29 C107 1_555 1_555
H104 C102 1_555 1_555
H105 C102 1_555 1_555
C103 C99 1_555 1_555
H106 C103 1_555 1_555
H107 C103 1_555 1_555
C104 C99 1_555 1_555
H108 C104 1_555 1_555
H109 C104 1_555 1_555
H110 C104 1_555 1_555
C107 O22 1_555 1_555
C99 C107 1_555 1_555
C102 C103 1_555 1_555
H35_2 C30_2 1_555 1_555
C31_2 C30_2 1_555 1_555
H36_2 C31_2 1_555 1_555
Zn1_2 O2_2 1_555 1_555
Zn2_5 O6_2 1_555 1_555
Zn3_2 O3_2 1_555 1_555
Zn7_2 N6_2 1_555 1_555
O1_2 C9_2 1_555 1_555
O2_2 C9_2 1_555 1_555
O3_2 C10_2 1_555 1_555
O4_2 Zn3_2 1_555 1_555
O5_2 Zn1_2 1_555 1_555
O6_2 C19_2 1_555 1_555
O9_5 Zn1_2 1_555 1_555
N4_2 Zn3_2 1_555 1_555
N5_2 Zn4_2 1_555 1_555
N6_2 N5_2 1_555 1_555
C1_2 C2_2 1_555 1_555
C2_2 C3_2 1_555 1_555
C3_2 H1_2 1_555 1_555
C4_2 C3_2 1_555 1_555
H2_2 C4_2 1_555 1_555
H3_2 C4_2 1_555 1_555
C5_2 C1_2 1_555 1_555
H4_2 C5_2 1_555 1_555
H5_2 C5_2 1_555 1_555
C6_2 C1_2 1_555 1_555
H6_2 C6_2 1_555 1_555
H7_2 C6_2 1_555 1_555
H8_2 C6_2 1_555 1_555
C7_2 C2_2 1_555 1_555
H9_2 C7_2 1_555 1_555
H10_2 C7_2 1_555 1_555
H11_2 C7_2 1_555 1_555
C8_2 C2_2 1_555 1_555
C9_2 C1_2 1_555 1_555
C10_2 O4_2 1_555 1_555
C11_2 C12_2 1_555 1_555
C12_2 C13_2 1_555 1_555
C13_2 H15_2 1_555 1_555
C14_2 C13_2 1_555 1_555
H16_2 C14_2 1_555 1_555
H17_2 C14_2 1_555 1_555
C15_2 C11_2 1_555 1_555
H18_2 C15_2 1_555 1_555
H19_2 C15_2 1_555 1_555
C16_2 C11_2 1_555 1_555
H20_2 C16_2 1_555 1_555
H21_2 C16_2 1_555 1_555
H22_2 C16_2 1_555 1_555
C17_2 C12_2 1_555 1_555
H23_2 C17_2 1_555 1_555
H24_2 C17_2 1_555 1_555
H25_2 C17_2 1_555 1_555
C18_2 C12_2 1_555 1_555
H26_2 C18_2 1_555 1_555
H27_2 C18_2 1_555 1_555
C19_2 O5_2 1_555 1_555
C27_2 N4_2 1_555 1_555
C28_2 C27_2 1_555 1_555
H33_2 C28_2 1_555 1_555
C29_2 C28_2 1_555 1_555
H34_2 C29_2 1_555 1_555
C32_2 N6_2 1_555 1_555
Zn15_2 O9_5 1_555 1_555
Zn16_2 O1_2 1_555 1_555
O27_2 Zn1_2 1_555 1_555
O28_2 Zn2_5 1_555 1_555
O29_2 Zn2_5 1_555 1_555
N37_2 Zn4_2 1_555 1_555
N38_2 Zn3_2 1_555 1_555
Zn2_5 O9_5 1_555 1_555
O9_5 Zn16_2 1_555 1_555
N4_2 N5_2 1_555 1_555
C3_2 C10_2 1_555 1_555
C4_2 C5_2 1_555 1_555
C11_2 C19_2 1_555 1_555
C14_2 C15_2 1_555 1_555
C27_2 C32_2 1_555 1_555
N37_2 N38_2 1_555 1_555
Zn4_3 N2_2 1_555 1_555
Zn5_2 O7_2 1_555 1_555
Zn6_2 N8_2 1_555 1_555
O7_2 C20_2 1_555 1_555
O8_2 Zn5_2 1_555 1_555
N2_2 N1_2 1_555 1_555
N7_2 Zn5_2 1_555 1_555
N8_2 N7_2 1_555 1_555
N43 N8_2 1_555 1_555
N10_2 Zn5_2 1_555 1_555
N11_2 Zn6_2 1_555 1_555
N12_2 N11_2 1_555 1_555
C20_2 O8_2 1_555 1_555
C21_2 N1_2 1_555 1_555
C22_2 C21_2 1_555 1_555
H29_2 C22_2 1_555 1_555
C23_2 C22_2 1_555 1_555
H30_2 C23_2 1_555 1_555
C24_2 C23_2 1_555 1_555
H31_2 C24_2 1_555 1_555
C33_2 N7_2 1_555 1_555
C34_2 C33_2 1_555 1_555
H37_2 C34_2 1_555 1_555
C35_2 C34_2 1_555 1_555
C36_2 C35_2 1_555 1_555
H39_2 C36_2 1_555 1_555
C37_2 C36_2 1_555 1_555
H40_2 C37_2 1_555 1_555
C38_2 N43 1_555 1_555
C39_2 N10_2 1_555 1_555
C40_2 C39_2 1_555 1_555
H41_2 C40_2 1_555 1_555
C41_2 C40_2 1_555 1_555
H42_2 C41_2 1_555 1_555
C42_2 C41_2 1_555 1_555
H43_2 C42_2 1_555 1_555
C43_2 C42_2 1_555 1_555
H44_2 C43_2 1_555 1_555
C44_2 N12_2 1_555 1_555
Zn10_2 N12_2 1_555 1_555
O16_2 Zn10_2 1_555 1_555
O17_2 Zn10_2 1_555 1_555
N37_2 N13_2 1_555 1_555
N19_2 Zn10_2 1_555 1_555
N20_2 Zn6_2 1_555 1_555
N44 N20_2 1_555 1_555
N22_2 Zn10_2 1_555 1_555
N23_2 Zn6_2 1_555 1_555
N24_2 N23_2 1_555 1_555
C64_2 O16_2 1_555 1_555
C65_2 N13_2 1_555 1_555
C66_2 C65_2 1_555 1_555
H73_2 C66_2 1_555 1_555
C67_2 C66_2 1_555 1_555
H74_2 C67_2 1_555 1_555
C68_2 C67_2 1_555 1_555
H75_2 C68_2 1_555 1_555
C69_2 C68_2 1_555 1_555
H76_2 C69_2 1_555 1_555
C70_2 N38_2 1_555 1_555
C77_2 N19_2 1_555 1_555
C78_2 C77_2 1_555 1_555
H81_2 C78_2 1_555 1_555
C79_2 C78_2 1_555 1_555
C80_2 C79_2 1_555 1_555
H83_2 C80_2 1_555 1_555
C81_2 C80_2 1_555 1_555
H84_2 C81_2 1_555 1_555
C82_2 N44 1_555 1_555
C83_2 N22_2 1_555 1_555
C84_2 C83_2 1_555 1_555
H85_2 C84_2 1_555 1_555
C85_2 C84_2 1_555 1_555
H86_2 C85_2 1_555 1_555
C86_2 C85_2 1_555 1_555
H87_2 C86_2 1_555 1_555
C87_2 C86_2 1_555 1_555
H88_2 C87_2 1_555 1_555
C88_2 N24_2 1_555 1_555
Zn22_2 N24_2 1_555 1_555
N42_2 Zn6_2 1_555 1_555
N46_2 Zn6_2 1_555 1_555
N48_2 Zn5_2 1_555 1_555
N10_2 N11_2 1_555 1_555
C21_2 C26_2 1_555 1_555
C33_2 C38_2 1_555 1_555
C37_2 C38_2 1_555 1_555
C39_2 C44_2 1_555 1_555
C43_2 C44_2 1_555 1_555
O17_2 C64_2 1_555 1_555
N19_2 N20_2 1_555 1_555
N22_2 N23_2 1_555 1_555
C65_2 C70_2 1_555 1_555
C69_2 C70_2 1_555 1_555
C77_2 C82_2 1_555 1_555
C81_2 C82_2 1_555 1_555
C83_2 C88_2 1_555 1_555
C87_2 C88_2 1_555 1_555
N46_2 N48_2 1_555 1_555
H120_2 C113_2 1_555 1_555
Zn19_2 N27_2 1_555 1_555
N40_2 Zn4_4 1_555 1_555
N41_2 Zn7_4 1_555 1_555
N40_2 N41_2 1_555 1_555
H79_2 C74_2 1_555 1_555
C75_2 C74_2 1_555 1_555
H80_2 C75_2 1_555 1_555
H123_2 C118_2 1_555 1_555
C119_2 C118_2 1_555 1_555
H124_2 C119_2 1_555 1_555
H32_2 C25_2 1_555 1_555
Zn15_2 O11_2 1_555 1_555
Zn19_2 O12_2 1_555 1_555
O27_2 C53_2 1_555 1_555
O11_2 C53_2 1_555 1_555
O12_2 C54_2 1_555 1_555
O13_2 Zn19_2 1_555 1_555
O14_2 Zn15_2 1_555 1_555
O28_2 C63_2 1_555 1_555
N16_2 Zn19_2 1_555 1_555
N40_2 N16_2 1_555 1_555
C45_2 C46_2 1_555 1_555
C46_2 C47_2 1_555 1_555
C47_2 H45_2 1_555 1_555
C48_2 C47_2 1_555 1_555
H46_2 C48_2 1_555 1_555
H47_2 C48_2 1_555 1_555
C49_2 C45_2 1_555 1_555
H48_2 C49_2 1_555 1_555
H49_2 C49_2 1_555 1_555
C50_2 C45_2 1_555 1_555
H50_2 C50_2 1_555 1_555
H51_2 C50_2 1_555 1_555
H52_2 C50_2 1_555 1_555
C51_2 C46_2 1_555 1_555
H53_2 C51_2 1_555 1_555
H54_2 C51_2 1_555 1_555
H55_2 C51_2 1_555 1_555
C52_2 C46_2 1_555 1_555
C53_2 C45_2 1_555 1_555
C54_2 O13_2 1_555 1_555
C55_2 C56_2 1_555 1_555
C56_2 C57_2 1_555 1_555
C57_2 H59_2 1_555 1_555
C58_2 C57_2 1_555 1_555
H60_2 C58_2 1_555 1_555
H61_2 C58_2 1_555 1_555
C59_2 C55_2 1_555 1_555
H62_2 C59_2 1_555 1_555
H63_2 C59_2 1_555 1_555
C60_2 C55_2 1_555 1_555
H64_2 C60_2 1_555 1_555
H65_2 C60_2 1_555 1_555
H66_2 C60_2 1_555 1_555
C61_2 C56_2 1_555 1_555
H67_2 C61_2 1_555 1_555
H68_2 C61_2 1_555 1_555
H69_2 C61_2 1_555 1_555
C62_2 C56_2 1_555 1_555
H70_2 C62_2 1_555 1_555
H71_2 C62_2 1_555 1_555
C63_2 O14_2 1_555 1_555
C71_2 N16_2 1_555 1_555
C72_2 C71_2 1_555 1_555
H77_2 C72_2 1_555 1_555
C73_2 C72_2 1_555 1_555
H78_2 C73_2 1_555 1_555
C76_2 N41_2 1_555 1_555
Zn16_2 O19_2 1_555 1_555
Zn12_2 N3_2 1_555 1_555
Zn22_2 O24_2 1_555 1_555
O18_2 Zn15_2 1_555 1_555
O19_2 C97_2 1_555 1_555
O20_2 Zn12_2 1_555 1_555
O21_2 Zn12_2 1_555 1_555
O22_2 Zn16_2 1_555 1_555
O29_2 C107_2 1_555 1_555
O24_2 C108_2 1_555 1_555
O25_2 Zn22_2 1_555 1_555
N25_2 Zn12_2 1_555 1_555
N26_2 Zn4_5 1_555 1_555
N28_2 Zn12_2 1_555 1_555
N29_2 Zn4_5 1_555 1_555
N30_2 Zn7_5 1_555 1_555
N31_2 Zn22_2 1_555 1_555
N42_2 N31_2 1_555 1_555
N45 N42_2 1_555 1_555
N34_2 Zn22_2 1_555 1_555
N46_2 N34_2 1_555 1_555
C89_2 C90_2 1_555 1_555
C90_2 C91_2 1_555 1_555
C91_2 H89_2 1_555 1_555
C92_2 C91_2 1_555 1_555
H90_2 C92_2 1_555 1_555
H91_2 C92_2 1_555 1_555
C93_2 C89_2 1_555 1_555
H92_2 C93_2 1_555 1_555
H93_2 C93_2 1_555 1_555
C94_2 C89_2 1_555 1_555
H94_2 C94_2 1_555 1_555
H95_2 C94_2 1_555 1_555
H96_2 C94_2 1_555 1_555
C95_2 C90_2 1_555 1_555
H97_2 C95_2 1_555 1_555
H98_2 C95_2 1_555 1_555
H99_2 C95_2 1_555 1_555
C96_2 C90_2 1_555 1_555
H100_2 C96_2 1_555 1_555
H101_2 C96_2 1_555 1_555
H102_2 C96_2 1_555 1_555
C97_2 O18_2 1_555 1_555
C98_2 O20_2 1_555 1_555
C99_2 C100_2 1_555 1_555
C100_2 C101_2 1_555 1_555
C101_2 H103_2 1_555 1_555
C102_2 C101_2 1_555 1_555
H104_2 C102_2 1_555 1_555
H105_2 C102_2 1_555 1_555
C103_2 C99_2 1_555 1_555
H106_2 C103_2 1_555 1_555
H107_2 C103_2 1_555 1_555
C104_2 C99_2 1_555 1_555
H108_2 C104_2 1_555 1_555
H109_2 C104_2 1_555 1_555
H110_2 C104_2 1_555 1_555
C105_2 C100_2 1_555 1_555
H111_2 C105_2 1_555 1_555
H112_2 C105_2 1_555 1_555
H113_2 C105_2 1_555 1_555
C106_2 C100_2 1_555 1_555
H114_2 C106_2 1_555 1_555
H115_2 C106_2 1_555 1_555
H116_2 C106_2 1_555 1_555
C107_2 O22_2 1_555 1_555
C108_2 O25_2 1_555 1_555
C109_2 N25_2 1_555 1_555
C110_2 C109_2 1_555 1_555
H117_2 C110_2 1_555 1_555
C111_2 C110_2 1_555 1_555
H118_2 C111_2 1_555 1_555
C112_2 C111_2 1_555 1_555
H119_2 C112_2 1_555 1_555
C115_2 N28_2 1_555 1_555
C116_2 C115_2 1_555 1_555
H121_2 C116_2 1_555 1_555
C117_2 C116_2 1_555 1_555
H122_2 C117_2 1_555 1_555
C120_2 N30_2 1_555 1_555
C121_2 N31_2 1_555 1_555
C122_2 C121_2 1_555 1_555
H125_2 C122_2 1_555 1_555
C123_2 C122_2 1_555 1_555
H126_2 C123_2 1_555 1_555
C124_2 C123_2 1_555 1_555
H127_2 C124_2 1_555 1_555
C125_2 C124_2 1_555 1_555
H128_2 C125_2 1_555 1_555
C126_2 N45 1_555 1_555
C127_2 N34_2 1_555 1_555
C128_2 C127_2 1_555 1_555
H129_2 C128_2 1_555 1_555
C129_2 C128_2 1_555 1_555
H130_2 C129_2 1_555 1_555
C130_2 C129_2 1_555 1_555
H131_2 C130_2 1_555 1_555
C131_2 C130_2 1_555 1_555
H132_2 C131_2 1_555 1_555
C132_2 N48_2 1_555 1_555
C47_2 C54_2 1_555 1_555
C48_2 C49_2 1_555 1_555
C55_2 C63_2 1_555 1_555
C58_2 C59_2 1_555 1_555
C71_2 C76_2 1_555 1_555
O21_2 C98_2 1_555 1_555
N25_2 N26_2 1_555 1_555
N28_2 N29_2 1_555 1_555
N29_2 N30_2 1_555 1_555
C89_2 C97_2 1_555 1_555
C91_2 C98_2 1_555 1_555
C92_2 C93_2 1_555 1_555
C99_2 C107_2 1_555 1_555
C101_2 C108_2 1_555 1_555
C102_2 C103_2 1_555 1_555
C109_2 C114_2 1_555 1_555
C115_2 C120_2 1_555 1_555
C121_2 C126_2 1_555 1_555
C125_2 C126_2 1_555 1_555
C127_2 C132_2 1_555 1_555
C131_2 C132_2 1_555 1_555
Zn1_3 O2_3 1_555 1_555
Zn2_6 O6_3 1_555 1_555
Zn5_3 O7_3 1_555 1_555
Zn6_3 N8_3 1_555 1_555
O1_3 C9_3 1_555 1_555
O2_3 C9_3 1_555 1_555
O5_3 Zn1_3 1_555 1_555
O6_3 C19_3 1_555 1_555
O7_3 C20_3 1_555 1_555
O8_3 Zn5_3 1_555 1_555
O9_6 Zn1_3 1_555 1_555
N7_3 Zn5_3 1_555 1_555
N8_3 N7_3 1_555 1_555
N43_2 N8_3 1_555 1_555
N10_3 Zn5_3 1_555 1_555
C1_3 C2_3 1_555 1_555
C2_3 C3_3 1_555 1_555
C3_3 H1_3 1_555 1_555
C4_3 C3_3 1_555 1_555
H3_3 C4_3 1_555 1_555
C5_3 C1_3 1_555 1_555
H4_3 C5_3 1_555 1_555
H5_3 C5_3 1_555 1_555
C6_3 C1_3 1_555 1_555
H6_3 C6_3 1_555 1_555
H7_3 C6_3 1_555 1_555
H8_3 C6_3 1_555 1_555
C7_3 C2_3 1_555 1_555
H9_3 C7_3 1_555 1_555
H10_3 C7_3 1_555 1_555
H11_3 C7_3 1_555 1_555
C8_3 C2_3 1_555 1_555
H13_3 C8_3 1_555 1_555
C9_3 C1_3 1_555 1_555
C11_3 C12_3 1_555 1_555
C12_3 C13_3 1_555 1_555
C13_3 H15_3 1_555 1_555
C14_3 C13_3 1_555 1_555
H16_3 C14_3 1_555 1_555
H17_3 C14_3 1_555 1_555
C15_3 C11_3 1_555 1_555
H18_3 C15_3 1_555 1_555
H19_3 C15_3 1_555 1_555
C16_3 C11_3 1_555 1_555
H20_3 C16_3 1_555 1_555
H21_3 C16_3 1_555 1_555
H22_3 C16_3 1_555 1_555
C17_3 C12_3 1_555 1_555
H23_3 C17_3 1_555 1_555
H24_3 C17_3 1_555 1_555
H25_3 C17_3 1_555 1_555
C18_3 C12_3 1_555 1_555
H26_3 C18_3 1_555 1_555
H27_3 C18_3 1_555 1_555
H28_3 C18_3 1_555 1_555
C19_3 O5_3 1_555 1_555
C20_3 O8_3 1_555 1_555
C33_3 N7_3 1_555 1_555
C34_3 C33_3 1_555 1_555
H37_3 C34_3 1_555 1_555
C35_3 C34_3 1_555 1_555
H38_3 C35_3 1_555 1_555
C38_3 N43_2 1_555 1_555
H41_3 C40_3 1_555 1_555
Zn15_3 O9_6 1_555 1_555
Zn16_3 O1_3 1_555 1_555
O27_3 Zn1_3 1_555 1_555
O28_3 Zn2_6 1_555 1_555
O29_3 Zn2_6 1_555 1_555
N46_3 Zn6_3 1_555 1_555
N48_3 Zn5_3 1_555 1_555
Zn2_6 O9_6 1_555 1_555
O9_6 Zn16_3 1_555 1_555
C4_3 C5_3 1_555 1_555
C11_3 C19_3 1_555 1_555
C13_3 C20_3 1_555 1_555
C14_3 C15_3 1_555 1_555
C33_3 C38_3 1_555 1_555
N46_3 N48_3 1_555 1_555
H39_3 C36_3 1_555 1_555
C37_3 C36_3 1_555 1_555
H40_3 C37_3 1_555 1_555
N42_3 Zn6_4 1_555 1_555
Zn3_3 O3_3 1_555 1_555
Zn4_6 N2_3 1_555 1_555
Zn26 N6_3 1_555 1_555
O3_3 C10_3 1_555 1_555
O4_3 Zn3_3 1_555 1_555
N1_3 Zn3_3 1_555 1_555
N2_3 N1_3 1_555 1_555
N3_3 N2_3 1_555 1_555
N4_3 Zn3_3 1_555 1_555
N5_3 Zn4_6 1_555 1_555
N6_3 N5_3 1_555 1_555
N11_3 Zn6_5 1_555 1_555
N12_3 N11_3 1_555 1_555
C10_3 O4_3 1_555 1_555
C21_3 N1_3 1_555 1_555
C22_3 C21_3 1_555 1_555
H29_3 C22_3 1_555 1_555
C23_3 C22_3 1_555 1_555
H30_3 C23_3 1_555 1_555
C24_3 C23_3 1_555 1_555
H31_3 C24_3 1_555 1_555
C25_3 C24_3 1_555 1_555
H32_3 C25_3 1_555 1_555
C26_3 N3_3 1_555 1_555
C27_3 N4_3 1_555 1_555
C28_3 C27_3 1_555 1_555
H33_3 C28_3 1_555 1_555
C29_3 C28_3 1_555 1_555
C30_3 C29_3 1_555 1_555
H35_3 C30_3 1_555 1_555
C31_3 C30_3 1_555 1_555
H36_3 C31_3 1_555 1_555
C32_3 N6_3 1_555 1_555
H42_3 C41_3 1_555 1_555
C42_3 C41_3 1_555 1_555
H43_3 C42_3 1_555 1_555
C43_3 C42_3 1_555 1_555
H44_3 C43_3 1_555 1_555
C44_3 N12_3 1_555 1_555
Zn12_3 N3_3 1_555 1_555
O20_3 Zn12_3 1_555 1_555
O21_3 Zn12_3 1_555 1_555
N25_3 Zn12_3 1_555 1_555
N26_3 Zn4_6 1_555 1_555
N27_3 N26_3 1_555 1_555
N28_3 Zn12_3 1_555 1_555
N29_3 Zn4_6 1_555 1_555
N30_3 Zn26 1_555 1_555
C98_3 O20_3 1_555 1_555
C109_3 N25_3 1_555 1_555
C110_3 C109_3 1_555 1_555
H117_3 C110_3 1_555 1_555
C111_3 C110_3 1_555 1_555
H118_3 C111_3 1_555 1_555
C112_3 C111_3 1_555 1_555
H119_3 C112_3 1_555 1_555
C113_3 C112_3 1_555 1_555
H120_3 C113_3 1_555 1_555
C114_3 N27_3 1_555 1_555
C115_3 N28_3 1_555 1_555
C116_3 C115_3 1_555 1_555
H121_3 C116_3 1_555 1_555
C117_3 C116_3 1_555 1_555
C118_3 C117_3 1_555 1_555
H123_3 C118_3 1_555 1_555
C119_3 C118_3 1_555 1_555
H124_3 C119_3 1_555 1_555
C120_3 N30_3 1_555 1_555
H130_3 C129_3 1_555 1_555
C130_3 C129_3 1_555 1_555
H131_3 C130_3 1_555 1_555
C131_3 C130_3 1_555 1_555
H132_3 C131_3 1_555 1_555
C132_3 N48_3 1_555 1_555
Zn19_3 N27_3 1_555 1_555
N37_3 Zn4_6 1_555 1_555
N38_3 Zn3_3 1_555 1_555
N40_3 Zn4_6 1_555 1_555
N41_3 Zn26 1_555 1_555
N4_3 N5_3 1_555 1_555
C21_3 C26_3 1_555 1_555
C25_3 C26_3 1_555 1_555
C27_3 C32_3 1_555 1_555
C31_3 C32_3 1_555 1_555
C39_3 C44_3 1_555 1_555
C43_3 C44_3 1_555 1_555
O21_3 C98_3 1_555 1_555
N25_3 N26_3 1_555 1_555
N28_3 N29_3 1_555 1_555
N29_3 N30_3 1_555 1_555
C109_3 C114_3 1_555 1_555
C113_3 C114_3 1_555 1_555
C115_3 C120_3 1_555 1_555
C119_3 C120_3 1_555 1_555
C127_3 C132_3 1_555 1_555
C131_3 C132_3 1_555 1_555
N37_3 N38_3 1_555 1_555
N40_3 N41_3 1_555 1_555
Zn15_3 O11_3 1_555 1_555
Zn19_3 O12_3 1_555 1_555
O27_3 C53_3 1_555 1_555
O11_3 C53_3 1_555 1_555
O12_3 C54_3 1_555 1_555
O13_3 Zn19_3 1_555 1_555
O14_3 Zn15_3 1_555 1_555
O28_3 C63_3 1_555 1_555
O16_3 Zn10_3 1_555 1_555
O17_3 Zn10_3 1_555 1_555
N13_3 Zn19_3 1_555 1_555
N37_3 N13_3 1_555 1_555
N16_3 Zn19_3 1_555 1_555
N40_3 N16_3 1_555 1_555
N19_3 Zn10_3 1_555 1_555
N20_3 Zn6_6 1_555 1_555
N44_2 N20_3 1_555 1_555
N22_3 Zn10_3 1_555 1_555
N23_3 Zn6_6 1_555 1_555
N24_3 N23_3 1_555 1_555
C45_3 C46_3 1_555 1_555
C46_3 C47_3 1_555 1_555
C47_3 H45_3 1_555 1_555
C48_3 C47_3 1_555 1_555
H46_3 C48_3 1_555 1_555
H47_3 C48_3 1_555 1_555
C49_3 C45_3 1_555 1_555
H48_3 C49_3 1_555 1_555
H49_3 C49_3 1_555 1_555
C50_3 C45_3 1_555 1_555
H50_3 C50_3 1_555 1_555
H51_3 C50_3 1_555 1_555
H52_3 C50_3 1_555 1_555
C51_3 C46_3 1_555 1_555
H53_3 C51_3 1_555 1_555
H54_3 C51_3 1_555 1_555
H55_3 C51_3 1_555 1_555
C52_3 C46_3 1_555 1_555
H56_3 C52_3 1_555 1_555
H57_3 C52_3 1_555 1_555
H58_3 C52_3 1_555 1_555
C53_3 C45_3 1_555 1_555
C54_3 O13_3 1_555 1_555
C55_3 C56_3 1_555 1_555
C56_3 C57_3 1_555 1_555
C57_3 H59_3 1_555 1_555
C58_3 C57_3 1_555 1_555
H60_3 C58_3 1_555 1_555
C59_3 C55_3 1_555 1_555
H62_3 C59_3 1_555 1_555
H63_3 C59_3 1_555 1_555
C60_3 C55_3 1_555 1_555
H64_3 C60_3 1_555 1_555
H65_3 C60_3 1_555 1_555
H66_3 C60_3 1_555 1_555
C61_3 C56_3 1_555 1_555
H67_3 C61_3 1_555 1_555
H68_3 C61_3 1_555 1_555
H69_3 C61_3 1_555 1_555
C62_3 C56_3 1_555 1_555
H70_3 C62_3 1_555 1_555
H71_3 C62_3 1_555 1_555
H72_3 C62_3 1_555 1_555
C63_3 O14_3 1_555 1_555
C64_3 O16_3 1_555 1_555
C65_3 N13_3 1_555 1_555
C66_3 C65_3 1_555 1_555
H73_3 C66_3 1_555 1_555
C67_3 C66_3 1_555 1_555
H74_3 C67_3 1_555 1_555
C68_3 C67_3 1_555 1_555
H75_3 C68_3 1_555 1_555
C69_3 C68_3 1_555 1_555
H76_3 C69_3 1_555 1_555
C70_3 N38_3 1_555 1_555
C71_3 N16_3 1_555 1_555
C72_3 C71_3 1_555 1_555
H77_3 C72_3 1_555 1_555
C73_3 C72_3 1_555 1_555
H78_3 C73_3 1_555 1_555
C74_3 C73_3 1_555 1_555
H79_3 C74_3 1_555 1_555
C75_3 C74_3 1_555 1_555
H80_3 C75_3 1_555 1_555
C76_3 N41_3 1_555 1_555
C77_3 N19_3 1_555 1_555
C78_3 C77_3 1_555 1_555
H81_3 C78_3 1_555 1_555
C79_3 C78_3 1_555 1_555
H82_3 C79_3 1_555 1_555
C82_3 N44_2 1_555 1_555
C83_3 N22_3 1_555 1_555
C84_3 C83_3 1_555 1_555
H85_3 C84_3 1_555 1_555
C85_3 C84_3 1_555 1_555
H86_3 C85_3 1_555 1_555
C86_3 C85_3 1_555 1_555
H87_3 C86_3 1_555 1_555
C87_3 C86_3 1_555 1_555
H88_3 C87_3 1_555 1_555
C88_3 N24_3 1_555 1_555
Zn16_3 O19_3 1_555 1_555
Zn22_3 O24_3 1_555 1_555
O18_3 Zn15_3 1_555 1_555
O19_3 C97_3 1_555 1_555
O22_3 Zn16_3 1_555 1_555
O29_3 C107_3 1_555 1_555
O24_3 C108_3 1_555 1_555
O25_3 Zn22_3 1_555 1_555
N31_3 Zn22_3 1_555 1_555
N42_3 N31_3 1_555 1_555
N45_2 N42_3 1_555 1_555
N34_3 Zn22_3 1_555 1_555
C89_3 C90_3 1_555 1_555
C90_3 C91_3 1_555 1_555
C91_3 H89_3 1_555 1_555
C92_3 C91_3 1_555 1_555
H91_3 C92_3 1_555 1_555
C93_3 C89_3 1_555 1_555
H92_3 C93_3 1_555 1_555
H93_3 C93_3 1_555 1_555
C94_3 C89_3 1_555 1_555
H94_3 C94_3 1_555 1_555
H95_3 C94_3 1_555 1_555
H96_3 C94_3 1_555 1_555
C95_3 C90_3 1_555 1_555
H97_3 C95_3 1_555 1_555
H98_3 C95_3 1_555 1_555
H99_3 C95_3 1_555 1_555
C96_3 C90_3 1_555 1_555
H101_3 C96_3 1_555 1_555
C97_3 O18_3 1_555 1_555
C99_3 C100_3 1_555 1_555
C100_3 C101_3 1_555 1_555
C101_3 H103_3 1_555 1_555
C102_3 C101_3 1_555 1_555
H104_3 C102_3 1_555 1_555
C103_3 C99_3 1_555 1_555
H106_3 C103_3 1_555 1_555
H107_3 C103_3 1_555 1_555
C104_3 C99_3 1_555 1_555
H108_3 C104_3 1_555 1_555
H109_3 C104_3 1_555 1_555
H110_3 C104_3 1_555 1_555
C105_3 C100_3 1_555 1_555
H111_3 C105_3 1_555 1_555
H112_3 C105_3 1_555 1_555
H113_3 C105_3 1_555 1_555
C106_3 C100_3 1_555 1_555
H114_3 C106_3 1_555 1_555
H115_3 C106_3 1_555 1_555
H116_3 C106_3 1_555 1_555
C107_3 O22_3 1_555 1_555
C108_3 O25_3 1_555 1_555
C121_3 N31_3 1_555 1_555
C122_3 C121_3 1_555 1_555
H125_3 C122_3 1_555 1_555
C123_3 C122_3 1_555 1_555
H126_3 C123_3 1_555 1_555
C126_3 N45_2 1_555 1_555
H129_3 C128_3 1_555 1_555
O17_3 C64_3 1_555 1_555
N19_3 N20_3 1_555 1_555
N22_3 N23_3 1_555 1_555
C47_3 C54_3 1_555 1_555
C48_3 C49_3 1_555 1_555
C55_3 C63_3 1_555 1_555
C57_3 C64_3 1_555 1_555
C58_3 C59_3 1_555 1_555
C65_3 C70_3 1_555 1_555
C69_3 C70_3 1_555 1_555
C71_3 C76_3 1_555 1_555
C75_3 C76_3 1_555 1_555
C77_3 C82_3 1_555 1_555
C83_3 C88_3 1_555 1_555
C87_3 C88_3 1_555 1_555
C89_3 C97_3 1_555 1_555
C92_3 C93_3 1_555 1_555
C99_3 C107_3 1_555 1_555
C101_3 C108_3 1_555 1_555
C102_3 C103_3 1_555 1_555
C121_3 C126_3 1_555 1_555
H83_3 C80_3 1_555 1_555
C81_3 C80_3 1_555 1_555
H84_3 C81_3 1_555 1_555
H127_3 C124_3 1_555 1_555
C125_3 C124_3 1_555 1_555
H128_3 C125_3 1_555 1_555

#END
