
###############################################################################
#
# This file contains modified crystal structure data generated from the
# MOF subset of the Cambridge Structural Database (CSD) v543 
# hosted by the Cambridge Crystallographic Data Centre (CCDC).
#
# This work is licensed under the Creative Commons
# Attribution-NonCommercial-ShareAlike 4.0 International License.
# To view a copy of this license, visit
# http://creativecommons.org/licenses/by-nc-sa/4.0/
# or send a letter to
# Creative Commons, PO Box 1866, Mountain View, CA 94042, USA.
#
# CIF created using the CSD Python API on 29 September 2022
# The structure has been converted into the P1 space group
# The structure has a 3D framework
# The original CSD entry WIKXUJ is in the orthorhombic crystal system
# The original CSD entry WIKXUJ is in a Sohncke space group
# The framework has been calculated to contain at least 10.0% void space
# The void calculation uses a probe of radius 1.32A, grid spacing 0.4
# The framework is charged, counterions have been retained in the structure
#
###############################################################################

data_WIKXUJ
_chemical_formula_moiety         '(C252 H376 Cl8 Co4 Li8 N56 O68 P4)n'
_symmetry_cell_setting           triclinic
_symmetry_space_group_name_H-M   'P 1'
_symmetry_Int_Tables_number      1
_space_group_name_Hall           'P 1'
loop_
_symmetry_equiv_pos_site_id
_symmetry_equiv_pos_as_xyz
1 x,y,z
_cell_length_a                   15.360(1)
_cell_length_b                   22.493(1)
_cell_length_c                   23.830(1)
_cell_angle_alpha                90
_cell_angle_beta                 90
_cell_angle_gamma                90
_cell_volume                     8233.09
loop_
_atom_site_label
_atom_site_type_symbol
_atom_site_fract_x
_atom_site_fract_y
_atom_site_fract_z
Co1 Co 0.29304(3) 0.098814(18) 0.218785(19)
C1 C 0.2612(2) 0.12333(15) 0.14593(16)
N1 N 0.2395(2) 0.13900(15) 0.10166(15)
C2 C 0.1916(2) 0.19000(14) 0.27380(15)
C3 C 0.0945(2) 0.21006(15) 0.26838(15)
C4 C 0.0454(2) 0.14915(15) 0.27361(15)
C5 C 0.1094(2) 0.10875(15) 0.24432(14)
C6 C 0.0856(2) 0.05407(14) 0.21487(15)
C7 C 0.1482(2) 0.01523(15) 0.19726(15)
C12 C 0.4254(2) 0.02049(15) 0.17538(15)
C13 C 0.5141(2) 0.01854(15) 0.14683(16)
C14 C 0.5575(2) 0.07478(15) 0.17199(16)
H4 H 0.5907 0.0960 0.1419
C15 C 0.4798(2) 0.11178(15) 0.18880(15)
C16 C 0.4832(2) 0.17092(15) 0.20226(15)
C17 C 0.4080(2) 0.20257(14) 0.22203(15)
C18 C 0.4002(2) 0.27048(14) 0.22937(14)
C19 C 0.3103(2) 0.27583(14) 0.25949(15)
H5 H 0.3204 0.2699 0.3006
C20 C 0.2614(2) 0.22101(15) 0.23751(15)
H6 H 0.2358 0.2306 0.2000
C21 C 0.2234(2) 0.18647(15) 0.33561(15)
H7 H 0.1875 0.1579 0.3563
H8 H 0.2185 0.2257 0.3531
H9 H 0.2843 0.1735 0.3364
N2 N 0.18804(18) 0.12894(12) 0.24776(12)
N3 N 0.23760(19) 0.02439(12) 0.20411(12)
N4 N 0.40608(19) 0.07509(12) 0.19266(13)
N5 N 0.33248(18) 0.17717(12) 0.23001(12)
C22 C 0.0666(3) 0.25717(17) 0.31138(19)
H10 H 0.0969 0.2946 0.3035
H11 H 0.0815 0.2435 0.3492
H12 H 0.0036 0.2634 0.3088
C23 C 0.0758(2) 0.23471(16) 0.20796(17)
H13 H 0.1137 0.2696 0.2011
H14 H 0.0913 0.2038 0.1801
H16 H 0.0120 0.3316 0.1750
C25 C 0.0241(3) 0.12808(17) 0.33500(16)
H17 H 0.0766 0.1092 0.3512
H18 H 0.0100 0.1633 0.3582
N8 N 0.0828(2) 0.05725(17) 0.06836(15)
H31 H 0.0428 0.0781 0.0508
H32 H 0.1279 0.0753 0.0836
C35 C 0.4970(3) 0.02781(18) 0.08291(16)
H40 H 0.5527 0.0318 0.0632
H41 H 0.4623 0.0639 0.0774
C37 C 0.6169(2) 0.06448(15) 0.22243(17)
H45 H 0.5960 0.0293 0.2435
H46 H 0.6133 0.0993 0.2477
C38 C 0.7127(2) 0.05461(16) 0.20569(17)
H47 H 0.7439 0.0345 0.2367
H48 H 0.7155 0.0287 0.1722
C39 C 0.7563(2) 0.11326(18) 0.19302(18)
O5 O 0.76441(17) 0.15054(11) 0.23125(13)
N10 N 0.7831(3) 0.12219(18) 0.14101(18)
H49 H 0.8082 0.1560 0.1319
H50 H 0.7758 0.0943 0.1155
C40 C 0.5690(2) 0.20328(15) 0.19638(18)
H51 H 0.5947 0.2092 0.2336
H52 H 0.5592 0.2420 0.1786
H53 H 0.6087 0.1796 0.1732
C41 C 0.4008(2) 0.29810(15) 0.17023(15)
H54 H 0.4532 0.2852 0.1501
H55 H 0.4007 0.3415 0.1733
H56 H 0.3490 0.2851 0.1496
C42 C 0.4692(2) 0.29983(14) 0.26838(15)
H57 H 0.5246 0.3029 0.2474
H58 H 0.4498 0.3408 0.2770
C43 C 0.4873(2) 0.26745(16) 0.32451(17)
H59 H 0.4317 0.2615 0.3448
H60 H 0.5125 0.2278 0.3167
C44 C 0.5492(2) 0.30242(15) 0.36099(16)
O6 O 0.62426(16) 0.31334(11) 0.34548(11)
N11 N 0.5171(2) 0.32337(13) 0.41018(14)
H61 H 0.4634 0.3145 0.4198
C45 C 0.2663(2) 0.33584(15) 0.25193(16)
H62 H 0.2145 0.3309 0.2277
H63 H 0.3070 0.3632 0.2326
C46 C 0.2384(2) 0.36370(15) 0.30751(16)
O7 O 0.26978(17) 0.34735(11) 0.35300(11)
N12 N 0.1812(2) 0.40717(13) 0.30358(15)
H64 H 0.1637 0.4259 0.3340
H65 H 0.1604 0.4175 0.2706
C47 C 0.5698(3) 0.36040(16) 0.44757(17)
H66 H 0.5303 0.3828 0.4726
H67 H 0.6021 0.3897 0.4246
C48 C 0.6344(3) 0.32649(16) 0.48338(16)
H68 H 0.6711 0.3005 0.4589
C49 C 0.6932(3) 0.36800(18) 0.51753(18)
H69 H 0.6574 0.3922 0.5427
H70 H 0.7256 0.3940 0.4920
H71 H 0.7342 0.3443 0.5397
P1 P 0.59742(6) 0.22042(4) 0.52579(4)
O8 O 0.57985(17) 0.20307(10) 0.46053(10)
O9 O 0.58485(17) 0.28983(10) 0.52243(11)
O10 O 0.68948(17) 0.20553(11) 0.53912(11)
O11 O 0.52861(17) 0.19567(11) 0.56306(11)
C50 C 0.4916(2) 0.06456(16) 0.40716(16)
H72 H 0.4993 0.0298 0.4328
C51 C 0.4771(2) 0.12120(15) 0.44185(16)
H73 H 0.4485 0.1130 0.4787
C52 C 0.5720(2) 0.14145(15) 0.44835(16)
H74 H 0.6017 0.1174 0.4780
C53 C 0.6110(2) 0.12740(15) 0.39066(16)
H75 H 0.5968 0.1598 0.3634
C54 C 0.7071(3) 0.11667(17) 0.39197(16)
H76 H 0.7373 0.1544 0.4009
H77 H 0.7206 0.0878 0.4221
O12 O 0.56820(17) 0.07260(11) 0.37429(11)
O13 O 0.42877(16) 0.16169(11) 0.40831(11)
H78 H 0.4026 0.1860 0.4292
O14 O 0.73926(18) 0.09412(14) 0.33934(13)
H79 H 0.7471 0.1225 0.3170
N13 N 0.4204(2) 0.05301(12) 0.36842(13)
C55 C 0.4071(2) 0.08017(14) 0.31797(15)
H80 H 0.4496 0.1043 0.3001
N14 N 0.32976(18) 0.06980(12) 0.29641(13)
C56 C 0.2037(3) 0.01099(14) 0.33928(16)
H81 H 0.1636 0.0180 0.3097
C60 C 0.3435(2) 0.02424(15) 0.38246(15)
C61 C 0.2861(2) 0.03485(14) 0.33725(15)
Li1 Li 0.2337(4) 0.3647(3) 0.4285(3)
O16 O 0.33088(19) 0.40199(12) 0.46608(12)
H91 H 0.3254 0.4424 0.4659
H92 H 0.3627 0.3905 0.4969
O17 O 0.1523(2) 0.43545(14) 0.42372(13)
H93 H 0.1824 0.4665 0.4390
H94 H 0.0941 0.4436 0.4247
Li4 Li 0.8031(4) 0.2322(3) 0.2379(3)
Li5 Li 0.7337(4) 0.1353(3) 0.5715(3)
O18 O 0.18948(17) 0.29447(11) 0.46088(11)
C8 C 0.1367(2) 0.95475(16) 0.16647(17)
C9 C 0.2211(2) 0.92311(15) 0.18615(17)
H2 H 0.2415 0.8943 0.1570
C10 C 0.2828(2) 0.97520(15) 0.18987(16)
C11 C 0.3692(2) 0.97237(16) 0.17782(17)
H3 H 0.3930 0.9342 0.1705
C29 C 0.0561(3) 0.91776(17) 0.17855(19)
H26 H 0.0436 0.9187 0.2189
H27 H 0.0663 0.8766 0.1668
H28 H 0.0065 0.9341 0.1578
C30 C 0.1468(3) 0.96477(18) 0.10124(17)
H29 H 0.2023 0.9860 0.0947
H30 H 0.1517 0.9253 0.0831
C31 C 0.0753(3) 0.99885(19) 0.07189(16)
O3 O 0.01220(19) 0.97220(16) 0.05072(13)
C32 C 0.2125(2) 0.89159(16) 0.24398(18)
H33 H 0.1798 0.9178 0.2698
H34 H 0.1784 0.8546 0.2391
C33 C 0.2999(2) 0.87605(17) 0.27066(19)
H35 H 0.3382 0.8586 0.2416
H36 H 0.3277 0.9131 0.2841
C34 C 0.2932(3) 0.83348(19) 0.3185(2)
O4 O 0.2429(2) 0.78931(14) 0.31604(14)
N9 N 0.3447(4) 0.8417(2) 0.3630(2)
H37 H 0.3437 0.8162 0.3910
H38 H 0.3796 0.8727 0.3644
H39 H 0.4652 0.9935 0.0680
C36 C 0.5635(2) 0.96013(16) 0.15560(18)
H42 H 0.5704 0.9527 0.1959
H43 H 0.6210 0.9629 0.1379
H44 H 0.5306 0.9274 0.1386
C57 C 0.1796(2) 0.97613(16) 0.38582(17)
C58 C 0.2387(3) 0.96596(18) 0.43065(17)
C59 C 0.3213(3) 0.99055(17) 0.42906(17)
H82 H 0.3614 0.9845 0.4589
C62 C 0.0914(3) 0.9478(2) 0.3870(2)
H83 H 0.0563 0.9661 0.4166
H84 H 0.0975 0.9052 0.3943
H85 H 0.0627 0.9537 0.3506
C63 C 0.2114(3) 0.9279(3) 0.4800(2)
H86 H 0.2621 0.9199 0.5038
H87 H 0.1875 0.8902 0.4662
H88 H 0.1670 0.9489 0.5018
Li3 Li 0.1969(4) 0.7322(3) 0.2621(3)
H1 H 0.9903 0.1509 0.2513
C24 C 0.9821(3) 0.25282(19) 0.1990(2)
O1 O 0.92054(19) 0.22183(16) 0.21202(18)
N6 N 0.9680(3) 0.3087(2) 0.1845(2)
H15 H 0.9147 0.3230 0.1844
C26 C 0.9497(2) 0.08502(17) 0.33803(16)
H19 H 0.9687 0.0461 0.3229
H20 H 0.9014 0.0997 0.3143
C27 C 0.9169(2) 0.07656(17) 0.39809(15)
O2 O 0.91237(17) 0.11930(11) 0.43175(11)
N7 N 0.8924(2) 0.02202(13) 0.41221(14)
H21 H 0.8722 0.0150 0.4461
C28 C 0.9906(2) 0.04487(17) 0.20138(16)
H23 H 0.9851 0.0269 0.1641
H24 H 0.9604 0.0833 0.2019
H25 H 0.9645 0.0184 0.2294
O15 O 0.7794(2) 0.25165(13) 0.31737(13)
H89 H 0.8127 0.2485 0.3493
H90 H 0.7256 0.2655 0.3269
O19 O 0.7571(2) 0.28931(14) 0.18396(14)
C8_2 C 0.3633(2) 0.04525(16) 0.66647(17)
C9_2 C 0.2789(2) 0.07689(15) 0.68615(17)
H2_2 H 0.2585 0.1057 0.6570
C10_2 C 0.2172(2) 0.02480(15) 0.68987(16)
C11_2 C 0.1308(2) 0.02763(16) 0.67782(17)
H3_2 H 0.1070 0.0658 0.6705
H22 H 0.6037 0.0071 0.8877
C29_2 C 0.4439(3) 0.08224(17) 0.67855(19)
H26_2 H 0.4564 0.0813 0.7189
H27_2 H 0.4337 0.1234 0.6668
H28_2 H 0.4935 0.0659 0.6578
C30_2 C 0.3532(3) 0.03523(18) 0.60124(17)
H29_2 H 0.2977 0.0140 0.5947
H30_2 H 0.3483 0.0747 0.5831
C31_2 C 0.4247(3) 0.00115(19) 0.57189(16)
O3_2 O 0.48780(19) 0.02780(16) 0.55072(13)
C32_2 C 0.2875(2) 0.10841(16) 0.74398(18)
H33_2 H 0.3202 0.0822 0.7698
H34_2 H 0.3216 0.1454 0.7391
C33_2 C 0.2001(2) 0.12395(17) 0.77066(19)
H35_2 H 0.1618 0.1414 0.7416
H36_2 H 0.1723 0.0869 0.7841
C34_2 C 0.2068(3) 0.16652(19) 0.8185(2)
O4_2 O 0.2571(2) 0.21069(14) 0.81604(14)
N9_2 N 0.1553(4) 0.1583(2) 0.8630(2)
H37_2 H 0.1563 0.1838 0.8910
H38_2 H 0.1204 0.1273 0.8644
H39_2 H 0.0348 0.0065 0.5680
C57_2 C 0.3204(2) 0.02387(16) 0.88582(17)
C58_2 C 0.2613(3) 0.03404(18) 0.93065(17)
C59_2 C 0.1787(3) 0.00945(17) 0.92906(17)
H82_2 H 0.1386 0.0155 0.9589
C62_2 C 0.4086(3) 0.0522(2) 0.8870(2)
H83_2 H 0.4437 0.0339 0.9166
H84_2 H 0.4025 0.0948 0.8943
H85_2 H 0.4373 0.0463 0.8506
C63_2 C 0.2886(3) 0.0721(3) 0.9800(2)
H87_2 H 0.3125 0.1098 0.9662
Li3_2 Li 0.3031(4) 0.2678(3) 0.7621(3)
Co1_2 Co 0.20696(3) 0.901186(18) 0.718785(19)
C1_2 C 0.2388(2) 0.87667(15) 0.64593(16)
N1_2 N 0.2605(2) 0.86100(15) 0.60166(15)
C2_2 C 0.3084(2) 0.81000(14) 0.77380(15)
C3_2 C 0.4055(2) 0.78994(15) 0.76838(15)
C4_2 C 0.4546(2) 0.85085(15) 0.77361(15)
H1_2 H 0.5097 0.8491 0.7513
C5_2 C 0.3906(2) 0.89125(15) 0.74432(14)
C6_2 C 0.4144(2) 0.94593(14) 0.71487(15)
C7_2 C 0.3518(2) 0.98477(15) 0.69726(15)
C12_2 C 0.0746(2) 0.97951(15) 0.67538(15)
C15_2 C 0.0202(2) 0.88822(15) 0.68880(15)
C16_2 C 0.0168(2) 0.82908(15) 0.70226(15)
C17_2 C 0.0920(2) 0.79743(14) 0.72203(15)
C18_2 C 0.0998(2) 0.72952(14) 0.72937(14)
C19_2 C 0.1897(2) 0.72417(14) 0.75949(15)
H5_2 H 0.1796 0.7301 0.8006
C20_2 C 0.2386(2) 0.77899(15) 0.73751(15)
H6_2 H 0.2642 0.7694 0.7000
C21_2 C 0.2766(2) 0.81353(15) 0.83561(15)
H7_2 H 0.3125 0.8421 0.8563
H8_2 H 0.2815 0.7743 0.8531
H9_2 H 0.2157 0.8265 0.8364
N2_2 N 0.31196(18) 0.87106(12) 0.74776(12)
N3_2 N 0.26240(19) 0.97561(12) 0.70411(12)
N4_2 N 0.09392(19) 0.92491(12) 0.69266(13)
N5_2 N 0.16752(18) 0.82283(12) 0.73001(12)
C22_2 C 0.4334(3) 0.74283(17) 0.81138(19)
H10_2 H 0.4031 0.7054 0.8035
H11_2 H 0.4185 0.7565 0.8492
H12_2 H 0.4964 0.7366 0.8088
C23_2 C 0.4242(2) 0.76529(16) 0.70796(17)
H13_2 H 0.3863 0.7304 0.7011
H14_2 H 0.4087 0.7962 0.6801
C24_2 C 0.5179(3) 0.74718(19) 0.6990(2)
O1_2 O 0.57946(19) 0.77817(16) 0.71202(18)
N6_2 N 0.5320(3) 0.6913(2) 0.6845(2)
H15_2 H 0.5853 0.6770 0.6844
H16_2 H 0.4880 0.6684 0.6750
C25_2 C 0.4759(3) 0.87192(17) 0.83500(16)
H17_2 H 0.4234 0.8908 0.8512
H18_2 H 0.4900 0.8367 0.8582
C26_2 C 0.5503(2) 0.91498(17) 0.83803(16)
H19_2 H 0.5313 0.9539 0.8229
H20_2 H 0.5986 0.9003 0.8143
C27_2 C 0.5831(2) 0.92344(17) 0.89809(15)
O2_2 O 0.58763(17) 0.88070(11) 0.93175(11)
N7_2 N 0.6076(2) 0.97798(13) 0.91221(14)
H21_2 H 0.6278 0.9850 0.9461
C28_2 C 0.5094(2) 0.95513(17) 0.70138(16)
H23_2 H 0.5149 0.9731 0.6641
H24_2 H 0.5396 0.9167 0.7019
H25_2 H 0.5355 0.9816 0.7294
N8_2 N 0.4172(2) 0.94275(17) 0.56836(15)
H31_2 H 0.4572 0.9219 0.5508
H32_2 H 0.3721 0.9247 0.5836
C35_2 C 0.0030(3) 0.97219(18) 0.58291(16)
H41_2 H 0.0377 0.9361 0.5774
C41_2 C 0.0992(2) 0.70190(15) 0.67023(15)
H54_2 H 0.0468 0.7148 0.6501
H55_2 H 0.0993 0.6585 0.6733
H56_2 H 0.1510 0.7149 0.6496
C42_2 C 0.0308(2) 0.70017(14) 0.76838(15)
H58_2 H 0.0502 0.6592 0.7770
C43_2 C 0.0127(2) 0.73255(16) 0.82451(17)
H59_2 H 0.0683 0.7385 0.8448
H61_2 H 0.0366 0.6855 0.9198
C45_2 C 0.2337(2) 0.66416(15) 0.75193(16)
H62_2 H 0.2855 0.6691 0.7277
H63_2 H 0.1930 0.6368 0.7326
C46_2 C 0.2616(2) 0.63630(15) 0.80751(16)
O7_2 O 0.23022(17) 0.65265(11) 0.85300(11)
N12_2 N 0.3188(2) 0.59283(13) 0.80358(15)
H64_2 H 0.3363 0.5741 0.8340
H65_2 H 0.3396 0.5825 0.7706
C50_2 C 0.0084(2) 0.93544(16) 0.90716(16)
H72_2 H 0.0007 0.9702 0.9328
C51_2 C 0.0229(2) 0.87880(15) 0.94185(16)
H73_2 H 0.0515 0.8870 0.9787
O13_2 O 0.07123(16) 0.83831(11) 0.90831(11)
H78_2 H 0.0974 0.8140 0.9292
N13_2 N 0.0796(2) 0.94699(12) 0.86842(13)
C55_2 C 0.0929(2) 0.91983(14) 0.81797(15)
H80_2 H 0.0504 0.8957 0.8001
N14_2 N 0.17024(18) 0.93020(12) 0.79641(13)
C56_2 C 0.2963(3) 0.98901(14) 0.83928(16)
H81_2 H 0.3364 0.9820 0.8097
C60_2 C 0.1565(2) 0.97576(15) 0.88246(15)
C61_2 C 0.2139(2) 0.96515(14) 0.83725(15)
Li1_2 Li 0.2663(4) 0.6353(3) 0.9285(3)
Li2 Li 0.6969(4) 0.7678(3) 0.7379(3)
O15_2 O 0.7206(2) 0.74835(13) 0.81737(13)
H89_2 H 0.6873 0.7515 0.8493
H90_2 H 0.7744 0.7345 0.8269
O16_2 O 0.16912(19) 0.59801(12) 0.96608(12)
H91_2 H 0.1746 0.5576 0.9659
H92_2 H 0.1373 0.6095 0.9969
O17_2 O 0.3477(2) 0.56455(14) 0.92372(13)
H93_2 H 0.3176 0.5335 0.9390
H94_2 H 0.4059 0.5564 0.9247
O18_2 O 0.31052(17) 0.70553(11) 0.96088(11)
O19_2 O 0.7429(2) 0.71069(14) 0.68396(14)
O20 O 0.73559(17) 0.84946(11) 0.73125(13)
C49_2 C 0.8068(3) 0.63200(18) 0.01753(18)
H69_2 H 0.8426 0.6078 0.0427
H71_2 H 0.7658 0.6557 0.0397
P1_2 P 0.90258(6) 0.77958(4) 0.02579(4)
O9_2 O 0.91515(17) 0.71017(10) 0.02243(11)
O10_2 O 0.81052(17) 0.79447(11) 0.03912(11)
O11_2 O 0.97139(17) 0.80433(11) 0.06306(11)
Li5_2 Li 0.7663(4) 0.8647(3) 0.0715(3)
C13_2 C 0.9859(2) 0.98146(15) 0.64683(16)
C14_2 C 0.9425(2) 0.92522(15) 0.67199(16)
H4_2 H 0.9093 0.9040 0.6419
H40_2 H 0.9473 0.9682 0.5632
C37_2 C 0.8831(2) 0.93552(15) 0.72243(17)
H45_2 H 0.9040 0.9707 0.7435
H46_2 H 0.8867 0.9007 0.7477
C38_2 C 0.7873(2) 0.94539(16) 0.70569(17)
H47_2 H 0.7561 0.9655 0.7367
H48_2 H 0.7845 0.9713 0.6722
C39_2 C 0.7437(2) 0.88674(18) 0.69302(18)
N10_2 N 0.7169(3) 0.87781(18) 0.64101(18)
H49_2 H 0.6918 0.8440 0.6319
H50_2 H 0.7242 0.9057 0.6155
C40_2 C 0.9310(2) 0.79672(15) 0.69638(18)
H51_2 H 0.9053 0.7908 0.7336
H52_2 H 0.9408 0.7580 0.6786
H53_2 H 0.8913 0.8204 0.6732
H57_2 H 0.9754 0.6971 0.7474
H60_2 H 0.9875 0.7722 0.8167
C44_2 C 0.9508(2) 0.69758(15) 0.86099(16)
O6_2 O 0.87574(16) 0.68666(11) 0.84548(11)
N11_2 N 0.9829(2) 0.67663(13) 0.91018(14)
C47_2 C 0.9302(3) 0.63960(16) 0.94757(17)
H66_2 H 0.9697 0.6172 0.9726
H67_2 H 0.8979 0.6103 0.9246
C48_2 C 0.8656(3) 0.67351(16) 0.98338(16)
H68_2 H 0.8289 0.6995 0.9589
H70_2 H 0.7744 0.6060 0.9920
O8_2 O 0.92015(17) 0.79693(10) 0.96053(10)
C52_2 C 0.9280(2) 0.85855(15) 0.94835(16)
H74_2 H 0.8983 0.8826 0.9780
C53_2 C 0.8890(2) 0.87260(15) 0.89066(16)
H75_2 H 0.9032 0.8402 0.8634
C54_2 C 0.7929(3) 0.88333(17) 0.89197(16)
H76_2 H 0.7627 0.8456 0.9009
H77_2 H 0.7794 0.9122 0.9221
O12_2 O 0.93180(17) 0.92740(11) 0.87429(11)
O14_2 O 0.76074(18) 0.90588(14) 0.83934(13)
H79_2 H 0.7529 0.8775 0.8170
H1_3 H 0.0097 0.6509 0.2487
C24_3 C 0.0179(3) 0.75282(19) 0.3010(2)
O1_3 O 0.07946(19) 0.72183(16) 0.28798(18)
N6_3 N 0.0320(3) 0.8087(2) 0.3155(2)
H15_3 H 0.0853 0.8230 0.3156
C26_3 C 0.0503(2) 0.58502(17) 0.16197(16)
H19_3 H 0.0313 0.5461 0.1771
H20_3 H 0.0986 0.5997 0.1857
C27_3 C 0.0831(2) 0.57656(17) 0.10191(15)
O2_3 O 0.08763(17) 0.61930(11) 0.06825(11)
N7_3 N 0.1076(2) 0.52202(13) 0.08779(14)
H21_3 H 0.1278 0.5150 0.0539
H22_2 H 0.1037 0.4929 0.1123
C28_3 C 0.0094(2) 0.54487(17) 0.29862(16)
H23_3 H 0.0149 0.5269 0.3359
H24_3 H 0.0396 0.5833 0.2981
H25_3 H 0.0355 0.5184 0.2706
O15_3 O 0.2206(2) 0.75165(13) 0.18263(13)
H89_3 H 0.1873 0.7485 0.1507
H90_3 H 0.2744 0.7655 0.1731
O20_2 O 0.23559(17) 0.65054(11) 0.26875(13)
Co1_3 Co 0.70696(3) 0.598814(18) 0.281215(19)
C1_3 C 0.7388(2) 0.62333(15) 0.35407(16)
N1_3 N 0.7605(2) 0.63900(15) 0.39834(15)
C2_3 C 0.8084(2) 0.69000(14) 0.22620(15)
C3_3 C 0.9055(2) 0.71006(15) 0.23162(15)
C4_3 C 0.9546(2) 0.64915(15) 0.22639(15)
C5_3 C 0.8906(2) 0.60875(15) 0.25568(14)
C6_3 C 0.9144(2) 0.55407(14) 0.28513(15)
C7_3 C 0.8518(2) 0.51523(15) 0.30274(15)
C8_3 C 0.8633(2) 0.45475(16) 0.33353(17)
C9_3 C 0.7789(2) 0.42311(15) 0.31385(17)
H2_3 H 0.7585 0.3943 0.3430
C10_3 C 0.7172(2) 0.47520(15) 0.31013(16)
C11_3 C 0.6308(2) 0.47237(16) 0.32218(17)
H3_3 H 0.6070 0.4342 0.3295
C12_3 C 0.5746(2) 0.52049(15) 0.32462(15)
C13_3 C 0.4859(2) 0.51854(15) 0.35317(16)
C14_3 C 0.4425(2) 0.57478(15) 0.32801(16)
H4_3 H 0.4093 0.5960 0.3581
C15_3 C 0.5202(2) 0.61178(15) 0.31120(15)
C16_3 C 0.5168(2) 0.67092(15) 0.29774(15)
C17_3 C 0.5920(2) 0.70257(14) 0.27797(15)
C18_3 C 0.5998(2) 0.77048(14) 0.27063(14)
C19_3 C 0.6897(2) 0.77583(14) 0.24051(15)
H5_3 H 0.6796 0.7699 0.1994
C20_3 C 0.7386(2) 0.72101(15) 0.26249(15)
H6_3 H 0.7642 0.7306 0.3000
C21_3 C 0.7766(2) 0.68647(15) 0.16439(15)
H7_3 H 0.8125 0.6579 0.1437
H8_3 H 0.7815 0.7257 0.1469
H9_3 H 0.7157 0.6735 0.1636
N2_3 N 0.81196(18) 0.62894(12) 0.25224(12)
N3_3 N 0.76240(19) 0.52439(12) 0.29589(12)
N4_3 N 0.59392(19) 0.57509(12) 0.30734(13)
N5_3 N 0.66752(18) 0.67717(12) 0.26999(12)
C22_3 C 0.9334(3) 0.75717(17) 0.18862(19)
H10_3 H 0.9031 0.7946 0.1965
H11_3 H 0.9185 0.7435 0.1508
H12_3 H 0.9964 0.7634 0.1912
C23_3 C 0.9242(2) 0.73471(16) 0.29204(17)
H13_3 H 0.8863 0.7696 0.2989
H14_3 H 0.9087 0.7038 0.3199
H16_3 H 0.9880 0.8316 0.3250
C25_3 C 0.9759(3) 0.62808(17) 0.16500(16)
H17_3 H 0.9234 0.6092 0.1488
H18_3 H 0.9900 0.6633 0.1418
C29_3 C 0.9439(3) 0.41776(17) 0.32145(19)
H26_3 H 0.9564 0.4187 0.2811
H27_3 H 0.9337 0.3766 0.3332
H28_3 H 0.9935 0.4341 0.3422
C30_3 C 0.8532(3) 0.46477(18) 0.39876(17)
H29_3 H 0.7977 0.4860 0.4053
H30_3 H 0.8483 0.4253 0.4169
C31_3 C 0.9247(3) 0.49885(19) 0.42811(16)
O3_3 O 0.98780(19) 0.47220(16) 0.44928(13)
N8_3 N 0.9172(2) 0.55725(17) 0.43164(15)
H31_3 H 0.9572 0.5781 0.4492
H32_3 H 0.8721 0.5753 0.4164
C32_3 C 0.7875(2) 0.39159(16) 0.25602(18)
H33_3 H 0.8202 0.4178 0.2302
H34_3 H 0.8216 0.3546 0.2609
C33_3 C 0.7001(2) 0.37605(17) 0.22934(19)
H35_3 H 0.6618 0.3586 0.2584
H36_3 H 0.6723 0.4131 0.2159
C34_3 C 0.7068(3) 0.33348(19) 0.1815(2)
N9_3 N 0.6553(4) 0.3417(2) 0.1370(2)
H37_3 H 0.6563 0.3162 0.1090
H38_3 H 0.6204 0.3727 0.1356
C35_3 C 0.5030(3) 0.52781(18) 0.41709(16)
H39_3 H 0.5348 0.4935 0.4320
H40_3 H 0.4473 0.5318 0.4368
H41_3 H 0.5377 0.5639 0.4226
C36_2 C 0.4365(2) 0.46013(16) 0.34440(18)
H42_2 H 0.4296 0.4527 0.3041
H43_2 H 0.3790 0.4629 0.3621
H44_2 H 0.4694 0.4274 0.3614
C37_3 C 0.3831(2) 0.56448(15) 0.27757(17)
H45_3 H 0.4040 0.5293 0.2565
H46_3 H 0.3867 0.5993 0.2523
C38_3 C 0.2873(2) 0.55461(16) 0.29431(17)
H47_3 H 0.2561 0.5345 0.2633
H48_3 H 0.2845 0.5287 0.3278
C39_3 C 0.2437(2) 0.61326(18) 0.30698(18)
N10_3 N 0.2169(3) 0.62219(18) 0.35899(18)
H49_3 H 0.1918 0.6560 0.3681
H50_3 H 0.2242 0.5943 0.3845
C40_3 C 0.4310(2) 0.70328(15) 0.30362(18)
H51_3 H 0.4053 0.7092 0.2664
H52_3 H 0.4408 0.7420 0.3214
H53_3 H 0.3913 0.6796 0.3268
C41_3 C 0.5992(2) 0.79810(15) 0.32977(15)
H54_3 H 0.5468 0.7852 0.3499
H55_3 H 0.5993 0.8415 0.3267
H56_3 H 0.6510 0.7851 0.3504
C42_3 C 0.5308(2) 0.79983(14) 0.23162(15)
H57_3 H 0.4754 0.8029 0.2526
H58_3 H 0.5502 0.8408 0.2230
C43_3 C 0.5127(2) 0.76745(16) 0.17549(17)
H59_3 H 0.5683 0.7615 0.1552
H60_3 H 0.4875 0.7278 0.1833
C44_3 C 0.4508(2) 0.80242(15) 0.13901(16)
O6_3 O 0.37574(16) 0.81334(11) 0.15452(11)
N11_3 N 0.4829(2) 0.82337(13) 0.08982(14)
H61_3 H 0.5366 0.8145 0.0802
C45_3 C 0.7337(2) 0.83584(15) 0.24807(16)
H62_3 H 0.7855 0.8309 0.2723
H63_3 H 0.6930 0.8632 0.2674
C46_3 C 0.7616(2) 0.86370(15) 0.19249(16)
O7_3 O 0.73022(17) 0.84735(11) 0.14700(11)
N12_3 N 0.8188(2) 0.90717(13) 0.19642(15)
H64_3 H 0.8363 0.9259 0.1660
H65_3 H 0.8396 0.9175 0.2294
C47_3 C 0.4302(3) 0.86040(16) 0.05243(17)
H66_3 H 0.4697 0.8828 0.0274
H67_3 H 0.3979 0.8897 0.0754
C48_3 C 0.3656(3) 0.82649(16) 0.01662(16)
H68_3 H 0.3289 0.8005 0.0411
H70_3 H 0.2744 0.8940 0.0080
O8_3 O 0.42015(17) 0.70307(10) 0.03947(10)
C50_3 C 0.5084(2) 0.56456(16) 0.09284(16)
H72_3 H 0.5007 0.5298 0.0672
C51_3 C 0.5229(2) 0.62120(15) 0.05815(16)
H73_3 H 0.5515 0.6130 0.0213
C52_3 C 0.4280(2) 0.64145(15) 0.05165(16)
H74_3 H 0.3983 0.6174 0.0220
C53_3 C 0.3890(2) 0.62740(15) 0.10934(16)
H75_3 H 0.4032 0.6598 0.1366
C54_3 C 0.2929(3) 0.61667(17) 0.10803(16)
H76_3 H 0.2627 0.6544 0.0991
H77_3 H 0.2794 0.5878 0.0779
O12_3 O 0.43180(17) 0.57260(11) 0.12571(11)
O13_3 O 0.57123(16) 0.66169(11) 0.09169(11)
H78_3 H 0.5974 0.6860 0.0708
O14_3 O 0.26074(18) 0.59412(14) 0.16066(13)
H79_3 H 0.2529 0.6225 0.1830
N13_3 N 0.5796(2) 0.55301(12) 0.13158(13)
C55_3 C 0.5929(2) 0.58017(14) 0.18203(15)
H80_3 H 0.5504 0.6043 0.1999
N14_3 N 0.67024(18) 0.56980(12) 0.20359(13)
C56_3 C 0.7963(3) 0.51099(14) 0.16072(16)
H81_3 H 0.8364 0.5180 0.1903
C57_3 C 0.8204(2) 0.47613(16) 0.11418(17)
C58_3 C 0.7613(3) 0.46596(18) 0.06935(17)
C59_3 C 0.6787(3) 0.49055(17) 0.07094(17)
H82_3 H 0.6386 0.4845 0.0411
C60_3 C 0.6565(2) 0.52424(15) 0.11754(15)
C61_3 C 0.7139(2) 0.53485(14) 0.16275(15)
C62_3 C 0.9086(3) 0.4478(2) 0.1130(2)
H83_3 H 0.9437 0.4661 0.0834
H84_3 H 0.9025 0.4052 0.1057
H85_3 H 0.9373 0.4537 0.1494
C63_3 C 0.7886(3) 0.4279(3) 0.0200(2)
H87_3 H 0.8125 0.3902 0.0338
O16_3 O 0.66912(19) 0.90199(12) 0.03392(12)
H91_3 H 0.6746 0.9424 0.0341
H92_3 H 0.6373 0.8905 0.0031
O17_3 O 0.8477(2) 0.93545(14) 0.07628(13)
H93_3 H 0.8176 0.9665 0.0610
H94_3 H 0.9059 0.9436 0.0753
C49_3 C 0.3068(3) 0.86800(18) 0.98247(18)
H69_3 H 0.3426 0.8922 0.9573
H71_3 H 0.2658 0.8443 0.9603
P1_3 P 0.40258(6) 0.72042(4) 0.97421(4)
O9_3 O 0.41515(17) 0.78983(10) 0.97757(11)
O11_3 O 0.47139(17) 0.69567(11) 0.93694(11)
H86_2 H 0.7379 0.4199 0.9962
H88_2 H 0.8330 0.4489 0.9982
C13_4 C 0.0141(2) 0.48146(15) 0.85317(16)
C14_4 C 0.0575(2) 0.42522(15) 0.82801(16)
H4_4 H 0.0907 0.4040 0.8581
H40_4 H 0.0527 0.4682 0.9368
C36_3 C 0.0635(2) 0.53987(16) 0.84440(18)
H42_3 H 0.0704 0.5473 0.8041
H43_3 H 0.1210 0.5371 0.8621
H44_3 H 0.0306 0.5726 0.8614
C37_4 C 0.1169(2) 0.43552(15) 0.77757(17)
H45_4 H 0.0960 0.4707 0.7565
H46_4 H 0.1133 0.4007 0.7523
C38_4 C 0.2127(2) 0.44539(16) 0.79431(17)
H47_4 H 0.2439 0.4655 0.7633
H48_4 H 0.2155 0.4713 0.8278
C39_4 C 0.2563(2) 0.38674(18) 0.80698(18)
O5_2 O 0.26441(17) 0.34946(11) 0.76875(13)
N10_4 N 0.2831(3) 0.37781(18) 0.85899(18)
H49_4 H 0.3082 0.3440 0.8681
H50_4 H 0.2758 0.4057 0.8845
C40_4 C 0.0690(2) 0.29672(15) 0.80362(18)
H51_4 H 0.0947 0.2908 0.7664
H52_4 H 0.0592 0.2580 0.8214
H53_4 H 0.1087 0.3204 0.8268
H57_4 H 0.0246 0.1971 0.7526
H60_4 H 0.0125 0.2722 0.6833
C44_4 C 0.0492(2) 0.19758(15) 0.63901(16)
O6_4 O 0.12426(16) 0.18666(11) 0.65452(11)
N11_4 N 0.0171(2) 0.17663(13) 0.58982(14)
C47_4 C 0.0698(3) 0.13960(16) 0.55243(17)
H66_4 H 0.0303 0.1172 0.5274
H67_4 H 0.1021 0.1103 0.5754
C48_4 C 0.1344(3) 0.17351(16) 0.51662(16)
H68_4 H 0.1711 0.1995 0.5411
C49_4 C 0.1932(3) 0.13200(18) 0.48247(18)
H69_4 H 0.1574 0.1078 0.4573
H70_4 H 0.2256 0.1060 0.5080
H71_4 H 0.2342 0.1557 0.4603
P1_4 P 0.09742(6) 0.27958(4) 0.47421(4)
O8_4 O 0.07985(17) 0.29693(10) 0.53947(10)
O9_4 O 0.08485(17) 0.21017(10) 0.47757(11)
O11_4 O 0.02861(17) 0.30433(11) 0.43694(11)
C52_4 C 0.0720(2) 0.35855(15) 0.55165(16)
H74_4 H 0.1017 0.3826 0.5220
C53_4 C 0.1110(2) 0.37260(15) 0.60934(16)
H75_4 H 0.0968 0.3402 0.6366
C54_4 C 0.2071(3) 0.38333(17) 0.60803(16)
H76_4 H 0.2373 0.3456 0.5991
H77_4 H 0.2206 0.4122 0.5779
O12_4 O 0.06820(17) 0.42740(11) 0.62571(11)
O14_4 O 0.23926(18) 0.40588(14) 0.66066(13)
H79_4 H 0.2471 0.3775 0.6830
Co1_4 Co 0.79304(3) 0.401186(18) 0.781215(19)
C1_4 C 0.7612(2) 0.37667(15) 0.85407(16)
N1_4 N 0.7395(2) 0.36100(15) 0.89834(15)
C2_4 C 0.6916(2) 0.31000(14) 0.72620(15)
C3_4 C 0.5945(2) 0.28994(15) 0.73162(15)
C4_4 C 0.5454(2) 0.35085(15) 0.72639(15)
H1_4 H 0.4903 0.3491 0.7487
C5_4 C 0.6094(2) 0.39125(15) 0.75568(14)
C6_4 C 0.5856(2) 0.44593(14) 0.78513(15)
C7_4 C 0.6482(2) 0.48477(15) 0.80274(15)
C8_4 C 0.6367(2) 0.54525(16) 0.83353(17)
C9_4 C 0.7211(2) 0.57689(15) 0.81385(17)
H2_4 H 0.7415 0.6057 0.8430
C10_4 C 0.7828(2) 0.52480(15) 0.81013(16)
C11_4 C 0.8692(2) 0.52763(16) 0.82218(17)
H3_4 H 0.8930 0.5658 0.8295
C12_4 C 0.9254(2) 0.47951(15) 0.82462(15)
C15_4 C 0.9798(2) 0.38822(15) 0.81120(15)
C16_4 C 0.9832(2) 0.32908(15) 0.79774(15)
C17_4 C 0.9080(2) 0.29743(14) 0.77797(15)
C18_4 C 0.9002(2) 0.22952(14) 0.77063(14)
C19_4 C 0.8103(2) 0.22417(14) 0.74051(15)
H5_4 H 0.8204 0.2301 0.6994
C20_4 C 0.7614(2) 0.27899(15) 0.76249(15)
H6_4 H 0.7358 0.2694 0.8000
C21_4 C 0.7234(2) 0.31353(15) 0.66439(15)
H7_4 H 0.6875 0.3421 0.6437
H8_4 H 0.7185 0.2743 0.6469
H9_4 H 0.7843 0.3265 0.6636
N2_4 N 0.68804(18) 0.37106(12) 0.75224(12)
N3_4 N 0.73760(19) 0.47561(12) 0.79589(12)
N4_4 N 0.90608(19) 0.42491(12) 0.80734(13)
N5_4 N 0.83248(18) 0.32283(12) 0.76999(12)
C22_4 C 0.5666(3) 0.24283(17) 0.68862(19)
H10_4 H 0.5969 0.2054 0.6965
H11_4 H 0.5815 0.2565 0.6508
H12_4 H 0.5036 0.2366 0.6912
C23_4 C 0.5758(2) 0.26529(16) 0.79204(17)
H13_4 H 0.6137 0.2304 0.7989
H14_4 H 0.5913 0.2962 0.8199
C24_4 C 0.4821(3) 0.24718(19) 0.8010(2)
O1_4 O 0.42054(19) 0.27817(16) 0.78798(18)
N6_4 N 0.4680(3) 0.1913(2) 0.8155(2)
H15_4 H 0.4147 0.1770 0.8156
H16_4 H 0.5120 0.1684 0.8250
C25_4 C 0.5241(3) 0.37192(17) 0.66500(16)
H17_4 H 0.5766 0.3908 0.6488
H18_4 H 0.5100 0.3367 0.6418
C26_4 C 0.4497(2) 0.41498(17) 0.66197(16)
H19_4 H 0.4687 0.4539 0.6771
H20_4 H 0.4014 0.4003 0.6857
C27_4 C 0.4169(2) 0.42344(17) 0.60191(15)
O2_4 O 0.41237(17) 0.38070(11) 0.56825(11)
N7_4 N 0.3924(2) 0.47798(13) 0.58779(14)
H21_4 H 0.3722 0.4850 0.5539
H22_3 H 0.3963 0.5071 0.6123
C28_4 C 0.4906(2) 0.45513(17) 0.79862(16)
H23_4 H 0.4851 0.4731 0.8359
H24_4 H 0.4604 0.4167 0.7981
H25_4 H 0.4645 0.4816 0.7706
C29_4 C 0.5561(3) 0.58224(17) 0.82145(19)
H26_4 H 0.5436 0.5813 0.7811
H27_4 H 0.5663 0.6234 0.8332
H28_4 H 0.5065 0.5659 0.8422
C30_4 C 0.6468(3) 0.53523(18) 0.89876(17)
H29_4 H 0.7023 0.5140 0.9053
H30_4 H 0.6517 0.5747 0.9169
C31_4 C 0.5753(3) 0.50115(19) 0.92811(16)
O3_4 O 0.51220(19) 0.52780(16) 0.94928(13)
N8_4 N 0.5828(2) 0.44275(17) 0.93164(15)
H31_4 H 0.5428 0.4219 0.9492
H32_4 H 0.6279 0.4247 0.9164
C32_4 C 0.7125(2) 0.60841(16) 0.75602(18)
H33_4 H 0.6798 0.5822 0.7302
H34_4 H 0.6784 0.6454 0.7609
C33_4 C 0.7999(2) 0.62395(17) 0.72934(19)
H35_4 H 0.8382 0.6414 0.7584
H36_4 H 0.8277 0.5869 0.7159
C34_4 C 0.7932(3) 0.66652(19) 0.6815(2)
N9_4 N 0.8447(4) 0.6583(2) 0.6370(2)
H37_4 H 0.8437 0.6838 0.6090
H38_4 H 0.8796 0.6273 0.6356
C35_4 C 0.9970(3) 0.47219(18) 0.91709(16)
H39_4 H 0.9652 0.5065 0.9320
H41_4 H 0.9623 0.4361 0.9226
C41_4 C 0.9008(2) 0.20190(15) 0.82977(15)
H54_4 H 0.9532 0.2148 0.8499
H55_4 H 0.9007 0.1585 0.8267
H56_4 H 0.8490 0.2149 0.8504
C42_4 C 0.9692(2) 0.20017(14) 0.73162(15)
H58_4 H 0.9498 0.1592 0.7230
C43_4 C 0.9873(2) 0.23255(16) 0.67549(17)
H59_4 H 0.9317 0.2385 0.6552
H61_4 H 0.9634 0.1855 0.5802
C45_4 C 0.7663(2) 0.16416(15) 0.74807(16)
H62_4 H 0.7145 0.1691 0.7723
H63_4 H 0.8070 0.1368 0.7674
C46_4 C 0.7384(2) 0.13630(15) 0.69249(16)
O7_4 O 0.76978(17) 0.15265(11) 0.64700(11)
N12_4 N 0.6812(2) 0.09283(13) 0.69642(15)
H64_4 H 0.6637 0.0741 0.6660
H65_4 H 0.6604 0.0825 0.7294
C50_4 C 0.9916(2) 0.43544(16) 0.59284(16)
H72_4 H 0.9993 0.4702 0.5672
C51_4 C 0.9771(2) 0.37880(15) 0.55815(16)
H73_4 H 0.9485 0.3870 0.5213
O13_4 O 0.92877(16) 0.33831(11) 0.59169(11)
H78_4 H 0.9026 0.3140 0.5708
N13_4 N 0.9204(2) 0.44699(12) 0.63158(13)
C55_4 C 0.9071(2) 0.41983(14) 0.68203(15)
H80_4 H 0.9496 0.3957 0.6999
N14_4 N 0.82976(18) 0.43020(12) 0.70359(13)
C56_4 C 0.7037(3) 0.48901(14) 0.66072(16)
H81_4 H 0.6636 0.4820 0.6903
C57_4 C 0.6796(2) 0.52387(16) 0.61418(17)
C58_4 C 0.7387(3) 0.53404(18) 0.56935(17)
C59_4 C 0.8213(3) 0.50945(17) 0.57094(17)
H82_4 H 0.8614 0.5155 0.5411
C60_4 C 0.8435(2) 0.47576(15) 0.61754(15)
C61_4 C 0.7861(2) 0.46515(14) 0.66275(15)
C62_4 C 0.5914(3) 0.5522(2) 0.6130(2)
H83_4 H 0.5563 0.5339 0.5834
H84_4 H 0.5975 0.5948 0.6057
H85_4 H 0.5627 0.5463 0.6494
C63_4 C 0.7114(3) 0.5721(3) 0.5200(2)
H86_3 H 0.7621 0.5801 0.4962
H87_4 H 0.6875 0.6098 0.5338
H88_3 H 0.6670 0.5511 0.4982
O15_4 O 0.2794(2) 0.24835(13) 0.68263(13)
H89_4 H 0.3127 0.2515 0.6507
H90_4 H 0.2256 0.2345 0.6731
O16_4 O 0.83088(19) 0.09801(12) 0.53392(12)
H91_4 H 0.8254 0.0576 0.5341
H92_4 H 0.8627 0.1095 0.5031
O17_4 O 0.6523(2) 0.06455(14) 0.57628(13)
H93_4 H 0.6824 0.0335 0.5610
H94_4 H 0.5941 0.0564 0.5753
H22_4 H 0.8963 0.9929 0.3877
H86_4 H 0.2379 0.0801 0.0038
H88_4 H 0.3330 0.0511 0.0018
C36_4 C 0.9365(2) 0.03987(16) 0.65560(18)
H42_4 H 0.9296 0.0473 0.6959
H43_4 H 0.8790 0.0371 0.6379
H44_4 H 0.9694 0.0726 0.6386
Cl1 Cl 0.10912(9) 0.41595(6) 0.17729(6)
Cl1_2 Cl 0.39088(9) 0.58405(6) 0.67729(6)
Cl1_3 Cl 0.89088(9) 0.91595(6) 0.32271(6)
Cl1_4 Cl 0.60912(9) 0.08405(6) 0.82271(6)
Cl2 Cl 0.72645(8) 0.03776(5) 0.03059(5)
Cl2_2 Cl 0.77355(8) 0.96224(5) 0.53059(5)
Cl2_3 Cl 0.27355(8) 0.53776(5) 0.46941(5)
Cl2_4 Cl 0.22645(8) 0.46224(5) 0.96941(5)
loop_
_geom_bond_atom_site_label_1
_geom_bond_atom_site_label_2
_geom_bond_site_symmetry_1
_geom_bond_site_symmetry_2
Co1 C1 1_555 1_555
C1 N1 1_555 1_555
C2 C3 1_555 1_555
C3 C4 1_555 1_555
C5 C4 1_555 1_555
C6 C5 1_555 1_555
C7 C6 1_555 1_555
C13 C12 1_555 1_555
C14 C13 1_555 1_555
H4 C14 1_555 1_555
C15 C14 1_555 1_555
C16 C15 1_555 1_555
C17 C16 1_555 1_555
C18 C17 1_555 1_555
C19 C18 1_555 1_555
H5 C19 1_555 1_555
C20 C2 1_555 1_555
H6 C20 1_555 1_555
C21 C2 1_555 1_555
H7 C21 1_555 1_555
H8 C21 1_555 1_555
H9 C21 1_555 1_555
N2 Co1 1_555 1_555
N3 Co1 1_555 1_555
N4 Co1 1_555 1_555
N5 Co1 1_555 1_555
C22 C3 1_555 1_555
H10 C22 1_555 1_555
H11 C22 1_555 1_555
H12 C22 1_555 1_555
C23 C3 1_555 1_555
H13 C23 1_555 1_555
H14 C23 1_555 1_555
C25 C4 1_555 1_555
H17 C25 1_555 1_555
H18 C25 1_555 1_555
H31 N8 1_555 1_555
H32 N8 1_555 1_555
C35 C13 1_555 1_555
H40 C35 1_555 1_555
H41 C35 1_555 1_555
C37 C14 1_555 1_555
H45 C37 1_555 1_555
H46 C37 1_555 1_555
C38 C37 1_555 1_555
H47 C38 1_555 1_555
H48 C38 1_555 1_555
C39 C38 1_555 1_555
O5 C39 1_555 1_555
N10 C39 1_555 1_555
H49 N10 1_555 1_555
H50 N10 1_555 1_555
C40 C16 1_555 1_555
H51 C40 1_555 1_555
H52 C40 1_555 1_555
H53 C40 1_555 1_555
C41 C18 1_555 1_555
H54 C41 1_555 1_555
H55 C41 1_555 1_555
H56 C41 1_555 1_555
C42 C18 1_555 1_555
H57 C42 1_555 1_555
H58 C42 1_555 1_555
C43 C42 1_555 1_555
H59 C43 1_555 1_555
H60 C43 1_555 1_555
C44 C43 1_555 1_555
O6 C44 1_555 1_555
N11 C44 1_555 1_555
H61 N11 1_555 1_555
C45 C19 1_555 1_555
H62 C45 1_555 1_555
H63 C45 1_555 1_555
C46 C45 1_555 1_555
O7 C46 1_555 1_555
N12 C46 1_555 1_555
H64 N12 1_555 1_555
H65 N12 1_555 1_555
C47 N11 1_555 1_555
H66 C47 1_555 1_555
H67 C47 1_555 1_555
C48 C47 1_555 1_555
H68 C48 1_555 1_555
C49 C48 1_555 1_555
H69 C49 1_555 1_555
H70 C49 1_555 1_555
H71 C49 1_555 1_555
P1 O8 1_555 1_555
O8 C52 1_555 1_555
O9 C48 1_555 1_555
O10 P1 1_555 1_555
O11 P1 1_555 1_555
C50 H72 1_555 1_555
C51 C50 1_555 1_555
H73 C51 1_555 1_555
C52 C51 1_555 1_555
H74 C52 1_555 1_555
C53 C52 1_555 1_555
H75 C53 1_555 1_555
C54 C53 1_555 1_555
H76 C54 1_555 1_555
H77 C54 1_555 1_555
O12 C50 1_555 1_555
O13 C51 1_555 1_555
H78 O13 1_555 1_555
O14 C54 1_555 1_555
H79 O14 1_555 1_555
N13 C50 1_555 1_555
C55 N13 1_555 1_555
H80 C55 1_555 1_555
N14 Co1 1_555 1_555
C56 H81 1_555 1_555
C60 N13 1_555 1_555
C61 N14 1_555 1_555
Li1 O7 1_555 1_555
O16 Li1 1_555 1_555
H91 O16 1_555 1_555
H92 O16 1_555 1_555
O17 Li1 1_555 1_555
H93 O17 1_555 1_555
H94 O17 1_555 1_555
Li4 O5 1_555 1_555
Li5 O10 1_555 1_555
O18 Li1 1_555 1_555
C2 N2 1_555 1_555
C5 N2 1_555 1_555
C7 N3 1_555 1_555
C12 N4 1_555 1_555
C15 N4 1_555 1_555
C17 N5 1_555 1_555
C19 C20 1_555 1_555
C20 N5 1_555 1_555
P1 O9 1_555 1_555
C53 O12 1_555 1_555
C55 N14 1_555 1_555
C56 C61 1_555 1_555
C60 C61 1_555 1_555
C9 C8 1_555 1_555
H2 C9 1_555 1_555
C10 C9 1_555 1_555
C11 C10 1_555 1_555
H3 C11 1_555 1_555
C29 C8 1_555 1_555
H26 C29 1_555 1_555
H27 C29 1_555 1_555
H28 C29 1_555 1_555
C30 C8 1_555 1_555
H29 C30 1_555 1_555
H30 C30 1_555 1_555
C31 C30 1_555 1_555
O3 C31 1_555 1_555
C32 C9 1_555 1_555
H33 C32 1_555 1_555
H34 C32 1_555 1_555
C33 C32 1_555 1_555
H35 C33 1_555 1_555
H36 C33 1_555 1_555
C34 C33 1_555 1_555
O4 C34 1_555 1_555
N9 C34 1_555 1_555
H37 N9 1_555 1_555
H38 N9 1_555 1_555
H42 C36 1_555 1_555
H43 C36 1_555 1_555
H44 C36 1_555 1_555
C58 C57 1_555 1_555
C59 C58 1_555 1_555
H82 C59 1_555 1_555
C62 C57 1_555 1_555
H83 C62 1_555 1_555
H84 C62 1_555 1_555
H85 C62 1_555 1_555
C63 C58 1_555 1_555
H86 C63 1_555 1_555
H87 C63 1_555 1_555
H88 C63 1_555 1_555
Li3 O4 1_555 1_555
O1 C24 1_555 1_555
N6 C24 1_555 1_555
H15 N6 1_555 1_555
H19 C26 1_555 1_555
H20 C26 1_555 1_555
C27 C26 1_555 1_555
O2 C27 1_555 1_555
N7 C27 1_555 1_555
H21 N7 1_555 1_555
H23 C28 1_555 1_555
H24 C28 1_555 1_555
H25 C28 1_555 1_555
Li4 O1 1_555 1_555
O15 Li4 1_555 1_555
H89 O15 1_555 1_555
H90 O15 1_555 1_555
O19 Li4 1_555 1_555
C9_2 C8_2 1_555 1_555
H2_2 C9_2 1_555 1_555
C10_2 C9_2 1_555 1_555
C11_2 C10_2 1_555 1_555
H3_2 C11_2 1_555 1_555
C29_2 C8_2 1_555 1_555
H26_2 C29_2 1_555 1_555
H27_2 C29_2 1_555 1_555
H28_2 C29_2 1_555 1_555
C30_2 C8_2 1_555 1_555
H29_2 C30_2 1_555 1_555
H30_2 C30_2 1_555 1_555
C31_2 C30_2 1_555 1_555
O3_2 C31_2 1_555 1_555
C32_2 C9_2 1_555 1_555
H33_2 C32_2 1_555 1_555
H34_2 C32_2 1_555 1_555
C33_2 C32_2 1_555 1_555
H35_2 C33_2 1_555 1_555
H36_2 C33_2 1_555 1_555
C34_2 C33_2 1_555 1_555
O4_2 C34_2 1_555 1_555
N9_2 C34_2 1_555 1_555
H37_2 N9_2 1_555 1_555
H38_2 N9_2 1_555 1_555
C58_2 C57_2 1_555 1_555
C59_2 C58_2 1_555 1_555
H82_2 C59_2 1_555 1_555
C62_2 C57_2 1_555 1_555
H83_2 C62_2 1_555 1_555
H84_2 C62_2 1_555 1_555
H85_2 C62_2 1_555 1_555
C63_2 C58_2 1_555 1_555
H87_2 C63_2 1_555 1_555
Li3_2 O4_2 1_555 1_555
Co1_2 C1_2 1_555 1_555
C1_2 N1_2 1_555 1_555
C2_2 C3_2 1_555 1_555
C3_2 C4_2 1_555 1_555
C4_2 H1_2 1_555 1_555
C5_2 C4_2 1_555 1_555
C6_2 C5_2 1_555 1_555
C7_2 C6_2 1_555 1_555
C16_2 C15_2 1_555 1_555
C17_2 C16_2 1_555 1_555
C18_2 C17_2 1_555 1_555
C19_2 C18_2 1_555 1_555
H5_2 C19_2 1_555 1_555
C20_2 C2_2 1_555 1_555
H6_2 C20_2 1_555 1_555
C21_2 C2_2 1_555 1_555
H7_2 C21_2 1_555 1_555
H8_2 C21_2 1_555 1_555
H9_2 C21_2 1_555 1_555
N2_2 Co1_2 1_555 1_555
N3_2 Co1_2 1_555 1_555
N4_2 Co1_2 1_555 1_555
N5_2 Co1_2 1_555 1_555
C22_2 C3_2 1_555 1_555
H10_2 C22_2 1_555 1_555
H11_2 C22_2 1_555 1_555
H12_2 C22_2 1_555 1_555
C23_2 C3_2 1_555 1_555
H13_2 C23_2 1_555 1_555
H14_2 C23_2 1_555 1_555
C24_2 C23_2 1_555 1_555
O1_2 C24_2 1_555 1_555
N6_2 C24_2 1_555 1_555
H15_2 N6_2 1_555 1_555
H16_2 N6_2 1_555 1_555
C25_2 C4_2 1_555 1_555
H17_2 C25_2 1_555 1_555
H18_2 C25_2 1_555 1_555
C26_2 C25_2 1_555 1_555
H19_2 C26_2 1_555 1_555
H20_2 C26_2 1_555 1_555
C27_2 C26_2 1_555 1_555
O2_2 C27_2 1_555 1_555
N7_2 C27_2 1_555 1_555
H21_2 N7_2 1_555 1_555
C28_2 C6_2 1_555 1_555
H23_2 C28_2 1_555 1_555
H24_2 C28_2 1_555 1_555
H25_2 C28_2 1_555 1_555
H31_2 N8_2 1_555 1_555
H32_2 N8_2 1_555 1_555
H41_2 C35_2 1_555 1_555
C41_2 C18_2 1_555 1_555
H54_2 C41_2 1_555 1_555
H55_2 C41_2 1_555 1_555
H56_2 C41_2 1_555 1_555
C42_2 C18_2 1_555 1_555
H58_2 C42_2 1_555 1_555
C43_2 C42_2 1_555 1_555
H59_2 C43_2 1_555 1_555
C45_2 C19_2 1_555 1_555
H62_2 C45_2 1_555 1_555
H63_2 C45_2 1_555 1_555
C46_2 C45_2 1_555 1_555
O7_2 C46_2 1_555 1_555
N12_2 C46_2 1_555 1_555
H64_2 N12_2 1_555 1_555
H65_2 N12_2 1_555 1_555
C50_2 H72_2 1_555 1_555
C51_2 C50_2 1_555 1_555
H73_2 C51_2 1_555 1_555
O13_2 C51_2 1_555 1_555
H78_2 O13_2 1_555 1_555
N13_2 C50_2 1_555 1_555
C55_2 N13_2 1_555 1_555
H80_2 C55_2 1_555 1_555
N14_2 Co1_2 1_555 1_555
C56_2 H81_2 1_555 1_555
C60_2 N13_2 1_555 1_555
C61_2 N14_2 1_555 1_555
Li1_2 O7_2 1_555 1_555
Li2 O1_2 1_555 1_555
O15_2 Li2 1_555 1_555
H89_2 O15_2 1_555 1_555
H90_2 O15_2 1_555 1_555
O16_2 Li1_2 1_555 1_555
H91_2 O16_2 1_555 1_555
H92_2 O16_2 1_555 1_555
O17_2 Li1_2 1_555 1_555
H93_2 O17_2 1_555 1_555
H94_2 O17_2 1_555 1_555
O18_2 Li1_2 1_555 1_555
O19_2 Li2 1_555 1_555
O20 Li2 1_555 1_555
C2_2 N2_2 1_555 1_555
C5_2 N2_2 1_555 1_555
C7_2 N3_2 1_555 1_555
C12_2 N4_2 1_555 1_555
C15_2 N4_2 1_555 1_555
C17_2 N5_2 1_555 1_555
C19_2 C20_2 1_555 1_555
C20_2 N5_2 1_555 1_555
C55_2 N14_2 1_555 1_555
C56_2 C61_2 1_555 1_555
C60_2 C61_2 1_555 1_555
H69_2 C49_2 1_555 1_555
H71_2 C49_2 1_555 1_555
O10_2 P1_2 1_555 1_555
O11_2 P1_2 1_555 1_555
Li5_2 O10_2 1_555 1_555
P1_2 O9_2 1_555 1_555
C14_2 C13_2 1_555 1_555
H4_2 C14_2 1_555 1_555
C37_2 C14_2 1_555 1_555
H45_2 C37_2 1_555 1_555
H46_2 C37_2 1_555 1_555
C38_2 C37_2 1_555 1_555
H47_2 C38_2 1_555 1_555
H48_2 C38_2 1_555 1_555
C39_2 C38_2 1_555 1_555
O20 C39_2 1_555 1_555
N10_2 C39_2 1_555 1_555
H49_2 N10_2 1_555 1_555
H50_2 N10_2 1_555 1_555
H51_2 C40_2 1_555 1_555
H52_2 C40_2 1_555 1_555
H53_2 C40_2 1_555 1_555
O6_2 C44_2 1_555 1_555
N11_2 C44_2 1_555 1_555
C47_2 N11_2 1_555 1_555
H66_2 C47_2 1_555 1_555
H67_2 C47_2 1_555 1_555
C48_2 C47_2 1_555 1_555
H68_2 C48_2 1_555 1_555
O8_2 C52_2 1_555 1_555
H74_2 C52_2 1_555 1_555
C53_2 C52_2 1_555 1_555
H75_2 C53_2 1_555 1_555
C54_2 C53_2 1_555 1_555
H76_2 C54_2 1_555 1_555
H77_2 C54_2 1_555 1_555
O14_2 C54_2 1_555 1_555
H79_2 O14_2 1_555 1_555
C53_2 O12_2 1_555 1_555
O1_3 C24_3 1_555 1_555
N6_3 C24_3 1_555 1_555
H15_3 N6_3 1_555 1_555
H19_3 C26_3 1_555 1_555
H20_3 C26_3 1_555 1_555
C27_3 C26_3 1_555 1_555
O2_3 C27_3 1_555 1_555
N7_3 C27_3 1_555 1_555
H21_3 N7_3 1_555 1_555
H22_2 N7_3 1_555 1_555
H23_3 C28_3 1_555 1_555
H24_3 C28_3 1_555 1_555
H25_3 C28_3 1_555 1_555
Li3 O1_3 1_555 1_555
O15_3 Li3 1_555 1_555
H89_3 O15_3 1_555 1_555
H90_3 O15_3 1_555 1_555
O20_2 Li3 1_555 1_555
Co1_3 C1_3 1_555 1_555
C1_3 N1_3 1_555 1_555
C2_3 C3_3 1_555 1_555
C3_3 C4_3 1_555 1_555
C5_3 C4_3 1_555 1_555
C6_3 C5_3 1_555 1_555
C7_3 C6_3 1_555 1_555
C8_3 C7_3 1_555 1_555
C9_3 C8_3 1_555 1_555
H2_3 C9_3 1_555 1_555
C10_3 C9_3 1_555 1_555
C11_3 C10_3 1_555 1_555
H3_3 C11_3 1_555 1_555
C12_3 C11_3 1_555 1_555
C13_3 C12_3 1_555 1_555
C14_3 C13_3 1_555 1_555
H4_3 C14_3 1_555 1_555
C15_3 C14_3 1_555 1_555
C16_3 C15_3 1_555 1_555
C17_3 C16_3 1_555 1_555
C18_3 C17_3 1_555 1_555
C19_3 C18_3 1_555 1_555
H5_3 C19_3 1_555 1_555
C20_3 C2_3 1_555 1_555
H6_3 C20_3 1_555 1_555
C21_3 C2_3 1_555 1_555
H7_3 C21_3 1_555 1_555
H8_3 C21_3 1_555 1_555
H9_3 C21_3 1_555 1_555
N2_3 Co1_3 1_555 1_555
N3_3 Co1_3 1_555 1_555
N4_3 Co1_3 1_555 1_555
N5_3 Co1_3 1_555 1_555
C22_3 C3_3 1_555 1_555
H10_3 C22_3 1_555 1_555
H11_3 C22_3 1_555 1_555
H12_3 C22_3 1_555 1_555
C23_3 C3_3 1_555 1_555
H13_3 C23_3 1_555 1_555
H14_3 C23_3 1_555 1_555
C25_3 C4_3 1_555 1_555
H17_3 C25_3 1_555 1_555
H18_3 C25_3 1_555 1_555
C29_3 C8_3 1_555 1_555
H26_3 C29_3 1_555 1_555
H27_3 C29_3 1_555 1_555
H28_3 C29_3 1_555 1_555
C30_3 C8_3 1_555 1_555
H29_3 C30_3 1_555 1_555
H30_3 C30_3 1_555 1_555
C31_3 C30_3 1_555 1_555
O3_3 C31_3 1_555 1_555
N8_3 C31_3 1_555 1_555
H31_3 N8_3 1_555 1_555
H32_3 N8_3 1_555 1_555
C32_3 C9_3 1_555 1_555
H33_3 C32_3 1_555 1_555
H34_3 C32_3 1_555 1_555
C33_3 C32_3 1_555 1_555
H35_3 C33_3 1_555 1_555
H36_3 C33_3 1_555 1_555
C34_3 C33_3 1_555 1_555
O19 C34_3 1_555 1_555
N9_3 C34_3 1_555 1_555
H37_3 N9_3 1_555 1_555
H38_3 N9_3 1_555 1_555
C35_3 C13_3 1_555 1_555
H39_3 C35_3 1_555 1_555
H40_3 C35_3 1_555 1_555
H41_3 C35_3 1_555 1_555
C36_2 C13_3 1_555 1_555
H42_2 C36_2 1_555 1_555
H43_2 C36_2 1_555 1_555
H44_2 C36_2 1_555 1_555
C37_3 C14_3 1_555 1_555
H45_3 C37_3 1_555 1_555
H46_3 C37_3 1_555 1_555
C38_3 C37_3 1_555 1_555
H47_3 C38_3 1_555 1_555
H48_3 C38_3 1_555 1_555
C39_3 C38_3 1_555 1_555
O20_2 C39_3 1_555 1_555
N10_3 C39_3 1_555 1_555
H49_3 N10_3 1_555 1_555
H50_3 N10_3 1_555 1_555
C40_3 C16_3 1_555 1_555
H51_3 C40_3 1_555 1_555
H52_3 C40_3 1_555 1_555
H53_3 C40_3 1_555 1_555
C41_3 C18_3 1_555 1_555
H54_3 C41_3 1_555 1_555
H55_3 C41_3 1_555 1_555
H56_3 C41_3 1_555 1_555
C42_3 C18_3 1_555 1_555
H57_3 C42_3 1_555 1_555
H58_3 C42_3 1_555 1_555
C43_3 C42_3 1_555 1_555
H59_3 C43_3 1_555 1_555
H60_3 C43_3 1_555 1_555
C44_3 C43_3 1_555 1_555
O6_3 C44_3 1_555 1_555
N11_3 C44_3 1_555 1_555
H61_3 N11_3 1_555 1_555
C45_3 C19_3 1_555 1_555
H62_3 C45_3 1_555 1_555
H63_3 C45_3 1_555 1_555
C46_3 C45_3 1_555 1_555
O7_3 C46_3 1_555 1_555
N12_3 C46_3 1_555 1_555
H64_3 N12_3 1_555 1_555
H65_3 N12_3 1_555 1_555
C47_3 N11_3 1_555 1_555
H66_3 C47_3 1_555 1_555
H67_3 C47_3 1_555 1_555
C48_3 C47_3 1_555 1_555
H68_3 C48_3 1_555 1_555
O8_3 C52_3 1_555 1_555
C50_3 H72_3 1_555 1_555
C51_3 C50_3 1_555 1_555
H73_3 C51_3 1_555 1_555
C52_3 C51_3 1_555 1_555
H74_3 C52_3 1_555 1_555
C53_3 C52_3 1_555 1_555
H75_3 C53_3 1_555 1_555
C54_3 C53_3 1_555 1_555
H76_3 C54_3 1_555 1_555
H77_3 C54_3 1_555 1_555
O12_3 C50_3 1_555 1_555
O13_3 C51_3 1_555 1_555
H78_3 O13_3 1_555 1_555
O14_3 C54_3 1_555 1_555
H79_3 O14_3 1_555 1_555
N13_3 C50_3 1_555 1_555
C55_3 N13_3 1_555 1_555
H80_3 C55_3 1_555 1_555
N14_3 Co1_3 1_555 1_555
C56_3 H81_3 1_555 1_555
C57_3 C56_3 1_555 1_555
C58_3 C57_3 1_555 1_555
C59_3 C58_3 1_555 1_555
H82_3 C59_3 1_555 1_555
C60_3 N13_3 1_555 1_555
C61_3 N14_3 1_555 1_555
C62_3 C57_3 1_555 1_555
H83_3 C62_3 1_555 1_555
H84_3 C62_3 1_555 1_555
H85_3 C62_3 1_555 1_555
C63_3 C58_3 1_555 1_555
H87_3 C63_3 1_555 1_555
Li5_2 O7_3 1_555 1_555
O16_3 Li5_2 1_555 1_555
H91_3 O16_3 1_555 1_555
H92_3 O16_3 1_555 1_555
O17_3 Li5_2 1_555 1_555
H93_3 O17_3 1_555 1_555
H94_3 O17_3 1_555 1_555
C2_3 N2_3 1_555 1_555
C5_3 N2_3 1_555 1_555
C7_3 N3_3 1_555 1_555
C10_3 N3_3 1_555 1_555
C12_3 N4_3 1_555 1_555
C15_3 N4_3 1_555 1_555
C17_3 N5_3 1_555 1_555
C19_3 C20_3 1_555 1_555
C20_3 N5_3 1_555 1_555
C53_3 O12_3 1_555 1_555
C55_3 N14_3 1_555 1_555
C56_3 C61_3 1_555 1_555
C59_3 C60_3 1_555 1_555
C60_3 C61_3 1_555 1_555
H69_3 C49_3 1_555 1_555
H71_3 C49_3 1_555 1_555
O18_2 P1_3 1_555 1_555
O11_3 P1_3 1_555 1_555
P1_3 O9_3 1_555 1_555
C14_4 C13_4 1_555 1_555
H4_4 C14_4 1_555 1_555
C36_3 C13_4 1_555 1_555
H42_3 C36_3 1_555 1_555
H43_3 C36_3 1_555 1_555
H44_3 C36_3 1_555 1_555
C37_4 C14_4 1_555 1_555
H45_4 C37_4 1_555 1_555
H46_4 C37_4 1_555 1_555
C38_4 C37_4 1_555 1_555
H47_4 C38_4 1_555 1_555
H48_4 C38_4 1_555 1_555
C39_4 C38_4 1_555 1_555
O5_2 C39_4 1_555 1_555
N10_4 C39_4 1_555 1_555
H49_4 N10_4 1_555 1_555
H50_4 N10_4 1_555 1_555
H51_4 C40_4 1_555 1_555
H52_4 C40_4 1_555 1_555
H53_4 C40_4 1_555 1_555
O6_4 C44_4 1_555 1_555
N11_4 C44_4 1_555 1_555
C47_4 N11_4 1_555 1_555
H66_4 C47_4 1_555 1_555
H67_4 C47_4 1_555 1_555
C48_4 C47_4 1_555 1_555
H68_4 C48_4 1_555 1_555
C49_4 C48_4 1_555 1_555
H69_4 C49_4 1_555 1_555
H70_4 C49_4 1_555 1_555
H71_4 C49_4 1_555 1_555
P1_4 O8_4 1_555 1_555
O8_4 C52_4 1_555 1_555
O9_4 C48_4 1_555 1_555
O18 P1_4 1_555 1_555
O11_4 P1_4 1_555 1_555
H74_4 C52_4 1_555 1_555
C53_4 C52_4 1_555 1_555
H75_4 C53_4 1_555 1_555
C54_4 C53_4 1_555 1_555
H76_4 C54_4 1_555 1_555
H77_4 C54_4 1_555 1_555
O14_4 C54_4 1_555 1_555
H79_4 O14_4 1_555 1_555
Li3_2 O5_2 1_555 1_555
P1_4 O9_4 1_555 1_555
C53_4 O12_4 1_555 1_555
Co1_4 C1_4 1_555 1_555
C1_4 N1_4 1_555 1_555
C2_4 C3_4 1_555 1_555
C3_4 C4_4 1_555 1_555
C4_4 H1_4 1_555 1_555
C5_4 C4_4 1_555 1_555
C6_4 C5_4 1_555 1_555
C7_4 C6_4 1_555 1_555
C8_4 C7_4 1_555 1_555
C9_4 C8_4 1_555 1_555
H2_4 C9_4 1_555 1_555
C10_4 C9_4 1_555 1_555
C11_4 C10_4 1_555 1_555
H3_4 C11_4 1_555 1_555
C12_4 C11_4 1_555 1_555
C16_4 C15_4 1_555 1_555
C17_4 C16_4 1_555 1_555
C18_4 C17_4 1_555 1_555
C19_4 C18_4 1_555 1_555
H5_4 C19_4 1_555 1_555
C20_4 C2_4 1_555 1_555
H6_4 C20_4 1_555 1_555
C21_4 C2_4 1_555 1_555
H7_4 C21_4 1_555 1_555
H8_4 C21_4 1_555 1_555
H9_4 C21_4 1_555 1_555
N2_4 Co1_4 1_555 1_555
N3_4 Co1_4 1_555 1_555
N4_4 Co1_4 1_555 1_555
N5_4 Co1_4 1_555 1_555
C22_4 C3_4 1_555 1_555
H10_4 C22_4 1_555 1_555
H11_4 C22_4 1_555 1_555
H12_4 C22_4 1_555 1_555
C23_4 C3_4 1_555 1_555
H13_4 C23_4 1_555 1_555
H14_4 C23_4 1_555 1_555
C24_4 C23_4 1_555 1_555
O1_4 C24_4 1_555 1_555
N6_4 C24_4 1_555 1_555
H15_4 N6_4 1_555 1_555
H16_4 N6_4 1_555 1_555
C25_4 C4_4 1_555 1_555
H17_4 C25_4 1_555 1_555
H18_4 C25_4 1_555 1_555
C26_4 C25_4 1_555 1_555
H19_4 C26_4 1_555 1_555
H20_4 C26_4 1_555 1_555
C27_4 C26_4 1_555 1_555
O2_4 C27_4 1_555 1_555
N7_4 C27_4 1_555 1_555
H21_4 N7_4 1_555 1_555
H22_3 N7_4 1_555 1_555
C28_4 C6_4 1_555 1_555
H23_4 C28_4 1_555 1_555
H24_4 C28_4 1_555 1_555
H25_4 C28_4 1_555 1_555
C29_4 C8_4 1_555 1_555
H26_4 C29_4 1_555 1_555
H27_4 C29_4 1_555 1_555
H28_4 C29_4 1_555 1_555
C30_4 C8_4 1_555 1_555
H29_4 C30_4 1_555 1_555
H30_4 C30_4 1_555 1_555
C31_4 C30_4 1_555 1_555
O3_4 C31_4 1_555 1_555
N8_4 C31_4 1_555 1_555
H31_4 N8_4 1_555 1_555
H32_4 N8_4 1_555 1_555
C32_4 C9_4 1_555 1_555
H33_4 C32_4 1_555 1_555
H34_4 C32_4 1_555 1_555
C33_4 C32_4 1_555 1_555
H35_4 C33_4 1_555 1_555
H36_4 C33_4 1_555 1_555
C34_4 C33_4 1_555 1_555
O19_2 C34_4 1_555 1_555
N9_4 C34_4 1_555 1_555
H37_4 N9_4 1_555 1_555
H38_4 N9_4 1_555 1_555
H39_4 C35_4 1_555 1_555
H41_4 C35_4 1_555 1_555
C41_4 C18_4 1_555 1_555
H54_4 C41_4 1_555 1_555
H55_4 C41_4 1_555 1_555
H56_4 C41_4 1_555 1_555
C42_4 C18_4 1_555 1_555
H58_4 C42_4 1_555 1_555
C43_4 C42_4 1_555 1_555
H59_4 C43_4 1_555 1_555
C45_4 C19_4 1_555 1_555
H62_4 C45_4 1_555 1_555
H63_4 C45_4 1_555 1_555
C46_4 C45_4 1_555 1_555
O7_4 C46_4 1_555 1_555
N12_4 C46_4 1_555 1_555
H64_4 N12_4 1_555 1_555
H65_4 N12_4 1_555 1_555
C50_4 H72_4 1_555 1_555
C51_4 C50_4 1_555 1_555
H73_4 C51_4 1_555 1_555
O13_4 C51_4 1_555 1_555
H78_4 O13_4 1_555 1_555
N13_4 C50_4 1_555 1_555
C55_4 N13_4 1_555 1_555
H80_4 C55_4 1_555 1_555
N14_4 Co1_4 1_555 1_555
C56_4 H81_4 1_555 1_555
C57_4 C56_4 1_555 1_555
C58_4 C57_4 1_555 1_555
C59_4 C58_4 1_555 1_555
H82_4 C59_4 1_555 1_555
C60_4 N13_4 1_555 1_555
C61_4 N14_4 1_555 1_555
C62_4 C57_4 1_555 1_555
H83_4 C62_4 1_555 1_555
H84_4 C62_4 1_555 1_555
H85_4 C62_4 1_555 1_555
C63_4 C58_4 1_555 1_555
H86_3 C63_4 1_555 1_555
H87_4 C63_4 1_555 1_555
H88_3 C63_4 1_555 1_555
Li5 O7_4 1_555 1_555
Li3_2 O1_4 1_555 1_555
O15_4 Li3_2 1_555 1_555
H89_4 O15_4 1_555 1_555
H90_4 O15_4 1_555 1_555
O16_4 Li5 1_555 1_555
H91_4 O16_4 1_555 1_555
H92_4 O16_4 1_555 1_555
O17_4 Li5 1_555 1_555
H93_4 O17_4 1_555 1_555
H94_4 O17_4 1_555 1_555
C2_4 N2_4 1_555 1_555
C5_4 N2_4 1_555 1_555
C7_4 N3_4 1_555 1_555
C10_4 N3_4 1_555 1_555
C12_4 N4_4 1_555 1_555
C15_4 N4_4 1_555 1_555
C17_4 N5_4 1_555 1_555
C19_4 C20_4 1_555 1_555
C20_4 N5_4 1_555 1_555
C55_4 N14_4 1_555 1_555
C56_4 C61_4 1_555 1_555
C59_4 C60_4 1_555 1_555
C60_4 C61_4 1_555 1_555
H42_4 C36_4 1_555 1_555
H43_4 C36_4 1_555 1_555
H44_4 C36_4 1_555 1_555

#END
