
###############################################################################
#
# This file contains modified crystal structure data generated from the
# MOF subset of the Cambridge Structural Database (CSD) v543 
# hosted by the Cambridge Crystallographic Data Centre (CCDC).
#
# This work is licensed under the Creative Commons
# Attribution-NonCommercial-ShareAlike 4.0 International License.
# To view a copy of this license, visit
# http://creativecommons.org/licenses/by-nc-sa/4.0/
# or send a letter to
# Creative Commons, PO Box 1866, Mountain View, CA 94042, USA.
#
# CIF created using the CSD Python API on 29 September 2022
# The structure has been converted into the P1 space group
# The structure has a 3D framework
# The original CSD entry WIMCAZ is in the monoclinic crystal system
# The framework has been calculated to contain at least 10.0% void space
# The void calculation uses a probe of radius 1.32A, grid spacing 0.4
# The framework is charged, counterions have been retained in the structure
#
###############################################################################

data_WIMCAZ
_chemical_formula_moiety         '(C184 H112 N16 Ni10 O70 8-)n'
_symmetry_cell_setting           triclinic
_symmetry_space_group_name_H-M   'P 1'
_symmetry_Int_Tables_number      1
_space_group_name_Hall           'P 1'
loop_
_symmetry_equiv_pos_site_id
_symmetry_equiv_pos_as_xyz
1 x,y,z
_cell_length_a                   33.556(4)
_cell_length_b                   14.8134(18)
_cell_length_c                   13.4540(16)
_cell_angle_alpha                90
_cell_angle_beta                 96.769(3)
_cell_angle_gamma                90
_cell_volume                     6641.08
loop_
_atom_site_label
_atom_site_type_symbol
_atom_site_fract_x
_atom_site_fract_y
_atom_site_fract_z
Ni1 Ni 0.16054(2) 0.29541(5) 0.34483(6)
Ni2 Ni 0.2500 0.2500 0.5000
N1 N 0.0987(2) 0.3221(5) 0.3346(6)
N2 N 0.16903(19) 0.6090(4) 0.7372(4)
O1 O 0.14560(15) 0.1969(3) 0.2378(4)
O2 O 0.20025(17) 0.1107(4) 0.2662(5)
O5 O 0.22133(14) 0.2580(3) 0.3540(3)
O6 O 0.21868(16) 0.3518(4) 0.5543(4)
O7 O 0.16703(17) 0.3980(3) 0.4475(4)
C1 C 0.1654(2) 0.1267(5) 0.2258(5)
C2 C 0.1456(2) 0.0549(5) 0.1576(6)
C3 C 0.1049(2) 0.0599(6) 0.1266(7)
H2 H 0.0900 0.1067 0.1499
C11 C 0.0154(3) 0.0314(10) 0.0911(11)
H6 H 0.0251 0.0529 0.1543
C12 C 0.1901(2) 0.4019(5) 0.5268(5)
C13 C 0.1824(2) 0.4753(5) 0.5991(5)
C14 C 0.1519(3) 0.5378(6) 0.5794(6)
H7 H 0.1352 0.5358 0.5191
C15 C 0.1463(3) 0.6032(6) 0.6497(6)
H8 H 0.1258 0.6450 0.6350
C16 C 0.1987(3) 0.5495(6) 0.7550(6)
H9 H 0.2152 0.5533 0.8156
C17 C 0.2065(3) 0.4831(6) 0.6895(6)
H10 H 0.2278 0.4436 0.7054
C18 C 0.0719(3) 0.2500(8) 0.3226(10)
H11 H 0.0808 0.1948 0.3012
C19 C 0.0332(4) 0.2575(10) 0.3411(12)
H12 H 0.0162 0.2079 0.3306
C20 C 0.0184(4) 0.3370(11) 0.3750(12)
C21 C 0.0444(4) 0.4103(10) 0.3863(12)
H13 H 0.0354 0.4654 0.4082
C22 C 0.0831(3) 0.4021(8) 0.3656(9)
H14 H 0.0997 0.4526 0.3727
O17 O 0.0341(4) 0.4066(14) 0.0493(14)
H20 H 0.0139 0.4365 0.0316
O18 O 0.0466(4) 0.2801(10) 0.1507(13)
C46 C 0.0250(5) 0.3407(14) 0.1068(17)
Ni7 Ni 0.16054(2) 0.70459(5) 0.84483(6)
N6 N 0.16903(19) 0.3910(4) 0.2372(4)
O20 O 0.28989(15) 0.3448(4) 0.4620(4)
O21 O 0.21011(15) 0.1552(4) 0.5380(4)
O22 O 0.15279(16) 0.2034(3) 0.4525(4)
O23 O 0.27867(14) 0.2420(3) 0.6460(3)
O24 O 0.28132(16) 0.1482(4) 0.4457(4)
O3 O 0.21011(15) 0.8448(4) 0.0380(4)
C4 C 0.0858(2) 0.9965(7) 0.0614(8)
C5 C 0.1090(2) 0.9284(6) 0.0269(7)
C6 C 0.1498(2) 0.9223(5) 0.0555(6)
C7 C 0.1680(2) 0.9850(5) 0.1229(6)
H4 H 0.1953 0.9803 0.1449
C8 C 0.1733(2) 0.8480(5) 0.0122(5)
C9 C 0.0415(3) 0.9985(7) 0.0303(9)
Ni9 Ni 0.2500 0.7500 0.0000
O4 O 0.15279(16) 0.7966(3) 0.9525(4)
H3 H 0.0967 0.8854 0.9832
C10 C 0.0252(3) 0.9667(11) 0.9397(12)
H5 H 0.0422 0.9427 0.8967
Ni9_2 Ni 0.2500 0.7500 1.0000
O8 O 0.9659(4) 0.4066(14) 0.4507(14)
H1 H 0.9861 0.4365 0.4684
O9 O 0.9534(4) 0.2801(10) 0.3493(13)
C23 C 0.9750(5) 0.3407(14) 0.3932(17)
O13 O 0.84721(16) 0.2034(3) 0.0475(4)
H16 H 0.9033 0.1146 0.0168
C33 C 0.9748(3) 0.0333(11) 0.0603(12)
H18 H 0.9578 0.0573 0.1033
Ni3 Ni 0.83946(2) 0.29541(5) 0.15517(6)
N3 N 0.9013(2) 0.3221(5) 0.1654(6)
O14 O 0.77867(14) 0.2580(3) 0.1460(3)
O16 O 0.83297(17) 0.3980(3) 0.0525(4)
C41 C 0.9281(3) 0.2500(8) 0.1774(10)
H25 H 0.9192 0.1948 0.1988
C42 C 0.9668(4) 0.2575(10) 0.1589(12)
H26 H 0.9838 0.2079 0.1694
C43 C 0.9816(4) 0.3370(11) 0.1250(12)
C44 C 0.9556(4) 0.4103(10) 0.1137(12)
H27 H 0.9646 0.4654 0.0918
C45 C 0.9169(3) 0.4021(8) 0.1344(9)
H28 H 0.9003 0.4526 0.1273
Ni8 Ni 0.7500 0.2500 0.0000
N5 N 0.83097(19) 0.3910(4) 0.2628(4)
O19 O 0.85440(15) 0.1969(3) 0.2622(4)
O12 O 0.78989(15) 0.1552(4) 0.9620(4)
C27 C 0.9142(2) 0.0035(7) 0.9386(8)
C28 C 0.8910(2) 0.0716(6) 0.9731(7)
C29 C 0.8502(2) 0.0777(5) 0.9445(6)
C30 C 0.8320(2) 0.0150(5) 0.8771(6)
H17 H 0.8047 0.0197 0.8551
C31 C 0.8267(2) 0.1520(5) 0.9878(5)
C32 C 0.9585(3) 0.0015(7) 0.9697(9)
N4 N 0.83097(19) 0.6090(4) 0.7628(4)
O15 O 0.78132(16) 0.3518(4) 0.9457(4)
C35 C 0.8099(2) 0.4019(5) 0.9732(5)
C36 C 0.8176(2) 0.4753(5) 0.9009(5)
C37 C 0.8481(3) 0.5378(6) 0.9206(6)
H21 H 0.8648 0.5358 0.9809
C38 C 0.8537(3) 0.6032(6) 0.8503(6)
H22 H 0.8742 0.6450 0.8650
C39 C 0.8013(3) 0.5495(6) 0.7450(6)
H23 H 0.7848 0.5533 0.6844
C40 C 0.7935(3) 0.4831(6) 0.8105(6)
H24 H 0.7722 0.4436 0.7946
Ni5 Ni 0.83946(2) 0.70459(5) 0.65517(6)
Ni8_2 Ni 0.7500 0.2500 1.0000
O10 O 0.85440(15) 0.8031(3) 0.7622(4)
O11 O 0.79975(17) 0.8893(4) 0.7338(5)
C24 C 0.8346(2) 0.8733(5) 0.7742(5)
C25 C 0.8544(2) 0.9451(5) 0.8424(6)
C26 C 0.8951(2) 0.9401(6) 0.8734(7)
H15 H 0.9100 0.8933 0.8501
C34 C 0.9846(3) 0.9686(10) 0.9089(11)
H19 H 0.9749 0.9471 0.8457
C27_2 C 0.0858(2) 0.0035(7) 0.5614(8)
C28_2 C 0.1090(2) 0.0716(6) 0.5269(7)
H16_2 H 0.0967 0.1146 0.4832
C29_2 C 0.1498(2) 0.0777(5) 0.5555(6)
C30_2 C 0.1680(2) 0.0150(5) 0.6229(6)
H17_2 H 0.1953 0.0197 0.6449
C31_2 C 0.1733(2) 0.1520(5) 0.5122(5)
C32_2 C 0.0415(3) 0.0015(7) 0.5303(9)
C33_2 C 0.0252(3) 0.0333(11) 0.4397(12)
H18_2 H 0.0422 0.0573 0.3967
O10_2 O 0.14560(15) 0.8031(3) 0.7378(4)
O11_2 O 0.20025(17) 0.8893(4) 0.7662(5)
C24_2 C 0.1654(2) 0.8733(5) 0.7258(5)
C25_2 C 0.1456(2) 0.9451(5) 0.6576(6)
C26_2 C 0.1049(2) 0.9401(6) 0.6266(7)
H15_2 H 0.0900 0.8933 0.6499
C34_2 C 0.0154(3) 0.9686(10) 0.5911(11)
H19_2 H 0.0251 0.9471 0.6543
O2_2 O 0.79975(17) 0.1107(4) 0.2338(5)
C1_2 C 0.8346(2) 0.1267(5) 0.2742(5)
C2_2 C 0.8544(2) 0.0549(5) 0.3424(6)
C3_2 C 0.8951(2) 0.0599(6) 0.3734(7)
H2_2 H 0.9100 0.1067 0.3501
C11_2 C 0.9846(3) 0.0314(10) 0.4089(11)
H6_2 H 0.9749 0.0529 0.3457
O20_2 O 0.71011(15) 0.3448(4) 0.0380(4)
O24_2 O 0.71868(16) 0.1482(4) 0.0543(4)
O23_2 O 0.72133(14) 0.2420(3) 0.8540(3)
O3_2 O 0.78989(15) 0.8448(4) 0.4620(4)
O4_2 O 0.84721(16) 0.7966(3) 0.5475(4)
C4_2 C 0.9142(2) 0.9965(7) 0.4386(8)
C5_2 C 0.8910(2) 0.9284(6) 0.4731(7)
H3_2 H 0.9033 0.8854 0.5168
C6_2 C 0.8502(2) 0.9223(5) 0.4445(6)
C7_2 C 0.8320(2) 0.9850(5) 0.3771(6)
H4_2 H 0.8047 0.9803 0.3551
C8_2 C 0.8267(2) 0.8480(5) 0.4878(5)
C9_2 C 0.9585(3) 0.9985(7) 0.4697(9)
C10_2 C 0.9748(3) 0.9667(11) 0.5603(12)
H5_2 H 0.9578 0.9427 0.6033
Ni9_3 Ni 0.7500 0.7500 0.5000
N2_2 N 0.66903(19) 0.1090(4) 0.7372(4)
C14_2 C 0.6519(3) 0.0378(6) 0.5794(6)
H7_2 H 0.6352 0.0358 0.5191
C15_2 C 0.6463(3) 0.1032(6) 0.6497(6)
H8_2 H 0.6258 0.1450 0.6350
C16_2 C 0.6987(3) 0.0495(6) 0.7550(6)
H9_2 H 0.7152 0.0533 0.8156
Ni7_2 Ni 0.66054(2) 0.20459(5) 0.84483(6)
N4_2 N 0.33097(19) 0.1090(4) 0.7628(4)
C37_2 C 0.3481(3) 0.0378(6) 0.9206(6)
H21_2 H 0.3648 0.0358 0.9809
C38_2 C 0.3537(3) 0.1032(6) 0.8503(6)
H22_2 H 0.3742 0.1450 0.8650
C39_2 C 0.3013(3) 0.0495(6) 0.7450(6)
H23_2 H 0.2848 0.0533 0.6844
Ni5_2 Ni 0.33946(2) 0.20459(5) 0.65517(6)
Ni1_2 Ni 0.66054(2) 0.79541(5) 0.34483(6)
N1_2 N 0.5987(2) 0.8221(5) 0.3346(6)
O1_2 O 0.64560(15) 0.6969(3) 0.2378(4)
O2_3 O 0.70025(17) 0.6107(4) 0.2662(5)
O5_2 O 0.72133(14) 0.7580(3) 0.3540(3)
O6_2 O 0.71868(16) 0.8518(4) 0.5543(4)
O7_2 O 0.66703(17) 0.8980(3) 0.4475(4)
O8_2 O 0.4659(4) 0.9066(14) 0.4507(14)
H1_2 H 0.4861 0.9365 0.4684
O9_2 O 0.4534(4) 0.7801(10) 0.3493(13)
C1_3 C 0.6654(2) 0.6267(5) 0.2258(5)
C2_3 C 0.6456(2) 0.5549(5) 0.1576(6)
C3_3 C 0.6049(2) 0.5599(6) 0.1266(7)
H2_3 H 0.5900 0.6067 0.1499
C4_3 C 0.5858(2) 0.4965(7) 0.0614(8)
C5_3 C 0.6090(2) 0.4284(6) 0.0269(7)
C6_3 C 0.6498(2) 0.4223(5) 0.0555(6)
C7_3 C 0.6680(2) 0.4850(5) 0.1229(6)
H4_3 H 0.6953 0.4803 0.1449
C8_3 C 0.6733(2) 0.3480(5) 0.0122(5)
C9_3 C 0.5415(3) 0.4985(7) 0.0303(9)
C11_3 C 0.5154(3) 0.5314(10) 0.0911(11)
H6_3 H 0.5251 0.5529 0.1543
C12_2 C 0.6901(2) 0.9019(5) 0.5268(5)
C13_2 C 0.6824(2) 0.9753(5) 0.5991(5)
C17_2 C 0.7065(3) 0.9831(6) 0.6895(6)
H10_2 H 0.7278 0.9436 0.7054
C18_2 C 0.5719(3) 0.7500(8) 0.3226(10)
H11_2 H 0.5808 0.6948 0.3012
C19_2 C 0.5332(4) 0.7575(10) 0.3411(12)
H12_2 H 0.5162 0.7079 0.3306
C20_2 C 0.5184(4) 0.8370(11) 0.3750(12)
C21_2 C 0.5444(4) 0.9103(10) 0.3863(12)
H13_2 H 0.5354 0.9654 0.4082
C22_2 C 0.5831(3) 0.9021(8) 0.3656(9)
H14_2 H 0.5997 0.9526 0.3727
C23_2 C 0.4750(5) 0.8407(14) 0.3932(17)
O13_2 O 0.34721(16) 0.7034(3) 0.0475(4)
H16_3 H 0.4033 0.6146 0.0168
C33_3 C 0.4748(3) 0.5333(11) 0.0603(12)
H18_3 H 0.4578 0.5573 0.1033
Ni3_2 Ni 0.33946(2) 0.79541(5) 0.15517(6)
N3_2 N 0.4013(2) 0.8221(5) 0.1654(6)
O14_2 O 0.27867(14) 0.7580(3) 0.1460(3)
O16_2 O 0.33297(17) 0.8980(3) 0.0525(4)
O17_2 O 0.5341(4) 0.9066(14) 0.0493(14)
H20_2 H 0.5139 0.9365 0.0316
O18_2 O 0.5466(4) 0.7801(10) 0.1507(13)
C41_2 C 0.4281(3) 0.7500(8) 0.1774(10)
H25_2 H 0.4192 0.6948 0.1988
C42_2 C 0.4668(4) 0.7575(10) 0.1589(12)
H26_2 H 0.4838 0.7079 0.1694
C43_2 C 0.4816(4) 0.8370(11) 0.1250(12)
C44_2 C 0.4556(4) 0.9103(10) 0.1137(12)
H27_2 H 0.4646 0.9654 0.0918
C45_2 C 0.4169(3) 0.9021(8) 0.1344(9)
H28_2 H 0.4003 0.9526 0.1273
C46_2 C 0.5250(5) 0.8407(14) 0.1068(17)
N5_2 N 0.33097(19) 0.8910(4) 0.2628(4)
N6_2 N 0.66903(19) 0.8910(4) 0.2372(4)
O19_2 O 0.35440(15) 0.6969(3) 0.2622(4)
O21_2 O 0.71011(15) 0.6552(4) 0.5380(4)
O22_2 O 0.65279(16) 0.7034(3) 0.4525(4)
O23_3 O 0.77867(14) 0.7420(3) 0.6460(3)
O24_3 O 0.78132(16) 0.6482(4) 0.4457(4)
O4_3 O 0.65279(16) 0.2966(3) 0.9525(4)
H3_3 H 0.5967 0.3854 0.9832
C10_3 C 0.5252(3) 0.4667(11) 0.9397(12)
H5_3 H 0.5422 0.4427 0.8967
O10_3 O 0.35440(15) 0.3031(3) 0.7622(4)
O11_3 O 0.29975(17) 0.3893(4) 0.7338(5)
O12_2 O 0.28989(15) 0.6552(4) 0.9620(4)
C24_3 C 0.3346(2) 0.3733(5) 0.7742(5)
C25_3 C 0.3544(2) 0.4451(5) 0.8424(6)
C26_3 C 0.3951(2) 0.4401(6) 0.8734(7)
H15_3 H 0.4100 0.3933 0.8501
C27_3 C 0.4142(2) 0.5035(7) 0.9386(8)
C28_3 C 0.3910(2) 0.5716(6) 0.9731(7)
C29_3 C 0.3502(2) 0.5777(5) 0.9445(6)
C30_3 C 0.3320(2) 0.5150(5) 0.8771(6)
H17_3 H 0.3047 0.5197 0.8551
C31_3 C 0.3267(2) 0.6520(5) 0.9878(5)
C32_3 C 0.4585(3) 0.5015(7) 0.9697(9)
C34_3 C 0.4846(3) 0.4686(10) 0.9089(11)
H19_3 H 0.4749 0.4471 0.8457
O15_2 O 0.28132(16) 0.8518(4) 0.9457(4)
C35_2 C 0.3099(2) 0.9019(5) 0.9732(5)
C36_2 C 0.3176(2) 0.9753(5) 0.9009(5)
C40_2 C 0.2935(3) 0.9831(6) 0.8105(6)
H24_2 H 0.2722 0.9436 0.7946
O2_4 O 0.29975(17) 0.6107(4) 0.2338(5)
O4_4 O 0.34721(16) 0.2966(3) 0.5475(4)
C1_4 C 0.3346(2) 0.6267(5) 0.2742(5)
C2_4 C 0.3544(2) 0.5549(5) 0.3424(6)
C3_4 C 0.3951(2) 0.5599(6) 0.3734(7)
H2_4 H 0.4100 0.6067 0.3501
C4_4 C 0.4142(2) 0.4965(7) 0.4386(8)
C5_4 C 0.3910(2) 0.4284(6) 0.4731(7)
H3_4 H 0.4033 0.3854 0.5168
C6_4 C 0.3502(2) 0.4223(5) 0.4445(6)
C7_4 C 0.3320(2) 0.4850(5) 0.3771(6)
H4_4 H 0.3047 0.4803 0.3551
C8_4 C 0.3267(2) 0.3480(5) 0.4878(5)
C9_4 C 0.4585(3) 0.4985(7) 0.4697(9)
C10_4 C 0.4748(3) 0.4667(11) 0.5603(12)
H5_4 H 0.4578 0.4427 0.6033
C11_4 C 0.4846(3) 0.5314(10) 0.4089(11)
H6_4 H 0.4749 0.5529 0.3457
O10_4 O 0.64560(15) 0.3031(3) 0.7378(4)
O11_4 O 0.70025(17) 0.3893(4) 0.7662(5)
C24_4 C 0.6654(2) 0.3733(5) 0.7258(5)
C25_4 C 0.6456(2) 0.4451(5) 0.6576(6)
C26_4 C 0.6049(2) 0.4401(6) 0.6266(7)
H15_4 H 0.5900 0.3933 0.6499
C27_4 C 0.5858(2) 0.5035(7) 0.5614(8)
C28_4 C 0.6090(2) 0.5716(6) 0.5269(7)
H16_4 H 0.5967 0.6146 0.4832
C29_4 C 0.6498(2) 0.5777(5) 0.5555(6)
C30_4 C 0.6680(2) 0.5150(5) 0.6229(6)
H17_4 H 0.6953 0.5197 0.6449
C31_4 C 0.6733(2) 0.6520(5) 0.5122(5)
C32_4 C 0.5415(3) 0.5015(7) 0.5303(9)
C33_4 C 0.5252(3) 0.5333(11) 0.4397(12)
H18_4 H 0.5422 0.5573 0.3967
C34_4 C 0.5154(3) 0.4686(10) 0.5911(11)
H19_4 H 0.5251 0.4471 0.6543
O24_4 O 0.21868(16) 0.6482(4) 0.0543(4)
O23_4 O 0.22133(14) 0.7420(3) 0.8540(3)
C35_3 C 0.1901(2) 0.5981(5) 0.0268(5)
C36_3 C 0.1824(2) 0.5247(5) 0.0991(5)
C37_3 C 0.1519(3) 0.4622(6) 0.0794(6)
H21_3 H 0.1352 0.4642 0.0191
C38_3 C 0.1463(3) 0.3968(6) 0.1497(6)
H22_3 H 0.1258 0.3550 0.1350
C39_3 C 0.1987(3) 0.4505(6) 0.2550(6)
H23_3 H 0.2152 0.4467 0.3156
C40_3 C 0.2065(3) 0.5169(6) 0.1895(6)
H24_3 H 0.2278 0.5564 0.2054
O8_3 O 0.0341(4) 0.5934(14) 0.5493(14)
H1_3 H 0.0139 0.5635 0.5316
O9_3 O 0.0466(4) 0.7199(10) 0.6507(13)
C23_3 C 0.0250(5) 0.6593(14) 0.6068(17)
N3_3 N 0.0987(2) 0.6779(5) 0.8346(6)
O16_3 O 0.16703(17) 0.6020(3) 0.9475(4)
C41_3 C 0.0719(3) 0.7500(8) 0.8226(10)
H25_3 H 0.0808 0.8052 0.8012
C42_3 C 0.0332(4) 0.7425(10) 0.8411(12)
H26_3 H 0.0162 0.7921 0.8306
C43_3 C 0.0184(4) 0.6630(11) 0.8750(12)
C44_3 C 0.0444(4) 0.5897(10) 0.8863(12)
H27_3 H 0.0354 0.5346 0.9082
C45_3 C 0.0831(3) 0.5979(8) 0.8656(9)
H28_3 H 0.0997 0.5474 0.8727
N1_3 N 0.9013(2) 0.6779(5) 0.6654(6)
O7_3 O 0.83297(17) 0.6020(3) 0.5525(4)
C12_3 C 0.8099(2) 0.5981(5) 0.4732(5)
C13_3 C 0.8176(2) 0.5247(5) 0.4009(5)
C14_3 C 0.8481(3) 0.4622(6) 0.4206(6)
H7_3 H 0.8648 0.4642 0.4809
C15_3 C 0.8537(3) 0.3968(6) 0.3503(6)
H8_3 H 0.8742 0.3550 0.3650
C16_3 C 0.8013(3) 0.4505(6) 0.2450(6)
H9_3 H 0.7848 0.4467 0.1844
C17_3 C 0.7935(3) 0.5169(6) 0.3105(6)
H10_3 H 0.7722 0.5564 0.2946
C18_3 C 0.9281(3) 0.7500(8) 0.6774(10)
H11_3 H 0.9192 0.8052 0.6988
C19_3 C 0.9668(4) 0.7425(10) 0.6589(12)
H12_3 H 0.9838 0.7921 0.6694
C20_3 C 0.9816(4) 0.6630(11) 0.6250(12)
C21_3 C 0.9556(4) 0.5897(10) 0.6137(12)
H13_3 H 0.9646 0.5346 0.5918
C22_3 C 0.9169(3) 0.5979(8) 0.6344(9)
H14_3 H 0.9003 0.5474 0.6273
O17_3 O 0.9659(4) 0.5934(14) 0.9507(14)
H20_3 H 0.9861 0.5635 0.9684
O18_3 O 0.9534(4) 0.7199(10) 0.8493(13)
C46_3 C 0.9750(5) 0.6593(14) 0.8932(17)
C35_4 C 0.6901(2) 0.0981(5) 0.0268(5)
C36_4 C 0.6824(2) 0.0247(5) 0.0991(5)
C40_4 C 0.7065(3) 0.0169(6) 0.1895(6)
H24_4 H 0.7278 0.0564 0.2054
N1_4 N 0.4013(2) 0.1779(5) 0.6654(6)
O7_4 O 0.33297(17) 0.1020(3) 0.5525(4)
O8_4 O 0.5341(4) 0.0934(14) 0.5493(14)
H1_4 H 0.5139 0.0635 0.5316
O9_4 O 0.5466(4) 0.2199(10) 0.6507(13)
C12_4 C 0.3099(2) 0.0981(5) 0.4732(5)
C13_4 C 0.3176(2) 0.0247(5) 0.4009(5)
C17_4 C 0.2935(3) 0.0169(6) 0.3105(6)
H10_4 H 0.2722 0.0564 0.2946
C18_4 C 0.4281(3) 0.2500(8) 0.6774(10)
H11_4 H 0.4192 0.3052 0.6988
C19_4 C 0.4668(4) 0.2425(10) 0.6589(12)
H12_4 H 0.4838 0.2921 0.6694
C20_4 C 0.4816(4) 0.1630(11) 0.6250(12)
C21_4 C 0.4556(4) 0.0897(10) 0.6137(12)
H13_4 H 0.4646 0.0346 0.5918
C22_4 C 0.4169(3) 0.0979(8) 0.6344(9)
H14_4 H 0.4003 0.0474 0.6273
C23_4 C 0.5250(5) 0.1593(14) 0.6068(17)
N3_4 N 0.5987(2) 0.1779(5) 0.8346(6)
O16_4 O 0.66703(17) 0.1020(3) 0.9475(4)
O17_4 O 0.4659(4) 0.0934(14) 0.9507(14)
H20_4 H 0.4861 0.0635 0.9684
O18_4 O 0.4534(4) 0.2199(10) 0.8493(13)
C41_4 C 0.5719(3) 0.2500(8) 0.8226(10)
H25_4 H 0.5808 0.3052 0.8012
C42_4 C 0.5332(4) 0.2425(10) 0.8411(12)
H26_4 H 0.5162 0.2921 0.8306
C43_4 C 0.5184(4) 0.1630(11) 0.8750(12)
C44_4 C 0.5444(4) 0.0897(10) 0.8863(12)
H27_4 H 0.5354 0.0346 0.9082
C45_4 C 0.5831(3) 0.0979(8) 0.8656(9)
H28_4 H 0.5997 0.0474 0.8727
C46_4 C 0.4750(5) 0.1593(14) 0.8932(17)
C37_4 C 0.6519(3) 0.9622(6) 0.0794(6)
H21_4 H 0.6352 0.9642 0.0191
C38_4 C 0.6463(3) 0.8968(6) 0.1497(6)
H22_4 H 0.6258 0.8550 0.1350
C39_4 C 0.6987(3) 0.9505(6) 0.2550(6)
H23_4 H 0.7152 0.9467 0.3156
C14_4 C 0.3481(3) 0.9622(6) 0.4206(6)
H7_4 H 0.3648 0.9642 0.4809
C15_4 C 0.3537(3) 0.8968(6) 0.3503(6)
H8_4 H 0.3742 0.8550 0.3650
C16_4 C 0.3013(3) 0.9505(6) 0.2450(6)
H9_4 H 0.2848 0.9467 0.1844
loop_
_geom_bond_atom_site_label_1
_geom_bond_atom_site_label_2
_geom_bond_site_symmetry_1
_geom_bond_site_symmetry_2
Ni1 N1 1_555 1_555
Ni2 O5 1_555 1_555
N1 C18 1_555 1_555
N2 C15 1_555 1_555
O1 Ni1 1_555 1_555
O2 C1 1_555 1_555
O5 Ni1 1_555 1_555
O6 Ni2 1_555 1_555
O7 Ni1 1_555 1_555
C1 O1 1_555 1_555
C2 C1 1_555 1_555
C3 C2 1_555 1_555
H2 C3 1_555 1_555
H6 C11 1_555 1_555
C12 O6 1_555 1_555
C13 C12 1_555 1_555
C14 C13 1_555 1_555
H7 C14 1_555 1_555
C15 C14 1_555 1_555
H8 C15 1_555 1_555
C16 N2 1_555 1_555
H9 C16 1_555 1_555
C17 C13 1_555 1_555
H10 C17 1_555 1_555
C18 H11 1_555 1_555
C19 C18 1_555 1_555
H12 C19 1_555 1_555
C20 C19 1_555 1_555
C21 C20 1_555 1_555
H13 C21 1_555 1_555
C22 N1 1_555 1_555
H14 C22 1_555 1_555
O17 H20 1_555 1_555
O18 C46 1_555 1_555
C46 O17 1_555 1_555
Ni7 N2 1_555 1_555
N6 Ni1 1_555 1_555
O20 Ni2 1_555 1_555
O21 Ni2 1_555 1_555
O22 Ni1 1_555 1_555
O23 Ni2 1_555 1_555
O24 Ni2 1_555 1_555
O7 C12 1_555 1_555
C16 C17 1_555 1_555
C21 C22 1_555 1_555
O3 C8 1_555 1_555
C5 C4 1_555 1_555
C6 C5 1_555 1_555
H4 C7 1_555 1_555
C8 C6 1_555 1_555
C9 C4 1_555 1_555
Ni9 O3 1_555 1_555
C6 C7 1_555 1_555
H5 C10 1_555 1_555
Ni7 O4 1_555 1_555
O8 H1 1_555 1_555
O9 C23 1_555 1_555
C23 O8 1_555 1_555
H18 C33 1_555 1_555
Ni3 O13 1_555 1_555
N3 Ni3 1_555 1_555
O14 Ni3 1_555 1_555
O16 Ni3 1_555 1_555
C41 N3 1_555 1_555
H25 C41 1_555 1_555
C42 C41 1_555 1_555
H26 C42 1_555 1_555
C43 C42 1_555 1_555
C44 C43 1_555 1_555
H27 C44 1_555 1_555
C45 N3 1_555 1_555
H28 C45 1_555 1_555
N5 Ni3 1_555 1_555
O19 Ni3 1_555 1_555
O14 Ni8 1_555 1_555
C44 C45 1_555 1_555
O12 C31 1_555 1_555
C28 C27 1_555 1_555
C29 C28 1_555 1_555
H17 C30 1_555 1_555
C31 C29 1_555 1_555
C32 C27 1_555 1_555
N4 C38 1_555 1_555
O15 C35 1_555 1_555
C36 C35 1_555 1_555
C37 C36 1_555 1_555
H21 C37 1_555 1_555
C38 C37 1_555 1_555
H22 C38 1_555 1_555
C39 N4 1_555 1_555
H23 C39 1_555 1_555
C40 C36 1_555 1_555
H24 C40 1_555 1_555
Ni5 N4 1_555 1_555
Ni8_2 O12 1_555 1_555
C29 C30 1_555 1_555
O15 Ni8_2 1_555 1_555
C39 C40 1_555 1_555
O10 C24 1_555 1_555
O11 C24 1_555 1_555
C24 C25 1_555 1_555
C25 C26 1_555 1_555
C26 H15 1_555 1_555
H19 C34 1_555 1_555
Ni5 O10 1_555 1_555
O21 C31_2 1_555 1_555
O22 C31_2 1_555 1_555
C28_2 C27_2 1_555 1_555
H16_2 C28_2 1_555 1_555
C29_2 C28_2 1_555 1_555
H17_2 C30_2 1_555 1_555
C31_2 C29_2 1_555 1_555
C32_2 C27_2 1_555 1_555
H18_2 C33_2 1_555 1_555
C29_2 C30_2 1_555 1_555
C32_2 C33_2 1_555 1_555
O10_2 C24_2 1_555 1_555
O11_2 C24_2 1_555 1_555
C24_2 C25_2 1_555 1_555
C25_2 C26_2 1_555 1_555
C26_2 H15_2 1_555 1_555
H19_2 C34_2 1_555 1_555
Ni7 O10_2 1_555 1_555
O2_2 C1_2 1_555 1_555
C1_2 O19 1_555 1_555
C2_2 C1_2 1_555 1_555
C3_2 C2_2 1_555 1_555
H2_2 C3_2 1_555 1_555
H6_2 C11_2 1_555 1_555
O20_2 Ni8 1_555 1_555
O24_2 Ni8 1_555 1_555
O23_2 Ni8_2 1_555 1_555
O3_2 C8_2 1_555 1_555
O4_2 C8_2 1_555 1_555
C5_2 C4_2 1_555 1_555
H3_2 C5_2 1_555 1_555
C6_2 C5_2 1_555 1_555
H4_2 C7_2 1_555 1_555
C8_2 C6_2 1_555 1_555
C9_2 C4_2 1_555 1_555
C10_2 C9_2 1_555 1_555
H5_2 C10_2 1_555 1_555
Ni5 O4_2 1_555 1_555
Ni9_3 O3_2 1_555 1_555
C6_2 C7_2 1_555 1_555
N2_2 C15_2 1_555 1_555
H7_2 C14_2 1_555 1_555
C15_2 C14_2 1_555 1_555
H8_2 C15_2 1_555 1_555
C16_2 N2_2 1_555 1_555
H9_2 C16_2 1_555 1_555
Ni7_2 N2_2 1_555 1_555
N4_2 C38_2 1_555 1_555
H21_2 C37_2 1_555 1_555
C38_2 C37_2 1_555 1_555
H22_2 C38_2 1_555 1_555
C39_2 N4_2 1_555 1_555
H23_2 C39_2 1_555 1_555
Ni5_2 N4_2 1_555 1_555
Ni1_2 N1_2 1_555 1_555
Ni9_3 O5_2 1_555 1_555
N1_2 C18_2 1_555 1_555
O1_2 Ni1_2 1_555 1_555
O2_3 C1_3 1_555 1_555
O20_2 C8_3 1_555 1_555
O5_2 Ni1_2 1_555 1_555
O6_2 Ni9_3 1_555 1_555
O7_2 Ni1_2 1_555 1_555
O8_2 H1_2 1_555 1_555
O9_2 C23_2 1_555 1_555
C1_3 O1_2 1_555 1_555
C2_3 C1_3 1_555 1_555
C3_3 C2_3 1_555 1_555
H2_3 C3_3 1_555 1_555
C4_3 C3_3 1_555 1_555
C5_3 C4_3 1_555 1_555
C6_3 C5_3 1_555 1_555
C7_3 C2_3 1_555 1_555
H4_3 C7_3 1_555 1_555
C8_3 C6_3 1_555 1_555
C9_3 C4_3 1_555 1_555
C11_3 C9_3 1_555 1_555
H6_3 C11_3 1_555 1_555
C12_2 O6_2 1_555 1_555
C13_2 C12_2 1_555 1_555
C17_2 C13_2 1_555 1_555
H10_2 C17_2 1_555 1_555
C18_2 H11_2 1_555 1_555
C19_2 C18_2 1_555 1_555
H12_2 C19_2 1_555 1_555
C20_2 C19_2 1_555 1_555
C21_2 C20_2 1_555 1_555
H13_2 C21_2 1_555 1_555
C22_2 N1_2 1_555 1_555
H14_2 C22_2 1_555 1_555
C23_2 O8_2 1_555 1_555
C33_3 C11_3 1_555 1_555
H18_3 C33_3 1_555 1_555
Ni3_2 O13_2 1_555 1_555
N3_2 Ni3_2 1_555 1_555
O14_2 Ni3_2 1_555 1_555
O16_2 Ni3_2 1_555 1_555
O17_2 H20_2 1_555 1_555
O18_2 C46_2 1_555 1_555
C41_2 N3_2 1_555 1_555
H25_2 C41_2 1_555 1_555
C42_2 C41_2 1_555 1_555
H26_2 C42_2 1_555 1_555
C43_2 C42_2 1_555 1_555
C44_2 C43_2 1_555 1_555
H27_2 C44_2 1_555 1_555
C45_2 N3_2 1_555 1_555
H28_2 C45_2 1_555 1_555
C46_2 O17_2 1_555 1_555
N5_2 Ni3_2 1_555 1_555
N6_2 Ni1_2 1_555 1_555
O19_2 Ni3_2 1_555 1_555
O21_2 Ni9_3 1_555 1_555
O22_2 Ni1_2 1_555 1_555
O23_3 Ni9_3 1_555 1_555
O24_3 Ni9_3 1_555 1_555
O7_2 C12_2 1_555 1_555
C6_3 C7_3 1_555 1_555
C20_2 C23_2 1_555 1_555
C21_2 C22_2 1_555 1_555
O14_2 Ni9 1_555 1_555
C43_2 C46_2 1_555 1_555
C44_2 C45_2 1_555 1_555
H5_3 C10_3 1_555 1_555
O10_3 C24_3 1_555 1_555
O11_3 C24_3 1_555 1_555
O12_2 C31_3 1_555 1_555
C24_3 C25_3 1_555 1_555
C25_3 C26_3 1_555 1_555
C26_3 H15_3 1_555 1_555
C27_3 C26_3 1_555 1_555
C28_3 C27_3 1_555 1_555
C29_3 C28_3 1_555 1_555
C30_3 C25_3 1_555 1_555
H17_3 C30_3 1_555 1_555
C31_3 C29_3 1_555 1_555
C32_3 C27_3 1_555 1_555
C34_3 C10_3 1_555 1_555
H19_3 C34_3 1_555 1_555
O15_2 C35_2 1_555 1_555
C36_2 C35_2 1_555 1_555
C40_2 C36_2 1_555 1_555
H24_2 C40_2 1_555 1_555
Ni5_2 O10_3 1_555 1_555
Ni7_2 O4_3 1_555 1_555
Ni9_2 O12_2 1_555 1_555
C29_3 C30_3 1_555 1_555
C32_3 C34_3 1_555 1_555
O15_2 Ni9_2 1_555 1_555
O2_4 C1_4 1_555 1_555
O20 C8_4 1_555 1_555
O4_4 C8_4 1_555 1_555
C1_4 O19_2 1_555 1_555
C2_4 C1_4 1_555 1_555
C3_4 C2_4 1_555 1_555
H2_4 C3_4 1_555 1_555
C4_4 C3_4 1_555 1_555
C5_4 C4_4 1_555 1_555
H3_4 C5_4 1_555 1_555
C6_4 C5_4 1_555 1_555
C7_4 C2_4 1_555 1_555
H4_4 C7_4 1_555 1_555
C8_4 C6_4 1_555 1_555
C9_4 C4_4 1_555 1_555
C10_4 C9_4 1_555 1_555
H5_4 C10_4 1_555 1_555
C11_4 C9_4 1_555 1_555
H6_4 C11_4 1_555 1_555
O10_4 C24_4 1_555 1_555
O11_4 C24_4 1_555 1_555
O21_2 C31_4 1_555 1_555
O22_2 C31_4 1_555 1_555
C24_4 C25_4 1_555 1_555
C25_4 C26_4 1_555 1_555
C26_4 H15_4 1_555 1_555
C27_4 C26_4 1_555 1_555
C28_4 C27_4 1_555 1_555
H16_4 C28_4 1_555 1_555
C29_4 C28_4 1_555 1_555
C30_4 C25_4 1_555 1_555
H17_4 C30_4 1_555 1_555
C31_4 C29_4 1_555 1_555
C32_4 C27_4 1_555 1_555
C33_4 C11_4 1_555 1_555
H18_4 C33_4 1_555 1_555
C34_4 C10_4 1_555 1_555
H19_4 C34_4 1_555 1_555
Ni7_2 O10_4 1_555 1_555
Ni5_2 O4_4 1_555 1_555
O24_4 Ni9 1_555 1_555
C6_4 C7_4 1_555 1_555
C29_4 C30_4 1_555 1_555
C32_4 C33_4 1_555 1_555
C32_4 C34_4 1_555 1_555
O23_4 Ni9_2 1_555 1_555
N6 C38_3 1_555 1_555
O24_4 C35_3 1_555 1_555
C36_3 C35_3 1_555 1_555
C37_3 C36_3 1_555 1_555
H21_3 C37_3 1_555 1_555
C38_3 C37_3 1_555 1_555
H22_3 C38_3 1_555 1_555
C39_3 N6 1_555 1_555
H23_3 C39_3 1_555 1_555
C40_3 C36_3 1_555 1_555
H24_3 C40_3 1_555 1_555
C39_3 C40_3 1_555 1_555
O8_3 H1_3 1_555 1_555
O9_3 C23_3 1_555 1_555
C23_3 O8_3 1_555 1_555
N3_3 Ni7 1_555 1_555
O23_4 Ni7 1_555 1_555
O16_3 Ni7 1_555 1_555
C41_3 N3_3 1_555 1_555
H25_3 C41_3 1_555 1_555
C42_3 C41_3 1_555 1_555
H26_3 C42_3 1_555 1_555
C43_3 C42_3 1_555 1_555
C44_3 C43_3 1_555 1_555
H27_3 C44_3 1_555 1_555
C45_3 N3_3 1_555 1_555
H28_3 C45_3 1_555 1_555
C44_3 C45_3 1_555 1_555
Ni5 N1_3 1_555 1_555
N1_3 C18_3 1_555 1_555
N5 C15_3 1_555 1_555
O23_3 Ni5 1_555 1_555
O7_3 Ni5 1_555 1_555
C12_3 O24_3 1_555 1_555
C13_3 C12_3 1_555 1_555
C14_3 C13_3 1_555 1_555
H7_3 C14_3 1_555 1_555
C15_3 C14_3 1_555 1_555
H8_3 C15_3 1_555 1_555
C16_3 N5 1_555 1_555
H9_3 C16_3 1_555 1_555
C17_3 C13_3 1_555 1_555
H10_3 C17_3 1_555 1_555
C18_3 H11_3 1_555 1_555
C19_3 C18_3 1_555 1_555
H12_3 C19_3 1_555 1_555
C20_3 C19_3 1_555 1_555
C21_3 C20_3 1_555 1_555
H13_3 C21_3 1_555 1_555
C22_3 N1_3 1_555 1_555
H14_3 C22_3 1_555 1_555
O17_3 H20_3 1_555 1_555
O18_3 C46_3 1_555 1_555
C46_3 O17_3 1_555 1_555
O7_3 C12_3 1_555 1_555
C16_3 C17_3 1_555 1_555
C21_3 C22_3 1_555 1_555
O24_2 C35_4 1_555 1_555
C36_4 C35_4 1_555 1_555
C40_4 C36_4 1_555 1_555
H24_4 C40_4 1_555 1_555
Ni5_2 N1_4 1_555 1_555
N1_4 C18_4 1_555 1_555
O23 Ni5_2 1_555 1_555
O7_4 Ni5_2 1_555 1_555
O8_4 H1_4 1_555 1_555
O9_4 C23_4 1_555 1_555
C12_4 O24 1_555 1_555
C13_4 C12_4 1_555 1_555
C17_4 C13_4 1_555 1_555
H10_4 C17_4 1_555 1_555
C18_4 H11_4 1_555 1_555
C19_4 C18_4 1_555 1_555
H12_4 C19_4 1_555 1_555
C20_4 C19_4 1_555 1_555
C21_4 C20_4 1_555 1_555
H13_4 C21_4 1_555 1_555
C22_4 N1_4 1_555 1_555
H14_4 C22_4 1_555 1_555
C23_4 O8_4 1_555 1_555
N3_4 Ni7_2 1_555 1_555
O23_2 Ni7_2 1_555 1_555
O16_4 Ni7_2 1_555 1_555
O17_4 H20_4 1_555 1_555
O18_4 C46_4 1_555 1_555
C41_4 N3_4 1_555 1_555
H25_4 C41_4 1_555 1_555
C42_4 C41_4 1_555 1_555
H26_4 C42_4 1_555 1_555
C43_4 C42_4 1_555 1_555
C44_4 C43_4 1_555 1_555
H27_4 C44_4 1_555 1_555
C45_4 N3_4 1_555 1_555
H28_4 C45_4 1_555 1_555
C46_4 O17_4 1_555 1_555
O7_4 C12_4 1_555 1_555
C20_4 C23_4 1_555 1_555
C21_4 C22_4 1_555 1_555
C43_4 C46_4 1_555 1_555
C44_4 C45_4 1_555 1_555
N6_2 C38_4 1_555 1_555
H21_4 C37_4 1_555 1_555
C38_4 C37_4 1_555 1_555
H22_4 C38_4 1_555 1_555
C39_4 N6_2 1_555 1_555
H23_4 C39_4 1_555 1_555
N5_2 C15_4 1_555 1_555
H7_4 C14_4 1_555 1_555
C15_4 C14_4 1_555 1_555
H8_4 C15_4 1_555 1_555
C16_4 N5_2 1_555 1_555
H9_4 C16_4 1_555 1_555

#END
