
###############################################################################
#
# This file contains modified crystal structure data generated from the
# MOF subset of the Cambridge Structural Database (CSD) v543 
# hosted by the Cambridge Crystallographic Data Centre (CCDC).
#
# This work is licensed under the Creative Commons
# Attribution-NonCommercial-ShareAlike 4.0 International License.
# To view a copy of this license, visit
# http://creativecommons.org/licenses/by-nc-sa/4.0/
# or send a letter to
# Creative Commons, PO Box 1866, Mountain View, CA 94042, USA.
#
# CIF created using the CSD Python API on 29 September 2022
# The structure has been converted into the P1 space group
# The structure has a 3D framework
# The original CSD entry WIMMEN is in the tetragonal crystal system
# The framework has been calculated to contain at least 10.0% void space
# The void calculation uses a probe of radius 1.32A, grid spacing 0.4
# The framework is charged, counterions have been retained in the structure
#
###############################################################################

data_WIMMEN
_chemical_formula_moiety         '(C416 H128 B8 Cu8 F128 N32)n'
_symmetry_cell_setting           triclinic
_symmetry_space_group_name_H-M   'P 1'
_symmetry_Int_Tables_number      1
_space_group_name_Hall           'P 1'
loop_
_symmetry_equiv_pos_site_id
_symmetry_equiv_pos_as_xyz
1 x,y,z
_cell_length_a                   23.5586(7)
_cell_length_b                   23.5586(7)
_cell_length_c                   24.6516(9)
_cell_angle_alpha                90
_cell_angle_beta                 90
_cell_angle_gamma                90
_cell_volume                     13681.8
loop_
_atom_site_label
_atom_site_type_symbol
_atom_site_fract_x
_atom_site_fract_y
_atom_site_fract_z
N3 N 0.41292(11) 0.18627(10) 0.71534(11)
C27 C 0.40192(13) 0.17964(14) 0.66310(14)
H9 H 0.3958 0.2126 0.6417
C28 C 0.39888(15) 0.12680(14) 0.63786(15)
H10 H 0.3906 0.124 0.6002
C29 C 0.40795(13) 0.07923(13) 0.66804(15)
C30 C 0.41892(15) 0.08538(14) 0.72313(14)
H11 H 0.4253 0.053 0.7453
C31 C 0.42038(13) 0.13874(13) 0.74487(14)
H12 H 0.427 0.1425 0.7827
C32 C 0.40827(15) 0.02368(14) 0.64334(14)
Cu2 Cu 0.42845(2) 0.26183(2) 0.75564(2)
N1 N 0.41646(11) 0.33476(11) 0.71511(11)
N2 N 0.86048(11) 0.76196(11) 0.30979(11)
N4 N 0.00874(11) 0.75094(12) 0.28134(12)
C1 C 0.39179(14) 0.37823(13) 0.74178(15)
H1 H 0.3786 0.3717 0.7777
C2 C 0.38455(15) 0.43187(14) 0.71972(15)
H2 H 0.3675 0.4614 0.7403
C3 C 0.40262(14) 0.44159(14) 0.66728(14)
C4 C 0.42769(15) 0.39685(14) 0.63894(14)
H3 H 0.4406 0.402 0.6028
C5 C 0.43344(15) 0.34542(14) 0.66409(14)
H4 H 0.4505 0.3154 0.6442
C6 C 0.39750(15) 0.49669(14) 0.64311(14)
C7 C 0.39475(14) 0.54202(14) 0.62260(15)
C8 C 0.39727(14) 0.59567(13) 0.59457(15)
C9 C 0.38194(14) 0.64636(13) 0.61796(13)
C10 C 0.38917(13) 0.69794(13) 0.59143(13)
C11 C 0.41230(12) 0.70223(12) 0.53985(13)
C12 C 0.42486(12) 0.64969(13) 0.51601(13)
C13 C 0.41765(14) 0.59851(13) 0.54136(14)
C14 C 0.85860(14) 0.77561(14) 0.36228(14)
H5 H 0.8935 0.7827 0.3804
C15 C 0.80935(14) 0.77998(15) 0.39177(15)
H6 H 0.8103 0.7894 0.4292
C16 C 0.75768(14) 0.77025(14) 0.36544(14)
C17 C 0.75881(15) 0.75685(15) 0.31097(15)
H7 H 0.7245 0.7503 0.2917
C18 C 0.81064(14) 0.75316(15) 0.28492(14)
H8 H 0.811 0.7439 0.2474
C19 C 0.70494(14) 0.77337(14) 0.39295(15)
C20 C 0.65765(15) 0.77387(15) 0.41384(15)
C21 C 0.60245(14) 0.77229(14) 0.43676(14)
C22 C 0.58999(12) 0.73777(14) 0.48079(13)
C23 C 0.53541(13) 0.73310(13) 0.50042(13)
C24 C 0.48946(12) 0.76137(13) 0.47843(13)
C25 C 0.50317(13) 0.79833(14) 0.43718(14)
C26 C 0.55729(14) 0.80377(14) 0.41599(15)
C33 C 0.41125(14) 0.97848(14) 0.62195(15)
C34 C 0.41293(14) 0.92522(13) 0.59420(14)
C35 C 0.44245(14) 0.87808(14) 0.61355(13)
C36 C 0.44536(13) 0.82918(13) 0.58434(13)
C37 C 0.41860(12) 0.81987(12) 0.53487(13)
C38 C 0.38956(14) 0.86899(13) 0.51543(14)
C39 C 0.38754(14) 0.91906(13) 0.54405(14)
C40 C 0.02309(16) 0.7527(2) 0.33335(15)
C41 C 0.07884(17) 0.7490(2) 0.35172(16)
H14 H 0.0869 0.7495 0.3895
C42 C 0.12242(14) 0.74459(14) 0.31425(15)
C43 C 0.10762(14) 0.74225(15) 0.26059(15)
H15 H 0.1359 0.7385 0.2334
C44 C 0.05072(14) 0.74550(15) 0.24663(15)
H16 H 0.0414 0.7436 0.2092
C45 C 0.17944(15) 0.74278(15) 0.33381(14)
C46 C 0.22519(15) 0.74203(14) 0.35516(14)
C47 C 0.27530(14) 0.74312(14) 0.38734(14)
C48 C 0.32949(14) 0.73432(14) 0.36901(13)
C49 C 0.37608(13) 0.73843(14) 0.40279(13)
C50 C 0.37278(13) 0.75315(12) 0.45652(13)
C51 C 0.31720(13) 0.76017(12) 0.47452(13)
C52 C 0.27070(13) 0.75614(14) 0.44249(14)
F1 F 0.36084(9) 0.64714(8) 0.66879(8)
F2 F 0.37236(7) 0.74484(7) 0.61906(7)
F3 F 0.44470(7) 0.64843(7) 0.46508(7)
F4 F 0.43123(8) 0.55043(7) 0.51540(8)
F5 F 0.63184(7) 0.70807(8) 0.50434(8)
F6 F 0.52960(7) 0.69736(7) 0.54299(7)
F7 F 0.46303(8) 0.83148(8) 0.41511(8)
F8 F 0.56657(9) 0.83935(9) 0.37423(9)
F9 F 0.46839(8) 0.88103(8) 0.66235(8)
F10 F 0.47757(7) 0.78654(7) 0.60570(7)
F11 F 0.36292(8) 0.86828(7) 0.46849(8)
F12 F 0.35901(9) 0.96299(8) 0.52287(9)
F13 F 0.33745(8) 0.72191(9) 0.31590(8)
F14 F 0.42742(7) 0.72848(8) 0.37943(8)
F15 F 0.30808(7) 0.77310(8) 0.52741(7)
F16 F 0.21854(7) 0.76485(9) 0.46421(8)
B1 B 0.42377(14) 0.75945(14) 0.50236(15)
Cu4 Cu 0.92845(2) 0.76183(2) 0.25564(2)
N5 N 0.36048(11) 0.26196(11) 0.80979(11)
N7 N 0.50874(11) 0.25094(12) 0.78134(12)
H13 H 0.9937 0.7566 0.3595
C14_2 C 0.35860(14) 0.27561(14) 0.86228(14)
H5_2 H 0.3935 0.2827 0.8804
C15_2 C 0.30935(14) 0.27998(15) 0.89177(15)
H6_2 H 0.3103 0.2894 0.9292
C16_2 C 0.25768(14) 0.27025(14) 0.86544(14)
C17_2 C 0.25881(15) 0.25685(15) 0.81097(15)
H7_2 H 0.2245 0.2503 0.7917
C18_2 C 0.31064(14) 0.25316(15) 0.78492(14)
H8_2 H 0.311 0.2439 0.7474
C19_2 C 0.20494(14) 0.27337(14) 0.89295(15)
C20_2 C 0.15765(15) 0.27387(15) 0.91384(15)
C21_2 C 0.10245(14) 0.27229(14) 0.93676(14)
C22_2 C 0.08999(12) 0.23777(14) 0.98079(13)
C25_2 C 0.00317(13) 0.29833(14) 0.93718(14)
C26_2 C 0.05729(14) 0.30377(14) 0.91599(15)
F8_2 F 0.06657(9) 0.33935(9) 0.87423(9)
N3_2 N 0.91292(11) 0.68627(10) 0.21534(11)
C7_2 C 0.89475(14) 0.04202(14) 0.12260(15)
C8_2 C 0.89727(14) 0.09567(13) 0.09457(15)
C9_2 C 0.88194(14) 0.14636(13) 0.11796(13)
C10_2 C 0.88917(13) 0.19794(13) 0.09143(13)
C11_2 C 0.91230(12) 0.20223(12) 0.03985(13)
C12_2 C 0.92486(12) 0.14969(13) 0.01601(13)
C13_2 C 0.91765(14) 0.09851(13) 0.04136(14)
C27_2 C 0.90192(13) 0.67964(14) 0.16310(14)
H9_2 H 0.8958 0.7126 0.1417
C28_2 C 0.89888(15) 0.62680(14) 0.13786(15)
H10_2 H 0.8906 0.624 0.1002
C29_2 C 0.90795(13) 0.57923(13) 0.16804(15)
C30_2 C 0.91892(15) 0.58538(14) 0.22313(14)
H11_2 H 0.9253 0.553 0.2453
C31_2 C 0.92038(13) 0.63874(13) 0.24487(14)
H12_2 H 0.927 0.6425 0.2827
C32_2 C 0.90827(15) 0.52368(14) 0.14334(14)
C33_2 C 0.91125(14) 0.47848(14) 0.12195(15)
C34_2 C 0.91293(14) 0.42522(13) 0.09420(14)
C35_2 C 0.94245(14) 0.37808(14) 0.11355(13)
C36_2 C 0.94536(13) 0.32918(13) 0.08434(13)
C37_2 C 0.91860(12) 0.31987(12) 0.03487(13)
C38_2 C 0.88956(14) 0.36899(13) 0.01543(14)
C39_2 C 0.88754(14) 0.41906(13) 0.04405(14)
F1_2 F 0.86084(9) 0.14714(8) 0.16879(8)
F2_2 F 0.87236(7) 0.24484(7) 0.11906(7)
F4_2 F 0.93123(8) 0.05043(7) 0.01540(8)
F9_2 F 0.96839(8) 0.38103(8) 0.16235(8)
F10_2 F 0.97757(7) 0.28654(7) 0.10570(7)
F12_2 F 0.85901(9) 0.46299(8) 0.02287(9)
F15_2 F 0.80808(7) 0.27310(8) 0.02741(7)
B1_2 B 0.92377(14) 0.25945(14) 0.00236(15)
C24_2 C 0.98946(12) 0.26137(13) 0.97843(13)
C40_2 C 0.52309(16) 0.2527(2) 0.83335(15)
H13_2 H 0.4937 0.2566 0.8595
C41_2 C 0.57884(17) 0.2490(2) 0.85172(16)
H14_2 H 0.5869 0.2495 0.8895
C42_2 C 0.62242(14) 0.24459(14) 0.81425(15)
C43_2 C 0.60762(14) 0.24225(15) 0.76059(15)
H15_2 H 0.6359 0.2385 0.7334
C44_2 C 0.55072(14) 0.24550(15) 0.74663(15)
H16_2 H 0.5414 0.2436 0.7092
C45_2 C 0.67944(15) 0.24278(15) 0.83381(14)
C46_2 C 0.72519(15) 0.24203(14) 0.85516(14)
C47_2 C 0.77530(14) 0.24312(14) 0.88734(14)
C48_2 C 0.82949(14) 0.23432(14) 0.86901(13)
C49_2 C 0.87608(13) 0.23843(14) 0.90279(13)
C50_2 C 0.87278(13) 0.25315(12) 0.95652(13)
C51_2 C 0.81720(13) 0.26017(12) 0.97452(13)
C52_2 C 0.77070(13) 0.25614(14) 0.94249(14)
F3_2 F 0.94470(7) 0.14843(7) 0.96508(7)
F7_2 F 0.96303(8) 0.33148(8) 0.91511(8)
F11_2 F 0.86292(8) 0.36828(7) 0.96849(8)
F13_2 F 0.83745(8) 0.22191(9) 0.81590(8)
F14_2 F 0.92742(7) 0.22848(8) 0.87943(8)
F16_2 F 0.71854(7) 0.26485(9) 0.96421(8)
N1_2 N 0.91646(11) 0.83476(11) 0.21511(11)
C1_2 C 0.89179(14) 0.87823(13) 0.24178(15)
H1_2 H 0.8786 0.8717 0.2777
C2_2 C 0.88455(15) 0.93187(14) 0.21972(15)
H2_2 H 0.8675 0.9614 0.2403
C3_2 C 0.90262(14) 0.94159(14) 0.16728(14)
C4_2 C 0.92769(15) 0.89685(14) 0.13894(14)
H3_2 H 0.9406 0.902 0.1028
C5_2 C 0.93344(15) 0.84542(14) 0.16409(14)
H4_2 H 0.9505 0.8154 0.1442
C6_2 C 0.89750(15) 0.99669(14) 0.14311(14)
H13_3 H 0.0063 0.2434 0.3595
Cu3 Cu 0.07155(2) 0.23817(2) 0.25564(2)
Cu1 Cu 0.57155(2) 0.73817(2) 0.75564(2)
N1_3 N 0.58354(11) 0.66524(11) 0.71511(11)
N2_2 N 0.13952(11) 0.23804(11) 0.30979(11)
N4_2 N 0.99126(11) 0.24906(12) 0.28134(12)
C1_3 C 0.60821(14) 0.62177(13) 0.74178(15)
H1_3 H 0.6214 0.6283 0.7777
C2_3 C 0.61545(15) 0.56813(14) 0.71972(15)
H2_3 H 0.6325 0.5386 0.7403
C3_3 C 0.59738(14) 0.55841(14) 0.66728(14)
C4_3 C 0.57231(15) 0.60315(14) 0.63894(14)
H3_3 H 0.5594 0.598 0.6028
C5_3 C 0.56656(15) 0.65458(14) 0.66409(14)
H4_3 H 0.5495 0.6846 0.6442
C6_3 C 0.60250(15) 0.50331(14) 0.64311(14)
C7_3 C 0.60525(14) 0.45798(14) 0.62260(15)
C8_3 C 0.60273(14) 0.40433(13) 0.59457(15)
C9_3 C 0.61806(14) 0.35364(13) 0.61796(13)
C10_3 C 0.61083(13) 0.30206(13) 0.59143(13)
C11_3 C 0.58770(12) 0.29777(12) 0.53985(13)
C12_3 C 0.57514(12) 0.35031(13) 0.51601(13)
C13_3 C 0.58235(14) 0.40149(13) 0.54136(14)
C14_3 C 0.14140(14) 0.22439(14) 0.36228(14)
H5_3 H 0.1065 0.2173 0.3804
C15_3 C 0.19065(14) 0.22002(15) 0.39177(15)
H6_3 H 0.1897 0.2106 0.4292
C16_3 C 0.24232(14) 0.22975(14) 0.36544(14)
C17_3 C 0.24119(15) 0.24315(15) 0.31097(15)
H7_3 H 0.2755 0.2497 0.2917
C18_3 C 0.18936(14) 0.24684(15) 0.28492(14)
H8_3 H 0.189 0.2561 0.2474
C19_3 C 0.29506(14) 0.22663(14) 0.39295(15)
C20_3 C 0.34235(15) 0.22613(15) 0.41384(15)
C21_3 C 0.39755(14) 0.22771(14) 0.43676(14)
C22_3 C 0.41001(12) 0.26223(14) 0.48079(13)
C23_2 C 0.46459(13) 0.26690(13) 0.50042(13)
C24_3 C 0.51054(12) 0.23863(13) 0.47843(13)
C25_3 C 0.49683(13) 0.20167(14) 0.43718(14)
C26_3 C 0.44271(14) 0.19623(14) 0.41599(15)
C33_3 C 0.58875(14) 0.02152(14) 0.62195(15)
C34_3 C 0.58707(14) 0.07478(13) 0.59420(14)
C35_3 C 0.55755(14) 0.12192(14) 0.61355(13)
C36_3 C 0.55464(13) 0.17082(13) 0.58434(13)
C37_3 C 0.58140(12) 0.18013(12) 0.53487(13)
C38_3 C 0.61044(14) 0.13101(13) 0.51543(14)
C39_3 C 0.61246(14) 0.08094(13) 0.54405(14)
C40_3 C 0.97691(16) 0.2473(2) 0.33335(15)
C41_3 C 0.92116(17) 0.2510(2) 0.35172(16)
H14_3 H 0.9131 0.2505 0.3895
C42_3 C 0.87758(14) 0.25541(14) 0.31425(15)
C43_3 C 0.89238(14) 0.25775(15) 0.26059(15)
H15_3 H 0.8641 0.2615 0.2334
C44_3 C 0.94928(14) 0.25450(15) 0.24663(15)
H16_3 H 0.9586 0.2564 0.2092
C45_3 C 0.82056(15) 0.25722(15) 0.33381(14)
C46_3 C 0.77481(15) 0.25797(14) 0.35516(14)
C47_3 C 0.72470(14) 0.25688(14) 0.38734(14)
C48_3 C 0.67051(14) 0.26568(14) 0.36901(13)
C49_3 C 0.62392(13) 0.26157(14) 0.40279(13)
C50_3 C 0.62722(13) 0.24685(12) 0.45652(13)
C51_3 C 0.68280(13) 0.23983(12) 0.47452(13)
C52_3 C 0.72930(13) 0.24386(14) 0.44249(14)
F1_3 F 0.63916(9) 0.35286(8) 0.66879(8)
F2_3 F 0.62764(7) 0.25516(7) 0.61906(7)
F3_3 F 0.55530(7) 0.35157(7) 0.46508(7)
F4_3 F 0.56877(8) 0.44957(7) 0.51540(8)
F5_2 F 0.36816(7) 0.29193(8) 0.50434(8)
F6_2 F 0.47040(7) 0.30264(7) 0.54299(7)
F7_3 F 0.53697(8) 0.16852(8) 0.41511(8)
F8_3 F 0.43343(9) 0.16065(9) 0.37423(9)
F9_3 F 0.53161(8) 0.11897(8) 0.66235(8)
F10_3 F 0.52243(7) 0.21346(7) 0.60570(7)
F11_3 F 0.63708(8) 0.13172(7) 0.46849(8)
F12_3 F 0.64099(9) 0.03701(8) 0.52287(9)
F13_3 F 0.66255(8) 0.27809(9) 0.31590(8)
F14_3 F 0.57258(7) 0.27152(8) 0.37943(8)
F15_3 F 0.69192(7) 0.22690(8) 0.52741(7)
F16_3 F 0.78146(7) 0.23515(9) 0.46421(8)
B1_3 B 0.57623(14) 0.24055(14) 0.50236(15)
N5_2 N 0.63952(11) 0.73804(11) 0.80979(11)
N6 N 0.58708(11) 0.81373(10) 0.71534(11)
N7_2 N 0.49126(11) 0.74906(12) 0.78134(12)
C27_3 C 0.59808(13) 0.82036(14) 0.66310(14)
H9_3 H 0.6042 0.7874 0.6417
C28_3 C 0.60112(15) 0.87320(14) 0.63786(15)
H10_3 H 0.6094 0.876 0.6002
C29_3 C 0.59205(13) 0.92077(13) 0.66804(15)
C30_3 C 0.58108(15) 0.91462(14) 0.72313(14)
H11_3 H 0.5747 0.947 0.7453
C31_3 C 0.57962(13) 0.86126(13) 0.74487(14)
H12_3 H 0.573 0.8575 0.7827
C32_3 C 0.59173(15) 0.97632(14) 0.64334(14)
N1_4 N 0.08354(11) 0.16524(11) 0.21511(11)
C1_4 C 0.10821(14) 0.12177(13) 0.24178(15)
H1_4 H 0.1214 0.1283 0.2777
C2_4 C 0.11545(15) 0.06813(14) 0.21972(15)
H2_4 H 0.1325 0.0386 0.2403
C3_4 C 0.09738(14) 0.05841(14) 0.16728(14)
C4_4 C 0.07231(15) 0.10315(14) 0.13894(14)
H3_4 H 0.0594 0.098 0.1028
C5_4 C 0.06656(15) 0.15458(14) 0.16409(14)
H4_4 H 0.0495 0.1846 0.1442
C6_4 C 0.10250(15) 0.00331(14) 0.14311(14)
N6_2 N 0.08708(11) 0.31373(10) 0.21534(11)
C7_4 C 0.10525(14) 0.95798(14) 0.12260(15)
C8_4 C 0.10273(14) 0.90433(13) 0.09457(15)
C9_4 C 0.11806(14) 0.85364(13) 0.11796(13)
C10_4 C 0.11083(13) 0.80206(13) 0.09143(13)
C11_4 C 0.08770(12) 0.79777(12) 0.03985(13)
C12_4 C 0.07514(12) 0.85031(13) 0.01601(13)
C13_4 C 0.08235(14) 0.90149(13) 0.04136(14)
C27_4 C 0.09808(13) 0.32036(14) 0.16310(14)
H9_4 H 0.1042 0.2874 0.1417
C28_4 C 0.10112(15) 0.37320(14) 0.13786(15)
H10_4 H 0.1094 0.376 0.1002
C29_4 C 0.09205(13) 0.42077(13) 0.16804(15)
C30_4 C 0.08108(15) 0.41462(14) 0.22313(14)
H11_4 H 0.0747 0.447 0.2453
C31_4 C 0.07962(13) 0.36126(13) 0.24487(14)
H12_4 H 0.073 0.3575 0.2827
C32_4 C 0.09173(15) 0.47632(14) 0.14334(14)
C33_4 C 0.08875(14) 0.52152(14) 0.12195(15)
C34_4 C 0.08707(14) 0.57478(13) 0.09420(14)
C35_4 C 0.05755(14) 0.62192(14) 0.11355(13)
C36_4 C 0.05464(13) 0.67082(13) 0.08434(13)
C37_4 C 0.08140(12) 0.68013(12) 0.03487(13)
C38_4 C 0.11044(14) 0.63101(13) 0.01543(14)
C39_4 C 0.11246(14) 0.58094(13) 0.04405(14)
F1_4 F 0.13916(9) 0.85286(8) 0.16879(8)
F2_4 F 0.12764(7) 0.75516(7) 0.11906(7)
F4_4 F 0.06877(8) 0.94957(7) 0.01540(8)
F9_4 F 0.03161(8) 0.61897(8) 0.16235(8)
F10_4 F 0.02243(7) 0.71346(7) 0.10570(7)
F12_4 F 0.14099(9) 0.53701(8) 0.02287(9)
F15_4 F 0.19192(7) 0.72690(8) 0.02741(7)
B1_4 B 0.07623(14) 0.74055(14) 0.00236(15)
C24_4 C 0.01054(12) 0.73863(13) 0.97843(13)
C40_4 C 0.47691(16) 0.7473(2) 0.83335(15)
H13_4 H 0.5063 0.7434 0.8595
C41_4 C 0.42116(17) 0.7510(2) 0.85172(16)
H14_4 H 0.4131 0.7505 0.8895
C42_4 C 0.37758(14) 0.75541(14) 0.81425(15)
C43_4 C 0.39238(14) 0.75775(15) 0.76059(15)
H15_4 H 0.3641 0.7615 0.7334
C44_4 C 0.44928(14) 0.75450(15) 0.74663(15)
H16_4 H 0.4586 0.7564 0.7092
C45_4 C 0.32056(15) 0.75722(15) 0.83381(14)
C46_4 C 0.27481(15) 0.75797(14) 0.85516(14)
C47_4 C 0.22470(14) 0.75688(14) 0.88734(14)
C48_4 C 0.17051(14) 0.76568(14) 0.86901(13)
C49_4 C 0.12392(13) 0.76157(14) 0.90279(13)
C50_4 C 0.12722(13) 0.74685(12) 0.95652(13)
C51_4 C 0.18280(13) 0.73983(12) 0.97452(13)
C52_4 C 0.22930(13) 0.74386(14) 0.94249(14)
F3_4 F 0.05530(7) 0.85157(7) 0.96508(7)
F7_4 F 0.03697(8) 0.66852(8) 0.91511(8)
F11_4 F 0.13708(8) 0.63172(7) 0.96849(8)
F13_4 F 0.16255(8) 0.77809(9) 0.81590(8)
F14_4 F 0.07258(7) 0.77152(8) 0.87943(8)
F16_4 F 0.28146(7) 0.73515(9) 0.96421(8)
C14_4 C 0.64140(14) 0.72439(14) 0.86228(14)
H5_4 H 0.6065 0.7173 0.8804
C15_4 C 0.69065(14) 0.72002(15) 0.89177(15)
H6_4 H 0.6897 0.7106 0.9292
C16_4 C 0.74232(14) 0.72975(14) 0.86544(14)
C17_4 C 0.74119(15) 0.74315(15) 0.81097(15)
H7_4 H 0.7755 0.7497 0.7917
C18_4 C 0.68936(14) 0.74684(15) 0.78492(14)
H8_4 H 0.689 0.7561 0.7474
C19_4 C 0.79506(14) 0.72663(14) 0.89295(15)
C20_4 C 0.84235(15) 0.72613(15) 0.91384(15)
C21_4 C 0.89755(14) 0.72771(14) 0.93676(14)
C22_4 C 0.91001(12) 0.76223(14) 0.98079(13)
C25_4 C 0.99683(13) 0.70167(14) 0.93718(14)
C26_4 C 0.94271(14) 0.69623(14) 0.91599(15)
F8_4 F 0.93343(9) 0.66065(9) 0.87423(9)
N3_3 N 0.18627(10) 0.58708(11) 0.28466(11)
C27_5 C 0.17964(14) 0.59808(13) 0.33690(14)
H9_5 H 0.2126 0.6042 0.3583
C28_5 C 0.12680(14) 0.60112(15) 0.36214(15)
H10_5 H 0.124 0.6094 0.3998
C29_5 C 0.07923(13) 0.59205(13) 0.33196(15)
C30_5 C 0.08538(14) 0.58108(15) 0.27687(14)
H11_5 H 0.053 0.5747 0.2547
C31_5 C 0.13874(13) 0.57962(13) 0.25513(14)
H12_5 H 0.1425 0.573 0.2173
C32_5 C 0.02368(14) 0.59173(15) 0.35666(14)
Cu2_2 Cu 0.26183(2) 0.57155(2) 0.24436(2)
H13_5 H 0.7566 0.0063 0.6405
Cu3_2 Cu 0.76183(2) 0.07155(2) 0.74436(2)
N1_5 N 0.33476(11) 0.58354(11) 0.28489(11)
N2_3 N 0.76196(11) 0.13952(11) 0.69021(11)
N4_3 N 0.75094(12) 0.99126(11) 0.71866(12)
C1_5 C 0.37823(13) 0.60821(14) 0.25822(15)
H1_5 H 0.3717 0.6214 0.2223
C2_5 C 0.43187(14) 0.61545(15) 0.28028(15)
H2_5 H 0.4614 0.6325 0.2597
C3_5 C 0.44159(14) 0.59738(14) 0.33272(14)
C4_5 C 0.39685(14) 0.57231(15) 0.36106(14)
H3_5 H 0.402 0.5594 0.3972
C5_5 C 0.34542(14) 0.56656(15) 0.33591(14)
H4_5 H 0.3154 0.5495 0.3558
C6_5 C 0.49669(14) 0.60250(15) 0.35689(14)
C7_5 C 0.54202(14) 0.60525(14) 0.37740(15)
C8_5 C 0.59567(13) 0.60273(14) 0.40543(15)
C9_5 C 0.64636(13) 0.61806(14) 0.38204(13)
C10_5 C 0.69794(13) 0.61083(13) 0.40857(13)
C11_5 C 0.70223(12) 0.58770(12) 0.46015(13)
C12_5 C 0.64969(13) 0.57514(12) 0.48399(13)
C13_5 C 0.59851(13) 0.58235(14) 0.45864(14)
C14_5 C 0.77561(14) 0.14140(14) 0.63772(14)
H5_5 H 0.7827 0.1065 0.6196
C15_5 C 0.77998(15) 0.19065(14) 0.60823(15)
H6_5 H 0.7894 0.1897 0.5708
C16_5 C 0.77025(14) 0.24232(14) 0.63456(14)
C17_5 C 0.75685(15) 0.24119(15) 0.68903(15)
H7_5 H 0.7503 0.2755 0.7083
C18_5 C 0.75316(15) 0.18936(14) 0.71508(14)
H8_5 H 0.7439 0.189 0.7526
C19_5 C 0.77337(14) 0.29506(14) 0.60705(15)
C20_5 C 0.77387(15) 0.34235(15) 0.58616(15)
C21_5 C 0.77229(14) 0.39755(14) 0.56324(14)
C22_5 C 0.73777(14) 0.41001(12) 0.51921(13)
C23_3 C 0.73310(13) 0.46459(13) 0.49958(13)
C24_5 C 0.76137(13) 0.51054(12) 0.52157(13)
C25_5 C 0.79833(14) 0.49683(13) 0.56282(14)
C26_5 C 0.80377(14) 0.44271(14) 0.58401(15)
C33_5 C 0.97848(14) 0.58875(14) 0.37805(15)
C34_5 C 0.92522(13) 0.58707(14) 0.40580(14)
C35_5 C 0.87808(14) 0.55755(14) 0.38645(13)
C36_5 C 0.82918(13) 0.55464(13) 0.41566(13)
C37_5 C 0.81987(12) 0.58140(12) 0.46513(13)
C38_5 C 0.86899(13) 0.61044(14) 0.48457(14)
C39_5 C 0.91906(13) 0.61246(14) 0.45595(14)
C40_5 C 0.7527(2) 0.97691(16) 0.66665(15)
C41_5 C 0.7490(2) 0.92116(17) 0.64828(16)
H14_5 H 0.7495 0.9131 0.6105
C42_5 C 0.74459(14) 0.87758(14) 0.68575(15)
C43_5 C 0.74225(15) 0.89238(14) 0.73941(15)
H15_5 H 0.7385 0.8641 0.7666
C44_5 C 0.74550(15) 0.94928(14) 0.75337(15)
H16_5 H 0.7436 0.9586 0.7908
C45_5 C 0.74278(15) 0.82056(15) 0.66619(14)
C46_5 C 0.74203(14) 0.77481(15) 0.64484(14)
C47_5 C 0.74312(14) 0.72470(14) 0.61266(14)
C48_5 C 0.73432(14) 0.67051(14) 0.63099(13)
C49_5 C 0.73843(14) 0.62392(13) 0.59721(13)
C50_5 C 0.75315(12) 0.62722(13) 0.54348(13)
C51_5 C 0.76017(12) 0.68280(13) 0.52548(13)
C52_5 C 0.75614(14) 0.72930(13) 0.55751(14)
F1_5 F 0.64714(8) 0.63916(9) 0.33121(8)
F2_5 F 0.74484(7) 0.62764(7) 0.38094(7)
F3_5 F 0.64843(7) 0.55530(7) 0.53492(7)
F4_5 F 0.55043(7) 0.56877(8) 0.48460(8)
F5_3 F 0.70807(8) 0.36816(7) 0.49566(8)
F6_3 F 0.69736(7) 0.47040(7) 0.45701(7)
F7_5 F 0.83148(8) 0.53697(8) 0.58489(8)
F8_5 F 0.83935(9) 0.43343(9) 0.62577(9)
F9_5 F 0.88103(8) 0.53161(8) 0.33765(8)
F10_5 F 0.78654(7) 0.52243(7) 0.39430(7)
F11_5 F 0.86828(7) 0.63708(8) 0.53151(8)
F12_5 F 0.96299(8) 0.64099(9) 0.47713(9)
F13_5 F 0.72191(9) 0.66255(8) 0.68410(8)
F14_5 F 0.72848(8) 0.57258(7) 0.62057(8)
F15_5 F 0.77310(8) 0.69192(7) 0.47259(7)
F16_5 F 0.76485(9) 0.78146(7) 0.53579(8)
B1_5 B 0.75945(14) 0.57623(14) 0.49764(15)
N5_3 N 0.26196(11) 0.63952(11) 0.19021(11)
N7_3 N 0.25094(12) 0.49126(11) 0.21866(12)
C24_6 C 0.26137(13) 0.01054(12) 0.02157(13)
C40_6 C 0.2527(2) 0.47691(16) 0.16665(15)
H13_6 H 0.2566 0.5063 0.1405
C41_6 C 0.2490(2) 0.42116(17) 0.14828(16)
H14_6 H 0.2495 0.4131 0.1105
C42_6 C 0.24459(14) 0.37758(14) 0.18575(15)
C43_6 C 0.24225(15) 0.39238(14) 0.23941(15)
H15_6 H 0.2385 0.3641 0.2666
C44_6 C 0.24550(15) 0.44928(14) 0.25337(15)
H16_6 H 0.2436 0.4586 0.2908
C45_6 C 0.24278(15) 0.32056(15) 0.16619(14)
C46_6 C 0.24203(14) 0.27481(15) 0.14484(14)
C47_6 C 0.24312(14) 0.22470(14) 0.11266(14)
C48_6 C 0.23432(14) 0.17051(14) 0.13099(13)
C49_6 C 0.23843(14) 0.12392(13) 0.09721(13)
C50_6 C 0.25315(12) 0.12722(13) 0.04348(13)
C51_6 C 0.26017(12) 0.18280(13) 0.02548(13)
C52_6 C 0.25614(14) 0.22930(13) 0.05751(14)
F3_6 F 0.14843(7) 0.05530(7) 0.03492(7)
F7_6 F 0.33148(8) 0.03697(8) 0.08489(8)
F11_6 F 0.36828(7) 0.13708(8) 0.03151(8)
F13_6 F 0.22191(9) 0.16255(8) 0.18410(8)
F14_6 F 0.22848(8) 0.07258(7) 0.12057(8)
F16_6 F 0.26485(9) 0.28146(7) 0.03579(8)
N3_4 N 0.68627(10) 0.08708(11) 0.78466(11)
C7_6 C 0.04202(14) 0.10525(14) 0.87740(15)
C8_6 C 0.09567(13) 0.10273(14) 0.90543(15)
C9_6 C 0.14636(13) 0.11806(14) 0.88204(13)
C10_6 C 0.19794(13) 0.11083(13) 0.90857(13)
C11_6 C 0.20223(12) 0.08770(12) 0.96015(13)
C12_6 C 0.14969(13) 0.07514(12) 0.98399(13)
C13_6 C 0.09851(13) 0.08235(14) 0.95864(14)
C27_6 C 0.67964(14) 0.09808(13) 0.83690(14)
H9_6 H 0.7126 0.1042 0.8583
C28_6 C 0.62680(14) 0.10112(15) 0.86214(15)
H10_6 H 0.624 0.1094 0.8998
C29_6 C 0.57923(13) 0.09205(13) 0.83196(15)
C30_6 C 0.58538(14) 0.08108(15) 0.77687(14)
H11_6 H 0.553 0.0747 0.7547
C31_6 C 0.63874(13) 0.07962(13) 0.75513(14)
H12_6 H 0.6425 0.073 0.7173
C32_6 C 0.52368(14) 0.09173(15) 0.85666(14)
C33_6 C 0.47848(14) 0.08875(14) 0.87805(15)
C34_6 C 0.42522(13) 0.08707(14) 0.90580(14)
C35_6 C 0.37808(14) 0.05755(14) 0.88645(13)
C36_6 C 0.32918(13) 0.05464(13) 0.91566(13)
C37_6 C 0.31987(12) 0.08140(12) 0.96513(13)
C38_6 C 0.36899(13) 0.11044(14) 0.98457(14)
C39_6 C 0.41906(13) 0.11246(14) 0.95595(14)
F1_6 F 0.14714(8) 0.13916(9) 0.83121(8)
F2_6 F 0.24484(7) 0.12764(7) 0.88094(7)
F4_6 F 0.05043(7) 0.06877(8) 0.98460(8)
F9_6 F 0.38103(8) 0.03161(8) 0.83765(8)
F10_6 F 0.28654(7) 0.02243(7) 0.89430(7)
F12_6 F 0.46299(8) 0.14099(9) 0.97713(9)
F15_6 F 0.27310(8) 0.19192(7) 0.97259(7)
B1_6 B 0.25945(14) 0.07623(14) 0.99764(15)
C14_6 C 0.27561(14) 0.64140(14) 0.13772(14)
H5_6 H 0.2827 0.6065 0.1196
C15_6 C 0.27998(15) 0.69065(14) 0.10823(15)
H6_6 H 0.2894 0.6897 0.0708
C16_6 C 0.27025(14) 0.74232(14) 0.13456(14)
C17_6 C 0.25685(15) 0.74119(15) 0.18903(15)
H7_6 H 0.2503 0.7755 0.2083
C18_6 C 0.25316(15) 0.68936(14) 0.21508(14)
H8_6 H 0.2439 0.689 0.2526
C19_6 C 0.27337(14) 0.79506(14) 0.10705(15)
C20_6 C 0.27387(15) 0.84235(15) 0.08616(15)
C21_6 C 0.27229(14) 0.89755(14) 0.06324(14)
C22_6 C 0.23777(14) 0.91001(12) 0.01921(13)
C25_6 C 0.29833(14) 0.99683(13) 0.06282(14)
C26_6 C 0.30377(14) 0.94271(14) 0.08401(15)
F8_6 F 0.33935(9) 0.93343(9) 0.12577(9)
N1_6 N 0.83476(11) 0.08354(11) 0.78489(11)
C1_6 C 0.87823(13) 0.10821(14) 0.75822(15)
H1_6 H 0.8717 0.1214 0.7223
C2_6 C 0.93187(14) 0.11545(15) 0.78028(15)
H2_6 H 0.9614 0.1325 0.7597
C3_6 C 0.94159(14) 0.09738(14) 0.83272(14)
C4_6 C 0.89685(14) 0.07231(15) 0.86106(14)
H3_6 H 0.902 0.0594 0.8972
C5_6 C 0.84542(14) 0.06656(15) 0.83591(14)
H4_6 H 0.8154 0.0495 0.8558
C6_6 C 0.99669(14) 0.10250(15) 0.85689(14)
Cu1_2 Cu 0.73817(2) 0.42845(2) 0.24436(2)
N1_7 N 0.66524(11) 0.41646(11) 0.28489(11)
N2_4 N 0.23804(11) 0.86048(11) 0.69021(11)
N4_4 N 0.24906(12) 0.00874(11) 0.71866(12)
C1_7 C 0.62177(13) 0.39179(14) 0.25822(15)
H1_7 H 0.6283 0.3786 0.2223
C2_7 C 0.56813(14) 0.38455(15) 0.28028(15)
H2_7 H 0.5386 0.3675 0.2597
C3_7 C 0.55841(14) 0.40262(14) 0.33272(14)
C4_7 C 0.60315(14) 0.42769(15) 0.36106(14)
H3_7 H 0.598 0.4406 0.3972
C5_7 C 0.65458(14) 0.43344(15) 0.33591(14)
H4_7 H 0.6846 0.4505 0.3558
C6_7 C 0.50331(14) 0.39750(15) 0.35689(14)
C7_7 C 0.45798(14) 0.39475(14) 0.37740(15)
C8_7 C 0.40433(13) 0.39727(14) 0.40543(15)
C9_7 C 0.35364(13) 0.38194(14) 0.38204(13)
C10_7 C 0.30206(13) 0.38917(13) 0.40857(13)
C11_7 C 0.29777(12) 0.41230(12) 0.46015(13)
C12_7 C 0.35031(13) 0.42486(12) 0.48399(13)
C13_7 C 0.40149(13) 0.41765(14) 0.45864(14)
C14_7 C 0.22439(14) 0.85860(14) 0.63772(14)
H5_7 H 0.2173 0.8935 0.6196
C15_7 C 0.22002(15) 0.80935(14) 0.60823(15)
H6_7 H 0.2106 0.8103 0.5708
C16_7 C 0.22975(14) 0.75768(14) 0.63456(14)
C17_7 C 0.24315(15) 0.75881(15) 0.68903(15)
H7_7 H 0.2497 0.7245 0.7083
C18_7 C 0.24684(15) 0.81064(14) 0.71508(14)
H8_7 H 0.2561 0.811 0.7526
C19_7 C 0.22663(14) 0.70494(14) 0.60705(15)
C20_7 C 0.22613(15) 0.65765(15) 0.58616(15)
C21_7 C 0.22771(14) 0.60245(14) 0.56324(14)
C22_7 C 0.26223(14) 0.58999(12) 0.51921(13)
C23_4 C 0.26690(13) 0.53541(13) 0.49958(13)
C24_7 C 0.23863(13) 0.48946(12) 0.52157(13)
C25_7 C 0.20167(14) 0.50317(13) 0.56282(14)
C26_7 C 0.19623(14) 0.55729(14) 0.58401(15)
C33_7 C 0.02152(14) 0.41125(14) 0.37805(15)
C34_7 C 0.07478(13) 0.41293(14) 0.40580(14)
C35_7 C 0.12192(14) 0.44245(14) 0.38645(13)
C36_7 C 0.17082(13) 0.44536(13) 0.41566(13)
C37_7 C 0.18013(12) 0.41860(12) 0.46513(13)
C38_7 C 0.13101(13) 0.38956(14) 0.48457(14)
C39_7 C 0.08094(13) 0.38754(14) 0.45595(14)
C40_7 C 0.2473(2) 0.02309(16) 0.66665(15)
C41_7 C 0.2510(2) 0.07884(17) 0.64828(16)
H14_7 H 0.2505 0.0869 0.6105
C42_7 C 0.25541(14) 0.12242(14) 0.68575(15)
C43_7 C 0.25775(15) 0.10762(14) 0.73941(15)
H15_7 H 0.2615 0.1359 0.7666
C44_7 C 0.25450(15) 0.05072(14) 0.75337(15)
H16_7 H 0.2564 0.0414 0.7908
C45_7 C 0.25722(15) 0.17944(15) 0.66619(14)
C46_7 C 0.25797(14) 0.22519(15) 0.64484(14)
C47_7 C 0.25688(14) 0.27530(14) 0.61266(14)
C48_7 C 0.26568(14) 0.32949(14) 0.63099(13)
C49_7 C 0.26157(14) 0.37608(13) 0.59721(13)
C50_7 C 0.24685(12) 0.37278(13) 0.54348(13)
C51_7 C 0.23983(12) 0.31720(13) 0.52548(13)
C52_7 C 0.24386(14) 0.27070(13) 0.55751(14)
F1_7 F 0.35286(8) 0.36084(9) 0.33121(8)
F2_7 F 0.25516(7) 0.37236(7) 0.38094(7)
F3_7 F 0.35157(7) 0.44470(7) 0.53492(7)
F4_7 F 0.44957(7) 0.43123(8) 0.48460(8)
F5_4 F 0.29193(8) 0.63184(7) 0.49566(8)
F6_4 F 0.30264(7) 0.52960(7) 0.45701(7)
F7_7 F 0.16852(8) 0.46303(8) 0.58489(8)
F8_7 F 0.16065(9) 0.56657(9) 0.62577(9)
F9_7 F 0.11897(8) 0.46839(8) 0.33765(8)
F10_7 F 0.21346(7) 0.47757(7) 0.39430(7)
F11_7 F 0.13172(7) 0.36292(8) 0.53151(8)
F12_7 F 0.03701(8) 0.35901(9) 0.47713(9)
F13_7 F 0.27809(9) 0.33745(8) 0.68410(8)
F14_7 F 0.27152(8) 0.42742(7) 0.62057(8)
F15_7 F 0.22690(8) 0.30808(7) 0.47259(7)
F16_7 F 0.23515(9) 0.21854(7) 0.53579(8)
B1_7 B 0.24055(14) 0.42377(14) 0.49764(15)
Cu4_2 Cu 0.23817(2) 0.92845(2) 0.74436(2)
N5_4 N 0.73804(11) 0.36048(11) 0.19021(11)
N6_3 N 0.81373(10) 0.41292(11) 0.28466(11)
N7_4 N 0.74906(12) 0.50874(11) 0.21866(12)
H13_7 H 0.2434 0.9937 0.6405
C27_7 C 0.82036(14) 0.40192(13) 0.33690(14)
H9_7 H 0.7874 0.3958 0.3583
C28_7 C 0.87320(14) 0.39888(15) 0.36214(15)
H10_7 H 0.876 0.3906 0.3998
C29_7 C 0.92077(13) 0.40795(13) 0.33196(15)
C30_7 C 0.91462(14) 0.41892(15) 0.27687(14)
H11_7 H 0.947 0.4253 0.2547
C31_7 C 0.86126(13) 0.42038(13) 0.25513(14)
H12_7 H 0.8575 0.427 0.2173
C32_7 C 0.97632(14) 0.40827(15) 0.35666(14)
N1_8 N 0.16524(11) 0.91646(11) 0.78489(11)
C1_8 C 0.12177(13) 0.89179(14) 0.75822(15)
H1_8 H 0.1283 0.8786 0.7223
C2_8 C 0.06813(14) 0.88455(15) 0.78028(15)
H2_8 H 0.0386 0.8675 0.7597
C3_8 C 0.05841(14) 0.90262(14) 0.83272(14)
C4_8 C 0.10315(14) 0.92769(15) 0.86106(14)
H3_8 H 0.098 0.9406 0.8972
C5_8 C 0.15458(14) 0.93344(15) 0.83591(14)
H4_8 H 0.1846 0.9505 0.8558
C6_8 C 0.00331(14) 0.89750(15) 0.85689(14)
N6_4 N 0.31373(10) 0.91292(11) 0.78466(11)
C14_8 C 0.72439(14) 0.35860(14) 0.13772(14)
H5_8 H 0.7173 0.3935 0.1196
C15_8 C 0.72002(15) 0.30935(14) 0.10823(15)
H6_8 H 0.7106 0.3103 0.0708
C16_8 C 0.72975(14) 0.25768(14) 0.13456(14)
C17_8 C 0.74315(15) 0.25881(15) 0.18903(15)
H7_8 H 0.7497 0.2245 0.2083
C18_8 C 0.74684(15) 0.31064(14) 0.21508(14)
H8_8 H 0.7561 0.311 0.2526
C19_8 C 0.72663(14) 0.20494(14) 0.10705(15)
C20_8 C 0.72613(15) 0.15765(15) 0.08616(15)
C21_8 C 0.72771(14) 0.10245(14) 0.06324(14)
C22_8 C 0.76223(14) 0.08999(12) 0.01921(13)
C25_8 C 0.70167(14) 0.00317(13) 0.06282(14)
C26_8 C 0.69623(14) 0.05729(14) 0.08401(15)
F8_8 F 0.66065(9) 0.06657(9) 0.12577(9)
C24_8 C 0.73863(13) 0.98946(12) 0.02157(13)
C40_8 C 0.7473(2) 0.52309(16) 0.16665(15)
H13_8 H 0.7434 0.4937 0.1405
C41_8 C 0.7510(2) 0.57884(17) 0.14828(16)
H14_8 H 0.7505 0.5869 0.1105
C42_8 C 0.75541(14) 0.62242(14) 0.18575(15)
C43_8 C 0.75775(15) 0.60762(14) 0.23941(15)
H15_8 H 0.7615 0.6359 0.2666
C44_8 C 0.75450(15) 0.55072(14) 0.25337(15)
H16_8 H 0.7564 0.5414 0.2908
C45_8 C 0.75722(15) 0.67944(15) 0.16619(14)
C46_8 C 0.75797(14) 0.72519(15) 0.14484(14)
C47_8 C 0.75688(14) 0.77530(14) 0.11266(14)
C48_8 C 0.76568(14) 0.82949(14) 0.13099(13)
C49_8 C 0.76157(14) 0.87608(13) 0.09721(13)
C50_8 C 0.74685(12) 0.87278(13) 0.04348(13)
C51_8 C 0.73983(12) 0.81720(13) 0.02548(13)
C52_8 C 0.74386(14) 0.77070(13) 0.05751(14)
F3_8 F 0.85157(7) 0.94470(7) 0.03492(7)
F7_8 F 0.66852(8) 0.96303(8) 0.08489(8)
F11_8 F 0.63172(7) 0.86292(8) 0.03151(8)
F13_8 F 0.77809(9) 0.83745(8) 0.18410(8)
F14_8 F 0.77152(8) 0.92742(7) 0.12057(8)
F16_8 F 0.73515(9) 0.71854(7) 0.03579(8)
C7_8 C 0.95798(14) 0.89475(14) 0.87740(15)
C8_8 C 0.90433(13) 0.89727(14) 0.90543(15)
C9_8 C 0.85364(13) 0.88194(14) 0.88204(13)
C10_8 C 0.80206(13) 0.88917(13) 0.90857(13)
C11_8 C 0.79777(12) 0.91230(12) 0.96015(13)
C12_8 C 0.85031(13) 0.92486(12) 0.98399(13)
C13_8 C 0.90149(13) 0.91765(14) 0.95864(14)
C27_8 C 0.32036(14) 0.90192(13) 0.83690(14)
H9_8 H 0.2874 0.8958 0.8583
C28_8 C 0.37320(14) 0.89888(15) 0.86214(15)
H10_8 H 0.376 0.8906 0.8998
C29_8 C 0.42077(13) 0.90795(13) 0.83196(15)
C30_8 C 0.41462(14) 0.91892(15) 0.77687(14)
H11_8 H 0.447 0.9253 0.7547
C31_8 C 0.36126(13) 0.92038(13) 0.75513(14)
H12_8 H 0.3575 0.927 0.7173
C32_8 C 0.47632(14) 0.90827(15) 0.85666(14)
C33_8 C 0.52152(14) 0.91125(14) 0.87805(15)
C34_8 C 0.57478(13) 0.91293(14) 0.90580(14)
C35_8 C 0.62192(14) 0.94245(14) 0.88645(13)
C36_8 C 0.67082(13) 0.94536(13) 0.91566(13)
C37_8 C 0.68013(12) 0.91860(12) 0.96513(13)
C38_8 C 0.63101(13) 0.88956(14) 0.98457(14)
C39_8 C 0.58094(13) 0.88754(14) 0.95595(14)
F1_8 F 0.85286(8) 0.86084(9) 0.83121(8)
F2_8 F 0.75516(7) 0.87236(7) 0.88094(7)
F4_8 F 0.94957(7) 0.93123(8) 0.98460(8)
F9_8 F 0.61897(8) 0.96839(8) 0.83765(8)
F10_8 F 0.71346(7) 0.97757(7) 0.89430(7)
F12_8 F 0.53701(8) 0.85901(9) 0.97713(9)
F15_8 F 0.72690(8) 0.80808(7) 0.97259(7)
B1_8 B 0.74055(14) 0.92377(14) 0.99764(15)
C23_5 C 0.03541(13) 0.23310(13) 0.00042(13)
F5_5 F 0.13184(7) 0.20807(8) 0.00434(8)
F6_5 F 0.02960(7) 0.19736(7) 0.04299(7)
C23_6 C 0.96459(13) 0.76690(13) 0.00042(13)
F5_6 F 0.86816(7) 0.79193(8) 0.00434(8)
F6_6 F 0.97040(7) 0.80264(7) 0.04299(7)
C23_7 C 0.23310(13) 0.96459(13) 0.99958(13)
F5_7 F 0.20807(8) 0.86816(7) 0.99566(8)
F6_7 F 0.19736(7) 0.97040(7) 0.95701(7)
C23_8 C 0.76690(13) 0.03541(13) 0.99958(13)
F5_8 F 0.79193(8) 0.13184(7) 0.99566(8)
F6_8 F 0.80264(7) 0.02960(7) 0.95701(7)
loop_
_geom_bond_atom_site_label_1
_geom_bond_atom_site_label_2
_geom_bond_site_symmetry_1
_geom_bond_site_symmetry_2
N3 C27 1_555 1_555
C27 H9 1_555 1_555
C28 C27 1_555 1_555
H10 C28 1_555 1_555
C29 C28 1_555 1_555
C30 C29 1_555 1_555
H11 C30 1_555 1_555
C31 N3 1_555 1_555
H12 C31 1_555 1_555
C32 C29 1_555 1_555
Cu2 N3 1_555 1_555
C30 C31 1_555 1_555
Cu2 N1 1_555 1_555
N1 C1 1_555 1_555
N2 C14 1_555 1_555
N4 C40 1_555 1_555
C1 H1 1_555 1_555
C2 C1 1_555 1_555
H2 C2 1_555 1_555
C3 C2 1_555 1_555
C4 C3 1_555 1_555
H3 C4 1_555 1_555
C5 N1 1_555 1_555
H4 C5 1_555 1_555
C6 C3 1_555 1_555
C7 C6 1_555 1_555
C8 C7 1_555 1_555
C9 C8 1_555 1_555
C10 C9 1_555 1_555
C11 C10 1_555 1_555
C12 C11 1_555 1_555
C13 C8 1_555 1_555
C14 H5 1_555 1_555
C15 C14 1_555 1_555
H6 C15 1_555 1_555
C16 C15 1_555 1_555
C17 C16 1_555 1_555
H7 C17 1_555 1_555
C18 N2 1_555 1_555
H8 C18 1_555 1_555
C19 C16 1_555 1_555
C20 C19 1_555 1_555
C21 C20 1_555 1_555
C22 C21 1_555 1_555
C23 C22 1_555 1_555
C24 C23 1_555 1_555
C25 C24 1_555 1_555
C26 C21 1_555 1_555
C34 C33 1_555 1_555
C35 C34 1_555 1_555
C36 C35 1_555 1_555
C37 C36 1_555 1_555
C38 C37 1_555 1_555
C39 C34 1_555 1_555
C41 C40 1_555 1_555
H14 C41 1_555 1_555
C42 C41 1_555 1_555
C43 C42 1_555 1_555
H15 C43 1_555 1_555
C44 N4 1_555 1_555
H16 C44 1_555 1_555
C45 C42 1_555 1_555
C46 C45 1_555 1_555
C47 C46 1_555 1_555
C48 C47 1_555 1_555
C49 C48 1_555 1_555
C50 C49 1_555 1_555
C51 C50 1_555 1_555
C52 C47 1_555 1_555
F1 C9 1_555 1_555
F2 C10 1_555 1_555
F3 C12 1_555 1_555
F4 C13 1_555 1_555
F5 C22 1_555 1_555
F6 C23 1_555 1_555
F7 C25 1_555 1_555
F8 C26 1_555 1_555
F9 C35 1_555 1_555
F10 C36 1_555 1_555
F11 C38 1_555 1_555
F12 C39 1_555 1_555
F13 C48 1_555 1_555
F14 C49 1_555 1_555
F15 C51 1_555 1_555
F16 C52 1_555 1_555
B1 C11 1_555 1_555
Cu4 N2 1_555 1_555
N5 Cu2 1_555 1_555
N7 Cu2 1_555 1_555
C4 C5 1_555 1_555
C12 C13 1_555 1_555
C17 C18 1_555 1_555
C24 B1 1_555 1_555
C25 C26 1_555 1_555
C37 B1 1_555 1_555
C38 C39 1_555 1_555
C43 C44 1_555 1_555
C50 B1 1_555 1_555
C51 C52 1_555 1_555
N5 C14_2 1_555 1_555
C14_2 H5_2 1_555 1_555
C15_2 C14_2 1_555 1_555
H6_2 C15_2 1_555 1_555
C16_2 C15_2 1_555 1_555
C17_2 C16_2 1_555 1_555
H7_2 C17_2 1_555 1_555
C18_2 N5 1_555 1_555
H8_2 C18_2 1_555 1_555
C19_2 C16_2 1_555 1_555
C20_2 C19_2 1_555 1_555
C21_2 C20_2 1_555 1_555
C22_2 C21_2 1_555 1_555
C26_2 C21_2 1_555 1_555
F8_2 C26_2 1_555 1_555
C17_2 C18_2 1_555 1_555
C25_2 C26_2 1_555 1_555
N3_2 C27_2 1_555 1_555
C8_2 C7_2 1_555 1_555
C9_2 C8_2 1_555 1_555
C10_2 C9_2 1_555 1_555
C11_2 C10_2 1_555 1_555
C12_2 C11_2 1_555 1_555
C13_2 C8_2 1_555 1_555
C27_2 H9_2 1_555 1_555
C28_2 C27_2 1_555 1_555
H10_2 C28_2 1_555 1_555
C29_2 C28_2 1_555 1_555
C30_2 C29_2 1_555 1_555
H11_2 C30_2 1_555 1_555
C31_2 N3_2 1_555 1_555
H12_2 C31_2 1_555 1_555
C32_2 C29_2 1_555 1_555
C33_2 C32_2 1_555 1_555
C34_2 C33_2 1_555 1_555
C35_2 C34_2 1_555 1_555
C36_2 C35_2 1_555 1_555
C37_2 C36_2 1_555 1_555
C38_2 C37_2 1_555 1_555
C39_2 C34_2 1_555 1_555
F1_2 C9_2 1_555 1_555
F2_2 C10_2 1_555 1_555
F4_2 C13_2 1_555 1_555
F9_2 C35_2 1_555 1_555
F10_2 C36_2 1_555 1_555
F12_2 C39_2 1_555 1_555
B1_2 C11_2 1_555 1_555
Cu4 N3_2 1_555 1_555
C12_2 C13_2 1_555 1_555
C30_2 C31_2 1_555 1_555
C37_2 B1_2 1_555 1_555
C38_2 C39_2 1_555 1_555
N7 C40_2 1_555 1_555
C40_2 H13_2 1_555 1_555
C41_2 C40_2 1_555 1_555
H14_2 C41_2 1_555 1_555
C42_2 C41_2 1_555 1_555
C43_2 C42_2 1_555 1_555
H15_2 C43_2 1_555 1_555
C44_2 N7 1_555 1_555
H16_2 C44_2 1_555 1_555
C45_2 C42_2 1_555 1_555
C46_2 C45_2 1_555 1_555
C47_2 C46_2 1_555 1_555
C48_2 C47_2 1_555 1_555
C49_2 C48_2 1_555 1_555
C50_2 C49_2 1_555 1_555
C51_2 C50_2 1_555 1_555
C52_2 C47_2 1_555 1_555
F13_2 C48_2 1_555 1_555
F14_2 C49_2 1_555 1_555
F16_2 C52_2 1_555 1_555
C43_2 C44_2 1_555 1_555
C51_2 C52_2 1_555 1_555
Cu4 N1_2 1_555 1_555
N1_2 C1_2 1_555 1_555
C1_2 H1_2 1_555 1_555
C2_2 C1_2 1_555 1_555
H2_2 C2_2 1_555 1_555
C3_2 C2_2 1_555 1_555
C4_2 C3_2 1_555 1_555
H3_2 C4_2 1_555 1_555
C5_2 N1_2 1_555 1_555
H4_2 C5_2 1_555 1_555
C6_2 C3_2 1_555 1_555
C4_2 C5_2 1_555 1_555
Cu1 N1_3 1_555 1_555
N1_3 C1_3 1_555 1_555
N2_2 C14_3 1_555 1_555
N4_2 C40_3 1_555 1_555
C1_3 H1_3 1_555 1_555
C2_3 C1_3 1_555 1_555
H2_3 C2_3 1_555 1_555
C3_3 C2_3 1_555 1_555
C4_3 C3_3 1_555 1_555
H3_3 C4_3 1_555 1_555
C5_3 N1_3 1_555 1_555
H4_3 C5_3 1_555 1_555
C6_3 C3_3 1_555 1_555
C7_3 C6_3 1_555 1_555
C8_3 C7_3 1_555 1_555
C9_3 C8_3 1_555 1_555
C10_3 C9_3 1_555 1_555
C11_3 C10_3 1_555 1_555
C12_3 C11_3 1_555 1_555
C13_3 C8_3 1_555 1_555
C14_3 H5_3 1_555 1_555
C15_3 C14_3 1_555 1_555
H6_3 C15_3 1_555 1_555
C16_3 C15_3 1_555 1_555
C17_3 C16_3 1_555 1_555
H7_3 C17_3 1_555 1_555
C18_3 N2_2 1_555 1_555
H8_3 C18_3 1_555 1_555
C19_3 C16_3 1_555 1_555
C20_3 C19_3 1_555 1_555
C21_3 C20_3 1_555 1_555
C22_3 C21_3 1_555 1_555
C23_2 C22_3 1_555 1_555
C24_3 C23_2 1_555 1_555
C25_3 C24_3 1_555 1_555
C26_3 C21_3 1_555 1_555
C34_3 C33_3 1_555 1_555
C35_3 C34_3 1_555 1_555
C36_3 C35_3 1_555 1_555
C37_3 C36_3 1_555 1_555
C38_3 C37_3 1_555 1_555
C39_3 C34_3 1_555 1_555
C41_3 C40_3 1_555 1_555
H14_3 C41_3 1_555 1_555
C42_3 C41_3 1_555 1_555
C43_3 C42_3 1_555 1_555
H15_3 C43_3 1_555 1_555
C44_3 N4_2 1_555 1_555
H16_3 C44_3 1_555 1_555
C45_3 C42_3 1_555 1_555
C46_3 C45_3 1_555 1_555
C47_3 C46_3 1_555 1_555
C48_3 C47_3 1_555 1_555
C49_3 C48_3 1_555 1_555
C50_3 C49_3 1_555 1_555
C51_3 C50_3 1_555 1_555
C52_3 C47_3 1_555 1_555
F1_3 C9_3 1_555 1_555
F2_3 C10_3 1_555 1_555
F3_3 C12_3 1_555 1_555
F4_3 C13_3 1_555 1_555
F5_2 C22_3 1_555 1_555
F6_2 C23_2 1_555 1_555
F7_3 C25_3 1_555 1_555
F8_3 C26_3 1_555 1_555
F9_3 C35_3 1_555 1_555
F10_3 C36_3 1_555 1_555
F11_3 C38_3 1_555 1_555
F12_3 C39_3 1_555 1_555
F13_3 C48_3 1_555 1_555
F14_3 C49_3 1_555 1_555
F15_3 C51_3 1_555 1_555
F16_3 C52_3 1_555 1_555
B1_3 C11_3 1_555 1_555
Cu3 N2_2 1_555 1_555
N5_2 Cu1 1_555 1_555
N6 Cu1 1_555 1_555
N7_2 Cu1 1_555 1_555
C4_3 C5_3 1_555 1_555
C12_3 C13_3 1_555 1_555
C17_3 C18_3 1_555 1_555
C24_3 B1_3 1_555 1_555
C25_3 C26_3 1_555 1_555
C37_3 B1_3 1_555 1_555
C38_3 C39_3 1_555 1_555
C43_3 C44_3 1_555 1_555
C50_3 B1_3 1_555 1_555
C51_3 C52_3 1_555 1_555
N6 C27_3 1_555 1_555
C27_3 H9_3 1_555 1_555
C28_3 C27_3 1_555 1_555
H10_3 C28_3 1_555 1_555
C29_3 C28_3 1_555 1_555
C30_3 C29_3 1_555 1_555
H11_3 C30_3 1_555 1_555
C31_3 N6 1_555 1_555
H12_3 C31_3 1_555 1_555
C32_3 C29_3 1_555 1_555
C30_3 C31_3 1_555 1_555
Cu3 N1_4 1_555 1_555
N1_4 C1_4 1_555 1_555
C1_4 H1_4 1_555 1_555
C2_4 C1_4 1_555 1_555
H2_4 C2_4 1_555 1_555
C3_4 C2_4 1_555 1_555
C4_4 C3_4 1_555 1_555
H3_4 C4_4 1_555 1_555
C5_4 N1_4 1_555 1_555
H4_4 C5_4 1_555 1_555
C6_4 C3_4 1_555 1_555
N6_2 Cu3 1_555 1_555
C4_4 C5_4 1_555 1_555
N6_2 C27_4 1_555 1_555
C8_4 C7_4 1_555 1_555
C9_4 C8_4 1_555 1_555
C10_4 C9_4 1_555 1_555
C11_4 C10_4 1_555 1_555
C12_4 C11_4 1_555 1_555
C13_4 C8_4 1_555 1_555
C27_4 H9_4 1_555 1_555
C28_4 C27_4 1_555 1_555
H10_4 C28_4 1_555 1_555
C29_4 C28_4 1_555 1_555
C30_4 C29_4 1_555 1_555
H11_4 C30_4 1_555 1_555
C31_4 N6_2 1_555 1_555
H12_4 C31_4 1_555 1_555
C32_4 C29_4 1_555 1_555
C33_4 C32_4 1_555 1_555
C34_4 C33_4 1_555 1_555
C35_4 C34_4 1_555 1_555
C36_4 C35_4 1_555 1_555
C37_4 C36_4 1_555 1_555
C38_4 C37_4 1_555 1_555
C39_4 C34_4 1_555 1_555
F1_4 C9_4 1_555 1_555
F2_4 C10_4 1_555 1_555
F4_4 C13_4 1_555 1_555
F9_4 C35_4 1_555 1_555
F10_4 C36_4 1_555 1_555
F12_4 C39_4 1_555 1_555
B1_4 C11_4 1_555 1_555
C12_4 C13_4 1_555 1_555
C30_4 C31_4 1_555 1_555
C37_4 B1_4 1_555 1_555
C38_4 C39_4 1_555 1_555
N7_2 C40_4 1_555 1_555
C40_4 H13_4 1_555 1_555
C41_4 C40_4 1_555 1_555
H14_4 C41_4 1_555 1_555
C42_4 C41_4 1_555 1_555
C43_4 C42_4 1_555 1_555
H15_4 C43_4 1_555 1_555
C44_4 N7_2 1_555 1_555
H16_4 C44_4 1_555 1_555
C45_4 C42_4 1_555 1_555
C46_4 C45_4 1_555 1_555
C47_4 C46_4 1_555 1_555
C48_4 C47_4 1_555 1_555
C49_4 C48_4 1_555 1_555
C50_4 C49_4 1_555 1_555
C51_4 C50_4 1_555 1_555
C52_4 C47_4 1_555 1_555
F13_4 C48_4 1_555 1_555
F14_4 C49_4 1_555 1_555
F16_4 C52_4 1_555 1_555
C43_4 C44_4 1_555 1_555
C51_4 C52_4 1_555 1_555
N5_2 C14_4 1_555 1_555
C14_4 H5_4 1_555 1_555
C15_4 C14_4 1_555 1_555
H6_4 C15_4 1_555 1_555
C16_4 C15_4 1_555 1_555
C17_4 C16_4 1_555 1_555
H7_4 C17_4 1_555 1_555
C18_4 N5_2 1_555 1_555
H8_4 C18_4 1_555 1_555
C19_4 C16_4 1_555 1_555
C20_4 C19_4 1_555 1_555
C21_4 C20_4 1_555 1_555
C22_4 C21_4 1_555 1_555
C26_4 C21_4 1_555 1_555
F8_4 C26_4 1_555 1_555
C17_4 C18_4 1_555 1_555
C25_4 C26_4 1_555 1_555
N3_3 C27_5 1_555 1_555
C27_5 H9_5 1_555 1_555
C28_5 C27_5 1_555 1_555
H10_5 C28_5 1_555 1_555
C29_5 C28_5 1_555 1_555
C30_5 C29_5 1_555 1_555
H11_5 C30_5 1_555 1_555
C31_5 N3_3 1_555 1_555
H12_5 C31_5 1_555 1_555
C32_5 C29_5 1_555 1_555
Cu2_2 N3_3 1_555 1_555
C30_5 C31_5 1_555 1_555
Cu2_2 N1_5 1_555 1_555
N1_5 C1_5 1_555 1_555
N2_3 C14_5 1_555 1_555
N4_3 C40_5 1_555 1_555
C1_5 H1_5 1_555 1_555
C2_5 C1_5 1_555 1_555
H2_5 C2_5 1_555 1_555
C3_5 C2_5 1_555 1_555
C4_5 C3_5 1_555 1_555
H3_5 C4_5 1_555 1_555
C5_5 N1_5 1_555 1_555
H4_5 C5_5 1_555 1_555
C6_5 C3_5 1_555 1_555
C7_5 C6_5 1_555 1_555
C8_5 C7_5 1_555 1_555
C9_5 C8_5 1_555 1_555
C10_5 C9_5 1_555 1_555
C11_5 C10_5 1_555 1_555
C12_5 C11_5 1_555 1_555
C13_5 C8_5 1_555 1_555
C14_5 H5_5 1_555 1_555
C15_5 C14_5 1_555 1_555
H6_5 C15_5 1_555 1_555
C16_5 C15_5 1_555 1_555
C17_5 C16_5 1_555 1_555
H7_5 C17_5 1_555 1_555
C18_5 N2_3 1_555 1_555
H8_5 C18_5 1_555 1_555
C19_5 C16_5 1_555 1_555
C20_5 C19_5 1_555 1_555
C21_5 C20_5 1_555 1_555
C22_5 C21_5 1_555 1_555
C23_3 C22_5 1_555 1_555
C24_5 C23_3 1_555 1_555
C25_5 C24_5 1_555 1_555
C26_5 C21_5 1_555 1_555
C34_5 C33_5 1_555 1_555
C35_5 C34_5 1_555 1_555
C36_5 C35_5 1_555 1_555
C37_5 C36_5 1_555 1_555
C38_5 C37_5 1_555 1_555
C39_5 C34_5 1_555 1_555
C41_5 C40_5 1_555 1_555
H14_5 C41_5 1_555 1_555
C42_5 C41_5 1_555 1_555
C43_5 C42_5 1_555 1_555
H15_5 C43_5 1_555 1_555
C44_5 N4_3 1_555 1_555
H16_5 C44_5 1_555 1_555
C45_5 C42_5 1_555 1_555
C46_5 C45_5 1_555 1_555
C47_5 C46_5 1_555 1_555
C48_5 C47_5 1_555 1_555
C49_5 C48_5 1_555 1_555
C50_5 C49_5 1_555 1_555
C51_5 C50_5 1_555 1_555
C52_5 C47_5 1_555 1_555
F1_5 C9_5 1_555 1_555
F2_5 C10_5 1_555 1_555
F3_5 C12_5 1_555 1_555
F4_5 C13_5 1_555 1_555
F5_3 C22_5 1_555 1_555
F6_3 C23_3 1_555 1_555
F7_5 C25_5 1_555 1_555
F8_5 C26_5 1_555 1_555
F9_5 C35_5 1_555 1_555
F10_5 C36_5 1_555 1_555
F11_5 C38_5 1_555 1_555
F12_5 C39_5 1_555 1_555
F13_5 C48_5 1_555 1_555
F14_5 C49_5 1_555 1_555
F15_5 C51_5 1_555 1_555
F16_5 C52_5 1_555 1_555
B1_5 C11_5 1_555 1_555
Cu3_2 N2_3 1_555 1_555
N5_3 Cu2_2 1_555 1_555
N7_3 Cu2_2 1_555 1_555
C4_5 C5_5 1_555 1_555
C12_5 C13_5 1_555 1_555
C17_5 C18_5 1_555 1_555
C24_5 B1_5 1_555 1_555
C25_5 C26_5 1_555 1_555
C37_5 B1_5 1_555 1_555
C38_5 C39_5 1_555 1_555
C43_5 C44_5 1_555 1_555
C50_5 B1_5 1_555 1_555
C51_5 C52_5 1_555 1_555
N7_3 C40_6 1_555 1_555
C40_6 H13_6 1_555 1_555
C41_6 C40_6 1_555 1_555
H14_6 C41_6 1_555 1_555
C42_6 C41_6 1_555 1_555
C43_6 C42_6 1_555 1_555
H15_6 C43_6 1_555 1_555
C44_6 N7_3 1_555 1_555
H16_6 C44_6 1_555 1_555
C45_6 C42_6 1_555 1_555
C46_6 C45_6 1_555 1_555
C47_6 C46_6 1_555 1_555
C48_6 C47_6 1_555 1_555
C49_6 C48_6 1_555 1_555
C50_6 C49_6 1_555 1_555
C51_6 C50_6 1_555 1_555
C52_6 C47_6 1_555 1_555
F13_6 C48_6 1_555 1_555
F14_6 C49_6 1_555 1_555
F16_6 C52_6 1_555 1_555
C43_6 C44_6 1_555 1_555
C51_6 C52_6 1_555 1_555
N3_4 C27_6 1_555 1_555
C8_6 C7_6 1_555 1_555
C9_6 C8_6 1_555 1_555
C10_6 C9_6 1_555 1_555
C11_6 C10_6 1_555 1_555
C12_6 C11_6 1_555 1_555
C13_6 C8_6 1_555 1_555
C27_6 H9_6 1_555 1_555
C28_6 C27_6 1_555 1_555
H10_6 C28_6 1_555 1_555
C29_6 C28_6 1_555 1_555
C30_6 C29_6 1_555 1_555
H11_6 C30_6 1_555 1_555
C31_6 N3_4 1_555 1_555
H12_6 C31_6 1_555 1_555
C32_6 C29_6 1_555 1_555
C33_6 C32_6 1_555 1_555
C34_6 C33_6 1_555 1_555
C35_6 C34_6 1_555 1_555
C36_6 C35_6 1_555 1_555
C37_6 C36_6 1_555 1_555
C38_6 C37_6 1_555 1_555
C39_6 C34_6 1_555 1_555
F1_6 C9_6 1_555 1_555
F2_6 C10_6 1_555 1_555
F4_6 C13_6 1_555 1_555
F9_6 C35_6 1_555 1_555
F10_6 C36_6 1_555 1_555
F12_6 C39_6 1_555 1_555
B1_6 C11_6 1_555 1_555
Cu3_2 N3_4 1_555 1_555
C12_6 C13_6 1_555 1_555
C30_6 C31_6 1_555 1_555
C37_6 B1_6 1_555 1_555
C38_6 C39_6 1_555 1_555
N5_3 C14_6 1_555 1_555
C14_6 H5_6 1_555 1_555
C15_6 C14_6 1_555 1_555
H6_6 C15_6 1_555 1_555
C16_6 C15_6 1_555 1_555
C17_6 C16_6 1_555 1_555
H7_6 C17_6 1_555 1_555
C18_6 N5_3 1_555 1_555
H8_6 C18_6 1_555 1_555
C19_6 C16_6 1_555 1_555
C20_6 C19_6 1_555 1_555
C21_6 C20_6 1_555 1_555
C22_6 C21_6 1_555 1_555
C26_6 C21_6 1_555 1_555
F8_6 C26_6 1_555 1_555
C17_6 C18_6 1_555 1_555
C25_6 C26_6 1_555 1_555
Cu3_2 N1_6 1_555 1_555
N1_6 C1_6 1_555 1_555
C1_6 H1_6 1_555 1_555
C2_6 C1_6 1_555 1_555
H2_6 C2_6 1_555 1_555
C3_6 C2_6 1_555 1_555
C4_6 C3_6 1_555 1_555
H3_6 C4_6 1_555 1_555
C5_6 N1_6 1_555 1_555
H4_6 C5_6 1_555 1_555
C6_6 C3_6 1_555 1_555
C4_6 C5_6 1_555 1_555
Cu1_2 N1_7 1_555 1_555
N1_7 C1_7 1_555 1_555
N2_4 C14_7 1_555 1_555
N4_4 C40_7 1_555 1_555
C1_7 H1_7 1_555 1_555
C2_7 C1_7 1_555 1_555
H2_7 C2_7 1_555 1_555
C3_7 C2_7 1_555 1_555
C4_7 C3_7 1_555 1_555
H3_7 C4_7 1_555 1_555
C5_7 N1_7 1_555 1_555
H4_7 C5_7 1_555 1_555
C6_7 C3_7 1_555 1_555
C7_7 C6_7 1_555 1_555
C8_7 C7_7 1_555 1_555
C9_7 C8_7 1_555 1_555
C10_7 C9_7 1_555 1_555
C11_7 C10_7 1_555 1_555
C12_7 C11_7 1_555 1_555
C13_7 C8_7 1_555 1_555
C14_7 H5_7 1_555 1_555
C15_7 C14_7 1_555 1_555
H6_7 C15_7 1_555 1_555
C16_7 C15_7 1_555 1_555
C17_7 C16_7 1_555 1_555
H7_7 C17_7 1_555 1_555
C18_7 N2_4 1_555 1_555
H8_7 C18_7 1_555 1_555
C19_7 C16_7 1_555 1_555
C20_7 C19_7 1_555 1_555
C21_7 C20_7 1_555 1_555
C22_7 C21_7 1_555 1_555
C23_4 C22_7 1_555 1_555
C24_7 C23_4 1_555 1_555
C25_7 C24_7 1_555 1_555
C26_7 C21_7 1_555 1_555
C34_7 C33_7 1_555 1_555
C35_7 C34_7 1_555 1_555
C36_7 C35_7 1_555 1_555
C37_7 C36_7 1_555 1_555
C38_7 C37_7 1_555 1_555
C39_7 C34_7 1_555 1_555
C41_7 C40_7 1_555 1_555
H14_7 C41_7 1_555 1_555
C42_7 C41_7 1_555 1_555
C43_7 C42_7 1_555 1_555
H15_7 C43_7 1_555 1_555
C44_7 N4_4 1_555 1_555
H16_7 C44_7 1_555 1_555
C45_7 C42_7 1_555 1_555
C46_7 C45_7 1_555 1_555
C47_7 C46_7 1_555 1_555
C48_7 C47_7 1_555 1_555
C49_7 C48_7 1_555 1_555
C50_7 C49_7 1_555 1_555
C51_7 C50_7 1_555 1_555
C52_7 C47_7 1_555 1_555
F1_7 C9_7 1_555 1_555
F2_7 C10_7 1_555 1_555
F3_7 C12_7 1_555 1_555
F4_7 C13_7 1_555 1_555
F5_4 C22_7 1_555 1_555
F6_4 C23_4 1_555 1_555
F7_7 C25_7 1_555 1_555
F8_7 C26_7 1_555 1_555
F9_7 C35_7 1_555 1_555
F10_7 C36_7 1_555 1_555
F11_7 C38_7 1_555 1_555
F12_7 C39_7 1_555 1_555
F13_7 C48_7 1_555 1_555
F14_7 C49_7 1_555 1_555
F15_7 C51_7 1_555 1_555
F16_7 C52_7 1_555 1_555
B1_7 C11_7 1_555 1_555
Cu4_2 N2_4 1_555 1_555
N5_4 Cu1_2 1_555 1_555
N6_3 Cu1_2 1_555 1_555
N7_4 Cu1_2 1_555 1_555
C4_7 C5_7 1_555 1_555
C12_7 C13_7 1_555 1_555
C17_7 C18_7 1_555 1_555
C24_7 B1_7 1_555 1_555
C25_7 C26_7 1_555 1_555
C37_7 B1_7 1_555 1_555
C38_7 C39_7 1_555 1_555
C43_7 C44_7 1_555 1_555
C50_7 B1_7 1_555 1_555
C51_7 C52_7 1_555 1_555
N6_3 C27_7 1_555 1_555
C27_7 H9_7 1_555 1_555
C28_7 C27_7 1_555 1_555
H10_7 C28_7 1_555 1_555
C29_7 C28_7 1_555 1_555
C30_7 C29_7 1_555 1_555
H11_7 C30_7 1_555 1_555
C31_7 N6_3 1_555 1_555
H12_7 C31_7 1_555 1_555
C32_7 C29_7 1_555 1_555
C30_7 C31_7 1_555 1_555
Cu4_2 N1_8 1_555 1_555
N1_8 C1_8 1_555 1_555
C1_8 H1_8 1_555 1_555
C2_8 C1_8 1_555 1_555
H2_8 C2_8 1_555 1_555
C3_8 C2_8 1_555 1_555
C4_8 C3_8 1_555 1_555
H3_8 C4_8 1_555 1_555
C5_8 N1_8 1_555 1_555
H4_8 C5_8 1_555 1_555
C6_8 C3_8 1_555 1_555
N6_4 Cu4_2 1_555 1_555
C4_8 C5_8 1_555 1_555
N5_4 C14_8 1_555 1_555
C14_8 H5_8 1_555 1_555
C15_8 C14_8 1_555 1_555
H6_8 C15_8 1_555 1_555
C16_8 C15_8 1_555 1_555
C17_8 C16_8 1_555 1_555
H7_8 C17_8 1_555 1_555
C18_8 N5_4 1_555 1_555
H8_8 C18_8 1_555 1_555
C19_8 C16_8 1_555 1_555
C20_8 C19_8 1_555 1_555
C21_8 C20_8 1_555 1_555
C22_8 C21_8 1_555 1_555
C26_8 C21_8 1_555 1_555
F8_8 C26_8 1_555 1_555
C17_8 C18_8 1_555 1_555
C25_8 C26_8 1_555 1_555
N7_4 C40_8 1_555 1_555
C40_8 H13_8 1_555 1_555
C41_8 C40_8 1_555 1_555
H14_8 C41_8 1_555 1_555
C42_8 C41_8 1_555 1_555
C43_8 C42_8 1_555 1_555
H15_8 C43_8 1_555 1_555
C44_8 N7_4 1_555 1_555
H16_8 C44_8 1_555 1_555
C45_8 C42_8 1_555 1_555
C46_8 C45_8 1_555 1_555
C47_8 C46_8 1_555 1_555
C48_8 C47_8 1_555 1_555
C49_8 C48_8 1_555 1_555
C50_8 C49_8 1_555 1_555
C51_8 C50_8 1_555 1_555
C52_8 C47_8 1_555 1_555
F13_8 C48_8 1_555 1_555
F14_8 C49_8 1_555 1_555
F16_8 C52_8 1_555 1_555
C43_8 C44_8 1_555 1_555
C51_8 C52_8 1_555 1_555
N6_4 C27_8 1_555 1_555
C8_8 C7_8 1_555 1_555
C9_8 C8_8 1_555 1_555
C10_8 C9_8 1_555 1_555
C11_8 C10_8 1_555 1_555
C12_8 C11_8 1_555 1_555
C13_8 C8_8 1_555 1_555
C27_8 H9_8 1_555 1_555
C28_8 C27_8 1_555 1_555
H10_8 C28_8 1_555 1_555
C29_8 C28_8 1_555 1_555
C30_8 C29_8 1_555 1_555
H11_8 C30_8 1_555 1_555
C31_8 N6_4 1_555 1_555
H12_8 C31_8 1_555 1_555
C32_8 C29_8 1_555 1_555
C33_8 C32_8 1_555 1_555
C34_8 C33_8 1_555 1_555
C35_8 C34_8 1_555 1_555
C36_8 C35_8 1_555 1_555
C37_8 C36_8 1_555 1_555
C38_8 C37_8 1_555 1_555
C39_8 C34_8 1_555 1_555
F1_8 C9_8 1_555 1_555
F2_8 C10_8 1_555 1_555
F4_8 C13_8 1_555 1_555
F9_8 C35_8 1_555 1_555
F10_8 C36_8 1_555 1_555
F12_8 C39_8 1_555 1_555
B1_8 C11_8 1_555 1_555
C12_8 C13_8 1_555 1_555
C30_8 C31_8 1_555 1_555
C37_8 B1_8 1_555 1_555
C38_8 C39_8 1_555 1_555
F6_5 C23_5 1_555 1_555
F6_6 C23_6 1_555 1_555
F6_7 C23_7 1_555 1_555
F6_8 C23_8 1_555 1_555

#END
