
###############################################################################
#
# This file contains modified crystal structure data generated from the
# MOF subset of the Cambridge Structural Database (CSD) v543 
# hosted by the Cambridge Crystallographic Data Centre (CCDC).
#
# This work is licensed under the Creative Commons
# Attribution-NonCommercial-ShareAlike 4.0 International License.
# To view a copy of this license, visit
# http://creativecommons.org/licenses/by-nc-sa/4.0/
# or send a letter to
# Creative Commons, PO Box 1866, Mountain View, CA 94042, USA.
#
# CIF created using the CSD Python API on 29 September 2022
# The structure has been converted into the P1 space group
# The structure has a 3D framework
# The original CSD entry WIMNUD is in the monoclinic crystal system
# The framework has been calculated to contain at least 10.0% void space
# The void calculation uses a probe of radius 1.32A, grid spacing 0.4
#
###############################################################################

data_WIMNUD
_chemical_formula_moiety         '(C256 H272 Cl32 Hg16 N16 S32)n'
_symmetry_cell_setting           triclinic
_symmetry_space_group_name_H-M   'P 1'
_symmetry_Int_Tables_number      1
_space_group_name_Hall           'P 1'
loop_
_symmetry_equiv_pos_site_id
_symmetry_equiv_pos_as_xyz
1 x,y,z
_cell_length_a                   26.2190(7)
_cell_length_b                   14.3442(3)
_cell_length_c                   23.7863(7)
_cell_angle_alpha                90
_cell_angle_beta                 102.167(2)
_cell_angle_gamma                90
_cell_volume                     8744.86
loop_
_atom_site_label
_atom_site_type_symbol
_atom_site_fract_x
_atom_site_fract_y
_atom_site_fract_z
Hg1 Hg 0.660848(9) 0.024940(16) 0.086030(10)
Cl1 Cl 0.71177(9) 0.0831(2) 0.17160(8)
Cl3 Cl 0.71073(4) 0.14892(8) 0.02142(5)
C7 C 0.5220(2) 0.0090(3) 0.0697(2)
C8 C 0.5363(2) 0.1091(3) 0.0625(2)
N1 N 0.58727(18) 0.1316(3) 0.0739(2)
C9 C 0.6001(2) 0.2209(4) 0.0687(3)
H5 H 0.6360 0.2371 0.0765
C10 C 0.5639(3) 0.2907(4) 0.0525(3)
H6 H 0.5745 0.3536 0.0499
C11 C 0.5123(3) 0.2669(4) 0.0404(3)
H7 H 0.4864 0.3132 0.0284
C12 C 0.4981(2) 0.1760(4) 0.0457(3)
H8 H 0.4623 0.1590 0.0380
C20 C 0.37866(17) 0.0210(3) 0.2441(2)
H18 H 0.3721 0.0532 0.2768
C21 C 0.38557(18) 0.0727(3) 0.1965(2)
C22 C 0.39649(18) 0.0228(3) 0.1499(2)
H19 H 0.4025 0.0557 0.1173
C29 C 0.3831(3) 0.1791(4) 0.1976(3)
C30 C 0.3246(5) 0.2053(7) 0.1914(7)
H26 H 0.3101 0.1716 0.2203
H27 H 0.3053 0.1882 0.1528
H28 H 0.3215 0.2726 0.1971
C31 C 0.4017(5) 0.2225(5) 0.1481(5)
H29 H 0.4023 0.2905 0.1522
H30 H 0.3781 0.2053 0.1119
H31 H 0.4370 0.2001 0.1477
C32 C 0.4123(8) 0.2160(6) 0.2541(5)
H32 H 0.4495 0.2018 0.2585
H33 H 0.3991 0.1866 0.2854
H34 H 0.4075 0.2836 0.2554
C39 C 0.4780(2) 0.0090(3) 0.4303(2)
C40 C 0.4637(2) 0.1091(3) 0.4375(2)
N3 N 0.41273(18) 0.1316(3) 0.4261(2)
C41 C 0.3999(2) 0.2209(4) 0.4313(3)
H39 H 0.3640 0.2371 0.4235
C42 C 0.4361(3) 0.2907(4) 0.4475(3)
H40 H 0.4255 0.3536 0.4501
C43 C 0.4877(3) 0.2669(4) 0.4596(3)
H41 H 0.5136 0.3132 0.4716
C44 C 0.5019(2) 0.1760(4) 0.4543(3)
H42 H 0.5377 0.1590 0.4620
C52 C 0.62134(17) 0.0210(3) 0.2559(2)
H52 H 0.6279 0.0532 0.2232
C53 C 0.61443(18) 0.0727(3) 0.3035(2)
C54 C 0.60351(18) 0.0228(3) 0.3501(2)
H53 H 0.5975 0.0557 0.3827
C61 C 0.6169(3) 0.1791(4) 0.3024(3)
C62 C 0.6754(5) 0.2053(7) 0.3086(7)
H60 H 0.6899 0.1716 0.2797
H61 H 0.6947 0.1882 0.3472
H62 H 0.6785 0.2726 0.3029
C63 C 0.5983(5) 0.2225(5) 0.3519(5)
H63 H 0.5977 0.2905 0.3478
H64 H 0.6219 0.2053 0.3881
H65 H 0.5630 0.2001 0.3523
C64 C 0.5877(8) 0.2160(6) 0.2459(5)
H66 H 0.5505 0.2018 0.2415
H67 H 0.6009 0.1866 0.2146
H68 H 0.5925 0.2836 0.2446
Hg3 Hg 0.339152(9) 0.024940(16) 0.413970(10)
Hg4 Hg 0.316368(8) 0.261413(14) 0.567618(8)
Cl5 Cl 0.28823(9) 0.0831(2) 0.32840(8)
Cl7 Cl 0.28927(4) 0.14892(8) 0.47858(5)
Cl8 Cl 0.35617(4) 0.39206(9) 0.53682(6)
Hg7 Hg 0.816368(8) 0.238587(14) 0.067618(8)
Hg8 Hg 0.183632(8) 0.238587(14) 0.432382(8)
Cl10 Cl 0.21073(4) 0.35108(8) 0.52142(5)
S10 S 0.41488(4) 0.12810(7) 0.58888(4)
S12 S 0.38491(4) 0.24927(7) 0.69194(5)
N6 N 0.27306(14) 0.1848(3) 0.62201(17)
Hg2 Hg 0.683632(8) 0.261413(14) 0.932382(8)
Cl4 Cl 0.64383(4) 0.39206(9) 0.96318(6)
Cl9 Cl 0.78927(4) 0.35108(8) 0.97858(5)
S9 S 0.58512(4) 0.12810(7) 0.91112(4)
S11 S 0.61509(4) 0.24927(7) 0.80806(5)
N5 N 0.72694(14) 0.1848(3) 0.87799(17)
Cl2 Cl 0.63548(6) 0.91000(10) 0.01583(7)
S1 S 0.62768(4) 0.86869(8) 0.19016(5)
C1 C 0.56607(15) 0.8132(3) 0.16475(18)
C2 C 0.52095(16) 0.8649(3) 0.14300(17)
C3 C 0.47508(16) 0.8145(3) 0.11986(18)
C4 C 0.47558(16) 0.7177(3) 0.11707(19)
H1 H 0.4445 0.6856 0.1000
C5 C 0.52111(16) 0.6663(3) 0.13889(19)
C6 C 0.56575(16) 0.7156(3) 0.16257(19)
H2 H 0.5970 0.6824 0.1777
S2 S 0.52267(4) 0.98791(7) 0.14480(5)
H3 H 0.5472 0.9673 0.0566
H4 H 0.4868 0.9961 0.0462
C13 C 0.51909(18) 0.5601(3) 0.1356(2)
C14 C 0.5084(3) 0.5307(4) 0.0724(3)
H9 H 0.4749 0.5566 0.0524
H10 H 0.5071 0.4625 0.0698
H11 H 0.5363 0.5541 0.0545
C15 C 0.4751(2) 0.5239(4) 0.1631(3)
H12 H 0.4798 0.5479 0.2024
H13 H 0.4758 0.4556 0.1640
H14 H 0.4414 0.5451 0.1405
C16 C 0.5702(2) 0.5152(4) 0.1670(3)
H15 H 0.5988 0.5355 0.1491
H16 H 0.5670 0.4472 0.1646
H17 H 0.5776 0.5342 0.2075
S3 S 0.41488(4) 0.87190(7) 0.08888(4)
C17 C 0.39872(15) 0.9257(3) 0.15045(18)
C18 C 0.38864(14) 0.8741(3) 0.19711(17)
C19 C 0.38097(15) 0.9244(3) 0.24552(18)
S4 S 0.38491(4) 0.75073(7) 0.19194(5)
C23 C 0.31975(17) 0.7265(3) 0.2048(2)
H20 H 0.3085 0.6642 0.1890
H21 H 0.3217 0.7244 0.2468
C24 C 0.27958(16) 0.7966(3) 0.1787(2)
N2 N 0.27306(14) 0.8152(3) 0.12201(17)
C25 C 0.2370(2) 0.8774(4) 0.0975(2)
H22 H 0.2330 0.8903 0.0576
C26 C 0.2057(2) 0.9227(5) 0.1280(3)
H23 H 0.1801 0.9658 0.1095
C27 C 0.2119(2) 0.9051(5) 0.1859(3)
H24 H 0.1907 0.9358 0.2080
C28 C 0.24971(19) 0.8416(4) 0.2113(2)
H25 H 0.2549 0.8291 0.2514
S5 S 0.37232(4) 0.86869(8) 0.30984(5)
C33 C 0.43393(15) 0.8132(3) 0.33525(18)
C34 C 0.47905(16) 0.8649(3) 0.35700(17)
C35 C 0.52492(16) 0.8145(3) 0.38014(18)
C36 C 0.52442(16) 0.7177(3) 0.38293(19)
H35 H 0.5555 0.6856 0.4000
C37 C 0.47889(16) 0.6663(3) 0.36111(19)
C38 C 0.43425(16) 0.7156(3) 0.33743(19)
H36 H 0.4030 0.6824 0.3223
S6 S 0.47733(4) 0.98791(7) 0.35520(5)
H37 H 0.4528 0.9673 0.4434
H38 H 0.5132 0.9961 0.4538
C45 C 0.48091(18) 0.5601(3) 0.3644(2)
C46 C 0.4916(3) 0.5307(4) 0.4276(3)
H43 H 0.5251 0.5566 0.4476
H44 H 0.4929 0.4625 0.4302
H45 H 0.4637 0.5541 0.4455
C47 C 0.5249(2) 0.5239(4) 0.3369(3)
H46 H 0.5202 0.5479 0.2976
H47 H 0.5242 0.4556 0.3360
H48 H 0.5586 0.5451 0.3595
C48 C 0.4298(2) 0.5152(4) 0.3330(3)
H49 H 0.4012 0.5355 0.3509
H50 H 0.4330 0.4472 0.3354
H51 H 0.4224 0.5342 0.2925
S7 S 0.58512(4) 0.87190(7) 0.41112(4)
C49 C 0.60128(15) 0.9257(3) 0.34955(18)
C50 C 0.61136(14) 0.8741(3) 0.30289(17)
C51 C 0.61903(15) 0.9244(3) 0.25448(18)
S8 S 0.61509(4) 0.75073(7) 0.30806(5)
C55 C 0.68025(17) 0.7265(3) 0.2952(2)
H54 H 0.6915 0.6642 0.3110
H55 H 0.6783 0.7244 0.2532
C56 C 0.72042(16) 0.7966(3) 0.3213(2)
N4 N 0.72694(14) 0.8152(3) 0.37799(17)
C57 C 0.7630(2) 0.8774(4) 0.4025(2)
H56 H 0.7670 0.8903 0.4424
C58 C 0.7943(2) 0.9227(5) 0.3720(3)
H57 H 0.8199 0.9658 0.3905
C59 C 0.7881(2) 0.9051(5) 0.3141(3)
H58 H 0.8093 0.9358 0.2920
C60 C 0.75029(19) 0.8416(4) 0.2887(2)
H59 H 0.7451 0.8291 0.2486
Cl6 Cl 0.36452(6) 0.91000(10) 0.48417(7)
Hg5 Hg 0.316368(8) 0.738587(14) 0.067618(8)
Hg6 Hg 0.683632(8) 0.738587(14) 0.432382(8)
Hg1_2 Hg 0.160848(9) 0.524940(16) 0.086030(10)
Cl1_2 Cl 0.21177(9) 0.5831(2) 0.17160(8)
Cl2_2 Cl 0.13548(6) 0.41000(10) 0.01583(7)
Cl3_2 Cl 0.21073(4) 0.64892(8) 0.02142(5)
S1_2 S 0.12768(4) 0.36869(8) 0.19016(5)
C1_2 C 0.06607(15) 0.3132(3) 0.16475(18)
C2_2 C 0.02095(16) 0.3649(3) 0.14300(17)
C5_2 C 0.02111(16) 0.1663(3) 0.13889(19)
C6_2 C 0.06575(16) 0.2156(3) 0.16257(19)
H2_2 H 0.0970 0.1824 0.1777
S2_2 S 0.02267(4) 0.48791(7) 0.14480(5)
C7_2 C 0.0220(2) 0.5090(3) 0.0697(2)
H3_2 H 0.0472 0.4673 0.0566
C8_2 C 0.0363(2) 0.6091(3) 0.0625(2)
N1_2 N 0.08727(18) 0.6316(3) 0.0739(2)
C9_2 C 0.1001(2) 0.7209(4) 0.0687(3)
H5_2 H 0.1360 0.7371 0.0765
C10_2 C 0.0639(3) 0.7907(4) 0.0525(3)
H6_2 H 0.0745 0.8536 0.0499
C11_2 C 0.0123(3) 0.7669(4) 0.0404(3)
C13_2 C 0.01909(18) 0.0601(3) 0.1356(2)
C14_2 C 0.0084(3) 0.0307(4) 0.0724(3)
H11_2 H 0.0363 0.0541 0.0545
C16_2 C 0.0702(2) 0.0152(4) 0.1670(3)
H15_2 H 0.0988 0.0355 0.1491
H17_2 H 0.0776 0.0342 0.2075
C35_2 C 0.02492(16) 0.3145(3) 0.38014(18)
C36_2 C 0.02442(16) 0.2177(3) 0.38293(19)
H35_2 H 0.0555 0.1856 0.4000
H38_2 H 0.0132 0.4961 0.4538
H41_2 H 0.0136 0.8132 0.4716
C44_2 C 0.0019(2) 0.6760(4) 0.4543(3)
H42_2 H 0.0377 0.6590 0.4620
H43_2 H 0.0251 0.0566 0.4476
C47_2 C 0.0249(2) 0.0239(4) 0.3369(3)
H46_2 H 0.0202 0.0479 0.2976
H48_2 H 0.0586 0.0451 0.3595
S7_2 S 0.08512(4) 0.37190(7) 0.41112(4)
C49_2 C 0.10128(15) 0.4257(3) 0.34955(18)
C50_2 C 0.11136(14) 0.3741(3) 0.30289(17)
C51_2 C 0.11903(15) 0.4244(3) 0.25448(18)
C52_2 C 0.12134(17) 0.5210(3) 0.2559(2)
H52_2 H 0.1279 0.5532 0.2232
C53_2 C 0.11443(18) 0.5727(3) 0.3035(2)
C54_2 C 0.10351(18) 0.5228(3) 0.3501(2)
H53_2 H 0.0975 0.5557 0.3827
S8_2 S 0.11509(4) 0.25073(7) 0.30806(5)
C55_2 C 0.18025(17) 0.2265(3) 0.2952(2)
H54_2 H 0.1915 0.1642 0.3110
H55_2 H 0.1783 0.2244 0.2532
C56_2 C 0.22042(16) 0.2966(3) 0.3213(2)
N4_2 N 0.22694(14) 0.3152(3) 0.37799(17)
C57_2 C 0.2630(2) 0.3774(4) 0.4025(2)
H56_2 H 0.2670 0.3903 0.4424
C58_2 C 0.2943(2) 0.4227(5) 0.3720(3)
H57_2 H 0.3199 0.4658 0.3905
C59_2 C 0.2881(2) 0.4051(5) 0.3141(3)
H58_2 H 0.3093 0.4358 0.2920
C60_2 C 0.25029(19) 0.3416(4) 0.2887(2)
H59_2 H 0.2451 0.3291 0.2486
C61_2 C 0.1169(3) 0.6791(4) 0.3024(3)
C62_2 C 0.1754(5) 0.7053(7) 0.3086(7)
H60_2 H 0.1899 0.6716 0.2797
H61_2 H 0.1947 0.6882 0.3472
H62_2 H 0.1785 0.7726 0.3029
C63_2 C 0.0983(5) 0.7225(5) 0.3519(5)
H63_2 H 0.0977 0.7905 0.3478
H64_2 H 0.1219 0.7053 0.3881
H65_2 H 0.0630 0.7001 0.3523
C64_2 C 0.0877(8) 0.7160(6) 0.2459(5)
H66_2 H 0.0505 0.7018 0.2415
H67_2 H 0.1009 0.6866 0.2146
H68_2 H 0.0925 0.7836 0.2446
Hg2_2 Hg 0.183632(8) 0.761413(14) 0.932382(8)
Cl4_2 Cl 0.14383(4) 0.89206(9) 0.96318(6)
Cl9_2 Cl 0.28927(4) 0.85108(8) 0.97858(5)
S9_2 S 0.08512(4) 0.62810(7) 0.91112(4)
S11_2 S 0.11509(4) 0.74927(7) 0.80806(5)
N5_2 N 0.22694(14) 0.6848(3) 0.87799(17)
C3_2 C 0.97508(16) 0.3145(3) 0.11986(18)
C4_2 C 0.97558(16) 0.2177(3) 0.11707(19)
H1_2 H 0.9445 0.1856 0.1000
H4_2 H 0.9868 0.4961 0.0462
H7_2 H 0.9864 0.8132 0.0284
C12_2 C 0.9981(2) 0.6760(4) 0.0457(3)
H8_2 H 0.9623 0.6590 0.0380
H9_2 H 0.9749 0.0566 0.0524
C15_2 C 0.9751(2) 0.0239(4) 0.1631(3)
H12_2 H 0.9798 0.0479 0.2024
H14_2 H 0.9414 0.0451 0.1405
S3_2 S 0.91488(4) 0.37190(7) 0.08888(4)
C17_2 C 0.89872(15) 0.4257(3) 0.15045(18)
C18_2 C 0.88864(14) 0.3741(3) 0.19711(17)
C19_2 C 0.88097(15) 0.4244(3) 0.24552(18)
C20_2 C 0.87866(17) 0.5210(3) 0.2441(2)
H18_2 H 0.8721 0.5532 0.2768
C21_2 C 0.88557(18) 0.5727(3) 0.1965(2)
C22_2 C 0.89649(18) 0.5228(3) 0.1499(2)
H19_2 H 0.9025 0.5557 0.1173
S4_2 S 0.88491(4) 0.25073(7) 0.19194(5)
C23_2 C 0.81975(17) 0.2265(3) 0.2048(2)
H20_2 H 0.8085 0.1642 0.1890
H21_2 H 0.8217 0.2244 0.2468
C24_2 C 0.77958(16) 0.2966(3) 0.1787(2)
N2_2 N 0.77306(14) 0.3152(3) 0.12201(17)
C25_2 C 0.7370(2) 0.3774(4) 0.0975(2)
H22_2 H 0.7330 0.3903 0.0576
C26_2 C 0.7057(2) 0.4227(5) 0.1280(3)
H23_2 H 0.6801 0.4658 0.1095
C27_2 C 0.7119(2) 0.4051(5) 0.1859(3)
H24_2 H 0.6907 0.4358 0.2080
C28_2 C 0.74971(19) 0.3416(4) 0.2113(2)
H25_2 H 0.7549 0.3291 0.2514
C29_2 C 0.8831(3) 0.6791(4) 0.1976(3)
C30_2 C 0.8246(5) 0.7053(7) 0.1914(7)
H26_2 H 0.8101 0.6716 0.2203
H27_2 H 0.8053 0.6882 0.1528
H28_2 H 0.8215 0.7726 0.1971
C31_2 C 0.9017(5) 0.7225(5) 0.1481(5)
H29_2 H 0.9023 0.7905 0.1522
H30_2 H 0.8781 0.7053 0.1119
H31_2 H 0.9370 0.7001 0.1477
C32_2 C 0.9123(8) 0.7160(6) 0.2541(5)
H32_2 H 0.9495 0.7018 0.2585
H33_2 H 0.8991 0.6866 0.2854
H34_2 H 0.9075 0.7836 0.2554
S5_2 S 0.87232(4) 0.36869(8) 0.30984(5)
C33_2 C 0.93393(15) 0.3132(3) 0.33525(18)
C34_2 C 0.97905(16) 0.3649(3) 0.35700(17)
C37_2 C 0.97889(16) 0.1663(3) 0.36111(19)
C38_2 C 0.93425(16) 0.2156(3) 0.33743(19)
H36_2 H 0.9030 0.1824 0.3223
S6_2 S 0.97733(4) 0.48791(7) 0.35520(5)
C39_2 C 0.9780(2) 0.5090(3) 0.4303(2)
H37_2 H 0.9528 0.4673 0.4434
C40_2 C 0.9637(2) 0.6091(3) 0.4375(2)
N3_2 N 0.91273(18) 0.6316(3) 0.4261(2)
C41_2 C 0.8999(2) 0.7209(4) 0.4313(3)
H39_2 H 0.8640 0.7371 0.4235
C42_2 C 0.9361(3) 0.7907(4) 0.4475(3)
H40_2 H 0.9255 0.8536 0.4501
C43_2 C 0.9877(3) 0.7669(4) 0.4596(3)
C45_2 C 0.98091(18) 0.0601(3) 0.3644(2)
C46_2 C 0.9916(3) 0.0307(4) 0.4276(3)
H45_2 H 0.9637 0.0541 0.4455
C48_2 C 0.9298(2) 0.0152(4) 0.3330(3)
H49_2 H 0.9012 0.0355 0.3509
H51_2 H 0.9224 0.0342 0.2925
Hg3_2 Hg 0.839152(9) 0.524940(16) 0.413970(10)
Hg4_2 Hg 0.816368(8) 0.761413(14) 0.567618(8)
Cl5_2 Cl 0.78823(9) 0.5831(2) 0.32840(8)
Cl6_2 Cl 0.86452(6) 0.41000(10) 0.48417(7)
Cl7_2 Cl 0.78927(4) 0.64892(8) 0.47858(5)
Cl8_2 Cl 0.85617(4) 0.89206(9) 0.53682(6)
Cl10_2 Cl 0.71073(4) 0.85108(8) 0.52142(5)
S10_2 S 0.91488(4) 0.62810(7) 0.58888(4)
S12_2 S 0.88491(4) 0.74927(7) 0.69194(5)
N6_2 N 0.77306(14) 0.6848(3) 0.62201(17)
Cl2_3 Cl 0.36452(6) 0.09000(10) 0.98417(7)
S1_3 S 0.37232(4) 0.13131(8) 0.80984(5)
C1_3 C 0.43393(15) 0.1868(3) 0.83525(18)
C2_3 C 0.47905(16) 0.1351(3) 0.85700(17)
C3_3 C 0.52492(16) 0.1855(3) 0.88014(18)
C4_3 C 0.52442(16) 0.2823(3) 0.88293(19)
H1_3 H 0.5555 0.3144 0.9000
C5_3 C 0.47889(16) 0.3337(3) 0.86111(19)
C6_3 C 0.43425(16) 0.2844(3) 0.83743(19)
H2_3 H 0.4030 0.3176 0.8223
S2_3 S 0.47733(4) 0.01209(7) 0.85520(5)
H3_3 H 0.4528 0.0327 0.9434
H4_3 H 0.5132 0.0039 0.9538
C13_3 C 0.48091(18) 0.4399(3) 0.8644(2)
C14_3 C 0.4916(3) 0.4693(4) 0.9276(3)
H9_3 H 0.5251 0.4434 0.9476
H10_2 H 0.4929 0.5375 0.9302
H11_3 H 0.4637 0.4459 0.9455
C15_3 C 0.5249(2) 0.4761(4) 0.8369(3)
H12_3 H 0.5202 0.4521 0.7976
H13_2 H 0.5242 0.5444 0.8360
H14_3 H 0.5586 0.4549 0.8595
C16_3 C 0.4298(2) 0.4848(4) 0.8330(3)
H15_3 H 0.4012 0.4645 0.8509
H16_2 H 0.4330 0.5528 0.8354
H17_3 H 0.4224 0.4658 0.7925
C17_3 C 0.60128(15) 0.0743(3) 0.84955(18)
C18_3 C 0.61136(14) 0.1259(3) 0.80289(17)
C19_3 C 0.61903(15) 0.0756(3) 0.75448(18)
C23_3 C 0.68025(17) 0.2735(3) 0.7952(2)
H20_3 H 0.6915 0.3358 0.8110
H21_3 H 0.6783 0.2756 0.7532
C24_3 C 0.72042(16) 0.2034(3) 0.8213(2)
C25_3 C 0.7630(2) 0.1226(4) 0.9025(2)
H22_3 H 0.7670 0.1097 0.9424
C26_3 C 0.7943(2) 0.0773(5) 0.8720(3)
H23_3 H 0.8199 0.0342 0.8905
C27_3 C 0.7881(2) 0.0949(5) 0.8141(3)
H24_3 H 0.8093 0.0642 0.7920
C28_3 C 0.75029(19) 0.1584(4) 0.7887(2)
H25_3 H 0.7451 0.1709 0.7486
S5_3 S 0.62768(4) 0.13131(8) 0.69016(5)
C33_3 C 0.56607(15) 0.1868(3) 0.66475(18)
C34_3 C 0.52095(16) 0.1351(3) 0.64300(17)
C35_3 C 0.47508(16) 0.1855(3) 0.61986(18)
C36_3 C 0.47558(16) 0.2823(3) 0.61707(19)
H35_3 H 0.4445 0.3144 0.6000
C37_3 C 0.52111(16) 0.3337(3) 0.63889(19)
C38_3 C 0.56575(16) 0.2844(3) 0.66257(19)
H36_3 H 0.5970 0.3176 0.6777
S6_3 S 0.52267(4) 0.01209(7) 0.64480(5)
H37_3 H 0.5472 0.0327 0.5566
H38_3 H 0.4868 0.0039 0.5462
C45_3 C 0.51909(18) 0.4399(3) 0.6356(2)
C46_3 C 0.5084(3) 0.4693(4) 0.5724(3)
H43_3 H 0.4749 0.4434 0.5524
H44_2 H 0.5071 0.5375 0.5698
H45_3 H 0.5363 0.4459 0.5545
C47_3 C 0.4751(2) 0.4761(4) 0.6631(3)
H46_3 H 0.4798 0.4521 0.7024
H47_2 H 0.4758 0.5444 0.6640
H48_3 H 0.4414 0.4549 0.6405
C48_3 C 0.5702(2) 0.4848(4) 0.6670(3)
H49_3 H 0.5988 0.4645 0.6491
H50_2 H 0.5670 0.5528 0.6646
H51_3 H 0.5776 0.4658 0.7075
C49_3 C 0.39872(15) 0.0743(3) 0.65045(18)
C50_3 C 0.38864(14) 0.1259(3) 0.69711(17)
C51_3 C 0.38097(15) 0.0756(3) 0.74552(18)
C55_3 C 0.31975(17) 0.2735(3) 0.7048(2)
H54_3 H 0.3085 0.3358 0.6890
H55_3 H 0.3217 0.2756 0.7468
C56_3 C 0.27958(16) 0.2034(3) 0.6787(2)
C57_3 C 0.2370(2) 0.1226(4) 0.5975(2)
H56_3 H 0.2330 0.1097 0.5576
C58_3 C 0.2057(2) 0.0773(5) 0.6280(3)
H57_3 H 0.1801 0.0342 0.6095
C59_3 C 0.2119(2) 0.0949(5) 0.6859(3)
H58_3 H 0.1907 0.0642 0.7080
C60_3 C 0.24971(19) 0.1584(4) 0.7113(2)
H59_3 H 0.2549 0.1709 0.7514
Cl6_3 Cl 0.63548(6) 0.09000(10) 0.51583(7)
Cl4_3 Cl 0.35617(4) 0.60794(9) 0.03682(6)
Hg1_3 Hg 0.339152(9) 0.975060(16) 0.913970(10)
Cl1_3 Cl 0.28823(9) 0.9169(2) 0.82840(8)
C7_3 C 0.4780(2) 0.9910(3) 0.9303(2)
C8_3 C 0.4637(2) 0.8909(3) 0.9375(2)
N1_3 N 0.41273(18) 0.8684(3) 0.9261(2)
C9_3 C 0.3999(2) 0.7791(4) 0.9313(3)
H5_3 H 0.3640 0.7629 0.9235
C10_3 C 0.4361(3) 0.7093(4) 0.9475(3)
H6_3 H 0.4255 0.6464 0.9501
C11_3 C 0.4877(3) 0.7331(4) 0.9596(3)
H7_3 H 0.5136 0.6868 0.9716
C12_3 C 0.5019(2) 0.8240(4) 0.9543(3)
H8_3 H 0.5377 0.8410 0.9620
C20_3 C 0.62134(17) 0.9790(3) 0.7559(2)
H18_3 H 0.6279 0.9468 0.7232
C21_3 C 0.61443(18) 0.9273(3) 0.8035(2)
C22_3 C 0.60351(18) 0.9772(3) 0.8501(2)
H19_3 H 0.5975 0.9443 0.8827
C29_3 C 0.6169(3) 0.8209(4) 0.8024(3)
C30_3 C 0.6754(5) 0.7947(7) 0.8086(7)
H26_3 H 0.6899 0.8284 0.7797
H27_3 H 0.6947 0.8118 0.8472
H28_3 H 0.6785 0.7274 0.8029
C31_3 C 0.5983(5) 0.7775(5) 0.8519(5)
H29_3 H 0.5977 0.7095 0.8478
H30_3 H 0.6219 0.7947 0.8881
H31_3 H 0.5630 0.7999 0.8523
C32_3 C 0.5877(8) 0.7840(6) 0.7459(5)
H32_3 H 0.5505 0.7982 0.7415
H33_3 H 0.6009 0.8134 0.7146
H34_3 H 0.5925 0.7164 0.7446
C39_3 C 0.5220(2) 0.9910(3) 0.5697(2)
C40_3 C 0.5363(2) 0.8909(3) 0.5625(2)
N3_3 N 0.58727(18) 0.8684(3) 0.5739(2)
C41_3 C 0.6001(2) 0.7791(4) 0.5687(3)
H39_3 H 0.6360 0.7629 0.5765
C42_3 C 0.5639(3) 0.7093(4) 0.5525(3)
H40_3 H 0.5745 0.6464 0.5499
C43_3 C 0.5123(3) 0.7331(4) 0.5404(3)
H41_3 H 0.4864 0.6868 0.5284
C44_3 C 0.4981(2) 0.8240(4) 0.5457(3)
H42_3 H 0.4623 0.8410 0.5380
C52_3 C 0.37866(17) 0.9790(3) 0.7441(2)
H52_3 H 0.3721 0.9468 0.7768
C53_3 C 0.38557(18) 0.9273(3) 0.6965(2)
C54_3 C 0.39649(18) 0.9772(3) 0.6499(2)
H53_3 H 0.4025 0.9443 0.6173
C61_3 C 0.3831(3) 0.8209(4) 0.6976(3)
C62_3 C 0.3246(5) 0.7947(7) 0.6914(7)
H60_3 H 0.3101 0.8284 0.7203
H61_3 H 0.3053 0.8118 0.6528
H62_3 H 0.3215 0.7274 0.6971
C63_3 C 0.4017(5) 0.7775(5) 0.6481(5)
H63_3 H 0.4023 0.7095 0.6522
H64_3 H 0.3781 0.7947 0.6119
H65_3 H 0.4370 0.7999 0.6477
C64_3 C 0.4123(8) 0.7840(6) 0.7541(5)
H66_3 H 0.4495 0.7982 0.7585
H67_3 H 0.3991 0.8134 0.7854
H68_3 H 0.4075 0.7164 0.7554
Hg3_3 Hg 0.660848(9) 0.975060(16) 0.586030(10)
Cl5_3 Cl 0.71177(9) 0.9169(2) 0.67160(8)
Cl8_3 Cl 0.64383(4) 0.60794(9) 0.46318(6)
C3_4 C 0.02492(16) 0.6855(3) 0.88014(18)
C4_4 C 0.02442(16) 0.7823(3) 0.88293(19)
H1_4 H 0.0555 0.8144 0.9000
H4_4 H 0.0132 0.5039 0.9538
H7_4 H 0.0136 0.1868 0.9716
C12_4 C 0.0019(2) 0.3240(4) 0.9543(3)
H8_4 H 0.0377 0.3410 0.9620
H9_4 H 0.0251 0.9434 0.9476
C15_4 C 0.0249(2) 0.9761(4) 0.8369(3)
H12_4 H 0.0202 0.9521 0.7976
H14_4 H 0.0586 0.9549 0.8595
C17_4 C 0.10128(15) 0.5743(3) 0.84955(18)
C18_4 C 0.11136(14) 0.6259(3) 0.80289(17)
C19_4 C 0.11903(15) 0.5756(3) 0.75448(18)
C20_4 C 0.12134(17) 0.4790(3) 0.7559(2)
H18_4 H 0.1279 0.4468 0.7232
C21_4 C 0.11443(18) 0.4273(3) 0.8035(2)
C22_4 C 0.10351(18) 0.4772(3) 0.8501(2)
H19_4 H 0.0975 0.4443 0.8827
C23_4 C 0.18025(17) 0.7735(3) 0.7952(2)
H20_4 H 0.1915 0.8358 0.8110
H21_4 H 0.1783 0.7756 0.7532
C24_4 C 0.22042(16) 0.7034(3) 0.8213(2)
C25_4 C 0.2630(2) 0.6226(4) 0.9025(2)
H22_4 H 0.2670 0.6097 0.9424
C26_4 C 0.2943(2) 0.5773(5) 0.8720(3)
H23_4 H 0.3199 0.5342 0.8905
C27_4 C 0.2881(2) 0.5949(5) 0.8141(3)
H24_4 H 0.3093 0.5642 0.7920
C28_4 C 0.25029(19) 0.6584(4) 0.7887(2)
H25_4 H 0.2451 0.6709 0.7486
C29_4 C 0.1169(3) 0.3209(4) 0.8024(3)
C30_4 C 0.1754(5) 0.2947(7) 0.8086(7)
H26_4 H 0.1899 0.3284 0.7797
H27_4 H 0.1947 0.3118 0.8472
H28_4 H 0.1785 0.2274 0.8029
C31_4 C 0.0983(5) 0.2775(5) 0.8519(5)
H29_4 H 0.0977 0.2095 0.8478
H30_4 H 0.1219 0.2947 0.8881
H31_4 H 0.0630 0.2999 0.8523
C32_4 C 0.0877(8) 0.2840(6) 0.7459(5)
H32_4 H 0.0505 0.2982 0.7415
H33_4 H 0.1009 0.3134 0.7146
H34_4 H 0.0925 0.2164 0.7446
S5_4 S 0.12768(4) 0.63131(8) 0.69016(5)
C33_4 C 0.06607(15) 0.6868(3) 0.66475(18)
C34_4 C 0.02095(16) 0.6351(3) 0.64300(17)
C37_4 C 0.02111(16) 0.8337(3) 0.63889(19)
C38_4 C 0.06575(16) 0.7844(3) 0.66257(19)
H36_4 H 0.0970 0.8176 0.6777
S6_4 S 0.02267(4) 0.51209(7) 0.64480(5)
C39_4 C 0.0220(2) 0.4910(3) 0.5697(2)
H37_4 H 0.0472 0.5327 0.5566
C40_4 C 0.0363(2) 0.3909(3) 0.5625(2)
N3_4 N 0.08727(18) 0.3684(3) 0.5739(2)
C41_4 C 0.1001(2) 0.2791(4) 0.5687(3)
H39_4 H 0.1360 0.2629 0.5765
C42_4 C 0.0639(3) 0.2093(4) 0.5525(3)
H40_4 H 0.0745 0.1464 0.5499
C43_4 C 0.0123(3) 0.2331(4) 0.5404(3)
C45_4 C 0.01909(18) 0.9399(3) 0.6356(2)
C46_4 C 0.0084(3) 0.9693(4) 0.5724(3)
H45_4 H 0.0363 0.9459 0.5545
C48_4 C 0.0702(2) 0.9848(4) 0.6670(3)
H49_4 H 0.0988 0.9645 0.6491
H51_4 H 0.0776 0.9658 0.7075
Hg3_4 Hg 0.160848(9) 0.475060(16) 0.586030(10)
Cl5_4 Cl 0.21177(9) 0.4169(2) 0.67160(8)
Cl6_4 Cl 0.13548(6) 0.59000(10) 0.51583(7)
Cl8_4 Cl 0.14383(4) 0.10794(9) 0.46318(6)
Cl4_4 Cl 0.85617(4) 0.10794(9) 0.03682(6)
Hg1_4 Hg 0.839152(9) 0.475060(16) 0.913970(10)
Cl1_4 Cl 0.78823(9) 0.4169(2) 0.82840(8)
Cl2_4 Cl 0.86452(6) 0.59000(10) 0.98417(7)
S1_4 S 0.87232(4) 0.63131(8) 0.80984(5)
C1_4 C 0.93393(15) 0.6868(3) 0.83525(18)
C2_4 C 0.97905(16) 0.6351(3) 0.85700(17)
C5_4 C 0.97889(16) 0.8337(3) 0.86111(19)
C6_4 C 0.93425(16) 0.7844(3) 0.83743(19)
H2_4 H 0.9030 0.8176 0.8223
S2_4 S 0.97733(4) 0.51209(7) 0.85520(5)
C7_4 C 0.9780(2) 0.4910(3) 0.9303(2)
H3_4 H 0.9528 0.5327 0.9434
C8_4 C 0.9637(2) 0.3909(3) 0.9375(2)
N1_4 N 0.91273(18) 0.3684(3) 0.9261(2)
C9_4 C 0.8999(2) 0.2791(4) 0.9313(3)
H5_4 H 0.8640 0.2629 0.9235
C10_4 C 0.9361(3) 0.2093(4) 0.9475(3)
H6_4 H 0.9255 0.1464 0.9501
C11_4 C 0.9877(3) 0.2331(4) 0.9596(3)
C13_4 C 0.98091(18) 0.9399(3) 0.8644(2)
C14_4 C 0.9916(3) 0.9693(4) 0.9276(3)
H11_4 H 0.9637 0.9459 0.9455
C16_4 C 0.9298(2) 0.9848(4) 0.8330(3)
H15_4 H 0.9012 0.9645 0.8509
H17_4 H 0.9224 0.9658 0.7925
C35_4 C 0.97508(16) 0.6855(3) 0.61986(18)
C36_4 C 0.97558(16) 0.7823(3) 0.61707(19)
H35_4 H 0.9445 0.8144 0.6000
H38_4 H 0.9868 0.5039 0.5462
H41_4 H 0.9864 0.1868 0.5284
C44_4 C 0.9981(2) 0.3240(4) 0.5457(3)
H42_4 H 0.9623 0.3410 0.5380
H43_4 H 0.9749 0.9434 0.5524
C47_4 C 0.9751(2) 0.9761(4) 0.6631(3)
H46_4 H 0.9798 0.9521 0.7024
H48_4 H 0.9414 0.9549 0.6405
C49_4 C 0.89872(15) 0.5743(3) 0.65045(18)
C50_4 C 0.88864(14) 0.6259(3) 0.69711(17)
C51_4 C 0.88097(15) 0.5756(3) 0.74552(18)
C52_4 C 0.87866(17) 0.4790(3) 0.7441(2)
H52_4 H 0.8721 0.4468 0.7768
C53_4 C 0.88557(18) 0.4273(3) 0.6965(2)
C54_4 C 0.89649(18) 0.4772(3) 0.6499(2)
H53_4 H 0.9025 0.4443 0.6173
C55_4 C 0.81975(17) 0.7735(3) 0.7048(2)
H54_4 H 0.8085 0.8358 0.6890
H55_4 H 0.8217 0.7756 0.7468
C56_4 C 0.77958(16) 0.7034(3) 0.6787(2)
C57_4 C 0.7370(2) 0.6226(4) 0.5975(2)
H56_4 H 0.7330 0.6097 0.5576
C58_4 C 0.7057(2) 0.5773(5) 0.6280(3)
H57_4 H 0.6801 0.5342 0.6095
C59_4 C 0.7119(2) 0.5949(5) 0.6859(3)
H58_4 H 0.6907 0.5642 0.7080
C60_4 C 0.74971(19) 0.6584(4) 0.7113(2)
H59_4 H 0.7549 0.6709 0.7514
C61_4 C 0.8831(3) 0.3209(4) 0.6976(3)
C62_4 C 0.8246(5) 0.2947(7) 0.6914(7)
H60_4 H 0.8101 0.3284 0.7203
H61_4 H 0.8053 0.3118 0.6528
H62_4 H 0.8215 0.2274 0.6971
C63_4 C 0.9017(5) 0.2775(5) 0.6481(5)
H63_4 H 0.9023 0.2095 0.6522
H64_4 H 0.8781 0.2947 0.6119
H65_4 H 0.9370 0.2999 0.6477
C64_4 C 0.9123(8) 0.2840(6) 0.7541(5)
H66_4 H 0.9495 0.2982 0.7585
H67_4 H 0.8991 0.3134 0.7854
H68_4 H 0.9075 0.2164 0.7554
H10_3 H 0.0071 0.9625 0.0698
H16_3 H 0.0670 0.9472 0.1646
H47_3 H 0.0242 0.9556 0.3360
H13_3 H 0.9758 0.9556 0.1640
H44_3 H 0.9929 0.9625 0.4302
H50_3 H 0.9330 0.9472 0.3354
H13_4 H 0.0242 0.0444 0.8360
H44_4 H 0.0071 0.0375 0.5698
H50_4 H 0.0670 0.0528 0.6646
H10_4 H 0.9929 0.0375 0.9302
H16_4 H 0.9330 0.0528 0.8354
H47_4 H 0.9758 0.0444 0.6640
loop_
_geom_bond_atom_site_label_1
_geom_bond_atom_site_label_2
_geom_bond_site_symmetry_1
_geom_bond_site_symmetry_2
Hg1 Cl1 1_555 1_555
Cl3 Hg1 1_555 1_555
C8 C7 1_555 1_555
N1 Hg1 1_555 1_555
C9 N1 1_555 1_555
H5 C9 1_555 1_555
C10 C9 1_555 1_555
H6 C10 1_555 1_555
C11 C10 1_555 1_555
H7 C11 1_555 1_555
C12 C8 1_555 1_555
H8 C12 1_555 1_555
H18 C20 1_555 1_555
C21 C20 1_555 1_555
H19 C22 1_555 1_555
C29 C21 1_555 1_555
C30 C29 1_555 1_555
H26 C30 1_555 1_555
H27 C30 1_555 1_555
H28 C30 1_555 1_555
C31 C29 1_555 1_555
H29 C31 1_555 1_555
H30 C31 1_555 1_555
H31 C31 1_555 1_555
C32 C29 1_555 1_555
H32 C32 1_555 1_555
H33 C32 1_555 1_555
H34 C32 1_555 1_555
C40 C39 1_555 1_555
N3 C40 1_555 1_555
C41 N3 1_555 1_555
H39 C41 1_555 1_555
C42 C41 1_555 1_555
H40 C42 1_555 1_555
C43 C42 1_555 1_555
H41 C43 1_555 1_555
C44 C40 1_555 1_555
H42 C44 1_555 1_555
H52 C52 1_555 1_555
C53 C52 1_555 1_555
H53 C54 1_555 1_555
C61 C53 1_555 1_555
C62 C61 1_555 1_555
H60 C62 1_555 1_555
H61 C62 1_555 1_555
H62 C62 1_555 1_555
C63 C61 1_555 1_555
H63 C63 1_555 1_555
H64 C63 1_555 1_555
H65 C63 1_555 1_555
C64 C61 1_555 1_555
H66 C64 1_555 1_555
H67 C64 1_555 1_555
H68 C64 1_555 1_555
Hg3 N3 1_555 1_555
Hg4 Cl7 1_555 1_555
Cl5 Hg3 1_555 1_555
Cl7 Hg3 1_555 1_555
Cl8 Hg4 1_555 1_555
Hg7 Cl3 1_555 1_555
Hg8 Cl7 1_555 1_555
Cl10 Hg4 1_555 1_555
S10 Hg4 1_555 1_555
S12 Hg4 1_555 1_555
N6 Hg4 1_555 1_555
C8 N1 1_555 1_555
C11 C12 1_555 1_555
C21 C22 1_555 1_555
C43 C44 1_555 1_555
C53 C54 1_555 1_555
Hg8 Cl10 1_555 1_555
Cl4 Hg2 1_555 1_555
Cl9 Hg2 1_555 1_555
S9 Hg2 1_555 1_555
S11 Hg2 1_555 1_555
N5 Hg2 1_555 1_555
S1 C1 1_555 1_555
C1 C2 1_555 1_555
C2 C3 1_555 1_555
C3 C4 1_555 1_555
C4 H1 1_555 1_555
C5 C4 1_555 1_555
C6 C1 1_555 1_555
H2 C6 1_555 1_555
S2 C2 1_555 1_555
C13 C5 1_555 1_555
C14 C13 1_555 1_555
H9 C14 1_555 1_555
H10 C14 1_555 1_555
H11 C14 1_555 1_555
C15 C13 1_555 1_555
H12 C15 1_555 1_555
H13 C15 1_555 1_555
H14 C15 1_555 1_555
C16 C13 1_555 1_555
H15 C16 1_555 1_555
H16 C16 1_555 1_555
H17 C16 1_555 1_555
S3 C3 1_555 1_555
C17 S3 1_555 1_555
C18 C17 1_555 1_555
C19 C18 1_555 1_555
S4 C18 1_555 1_555
C23 S4 1_555 1_555
H20 C23 1_555 1_555
H21 C23 1_555 1_555
C24 C23 1_555 1_555
N2 C24 1_555 1_555
C25 N2 1_555 1_555
H22 C25 1_555 1_555
C26 C25 1_555 1_555
H23 C26 1_555 1_555
C27 C26 1_555 1_555
H24 C27 1_555 1_555
C28 C24 1_555 1_555
H25 C28 1_555 1_555
S5 C19 1_555 1_555
C33 S5 1_555 1_555
C34 C33 1_555 1_555
C35 C34 1_555 1_555
C36 C35 1_555 1_555
H35 C36 1_555 1_555
C37 C36 1_555 1_555
C38 C33 1_555 1_555
H36 C38 1_555 1_555
S6 C34 1_555 1_555
C45 C37 1_555 1_555
C46 C45 1_555 1_555
H43 C46 1_555 1_555
H44 C46 1_555 1_555
H45 C46 1_555 1_555
C47 C45 1_555 1_555
H46 C47 1_555 1_555
H47 C47 1_555 1_555
H48 C47 1_555 1_555
C48 C45 1_555 1_555
H49 C48 1_555 1_555
H50 C48 1_555 1_555
H51 C48 1_555 1_555
S7 C35 1_555 1_555
C49 S7 1_555 1_555
C50 C49 1_555 1_555
C51 S1 1_555 1_555
S8 C50 1_555 1_555
C55 S8 1_555 1_555
H54 C55 1_555 1_555
H55 C55 1_555 1_555
C56 C55 1_555 1_555
N4 C56 1_555 1_555
C57 N4 1_555 1_555
H56 C57 1_555 1_555
C58 C57 1_555 1_555
H57 C58 1_555 1_555
C59 C58 1_555 1_555
H58 C59 1_555 1_555
C60 C56 1_555 1_555
H59 C60 1_555 1_555
Hg5 S3 1_555 1_555
Hg6 S7 1_555 1_555
C5 C6 1_555 1_555
S4 Hg5 1_555 1_555
N2 Hg5 1_555 1_555
C27 C28 1_555 1_555
C37 C38 1_555 1_555
C50 C51 1_555 1_555
S8 Hg6 1_555 1_555
N4 Hg6 1_555 1_555
C59 C60 1_555 1_555
Hg1_2 Cl1_2 1_555 1_555
Cl2_2 Hg1_2 1_555 1_555
Cl3_2 Hg1_2 1_555 1_555
S1_2 C1_2 1_555 1_555
C1_2 C2_2 1_555 1_555
C6_2 C1_2 1_555 1_555
H2_2 C6_2 1_555 1_555
S2_2 C2_2 1_555 1_555
C7_2 S2_2 1_555 1_555
H3_2 C7_2 1_555 1_555
C8_2 C7_2 1_555 1_555
N1_2 Hg1_2 1_555 1_555
C9_2 N1_2 1_555 1_555
H5_2 C9_2 1_555 1_555
C10_2 C9_2 1_555 1_555
H6_2 C10_2 1_555 1_555
C11_2 C10_2 1_555 1_555
C13_2 C5_2 1_555 1_555
C14_2 C13_2 1_555 1_555
H11_2 C14_2 1_555 1_555
C16_2 C13_2 1_555 1_555
H15_2 C16_2 1_555 1_555
H17_2 C16_2 1_555 1_555
C36_2 C35_2 1_555 1_555
H35_2 C36_2 1_555 1_555
H42_2 C44_2 1_555 1_555
H46_2 C47_2 1_555 1_555
H48_2 C47_2 1_555 1_555
S7_2 C35_2 1_555 1_555
C49_2 S7_2 1_555 1_555
C50_2 C49_2 1_555 1_555
C51_2 S1_2 1_555 1_555
C52_2 C51_2 1_555 1_555
H52_2 C52_2 1_555 1_555
C53_2 C52_2 1_555 1_555
C54_2 C49_2 1_555 1_555
H53_2 C54_2 1_555 1_555
S8_2 C50_2 1_555 1_555
C55_2 S8_2 1_555 1_555
H54_2 C55_2 1_555 1_555
H55_2 C55_2 1_555 1_555
C56_2 C55_2 1_555 1_555
N4_2 C56_2 1_555 1_555
C57_2 N4_2 1_555 1_555
H56_2 C57_2 1_555 1_555
C58_2 C57_2 1_555 1_555
H57_2 C58_2 1_555 1_555
C59_2 C58_2 1_555 1_555
H58_2 C59_2 1_555 1_555
C60_2 C56_2 1_555 1_555
H59_2 C60_2 1_555 1_555
C61_2 C53_2 1_555 1_555
C62_2 C61_2 1_555 1_555
H60_2 C62_2 1_555 1_555
H61_2 C62_2 1_555 1_555
H62_2 C62_2 1_555 1_555
C63_2 C61_2 1_555 1_555
H63_2 C63_2 1_555 1_555
H64_2 C63_2 1_555 1_555
H65_2 C63_2 1_555 1_555
C64_2 C61_2 1_555 1_555
H66_2 C64_2 1_555 1_555
H67_2 C64_2 1_555 1_555
H68_2 C64_2 1_555 1_555
Hg8 S7_2 1_555 1_555
Hg5 Cl3_2 1_555 1_555
C5_2 C6_2 1_555 1_555
C8_2 N1_2 1_555 1_555
C50_2 C51_2 1_555 1_555
C53_2 C54_2 1_555 1_555
S8_2 Hg8 1_555 1_555
N4_2 Hg8 1_555 1_555
C59_2 C60_2 1_555 1_555
Cl4_2 Hg2_2 1_555 1_555
Cl9_2 Hg2_2 1_555 1_555
S9_2 Hg2_2 1_555 1_555
S11_2 Hg2_2 1_555 1_555
N5_2 Hg2_2 1_555 1_555
C3_2 C4_2 1_555 1_555
C4_2 H1_2 1_555 1_555
H8_2 C12_2 1_555 1_555
H12_2 C15_2 1_555 1_555
H14_2 C15_2 1_555 1_555
S3_2 C3_2 1_555 1_555
C17_2 S3_2 1_555 1_555
C18_2 C17_2 1_555 1_555
C19_2 C18_2 1_555 1_555
C20_2 C19_2 1_555 1_555
H18_2 C20_2 1_555 1_555
C21_2 C20_2 1_555 1_555
C22_2 C17_2 1_555 1_555
H19_2 C22_2 1_555 1_555
S4_2 C18_2 1_555 1_555
C23_2 S4_2 1_555 1_555
H20_2 C23_2 1_555 1_555
H21_2 C23_2 1_555 1_555
C24_2 C23_2 1_555 1_555
N2_2 C24_2 1_555 1_555
C25_2 N2_2 1_555 1_555
H22_2 C25_2 1_555 1_555
C26_2 C25_2 1_555 1_555
H23_2 C26_2 1_555 1_555
C27_2 C26_2 1_555 1_555
H24_2 C27_2 1_555 1_555
C28_2 C24_2 1_555 1_555
H25_2 C28_2 1_555 1_555
C29_2 C21_2 1_555 1_555
C30_2 C29_2 1_555 1_555
H26_2 C30_2 1_555 1_555
H27_2 C30_2 1_555 1_555
H28_2 C30_2 1_555 1_555
C31_2 C29_2 1_555 1_555
H29_2 C31_2 1_555 1_555
H30_2 C31_2 1_555 1_555
H31_2 C31_2 1_555 1_555
C32_2 C29_2 1_555 1_555
H32_2 C32_2 1_555 1_555
H33_2 C32_2 1_555 1_555
H34_2 C32_2 1_555 1_555
S5_2 C19_2 1_555 1_555
C33_2 S5_2 1_555 1_555
C34_2 C33_2 1_555 1_555
C38_2 C33_2 1_555 1_555
H36_2 C38_2 1_555 1_555
S6_2 C34_2 1_555 1_555
C39_2 S6_2 1_555 1_555
H37_2 C39_2 1_555 1_555
C40_2 C39_2 1_555 1_555
N3_2 C40_2 1_555 1_555
C41_2 N3_2 1_555 1_555
H39_2 C41_2 1_555 1_555
C42_2 C41_2 1_555 1_555
H40_2 C42_2 1_555 1_555
C43_2 C42_2 1_555 1_555
C45_2 C37_2 1_555 1_555
C46_2 C45_2 1_555 1_555
H45_2 C46_2 1_555 1_555
C48_2 C45_2 1_555 1_555
H49_2 C48_2 1_555 1_555
H51_2 C48_2 1_555 1_555
Hg3_2 N3_2 1_555 1_555
Hg4_2 Cl7_2 1_555 1_555
Cl5_2 Hg3_2 1_555 1_555
Cl6_2 Hg3_2 1_555 1_555
Cl7_2 Hg3_2 1_555 1_555
Cl8_2 Hg4_2 1_555 1_555
Hg7 S3_2 1_555 1_555
Hg6 Cl7_2 1_555 1_555
Cl10_2 Hg4_2 1_555 1_555
S10_2 Hg4_2 1_555 1_555
S12_2 Hg4_2 1_555 1_555
N6_2 Hg4_2 1_555 1_555
C21_2 C22_2 1_555 1_555
S4_2 Hg7 1_555 1_555
N2_2 Hg7 1_555 1_555
C27_2 C28_2 1_555 1_555
C37_2 C38_2 1_555 1_555
Hg6 Cl10_2 1_555 1_555
S1_3 C1_3 1_555 1_555
C1_3 C2_3 1_555 1_555
C2_3 C3_3 1_555 1_555
C3_3 C4_3 1_555 1_555
C4_3 H1_3 1_555 1_555
C5_3 C4_3 1_555 1_555
C6_3 C1_3 1_555 1_555
H2_3 C6_3 1_555 1_555
S2_3 C2_3 1_555 1_555
C13_3 C5_3 1_555 1_555
C14_3 C13_3 1_555 1_555
H9_3 C14_3 1_555 1_555
H10_2 C14_3 1_555 1_555
H11_3 C14_3 1_555 1_555
C15_3 C13_3 1_555 1_555
H12_3 C15_3 1_555 1_555
H13_2 C15_3 1_555 1_555
H14_3 C15_3 1_555 1_555
C16_3 C13_3 1_555 1_555
H15_3 C16_3 1_555 1_555
H16_2 C16_3 1_555 1_555
H17_3 C16_3 1_555 1_555
S9 C3_3 1_555 1_555
C17_3 S9 1_555 1_555
C18_3 C17_3 1_555 1_555
C19_3 C18_3 1_555 1_555
S11 C18_3 1_555 1_555
C23_3 S11 1_555 1_555
H20_3 C23_3 1_555 1_555
H21_3 C23_3 1_555 1_555
C24_3 C23_3 1_555 1_555
N5 C24_3 1_555 1_555
C25_3 N5 1_555 1_555
H22_3 C25_3 1_555 1_555
C26_3 C25_3 1_555 1_555
H23_3 C26_3 1_555 1_555
C27_3 C26_3 1_555 1_555
H24_3 C27_3 1_555 1_555
C28_3 C24_3 1_555 1_555
H25_3 C28_3 1_555 1_555
S5_3 C19_3 1_555 1_555
C33_3 S5_3 1_555 1_555
C34_3 C33_3 1_555 1_555
C35_3 C34_3 1_555 1_555
C36_3 C35_3 1_555 1_555
H35_3 C36_3 1_555 1_555
C37_3 C36_3 1_555 1_555
C38_3 C33_3 1_555 1_555
H36_3 C38_3 1_555 1_555
S6_3 C34_3 1_555 1_555
C45_3 C37_3 1_555 1_555
C46_3 C45_3 1_555 1_555
H43_3 C46_3 1_555 1_555
H44_2 C46_3 1_555 1_555
H45_3 C46_3 1_555 1_555
C47_3 C45_3 1_555 1_555
H46_3 C47_3 1_555 1_555
H47_2 C47_3 1_555 1_555
H48_3 C47_3 1_555 1_555
C48_3 C45_3 1_555 1_555
H49_3 C48_3 1_555 1_555
H50_2 C48_3 1_555 1_555
H51_3 C48_3 1_555 1_555
S10 C35_3 1_555 1_555
C49_3 S10 1_555 1_555
C50_3 C49_3 1_555 1_555
C51_3 S1_3 1_555 1_555
S12 C50_3 1_555 1_555
C55_3 S12 1_555 1_555
H54_3 C55_3 1_555 1_555
H55_3 C55_3 1_555 1_555
C56_3 C55_3 1_555 1_555
N6 C56_3 1_555 1_555
C57_3 N6 1_555 1_555
H56_3 C57_3 1_555 1_555
C58_3 C57_3 1_555 1_555
H57_3 C58_3 1_555 1_555
C59_3 C58_3 1_555 1_555
H58_3 C59_3 1_555 1_555
C60_3 C56_3 1_555 1_555
H59_3 C60_3 1_555 1_555
C5_3 C6_3 1_555 1_555
C27_3 C28_3 1_555 1_555
C37_3 C38_3 1_555 1_555
C50_3 C51_3 1_555 1_555
C59_3 C60_3 1_555 1_555
Cl4_3 Hg5 1_555 1_555
Hg1_3 Cl1_3 1_555 1_555
Cl9_2 Hg1_3 1_555 1_555
C8_3 C7_3 1_555 1_555
N1_3 Hg1_3 1_555 1_555
C9_3 N1_3 1_555 1_555
H5_3 C9_3 1_555 1_555
C10_3 C9_3 1_555 1_555
H6_3 C10_3 1_555 1_555
C11_3 C10_3 1_555 1_555
H7_3 C11_3 1_555 1_555
C12_3 C8_3 1_555 1_555
H8_3 C12_3 1_555 1_555
H18_3 C20_3 1_555 1_555
C21_3 C20_3 1_555 1_555
H19_3 C22_3 1_555 1_555
C29_3 C21_3 1_555 1_555
C30_3 C29_3 1_555 1_555
H26_3 C30_3 1_555 1_555
H27_3 C30_3 1_555 1_555
H28_3 C30_3 1_555 1_555
C31_3 C29_3 1_555 1_555
H29_3 C31_3 1_555 1_555
H30_3 C31_3 1_555 1_555
H31_3 C31_3 1_555 1_555
C32_3 C29_3 1_555 1_555
H32_3 C32_3 1_555 1_555
H33_3 C32_3 1_555 1_555
H34_3 C32_3 1_555 1_555
C40_3 C39_3 1_555 1_555
N3_3 C40_3 1_555 1_555
C41_3 N3_3 1_555 1_555
H39_3 C41_3 1_555 1_555
C42_3 C41_3 1_555 1_555
H40_3 C42_3 1_555 1_555
C43_3 C42_3 1_555 1_555
H41_3 C43_3 1_555 1_555
C44_3 C40_3 1_555 1_555
H42_3 C44_3 1_555 1_555
H52_3 C52_3 1_555 1_555
C53_3 C52_3 1_555 1_555
H53_3 C54_3 1_555 1_555
C61_3 C53_3 1_555 1_555
C62_3 C61_3 1_555 1_555
H60_3 C62_3 1_555 1_555
H61_3 C62_3 1_555 1_555
H62_3 C62_3 1_555 1_555
C63_3 C61_3 1_555 1_555
H63_3 C63_3 1_555 1_555
H64_3 C63_3 1_555 1_555
H65_3 C63_3 1_555 1_555
C64_3 C61_3 1_555 1_555
H66_3 C64_3 1_555 1_555
H67_3 C64_3 1_555 1_555
H68_3 C64_3 1_555 1_555
Hg3_3 N3_3 1_555 1_555
Cl5_3 Hg3_3 1_555 1_555
Cl10_2 Hg3_3 1_555 1_555
Cl8_3 Hg6 1_555 1_555
C8_3 N1_3 1_555 1_555
C11_3 C12_3 1_555 1_555
C21_3 C22_3 1_555 1_555
C43_3 C44_3 1_555 1_555
C53_3 C54_3 1_555 1_555
C3_4 C4_4 1_555 1_555
C4_4 H1_4 1_555 1_555
H8_4 C12_4 1_555 1_555
H12_4 C15_4 1_555 1_555
H14_4 C15_4 1_555 1_555
S9_2 C3_4 1_555 1_555
C17_4 S9_2 1_555 1_555
C18_4 C17_4 1_555 1_555
C19_4 C18_4 1_555 1_555
C20_4 C19_4 1_555 1_555
H18_4 C20_4 1_555 1_555
C21_4 C20_4 1_555 1_555
C22_4 C17_4 1_555 1_555
H19_4 C22_4 1_555 1_555
S11_2 C18_4 1_555 1_555
C23_4 S11_2 1_555 1_555
H20_4 C23_4 1_555 1_555
H21_4 C23_4 1_555 1_555
C24_4 C23_4 1_555 1_555
N5_2 C24_4 1_555 1_555
C25_4 N5_2 1_555 1_555
H22_4 C25_4 1_555 1_555
C26_4 C25_4 1_555 1_555
H23_4 C26_4 1_555 1_555
C27_4 C26_4 1_555 1_555
H24_4 C27_4 1_555 1_555
C28_4 C24_4 1_555 1_555
H25_4 C28_4 1_555 1_555
C29_4 C21_4 1_555 1_555
C30_4 C29_4 1_555 1_555
H26_4 C30_4 1_555 1_555
H27_4 C30_4 1_555 1_555
H28_4 C30_4 1_555 1_555
C31_4 C29_4 1_555 1_555
H29_4 C31_4 1_555 1_555
H30_4 C31_4 1_555 1_555
H31_4 C31_4 1_555 1_555
C32_4 C29_4 1_555 1_555
H32_4 C32_4 1_555 1_555
H33_4 C32_4 1_555 1_555
H34_4 C32_4 1_555 1_555
S5_4 C19_4 1_555 1_555
C33_4 S5_4 1_555 1_555
C34_4 C33_4 1_555 1_555
C38_4 C33_4 1_555 1_555
H36_4 C38_4 1_555 1_555
S6_4 C34_4 1_555 1_555
C39_4 S6_4 1_555 1_555
H37_4 C39_4 1_555 1_555
C40_4 C39_4 1_555 1_555
N3_4 C40_4 1_555 1_555
C41_4 N3_4 1_555 1_555
H39_4 C41_4 1_555 1_555
C42_4 C41_4 1_555 1_555
H40_4 C42_4 1_555 1_555
C43_4 C42_4 1_555 1_555
C45_4 C37_4 1_555 1_555
C46_4 C45_4 1_555 1_555
H45_4 C46_4 1_555 1_555
C48_4 C45_4 1_555 1_555
H49_4 C48_4 1_555 1_555
H51_4 C48_4 1_555 1_555
Hg3_4 N3_4 1_555 1_555
Cl5_4 Hg3_4 1_555 1_555
Cl6_4 Hg3_4 1_555 1_555
Cl10 Hg3_4 1_555 1_555
Cl8_4 Hg8 1_555 1_555
C21_4 C22_4 1_555 1_555
C27_4 C28_4 1_555 1_555
C37_4 C38_4 1_555 1_555
Cl4_4 Hg7 1_555 1_555
Hg1_4 Cl1_4 1_555 1_555
Cl2_4 Hg1_4 1_555 1_555
Cl9 Hg1_4 1_555 1_555
S1_4 C1_4 1_555 1_555
C1_4 C2_4 1_555 1_555
C6_4 C1_4 1_555 1_555
H2_4 C6_4 1_555 1_555
S2_4 C2_4 1_555 1_555
C7_4 S2_4 1_555 1_555
H3_4 C7_4 1_555 1_555
C8_4 C7_4 1_555 1_555
N1_4 Hg1_4 1_555 1_555
C9_4 N1_4 1_555 1_555
H5_4 C9_4 1_555 1_555
C10_4 C9_4 1_555 1_555
H6_4 C10_4 1_555 1_555
C11_4 C10_4 1_555 1_555
C13_4 C5_4 1_555 1_555
C14_4 C13_4 1_555 1_555
H11_4 C14_4 1_555 1_555
C16_4 C13_4 1_555 1_555
H15_4 C16_4 1_555 1_555
H17_4 C16_4 1_555 1_555
C36_4 C35_4 1_555 1_555
H35_4 C36_4 1_555 1_555
H42_4 C44_4 1_555 1_555
H46_4 C47_4 1_555 1_555
H48_4 C47_4 1_555 1_555
S10_2 C35_4 1_555 1_555
C49_4 S10_2 1_555 1_555
C50_4 C49_4 1_555 1_555
C51_4 S1_4 1_555 1_555
C52_4 C51_4 1_555 1_555
H52_4 C52_4 1_555 1_555
C53_4 C52_4 1_555 1_555
C54_4 C49_4 1_555 1_555
H53_4 C54_4 1_555 1_555
S12_2 C50_4 1_555 1_555
C55_4 S12_2 1_555 1_555
H54_4 C55_4 1_555 1_555
H55_4 C55_4 1_555 1_555
C56_4 C55_4 1_555 1_555
N6_2 C56_4 1_555 1_555
C57_4 N6_2 1_555 1_555
H56_4 C57_4 1_555 1_555
C58_4 C57_4 1_555 1_555
H57_4 C58_4 1_555 1_555
C59_4 C58_4 1_555 1_555
H58_4 C59_4 1_555 1_555
C60_4 C56_4 1_555 1_555
H59_4 C60_4 1_555 1_555
C61_4 C53_4 1_555 1_555
C62_4 C61_4 1_555 1_555
H60_4 C62_4 1_555 1_555
H61_4 C62_4 1_555 1_555
H62_4 C62_4 1_555 1_555
C63_4 C61_4 1_555 1_555
H63_4 C63_4 1_555 1_555
H64_4 C63_4 1_555 1_555
H65_4 C63_4 1_555 1_555
C64_4 C61_4 1_555 1_555
H66_4 C64_4 1_555 1_555
H67_4 C64_4 1_555 1_555
H68_4 C64_4 1_555 1_555
C5_4 C6_4 1_555 1_555
C8_4 N1_4 1_555 1_555
C50_4 C51_4 1_555 1_555
C53_4 C54_4 1_555 1_555
C59_4 C60_4 1_555 1_555

#END
