
###############################################################################
#
# This file contains modified crystal structure data generated from the
# MOF subset of the Cambridge Structural Database (CSD) v543 
# hosted by the Cambridge Crystallographic Data Centre (CCDC).
#
# This work is licensed under the Creative Commons
# Attribution-NonCommercial-ShareAlike 4.0 International License.
# To view a copy of this license, visit
# http://creativecommons.org/licenses/by-nc-sa/4.0/
# or send a letter to
# Creative Commons, PO Box 1866, Mountain View, CA 94042, USA.
#
# CIF created using the CSD Python API on 29 September 2022
# The structure has been converted into the P1 space group
# The structure has a 3D framework
# The original CSD entry WIPLOY is in the triclinic crystal system
# The framework has been calculated to contain at least 10.0% void space
# The void calculation uses a probe of radius 1.32A, grid spacing 0.4
# The framework is charged, counterions have been retained in the structure
# H atom positions have been added when not included in the experimental data
#
###############################################################################

data_WIPLOY
_chemical_formula_moiety         '(C94 H60 Eu4 N2 O36 3-)n'
_symmetry_cell_setting           triclinic
_symmetry_space_group_name_H-M   'P 1'
_symmetry_Int_Tables_number      1
_space_group_name_Hall           'P 1'
loop_
_symmetry_equiv_pos_site_id
_symmetry_equiv_pos_as_xyz
1 x,y,z
_cell_length_a                   10.984(4)
_cell_length_b                   16.101(6)
_cell_length_c                   19.692(8)
_cell_angle_alpha                74.149(14)
_cell_angle_beta                 74.035(14)
_cell_angle_gamma                72.054(14)
_cell_volume                     3117.07
loop_
_atom_site_label
_atom_site_type_symbol
_atom_site_fract_x
_atom_site_fract_y
_atom_site_fract_z
_atom_site_U_iso_or_equiv
_atom_site_thermal_displace_type
Eu15 Eu 0.05620(3) 0.82372(2) 0.773416(19) 0.0220 Uani
O5 O 0.3678(7) 0.0164(4) 0.1278(4) 0.0666 Uani
O14 O 0.0543(5) 0.2894(3) 0.1394(3) 0.0391 Uani
O15 O 0.1434(5) 0.1506(3) 0.1269(3) 0.0394 Uani
C34 C 0.1437(8) 0.2316(5) 0.1086(4) 0.0354 Uani
C35 C 0.2508(8) 0.2589(5) 0.0491(4) 0.0323 Uani
C40 C 0.2948(8) 0.3304(5) 0.0491(4) 0.0412 Uani
H18 H 0.2543 0.3630 0.0852 0.0500 Uiso
C42 C 0.4614(11) 0.4427(7) 0.0627(5) 0.0675 Uani
H19 H 0.4368 0.4039 0.1054 0.0810 Uiso
O25 O 0.5830(5) 0.8689(4) 0.1279(3) 0.0391 Uani
O26 O 0.4242(6) 0.7989(4) 0.1615(3) 0.0455 Uani
C61 C 0.6930(8) 0.7875(5) 0.0056(4) 0.0378 Uani
H33 H 0.7230 0.8353 0.0062 0.0460 Uiso
C62 C 0.5904(8) 0.7629(5) 0.0605(4) 0.0362 Uani
C63 C 0.5475(9) 0.6923(6) 0.0586(5) 0.0423 Uani
H34 H 0.4801 0.6758 0.0954 0.0510 Uiso
C64 C 0.6011(9) 0.6449(5) 0.0040(5) 0.0444 Uani
C66 C 0.5309(8) 0.8125(5) 0.1196(4) 0.0373 Uani
C68 C 0.5500(10) 0.5704(6) 0.0030(5) 0.0492 Uani
C69 C 0.5089(12) 0.5132(7) 0.0648(5) 0.0738 Uani
H37 H 0.5127 0.5212 0.1091 0.0890 Uiso
Eu7 Eu 0.39854(3) 0.90186(2) 0.239002(19) 0.0216 Uani
O45 O 0.1334(5) 0.1407(3) 0.2778(3) 0.0341 Uani
O47 O 0.3266(5) 0.0426(3) 0.2733(3) 0.0423 Uani
H57 H 0.2743 0.0497342 0.132806 . .
H58 H 0.422518 0.0584119 0.120087 . .
O16 O 0.4170(5) 0.1311(4) 0.8721(3) 0.0391 Uani
O17 O 0.5758(6) 0.2011(4) 0.8385(3) 0.0455 Uani
C36 C 0.3070(8) 0.2125(5) 0.9944(4) 0.0378 Uani
H16 H 0.2770 0.1647 0.9938 0.0460 Uiso
C37 C 0.4096(8) 0.2371(5) 0.9395(4) 0.0362 Uani
C38 C 0.4525(9) 0.3077(6) 0.9414(5) 0.0423 Uani
H17 H 0.5199 0.3242 0.9046 0.0510 Uiso
C39 C 0.3989(9) 0.3551(5) 0.9960(5) 0.0444 Uani
C41 C 0.4691(8) 0.1875(5) 0.8804(4) 0.0373 Uani
C43 C 0.4500(10) 0.4296(6) 0.9970(5) 0.0492 Uani
C44 C 0.4911(12) 0.4868(7) 0.9352(5) 0.0738 Uani
H20 H 0.4873 0.4788 0.8909 0.0890 Uiso
H22 H 0.0575 0.2172 0.9657 0.0730 Uiso
O23 O 0.9457(5) 0.7106(3) 0.8606(3) 0.0391 Uani
O24 O 0.8566(5) 0.8494(3) 0.8731(3) 0.0394 Uani
C59 C 0.8563(8) 0.7684(5) 0.8914(4) 0.0354 Uani
C60 C 0.7492(8) 0.7411(5) 0.9509(4) 0.0323 Uani
C65 C 0.7052(8) 0.6696(5) 0.9509(4) 0.0412 Uani
H35 H 0.7457 0.6370 0.9148 0.0500 Uiso
C67 C 0.5386(11) 0.5573(7) 0.9373(5) 0.0675 Uani
H36 H 0.5632 0.5961 0.8946 0.0810 Uiso
Eu10 Eu 0.60146(3) 0.09814(2) 0.760998(19) 0.0216 Uani
O1 O 0.3321(5) 0.7652(3) 0.3200(3) 0.0335 Uani
O2 O 0.3195(5) 0.8741(3) 0.3715(3) 0.0346 Uani
O3 O 0.1362(6) 0.8383(3) 0.6412(3) 0.0371 Uani
O4 O 0.0883(5) 0.7103(3) 0.7011(3) 0.0308 Uani
O11 O 0.7279(5) 0.1370(3) 0.2517(3) 0.0377 Uani
O12 O 0.7195(5) 0.2791(3) 0.2266(3) 0.0384 Uani
C1 C 0.2976(7) 0.7980(5) 0.3748(4) 0.0264 Uani
C2 C 0.2277(8) 0.7517(5) 0.4446(4) 0.0323 Uani
C3 C 0.2069(7) 0.7793(5) 0.5090(4) 0.0298 Uani
H1 H 0.2361 0.8277 0.5093 0.0360 Uiso
C4 C 0.1430(8) 0.7347(5) 0.5723(4) 0.0295 Uani
C5 C 0.0943(8) 0.6651(6) 0.5703(4) 0.0390 Uani
H2 H 0.0493 0.6360 0.6128 0.0470 Uiso
C6 C 0.1113(9) 0.6382(5) 0.5063(4) 0.0408 Uani
C7 C 0.1799(8) 0.6809(6) 0.4436(4) 0.0395 Uani
H3 H 0.1943 0.6626 0.4005 0.0470 Uiso
C8 C 0.1224(7) 0.7622(5) 0.6424(4) 0.0301 Uani
C9 C 0.0552(10) 0.5669(6) 0.5036(4) 0.0450 Uani
C10 C 0.0097(13) 0.5705(7) 0.4445(5) 0.0746 Uani
H4 H 0.0131 0.6192 0.4062 0.0890 Uiso
C11 C 0.0404(12) 0.4949(7) 0.5602(5) 0.0680 Uani
H5 H 0.0654 0.4911 0.6026 0.0820 Uiso
C12 C 0.0592(7) 0.9465(5) 0.2440(4) 0.0275 Uani
C17 C 0.0116(7) 0.7184(5) 0.2514(4) 0.0265 Uani
C18 C 0.0698(6) 0.7859(4) 0.2470(4) 0.0247 Uani
H8 H 0.1599 0.7725 0.2426 0.0300 Uiso
C20 C 0.0879(7) 0.6248(4) 0.2496(4) 0.0262 Uani
C21 C 0.0378(8) 0.5635(5) 0.2353(5) 0.0359 Uani
C22 C 0.1093(7) 0.4755(5) 0.2374(5) 0.0345 Uani
H10 H 0.0718 0.4359 0.2288 0.0420 Uiso
C23 C 0.2331(7) 0.4444(4) 0.2515(4) 0.0252 Uani
C24 C 0.2848(7) 0.5070(5) 0.2634(5) 0.0344 Uani
H11 H 0.3688 0.4887 0.2725 0.0420 Uiso
C25 C 0.2168(7) 0.5953(5) 0.2620(4) 0.0336 Uani
H12 H 0.2556 0.6351 0.2693 0.0400 Uiso
C26 C 0.3098(7) 0.3493(4) 0.2545(4) 0.0232 Uani
C27 C 0.4444(7) 0.3269(4) 0.2461(4) 0.0258 Uani
H13 H 0.4868 0.3716 0.2382 0.0310 Uiso
C28 C 0.5181(6) 0.2385(4) 0.2493(4) 0.0242 Uani
C29 C 0.4565(6) 0.1717(4) 0.2588(4) 0.0246 Uani
H14 H 0.5051 0.1128 0.2617 0.0300 Uiso
C30 C 0.3231(7) 0.1924(4) 0.2640(4) 0.0234 Uani
C31 C 0.2520(7) 0.2811(5) 0.2631(4) 0.0275 Uani
H15 H 0.1616 0.2948 0.2686 0.0330 Uiso
C32 C 0.6638(7) 0.2170(4) 0.2414(4) 0.0242 Uani
C33 C 0.2564(7) 0.1192(5) 0.2711(4) 0.0241 Uani
O18 O 0.1791(5) 0.9262(4) 0.2391(4) 0.0461 Uani
O29 O 0.4039(5) 0.0642(3) 0.7494(3) 0.0366 Uani
O30 O 0.4036(5) 0.2054(3) 0.7203(3) 0.0381 Uani
C71 C 0.0055(7) 0.1259(4) 0.7510(4) 0.0259 Uani
C72 C 0.1405(7) 0.1042(5) 0.7453(4) 0.0295 Uani
H38 H 0.1895 0.0457 0.7454 0.0350 Uiso
C73 C 0.2014(7) 0.1703(5) 0.7395(4) 0.0304 Uani
C74 C 0.1272(7) 0.2575(5) 0.7400(4) 0.0280 Uani
H39 H 0.1695 0.3015 0.7345 0.0340 Uiso
C77 C 0.3449(7) 0.1452(5) 0.7358(4) 0.0277 Uani
H41 H 0.0447 0.4183 0.7757 0.0440 Uiso
Eu12 Eu 0.94380(3) 0.17628(2) 0.226584(19) 0.0220 Uani
O41 O 0.5961(5) 0.9358(3) 0.2506(3) 0.0366 Uani
O43 O 0.5964(5) 0.7946(3) 0.2797(3) 0.0381 Uani
O28 O 0.0107(5) 0.9763(3) 0.7570(4) 0.0479 Uani
O35 O 0.1126(10) 0.8068(7) 0.8926(5) 0.0315 Uani
C92 C 0.1488(16) 0.7388(12) 0.9324(8) 0.0383 Uani
H48 H 0.2061 0.6932 0.9102 0.0460 Uiso
O50 O 0.2721(5) 0.8630(3) 0.7483(3) 0.0377 Uani
O52 O 0.2805(5) 0.7209(3) 0.7734(3) 0.0384 Uani
O6 O 0.9893(5) 0.0237(3) 0.2430(4) 0.0479 Uani
O13 O 0.8874(10) 0.1932(7) 0.1074(5) 0.0315 Uani
C45 C 0.8512(16) 0.2612(12) 0.0676(8) 0.0383 Uani
H21 H 0.7939 0.3068 0.0898 0.0460 Uiso
O38 O 0.8638(6) 0.1617(3) 0.3588(3) 0.0371 Uani
O40 O 0.9117(5) 0.2897(3) 0.2989(3) 0.0308 Uani
C13 C 0.9945(7) 0.8741(4) 0.2490(4) 0.0259 Uani
C14 C 0.8595(7) 0.8958(5) 0.2547(4) 0.0295 Uani
H6 H 0.8105 0.9543 0.2546 0.0350 Uiso
C15 C 0.7986(7) 0.8297(5) 0.2605(4) 0.0304 Uani
C16 C 0.8728(7) 0.7425(5) 0.2600(4) 0.0280 Uani
H7 H 0.8305 0.6985 0.2655 0.0340 Uiso
C19 C 0.6551(7) 0.8548(5) 0.2642(4) 0.0277 Uani
H9 H 0.9553 0.5817 0.2243 0.0440 Uiso
O19 O 0.6679(5) 0.2348(3) 0.6800(3) 0.0335 Uani
O20 O 0.6805(5) 0.1259(3) 0.6285(3) 0.0346 Uani
C48 C 0.7024(7) 0.2020(5) 0.6252(4) 0.0264 Uani
C49 C 0.7723(8) 0.2483(5) 0.5554(4) 0.0323 Uani
C50 C 0.7931(7) 0.2207(5) 0.4910(4) 0.0298 Uani
H28 H 0.7639 0.1723 0.4907 0.0360 Uiso
C51 C 0.8570(8) 0.2653(5) 0.4277(4) 0.0295 Uani
C52 C 0.9057(8) 0.3349(6) 0.4297(4) 0.0390 Uani
H29 H 0.9507 0.3640 0.3872 0.0470 Uiso
C53 C 0.8887(9) 0.3618(5) 0.4937(4) 0.0408 Uani
C54 C 0.8201(8) 0.3191(6) 0.5564(4) 0.0395 Uani
H30 H 0.8057 0.3374 0.5995 0.0470 Uiso
C55 C 0.8776(7) 0.2378(5) 0.3576(4) 0.0301 Uani
C56 C 0.9448(10) 0.4331(6) 0.4964(4) 0.0450 Uani
C57 C 0.9903(13) 0.4295(7) 0.5555(5) 0.0746 Uani
H31 H 0.9869 0.3808 0.5938 0.0890 Uiso
C58 C 0.9596(12) 0.5051(7) 0.4398(5) 0.0680 Uani
H32 H 0.9346 0.5089 0.3974 0.0820 Uiso
O31 O 0.8666(5) 0.8593(3) 0.7222(3) 0.0341 Uani
O32 O 0.6734(5) 0.9574(3) 0.7267(3) 0.0423 Uani
C70 C 0.9408(7) 0.0535(5) 0.7560(4) 0.0275 Uani
C75 C 0.9884(7) 0.2816(5) 0.7486(4) 0.0265 Uani
C76 C 0.9302(6) 0.2141(4) 0.7530(4) 0.0247 Uani
H40 H 0.8401 0.2275 0.7574 0.0300 Uiso
C78 C 0.9121(7) 0.3752(4) 0.7504(4) 0.0262 Uani
C79 C 0.9622(8) 0.4365(5) 0.7647(5) 0.0359 Uani
C80 C 0.8907(7) 0.5245(5) 0.7626(5) 0.0345 Uani
H42 H 0.9282 0.5641 0.7712 0.0420 Uiso
C81 C 0.7669(7) 0.5556(4) 0.7485(4) 0.0252 Uani
C82 C 0.7152(7) 0.4930(5) 0.7366(5) 0.0344 Uani
H43 H 0.6312 0.5113 0.7275 0.0420 Uiso
C83 C 0.7832(7) 0.4047(5) 0.7380(4) 0.0336 Uani
H44 H 0.7444 0.3649 0.7307 0.0400 Uiso
C84 C 0.6902(7) 0.6507(4) 0.7455(4) 0.0232 Uani
C85 C 0.5556(7) 0.6731(4) 0.7539(4) 0.0258 Uani
H45 H 0.5132 0.6284 0.7618 0.0310 Uiso
C86 C 0.4819(6) 0.7615(4) 0.7507(4) 0.0242 Uani
C87 C 0.5435(6) 0.8283(4) 0.7412(4) 0.0246 Uani
H46 H 0.4949 0.8872 0.7383 0.0300 Uiso
C88 C 0.6769(7) 0.8076(4) 0.7360(4) 0.0234 Uani
C89 C 0.7480(7) 0.7189(5) 0.7369(4) 0.0275 Uani
H47 H 0.8384 0.7052 0.7314 0.0330 Uiso
C90 C 0.3362(7) 0.7830(4) 0.7586(4) 0.0242 Uani
C91 C 0.7436(7) 0.8808(5) 0.7289(4) 0.0241 Uani
O36 O 0.8209(5) 0.0738(4) 0.7609(4) 0.0461 Uani
H55 H 0.60575 0.0129972 0.914103 . .
H49 H 0.9425 0.7828 0.0343 0.0730 Uiso
O27 O 0.6322(7) 0.9836(4) 0.8722(4) 0.0666 Uani
H56 H 0.577482 0.941588 0.879913 . .
H55_2 H 0.39425 0.987003 0.0858973 . .
H57_2 H 0.7257 0.950266 0.867194 . .
N2 N 0.1198(13) 0.7188(9) 0.0024(7) 0.0433 Uani
C93 C 0.0276(16) 0.7771(12) 0.0419(8) 0.0490 Uani
H50 H 0.0290 0.7549 0.0922 0.0730 Uiso
H51 H 0.0470 0.8344 0.0267 0.0730 Uiso
C94 C 0.1681(18) 0.6368(11) 0.0469(9) 0.0544 Uani
H52 H 0.2536 0.6084 0.0231 0.0810 Uiso
H53 H 0.1734 0.6472 0.0916 0.0810 Uiso
H54 H 0.1103 0.5989 0.0564 0.0810 Uiso
N1 N 0.8802(13) 0.2812(9) 0.9976(7) 0.0433 Uani
C46 C 0.9724(16) 0.2229(12) 0.9581(8) 0.0490 Uani
H23 H 0.9710 0.2451 0.9078 0.0730 Uiso
H24 H 0.9530 0.1656 0.9733 0.0730 Uiso
C47 C 0.8319(18) 0.3632(11) 0.9531(9) 0.0544 Uani
H25 H 0.7464 0.3916 0.9769 0.0810 Uiso
H26 H 0.8266 0.3528 0.9084 0.0810 Uiso
H27 H 0.8897 0.4011 0.9436 0.0810 Uiso
loop_
_atom_site_aniso_label
_atom_site_aniso_U_11
_atom_site_aniso_U_22
_atom_site_aniso_U_33
_atom_site_aniso_U_23
_atom_site_aniso_U_13
_atom_site_aniso_U_12
Eu15 0.01698 0.01894 0.0312 -0.00866 -0.00303 -0.00498
O5 0.072 0.046 0.048 0.009 -0.002 0.007
O14 0.042 0.029 0.039 -0.012 0.008 -0.009
O15 0.032 0.024 0.053 -0.01 0.011 -0.01
C34 0.035 0.039 0.031 -0.009 0.003 -0.015
C35 0.038 0.025 0.025 -0.009 0.009 -0.006
C40 0.053 0.035 0.035 -0.023 0.021 -0.023
C42 0.121 0.059 0.036 -0.018 0.025 -0.071
O25 0.037 0.039 0.048 -0.02 0.002 -0.019
O26 0.042 0.055 0.046 -0.029 0.018 -0.029
C61 0.046 0.03 0.04 -0.016 0.002 -0.015
C62 0.047 0.034 0.03 -0.016 0.002 -0.014
C63 0.051 0.04 0.041 -0.02 0.009 -0.025
C64 0.061 0.036 0.036 -0.008 0.012 -0.031
C66 0.037 0.029 0.041 -0.01 0.001 -0.007
C68 0.079 0.034 0.041 -0.02 0.014 -0.036
C69 0.11 0.087 0.041 -0.027 0.032 -0.078
Eu7 0.01615 0.01695 0.0318 -0.0059 -0.00329 -0.00517
O45 0.017 0.024 0.068 -0.012 -0.014 -0.008
O47 0.022 0.021 0.089 -0.024 -0.01 -0.003
O16 0.037 0.039 0.048 -0.02 0.002 -0.019
O17 0.042 0.055 0.046 -0.029 0.018 -0.029
C36 0.046 0.03 0.04 -0.016 0.002 -0.015
C37 0.047 0.034 0.03 -0.016 0.002 -0.014
C38 0.051 0.04 0.041 -0.02 0.009 -0.025
C39 0.061 0.036 0.036 -0.008 0.012 -0.031
C41 0.037 0.029 0.041 -0.01 0.001 -0.007
C43 0.079 0.034 0.041 -0.02 0.014 -0.036
C44 0.11 0.087 0.041 -0.027 0.032 -0.078
O23 0.042 0.029 0.039 -0.012 0.008 -0.009
O24 0.032 0.024 0.053 -0.01 0.011 -0.01
C59 0.035 0.039 0.031 -0.009 0.003 -0.015
C60 0.038 0.025 0.025 -0.009 0.009 -0.006
C65 0.053 0.035 0.035 -0.023 0.021 -0.023
C67 0.121 0.059 0.036 -0.018 0.025 -0.071
Eu10 0.01615 0.01695 0.0318 -0.0059 -0.00329 -0.00517
O1 0.046 0.033 0.027 -0.006 -0.003 -0.022
O2 0.039 0.035 0.035 -0.011 0.001 -0.021
O3 0.051 0.032 0.037 -0.013 -0.004 -0.022
O4 0.033 0.026 0.032 -0.007 -0.004 -0.007
O11 0.02 0.025 0.065 -0.009 -0.006 -0.004
O12 0.026 0.027 0.07 -0.012 -0.018 -0.009
C1 0.027 0.027 0.029 -0.005 -0.009 -0.01
C2 0.037 0.029 0.029 -0.004 -0.003 -0.011
C3 0.035 0.029 0.028 -0.012 0.001 -0.013
C4 0.036 0.031 0.025 -0.007 -0.002 -0.016
C5 0.054 0.046 0.026 -0.008 0 -0.032
C6 0.07 0.039 0.028 -0.008 -0.005 -0.038
C7 0.049 0.048 0.032 -0.015 0.004 -0.032
C8 0.025 0.03 0.039 -0.012 -0.003 -0.011
C9 0.077 0.045 0.027 -0.005 -0.001 -0.046
C10 0.137 0.07 0.041 -0.005 -0.006 -0.077
C11 0.115 0.085 0.035 -0.01 -0.013 -0.073
C12 0.019 0.027 0.037 -0.01 -0.003 -0.006
C17 0.025 0.022 0.034 -0.008 -0.006 -0.006
C18 0.015 0.018 0.046 -0.008 -0.012 -0.005
C20 0.026 0.015 0.037 -0.004 -0.005 -0.007
C21 0.028 0.016 0.064 -0.013 -0.016 0.004
C22 0.03 0.014 0.065 -0.009 -0.016 -0.007
C23 0.021 0.02 0.031 -0.001 -0.004 -0.005
C24 0.021 0.019 0.068 -0.009 -0.016 -0.006
C25 0.026 0.023 0.057 -0.014 -0.016 -0.002
C26 0.02 0.018 0.032 -0.003 -0.008 -0.005
C27 0.021 0.017 0.038 -0.008 -0.006 -0.001
C28 0.016 0.019 0.036 -0.002 -0.008 -0.003
C29 0.016 0.016 0.042 -0.011 -0.006 0
C30 0.021 0.019 0.031 -0.009 -0.003 -0.005
C31 0.016 0.024 0.041 -0.007 -0.002 -0.006
C32 0.021 0.018 0.039 -0.012 -0.011 -0.003
C33 0.02 0.028 0.027 -0.009 -0.005 -0.007
O18 0.02 0.028 0.099 -0.017 -0.019 -0.009
O29 0.015 0.027 0.074 -0.023 -0.017 0.004
O30 0.021 0.024 0.068 -0.001 -0.013 -0.008
C71 0.022 0.017 0.045 -0.007 -0.012 -0.009
C72 0.021 0.019 0.05 -0.011 -0.007 -0.004
C73 0.022 0.027 0.044 -0.009 -0.005 -0.009
C74 0.018 0.018 0.052 -0.008 -0.009 -0.008
C77 0.017 0.026 0.041 -0.009 -0.007 -0.004
Eu12 0.01698 0.01894 0.0312 -0.00866 -0.00303 -0.00498
O41 0.015 0.027 0.074 -0.023 -0.017 0.004
O43 0.021 0.024 0.068 -0.001 -0.013 -0.008
O28 0.025 0.016 0.103 -0.023 -0.008 -0.001
O35 0.03 0.053 0.022 -0.015 -0.012 -0.013
C92 0.036 0.056 0.027 -0.012 -0.009 -0.012
O50 0.02 0.025 0.065 -0.009 -0.006 -0.004
O52 0.026 0.027 0.07 -0.012 -0.018 -0.009
O6 0.025 0.016 0.103 -0.023 -0.008 -0.001
O13 0.03 0.053 0.022 -0.015 -0.012 -0.013
C45 0.036 0.056 0.027 -0.012 -0.009 -0.012
O38 0.051 0.032 0.037 -0.013 -0.004 -0.022
O40 0.033 0.026 0.032 -0.007 -0.004 -0.007
C13 0.022 0.017 0.045 -0.007 -0.012 -0.009
C14 0.021 0.019 0.05 -0.011 -0.007 -0.004
C15 0.022 0.027 0.044 -0.009 -0.005 -0.009
C16 0.018 0.018 0.052 -0.008 -0.009 -0.008
C19 0.017 0.026 0.041 -0.009 -0.007 -0.004
O19 0.046 0.033 0.027 -0.006 -0.003 -0.022
O20 0.039 0.035 0.035 -0.011 0.001 -0.021
C48 0.027 0.027 0.029 -0.005 -0.009 -0.01
C49 0.037 0.029 0.029 -0.004 -0.003 -0.011
C50 0.035 0.029 0.028 -0.012 0.001 -0.013
C51 0.036 0.031 0.025 -0.007 -0.002 -0.016
C52 0.054 0.046 0.026 -0.008 0 -0.032
C53 0.07 0.039 0.028 -0.008 -0.005 -0.038
C54 0.049 0.048 0.032 -0.015 0.004 -0.032
C55 0.025 0.03 0.039 -0.012 -0.003 -0.011
C56 0.077 0.045 0.027 -0.005 -0.001 -0.046
C57 0.137 0.07 0.041 -0.005 -0.006 -0.077
C58 0.115 0.085 0.035 -0.01 -0.013 -0.073
O31 0.017 0.024 0.068 -0.012 -0.014 -0.008
O32 0.022 0.021 0.089 -0.024 -0.01 -0.003
C70 0.019 0.027 0.037 -0.01 -0.003 -0.006
C75 0.025 0.022 0.034 -0.008 -0.006 -0.006
C76 0.015 0.018 0.046 -0.008 -0.012 -0.005
C78 0.026 0.015 0.037 -0.004 -0.005 -0.007
C79 0.028 0.016 0.064 -0.013 -0.016 0.004
C80 0.03 0.014 0.065 -0.009 -0.016 -0.007
C81 0.021 0.02 0.031 -0.001 -0.004 -0.005
C82 0.021 0.019 0.068 -0.009 -0.016 -0.006
C83 0.026 0.023 0.057 -0.014 -0.016 -0.002
C84 0.02 0.018 0.032 -0.003 -0.008 -0.005
C85 0.021 0.017 0.038 -0.008 -0.006 -0.001
C86 0.016 0.019 0.036 -0.002 -0.008 -0.003
C87 0.016 0.016 0.042 -0.011 -0.006 0
C88 0.021 0.019 0.031 -0.009 -0.003 -0.005
C89 0.016 0.024 0.041 -0.007 -0.002 -0.006
C90 0.021 0.018 0.039 -0.012 -0.011 -0.003
C91 0.02 0.028 0.027 -0.009 -0.005 -0.007
O36 0.02 0.028 0.099 -0.017 -0.019 -0.009
O27 0.072 0.046 0.048 0.009 -0.002 0.007
N2 0.041 0.059 0.028 -0.008 -0.009 -0.009
C93 0.048 0.064 0.029 -0.01 -0.006 -0.007
C94 0.051 0.064 0.035 -0.003 -0.006 -0.005
N1 0.041 0.059 0.028 -0.008 -0.009 -0.009
C46 0.048 0.064 0.029 -0.01 -0.006 -0.007
C47 0.051 0.064 0.035 -0.003 -0.006 -0.005
loop_
_geom_bond_atom_site_label_1
_geom_bond_atom_site_label_2
_geom_bond_site_symmetry_1
_geom_bond_site_symmetry_2
C34 O14 1_555 1_555
C35 C34 1_555 1_555
C40 C35 1_555 1_555
H18 C40 1_555 1_555
C42 H19 1_555 1_555
O25 C66 1_555 1_555
O26 C66 1_555 1_555
C61 H33 1_555 1_555
C62 C61 1_555 1_555
C63 C62 1_555 1_555
H34 C63 1_555 1_555
C64 C63 1_555 1_555
C66 C62 1_555 1_555
C68 C64 1_555 1_555
C69 C42 1_555 1_555
H37 C69 1_555 1_555
Eu7 O25 1_555 1_555
O15 C34 1_555 1_555
O26 Eu7 1_555 1_555
C68 C69 1_555 1_555
O5 H57 1_555 1_555
O5 H58 1_555 1_555
O16 C41 1_555 1_555
O17 C41 1_555 1_555
H16 C36 1_555 1_555
C37 C36 1_555 1_555
C38 C37 1_555 1_555
H17 C38 1_555 1_555
C39 C38 1_555 1_555
C41 C37 1_555 1_555
C43 C39 1_555 1_555
C44 C43 1_555 1_555
H20 C44 1_555 1_555
O23 C59 1_555 1_555
O24 C59 1_555 1_555
C59 C60 1_555 1_555
C65 C60 1_555 1_555
H35 C65 1_555 1_555
C67 C44 1_555 1_555
H36 C67 1_555 1_555
Eu10 O16 1_555 1_555
O17 Eu10 1_555 1_555
Eu7 O1 1_555 1_555
O1 C1 1_555 1_555
O2 Eu7 1_555 1_555
O3 C8 1_555 1_555
O4 C8 1_555 1_555
O45 C33 1_555 1_555
O47 C33 1_555 1_555
O11 C32 1_555 1_555
O12 C32 1_555 1_555
C1 O2 1_555 1_555
C2 C1 1_555 1_555
C3 C2 1_555 1_555
H1 C3 1_555 1_555
C4 C3 1_555 1_555
C5 C4 1_555 1_555
H2 C5 1_555 1_555
C6 C5 1_555 1_555
C7 C2 1_555 1_555
H3 C7 1_555 1_555
C8 C4 1_555 1_555
C9 C6 1_555 1_555
C10 C9 1_555 1_555
H4 C10 1_555 1_555
C11 C9 1_555 1_555
H5 C11 1_555 1_555
H8 C18 1_555 1_555
C20 C17 1_555 1_555
C21 C20 1_555 1_555
C22 C21 1_555 1_555
H10 C22 1_555 1_555
C23 C22 1_555 1_555
C24 C23 1_555 1_555
H11 C24 1_555 1_555
C25 C20 1_555 1_555
H12 C25 1_555 1_555
C26 C23 1_555 1_555
C27 C26 1_555 1_555
H13 C27 1_555 1_555
C28 C27 1_555 1_555
C29 C28 1_555 1_555
H14 C29 1_555 1_555
C30 C29 1_555 1_555
C31 C26 1_555 1_555
H15 C31 1_555 1_555
C32 C28 1_555 1_555
C33 C30 1_555 1_555
O18 Eu7 1_555 1_555
O29 C77 1_555 1_555
O30 C77 1_555 1_555
C71 C72 1_555 1_555
C72 H38 1_555 1_555
C73 C72 1_555 1_555
C74 C73 1_555 1_555
H39 C74 1_555 1_555
C77 C73 1_555 1_555
Eu10 O29 1_555 1_555
Eu12 O11 1_555 1_555
Eu15 O3 1_555 1_555
O41 Eu7 1_555 1_555
O43 Eu7 1_555 1_555
O4 Eu15 1_555 1_555
O12 Eu12 1_555 1_555
C6 C7 1_555 1_555
C12 O18 1_555 1_555
C17 C18 1_555 1_555
C24 C25 1_555 1_555
C30 C31 1_555 1_555
O30 Eu10 1_555 1_555
Eu15 O28 1_555 1_555
O35 Eu15 1_555 1_555
C92 O35 1_555 1_555
H48 C92 1_555 1_555
O50 Eu15 1_555 1_555
O52 Eu15 1_555 1_555
Eu12 O6 1_555 1_555
O13 Eu12 1_555 1_555
C45 O13 1_555 1_555
H21 C45 1_555 1_555
O38 Eu12 1_555 1_555
O40 Eu12 1_555 1_555
O41 C19 1_555 1_555
O43 C19 1_555 1_555
C13 C14 1_555 1_555
C14 H6 1_555 1_555
C15 C14 1_555 1_555
C16 C15 1_555 1_555
H7 C16 1_555 1_555
C19 C15 1_555 1_555
O19 C48 1_555 1_555
O20 C48 1_555 1_555
O38 C55 1_555 1_555
O40 C55 1_555 1_555
C48 C49 1_555 1_555
C49 C50 1_555 1_555
C50 H28 1_555 1_555
C51 C50 1_555 1_555
C52 C51 1_555 1_555
H29 C52 1_555 1_555
C53 C52 1_555 1_555
C54 C49 1_555 1_555
H30 C54 1_555 1_555
C55 C51 1_555 1_555
C56 C53 1_555 1_555
H31 C57 1_555 1_555
H32 C58 1_555 1_555
Eu10 O19 1_555 1_555
O31 C91 1_555 1_555
O32 C91 1_555 1_555
O50 C90 1_555 1_555
O52 C90 1_555 1_555
H40 C76 1_555 1_555
C78 C75 1_555 1_555
C79 C78 1_555 1_555
C80 C79 1_555 1_555
H42 C80 1_555 1_555
C81 C80 1_555 1_555
C82 C81 1_555 1_555
H43 C82 1_555 1_555
C83 C78 1_555 1_555
H44 C83 1_555 1_555
C84 C81 1_555 1_555
C85 C84 1_555 1_555
H45 C85 1_555 1_555
C86 C85 1_555 1_555
C87 C86 1_555 1_555
H46 C87 1_555 1_555
C88 C87 1_555 1_555
C89 C84 1_555 1_555
H47 C89 1_555 1_555
C90 C86 1_555 1_555
C91 C88 1_555 1_555
O36 Eu10 1_555 1_555
O20 Eu10 1_555 1_555
C53 C54 1_555 1_555
C56 C57 1_555 1_555
C56 C58 1_555 1_555
C70 O36 1_555 1_555
C75 C76 1_555 1_555
C82 C83 1_555 1_555
C88 C89 1_555 1_555
O27 H56 1_555 1_555
O27 H57_2 1_555 1_555
C93 N2 1_555 1_555
H50 C93 1_555 1_555
H51 C93 1_555 1_555
C94 N2 1_555 1_555
H52 C94 1_555 1_555
H53 C94 1_555 1_555
H54 C94 1_555 1_555
C46 N1 1_555 1_555
H23 C46 1_555 1_555
H24 C46 1_555 1_555
C47 N1 1_555 1_555
H25 C47 1_555 1_555
H26 C47 1_555 1_555
H27 C47 1_555 1_555

#END
