
###############################################################################
#
# This file contains modified crystal structure data generated from the
# MOF subset of the Cambridge Structural Database (CSD) v543 
# hosted by the Cambridge Crystallographic Data Centre (CCDC).
#
# This work is licensed under the Creative Commons
# Attribution-NonCommercial-ShareAlike 4.0 International License.
# To view a copy of this license, visit
# http://creativecommons.org/licenses/by-nc-sa/4.0/
# or send a letter to
# Creative Commons, PO Box 1866, Mountain View, CA 94042, USA.
#
# CIF created using the CSD Python API on 29 September 2022
# The structure has been converted into the P1 space group
# The structure has a 3D framework
# The original CSD entry WIPPIW is in the orthorhombic crystal system
# The framework has been calculated to contain at least 10.0% void space
# The void calculation uses a probe of radius 1.32A, grid spacing 0.4
# The framework is charged, counterions have been retained in the structure
#
###############################################################################

data_WIPPIW
_chemical_formula_moiety         '(C800 H512 Cd48 N16 O254 16-)n'
_symmetry_cell_setting           triclinic
_symmetry_space_group_name_H-M   'P 1'
_symmetry_Int_Tables_number      1
_space_group_name_Hall           'P 1'
loop_
_symmetry_equiv_pos_site_id
_symmetry_equiv_pos_as_xyz
1 x,y,z
_cell_length_a                   32.68(7)
_cell_length_b                   34.95(8)
_cell_length_c                   25.12(4)
_cell_angle_alpha                90
_cell_angle_beta                 90
_cell_angle_gamma                90
_cell_volume                     28691.2
loop_
_atom_site_label
_atom_site_type_symbol
_atom_site_fract_x
_atom_site_fract_y
_atom_site_fract_z
N1 N 0.5369(5) 0.2941(5) 0.5166(9)
H1 H 0.5422 0.3106 0.4901
H2 H 0.5601 0.2916 0.5357
C1 C 0.5042(8) 0.3117(7) 0.5527(12)
H3 H 0.5133 0.3362 0.5651
H4 H 0.4995 0.2952 0.5827
H5 H 0.4792 0.3147 0.5330
C2 C 0.5278(7) 0.2584(7) 0.4939(10)
H6 H 0.5498 0.2507 0.4710
H7 H 0.5030 0.2604 0.4735
H8 H 0.5243 0.2398 0.5216
N1_2 N 0.4631(5) 0.7059(5) 0.5166(9)
H1_2 H 0.4578 0.6894 0.4901
H2_2 H 0.4399 0.7084 0.5357
C1_2 C 0.4958(8) 0.6883(7) 0.5527(12)
H3_2 H 0.4867 0.6638 0.5651
H4_2 H 0.5005 0.7048 0.5827
H5_2 H 0.5208 0.6853 0.5330
C2_2 C 0.4722(7) 0.7416(7) 0.4939(10)
H6_2 H 0.4502 0.7493 0.4710
H7_2 H 0.4970 0.7396 0.4735
H8_2 H 0.4757 0.7602 0.5216
H8_3 H 0.7743 0.0102 0.7716
N1_3 N 0.7869(5) 0.9559(5) 0.7666(9)
H1_3 H 0.7922 0.9394 0.7401
H2_3 H 0.8101 0.9584 0.7857
C1_3 C 0.7542(8) 0.9383(7) 0.8027(12)
H3_3 H 0.7633 0.9138 0.8151
H4_3 H 0.7495 0.9548 0.8327
H5_3 H 0.7292 0.9353 0.7830
C2_3 C 0.7778(7) 0.9916(7) 0.7439(10)
H6_3 H 0.7998 0.9993 0.7210
H7_3 H 0.7530 0.9896 0.7235
N1_4 N 0.7131(5) 0.5441(5) 0.7666(9)
H1_4 H 0.7078 0.5606 0.7401
H2_4 H 0.6899 0.5416 0.7857
C1_4 C 0.7458(8) 0.5617(7) 0.8027(12)
H3_4 H 0.7367 0.5862 0.8151
H4_4 H 0.7505 0.5452 0.8327
H5_4 H 0.7708 0.5647 0.7830
C2_4 C 0.7222(7) 0.5084(7) 0.7439(10)
H6_4 H 0.7002 0.5007 0.7210
H7_4 H 0.7470 0.5104 0.7235
H8_4 H 0.7257 0.4898 0.7716
N1_5 N 0.5369(5) 0.7941(5) 0.0166(9)
H2_5 H 0.5601 0.7916 0.0357
C1_5 C 0.5042(8) 0.8117(7) 0.0527(12)
H3_5 H 0.5133 0.8362 0.0651
H4_5 H 0.4995 0.7952 0.0827
H5_5 H 0.4792 0.8147 0.0330
H8_5 H 0.5243 0.7398 0.0216
H1_5 H 0.5422 0.8106 0.9901
C2_5 C 0.5278(7) 0.7584(7) 0.9939(10)
H6_5 H 0.5498 0.7507 0.9710
H7_5 H 0.5030 0.7604 0.9735
N1_6 N 0.4631(5) 0.2059(5) 0.0166(9)
H2_6 H 0.4399 0.2084 0.0357
C1_6 C 0.4958(8) 0.1883(7) 0.0527(12)
H3_6 H 0.4867 0.1638 0.0651
H4_6 H 0.5005 0.2048 0.0827
H5_6 H 0.5208 0.1853 0.0330
H8_6 H 0.4757 0.2602 0.0216
H1_6 H 0.4578 0.1894 0.9901
C2_6 C 0.4722(7) 0.2416(7) 0.9939(10)
H6_6 H 0.4502 0.2493 0.9710
H7_6 H 0.4970 0.2396 0.9735
N1_7 N 0.7869(5) 0.4559(5) 0.2666(9)
H1_7 H 0.7922 0.4394 0.2401
H2_7 H 0.8101 0.4584 0.2857
C1_7 C 0.7542(8) 0.4383(7) 0.3027(12)
H3_7 H 0.7633 0.4138 0.3151
H4_7 H 0.7495 0.4548 0.3327
H5_7 H 0.7292 0.4353 0.2830
C2_7 C 0.7778(7) 0.4916(7) 0.2439(10)
H6_7 H 0.7998 0.4993 0.2210
H7_7 H 0.7530 0.4896 0.2235
H8_7 H 0.7743 0.5102 0.2716
N1_8 N 0.7131(5) 0.0441(5) 0.2666(9)
H1_8 H 0.7078 0.0606 0.2401
H2_8 H 0.6899 0.0416 0.2857
C1_8 C 0.7458(8) 0.0617(7) 0.3027(12)
H3_8 H 0.7367 0.0862 0.3151
H4_8 H 0.7505 0.0452 0.3327
H5_8 H 0.7708 0.0647 0.2830
C2_8 C 0.7222(7) 0.0084(7) 0.2439(10)
H6_8 H 0.7002 0.0007 0.2210
H7_8 H 0.7470 0.0104 0.2235
H8_8 H 0.7257 0.9898 0.2716
N1_9 N 0.0369(5) 0.2941(5) 0.0166(9)
H2_9 H 0.0601 0.2916 0.0357
C1_9 C 0.0042(8) 0.3117(7) 0.0527(12)
H3_9 H 0.0133 0.3362 0.0651
H8_9 H 0.0243 0.2398 0.0216
H1_9 H 0.0422 0.3106 0.9901
C2_9 C 0.0278(7) 0.2584(7) 0.9939(10)
H6_9 H 0.0498 0.2507 0.9710
H7_9 H 0.0030 0.2604 0.9735
H4_9 H 0.9995 0.2952 0.0827
H5_9 H 0.9792 0.3147 0.0330
H4_10 H 0.0005 0.7048 0.0827
H5_10 H 0.0208 0.6853 0.0330
N1_10 N 0.9631(5) 0.7059(5) 0.0166(9)
H2_10 H 0.9399 0.7084 0.0357
C1_10 C 0.9958(8) 0.6883(7) 0.0527(12)
H3_10 H 0.9867 0.6638 0.0651
H8_10 H 0.9757 0.7602 0.0216
H1_10 H 0.9578 0.6894 0.9901
C2_10 C 0.9722(7) 0.7416(7) 0.9939(10)
H6_10 H 0.9502 0.7493 0.9710
H7_10 H 0.9970 0.7396 0.9735
H8_11 H 0.2743 0.0102 0.2716
N1_11 N 0.2869(5) 0.9559(5) 0.2666(9)
H1_11 H 0.2922 0.9394 0.2401
H2_11 H 0.3101 0.9584 0.2857
C1_11 C 0.2542(8) 0.9383(7) 0.3027(12)
H3_11 H 0.2633 0.9138 0.3151
H4_11 H 0.2495 0.9548 0.3327
H5_11 H 0.2292 0.9353 0.2830
C2_11 C 0.2778(7) 0.9916(7) 0.2439(10)
H6_11 H 0.2998 0.9993 0.2210
H7_11 H 0.2530 0.9896 0.2235
N1_12 N 0.2131(5) 0.5441(5) 0.2666(9)
H1_12 H 0.2078 0.5606 0.2401
H2_12 H 0.1899 0.5416 0.2857
C1_12 C 0.2458(8) 0.5617(7) 0.3027(12)
H3_12 H 0.2367 0.5862 0.3151
H4_12 H 0.2505 0.5452 0.3327
H5_12 H 0.2708 0.5647 0.2830
C2_12 C 0.2222(7) 0.5084(7) 0.2439(10)
H6_12 H 0.2002 0.5007 0.2210
H7_12 H 0.2470 0.5104 0.2235
H8_12 H 0.2257 0.4898 0.2716
N1_13 N 0.0369(5) 0.7941(5) 0.5166(9)
H1_13 H 0.0422 0.8106 0.4901
H2_13 H 0.0601 0.7916 0.5357
C1_13 C 0.0042(8) 0.8117(7) 0.5527(12)
H3_13 H 0.0133 0.8362 0.5651
C2_13 C 0.0278(7) 0.7584(7) 0.4939(10)
H6_13 H 0.0498 0.7507 0.4710
H7_13 H 0.0030 0.7604 0.4735
H8_13 H 0.0243 0.7398 0.5216
H4_13 H 0.9995 0.7952 0.5827
H5_13 H 0.9792 0.8147 0.5330
H4_14 H 0.0005 0.2048 0.5827
H5_14 H 0.0208 0.1853 0.5330
N1_14 N 0.9631(5) 0.2059(5) 0.5166(9)
H1_14 H 0.9578 0.1894 0.4901
H2_14 H 0.9399 0.2084 0.5357
C1_14 C 0.9958(8) 0.1883(7) 0.5527(12)
H3_14 H 0.9867 0.1638 0.5651
C2_14 C 0.9722(7) 0.2416(7) 0.4939(10)
H6_14 H 0.9502 0.2493 0.4710
H7_14 H 0.9970 0.2396 0.4735
H8_14 H 0.9757 0.2602 0.5216
N1_15 N 0.2869(5) 0.4559(5) 0.7666(9)
H1_15 H 0.2922 0.4394 0.7401
H2_15 H 0.3101 0.4584 0.7857
C1_15 C 0.2542(8) 0.4383(7) 0.8027(12)
H3_15 H 0.2633 0.4138 0.8151
H4_15 H 0.2495 0.4548 0.8327
H5_15 H 0.2292 0.4353 0.7830
C2_15 C 0.2778(7) 0.4916(7) 0.7439(10)
H6_15 H 0.2998 0.4993 0.7210
H7_15 H 0.2530 0.4896 0.7235
H8_15 H 0.2743 0.5102 0.7716
N1_16 N 0.2131(5) 0.0441(5) 0.7666(9)
H1_16 H 0.2078 0.0606 0.7401
H2_16 H 0.1899 0.0416 0.7857
C1_16 C 0.2458(8) 0.0617(7) 0.8027(12)
H3_16 H 0.2367 0.0862 0.8151
H4_16 H 0.2505 0.0452 0.8327
H5_16 H 0.2708 0.0647 0.7830
C2_16 C 0.2222(7) 0.0084(7) 0.7439(10)
H6_16 H 0.2002 0.0007 0.7210
H7_16 H 0.2470 0.0104 0.7235
H8_16 H 0.2257 0.9898 0.7716
C16 C 0.6653(5) 0.3292(4) 0.0344(8)
C17 C 0.6515(4) 0.3000(3) 0.0724(5)
H16 H 0.6580 0.3022 0.1095
C18 C 0.6268(5) 0.2721(4) 0.0522(7)
H17 H 0.6153 0.2546 0.0758
H20 H 0.5817 0.2202 0.0021
C25 C 0.6941(5) 0.3609(4) 0.0537(8)
O5 O 0.7038(3) 0.3562(3) 0.1000(5)
O6 O 0.7047(3) 0.3840(3) 0.0214(5)
C29 C 0.4206(6) 0.0753(5) 0.0261(9)
H22 H 0.4378 0.0941 0.0396
C30 C 0.3994(7) 0.0537(7) 0.0626(10)
H23 H 0.4015 0.0587 0.0989
C31 C 0.3755(6) 0.0251(6) 0.0447(9)
C36 C 0.3575(6) 0.0057(5) 0.0873(9)
H26 H 0.3618 0.0087 0.1249
Cd4 Cd 0.75214(2) 0.39656(2) 0.13496(4)
Cd8 Cd 0.78199(3) 0.05390(3) 0.02117(5)
Cd9 Cd 0.71801(3) 0.44610(3) 0.02117(5)
Cd1 Cd 0.49786(2) 0.14656(2) 0.88496(4)
Cd2 Cd 0.56981(3) 0.24939(3) 0.66463(5)
Cd3 Cd 0.53199(3) 0.19610(3) 0.77117(5)
C3 C 0.6454(5) 0.1628(4) 0.7849(8)
H9 H 0.6269 0.1772 0.8046
C4 C 0.6468(4) 0.1681(3) 0.7355(7)
C5 C 0.6753(5) 0.1431(5) 0.6991(8)
H10 H 0.6774 0.1469 0.6613
C6 C 0.6983(5) 0.1141(6) 0.7308(9)
H11 H 0.7140 0.0964 0.7121
C7 C 0.6983(4) 0.1118(4) 0.7793(8)
C8 C 0.6717(5) 0.1347(5) 0.8138(9)
C9 C 0.6712(6) 0.1289(5) 0.8690(9)
H12 H 0.6499 0.1407 0.8896
C10 C 0.6975(6) 0.1045(6) 0.8918(8)
H13 H 0.6972 0.1015 0.9286
C11 C 0.7253(5) 0.0835(4) 0.8618(7)
C12 C 0.7266(5) 0.0861(5) 0.8078(10)
H14 H 0.7454 0.0716 0.7887
C13 C 0.6191(5) 0.1936(4) 0.6999(8)
C14 C 0.7589(6) 0.0562(6) 0.8850(10)
O1 O 0.6263(3) 0.1987(3) 0.6548(5)
O2 O 0.5940(3) 0.2115(3) 0.7329(4)
O3 O 0.7541(3) 0.0567(3) 0.9376(6)
O4 O 0.7778(3) 0.0339(3) 0.8610(5)
C15 C 0.6582(5) 0.3251(4) 0.9845(8)
H15 H 0.6702 0.3415 0.9599
C19 C 0.6180(4) 0.2682(4) 0.9997(7)
C20 C 0.6315(5) 0.2949(4) 0.9669(8)
C21 C 0.6249(6) 0.2939(4) 0.9088(10)
H18 H 0.6375 0.3115 0.8864
C22 C 0.5976(5) 0.2640(5) 0.8875(7)
H19 H 0.5887 0.2636 0.8511
C23 C 0.5838(4) 0.2353(4) 0.9267(7)
C24 C 0.5925(4) 0.2382(3) 0.9788(6)
C26 C 0.5578(5) 0.2029(5) 0.9040(8)
O7 O 0.5573(3) 0.2012(3) 0.8542(6)
O8 O 0.5382(3) 0.1846(3) 0.9357(4)
C27 C 0.3936(6) 0.0455(6) 0.9458(9)
H21 H 0.3908 0.0400 0.9098
C28 C 0.4186(6) 0.0718(5) 0.9715(9)
C32 C 0.3735(6) 0.0296(6) 0.9904(9)
C33 C 0.3502(7) 0.0017(6) 0.9683(9)
C37 C 0.4506(6) 0.0985(5) 0.9393(10)
O9 O 0.4476(3) 0.0988(3) 0.8911(5)
O10 O 0.4697(4) 0.1208(4) 0.9666(5)
C39 C 0.7281(5) 0.4277(4) 0.5702(5)
H27 H 0.7415 0.4437 0.5961
C40 C 0.7356(4) 0.4335(4) 0.5164(6)
C41 C 0.7140(5) 0.4121(5) 0.4788(5)
H28 H 0.7156 0.4185 0.4429
C42 C 0.6900(7) 0.3812(6) 0.4949(5)
H29 H 0.6824 0.3614 0.4702
C43 C 0.6814(4) 0.3767(3) 0.5470(5)
C44 C 0.7006(4) 0.3993(4) 0.5866(4)
C45 C 0.6931(5) 0.3906(5) 0.6393(5)
H30 H 0.7061 0.4045 0.6676
C46 C 0.6675(5) 0.3606(5) 0.6535(6)
H31 H 0.6577 0.3543 0.6884
C47 C 0.6486(4) 0.3389(4) 0.6139(7)
C48 C 0.6558(5) 0.3463(4) 0.5610(7)
H32 H 0.6414 0.3303 0.5361
C49 C 0.7627(5) 0.4650(5) 0.4965(9)
C50 C 0.6181(7) 0.3055(6) 0.6234(14)
O13 O 0.7704(3) 0.4931(3) 0.5239(4)
O14 O 0.7725(3) 0.4619(3) 0.4489(6)
O15 O 0.5969(5) 0.2859(4) 0.5951(7)
O16 O 0.6201(4) 0.2976(4) 0.6737(7)
Cd6 Cd 0.81981(3) 0.00061(3) 0.91463(5)
Cd7 Cd 0.81981(3) 0.50061(3) 0.41463(5)
Cd10 Cd 0.78199(3) 0.55390(3) 0.52117(5)
O17 O 0.5041(3) 0.1933(3) 0.6876(6)
O18 O 0.5278(3) 0.2161(3) 0.6110(5)
O19 O 0.5462(3) 0.1062(3) 0.8500(5)
O20 O 0.5453(3) 0.1340(3) 0.7714(5)
O21 O 0.4432(3) 0.1970(3) 0.8908(6)
O22 O 0.4702(3) 0.1810(2) 0.8119(4)
O23 O 0.5204(3) 0.2569(3) 0.7739(4)
O24 O 0.5225(3) 0.2881(3) 0.6989(6)
C34 C 0.3310(5) 0.9805(5) 0.0087(8)
C35 C 0.3306(5) 0.9797(5) 0.0646(8)
C38 C 0.3032(4) 0.9492(4) 0.0903(8)
O11 O 0.3068(3) 0.9470(3) 0.1408(6)
O12 O 0.2798(3) 0.9310(2) 0.0619(4)
Cd5 Cd 0.25214(2) 0.89656(2) 0.13496(4)
Cd11 Cd 0.21801(3) 0.94610(3) 0.02117(5)
C34_2 C 0.6690(5) 0.0195(5) 0.0087(8)
C35_2 C 0.6694(5) 0.0203(5) 0.0646(8)
C38_2 C 0.6968(4) 0.0508(4) 0.0903(8)
O11_2 O 0.6932(3) 0.0530(3) 0.1408(6)
O12_2 O 0.7202(3) 0.0690(2) 0.0619(4)
Cd5_2 Cd 0.74786(2) 0.10344(2) 0.13496(4)
C16_2 C 0.3347(5) 0.6708(4) 0.0344(8)
C17_2 C 0.3485(4) 0.7000(3) 0.0724(5)
H16_2 H 0.3420 0.6978 0.1095
C18_2 C 0.3732(5) 0.7279(4) 0.0522(7)
H17_2 H 0.3847 0.7454 0.0758
H20_2 H 0.4183 0.7798 0.0021
C25_2 C 0.3059(5) 0.6391(4) 0.0537(8)
O5_2 O 0.2962(3) 0.6438(3) 0.1000(5)
O6_2 O 0.2953(3) 0.6160(3) 0.0214(5)
C29_2 C 0.5794(6) 0.9247(5) 0.0261(9)
H22_2 H 0.5622 0.9059 0.0396
C30_2 C 0.6006(7) 0.9463(7) 0.0626(10)
H23_2 H 0.5985 0.9413 0.0989
C31_2 C 0.6245(6) 0.9749(6) 0.0447(9)
C36_2 C 0.6425(6) 0.9943(5) 0.0873(9)
H26_2 H 0.6382 0.9913 0.1249
Cd4_2 Cd 0.24786(2) 0.60344(2) 0.13496(4)
Cd9_2 Cd 0.28199(3) 0.55390(3) 0.02117(5)
Cd1_2 Cd 0.50214(2) 0.85344(2) 0.88496(4)
Cd2_2 Cd 0.43019(3) 0.75061(3) 0.66463(5)
Cd3_2 Cd 0.46801(3) 0.80390(3) 0.77117(5)
C3_2 C 0.3546(5) 0.8372(4) 0.7849(8)
H9_2 H 0.3731 0.8228 0.8046
C4_2 C 0.3532(4) 0.8319(3) 0.7355(7)
C5_2 C 0.3247(5) 0.8569(5) 0.6991(8)
H10_2 H 0.3226 0.8531 0.6613
C6_2 C 0.3017(5) 0.8859(6) 0.7308(9)
H11_2 H 0.2860 0.9036 0.7121
C7_2 C 0.3017(4) 0.8882(4) 0.7793(8)
C8_2 C 0.3283(5) 0.8653(5) 0.8138(9)
C9_2 C 0.3288(6) 0.8711(5) 0.8690(9)
H12_2 H 0.3501 0.8593 0.8896
C10_2 C 0.3025(6) 0.8955(6) 0.8918(8)
H13_2 H 0.3028 0.8985 0.9286
C11_2 C 0.2747(5) 0.9165(4) 0.8618(7)
C12_2 C 0.2734(5) 0.9139(5) 0.8078(10)
H14_2 H 0.2546 0.9284 0.7887
C13_2 C 0.3809(5) 0.8064(4) 0.6999(8)
C14_2 C 0.2411(6) 0.9438(6) 0.8850(10)
O1_2 O 0.3737(3) 0.8013(3) 0.6548(5)
O2_2 O 0.4060(3) 0.7885(3) 0.7329(4)
O3_2 O 0.2459(3) 0.9433(3) 0.9376(6)
O4_2 O 0.2222(3) 0.9661(3) 0.8610(5)
C15_2 C 0.3418(5) 0.6749(4) 0.9845(8)
H15_2 H 0.3298 0.6585 0.9599
C19_2 C 0.3820(4) 0.7318(4) 0.9997(7)
C20_2 C 0.3685(5) 0.7051(4) 0.9669(8)
C21_2 C 0.3751(6) 0.7061(4) 0.9088(10)
H18_2 H 0.3625 0.6885 0.8864
C22_2 C 0.4024(5) 0.7360(5) 0.8875(7)
H19_2 H 0.4113 0.7364 0.8511
C23_2 C 0.4162(4) 0.7647(4) 0.9267(7)
C24_2 C 0.4075(4) 0.7618(3) 0.9788(6)
C26_2 C 0.4422(5) 0.7971(5) 0.9040(8)
O7_2 O 0.4427(3) 0.7988(3) 0.8542(6)
O8_2 O 0.4618(3) 0.8154(3) 0.9357(4)
C27_2 C 0.6064(6) 0.9545(6) 0.9458(9)
H21_2 H 0.6092 0.9600 0.9098
C28_2 C 0.5814(6) 0.9282(5) 0.9715(9)
C32_2 C 0.6265(6) 0.9704(6) 0.9904(9)
C33_2 C 0.6498(7) 0.9983(6) 0.9683(9)
C37_2 C 0.5494(6) 0.9015(5) 0.9393(10)
O9_2 O 0.5524(3) 0.9012(3) 0.8911(5)
O10_2 O 0.5303(4) 0.8792(4) 0.9666(5)
C39_2 C 0.2719(5) 0.5723(4) 0.5702(5)
H27_2 H 0.2585 0.5563 0.5961
C40_2 C 0.2644(4) 0.5665(4) 0.5164(6)
C41_2 C 0.2860(5) 0.5879(5) 0.4788(5)
H28_2 H 0.2844 0.5815 0.4429
C42_2 C 0.3100(7) 0.6188(6) 0.4949(5)
H29_2 H 0.3176 0.6386 0.4702
C43_2 C 0.3186(4) 0.6233(3) 0.5470(5)
C44_2 C 0.2994(4) 0.6007(4) 0.5866(4)
C45_2 C 0.3069(5) 0.6094(5) 0.6393(5)
H30_2 H 0.2939 0.5955 0.6676
C46_2 C 0.3325(5) 0.6394(5) 0.6535(6)
H31_2 H 0.3423 0.6457 0.6884
C47_2 C 0.3514(4) 0.6611(4) 0.6139(7)
C48_2 C 0.3442(5) 0.6537(4) 0.5610(7)
H32_2 H 0.3586 0.6697 0.5361
C49_2 C 0.2373(5) 0.5350(5) 0.4965(9)
C50_2 C 0.3819(7) 0.6945(6) 0.6234(14)
O13_2 O 0.2296(3) 0.5069(3) 0.5239(4)
O14_2 O 0.2275(3) 0.5381(3) 0.4489(6)
O15_2 O 0.4031(5) 0.7141(4) 0.5951(7)
O16_2 O 0.3799(4) 0.7024(4) 0.6737(7)
Cd6_2 Cd 0.18019(3) 0.99939(3) 0.91463(5)
Cd7_2 Cd 0.18019(3) 0.49939(3) 0.41463(5)
Cd10_2 Cd 0.21801(3) 0.44610(3) 0.52117(5)
O17_2 O 0.4959(3) 0.8067(3) 0.6876(6)
O18_2 O 0.4722(3) 0.7839(3) 0.6110(5)
O19_2 O 0.4538(3) 0.8938(3) 0.8500(5)
O20_2 O 0.4547(3) 0.8660(3) 0.7714(5)
O21_2 O 0.5568(3) 0.8030(3) 0.8908(6)
O22_2 O 0.5298(3) 0.8190(2) 0.8119(4)
O23_2 O 0.4796(3) 0.7431(3) 0.7739(4)
O24_2 O 0.4775(3) 0.7119(3) 0.6989(6)
C14_3 C 0.0089(6) 0.1938(6) 0.1350(10)
O3_3 O 0.0041(3) 0.1933(3) 0.1876(6)
O4_3 O 0.0278(3) 0.2161(3) 0.1110(5)
Cd6_3 Cd 0.06981(3) 0.24939(3) 0.16463(5)
Cd8_2 Cd 0.03199(3) 0.19610(3) 0.27117(5)
Cd4_3 Cd 0.00214(2) 0.85344(2) 0.38496(4)
C49_3 C 0.0127(5) 0.7850(5) 0.7465(9)
O13_3 O 0.0204(3) 0.7569(3) 0.7739(4)
O14_3 O 0.0225(3) 0.7881(3) 0.6989(6)
Cd7_3 Cd 0.06981(3) 0.74939(3) 0.66463(5)
Cd10_3 Cd 0.03199(3) 0.69610(3) 0.77117(5)
C3_3 C 0.8954(5) 0.0872(4) 0.0349(8)
H9_3 H 0.8769 0.0728 0.0546
C7_3 C 0.9483(4) 0.1382(4) 0.0293(8)
C8_3 C 0.9217(5) 0.1153(5) 0.0638(9)
C9_3 C 0.9212(6) 0.1211(5) 0.1190(9)
H12_3 H 0.8999 0.1093 0.1396
C10_3 C 0.9475(6) 0.1455(6) 0.1418(8)
H13_3 H 0.9472 0.1485 0.1786
C11_3 C 0.9753(5) 0.1665(4) 0.1118(7)
C12_3 C 0.9766(5) 0.1639(5) 0.0578(10)
H14_3 H 0.9954 0.1784 0.0387
C23_3 C 0.8338(4) 0.0147(4) 0.1767(7)
C24_3 C 0.8425(4) 0.0118(3) 0.2288(6)
H20_3 H 0.8317 0.0298 0.2521
C26_3 C 0.8078(5) 0.0471(5) 0.1540(8)
O7_3 O 0.8073(3) 0.0488(3) 0.1042(6)
O8_3 O 0.7882(3) 0.0654(3) 0.1857(4)
C27_3 C 0.6436(6) 0.2045(6) 0.1958(9)
H21_3 H 0.6408 0.2100 0.1598
C28_3 C 0.6686(6) 0.1782(5) 0.2215(9)
C29_3 C 0.6706(6) 0.1747(5) 0.2761(9)
H22_3 H 0.6878 0.1559 0.2896
C30_3 C 0.6494(7) 0.1963(7) 0.3126(10)
H23_3 H 0.6515 0.1913 0.3489
C31_3 C 0.6255(6) 0.2249(6) 0.2947(9)
C32_3 C 0.6235(6) 0.2204(6) 0.2404(9)
C33_3 C 0.6002(7) 0.2483(6) 0.2183(9)
H24 H 0.5974 0.2528 0.1820
C34_3 C 0.5810(5) 0.2695(5) 0.2587(8)
H25 H 0.5637 0.2880 0.2445
C35_3 C 0.5806(5) 0.2703(5) 0.3146(8)
C36_3 C 0.6075(6) 0.2443(5) 0.3373(9)
H26_3 H 0.6118 0.2413 0.3749
C37_3 C 0.7006(6) 0.1515(5) 0.1893(10)
C38_3 C 0.5532(4) 0.3008(4) 0.3403(8)
O9_3 O 0.6976(3) 0.1512(3) 0.1411(5)
O10_3 O 0.7197(4) 0.1292(4) 0.2166(5)
O11_3 O 0.5568(3) 0.3030(3) 0.3908(6)
O12_3 O 0.5298(3) 0.3190(2) 0.3119(4)
Cd5_3 Cd 0.50214(2) 0.35344(2) 0.38496(4)
Cd11_2 Cd 0.46801(3) 0.30390(3) 0.27117(5)
O19_3 O 0.7962(3) 0.1438(3) 0.1000(5)
O20_3 O 0.7953(3) 0.1160(3) 0.0214(5)
C4_3 C 0.8968(4) 0.0819(3) 0.9855(7)
C5_3 C 0.9253(5) 0.1069(5) 0.9491(8)
H10_3 H 0.9274 0.1031 0.9113
C6_3 C 0.9483(5) 0.1359(6) 0.9808(9)
H11_3 H 0.9640 0.1536 0.9621
C13_3 C 0.8691(5) 0.0564(4) 0.9499(8)
O1_3 O 0.8763(3) 0.0513(3) 0.9048(5)
O2_3 O 0.8440(3) 0.0385(3) 0.9829(4)
C15_3 C 0.9082(5) 0.9249(4) 0.2345(8)
H15_3 H 0.9202 0.9085 0.2099
C16_3 C 0.9153(5) 0.9208(4) 0.2844(8)
C17_3 C 0.9015(4) 0.9500(3) 0.3224(5)
H16_3 H 0.9080 0.9478 0.3595
C18_3 C 0.8768(5) 0.9779(4) 0.3022(7)
H17_3 H 0.8653 0.9954 0.3258
C19_3 C 0.8680(4) 0.9818(4) 0.2497(7)
C20_3 C 0.8815(5) 0.9551(4) 0.2169(8)
C21_3 C 0.8749(6) 0.9561(4) 0.1588(10)
H18_3 H 0.8875 0.9385 0.1364
C22_3 C 0.8476(5) 0.9860(5) 0.1375(7)
H19_3 H 0.8387 0.9864 0.1011
C25_3 C 0.9441(5) 0.8891(4) 0.3037(8)
O5_3 O 0.9538(3) 0.8938(3) 0.3500(5)
O6_3 O 0.9547(3) 0.8660(3) 0.2714(5)
Cd9_3 Cd 0.96801(3) 0.80390(3) 0.27117(5)
O23_3 O 0.7704(3) 0.9931(3) 0.0239(4)
C3_4 C 0.6046(5) 0.4128(4) 0.0349(8)
H9_4 H 0.6231 0.4272 0.0546
C7_4 C 0.5517(4) 0.3618(4) 0.0293(8)
C8_4 C 0.5783(5) 0.3847(5) 0.0638(9)
C9_4 C 0.5788(6) 0.3789(5) 0.1190(9)
H12_4 H 0.6001 0.3907 0.1396
C10_4 C 0.5525(6) 0.3545(6) 0.1418(8)
H13_4 H 0.5528 0.3515 0.1786
C11_4 C 0.5247(5) 0.3335(4) 0.1118(7)
C12_4 C 0.5234(5) 0.3361(5) 0.0578(10)
H14_4 H 0.5046 0.3216 0.0387
C14_4 C 0.4911(6) 0.3062(6) 0.1350(10)
O3_4 O 0.4959(3) 0.3067(3) 0.1876(6)
O4_4 O 0.4722(3) 0.2839(3) 0.1110(5)
C15_4 C 0.5918(5) 0.5751(4) 0.2345(8)
H15_4 H 0.5798 0.5915 0.2099
C16_4 C 0.5847(5) 0.5792(4) 0.2844(8)
C17_4 C 0.5985(4) 0.5500(3) 0.3224(5)
H16_4 H 0.5920 0.5522 0.3595
C18_4 C 0.6232(5) 0.5221(4) 0.3022(7)
H17_4 H 0.6347 0.5046 0.3258
C19_4 C 0.6320(4) 0.5182(4) 0.2497(7)
C20_4 C 0.6185(5) 0.5449(4) 0.2169(8)
C21_4 C 0.6251(6) 0.5439(4) 0.1588(10)
H18_4 H 0.6125 0.5615 0.1364
C22_4 C 0.6524(5) 0.5140(5) 0.1375(7)
H19_4 H 0.6613 0.5136 0.1011
C23_4 C 0.6662(4) 0.4853(4) 0.1767(7)
C24_4 C 0.6575(4) 0.4882(3) 0.2288(6)
H20_4 H 0.6683 0.4702 0.2521
C25_4 C 0.5559(5) 0.6109(4) 0.3037(8)
C26_4 C 0.6922(5) 0.4529(5) 0.1540(8)
O5_4 O 0.5462(3) 0.6062(3) 0.3500(5)
O6_4 O 0.5453(3) 0.6340(3) 0.2714(5)
O7_4 O 0.6927(3) 0.4512(3) 0.1042(6)
O8_4 O 0.7118(3) 0.4346(3) 0.1857(4)
C27_4 C 0.8564(6) 0.2955(6) 0.1958(9)
H21_4 H 0.8592 0.2900 0.1598
C28_4 C 0.8314(6) 0.3218(5) 0.2215(9)
C29_4 C 0.8294(6) 0.3253(5) 0.2761(9)
H22_4 H 0.8122 0.3441 0.2896
C30_4 C 0.8506(7) 0.3037(7) 0.3126(10)
H23_4 H 0.8485 0.3087 0.3489
C31_4 C 0.8745(6) 0.2751(6) 0.2947(9)
C32_4 C 0.8765(6) 0.2796(6) 0.2404(9)
C33_4 C 0.8998(7) 0.2517(6) 0.2183(9)
H24_2 H 0.9026 0.2472 0.1820
C34_4 C 0.9190(5) 0.2305(5) 0.2587(8)
H25_2 H 0.9363 0.2120 0.2445
C35_4 C 0.9194(5) 0.2297(5) 0.3146(8)
C36_4 C 0.8925(6) 0.2557(5) 0.3373(9)
H26_4 H 0.8882 0.2587 0.3749
C37_4 C 0.7994(6) 0.3485(5) 0.1893(10)
C38_4 C 0.9468(4) 0.1992(4) 0.3403(8)
O9_4 O 0.8024(3) 0.3488(3) 0.1411(5)
O10_4 O 0.7803(4) 0.3708(4) 0.2166(5)
O11_4 O 0.9432(3) 0.1970(3) 0.3908(6)
O12_4 O 0.9702(3) 0.1810(2) 0.3119(4)
Cd4_4 Cd 0.49786(2) 0.64656(2) 0.38496(4)
Cd5_4 Cd 0.99786(2) 0.14656(2) 0.38496(4)
Cd6_4 Cd 0.43019(3) 0.25061(3) 0.16463(5)
Cd9_4 Cd 0.53199(3) 0.69610(3) 0.27117(5)
O21_3 O 0.8068(3) 0.4470(3) 0.1408(6)
O22_3 O 0.7798(3) 0.4310(2) 0.0619(4)
O23_4 O 0.7296(3) 0.5069(3) 0.0239(4)
Cd2_3 Cd 0.68019(3) 0.49939(3) 0.91463(5)
C4_4 C 0.6032(4) 0.4181(3) 0.9855(7)
C5_4 C 0.5747(5) 0.3931(5) 0.9491(8)
H10_4 H 0.5726 0.3969 0.9113
C6_4 C 0.5517(5) 0.3641(6) 0.9808(9)
H11_4 H 0.5360 0.3464 0.9621
C13_4 C 0.6309(5) 0.4436(4) 0.9499(8)
O1_4 O 0.6237(3) 0.4487(3) 0.9048(5)
O2_4 O 0.6560(3) 0.4615(3) 0.9829(4)
C39_3 C 0.5219(5) 0.6777(4) 0.8202(5)
H27_3 H 0.5085 0.6937 0.8461
C40_3 C 0.5144(4) 0.6835(4) 0.7664(6)
C41_3 C 0.5360(5) 0.6621(5) 0.7288(5)
H28_3 H 0.5344 0.6685 0.6929
C42_3 C 0.5600(7) 0.6312(6) 0.7449(5)
H29_3 H 0.5676 0.6114 0.7202
C43_3 C 0.5686(4) 0.6267(3) 0.7970(5)
C44_3 C 0.5494(4) 0.6493(4) 0.8366(4)
C45_3 C 0.5569(5) 0.6406(5) 0.8893(5)
H30_3 H 0.5439 0.6545 0.9176
C46_3 C 0.5825(5) 0.6106(5) 0.9035(6)
H31_3 H 0.5923 0.6043 0.9384
C47_3 C 0.6014(4) 0.5889(4) 0.8639(7)
C48_3 C 0.5942(5) 0.5963(4) 0.8110(7)
H32_3 H 0.6086 0.5803 0.7861
C49_4 C 0.4873(5) 0.7150(5) 0.7465(9)
C50_3 C 0.6319(7) 0.5555(6) 0.8734(14)
O15_3 O 0.6531(5) 0.5359(4) 0.8451(7)
O16_3 O 0.6299(4) 0.5476(4) 0.9237(7)
O17_3 O 0.7459(3) 0.4433(3) 0.9376(6)
O18_3 O 0.7222(3) 0.4661(3) 0.8610(5)
O24_3 O 0.7275(3) 0.5381(3) 0.9489(6)
Cd2_4 Cd 0.56981(3) 0.74939(3) 0.16463(5)
C3_5 C 0.6454(5) 0.6628(4) 0.2849(8)
H9_5 H 0.6269 0.6772 0.3046
C4_5 C 0.6468(4) 0.6681(3) 0.2355(7)
C5_5 C 0.6753(5) 0.6431(5) 0.1991(8)
H10_5 H 0.6774 0.6469 0.1613
C6_5 C 0.6983(5) 0.6141(6) 0.2308(9)
H11_5 H 0.7140 0.5964 0.2121
C7_5 C 0.6983(4) 0.6118(4) 0.2793(8)
C8_5 C 0.6717(5) 0.6347(5) 0.3138(9)
C9_5 C 0.6712(6) 0.6289(5) 0.3690(9)
H12_5 H 0.6499 0.6407 0.3896
C10_5 C 0.6975(6) 0.6045(6) 0.3918(8)
H13_5 H 0.6972 0.6015 0.4286
C11_5 C 0.7253(5) 0.5835(4) 0.3618(7)
C12_5 C 0.7266(5) 0.5861(5) 0.3078(10)
H14_5 H 0.7454 0.5716 0.2887
C13_5 C 0.6191(5) 0.6936(4) 0.1999(8)
C14_5 C 0.7589(6) 0.5562(6) 0.3850(10)
O1_5 O 0.6263(3) 0.6987(3) 0.1548(5)
O2_5 O 0.5940(3) 0.7115(3) 0.2329(4)
O3_5 O 0.7541(3) 0.5567(3) 0.4376(6)
O4_5 O 0.7778(3) 0.5339(3) 0.3610(5)
C15_5 C 0.6582(5) 0.8251(4) 0.4845(8)
H15_5 H 0.6702 0.8415 0.4599
C16_5 C 0.6653(5) 0.8292(4) 0.5344(8)
C17_5 C 0.6515(4) 0.8000(3) 0.5724(5)
H16_5 H 0.6580 0.8022 0.6095
C18_5 C 0.6268(5) 0.7721(4) 0.5522(7)
H17_5 H 0.6153 0.7546 0.5758
C19_5 C 0.6180(4) 0.7682(4) 0.4997(7)
C20_5 C 0.6315(5) 0.7949(4) 0.4669(8)
C21_5 C 0.6249(6) 0.7939(4) 0.4088(10)
H18_5 H 0.6375 0.8115 0.3864
C22_5 C 0.5976(5) 0.7640(5) 0.3875(7)
H19_5 H 0.5887 0.7636 0.3511
C23_5 C 0.5838(4) 0.7353(4) 0.4267(7)
C24_5 C 0.5925(4) 0.7382(3) 0.4788(6)
H20_5 H 0.5817 0.7202 0.5021
C25_5 C 0.6941(5) 0.8609(4) 0.5537(8)
C26_5 C 0.5578(5) 0.7029(5) 0.4040(8)
O5_5 O 0.7038(3) 0.8562(3) 0.6000(5)
O6_5 O 0.7047(3) 0.8840(3) 0.5214(5)
O7_5 O 0.5573(3) 0.7012(3) 0.3542(6)
O8_5 O 0.5382(3) 0.6846(3) 0.4357(4)
C27_5 C 0.3936(6) 0.5455(6) 0.4458(9)
H21_5 H 0.3908 0.5400 0.4098
C28_5 C 0.4186(6) 0.5718(5) 0.4715(9)
C29_5 C 0.4206(6) 0.5753(5) 0.5261(9)
H22_5 H 0.4378 0.5941 0.5396
C30_5 C 0.3994(7) 0.5537(7) 0.5626(10)
H23_5 H 0.4015 0.5587 0.5989
C31_5 C 0.3755(6) 0.5251(6) 0.5447(9)
C32_5 C 0.3735(6) 0.5296(6) 0.4904(9)
C33_5 C 0.3502(7) 0.5017(6) 0.4683(9)
H24_3 H 0.3474 0.4972 0.4320
C34_5 C 0.3310(5) 0.4805(5) 0.5087(8)
H25_3 H 0.3137 0.4620 0.4945
C35_5 C 0.3306(5) 0.4797(5) 0.5646(8)
C36_5 C 0.3575(6) 0.5057(5) 0.5873(9)
H26_5 H 0.3618 0.5087 0.6249
C37_5 C 0.4506(6) 0.5985(5) 0.4393(10)
C38_5 C 0.3032(4) 0.4492(4) 0.5903(8)
O9_5 O 0.4476(3) 0.5988(3) 0.3911(5)
O10_5 O 0.4697(4) 0.6208(4) 0.4666(5)
O11_5 O 0.3068(3) 0.4470(3) 0.6408(6)
O12_5 O 0.2798(3) 0.4310(2) 0.5619(4)
C39_4 C 0.7281(5) 0.9277(4) 0.0702(5)
H27_4 H 0.7415 0.9437 0.0961
C40_4 C 0.7356(4) 0.9335(4) 0.0164(6)
C43_4 C 0.6814(4) 0.8767(3) 0.0470(5)
C44_4 C 0.7006(4) 0.8993(4) 0.0866(4)
C45_4 C 0.6931(5) 0.8906(5) 0.1393(5)
H30_4 H 0.7061 0.9045 0.1676
C46_4 C 0.6675(5) 0.8606(5) 0.1535(6)
H31_4 H 0.6577 0.8543 0.1884
C47_4 C 0.6486(4) 0.8389(4) 0.1139(7)
C48_4 C 0.6558(5) 0.8463(4) 0.0610(7)
H32_4 H 0.6414 0.8303 0.0361
C50_4 C 0.6181(7) 0.8055(6) 0.1234(14)
O15_4 O 0.5969(5) 0.7859(4) 0.0951(7)
O16_4 O 0.6201(4) 0.7976(4) 0.1737(7)
Cd4_5 Cd 0.75214(2) 0.89656(2) 0.63496(4)
Cd5_5 Cd 0.25214(2) 0.39656(2) 0.63496(4)
Cd9_5 Cd 0.71801(3) 0.94610(3) 0.52117(5)
O17_4 O 0.5041(3) 0.6933(3) 0.1876(6)
O18_4 O 0.5278(3) 0.7161(3) 0.1110(5)
O21_4 O 0.4432(3) 0.6970(3) 0.3908(6)
O22_4 O 0.4702(3) 0.6810(2) 0.3119(4)
O23_5 O 0.5204(3) 0.7569(3) 0.2739(4)
O24_4 O 0.5225(3) 0.7881(3) 0.1989(6)
C3_6 C 0.3546(5) 0.3372(4) 0.2849(8)
H9_6 H 0.3731 0.3228 0.3046
C4_6 C 0.3532(4) 0.3319(3) 0.2355(7)
C5_6 C 0.3247(5) 0.3569(5) 0.1991(8)
H10_6 H 0.3226 0.3531 0.1613
C6_6 C 0.3017(5) 0.3859(6) 0.2308(9)
H11_6 H 0.2860 0.4036 0.2121
C7_6 C 0.3017(4) 0.3882(4) 0.2793(8)
C8_6 C 0.3283(5) 0.3653(5) 0.3138(9)
C9_6 C 0.3288(6) 0.3711(5) 0.3690(9)
H12_6 H 0.3501 0.3593 0.3896
C10_6 C 0.3025(6) 0.3955(6) 0.3918(8)
H13_6 H 0.3028 0.3985 0.4286
C11_6 C 0.2747(5) 0.4165(4) 0.3618(7)
C12_6 C 0.2734(5) 0.4139(5) 0.3078(10)
H14_6 H 0.2546 0.4284 0.2887
C13_6 C 0.3809(5) 0.3064(4) 0.1999(8)
C14_6 C 0.2411(6) 0.4438(6) 0.3850(10)
O1_6 O 0.3737(3) 0.3013(3) 0.1548(5)
O2_6 O 0.4060(3) 0.2885(3) 0.2329(4)
O3_6 O 0.2459(3) 0.4433(3) 0.4376(6)
O4_6 O 0.2222(3) 0.4661(3) 0.3610(5)
C15_6 C 0.3418(5) 0.1749(4) 0.4845(8)
H15_6 H 0.3298 0.1585 0.4599
C16_6 C 0.3347(5) 0.1708(4) 0.5344(8)
C17_6 C 0.3485(4) 0.2000(3) 0.5724(5)
H16_6 H 0.3420 0.1978 0.6095
C18_6 C 0.3732(5) 0.2279(4) 0.5522(7)
H17_6 H 0.3847 0.2454 0.5758
C19_6 C 0.3820(4) 0.2318(4) 0.4997(7)
C20_6 C 0.3685(5) 0.2051(4) 0.4669(8)
C21_6 C 0.3751(6) 0.2061(4) 0.4088(10)
H18_6 H 0.3625 0.1885 0.3864
C22_6 C 0.4024(5) 0.2360(5) 0.3875(7)
H19_6 H 0.4113 0.2364 0.3511
C23_6 C 0.4162(4) 0.2647(4) 0.4267(7)
C24_6 C 0.4075(4) 0.2618(3) 0.4788(6)
H20_6 H 0.4183 0.2798 0.5021
C25_6 C 0.3059(5) 0.1391(4) 0.5537(8)
C26_6 C 0.4422(5) 0.2971(5) 0.4040(8)
O5_6 O 0.2962(3) 0.1438(3) 0.6000(5)
O6_6 O 0.2953(3) 0.1160(3) 0.5214(5)
O7_6 O 0.4427(3) 0.2988(3) 0.3542(6)
O8_6 O 0.4618(3) 0.3154(3) 0.4357(4)
C27_6 C 0.6064(6) 0.4545(6) 0.4458(9)
H21_6 H 0.6092 0.4600 0.4098
C28_6 C 0.5814(6) 0.4282(5) 0.4715(9)
C29_6 C 0.5794(6) 0.4247(5) 0.5261(9)
H22_6 H 0.5622 0.4059 0.5396
C30_6 C 0.6006(7) 0.4463(7) 0.5626(10)
H23_6 H 0.5985 0.4413 0.5989
C31_6 C 0.6245(6) 0.4749(6) 0.5447(9)
C32_6 C 0.6265(6) 0.4704(6) 0.4904(9)
C33_6 C 0.6498(7) 0.4983(6) 0.4683(9)
H24_4 H 0.6526 0.5028 0.4320
C34_6 C 0.6690(5) 0.5195(5) 0.5087(8)
H25_4 H 0.6863 0.5380 0.4945
C35_6 C 0.6694(5) 0.5203(5) 0.5646(8)
C36_6 C 0.6425(6) 0.4943(5) 0.5873(9)
H26_6 H 0.6382 0.4913 0.6249
C37_6 C 0.5494(6) 0.4015(5) 0.4393(10)
C38_6 C 0.6968(4) 0.5508(4) 0.5903(8)
O9_6 O 0.5524(3) 0.4012(3) 0.3911(5)
O10_6 O 0.5303(4) 0.3792(4) 0.4666(5)
O11_6 O 0.6932(3) 0.5530(3) 0.6408(6)
O12_6 O 0.7202(3) 0.5690(2) 0.5619(4)
C39_5 C 0.2719(5) 0.0723(4) 0.0702(5)
H27_5 H 0.2585 0.0563 0.0961
C40_5 C 0.2644(4) 0.0665(4) 0.0164(6)
C43_5 C 0.3186(4) 0.1233(3) 0.0470(5)
C44_5 C 0.2994(4) 0.1007(4) 0.0866(4)
C45_5 C 0.3069(5) 0.1094(5) 0.1393(5)
H30_5 H 0.2939 0.0955 0.1676
C46_5 C 0.3325(5) 0.1394(5) 0.1535(6)
H31_5 H 0.3423 0.1457 0.1884
C47_5 C 0.3514(4) 0.1611(4) 0.1139(7)
C48_5 C 0.3442(5) 0.1537(4) 0.0610(7)
H32_5 H 0.3586 0.1697 0.0361
C50_5 C 0.3819(7) 0.1945(6) 0.1234(14)
O13_4 O 0.2296(3) 0.0069(3) 0.0239(4)
O15_5 O 0.4031(5) 0.2141(4) 0.0951(7)
O16_5 O 0.3799(4) 0.2024(4) 0.1737(7)
Cd4_6 Cd 0.24786(2) 0.10344(2) 0.63496(4)
Cd5_6 Cd 0.74786(2) 0.60344(2) 0.63496(4)
Cd9_6 Cd 0.28199(3) 0.05390(3) 0.52117(5)
O19_4 O 0.4538(3) 0.3938(3) 0.3500(5)
O20_4 O 0.4547(3) 0.3660(3) 0.2714(5)
O23_6 O 0.4796(3) 0.2431(3) 0.2739(4)
O24_5 O 0.4775(3) 0.2119(3) 0.1989(6)
C14_7 C 0.0089(6) 0.6938(6) 0.6350(10)
O3_7 O 0.0041(3) 0.6933(3) 0.6876(6)
O4_7 O 0.0278(3) 0.7161(3) 0.6110(5)
C49_5 C 0.0127(5) 0.2850(5) 0.2465(9)
O13_5 O 0.0204(3) 0.2569(3) 0.2739(4)
O14_4 O 0.0225(3) 0.2881(3) 0.1989(6)
Cd4_7 Cd 0.00214(2) 0.35344(2) 0.88496(4)
C3_7 C 0.8954(5) 0.5872(4) 0.5349(8)
H9_7 H 0.8769 0.5728 0.5546
C4_7 C 0.8968(4) 0.5819(3) 0.4855(7)
C5_7 C 0.9253(5) 0.6069(5) 0.4491(8)
H10_7 H 0.9274 0.6031 0.4113
C6_7 C 0.9483(5) 0.6359(6) 0.4808(9)
H11_7 H 0.9640 0.6536 0.4621
C7_7 C 0.9483(4) 0.6382(4) 0.5293(8)
C8_7 C 0.9217(5) 0.6153(5) 0.5638(9)
C9_7 C 0.9212(6) 0.6211(5) 0.6190(9)
H12_7 H 0.8999 0.6093 0.6396
C10_7 C 0.9475(6) 0.6455(6) 0.6418(8)
H13_7 H 0.9472 0.6485 0.6786
C11_7 C 0.9753(5) 0.6665(4) 0.6118(7)
C12_7 C 0.9766(5) 0.6639(5) 0.5578(10)
H14_7 H 0.9954 0.6784 0.5387
C13_7 C 0.8691(5) 0.5564(4) 0.4499(8)
O1_7 O 0.8763(3) 0.5513(3) 0.4048(5)
O2_7 O 0.8440(3) 0.5385(3) 0.4829(4)
C15_7 C 0.9082(5) 0.4249(4) 0.7345(8)
H15_7 H 0.9202 0.4085 0.7099
C16_7 C 0.9153(5) 0.4208(4) 0.7844(8)
C17_7 C 0.9015(4) 0.4500(3) 0.8224(5)
H16_7 H 0.9080 0.4478 0.8595
C18_7 C 0.8768(5) 0.4779(4) 0.8022(7)
H17_7 H 0.8653 0.4954 0.8258
C19_7 C 0.8680(4) 0.4818(4) 0.7497(7)
C20_7 C 0.8815(5) 0.4551(4) 0.7169(8)
C21_7 C 0.8749(6) 0.4561(4) 0.6588(10)
H18_7 H 0.8875 0.4385 0.6364
C22_7 C 0.8476(5) 0.4860(5) 0.6375(7)
H19_7 H 0.8387 0.4864 0.6011
C23_7 C 0.8338(4) 0.5147(4) 0.6767(7)
C24_7 C 0.8425(4) 0.5118(3) 0.7288(6)
H20_7 H 0.8317 0.5298 0.7521
C25_7 C 0.9441(5) 0.3891(4) 0.8037(8)
C26_7 C 0.8078(5) 0.5471(5) 0.6540(8)
O5_7 O 0.9538(3) 0.3938(3) 0.8500(5)
O6_7 O 0.9547(3) 0.3660(3) 0.7714(5)
O7_7 O 0.8073(3) 0.5488(3) 0.6042(6)
O8_7 O 0.7882(3) 0.5654(3) 0.6857(4)
C27_7 C 0.6436(6) 0.7045(6) 0.6958(9)
H21_7 H 0.6408 0.7100 0.6598
C28_7 C 0.6686(6) 0.6782(5) 0.7215(9)
C29_7 C 0.6706(6) 0.6747(5) 0.7761(9)
H22_7 H 0.6878 0.6559 0.7896
C30_7 C 0.6494(7) 0.6963(7) 0.8126(10)
H23_7 H 0.6515 0.6913 0.8489
C31_7 C 0.6255(6) 0.7249(6) 0.7947(9)
C32_7 C 0.6235(6) 0.7204(6) 0.7404(9)
C33_7 C 0.6002(7) 0.7483(6) 0.7183(9)
H24_5 H 0.5974 0.7528 0.6820
C34_7 C 0.5810(5) 0.7695(5) 0.7587(8)
H25_5 H 0.5637 0.7880 0.7445
C35_7 C 0.5806(5) 0.7703(5) 0.8146(8)
C36_7 C 0.6075(6) 0.7443(5) 0.8373(9)
H26_7 H 0.6118 0.7413 0.8749
C37_7 C 0.7006(6) 0.6515(5) 0.6893(10)
C38_7 C 0.5532(4) 0.8008(4) 0.8403(8)
O9_7 O 0.6976(3) 0.6512(3) 0.6411(5)
O10_7 O 0.7197(4) 0.6292(4) 0.7166(5)
C39_6 C 0.9781(5) 0.3223(4) 0.3202(5)
H27_6 H 0.9915 0.3063 0.3461
C40_6 C 0.9856(4) 0.3165(4) 0.2664(6)
C41_4 C 0.9640(5) 0.3379(5) 0.2288(5)
H28_4 H 0.9656 0.3315 0.1929
C42_4 C 0.9400(7) 0.3688(6) 0.2449(5)
H29_4 H 0.9324 0.3886 0.2202
C43_6 C 0.9314(4) 0.3733(3) 0.2970(5)
C44_6 C 0.9506(4) 0.3507(4) 0.3366(4)
C45_6 C 0.9431(5) 0.3594(5) 0.3893(5)
H30_6 H 0.9561 0.3455 0.4176
C46_6 C 0.9175(5) 0.3894(5) 0.4035(6)
H31_6 H 0.9077 0.3957 0.4384
C47_6 C 0.8986(4) 0.4111(4) 0.3639(7)
C48_6 C 0.9058(5) 0.4037(4) 0.3110(7)
H32_6 H 0.8914 0.4197 0.2861
C50_6 C 0.8681(7) 0.4445(6) 0.3734(14)
O15_6 O 0.8469(5) 0.4641(4) 0.3451(7)
O16_6 O 0.8701(4) 0.4524(4) 0.4237(7)
Cd9_7 Cd 0.96801(3) 0.30390(3) 0.77117(5)
O19_5 O 0.7962(3) 0.6438(3) 0.6000(5)
O20_5 O 0.7953(3) 0.6160(3) 0.5214(5)
C15_8 C 0.5918(5) 0.0751(4) 0.7345(8)
H15_8 H 0.5798 0.0915 0.7099
C16_8 C 0.5847(5) 0.0792(4) 0.7844(8)
C17_8 C 0.5985(4) 0.0500(3) 0.8224(5)
H16_8 H 0.5920 0.0522 0.8595
C18_8 C 0.6232(5) 0.0221(4) 0.8022(7)
H17_8 H 0.6347 0.0046 0.8258
C19_8 C 0.6320(4) 0.0182(4) 0.7497(7)
C20_8 C 0.6185(5) 0.0449(4) 0.7169(8)
C21_8 C 0.6251(6) 0.0439(4) 0.6588(10)
H18_8 H 0.6125 0.0615 0.6364
C22_8 C 0.6524(5) 0.0140(5) 0.6375(7)
H19_8 H 0.6613 0.0136 0.6011
C25_8 C 0.5559(5) 0.1109(4) 0.8037(8)
C39_7 C 0.5219(5) 0.1777(4) 0.3202(5)
H27_7 H 0.5085 0.1937 0.3461
C40_7 C 0.5144(4) 0.1835(4) 0.2664(6)
C41_5 C 0.5360(5) 0.1621(5) 0.2288(5)
H28_5 H 0.5344 0.1685 0.1929
C42_5 C 0.5600(7) 0.1312(6) 0.2449(5)
H29_5 H 0.5676 0.1114 0.2202
C43_7 C 0.5686(4) 0.1267(3) 0.2970(5)
C44_7 C 0.5494(4) 0.1493(4) 0.3366(4)
C45_7 C 0.5569(5) 0.1406(5) 0.3893(5)
H30_7 H 0.5439 0.1545 0.4176
C46_7 C 0.5825(5) 0.1106(5) 0.4035(6)
H31_7 H 0.5923 0.1043 0.4384
C47_7 C 0.6014(4) 0.0889(4) 0.3639(7)
C48_7 C 0.5942(5) 0.0963(4) 0.3110(7)
H32_7 H 0.6086 0.0803 0.2861
C49_6 C 0.4873(5) 0.2150(5) 0.2465(9)
C50_7 C 0.6319(7) 0.0555(6) 0.3734(14)
O15_7 O 0.6531(5) 0.0359(4) 0.3451(7)
O16_7 O 0.6299(4) 0.0476(4) 0.4237(7)
O23_7 O 0.7296(3) 0.0069(3) 0.5239(4)
O24_6 O 0.7275(3) 0.0381(3) 0.4489(6)
Cd2_5 Cd 0.68019(3) 0.99939(3) 0.41463(5)
C3_8 C 0.6046(5) 0.9128(4) 0.5349(8)
H9_8 H 0.6231 0.9272 0.5546
C4_8 C 0.6032(4) 0.9181(3) 0.4855(7)
C5_8 C 0.5747(5) 0.8931(5) 0.4491(8)
H10_8 H 0.5726 0.8969 0.4113
C6_8 C 0.5517(5) 0.8641(6) 0.4808(9)
H11_8 H 0.5360 0.8464 0.4621
C7_8 C 0.5517(4) 0.8618(4) 0.5293(8)
C8_8 C 0.5783(5) 0.8847(5) 0.5638(9)
C9_8 C 0.5788(6) 0.8789(5) 0.6190(9)
H12_8 H 0.6001 0.8907 0.6396
C10_8 C 0.5525(6) 0.8545(6) 0.6418(8)
H13_8 H 0.5528 0.8515 0.6786
C11_8 C 0.5247(5) 0.8335(4) 0.6118(7)
C12_8 C 0.5234(5) 0.8361(5) 0.5578(10)
H14_8 H 0.5046 0.8216 0.5387
C13_8 C 0.6309(5) 0.9436(4) 0.4499(8)
C14_8 C 0.4911(6) 0.8062(6) 0.6350(10)
O1_8 O 0.6237(3) 0.9487(3) 0.4048(5)
O2_8 O 0.6560(3) 0.9615(3) 0.4829(4)
C23_8 C 0.6662(4) 0.9853(4) 0.6767(7)
C24_8 C 0.6575(4) 0.9882(3) 0.7288(6)
H20_8 H 0.6683 0.9702 0.7521
C26_8 C 0.6922(5) 0.9529(5) 0.6540(8)
O7_8 O 0.6927(3) 0.9512(3) 0.6042(6)
O8_8 O 0.7118(3) 0.9346(3) 0.6857(4)
C27_8 C 0.8564(6) 0.7955(6) 0.6958(9)
H21_8 H 0.8592 0.7900 0.6598
C28_8 C 0.8314(6) 0.8218(5) 0.7215(9)
C29_8 C 0.8294(6) 0.8253(5) 0.7761(9)
H22_8 H 0.8122 0.8441 0.7896
C30_8 C 0.8506(7) 0.8037(7) 0.8126(10)
H23_8 H 0.8485 0.8087 0.8489
C31_8 C 0.8745(6) 0.7751(6) 0.7947(9)
C32_8 C 0.8765(6) 0.7796(6) 0.7404(9)
C33_8 C 0.8998(7) 0.7517(6) 0.7183(9)
H24_6 H 0.9026 0.7472 0.6820
C34_8 C 0.9190(5) 0.7305(5) 0.7587(8)
H25_6 H 0.9363 0.7120 0.7445
C35_8 C 0.9194(5) 0.7297(5) 0.8146(8)
C36_8 C 0.8925(6) 0.7557(5) 0.8373(9)
H26_8 H 0.8882 0.7587 0.8749
C37_8 C 0.7994(6) 0.8485(5) 0.6893(10)
C38_8 C 0.9468(4) 0.6992(4) 0.8403(8)
O9_8 O 0.8024(3) 0.8488(3) 0.6411(5)
O10_8 O 0.7803(4) 0.8708(4) 0.7166(5)
O11_7 O 0.9432(3) 0.6970(3) 0.8908(6)
O12_7 O 0.9702(3) 0.6810(2) 0.8119(4)
Cd5_7 Cd 0.99786(2) 0.64656(2) 0.88496(4)
O17_5 O 0.7459(3) 0.9433(3) 0.4376(6)
O18_5 O 0.7222(3) 0.9661(3) 0.3610(5)
O21_5 O 0.8068(3) 0.9470(3) 0.6408(6)
O22_5 O 0.7798(3) 0.9310(2) 0.5619(4)
C3_9 C 0.1454(5) 0.1628(4) 0.2849(8)
H9_9 H 0.1269 0.1772 0.3046
C4_9 C 0.1468(4) 0.1681(3) 0.2355(7)
C5_9 C 0.1753(5) 0.1431(5) 0.1991(8)
H10_9 H 0.1774 0.1469 0.1613
C6_9 C 0.1983(5) 0.1141(6) 0.2308(9)
H11_9 H 0.2140 0.0964 0.2121
C7_9 C 0.1983(4) 0.1118(4) 0.2793(8)
C8_9 C 0.1717(5) 0.1347(5) 0.3138(9)
C9_9 C 0.1712(6) 0.1289(5) 0.3690(9)
H12_9 H 0.1499 0.1407 0.3896
C10_9 C 0.1975(6) 0.1045(6) 0.3918(8)
H13_9 H 0.1972 0.1015 0.4286
C11_9 C 0.2253(5) 0.0835(4) 0.3618(7)
C12_9 C 0.2266(5) 0.0861(5) 0.3078(10)
H14_9 H 0.2454 0.0716 0.2887
C13_9 C 0.1191(5) 0.1936(4) 0.1999(8)
C14_9 C 0.2589(6) 0.0562(6) 0.3850(10)
O1_9 O 0.1263(3) 0.1987(3) 0.1548(5)
O2_9 O 0.0940(3) 0.2115(3) 0.2329(4)
O3_8 O 0.2541(3) 0.0567(3) 0.4376(6)
O4_8 O 0.2778(3) 0.0339(3) 0.3610(5)
C15_9 C 0.1582(5) 0.3251(4) 0.4845(8)
H15_9 H 0.1702 0.3415 0.4599
C16_9 C 0.1653(5) 0.3292(4) 0.5344(8)
C17_9 C 0.1515(4) 0.3000(3) 0.5724(5)
H16_9 H 0.1580 0.3022 0.6095
C18_9 C 0.1268(5) 0.2721(4) 0.5522(7)
H17_9 H 0.1153 0.2546 0.5758
C19_9 C 0.1180(4) 0.2682(4) 0.4997(7)
C20_9 C 0.1315(5) 0.2949(4) 0.4669(8)
C21_9 C 0.1249(6) 0.2939(4) 0.4088(10)
H18_9 H 0.1375 0.3115 0.3864
C22_9 C 0.0976(5) 0.2640(5) 0.3875(7)
H19_9 H 0.0887 0.2636 0.3511
C23_9 C 0.0838(4) 0.2353(4) 0.4267(7)
C24_9 C 0.0925(4) 0.2382(3) 0.4788(6)
H20_9 H 0.0817 0.2202 0.5021
C25_9 C 0.1941(5) 0.3609(4) 0.5537(8)
C26_9 C 0.0578(5) 0.2029(5) 0.4040(8)
O5_8 O 0.2038(3) 0.3562(3) 0.6000(5)
O6_8 O 0.2047(3) 0.3840(3) 0.5214(5)
O7_9 O 0.0573(3) 0.2012(3) 0.3542(6)
O8_9 O 0.0382(3) 0.1846(3) 0.4357(4)
C39_8 C 0.2281(5) 0.4277(4) 0.0702(5)
H27_8 H 0.2415 0.4437 0.0961
C40_8 C 0.2356(4) 0.4335(4) 0.0164(6)
C43_8 C 0.1814(4) 0.3767(3) 0.0470(5)
C44_8 C 0.2006(4) 0.3993(4) 0.0866(4)
C45_8 C 0.1931(5) 0.3906(5) 0.1393(5)
H30_8 H 0.2061 0.4045 0.1676
C46_8 C 0.1675(5) 0.3606(5) 0.1535(6)
H31_8 H 0.1577 0.3543 0.1884
C47_8 C 0.1486(4) 0.3389(4) 0.1139(7)
C48_8 C 0.1558(5) 0.3463(4) 0.0610(7)
H32_8 H 0.1414 0.3303 0.0361
C50_8 C 0.1181(7) 0.3055(6) 0.1234(14)
O13_6 O 0.2704(3) 0.4931(3) 0.0239(4)
O15_8 O 0.0969(5) 0.2859(4) 0.0951(7)
O16_8 O 0.1201(4) 0.2976(4) 0.1737(7)
Cd6_5 Cd 0.31981(3) 0.00061(3) 0.41463(5)
O19_6 O 0.0462(3) 0.1062(3) 0.3500(5)
O20_6 O 0.0453(3) 0.1340(3) 0.2714(5)
C41_6 C 0.2140(5) 0.4121(5) 0.9788(5)
H28_6 H 0.2156 0.4185 0.9429
C42_6 C 0.1900(7) 0.3812(6) 0.9949(5)
H29_6 H 0.1824 0.3614 0.9702
C49_7 C 0.2627(5) 0.4650(5) 0.9965(9)
O14_5 O 0.2725(3) 0.4619(3) 0.9489(6)
Cd7_4 Cd 0.31981(3) 0.50061(3) 0.91463(5)
C27_9 C 0.8936(6) 0.0455(6) 0.4458(9)
H21_9 H 0.8908 0.0400 0.4098
C28_9 C 0.9186(6) 0.0718(5) 0.4715(9)
C29_9 C 0.9206(6) 0.0753(5) 0.5261(9)
H22_9 H 0.9378 0.0941 0.5396
C30_9 C 0.8994(7) 0.0537(7) 0.5626(10)
H23_9 H 0.9015 0.0587 0.5989
C31_9 C 0.8755(6) 0.0251(6) 0.5447(9)
C32_9 C 0.8735(6) 0.0296(6) 0.4904(9)
C33_9 C 0.8502(7) 0.0017(6) 0.4683(9)
C36_9 C 0.8575(6) 0.0057(5) 0.5873(9)
H26_9 H 0.8618 0.0087 0.6249
C37_9 C 0.9506(6) 0.0985(5) 0.4393(10)
O9_9 O 0.9476(3) 0.0988(3) 0.3911(5)
O10_9 O 0.9697(4) 0.1208(4) 0.4666(5)
H24_7 H 0.8474 0.9972 0.4320
C34_9 C 0.8310(5) 0.9805(5) 0.5087(8)
H25_7 H 0.8137 0.9620 0.4945
C35_9 C 0.8306(5) 0.9797(5) 0.5646(8)
C38_9 C 0.8032(4) 0.9492(4) 0.5903(8)
H24_8 H 0.1526 0.0028 0.4320
C34_10 C 0.1690(5) 0.0195(5) 0.5087(8)
H25_8 H 0.1863 0.0380 0.4945
C35_10 C 0.1694(5) 0.0203(5) 0.5646(8)
C38_10 C 0.1968(4) 0.0508(4) 0.5903(8)
O11_8 O 0.1932(3) 0.0530(3) 0.6408(6)
O12_8 O 0.2202(3) 0.0690(2) 0.5619(4)
C27_10 C 0.1064(6) 0.9545(6) 0.4458(9)
H21_10 H 0.1092 0.9600 0.4098
C28_10 C 0.0814(6) 0.9282(5) 0.4715(9)
C29_10 C 0.0794(6) 0.9247(5) 0.5261(9)
H22_10 H 0.0622 0.9059 0.5396
C30_10 C 0.1006(7) 0.9463(7) 0.5626(10)
H23_10 H 0.0985 0.9413 0.5989
C31_10 C 0.1245(6) 0.9749(6) 0.5447(9)
C32_10 C 0.1265(6) 0.9704(6) 0.4904(9)
C33_10 C 0.1498(7) 0.9983(6) 0.4683(9)
C36_10 C 0.1425(6) 0.9943(5) 0.5873(9)
H26_10 H 0.1382 0.9913 0.6249
C37_10 C 0.0494(6) 0.9015(5) 0.4393(10)
O9_10 O 0.0524(3) 0.9012(3) 0.3911(5)
O10_10 O 0.0303(4) 0.8792(4) 0.4666(5)
O21_6 O 0.0568(3) 0.8030(3) 0.3908(6)
O22_6 O 0.0298(3) 0.8190(2) 0.3119(4)
Cd2_6 Cd 0.93019(3) 0.75061(3) 0.16463(5)
C3_10 C 0.8546(5) 0.8372(4) 0.2849(8)
H9_10 H 0.8731 0.8228 0.3046
C4_10 C 0.8532(4) 0.8319(3) 0.2355(7)
C5_10 C 0.8247(5) 0.8569(5) 0.1991(8)
H10_10 H 0.8226 0.8531 0.1613
C6_10 C 0.8017(5) 0.8859(6) 0.2308(9)
H11_10 H 0.7860 0.9036 0.2121
C7_10 C 0.8017(4) 0.8882(4) 0.2793(8)
C8_10 C 0.8283(5) 0.8653(5) 0.3138(9)
C9_10 C 0.8288(6) 0.8711(5) 0.3690(9)
H12_10 H 0.8501 0.8593 0.3896
C10_10 C 0.8025(6) 0.8955(6) 0.3918(8)
H13_10 H 0.8028 0.8985 0.4286
C11_10 C 0.7747(5) 0.9165(4) 0.3618(7)
C12_10 C 0.7734(5) 0.9139(5) 0.3078(10)
H14_10 H 0.7546 0.9284 0.2887
C13_10 C 0.8809(5) 0.8064(4) 0.1999(8)
C14_10 C 0.7411(6) 0.9438(6) 0.3850(10)
O1_10 O 0.8737(3) 0.8013(3) 0.1548(5)
O2_10 O 0.9060(3) 0.7885(3) 0.2329(4)
C15_10 C 0.8418(5) 0.6749(4) 0.4845(8)
H15_10 H 0.8298 0.6585 0.4599
C16_10 C 0.8347(5) 0.6708(4) 0.5344(8)
C17_10 C 0.8485(4) 0.7000(3) 0.5724(5)
H16_10 H 0.8420 0.6978 0.6095
C18_10 C 0.8732(5) 0.7279(4) 0.5522(7)
H17_10 H 0.8847 0.7454 0.5758
C19_10 C 0.8820(4) 0.7318(4) 0.4997(7)
C20_10 C 0.8685(5) 0.7051(4) 0.4669(8)
C21_10 C 0.8751(6) 0.7061(4) 0.4088(10)
H18_10 H 0.8625 0.6885 0.3864
C22_10 C 0.9024(5) 0.7360(5) 0.3875(7)
H19_10 H 0.9113 0.7364 0.3511
C23_10 C 0.9162(4) 0.7647(4) 0.4267(7)
C24_10 C 0.9075(4) 0.7618(3) 0.4788(6)
H20_10 H 0.9183 0.7798 0.5021
C25_10 C 0.8059(5) 0.6391(4) 0.5537(8)
C26_10 C 0.9422(5) 0.7971(5) 0.4040(8)
O7_10 O 0.9427(3) 0.7988(3) 0.3542(6)
O8_10 O 0.9618(3) 0.8154(3) 0.4357(4)
C39_9 C 0.7719(5) 0.5723(4) 0.0702(5)
H27_9 H 0.7585 0.5563 0.0961
C40_9 C 0.7644(4) 0.5665(4) 0.0164(6)
C43_9 C 0.8186(4) 0.6233(3) 0.0470(5)
C44_9 C 0.7994(4) 0.6007(4) 0.0866(4)
C45_9 C 0.8069(5) 0.6094(5) 0.1393(5)
H30_9 H 0.7939 0.5955 0.1676
C46_9 C 0.8325(5) 0.6394(5) 0.1535(6)
H31_9 H 0.8423 0.6457 0.1884
C47_9 C 0.8514(4) 0.6611(4) 0.1139(7)
C48_9 C 0.8442(5) 0.6537(4) 0.0610(7)
H32_9 H 0.8586 0.6697 0.0361
C50_9 C 0.8819(7) 0.6945(6) 0.1234(14)
O15_9 O 0.9031(5) 0.7141(4) 0.0951(7)
O16_9 O 0.8799(4) 0.7024(4) 0.1737(7)
O17_6 O 0.9959(3) 0.8067(3) 0.1876(6)
O18_6 O 0.9722(3) 0.7839(3) 0.1110(5)
O23_8 O 0.9796(3) 0.7431(3) 0.2739(4)
O24_7 O 0.9775(3) 0.7119(3) 0.1989(6)
C41_7 C 0.7860(5) 0.5879(5) 0.9788(5)
H28_7 H 0.7844 0.5815 0.9429
C42_7 C 0.8100(7) 0.6188(6) 0.9949(5)
H29_7 H 0.8176 0.6386 0.9702
C49_8 C 0.7373(5) 0.5350(5) 0.9965(9)
C3_11 C 0.3954(5) 0.0872(4) 0.5349(8)
H9_11 H 0.3769 0.0728 0.5546
C4_11 C 0.3968(4) 0.0819(3) 0.4855(7)
C5_11 C 0.4253(5) 0.1069(5) 0.4491(8)
H10_11 H 0.4274 0.1031 0.4113
C6_11 C 0.4483(5) 0.1359(6) 0.4808(9)
H11_11 H 0.4640 0.1536 0.4621
C7_11 C 0.4483(4) 0.1382(4) 0.5293(8)
C8_11 C 0.4217(5) 0.1153(5) 0.5638(9)
C9_11 C 0.4212(6) 0.1211(5) 0.6190(9)
H12_11 H 0.3999 0.1093 0.6396
C10_11 C 0.4475(6) 0.1455(6) 0.6418(8)
H13_11 H 0.4472 0.1485 0.6786
C11_11 C 0.4753(5) 0.1665(4) 0.6118(7)
C12_11 C 0.4766(5) 0.1639(5) 0.5578(10)
H14_11 H 0.4954 0.1784 0.5387
C13_11 C 0.3691(5) 0.0564(4) 0.4499(8)
C14_11 C 0.5089(6) 0.1938(6) 0.6350(10)
O1_11 O 0.3763(3) 0.0513(3) 0.4048(5)
O2_11 O 0.3440(3) 0.0385(3) 0.4829(4)
C23_11 C 0.3338(4) 0.0147(4) 0.6767(7)
C24_11 C 0.3425(4) 0.0118(3) 0.7288(6)
H20_11 H 0.3317 0.0298 0.7521
C26_11 C 0.3078(5) 0.0471(5) 0.6540(8)
O7_11 O 0.3073(3) 0.0488(3) 0.6042(6)
O8_11 O 0.2882(3) 0.0654(3) 0.6857(4)
C27_11 C 0.1436(6) 0.2045(6) 0.6958(9)
H21_11 H 0.1408 0.2100 0.6598
C28_11 C 0.1686(6) 0.1782(5) 0.7215(9)
C29_11 C 0.1706(6) 0.1747(5) 0.7761(9)
H22_11 H 0.1878 0.1559 0.7896
C30_11 C 0.1494(7) 0.1963(7) 0.8126(10)
H23_11 H 0.1515 0.1913 0.8489
C31_11 C 0.1255(6) 0.2249(6) 0.7947(9)
C32_11 C 0.1235(6) 0.2204(6) 0.7404(9)
C33_11 C 0.1002(7) 0.2483(6) 0.7183(9)
H24_9 H 0.0974 0.2528 0.6820
C34_11 C 0.0810(5) 0.2695(5) 0.7587(8)
H25_9 H 0.0637 0.2880 0.7445
C35_11 C 0.0806(5) 0.2703(5) 0.8146(8)
C36_11 C 0.1075(6) 0.2443(5) 0.8373(9)
H26_11 H 0.1118 0.2413 0.8749
C37_11 C 0.2006(6) 0.1515(5) 0.6893(10)
C38_11 C 0.0532(4) 0.3008(4) 0.8403(8)
O9_11 O 0.1976(3) 0.1512(3) 0.6411(5)
O10_11 O 0.2197(4) 0.1292(4) 0.7166(5)
O11_9 O 0.0568(3) 0.3030(3) 0.8908(6)
O12_9 O 0.0298(3) 0.3190(2) 0.8119(4)
C15_11 C 0.4082(5) 0.9249(4) 0.7345(8)
H15_11 H 0.4202 0.9085 0.7099
C16_11 C 0.4153(5) 0.9208(4) 0.7844(8)
C17_11 C 0.4015(4) 0.9500(3) 0.8224(5)
H16_11 H 0.4080 0.9478 0.8595
C18_11 C 0.3768(5) 0.9779(4) 0.8022(7)
H17_11 H 0.3653 0.9954 0.8258
C19_11 C 0.3680(4) 0.9818(4) 0.7497(7)
C20_11 C 0.3815(5) 0.9551(4) 0.7169(8)
C21_11 C 0.3749(6) 0.9561(4) 0.6588(10)
H18_11 H 0.3875 0.9385 0.6364
C22_11 C 0.3476(5) 0.9860(5) 0.6375(7)
H19_11 H 0.3387 0.9864 0.6011
C25_11 C 0.4441(5) 0.8891(4) 0.8037(8)
C39_10 C 0.4781(5) 0.8223(4) 0.3202(5)
H27_10 H 0.4915 0.8063 0.3461
C40_10 C 0.4856(4) 0.8165(4) 0.2664(6)
C41_8 C 0.4640(5) 0.8379(5) 0.2288(5)
H28_8 H 0.4656 0.8315 0.1929
C42_8 C 0.4400(7) 0.8688(6) 0.2449(5)
H29_8 H 0.4324 0.8886 0.2202
C43_10 C 0.4314(4) 0.8733(3) 0.2970(5)
C44_10 C 0.4506(4) 0.8507(4) 0.3366(4)
C45_10 C 0.4431(5) 0.8594(5) 0.3893(5)
H30_10 H 0.4561 0.8455 0.4176
C46_10 C 0.4175(5) 0.8894(5) 0.4035(6)
H31_10 H 0.4077 0.8957 0.4384
C47_10 C 0.3986(4) 0.9111(4) 0.3639(7)
C48_10 C 0.4058(5) 0.9037(4) 0.3110(7)
H32_10 H 0.3914 0.9197 0.2861
C49_9 C 0.5127(5) 0.7850(5) 0.2465(9)
C50_10 C 0.3681(7) 0.9445(6) 0.3734(14)
O15_10 O 0.3469(5) 0.9641(4) 0.3451(7)
O16_10 O 0.3701(4) 0.9524(4) 0.4237(7)
O23_9 O 0.2704(3) 0.9931(3) 0.5239(4)
O24_8 O 0.2725(3) 0.9619(3) 0.4489(6)
C3_12 C 0.1046(5) 0.4128(4) 0.5349(8)
H9_12 H 0.1231 0.4272 0.5546
C4_12 C 0.1032(4) 0.4181(3) 0.4855(7)
C5_12 C 0.0747(5) 0.3931(5) 0.4491(8)
H10_12 H 0.0726 0.3969 0.4113
C6_12 C 0.0517(5) 0.3641(6) 0.4808(9)
H11_12 H 0.0360 0.3464 0.4621
C7_12 C 0.0517(4) 0.3618(4) 0.5293(8)
C8_12 C 0.0783(5) 0.3847(5) 0.5638(9)
C9_12 C 0.0788(6) 0.3789(5) 0.6190(9)
H12_12 H 0.1001 0.3907 0.6396
C10_12 C 0.0525(6) 0.3545(6) 0.6418(8)
H13_12 H 0.0528 0.3515 0.6786
C11_12 C 0.0247(5) 0.3335(4) 0.6118(7)
C12_12 C 0.0234(5) 0.3361(5) 0.5578(10)
H14_12 H 0.0046 0.3216 0.5387
C13_12 C 0.1309(5) 0.4436(4) 0.4499(8)
O1_12 O 0.1237(3) 0.4487(3) 0.4048(5)
O2_12 O 0.1560(3) 0.4615(3) 0.4829(4)
C15_12 C 0.0918(5) 0.5751(4) 0.7345(8)
H15_12 H 0.0798 0.5915 0.7099
C16_12 C 0.0847(5) 0.5792(4) 0.7844(8)
C17_12 C 0.0985(4) 0.5500(3) 0.8224(5)
H16_12 H 0.0920 0.5522 0.8595
C18_12 C 0.1232(5) 0.5221(4) 0.8022(7)
H17_12 H 0.1347 0.5046 0.8258
C19_12 C 0.1320(4) 0.5182(4) 0.7497(7)
C20_12 C 0.1185(5) 0.5449(4) 0.7169(8)
C21_12 C 0.1251(6) 0.5439(4) 0.6588(10)
H18_12 H 0.1125 0.5615 0.6364
C22_12 C 0.1524(5) 0.5140(5) 0.6375(7)
H19_12 H 0.1613 0.5136 0.6011
C23_12 C 0.1662(4) 0.4853(4) 0.6767(7)
C24_12 C 0.1575(4) 0.4882(3) 0.7288(6)
H20_12 H 0.1683 0.4702 0.7521
C25_12 C 0.0559(5) 0.6109(4) 0.8037(8)
C26_12 C 0.1922(5) 0.4529(5) 0.6540(8)
O5_9 O 0.0462(3) 0.6062(3) 0.8500(5)
O6_9 O 0.0453(3) 0.6340(3) 0.7714(5)
O7_12 O 0.1927(3) 0.4512(3) 0.6042(6)
O8_12 O 0.2118(3) 0.4346(3) 0.6857(4)
C27_12 C 0.3564(6) 0.2955(6) 0.6958(9)
H21_12 H 0.3592 0.2900 0.6598
C28_12 C 0.3314(6) 0.3218(5) 0.7215(9)
C29_12 C 0.3294(6) 0.3253(5) 0.7761(9)
H22_12 H 0.3122 0.3441 0.7896
C30_12 C 0.3506(7) 0.3037(7) 0.8126(10)
H23_12 H 0.3485 0.3087 0.8489
C31_12 C 0.3745(6) 0.2751(6) 0.7947(9)
C32_12 C 0.3765(6) 0.2796(6) 0.7404(9)
C33_12 C 0.3998(7) 0.2517(6) 0.7183(9)
H24_10 H 0.4026 0.2472 0.6820
C34_12 C 0.4190(5) 0.2305(5) 0.7587(8)
H25_10 H 0.4363 0.2120 0.7445
C35_12 C 0.4194(5) 0.2297(5) 0.8146(8)
C36_12 C 0.3925(6) 0.2557(5) 0.8373(9)
H26_12 H 0.3882 0.2587 0.8749
C37_12 C 0.2994(6) 0.3485(5) 0.6893(10)
C38_12 C 0.4468(4) 0.1992(4) 0.8403(8)
O9_12 O 0.3024(3) 0.3488(3) 0.6411(5)
O10_12 O 0.2803(4) 0.3708(4) 0.7166(5)
C39_11 C 0.0219(5) 0.6777(4) 0.3202(5)
H27_11 H 0.0085 0.6937 0.3461
C40_11 C 0.0144(4) 0.6835(4) 0.2664(6)
C41_9 C 0.0360(5) 0.6621(5) 0.2288(5)
H28_9 H 0.0344 0.6685 0.1929
C42_9 C 0.0600(7) 0.6312(6) 0.2449(5)
H29_9 H 0.0676 0.6114 0.2202
C43_11 C 0.0686(4) 0.6267(3) 0.2970(5)
C44_11 C 0.0494(4) 0.6493(4) 0.3366(4)
C45_11 C 0.0569(5) 0.6406(5) 0.3893(5)
H30_11 H 0.0439 0.6545 0.4176
C46_11 C 0.0825(5) 0.6106(5) 0.4035(6)
H31_11 H 0.0923 0.6043 0.4384
C47_11 C 0.1014(4) 0.5889(4) 0.3639(7)
C48_11 C 0.0942(5) 0.5963(4) 0.3110(7)
H32_11 H 0.1086 0.5803 0.2861
C50_11 C 0.1319(7) 0.5555(6) 0.3734(14)
O15_11 O 0.1531(5) 0.5359(4) 0.3451(7)
O16_11 O 0.1299(4) 0.5476(4) 0.4237(7)
C14_12 C 0.9911(6) 0.3062(6) 0.6350(10)
O3_9 O 0.9959(3) 0.3067(3) 0.6876(6)
O4_9 O 0.9722(3) 0.2839(3) 0.6110(5)
C49_10 C 0.9873(5) 0.7150(5) 0.2465(9)
Cd6_6 Cd 0.93019(3) 0.25061(3) 0.66463(5)
C16_13 C 0.1653(5) 0.8292(4) 0.0344(8)
C17_13 C 0.1515(4) 0.8000(3) 0.0724(5)
H16_13 H 0.1580 0.8022 0.1095
C18_13 C 0.1268(5) 0.7721(4) 0.0522(7)
H17_13 H 0.1153 0.7546 0.0758
H20_13 H 0.0817 0.7202 0.0021
C25_13 C 0.1941(5) 0.8609(4) 0.0537(8)
O5_10 O 0.2038(3) 0.8562(3) 0.1000(5)
O6_10 O 0.2047(3) 0.8840(3) 0.0214(5)
C3_13 C 0.1454(5) 0.6628(4) 0.7849(8)
H9_13 H 0.1269 0.6772 0.8046
C4_13 C 0.1468(4) 0.6681(3) 0.7355(7)
C5_13 C 0.1753(5) 0.6431(5) 0.6991(8)
H10_13 H 0.1774 0.6469 0.6613
C6_13 C 0.1983(5) 0.6141(6) 0.7308(9)
H11_13 H 0.2140 0.5964 0.7121
C7_13 C 0.1983(4) 0.6118(4) 0.7793(8)
C8_13 C 0.1717(5) 0.6347(5) 0.8138(9)
C9_13 C 0.1712(6) 0.6289(5) 0.8690(9)
H12_13 H 0.1499 0.6407 0.8896
C10_13 C 0.1975(6) 0.6045(6) 0.8918(8)
H13_13 H 0.1972 0.6015 0.9286
C11_13 C 0.2253(5) 0.5835(4) 0.8618(7)
C12_13 C 0.2266(5) 0.5861(5) 0.8078(10)
H14_13 H 0.2454 0.5716 0.7887
C13_13 C 0.1191(5) 0.6936(4) 0.6999(8)
C14_13 C 0.2589(6) 0.5562(6) 0.8850(10)
O1_13 O 0.1263(3) 0.6987(3) 0.6548(5)
O2_13 O 0.0940(3) 0.7115(3) 0.7329(4)
O3_10 O 0.2541(3) 0.5567(3) 0.9376(6)
O4_10 O 0.2778(3) 0.5339(3) 0.8610(5)
C15_13 C 0.1582(5) 0.8251(4) 0.9845(8)
H15_13 H 0.1702 0.8415 0.9599
C19_13 C 0.1180(4) 0.7682(4) 0.9997(7)
C20_13 C 0.1315(5) 0.7949(4) 0.9669(8)
C21_13 C 0.1249(6) 0.7939(4) 0.9088(10)
H18_13 H 0.1375 0.8115 0.8864
C22_13 C 0.0976(5) 0.7640(5) 0.8875(7)
H19_13 H 0.0887 0.7636 0.8511
C23_13 C 0.0838(4) 0.7353(4) 0.9267(7)
C24_13 C 0.0925(4) 0.7382(3) 0.9788(6)
C26_13 C 0.0578(5) 0.7029(5) 0.9040(8)
O7_13 O 0.0573(3) 0.7012(3) 0.8542(6)
O8_13 O 0.0382(3) 0.6846(3) 0.9357(4)
C39_12 C 0.2281(5) 0.9277(4) 0.5702(5)
H27_12 H 0.2415 0.9437 0.5961
C40_12 C 0.2356(4) 0.9335(4) 0.5164(6)
C41_10 C 0.2140(5) 0.9121(5) 0.4788(5)
H28_10 H 0.2156 0.9185 0.4429
C42_10 C 0.1900(7) 0.8812(6) 0.4949(5)
H29_10 H 0.1824 0.8614 0.4702
C43_12 C 0.1814(4) 0.8767(3) 0.5470(5)
C44_12 C 0.2006(4) 0.8993(4) 0.5866(4)
C45_12 C 0.1931(5) 0.8906(5) 0.6393(5)
H30_12 H 0.2061 0.9045 0.6676
C46_12 C 0.1675(5) 0.8606(5) 0.6535(6)
H31_12 H 0.1577 0.8543 0.6884
C47_12 C 0.1486(4) 0.8389(4) 0.6139(7)
C48_12 C 0.1558(5) 0.8463(4) 0.5610(7)
H32_12 H 0.1414 0.8303 0.5361
C49_11 C 0.2627(5) 0.9650(5) 0.4965(9)
C50_12 C 0.1181(7) 0.8055(6) 0.6234(14)
O15_12 O 0.0969(5) 0.7859(4) 0.5951(7)
O16_12 O 0.1201(4) 0.7976(4) 0.6737(7)
C29_13 C 0.9206(6) 0.5753(5) 0.0261(9)
H22_13 H 0.9378 0.5941 0.0396
C30_13 C 0.8994(7) 0.5537(7) 0.0626(10)
H23_13 H 0.9015 0.5587 0.0989
C31_13 C 0.8755(6) 0.5251(6) 0.0447(9)
C34_13 C 0.8310(5) 0.4805(5) 0.0087(8)
C35_13 C 0.8306(5) 0.4797(5) 0.0646(8)
C36_13 C 0.8575(6) 0.5057(5) 0.0873(9)
H26_13 H 0.8618 0.5087 0.1249
C38_13 C 0.8032(4) 0.4492(4) 0.0903(8)
C27_13 C 0.8936(6) 0.5455(6) 0.9458(9)
H21_13 H 0.8908 0.5400 0.9098
C28_13 C 0.9186(6) 0.5718(5) 0.9715(9)
C32_13 C 0.8735(6) 0.5296(6) 0.9904(9)
C33_13 C 0.8502(7) 0.5017(6) 0.9683(9)
H24_11 H 0.8474 0.4972 0.9320
H25_11 H 0.8137 0.4620 0.9945
C37_13 C 0.9506(6) 0.5985(5) 0.9393(10)
O9_13 O 0.9476(3) 0.5988(3) 0.8911(5)
O10_13 O 0.9697(4) 0.6208(4) 0.9666(5)
C29_14 C 0.0794(6) 0.4247(5) 0.0261(9)
H22_14 H 0.0622 0.4059 0.0396
C30_14 C 0.1006(7) 0.4463(7) 0.0626(10)
H23_14 H 0.0985 0.4413 0.0989
C31_14 C 0.1245(6) 0.4749(6) 0.0447(9)
C34_14 C 0.1690(5) 0.5195(5) 0.0087(8)
C35_14 C 0.1694(5) 0.5203(5) 0.0646(8)
C36_14 C 0.1425(6) 0.4943(5) 0.0873(9)
H26_14 H 0.1382 0.4913 0.1249
C38_14 C 0.1968(4) 0.5508(4) 0.0903(8)
O11_10 O 0.1932(3) 0.5530(3) 0.1408(6)
O12_10 O 0.2202(3) 0.5690(2) 0.0619(4)
C27_14 C 0.1064(6) 0.4545(6) 0.9458(9)
H21_14 H 0.1092 0.4600 0.9098
C28_14 C 0.0814(6) 0.4282(5) 0.9715(9)
C32_14 C 0.1265(6) 0.4704(6) 0.9904(9)
C33_14 C 0.1498(7) 0.4983(6) 0.9683(9)
H24_12 H 0.1526 0.5028 0.9320
H25_12 H 0.1863 0.5380 0.9945
C37_14 C 0.0494(6) 0.4015(5) 0.9393(10)
O9_14 O 0.0524(3) 0.4012(3) 0.8911(5)
O10_14 O 0.0303(4) 0.3792(4) 0.9666(5)
C16_14 C 0.8347(5) 0.1708(4) 0.0344(8)
C17_14 C 0.8485(4) 0.2000(3) 0.0724(5)
H16_14 H 0.8420 0.1978 0.1095
C18_14 C 0.8732(5) 0.2279(4) 0.0522(7)
H17_14 H 0.8847 0.2454 0.0758
H20_14 H 0.9183 0.2798 0.0021
C25_14 C 0.8059(5) 0.1391(4) 0.0537(8)
C3_14 C 0.8546(5) 0.3372(4) 0.7849(8)
H9_14 H 0.8731 0.3228 0.8046
C4_14 C 0.8532(4) 0.3319(3) 0.7355(7)
C5_14 C 0.8247(5) 0.3569(5) 0.6991(8)
H10_14 H 0.8226 0.3531 0.6613
C6_14 C 0.8017(5) 0.3859(6) 0.7308(9)
H11_14 H 0.7860 0.4036 0.7121
C7_14 C 0.8017(4) 0.3882(4) 0.7793(8)
C8_14 C 0.8283(5) 0.3653(5) 0.8138(9)
C9_14 C 0.8288(6) 0.3711(5) 0.8690(9)
H12_14 H 0.8501 0.3593 0.8896
C10_14 C 0.8025(6) 0.3955(6) 0.8918(8)
H13_14 H 0.8028 0.3985 0.9286
C11_14 C 0.7747(5) 0.4165(4) 0.8618(7)
C12_14 C 0.7734(5) 0.4139(5) 0.8078(10)
H14_14 H 0.7546 0.4284 0.7887
C13_14 C 0.8809(5) 0.3064(4) 0.6999(8)
C14_14 C 0.7411(6) 0.4438(6) 0.8850(10)
O1_14 O 0.8737(3) 0.3013(3) 0.6548(5)
O2_14 O 0.9060(3) 0.2885(3) 0.7329(4)
C15_14 C 0.8418(5) 0.1749(4) 0.9845(8)
H15_14 H 0.8298 0.1585 0.9599
C19_14 C 0.8820(4) 0.2318(4) 0.9997(7)
C20_14 C 0.8685(5) 0.2051(4) 0.9669(8)
C21_14 C 0.8751(6) 0.2061(4) 0.9088(10)
H18_14 H 0.8625 0.1885 0.8864
C22_14 C 0.9024(5) 0.2360(5) 0.8875(7)
H19_14 H 0.9113 0.2364 0.8511
C23_14 C 0.9162(4) 0.2647(4) 0.9267(7)
C24_14 C 0.9075(4) 0.2618(3) 0.9788(6)
C26_14 C 0.9422(5) 0.2971(5) 0.9040(8)
O7_14 O 0.9427(3) 0.2988(3) 0.8542(6)
O8_14 O 0.9618(3) 0.3154(3) 0.9357(4)
C39_13 C 0.7719(5) 0.0723(4) 0.5702(5)
H27_13 H 0.7585 0.0563 0.5961
C40_13 C 0.7644(4) 0.0665(4) 0.5164(6)
C41_11 C 0.7860(5) 0.0879(5) 0.4788(5)
H28_11 H 0.7844 0.0815 0.4429
C42_11 C 0.8100(7) 0.1188(6) 0.4949(5)
H29_11 H 0.8176 0.1386 0.4702
C43_13 C 0.8186(4) 0.1233(3) 0.5470(5)
C44_13 C 0.7994(4) 0.1007(4) 0.5866(4)
C45_13 C 0.8069(5) 0.1094(5) 0.6393(5)
H30_13 H 0.7939 0.0955 0.6676
C46_13 C 0.8325(5) 0.1394(5) 0.6535(6)
H31_13 H 0.8423 0.1457 0.6884
C47_13 C 0.8514(4) 0.1611(4) 0.6139(7)
C48_13 C 0.8442(5) 0.1537(4) 0.5610(7)
H32_13 H 0.8586 0.1697 0.5361
C49_12 C 0.7373(5) 0.0350(5) 0.4965(9)
C50_13 C 0.8819(7) 0.1945(6) 0.6234(14)
O15_13 O 0.9031(5) 0.2141(4) 0.5951(7)
O16_13 O 0.8799(4) 0.2024(4) 0.6737(7)
O23_10 O 0.9796(3) 0.2431(3) 0.7739(4)
O24_9 O 0.9775(3) 0.2119(3) 0.6989(6)
C3_15 C 0.3954(5) 0.5872(4) 0.0349(8)
H9_15 H 0.3769 0.5728 0.0546
C7_15 C 0.4483(4) 0.6382(4) 0.0293(8)
C8_15 C 0.4217(5) 0.6153(5) 0.0638(9)
C9_15 C 0.4212(6) 0.6211(5) 0.1190(9)
H12_15 H 0.3999 0.6093 0.1396
C10_15 C 0.4475(6) 0.6455(6) 0.1418(8)
H13_15 H 0.4472 0.6485 0.1786
C11_15 C 0.4753(5) 0.6665(4) 0.1118(7)
C12_15 C 0.4766(5) 0.6639(5) 0.0578(10)
H14_15 H 0.4954 0.6784 0.0387
C14_15 C 0.5089(6) 0.6938(6) 0.1350(10)
C15_15 C 0.4082(5) 0.4249(4) 0.2345(8)
H15_15 H 0.4202 0.4085 0.2099
C16_15 C 0.4153(5) 0.4208(4) 0.2844(8)
C17_15 C 0.4015(4) 0.4500(3) 0.3224(5)
H16_15 H 0.4080 0.4478 0.3595
C18_15 C 0.3768(5) 0.4779(4) 0.3022(7)
H17_15 H 0.3653 0.4954 0.3258
C19_15 C 0.3680(4) 0.4818(4) 0.2497(7)
C20_15 C 0.3815(5) 0.4551(4) 0.2169(8)
C21_15 C 0.3749(6) 0.4561(4) 0.1588(10)
H18_15 H 0.3875 0.4385 0.1364
C22_15 C 0.3476(5) 0.4860(5) 0.1375(7)
H19_15 H 0.3387 0.4864 0.1011
C23_15 C 0.3338(4) 0.5147(4) 0.1767(7)
C24_15 C 0.3425(4) 0.5118(3) 0.2288(6)
H20_15 H 0.3317 0.5298 0.2521
C25_15 C 0.4441(5) 0.3891(4) 0.3037(8)
C26_15 C 0.3078(5) 0.5471(5) 0.1540(8)
O7_15 O 0.3073(3) 0.5488(3) 0.1042(6)
O8_15 O 0.2882(3) 0.5654(3) 0.1857(4)
C27_15 C 0.1436(6) 0.7045(6) 0.1958(9)
H21_15 H 0.1408 0.7100 0.1598
C28_15 C 0.1686(6) 0.6782(5) 0.2215(9)
C29_15 C 0.1706(6) 0.6747(5) 0.2761(9)
H22_15 H 0.1878 0.6559 0.2896
C30_15 C 0.1494(7) 0.6963(7) 0.3126(10)
H23_15 H 0.1515 0.6913 0.3489
C31_15 C 0.1255(6) 0.7249(6) 0.2947(9)
C32_15 C 0.1235(6) 0.7204(6) 0.2404(9)
C33_15 C 0.1002(7) 0.7483(6) 0.2183(9)
H24_13 H 0.0974 0.7528 0.1820
C34_15 C 0.0810(5) 0.7695(5) 0.2587(8)
H25_13 H 0.0637 0.7880 0.2445
C35_15 C 0.0806(5) 0.7703(5) 0.3146(8)
C36_15 C 0.1075(6) 0.7443(5) 0.3373(9)
H26_15 H 0.1118 0.7413 0.3749
C37_15 C 0.2006(6) 0.6515(5) 0.1893(10)
C38_15 C 0.0532(4) 0.8008(4) 0.3403(8)
O9_15 O 0.1976(3) 0.6512(3) 0.1411(5)
O10_15 O 0.2197(4) 0.6292(4) 0.2166(5)
C4_15 C 0.3968(4) 0.5819(3) 0.9855(7)
C5_15 C 0.4253(5) 0.6069(5) 0.9491(8)
H10_15 H 0.4274 0.6031 0.9113
C6_15 C 0.4483(5) 0.6359(6) 0.9808(9)
H11_15 H 0.4640 0.6536 0.9621
C13_15 C 0.3691(5) 0.5564(4) 0.9499(8)
O1_15 O 0.3763(3) 0.5513(3) 0.9048(5)
O2_15 O 0.3440(3) 0.5385(3) 0.9829(4)
C39_14 C 0.4781(5) 0.3223(4) 0.8202(5)
H27_14 H 0.4915 0.3063 0.8461
C40_14 C 0.4856(4) 0.3165(4) 0.7664(6)
C41_12 C 0.4640(5) 0.3379(5) 0.7288(5)
H28_12 H 0.4656 0.3315 0.6929
C42_12 C 0.4400(7) 0.3688(6) 0.7449(5)
H29_12 H 0.4324 0.3886 0.7202
C43_14 C 0.4314(4) 0.3733(3) 0.7970(5)
C44_14 C 0.4506(4) 0.3507(4) 0.8366(4)
C45_14 C 0.4431(5) 0.3594(5) 0.8893(5)
H30_14 H 0.4561 0.3455 0.9176
C46_14 C 0.4175(5) 0.3894(5) 0.9035(6)
H31_14 H 0.4077 0.3957 0.9384
C47_14 C 0.3986(4) 0.4111(4) 0.8639(7)
C48_14 C 0.4058(5) 0.4037(4) 0.8110(7)
H32_14 H 0.3914 0.4197 0.7861
C49_13 C 0.5127(5) 0.2850(5) 0.7465(9)
C50_14 C 0.3681(7) 0.4445(6) 0.8734(14)
O15_14 O 0.3469(5) 0.4641(4) 0.8451(7)
O16_14 O 0.3701(4) 0.4524(4) 0.9237(7)
C15_16 C 0.0918(5) 0.0751(4) 0.2345(8)
H15_16 H 0.0798 0.0915 0.2099
C16_16 C 0.0847(5) 0.0792(4) 0.2844(8)
C17_16 C 0.0985(4) 0.0500(3) 0.3224(5)
H16_16 H 0.0920 0.0522 0.3595
C18_16 C 0.1232(5) 0.0221(4) 0.3022(7)
H17_16 H 0.1347 0.0046 0.3258
C19_16 C 0.1320(4) 0.0182(4) 0.2497(7)
C20_16 C 0.1185(5) 0.0449(4) 0.2169(8)
C21_16 C 0.1251(6) 0.0439(4) 0.1588(10)
H18_16 H 0.1125 0.0615 0.1364
C22_16 C 0.1524(5) 0.0140(5) 0.1375(7)
H19_16 H 0.1613 0.0136 0.1011
C25_16 C 0.0559(5) 0.1109(4) 0.3037(8)
C3_16 C 0.1046(5) 0.9128(4) 0.0349(8)
H9_16 H 0.1231 0.9272 0.0546
C7_16 C 0.0517(4) 0.8618(4) 0.0293(8)
C8_16 C 0.0783(5) 0.8847(5) 0.0638(9)
C9_16 C 0.0788(6) 0.8789(5) 0.1190(9)
H12_16 H 0.1001 0.8907 0.1396
C10_16 C 0.0525(6) 0.8545(6) 0.1418(8)
H13_16 H 0.0528 0.8515 0.1786
C11_16 C 0.0247(5) 0.8335(4) 0.1118(7)
C12_16 C 0.0234(5) 0.8361(5) 0.0578(10)
H14_16 H 0.0046 0.8216 0.0387
C23_16 C 0.1662(4) 0.9853(4) 0.1767(7)
C24_16 C 0.1575(4) 0.9882(3) 0.2288(6)
H20_16 H 0.1683 0.9702 0.2521
C26_16 C 0.1922(5) 0.9529(5) 0.1540(8)
O7_16 O 0.1927(3) 0.9512(3) 0.1042(6)
O8_16 O 0.2118(3) 0.9346(3) 0.1857(4)
C27_16 C 0.3564(6) 0.7955(6) 0.1958(9)
H21_16 H 0.3592 0.7900 0.1598
C28_16 C 0.3314(6) 0.8218(5) 0.2215(9)
C29_16 C 0.3294(6) 0.8253(5) 0.2761(9)
H22_16 H 0.3122 0.8441 0.2896
C30_16 C 0.3506(7) 0.8037(7) 0.3126(10)
H23_16 H 0.3485 0.8087 0.3489
C31_16 C 0.3745(6) 0.7751(6) 0.2947(9)
C32_16 C 0.3765(6) 0.7796(6) 0.2404(9)
C33_16 C 0.3998(7) 0.7517(6) 0.2183(9)
H24_14 H 0.4026 0.7472 0.1820
C34_16 C 0.4190(5) 0.7305(5) 0.2587(8)
H25_14 H 0.4363 0.7120 0.2445
C35_16 C 0.4194(5) 0.7297(5) 0.3146(8)
C36_16 C 0.3925(6) 0.7557(5) 0.3373(9)
H26_16 H 0.3882 0.7587 0.3749
C37_16 C 0.2994(6) 0.8485(5) 0.1893(10)
C38_16 C 0.4468(4) 0.6992(4) 0.3403(8)
O9_16 O 0.3024(3) 0.8488(3) 0.1411(5)
O10_16 O 0.2803(4) 0.8708(4) 0.2166(5)
C4_16 C 0.1032(4) 0.9181(3) 0.9855(7)
C5_16 C 0.0747(5) 0.8931(5) 0.9491(8)
H10_16 H 0.0726 0.8969 0.9113
C6_16 C 0.0517(5) 0.8641(6) 0.9808(9)
H11_16 H 0.0360 0.8464 0.9621
C13_16 C 0.1309(5) 0.9436(4) 0.9499(8)
O1_16 O 0.1237(3) 0.9487(3) 0.9048(5)
O2_16 O 0.1560(3) 0.9615(3) 0.9829(4)
C49_14 C 0.9873(5) 0.2150(5) 0.7465(9)
C14_16 C 0.9911(6) 0.8062(6) 0.1350(10)
H24_15 H 0.3474 0.9972 0.9320
H25_15 H 0.3137 0.9620 0.9945
H24_16 H 0.6526 0.0028 0.9320
H25_16 H 0.6863 0.0380 0.9945
C39_15 C 0.9781(5) 0.8223(4) 0.8202(5)
H27_15 H 0.9915 0.8063 0.8461
C40_15 C 0.9856(4) 0.8165(4) 0.7664(6)
C41_13 C 0.9640(5) 0.8379(5) 0.7288(5)
H28_13 H 0.9656 0.8315 0.6929
C42_13 C 0.9400(7) 0.8688(6) 0.7449(5)
H29_13 H 0.9324 0.8886 0.7202
C43_15 C 0.9314(4) 0.8733(3) 0.7970(5)
C44_15 C 0.9506(4) 0.8507(4) 0.8366(4)
C45_15 C 0.9431(5) 0.8594(5) 0.8893(5)
H30_15 H 0.9561 0.8455 0.9176
C46_15 C 0.9175(5) 0.8894(5) 0.9035(6)
H31_15 H 0.9077 0.8957 0.9384
C47_15 C 0.8986(4) 0.9111(4) 0.8639(7)
C48_15 C 0.9058(5) 0.9037(4) 0.8110(7)
H32_15 H 0.8914 0.9197 0.7861
C50_15 C 0.8681(7) 0.9445(6) 0.8734(14)
O15_15 O 0.8469(5) 0.9641(4) 0.8451(7)
O16_15 O 0.8701(4) 0.9524(4) 0.9237(7)
O24_10 O 0.7725(3) 0.9619(3) 0.9489(6)
C41_14 C 0.7140(5) 0.9121(5) 0.9788(5)
H28_14 H 0.7156 0.9185 0.9429
C42_14 C 0.6900(7) 0.8812(6) 0.9949(5)
H29_14 H 0.6824 0.8614 0.9702
C49_15 C 0.7627(5) 0.9650(5) 0.9965(9)
C41_15 C 0.2860(5) 0.0879(5) 0.9788(5)
H28_15 H 0.2844 0.0815 0.9429
C42_15 C 0.3100(7) 0.1188(6) 0.9949(5)
H29_15 H 0.3176 0.1386 0.9702
C49_16 C 0.2373(5) 0.0350(5) 0.9965(9)
O14_6 O 0.2275(3) 0.0381(3) 0.9489(6)
C39_16 C 0.0219(5) 0.1777(4) 0.8202(5)
H27_16 H 0.0085 0.1937 0.8461
C40_16 C 0.0144(4) 0.1835(4) 0.7664(6)
C41_16 C 0.0360(5) 0.1621(5) 0.7288(5)
H28_16 H 0.0344 0.1685 0.6929
C42_16 C 0.0600(7) 0.1312(6) 0.7449(5)
H29_16 H 0.0676 0.1114 0.7202
C43_16 C 0.0686(4) 0.1267(3) 0.7970(5)
C44_16 C 0.0494(4) 0.1493(4) 0.8366(4)
C45_16 C 0.0569(5) 0.1406(5) 0.8893(5)
H30_16 H 0.0439 0.1545 0.9176
C46_16 C 0.0825(5) 0.1106(5) 0.9035(6)
H31_16 H 0.0923 0.1043 0.9384
C47_16 C 0.1014(4) 0.0889(4) 0.8639(7)
C48_16 C 0.0942(5) 0.0963(4) 0.8110(7)
H32_16 H 0.1086 0.0803 0.7861
C50_16 C 0.1319(7) 0.0555(6) 0.8734(14)
O15_16 O 0.1531(5) 0.0359(4) 0.8451(7)
O16_16 O 0.1299(4) 0.0476(4) 0.9237(7)
loop_
_geom_bond_atom_site_label_1
_geom_bond_atom_site_label_2
_geom_bond_site_symmetry_1
_geom_bond_site_symmetry_2
N1 H1 1_555 1_555
H2 N1 1_555 1_555
C1 N1 1_555 1_555
H3 C1 1_555 1_555
H4 C1 1_555 1_555
H5 C1 1_555 1_555
C2 N1 1_555 1_555
H6 C2 1_555 1_555
H7 C2 1_555 1_555
H8 C2 1_555 1_555
N1_2 H1_2 1_555 1_555
H2_2 N1_2 1_555 1_555
C1_2 N1_2 1_555 1_555
H3_2 C1_2 1_555 1_555
H4_2 C1_2 1_555 1_555
H5_2 C1_2 1_555 1_555
C2_2 N1_2 1_555 1_555
H6_2 C2_2 1_555 1_555
H7_2 C2_2 1_555 1_555
H8_2 C2_2 1_555 1_555
N1_3 H1_3 1_555 1_555
H2_3 N1_3 1_555 1_555
C1_3 N1_3 1_555 1_555
H3_3 C1_3 1_555 1_555
H4_3 C1_3 1_555 1_555
H5_3 C1_3 1_555 1_555
C2_3 N1_3 1_555 1_555
H6_3 C2_3 1_555 1_555
H7_3 C2_3 1_555 1_555
N1_4 H1_4 1_555 1_555
H2_4 N1_4 1_555 1_555
C1_4 N1_4 1_555 1_555
H3_4 C1_4 1_555 1_555
H4_4 C1_4 1_555 1_555
H5_4 C1_4 1_555 1_555
C2_4 N1_4 1_555 1_555
H6_4 C2_4 1_555 1_555
H7_4 C2_4 1_555 1_555
H8_4 C2_4 1_555 1_555
H2_5 N1_5 1_555 1_555
C1_5 N1_5 1_555 1_555
H3_5 C1_5 1_555 1_555
H4_5 C1_5 1_555 1_555
H5_5 C1_5 1_555 1_555
H6_5 C2_5 1_555 1_555
H7_5 C2_5 1_555 1_555
H2_6 N1_6 1_555 1_555
C1_6 N1_6 1_555 1_555
H3_6 C1_6 1_555 1_555
H4_6 C1_6 1_555 1_555
H5_6 C1_6 1_555 1_555
H6_6 C2_6 1_555 1_555
H7_6 C2_6 1_555 1_555
N1_7 H1_7 1_555 1_555
H2_7 N1_7 1_555 1_555
C1_7 N1_7 1_555 1_555
H3_7 C1_7 1_555 1_555
H4_7 C1_7 1_555 1_555
H5_7 C1_7 1_555 1_555
C2_7 N1_7 1_555 1_555
H6_7 C2_7 1_555 1_555
H7_7 C2_7 1_555 1_555
H8_7 C2_7 1_555 1_555
N1_8 H1_8 1_555 1_555
H2_8 N1_8 1_555 1_555
C1_8 N1_8 1_555 1_555
H3_8 C1_8 1_555 1_555
H4_8 C1_8 1_555 1_555
H5_8 C1_8 1_555 1_555
C2_8 N1_8 1_555 1_555
H6_8 C2_8 1_555 1_555
H7_8 C2_8 1_555 1_555
H2_9 N1_9 1_555 1_555
C1_9 N1_9 1_555 1_555
H3_9 C1_9 1_555 1_555
H6_9 C2_9 1_555 1_555
H7_9 C2_9 1_555 1_555
H2_10 N1_10 1_555 1_555
C1_10 N1_10 1_555 1_555
H3_10 C1_10 1_555 1_555
H6_10 C2_10 1_555 1_555
H7_10 C2_10 1_555 1_555
N1_11 H1_11 1_555 1_555
H2_11 N1_11 1_555 1_555
C1_11 N1_11 1_555 1_555
H3_11 C1_11 1_555 1_555
H4_11 C1_11 1_555 1_555
H5_11 C1_11 1_555 1_555
C2_11 N1_11 1_555 1_555
H6_11 C2_11 1_555 1_555
H7_11 C2_11 1_555 1_555
N1_12 H1_12 1_555 1_555
H2_12 N1_12 1_555 1_555
C1_12 N1_12 1_555 1_555
H3_12 C1_12 1_555 1_555
H4_12 C1_12 1_555 1_555
H5_12 C1_12 1_555 1_555
C2_12 N1_12 1_555 1_555
H6_12 C2_12 1_555 1_555
H7_12 C2_12 1_555 1_555
H8_12 C2_12 1_555 1_555
N1_13 H1_13 1_555 1_555
H2_13 N1_13 1_555 1_555
C1_13 N1_13 1_555 1_555
H3_13 C1_13 1_555 1_555
C2_13 N1_13 1_555 1_555
H6_13 C2_13 1_555 1_555
H7_13 C2_13 1_555 1_555
H8_13 C2_13 1_555 1_555
N1_14 H1_14 1_555 1_555
H2_14 N1_14 1_555 1_555
C1_14 N1_14 1_555 1_555
H3_14 C1_14 1_555 1_555
C2_14 N1_14 1_555 1_555
H6_14 C2_14 1_555 1_555
H7_14 C2_14 1_555 1_555
H8_14 C2_14 1_555 1_555
N1_15 H1_15 1_555 1_555
H2_15 N1_15 1_555 1_555
C1_15 N1_15 1_555 1_555
H3_15 C1_15 1_555 1_555
H4_15 C1_15 1_555 1_555
H5_15 C1_15 1_555 1_555
C2_15 N1_15 1_555 1_555
H6_15 C2_15 1_555 1_555
H7_15 C2_15 1_555 1_555
H8_15 C2_15 1_555 1_555
N1_16 H1_16 1_555 1_555
H2_16 N1_16 1_555 1_555
C1_16 N1_16 1_555 1_555
H3_16 C1_16 1_555 1_555
H4_16 C1_16 1_555 1_555
H5_16 C1_16 1_555 1_555
C2_16 N1_16 1_555 1_555
H6_16 C2_16 1_555 1_555
H7_16 C2_16 1_555 1_555
C17 C16 1_555 1_555
H16 C17 1_555 1_555
C18 C17 1_555 1_555
H17 C18 1_555 1_555
C25 C16 1_555 1_555
O5 C25 1_555 1_555
O6 C25 1_555 1_555
H22 C29 1_555 1_555
C30 C29 1_555 1_555
H23 C30 1_555 1_555
C31 C30 1_555 1_555
C36 C31 1_555 1_555
H26 C36 1_555 1_555
Cd4 O5 1_555 1_555
Cd9 O6 1_555 1_555
Cd1 O8 1_555 1_555
Cd2 O1 1_555 1_555
Cd3 O2 1_555 1_555
C3 H9 1_555 1_555
C4 C3 1_555 1_555
C5 C4 1_555 1_555
H10 C5 1_555 1_555
C6 C5 1_555 1_555
H11 C6 1_555 1_555
C7 C6 1_555 1_555
C8 C3 1_555 1_555
C9 C8 1_555 1_555
H12 C9 1_555 1_555
C10 C9 1_555 1_555
H13 C10 1_555 1_555
C11 C10 1_555 1_555
C12 C7 1_555 1_555
H14 C12 1_555 1_555
C13 C4 1_555 1_555
C14 C11 1_555 1_555
O1 C13 1_555 1_555
O2 Cd2 1_555 1_555
O3 C14 1_555 1_555
O4 C14 1_555 1_555
C15 H15 1_555 1_555
C20 C15 1_555 1_555
C21 C20 1_555 1_555
H18 C21 1_555 1_555
C22 C21 1_555 1_555
H19 C22 1_555 1_555
C23 C22 1_555 1_555
C24 C19 1_555 1_555
C26 C23 1_555 1_555
O7 Cd3 1_555 1_555
O8 C26 1_555 1_555
C27 H21 1_555 1_555
C28 C27 1_555 1_555
C32 C27 1_555 1_555
C33 C32 1_555 1_555
C37 C28 1_555 1_555
O9 Cd1 1_555 1_555
O10 Cd1 1_555 1_555
C39 H27 1_555 1_555
C40 C39 1_555 1_555
C41 C40 1_555 1_555
H28 C41 1_555 1_555
C42 C41 1_555 1_555
H29 C42 1_555 1_555
C43 C42 1_555 1_555
C44 C39 1_555 1_555
C45 C44 1_555 1_555
H30 C45 1_555 1_555
C46 C45 1_555 1_555
H31 C46 1_555 1_555
C47 C46 1_555 1_555
C48 C43 1_555 1_555
H32 C48 1_555 1_555
C49 C40 1_555 1_555
C50 C47 1_555 1_555
O13 C49 1_555 1_555
O14 C49 1_555 1_555
O15 Cd2 1_555 1_555
O16 Cd2 1_555 1_555
Cd6 O4 1_555 1_555
Cd7 O14 1_555 1_555
Cd10 O13 1_555 1_555
O17 Cd3 1_555 1_555
O18 Cd2 1_555 1_555
O19 Cd1 1_555 1_555
O20 Cd3 1_555 1_555
O21 Cd1 1_555 1_555
O22 Cd1 1_555 1_555
O23 Cd3 1_555 1_555
O24 Cd2 1_555 1_555
Cd3 O22 1_555 1_555
C7 C8 1_555 1_555
C11 C12 1_555 1_555
C13 O2 1_555 1_555
C19 C20 1_555 1_555
C23 C24 1_555 1_555
C26 O7 1_555 1_555
C37 O9 1_555 1_555
C37 O10 1_555 1_555
C43 C44 1_555 1_555
C47 C48 1_555 1_555
C50 O15 1_555 1_555
C50 O16 1_555 1_555
C35 C34 1_555 1_555
C38 C35 1_555 1_555
O11 C38 1_555 1_555
O12 C38 1_555 1_555
Cd5 O11 1_555 1_555
Cd11 O12 1_555 1_555
O12 Cd5 1_555 1_555
C35_2 C34_2 1_555 1_555
C38_2 C35_2 1_555 1_555
O11_2 C38_2 1_555 1_555
O12_2 C38_2 1_555 1_555
Cd5_2 O11_2 1_555 1_555
Cd8 O12_2 1_555 1_555
O12_2 Cd5_2 1_555 1_555
C17_2 C16_2 1_555 1_555
H16_2 C17_2 1_555 1_555
C18_2 C17_2 1_555 1_555
H17_2 C18_2 1_555 1_555
C25_2 C16_2 1_555 1_555
O5_2 C25_2 1_555 1_555
O6_2 C25_2 1_555 1_555
H22_2 C29_2 1_555 1_555
C30_2 C29_2 1_555 1_555
H23_2 C30_2 1_555 1_555
C31_2 C30_2 1_555 1_555
C36_2 C31_2 1_555 1_555
H26_2 C36_2 1_555 1_555
Cd4_2 O5_2 1_555 1_555
Cd9_2 O6_2 1_555 1_555
Cd1_2 O8_2 1_555 1_555
Cd2_2 O1_2 1_555 1_555
Cd3_2 O2_2 1_555 1_555
C3_2 H9_2 1_555 1_555
C4_2 C3_2 1_555 1_555
C5_2 C4_2 1_555 1_555
H10_2 C5_2 1_555 1_555
C6_2 C5_2 1_555 1_555
H11_2 C6_2 1_555 1_555
C7_2 C6_2 1_555 1_555
C8_2 C3_2 1_555 1_555
C9_2 C8_2 1_555 1_555
H12_2 C9_2 1_555 1_555
C10_2 C9_2 1_555 1_555
H13_2 C10_2 1_555 1_555
C11_2 C10_2 1_555 1_555
C12_2 C7_2 1_555 1_555
H14_2 C12_2 1_555 1_555
C13_2 C4_2 1_555 1_555
C14_2 C11_2 1_555 1_555
O1_2 C13_2 1_555 1_555
O2_2 Cd2_2 1_555 1_555
O3_2 C14_2 1_555 1_555
O4_2 C14_2 1_555 1_555
C15_2 H15_2 1_555 1_555
C20_2 C15_2 1_555 1_555
C21_2 C20_2 1_555 1_555
H18_2 C21_2 1_555 1_555
C22_2 C21_2 1_555 1_555
H19_2 C22_2 1_555 1_555
C23_2 C22_2 1_555 1_555
C24_2 C19_2 1_555 1_555
C26_2 C23_2 1_555 1_555
O7_2 Cd3_2 1_555 1_555
O8_2 C26_2 1_555 1_555
C27_2 H21_2 1_555 1_555
C28_2 C27_2 1_555 1_555
C32_2 C27_2 1_555 1_555
C33_2 C32_2 1_555 1_555
C37_2 C28_2 1_555 1_555
O9_2 Cd1_2 1_555 1_555
O10_2 Cd1_2 1_555 1_555
C39_2 H27_2 1_555 1_555
C40_2 C39_2 1_555 1_555
C41_2 C40_2 1_555 1_555
H28_2 C41_2 1_555 1_555
C42_2 C41_2 1_555 1_555
H29_2 C42_2 1_555 1_555
C43_2 C42_2 1_555 1_555
C44_2 C39_2 1_555 1_555
C45_2 C44_2 1_555 1_555
H30_2 C45_2 1_555 1_555
C46_2 C45_2 1_555 1_555
H31_2 C46_2 1_555 1_555
C47_2 C46_2 1_555 1_555
C48_2 C43_2 1_555 1_555
H32_2 C48_2 1_555 1_555
C49_2 C40_2 1_555 1_555
C50_2 C47_2 1_555 1_555
O13_2 C49_2 1_555 1_555
O14_2 C49_2 1_555 1_555
O15_2 Cd2_2 1_555 1_555
O16_2 Cd2_2 1_555 1_555
Cd6_2 O4_2 1_555 1_555
Cd7_2 O14_2 1_555 1_555
Cd10_2 O13_2 1_555 1_555
O17_2 Cd3_2 1_555 1_555
O18_2 Cd2_2 1_555 1_555
O19_2 Cd1_2 1_555 1_555
O20_2 Cd3_2 1_555 1_555
O21_2 Cd1_2 1_555 1_555
O22_2 Cd1_2 1_555 1_555
O23_2 Cd3_2 1_555 1_555
O24_2 Cd2_2 1_555 1_555
Cd3_2 O22_2 1_555 1_555
C7_2 C8_2 1_555 1_555
C11_2 C12_2 1_555 1_555
C13_2 O2_2 1_555 1_555
C19_2 C20_2 1_555 1_555
C23_2 C24_2 1_555 1_555
C26_2 O7_2 1_555 1_555
C37_2 O9_2 1_555 1_555
C37_2 O10_2 1_555 1_555
C43_2 C44_2 1_555 1_555
C47_2 C48_2 1_555 1_555
C50_2 O15_2 1_555 1_555
C50_2 O16_2 1_555 1_555
O3_3 C14_3 1_555 1_555
O4_3 C14_3 1_555 1_555
Cd6_3 O4_3 1_555 1_555
Cd8_2 O3_3 1_555 1_555
O13_3 C49_3 1_555 1_555
O14_3 C49_3 1_555 1_555
Cd7_3 O14_3 1_555 1_555
Cd10_3 O13_3 1_555 1_555
Cd5_2 O8_3 1_555 1_555
C3_3 H9_3 1_555 1_555
C8_3 C3_3 1_555 1_555
C9_3 C8_3 1_555 1_555
H12_3 C9_3 1_555 1_555
C10_3 C9_3 1_555 1_555
H13_3 C10_3 1_555 1_555
C11_3 C10_3 1_555 1_555
C12_3 C7_3 1_555 1_555
H14_3 C12_3 1_555 1_555
H20_3 C24_3 1_555 1_555
C26_3 C23_3 1_555 1_555
O7_3 Cd8 1_555 1_555
O8_3 C26_3 1_555 1_555
C27_3 H21_3 1_555 1_555
C28_3 C27_3 1_555 1_555
C29_3 C28_3 1_555 1_555
H22_3 C29_3 1_555 1_555
C30_3 C29_3 1_555 1_555
H23_3 C30_3 1_555 1_555
C31_3 C30_3 1_555 1_555
C32_3 C27_3 1_555 1_555
C33_3 C32_3 1_555 1_555
H24 C33_3 1_555 1_555
C34_3 C33_3 1_555 1_555
H25 C34_3 1_555 1_555
C35_3 C34_3 1_555 1_555
C36_3 C31_3 1_555 1_555
H26_3 C36_3 1_555 1_555
C37_3 C28_3 1_555 1_555
C38_3 C35_3 1_555 1_555
O9_3 Cd5_2 1_555 1_555
O10_3 Cd5_2 1_555 1_555
O11_3 C38_3 1_555 1_555
O12_3 C38_3 1_555 1_555
Cd5_3 O11_3 1_555 1_555
Cd11_2 O12_3 1_555 1_555
O19_3 Cd5_2 1_555 1_555
O20_3 Cd8 1_555 1_555
C7_3 C8_3 1_555 1_555
C11_3 C12_3 1_555 1_555
C23_3 C24_3 1_555 1_555
C26_3 O7_3 1_555 1_555
C31_3 C32_3 1_555 1_555
C35_3 C36_3 1_555 1_555
C37_3 O9_3 1_555 1_555
C37_3 O10_3 1_555 1_555
O12_3 Cd5_3 1_555 1_555
Cd6 O1_3 1_555 1_555
C5_3 C4_3 1_555 1_555
H10_3 C5_3 1_555 1_555
C6_3 C5_3 1_555 1_555
H11_3 C6_3 1_555 1_555
C13_3 C4_3 1_555 1_555
O1_3 C13_3 1_555 1_555
O2_3 Cd6 1_555 1_555
C13_3 O2_3 1_555 1_555
C15_3 H15_3 1_555 1_555
C16_3 C15_3 1_555 1_555
C17_3 C16_3 1_555 1_555
H16_3 C17_3 1_555 1_555
C18_3 C17_3 1_555 1_555
H17_3 C18_3 1_555 1_555
C19_3 C18_3 1_555 1_555
C20_3 C15_3 1_555 1_555
C21_3 C20_3 1_555 1_555
H18_3 C21_3 1_555 1_555
C22_3 C21_3 1_555 1_555
H19_3 C22_3 1_555 1_555
C25_3 C16_3 1_555 1_555
O5_3 C25_3 1_555 1_555
O6_3 C25_3 1_555 1_555
Cd9_3 O6_3 1_555 1_555
C19_3 C20_3 1_555 1_555
Cd4 O8_4 1_555 1_555
C3_4 H9_4 1_555 1_555
C8_4 C3_4 1_555 1_555
C9_4 C8_4 1_555 1_555
H12_4 C9_4 1_555 1_555
C10_4 C9_4 1_555 1_555
H13_4 C10_4 1_555 1_555
C11_4 C10_4 1_555 1_555
C12_4 C7_4 1_555 1_555
H14_4 C12_4 1_555 1_555
C14_4 C11_4 1_555 1_555
O3_4 C14_4 1_555 1_555
O4_4 C14_4 1_555 1_555
C15_4 H15_4 1_555 1_555
C16_4 C15_4 1_555 1_555
C17_4 C16_4 1_555 1_555
H16_4 C17_4 1_555 1_555
C18_4 C17_4 1_555 1_555
H17_4 C18_4 1_555 1_555
C19_4 C18_4 1_555 1_555
C20_4 C15_4 1_555 1_555
C21_4 C20_4 1_555 1_555
H18_4 C21_4 1_555 1_555
C22_4 C21_4 1_555 1_555
H19_4 C22_4 1_555 1_555
C23_4 C22_4 1_555 1_555
C24_4 C19_4 1_555 1_555
H20_4 C24_4 1_555 1_555
C25_4 C16_4 1_555 1_555
C26_4 C23_4 1_555 1_555
O5_4 C25_4 1_555 1_555
O6_4 C25_4 1_555 1_555
O7_4 Cd9 1_555 1_555
O8_4 C26_4 1_555 1_555
C27_4 H21_4 1_555 1_555
C28_4 C27_4 1_555 1_555
C29_4 C28_4 1_555 1_555
H22_4 C29_4 1_555 1_555
C30_4 C29_4 1_555 1_555
H23_4 C30_4 1_555 1_555
C31_4 C30_4 1_555 1_555
C32_4 C27_4 1_555 1_555
C33_4 C32_4 1_555 1_555
H24_2 C33_4 1_555 1_555
C34_4 C33_4 1_555 1_555
H25_2 C34_4 1_555 1_555
C35_4 C34_4 1_555 1_555
C36_4 C31_4 1_555 1_555
H26_4 C36_4 1_555 1_555
C37_4 C28_4 1_555 1_555
C38_4 C35_4 1_555 1_555
O9_4 Cd4 1_555 1_555
O10_4 Cd4 1_555 1_555
O11_4 C38_4 1_555 1_555
O12_4 C38_4 1_555 1_555
Cd4_4 O5_4 1_555 1_555
Cd5_4 O11_4 1_555 1_555
Cd6_4 O4_4 1_555 1_555
Cd11_2 O3_4 1_555 1_555
Cd9_4 O6_4 1_555 1_555
O21_3 Cd4 1_555 1_555
O22_3 Cd4 1_555 1_555
O23_4 Cd9 1_555 1_555
Cd9 O22_3 1_555 1_555
C7_4 C8_4 1_555 1_555
C11_4 C12_4 1_555 1_555
C19_4 C20_4 1_555 1_555
C23_4 C24_4 1_555 1_555
C26_4 O7_4 1_555 1_555
C31_4 C32_4 1_555 1_555
C35_4 C36_4 1_555 1_555
C37_4 O9_4 1_555 1_555
C37_4 O10_4 1_555 1_555
O12_4 Cd5_4 1_555 1_555
Cd2_3 O1_4 1_555 1_555
C5_4 C4_4 1_555 1_555
H10_4 C5_4 1_555 1_555
C6_4 C5_4 1_555 1_555
H11_4 C6_4 1_555 1_555
C13_4 C4_4 1_555 1_555
O1_4 C13_4 1_555 1_555
O2_4 Cd2_3 1_555 1_555
C39_3 H27_3 1_555 1_555
C40_3 C39_3 1_555 1_555
C41_3 C40_3 1_555 1_555
H28_3 C41_3 1_555 1_555
C42_3 C41_3 1_555 1_555
H29_3 C42_3 1_555 1_555
C43_3 C42_3 1_555 1_555
C44_3 C39_3 1_555 1_555
C45_3 C44_3 1_555 1_555
H30_3 C45_3 1_555 1_555
C46_3 C45_3 1_555 1_555
H31_3 C46_3 1_555 1_555
C47_3 C46_3 1_555 1_555
C48_3 C43_3 1_555 1_555
H32_3 C48_3 1_555 1_555
C49_4 C40_3 1_555 1_555
C50_3 C47_3 1_555 1_555
O23_2 C49_4 1_555 1_555
O24_2 C49_4 1_555 1_555
O15_3 Cd2_3 1_555 1_555
O16_3 Cd2_3 1_555 1_555
O18_3 Cd2_3 1_555 1_555
O24_3 Cd2_3 1_555 1_555
C13_4 O2_4 1_555 1_555
C43_3 C44_3 1_555 1_555
C47_3 C48_3 1_555 1_555
C50_3 O15_3 1_555 1_555
C50_3 O16_3 1_555 1_555
Cd4_4 O8_5 1_555 1_555
Cd2_4 O1_5 1_555 1_555
Cd9_4 O2_5 1_555 1_555
C3_5 H9_5 1_555 1_555
C4_5 C3_5 1_555 1_555
C5_5 C4_5 1_555 1_555
H10_5 C5_5 1_555 1_555
C6_5 C5_5 1_555 1_555
H11_5 C6_5 1_555 1_555
C7_5 C6_5 1_555 1_555
C8_5 C3_5 1_555 1_555
C9_5 C8_5 1_555 1_555
H12_5 C9_5 1_555 1_555
C10_5 C9_5 1_555 1_555
H13_5 C10_5 1_555 1_555
C11_5 C10_5 1_555 1_555
C12_5 C7_5 1_555 1_555
H14_5 C12_5 1_555 1_555
C13_5 C4_5 1_555 1_555
C14_5 C11_5 1_555 1_555
O1_5 C13_5 1_555 1_555
O2_5 Cd2_4 1_555 1_555
O3_5 C14_5 1_555 1_555
O4_5 C14_5 1_555 1_555
C15_5 H15_5 1_555 1_555
C16_5 C15_5 1_555 1_555
C17_5 C16_5 1_555 1_555
H16_5 C17_5 1_555 1_555
C18_5 C17_5 1_555 1_555
H17_5 C18_5 1_555 1_555
C19_5 C18_5 1_555 1_555
C20_5 C15_5 1_555 1_555
C21_5 C20_5 1_555 1_555
H18_5 C21_5 1_555 1_555
C22_5 C21_5 1_555 1_555
H19_5 C22_5 1_555 1_555
C23_5 C22_5 1_555 1_555
C24_5 C19_5 1_555 1_555
H20_5 C24_5 1_555 1_555
C25_5 C16_5 1_555 1_555
C26_5 C23_5 1_555 1_555
O5_5 C25_5 1_555 1_555
O6_5 C25_5 1_555 1_555
O7_5 Cd9_4 1_555 1_555
O8_5 C26_5 1_555 1_555
C27_5 H21_5 1_555 1_555
C28_5 C27_5 1_555 1_555
C29_5 C28_5 1_555 1_555
H22_5 C29_5 1_555 1_555
C30_5 C29_5 1_555 1_555
H23_5 C30_5 1_555 1_555
C31_5 C30_5 1_555 1_555
C32_5 C27_5 1_555 1_555
C33_5 C32_5 1_555 1_555
H24_3 C33_5 1_555 1_555
C34_5 C33_5 1_555 1_555
H25_3 C34_5 1_555 1_555
C35_5 C34_5 1_555 1_555
C36_5 C31_5 1_555 1_555
H26_5 C36_5 1_555 1_555
C37_5 C28_5 1_555 1_555
C38_5 C35_5 1_555 1_555
O9_5 Cd4_4 1_555 1_555
O10_5 Cd4_4 1_555 1_555
O11_5 C38_5 1_555 1_555
O12_5 C38_5 1_555 1_555
C39_4 H27_4 1_555 1_555
C40_4 C39_4 1_555 1_555
C44_4 C39_4 1_555 1_555
C45_4 C44_4 1_555 1_555
H30_4 C45_4 1_555 1_555
C46_4 C45_4 1_555 1_555
H31_4 C46_4 1_555 1_555
C47_4 C46_4 1_555 1_555
C48_4 C43_4 1_555 1_555
H32_4 C48_4 1_555 1_555
C50_4 C47_4 1_555 1_555
O15_4 Cd2_4 1_555 1_555
O16_4 Cd2_4 1_555 1_555
Cd4_5 O5_5 1_555 1_555
Cd5_5 O11_5 1_555 1_555
Cd7 O4_5 1_555 1_555
Cd10 O3_5 1_555 1_555
Cd9_5 O6_5 1_555 1_555
Cd10_2 O12_5 1_555 1_555
O17_4 Cd9_4 1_555 1_555
O18_4 Cd2_4 1_555 1_555
O21_4 Cd4_4 1_555 1_555
O22_4 Cd4_4 1_555 1_555
O23_5 Cd9_4 1_555 1_555
O24_4 Cd2_4 1_555 1_555
Cd9_4 O22_4 1_555 1_555
C7_5 C8_5 1_555 1_555
C11_5 C12_5 1_555 1_555
C13_5 O2_5 1_555 1_555
C19_5 C20_5 1_555 1_555
C23_5 C24_5 1_555 1_555
C26_5 O7_5 1_555 1_555
C31_5 C32_5 1_555 1_555
C35_5 C36_5 1_555 1_555
C37_5 O9_5 1_555 1_555
C37_5 O10_5 1_555 1_555
O12_5 Cd5_5 1_555 1_555
C43_4 C44_4 1_555 1_555
C47_4 C48_4 1_555 1_555
C50_4 O15_4 1_555 1_555
C50_4 O16_4 1_555 1_555
Cd5_3 O8_6 1_555 1_555
Cd6_4 O1_6 1_555 1_555
Cd11_2 O2_6 1_555 1_555
C3_6 H9_6 1_555 1_555
C4_6 C3_6 1_555 1_555
C5_6 C4_6 1_555 1_555
H10_6 C5_6 1_555 1_555
C6_6 C5_6 1_555 1_555
H11_6 C6_6 1_555 1_555
C7_6 C6_6 1_555 1_555
C8_6 C3_6 1_555 1_555
C9_6 C8_6 1_555 1_555
H12_6 C9_6 1_555 1_555
C10_6 C9_6 1_555 1_555
H13_6 C10_6 1_555 1_555
C11_6 C10_6 1_555 1_555
C12_6 C7_6 1_555 1_555
H14_6 C12_6 1_555 1_555
C13_6 C4_6 1_555 1_555
C14_6 C11_6 1_555 1_555
O1_6 C13_6 1_555 1_555
O2_6 Cd6_4 1_555 1_555
O3_6 C14_6 1_555 1_555
O4_6 C14_6 1_555 1_555
C15_6 H15_6 1_555 1_555
C16_6 C15_6 1_555 1_555
C17_6 C16_6 1_555 1_555
H16_6 C17_6 1_555 1_555
C18_6 C17_6 1_555 1_555
H17_6 C18_6 1_555 1_555
C19_6 C18_6 1_555 1_555
C20_6 C15_6 1_555 1_555
C21_6 C20_6 1_555 1_555
H18_6 C21_6 1_555 1_555
C22_6 C21_6 1_555 1_555
H19_6 C22_6 1_555 1_555
C23_6 C22_6 1_555 1_555
C24_6 C19_6 1_555 1_555
H20_6 C24_6 1_555 1_555
C25_6 C16_6 1_555 1_555
C26_6 C23_6 1_555 1_555
O5_6 C25_6 1_555 1_555
O6_6 C25_6 1_555 1_555
O7_6 Cd11_2 1_555 1_555
O8_6 C26_6 1_555 1_555
C27_6 H21_6 1_555 1_555
C28_6 C27_6 1_555 1_555
C29_6 C28_6 1_555 1_555
H22_6 C29_6 1_555 1_555
C30_6 C29_6 1_555 1_555
H23_6 C30_6 1_555 1_555
C31_6 C30_6 1_555 1_555
C32_6 C27_6 1_555 1_555
C33_6 C32_6 1_555 1_555
H24_4 C33_6 1_555 1_555
C34_6 C33_6 1_555 1_555
H25_4 C34_6 1_555 1_555
C35_6 C34_6 1_555 1_555
C36_6 C31_6 1_555 1_555
H26_6 C36_6 1_555 1_555
C37_6 C28_6 1_555 1_555
C38_6 C35_6 1_555 1_555
O9_6 Cd5_3 1_555 1_555
O10_6 Cd5_3 1_555 1_555
O11_6 C38_6 1_555 1_555
O12_6 C38_6 1_555 1_555
C39_5 H27_5 1_555 1_555
C40_5 C39_5 1_555 1_555
C44_5 C39_5 1_555 1_555
C45_5 C44_5 1_555 1_555
H30_5 C45_5 1_555 1_555
C46_5 C45_5 1_555 1_555
H31_5 C46_5 1_555 1_555
C47_5 C46_5 1_555 1_555
C48_5 C43_5 1_555 1_555
H32_5 C48_5 1_555 1_555
C50_5 C47_5 1_555 1_555
O15_5 Cd6_4 1_555 1_555
O16_5 Cd6_4 1_555 1_555
Cd4_6 O5_6 1_555 1_555
Cd5_6 O11_6 1_555 1_555
Cd7_2 O4_6 1_555 1_555
Cd10_2 O3_6 1_555 1_555
Cd9_6 O6_6 1_555 1_555
Cd10 O12_6 1_555 1_555
O19_4 Cd5_3 1_555 1_555
O20_4 Cd11_2 1_555 1_555
O23_6 Cd11_2 1_555 1_555
O24_5 Cd6_4 1_555 1_555
C7_6 C8_6 1_555 1_555
C11_6 C12_6 1_555 1_555
C13_6 O2_6 1_555 1_555
C19_6 C20_6 1_555 1_555
C23_6 C24_6 1_555 1_555
C26_6 O7_6 1_555 1_555
C31_6 C32_6 1_555 1_555
C35_6 C36_6 1_555 1_555
C37_6 O9_6 1_555 1_555
C37_6 O10_6 1_555 1_555
O12_6 Cd5_6 1_555 1_555
C43_5 C44_5 1_555 1_555
C47_5 C48_5 1_555 1_555
C50_5 O15_5 1_555 1_555
C50_5 O16_5 1_555 1_555
O3_7 C14_7 1_555 1_555
O4_7 C14_7 1_555 1_555
O13_5 C49_5 1_555 1_555
O14_4 C49_5 1_555 1_555
Cd7_3 O4_7 1_555 1_555
Cd6_3 O14_4 1_555 1_555
Cd10_3 O3_7 1_555 1_555
Cd8_2 O13_5 1_555 1_555
Cd5_6 O8_7 1_555 1_555
Cd7 O1_7 1_555 1_555
Cd10 O2_7 1_555 1_555
C3_7 H9_7 1_555 1_555
C4_7 C3_7 1_555 1_555
C5_7 C4_7 1_555 1_555
H10_7 C5_7 1_555 1_555
C6_7 C5_7 1_555 1_555
H11_7 C6_7 1_555 1_555
C7_7 C6_7 1_555 1_555
C8_7 C3_7 1_555 1_555
C9_7 C8_7 1_555 1_555
H12_7 C9_7 1_555 1_555
C10_7 C9_7 1_555 1_555
H13_7 C10_7 1_555 1_555
C11_7 C10_7 1_555 1_555
C12_7 C7_7 1_555 1_555
H14_7 C12_7 1_555 1_555
C13_7 C4_7 1_555 1_555
O1_7 C13_7 1_555 1_555
O2_7 Cd7 1_555 1_555
C15_7 H15_7 1_555 1_555
C16_7 C15_7 1_555 1_555
C17_7 C16_7 1_555 1_555
H16_7 C17_7 1_555 1_555
C18_7 C17_7 1_555 1_555
H17_7 C18_7 1_555 1_555
C19_7 C18_7 1_555 1_555
C20_7 C15_7 1_555 1_555
C21_7 C20_7 1_555 1_555
H18_7 C21_7 1_555 1_555
C22_7 C21_7 1_555 1_555
H19_7 C22_7 1_555 1_555
C23_7 C22_7 1_555 1_555
C24_7 C19_7 1_555 1_555
H20_7 C24_7 1_555 1_555
C25_7 C16_7 1_555 1_555
C26_7 C23_7 1_555 1_555
O5_7 C25_7 1_555 1_555
O6_7 C25_7 1_555 1_555
O7_7 Cd10 1_555 1_555
O8_7 C26_7 1_555 1_555
C27_7 H21_7 1_555 1_555
C28_7 C27_7 1_555 1_555
C29_7 C28_7 1_555 1_555
H22_7 C29_7 1_555 1_555
C30_7 C29_7 1_555 1_555
H23_7 C30_7 1_555 1_555
C31_7 C30_7 1_555 1_555
C32_7 C27_7 1_555 1_555
C33_7 C32_7 1_555 1_555
H24_5 C33_7 1_555 1_555
C34_7 C33_7 1_555 1_555
H25_5 C34_7 1_555 1_555
C35_7 C34_7 1_555 1_555
C36_7 C31_7 1_555 1_555
H26_7 C36_7 1_555 1_555
C37_7 C28_7 1_555 1_555
C38_7 C35_7 1_555 1_555
O9_7 Cd5_6 1_555 1_555
O10_7 Cd5_6 1_555 1_555
O21_2 C38_7 1_555 1_555
O22_2 C38_7 1_555 1_555
C39_6 H27_6 1_555 1_555
C40_6 C39_6 1_555 1_555
C41_4 C40_6 1_555 1_555
H28_4 C41_4 1_555 1_555
C42_4 C41_4 1_555 1_555
H29_4 C42_4 1_555 1_555
C43_6 C42_4 1_555 1_555
C44_6 C39_6 1_555 1_555
C45_6 C44_6 1_555 1_555
H30_6 C45_6 1_555 1_555
C46_6 C45_6 1_555 1_555
H31_6 C46_6 1_555 1_555
C47_6 C46_6 1_555 1_555
C48_6 C43_6 1_555 1_555
H32_6 C48_6 1_555 1_555
C50_6 C47_6 1_555 1_555
O15_6 Cd7 1_555 1_555
O16_6 Cd7 1_555 1_555
Cd9_7 O6_7 1_555 1_555
O19_5 Cd5_6 1_555 1_555
O20_5 Cd10 1_555 1_555
C7_7 C8_7 1_555 1_555
C11_7 C12_7 1_555 1_555
C13_7 O2_7 1_555 1_555
C19_7 C20_7 1_555 1_555
C23_7 C24_7 1_555 1_555
C26_7 O7_7 1_555 1_555
C31_7 C32_7 1_555 1_555
C35_7 C36_7 1_555 1_555
C37_7 O9_7 1_555 1_555
C37_7 O10_7 1_555 1_555
C43_6 C44_6 1_555 1_555
C47_6 C48_6 1_555 1_555
C50_6 O15_6 1_555 1_555
C50_6 O16_6 1_555 1_555
C15_8 H15_8 1_555 1_555
C16_8 C15_8 1_555 1_555
C17_8 C16_8 1_555 1_555
H16_8 C17_8 1_555 1_555
C18_8 C17_8 1_555 1_555
H17_8 C18_8 1_555 1_555
C19_8 C18_8 1_555 1_555
C20_8 C15_8 1_555 1_555
C21_8 C20_8 1_555 1_555
H18_8 C21_8 1_555 1_555
C22_8 C21_8 1_555 1_555
H19_8 C22_8 1_555 1_555
C25_8 C16_8 1_555 1_555
O19 C25_8 1_555 1_555
O20 C25_8 1_555 1_555
C39_7 H27_7 1_555 1_555
C40_7 C39_7 1_555 1_555
C41_5 C40_7 1_555 1_555
H28_5 C41_5 1_555 1_555
C42_5 C41_5 1_555 1_555
H29_5 C42_5 1_555 1_555
C43_7 C42_5 1_555 1_555
C44_7 C39_7 1_555 1_555
C45_7 C44_7 1_555 1_555
H30_7 C45_7 1_555 1_555
C46_7 C45_7 1_555 1_555
H31_7 C46_7 1_555 1_555
C47_7 C46_7 1_555 1_555
C48_7 C43_7 1_555 1_555
H32_7 C48_7 1_555 1_555
C49_6 C40_7 1_555 1_555
C50_7 C47_7 1_555 1_555
O23_6 C49_6 1_555 1_555
O24_5 C49_6 1_555 1_555
C19_8 C20_8 1_555 1_555
C43_7 C44_7 1_555 1_555
C47_7 C48_7 1_555 1_555
C50_7 O15_7 1_555 1_555
C50_7 O16_7 1_555 1_555
Cd4_5 O8_8 1_555 1_555
Cd2_5 O1_8 1_555 1_555
Cd9_5 O2_8 1_555 1_555
C3_8 H9_8 1_555 1_555
C4_8 C3_8 1_555 1_555
C5_8 C4_8 1_555 1_555
H10_8 C5_8 1_555 1_555
C6_8 C5_8 1_555 1_555
H11_8 C6_8 1_555 1_555
C7_8 C6_8 1_555 1_555
C8_8 C3_8 1_555 1_555
C9_8 C8_8 1_555 1_555
H12_8 C9_8 1_555 1_555
C10_8 C9_8 1_555 1_555
H13_8 C10_8 1_555 1_555
C11_8 C10_8 1_555 1_555
C12_8 C7_8 1_555 1_555
H14_8 C12_8 1_555 1_555
C13_8 C4_8 1_555 1_555
C14_8 C11_8 1_555 1_555
O1_8 C13_8 1_555 1_555
O2_8 Cd2_5 1_555 1_555
O17_2 C14_8 1_555 1_555
O18_2 C14_8 1_555 1_555
H20_8 C24_8 1_555 1_555
C26_8 C23_8 1_555 1_555
O7_8 Cd9_5 1_555 1_555
O8_8 C26_8 1_555 1_555
C27_8 H21_8 1_555 1_555
C28_8 C27_8 1_555 1_555
C29_8 C28_8 1_555 1_555
H22_8 C29_8 1_555 1_555
C30_8 C29_8 1_555 1_555
H23_8 C30_8 1_555 1_555
C31_8 C30_8 1_555 1_555
C32_8 C27_8 1_555 1_555
C33_8 C32_8 1_555 1_555
H24_6 C33_8 1_555 1_555
C34_8 C33_8 1_555 1_555
H25_6 C34_8 1_555 1_555
C35_8 C34_8 1_555 1_555
C36_8 C31_8 1_555 1_555
H26_8 C36_8 1_555 1_555
C37_8 C28_8 1_555 1_555
C38_8 C35_8 1_555 1_555
O9_8 Cd4_5 1_555 1_555
O10_8 Cd4_5 1_555 1_555
O11_7 C38_8 1_555 1_555
O12_7 C38_8 1_555 1_555
Cd5_7 O11_7 1_555 1_555
O17_5 Cd9_5 1_555 1_555
O18_5 Cd2_5 1_555 1_555
O21_5 Cd4_5 1_555 1_555
O22_5 Cd4_5 1_555 1_555
Cd9_5 O22_5 1_555 1_555
C7_8 C8_8 1_555 1_555
C11_8 C12_8 1_555 1_555
C13_8 O2_8 1_555 1_555
C23_8 C24_8 1_555 1_555
C26_8 O7_8 1_555 1_555
C31_8 C32_8 1_555 1_555
C35_8 C36_8 1_555 1_555
C37_8 O9_8 1_555 1_555
C37_8 O10_8 1_555 1_555
O12_7 Cd5_7 1_555 1_555
Cd6_3 O1_9 1_555 1_555
Cd8_2 O2_9 1_555 1_555
C3_9 H9_9 1_555 1_555
C4_9 C3_9 1_555 1_555
C5_9 C4_9 1_555 1_555
H10_9 C5_9 1_555 1_555
C6_9 C5_9 1_555 1_555
H11_9 C6_9 1_555 1_555
C7_9 C6_9 1_555 1_555
C8_9 C3_9 1_555 1_555
C9_9 C8_9 1_555 1_555
H12_9 C9_9 1_555 1_555
C10_9 C9_9 1_555 1_555
H13_9 C10_9 1_555 1_555
C11_9 C10_9 1_555 1_555
C12_9 C7_9 1_555 1_555
H14_9 C12_9 1_555 1_555
C13_9 C4_9 1_555 1_555
C14_9 C11_9 1_555 1_555
O1_9 C13_9 1_555 1_555
O2_9 Cd6_3 1_555 1_555
O3_8 C14_9 1_555 1_555
O4_8 C14_9 1_555 1_555
C15_9 H15_9 1_555 1_555
C16_9 C15_9 1_555 1_555
C17_9 C16_9 1_555 1_555
H16_9 C17_9 1_555 1_555
C18_9 C17_9 1_555 1_555
H17_9 C18_9 1_555 1_555
C19_9 C18_9 1_555 1_555
C20_9 C15_9 1_555 1_555
C21_9 C20_9 1_555 1_555
H18_9 C21_9 1_555 1_555
C22_9 C21_9 1_555 1_555
H19_9 C22_9 1_555 1_555
C23_9 C22_9 1_555 1_555
C24_9 C19_9 1_555 1_555
H20_9 C24_9 1_555 1_555
C25_9 C16_9 1_555 1_555
C26_9 C23_9 1_555 1_555
O5_8 C25_9 1_555 1_555
O6_8 C25_9 1_555 1_555
O7_9 Cd8_2 1_555 1_555
O8_9 C26_9 1_555 1_555
C39_8 H27_8 1_555 1_555
C40_8 C39_8 1_555 1_555
C44_8 C39_8 1_555 1_555
C45_8 C44_8 1_555 1_555
H30_8 C45_8 1_555 1_555
C46_8 C45_8 1_555 1_555
H31_8 C46_8 1_555 1_555
C47_8 C46_8 1_555 1_555
C48_8 C43_8 1_555 1_555
H32_8 C48_8 1_555 1_555
C50_8 C47_8 1_555 1_555
O15_8 Cd6_3 1_555 1_555
O16_8 Cd6_3 1_555 1_555
Cd5_5 O5_8 1_555 1_555
Cd6_5 O4_8 1_555 1_555
Cd9_6 O3_8 1_555 1_555
Cd10_2 O6_8 1_555 1_555
Cd9_2 O13_6 1_555 1_555
O20_6 Cd8_2 1_555 1_555
C7_9 C8_9 1_555 1_555
C11_9 C12_9 1_555 1_555
C13_9 O2_9 1_555 1_555
C19_9 C20_9 1_555 1_555
C23_9 C24_9 1_555 1_555
C26_9 O7_9 1_555 1_555
C43_8 C44_8 1_555 1_555
C47_8 C48_8 1_555 1_555
C50_8 O15_8 1_555 1_555
C50_8 O16_8 1_555 1_555
H28_6 C41_6 1_555 1_555
C42_6 C41_6 1_555 1_555
H29_6 C42_6 1_555 1_555
O14_5 C49_7 1_555 1_555
Cd7_4 O14_5 1_555 1_555
C27_9 H21_9 1_555 1_555
C28_9 C27_9 1_555 1_555
C29_9 C28_9 1_555 1_555
H22_9 C29_9 1_555 1_555
C30_9 C29_9 1_555 1_555
H23_9 C30_9 1_555 1_555
C31_9 C30_9 1_555 1_555
C32_9 C27_9 1_555 1_555
C33_9 C32_9 1_555 1_555
C36_9 C31_9 1_555 1_555
H26_9 C36_9 1_555 1_555
C37_9 C28_9 1_555 1_555
O9_9 Cd5_4 1_555 1_555
O10_9 Cd5_4 1_555 1_555
C31_9 C32_9 1_555 1_555
C37_9 O9_9 1_555 1_555
C37_9 O10_9 1_555 1_555
H25_7 C34_9 1_555 1_555
C35_9 C34_9 1_555 1_555
C38_9 C35_9 1_555 1_555
O21_5 C38_9 1_555 1_555
O22_5 C38_9 1_555 1_555
H25_8 C34_10 1_555 1_555
C35_10 C34_10 1_555 1_555
C38_10 C35_10 1_555 1_555
O11_8 C38_10 1_555 1_555
O12_8 C38_10 1_555 1_555
Cd4_6 O11_8 1_555 1_555
Cd9_6 O12_8 1_555 1_555
O12_8 Cd4_6 1_555 1_555
C27_10 H21_10 1_555 1_555
C28_10 C27_10 1_555 1_555
C29_10 C28_10 1_555 1_555
H22_10 C29_10 1_555 1_555
C30_10 C29_10 1_555 1_555
H23_10 C30_10 1_555 1_555
C31_10 C30_10 1_555 1_555
C32_10 C27_10 1_555 1_555
C33_10 C32_10 1_555 1_555
C36_10 C31_10 1_555 1_555
H26_10 C36_10 1_555 1_555
C37_10 C28_10 1_555 1_555
O9_10 Cd4_3 1_555 1_555
O10_10 Cd4_3 1_555 1_555
O21_6 Cd4_3 1_555 1_555
O22_6 Cd4_3 1_555 1_555
C31_10 C32_10 1_555 1_555
C37_10 O9_10 1_555 1_555
C37_10 O10_10 1_555 1_555
Cd2_6 O1_10 1_555 1_555
Cd9_3 O2_10 1_555 1_555
C3_10 H9_10 1_555 1_555
C4_10 C3_10 1_555 1_555
C5_10 C4_10 1_555 1_555
H10_10 C5_10 1_555 1_555
C6_10 C5_10 1_555 1_555
H11_10 C6_10 1_555 1_555
C7_10 C6_10 1_555 1_555
C8_10 C3_10 1_555 1_555
C9_10 C8_10 1_555 1_555
H12_10 C9_10 1_555 1_555
C10_10 C9_10 1_555 1_555
H13_10 C10_10 1_555 1_555
C11_10 C10_10 1_555 1_555
C12_10 C7_10 1_555 1_555
H14_10 C12_10 1_555 1_555
C13_10 C4_10 1_555 1_555
C14_10 C11_10 1_555 1_555
O1_10 C13_10 1_555 1_555
O2_10 Cd2_6 1_555 1_555
O17_5 C14_10 1_555 1_555
O18_5 C14_10 1_555 1_555
C15_10 H15_10 1_555 1_555
C16_10 C15_10 1_555 1_555
C17_10 C16_10 1_555 1_555
H16_10 C17_10 1_555 1_555
C18_10 C17_10 1_555 1_555
H17_10 C18_10 1_555 1_555
C19_10 C18_10 1_555 1_555
C20_10 C15_10 1_555 1_555
C21_10 C20_10 1_555 1_555
H18_10 C21_10 1_555 1_555
C22_10 C21_10 1_555 1_555
H19_10 C22_10 1_555 1_555
C23_10 C22_10 1_555 1_555
C24_10 C19_10 1_555 1_555
H20_10 C24_10 1_555 1_555
C25_10 C16_10 1_555 1_555
C26_10 C23_10 1_555 1_555
O19_5 C25_10 1_555 1_555
O20_5 C25_10 1_555 1_555
O7_10 Cd9_3 1_555 1_555
O8_10 C26_10 1_555 1_555
C39_9 H27_9 1_555 1_555
C40_9 C39_9 1_555 1_555
C44_9 C39_9 1_555 1_555
C45_9 C44_9 1_555 1_555
H30_9 C45_9 1_555 1_555
C46_9 C45_9 1_555 1_555
H31_9 C46_9 1_555 1_555
C47_9 C46_9 1_555 1_555
C48_9 C43_9 1_555 1_555
H32_9 C48_9 1_555 1_555
C50_9 C47_9 1_555 1_555
O15_9 Cd2_6 1_555 1_555
O16_9 Cd2_6 1_555 1_555
O17_6 Cd9_3 1_555 1_555
O18_6 Cd2_6 1_555 1_555
O23_8 Cd9_3 1_555 1_555
O24_7 Cd2_6 1_555 1_555
C7_10 C8_10 1_555 1_555
C11_10 C12_10 1_555 1_555
C13_10 O2_10 1_555 1_555
C19_10 C20_10 1_555 1_555
C23_10 C24_10 1_555 1_555
C26_10 O7_10 1_555 1_555
C43_9 C44_9 1_555 1_555
C47_9 C48_9 1_555 1_555
C50_9 O15_9 1_555 1_555
C50_9 O16_9 1_555 1_555
H28_7 C41_7 1_555 1_555
C42_7 C41_7 1_555 1_555
H29_7 C42_7 1_555 1_555
O24_3 C49_8 1_555 1_555
Cd4_6 O8_11 1_555 1_555
Cd6_5 O1_11 1_555 1_555
Cd9_6 O2_11 1_555 1_555
C3_11 H9_11 1_555 1_555
C4_11 C3_11 1_555 1_555
C5_11 C4_11 1_555 1_555
H10_11 C5_11 1_555 1_555
C6_11 C5_11 1_555 1_555
H11_11 C6_11 1_555 1_555
C7_11 C6_11 1_555 1_555
C8_11 C3_11 1_555 1_555
C9_11 C8_11 1_555 1_555
H12_11 C9_11 1_555 1_555
C10_11 C9_11 1_555 1_555
H13_11 C10_11 1_555 1_555
C11_11 C10_11 1_555 1_555
C12_11 C7_11 1_555 1_555
H14_11 C12_11 1_555 1_555
C13_11 C4_11 1_555 1_555
C14_11 C11_11 1_555 1_555
O1_11 C13_11 1_555 1_555
O2_11 Cd6_5 1_555 1_555
O17 C14_11 1_555 1_555
O18 C14_11 1_555 1_555
H20_11 C24_11 1_555 1_555
C26_11 C23_11 1_555 1_555
O7_11 Cd9_6 1_555 1_555
O8_11 C26_11 1_555 1_555
C27_11 H21_11 1_555 1_555
C28_11 C27_11 1_555 1_555
C29_11 C28_11 1_555 1_555
H22_11 C29_11 1_555 1_555
C30_11 C29_11 1_555 1_555
H23_11 C30_11 1_555 1_555
C31_11 C30_11 1_555 1_555
C32_11 C27_11 1_555 1_555
C33_11 C32_11 1_555 1_555
H24_9 C33_11 1_555 1_555
C34_11 C33_11 1_555 1_555
H25_9 C34_11 1_555 1_555
C35_11 C34_11 1_555 1_555
C36_11 C31_11 1_555 1_555
H26_11 C36_11 1_555 1_555
C37_11 C28_11 1_555 1_555
C38_11 C35_11 1_555 1_555
O9_11 Cd4_6 1_555 1_555
O10_11 Cd4_6 1_555 1_555
O11_9 C38_11 1_555 1_555
O12_9 C38_11 1_555 1_555
Cd4_7 O11_9 1_555 1_555
C7_11 C8_11 1_555 1_555
C11_11 C12_11 1_555 1_555
C13_11 O2_11 1_555 1_555
C23_11 C24_11 1_555 1_555
C26_11 O7_11 1_555 1_555
C31_11 C32_11 1_555 1_555
C35_11 C36_11 1_555 1_555
C37_11 O9_11 1_555 1_555
C37_11 O10_11 1_555 1_555
O12_9 Cd4_7 1_555 1_555
C15_11 H15_11 1_555 1_555
C16_11 C15_11 1_555 1_555
C17_11 C16_11 1_555 1_555
H16_11 C17_11 1_555 1_555
C18_11 C17_11 1_555 1_555
H17_11 C18_11 1_555 1_555
C19_11 C18_11 1_555 1_555
C20_11 C15_11 1_555 1_555
C21_11 C20_11 1_555 1_555
H18_11 C21_11 1_555 1_555
C22_11 C21_11 1_555 1_555
H19_11 C22_11 1_555 1_555
C25_11 C16_11 1_555 1_555
O19_2 C25_11 1_555 1_555
O20_2 C25_11 1_555 1_555
C39_10 H27_10 1_555 1_555
C40_10 C39_10 1_555 1_555
C41_8 C40_10 1_555 1_555
H28_8 C41_8 1_555 1_555
C42_8 C41_8 1_555 1_555
H29_8 C42_8 1_555 1_555
C43_10 C42_8 1_555 1_555
C44_10 C39_10 1_555 1_555
C45_10 C44_10 1_555 1_555
H30_10 C45_10 1_555 1_555
C46_10 C45_10 1_555 1_555
H31_10 C46_10 1_555 1_555
C47_10 C46_10 1_555 1_555
C48_10 C43_10 1_555 1_555
H32_10 C48_10 1_555 1_555
C49_9 C40_10 1_555 1_555
C50_10 C47_10 1_555 1_555
O23_5 C49_9 1_555 1_555
O24_4 C49_9 1_555 1_555
C19_11 C20_11 1_555 1_555
C43_10 C44_10 1_555 1_555
C47_10 C48_10 1_555 1_555
C50_10 O15_10 1_555 1_555
C50_10 O16_10 1_555 1_555
Cd5_5 O8_12 1_555 1_555
Cd7_2 O1_12 1_555 1_555
Cd10_2 O2_12 1_555 1_555
C3_12 H9_12 1_555 1_555
C4_12 C3_12 1_555 1_555
C5_12 C4_12 1_555 1_555
H10_12 C5_12 1_555 1_555
C6_12 C5_12 1_555 1_555
H11_12 C6_12 1_555 1_555
C7_12 C6_12 1_555 1_555
C8_12 C3_12 1_555 1_555
C9_12 C8_12 1_555 1_555
H12_12 C9_12 1_555 1_555
C10_12 C9_12 1_555 1_555
H13_12 C10_12 1_555 1_555
C11_12 C10_12 1_555 1_555
C12_12 C7_12 1_555 1_555
H14_12 C12_12 1_555 1_555
C13_12 C4_12 1_555 1_555
O1_12 C13_12 1_555 1_555
O2_12 Cd7_2 1_555 1_555
C15_12 H15_12 1_555 1_555
C16_12 C15_12 1_555 1_555
C17_12 C16_12 1_555 1_555
H16_12 C17_12 1_555 1_555
C18_12 C17_12 1_555 1_555
H17_12 C18_12 1_555 1_555
C19_12 C18_12 1_555 1_555
C20_12 C15_12 1_555 1_555
C21_12 C20_12 1_555 1_555
H18_12 C21_12 1_555 1_555
C22_12 C21_12 1_555 1_555
H19_12 C22_12 1_555 1_555
C23_12 C22_12 1_555 1_555
C24_12 C19_12 1_555 1_555
H20_12 C24_12 1_555 1_555
C25_12 C16_12 1_555 1_555
C26_12 C23_12 1_555 1_555
O5_9 C25_12 1_555 1_555
O6_9 C25_12 1_555 1_555
O7_12 Cd10_2 1_555 1_555
O8_12 C26_12 1_555 1_555
C27_12 H21_12 1_555 1_555
C28_12 C27_12 1_555 1_555
C29_12 C28_12 1_555 1_555
H22_12 C29_12 1_555 1_555
C30_12 C29_12 1_555 1_555
H23_12 C30_12 1_555 1_555
C31_12 C30_12 1_555 1_555
C32_12 C27_12 1_555 1_555
C33_12 C32_12 1_555 1_555
H24_10 C33_12 1_555 1_555
C34_12 C33_12 1_555 1_555
H25_10 C34_12 1_555 1_555
C35_12 C34_12 1_555 1_555
C36_12 C31_12 1_555 1_555
H26_12 C36_12 1_555 1_555
C37_12 C28_12 1_555 1_555
C38_12 C35_12 1_555 1_555
O9_12 Cd5_5 1_555 1_555
O10_12 Cd5_5 1_555 1_555
O21 C38_12 1_555 1_555
O22 C38_12 1_555 1_555
C39_11 H27_11 1_555 1_555
C40_11 C39_11 1_555 1_555
C41_9 C40_11 1_555 1_555
H28_9 C41_9 1_555 1_555
C42_9 C41_9 1_555 1_555
H29_9 C42_9 1_555 1_555
C43_11 C42_9 1_555 1_555
C44_11 C39_11 1_555 1_555
C45_11 C44_11 1_555 1_555
H30_11 C45_11 1_555 1_555
C46_11 C45_11 1_555 1_555
H31_11 C46_11 1_555 1_555
C47_11 C46_11 1_555 1_555
C48_11 C43_11 1_555 1_555
H32_11 C48_11 1_555 1_555
C50_11 C47_11 1_555 1_555
O15_11 Cd7_2 1_555 1_555
O16_11 Cd7_2 1_555 1_555
Cd10_3 O6_9 1_555 1_555
C7_12 C8_12 1_555 1_555
C11_12 C12_12 1_555 1_555
C13_12 O2_12 1_555 1_555
C19_12 C20_12 1_555 1_555
C23_12 C24_12 1_555 1_555
C26_12 O7_12 1_555 1_555
C31_12 C32_12 1_555 1_555
C35_12 C36_12 1_555 1_555
C37_12 O9_12 1_555 1_555
C37_12 O10_12 1_555 1_555
C43_11 C44_11 1_555 1_555
C47_11 C48_11 1_555 1_555
C50_11 O15_11 1_555 1_555
C50_11 O16_11 1_555 1_555
O3_9 C14_12 1_555 1_555
O4_9 C14_12 1_555 1_555
O23_8 C49_10 1_555 1_555
O24_7 C49_10 1_555 1_555
Cd6_6 O4_9 1_555 1_555
Cd9_7 O3_9 1_555 1_555
C17_13 C16_13 1_555 1_555
H16_13 C17_13 1_555 1_555
C18_13 C17_13 1_555 1_555
H17_13 C18_13 1_555 1_555
C25_13 C16_13 1_555 1_555
O5_10 C25_13 1_555 1_555
O6_10 C25_13 1_555 1_555
Cd5 O5_10 1_555 1_555
Cd11 O6_10 1_555 1_555
Cd7_3 O1_13 1_555 1_555
Cd10_3 O2_13 1_555 1_555
C3_13 H9_13 1_555 1_555
C4_13 C3_13 1_555 1_555
C5_13 C4_13 1_555 1_555
H10_13 C5_13 1_555 1_555
C6_13 C5_13 1_555 1_555
H11_13 C6_13 1_555 1_555
C7_13 C6_13 1_555 1_555
C8_13 C3_13 1_555 1_555
C9_13 C8_13 1_555 1_555
H12_13 C9_13 1_555 1_555
C10_13 C9_13 1_555 1_555
H13_13 C10_13 1_555 1_555
C11_13 C10_13 1_555 1_555
C12_13 C7_13 1_555 1_555
H14_13 C12_13 1_555 1_555
C13_13 C4_13 1_555 1_555
C14_13 C11_13 1_555 1_555
O1_13 C13_13 1_555 1_555
O2_13 Cd7_3 1_555 1_555
O3_10 C14_13 1_555 1_555
O4_10 C14_13 1_555 1_555
C15_13 H15_13 1_555 1_555
C20_13 C15_13 1_555 1_555
C21_13 C20_13 1_555 1_555
H18_13 C21_13 1_555 1_555
C22_13 C21_13 1_555 1_555
H19_13 C22_13 1_555 1_555
C23_13 C22_13 1_555 1_555
C24_13 C19_13 1_555 1_555
C26_13 C23_13 1_555 1_555
O7_13 Cd10_3 1_555 1_555
O8_13 C26_13 1_555 1_555
C39_12 H27_12 1_555 1_555
C40_12 C39_12 1_555 1_555
C41_10 C40_12 1_555 1_555
H28_10 C41_10 1_555 1_555
C42_10 C41_10 1_555 1_555
H29_10 C42_10 1_555 1_555
C43_12 C42_10 1_555 1_555
C44_12 C39_12 1_555 1_555
C45_12 C44_12 1_555 1_555
H30_12 C45_12 1_555 1_555
C46_12 C45_12 1_555 1_555
H31_12 C46_12 1_555 1_555
C47_12 C46_12 1_555 1_555
C48_12 C43_12 1_555 1_555
H32_12 C48_12 1_555 1_555
C49_11 C40_12 1_555 1_555
C50_12 C47_12 1_555 1_555
O23_9 C49_11 1_555 1_555
O24_8 C49_11 1_555 1_555
O15_12 Cd7_3 1_555 1_555
O16_12 Cd7_3 1_555 1_555
Cd7_4 O4_10 1_555 1_555
C7_13 C8_13 1_555 1_555
C11_13 C12_13 1_555 1_555
C13_13 O2_13 1_555 1_555
C19_13 C20_13 1_555 1_555
C23_13 C24_13 1_555 1_555
C26_13 O7_13 1_555 1_555
C43_12 C44_12 1_555 1_555
C47_12 C48_12 1_555 1_555
C50_12 O15_12 1_555 1_555
C50_12 O16_12 1_555 1_555
H22_13 C29_13 1_555 1_555
C30_13 C29_13 1_555 1_555
H23_13 C30_13 1_555 1_555
C31_13 C30_13 1_555 1_555
C35_13 C34_13 1_555 1_555
C36_13 C31_13 1_555 1_555
H26_13 C36_13 1_555 1_555
C38_13 C35_13 1_555 1_555
O21_3 C38_13 1_555 1_555
O22_3 C38_13 1_555 1_555
C35_13 C36_13 1_555 1_555
C27_13 H21_13 1_555 1_555
C28_13 C27_13 1_555 1_555
C32_13 C27_13 1_555 1_555
C33_13 C32_13 1_555 1_555
H24_11 C33_13 1_555 1_555
C37_13 C28_13 1_555 1_555
O9_13 Cd5_7 1_555 1_555
O10_13 Cd5_7 1_555 1_555
C37_13 O9_13 1_555 1_555
C37_13 O10_13 1_555 1_555
H22_14 C29_14 1_555 1_555
C30_14 C29_14 1_555 1_555
H23_14 C30_14 1_555 1_555
C31_14 C30_14 1_555 1_555
C35_14 C34_14 1_555 1_555
C36_14 C31_14 1_555 1_555
H26_14 C36_14 1_555 1_555
C38_14 C35_14 1_555 1_555
O11_10 C38_14 1_555 1_555
O12_10 C38_14 1_555 1_555
Cd4_2 O11_10 1_555 1_555
Cd9_2 O12_10 1_555 1_555
C35_14 C36_14 1_555 1_555
O12_10 Cd4_2 1_555 1_555
C27_14 H21_14 1_555 1_555
C28_14 C27_14 1_555 1_555
C32_14 C27_14 1_555 1_555
C33_14 C32_14 1_555 1_555
H24_12 C33_14 1_555 1_555
C37_14 C28_14 1_555 1_555
O9_14 Cd4_7 1_555 1_555
O10_14 Cd4_7 1_555 1_555
C37_14 O9_14 1_555 1_555
C37_14 O10_14 1_555 1_555
C17_14 C16_14 1_555 1_555
H16_14 C17_14 1_555 1_555
C18_14 C17_14 1_555 1_555
H17_14 C18_14 1_555 1_555
C25_14 C16_14 1_555 1_555
O19_3 C25_14 1_555 1_555
O20_3 C25_14 1_555 1_555
Cd6_6 O1_14 1_555 1_555
Cd9_7 O2_14 1_555 1_555
C3_14 H9_14 1_555 1_555
C4_14 C3_14 1_555 1_555
C5_14 C4_14 1_555 1_555
H10_14 C5_14 1_555 1_555
C6_14 C5_14 1_555 1_555
H11_14 C6_14 1_555 1_555
C7_14 C6_14 1_555 1_555
C8_14 C3_14 1_555 1_555
C9_14 C8_14 1_555 1_555
H12_14 C9_14 1_555 1_555
C10_14 C9_14 1_555 1_555
H13_14 C10_14 1_555 1_555
C11_14 C10_14 1_555 1_555
C12_14 C7_14 1_555 1_555
H14_14 C12_14 1_555 1_555
C13_14 C4_14 1_555 1_555
C14_14 C11_14 1_555 1_555
O1_14 C13_14 1_555 1_555
O2_14 Cd6_6 1_555 1_555
O17_3 C14_14 1_555 1_555
O18_3 C14_14 1_555 1_555
C15_14 H15_14 1_555 1_555
C20_14 C15_14 1_555 1_555
C21_14 C20_14 1_555 1_555
H18_14 C21_14 1_555 1_555
C22_14 C21_14 1_555 1_555
H19_14 C22_14 1_555 1_555
C23_14 C22_14 1_555 1_555
C24_14 C19_14 1_555 1_555
C26_14 C23_14 1_555 1_555
O7_14 Cd9_7 1_555 1_555
O8_14 C26_14 1_555 1_555
C39_13 H27_13 1_555 1_555
C40_13 C39_13 1_555 1_555
C41_11 C40_13 1_555 1_555
H28_11 C41_11 1_555 1_555
C42_11 C41_11 1_555 1_555
H29_11 C42_11 1_555 1_555
C43_13 C42_11 1_555 1_555
C44_13 C39_13 1_555 1_555
C45_13 C44_13 1_555 1_555
H30_13 C45_13 1_555 1_555
C46_13 C45_13 1_555 1_555
H31_13 C46_13 1_555 1_555
C47_13 C46_13 1_555 1_555
C48_13 C43_13 1_555 1_555
H32_13 C48_13 1_555 1_555
C49_12 C40_13 1_555 1_555
C50_13 C47_13 1_555 1_555
O23_7 C49_12 1_555 1_555
O24_6 C49_12 1_555 1_555
O15_13 Cd6_6 1_555 1_555
O16_13 Cd6_6 1_555 1_555
O23_10 Cd9_7 1_555 1_555
O24_9 Cd6_6 1_555 1_555
C7_14 C8_14 1_555 1_555
C11_14 C12_14 1_555 1_555
C13_14 O2_14 1_555 1_555
C19_14 C20_14 1_555 1_555
C23_14 C24_14 1_555 1_555
C26_14 O7_14 1_555 1_555
C43_13 C44_13 1_555 1_555
C47_13 C48_13 1_555 1_555
C50_13 O15_13 1_555 1_555
C50_13 O16_13 1_555 1_555
Cd4_2 O8_15 1_555 1_555
C3_15 H9_15 1_555 1_555
C8_15 C3_15 1_555 1_555
C9_15 C8_15 1_555 1_555
H12_15 C9_15 1_555 1_555
C10_15 C9_15 1_555 1_555
H13_15 C10_15 1_555 1_555
C11_15 C10_15 1_555 1_555
C12_15 C7_15 1_555 1_555
H14_15 C12_15 1_555 1_555
C14_15 C11_15 1_555 1_555
O17_4 C14_15 1_555 1_555
O18_4 C14_15 1_555 1_555
C15_15 H15_15 1_555 1_555
C16_15 C15_15 1_555 1_555
C17_15 C16_15 1_555 1_555
H16_15 C17_15 1_555 1_555
C18_15 C17_15 1_555 1_555
H17_15 C18_15 1_555 1_555
C19_15 C18_15 1_555 1_555
C20_15 C15_15 1_555 1_555
C21_15 C20_15 1_555 1_555
H18_15 C21_15 1_555 1_555
C22_15 C21_15 1_555 1_555
H19_15 C22_15 1_555 1_555
C23_15 C22_15 1_555 1_555
C24_15 C19_15 1_555 1_555
H20_15 C24_15 1_555 1_555
C25_15 C16_15 1_555 1_555
C26_15 C23_15 1_555 1_555
O19_4 C25_15 1_555 1_555
O20_4 C25_15 1_555 1_555
O7_15 Cd9_2 1_555 1_555
O8_15 C26_15 1_555 1_555
C27_15 H21_15 1_555 1_555
C28_15 C27_15 1_555 1_555
C29_15 C28_15 1_555 1_555
H22_15 C29_15 1_555 1_555
C30_15 C29_15 1_555 1_555
H23_15 C30_15 1_555 1_555
C31_15 C30_15 1_555 1_555
C32_15 C27_15 1_555 1_555
C33_15 C32_15 1_555 1_555
H24_13 C33_15 1_555 1_555
C34_15 C33_15 1_555 1_555
H25_13 C34_15 1_555 1_555
C35_15 C34_15 1_555 1_555
C36_15 C31_15 1_555 1_555
H26_15 C36_15 1_555 1_555
C37_15 C28_15 1_555 1_555
C38_15 C35_15 1_555 1_555
O9_15 Cd4_2 1_555 1_555
O10_15 Cd4_2 1_555 1_555
O21_6 C38_15 1_555 1_555
O22_6 C38_15 1_555 1_555
C7_15 C8_15 1_555 1_555
C11_15 C12_15 1_555 1_555
C19_15 C20_15 1_555 1_555
C23_15 C24_15 1_555 1_555
C26_15 O7_15 1_555 1_555
C31_15 C32_15 1_555 1_555
C35_15 C36_15 1_555 1_555
C37_15 O9_15 1_555 1_555
C37_15 O10_15 1_555 1_555
Cd7_4 O1_15 1_555 1_555
C5_15 C4_15 1_555 1_555
H10_15 C5_15 1_555 1_555
C6_15 C5_15 1_555 1_555
H11_15 C6_15 1_555 1_555
C13_15 C4_15 1_555 1_555
O1_15 C13_15 1_555 1_555
O2_15 Cd7_4 1_555 1_555
C39_14 H27_14 1_555 1_555
C40_14 C39_14 1_555 1_555
C41_12 C40_14 1_555 1_555
H28_12 C41_12 1_555 1_555
C42_12 C41_12 1_555 1_555
H29_12 C42_12 1_555 1_555
C43_14 C42_12 1_555 1_555
C44_14 C39_14 1_555 1_555
C45_14 C44_14 1_555 1_555
H30_14 C45_14 1_555 1_555
C46_14 C45_14 1_555 1_555
H31_14 C46_14 1_555 1_555
C47_14 C46_14 1_555 1_555
C48_14 C43_14 1_555 1_555
H32_14 C48_14 1_555 1_555
C49_13 C40_14 1_555 1_555
C50_14 C47_14 1_555 1_555
O23 C49_13 1_555 1_555
O24 C49_13 1_555 1_555
O15_14 Cd7_4 1_555 1_555
O16_14 Cd7_4 1_555 1_555
C13_15 O2_15 1_555 1_555
C43_14 C44_14 1_555 1_555
C47_14 C48_14 1_555 1_555
C50_14 O15_14 1_555 1_555
C50_14 O16_14 1_555 1_555
C15_16 H15_16 1_555 1_555
C16_16 C15_16 1_555 1_555
C17_16 C16_16 1_555 1_555
H16_16 C17_16 1_555 1_555
C18_16 C17_16 1_555 1_555
H17_16 C18_16 1_555 1_555
C19_16 C18_16 1_555 1_555
C20_16 C15_16 1_555 1_555
C21_16 C20_16 1_555 1_555
H18_16 C21_16 1_555 1_555
C22_16 C21_16 1_555 1_555
H19_16 C22_16 1_555 1_555
C25_16 C16_16 1_555 1_555
O19_6 C25_16 1_555 1_555
O20_6 C25_16 1_555 1_555
C19_16 C20_16 1_555 1_555
Cd5 O8_16 1_555 1_555
C3_16 H9_16 1_555 1_555
C8_16 C3_16 1_555 1_555
C9_16 C8_16 1_555 1_555
H12_16 C9_16 1_555 1_555
C10_16 C9_16 1_555 1_555
H13_16 C10_16 1_555 1_555
C11_16 C10_16 1_555 1_555
C12_16 C7_16 1_555 1_555
H14_16 C12_16 1_555 1_555
H20_16 C24_16 1_555 1_555
C26_16 C23_16 1_555 1_555
O7_16 Cd11 1_555 1_555
O8_16 C26_16 1_555 1_555
C27_16 H21_16 1_555 1_555
C28_16 C27_16 1_555 1_555
C29_16 C28_16 1_555 1_555
H22_16 C29_16 1_555 1_555
C30_16 C29_16 1_555 1_555
H23_16 C30_16 1_555 1_555
C31_16 C30_16 1_555 1_555
C32_16 C27_16 1_555 1_555
C33_16 C32_16 1_555 1_555
H24_14 C33_16 1_555 1_555
C34_16 C33_16 1_555 1_555
H25_14 C34_16 1_555 1_555
C35_16 C34_16 1_555 1_555
C36_16 C31_16 1_555 1_555
H26_16 C36_16 1_555 1_555
C37_16 C28_16 1_555 1_555
C38_16 C35_16 1_555 1_555
O9_16 Cd5 1_555 1_555
O10_16 Cd5 1_555 1_555
O21_4 C38_16 1_555 1_555
O22_4 C38_16 1_555 1_555
C7_16 C8_16 1_555 1_555
C11_16 C12_16 1_555 1_555
C23_16 C24_16 1_555 1_555
C26_16 O7_16 1_555 1_555
C31_16 C32_16 1_555 1_555
C35_16 C36_16 1_555 1_555
C37_16 O9_16 1_555 1_555
C37_16 O10_16 1_555 1_555
Cd6_2 O1_16 1_555 1_555
C5_16 C4_16 1_555 1_555
H10_16 C5_16 1_555 1_555
C6_16 C5_16 1_555 1_555
H11_16 C6_16 1_555 1_555
C13_16 C4_16 1_555 1_555
O1_16 C13_16 1_555 1_555
O2_16 Cd6_2 1_555 1_555
C13_16 O2_16 1_555 1_555
O23_10 C49_14 1_555 1_555
O24_9 C49_14 1_555 1_555
O17_6 C14_16 1_555 1_555
O18_6 C14_16 1_555 1_555
C39_15 H27_15 1_555 1_555
C40_15 C39_15 1_555 1_555
C41_13 C40_15 1_555 1_555
H28_13 C41_13 1_555 1_555
C42_13 C41_13 1_555 1_555
H29_13 C42_13 1_555 1_555
C43_15 C42_13 1_555 1_555
C44_15 C39_15 1_555 1_555
C45_15 C44_15 1_555 1_555
H30_15 C45_15 1_555 1_555
C46_15 C45_15 1_555 1_555
H31_15 C46_15 1_555 1_555
C47_15 C46_15 1_555 1_555
C48_15 C43_15 1_555 1_555
H32_15 C48_15 1_555 1_555
C50_15 C47_15 1_555 1_555
C43_15 C44_15 1_555 1_555
C47_15 C48_15 1_555 1_555
C50_15 O15_15 1_555 1_555
C50_15 O16_15 1_555 1_555
H28_14 C41_14 1_555 1_555
C42_14 C41_14 1_555 1_555
H29_14 C42_14 1_555 1_555
O24_10 C49_15 1_555 1_555
H28_15 C41_15 1_555 1_555
C42_15 C41_15 1_555 1_555
H29_15 C42_15 1_555 1_555
O14_6 C49_16 1_555 1_555
C39_16 H27_16 1_555 1_555
C40_16 C39_16 1_555 1_555
C41_16 C40_16 1_555 1_555
H28_16 C41_16 1_555 1_555
C42_16 C41_16 1_555 1_555
H29_16 C42_16 1_555 1_555
C43_16 C42_16 1_555 1_555
C44_16 C39_16 1_555 1_555
C45_16 C44_16 1_555 1_555
H30_16 C45_16 1_555 1_555
C46_16 C45_16 1_555 1_555
H31_16 C46_16 1_555 1_555
C47_16 C46_16 1_555 1_555
C48_16 C43_16 1_555 1_555
H32_16 C48_16 1_555 1_555
C50_16 C47_16 1_555 1_555
C43_16 C44_16 1_555 1_555
C47_16 C48_16 1_555 1_555
C50_16 O15_16 1_555 1_555
C50_16 O16_16 1_555 1_555

#END
