
###############################################################################
#
# This file contains modified crystal structure data generated from the
# MOF subset of the Cambridge Structural Database (CSD) v543 
# hosted by the Cambridge Crystallographic Data Centre (CCDC).
#
# This work is licensed under the Creative Commons
# Attribution-NonCommercial-ShareAlike 4.0 International License.
# To view a copy of this license, visit
# http://creativecommons.org/licenses/by-nc-sa/4.0/
# or send a letter to
# Creative Commons, PO Box 1866, Mountain View, CA 94042, USA.
#
# CIF created using the CSD Python API on 29 September 2022
# The structure has been converted into the P1 space group
# The structure has a 3D framework
# The original CSD entry WIQTUN is in the monoclinic crystal system
# The framework has been calculated to contain at least 10.0% void space
# The void calculation uses a probe of radius 1.32A, grid spacing 0.4
#
###############################################################################

data_WIQTUN
_chemical_formula_moiety         '(C264 H200 La8 N32 O78)n'
_symmetry_cell_setting           triclinic
_symmetry_space_group_name_H-M   'P 1'
_symmetry_Int_Tables_number      1
_space_group_name_Hall           'P 1'
loop_
_symmetry_equiv_pos_site_id
_symmetry_equiv_pos_as_xyz
1 x,y,z
_cell_length_a                   18.582(4)
_cell_length_b                   34.589(7)
_cell_length_c                   16.268(3)
_cell_angle_alpha                90
_cell_angle_beta                 103.81(3)
_cell_angle_gamma                90
_cell_volume                     10153.7
loop_
_atom_site_label
_atom_site_type_symbol
_atom_site_fract_x
_atom_site_fract_y
_atom_site_fract_z
La7 La 0.32061(2) 0.751733(9) 0.04358(2)
C17 C 0.0488(4) 0.7050(3) 0.5603(5)
H9 H 0.0430 0.7190 0.5096
C18 C 0.1185(4) 0.7023(2) 0.6155(4)
C19 C 0.1266(4) 0.6790(2) 0.6856(4)
H10 H 0.1733 0.6766 0.7233
C20 C 0.0658(4) 0.6590(2) 0.7012(4)
H11 H 0.0722 0.6429 0.7489
C21 C 0.1840(3) 0.72308(18) 0.5966(4)
C52 C 0.0013(3) 0.66632(19) 0.9265(4)
C54 C 0.0425(3) 0.72191(19) 0.8588(4)
H28 H 0.0314 0.7445 0.8260
C55 C 0.1159(3) 0.70946(18) 0.8880(4)
C56 C 0.1305(4) 0.67605(19) 0.9349(4)
H29 H 0.1798 0.6680 0.9551
C57 C 0.0739(4) 0.6541(2) 0.9530(4)
H30 H 0.0849 0.6309 0.9834
C58 C 0.1749(3) 0.73201(17) 0.8654(4)
O3 O 0.1818(3) 0.73279(13) 0.5209(3)
O4 O 0.2396(2) 0.73003(12) 0.6562(2)
O12 O 0.1621(3) 0.75639(12) 0.8077(3)
O13 O 0.2437(2) 0.72552(12) 0.9055(2)
La4 La 0.295000(19) 0.761862(9) 0.79297(2)
La8 La 0.32061(2) 0.748267(9) 0.54358(2)
H18 H 0.6911 0.4315 0.0012
C40 C 0.7813(4) 0.63214(19) 0.0265(4)
H21 H 0.7782 0.6577 0.0448
C41 C 0.7367(3) 0.60337(19) 0.0490(4)
C42 C 0.7426(3) 0.56627(18) 0.0215(4)
H22 H 0.7132 0.5469 0.0376
C43 C 0.6819(4) 0.6107(2) 0.1002(4)
C44 C 0.6093(4) 0.6612(2) 0.1521(4)
C45 C 0.5926(3) 0.70147(19) 0.1400(4)
H23 H 0.6206 0.7174 0.1126
C46 C 0.5354(3) 0.71632(18) 0.1690(4)
H24 H 0.5244 0.7428 0.1617
C47 C 0.4926(3) 0.69308(18) 0.2095(4)
C48 C 0.5118(4) 0.65430(19) 0.2231(4)
H25 H 0.4858 0.6386 0.2533
C49 C 0.5691(4) 0.6384(2) 0.1923(4)
H26 H 0.5799 0.6119 0.1994
C50 C 0.4257(3) 0.70887(18) 0.2338(4)
N5 N 0.6674(3) 0.64792(16) 0.1155(3)
H49 H 0.6977 0.6660 0.1028
O6 O 0.4042(2) 0.69694(13) 0.0145(3)
O14 O 0.3953(2) 0.73990(12) 0.1991(3)
O15 O 0.4022(2) 0.69159(13) 0.2889(3)
O17 O 0.6526(3) 0.58358(16) 0.1273(4)
La5 La 0.295000(19) 0.738138(9) 0.29297(2)
C1 C 0.7084(4) 0.33305(18) 0.5283(4)
C2 C 0.7211(4) 0.37351(18) 0.5565(4)
C3 C 0.7040(4) 0.3862(2) 0.6308(5)
H1 H 0.6852 0.3685 0.6643
C4 C 0.7141(4) 0.4243(2) 0.6562(5)
H2 H 0.7006 0.4328 0.7053
C5 C 0.7454(4) 0.4505(2) 0.6066(5)
C6 C 0.7621(5) 0.4376(2) 0.5353(5)
H3 H 0.7839 0.4545 0.5030
C7 C 0.7479(4) 0.4004(2) 0.5091(5)
H4 H 0.7568 0.3929 0.4569
C8 C 0.7617(4) 0.5511(2) 0.7003(5)
C9 C 0.7140(4) 0.5761(2) 0.7278(4)
H5 H 0.6675 0.5673 0.7332
C10 C 0.7354(4) 0.6147(2) 0.7474(4)
C11 C 0.8025(4) 0.6274(2) 0.7365(5)
H6 H 0.8159 0.6535 0.7461
C12 C 0.8505(4) 0.6018(2) 0.7113(5)
C13 C 0.8302(4) 0.5637(2) 0.6954(5)
H7 H 0.8639 0.5461 0.6811
C14 C 0.9284(4) 0.6134(2) 0.7053(5)
C15 C 0.9972(4) 0.6626(2) 0.6478(4)
C16 C 0.9877(4) 0.6871(3) 0.5798(5)
H8 H 0.9398 0.6919 0.5463
C22 C 0.5874(4) 0.6533(2) 0.8509(4)
C23 C 0.5663(4) 0.6913(2) 0.8268(4)
H12 H 0.5874 0.7043 0.7875
C24 C 0.5148(4) 0.7094(2) 0.8610(4)
H13 H 0.5009 0.7348 0.8441
C25 C 0.4827(3) 0.69194(18) 0.9188(4)
C26 C 0.5068(4) 0.65423(19) 0.9454(4)
H14 H 0.4879 0.6417 0.9871
C27 C 0.5575(4) 0.6361(2) 0.9105(4)
H15 H 0.5725 0.6108 0.9282
C28 C 0.4259(3) 0.71136(17) 0.9543(4)
C29 C 0.7445(3) 0.32942(17) 0.8546(4)
C30 C 0.7521(4) 0.37096(17) 0.8815(4)
C31 C 0.7977(4) 0.39589(19) 0.8541(4)
H16 H 0.8259 0.3867 0.8174
C32 C 0.8041(4) 0.43440(19) 0.8781(4)
H17 H 0.8363 0.4508 0.8579
C33 C 0.7625(4) 0.44867(19) 0.9326(4)
C34 C 0.7176(4) 0.4229(2) 0.9622(5)
C35 C 0.7106(4) 0.38473(19) 0.9359(4)
H19 H 0.6778 0.3681 0.9548
C36 C 0.7972(4) 0.5173(2) 0.9326(5)
C37 C 0.7903(4) 0.55596(18) 0.9707(4)
C38 C 0.8347(4) 0.58531(19) 0.9484(4)
H20 H 0.8672 0.5792 0.9141
C39 C 0.8314(3) 0.62266(19) 0.9759(4)
C51 C 0.8792(4) 0.6547(2) 0.9550(4)
C53 C 0.9860(4) 0.7000(2) 0.8796(4)
H27 H 0.9366 0.7083 0.8613
C59 C 0.7334(4) 0.5107(2) 0.6813(5)
C60 C 0.6893(4) 0.6441(2) 0.7794(5)
C61 C 0.5363(4) 0.3121(2) 0.4857(5)
H31 H 0.5581 0.3049 0.5419
C62 C 0.4541(9) 0.3531(5) 0.3894(8)
H32 H 0.4891 0.3520 0.3537
H33 H 0.4373 0.3796 0.3920
H34 H 0.4120 0.3366 0.3660
C63 C 0.4840(7) 0.3659(4) 0.5463(7)
H35 H 0.5164 0.3568 0.5986
H36 H 0.4332 0.3659 0.5517
H37 H 0.4982 0.3919 0.5345
C64 C 0.6472(5) 0.1683(2) 0.7513(4)
H38 H 0.6324 0.1786 0.7981
C65 C 0.6658(8) 0.1144(4) 0.6683(9)
H39 H 0.6295 0.0963 0.6372
H40 H 0.7124 0.1012 0.6901
H41 H 0.6730 0.1352 0.6309
C66 C 0.6039(8) 0.1065(4) 0.7971(8)
H42 H 0.5860 0.0823 0.7696
H43 H 0.5627 0.1207 0.8096
H44 H 0.6404 0.1012 0.8494
La1 La 0.705000(19) 0.261862(9) 0.70703(2)
La2 La 0.67939(2) 0.251733(9) 0.45642(2)
N1 N 0.7657(4) 0.48972(18) 0.6330(4)
H45 H 0.8030 0.5005 0.6146
N2 N 0.6368(3) 0.6299(2) 0.8158(4)
H46 H 0.6334 0.6040 0.8186
N3 N 0.9341(3) 0.64432(19) 0.6624(4)
H47 H 0.8907 0.6561 0.6394
N4 N 0.7632(3) 0.48756(16) 0.9586(4)
H48 H 0.7387 0.4928 0.9987
N6 N 0.9461(3) 0.64328(17) 0.9476(4)
H50 H 0.9575 0.6182 0.9583
N7 N 0.4907(6) 0.3398(3) 0.4755(5)
N8 N 0.6393(6) 0.1305(2) 0.7387(6)
O1 O 0.7032(3) 0.32583(11) 0.4505(3)
O2 O 0.7022(2) 0.30628(11) 0.5801(2)
O5 O 0.3970(2) 0.74317(11) 0.9196(3)
O7 O 0.9831(4) 0.5935(2) 0.7375(6)
O8 O 0.6993(4) 0.67924(17) 0.7702(5)
O9 O 0.6832(4) 0.4984(2) 0.7142(5)
O10 O 0.7643(3) 0.31978(12) 0.7894(3)
O11 O 0.7191(2) 0.30695(12) 0.9017(3)
O16 O 0.8557(4) 0.68740(17) 0.9454(5)
O18 O 0.8361(5) 0.51347(18) 0.8836(5)
O19 O 0.5553(2) 0.29343(13) 0.4293(3)
O20 O 0.6715(3) 0.19011(13) 0.7085(3)
La9 La 0.67939(2) 0.248267(9) 0.95642(2)
O21 O 0.8182(3) 0.26721(13) 0.4791(3)
O22 O 0.7604(2) 0.23003(12) 0.8438(2)
O23 O 0.7604(2) 0.26997(12) 0.3438(2)
O24 O 0.6030(2) 0.24317(11) 0.5804(3)
O25 O 0.5958(2) 0.19694(13) 0.4855(3)
O26 O 0.7191(2) 0.19305(12) 0.4017(3)
O27 O 0.8379(3) 0.25639(12) 0.6923(3)
O28 O 0.7563(2) 0.22552(12) 0.5945(2)
O29 O 0.6047(2) 0.23990(12) 0.3009(3)
O30 O 0.6047(2) 0.26010(12) 0.8009(3)
O31 O 0.5978(2) 0.30841(13) 0.7111(3)
C8_2 C 0.2383(4) 0.0511(2) 0.7997(5)
C9_2 C 0.2860(4) 0.0761(2) 0.7722(4)
H5_2 H 0.3325 0.0673 0.7668
C10_2 C 0.2646(4) 0.1147(2) 0.7526(4)
C11_2 C 0.1975(4) 0.1274(2) 0.7635(5)
H6_2 H 0.1841 0.1535 0.7539
C12_2 C 0.1495(4) 0.1018(2) 0.7887(5)
C13_2 C 0.1698(4) 0.0637(2) 0.8046(5)
H7_2 H 0.1361 0.0461 0.8189
C14_2 C 0.0716(4) 0.1134(2) 0.7947(5)
C15_2 C 0.0028(4) 0.1626(2) 0.8522(4)
C16_2 C 0.0123(4) 0.1871(3) 0.9202(5)
H8_2 H 0.0602 0.1919 0.9537
C22_2 C 0.4126(4) 0.1533(2) 0.6491(4)
C23_2 C 0.4337(4) 0.1913(2) 0.6732(4)
H12_2 H 0.4126 0.2043 0.7125
C24_2 C 0.4852(4) 0.2094(2) 0.6390(4)
H13_2 H 0.4991 0.2348 0.6559
C25_2 C 0.5173(3) 0.19194(18) 0.5812(4)
C26_2 C 0.4932(4) 0.15423(19) 0.5546(4)
H14_2 H 0.5121 0.1417 0.5129
C27_2 C 0.4425(4) 0.1361(2) 0.5895(4)
H15_2 H 0.4275 0.1108 0.5718
C28_2 C 0.5741(3) 0.21136(17) 0.5457(4)
C36_2 C 0.2028(4) 0.0173(2) 0.5674(5)
C37_2 C 0.2097(4) 0.05596(18) 0.5293(4)
C38_2 C 0.1653(4) 0.08531(19) 0.5516(4)
H20_2 H 0.1328 0.0792 0.5859
C39_2 C 0.1686(3) 0.12266(19) 0.5241(4)
C40_2 C 0.2187(4) 0.13214(19) 0.4735(4)
H21_2 H 0.2218 0.1577 0.4552
C41_2 C 0.2633(3) 0.10337(19) 0.4510(4)
C42_2 C 0.2574(3) 0.06627(18) 0.4785(4)
H22_2 H 0.2868 0.0469 0.4624
C43_2 C 0.3181(4) 0.1107(2) 0.3998(4)
C44_2 C 0.3907(4) 0.1612(2) 0.3479(4)
C45_2 C 0.4074(3) 0.20147(19) 0.3600(4)
H23_2 H 0.3794 0.2174 0.3874
C46_2 C 0.4646(3) 0.21632(18) 0.3310(4)
H24_2 H 0.4756 0.2428 0.3383
C47_2 C 0.5074(3) 0.19308(18) 0.2905(4)
C48_2 C 0.4882(4) 0.15430(19) 0.2769(4)
H25_2 H 0.5142 0.1386 0.2467
C49_2 C 0.4309(4) 0.1384(2) 0.3077(4)
H26_2 H 0.4201 0.1119 0.3006
C50_2 C 0.5743(3) 0.20887(18) 0.2662(4)
C51_2 C 0.1208(4) 0.1547(2) 0.5450(4)
C53_2 C 0.0140(4) 0.2000(2) 0.6204(4)
H27_2 H 0.0634 0.2083 0.6387
C59_2 C 0.2666(4) 0.0107(2) 0.8187(5)
C60_2 C 0.3107(4) 0.1441(2) 0.7206(5)
H45_2 H 0.1970 0.0005 0.8854
N2_2 N 0.3632(3) 0.1299(2) 0.6842(4)
H46_2 H 0.3666 0.1040 0.6814
N3_2 N 0.0659(3) 0.14432(19) 0.8376(4)
H47_2 H 0.1093 0.1561 0.8606
N5_2 N 0.3326(3) 0.14792(16) 0.3845(3)
H49_2 H 0.3023 0.1660 0.3972
N6_2 N 0.0539(3) 0.14328(17) 0.5524(4)
H50_2 H 0.0425 0.1182 0.5417
O7_2 O 0.0169(4) 0.0935(2) 0.7625(6)
O8_2 O 0.3007(4) 0.17924(17) 0.7298(5)
O15_2 O 0.5978(2) 0.19159(13) 0.2111(3)
O16_2 O 0.1443(4) 0.18740(17) 0.5546(5)
O17_2 O 0.3474(3) 0.08358(16) 0.3727(4)
O18_2 O 0.1639(5) 0.01347(18) 0.6164(5)
La5_2 La 0.705000(19) 0.238138(9) 0.20703(2)
H4_2 H 0.2432 0.8929 0.0431
C61_2 C 0.4637(4) 0.8121(2) 0.0143(5)
C62_2 C 0.5459(9) 0.8531(5) 0.1106(8)
H32_2 H 0.5109 0.8520 0.1463
H33_2 H 0.5627 0.8796 0.1080
H34_2 H 0.5880 0.8366 0.1340
N7_2 N 0.5093(6) 0.8398(3) 0.0245(5)
O1_2 O 0.2968(3) 0.82583(11) 0.0495(3)
O19_2 O 0.4447(2) 0.79343(13) 0.0707(3)
O21_2 O 0.1818(3) 0.76721(13) 0.0209(3)
O23_2 O 0.2396(2) 0.76997(12) 0.1562(2)
O26_2 O 0.2809(2) 0.69305(12) 0.0983(3)
C1_2 C 0.2916(4) 0.83305(18) 0.9717(4)
C2_2 C 0.2789(4) 0.87351(18) 0.9435(4)
C3_2 C 0.2960(4) 0.8862(2) 0.8692(5)
H1_2 H 0.3148 0.8685 0.8357
C4_2 C 0.2859(4) 0.9243(2) 0.8438(5)
H2_2 H 0.2994 0.9328 0.7947
C5_2 C 0.2546(4) 0.9505(2) 0.8934(5)
C6_2 C 0.2379(5) 0.9376(2) 0.9647(5)
H3_2 H 0.2161 0.9545 0.9970
C7_2 C 0.2521(4) 0.9004(2) 0.9909(5)
C29_2 C 0.2555(3) 0.82942(17) 0.6454(4)
C30_2 C 0.2479(4) 0.87096(17) 0.6185(4)
C31_2 C 0.2023(4) 0.89589(19) 0.6459(4)
H16_2 H 0.1741 0.8867 0.6826
C32_2 C 0.1959(4) 0.93440(19) 0.6219(4)
H17_2 H 0.1637 0.9508 0.6421
C33_2 C 0.2375(4) 0.94867(19) 0.5674(4)
C34_2 C 0.2824(4) 0.9229(2) 0.5378(5)
H18_2 H 0.3089 0.9315 0.4988
C35_2 C 0.2894(4) 0.88473(19) 0.5641(4)
H19_2 H 0.3222 0.8681 0.5452
H31_2 H 0.4419 0.8049 0.9581
C63_2 C 0.5160(7) 0.8659(4) 0.9537(7)
H35_2 H 0.4836 0.8568 0.9014
H36_2 H 0.5668 0.8659 0.9483
H37_2 H 0.5018 0.8919 0.9655
C64_2 C 0.3528(5) 0.6683(2) 0.7487(4)
H38_2 H 0.3676 0.6786 0.7019
C65_2 C 0.3342(8) 0.6144(4) 0.8317(9)
H39_2 H 0.3705 0.5963 0.8628
H40_2 H 0.2876 0.6012 0.8099
H41_2 H 0.3270 0.6352 0.8691
C66_2 C 0.3961(8) 0.6065(4) 0.7029(8)
H42_2 H 0.4140 0.5823 0.7304
H43_2 H 0.4373 0.6207 0.6904
H44_2 H 0.3596 0.6012 0.6506
N1_2 N 0.2343(4) 0.98972(18) 0.8670(4)
N4_2 N 0.2368(3) 0.98756(16) 0.5414(4)
H48_2 H 0.2613 0.9928 0.5013
N8_2 N 0.3607(6) 0.6305(2) 0.7613(6)
O2_2 O 0.2978(2) 0.80628(11) 0.9199(2)
O9_2 O 0.3168(4) 0.9984(2) 0.7858(5)
O10_2 O 0.2357(3) 0.81978(12) 0.7106(3)
O11_2 O 0.2809(2) 0.80695(12) 0.5983(3)
O20_2 O 0.3285(3) 0.69011(13) 0.7915(3)
O30_2 O 0.3953(2) 0.76010(12) 0.6991(3)
O31_2 O 0.4022(2) 0.80841(13) 0.7889(3)
C17_2 C 0.9512(4) 0.2050(3) 0.9397(5)
H9_2 H 0.9570 0.2190 0.9904
C18_2 C 0.8815(4) 0.2023(2) 0.8845(4)
C19_2 C 0.8734(4) 0.1790(2) 0.8144(4)
H10_2 H 0.8267 0.1766 0.7767
C20_2 C 0.9342(4) 0.1590(2) 0.7988(4)
H11_2 H 0.9278 0.1429 0.7511
C21_2 C 0.8160(3) 0.22308(18) 0.9034(4)
C52_2 C 0.9987(3) 0.16632(19) 0.5735(4)
C54_2 C 0.9575(3) 0.22191(19) 0.6412(4)
H28_2 H 0.9686 0.2445 0.6740
C55_2 C 0.8841(3) 0.20946(18) 0.6120(4)
C56_2 C 0.8695(4) 0.17605(19) 0.5651(4)
H29_2 H 0.8202 0.1680 0.5449
C57_2 C 0.9261(4) 0.1541(2) 0.5470(4)
H30_2 H 0.9151 0.1309 0.5166
C58_2 C 0.8251(3) 0.23201(17) 0.6346(4)
O3_2 O 0.8182(3) 0.23279(13) 0.9791(3)
C1_3 C 0.2916(4) 0.66695(18) 0.4717(4)
C2_3 C 0.2789(4) 0.62649(18) 0.4435(4)
C3_3 C 0.2960(4) 0.6138(2) 0.3692(5)
H1_3 H 0.3148 0.6315 0.3357
C4_3 C 0.2859(4) 0.5757(2) 0.3438(5)
H2_3 H 0.2994 0.5672 0.2947
C5_3 C 0.2546(4) 0.5495(2) 0.3934(5)
C6_3 C 0.2379(5) 0.5624(2) 0.4647(5)
H3_3 H 0.2161 0.5455 0.4970
C7_3 C 0.2521(4) 0.5996(2) 0.4909(5)
H4_3 H 0.2432 0.6071 0.5431
C8_3 C 0.2383(4) 0.4489(2) 0.2997(5)
C9_3 C 0.2860(4) 0.4239(2) 0.2722(4)
H5_3 H 0.3325 0.4327 0.2668
C10_3 C 0.2646(4) 0.3853(2) 0.2526(4)
C11_3 C 0.1975(4) 0.3726(2) 0.2635(5)
H6_3 H 0.1841 0.3465 0.2539
C12_3 C 0.1495(4) 0.3982(2) 0.2887(5)
C13_3 C 0.1698(4) 0.4363(2) 0.3046(5)
H7_3 H 0.1361 0.4539 0.3189
C14_3 C 0.0716(4) 0.3866(2) 0.2947(5)
C15_3 C 0.0028(4) 0.3374(2) 0.3522(4)
C16_3 C 0.0123(4) 0.3129(3) 0.4202(5)
H8_3 H 0.0602 0.3081 0.4537
C22_3 C 0.4126(4) 0.3467(2) 0.1491(4)
C23_3 C 0.4337(4) 0.3087(2) 0.1732(4)
H12_3 H 0.4126 0.2957 0.2125
C24_3 C 0.4852(4) 0.2906(2) 0.1390(4)
H13_3 H 0.4991 0.2652 0.1559
C25_3 C 0.5173(3) 0.30806(18) 0.0812(4)
C26_3 C 0.4932(4) 0.34577(19) 0.0546(4)
H14_3 H 0.5121 0.3583 0.0129
C27_3 C 0.4425(4) 0.3639(2) 0.0895(4)
H15_3 H 0.4275 0.3892 0.0718
C28_3 C 0.5741(3) 0.28864(17) 0.0457(4)
C29_3 C 0.2555(3) 0.67058(17) 0.1454(4)
C30_3 C 0.2479(4) 0.62904(17) 0.1185(4)
C31_3 C 0.2023(4) 0.60411(19) 0.1459(4)
H16_3 H 0.1741 0.6133 0.1826
C32_3 C 0.1959(4) 0.56560(19) 0.1219(4)
H17_3 H 0.1637 0.5492 0.1421
C33_3 C 0.2375(4) 0.55133(19) 0.0674(4)
C34_3 C 0.2824(4) 0.5771(2) 0.0378(5)
C35_3 C 0.2894(4) 0.61527(19) 0.0641(4)
H19_3 H 0.3222 0.6319 0.0452
C36_3 C 0.2028(4) 0.4827(2) 0.0674(5)
C37_3 C 0.2097(4) 0.44404(18) 0.0293(4)
C38_3 C 0.1653(4) 0.41469(19) 0.0516(4)
H20_3 H 0.1328 0.4208 0.0859
C39_3 C 0.1686(3) 0.37734(19) 0.0241(4)
C51_3 C 0.1208(4) 0.3453(2) 0.0450(4)
C53_3 C 0.0140(4) 0.3000(2) 0.1204(4)
H27_3 H 0.0634 0.2917 0.1387
C59_3 C 0.2666(4) 0.4893(2) 0.3187(5)
C60_3 C 0.3107(4) 0.3559(2) 0.2206(5)
C61_3 C 0.4637(4) 0.6879(2) 0.5143(5)
H31_3 H 0.4419 0.6951 0.4581
C62_3 C 0.5459(9) 0.6469(5) 0.6106(8)
H32_3 H 0.5109 0.6480 0.6463
H33_3 H 0.5627 0.6204 0.6080
H34_3 H 0.5880 0.6634 0.6340
C63_3 C 0.5160(7) 0.6341(4) 0.4537(7)
H35_3 H 0.4836 0.6432 0.4014
H36_3 H 0.5668 0.6341 0.4483
H37_3 H 0.5018 0.6081 0.4655
C64_3 C 0.3528(5) 0.8317(2) 0.2487(4)
H38_3 H 0.3676 0.8214 0.2019
C65_3 C 0.3342(8) 0.8856(4) 0.3317(9)
H39_3 H 0.3705 0.9037 0.3628
H40_3 H 0.2876 0.8988 0.3099
H41_3 H 0.3270 0.8648 0.3691
C66_3 C 0.3961(8) 0.8935(4) 0.2029(8)
H42_3 H 0.4140 0.9177 0.2304
H43_3 H 0.4373 0.8793 0.1904
H44_3 H 0.3596 0.8988 0.1506
N1_3 N 0.2343(4) 0.51028(18) 0.3670(4)
H45_3 H 0.1970 0.4995 0.3854
N2_3 N 0.3632(3) 0.3701(2) 0.1842(4)
H46_3 H 0.3666 0.3960 0.1814
N3_3 N 0.0659(3) 0.35568(19) 0.3376(4)
H47_3 H 0.1093 0.3439 0.3606
N4_3 N 0.2368(3) 0.51244(16) 0.0414(4)
H48_3 H 0.2613 0.5072 0.0013
N6_3 N 0.0539(3) 0.35672(17) 0.0524(4)
H50_3 H 0.0425 0.3818 0.0417
N7_3 N 0.5093(6) 0.6602(3) 0.5245(5)
N8_3 N 0.3607(6) 0.8695(2) 0.2613(6)
O1_3 O 0.2968(3) 0.67417(11) 0.5495(3)
O2_3 O 0.2978(2) 0.69372(11) 0.4199(2)
O5_2 O 0.6030(2) 0.25683(11) 0.0804(3)
O7_3 O 0.0169(4) 0.4065(2) 0.2625(6)
O8_3 O 0.3007(4) 0.32076(17) 0.2298(5)
O9_3 O 0.3168(4) 0.5016(2) 0.2858(5)
O10_3 O 0.2357(3) 0.68022(12) 0.2106(3)
O16_3 O 0.1443(4) 0.31260(17) 0.0546(5)
O18_3 O 0.1639(5) 0.48653(18) 0.1164(5)
O19_3 O 0.4447(2) 0.70657(13) 0.5707(3)
O20_3 O 0.3285(3) 0.80989(13) 0.2915(3)
O24_2 O 0.3970(2) 0.75683(11) 0.4196(3)
O25_2 O 0.4042(2) 0.80306(13) 0.5145(3)
O27_2 O 0.1621(3) 0.74361(12) 0.3077(3)
O28_2 O 0.2437(2) 0.77448(12) 0.4055(2)
H18_3 H 0.3089 0.5685 0.9988
C40_3 C 0.2187(4) 0.36786(19) 0.9735(4)
H21_3 H 0.2218 0.3423 0.9552
C41_3 C 0.2633(3) 0.39663(19) 0.9510(4)
C42_3 C 0.2574(3) 0.43373(18) 0.9785(4)
H22_3 H 0.2868 0.4531 0.9624
C43_3 C 0.3181(4) 0.3893(2) 0.8998(4)
C44_3 C 0.3907(4) 0.3388(2) 0.8479(4)
C45_3 C 0.4074(3) 0.29853(19) 0.8600(4)
H23_3 H 0.3794 0.2826 0.8874
C46_3 C 0.4646(3) 0.28368(18) 0.8310(4)
H24_3 H 0.4756 0.2572 0.8383
C47_3 C 0.5074(3) 0.30692(18) 0.7905(4)
C48_3 C 0.4882(4) 0.34570(19) 0.7769(4)
H25_3 H 0.5142 0.3614 0.7467
C49_3 C 0.4309(4) 0.3616(2) 0.8077(4)
H26_3 H 0.4201 0.3881 0.8006
C50_3 C 0.5743(3) 0.29113(18) 0.7662(4)
N5_3 N 0.3326(3) 0.35208(16) 0.8845(3)
H49_3 H 0.3023 0.3340 0.8972
O6_2 O 0.5958(2) 0.30306(13) 0.9855(3)
O17_3 O 0.3474(3) 0.41642(16) 0.8727(4)
C17_3 C 0.9512(4) 0.2950(3) 0.4397(5)
H9_3 H 0.9570 0.2810 0.4904
C18_3 C 0.8815(4) 0.2977(2) 0.3845(4)
C19_3 C 0.8734(4) 0.3210(2) 0.3144(4)
H10_3 H 0.8267 0.3234 0.2767
C20_3 C 0.9342(4) 0.3410(2) 0.2988(4)
H11_3 H 0.9278 0.3571 0.2511
C21_3 C 0.8160(3) 0.27692(18) 0.4034(4)
C52_3 C 0.9987(3) 0.33368(19) 0.0735(4)
C54_3 C 0.9575(3) 0.27809(19) 0.1412(4)
H28_3 H 0.9686 0.2555 0.1740
C55_3 C 0.8841(3) 0.29054(18) 0.1120(4)
C56_3 C 0.8695(4) 0.32395(19) 0.0651(4)
H29_3 H 0.8202 0.3320 0.0449
C57_3 C 0.9261(4) 0.3459(2) 0.0470(4)
H30_3 H 0.9151 0.3691 0.0166
C58_3 C 0.8251(3) 0.26799(17) 0.1346(4)
O12_2 O 0.8379(3) 0.24361(12) 0.1923(3)
O13_2 O 0.7563(2) 0.27448(12) 0.0945(2)
C17_4 C 0.0488(4) 0.7950(3) 0.0603(5)
H9_4 H 0.0430 0.7810 0.0096
C18_4 C 0.1185(4) 0.7977(2) 0.1155(4)
C19_4 C 0.1266(4) 0.8210(2) 0.1856(4)
H10_4 H 0.1733 0.8234 0.2233
C20_4 C 0.0658(4) 0.8410(2) 0.2012(4)
H11_4 H 0.0722 0.8571 0.2489
C21_4 C 0.1840(3) 0.77692(18) 0.0966(4)
C52_4 C 0.0013(3) 0.83368(19) 0.4265(4)
C54_4 C 0.0425(3) 0.77809(19) 0.3588(4)
H28_4 H 0.0314 0.7555 0.3260
C55_4 C 0.1159(3) 0.79054(18) 0.3880(4)
C56_4 C 0.1305(4) 0.82395(19) 0.4349(4)
H29_4 H 0.1798 0.8320 0.4551
C57_4 C 0.0739(4) 0.8459(2) 0.4530(4)
H30_4 H 0.0849 0.8691 0.4834
C58_4 C 0.1749(3) 0.76799(17) 0.3654(4)
C1_4 C 0.7084(4) 0.16695(18) 0.0283(4)
C2_4 C 0.7211(4) 0.12649(18) 0.0565(4)
C3_4 C 0.7040(4) 0.1138(2) 0.1308(5)
H1_4 H 0.6852 0.1315 0.1643
C4_4 C 0.7141(4) 0.0757(2) 0.1562(5)
H2_4 H 0.7006 0.0672 0.2053
C5_4 C 0.7454(4) 0.0495(2) 0.1066(5)
C6_4 C 0.7621(5) 0.0624(2) 0.0353(5)
H3_4 H 0.7839 0.0455 0.0030
C7_4 C 0.7479(4) 0.0996(2) 0.0091(5)
C29_4 C 0.7445(3) 0.17058(17) 0.3546(4)
C30_4 C 0.7521(4) 0.12904(17) 0.3815(4)
C31_4 C 0.7977(4) 0.10411(19) 0.3541(4)
H16_4 H 0.8259 0.1133 0.3174
C32_4 C 0.8041(4) 0.06560(19) 0.3781(4)
H17_4 H 0.8363 0.0492 0.3579
C33_4 C 0.7625(4) 0.05133(19) 0.4326(4)
C34_4 C 0.7176(4) 0.0771(2) 0.4622(5)
H18_4 H 0.6911 0.0685 0.5012
C35_4 C 0.7106(4) 0.11527(19) 0.4359(4)
H19_4 H 0.6778 0.1319 0.4548
H31_4 H 0.5581 0.1951 0.0419
C63_4 C 0.4840(7) 0.1341(4) 0.0463(7)
H35_4 H 0.5164 0.1432 0.0986
H36_4 H 0.4332 0.1341 0.0517
H37_4 H 0.4982 0.1081 0.0345
C64_4 C 0.6472(5) 0.3317(2) 0.2513(4)
H38_4 H 0.6324 0.3214 0.2981
C65_4 C 0.6658(8) 0.3856(4) 0.1683(9)
H39_4 H 0.6295 0.4037 0.1372
H40_4 H 0.7124 0.3988 0.1901
H41_4 H 0.6730 0.3648 0.1309
C66_4 C 0.6039(8) 0.3935(4) 0.2971(8)
H42_4 H 0.5860 0.4177 0.2696
H43_4 H 0.5627 0.3793 0.3096
H44_4 H 0.6404 0.3988 0.3494
N1_4 N 0.7657(4) 0.01028(18) 0.1330(4)
N4_4 N 0.7632(3) 0.01244(16) 0.4586(4)
H48_4 H 0.7387 0.0072 0.4987
N8_4 N 0.6393(6) 0.3695(2) 0.2387(6)
O2_4 O 0.7022(2) 0.19372(11) 0.0801(2)
O9_4 O 0.6832(4) 0.0016(2) 0.2142(5)
O10_4 O 0.7643(3) 0.18022(12) 0.2894(3)
O20_4 O 0.6715(3) 0.30989(13) 0.2085(3)
H4_4 H 0.7568 0.1071 0.9569
C61_4 C 0.5363(4) 0.1879(2) 0.9857(5)
C62_4 C 0.4541(9) 0.1469(5) 0.8894(8)
H32_4 H 0.4891 0.1480 0.8537
H33_4 H 0.4373 0.1204 0.8920
H34_4 H 0.4120 0.1634 0.8660
N7_4 N 0.4907(6) 0.1602(3) 0.9755(5)
O1_4 O 0.7032(3) 0.17417(11) 0.9505(3)
O19_4 O 0.5553(2) 0.20657(13) 0.9293(3)
C8_4 C 0.7617(4) 0.9489(2) 0.2003(5)
C9_4 C 0.7140(4) 0.9239(2) 0.2278(4)
H5_4 H 0.6675 0.9327 0.2332
C10_4 C 0.7354(4) 0.8853(2) 0.2474(4)
C11_4 C 0.8025(4) 0.8726(2) 0.2365(5)
H6_4 H 0.8159 0.8465 0.2461
C12_4 C 0.8505(4) 0.8982(2) 0.2113(5)
C13_4 C 0.8302(4) 0.9363(2) 0.1954(5)
H7_4 H 0.8639 0.9539 0.1811
C14_4 C 0.9284(4) 0.8866(2) 0.2053(5)
C15_4 C 0.9972(4) 0.8374(2) 0.1478(4)
C16_4 C 0.9877(4) 0.8129(3) 0.0798(5)
H8_4 H 0.9398 0.8081 0.0463
C22_4 C 0.5874(4) 0.8467(2) 0.3509(4)
C23_4 C 0.5663(4) 0.8087(2) 0.3268(4)
H12_4 H 0.5874 0.7957 0.2875
C24_4 C 0.5148(4) 0.7906(2) 0.3610(4)
H13_4 H 0.5009 0.7652 0.3441
C25_4 C 0.4827(3) 0.80806(18) 0.4188(4)
C26_4 C 0.5068(4) 0.84577(19) 0.4454(4)
H14_4 H 0.4879 0.8583 0.4871
C27_4 C 0.5575(4) 0.8639(2) 0.4105(4)
H15_4 H 0.5725 0.8892 0.4282
C28_4 C 0.4259(3) 0.78864(17) 0.4543(4)
C36_4 C 0.7972(4) 0.9827(2) 0.4326(5)
C37_4 C 0.7903(4) 0.94404(18) 0.4707(4)
C38_4 C 0.8347(4) 0.91469(19) 0.4484(4)
H20_4 H 0.8672 0.9208 0.4141
C39_4 C 0.8314(3) 0.87734(19) 0.4759(4)
C40_4 C 0.7813(4) 0.86786(19) 0.5265(4)
H21_4 H 0.7782 0.8423 0.5448
C41_4 C 0.7367(3) 0.89663(19) 0.5490(4)
C42_4 C 0.7426(3) 0.93373(18) 0.5215(4)
H22_4 H 0.7132 0.9531 0.5376
C43_4 C 0.6819(4) 0.8893(2) 0.6002(4)
C44_4 C 0.6093(4) 0.8388(2) 0.6521(4)
C45_4 C 0.5926(3) 0.79853(19) 0.6400(4)
H23_4 H 0.6206 0.7826 0.6126
C46_4 C 0.5354(3) 0.78368(18) 0.6690(4)
H24_4 H 0.5244 0.7572 0.6617
C47_4 C 0.4926(3) 0.80692(18) 0.7095(4)
C48_4 C 0.5118(4) 0.84570(19) 0.7231(4)
H25_4 H 0.4858 0.8614 0.7533
C49_4 C 0.5691(4) 0.8616(2) 0.6923(4)
H26_4 H 0.5799 0.8881 0.6994
C50_4 C 0.4257(3) 0.79113(18) 0.7338(4)
C51_4 C 0.8792(4) 0.8453(2) 0.4550(4)
C53_4 C 0.9860(4) 0.8000(2) 0.3796(4)
H27_4 H 0.9366 0.7917 0.3613
C59_4 C 0.7334(4) 0.9893(2) 0.1813(5)
C60_4 C 0.6893(4) 0.8559(2) 0.2794(5)
H45_4 H 0.8030 0.9995 0.1146
N2_4 N 0.6368(3) 0.8701(2) 0.3158(4)
H46_4 H 0.6334 0.8960 0.3186
N3_4 N 0.9341(3) 0.85568(19) 0.1624(4)
H47_4 H 0.8907 0.8439 0.1394
N5_4 N 0.6674(3) 0.85208(16) 0.6155(3)
H49_4 H 0.6977 0.8340 0.6028
N6_4 N 0.9461(3) 0.85672(17) 0.4476(4)
H50_4 H 0.9575 0.8818 0.4583
O7_4 O 0.9831(4) 0.9065(2) 0.2375(6)
O8_4 O 0.6993(4) 0.82076(17) 0.2702(5)
O16_4 O 0.8557(4) 0.81260(17) 0.4454(5)
O17_4 O 0.6526(3) 0.91642(16) 0.6273(4)
O18_4 O 0.8361(5) 0.98653(18) 0.3836(5)
loop_
_geom_bond_atom_site_label_1
_geom_bond_atom_site_label_2
_geom_bond_site_symmetry_1
_geom_bond_site_symmetry_2
H9 C17 1_555 1_555
C18 C17 1_555 1_555
C19 C18 1_555 1_555
H10 C19 1_555 1_555
H11 C20 1_555 1_555
C21 C18 1_555 1_555
H28 C54 1_555 1_555
C55 C54 1_555 1_555
C56 C55 1_555 1_555
H29 C56 1_555 1_555
C57 C52 1_555 1_555
H30 C57 1_555 1_555
C58 C55 1_555 1_555
O3 C21 1_555 1_555
O4 C21 1_555 1_555
O12 C58 1_555 1_555
O13 C58 1_555 1_555
La4 O4 1_555 1_555
La8 O3 1_555 1_555
C19 C20 1_555 1_555
C56 C57 1_555 1_555
O4 La8 1_555 1_555
O12 La4 1_555 1_555
O13 La4 1_555 1_555
H21 C40 1_555 1_555
C41 C40 1_555 1_555
H22 C42 1_555 1_555
C43 C41 1_555 1_555
C44 C45 1_555 1_555
C45 H23 1_555 1_555
C46 C45 1_555 1_555
H24 C46 1_555 1_555
C47 C46 1_555 1_555
C48 C47 1_555 1_555
H25 C48 1_555 1_555
C49 C44 1_555 1_555
H26 C49 1_555 1_555
C50 C47 1_555 1_555
N5 C43 1_555 1_555
H49 N5 1_555 1_555
O14 C50 1_555 1_555
O15 C50 1_555 1_555
O17 C43 1_555 1_555
La5 O14 1_555 1_555
C41 C42 1_555 1_555
C44 N5 1_555 1_555
C48 C49 1_555 1_555
O6 La7 1_555 1_555
O14 La7 1_555 1_555
O15 La5 1_555 1_555
C1 C2 1_555 1_555
C2 C3 1_555 1_555
C3 H1 1_555 1_555
C4 C3 1_555 1_555
H2 C4 1_555 1_555
C5 C4 1_555 1_555
C6 C5 1_555 1_555
H3 C6 1_555 1_555
C7 C2 1_555 1_555
H4 C7 1_555 1_555
C8 C9 1_555 1_555
C9 H5 1_555 1_555
C10 C9 1_555 1_555
C11 C10 1_555 1_555
H6 C11 1_555 1_555
C12 C11 1_555 1_555
C13 C8 1_555 1_555
H7 C13 1_555 1_555
C14 C12 1_555 1_555
C15 C16 1_555 1_555
C16 H8 1_555 1_555
C22 C23 1_555 1_555
C23 H12 1_555 1_555
C24 C23 1_555 1_555
H13 C24 1_555 1_555
C25 C24 1_555 1_555
C26 C25 1_555 1_555
H14 C26 1_555 1_555
C27 C22 1_555 1_555
H15 C27 1_555 1_555
C28 C25 1_555 1_555
C29 C30 1_555 1_555
C30 C31 1_555 1_555
C31 H16 1_555 1_555
C32 C31 1_555 1_555
H17 C32 1_555 1_555
C33 C32 1_555 1_555
C34 C33 1_555 1_555
C35 C30 1_555 1_555
H19 C35 1_555 1_555
C36 C37 1_555 1_555
C37 C38 1_555 1_555
C38 H20 1_555 1_555
C39 C38 1_555 1_555
C51 C39 1_555 1_555
C53 H27 1_555 1_555
C59 C8 1_555 1_555
C60 C10 1_555 1_555
C61 H31 1_555 1_555
C62 H32 1_555 1_555
H33 C62 1_555 1_555
H34 C62 1_555 1_555
C63 H35 1_555 1_555
H36 C63 1_555 1_555
H37 C63 1_555 1_555
C64 H38 1_555 1_555
C65 H39 1_555 1_555
H40 C65 1_555 1_555
H41 C65 1_555 1_555
C66 H42 1_555 1_555
H43 C66 1_555 1_555
H44 C66 1_555 1_555
La1 O2 1_555 1_555
La2 O1 1_555 1_555
N1 C5 1_555 1_555
H45 N1 1_555 1_555
N2 C22 1_555 1_555
H46 N2 1_555 1_555
N3 C14 1_555 1_555
H47 N3 1_555 1_555
N4 C33 1_555 1_555
H48 N4 1_555 1_555
N6 C51 1_555 1_555
H50 N6 1_555 1_555
N7 C61 1_555 1_555
N8 C64 1_555 1_555
O1 C1 1_555 1_555
O2 C1 1_555 1_555
O5 C28 1_555 1_555
O7 C14 1_555 1_555
O8 C60 1_555 1_555
O9 C59 1_555 1_555
O10 C29 1_555 1_555
O11 C29 1_555 1_555
O16 C51 1_555 1_555
O18 C36 1_555 1_555
O19 C61 1_555 1_555
O20 C64 1_555 1_555
La4 O5 1_555 1_555
La9 O11 1_555 1_555
O21 La2 1_555 1_555
O22 La1 1_555 1_555
O23 La2 1_555 1_555
O24 La1 1_555 1_555
O25 La2 1_555 1_555
O26 La2 1_555 1_555
O27 La1 1_555 1_555
O28 La1 1_555 1_555
O29 La2 1_555 1_555
O30 La1 1_555 1_555
O31 La1 1_555 1_555
C6 C7 1_555 1_555
C12 C13 1_555 1_555
C15 N3 1_555 1_555
C26 C27 1_555 1_555
C34 C35 1_555 1_555
C36 N4 1_555 1_555
C59 N1 1_555 1_555
C60 N2 1_555 1_555
C62 N7 1_555 1_555
C63 N7 1_555 1_555
C65 N8 1_555 1_555
C66 N8 1_555 1_555
La1 O10 1_555 1_555
La1 O20 1_555 1_555
La2 O2 1_555 1_555
La2 O19 1_555 1_555
La2 O24 1_555 1_555
La2 O28 1_555 1_555
La9 O22 1_555 1_555
La9 O30 1_555 1_555
C8_2 C9_2 1_555 1_555
C9_2 H5_2 1_555 1_555
C10_2 C9_2 1_555 1_555
C11_2 C10_2 1_555 1_555
H6_2 C11_2 1_555 1_555
C12_2 C11_2 1_555 1_555
C13_2 C8_2 1_555 1_555
H7_2 C13_2 1_555 1_555
C14_2 C12_2 1_555 1_555
C15_2 C16_2 1_555 1_555
C16_2 H8_2 1_555 1_555
C22_2 C23_2 1_555 1_555
C23_2 H12_2 1_555 1_555
C24_2 C23_2 1_555 1_555
H13_2 C24_2 1_555 1_555
C25_2 C24_2 1_555 1_555
C26_2 C25_2 1_555 1_555
H14_2 C26_2 1_555 1_555
C27_2 C22_2 1_555 1_555
H15_2 C27_2 1_555 1_555
C28_2 C25_2 1_555 1_555
C36_2 C37_2 1_555 1_555
C37_2 C38_2 1_555 1_555
C38_2 H20_2 1_555 1_555
C39_2 C38_2 1_555 1_555
C40_2 C39_2 1_555 1_555
H21_2 C40_2 1_555 1_555
C41_2 C40_2 1_555 1_555
C42_2 C37_2 1_555 1_555
H22_2 C42_2 1_555 1_555
C43_2 C41_2 1_555 1_555
C44_2 C45_2 1_555 1_555
C45_2 H23_2 1_555 1_555
C46_2 C45_2 1_555 1_555
H24_2 C46_2 1_555 1_555
C47_2 C46_2 1_555 1_555
C48_2 C47_2 1_555 1_555
H25_2 C48_2 1_555 1_555
C49_2 C44_2 1_555 1_555
H26_2 C49_2 1_555 1_555
C50_2 C47_2 1_555 1_555
C51_2 C39_2 1_555 1_555
C53_2 H27_2 1_555 1_555
C59_2 C8_2 1_555 1_555
C60_2 C10_2 1_555 1_555
N2_2 C22_2 1_555 1_555
H46_2 N2_2 1_555 1_555
N3_2 C14_2 1_555 1_555
H47_2 N3_2 1_555 1_555
N5_2 C43_2 1_555 1_555
H49_2 N5_2 1_555 1_555
N6_2 C51_2 1_555 1_555
H50_2 N6_2 1_555 1_555
O24 C28_2 1_555 1_555
O25 C28_2 1_555 1_555
O7_2 C14_2 1_555 1_555
O8_2 C60_2 1_555 1_555
O29 C50_2 1_555 1_555
O15_2 C50_2 1_555 1_555
O16_2 C51_2 1_555 1_555
O17_2 C43_2 1_555 1_555
O18_2 C36_2 1_555 1_555
La5_2 O29 1_555 1_555
C12_2 C13_2 1_555 1_555
C15_2 N3_2 1_555 1_555
C26_2 C27_2 1_555 1_555
C41_2 C42_2 1_555 1_555
C44_2 N5_2 1_555 1_555
C48_2 C49_2 1_555 1_555
C60_2 N2_2 1_555 1_555
O15_2 La5_2 1_555 1_555
C62_2 H32_2 1_555 1_555
H33_2 C62_2 1_555 1_555
H34_2 C62_2 1_555 1_555
La7 O1_2 1_555 1_555
N7_2 C61_2 1_555 1_555
O19_2 C61_2 1_555 1_555
O21_2 La7 1_555 1_555
O23_2 La7 1_555 1_555
O26_2 La7 1_555 1_555
C62_2 N7_2 1_555 1_555
La7 O19_2 1_555 1_555
C1_2 C2_2 1_555 1_555
C2_2 C3_2 1_555 1_555
C3_2 H1_2 1_555 1_555
C4_2 C3_2 1_555 1_555
H2_2 C4_2 1_555 1_555
C5_2 C4_2 1_555 1_555
C6_2 C5_2 1_555 1_555
H3_2 C6_2 1_555 1_555
C7_2 C2_2 1_555 1_555
C29_2 C30_2 1_555 1_555
C30_2 C31_2 1_555 1_555
C31_2 H16_2 1_555 1_555
C32_2 C31_2 1_555 1_555
H17_2 C32_2 1_555 1_555
C33_2 C32_2 1_555 1_555
C34_2 C33_2 1_555 1_555
H18_2 C34_2 1_555 1_555
C35_2 C30_2 1_555 1_555
H19_2 C35_2 1_555 1_555
C63_2 H35_2 1_555 1_555
H36_2 C63_2 1_555 1_555
H37_2 C63_2 1_555 1_555
C64_2 H38_2 1_555 1_555
C65_2 H39_2 1_555 1_555
H40_2 C65_2 1_555 1_555
H41_2 C65_2 1_555 1_555
C66_2 H42_2 1_555 1_555
H43_2 C66_2 1_555 1_555
H44_2 C66_2 1_555 1_555
La4 O2_2 1_555 1_555
N1_2 C5_2 1_555 1_555
N4_2 C33_2 1_555 1_555
H48_2 N4_2 1_555 1_555
N8_2 C64_2 1_555 1_555
O2_2 C1_2 1_555 1_555
O10_2 C29_2 1_555 1_555
O11_2 C29_2 1_555 1_555
O20_2 C64_2 1_555 1_555
La8 O11_2 1_555 1_555
O30_2 La4 1_555 1_555
O31_2 La4 1_555 1_555
C6_2 C7_2 1_555 1_555
C34_2 C35_2 1_555 1_555
C65_2 N8_2 1_555 1_555
C66_2 N8_2 1_555 1_555
La4 O10_2 1_555 1_555
La4 O20_2 1_555 1_555
La8 O30_2 1_555 1_555
H9_2 C17_2 1_555 1_555
C18_2 C17_2 1_555 1_555
C19_2 C18_2 1_555 1_555
H10_2 C19_2 1_555 1_555
H11_2 C20_2 1_555 1_555
C21_2 C18_2 1_555 1_555
H28_2 C54_2 1_555 1_555
C55_2 C54_2 1_555 1_555
C56_2 C55_2 1_555 1_555
H29_2 C56_2 1_555 1_555
C57_2 C52_2 1_555 1_555
H30_2 C57_2 1_555 1_555
C58_2 C55_2 1_555 1_555
O3_2 C21_2 1_555 1_555
O22 C21_2 1_555 1_555
O27 C58_2 1_555 1_555
O28 C58_2 1_555 1_555
La9 O3_2 1_555 1_555
C19_2 C20_2 1_555 1_555
C56_2 C57_2 1_555 1_555
C1_3 C2_3 1_555 1_555
C2_3 C3_3 1_555 1_555
C3_3 H1_3 1_555 1_555
C4_3 C3_3 1_555 1_555
H2_3 C4_3 1_555 1_555
C5_3 C4_3 1_555 1_555
C6_3 C5_3 1_555 1_555
H3_3 C6_3 1_555 1_555
C7_3 C2_3 1_555 1_555
H4_3 C7_3 1_555 1_555
C8_3 C9_3 1_555 1_555
C9_3 H5_3 1_555 1_555
C10_3 C9_3 1_555 1_555
C11_3 C10_3 1_555 1_555
H6_3 C11_3 1_555 1_555
C12_3 C11_3 1_555 1_555
C13_3 C8_3 1_555 1_555
H7_3 C13_3 1_555 1_555
C14_3 C12_3 1_555 1_555
C15_3 C16_3 1_555 1_555
C16_3 H8_3 1_555 1_555
C22_3 C23_3 1_555 1_555
C23_3 H12_3 1_555 1_555
C24_3 C23_3 1_555 1_555
H13_3 C24_3 1_555 1_555
C25_3 C24_3 1_555 1_555
C26_3 C25_3 1_555 1_555
H14_3 C26_3 1_555 1_555
C27_3 C22_3 1_555 1_555
H15_3 C27_3 1_555 1_555
C28_3 C25_3 1_555 1_555
C29_3 C30_3 1_555 1_555
C30_3 C31_3 1_555 1_555
C31_3 H16_3 1_555 1_555
C32_3 C31_3 1_555 1_555
H17_3 C32_3 1_555 1_555
C33_3 C32_3 1_555 1_555
C34_3 C33_3 1_555 1_555
C35_3 C30_3 1_555 1_555
H19_3 C35_3 1_555 1_555
C36_3 C37_3 1_555 1_555
C37_3 C38_3 1_555 1_555
C38_3 H20_3 1_555 1_555
C39_3 C38_3 1_555 1_555
C51_3 C39_3 1_555 1_555
C53_3 H27_3 1_555 1_555
C59_3 C8_3 1_555 1_555
C60_3 C10_3 1_555 1_555
C61_3 H31_3 1_555 1_555
C62_3 H32_3 1_555 1_555
H33_3 C62_3 1_555 1_555
H34_3 C62_3 1_555 1_555
C63_3 H35_3 1_555 1_555
H36_3 C63_3 1_555 1_555
H37_3 C63_3 1_555 1_555
C64_3 H38_3 1_555 1_555
C65_3 H39_3 1_555 1_555
H40_3 C65_3 1_555 1_555
H41_3 C65_3 1_555 1_555
C66_3 H42_3 1_555 1_555
H43_3 C66_3 1_555 1_555
H44_3 C66_3 1_555 1_555
La5 O2_3 1_555 1_555
La8 O1_3 1_555 1_555
N1_3 C5_3 1_555 1_555
H45_3 N1_3 1_555 1_555
N2_3 C22_3 1_555 1_555
H46_3 N2_3 1_555 1_555
N3_3 C14_3 1_555 1_555
H47_3 N3_3 1_555 1_555
N4_3 C33_3 1_555 1_555
H48_3 N4_3 1_555 1_555
N6_3 C51_3 1_555 1_555
H50_3 N6_3 1_555 1_555
N7_3 C61_3 1_555 1_555
N8_3 C64_3 1_555 1_555
O1_3 C1_3 1_555 1_555
O2_3 C1_3 1_555 1_555
O5_2 C28_3 1_555 1_555
O7_3 C14_3 1_555 1_555
O8_3 C60_3 1_555 1_555
O9_3 C59_3 1_555 1_555
O10_3 C29_3 1_555 1_555
O26_2 C29_3 1_555 1_555
O16_3 C51_3 1_555 1_555
O18_3 C36_3 1_555 1_555
O19_3 C61_3 1_555 1_555
O20_3 C64_3 1_555 1_555
La5_2 O5_2 1_555 1_555
O23_2 La5 1_555 1_555
O24_2 La5 1_555 1_555
O25_2 La8 1_555 1_555
O27_2 La5 1_555 1_555
O28_2 La5 1_555 1_555
C6_3 C7_3 1_555 1_555
C12_3 C13_3 1_555 1_555
C15_3 N3_3 1_555 1_555
C26_3 C27_3 1_555 1_555
C34_3 C35_3 1_555 1_555
C36_3 N4_3 1_555 1_555
C59_3 N1_3 1_555 1_555
C60_3 N2_3 1_555 1_555
C62_3 N7_3 1_555 1_555
C63_3 N7_3 1_555 1_555
C65_3 N8_3 1_555 1_555
C66_3 N8_3 1_555 1_555
La5 O10_3 1_555 1_555
La5 O20_3 1_555 1_555
La8 O2_3 1_555 1_555
La8 O19_3 1_555 1_555
La8 O24_2 1_555 1_555
La8 O28_2 1_555 1_555
H21_3 C40_3 1_555 1_555
C41_3 C40_3 1_555 1_555
H22_3 C42_3 1_555 1_555
C43_3 C41_3 1_555 1_555
C44_3 C45_3 1_555 1_555
C45_3 H23_3 1_555 1_555
C46_3 C45_3 1_555 1_555
H24_3 C46_3 1_555 1_555
C47_3 C46_3 1_555 1_555
C48_3 C47_3 1_555 1_555
H25_3 C48_3 1_555 1_555
C49_3 C44_3 1_555 1_555
H26_3 C49_3 1_555 1_555
C50_3 C47_3 1_555 1_555
N5_3 C43_3 1_555 1_555
H49_3 N5_3 1_555 1_555
O30 C50_3 1_555 1_555
O31 C50_3 1_555 1_555
O17_3 C43_3 1_555 1_555
C41_3 C42_3 1_555 1_555
C44_3 N5_3 1_555 1_555
C48_3 C49_3 1_555 1_555
O6_2 La9 1_555 1_555
H9_3 C17_3 1_555 1_555
C18_3 C17_3 1_555 1_555
C19_3 C18_3 1_555 1_555
H10_3 C19_3 1_555 1_555
H11_3 C20_3 1_555 1_555
C21_3 C18_3 1_555 1_555
H28_3 C54_3 1_555 1_555
C55_3 C54_3 1_555 1_555
C56_3 C55_3 1_555 1_555
H29_3 C56_3 1_555 1_555
C57_3 C52_3 1_555 1_555
H30_3 C57_3 1_555 1_555
C58_3 C55_3 1_555 1_555
O21 C21_3 1_555 1_555
O23 C21_3 1_555 1_555
O12_2 C58_3 1_555 1_555
O13_2 C58_3 1_555 1_555
La5_2 O23 1_555 1_555
C19_3 C20_3 1_555 1_555
C56_3 C57_3 1_555 1_555
O12_2 La5_2 1_555 1_555
O13_2 La5_2 1_555 1_555
H9_4 C17_4 1_555 1_555
C18_4 C17_4 1_555 1_555
C19_4 C18_4 1_555 1_555
H10_4 C19_4 1_555 1_555
H11_4 C20_4 1_555 1_555
C21_4 C18_4 1_555 1_555
H28_4 C54_4 1_555 1_555
C55_4 C54_4 1_555 1_555
C56_4 C55_4 1_555 1_555
H29_4 C56_4 1_555 1_555
C57_4 C52_4 1_555 1_555
H30_4 C57_4 1_555 1_555
C58_4 C55_4 1_555 1_555
O21_2 C21_4 1_555 1_555
O23_2 C21_4 1_555 1_555
O27_2 C58_4 1_555 1_555
O28_2 C58_4 1_555 1_555
C19_4 C20_4 1_555 1_555
C56_4 C57_4 1_555 1_555
C1_4 C2_4 1_555 1_555
C2_4 C3_4 1_555 1_555
C3_4 H1_4 1_555 1_555
C4_4 C3_4 1_555 1_555
H2_4 C4_4 1_555 1_555
C5_4 C4_4 1_555 1_555
C6_4 C5_4 1_555 1_555
H3_4 C6_4 1_555 1_555
C7_4 C2_4 1_555 1_555
C29_4 C30_4 1_555 1_555
C30_4 C31_4 1_555 1_555
C31_4 H16_4 1_555 1_555
C32_4 C31_4 1_555 1_555
H17_4 C32_4 1_555 1_555
C33_4 C32_4 1_555 1_555
C34_4 C33_4 1_555 1_555
H18_4 C34_4 1_555 1_555
C35_4 C30_4 1_555 1_555
H19_4 C35_4 1_555 1_555
C63_4 H35_4 1_555 1_555
H36_4 C63_4 1_555 1_555
H37_4 C63_4 1_555 1_555
C64_4 H38_4 1_555 1_555
C65_4 H39_4 1_555 1_555
H40_4 C65_4 1_555 1_555
H41_4 C65_4 1_555 1_555
C66_4 H42_4 1_555 1_555
H43_4 C66_4 1_555 1_555
H44_4 C66_4 1_555 1_555
La5_2 O2_4 1_555 1_555
N1_4 C5_4 1_555 1_555
N4_4 C33_4 1_555 1_555
H48_4 N4_4 1_555 1_555
N8_4 C64_4 1_555 1_555
O2_4 C1_4 1_555 1_555
O10_4 C29_4 1_555 1_555
O26 C29_4 1_555 1_555
O20_4 C64_4 1_555 1_555
C6_4 C7_4 1_555 1_555
C34_4 C35_4 1_555 1_555
C65_4 N8_4 1_555 1_555
C66_4 N8_4 1_555 1_555
La5_2 O10_4 1_555 1_555
La5_2 O20_4 1_555 1_555
C62_4 H32_4 1_555 1_555
H33_4 C62_4 1_555 1_555
H34_4 C62_4 1_555 1_555
La9 O1_4 1_555 1_555
N7_4 C61_4 1_555 1_555
O19_4 C61_4 1_555 1_555
C62_4 N7_4 1_555 1_555
La9 O19_4 1_555 1_555
C8_4 C9_4 1_555 1_555
C9_4 H5_4 1_555 1_555
C10_4 C9_4 1_555 1_555
C11_4 C10_4 1_555 1_555
H6_4 C11_4 1_555 1_555
C12_4 C11_4 1_555 1_555
C13_4 C8_4 1_555 1_555
H7_4 C13_4 1_555 1_555
C14_4 C12_4 1_555 1_555
C15_4 C16_4 1_555 1_555
C16_4 H8_4 1_555 1_555
C22_4 C23_4 1_555 1_555
C23_4 H12_4 1_555 1_555
C24_4 C23_4 1_555 1_555
H13_4 C24_4 1_555 1_555
C25_4 C24_4 1_555 1_555
C26_4 C25_4 1_555 1_555
H14_4 C26_4 1_555 1_555
C27_4 C22_4 1_555 1_555
H15_4 C27_4 1_555 1_555
C28_4 C25_4 1_555 1_555
C36_4 C37_4 1_555 1_555
C37_4 C38_4 1_555 1_555
C38_4 H20_4 1_555 1_555
C39_4 C38_4 1_555 1_555
C40_4 C39_4 1_555 1_555
H21_4 C40_4 1_555 1_555
C41_4 C40_4 1_555 1_555
C42_4 C37_4 1_555 1_555
H22_4 C42_4 1_555 1_555
C43_4 C41_4 1_555 1_555
C44_4 C45_4 1_555 1_555
C45_4 H23_4 1_555 1_555
C46_4 C45_4 1_555 1_555
H24_4 C46_4 1_555 1_555
C47_4 C46_4 1_555 1_555
C48_4 C47_4 1_555 1_555
H25_4 C48_4 1_555 1_555
C49_4 C44_4 1_555 1_555
H26_4 C49_4 1_555 1_555
C50_4 C47_4 1_555 1_555
C51_4 C39_4 1_555 1_555
C53_4 H27_4 1_555 1_555
C59_4 C8_4 1_555 1_555
C60_4 C10_4 1_555 1_555
N2_4 C22_4 1_555 1_555
H46_4 N2_4 1_555 1_555
N3_4 C14_4 1_555 1_555
H47_4 N3_4 1_555 1_555
N5_4 C43_4 1_555 1_555
H49_4 N5_4 1_555 1_555
N6_4 C51_4 1_555 1_555
H50_4 N6_4 1_555 1_555
O24_2 C28_4 1_555 1_555
O25_2 C28_4 1_555 1_555
O7_4 C14_4 1_555 1_555
O8_4 C60_4 1_555 1_555
O30_2 C50_4 1_555 1_555
O31_2 C50_4 1_555 1_555
O16_4 C51_4 1_555 1_555
O17_4 C43_4 1_555 1_555
O18_4 C36_4 1_555 1_555
C12_4 C13_4 1_555 1_555
C15_4 N3_4 1_555 1_555
C26_4 C27_4 1_555 1_555
C41_4 C42_4 1_555 1_555
C44_4 N5_4 1_555 1_555
C48_4 C49_4 1_555 1_555
C60_4 N2_4 1_555 1_555

#END
