
###############################################################################
#
# This file contains modified crystal structure data generated from the
# MOF subset of the Cambridge Structural Database (CSD) v543 
# hosted by the Cambridge Crystallographic Data Centre (CCDC).
#
# This work is licensed under the Creative Commons
# Attribution-NonCommercial-ShareAlike 4.0 International License.
# To view a copy of this license, visit
# http://creativecommons.org/licenses/by-nc-sa/4.0/
# or send a letter to
# Creative Commons, PO Box 1866, Mountain View, CA 94042, USA.
#
# CIF created using the CSD Python API on 29 September 2022
# The structure has been converted into the P1 space group
# The structure has a 3D framework
# The original CSD entry WIRCAD is in the monoclinic crystal system
# The framework has been calculated to contain at least 10.0% void space
# The void calculation uses a probe of radius 1.32A, grid spacing 0.4
# H atom positions have been added when not included in the experimental data
# Generated hydrogen atom positions removed from atoms on special positions
#
###############################################################################

data_WIRCAD
_chemical_formula_moiety         '(C180 H140 Co16 N12 O68)n'
_symmetry_cell_setting           triclinic
_symmetry_space_group_name_H-M   'P 1'
_symmetry_Int_Tables_number      1
_space_group_name_Hall           'P 1'
loop_
_symmetry_equiv_pos_site_id
_symmetry_equiv_pos_as_xyz
1 x,y,z
_cell_length_a                   11.4903(9)
_cell_length_b                   21.7478(3)
_cell_length_c                   20.8346(5)
_cell_angle_alpha                90
_cell_angle_beta                 91.029(4)
_cell_angle_gamma                90
_cell_volume                     5205.49
loop_
_atom_site_label
_atom_site_type_symbol
_atom_site_fract_x
_atom_site_fract_y
_atom_site_fract_z
O11 O 0.1400(2) 0.4122(1) 0.4027(1)
O12 O 0.1825(2) 0.3137(1) 0.4251(1)
C29 C 0.0144(4) 0.2823(2) 0.5268(2)
H21 H 0.0944 0.2815 0.5207
H22 H 0.0192 0.2327 0.6067
C36 C 0.1133(3) 0.3578(2) 0.4178(2)
Co13 Co 0.2996 0.4561 0.4046
Co15 Co 0.3622 0.3169 0.4368
Co1 Co 0.4641 0.5216 0.3067
Co4 Co 0.5459 0.5748 0.4467
O1 O 0.4933(2) 0.4281(1) 0.2876(1)
O2 O 0.3773(2) 0.3812(1) 0.3566(1)
O3 O 0.4508(3) 0.1510(1) 0.1083(1)
O4 O 0.5654(2) 0.1164(1) 0.1873(1)
O5 O 0.2832(2) 0.5043(1) 0.3162(1)
O6 O 0.2277(3) 0.5276(2) 0.2173(2)
O9 O 0.5443(2) 0.3172(1) 0.4422(1)
O10 O 0.5948(2) 0.4004(1) 0.4981(1)
O13 O 0.4549(2) 0.5345(1) 0.2065(1)
H1 H 0.4707 0.5273 0.1674
H2 H 0.3991 0.5604 0.2066
O14 O 0.4624(2) 0.5024(1) 0.4078(1)
H3 H 0.5113 0.4733 0.4121
O15 O 0.2312(2) 0.5242(1) 0.4627(1)
O16 O 0.3411(2) 0.4003(1) 0.4845(1)
H4 H 0.3474 0.4092 0.5241
O17 O 0.3484(3) 0.2693(1) 0.5251(1)
H5 H 0.3755 0.2441 0.5526
H6 H 0.3008 0.2927 0.5442
C1 C 0.4508(3) 0.3241(1) 0.2686(2)
C2 C 0.5601(3) 0.3035(2) 0.2538(2)
H7 H 0.6251 0.3263 0.2665
C3 C 0.5749(3) 0.2483(2) 0.2196(2)
H8 H 0.6496 0.2346 0.2107
C4 C 0.4812(3) 0.2146(2) 0.1994(2)
C5 C 0.2649(3) 0.2001(2) 0.1948(2)
H9 H 0.2737 0.1638 0.1718
C6 C 0.1567(4) 0.2192(2) 0.2105(2)
H10 H 0.0922 0.1953 0.1996
C7 C 0.1421(4) 0.2752(2) 0.2432(2)
H11 H 0.0675 0.2886 0.2526
C8 C 0.2355(3) 0.3100(2) 0.2613(2)
H12 H 0.2239 0.3471 0.2824
C9 C 0.3499(3) 0.2903(2) 0.2483(2)
C10 C 0.3655(3) 0.2350(2) 0.2129(2)
C11 C 0.4402(3) 0.3820(1) 0.3069(2)
C12 C 0.5019(3) 0.1560(2) 0.1628(2)
C13 C 0.0798(3) 0.5158(2) 0.2930(2)
C14 C 0.0460(3) 0.5543(2) 0.3414(2)
H13 H 0.1016 0.5774 0.3636
C20 C 0.0270(4) 0.4372(2) 0.2097(2)
H18 H 0.1048 0.4331 0.1989
C23 C 0.2054(3) 0.5156(2) 0.2734(2)
C25 C 0.7441(3) 0.3459(2) 0.4493(2)
C26 C 0.7883(3) 0.3738(2) 0.3969(2)
H19 H 0.7384 0.3921 0.3670
C27 C 0.9083(3) 0.3751(2) 0.3875(2)
H20 H 0.9367 0.3959 0.3521
C28 C 0.9848(3) 0.3470(2) 0.4284(2)
C30 C 0.9698(4) 0.2536(3) 0.5783(3)
C31 C 0.8483(5) 0.2548(3) 0.5896(3)
H23 H 0.8188 0.2356 0.6258
C32 C 0.7743(4) 0.2844(3) 0.5471(3)
H24 H 0.6947 0.2848 0.5545
C33 C 0.8185(3) 0.3141(2) 0.4925(2)
C34 C 0.9415(3) 0.3137(2) 0.4818(2)
C35 C 0.6166(3) 0.3536(1) 0.4643(2)
C37 C 0.4646(3) 0.1975(2) 0.3736(2)
H25 H 0.5413 0.2105 0.3790
C38 C 0.2830(3) 0.1970(2) 0.3753(2)
H26 H 0.2057 0.2078 0.3814
C39 C 0.2476(5) 0.0923(2) 0.3273(2)
H27 H 0.2986 0.0605 0.3111
H28 H 0.1976 0.1059 0.2921
C40 C 0.1749(5) 0.0660(2) 0.3786(2)
C41 C 0.2217(7) 0.0326(5) 0.4266(4)
H29 H 0.3015 0.0254 0.4272
C42 C 0.1555(6) 0.0085(5) 0.4754(4)
C43 C 0.0376(5) 0.0137(3) 0.4742(3)
C45 C 0.0594(6) 0.0712(4) 0.3761(3)
H32 H 0.0242 0.0931 0.3426
N1 N 0.3727(2) 0.2320(1) 0.3902(1)
N2 N 0.4357(3) 0.1431(2) 0.3487(2)
N3 N 0.3181(3) 0.1441(1) 0.3505(2)
Co10 Co 0.5359 0.0216 0.1933
Co19 Co 0.4541 0.0748 0.0533
Co21 Co 0.4541 0.4252 0.5533
O35 O 0.5492(3) 0.6510(1) 0.3917(1)
O37 O 0.4346(2) 0.6164(1) 0.3127(1)
O39 O 0.6412(2) 0.5352(1) 0.3029(1)
O41 O 0.7021(2) 0.5412(1) 0.4046(1)
O44 O 0.4052(2) 0.5996(1) 0.5019(1)
O50 O 0.6589(2) 0.5997(1) 0.5155(1)
H30 H 0.1922 0.9884 0.5096
C53 C 0.0108(6) 0.9562(4) 0.5762(3)
H39 H 0.0915 0.9534 0.5798
O24 O 0.3588(2) 0.4648(1) 0.6971(1)
O25 O 0.2979(2) 0.4588(1) 0.5954(1)
C69 C 0.0721(3) 0.4409(2) 0.6423(2)
H54 H 0.0932 0.4147 0.6092
C70 C 0.1565(3) 0.4741(2) 0.6742(2)
C71 C 0.2062(3) 0.5531(2) 0.7582(2)
H55 H 0.2846 0.5511 0.7480
C72 C 0.1704(4) 0.5928(2) 0.8046(2)
H56 H 0.2251 0.6172 0.8260
C73 C 0.0535(4) 0.5973(2) 0.8206(2)
H57 H 0.0311 0.6245 0.8525
C75 C 0.0046(3) 0.5198(2) 0.7415(2)
C76 C 0.1247(3) 0.5148(2) 0.7251(2)
C78 C 0.2804(3) 0.4656(2) 0.6539(2)
Co11 Co 0.5359 0.4784 0.6933
C15 C 0.9279(3) 0.5591(2) 0.3577(2)
H14 H 0.9068 0.5853 0.3908
C16 C 0.8435(3) 0.5259(2) 0.3258(2)
C17 C 0.7938(3) 0.4469(2) 0.2418(2)
H15 H 0.7154 0.4489 0.2520
C18 C 0.8296(4) 0.4072(2) 0.1954(2)
H16 H 0.7749 0.3828 0.1740
C19 C 0.9465(4) 0.4027(2) 0.1794(2)
H17 H 0.9689 0.3755 0.1475
C21 C 0.9954(3) 0.4802(2) 0.2585(2)
C22 C 0.8753(3) 0.4852(2) 0.2749(2)
C24 C 0.7196(3) 0.5344(2) 0.3461(2)
C44 C 0.9892(6) 0.0438(4) 0.4238(3)
H31 H 0.9085 0.0466 0.4202
H38 H 0.8078 0.0116 0.4904
C46 C 0.5354(3) 0.8025(2) 0.6264(2)
H33 H 0.4587 0.7895 0.6210
C47 C 0.7170(3) 0.8030(2) 0.6247(2)
H34 H 0.7943 0.7922 0.6186
C48 C 0.7524(5) 0.9077(2) 0.6727(2)
H35 H 0.7014 0.9395 0.6889
H36 H 0.8024 0.8941 0.7079
C49 C 0.8251(5) 0.9340(2) 0.6214(2)
C50 C 0.7783(7) 0.9674(5) 0.5734(4)
H37 H 0.6985 0.9746 0.5728
C51 C 0.8445(6) 0.9915(5) 0.5246(4)
C52 C 0.9624(5) 0.9863(3) 0.5258(3)
C54 C 0.9406(6) 0.9288(4) 0.6239(3)
H40 H 0.9758 0.9069 0.6574
N4 N 0.6273(2) 0.7680(1) 0.6098(1)
N5 N 0.5643(3) 0.8569(2) 0.6513(2)
N6 N 0.6819(3) 0.8559(1) 0.6495(2)
Co6 Co 0.7004 0.5439 0.5954
Co7 Co 0.6378 0.6831 0.5632
O18 O 0.5067(2) 0.5719(1) 0.7124(1)
O19 O 0.6227(2) 0.6188(1) 0.6434(1)
O20 O 0.5492(3) 0.8490(1) 0.8917(1)
O21 O 0.4346(2) 0.8836(1) 0.8127(1)
O22 O 0.7168(2) 0.4957(1) 0.6838(1)
O23 O 0.7723(3) 0.4724(2) 0.7827(2)
O26 O 0.4557(2) 0.6828(1) 0.5578(1)
O30 O 0.5451(2) 0.4655(1) 0.7935(1)
H41 H 0.5293 0.4727 0.8326
H42 H 0.6009 0.4396 0.7934
O31 O 0.5376(2) 0.4976(1) 0.5922(1)
H43 H 0.4887 0.5267 0.5879
O32 O 0.7688(2) 0.4758(1) 0.5373(1)
H44 H 0.6526 0.5908 0.4759
O34 O 0.6516(3) 0.7307(1) 0.4749(1)
H45 H 0.6245 0.7559 0.4474
H46 H 0.6992 0.7073 0.4558
C55 C 0.5492(3) 0.6759(1) 0.7314(2)
C56 C 0.4399(3) 0.6965(2) 0.7462(2)
H47 H 0.3749 0.6737 0.7335
C57 C 0.4251(3) 0.7517(2) 0.7804(2)
H48 H 0.3504 0.7654 0.7893
C58 C 0.5188(3) 0.7854(2) 0.8006(2)
C59 C 0.7351(3) 0.7999(2) 0.8052(2)
H49 H 0.7263 0.8362 0.8282
C60 C 0.8433(4) 0.7808(2) 0.7895(2)
H50 H 0.9078 0.8047 0.8004
C61 C 0.8579(4) 0.7248(2) 0.7568(2)
H51 H 0.9325 0.7114 0.7474
C62 C 0.7645(3) 0.6900(2) 0.7387(2)
H52 H 0.7761 0.6529 0.7176
C63 C 0.6501(3) 0.7097(2) 0.7517(2)
C64 C 0.6345(3) 0.7650(2) 0.7871(2)
C65 C 0.5598(3) 0.6180(1) 0.6931(2)
C66 C 0.4981(3) 0.8440(2) 0.8372(2)
C67 C 0.9202(3) 0.4842(2) 0.7070(2)
C68 C 0.9540(3) 0.4457(2) 0.6586(2)
H53 H 0.8984 0.4226 0.6364
C74 C 0.9730(4) 0.5628(2) 0.7903(2)
H58 H 0.8952 0.5669 0.8011
C77 C 0.7946(3) 0.4844(2) 0.7266(2)
C79 C 0.2559(3) 0.6541(2) 0.5507(2)
C80 C 0.2117(3) 0.6262(2) 0.6031(2)
H59 H 0.2616 0.6079 0.6330
C81 C 0.0917(3) 0.6249(2) 0.6125(2)
H60 H 0.0633 0.6041 0.6479
C82 C 0.0152(3) 0.6530(2) 0.5716(2)
C84 C 0.0302(4) 0.7464(3) 0.4217(3)
C85 C 0.1517(5) 0.7452(3) 0.4104(3)
H63 H 0.1812 0.7644 0.3742
C86 C 0.2257(4) 0.7156(3) 0.4529(3)
H64 H 0.3053 0.7152 0.4455
C87 C 0.1815(3) 0.6859(2) 0.5075(2)
C88 C 0.0585(3) 0.6863(2) 0.5182(2)
C89 C 0.3834(3) 0.6464(1) 0.5357(2)
Co12 Co 0.4641 0.9784 0.8067
Co22 Co 0.5459 0.9252 0.9467
O36 O 0.4508(3) 0.3490(1) 0.6083(1)
O38 O 0.5654(2) 0.3836(1) 0.6873(1)
O46 O 0.8600(2) 0.5878(1) 0.5973(1)
O48 O 0.8175(2) 0.6863(1) 0.5749(1)
C83 C 0.9856(4) 0.7177(2) 0.4732(2)
H61 H 0.9056 0.7185 0.4793
H62 H 0.9808 0.7673 0.3933
C90 C 0.8867(3) 0.6422(2) 0.5822(2)
O28 O 0.1400(2) 0.0878(1) 0.9027(1)
O29 O 0.1825(2) 0.1863(1) 0.9251(1)
C90_2 C 0.1133(3) 0.1422(2) 0.9178(2)
Co14 Co 0.2996 0.0439 0.9046
Co16 Co 0.3622 0.1831 0.9368
O7 O 0.3588(2) 0.0352(1) 0.1971(1)
O8 O 0.2979(2) 0.0412(1) 0.0954(1)
C15_2 C 0.0721(3) 0.0591(2) 0.1423(2)
H14_2 H 0.0932 0.0853 0.1092
C16_2 C 0.1565(3) 0.0259(2) 0.1742(2)
C24_2 C 0.2804(3) 0.0344(2) 0.1539(2)
C17_2 C 0.2062(3) 0.9469(2) 0.2582(2)
H15_2 H 0.2846 0.9489 0.2480
C18_2 C 0.1704(4) 0.9072(2) 0.3046(2)
H16_2 H 0.2251 0.8828 0.3260
C19_2 C 0.0535(4) 0.9027(2) 0.3206(2)
H17_2 H 0.0311 0.8755 0.3525
C21_2 C 0.0046(3) 0.9802(2) 0.2415(2)
C22_2 C 0.1247(3) 0.9852(2) 0.2251(2)
C44_2 C 0.0108(6) 0.5438(4) 0.0762(3)
H31_2 H 0.0915 0.5466 0.0798
H38_2 H 0.1922 0.5116 0.0096
H44_2 H 0.3474 0.0908 0.0241
O34_2 O 0.3484(3) 0.2307(1) 0.0251(1)
H45_2 H 0.3755 0.2559 0.0526
H46_2 H 0.3008 0.2073 0.0442
C84_2 C 0.9698(4) 0.2464(3) 0.0783(3)
C85_2 C 0.8483(5) 0.2452(3) 0.0896(3)
H63_2 H 0.8188 0.2644 0.1258
C86_2 C 0.7743(4) 0.2156(3) 0.0471(3)
H64_2 H 0.6947 0.2152 0.0545
C46_2 C 0.4646(3) 0.3025(2) 0.8736(2)
H33_2 H 0.5413 0.2895 0.8790
C47_2 C 0.2830(3) 0.3030(2) 0.8753(2)
H34_2 H 0.2057 0.2922 0.8814
C48_2 C 0.2476(5) 0.4077(2) 0.8273(2)
H35_2 H 0.2986 0.4395 0.8111
H36_2 H 0.1976 0.3941 0.7921
C49_2 C 0.1749(5) 0.4340(2) 0.8786(2)
C50_2 C 0.2217(7) 0.4674(5) 0.9266(4)
H37_2 H 0.3015 0.4746 0.9272
C51_2 C 0.1555(6) 0.4915(5) 0.9754(4)
C52_2 C 0.0376(5) 0.4863(3) 0.9742(3)
C54_2 C 0.0594(6) 0.4288(4) 0.8761(3)
H40_2 H 0.0242 0.4069 0.8426
N4_2 N 0.3727(2) 0.2680(1) 0.8902(1)
N5_2 N 0.4357(3) 0.3569(2) 0.8487(2)
N6_2 N 0.3181(3) 0.3559(1) 0.8505(2)
O18_2 O 0.4933(2) 0.0719(1) 0.7876(1)
O19_2 O 0.3773(2) 0.1188(1) 0.8566(1)
O26_2 O 0.5443(2) 0.1828(1) 0.9422(1)
O27 O 0.5948(2) 0.0996(1) 0.9981(1)
H43_2 H 0.5113 0.0267 0.9121
O33 O 0.3411(2) 0.0997(1) 0.9845(1)
C55_2 C 0.4508(3) 0.1759(1) 0.7686(2)
C56_2 C 0.5601(3) 0.1965(2) 0.7538(2)
H47_2 H 0.6251 0.1737 0.7665
C57_2 C 0.5749(3) 0.2517(2) 0.7196(2)
H48_2 H 0.6496 0.2654 0.7107
C58_2 C 0.4812(3) 0.2854(2) 0.6994(2)
C59_2 C 0.2649(3) 0.2999(2) 0.6948(2)
H49_2 H 0.2737 0.3362 0.6718
C60_2 C 0.1567(4) 0.2808(2) 0.7105(2)
H50_2 H 0.0922 0.3047 0.6996
C61_2 C 0.1421(4) 0.2248(2) 0.7432(2)
H51_2 H 0.0675 0.2114 0.7526
C62_2 C 0.2355(3) 0.1900(2) 0.7613(2)
H52_2 H 0.2239 0.1529 0.7824
C63_2 C 0.3499(3) 0.2097(2) 0.7483(2)
C64_2 C 0.3655(3) 0.2650(2) 0.7129(2)
C65_2 C 0.4402(3) 0.1180(1) 0.8069(2)
C66_2 C 0.5019(3) 0.3440(2) 0.6628(2)
C74_2 C 0.0270(4) 0.0628(2) 0.7097(2)
H58_2 H 0.1048 0.0669 0.6989
C79_2 C 0.7441(3) 0.1541(2) 0.9493(2)
C80_2 C 0.7883(3) 0.1262(2) 0.8969(2)
H59_2 H 0.7384 0.1079 0.8670
C81_2 C 0.9083(3) 0.1249(2) 0.8875(2)
H60_2 H 0.9367 0.1041 0.8521
C82_2 C 0.9848(3) 0.1530(2) 0.9284(2)
C87_2 C 0.8185(3) 0.1859(2) 0.9925(2)
C88_2 C 0.9415(3) 0.1863(2) 0.9818(2)
C89_2 C 0.6166(3) 0.1464(1) 0.9643(2)
O43 O 0.4052(2) 0.9004(1) 0.0019(1)
O49 O 0.6589(2) 0.9003(1) 0.0155(1)
O22_2 O 0.2832(2) 0.9957(1) 0.8162(1)
O23_2 O 0.2277(3) 0.9724(2) 0.7173(2)
O30_2 O 0.4549(2) 0.9655(1) 0.7065(1)
H41_2 H 0.4707 0.9727 0.6674
H42_2 H 0.3991 0.9396 0.7066
O31_2 O 0.4624(2) 0.9976(1) 0.9078(1)
O32_2 O 0.2312(2) 0.9758(1) 0.9627(1)
C67_2 C 0.0798(3) 0.9842(2) 0.7930(2)
C68_2 C 0.0460(3) 0.9457(2) 0.8414(2)
H53_2 H 0.1016 0.9226 0.8636
C77_2 C 0.2054(3) 0.9844(2) 0.7734(2)
O40 O 0.6412(2) 0.9648(1) 0.8029(1)
O42 O 0.7021(2) 0.9588(1) 0.9046(1)
O5_2 O 0.7168(2) 0.0043(1) 0.1838(1)
O6_2 O 0.7723(3) 0.0276(2) 0.2827(2)
O13_2 O 0.5451(2) 0.0345(1) 0.2935(1)
H1_2 H 0.5293 0.0273 0.3326
H2_2 H 0.6009 0.0604 0.2934
O14_2 O 0.5376(2) 0.0024(1) 0.0922(1)
O15_2 O 0.7688(2) 0.0242(1) 0.0373(1)
C13_2 C 0.9202(3) 0.0158(2) 0.2070(2)
C14_2 C 0.9540(3) 0.0543(2) 0.1586(2)
H13_2 H 0.8984 0.0774 0.1364
C23_2 C 0.7946(3) 0.0156(2) 0.2266(2)
Co2 Co 0.7004 0.9561 0.0954
Co3 Co 0.6378 0.8169 0.0632
O1_2 O 0.5067(2) 0.9281(1) 0.2124(1)
O2_2 O 0.6227(2) 0.8812(1) 0.1434(1)
O9_2 O 0.4557(2) 0.8172(1) 0.0578(1)
H3_2 H 0.4887 0.9733 0.0879
C1_2 C 0.5492(3) 0.8241(1) 0.2314(2)
C2_2 C 0.4399(3) 0.8035(2) 0.2462(2)
H7_2 H 0.3749 0.8263 0.2335
C3_2 C 0.4251(3) 0.7483(2) 0.2804(2)
H8_2 H 0.3504 0.7346 0.2893
C4_2 C 0.5188(3) 0.7146(2) 0.3006(2)
C5_2 C 0.7351(3) 0.7001(2) 0.3052(2)
H9_2 H 0.7263 0.6638 0.3282
C6_2 C 0.8433(4) 0.7192(2) 0.2895(2)
H10_2 H 0.9078 0.6953 0.3004
C7_2 C 0.8579(4) 0.7752(2) 0.2568(2)
H11_2 H 0.9325 0.7886 0.2474
C8_2 C 0.7645(3) 0.8100(2) 0.2387(2)
H12_2 H 0.7761 0.8471 0.2176
C9_2 C 0.6501(3) 0.7903(2) 0.2517(2)
C10_2 C 0.6345(3) 0.7350(2) 0.2871(2)
C11_2 C 0.5598(3) 0.8820(1) 0.1931(2)
C12_2 C 0.4981(3) 0.6560(2) 0.3372(2)
C20_2 C 0.9730(4) 0.9372(2) 0.2903(2)
H18_2 H 0.8952 0.9331 0.3011
C25_2 C 0.2559(3) 0.8459(2) 0.0507(2)
C26_2 C 0.2117(3) 0.8738(2) 0.1031(2)
H19_2 H 0.2616 0.8921 0.1330
C27_2 C 0.0917(3) 0.8751(2) 0.1125(2)
H20_2 H 0.0633 0.8959 0.1479
C28_2 C 0.0152(3) 0.8470(2) 0.0716(2)
C33_2 C 0.1815(3) 0.8141(2) 0.0075(2)
C34_2 C 0.0585(3) 0.8137(2) 0.0182(2)
C35_2 C 0.3834(3) 0.8536(1) 0.0357(2)
C37_2 C 0.5354(3) 0.6975(2) 0.1264(2)
H25_2 H 0.4587 0.7105 0.1210
C38_2 C 0.7170(3) 0.6970(2) 0.1247(2)
H26_2 H 0.7943 0.7078 0.1186
C39_2 C 0.7524(5) 0.5923(2) 0.1727(2)
H27_2 H 0.7014 0.5605 0.1889
H28_2 H 0.8024 0.6059 0.2079
C40_2 C 0.8251(5) 0.5660(2) 0.1214(2)
C41_2 C 0.7783(7) 0.5326(5) 0.0734(4)
H29_2 H 0.6985 0.5254 0.0728
C42_2 C 0.8445(6) 0.5085(5) 0.0246(4)
C43_2 C 0.9624(5) 0.5137(3) 0.0258(3)
C45_2 C 0.9406(6) 0.5712(4) 0.1239(3)
H32_2 H 0.9758 0.5931 0.1574
N1_2 N 0.6273(2) 0.7320(1) 0.1098(1)
N2_2 N 0.5643(3) 0.6431(2) 0.1513(2)
N3_2 N 0.6819(3) 0.6441(1) 0.1495(2)
O45 O 0.8600(2) 0.9122(1) 0.0973(1)
O47 O 0.8175(2) 0.8137(1) 0.0749(1)
H4_2 H 0.6526 0.9092 0.9759
O17_2 O 0.6516(3) 0.7693(1) 0.9749(1)
H5_2 H 0.6245 0.7441 0.9474
H6_2 H 0.6992 0.7927 0.9558
C30_2 C 0.0302(4) 0.7536(3) 0.9217(3)
C31_2 C 0.1517(5) 0.7548(3) 0.9104(3)
H23_2 H 0.1812 0.7356 0.8742
C32_2 C 0.2257(4) 0.7844(3) 0.9529(3)
H24_2 H 0.3053 0.7848 0.9455
H30_2 H 0.8078 0.4884 0.9904
C53_2 C 0.9892(6) 0.4562(4) 0.9238(3)
H39_2 H 0.9085 0.4534 0.9202
C71_2 C 0.7938(3) 0.0531(2) 0.7418(2)
H55_2 H 0.7154 0.0511 0.7520
C72_2 C 0.8296(4) 0.0928(2) 0.6954(2)
H56_2 H 0.7749 0.1172 0.6740
C73_2 C 0.9465(4) 0.0973(2) 0.6794(2)
H57_2 H 0.9689 0.1245 0.6475
C75_2 C 0.9954(3) 0.0198(2) 0.7585(2)
C76_2 C 0.8753(3) 0.0148(2) 0.7749(2)
C69_2 C 0.9279(3) 0.9409(2) 0.8577(2)
H54_2 H 0.9068 0.9147 0.8908
C70_2 C 0.8435(3) 0.9741(2) 0.8258(2)
C78_2 C 0.7196(3) 0.9656(2) 0.8461(2)
C36_2 C 0.8867(3) 0.8578(2) 0.0822(2)
C83_2 C 0.0144(4) 0.2177(2) 0.0268(2)
H61_2 H 0.0944 0.2185 0.0207
H62_2 H 0.0192 0.2673 0.1067
C29_2 C 0.9856(4) 0.7823(2) 0.9732(2)
H21_2 H 0.9056 0.7815 0.9793
H22_2 H 0.9808 0.7327 0.8933
loop_
_geom_bond_atom_site_label_1
_geom_bond_atom_site_label_2
_geom_bond_site_symmetry_1
_geom_bond_site_symmetry_2
O11 C36 1_555 1_555
O12 C36 1_555 1_555
C29 H21 1_555 1_555
Co13 O11 1_555 1_555
Co15 O12 1_555 1_555
Co1 O1 1_555 1_555
Co13 O2 1_555 1_555
Co15 O2 1_555 1_555
Co4 O14 1_555 1_555
O1 C11 1_555 1_555
O2 C11 1_555 1_555
O3 C12 1_555 1_555
O4 C12 1_555 1_555
O5 Co1 1_555 1_555
O6 C23 1_555 1_555
O9 Co15 1_555 1_555
O10 C35 1_555 1_555
O13 Co1 1_555 1_555
H1 O13 1_555 1_555
H2 O13 1_555 1_555
O14 Co1 1_555 1_555
H3 O14 1_555 1_555
O15 Co13 1_555 1_555
O16 Co13 1_555 1_555
H4 O16 1_555 1_555
O17 Co15 1_555 1_555
H5 O17 1_555 1_555
H6 O17 1_555 1_555
C1 C2 1_555 1_555
C2 H7 1_555 1_555
C3 C2 1_555 1_555
H8 C3 1_555 1_555
C4 C3 1_555 1_555
C5 H9 1_555 1_555
C6 C5 1_555 1_555
H10 C6 1_555 1_555
C7 C6 1_555 1_555
H11 C7 1_555 1_555
C8 C7 1_555 1_555
H12 C8 1_555 1_555
C9 C1 1_555 1_555
C10 C4 1_555 1_555
C11 C1 1_555 1_555
C12 C4 1_555 1_555
C13 C14 1_555 1_555
C14 H13 1_555 1_555
H18 C20 1_555 1_555
C23 O5 1_555 1_555
C25 C26 1_555 1_555
C26 H19 1_555 1_555
C27 C26 1_555 1_555
H20 C27 1_555 1_555
C28 C27 1_555 1_555
C31 C30 1_555 1_555
H23 C31 1_555 1_555
C32 C31 1_555 1_555
H24 C32 1_555 1_555
C33 C25 1_555 1_555
C34 C28 1_555 1_555
C35 O9 1_555 1_555
C37 H25 1_555 1_555
C38 H26 1_555 1_555
C39 H27 1_555 1_555
H28 C39 1_555 1_555
C40 C39 1_555 1_555
C41 C40 1_555 1_555
H29 C41 1_555 1_555
C42 C41 1_555 1_555
C43 C42 1_555 1_555
C45 C40 1_555 1_555
H32 C45 1_555 1_555
N1 Co15 1_555 1_555
N2 C37 1_555 1_555
N3 C38 1_555 1_555
Co10 O4 1_555 1_555
Co19 O3 1_555 1_555
Co21 O10 1_555 1_555
O35 Co4 1_555 1_555
O37 Co1 1_555 1_555
O39 Co1 1_555 1_555
O41 Co4 1_555 1_555
O44 Co4 1_555 1_555
O50 Co4 1_555 1_555
Co13 O5 1_555 1_555
Co13 O14 1_555 1_555
Co15 O16 1_555 1_555
O16 Co21 1_555 1_555
C5 C10 1_555 1_555
C8 C9 1_555 1_555
C9 C10 1_555 1_555
C13 C23 1_555 1_555
C25 C35 1_555 1_555
C32 C33 1_555 1_555
C33 C34 1_555 1_555
C37 N1 1_555 1_555
C38 N1 1_555 1_555
C39 N3 1_555 1_555
N2 N3 1_555 1_555
H39 C53 1_555 1_555
O24 C78 1_555 1_555
O25 C78 1_555 1_555
H54 C69 1_555 1_555
C70 C69 1_555 1_555
C71 H55 1_555 1_555
C72 C71 1_555 1_555
H56 C72 1_555 1_555
C73 C72 1_555 1_555
H57 C73 1_555 1_555
C76 C70 1_555 1_555
C78 C70 1_555 1_555
Co11 O24 1_555 1_555
Co21 O25 1_555 1_555
C71 C76 1_555 1_555
C75 C76 1_555 1_555
O39 C24 1_555 1_555
O41 C24 1_555 1_555
H14 C15 1_555 1_555
C16 C15 1_555 1_555
C17 H15 1_555 1_555
C18 C17 1_555 1_555
H16 C18 1_555 1_555
C19 C18 1_555 1_555
H17 C19 1_555 1_555
C22 C16 1_555 1_555
C24 C16 1_555 1_555
H31 C44 1_555 1_555
C17 C22 1_555 1_555
C21 C22 1_555 1_555
C46 H33 1_555 1_555
C47 H34 1_555 1_555
C48 H35 1_555 1_555
H36 C48 1_555 1_555
C49 C48 1_555 1_555
C50 C49 1_555 1_555
H37 C50 1_555 1_555
C51 C50 1_555 1_555
C54 C49 1_555 1_555
H40 C54 1_555 1_555
N4 C46 1_555 1_555
N5 C46 1_555 1_555
N6 C47 1_555 1_555
Co11 O18 1_555 1_555
Co6 O19 1_555 1_555
Co7 N4 1_555 1_555
Co21 O31 1_555 1_555
O18 C65 1_555 1_555
O19 Co7 1_555 1_555
O20 C66 1_555 1_555
O21 C66 1_555 1_555
O22 Co11 1_555 1_555
O23 C77 1_555 1_555
O26 Co7 1_555 1_555
O44 C89 1_555 1_555
O30 Co11 1_555 1_555
H41 O30 1_555 1_555
H42 O30 1_555 1_555
O31 Co11 1_555 1_555
H43 O31 1_555 1_555
O32 Co6 1_555 1_555
O50 Co6 1_555 1_555
H44 O50 1_555 1_555
O34 Co7 1_555 1_555
H45 O34 1_555 1_555
H46 O34 1_555 1_555
C55 C56 1_555 1_555
C56 H47 1_555 1_555
C57 C56 1_555 1_555
H48 C57 1_555 1_555
C58 C57 1_555 1_555
C59 H49 1_555 1_555
C60 C59 1_555 1_555
H50 C60 1_555 1_555
C61 C60 1_555 1_555
H51 C61 1_555 1_555
C62 C61 1_555 1_555
H52 C62 1_555 1_555
C63 C55 1_555 1_555
C64 C58 1_555 1_555
C65 O19 1_555 1_555
C66 C58 1_555 1_555
C67 C68 1_555 1_555
C68 H53 1_555 1_555
H58 C74 1_555 1_555
C77 O22 1_555 1_555
C79 C80 1_555 1_555
C80 H59 1_555 1_555
C81 C80 1_555 1_555
H60 C81 1_555 1_555
C82 C81 1_555 1_555
C85 C84 1_555 1_555
H63 C85 1_555 1_555
C86 C85 1_555 1_555
H64 C86 1_555 1_555
C87 C79 1_555 1_555
C88 C82 1_555 1_555
C89 O26 1_555 1_555
Co12 O21 1_555 1_555
Co22 O20 1_555 1_555
O36 Co21 1_555 1_555
O38 Co11 1_555 1_555
O46 Co6 1_555 1_555
O48 Co7 1_555 1_555
C47 N4 1_555 1_555
C48 N6 1_555 1_555
C51 C52 1_555 1_555
N5 N6 1_555 1_555
Co6 O22 1_555 1_555
Co6 O31 1_555 1_555
Co7 O50 1_555 1_555
C55 C65 1_555 1_555
C59 C64 1_555 1_555
C62 C63 1_555 1_555
C63 C64 1_555 1_555
C67 C77 1_555 1_555
C79 C89 1_555 1_555
C86 C87 1_555 1_555
C87 C88 1_555 1_555
O46 C90 1_555 1_555
O48 C90 1_555 1_555
C83 H61 1_555 1_555
O28 C90_2 1_555 1_555
O29 C90_2 1_555 1_555
Co14 O28 1_555 1_555
Co16 O29 1_555 1_555
O7 C24_2 1_555 1_555
O8 C24_2 1_555 1_555
H14_2 C15_2 1_555 1_555
C16_2 C15_2 1_555 1_555
C24_2 C16_2 1_555 1_555
Co10 O7 1_555 1_555
Co19 O8 1_555 1_555
C17_2 H15_2 1_555 1_555
C18_2 C17_2 1_555 1_555
H16_2 C18_2 1_555 1_555
C19_2 C18_2 1_555 1_555
H17_2 C19_2 1_555 1_555
H31_2 C44_2 1_555 1_555
H45_2 O34_2 1_555 1_555
H46_2 O34_2 1_555 1_555
C85_2 C84_2 1_555 1_555
H63_2 C85_2 1_555 1_555
C86_2 C85_2 1_555 1_555
H64_2 C86_2 1_555 1_555
C17_2 C22_2 1_555 1_555
C21_2 C22_2 1_555 1_555
C46_2 H33_2 1_555 1_555
C47_2 H34_2 1_555 1_555
C48_2 H35_2 1_555 1_555
H36_2 C48_2 1_555 1_555
C49_2 C48_2 1_555 1_555
C50_2 C49_2 1_555 1_555
H37_2 C50_2 1_555 1_555
C51_2 C50_2 1_555 1_555
C54_2 C49_2 1_555 1_555
H40_2 C54_2 1_555 1_555
N4_2 C46_2 1_555 1_555
N5_2 C46_2 1_555 1_555
N6_2 C47_2 1_555 1_555
Co14 O19_2 1_555 1_555
Co16 N4_2 1_555 1_555
O18_2 C65_2 1_555 1_555
O19_2 Co16 1_555 1_555
O36 C66_2 1_555 1_555
O38 C66_2 1_555 1_555
O26_2 Co16 1_555 1_555
O27 C89_2 1_555 1_555
O33 Co14 1_555 1_555
C55_2 C56_2 1_555 1_555
C56_2 H47_2 1_555 1_555
C57_2 C56_2 1_555 1_555
H48_2 C57_2 1_555 1_555
C58_2 C57_2 1_555 1_555
C59_2 H49_2 1_555 1_555
C60_2 C59_2 1_555 1_555
H50_2 C60_2 1_555 1_555
C61_2 C60_2 1_555 1_555
H51_2 C61_2 1_555 1_555
C62_2 C61_2 1_555 1_555
H52_2 C62_2 1_555 1_555
C63_2 C55_2 1_555 1_555
C64_2 C58_2 1_555 1_555
C65_2 O19_2 1_555 1_555
C66_2 C58_2 1_555 1_555
H58_2 C74_2 1_555 1_555
C79_2 C80_2 1_555 1_555
C80_2 H59_2 1_555 1_555
C81_2 C80_2 1_555 1_555
H60_2 C81_2 1_555 1_555
C82_2 C81_2 1_555 1_555
C87_2 C79_2 1_555 1_555
C88_2 C82_2 1_555 1_555
C89_2 O26_2 1_555 1_555
C47_2 N4_2 1_555 1_555
C48_2 N6_2 1_555 1_555
C51_2 C52_2 1_555 1_555
N5_2 N6_2 1_555 1_555
Co16 O33 1_555 1_555
C55_2 C65_2 1_555 1_555
C59_2 C64_2 1_555 1_555
C62_2 C63_2 1_555 1_555
C63_2 C64_2 1_555 1_555
C79_2 C89_2 1_555 1_555
C87_2 C88_2 1_555 1_555
Co22 O31_2 1_555 1_555
O22_2 Co12 1_555 1_555
O23_2 C77_2 1_555 1_555
O30_2 Co12 1_555 1_555
H41_2 O30_2 1_555 1_555
H42_2 O30_2 1_555 1_555
O31_2 Co12 1_555 1_555
C67_2 C68_2 1_555 1_555
C68_2 H53_2 1_555 1_555
C77_2 O22_2 1_555 1_555
O40 Co12 1_555 1_555
O42 Co22 1_555 1_555
C67_2 C77_2 1_555 1_555
Co19 O14_2 1_555 1_555
O5_2 Co10 1_555 1_555
O6_2 C23_2 1_555 1_555
O13_2 Co10 1_555 1_555
H1_2 O13_2 1_555 1_555
H2_2 O13_2 1_555 1_555
O14_2 Co10 1_555 1_555
C13_2 C14_2 1_555 1_555
C14_2 H13_2 1_555 1_555
C23_2 O5_2 1_555 1_555
C13_2 C23_2 1_555 1_555
Co2 O2_2 1_555 1_555
Co3 O2_2 1_555 1_555
O1_2 C11_2 1_555 1_555
O2_2 C11_2 1_555 1_555
O35 C12_2 1_555 1_555
O37 C12_2 1_555 1_555
O9_2 Co3 1_555 1_555
O43 C35_2 1_555 1_555
O49 Co2 1_555 1_555
C1_2 C2_2 1_555 1_555
C2_2 H7_2 1_555 1_555
C3_2 C2_2 1_555 1_555
H8_2 C3_2 1_555 1_555
C4_2 C3_2 1_555 1_555
C5_2 H9_2 1_555 1_555
C6_2 C5_2 1_555 1_555
H10_2 C6_2 1_555 1_555
C7_2 C6_2 1_555 1_555
H11_2 C7_2 1_555 1_555
C8_2 C7_2 1_555 1_555
H12_2 C8_2 1_555 1_555
C9_2 C1_2 1_555 1_555
C10_2 C4_2 1_555 1_555
C11_2 C1_2 1_555 1_555
C12_2 C4_2 1_555 1_555
H18_2 C20_2 1_555 1_555
C25_2 C26_2 1_555 1_555
C26_2 H19_2 1_555 1_555
C27_2 C26_2 1_555 1_555
H20_2 C27_2 1_555 1_555
C28_2 C27_2 1_555 1_555
C33_2 C25_2 1_555 1_555
C34_2 C28_2 1_555 1_555
C35_2 O9_2 1_555 1_555
C37_2 H25_2 1_555 1_555
C38_2 H26_2 1_555 1_555
C39_2 H27_2 1_555 1_555
H28_2 C39_2 1_555 1_555
C40_2 C39_2 1_555 1_555
C41_2 C40_2 1_555 1_555
H29_2 C41_2 1_555 1_555
C42_2 C41_2 1_555 1_555
C43_2 C42_2 1_555 1_555
C45_2 C40_2 1_555 1_555
H32_2 C45_2 1_555 1_555
N1_2 Co3 1_555 1_555
N2_2 C37_2 1_555 1_555
N3_2 C38_2 1_555 1_555
O45 Co2 1_555 1_555
O47 Co3 1_555 1_555
Co3 O49 1_555 1_555
C5_2 C10_2 1_555 1_555
C8_2 C9_2 1_555 1_555
C9_2 C10_2 1_555 1_555
C25_2 C35_2 1_555 1_555
C33_2 C34_2 1_555 1_555
C37_2 N1_2 1_555 1_555
C38_2 N1_2 1_555 1_555
C39_2 N3_2 1_555 1_555
N2_2 N3_2 1_555 1_555
H5_2 O17_2 1_555 1_555
H6_2 O17_2 1_555 1_555
C31_2 C30_2 1_555 1_555
H23_2 C31_2 1_555 1_555
C32_2 C31_2 1_555 1_555
H24_2 C32_2 1_555 1_555
H39_2 C53_2 1_555 1_555
C71_2 H55_2 1_555 1_555
C72_2 C71_2 1_555 1_555
H56_2 C72_2 1_555 1_555
C73_2 C72_2 1_555 1_555
H57_2 C73_2 1_555 1_555
C71_2 C76_2 1_555 1_555
C75_2 C76_2 1_555 1_555
O40 C78_2 1_555 1_555
O42 C78_2 1_555 1_555
H54_2 C69_2 1_555 1_555
C70_2 C69_2 1_555 1_555
C78_2 C70_2 1_555 1_555
O45 C36_2 1_555 1_555
O47 C36_2 1_555 1_555
C83_2 H61_2 1_555 1_555
C29_2 H21_2 1_555 1_555

#END
