
###############################################################################
#
# This file contains modified crystal structure data generated from the
# MOF subset of the Cambridge Structural Database (CSD) v543 
# hosted by the Cambridge Crystallographic Data Centre (CCDC).
#
# This work is licensed under the Creative Commons
# Attribution-NonCommercial-ShareAlike 4.0 International License.
# To view a copy of this license, visit
# http://creativecommons.org/licenses/by-nc-sa/4.0/
# or send a letter to
# Creative Commons, PO Box 1866, Mountain View, CA 94042, USA.
#
# CIF created using the CSD Python API on 29 September 2022
# The structure has been converted into the P1 space group
# The structure has a 3D framework
# The original CSD entry WIRKOZ is in the rhombohedral crystal system
# The framework has been calculated to contain at least 10.0% void space
# The void calculation uses a probe of radius 1.32A, grid spacing 0.4
#
###############################################################################

data_WIRKOZ
_chemical_formula_moiety         '(C2592 H1728 O460 Zn88)n'
_symmetry_cell_setting           triclinic
_symmetry_space_group_name_H-M   'P 1'
_symmetry_Int_Tables_number      1
_space_group_name_Hall           'P 1'
loop_
_symmetry_equiv_pos_site_id
_symmetry_equiv_pos_as_xyz
1 x,y,z
_cell_length_a                   33.48(2)
_cell_length_b                   33.48(2)
_cell_length_c                   105.59(7)
_cell_angle_alpha                90
_cell_angle_beta                 90
_cell_angle_gamma                120
_cell_volume                     102500
loop_
_atom_site_label
_atom_site_type_symbol
_atom_site_fract_x
_atom_site_fract_y
_atom_site_fract_z
C41 C 0.0137(8) 0.6999(7) 0.11726(17)
C43 C 0.0201(9) 0.6522(7) 0.10137(19)
C51 C 0.0586(10) 0.7217(9) 0.1186(2)
H23 H 0.0055 0.6265 0.0958
C53 C 0.0667(9) 0.6753(8) 0.1019(2)
C59 C 0.0844(8) 0.7081(9) 0.1112(2)
H33 H 0.0734 0.7465 0.1244
H35 H 0.0854 0.6694 0.0963
H39 H 0.1166 0.7226 0.1128
C68 C 0.0073(7) 0.8584(6) 0.15779(16)
H48 H 0.0287 0.8540 0.1626
C72 C 0.0154(9) 0.9184(11) 0.1719(2)
O40 O 0.0422(4) 0.9147(8) 0.17815(9)
Zn10 Zn 0.07243(6) 0.96407(8) 0.190068(14)
C19 C 0.0245(7) 0.5055(5) 0.95893(15)
H13 H 0.0235 0.4829 0.9646
C23 C 0.0603(6) 0.5272(5) 0.95016(16)
C24 C 0.0169(7) 0.5582(7) 0.93991(17)
H15 H 0.0879 0.5259 0.9511
C29 C 0.0544(6) 0.5515(7) 0.93969(17)
C30 C 0.0086(7) 0.5880(8) 0.93026(19)
O11 O 0.0866(4) 0.5725(4) 0.93094(10)
H19 H 0.0338 0.6035 0.9238
C38 C 0.0002(7) 0.6201(10) 0.9376(2)
C45 C 0.1200(6) 0.5645(5) 0.93005(11)
C47 C 0.0237(9) 0.6629(12) 0.93583(19)
H25 H 0.1069 0.5309 0.9289
H26 H 0.1368 0.5729 0.9382
C55 C 0.1543(5) 0.5890(5) 0.91969(11)
H28 H 0.0478 0.6750 0.9297
C57 C 0.0139(9) 0.6937(9) 0.9430(2)
C61 C 0.1428(5) 0.6103(5) 0.91042(13)
C62 C 0.1979(5) 0.5922(4) 0.91853(12)
H38 H 0.0280 0.7259 0.9414
H41 H 0.1140 0.6092 0.9110
C65 C 0.1714(5) 0.6335(4) 0.90009(11)
C66 C 0.2248(4) 0.6146(5) 0.90838(13)
H42 H 0.2083 0.5790 0.9248
H45 H 0.1618 0.6467 0.8937
C69 C 0.2153(5) 0.6366(4) 0.89959(11)
H46 H 0.2529 0.6143 0.9075
C71 C 0.2473(5) 0.6635(8) 0.88920(11)
O38 O 0.2788(3) 0.6540(5) 0.88722(7)
O39 O 0.2421(6) 0.6927(3) 0.88338(7)
Zn8 Zn 0.3334 0.6666 0.87552(3)
Zn9 Zn 0.28890(8) 0.73454(6) 0.872952(14)
Zn1 Zn 0.77898(6) 0.40121(6) 0.039619(14)
O1 O 0.7222(3) 0.3817(2) 0.03097(6)
O2 O 0.8257(3) 0.4185(3) 0.02634(8)
O3 O 0.7964(3) 0.4551(4) 0.04914(8)
O4 O 0.7840(5) 0.3594(3) 0.05005(7)
Zn2 Zn 0.73910(6) 0.44170(6) 0.023401(14)
Zn3 Zn 0.6667 0.3333 0.04219(3)
C1 C 0.8223(6) 0.4413(5) 0.01729(15)
C2 C 0.7857(6) 0.4865(5) 0.04567(14)
O5 O 0.7958(4) 0.4559(3) 0.01466(8)
O6 O 0.7597(3) 0.4855(3) 0.03682(8)
O7 O 0.7089(4) 0.4609(7) 0.01148(9)
O8 O 0.6793(5) 0.3879(3) 0.05389(7)
C3 C 0.8594(6) 0.4508(5) 0.00707(12)
C4 C 0.8047(5) 0.5281(6) 0.05462(13)
C6 C 0.8915(5) 0.4382(5) 0.00822(13)
C7 C 0.8330(4) 0.5336(4) 0.06569(14)
C8 C 0.8012(5) 0.5657(6) 0.05127(12)
H2 H 0.8908 0.4219 0.0157
C11 C 0.8518(5) 0.5731(6) 0.07317(14)
H3 H 0.8388 0.5094 0.0679
H4 H 0.7872 0.5660 0.0435
C12 C 0.8188(6) 0.6050(5) 0.05963(16)
H6 H 0.9479 0.4380 0.0010
C14 C 0.8435(6) 0.6079(6) 0.07022(14)
H7 H 0.8703 0.5758 0.0803
H8 H 0.8131 0.6294 0.0577
C16 C 0.8588(6) 0.6498(5) 0.07836(14)
H11 H 0.8757 0.6781 0.0732
H12 H 0.8317 0.6496 0.0822
O10 O 0.8875(4) 0.6489(4) 0.08787(11)
C18 C 0.9077(6) 0.6855(7) 0.09548(16)
C21 C 0.8968(6) 0.7196(7) 0.09558(14)
C22 C 0.9312(7) 0.6800(7) 0.10635(18)
C26 C 0.9184(6) 0.7554(6) 0.10500(19)
H14 H 0.8757 0.7198 0.0896
C27 C 0.9526(7) 0.7141(7) 0.11521(18)
C28 C 0.9434(7) 0.6436(6) 0.10815(17)
C33 C 0.9455(8) 0.7498(10) 0.1154(2)
H17 H 0.9154 0.7821 0.1046
C34 C 0.9826(7) 0.7112(6) 0.12437(17)
H18 H 0.9287 0.6184 0.1017
C35 C 0.9921(8) 0.6639(7) 0.10855(18)
C36 C 0.9251(6) 0.6268(7) 0.12191(17)
O12 O 0.9626(4) 0.7869(5) 0.12418(11)
H20 H 0.9988 0.7388 0.1300
C42 C 0.9477(6) 0.6660(7) 0.13138(18)
C44 C 0.8952(6) 0.5823(7) 0.12564(19)
C50 C 0.9445(7) 0.8157(7) 0.12557(17)
C52 C 0.9368(6) 0.6555(7) 0.14378(16)
H24 H 0.8812 0.5579 0.1197
C54 C 0.8861(6) 0.5744(7) 0.13864(18)
H31 H 0.9104 0.7974 0.1260
H32 H 0.9532 0.8370 0.1183
C58 C 0.9634(7) 0.8418(7) 0.1373(2)
C60 C 0.9057(7) 0.6132(7) 0.14751(17)
H34 H 0.9518 0.6790 0.1500
H36 H 0.8673 0.5439 0.1417
C63 C 0.9527(7) 0.8770(8) 0.1412(2)
C64 C 0.9852(8) 0.8314(7) 0.1458(2)
H40 H 0.8960 0.6081 0.1561
H43 H 0.9358 0.8865 0.1360
C67 C 0.9690(7) 0.8960(6) 0.15328(17)
H44 H 0.9874 0.8045 0.1444
H47 H 0.9598 0.9172 0.1560
C70 C 0.9942(7) 0.8897(6) 0.16117(15)
O13 O 0.9934(4) 0.9365(6) 0.17579(8)
O14 O 0.6183(2) 0.3405(4) 0.03097(6)
O15 O 0.6595(4) 0.2778(3) 0.03097(6)
O16 O 0.7086(6) 0.3207(5) 0.05389(7)
O17 O 0.6121(3) 0.2914(6) 0.05389(7)
Zn4 Zn 0.59879(6) 0.37777(8) 0.039619(14)
Zn5 Zn 0.55830(6) 0.29740(8) 0.023401(14)
Zn6 Zn 0.62223(8) 0.22102(6) 0.039619(14)
Zn7 Zn 0.70260(8) 0.26090(6) 0.023401(14)
O18 O 0.5815(3) 0.4072(4) 0.02634(8)
O19 O 0.5449(4) 0.3413(5) 0.04914(8)
O20 O 0.6406(3) 0.4246(6) 0.05005(7)
O21 O 0.5441(3) 0.3399(5) 0.01466(8)
O22 O 0.5145(3) 0.2742(4) 0.03682(8)
O23 O 0.5391(7) 0.2480(8) 0.01148(9)
O24 O 0.5928(4) 0.1743(3) 0.02634(8)
O25 O 0.6587(5) 0.2036(3) 0.04914(8)
O26 O 0.5754(6) 0.2160(5) 0.05005(7)
O27 O 0.6601(5) 0.2042(4) 0.01466(8)
O28 O 0.7258(4) 0.2403(3) 0.03682(8)
O29 O 0.7520(8) 0.2911(4) 0.01148(9)
C73 C 0.5587(5) 0.3810(8) 0.01729(15)
C74 C 0.5135(5) 0.2992(8) 0.04567(14)
C75 C 0.6190(8) 0.1777(6) 0.01729(15)
C76 C 0.7008(8) 0.2143(6) 0.04567(14)
C77 C 0.5492(5) 0.4086(8) 0.00707(12)
C78 C 0.4719(6) 0.2766(8) 0.05462(13)
C79 C 0.5914(8) 0.1406(6) 0.00707(12)
C80 C 0.7234(8) 0.1953(5) 0.05462(13)
C82 C 0.5618(5) 0.4533(7) 0.00822(13)
C83 C 0.4664(4) 0.2994(6) 0.06569(14)
C84 C 0.4343(6) 0.2355(8) 0.05127(12)
C86 C 0.5467(7) 0.1085(5) 0.00822(13)
C87 C 0.7006(6) 0.1670(4) 0.06569(14)
C88 C 0.7645(8) 0.1988(5) 0.05127(12)
H50 H 0.5781 0.4689 0.0157
C91 C 0.4269(6) 0.2787(8) 0.07317(14)
H51 H 0.4906 0.3294 0.0679
H52 H 0.4340 0.2212 0.0435
C92 C 0.3950(5) 0.2138(8) 0.05963(16)
H54 H 0.5311 0.1092 0.0157
C95 C 0.7213(8) 0.1482(5) 0.07317(14)
H55 H 0.6706 0.1612 0.0679
H56 H 0.7788 0.2128 0.0435
C96 C 0.7862(8) 0.1812(6) 0.05963(16)
H58 H 0.5620 0.5099 0.0010
C98 C 0.3921(6) 0.2356(8) 0.07022(14)
H59 H 0.4242 0.2945 0.0803
H60 H 0.3706 0.1837 0.0577
H62 H 0.4901 0.0521 0.0010
C100 C 0.7644(8) 0.1565(6) 0.07022(14)
H63 H 0.7055 0.1297 0.0803
H64 H 0.8163 0.1869 0.0577
C102 C 0.3502(5) 0.2090(8) 0.07836(14)
C104 C 0.7910(8) 0.1412(6) 0.07836(14)
H67 H 0.3219 0.1976 0.0732
H68 H 0.3504 0.1821 0.0822
O31 O 0.3511(4) 0.2386(6) 0.08787(11)
H71 H 0.8024 0.1243 0.0732
H72 H 0.8179 0.1683 0.0822
O33 O 0.7614(6) 0.1125(4) 0.08787(11)
C106 C 0.3145(7) 0.2222(9) 0.09548(16)
C108 C 0.7778(9) 0.0923(6) 0.09548(16)
C111 C 0.2804(7) 0.1772(9) 0.09558(14)
C112 C 0.3200(7) 0.2512(10) 0.10635(18)
C115 C 0.8228(9) 0.1032(6) 0.09558(14)
C116 C 0.7488(10) 0.0688(7) 0.10635(18)
C120 C 0.2446(6) 0.1630(8) 0.10500(19)
H74 H 0.2802 0.1559 0.0896
C121 C 0.2859(7) 0.2385(10) 0.11521(18)
C122 C 0.3564(6) 0.2998(9) 0.10815(17)
C126 C 0.8370(8) 0.0816(6) 0.10500(19)
H76 H 0.8441 0.1243 0.0896
C127 C 0.7615(10) 0.0474(7) 0.11521(18)
C128 C 0.7002(9) 0.0566(7) 0.10815(17)
C133 C 0.2502(10) 0.1957(13) 0.1154(2)
H79 H 0.2179 0.1333 0.1046
C134 C 0.2888(6) 0.2714(9) 0.12437(17)
H80 H 0.3816 0.3103 0.1017
C135 C 0.3361(7) 0.3282(11) 0.10855(18)
C136 C 0.3732(7) 0.2983(9) 0.12191(17)
C141 C 0.8043(13) 0.0545(8) 0.1154(2)
H83 H 0.8667 0.0846 0.1046
C142 C 0.7286(9) 0.0174(7) 0.12437(17)
H84 H 0.6897 0.0713 0.1017
C143 C 0.6718(11) 0.0079(8) 0.10855(18)
C144 C 0.7017(9) 0.0749(6) 0.12191(17)
O35 O 0.2131(5) 0.1757(6) 0.12418(11)
H86 H 0.2612 0.2600 0.1300
C149 C 0.3001(7) 0.3138(11) 0.11726(17)
C150 C 0.3340(7) 0.2817(9) 0.13138(18)
C151 C 0.3478(7) 0.3679(11) 0.10137(19)
C152 C 0.4177(7) 0.3129(9) 0.12564(19)
O37 O 0.8243(6) 0.0374(4) 0.12418(11)
H88 H 0.7400 0.0012 0.1300
C158 C 0.7183(9) 0.0523(6) 0.13138(18)
C160 C 0.6871(9) 0.1048(6) 0.12564(19)
C166 C 0.1843(7) 0.1288(10) 0.12557(17)
C167 C 0.2783(9) 0.3369(13) 0.1186(2)
C168 C 0.3445(7) 0.2813(9) 0.14378(16)
H91 H 0.3735 0.3790 0.0958
C169 C 0.3247(8) 0.3914(12) 0.1019(2)
H92 H 0.4421 0.3233 0.1197
C170 C 0.4256(7) 0.3117(9) 0.13864(18)
C176 C 0.8712(10) 0.0555(7) 0.12557(17)
C178 C 0.7187(9) 0.0632(6) 0.14378(16)
H96 H 0.6767 0.1188 0.1197
C180 C 0.6883(9) 0.1139(6) 0.13864(18)
H103 H 0.2026 0.1130 0.1260
H104 H 0.1630 0.1162 0.1183
C184 C 0.1582(7) 0.1216(10) 0.1373(2)
C185 C 0.2919(9) 0.3763(12) 0.1112(2)
H105 H 0.2535 0.3269 0.1244
C186 C 0.3868(7) 0.2925(10) 0.14751(17)
H106 H 0.3210 0.2728 0.1500
H107 H 0.3306 0.4160 0.0963
H108 H 0.4561 0.3234 0.1417
H115 H 0.8870 0.0896 0.1260
H116 H 0.8838 0.0468 0.1183
C190 C 0.8784(10) 0.0366(7) 0.1373(2)
C192 C 0.7075(10) 0.0943(7) 0.14751(17)
H118 H 0.7272 0.0482 0.1500
H120 H 0.6766 0.1327 0.1417
C195 C 0.1230(8) 0.0757(11) 0.1412(2)
C196 C 0.1686(7) 0.1538(11) 0.1458(2)
H123 H 0.2774 0.3940 0.1128
H124 H 0.3919 0.2879 0.1561
C199 C 0.9243(11) 0.0473(7) 0.1412(2)
C200 C 0.8462(11) 0.0148(8) 0.1458(2)
H128 H 0.7121 0.1040 0.1561
H131 H 0.1135 0.0493 0.1360
C203 C 0.1040(6) 0.0730(9) 0.15328(17)
C204 C 0.1416(6) 0.1489(9) 0.15779(16)
H132 H 0.1955 0.1829 0.1444
H135 H 0.9507 0.0642 0.1360
C207 C 0.9270(9) 0.0310(7) 0.15328(17)
H136 H 0.8171 0.0126 0.1444
H139 H 0.0828 0.0426 0.1560
C210 C 0.1103(6) 0.1045(9) 0.16117(15)
H140 H 0.1460 0.1747 0.1626
H143 H 0.9574 0.0402 0.1560
C212 C 0.8955(9) 0.0058(7) 0.16117(15)
C214 C 0.0816(11) 0.0970(14) 0.1719(2)
O43 O 0.0853(8) 0.1276(7) 0.17815(9)
O44 O 0.0635(6) 0.0569(7) 0.17579(8)
O48 O 0.9431(7) 0.0066(4) 0.17579(8)
Zn13 Zn 0.03593(8) 0.10837(6) 0.190068(14)
C5 C 0.8618(5) 0.4749(5) 0.99556(15)
C9 C 0.8942(7) 0.4836(6) 0.98717(15)
H1 H 0.8400 0.4845 0.9940
C10 C 0.9256(5) 0.4470(5) 0.99940(16)
C13 C 0.9268(6) 0.4691(6) 0.98817(16)
H5 H 0.8957 0.5011 0.9799
C15 C 0.9603(6) 0.4751(6) 0.97818(15)
H9 H 0.9921 0.4941 0.9814
H10 H 0.9559 0.4446 0.9757
O9 O 0.9539(4) 0.4965(4) 0.96774(13)
C17 C 0.9903(7) 0.5177(6) 0.95921(17)
C20 C 0.9818(7) 0.5381(7) 0.94822(18)
C25 C 0.9438(8) 0.5469(9) 0.9458(2)
H16 H 0.9182 0.5313 0.9521
C31 C 0.9290(9) 0.5338(9) 0.9335(3)
C32 C 0.9665(7) 0.5976(10) 0.9465(2)
C37 C 0.9618(9) 0.5532(7) 0.9245(2)
C39 C 0.8846(10) 0.5037(10) 0.9294(3)
C40 C 0.9542(9) 0.6233(10) 0.9545(2)
C46 C 0.9493(9) 0.5407(8) 0.9105(3)
C48 C 0.8777(10) 0.4917(11) 0.9140(3)
H21 H 0.8593 0.4906 0.9351
C49 C 0.9782(9) 0.6686(10) 0.9536(2)
H22 H 0.9295 0.6085 0.9604
H27 H 0.9725 0.5550 0.9042
C56 C 0.9058(10) 0.5096(10) 0.9070(3)
H29 H 0.8483 0.4685 0.9111
H30 H 0.9733 0.6865 0.9597
H37 H 0.8992 0.5029 0.8983
C81 C 0.5251(5) 0.3869(7) 0.99556(15)
C85 C 0.6131(7) 0.1382(5) 0.99556(15)
C89 C 0.5164(6) 0.4106(9) 0.98717(15)
H49 H 0.5155 0.3555 0.9940
C90 C 0.5530(5) 0.4786(7) 0.99940(16)
C93 C 0.5894(9) 0.1058(7) 0.98717(15)
H53 H 0.6445 0.1600 0.9940
C94 C 0.5214(7) 0.0744(5) 0.99940(16)
C97 C 0.5309(6) 0.4577(8) 0.98817(16)
H57 H 0.4989 0.3946 0.9799
C99 C 0.5423(8) 0.0732(6) 0.98817(16)
H61 H 0.6054 0.1043 0.9799
C101 C 0.5249(6) 0.4852(8) 0.97818(15)
C103 C 0.5148(8) 0.0397(6) 0.97818(15)
H65 H 0.5059 0.4980 0.9814
H66 H 0.5554 0.5113 0.9757
O30 O 0.5035(4) 0.4574(6) 0.96774(13)
H69 H 0.5020 0.0079 0.9814
H70 H 0.4887 0.0441 0.9757
O32 O 0.5426(6) 0.0461(4) 0.96774(13)
C105 C 0.4823(6) 0.4726(9) 0.95921(17)
C107 C 0.5274(9) 0.0097(7) 0.95921(17)
C109 C 0.4945(5) 0.5190(9) 0.95893(15)
C110 C 0.4619(7) 0.4437(10) 0.94822(18)
C114 C 0.5563(10) 0.0182(7) 0.94822(18)
H73 H 0.5171 0.5406 0.9646
C117 C 0.4728(5) 0.5331(8) 0.95016(16)
C118 C 0.4418(7) 0.4587(10) 0.93991(17)
C119 C 0.4531(9) 0.3969(12) 0.9458(2)
C125 C 0.6031(12) 0.0562(8) 0.9458(2)
H77 H 0.4741 0.5620 0.9511
C129 C 0.4485(7) 0.5029(9) 0.93969(17)
C130 C 0.4120(8) 0.4206(11) 0.93026(19)
H78 H 0.4687 0.3869 0.9521
C131 C 0.4662(9) 0.3952(13) 0.9335(3)
C132 C 0.4024(10) 0.3689(12) 0.9465(2)
H82 H 0.6131 0.0818 0.9521
C139 C 0.6048(13) 0.0710(9) 0.9335(3)
C140 C 0.6311(12) 0.0335(7) 0.9465(2)
O34 O 0.4275(4) 0.5141(6) 0.93094(10)
H85 H 0.3965 0.4303 0.9238
C145 C 0.4468(7) 0.4086(11) 0.9245(2)
C146 C 0.3799(10) 0.3801(12) 0.9376(2)
C147 C 0.4963(10) 0.3809(14) 0.9294(3)
C148 C 0.3767(10) 0.3309(13) 0.9545(2)
C153 C 0.5914(11) 0.0382(9) 0.9245(2)
C155 C 0.6191(14) 0.1154(10) 0.9294(3)
C156 C 0.6691(13) 0.0458(9) 0.9545(2)
C161 C 0.4355(5) 0.5555(8) 0.93005(11)
C162 C 0.4593(8) 0.4086(12) 0.9105(3)
C163 C 0.3371(12) 0.3608(15) 0.93583(19)
C164 C 0.5083(11) 0.3860(15) 0.9140(3)
H89 H 0.5094 0.3687 0.9351
C165 C 0.3314(10) 0.3096(13) 0.9536(2)
H90 H 0.3915 0.3210 0.9604
C172 C 0.5914(12) 0.0507(9) 0.9105(3)
C174 C 0.6140(15) 0.1223(10) 0.9140(3)
H93 H 0.6313 0.1407 0.9351
C175 C 0.6904(13) 0.0218(9) 0.9536(2)
H94 H 0.6790 0.0705 0.9604
H97 H 0.4691 0.5760 0.9289
H98 H 0.4271 0.5639 0.9382
C181 C 0.4110(5) 0.5653(7) 0.91969(11)
H99 H 0.4450 0.4175 0.9042
C182 C 0.4904(10) 0.3962(14) 0.9070(3)
H100 H 0.3250 0.3728 0.9297
C183 C 0.3063(9) 0.3202(13) 0.9430(2)
H101 H 0.5315 0.3798 0.9111
H102 H 0.3135 0.2868 0.9597
H111 H 0.5825 0.0275 0.9042
C188 C 0.6038(14) 0.0942(10) 0.9070(3)
H113 H 0.6202 0.1517 0.9111
H114 H 0.7132 0.0267 0.9597
C193 C 0.3897(5) 0.5325(7) 0.91042(13)
C194 C 0.4078(4) 0.6057(6) 0.91853(12)
H121 H 0.4971 0.3963 0.8983
H122 H 0.2741 0.3021 0.9414
H125 H 0.6037 0.1008 0.8983
H129 H 0.3908 0.5048 0.9110
C201 C 0.3665(4) 0.5379(6) 0.90009(11)
C202 C 0.3854(5) 0.6102(6) 0.90838(13)
H130 H 0.4210 0.6293 0.9248
H137 H 0.3533 0.5151 0.8937
C209 C 0.3634(4) 0.5787(6) 0.89959(11)
H138 H 0.3857 0.6386 0.9075
C213 C 0.3365(8) 0.5838(9) 0.88920(11)
O41 O 0.3460(5) 0.6247(6) 0.88722(7)
O42 O 0.3073(3) 0.5493(5) 0.88338(7)
Zn12 Zn 0.26546(6) 0.55435(6) 0.872952(14)
C157 C 0.6862(11) 0.9863(8) 0.11726(17)
C159 C 0.6321(11) 0.9799(9) 0.10137(19)
C177 C 0.6631(13) 0.9414(10) 0.1186(2)
H95 H 0.6210 0.9945 0.0958
C179 C 0.6086(12) 0.9333(9) 0.1019(2)
C191 C 0.6237(12) 0.9156(8) 0.1112(2)
H117 H 0.6731 0.9266 0.1244
H119 H 0.5840 0.9146 0.0963
H127 H 0.6060 0.8834 0.1128
C208 C 0.8511(9) 0.9927(7) 0.15779(16)
H144 H 0.8253 0.9713 0.1626
C216 C 0.9030(14) 0.9846(9) 0.1719(2)
O47 O 0.8724(7) 0.9578(4) 0.17815(9)
Zn16 Zn 0.89163(6) 0.92757(6) 0.190068(14)
C113 C 0.4810(9) 0.9755(7) 0.95893(15)
H75 H 0.4594 0.9765 0.9646
C123 C 0.4669(8) 0.9397(6) 0.95016(16)
C124 C 0.5413(10) 0.9831(7) 0.93991(17)
H81 H 0.4380 0.9121 0.9511
C137 C 0.4971(9) 0.9456(6) 0.93969(17)
C138 C 0.5794(11) 0.9914(7) 0.93026(19)
O36 O 0.4859(6) 0.9134(4) 0.93094(10)
H87 H 0.5697 0.9662 0.9238
C154 C 0.6199(12) 0.9998(7) 0.9376(2)
C171 C 0.4445(8) 0.8800(6) 0.93005(11)
C173 C 0.6392(15) 0.9763(9) 0.93583(19)
H109 H 0.4240 0.8931 0.9289
H110 H 0.4361 0.8632 0.9382
C187 C 0.4347(7) 0.8457(5) 0.91969(11)
H112 H 0.6272 0.9522 0.9297
C189 C 0.6798(13) 0.9861(9) 0.9430(2)
C197 C 0.4675(7) 0.8572(5) 0.91042(13)
C198 C 0.3943(6) 0.8021(5) 0.91853(12)
H126 H 0.6979 0.9720 0.9414
H133 H 0.4952 0.8860 0.9110
C205 C 0.4621(6) 0.8286(5) 0.90009(11)
C206 C 0.3898(6) 0.7752(4) 0.90838(13)
H134 H 0.3707 0.7917 0.9248
H141 H 0.4849 0.8382 0.8937
C211 C 0.4213(6) 0.7847(5) 0.89959(11)
H142 H 0.3614 0.7471 0.9075
C215 C 0.4162(9) 0.7527(5) 0.88920(11)
O45 O 0.3753(6) 0.7212(3) 0.88722(7)
O46 O 0.4507(5) 0.7579(6) 0.88338(7)
Zn15 Zn 0.44565(6) 0.71110(8) 0.872952(14)
Zn8_2 Zn 0.0000 1.0000 0.20886(3)
H11_2 H 0.5424 0.0114 0.4065
C18_2 C 0.5744(6) 0.0188(7) 0.42881(16)
C21_2 C 0.5635(6) 0.0529(7) 0.42891(14)
C22_2 C 0.5979(7) 0.0133(7) 0.43968(18)
C26_2 C 0.5851(6) 0.0887(6) 0.43833(19)
H14_2 H 0.5424 0.0531 0.4229
C27_2 C 0.6193(7) 0.0474(7) 0.44854(18)
C33_2 C 0.6122(8) 0.0831(10) 0.4487(2)
H17_2 H 0.5821 0.1154 0.4379
C34_2 C 0.6493(7) 0.0445(6) 0.45770(17)
O12_2 O 0.6293(4) 0.1202(5) 0.45751(11)
H20_2 H 0.6655 0.0721 0.4633
C41_2 C 0.6804(8) 0.0332(7) 0.45059(17)
C49_2 C 0.6449(9) 0.0019(10) 0.2869(2)
C50_2 C 0.6112(7) 0.1490(7) 0.45890(17)
C51_2 C 0.7253(10) 0.0550(9) 0.4519(2)
C53_2 C 0.7334(9) 0.0086(8) 0.4352(2)
H28_2 H 0.7145 0.0083 0.2630
C57_2 C 0.6806(9) 0.0270(9) 0.2763(2)
H30_2 H 0.6400 0.0198 0.2930
H31_2 H 0.5771 0.1307 0.4593
H32_2 H 0.6199 0.1703 0.4516
C58_2 C 0.6301(7) 0.1751(7) 0.4706(2)
C59_2 C 0.7511(8) 0.0414(9) 0.4445(2)
H33_2 H 0.7401 0.0798 0.4577
H34_2 H 0.6185 0.0123 0.4833
H35_2 H 0.7521 0.0027 0.4296
H38_2 H 0.6947 0.0592 0.2747
C63_2 C 0.6194(7) 0.2103(8) 0.4745(2)
C64_2 C 0.6519(8) 0.1647(7) 0.4791(2)
H39_2 H 0.7833 0.0559 0.4461
H43_2 H 0.6025 0.2198 0.4693
C67_2 C 0.6357(7) 0.2293(6) 0.48661(17)
C68_2 C 0.6740(7) 0.1917(6) 0.49112(16)
H44_2 H 0.6541 0.1378 0.4777
H47_2 H 0.6265 0.2505 0.4893
C70_2 C 0.6609(7) 0.2230(6) 0.49450(15)
H48_2 H 0.6954 0.1873 0.4959
C72_2 C 0.6821(9) 0.2517(11) 0.5052(2)
O13_2 O 0.6601(4) 0.2698(6) 0.50912(8)
O39_2 O 0.9087(6) 0.0261(3) 0.21672(7)
O40_2 O 0.7089(4) 0.2480(8) 0.51148(9)
Zn9_2 Zn 0.95556(8) 0.06788(6) 0.206286(14)
Zn10_2 Zn 0.73910(6) 0.29740(8) 0.523401(14)
Zn1_2 Zn 0.44565(6) 0.73454(6) 0.372952(14)
O1_2 O 0.3889(3) 0.7150(2) 0.36430(6)
O2_2 O 0.4924(3) 0.7518(3) 0.35967(8)
O3_2 O 0.4631(3) 0.7884(4) 0.38247(8)
O4_2 O 0.4507(5) 0.6927(3) 0.38338(7)
Zn2_2 Zn 0.40577(6) 0.77503(6) 0.356734(14)
Zn3_2 Zn 0.3334 0.6666 0.37552(3)
C1_2 C 0.4890(6) 0.7746(5) 0.35062(15)
C2_2 C 0.4524(6) 0.8198(5) 0.37900(14)
O5_2 O 0.4625(4) 0.7892(3) 0.34799(8)
O6_2 O 0.4264(3) 0.8188(3) 0.37015(8)
O7_2 O 0.3756(4) 0.7942(7) 0.34481(9)
O8_2 O 0.3460(5) 0.7212(3) 0.38722(7)
C3_2 C 0.5261(6) 0.7841(5) 0.34040(12)
C4_2 C 0.4714(5) 0.8614(6) 0.38795(13)
C5_2 C 0.5285(5) 0.8082(5) 0.32889(15)
C6_2 C 0.5582(5) 0.7715(5) 0.34155(13)
C7_2 C 0.4997(4) 0.8669(4) 0.39902(14)
C8_2 C 0.4679(5) 0.8990(6) 0.38460(12)
C9_2 C 0.5609(7) 0.8169(6) 0.32050(15)
H1_2 H 0.5067 0.8178 0.3273
H2_2 H 0.5575 0.7552 0.3490
C10_2 C 0.5923(5) 0.7803(5) 0.33273(16)
C11_2 C 0.5185(5) 0.9064(6) 0.40650(14)
H3_2 H 0.5055 0.8427 0.4012
H4_2 H 0.4539 0.8993 0.3768
C12_2 C 0.4855(6) 0.9383(5) 0.39296(16)
C13_2 C 0.5935(6) 0.8024(6) 0.32150(16)
H5_2 H 0.5624 0.8344 0.3132
H6_2 H 0.6146 0.7713 0.3343
C14_2 C 0.5102(6) 0.9412(6) 0.40355(14)
H7_2 H 0.5370 0.9091 0.4136
H8_2 H 0.4798 0.9627 0.3910
C15_2 C 0.6270(6) 0.8084(6) 0.31151(15)
C16_2 C 0.5255(6) 0.9831(5) 0.41169(14)
H9_2 H 0.6588 0.8274 0.3147
H10_2 H 0.6226 0.7779 0.3090
O9_2 O 0.6206(4) 0.8298(4) 0.30107(13)
H12_2 H 0.4984 0.9829 0.4155
O10_2 O 0.5542(4) 0.9822(4) 0.42120(11)
C17_2 C 0.6570(7) 0.8510(6) 0.29254(17)
C19_2 C 0.6912(7) 0.8388(5) 0.29226(15)
C20_2 C 0.6485(7) 0.8714(7) 0.28155(18)
H13_2 H 0.6902 0.8162 0.2979
C23_2 C 0.7270(6) 0.8605(5) 0.28349(16)
C24_2 C 0.6836(7) 0.8915(7) 0.27324(17)
C25_2 C 0.6105(8) 0.8802(9) 0.2791(2)
C28_2 C 0.6101(7) 0.9769(6) 0.44148(17)
H15_2 H 0.7546 0.8592 0.2844
C29_2 C 0.7211(6) 0.8848(7) 0.27302(17)
C30_2 C 0.6753(7) 0.9213(8) 0.26359(19)
H16_2 H 0.5849 0.8646 0.2854
C31_2 C 0.5957(9) 0.8671(9) 0.2668(3)
C32_2 C 0.6332(7) 0.9309(10) 0.2798(2)
H18_2 H 0.5954 0.9517 0.4350
C35_2 C 0.6588(8) 0.9972(7) 0.44188(18)
C36_2 C 0.5918(6) 0.9601(7) 0.45524(17)
O11_2 O 0.7533(4) 0.9058(4) 0.26427(10)
H19_2 H 0.7005 0.9368 0.2571
C37_2 C 0.6285(9) 0.8865(7) 0.2578(2)
C38_2 C 0.6669(7) 0.9534(10) 0.2709(2)
C39_2 C 0.5513(10) 0.8370(10) 0.2627(3)
C40_2 C 0.6209(9) 0.9566(10) 0.2878(2)
C42_2 C 0.6144(6) 0.9993(7) 0.46471(18)
C43_2 C 0.6868(9) 0.9855(7) 0.43470(19)
C44_2 C 0.5619(6) 0.9156(7) 0.45897(19)
C45_2 C 0.7867(6) 0.8978(5) 0.26338(11)
C46_2 C 0.6160(9) 0.8740(8) 0.2438(3)
C47_2 C 0.6904(9) 0.9962(12) 0.26916(19)
C48_2 C 0.5444(10) 0.8250(11) 0.2473(3)
H21_2 H 0.5260 0.8239 0.2684
H22_2 H 0.5962 0.9418 0.2937
C52_2 C 0.6035(6) 0.9888(7) 0.47711(16)
H23_2 H 0.6722 0.9598 0.4291
H24_2 H 0.5479 0.8912 0.4530
C54_2 C 0.5528(6) 0.9077(7) 0.47197(18)
H25_2 H 0.7736 0.8642 0.2622
H26_2 H 0.8035 0.9062 0.2715
C55_2 C 0.8210(5) 0.9223(5) 0.25302(11)
H27_2 H 0.6392 0.8883 0.2375
C56_2 C 0.5725(10) 0.8429(10) 0.2403(3)
H29_2 H 0.5150 0.8018 0.2444
C60_2 C 0.5724(7) 0.9465(7) 0.48084(17)
H36_2 H 0.5340 0.8772 0.4750
C61_2 C 0.8095(5) 0.9436(5) 0.24375(13)
C62_2 C 0.8646(5) 0.9255(4) 0.25186(12)
H37_2 H 0.5659 0.8362 0.2316
H40_2 H 0.5627 0.9414 0.4894
H41_2 H 0.7807 0.9425 0.2443
C65_2 C 0.8381(5) 0.9668(4) 0.23342(11)
C66_2 C 0.8915(4) 0.9479(5) 0.24171(13)
H42_2 H 0.8750 0.9123 0.2581
H45_2 H 0.8285 0.9800 0.2270
C69_2 C 0.8820(5) 0.9699(4) 0.23292(11)
H46_2 H 0.9196 0.9476 0.2408
C71_2 C 0.9140(5) 0.9968(8) 0.22253(11)
O14_2 O 0.2850(2) 0.6738(4) 0.36430(6)
O15_2 O 0.3262(4) 0.6111(3) 0.36430(6)
O16_2 O 0.3753(6) 0.6540(5) 0.38722(7)
O17_2 O 0.2788(3) 0.6247(6) 0.38722(7)
Zn4_2 Zn 0.26546(6) 0.71110(8) 0.372952(14)
Zn5_2 Zn 0.22497(6) 0.63073(8) 0.356734(14)
Zn6_2 Zn 0.28890(8) 0.55435(6) 0.372952(14)
Zn7_2 Zn 0.36927(8) 0.59423(6) 0.356734(14)
O18_2 O 0.2482(3) 0.7405(4) 0.35967(8)
O19_2 O 0.2116(4) 0.6746(5) 0.38247(8)
O20_2 O 0.3073(3) 0.7579(6) 0.38338(7)
O21_2 O 0.2108(3) 0.6732(5) 0.34799(8)
O22_2 O 0.1812(3) 0.6075(4) 0.37015(8)
O23_2 O 0.2058(7) 0.5813(8) 0.34481(9)
O24_2 O 0.2595(4) 0.5076(3) 0.35967(8)
O25_2 O 0.3254(5) 0.5369(3) 0.38247(8)
O26_2 O 0.2421(6) 0.5493(5) 0.38338(7)
O27_2 O 0.3268(5) 0.5375(4) 0.34799(8)
O28_2 O 0.3925(4) 0.5736(3) 0.37015(8)
O29_2 O 0.4187(8) 0.6244(4) 0.34481(9)
C73_2 C 0.2254(5) 0.7143(8) 0.35062(15)
C74_2 C 0.1802(5) 0.6325(8) 0.37900(14)
C75_2 C 0.2857(8) 0.5110(6) 0.35062(15)
C76_2 C 0.3675(8) 0.5476(6) 0.37900(14)
C77_2 C 0.2159(5) 0.7419(8) 0.34040(12)
C78_2 C 0.1386(6) 0.6099(8) 0.38795(13)
C79_2 C 0.2581(8) 0.4739(6) 0.34040(12)
C80_2 C 0.3901(8) 0.5286(5) 0.38795(13)
C81_2 C 0.1918(5) 0.7202(7) 0.32889(15)
C82_2 C 0.2285(5) 0.7866(7) 0.34155(13)
C83_2 C 0.1331(4) 0.6327(6) 0.39902(14)
C84_2 C 0.1010(6) 0.5688(8) 0.38460(12)
C85_2 C 0.2798(7) 0.4715(5) 0.32889(15)
C86_2 C 0.2134(7) 0.4418(5) 0.34155(13)
C87_2 C 0.3673(6) 0.5003(4) 0.39902(14)
C88_2 C 0.4312(8) 0.5321(5) 0.38460(12)
C89_2 C 0.1831(6) 0.7439(9) 0.32050(15)
H49_2 H 0.1822 0.6888 0.3273
H50_2 H 0.2448 0.8022 0.3490
C90_2 C 0.2197(5) 0.8119(7) 0.33273(16)
C91_2 C 0.0936(6) 0.6120(8) 0.40650(14)
H51_2 H 0.1573 0.6627 0.4012
H52_2 H 0.1007 0.5545 0.3768
C92_2 C 0.0617(5) 0.5471(8) 0.39296(16)
C93_2 C 0.2561(9) 0.4391(7) 0.32050(15)
H53_2 H 0.3112 0.4933 0.3273
H54_2 H 0.1978 0.4425 0.3490
C94_2 C 0.1881(7) 0.4077(5) 0.33273(16)
C95_2 C 0.3880(8) 0.4815(5) 0.40650(14)
H55_2 H 0.3373 0.4945 0.4012
H56_2 H 0.4455 0.5461 0.3768
C96_2 C 0.4529(8) 0.5145(6) 0.39296(16)
C97_2 C 0.1976(6) 0.7910(8) 0.32150(16)
H57_2 H 0.1656 0.7279 0.3132
H58_2 H 0.2287 0.8432 0.3343
C98_2 C 0.0588(6) 0.5689(8) 0.40355(14)
H59_2 H 0.0909 0.6278 0.4136
H60_2 H 0.0373 0.5170 0.3910
C99_2 C 0.2090(8) 0.4065(6) 0.32150(16)
H61_2 H 0.2721 0.4376 0.3132
H62_2 H 0.1568 0.3854 0.3343
C100_2 C 0.4311(8) 0.4898(6) 0.40355(14)
H63_2 H 0.3722 0.4630 0.4136
H64_2 H 0.4830 0.5202 0.3910
C101_2 C 0.1916(6) 0.8185(8) 0.31151(15)
C102_2 C 0.0169(5) 0.5423(8) 0.41169(14)
C103_2 C 0.1815(8) 0.3730(6) 0.31151(15)
C104_2 C 0.4577(8) 0.4745(6) 0.41169(14)
H65_2 H 0.1726 0.8313 0.3147
H66_2 H 0.2221 0.8446 0.3090
O30_2 O 0.1702(4) 0.7907(6) 0.30107(13)
H68_2 H 0.0171 0.5154 0.4155
O31_2 O 0.0178(4) 0.5719(6) 0.42120(11)
H69_2 H 0.1687 0.3412 0.3147
H70_2 H 0.1554 0.3774 0.3090
O32_2 O 0.2093(6) 0.3794(4) 0.30107(13)
H71_2 H 0.4691 0.4576 0.4065
H72_2 H 0.4846 0.5016 0.4155
O33_2 O 0.4281(6) 0.4458(4) 0.42120(11)
C105_2 C 0.1490(6) 0.8059(9) 0.29254(17)
C107_2 C 0.1941(9) 0.3430(7) 0.29254(17)
C108_2 C 0.4445(9) 0.4256(6) 0.42881(16)
C109_2 C 0.1612(5) 0.8523(9) 0.29226(15)
C110_2 C 0.1286(7) 0.7770(10) 0.28155(18)
C113_2 C 0.1477(9) 0.3088(7) 0.29226(15)
C114_2 C 0.2230(10) 0.3515(7) 0.28155(18)
C115_2 C 0.4895(9) 0.4365(6) 0.42891(14)
C116_2 C 0.4155(10) 0.4021(7) 0.43968(18)
H73_2 H 0.1838 0.8739 0.2979
C117_2 C 0.1395(5) 0.8664(8) 0.28349(16)
C118_2 C 0.1085(7) 0.7920(10) 0.27324(17)
C119_2 C 0.1198(9) 0.7302(12) 0.2791(2)
C122_2 C 0.0231(6) 0.6331(9) 0.44148(17)
H75_2 H 0.1261 0.3098 0.2979
C123_2 C 0.1336(8) 0.2730(6) 0.28349(16)
C124_2 C 0.2080(10) 0.3164(7) 0.27324(17)
C125_2 C 0.2698(12) 0.3895(8) 0.2791(2)
C126_2 C 0.5037(8) 0.4149(6) 0.43833(19)
H76_2 H 0.5108 0.4576 0.4229
C127_2 C 0.4282(10) 0.3807(7) 0.44854(18)
C128_2 C 0.3669(9) 0.3899(7) 0.44148(17)
H77_2 H 0.1408 0.8953 0.2844
C129_2 C 0.1152(7) 0.8362(9) 0.27302(17)
C130_2 C 0.0787(8) 0.7539(11) 0.26359(19)
H78_2 H 0.1354 0.7202 0.2854
C131_2 C 0.1329(9) 0.7285(13) 0.2668(3)
C132_2 C 0.0691(10) 0.7022(12) 0.2798(2)
H80_2 H 0.0483 0.6436 0.4350
C135_2 C 0.0028(7) 0.6615(11) 0.44188(18)
C136_2 C 0.0399(7) 0.6316(9) 0.45524(17)
H81_2 H 0.1047 0.2454 0.2844
C137_2 C 0.1638(9) 0.2789(6) 0.27302(17)
C138_2 C 0.2461(11) 0.3247(7) 0.26359(19)
H82_2 H 0.2798 0.4151 0.2854
C139_2 C 0.2715(13) 0.4043(9) 0.2668(3)
C140_2 C 0.2978(12) 0.3668(7) 0.2798(2)
C141_2 C 0.4710(13) 0.3878(8) 0.4487(2)
H83_2 H 0.5334 0.4179 0.4379
C142_2 C 0.3953(9) 0.3507(7) 0.45770(17)
H84_2 H 0.3564 0.4046 0.4350
C143_2 C 0.3385(11) 0.3412(8) 0.44188(18)
C144_2 C 0.3684(9) 0.4082(6) 0.45524(17)
O34_2 O 0.0942(4) 0.8474(6) 0.26427(10)
H85_2 H 0.0632 0.7636 0.2571
C145_2 C 0.1135(7) 0.7419(11) 0.2578(2)
C146_2 C 0.0466(10) 0.7134(12) 0.2709(2)
C147_2 C 0.1630(10) 0.7142(14) 0.2627(3)
C148_2 C 0.0434(10) 0.6642(13) 0.2878(2)
C150_2 C 0.0007(7) 0.6150(9) 0.46471(18)
C151_2 C 0.0145(7) 0.7012(11) 0.43470(19)
C152_2 C 0.0844(7) 0.6462(9) 0.45897(19)
O36_2 O 0.1526(6) 0.2467(4) 0.26427(10)
H87_2 H 0.2364 0.2995 0.2571
C153_2 C 0.2581(11) 0.3715(9) 0.2578(2)
C154_2 C 0.2866(12) 0.3331(7) 0.2709(2)
C155_2 C 0.2858(14) 0.4487(10) 0.2627(3)
C156_2 C 0.3358(13) 0.3791(9) 0.2878(2)
O37_2 O 0.4910(6) 0.3707(4) 0.45751(11)
H88_2 H 0.4067 0.3345 0.4633
C157_2 C 0.3529(11) 0.3196(8) 0.45059(17)
C158_2 C 0.3850(9) 0.3856(6) 0.46471(18)
C159_2 C 0.2988(11) 0.3132(9) 0.43470(19)
C160_2 C 0.3538(9) 0.4381(6) 0.45897(19)
C161_2 C 0.1022(5) 0.8888(8) 0.26338(11)
C162_2 C 0.1260(8) 0.7419(12) 0.2438(3)
C163_2 C 0.0038(12) 0.6941(15) 0.26916(19)
C164_2 C 0.1750(11) 0.7193(15) 0.2473(3)
H89_2 H 0.1761 0.7020 0.2684
H90_2 H 0.0582 0.6543 0.2937
C168_2 C 0.0112(7) 0.6146(9) 0.47711(16)
H91_2 H 0.0402 0.7123 0.4291
H92_2 H 0.1088 0.6566 0.4530
C170_2 C 0.0923(7) 0.6450(9) 0.47197(18)
C171_2 C 0.1112(8) 0.2133(6) 0.26338(11)
C172_2 C 0.2581(12) 0.3840(9) 0.2438(3)
C173_2 C 0.3059(15) 0.3096(9) 0.26916(19)
C174_2 C 0.2807(15) 0.4556(10) 0.2473(3)
H93_2 H 0.2980 0.4740 0.2684
C175_2 C 0.3571(13) 0.3551(9) 0.2869(2)
H94_2 H 0.3457 0.4038 0.2937
C176_2 C 0.5379(10) 0.3888(7) 0.45890(17)
C177_2 C 0.3298(13) 0.2747(10) 0.4519(2)
C178_2 C 0.3854(9) 0.3965(6) 0.47711(16)
H95_2 H 0.2877 0.3278 0.4291
C179_2 C 0.2753(12) 0.2666(9) 0.4352(2)
H96_2 H 0.3434 0.4521 0.4530
C180_2 C 0.3550(9) 0.4472(6) 0.47197(18)
H97_2 H 0.1358 0.9093 0.2622
H98_2 H 0.0938 0.8972 0.2715
C181_2 C 0.0777(5) 0.8986(7) 0.25302(11)
H99_2 H 0.1117 0.7508 0.2375
C182_2 C 0.1571(10) 0.7295(14) 0.2403(3)
H101_2 H 0.1982 0.7131 0.2444
C186_2 C 0.0535(7) 0.6258(10) 0.48084(17)
H108_2 H 0.1228 0.6567 0.4750
H109_2 H 0.0907 0.2264 0.2622
H110_2 H 0.1028 0.1965 0.2715
C187_2 C 0.1014(7) 0.1790(5) 0.25302(11)
H111_2 H 0.2492 0.3608 0.2375
C188_2 C 0.2705(14) 0.4275(10) 0.2403(3)
H112_2 H 0.2939 0.2855 0.2630
C189_2 C 0.3465(13) 0.3194(9) 0.2763(2)
H113_2 H 0.2869 0.4850 0.2444
H114_2 H 0.3799 0.3600 0.2930
H115_2 H 0.5537 0.4229 0.4593
H116_2 H 0.5505 0.3801 0.4516
C190_2 C 0.5451(10) 0.3699(7) 0.4706(2)
C191_2 C 0.2904(12) 0.2489(8) 0.4445(2)
H117_2 H 0.3398 0.2599 0.4577
C192_2 C 0.3742(10) 0.4276(7) 0.48084(17)
H118_2 H 0.3939 0.3815 0.4833
H119_2 H 0.2507 0.2479 0.4296
H120_2 H 0.3433 0.4660 0.4750
C193_2 C 0.0564(5) 0.8658(7) 0.24375(13)
C194_2 C 0.0745(4) 0.9390(6) 0.25186(12)
H121_2 H 0.1638 0.7296 0.2316
H124_2 H 0.0586 0.6212 0.4894
C197_2 C 0.1342(7) 0.1905(5) 0.24375(13)
C198_2 C 0.0610(6) 0.1354(5) 0.25186(12)
H125_2 H 0.2704 0.4341 0.2316
H126_2 H 0.3646 0.3053 0.2747
C199_2 C 0.5910(11) 0.3806(7) 0.4745(2)
C200_2 C 0.5129(11) 0.3481(8) 0.4791(2)
H127_2 H 0.2727 0.2167 0.4461
H128_2 H 0.3788 0.4373 0.4894
O38_2 O 0.9454(3) 0.9874(5) 0.22056(7)
H129_2 H 0.0575 0.8381 0.2443
C201_2 C 0.0332(4) 0.8712(6) 0.23342(11)
C202_2 C 0.0521(5) 0.9435(6) 0.24171(13)
H130_2 H 0.0877 0.9626 0.2581
H133_2 H 0.1619 0.2193 0.2443
C205_2 C 0.1288(6) 0.1619(5) 0.23342(11)
C206_2 C 0.0565(6) 0.1085(4) 0.24171(13)
H134_2 H 0.0374 0.1250 0.2581
H135_2 H 0.6174 0.3975 0.4693
C207_2 C 0.5937(9) 0.3643(7) 0.48661(17)
C208_2 C 0.5178(9) 0.3260(7) 0.49112(16)
H136_2 H 0.4838 0.3459 0.4777
H137_2 H 0.0200 0.8484 0.2270
C209_2 C 0.0301(4) 0.9120(6) 0.23292(11)
H138_2 H 0.0524 0.9719 0.2408
H141_2 H 0.1516 0.1715 0.2270
C211_2 C 0.0880(6) 0.1180(5) 0.23292(11)
H142_2 H 0.0281 0.0804 0.2408
H143_2 H 0.6241 0.3735 0.4893
C212_2 C 0.5622(9) 0.3391(7) 0.49450(15)
H144_2 H 0.4920 0.3046 0.4959
C213_2 C 0.0032(8) 0.9171(9) 0.22253(11)
C215_2 C 0.0829(9) 0.0860(5) 0.22253(11)
C216_2 C 0.5697(14) 0.3179(9) 0.5052(2)
O41_2 O 0.0126(5) 0.9581(6) 0.22056(7)
O45_2 O 0.0419(6) 0.0546(3) 0.22056(7)
O46_2 O 0.1173(5) 0.0913(6) 0.21672(7)
O47_2 O 0.5391(7) 0.2911(4) 0.51148(9)
O48_2 O 0.6098(7) 0.3399(4) 0.50912(8)
Zn15_2 Zn 0.11231(6) 0.04444(8) 0.206286(14)
Zn16_2 Zn 0.55830(6) 0.26090(6) 0.523401(14)
H67_2 H 0.9886 0.5309 0.4065
C106_2 C 0.9812(7) 0.5555(9) 0.42881(16)
C111_2 C 0.9471(7) 0.5105(9) 0.42891(14)
C112_2 C 0.9867(7) 0.5845(10) 0.43968(18)
C120_2 C 0.9113(6) 0.4963(8) 0.43833(19)
H74_2 H 0.9469 0.4892 0.4229
C121_2 C 0.9526(7) 0.5718(10) 0.44854(18)
C133_2 C 0.9169(10) 0.5290(13) 0.4487(2)
H79_2 H 0.8846 0.4666 0.4379
C134_2 C 0.9555(6) 0.6047(9) 0.45770(17)
O35_2 O 0.8798(5) 0.5090(6) 0.45751(11)
H86_2 H 0.9279 0.5933 0.4633
C149_2 C 0.9668(7) 0.6471(11) 0.45059(17)
C165_2 C 0.9981(10) 0.6429(13) 0.2869(2)
C166_2 C 0.8510(7) 0.4621(10) 0.45890(17)
C167_2 C 0.9450(9) 0.6702(13) 0.4519(2)
C169_2 C 0.9914(8) 0.7247(12) 0.4352(2)
H100_2 H 0.9917 0.7061 0.2630
C183_2 C 0.9730(9) 0.6535(13) 0.2763(2)
H102_2 H 0.9802 0.6201 0.2930
H103_2 H 0.8693 0.4463 0.4593
H104_2 H 0.8297 0.4495 0.4516
C184_2 C 0.8249(7) 0.4549(10) 0.4706(2)
C185_2 C 0.9586(9) 0.7096(12) 0.4445(2)
H105_2 H 0.9202 0.6602 0.4577
H106_2 H 0.9877 0.6061 0.4833
H107_2 H 0.9973 0.7493 0.4296
H122_2 H 0.9408 0.6354 0.2747
C195_2 C 0.7897(8) 0.4090(11) 0.4745(2)
C196_2 C 0.8353(7) 0.4871(11) 0.4791(2)
H123_2 H 0.9441 0.7273 0.4461
H131_2 H 0.7802 0.3826 0.4693
C203_2 C 0.7707(6) 0.4063(9) 0.48661(17)
C204_2 C 0.8083(6) 0.4822(9) 0.49112(16)
H132_2 H 0.8622 0.5162 0.4777
H139_2 H 0.7495 0.3759 0.4893
C210_2 C 0.7770(6) 0.4378(9) 0.49450(15)
H140_2 H 0.8127 0.5080 0.4959
C214_2 C 0.7483(11) 0.4303(14) 0.5052(2)
O42_2 O 0.9739(3) 0.8827(5) 0.21672(7)
O43_2 O 0.7520(8) 0.4609(7) 0.51148(9)
O44_2 O 0.7302(6) 0.3902(7) 0.50912(8)
Zn12_2 Zn 0.93212(6) 0.88769(6) 0.206286(14)
Zn13_2 Zn 0.70260(8) 0.44170(6) 0.523401(14)
Zn14 Zn 0.0000 0.0001 0.20886(3)
Zn11 Zn 0.9999 1.0000 0.20886(3)
Zn1_3 Zn 0.11231(6) 0.06788(6) 0.706286(14)
O1_3 O 0.0555(3) 0.0484(2) 0.69764(6)
O2_3 O 0.1590(3) 0.0852(3) 0.69301(8)
O3_3 O 0.1297(3) 0.1218(4) 0.71581(8)
O4_3 O 0.1173(5) 0.0261(3) 0.71672(7)
Zn2_3 Zn 0.07243(6) 0.10837(6) 0.690068(14)
C1_3 C 0.1556(6) 0.1080(5) 0.68396(15)
C2_3 C 0.1190(6) 0.1532(5) 0.71234(14)
O5_3 O 0.1291(4) 0.1226(3) 0.68133(8)
O6_3 O 0.0930(3) 0.1522(3) 0.70349(8)
O7_3 O 0.0422(4) 0.1276(7) 0.67815(9)
O8_3 O 0.0126(5) 0.0546(3) 0.72056(7)
C3_3 C 0.1927(6) 0.1175(5) 0.67374(12)
C4_3 C 0.1380(5) 0.1948(6) 0.72129(13)
C5_3 C 0.1951(5) 0.1416(5) 0.66223(15)
C6_3 C 0.2248(5) 0.1049(5) 0.67489(13)
C7_3 C 0.1663(4) 0.2003(4) 0.73236(14)
C8_3 C 0.1345(5) 0.2324(6) 0.71794(12)
C9_3 C 0.2275(7) 0.1503(6) 0.65384(15)
H1_3 H 0.1733 0.1512 0.6607
H2_3 H 0.2241 0.0886 0.6824
C10_3 C 0.2589(5) 0.1137(5) 0.66607(16)
C11_3 C 0.1851(5) 0.2398(6) 0.73984(14)
H3_3 H 0.1721 0.1761 0.7346
H4_3 H 0.1205 0.2327 0.7102
C12_3 C 0.1521(6) 0.2717(5) 0.72630(16)
C13_3 C 0.2601(6) 0.1358(6) 0.65484(16)
H5_3 H 0.2290 0.1678 0.6466
H6_3 H 0.2812 0.1047 0.6677
C14_3 C 0.1768(6) 0.2746(6) 0.73689(14)
H7_3 H 0.2036 0.2425 0.7470
H8_3 H 0.1464 0.2961 0.7244
C15_3 C 0.2936(6) 0.1418(6) 0.64485(15)
C16_3 C 0.1921(6) 0.3165(5) 0.74503(14)
H9_3 H 0.3254 0.1608 0.6481
H10_3 H 0.2892 0.1113 0.6424
O9_3 O 0.2872(4) 0.1632(4) 0.63441(13)
H11_3 H 0.2090 0.3448 0.7399
H12_3 H 0.1650 0.3163 0.7489
O10_3 O 0.2208(4) 0.3156(4) 0.75454(11)
C17_3 C 0.3236(7) 0.1844(6) 0.62588(17)
C18_3 C 0.2410(6) 0.3522(7) 0.76215(16)
C19_3 C 0.3578(7) 0.1722(5) 0.62560(15)
C20_3 C 0.3151(7) 0.2048(7) 0.61489(18)
C21_3 C 0.2301(6) 0.3863(7) 0.76225(14)
C22_3 C 0.2645(7) 0.3467(7) 0.77302(18)
H13_3 H 0.3568 0.1496 0.6313
C23_3 C 0.3936(6) 0.1939(5) 0.61683(16)
C24_3 C 0.3502(7) 0.2249(7) 0.60658(17)
C25_3 C 0.2771(8) 0.2136(9) 0.6125(2)
C26_3 C 0.2517(6) 0.4221(6) 0.77167(19)
H14_3 H 0.2090 0.3865 0.7563
C27_3 C 0.2859(7) 0.3808(7) 0.78188(18)
C28_3 C 0.2767(7) 0.3103(6) 0.77482(17)
H15_3 H 0.4212 0.1926 0.6178
C29_3 C 0.3877(6) 0.2182(7) 0.60636(17)
C30_3 C 0.3419(7) 0.2547(8) 0.59693(19)
H16_3 H 0.2515 0.1980 0.6188
C31_3 C 0.2623(9) 0.2005(9) 0.6002(3)
C32_3 C 0.2998(7) 0.2643(10) 0.6132(2)
C33_3 C 0.2788(8) 0.4165(10) 0.7821(2)
H17_3 H 0.2487 0.4488 0.7713
C34_3 C 0.3159(7) 0.3779(6) 0.79104(17)
H18_3 H 0.2620 0.2851 0.7684
C35_3 C 0.3254(8) 0.3306(7) 0.77522(18)
C36_3 C 0.2584(6) 0.2935(7) 0.78858(17)
O11_3 O 0.4199(4) 0.2392(4) 0.59761(10)
H19_3 H 0.3671 0.2702 0.5905
C37_3 C 0.2951(9) 0.2199(7) 0.5912(2)
C38_3 C 0.3335(7) 0.2868(10) 0.6043(2)
C39_3 C 0.2179(10) 0.1704(10) 0.5961(3)
C40_3 C 0.2875(9) 0.2900(10) 0.6212(2)
O12_3 O 0.2959(4) 0.4536(5) 0.79085(11)
H20_3 H 0.3321 0.4055 0.7967
C41_3 C 0.3470(8) 0.3666(7) 0.78393(17)
C42_3 C 0.2810(6) 0.3327(7) 0.79805(18)
C43_3 C 0.3534(9) 0.3189(7) 0.76804(19)
C44_3 C 0.2285(6) 0.2490(7) 0.79231(19)
C45_3 C 0.4533(6) 0.2312(5) 0.59672(11)
C46_3 C 0.2826(9) 0.2074(8) 0.5772(3)
C47_3 C 0.3570(9) 0.3296(12) 0.60250(19)
C48_3 C 0.2110(10) 0.1584(11) 0.5807(3)
H21_3 H 0.1926 0.1573 0.6018
C49_3 C 0.3115(9) 0.3353(10) 0.6203(2)
H22_3 H 0.2628 0.2752 0.6271
C50_3 C 0.2778(7) 0.4824(7) 0.79224(17)
C51_3 C 0.3919(10) 0.3884(9) 0.7853(2)
C52_3 C 0.2701(6) 0.3222(7) 0.81045(16)
H23_3 H 0.3388 0.2932 0.7625
C53_3 C 0.4000(9) 0.3420(8) 0.7686(2)
H24_3 H 0.2145 0.2246 0.7864
C54_3 C 0.2194(6) 0.2411(7) 0.80531(18)
H25_3 H 0.4402 0.1976 0.5956
H26_3 H 0.4701 0.2396 0.6049
C55_3 C 0.4876(5) 0.2557(5) 0.58636(11)
H27_3 H 0.3058 0.2217 0.5709
C56_3 C 0.2391(10) 0.1763(10) 0.5737(3)
H28_3 H 0.3811 0.3417 0.5964
C57_3 C 0.3472(9) 0.3604(9) 0.6097(2)
H29_3 H 0.1816 0.1352 0.5778
H30_3 H 0.3066 0.3532 0.6264
H31_3 H 0.2437 0.4641 0.7927
H32_3 H 0.2865 0.5037 0.7850
C58_3 C 0.2967(7) 0.5085(7) 0.8040(2)
C59_3 C 0.4177(8) 0.3748(9) 0.7779(2)
H33_3 H 0.4067 0.4132 0.7911
C60_3 C 0.2390(7) 0.2799(7) 0.81418(17)
H34_3 H 0.2851 0.3457 0.8167
H35_3 H 0.4187 0.3361 0.7630
H36_3 H 0.2006 0.2106 0.8084
C61_3 C 0.4761(5) 0.2770(5) 0.57709(13)
C62_3 C 0.5312(5) 0.2589(4) 0.58520(12)
H37_3 H 0.2325 0.1696 0.5650
H38_3 H 0.3613 0.3926 0.6081
C63_3 C 0.2860(7) 0.5437(8) 0.8079(2)
C64_3 C 0.3185(8) 0.4981(7) 0.8125(2)
H39_3 H 0.4499 0.3893 0.7795
H40_3 H 0.2293 0.2748 0.8228
H41_3 H 0.4473 0.2759 0.5777
C65_3 C 0.5047(5) 0.3002(4) 0.56676(11)
C66_3 C 0.5581(4) 0.2813(5) 0.57505(13)
H42_3 H 0.5416 0.2457 0.5915
H43_3 H 0.2691 0.5532 0.8027
C67_3 C 0.3023(7) 0.5627(6) 0.81995(17)
C68_3 C 0.3406(7) 0.5251(6) 0.82446(16)
H44_3 H 0.3207 0.4712 0.8111
H45_3 H 0.4951 0.3134 0.5604
C69_3 C 0.5486(5) 0.3033(4) 0.56626(11)
H46_3 H 0.5862 0.2810 0.5742
H47_3 H 0.2931 0.5839 0.8227
C70_3 C 0.3275(7) 0.5564(6) 0.82784(15)
H48_3 H 0.3620 0.5207 0.8293
C71_3 C 0.5806(5) 0.3302(8) 0.55587(11)
C72_3 C 0.3487(9) 0.5851(11) 0.8386(2)
O13_3 O 0.3267(4) 0.6032(6) 0.84246(8)
O38_3 O 0.6121(3) 0.3207(5) 0.55389(7)
O39_3 O 0.5754(6) 0.3594(3) 0.55005(7)
O40_3 O 0.3756(4) 0.5813(8) 0.84481(9)
Zn8_3 Zn 0.6667 0.3333 0.54219(3)
Zn9_3 Zn 0.62223(8) 0.40121(6) 0.539619(14)
Zn10_3 Zn 0.40577(6) 0.63073(8) 0.856734(14)
Zn3_3 Zn 0.0000 1.0000 0.70886(3)
O16_3 O 0.0419(6) 0.9874(5) 0.72056(7)
Zn7_3 Zn 0.03593(8) 0.92757(6) 0.690068(14)
O28_3 O 0.0591(4) 0.9070(3) 0.70349(8)
O29_3 O 0.0853(8) 0.9578(4) 0.67815(9)
C76_3 C 0.0341(8) 0.8810(6) 0.71234(14)
C80_3 C 0.0567(8) 0.8620(5) 0.72129(13)
C87_3 C 0.0339(6) 0.8337(4) 0.73236(14)
C88_3 C 0.0978(8) 0.8655(5) 0.71794(12)
C95_3 C 0.0546(8) 0.8149(5) 0.73984(14)
H55_3 H 0.0039 0.8279 0.7346
H56_3 H 0.1121 0.8795 0.7102
C96_3 C 0.1195(8) 0.8479(6) 0.72630(16)
C100_3 C 0.0977(8) 0.8232(6) 0.73689(14)
H63_3 H 0.0388 0.7964 0.7470
H64_3 H 0.1496 0.8536 0.7244
C104_3 C 0.1243(8) 0.8079(6) 0.74503(14)
H71_3 H 0.1357 0.7910 0.7399
H72_3 H 0.1512 0.8350 0.7489
O33_3 O 0.0947(6) 0.7792(4) 0.75454(11)
C108_3 C 0.1111(9) 0.7590(6) 0.76215(16)
C115_3 C 0.1561(9) 0.7699(6) 0.76225(14)
C116_3 C 0.0821(10) 0.7355(7) 0.77302(18)
C126_3 C 0.1703(8) 0.7483(6) 0.77167(19)
H76_3 H 0.1774 0.7910 0.7563
C127_3 C 0.0948(10) 0.7141(7) 0.78188(18)
C128_3 C 0.0335(9) 0.7233(7) 0.77482(17)
C141_3 C 0.1376(13) 0.7212(8) 0.7821(2)
H83_3 H 0.2000 0.7513 0.7713
C142_3 C 0.0619(9) 0.6841(7) 0.79104(17)
H84_3 H 0.0230 0.7380 0.7684
C143_3 C 0.0051(11) 0.6746(8) 0.77522(18)
C144_3 C 0.0350(9) 0.7416(6) 0.78858(17)
C156_3 C 0.0024(13) 0.7125(9) 0.6212(2)
O37_3 O 0.1576(6) 0.7041(4) 0.79085(11)
H88_3 H 0.0733 0.6679 0.7967
C157_3 C 0.0195(11) 0.6530(8) 0.78393(17)
C158_3 C 0.0516(9) 0.7190(6) 0.79805(18)
C160_3 C 0.0204(9) 0.7715(6) 0.79231(19)
C175_3 C 0.0237(13) 0.6885(9) 0.6203(2)
H94_3 H 0.0123 0.7372 0.6271
C176_3 C 0.2045(10) 0.7222(7) 0.79224(17)
C178_3 C 0.0520(9) 0.7299(6) 0.81045(16)
H96_3 H 0.0100 0.7855 0.7864
C180_3 C 0.0216(9) 0.7806(6) 0.80531(18)
C189_3 C 0.0131(13) 0.6528(9) 0.6097(2)
H114_3 H 0.0465 0.6934 0.6264
H115_3 H 0.2203 0.7563 0.7927
H116_3 H 0.2171 0.7135 0.7850
C190_3 C 0.2117(10) 0.7033(7) 0.8040(2)
H117_3 H 0.0064 0.5933 0.7911
C192_3 C 0.0408(10) 0.7610(7) 0.81418(17)
H118_3 H 0.0605 0.7149 0.8167
H120_3 H 0.0099 0.7994 0.8084
H126_3 H 0.0312 0.6387 0.6081
C199_3 C 0.2576(11) 0.7140(7) 0.8079(2)
C200_3 C 0.1795(11) 0.6815(8) 0.8125(2)
H128_3 H 0.0454 0.7707 0.8228
H135_3 H 0.2840 0.7309 0.8027
C207_3 C 0.2603(9) 0.6977(7) 0.81995(17)
C208_3 C 0.1844(9) 0.6594(7) 0.82446(16)
H136_3 H 0.1504 0.6793 0.8111
H143_3 H 0.2907 0.7069 0.8227
C212_3 C 0.2288(9) 0.6725(7) 0.82784(15)
H144_3 H 0.1586 0.6380 0.8293
C216_3 C 0.2363(14) 0.6513(9) 0.8386(2)
O47_3 O 0.2058(7) 0.6244(4) 0.84481(9)
O48_3 O 0.2764(7) 0.6733(4) 0.84246(8)
Zn16_3 Zn 0.22497(6) 0.59423(6) 0.856734(14)
O14_3 O 0.9516(2) 0.0072(4) 0.69764(6)
Zn4_3 Zn 0.93212(6) 0.04444(8) 0.706286(14)
O18_3 O 0.9148(3) 0.0739(4) 0.69301(8)
O19_3 O 0.8782(4) 0.0080(5) 0.71581(8)
O20_3 O 0.9739(3) 0.0913(6) 0.71672(7)
O21_3 O 0.8774(3) 0.0066(5) 0.68133(8)
C73_3 C 0.8920(5) 0.0477(8) 0.68396(15)
C77_3 C 0.8825(5) 0.0753(8) 0.67374(12)
C81_3 C 0.8584(5) 0.0536(7) 0.66223(15)
C82_3 C 0.8951(5) 0.1200(7) 0.67489(13)
C89_3 C 0.8497(6) 0.0773(9) 0.65384(15)
H49_3 H 0.8488 0.0222 0.6607
H50_3 H 0.9114 0.1356 0.6824
C90_3 C 0.8863(5) 0.1453(7) 0.66607(16)
C97_3 C 0.8642(6) 0.1244(8) 0.65484(16)
H57_3 H 0.8322 0.0613 0.6466
H58_3 H 0.8953 0.1766 0.6677
C101_3 C 0.8582(6) 0.1519(8) 0.64485(15)
H65_3 H 0.8392 0.1647 0.6481
H66_3 H 0.8887 0.1780 0.6424
O30_3 O 0.8368(4) 0.1241(6) 0.63441(13)
C105_3 C 0.8156(6) 0.1393(9) 0.62588(17)
C109_3 C 0.8278(5) 0.1857(9) 0.62560(15)
C110_3 C 0.7952(7) 0.1104(10) 0.61489(18)
H73_3 H 0.8504 0.2073 0.6313
C117_3 C 0.8061(5) 0.1998(8) 0.61683(16)
C118_3 C 0.7751(7) 0.1254(10) 0.60658(17)
C119_3 C 0.7864(9) 0.0636(12) 0.6125(2)
H77_3 H 0.8074 0.2287 0.6178
C129_3 C 0.7818(7) 0.1696(9) 0.60636(17)
C130_3 C 0.7453(8) 0.0873(11) 0.59693(19)
H78_3 H 0.8020 0.0536 0.6188
C131_3 C 0.7995(9) 0.0619(13) 0.6002(3)
C132_3 C 0.7357(10) 0.0356(12) 0.6132(2)
O34_3 O 0.7608(4) 0.1808(6) 0.59761(10)
H85_3 H 0.7298 0.0970 0.5905
C145_3 C 0.7801(7) 0.0753(11) 0.5912(2)
C146_3 C 0.7132(10) 0.0468(12) 0.6043(2)
C147_3 C 0.8296(10) 0.0476(14) 0.5961(3)
C151_3 C 0.6811(7) 0.0346(11) 0.76804(19)
C161_3 C 0.7688(5) 0.2222(8) 0.59672(11)
C162_3 C 0.7926(8) 0.0753(12) 0.5772(3)
C163_3 C 0.6704(12) 0.0275(15) 0.60250(19)
C164_3 C 0.8416(11) 0.0527(15) 0.5807(3)
H89_3 H 0.8427 0.0354 0.6018
C167_3 C 0.6116(9) 0.0036(13) 0.7853(2)
H91_3 H 0.7068 0.0457 0.7625
C169_3 C 0.6580(8) 0.0581(12) 0.7686(2)
H97_3 H 0.8024 0.2427 0.5956
H98_3 H 0.7604 0.2306 0.6049
C181_3 C 0.7443(5) 0.2320(7) 0.58636(11)
H99_3 H 0.7783 0.0842 0.5709
C182_3 C 0.8237(10) 0.0629(14) 0.5737(3)
H100_3 H 0.6583 0.0395 0.5964
H101_3 H 0.8648 0.0465 0.5778
C185_3 C 0.6252(9) 0.0430(12) 0.7779(2)
H107_3 H 0.6639 0.0827 0.7630
C193_3 C 0.7230(5) 0.1992(7) 0.57709(13)
C194_3 C 0.7411(4) 0.2724(6) 0.58520(12)
H121_3 H 0.8304 0.0630 0.5650
H123_3 H 0.6107 0.0607 0.7795
H129_3 H 0.7241 0.1715 0.5777
C201_3 C 0.6998(4) 0.2046(6) 0.56676(11)
C202_3 C 0.7187(5) 0.2769(6) 0.57505(13)
H130_3 H 0.7543 0.2960 0.5915
H137_3 H 0.6866 0.1818 0.5604
C209_3 C 0.6967(4) 0.2454(6) 0.56626(11)
H138_3 H 0.7190 0.3053 0.5742
C213_3 C 0.6698(8) 0.2505(9) 0.55587(11)
O41_3 O 0.6793(5) 0.2914(6) 0.55389(7)
O42_3 O 0.6406(3) 0.2160(5) 0.55005(7)
Zn12_3 Zn 0.59879(6) 0.22102(6) 0.539619(14)
O15_3 O 0.9928(4) 0.9445(3) 0.69764(6)
O17_3 O 0.9454(3) 0.9581(6) 0.72056(7)
Zn5_3 Zn 0.89163(6) 0.96407(8) 0.690068(14)
Zn6_3 Zn 0.95556(8) 0.88769(6) 0.706286(14)
O22_3 O 0.8478(3) 0.9409(4) 0.70349(8)
O23_3 O 0.8724(7) 0.9147(8) 0.67815(9)
O24_3 O 0.9261(4) 0.8410(3) 0.69301(8)
O25_3 O 0.9920(5) 0.8703(3) 0.71581(8)
O26_3 O 0.9087(6) 0.8827(5) 0.71672(7)
O27_3 O 0.9934(5) 0.8709(4) 0.68133(8)
C74_3 C 0.8468(5) 0.9659(8) 0.71234(14)
C75_3 C 0.9523(8) 0.8444(6) 0.68396(15)
C78_3 C 0.8052(6) 0.9433(8) 0.72129(13)
C79_3 C 0.9247(8) 0.8073(6) 0.67374(12)
C83_3 C 0.7997(4) 0.9661(6) 0.73236(14)
C84_3 C 0.7676(6) 0.9022(8) 0.71794(12)
C85_3 C 0.9464(7) 0.8049(5) 0.66223(15)
C86_3 C 0.8800(7) 0.7752(5) 0.67489(13)
C91_3 C 0.7602(6) 0.9454(8) 0.73984(14)
H51_3 H 0.8239 0.9961 0.7346
H52_3 H 0.7673 0.8879 0.7102
C92_3 C 0.7283(5) 0.8805(8) 0.72630(16)
C93_3 C 0.9227(9) 0.7725(7) 0.65384(15)
H53_3 H 0.9778 0.8267 0.6607
H54_3 H 0.8644 0.7759 0.6824
C94_3 C 0.8547(7) 0.7411(5) 0.66607(16)
C98_3 C 0.7254(6) 0.9023(8) 0.73689(14)
H59_3 H 0.7575 0.9612 0.7470
H60_3 H 0.7039 0.8504 0.7244
C99_3 C 0.8756(8) 0.7399(6) 0.65484(16)
H61_3 H 0.9387 0.7710 0.6466
H62_3 H 0.8234 0.7188 0.6677
C102_3 C 0.6835(5) 0.8757(8) 0.74503(14)
C103_3 C 0.8481(8) 0.7064(6) 0.64485(15)
H67_3 H 0.6552 0.8643 0.7399
H68_3 H 0.6837 0.8488 0.7489
O31_3 O 0.6844(4) 0.9053(6) 0.75454(11)
H69_3 H 0.8353 0.6746 0.6481
H70_3 H 0.8220 0.7108 0.6424
O32_3 O 0.8759(6) 0.7128(4) 0.63441(13)
C106_3 C 0.6478(7) 0.8889(9) 0.76215(16)
C107_3 C 0.8607(9) 0.6764(7) 0.62588(17)
C111_3 C 0.6137(7) 0.8439(9) 0.76225(14)
C112_3 C 0.6533(7) 0.9179(10) 0.77302(18)
C113_3 C 0.8143(9) 0.6422(7) 0.62560(15)
C114_3 C 0.8896(10) 0.6849(7) 0.61489(18)
C120_3 C 0.5779(6) 0.8297(8) 0.77167(19)
H74_3 H 0.6135 0.8226 0.7563
C121_3 C 0.6192(7) 0.9052(10) 0.78188(18)
C122_3 C 0.6897(6) 0.9665(9) 0.77482(17)
H75_3 H 0.7927 0.6432 0.6313
C123_3 C 0.8002(8) 0.6064(6) 0.61683(16)
C124_3 C 0.8746(10) 0.6498(7) 0.60658(17)
C125_3 C 0.9364(12) 0.7229(8) 0.6125(2)
C133_3 C 0.5835(10) 0.8624(13) 0.7821(2)
H79_3 H 0.5512 0.8000 0.7713
C134_3 C 0.6221(6) 0.9381(9) 0.79104(17)
H80_3 H 0.7149 0.9770 0.7684
C135_3 C 0.6694(7) 0.9949(11) 0.77522(18)
C136_3 C 0.7065(7) 0.9650(9) 0.78858(17)
H81_3 H 0.7713 0.5788 0.6178
C137_3 C 0.8304(9) 0.6123(6) 0.60636(17)
C138_3 C 0.9127(11) 0.6581(7) 0.59693(19)
H82_3 H 0.9464 0.7485 0.6188
C139_3 C 0.9381(13) 0.7377(9) 0.6002(3)
C140_3 C 0.9644(12) 0.7002(7) 0.6132(2)
C148_3 C 0.7100(10) 0.9976(13) 0.6212(2)
O35_3 O 0.5464(5) 0.8424(6) 0.79085(11)
H86_3 H 0.5945 0.9267 0.7967
C149_3 C 0.6334(7) 0.9805(11) 0.78393(17)
C150_3 C 0.6673(7) 0.9484(9) 0.79805(18)
C152_3 C 0.7510(7) 0.9796(9) 0.79231(19)
O36_3 O 0.8192(6) 0.5801(4) 0.59761(10)
H87_3 H 0.9030 0.6329 0.5905
C153_3 C 0.9247(11) 0.7049(9) 0.5912(2)
C154_3 C 0.9532(12) 0.6665(7) 0.6043(2)
C155_3 C 0.9524(14) 0.7821(10) 0.5961(3)
C159_3 C 0.9654(11) 0.6466(9) 0.76804(19)
C165_3 C 0.6647(10) 0.9763(13) 0.6203(2)
H90_3 H 0.7248 0.9877 0.6271
C166_3 C 0.5176(7) 0.7955(10) 0.79224(17)
C168_3 C 0.6778(7) 0.9480(9) 0.81045(16)
H92_3 H 0.7754 0.9900 0.7864
C170_3 C 0.7589(7) 0.9784(9) 0.80531(18)
C171_3 C 0.7778(8) 0.5467(6) 0.59672(11)
C172_3 C 0.9247(12) 0.7174(9) 0.5772(3)
C173_3 C 0.9725(15) 0.6430(9) 0.60250(19)
C174_3 C 0.9473(15) 0.7890(10) 0.5807(3)
H93_3 H 0.9646 0.8074 0.6018
C177_3 C 0.9964(13) 0.6081(10) 0.7853(2)
H95_3 H 0.9543 0.6612 0.7625
C179_3 C 0.9419(12) 0.6000(9) 0.7686(2)
C183_3 C 0.6396(9) 0.9869(13) 0.6097(2)
H102_3 H 0.6468 0.9535 0.6264
H103_3 H 0.5359 0.7797 0.7927
H104_3 H 0.4963 0.7829 0.7850
C184_3 C 0.4915(7) 0.7883(10) 0.8040(2)
H105_3 H 0.5868 0.9936 0.7911
C186_3 C 0.7201(7) 0.9592(10) 0.81418(17)
H106_3 H 0.6543 0.9395 0.8167
H108_3 H 0.7894 0.9901 0.8084
H109_3 H 0.7573 0.5598 0.5956
H110_3 H 0.7694 0.5299 0.6049
C187_3 C 0.7680(7) 0.5124(5) 0.58636(11)
H111_3 H 0.9158 0.6942 0.5709
C188_3 C 0.9371(14) 0.7609(10) 0.5737(3)
H112_3 H 0.9605 0.6189 0.5964
H113_3 H 0.9535 0.8184 0.5778
C191_3 C 0.9570(12) 0.5823(8) 0.7779(2)
H119_3 H 0.9173 0.5813 0.7630
H122_3 H 0.6074 0.9688 0.6081
C195_3 C 0.4563(8) 0.7424(11) 0.8079(2)
C196_3 C 0.5019(7) 0.8205(11) 0.8125(2)
H124_3 H 0.7252 0.9546 0.8228
C197_3 C 0.8008(7) 0.5239(5) 0.57709(13)
C198_3 C 0.7276(6) 0.4688(5) 0.58520(12)
H125_3 H 0.9370 0.7675 0.5650
H127_3 H 0.9393 0.5501 0.7795
H131_3 H 0.4468 0.7160 0.8027
C203_3 C 0.4373(6) 0.7397(9) 0.81995(17)
C204_3 C 0.4749(6) 0.8156(9) 0.82446(16)
H132_3 H 0.5288 0.8496 0.8111
H133_3 H 0.8285 0.5527 0.5777
C205_3 C 0.7954(6) 0.4953(5) 0.56676(11)
C206_3 C 0.7231(6) 0.4419(4) 0.57505(13)
H134_3 H 0.7040 0.4584 0.5915
H139_3 H 0.4161 0.7093 0.8227
C210_3 C 0.4436(6) 0.7712(9) 0.82784(15)
H140_3 H 0.4793 0.8414 0.8293
H141_3 H 0.8182 0.5049 0.5604
C211_3 C 0.7546(6) 0.4514(5) 0.56626(11)
H142_3 H 0.6947 0.4138 0.5742
C214_3 C 0.4149(11) 0.7637(14) 0.8386(2)
C215_3 C 0.7495(9) 0.4194(5) 0.55587(11)
O43_3 O 0.4187(8) 0.7942(7) 0.84481(9)
O44_3 O 0.3968(6) 0.7236(7) 0.84246(8)
O45_3 O 0.7086(6) 0.3879(3) 0.55389(7)
O46_3 O 0.7840(5) 0.4246(6) 0.55005(7)
Zn13_3 Zn 0.36927(8) 0.77503(6) 0.856734(14)
Zn15_3 Zn 0.77898(6) 0.37777(8) 0.539619(14)
Zn3_4 Zn 0.0000 0.0001 0.70886(3)
Zn3_5 Zn 0.9999 1.0000 0.70886(3)
C113_4 C 0.0245(7) 0.5190(9) 0.45893(15)
H75_4 H 0.0235 0.5406 0.4646
C123_4 C 0.0603(6) 0.5331(8) 0.45016(16)
C124_4 C 0.0169(7) 0.4587(10) 0.43991(17)
H81_4 H 0.0879 0.5620 0.4511
C137_4 C 0.0544(6) 0.5029(9) 0.43969(17)
C138_4 C 0.0086(7) 0.4206(11) 0.43026(19)
O36_4 O 0.0866(4) 0.5141(6) 0.43094(10)
H87_4 H 0.0338 0.4303 0.4238
C154_4 C 0.0002(7) 0.3801(12) 0.4376(2)
C157_4 C 0.0137(8) 0.3138(11) 0.61726(17)
C159_4 C 0.0201(9) 0.3679(11) 0.60137(19)
C171_4 C 0.1200(6) 0.5555(8) 0.43005(11)
C173_4 C 0.0237(9) 0.3608(15) 0.43583(19)
C177_4 C 0.0586(10) 0.3369(13) 0.6186(2)
H95_4 H 0.0055 0.3790 0.5958
C179_4 C 0.0667(9) 0.3914(12) 0.6019(2)
H109_4 H 0.1069 0.5760 0.4289
H110_4 H 0.1368 0.5639 0.4382
C187_4 C 0.1543(5) 0.5653(7) 0.41969(11)
H112_4 H 0.0478 0.3728 0.4297
C189_4 C 0.0139(9) 0.3202(13) 0.4430(2)
C191_4 C 0.0844(8) 0.3763(12) 0.6112(2)
H117_4 H 0.0734 0.3269 0.6244
H119_4 H 0.0854 0.4160 0.5963
C197_4 C 0.1428(5) 0.5325(7) 0.41042(13)
C198_4 C 0.1979(5) 0.6057(6) 0.41853(12)
H126_4 H 0.0280 0.3021 0.4414
H127_4 H 0.1166 0.3940 0.6128
H133_4 H 0.1140 0.5048 0.4110
C205_4 C 0.1714(5) 0.5379(6) 0.40009(11)
C206_4 C 0.2248(4) 0.6102(6) 0.40838(13)
H134_4 H 0.2083 0.6293 0.4248
C208_4 C 0.0073(7) 0.1489(9) 0.65779(16)
H141_4 H 0.1618 0.5151 0.3937
C211_4 C 0.2153(5) 0.5787(6) 0.39959(11)
H142_4 H 0.2529 0.6386 0.4075
H144_4 H 0.0287 0.1747 0.6626
C215_4 C 0.2473(5) 0.5838(9) 0.38920(11)
C216_4 C 0.0154(9) 0.0970(14) 0.6719(2)
O1_4 O 0.6183(2) 0.2778(3) 0.53097(6)
O2_4 O 0.5815(3) 0.1743(3) 0.52634(8)
O3_4 O 0.5449(4) 0.2036(3) 0.54914(8)
C1_4 C 0.5587(5) 0.1777(6) 0.51729(15)
C2_4 C 0.5135(5) 0.2143(6) 0.54567(14)
O5_4 O 0.5441(3) 0.2042(4) 0.51466(8)
O6_4 O 0.5145(3) 0.2403(3) 0.53682(8)
C3_4 C 0.5492(5) 0.1406(6) 0.50707(12)
C4_4 C 0.4719(6) 0.1953(5) 0.55462(13)
C5_4 C 0.5251(5) 0.1382(5) 0.49556(15)
C6_4 C 0.5618(5) 0.1085(5) 0.50822(13)
C7_4 C 0.4664(4) 0.1670(4) 0.56569(14)
C8_4 C 0.4343(6) 0.1988(5) 0.55127(12)
C9_4 C 0.5164(6) 0.1058(7) 0.48717(15)
H1_4 H 0.5155 0.1600 0.4940
H2_4 H 0.5781 0.1092 0.5157
C10_4 C 0.5530(5) 0.0744(5) 0.49940(16)
C11_4 C 0.4269(6) 0.1482(5) 0.57317(14)
H3_4 H 0.4906 0.1612 0.5679
H4_4 H 0.4340 0.2128 0.5435
C12_4 C 0.3950(5) 0.1812(6) 0.55963(16)
C13_4 C 0.5309(6) 0.0732(6) 0.48817(16)
H5_4 H 0.4989 0.1043 0.4799
H6_4 H 0.5620 0.0521 0.5010
C14_4 C 0.3921(6) 0.1565(6) 0.57022(14)
H7_4 H 0.4242 0.1297 0.5803
H8_4 H 0.3706 0.1869 0.5577
C15_4 C 0.5249(6) 0.0397(6) 0.47818(15)
C16_4 C 0.3502(5) 0.1412(6) 0.57836(14)
H9_4 H 0.5059 0.0079 0.4814
H10_4 H 0.5554 0.0441 0.4757
O9_4 O 0.5035(4) 0.0461(4) 0.46774(13)
H11_4 H 0.3219 0.1243 0.5732
H12_4 H 0.3504 0.1683 0.5822
O10_4 O 0.3511(4) 0.1125(4) 0.58787(11)
C17_4 C 0.4823(6) 0.0097(7) 0.45921(17)
C18_4 C 0.3145(7) 0.0923(6) 0.59548(16)
C20_4 C 0.4619(7) 0.0182(7) 0.44822(18)
C21_4 C 0.2804(7) 0.1032(6) 0.59558(14)
C22_4 C 0.3200(7) 0.0688(7) 0.60635(18)
C25_4 C 0.4531(9) 0.0562(8) 0.4458(2)
C26_4 C 0.2446(6) 0.0816(6) 0.60500(19)
H14_4 H 0.2802 0.1243 0.5896
C27_4 C 0.2859(7) 0.0474(7) 0.61521(18)
C28_4 C 0.3564(6) 0.0566(7) 0.60815(17)
H16_4 H 0.4687 0.0818 0.4521
C31_4 C 0.4662(9) 0.0710(9) 0.4335(3)
C32_4 C 0.4024(10) 0.0335(7) 0.4465(2)
C33_4 C 0.2502(10) 0.0545(8) 0.6154(2)
H17_4 H 0.2179 0.0846 0.6046
C34_4 C 0.2888(6) 0.0174(7) 0.62437(17)
H18_4 H 0.3816 0.0713 0.6017
C35_4 C 0.3361(7) 0.0079(8) 0.60855(18)
C36_4 C 0.3732(7) 0.0749(6) 0.62191(17)
C37_4 C 0.4468(7) 0.0382(9) 0.4245(2)
C39_4 C 0.4963(10) 0.1154(10) 0.4294(3)
C40_4 C 0.3767(10) 0.0458(9) 0.4545(2)
O12_4 O 0.2131(5) 0.0374(4) 0.62418(11)
H20_4 H 0.2612 0.0012 0.6300
C42_4 C 0.3340(7) 0.0523(6) 0.63138(18)
C44_4 C 0.4177(7) 0.1048(6) 0.62564(19)
C46_4 C 0.4593(8) 0.0507(9) 0.4105(3)
C48_4 C 0.5083(11) 0.1223(10) 0.4140(3)
H21_4 H 0.5094 0.1407 0.4351
C49_4 C 0.3314(10) 0.0218(9) 0.4536(2)
H22_4 H 0.3915 0.0705 0.4604
C50_4 C 0.1843(7) 0.0555(7) 0.62557(17)
C52_4 C 0.3445(7) 0.0632(6) 0.64378(16)
H24_4 H 0.4421 0.1188 0.6197
C54_4 C 0.4256(7) 0.1139(6) 0.63864(18)
H27_4 H 0.4450 0.0275 0.4042
C56_4 C 0.4904(10) 0.0942(10) 0.4070(3)
H29_4 H 0.5315 0.1517 0.4111
H30_4 H 0.3135 0.0267 0.4597
H31_4 H 0.2026 0.0896 0.6260
H32_4 H 0.1630 0.0468 0.6183
C58_4 C 0.1582(7) 0.0366(7) 0.6373(2)
C60_4 C 0.3868(7) 0.0943(7) 0.64751(17)
H34_4 H 0.3210 0.0482 0.6500
H36_4 H 0.4561 0.1327 0.6417
H37_4 H 0.4971 0.1008 0.3983
C63_4 C 0.1230(8) 0.0473(7) 0.6412(2)
C64_4 C 0.1686(7) 0.0148(8) 0.6458(2)
H40_4 H 0.3919 0.1040 0.6561
H43_4 H 0.1135 0.0642 0.6360
C67_4 C 0.1040(6) 0.0310(7) 0.65328(17)
H44_4 H 0.1955 0.0126 0.6444
H47_4 H 0.0828 0.0402 0.6560
C70_4 C 0.1103(6) 0.0058(7) 0.66117(15)
O13_4 O 0.0635(6) 0.0066(4) 0.67579(8)
O14_4 O 0.6595(4) 0.3817(2) 0.53097(6)
O15_4 O 0.7222(3) 0.3405(4) 0.53097(6)
O18_4 O 0.5928(4) 0.4185(3) 0.52634(8)
O19_4 O 0.6587(5) 0.4551(4) 0.54914(8)
O21_4 O 0.6601(5) 0.4559(3) 0.51466(8)
O22_4 O 0.7258(4) 0.4855(3) 0.53682(8)
O24_4 O 0.8257(3) 0.4072(4) 0.52634(8)
O25_4 O 0.7964(3) 0.3413(5) 0.54914(8)
O27_4 O 0.7958(4) 0.3399(5) 0.51466(8)
O28_4 O 0.7597(3) 0.2742(4) 0.53682(8)
C73_4 C 0.6190(8) 0.4413(5) 0.51729(15)
C74_4 C 0.7008(8) 0.4865(5) 0.54567(14)
C75_4 C 0.8223(6) 0.3810(8) 0.51729(15)
C76_4 C 0.7857(6) 0.2992(8) 0.54567(14)
C77_4 C 0.5914(8) 0.4508(5) 0.50707(12)
C78_4 C 0.7234(8) 0.5281(6) 0.55462(13)
C79_4 C 0.8594(6) 0.4086(8) 0.50707(12)
C80_4 C 0.8047(5) 0.2766(8) 0.55462(13)
C81_4 C 0.6131(7) 0.4749(5) 0.49556(15)
C82_4 C 0.5467(7) 0.4382(5) 0.50822(13)
C83_4 C 0.7006(6) 0.5336(4) 0.56569(14)
C84_4 C 0.7645(8) 0.5657(6) 0.55127(12)
C85_4 C 0.8618(5) 0.3869(7) 0.49556(15)
C86_4 C 0.8915(5) 0.4533(7) 0.50822(13)
C87_4 C 0.8330(4) 0.2994(6) 0.56569(14)
C88_4 C 0.8012(5) 0.2355(8) 0.55127(12)
C89_4 C 0.5894(9) 0.4836(6) 0.48717(15)
H49_4 H 0.6445 0.4845 0.4940
H50_4 H 0.5311 0.4219 0.5157
C90_4 C 0.5214(7) 0.4470(5) 0.49940(16)
C91_4 C 0.7213(8) 0.5731(6) 0.57317(14)
H51_4 H 0.6706 0.5094 0.5679
H52_4 H 0.7788 0.5660 0.5435
C92_4 C 0.7862(8) 0.6050(5) 0.55963(16)
C93_4 C 0.8942(7) 0.4106(9) 0.48717(15)
H53_4 H 0.8400 0.3555 0.4940
H54_4 H 0.8908 0.4689 0.5157
C94_4 C 0.9256(5) 0.4786(7) 0.49940(16)
C95_4 C 0.8518(5) 0.2787(8) 0.57317(14)
H55_4 H 0.8388 0.3294 0.5679
H56_4 H 0.7872 0.2212 0.5435
C96_4 C 0.8188(6) 0.2138(8) 0.55963(16)
C97_4 C 0.5423(8) 0.4691(6) 0.48817(16)
H57_4 H 0.6054 0.5011 0.4799
H58_4 H 0.4901 0.4380 0.5010
C98_4 C 0.7644(8) 0.6079(6) 0.57022(14)
H59_4 H 0.7055 0.5758 0.5803
H60_4 H 0.8163 0.6294 0.5577
C99_4 C 0.9268(6) 0.4577(8) 0.48817(16)
H61_4 H 0.8957 0.3946 0.4799
H62_4 H 0.9479 0.5099 0.5010
C100_4 C 0.8435(6) 0.2356(8) 0.57022(14)
H63_4 H 0.8703 0.2945 0.5803
H64_4 H 0.8131 0.1837 0.5577
C101_4 C 0.5148(8) 0.4751(6) 0.47818(15)
C102_4 C 0.7910(8) 0.6498(5) 0.57836(14)
C103_4 C 0.9603(6) 0.4852(8) 0.47818(15)
C104_4 C 0.8588(6) 0.2090(8) 0.57836(14)
H65_4 H 0.5020 0.4941 0.4814
H66_4 H 0.4887 0.4446 0.4757
O30_4 O 0.5426(6) 0.4965(4) 0.46774(13)
H67_4 H 0.8024 0.6781 0.5732
H68_4 H 0.8179 0.6496 0.5822
O31_4 O 0.7614(6) 0.6489(4) 0.58787(11)
H69_4 H 0.9921 0.4980 0.4814
H70_4 H 0.9559 0.5113 0.4757
O32_4 O 0.9539(4) 0.4574(6) 0.46774(13)
H71_4 H 0.8757 0.1976 0.5732
H72_4 H 0.8317 0.1821 0.5822
O33_4 O 0.8875(4) 0.2386(6) 0.58787(11)
C105_4 C 0.5274(9) 0.5177(6) 0.45921(17)
C106_4 C 0.7778(9) 0.6855(7) 0.59548(16)
C107_4 C 0.9903(7) 0.4726(9) 0.45921(17)
C108_4 C 0.9077(6) 0.2222(9) 0.59548(16)
C109_4 C 0.4810(9) 0.5055(5) 0.45893(15)
C110_4 C 0.5563(10) 0.5381(7) 0.44822(18)
C111_4 C 0.8228(9) 0.7196(7) 0.59558(14)
C112_4 C 0.7488(10) 0.6800(7) 0.60635(18)
C114_4 C 0.9818(7) 0.4437(10) 0.44822(18)
C115_4 C 0.8968(6) 0.1772(9) 0.59558(14)
C116_4 C 0.9312(7) 0.2512(10) 0.60635(18)
H73_4 H 0.4594 0.4829 0.4646
C117_4 C 0.4669(8) 0.5272(5) 0.45016(16)
C118_4 C 0.5413(10) 0.5582(7) 0.43991(17)
C119_4 C 0.6031(12) 0.5469(9) 0.4458(2)
C120_4 C 0.8370(8) 0.7554(6) 0.60500(19)
H74_4 H 0.8441 0.7198 0.5896
C121_4 C 0.7615(10) 0.7141(7) 0.61521(18)
C122_4 C 0.7002(9) 0.6436(6) 0.60815(17)
C125_4 C 0.9438(8) 0.3969(12) 0.4458(2)
C126_4 C 0.9184(6) 0.1630(8) 0.60500(19)
H76_4 H 0.8757 0.1559 0.5896
C127_4 C 0.9526(7) 0.2385(10) 0.61521(18)
C128_4 C 0.9434(7) 0.2998(9) 0.60815(17)
H77_4 H 0.4380 0.5259 0.4511
C129_4 C 0.4971(9) 0.5515(7) 0.43969(17)
C130_4 C 0.5794(11) 0.5880(8) 0.43026(19)
H78_4 H 0.6131 0.5313 0.4521
C131_4 C 0.6048(13) 0.5338(9) 0.4335(3)
C132_4 C 0.6311(12) 0.5976(10) 0.4465(2)
C133_4 C 0.8043(13) 0.7498(10) 0.6154(2)
H79_4 H 0.8667 0.7821 0.6046
C134_4 C 0.7286(9) 0.7112(6) 0.62437(17)
H80_4 H 0.6897 0.6184 0.6017
C135_4 C 0.6718(11) 0.6639(7) 0.60855(18)
C136_4 C 0.7017(9) 0.6268(7) 0.62191(17)
H82_4 H 0.9182 0.3869 0.4521
C139_4 C 0.9290(9) 0.3952(13) 0.4335(3)
C140_4 C 0.9665(7) 0.3689(12) 0.4465(2)
C141_4 C 0.9455(8) 0.1957(13) 0.6154(2)
H83_4 H 0.9154 0.1333 0.6046
C142_4 C 0.9826(7) 0.2714(9) 0.62437(17)
H84_4 H 0.9287 0.3103 0.6017
C143_4 C 0.9921(8) 0.3282(11) 0.60855(18)
C144_4 C 0.9251(6) 0.2983(9) 0.62191(17)
O34_4 O 0.4859(6) 0.5725(4) 0.43094(10)
H85_4 H 0.5697 0.6035 0.4238
C145_4 C 0.5914(11) 0.5532(7) 0.4245(2)
C146_4 C 0.6199(12) 0.6201(10) 0.4376(2)
C147_4 C 0.6191(14) 0.5037(10) 0.4294(3)
C148_4 C 0.6691(13) 0.6233(10) 0.4545(2)
O35_4 O 0.8243(6) 0.7869(5) 0.62418(11)
H86_4 H 0.7400 0.7388 0.6300
C149_4 C 0.6862(11) 0.6999(7) 0.61726(17)
C150_4 C 0.7183(9) 0.6660(7) 0.63138(18)
C151_4 C 0.6321(11) 0.6522(7) 0.60137(19)
C152_4 C 0.6871(9) 0.5823(7) 0.62564(19)
C153_4 C 0.9618(9) 0.4086(11) 0.4245(2)
C155_4 C 0.8846(10) 0.3809(14) 0.4294(3)
C156_4 C 0.9542(9) 0.3309(13) 0.4545(2)
O37_4 O 0.9626(4) 0.1757(6) 0.62418(11)
H88_4 H 0.9988 0.2600 0.6300
C158_4 C 0.9477(6) 0.2817(9) 0.63138(18)
C160_4 C 0.8952(6) 0.3129(9) 0.62564(19)
C161_4 C 0.4445(8) 0.5645(5) 0.43005(11)
C162_4 C 0.5914(12) 0.5407(8) 0.4105(3)
C163_4 C 0.6392(15) 0.6629(12) 0.43583(19)
C164_4 C 0.6140(15) 0.4917(11) 0.4140(3)
H89_4 H 0.6313 0.4906 0.4351
C165_4 C 0.6904(13) 0.6686(10) 0.4536(2)
H90_4 H 0.6790 0.6085 0.4604
C166_4 C 0.8712(10) 0.8157(7) 0.62557(17)
C167_4 C 0.6631(13) 0.7217(9) 0.6186(2)
C168_4 C 0.7187(9) 0.6555(7) 0.64378(16)
H91_4 H 0.6210 0.6265 0.5958
C169_4 C 0.6086(12) 0.6753(8) 0.6019(2)
H92_4 H 0.6767 0.5579 0.6197
C170_4 C 0.6883(9) 0.5744(7) 0.63864(18)
C172_4 C 0.9493(9) 0.4086(12) 0.4105(3)
C174_4 C 0.8777(10) 0.3860(15) 0.4140(3)
H93_4 H 0.8593 0.3687 0.4351
C175_4 C 0.9782(9) 0.3096(13) 0.4536(2)
H94_4 H 0.9295 0.3210 0.4604
C176_4 C 0.9445(7) 0.1288(10) 0.62557(17)
C178_4 C 0.9368(6) 0.2813(9) 0.64378(16)
H96_4 H 0.8812 0.3233 0.6197
C180_4 C 0.8861(6) 0.3117(9) 0.63864(18)
H97_4 H 0.4240 0.5309 0.4289
H98_4 H 0.4361 0.5729 0.4382
C181_4 C 0.4347(7) 0.5890(5) 0.41969(11)
H99_4 H 0.5825 0.5550 0.4042
C182_4 C 0.6038(14) 0.5096(10) 0.4070(3)
H100_4 H 0.6272 0.6750 0.4297
C183_4 C 0.6798(13) 0.6937(9) 0.4430(2)
H101_4 H 0.6202 0.4685 0.4111
H102_4 H 0.7132 0.6865 0.4597
H103_4 H 0.8870 0.7974 0.6260
H104_4 H 0.8838 0.8370 0.6183
C184_4 C 0.8784(10) 0.8418(7) 0.6373(2)
C185_4 C 0.6237(12) 0.7081(9) 0.6112(2)
H105_4 H 0.6731 0.7465 0.6244
C186_4 C 0.7075(10) 0.6132(7) 0.64751(17)
H106_4 H 0.7272 0.6790 0.6500
H107_4 H 0.5840 0.6694 0.5963
H108_4 H 0.6766 0.5439 0.6417
H111_4 H 0.9725 0.4175 0.4042
C188_4 C 0.9058(10) 0.3962(14) 0.4070(3)
H113_4 H 0.8483 0.3798 0.4111
H114_4 H 0.9733 0.2868 0.4597
H115_4 H 0.9104 0.1130 0.6260
H116_4 H 0.9532 0.1162 0.6183
C190_4 C 0.9634(7) 0.1216(10) 0.6373(2)
C192_4 C 0.9057(7) 0.2925(10) 0.64751(17)
H118_4 H 0.9518 0.2728 0.6500
H120_4 H 0.8673 0.3234 0.6417
C193_4 C 0.4675(7) 0.6103(5) 0.41042(13)
C194_4 C 0.3943(6) 0.5922(4) 0.41853(12)
H121_4 H 0.6037 0.5029 0.3983
H122_4 H 0.6979 0.7259 0.4414
C195_4 C 0.9243(11) 0.8770(8) 0.6412(2)
C196_4 C 0.8462(11) 0.8314(7) 0.6458(2)
H123_4 H 0.6060 0.7226 0.6128
H124_4 H 0.7121 0.6081 0.6561
H125_4 H 0.8992 0.3963 0.3983
C199_4 C 0.9527(7) 0.0757(11) 0.6412(2)
C200_4 C 0.9852(8) 0.1538(11) 0.6458(2)
H128_4 H 0.8960 0.2879 0.6561
H129_4 H 0.4952 0.6092 0.4110
C201_4 C 0.4621(6) 0.6335(4) 0.40009(11)
C202_4 C 0.3898(6) 0.6146(5) 0.40838(13)
H130_4 H 0.3707 0.5790 0.4248
H131_4 H 0.9507 0.8865 0.6360
C203_4 C 0.9270(9) 0.8960(6) 0.65328(17)
C204_4 C 0.8511(9) 0.8584(6) 0.65779(16)
H132_4 H 0.8171 0.8045 0.6444
H135_4 H 0.9358 0.0493 0.6360
C207_4 C 0.9690(7) 0.0730(9) 0.65328(17)
H136_4 H 0.9874 0.1829 0.6444
H137_4 H 0.4849 0.6467 0.3937
C209_4 C 0.4213(6) 0.6366(4) 0.39959(11)
H138_4 H 0.3614 0.6143 0.4075
H139_4 H 0.9574 0.9172 0.6560
C210_4 C 0.8955(9) 0.8897(6) 0.66117(15)
H140_4 H 0.8253 0.8540 0.6626
H143_4 H 0.9598 0.0426 0.6560
C212_4 C 0.9942(7) 0.1045(9) 0.66117(15)
C213_4 C 0.4162(9) 0.6635(8) 0.38920(11)
C214_4 C 0.9030(14) 0.9184(11) 0.6719(2)
O44_4 O 0.9431(7) 0.9365(6) 0.67579(8)
O48_4 O 0.9934(4) 0.0569(7) 0.67579(8)
C19_4 C 0.4945(5) 0.9755(7) 0.45893(15)
H13_4 H 0.5171 0.9765 0.4646
C23_4 C 0.4728(5) 0.9397(6) 0.45016(16)
C24_4 C 0.4418(7) 0.9831(7) 0.43991(17)
H15_4 H 0.4741 0.9121 0.4511
C29_4 C 0.4485(7) 0.9456(6) 0.43969(17)
C30_4 C 0.4120(8) 0.9914(7) 0.43026(19)
O11_4 O 0.4275(4) 0.9134(4) 0.43094(10)
H19_4 H 0.3965 0.9662 0.4238
C38_4 C 0.3799(10) 0.9998(7) 0.4376(2)
C41_4 C 0.3001(7) 0.9863(8) 0.61726(17)
C43_4 C 0.3478(7) 0.9799(9) 0.60137(19)
C45_4 C 0.4355(5) 0.8800(6) 0.43005(11)
C47_4 C 0.3371(12) 0.9763(9) 0.43583(19)
C51_4 C 0.2783(9) 0.9414(10) 0.6186(2)
H23_4 H 0.3735 0.9945 0.5958
C53_4 C 0.3247(8) 0.9333(9) 0.6019(2)
H25_4 H 0.4691 0.8931 0.4289
H26_4 H 0.4271 0.8632 0.4382
C55_4 C 0.4110(5) 0.8457(5) 0.41969(11)
H28_4 H 0.3250 0.9522 0.4297
C57_4 C 0.3063(9) 0.9861(9) 0.4430(2)
C59_4 C 0.2919(9) 0.9156(8) 0.6112(2)
H33_4 H 0.2535 0.9266 0.6244
H35_4 H 0.3306 0.9146 0.5963
C61_4 C 0.3897(5) 0.8572(5) 0.41042(13)
C62_4 C 0.4078(4) 0.8021(5) 0.41853(12)
H38_4 H 0.2741 0.9720 0.4414
H39_4 H 0.2774 0.8834 0.6128
H41_4 H 0.3908 0.8860 0.4110
C65_4 C 0.3665(4) 0.8286(5) 0.40009(11)
C66_4 C 0.3854(5) 0.7752(4) 0.40838(13)
H42_4 H 0.4210 0.7917 0.4248
C68_4 C 0.1416(6) 0.9927(7) 0.65779(16)
H45_4 H 0.3533 0.8382 0.3937
C69_4 C 0.3634(4) 0.7847(5) 0.39959(11)
H46_4 H 0.3857 0.7471 0.4075
H48_4 H 0.1460 0.9713 0.6626
C71_4 C 0.3365(8) 0.7527(5) 0.38920(11)
C72_4 C 0.0816(11) 0.9846(9) 0.6719(2)
O15_5 O 0.0555(3) 0.0072(4) 0.19764(6)
O22_5 O 0.0591(4) 0.1522(3) 0.20349(8)
O24_5 O 0.1590(3) 0.0739(4) 0.19301(8)
O25_5 O 0.1297(3) 0.0080(5) 0.21581(8)
O27_5 O 0.1291(4) 0.0066(5) 0.18133(8)
C74_5 C 0.0341(8) 0.1532(5) 0.21234(14)
C75_5 C 0.1556(6) 0.0477(8) 0.18396(15)
C78_5 C 0.0567(8) 0.1948(6) 0.22129(13)
C79_5 C 0.1927(6) 0.0753(8) 0.17374(12)
C83_5 C 0.0339(6) 0.2003(4) 0.23236(14)
C84_5 C 0.0978(8) 0.2324(6) 0.21794(12)
C85_5 C 0.1951(5) 0.0536(7) 0.16223(15)
C86_5 C 0.2248(5) 0.1200(7) 0.17489(13)
C91_5 C 0.0546(8) 0.2398(6) 0.23984(14)
H51_5 H 0.0039 0.1761 0.2346
H52_5 H 0.1121 0.2327 0.2102
C92_5 C 0.1195(8) 0.2717(5) 0.22630(16)
C93_5 C 0.2275(7) 0.0773(9) 0.15384(15)
H53_5 H 0.1733 0.0222 0.1607
H54_5 H 0.2241 0.1356 0.1824
C94_5 C 0.2589(5) 0.1453(7) 0.16607(16)
C98_5 C 0.0977(8) 0.2746(6) 0.23689(14)
H59_5 H 0.0388 0.2425 0.2470
H60_5 H 0.1496 0.2961 0.2244
C99_5 C 0.2601(6) 0.1244(8) 0.15484(16)
H61_5 H 0.2290 0.0613 0.1466
H62_5 H 0.2812 0.1766 0.1677
C102_5 C 0.1243(8) 0.3165(5) 0.24503(14)
C103_5 C 0.2936(6) 0.1519(8) 0.14485(15)
H67_5 H 0.1357 0.3448 0.2399
H68_5 H 0.1512 0.3163 0.2489
O31_5 O 0.0947(6) 0.3156(4) 0.25454(11)
H69_5 H 0.3254 0.1647 0.1481
H70_5 H 0.2892 0.1780 0.1424
O32_5 O 0.2872(4) 0.1241(6) 0.13441(13)
C106_5 C 0.1111(9) 0.3522(7) 0.26215(16)
C107_5 C 0.3236(7) 0.1393(9) 0.12588(17)
C111_5 C 0.1561(9) 0.3863(7) 0.26225(14)
C112_5 C 0.0821(10) 0.3467(7) 0.27302(18)
C113_5 C 0.3578(7) 0.1857(9) 0.12560(15)
C114_5 C 0.3151(7) 0.1104(10) 0.11489(18)
C120_5 C 0.1703(8) 0.4221(6) 0.27167(19)
H74_5 H 0.1774 0.3865 0.2563
C121_5 C 0.0948(10) 0.3808(7) 0.28188(18)
C122_5 C 0.0335(9) 0.3103(6) 0.27482(17)
H75_5 H 0.3568 0.2073 0.1313
C123_5 C 0.3936(6) 0.1998(8) 0.11683(16)
C124_5 C 0.3502(7) 0.1254(10) 0.10658(17)
C125_5 C 0.2771(8) 0.0636(12) 0.1125(2)
C133_5 C 0.1376(13) 0.4165(10) 0.2821(2)
H79_5 H 0.2000 0.4488 0.2713
C134_5 C 0.0619(9) 0.3779(6) 0.29104(17)
H80_5 H 0.0230 0.2851 0.2684
C135_5 C 0.0051(11) 0.3306(7) 0.27522(18)
C136_5 C 0.0350(9) 0.2935(7) 0.28858(17)
H81_5 H 0.4212 0.2287 0.1178
C137_5 C 0.3877(6) 0.1696(9) 0.10636(17)
C138_5 C 0.3419(7) 0.0873(11) 0.09693(19)
H82_5 H 0.2515 0.0536 0.1188
C139_5 C 0.2623(9) 0.0619(13) 0.1002(3)
C140_5 C 0.2998(7) 0.0356(12) 0.1132(2)
C148_5 C 0.0024(13) 0.2900(10) 0.1212(2)
O35_5 O 0.1576(6) 0.4536(5) 0.29085(11)
H86_5 H 0.0733 0.4055 0.2967
C149_5 C 0.0195(11) 0.3666(7) 0.28393(17)
C150_5 C 0.0516(9) 0.3327(7) 0.29805(18)
C152_5 C 0.0204(9) 0.2490(7) 0.29231(19)
O36_5 O 0.4199(4) 0.1808(6) 0.09761(10)
H87_5 H 0.3671 0.0970 0.0905
C153_5 C 0.2951(9) 0.0753(11) 0.0912(2)
C154_5 C 0.3335(7) 0.0468(12) 0.1043(2)
C155_5 C 0.2179(10) 0.0476(14) 0.0961(3)
C159_5 C 0.3534(9) 0.0346(11) 0.26804(19)
C165_5 C 0.0237(13) 0.3353(10) 0.1203(2)
H90_5 H 0.0123 0.2752 0.1271
C166_5 C 0.2045(10) 0.4824(7) 0.29224(17)
C168_5 C 0.0520(9) 0.3222(7) 0.31045(16)
H92_5 H 0.0100 0.2246 0.2864
C170_5 C 0.0216(9) 0.2411(7) 0.30531(18)
C171_5 C 0.4533(6) 0.2222(8) 0.09672(11)
C172_5 C 0.2826(9) 0.0753(12) 0.0772(3)
C173_5 C 0.3570(9) 0.0275(15) 0.10250(19)
C174_5 C 0.2110(10) 0.0527(15) 0.0807(3)
H93_5 H 0.1926 0.0354 0.1018
C177_5 C 0.3919(10) 0.0036(13) 0.2853(2)
H95_5 H 0.3388 0.0457 0.2625
C179_5 C 0.4000(9) 0.0581(12) 0.2686(2)
C183_5 C 0.0131(13) 0.3604(9) 0.1097(2)
H102_5 H 0.0465 0.3532 0.1264
H103_5 H 0.2203 0.4641 0.2927
H104_5 H 0.2171 0.5037 0.2850
C184_5 C 0.2117(10) 0.5085(7) 0.3040(2)
H105_5 H 0.0064 0.4132 0.2911
C186_5 C 0.0408(10) 0.2799(7) 0.31418(17)
H106_5 H 0.0605 0.3457 0.3167
H108_5 H 0.0099 0.2106 0.3084
H109_5 H 0.4402 0.2427 0.0956
H110_5 H 0.4701 0.2306 0.1049
C187_5 C 0.4876(5) 0.2320(7) 0.08636(11)
H111_5 H 0.3058 0.0842 0.0709
C188_5 C 0.2391(10) 0.0629(14) 0.0737(3)
H112_5 H 0.3811 0.0395 0.0964
H113_5 H 0.1816 0.0465 0.0778
C191_5 C 0.4177(8) 0.0430(12) 0.2779(2)
H119_5 H 0.4187 0.0827 0.2630
H122_5 H 0.0312 0.3926 0.1081
C195_5 C 0.2576(11) 0.5437(8) 0.3079(2)
C196_5 C 0.1795(11) 0.4981(7) 0.3125(2)
H124_5 H 0.0454 0.2748 0.3228
C197_5 C 0.4761(5) 0.1992(7) 0.07709(13)
C198_5 C 0.5312(5) 0.2724(6) 0.08520(12)
H125_5 H 0.2325 0.0630 0.0650
H127_5 H 0.4499 0.0607 0.2795
H131_5 H 0.2840 0.5532 0.3027
C203_5 C 0.2603(9) 0.5627(6) 0.31995(17)
C204_5 C 0.1844(9) 0.5251(6) 0.32446(16)
H132_5 H 0.1504 0.4712 0.3111
H133_5 H 0.4473 0.1715 0.0777
C205_5 C 0.5047(5) 0.2046(6) 0.06676(11)
C206_5 C 0.5581(4) 0.2769(6) 0.07505(13)
H134_5 H 0.5416 0.2960 0.0915
H139_5 H 0.2907 0.5839 0.3227
C210_5 C 0.2288(9) 0.5564(6) 0.32784(15)
H140_5 H 0.1586 0.5207 0.3293
H141_5 H 0.4951 0.1818 0.0604
C211_5 C 0.5486(5) 0.2454(6) 0.06626(11)
H142_5 H 0.5862 0.3053 0.0742
C214_5 C 0.2363(14) 0.5851(11) 0.3386(2)
C215_5 C 0.5806(5) 0.2505(9) 0.05587(11)
O44_5 O 0.2764(7) 0.6032(6) 0.34246(8)
O28_5 O 0.0930(3) 0.9409(4) 0.20349(8)
C76_5 C 0.1190(6) 0.9659(8) 0.21234(14)
C80_5 C 0.1380(5) 0.9433(8) 0.22129(13)
C87_5 C 0.1663(4) 0.9661(6) 0.23236(14)
C88_5 C 0.1345(5) 0.9022(8) 0.21794(12)
C95_5 C 0.1851(5) 0.9454(8) 0.23984(14)
H55_5 H 0.1721 0.9961 0.2346
H56_5 H 0.1205 0.8879 0.2102
C96_5 C 0.1521(6) 0.8805(8) 0.22630(16)
C100_5 C 0.1768(6) 0.9023(8) 0.23689(14)
H63_5 H 0.2036 0.9612 0.2470
H64_5 H 0.1464 0.8504 0.2244
C104_5 C 0.1921(6) 0.8757(8) 0.24503(14)
H71_5 H 0.2090 0.8643 0.2399
H72_5 H 0.1650 0.8488 0.2489
O33_5 O 0.2208(4) 0.9053(6) 0.25454(11)
C108_5 C 0.2410(6) 0.8889(9) 0.26215(16)
C115_5 C 0.2301(6) 0.8439(9) 0.26225(14)
C116_5 C 0.2645(7) 0.9179(10) 0.27302(18)
C126_5 C 0.2517(6) 0.8297(8) 0.27167(19)
H76_5 H 0.2090 0.8226 0.2563
C127_5 C 0.2859(7) 0.9052(10) 0.28188(18)
C128_5 C 0.2767(7) 0.9665(9) 0.27482(17)
C141_5 C 0.2788(8) 0.8624(13) 0.2821(2)
H83_5 H 0.2487 0.8000 0.2713
C142_5 C 0.3159(7) 0.9381(9) 0.29104(17)
H84_5 H 0.2620 0.9770 0.2684
C143_5 C 0.3254(8) 0.9949(11) 0.27522(18)
C144_5 C 0.2584(6) 0.9650(9) 0.28858(17)
C156_5 C 0.2875(9) 0.9976(13) 0.1212(2)
O37_5 O 0.2959(4) 0.8424(6) 0.29085(11)
H88_5 H 0.3321 0.9267 0.2967
C157_5 C 0.3470(8) 0.9805(11) 0.28393(17)
C158_5 C 0.2810(6) 0.9484(9) 0.29805(18)
C160_5 C 0.2285(6) 0.9796(9) 0.29231(19)
C175_5 C 0.3115(9) 0.9763(13) 0.1203(2)
H94_5 H 0.2628 0.9877 0.1271
C176_5 C 0.2778(7) 0.7955(10) 0.29224(17)
C178_5 C 0.2701(6) 0.9480(9) 0.31045(16)
H96_5 H 0.2145 0.9900 0.2864
C180_5 C 0.2194(6) 0.9784(9) 0.30531(18)
C189_5 C 0.3472(9) 0.9869(13) 0.1097(2)
H114_5 H 0.3066 0.9535 0.1264
H115_5 H 0.2437 0.7797 0.2927
H116_5 H 0.2865 0.7829 0.2850
C190_5 C 0.2967(7) 0.7883(10) 0.3040(2)
H117_5 H 0.4067 0.9936 0.2911
C192_5 C 0.2390(7) 0.9592(10) 0.31418(17)
H118_5 H 0.2851 0.9395 0.3167
H120_5 H 0.2006 0.9901 0.3084
H126_5 H 0.3613 0.9688 0.1081
C199_5 C 0.2860(7) 0.7424(11) 0.3079(2)
C200_5 C 0.3185(8) 0.8205(11) 0.3125(2)
H128_5 H 0.2293 0.9546 0.3228
H135_5 H 0.2691 0.7160 0.3027
C207_5 C 0.3023(7) 0.7397(9) 0.31995(17)
C208_5 C 0.3406(7) 0.8156(9) 0.32446(16)
H136_5 H 0.3207 0.8496 0.3111
H143_5 H 0.2931 0.7093 0.3227
C212_5 C 0.3275(7) 0.7712(9) 0.32784(15)
H144_5 H 0.3620 0.8414 0.3293
C216_5 C 0.3487(9) 0.7637(14) 0.3386(2)
O48_5 O 0.3267(4) 0.7236(7) 0.34246(8)
O14_5 O 0.9928(4) 0.0484(2) 0.19764(6)
O18_5 O 0.9261(4) 0.0852(3) 0.19301(8)
O19_5 O 0.9920(5) 0.1218(4) 0.21581(8)
O21_5 O 0.9934(5) 0.1226(3) 0.18133(8)
C73_5 C 0.9523(8) 0.1080(5) 0.18396(15)
C77_5 C 0.9247(8) 0.1175(5) 0.17374(12)
C81_5 C 0.9464(7) 0.1416(5) 0.16223(15)
C82_5 C 0.8800(7) 0.1049(5) 0.17489(13)
C89_5 C 0.9227(9) 0.1503(6) 0.15384(15)
H49_5 H 0.9778 0.1512 0.1607
H50_5 H 0.8644 0.0886 0.1824
C90_5 C 0.8547(7) 0.1137(5) 0.16607(16)
C97_5 C 0.8756(8) 0.1358(6) 0.15484(16)
H57_5 H 0.9387 0.1678 0.1466
H58_5 H 0.8234 0.1047 0.1677
C101_5 C 0.8481(8) 0.1418(6) 0.14485(15)
H65_5 H 0.8353 0.1608 0.1481
H66_5 H 0.8220 0.1113 0.1424
O30_5 O 0.8759(6) 0.1632(4) 0.13441(13)
C105_5 C 0.8607(9) 0.1844(6) 0.12588(17)
C109_5 C 0.8143(9) 0.1722(5) 0.12560(15)
C110_5 C 0.8896(10) 0.2048(7) 0.11489(18)
H73_5 H 0.7927 0.1496 0.1313
C117_5 C 0.8002(8) 0.1939(5) 0.11683(16)
C118_5 C 0.8746(10) 0.2249(7) 0.10658(17)
C119_5 C 0.9364(12) 0.2136(9) 0.1125(2)
H77_5 H 0.7713 0.1926 0.1178
C129_5 C 0.8304(9) 0.2182(7) 0.10636(17)
C130_5 C 0.9127(11) 0.2547(8) 0.09693(19)
H78_5 H 0.9464 0.1980 0.1188
C131_5 C 0.9381(13) 0.2005(9) 0.1002(3)
C132_5 C 0.9644(12) 0.2643(10) 0.1132(2)
O34_5 O 0.8192(6) 0.2392(4) 0.09761(10)
H85_5 H 0.9030 0.2702 0.0905
C145_5 C 0.9247(11) 0.2199(7) 0.0912(2)
C146_5 C 0.9532(12) 0.2868(10) 0.1043(2)
C147_5 C 0.9524(14) 0.1704(10) 0.0961(3)
C151_5 C 0.9654(11) 0.3189(7) 0.26804(19)
C161_5 C 0.7778(8) 0.2312(5) 0.09672(11)
C162_5 C 0.9247(12) 0.2074(8) 0.0772(3)
C163_5 C 0.9725(15) 0.3296(12) 0.10250(19)
C164_5 C 0.9473(15) 0.1584(11) 0.0807(3)
H89_5 H 0.9646 0.1573 0.1018
C167_5 C 0.9964(13) 0.3884(9) 0.2853(2)
H91_5 H 0.9543 0.2932 0.2625
C169_5 C 0.9419(12) 0.3420(8) 0.2686(2)
H97_5 H 0.7573 0.1976 0.0956
H98_5 H 0.7694 0.2396 0.1049
C181_5 C 0.7680(7) 0.2557(5) 0.08636(11)
H99_5 H 0.9158 0.2217 0.0709
C182_5 C 0.9371(14) 0.1763(10) 0.0737(3)
H100_5 H 0.9605 0.3417 0.0964
H101_5 H 0.9535 0.1352 0.0778
C185_5 C 0.9570(12) 0.3748(9) 0.2779(2)
H107_5 H 0.9173 0.3361 0.2630
C193_5 C 0.8008(7) 0.2770(5) 0.07709(13)
C194_5 C 0.7276(6) 0.2589(4) 0.08520(12)
H121_5 H 0.9370 0.1696 0.0650
H123_5 H 0.9393 0.3893 0.2795
H129_5 H 0.8285 0.2759 0.0777
C201_5 C 0.7954(6) 0.3002(4) 0.06676(11)
C202_5 C 0.7231(6) 0.2813(5) 0.07505(13)
H130_5 H 0.7040 0.2457 0.0915
H137_5 H 0.8182 0.3134 0.0604
C209_5 C 0.7546(6) 0.3033(4) 0.06626(11)
H138_5 H 0.6947 0.2810 0.0742
C213_5 C 0.7495(9) 0.3302(8) 0.05587(11)
O1_5 O 0.9516(2) 0.9445(3) 0.19764(6)
O2_5 O 0.9148(3) 0.8410(3) 0.19301(8)
O3_5 O 0.8782(4) 0.8703(3) 0.21581(8)
C1_5 C 0.8920(5) 0.8444(6) 0.18396(15)
C2_5 C 0.8468(5) 0.8810(6) 0.21234(14)
O5_5 O 0.8774(3) 0.8709(4) 0.18133(8)
O6_5 O 0.8478(3) 0.9070(3) 0.20349(8)
C3_5 C 0.8825(5) 0.8073(6) 0.17374(12)
C4_5 C 0.8052(6) 0.8620(5) 0.22129(13)
C5_5 C 0.8584(5) 0.8049(5) 0.16223(15)
C6_5 C 0.8951(5) 0.7752(5) 0.17489(13)
C7_5 C 0.7997(4) 0.8337(4) 0.23236(14)
C8_5 C 0.7676(6) 0.8655(5) 0.21794(12)
C9_5 C 0.8497(6) 0.7725(7) 0.15384(15)
H1_5 H 0.8488 0.8267 0.1607
H2_5 H 0.9114 0.7759 0.1824
C10_5 C 0.8863(5) 0.7411(5) 0.16607(16)
C11_5 C 0.7602(6) 0.8149(5) 0.23984(14)
H3_5 H 0.8239 0.8279 0.2346
H4_5 H 0.7673 0.8795 0.2102
C12_5 C 0.7283(5) 0.8479(6) 0.22630(16)
C13_5 C 0.8642(6) 0.7399(6) 0.15484(16)
H5_5 H 0.8322 0.7710 0.1466
H6_5 H 0.8953 0.7188 0.1677
C14_5 C 0.7254(6) 0.8232(6) 0.23689(14)
H7_5 H 0.7575 0.7964 0.2470
H8_5 H 0.7039 0.8536 0.2244
C15_5 C 0.8582(6) 0.7064(6) 0.14485(15)
C16_5 C 0.6835(5) 0.8079(6) 0.24503(14)
H9_5 H 0.8392 0.6746 0.1481
H10_5 H 0.8887 0.7108 0.1424
O9_5 O 0.8368(4) 0.7128(4) 0.13441(13)
H11_5 H 0.6552 0.7910 0.2399
H12_5 H 0.6837 0.8350 0.2489
O10_5 O 0.6844(4) 0.7792(4) 0.25454(11)
C17_5 C 0.8156(6) 0.6764(7) 0.12588(17)
C18_5 C 0.6478(7) 0.7590(6) 0.26215(16)
C19_5 C 0.8278(5) 0.6422(7) 0.12560(15)
C20_5 C 0.7952(7) 0.6849(7) 0.11489(18)
C21_5 C 0.6137(7) 0.7699(6) 0.26225(14)
C22_5 C 0.6533(7) 0.7355(7) 0.27302(18)
H13_5 H 0.8504 0.6432 0.1313
C23_5 C 0.8061(5) 0.6064(6) 0.11683(16)
C24_5 C 0.7751(7) 0.6498(7) 0.10658(17)
C25_5 C 0.7864(9) 0.7229(8) 0.1125(2)
C26_5 C 0.5779(6) 0.7483(6) 0.27167(19)
H14_5 H 0.6135 0.7910 0.2563
C27_5 C 0.6192(7) 0.7141(7) 0.28188(18)
C28_5 C 0.6897(6) 0.7233(7) 0.27482(17)
H15_5 H 0.8074 0.5788 0.1178
C29_5 C 0.7818(7) 0.6123(6) 0.10636(17)
C30_5 C 0.7453(8) 0.6581(7) 0.09693(19)
H16_5 H 0.8020 0.7485 0.1188
C31_5 C 0.7995(9) 0.7377(9) 0.1002(3)
C32_5 C 0.7357(10) 0.7002(7) 0.1132(2)
C33_5 C 0.5835(10) 0.7212(8) 0.2821(2)
H17_5 H 0.5512 0.7513 0.2713
C34_5 C 0.6221(6) 0.6841(7) 0.29104(17)
H18_5 H 0.7149 0.7380 0.2684
C35_5 C 0.6694(7) 0.6746(8) 0.27522(18)
C36_5 C 0.7065(7) 0.7416(6) 0.28858(17)
O11_5 O 0.7608(4) 0.5801(4) 0.09761(10)
H19_5 H 0.7298 0.6329 0.0905
C37_5 C 0.7801(7) 0.7049(9) 0.0912(2)
C38_5 C 0.7132(10) 0.6665(7) 0.1043(2)
C39_5 C 0.8296(10) 0.7821(10) 0.0961(3)
C40_5 C 0.7100(10) 0.7125(9) 0.1212(2)
O12_5 O 0.5464(5) 0.7041(4) 0.29085(11)
H20_5 H 0.5945 0.6679 0.2967
C41_5 C 0.6334(7) 0.6530(8) 0.28393(17)
C42_5 C 0.6673(7) 0.7190(6) 0.29805(18)
C43_5 C 0.6811(7) 0.6466(9) 0.26804(19)
C44_5 C 0.7510(7) 0.7715(6) 0.29231(19)
C45_5 C 0.7688(5) 0.5467(6) 0.09672(11)
C46_5 C 0.7926(8) 0.7174(9) 0.0772(3)
C47_5 C 0.6704(12) 0.6430(9) 0.10250(19)
C48_5 C 0.8416(11) 0.7890(10) 0.0807(3)
H21_5 H 0.8427 0.8074 0.1018
C49_5 C 0.6647(10) 0.6885(9) 0.1203(2)
H22_5 H 0.7248 0.7372 0.1271
C50_5 C 0.5176(7) 0.7222(7) 0.29224(17)
C51_5 C 0.6116(9) 0.6081(10) 0.2853(2)
C52_5 C 0.6778(7) 0.7299(6) 0.31045(16)
H23_5 H 0.7068 0.6612 0.2625
C53_5 C 0.6580(8) 0.6000(9) 0.2686(2)
H24_5 H 0.7754 0.7855 0.2864
C54_5 C 0.7589(7) 0.7806(6) 0.30531(18)
H25_5 H 0.8024 0.5598 0.0956
H26_5 H 0.7604 0.5299 0.1049
C55_5 C 0.7443(5) 0.5124(5) 0.08636(11)
H27_5 H 0.7783 0.6942 0.0709
C56_5 C 0.8237(10) 0.7609(10) 0.0737(3)
H28_5 H 0.6583 0.6189 0.0964
C57_5 C 0.6396(9) 0.6528(9) 0.1097(2)
H29_5 H 0.8648 0.8184 0.0778
H30_5 H 0.6468 0.6934 0.1264
H31_5 H 0.5359 0.7563 0.2927
H32_5 H 0.4963 0.7135 0.2850
C58_5 C 0.4915(7) 0.7033(7) 0.3040(2)
C59_5 C 0.6252(9) 0.5823(8) 0.2779(2)
H33_5 H 0.5868 0.5933 0.2911
C60_5 C 0.7201(7) 0.7610(7) 0.31418(17)
H34_5 H 0.6543 0.7149 0.3167
H35_5 H 0.6639 0.5813 0.2630
H36_5 H 0.7894 0.7994 0.3084
C61_5 C 0.7230(5) 0.5239(5) 0.07709(13)
C62_5 C 0.7411(4) 0.4688(5) 0.08520(12)
H37_5 H 0.8304 0.7675 0.0650
H38_5 H 0.6074 0.6387 0.1081
C63_5 C 0.4563(8) 0.7140(7) 0.3079(2)
C64_5 C 0.5019(7) 0.6815(8) 0.3125(2)
H39_5 H 0.6107 0.5501 0.2795
H40_5 H 0.7252 0.7707 0.3228
H41_5 H 0.7241 0.5527 0.0777
C65_5 C 0.6998(4) 0.4953(5) 0.06676(11)
C66_5 C 0.7187(5) 0.4419(4) 0.07505(13)
H42_5 H 0.7543 0.4584 0.0915
H43_5 H 0.4468 0.7309 0.3027
C67_5 C 0.4373(6) 0.6977(7) 0.31995(17)
C68_5 C 0.4749(6) 0.6594(7) 0.32446(16)
H44_5 H 0.5288 0.6793 0.3111
H45_5 H 0.6866 0.5049 0.0604
C69_5 C 0.6967(4) 0.4514(5) 0.06626(11)
H46_5 H 0.7190 0.4138 0.0742
H47_5 H 0.4161 0.7069 0.3227
C70_5 C 0.4436(6) 0.6725(7) 0.32784(15)
H48_5 H 0.4793 0.6380 0.3293
C71_5 C 0.6698(8) 0.4194(5) 0.05587(11)
C72_5 C 0.4149(11) 0.6513(9) 0.3386(2)
O13_5 O 0.3968(6) 0.6733(4) 0.34246(8)
C214_6 C 0.5697(14) 0.2517(11) 0.0052(2)
O44_6 O 0.6098(7) 0.2698(6) 0.00912(8)
H67_6 H 0.4691 0.0114 0.9065
C106_6 C 0.4445(9) 0.0188(7) 0.92881(16)
C111_6 C 0.4895(9) 0.0529(7) 0.92891(14)
C112_6 C 0.4155(10) 0.0133(7) 0.93968(18)
C120_6 C 0.5037(8) 0.0887(6) 0.93833(19)
H74_6 H 0.5108 0.0531 0.9229
C121_6 C 0.4282(10) 0.0474(7) 0.94854(18)
C133_6 C 0.4710(13) 0.0831(10) 0.9487(2)
H79_6 H 0.5334 0.1154 0.9379
C134_6 C 0.3953(9) 0.0445(6) 0.95770(17)
O35_6 O 0.4910(6) 0.1202(5) 0.95751(11)
H86_6 H 0.4067 0.0721 0.9633
C149_6 C 0.3529(11) 0.0332(7) 0.95059(17)
C165_6 C 0.3571(13) 0.0019(10) 0.7869(2)
C166_6 C 0.5379(10) 0.1490(7) 0.95890(17)
C167_6 C 0.3298(13) 0.0550(9) 0.9519(2)
C169_6 C 0.2753(12) 0.0086(8) 0.9352(2)
H100_6 H 0.2939 0.0083 0.7630
C183_6 C 0.3465(13) 0.0270(9) 0.7763(2)
H102_6 H 0.3799 0.0198 0.7930
H103_6 H 0.5537 0.1307 0.9593
H104_6 H 0.5505 0.1703 0.9516
C184_6 C 0.5451(10) 0.1751(7) 0.9706(2)
C185_6 C 0.2904(12) 0.0414(9) 0.9445(2)
H105_6 H 0.3398 0.0798 0.9577
H106_6 H 0.3939 0.0123 0.9833
H107_6 H 0.2507 0.0027 0.9296
H122_6 H 0.3646 0.0592 0.7747
C195_6 C 0.5910(11) 0.2103(8) 0.9745(2)
C196_6 C 0.5129(11) 0.1647(7) 0.9791(2)
H123_6 H 0.2727 0.0559 0.9461
H131_6 H 0.6174 0.2198 0.9693
C203_6 C 0.5937(9) 0.2293(6) 0.98661(17)
C204_6 C 0.5178(9) 0.1917(6) 0.99112(16)
H132_6 H 0.4838 0.1378 0.9777
H139_6 H 0.6241 0.2505 0.9893
C210_6 C 0.5622(9) 0.2230(6) 0.99450(15)
H140_6 H 0.4920 0.1873 0.9959
C216_6 C 0.6821(9) 0.4303(14) 0.0052(2)
O48_6 O 0.6601(4) 0.3902(7) 0.00912(8)
O1_6 O 0.2850(2) 0.6111(3) 0.86430(6)
O2_6 O 0.2482(3) 0.5076(3) 0.85967(8)
O3_6 O 0.2116(4) 0.5369(3) 0.88247(8)
C1_6 C 0.2254(5) 0.5110(6) 0.85062(15)
C2_6 C 0.1802(5) 0.5476(6) 0.87900(14)
O5_6 O 0.2108(3) 0.5375(4) 0.84799(8)
O6_6 O 0.1812(3) 0.5736(3) 0.87015(8)
C3_6 C 0.2159(5) 0.4739(6) 0.84040(12)
C4_6 C 0.1386(6) 0.5286(5) 0.88795(13)
C5_6 C 0.1918(5) 0.4715(5) 0.82889(15)
C6_6 C 0.2285(5) 0.4418(5) 0.84155(13)
C7_6 C 0.1331(4) 0.5003(4) 0.89902(14)
C8_6 C 0.1010(6) 0.5321(5) 0.88460(12)
C9_6 C 0.1831(6) 0.4391(7) 0.82050(15)
H1_6 H 0.1822 0.4933 0.8273
H2_6 H 0.2448 0.4425 0.8490
C10_6 C 0.2197(5) 0.4077(5) 0.83273(16)
C11_6 C 0.0936(6) 0.4815(5) 0.90650(14)
H3_6 H 0.1573 0.4945 0.9012
H4_6 H 0.1007 0.5461 0.8768
C12_6 C 0.0617(5) 0.5145(6) 0.89296(16)
C13_6 C 0.1976(6) 0.4065(6) 0.82150(16)
H5_6 H 0.1656 0.4376 0.8132
H6_6 H 0.2287 0.3854 0.8343
C14_6 C 0.0588(6) 0.4898(6) 0.90355(14)
H7_6 H 0.0909 0.4630 0.9136
H8_6 H 0.0373 0.5202 0.8910
C15_6 C 0.1916(6) 0.3730(6) 0.81151(15)
C16_6 C 0.0169(5) 0.4745(6) 0.91169(14)
H9_6 H 0.1726 0.3412 0.8147
H10_6 H 0.2221 0.3774 0.8090
O9_6 O 0.1702(4) 0.3794(4) 0.80107(13)
H12_6 H 0.0171 0.5016 0.9155
O10_6 O 0.0178(4) 0.4458(4) 0.92120(11)
C17_6 C 0.1490(6) 0.3430(7) 0.79254(17)
C19_6 C 0.1612(5) 0.3088(7) 0.79226(15)
C20_6 C 0.1286(7) 0.3515(7) 0.78155(18)
H13_6 H 0.1838 0.3098 0.7979
C23_6 C 0.1395(5) 0.2730(6) 0.78349(16)
C24_6 C 0.1085(7) 0.3164(7) 0.77324(17)
C25_6 C 0.1198(9) 0.3895(8) 0.7791(2)
C28_6 C 0.0231(6) 0.3899(7) 0.94148(17)
H15_6 H 0.1408 0.2454 0.7844
C29_6 C 0.1152(7) 0.2789(6) 0.77302(17)
C30_6 C 0.0787(8) 0.3247(7) 0.76359(19)
H16_6 H 0.1354 0.4151 0.7854
C31_6 C 0.1329(9) 0.4043(9) 0.7668(3)
C32_6 C 0.0691(10) 0.3668(7) 0.7798(2)
H18_6 H 0.0483 0.4046 0.9350
C35_6 C 0.0028(7) 0.3412(8) 0.94188(18)
C36_6 C 0.0399(7) 0.4082(6) 0.95524(17)
O11_6 O 0.0942(4) 0.2467(4) 0.76427(10)
H19_6 H 0.0632 0.2995 0.7571
C37_6 C 0.1135(7) 0.3715(9) 0.7578(2)
C38_6 C 0.0466(10) 0.3331(7) 0.7709(2)
C39_6 C 0.1630(10) 0.4487(10) 0.7627(3)
C40_6 C 0.0434(10) 0.3791(9) 0.7878(2)
C42_6 C 0.0007(7) 0.3856(6) 0.96471(18)
C43_6 C 0.0145(7) 0.3132(9) 0.93470(19)
C44_6 C 0.0844(7) 0.4381(6) 0.95897(19)
C45_6 C 0.1022(5) 0.2133(6) 0.76338(11)
C46_6 C 0.1260(8) 0.3840(9) 0.7438(3)
C47_6 C 0.0038(12) 0.3096(9) 0.76916(19)
C48_6 C 0.1750(11) 0.4556(10) 0.7473(3)
H21_6 H 0.1761 0.4740 0.7684
H22_6 H 0.0582 0.4038 0.7937
C52_6 C 0.0112(7) 0.3965(6) 0.97711(16)
H23_6 H 0.0402 0.3278 0.9291
H24_6 H 0.1088 0.4521 0.9530
C54_6 C 0.0923(7) 0.4472(6) 0.97197(18)
H25_6 H 0.1358 0.2264 0.7622
H26_6 H 0.0938 0.1965 0.7715
C55_6 C 0.0777(5) 0.1790(5) 0.75302(11)
H27_6 H 0.1117 0.3608 0.7375
C56_6 C 0.1571(10) 0.4275(10) 0.7403(3)
H29_6 H 0.1982 0.4850 0.7444
C60_6 C 0.0535(7) 0.4276(7) 0.98084(17)
H36_6 H 0.1228 0.4660 0.9750
C61_6 C 0.0564(5) 0.1905(5) 0.74375(13)
C62_6 C 0.0745(4) 0.1354(5) 0.75186(12)
H37_6 H 0.1638 0.4341 0.7316
H40_6 H 0.0586 0.4373 0.9894
H41_6 H 0.0575 0.2193 0.7443
C65_6 C 0.0332(4) 0.1619(5) 0.73342(11)
C66_6 C 0.0521(5) 0.1085(4) 0.74171(13)
H42_6 H 0.0877 0.1250 0.7581
H45_6 H 0.0200 0.1715 0.7270
C69_6 C 0.0301(4) 0.1180(5) 0.73292(11)
H46_6 H 0.0524 0.0804 0.7408
C71_6 C 0.0032(8) 0.0860(5) 0.72253(11)
O14_6 O 0.3262(4) 0.7150(2) 0.86430(6)
O15_6 O 0.3889(3) 0.6738(4) 0.86430(6)
O18_6 O 0.2595(4) 0.7518(3) 0.85967(8)
O19_6 O 0.3254(5) 0.7884(4) 0.88247(8)
O21_6 O 0.3268(5) 0.7892(3) 0.84799(8)
O22_6 O 0.3925(4) 0.8188(3) 0.87015(8)
O24_6 O 0.4924(3) 0.7405(4) 0.85967(8)
O25_6 O 0.4631(3) 0.6746(5) 0.88247(8)
O27_6 O 0.4625(4) 0.6732(5) 0.84799(8)
O28_6 O 0.4264(3) 0.6075(4) 0.87015(8)
C73_6 C 0.2857(8) 0.7746(5) 0.85062(15)
C74_6 C 0.3675(8) 0.8198(5) 0.87900(14)
C75_6 C 0.4890(6) 0.7143(8) 0.85062(15)
C76_6 C 0.4524(6) 0.6325(8) 0.87900(14)
C77_6 C 0.2581(8) 0.7841(5) 0.84040(12)
C78_6 C 0.3901(8) 0.8614(6) 0.88795(13)
C79_6 C 0.5261(6) 0.7419(8) 0.84040(12)
C80_6 C 0.4714(5) 0.6099(8) 0.88795(13)
C81_6 C 0.2798(7) 0.8082(5) 0.82889(15)
C82_6 C 0.2134(7) 0.7715(5) 0.84155(13)
C83_6 C 0.3673(6) 0.8669(4) 0.89902(14)
C84_6 C 0.4312(8) 0.8990(6) 0.88460(12)
C85_6 C 0.5285(5) 0.7202(7) 0.82889(15)
C86_6 C 0.5582(5) 0.7866(7) 0.84155(13)
C87_6 C 0.4997(4) 0.6327(6) 0.89902(14)
C88_6 C 0.4679(5) 0.5688(8) 0.88460(12)
C89_6 C 0.2561(9) 0.8169(6) 0.82050(15)
H49_6 H 0.3112 0.8178 0.8273
H50_6 H 0.1978 0.7552 0.8490
C90_6 C 0.1881(7) 0.7803(5) 0.83273(16)
C91_6 C 0.3880(8) 0.9064(6) 0.90650(14)
H51_6 H 0.3373 0.8427 0.9012
H52_6 H 0.4455 0.8993 0.8768
C92_6 C 0.4529(8) 0.9383(5) 0.89296(16)
C93_6 C 0.5609(7) 0.7439(9) 0.82050(15)
H53_6 H 0.5067 0.6888 0.8273
H54_6 H 0.5575 0.8022 0.8490
C94_6 C 0.5923(5) 0.8119(7) 0.83273(16)
C95_6 C 0.5185(5) 0.6120(8) 0.90650(14)
H55_6 H 0.5055 0.6627 0.9012
H56_6 H 0.4539 0.5545 0.8768
C96_6 C 0.4855(6) 0.5471(8) 0.89296(16)
C97_6 C 0.2090(8) 0.8024(6) 0.82150(16)
H57_6 H 0.2721 0.8344 0.8132
H58_6 H 0.1568 0.7713 0.8343
C98_6 C 0.4311(8) 0.9412(6) 0.90355(14)
H59_6 H 0.3722 0.9091 0.9136
H60_6 H 0.4830 0.9627 0.8910
C99_6 C 0.5935(6) 0.7910(8) 0.82150(16)
H61_6 H 0.5624 0.7279 0.8132
H62_6 H 0.6146 0.8432 0.8343
C100_6 C 0.5102(6) 0.5689(8) 0.90355(14)
H63_6 H 0.5370 0.6278 0.9136
H64_6 H 0.4798 0.5170 0.8910
C101_6 C 0.1815(8) 0.8084(6) 0.81151(15)
C102_6 C 0.4577(8) 0.9831(5) 0.91169(14)
C103_6 C 0.6270(6) 0.8185(8) 0.81151(15)
C104_6 C 0.5255(6) 0.5423(8) 0.91169(14)
H65_6 H 0.1687 0.8274 0.8147
H66_6 H 0.1554 0.7779 0.8090
O30_6 O 0.2093(6) 0.8298(4) 0.80107(13)
H68_6 H 0.4846 0.9829 0.9155
O31_6 O 0.4281(6) 0.9822(4) 0.92120(11)
H69_6 H 0.6588 0.8313 0.8147
H70_6 H 0.6226 0.8446 0.8090
O32_6 O 0.6206(4) 0.7907(6) 0.80107(13)
H71_6 H 0.5424 0.5309 0.9065
H72_6 H 0.4984 0.5154 0.9155
O33_6 O 0.5542(4) 0.5719(6) 0.92120(11)
C105_6 C 0.1941(9) 0.8510(6) 0.79254(17)
C107_6 C 0.6570(7) 0.8059(9) 0.79254(17)
C108_6 C 0.5744(6) 0.5555(9) 0.92881(16)
C109_6 C 0.1477(9) 0.8388(5) 0.79226(15)
C110_6 C 0.2230(10) 0.8714(7) 0.78155(18)
C113_6 C 0.6912(7) 0.8523(9) 0.79226(15)
C114_6 C 0.6485(7) 0.7770(10) 0.78155(18)
C115_6 C 0.5635(6) 0.5105(9) 0.92891(14)
C116_6 C 0.5979(7) 0.5845(10) 0.93968(18)
H73_6 H 0.1261 0.8162 0.7979
C117_6 C 0.1336(8) 0.8605(5) 0.78349(16)
C118_6 C 0.2080(10) 0.8915(7) 0.77324(17)
C119_6 C 0.2698(12) 0.8802(9) 0.7791(2)
C122_6 C 0.3669(9) 0.9769(6) 0.94148(17)
H75_6 H 0.6902 0.8739 0.7979
C123_6 C 0.7270(6) 0.8664(8) 0.78349(16)
C124_6 C 0.6836(7) 0.7920(10) 0.77324(17)
C125_6 C 0.6105(8) 0.7302(12) 0.7791(2)
C126_6 C 0.5851(6) 0.4963(8) 0.93833(19)
H76_6 H 0.5424 0.4892 0.9229
C127_6 C 0.6193(7) 0.5718(10) 0.94854(18)
C128_6 C 0.6101(7) 0.6331(9) 0.94148(17)
H77_6 H 0.1047 0.8592 0.7844
C129_6 C 0.1638(9) 0.8848(7) 0.77302(17)
C130_6 C 0.2461(11) 0.9213(8) 0.76359(19)
H78_6 H 0.2798 0.8646 0.7854
C131_6 C 0.2715(13) 0.8671(9) 0.7668(3)
C132_6 C 0.2978(12) 0.9309(10) 0.7798(2)
H80_6 H 0.3564 0.9517 0.9350
C135_6 C 0.3385(11) 0.9972(7) 0.94188(18)
C136_6 C 0.3684(9) 0.9601(7) 0.95524(17)
H81_6 H 0.7546 0.8953 0.7844
C137_6 C 0.7211(6) 0.8362(9) 0.77302(17)
C138_6 C 0.6753(7) 0.7539(11) 0.76359(19)
H82_6 H 0.5849 0.7202 0.7854
C139_6 C 0.5957(9) 0.7285(13) 0.7668(3)
C140_6 C 0.6332(7) 0.7022(12) 0.7798(2)
C141_6 C 0.6122(8) 0.5290(13) 0.9487(2)
H83_6 H 0.5821 0.4666 0.9379
C142_6 C 0.6493(7) 0.6047(9) 0.95770(17)
H84_6 H 0.5954 0.6436 0.9350
C143_6 C 0.6588(8) 0.6615(11) 0.94188(18)
C144_6 C 0.5918(6) 0.6316(9) 0.95524(17)
O34_6 O 0.1526(6) 0.9058(4) 0.76427(10)
H85_6 H 0.2364 0.9368 0.7571
C145_6 C 0.2581(11) 0.8865(7) 0.7578(2)
C146_6 C 0.2866(12) 0.9534(10) 0.7709(2)
C147_6 C 0.2858(14) 0.8370(10) 0.7627(3)
C148_6 C 0.3358(13) 0.9566(10) 0.7878(2)
C150_6 C 0.3850(9) 0.9993(7) 0.96471(18)
C151_6 C 0.2988(11) 0.9855(7) 0.93470(19)
C152_6 C 0.3538(9) 0.9156(7) 0.95897(19)
O36_6 O 0.7533(4) 0.8474(6) 0.76427(10)
H87_6 H 0.7005 0.7636 0.7571
C153_6 C 0.6285(9) 0.7419(11) 0.7578(2)
C154_6 C 0.6669(7) 0.7134(12) 0.7709(2)
C155_6 C 0.5513(10) 0.7142(14) 0.7627(3)
C156_6 C 0.6209(9) 0.6642(13) 0.7878(2)
O37_6 O 0.6293(4) 0.5090(6) 0.95751(11)
H88_6 H 0.6655 0.5933 0.9633
C157_6 C 0.6804(8) 0.6471(11) 0.95059(17)
C158_6 C 0.6144(6) 0.6150(9) 0.96471(18)
C159_6 C 0.6868(9) 0.7012(11) 0.93470(19)
C160_6 C 0.5619(6) 0.6462(9) 0.95897(19)
C161_6 C 0.1112(8) 0.8978(5) 0.76338(11)
C162_6 C 0.2581(12) 0.8740(8) 0.7438(3)
C163_6 C 0.3059(15) 0.9962(12) 0.76916(19)
C164_6 C 0.2807(15) 0.8250(11) 0.7473(3)
H89_6 H 0.2980 0.8239 0.7684
H90_6 H 0.3457 0.9418 0.7937
C168_6 C 0.3854(9) 0.9888(7) 0.97711(16)
H91_6 H 0.2877 0.9598 0.9291
H92_6 H 0.3434 0.8912 0.9530
C170_6 C 0.3550(9) 0.9077(7) 0.97197(18)
C171_6 C 0.7867(6) 0.8888(8) 0.76338(11)
C172_6 C 0.6160(9) 0.7419(12) 0.7438(3)
C173_6 C 0.6904(9) 0.6941(15) 0.76916(19)
C174_6 C 0.5444(10) 0.7193(15) 0.7473(3)
H93_6 H 0.5260 0.7020 0.7684
C175_6 C 0.6449(9) 0.6429(13) 0.7869(2)
H94_6 H 0.5962 0.6543 0.7937
C176_6 C 0.6112(7) 0.4621(10) 0.95890(17)
C177_6 C 0.7253(10) 0.6702(13) 0.9519(2)
C178_6 C 0.6035(6) 0.6146(9) 0.97711(16)
H95_6 H 0.6722 0.7123 0.9291
C179_6 C 0.7334(9) 0.7247(12) 0.9352(2)
H96_6 H 0.5479 0.6566 0.9530
C180_6 C 0.5528(6) 0.6450(9) 0.97197(18)
H97_6 H 0.0907 0.8642 0.7622
H98_6 H 0.1028 0.9062 0.7715
C181_6 C 0.1014(7) 0.9223(5) 0.75302(11)
H99_6 H 0.2492 0.8883 0.7375
C182_6 C 0.2705(14) 0.8429(10) 0.7403(3)
H101_6 H 0.2869 0.8018 0.7444
C186_6 C 0.3742(10) 0.9465(7) 0.98084(17)
H108_6 H 0.3433 0.8772 0.9750
H109_6 H 0.7736 0.9093 0.7622
H110_6 H 0.8035 0.8972 0.7715
C187_6 C 0.8210(5) 0.8986(7) 0.75302(11)
H111_6 H 0.6392 0.7508 0.7375
C188_6 C 0.5725(10) 0.7295(14) 0.7403(3)
H112_6 H 0.7145 0.7061 0.7630
C189_6 C 0.6806(9) 0.6535(13) 0.7763(2)
H113_6 H 0.5150 0.7131 0.7444
H114_6 H 0.6400 0.6201 0.7930
H115_6 H 0.5771 0.4463 0.9593
H116_6 H 0.6199 0.4495 0.9516
C190_6 C 0.6301(7) 0.4549(10) 0.9706(2)
C191_6 C 0.7511(8) 0.7096(12) 0.9445(2)
H117_6 H 0.7401 0.6602 0.9577
C192_6 C 0.5724(7) 0.6258(10) 0.98084(17)
H118_6 H 0.6185 0.6061 0.9833
H119_6 H 0.7521 0.7493 0.9296
H120_6 H 0.5340 0.6567 0.9750
C193_6 C 0.1342(7) 0.9436(5) 0.74375(13)
C194_6 C 0.0610(6) 0.9255(4) 0.75186(12)
H121_6 H 0.2704 0.8362 0.7316
H124_6 H 0.3788 0.9414 0.9894
C197_6 C 0.8095(5) 0.8658(7) 0.74375(13)
C198_6 C 0.8646(5) 0.9390(6) 0.75186(12)
H125_6 H 0.5659 0.7296 0.7316
H126_6 H 0.6947 0.6354 0.7747
C199_6 C 0.6194(7) 0.4090(11) 0.9745(2)
C200_6 C 0.6519(8) 0.4871(11) 0.9791(2)
H127_6 H 0.7833 0.7273 0.9461
H128_6 H 0.5627 0.6212 0.9894
H129_6 H 0.1619 0.9425 0.7443
C201_6 C 0.1288(6) 0.9668(4) 0.73342(11)
C202_6 C 0.0565(6) 0.9479(5) 0.74171(13)
H130_6 H 0.0374 0.9123 0.7581
H133_6 H 0.7807 0.8381 0.7443
C205_6 C 0.8381(5) 0.8712(6) 0.73342(11)
C206_6 C 0.8915(4) 0.9435(6) 0.74171(13)
H134_6 H 0.8750 0.9626 0.7581
H135_6 H 0.6025 0.3826 0.9693
C207_6 C 0.6357(7) 0.4063(9) 0.98661(17)
C208_6 C 0.6740(7) 0.4822(9) 0.99112(16)
H136_6 H 0.6541 0.5162 0.9777
H137_6 H 0.1516 0.9800 0.7270
C209_6 C 0.0880(6) 0.9699(4) 0.73292(11)
H138_6 H 0.0281 0.9476 0.7408
H141_6 H 0.8285 0.8484 0.7270
C211_6 C 0.8820(5) 0.9120(6) 0.73292(11)
H142_6 H 0.9196 0.9719 0.7408
H143_6 H 0.6265 0.3759 0.9893
C212_6 C 0.6609(7) 0.4378(9) 0.99450(15)
H144_6 H 0.6954 0.5080 0.9959
C213_6 C 0.0829(9) 0.9968(8) 0.72253(11)
C215_6 C 0.9140(5) 0.9171(9) 0.72253(11)
C72_6 C 0.7483(11) 0.3179(9) 0.0052(2)
O13_6 O 0.7302(6) 0.3399(4) 0.00912(8)
H11_6 H 0.9886 0.4576 0.9065
C18_6 C 0.9812(7) 0.4256(6) 0.92881(16)
C21_6 C 0.9471(7) 0.4365(6) 0.92891(14)
C22_6 C 0.9867(7) 0.4021(7) 0.93968(18)
C26_6 C 0.9113(6) 0.4149(6) 0.93833(19)
H14_6 H 0.9469 0.4576 0.9229
C27_6 C 0.9526(7) 0.3807(7) 0.94854(18)
C33_6 C 0.9169(10) 0.3878(8) 0.9487(2)
H17_6 H 0.8846 0.4179 0.9379
C34_6 C 0.9555(6) 0.3507(7) 0.95770(17)
O12_6 O 0.8798(5) 0.3707(4) 0.95751(11)
H20_6 H 0.9279 0.3345 0.9633
C41_6 C 0.9668(7) 0.3196(8) 0.95059(17)
C49_6 C 0.9981(10) 0.3551(9) 0.7869(2)
C50_6 C 0.8510(7) 0.3888(7) 0.95890(17)
C51_6 C 0.9450(9) 0.2747(10) 0.9519(2)
C53_6 C 0.9914(8) 0.2666(9) 0.9352(2)
H28_6 H 0.9917 0.2855 0.7630
C57_6 C 0.9730(9) 0.3194(9) 0.7763(2)
H30_6 H 0.9802 0.3600 0.7930
H31_6 H 0.8693 0.4229 0.9593
H32_6 H 0.8297 0.3801 0.9516
C58_6 C 0.8249(7) 0.3699(7) 0.9706(2)
C59_6 C 0.9586(9) 0.2489(8) 0.9445(2)
H33_6 H 0.9202 0.2599 0.9577
H34_6 H 0.9877 0.3815 0.9833
H35_6 H 0.9973 0.2479 0.9296
H38_6 H 0.9408 0.3053 0.7747
C63_6 C 0.7897(8) 0.3806(7) 0.9745(2)
C64_6 C 0.8353(7) 0.3481(8) 0.9791(2)
H39_6 H 0.9441 0.2167 0.9461
H43_6 H 0.7802 0.3975 0.9693
C67_6 C 0.7707(6) 0.3643(7) 0.98661(17)
C68_6 C 0.8083(6) 0.3260(7) 0.99112(16)
H44_6 H 0.8622 0.3459 0.9777
H47_6 H 0.7495 0.3735 0.9893
C70_6 C 0.7770(6) 0.3391(7) 0.99450(15)
H48_6 H 0.8127 0.3046 0.9959
C19_7 C 0.5055(5) 0.0245(7) 0.54107(15)
H13_7 H 0.4829 0.0235 0.5354
C23_7 C 0.5272(5) 0.0603(6) 0.54984(16)
C24_7 C 0.5582(7) 0.0169(7) 0.56009(17)
H15_7 H 0.5259 0.0879 0.5489
C29_7 C 0.5515(7) 0.0544(6) 0.56031(17)
C30_7 C 0.5880(8) 0.0086(7) 0.56974(19)
O11_7 O 0.5725(4) 0.0866(4) 0.56906(10)
H19_7 H 0.6035 0.0338 0.5762
C38_7 C 0.6201(10) 0.0002(7) 0.5624(2)
C41_7 C 0.6999(7) 0.0137(8) 0.38274(17)
C43_7 C 0.6522(7) 0.0201(9) 0.39863(19)
C45_7 C 0.5645(5) 0.1200(6) 0.56995(11)
C47_7 C 0.6629(12) 0.0237(9) 0.56417(19)
C51_7 C 0.7217(9) 0.0586(10) 0.3814(2)
H23_7 H 0.6265 0.0055 0.4042
C53_7 C 0.6753(8) 0.0667(9) 0.3981(2)
H25_7 H 0.5309 0.1069 0.5711
H26_7 H 0.5729 0.1368 0.5618
C55_7 C 0.5890(5) 0.1543(5) 0.58031(11)
H28_7 H 0.6750 0.0478 0.5703
C57_7 C 0.6937(9) 0.0139(9) 0.5570(2)
C59_7 C 0.7081(9) 0.0844(8) 0.3888(2)
H33_7 H 0.7465 0.0734 0.3756
H35_7 H 0.6694 0.0854 0.4037
C61_7 C 0.6103(5) 0.1428(5) 0.58958(13)
C62_7 C 0.5922(4) 0.1979(5) 0.58147(12)
H38_7 H 0.7259 0.0280 0.5586
H39_7 H 0.7226 0.1166 0.3872
H41_7 H 0.6092 0.1140 0.5890
C65_7 C 0.6335(4) 0.1714(5) 0.59991(11)
C66_7 C 0.6146(5) 0.2248(4) 0.59162(13)
H42_7 H 0.5790 0.2083 0.5752
C68_7 C 0.8584(6) 0.0073(7) 0.34221(16)
H45_7 H 0.6467 0.1618 0.6063
C69_7 C 0.6366(4) 0.2153(5) 0.60041(11)
H46_7 H 0.6143 0.2529 0.5925
H48_7 H 0.8540 0.0287 0.3374
C71_7 C 0.6635(8) 0.2473(5) 0.61080(11)
C72_7 C 0.9184(11) 0.0154(9) 0.3281(2)
O38_4 O 0.6540(5) 0.2788(3) 0.61278(7)
O39_4 O 0.6927(3) 0.2421(6) 0.61662(7)
O40_4 O 0.9147(8) 0.0422(4) 0.32185(9)
Zn8_4 Zn 0.6666 0.3334 0.62448(3)
Zn9_4 Zn 0.73454(6) 0.28890(8) 0.627048(14)
Zn10_4 Zn 0.96407(8) 0.07243(6) 0.309932(14)
Zn1_4 Zn 0.40121(6) 0.77898(6) 0.460381(14)
O1_7 O 0.3817(2) 0.7222(3) 0.46903(6)
O2_7 O 0.4185(3) 0.8257(3) 0.47366(8)
O3_7 O 0.4551(4) 0.7964(3) 0.45086(8)
O4_4 O 0.3594(3) 0.7840(5) 0.44995(7)
Zn2_4 Zn 0.44170(6) 0.73910(6) 0.476599(14)
Zn3_6 Zn 0.3333 0.6667 0.45781(3)
C1_7 C 0.4413(5) 0.8223(6) 0.48271(15)
C2_7 C 0.4865(5) 0.7857(6) 0.45433(14)
O5_7 O 0.4559(3) 0.7958(4) 0.48534(8)
O6_7 O 0.4855(3) 0.7597(3) 0.46318(8)
O7_4 O 0.4609(7) 0.7089(4) 0.48852(9)
O8_4 O 0.3879(3) 0.6793(5) 0.44611(7)
C3_7 C 0.4508(5) 0.8594(6) 0.49293(12)
C4_7 C 0.5281(6) 0.8047(5) 0.44538(13)
C5_7 C 0.4749(5) 0.8618(5) 0.50444(15)
C6_7 C 0.4382(5) 0.8915(5) 0.49178(13)
C7_7 C 0.5336(4) 0.8330(4) 0.43431(14)
C8_7 C 0.5657(6) 0.8012(5) 0.44873(12)
C9_7 C 0.4836(6) 0.8942(7) 0.51283(15)
H1_7 H 0.4845 0.8400 0.5060
H2_7 H 0.4219 0.8908 0.4843
C10_7 C 0.4470(5) 0.9256(5) 0.50060(16)
C11_7 C 0.5731(6) 0.8518(5) 0.42683(14)
H3_7 H 0.5094 0.8388 0.4321
H4_7 H 0.5660 0.7872 0.4565
C12_7 C 0.6050(5) 0.8188(6) 0.44037(16)
C13_7 C 0.4691(6) 0.9268(6) 0.51183(16)
H5_7 H 0.5011 0.8957 0.5201
H6_7 H 0.4380 0.9479 0.4990
C14_7 C 0.6079(6) 0.8435(6) 0.42978(14)
H7_7 H 0.5758 0.8703 0.4197
H8_7 H 0.6294 0.8131 0.4423
C15_7 C 0.4751(6) 0.9603(6) 0.52182(15)
C16_7 C 0.6498(5) 0.8588(6) 0.42164(14)
H9_7 H 0.4941 0.9921 0.5186
H10_7 H 0.4446 0.9559 0.5243
O9_7 O 0.4965(4) 0.9539(4) 0.53226(13)
H11_7 H 0.6781 0.8757 0.4268
H12_7 H 0.6496 0.8317 0.4178
O10_7 O 0.6489(4) 0.8875(4) 0.41213(11)
C17_7 C 0.5177(6) 0.9903(7) 0.54079(17)
C18_7 C 0.6855(7) 0.9077(6) 0.40452(16)
C20_7 C 0.5381(7) 0.9818(7) 0.55178(18)
C21_7 C 0.7196(7) 0.8968(6) 0.40442(14)
C22_7 C 0.6800(7) 0.9312(7) 0.39365(18)
C25_7 C 0.5469(9) 0.9438(8) 0.5542(2)
C26_7 C 0.7554(6) 0.9184(6) 0.39500(19)
H14_7 H 0.7198 0.8757 0.4104
C27_7 C 0.7141(7) 0.9526(7) 0.38479(18)
C28_7 C 0.6436(6) 0.9434(7) 0.39185(17)
H16_7 H 0.5313 0.9182 0.5479
C31_7 C 0.5338(9) 0.9290(9) 0.5665(3)
C32_7 C 0.5976(10) 0.9665(7) 0.5535(2)
C33_7 C 0.7498(10) 0.9455(8) 0.3846(2)
H17_7 H 0.7821 0.9154 0.3954
C34_7 C 0.7112(6) 0.9826(7) 0.37563(17)
H18_7 H 0.6184 0.9287 0.3983
C35_7 C 0.6639(7) 0.9921(8) 0.39145(18)
C36_7 C 0.6268(7) 0.9251(6) 0.37809(17)
C37_7 C 0.5532(7) 0.9618(9) 0.5755(2)
C39_7 C 0.5037(10) 0.8846(10) 0.5706(3)
C40_7 C 0.6233(10) 0.9542(9) 0.5455(2)
O12_7 O 0.7869(5) 0.9626(4) 0.37582(11)
H20_7 H 0.7388 0.9988 0.3700
C42_7 C 0.6660(7) 0.9477(6) 0.36862(18)
C44_7 C 0.5823(7) 0.8952(6) 0.37436(19)
C46_7 C 0.5407(8) 0.9493(9) 0.5895(3)
C48_7 C 0.4917(11) 0.8777(10) 0.5860(3)
H21_7 H 0.4906 0.8593 0.5649
C49_7 C 0.6686(10) 0.9782(9) 0.5464(2)
H22_7 H 0.6085 0.9295 0.5396
C50_7 C 0.8157(7) 0.9445(7) 0.37443(17)
C52_7 C 0.6555(7) 0.9368(6) 0.35622(16)
H24_7 H 0.5579 0.8812 0.3803
C54_7 C 0.5744(7) 0.8861(6) 0.36136(18)
H27_7 H 0.5550 0.9725 0.5958
C56_7 C 0.5096(10) 0.9058(10) 0.5930(3)
H29_7 H 0.4685 0.8483 0.5889
H30_7 H 0.6865 0.9733 0.5403
H31_7 H 0.7974 0.9104 0.3740
H32_7 H 0.8370 0.9532 0.3817
C58_7 C 0.8418(7) 0.9634(7) 0.3627(2)
C60_7 C 0.6132(7) 0.9057(7) 0.35249(17)
H34_7 H 0.6790 0.9518 0.3500
H36_7 H 0.5439 0.8673 0.3583
H37_7 H 0.5029 0.8992 0.6017
C63_7 C 0.8770(8) 0.9527(7) 0.3588(2)
C64_7 C 0.8314(7) 0.9852(8) 0.3542(2)
H40_7 H 0.6081 0.8960 0.3439
H43_7 H 0.8865 0.9358 0.3640
C67_7 C 0.8960(6) 0.9690(7) 0.34672(17)
H44_7 H 0.8045 0.9874 0.3556
H47_7 H 0.9172 0.9598 0.3440
C70_7 C 0.8897(6) 0.9942(7) 0.33883(15)
O13_7 O 0.9365(6) 0.9934(4) 0.32421(8)
O14_7 O 0.3405(4) 0.6183(2) 0.46903(6)
O15_7 O 0.2778(3) 0.6595(4) 0.46903(6)
O16_4 O 0.3207(5) 0.7086(6) 0.44611(7)
O17_4 O 0.2914(6) 0.6121(3) 0.44611(7)
Zn4_4 Zn 0.37777(8) 0.59879(6) 0.460381(14)
Zn5_4 Zn 0.29740(8) 0.55830(6) 0.476599(14)
Zn6_4 Zn 0.22102(6) 0.62223(8) 0.460381(14)
Zn7_4 Zn 0.26090(6) 0.70260(8) 0.476599(14)
O18_7 O 0.4072(4) 0.5815(3) 0.47366(8)
O19_7 O 0.3413(5) 0.5449(4) 0.45086(8)
O20_4 O 0.4246(6) 0.6406(3) 0.44995(7)
O21_7 O 0.3399(5) 0.5441(3) 0.48534(8)
O22_7 O 0.2742(4) 0.5145(3) 0.46318(8)
O23_4 O 0.2480(8) 0.5391(7) 0.48852(9)
O24_7 O 0.1743(3) 0.5928(4) 0.47366(8)
O25_7 O 0.2036(3) 0.6587(5) 0.45086(8)
O26_4 O 0.2160(5) 0.5754(6) 0.44995(7)
O27_7 O 0.2042(4) 0.6601(5) 0.48534(8)
O28_7 O 0.2403(3) 0.7258(4) 0.46318(8)
O29_4 O 0.2911(4) 0.7520(8) 0.48852(9)
C73_7 C 0.3810(8) 0.5587(5) 0.48271(15)
C74_7 C 0.2992(8) 0.5135(5) 0.45433(14)
C75_7 C 0.1777(6) 0.6190(8) 0.48271(15)
C76_7 C 0.2143(6) 0.7008(8) 0.45433(14)
C77_7 C 0.4086(8) 0.5492(5) 0.49293(12)
C78_7 C 0.2766(8) 0.4719(6) 0.44538(13)
C79_7 C 0.1406(6) 0.5914(8) 0.49293(12)
C80_7 C 0.1953(5) 0.7234(8) 0.44538(13)
C81_7 C 0.3869(7) 0.5251(5) 0.50444(15)
C82_7 C 0.4533(7) 0.5618(5) 0.49178(13)
C83_7 C 0.2994(6) 0.4664(4) 0.43431(14)
C84_7 C 0.2355(8) 0.4343(6) 0.44873(12)
C85_7 C 0.1382(5) 0.6131(7) 0.50444(15)
C86_7 C 0.1085(5) 0.5467(7) 0.49178(13)
C87_7 C 0.1670(4) 0.7006(6) 0.43431(14)
C88_7 C 0.1988(5) 0.7645(8) 0.44873(12)
C89_7 C 0.4106(9) 0.5164(6) 0.51283(15)
H49_7 H 0.3555 0.5155 0.5060
H50_7 H 0.4689 0.5781 0.4843
C90_7 C 0.4786(7) 0.5530(5) 0.50060(16)
C91_7 C 0.2787(8) 0.4269(6) 0.42683(14)
H51_7 H 0.3294 0.4906 0.4321
H52_7 H 0.2212 0.4340 0.4565
C92_7 C 0.2138(8) 0.3950(5) 0.44037(16)
C93_7 C 0.1058(7) 0.5894(9) 0.51283(15)
H53_7 H 0.1600 0.6445 0.5060
H54_7 H 0.1092 0.5311 0.4843
C94_7 C 0.0744(5) 0.5214(7) 0.50060(16)
C95_7 C 0.1482(5) 0.7213(8) 0.42683(14)
H55_7 H 0.1612 0.6706 0.4321
H56_7 H 0.2128 0.7788 0.4565
C96_7 C 0.1812(6) 0.7862(8) 0.44037(16)
C97_7 C 0.4577(8) 0.5309(6) 0.51183(16)
H57_7 H 0.3946 0.4989 0.5201
H58_7 H 0.5099 0.5620 0.4990
C98_7 C 0.2356(8) 0.3921(6) 0.42978(14)
H59_7 H 0.2945 0.4242 0.4197
H60_7 H 0.1837 0.3706 0.4423
C99_7 C 0.0732(6) 0.5423(8) 0.51183(16)
H61_7 H 0.1043 0.6054 0.5201
H62_7 H 0.0521 0.4901 0.4990
C100_7 C 0.1565(6) 0.7644(8) 0.42978(14)
H63_7 H 0.1297 0.7055 0.4197
H64_7 H 0.1869 0.8163 0.4423
C101_7 C 0.4852(8) 0.5249(6) 0.52182(15)
C102_7 C 0.2090(8) 0.3502(5) 0.42164(14)
C103_7 C 0.0397(6) 0.5148(8) 0.52182(15)
C104_7 C 0.1412(6) 0.7910(8) 0.42164(14)
H65_7 H 0.4980 0.5059 0.5186
H66_7 H 0.5113 0.5554 0.5243
O30_7 O 0.4574(6) 0.5035(4) 0.53226(13)
H67_7 H 0.1976 0.3219 0.4268
H68_7 H 0.1821 0.3504 0.4178
O31_7 O 0.2386(6) 0.3511(4) 0.41213(11)
H69_7 H 0.0079 0.5020 0.5186
H70_7 H 0.0441 0.4887 0.5243
O32_7 O 0.0461(4) 0.5426(6) 0.53226(13)
H71_7 H 0.1243 0.8024 0.4268
H72_7 H 0.1683 0.8179 0.4178
O33_7 O 0.1125(4) 0.7614(6) 0.41213(11)
C105_7 C 0.4726(9) 0.4823(6) 0.54079(17)
C106_7 C 0.2222(9) 0.3145(7) 0.40452(16)
C107_7 C 0.0097(7) 0.5274(9) 0.54079(17)
C108_7 C 0.0923(6) 0.7778(9) 0.40452(16)
C109_7 C 0.5190(9) 0.4945(5) 0.54107(15)
C110_7 C 0.4437(10) 0.4619(7) 0.55178(18)
C111_7 C 0.1772(9) 0.2804(7) 0.40442(14)
C112_7 C 0.2512(10) 0.3200(7) 0.39365(18)
C114_7 C 0.0182(7) 0.5563(10) 0.55178(18)
C115_7 C 0.1032(6) 0.8228(9) 0.40442(14)
C116_7 C 0.0688(7) 0.7488(10) 0.39365(18)
H73_7 H 0.5406 0.5171 0.5354
C117_7 C 0.5331(8) 0.4728(5) 0.54984(16)
C118_7 C 0.4587(10) 0.4418(7) 0.56009(17)
C119_7 C 0.3969(12) 0.4531(9) 0.5542(2)
C120_7 C 0.1630(8) 0.2446(6) 0.39500(19)
H74_7 H 0.1559 0.2802 0.4104
C121_7 C 0.2385(10) 0.2859(7) 0.38479(18)
C122_7 C 0.2998(9) 0.3564(6) 0.39185(17)
C125_7 C 0.0562(8) 0.6031(12) 0.5542(2)
C126_7 C 0.0816(6) 0.8370(8) 0.39500(19)
H76_7 H 0.1243 0.8441 0.4104
C127_7 C 0.0474(7) 0.7615(10) 0.38479(18)
C128_7 C 0.0566(7) 0.7002(9) 0.39185(17)
H77_7 H 0.5620 0.4741 0.5489
C129_7 C 0.5029(9) 0.4485(7) 0.56031(17)
C130_7 C 0.4206(11) 0.4120(8) 0.56974(19)
H78_7 H 0.3869 0.4687 0.5479
C131_7 C 0.3952(13) 0.4662(9) 0.5665(3)
C132_7 C 0.3689(12) 0.4024(10) 0.5535(2)
C133_7 C 0.1957(13) 0.2502(10) 0.3846(2)
H79_7 H 0.1333 0.2179 0.3954
C134_7 C 0.2714(9) 0.2888(6) 0.37563(17)
H80_7 H 0.3103 0.3816 0.3983
C135_7 C 0.3282(11) 0.3361(7) 0.39145(18)
C136_7 C 0.2983(9) 0.3732(7) 0.37809(17)
H82_7 H 0.0818 0.6131 0.5479
C139_7 C 0.0710(9) 0.6048(13) 0.5665(3)
C140_7 C 0.0335(7) 0.6311(12) 0.5535(2)
C141_7 C 0.0545(8) 0.8043(13) 0.3846(2)
H83_7 H 0.0846 0.8667 0.3954
C142_7 C 0.0174(7) 0.7286(9) 0.37563(17)
H84_7 H 0.0713 0.6897 0.3983
C143_7 C 0.0079(8) 0.6718(11) 0.39145(18)
C144_7 C 0.0749(6) 0.7017(9) 0.37809(17)
O34_7 O 0.5141(6) 0.4275(4) 0.56906(10)
H85_7 H 0.4303 0.3965 0.5762
C145_7 C 0.4086(11) 0.4468(7) 0.5755(2)
C146_7 C 0.3801(12) 0.3799(10) 0.5624(2)
C147_7 C 0.3809(14) 0.4963(10) 0.5706(3)
C148_7 C 0.3309(13) 0.3767(10) 0.5455(2)
O35_7 O 0.1757(6) 0.2131(5) 0.37582(11)
H86_7 H 0.2600 0.2612 0.3700
C149_7 C 0.3138(11) 0.3001(7) 0.38274(17)
C150_7 C 0.2817(9) 0.3340(7) 0.36862(18)
C151_7 C 0.3679(11) 0.3478(7) 0.39863(19)
C152_7 C 0.3129(9) 0.4177(7) 0.37436(19)
C153_7 C 0.0382(9) 0.5914(11) 0.5755(2)
C155_7 C 0.1154(10) 0.6191(14) 0.5706(3)
C156_7 C 0.0458(9) 0.6691(13) 0.5455(2)
O37_7 O 0.0374(4) 0.8243(6) 0.37582(11)
H88_7 H 0.0012 0.7400 0.3700
C158_7 C 0.0523(6) 0.7183(9) 0.36862(18)
C160_7 C 0.1048(6) 0.6871(9) 0.37436(19)
C161_7 C 0.5555(8) 0.4355(5) 0.56995(11)
C162_7 C 0.4086(12) 0.4593(8) 0.5895(3)
C163_7 C 0.3608(15) 0.3371(12) 0.56417(19)
C164_7 C 0.3860(15) 0.5083(11) 0.5860(3)
H89_7 H 0.3687 0.5094 0.5649
C165_7 C 0.3096(13) 0.3314(10) 0.5464(2)
H90_7 H 0.3210 0.3915 0.5396
C166_7 C 0.1288(10) 0.1843(7) 0.37443(17)
C167_7 C 0.3369(13) 0.2783(9) 0.3814(2)
C168_7 C 0.2813(9) 0.3445(7) 0.35622(16)
H91_7 H 0.3790 0.3735 0.4042
C169_7 C 0.3914(12) 0.3247(8) 0.3981(2)
H92_7 H 0.3233 0.4421 0.3803
C170_7 C 0.3117(9) 0.4256(7) 0.36136(18)
C172_7 C 0.0507(9) 0.5914(12) 0.5895(3)
C174_7 C 0.1223(10) 0.6140(15) 0.5860(3)
H93_7 H 0.1407 0.6313 0.5649
C175_7 C 0.0218(9) 0.6904(13) 0.5464(2)
H94_7 H 0.0705 0.6790 0.5396
C176_7 C 0.0555(7) 0.8712(10) 0.37443(17)
C178_7 C 0.0632(6) 0.7187(9) 0.35622(16)
H96_7 H 0.1188 0.6767 0.3803
C180_7 C 0.1139(6) 0.6883(9) 0.36136(18)
H97_7 H 0.5760 0.4691 0.5711
H98_7 H 0.5639 0.4271 0.5618
C181_7 C 0.5653(7) 0.4110(5) 0.58031(11)
H99_7 H 0.4175 0.4450 0.5958
C182_7 C 0.3962(14) 0.4904(10) 0.5930(3)
H100_7 H 0.3728 0.3250 0.5703
C183_7 C 0.3202(13) 0.3063(9) 0.5570(2)
H101_7 H 0.3798 0.5315 0.5889
H102_7 H 0.2868 0.3135 0.5403
H103_7 H 0.1130 0.2026 0.3740
H104_7 H 0.1162 0.1630 0.3817
C184_7 C 0.1216(10) 0.1582(7) 0.3627(2)
C185_7 C 0.3763(12) 0.2919(9) 0.3888(2)
H105_7 H 0.3269 0.2535 0.3756
C186_7 C 0.2925(10) 0.3868(7) 0.35249(17)
H106_7 H 0.2728 0.3210 0.3500
H107_7 H 0.4160 0.3306 0.4037
H108_7 H 0.3234 0.4561 0.3583
H111_7 H 0.0275 0.5825 0.5958
C188_7 C 0.0942(10) 0.6038(14) 0.5930(3)
H113_7 H 0.1517 0.6202 0.5889
H114_7 H 0.0267 0.7132 0.5403
H115_7 H 0.0896 0.8870 0.3740
H116_7 H 0.0468 0.8838 0.3817
C190_7 C 0.0366(7) 0.8784(10) 0.3627(2)
C192_7 C 0.0943(7) 0.7075(10) 0.35249(17)
H118_7 H 0.0482 0.7272 0.3500
H120_7 H 0.1327 0.6766 0.3583
C193_7 C 0.5325(7) 0.3897(5) 0.58958(13)
C194_7 C 0.6057(6) 0.4078(4) 0.58147(12)
H121_7 H 0.3963 0.4971 0.6017
H122_7 H 0.3021 0.2741 0.5586
C195_7 C 0.0757(11) 0.1230(8) 0.3588(2)
C196_7 C 0.1538(11) 0.1686(7) 0.3542(2)
H123_7 H 0.3940 0.2774 0.3872
H124_7 H 0.2879 0.3919 0.3439
H125_7 H 0.1008 0.6037 0.6017
C199_7 C 0.0473(7) 0.9243(11) 0.3588(2)
C200_7 C 0.0148(8) 0.8462(11) 0.3542(2)
H128_7 H 0.1040 0.7121 0.3439
H129_7 H 0.5048 0.3908 0.5890
C201_7 C 0.5379(6) 0.3665(4) 0.59991(11)
C202_7 C 0.6102(6) 0.3854(5) 0.59162(13)
H130_7 H 0.6293 0.4210 0.5752
H131_7 H 0.0493 0.1135 0.3640
C203_7 C 0.0730(9) 0.1040(6) 0.34672(17)
C204_7 C 0.1489(9) 0.1416(6) 0.34221(16)
H132_7 H 0.1829 0.1955 0.3556
H135_7 H 0.0642 0.9507 0.3640
C207_7 C 0.0310(7) 0.9270(9) 0.34672(17)
H136_7 H 0.0126 0.8171 0.3556
H137_7 H 0.5151 0.3533 0.6063
C209_7 C 0.5787(6) 0.3634(4) 0.60041(11)
H138_7 H 0.6386 0.3857 0.5925
H139_7 H 0.0426 0.0828 0.3440
C210_7 C 0.1045(9) 0.1103(6) 0.33883(15)
H140_7 H 0.1747 0.1460 0.3374
H143_7 H 0.0402 0.9574 0.3440
C212_7 C 0.0058(7) 0.8955(9) 0.33883(15)
C213_7 C 0.5838(9) 0.3365(8) 0.61080(11)
C214_7 C 0.0970(14) 0.0816(11) 0.3281(2)
O41_4 O 0.6247(6) 0.3460(5) 0.61278(7)
O42_4 O 0.5493(5) 0.3073(3) 0.61662(7)
O43_4 O 0.1276(7) 0.0853(8) 0.32185(9)
O44_7 O 0.0569(7) 0.0635(6) 0.32421(8)
O48_7 O 0.0066(4) 0.9431(7) 0.32421(8)
Zn12_4 Zn 0.55435(6) 0.26546(6) 0.627048(14)
Zn13_4 Zn 0.10837(6) 0.03593(8) 0.309932(14)
C113_7 C 0.9755(7) 0.4810(9) 0.54107(15)
H75_7 H 0.9765 0.4594 0.5354
C123_7 C 0.9397(6) 0.4669(8) 0.54984(16)
C124_7 C 0.9831(7) 0.5413(10) 0.56009(17)
H81_7 H 0.9121 0.4380 0.5489
C137_7 C 0.9456(6) 0.4971(9) 0.56031(17)
C138_7 C 0.9914(7) 0.5794(11) 0.56974(19)
O36_7 O 0.9134(4) 0.4859(6) 0.56906(10)
H87_7 H 0.9662 0.5697 0.5762
C154_7 C 0.9998(7) 0.6199(12) 0.5624(2)
C157_7 C 0.9863(8) 0.6862(11) 0.38274(17)
C159_7 C 0.9799(9) 0.6321(11) 0.39863(19)
C171_7 C 0.8800(6) 0.4445(8) 0.56995(11)
C173_7 C 0.9763(9) 0.6392(15) 0.56417(19)
C177_7 C 0.9414(10) 0.6631(13) 0.3814(2)
H95_7 H 0.9945 0.6210 0.4042
C179_7 C 0.9333(9) 0.6086(12) 0.3981(2)
H109_7 H 0.8931 0.4240 0.5711
H110_7 H 0.8632 0.4361 0.5618
C187_7 C 0.8457(5) 0.4347(7) 0.58031(11)
H112_7 H 0.9522 0.6272 0.5703
C189_7 C 0.9861(9) 0.6798(13) 0.5570(2)
C191_7 C 0.9156(8) 0.6237(12) 0.3888(2)
H117_7 H 0.9266 0.6731 0.3756
H119_7 H 0.9146 0.5840 0.4037
C197_7 C 0.8572(5) 0.4675(7) 0.58958(13)
C198_7 C 0.8021(5) 0.3943(6) 0.58147(12)
H126_7 H 0.9720 0.6979 0.5586
H127_7 H 0.8834 0.6060 0.3872
H133_7 H 0.8860 0.4952 0.5890
C205_7 C 0.8286(5) 0.4621(6) 0.59991(11)
C206_7 C 0.7752(4) 0.3898(6) 0.59162(13)
H134_7 H 0.7917 0.3707 0.5752
C208_7 C 0.9927(7) 0.8511(9) 0.34221(16)
H141_7 H 0.8382 0.4849 0.6063
C211_7 C 0.7847(5) 0.4213(6) 0.60041(11)
H142_7 H 0.7471 0.3614 0.5925
H144_7 H 0.9713 0.8253 0.3374
C215_7 C 0.7527(5) 0.4162(9) 0.61080(11)
C216_7 C 0.9846(9) 0.9030(14) 0.3281(2)
O45_4 O 0.7212(3) 0.3753(6) 0.61278(7)
O46_4 O 0.7579(6) 0.4507(5) 0.61662(7)
O47_4 O 0.9578(4) 0.8724(7) 0.32185(9)
Zn15_4 Zn 0.71110(8) 0.44565(6) 0.627048(14)
Zn16_4 Zn 0.92757(6) 0.89163(6) 0.309932(14)
Zn1_5 Zn 0.06788(6) 0.11231(6) 0.793714(14)
O1_8 O 0.0484(2) 0.0555(3) 0.80236(6)
O2_8 O 0.0852(3) 0.1590(3) 0.80699(8)
O3_8 O 0.1218(4) 0.1297(3) 0.78419(8)
O4_5 O 0.0261(3) 0.1173(5) 0.78328(7)
Zn2_5 Zn 0.10837(6) 0.07243(6) 0.809932(14)
C1_8 C 0.1080(5) 0.1556(6) 0.81604(15)
C2_8 C 0.1532(5) 0.1190(6) 0.78766(14)
O5_8 O 0.1226(3) 0.1291(4) 0.81867(8)
O6_8 O 0.1522(3) 0.0930(3) 0.79651(8)
O7_5 O 0.1276(7) 0.0422(4) 0.82185(9)
O8_5 O 0.0546(3) 0.0126(5) 0.77944(7)
C3_8 C 0.1175(5) 0.1927(6) 0.82626(12)
C4_8 C 0.1948(6) 0.1380(5) 0.77871(13)
C5_8 C 0.1416(5) 0.1951(5) 0.83777(15)
C6_8 C 0.1049(5) 0.2248(5) 0.82511(13)
C7_8 C 0.2003(4) 0.1663(4) 0.76764(14)
C8_8 C 0.2324(6) 0.1345(5) 0.78206(12)
C9_8 C 0.1503(6) 0.2275(7) 0.84616(15)
H1_8 H 0.1512 0.1733 0.8393
H2_8 H 0.0886 0.2241 0.8176
C10_8 C 0.1137(5) 0.2589(5) 0.83393(16)
C11_8 C 0.2398(6) 0.1851(5) 0.76016(14)
H3_8 H 0.1761 0.1721 0.7654
H4_8 H 0.2327 0.1205 0.7898
C12_8 C 0.2717(5) 0.1521(6) 0.77370(16)
C13_8 C 0.1358(6) 0.2601(6) 0.84516(16)
H5_8 H 0.1678 0.2290 0.8534
H6_8 H 0.1047 0.2812 0.8323
C14_8 C 0.2746(6) 0.1768(6) 0.76311(14)
H7_8 H 0.2425 0.2036 0.7530
H8_8 H 0.2961 0.1464 0.7756
C15_8 C 0.1418(6) 0.2936(6) 0.85515(15)
C16_8 C 0.3165(5) 0.1921(6) 0.75497(14)
H9_8 H 0.1608 0.3254 0.8519
H10_8 H 0.1113 0.2892 0.8576
O9_8 O 0.1632(4) 0.2872(4) 0.86559(13)
H11_8 H 0.3448 0.2090 0.7601
H12_8 H 0.3163 0.1650 0.7511
O10_8 O 0.3156(4) 0.2208(4) 0.74546(11)
C17_8 C 0.1844(6) 0.3236(7) 0.87412(17)
C18_8 C 0.3522(7) 0.2410(6) 0.73785(16)
C19_8 C 0.1722(5) 0.3578(7) 0.87440(15)
C20_8 C 0.2048(7) 0.3151(7) 0.88511(18)
C21_8 C 0.3863(7) 0.2301(6) 0.73775(14)
C22_8 C 0.3467(7) 0.2645(7) 0.72698(18)
H13_8 H 0.1496 0.3568 0.8687
C23_8 C 0.1939(5) 0.3936(6) 0.88317(16)
C24_8 C 0.2249(7) 0.3502(7) 0.89342(17)
C25_8 C 0.2136(9) 0.2771(8) 0.8875(2)
C26_8 C 0.4221(6) 0.2517(6) 0.72833(19)
H14_8 H 0.3865 0.2090 0.7437
C27_8 C 0.3808(7) 0.2859(7) 0.71812(18)
C28_8 C 0.3103(6) 0.2767(7) 0.72518(17)
H15_8 H 0.1926 0.4212 0.8822
C29_8 C 0.2182(7) 0.3877(6) 0.89364(17)
C30_8 C 0.2547(8) 0.3419(7) 0.90307(19)
H16_8 H 0.1980 0.2515 0.8812
C31_8 C 0.2005(9) 0.2623(9) 0.8998(3)
C32_8 C 0.2643(10) 0.2998(7) 0.8868(2)
C33_8 C 0.4165(10) 0.2788(8) 0.7179(2)
H17_8 H 0.4488 0.2487 0.7287
C34_8 C 0.3779(6) 0.3159(7) 0.70896(17)
H18_8 H 0.2851 0.2620 0.7316
C35_8 C 0.3306(7) 0.3254(8) 0.72478(18)
C36_8 C 0.2935(7) 0.2584(6) 0.71142(17)
O11_8 O 0.2392(4) 0.4199(4) 0.90239(10)
H19_8 H 0.2702 0.3671 0.9095
C37_8 C 0.2199(7) 0.2951(9) 0.9088(2)
C38_8 C 0.2868(10) 0.3335(7) 0.8957(2)
C39_8 C 0.1704(10) 0.2179(10) 0.9039(3)
C40_8 C 0.2900(10) 0.2875(9) 0.8788(2)
O12_8 O 0.4536(5) 0.2959(4) 0.70915(11)
H20_8 H 0.4055 0.3321 0.7033
C41_8 C 0.3666(7) 0.3470(8) 0.71607(17)
C42_8 C 0.3327(7) 0.2810(6) 0.70195(18)
C43_8 C 0.3189(7) 0.3534(9) 0.73196(19)
C44_8 C 0.2490(7) 0.2285(6) 0.70769(19)
C45_8 C 0.2312(5) 0.4533(6) 0.90328(11)
C46_8 C 0.2074(8) 0.2826(9) 0.9228(3)
C47_8 C 0.3296(12) 0.3570(9) 0.89750(19)
C48_8 C 0.1584(11) 0.2110(10) 0.9193(3)
H21_8 H 0.1573 0.1926 0.8982
C49_8 C 0.3353(10) 0.3115(9) 0.8797(2)
H22_8 H 0.2752 0.2628 0.8729
C50_8 C 0.4824(7) 0.2778(7) 0.70776(17)
C51_8 C 0.3884(9) 0.3919(10) 0.7147(2)
C52_8 C 0.3222(7) 0.2701(6) 0.68955(16)
H23_8 H 0.2932 0.3388 0.7375
C53_8 C 0.3420(8) 0.4000(9) 0.7314(2)
H24_8 H 0.2246 0.2145 0.7136
C54_8 C 0.2411(7) 0.2194(6) 0.69469(18)
H25_8 H 0.1976 0.4402 0.9044
H26_8 H 0.2396 0.4701 0.8951
C55_8 C 0.2557(5) 0.4876(5) 0.91364(11)
H27_8 H 0.2217 0.3058 0.9291
C56_8 C 0.1763(10) 0.2391(10) 0.9263(3)
H28_8 H 0.3417 0.3811 0.9036
C57_8 C 0.3604(9) 0.3472(9) 0.8903(2)
H29_8 H 0.1352 0.1816 0.9222
H30_8 H 0.3532 0.3066 0.8736
H31_8 H 0.4641 0.2437 0.7073
H32_8 H 0.5037 0.2865 0.7150
C58_8 C 0.5085(7) 0.2967(7) 0.6960(2)
C59_8 C 0.3748(9) 0.4177(8) 0.7221(2)
H33_8 H 0.4132 0.4067 0.7089
C60_8 C 0.2799(7) 0.2390(7) 0.68582(17)
H34_8 H 0.3457 0.2851 0.6833
H35_8 H 0.3361 0.4187 0.7370
H36_8 H 0.2106 0.2006 0.6916
C61_8 C 0.2770(5) 0.4761(5) 0.92291(13)
C62_8 C 0.2589(4) 0.5312(5) 0.91480(12)
H37_8 H 0.1696 0.2325 0.9350
H38_8 H 0.3926 0.3613 0.8919
C63_8 C 0.5437(8) 0.2860(7) 0.6921(2)
C64_8 C 0.4981(7) 0.3185(8) 0.6875(2)
H39_8 H 0.3893 0.4499 0.7205
H40_8 H 0.2748 0.2293 0.6772
H41_8 H 0.2759 0.4473 0.9223
C65_8 C 0.3002(4) 0.5047(5) 0.93324(11)
C66_8 C 0.2813(5) 0.5581(4) 0.92495(13)
H42_8 H 0.2457 0.5416 0.9085
H43_8 H 0.5532 0.2691 0.6973
C67_8 C 0.5627(6) 0.3023(7) 0.68005(17)
C68_8 C 0.5251(6) 0.3406(7) 0.67554(16)
H44_8 H 0.4712 0.3207 0.6889
H45_8 H 0.3134 0.4951 0.9396
C69_8 C 0.3033(4) 0.5486(5) 0.93374(11)
H46_8 H 0.2810 0.5862 0.9258
H47_8 H 0.5839 0.2931 0.6773
C70_8 C 0.5564(6) 0.3275(7) 0.67216(15)
H48_8 H 0.5207 0.3620 0.6707
C71_8 C 0.3302(8) 0.5806(5) 0.94413(11)
C72_8 C 0.5851(11) 0.3487(9) 0.6614(2)
O13_8 O 0.6032(6) 0.3267(4) 0.65754(8)
O38_5 O 0.3207(5) 0.6121(3) 0.94611(7)
O39_5 O 0.3594(3) 0.5754(6) 0.94995(7)
O40_5 O 0.5813(8) 0.3756(4) 0.65519(9)
Zn8_5 Zn 0.3333 0.6667 0.95781(3)
Zn9_5 Zn 0.40121(6) 0.62223(8) 0.960381(14)
Zn10_5 Zn 0.63073(8) 0.40577(6) 0.643266(14)
O14_8 O 0.0072(4) 0.9516(2) 0.80236(6)
Zn4_5 Zn 0.04444(8) 0.93212(6) 0.793714(14)
O18_8 O 0.0739(4) 0.9148(3) 0.80699(8)
O19_8 O 0.0080(5) 0.8782(4) 0.78419(8)
O20_5 O 0.0913(6) 0.9739(3) 0.78328(7)
O21_8 O 0.0066(5) 0.8774(3) 0.81867(8)
C73_8 C 0.0477(8) 0.8920(5) 0.81604(15)
C77_8 C 0.0753(8) 0.8825(5) 0.82626(12)
C81_8 C 0.0536(7) 0.8584(5) 0.83777(15)
C82_8 C 0.1200(7) 0.8951(5) 0.82511(13)
C89_8 C 0.0773(9) 0.8497(6) 0.84616(15)
H49_8 H 0.0222 0.8488 0.8393
H50_8 H 0.1356 0.9114 0.8176
C90_8 C 0.1453(7) 0.8863(5) 0.83393(16)
C97_8 C 0.1244(8) 0.8642(6) 0.84516(16)
H57_8 H 0.0613 0.8322 0.8534
H58_8 H 0.1766 0.8953 0.8323
C101_8 C 0.1519(8) 0.8582(6) 0.85515(15)
H65_8 H 0.1647 0.8392 0.8519
H66_8 H 0.1780 0.8887 0.8576
O30_8 O 0.1241(6) 0.8368(4) 0.86559(13)
C105_8 C 0.1393(9) 0.8156(6) 0.87412(17)
C109_8 C 0.1857(9) 0.8278(5) 0.87440(15)
C110_8 C 0.1104(10) 0.7952(7) 0.88511(18)
H73_8 H 0.2073 0.8504 0.8687
C117_8 C 0.1998(8) 0.8061(5) 0.88317(16)
C118_8 C 0.1254(10) 0.7751(7) 0.89342(17)
C119_8 C 0.0636(12) 0.7864(9) 0.8875(2)
H77_8 H 0.2287 0.8074 0.8822
C129_8 C 0.1696(9) 0.7818(7) 0.89364(17)
C130_8 C 0.0873(11) 0.7453(8) 0.90307(19)
H78_8 H 0.0536 0.8020 0.8812
C131_8 C 0.0619(13) 0.7995(9) 0.8998(3)
C132_8 C 0.0356(12) 0.7357(10) 0.8868(2)
O34_8 O 0.1808(6) 0.7608(4) 0.90239(10)
H85_8 H 0.0970 0.7298 0.9095
C145_8 C 0.0753(11) 0.7801(7) 0.9088(2)
C146_8 C 0.0468(12) 0.7132(10) 0.8957(2)
C147_8 C 0.0476(14) 0.8296(10) 0.9039(3)
C151_8 C 0.0346(11) 0.6811(7) 0.73196(19)
C161_8 C 0.2222(8) 0.7688(5) 0.90328(11)
C162_8 C 0.0753(12) 0.7926(8) 0.9228(3)
C163_8 C 0.0275(15) 0.6704(12) 0.89750(19)
C164_8 C 0.0527(15) 0.8416(11) 0.9193(3)
H89_8 H 0.0354 0.8427 0.8982
C167_8 C 0.0036(13) 0.6116(9) 0.7147(2)
H91_8 H 0.0457 0.7068 0.7375
C169_8 C 0.0581(12) 0.6580(8) 0.7314(2)
H97_8 H 0.2427 0.8024 0.9044
H98_8 H 0.2306 0.7604 0.8951
C181_8 C 0.2320(7) 0.7443(5) 0.91364(11)
H99_8 H 0.0842 0.7783 0.9291
C182_8 C 0.0629(14) 0.8237(10) 0.9263(3)
H100_8 H 0.0395 0.6583 0.9036
H101_8 H 0.0465 0.8648 0.9222
C185_8 C 0.0430(12) 0.6252(9) 0.7221(2)
H107_8 H 0.0827 0.6639 0.7370
C193_8 C 0.1992(7) 0.7230(5) 0.92291(13)
C194_8 C 0.2724(6) 0.7411(4) 0.91480(12)
H121_8 H 0.0630 0.8304 0.9350
H123_8 H 0.0607 0.6107 0.7205
H129_8 H 0.1715 0.7241 0.9223
C201_8 C 0.2046(6) 0.6998(4) 0.93324(11)
C202_8 C 0.2769(6) 0.7187(5) 0.92495(13)
H130_8 H 0.2960 0.7543 0.9085
H137_8 H 0.1818 0.6866 0.9396
C209_8 C 0.2454(6) 0.6967(4) 0.93374(11)
H138_8 H 0.3053 0.7190 0.9258
C213_8 C 0.2505(9) 0.6698(8) 0.94413(11)
O41_5 O 0.2914(6) 0.6793(5) 0.94611(7)
O42_5 O 0.2160(5) 0.6406(3) 0.94995(7)
Zn12_5 Zn 0.22102(6) 0.59879(6) 0.960381(14)
Zn3_7 Zn 1.0000 0.0000 0.79114(3)
O16_5 O 0.9874(5) 0.0419(6) 0.77944(7)
Zn7_5 Zn 0.92757(6) 0.03593(8) 0.809932(14)
O28_8 O 0.9070(3) 0.0591(4) 0.79651(8)
O29_5 O 0.9578(4) 0.0853(8) 0.82185(9)
C76_8 C 0.8810(6) 0.0341(8) 0.78766(14)
C80_8 C 0.8620(5) 0.0567(8) 0.77871(13)
C87_8 C 0.8337(4) 0.0339(6) 0.76764(14)
C88_8 C 0.8655(5) 0.0978(8) 0.78206(12)
C95_8 C 0.8149(5) 0.0546(8) 0.76016(14)
H55_8 H 0.8279 0.0039 0.7654
H56_8 H 0.8795 0.1121 0.7898
C96_8 C 0.8479(6) 0.1195(8) 0.77370(16)
C100_8 C 0.8232(6) 0.0977(8) 0.76311(14)
H63_8 H 0.7964 0.0388 0.7530
H64_8 H 0.8536 0.1496 0.7756
C104_8 C 0.8079(6) 0.1243(8) 0.75497(14)
H71_8 H 0.7910 0.1357 0.7601
H72_8 H 0.8350 0.1512 0.7511
O33_8 O 0.7792(4) 0.0947(6) 0.74546(11)
C108_8 C 0.7590(6) 0.1111(9) 0.73785(16)
C115_8 C 0.7699(6) 0.1561(9) 0.73775(14)
C116_8 C 0.7355(7) 0.0821(10) 0.72698(18)
C126_8 C 0.7483(6) 0.1703(8) 0.72833(19)
H76_8 H 0.7910 0.1774 0.7437
C127_8 C 0.7141(7) 0.0948(10) 0.71812(18)
C128_8 C 0.7233(7) 0.0335(9) 0.72518(17)
C141_8 C 0.7212(8) 0.1376(13) 0.7179(2)
H83_8 H 0.7513 0.2000 0.7287
C142_8 C 0.6841(7) 0.0619(9) 0.70896(17)
H84_8 H 0.7380 0.0230 0.7316
C143_8 C 0.6746(8) 0.0051(11) 0.72478(18)
C144_8 C 0.7416(6) 0.0350(9) 0.71142(17)
C156_8 C 0.7125(9) 0.0024(13) 0.8788(2)
O37_8 O 0.7041(4) 0.1576(6) 0.70915(11)
H88_8 H 0.6679 0.0733 0.7033
C157_8 C 0.6530(8) 0.0195(11) 0.71607(17)
C158_8 C 0.7190(6) 0.0516(9) 0.70195(18)
C160_8 C 0.7715(6) 0.0204(9) 0.70769(19)
C175_8 C 0.6885(9) 0.0237(13) 0.8797(2)
H94_8 H 0.7372 0.0123 0.8729
C176_8 C 0.7222(7) 0.2045(10) 0.70776(17)
C178_8 C 0.7299(6) 0.0520(9) 0.68955(16)
H96_8 H 0.7855 0.0100 0.7136
C180_8 C 0.7806(6) 0.0216(9) 0.69469(18)
C189_8 C 0.6528(9) 0.0131(13) 0.8903(2)
H114_8 H 0.6934 0.0465 0.8736
H115_8 H 0.7563 0.2203 0.7073
H116_8 H 0.7135 0.2171 0.7150
C190_8 C 0.7033(7) 0.2117(10) 0.6960(2)
H117_8 H 0.5933 0.0064 0.7089
C192_8 C 0.7610(7) 0.0408(10) 0.68582(17)
H118_8 H 0.7149 0.0605 0.6833
H120_8 H 0.7994 0.0099 0.6916
H126_8 H 0.6387 0.0312 0.8919
C199_8 C 0.7140(7) 0.2576(11) 0.6921(2)
C200_8 C 0.6815(8) 0.1795(11) 0.6875(2)
H128_8 H 0.7707 0.0454 0.6772
H135_8 H 0.7309 0.2840 0.6973
C207_8 C 0.6977(7) 0.2603(9) 0.68005(17)
C208_8 C 0.6594(7) 0.1844(9) 0.67554(16)
H136_8 H 0.6793 0.1504 0.6889
H143_8 H 0.7069 0.2907 0.6773
C212_8 C 0.6725(7) 0.2288(9) 0.67216(15)
H144_8 H 0.6380 0.1586 0.6707
C216_8 C 0.6513(9) 0.2363(14) 0.6614(2)
O47_5 O 0.6244(4) 0.2058(7) 0.65519(9)
O48_8 O 0.6733(4) 0.2764(7) 0.65754(8)
Zn16_5 Zn 0.59423(6) 0.22497(6) 0.643266(14)
O15_8 O 0.9445(3) 0.9928(4) 0.80236(6)
O17_5 O 0.9581(6) 0.9454(3) 0.77944(7)
Zn5_5 Zn 0.96407(8) 0.89163(6) 0.809932(14)
Zn6_5 Zn 0.88769(6) 0.95556(8) 0.793714(14)
O22_8 O 0.9409(4) 0.8478(3) 0.79651(8)
O23_5 O 0.9147(8) 0.8724(7) 0.82185(9)
O24_8 O 0.8410(3) 0.9261(4) 0.80699(8)
O25_8 O 0.8703(3) 0.9920(5) 0.78419(8)
O26_5 O 0.8827(5) 0.9087(6) 0.78328(7)
O27_8 O 0.8709(4) 0.9934(5) 0.81867(8)
C74_8 C 0.9659(8) 0.8468(5) 0.78766(14)
C75_8 C 0.8444(6) 0.9523(8) 0.81604(15)
C78_8 C 0.9433(8) 0.8052(6) 0.77871(13)
C79_8 C 0.8073(6) 0.9247(8) 0.82626(12)
C83_8 C 0.9661(6) 0.7997(4) 0.76764(14)
C84_8 C 0.9022(8) 0.7676(6) 0.78206(12)
C85_8 C 0.8049(5) 0.9464(7) 0.83777(15)
C86_8 C 0.7752(5) 0.8800(7) 0.82511(13)
C91_8 C 0.9454(8) 0.7602(6) 0.76016(14)
H51_8 H 0.9961 0.8239 0.7654
H52_8 H 0.8879 0.7673 0.7898
C92_8 C 0.8805(8) 0.7283(5) 0.77370(16)
C93_8 C 0.7725(7) 0.9227(9) 0.84616(15)
H53_8 H 0.8267 0.9778 0.8393
H54_8 H 0.7759 0.8644 0.8176
C94_8 C 0.7411(5) 0.8547(7) 0.83393(16)
C98_8 C 0.9023(8) 0.7254(6) 0.76311(14)
H59_8 H 0.9612 0.7575 0.7530
H60_8 H 0.8504 0.7039 0.7756
C99_8 C 0.7399(6) 0.8756(8) 0.84516(16)
H61_8 H 0.7710 0.9387 0.8534
H62_8 H 0.7188 0.8234 0.8323
C102_8 C 0.8757(8) 0.6835(5) 0.75497(14)
C103_8 C 0.7064(6) 0.8481(8) 0.85515(15)
H67_8 H 0.8643 0.6552 0.7601
H68_8 H 0.8488 0.6837 0.7511
O31_8 O 0.9053(6) 0.6844(4) 0.74546(11)
H69_8 H 0.6746 0.8353 0.8519
H70_8 H 0.7108 0.8220 0.8576
O32_8 O 0.7128(4) 0.8759(6) 0.86559(13)
C106_8 C 0.8889(9) 0.6478(7) 0.73785(16)
C107_8 C 0.6764(7) 0.8607(9) 0.87412(17)
C111_8 C 0.8439(9) 0.6137(7) 0.73775(14)
C112_8 C 0.9179(10) 0.6533(7) 0.72698(18)
C113_8 C 0.6422(7) 0.8143(9) 0.87440(15)
C114_8 C 0.6849(7) 0.8896(10) 0.88511(18)
C120_8 C 0.8297(8) 0.5779(6) 0.72833(19)
H74_8 H 0.8226 0.6135 0.7437
C121_8 C 0.9052(10) 0.6192(7) 0.71812(18)
C122_8 C 0.9665(9) 0.6897(6) 0.72518(17)
H75_8 H 0.6432 0.7927 0.8687
C123_8 C 0.6064(6) 0.8002(8) 0.88317(16)
C124_8 C 0.6498(7) 0.8746(10) 0.89342(17)
C125_8 C 0.7229(8) 0.9364(12) 0.8875(2)
C133_8 C 0.8624(13) 0.5835(10) 0.7179(2)
H79_8 H 0.8000 0.5512 0.7287
C134_8 C 0.9381(9) 0.6221(6) 0.70896(17)
H80_8 H 0.9770 0.7149 0.7316
C135_8 C 0.9949(11) 0.6694(7) 0.72478(18)
C136_8 C 0.9650(9) 0.7065(7) 0.71142(17)
H81_8 H 0.5788 0.7713 0.8822
C137_8 C 0.6123(6) 0.8304(9) 0.89364(17)
C138_8 C 0.6581(7) 0.9127(11) 0.90307(19)
H82_8 H 0.7485 0.9464 0.8812
C139_8 C 0.7377(9) 0.9381(13) 0.8998(3)
C140_8 C 0.7002(7) 0.9644(12) 0.8868(2)
C148_8 C 0.9976(13) 0.7100(10) 0.8788(2)
O35_8 O 0.8424(6) 0.5464(5) 0.70915(11)
H86_8 H 0.9267 0.5945 0.7033
C149_8 C 0.9805(11) 0.6334(7) 0.71607(17)
C150_8 C 0.9484(9) 0.6673(7) 0.70195(18)
C152_8 C 0.9796(9) 0.7510(7) 0.70769(19)
O36_8 O 0.5801(4) 0.8192(6) 0.90239(10)
H87_8 H 0.6329 0.9030 0.9095
C153_8 C 0.7049(9) 0.9247(11) 0.9088(2)
C154_8 C 0.6665(7) 0.9532(12) 0.8957(2)
C155_8 C 0.7821(10) 0.9524(14) 0.9039(3)
C159_8 C 0.6466(9) 0.9654(11) 0.73196(19)
C165_8 C 0.9763(13) 0.6647(10) 0.8797(2)
H90_8 H 0.9877 0.7248 0.8729
C166_8 C 0.7955(10) 0.5176(7) 0.70776(17)
C168_8 C 0.9480(9) 0.6778(7) 0.68955(16)
H92_8 H 0.9900 0.7754 0.7136
C170_8 C 0.9784(9) 0.7589(7) 0.69469(18)
C171_8 C 0.5467(6) 0.7778(8) 0.90328(11)
C172_8 C 0.7174(9) 0.9247(12) 0.9228(3)
C173_8 C 0.6430(9) 0.9725(15) 0.89750(19)
C174_8 C 0.7890(10) 0.9473(15) 0.9193(3)
H93_8 H 0.8074 0.9646 0.8982
C177_8 C 0.6081(10) 0.9964(13) 0.7147(2)
H95_8 H 0.6612 0.9543 0.7375
C179_8 C 0.6000(9) 0.9419(12) 0.7314(2)
C183_8 C 0.9869(13) 0.6396(9) 0.8903(2)
H102_8 H 0.9535 0.6468 0.8736
H103_8 H 0.7797 0.5359 0.7073
H104_8 H 0.7829 0.4963 0.7150
C184_8 C 0.7883(10) 0.4915(7) 0.6960(2)
H105_8 H 0.9936 0.5868 0.7089
C186_8 C 0.9592(10) 0.7201(7) 0.68582(17)
H106_8 H 0.9395 0.6543 0.6833
H108_8 H 0.9901 0.7894 0.6916
H109_8 H 0.5598 0.7573 0.9044
H110_8 H 0.5299 0.7694 0.8951
C187_8 C 0.5124(5) 0.7680(7) 0.91364(11)
H111_8 H 0.6942 0.9158 0.9291
C188_8 C 0.7609(10) 0.9371(14) 0.9263(3)
H112_8 H 0.6189 0.9605 0.9036
H113_8 H 0.8184 0.9535 0.9222
C191_8 C 0.5823(8) 0.9570(12) 0.7221(2)
H119_8 H 0.5813 0.9173 0.7370
H122_8 H 0.9688 0.6074 0.8919
C195_8 C 0.7424(11) 0.4563(8) 0.6921(2)
C196_8 C 0.8205(11) 0.5019(7) 0.6875(2)
H124_8 H 0.9546 0.7252 0.6772
C197_8 C 0.5239(5) 0.8008(7) 0.92291(13)
C198_8 C 0.4688(5) 0.7276(6) 0.91480(12)
H125_8 H 0.7675 0.9370 0.9350
H127_8 H 0.5501 0.9393 0.7205
H131_8 H 0.7160 0.4468 0.6973
C203_8 C 0.7397(9) 0.4373(6) 0.68005(17)
C204_8 C 0.8156(9) 0.4749(6) 0.67554(16)
H132_8 H 0.8496 0.5288 0.6889
H133_8 H 0.5527 0.8285 0.9223
C205_8 C 0.4953(5) 0.7954(6) 0.93324(11)
C206_8 C 0.4419(4) 0.7231(6) 0.92495(13)
H134_8 H 0.4584 0.7040 0.9085
H139_8 H 0.7093 0.4161 0.6773
C210_8 C 0.7712(9) 0.4436(6) 0.67216(15)
H140_8 H 0.8414 0.4793 0.6707
H141_8 H 0.5049 0.8182 0.9396
C211_8 C 0.4514(5) 0.7546(6) 0.93374(11)
H142_8 H 0.4138 0.6947 0.9258
C214_8 C 0.7637(14) 0.4149(11) 0.6614(2)
C215_8 C 0.4194(5) 0.7495(9) 0.94413(11)
O43_5 O 0.7942(7) 0.4187(8) 0.65519(9)
O44_8 O 0.7236(7) 0.3968(6) 0.65754(8)
O45_5 O 0.3879(3) 0.7086(6) 0.94611(7)
O46_5 O 0.4246(6) 0.7840(5) 0.94995(7)
Zn13_5 Zn 0.77503(6) 0.36927(8) 0.643266(14)
Zn15_5 Zn 0.37777(8) 0.77898(6) 0.960381(14)
Zn3_8 Zn 0.0001 0.0000 0.79114(3)
Zn3_9 Zn 1.0000 0.9999 0.79114(3)
H11_9 H 0.0114 0.5424 0.0935
C18_9 C 0.0188(7) 0.5744(6) 0.07119(16)
C21_9 C 0.0529(7) 0.5635(6) 0.07109(14)
C22_9 C 0.0133(7) 0.5979(7) 0.06032(18)
C26_9 C 0.0887(6) 0.5851(6) 0.06167(19)
H14_9 H 0.0531 0.5424 0.0771
C27_9 C 0.0474(7) 0.6193(7) 0.05146(18)
C33_9 C 0.0831(10) 0.6122(8) 0.0513(2)
H17_9 H 0.1154 0.5821 0.0621
C34_9 C 0.0445(6) 0.6493(7) 0.04230(17)
O12_9 O 0.1202(5) 0.6293(4) 0.04249(11)
H20_9 H 0.0721 0.6655 0.0367
C41_9 C 0.0332(7) 0.6804(8) 0.04941(17)
C49_9 C 0.0019(10) 0.6449(9) 0.2131(2)
C50_9 C 0.1490(7) 0.6112(7) 0.04110(17)
C51_9 C 0.0550(9) 0.7253(10) 0.0481(2)
C53_9 C 0.0086(8) 0.7334(9) 0.0648(2)
H28_9 H 0.0083 0.7145 0.2370
C57_9 C 0.0270(9) 0.6806(9) 0.2237(2)
H30_9 H 0.0198 0.6400 0.2070
H31_9 H 0.1307 0.5771 0.0407
H32_9 H 0.1703 0.6199 0.0484
C58_9 C 0.1751(7) 0.6301(7) 0.0294(2)
C59_9 C 0.0414(9) 0.7511(8) 0.0555(2)
H33_9 H 0.0798 0.7401 0.0423
H34_9 H 0.0123 0.6185 0.0167
H35_9 H 0.0027 0.7521 0.0704
H38_9 H 0.0592 0.6947 0.2253
C63_9 C 0.2103(8) 0.6194(7) 0.0255(2)
C64_9 C 0.1647(7) 0.6519(8) 0.0209(2)
H39_9 H 0.0559 0.7833 0.0539
H43_9 H 0.2198 0.6025 0.0307
C67_9 C 0.2293(6) 0.6357(7) 0.01339(17)
C68_9 C 0.1917(6) 0.6740(7) 0.00888(16)
H44_9 H 0.1378 0.6541 0.0223
H47_9 H 0.2505 0.6265 0.0107
C70_9 C 0.2230(6) 0.6609(7) 0.00550(15)
H48_9 H 0.1873 0.6954 0.0041
O39_6 O 0.0261(3) 0.9087(6) 0.28328(7)
Zn9_6 Zn 0.06788(6) 0.95556(8) 0.293714(14)
C72_9 C 0.2517(11) 0.6821(9) 0.9948(2)
O13_9 O 0.2698(6) 0.6601(4) 0.99088(8)
O40_6 O 0.2480(8) 0.7089(4) 0.98852(9)
Zn10_6 Zn 0.29740(8) 0.73910(6) 0.976599(14)
Zn8_6 Zn 1.0000 0.0000 0.29114(3)
Zn1_6 Zn 0.73454(6) 0.44565(6) 0.127048(14)
O1_9 O 0.7150(2) 0.3889(3) 0.13570(6)
O2_9 O 0.7518(3) 0.4924(3) 0.14033(8)
O3_9 O 0.7884(4) 0.4631(3) 0.11753(8)
O4_6 O 0.6927(3) 0.4507(5) 0.11662(7)
Zn2_6 Zn 0.77503(6) 0.40577(6) 0.143266(14)
Zn3_10 Zn 0.6666 0.3334 0.12448(3)
C1_9 C 0.7746(5) 0.4890(6) 0.14938(15)
C2_9 C 0.8198(5) 0.4524(6) 0.12100(14)
O5_9 O 0.7892(3) 0.4625(4) 0.15201(8)
O6_9 O 0.8188(3) 0.4264(3) 0.12985(8)
O7_6 O 0.7942(7) 0.3756(4) 0.15519(9)
O8_6 O 0.7212(3) 0.3460(5) 0.11278(7)
C3_9 C 0.7841(5) 0.5261(6) 0.15960(12)
C4_9 C 0.8614(6) 0.4714(5) 0.11205(13)
C5_9 C 0.8082(5) 0.5285(5) 0.17111(15)
C6_9 C 0.7715(5) 0.5582(5) 0.15845(13)
C7_9 C 0.8669(4) 0.4997(4) 0.10098(14)
C8_9 C 0.8990(6) 0.4679(5) 0.11540(12)
C9_9 C 0.8169(6) 0.5609(7) 0.17950(15)
H1_9 H 0.8178 0.5067 0.1727
H2_9 H 0.7552 0.5575 0.1510
C10_9 C 0.7803(5) 0.5923(5) 0.16727(16)
C11_9 C 0.9064(6) 0.5185(5) 0.09350(14)
H3_9 H 0.8427 0.5055 0.0988
H4_9 H 0.8993 0.4539 0.1232
C12_9 C 0.9383(5) 0.4855(6) 0.10704(16)
C13_9 C 0.8024(6) 0.5935(6) 0.17850(16)
H5_9 H 0.8344 0.5624 0.1868
H6_9 H 0.7713 0.6146 0.1657
C14_9 C 0.9412(6) 0.5102(6) 0.09645(14)
H7_9 H 0.9091 0.5370 0.0864
H8_9 H 0.9627 0.4798 0.1090
C15_9 C 0.8084(6) 0.6270(6) 0.18849(15)
C16_9 C 0.9831(5) 0.5255(6) 0.08831(14)
H9_9 H 0.8274 0.6588 0.1853
H10_9 H 0.7779 0.6226 0.1910
O9_9 O 0.8298(4) 0.6206(4) 0.19893(13)
H12_9 H 0.9829 0.4984 0.0845
O10_9 O 0.9822(4) 0.5542(4) 0.07880(11)
C17_9 C 0.8510(6) 0.6570(7) 0.20746(17)
C19_9 C 0.8388(5) 0.6912(7) 0.20774(15)
C20_9 C 0.8714(7) 0.6485(7) 0.21845(18)
H13_9 H 0.8162 0.6902 0.2021
C23_9 C 0.8605(5) 0.7270(6) 0.21651(16)
C24_9 C 0.8915(7) 0.6836(7) 0.22676(17)
C25_9 C 0.8802(9) 0.6105(8) 0.2209(2)
C28_9 C 0.9769(6) 0.6101(7) 0.05852(17)
H15_9 H 0.8592 0.7546 0.2156
C29_9 C 0.8848(7) 0.7211(6) 0.22698(17)
C30_9 C 0.9213(8) 0.6753(7) 0.23641(19)
H16_9 H 0.8646 0.5849 0.2146
C31_9 C 0.8671(9) 0.5957(9) 0.2332(3)
C32_9 C 0.9309(10) 0.6332(7) 0.2202(2)
H18_9 H 0.9517 0.5954 0.0650
C35_9 C 0.9972(7) 0.6588(8) 0.05812(18)
C36_9 C 0.9601(7) 0.5918(6) 0.04476(17)
O11_9 O 0.9058(4) 0.7533(4) 0.23573(10)
H19_9 H 0.9368 0.7005 0.2429
C37_9 C 0.8865(7) 0.6285(9) 0.2422(2)
C38_9 C 0.9534(10) 0.6669(7) 0.2291(2)
C39_9 C 0.8370(10) 0.5513(10) 0.2373(3)
C40_9 C 0.9566(10) 0.6209(9) 0.2122(2)
C42_9 C 0.9993(7) 0.6144(6) 0.03529(18)
C43_9 C 0.9855(7) 0.6868(9) 0.06530(19)
C44_9 C 0.9156(7) 0.5619(6) 0.04103(19)
C45_9 C 0.8978(5) 0.7867(6) 0.23662(11)
C46_9 C 0.8740(8) 0.6160(9) 0.2562(3)
C47_9 C 0.9962(12) 0.6904(9) 0.23084(19)
C48_9 C 0.8250(11) 0.5444(10) 0.2527(3)
H21_9 H 0.8239 0.5260 0.2316
H22_9 H 0.9418 0.5962 0.2063
C52_9 C 0.9888(7) 0.6035(6) 0.02289(16)
H23_9 H 0.9598 0.6722 0.0709
H24_9 H 0.8912 0.5479 0.0470
C54_9 C 0.9077(7) 0.5528(6) 0.02803(18)
H25_9 H 0.8642 0.7736 0.2378
H26_9 H 0.9062 0.8035 0.2285
C55_9 C 0.9223(5) 0.8210(5) 0.24698(11)
H27_9 H 0.8883 0.6392 0.2625
C56_9 C 0.8429(10) 0.5725(10) 0.2597(3)
H29_9 H 0.8018 0.5150 0.2556
C60_9 C 0.9465(7) 0.5724(7) 0.01916(17)
H36_9 H 0.8772 0.5340 0.0250
C61_9 C 0.9436(5) 0.8095(5) 0.25625(13)
C62_9 C 0.9255(4) 0.8646(5) 0.24814(12)
H37_9 H 0.8362 0.5659 0.2684
H40_9 H 0.9414 0.5627 0.0106
H41_9 H 0.9425 0.7807 0.2557
C65_9 C 0.9668(4) 0.8381(5) 0.26658(11)
C66_9 C 0.9479(5) 0.8915(4) 0.25829(13)
H42_9 H 0.9123 0.8750 0.2419
H45_9 H 0.9800 0.8285 0.2730
C69_9 C 0.9699(4) 0.8820(5) 0.26708(11)
H46_9 H 0.9476 0.9196 0.2592
C71_9 C 0.9968(8) 0.9140(5) 0.27747(11)
O14_9 O 0.6738(4) 0.2850(2) 0.13570(6)
O15_9 O 0.6111(3) 0.3262(4) 0.13570(6)
O16_6 O 0.6540(5) 0.3753(6) 0.11278(7)
O17_6 O 0.6247(6) 0.2788(3) 0.11278(7)
Zn4_6 Zn 0.71110(8) 0.26546(6) 0.127048(14)
Zn5_6 Zn 0.63073(8) 0.22497(6) 0.143266(14)
Zn6_6 Zn 0.55435(6) 0.28890(8) 0.127048(14)
Zn7_6 Zn 0.59423(6) 0.36927(8) 0.143266(14)
O18_9 O 0.7405(4) 0.2482(3) 0.14033(8)
O19_9 O 0.6746(5) 0.2116(4) 0.11753(8)
O20_6 O 0.7579(6) 0.3073(3) 0.11662(7)
O21_9 O 0.6732(5) 0.2108(3) 0.15201(8)
O22_9 O 0.6075(4) 0.1812(3) 0.12985(8)
O23_6 O 0.5813(8) 0.2058(7) 0.15519(9)
O24_9 O 0.5076(3) 0.2595(4) 0.14033(8)
O25_9 O 0.5369(3) 0.3254(5) 0.11753(8)
O26_6 O 0.5493(5) 0.2421(6) 0.11662(7)
O27_9 O 0.5375(4) 0.3268(5) 0.15201(8)
O28_9 O 0.5736(3) 0.3925(4) 0.12985(8)
O29_6 O 0.6244(4) 0.4187(8) 0.15519(9)
C73_9 C 0.7143(8) 0.2254(5) 0.14938(15)
C74_9 C 0.6325(8) 0.1802(5) 0.12100(14)
C75_9 C 0.5110(6) 0.2857(8) 0.14938(15)
C76_9 C 0.5476(6) 0.3675(8) 0.12100(14)
C77_9 C 0.7419(8) 0.2159(5) 0.15960(12)
C78_9 C 0.6099(8) 0.1386(6) 0.11205(13)
C79_9 C 0.4739(6) 0.2581(8) 0.15960(12)
C80_9 C 0.5286(5) 0.3901(8) 0.11205(13)
C81_9 C 0.7202(7) 0.1918(5) 0.17111(15)
C82_9 C 0.7866(7) 0.2285(5) 0.15845(13)
C83_9 C 0.6327(6) 0.1331(4) 0.10098(14)
C84_9 C 0.5688(8) 0.1010(6) 0.11540(12)
C85_9 C 0.4715(5) 0.2798(7) 0.17111(15)
C86_9 C 0.4418(5) 0.2134(7) 0.15845(13)
C87_9 C 0.5003(4) 0.3673(6) 0.10098(14)
C88_9 C 0.5321(5) 0.4312(8) 0.11540(12)
C89_9 C 0.7439(9) 0.1831(6) 0.17950(15)
H49_9 H 0.6888 0.1822 0.1727
H50_9 H 0.8022 0.2448 0.1510
C90_9 C 0.8119(7) 0.2197(5) 0.16727(16)
C91_9 C 0.6120(8) 0.0936(6) 0.09350(14)
H51_9 H 0.6627 0.1573 0.0988
H52_9 H 0.5545 0.1007 0.1232
C92_9 C 0.5471(8) 0.0617(5) 0.10704(16)
C93_9 C 0.4391(7) 0.2561(9) 0.17950(15)
H53_9 H 0.4933 0.3112 0.1727
H54_9 H 0.4425 0.1978 0.1510
C94_9 C 0.4077(5) 0.1881(7) 0.16727(16)
C95_9 C 0.4815(5) 0.3880(8) 0.09350(14)
H55_9 H 0.4945 0.3373 0.0988
H56_9 H 0.5461 0.4455 0.1232
C96_9 C 0.5145(6) 0.4529(8) 0.10704(16)
C97_9 C 0.7910(8) 0.1976(6) 0.17850(16)
H57_9 H 0.7279 0.1656 0.1868
H58_9 H 0.8432 0.2287 0.1657
C98_9 C 0.5689(8) 0.0588(6) 0.09645(14)
H59_9 H 0.6278 0.0909 0.0864
H60_9 H 0.5170 0.0373 0.1090
C99_9 C 0.4065(6) 0.2090(8) 0.17850(16)
H61_9 H 0.4376 0.2721 0.1868
H62_9 H 0.3854 0.1568 0.1657
C100_9 C 0.4898(6) 0.4311(8) 0.09645(14)
H63_9 H 0.4630 0.3722 0.0864
H64_9 H 0.5202 0.4830 0.1090
C101_9 C 0.8185(8) 0.1916(6) 0.18849(15)
C102_9 C 0.5423(8) 0.0169(5) 0.08831(14)
C103_9 C 0.3730(6) 0.1815(8) 0.18849(15)
C104_9 C 0.4745(6) 0.4577(8) 0.08831(14)
H65_9 H 0.8313 0.1726 0.1853
H66_9 H 0.8446 0.2221 0.1910
O30_9 O 0.7907(6) 0.1702(4) 0.19893(13)
H68_9 H 0.5154 0.0171 0.0845
O31_9 O 0.5719(6) 0.0178(4) 0.07880(11)
H69_9 H 0.3412 0.1687 0.1853
H70_9 H 0.3774 0.1554 0.1910
O32_9 O 0.3794(4) 0.2093(6) 0.19893(13)
H71_9 H 0.4576 0.4691 0.0935
H72_9 H 0.5016 0.4846 0.0845
O33_9 O 0.4458(4) 0.4281(6) 0.07880(11)
C105_9 C 0.8059(9) 0.1490(6) 0.20746(17)
C107_9 C 0.3430(7) 0.1941(9) 0.20746(17)
C108_9 C 0.4256(6) 0.4445(9) 0.07119(16)
C109_9 C 0.8523(9) 0.1612(5) 0.20774(15)
C110_9 C 0.7770(10) 0.1286(7) 0.21845(18)
C113_9 C 0.3088(7) 0.1477(9) 0.20774(15)
C114_9 C 0.3515(7) 0.2230(10) 0.21845(18)
C115_9 C 0.4365(6) 0.4895(9) 0.07109(14)
C116_9 C 0.4021(7) 0.4155(10) 0.06032(18)
H73_9 H 0.8739 0.1838 0.2021
C117_9 C 0.8664(8) 0.1395(5) 0.21651(16)
C118_9 C 0.7920(10) 0.1085(7) 0.22676(17)
C119_9 C 0.7302(12) 0.1198(9) 0.2209(2)
C122_9 C 0.6331(9) 0.0231(6) 0.05852(17)
H75_9 H 0.3098 0.1261 0.2021
C123_9 C 0.2730(6) 0.1336(8) 0.21651(16)
C124_9 C 0.3164(7) 0.2080(10) 0.22676(17)
C125_9 C 0.3895(8) 0.2698(12) 0.2209(2)
C126_9 C 0.4149(6) 0.5037(8) 0.06167(19)
H76_9 H 0.4576 0.5108 0.0771
C127_9 C 0.3807(7) 0.4282(10) 0.05146(18)
C128_9 C 0.3899(7) 0.3669(9) 0.05852(17)
H77_9 H 0.8953 0.1408 0.2156
C129_9 C 0.8362(9) 0.1152(7) 0.22698(17)
C130_9 C 0.7539(11) 0.0787(8) 0.23641(19)
H78_9 H 0.7202 0.1354 0.2146
C131_9 C 0.7285(13) 0.1329(9) 0.2332(3)
C132_9 C 0.7022(12) 0.0691(10) 0.2202(2)
H80_9 H 0.6436 0.0483 0.0650
C135_9 C 0.6615(11) 0.0028(7) 0.05812(18)
C136_9 C 0.6316(9) 0.0399(7) 0.04476(17)
H81_9 H 0.2454 0.1047 0.2156
C137_9 C 0.2789(6) 0.1638(9) 0.22698(17)
C138_9 C 0.3247(7) 0.2461(11) 0.23641(19)
H82_9 H 0.4151 0.2798 0.2146
C139_9 C 0.4043(9) 0.2715(13) 0.2332(3)
C140_9 C 0.3668(7) 0.2978(12) 0.2202(2)
C141_9 C 0.3878(8) 0.4710(13) 0.0513(2)
H83_9 H 0.4179 0.5334 0.0621
C142_9 C 0.3507(7) 0.3953(9) 0.04230(17)
H84_9 H 0.4046 0.3564 0.0650
C143_9 C 0.3412(8) 0.3385(11) 0.05812(18)
C144_9 C 0.4082(6) 0.3684(9) 0.04476(17)
O34_9 O 0.8474(6) 0.0942(4) 0.23573(10)
H85_9 H 0.7636 0.0632 0.2429
C145_9 C 0.7419(11) 0.1135(7) 0.2422(2)
C146_9 C 0.7134(12) 0.0466(10) 0.2291(2)
C147_9 C 0.7142(14) 0.1630(10) 0.2373(3)
C148_9 C 0.6642(13) 0.0434(10) 0.2122(2)
C150_9 C 0.6150(9) 0.0007(7) 0.03529(18)
C151_9 C 0.7012(11) 0.0145(7) 0.06530(19)
C152_9 C 0.6462(9) 0.0844(7) 0.04103(19)
O36_9 O 0.2467(4) 0.1526(6) 0.23573(10)
H87_9 H 0.2995 0.2364 0.2429
C153_9 C 0.3715(9) 0.2581(11) 0.2422(2)
C154_9 C 0.3331(7) 0.2866(12) 0.2291(2)
C155_9 C 0.4487(10) 0.2858(14) 0.2373(3)
C156_9 C 0.3791(9) 0.3358(13) 0.2122(2)
O37_9 O 0.3707(4) 0.4910(6) 0.04249(11)
H88_9 H 0.3345 0.4067 0.0367
C157_9 C 0.3196(8) 0.3529(11) 0.04941(17)
C158_9 C 0.3856(6) 0.3850(9) 0.03529(18)
C159_9 C 0.3132(9) 0.2988(11) 0.06530(19)
C160_9 C 0.4381(6) 0.3538(9) 0.04103(19)
C161_9 C 0.8888(8) 0.1022(5) 0.23662(11)
C162_9 C 0.7419(12) 0.1260(8) 0.2562(3)
C163_9 C 0.6941(15) 0.0038(12) 0.23084(19)
C164_9 C 0.7193(15) 0.1750(11) 0.2527(3)
H89_9 H 0.7020 0.1761 0.2316
H90_9 H 0.6543 0.0582 0.2063
C168_9 C 0.6146(9) 0.0112(7) 0.02289(16)
H91_9 H 0.7123 0.0402 0.0709
H92_9 H 0.6566 0.1088 0.0470
C170_9 C 0.6450(9) 0.0923(7) 0.02803(18)
C171_9 C 0.2133(6) 0.1112(8) 0.23662(11)
C172_9 C 0.3840(9) 0.2581(12) 0.2562(3)
C173_9 C 0.3096(9) 0.3059(15) 0.23084(19)
C174_9 C 0.4556(10) 0.2807(15) 0.2527(3)
H93_9 H 0.4740 0.2980 0.2316
C175_9 C 0.3551(9) 0.3571(13) 0.2131(2)
H94_9 H 0.4038 0.3457 0.2063
C176_9 C 0.3888(7) 0.5379(10) 0.04110(17)
C177_9 C 0.2747(10) 0.3298(13) 0.0481(2)
C178_9 C 0.3965(6) 0.3854(9) 0.02289(16)
H95_9 H 0.3278 0.2877 0.0709
C179_9 C 0.2666(9) 0.2753(12) 0.0648(2)
H96_9 H 0.4521 0.3434 0.0470
C180_9 C 0.4472(6) 0.3550(9) 0.02803(18)
H97_9 H 0.9093 0.1358 0.2378
H98_9 H 0.8972 0.0938 0.2285
C181_9 C 0.8986(7) 0.0777(5) 0.24698(11)
H99_9 H 0.7508 0.1117 0.2625
C182_9 C 0.7295(14) 0.1571(10) 0.2597(3)
H101_9 H 0.7131 0.1982 0.2556
C186_9 C 0.6258(10) 0.0535(7) 0.01916(17)
H108_9 H 0.6567 0.1228 0.0250
H109_9 H 0.2264 0.0907 0.2378
H110_9 H 0.1965 0.1028 0.2285
C187_9 C 0.1790(5) 0.1014(7) 0.24698(11)
H111_9 H 0.3608 0.2492 0.2625
C188_9 C 0.4275(10) 0.2705(14) 0.2597(3)
H112_9 H 0.2855 0.2939 0.2370
C189_9 C 0.3194(9) 0.3465(13) 0.2237(2)
H113_9 H 0.4850 0.2869 0.2556
H114_9 H 0.3600 0.3799 0.2070
H115_9 H 0.4229 0.5537 0.0407
H116_9 H 0.3801 0.5505 0.0484
C190_9 C 0.3699(7) 0.5451(10) 0.0294(2)
C191_9 C 0.2489(8) 0.2904(12) 0.0555(2)
H117_9 H 0.2599 0.3398 0.0423
C192_9 C 0.4276(7) 0.3742(10) 0.01916(17)
H118_9 H 0.3815 0.3939 0.0167
H119_9 H 0.2479 0.2507 0.0704
H120_9 H 0.4660 0.3433 0.0250
C193_9 C 0.8658(7) 0.0564(5) 0.25625(13)
C194_9 C 0.9390(6) 0.0745(4) 0.24814(12)
H121_9 H 0.7296 0.1638 0.2684
H124_9 H 0.6212 0.0586 0.0106
C197_9 C 0.1905(5) 0.1342(7) 0.25625(13)
C198_9 C 0.1354(5) 0.0610(6) 0.24814(12)
H125_9 H 0.4341 0.2704 0.2684
H126_9 H 0.3053 0.3646 0.2253
C199_9 C 0.3806(7) 0.5910(11) 0.0255(2)
C200_9 C 0.3481(8) 0.5129(11) 0.0209(2)
H127_9 H 0.2167 0.2727 0.0539
H128_9 H 0.4373 0.3788 0.0106
O38_6 O 0.9874(5) 0.9454(3) 0.27944(7)
H129_9 H 0.8381 0.0575 0.2557
C201_9 C 0.8712(6) 0.0332(4) 0.26658(11)
C202_9 C 0.9435(6) 0.0521(5) 0.25829(13)
H130_9 H 0.9626 0.0877 0.2419
H133_9 H 0.2193 0.1619 0.2557
C205_9 C 0.1619(5) 0.1288(6) 0.26658(11)
C206_9 C 0.1085(4) 0.0565(6) 0.25829(13)
H134_9 H 0.1250 0.0374 0.2419
H135_9 H 0.3975 0.6174 0.0307
C207_9 C 0.3643(7) 0.5937(9) 0.01339(17)
C208_9 C 0.3260(7) 0.5178(9) 0.00888(16)
H136_9 H 0.3459 0.4838 0.0223
H137_9 H 0.8484 0.0200 0.2730
C209_9 C 0.9120(6) 0.0301(4) 0.26708(11)
H138_9 H 0.9719 0.0524 0.2592
H141_9 H 0.1715 0.1516 0.2730
C211_9 C 0.1180(5) 0.0880(6) 0.26708(11)
H142_9 H 0.0804 0.0281 0.2592
H143_9 H 0.3735 0.6241 0.0107
C212_9 C 0.3391(7) 0.5622(9) 0.00550(15)
H144_9 H 0.3046 0.4920 0.0041
C213_9 C 0.9171(9) 0.0032(8) 0.27747(11)
C215_9 C 0.0860(5) 0.0829(9) 0.27747(11)
O41_6 O 0.9581(6) 0.0126(5) 0.27944(7)
O45_6 O 0.0546(3) 0.0419(6) 0.27944(7)
O46_6 O 0.0913(6) 0.1173(5) 0.28328(7)
Zn15_6 Zn 0.04444(8) 0.11231(6) 0.293714(14)
C216_9 C 0.3179(9) 0.5697(14) 0.9948(2)
O47_6 O 0.2911(4) 0.5391(7) 0.98852(9)
O48_9 O 0.3399(4) 0.6098(7) 0.99088(8)
Zn16_6 Zn 0.26090(6) 0.55830(6) 0.976599(14)
H67_9 H 0.5309 0.9886 0.0935
C106_9 C 0.5555(9) 0.9812(7) 0.07119(16)
C111_9 C 0.5105(9) 0.9471(7) 0.07109(14)
C112_9 C 0.5845(10) 0.9867(7) 0.06032(18)
C120_9 C 0.4963(8) 0.9113(6) 0.06167(19)
H74_9 H 0.4892 0.9469 0.0771
C121_9 C 0.5718(10) 0.9526(7) 0.05146(18)
C133_9 C 0.5290(13) 0.9169(10) 0.0513(2)
H79_9 H 0.4666 0.8846 0.0621
C134_9 C 0.6047(9) 0.9555(6) 0.04230(17)
O35_9 O 0.5090(6) 0.8798(5) 0.04249(11)
H86_9 H 0.5933 0.9279 0.0367
C149_9 C 0.6471(11) 0.9668(7) 0.04941(17)
C165_9 C 0.6429(13) 0.9981(10) 0.2131(2)
C166_9 C 0.4621(10) 0.8510(7) 0.04110(17)
C167_9 C 0.6702(13) 0.9450(9) 0.0481(2)
C169_9 C 0.7247(12) 0.9914(8) 0.0648(2)
H100_9 H 0.7061 0.9917 0.2370
C183_9 C 0.6535(13) 0.9730(9) 0.2237(2)
H102_9 H 0.6201 0.9802 0.2070
H103_9 H 0.4463 0.8693 0.0407
H104_9 H 0.4495 0.8297 0.0484
C184_9 C 0.4549(10) 0.8249(7) 0.0294(2)
C185_9 C 0.7096(12) 0.9586(9) 0.0555(2)
H105_9 H 0.6602 0.9202 0.0423
H106_9 H 0.6061 0.9877 0.0167
H107_9 H 0.7493 0.9973 0.0704
H122_9 H 0.6354 0.9408 0.2253
C195_9 C 0.4090(11) 0.7897(8) 0.0255(2)
C196_9 C 0.4871(11) 0.8353(7) 0.0209(2)
H123_9 H 0.7273 0.9441 0.0539
H131_9 H 0.3826 0.7802 0.0307
C203_9 C 0.4063(9) 0.7707(6) 0.01339(17)
C204_9 C 0.4822(9) 0.8083(6) 0.00888(16)
H132_9 H 0.5162 0.8622 0.0223
H139_9 H 0.3759 0.7495 0.0107
C210_9 C 0.4378(9) 0.7770(6) 0.00550(15)
H140_9 H 0.5080 0.8127 0.0041
O42_6 O 0.8827(5) 0.9739(3) 0.28328(7)
Zn12_6 Zn 0.88769(6) 0.93212(6) 0.293714(14)
C214_9 C 0.4303(14) 0.7483(11) 0.9948(2)
O43_6 O 0.4609(7) 0.7520(8) 0.98852(9)
O44_9 O 0.3902(7) 0.7302(6) 0.99088(8)
Zn13_6 Zn 0.44170(6) 0.70260(8) 0.976599(14)
Zn14_2 Zn 0.0001 0.0000 0.29114(3)
Zn11_2 Zn 1.0000 0.9999 0.29114(3)
C113_10 C 0.5190(9) 0.0245(7) 0.04107(15)
H75_10 H 0.5406 0.0235 0.0354
C123_10 C 0.5331(8) 0.0603(6) 0.04984(16)
C124_10 C 0.4587(10) 0.0169(7) 0.06009(17)
H81_10 H 0.5620 0.0879 0.0489
C137_10 C 0.5029(9) 0.0544(6) 0.06031(17)
C138_10 C 0.4206(11) 0.0086(7) 0.06974(19)
O36_10 O 0.5141(6) 0.0866(4) 0.06906(10)
H87_10 H 0.4303 0.0338 0.0762
C154_10 C 0.3801(12) 0.0002(7) 0.0624(2)
C171_10 C 0.5555(8) 0.1200(6) 0.06995(11)
C173_10 C 0.3608(15) 0.0237(9) 0.06417(19)
H109_10 H 0.5760 0.1069 0.0711
H110_10 H 0.5639 0.1368 0.0618
C187_10 C 0.5653(7) 0.1543(5) 0.08031(11)
H112_10 H 0.3728 0.0478 0.0703
C189_10 C 0.3202(13) 0.0139(9) 0.0570(2)
C197_10 C 0.5325(7) 0.1428(5) 0.08958(13)
C198_10 C 0.6057(6) 0.1979(5) 0.08147(12)
H126_10 H 0.3021 0.0280 0.0586
H133_10 H 0.5048 0.1140 0.0890
C205_10 C 0.5379(6) 0.1714(5) 0.09991(11)
C206_10 C 0.6102(6) 0.2248(4) 0.09162(13)
H134_10 H 0.6293 0.2083 0.0752
H141_10 H 0.5151 0.1618 0.1063
C211_10 C 0.5787(6) 0.2153(5) 0.10041(11)
H142_10 H 0.6386 0.2529 0.0925
C215_10 C 0.5838(9) 0.2473(5) 0.11080(11)
C157_10 C 0.3138(11) 0.0137(8) 0.88274(17)
C159_10 C 0.3679(11) 0.0201(9) 0.89863(19)
C177_10 C 0.3369(13) 0.0586(10) 0.8814(2)
H95_10 H 0.3790 0.0055 0.9042
C179_10 C 0.3914(12) 0.0667(9) 0.8981(2)
C191_10 C 0.3763(12) 0.0844(8) 0.8888(2)
H117_10 H 0.3269 0.0734 0.8756
H119_10 H 0.4160 0.0854 0.9037
H127_10 H 0.3940 0.1166 0.8872
C208_10 C 0.1489(9) 0.0073(7) 0.84221(16)
H144_10 H 0.1747 0.0287 0.8374
C216_10 C 0.0970(14) 0.0154(9) 0.8281(2)
C5_10 C 0.1382(5) 0.5251(5) 0.00444(15)
C9_10 C 0.1058(7) 0.5164(6) 0.01283(15)
H1_10 H 0.1600 0.5155 0.0060
C10_10 C 0.0744(5) 0.5530(5) 0.00060(16)
C13_10 C 0.0732(6) 0.5309(6) 0.01183(16)
H5_10 H 0.1043 0.4989 0.0201
C15_10 C 0.0397(6) 0.5249(6) 0.02182(15)
H9_10 H 0.0079 0.5059 0.0186
H10_10 H 0.0441 0.5554 0.0243
O9_10 O 0.0461(4) 0.5035(4) 0.03226(13)
C17_10 C 0.0097(7) 0.4823(6) 0.04079(17)
C20_10 C 0.0182(7) 0.4619(7) 0.05178(18)
C25_10 C 0.0562(8) 0.4531(9) 0.0542(2)
H16_10 H 0.0818 0.4687 0.0479
C31_10 C 0.0710(9) 0.4662(9) 0.0665(3)
C32_10 C 0.0335(7) 0.4024(10) 0.0535(2)
C37_10 C 0.0382(9) 0.4468(7) 0.0755(2)
C39_10 C 0.1154(10) 0.4963(10) 0.0706(3)
C40_10 C 0.0458(9) 0.3767(10) 0.0455(2)
C46_10 C 0.0507(9) 0.4593(8) 0.0895(3)
C48_10 C 0.1223(10) 0.5083(11) 0.0860(3)
H21_10 H 0.1407 0.5094 0.0649
C49_10 C 0.0218(9) 0.3314(10) 0.0464(2)
H22_10 H 0.0705 0.3915 0.0396
H27_10 H 0.0275 0.4450 0.0958
C56_10 C 0.0942(10) 0.4904(10) 0.0930(3)
H29_10 H 0.1517 0.5315 0.0889
H30_10 H 0.0267 0.3135 0.0403
H37_10 H 0.1008 0.4971 0.1017
C81_10 C 0.4749(5) 0.6131(7) 0.00444(15)
C85_10 C 0.3869(7) 0.8618(5) 0.00444(15)
C89_10 C 0.4836(6) 0.5894(9) 0.01283(15)
H49_10 H 0.4845 0.6445 0.0060
C90_10 C 0.4470(5) 0.5214(7) 0.00060(16)
C93_10 C 0.4106(9) 0.8942(7) 0.01283(15)
H53_10 H 0.3555 0.8400 0.0060
C94_10 C 0.4786(7) 0.9256(5) 0.00060(16)
C97_10 C 0.4691(6) 0.5423(8) 0.01183(16)
H57_10 H 0.5011 0.6054 0.0201
C99_10 C 0.4577(8) 0.9268(6) 0.01183(16)
H61_10 H 0.3946 0.8957 0.0201
C101_10 C 0.4751(6) 0.5148(8) 0.02182(15)
C103_10 C 0.4852(8) 0.9603(6) 0.02182(15)
H65_10 H 0.4941 0.5020 0.0186
H66_10 H 0.4446 0.4887 0.0243
O30_10 O 0.4965(4) 0.5426(6) 0.03226(13)
H69_10 H 0.4980 0.9921 0.0186
H70_10 H 0.5113 0.9559 0.0243
O32_10 O 0.4574(6) 0.9539(4) 0.03226(13)
C105_10 C 0.5177(6) 0.5274(9) 0.04079(17)
C107_10 C 0.4726(9) 0.9903(7) 0.04079(17)
C109_10 C 0.5055(5) 0.4810(9) 0.04107(15)
C110_10 C 0.5381(7) 0.5563(10) 0.05178(18)
C114_10 C 0.4437(10) 0.9818(7) 0.05178(18)
H73_10 H 0.4829 0.4594 0.0354
C117_10 C 0.5272(5) 0.4669(8) 0.04984(16)
C118_10 C 0.5582(7) 0.5413(10) 0.06009(17)
C119_10 C 0.5469(9) 0.6031(12) 0.0542(2)
C125_10 C 0.3969(12) 0.9438(8) 0.0542(2)
H77_10 H 0.5259 0.4380 0.0489
C129_10 C 0.5515(7) 0.4971(9) 0.06031(17)
C130_10 C 0.5880(8) 0.5794(11) 0.06974(19)
H78_10 H 0.5313 0.6131 0.0479
C131_10 C 0.5338(9) 0.6048(13) 0.0665(3)
C132_10 C 0.5976(10) 0.6311(12) 0.0535(2)
H82_10 H 0.3869 0.9182 0.0479
C139_10 C 0.3952(13) 0.9290(9) 0.0665(3)
C140_10 C 0.3689(12) 0.9665(7) 0.0535(2)
O34_10 O 0.5725(4) 0.4859(6) 0.06906(10)
H85_10 H 0.6035 0.5697 0.0762
C145_10 C 0.5532(7) 0.5914(11) 0.0755(2)
C146_10 C 0.6201(10) 0.6199(12) 0.0624(2)
C147_10 C 0.5037(10) 0.6191(14) 0.0706(3)
C148_10 C 0.6233(10) 0.6691(13) 0.0455(2)
C153_10 C 0.4086(11) 0.9618(9) 0.0755(2)
C155_10 C 0.3809(14) 0.8846(10) 0.0706(3)
C156_10 C 0.3309(13) 0.9542(9) 0.0455(2)
C161_10 C 0.5645(5) 0.4445(8) 0.06995(11)
C162_10 C 0.5407(8) 0.5914(12) 0.0895(3)
C163_10 C 0.6629(12) 0.6392(15) 0.06417(19)
C164_10 C 0.4917(11) 0.6140(15) 0.0860(3)
H89_10 H 0.4906 0.6313 0.0649
C165_10 C 0.6686(10) 0.6904(13) 0.0464(2)
H90_10 H 0.6085 0.6790 0.0396
C172_10 C 0.4086(12) 0.9493(9) 0.0895(3)
C174_10 C 0.3860(15) 0.8777(10) 0.0860(3)
H93_10 H 0.3687 0.8593 0.0649
C175_10 C 0.3096(13) 0.9782(9) 0.0464(2)
H94_10 H 0.3210 0.9295 0.0396
H97_10 H 0.5309 0.4240 0.0711
H98_10 H 0.5729 0.4361 0.0618
C181_10 C 0.5890(5) 0.4347(7) 0.08031(11)
H99_10 H 0.5550 0.5825 0.0958
C182_10 C 0.5096(10) 0.6038(14) 0.0930(3)
H100_10 H 0.6750 0.6272 0.0703
C183_10 C 0.6937(9) 0.6798(13) 0.0570(2)
H101_10 H 0.4685 0.6202 0.0889
H102_10 H 0.6865 0.7132 0.0403
H111_10 H 0.4175 0.9725 0.0958
C188_10 C 0.3962(14) 0.9058(10) 0.0930(3)
H113_10 H 0.3798 0.8483 0.0889
H114_10 H 0.2868 0.9733 0.0403
C193_10 C 0.6103(5) 0.4675(7) 0.08958(13)
C194_10 C 0.5922(4) 0.3943(6) 0.08147(12)
H121_10 H 0.5029 0.6037 0.1017
H122_10 H 0.7259 0.6979 0.0586
H125_10 H 0.3963 0.8992 0.1017
H129_10 H 0.6092 0.4952 0.0890
C201_10 C 0.6335(4) 0.4621(6) 0.09991(11)
C202_10 C 0.6146(5) 0.3898(6) 0.09162(13)
H130_10 H 0.5790 0.3707 0.0752
H137_10 H 0.6467 0.4849 0.1063
C209_10 C 0.6366(4) 0.4213(6) 0.10041(11)
H138_10 H 0.6143 0.3614 0.0925
C213_10 C 0.6635(8) 0.4162(9) 0.11080(11)
O1_10 O 0.2778(3) 0.6183(2) 0.96903(6)
O2_10 O 0.1743(3) 0.5815(3) 0.97366(8)
O3_10 O 0.2036(3) 0.5449(4) 0.95086(8)
C1_10 C 0.1777(6) 0.5587(5) 0.98271(15)
C2_10 C 0.2143(6) 0.5135(5) 0.95433(14)
O5_10 O 0.2042(4) 0.5441(3) 0.98534(8)
O6_10 O 0.2403(3) 0.5145(3) 0.96318(8)
C3_10 C 0.1406(6) 0.5492(5) 0.99293(12)
C4_10 C 0.1953(5) 0.4719(6) 0.94538(13)
C6_10 C 0.1085(5) 0.5618(5) 0.99178(13)
C7_10 C 0.1670(4) 0.4664(4) 0.93431(14)
C8_10 C 0.1988(5) 0.4343(6) 0.94873(12)
H2_10 H 0.1092 0.5781 0.9843
C11_10 C 0.1482(5) 0.4269(6) 0.92683(14)
H3_10 H 0.1612 0.4906 0.9321
H4_10 H 0.2128 0.4340 0.9565
C12_10 C 0.1812(6) 0.3950(5) 0.94037(16)
H6_10 H 0.0521 0.5620 0.9990
C14_10 C 0.1565(6) 0.3921(6) 0.92978(14)
H7_10 H 0.1297 0.4242 0.9197
H8_10 H 0.1869 0.3706 0.9423
C16_10 C 0.1412(6) 0.3502(5) 0.92164(14)
H11_10 H 0.1243 0.3219 0.9268
H12_10 H 0.1683 0.3504 0.9178
O10_10 O 0.1125(4) 0.3511(4) 0.91213(11)
C18_10 C 0.0923(6) 0.3145(7) 0.90452(16)
C21_10 C 0.1032(6) 0.2804(7) 0.90442(14)
C22_10 C 0.0688(7) 0.3200(7) 0.89365(18)
C26_10 C 0.0816(6) 0.2446(6) 0.89500(19)
H14_10 H 0.1243 0.2802 0.9104
C27_10 C 0.0474(7) 0.2859(7) 0.88479(18)
C28_10 C 0.0566(7) 0.3564(6) 0.89185(17)
C33_10 C 0.0545(8) 0.2502(10) 0.8846(2)
H17_10 H 0.0846 0.2179 0.8954
C34_10 C 0.0174(7) 0.2888(6) 0.87563(17)
H18_10 H 0.0713 0.3816 0.8983
C35_10 C 0.0079(8) 0.3361(7) 0.89145(18)
C36_10 C 0.0749(6) 0.3732(7) 0.87809(17)
O12_10 O 0.0374(4) 0.2131(5) 0.87582(11)
H20_10 H 0.0012 0.2612 0.8700
C42_10 C 0.0523(6) 0.3340(7) 0.86862(18)
C44_10 C 0.1048(6) 0.4177(7) 0.87436(19)
C50_10 C 0.0555(7) 0.1843(7) 0.87443(17)
C52_10 C 0.0632(6) 0.3445(7) 0.85622(16)
H24_10 H 0.1188 0.4421 0.8803
C54_10 C 0.1139(6) 0.4256(7) 0.86136(18)
H31_10 H 0.0896 0.2026 0.8740
H32_10 H 0.0468 0.1630 0.8817
C58_10 C 0.0366(7) 0.1582(7) 0.8627(2)
C60_10 C 0.0943(7) 0.3868(7) 0.85249(17)
H34_10 H 0.0482 0.3210 0.8500
H36_10 H 0.1327 0.4561 0.8583
C63_10 C 0.0473(7) 0.1230(8) 0.8588(2)
C64_10 C 0.0148(8) 0.1686(7) 0.8542(2)
H40_10 H 0.1040 0.3919 0.8439
H43_10 H 0.0642 0.1135 0.8640
C67_10 C 0.0310(7) 0.1040(6) 0.84672(17)
H44_10 H 0.0126 0.1955 0.8556
H47_10 H 0.0402 0.0828 0.8440
C70_10 C 0.0058(7) 0.1103(6) 0.83883(15)
O13_10 O 0.0066(4) 0.0635(6) 0.82421(8)
O14_10 O 0.3817(2) 0.6595(4) 0.96903(6)
O15_10 O 0.3405(4) 0.7222(3) 0.96903(6)
O18_10 O 0.4185(3) 0.5928(4) 0.97366(8)
O19_10 O 0.4551(4) 0.6587(5) 0.95086(8)
O21_10 O 0.4559(3) 0.6601(5) 0.98534(8)
O22_10 O 0.4855(3) 0.7258(4) 0.96318(8)
O24_10 O 0.4072(4) 0.8257(3) 0.97366(8)
O25_10 O 0.3413(5) 0.7964(3) 0.95086(8)
O27_10 O 0.3399(5) 0.7958(4) 0.98534(8)
O28_10 O 0.2742(4) 0.7597(3) 0.96318(8)
C73_10 C 0.4413(5) 0.6190(8) 0.98271(15)
C74_10 C 0.4865(5) 0.7008(8) 0.95433(14)
C75_10 C 0.3810(8) 0.8223(6) 0.98271(15)
C76_10 C 0.2992(8) 0.7857(6) 0.95433(14)
C77_10 C 0.4508(5) 0.5914(8) 0.99293(12)
C78_10 C 0.5281(6) 0.7234(8) 0.94538(13)
C79_10 C 0.4086(8) 0.8594(6) 0.99293(12)
C80_10 C 0.2766(8) 0.8047(5) 0.94538(13)
C82_10 C 0.4382(5) 0.5467(7) 0.99178(13)
C83_10 C 0.5336(4) 0.7006(6) 0.93431(14)
C84_10 C 0.5657(6) 0.7645(8) 0.94873(12)
C86_10 C 0.4533(7) 0.8915(5) 0.99178(13)
C87_10 C 0.2994(6) 0.8330(4) 0.93431(14)
C88_10 C 0.2355(8) 0.8012(5) 0.94873(12)
H50_10 H 0.4219 0.5311 0.9843
C91_10 C 0.5731(6) 0.7213(8) 0.92683(14)
H51_10 H 0.5094 0.6706 0.9321
H52_10 H 0.5660 0.7788 0.9565
C92_10 C 0.6050(5) 0.7862(8) 0.94037(16)
H54_10 H 0.4689 0.8908 0.9843
C95_10 C 0.2787(8) 0.8518(5) 0.92683(14)
H55_10 H 0.3294 0.8388 0.9321
H56_10 H 0.2212 0.7872 0.9565
C96_10 C 0.2138(8) 0.8188(6) 0.94037(16)
H58_10 H 0.4380 0.4901 0.9990
C98_10 C 0.6079(6) 0.7644(8) 0.92978(14)
H59_10 H 0.5758 0.7055 0.9197
H60_10 H 0.6294 0.8163 0.9423
H62_10 H 0.5099 0.9479 0.9990
C100_10 C 0.2356(8) 0.8435(6) 0.92978(14)
H63_10 H 0.2945 0.8703 0.9197
H64_10 H 0.1837 0.8131 0.9423
C102_10 C 0.6498(5) 0.7910(8) 0.92164(14)
C104_10 C 0.2090(8) 0.8588(6) 0.92164(14)
H67_10 H 0.6781 0.8024 0.9268
H68_10 H 0.6496 0.8179 0.9178
O31_10 O 0.6489(4) 0.7614(6) 0.91213(11)
H71_10 H 0.1976 0.8757 0.9268
H72_10 H 0.1821 0.8317 0.9178
O33_10 O 0.2386(6) 0.8875(4) 0.91213(11)
C106_10 C 0.6855(7) 0.7778(9) 0.90452(16)
C108_10 C 0.2222(9) 0.9077(6) 0.90452(16)
C111_10 C 0.7196(7) 0.8228(9) 0.90442(14)
C112_10 C 0.6800(7) 0.7488(10) 0.89365(18)
C115_10 C 0.1772(9) 0.8968(6) 0.90442(14)
C116_10 C 0.2512(10) 0.9312(7) 0.89365(18)
C120_10 C 0.7554(6) 0.8370(8) 0.89500(19)
H74_10 H 0.7198 0.8441 0.9104
C121_10 C 0.7141(7) 0.7615(10) 0.88479(18)
C122_10 C 0.6436(6) 0.7002(9) 0.89185(17)
C126_10 C 0.1630(8) 0.9184(6) 0.89500(19)
H76_10 H 0.1559 0.8757 0.9104
C127_10 C 0.2385(10) 0.9526(7) 0.88479(18)
C128_10 C 0.2998(9) 0.9434(7) 0.89185(17)
C133_10 C 0.7498(10) 0.8043(13) 0.8846(2)
H79_10 H 0.7821 0.8667 0.8954
C134_10 C 0.7112(6) 0.7286(9) 0.87563(17)
H80_10 H 0.6184 0.6897 0.8983
C135_10 C 0.6639(7) 0.6718(11) 0.89145(18)
C136_10 C 0.6268(7) 0.7017(9) 0.87809(17)
C141_10 C 0.1957(13) 0.9455(8) 0.8846(2)
H83_10 H 0.1333 0.9154 0.8954
C142_10 C 0.2714(9) 0.9826(7) 0.87563(17)
H84_10 H 0.3103 0.9287 0.8983
C143_10 C 0.3282(11) 0.9921(8) 0.89145(18)
C144_10 C 0.2983(9) 0.9251(6) 0.87809(17)
O35_10 O 0.7869(5) 0.8243(6) 0.87582(11)
H86_10 H 0.7388 0.7400 0.8700
C149_10 C 0.6999(7) 0.6862(11) 0.88274(17)
C150_10 C 0.6660(7) 0.7183(9) 0.86862(18)
C151_10 C 0.6522(7) 0.6321(11) 0.89863(19)
C152_10 C 0.5823(7) 0.6871(9) 0.87436(19)
O37_10 O 0.1757(6) 0.9626(4) 0.87582(11)
H88_10 H 0.2600 0.9988 0.8700
C158_10 C 0.2817(9) 0.9477(6) 0.86862(18)
C160_10 C 0.3129(9) 0.8952(6) 0.87436(19)
C166_10 C 0.8157(7) 0.8712(10) 0.87443(17)
C167_10 C 0.7217(9) 0.6631(13) 0.8814(2)
C168_10 C 0.6555(7) 0.7187(9) 0.85622(16)
H91_10 H 0.6265 0.6210 0.9042
C169_10 C 0.6753(8) 0.6086(12) 0.8981(2)
H92_10 H 0.5579 0.6767 0.8803
C170_10 C 0.5744(7) 0.6883(9) 0.86136(18)
C176_10 C 0.1288(10) 0.9445(7) 0.87443(17)
C178_10 C 0.2813(9) 0.9368(6) 0.85622(16)
H96_10 H 0.3233 0.8812 0.8803
C180_10 C 0.3117(9) 0.8861(6) 0.86136(18)
H103_10 H 0.7974 0.8870 0.8740
H104_10 H 0.8370 0.8838 0.8817
C184_10 C 0.8418(7) 0.8784(10) 0.8627(2)
C185_10 C 0.7081(9) 0.6237(12) 0.8888(2)
H105_10 H 0.7465 0.6731 0.8756
C186_10 C 0.6132(7) 0.7075(10) 0.85249(17)
H106_10 H 0.6790 0.7272 0.8500
H107_10 H 0.6694 0.5840 0.9037
H108_10 H 0.5439 0.6766 0.8583
H115_10 H 0.1130 0.9104 0.8740
H116_10 H 0.1162 0.9532 0.8817
C190_10 C 0.1216(10) 0.9634(7) 0.8627(2)
C192_10 C 0.2925(10) 0.9057(7) 0.85249(17)
H118_10 H 0.2728 0.9518 0.8500
H120_10 H 0.3234 0.8673 0.8583
C195_10 C 0.8770(8) 0.9243(11) 0.8588(2)
C196_10 C 0.8314(7) 0.8462(11) 0.8542(2)
H123_10 H 0.7226 0.6060 0.8872
H124_10 H 0.6081 0.7121 0.8439
C199_10 C 0.0757(11) 0.9527(7) 0.8588(2)
C200_10 C 0.1538(11) 0.9852(8) 0.8542(2)
H128_10 H 0.2879 0.8960 0.8439
H131_10 H 0.8865 0.9507 0.8640
C203_10 C 0.8960(6) 0.9270(9) 0.84672(17)
C204_10 C 0.8584(6) 0.8511(9) 0.84221(16)
H132_10 H 0.8045 0.8171 0.8556
H135_10 H 0.0493 0.9358 0.8640
C207_10 C 0.0730(9) 0.9690(7) 0.84672(17)
H136_10 H 0.1829 0.9874 0.8556
H139_10 H 0.9172 0.9574 0.8440
C210_10 C 0.8897(6) 0.8955(9) 0.83883(15)
H140_10 H 0.8540 0.8253 0.8374
H143_10 H 0.0426 0.9598 0.8440
C212_10 C 0.1045(9) 0.9942(7) 0.83883(15)
C214_10 C 0.9184(11) 0.9030(14) 0.8281(2)
O44_10 O 0.9365(6) 0.9431(7) 0.82421(8)
O48_10 O 0.0569(7) 0.9934(4) 0.82421(8)
C19_10 C 0.9755(7) 0.4945(5) 0.04107(15)
H13_10 H 0.9765 0.5171 0.0354
C23_10 C 0.9397(6) 0.4728(5) 0.04984(16)
C24_10 C 0.9831(7) 0.4418(7) 0.06009(17)
H15_10 H 0.9121 0.4741 0.0489
C29_10 C 0.9456(6) 0.4485(7) 0.06031(17)
C30_10 C 0.9914(7) 0.4120(8) 0.06974(19)
O11_10 O 0.9134(4) 0.4275(4) 0.06906(10)
H19_10 H 0.9662 0.3965 0.0762
C38_10 C 0.9998(7) 0.3799(10) 0.0624(2)
C45_10 C 0.8800(6) 0.4355(5) 0.06995(11)
C47_10 C 0.9763(9) 0.3371(12) 0.06417(19)
H25_10 H 0.8931 0.4691 0.0711
H26_10 H 0.8632 0.4271 0.0618
C55_10 C 0.8457(5) 0.4110(5) 0.08031(11)
H28_10 H 0.9522 0.3250 0.0703
C57_10 C 0.9861(9) 0.3063(9) 0.0570(2)
C61_10 C 0.8572(5) 0.3897(5) 0.08958(13)
C62_10 C 0.8021(5) 0.4078(4) 0.08147(12)
H38_10 H 0.9720 0.2741 0.0586
H41_10 H 0.8860 0.3908 0.0890
C65_10 C 0.8286(5) 0.3665(4) 0.09991(11)
C66_10 C 0.7752(4) 0.3854(5) 0.09162(13)
H42_10 H 0.7917 0.4210 0.0752
H45_10 H 0.8382 0.3533 0.1063
C69_10 C 0.7847(5) 0.3634(4) 0.10041(11)
H46_10 H 0.7471 0.3857 0.0925
C71_10 C 0.7527(5) 0.3365(8) 0.11080(11)
C41_10 C 0.9863(8) 0.3001(7) 0.88274(17)
C43_10 C 0.9799(9) 0.3478(7) 0.89863(19)
C51_10 C 0.9414(10) 0.2783(9) 0.8814(2)
H23_10 H 0.9945 0.3735 0.9042
C53_10 C 0.9333(9) 0.3247(8) 0.8981(2)
C59_10 C 0.9156(8) 0.2919(9) 0.8888(2)
H33_10 H 0.9266 0.2535 0.8756
H35_10 H 0.9146 0.3306 0.9037
H39_10 H 0.8834 0.2774 0.8872
C68_10 C 0.9927(7) 0.1416(6) 0.84221(16)
H48_10 H 0.9713 0.1460 0.8374
C72_10 C 0.9846(9) 0.0816(11) 0.8281(2)
H67_11 H 0.0114 0.4691 0.5935
C106_11 C 0.0188(7) 0.4445(9) 0.57119(16)
C111_11 C 0.0529(7) 0.4895(9) 0.57109(14)
C112_11 C 0.0133(7) 0.4155(10) 0.56032(18)
C120_11 C 0.0887(6) 0.5037(8) 0.56167(19)
H74_11 H 0.0531 0.5108 0.5771
C121_11 C 0.0474(7) 0.4282(10) 0.55146(18)
C133_11 C 0.0831(10) 0.4710(13) 0.5513(2)
H79_11 H 0.1154 0.5334 0.5621
C134_11 C 0.0445(6) 0.3953(9) 0.54230(17)
O35_11 O 0.1202(5) 0.4910(6) 0.54249(11)
H86_11 H 0.0721 0.4067 0.5367
C149_11 C 0.0332(7) 0.3529(11) 0.54941(17)
C165_11 C 0.0019(10) 0.3571(13) 0.7131(2)
C166_11 C 0.1490(7) 0.5379(10) 0.54110(17)
C167_11 C 0.0550(9) 0.3298(13) 0.5481(2)
C169_11 C 0.0086(8) 0.2753(12) 0.5648(2)
H100_11 H 0.0083 0.2939 0.7370
C183_11 C 0.0270(9) 0.3465(13) 0.7237(2)
H102_11 H 0.0198 0.3799 0.7070
H103_11 H 0.1307 0.5537 0.5407
H104_11 H 0.1703 0.5505 0.5484
C184_11 C 0.1751(7) 0.5451(10) 0.5294(2)
C185_11 C 0.0414(9) 0.2904(12) 0.5555(2)
H105_11 H 0.0798 0.3398 0.5423
H106_11 H 0.0123 0.3939 0.5167
H107_11 H 0.0027 0.2507 0.5704
H122_11 H 0.0592 0.3646 0.7253
C195_11 C 0.2103(8) 0.5910(11) 0.5255(2)
C196_11 C 0.1647(7) 0.5129(11) 0.5209(2)
H123_11 H 0.0559 0.2727 0.5539
H131_11 H 0.2198 0.6174 0.5307
C203_11 C 0.2293(6) 0.5937(9) 0.51339(17)
C204_11 C 0.1917(6) 0.5178(9) 0.50888(16)
H132_11 H 0.1378 0.4838 0.5223
H139_11 H 0.2505 0.6241 0.5107
C210_11 C 0.2230(6) 0.5622(9) 0.50550(15)
H140_11 H 0.1873 0.4920 0.5041
C214_11 C 0.2517(11) 0.5697(14) 0.4948(2)
O44_11 O 0.2698(6) 0.6098(7) 0.49088(8)
O1_11 O 0.6111(3) 0.2850(2) 0.63570(6)
O2_11 O 0.5076(3) 0.2482(3) 0.64033(8)
O3_11 O 0.5369(3) 0.2116(4) 0.61753(8)
C1_11 C 0.5110(6) 0.2254(5) 0.64938(15)
C2_11 C 0.5476(6) 0.1802(5) 0.62100(14)
O5_11 O 0.5375(4) 0.2108(3) 0.65201(8)
O6_11 O 0.5736(3) 0.1812(3) 0.62985(8)
C3_11 C 0.4739(6) 0.2159(5) 0.65960(12)
C4_11 C 0.5286(5) 0.1386(6) 0.61205(13)
C5_11 C 0.4715(5) 0.1918(5) 0.67111(15)
C6_11 C 0.4418(5) 0.2285(5) 0.65845(13)
C7_11 C 0.5003(4) 0.1331(4) 0.60098(14)
C8_11 C 0.5321(5) 0.1010(6) 0.61540(12)
C9_11 C 0.4391(7) 0.1831(6) 0.67950(15)
H1_11 H 0.4933 0.1822 0.6727
H2_11 H 0.4425 0.2448 0.6510
C10_11 C 0.4077(5) 0.2197(5) 0.66727(16)
C11_11 C 0.4815(5) 0.0936(6) 0.59350(14)
H3_11 H 0.4945 0.1573 0.5988
H4_11 H 0.5461 0.1007 0.6232
C12_11 C 0.5145(6) 0.0617(5) 0.60704(16)
C13_11 C 0.4065(6) 0.1976(6) 0.67850(16)
H5_11 H 0.4376 0.1656 0.6868
H6_11 H 0.3854 0.2287 0.6657
C14_11 C 0.4898(6) 0.0588(6) 0.59645(14)
H7_11 H 0.4630 0.0909 0.5864
H8_11 H 0.5202 0.0373 0.6090
C15_11 C 0.3730(6) 0.1916(6) 0.68849(15)
C16_11 C 0.4745(6) 0.0169(5) 0.58831(14)
H9_11 H 0.3412 0.1726 0.6853
H10_11 H 0.3774 0.2221 0.6910
O9_11 O 0.3794(4) 0.1702(4) 0.69893(13)
H12_11 H 0.5016 0.0171 0.5845
O10_11 O 0.4458(4) 0.0178(4) 0.57880(11)
C17_11 C 0.3430(7) 0.1490(6) 0.70746(17)
C19_11 C 0.3088(7) 0.1612(5) 0.70774(15)
C20_11 C 0.3515(7) 0.1286(7) 0.71845(18)
H13_11 H 0.3098 0.1838 0.7021
C23_11 C 0.2730(6) 0.1395(5) 0.71651(16)
C24_11 C 0.3164(7) 0.1085(7) 0.72676(17)
C25_11 C 0.3895(8) 0.1198(9) 0.7209(2)
C28_11 C 0.3899(7) 0.0231(6) 0.55852(17)
H15_11 H 0.2454 0.1408 0.7156
C29_11 C 0.2789(6) 0.1152(7) 0.72698(17)
C30_11 C 0.3247(7) 0.0787(8) 0.73641(19)
H16_11 H 0.4151 0.1354 0.7146
C31_11 C 0.4043(9) 0.1329(9) 0.7332(3)
C32_11 C 0.3668(7) 0.0691(10) 0.7202(2)
H18_11 H 0.4046 0.0483 0.5650
C35_11 C 0.3412(8) 0.0028(7) 0.55812(18)
C36_11 C 0.4082(6) 0.0399(7) 0.54476(17)
O11_11 O 0.2467(4) 0.0942(4) 0.73573(10)
H19_11 H 0.2995 0.0632 0.7429
C37_11 C 0.3715(9) 0.1135(7) 0.7422(2)
C38_11 C 0.3331(7) 0.0466(10) 0.7291(2)
C39_11 C 0.4487(10) 0.1630(10) 0.7373(3)
C40_11 C 0.3791(9) 0.0434(10) 0.7122(2)
C42_11 C 0.3856(6) 0.0007(7) 0.53529(18)
C43_11 C 0.3132(9) 0.0145(7) 0.56530(19)
C44_11 C 0.4381(6) 0.0844(7) 0.54103(19)
C45_11 C 0.2133(6) 0.1022(5) 0.73662(11)
C46_11 C 0.3840(9) 0.1260(8) 0.7562(3)
C47_11 C 0.3096(9) 0.0038(12) 0.73084(19)
C48_11 C 0.4556(10) 0.1750(11) 0.7527(3)
H21_11 H 0.4740 0.1761 0.7316
H22_11 H 0.4038 0.0582 0.7063
C52_11 C 0.3965(6) 0.0112(7) 0.52289(16)
H23_11 H 0.3278 0.0402 0.5709
H24_11 H 0.4521 0.1088 0.5470
C54_11 C 0.4472(6) 0.0923(7) 0.52803(18)
H25_11 H 0.2264 0.1358 0.7378
H26_11 H 0.1965 0.0938 0.7285
C55_11 C 0.1790(5) 0.0777(5) 0.74698(11)
H27_11 H 0.3608 0.1117 0.7625
C56_11 C 0.4275(10) 0.1571(10) 0.7597(3)
H29_11 H 0.4850 0.1982 0.7556
C60_11 C 0.4276(7) 0.0535(7) 0.51916(17)
H36_11 H 0.4660 0.1228 0.5250
C61_11 C 0.1905(5) 0.0564(5) 0.75625(13)
C62_11 C 0.1354(5) 0.0745(4) 0.74814(12)
H37_11 H 0.4341 0.1638 0.7684
H40_11 H 0.4373 0.0586 0.5106
H41_11 H 0.2193 0.0575 0.7557
C65_11 C 0.1619(5) 0.0332(4) 0.76658(11)
C66_11 C 0.1085(4) 0.0521(5) 0.75829(13)
H42_11 H 0.1250 0.0877 0.7419
H45_11 H 0.1715 0.0200 0.7730
C69_11 C 0.1180(5) 0.0301(4) 0.76708(11)
H46_11 H 0.0804 0.0524 0.7592
C71_11 C 0.0860(5) 0.0032(8) 0.77747(11)
O14_11 O 0.7150(2) 0.3262(4) 0.63570(6)
O15_11 O 0.6738(4) 0.3889(3) 0.63570(6)
O18_11 O 0.7518(3) 0.2595(4) 0.64033(8)
O19_11 O 0.7884(4) 0.3254(5) 0.61753(8)
O21_11 O 0.7892(3) 0.3268(5) 0.65201(8)
O22_11 O 0.8188(3) 0.3925(4) 0.62985(8)
O24_11 O 0.7405(4) 0.4924(3) 0.64033(8)
O25_11 O 0.6746(5) 0.4631(3) 0.61753(8)
O27_11 O 0.6732(5) 0.4625(4) 0.65201(8)
O28_11 O 0.6075(4) 0.4264(3) 0.62985(8)
C73_11 C 0.7746(5) 0.2857(8) 0.64938(15)
C74_11 C 0.8198(5) 0.3675(8) 0.62100(14)
C75_11 C 0.7143(8) 0.4890(6) 0.64938(15)
C76_11 C 0.6325(8) 0.4524(6) 0.62100(14)
C77_11 C 0.7841(5) 0.2581(8) 0.65960(12)
C78_11 C 0.8614(6) 0.3901(8) 0.61205(13)
C79_11 C 0.7419(8) 0.5261(6) 0.65960(12)
C80_11 C 0.6099(8) 0.4714(5) 0.61205(13)
C81_11 C 0.8082(5) 0.2798(7) 0.67111(15)
C82_11 C 0.7715(5) 0.2134(7) 0.65845(13)
C83_11 C 0.8669(4) 0.3673(6) 0.60098(14)
C84_11 C 0.8990(6) 0.4312(8) 0.61540(12)
C85_11 C 0.7202(7) 0.5285(5) 0.67111(15)
C86_11 C 0.7866(7) 0.5582(5) 0.65845(13)
C87_11 C 0.6327(6) 0.4997(4) 0.60098(14)
C88_11 C 0.5688(8) 0.4679(5) 0.61540(12)
C89_11 C 0.8169(6) 0.2561(9) 0.67950(15)
H49_11 H 0.8178 0.3112 0.6727
H50_11 H 0.7552 0.1978 0.6510
C90_11 C 0.7803(5) 0.1881(7) 0.66727(16)
C91_11 C 0.9064(6) 0.3880(8) 0.59350(14)
H51_11 H 0.8427 0.3373 0.5988
H52_11 H 0.8993 0.4455 0.6232
C92_11 C 0.9383(5) 0.4529(8) 0.60704(16)
C93_11 C 0.7439(9) 0.5609(7) 0.67950(15)
H53_11 H 0.6888 0.5067 0.6727
H54_11 H 0.8022 0.5575 0.6510
C94_11 C 0.8119(7) 0.5923(5) 0.66727(16)
C95_11 C 0.6120(8) 0.5185(5) 0.59350(14)
H55_11 H 0.6627 0.5055 0.5988
H56_11 H 0.5545 0.4539 0.6232
C96_11 C 0.5471(8) 0.4855(6) 0.60704(16)
C97_11 C 0.8024(6) 0.2090(8) 0.67850(16)
H57_11 H 0.8344 0.2721 0.6868
H58_11 H 0.7713 0.1568 0.6657
C98_11 C 0.9412(6) 0.4311(8) 0.59645(14)
H59_11 H 0.9091 0.3722 0.5864
H60_11 H 0.9627 0.4830 0.6090
C99_11 C 0.7910(8) 0.5935(6) 0.67850(16)
H61_11 H 0.7279 0.5624 0.6868
H62_11 H 0.8432 0.6146 0.6657
C100_11 C 0.5689(8) 0.5102(6) 0.59645(14)
H63_11 H 0.6278 0.5370 0.5864
H64_11 H 0.5170 0.4798 0.6090
C101_11 C 0.8084(6) 0.1815(8) 0.68849(15)
C102_11 C 0.9831(5) 0.4577(8) 0.58831(14)
C103_11 C 0.8185(8) 0.6270(6) 0.68849(15)
C104_11 C 0.5423(8) 0.5255(6) 0.58831(14)
H65_11 H 0.8274 0.1687 0.6853
H66_11 H 0.7779 0.1554 0.6910
O30_11 O 0.8298(4) 0.2093(6) 0.69893(13)
H68_11 H 0.9829 0.4846 0.5845
O31_11 O 0.9822(4) 0.4281(6) 0.57880(11)
H69_11 H 0.8313 0.6588 0.6853
H70_11 H 0.8446 0.6226 0.6910
O32_11 O 0.7907(6) 0.6206(4) 0.69893(13)
H71_11 H 0.5309 0.5424 0.5935
H72_11 H 0.5154 0.4984 0.5845
O33_11 O 0.5719(6) 0.5542(4) 0.57880(11)
C105_11 C 0.8510(6) 0.1941(9) 0.70746(17)
C107_11 C 0.8059(9) 0.6570(7) 0.70746(17)
C108_11 C 0.5555(9) 0.5744(6) 0.57119(16)
C109_11 C 0.8388(5) 0.1477(9) 0.70774(15)
C110_11 C 0.8714(7) 0.2230(10) 0.71845(18)
C113_11 C 0.8523(9) 0.6912(7) 0.70774(15)
C114_11 C 0.7770(10) 0.6485(7) 0.71845(18)
C115_11 C 0.5105(9) 0.5635(6) 0.57109(14)
C116_11 C 0.5845(10) 0.5979(7) 0.56032(18)
H73_11 H 0.8162 0.1261 0.7021
C117_11 C 0.8605(5) 0.1336(8) 0.71651(16)
C118_11 C 0.8915(7) 0.2080(10) 0.72676(17)
C119_11 C 0.8802(9) 0.2698(12) 0.7209(2)
C122_11 C 0.9769(6) 0.3669(9) 0.55852(17)
H75_11 H 0.8739 0.6902 0.7021
C123_11 C 0.8664(8) 0.7270(6) 0.71651(16)
C124_11 C 0.7920(10) 0.6836(7) 0.72676(17)
C125_11 C 0.7302(12) 0.6105(8) 0.7209(2)
C126_11 C 0.4963(8) 0.5851(6) 0.56167(19)
H76_11 H 0.4892 0.5424 0.5771
C127_11 C 0.5718(10) 0.6193(7) 0.55146(18)
C128_11 C 0.6331(9) 0.6101(7) 0.55852(17)
H77_11 H 0.8592 0.1047 0.7156
C129_11 C 0.8848(7) 0.1638(9) 0.72698(17)
C130_11 C 0.9213(8) 0.2461(11) 0.73641(19)
H78_11 H 0.8646 0.2798 0.7146
C131_11 C 0.8671(9) 0.2715(13) 0.7332(3)
C132_11 C 0.9309(10) 0.2978(12) 0.7202(2)
H80_11 H 0.9517 0.3564 0.5650
C135_11 C 0.9972(7) 0.3385(11) 0.55812(18)
C136_11 C 0.9601(7) 0.3684(9) 0.54476(17)
H81_11 H 0.8953 0.7546 0.7156
C137_11 C 0.8362(9) 0.7211(6) 0.72698(17)
C138_11 C 0.7539(11) 0.6753(7) 0.73641(19)
H82_11 H 0.7202 0.5849 0.7146
C139_11 C 0.7285(13) 0.5957(9) 0.7332(3)
C140_11 C 0.7022(12) 0.6332(7) 0.7202(2)
C141_11 C 0.5290(13) 0.6122(8) 0.5513(2)
H83_11 H 0.4666 0.5821 0.5621
C142_11 C 0.6047(9) 0.6493(7) 0.54230(17)
H84_11 H 0.6436 0.5954 0.5650
C143_11 C 0.6615(11) 0.6588(8) 0.55812(18)
C144_11 C 0.6316(9) 0.5918(6) 0.54476(17)
O34_11 O 0.9058(4) 0.1526(6) 0.73573(10)
H85_11 H 0.9368 0.2364 0.7429
C145_11 C 0.8865(7) 0.2581(11) 0.7422(2)
C146_11 C 0.9534(10) 0.2866(12) 0.7291(2)
C147_11 C 0.8370(10) 0.2858(14) 0.7373(3)
C148_11 C 0.9566(10) 0.3358(13) 0.7122(2)
C150_11 C 0.9993(7) 0.3850(9) 0.53529(18)
C151_11 C 0.9855(7) 0.2988(11) 0.56530(19)
C152_11 C 0.9156(7) 0.3538(9) 0.54103(19)
O36_11 O 0.8474(6) 0.7533(4) 0.73573(10)
H87_11 H 0.7636 0.7005 0.7429
C153_11 C 0.7419(11) 0.6285(9) 0.7422(2)
C154_11 C 0.7134(12) 0.6669(7) 0.7291(2)
C155_11 C 0.7142(14) 0.5513(10) 0.7373(3)
C156_11 C 0.6642(13) 0.6209(9) 0.7122(2)
O37_11 O 0.5090(6) 0.6293(4) 0.54249(11)
H88_11 H 0.5933 0.6655 0.5367
C157_11 C 0.6471(11) 0.6804(8) 0.54941(17)
C158_11 C 0.6150(9) 0.6144(6) 0.53529(18)
C159_11 C 0.7012(11) 0.6868(9) 0.56530(19)
C160_11 C 0.6462(9) 0.5619(6) 0.54103(19)
C161_11 C 0.8978(5) 0.1112(8) 0.73662(11)
C162_11 C 0.8740(8) 0.2581(12) 0.7562(3)
C163_11 C 0.9962(12) 0.3059(15) 0.73084(19)
C164_11 C 0.8250(11) 0.2807(15) 0.7527(3)
H89_11 H 0.8239 0.2980 0.7316
H90_11 H 0.9418 0.3457 0.7063
C168_11 C 0.9888(7) 0.3854(9) 0.52289(16)
H91_11 H 0.9598 0.2877 0.5709
H92_11 H 0.8912 0.3434 0.5470
C170_11 C 0.9077(7) 0.3550(9) 0.52803(18)
C171_11 C 0.8888(8) 0.7867(6) 0.73662(11)
C172_11 C 0.7419(12) 0.6160(9) 0.7562(3)
C173_11 C 0.6941(15) 0.6904(9) 0.73084(19)
C174_11 C 0.7193(15) 0.5444(10) 0.7527(3)
H93_11 H 0.7020 0.5260 0.7316
C175_11 C 0.6429(13) 0.6449(9) 0.7131(2)
H94_11 H 0.6543 0.5962 0.7063
C176_11 C 0.4621(10) 0.6112(7) 0.54110(17)
C177_11 C 0.6702(13) 0.7253(10) 0.5481(2)
C178_11 C 0.6146(9) 0.6035(6) 0.52289(16)
H95_11 H 0.7123 0.6722 0.5709
C179_11 C 0.7247(12) 0.7334(9) 0.5648(2)
H96_11 H 0.6566 0.5479 0.5470
C180_11 C 0.6450(9) 0.5528(6) 0.52803(18)
H97_11 H 0.8642 0.0907 0.7378
H98_11 H 0.9062 0.1028 0.7285
C181_11 C 0.9223(5) 0.1014(7) 0.74698(11)
H99_11 H 0.8883 0.2492 0.7625
C182_11 C 0.8429(10) 0.2705(14) 0.7597(3)
H101_11 H 0.8018 0.2869 0.7556
C186_11 C 0.9465(7) 0.3742(10) 0.51916(17)
H108_11 H 0.8772 0.3433 0.5250
H109_11 H 0.9093 0.7736 0.7378
H110_11 H 0.8972 0.8035 0.7285
C187_11 C 0.8986(7) 0.8210(5) 0.74698(11)
H111_11 H 0.7508 0.6392 0.7625
C188_11 C 0.7295(14) 0.5725(10) 0.7597(3)
H112_11 H 0.7061 0.7145 0.7370
C189_11 C 0.6535(13) 0.6806(9) 0.7237(2)
H113_11 H 0.7131 0.5150 0.7556
H114_11 H 0.6201 0.6400 0.7070
H115_11 H 0.4463 0.5771 0.5407
H116_11 H 0.4495 0.6199 0.5484
C190_11 C 0.4549(10) 0.6301(7) 0.5294(2)
C191_11 C 0.7096(12) 0.7511(8) 0.5555(2)
H117_11 H 0.6602 0.7401 0.5423
C192_11 C 0.6258(10) 0.5724(7) 0.51916(17)
H118_11 H 0.6061 0.6185 0.5167
H119_11 H 0.7493 0.7521 0.5704
H120_11 H 0.6567 0.5340 0.5250
C193_11 C 0.9436(5) 0.1342(7) 0.75625(13)
C194_11 C 0.9255(4) 0.0610(6) 0.74814(12)
H121_11 H 0.8362 0.2704 0.7684
H124_11 H 0.9414 0.3788 0.5106
C197_11 C 0.8658(7) 0.8095(5) 0.75625(13)
C198_11 C 0.9390(6) 0.8646(5) 0.74814(12)
H125_11 H 0.7296 0.5659 0.7684
H126_11 H 0.6354 0.6947 0.7253
C199_11 C 0.4090(11) 0.6194(7) 0.5255(2)
C200_11 C 0.4871(11) 0.6519(8) 0.5209(2)
H127_11 H 0.7273 0.7833 0.5539
H128_11 H 0.6212 0.5627 0.5106
H129_11 H 0.9425 0.1619 0.7557
C201_11 C 0.9668(4) 0.1288(6) 0.76658(11)
C202_11 C 0.9479(5) 0.0565(6) 0.75829(13)
H130_11 H 0.9123 0.0374 0.7419
H133_11 H 0.8381 0.7807 0.7557
C205_11 C 0.8712(6) 0.8381(5) 0.76658(11)
C206_11 C 0.9435(6) 0.8915(4) 0.75829(13)
H134_11 H 0.9626 0.8750 0.7419
H135_11 H 0.3826 0.6025 0.5307
C207_11 C 0.4063(9) 0.6357(7) 0.51339(17)
C208_11 C 0.4822(9) 0.6740(7) 0.50888(16)
H136_11 H 0.5162 0.6541 0.5223
H137_11 H 0.9800 0.1516 0.7730
C209_11 C 0.9699(4) 0.0880(6) 0.76708(11)
H138_11 H 0.9476 0.0281 0.7592
H141_11 H 0.8484 0.8285 0.7730
C211_11 C 0.9120(6) 0.8820(5) 0.76708(11)
H142_11 H 0.9719 0.9196 0.7592
H143_11 H 0.3759 0.6265 0.5107
C212_11 C 0.4378(9) 0.6609(7) 0.50550(15)
H144_11 H 0.5080 0.6954 0.5041
C213_11 C 0.9968(8) 0.0829(9) 0.77747(11)
C215_11 C 0.9171(9) 0.9140(5) 0.77747(11)
C216_11 C 0.4303(14) 0.6821(9) 0.4948(2)
O48_11 O 0.3902(7) 0.6601(4) 0.49088(8)
H11_11 H 0.4576 0.9886 0.5935
C18_11 C 0.4256(6) 0.9812(7) 0.57119(16)
C21_11 C 0.4365(6) 0.9471(7) 0.57109(14)
C22_11 C 0.4021(7) 0.9867(7) 0.56032(18)
C26_11 C 0.4149(6) 0.9113(6) 0.56167(19)
H14_11 H 0.4576 0.9469 0.5771
C27_11 C 0.3807(7) 0.9526(7) 0.55146(18)
C33_11 C 0.3878(8) 0.9169(10) 0.5513(2)
H17_11 H 0.4179 0.8846 0.5621
C34_11 C 0.3507(7) 0.9555(6) 0.54230(17)
O12_11 O 0.3707(4) 0.8798(5) 0.54249(11)
H20_11 H 0.3345 0.9279 0.5367
C41_11 C 0.3196(8) 0.9668(7) 0.54941(17)
C49_11 C 0.3551(9) 0.9981(10) 0.7131(2)
C50_11 C 0.3888(7) 0.8510(7) 0.54110(17)
C51_11 C 0.2747(10) 0.9450(9) 0.5481(2)
C53_11 C 0.2666(9) 0.9914(8) 0.5648(2)
H28_11 H 0.2855 0.9917 0.7370
C57_11 C 0.3194(9) 0.9730(9) 0.7237(2)
H30_11 H 0.3600 0.9802 0.7070
H31_11 H 0.4229 0.8693 0.5407
H32_11 H 0.3801 0.8297 0.5484
C58_11 C 0.3699(7) 0.8249(7) 0.5294(2)
C59_11 C 0.2489(8) 0.9586(9) 0.5555(2)
H33_11 H 0.2599 0.9202 0.5423
H34_11 H 0.3815 0.9877 0.5167
H35_11 H 0.2479 0.9973 0.5704
H38_11 H 0.3053 0.9408 0.7253
C63_11 C 0.3806(7) 0.7897(8) 0.5255(2)
C64_11 C 0.3481(8) 0.8353(7) 0.5209(2)
H39_11 H 0.2167 0.9441 0.5539
H43_11 H 0.3975 0.7802 0.5307
C67_11 C 0.3643(7) 0.7707(6) 0.51339(17)
C68_11 C 0.3260(7) 0.8083(6) 0.50888(16)
H44_11 H 0.3459 0.8622 0.5223
H47_11 H 0.3735 0.7495 0.5107
C70_11 C 0.3391(7) 0.7770(6) 0.50550(15)
H48_11 H 0.3046 0.8127 0.5041
C72_11 C 0.3179(9) 0.7483(11) 0.4948(2)
O13_11 O 0.3399(4) 0.7302(6) 0.49088(8)
O15_12 O 0.0072(4) 0.0555(3) 0.30236(6)
O22_12 O 0.1522(3) 0.0591(4) 0.29651(8)
O24_12 O 0.0739(4) 0.1590(3) 0.30699(8)
O25_12 O 0.0080(5) 0.1297(3) 0.28419(8)
O27_12 O 0.0066(5) 0.1291(4) 0.31867(8)
C74_12 C 0.1532(5) 0.0341(8) 0.28766(14)
C75_12 C 0.0477(8) 0.1556(6) 0.31604(15)
C78_12 C 0.1948(6) 0.0567(8) 0.27871(13)
C79_12 C 0.0753(8) 0.1927(6) 0.32626(12)
C83_12 C 0.2003(4) 0.0339(6) 0.26764(14)
C84_12 C 0.2324(6) 0.0978(8) 0.28206(12)
C85_12 C 0.0536(7) 0.1951(5) 0.33777(15)
C86_12 C 0.1200(7) 0.2248(5) 0.32511(13)
C91_12 C 0.2398(6) 0.0546(8) 0.26016(14)
H51_12 H 0.1761 0.0039 0.2654
H52_12 H 0.2327 0.1121 0.2898
C92_12 C 0.2717(5) 0.1195(8) 0.27370(16)
C93_12 C 0.0773(9) 0.2275(7) 0.34616(15)
H53_12 H 0.0222 0.1733 0.3393
H54_12 H 0.1356 0.2241 0.3176
C94_12 C 0.1453(7) 0.2589(5) 0.33393(16)
C98_12 C 0.2746(6) 0.0977(8) 0.26311(14)
H59_12 H 0.2425 0.0388 0.2530
H60_12 H 0.2961 0.1496 0.2756
C99_12 C 0.1244(8) 0.2601(6) 0.34516(16)
H61_12 H 0.0613 0.2290 0.3534
H62_12 H 0.1766 0.2812 0.3323
C102_12 C 0.3165(5) 0.1243(8) 0.25497(14)
C103_12 C 0.1519(8) 0.2936(6) 0.35515(15)
H67_12 H 0.3448 0.1357 0.2601
H68_12 H 0.3163 0.1512 0.2511
O31_12 O 0.3156(4) 0.0947(6) 0.24546(11)
H69_12 H 0.1647 0.3254 0.3519
H70_12 H 0.1780 0.2892 0.3576
O32_12 O 0.1241(6) 0.2872(4) 0.36559(13)
C106_12 C 0.3522(7) 0.1111(9) 0.23785(16)
C107_12 C 0.1393(9) 0.3236(7) 0.37412(17)
C111_12 C 0.3863(7) 0.1561(9) 0.23775(14)
C112_12 C 0.3467(7) 0.0821(10) 0.22698(18)
C113_12 C 0.1857(9) 0.3578(7) 0.37440(15)
C114_12 C 0.1104(10) 0.3151(7) 0.38511(18)
C120_12 C 0.4221(6) 0.1703(8) 0.22833(19)
H74_12 H 0.3865 0.1774 0.2437
C121_12 C 0.3808(7) 0.0948(10) 0.21812(18)
C122_12 C 0.3103(6) 0.0335(9) 0.22518(17)
H75_12 H 0.2073 0.3568 0.3687
C123_12 C 0.1998(8) 0.3936(6) 0.38317(16)
C124_12 C 0.1254(10) 0.3502(7) 0.39342(17)
C125_12 C 0.0636(12) 0.2771(8) 0.3875(2)
C133_12 C 0.4165(10) 0.1376(13) 0.2179(2)
H79_12 H 0.4488 0.2000 0.2287
C134_12 C 0.3779(6) 0.0619(9) 0.20896(17)
H80_12 H 0.2851 0.0230 0.2316
C135_12 C 0.3306(7) 0.0051(11) 0.22478(18)
C136_12 C 0.2935(7) 0.0350(9) 0.21142(17)
H81_12 H 0.2287 0.4212 0.3822
C137_12 C 0.1696(9) 0.3877(6) 0.39364(17)
C138_12 C 0.0873(11) 0.3419(7) 0.40307(19)
H82_12 H 0.0536 0.2515 0.3812
C139_12 C 0.0619(13) 0.2623(9) 0.3998(3)
C140_12 C 0.0356(12) 0.2998(7) 0.3868(2)
C148_12 C 0.2900(10) 0.0024(13) 0.3788(2)
O35_12 O 0.4536(5) 0.1576(6) 0.20915(11)
H86_12 H 0.4055 0.0733 0.2033
C149_12 C 0.3666(7) 0.0195(11) 0.21607(17)
C150_12 C 0.3327(7) 0.0516(9) 0.20195(18)
C152_12 C 0.2490(7) 0.0204(9) 0.20769(19)
O36_12 O 0.1808(6) 0.4199(4) 0.40239(10)
H87_12 H 0.0970 0.3671 0.4095
C153_12 C 0.0753(11) 0.2951(9) 0.4088(2)
C154_12 C 0.0468(12) 0.3335(7) 0.3957(2)
C155_12 C 0.0476(14) 0.2179(10) 0.4039(3)
C159_12 C 0.0346(11) 0.3534(9) 0.23196(19)
C165_12 C 0.3353(10) 0.0237(13) 0.3797(2)
H90_12 H 0.2752 0.0123 0.3729
C166_12 C 0.4824(7) 0.2045(10) 0.20776(17)
C168_12 C 0.3222(7) 0.0520(9) 0.18955(16)
H92_12 H 0.2246 0.0100 0.2136
C170_12 C 0.2411(7) 0.0216(9) 0.19469(18)
C171_12 C 0.2222(8) 0.4533(6) 0.40328(11)
C172_12 C 0.0753(12) 0.2826(9) 0.4228(3)
C173_12 C 0.0275(15) 0.3570(9) 0.39750(19)
C174_12 C 0.0527(15) 0.2110(10) 0.4193(3)
H93_12 H 0.0354 0.1926 0.3982
C177_12 C 0.0036(13) 0.3919(10) 0.2147(2)
H95_12 H 0.0457 0.3388 0.2375
C179_12 C 0.0581(12) 0.4000(9) 0.2314(2)
C183_12 C 0.3604(9) 0.0131(13) 0.3903(2)
H102_12 H 0.3532 0.0465 0.3736
H103_12 H 0.4641 0.2203 0.2073
H104_12 H 0.5037 0.2171 0.2150
C184_12 C 0.5085(7) 0.2117(10) 0.1960(2)
H105_12 H 0.4132 0.0064 0.2089
C186_12 C 0.2799(7) 0.0408(10) 0.18582(17)
H106_12 H 0.3457 0.0605 0.1833
H108_12 H 0.2106 0.0099 0.1916
H109_12 H 0.2427 0.4402 0.4044
H110_12 H 0.2306 0.4701 0.3951
C187_12 C 0.2320(7) 0.4876(5) 0.41364(11)
H111_12 H 0.0842 0.3058 0.4291
C188_12 C 0.0629(14) 0.2391(10) 0.4263(3)
H112_12 H 0.0395 0.3811 0.4036
H113_12 H 0.0465 0.1816 0.4222
C191_12 C 0.0430(12) 0.4177(8) 0.2221(2)
H119_12 H 0.0827 0.4187 0.2370
H122_12 H 0.3926 0.0312 0.3919
C195_12 C 0.5437(8) 0.2576(11) 0.1921(2)
C196_12 C 0.4981(7) 0.1795(11) 0.1875(2)
H124_12 H 0.2748 0.0454 0.1772
C197_12 C 0.1992(7) 0.4761(5) 0.42291(13)
C198_12 C 0.2724(6) 0.5312(5) 0.41480(12)
H125_12 H 0.0630 0.2325 0.4350
H127_12 H 0.0607 0.4499 0.2205
H131_12 H 0.5532 0.2840 0.1973
C203_12 C 0.5627(6) 0.2603(9) 0.18005(17)
C204_12 C 0.5251(6) 0.1844(9) 0.17554(16)
H132_12 H 0.4712 0.1504 0.1889
H133_12 H 0.1715 0.4473 0.4223
C205_12 C 0.2046(6) 0.5047(5) 0.43324(11)
C206_12 C 0.2769(6) 0.5581(4) 0.42495(13)
H134_12 H 0.2960 0.5416 0.4085
H139_12 H 0.5839 0.2907 0.1773
C210_12 C 0.5564(6) 0.2288(9) 0.17216(15)
H140_12 H 0.5207 0.1586 0.1707
H141_12 H 0.1818 0.4951 0.4396
C211_12 C 0.2454(6) 0.5486(5) 0.43374(11)
H142_12 H 0.3053 0.5862 0.4258
C214_12 C 0.5851(11) 0.2363(14) 0.1614(2)
C215_12 C 0.2505(9) 0.5806(5) 0.44413(11)
O44_12 O 0.6032(6) 0.2764(7) 0.15754(8)
O14_12 O 0.0484(2) 0.9928(4) 0.30236(6)
O18_12 O 0.0852(3) 0.9261(4) 0.30699(8)
O19_12 O 0.1218(4) 0.9920(5) 0.28419(8)
O21_12 O 0.1226(3) 0.9934(5) 0.31867(8)
C73_12 C 0.1080(5) 0.9523(8) 0.31604(15)
C77_12 C 0.1175(5) 0.9247(8) 0.32626(12)
C81_12 C 0.1416(5) 0.9464(7) 0.33777(15)
C82_12 C 0.1049(5) 0.8800(7) 0.32511(13)
C89_12 C 0.1503(6) 0.9227(9) 0.34616(15)
H49_12 H 0.1512 0.9778 0.3393
H50_12 H 0.0886 0.8644 0.3176
C90_12 C 0.1137(5) 0.8547(7) 0.33393(16)
C97_12 C 0.1358(6) 0.8756(8) 0.34516(16)
H57_12 H 0.1678 0.9387 0.3534
H58_12 H 0.1047 0.8234 0.3323
C101_12 C 0.1418(6) 0.8481(8) 0.35515(15)
H65_12 H 0.1608 0.8353 0.3519
H66_12 H 0.1113 0.8220 0.3576
O30_12 O 0.1632(4) 0.8759(6) 0.36559(13)
C105_12 C 0.1844(6) 0.8607(9) 0.37412(17)
C109_12 C 0.1722(5) 0.8143(9) 0.37440(15)
C110_12 C 0.2048(7) 0.8896(10) 0.38511(18)
H73_12 H 0.1496 0.7927 0.3687
C117_12 C 0.1939(5) 0.8002(8) 0.38317(16)
C118_12 C 0.2249(7) 0.8746(10) 0.39342(17)
C119_12 C 0.2136(9) 0.9364(12) 0.3875(2)
H77_12 H 0.1926 0.7713 0.3822
C129_12 C 0.2182(7) 0.8304(9) 0.39364(17)
C130_12 C 0.2547(8) 0.9127(11) 0.40307(19)
H78_12 H 0.1980 0.9464 0.3812
C131_12 C 0.2005(9) 0.9381(13) 0.3998(3)
C132_12 C 0.2643(10) 0.9644(12) 0.3868(2)
O34_12 O 0.2392(4) 0.8192(6) 0.40239(10)
H85_12 H 0.2702 0.9030 0.4095
C145_12 C 0.2199(7) 0.9247(11) 0.4088(2)
C146_12 C 0.2868(10) 0.9532(12) 0.3957(2)
C147_12 C 0.1704(10) 0.9524(14) 0.4039(3)
C151_12 C 0.3189(7) 0.9654(11) 0.23196(19)
C161_12 C 0.2312(5) 0.7778(8) 0.40328(11)
C162_12 C 0.2074(8) 0.9247(12) 0.4228(3)
C163_12 C 0.3296(12) 0.9725(15) 0.39750(19)
C164_12 C 0.1584(11) 0.9473(15) 0.4193(3)
H89_12 H 0.1573 0.9646 0.3982
C167_12 C 0.3884(9) 0.9964(13) 0.2147(2)
H91_12 H 0.2932 0.9543 0.2375
C169_12 C 0.3420(8) 0.9419(12) 0.2314(2)
H97_12 H 0.1976 0.7573 0.4044
H98_12 H 0.2396 0.7694 0.3951
C181_12 C 0.2557(5) 0.7680(7) 0.41364(11)
H99_12 H 0.2217 0.9158 0.4291
C182_12 C 0.1763(10) 0.9371(14) 0.4263(3)
H100_12 H 0.3417 0.9605 0.4036
H101_12 H 0.1352 0.9535 0.4222
C185_12 C 0.3748(9) 0.9570(12) 0.2221(2)
H107_12 H 0.3361 0.9173 0.2370
C193_12 C 0.2770(5) 0.8008(7) 0.42291(13)
C194_12 C 0.2589(4) 0.7276(6) 0.41480(12)
H121_12 H 0.1696 0.9370 0.4350
H123_12 H 0.3893 0.9393 0.2205
H129_12 H 0.2759 0.8285 0.4223
C201_12 C 0.3002(4) 0.7954(6) 0.43324(11)
C202_12 C 0.2813(5) 0.7231(6) 0.42495(13)
H130_12 H 0.2457 0.7040 0.4085
H137_12 H 0.3134 0.8182 0.4396
C209_12 C 0.3033(4) 0.7546(6) 0.43374(11)
H138_12 H 0.2810 0.6947 0.4258
C213_12 C 0.3302(8) 0.7495(9) 0.44413(11)
O28_12 O 0.9409(4) 0.0930(3) 0.29651(8)
C76_12 C 0.9659(8) 0.1190(6) 0.28766(14)
C80_12 C 0.9433(8) 0.1380(5) 0.27871(13)
C87_12 C 0.9661(6) 0.1663(4) 0.26764(14)
C88_12 C 0.9022(8) 0.1345(5) 0.28206(12)
C95_12 C 0.9454(8) 0.1851(5) 0.26016(14)
H55_12 H 0.9961 0.1721 0.2654
H56_12 H 0.8879 0.1205 0.2898
C96_12 C 0.8805(8) 0.1521(6) 0.27370(16)
C100_12 C 0.9023(8) 0.1768(6) 0.26311(14)
H63_12 H 0.9612 0.2036 0.2530
H64_12 H 0.8504 0.1464 0.2756
C104_12 C 0.8757(8) 0.1921(6) 0.25497(14)
H71_12 H 0.8643 0.2090 0.2601
H72_12 H 0.8488 0.1650 0.2511
O33_12 O 0.9053(6) 0.2208(4) 0.24546(11)
C108_12 C 0.8889(9) 0.2410(6) 0.23785(16)
C115_12 C 0.8439(9) 0.2301(6) 0.23775(14)
C116_12 C 0.9179(10) 0.2645(7) 0.22698(18)
C126_12 C 0.8297(8) 0.2517(6) 0.22833(19)
H76_12 H 0.8226 0.2090 0.2437
C127_12 C 0.9052(10) 0.2859(7) 0.21812(18)
C128_12 C 0.9665(9) 0.2767(7) 0.22518(17)
C141_12 C 0.8624(13) 0.2788(8) 0.2179(2)
H83_12 H 0.8000 0.2487 0.2287
C142_12 C 0.9381(9) 0.3159(7) 0.20896(17)
H84_12 H 0.9770 0.2620 0.2316
C143_12 C 0.9949(11) 0.3254(8) 0.22478(18)
C144_12 C 0.9650(9) 0.2584(6) 0.21142(17)
C156_12 C 0.9976(13) 0.2875(9) 0.3788(2)
O37_12 O 0.8424(6) 0.2959(4) 0.20915(11)
H88_12 H 0.9267 0.3321 0.2033
C157_12 C 0.9805(11) 0.3470(8) 0.21607(17)
C158_12 C 0.9484(9) 0.2810(6) 0.20195(18)
C160_12 C 0.9796(9) 0.2285(6) 0.20769(19)
C175_12 C 0.9763(13) 0.3115(9) 0.3797(2)
H94_12 H 0.9877 0.2628 0.3729
C176_12 C 0.7955(10) 0.2778(7) 0.20776(17)
C178_12 C 0.9480(9) 0.2701(6) 0.18955(16)
H96_12 H 0.9900 0.2145 0.2136
C180_12 C 0.9784(9) 0.2194(6) 0.19469(18)
C189_12 C 0.9869(13) 0.3472(9) 0.3903(2)
H114_12 H 0.9535 0.3066 0.3736
H115_12 H 0.7797 0.2437 0.2073
H116_12 H 0.7829 0.2865 0.2150
C190_12 C 0.7883(10) 0.2967(7) 0.1960(2)
H117_12 H 0.9936 0.4067 0.2089
C192_12 C 0.9592(10) 0.2390(7) 0.18582(17)
H118_12 H 0.9395 0.2851 0.1833
H120_12 H 0.9901 0.2006 0.1916
H126_12 H 0.9688 0.3613 0.3919
C199_12 C 0.7424(11) 0.2860(7) 0.1921(2)
C200_12 C 0.8205(11) 0.3185(8) 0.1875(2)
H128_12 H 0.9546 0.2293 0.1772
H135_12 H 0.7160 0.2691 0.1973
C207_12 C 0.7397(9) 0.3023(7) 0.18005(17)
C208_12 C 0.8156(9) 0.3406(7) 0.17554(16)
H136_12 H 0.8496 0.3207 0.1889
H143_12 H 0.7093 0.2931 0.1773
C212_12 C 0.7712(9) 0.3275(7) 0.17216(15)
H144_12 H 0.8414 0.3620 0.1707
C216_12 C 0.7637(14) 0.3487(9) 0.1614(2)
O48_12 O 0.7236(7) 0.3267(4) 0.15754(8)
O1_12 O 0.9445(3) 0.9516(2) 0.30236(6)
O2_12 O 0.8410(3) 0.9148(3) 0.30699(8)
O3_12 O 0.8703(3) 0.8782(4) 0.28419(8)
C1_12 C 0.8444(6) 0.8920(5) 0.31604(15)
C2_12 C 0.8810(6) 0.8468(5) 0.28766(14)
O5_12 O 0.8709(4) 0.8774(3) 0.31867(8)
O6_12 O 0.9070(3) 0.8478(3) 0.29651(8)
C3_12 C 0.8073(6) 0.8825(5) 0.32626(12)
C4_12 C 0.8620(5) 0.8052(6) 0.27871(13)
C5_12 C 0.8049(5) 0.8584(5) 0.33777(15)
C6_12 C 0.7752(5) 0.8951(5) 0.32511(13)
C7_12 C 0.8337(4) 0.7997(4) 0.26764(14)
C8_12 C 0.8655(5) 0.7676(6) 0.28206(12)
C9_12 C 0.7725(7) 0.8497(6) 0.34616(15)
H1_12 H 0.8267 0.8488 0.3393
H2_12 H 0.7759 0.9114 0.3176
C10_12 C 0.7411(5) 0.8863(5) 0.33393(16)
C11_12 C 0.8149(5) 0.7602(6) 0.26016(14)
H3_12 H 0.8279 0.8239 0.2654
H4_12 H 0.8795 0.7673 0.2898
C12_12 C 0.8479(6) 0.7283(5) 0.27370(16)
C13_12 C 0.7399(6) 0.8642(6) 0.34516(16)
H5_12 H 0.7710 0.8322 0.3534
H6_12 H 0.7188 0.8953 0.3323
C14_12 C 0.8232(6) 0.7254(6) 0.26311(14)
H7_12 H 0.7964 0.7575 0.2530
H8_12 H 0.8536 0.7039 0.2756
C15_12 C 0.7064(6) 0.8582(6) 0.35515(15)
C16_12 C 0.8079(6) 0.6835(5) 0.25497(14)
H9_12 H 0.6746 0.8392 0.3519
H10_12 H 0.7108 0.8887 0.3576
O9_12 O 0.7128(4) 0.8368(4) 0.36559(13)
H11_12 H 0.7910 0.6552 0.2601
H12_12 H 0.8350 0.6837 0.2511
O10_12 O 0.7792(4) 0.6844(4) 0.24546(11)
C17_12 C 0.6764(7) 0.8156(6) 0.37412(17)
C18_12 C 0.7590(6) 0.6478(7) 0.23785(16)
C19_12 C 0.6422(7) 0.8278(5) 0.37440(15)
C20_12 C 0.6849(7) 0.7952(7) 0.38511(18)
C21_12 C 0.7699(6) 0.6137(7) 0.23775(14)
C22_12 C 0.7355(7) 0.6533(7) 0.22698(18)
H13_12 H 0.6432 0.8504 0.3687
C23_12 C 0.6064(6) 0.8061(5) 0.38317(16)
C24_12 C 0.6498(7) 0.7751(7) 0.39342(17)
C25_12 C 0.7229(8) 0.7864(9) 0.3875(2)
C26_12 C 0.7483(6) 0.5779(6) 0.22833(19)
H14_12 H 0.7910 0.6135 0.2437
C27_12 C 0.7141(7) 0.6192(7) 0.21812(18)
C28_12 C 0.7233(7) 0.6897(6) 0.22518(17)
H15_12 H 0.5788 0.8074 0.3822
C29_12 C 0.6123(6) 0.7818(7) 0.39364(17)
C30_12 C 0.6581(7) 0.7453(8) 0.40307(19)
H16_12 H 0.7485 0.8020 0.3812
C31_12 C 0.7377(9) 0.7995(9) 0.3998(3)
C32_12 C 0.7002(7) 0.7357(10) 0.3868(2)
C33_12 C 0.7212(8) 0.5835(10) 0.2179(2)
H17_12 H 0.7513 0.5512 0.2287
C34_12 C 0.6841(7) 0.6221(6) 0.20896(17)
H18_12 H 0.7380 0.7149 0.2316
C35_12 C 0.6746(8) 0.6694(7) 0.22478(18)
C36_12 C 0.7416(6) 0.7065(7) 0.21142(17)
O11_12 O 0.5801(4) 0.7608(4) 0.40239(10)
H19_12 H 0.6329 0.7298 0.4095
C37_12 C 0.7049(9) 0.7801(7) 0.4088(2)
C38_12 C 0.6665(7) 0.7132(10) 0.3957(2)
C39_12 C 0.7821(10) 0.8296(10) 0.4039(3)
C40_12 C 0.7125(9) 0.7100(10) 0.3788(2)
O12_12 O 0.7041(4) 0.5464(5) 0.20915(11)
H20_12 H 0.6679 0.5945 0.2033
C41_12 C 0.6530(8) 0.6334(7) 0.21607(17)
C42_12 C 0.7190(6) 0.6673(7) 0.20195(18)
C43_12 C 0.6466(9) 0.6811(7) 0.23196(19)
C44_12 C 0.7715(6) 0.7510(7) 0.20769(19)
C45_12 C 0.5467(6) 0.7688(5) 0.40328(11)
C46_12 C 0.7174(9) 0.7926(8) 0.4228(3)
C47_12 C 0.6430(9) 0.6704(12) 0.39750(19)
C48_12 C 0.7890(10) 0.8416(11) 0.4193(3)
H21_12 H 0.8074 0.8427 0.3982
C49_12 C 0.6885(9) 0.6647(10) 0.3797(2)
H22_12 H 0.7372 0.7248 0.3729
C50_12 C 0.7222(7) 0.5176(7) 0.20776(17)
C51_12 C 0.6081(10) 0.6116(9) 0.2147(2)
C52_12 C 0.7299(6) 0.6778(7) 0.18955(16)
H23_12 H 0.6612 0.7068 0.2375
C53_12 C 0.6000(9) 0.6580(8) 0.2314(2)
H24_12 H 0.7855 0.7754 0.2136
C54_12 C 0.7806(6) 0.7589(7) 0.19469(18)
H25_12 H 0.5598 0.8024 0.4044
H26_12 H 0.5299 0.7604 0.3951
C55_12 C 0.5124(5) 0.7443(5) 0.41364(11)
H27_12 H 0.6942 0.7783 0.4291
C56_12 C 0.7609(10) 0.8237(10) 0.4263(3)
H28_12 H 0.6189 0.6583 0.4036
C57_12 C 0.6528(9) 0.6396(9) 0.3903(2)
H29_12 H 0.8184 0.8648 0.4222
H30_12 H 0.6934 0.6468 0.3736
H31_12 H 0.7563 0.5359 0.2073
H32_12 H 0.7135 0.4963 0.2150
C58_12 C 0.7033(7) 0.4915(7) 0.1960(2)
C59_12 C 0.5823(8) 0.6252(9) 0.2221(2)
H33_12 H 0.5933 0.5868 0.2089
C60_12 C 0.7610(7) 0.7201(7) 0.18582(17)
H34_12 H 0.7149 0.6543 0.1833
H35_12 H 0.5813 0.6639 0.2370
H36_12 H 0.7994 0.7894 0.1916
C61_12 C 0.5239(5) 0.7230(5) 0.42291(13)
C62_12 C 0.4688(5) 0.7411(4) 0.41480(12)
H37_12 H 0.7675 0.8304 0.4350
H38_12 H 0.6387 0.6074 0.3919
C63_12 C 0.7140(7) 0.4563(8) 0.1921(2)
C64_12 C 0.6815(8) 0.5019(7) 0.1875(2)
H39_12 H 0.5501 0.6107 0.2205
H40_12 H 0.7707 0.7252 0.1772
H41_12 H 0.5527 0.7241 0.4223
C65_12 C 0.4953(5) 0.6998(4) 0.43324(11)
C66_12 C 0.4419(4) 0.7187(5) 0.42495(13)
H42_12 H 0.4584 0.7543 0.4085
H43_12 H 0.7309 0.4468 0.1973
C67_12 C 0.6977(7) 0.4373(6) 0.18005(17)
C68_12 C 0.6594(7) 0.4749(6) 0.17554(16)
H44_12 H 0.6793 0.5288 0.1889
H45_12 H 0.5049 0.6866 0.4396
C69_12 C 0.4514(5) 0.6967(4) 0.43374(11)
H46_12 H 0.4138 0.7190 0.4258
H47_12 H 0.7069 0.4161 0.1773
C70_12 C 0.6725(7) 0.4436(6) 0.17216(15)
H48_12 H 0.6380 0.4793 0.1707
C71_12 C 0.4194(5) 0.6698(8) 0.44413(11)
C72_12 C 0.6513(9) 0.4149(11) 0.1614(2)
O13_12 O 0.6733(4) 0.3968(6) 0.15754(8)
loop_
_geom_bond_atom_site_label_1
_geom_bond_atom_site_label_2
_geom_bond_site_symmetry_1
_geom_bond_site_symmetry_2
C51 C41 1_555 1_555
H23 C43 1_555 1_555
C53 C43 1_555 1_555
C59 C51 1_555 1_555
H33 C51 1_555 1_555
H35 C53 1_555 1_555
H39 C59 1_555 1_555
H48 C68 1_555 1_555
O40 C72 1_555 1_555
Zn10 O40 1_555 1_555
C53 C59 1_555 1_555
H13 C19 1_555 1_555
C23 C19 1_555 1_555
H15 C23 1_555 1_555
C29 C23 1_555 1_555
C30 C24 1_555 1_555
O11 C29 1_555 1_555
H19 C30 1_555 1_555
C38 C30 1_555 1_555
C45 O11 1_555 1_555
C47 C38 1_555 1_555
H25 C45 1_555 1_555
H26 C45 1_555 1_555
C55 C45 1_555 1_555
H28 C47 1_555 1_555
C57 C47 1_555 1_555
C61 C55 1_555 1_555
C62 C55 1_555 1_555
H38 C57 1_555 1_555
H41 C61 1_555 1_555
C65 C61 1_555 1_555
C66 C62 1_555 1_555
H42 C62 1_555 1_555
H45 C65 1_555 1_555
C69 C65 1_555 1_555
H46 C66 1_555 1_555
C71 C69 1_555 1_555
O38 C71 1_555 1_555
O39 C71 1_555 1_555
Zn8 O38 1_555 1_555
Zn9 O39 1_555 1_555
C24 C29 1_555 1_555
C66 C69 1_555 1_555
Zn1 O1 1_555 1_555
O1 Zn2 1_555 1_555
O2 Zn1 1_555 1_555
O3 Zn1 1_555 1_555
O4 Zn1 1_555 1_555
Zn2 O5 1_555 1_555
Zn3 O1 1_555 1_555
C1 O2 1_555 1_555
C2 O3 1_555 1_555
O5 C1 1_555 1_555
O6 Zn2 1_555 1_555
O7 Zn2 1_555 1_555
O8 Zn3 1_555 1_555
C3 C1 1_555 1_555
C4 C2 1_555 1_555
C6 C3 1_555 1_555
C7 C4 1_555 1_555
C8 C4 1_555 1_555
H2 C6 1_555 1_555
C11 C7 1_555 1_555
H3 C7 1_555 1_555
H4 C8 1_555 1_555
C12 C8 1_555 1_555
C14 C11 1_555 1_555
H7 C11 1_555 1_555
H8 C12 1_555 1_555
C16 C14 1_555 1_555
H11 C16 1_555 1_555
H12 C16 1_555 1_555
O10 C16 1_555 1_555
C18 O10 1_555 1_555
C21 C18 1_555 1_555
C22 C18 1_555 1_555
C26 C21 1_555 1_555
H14 C21 1_555 1_555
C27 C22 1_555 1_555
C28 C22 1_555 1_555
C33 C26 1_555 1_555
H17 C26 1_555 1_555
C34 C27 1_555 1_555
H18 C28 1_555 1_555
C35 C28 1_555 1_555
C36 C28 1_555 1_555
O12 C33 1_555 1_555
H20 C34 1_555 1_555
C42 C34 1_555 1_555
C44 C36 1_555 1_555
C50 O12 1_555 1_555
C52 C42 1_555 1_555
H24 C44 1_555 1_555
C54 C44 1_555 1_555
H31 C50 1_555 1_555
H32 C50 1_555 1_555
C58 C50 1_555 1_555
C60 C52 1_555 1_555
H34 C52 1_555 1_555
H36 C54 1_555 1_555
C63 C58 1_555 1_555
C64 C58 1_555 1_555
H40 C60 1_555 1_555
H43 C63 1_555 1_555
C67 C63 1_555 1_555
H44 C64 1_555 1_555
H47 C67 1_555 1_555
C70 C67 1_555 1_555
O14 Zn3 1_555 1_555
O15 Zn3 1_555 1_555
O16 Zn3 1_555 1_555
O17 Zn3 1_555 1_555
Zn4 O14 1_555 1_555
Zn5 O14 1_555 1_555
Zn6 O15 1_555 1_555
Zn7 O15 1_555 1_555
O18 Zn4 1_555 1_555
O19 Zn4 1_555 1_555
O20 Zn4 1_555 1_555
O21 Zn5 1_555 1_555
O22 Zn5 1_555 1_555
O23 Zn5 1_555 1_555
O24 Zn6 1_555 1_555
O25 Zn6 1_555 1_555
O26 Zn6 1_555 1_555
O27 Zn7 1_555 1_555
O28 Zn7 1_555 1_555
O29 Zn7 1_555 1_555
C73 O18 1_555 1_555
C74 O19 1_555 1_555
C75 O24 1_555 1_555
C76 O25 1_555 1_555
C77 C73 1_555 1_555
C78 C74 1_555 1_555
C79 C75 1_555 1_555
C80 C76 1_555 1_555
C82 C77 1_555 1_555
C83 C78 1_555 1_555
C84 C78 1_555 1_555
C86 C79 1_555 1_555
C87 C80 1_555 1_555
C88 C80 1_555 1_555
H50 C82 1_555 1_555
C91 C83 1_555 1_555
H51 C83 1_555 1_555
H52 C84 1_555 1_555
C92 C84 1_555 1_555
H54 C86 1_555 1_555
C95 C87 1_555 1_555
H55 C87 1_555 1_555
H56 C88 1_555 1_555
C96 C88 1_555 1_555
C98 C91 1_555 1_555
H59 C91 1_555 1_555
H60 C92 1_555 1_555
C100 C95 1_555 1_555
H63 C95 1_555 1_555
H64 C96 1_555 1_555
C102 C98 1_555 1_555
C104 C100 1_555 1_555
H67 C102 1_555 1_555
H68 C102 1_555 1_555
O31 C102 1_555 1_555
H71 C104 1_555 1_555
H72 C104 1_555 1_555
O33 C104 1_555 1_555
C106 O31 1_555 1_555
C108 O33 1_555 1_555
C111 C106 1_555 1_555
C112 C106 1_555 1_555
C115 C108 1_555 1_555
C116 C108 1_555 1_555
C120 C111 1_555 1_555
H74 C111 1_555 1_555
C121 C112 1_555 1_555
C122 C112 1_555 1_555
C126 C115 1_555 1_555
H76 C115 1_555 1_555
C127 C116 1_555 1_555
C128 C116 1_555 1_555
C133 C120 1_555 1_555
H79 C120 1_555 1_555
C134 C121 1_555 1_555
H80 C122 1_555 1_555
C135 C122 1_555 1_555
C136 C122 1_555 1_555
C141 C126 1_555 1_555
H83 C126 1_555 1_555
C142 C127 1_555 1_555
H84 C128 1_555 1_555
C143 C128 1_555 1_555
C144 C128 1_555 1_555
O35 C133 1_555 1_555
H86 C134 1_555 1_555
C149 C134 1_555 1_555
C150 C134 1_555 1_555
C151 C135 1_555 1_555
C152 C136 1_555 1_555
O37 C141 1_555 1_555
H88 C142 1_555 1_555
C158 C142 1_555 1_555
C160 C144 1_555 1_555
C166 O35 1_555 1_555
C167 C149 1_555 1_555
C168 C150 1_555 1_555
H91 C151 1_555 1_555
C169 C151 1_555 1_555
H92 C152 1_555 1_555
C170 C152 1_555 1_555
C176 O37 1_555 1_555
C178 C158 1_555 1_555
H96 C160 1_555 1_555
C180 C160 1_555 1_555
H103 C166 1_555 1_555
H104 C166 1_555 1_555
C184 C166 1_555 1_555
C185 C167 1_555 1_555
H105 C167 1_555 1_555
C186 C168 1_555 1_555
H106 C168 1_555 1_555
H107 C169 1_555 1_555
H108 C170 1_555 1_555
H115 C176 1_555 1_555
H116 C176 1_555 1_555
C190 C176 1_555 1_555
C192 C178 1_555 1_555
H118 C178 1_555 1_555
H120 C180 1_555 1_555
C195 C184 1_555 1_555
C196 C184 1_555 1_555
H123 C185 1_555 1_555
H124 C186 1_555 1_555
C199 C190 1_555 1_555
C200 C190 1_555 1_555
H128 C192 1_555 1_555
H131 C195 1_555 1_555
C203 C195 1_555 1_555
C204 C196 1_555 1_555
H132 C196 1_555 1_555
H135 C199 1_555 1_555
C207 C199 1_555 1_555
H136 C200 1_555 1_555
H139 C203 1_555 1_555
C210 C203 1_555 1_555
H140 C204 1_555 1_555
H143 C207 1_555 1_555
C212 C207 1_555 1_555
C214 C210 1_555 1_555
O43 C214 1_555 1_555
O44 C214 1_555 1_555
Zn13 O43 1_555 1_555
C2 O6 1_555 1_555
C12 C14 1_555 1_555
C27 C33 1_555 1_555
C36 C42 1_555 1_555
C54 C60 1_555 1_555
O21 C73 1_555 1_555
O22 C74 1_555 1_555
O27 C75 1_555 1_555
O28 C76 1_555 1_555
C92 C98 1_555 1_555
C96 C100 1_555 1_555
C121 C133 1_555 1_555
C127 C141 1_555 1_555
C135 C149 1_555 1_555
C136 C150 1_555 1_555
C144 C158 1_555 1_555
C169 C185 1_555 1_555
C170 C186 1_555 1_555
C180 C192 1_555 1_555
C204 C210 1_555 1_555
C9 C5 1_555 1_555
H1 C5 1_555 1_555
C13 C9 1_555 1_555
H5 C9 1_555 1_555
C15 C13 1_555 1_555
H9 C15 1_555 1_555
H10 C15 1_555 1_555
O9 C15 1_555 1_555
C17 O9 1_555 1_555
C20 C17 1_555 1_555
C25 C20 1_555 1_555
H16 C25 1_555 1_555
C31 C25 1_555 1_555
C32 C25 1_555 1_555
C39 C31 1_555 1_555
C40 C32 1_555 1_555
C46 C37 1_555 1_555
C48 C39 1_555 1_555
H21 C39 1_555 1_555
C49 C40 1_555 1_555
H22 C40 1_555 1_555
H27 C46 1_555 1_555
C56 C46 1_555 1_555
H29 C48 1_555 1_555
H30 C49 1_555 1_555
H37 C56 1_555 1_555
C89 C81 1_555 1_555
H49 C81 1_555 1_555
C93 C85 1_555 1_555
H53 C85 1_555 1_555
C97 C89 1_555 1_555
H57 C89 1_555 1_555
C99 C93 1_555 1_555
H61 C93 1_555 1_555
C101 C97 1_555 1_555
C103 C99 1_555 1_555
H65 C101 1_555 1_555
H66 C101 1_555 1_555
O30 C101 1_555 1_555
H69 C103 1_555 1_555
H70 C103 1_555 1_555
O32 C103 1_555 1_555
C105 O30 1_555 1_555
C107 O32 1_555 1_555
C109 C105 1_555 1_555
C110 C105 1_555 1_555
C114 C107 1_555 1_555
H73 C109 1_555 1_555
C117 C109 1_555 1_555
C118 C110 1_555 1_555
C119 C110 1_555 1_555
C125 C114 1_555 1_555
H77 C117 1_555 1_555
C129 C117 1_555 1_555
C130 C118 1_555 1_555
H78 C119 1_555 1_555
C131 C119 1_555 1_555
C132 C119 1_555 1_555
H82 C125 1_555 1_555
C139 C125 1_555 1_555
C140 C125 1_555 1_555
O34 C129 1_555 1_555
H85 C130 1_555 1_555
C145 C130 1_555 1_555
C146 C130 1_555 1_555
C147 C131 1_555 1_555
C148 C132 1_555 1_555
C155 C139 1_555 1_555
C156 C140 1_555 1_555
C161 O34 1_555 1_555
C162 C145 1_555 1_555
C163 C146 1_555 1_555
C164 C147 1_555 1_555
H89 C147 1_555 1_555
C165 C148 1_555 1_555
H90 C148 1_555 1_555
C172 C153 1_555 1_555
C174 C155 1_555 1_555
H93 C155 1_555 1_555
C175 C156 1_555 1_555
H94 C156 1_555 1_555
H97 C161 1_555 1_555
H98 C161 1_555 1_555
C181 C161 1_555 1_555
H99 C162 1_555 1_555
C182 C162 1_555 1_555
H100 C163 1_555 1_555
C183 C163 1_555 1_555
H101 C164 1_555 1_555
H102 C165 1_555 1_555
H111 C172 1_555 1_555
C188 C172 1_555 1_555
H113 C174 1_555 1_555
H114 C175 1_555 1_555
C193 C181 1_555 1_555
C194 C181 1_555 1_555
H121 C182 1_555 1_555
H122 C183 1_555 1_555
H125 C188 1_555 1_555
H129 C193 1_555 1_555
C201 C193 1_555 1_555
C202 C194 1_555 1_555
H130 C194 1_555 1_555
H137 C201 1_555 1_555
C209 C201 1_555 1_555
H138 C202 1_555 1_555
C213 C209 1_555 1_555
O41 C213 1_555 1_555
O42 C213 1_555 1_555
Zn8 O41 1_555 1_555
Zn12 O42 1_555 1_555
C10 C13 1_555 1_555
C31 C37 1_555 1_555
C48 C56 1_555 1_555
C90 C97 1_555 1_555
C94 C99 1_555 1_555
C118 C129 1_555 1_555
C131 C145 1_555 1_555
C132 C146 1_555 1_555
C139 C153 1_555 1_555
C164 C182 1_555 1_555
C165 C183 1_555 1_555
C174 C188 1_555 1_555
C202 C209 1_555 1_555
C177 C157 1_555 1_555
H95 C159 1_555 1_555
C179 C159 1_555 1_555
C191 C177 1_555 1_555
H117 C177 1_555 1_555
H119 C179 1_555 1_555
H127 C191 1_555 1_555
H144 C208 1_555 1_555
O47 C216 1_555 1_555
Zn16 O47 1_555 1_555
C179 C191 1_555 1_555
H75 C113 1_555 1_555
C123 C113 1_555 1_555
H81 C123 1_555 1_555
C137 C123 1_555 1_555
C138 C124 1_555 1_555
O36 C137 1_555 1_555
H87 C138 1_555 1_555
C154 C138 1_555 1_555
C171 O36 1_555 1_555
C173 C154 1_555 1_555
H109 C171 1_555 1_555
H110 C171 1_555 1_555
C187 C171 1_555 1_555
H112 C173 1_555 1_555
C189 C173 1_555 1_555
C197 C187 1_555 1_555
C198 C187 1_555 1_555
H126 C189 1_555 1_555
H133 C197 1_555 1_555
C205 C197 1_555 1_555
C206 C198 1_555 1_555
H134 C198 1_555 1_555
H141 C205 1_555 1_555
C211 C205 1_555 1_555
H142 C206 1_555 1_555
C215 C211 1_555 1_555
O45 C215 1_555 1_555
O46 C215 1_555 1_555
Zn8 O45 1_555 1_555
Zn15 O46 1_555 1_555
C124 C137 1_555 1_555
C206 C211 1_555 1_555
C21_2 C18_2 1_555 1_555
C22_2 C18_2 1_555 1_555
C26_2 C21_2 1_555 1_555
H14_2 C21_2 1_555 1_555
C27_2 C22_2 1_555 1_555
C33_2 C26_2 1_555 1_555
H17_2 C26_2 1_555 1_555
C34_2 C27_2 1_555 1_555
O12_2 C33_2 1_555 1_555
H20_2 C34_2 1_555 1_555
C41_2 C34_2 1_555 1_555
C50_2 O12_2 1_555 1_555
C51_2 C41_2 1_555 1_555
H30_2 C49_2 1_555 1_555
H31_2 C50_2 1_555 1_555
H32_2 C50_2 1_555 1_555
C58_2 C50_2 1_555 1_555
C59_2 C51_2 1_555 1_555
H33_2 C51_2 1_555 1_555
H35_2 C53_2 1_555 1_555
H38_2 C57_2 1_555 1_555
C63_2 C58_2 1_555 1_555
C64_2 C58_2 1_555 1_555
H39_2 C59_2 1_555 1_555
H43_2 C63_2 1_555 1_555
C67_2 C63_2 1_555 1_555
C68_2 C64_2 1_555 1_555
H44_2 C64_2 1_555 1_555
H47_2 C67_2 1_555 1_555
C70_2 C67_2 1_555 1_555
H48_2 C68_2 1_555 1_555
C72_2 C70_2 1_555 1_555
O13_2 C72_2 1_555 1_555
O40_2 C72_2 1_555 1_555
Zn9_2 O39_2 1_555 1_555
Zn10_2 O40_2 1_555 1_555
C27_2 C33_2 1_555 1_555
C49_2 C57_2 1_555 1_555
C53_2 C59_2 1_555 1_555
C68_2 C70_2 1_555 1_555
Zn1_2 O1_2 1_555 1_555
O1_2 Zn2_2 1_555 1_555
O2_2 Zn1_2 1_555 1_555
O3_2 Zn1_2 1_555 1_555
O4_2 Zn1_2 1_555 1_555
Zn2_2 O5_2 1_555 1_555
Zn3_2 O1_2 1_555 1_555
C1_2 O2_2 1_555 1_555
C2_2 O3_2 1_555 1_555
O5_2 C1_2 1_555 1_555
O6_2 Zn2_2 1_555 1_555
O7_2 Zn2_2 1_555 1_555
O8_2 Zn3_2 1_555 1_555
C3_2 C1_2 1_555 1_555
C4_2 C2_2 1_555 1_555
C5_2 C3_2 1_555 1_555
C6_2 C3_2 1_555 1_555
C7_2 C4_2 1_555 1_555
C8_2 C4_2 1_555 1_555
C9_2 C5_2 1_555 1_555
H1_2 C5_2 1_555 1_555
H2_2 C6_2 1_555 1_555
C10_2 C6_2 1_555 1_555
C11_2 C7_2 1_555 1_555
H3_2 C7_2 1_555 1_555
H4_2 C8_2 1_555 1_555
C12_2 C8_2 1_555 1_555
C13_2 C9_2 1_555 1_555
H5_2 C9_2 1_555 1_555
H6_2 C10_2 1_555 1_555
C14_2 C11_2 1_555 1_555
H7_2 C11_2 1_555 1_555
H8_2 C12_2 1_555 1_555
C15_2 C13_2 1_555 1_555
C16_2 C14_2 1_555 1_555
H9_2 C15_2 1_555 1_555
H10_2 C15_2 1_555 1_555
O9_2 C15_2 1_555 1_555
H12_2 C16_2 1_555 1_555
O10_2 C16_2 1_555 1_555
C17_2 O9_2 1_555 1_555
C19_2 C17_2 1_555 1_555
C20_2 C17_2 1_555 1_555
H13_2 C19_2 1_555 1_555
C23_2 C19_2 1_555 1_555
C24_2 C20_2 1_555 1_555
C25_2 C20_2 1_555 1_555
H15_2 C23_2 1_555 1_555
C29_2 C23_2 1_555 1_555
C30_2 C24_2 1_555 1_555
H16_2 C25_2 1_555 1_555
C31_2 C25_2 1_555 1_555
C32_2 C25_2 1_555 1_555
H18_2 C28_2 1_555 1_555
C35_2 C28_2 1_555 1_555
C36_2 C28_2 1_555 1_555
O11_2 C29_2 1_555 1_555
H19_2 C30_2 1_555 1_555
C37_2 C30_2 1_555 1_555
C38_2 C30_2 1_555 1_555
C39_2 C31_2 1_555 1_555
C40_2 C32_2 1_555 1_555
C43_2 C35_2 1_555 1_555
C44_2 C36_2 1_555 1_555
C45_2 O11_2 1_555 1_555
C46_2 C37_2 1_555 1_555
C47_2 C38_2 1_555 1_555
C48_2 C39_2 1_555 1_555
H21_2 C39_2 1_555 1_555
H22_2 C40_2 1_555 1_555
C52_2 C42_2 1_555 1_555
H23_2 C43_2 1_555 1_555
H24_2 C44_2 1_555 1_555
C54_2 C44_2 1_555 1_555
H25_2 C45_2 1_555 1_555
H26_2 C45_2 1_555 1_555
C55_2 C45_2 1_555 1_555
H27_2 C46_2 1_555 1_555
C56_2 C46_2 1_555 1_555
H29_2 C48_2 1_555 1_555
C60_2 C52_2 1_555 1_555
H36_2 C54_2 1_555 1_555
C61_2 C55_2 1_555 1_555
C62_2 C55_2 1_555 1_555
H37_2 C56_2 1_555 1_555
H40_2 C60_2 1_555 1_555
H41_2 C61_2 1_555 1_555
C65_2 C61_2 1_555 1_555
C66_2 C62_2 1_555 1_555
H42_2 C62_2 1_555 1_555
H45_2 C65_2 1_555 1_555
C69_2 C65_2 1_555 1_555
H46_2 C66_2 1_555 1_555
C71_2 C69_2 1_555 1_555
O14_2 Zn3_2 1_555 1_555
O15_2 Zn3_2 1_555 1_555
O16_2 Zn3_2 1_555 1_555
O17_2 Zn3_2 1_555 1_555
Zn4_2 O14_2 1_555 1_555
Zn5_2 O14_2 1_555 1_555
Zn6_2 O15_2 1_555 1_555
Zn7_2 O15_2 1_555 1_555
O18_2 Zn4_2 1_555 1_555
O19_2 Zn4_2 1_555 1_555
O20_2 Zn4_2 1_555 1_555
O21_2 Zn5_2 1_555 1_555
O22_2 Zn5_2 1_555 1_555
O23_2 Zn5_2 1_555 1_555
O24_2 Zn6_2 1_555 1_555
O25_2 Zn6_2 1_555 1_555
O26_2 Zn6_2 1_555 1_555
O27_2 Zn7_2 1_555 1_555
O28_2 Zn7_2 1_555 1_555
O29_2 Zn7_2 1_555 1_555
C73_2 O18_2 1_555 1_555
C74_2 O19_2 1_555 1_555
C75_2 O24_2 1_555 1_555
C76_2 O25_2 1_555 1_555
C77_2 C73_2 1_555 1_555
C78_2 C74_2 1_555 1_555
C79_2 C75_2 1_555 1_555
C80_2 C76_2 1_555 1_555
C81_2 C77_2 1_555 1_555
C82_2 C77_2 1_555 1_555
C83_2 C78_2 1_555 1_555
C84_2 C78_2 1_555 1_555
C85_2 C79_2 1_555 1_555
C86_2 C79_2 1_555 1_555
C87_2 C80_2 1_555 1_555
C88_2 C80_2 1_555 1_555
C89_2 C81_2 1_555 1_555
H49_2 C81_2 1_555 1_555
H50_2 C82_2 1_555 1_555
C90_2 C82_2 1_555 1_555
C91_2 C83_2 1_555 1_555
H51_2 C83_2 1_555 1_555
H52_2 C84_2 1_555 1_555
C92_2 C84_2 1_555 1_555
C93_2 C85_2 1_555 1_555
H53_2 C85_2 1_555 1_555
H54_2 C86_2 1_555 1_555
C94_2 C86_2 1_555 1_555
C95_2 C87_2 1_555 1_555
H55_2 C87_2 1_555 1_555
H56_2 C88_2 1_555 1_555
C96_2 C88_2 1_555 1_555
C97_2 C89_2 1_555 1_555
H57_2 C89_2 1_555 1_555
H58_2 C90_2 1_555 1_555
C98_2 C91_2 1_555 1_555
H59_2 C91_2 1_555 1_555
H60_2 C92_2 1_555 1_555
C99_2 C93_2 1_555 1_555
H61_2 C93_2 1_555 1_555
H62_2 C94_2 1_555 1_555
C100_2 C95_2 1_555 1_555
H63_2 C95_2 1_555 1_555
H64_2 C96_2 1_555 1_555
C101_2 C97_2 1_555 1_555
C102_2 C98_2 1_555 1_555
C103_2 C99_2 1_555 1_555
C104_2 C100_2 1_555 1_555
H65_2 C101_2 1_555 1_555
H66_2 C101_2 1_555 1_555
O30_2 C101_2 1_555 1_555
H68_2 C102_2 1_555 1_555
O31_2 C102_2 1_555 1_555
H69_2 C103_2 1_555 1_555
H70_2 C103_2 1_555 1_555
O32_2 C103_2 1_555 1_555
H71_2 C104_2 1_555 1_555
H72_2 C104_2 1_555 1_555
O33_2 C104_2 1_555 1_555
C105_2 O30_2 1_555 1_555
C107_2 O32_2 1_555 1_555
C108_2 O33_2 1_555 1_555
C109_2 C105_2 1_555 1_555
C110_2 C105_2 1_555 1_555
C113_2 C107_2 1_555 1_555
C114_2 C107_2 1_555 1_555
C115_2 C108_2 1_555 1_555
C116_2 C108_2 1_555 1_555
H73_2 C109_2 1_555 1_555
C117_2 C109_2 1_555 1_555
C118_2 C110_2 1_555 1_555
C119_2 C110_2 1_555 1_555
H75_2 C113_2 1_555 1_555
C123_2 C113_2 1_555 1_555
C124_2 C114_2 1_555 1_555
C125_2 C114_2 1_555 1_555
C126_2 C115_2 1_555 1_555
H76_2 C115_2 1_555 1_555
C127_2 C116_2 1_555 1_555
C128_2 C116_2 1_555 1_555
H77_2 C117_2 1_555 1_555
C129_2 C117_2 1_555 1_555
C130_2 C118_2 1_555 1_555
H78_2 C119_2 1_555 1_555
C131_2 C119_2 1_555 1_555
C132_2 C119_2 1_555 1_555
H80_2 C122_2 1_555 1_555
C135_2 C122_2 1_555 1_555
C136_2 C122_2 1_555 1_555
H81_2 C123_2 1_555 1_555
C137_2 C123_2 1_555 1_555
C138_2 C124_2 1_555 1_555
H82_2 C125_2 1_555 1_555
C139_2 C125_2 1_555 1_555
C140_2 C125_2 1_555 1_555
C141_2 C126_2 1_555 1_555
H83_2 C126_2 1_555 1_555
C142_2 C127_2 1_555 1_555
H84_2 C128_2 1_555 1_555
C143_2 C128_2 1_555 1_555
C144_2 C128_2 1_555 1_555
O34_2 C129_2 1_555 1_555
H85_2 C130_2 1_555 1_555
C145_2 C130_2 1_555 1_555
C146_2 C130_2 1_555 1_555
C147_2 C131_2 1_555 1_555
C148_2 C132_2 1_555 1_555
C151_2 C135_2 1_555 1_555
C152_2 C136_2 1_555 1_555
O36_2 C137_2 1_555 1_555
H87_2 C138_2 1_555 1_555
C153_2 C138_2 1_555 1_555
C154_2 C138_2 1_555 1_555
C155_2 C139_2 1_555 1_555
C156_2 C140_2 1_555 1_555
O37_2 C141_2 1_555 1_555
H88_2 C142_2 1_555 1_555
C157_2 C142_2 1_555 1_555
C158_2 C142_2 1_555 1_555
C159_2 C143_2 1_555 1_555
C160_2 C144_2 1_555 1_555
C161_2 O34_2 1_555 1_555
C162_2 C145_2 1_555 1_555
C163_2 C146_2 1_555 1_555
C164_2 C147_2 1_555 1_555
H89_2 C147_2 1_555 1_555
H90_2 C148_2 1_555 1_555
C168_2 C150_2 1_555 1_555
H91_2 C151_2 1_555 1_555
H92_2 C152_2 1_555 1_555
C170_2 C152_2 1_555 1_555
C171_2 O36_2 1_555 1_555
C172_2 C153_2 1_555 1_555
C173_2 C154_2 1_555 1_555
C174_2 C155_2 1_555 1_555
H93_2 C155_2 1_555 1_555
C175_2 C156_2 1_555 1_555
H94_2 C156_2 1_555 1_555
C176_2 O37_2 1_555 1_555
C177_2 C157_2 1_555 1_555
C178_2 C158_2 1_555 1_555
H95_2 C159_2 1_555 1_555
C179_2 C159_2 1_555 1_555
H96_2 C160_2 1_555 1_555
C180_2 C160_2 1_555 1_555
H97_2 C161_2 1_555 1_555
H98_2 C161_2 1_555 1_555
C181_2 C161_2 1_555 1_555
H99_2 C162_2 1_555 1_555
C182_2 C162_2 1_555 1_555
H101_2 C164_2 1_555 1_555
C186_2 C168_2 1_555 1_555
H108_2 C170_2 1_555 1_555
H109_2 C171_2 1_555 1_555
H110_2 C171_2 1_555 1_555
C187_2 C171_2 1_555 1_555
H111_2 C172_2 1_555 1_555
C188_2 C172_2 1_555 1_555
H112_2 C173_2 1_555 1_555
C189_2 C173_2 1_555 1_555
H113_2 C174_2 1_555 1_555
H114_2 C175_2 1_555 1_555
H115_2 C176_2 1_555 1_555
H116_2 C176_2 1_555 1_555
C190_2 C176_2 1_555 1_555
C191_2 C177_2 1_555 1_555
H117_2 C177_2 1_555 1_555
C192_2 C178_2 1_555 1_555
H118_2 C178_2 1_555 1_555
H119_2 C179_2 1_555 1_555
H120_2 C180_2 1_555 1_555
C193_2 C181_2 1_555 1_555
C194_2 C181_2 1_555 1_555
H121_2 C182_2 1_555 1_555
H124_2 C186_2 1_555 1_555
C197_2 C187_2 1_555 1_555
C198_2 C187_2 1_555 1_555
H125_2 C188_2 1_555 1_555
H126_2 C189_2 1_555 1_555
C199_2 C190_2 1_555 1_555
C200_2 C190_2 1_555 1_555
H127_2 C191_2 1_555 1_555
H128_2 C192_2 1_555 1_555
O38_2 C71_2 1_555 1_555
H129_2 C193_2 1_555 1_555
C201_2 C193_2 1_555 1_555
C202_2 C194_2 1_555 1_555
H130_2 C194_2 1_555 1_555
H133_2 C197_2 1_555 1_555
C205_2 C197_2 1_555 1_555
C206_2 C198_2 1_555 1_555
H134_2 C198_2 1_555 1_555
H135_2 C199_2 1_555 1_555
C207_2 C199_2 1_555 1_555
C208_2 C200_2 1_555 1_555
H136_2 C200_2 1_555 1_555
H137_2 C201_2 1_555 1_555
C209_2 C201_2 1_555 1_555
H138_2 C202_2 1_555 1_555
H141_2 C205_2 1_555 1_555
C211_2 C205_2 1_555 1_555
H142_2 C206_2 1_555 1_555
H143_2 C207_2 1_555 1_555
C212_2 C207_2 1_555 1_555
H144_2 C208_2 1_555 1_555
C213_2 C209_2 1_555 1_555
C215_2 C211_2 1_555 1_555
C216_2 C212_2 1_555 1_555
O41_2 C213_2 1_555 1_555
O45_2 C215_2 1_555 1_555
O46_2 C215_2 1_555 1_555
O47_2 C216_2 1_555 1_555
O48_2 C216_2 1_555 1_555
Zn8_2 O41_2 1_555 1_555
Zn15_2 O46_2 1_555 1_555
Zn16_2 O47_2 1_555 1_555
C2_2 O6_2 1_555 1_555
C10_2 C13_2 1_555 1_555
C12_2 C14_2 1_555 1_555
C24_2 C29_2 1_555 1_555
C31_2 C37_2 1_555 1_555
C32_2 C38_2 1_555 1_555
C36_2 C42_2 1_555 1_555
C48_2 C56_2 1_555 1_555
C54_2 C60_2 1_555 1_555
C66_2 C69_2 1_555 1_555
O21_2 C73_2 1_555 1_555
O22_2 C74_2 1_555 1_555
O27_2 C75_2 1_555 1_555
O28_2 C76_2 1_555 1_555
C90_2 C97_2 1_555 1_555
C92_2 C98_2 1_555 1_555
C94_2 C99_2 1_555 1_555
C96_2 C100_2 1_555 1_555
C118_2 C129_2 1_555 1_555
C124_2 C137_2 1_555 1_555
C127_2 C141_2 1_555 1_555
C131_2 C145_2 1_555 1_555
C132_2 C146_2 1_555 1_555
C136_2 C150_2 1_555 1_555
C139_2 C153_2 1_555 1_555
C140_2 C154_2 1_555 1_555
C143_2 C157_2 1_555 1_555
C144_2 C158_2 1_555 1_555
C164_2 C182_2 1_555 1_555
C170_2 C186_2 1_555 1_555
C174_2 C188_2 1_555 1_555
C175_2 C189_2 1_555 1_555
C179_2 C191_2 1_555 1_555
C180_2 C192_2 1_555 1_555
C202_2 C209_2 1_555 1_555
C206_2 C211_2 1_555 1_555
C208_2 C212_2 1_555 1_555
C111_2 C106_2 1_555 1_555
C112_2 C106_2 1_555 1_555
C120_2 C111_2 1_555 1_555
H74_2 C111_2 1_555 1_555
C121_2 C112_2 1_555 1_555
C133_2 C120_2 1_555 1_555
H79_2 C120_2 1_555 1_555
C134_2 C121_2 1_555 1_555
O35_2 C133_2 1_555 1_555
H86_2 C134_2 1_555 1_555
C149_2 C134_2 1_555 1_555
C166_2 O35_2 1_555 1_555
C167_2 C149_2 1_555 1_555
H102_2 C165_2 1_555 1_555
H103_2 C166_2 1_555 1_555
H104_2 C166_2 1_555 1_555
C184_2 C166_2 1_555 1_555
C185_2 C167_2 1_555 1_555
H105_2 C167_2 1_555 1_555
H107_2 C169_2 1_555 1_555
H122_2 C183_2 1_555 1_555
C195_2 C184_2 1_555 1_555
C196_2 C184_2 1_555 1_555
H123_2 C185_2 1_555 1_555
H131_2 C195_2 1_555 1_555
C203_2 C195_2 1_555 1_555
C204_2 C196_2 1_555 1_555
H132_2 C196_2 1_555 1_555
H139_2 C203_2 1_555 1_555
C210_2 C203_2 1_555 1_555
H140_2 C204_2 1_555 1_555
C214_2 C210_2 1_555 1_555
O43_2 C214_2 1_555 1_555
O44_2 C214_2 1_555 1_555
Zn12_2 O42_2 1_555 1_555
Zn13_2 O43_2 1_555 1_555
C121_2 C133_2 1_555 1_555
C165_2 C183_2 1_555 1_555
C169_2 C185_2 1_555 1_555
C204_2 C210_2 1_555 1_555
Zn14 O45_2 1_555 1_555
Zn11 O38_2 1_555 1_555
Zn1_3 O1_3 1_555 1_555
O1_3 Zn2_3 1_555 1_555
O2_3 Zn1_3 1_555 1_555
O3_3 Zn1_3 1_555 1_555
O4_3 Zn1_3 1_555 1_555
Zn2_3 O5_3 1_555 1_555
C1_3 O2_3 1_555 1_555
C2_3 O3_3 1_555 1_555
O5_3 C1_3 1_555 1_555
O6_3 Zn2_3 1_555 1_555
O7_3 Zn2_3 1_555 1_555
C3_3 C1_3 1_555 1_555
C4_3 C2_3 1_555 1_555
C5_3 C3_3 1_555 1_555
C6_3 C3_3 1_555 1_555
C7_3 C4_3 1_555 1_555
C8_3 C4_3 1_555 1_555
C9_3 C5_3 1_555 1_555
H1_3 C5_3 1_555 1_555
H2_3 C6_3 1_555 1_555
C10_3 C6_3 1_555 1_555
C11_3 C7_3 1_555 1_555
H3_3 C7_3 1_555 1_555
H4_3 C8_3 1_555 1_555
C12_3 C8_3 1_555 1_555
C13_3 C9_3 1_555 1_555
H5_3 C9_3 1_555 1_555
H6_3 C10_3 1_555 1_555
C14_3 C11_3 1_555 1_555
H7_3 C11_3 1_555 1_555
H8_3 C12_3 1_555 1_555
C15_3 C13_3 1_555 1_555
C16_3 C14_3 1_555 1_555
H9_3 C15_3 1_555 1_555
H10_3 C15_3 1_555 1_555
O9_3 C15_3 1_555 1_555
H11_3 C16_3 1_555 1_555
H12_3 C16_3 1_555 1_555
O10_3 C16_3 1_555 1_555
C17_3 O9_3 1_555 1_555
C18_3 O10_3 1_555 1_555
C19_3 C17_3 1_555 1_555
C20_3 C17_3 1_555 1_555
C21_3 C18_3 1_555 1_555
C22_3 C18_3 1_555 1_555
H13_3 C19_3 1_555 1_555
C23_3 C19_3 1_555 1_555
C24_3 C20_3 1_555 1_555
C25_3 C20_3 1_555 1_555
C26_3 C21_3 1_555 1_555
H14_3 C21_3 1_555 1_555
C27_3 C22_3 1_555 1_555
C28_3 C22_3 1_555 1_555
H15_3 C23_3 1_555 1_555
C29_3 C23_3 1_555 1_555
C30_3 C24_3 1_555 1_555
H16_3 C25_3 1_555 1_555
C31_3 C25_3 1_555 1_555
C32_3 C25_3 1_555 1_555
C33_3 C26_3 1_555 1_555
H17_3 C26_3 1_555 1_555
C34_3 C27_3 1_555 1_555
H18_3 C28_3 1_555 1_555
C35_3 C28_3 1_555 1_555
C36_3 C28_3 1_555 1_555
O11_3 C29_3 1_555 1_555
H19_3 C30_3 1_555 1_555
C37_3 C30_3 1_555 1_555
C38_3 C30_3 1_555 1_555
C39_3 C31_3 1_555 1_555
C40_3 C32_3 1_555 1_555
O12_3 C33_3 1_555 1_555
H20_3 C34_3 1_555 1_555
C41_3 C34_3 1_555 1_555
C42_3 C34_3 1_555 1_555
C43_3 C35_3 1_555 1_555
C44_3 C36_3 1_555 1_555
C45_3 O11_3 1_555 1_555
C46_3 C37_3 1_555 1_555
C47_3 C38_3 1_555 1_555
C48_3 C39_3 1_555 1_555
H21_3 C39_3 1_555 1_555
C49_3 C40_3 1_555 1_555
H22_3 C40_3 1_555 1_555
C50_3 O12_3 1_555 1_555
C51_3 C41_3 1_555 1_555
C52_3 C42_3 1_555 1_555
H23_3 C43_3 1_555 1_555
C53_3 C43_3 1_555 1_555
H24_3 C44_3 1_555 1_555
C54_3 C44_3 1_555 1_555
H25_3 C45_3 1_555 1_555
H26_3 C45_3 1_555 1_555
C55_3 C45_3 1_555 1_555
H27_3 C46_3 1_555 1_555
C56_3 C46_3 1_555 1_555
H28_3 C47_3 1_555 1_555
C57_3 C47_3 1_555 1_555
H29_3 C48_3 1_555 1_555
H30_3 C49_3 1_555 1_555
H31_3 C50_3 1_555 1_555
H32_3 C50_3 1_555 1_555
C58_3 C50_3 1_555 1_555
C59_3 C51_3 1_555 1_555
H33_3 C51_3 1_555 1_555
C60_3 C52_3 1_555 1_555
H34_3 C52_3 1_555 1_555
H35_3 C53_3 1_555 1_555
H36_3 C54_3 1_555 1_555
C61_3 C55_3 1_555 1_555
C62_3 C55_3 1_555 1_555
H37_3 C56_3 1_555 1_555
H38_3 C57_3 1_555 1_555
C63_3 C58_3 1_555 1_555
C64_3 C58_3 1_555 1_555
H39_3 C59_3 1_555 1_555
H40_3 C60_3 1_555 1_555
H41_3 C61_3 1_555 1_555
C65_3 C61_3 1_555 1_555
C66_3 C62_3 1_555 1_555
H42_3 C62_3 1_555 1_555
H43_3 C63_3 1_555 1_555
C67_3 C63_3 1_555 1_555
C68_3 C64_3 1_555 1_555
H44_3 C64_3 1_555 1_555
H45_3 C65_3 1_555 1_555
C69_3 C65_3 1_555 1_555
H46_3 C66_3 1_555 1_555
H47_3 C67_3 1_555 1_555
C70_3 C67_3 1_555 1_555
H48_3 C68_3 1_555 1_555
C71_3 C69_3 1_555 1_555
C72_3 C70_3 1_555 1_555
O13_3 C72_3 1_555 1_555
O38_3 C71_3 1_555 1_555
O39_3 C71_3 1_555 1_555
O40_3 C72_3 1_555 1_555
Zn8_3 O38_3 1_555 1_555
Zn9_3 O39_3 1_555 1_555
Zn10_3 O40_3 1_555 1_555
C2_3 O6_3 1_555 1_555
C10_3 C13_3 1_555 1_555
C12_3 C14_3 1_555 1_555
C24_3 C29_3 1_555 1_555
C27_3 C33_3 1_555 1_555
C31_3 C37_3 1_555 1_555
C32_3 C38_3 1_555 1_555
C35_3 C41_3 1_555 1_555
C36_3 C42_3 1_555 1_555
C48_3 C56_3 1_555 1_555
C49_3 C57_3 1_555 1_555
C53_3 C59_3 1_555 1_555
C54_3 C60_3 1_555 1_555
C66_3 C69_3 1_555 1_555
C68_3 C70_3 1_555 1_555
O16_3 Zn3_3 1_555 1_555
O28_3 Zn7_3 1_555 1_555
O29_3 Zn7_3 1_555 1_555
C80_3 C76_3 1_555 1_555
C87_3 C80_3 1_555 1_555
C88_3 C80_3 1_555 1_555
C95_3 C87_3 1_555 1_555
H55_3 C87_3 1_555 1_555
H56_3 C88_3 1_555 1_555
C96_3 C88_3 1_555 1_555
C100_3 C95_3 1_555 1_555
H63_3 C95_3 1_555 1_555
H64_3 C96_3 1_555 1_555
C104_3 C100_3 1_555 1_555
H71_3 C104_3 1_555 1_555
H72_3 C104_3 1_555 1_555
O33_3 C104_3 1_555 1_555
C108_3 O33_3 1_555 1_555
C115_3 C108_3 1_555 1_555
C116_3 C108_3 1_555 1_555
C126_3 C115_3 1_555 1_555
H76_3 C115_3 1_555 1_555
C127_3 C116_3 1_555 1_555
C128_3 C116_3 1_555 1_555
C141_3 C126_3 1_555 1_555
H83_3 C126_3 1_555 1_555
C142_3 C127_3 1_555 1_555
H84_3 C128_3 1_555 1_555
C143_3 C128_3 1_555 1_555
C144_3 C128_3 1_555 1_555
O37_3 C141_3 1_555 1_555
H88_3 C142_3 1_555 1_555
C157_3 C142_3 1_555 1_555
C158_3 C142_3 1_555 1_555
C160_3 C144_3 1_555 1_555
C175_3 C156_3 1_555 1_555
H94_3 C156_3 1_555 1_555
C176_3 O37_3 1_555 1_555
C178_3 C158_3 1_555 1_555
H96_3 C160_3 1_555 1_555
C180_3 C160_3 1_555 1_555
H114_3 C175_3 1_555 1_555
H115_3 C176_3 1_555 1_555
H116_3 C176_3 1_555 1_555
C190_3 C176_3 1_555 1_555
C192_3 C178_3 1_555 1_555
H118_3 C178_3 1_555 1_555
H120_3 C180_3 1_555 1_555
H126_3 C189_3 1_555 1_555
C199_3 C190_3 1_555 1_555
C200_3 C190_3 1_555 1_555
H128_3 C192_3 1_555 1_555
H135_3 C199_3 1_555 1_555
C207_3 C199_3 1_555 1_555
C208_3 C200_3 1_555 1_555
H136_3 C200_3 1_555 1_555
H143_3 C207_3 1_555 1_555
C212_3 C207_3 1_555 1_555
H144_3 C208_3 1_555 1_555
C216_3 C212_3 1_555 1_555
O47_3 C216_3 1_555 1_555
O48_3 C216_3 1_555 1_555
Zn16_3 O47_3 1_555 1_555
O28_3 C76_3 1_555 1_555
C96_3 C100_3 1_555 1_555
C127_3 C141_3 1_555 1_555
C143_3 C157_3 1_555 1_555
C144_3 C158_3 1_555 1_555
C175_3 C189_3 1_555 1_555
C180_3 C192_3 1_555 1_555
C208_3 C212_3 1_555 1_555
Zn4_3 O14_3 1_555 1_555
O18_3 Zn4_3 1_555 1_555
O19_3 Zn4_3 1_555 1_555
O20_3 Zn4_3 1_555 1_555
C73_3 O18_3 1_555 1_555
C77_3 C73_3 1_555 1_555
C81_3 C77_3 1_555 1_555
C82_3 C77_3 1_555 1_555
C89_3 C81_3 1_555 1_555
H49_3 C81_3 1_555 1_555
H50_3 C82_3 1_555 1_555
C90_3 C82_3 1_555 1_555
C97_3 C89_3 1_555 1_555
H57_3 C89_3 1_555 1_555
H58_3 C90_3 1_555 1_555
C101_3 C97_3 1_555 1_555
H65_3 C101_3 1_555 1_555
H66_3 C101_3 1_555 1_555
O30_3 C101_3 1_555 1_555
C105_3 O30_3 1_555 1_555
C109_3 C105_3 1_555 1_555
C110_3 C105_3 1_555 1_555
H73_3 C109_3 1_555 1_555
C117_3 C109_3 1_555 1_555
C118_3 C110_3 1_555 1_555
C119_3 C110_3 1_555 1_555
H77_3 C117_3 1_555 1_555
C129_3 C117_3 1_555 1_555
C130_3 C118_3 1_555 1_555
H78_3 C119_3 1_555 1_555
C131_3 C119_3 1_555 1_555
C132_3 C119_3 1_555 1_555
O34_3 C129_3 1_555 1_555
H85_3 C130_3 1_555 1_555
C145_3 C130_3 1_555 1_555
C146_3 C130_3 1_555 1_555
C147_3 C131_3 1_555 1_555
C161_3 O34_3 1_555 1_555
C162_3 C145_3 1_555 1_555
C163_3 C146_3 1_555 1_555
C164_3 C147_3 1_555 1_555
H89_3 C147_3 1_555 1_555
H91_3 C151_3 1_555 1_555
C169_3 C151_3 1_555 1_555
H97_3 C161_3 1_555 1_555
H98_3 C161_3 1_555 1_555
C181_3 C161_3 1_555 1_555
H99_3 C162_3 1_555 1_555
C182_3 C162_3 1_555 1_555
H100_3 C163_3 1_555 1_555
H101_3 C164_3 1_555 1_555
C185_3 C167_3 1_555 1_555
H107_3 C169_3 1_555 1_555
C193_3 C181_3 1_555 1_555
C194_3 C181_3 1_555 1_555
H121_3 C182_3 1_555 1_555
H123_3 C185_3 1_555 1_555
H129_3 C193_3 1_555 1_555
C201_3 C193_3 1_555 1_555
C202_3 C194_3 1_555 1_555
H130_3 C194_3 1_555 1_555
H137_3 C201_3 1_555 1_555
C209_3 C201_3 1_555 1_555
H138_3 C202_3 1_555 1_555
C213_3 C209_3 1_555 1_555
O41_3 C213_3 1_555 1_555
O42_3 C213_3 1_555 1_555
Zn8_3 O41_3 1_555 1_555
Zn12_3 O42_3 1_555 1_555
O21_3 C73_3 1_555 1_555
C90_3 C97_3 1_555 1_555
C118_3 C129_3 1_555 1_555
C131_3 C145_3 1_555 1_555
C132_3 C146_3 1_555 1_555
C164_3 C182_3 1_555 1_555
C169_3 C185_3 1_555 1_555
C202_3 C209_3 1_555 1_555
Zn6_3 O15_3 1_555 1_555
O22_3 Zn5_3 1_555 1_555
O23_3 Zn5_3 1_555 1_555
O24_3 Zn6_3 1_555 1_555
O25_3 Zn6_3 1_555 1_555
O26_3 Zn6_3 1_555 1_555
C75_3 O24_3 1_555 1_555
C78_3 C74_3 1_555 1_555
C79_3 C75_3 1_555 1_555
C83_3 C78_3 1_555 1_555
C84_3 C78_3 1_555 1_555
C85_3 C79_3 1_555 1_555
C86_3 C79_3 1_555 1_555
C91_3 C83_3 1_555 1_555
H51_3 C83_3 1_555 1_555
H52_3 C84_3 1_555 1_555
C92_3 C84_3 1_555 1_555
C93_3 C85_3 1_555 1_555
H53_3 C85_3 1_555 1_555
H54_3 C86_3 1_555 1_555
C94_3 C86_3 1_555 1_555
C98_3 C91_3 1_555 1_555
H59_3 C91_3 1_555 1_555
H60_3 C92_3 1_555 1_555
C99_3 C93_3 1_555 1_555
H61_3 C93_3 1_555 1_555
H62_3 C94_3 1_555 1_555
C102_3 C98_3 1_555 1_555
C103_3 C99_3 1_555 1_555
H67_3 C102_3 1_555 1_555
H68_3 C102_3 1_555 1_555
O31_3 C102_3 1_555 1_555
H69_3 C103_3 1_555 1_555
H70_3 C103_3 1_555 1_555
O32_3 C103_3 1_555 1_555
C106_3 O31_3 1_555 1_555
C107_3 O32_3 1_555 1_555
C111_3 C106_3 1_555 1_555
C112_3 C106_3 1_555 1_555
C113_3 C107_3 1_555 1_555
C114_3 C107_3 1_555 1_555
C120_3 C111_3 1_555 1_555
H74_3 C111_3 1_555 1_555
C121_3 C112_3 1_555 1_555
C122_3 C112_3 1_555 1_555
H75_3 C113_3 1_555 1_555
C123_3 C113_3 1_555 1_555
C124_3 C114_3 1_555 1_555
C125_3 C114_3 1_555 1_555
C133_3 C120_3 1_555 1_555
H79_3 C120_3 1_555 1_555
C134_3 C121_3 1_555 1_555
H80_3 C122_3 1_555 1_555
C135_3 C122_3 1_555 1_555
C136_3 C122_3 1_555 1_555
H81_3 C123_3 1_555 1_555
C137_3 C123_3 1_555 1_555
C138_3 C124_3 1_555 1_555
H82_3 C125_3 1_555 1_555
C139_3 C125_3 1_555 1_555
C140_3 C125_3 1_555 1_555
O35_3 C133_3 1_555 1_555
H86_3 C134_3 1_555 1_555
C149_3 C134_3 1_555 1_555
C150_3 C134_3 1_555 1_555
C152_3 C136_3 1_555 1_555
O36_3 C137_3 1_555 1_555
H87_3 C138_3 1_555 1_555
C153_3 C138_3 1_555 1_555
C154_3 C138_3 1_555 1_555
C155_3 C139_3 1_555 1_555
C165_3 C148_3 1_555 1_555
H90_3 C148_3 1_555 1_555
C166_3 O35_3 1_555 1_555
C168_3 C150_3 1_555 1_555
H92_3 C152_3 1_555 1_555
C170_3 C152_3 1_555 1_555
C171_3 O36_3 1_555 1_555
C172_3 C153_3 1_555 1_555
C173_3 C154_3 1_555 1_555
C174_3 C155_3 1_555 1_555
H93_3 C155_3 1_555 1_555
H95_3 C159_3 1_555 1_555
C179_3 C159_3 1_555 1_555
H102_3 C165_3 1_555 1_555
H103_3 C166_3 1_555 1_555
H104_3 C166_3 1_555 1_555
C184_3 C166_3 1_555 1_555
C186_3 C168_3 1_555 1_555
H106_3 C168_3 1_555 1_555
H108_3 C170_3 1_555 1_555
H109_3 C171_3 1_555 1_555
H110_3 C171_3 1_555 1_555
C187_3 C171_3 1_555 1_555
H111_3 C172_3 1_555 1_555
C188_3 C172_3 1_555 1_555
H112_3 C173_3 1_555 1_555
H113_3 C174_3 1_555 1_555
C191_3 C177_3 1_555 1_555
H119_3 C179_3 1_555 1_555
H122_3 C183_3 1_555 1_555
C195_3 C184_3 1_555 1_555
C196_3 C184_3 1_555 1_555
H124_3 C186_3 1_555 1_555
C197_3 C187_3 1_555 1_555
C198_3 C187_3 1_555 1_555
H125_3 C188_3 1_555 1_555
H127_3 C191_3 1_555 1_555
H131_3 C195_3 1_555 1_555
C203_3 C195_3 1_555 1_555
C204_3 C196_3 1_555 1_555
H132_3 C196_3 1_555 1_555
H133_3 C197_3 1_555 1_555
C205_3 C197_3 1_555 1_555
C206_3 C198_3 1_555 1_555
H134_3 C198_3 1_555 1_555
H139_3 C203_3 1_555 1_555
C210_3 C203_3 1_555 1_555
H140_3 C204_3 1_555 1_555
H141_3 C205_3 1_555 1_555
C211_3 C205_3 1_555 1_555
H142_3 C206_3 1_555 1_555
C214_3 C210_3 1_555 1_555
C215_3 C211_3 1_555 1_555
O43_3 C214_3 1_555 1_555
O44_3 C214_3 1_555 1_555
O45_3 C215_3 1_555 1_555
O46_3 C215_3 1_555 1_555
Zn13_3 O43_3 1_555 1_555
Zn8_3 O45_3 1_555 1_555
Zn15_3 O46_3 1_555 1_555
O22_3 C74_3 1_555 1_555
O27_3 C75_3 1_555 1_555
C92_3 C98_3 1_555 1_555
C94_3 C99_3 1_555 1_555
C121_3 C133_3 1_555 1_555
C124_3 C137_3 1_555 1_555
C135_3 C149_3 1_555 1_555
C136_3 C150_3 1_555 1_555
C139_3 C153_3 1_555 1_555
C140_3 C154_3 1_555 1_555
C165_3 C183_3 1_555 1_555
C170_3 C186_3 1_555 1_555
C174_3 C188_3 1_555 1_555
C179_3 C191_3 1_555 1_555
C204_3 C210_3 1_555 1_555
C206_3 C211_3 1_555 1_555
O1_3 Zn3_4 1_555 1_555
O8_3 Zn3_4 1_555 1_555
Zn3_5 O15_3 1_555 1_555
O17_3 Zn3_5 1_555 1_555
H75_4 C113_4 1_555 1_555
C123_4 C113_4 1_555 1_555
H81_4 C123_4 1_555 1_555
C137_4 C123_4 1_555 1_555
C138_4 C124_4 1_555 1_555
O36_4 C137_4 1_555 1_555
H87_4 C138_4 1_555 1_555
C154_4 C138_4 1_555 1_555
C171_4 O36_4 1_555 1_555
C173_4 C154_4 1_555 1_555
C177_4 C157_4 1_555 1_555
H95_4 C159_4 1_555 1_555
C179_4 C159_4 1_555 1_555
H109_4 C171_4 1_555 1_555
H110_4 C171_4 1_555 1_555
C187_4 C171_4 1_555 1_555
H112_4 C173_4 1_555 1_555
C189_4 C173_4 1_555 1_555
C191_4 C177_4 1_555 1_555
H117_4 C177_4 1_555 1_555
H119_4 C179_4 1_555 1_555
C197_4 C187_4 1_555 1_555
C198_4 C187_4 1_555 1_555
H126_4 C189_4 1_555 1_555
H127_4 C191_4 1_555 1_555
H133_4 C197_4 1_555 1_555
C205_4 C197_4 1_555 1_555
C206_4 C198_4 1_555 1_555
H134_4 C198_4 1_555 1_555
H141_4 C205_4 1_555 1_555
C211_4 C205_4 1_555 1_555
H142_4 C206_4 1_555 1_555
H144_4 C208_4 1_555 1_555
C215_4 C211_4 1_555 1_555
O17_2 C215_4 1_555 1_555
O26_2 C215_4 1_555 1_555
O7_3 C216_4 1_555 1_555
C124_4 C137_4 1_555 1_555
C179_4 C191_4 1_555 1_555
C206_4 C211_4 1_555 1_555
Zn12_3 O1_4 1_555 1_555
O1_4 Zn16_2 1_555 1_555
O2_4 Zn12_3 1_555 1_555
O3_4 Zn12_3 1_555 1_555
Zn16_2 O5_4 1_555 1_555
Zn8_3 O1_4 1_555 1_555
C1_4 O2_4 1_555 1_555
C2_4 O3_4 1_555 1_555
O5_4 C1_4 1_555 1_555
O6_4 Zn16_2 1_555 1_555
C3_4 C1_4 1_555 1_555
C4_4 C2_4 1_555 1_555
C5_4 C3_4 1_555 1_555
C6_4 C3_4 1_555 1_555
C7_4 C4_4 1_555 1_555
C8_4 C4_4 1_555 1_555
C9_4 C5_4 1_555 1_555
H1_4 C5_4 1_555 1_555
H2_4 C6_4 1_555 1_555
C10_4 C6_4 1_555 1_555
C11_4 C7_4 1_555 1_555
H3_4 C7_4 1_555 1_555
H4_4 C8_4 1_555 1_555
C12_4 C8_4 1_555 1_555
C13_4 C9_4 1_555 1_555
H5_4 C9_4 1_555 1_555
H6_4 C10_4 1_555 1_555
C14_4 C11_4 1_555 1_555
H7_4 C11_4 1_555 1_555
H8_4 C12_4 1_555 1_555
C15_4 C13_4 1_555 1_555
C16_4 C14_4 1_555 1_555
H9_4 C15_4 1_555 1_555
H10_4 C15_4 1_555 1_555
O9_4 C15_4 1_555 1_555
H11_4 C16_4 1_555 1_555
H12_4 C16_4 1_555 1_555
O10_4 C16_4 1_555 1_555
C17_4 O9_4 1_555 1_555
C18_4 O10_4 1_555 1_555
C20_4 C17_4 1_555 1_555
C21_4 C18_4 1_555 1_555
C22_4 C18_4 1_555 1_555
C25_4 C20_4 1_555 1_555
C26_4 C21_4 1_555 1_555
H14_4 C21_4 1_555 1_555
C27_4 C22_4 1_555 1_555
C28_4 C22_4 1_555 1_555
H16_4 C25_4 1_555 1_555
C31_4 C25_4 1_555 1_555
C32_4 C25_4 1_555 1_555
C33_4 C26_4 1_555 1_555
H17_4 C26_4 1_555 1_555
C34_4 C27_4 1_555 1_555
H18_4 C28_4 1_555 1_555
C35_4 C28_4 1_555 1_555
C36_4 C28_4 1_555 1_555
C39_4 C31_4 1_555 1_555
C40_4 C32_4 1_555 1_555
O12_4 C33_4 1_555 1_555
H20_4 C34_4 1_555 1_555
C42_4 C34_4 1_555 1_555
C44_4 C36_4 1_555 1_555
C46_4 C37_4 1_555 1_555
C48_4 C39_4 1_555 1_555
H21_4 C39_4 1_555 1_555
C49_4 C40_4 1_555 1_555
H22_4 C40_4 1_555 1_555
C50_4 O12_4 1_555 1_555
C52_4 C42_4 1_555 1_555
H24_4 C44_4 1_555 1_555
C54_4 C44_4 1_555 1_555
H27_4 C46_4 1_555 1_555
C56_4 C46_4 1_555 1_555
H29_4 C48_4 1_555 1_555
H30_4 C49_4 1_555 1_555
H31_4 C50_4 1_555 1_555
H32_4 C50_4 1_555 1_555
C58_4 C50_4 1_555 1_555
C60_4 C52_4 1_555 1_555
H34_4 C52_4 1_555 1_555
H36_4 C54_4 1_555 1_555
H37_4 C56_4 1_555 1_555
C63_4 C58_4 1_555 1_555
C64_4 C58_4 1_555 1_555
H40_4 C60_4 1_555 1_555
H43_4 C63_4 1_555 1_555
C67_4 C63_4 1_555 1_555
H44_4 C64_4 1_555 1_555
H47_4 C67_4 1_555 1_555
C70_4 C67_4 1_555 1_555
O14_4 Zn8_3 1_555 1_555
O15_4 Zn8_3 1_555 1_555
Zn9_3 O14_4 1_555 1_555
Zn13_2 O14_4 1_555 1_555
Zn15_3 O15_4 1_555 1_555
Zn10_2 O15_4 1_555 1_555
O18_4 Zn9_3 1_555 1_555
O19_4 Zn9_3 1_555 1_555
O21_4 Zn13_2 1_555 1_555
O22_4 Zn13_2 1_555 1_555
O24_4 Zn15_3 1_555 1_555
O25_4 Zn15_3 1_555 1_555
O27_4 Zn10_2 1_555 1_555
O28_4 Zn10_2 1_555 1_555
C73_4 O18_4 1_555 1_555
C74_4 O19_4 1_555 1_555
C75_4 O24_4 1_555 1_555
C76_4 O25_4 1_555 1_555
C77_4 C73_4 1_555 1_555
C78_4 C74_4 1_555 1_555
C79_4 C75_4 1_555 1_555
C80_4 C76_4 1_555 1_555
C81_4 C77_4 1_555 1_555
C82_4 C77_4 1_555 1_555
C83_4 C78_4 1_555 1_555
C84_4 C78_4 1_555 1_555
C85_4 C79_4 1_555 1_555
C86_4 C79_4 1_555 1_555
C87_4 C80_4 1_555 1_555
C88_4 C80_4 1_555 1_555
C89_4 C81_4 1_555 1_555
H49_4 C81_4 1_555 1_555
H50_4 C82_4 1_555 1_555
C90_4 C82_4 1_555 1_555
C91_4 C83_4 1_555 1_555
H51_4 C83_4 1_555 1_555
H52_4 C84_4 1_555 1_555
C92_4 C84_4 1_555 1_555
C93_4 C85_4 1_555 1_555
H53_4 C85_4 1_555 1_555
H54_4 C86_4 1_555 1_555
C94_4 C86_4 1_555 1_555
C95_4 C87_4 1_555 1_555
H55_4 C87_4 1_555 1_555
H56_4 C88_4 1_555 1_555
C96_4 C88_4 1_555 1_555
C97_4 C89_4 1_555 1_555
H57_4 C89_4 1_555 1_555
H58_4 C90_4 1_555 1_555
C98_4 C91_4 1_555 1_555
H59_4 C91_4 1_555 1_555
H60_4 C92_4 1_555 1_555
C99_4 C93_4 1_555 1_555
H61_4 C93_4 1_555 1_555
H62_4 C94_4 1_555 1_555
C100_4 C95_4 1_555 1_555
H63_4 C95_4 1_555 1_555
H64_4 C96_4 1_555 1_555
C101_4 C97_4 1_555 1_555
C102_4 C98_4 1_555 1_555
C103_4 C99_4 1_555 1_555
C104_4 C100_4 1_555 1_555
H65_4 C101_4 1_555 1_555
H66_4 C101_4 1_555 1_555
O30_4 C101_4 1_555 1_555
H67_4 C102_4 1_555 1_555
H68_4 C102_4 1_555 1_555
O31_4 C102_4 1_555 1_555
H69_4 C103_4 1_555 1_555
H70_4 C103_4 1_555 1_555
O32_4 C103_4 1_555 1_555
H71_4 C104_4 1_555 1_555
H72_4 C104_4 1_555 1_555
O33_4 C104_4 1_555 1_555
C105_4 O30_4 1_555 1_555
C106_4 O31_4 1_555 1_555
C107_4 O32_4 1_555 1_555
C108_4 O33_4 1_555 1_555
C109_4 C105_4 1_555 1_555
C110_4 C105_4 1_555 1_555
C111_4 C106_4 1_555 1_555
C112_4 C106_4 1_555 1_555
C114_4 C107_4 1_555 1_555
C115_4 C108_4 1_555 1_555
C116_4 C108_4 1_555 1_555
H73_4 C109_4 1_555 1_555
C117_4 C109_4 1_555 1_555
C118_4 C110_4 1_555 1_555
C119_4 C110_4 1_555 1_555
C120_4 C111_4 1_555 1_555
H74_4 C111_4 1_555 1_555
C121_4 C112_4 1_555 1_555
C122_4 C112_4 1_555 1_555
C125_4 C114_4 1_555 1_555
C126_4 C115_4 1_555 1_555
H76_4 C115_4 1_555 1_555
C127_4 C116_4 1_555 1_555
C128_4 C116_4 1_555 1_555
H77_4 C117_4 1_555 1_555
C129_4 C117_4 1_555 1_555
C130_4 C118_4 1_555 1_555
H78_4 C119_4 1_555 1_555
C131_4 C119_4 1_555 1_555
C132_4 C119_4 1_555 1_555
C133_4 C120_4 1_555 1_555
H79_4 C120_4 1_555 1_555
C134_4 C121_4 1_555 1_555
H80_4 C122_4 1_555 1_555
C135_4 C122_4 1_555 1_555
C136_4 C122_4 1_555 1_555
H82_4 C125_4 1_555 1_555
C139_4 C125_4 1_555 1_555
C140_4 C125_4 1_555 1_555
C141_4 C126_4 1_555 1_555
H83_4 C126_4 1_555 1_555
C142_4 C127_4 1_555 1_555
H84_4 C128_4 1_555 1_555
C143_4 C128_4 1_555 1_555
C144_4 C128_4 1_555 1_555
O34_4 C129_4 1_555 1_555
H85_4 C130_4 1_555 1_555
C145_4 C130_4 1_555 1_555
C146_4 C130_4 1_555 1_555
C147_4 C131_4 1_555 1_555
C148_4 C132_4 1_555 1_555
O35_4 C133_4 1_555 1_555
H86_4 C134_4 1_555 1_555
C149_4 C134_4 1_555 1_555
C150_4 C134_4 1_555 1_555
C151_4 C135_4 1_555 1_555
C152_4 C136_4 1_555 1_555
C155_4 C139_4 1_555 1_555
C156_4 C140_4 1_555 1_555
O37_4 C141_4 1_555 1_555
H88_4 C142_4 1_555 1_555
C158_4 C142_4 1_555 1_555
C160_4 C144_4 1_555 1_555
C161_4 O34_4 1_555 1_555
C162_4 C145_4 1_555 1_555
C163_4 C146_4 1_555 1_555
C164_4 C147_4 1_555 1_555
H89_4 C147_4 1_555 1_555
C165_4 C148_4 1_555 1_555
H90_4 C148_4 1_555 1_555
C166_4 O35_4 1_555 1_555
C167_4 C149_4 1_555 1_555
C168_4 C150_4 1_555 1_555
H91_4 C151_4 1_555 1_555
C169_4 C151_4 1_555 1_555
H92_4 C152_4 1_555 1_555
C170_4 C152_4 1_555 1_555
C172_4 C153_4 1_555 1_555
C174_4 C155_4 1_555 1_555
H93_4 C155_4 1_555 1_555
C175_4 C156_4 1_555 1_555
H94_4 C156_4 1_555 1_555
C176_4 O37_4 1_555 1_555
C178_4 C158_4 1_555 1_555
H96_4 C160_4 1_555 1_555
C180_4 C160_4 1_555 1_555
H97_4 C161_4 1_555 1_555
H98_4 C161_4 1_555 1_555
C181_4 C161_4 1_555 1_555
H99_4 C162_4 1_555 1_555
C182_4 C162_4 1_555 1_555
H100_4 C163_4 1_555 1_555
C183_4 C163_4 1_555 1_555
H101_4 C164_4 1_555 1_555
H102_4 C165_4 1_555 1_555
H103_4 C166_4 1_555 1_555
H104_4 C166_4 1_555 1_555
C184_4 C166_4 1_555 1_555
C185_4 C167_4 1_555 1_555
H105_4 C167_4 1_555 1_555
C186_4 C168_4 1_555 1_555
H106_4 C168_4 1_555 1_555
H107_4 C169_4 1_555 1_555
H108_4 C170_4 1_555 1_555
H111_4 C172_4 1_555 1_555
C188_4 C172_4 1_555 1_555
H113_4 C174_4 1_555 1_555
H114_4 C175_4 1_555 1_555
H115_4 C176_4 1_555 1_555
H116_4 C176_4 1_555 1_555
C190_4 C176_4 1_555 1_555
C192_4 C178_4 1_555 1_555
H118_4 C178_4 1_555 1_555
H120_4 C180_4 1_555 1_555
C193_4 C181_4 1_555 1_555
C194_4 C181_4 1_555 1_555
H121_4 C182_4 1_555 1_555
H122_4 C183_4 1_555 1_555
C195_4 C184_4 1_555 1_555
C196_4 C184_4 1_555 1_555
H123_4 C185_4 1_555 1_555
H124_4 C186_4 1_555 1_555
H125_4 C188_4 1_555 1_555
C199_4 C190_4 1_555 1_555
C200_4 C190_4 1_555 1_555
H128_4 C192_4 1_555 1_555
H129_4 C193_4 1_555 1_555
C201_4 C193_4 1_555 1_555
C202_4 C194_4 1_555 1_555
H130_4 C194_4 1_555 1_555
H131_4 C195_4 1_555 1_555
C203_4 C195_4 1_555 1_555
C204_4 C196_4 1_555 1_555
H132_4 C196_4 1_555 1_555
H135_4 C199_4 1_555 1_555
C207_4 C199_4 1_555 1_555
H136_4 C200_4 1_555 1_555
H137_4 C201_4 1_555 1_555
C209_4 C201_4 1_555 1_555
H138_4 C202_4 1_555 1_555
H139_4 C203_4 1_555 1_555
C210_4 C203_4 1_555 1_555
H140_4 C204_4 1_555 1_555
H143_4 C207_4 1_555 1_555
C212_4 C207_4 1_555 1_555
C213_4 C209_4 1_555 1_555
C214_4 C210_4 1_555 1_555
O16_2 C213_4 1_555 1_555
O4_2 C213_4 1_555 1_555
O23_3 C214_4 1_555 1_555
O44_4 C214_4 1_555 1_555
C2_4 O6_4 1_555 1_555
C10_4 C13_4 1_555 1_555
C12_4 C14_4 1_555 1_555
C27_4 C33_4 1_555 1_555
C31_4 C37_4 1_555 1_555
C36_4 C42_4 1_555 1_555
C48_4 C56_4 1_555 1_555
C54_4 C60_4 1_555 1_555
O21_4 C73_4 1_555 1_555
O22_4 C74_4 1_555 1_555
O27_4 C75_4 1_555 1_555
O28_4 C76_4 1_555 1_555
C90_4 C97_4 1_555 1_555
C92_4 C98_4 1_555 1_555
C94_4 C99_4 1_555 1_555
C96_4 C100_4 1_555 1_555
C118_4 C129_4 1_555 1_555
C121_4 C133_4 1_555 1_555
C127_4 C141_4 1_555 1_555
C131_4 C145_4 1_555 1_555
C132_4 C146_4 1_555 1_555
C135_4 C149_4 1_555 1_555
C136_4 C150_4 1_555 1_555
C139_4 C153_4 1_555 1_555
C144_4 C158_4 1_555 1_555
C164_4 C182_4 1_555 1_555
C165_4 C183_4 1_555 1_555
C169_4 C185_4 1_555 1_555
C170_4 C186_4 1_555 1_555
C174_4 C188_4 1_555 1_555
C180_4 C192_4 1_555 1_555
C202_4 C209_4 1_555 1_555
C204_4 C210_4 1_555 1_555
H13_4 C19_4 1_555 1_555
C23_4 C19_4 1_555 1_555
H15_4 C23_4 1_555 1_555
C29_4 C23_4 1_555 1_555
C30_4 C24_4 1_555 1_555
O11_4 C29_4 1_555 1_555
H19_4 C30_4 1_555 1_555
C38_4 C30_4 1_555 1_555
C45_4 O11_4 1_555 1_555
C47_4 C38_4 1_555 1_555
C51_4 C41_4 1_555 1_555
H23_4 C43_4 1_555 1_555
C53_4 C43_4 1_555 1_555
H25_4 C45_4 1_555 1_555
H26_4 C45_4 1_555 1_555
C55_4 C45_4 1_555 1_555
H28_4 C47_4 1_555 1_555
C57_4 C47_4 1_555 1_555
C59_4 C51_4 1_555 1_555
H33_4 C51_4 1_555 1_555
H35_4 C53_4 1_555 1_555
C61_4 C55_4 1_555 1_555
C62_4 C55_4 1_555 1_555
H38_4 C57_4 1_555 1_555
H39_4 C59_4 1_555 1_555
H41_4 C61_4 1_555 1_555
C65_4 C61_4 1_555 1_555
C66_4 C62_4 1_555 1_555
H42_4 C62_4 1_555 1_555
H45_4 C65_4 1_555 1_555
C69_4 C65_4 1_555 1_555
H46_4 C66_4 1_555 1_555
H48_4 C68_4 1_555 1_555
C71_4 C69_4 1_555 1_555
O8_2 C71_4 1_555 1_555
O20_2 C71_4 1_555 1_555
O29_3 C72_4 1_555 1_555
C24_4 C29_4 1_555 1_555
C53_4 C59_4 1_555 1_555
C66_4 C69_4 1_555 1_555
Zn15_2 O15_5 1_555 1_555
O22_5 Zn13 1_555 1_555
O24_5 Zn15_2 1_555 1_555
O25_5 Zn15_2 1_555 1_555
C75_5 O24_5 1_555 1_555
C78_5 C74_5 1_555 1_555
C79_5 C75_5 1_555 1_555
C83_5 C78_5 1_555 1_555
C84_5 C78_5 1_555 1_555
C85_5 C79_5 1_555 1_555
C86_5 C79_5 1_555 1_555
C91_5 C83_5 1_555 1_555
H51_5 C83_5 1_555 1_555
H52_5 C84_5 1_555 1_555
C92_5 C84_5 1_555 1_555
C93_5 C85_5 1_555 1_555
H53_5 C85_5 1_555 1_555
H54_5 C86_5 1_555 1_555
C94_5 C86_5 1_555 1_555
C98_5 C91_5 1_555 1_555
H59_5 C91_5 1_555 1_555
H60_5 C92_5 1_555 1_555
C99_5 C93_5 1_555 1_555
H61_5 C93_5 1_555 1_555
H62_5 C94_5 1_555 1_555
C102_5 C98_5 1_555 1_555
C103_5 C99_5 1_555 1_555
H67_5 C102_5 1_555 1_555
H68_5 C102_5 1_555 1_555
O31_5 C102_5 1_555 1_555
H69_5 C103_5 1_555 1_555
H70_5 C103_5 1_555 1_555
O32_5 C103_5 1_555 1_555
C106_5 O31_5 1_555 1_555
C107_5 O32_5 1_555 1_555
C111_5 C106_5 1_555 1_555
C112_5 C106_5 1_555 1_555
C113_5 C107_5 1_555 1_555
C114_5 C107_5 1_555 1_555
C120_5 C111_5 1_555 1_555
H74_5 C111_5 1_555 1_555
C121_5 C112_5 1_555 1_555
C122_5 C112_5 1_555 1_555
H75_5 C113_5 1_555 1_555
C123_5 C113_5 1_555 1_555
C124_5 C114_5 1_555 1_555
C125_5 C114_5 1_555 1_555
C133_5 C120_5 1_555 1_555
H79_5 C120_5 1_555 1_555
C134_5 C121_5 1_555 1_555
H80_5 C122_5 1_555 1_555
C135_5 C122_5 1_555 1_555
C136_5 C122_5 1_555 1_555
H81_5 C123_5 1_555 1_555
C137_5 C123_5 1_555 1_555
C138_5 C124_5 1_555 1_555
H82_5 C125_5 1_555 1_555
C139_5 C125_5 1_555 1_555
C140_5 C125_5 1_555 1_555
O35_5 C133_5 1_555 1_555
H86_5 C134_5 1_555 1_555
C149_5 C134_5 1_555 1_555
C150_5 C134_5 1_555 1_555
C152_5 C136_5 1_555 1_555
O36_5 C137_5 1_555 1_555
H87_5 C138_5 1_555 1_555
C153_5 C138_5 1_555 1_555
C154_5 C138_5 1_555 1_555
C155_5 C139_5 1_555 1_555
C165_5 C148_5 1_555 1_555
H90_5 C148_5 1_555 1_555
C166_5 O35_5 1_555 1_555
C168_5 C150_5 1_555 1_555
H92_5 C152_5 1_555 1_555
C170_5 C152_5 1_555 1_555
C171_5 O36_5 1_555 1_555
C172_5 C153_5 1_555 1_555
C173_5 C154_5 1_555 1_555
C174_5 C155_5 1_555 1_555
H93_5 C155_5 1_555 1_555
H95_5 C159_5 1_555 1_555
C179_5 C159_5 1_555 1_555
H102_5 C165_5 1_555 1_555
H103_5 C166_5 1_555 1_555
H104_5 C166_5 1_555 1_555
C184_5 C166_5 1_555 1_555
C186_5 C168_5 1_555 1_555
H106_5 C168_5 1_555 1_555
H108_5 C170_5 1_555 1_555
H109_5 C171_5 1_555 1_555
H110_5 C171_5 1_555 1_555
C187_5 C171_5 1_555 1_555
H111_5 C172_5 1_555 1_555
C188_5 C172_5 1_555 1_555
H112_5 C173_5 1_555 1_555
H113_5 C174_5 1_555 1_555
C191_5 C177_5 1_555 1_555
H119_5 C179_5 1_555 1_555
H122_5 C183_5 1_555 1_555
C195_5 C184_5 1_555 1_555
C196_5 C184_5 1_555 1_555
H124_5 C186_5 1_555 1_555
C197_5 C187_5 1_555 1_555
C198_5 C187_5 1_555 1_555
H125_5 C188_5 1_555 1_555
H127_5 C191_5 1_555 1_555
H131_5 C195_5 1_555 1_555
C203_5 C195_5 1_555 1_555
C204_5 C196_5 1_555 1_555
H132_5 C196_5 1_555 1_555
H133_5 C197_5 1_555 1_555
C205_5 C197_5 1_555 1_555
C206_5 C198_5 1_555 1_555
H134_5 C198_5 1_555 1_555
H139_5 C203_5 1_555 1_555
C210_5 C203_5 1_555 1_555
H140_5 C204_5 1_555 1_555
H141_5 C205_5 1_555 1_555
C211_5 C205_5 1_555 1_555
H142_5 C206_5 1_555 1_555
C214_5 C210_5 1_555 1_555
C215_5 C211_5 1_555 1_555
O23_2 C214_5 1_555 1_555
O44_5 C214_5 1_555 1_555
O17 C215_5 1_555 1_555
O26 C215_5 1_555 1_555
O22_5 C74_5 1_555 1_555
O27_5 C75_5 1_555 1_555
C92_5 C98_5 1_555 1_555
C94_5 C99_5 1_555 1_555
C121_5 C133_5 1_555 1_555
C124_5 C137_5 1_555 1_555
C135_5 C149_5 1_555 1_555
C136_5 C150_5 1_555 1_555
C139_5 C153_5 1_555 1_555
C140_5 C154_5 1_555 1_555
C165_5 C183_5 1_555 1_555
C170_5 C186_5 1_555 1_555
C174_5 C188_5 1_555 1_555
C179_5 C191_5 1_555 1_555
C204_5 C210_5 1_555 1_555
C206_5 C211_5 1_555 1_555
O28_5 Zn10 1_555 1_555
C80_5 C76_5 1_555 1_555
C87_5 C80_5 1_555 1_555
C88_5 C80_5 1_555 1_555
C95_5 C87_5 1_555 1_555
H55_5 C87_5 1_555 1_555
H56_5 C88_5 1_555 1_555
C96_5 C88_5 1_555 1_555
C100_5 C95_5 1_555 1_555
H63_5 C95_5 1_555 1_555
H64_5 C96_5 1_555 1_555
C104_5 C100_5 1_555 1_555
H71_5 C104_5 1_555 1_555
H72_5 C104_5 1_555 1_555
O33_5 C104_5 1_555 1_555
C108_5 O33_5 1_555 1_555
C115_5 C108_5 1_555 1_555
C116_5 C108_5 1_555 1_555
C126_5 C115_5 1_555 1_555
H76_5 C115_5 1_555 1_555
C127_5 C116_5 1_555 1_555
C128_5 C116_5 1_555 1_555
C141_5 C126_5 1_555 1_555
H83_5 C126_5 1_555 1_555
C142_5 C127_5 1_555 1_555
H84_5 C128_5 1_555 1_555
C143_5 C128_5 1_555 1_555
C144_5 C128_5 1_555 1_555
O37_5 C141_5 1_555 1_555
H88_5 C142_5 1_555 1_555
C157_5 C142_5 1_555 1_555
C158_5 C142_5 1_555 1_555
C160_5 C144_5 1_555 1_555
C175_5 C156_5 1_555 1_555
H94_5 C156_5 1_555 1_555
C176_5 O37_5 1_555 1_555
C178_5 C158_5 1_555 1_555
H96_5 C160_5 1_555 1_555
C180_5 C160_5 1_555 1_555
H114_5 C175_5 1_555 1_555
H115_5 C176_5 1_555 1_555
H116_5 C176_5 1_555 1_555
C190_5 C176_5 1_555 1_555
C192_5 C178_5 1_555 1_555
H118_5 C178_5 1_555 1_555
H120_5 C180_5 1_555 1_555
H126_5 C189_5 1_555 1_555
C199_5 C190_5 1_555 1_555
C200_5 C190_5 1_555 1_555
H128_5 C192_5 1_555 1_555
H135_5 C199_5 1_555 1_555
C207_5 C199_5 1_555 1_555
C208_5 C200_5 1_555 1_555
H136_5 C200_5 1_555 1_555
H143_5 C207_5 1_555 1_555
C212_5 C207_5 1_555 1_555
H144_5 C208_5 1_555 1_555
C216_5 C212_5 1_555 1_555
O7_2 C216_5 1_555 1_555
O48_5 C216_5 1_555 1_555
O28_5 C76_5 1_555 1_555
C96_5 C100_5 1_555 1_555
C127_5 C141_5 1_555 1_555
C143_5 C157_5 1_555 1_555
C144_5 C158_5 1_555 1_555
C175_5 C189_5 1_555 1_555
C180_5 C192_5 1_555 1_555
C208_5 C212_5 1_555 1_555
Zn9_2 O14_5 1_555 1_555
O18_5 Zn9_2 1_555 1_555
O19_5 Zn9_2 1_555 1_555
C73_5 O18_5 1_555 1_555
C77_5 C73_5 1_555 1_555
C81_5 C77_5 1_555 1_555
C82_5 C77_5 1_555 1_555
C89_5 C81_5 1_555 1_555
H49_5 C81_5 1_555 1_555
H50_5 C82_5 1_555 1_555
C90_5 C82_5 1_555 1_555
C97_5 C89_5 1_555 1_555
H57_5 C89_5 1_555 1_555
H58_5 C90_5 1_555 1_555
C101_5 C97_5 1_555 1_555
H65_5 C101_5 1_555 1_555
H66_5 C101_5 1_555 1_555
O30_5 C101_5 1_555 1_555
C105_5 O30_5 1_555 1_555
C109_5 C105_5 1_555 1_555
C110_5 C105_5 1_555 1_555
H73_5 C109_5 1_555 1_555
C117_5 C109_5 1_555 1_555
C118_5 C110_5 1_555 1_555
C119_5 C110_5 1_555 1_555
H77_5 C117_5 1_555 1_555
C129_5 C117_5 1_555 1_555
C130_5 C118_5 1_555 1_555
H78_5 C119_5 1_555 1_555
C131_5 C119_5 1_555 1_555
C132_5 C119_5 1_555 1_555
O34_5 C129_5 1_555 1_555
H85_5 C130_5 1_555 1_555
C145_5 C130_5 1_555 1_555
C146_5 C130_5 1_555 1_555
C147_5 C131_5 1_555 1_555
C161_5 O34_5 1_555 1_555
C162_5 C145_5 1_555 1_555
C163_5 C146_5 1_555 1_555
C164_5 C147_5 1_555 1_555
H89_5 C147_5 1_555 1_555
H91_5 C151_5 1_555 1_555
C169_5 C151_5 1_555 1_555
H97_5 C161_5 1_555 1_555
H98_5 C161_5 1_555 1_555
C181_5 C161_5 1_555 1_555
H99_5 C162_5 1_555 1_555
C182_5 C162_5 1_555 1_555
H100_5 C163_5 1_555 1_555
H101_5 C164_5 1_555 1_555
C185_5 C167_5 1_555 1_555
H107_5 C169_5 1_555 1_555
C193_5 C181_5 1_555 1_555
C194_5 C181_5 1_555 1_555
H121_5 C182_5 1_555 1_555
H123_5 C185_5 1_555 1_555
H129_5 C193_5 1_555 1_555
C201_5 C193_5 1_555 1_555
C202_5 C194_5 1_555 1_555
H130_5 C194_5 1_555 1_555
H137_5 C201_5 1_555 1_555
C209_5 C201_5 1_555 1_555
H138_5 C202_5 1_555 1_555
C213_5 C209_5 1_555 1_555
O16 C213_5 1_555 1_555
O4 C213_5 1_555 1_555
O21_5 C73_5 1_555 1_555
C90_5 C97_5 1_555 1_555
C118_5 C129_5 1_555 1_555
C131_5 C145_5 1_555 1_555
C132_5 C146_5 1_555 1_555
C164_5 C182_5 1_555 1_555
C169_5 C185_5 1_555 1_555
C202_5 C209_5 1_555 1_555
Zn12_2 O1_5 1_555 1_555
O1_5 Zn16 1_555 1_555
O2_5 Zn12_2 1_555 1_555
O3_5 Zn12_2 1_555 1_555
Zn16 O5_5 1_555 1_555
C1_5 O2_5 1_555 1_555
C2_5 O3_5 1_555 1_555
O5_5 C1_5 1_555 1_555
O6_5 Zn16 1_555 1_555
C3_5 C1_5 1_555 1_555
C4_5 C2_5 1_555 1_555
C5_5 C3_5 1_555 1_555
C6_5 C3_5 1_555 1_555
C7_5 C4_5 1_555 1_555
C8_5 C4_5 1_555 1_555
C9_5 C5_5 1_555 1_555
H1_5 C5_5 1_555 1_555
H2_5 C6_5 1_555 1_555
C10_5 C6_5 1_555 1_555
C11_5 C7_5 1_555 1_555
H3_5 C7_5 1_555 1_555
H4_5 C8_5 1_555 1_555
C12_5 C8_5 1_555 1_555
C13_5 C9_5 1_555 1_555
H5_5 C9_5 1_555 1_555
H6_5 C10_5 1_555 1_555
C14_5 C11_5 1_555 1_555
H7_5 C11_5 1_555 1_555
H8_5 C12_5 1_555 1_555
C15_5 C13_5 1_555 1_555
C16_5 C14_5 1_555 1_555
H9_5 C15_5 1_555 1_555
H10_5 C15_5 1_555 1_555
O9_5 C15_5 1_555 1_555
H11_5 C16_5 1_555 1_555
H12_5 C16_5 1_555 1_555
O10_5 C16_5 1_555 1_555
C17_5 O9_5 1_555 1_555
C18_5 O10_5 1_555 1_555
C19_5 C17_5 1_555 1_555
C20_5 C17_5 1_555 1_555
C21_5 C18_5 1_555 1_555
C22_5 C18_5 1_555 1_555
H13_5 C19_5 1_555 1_555
C23_5 C19_5 1_555 1_555
C24_5 C20_5 1_555 1_555
C25_5 C20_5 1_555 1_555
C26_5 C21_5 1_555 1_555
H14_5 C21_5 1_555 1_555
C27_5 C22_5 1_555 1_555
C28_5 C22_5 1_555 1_555
H15_5 C23_5 1_555 1_555
C29_5 C23_5 1_555 1_555
C30_5 C24_5 1_555 1_555
H16_5 C25_5 1_555 1_555
C31_5 C25_5 1_555 1_555
C32_5 C25_5 1_555 1_555
C33_5 C26_5 1_555 1_555
H17_5 C26_5 1_555 1_555
C34_5 C27_5 1_555 1_555
H18_5 C28_5 1_555 1_555
C35_5 C28_5 1_555 1_555
C36_5 C28_5 1_555 1_555
O11_5 C29_5 1_555 1_555
H19_5 C30_5 1_555 1_555
C37_5 C30_5 1_555 1_555
C38_5 C30_5 1_555 1_555
C39_5 C31_5 1_555 1_555
C40_5 C32_5 1_555 1_555
O12_5 C33_5 1_555 1_555
H20_5 C34_5 1_555 1_555
C41_5 C34_5 1_555 1_555
C42_5 C34_5 1_555 1_555
C43_5 C35_5 1_555 1_555
C44_5 C36_5 1_555 1_555
C45_5 O11_5 1_555 1_555
C46_5 C37_5 1_555 1_555
C47_5 C38_5 1_555 1_555
C48_5 C39_5 1_555 1_555
H21_5 C39_5 1_555 1_555
C49_5 C40_5 1_555 1_555
H22_5 C40_5 1_555 1_555
C50_5 O12_5 1_555 1_555
C51_5 C41_5 1_555 1_555
C52_5 C42_5 1_555 1_555
H23_5 C43_5 1_555 1_555
C53_5 C43_5 1_555 1_555
H24_5 C44_5 1_555 1_555
C54_5 C44_5 1_555 1_555
H25_5 C45_5 1_555 1_555
H26_5 C45_5 1_555 1_555
C55_5 C45_5 1_555 1_555
H27_5 C46_5 1_555 1_555
C56_5 C46_5 1_555 1_555
H28_5 C47_5 1_555 1_555
C57_5 C47_5 1_555 1_555
H29_5 C48_5 1_555 1_555
H30_5 C49_5 1_555 1_555
H31_5 C50_5 1_555 1_555
H32_5 C50_5 1_555 1_555
C58_5 C50_5 1_555 1_555
C59_5 C51_5 1_555 1_555
H33_5 C51_5 1_555 1_555
C60_5 C52_5 1_555 1_555
H34_5 C52_5 1_555 1_555
H35_5 C53_5 1_555 1_555
H36_5 C54_5 1_555 1_555
C61_5 C55_5 1_555 1_555
C62_5 C55_5 1_555 1_555
H37_5 C56_5 1_555 1_555
H38_5 C57_5 1_555 1_555
C63_5 C58_5 1_555 1_555
C64_5 C58_5 1_555 1_555
H39_5 C59_5 1_555 1_555
H40_5 C60_5 1_555 1_555
H41_5 C61_5 1_555 1_555
C65_5 C61_5 1_555 1_555
C66_5 C62_5 1_555 1_555
H42_5 C62_5 1_555 1_555
H43_5 C63_5 1_555 1_555
C67_5 C63_5 1_555 1_555
C68_5 C64_5 1_555 1_555
H44_5 C64_5 1_555 1_555
H45_5 C65_5 1_555 1_555
C69_5 C65_5 1_555 1_555
H46_5 C66_5 1_555 1_555
H47_5 C67_5 1_555 1_555
C70_5 C67_5 1_555 1_555
H48_5 C68_5 1_555 1_555
C71_5 C69_5 1_555 1_555
C72_5 C70_5 1_555 1_555
O13_5 C72_5 1_555 1_555
O8 C71_5 1_555 1_555
O20 C71_5 1_555 1_555
O29_2 C72_5 1_555 1_555
C2_5 O6_5 1_555 1_555
C10_5 C13_5 1_555 1_555
C12_5 C14_5 1_555 1_555
C24_5 C29_5 1_555 1_555
C27_5 C33_5 1_555 1_555
C31_5 C37_5 1_555 1_555
C32_5 C38_5 1_555 1_555
C35_5 C41_5 1_555 1_555
C36_5 C42_5 1_555 1_555
C48_5 C56_5 1_555 1_555
C49_5 C57_5 1_555 1_555
C53_5 C59_5 1_555 1_555
C54_5 C60_5 1_555 1_555
C66_5 C69_5 1_555 1_555
C68_5 C70_5 1_555 1_555
O1_5 Zn11 1_555 1_555
Zn14 O15_5 1_555 1_555
O23 C214_6 1_555 1_555
O44_6 C214_6 1_555 1_555
C111_6 C106_6 1_555 1_555
C112_6 C106_6 1_555 1_555
C120_6 C111_6 1_555 1_555
H74_6 C111_6 1_555 1_555
C121_6 C112_6 1_555 1_555
C133_6 C120_6 1_555 1_555
H79_6 C120_6 1_555 1_555
C134_6 C121_6 1_555 1_555
O35_6 C133_6 1_555 1_555
H86_6 C134_6 1_555 1_555
C149_6 C134_6 1_555 1_555
C166_6 O35_6 1_555 1_555
C167_6 C149_6 1_555 1_555
H102_6 C165_6 1_555 1_555
H103_6 C166_6 1_555 1_555
H104_6 C166_6 1_555 1_555
C184_6 C166_6 1_555 1_555
C185_6 C167_6 1_555 1_555
H105_6 C167_6 1_555 1_555
H107_6 C169_6 1_555 1_555
H122_6 C183_6 1_555 1_555
C195_6 C184_6 1_555 1_555
C196_6 C184_6 1_555 1_555
H123_6 C185_6 1_555 1_555
H131_6 C195_6 1_555 1_555
C203_6 C195_6 1_555 1_555
C204_6 C196_6 1_555 1_555
H132_6 C196_6 1_555 1_555
H139_6 C203_6 1_555 1_555
C210_6 C203_6 1_555 1_555
H140_6 C204_6 1_555 1_555
C121_6 C133_6 1_555 1_555
C165_6 C183_6 1_555 1_555
C169_6 C185_6 1_555 1_555
C204_6 C210_6 1_555 1_555
O7 C216_6 1_555 1_555
O48_6 C216_6 1_555 1_555
Zn12 O1_6 1_555 1_555
O1_6 Zn16_3 1_555 1_555
O2_6 Zn12 1_555 1_555
O3_6 Zn12 1_555 1_555
Zn16_3 O5_6 1_555 1_555
Zn8 O1_6 1_555 1_555
C1_6 O2_6 1_555 1_555
C2_6 O3_6 1_555 1_555
O5_6 C1_6 1_555 1_555
O6_6 Zn16_3 1_555 1_555
C3_6 C1_6 1_555 1_555
C4_6 C2_6 1_555 1_555
C5_6 C3_6 1_555 1_555
C6_6 C3_6 1_555 1_555
C7_6 C4_6 1_555 1_555
C8_6 C4_6 1_555 1_555
C9_6 C5_6 1_555 1_555
H1_6 C5_6 1_555 1_555
H2_6 C6_6 1_555 1_555
C10_6 C6_6 1_555 1_555
C11_6 C7_6 1_555 1_555
H3_6 C7_6 1_555 1_555
H4_6 C8_6 1_555 1_555
C12_6 C8_6 1_555 1_555
C13_6 C9_6 1_555 1_555
H5_6 C9_6 1_555 1_555
H6_6 C10_6 1_555 1_555
C14_6 C11_6 1_555 1_555
H7_6 C11_6 1_555 1_555
H8_6 C12_6 1_555 1_555
C15_6 C13_6 1_555 1_555
C16_6 C14_6 1_555 1_555
H9_6 C15_6 1_555 1_555
H10_6 C15_6 1_555 1_555
O9_6 C15_6 1_555 1_555
H12_6 C16_6 1_555 1_555
O10_6 C16_6 1_555 1_555
C17_6 O9_6 1_555 1_555
C19_6 C17_6 1_555 1_555
C20_6 C17_6 1_555 1_555
H13_6 C19_6 1_555 1_555
C23_6 C19_6 1_555 1_555
C24_6 C20_6 1_555 1_555
C25_6 C20_6 1_555 1_555
H15_6 C23_6 1_555 1_555
C29_6 C23_6 1_555 1_555
C30_6 C24_6 1_555 1_555
H16_6 C25_6 1_555 1_555
C31_6 C25_6 1_555 1_555
C32_6 C25_6 1_555 1_555
H18_6 C28_6 1_555 1_555
C35_6 C28_6 1_555 1_555
C36_6 C28_6 1_555 1_555
O11_6 C29_6 1_555 1_555
H19_6 C30_6 1_555 1_555
C37_6 C30_6 1_555 1_555
C38_6 C30_6 1_555 1_555
C39_6 C31_6 1_555 1_555
C40_6 C32_6 1_555 1_555
C43_6 C35_6 1_555 1_555
C44_6 C36_6 1_555 1_555
C45_6 O11_6 1_555 1_555
C46_6 C37_6 1_555 1_555
C47_6 C38_6 1_555 1_555
C48_6 C39_6 1_555 1_555
H21_6 C39_6 1_555 1_555
H22_6 C40_6 1_555 1_555
C52_6 C42_6 1_555 1_555
H23_6 C43_6 1_555 1_555
H24_6 C44_6 1_555 1_555
C54_6 C44_6 1_555 1_555
H25_6 C45_6 1_555 1_555
H26_6 C45_6 1_555 1_555
C55_6 C45_6 1_555 1_555
H27_6 C46_6 1_555 1_555
C56_6 C46_6 1_555 1_555
H29_6 C48_6 1_555 1_555
C60_6 C52_6 1_555 1_555
H36_6 C54_6 1_555 1_555
C61_6 C55_6 1_555 1_555
C62_6 C55_6 1_555 1_555
H37_6 C56_6 1_555 1_555
H40_6 C60_6 1_555 1_555
H41_6 C61_6 1_555 1_555
C65_6 C61_6 1_555 1_555
C66_6 C62_6 1_555 1_555
H42_6 C62_6 1_555 1_555
H45_6 C65_6 1_555 1_555
C69_6 C65_6 1_555 1_555
H46_6 C66_6 1_555 1_555
C71_6 C69_6 1_555 1_555
O14_6 Zn8 1_555 1_555
O15_6 Zn8 1_555 1_555
Zn9 O14_6 1_555 1_555
Zn13_3 O14_6 1_555 1_555
Zn15 O15_6 1_555 1_555
Zn10_3 O15_6 1_555 1_555
O18_6 Zn9 1_555 1_555
O19_6 Zn9 1_555 1_555
O21_6 Zn13_3 1_555 1_555
O22_6 Zn13_3 1_555 1_555
O24_6 Zn15 1_555 1_555
O25_6 Zn15 1_555 1_555
O27_6 Zn10_3 1_555 1_555
O28_6 Zn10_3 1_555 1_555
C73_6 O18_6 1_555 1_555
C74_6 O19_6 1_555 1_555
C75_6 O24_6 1_555 1_555
C76_6 O25_6 1_555 1_555
C77_6 C73_6 1_555 1_555
C78_6 C74_6 1_555 1_555
C79_6 C75_6 1_555 1_555
C80_6 C76_6 1_555 1_555
C81_6 C77_6 1_555 1_555
C82_6 C77_6 1_555 1_555
C83_6 C78_6 1_555 1_555
C84_6 C78_6 1_555 1_555
C85_6 C79_6 1_555 1_555
C86_6 C79_6 1_555 1_555
C87_6 C80_6 1_555 1_555
C88_6 C80_6 1_555 1_555
C89_6 C81_6 1_555 1_555
H49_6 C81_6 1_555 1_555
H50_6 C82_6 1_555 1_555
C90_6 C82_6 1_555 1_555
C91_6 C83_6 1_555 1_555
H51_6 C83_6 1_555 1_555
H52_6 C84_6 1_555 1_555
C92_6 C84_6 1_555 1_555
C93_6 C85_6 1_555 1_555
H53_6 C85_6 1_555 1_555
H54_6 C86_6 1_555 1_555
C94_6 C86_6 1_555 1_555
C95_6 C87_6 1_555 1_555
H55_6 C87_6 1_555 1_555
H56_6 C88_6 1_555 1_555
C96_6 C88_6 1_555 1_555
C97_6 C89_6 1_555 1_555
H57_6 C89_6 1_555 1_555
H58_6 C90_6 1_555 1_555
C98_6 C91_6 1_555 1_555
H59_6 C91_6 1_555 1_555
H60_6 C92_6 1_555 1_555
C99_6 C93_6 1_555 1_555
H61_6 C93_6 1_555 1_555
H62_6 C94_6 1_555 1_555
C100_6 C95_6 1_555 1_555
H63_6 C95_6 1_555 1_555
H64_6 C96_6 1_555 1_555
C101_6 C97_6 1_555 1_555
C102_6 C98_6 1_555 1_555
C103_6 C99_6 1_555 1_555
C104_6 C100_6 1_555 1_555
H65_6 C101_6 1_555 1_555
H66_6 C101_6 1_555 1_555
O30_6 C101_6 1_555 1_555
H68_6 C102_6 1_555 1_555
O31_6 C102_6 1_555 1_555
H69_6 C103_6 1_555 1_555
H70_6 C103_6 1_555 1_555
O32_6 C103_6 1_555 1_555
H71_6 C104_6 1_555 1_555
H72_6 C104_6 1_555 1_555
O33_6 C104_6 1_555 1_555
C105_6 O30_6 1_555 1_555
C107_6 O32_6 1_555 1_555
C108_6 O33_6 1_555 1_555
C109_6 C105_6 1_555 1_555
C110_6 C105_6 1_555 1_555
C113_6 C107_6 1_555 1_555
C114_6 C107_6 1_555 1_555
C115_6 C108_6 1_555 1_555
C116_6 C108_6 1_555 1_555
H73_6 C109_6 1_555 1_555
C117_6 C109_6 1_555 1_555
C118_6 C110_6 1_555 1_555
C119_6 C110_6 1_555 1_555
H75_6 C113_6 1_555 1_555
C123_6 C113_6 1_555 1_555
C124_6 C114_6 1_555 1_555
C125_6 C114_6 1_555 1_555
C126_6 C115_6 1_555 1_555
H76_6 C115_6 1_555 1_555
C127_6 C116_6 1_555 1_555
C128_6 C116_6 1_555 1_555
H77_6 C117_6 1_555 1_555
C129_6 C117_6 1_555 1_555
C130_6 C118_6 1_555 1_555
H78_6 C119_6 1_555 1_555
C131_6 C119_6 1_555 1_555
C132_6 C119_6 1_555 1_555
H80_6 C122_6 1_555 1_555
C135_6 C122_6 1_555 1_555
C136_6 C122_6 1_555 1_555
H81_6 C123_6 1_555 1_555
C137_6 C123_6 1_555 1_555
C138_6 C124_6 1_555 1_555
H82_6 C125_6 1_555 1_555
C139_6 C125_6 1_555 1_555
C140_6 C125_6 1_555 1_555
C141_6 C126_6 1_555 1_555
H83_6 C126_6 1_555 1_555
C142_6 C127_6 1_555 1_555
H84_6 C128_6 1_555 1_555
C143_6 C128_6 1_555 1_555
C144_6 C128_6 1_555 1_555
O34_6 C129_6 1_555 1_555
H85_6 C130_6 1_555 1_555
C145_6 C130_6 1_555 1_555
C146_6 C130_6 1_555 1_555
C147_6 C131_6 1_555 1_555
C148_6 C132_6 1_555 1_555
C151_6 C135_6 1_555 1_555
C152_6 C136_6 1_555 1_555
O36_6 C137_6 1_555 1_555
H87_6 C138_6 1_555 1_555
C153_6 C138_6 1_555 1_555
C154_6 C138_6 1_555 1_555
C155_6 C139_6 1_555 1_555
C156_6 C140_6 1_555 1_555
O37_6 C141_6 1_555 1_555
H88_6 C142_6 1_555 1_555
C157_6 C142_6 1_555 1_555
C158_6 C142_6 1_555 1_555
C159_6 C143_6 1_555 1_555
C160_6 C144_6 1_555 1_555
C161_6 O34_6 1_555 1_555
C162_6 C145_6 1_555 1_555
C163_6 C146_6 1_555 1_555
C164_6 C147_6 1_555 1_555
H89_6 C147_6 1_555 1_555
H90_6 C148_6 1_555 1_555
C168_6 C150_6 1_555 1_555
H91_6 C151_6 1_555 1_555
H92_6 C152_6 1_555 1_555
C170_6 C152_6 1_555 1_555
C171_6 O36_6 1_555 1_555
C172_6 C153_6 1_555 1_555
C173_6 C154_6 1_555 1_555
C174_6 C155_6 1_555 1_555
H93_6 C155_6 1_555 1_555
C175_6 C156_6 1_555 1_555
H94_6 C156_6 1_555 1_555
C176_6 O37_6 1_555 1_555
C177_6 C157_6 1_555 1_555
C178_6 C158_6 1_555 1_555
H95_6 C159_6 1_555 1_555
C179_6 C159_6 1_555 1_555
H96_6 C160_6 1_555 1_555
C180_6 C160_6 1_555 1_555
H97_6 C161_6 1_555 1_555
H98_6 C161_6 1_555 1_555
C181_6 C161_6 1_555 1_555
H99_6 C162_6 1_555 1_555
C182_6 C162_6 1_555 1_555
H101_6 C164_6 1_555 1_555
C186_6 C168_6 1_555 1_555
H108_6 C170_6 1_555 1_555
H109_6 C171_6 1_555 1_555
H110_6 C171_6 1_555 1_555
C187_6 C171_6 1_555 1_555
H111_6 C172_6 1_555 1_555
C188_6 C172_6 1_555 1_555
H112_6 C173_6 1_555 1_555
C189_6 C173_6 1_555 1_555
H113_6 C174_6 1_555 1_555
H114_6 C175_6 1_555 1_555
H115_6 C176_6 1_555 1_555
H116_6 C176_6 1_555 1_555
C190_6 C176_6 1_555 1_555
C191_6 C177_6 1_555 1_555
H117_6 C177_6 1_555 1_555
C192_6 C178_6 1_555 1_555
H118_6 C178_6 1_555 1_555
H119_6 C179_6 1_555 1_555
H120_6 C180_6 1_555 1_555
C193_6 C181_6 1_555 1_555
C194_6 C181_6 1_555 1_555
H121_6 C182_6 1_555 1_555
H124_6 C186_6 1_555 1_555
C197_6 C187_6 1_555 1_555
C198_6 C187_6 1_555 1_555
H125_6 C188_6 1_555 1_555
H126_6 C189_6 1_555 1_555
C199_6 C190_6 1_555 1_555
C200_6 C190_6 1_555 1_555
H127_6 C191_6 1_555 1_555
H128_6 C192_6 1_555 1_555
O8_3 C71_6 1_555 1_555
H129_6 C193_6 1_555 1_555
C201_6 C193_6 1_555 1_555
C202_6 C194_6 1_555 1_555
H130_6 C194_6 1_555 1_555
H133_6 C197_6 1_555 1_555
C205_6 C197_6 1_555 1_555
C206_6 C198_6 1_555 1_555
H134_6 C198_6 1_555 1_555
H135_6 C199_6 1_555 1_555
C207_6 C199_6 1_555 1_555
C208_6 C200_6 1_555 1_555
H136_6 C200_6 1_555 1_555
H137_6 C201_6 1_555 1_555
C209_6 C201_6 1_555 1_555
H138_6 C202_6 1_555 1_555
H141_6 C205_6 1_555 1_555
C211_6 C205_6 1_555 1_555
H142_6 C206_6 1_555 1_555
H143_6 C207_6 1_555 1_555
C212_6 C207_6 1_555 1_555
H144_6 C208_6 1_555 1_555
C213_6 C209_6 1_555 1_555
C215_6 C211_6 1_555 1_555
O16_3 C213_6 1_555 1_555
O17_3 C215_6 1_555 1_555
O26_3 C215_6 1_555 1_555
C2_6 O6_6 1_555 1_555
C10_6 C13_6 1_555 1_555
C12_6 C14_6 1_555 1_555
C24_6 C29_6 1_555 1_555
C31_6 C37_6 1_555 1_555
C32_6 C38_6 1_555 1_555
C36_6 C42_6 1_555 1_555
C48_6 C56_6 1_555 1_555
C54_6 C60_6 1_555 1_555
C66_6 C69_6 1_555 1_555
O21_6 C73_6 1_555 1_555
O22_6 C74_6 1_555 1_555
O27_6 C75_6 1_555 1_555
O28_6 C76_6 1_555 1_555
C90_6 C97_6 1_555 1_555
C92_6 C98_6 1_555 1_555
C94_6 C99_6 1_555 1_555
C96_6 C100_6 1_555 1_555
C118_6 C129_6 1_555 1_555
C124_6 C137_6 1_555 1_555
C127_6 C141_6 1_555 1_555
C131_6 C145_6 1_555 1_555
C132_6 C146_6 1_555 1_555
C136_6 C150_6 1_555 1_555
C139_6 C153_6 1_555 1_555
C140_6 C154_6 1_555 1_555
C143_6 C157_6 1_555 1_555
C144_6 C158_6 1_555 1_555
C164_6 C182_6 1_555 1_555
C170_6 C186_6 1_555 1_555
C174_6 C188_6 1_555 1_555
C175_6 C189_6 1_555 1_555
C179_6 C191_6 1_555 1_555
C180_6 C192_6 1_555 1_555
C202_6 C209_6 1_555 1_555
C206_6 C211_6 1_555 1_555
C208_6 C212_6 1_555 1_555
O13_6 C72_6 1_555 1_555
O29 C72_6 1_555 1_555
C21_6 C18_6 1_555 1_555
C22_6 C18_6 1_555 1_555
C26_6 C21_6 1_555 1_555
H14_6 C21_6 1_555 1_555
C27_6 C22_6 1_555 1_555
C33_6 C26_6 1_555 1_555
H17_6 C26_6 1_555 1_555
C34_6 C27_6 1_555 1_555
O12_6 C33_6 1_555 1_555
H20_6 C34_6 1_555 1_555
C41_6 C34_6 1_555 1_555
C50_6 O12_6 1_555 1_555
C51_6 C41_6 1_555 1_555
H30_6 C49_6 1_555 1_555
H31_6 C50_6 1_555 1_555
H32_6 C50_6 1_555 1_555
C58_6 C50_6 1_555 1_555
C59_6 C51_6 1_555 1_555
H33_6 C51_6 1_555 1_555
H35_6 C53_6 1_555 1_555
H38_6 C57_6 1_555 1_555
C63_6 C58_6 1_555 1_555
C64_6 C58_6 1_555 1_555
H39_6 C59_6 1_555 1_555
H43_6 C63_6 1_555 1_555
C67_6 C63_6 1_555 1_555
C68_6 C64_6 1_555 1_555
H44_6 C64_6 1_555 1_555
H47_6 C67_6 1_555 1_555
C70_6 C67_6 1_555 1_555
H48_6 C68_6 1_555 1_555
C27_6 C33_6 1_555 1_555
C49_6 C57_6 1_555 1_555
C53_6 C59_6 1_555 1_555
C68_6 C70_6 1_555 1_555
H13_7 C19_7 1_555 1_555
C23_7 C19_7 1_555 1_555
H15_7 C23_7 1_555 1_555
C29_7 C23_7 1_555 1_555
C30_7 C24_7 1_555 1_555
O11_7 C29_7 1_555 1_555
H19_7 C30_7 1_555 1_555
C38_7 C30_7 1_555 1_555
C45_7 O11_7 1_555 1_555
C47_7 C38_7 1_555 1_555
C51_7 C41_7 1_555 1_555
H23_7 C43_7 1_555 1_555
C53_7 C43_7 1_555 1_555
H25_7 C45_7 1_555 1_555
H26_7 C45_7 1_555 1_555
C55_7 C45_7 1_555 1_555
H28_7 C47_7 1_555 1_555
C57_7 C47_7 1_555 1_555
C59_7 C51_7 1_555 1_555
H33_7 C51_7 1_555 1_555
H35_7 C53_7 1_555 1_555
C61_7 C55_7 1_555 1_555
C62_7 C55_7 1_555 1_555
H38_7 C57_7 1_555 1_555
H39_7 C59_7 1_555 1_555
H41_7 C61_7 1_555 1_555
C65_7 C61_7 1_555 1_555
C66_7 C62_7 1_555 1_555
H42_7 C62_7 1_555 1_555
H45_7 C65_7 1_555 1_555
C69_7 C65_7 1_555 1_555
H46_7 C66_7 1_555 1_555
H48_7 C68_7 1_555 1_555
C71_7 C69_7 1_555 1_555
O38_4 C71_7 1_555 1_555
O39_4 C71_7 1_555 1_555
O40_4 C72_7 1_555 1_555
Zn8_4 O38_4 1_555 1_555
Zn9_4 O39_4 1_555 1_555
Zn10_4 O40_4 1_555 1_555
C24_7 C29_7 1_555 1_555
C53_7 C59_7 1_555 1_555
C66_7 C69_7 1_555 1_555
Zn1_4 O1_7 1_555 1_555
O1_7 Zn2_4 1_555 1_555
O2_7 Zn1_4 1_555 1_555
O3_7 Zn1_4 1_555 1_555
O4_4 Zn1_4 1_555 1_555
Zn2_4 O5_7 1_555 1_555
Zn3_6 O1_7 1_555 1_555
C1_7 O2_7 1_555 1_555
C2_7 O3_7 1_555 1_555
O5_7 C1_7 1_555 1_555
O6_7 Zn2_4 1_555 1_555
O7_4 Zn2_4 1_555 1_555
O8_4 Zn3_6 1_555 1_555
C3_7 C1_7 1_555 1_555
C4_7 C2_7 1_555 1_555
C5_7 C3_7 1_555 1_555
C6_7 C3_7 1_555 1_555
C7_7 C4_7 1_555 1_555
C8_7 C4_7 1_555 1_555
C9_7 C5_7 1_555 1_555
H1_7 C5_7 1_555 1_555
H2_7 C6_7 1_555 1_555
C10_7 C6_7 1_555 1_555
C11_7 C7_7 1_555 1_555
H3_7 C7_7 1_555 1_555
H4_7 C8_7 1_555 1_555
C12_7 C8_7 1_555 1_555
C13_7 C9_7 1_555 1_555
H5_7 C9_7 1_555 1_555
H6_7 C10_7 1_555 1_555
C14_7 C11_7 1_555 1_555
H7_7 C11_7 1_555 1_555
H8_7 C12_7 1_555 1_555
C15_7 C13_7 1_555 1_555
C16_7 C14_7 1_555 1_555
H9_7 C15_7 1_555 1_555
H10_7 C15_7 1_555 1_555
O9_7 C15_7 1_555 1_555
H11_7 C16_7 1_555 1_555
H12_7 C16_7 1_555 1_555
O10_7 C16_7 1_555 1_555
C17_7 O9_7 1_555 1_555
C18_7 O10_7 1_555 1_555
C20_7 C17_7 1_555 1_555
C21_7 C18_7 1_555 1_555
C22_7 C18_7 1_555 1_555
C25_7 C20_7 1_555 1_555
C26_7 C21_7 1_555 1_555
H14_7 C21_7 1_555 1_555
C27_7 C22_7 1_555 1_555
C28_7 C22_7 1_555 1_555
H16_7 C25_7 1_555 1_555
C31_7 C25_7 1_555 1_555
C32_7 C25_7 1_555 1_555
C33_7 C26_7 1_555 1_555
H17_7 C26_7 1_555 1_555
C34_7 C27_7 1_555 1_555
H18_7 C28_7 1_555 1_555
C35_7 C28_7 1_555 1_555
C36_7 C28_7 1_555 1_555
C39_7 C31_7 1_555 1_555
C40_7 C32_7 1_555 1_555
O12_7 C33_7 1_555 1_555
H20_7 C34_7 1_555 1_555
C42_7 C34_7 1_555 1_555
C44_7 C36_7 1_555 1_555
C46_7 C37_7 1_555 1_555
C48_7 C39_7 1_555 1_555
H21_7 C39_7 1_555 1_555
C49_7 C40_7 1_555 1_555
H22_7 C40_7 1_555 1_555
C50_7 O12_7 1_555 1_555
C52_7 C42_7 1_555 1_555
H24_7 C44_7 1_555 1_555
C54_7 C44_7 1_555 1_555
H27_7 C46_7 1_555 1_555
C56_7 C46_7 1_555 1_555
H29_7 C48_7 1_555 1_555
H30_7 C49_7 1_555 1_555
H31_7 C50_7 1_555 1_555
H32_7 C50_7 1_555 1_555
C58_7 C50_7 1_555 1_555
C60_7 C52_7 1_555 1_555
H34_7 C52_7 1_555 1_555
H36_7 C54_7 1_555 1_555
H37_7 C56_7 1_555 1_555
C63_7 C58_7 1_555 1_555
C64_7 C58_7 1_555 1_555
H40_7 C60_7 1_555 1_555
H43_7 C63_7 1_555 1_555
C67_7 C63_7 1_555 1_555
H44_7 C64_7 1_555 1_555
H47_7 C67_7 1_555 1_555
C70_7 C67_7 1_555 1_555
O14_7 Zn3_6 1_555 1_555
O15_7 Zn3_6 1_555 1_555
O16_4 Zn3_6 1_555 1_555
O17_4 Zn3_6 1_555 1_555
Zn4_4 O14_7 1_555 1_555
Zn5_4 O14_7 1_555 1_555
Zn6_4 O15_7 1_555 1_555
Zn7_4 O15_7 1_555 1_555
O18_7 Zn4_4 1_555 1_555
O19_7 Zn4_4 1_555 1_555
O20_4 Zn4_4 1_555 1_555
O21_7 Zn5_4 1_555 1_555
O22_7 Zn5_4 1_555 1_555
O23_4 Zn5_4 1_555 1_555
O24_7 Zn6_4 1_555 1_555
O25_7 Zn6_4 1_555 1_555
O26_4 Zn6_4 1_555 1_555
O27_7 Zn7_4 1_555 1_555
O28_7 Zn7_4 1_555 1_555
O29_4 Zn7_4 1_555 1_555
C73_7 O18_7 1_555 1_555
C74_7 O19_7 1_555 1_555
C75_7 O24_7 1_555 1_555
C76_7 O25_7 1_555 1_555
C77_7 C73_7 1_555 1_555
C78_7 C74_7 1_555 1_555
C79_7 C75_7 1_555 1_555
C80_7 C76_7 1_555 1_555
C81_7 C77_7 1_555 1_555
C82_7 C77_7 1_555 1_555
C83_7 C78_7 1_555 1_555
C84_7 C78_7 1_555 1_555
C85_7 C79_7 1_555 1_555
C86_7 C79_7 1_555 1_555
C87_7 C80_7 1_555 1_555
C88_7 C80_7 1_555 1_555
C89_7 C81_7 1_555 1_555
H49_7 C81_7 1_555 1_555
H50_7 C82_7 1_555 1_555
C90_7 C82_7 1_555 1_555
C91_7 C83_7 1_555 1_555
H51_7 C83_7 1_555 1_555
H52_7 C84_7 1_555 1_555
C92_7 C84_7 1_555 1_555
C93_7 C85_7 1_555 1_555
H53_7 C85_7 1_555 1_555
H54_7 C86_7 1_555 1_555
C94_7 C86_7 1_555 1_555
C95_7 C87_7 1_555 1_555
H55_7 C87_7 1_555 1_555
H56_7 C88_7 1_555 1_555
C96_7 C88_7 1_555 1_555
C97_7 C89_7 1_555 1_555
H57_7 C89_7 1_555 1_555
H58_7 C90_7 1_555 1_555
C98_7 C91_7 1_555 1_555
H59_7 C91_7 1_555 1_555
H60_7 C92_7 1_555 1_555
C99_7 C93_7 1_555 1_555
H61_7 C93_7 1_555 1_555
H62_7 C94_7 1_555 1_555
C100_7 C95_7 1_555 1_555
H63_7 C95_7 1_555 1_555
H64_7 C96_7 1_555 1_555
C101_7 C97_7 1_555 1_555
C102_7 C98_7 1_555 1_555
C103_7 C99_7 1_555 1_555
C104_7 C100_7 1_555 1_555
H65_7 C101_7 1_555 1_555
H66_7 C101_7 1_555 1_555
O30_7 C101_7 1_555 1_555
H67_7 C102_7 1_555 1_555
H68_7 C102_7 1_555 1_555
O31_7 C102_7 1_555 1_555
H69_7 C103_7 1_555 1_555
H70_7 C103_7 1_555 1_555
O32_7 C103_7 1_555 1_555
H71_7 C104_7 1_555 1_555
H72_7 C104_7 1_555 1_555
O33_7 C104_7 1_555 1_555
C105_7 O30_7 1_555 1_555
C106_7 O31_7 1_555 1_555
C107_7 O32_7 1_555 1_555
C108_7 O33_7 1_555 1_555
C109_7 C105_7 1_555 1_555
C110_7 C105_7 1_555 1_555
C111_7 C106_7 1_555 1_555
C112_7 C106_7 1_555 1_555
C114_7 C107_7 1_555 1_555
C115_7 C108_7 1_555 1_555
C116_7 C108_7 1_555 1_555
H73_7 C109_7 1_555 1_555
C117_7 C109_7 1_555 1_555
C118_7 C110_7 1_555 1_555
C119_7 C110_7 1_555 1_555
C120_7 C111_7 1_555 1_555
H74_7 C111_7 1_555 1_555
C121_7 C112_7 1_555 1_555
C122_7 C112_7 1_555 1_555
C125_7 C114_7 1_555 1_555
C126_7 C115_7 1_555 1_555
H76_7 C115_7 1_555 1_555
C127_7 C116_7 1_555 1_555
C128_7 C116_7 1_555 1_555
H77_7 C117_7 1_555 1_555
C129_7 C117_7 1_555 1_555
C130_7 C118_7 1_555 1_555
H78_7 C119_7 1_555 1_555
C131_7 C119_7 1_555 1_555
C132_7 C119_7 1_555 1_555
C133_7 C120_7 1_555 1_555
H79_7 C120_7 1_555 1_555
C134_7 C121_7 1_555 1_555
H80_7 C122_7 1_555 1_555
C135_7 C122_7 1_555 1_555
C136_7 C122_7 1_555 1_555
H82_7 C125_7 1_555 1_555
C139_7 C125_7 1_555 1_555
C140_7 C125_7 1_555 1_555
C141_7 C126_7 1_555 1_555
H83_7 C126_7 1_555 1_555
C142_7 C127_7 1_555 1_555
H84_7 C128_7 1_555 1_555
C143_7 C128_7 1_555 1_555
C144_7 C128_7 1_555 1_555
O34_7 C129_7 1_555 1_555
H85_7 C130_7 1_555 1_555
C145_7 C130_7 1_555 1_555
C146_7 C130_7 1_555 1_555
C147_7 C131_7 1_555 1_555
C148_7 C132_7 1_555 1_555
O35_7 C133_7 1_555 1_555
H86_7 C134_7 1_555 1_555
C149_7 C134_7 1_555 1_555
C150_7 C134_7 1_555 1_555
C151_7 C135_7 1_555 1_555
C152_7 C136_7 1_555 1_555
C155_7 C139_7 1_555 1_555
C156_7 C140_7 1_555 1_555
O37_7 C141_7 1_555 1_555
H88_7 C142_7 1_555 1_555
C158_7 C142_7 1_555 1_555
C160_7 C144_7 1_555 1_555
C161_7 O34_7 1_555 1_555
C162_7 C145_7 1_555 1_555
C163_7 C146_7 1_555 1_555
C164_7 C147_7 1_555 1_555
H89_7 C147_7 1_555 1_555
C165_7 C148_7 1_555 1_555
H90_7 C148_7 1_555 1_555
C166_7 O35_7 1_555 1_555
C167_7 C149_7 1_555 1_555
C168_7 C150_7 1_555 1_555
H91_7 C151_7 1_555 1_555
C169_7 C151_7 1_555 1_555
H92_7 C152_7 1_555 1_555
C170_7 C152_7 1_555 1_555
C172_7 C153_7 1_555 1_555
C174_7 C155_7 1_555 1_555
H93_7 C155_7 1_555 1_555
C175_7 C156_7 1_555 1_555
H94_7 C156_7 1_555 1_555
C176_7 O37_7 1_555 1_555
C178_7 C158_7 1_555 1_555
H96_7 C160_7 1_555 1_555
C180_7 C160_7 1_555 1_555
H97_7 C161_7 1_555 1_555
H98_7 C161_7 1_555 1_555
C181_7 C161_7 1_555 1_555
H99_7 C162_7 1_555 1_555
C182_7 C162_7 1_555 1_555
H100_7 C163_7 1_555 1_555
C183_7 C163_7 1_555 1_555
H101_7 C164_7 1_555 1_555
H102_7 C165_7 1_555 1_555
H103_7 C166_7 1_555 1_555
H104_7 C166_7 1_555 1_555
C184_7 C166_7 1_555 1_555
C185_7 C167_7 1_555 1_555
H105_7 C167_7 1_555 1_555
C186_7 C168_7 1_555 1_555
H106_7 C168_7 1_555 1_555
H107_7 C169_7 1_555 1_555
H108_7 C170_7 1_555 1_555
H111_7 C172_7 1_555 1_555
C188_7 C172_7 1_555 1_555
H113_7 C174_7 1_555 1_555
H114_7 C175_7 1_555 1_555
H115_7 C176_7 1_555 1_555
H116_7 C176_7 1_555 1_555
C190_7 C176_7 1_555 1_555
C192_7 C178_7 1_555 1_555
H118_7 C178_7 1_555 1_555
H120_7 C180_7 1_555 1_555
C193_7 C181_7 1_555 1_555
C194_7 C181_7 1_555 1_555
H121_7 C182_7 1_555 1_555
H122_7 C183_7 1_555 1_555
C195_7 C184_7 1_555 1_555
C196_7 C184_7 1_555 1_555
H123_7 C185_7 1_555 1_555
H124_7 C186_7 1_555 1_555
H125_7 C188_7 1_555 1_555
C199_7 C190_7 1_555 1_555
C200_7 C190_7 1_555 1_555
H128_7 C192_7 1_555 1_555
H129_7 C193_7 1_555 1_555
C201_7 C193_7 1_555 1_555
C202_7 C194_7 1_555 1_555
H130_7 C194_7 1_555 1_555
H131_7 C195_7 1_555 1_555
C203_7 C195_7 1_555 1_555
C204_7 C196_7 1_555 1_555
H132_7 C196_7 1_555 1_555
H135_7 C199_7 1_555 1_555
C207_7 C199_7 1_555 1_555
H136_7 C200_7 1_555 1_555
H137_7 C201_7 1_555 1_555
C209_7 C201_7 1_555 1_555
H138_7 C202_7 1_555 1_555
H139_7 C203_7 1_555 1_555
C210_7 C203_7 1_555 1_555
H140_7 C204_7 1_555 1_555
H143_7 C207_7 1_555 1_555
C212_7 C207_7 1_555 1_555
C213_7 C209_7 1_555 1_555
C214_7 C210_7 1_555 1_555
O41_4 C213_7 1_555 1_555
O42_4 C213_7 1_555 1_555
O43_4 C214_7 1_555 1_555
O44_7 C214_7 1_555 1_555
Zn8_4 O41_4 1_555 1_555
Zn12_4 O42_4 1_555 1_555
Zn13_4 O43_4 1_555 1_555
C2_7 O6_7 1_555 1_555
C10_7 C13_7 1_555 1_555
C12_7 C14_7 1_555 1_555
C27_7 C33_7 1_555 1_555
C31_7 C37_7 1_555 1_555
C36_7 C42_7 1_555 1_555
C48_7 C56_7 1_555 1_555
C54_7 C60_7 1_555 1_555
O21_7 C73_7 1_555 1_555
O22_7 C74_7 1_555 1_555
O27_7 C75_7 1_555 1_555
O28_7 C76_7 1_555 1_555
C90_7 C97_7 1_555 1_555
C92_7 C98_7 1_555 1_555
C94_7 C99_7 1_555 1_555
C96_7 C100_7 1_555 1_555
C118_7 C129_7 1_555 1_555
C121_7 C133_7 1_555 1_555
C127_7 C141_7 1_555 1_555
C131_7 C145_7 1_555 1_555
C132_7 C146_7 1_555 1_555
C135_7 C149_7 1_555 1_555
C136_7 C150_7 1_555 1_555
C139_7 C153_7 1_555 1_555
C144_7 C158_7 1_555 1_555
C164_7 C182_7 1_555 1_555
C165_7 C183_7 1_555 1_555
C169_7 C185_7 1_555 1_555
C170_7 C186_7 1_555 1_555
C174_7 C188_7 1_555 1_555
C180_7 C192_7 1_555 1_555
C202_7 C209_7 1_555 1_555
C204_7 C210_7 1_555 1_555
H75_7 C113_7 1_555 1_555
C123_7 C113_7 1_555 1_555
H81_7 C123_7 1_555 1_555
C137_7 C123_7 1_555 1_555
C138_7 C124_7 1_555 1_555
O36_7 C137_7 1_555 1_555
H87_7 C138_7 1_555 1_555
C154_7 C138_7 1_555 1_555
C171_7 O36_7 1_555 1_555
C173_7 C154_7 1_555 1_555
C177_7 C157_7 1_555 1_555
H95_7 C159_7 1_555 1_555
C179_7 C159_7 1_555 1_555
H109_7 C171_7 1_555 1_555
H110_7 C171_7 1_555 1_555
C187_7 C171_7 1_555 1_555
H112_7 C173_7 1_555 1_555
C189_7 C173_7 1_555 1_555
C191_7 C177_7 1_555 1_555
H117_7 C177_7 1_555 1_555
H119_7 C179_7 1_555 1_555
C197_7 C187_7 1_555 1_555
C198_7 C187_7 1_555 1_555
H126_7 C189_7 1_555 1_555
H127_7 C191_7 1_555 1_555
H133_7 C197_7 1_555 1_555
C205_7 C197_7 1_555 1_555
C206_7 C198_7 1_555 1_555
H134_7 C198_7 1_555 1_555
H141_7 C205_7 1_555 1_555
C211_7 C205_7 1_555 1_555
H142_7 C206_7 1_555 1_555
H144_7 C208_7 1_555 1_555
C215_7 C211_7 1_555 1_555
O45_4 C215_7 1_555 1_555
O46_4 C215_7 1_555 1_555
O47_4 C216_7 1_555 1_555
Zn8_4 O45_4 1_555 1_555
Zn15_4 O46_4 1_555 1_555
Zn16_4 O47_4 1_555 1_555
C124_7 C137_7 1_555 1_555
C179_7 C191_7 1_555 1_555
C206_7 C211_7 1_555 1_555
Zn1_5 O1_8 1_555 1_555
O1_8 Zn2_5 1_555 1_555
O2_8 Zn1_5 1_555 1_555
O3_8 Zn1_5 1_555 1_555
O4_5 Zn1_5 1_555 1_555
Zn2_5 O5_8 1_555 1_555
C1_8 O2_8 1_555 1_555
C2_8 O3_8 1_555 1_555
O5_8 C1_8 1_555 1_555
O6_8 Zn2_5 1_555 1_555
O7_5 Zn2_5 1_555 1_555
C3_8 C1_8 1_555 1_555
C4_8 C2_8 1_555 1_555
C5_8 C3_8 1_555 1_555
C6_8 C3_8 1_555 1_555
C7_8 C4_8 1_555 1_555
C8_8 C4_8 1_555 1_555
C9_8 C5_8 1_555 1_555
H1_8 C5_8 1_555 1_555
H2_8 C6_8 1_555 1_555
C10_8 C6_8 1_555 1_555
C11_8 C7_8 1_555 1_555
H3_8 C7_8 1_555 1_555
H4_8 C8_8 1_555 1_555
C12_8 C8_8 1_555 1_555
C13_8 C9_8 1_555 1_555
H5_8 C9_8 1_555 1_555
H6_8 C10_8 1_555 1_555
C14_8 C11_8 1_555 1_555
H7_8 C11_8 1_555 1_555
H8_8 C12_8 1_555 1_555
C15_8 C13_8 1_555 1_555
C16_8 C14_8 1_555 1_555
H9_8 C15_8 1_555 1_555
H10_8 C15_8 1_555 1_555
O9_8 C15_8 1_555 1_555
H11_8 C16_8 1_555 1_555
H12_8 C16_8 1_555 1_555
O10_8 C16_8 1_555 1_555
C17_8 O9_8 1_555 1_555
C18_8 O10_8 1_555 1_555
C19_8 C17_8 1_555 1_555
C20_8 C17_8 1_555 1_555
C21_8 C18_8 1_555 1_555
C22_8 C18_8 1_555 1_555
H13_8 C19_8 1_555 1_555
C23_8 C19_8 1_555 1_555
C24_8 C20_8 1_555 1_555
C25_8 C20_8 1_555 1_555
C26_8 C21_8 1_555 1_555
H14_8 C21_8 1_555 1_555
C27_8 C22_8 1_555 1_555
C28_8 C22_8 1_555 1_555
H15_8 C23_8 1_555 1_555
C29_8 C23_8 1_555 1_555
C30_8 C24_8 1_555 1_555
H16_8 C25_8 1_555 1_555
C31_8 C25_8 1_555 1_555
C32_8 C25_8 1_555 1_555
C33_8 C26_8 1_555 1_555
H17_8 C26_8 1_555 1_555
C34_8 C27_8 1_555 1_555
H18_8 C28_8 1_555 1_555
C35_8 C28_8 1_555 1_555
C36_8 C28_8 1_555 1_555
O11_8 C29_8 1_555 1_555
H19_8 C30_8 1_555 1_555
C37_8 C30_8 1_555 1_555
C38_8 C30_8 1_555 1_555
C39_8 C31_8 1_555 1_555
C40_8 C32_8 1_555 1_555
O12_8 C33_8 1_555 1_555
H20_8 C34_8 1_555 1_555
C41_8 C34_8 1_555 1_555
C42_8 C34_8 1_555 1_555
C43_8 C35_8 1_555 1_555
C44_8 C36_8 1_555 1_555
C45_8 O11_8 1_555 1_555
C46_8 C37_8 1_555 1_555
C47_8 C38_8 1_555 1_555
C48_8 C39_8 1_555 1_555
H21_8 C39_8 1_555 1_555
C49_8 C40_8 1_555 1_555
H22_8 C40_8 1_555 1_555
C50_8 O12_8 1_555 1_555
C51_8 C41_8 1_555 1_555
C52_8 C42_8 1_555 1_555
H23_8 C43_8 1_555 1_555
C53_8 C43_8 1_555 1_555
H24_8 C44_8 1_555 1_555
C54_8 C44_8 1_555 1_555
H25_8 C45_8 1_555 1_555
H26_8 C45_8 1_555 1_555
C55_8 C45_8 1_555 1_555
H27_8 C46_8 1_555 1_555
C56_8 C46_8 1_555 1_555
H28_8 C47_8 1_555 1_555
C57_8 C47_8 1_555 1_555
H29_8 C48_8 1_555 1_555
H30_8 C49_8 1_555 1_555
H31_8 C50_8 1_555 1_555
H32_8 C50_8 1_555 1_555
C58_8 C50_8 1_555 1_555
C59_8 C51_8 1_555 1_555
H33_8 C51_8 1_555 1_555
C60_8 C52_8 1_555 1_555
H34_8 C52_8 1_555 1_555
H35_8 C53_8 1_555 1_555
H36_8 C54_8 1_555 1_555
C61_8 C55_8 1_555 1_555
C62_8 C55_8 1_555 1_555
H37_8 C56_8 1_555 1_555
H38_8 C57_8 1_555 1_555
C63_8 C58_8 1_555 1_555
C64_8 C58_8 1_555 1_555
H39_8 C59_8 1_555 1_555
H40_8 C60_8 1_555 1_555
H41_8 C61_8 1_555 1_555
C65_8 C61_8 1_555 1_555
C66_8 C62_8 1_555 1_555
H42_8 C62_8 1_555 1_555
H43_8 C63_8 1_555 1_555
C67_8 C63_8 1_555 1_555
C68_8 C64_8 1_555 1_555
H44_8 C64_8 1_555 1_555
H45_8 C65_8 1_555 1_555
C69_8 C65_8 1_555 1_555
H46_8 C66_8 1_555 1_555
H47_8 C67_8 1_555 1_555
C70_8 C67_8 1_555 1_555
H48_8 C68_8 1_555 1_555
C71_8 C69_8 1_555 1_555
C72_8 C70_8 1_555 1_555
O13_8 C72_8 1_555 1_555
O38_5 C71_8 1_555 1_555
O39_5 C71_8 1_555 1_555
O40_5 C72_8 1_555 1_555
Zn8_5 O38_5 1_555 1_555
Zn9_5 O39_5 1_555 1_555
Zn10_5 O40_5 1_555 1_555
C2_8 O6_8 1_555 1_555
C10_8 C13_8 1_555 1_555
C12_8 C14_8 1_555 1_555
C24_8 C29_8 1_555 1_555
C27_8 C33_8 1_555 1_555
C31_8 C37_8 1_555 1_555
C32_8 C38_8 1_555 1_555
C35_8 C41_8 1_555 1_555
C36_8 C42_8 1_555 1_555
C48_8 C56_8 1_555 1_555
C49_8 C57_8 1_555 1_555
C53_8 C59_8 1_555 1_555
C54_8 C60_8 1_555 1_555
C66_8 C69_8 1_555 1_555
C68_8 C70_8 1_555 1_555
Zn4_5 O14_8 1_555 1_555
O18_8 Zn4_5 1_555 1_555
O19_8 Zn4_5 1_555 1_555
O20_5 Zn4_5 1_555 1_555
C73_8 O18_8 1_555 1_555
C77_8 C73_8 1_555 1_555
C81_8 C77_8 1_555 1_555
C82_8 C77_8 1_555 1_555
C89_8 C81_8 1_555 1_555
H49_8 C81_8 1_555 1_555
H50_8 C82_8 1_555 1_555
C90_8 C82_8 1_555 1_555
C97_8 C89_8 1_555 1_555
H57_8 C89_8 1_555 1_555
H58_8 C90_8 1_555 1_555
C101_8 C97_8 1_555 1_555
H65_8 C101_8 1_555 1_555
H66_8 C101_8 1_555 1_555
O30_8 C101_8 1_555 1_555
C105_8 O30_8 1_555 1_555
C109_8 C105_8 1_555 1_555
C110_8 C105_8 1_555 1_555
H73_8 C109_8 1_555 1_555
C117_8 C109_8 1_555 1_555
C118_8 C110_8 1_555 1_555
C119_8 C110_8 1_555 1_555
H77_8 C117_8 1_555 1_555
C129_8 C117_8 1_555 1_555
C130_8 C118_8 1_555 1_555
H78_8 C119_8 1_555 1_555
C131_8 C119_8 1_555 1_555
C132_8 C119_8 1_555 1_555
O34_8 C129_8 1_555 1_555
H85_8 C130_8 1_555 1_555
C145_8 C130_8 1_555 1_555
C146_8 C130_8 1_555 1_555
C147_8 C131_8 1_555 1_555
C161_8 O34_8 1_555 1_555
C162_8 C145_8 1_555 1_555
C163_8 C146_8 1_555 1_555
C164_8 C147_8 1_555 1_555
H89_8 C147_8 1_555 1_555
H91_8 C151_8 1_555 1_555
C169_8 C151_8 1_555 1_555
H97_8 C161_8 1_555 1_555
H98_8 C161_8 1_555 1_555
C181_8 C161_8 1_555 1_555
H99_8 C162_8 1_555 1_555
C182_8 C162_8 1_555 1_555
H100_8 C163_8 1_555 1_555
H101_8 C164_8 1_555 1_555
C185_8 C167_8 1_555 1_555
H107_8 C169_8 1_555 1_555
C193_8 C181_8 1_555 1_555
C194_8 C181_8 1_555 1_555
H121_8 C182_8 1_555 1_555
H123_8 C185_8 1_555 1_555
H129_8 C193_8 1_555 1_555
C201_8 C193_8 1_555 1_555
C202_8 C194_8 1_555 1_555
H130_8 C194_8 1_555 1_555
H137_8 C201_8 1_555 1_555
C209_8 C201_8 1_555 1_555
H138_8 C202_8 1_555 1_555
C213_8 C209_8 1_555 1_555
O41_5 C213_8 1_555 1_555
O42_5 C213_8 1_555 1_555
Zn8_5 O41_5 1_555 1_555
Zn12_5 O42_5 1_555 1_555
O21_8 C73_8 1_555 1_555
C90_8 C97_8 1_555 1_555
C118_8 C129_8 1_555 1_555
C131_8 C145_8 1_555 1_555
C132_8 C146_8 1_555 1_555
C164_8 C182_8 1_555 1_555
C169_8 C185_8 1_555 1_555
C202_8 C209_8 1_555 1_555
O16_5 Zn3_7 1_555 1_555
O28_8 Zn7_5 1_555 1_555
O29_5 Zn7_5 1_555 1_555
C80_8 C76_8 1_555 1_555
C87_8 C80_8 1_555 1_555
C88_8 C80_8 1_555 1_555
C95_8 C87_8 1_555 1_555
H55_8 C87_8 1_555 1_555
H56_8 C88_8 1_555 1_555
C96_8 C88_8 1_555 1_555
C100_8 C95_8 1_555 1_555
H63_8 C95_8 1_555 1_555
H64_8 C96_8 1_555 1_555
C104_8 C100_8 1_555 1_555
H71_8 C104_8 1_555 1_555
H72_8 C104_8 1_555 1_555
O33_8 C104_8 1_555 1_555
C108_8 O33_8 1_555 1_555
C115_8 C108_8 1_555 1_555
C116_8 C108_8 1_555 1_555
C126_8 C115_8 1_555 1_555
H76_8 C115_8 1_555 1_555
C127_8 C116_8 1_555 1_555
C128_8 C116_8 1_555 1_555
C141_8 C126_8 1_555 1_555
H83_8 C126_8 1_555 1_555
C142_8 C127_8 1_555 1_555
H84_8 C128_8 1_555 1_555
C143_8 C128_8 1_555 1_555
C144_8 C128_8 1_555 1_555
O37_8 C141_8 1_555 1_555
H88_8 C142_8 1_555 1_555
C157_8 C142_8 1_555 1_555
C158_8 C142_8 1_555 1_555
C160_8 C144_8 1_555 1_555
C175_8 C156_8 1_555 1_555
H94_8 C156_8 1_555 1_555
C176_8 O37_8 1_555 1_555
C178_8 C158_8 1_555 1_555
H96_8 C160_8 1_555 1_555
C180_8 C160_8 1_555 1_555
H114_8 C175_8 1_555 1_555
H115_8 C176_8 1_555 1_555
H116_8 C176_8 1_555 1_555
C190_8 C176_8 1_555 1_555
C192_8 C178_8 1_555 1_555
H118_8 C178_8 1_555 1_555
H120_8 C180_8 1_555 1_555
H126_8 C189_8 1_555 1_555
C199_8 C190_8 1_555 1_555
C200_8 C190_8 1_555 1_555
H128_8 C192_8 1_555 1_555
H135_8 C199_8 1_555 1_555
C207_8 C199_8 1_555 1_555
C208_8 C200_8 1_555 1_555
H136_8 C200_8 1_555 1_555
H143_8 C207_8 1_555 1_555
C212_8 C207_8 1_555 1_555
H144_8 C208_8 1_555 1_555
C216_8 C212_8 1_555 1_555
O47_5 C216_8 1_555 1_555
O48_8 C216_8 1_555 1_555
Zn16_5 O47_5 1_555 1_555
O28_8 C76_8 1_555 1_555
C96_8 C100_8 1_555 1_555
C127_8 C141_8 1_555 1_555
C143_8 C157_8 1_555 1_555
C144_8 C158_8 1_555 1_555
C175_8 C189_8 1_555 1_555
C180_8 C192_8 1_555 1_555
C208_8 C212_8 1_555 1_555
Zn6_5 O15_8 1_555 1_555
O22_8 Zn5_5 1_555 1_555
O23_5 Zn5_5 1_555 1_555
O24_8 Zn6_5 1_555 1_555
O25_8 Zn6_5 1_555 1_555
O26_5 Zn6_5 1_555 1_555
C75_8 O24_8 1_555 1_555
C78_8 C74_8 1_555 1_555
C79_8 C75_8 1_555 1_555
C83_8 C78_8 1_555 1_555
C84_8 C78_8 1_555 1_555
C85_8 C79_8 1_555 1_555
C86_8 C79_8 1_555 1_555
C91_8 C83_8 1_555 1_555
H51_8 C83_8 1_555 1_555
H52_8 C84_8 1_555 1_555
C92_8 C84_8 1_555 1_555
C93_8 C85_8 1_555 1_555
H53_8 C85_8 1_555 1_555
H54_8 C86_8 1_555 1_555
C94_8 C86_8 1_555 1_555
C98_8 C91_8 1_555 1_555
H59_8 C91_8 1_555 1_555
H60_8 C92_8 1_555 1_555
C99_8 C93_8 1_555 1_555
H61_8 C93_8 1_555 1_555
H62_8 C94_8 1_555 1_555
C102_8 C98_8 1_555 1_555
C103_8 C99_8 1_555 1_555
H67_8 C102_8 1_555 1_555
H68_8 C102_8 1_555 1_555
O31_8 C102_8 1_555 1_555
H69_8 C103_8 1_555 1_555
H70_8 C103_8 1_555 1_555
O32_8 C103_8 1_555 1_555
C106_8 O31_8 1_555 1_555
C107_8 O32_8 1_555 1_555
C111_8 C106_8 1_555 1_555
C112_8 C106_8 1_555 1_555
C113_8 C107_8 1_555 1_555
C114_8 C107_8 1_555 1_555
C120_8 C111_8 1_555 1_555
H74_8 C111_8 1_555 1_555
C121_8 C112_8 1_555 1_555
C122_8 C112_8 1_555 1_555
H75_8 C113_8 1_555 1_555
C123_8 C113_8 1_555 1_555
C124_8 C114_8 1_555 1_555
C125_8 C114_8 1_555 1_555
C133_8 C120_8 1_555 1_555
H79_8 C120_8 1_555 1_555
C134_8 C121_8 1_555 1_555
H80_8 C122_8 1_555 1_555
C135_8 C122_8 1_555 1_555
C136_8 C122_8 1_555 1_555
H81_8 C123_8 1_555 1_555
C137_8 C123_8 1_555 1_555
C138_8 C124_8 1_555 1_555
H82_8 C125_8 1_555 1_555
C139_8 C125_8 1_555 1_555
C140_8 C125_8 1_555 1_555
O35_8 C133_8 1_555 1_555
H86_8 C134_8 1_555 1_555
C149_8 C134_8 1_555 1_555
C150_8 C134_8 1_555 1_555
C152_8 C136_8 1_555 1_555
O36_8 C137_8 1_555 1_555
H87_8 C138_8 1_555 1_555
C153_8 C138_8 1_555 1_555
C154_8 C138_8 1_555 1_555
C155_8 C139_8 1_555 1_555
C165_8 C148_8 1_555 1_555
H90_8 C148_8 1_555 1_555
C166_8 O35_8 1_555 1_555
C168_8 C150_8 1_555 1_555
H92_8 C152_8 1_555 1_555
C170_8 C152_8 1_555 1_555
C171_8 O36_8 1_555 1_555
C172_8 C153_8 1_555 1_555
C173_8 C154_8 1_555 1_555
C174_8 C155_8 1_555 1_555
H93_8 C155_8 1_555 1_555
H95_8 C159_8 1_555 1_555
C179_8 C159_8 1_555 1_555
H102_8 C165_8 1_555 1_555
H103_8 C166_8 1_555 1_555
H104_8 C166_8 1_555 1_555
C184_8 C166_8 1_555 1_555
C186_8 C168_8 1_555 1_555
H106_8 C168_8 1_555 1_555
H108_8 C170_8 1_555 1_555
H109_8 C171_8 1_555 1_555
H110_8 C171_8 1_555 1_555
C187_8 C171_8 1_555 1_555
H111_8 C172_8 1_555 1_555
C188_8 C172_8 1_555 1_555
H112_8 C173_8 1_555 1_555
H113_8 C174_8 1_555 1_555
C191_8 C177_8 1_555 1_555
H119_8 C179_8 1_555 1_555
H122_8 C183_8 1_555 1_555
C195_8 C184_8 1_555 1_555
C196_8 C184_8 1_555 1_555
H124_8 C186_8 1_555 1_555
C197_8 C187_8 1_555 1_555
C198_8 C187_8 1_555 1_555
H125_8 C188_8 1_555 1_555
H127_8 C191_8 1_555 1_555
H131_8 C195_8 1_555 1_555
C203_8 C195_8 1_555 1_555
C204_8 C196_8 1_555 1_555
H132_8 C196_8 1_555 1_555
H133_8 C197_8 1_555 1_555
C205_8 C197_8 1_555 1_555
C206_8 C198_8 1_555 1_555
H134_8 C198_8 1_555 1_555
H139_8 C203_8 1_555 1_555
C210_8 C203_8 1_555 1_555
H140_8 C204_8 1_555 1_555
H141_8 C205_8 1_555 1_555
C211_8 C205_8 1_555 1_555
H142_8 C206_8 1_555 1_555
C214_8 C210_8 1_555 1_555
C215_8 C211_8 1_555 1_555
O43_5 C214_8 1_555 1_555
O44_8 C214_8 1_555 1_555
O45_5 C215_8 1_555 1_555
O46_5 C215_8 1_555 1_555
Zn13_5 O43_5 1_555 1_555
Zn8_5 O45_5 1_555 1_555
Zn15_5 O46_5 1_555 1_555
O22_8 C74_8 1_555 1_555
O27_8 C75_8 1_555 1_555
C92_8 C98_8 1_555 1_555
C94_8 C99_8 1_555 1_555
C121_8 C133_8 1_555 1_555
C124_8 C137_8 1_555 1_555
C135_8 C149_8 1_555 1_555
C136_8 C150_8 1_555 1_555
C139_8 C153_8 1_555 1_555
C140_8 C154_8 1_555 1_555
C165_8 C183_8 1_555 1_555
C170_8 C186_8 1_555 1_555
C174_8 C188_8 1_555 1_555
C179_8 C191_8 1_555 1_555
C204_8 C210_8 1_555 1_555
C206_8 C211_8 1_555 1_555
O1_8 Zn3_8 1_555 1_555
O8_5 Zn3_8 1_555 1_555
Zn3_9 O15_8 1_555 1_555
O17_5 Zn3_9 1_555 1_555
C21_9 C18_9 1_555 1_555
C22_9 C18_9 1_555 1_555
C26_9 C21_9 1_555 1_555
H14_9 C21_9 1_555 1_555
C27_9 C22_9 1_555 1_555
C33_9 C26_9 1_555 1_555
H17_9 C26_9 1_555 1_555
C34_9 C27_9 1_555 1_555
O12_9 C33_9 1_555 1_555
H20_9 C34_9 1_555 1_555
C41_9 C34_9 1_555 1_555
C50_9 O12_9 1_555 1_555
C51_9 C41_9 1_555 1_555
H30_9 C49_9 1_555 1_555
H31_9 C50_9 1_555 1_555
H32_9 C50_9 1_555 1_555
C58_9 C50_9 1_555 1_555
C59_9 C51_9 1_555 1_555
H33_9 C51_9 1_555 1_555
H35_9 C53_9 1_555 1_555
H38_9 C57_9 1_555 1_555
C63_9 C58_9 1_555 1_555
C64_9 C58_9 1_555 1_555
H39_9 C59_9 1_555 1_555
H43_9 C63_9 1_555 1_555
C67_9 C63_9 1_555 1_555
C68_9 C64_9 1_555 1_555
H44_9 C64_9 1_555 1_555
H47_9 C67_9 1_555 1_555
C70_9 C67_9 1_555 1_555
H48_9 C68_9 1_555 1_555
Zn9_6 O39_6 1_555 1_555
C27_9 C33_9 1_555 1_555
C49_9 C57_9 1_555 1_555
C53_9 C59_9 1_555 1_555
C68_9 C70_9 1_555 1_555
O13_9 C72_9 1_555 1_555
O40_6 C72_9 1_555 1_555
Zn10_6 O40_6 1_555 1_555
Zn1_6 O1_9 1_555 1_555
O1_9 Zn2_6 1_555 1_555
O2_9 Zn1_6 1_555 1_555
O3_9 Zn1_6 1_555 1_555
O4_6 Zn1_6 1_555 1_555
Zn2_6 O5_9 1_555 1_555
Zn3_10 O1_9 1_555 1_555
C1_9 O2_9 1_555 1_555
C2_9 O3_9 1_555 1_555
O5_9 C1_9 1_555 1_555
O6_9 Zn2_6 1_555 1_555
O7_6 Zn2_6 1_555 1_555
O8_6 Zn3_10 1_555 1_555
C3_9 C1_9 1_555 1_555
C4_9 C2_9 1_555 1_555
C5_9 C3_9 1_555 1_555
C6_9 C3_9 1_555 1_555
C7_9 C4_9 1_555 1_555
C8_9 C4_9 1_555 1_555
C9_9 C5_9 1_555 1_555
H1_9 C5_9 1_555 1_555
H2_9 C6_9 1_555 1_555
C10_9 C6_9 1_555 1_555
C11_9 C7_9 1_555 1_555
H3_9 C7_9 1_555 1_555
H4_9 C8_9 1_555 1_555
C12_9 C8_9 1_555 1_555
C13_9 C9_9 1_555 1_555
H5_9 C9_9 1_555 1_555
H6_9 C10_9 1_555 1_555
C14_9 C11_9 1_555 1_555
H7_9 C11_9 1_555 1_555
H8_9 C12_9 1_555 1_555
C15_9 C13_9 1_555 1_555
C16_9 C14_9 1_555 1_555
H9_9 C15_9 1_555 1_555
H10_9 C15_9 1_555 1_555
O9_9 C15_9 1_555 1_555
H12_9 C16_9 1_555 1_555
O10_9 C16_9 1_555 1_555
C17_9 O9_9 1_555 1_555
C19_9 C17_9 1_555 1_555
C20_9 C17_9 1_555 1_555
H13_9 C19_9 1_555 1_555
C23_9 C19_9 1_555 1_555
C24_9 C20_9 1_555 1_555
C25_9 C20_9 1_555 1_555
H15_9 C23_9 1_555 1_555
C29_9 C23_9 1_555 1_555
C30_9 C24_9 1_555 1_555
H16_9 C25_9 1_555 1_555
C31_9 C25_9 1_555 1_555
C32_9 C25_9 1_555 1_555
H18_9 C28_9 1_555 1_555
C35_9 C28_9 1_555 1_555
C36_9 C28_9 1_555 1_555
O11_9 C29_9 1_555 1_555
H19_9 C30_9 1_555 1_555
C37_9 C30_9 1_555 1_555
C38_9 C30_9 1_555 1_555
C39_9 C31_9 1_555 1_555
C40_9 C32_9 1_555 1_555
C43_9 C35_9 1_555 1_555
C44_9 C36_9 1_555 1_555
C45_9 O11_9 1_555 1_555
C46_9 C37_9 1_555 1_555
C47_9 C38_9 1_555 1_555
C48_9 C39_9 1_555 1_555
H21_9 C39_9 1_555 1_555
H22_9 C40_9 1_555 1_555
C52_9 C42_9 1_555 1_555
H23_9 C43_9 1_555 1_555
H24_9 C44_9 1_555 1_555
C54_9 C44_9 1_555 1_555
H25_9 C45_9 1_555 1_555
H26_9 C45_9 1_555 1_555
C55_9 C45_9 1_555 1_555
H27_9 C46_9 1_555 1_555
C56_9 C46_9 1_555 1_555
H29_9 C48_9 1_555 1_555
C60_9 C52_9 1_555 1_555
H36_9 C54_9 1_555 1_555
C61_9 C55_9 1_555 1_555
C62_9 C55_9 1_555 1_555
H37_9 C56_9 1_555 1_555
H40_9 C60_9 1_555 1_555
H41_9 C61_9 1_555 1_555
C65_9 C61_9 1_555 1_555
C66_9 C62_9 1_555 1_555
H42_9 C62_9 1_555 1_555
H45_9 C65_9 1_555 1_555
C69_9 C65_9 1_555 1_555
H46_9 C66_9 1_555 1_555
C71_9 C69_9 1_555 1_555
O14_9 Zn3_10 1_555 1_555
O15_9 Zn3_10 1_555 1_555
O16_6 Zn3_10 1_555 1_555
O17_6 Zn3_10 1_555 1_555
Zn4_6 O14_9 1_555 1_555
Zn5_6 O14_9 1_555 1_555
Zn6_6 O15_9 1_555 1_555
Zn7_6 O15_9 1_555 1_555
O18_9 Zn4_6 1_555 1_555
O19_9 Zn4_6 1_555 1_555
O20_6 Zn4_6 1_555 1_555
O21_9 Zn5_6 1_555 1_555
O22_9 Zn5_6 1_555 1_555
O23_6 Zn5_6 1_555 1_555
O24_9 Zn6_6 1_555 1_555
O25_9 Zn6_6 1_555 1_555
O26_6 Zn6_6 1_555 1_555
O27_9 Zn7_6 1_555 1_555
O28_9 Zn7_6 1_555 1_555
O29_6 Zn7_6 1_555 1_555
C73_9 O18_9 1_555 1_555
C74_9 O19_9 1_555 1_555
C75_9 O24_9 1_555 1_555
C76_9 O25_9 1_555 1_555
C77_9 C73_9 1_555 1_555
C78_9 C74_9 1_555 1_555
C79_9 C75_9 1_555 1_555
C80_9 C76_9 1_555 1_555
C81_9 C77_9 1_555 1_555
C82_9 C77_9 1_555 1_555
C83_9 C78_9 1_555 1_555
C84_9 C78_9 1_555 1_555
C85_9 C79_9 1_555 1_555
C86_9 C79_9 1_555 1_555
C87_9 C80_9 1_555 1_555
C88_9 C80_9 1_555 1_555
C89_9 C81_9 1_555 1_555
H49_9 C81_9 1_555 1_555
H50_9 C82_9 1_555 1_555
C90_9 C82_9 1_555 1_555
C91_9 C83_9 1_555 1_555
H51_9 C83_9 1_555 1_555
H52_9 C84_9 1_555 1_555
C92_9 C84_9 1_555 1_555
C93_9 C85_9 1_555 1_555
H53_9 C85_9 1_555 1_555
H54_9 C86_9 1_555 1_555
C94_9 C86_9 1_555 1_555
C95_9 C87_9 1_555 1_555
H55_9 C87_9 1_555 1_555
H56_9 C88_9 1_555 1_555
C96_9 C88_9 1_555 1_555
C97_9 C89_9 1_555 1_555
H57_9 C89_9 1_555 1_555
H58_9 C90_9 1_555 1_555
C98_9 C91_9 1_555 1_555
H59_9 C91_9 1_555 1_555
H60_9 C92_9 1_555 1_555
C99_9 C93_9 1_555 1_555
H61_9 C93_9 1_555 1_555
H62_9 C94_9 1_555 1_555
C100_9 C95_9 1_555 1_555
H63_9 C95_9 1_555 1_555
H64_9 C96_9 1_555 1_555
C101_9 C97_9 1_555 1_555
C102_9 C98_9 1_555 1_555
C103_9 C99_9 1_555 1_555
C104_9 C100_9 1_555 1_555
H65_9 C101_9 1_555 1_555
H66_9 C101_9 1_555 1_555
O30_9 C101_9 1_555 1_555
H68_9 C102_9 1_555 1_555
O31_9 C102_9 1_555 1_555
H69_9 C103_9 1_555 1_555
H70_9 C103_9 1_555 1_555
O32_9 C103_9 1_555 1_555
H71_9 C104_9 1_555 1_555
H72_9 C104_9 1_555 1_555
O33_9 C104_9 1_555 1_555
C105_9 O30_9 1_555 1_555
C107_9 O32_9 1_555 1_555
C108_9 O33_9 1_555 1_555
C109_9 C105_9 1_555 1_555
C110_9 C105_9 1_555 1_555
C113_9 C107_9 1_555 1_555
C114_9 C107_9 1_555 1_555
C115_9 C108_9 1_555 1_555
C116_9 C108_9 1_555 1_555
H73_9 C109_9 1_555 1_555
C117_9 C109_9 1_555 1_555
C118_9 C110_9 1_555 1_555
C119_9 C110_9 1_555 1_555
H75_9 C113_9 1_555 1_555
C123_9 C113_9 1_555 1_555
C124_9 C114_9 1_555 1_555
C125_9 C114_9 1_555 1_555
C126_9 C115_9 1_555 1_555
H76_9 C115_9 1_555 1_555
C127_9 C116_9 1_555 1_555
C128_9 C116_9 1_555 1_555
H77_9 C117_9 1_555 1_555
C129_9 C117_9 1_555 1_555
C130_9 C118_9 1_555 1_555
H78_9 C119_9 1_555 1_555
C131_9 C119_9 1_555 1_555
C132_9 C119_9 1_555 1_555
H80_9 C122_9 1_555 1_555
C135_9 C122_9 1_555 1_555
C136_9 C122_9 1_555 1_555
H81_9 C123_9 1_555 1_555
C137_9 C123_9 1_555 1_555
C138_9 C124_9 1_555 1_555
H82_9 C125_9 1_555 1_555
C139_9 C125_9 1_555 1_555
C140_9 C125_9 1_555 1_555
C141_9 C126_9 1_555 1_555
H83_9 C126_9 1_555 1_555
C142_9 C127_9 1_555 1_555
H84_9 C128_9 1_555 1_555
C143_9 C128_9 1_555 1_555
C144_9 C128_9 1_555 1_555
O34_9 C129_9 1_555 1_555
H85_9 C130_9 1_555 1_555
C145_9 C130_9 1_555 1_555
C146_9 C130_9 1_555 1_555
C147_9 C131_9 1_555 1_555
C148_9 C132_9 1_555 1_555
C151_9 C135_9 1_555 1_555
C152_9 C136_9 1_555 1_555
O36_9 C137_9 1_555 1_555
H87_9 C138_9 1_555 1_555
C153_9 C138_9 1_555 1_555
C154_9 C138_9 1_555 1_555
C155_9 C139_9 1_555 1_555
C156_9 C140_9 1_555 1_555
O37_9 C141_9 1_555 1_555
H88_9 C142_9 1_555 1_555
C157_9 C142_9 1_555 1_555
C158_9 C142_9 1_555 1_555
C159_9 C143_9 1_555 1_555
C160_9 C144_9 1_555 1_555
C161_9 O34_9 1_555 1_555
C162_9 C145_9 1_555 1_555
C163_9 C146_9 1_555 1_555
C164_9 C147_9 1_555 1_555
H89_9 C147_9 1_555 1_555
H90_9 C148_9 1_555 1_555
C168_9 C150_9 1_555 1_555
H91_9 C151_9 1_555 1_555
H92_9 C152_9 1_555 1_555
C170_9 C152_9 1_555 1_555
C171_9 O36_9 1_555 1_555
C172_9 C153_9 1_555 1_555
C173_9 C154_9 1_555 1_555
C174_9 C155_9 1_555 1_555
H93_9 C155_9 1_555 1_555
C175_9 C156_9 1_555 1_555
H94_9 C156_9 1_555 1_555
C176_9 O37_9 1_555 1_555
C177_9 C157_9 1_555 1_555
C178_9 C158_9 1_555 1_555
H95_9 C159_9 1_555 1_555
C179_9 C159_9 1_555 1_555
H96_9 C160_9 1_555 1_555
C180_9 C160_9 1_555 1_555
H97_9 C161_9 1_555 1_555
H98_9 C161_9 1_555 1_555
C181_9 C161_9 1_555 1_555
H99_9 C162_9 1_555 1_555
C182_9 C162_9 1_555 1_555
H101_9 C164_9 1_555 1_555
C186_9 C168_9 1_555 1_555
H108_9 C170_9 1_555 1_555
H109_9 C171_9 1_555 1_555
H110_9 C171_9 1_555 1_555
C187_9 C171_9 1_555 1_555
H111_9 C172_9 1_555 1_555
C188_9 C172_9 1_555 1_555
H112_9 C173_9 1_555 1_555
C189_9 C173_9 1_555 1_555
H113_9 C174_9 1_555 1_555
H114_9 C175_9 1_555 1_555
H115_9 C176_9 1_555 1_555
H116_9 C176_9 1_555 1_555
C190_9 C176_9 1_555 1_555
C191_9 C177_9 1_555 1_555
H117_9 C177_9 1_555 1_555
C192_9 C178_9 1_555 1_555
H118_9 C178_9 1_555 1_555
H119_9 C179_9 1_555 1_555
H120_9 C180_9 1_555 1_555
C193_9 C181_9 1_555 1_555
C194_9 C181_9 1_555 1_555
H121_9 C182_9 1_555 1_555
H124_9 C186_9 1_555 1_555
C197_9 C187_9 1_555 1_555
C198_9 C187_9 1_555 1_555
H125_9 C188_9 1_555 1_555
H126_9 C189_9 1_555 1_555
C199_9 C190_9 1_555 1_555
C200_9 C190_9 1_555 1_555
H127_9 C191_9 1_555 1_555
H128_9 C192_9 1_555 1_555
O38_6 C71_9 1_555 1_555
H129_9 C193_9 1_555 1_555
C201_9 C193_9 1_555 1_555
C202_9 C194_9 1_555 1_555
H130_9 C194_9 1_555 1_555
H133_9 C197_9 1_555 1_555
C205_9 C197_9 1_555 1_555
C206_9 C198_9 1_555 1_555
H134_9 C198_9 1_555 1_555
H135_9 C199_9 1_555 1_555
C207_9 C199_9 1_555 1_555
C208_9 C200_9 1_555 1_555
H136_9 C200_9 1_555 1_555
H137_9 C201_9 1_555 1_555
C209_9 C201_9 1_555 1_555
H138_9 C202_9 1_555 1_555
H141_9 C205_9 1_555 1_555
C211_9 C205_9 1_555 1_555
H142_9 C206_9 1_555 1_555
H143_9 C207_9 1_555 1_555
C212_9 C207_9 1_555 1_555
H144_9 C208_9 1_555 1_555
C213_9 C209_9 1_555 1_555
C215_9 C211_9 1_555 1_555
O41_6 C213_9 1_555 1_555
O45_6 C215_9 1_555 1_555
O46_6 C215_9 1_555 1_555
Zn8_6 O41_6 1_555 1_555
Zn15_6 O46_6 1_555 1_555
C2_9 O6_9 1_555 1_555
C10_9 C13_9 1_555 1_555
C12_9 C14_9 1_555 1_555
C24_9 C29_9 1_555 1_555
C31_9 C37_9 1_555 1_555
C32_9 C38_9 1_555 1_555
C36_9 C42_9 1_555 1_555
C48_9 C56_9 1_555 1_555
C54_9 C60_9 1_555 1_555
C66_9 C69_9 1_555 1_555
O21_9 C73_9 1_555 1_555
O22_9 C74_9 1_555 1_555
O27_9 C75_9 1_555 1_555
O28_9 C76_9 1_555 1_555
C90_9 C97_9 1_555 1_555
C92_9 C98_9 1_555 1_555
C94_9 C99_9 1_555 1_555
C96_9 C100_9 1_555 1_555
C118_9 C129_9 1_555 1_555
C124_9 C137_9 1_555 1_555
C127_9 C141_9 1_555 1_555
C131_9 C145_9 1_555 1_555
C132_9 C146_9 1_555 1_555
C136_9 C150_9 1_555 1_555
C139_9 C153_9 1_555 1_555
C140_9 C154_9 1_555 1_555
C143_9 C157_9 1_555 1_555
C144_9 C158_9 1_555 1_555
C164_9 C182_9 1_555 1_555
C170_9 C186_9 1_555 1_555
C174_9 C188_9 1_555 1_555
C175_9 C189_9 1_555 1_555
C179_9 C191_9 1_555 1_555
C180_9 C192_9 1_555 1_555
C202_9 C209_9 1_555 1_555
C206_9 C211_9 1_555 1_555
C208_9 C212_9 1_555 1_555
O47_6 C216_9 1_555 1_555
O48_9 C216_9 1_555 1_555
Zn16_6 O47_6 1_555 1_555
C111_9 C106_9 1_555 1_555
C112_9 C106_9 1_555 1_555
C120_9 C111_9 1_555 1_555
H74_9 C111_9 1_555 1_555
C121_9 C112_9 1_555 1_555
C133_9 C120_9 1_555 1_555
H79_9 C120_9 1_555 1_555
C134_9 C121_9 1_555 1_555
O35_9 C133_9 1_555 1_555
H86_9 C134_9 1_555 1_555
C149_9 C134_9 1_555 1_555
C166_9 O35_9 1_555 1_555
C167_9 C149_9 1_555 1_555
H102_9 C165_9 1_555 1_555
H103_9 C166_9 1_555 1_555
H104_9 C166_9 1_555 1_555
C184_9 C166_9 1_555 1_555
C185_9 C167_9 1_555 1_555
H105_9 C167_9 1_555 1_555
H107_9 C169_9 1_555 1_555
H122_9 C183_9 1_555 1_555
C195_9 C184_9 1_555 1_555
C196_9 C184_9 1_555 1_555
H123_9 C185_9 1_555 1_555
H131_9 C195_9 1_555 1_555
C203_9 C195_9 1_555 1_555
C204_9 C196_9 1_555 1_555
H132_9 C196_9 1_555 1_555
H139_9 C203_9 1_555 1_555
C210_9 C203_9 1_555 1_555
H140_9 C204_9 1_555 1_555
Zn12_6 O42_6 1_555 1_555
C121_9 C133_9 1_555 1_555
C165_9 C183_9 1_555 1_555
C169_9 C185_9 1_555 1_555
C204_9 C210_9 1_555 1_555
O43_6 C214_9 1_555 1_555
O44_9 C214_9 1_555 1_555
Zn13_6 O43_6 1_555 1_555
Zn14_2 O45_6 1_555 1_555
Zn11_2 O38_6 1_555 1_555
H75_10 C113_10 1_555 1_555
C123_10 C113_10 1_555 1_555
H81_10 C123_10 1_555 1_555
C137_10 C123_10 1_555 1_555
C138_10 C124_10 1_555 1_555
O36_10 C137_10 1_555 1_555
H87_10 C138_10 1_555 1_555
C154_10 C138_10 1_555 1_555
C171_10 O36_10 1_555 1_555
C173_10 C154_10 1_555 1_555
H109_10 C171_10 1_555 1_555
H110_10 C171_10 1_555 1_555
C187_10 C171_10 1_555 1_555
H112_10 C173_10 1_555 1_555
C189_10 C173_10 1_555 1_555
C197_10 C187_10 1_555 1_555
C198_10 C187_10 1_555 1_555
H126_10 C189_10 1_555 1_555
H133_10 C197_10 1_555 1_555
C205_10 C197_10 1_555 1_555
C206_10 C198_10 1_555 1_555
H134_10 C198_10 1_555 1_555
H141_10 C205_10 1_555 1_555
C211_10 C205_10 1_555 1_555
H142_10 C206_10 1_555 1_555
C215_10 C211_10 1_555 1_555
O17_6 C215_10 1_555 1_555
O26_6 C215_10 1_555 1_555
C124_10 C137_10 1_555 1_555
C206_10 C211_10 1_555 1_555
C177_10 C157_10 1_555 1_555
H95_10 C159_10 1_555 1_555
C179_10 C159_10 1_555 1_555
C191_10 C177_10 1_555 1_555
H117_10 C177_10 1_555 1_555
H119_10 C179_10 1_555 1_555
H127_10 C191_10 1_555 1_555
H144_10 C208_10 1_555 1_555
O7_5 C216_10 1_555 1_555
C179_10 C191_10 1_555 1_555
C9_10 C5_10 1_555 1_555
H1_10 C5_10 1_555 1_555
C13_10 C9_10 1_555 1_555
H5_10 C9_10 1_555 1_555
C15_10 C13_10 1_555 1_555
H9_10 C15_10 1_555 1_555
H10_10 C15_10 1_555 1_555
O9_10 C15_10 1_555 1_555
C17_10 O9_10 1_555 1_555
C20_10 C17_10 1_555 1_555
C25_10 C20_10 1_555 1_555
H16_10 C25_10 1_555 1_555
C31_10 C25_10 1_555 1_555
C32_10 C25_10 1_555 1_555
C39_10 C31_10 1_555 1_555
C40_10 C32_10 1_555 1_555
C46_10 C37_10 1_555 1_555
C48_10 C39_10 1_555 1_555
H21_10 C39_10 1_555 1_555
C49_10 C40_10 1_555 1_555
H22_10 C40_10 1_555 1_555
H27_10 C46_10 1_555 1_555
C56_10 C46_10 1_555 1_555
H29_10 C48_10 1_555 1_555
H30_10 C49_10 1_555 1_555
H37_10 C56_10 1_555 1_555
C89_10 C81_10 1_555 1_555
H49_10 C81_10 1_555 1_555
C93_10 C85_10 1_555 1_555
H53_10 C85_10 1_555 1_555
C97_10 C89_10 1_555 1_555
H57_10 C89_10 1_555 1_555
C99_10 C93_10 1_555 1_555
H61_10 C93_10 1_555 1_555
C101_10 C97_10 1_555 1_555
C103_10 C99_10 1_555 1_555
H65_10 C101_10 1_555 1_555
H66_10 C101_10 1_555 1_555
O30_10 C101_10 1_555 1_555
H69_10 C103_10 1_555 1_555
H70_10 C103_10 1_555 1_555
O32_10 C103_10 1_555 1_555
C105_10 O30_10 1_555 1_555
C107_10 O32_10 1_555 1_555
C109_10 C105_10 1_555 1_555
C110_10 C105_10 1_555 1_555
C114_10 C107_10 1_555 1_555
H73_10 C109_10 1_555 1_555
C117_10 C109_10 1_555 1_555
C118_10 C110_10 1_555 1_555
C119_10 C110_10 1_555 1_555
C125_10 C114_10 1_555 1_555
H77_10 C117_10 1_555 1_555
C129_10 C117_10 1_555 1_555
C130_10 C118_10 1_555 1_555
H78_10 C119_10 1_555 1_555
C131_10 C119_10 1_555 1_555
C132_10 C119_10 1_555 1_555
H82_10 C125_10 1_555 1_555
C139_10 C125_10 1_555 1_555
C140_10 C125_10 1_555 1_555
O34_10 C129_10 1_555 1_555
H85_10 C130_10 1_555 1_555
C145_10 C130_10 1_555 1_555
C146_10 C130_10 1_555 1_555
C147_10 C131_10 1_555 1_555
C148_10 C132_10 1_555 1_555
C155_10 C139_10 1_555 1_555
C156_10 C140_10 1_555 1_555
C161_10 O34_10 1_555 1_555
C162_10 C145_10 1_555 1_555
C163_10 C146_10 1_555 1_555
C164_10 C147_10 1_555 1_555
H89_10 C147_10 1_555 1_555
C165_10 C148_10 1_555 1_555
H90_10 C148_10 1_555 1_555
C172_10 C153_10 1_555 1_555
C174_10 C155_10 1_555 1_555
H93_10 C155_10 1_555 1_555
C175_10 C156_10 1_555 1_555
H94_10 C156_10 1_555 1_555
H97_10 C161_10 1_555 1_555
H98_10 C161_10 1_555 1_555
C181_10 C161_10 1_555 1_555
H99_10 C162_10 1_555 1_555
C182_10 C162_10 1_555 1_555
H100_10 C163_10 1_555 1_555
C183_10 C163_10 1_555 1_555
H101_10 C164_10 1_555 1_555
H102_10 C165_10 1_555 1_555
H111_10 C172_10 1_555 1_555
C188_10 C172_10 1_555 1_555
H113_10 C174_10 1_555 1_555
H114_10 C175_10 1_555 1_555
C193_10 C181_10 1_555 1_555
C194_10 C181_10 1_555 1_555
H121_10 C182_10 1_555 1_555
H122_10 C183_10 1_555 1_555
H125_10 C188_10 1_555 1_555
H129_10 C193_10 1_555 1_555
C201_10 C193_10 1_555 1_555
C202_10 C194_10 1_555 1_555
H130_10 C194_10 1_555 1_555
H137_10 C201_10 1_555 1_555
C209_10 C201_10 1_555 1_555
H138_10 C202_10 1_555 1_555
C213_10 C209_10 1_555 1_555
O16_6 C213_10 1_555 1_555
O4_6 C213_10 1_555 1_555
C10_10 C13_10 1_555 1_555
C31_10 C37_10 1_555 1_555
C48_10 C56_10 1_555 1_555
C90_10 C97_10 1_555 1_555
C94_10 C99_10 1_555 1_555
C118_10 C129_10 1_555 1_555
C131_10 C145_10 1_555 1_555
C132_10 C146_10 1_555 1_555
C139_10 C153_10 1_555 1_555
C164_10 C182_10 1_555 1_555
C165_10 C183_10 1_555 1_555
C174_10 C188_10 1_555 1_555
C202_10 C209_10 1_555 1_555
Zn12_5 O1_10 1_555 1_555
O1_10 Zn16_6 1_555 1_555
O2_10 Zn12_5 1_555 1_555
O3_10 Zn12_5 1_555 1_555
Zn16_6 O5_10 1_555 1_555
Zn8_5 O1_10 1_555 1_555
C1_10 O2_10 1_555 1_555
C2_10 O3_10 1_555 1_555
O5_10 C1_10 1_555 1_555
O6_10 Zn16_6 1_555 1_555
C3_10 C1_10 1_555 1_555
C4_10 C2_10 1_555 1_555
C6_10 C3_10 1_555 1_555
C7_10 C4_10 1_555 1_555
C8_10 C4_10 1_555 1_555
H2_10 C6_10 1_555 1_555
C11_10 C7_10 1_555 1_555
H3_10 C7_10 1_555 1_555
H4_10 C8_10 1_555 1_555
C12_10 C8_10 1_555 1_555
C14_10 C11_10 1_555 1_555
H7_10 C11_10 1_555 1_555
H8_10 C12_10 1_555 1_555
C16_10 C14_10 1_555 1_555
H11_10 C16_10 1_555 1_555
H12_10 C16_10 1_555 1_555
O10_10 C16_10 1_555 1_555
C18_10 O10_10 1_555 1_555
C21_10 C18_10 1_555 1_555
C22_10 C18_10 1_555 1_555
C26_10 C21_10 1_555 1_555
H14_10 C21_10 1_555 1_555
C27_10 C22_10 1_555 1_555
C28_10 C22_10 1_555 1_555
C33_10 C26_10 1_555 1_555
H17_10 C26_10 1_555 1_555
C34_10 C27_10 1_555 1_555
H18_10 C28_10 1_555 1_555
C35_10 C28_10 1_555 1_555
C36_10 C28_10 1_555 1_555
O12_10 C33_10 1_555 1_555
H20_10 C34_10 1_555 1_555
C42_10 C34_10 1_555 1_555
C44_10 C36_10 1_555 1_555
C50_10 O12_10 1_555 1_555
C52_10 C42_10 1_555 1_555
H24_10 C44_10 1_555 1_555
C54_10 C44_10 1_555 1_555
H31_10 C50_10 1_555 1_555
H32_10 C50_10 1_555 1_555
C58_10 C50_10 1_555 1_555
C60_10 C52_10 1_555 1_555
H34_10 C52_10 1_555 1_555
H36_10 C54_10 1_555 1_555
C63_10 C58_10 1_555 1_555
C64_10 C58_10 1_555 1_555
H40_10 C60_10 1_555 1_555
H43_10 C63_10 1_555 1_555
C67_10 C63_10 1_555 1_555
H44_10 C64_10 1_555 1_555
H47_10 C67_10 1_555 1_555
C70_10 C67_10 1_555 1_555
O14_10 Zn8_5 1_555 1_555
O15_10 Zn8_5 1_555 1_555
Zn9_5 O14_10 1_555 1_555
Zn13_6 O14_10 1_555 1_555
Zn15_5 O15_10 1_555 1_555
Zn10_6 O15_10 1_555 1_555
O18_10 Zn9_5 1_555 1_555
O19_10 Zn9_5 1_555 1_555
O21_10 Zn13_6 1_555 1_555
O22_10 Zn13_6 1_555 1_555
O24_10 Zn15_5 1_555 1_555
O25_10 Zn15_5 1_555 1_555
O27_10 Zn10_6 1_555 1_555
O28_10 Zn10_6 1_555 1_555
C73_10 O18_10 1_555 1_555
C74_10 O19_10 1_555 1_555
C75_10 O24_10 1_555 1_555
C76_10 O25_10 1_555 1_555
C77_10 C73_10 1_555 1_555
C78_10 C74_10 1_555 1_555
C79_10 C75_10 1_555 1_555
C80_10 C76_10 1_555 1_555
C82_10 C77_10 1_555 1_555
C83_10 C78_10 1_555 1_555
C84_10 C78_10 1_555 1_555
C86_10 C79_10 1_555 1_555
C87_10 C80_10 1_555 1_555
C88_10 C80_10 1_555 1_555
H50_10 C82_10 1_555 1_555
C91_10 C83_10 1_555 1_555
H51_10 C83_10 1_555 1_555
H52_10 C84_10 1_555 1_555
C92_10 C84_10 1_555 1_555
H54_10 C86_10 1_555 1_555
C95_10 C87_10 1_555 1_555
H55_10 C87_10 1_555 1_555
H56_10 C88_10 1_555 1_555
C96_10 C88_10 1_555 1_555
C98_10 C91_10 1_555 1_555
H59_10 C91_10 1_555 1_555
H60_10 C92_10 1_555 1_555
C100_10 C95_10 1_555 1_555
H63_10 C95_10 1_555 1_555
H64_10 C96_10 1_555 1_555
C102_10 C98_10 1_555 1_555
C104_10 C100_10 1_555 1_555
H67_10 C102_10 1_555 1_555
H68_10 C102_10 1_555 1_555
O31_10 C102_10 1_555 1_555
H71_10 C104_10 1_555 1_555
H72_10 C104_10 1_555 1_555
O33_10 C104_10 1_555 1_555
C106_10 O31_10 1_555 1_555
C108_10 O33_10 1_555 1_555
C111_10 C106_10 1_555 1_555
C112_10 C106_10 1_555 1_555
C115_10 C108_10 1_555 1_555
C116_10 C108_10 1_555 1_555
C120_10 C111_10 1_555 1_555
H74_10 C111_10 1_555 1_555
C121_10 C112_10 1_555 1_555
C122_10 C112_10 1_555 1_555
C126_10 C115_10 1_555 1_555
H76_10 C115_10 1_555 1_555
C127_10 C116_10 1_555 1_555
C128_10 C116_10 1_555 1_555
C133_10 C120_10 1_555 1_555
H79_10 C120_10 1_555 1_555
C134_10 C121_10 1_555 1_555
H80_10 C122_10 1_555 1_555
C135_10 C122_10 1_555 1_555
C136_10 C122_10 1_555 1_555
C141_10 C126_10 1_555 1_555
H83_10 C126_10 1_555 1_555
C142_10 C127_10 1_555 1_555
H84_10 C128_10 1_555 1_555
C143_10 C128_10 1_555 1_555
C144_10 C128_10 1_555 1_555
O35_10 C133_10 1_555 1_555
H86_10 C134_10 1_555 1_555
C149_10 C134_10 1_555 1_555
C150_10 C134_10 1_555 1_555
C151_10 C135_10 1_555 1_555
C152_10 C136_10 1_555 1_555
O37_10 C141_10 1_555 1_555
H88_10 C142_10 1_555 1_555
C158_10 C142_10 1_555 1_555
C160_10 C144_10 1_555 1_555
C166_10 O35_10 1_555 1_555
C167_10 C149_10 1_555 1_555
C168_10 C150_10 1_555 1_555
H91_10 C151_10 1_555 1_555
C169_10 C151_10 1_555 1_555
H92_10 C152_10 1_555 1_555
C170_10 C152_10 1_555 1_555
C176_10 O37_10 1_555 1_555
C178_10 C158_10 1_555 1_555
H96_10 C160_10 1_555 1_555
C180_10 C160_10 1_555 1_555
H103_10 C166_10 1_555 1_555
H104_10 C166_10 1_555 1_555
C184_10 C166_10 1_555 1_555
C185_10 C167_10 1_555 1_555
H105_10 C167_10 1_555 1_555
C186_10 C168_10 1_555 1_555
H106_10 C168_10 1_555 1_555
H107_10 C169_10 1_555 1_555
H108_10 C170_10 1_555 1_555
H115_10 C176_10 1_555 1_555
H116_10 C176_10 1_555 1_555
C190_10 C176_10 1_555 1_555
C192_10 C178_10 1_555 1_555
H118_10 C178_10 1_555 1_555
H120_10 C180_10 1_555 1_555
C195_10 C184_10 1_555 1_555
C196_10 C184_10 1_555 1_555
H123_10 C185_10 1_555 1_555
H124_10 C186_10 1_555 1_555
C199_10 C190_10 1_555 1_555
C200_10 C190_10 1_555 1_555
H128_10 C192_10 1_555 1_555
H131_10 C195_10 1_555 1_555
C203_10 C195_10 1_555 1_555
C204_10 C196_10 1_555 1_555
H132_10 C196_10 1_555 1_555
H135_10 C199_10 1_555 1_555
C207_10 C199_10 1_555 1_555
H136_10 C200_10 1_555 1_555
H139_10 C203_10 1_555 1_555
C210_10 C203_10 1_555 1_555
H140_10 C204_10 1_555 1_555
H143_10 C207_10 1_555 1_555
C212_10 C207_10 1_555 1_555
C214_10 C210_10 1_555 1_555
O23_5 C214_10 1_555 1_555
O44_10 C214_10 1_555 1_555
C2_10 O6_10 1_555 1_555
C12_10 C14_10 1_555 1_555
C27_10 C33_10 1_555 1_555
C36_10 C42_10 1_555 1_555
C54_10 C60_10 1_555 1_555
O21_10 C73_10 1_555 1_555
O22_10 C74_10 1_555 1_555
O27_10 C75_10 1_555 1_555
O28_10 C76_10 1_555 1_555
C92_10 C98_10 1_555 1_555
C96_10 C100_10 1_555 1_555
C121_10 C133_10 1_555 1_555
C127_10 C141_10 1_555 1_555
C135_10 C149_10 1_555 1_555
C136_10 C150_10 1_555 1_555
C144_10 C158_10 1_555 1_555
C169_10 C185_10 1_555 1_555
C170_10 C186_10 1_555 1_555
C180_10 C192_10 1_555 1_555
C204_10 C210_10 1_555 1_555
H13_10 C19_10 1_555 1_555
C23_10 C19_10 1_555 1_555
H15_10 C23_10 1_555 1_555
C29_10 C23_10 1_555 1_555
C30_10 C24_10 1_555 1_555
O11_10 C29_10 1_555 1_555
H19_10 C30_10 1_555 1_555
C38_10 C30_10 1_555 1_555
C45_10 O11_10 1_555 1_555
C47_10 C38_10 1_555 1_555
H25_10 C45_10 1_555 1_555
H26_10 C45_10 1_555 1_555
C55_10 C45_10 1_555 1_555
H28_10 C47_10 1_555 1_555
C57_10 C47_10 1_555 1_555
C61_10 C55_10 1_555 1_555
C62_10 C55_10 1_555 1_555
H38_10 C57_10 1_555 1_555
H41_10 C61_10 1_555 1_555
C65_10 C61_10 1_555 1_555
C66_10 C62_10 1_555 1_555
H42_10 C62_10 1_555 1_555
H45_10 C65_10 1_555 1_555
C69_10 C65_10 1_555 1_555
H46_10 C66_10 1_555 1_555
C71_10 C69_10 1_555 1_555
O8_6 C71_10 1_555 1_555
O20_6 C71_10 1_555 1_555
C24_10 C29_10 1_555 1_555
C66_10 C69_10 1_555 1_555
C51_10 C41_10 1_555 1_555
H23_10 C43_10 1_555 1_555
C53_10 C43_10 1_555 1_555
C59_10 C51_10 1_555 1_555
H33_10 C51_10 1_555 1_555
H35_10 C53_10 1_555 1_555
H39_10 C59_10 1_555 1_555
H48_10 C68_10 1_555 1_555
O29_5 C72_10 1_555 1_555
C53_10 C59_10 1_555 1_555
C111_11 C106_11 1_555 1_555
C112_11 C106_11 1_555 1_555
C120_11 C111_11 1_555 1_555
H74_11 C111_11 1_555 1_555
C121_11 C112_11 1_555 1_555
C133_11 C120_11 1_555 1_555
H79_11 C120_11 1_555 1_555
C134_11 C121_11 1_555 1_555
O35_11 C133_11 1_555 1_555
H86_11 C134_11 1_555 1_555
C149_11 C134_11 1_555 1_555
C166_11 O35_11 1_555 1_555
C167_11 C149_11 1_555 1_555
H102_11 C165_11 1_555 1_555
H103_11 C166_11 1_555 1_555
H104_11 C166_11 1_555 1_555
C184_11 C166_11 1_555 1_555
C185_11 C167_11 1_555 1_555
H105_11 C167_11 1_555 1_555
H107_11 C169_11 1_555 1_555
H122_11 C183_11 1_555 1_555
C195_11 C184_11 1_555 1_555
C196_11 C184_11 1_555 1_555
H123_11 C185_11 1_555 1_555
H131_11 C195_11 1_555 1_555
C203_11 C195_11 1_555 1_555
C204_11 C196_11 1_555 1_555
H132_11 C196_11 1_555 1_555
H139_11 C203_11 1_555 1_555
C210_11 C203_11 1_555 1_555
H140_11 C204_11 1_555 1_555
C214_11 C210_11 1_555 1_555
O23_4 C214_11 1_555 1_555
O44_11 C214_11 1_555 1_555
C121_11 C133_11 1_555 1_555
C165_11 C183_11 1_555 1_555
C169_11 C185_11 1_555 1_555
C204_11 C210_11 1_555 1_555
Zn12_4 O1_11 1_555 1_555
O1_11 Zn16_5 1_555 1_555
O2_11 Zn12_4 1_555 1_555
O3_11 Zn12_4 1_555 1_555
Zn16_5 O5_11 1_555 1_555
Zn8_4 O1_11 1_555 1_555
C1_11 O2_11 1_555 1_555
C2_11 O3_11 1_555 1_555
O5_11 C1_11 1_555 1_555
O6_11 Zn16_5 1_555 1_555
C3_11 C1_11 1_555 1_555
C4_11 C2_11 1_555 1_555
C5_11 C3_11 1_555 1_555
C6_11 C3_11 1_555 1_555
C7_11 C4_11 1_555 1_555
C8_11 C4_11 1_555 1_555
C9_11 C5_11 1_555 1_555
H1_11 C5_11 1_555 1_555
H2_11 C6_11 1_555 1_555
C10_11 C6_11 1_555 1_555
C11_11 C7_11 1_555 1_555
H3_11 C7_11 1_555 1_555
H4_11 C8_11 1_555 1_555
C12_11 C8_11 1_555 1_555
C13_11 C9_11 1_555 1_555
H5_11 C9_11 1_555 1_555
H6_11 C10_11 1_555 1_555
C14_11 C11_11 1_555 1_555
H7_11 C11_11 1_555 1_555
H8_11 C12_11 1_555 1_555
C15_11 C13_11 1_555 1_555
C16_11 C14_11 1_555 1_555
H9_11 C15_11 1_555 1_555
H10_11 C15_11 1_555 1_555
O9_11 C15_11 1_555 1_555
H12_11 C16_11 1_555 1_555
O10_11 C16_11 1_555 1_555
C17_11 O9_11 1_555 1_555
C19_11 C17_11 1_555 1_555
C20_11 C17_11 1_555 1_555
H13_11 C19_11 1_555 1_555
C23_11 C19_11 1_555 1_555
C24_11 C20_11 1_555 1_555
C25_11 C20_11 1_555 1_555
H15_11 C23_11 1_555 1_555
C29_11 C23_11 1_555 1_555
C30_11 C24_11 1_555 1_555
H16_11 C25_11 1_555 1_555
C31_11 C25_11 1_555 1_555
C32_11 C25_11 1_555 1_555
H18_11 C28_11 1_555 1_555
C35_11 C28_11 1_555 1_555
C36_11 C28_11 1_555 1_555
O11_11 C29_11 1_555 1_555
H19_11 C30_11 1_555 1_555
C37_11 C30_11 1_555 1_555
C38_11 C30_11 1_555 1_555
C39_11 C31_11 1_555 1_555
C40_11 C32_11 1_555 1_555
C43_11 C35_11 1_555 1_555
C44_11 C36_11 1_555 1_555
C45_11 O11_11 1_555 1_555
C46_11 C37_11 1_555 1_555
C47_11 C38_11 1_555 1_555
C48_11 C39_11 1_555 1_555
H21_11 C39_11 1_555 1_555
H22_11 C40_11 1_555 1_555
C52_11 C42_11 1_555 1_555
H23_11 C43_11 1_555 1_555
H24_11 C44_11 1_555 1_555
C54_11 C44_11 1_555 1_555
H25_11 C45_11 1_555 1_555
H26_11 C45_11 1_555 1_555
C55_11 C45_11 1_555 1_555
H27_11 C46_11 1_555 1_555
C56_11 C46_11 1_555 1_555
H29_11 C48_11 1_555 1_555
C60_11 C52_11 1_555 1_555
H36_11 C54_11 1_555 1_555
C61_11 C55_11 1_555 1_555
C62_11 C55_11 1_555 1_555
H37_11 C56_11 1_555 1_555
H40_11 C60_11 1_555 1_555
H41_11 C61_11 1_555 1_555
C65_11 C61_11 1_555 1_555
C66_11 C62_11 1_555 1_555
H42_11 C62_11 1_555 1_555
H45_11 C65_11 1_555 1_555
C69_11 C65_11 1_555 1_555
H46_11 C66_11 1_555 1_555
C71_11 C69_11 1_555 1_555
O14_11 Zn8_4 1_555 1_555
O15_11 Zn8_4 1_555 1_555
Zn9_4 O14_11 1_555 1_555
Zn13_5 O14_11 1_555 1_555
Zn15_4 O15_11 1_555 1_555
Zn10_5 O15_11 1_555 1_555
O18_11 Zn9_4 1_555 1_555
O19_11 Zn9_4 1_555 1_555
O21_11 Zn13_5 1_555 1_555
O22_11 Zn13_5 1_555 1_555
O24_11 Zn15_4 1_555 1_555
O25_11 Zn15_4 1_555 1_555
O27_11 Zn10_5 1_555 1_555
O28_11 Zn10_5 1_555 1_555
C73_11 O18_11 1_555 1_555
C74_11 O19_11 1_555 1_555
C75_11 O24_11 1_555 1_555
C76_11 O25_11 1_555 1_555
C77_11 C73_11 1_555 1_555
C78_11 C74_11 1_555 1_555
C79_11 C75_11 1_555 1_555
C80_11 C76_11 1_555 1_555
C81_11 C77_11 1_555 1_555
C82_11 C77_11 1_555 1_555
C83_11 C78_11 1_555 1_555
C84_11 C78_11 1_555 1_555
C85_11 C79_11 1_555 1_555
C86_11 C79_11 1_555 1_555
C87_11 C80_11 1_555 1_555
C88_11 C80_11 1_555 1_555
C89_11 C81_11 1_555 1_555
H49_11 C81_11 1_555 1_555
H50_11 C82_11 1_555 1_555
C90_11 C82_11 1_555 1_555
C91_11 C83_11 1_555 1_555
H51_11 C83_11 1_555 1_555
H52_11 C84_11 1_555 1_555
C92_11 C84_11 1_555 1_555
C93_11 C85_11 1_555 1_555
H53_11 C85_11 1_555 1_555
H54_11 C86_11 1_555 1_555
C94_11 C86_11 1_555 1_555
C95_11 C87_11 1_555 1_555
H55_11 C87_11 1_555 1_555
H56_11 C88_11 1_555 1_555
C96_11 C88_11 1_555 1_555
C97_11 C89_11 1_555 1_555
H57_11 C89_11 1_555 1_555
H58_11 C90_11 1_555 1_555
C98_11 C91_11 1_555 1_555
H59_11 C91_11 1_555 1_555
H60_11 C92_11 1_555 1_555
C99_11 C93_11 1_555 1_555
H61_11 C93_11 1_555 1_555
H62_11 C94_11 1_555 1_555
C100_11 C95_11 1_555 1_555
H63_11 C95_11 1_555 1_555
H64_11 C96_11 1_555 1_555
C101_11 C97_11 1_555 1_555
C102_11 C98_11 1_555 1_555
C103_11 C99_11 1_555 1_555
C104_11 C100_11 1_555 1_555
H65_11 C101_11 1_555 1_555
H66_11 C101_11 1_555 1_555
O30_11 C101_11 1_555 1_555
H68_11 C102_11 1_555 1_555
O31_11 C102_11 1_555 1_555
H69_11 C103_11 1_555 1_555
H70_11 C103_11 1_555 1_555
O32_11 C103_11 1_555 1_555
H71_11 C104_11 1_555 1_555
H72_11 C104_11 1_555 1_555
O33_11 C104_11 1_555 1_555
C105_11 O30_11 1_555 1_555
C107_11 O32_11 1_555 1_555
C108_11 O33_11 1_555 1_555
C109_11 C105_11 1_555 1_555
C110_11 C105_11 1_555 1_555
C113_11 C107_11 1_555 1_555
C114_11 C107_11 1_555 1_555
C115_11 C108_11 1_555 1_555
C116_11 C108_11 1_555 1_555
H73_11 C109_11 1_555 1_555
C117_11 C109_11 1_555 1_555
C118_11 C110_11 1_555 1_555
C119_11 C110_11 1_555 1_555
H75_11 C113_11 1_555 1_555
C123_11 C113_11 1_555 1_555
C124_11 C114_11 1_555 1_555
C125_11 C114_11 1_555 1_555
C126_11 C115_11 1_555 1_555
H76_11 C115_11 1_555 1_555
C127_11 C116_11 1_555 1_555
C128_11 C116_11 1_555 1_555
H77_11 C117_11 1_555 1_555
C129_11 C117_11 1_555 1_555
C130_11 C118_11 1_555 1_555
H78_11 C119_11 1_555 1_555
C131_11 C119_11 1_555 1_555
C132_11 C119_11 1_555 1_555
H80_11 C122_11 1_555 1_555
C135_11 C122_11 1_555 1_555
C136_11 C122_11 1_555 1_555
H81_11 C123_11 1_555 1_555
C137_11 C123_11 1_555 1_555
C138_11 C124_11 1_555 1_555
H82_11 C125_11 1_555 1_555
C139_11 C125_11 1_555 1_555
C140_11 C125_11 1_555 1_555
C141_11 C126_11 1_555 1_555
H83_11 C126_11 1_555 1_555
C142_11 C127_11 1_555 1_555
H84_11 C128_11 1_555 1_555
C143_11 C128_11 1_555 1_555
C144_11 C128_11 1_555 1_555
O34_11 C129_11 1_555 1_555
H85_11 C130_11 1_555 1_555
C145_11 C130_11 1_555 1_555
C146_11 C130_11 1_555 1_555
C147_11 C131_11 1_555 1_555
C148_11 C132_11 1_555 1_555
C151_11 C135_11 1_555 1_555
C152_11 C136_11 1_555 1_555
O36_11 C137_11 1_555 1_555
H87_11 C138_11 1_555 1_555
C153_11 C138_11 1_555 1_555
C154_11 C138_11 1_555 1_555
C155_11 C139_11 1_555 1_555
C156_11 C140_11 1_555 1_555
O37_11 C141_11 1_555 1_555
H88_11 C142_11 1_555 1_555
C157_11 C142_11 1_555 1_555
C158_11 C142_11 1_555 1_555
C159_11 C143_11 1_555 1_555
C160_11 C144_11 1_555 1_555
C161_11 O34_11 1_555 1_555
C162_11 C145_11 1_555 1_555
C163_11 C146_11 1_555 1_555
C164_11 C147_11 1_555 1_555
H89_11 C147_11 1_555 1_555
H90_11 C148_11 1_555 1_555
C168_11 C150_11 1_555 1_555
H91_11 C151_11 1_555 1_555
H92_11 C152_11 1_555 1_555
C170_11 C152_11 1_555 1_555
C171_11 O36_11 1_555 1_555
C172_11 C153_11 1_555 1_555
C173_11 C154_11 1_555 1_555
C174_11 C155_11 1_555 1_555
H93_11 C155_11 1_555 1_555
C175_11 C156_11 1_555 1_555
H94_11 C156_11 1_555 1_555
C176_11 O37_11 1_555 1_555
C177_11 C157_11 1_555 1_555
C178_11 C158_11 1_555 1_555
H95_11 C159_11 1_555 1_555
C179_11 C159_11 1_555 1_555
H96_11 C160_11 1_555 1_555
C180_11 C160_11 1_555 1_555
H97_11 C161_11 1_555 1_555
H98_11 C161_11 1_555 1_555
C181_11 C161_11 1_555 1_555
H99_11 C162_11 1_555 1_555
C182_11 C162_11 1_555 1_555
H101_11 C164_11 1_555 1_555
C186_11 C168_11 1_555 1_555
H108_11 C170_11 1_555 1_555
H109_11 C171_11 1_555 1_555
H110_11 C171_11 1_555 1_555
C187_11 C171_11 1_555 1_555
H111_11 C172_11 1_555 1_555
C188_11 C172_11 1_555 1_555
H112_11 C173_11 1_555 1_555
C189_11 C173_11 1_555 1_555
H113_11 C174_11 1_555 1_555
H114_11 C175_11 1_555 1_555
H115_11 C176_11 1_555 1_555
H116_11 C176_11 1_555 1_555
C190_11 C176_11 1_555 1_555
C191_11 C177_11 1_555 1_555
H117_11 C177_11 1_555 1_555
C192_11 C178_11 1_555 1_555
H118_11 C178_11 1_555 1_555
H119_11 C179_11 1_555 1_555
H120_11 C180_11 1_555 1_555
C193_11 C181_11 1_555 1_555
C194_11 C181_11 1_555 1_555
H121_11 C182_11 1_555 1_555
H124_11 C186_11 1_555 1_555
C197_11 C187_11 1_555 1_555
C198_11 C187_11 1_555 1_555
H125_11 C188_11 1_555 1_555
H126_11 C189_11 1_555 1_555
C199_11 C190_11 1_555 1_555
C200_11 C190_11 1_555 1_555
H127_11 C191_11 1_555 1_555
H128_11 C192_11 1_555 1_555
O8_5 C71_11 1_555 1_555
H129_11 C193_11 1_555 1_555
C201_11 C193_11 1_555 1_555
C202_11 C194_11 1_555 1_555
H130_11 C194_11 1_555 1_555
H133_11 C197_11 1_555 1_555
C205_11 C197_11 1_555 1_555
C206_11 C198_11 1_555 1_555
H134_11 C198_11 1_555 1_555
H135_11 C199_11 1_555 1_555
C207_11 C199_11 1_555 1_555
C208_11 C200_11 1_555 1_555
H136_11 C200_11 1_555 1_555
H137_11 C201_11 1_555 1_555
C209_11 C201_11 1_555 1_555
H138_11 C202_11 1_555 1_555
H141_11 C205_11 1_555 1_555
C211_11 C205_11 1_555 1_555
H142_11 C206_11 1_555 1_555
H143_11 C207_11 1_555 1_555
C212_11 C207_11 1_555 1_555
H144_11 C208_11 1_555 1_555
C213_11 C209_11 1_555 1_555
C215_11 C211_11 1_555 1_555
C216_11 C212_11 1_555 1_555
O16_5 C213_11 1_555 1_555
O17_5 C215_11 1_555 1_555
O26_5 C215_11 1_555 1_555
O7_4 C216_11 1_555 1_555
O48_11 C216_11 1_555 1_555
C2_11 O6_11 1_555 1_555
C10_11 C13_11 1_555 1_555
C12_11 C14_11 1_555 1_555
C24_11 C29_11 1_555 1_555
C31_11 C37_11 1_555 1_555
C32_11 C38_11 1_555 1_555
C36_11 C42_11 1_555 1_555
C48_11 C56_11 1_555 1_555
C54_11 C60_11 1_555 1_555
C66_11 C69_11 1_555 1_555
O21_11 C73_11 1_555 1_555
O22_11 C74_11 1_555 1_555
O27_11 C75_11 1_555 1_555
O28_11 C76_11 1_555 1_555
C90_11 C97_11 1_555 1_555
C92_11 C98_11 1_555 1_555
C94_11 C99_11 1_555 1_555
C96_11 C100_11 1_555 1_555
C118_11 C129_11 1_555 1_555
C124_11 C137_11 1_555 1_555
C127_11 C141_11 1_555 1_555
C131_11 C145_11 1_555 1_555
C132_11 C146_11 1_555 1_555
C136_11 C150_11 1_555 1_555
C139_11 C153_11 1_555 1_555
C140_11 C154_11 1_555 1_555
C143_11 C157_11 1_555 1_555
C144_11 C158_11 1_555 1_555
C164_11 C182_11 1_555 1_555
C170_11 C186_11 1_555 1_555
C174_11 C188_11 1_555 1_555
C175_11 C189_11 1_555 1_555
C179_11 C191_11 1_555 1_555
C180_11 C192_11 1_555 1_555
C202_11 C209_11 1_555 1_555
C206_11 C211_11 1_555 1_555
C208_11 C212_11 1_555 1_555
C21_11 C18_11 1_555 1_555
C22_11 C18_11 1_555 1_555
C26_11 C21_11 1_555 1_555
H14_11 C21_11 1_555 1_555
C27_11 C22_11 1_555 1_555
C33_11 C26_11 1_555 1_555
H17_11 C26_11 1_555 1_555
C34_11 C27_11 1_555 1_555
O12_11 C33_11 1_555 1_555
H20_11 C34_11 1_555 1_555
C41_11 C34_11 1_555 1_555
C50_11 O12_11 1_555 1_555
C51_11 C41_11 1_555 1_555
H30_11 C49_11 1_555 1_555
H31_11 C50_11 1_555 1_555
H32_11 C50_11 1_555 1_555
C58_11 C50_11 1_555 1_555
C59_11 C51_11 1_555 1_555
H33_11 C51_11 1_555 1_555
H35_11 C53_11 1_555 1_555
H38_11 C57_11 1_555 1_555
C63_11 C58_11 1_555 1_555
C64_11 C58_11 1_555 1_555
H39_11 C59_11 1_555 1_555
H43_11 C63_11 1_555 1_555
C67_11 C63_11 1_555 1_555
C68_11 C64_11 1_555 1_555
H44_11 C64_11 1_555 1_555
H47_11 C67_11 1_555 1_555
C70_11 C67_11 1_555 1_555
H48_11 C68_11 1_555 1_555
C72_11 C70_11 1_555 1_555
O13_11 C72_11 1_555 1_555
O29_4 C72_11 1_555 1_555
C27_11 C33_11 1_555 1_555
C49_11 C57_11 1_555 1_555
C53_11 C59_11 1_555 1_555
C68_11 C70_11 1_555 1_555
Zn15_6 O15_12 1_555 1_555
O22_12 Zn13_4 1_555 1_555
O24_12 Zn15_6 1_555 1_555
O25_12 Zn15_6 1_555 1_555
C75_12 O24_12 1_555 1_555
C78_12 C74_12 1_555 1_555
C79_12 C75_12 1_555 1_555
C83_12 C78_12 1_555 1_555
C84_12 C78_12 1_555 1_555
C85_12 C79_12 1_555 1_555
C86_12 C79_12 1_555 1_555
C91_12 C83_12 1_555 1_555
H51_12 C83_12 1_555 1_555
H52_12 C84_12 1_555 1_555
C92_12 C84_12 1_555 1_555
C93_12 C85_12 1_555 1_555
H53_12 C85_12 1_555 1_555
H54_12 C86_12 1_555 1_555
C94_12 C86_12 1_555 1_555
C98_12 C91_12 1_555 1_555
H59_12 C91_12 1_555 1_555
H60_12 C92_12 1_555 1_555
C99_12 C93_12 1_555 1_555
H61_12 C93_12 1_555 1_555
H62_12 C94_12 1_555 1_555
C102_12 C98_12 1_555 1_555
C103_12 C99_12 1_555 1_555
H67_12 C102_12 1_555 1_555
H68_12 C102_12 1_555 1_555
O31_12 C102_12 1_555 1_555
H69_12 C103_12 1_555 1_555
H70_12 C103_12 1_555 1_555
O32_12 C103_12 1_555 1_555
C106_12 O31_12 1_555 1_555
C107_12 O32_12 1_555 1_555
C111_12 C106_12 1_555 1_555
C112_12 C106_12 1_555 1_555
C113_12 C107_12 1_555 1_555
C114_12 C107_12 1_555 1_555
C120_12 C111_12 1_555 1_555
H74_12 C111_12 1_555 1_555
C121_12 C112_12 1_555 1_555
C122_12 C112_12 1_555 1_555
H75_12 C113_12 1_555 1_555
C123_12 C113_12 1_555 1_555
C124_12 C114_12 1_555 1_555
C125_12 C114_12 1_555 1_555
C133_12 C120_12 1_555 1_555
H79_12 C120_12 1_555 1_555
C134_12 C121_12 1_555 1_555
H80_12 C122_12 1_555 1_555
C135_12 C122_12 1_555 1_555
C136_12 C122_12 1_555 1_555
H81_12 C123_12 1_555 1_555
C137_12 C123_12 1_555 1_555
C138_12 C124_12 1_555 1_555
H82_12 C125_12 1_555 1_555
C139_12 C125_12 1_555 1_555
C140_12 C125_12 1_555 1_555
O35_12 C133_12 1_555 1_555
H86_12 C134_12 1_555 1_555
C149_12 C134_12 1_555 1_555
C150_12 C134_12 1_555 1_555
C152_12 C136_12 1_555 1_555
O36_12 C137_12 1_555 1_555
H87_12 C138_12 1_555 1_555
C153_12 C138_12 1_555 1_555
C154_12 C138_12 1_555 1_555
C155_12 C139_12 1_555 1_555
C165_12 C148_12 1_555 1_555
H90_12 C148_12 1_555 1_555
C166_12 O35_12 1_555 1_555
C168_12 C150_12 1_555 1_555
H92_12 C152_12 1_555 1_555
C170_12 C152_12 1_555 1_555
C171_12 O36_12 1_555 1_555
C172_12 C153_12 1_555 1_555
C173_12 C154_12 1_555 1_555
C174_12 C155_12 1_555 1_555
H93_12 C155_12 1_555 1_555
H95_12 C159_12 1_555 1_555
C179_12 C159_12 1_555 1_555
H102_12 C165_12 1_555 1_555
H103_12 C166_12 1_555 1_555
H104_12 C166_12 1_555 1_555
C184_12 C166_12 1_555 1_555
C186_12 C168_12 1_555 1_555
H106_12 C168_12 1_555 1_555
H108_12 C170_12 1_555 1_555
H109_12 C171_12 1_555 1_555
H110_12 C171_12 1_555 1_555
C187_12 C171_12 1_555 1_555
H111_12 C172_12 1_555 1_555
C188_12 C172_12 1_555 1_555
H112_12 C173_12 1_555 1_555
H113_12 C174_12 1_555 1_555
C191_12 C177_12 1_555 1_555
H119_12 C179_12 1_555 1_555
H122_12 C183_12 1_555 1_555
C195_12 C184_12 1_555 1_555
C196_12 C184_12 1_555 1_555
H124_12 C186_12 1_555 1_555
C197_12 C187_12 1_555 1_555
C198_12 C187_12 1_555 1_555
H125_12 C188_12 1_555 1_555
H127_12 C191_12 1_555 1_555
H131_12 C195_12 1_555 1_555
C203_12 C195_12 1_555 1_555
C204_12 C196_12 1_555 1_555
H132_12 C196_12 1_555 1_555
H133_12 C197_12 1_555 1_555
C205_12 C197_12 1_555 1_555
C206_12 C198_12 1_555 1_555
H134_12 C198_12 1_555 1_555
H139_12 C203_12 1_555 1_555
C210_12 C203_12 1_555 1_555
H140_12 C204_12 1_555 1_555
H141_12 C205_12 1_555 1_555
C211_12 C205_12 1_555 1_555
H142_12 C206_12 1_555 1_555
C214_12 C210_12 1_555 1_555
C215_12 C211_12 1_555 1_555
O23_6 C214_12 1_555 1_555
O44_12 C214_12 1_555 1_555
O17_4 C215_12 1_555 1_555
O26_4 C215_12 1_555 1_555
O22_12 C74_12 1_555 1_555
O27_12 C75_12 1_555 1_555
C92_12 C98_12 1_555 1_555
C94_12 C99_12 1_555 1_555
C121_12 C133_12 1_555 1_555
C124_12 C137_12 1_555 1_555
C135_12 C149_12 1_555 1_555
C136_12 C150_12 1_555 1_555
C139_12 C153_12 1_555 1_555
C140_12 C154_12 1_555 1_555
C165_12 C183_12 1_555 1_555
C170_12 C186_12 1_555 1_555
C174_12 C188_12 1_555 1_555
C179_12 C191_12 1_555 1_555
C204_12 C210_12 1_555 1_555
C206_12 C211_12 1_555 1_555
Zn9_6 O14_12 1_555 1_555
O18_12 Zn9_6 1_555 1_555
O19_12 Zn9_6 1_555 1_555
C73_12 O18_12 1_555 1_555
C77_12 C73_12 1_555 1_555
C81_12 C77_12 1_555 1_555
C82_12 C77_12 1_555 1_555
C89_12 C81_12 1_555 1_555
H49_12 C81_12 1_555 1_555
H50_12 C82_12 1_555 1_555
C90_12 C82_12 1_555 1_555
C97_12 C89_12 1_555 1_555
H57_12 C89_12 1_555 1_555
H58_12 C90_12 1_555 1_555
C101_12 C97_12 1_555 1_555
H65_12 C101_12 1_555 1_555
H66_12 C101_12 1_555 1_555
O30_12 C101_12 1_555 1_555
C105_12 O30_12 1_555 1_555
C109_12 C105_12 1_555 1_555
C110_12 C105_12 1_555 1_555
H73_12 C109_12 1_555 1_555
C117_12 C109_12 1_555 1_555
C118_12 C110_12 1_555 1_555
C119_12 C110_12 1_555 1_555
H77_12 C117_12 1_555 1_555
C129_12 C117_12 1_555 1_555
C130_12 C118_12 1_555 1_555
H78_12 C119_12 1_555 1_555
C131_12 C119_12 1_555 1_555
C132_12 C119_12 1_555 1_555
O34_12 C129_12 1_555 1_555
H85_12 C130_12 1_555 1_555
C145_12 C130_12 1_555 1_555
C146_12 C130_12 1_555 1_555
C147_12 C131_12 1_555 1_555
C161_12 O34_12 1_555 1_555
C162_12 C145_12 1_555 1_555
C163_12 C146_12 1_555 1_555
C164_12 C147_12 1_555 1_555
H89_12 C147_12 1_555 1_555
H91_12 C151_12 1_555 1_555
C169_12 C151_12 1_555 1_555
H97_12 C161_12 1_555 1_555
H98_12 C161_12 1_555 1_555
C181_12 C161_12 1_555 1_555
H99_12 C162_12 1_555 1_555
C182_12 C162_12 1_555 1_555
H100_12 C163_12 1_555 1_555
H101_12 C164_12 1_555 1_555
C185_12 C167_12 1_555 1_555
H107_12 C169_12 1_555 1_555
C193_12 C181_12 1_555 1_555
C194_12 C181_12 1_555 1_555
H121_12 C182_12 1_555 1_555
H123_12 C185_12 1_555 1_555
H129_12 C193_12 1_555 1_555
C201_12 C193_12 1_555 1_555
C202_12 C194_12 1_555 1_555
H130_12 C194_12 1_555 1_555
H137_12 C201_12 1_555 1_555
C209_12 C201_12 1_555 1_555
H138_12 C202_12 1_555 1_555
C213_12 C209_12 1_555 1_555
O16_4 C213_12 1_555 1_555
O4_4 C213_12 1_555 1_555
O21_12 C73_12 1_555 1_555
C90_12 C97_12 1_555 1_555
C118_12 C129_12 1_555 1_555
C131_12 C145_12 1_555 1_555
C132_12 C146_12 1_555 1_555
C164_12 C182_12 1_555 1_555
C169_12 C185_12 1_555 1_555
C202_12 C209_12 1_555 1_555
O28_12 Zn10_4 1_555 1_555
C80_12 C76_12 1_555 1_555
C87_12 C80_12 1_555 1_555
C88_12 C80_12 1_555 1_555
C95_12 C87_12 1_555 1_555
H55_12 C87_12 1_555 1_555
H56_12 C88_12 1_555 1_555
C96_12 C88_12 1_555 1_555
C100_12 C95_12 1_555 1_555
H63_12 C95_12 1_555 1_555
H64_12 C96_12 1_555 1_555
C104_12 C100_12 1_555 1_555
H71_12 C104_12 1_555 1_555
H72_12 C104_12 1_555 1_555
O33_12 C104_12 1_555 1_555
C108_12 O33_12 1_555 1_555
C115_12 C108_12 1_555 1_555
C116_12 C108_12 1_555 1_555
C126_12 C115_12 1_555 1_555
H76_12 C115_12 1_555 1_555
C127_12 C116_12 1_555 1_555
C128_12 C116_12 1_555 1_555
C141_12 C126_12 1_555 1_555
H83_12 C126_12 1_555 1_555
C142_12 C127_12 1_555 1_555
H84_12 C128_12 1_555 1_555
C143_12 C128_12 1_555 1_555
C144_12 C128_12 1_555 1_555
O37_12 C141_12 1_555 1_555
H88_12 C142_12 1_555 1_555
C157_12 C142_12 1_555 1_555
C158_12 C142_12 1_555 1_555
C160_12 C144_12 1_555 1_555
C175_12 C156_12 1_555 1_555
H94_12 C156_12 1_555 1_555
C176_12 O37_12 1_555 1_555
C178_12 C158_12 1_555 1_555
H96_12 C160_12 1_555 1_555
C180_12 C160_12 1_555 1_555
H114_12 C175_12 1_555 1_555
H115_12 C176_12 1_555 1_555
H116_12 C176_12 1_555 1_555
C190_12 C176_12 1_555 1_555
C192_12 C178_12 1_555 1_555
H118_12 C178_12 1_555 1_555
H120_12 C180_12 1_555 1_555
H126_12 C189_12 1_555 1_555
C199_12 C190_12 1_555 1_555
C200_12 C190_12 1_555 1_555
H128_12 C192_12 1_555 1_555
H135_12 C199_12 1_555 1_555
C207_12 C199_12 1_555 1_555
C208_12 C200_12 1_555 1_555
H136_12 C200_12 1_555 1_555
H143_12 C207_12 1_555 1_555
C212_12 C207_12 1_555 1_555
H144_12 C208_12 1_555 1_555
C216_12 C212_12 1_555 1_555
O7_6 C216_12 1_555 1_555
O48_12 C216_12 1_555 1_555
O28_12 C76_12 1_555 1_555
C96_12 C100_12 1_555 1_555
C127_12 C141_12 1_555 1_555
C143_12 C157_12 1_555 1_555
C144_12 C158_12 1_555 1_555
C175_12 C189_12 1_555 1_555
C180_12 C192_12 1_555 1_555
C208_12 C212_12 1_555 1_555
Zn12_6 O1_12 1_555 1_555
O1_12 Zn16_4 1_555 1_555
O2_12 Zn12_6 1_555 1_555
O3_12 Zn12_6 1_555 1_555
Zn16_4 O5_12 1_555 1_555
C1_12 O2_12 1_555 1_555
C2_12 O3_12 1_555 1_555
O5_12 C1_12 1_555 1_555
O6_12 Zn16_4 1_555 1_555
C3_12 C1_12 1_555 1_555
C4_12 C2_12 1_555 1_555
C5_12 C3_12 1_555 1_555
C6_12 C3_12 1_555 1_555
C7_12 C4_12 1_555 1_555
C8_12 C4_12 1_555 1_555
C9_12 C5_12 1_555 1_555
H1_12 C5_12 1_555 1_555
H2_12 C6_12 1_555 1_555
C10_12 C6_12 1_555 1_555
C11_12 C7_12 1_555 1_555
H3_12 C7_12 1_555 1_555
H4_12 C8_12 1_555 1_555
C12_12 C8_12 1_555 1_555
C13_12 C9_12 1_555 1_555
H5_12 C9_12 1_555 1_555
H6_12 C10_12 1_555 1_555
C14_12 C11_12 1_555 1_555
H7_12 C11_12 1_555 1_555
H8_12 C12_12 1_555 1_555
C15_12 C13_12 1_555 1_555
C16_12 C14_12 1_555 1_555
H9_12 C15_12 1_555 1_555
H10_12 C15_12 1_555 1_555
O9_12 C15_12 1_555 1_555
H11_12 C16_12 1_555 1_555
H12_12 C16_12 1_555 1_555
O10_12 C16_12 1_555 1_555
C17_12 O9_12 1_555 1_555
C18_12 O10_12 1_555 1_555
C19_12 C17_12 1_555 1_555
C20_12 C17_12 1_555 1_555
C21_12 C18_12 1_555 1_555
C22_12 C18_12 1_555 1_555
H13_12 C19_12 1_555 1_555
C23_12 C19_12 1_555 1_555
C24_12 C20_12 1_555 1_555
C25_12 C20_12 1_555 1_555
C26_12 C21_12 1_555 1_555
H14_12 C21_12 1_555 1_555
C27_12 C22_12 1_555 1_555
C28_12 C22_12 1_555 1_555
H15_12 C23_12 1_555 1_555
C29_12 C23_12 1_555 1_555
C30_12 C24_12 1_555 1_555
H16_12 C25_12 1_555 1_555
C31_12 C25_12 1_555 1_555
C32_12 C25_12 1_555 1_555
C33_12 C26_12 1_555 1_555
H17_12 C26_12 1_555 1_555
C34_12 C27_12 1_555 1_555
H18_12 C28_12 1_555 1_555
C35_12 C28_12 1_555 1_555
C36_12 C28_12 1_555 1_555
O11_12 C29_12 1_555 1_555
H19_12 C30_12 1_555 1_555
C37_12 C30_12 1_555 1_555
C38_12 C30_12 1_555 1_555
C39_12 C31_12 1_555 1_555
C40_12 C32_12 1_555 1_555
O12_12 C33_12 1_555 1_555
H20_12 C34_12 1_555 1_555
C41_12 C34_12 1_555 1_555
C42_12 C34_12 1_555 1_555
C43_12 C35_12 1_555 1_555
C44_12 C36_12 1_555 1_555
C45_12 O11_12 1_555 1_555
C46_12 C37_12 1_555 1_555
C47_12 C38_12 1_555 1_555
C48_12 C39_12 1_555 1_555
H21_12 C39_12 1_555 1_555
C49_12 C40_12 1_555 1_555
H22_12 C40_12 1_555 1_555
C50_12 O12_12 1_555 1_555
C51_12 C41_12 1_555 1_555
C52_12 C42_12 1_555 1_555
H23_12 C43_12 1_555 1_555
C53_12 C43_12 1_555 1_555
H24_12 C44_12 1_555 1_555
C54_12 C44_12 1_555 1_555
H25_12 C45_12 1_555 1_555
H26_12 C45_12 1_555 1_555
C55_12 C45_12 1_555 1_555
H27_12 C46_12 1_555 1_555
C56_12 C46_12 1_555 1_555
H28_12 C47_12 1_555 1_555
C57_12 C47_12 1_555 1_555
H29_12 C48_12 1_555 1_555
H30_12 C49_12 1_555 1_555
H31_12 C50_12 1_555 1_555
H32_12 C50_12 1_555 1_555
C58_12 C50_12 1_555 1_555
C59_12 C51_12 1_555 1_555
H33_12 C51_12 1_555 1_555
C60_12 C52_12 1_555 1_555
H34_12 C52_12 1_555 1_555
H35_12 C53_12 1_555 1_555
H36_12 C54_12 1_555 1_555
C61_12 C55_12 1_555 1_555
C62_12 C55_12 1_555 1_555
H37_12 C56_12 1_555 1_555
H38_12 C57_12 1_555 1_555
C63_12 C58_12 1_555 1_555
C64_12 C58_12 1_555 1_555
H39_12 C59_12 1_555 1_555
H40_12 C60_12 1_555 1_555
H41_12 C61_12 1_555 1_555
C65_12 C61_12 1_555 1_555
C66_12 C62_12 1_555 1_555
H42_12 C62_12 1_555 1_555
H43_12 C63_12 1_555 1_555
C67_12 C63_12 1_555 1_555
C68_12 C64_12 1_555 1_555
H44_12 C64_12 1_555 1_555
H45_12 C65_12 1_555 1_555
C69_12 C65_12 1_555 1_555
H46_12 C66_12 1_555 1_555
H47_12 C67_12 1_555 1_555
C70_12 C67_12 1_555 1_555
H48_12 C68_12 1_555 1_555
C71_12 C69_12 1_555 1_555
C72_12 C70_12 1_555 1_555
O13_12 C72_12 1_555 1_555
O8_4 C71_12 1_555 1_555
O20_4 C71_12 1_555 1_555
O29_6 C72_12 1_555 1_555
C2_12 O6_12 1_555 1_555
C10_12 C13_12 1_555 1_555
C12_12 C14_12 1_555 1_555
C24_12 C29_12 1_555 1_555
C27_12 C33_12 1_555 1_555
C31_12 C37_12 1_555 1_555
C32_12 C38_12 1_555 1_555
C35_12 C41_12 1_555 1_555
C36_12 C42_12 1_555 1_555
C48_12 C56_12 1_555 1_555
C49_12 C57_12 1_555 1_555
C53_12 C59_12 1_555 1_555
C54_12 C60_12 1_555 1_555
C66_12 C69_12 1_555 1_555
C68_12 C70_12 1_555 1_555
O1_12 Zn11_2 1_555 1_555
Zn14_2 O15_12 1_555 1_555

#END
