
###############################################################################
#
# This file contains modified crystal structure data generated from the
# MOF subset of the Cambridge Structural Database (CSD) v543 
# hosted by the Cambridge Crystallographic Data Centre (CCDC).
#
# This work is licensed under the Creative Commons
# Attribution-NonCommercial-ShareAlike 4.0 International License.
# To view a copy of this license, visit
# http://creativecommons.org/licenses/by-nc-sa/4.0/
# or send a letter to
# Creative Commons, PO Box 1866, Mountain View, CA 94042, USA.
#
# CIF created using the CSD Python API on 29 September 2022
# The structure has been converted into the P1 space group
# The structure has a 3D framework
# The original CSD entry WISVID is in the monoclinic crystal system
# The framework has been calculated to contain at least 10.0% void space
# The void calculation uses a probe of radius 1.32A, grid spacing 0.4
# The framework is charged, counterions have been retained in the structure
# H atom positions have been added when not included in the experimental data
#
###############################################################################

data_WISVID
_chemical_formula_moiety         '(C424 H508 Cu20 N64 O104 S20)n'
_symmetry_cell_setting           triclinic
_symmetry_space_group_name_H-M   'P 1'
_symmetry_Int_Tables_number      1
_space_group_name_Hall           'P 1'
loop_
_symmetry_equiv_pos_site_id
_symmetry_equiv_pos_as_xyz
1 x,y,z
_cell_length_a                   27.774(2)
_cell_length_b                   17.7520(10)
_cell_length_c                   30.147(2)
_cell_angle_alpha                90
_cell_angle_beta                 109.220(5)
_cell_angle_gamma                90
_cell_volume                     14035.3
loop_
_atom_site_label
_atom_site_type_symbol
_atom_site_fract_x
_atom_site_fract_y
_atom_site_fract_z
N10 N 0.07356(18) 0.3302(2) 0.31676(15)
C63 C 0.0247(2) 0.3227(4) 0.3151(2)
H67 H 0.0177 0.3232 0.3432
C66 C 0.0435(2) 0.3191(4) 0.2329(2)
H69 H 0.0513 0.3173 0.2052
C67 C 0.0821(3) 0.3283(4) 0.2752(2)
H70 H 0.1153 0.3335 0.2751
Cu8 Cu 0.13137(3) 0.34079(4) 0.38040(2)
Cu1 Cu 0.10187(3) 0.55558(4) 0.61267(2)
O1 O 0.07493(15) 0.4637(2) 0.57395(14)
O2 O 0.11286(16) 0.6574(2) 0.64548(14)
N1 N 0.07507(18) 0.5199(3) 0.66377(16)
C3 C 0.1060(2) 0.5207(4) 0.7090(2)
H1 H 0.1404 0.5312 0.7153
C4 C 0.0887(2) 0.5065(4) 0.7464(2)
H2 H 0.1113 0.5076 0.7770
C5 C 0.0373(2) 0.4908(3) 0.7381(2)
C6 C 0.0063(2) 0.4869(4) 0.6915(2)
C7 C 0.0260(2) 0.5018(3) 0.6559(2)
H4 H 0.0043 0.4990 0.6250
C8 C 0.0154(3) 0.4833(3) 0.7776(2)
H6 H 0.0383 0.5081 0.8052
C9 C 0.0064(2) 0.4025(3) 0.7911(2)
H7 H 0.0391 0.3772 0.8039
N3 N 0.13790(18) 0.5893(3) 0.56752(17)
C16 C 0.1288(2) 0.6560(3) 0.5451(2)
H15 H 0.1049 0.6880 0.5507
C17 C 0.1531(2) 0.6794(3) 0.5142(2)
H16 H 0.1455 0.7263 0.4999
C18 C 0.1885(2) 0.6339(3) 0.50450(19)
C19 C 0.1965(2) 0.5627(3) 0.5265(2)
H17 H 0.2189 0.5288 0.5201
C20 C 0.1715(2) 0.5433(4) 0.5570(2)
H18 H 0.1780 0.4963 0.5713
C21 C 0.2169(2) 0.6575(3) 0.4716(2)
H19 H 0.2078 0.7091 0.4617
H20 H 0.2060 0.6259 0.4438
C22 C 0.2750(2) 0.6519(4) 0.49396(19)
H21 H 0.2857 0.6820 0.5224
H22 H 0.2841 0.6000 0.5028
C23 C 0.3036(2) 0.6785(4) 0.4615(2)
H23 H 0.3399 0.6723 0.4777
H24 H 0.2972 0.7319 0.4556
N4 N 0.26706(17) 0.5649(3) 0.32688(16)
C24 C 0.2680(2) 0.6402(3) 0.3308(2)
H25 H 0.2609 0.6688 0.3036
C25 C 0.2787(3) 0.6772(3) 0.3727(2)
H26 H 0.2786 0.7296 0.3732
C26 C 0.2897(2) 0.6378(3) 0.4144(2)
C27 C 0.2894(3) 0.5593(4) 0.4109(2)
H27 H 0.2967 0.5299 0.4379
C28 C 0.2784(2) 0.5252(3) 0.3674(2)
H28 H 0.2788 0.4729 0.3660
S2 S 0.18244(6) 0.39761(9) 0.65532(5)
O11 O 0.1565(2) 0.3700(3) 0.68801(16)
O12 O 0.23505(17) 0.3705(3) 0.66883(19)
O13 O 0.18060(16) 0.4813(2) 0.65425(15)
O14 O 0.15299(17) 0.3692(2) 0.60761(14)
O20 O 0.02268(16) 0.7233(2) 0.60101(15)
O21 O 0.01948(14) 0.6031(2) 0.56310(14)
Cu6 Cu 0.25780(3) 0.51056(4) 0.26445(2)
H115 H 0.0901808 0.661817 0.664849
H116 H 0.148963 0.661896 0.665996
H121 H 0.0616269 0.477806 0.540216
H122 H 0.102792 0.426275 0.578969
H44 H 0.3146 0.4731 0.0008
H47 H 0.2730 0.2956 0.0045
C48 C 0.2625(2) 0.3879(3) 0.0401(2)
H49 H 0.2485 0.4381 0.0319
H50 H 0.2982 0.3933 0.0588
C49 C 0.2348(3) 0.3496(4) 0.0693(2)
H51 H 0.1989 0.3470 0.0511
H52 H 0.2473 0.2983 0.0755
N8 N 0.25149(18) 0.4577(3) 0.20232(16)
C50 C 0.2477(3) 0.4986(4) 0.1643(2)
H53 H 0.2483 0.5508 0.1665
C51 C 0.2429(3) 0.4650(4) 0.1213(2)
H54 H 0.2413 0.4953 0.0957
C52 C 0.2404(2) 0.3873(3) 0.1157(2)
C53 C 0.2435(2) 0.3459(4) 0.1552(2)
H55 H 0.2418 0.2937 0.1536
C54 C 0.2491(2) 0.3824(4) 0.1974(2)
H56 H 0.2514 0.3532 0.2237
C56 C 0.8610(2) 0.0729(3) 0.1582(2)
H58 H 0.8496 0.0985 0.1798
C57 C 0.8823(2) 0.1131(3) 0.12975(19)
C58 C 0.8975(2) 0.0721(3) 0.09784(19)
H59 H 0.9116 0.0967 0.0778
C60 C 0.8906(2) 0.1974(3) 0.1350(2)
H61 H 0.8603 0.2213 0.1378
H62 H 0.8963 0.2174 0.1072
C61 C 0.9365(2) 0.2157(3) 0.1785(2)
H63 H 0.9660 0.1886 0.1762
H64 H 0.9297 0.1972 0.2061
C62 C 0.9500(2) 0.2997(3) 0.1856(2)
H65 H 0.9600 0.3179 0.1595
H66 H 0.9202 0.3279 0.1859
C64 C 0.9846(2) 0.3146(4) 0.2739(2)
H68 H 0.9516 0.3103 0.2747
C65 C 0.9931(2) 0.3126(3) 0.2312(2)
Cu2 Cu 0.74220(3) 0.48944(4) 0.73555(2)
Cu3 Cu 0.36265(5) 0.48941(5) 0.85705(4)
O3 O 0.4345(2) 0.5149(4) 0.92192(17)
O4 O 0.3368(2) 0.6003(3) 0.8691(2)
O5 O 0.2911(4) 0.4826(4) 0.7942(3)
O6 O 0.3735(3) 0.3794(4) 0.8332(3)
C1 C 0.4170(4) 0.3701(4) 0.8747(3)
C2 C 0.4217(3) 0.2869(4) 0.8874(3)
H3 H 0.9720 0.4743 0.6842
H5 H 0.9831 0.5101 0.7688
H8 H 0.9867 0.3755 0.7630
C10 C 0.9781(2) 0.3988(4) 0.8275(2)
H9 H 0.9810 0.3483 0.8404
H10 H 0.9944 0.4331 0.8532
N2 N 0.81758(17) 0.4569(3) 0.76462(15)
C11 C 0.8540(2) 0.5101(3) 0.7798(2)
H11 H 0.8442 0.5604 0.7760
C12 C 0.9055(2) 0.4937(3) 0.8009(2)
H12 H 0.9289 0.5327 0.8111
C13 C 0.9223(2) 0.4192(3) 0.80681(19)
C14 C 0.8844(2) 0.3645(3) 0.7921(2)
H13 H 0.8933 0.3138 0.7957
C15 C 0.8337(2) 0.3850(3) 0.7723(2)
H14 H 0.8094 0.3469 0.7638
N5 N 0.66645(19) 0.5183(3) 0.70847(17)
C29 C 0.6493(2) 0.5894(4) 0.6993(2)
H29 H 0.6729 0.6285 0.7056
C30 C 0.5974(2) 0.6071(4) 0.6805(2)
H30 H 0.5871 0.6570 0.6746
C31 C 0.5616(2) 0.5503(4) 0.6708(2)
C32 C 0.5797(2) 0.4765(4) 0.6798(2)
H31 H 0.5569 0.4365 0.6734
C33 C 0.6312(2) 0.4627(4) 0.6980(2)
H32 H 0.6423 0.4131 0.7034
C34 C 0.5048(2) 0.5653(5) 0.6510(2)
H33 H 0.4993 0.6182 0.6429
H34 H 0.4905 0.5362 0.6224
C35 C 0.4765(2) 0.5446(4) 0.6861(2)
H35 H 0.4874 0.4951 0.6991
H36 H 0.4401 0.5423 0.6692
C36 C 0.4863(3) 0.6012(4) 0.7262(2)
H37 H 0.4751 0.6508 0.7133
H38 H 0.5226 0.6038 0.7431
N6 N 0.4029(2) 0.5312(3) 0.8172(2)
C37 C 0.4469(3) 0.4985(4) 0.8189(2)
H39 H 0.4591 0.4590 0.8399
C38 C 0.4751(3) 0.5204(4) 0.7913(2)
H40 H 0.5053 0.4955 0.7936
C39 C 0.4586(2) 0.5794(4) 0.7599(2)
C40 C 0.4135(2) 0.6146(4) 0.7589(2)
H41 H 0.4009 0.6550 0.7388
C41 C 0.3876(3) 0.5889(4) 0.7879(3)
H42 H 0.3577 0.6134 0.7869
N7 N 0.3281(2) 0.4447(3) 0.9002(2)
C42 C 0.3306(3) 0.4785(4) 0.9404(3)
H43 H 0.3468 0.5250 0.9471
C43 C 0.3103(3) 0.4481(4) 0.9727(2)
C44 C 0.2837(2) 0.3806(3) 0.9634(2)
C45 C 0.2812(3) 0.3453(4) 0.9211(2)
H45 H 0.2644 0.2994 0.9133
C46 C 0.3030(3) 0.3777(4) 0.8912(3)
H46 H 0.3006 0.3528 0.8634
C47 C 0.2584(3) 0.3453(4) 0.9957(2)
H48 H 0.2226 0.3385 0.9781
Cu4 Cu 0.62241(3) 0.33034(4) 0.86552(3)
N12 N 0.62730(19) 0.2185(3) 0.88095(17)
C76 C 0.6045(2) 0.1861(3) 0.9094(2)
H81 H 0.5827 0.2151 0.9202
C77 C 0.6123(2) 0.1111(3) 0.9233(2)
H82 H 0.5964 0.0910 0.9433
C78 C 0.6444(2) 0.0655(3) 0.9069(2)
C79 C 0.6667(2) 0.0995(3) 0.8768(2)
H83 H 0.6877 0.0714 0.8646
C80 C 0.6580(3) 0.1746(4) 0.8651(2)
H84 H 0.6739 0.1959 0.8454
N15 N 0.61736(18) 0.4443(3) 0.85699(17)
C94 C 0.6266(2) 0.4795(3) 0.8216(2)
H99 H 0.6382 0.4510 0.8012
C95 C 0.6200(3) 0.5564(4) 0.8133(2)
H100 H 0.6273 0.5779 0.7881
C96 C 0.6025(2) 0.6016(3) 0.8428(2)
C97 C 0.5948(3) 0.5647(4) 0.8807(2)
H101 H 0.5844 0.5920 0.9022
C98 C 0.6024(3) 0.4884(4) 0.8867(2)
H102 H 0.5970 0.4658 0.9125
C99 C 0.5892(3) 0.6848(3) 0.8340(2)
H103 H 0.5527 0.6885 0.8179
H104 H 0.5962 0.7092 0.8643
C100 C 0.6155(2) 0.7285(4) 0.8065(2)
H105 H 0.6114 0.7027 0.7771
H106 H 0.6517 0.7309 0.8240
C101 C 0.5940(2) 0.8099(3) 0.7959(2)
H107 H 0.5916 0.8319 0.8246
H108 H 0.6176 0.8403 0.7859
N16 N 0.44612(19) 0.8173(3) 0.68671(17)
C102 C 0.4501(2) 0.8208(4) 0.7324(2)
H109 H 0.4206 0.8249 0.7403
C103 C 0.4972(3) 0.8184(4) 0.7684(2)
H110 H 0.4983 0.8210 0.7995
C104 C 0.5420(2) 0.8123(3) 0.7583(2)
C105 C 0.5378(2) 0.8069(3) 0.7114(2)
H111 H 0.5670 0.8013 0.7029
C106 C 0.4902(2) 0.8097(4) 0.6769(2)
H112 H 0.4884 0.8061 0.6456
S1 S 0.69293(6) 0.30201(8) 0.77647(5)
O7 O 0.7280(2) 0.2379(3) 0.7913(2)
O8 O 0.66997(16) 0.3202(2) 0.81279(13)
O9 O 0.6520(2) 0.2815(3) 0.73256(16)
O10 O 0.72120(15) 0.3676(2) 0.76824(14)
S3 S 0.76612(5) 0.66927(8) 0.67645(5)
O15 O 0.71619(15) 0.6708(3) 0.63914(15)
O16 O 0.77028(16) 0.6032(2) 0.70725(13)
O17 O 0.77268(19) 0.7384(2) 0.70549(16)
O18 O 0.80715(15) 0.6662(2) 0.65544(14)
S4 S 0.98949(6) 0.67144(8) 0.56481(5)
O19 O 0.9738(2) 0.7089(3) 0.51859(15)
O22 O 0.94404(14) 0.6510(2) 0.57701(14)
N17 N 0.73294(17) 0.4351(3) 0.67312(16)
N18 N 0.74851(18) 0.5423(3) 0.79768(16)
N19 N 0.68625(19) 0.3444(3) 0.92307(17)
N20 N 0.55388(19) 0.3173(3) 0.81329(17)
Cu10 Cu 0.37759(3) 0.83034(4) 0.63448(3)
Cu11 Cu 0.86863(3) 0.65921(4) 0.61960(2)
H113 H 0.423951 0.523929 0.949905
H114 H 0.458142 0.471251 0.927927
H117 H 0.295199 0.513764 0.768323
H118 H 0.28479 0.429405 0.783704
H119 H 0.361766 0.638728 0.866612
H120 H 0.30306 0.610708 0.845234
H123 H 0.426653 0.254578 0.858504
H124 H 0.454536 0.278308 0.918883
H125 H 0.387277 0.268227 0.893909
H126 H 0.411884 0.402726 0.903413
H127 H 0.451259 0.389077 0.868008
Cu5 Cu 0.86863(3) 0.84079(4) 0.11960(2)
N9 N 0.87201(17) 0.9554(2) 0.12374(15)
C55 C 0.8564(2) 0.9948(3) 0.15469(19)
H57 H 0.8421 0.9692 0.1742
C59 C 0.8921(2) 0.9947(3) 0.09553(19)
H60 H 0.9026 0.9685 0.0737
N11 N 0.81420(18) 0.8507(3) 0.05414(16)
C68 C 0.8251(2) 0.8478(3) 0.0136(2)
H71 H 0.8591 0.8439 0.0153
C71 C 0.7257(2) 0.8611(3) 0.0071(2)
H73 H 0.6920 0.8662 0.0061
C72 C 0.7644(2) 0.8585(3) 0.0500(2)
H74 H 0.7558 0.8622 0.0772
N13 N 0.87094(18) 0.7271(3) 0.11210(16)
C81 C 0.8925(2) 0.6943(3) 0.0832(2)
H85 H 0.9066 0.7247 0.0656
C82 C 0.8944(2) 0.6164(3) 0.0786(2)
H86 H 0.9095 0.5959 0.0580
C83 C 0.8741(2) 0.5692(3) 0.1043(2)
C84 C 0.8517(2) 0.6036(3) 0.1340(2)
H87 H 0.8366 0.5744 0.1514
C85 C 0.8517(2) 0.6809(3) 0.1376(2)
H88 H 0.8377 0.7025 0.1587
C86 C 0.8729(2) 0.4848(3) 0.0970(2)
H89 H 0.8701 0.4595 0.1247
H90 H 0.9042 0.4685 0.0925
C87 C 0.8213(2) 0.3790(3) 0.0440(2)
H91 H 0.8514 0.3600 0.0380
H92 H 0.8182 0.3530 0.0712
C88 C 0.8270(2) 0.4634(3) 0.0538(2)
H93 H 0.7961 0.4820 0.0583
H94 H 0.8305 0.4885 0.0264
C91 C 0.7747(2) 0.3639(3) 0.0019(2)
C92 C 0.7261(2) 0.3644(3) 0.0055(2)
H97 H 0.7222 0.3711 0.0347
N21 N 0.92644(18) 0.8302(2) 0.18324(15)
O23 O 0.80715(15) 0.8338(2) 0.15544(14)
C69 C 0.7882(2) 0.8501(3) 0.9698(2)
H72 H 0.7978 0.8477 0.9430
C70 C 0.7368(2) 0.8562(3) 0.96531(19)
C73 C 0.6532(2) 0.9838(3) 0.9221(2)
H75 H 0.6203 0.9601 0.9165
H76 H 0.6711 0.9825 0.9556
C74 C 0.6833(2) 0.9370(3) 0.8977(2)
H77 H 0.7150 0.9626 0.9008
H78 H 0.6639 0.9339 0.8644
C75 C 0.6953(2) 0.8571(3) 0.9172(2)
H79 H 0.6645 0.8345 0.9199
H80 H 0.7063 0.8269 0.8955
C89 C 0.7328(2) 0.3435(4) 0.9189(2)
H95 H 0.7356 0.3368 0.8893
C90 C 0.7776(2) 0.3524(4) 0.9574(2)
H96 H 0.8092 0.3506 0.9530
C93 C 0.6833(2) 0.3550(3) 0.9660(2)
H98 H 0.6513 0.3562 0.9696
O1_2 O 0.07493(15) 0.0363(2) 0.07395(14)
C5_2 C 0.0373(2) 0.0092(3) 0.2381(2)
C6_2 C 0.0063(2) 0.0131(4) 0.1915(2)
H4_2 H 0.0043 0.0010 0.1250
C8_2 C 0.0154(3) 0.0167(3) 0.2776(2)
C9_2 C 0.0064(2) 0.0975(3) 0.2911(2)
H7_2 H 0.0391 0.1228 0.3039
H18_2 H 0.1780 0.0037 0.0713
N10_2 N 0.07356(18) 0.1698(2) 0.81676(15)
C63_2 C 0.0247(2) 0.1773(4) 0.8151(2)
H67_2 H 0.0177 0.1768 0.8432
C66_2 C 0.0435(2) 0.1809(4) 0.7329(2)
H69_2 H 0.0513 0.1827 0.7052
C67_2 C 0.0821(3) 0.1717(4) 0.7752(2)
H70_2 H 0.1153 0.1665 0.7751
S2_2 S 0.18244(6) 0.10239(9) 0.15532(5)
O11_2 O 0.1565(2) 0.1300(3) 0.18801(16)
O12_2 O 0.23505(17) 0.1295(3) 0.16883(19)
O13_2 O 0.18060(16) 0.0187(2) 0.15425(15)
O14_2 O 0.15299(17) 0.1308(2) 0.10761(14)
Cu8_2 Cu 0.13137(3) 0.15921(4) 0.88040(2)
H121_2 H 0.0616269 0.0221937 0.0402165
H122_2 H 0.102792 0.0737254 0.0789686
H16_2 H 0.1455 0.7737 0.9999
C21_2 C 0.2169(2) 0.8425(3) 0.9716(2)
H19_2 H 0.2078 0.7909 0.9617
H20_2 H 0.2060 0.8741 0.9438
C22_2 C 0.2750(2) 0.8481(4) 0.99396(19)
C23_2 C 0.3036(2) 0.8215(4) 0.9615(2)
H23_2 H 0.3399 0.8277 0.9777
H24_2 H 0.2972 0.7681 0.9556
N4_2 N 0.26706(17) 0.9351(3) 0.82688(16)
C24_2 C 0.2680(2) 0.8598(3) 0.8308(2)
H25_2 H 0.2609 0.8312 0.8036
C25_2 C 0.2787(3) 0.8228(3) 0.8727(2)
H26_2 H 0.2786 0.7704 0.8732
C26_2 C 0.2897(2) 0.8622(3) 0.9144(2)
C27_2 C 0.2894(3) 0.9407(4) 0.9109(2)
H27_2 H 0.2967 0.9701 0.9379
C28_2 C 0.2784(2) 0.9748(3) 0.8674(2)
Cu6_2 Cu 0.25780(3) 0.98944(4) 0.76445(2)
C86_2 C 0.8729(2) 0.0152(3) 0.5970(2)
H89_2 H 0.8701 0.0405 0.6247
H90_2 H 0.9042 0.0315 0.5925
C87_2 C 0.8213(2) 0.1210(3) 0.5440(2)
H91_2 H 0.8514 0.1400 0.5380
H92_2 H 0.8182 0.1470 0.5712
C88_2 C 0.8270(2) 0.0366(3) 0.5538(2)
H93_2 H 0.7961 0.0180 0.5583
H94_2 H 0.8305 0.0115 0.5264
N14 N 0.68625(19) 0.1556(3) 0.42307(17)
C89_2 C 0.7328(2) 0.1565(4) 0.4189(2)
H95_2 H 0.7356 0.1632 0.3893
C90_2 C 0.7776(2) 0.1476(4) 0.4574(2)
H96_2 H 0.8092 0.1494 0.4530
C91_2 C 0.7747(2) 0.1361(3) 0.5019(2)
C92_2 C 0.7261(2) 0.1356(3) 0.5055(2)
H97_2 H 0.7222 0.1289 0.5347
C93_2 C 0.6833(2) 0.1450(3) 0.4660(2)
H98_2 H 0.6513 0.1438 0.4696
Cu9 Cu 0.62241(3) 0.16966(4) 0.36552(3)
Cu2_2 Cu 0.74220(3) 0.01056(4) 0.23555(2)
Cu3_2 Cu 0.36265(5) 0.01059(5) 0.35705(4)
O5_2 O 0.2911(4) 0.0174(4) 0.2942(3)
O6_2 O 0.3735(3) 0.1206(4) 0.3332(3)
C1_2 C 0.4170(4) 0.1299(4) 0.3747(3)
C2_2 C 0.4217(3) 0.2131(4) 0.3874(3)
H3_2 H 0.9720 0.0257 0.1842
H8_2 H 0.9867 0.1245 0.2630
C10_2 C 0.9781(2) 0.1012(4) 0.3275(2)
H9_2 H 0.9810 0.1517 0.3404
H10_2 H 0.9944 0.0669 0.3532
N2_2 N 0.81758(17) 0.0431(3) 0.26462(15)
C12_2 C 0.9055(2) 0.0063(3) 0.3009(2)
C13_2 C 0.9223(2) 0.0808(3) 0.30681(19)
C14_2 C 0.8844(2) 0.1355(3) 0.2921(2)
H13_2 H 0.8933 0.1862 0.2957
C15_2 C 0.8337(2) 0.1150(3) 0.2723(2)
H14_2 H 0.8094 0.1531 0.2638
C32_2 C 0.5797(2) 0.0235(4) 0.1798(2)
H31_2 H 0.5569 0.0635 0.1734
C33_2 C 0.6312(2) 0.0373(4) 0.1980(2)
H32_2 H 0.6423 0.0869 0.2034
H35_2 H 0.4874 0.0049 0.1991
C37_2 C 0.4469(3) 0.0015(4) 0.3189(2)
H39_2 H 0.4591 0.0410 0.3399
H40_2 H 0.5053 0.0045 0.2936
N7_2 N 0.3281(2) 0.0553(3) 0.4002(2)
C42_2 C 0.3306(3) 0.0215(4) 0.4404(3)
C43_2 C 0.3103(3) 0.0519(4) 0.4727(2)
H44_2 H 0.3146 0.0269 0.5008
C44_2 C 0.2837(2) 0.1194(3) 0.4634(2)
C45_2 C 0.2812(3) 0.1547(4) 0.4211(2)
H45_2 H 0.2644 0.2006 0.4133
C46_2 C 0.3030(3) 0.1223(4) 0.3912(3)
H46_2 H 0.3006 0.1472 0.3634
C47_2 C 0.2584(3) 0.1547(4) 0.4957(2)
H47_2 H 0.2730 0.2044 0.5045
H48_2 H 0.2226 0.1615 0.4781
C48_2 C 0.2625(2) 0.1121(3) 0.5401(2)
H49_2 H 0.2485 0.0619 0.5319
H50_2 H 0.2982 0.1067 0.5588
C49_2 C 0.2348(3) 0.1504(4) 0.5693(2)
H51_2 H 0.1989 0.1530 0.5511
H52_2 H 0.2473 0.2017 0.5755
N8_2 N 0.25149(18) 0.0423(3) 0.70232(16)
C50_2 C 0.2477(3) 0.0014(4) 0.6643(2)
C51_2 C 0.2429(3) 0.0350(4) 0.6213(2)
H54_2 H 0.2413 0.0047 0.5957
C52_2 C 0.2404(2) 0.1127(3) 0.6157(2)
C53_2 C 0.2435(2) 0.1541(4) 0.6552(2)
H55_2 H 0.2418 0.2063 0.6536
C54_2 C 0.2491(2) 0.1176(4) 0.6974(2)
H56_2 H 0.2514 0.1468 0.7237
N9_2 N 0.87201(17) 0.5446(2) 0.62374(15)
C55_2 C 0.8564(2) 0.5052(3) 0.65469(19)
H57_2 H 0.8421 0.5308 0.6742
C56_2 C 0.8610(2) 0.4271(3) 0.6582(2)
H58_2 H 0.8496 0.4015 0.6798
C57_2 C 0.8823(2) 0.3869(3) 0.62975(19)
C58_2 C 0.8975(2) 0.4279(3) 0.59784(19)
H59_2 H 0.9116 0.4033 0.5778
C59_2 C 0.8921(2) 0.5053(3) 0.59553(19)
H60_2 H 0.9026 0.5315 0.5737
C60_2 C 0.8906(2) 0.3026(3) 0.6350(2)
H61_2 H 0.8603 0.2787 0.6378
H62_2 H 0.8963 0.2826 0.6072
C61_2 C 0.9365(2) 0.2843(3) 0.6785(2)
H63_2 H 0.9660 0.3114 0.6762
H64_2 H 0.9297 0.3028 0.7061
C62_2 C 0.9500(2) 0.2003(3) 0.6856(2)
H65_2 H 0.9600 0.1821 0.6595
H66_2 H 0.9202 0.1721 0.6859
C64_2 C 0.9846(2) 0.1854(4) 0.7739(2)
H68_2 H 0.9516 0.1897 0.7747
C65_2 C 0.9931(2) 0.1874(3) 0.7312(2)
N11_2 N 0.81420(18) 0.6493(3) 0.55414(16)
C68_2 C 0.8251(2) 0.6522(3) 0.5136(2)
H71_2 H 0.8591 0.6561 0.5153
C69_2 C 0.7882(2) 0.6499(3) 0.4698(2)
H72_2 H 0.7978 0.6523 0.4430
C70_2 C 0.7368(2) 0.6438(3) 0.46531(19)
C71_2 C 0.7257(2) 0.6389(3) 0.5071(2)
H73_2 H 0.6920 0.6338 0.5061
C72_2 C 0.7644(2) 0.6415(3) 0.5500(2)
H74_2 H 0.7558 0.6378 0.5772
C73_2 C 0.6532(2) 0.5162(3) 0.4221(2)
H75_2 H 0.6203 0.5399 0.4165
H76_2 H 0.6711 0.5175 0.4556
C74_2 C 0.6833(2) 0.5630(3) 0.3977(2)
H77_2 H 0.7150 0.5374 0.4008
H78_2 H 0.6639 0.5661 0.3644
C75_2 C 0.6953(2) 0.6429(3) 0.4172(2)
H79_2 H 0.6645 0.6655 0.4199
H80_2 H 0.7063 0.6731 0.3955
N12_2 N 0.62730(19) 0.2815(3) 0.38095(17)
C76_2 C 0.6045(2) 0.3139(3) 0.4094(2)
H81_2 H 0.5827 0.2849 0.4202
C77_2 C 0.6123(2) 0.3889(3) 0.4233(2)
H82_2 H 0.5964 0.4090 0.4433
C78_2 C 0.6444(2) 0.4345(3) 0.4069(2)
C79_2 C 0.6667(2) 0.4005(3) 0.3768(2)
H83_2 H 0.6877 0.4286 0.3646
C80_2 C 0.6580(3) 0.3254(4) 0.3651(2)
H84_2 H 0.6739 0.3041 0.3454
N13_2 N 0.87094(18) 0.7729(3) 0.61210(16)
C81_2 C 0.8925(2) 0.8057(3) 0.5832(2)
H85_2 H 0.9066 0.7753 0.5656
C82_2 C 0.8944(2) 0.8836(3) 0.5786(2)
H86_2 H 0.9095 0.9041 0.5580
C83_2 C 0.8741(2) 0.9308(3) 0.6043(2)
C84_2 C 0.8517(2) 0.8964(3) 0.6340(2)
H87_2 H 0.8366 0.9256 0.6514
C85_2 C 0.8517(2) 0.8191(3) 0.6376(2)
H88_2 H 0.8377 0.7975 0.6587
N15_2 N 0.61736(18) 0.0557(3) 0.35699(17)
C94_2 C 0.6266(2) 0.0205(3) 0.3216(2)
H99_2 H 0.6382 0.0490 0.3012
C98_2 C 0.6024(3) 0.0116(4) 0.3867(2)
H102_2 H 0.5970 0.0342 0.4125
S1_2 S 0.69293(6) 0.19799(8) 0.27647(5)
O7_2 O 0.7280(2) 0.2621(3) 0.2913(2)
O8_2 O 0.66997(16) 0.1798(2) 0.31279(13)
O9_2 O 0.6520(2) 0.2185(3) 0.23256(16)
O10_2 O 0.72120(15) 0.1324(2) 0.26824(14)
N17_2 N 0.73294(17) 0.0649(3) 0.17312(16)
N20_2 N 0.55388(19) 0.1827(3) 0.31329(17)
N21_2 N 0.92644(18) 0.6698(2) 0.68324(15)
H114_2 H 0.458142 0.0287486 0.427927
H118_2 H 0.28479 0.0705947 0.283704
H123_2 H 0.426653 0.245422 0.358504
H124_2 H 0.454536 0.221692 0.418883
H125_2 H 0.387277 0.231773 0.393909
H126_2 H 0.411884 0.0972744 0.403413
H127_2 H 0.451259 0.110923 0.368008
O3_2 O 0.4345(2) 0.9851(4) 0.42192(17)
O4_2 O 0.3368(2) 0.8997(3) 0.3691(2)
H5_2 H 0.9831 0.9899 0.2688
C11_2 C 0.8540(2) 0.9899(3) 0.2798(2)
H11_2 H 0.8442 0.9396 0.2760
H12_2 H 0.9289 0.9673 0.3111
N5_2 N 0.66645(19) 0.9817(3) 0.20847(17)
C29_2 C 0.6493(2) 0.9106(4) 0.1993(2)
H29_2 H 0.6729 0.8715 0.2056
C30_2 C 0.5974(2) 0.8929(4) 0.1805(2)
H30_2 H 0.5871 0.8430 0.1746
C31_2 C 0.5616(2) 0.9497(4) 0.1708(2)
C34_2 C 0.5048(2) 0.9347(5) 0.1510(2)
H33_2 H 0.4993 0.8818 0.1429
H34_2 H 0.4905 0.9638 0.1224
C35_2 C 0.4765(2) 0.9554(4) 0.1861(2)
H36_2 H 0.4401 0.9577 0.1692
C36_2 C 0.4863(3) 0.8988(4) 0.2262(2)
H37_2 H 0.4751 0.8492 0.2133
H38_2 H 0.5226 0.8962 0.2431
N6_2 N 0.4029(2) 0.9688(3) 0.3172(2)
C38_2 C 0.4751(3) 0.9796(4) 0.2913(2)
C39_2 C 0.4586(2) 0.9206(4) 0.2599(2)
C40_2 C 0.4135(2) 0.8854(4) 0.2589(2)
H41_2 H 0.4009 0.8450 0.2388
C41_2 C 0.3876(3) 0.9111(4) 0.2879(3)
H42_2 H 0.3577 0.8866 0.2869
H43_2 H 0.3468 0.9750 0.4471
H53_2 H 0.2483 0.9492 0.6665
C95_2 C 0.6200(3) 0.9436(4) 0.3133(2)
H100_2 H 0.6273 0.9221 0.2881
C96_2 C 0.6025(2) 0.8984(3) 0.3428(2)
C97_2 C 0.5948(3) 0.9353(4) 0.3807(2)
H101_2 H 0.5844 0.9080 0.4022
C99_2 C 0.5892(3) 0.8152(3) 0.3340(2)
H103_2 H 0.5527 0.8115 0.3179
H104_2 H 0.5962 0.7908 0.3643
C100_2 C 0.6155(2) 0.7715(4) 0.3065(2)
H105_2 H 0.6114 0.7973 0.2771
H106_2 H 0.6517 0.7691 0.3240
C101_2 C 0.5940(2) 0.6901(3) 0.2959(2)
H107_2 H 0.5916 0.6681 0.3246
H108_2 H 0.6176 0.6597 0.2859
N16_2 N 0.44612(19) 0.6827(3) 0.18671(17)
C102_2 C 0.4501(2) 0.6792(4) 0.2324(2)
H109_2 H 0.4206 0.6751 0.2403
C103_2 C 0.4972(3) 0.6816(4) 0.2684(2)
H110_2 H 0.4983 0.6790 0.2995
C104_2 C 0.5420(2) 0.6877(3) 0.2583(2)
C105_2 C 0.5378(2) 0.6931(3) 0.2114(2)
H111_2 H 0.5670 0.6987 0.2029
C106_2 C 0.4902(2) 0.6903(4) 0.1769(2)
H112_2 H 0.4884 0.6939 0.1456
S3_2 S 0.76612(5) 0.83073(8) 0.17645(5)
O15_2 O 0.71619(15) 0.8292(3) 0.13914(15)
O16_2 O 0.77028(16) 0.8968(2) 0.20725(13)
O17_2 O 0.77268(19) 0.7616(2) 0.20549(16)
S4_2 S 0.98949(6) 0.82856(8) 0.06481(5)
O19_2 O 0.9738(2) 0.7911(3) 0.01859(15)
O22_2 O 0.94404(14) 0.8490(2) 0.07701(14)
N18_2 N 0.74851(18) 0.9577(3) 0.29768(16)
Cu10_2 Cu 0.37759(3) 0.66966(4) 0.13448(3)
H113_2 H 0.423951 0.976071 0.449905
H117_2 H 0.295199 0.986236 0.268323
H119_2 H 0.361766 0.861272 0.366612
H120_2 H 0.30306 0.889292 0.345234
C69_3 C 0.2118(2) 0.1499(3) 0.0302(2)
H72_3 H 0.2022 0.1523 0.0570
C70_3 C 0.2632(2) 0.1438(3) 0.03469(19)
C73_3 C 0.3468(2) 0.0162(3) 0.0779(2)
H75_3 H 0.3797 0.0399 0.0835
H76_3 H 0.3289 0.0175 0.0444
C74_3 C 0.3167(2) 0.0630(3) 0.1023(2)
H77_3 H 0.2850 0.0374 0.0992
H78_3 H 0.3361 0.0661 0.1356
C75_3 C 0.3047(2) 0.1429(3) 0.0828(2)
H79_3 H 0.3355 0.1655 0.0801
H80_3 H 0.2937 0.1731 0.1045
N14_2 N 0.31375(19) 0.6556(3) 0.07693(17)
C89_3 C 0.2672(2) 0.6565(4) 0.0811(2)
H95_3 H 0.2644 0.6632 0.1107
C90_3 C 0.2224(2) 0.6476(4) 0.0426(2)
H96_3 H 0.1908 0.6494 0.0470
C93_3 C 0.3167(2) 0.6450(3) 0.0340(2)
H98_3 H 0.3487 0.6438 0.0304
N9_3 N 0.12799(17) 0.0446(2) 0.87626(15)
C55_3 C 0.1436(2) 0.0052(3) 0.84531(19)
H57_3 H 0.1579 0.0308 0.8258
C59_3 C 0.1079(2) 0.0053(3) 0.90447(19)
H60_3 H 0.0974 0.0315 0.9263
N11_3 N 0.18580(18) 0.1493(3) 0.94586(16)
C68_3 C 0.1749(2) 0.1522(3) 0.9864(2)
H71_3 H 0.1409 0.1561 0.9847
C71_3 C 0.2743(2) 0.1389(3) 0.9929(2)
H73_3 H 0.3080 0.1338 0.9939
C72_3 C 0.2356(2) 0.1415(3) 0.9500(2)
H74_3 H 0.2442 0.1378 0.9228
N13_3 N 0.12906(18) 0.2729(3) 0.88790(16)
C81_3 C 0.1075(2) 0.3057(3) 0.9168(2)
H85_3 H 0.0934 0.2753 0.9344
C82_3 C 0.1056(2) 0.3836(3) 0.9214(2)
H86_3 H 0.0905 0.4041 0.9420
C83_3 C 0.1259(2) 0.4308(3) 0.8957(2)
C84_3 C 0.1483(2) 0.3964(3) 0.8660(2)
H87_3 H 0.1634 0.4256 0.8486
C85_3 C 0.1483(2) 0.3191(3) 0.8624(2)
H88_3 H 0.1623 0.2975 0.8413
C86_3 C 0.1271(2) 0.5152(3) 0.9030(2)
H89_3 H 0.1299 0.5405 0.8753
H90_3 H 0.0958 0.5315 0.9075
C87_3 C 0.1787(2) 0.6210(3) 0.9560(2)
H91_3 H 0.1486 0.6400 0.9620
H92_3 H 0.1818 0.6470 0.9288
C88_3 C 0.1730(2) 0.5366(3) 0.9462(2)
H93_3 H 0.2039 0.5180 0.9417
H94_3 H 0.1695 0.5115 0.9736
C91_3 C 0.2253(2) 0.6361(3) 0.9981(2)
C92_3 C 0.2739(2) 0.6356(3) 0.9945(2)
H97_3 H 0.2778 0.6289 0.9653
O23_2 O 0.19285(15) 0.1662(2) 0.84456(14)
Cu3_3 Cu 0.63735(5) 0.51059(5) 0.14295(4)
O3_3 O 0.5655(2) 0.4851(4) 0.07808(17)
O4_3 O 0.6632(2) 0.3997(3) 0.1309(2)
O5_3 O 0.7089(4) 0.5174(4) 0.2058(3)
O6_3 O 0.6265(3) 0.6206(4) 0.1668(3)
C1_3 C 0.5830(4) 0.6299(4) 0.1253(3)
C2_3 C 0.5783(3) 0.7131(4) 0.1126(3)
H3_3 H 0.0280 0.5257 0.3158
H5_3 H 0.0169 0.4899 0.2312
H8_3 H 0.0133 0.6245 0.2370
C10_3 C 0.0219(2) 0.6012(4) 0.1725(2)
H9_3 H 0.0190 0.6517 0.1596
H10_3 H 0.0056 0.5669 0.1468
N2_3 N 0.18242(17) 0.5431(3) 0.23538(15)
C11_3 C 0.1460(2) 0.4899(3) 0.2202(2)
H11_3 H 0.1558 0.4396 0.2240
C12_3 C 0.0945(2) 0.5063(3) 0.1991(2)
H12_3 H 0.0711 0.4673 0.1889
C13_3 C 0.0777(2) 0.5808(3) 0.19319(19)
C14_3 C 0.1156(2) 0.6355(3) 0.2079(2)
H13_3 H 0.1067 0.6862 0.2043
C15_3 C 0.1663(2) 0.6150(3) 0.2277(2)
H14_3 H 0.1906 0.6531 0.2362
N5_3 N 0.33355(19) 0.4817(3) 0.29153(17)
C29_3 C 0.3507(2) 0.4106(4) 0.3007(2)
H29_3 H 0.3271 0.3715 0.2944
C30_3 C 0.4026(2) 0.3929(4) 0.3195(2)
H30_3 H 0.4129 0.3430 0.3254
C31_3 C 0.4384(2) 0.4497(4) 0.3292(2)
C32_3 C 0.4203(2) 0.5235(4) 0.3202(2)
H31_3 H 0.4431 0.5635 0.3266
C33_3 C 0.3688(2) 0.5373(4) 0.3020(2)
H32_3 H 0.3577 0.5869 0.2966
C34_3 C 0.4952(2) 0.4347(5) 0.3490(2)
H33_3 H 0.5007 0.3818 0.3571
H34_3 H 0.5095 0.4638 0.3776
C35_3 C 0.5235(2) 0.4554(4) 0.3139(2)
H35_3 H 0.5126 0.5049 0.3009
H36_3 H 0.5599 0.4577 0.3308
C36_3 C 0.5137(3) 0.3988(4) 0.2738(2)
H37_3 H 0.5249 0.3492 0.2867
H38_3 H 0.4774 0.3962 0.2569
N6_3 N 0.5971(2) 0.4688(3) 0.1828(2)
C37_3 C 0.5531(3) 0.5015(4) 0.1811(2)
H39_3 H 0.5409 0.5410 0.1601
C38_3 C 0.5249(3) 0.4796(4) 0.2087(2)
H40_3 H 0.4947 0.5045 0.2064
C39_3 C 0.5414(2) 0.4206(4) 0.2401(2)
C40_3 C 0.5865(2) 0.3854(4) 0.2411(2)
H41_3 H 0.5991 0.3450 0.2612
C41_3 C 0.6124(3) 0.4111(4) 0.2121(3)
H42_3 H 0.6423 0.3866 0.2131
N7_3 N 0.6719(2) 0.5553(3) 0.0998(2)
C42_3 C 0.6694(3) 0.5215(4) 0.0596(3)
H43_3 H 0.6532 0.4750 0.0529
C43_3 C 0.6897(3) 0.5519(4) 0.0273(2)
C44_3 C 0.7163(2) 0.6194(3) 0.0366(2)
C45_3 C 0.7188(3) 0.6547(4) 0.0789(2)
H45_3 H 0.7356 0.7006 0.0867
C46_3 C 0.6970(3) 0.6223(4) 0.1088(3)
H46_3 H 0.6994 0.6472 0.1366
C47_3 C 0.7416(3) 0.6547(4) 0.0043(2)
H48_3 H 0.7774 0.6615 0.0219
N12_3 N 0.37270(19) 0.7815(3) 0.11905(17)
C76_3 C 0.3955(2) 0.8139(3) 0.0906(2)
H81_3 H 0.4173 0.7849 0.0798
C77_3 C 0.3877(2) 0.8889(3) 0.0767(2)
H82_3 H 0.4036 0.9090 0.0567
C78_3 C 0.3556(2) 0.9345(3) 0.0931(2)
C79_3 C 0.3333(2) 0.9005(3) 0.1232(2)
H83_3 H 0.3123 0.9286 0.1354
C80_3 C 0.3420(3) 0.8254(4) 0.1349(2)
H84_3 H 0.3261 0.8041 0.1546
N15_3 N 0.38264(18) 0.5557(3) 0.14301(17)
C94_3 C 0.3734(2) 0.5205(3) 0.1784(2)
H99_3 H 0.3618 0.5490 0.1988
C95_3 C 0.3800(3) 0.4436(4) 0.1867(2)
H100_3 H 0.3727 0.4221 0.2119
C96_3 C 0.3975(2) 0.3984(3) 0.1572(2)
C97_3 C 0.4052(3) 0.4353(4) 0.1193(2)
H101_3 H 0.4156 0.4080 0.0978
C98_3 C 0.3976(3) 0.5116(4) 0.1133(2)
H102_3 H 0.4030 0.5342 0.0875
C99_3 C 0.4108(3) 0.3152(3) 0.1660(2)
H103_3 H 0.4473 0.3115 0.1821
H104_3 H 0.4038 0.2908 0.1357
C100_3 C 0.3845(2) 0.2715(4) 0.1935(2)
H105_3 H 0.3886 0.2973 0.2229
H106_3 H 0.3483 0.2691 0.1760
C101_3 C 0.4060(2) 0.1901(3) 0.2041(2)
H107_3 H 0.4084 0.1681 0.1754
H108_3 H 0.3824 0.1597 0.2141
C102_3 C 0.5499(2) 0.1792(4) 0.2676(2)
H109_3 H 0.5794 0.1751 0.2597
C103_3 C 0.5028(3) 0.1816(4) 0.2316(2)
H110_3 H 0.5017 0.1790 0.2005
C104_3 C 0.4580(2) 0.1877(3) 0.2417(2)
C105_3 C 0.4622(2) 0.1931(3) 0.2886(2)
H111_3 H 0.4330 0.1987 0.2971
C106_3 C 0.5098(2) 0.1903(4) 0.3231(2)
H112_3 H 0.5116 0.1939 0.3544
S1_3 S 0.30707(6) 0.69799(8) 0.22353(5)
O7_3 O 0.2720(2) 0.7621(3) 0.2087(2)
O8_3 O 0.33003(16) 0.6798(2) 0.18721(13)
O9_3 O 0.3480(2) 0.7185(3) 0.26744(16)
O10_3 O 0.27880(15) 0.6324(2) 0.23176(14)
S3_3 S 0.23388(5) 0.33073(8) 0.32355(5)
O15_3 O 0.28381(15) 0.3292(3) 0.36086(15)
O16_3 O 0.22972(16) 0.3968(2) 0.29275(13)
O17_3 O 0.22732(19) 0.2616(2) 0.29451(16)
O18_2 O 0.19285(15) 0.3338(2) 0.34456(14)
S4_3 S 0.01051(6) 0.32856(8) 0.43519(5)
O19_3 O 0.0262(2) 0.2911(3) 0.48141(15)
O22_3 O 0.05596(14) 0.3490(2) 0.42299(14)
H113_3 H 0.576049 0.476071 0.0500947
H114_3 H 0.541858 0.528749 0.0720731
H117_3 H 0.704801 0.486236 0.231677
H118_3 H 0.71521 0.570595 0.216296
H119_3 H 0.638234 0.361272 0.133388
H120_3 H 0.69694 0.389292 0.154766
H123_3 H 0.573347 0.745422 0.141496
H124_3 H 0.545464 0.721692 0.0811167
H125_3 H 0.612723 0.731773 0.106091
H126_3 H 0.588116 0.597274 0.0965866
H127_3 H 0.548741 0.610923 0.131992
H44_3 H 0.6854 0.5269 0.9992
H47_3 H 0.7270 0.7044 0.9955
C48_3 C 0.7375(2) 0.6121(3) 0.9599(2)
H49_3 H 0.7515 0.5619 0.9681
H50_3 H 0.7018 0.6067 0.9412
C49_3 C 0.7652(3) 0.6504(4) 0.9307(2)
H51_3 H 0.8011 0.6530 0.9489
H52_3 H 0.7527 0.7017 0.9245
C50_3 C 0.7523(3) 0.5014(4) 0.8357(2)
H53_3 H 0.7517 0.4492 0.8335
C51_3 C 0.7571(3) 0.5350(4) 0.8787(2)
H54_3 H 0.7587 0.5047 0.9043
C52_3 C 0.7596(2) 0.6127(3) 0.8843(2)
C53_3 C 0.7565(2) 0.6541(4) 0.8448(2)
H55_3 H 0.7582 0.7063 0.8464
C54_3 C 0.7509(2) 0.6176(4) 0.8026(2)
H56_3 H 0.7486 0.6468 0.7763
C56_3 C 0.1390(2) 0.9271(3) 0.8418(2)
H58_3 H 0.1504 0.9015 0.8202
C57_3 C 0.1177(2) 0.8869(3) 0.87025(19)
C58_3 C 0.1025(2) 0.9279(3) 0.90216(19)
H59_3 H 0.0884 0.9033 0.9222
C60_3 C 0.1094(2) 0.8026(3) 0.8650(2)
H61_3 H 0.1397 0.7787 0.8622
H62_3 H 0.1037 0.7826 0.8928
C61_3 C 0.0635(2) 0.7843(3) 0.8215(2)
H63_3 H 0.0340 0.8114 0.8238
H64_3 H 0.0703 0.8028 0.7939
C62_3 C 0.0500(2) 0.7003(3) 0.8144(2)
H65_3 H 0.0400 0.6821 0.8405
H66_3 H 0.0798 0.6721 0.8141
C64_3 C 0.0154(2) 0.6854(4) 0.7261(2)
H68_3 H 0.0484 0.6897 0.7253
C65_3 C 0.0069(2) 0.6874(3) 0.7688(2)
Cu1_2 Cu 0.89813(3) 0.44442(4) 0.38733(2)
O1_3 O 0.92507(15) 0.5363(2) 0.42605(14)
O2_2 O 0.88714(16) 0.3426(2) 0.35452(14)
N1_2 N 0.92493(18) 0.4801(3) 0.33623(16)
C3_2 C 0.8940(2) 0.4793(4) 0.2910(2)
H1_2 H 0.8596 0.4688 0.2847
C4_2 C 0.9113(2) 0.4935(4) 0.2536(2)
H2_2 H 0.8887 0.4924 0.2230
C5_3 C 0.9627(2) 0.5092(3) 0.2619(2)
C6_3 C 0.9937(2) 0.5131(4) 0.3085(2)
C7_2 C 0.9740(2) 0.4982(3) 0.3441(2)
H4_3 H 0.9957 0.5010 0.3750
C8_3 C 0.9846(3) 0.5167(3) 0.2224(2)
H6_2 H 0.9617 0.4919 0.1948
C9_3 C 0.9936(2) 0.5975(3) 0.2089(2)
H7_3 H 0.9609 0.6228 0.1961
N3_2 N 0.86210(18) 0.4107(3) 0.43248(17)
C16_2 C 0.8712(2) 0.3440(3) 0.4549(2)
H15_2 H 0.8951 0.3120 0.4493
C17_2 C 0.8469(2) 0.3206(3) 0.4858(2)
H16_3 H 0.8545 0.2737 0.5001
C18_2 C 0.8115(2) 0.3661(3) 0.49550(19)
C19_2 C 0.8035(2) 0.4373(3) 0.4735(2)
H17_2 H 0.7811 0.4712 0.4799
C20_2 C 0.8285(2) 0.4567(4) 0.4430(2)
H18_3 H 0.8220 0.5037 0.4287
C21_3 C 0.7831(2) 0.3425(3) 0.5284(2)
H19_3 H 0.7922 0.2909 0.5383
H20_3 H 0.7940 0.3741 0.5562
C22_3 C 0.7250(2) 0.3481(4) 0.50604(19)
H21_2 H 0.7143 0.3180 0.4776
H22_2 H 0.7159 0.4000 0.4972
C23_3 C 0.6964(2) 0.3215(4) 0.5385(2)
H23_3 H 0.6601 0.3277 0.5223
H24_3 H 0.7028 0.2681 0.5444
C24_3 C 0.7320(2) 0.3598(3) 0.6692(2)
H25_3 H 0.7391 0.3312 0.6964
C25_3 C 0.7213(3) 0.3228(3) 0.6273(2)
H26_3 H 0.7214 0.2704 0.6268
C26_3 C 0.7103(2) 0.3622(3) 0.5856(2)
C27_3 C 0.7106(3) 0.4407(4) 0.5891(2)
H27_3 H 0.7033 0.4701 0.5621
C28_3 C 0.7216(2) 0.4748(3) 0.6326(2)
H28_2 H 0.7212 0.5271 0.6340
S2_3 S 0.81756(6) 0.60239(9) 0.34468(5)
O11_3 O 0.8435(2) 0.6300(3) 0.31199(16)
O12_3 O 0.76495(17) 0.6295(3) 0.33117(19)
O13_3 O 0.81940(16) 0.5187(2) 0.34575(15)
O14_3 O 0.84701(17) 0.6308(2) 0.39239(14)
O20_2 O 0.97732(16) 0.2767(2) 0.39899(15)
O21_2 O 0.98052(14) 0.3969(2) 0.43690(14)
H115_2 H 0.909819 0.338183 0.335151
H116_2 H 0.851037 0.338104 0.334004
H121_3 H 0.938373 0.522194 0.459784
H122_3 H 0.897208 0.573725 0.421031
C63_3 C 0.9753(2) 0.6773(4) 0.6849(2)
H67_3 H 0.9823 0.6768 0.6568
C66_3 C 0.9565(2) 0.6809(4) 0.7671(2)
H69_3 H 0.9487 0.6827 0.7948
C67_3 C 0.9179(3) 0.6717(4) 0.7248(2)
H70_3 H 0.8847 0.6665 0.7249
O3_4 O 0.5655(2) 0.0149(4) 0.57808(17)
O4_4 O 0.6632(2) 0.1003(3) 0.6309(2)
H5_4 H 0.0169 0.0101 0.7312
C11_4 C 0.1460(2) 0.0101(3) 0.7202(2)
H11_4 H 0.1558 0.0604 0.7240
H12_4 H 0.0711 0.0327 0.6889
N5_4 N 0.33355(19) 0.0183(3) 0.79153(17)
C29_4 C 0.3507(2) 0.0894(4) 0.8007(2)
H29_4 H 0.3271 0.1285 0.7944
C30_4 C 0.4026(2) 0.1071(4) 0.8195(2)
H30_4 H 0.4129 0.1570 0.8254
C31_4 C 0.4384(2) 0.0503(4) 0.8292(2)
C34_4 C 0.4952(2) 0.0653(5) 0.8490(2)
H33_4 H 0.5007 0.1182 0.8571
H34_4 H 0.5095 0.0362 0.8776
C35_4 C 0.5235(2) 0.0446(4) 0.8139(2)
H36_4 H 0.5599 0.0423 0.8308
C36_4 C 0.5137(3) 0.1012(4) 0.7738(2)
H37_4 H 0.5249 0.1508 0.7867
H38_4 H 0.4774 0.1038 0.7569
N6_4 N 0.5971(2) 0.0312(3) 0.6828(2)
C38_4 C 0.5249(3) 0.0204(4) 0.7087(2)
C39_4 C 0.5414(2) 0.0794(4) 0.7401(2)
C40_4 C 0.5865(2) 0.1146(4) 0.7411(2)
H41_4 H 0.5991 0.1550 0.7612
C41_4 C 0.6124(3) 0.0889(4) 0.7121(3)
H42_4 H 0.6423 0.1134 0.7131
H43_4 H 0.6532 0.0250 0.5529
H53_4 H 0.7517 0.0508 0.3335
C95_4 C 0.3800(3) 0.0564(4) 0.6867(2)
H100_4 H 0.3727 0.0779 0.7119
C96_4 C 0.3975(2) 0.1016(3) 0.6572(2)
C97_4 C 0.4052(3) 0.0647(4) 0.6193(2)
H101_4 H 0.4156 0.0920 0.5978
C99_4 C 0.4108(3) 0.1848(3) 0.6660(2)
H103_4 H 0.4473 0.1885 0.6821
H104_4 H 0.4038 0.2092 0.6357
C100_4 C 0.3845(2) 0.2285(4) 0.6935(2)
H105_4 H 0.3886 0.2027 0.7229
H106_4 H 0.3483 0.2309 0.6760
C101_4 C 0.4060(2) 0.3099(3) 0.7041(2)
H107_4 H 0.4084 0.3319 0.6754
H108_4 H 0.3824 0.3403 0.7141
C102_4 C 0.5499(2) 0.3208(4) 0.7676(2)
H109_4 H 0.5794 0.3249 0.7597
C103_4 C 0.5028(3) 0.3184(4) 0.7316(2)
H110_4 H 0.5017 0.3210 0.7005
C104_4 C 0.4580(2) 0.3123(3) 0.7417(2)
C105_4 C 0.4622(2) 0.3069(3) 0.7886(2)
H111_4 H 0.4330 0.3013 0.7971
C106_4 C 0.5098(2) 0.3097(4) 0.8231(2)
H112_4 H 0.5116 0.3061 0.8544
S3_4 S 0.23388(5) 0.16927(8) 0.82355(5)
O15_4 O 0.28381(15) 0.1708(3) 0.86086(15)
O16_4 O 0.22972(16) 0.1032(2) 0.79275(13)
O17_4 O 0.22732(19) 0.2384(2) 0.79451(16)
S4_4 S 0.01051(6) 0.17144(8) 0.93519(5)
O19_4 O 0.0262(2) 0.2089(3) 0.98141(15)
O22_4 O 0.05596(14) 0.1510(2) 0.92299(14)
H113_4 H 0.576049 0.0239285 0.550095
H117_4 H 0.704801 0.0137642 0.731677
H119_4 H 0.638234 0.138728 0.633388
H120_4 H 0.69694 0.110708 0.654766
Cu3_4 Cu 0.63735(5) 0.98941(5) 0.64295(4)
O5_4 O 0.7089(4) 0.9826(4) 0.7058(3)
O6_4 O 0.6265(3) 0.8794(4) 0.6668(3)
C1_4 C 0.5830(4) 0.8701(4) 0.6253(3)
C2_4 C 0.5783(3) 0.7869(4) 0.6126(3)
H3_4 H 0.0280 0.9743 0.8158
H8_4 H 0.0133 0.8755 0.7370
C10_4 C 0.0219(2) 0.8988(4) 0.6725(2)
H9_4 H 0.0190 0.8483 0.6596
H10_4 H 0.0056 0.9331 0.6468
N2_4 N 0.18242(17) 0.9569(3) 0.73538(15)
C12_4 C 0.0945(2) 0.9937(3) 0.6991(2)
C13_4 C 0.0777(2) 0.9192(3) 0.69319(19)
C14_4 C 0.1156(2) 0.8645(3) 0.7079(2)
H13_4 H 0.1067 0.8138 0.7043
C15_4 C 0.1663(2) 0.8850(3) 0.7277(2)
H14_4 H 0.1906 0.8469 0.7362
C32_4 C 0.4203(2) 0.9765(4) 0.8202(2)
H31_4 H 0.4431 0.9365 0.8266
C33_4 C 0.3688(2) 0.9627(4) 0.8020(2)
H32_4 H 0.3577 0.9131 0.7966
H35_4 H 0.5126 0.9951 0.8009
C37_4 C 0.5531(3) 0.9985(4) 0.6811(2)
H39_4 H 0.5409 0.9590 0.6601
H40_4 H 0.4947 0.9955 0.7064
N7_4 N 0.6719(2) 0.9447(3) 0.5998(2)
C42_4 C 0.6694(3) 0.9785(4) 0.5596(3)
C43_4 C 0.6897(3) 0.9481(4) 0.5273(2)
H44_4 H 0.6854 0.9731 0.4992
C44_4 C 0.7163(2) 0.8806(3) 0.5366(2)
C45_4 C 0.7188(3) 0.8453(4) 0.5789(2)
H45_4 H 0.7356 0.7994 0.5867
C46_4 C 0.6970(3) 0.8777(4) 0.6088(3)
H46_4 H 0.6994 0.8528 0.6366
C47_4 C 0.7416(3) 0.8453(4) 0.5043(2)
H47_4 H 0.7270 0.7956 0.4955
H48_4 H 0.7774 0.8385 0.5219
C48_4 C 0.7375(2) 0.8879(3) 0.4599(2)
H49_4 H 0.7515 0.9381 0.4681
H50_4 H 0.7018 0.8933 0.4412
C49_4 C 0.7652(3) 0.8496(4) 0.4307(2)
H51_4 H 0.8011 0.8470 0.4489
H52_4 H 0.7527 0.7983 0.4245
C50_4 C 0.7523(3) 0.9986(4) 0.3357(2)
C51_4 C 0.7571(3) 0.9650(4) 0.3787(2)
H54_4 H 0.7587 0.9953 0.4043
C52_4 C 0.7596(2) 0.8873(3) 0.3843(2)
C53_4 C 0.7565(2) 0.8459(4) 0.3448(2)
H55_4 H 0.7582 0.7937 0.3464
C54_4 C 0.7509(2) 0.8824(4) 0.3026(2)
H56_4 H 0.7486 0.8532 0.2763
N9_4 N 0.12799(17) 0.4554(2) 0.37626(15)
C55_4 C 0.1436(2) 0.4948(3) 0.34531(19)
H57_4 H 0.1579 0.4692 0.3258
C56_4 C 0.1390(2) 0.5729(3) 0.3418(2)
H58_4 H 0.1504 0.5985 0.3202
C57_4 C 0.1177(2) 0.6131(3) 0.37025(19)
C58_4 C 0.1025(2) 0.5721(3) 0.40216(19)
H59_4 H 0.0884 0.5967 0.4222
C59_4 C 0.1079(2) 0.4947(3) 0.40447(19)
H60_4 H 0.0974 0.4685 0.4263
C60_4 C 0.1094(2) 0.6974(3) 0.3650(2)
H61_4 H 0.1397 0.7213 0.3622
H62_4 H 0.1037 0.7174 0.3928
C61_4 C 0.0635(2) 0.7157(3) 0.3215(2)
H63_4 H 0.0340 0.6886 0.3238
H64_4 H 0.0703 0.6972 0.2939
C62_4 C 0.0500(2) 0.7997(3) 0.3144(2)
H65_4 H 0.0400 0.8179 0.3405
H66_4 H 0.0798 0.8279 0.3141
C64_4 C 0.0154(2) 0.8146(4) 0.2261(2)
H68_4 H 0.0484 0.8103 0.2253
C65_4 C 0.0069(2) 0.8126(3) 0.2688(2)
N11_4 N 0.18580(18) 0.3507(3) 0.44586(16)
C68_4 C 0.1749(2) 0.3478(3) 0.4864(2)
H71_4 H 0.1409 0.3439 0.4847
C69_4 C 0.2118(2) 0.3501(3) 0.5302(2)
H72_4 H 0.2022 0.3477 0.5570
C70_4 C 0.2632(2) 0.3562(3) 0.53469(19)
C71_4 C 0.2743(2) 0.3611(3) 0.4929(2)
H73_4 H 0.3080 0.3662 0.4939
C72_4 C 0.2356(2) 0.3585(3) 0.4500(2)
H74_4 H 0.2442 0.3622 0.4228
C73_4 C 0.3468(2) 0.4838(3) 0.5779(2)
H75_4 H 0.3797 0.4601 0.5835
H76_4 H 0.3289 0.4825 0.5444
C74_4 C 0.3167(2) 0.4370(3) 0.6023(2)
H77_4 H 0.2850 0.4626 0.5992
H78_4 H 0.3361 0.4339 0.6356
C75_4 C 0.3047(2) 0.3571(3) 0.5828(2)
H79_4 H 0.3355 0.3345 0.5801
H80_4 H 0.2937 0.3269 0.6045
N12_4 N 0.37270(19) 0.7185(3) 0.61905(17)
C76_4 C 0.3955(2) 0.6861(3) 0.5906(2)
H81_4 H 0.4173 0.7151 0.5798
C77_4 C 0.3877(2) 0.6111(3) 0.5767(2)
H82_4 H 0.4036 0.5910 0.5567
C78_4 C 0.3556(2) 0.5655(3) 0.5931(2)
C79_4 C 0.3333(2) 0.5995(3) 0.6232(2)
H83_4 H 0.3123 0.5714 0.6354
C80_4 C 0.3420(3) 0.6746(4) 0.6349(2)
H84_4 H 0.3261 0.6959 0.6546
N13_4 N 0.12906(18) 0.2271(3) 0.38790(16)
C81_4 C 0.1075(2) 0.1943(3) 0.4168(2)
H85_4 H 0.0934 0.2247 0.4344
C82_4 C 0.1056(2) 0.1164(3) 0.4214(2)
H86_4 H 0.0905 0.0959 0.4420
C83_4 C 0.1259(2) 0.0692(3) 0.3957(2)
C84_4 C 0.1483(2) 0.1036(3) 0.3660(2)
H87_4 H 0.1634 0.0744 0.3486
C85_4 C 0.1483(2) 0.1809(3) 0.3624(2)
H88_4 H 0.1623 0.2025 0.3413
N15_4 N 0.38264(18) 0.9443(3) 0.64301(17)
C94_4 C 0.3734(2) 0.9795(3) 0.6784(2)
H99_4 H 0.3618 0.9510 0.6988
C98_4 C 0.3976(3) 0.9884(4) 0.6133(2)
H102_4 H 0.4030 0.9658 0.5875
S1_4 S 0.30707(6) 0.80201(8) 0.72353(5)
O7_4 O 0.2720(2) 0.7379(3) 0.7087(2)
O8_4 O 0.33003(16) 0.8202(2) 0.68721(13)
O9_4 O 0.3480(2) 0.7815(3) 0.76744(16)
O10_4 O 0.27880(15) 0.8676(2) 0.73176(14)
N19_2 N 0.31375(19) 0.8444(3) 0.57693(17)
H114_4 H 0.541858 0.971251 0.572073
H118_4 H 0.71521 0.929405 0.716296
H123_4 H 0.573347 0.754578 0.641496
H124_4 H 0.545464 0.778308 0.581117
H125_4 H 0.612723 0.768227 0.606091
H126_4 H 0.588116 0.902726 0.596587
H127_4 H 0.548741 0.889077 0.631992
C86_4 C 0.1271(2) 0.9848(3) 0.4030(2)
H89_4 H 0.1299 0.9595 0.3753
H90_4 H 0.0958 0.9685 0.4075
C87_4 C 0.1787(2) 0.8790(3) 0.4560(2)
H91_4 H 0.1486 0.8600 0.4620
H92_4 H 0.1818 0.8530 0.4288
C88_4 C 0.1730(2) 0.9634(3) 0.4462(2)
H93_4 H 0.2039 0.9820 0.4417
H94_4 H 0.1695 0.9885 0.4736
C89_4 C 0.2672(2) 0.8435(4) 0.5811(2)
H95_4 H 0.2644 0.8368 0.6107
C90_4 C 0.2224(2) 0.8524(4) 0.5426(2)
H96_4 H 0.1908 0.8506 0.5470
C91_4 C 0.2253(2) 0.8639(3) 0.4981(2)
C92_4 C 0.2739(2) 0.8644(3) 0.4945(2)
H97_4 H 0.2778 0.8711 0.4653
C93_4 C 0.3167(2) 0.8550(3) 0.5340(2)
H98_4 H 0.3487 0.8562 0.5304
H16_4 H 0.8545 0.2263 0.0001
C21_4 C 0.7831(2) 0.1575(3) 0.0284(2)
H19_4 H 0.7922 0.2091 0.0383
H20_4 H 0.7940 0.1259 0.0562
C22_4 C 0.7250(2) 0.1519(4) 0.00604(19)
C23_4 C 0.6964(2) 0.1785(4) 0.0385(2)
H23_4 H 0.6601 0.1723 0.0223
H24_4 H 0.7028 0.2319 0.0444
C24_4 C 0.7320(2) 0.1402(3) 0.1692(2)
H25_4 H 0.7391 0.1688 0.1964
C25_4 C 0.7213(3) 0.1772(3) 0.1273(2)
H26_4 H 0.7214 0.2296 0.1268
C26_4 C 0.7103(2) 0.1378(3) 0.0856(2)
C27_4 C 0.7106(3) 0.0593(4) 0.0891(2)
H27_4 H 0.7033 0.0299 0.0621
C28_4 C 0.7216(2) 0.0252(3) 0.1326(2)
O1_4 O 0.92507(15) 0.9637(2) 0.92605(14)
C5_4 C 0.9627(2) 0.9908(3) 0.7619(2)
C6_4 C 0.9937(2) 0.9869(4) 0.8085(2)
H4_4 H 0.9957 0.9990 0.8750
C8_4 C 0.9846(3) 0.9833(3) 0.7224(2)
C9_4 C 0.9936(2) 0.9025(3) 0.7089(2)
H7_4 H 0.9609 0.8772 0.6961
H18_4 H 0.8220 0.9963 0.9287
C63_4 C 0.9753(2) 0.8227(4) 0.1849(2)
H67_4 H 0.9823 0.8232 0.1568
C66_4 C 0.9565(2) 0.8191(4) 0.2671(2)
H69_4 H 0.9487 0.8173 0.2948
C67_4 C 0.9179(3) 0.8283(4) 0.2248(2)
H70_4 H 0.8847 0.8335 0.2249
S2_4 S 0.81756(6) 0.89761(9) 0.84468(5)
O11_4 O 0.8435(2) 0.8700(3) 0.81199(16)
O12_4 O 0.76495(17) 0.8705(3) 0.83117(19)
O13_4 O 0.81940(16) 0.9813(2) 0.84575(15)
O14_4 O 0.84701(17) 0.8692(2) 0.89239(14)
H121_4 H 0.938373 0.977806 0.959784
H122_4 H 0.897208 0.926275 0.921031
H28_3 H 0.2788 0.0271 0.8660
Cu1_3 Cu 0.10187(3) 0.94442(4) 0.11267(2)
O2_3 O 0.11286(16) 0.8426(2) 0.14548(14)
N1_3 N 0.07507(18) 0.9801(3) 0.16377(16)
C3_3 C 0.1060(2) 0.9793(4) 0.2090(2)
H1_3 H 0.1404 0.9688 0.2153
C4_3 C 0.0887(2) 0.9935(4) 0.2464(2)
H2_3 H 0.1113 0.9924 0.2770
C7_3 C 0.0260(2) 0.9982(3) 0.1559(2)
H6_3 H 0.0383 0.9919 0.3052
N3_3 N 0.13790(18) 0.9107(3) 0.06752(17)
C16_3 C 0.1288(2) 0.8440(3) 0.0451(2)
H15_3 H 0.1049 0.8120 0.0507
C17_3 C 0.1531(2) 0.8206(3) 0.0142(2)
C18_3 C 0.1885(2) 0.8661(3) 0.00450(19)
C19_3 C 0.1965(2) 0.9373(3) 0.0265(2)
H17_3 H 0.2189 0.9712 0.0201
C20_3 C 0.1715(2) 0.9567(4) 0.0570(2)
H21_3 H 0.2857 0.8180 0.0224
H22_3 H 0.2841 0.9000 0.0028
O20_3 O 0.02268(16) 0.7767(2) 0.10101(15)
O21_3 O 0.01948(14) 0.8969(2) 0.06310(14)
H115_3 H 0.0901808 0.838183 0.164849
H116_3 H 0.148963 0.838104 0.165996
Cu1_4 Cu 0.89813(3) 0.05558(4) 0.88733(2)
O2_4 O 0.88714(16) 0.1574(2) 0.85452(14)
N1_4 N 0.92493(18) 0.0199(3) 0.83623(16)
C3_4 C 0.8940(2) 0.0207(4) 0.7910(2)
H1_4 H 0.8596 0.0312 0.7847
C4_4 C 0.9113(2) 0.0065(4) 0.7536(2)
H2_4 H 0.8887 0.0076 0.7230
C7_4 C 0.9740(2) 0.0018(3) 0.8441(2)
H6_4 H 0.9617 0.0081 0.6948
N3_4 N 0.86210(18) 0.0893(3) 0.93248(17)
C16_4 C 0.8712(2) 0.1560(3) 0.9549(2)
H15_4 H 0.8951 0.1880 0.9493
C17_4 C 0.8469(2) 0.1794(3) 0.9858(2)
C18_4 C 0.8115(2) 0.1339(3) 0.99550(19)
C19_4 C 0.8035(2) 0.0627(3) 0.9735(2)
H17_4 H 0.7811 0.0288 0.9799
C20_4 C 0.8285(2) 0.0433(4) 0.9430(2)
H21_4 H 0.7143 0.1820 0.9776
H22_4 H 0.7159 0.1000 0.9972
O20_4 O 0.97732(16) 0.2233(2) 0.89899(15)
O21_4 O 0.98052(14) 0.1031(2) 0.93690(14)
H115_4 H 0.909819 0.161817 0.835151
H116_4 H 0.851037 0.161896 0.834004
H28_4 H 0.7212 0.9729 0.1340
S5 S 0.45639(7) 0.87464(10) 0.53542(6)
O24 O 0.43704(16) 0.8476(2) 0.57154(15)
O25 O 0.4705(4) 0.9607(4) 0.5499(4)
O26 O 0.4239(4) 0.8772(7) 0.4884(3)
O27 O 0.5068(4) 0.8416(8) 0.5410(6)
S5_2 S 0.45639(7) 0.62536(10) 0.03542(6)
O24_2 O 0.43704(16) 0.6524(2) 0.07154(15)
O25_2 O 0.4705(4) 0.5393(4) 0.0499(4)
O27_2 O 0.5068(4) 0.6584(8) 0.0410(6)
O26_2 O 0.4239(4) 0.6228(7) 0.9884(3)
S5_3 S 0.54361(7) 0.12536(10) 0.46458(6)
O24_3 O 0.56296(16) 0.1524(2) 0.42846(15)
O25_3 O 0.5295(4) 0.0393(4) 0.4501(4)
O26_3 O 0.5761(4) 0.1228(7) 0.5116(3)
O27_3 O 0.4932(4) 0.1584(8) 0.4590(6)
O26_4 O 0.5761(4) 0.3772(7) 0.0116(3)
S5_4 S 0.54361(7) 0.37464(10) 0.96458(6)
O24_4 O 0.56296(16) 0.3476(2) 0.92846(15)
O25_4 O 0.5295(4) 0.4607(4) 0.9501(4)
O27_4 O 0.4932(4) 0.3416(8) 0.9590(6)
loop_
_geom_bond_atom_site_label_1
_geom_bond_atom_site_label_2
_geom_bond_site_symmetry_1
_geom_bond_site_symmetry_2
N10 C63 1_555 1_555
C63 H67 1_555 1_555
H69 C66 1_555 1_555
C67 N10 1_555 1_555
H70 C67 1_555 1_555
Cu8 N10 1_555 1_555
C66 C67 1_555 1_555
Cu1 O1 1_555 1_555
O2 Cu1 1_555 1_555
N1 Cu1 1_555 1_555
C3 N1 1_555 1_555
H1 C3 1_555 1_555
C4 C3 1_555 1_555
H2 C4 1_555 1_555
C5 C4 1_555 1_555
C6 C5 1_555 1_555
C7 N1 1_555 1_555
H4 C7 1_555 1_555
C8 C5 1_555 1_555
H6 C8 1_555 1_555
C9 C8 1_555 1_555
H7 C9 1_555 1_555
N3 Cu1 1_555 1_555
C16 N3 1_555 1_555
H15 C16 1_555 1_555
C17 C16 1_555 1_555
H16 C17 1_555 1_555
C18 C17 1_555 1_555
C19 C18 1_555 1_555
H17 C19 1_555 1_555
C20 N3 1_555 1_555
H18 C20 1_555 1_555
C21 C18 1_555 1_555
H19 C21 1_555 1_555
H20 C21 1_555 1_555
C22 C21 1_555 1_555
H21 C22 1_555 1_555
H22 C22 1_555 1_555
C23 C22 1_555 1_555
H23 C23 1_555 1_555
H24 C23 1_555 1_555
N4 C24 1_555 1_555
C24 H25 1_555 1_555
C25 C24 1_555 1_555
H26 C25 1_555 1_555
C26 C23 1_555 1_555
C27 C26 1_555 1_555
H27 C27 1_555 1_555
C28 N4 1_555 1_555
H28 C28 1_555 1_555
S2 O11 1_555 1_555
O12 S2 1_555 1_555
O13 Cu1 1_555 1_555
O14 S2 1_555 1_555
O21 Cu1 1_555 1_555
Cu6 N4 1_555 1_555
C6 C7 1_555 1_555
C19 C20 1_555 1_555
C25 C26 1_555 1_555
C27 C28 1_555 1_555
S2 O13 1_555 1_555
O2 H115 1_555 1_555
O2 H116 1_555 1_555
O1 H121 1_555 1_555
O1 H122 1_555 1_555
H49 C48 1_555 1_555
H50 C48 1_555 1_555
C49 C48 1_555 1_555
H51 C49 1_555 1_555
H52 C49 1_555 1_555
N8 C50 1_555 1_555
C50 H53 1_555 1_555
C51 C50 1_555 1_555
H54 C51 1_555 1_555
C52 C49 1_555 1_555
C53 C52 1_555 1_555
H55 C53 1_555 1_555
C54 N8 1_555 1_555
H56 C54 1_555 1_555
H58 C56 1_555 1_555
C57 C56 1_555 1_555
C58 C57 1_555 1_555
H59 C58 1_555 1_555
C60 C57 1_555 1_555
H61 C60 1_555 1_555
H62 C60 1_555 1_555
C61 C60 1_555 1_555
H63 C61 1_555 1_555
H64 C61 1_555 1_555
C62 C61 1_555 1_555
H65 C62 1_555 1_555
H66 C62 1_555 1_555
H68 C64 1_555 1_555
C65 C62 1_555 1_555
Cu6 N8 1_555 1_555
C51 C52 1_555 1_555
C53 C54 1_555 1_555
C64 C65 1_555 1_555
Cu2 N2 1_555 1_555
Cu3 O3 1_555 1_555
O4 Cu3 1_555 1_555
O5 Cu3 1_555 1_555
O6 Cu3 1_555 1_555
C1 O6 1_555 1_555
C2 C1 1_555 1_555
H9 C10 1_555 1_555
H10 C10 1_555 1_555
N2 C11 1_555 1_555
C11 H11 1_555 1_555
C12 C11 1_555 1_555
H12 C12 1_555 1_555
C13 C10 1_555 1_555
C14 C13 1_555 1_555
H13 C14 1_555 1_555
C15 N2 1_555 1_555
H14 C15 1_555 1_555
N5 Cu2 1_555 1_555
C29 N5 1_555 1_555
H29 C29 1_555 1_555
C30 C29 1_555 1_555
H30 C30 1_555 1_555
C31 C30 1_555 1_555
C32 C31 1_555 1_555
H31 C32 1_555 1_555
C33 N5 1_555 1_555
H32 C33 1_555 1_555
C34 C31 1_555 1_555
H33 C34 1_555 1_555
H34 C34 1_555 1_555
C35 C34 1_555 1_555
H35 C35 1_555 1_555
H36 C35 1_555 1_555
C36 C35 1_555 1_555
H37 C36 1_555 1_555
H38 C36 1_555 1_555
N6 Cu3 1_555 1_555
C37 N6 1_555 1_555
H39 C37 1_555 1_555
C38 C37 1_555 1_555
H40 C38 1_555 1_555
C39 C36 1_555 1_555
C40 C39 1_555 1_555
H41 C40 1_555 1_555
C41 N6 1_555 1_555
H42 C41 1_555 1_555
N7 Cu3 1_555 1_555
C42 N7 1_555 1_555
H43 C42 1_555 1_555
C43 C42 1_555 1_555
C44 C43 1_555 1_555
C45 C44 1_555 1_555
H45 C45 1_555 1_555
C46 N7 1_555 1_555
H46 C46 1_555 1_555
C47 C44 1_555 1_555
H48 C47 1_555 1_555
Cu4 N12 1_555 1_555
N12 C76 1_555 1_555
C76 H81 1_555 1_555
C77 C76 1_555 1_555
H82 C77 1_555 1_555
C79 C78 1_555 1_555
H83 C79 1_555 1_555
C80 N12 1_555 1_555
H84 C80 1_555 1_555
N15 Cu4 1_555 1_555
C94 N15 1_555 1_555
H99 C94 1_555 1_555
C95 C94 1_555 1_555
H100 C95 1_555 1_555
C96 C95 1_555 1_555
C97 C96 1_555 1_555
H101 C97 1_555 1_555
C98 N15 1_555 1_555
H102 C98 1_555 1_555
C99 C96 1_555 1_555
H103 C99 1_555 1_555
H104 C99 1_555 1_555
C100 C99 1_555 1_555
H105 C100 1_555 1_555
H106 C100 1_555 1_555
C101 C100 1_555 1_555
H107 C101 1_555 1_555
H108 C101 1_555 1_555
N16 C102 1_555 1_555
C102 H109 1_555 1_555
C103 C102 1_555 1_555
H110 C103 1_555 1_555
C104 C101 1_555 1_555
C105 C104 1_555 1_555
H111 C105 1_555 1_555
C106 N16 1_555 1_555
H112 C106 1_555 1_555
S1 O7 1_555 1_555
O8 Cu4 1_555 1_555
O9 S1 1_555 1_555
O10 Cu2 1_555 1_555
S3 O15 1_555 1_555
O16 Cu2 1_555 1_555
O17 S3 1_555 1_555
O18 S3 1_555 1_555
S4 O19 1_555 1_555
O22 S4 1_555 1_555
N17 Cu2 1_555 1_555
N18 Cu2 1_555 1_555
N19 Cu4 1_555 1_555
N20 Cu4 1_555 1_555
Cu10 N16 1_555 1_555
Cu11 O18 1_555 1_555
C12 C13 1_555 1_555
C14 C15 1_555 1_555
C32 C33 1_555 1_555
C38 C39 1_555 1_555
C40 C41 1_555 1_555
C45 C46 1_555 1_555
C77 C78 1_555 1_555
C79 C80 1_555 1_555
C97 C98 1_555 1_555
C103 C104 1_555 1_555
C105 C106 1_555 1_555
S1 O8 1_555 1_555
S1 O10 1_555 1_555
S3 O16 1_555 1_555
O3 H113 1_555 1_555
O3 H114 1_555 1_555
O5 H117 1_555 1_555
O5 H118 1_555 1_555
O4 H119 1_555 1_555
O4 H120 1_555 1_555
C2 H123 1_555 1_555
C2 H124 1_555 1_555
C2 H125 1_555 1_555
C1 H126 1_555 1_555
C1 H127 1_555 1_555
Cu5 N9 1_555 1_555
N9 C55 1_555 1_555
C55 H57 1_555 1_555
C59 N9 1_555 1_555
H60 C59 1_555 1_555
N11 Cu5 1_555 1_555
C68 N11 1_555 1_555
H71 C68 1_555 1_555
H73 C71 1_555 1_555
C72 N11 1_555 1_555
H74 C72 1_555 1_555
N13 Cu5 1_555 1_555
C81 N13 1_555 1_555
H85 C81 1_555 1_555
C82 C81 1_555 1_555
H86 C82 1_555 1_555
C83 C82 1_555 1_555
C84 C83 1_555 1_555
H87 C84 1_555 1_555
C85 N13 1_555 1_555
H88 C85 1_555 1_555
C86 C83 1_555 1_555
H89 C86 1_555 1_555
H90 C86 1_555 1_555
C87 H91 1_555 1_555
H92 C87 1_555 1_555
C88 C86 1_555 1_555
H93 C88 1_555 1_555
H94 C88 1_555 1_555
C91 C87 1_555 1_555
C92 C91 1_555 1_555
H97 C92 1_555 1_555
N21 Cu5 1_555 1_555
O23 Cu5 1_555 1_555
C71 C72 1_555 1_555
C84 C85 1_555 1_555
C87 C88 1_555 1_555
H72 C69 1_555 1_555
C70 C69 1_555 1_555
C73 H75 1_555 1_555
H76 C73 1_555 1_555
C74 C73 1_555 1_555
H77 C74 1_555 1_555
H78 C74 1_555 1_555
C75 C70 1_555 1_555
H79 C75 1_555 1_555
H80 C75 1_555 1_555
N19 C89 1_555 1_555
C89 H95 1_555 1_555
C90 C89 1_555 1_555
H96 C90 1_555 1_555
C93 N19 1_555 1_555
H98 C93 1_555 1_555
C74 C75 1_555 1_555
C6_2 C5_2 1_555 1_555
C8_2 C5_2 1_555 1_555
C9_2 C8_2 1_555 1_555
H7_2 C9_2 1_555 1_555
N10_2 C63_2 1_555 1_555
C63_2 H67_2 1_555 1_555
H69_2 C66_2 1_555 1_555
C67_2 N10_2 1_555 1_555
H70_2 C67_2 1_555 1_555
S2_2 O11_2 1_555 1_555
O12_2 S2_2 1_555 1_555
O14_2 S2_2 1_555 1_555
Cu8_2 N10_2 1_555 1_555
C66_2 C67_2 1_555 1_555
S2_2 O13_2 1_555 1_555
O1_2 H121_2 1_555 1_555
O1_2 H122_2 1_555 1_555
H19_2 C21_2 1_555 1_555
H20_2 C21_2 1_555 1_555
C22_2 C21_2 1_555 1_555
C23_2 C22_2 1_555 1_555
H23_2 C23_2 1_555 1_555
H24_2 C23_2 1_555 1_555
N4_2 C24_2 1_555 1_555
C24_2 H25_2 1_555 1_555
C25_2 C24_2 1_555 1_555
H26_2 C25_2 1_555 1_555
C26_2 C23_2 1_555 1_555
C27_2 C26_2 1_555 1_555
H27_2 C27_2 1_555 1_555
C28_2 N4_2 1_555 1_555
Cu6_2 N4_2 1_555 1_555
C25_2 C26_2 1_555 1_555
C27_2 C28_2 1_555 1_555
H89_2 C86_2 1_555 1_555
H90_2 C86_2 1_555 1_555
C87_2 H91_2 1_555 1_555
H92_2 C87_2 1_555 1_555
C88_2 C86_2 1_555 1_555
H93_2 C88_2 1_555 1_555
H94_2 C88_2 1_555 1_555
N14 C89_2 1_555 1_555
C89_2 H95_2 1_555 1_555
C90_2 C89_2 1_555 1_555
H96_2 C90_2 1_555 1_555
C91_2 C87_2 1_555 1_555
C92_2 C91_2 1_555 1_555
H97_2 C92_2 1_555 1_555
C93_2 N14 1_555 1_555
H98_2 C93_2 1_555 1_555
Cu9 N14 1_555 1_555
C87_2 C88_2 1_555 1_555
C90_2 C91_2 1_555 1_555
C92_2 C93_2 1_555 1_555
Cu2_2 N2_2 1_555 1_555
O5_2 Cu3_2 1_555 1_555
O6_2 Cu3_2 1_555 1_555
C1_2 O6_2 1_555 1_555
C2_2 C1_2 1_555 1_555
H9_2 C10_2 1_555 1_555
H10_2 C10_2 1_555 1_555
C13_2 C10_2 1_555 1_555
C14_2 C13_2 1_555 1_555
H13_2 C14_2 1_555 1_555
C15_2 N2_2 1_555 1_555
H14_2 C15_2 1_555 1_555
H31_2 C32_2 1_555 1_555
H32_2 C33_2 1_555 1_555
H39_2 C37_2 1_555 1_555
N7_2 Cu3_2 1_555 1_555
C42_2 N7_2 1_555 1_555
C43_2 C42_2 1_555 1_555
H44_2 C43_2 1_555 1_555
C44_2 C43_2 1_555 1_555
C45_2 C44_2 1_555 1_555
H45_2 C45_2 1_555 1_555
C46_2 N7_2 1_555 1_555
H46_2 C46_2 1_555 1_555
C47_2 C44_2 1_555 1_555
H47_2 C47_2 1_555 1_555
H48_2 C47_2 1_555 1_555
C48_2 C47_2 1_555 1_555
H49_2 C48_2 1_555 1_555
H50_2 C48_2 1_555 1_555
C49_2 C48_2 1_555 1_555
H51_2 C49_2 1_555 1_555
H52_2 C49_2 1_555 1_555
N8_2 C50_2 1_555 1_555
C51_2 C50_2 1_555 1_555
H54_2 C51_2 1_555 1_555
C52_2 C49_2 1_555 1_555
C53_2 C52_2 1_555 1_555
H55_2 C53_2 1_555 1_555
C54_2 N8_2 1_555 1_555
H56_2 C54_2 1_555 1_555
Cu9 N12_2 1_555 1_555
Cu11 N9_2 1_555 1_555
N9_2 C55_2 1_555 1_555
C55_2 H57_2 1_555 1_555
C56_2 C55_2 1_555 1_555
H58_2 C56_2 1_555 1_555
C57_2 C56_2 1_555 1_555
C58_2 C57_2 1_555 1_555
H59_2 C58_2 1_555 1_555
C59_2 N9_2 1_555 1_555
H60_2 C59_2 1_555 1_555
C60_2 C57_2 1_555 1_555
H61_2 C60_2 1_555 1_555
H62_2 C60_2 1_555 1_555
C61_2 C60_2 1_555 1_555
H63_2 C61_2 1_555 1_555
H64_2 C61_2 1_555 1_555
C62_2 C61_2 1_555 1_555
H65_2 C62_2 1_555 1_555
H66_2 C62_2 1_555 1_555
H68_2 C64_2 1_555 1_555
C65_2 C62_2 1_555 1_555
N11_2 Cu11 1_555 1_555
C68_2 N11_2 1_555 1_555
H71_2 C68_2 1_555 1_555
C69_2 C68_2 1_555 1_555
H72_2 C69_2 1_555 1_555
C70_2 C69_2 1_555 1_555
C71_2 C70_2 1_555 1_555
H73_2 C71_2 1_555 1_555
C72_2 N11_2 1_555 1_555
H74_2 C72_2 1_555 1_555
C73_2 H75_2 1_555 1_555
H76_2 C73_2 1_555 1_555
C74_2 C73_2 1_555 1_555
H77_2 C74_2 1_555 1_555
H78_2 C74_2 1_555 1_555
C75_2 C70_2 1_555 1_555
H79_2 C75_2 1_555 1_555
H80_2 C75_2 1_555 1_555
N12_2 C76_2 1_555 1_555
C76_2 H81_2 1_555 1_555
C77_2 C76_2 1_555 1_555
H82_2 C77_2 1_555 1_555
C78_2 C73_2 1_555 1_555
C79_2 C78_2 1_555 1_555
H83_2 C79_2 1_555 1_555
C80_2 N12_2 1_555 1_555
H84_2 C80_2 1_555 1_555
N13_2 Cu11 1_555 1_555
C81_2 N13_2 1_555 1_555
H85_2 C81_2 1_555 1_555
C82_2 C81_2 1_555 1_555
H86_2 C82_2 1_555 1_555
C83_2 C82_2 1_555 1_555
C84_2 C83_2 1_555 1_555
H87_2 C84_2 1_555 1_555
C85_2 N13_2 1_555 1_555
H88_2 C85_2 1_555 1_555
N15_2 Cu9 1_555 1_555
C94_2 N15_2 1_555 1_555
H99_2 C94_2 1_555 1_555
C98_2 N15_2 1_555 1_555
H102_2 C98_2 1_555 1_555
S1_2 O7_2 1_555 1_555
O8_2 Cu9 1_555 1_555
O9_2 S1_2 1_555 1_555
O10_2 Cu2_2 1_555 1_555
N17_2 Cu2_2 1_555 1_555
N20_2 Cu9 1_555 1_555
N21_2 Cu11 1_555 1_555
C12_2 C13_2 1_555 1_555
C14_2 C15_2 1_555 1_555
C32_2 C33_2 1_555 1_555
C45_2 C46_2 1_555 1_555
C51_2 C52_2 1_555 1_555
C53_2 C54_2 1_555 1_555
C58_2 C59_2 1_555 1_555
C64_2 C65_2 1_555 1_555
C71_2 C72_2 1_555 1_555
C74_2 C75_2 1_555 1_555
C77_2 C78_2 1_555 1_555
C79_2 C80_2 1_555 1_555
C84_2 C85_2 1_555 1_555
S1_2 O8_2 1_555 1_555
S1_2 O10_2 1_555 1_555
O5_2 H118_2 1_555 1_555
C2_2 H123_2 1_555 1_555
C2_2 H124_2 1_555 1_555
C2_2 H125_2 1_555 1_555
C1_2 H126_2 1_555 1_555
C1_2 H127_2 1_555 1_555
C11_2 H11_2 1_555 1_555
C29_2 N5_2 1_555 1_555
H29_2 C29_2 1_555 1_555
C30_2 C29_2 1_555 1_555
H30_2 C30_2 1_555 1_555
C31_2 C30_2 1_555 1_555
C34_2 C31_2 1_555 1_555
H33_2 C34_2 1_555 1_555
H34_2 C34_2 1_555 1_555
C35_2 C34_2 1_555 1_555
H36_2 C35_2 1_555 1_555
C36_2 C35_2 1_555 1_555
H37_2 C36_2 1_555 1_555
H38_2 C36_2 1_555 1_555
C39_2 C36_2 1_555 1_555
C40_2 C39_2 1_555 1_555
H41_2 C40_2 1_555 1_555
C41_2 N6_2 1_555 1_555
H42_2 C41_2 1_555 1_555
H100_2 C95_2 1_555 1_555
C96_2 C95_2 1_555 1_555
C97_2 C96_2 1_555 1_555
H101_2 C97_2 1_555 1_555
C99_2 C96_2 1_555 1_555
H103_2 C99_2 1_555 1_555
H104_2 C99_2 1_555 1_555
C100_2 C99_2 1_555 1_555
H105_2 C100_2 1_555 1_555
H106_2 C100_2 1_555 1_555
C101_2 C100_2 1_555 1_555
H107_2 C101_2 1_555 1_555
H108_2 C101_2 1_555 1_555
N16_2 C102_2 1_555 1_555
C102_2 H109_2 1_555 1_555
C103_2 C102_2 1_555 1_555
H110_2 C103_2 1_555 1_555
C104_2 C101_2 1_555 1_555
C105_2 C104_2 1_555 1_555
H111_2 C105_2 1_555 1_555
C106_2 N16_2 1_555 1_555
H112_2 C106_2 1_555 1_555
S3_2 O15_2 1_555 1_555
O17_2 S3_2 1_555 1_555
O23 S3_2 1_555 1_555
S4_2 O19_2 1_555 1_555
O22_2 S4_2 1_555 1_555
Cu10_2 N16_2 1_555 1_555
C38_2 C39_2 1_555 1_555
C40_2 C41_2 1_555 1_555
C103_2 C104_2 1_555 1_555
C105_2 C106_2 1_555 1_555
S3_2 O16_2 1_555 1_555
O3_2 H113_2 1_555 1_555
O4_2 H119_2 1_555 1_555
O4_2 H120_2 1_555 1_555
H72_3 C69_3 1_555 1_555
C70_3 C69_3 1_555 1_555
C73_3 H75_3 1_555 1_555
H76_3 C73_3 1_555 1_555
C74_3 C73_3 1_555 1_555
H77_3 C74_3 1_555 1_555
H78_3 C74_3 1_555 1_555
C75_3 C70_3 1_555 1_555
H79_3 C75_3 1_555 1_555
H80_3 C75_3 1_555 1_555
N14_2 C89_3 1_555 1_555
C89_3 H95_3 1_555 1_555
C90_3 C89_3 1_555 1_555
H96_3 C90_3 1_555 1_555
C93_3 N14_2 1_555 1_555
H98_3 C93_3 1_555 1_555
Cu10_2 N14_2 1_555 1_555
C74_3 C75_3 1_555 1_555
Cu8_2 N9_3 1_555 1_555
N9_3 C55_3 1_555 1_555
C55_3 H57_3 1_555 1_555
C59_3 N9_3 1_555 1_555
H60_3 C59_3 1_555 1_555
N11_3 Cu8_2 1_555 1_555
C68_3 N11_3 1_555 1_555
H71_3 C68_3 1_555 1_555
H73_3 C71_3 1_555 1_555
C72_3 N11_3 1_555 1_555
H74_3 C72_3 1_555 1_555
N13_3 Cu8_2 1_555 1_555
C81_3 N13_3 1_555 1_555
H85_3 C81_3 1_555 1_555
C82_3 C81_3 1_555 1_555
H86_3 C82_3 1_555 1_555
C83_3 C82_3 1_555 1_555
C84_3 C83_3 1_555 1_555
H87_3 C84_3 1_555 1_555
C85_3 N13_3 1_555 1_555
H88_3 C85_3 1_555 1_555
C86_3 C83_3 1_555 1_555
H89_3 C86_3 1_555 1_555
H90_3 C86_3 1_555 1_555
C87_3 H91_3 1_555 1_555
H92_3 C87_3 1_555 1_555
C88_3 C86_3 1_555 1_555
H93_3 C88_3 1_555 1_555
H94_3 C88_3 1_555 1_555
C91_3 C87_3 1_555 1_555
C92_3 C91_3 1_555 1_555
H97_3 C92_3 1_555 1_555
O23_2 Cu8_2 1_555 1_555
C71_3 C72_3 1_555 1_555
C84_3 C85_3 1_555 1_555
C87_3 C88_3 1_555 1_555
Cu6 N2_3 1_555 1_555
Cu3_3 O3_3 1_555 1_555
O4_3 Cu3_3 1_555 1_555
O5_3 Cu3_3 1_555 1_555
O6_3 Cu3_3 1_555 1_555
C1_3 O6_3 1_555 1_555
C2_3 C1_3 1_555 1_555
H9_3 C10_3 1_555 1_555
H10_3 C10_3 1_555 1_555
N2_3 C11_3 1_555 1_555
C11_3 H11_3 1_555 1_555
C12_3 C11_3 1_555 1_555
H12_3 C12_3 1_555 1_555
C13_3 C10_3 1_555 1_555
C14_3 C13_3 1_555 1_555
H13_3 C14_3 1_555 1_555
C15_3 N2_3 1_555 1_555
H14_3 C15_3 1_555 1_555
N5_3 Cu6 1_555 1_555
C29_3 N5_3 1_555 1_555
H29_3 C29_3 1_555 1_555
C30_3 C29_3 1_555 1_555
H30_3 C30_3 1_555 1_555
C31_3 C30_3 1_555 1_555
C32_3 C31_3 1_555 1_555
H31_3 C32_3 1_555 1_555
C33_3 N5_3 1_555 1_555
H32_3 C33_3 1_555 1_555
C34_3 C31_3 1_555 1_555
H33_3 C34_3 1_555 1_555
H34_3 C34_3 1_555 1_555
C35_3 C34_3 1_555 1_555
H35_3 C35_3 1_555 1_555
H36_3 C35_3 1_555 1_555
C36_3 C35_3 1_555 1_555
H37_3 C36_3 1_555 1_555
H38_3 C36_3 1_555 1_555
N6_3 Cu3_3 1_555 1_555
C37_3 N6_3 1_555 1_555
H39_3 C37_3 1_555 1_555
C38_3 C37_3 1_555 1_555
H40_3 C38_3 1_555 1_555
C39_3 C36_3 1_555 1_555
C40_3 C39_3 1_555 1_555
H41_3 C40_3 1_555 1_555
C41_3 N6_3 1_555 1_555
H42_3 C41_3 1_555 1_555
N7_3 Cu3_3 1_555 1_555
C42_3 N7_3 1_555 1_555
H43_3 C42_3 1_555 1_555
C43_3 C42_3 1_555 1_555
C44_3 C43_3 1_555 1_555
C45_3 C44_3 1_555 1_555
H45_3 C45_3 1_555 1_555
C46_3 N7_3 1_555 1_555
H46_3 C46_3 1_555 1_555
C47_3 C44_3 1_555 1_555
H48_3 C47_3 1_555 1_555
Cu10_2 N12_3 1_555 1_555
N12_3 C76_3 1_555 1_555
C76_3 H81_3 1_555 1_555
C77_3 C76_3 1_555 1_555
H82_3 C77_3 1_555 1_555
C79_3 C78_3 1_555 1_555
H83_3 C79_3 1_555 1_555
C80_3 N12_3 1_555 1_555
H84_3 C80_3 1_555 1_555
N15_3 Cu10_2 1_555 1_555
C94_3 N15_3 1_555 1_555
H99_3 C94_3 1_555 1_555
C95_3 C94_3 1_555 1_555
H100_3 C95_3 1_555 1_555
C96_3 C95_3 1_555 1_555
C97_3 C96_3 1_555 1_555
H101_3 C97_3 1_555 1_555
C98_3 N15_3 1_555 1_555
H102_3 C98_3 1_555 1_555
C99_3 C96_3 1_555 1_555
H103_3 C99_3 1_555 1_555
H104_3 C99_3 1_555 1_555
C100_3 C99_3 1_555 1_555
H105_3 C100_3 1_555 1_555
H106_3 C100_3 1_555 1_555
C101_3 C100_3 1_555 1_555
H107_3 C101_3 1_555 1_555
H108_3 C101_3 1_555 1_555
N20_2 C102_3 1_555 1_555
C102_3 H109_3 1_555 1_555
C103_3 C102_3 1_555 1_555
H110_3 C103_3 1_555 1_555
C104_3 C101_3 1_555 1_555
C105_3 C104_3 1_555 1_555
H111_3 C105_3 1_555 1_555
C106_3 N20_2 1_555 1_555
H112_3 C106_3 1_555 1_555
S1_3 O7_3 1_555 1_555
O8_3 Cu10_2 1_555 1_555
O9_3 S1_3 1_555 1_555
O10_3 Cu6 1_555 1_555
S3_3 O15_3 1_555 1_555
O16_3 Cu6 1_555 1_555
O17_3 S3_3 1_555 1_555
O18_2 S3_3 1_555 1_555
S4_3 O19_3 1_555 1_555
O22_3 S4_3 1_555 1_555
Cu8 O18_2 1_555 1_555
C12_3 C13_3 1_555 1_555
C14_3 C15_3 1_555 1_555
C32_3 C33_3 1_555 1_555
C38_3 C39_3 1_555 1_555
C40_3 C41_3 1_555 1_555
C45_3 C46_3 1_555 1_555
C77_3 C78_3 1_555 1_555
C79_3 C80_3 1_555 1_555
C97_3 C98_3 1_555 1_555
C103_3 C104_3 1_555 1_555
C105_3 C106_3 1_555 1_555
S1_3 O8_3 1_555 1_555
S1_3 O10_3 1_555 1_555
S3_3 O16_3 1_555 1_555
O3_3 H113_3 1_555 1_555
O3_3 H114_3 1_555 1_555
O5_3 H117_3 1_555 1_555
O5_3 H118_3 1_555 1_555
O4_3 H119_3 1_555 1_555
O4_3 H120_3 1_555 1_555
C2_3 H123_3 1_555 1_555
C2_3 H124_3 1_555 1_555
C2_3 H125_3 1_555 1_555
C1_3 H126_3 1_555 1_555
C1_3 H127_3 1_555 1_555
H49_3 C48_3 1_555 1_555
H50_3 C48_3 1_555 1_555
C49_3 C48_3 1_555 1_555
H51_3 C49_3 1_555 1_555
H52_3 C49_3 1_555 1_555
N18 C50_3 1_555 1_555
C50_3 H53_3 1_555 1_555
C51_3 C50_3 1_555 1_555
H54_3 C51_3 1_555 1_555
C52_3 C49_3 1_555 1_555
C53_3 C52_3 1_555 1_555
H55_3 C53_3 1_555 1_555
C54_3 N18 1_555 1_555
H56_3 C54_3 1_555 1_555
H58_3 C56_3 1_555 1_555
C57_3 C56_3 1_555 1_555
C58_3 C57_3 1_555 1_555
H59_3 C58_3 1_555 1_555
C60_3 C57_3 1_555 1_555
H61_3 C60_3 1_555 1_555
H62_3 C60_3 1_555 1_555
C61_3 C60_3 1_555 1_555
H63_3 C61_3 1_555 1_555
H64_3 C61_3 1_555 1_555
C62_3 C61_3 1_555 1_555
H65_3 C62_3 1_555 1_555
H66_3 C62_3 1_555 1_555
H68_3 C64_3 1_555 1_555
C65_3 C62_3 1_555 1_555
C51_3 C52_3 1_555 1_555
C53_3 C54_3 1_555 1_555
C64_3 C65_3 1_555 1_555
Cu1_2 O1_3 1_555 1_555
O2_2 Cu1_2 1_555 1_555
N1_2 Cu1_2 1_555 1_555
C3_2 N1_2 1_555 1_555
H1_2 C3_2 1_555 1_555
C4_2 C3_2 1_555 1_555
H2_2 C4_2 1_555 1_555
C5_3 C4_2 1_555 1_555
C6_3 C5_3 1_555 1_555
C7_2 N1_2 1_555 1_555
H4_3 C7_2 1_555 1_555
C8_3 C5_3 1_555 1_555
H6_2 C8_3 1_555 1_555
C9_3 C8_3 1_555 1_555
H7_3 C9_3 1_555 1_555
N3_2 Cu1_2 1_555 1_555
C16_2 N3_2 1_555 1_555
H15_2 C16_2 1_555 1_555
C17_2 C16_2 1_555 1_555
H16_3 C17_2 1_555 1_555
C18_2 C17_2 1_555 1_555
C19_2 C18_2 1_555 1_555
H17_2 C19_2 1_555 1_555
C20_2 N3_2 1_555 1_555
H18_3 C20_2 1_555 1_555
C21_3 C18_2 1_555 1_555
H19_3 C21_3 1_555 1_555
H20_3 C21_3 1_555 1_555
C22_3 C21_3 1_555 1_555
H21_2 C22_3 1_555 1_555
H22_2 C22_3 1_555 1_555
C23_3 C22_3 1_555 1_555
H23_3 C23_3 1_555 1_555
H24_3 C23_3 1_555 1_555
N17 C24_3 1_555 1_555
C24_3 H25_3 1_555 1_555
C25_3 C24_3 1_555 1_555
H26_3 C25_3 1_555 1_555
C26_3 C23_3 1_555 1_555
C27_3 C26_3 1_555 1_555
H27_3 C27_3 1_555 1_555
C28_3 N17 1_555 1_555
H28_2 C28_3 1_555 1_555
S2_3 O11_3 1_555 1_555
O12_3 S2_3 1_555 1_555
O13_3 Cu1_2 1_555 1_555
O14_3 S2_3 1_555 1_555
O21_2 Cu1_2 1_555 1_555
C6_3 C7_2 1_555 1_555
C19_2 C20_2 1_555 1_555
C25_3 C26_3 1_555 1_555
C27_3 C28_3 1_555 1_555
S2_3 O13_3 1_555 1_555
O2_2 H115_2 1_555 1_555
O2_2 H116_2 1_555 1_555
O1_3 H121_3 1_555 1_555
O1_3 H122_3 1_555 1_555
N21_2 C63_3 1_555 1_555
C63_3 H67_3 1_555 1_555
H69_3 C66_3 1_555 1_555
C67_3 N21_2 1_555 1_555
H70_3 C67_3 1_555 1_555
C66_3 C67_3 1_555 1_555
C11_4 H11_4 1_555 1_555
C29_4 N5_4 1_555 1_555
H29_4 C29_4 1_555 1_555
C30_4 C29_4 1_555 1_555
H30_4 C30_4 1_555 1_555
C31_4 C30_4 1_555 1_555
C34_4 C31_4 1_555 1_555
H33_4 C34_4 1_555 1_555
H34_4 C34_4 1_555 1_555
C35_4 C34_4 1_555 1_555
H36_4 C35_4 1_555 1_555
C36_4 C35_4 1_555 1_555
H37_4 C36_4 1_555 1_555
H38_4 C36_4 1_555 1_555
C39_4 C36_4 1_555 1_555
C40_4 C39_4 1_555 1_555
H41_4 C40_4 1_555 1_555
C41_4 N6_4 1_555 1_555
H42_4 C41_4 1_555 1_555
H100_4 C95_4 1_555 1_555
C96_4 C95_4 1_555 1_555
C97_4 C96_4 1_555 1_555
H101_4 C97_4 1_555 1_555
C99_4 C96_4 1_555 1_555
H103_4 C99_4 1_555 1_555
H104_4 C99_4 1_555 1_555
C100_4 C99_4 1_555 1_555
H105_4 C100_4 1_555 1_555
H106_4 C100_4 1_555 1_555
C101_4 C100_4 1_555 1_555
H107_4 C101_4 1_555 1_555
H108_4 C101_4 1_555 1_555
N20 C102_4 1_555 1_555
C102_4 H109_4 1_555 1_555
C103_4 C102_4 1_555 1_555
H110_4 C103_4 1_555 1_555
C104_4 C101_4 1_555 1_555
C105_4 C104_4 1_555 1_555
H111_4 C105_4 1_555 1_555
C106_4 N20 1_555 1_555
H112_4 C106_4 1_555 1_555
S3_4 O15_4 1_555 1_555
O17_4 S3_4 1_555 1_555
O23_2 S3_4 1_555 1_555
S4_4 O19_4 1_555 1_555
O22_4 S4_4 1_555 1_555
C38_4 C39_4 1_555 1_555
C40_4 C41_4 1_555 1_555
C103_4 C104_4 1_555 1_555
C105_4 C106_4 1_555 1_555
S3_4 O16_4 1_555 1_555
O3_4 H113_4 1_555 1_555
O4_4 H119_4 1_555 1_555
O4_4 H120_4 1_555 1_555
Cu6_2 N2_4 1_555 1_555
O5_4 Cu3_4 1_555 1_555
O6_4 Cu3_4 1_555 1_555
C1_4 O6_4 1_555 1_555
C2_4 C1_4 1_555 1_555
H9_4 C10_4 1_555 1_555
H10_4 C10_4 1_555 1_555
C13_4 C10_4 1_555 1_555
C14_4 C13_4 1_555 1_555
H13_4 C14_4 1_555 1_555
C15_4 N2_4 1_555 1_555
H14_4 C15_4 1_555 1_555
H31_4 C32_4 1_555 1_555
H32_4 C33_4 1_555 1_555
H39_4 C37_4 1_555 1_555
N7_4 Cu3_4 1_555 1_555
C42_4 N7_4 1_555 1_555
C43_4 C42_4 1_555 1_555
H44_4 C43_4 1_555 1_555
C44_4 C43_4 1_555 1_555
C45_4 C44_4 1_555 1_555
H45_4 C45_4 1_555 1_555
C46_4 N7_4 1_555 1_555
H46_4 C46_4 1_555 1_555
C47_4 C44_4 1_555 1_555
H47_4 C47_4 1_555 1_555
H48_4 C47_4 1_555 1_555
C48_4 C47_4 1_555 1_555
H49_4 C48_4 1_555 1_555
H50_4 C48_4 1_555 1_555
C49_4 C48_4 1_555 1_555
H51_4 C49_4 1_555 1_555
H52_4 C49_4 1_555 1_555
N18_2 C50_4 1_555 1_555
C51_4 C50_4 1_555 1_555
H54_4 C51_4 1_555 1_555
C52_4 C49_4 1_555 1_555
C53_4 C52_4 1_555 1_555
H55_4 C53_4 1_555 1_555
C54_4 N18_2 1_555 1_555
H56_4 C54_4 1_555 1_555
Cu10 N12_4 1_555 1_555
Cu8 N9_4 1_555 1_555
N9_4 C55_4 1_555 1_555
C55_4 H57_4 1_555 1_555
C56_4 C55_4 1_555 1_555
H58_4 C56_4 1_555 1_555
C57_4 C56_4 1_555 1_555
C58_4 C57_4 1_555 1_555
H59_4 C58_4 1_555 1_555
C59_4 N9_4 1_555 1_555
H60_4 C59_4 1_555 1_555
C60_4 C57_4 1_555 1_555
H61_4 C60_4 1_555 1_555
H62_4 C60_4 1_555 1_555
C61_4 C60_4 1_555 1_555
H63_4 C61_4 1_555 1_555
H64_4 C61_4 1_555 1_555
C62_4 C61_4 1_555 1_555
H65_4 C62_4 1_555 1_555
H66_4 C62_4 1_555 1_555
H68_4 C64_4 1_555 1_555
C65_4 C62_4 1_555 1_555
N11_4 Cu8 1_555 1_555
C68_4 N11_4 1_555 1_555
H71_4 C68_4 1_555 1_555
C69_4 C68_4 1_555 1_555
H72_4 C69_4 1_555 1_555
C70_4 C69_4 1_555 1_555
C71_4 C70_4 1_555 1_555
H73_4 C71_4 1_555 1_555
C72_4 N11_4 1_555 1_555
H74_4 C72_4 1_555 1_555
C73_4 H75_4 1_555 1_555
H76_4 C73_4 1_555 1_555
C74_4 C73_4 1_555 1_555
H77_4 C74_4 1_555 1_555
H78_4 C74_4 1_555 1_555
C75_4 C70_4 1_555 1_555
H79_4 C75_4 1_555 1_555
H80_4 C75_4 1_555 1_555
N12_4 C76_4 1_555 1_555
C76_4 H81_4 1_555 1_555
C77_4 C76_4 1_555 1_555
H82_4 C77_4 1_555 1_555
C78_4 C73_4 1_555 1_555
C79_4 C78_4 1_555 1_555
H83_4 C79_4 1_555 1_555
C80_4 N12_4 1_555 1_555
H84_4 C80_4 1_555 1_555
N13_4 Cu8 1_555 1_555
C81_4 N13_4 1_555 1_555
H85_4 C81_4 1_555 1_555
C82_4 C81_4 1_555 1_555
H86_4 C82_4 1_555 1_555
C83_4 C82_4 1_555 1_555
C84_4 C83_4 1_555 1_555
H87_4 C84_4 1_555 1_555
C85_4 N13_4 1_555 1_555
H88_4 C85_4 1_555 1_555
N15_4 Cu10 1_555 1_555
C94_4 N15_4 1_555 1_555
H99_4 C94_4 1_555 1_555
C98_4 N15_4 1_555 1_555
H102_4 C98_4 1_555 1_555
S1_4 O7_4 1_555 1_555
O8_4 Cu10 1_555 1_555
O9_4 S1_4 1_555 1_555
O10_4 Cu6_2 1_555 1_555
N19_2 Cu10 1_555 1_555
C12_4 C13_4 1_555 1_555
C14_4 C15_4 1_555 1_555
C32_4 C33_4 1_555 1_555
C45_4 C46_4 1_555 1_555
C51_4 C52_4 1_555 1_555
C53_4 C54_4 1_555 1_555
C58_4 C59_4 1_555 1_555
C64_4 C65_4 1_555 1_555
C71_4 C72_4 1_555 1_555
C74_4 C75_4 1_555 1_555
C77_4 C78_4 1_555 1_555
C79_4 C80_4 1_555 1_555
C84_4 C85_4 1_555 1_555
S1_4 O8_4 1_555 1_555
S1_4 O10_4 1_555 1_555
O5_4 H118_4 1_555 1_555
C2_4 H123_4 1_555 1_555
C2_4 H124_4 1_555 1_555
C2_4 H125_4 1_555 1_555
C1_4 H126_4 1_555 1_555
C1_4 H127_4 1_555 1_555
H89_4 C86_4 1_555 1_555
H90_4 C86_4 1_555 1_555
C87_4 H91_4 1_555 1_555
H92_4 C87_4 1_555 1_555
C88_4 C86_4 1_555 1_555
H93_4 C88_4 1_555 1_555
H94_4 C88_4 1_555 1_555
N19_2 C89_4 1_555 1_555
C89_4 H95_4 1_555 1_555
C90_4 C89_4 1_555 1_555
H96_4 C90_4 1_555 1_555
C91_4 C87_4 1_555 1_555
C92_4 C91_4 1_555 1_555
H97_4 C92_4 1_555 1_555
C93_4 N19_2 1_555 1_555
H98_4 C93_4 1_555 1_555
C87_4 C88_4 1_555 1_555
C90_4 C91_4 1_555 1_555
C92_4 C93_4 1_555 1_555
H19_4 C21_4 1_555 1_555
H20_4 C21_4 1_555 1_555
C22_4 C21_4 1_555 1_555
C23_4 C22_4 1_555 1_555
H23_4 C23_4 1_555 1_555
H24_4 C23_4 1_555 1_555
N17_2 C24_4 1_555 1_555
C24_4 H25_4 1_555 1_555
C25_4 C24_4 1_555 1_555
H26_4 C25_4 1_555 1_555
C26_4 C23_4 1_555 1_555
C27_4 C26_4 1_555 1_555
H27_4 C27_4 1_555 1_555
C28_4 N17_2 1_555 1_555
C25_4 C26_4 1_555 1_555
C27_4 C28_4 1_555 1_555
C6_4 C5_4 1_555 1_555
C8_4 C5_4 1_555 1_555
C9_4 C8_4 1_555 1_555
H7_4 C9_4 1_555 1_555
N21 C63_4 1_555 1_555
C63_4 H67_4 1_555 1_555
H69_4 C66_4 1_555 1_555
C67_4 N21 1_555 1_555
H70_4 C67_4 1_555 1_555
S2_4 O11_4 1_555 1_555
O12_4 S2_4 1_555 1_555
O14_4 S2_4 1_555 1_555
C66_4 C67_4 1_555 1_555
S2_4 O13_4 1_555 1_555
O1_4 H121_4 1_555 1_555
O1_4 H122_4 1_555 1_555
O2_3 Cu1_3 1_555 1_555
N1_3 Cu1_3 1_555 1_555
C3_3 N1_3 1_555 1_555
H1_3 C3_3 1_555 1_555
C4_3 C3_3 1_555 1_555
H2_3 C4_3 1_555 1_555
C7_3 N1_3 1_555 1_555
N3_3 Cu1_3 1_555 1_555
C16_3 N3_3 1_555 1_555
H15_3 C16_3 1_555 1_555
C17_3 C16_3 1_555 1_555
C18_3 C17_3 1_555 1_555
C19_3 C18_3 1_555 1_555
H17_3 C19_3 1_555 1_555
C20_3 N3_3 1_555 1_555
O21_3 Cu1_3 1_555 1_555
C19_3 C20_3 1_555 1_555
O2_3 H115_3 1_555 1_555
O2_3 H116_3 1_555 1_555
O2_4 Cu1_4 1_555 1_555
N1_4 Cu1_4 1_555 1_555
C3_4 N1_4 1_555 1_555
H1_4 C3_4 1_555 1_555
C4_4 C3_4 1_555 1_555
H2_4 C4_4 1_555 1_555
C7_4 N1_4 1_555 1_555
N3_4 Cu1_4 1_555 1_555
C16_4 N3_4 1_555 1_555
H15_4 C16_4 1_555 1_555
C17_4 C16_4 1_555 1_555
C18_4 C17_4 1_555 1_555
C19_4 C18_4 1_555 1_555
H17_4 C19_4 1_555 1_555
C20_4 N3_4 1_555 1_555
O21_4 Cu1_4 1_555 1_555
C19_4 C20_4 1_555 1_555
O2_4 H115_4 1_555 1_555
O2_4 H116_4 1_555 1_555
S5 O24 1_555 1_555
O25 S5 1_555 1_555
O26 S5 1_555 1_555
O27 S5 1_555 1_555
S5_2 O24_2 1_555 1_555
O25_2 S5_2 1_555 1_555
O27_2 S5_2 1_555 1_555
S5_3 O24_3 1_555 1_555
O25_3 S5_3 1_555 1_555
O26_3 S5_3 1_555 1_555
O27_3 S5_3 1_555 1_555
S5_4 O24_4 1_555 1_555
O25_4 S5_4 1_555 1_555
O27_4 S5_4 1_555 1_555

#END
