
###############################################################################
#
# This file contains modified crystal structure data generated from the
# MOF subset of the Cambridge Structural Database (CSD) v543 
# hosted by the Cambridge Crystallographic Data Centre (CCDC).
#
# This work is licensed under the Creative Commons
# Attribution-NonCommercial-ShareAlike 4.0 International License.
# To view a copy of this license, visit
# http://creativecommons.org/licenses/by-nc-sa/4.0/
# or send a letter to
# Creative Commons, PO Box 1866, Mountain View, CA 94042, USA.
#
# CIF created using the CSD Python API on 29 September 2022
# The structure has been converted into the P1 space group
# The structure has a 3D framework
# The original CSD entry WISVEB is in the monoclinic crystal system
# The framework has been calculated to contain at least 10.0% void space
# The void calculation uses a probe of radius 1.32A, grid spacing 0.4
#
###############################################################################

data_WISVEB
_chemical_formula_moiety         '(C96 H104 Cd8 N16 O44)n'
_symmetry_cell_setting           triclinic
_symmetry_space_group_name_H-M   'P 1'
_symmetry_Int_Tables_number      1
_space_group_name_Hall           'P 1'
loop_
_symmetry_equiv_pos_site_id
_symmetry_equiv_pos_as_xyz
1 x,y,z
_cell_length_a                   14.319(3)
_cell_length_b                   14.490(3)
_cell_length_c                   22.598(5)
_cell_angle_alpha                90
_cell_angle_beta                 98.21(3)
_cell_angle_gamma                90
_cell_volume                     4640.63
loop_
_atom_site_label
_atom_site_type_symbol
_atom_site_fract_x
_atom_site_fract_y
_atom_site_fract_z
C26 C 0.0385(4) 0.4597(3) 0.11303(19)
H27 H 0.0746 0.4167 0.0958
C27 C 0.0416(3) 0.4614(3) 0.17422(19)
C31 C 0.1054(3) 0.3968(3) 0.2131(2)
O12 O 0.1027(3) 0.4012(3) 0.26796(14)
O13 O 0.1525(2) 0.3420(2) 0.18746(16)
Cd6 Cd 0.17877(3) 0.36744(3) 0.360015(14)
Cd10 Cd 0.25586(2) 0.24923(3) 0.241169(15)
C1 C 0.0183(4) 0.4782(4) 0.9235(2)
C4 C 0.0150(3) 0.4763(3) 0.80102(19)
H2 H 0.0152 0.4759 0.7599
C5 C 0.0714(3) 0.4146(3) 0.8368(2)
C6 C 0.0727(3) 0.4165(4) 0.8980(2)
H3 H 0.1109 0.3755 0.9220
C8 C 0.1344(3) 0.3484(3) 0.8103(3)
H8 H 0.0115 0.4392 0.6548
N1 N 0.0285(3) 0.4769(3) 0.98777(17)
O3 O 0.1425(3) 0.3563(3) 0.7560(2)
O4 O 0.1777(3) 0.2884(3) 0.84404(19)
H25 H 0.0088 0.6539 0.6394
Cd5 Cd 0.17877(3) 0.13256(3) 0.860015(14)
Cd9 Cd 0.25586(2) 0.25077(3) 0.741169(15)
C25 C 0.9817(4) 0.5218(4) 0.0765(2)
C28 C 0.9850(3) 0.5237(3) 0.19898(19)
H28 H 0.9848 0.5241 0.2401
C29 C 0.9286(3) 0.5854(3) 0.1632(2)
C30 C 0.9273(3) 0.5835(4) 0.1020(2)
H29 H 0.8891 0.6245 0.0780
C32 C 0.8656(3) 0.6516(3) 0.1897(3)
N5 N 0.9715(3) 0.5231(3) 0.01223(17)
O14 O 0.8575(3) 0.6437(3) 0.2440(2)
O15 O 0.8223(3) 0.7116(3) 0.15596(19)
Cd7 Cd 0.82123(3) 0.86744(3) 0.139985(14)
Cd12 Cd 0.74414(2) 0.74923(3) 0.258831(15)
C2 C 0.9615(4) 0.5403(3) 0.88697(19)
H1 H 0.9254 0.5833 0.9042
C3 C 0.9584(3) 0.5386(3) 0.82578(19)
C7 C 0.8946(3) 0.6032(3) 0.7869(2)
C9 C 0.4929(4) 0.4794(4) 0.5777(2)
C10 C 0.5572(4) 0.5386(4) 0.6105(2)
H4 H 0.5982 0.5739 0.5914
C11 C 0.5594(4) 0.5441(4) 0.6717(2)
C12 C 0.4991(4) 0.4897(4) 0.7003(2)
H5 H 0.5012 0.4934 0.7416
C13 C 0.4359(3) 0.4300(4) 0.6673(2)
C14 C 0.4325(3) 0.4252(4) 0.6057(2)
H6 H 0.3899 0.3859 0.5833
C15 C 0.6254(3) 0.6107(3) 0.7082(2)
C16 C 0.3697(3) 0.3700(4) 0.6970(2)
C17 C 0.9679(4) 0.4462(4) 0.6187(3)
H7 H 0.9816 0.4011 0.5900
H9 H 0.9739 0.5070 0.6028
C18 C 0.8691(5) 0.4324(5) 0.6319(3)
C19 C 0.9348(5) 0.2788(4) 0.6764(3)
H10 H 0.9508 0.2436 0.6433
H11 H 0.9172 0.2377 0.7062
H12 H 0.9883 0.3149 0.6933
C20 C 0.7558(4) 0.3038(4) 0.6512(3)
H13 H 0.7365 0.3041 0.6902
H14 H 0.7544 0.2418 0.6362
H15 H 0.7136 0.3416 0.6246
C21 C 0.6484(4) 0.7856(4) 0.5509(3)
H16 H 0.6300 0.8397 0.5275
H17 H 0.6760 0.8037 0.5904
H18 H 0.5939 0.7480 0.5532
C22 C 0.7188(4) 0.7321(4) 0.5220(2)
C23 C 0.8180(4) 0.7165(4) 0.4436(3)
H19 H 0.8753 0.7125 0.4713
H20 H 0.8308 0.7447 0.4072
H21 H 0.7930 0.6557 0.4353
C24 C 0.7200(4) 0.8606(4) 0.4397(3)
H22 H 0.6702 0.8493 0.4073
H23 H 0.7733 0.8867 0.4243
H24 H 0.6984 0.9029 0.4675
Cd1 Cd 0.82123(3) 0.63256(3) 0.639985(14)
Cd2 Cd 0.74414(2) 0.75077(3) 0.758831(15)
N2 N 0.4854(3) 0.4671(3) 0.51444(18)
N3 N 0.8542(4) 0.3414(4) 0.6552(2)
N4 N 0.7479(3) 0.7734(3) 0.47025(19)
O1 O 0.8973(3) 0.5988(3) 0.73204(14)
O2 O 0.8475(2) 0.6580(2) 0.81254(16)
O5 O 0.6845(2) 0.6552(2) 0.68135(16)
O6 O 0.6200(3) 0.6246(3) 0.76130(16)
O7 O 0.3782(3) 0.3678(3) 0.75226(15)
O8 O 0.3117(3) 0.3225(3) 0.66444(16)
O9 O 0.7958(3) 0.4816(2) 0.62420(17)
O10 O 0.7494(3) 0.6611(3) 0.54736(16)
O11 O 0.9614(3) 0.6336(3) 0.60778(19)
H26 H 0.9596 0.6747 0.5743
C33 C 0.5071(4) 0.5206(4) 0.4223(2)
C34 C 0.4428(4) 0.4614(4) 0.3895(2)
H30 H 0.4018 0.4261 0.4086
C35 C 0.4406(4) 0.4559(4) 0.3283(2)
C36 C 0.5009(4) 0.5103(4) 0.2997(2)
H31 H 0.4988 0.5066 0.2584
C37 C 0.5641(3) 0.5700(4) 0.3327(2)
C38 C 0.5675(3) 0.5748(4) 0.3943(2)
H32 H 0.6101 0.6141 0.4167
C39 C 0.3746(3) 0.3893(3) 0.2918(2)
C40 C 0.6303(3) 0.6300(4) 0.3030(2)
N6 N 0.5146(3) 0.5329(3) 0.48556(18)
O16 O 0.3155(2) 0.3448(2) 0.31865(16)
O17 O 0.3800(3) 0.3754(3) 0.23870(16)
O18 O 0.6218(3) 0.6322(3) 0.24774(15)
O19 O 0.6883(3) 0.6775(3) 0.33556(16)
C41 C 0.0321(4) 0.5538(4) 0.3813(3)
H33 H 0.0184 0.5989 0.4100
H35 H 0.0261 0.4930 0.3972
C42 C 0.1309(5) 0.5676(5) 0.3681(3)
C43 C 0.0652(5) 0.7212(4) 0.3236(3)
H36 H 0.0492 0.7564 0.3567
H37 H 0.0828 0.7623 0.2938
H38 H 0.0117 0.6851 0.3067
C44 C 0.2442(4) 0.6962(4) 0.3488(3)
H39 H 0.2635 0.6959 0.3098
H40 H 0.2456 0.7582 0.3638
H41 H 0.2864 0.6584 0.3754
C45 C 0.3516(4) 0.2144(4) 0.4491(3)
H42 H 0.3700 0.1603 0.4725
H43 H 0.3240 0.1963 0.4096
H44 H 0.4061 0.2520 0.4468
C46 C 0.2812(4) 0.2679(4) 0.4780(2)
C47 C 0.1820(4) 0.2835(4) 0.5564(3)
H45 H 0.1247 0.2875 0.5287
H46 H 0.1692 0.2553 0.5928
H47 H 0.2070 0.3443 0.5647
C48 C 0.2800(4) 0.1394(4) 0.5603(3)
H48 H 0.3298 0.1507 0.5927
H49 H 0.2267 0.1133 0.5757
H50 H 0.3016 0.0971 0.5325
N7 N 0.1458(4) 0.6586(4) 0.3448(2)
N8 N 0.2521(3) 0.2266(3) 0.52975(19)
O20 O 0.2042(3) 0.5184(2) 0.37580(17)
O21 O 0.2506(3) 0.3389(3) 0.45264(16)
O22 O 0.0386(3) 0.3664(3) 0.39222(19)
H52 H 0.0404 0.3253 0.4257
O25 O 0.8575(3) 0.8563(3) 0.7440(2)
O26 O 0.1425(3) 0.1437(3) 0.2560(2)
O27 O 0.8223(3) 0.7884(3) 0.65596(19)
O28 O 0.1777(3) 0.2116(3) 0.34404(19)
O29 O 0.6218(3) 0.8678(3) 0.74774(15)
O30 O 0.3782(3) 0.1322(3) 0.25226(15)
O31 O 0.6883(3) 0.8225(3) 0.83556(16)
O32 O 0.3117(3) 0.1775(3) 0.16444(16)
H34 H 0.9885 0.5608 0.3452
H51 H 0.9912 0.3461 0.3606
H34_2 H 0.0115 0.0608 0.1548
C23_2 C 0.1820(4) 0.2165(4) 0.0564(3)
H19_2 H 0.1247 0.2125 0.0287
H20_2 H 0.1692 0.2447 0.0928
H21_2 H 0.2070 0.1557 0.0647
C24_2 C 0.2800(4) 0.3606(4) 0.0603(3)
H22_2 H 0.3298 0.3493 0.0927
H23_2 H 0.2267 0.3867 0.0757
H24_2 H 0.3016 0.4029 0.0325
N4_2 N 0.2521(3) 0.2734(3) 0.02975(19)
C33_2 C 0.4929(4) 0.0206(4) 0.0777(2)
C36_2 C 0.4991(4) 0.0103(4) 0.2003(2)
H31_2 H 0.5012 0.0066 0.2416
C37_2 C 0.4359(3) 0.0700(4) 0.1673(2)
C38_2 C 0.4325(3) 0.0748(4) 0.1057(2)
H32_2 H 0.3899 0.1141 0.0833
C40_2 C 0.3697(3) 0.1300(4) 0.1970(2)
N6_2 N 0.4854(3) 0.0329(3) 0.01444(18)
C41_2 C 0.9679(4) 0.0538(4) 0.1187(3)
H33_2 H 0.9816 0.0989 0.0900
C42_2 C 0.8691(5) 0.0676(5) 0.1319(3)
C43_2 C 0.9348(5) 0.2212(4) 0.1764(3)
H36_2 H 0.9508 0.2564 0.1433
H37_2 H 0.9172 0.2623 0.2062
H38_2 H 0.9883 0.1851 0.1933
C44_2 C 0.7558(4) 0.1962(4) 0.1512(3)
H39_2 H 0.7365 0.1959 0.1902
H40_2 H 0.7544 0.2582 0.1362
H41_2 H 0.7136 0.1584 0.1246
N7_2 N 0.8542(4) 0.1586(4) 0.1552(2)
O20_2 O 0.7958(3) 0.0184(2) 0.12420(17)
C2_2 C 0.0385(4) 0.0403(3) 0.61303(19)
H1_2 H 0.0746 0.0833 0.5958
C3_2 C 0.0416(3) 0.0386(3) 0.67422(19)
C7_2 C 0.1054(3) 0.1032(3) 0.7131(2)
C10_2 C 0.4428(4) 0.0386(4) 0.8895(2)
H4_2 H 0.4018 0.0739 0.9086
C11_2 C 0.4406(4) 0.0441(4) 0.8283(2)
C15_2 C 0.3746(3) 0.1107(3) 0.7918(2)
H9_2 H 0.0261 0.0070 0.8972
C21_2 C 0.3516(4) 0.2856(4) 0.9491(3)
H16_2 H 0.3700 0.3397 0.9725
H17_2 H 0.3240 0.3037 0.9096
H18_2 H 0.4061 0.2480 0.9468
C22_2 C 0.2812(4) 0.2321(4) 0.9780(2)
O1_2 O 0.1027(3) 0.0988(3) 0.76796(14)
O2_2 O 0.1525(2) 0.1580(2) 0.68746(16)
O5_2 O 0.3155(2) 0.1552(2) 0.81865(16)
O6_2 O 0.3800(3) 0.1246(3) 0.73870(16)
O10_2 O 0.2506(3) 0.1611(3) 0.95264(16)
O11_2 O 0.0386(3) 0.1336(3) 0.89222(19)
H26_2 H 0.0404 0.1747 0.9257
C25_2 C 0.0183(4) 0.0218(4) 0.4235(2)
C28_2 C 0.0150(3) 0.0237(3) 0.30102(19)
H28_2 H 0.0152 0.0241 0.2599
C29_2 C 0.0714(3) 0.0854(3) 0.3368(2)
C30_2 C 0.0727(3) 0.0835(4) 0.3980(2)
H29_2 H 0.1109 0.1245 0.4220
C32_2 C 0.1344(3) 0.1516(3) 0.3103(3)
N5_2 N 0.0285(3) 0.0231(3) 0.48777(17)
C34_2 C 0.5572(4) 0.9614(4) 0.1105(2)
H30_2 H 0.5982 0.9261 0.0914
C35_2 C 0.5594(4) 0.9559(4) 0.1717(2)
C39_2 C 0.6254(3) 0.8893(3) 0.2082(2)
O16_2 O 0.6845(2) 0.8448(2) 0.18135(16)
O17_2 O 0.6200(3) 0.8754(3) 0.26130(16)
H35_2 H 0.9739 0.9930 0.1028
C45_2 C 0.6484(4) 0.7144(4) 0.0509(3)
H42_2 H 0.6300 0.6603 0.0275
H43_2 H 0.6760 0.6963 0.0904
H44_2 H 0.5939 0.7520 0.0532
C46_2 C 0.7188(4) 0.7679(4) 0.0220(2)
O21_2 O 0.7494(3) 0.8389(3) 0.04736(16)
O22_2 O 0.9614(3) 0.8664(3) 0.10778(19)
H52_2 H 0.9596 0.8253 0.0743
O23 O 0.8973(3) 0.9012(3) 0.23204(14)
O24 O 0.8475(2) 0.8420(2) 0.31254(16)
C9_2 C 0.5071(4) 0.9794(4) 0.9223(2)
C12_2 C 0.5009(4) 0.9897(4) 0.7997(2)
H5_2 H 0.4988 0.9934 0.7584
C13_2 C 0.5641(3) 0.9300(4) 0.8327(2)
C14_2 C 0.5675(3) 0.9252(4) 0.8943(2)
H6_2 H 0.6101 0.8859 0.9167
C16_2 C 0.6303(3) 0.8700(4) 0.8030(2)
C17_2 C 0.0321(4) 0.9462(4) 0.8813(3)
H7_2 H 0.0184 0.9011 0.9100
C18_2 C 0.1309(5) 0.9324(5) 0.8681(3)
C19_2 C 0.0652(5) 0.7788(4) 0.8236(3)
H10_2 H 0.0492 0.7436 0.8567
H11_2 H 0.0828 0.7377 0.7938
H12_2 H 0.0117 0.8149 0.8067
C20_2 C 0.2442(4) 0.8038(4) 0.8488(3)
H13_2 H 0.2635 0.8041 0.8098
H14_2 H 0.2456 0.7418 0.8638
H15_2 H 0.2864 0.8416 0.8754
N2_2 N 0.5146(3) 0.9671(3) 0.98556(18)
N3_2 N 0.1458(4) 0.8414(4) 0.8448(2)
O9_2 O 0.2042(3) 0.9816(2) 0.87580(17)
C47_2 C 0.8180(4) 0.7835(4) 0.9436(3)
H45_2 H 0.8753 0.7875 0.9713
H46_2 H 0.8308 0.7553 0.9072
H47_2 H 0.7930 0.8443 0.9353
C48_2 C 0.7200(4) 0.6394(4) 0.9397(3)
H48_2 H 0.6702 0.6507 0.9073
H49_2 H 0.7733 0.6133 0.9243
H50_2 H 0.6984 0.5971 0.9675
N8_2 N 0.7479(3) 0.7266(3) 0.97025(19)
C1_2 C 0.9817(4) 0.9782(4) 0.5765(2)
C4_2 C 0.9850(3) 0.9763(3) 0.69898(19)
H2_2 H 0.9848 0.9759 0.7401
C5_2 C 0.9286(3) 0.9146(3) 0.6632(2)
C6_2 C 0.9273(3) 0.9165(4) 0.6020(2)
H3_2 H 0.8891 0.8755 0.5780
C8_2 C 0.8656(3) 0.8484(3) 0.6897(3)
H8_2 H 0.9885 0.9392 0.8452
N1_2 N 0.9715(3) 0.9769(3) 0.51223(17)
C26_2 C 0.9615(4) 0.9597(3) 0.38697(19)
H27_2 H 0.9254 0.9167 0.4042
C27_2 C 0.9584(3) 0.9614(3) 0.32578(19)
C31_2 C 0.8946(3) 0.8968(3) 0.2869(2)
H51_2 H 0.0088 0.8461 0.1394
H25_2 H 0.9912 0.1539 0.8606
loop_
_geom_bond_atom_site_label_1
_geom_bond_atom_site_label_2
_geom_bond_site_symmetry_1
_geom_bond_site_symmetry_2
C26 H27 1_555 1_555
C27 C26 1_555 1_555
C31 C27 1_555 1_555
O12 C31 1_555 1_555
O13 C31 1_555 1_555
Cd6 O12 1_555 1_555
Cd10 O13 1_555 1_555
H2 C4 1_555 1_555
C5 C4 1_555 1_555
C6 C1 1_555 1_555
H3 C6 1_555 1_555
C8 C5 1_555 1_555
N1 C1 1_555 1_555
O3 C8 1_555 1_555
O4 C8 1_555 1_555
Cd5 O4 1_555 1_555
Cd9 O3 1_555 1_555
C5 C6 1_555 1_555
O4 Cd9 1_555 1_555
H28 C28 1_555 1_555
C29 C28 1_555 1_555
C30 C25 1_555 1_555
H29 C30 1_555 1_555
C32 C29 1_555 1_555
O14 C32 1_555 1_555
O15 C32 1_555 1_555
Cd7 O15 1_555 1_555
Cd12 O14 1_555 1_555
C25 N5 1_555 1_555
C29 C30 1_555 1_555
O15 Cd12 1_555 1_555
C2 H1 1_555 1_555
C3 C2 1_555 1_555
C7 C3 1_555 1_555
C9 C10 1_555 1_555
C10 H4 1_555 1_555
C11 C10 1_555 1_555
C12 C11 1_555 1_555
H5 C12 1_555 1_555
C13 C12 1_555 1_555
C14 C9 1_555 1_555
H6 C14 1_555 1_555
C15 C11 1_555 1_555
C16 C13 1_555 1_555
C17 H7 1_555 1_555
H9 C17 1_555 1_555
C18 C17 1_555 1_555
C19 H10 1_555 1_555
H11 C19 1_555 1_555
H12 C19 1_555 1_555
C20 H13 1_555 1_555
H14 C20 1_555 1_555
H15 C20 1_555 1_555
C21 H16 1_555 1_555
H17 C21 1_555 1_555
H18 C21 1_555 1_555
C22 C21 1_555 1_555
C23 H19 1_555 1_555
H20 C23 1_555 1_555
H21 C23 1_555 1_555
C24 H22 1_555 1_555
H23 C24 1_555 1_555
H24 C24 1_555 1_555
Cd1 O1 1_555 1_555
Cd2 O2 1_555 1_555
N2 C9 1_555 1_555
N3 C18 1_555 1_555
N4 C22 1_555 1_555
O1 C7 1_555 1_555
O2 C7 1_555 1_555
O5 C15 1_555 1_555
O6 C15 1_555 1_555
O7 C16 1_555 1_555
O8 C16 1_555 1_555
O9 C18 1_555 1_555
O10 C22 1_555 1_555
O11 Cd1 1_555 1_555
H26 O11 1_555 1_555
C33 C34 1_555 1_555
C34 H30 1_555 1_555
C35 C34 1_555 1_555
C36 C35 1_555 1_555
H31 C36 1_555 1_555
C37 C36 1_555 1_555
C38 C33 1_555 1_555
H32 C38 1_555 1_555
C39 C35 1_555 1_555
C40 C37 1_555 1_555
N6 N2 1_555 1_555
O16 C39 1_555 1_555
O17 C39 1_555 1_555
O18 C40 1_555 1_555
O19 C40 1_555 1_555
C41 H33 1_555 1_555
H35 C41 1_555 1_555
C42 C41 1_555 1_555
C43 H36 1_555 1_555
H37 C43 1_555 1_555
H38 C43 1_555 1_555
C44 H39 1_555 1_555
H40 C44 1_555 1_555
H41 C44 1_555 1_555
C45 H42 1_555 1_555
H43 C45 1_555 1_555
H44 C45 1_555 1_555
C46 C45 1_555 1_555
C47 H45 1_555 1_555
H46 C47 1_555 1_555
H47 C47 1_555 1_555
C48 H48 1_555 1_555
H49 C48 1_555 1_555
H50 C48 1_555 1_555
Cd6 O16 1_555 1_555
Cd10 O16 1_555 1_555
N7 C42 1_555 1_555
N8 C46 1_555 1_555
O20 C42 1_555 1_555
O21 C46 1_555 1_555
O22 Cd6 1_555 1_555
H52 O22 1_555 1_555
Cd9 O7 1_555 1_555
Cd12 O18 1_555 1_555
O25 Cd2 1_555 1_555
O26 Cd10 1_555 1_555
O27 Cd1 1_555 1_555
O28 Cd6 1_555 1_555
O29 Cd2 1_555 1_555
O30 Cd10 1_555 1_555
O31 Cd2 1_555 1_555
O32 Cd10 1_555 1_555
C13 C14 1_555 1_555
C19 N3 1_555 1_555
C20 N3 1_555 1_555
C23 N4 1_555 1_555
C24 N4 1_555 1_555
Cd1 O5 1_555 1_555
Cd1 O9 1_555 1_555
Cd1 O10 1_555 1_555
Cd2 O5 1_555 1_555
Cd2 O6 1_555 1_555
Cd2 O27 1_555 1_555
O8 Cd9 1_555 1_555
C33 N6 1_555 1_555
C37 C38 1_555 1_555
O17 Cd10 1_555 1_555
O19 Cd12 1_555 1_555
C43 N7 1_555 1_555
C44 N7 1_555 1_555
C47 N8 1_555 1_555
C48 N8 1_555 1_555
Cd6 O20 1_555 1_555
Cd6 O21 1_555 1_555
Cd10 O28 1_555 1_555
C23_2 H19_2 1_555 1_555
H20_2 C23_2 1_555 1_555
H21_2 C23_2 1_555 1_555
C24_2 H22_2 1_555 1_555
H23_2 C24_2 1_555 1_555
H24_2 C24_2 1_555 1_555
H31_2 C36_2 1_555 1_555
C37_2 C36_2 1_555 1_555
C38_2 C33_2 1_555 1_555
H32_2 C38_2 1_555 1_555
C40_2 C37_2 1_555 1_555
O30 C40_2 1_555 1_555
O32 C40_2 1_555 1_555
C41_2 H33_2 1_555 1_555
C42_2 C41_2 1_555 1_555
C43_2 H36_2 1_555 1_555
H37_2 C43_2 1_555 1_555
H38_2 C43_2 1_555 1_555
C44_2 H39_2 1_555 1_555
H40_2 C44_2 1_555 1_555
H41_2 C44_2 1_555 1_555
N7_2 C42_2 1_555 1_555
O20_2 C42_2 1_555 1_555
C23_2 N4_2 1_555 1_555
C24_2 N4_2 1_555 1_555
C33_2 N6_2 1_555 1_555
C37_2 C38_2 1_555 1_555
C43_2 N7_2 1_555 1_555
C44_2 N7_2 1_555 1_555
C2_2 H1_2 1_555 1_555
C3_2 C2_2 1_555 1_555
C7_2 C3_2 1_555 1_555
C10_2 H4_2 1_555 1_555
C11_2 C10_2 1_555 1_555
C15_2 C11_2 1_555 1_555
C21_2 H16_2 1_555 1_555
H17_2 C21_2 1_555 1_555
H18_2 C21_2 1_555 1_555
C22_2 C21_2 1_555 1_555
Cd5 O1_2 1_555 1_555
Cd9 O2_2 1_555 1_555
O1_2 C7_2 1_555 1_555
O2_2 C7_2 1_555 1_555
O5_2 C15_2 1_555 1_555
O6_2 C15_2 1_555 1_555
O10_2 C22_2 1_555 1_555
O11_2 Cd5 1_555 1_555
H26_2 O11_2 1_555 1_555
H28_2 C28_2 1_555 1_555
C29_2 C28_2 1_555 1_555
C30_2 C25_2 1_555 1_555
H29_2 C30_2 1_555 1_555
C32_2 C29_2 1_555 1_555
O26 C32_2 1_555 1_555
O28 C32_2 1_555 1_555
Cd5 O5_2 1_555 1_555
Cd5 O10_2 1_555 1_555
Cd9 O5_2 1_555 1_555
Cd9 O6_2 1_555 1_555
C25_2 N5_2 1_555 1_555
C29_2 C30_2 1_555 1_555
C34_2 H30_2 1_555 1_555
C35_2 C34_2 1_555 1_555
C39_2 C35_2 1_555 1_555
O16_2 C39_2 1_555 1_555
O17_2 C39_2 1_555 1_555
C45_2 H42_2 1_555 1_555
H43_2 C45_2 1_555 1_555
H44_2 C45_2 1_555 1_555
C46_2 C45_2 1_555 1_555
Cd7 O16_2 1_555 1_555
Cd12 O16_2 1_555 1_555
O21_2 C46_2 1_555 1_555
O22_2 Cd7 1_555 1_555
H52_2 O22_2 1_555 1_555
O23 Cd7 1_555 1_555
O24 Cd12 1_555 1_555
O17_2 Cd12 1_555 1_555
Cd7 O21_2 1_555 1_555
H5_2 C12_2 1_555 1_555
C13_2 C12_2 1_555 1_555
C14_2 C9_2 1_555 1_555
H6_2 C14_2 1_555 1_555
C16_2 C13_2 1_555 1_555
C17_2 H7_2 1_555 1_555
C18_2 C17_2 1_555 1_555
C19_2 H10_2 1_555 1_555
H11_2 C19_2 1_555 1_555
H12_2 C19_2 1_555 1_555
C20_2 H13_2 1_555 1_555
H14_2 C20_2 1_555 1_555
H15_2 C20_2 1_555 1_555
N2_2 C9_2 1_555 1_555
N3_2 C18_2 1_555 1_555
O29 C16_2 1_555 1_555
O31 C16_2 1_555 1_555
O9_2 C18_2 1_555 1_555
C47_2 H45_2 1_555 1_555
H46_2 C47_2 1_555 1_555
H47_2 C47_2 1_555 1_555
C48_2 H48_2 1_555 1_555
H49_2 C48_2 1_555 1_555
H50_2 C48_2 1_555 1_555
C13_2 C14_2 1_555 1_555
C19_2 N3_2 1_555 1_555
C20_2 N3_2 1_555 1_555
C47_2 N8_2 1_555 1_555
C48_2 N8_2 1_555 1_555
H2_2 C4_2 1_555 1_555
C5_2 C4_2 1_555 1_555
C6_2 C1_2 1_555 1_555
H3_2 C6_2 1_555 1_555
C8_2 C5_2 1_555 1_555
N1_2 C1_2 1_555 1_555
O25 C8_2 1_555 1_555
O27 C8_2 1_555 1_555
C26_2 H27_2 1_555 1_555
C27_2 C26_2 1_555 1_555
C31_2 C27_2 1_555 1_555
O23 C31_2 1_555 1_555
O24 C31_2 1_555 1_555
C5_2 C6_2 1_555 1_555

#END
