
###############################################################################
#
# This file contains modified crystal structure data generated from the
# MOF subset of the Cambridge Structural Database (CSD) v543 
# hosted by the Cambridge Crystallographic Data Centre (CCDC).
#
# This work is licensed under the Creative Commons
# Attribution-NonCommercial-ShareAlike 4.0 International License.
# To view a copy of this license, visit
# http://creativecommons.org/licenses/by-nc-sa/4.0/
# or send a letter to
# Creative Commons, PO Box 1866, Mountain View, CA 94042, USA.
#
# CIF created using the CSD Python API on 29 September 2022
# The structure has been converted into the P1 space group
# The structure has a 3D framework
# The original CSD entry WITFIQ is in the hexagonal crystal system
# The original CSD entry WITFIQ is in a Sohncke space group
# The framework has been calculated to contain at least 10.0% void space
# The void calculation uses a probe of radius 1.32A, grid spacing 0.4
#
###############################################################################

data_WITFIQ
_chemical_formula_moiety         '(C288 H192 N24 O48 Zn12)n'
_symmetry_cell_setting           triclinic
_symmetry_space_group_name_H-M   'P 1'
_symmetry_Int_Tables_number      1
_space_group_name_Hall           'P 1'
loop_
_symmetry_equiv_pos_site_id
_symmetry_equiv_pos_as_xyz
1 x,y,z
_cell_length_a                   18.615(3)
_cell_length_b                   18.615(3)
_cell_length_c                   29.464(6)
_cell_angle_alpha                90
_cell_angle_beta                 90
_cell_angle_gamma                120
_cell_volume                     8841.96
loop_
_atom_site_label
_atom_site_type_symbol
_atom_site_fract_x
_atom_site_fract_y
_atom_site_fract_z
Zn5 Zn 0.02576(3) 0.512881(15) 0.5833
Zn1 Zn 0.35933(3) 0.179666(15) 0.5833
O1 O 0.33848(19) 0.2683(2) 0.54660(10)
O2 O 0.27134(19) 0.2114(2) 0.60731(9)
O3 O 0.05687(14) 0.42775(14) 0.59418(8)
O4 O 0.13667(19) 0.50608(16) 0.53970(10)
N1 N 0.45393(15) 0.20136(15) 0.53585(7)
N2 N 0.53871(16) 0.06279(16) 0.30267(8)
C1 C 0.4723(2) 0.14558(19) 0.52127(11)
H1 H 0.4394 0.0910 0.5308
C2 C 0.5381(2) 0.16411(18) 0.49245(11)
H2 H 0.5498 0.1230 0.4837
C3 C 0.58641(17) 0.24466(16) 0.47688(8)
C4 C 0.5664(2) 0.30273(18) 0.49174(10)
H3 H 0.5972 0.3575 0.4821
C5 C 0.5008(2) 0.27945(19) 0.52087(11)
H4 H 0.4883 0.3195 0.5306
C6 C 0.65673(16) 0.26713(16) 0.44435(8)
H5 H 0.6801 0.2308 0.4491
C7 C 0.6183(2) 0.1201(3) 0.30080(15)
H6 H 0.6513 0.1144 0.2791
C8 C 0.6549(2) 0.1881(3) 0.32938(15)
H7 H 0.7110 0.2270 0.3265
C9 C 0.60728(17) 0.19752(17) 0.36246(8)
C10 C 0.52542(19) 0.1369(2) 0.36491(11)
H8 H 0.4913 0.1400 0.3869
C11 C 0.49312(19) 0.0707(2) 0.33472(11)
H9 H 0.4374 0.0305 0.3370
C12 C 0.64116(16) 0.27261(15) 0.39238(8)
H10 H 0.6056 0.2972 0.3892
C13 C 0.2835(2) 0.2572(2) 0.57307(11)
C14 C 0.23129(18) 0.29779(19) 0.56692(10)
C15 C 0.2005(3) 0.3131(3) 0.60529(15)
H11 H 0.2074 0.2939 0.6331
C16 C 0.15817(17) 0.35785(17) 0.60306(9)
H12 H 0.1354 0.3658 0.6294
C17 C 0.14982(17) 0.38988(16) 0.56298(9)
C18 C 0.17630(17) 0.37069(19) 0.52153(10)
C19 C 0.1619(3) 0.3953(3) 0.47848(12)
H13 H 0.1377 0.4285 0.4769
C20 C 0.1829(4) 0.3713(4) 0.43938(13)
H14 H 0.1722 0.3873 0.4115
C21 C 0.2207(4) 0.3219(4) 0.44129(12)
H15 H 0.2348 0.3054 0.4145
C22 C 0.2368(3) 0.2983(3) 0.48178(12)
H16 H 0.2619 0.2659 0.4824
C23 C 0.21599(19) 0.3220(2) 0.52332(10)
C24 C 0.11234(18) 0.44509(17) 0.56495(11)
N3 N 0.79864(15) 0.54607(15) 0.29748(7)
N4 N 0.93721(16) 0.46129(16) 0.53066(8)
C25 C 0.85442(19) 0.5277(2) 0.31206(11)
H17 H 0.9090 0.5606 0.3025
C26 C 0.83589(18) 0.4619(2) 0.34088(11)
H18 H 0.8770 0.4502 0.3496
C27 C 0.75534(16) 0.41359(17) 0.35645(8)
C28 C 0.69727(18) 0.4336(2) 0.34159(10)
H19 H 0.6425 0.4028 0.3512
C29 C 0.72055(19) 0.4992(2) 0.31246(11)
H20 H 0.6805 0.5117 0.3027
C30 C 0.73287(16) 0.34327(16) 0.38898(8)
H21 H 0.7692 0.3199 0.3842
C31 C 0.8799(3) 0.3817(2) 0.53253(15)
H22 H 0.8856 0.3487 0.5542
C32 C 0.8119(3) 0.3451(2) 0.50395(15)
H23 H 0.7730 0.2890 0.5068
C33 C 0.80248(17) 0.39272(17) 0.47087(8)
C34 C 0.8631(2) 0.47458(19) 0.46842(11)
H24 H 0.8600 0.5087 0.4464
C35 C 0.9293(2) 0.50688(19) 0.49861(11)
H25 H 0.9695 0.5626 0.4963
C36 C 0.72739(15) 0.35884(16) 0.44095(8)
H26 H 0.7028 0.3944 0.4441
O5 O 0.33848(19) 0.07018(28) 0.62007(10)
O6 O 0.27134(19) 0.05994(28) 0.55936(9)
C37 C 0.2835(2) 0.0263(3) 0.59360(11)
Zn3 Zn 0.820336(34) 0.64067(3) 0.2500
O9 O 0.05687(14) 0.62912(20) 0.57249(8)
O10 O 0.13667(19) 0.63059(25) 0.62697(10)
N5 N 0.45393(15) 0.25257(21) 0.63082(7)
C38 C 0.23129(18) 0.93350(26) 0.59975(10)
C39 C 0.2005(3) 0.8874(4) 0.56138(15)
H27 H 0.2074 0.9135 0.5336
C40 C 0.15817(17) 0.80032(24) 0.56361(9)
H28 H 0.1354 0.7696 0.5373
C41 C 0.14982(17) 0.75994(23) 0.60369(9)
C42 C 0.17630(17) 0.80561(25) 0.64514(10)
C43 C 0.1619(3) 0.7666(4) 0.68819(12)
H29 H 0.1377 0.7092 0.6898
C44 C 0.1829(4) 0.8116(6) 0.72729(13)
H30 H 0.1722 0.7849 0.7552
C45 C 0.2207(4) 0.8988(6) 0.72538(12)
H31 H 0.2348 0.9294 0.7522
C46 C 0.2368(3) 0.9385(4) 0.68489(12)
H32 H 0.2619 0.9960 0.6843
C47 C 0.21599(19) 0.89399(28) 0.64335(10)
C48 C 0.11234(18) 0.66725(25) 0.60172(11)
Zn6 Zn 0.487121(34) 0.97424(3) 0.2500
N6 N 0.93721(16) 0.47592(23) 0.63600(8)
O7 O 0.37088(20) 0.42775(24) 0.90582(8)
O8 O 0.36941(25) 0.50608(31) 0.96030(10)
C38_2 C 0.06650(26) 0.29779(32) 0.93308(10)
C39_2 C 0.1126(4) 0.3131(5) 0.89471(15)
H27_2 H 0.0865 0.2939 0.8669
C40_2 C 0.19968(24) 0.35785(29) 0.89694(9)
H28_2 H 0.2304 0.3658 0.8706
C41_2 C 0.24006(23) 0.38988(29) 0.93702(9)
C42_2 C 0.19439(25) 0.37069(30) 0.97847(10)
C47_2 C 0.10601(28) 0.32200(34) 0.97668(10)
C48_2 C 0.33275(25) 0.44509(31) 0.93505(11)
Zn4 Zn 0.487119(15) 0.512879(34) 0.9166
Zn1_2 Zn 0.820334(15) 0.179664(34) 0.9166
O1_2 O 0.7317(2) 0.07018(28) 0.87993(10)
O2_2 O 0.7886(2) 0.05994(28) 0.94064(9)
N1_2 N 0.79864(15) 0.25257(21) 0.86918(7)
C1_2 C 0.85442(19) 0.32672(28) 0.85460(11)
H1_2 H 0.9090 0.3484 0.8641
C2_2 C 0.83589(18) 0.37399(27) 0.82578(11)
H2_2 H 0.8770 0.4268 0.8170
C3_2 C 0.75534(16) 0.34175(23) 0.81021(8)
C4_2 C 0.69727(18) 0.26367(27) 0.82507(10)
H3_2 H 0.6425 0.2397 0.8154
C5_2 C 0.72055(19) 0.22135(28) 0.85420(11)
H4_2 H 0.6805 0.1688 0.8639
C6_2 C 0.73287(16) 0.38960(23) 0.77768(8)
H5_2 H 0.7692 0.4493 0.7824
C7_2 C 0.8799(3) 0.4982(4) 0.63413(15)
H6_2 H 0.8856 0.5369 0.6124
C8_2 C 0.8119(3) 0.4668(4) 0.66271(15)
H7_2 H 0.7730 0.4840 0.6598
C9_2 C 0.80248(17) 0.40976(24) 0.69579(8)
C10_2 C 0.8631(2) 0.38852(28) 0.69824(11)
H8_2 H 0.8600 0.3513 0.7202
C11_2 C 0.9293(2) 0.42242(28) 0.66805(11)
H9_2 H 0.9695 0.4069 0.6703
C12_2 C 0.72739(15) 0.36855(22) 0.72571(8)
H10_2 H 0.7028 0.3084 0.7225
C13_2 C 0.7428(2) 0.0263(3) 0.90640(11)
N4_2 N 0.53871(16) 0.47592(23) 0.86400(8)
C25_2 C 0.4723(2) 0.32672(28) 0.64540(11)
H17_2 H 0.4394 0.3484 0.6359
C26_2 C 0.5381(2) 0.37399(27) 0.67422(11)
H18_2 H 0.5498 0.4268 0.6830
C27_2 C 0.58641(17) 0.34175(23) 0.68979(8)
C28_2 C 0.5664(2) 0.26367(27) 0.67493(10)
H19_2 H 0.5972 0.2397 0.6846
C29_2 C 0.5008(2) 0.22135(28) 0.64580(11)
H20_2 H 0.4883 0.1688 0.6361
C30_2 C 0.65673(16) 0.38960(23) 0.72232(8)
H21_2 H 0.6801 0.4493 0.7176
C31_2 C 0.6183(2) 0.4982(4) 0.86587(15)
H22_2 H 0.6513 0.5369 0.8876
C32_2 C 0.6549(2) 0.4668(4) 0.83729(15)
H23_2 H 0.7110 0.4840 0.8402
C33_2 C 0.60728(17) 0.40976(24) 0.80421(8)
C34_2 C 0.52542(19) 0.38852(28) 0.80176(11)
H24_2 H 0.4913 0.3513 0.7798
C35_2 C 0.49312(19) 0.42242(28) 0.83195(11)
H25_2 H 0.4374 0.4069 0.8297
C36_2 C 0.64116(16) 0.36855(22) 0.77429(8)
H26_2 H 0.6056 0.3084 0.7775
O5_2 O 0.92982(28) 0.26830(34) 0.95340(10)
O6_2 O 0.94006(28) 0.21140(34) 0.89269(9)
C37_2 C 0.9737(3) 0.2572(4) 0.92693(11)
N5_2 N 0.74743(21) 0.20136(26) 0.96415(7)
O3_2 O 0.57225(14) 0.62912(20) 0.92751(8)
O4_2 O 0.49392(16) 0.63059(25) 0.87303(10)
C14_2 C 0.70221(19) 0.93350(26) 0.90025(10)
C15_2 C 0.6869(3) 0.8874(4) 0.93862(15)
H11_2 H 0.7061 0.9135 0.9664
C16_2 C 0.64215(17) 0.80032(24) 0.93639(9)
H12_2 H 0.6342 0.7696 0.9627
C17_2 C 0.61012(16) 0.75994(23) 0.89631(9)
C18_2 C 0.62931(19) 0.80561(25) 0.85486(10)
C19_2 C 0.6047(3) 0.7666(4) 0.81181(12)
H13_2 H 0.5715 0.7092 0.8102
C20_2 C 0.6287(4) 0.8116(6) 0.77271(13)
H14_2 H 0.6127 0.7849 0.7448
C21_2 C 0.6781(4) 0.8988(6) 0.77462(12)
H15_2 H 0.6946 0.9294 0.7478
C22_2 C 0.7017(3) 0.9385(4) 0.81511(12)
H16_2 H 0.7341 0.9960 0.8157
C23_2 C 0.6780(2) 0.89399(28) 0.85665(10)
C24_2 C 0.55491(17) 0.66725(25) 0.89828(11)
N6_2 N 0.52408(23) 0.46129(28) 0.96934(8)
N7 N 0.52408(23) 0.06279(16) 0.19733(8)
O3_3 O 0.37088(20) 0.94313(14) 0.26085(8)
O4_3 O 0.36941(25) 0.86333(19) 0.20637(10)
C14_3 C 0.06650(26) 0.76871(18) 0.23359(10)
C15_3 C 0.1126(4) 0.7995(3) 0.27196(15)
H11_3 H 0.0865 0.7926 0.2998
C16_3 C 0.19968(24) 0.84183(17) 0.26973(9)
H12_3 H 0.2304 0.8646 0.2961
C17_3 C 0.24006(23) 0.85018(17) 0.22965(9)
C18_3 C 0.19439(25) 0.82370(17) 0.18820(10)
C19_3 C 0.2334(4) 0.8381(3) 0.14515(12)
H13_3 H 0.2908 0.8623 0.1436
C20_3 C 0.1884(6) 0.8171(4) 0.10605(13)
H14_3 H 0.2151 0.8278 0.0782
C21_3 C 0.1012(6) 0.7793(4) 0.10796(12)
H15_3 H 0.0706 0.7652 0.0812
C22_3 C 0.0615(4) 0.7632(3) 0.14845(12)
H16_3 H 0.0040 0.7381 0.1491
C23_3 C 0.10601(28) 0.78401(19) 0.18999(10)
C24_3 C 0.33275(25) 0.88766(18) 0.23162(11)
O9_2 O 0.57225(24) 0.94313(14) 0.23915(8)
O10_2 O 0.49392(31) 0.86333(19) 0.29363(10)
O1_3 O 0.92982(28) 0.66152(19) 0.21327(10)
O2_3 O 0.94006(28) 0.72866(19) 0.27398(9)
N1_3 N 0.74743(21) 0.54607(15) 0.20252(7)
C1_3 C 0.67328(28) 0.5277(2) 0.18794(11)
H1_3 H 0.6516 0.5606 0.1975
C2_3 C 0.62601(27) 0.4619(2) 0.15912(11)
H2_3 H 0.5732 0.4502 0.1504
C3_3 C 0.65825(23) 0.41359(17) 0.14355(8)
C4_3 C 0.73633(27) 0.4336(2) 0.15841(10)
H3_3 H 0.7603 0.4028 0.1488
C5_3 C 0.77865(28) 0.4992(2) 0.18754(11)
H4_3 H 0.8312 0.5117 0.1973
C6_3 C 0.61040(23) 0.34327(16) 0.11102(8)
H5_3 H 0.5507 0.3199 0.1158
C9_3 C 0.59024(24) 0.39272(17) 0.02913(8)
C10_3 C 0.61148(28) 0.47458(19) 0.03158(11)
H8_3 H 0.6487 0.5087 0.0536
C11_3 C 0.57758(28) 0.50688(19) 0.00139(11)
H9_3 H 0.5931 0.5626 0.0037
C12_3 C 0.63145(22) 0.35884(16) 0.05905(8)
H10_3 H 0.6916 0.3944 0.0559
C13_3 C 0.9737(3) 0.7165(2) 0.23974(11)
C26_3 C 0.62601(27) 0.16411(18) 0.00755(11)
H18_3 H 0.5732 0.1230 0.0163
C27_3 C 0.65825(23) 0.24466(16) 0.02312(8)
C28_3 C 0.73633(27) 0.30273(18) 0.00826(10)
H19_3 H 0.7603 0.3575 0.0179
C30_3 C 0.61040(23) 0.26713(16) 0.05565(8)
H21_3 H 0.5507 0.2308 0.0509
C31_3 C 0.5018(4) 0.1201(3) 0.19920(15)
H22_3 H 0.4631 0.1144 0.2209
C32_3 C 0.5332(4) 0.1881(3) 0.17062(15)
H23_3 H 0.5160 0.2270 0.1735
C33_3 C 0.59024(24) 0.19752(17) 0.13754(8)
C34_3 C 0.61148(28) 0.1369(2) 0.13509(11)
H24_3 H 0.6487 0.1400 0.1131
C35_3 C 0.57758(28) 0.0707(2) 0.16528(11)
H25_3 H 0.5931 0.0305 0.1630
C36_3 C 0.63145(22) 0.27261(15) 0.10762(8)
H26_3 H 0.6916 0.2972 0.1108
O5_3 O 0.73170(34) 0.66152(19) 0.28673(10)
O6_3 O 0.78860(34) 0.72866(19) 0.22602(9)
C37_3 C 0.7428(4) 0.7165(2) 0.26026(11)
C38_3 C 0.70221(32) 0.76871(18) 0.26641(10)
C39_3 C 0.6869(5) 0.7995(3) 0.22804(15)
H27_3 H 0.7061 0.7926 0.2002
C40_3 C 0.64215(29) 0.84183(17) 0.23027(9)
H28_3 H 0.6342 0.8646 0.2039
C41_3 C 0.61012(29) 0.85018(17) 0.27035(9)
C42_3 C 0.62931(30) 0.82370(17) 0.31180(10)
C43_2 C 0.6047(5) 0.8381(3) 0.35485(12)
H29_2 H 0.5715 0.8623 0.3564
C44_2 C 0.6287(7) 0.8171(4) 0.39395(13)
H30_2 H 0.6127 0.8278 0.4218
C45_2 C 0.6781(7) 0.7793(4) 0.39204(12)
H31_2 H 0.6946 0.7652 0.4188
C46_2 C 0.7017(5) 0.7632(3) 0.35155(12)
H32_2 H 0.7341 0.7381 0.3509
C47_3 C 0.67800(34) 0.78401(19) 0.31001(10)
C48_3 C 0.55491(31) 0.88766(18) 0.26838(11)
C7_3 C 0.5018(4) 0.3817(2) 0.96747(15)
H6_3 H 0.4631 0.3487 0.9458
C8_3 C 0.5332(4) 0.3451(2) 0.99605(15)
H7_3 H 0.5160 0.2890 0.9932
C25_3 C 0.67328(28) 0.14558(19) 0.97873(11)
H17_3 H 0.6516 0.0910 0.9692
C29_3 C 0.77865(28) 0.27945(19) 0.97913(11)
H20_3 H 0.8312 0.3195 0.9694
C43_3 C 0.2334(4) 0.3953(5) 0.02152(12)
H29_3 H 0.2908 0.4285 0.0231
C44_3 C 0.1884(6) 0.3713(7) 0.06062(13)
H30_3 H 0.2151 0.3873 0.0885
C45_3 C 0.1012(6) 0.3219(7) 0.05871(12)
H31_3 H 0.0706 0.3054 0.0855
C46_3 C 0.0615(4) 0.2983(5) 0.01822(12)
H32_3 H 0.0040 0.2659 0.0176
N6_3 N 0.06279(16) 0.52408(23) 0.13600(8)
N7_2 N 0.06279(16) 0.53871(16) 0.03066(8)
O7_2 O 0.94313(14) 0.37088(20) 0.07249(8)
O8_2 O 0.86333(19) 0.36941(25) 0.12697(10)
C38_4 C 0.76871(18) 0.06650(26) 0.09975(10)
C39_4 C 0.7995(3) 0.1126(4) 0.06138(15)
H27_4 H 0.7926 0.0865 0.0336
C40_4 C 0.84183(17) 0.19968(24) 0.06361(9)
H28_4 H 0.8646 0.2304 0.0373
C41_4 C 0.85018(17) 0.24006(23) 0.10369(9)
C42_4 C 0.82370(17) 0.19439(25) 0.14514(10)
C43_4 C 0.8381(3) 0.2334(4) 0.18819(12)
H29_4 H 0.8623 0.2908 0.1898
C44_4 C 0.8171(4) 0.1884(6) 0.22729(13)
H30_4 H 0.8278 0.2151 0.2552
C45_4 C 0.7793(4) 0.1012(6) 0.22538(12)
H31_4 H 0.7652 0.0706 0.2522
C46_4 C 0.7632(3) 0.0615(4) 0.18489(12)
H32_4 H 0.7381 0.0040 0.1843
C47_4 C 0.78401(19) 0.10601(28) 0.14335(10)
C48_4 C 0.88766(18) 0.33275(25) 0.10172(11)
Zn4_2 Zn 0.97424(3) 0.487119(15) 0.0833
Zn6_2 Zn 0.512879(34) 0.02576(3) 0.7500
Zn1_3 Zn 0.64067(3) 0.820334(15) 0.0833
O1_4 O 0.66152(19) 0.7317(2) 0.04660(10)
O2_4 O 0.72866(19) 0.7886(2) 0.10731(9)
O3_4 O 0.94313(14) 0.57225(14) 0.09418(8)
O4_4 O 0.86333(19) 0.49392(16) 0.03970(10)
N1_4 N 0.54607(15) 0.79864(15) 0.03585(7)
C1_4 C 0.5277(2) 0.85442(19) 0.02127(11)
H1_4 H 0.5606 0.9090 0.0308
C5_4 C 0.4992(2) 0.72055(19) 0.02087(11)
H4_4 H 0.5117 0.6805 0.0306
C13_4 C 0.7165(2) 0.7428(2) 0.07307(11)
C14_4 C 0.76871(18) 0.70221(19) 0.06692(10)
C15_4 C 0.7995(3) 0.6869(3) 0.10529(15)
H11_4 H 0.7926 0.7061 0.1331
C16_4 C 0.84183(17) 0.64215(17) 0.10306(9)
H12_4 H 0.8646 0.6342 0.1294
C17_4 C 0.85018(17) 0.61012(16) 0.06298(9)
C18_4 C 0.82370(17) 0.62931(19) 0.02153(10)
C23_4 C 0.78401(19) 0.6780(2) 0.02332(10)
C24_4 C 0.88766(18) 0.55491(17) 0.06495(11)
C31_4 C 0.1201(3) 0.6183(2) 0.03253(15)
H22_4 H 0.1144 0.6513 0.0542
C32_4 C 0.1881(3) 0.6549(2) 0.00395(15)
H23_4 H 0.2270 0.7110 0.0068
O5_4 O 0.66152(19) 0.92982(28) 0.12007(10)
O6_4 O 0.72866(19) 0.94006(28) 0.05936(9)
C37_4 C 0.7165(2) 0.9737(3) 0.09360(11)
N5_3 N 0.54607(15) 0.74743(21) 0.13082(7)
N2_2 N 0.46129(16) 0.93721(16) 0.80267(8)
C2_4 C 0.4619(2) 0.83589(18) 0.99245(11)
H2_4 H 0.4502 0.8770 0.9837
C3_4 C 0.41359(17) 0.75534(16) 0.97688(8)
C4_4 C 0.4336(2) 0.69727(18) 0.99174(10)
H3_4 H 0.4028 0.6425 0.9821
C6_4 C 0.34327(16) 0.73287(16) 0.94435(8)
H5_4 H 0.3199 0.7692 0.9491
C7_4 C 0.3817(2) 0.8799(3) 0.80080(15)
H6_4 H 0.3487 0.8856 0.7791
C8_4 C 0.3451(2) 0.8119(3) 0.82938(15)
H7_4 H 0.2890 0.7730 0.8265
C9_4 C 0.39272(17) 0.80248(17) 0.86246(8)
C10_4 C 0.47458(19) 0.8631(2) 0.86491(11)
H8_4 H 0.5087 0.8600 0.8869
C11_4 C 0.50688(19) 0.9293(2) 0.83472(11)
H9_4 H 0.5626 0.9695 0.8370
C12_4 C 0.35884(16) 0.72739(15) 0.89238(8)
H10_4 H 0.3944 0.7028 0.8892
C19_4 C 0.8381(3) 0.6047(3) 0.97848(12)
H13_4 H 0.8623 0.5715 0.9769
C20_4 C 0.8171(4) 0.6287(4) 0.93938(13)
H14_4 H 0.8278 0.6127 0.9115
C21_4 C 0.7793(4) 0.6781(4) 0.94129(12)
H15_4 H 0.7652 0.6946 0.9145
C22_4 C 0.7632(3) 0.7017(3) 0.98178(12)
H16_4 H 0.7381 0.7341 0.9824
N3_2 N 0.20136(15) 0.45393(15) 0.79748(7)
C25_4 C 0.14558(19) 0.4723(2) 0.81206(11)
H17_4 H 0.0910 0.4394 0.8025
C26_4 C 0.16411(18) 0.5381(2) 0.84088(11)
H18_4 H 0.1230 0.5498 0.8496
C27_4 C 0.24466(16) 0.58641(17) 0.85645(8)
C28_4 C 0.30273(18) 0.5664(2) 0.84159(10)
H19_4 H 0.3575 0.5972 0.8512
C29_4 C 0.27945(19) 0.5008(2) 0.81246(11)
H20_4 H 0.3195 0.4883 0.8027
C30_4 C 0.26713(16) 0.65673(16) 0.88898(8)
H21_4 H 0.2308 0.6801 0.8842
C33_4 C 0.19752(17) 0.60728(17) 0.97087(8)
C34_4 C 0.1369(2) 0.52542(19) 0.96842(11)
H24_4 H 0.1400 0.4913 0.9464
C35_4 C 0.0707(2) 0.49312(19) 0.99861(11)
H25_4 H 0.0305 0.4374 0.9963
C36_4 C 0.27261(15) 0.64116(16) 0.94095(8)
H26_4 H 0.2972 0.6056 0.9441
Zn3_2 Zn 0.179664(34) 0.35933(3) 0.7500
Zn2 Zn 0.512881(15) 0.487121(34) 0.4166
O3_5 O 0.42775(14) 0.37088(20) 0.42751(8)
O4_5 O 0.50608(16) 0.36941(25) 0.37303(10)
C14_5 C 0.29779(19) 0.06650(26) 0.40025(10)
C15_5 C 0.3131(3) 0.1126(4) 0.43862(15)
H11_5 H 0.2939 0.0865 0.4664
C16_5 C 0.35785(17) 0.19968(24) 0.43639(9)
H12_5 H 0.3658 0.2304 0.4627
C17_5 C 0.38988(16) 0.24006(23) 0.39631(9)
C18_5 C 0.37069(19) 0.19439(25) 0.35486(10)
C19_5 C 0.3953(3) 0.2334(4) 0.31181(12)
H13_5 H 0.4285 0.2908 0.3102
C20_5 C 0.3713(4) 0.1884(6) 0.27271(13)
H14_5 H 0.3873 0.2151 0.2448
C21_5 C 0.3219(4) 0.1012(6) 0.27462(12)
H15_5 H 0.3054 0.0706 0.2478
C22_5 C 0.2983(3) 0.0615(4) 0.31511(12)
H16_5 H 0.2659 0.0040 0.3157
C23_5 C 0.3220(2) 0.10601(28) 0.35665(10)
C24_5 C 0.44509(17) 0.33275(25) 0.39828(11)
O9_3 O 0.62912(20) 0.57225(24) 0.40582(8)
O10_3 O 0.63059(25) 0.49392(31) 0.46030(10)
N6_4 N 0.47592(23) 0.53871(28) 0.46934(8)
N7_3 N 0.46129(16) 0.52408(23) 0.36400(8)
Zn1_4 Zn 0.179666(15) 0.820336(34) 0.4166
O1_5 O 0.2683(2) 0.92982(28) 0.37993(10)
O2_5 O 0.2114(2) 0.94006(28) 0.44064(9)
N1_5 N 0.20136(15) 0.74743(21) 0.36918(7)
C1_5 C 0.14558(19) 0.67328(28) 0.35460(11)
H1_5 H 0.0910 0.6516 0.3641
C2_5 C 0.16411(18) 0.62601(27) 0.32578(11)
H2_5 H 0.1230 0.5732 0.3170
C3_5 C 0.24466(16) 0.65825(23) 0.31021(8)
C4_5 C 0.30273(18) 0.73633(27) 0.32507(10)
H3_5 H 0.3575 0.7603 0.3154
C5_5 C 0.27945(19) 0.77865(28) 0.35420(11)
H4_5 H 0.3195 0.8312 0.3639
C6_5 C 0.26713(16) 0.61040(23) 0.27768(8)
H5_5 H 0.2308 0.5507 0.2824
C7_5 C 0.1201(3) 0.5018(4) 0.13413(15)
H6_5 H 0.1144 0.4631 0.1124
C8_5 C 0.1881(3) 0.5332(4) 0.16271(15)
H7_5 H 0.2270 0.5160 0.1598
C9_5 C 0.19752(17) 0.59024(24) 0.19579(8)
C10_5 C 0.1369(2) 0.61148(28) 0.19824(11)
H8_5 H 0.1400 0.6487 0.2202
C11_5 C 0.0707(2) 0.57758(28) 0.16805(11)
H9_5 H 0.0305 0.5931 0.1703
C12_5 C 0.27261(15) 0.63145(22) 0.22571(8)
H10_5 H 0.2972 0.6916 0.2225
C13_5 C 0.2572(2) 0.9737(3) 0.40640(11)
C25_5 C 0.5277(2) 0.67328(28) 0.14540(11)
H17_5 H 0.5606 0.6516 0.1359
C26_5 C 0.4619(2) 0.62601(27) 0.17422(11)
H18_5 H 0.4502 0.5732 0.1830
C27_5 C 0.41359(17) 0.65825(23) 0.18979(8)
C28_5 C 0.4336(2) 0.73633(27) 0.17493(10)
H19_5 H 0.4028 0.7603 0.1846
C29_5 C 0.4992(2) 0.77865(28) 0.14580(11)
H20_5 H 0.5117 0.8312 0.1361
C30_5 C 0.34327(16) 0.61040(23) 0.22232(8)
H21_5 H 0.3199 0.5507 0.2176
C31_5 C 0.3817(2) 0.5018(4) 0.36587(15)
H22_5 H 0.3487 0.4631 0.3876
C32_5 C 0.3451(2) 0.5332(4) 0.33729(15)
H23_5 H 0.2890 0.5160 0.3402
C33_5 C 0.39272(17) 0.59024(24) 0.30421(8)
C34_5 C 0.47458(19) 0.61148(28) 0.30176(11)
H24_5 H 0.5087 0.6487 0.2798
C35_5 C 0.50688(19) 0.57758(28) 0.33195(11)
H25_5 H 0.5626 0.5931 0.3297
C36_5 C 0.35884(16) 0.63145(22) 0.27429(8)
H26_5 H 0.3944 0.6916 0.2775
O5_5 O 0.07018(28) 0.73170(34) 0.45340(10)
O6_5 O 0.05994(28) 0.78860(34) 0.39269(9)
C37_5 C 0.0263(3) 0.7428(4) 0.42693(11)
N5_4 N 0.25257(21) 0.79864(26) 0.46415(7)
C38_5 C 0.93350(26) 0.70221(32) 0.43308(10)
C39_5 C 0.8874(4) 0.6869(5) 0.39471(15)
H27_5 H 0.9135 0.7061 0.3669
C40_5 C 0.80032(24) 0.64215(29) 0.39694(9)
H28_5 H 0.7696 0.6342 0.3706
C41_5 C 0.75994(23) 0.61012(29) 0.43702(9)
C42_5 C 0.80561(25) 0.62931(30) 0.47847(10)
C43_5 C 0.7666(4) 0.6047(5) 0.52152(12)
H29_5 H 0.7092 0.5715 0.5231
C44_5 C 0.8116(6) 0.6287(7) 0.56062(13)
H30_5 H 0.7849 0.6127 0.5885
C45_5 C 0.8988(6) 0.6781(7) 0.55871(12)
H31_5 H 0.9294 0.6946 0.5855
C46_5 C 0.9385(4) 0.7017(5) 0.51822(12)
H32_5 H 0.9960 0.7341 0.5176
C47_5 C 0.89399(28) 0.67800(34) 0.47668(10)
C48_5 C 0.66725(25) 0.55491(31) 0.43505(11)
O1_6 O 0.07018(28) 0.33848(19) 0.71327(10)
O2_6 O 0.05994(28) 0.27134(19) 0.77398(9)
N1_6 N 0.25257(21) 0.45393(15) 0.70252(7)
C1_6 C 0.32672(28) 0.4723(2) 0.68794(11)
H1_6 H 0.3484 0.4394 0.6975
C2_6 C 0.37399(27) 0.5381(2) 0.65912(11)
H2_6 H 0.4268 0.5498 0.6504
C3_6 C 0.34175(23) 0.58641(17) 0.64355(8)
C4_6 C 0.26367(27) 0.5664(2) 0.65841(10)
H3_6 H 0.2397 0.5972 0.6488
C5_6 C 0.22135(28) 0.5008(2) 0.68754(11)
H4_6 H 0.1688 0.4883 0.6973
C6_6 C 0.38960(23) 0.65673(16) 0.61102(8)
H5_6 H 0.4493 0.6801 0.6158
C7_6 C 0.4982(4) 0.6183(2) 0.46747(15)
H6_6 H 0.5369 0.6513 0.4458
C8_6 C 0.4668(4) 0.6549(2) 0.49605(15)
H7_6 H 0.4840 0.7110 0.4932
C9_6 C 0.40976(24) 0.60728(17) 0.52913(8)
C10_6 C 0.38852(28) 0.52542(19) 0.53158(11)
H8_6 H 0.3513 0.4913 0.5536
C11_6 C 0.42242(28) 0.49312(19) 0.50139(11)
H9_6 H 0.4069 0.4374 0.5037
C12_6 C 0.36855(22) 0.64116(16) 0.55905(8)
H10_6 H 0.3084 0.6056 0.5559
C13_6 C 0.0263(3) 0.2835(2) 0.73974(11)
N4_3 N 0.47592(23) 0.93721(16) 0.69733(8)
C25_6 C 0.32672(28) 0.85442(19) 0.47873(11)
H17_6 H 0.3484 0.9090 0.4692
C26_6 C 0.37399(27) 0.83589(18) 0.50755(11)
H18_6 H 0.4268 0.8770 0.5163
C27_6 C 0.34175(23) 0.75534(16) 0.52312(8)
C28_6 C 0.26367(27) 0.69727(18) 0.50826(10)
H19_6 H 0.2397 0.6425 0.5179
C29_6 C 0.22135(28) 0.72055(19) 0.47913(11)
H20_6 H 0.1688 0.6805 0.4694
C30_6 C 0.38960(23) 0.73287(16) 0.55565(8)
H21_6 H 0.4493 0.7692 0.5509
C31_6 C 0.4982(4) 0.8799(3) 0.69920(15)
H22_6 H 0.5369 0.8856 0.7209
C32_6 C 0.4668(4) 0.8119(3) 0.67062(15)
H23_6 H 0.4840 0.7730 0.6735
C33_6 C 0.40976(24) 0.80248(17) 0.63754(8)
C34_6 C 0.38852(28) 0.8631(2) 0.63509(11)
H24_6 H 0.3513 0.8600 0.6131
C35_6 C 0.42242(28) 0.9293(2) 0.66528(11)
H25_6 H 0.4069 0.9695 0.6630
C36_6 C 0.36855(22) 0.72739(15) 0.60762(8)
H26_6 H 0.3084 0.7028 0.6108
O5_6 O 0.26830(34) 0.33848(19) 0.78673(10)
O6_6 O 0.21140(34) 0.27134(19) 0.72602(9)
O7_3 O 0.42775(24) 0.05687(14) 0.73915(8)
O8_3 O 0.50608(31) 0.13667(19) 0.79363(10)
C37_6 C 0.2572(4) 0.2835(2) 0.76026(11)
C38_6 C 0.29779(32) 0.23129(18) 0.76641(10)
C39_6 C 0.3131(5) 0.2005(3) 0.72804(15)
H27_6 H 0.2939 0.2074 0.7002
C40_6 C 0.35785(29) 0.15817(17) 0.73027(9)
H28_6 H 0.3658 0.1354 0.7039
C41_6 C 0.38988(29) 0.14982(17) 0.77035(9)
C42_6 C 0.37069(30) 0.17630(17) 0.81180(10)
C43_6 C 0.3953(5) 0.1619(3) 0.85485(12)
H29_6 H 0.4285 0.1377 0.8564
C44_6 C 0.3713(7) 0.1829(4) 0.89395(13)
H30_6 H 0.3873 0.1722 0.9218
C45_6 C 0.3219(7) 0.2207(4) 0.89204(12)
H31_6 H 0.3054 0.2348 0.9188
C46_6 C 0.2983(5) 0.2368(3) 0.85155(12)
H32_6 H 0.2659 0.2619 0.8509
C47_6 C 0.32200(34) 0.21599(19) 0.81001(10)
C48_6 C 0.44509(31) 0.11234(18) 0.76838(11)
O3_6 O 0.62912(20) 0.05687(14) 0.76085(8)
O4_6 O 0.63059(25) 0.13667(19) 0.70637(10)
C14_6 C 0.93350(26) 0.23129(18) 0.73359(10)
C15_6 C 0.8874(4) 0.2005(3) 0.77196(15)
H11_6 H 0.9135 0.2074 0.7998
C16_6 C 0.80032(24) 0.15817(17) 0.76973(9)
H12_6 H 0.7696 0.1354 0.7961
C17_6 C 0.75994(23) 0.14982(17) 0.72965(9)
C18_6 C 0.80561(25) 0.17630(17) 0.68820(10)
C19_6 C 0.7666(4) 0.1619(3) 0.64515(12)
H13_6 H 0.7092 0.1377 0.6436
C20_6 C 0.8116(6) 0.1829(4) 0.60605(13)
H14_6 H 0.7849 0.1722 0.5782
C21_6 C 0.8988(6) 0.2207(4) 0.60796(12)
H15_6 H 0.9294 0.2348 0.5812
C22_6 C 0.9385(4) 0.2368(3) 0.64845(12)
H16_6 H 0.9960 0.2619 0.6491
C23_6 C 0.89399(28) 0.21599(19) 0.68999(10)
C24_6 C 0.66725(25) 0.11234(18) 0.73162(11)
loop_
_geom_bond_atom_site_label_1
_geom_bond_atom_site_label_2
_geom_bond_site_symmetry_1
_geom_bond_site_symmetry_2
Zn1 O1 1_555 1_555
Zn5 O3 1_555 1_555
O1 C13 1_555 1_555
O2 Zn1 1_555 1_555
O3 C24 1_555 1_555
O4 Zn5 1_555 1_555
N1 Zn1 1_555 1_555
N2 C7 1_555 1_555
C1 N1 1_555 1_555
H1 C1 1_555 1_555
C2 C1 1_555 1_555
H2 C2 1_555 1_555
C3 C2 1_555 1_555
C4 C3 1_555 1_555
H3 C4 1_555 1_555
C5 N1 1_555 1_555
H4 C5 1_555 1_555
C6 C3 1_555 1_555
H5 C6 1_555 1_555
C7 H6 1_555 1_555
C8 C7 1_555 1_555
H7 C8 1_555 1_555
C9 C8 1_555 1_555
C10 C9 1_555 1_555
H8 C10 1_555 1_555
C11 N2 1_555 1_555
H9 C11 1_555 1_555
C12 C6 1_555 1_555
H10 C12 1_555 1_555
C13 O2 1_555 1_555
C14 C13 1_555 1_555
C15 C14 1_555 1_555
H11 C15 1_555 1_555
C16 C15 1_555 1_555
H12 C16 1_555 1_555
C17 C16 1_555 1_555
C18 C17 1_555 1_555
C19 C18 1_555 1_555
H13 C19 1_555 1_555
C20 C19 1_555 1_555
H14 C20 1_555 1_555
C21 C20 1_555 1_555
H15 C21 1_555 1_555
C22 C21 1_555 1_555
H16 C22 1_555 1_555
C23 C14 1_555 1_555
C24 O4 1_555 1_555
N3 C25 1_555 1_555
N4 C31 1_555 1_555
C25 H17 1_555 1_555
C26 C25 1_555 1_555
H18 C26 1_555 1_555
C27 C26 1_555 1_555
C28 C27 1_555 1_555
H19 C28 1_555 1_555
C29 N3 1_555 1_555
H20 C29 1_555 1_555
C30 C12 1_555 1_555
H21 C30 1_555 1_555
C31 H22 1_555 1_555
C32 C31 1_555 1_555
H23 C32 1_555 1_555
C33 C32 1_555 1_555
C34 C33 1_555 1_555
H24 C34 1_555 1_555
C35 N4 1_555 1_555
H25 C35 1_555 1_555
C36 C6 1_555 1_555
H26 C36 1_555 1_555
O5 Zn1 1_555 1_555
O6 Zn1 1_555 1_555
C37 O5 1_555 1_555
Zn3 N3 1_555 1_555
O9 Zn5 1_555 1_555
O10 Zn5 1_555 1_555
N5 Zn1 1_555 1_555
C4 C5 1_555 1_555
C9 C12 1_555 1_555
C10 C11 1_555 1_555
C17 C24 1_555 1_555
C18 C23 1_555 1_555
C22 C23 1_555 1_555
C27 C30 1_555 1_555
C28 C29 1_555 1_555
C30 C36 1_555 1_555
C33 C36 1_555 1_555
C34 C35 1_555 1_555
O6 C37 1_555 1_555
O9 C48 1_555 1_555
O10 C48 1_555 1_555
C39 C38 1_555 1_555
H27 C39 1_555 1_555
C40 C39 1_555 1_555
H28 C40 1_555 1_555
C41 C40 1_555 1_555
C42 C41 1_555 1_555
C43 C42 1_555 1_555
H29 C43 1_555 1_555
C44 C43 1_555 1_555
H30 C44 1_555 1_555
C45 C44 1_555 1_555
H31 C45 1_555 1_555
C46 C45 1_555 1_555
H32 C46 1_555 1_555
C47 C38 1_555 1_555
C48 C41 1_555 1_555
C42 C47 1_555 1_555
C46 C47 1_555 1_555
O7 C48_2 1_555 1_555
O8 C48_2 1_555 1_555
C39_2 C38_2 1_555 1_555
H27_2 C39_2 1_555 1_555
C40_2 C39_2 1_555 1_555
H28_2 C40_2 1_555 1_555
C41_2 C40_2 1_555 1_555
C42_2 C41_2 1_555 1_555
C47_2 C38_2 1_555 1_555
C48_2 C41_2 1_555 1_555
Zn4 O7 1_555 1_555
O8 Zn4 1_555 1_555
C42_2 C47_2 1_555 1_555
Zn1_2 O1_2 1_555 1_555
O1_2 C13_2 1_555 1_555
O2_2 Zn1_2 1_555 1_555
N1_2 Zn1_2 1_555 1_555
N6 C7_2 1_555 1_555
C1_2 N1_2 1_555 1_555
H1_2 C1_2 1_555 1_555
C2_2 C1_2 1_555 1_555
H2_2 C2_2 1_555 1_555
C3_2 C2_2 1_555 1_555
C4_2 C3_2 1_555 1_555
H3_2 C4_2 1_555 1_555
C5_2 N1_2 1_555 1_555
H4_2 C5_2 1_555 1_555
C6_2 C3_2 1_555 1_555
H5_2 C6_2 1_555 1_555
C7_2 H6_2 1_555 1_555
C8_2 C7_2 1_555 1_555
H7_2 C8_2 1_555 1_555
C9_2 C8_2 1_555 1_555
C10_2 C9_2 1_555 1_555
H8_2 C10_2 1_555 1_555
C11_2 N6 1_555 1_555
H9_2 C11_2 1_555 1_555
C12_2 C6_2 1_555 1_555
H10_2 C12_2 1_555 1_555
C13_2 O2_2 1_555 1_555
N5 C25_2 1_555 1_555
N4_2 C31_2 1_555 1_555
C25_2 H17_2 1_555 1_555
C26_2 C25_2 1_555 1_555
H18_2 C26_2 1_555 1_555
C27_2 C26_2 1_555 1_555
C28_2 C27_2 1_555 1_555
H19_2 C28_2 1_555 1_555
C29_2 N5 1_555 1_555
H20_2 C29_2 1_555 1_555
C30_2 C12_2 1_555 1_555
H21_2 C30_2 1_555 1_555
C31_2 H22_2 1_555 1_555
C32_2 C31_2 1_555 1_555
H23_2 C32_2 1_555 1_555
C33_2 C32_2 1_555 1_555
C34_2 C33_2 1_555 1_555
H24_2 C34_2 1_555 1_555
C35_2 N4_2 1_555 1_555
H25_2 C35_2 1_555 1_555
C36_2 C6_2 1_555 1_555
H26_2 C36_2 1_555 1_555
O5_2 Zn1_2 1_555 1_555
O6_2 Zn1_2 1_555 1_555
C37_2 O5_2 1_555 1_555
Zn4 N4_2 1_555 1_555
N5_2 Zn1_2 1_555 1_555
C4_2 C5_2 1_555 1_555
C9_2 C12_2 1_555 1_555
C10_2 C11_2 1_555 1_555
C27_2 C30_2 1_555 1_555
C28_2 C29_2 1_555 1_555
C30_2 C36_2 1_555 1_555
C33_2 C36_2 1_555 1_555
C34_2 C35_2 1_555 1_555
O6_2 C37_2 1_555 1_555
Zn4 O3_2 1_555 1_555
O3_2 C24_2 1_555 1_555
O4_2 Zn4 1_555 1_555
C15_2 C14_2 1_555 1_555
H11_2 C15_2 1_555 1_555
C16_2 C15_2 1_555 1_555
H12_2 C16_2 1_555 1_555
C17_2 C16_2 1_555 1_555
C18_2 C17_2 1_555 1_555
C19_2 C18_2 1_555 1_555
H13_2 C19_2 1_555 1_555
C20_2 C19_2 1_555 1_555
H14_2 C20_2 1_555 1_555
C21_2 C20_2 1_555 1_555
H15_2 C21_2 1_555 1_555
C22_2 C21_2 1_555 1_555
H16_2 C22_2 1_555 1_555
C23_2 C14_2 1_555 1_555
C24_2 O4_2 1_555 1_555
N6_2 Zn4 1_555 1_555
C17_2 C24_2 1_555 1_555
C18_2 C23_2 1_555 1_555
C22_2 C23_2 1_555 1_555
Zn6 O3_3 1_555 1_555
O3_3 C24_3 1_555 1_555
O4_3 Zn6 1_555 1_555
C15_3 C14_3 1_555 1_555
H11_3 C15_3 1_555 1_555
C16_3 C15_3 1_555 1_555
H12_3 C16_3 1_555 1_555
C17_3 C16_3 1_555 1_555
C18_3 C17_3 1_555 1_555
C19_3 C18_3 1_555 1_555
H13_3 C19_3 1_555 1_555
C20_3 C19_3 1_555 1_555
H14_3 C20_3 1_555 1_555
C21_3 C20_3 1_555 1_555
H15_3 C21_3 1_555 1_555
C22_3 C21_3 1_555 1_555
H16_3 C22_3 1_555 1_555
C23_3 C14_3 1_555 1_555
C24_3 O4_3 1_555 1_555
O9_2 Zn6 1_555 1_555
O10_2 Zn6 1_555 1_555
C17_3 C24_3 1_555 1_555
C18_3 C23_3 1_555 1_555
C22_3 C23_3 1_555 1_555
Zn3 O1_3 1_555 1_555
O1_3 C13_3 1_555 1_555
O2_3 Zn3 1_555 1_555
N1_3 Zn3 1_555 1_555
C1_3 N1_3 1_555 1_555
H1_3 C1_3 1_555 1_555
C2_3 C1_3 1_555 1_555
H2_3 C2_3 1_555 1_555
C3_3 C2_3 1_555 1_555
C4_3 C3_3 1_555 1_555
H3_3 C4_3 1_555 1_555
C5_3 N1_3 1_555 1_555
H4_3 C5_3 1_555 1_555
C6_3 C3_3 1_555 1_555
H5_3 C6_3 1_555 1_555
C10_3 C9_3 1_555 1_555
H8_3 C10_3 1_555 1_555
H9_3 C11_3 1_555 1_555
C12_3 C6_3 1_555 1_555
H10_3 C12_3 1_555 1_555
C13_3 O2_3 1_555 1_555
N7 C31_3 1_555 1_555
H18_3 C26_3 1_555 1_555
C27_3 C26_3 1_555 1_555
C28_3 C27_3 1_555 1_555
H19_3 C28_3 1_555 1_555
C30_3 C12_3 1_555 1_555
H21_3 C30_3 1_555 1_555
C31_3 H22_3 1_555 1_555
C32_3 C31_3 1_555 1_555
H23_3 C32_3 1_555 1_555
C33_3 C32_3 1_555 1_555
C34_3 C33_3 1_555 1_555
H24_3 C34_3 1_555 1_555
C35_3 N7 1_555 1_555
H25_3 C35_3 1_555 1_555
C36_3 C6_3 1_555 1_555
H26_3 C36_3 1_555 1_555
O5_3 Zn3 1_555 1_555
O6_3 Zn3 1_555 1_555
O9_2 C48_3 1_555 1_555
O10_2 C48_3 1_555 1_555
C37_3 O5_3 1_555 1_555
C38_3 C37_3 1_555 1_555
C39_3 C38_3 1_555 1_555
H27_3 C39_3 1_555 1_555
C40_3 C39_3 1_555 1_555
H28_3 C40_3 1_555 1_555
C41_3 C40_3 1_555 1_555
C42_3 C41_3 1_555 1_555
C43_2 C42_3 1_555 1_555
H29_2 C43_2 1_555 1_555
C44_2 C43_2 1_555 1_555
H30_2 C44_2 1_555 1_555
C45_2 C44_2 1_555 1_555
H31_2 C45_2 1_555 1_555
C46_2 C45_2 1_555 1_555
H32_2 C46_2 1_555 1_555
C47_3 C38_3 1_555 1_555
C48_3 C41_3 1_555 1_555
C4_3 C5_3 1_555 1_555
C9_3 C12_3 1_555 1_555
C10_3 C11_3 1_555 1_555
C27_3 C30_3 1_555 1_555
C30_3 C36_3 1_555 1_555
C33_3 C36_3 1_555 1_555
C34_3 C35_3 1_555 1_555
O6_3 C37_3 1_555 1_555
C42_3 C47_3 1_555 1_555
C46_2 C47_3 1_555 1_555
N6_2 C7_3 1_555 1_555
C7_3 H6_3 1_555 1_555
C8_3 C7_3 1_555 1_555
H7_3 C8_3 1_555 1_555
N5_2 C25_3 1_555 1_555
C25_3 H17_3 1_555 1_555
C29_3 N5_2 1_555 1_555
H20_3 C29_3 1_555 1_555
H29_3 C43_3 1_555 1_555
C44_3 C43_3 1_555 1_555
H30_3 C44_3 1_555 1_555
C45_3 C44_3 1_555 1_555
H31_3 C45_3 1_555 1_555
C46_3 C45_3 1_555 1_555
H32_3 C46_3 1_555 1_555
O7_2 C48_4 1_555 1_555
O8_2 C48_4 1_555 1_555
C39_4 C38_4 1_555 1_555
H27_4 C39_4 1_555 1_555
C40_4 C39_4 1_555 1_555
H28_4 C40_4 1_555 1_555
C41_4 C40_4 1_555 1_555
C42_4 C41_4 1_555 1_555
C43_4 C42_4 1_555 1_555
H29_4 C43_4 1_555 1_555
C44_4 C43_4 1_555 1_555
H30_4 C44_4 1_555 1_555
C45_4 C44_4 1_555 1_555
H31_4 C45_4 1_555 1_555
C46_4 C45_4 1_555 1_555
H32_4 C46_4 1_555 1_555
C47_4 C38_4 1_555 1_555
C48_4 C41_4 1_555 1_555
Zn4_2 O7_2 1_555 1_555
O8_2 Zn4_2 1_555 1_555
C42_4 C47_4 1_555 1_555
C46_4 C47_4 1_555 1_555
Zn1_3 O1_4 1_555 1_555
Zn4_2 O3_4 1_555 1_555
O1_4 C13_4 1_555 1_555
O2_4 Zn1_3 1_555 1_555
O3_4 C24_4 1_555 1_555
O4_4 Zn4_2 1_555 1_555
N1_4 Zn1_3 1_555 1_555
C1_4 N1_4 1_555 1_555
H1_4 C1_4 1_555 1_555
C5_4 N1_4 1_555 1_555
H4_4 C5_4 1_555 1_555
C13_4 O2_4 1_555 1_555
C14_4 C13_4 1_555 1_555
C15_4 C14_4 1_555 1_555
H11_4 C15_4 1_555 1_555
C16_4 C15_4 1_555 1_555
H12_4 C16_4 1_555 1_555
C17_4 C16_4 1_555 1_555
C18_4 C17_4 1_555 1_555
C23_4 C14_4 1_555 1_555
C24_4 O4_4 1_555 1_555
N7_2 C31_4 1_555 1_555
C31_4 H22_4 1_555 1_555
C32_4 C31_4 1_555 1_555
H23_4 C32_4 1_555 1_555
O5_4 Zn1_3 1_555 1_555
O6_4 Zn1_3 1_555 1_555
C37_4 O5_4 1_555 1_555
N5_3 Zn1_3 1_555 1_555
C17_4 C24_4 1_555 1_555
C18_4 C23_4 1_555 1_555
O6_4 C37_4 1_555 1_555
N2_2 C7_4 1_555 1_555
H2_4 C2_4 1_555 1_555
C3_4 C2_4 1_555 1_555
C4_4 C3_4 1_555 1_555
H3_4 C4_4 1_555 1_555
C6_4 C3_4 1_555 1_555
H5_4 C6_4 1_555 1_555
C7_4 H6_4 1_555 1_555
C8_4 C7_4 1_555 1_555
H7_4 C8_4 1_555 1_555
C9_4 C8_4 1_555 1_555
C10_4 C9_4 1_555 1_555
H8_4 C10_4 1_555 1_555
C11_4 N2_2 1_555 1_555
H9_4 C11_4 1_555 1_555
C12_4 C6_4 1_555 1_555
H10_4 C12_4 1_555 1_555
H13_4 C19_4 1_555 1_555
C20_4 C19_4 1_555 1_555
H14_4 C20_4 1_555 1_555
C21_4 C20_4 1_555 1_555
H15_4 C21_4 1_555 1_555
C22_4 C21_4 1_555 1_555
H16_4 C22_4 1_555 1_555
N3_2 C25_4 1_555 1_555
C25_4 H17_4 1_555 1_555
C26_4 C25_4 1_555 1_555
H18_4 C26_4 1_555 1_555
C27_4 C26_4 1_555 1_555
C28_4 C27_4 1_555 1_555
H19_4 C28_4 1_555 1_555
C29_4 N3_2 1_555 1_555
H20_4 C29_4 1_555 1_555
C30_4 C12_4 1_555 1_555
H21_4 C30_4 1_555 1_555
C34_4 C33_4 1_555 1_555
H24_4 C34_4 1_555 1_555
H25_4 C35_4 1_555 1_555
C36_4 C6_4 1_555 1_555
H26_4 C36_4 1_555 1_555
Zn3_2 N3_2 1_555 1_555
C9_4 C12_4 1_555 1_555
C10_4 C11_4 1_555 1_555
C27_4 C30_4 1_555 1_555
C28_4 C29_4 1_555 1_555
C30_4 C36_4 1_555 1_555
C33_4 C36_4 1_555 1_555
C34_4 C35_4 1_555 1_555
Zn2 O3_5 1_555 1_555
O3_5 C24_5 1_555 1_555
O4_5 Zn2 1_555 1_555
C15_5 C14_5 1_555 1_555
H11_5 C15_5 1_555 1_555
C16_5 C15_5 1_555 1_555
H12_5 C16_5 1_555 1_555
C17_5 C16_5 1_555 1_555
C18_5 C17_5 1_555 1_555
C19_5 C18_5 1_555 1_555
H13_5 C19_5 1_555 1_555
C20_5 C19_5 1_555 1_555
H14_5 C20_5 1_555 1_555
C21_5 C20_5 1_555 1_555
H15_5 C21_5 1_555 1_555
C22_5 C21_5 1_555 1_555
H16_5 C22_5 1_555 1_555
C23_5 C14_5 1_555 1_555
C24_5 O4_5 1_555 1_555
O9_3 Zn2 1_555 1_555
O10_3 Zn2 1_555 1_555
N6_4 Zn2 1_555 1_555
N7_3 Zn2 1_555 1_555
C17_5 C24_5 1_555 1_555
C18_5 C23_5 1_555 1_555
C22_5 C23_5 1_555 1_555
Zn1_4 O1_5 1_555 1_555
O1_5 C13_5 1_555 1_555
O2_5 Zn1_4 1_555 1_555
N1_5 Zn1_4 1_555 1_555
N6_3 C7_5 1_555 1_555
C1_5 N1_5 1_555 1_555
H1_5 C1_5 1_555 1_555
C2_5 C1_5 1_555 1_555
H2_5 C2_5 1_555 1_555
C3_5 C2_5 1_555 1_555
C4_5 C3_5 1_555 1_555
H3_5 C4_5 1_555 1_555
C5_5 N1_5 1_555 1_555
H4_5 C5_5 1_555 1_555
C6_5 C3_5 1_555 1_555
H5_5 C6_5 1_555 1_555
C7_5 H6_5 1_555 1_555
C8_5 C7_5 1_555 1_555
H7_5 C8_5 1_555 1_555
C9_5 C8_5 1_555 1_555
C10_5 C9_5 1_555 1_555
H8_5 C10_5 1_555 1_555
C11_5 N6_3 1_555 1_555
H9_5 C11_5 1_555 1_555
C12_5 C6_5 1_555 1_555
H10_5 C12_5 1_555 1_555
C13_5 O2_5 1_555 1_555
N5_3 C25_5 1_555 1_555
N7_3 C31_5 1_555 1_555
C25_5 H17_5 1_555 1_555
C26_5 C25_5 1_555 1_555
H18_5 C26_5 1_555 1_555
C27_5 C26_5 1_555 1_555
C28_5 C27_5 1_555 1_555
H19_5 C28_5 1_555 1_555
C29_5 N5_3 1_555 1_555
H20_5 C29_5 1_555 1_555
C30_5 C12_5 1_555 1_555
H21_5 C30_5 1_555 1_555
C31_5 H22_5 1_555 1_555
C32_5 C31_5 1_555 1_555
H23_5 C32_5 1_555 1_555
C33_5 C32_5 1_555 1_555
C34_5 C33_5 1_555 1_555
H24_5 C34_5 1_555 1_555
C35_5 N7_3 1_555 1_555
H25_5 C35_5 1_555 1_555
C36_5 C6_5 1_555 1_555
H26_5 C36_5 1_555 1_555
O5_5 Zn1_4 1_555 1_555
O6_5 Zn1_4 1_555 1_555
C37_5 O5_5 1_555 1_555
N5_4 Zn1_4 1_555 1_555
C4_5 C5_5 1_555 1_555
C9_5 C12_5 1_555 1_555
C10_5 C11_5 1_555 1_555
C27_5 C30_5 1_555 1_555
C28_5 C29_5 1_555 1_555
C30_5 C36_5 1_555 1_555
C33_5 C36_5 1_555 1_555
C34_5 C35_5 1_555 1_555
O6_5 C37_5 1_555 1_555
O9_3 C48_5 1_555 1_555
O10_3 C48_5 1_555 1_555
C39_5 C38_5 1_555 1_555
H27_5 C39_5 1_555 1_555
C40_5 C39_5 1_555 1_555
H28_5 C40_5 1_555 1_555
C41_5 C40_5 1_555 1_555
C42_5 C41_5 1_555 1_555
C43_5 C42_5 1_555 1_555
H29_5 C43_5 1_555 1_555
C44_5 C43_5 1_555 1_555
H30_5 C44_5 1_555 1_555
C45_5 C44_5 1_555 1_555
H31_5 C45_5 1_555 1_555
C46_5 C45_5 1_555 1_555
H32_5 C46_5 1_555 1_555
C47_5 C38_5 1_555 1_555
C48_5 C41_5 1_555 1_555
C42_5 C47_5 1_555 1_555
C46_5 C47_5 1_555 1_555
Zn3_2 O1_6 1_555 1_555
O1_6 C13_6 1_555 1_555
O2_6 Zn3_2 1_555 1_555
N1_6 Zn3_2 1_555 1_555
N6_4 C7_6 1_555 1_555
C1_6 N1_6 1_555 1_555
H1_6 C1_6 1_555 1_555
C2_6 C1_6 1_555 1_555
H2_6 C2_6 1_555 1_555
C3_6 C2_6 1_555 1_555
C4_6 C3_6 1_555 1_555
H3_6 C4_6 1_555 1_555
C5_6 N1_6 1_555 1_555
H4_6 C5_6 1_555 1_555
C6_6 C3_6 1_555 1_555
H5_6 C6_6 1_555 1_555
C7_6 H6_6 1_555 1_555
C8_6 C7_6 1_555 1_555
H7_6 C8_6 1_555 1_555
C9_6 C8_6 1_555 1_555
C10_6 C9_6 1_555 1_555
H8_6 C10_6 1_555 1_555
C11_6 N6_4 1_555 1_555
H9_6 C11_6 1_555 1_555
C12_6 C6_6 1_555 1_555
H10_6 C12_6 1_555 1_555
C13_6 O2_6 1_555 1_555
N5_4 C25_6 1_555 1_555
N4_3 C31_6 1_555 1_555
C25_6 H17_6 1_555 1_555
C26_6 C25_6 1_555 1_555
H18_6 C26_6 1_555 1_555
C27_6 C26_6 1_555 1_555
C28_6 C27_6 1_555 1_555
H19_6 C28_6 1_555 1_555
C29_6 N5_4 1_555 1_555
H20_6 C29_6 1_555 1_555
C30_6 C12_6 1_555 1_555
H21_6 C30_6 1_555 1_555
C31_6 H22_6 1_555 1_555
C32_6 C31_6 1_555 1_555
H23_6 C32_6 1_555 1_555
C33_6 C32_6 1_555 1_555
C34_6 C33_6 1_555 1_555
H24_6 C34_6 1_555 1_555
C35_6 N4_3 1_555 1_555
H25_6 C35_6 1_555 1_555
C36_6 C6_6 1_555 1_555
H26_6 C36_6 1_555 1_555
O5_6 Zn3_2 1_555 1_555
O6_6 Zn3_2 1_555 1_555
O7_3 C48_6 1_555 1_555
O8_3 C48_6 1_555 1_555
C37_6 O5_6 1_555 1_555
C38_6 C37_6 1_555 1_555
C39_6 C38_6 1_555 1_555
H27_6 C39_6 1_555 1_555
C40_6 C39_6 1_555 1_555
H28_6 C40_6 1_555 1_555
C41_6 C40_6 1_555 1_555
C42_6 C41_6 1_555 1_555
C43_6 C42_6 1_555 1_555
H29_6 C43_6 1_555 1_555
C44_6 C43_6 1_555 1_555
H30_6 C44_6 1_555 1_555
C45_6 C44_6 1_555 1_555
H31_6 C45_6 1_555 1_555
C46_6 C45_6 1_555 1_555
H32_6 C46_6 1_555 1_555
C47_6 C38_6 1_555 1_555
C48_6 C41_6 1_555 1_555
Zn6_2 O7_3 1_555 1_555
C4_6 C5_6 1_555 1_555
C9_6 C12_6 1_555 1_555
C10_6 C11_6 1_555 1_555
C27_6 C30_6 1_555 1_555
C28_6 C29_6 1_555 1_555
C30_6 C36_6 1_555 1_555
C33_6 C36_6 1_555 1_555
C34_6 C35_6 1_555 1_555
O6_6 C37_6 1_555 1_555
O8_3 Zn6_2 1_555 1_555
C42_6 C47_6 1_555 1_555
C46_6 C47_6 1_555 1_555
Zn6_2 O3_6 1_555 1_555
O3_6 C24_6 1_555 1_555
O4_6 Zn6_2 1_555 1_555
C15_6 C14_6 1_555 1_555
H11_6 C15_6 1_555 1_555
C16_6 C15_6 1_555 1_555
H12_6 C16_6 1_555 1_555
C17_6 C16_6 1_555 1_555
C18_6 C17_6 1_555 1_555
C19_6 C18_6 1_555 1_555
H13_6 C19_6 1_555 1_555
C20_6 C19_6 1_555 1_555
H14_6 C20_6 1_555 1_555
C21_6 C20_6 1_555 1_555
H15_6 C21_6 1_555 1_555
C22_6 C21_6 1_555 1_555
H16_6 C22_6 1_555 1_555
C23_6 C14_6 1_555 1_555
C24_6 O4_6 1_555 1_555
C17_6 C24_6 1_555 1_555
C18_6 C23_6 1_555 1_555
C22_6 C23_6 1_555 1_555

#END
