
###############################################################################
#
# This file contains modified crystal structure data generated from the
# MOF subset of the Cambridge Structural Database (CSD) v543 
# hosted by the Cambridge Crystallographic Data Centre (CCDC).
#
# This work is licensed under the Creative Commons
# Attribution-NonCommercial-ShareAlike 4.0 International License.
# To view a copy of this license, visit
# http://creativecommons.org/licenses/by-nc-sa/4.0/
# or send a letter to
# Creative Commons, PO Box 1866, Mountain View, CA 94042, USA.
#
# CIF created using the CSD Python API on 29 September 2022
# The structure has been converted into the P1 space group
# The structure has a 3D framework
# The original CSD entry WITJUG is in the monoclinic crystal system
# The framework has been calculated to contain at least 10.0% void space
# The void calculation uses a probe of radius 1.32A, grid spacing 0.4
# The framework is charged, counterions have been retained in the structure
# H atom positions have been added when not included in the experimental data
# Generated hydrogen atom positions removed from atoms on special positions
#
###############################################################################

data_WITJUG
_chemical_formula_moiety         '(C168 H136 Mn18 O85 S12)n'
_symmetry_cell_setting           triclinic
_symmetry_space_group_name_H-M   'P 1'
_symmetry_Int_Tables_number      1
_space_group_name_Hall           'P 1'
loop_
_symmetry_equiv_pos_site_id
_symmetry_equiv_pos_as_xyz
1 x,y,z
_cell_length_a                   18.0352(10)
_cell_length_b                   25.8676(13)
_cell_length_c                   18.0584(9)
_cell_angle_alpha                90
_cell_angle_beta                 118.861(3)
_cell_angle_gamma                90
_cell_volume                     7378.33
loop_
_atom_site_label
_atom_site_type_symbol
_atom_site_fract_x
_atom_site_fract_y
_atom_site_fract_z
O1 O 0.8696(4) 0.8541(3) 0.0035(7)
H55 H 0.924659 0.8541 0.0035
H56 H 0.836942 0.885443 0.973902
H57 H 0.836942 0.822757 0.973902
O1_2 O 0.6304(4) 0.3541(3) 0.4965(7)
H56_2 H 0.163058 0.114557 0.026098
H57_2 H 0.163058 0.177243 0.026098
O1_3 O 0.1304(4) 0.1459(3) 0.9965(7)
H55_2 H 0.075341 0.1459 0.9965
O1_4 O 0.3696(4) 0.6459(3) 0.5035(7)
Mn1 Mn 0.0000 0.0000 0.0000
O49 O 0.1095(2) 0.03242(12) 0.1099(2)
Mn1_2 Mn 0.0000 0.0000 1.0000
O3 O 0.02073(17) 0.04811(9) 0.91508(16)
O55 O 0.0181(3) 0.11439(14) 0.7689(3)
Mn1_3 Mn 0.0000 1.0000 0.0000
O17 O 0.0035(3) 0.95819(17) 0.7925(3)
Mn13 Mn 0.07310(5) 0.91686(3) 0.19842(5)
Mn18 Mn 0.10663(6) 0.99996(3) 0.89318(6)
Mn1_4 Mn 0.0000 1.0000 1.0000
O46 O 0.08421(17) 0.95214(9) 0.97873(16)
Mn1_5 Mn 1.0000 0.0000 0.0000
Mn3 Mn 0.89337(6) 0.00004(3) 0.10682(6)
O2 O 0.91579(17) 0.04786(9) 0.02127(16)
O12 O 0.9050(3) 0.01695(14) 0.7211(2)
S4 S 0.46579(10) 0.09614(5) 0.46593(10)
S5 S 0.56029(17) 0.17623(8) 0.2282(2)
O27 O 0.3707(3) 0.34689(13) 0.4408(2)
O28 O 0.7697(3) 0.11371(14) 0.0187(3)
O32 O 0.4409(3) 0.34678(13) 0.3710(3)
O36 O 0.8080(4) 0.0518(2) 0.1123(3)
O40 O 0.4596(3) 0.08091(14) 0.5394(2)
O41 O 0.5390(3) 0.08082(14) 0.4600(3)
O42 O 0.6039(5) 0.1687(3) 0.3188(5)
O43 O 0.5298(4) 0.22679(19) 0.1950(6)
C43 C 0.1643(4) 0.00378(19) 0.1645(3)
C44 C 0.2389(3) 0.02695(17) 0.2387(3)
C46 C 0.3696(4) 0.01751(19) 0.3695(4)
C47 C 0.3762(3) 0.07139(17) 0.3761(3)
C48 C 0.3144(4) 0.10227(18) 0.3148(4)
H27 H 0.3187 0.1381 0.3196
C49 C 0.2477(4) 0.08025(17) 0.2479(3)
H28 H 0.2067 0.1014 0.2070
C50 C 0.4548(3) 0.16307(16) 0.4548(3)
C51 C 0.4863(3) 0.18952(19) 0.4096(4)
H29 H 0.5157 0.1718 0.3871
C52 C 0.4743(3) 0.24161(18) 0.3976(3)
H30 H 0.4974 0.2592 0.3687
C53 C 0.4281(3) 0.26863(16) 0.4280(3)
C54 C 0.3970(4) 0.24182(18) 0.4738(3)
H31 H 0.3673 0.2595 0.4961
C55 C 0.4097(4) 0.18921(19) 0.4867(3)
H32 H 0.3878 0.1715 0.5167
C56 C 0.4122(4) 0.32505(17) 0.4125(4)
C57 C 0.2683(5) 0.0264(2) 0.0611(5)
C58 C 0.3424(4) 0.0630(2) 0.1043(5)
C59 C 0.4076(5) 0.0544(3) 0.1859(5)
H33 H 0.4071 0.0244 0.2140
C60 C 0.4743(5) 0.0897(3) 0.2270(5)
H34 H 0.5166 0.0833 0.2821
C61 C 0.4770(5) 0.1330(3) 0.1861(6)
C62 C 0.4135(5) 0.1430(3) 0.1056(7)
H35 H 0.4163 0.1730 0.0787
C63 C 0.3424(5) 0.1085(2) 0.0612(6)
H36 H 0.2990 0.1159 0.0071
C64 C 0.6242(5) 0.1543(3) 0.1863(5)
C65 C 0.6790(5) 0.1154(3) 0.2259(5)
H37 H 0.6850 0.1026 0.2767
C66 C 0.7264(5) 0.0943(3) 0.1917(4)
H38 H 0.7614 0.0660 0.2170
C67 C 0.7206(4) 0.1163(2) 0.1187(4)
C68 C 0.6691(5) 0.1562(2) 0.0816(5)
H39 H 0.6662 0.1710 0.0333
C69 C 0.6190(5) 0.1760(2) 0.1154(5)
H40 H 0.5827 0.2037 0.0895
C70 C 0.7704(4) 0.0921(2) 0.0798(5)
Mn10 Mn 0.92690(5) 0.08314(3) 0.80158(5)
Mn14 Mn 0.42690(5) 0.41686(3) 0.30158(5)
Mn20 Mn 0.30174(5) 0.41680(3) 0.42708(5)
O59 O 0.9965(3) 0.04181(17) 0.2075(3)
Mn1_6 Mn 1.0000 0.0000 1.0000
Mn4 Mn 0.80174(5) 0.08320(3) 0.92708(5)
O7 O 0.7204(2) 0.01703(14) 0.9046(2)
O8 O 0.6936(3) 0.12280(17) 0.8245(3)
O9 O 0.8373(2) 0.04624(11) 0.8371(2)
O13 O 0.8237(3) 0.12281(17) 0.6930(3)
C3 C 0.6999(4) 0.00270(18) 0.6999(3)
H1 H 0.7053 0.0385 0.7051
H2 H 0.5896 0.0038 0.5897
S6 S 0.2276(2) 0.17614(9) 0.55999(17)
O37 O 0.1128(3) 0.0517(2) 0.8082(3)
O38 O 0.2069(3) 0.04188(17) 0.9958(3)
O44 O 0.3158(6) 0.1703(3) 0.6023(4)
O45 O 0.1949(6) 0.22737(19) 0.5302(4)
C71 C 0.0804(5) 0.0922(2) 0.7712(4)
C72 C 0.1181(4) 0.1165(2) 0.7203(4)
C73 C 0.1896(5) 0.0955(3) 0.7265(4)
H41 H 0.2143 0.0672 0.7618
C74 C 0.2267(5) 0.1159(4) 0.6801(5)
H42 H 0.2779 0.1029 0.6874
C75 C 0.1873(6) 0.1543(3) 0.6253(5)
C76 C 0.1155(6) 0.1758(2) 0.6177(5)
H43 H 0.0889 0.2026 0.5796
C77 C 0.0807(5) 0.1566(2) 0.6692(4)
H44 H 0.0330 0.1719 0.6669
C78 C 0.1859(6) 0.1327(3) 0.4770(5)
C79 C 0.2259(5) 0.0897(3) 0.4735(4)
H45 H 0.2810 0.0831 0.5155
C80 C 0.1840(5) 0.0549(2) 0.4059(4)
H46 H 0.2121 0.0249 0.4049
C81 C 0.1035(5) 0.0633(2) 0.3413(4)
C82 C 0.0599(6) 0.1080(3) 0.3422(4)
H47 H 0.0053 0.1151 0.2994
C83 C 0.1050(7) 0.1427(2) 0.4140(5)
H48 H 0.0782 0.1727 0.4171
C84 C 0.0599(5) 0.0257(2) 0.2679(4)
O50 O 0.8707(3) 0.15311(13) 0.9408(2)
O52 O 0.9409(3) 0.15322(13) 0.8710(3)
Mn1_7 Mn 1.0000 1.0000 0.0000
S3 S 0.7724(2) 0.82386(9) 0.44001(17)
O11 O 0.9819(3) 0.88561(14) 0.2311(3)
O15 O 0.8872(3) 0.9483(2) 0.1918(3)
O16 O 0.7931(3) 0.95812(17) 0.0042(3)
O22 O 0.6842(6) 0.8297(3) 0.3977(4)
O23 O 0.8051(6) 0.77263(19) 0.4698(4)
C29 C 0.9196(5) 0.9078(2) 0.2288(4)
C30 C 0.8819(4) 0.8835(2) 0.2797(4)
C31 C 0.8104(5) 0.9045(3) 0.2735(4)
H17 H 0.7857 0.9328 0.2382
C32 C 0.7733(5) 0.8841(4) 0.3199(5)
H18 H 0.7221 0.8971 0.3126
C33 C 0.8127(6) 0.8457(3) 0.3747(5)
C34 C 0.8845(6) 0.8242(2) 0.3823(5)
H19 H 0.9111 0.7974 0.4204
C35 C 0.9193(5) 0.8434(2) 0.3308(4)
H20 H 0.9670 0.8281 0.3331
C36 C 0.8141(6) 0.8673(3) 0.5230(5)
C37 C 0.7741(5) 0.9103(3) 0.5265(4)
H21 H 0.7190 0.9169 0.4845
C38 C 0.8160(5) 0.9451(2) 0.5941(4)
H22 H 0.7879 0.9751 0.5951
C39 C 0.8965(5) 0.9367(2) 0.6587(4)
C40 C 0.9401(6) 0.8920(3) 0.6578(4)
H23 H 0.9947 0.8849 0.7006
C41 C 0.8950(7) 0.8573(2) 0.5860(5)
H24 H 0.9218 0.8273 0.5829
C42 C 0.9401(5) 0.9743(2) 0.7321(4)
Mn7 Mn 0.19826(5) 0.91680(3) 0.07292(5)
O29 O 0.2796(2) 0.98297(14) 0.0954(2)
O30 O 0.3064(3) 0.87720(17) 0.1755(3)
O31 O 0.1627(2) 0.95376(11) 0.1629(2)
O35 O 0.1763(3) 0.87719(17) 0.3070(3)
C45 C 0.3001(4) 0.99730(18) 0.3001(3)
H25 H 0.2947 0.9615 0.2949
H26 H 0.4104 0.9962 0.4103
O48 O 0.97927(17) 0.95189(9) 0.08492(16)
O51 O 0.1293(3) 0.84689(13) 0.0592(2)
O53 O 0.0591(3) 0.84678(13) 0.1290(3)
O57 O 0.0950(3) 0.98305(14) 0.2789(2)
Mn1_8 Mn 1.0000 1.0000 1.0000
S1 S 0.53421(10) 0.90386(5) 0.53407(10)
S2 S 0.43971(17) 0.82377(8) 0.7718(2)
O4 O 0.8905(2) 0.96758(12) 0.8901(2)
O5 O 0.6293(3) 0.65311(13) 0.5592(2)
O6 O 0.2303(3) 0.88629(14) 0.9813(3)
O10 O 0.5591(3) 0.65322(13) 0.6290(3)
O14 O 0.1920(4) 0.9482(2) 0.8877(3)
O18 O 0.5404(3) 0.91909(14) 0.4606(2)
O19 O 0.4610(3) 0.91918(14) 0.5400(3)
O20 O 0.3961(5) 0.8313(3) 0.6812(5)
O21 O 0.4702(4) 0.77321(19) 0.8050(6)
C1 C 0.8357(4) 0.99622(19) 0.8355(3)
C2 C 0.7611(3) 0.97305(17) 0.7613(3)
C4 C 0.6304(4) 0.98249(19) 0.6305(4)
C5 C 0.6238(3) 0.92861(17) 0.6239(3)
C6 C 0.6856(4) 0.89773(18) 0.6852(4)
H3 H 0.6813 0.8619 0.6804
C7 C 0.7523(4) 0.91975(17) 0.7521(3)
H4 H 0.7933 0.8986 0.7930
C8 C 0.5452(3) 0.83693(16) 0.5452(3)
C9 C 0.5137(3) 0.81048(19) 0.5904(4)
H5 H 0.4843 0.8282 0.6129
C10 C 0.5257(3) 0.75839(18) 0.6024(3)
H6 H 0.5026 0.7408 0.6313
C11 C 0.5719(3) 0.73137(16) 0.5720(3)
C12 C 0.6030(4) 0.75818(18) 0.5262(3)
H7 H 0.6327 0.7405 0.5039
C13 C 0.5903(4) 0.81079(19) 0.5133(3)
H8 H 0.6122 0.8285 0.4833
C14 C 0.5878(4) 0.67495(17) 0.5875(4)
C15 C 0.7317(5) 0.9736(2) 0.9389(5)
C16 C 0.6576(4) 0.9370(2) 0.8957(5)
C17 C 0.5924(5) 0.9456(3) 0.8141(5)
H9 H 0.5929 0.9756 0.7860
C18 C 0.5257(5) 0.9103(3) 0.7730(5)
H10 H 0.4834 0.9167 0.7179
C19 C 0.5230(5) 0.8670(3) 0.8139(6)
C20 C 0.5865(5) 0.8570(3) 0.8944(7)
H11 H 0.5837 0.8270 0.9213
C21 C 0.6576(5) 0.8915(2) 0.9388(6)
H12 H 0.7010 0.8841 0.9929
C22 C 0.3758(5) 0.8457(3) 0.8137(5)
C23 C 0.3210(5) 0.8846(3) 0.7741(5)
H13 H 0.3150 0.8974 0.7233
C24 C 0.2736(5) 0.9057(3) 0.8083(4)
H14 H 0.2386 0.9340 0.7830
C25 C 0.2794(4) 0.8837(2) 0.8813(4)
C26 C 0.3309(5) 0.8438(2) 0.9184(5)
H15 H 0.3338 0.8290 0.9667
C27 C 0.3810(5) 0.8240(2) 0.8846(5)
H16 H 0.4173 0.7963 0.9105
C28 C 0.2296(4) 0.9079(2) 0.9202(5)
Mn11 Mn 0.57310(5) 0.58314(3) 0.69842(5)
Mn19 Mn 0.69826(5) 0.58320(3) 0.57292(5)
O34 O 0.4050(3) 0.48305(14) 0.2211(2)
O39 O 0.5035(3) 0.54181(17) 0.2925(3)
C78_2 C 0.3141(6) 0.6327(3) 0.0230(5)
C79_2 C 0.2741(5) 0.5897(3) 0.0265(4)
C80_2 C 0.3160(5) 0.5549(2) 0.0941(4)
H46_2 H 0.2879 0.5249 0.0951
C81_2 C 0.3965(5) 0.5633(2) 0.1587(4)
C82_2 C 0.4401(6) 0.6080(3) 0.1578(4)
H47_2 H 0.4947 0.6151 0.2006
C83_2 C 0.3950(7) 0.6427(2) 0.0860(5)
H48_2 H 0.4218 0.6727 0.0829
C84_2 C 0.4401(5) 0.5257(2) 0.2321(4)
Mn15 Mn 0.60663(6) 0.50004(3) 0.39318(6)
S2_2 S 0.06029(17) 0.32377(8) 0.7282(2)
O6_2 O 0.2697(3) 0.38629(14) 0.5187(3)
O14_2 O 0.3080(4) 0.4482(2) 0.6123(3)
O19_2 O 0.0390(3) 0.41918(14) 0.9600(3)
O20_2 O 0.1039(5) 0.3313(3) 0.8188(5)
O21_2 O 0.0298(4) 0.27321(19) 0.6950(6)
H5_2 H 0.0157 0.3282 0.8871
H10_2 H 0.0166 0.4167 0.7821
C22_2 C 0.1242(5) 0.3457(3) 0.6863(5)
C23_2 C 0.1790(5) 0.3846(3) 0.7259(5)
H13_2 H 0.1850 0.3974 0.7767
C24_2 C 0.2264(5) 0.4057(3) 0.6917(4)
H14_2 H 0.2614 0.4340 0.7170
C25_2 C 0.2206(4) 0.3837(2) 0.6187(4)
C26_2 C 0.1691(5) 0.3438(2) 0.5816(5)
H15_2 H 0.1662 0.3290 0.5333
C27_2 C 0.1190(5) 0.3240(2) 0.6154(5)
H16_2 H 0.0827 0.2963 0.5895
C28_2 C 0.2704(4) 0.4079(2) 0.5798(5)
Mn6 Mn 0.39337(6) 0.49996(3) 0.60682(6)
S4_2 S 0.03421(10) 0.59614(5) 0.03407(10)
S6_2 S 0.2724(2) 0.67614(9) 0.94001(17)
O24 O 0.41579(17) 0.45214(9) 0.52127(16)
O25 O 0.52073(17) 0.45189(9) 0.41508(16)
O26 O 0.3905(2) 0.53242(12) 0.3901(2)
O29_2 O 0.2204(2) 0.48297(14) 0.4046(2)
O30_2 O 0.1936(3) 0.37720(17) 0.3245(3)
O31_2 O 0.3373(2) 0.45376(11) 0.3371(2)
O33 O 0.4819(3) 0.61439(14) 0.7311(3)
O35_2 O 0.3237(3) 0.37719(17) 0.1930(3)
O37_2 O 0.3872(3) 0.5517(2) 0.6918(3)
O38_2 O 0.2931(3) 0.54188(17) 0.5042(3)
O44_2 O 0.1842(6) 0.6703(3) 0.8977(4)
O45_2 O 0.3051(6) 0.72737(19) 0.9698(4)
C43_2 C 0.3357(4) 0.50378(19) 0.3355(3)
C44_2 C 0.2611(3) 0.52695(17) 0.2613(3)
C45_2 C 0.1999(4) 0.49730(18) 0.1999(3)
H25_2 H 0.2053 0.4615 0.2051
C46_2 C 0.1304(4) 0.51751(19) 0.1305(4)
H26_2 H 0.0896 0.4962 0.0897
C47_2 C 0.1238(3) 0.57139(17) 0.1239(3)
C48_2 C 0.1856(4) 0.60227(18) 0.1852(4)
H27_2 H 0.1813 0.6381 0.1804
C49_2 C 0.2523(4) 0.58025(17) 0.2521(3)
H28_2 H 0.2933 0.6014 0.2930
C50_2 C 0.0452(3) 0.66307(16) 0.0452(3)
C51_2 C 0.0137(3) 0.68952(19) 0.0904(4)
C52_2 C 0.0257(3) 0.74161(18) 0.1024(3)
H30_2 H 0.0026 0.7592 0.1313
C53_2 C 0.0719(3) 0.76863(16) 0.0720(3)
C54_2 C 0.1030(4) 0.74182(18) 0.0262(3)
H31_2 H 0.1327 0.7595 0.0039
C55_2 C 0.0903(4) 0.68921(19) 0.0133(3)
C56_2 C 0.0878(4) 0.82505(17) 0.0875(4)
C57_2 C 0.2317(5) 0.5264(2) 0.4389(5)
C58_2 C 0.1576(4) 0.5630(2) 0.3957(5)
C59_2 C 0.0924(5) 0.5544(3) 0.3141(5)
H33_2 H 0.0929 0.5244 0.2860
C60_2 C 0.0257(5) 0.5897(3) 0.2730(5)
C61_2 C 0.0230(5) 0.6330(3) 0.3139(6)
C62_2 C 0.0865(5) 0.6430(3) 0.3944(7)
H35_2 H 0.0837 0.6730 0.4213
C63_2 C 0.1576(5) 0.6085(2) 0.4388(6)
H36_2 H 0.2010 0.6159 0.4929
C71_2 C 0.4196(5) 0.5922(2) 0.7288(4)
C72_2 C 0.3819(4) 0.6165(2) 0.7797(4)
C73_2 C 0.3104(5) 0.5955(3) 0.7735(4)
H41_2 H 0.2857 0.5672 0.7382
C74_2 C 0.2733(5) 0.6159(4) 0.8199(5)
H42_2 H 0.2221 0.6029 0.8126
C75_2 C 0.3127(6) 0.6543(3) 0.8747(5)
C76_2 C 0.3845(6) 0.6758(2) 0.8823(5)
H43_2 H 0.4111 0.7026 0.9204
C77_2 C 0.4193(5) 0.6566(2) 0.8308(4)
H44_2 H 0.4670 0.6719 0.8331
H45_2 H 0.2190 0.5831 0.9845
Mn8 Mn 0.5000 0.5000 0.5000
O47 O 0.47927(17) 0.54811(9) 0.58492(16)
O54 O 0.5181(3) 0.38561(14) 0.2689(3)
O58 O 0.4965(3) 0.45819(17) 0.7075(3)
S1_2 S 0.96579(10) 0.40386(5) 0.96593(10)
S3_2 S 0.7276(2) 0.32386(9) 0.05999(17)
O2_2 O 0.58421(17) 0.54786(9) 0.47873(16)
O4_2 O 0.6095(2) 0.46758(12) 0.6099(2)
O7_2 O 0.7796(2) 0.51703(14) 0.5954(2)
O8_2 O 0.8064(3) 0.62280(17) 0.6755(3)
O9_2 O 0.6627(2) 0.54624(11) 0.6629(2)
O13_2 O 0.6763(3) 0.62281(17) 0.8070(3)
O15_2 O 0.6128(3) 0.4483(2) 0.3082(3)
O16_2 O 0.7069(3) 0.45812(17) 0.4958(3)
O22_2 O 0.8158(6) 0.3297(3) 0.1023(4)
O23_2 O 0.6949(6) 0.27263(19) 0.0302(4)
C1_2 C 0.6643(4) 0.49622(19) 0.6645(3)
C2_2 C 0.7389(3) 0.47305(17) 0.7387(3)
C3_2 C 0.8001(4) 0.50270(18) 0.8001(3)
H1_2 H 0.7947 0.5385 0.7949
C4_2 C 0.8696(4) 0.48249(19) 0.8695(4)
H2_2 H 0.9104 0.5038 0.9103
C5_2 C 0.8762(3) 0.42861(17) 0.8761(3)
C6_2 C 0.8144(4) 0.39773(18) 0.8148(4)
H3_2 H 0.8187 0.3619 0.8196
C7_2 C 0.7477(4) 0.41975(17) 0.7479(3)
H4_2 H 0.7067 0.3986 0.7070
C8_2 C 0.9548(3) 0.33693(16) 0.9548(3)
C9_2 C 0.9863(3) 0.31048(19) 0.9096(4)
C10_2 C 0.9743(3) 0.25839(18) 0.8976(3)
H6_2 H 0.9974 0.2408 0.8687
C11_2 C 0.9281(3) 0.23137(16) 0.9280(3)
C12_2 C 0.8970(4) 0.25818(18) 0.9738(3)
H7_2 H 0.8673 0.2405 0.9961
C13_2 C 0.9097(4) 0.31079(19) 0.9867(3)
C14_2 C 0.9122(4) 0.17495(17) 0.9125(4)
C15_2 C 0.7683(5) 0.4736(2) 0.5611(5)
C16_2 C 0.8424(4) 0.4370(2) 0.6043(5)
C17_2 C 0.9076(5) 0.4456(3) 0.6859(5)
H9_2 H 0.9071 0.4756 0.7140
C18_2 C 0.9743(5) 0.4103(3) 0.7270(5)
C19_2 C 0.9770(5) 0.3670(3) 0.6861(6)
C20_2 C 0.9135(5) 0.3570(3) 0.6056(7)
H11_2 H 0.9163 0.3270 0.5787
C21_2 C 0.8424(5) 0.3915(2) 0.5612(6)
H12_2 H 0.7990 0.3841 0.5071
C29_2 C 0.5804(5) 0.4078(2) 0.2712(4)
C30_2 C 0.6181(4) 0.3835(2) 0.2203(4)
C31_2 C 0.6896(5) 0.4045(3) 0.2265(4)
H17_2 H 0.7143 0.4328 0.2618
C32_2 C 0.7267(5) 0.3841(4) 0.1801(5)
H18_2 H 0.7779 0.3971 0.1874
C33_2 C 0.6873(6) 0.3457(3) 0.1253(5)
C34_2 C 0.6155(6) 0.3242(2) 0.1177(5)
H19_2 H 0.5889 0.2974 0.0796
C35_2 C 0.5807(5) 0.3434(2) 0.1692(4)
H20_2 H 0.5330 0.3281 0.1669
H21_2 H 0.7810 0.4169 0.0155
S5_2 S 0.93971(17) 0.67623(8) 0.2718(2)
O28_2 O 0.7303(3) 0.61371(14) 0.4813(3)
O36_2 O 0.6920(4) 0.5518(2) 0.3877(3)
O41_2 O 0.9610(3) 0.58082(14) 0.0400(3)
O42_2 O 0.8961(5) 0.6687(3) 0.1812(5)
O43_2 O 0.9702(4) 0.72679(19) 0.3050(6)
H29_2 H 0.9843 0.6718 0.1129
H34_2 H 0.9834 0.5833 0.2179
C64_2 C 0.8758(5) 0.6543(3) 0.3137(5)
C65_2 C 0.8210(5) 0.6154(3) 0.2741(5)
H37_2 H 0.8150 0.6026 0.2233
C66_2 C 0.7736(5) 0.5943(3) 0.3083(4)
H38_2 H 0.7386 0.5660 0.2830
C67_2 C 0.7794(4) 0.6163(2) 0.3813(4)
C68_2 C 0.8309(5) 0.6562(2) 0.4184(5)
H39_2 H 0.8338 0.6710 0.4667
C69_2 C 0.8810(5) 0.6760(2) 0.3846(5)
H40_2 H 0.9173 0.7037 0.4105
C70_2 C 0.7296(4) 0.5921(2) 0.4202(5)
O56 O 0.5950(3) 0.51695(14) 0.7789(2)
C36_2 C 0.6859(6) 0.3673(3) 0.9770(5)
C37_2 C 0.7259(5) 0.4103(3) 0.9735(4)
C38_2 C 0.6840(5) 0.4451(2) 0.9059(4)
H22_2 H 0.7121 0.4751 0.9049
C39_2 C 0.6035(5) 0.4367(2) 0.8413(4)
C40_2 C 0.5599(6) 0.3920(3) 0.8422(4)
H23_2 H 0.5053 0.3849 0.7994
C41_2 C 0.6050(7) 0.3573(2) 0.9140(5)
H24_2 H 0.5782 0.3273 0.9171
C42_2 C 0.5599(5) 0.4743(2) 0.7679(4)
O40_2 O 0.0404(3) 0.58091(14) 0.9606(2)
H32_2 H 0.1122 0.6715 0.9833
O18_2 O 0.9596(3) 0.41909(14) 0.0394(2)
H8_2 H 0.8878 0.3285 0.0167
loop_
_geom_bond_atom_site_label_1
_geom_bond_atom_site_label_2
_geom_bond_site_symmetry_1
_geom_bond_site_symmetry_2
O1 H55 1_555 1_555
O1_3 H55_2 1_555 1_555
O49 Mn1 1_555 1_555
O3 Mn1_2 1_555 1_555
Mn18 O17 1_555 1_555
O46 Mn1_4 1_555 1_555
Mn18 O46 1_555 1_555
Mn1_5 O2 1_555 1_555
Mn3 O2 1_555 1_555
S4 O40 1_555 1_555
S5 O42 1_555 1_555
O49 C43 1_555 1_555
O27 C56 1_555 1_555
O32 C56 1_555 1_555
O36 Mn3 1_555 1_555
O41 S4 1_555 1_555
O43 S5 1_555 1_555
C44 C43 1_555 1_555
C47 S4 1_555 1_555
C48 C47 1_555 1_555
H27 C48 1_555 1_555
C49 C44 1_555 1_555
H28 C49 1_555 1_555
C50 S4 1_555 1_555
C51 C50 1_555 1_555
H29 C51 1_555 1_555
C52 C51 1_555 1_555
H30 C52 1_555 1_555
C53 C52 1_555 1_555
C54 C53 1_555 1_555
H31 C54 1_555 1_555
C55 C50 1_555 1_555
H32 C55 1_555 1_555
C56 C53 1_555 1_555
C58 C57 1_555 1_555
C59 C58 1_555 1_555
H33 C59 1_555 1_555
C60 C59 1_555 1_555
H34 C60 1_555 1_555
C61 S5 1_555 1_555
C62 C61 1_555 1_555
H35 C62 1_555 1_555
C63 C58 1_555 1_555
H36 C63 1_555 1_555
C64 S5 1_555 1_555
C65 C64 1_555 1_555
H37 C65 1_555 1_555
C66 C65 1_555 1_555
H38 C66 1_555 1_555
C67 C66 1_555 1_555
C68 C67 1_555 1_555
H39 C68 1_555 1_555
C69 C64 1_555 1_555
H40 C69 1_555 1_555
C70 O28 1_555 1_555
Mn10 O12 1_555 1_555
Mn14 O32 1_555 1_555
Mn20 O27 1_555 1_555
O59 Mn3 1_555 1_555
O36 C70 1_555 1_555
C46 C47 1_555 1_555
C48 C49 1_555 1_555
C54 C55 1_555 1_555
C60 C61 1_555 1_555
C62 C63 1_555 1_555
C67 C70 1_555 1_555
C68 C69 1_555 1_555
O7 Mn4 1_555 1_555
O8 Mn4 1_555 1_555
O9 Mn10 1_555 1_555
O13 Mn10 1_555 1_555
H1 C3 1_555 1_555
S6 O44 1_555 1_555
O55 C71 1_555 1_555
O45 S6 1_555 1_555
C71 O37 1_555 1_555
C72 C71 1_555 1_555
C73 C72 1_555 1_555
H41 C73 1_555 1_555
C74 C73 1_555 1_555
H42 C74 1_555 1_555
C75 S6 1_555 1_555
C76 C75 1_555 1_555
H43 C76 1_555 1_555
C77 C72 1_555 1_555
H44 C77 1_555 1_555
C78 S6 1_555 1_555
C79 C78 1_555 1_555
H45 C79 1_555 1_555
C80 C79 1_555 1_555
H46 C80 1_555 1_555
C81 C80 1_555 1_555
C82 C81 1_555 1_555
H47 C82 1_555 1_555
C83 C78 1_555 1_555
H48 C83 1_555 1_555
C84 C81 1_555 1_555
O50 Mn4 1_555 1_555
O52 Mn10 1_555 1_555
Mn4 O9 1_555 1_555
C74 C75 1_555 1_555
C76 C77 1_555 1_555
C82 C83 1_555 1_555
S3 O22 1_555 1_555
O11 C29 1_555 1_555
O23 S3 1_555 1_555
C29 O15 1_555 1_555
C30 C29 1_555 1_555
C31 C30 1_555 1_555
H17 C31 1_555 1_555
C32 C31 1_555 1_555
H18 C32 1_555 1_555
C33 S3 1_555 1_555
C34 C33 1_555 1_555
H19 C34 1_555 1_555
C35 C30 1_555 1_555
H20 C35 1_555 1_555
C36 S3 1_555 1_555
C37 C36 1_555 1_555
H21 C37 1_555 1_555
C38 C37 1_555 1_555
H22 C38 1_555 1_555
C39 C38 1_555 1_555
C40 C39 1_555 1_555
H23 C40 1_555 1_555
C41 C36 1_555 1_555
H24 C41 1_555 1_555
C42 C39 1_555 1_555
O29 Mn7 1_555 1_555
O30 Mn7 1_555 1_555
O31 Mn13 1_555 1_555
O35 Mn13 1_555 1_555
H25 C45 1_555 1_555
O48 Mn1_7 1_555 1_555
O51 Mn7 1_555 1_555
O53 Mn13 1_555 1_555
O57 Mn13 1_555 1_555
C32 C33 1_555 1_555
C34 C35 1_555 1_555
C40 C41 1_555 1_555
Mn7 O31 1_555 1_555
S1 O18 1_555 1_555
S2 O20 1_555 1_555
O4 Mn1_8 1_555 1_555
O5 C14 1_555 1_555
O6 C28 1_555 1_555
O10 C14 1_555 1_555
O14 C28 1_555 1_555
O19 S1 1_555 1_555
O21 S2 1_555 1_555
C1 O4 1_555 1_555
C2 C1 1_555 1_555
C5 S1 1_555 1_555
C6 C5 1_555 1_555
H3 C6 1_555 1_555
C7 C2 1_555 1_555
H4 C7 1_555 1_555
C8 S1 1_555 1_555
C9 C8 1_555 1_555
H5 C9 1_555 1_555
C10 C9 1_555 1_555
H6 C10 1_555 1_555
C11 C10 1_555 1_555
C12 C11 1_555 1_555
H7 C12 1_555 1_555
C13 C8 1_555 1_555
H8 C13 1_555 1_555
C14 C11 1_555 1_555
C16 C15 1_555 1_555
C17 C16 1_555 1_555
H9 C17 1_555 1_555
C18 C17 1_555 1_555
H10 C18 1_555 1_555
C19 S2 1_555 1_555
C20 C19 1_555 1_555
H11 C20 1_555 1_555
C21 C16 1_555 1_555
H12 C21 1_555 1_555
C22 S2 1_555 1_555
C23 C22 1_555 1_555
H13 C23 1_555 1_555
C24 C23 1_555 1_555
H14 C24 1_555 1_555
C25 C24 1_555 1_555
C26 C25 1_555 1_555
H15 C26 1_555 1_555
C27 C22 1_555 1_555
H16 C27 1_555 1_555
C28 C25 1_555 1_555
Mn18 O14 1_555 1_555
Mn11 O10 1_555 1_555
Mn19 O5 1_555 1_555
C4 C5 1_555 1_555
C6 C7 1_555 1_555
C12 C13 1_555 1_555
C18 C19 1_555 1_555
C20 C21 1_555 1_555
C26 C27 1_555 1_555
O34 C84_2 1_555 1_555
O39 C84_2 1_555 1_555
C79_2 C78_2 1_555 1_555
C80_2 C79_2 1_555 1_555
H46_2 C80_2 1_555 1_555
C81_2 C80_2 1_555 1_555
C82_2 C81_2 1_555 1_555
H47_2 C82_2 1_555 1_555
C83_2 C78_2 1_555 1_555
H48_2 C83_2 1_555 1_555
C84_2 C81_2 1_555 1_555
Mn14 O34 1_555 1_555
Mn15 O39 1_555 1_555
C82_2 C83_2 1_555 1_555
S2_2 O20_2 1_555 1_555
O6_2 C28_2 1_555 1_555
O14_2 C28_2 1_555 1_555
O21_2 S2_2 1_555 1_555
C22_2 S2_2 1_555 1_555
C23_2 C22_2 1_555 1_555
H13_2 C23_2 1_555 1_555
C24_2 C23_2 1_555 1_555
H14_2 C24_2 1_555 1_555
C25_2 C24_2 1_555 1_555
C26_2 C25_2 1_555 1_555
H15_2 C26_2 1_555 1_555
C27_2 C22_2 1_555 1_555
H16_2 C27_2 1_555 1_555
C28_2 C25_2 1_555 1_555
Mn14 O25 1_555 1_555
Mn6 O14_2 1_555 1_555
Mn20 O6_2 1_555 1_555
S6_2 O44_2 1_555 1_555
O24 Mn6 1_555 1_555
O25 Mn8 1_555 1_555
O26 C43_2 1_555 1_555
O51 C56_2 1_555 1_555
O29_2 Mn20 1_555 1_555
O30_2 Mn20 1_555 1_555
O31_2 Mn14 1_555 1_555
O53 C56_2 1_555 1_555
O33 C71_2 1_555 1_555
O35_2 Mn14 1_555 1_555
O37_2 Mn6 1_555 1_555
O38_2 Mn6 1_555 1_555
O45_2 S6_2 1_555 1_555
C43_2 O31_2 1_555 1_555
C44_2 C43_2 1_555 1_555
C45_2 C44_2 1_555 1_555
H25_2 C45_2 1_555 1_555
C46_2 C45_2 1_555 1_555
H26_2 C46_2 1_555 1_555
C47_2 S4_2 1_555 1_555
C48_2 C47_2 1_555 1_555
H27_2 C48_2 1_555 1_555
C49_2 C44_2 1_555 1_555
H28_2 C49_2 1_555 1_555
C50_2 S4_2 1_555 1_555
C51_2 C50_2 1_555 1_555
C52_2 C51_2 1_555 1_555
H30_2 C52_2 1_555 1_555
C53_2 C52_2 1_555 1_555
C54_2 C53_2 1_555 1_555
H31_2 C54_2 1_555 1_555
C55_2 C50_2 1_555 1_555
C56_2 C53_2 1_555 1_555
C57_2 O29_2 1_555 1_555
C58_2 C57_2 1_555 1_555
C59_2 C58_2 1_555 1_555
H33_2 C59_2 1_555 1_555
C60_2 C59_2 1_555 1_555
C62_2 C61_2 1_555 1_555
H35_2 C62_2 1_555 1_555
C63_2 C58_2 1_555 1_555
H36_2 C63_2 1_555 1_555
C71_2 O37_2 1_555 1_555
C72_2 C71_2 1_555 1_555
C73_2 C72_2 1_555 1_555
H41_2 C73_2 1_555 1_555
C74_2 C73_2 1_555 1_555
H42_2 C74_2 1_555 1_555
C75_2 S6_2 1_555 1_555
C76_2 C75_2 1_555 1_555
H43_2 C76_2 1_555 1_555
C77_2 C72_2 1_555 1_555
H44_2 C77_2 1_555 1_555
Mn8 O24 1_555 1_555
Mn11 O33 1_555 1_555
Mn15 O25 1_555 1_555
O47 Mn6 1_555 1_555
O54 Mn14 1_555 1_555
O58 Mn6 1_555 1_555
C26_2 C27_2 1_555 1_555
Mn20 O24 1_555 1_555
Mn20 O31_2 1_555 1_555
O26 Mn8 1_555 1_555
O38_2 C57_2 1_555 1_555
C46_2 C47_2 1_555 1_555
C48_2 C49_2 1_555 1_555
C54_2 C55_2 1_555 1_555
C60_2 C61_2 1_555 1_555
C62_2 C63_2 1_555 1_555
C74_2 C75_2 1_555 1_555
C76_2 C77_2 1_555 1_555
Mn8 O47 1_555 1_555
Mn11 O47 1_555 1_555
Mn8 O2_2 1_555 1_555
Mn15 O2_2 1_555 1_555
Mn19 O2_2 1_555 1_555
S3_2 O22_2 1_555 1_555
O4_2 Mn8 1_555 1_555
O50 C14_2 1_555 1_555
O7_2 Mn19 1_555 1_555
O8_2 Mn19 1_555 1_555
O9_2 Mn11 1_555 1_555
O52 C14_2 1_555 1_555
O54 C29_2 1_555 1_555
O13_2 Mn11 1_555 1_555
O15_2 Mn15 1_555 1_555
O16_2 Mn15 1_555 1_555
O23_2 S3_2 1_555 1_555
C1_2 O4_2 1_555 1_555
C2_2 C1_2 1_555 1_555
C3_2 C2_2 1_555 1_555
H1_2 C3_2 1_555 1_555
C4_2 C3_2 1_555 1_555
H2_2 C4_2 1_555 1_555
C5_2 S1_2 1_555 1_555
C6_2 C5_2 1_555 1_555
H3_2 C6_2 1_555 1_555
C7_2 C2_2 1_555 1_555
H4_2 C7_2 1_555 1_555
C8_2 S1_2 1_555 1_555
C9_2 C8_2 1_555 1_555
C10_2 C9_2 1_555 1_555
H6_2 C10_2 1_555 1_555
C11_2 C10_2 1_555 1_555
C12_2 C11_2 1_555 1_555
H7_2 C12_2 1_555 1_555
C13_2 C8_2 1_555 1_555
C14_2 C11_2 1_555 1_555
C15_2 O7_2 1_555 1_555
C16_2 C15_2 1_555 1_555
C17_2 C16_2 1_555 1_555
H9_2 C17_2 1_555 1_555
C18_2 C17_2 1_555 1_555
C20_2 C19_2 1_555 1_555
H11_2 C20_2 1_555 1_555
C21_2 C16_2 1_555 1_555
H12_2 C21_2 1_555 1_555
C29_2 O15_2 1_555 1_555
C30_2 C29_2 1_555 1_555
C31_2 C30_2 1_555 1_555
H17_2 C31_2 1_555 1_555
C32_2 C31_2 1_555 1_555
H18_2 C32_2 1_555 1_555
C33_2 S3_2 1_555 1_555
C34_2 C33_2 1_555 1_555
H19_2 C34_2 1_555 1_555
C35_2 C30_2 1_555 1_555
H20_2 C35_2 1_555 1_555
S5_2 O42_2 1_555 1_555
O28_2 Mn19 1_555 1_555
O36_2 Mn15 1_555 1_555
O43_2 S5_2 1_555 1_555
C64_2 S5_2 1_555 1_555
C65_2 C64_2 1_555 1_555
H37_2 C65_2 1_555 1_555
C66_2 C65_2 1_555 1_555
H38_2 C66_2 1_555 1_555
C67_2 C66_2 1_555 1_555
C68_2 C67_2 1_555 1_555
H39_2 C68_2 1_555 1_555
C69_2 C64_2 1_555 1_555
H40_2 C69_2 1_555 1_555
C70_2 O28_2 1_555 1_555
O56 Mn11 1_555 1_555
Mn19 O9_2 1_555 1_555
O9_2 C1_2 1_555 1_555
O16_2 C15_2 1_555 1_555
C4_2 C5_2 1_555 1_555
C6_2 C7_2 1_555 1_555
C12_2 C13_2 1_555 1_555
C18_2 C19_2 1_555 1_555
C20_2 C21_2 1_555 1_555
C32_2 C33_2 1_555 1_555
C34_2 C35_2 1_555 1_555
O36_2 C70_2 1_555 1_555
C67_2 C70_2 1_555 1_555
C68_2 C69_2 1_555 1_555
O56 C42_2 1_555 1_555
O58 C42_2 1_555 1_555
C37_2 C36_2 1_555 1_555
C38_2 C37_2 1_555 1_555
H22_2 C38_2 1_555 1_555
C39_2 C38_2 1_555 1_555
C40_2 C39_2 1_555 1_555
H23_2 C40_2 1_555 1_555
C41_2 C36_2 1_555 1_555
H24_2 C41_2 1_555 1_555
C42_2 C39_2 1_555 1_555
C40_2 C41_2 1_555 1_555

#END
