
###############################################################################
#
# This file contains modified crystal structure data generated from the
# MOF subset of the Cambridge Structural Database (CSD) v543 
# hosted by the Cambridge Crystallographic Data Centre (CCDC).
#
# This work is licensed under the Creative Commons
# Attribution-NonCommercial-ShareAlike 4.0 International License.
# To view a copy of this license, visit
# http://creativecommons.org/licenses/by-nc-sa/4.0/
# or send a letter to
# Creative Commons, PO Box 1866, Mountain View, CA 94042, USA.
#
# CIF created using the CSD Python API on 29 September 2022
# The structure has been converted into the P1 space group
# The structure has a 3D framework
# The original CSD entry WITJOA is in the monoclinic crystal system
# The framework has been calculated to contain at least 10.0% void space
# The void calculation uses a probe of radius 1.32A, grid spacing 0.4
# Generated hydrogen atom positions removed from atoms on special positions
#
###############################################################################

data_WITJOA
_chemical_formula_moiety         '(C168 H120 Mn12 O82 S12)n'
_symmetry_cell_setting           triclinic
_symmetry_space_group_name_H-M   'P 1'
_symmetry_Int_Tables_number      1
_space_group_name_Hall           'P 1'
loop_
_symmetry_equiv_pos_site_id
_symmetry_equiv_pos_as_xyz
1 x,y,z
_cell_length_a                   15.9995(5)
_cell_length_b                   18.1852(7)
_cell_length_c                   24.8199(7)
_cell_angle_alpha                90
_cell_angle_beta                 102.917(3)
_cell_angle_gamma                90
_cell_volume                     7038.71
loop_
_atom_site_label
_atom_site_type_symbol
_atom_site_fract_x
_atom_site_fract_y
_atom_site_fract_z
Mn10 Mn 0.03544(4) 0.74993(4) 0.01480(3)
O6 O 0.0560(2) 0.7085(2) 0.86898(15)
O10 O 0.0295(2) 0.7882(2) 0.93148(15)
C39 C 0.0090(3) 0.8275(3) 0.8384(2)
C40 C 0.0168(3) 0.8120(3) 0.78519(18)
H24 H 0.0353 0.7657 0.7769
H25 H 0.0014 0.8549 0.7080
C42 C 0.0331(3) 0.7707(3) 0.8830(2)
Mn8 Mn 0.09070(4) 0.61888(3) 0.92317(2)
S3 S 0.95446(7) 0.00258(8) 0.70564(6)
O4 O 0.55362(16) 0.00197(15) 0.55219(9)
O5 O 0.35313(16) 0.00168(15) 0.54883(9)
O8 O 0.53022(17) 0.06763(17) 0.62384(10)
O9 O 0.33445(18) 0.05156(18) 0.62591(11)
O19 O 0.9794(2) 0.0721(2) 0.73271(17)
C1 C 0.3217(3) 0.0005(2) 0.59112(15)
C29 C 0.5776(3) 0.0308(2) 0.60033(15)
C30 C 0.6710(3) 0.0202(2) 0.62847(14)
C31 C 0.7069(3) 0.0620(3) 0.67484(15)
H18 H 0.6724 0.0938 0.6896
C32 C 0.7935(3) 0.0566(2) 0.69928(17)
H19 H 0.8179 0.0857 0.7295
C33 C 0.8426(3) 0.0070(3) 0.67779(17)
Mn4 Mn 0.55386(4) 0.07062(3) 0.47943(2)
Mn7 Mn 0.40930(4) 0.11888(3) 0.57683(2)
Mn5 Mn 0.94614(4) 0.57062(3) 0.02057(2)
Mn1 Mn 0.44614(4) 0.92938(3) 0.52057(2)
Mn2 Mn 0.59070(4) 0.88112(3) 0.42317(2)
Mn3 Mn 0.53544(4) 0.75007(4) 0.51480(3)
S1 S 0.09855(7) 0.74178(7) 0.62098(5)
S2 S 0.48144(7) 0.80093(9) 0.86260(4)
O1 O 0.46072(19) 0.87809(17) 0.59708(11)
O2 O 0.85373(18) 0.63772(16) 0.96928(11)
O3 O 0.53699(14) 0.86308(13) 0.49104(9)
H1 H 0.5874 0.8775 0.5194
O12 O 0.89590(19) 0.75413(17) 0.99045(13)
O13 O 0.5486(3) 0.6347(3) 0.53823(19)
O14 O 0.53258(19) 0.77201(19) 0.60128(12)
O15 O 0.1244(2) 0.68238(19) 0.59034(18)
O16 O 0.1028(2) 0.7325(2) 0.67983(15)
O17 O 0.4255(2) 0.7411(3) 0.86884(14)
O18 O 0.4644(2) 0.8727(2) 0.88122(13)
O20 O 0.9949(2) 0.9781(3) 0.66206(15)
C2 C 0.2645(2) 0.9365(2) 0.59917(15)
C3 C 0.2375(3) 0.8870(3) 0.55699(18)
H2 H 0.2541 0.8929 0.5237
C4 C 0.1862(3) 0.8288(3) 0.56379(19)
H3 H 0.1688 0.7952 0.5352
C5 C 0.1606(3) 0.8198(2) 0.61233(17)
C6 C 0.1862(3) 0.8688(3) 0.65470(19)
H4 H 0.1681 0.8627 0.6875
C7 C 0.2391(3) 0.9281(3) 0.64905(18)
H5 H 0.2570 0.9611 0.6779
H6 H 0.0105 0.7896 0.5145
C15 C 0.4959(3) 0.8217(3) 0.62162(16)
C16 C 0.4930(3) 0.8168(3) 0.68188(16)
C17 C 0.4641(3) 0.8757(2) 0.70764(16)
H10 H 0.4467 0.9185 0.6878
C18 C 0.4607(3) 0.8717(3) 0.76337(17)
H11 H 0.4412 0.9114 0.7808
C19 C 0.4869(3) 0.8075(3) 0.79200(16)
C20 C 0.5148(3) 0.7472(3) 0.76686(18)
H12 H 0.5311 0.7041 0.7867
C21 C 0.5182(3) 0.7519(3) 0.71106(18)
H13 H 0.5372 0.7121 0.6936
C22 C 0.5864(3) 0.7737(3) 0.89540(16)
C23 C 0.6481(3) 0.8277(3) 0.91561(17)
H14 H 0.6334 0.8772 0.9127
C24 C 0.7309(3) 0.8063(3) 0.93984(17)
H15 H 0.7724 0.8413 0.9541
C25 C 0.7515(3) 0.7309(2) 0.94263(15)
C26 C 0.6907(3) 0.6785(3) 0.92177(15)
H16 H 0.7056 0.6290 0.9229
C27 C 0.6062(3) 0.7004(3) 0.89873(16)
H17 H 0.5641 0.6655 0.8858
C28 C 0.8422(3) 0.7064(2) 0.96958(16)
C34 C 0.8065(3) 0.9634(3) 0.63259(18)
H20 H 0.8402 0.9297 0.6189
C35 C 0.7202(3) 0.9704(3) 0.60792(17)
H21 H 0.6957 0.9414 0.5776
C36 C 0.9713(3) 0.9334(3) 0.75663(18)
C37 C 0.9604(4) 0.9492(3) 0.8093(2)
H22 H 0.9397 0.9949 0.8171
C38 C 0.9807(4) 0.8960(3) 0.8500(2)
H23 H 0.9752 0.9067 0.8857
C41 C 0.9970(3) 0.8655(3) 0.7439(2)
H26 H 0.515(2) 0.629(2) 0.5599(13)
H27 H 0.538(4) 0.609(3) 0.5088(16)
O21 O 0.35373(18) 0.86228(16) 0.46928(11)
O22 O 0.44638(16) 0.99803(15) 0.44781(9)
O23 O 0.64687(16) 0.99832(15) 0.45117(9)
O24 O 0.5560(2) 0.7915(2) 0.36898(15)
O25 O 0.70835(19) 0.83110(17) 0.46863(13)
O26 O 0.46978(17) 0.93237(17) 0.37616(10)
O27 O 0.66555(18) 0.94844(18) 0.37409(11)
O28 O 0.5295(2) 0.7118(2) 0.43148(15)
O29 O 0.67376(19) 0.76009(19) 0.53476(13)
O30 O 0.39590(19) 0.74587(17) 0.49045(13)
C8 C 0.9909(3) 0.7623(2) 0.5883(2)
C9 C 0.9685(3) 0.7832(4) 0.5345(2)
C10 C 0.8825(3) 0.7951(4) 0.5092(2)
H7 H 0.8673 0.8116 0.4728
C11 C 0.8193(3) 0.7820(2) 0.53883(18)
C12 C 0.8421(3) 0.7583(3) 0.59190(18)
H8 H 0.7997 0.7474 0.6109
C13 C 0.9287(3) 0.7499(3) 0.61871(19)
H9 H 0.9441 0.7364 0.6558
C14 C 0.7250(3) 0.7921(3) 0.51121(19)
O7 O 0.79165(19) 0.33110(17) 0.03137(13)
H7_2 H 0.6327 0.3116 0.0272
Mn6 Mn 0.90930(4) 0.38112(3) 0.07683(2)
O21_2 O 0.14627(18) 0.36228(16) 0.03072(11)
O22_2 O 0.05362(16) 0.49803(15) 0.05219(9)
O26_2 O 0.03022(17) 0.43237(17) 0.12384(10)
O30_2 O 0.10410(19) 0.24587(17) 0.00955(13)
Mn1_2 Mn 0.05386(4) 0.42938(3) 0.97943(2)
S1_2 S 0.40145(7) 0.24178(7) 0.87902(5)
S2_2 S 0.01856(7) 0.30093(9) 0.63740(4)
O1_2 O 0.03928(19) 0.37809(17) 0.90292(11)
O5_2 O 0.14687(16) 0.50168(15) 0.95117(9)
O9_2 O 0.16555(18) 0.55156(18) 0.87409(11)
O11 O 0.82624(19) 0.26009(19) 0.96524(13)
O15_2 O 0.3756(2) 0.18238(19) 0.90966(18)
O16_2 O 0.3972(2) 0.2325(2) 0.82017(15)
O17_2 O 0.0745(2) 0.2411(3) 0.63116(14)
O18_2 O 0.0356(2) 0.3727(2) 0.61878(13)
C1_2 C 0.1783(3) 0.5005(2) 0.90888(15)
C2_2 C 0.2355(2) 0.4365(2) 0.90083(15)
C3_2 C 0.2625(3) 0.3870(3) 0.94301(18)
H2_2 H 0.2459 0.3929 0.9763
C4_2 C 0.3138(3) 0.3288(3) 0.93621(19)
H3_2 H 0.3312 0.2952 0.9648
C5_2 C 0.3394(3) 0.3198(2) 0.88767(17)
C6_2 C 0.3138(3) 0.3688(3) 0.84530(19)
H4_2 H 0.3319 0.3627 0.8125
C7_2 C 0.2609(3) 0.4281(3) 0.85095(18)
H5_2 H 0.2430 0.4611 0.8221
C8_2 C 0.5091(3) 0.2623(2) 0.9117(2)
C9_2 C 0.5315(3) 0.2832(4) 0.9655(2)
H6_2 H 0.4895 0.2896 0.9855
C10_2 C 0.6175(3) 0.2951(4) 0.9908(2)
C11_2 C 0.6807(3) 0.2820(2) 0.96117(18)
C12_2 C 0.6579(3) 0.2583(3) 0.90810(18)
H8_2 H 0.7003 0.2474 0.8891
C13_2 C 0.5713(3) 0.2499(3) 0.88129(19)
H9_2 H 0.5559 0.2364 0.8442
C14_2 C 0.7750(3) 0.2921(3) 0.98879(19)
C15_2 C 0.0041(3) 0.3217(3) 0.87838(16)
C16_2 C 0.0070(3) 0.3168(3) 0.81812(16)
C17_2 C 0.0359(3) 0.3757(2) 0.79236(16)
H10_2 H 0.0533 0.4185 0.8122
C18_2 C 0.0393(3) 0.3717(3) 0.73663(17)
H11_2 H 0.0588 0.4114 0.7192
C19_2 C 0.0131(3) 0.3075(3) 0.70800(16)
Mn9 Mn 0.96456(4) 0.25007(4) 0.98520(3)
O3_2 O 0.96301(14) 0.36308(13) 0.00896(9)
O23_2 O 0.85313(16) 0.49832(15) 0.04883(9)
O24_2 O 0.9440(2) 0.2915(2) 0.13102(15)
O27_2 O 0.83445(18) 0.44844(18) 0.12591(11)
O28_2 O 0.9705(2) 0.2118(2) 0.06852(15)
S3_2 S 0.54554(7) 0.50258(8) 0.79436(6)
O2_2 O 0.64627(18) 0.13772(16) 0.53072(11)
H1_2 H 0.9126 0.3775 0.9806
O4_2 O 0.94638(16) 0.50197(15) 0.94781(9)
O6_2 O 0.4440(2) 0.2085(2) 0.63102(15)
O8_2 O 0.96978(17) 0.56763(17) 0.87616(10)
O10_2 O 0.4705(2) 0.2882(2) 0.56852(15)
O12_2 O 0.60410(19) 0.25413(17) 0.50955(13)
O13_2 O 0.9514(3) 0.1347(3) 0.96177(19)
O14_2 O 0.96742(19) 0.27201(19) 0.89872(12)
O19_2 O 0.5206(2) 0.5721(2) 0.76729(17)
O20_2 O 0.5051(2) 0.4781(3) 0.83794(15)
C20_2 C 0.9852(3) 0.2472(3) 0.73314(18)
H12_2 H 0.9689 0.2041 0.7133
C21_2 C 0.9818(3) 0.2519(3) 0.78894(18)
H13_2 H 0.9628 0.2121 0.8064
C22_2 C 0.9136(3) 0.2737(3) 0.60460(16)
C23_2 C 0.8519(3) 0.3277(3) 0.58439(17)
H14_2 H 0.8666 0.3772 0.5873
C24_2 C 0.7691(3) 0.3063(3) 0.56016(17)
H15_2 H 0.7276 0.3413 0.5459
C25_2 C 0.7485(3) 0.2309(2) 0.55737(15)
C26_2 C 0.8093(3) 0.1785(3) 0.57823(15)
H16_2 H 0.7944 0.1290 0.5771
C27_2 C 0.8938(3) 0.2004(3) 0.60127(16)
H17_2 H 0.9359 0.1655 0.6142
C28_2 C 0.6578(3) 0.2064(2) 0.53042(16)
C29_2 C 0.9224(3) 0.5308(2) 0.89967(15)
C30_2 C 0.8290(3) 0.5202(2) 0.87153(14)
C31_2 C 0.7931(3) 0.5620(3) 0.82516(15)
H18_2 H 0.8276 0.5938 0.8104
C32_2 C 0.7065(3) 0.5566(2) 0.80072(17)
H19_2 H 0.6821 0.5857 0.7705
C33_2 C 0.6574(3) 0.5070(3) 0.82221(17)
C34_2 C 0.6935(3) 0.4634(3) 0.86741(18)
H20_2 H 0.6598 0.4297 0.8811
C35_2 C 0.7798(3) 0.4704(3) 0.89208(17)
H21_2 H 0.8043 0.4414 0.9224
C36_2 C 0.5287(3) 0.4334(3) 0.74337(18)
C37_2 C 0.5396(4) 0.4492(3) 0.6907(2)
H22_2 H 0.5603 0.4949 0.6829
C38_2 C 0.5193(4) 0.3960(3) 0.6500(2)
H23_2 H 0.5248 0.4067 0.6143
C39_2 C 0.4910(3) 0.3275(3) 0.6616(2)
C40_2 C 0.4832(3) 0.3120(3) 0.71481(18)
H24_2 H 0.4647 0.2657 0.7231
C41_2 C 0.5030(3) 0.3655(3) 0.7561(2)
H25_2 H 0.4986 0.3549 0.7920
C42_2 C 0.4669(3) 0.2707(3) 0.6170(2)
H26_2 H 0.985(2) 0.129(2) 0.9401(13)
H27_2 H 0.962(4) 0.109(3) 0.9912(16)
Mn10_2 Mn 0.46456(4) 0.24993(4) 0.48520(3)
O7_2 O 0.29165(19) 0.16890(17) 0.53137(13)
O11_2 O 0.32624(19) 0.23991(19) 0.46524(13)
C8_3 C 0.0091(3) 0.2377(2) 0.4117(2)
C9_3 C 0.0315(3) 0.2168(4) 0.4655(2)
C10_3 C 0.1175(3) 0.2049(4) 0.4908(2)
H7_3 H 0.1327 0.1884 0.5272
C11_3 C 0.1807(3) 0.2180(2) 0.46117(18)
C12_3 C 0.1579(3) 0.2417(3) 0.40810(18)
H8_3 H 0.2003 0.2526 0.3891
C13_3 C 0.0713(3) 0.2501(3) 0.38129(19)
H9_3 H 0.0559 0.2636 0.3442
C14_3 C 0.2750(3) 0.2079(3) 0.48879(19)
S1_3 S 0.90145(7) 0.25822(7) 0.37902(5)
S2_3 S 0.51856(7) 0.19907(9) 0.13740(4)
O1_3 O 0.53928(19) 0.12191(17) 0.40292(11)
O3_3 O 0.46301(14) 0.13692(13) 0.50896(9)
H1_3 H 0.4126 0.1225 0.4806
O13_3 O 0.4514(3) 0.3653(3) 0.46177(19)
O14_3 O 0.46742(19) 0.22799(19) 0.39872(12)
O15_3 O 0.8756(2) 0.31762(19) 0.40966(18)
O16_3 O 0.8972(2) 0.2675(2) 0.32017(15)
O17_3 O 0.5745(2) 0.2589(3) 0.13116(14)
O18_3 O 0.5356(2) 0.1273(2) 0.11878(13)
O20_3 O 0.0051(2) 0.0219(3) 0.33794(15)
C2_3 C 0.7355(2) 0.0635(2) 0.40083(15)
C3_3 C 0.7625(3) 0.1130(3) 0.44301(18)
H2_3 H 0.7459 0.1071 0.4763
C4_3 C 0.8138(3) 0.1712(3) 0.43621(19)
H3_3 H 0.8312 0.2048 0.4648
C5_3 C 0.8394(3) 0.1802(2) 0.38767(17)
C6_3 C 0.8138(3) 0.1312(3) 0.34530(19)
H4_3 H 0.8319 0.1373 0.3125
C7_3 C 0.7609(3) 0.0719(3) 0.35095(18)
H5_3 H 0.7430 0.0389 0.3221
H6_3 H 0.9895 0.2104 0.4855
C15_3 C 0.5041(3) 0.1783(3) 0.37838(16)
C16_3 C 0.5070(3) 0.1832(3) 0.31812(16)
C17_3 C 0.5359(3) 0.1243(2) 0.29236(16)
H10_3 H 0.5533 0.0815 0.3122
C18_3 C 0.5393(3) 0.1283(3) 0.23663(17)
H11_3 H 0.5588 0.0886 0.2192
C19_3 C 0.5131(3) 0.1925(3) 0.20800(16)
C20_3 C 0.4852(3) 0.2528(3) 0.23314(18)
H12_3 H 0.4689 0.2959 0.2133
C21_3 C 0.4818(3) 0.2481(3) 0.28894(18)
H13_3 H 0.4628 0.2879 0.3064
C22_3 C 0.4136(3) 0.2263(3) 0.10460(16)
C23_3 C 0.3519(3) 0.1723(3) 0.08439(17)
H14_3 H 0.3666 0.1228 0.0873
C24_3 C 0.2691(3) 0.1937(3) 0.06016(17)
H15_3 H 0.2276 0.1587 0.0459
C25_3 C 0.2485(3) 0.2691(2) 0.05737(15)
C26_3 C 0.3093(3) 0.3215(3) 0.07823(15)
H16_3 H 0.2944 0.3710 0.0771
C27_3 C 0.3938(3) 0.2996(3) 0.10127(16)
H17_3 H 0.4359 0.3345 0.1142
C28_3 C 0.1578(3) 0.2936(2) 0.03042(16)
C34_3 C 0.1935(3) 0.0366(3) 0.36741(18)
H20_3 H 0.1598 0.0703 0.3811
C35_3 C 0.2798(3) 0.0296(3) 0.39208(17)
H21_3 H 0.3043 0.0586 0.4224
C36_3 C 0.0287(3) 0.0666(3) 0.24337(18)
C37_3 C 0.0396(4) 0.0508(3) 0.1907(2)
H22_3 H 0.0603 0.0051 0.1829
C38_3 C 0.0193(4) 0.1040(3) 0.1500(2)
H23_3 H 0.0248 0.0933 0.1143
C41_3 C 0.0030(3) 0.1345(3) 0.2561(2)
H26_3 H 0.485(2) 0.371(2) 0.4401(13)
H27_3 H 0.462(4) 0.391(3) 0.4912(16)
S3_3 S 0.04554(7) 0.99742(8) 0.29436(6)
O19_3 O 0.0206(2) 0.9279(2) 0.26729(17)
C1_3 C 0.6783(3) 0.9995(2) 0.40888(15)
C29_3 C 0.4224(3) 0.9692(2) 0.39967(15)
C30_3 C 0.3290(3) 0.9798(2) 0.37153(14)
C31_3 C 0.2931(3) 0.9380(3) 0.32516(15)
H18_3 H 0.3276 0.9062 0.3104
C32_3 C 0.2065(3) 0.9434(2) 0.30072(17)
H19_3 H 0.1821 0.9143 0.2705
C33_3 C 0.1574(3) 0.9930(3) 0.32221(17)
C39_3 C 0.9910(3) 0.1725(3) 0.1616(2)
C40_3 C 0.9832(3) 0.1880(3) 0.21481(18)
H24_3 H 0.9647 0.2343 0.2231
H25_3 H 0.9986 0.1451 0.2920
C42_3 C 0.9669(3) 0.2293(3) 0.1170(2)
S3_4 S 0.45446(7) 0.49742(8) 0.20564(6)
H1_4 H 0.0874 0.6225 0.0194
O13_4 O 0.0486(3) 0.8653(3) 0.03823(19)
O14_4 O 0.03258(19) 0.72799(19) 0.10128(12)
O19_4 O 0.4794(2) 0.4279(2) 0.23271(17)
O20_4 O 0.4949(2) 0.5219(3) 0.16206(15)
C20_4 C 0.0148(3) 0.7528(3) 0.26686(18)
H12_4 H 0.0311 0.7959 0.2867
C21_4 C 0.0182(3) 0.7481(3) 0.21106(18)
H13_4 H 0.0372 0.7879 0.1936
C22_4 C 0.0864(3) 0.7263(3) 0.39540(16)
C23_4 C 0.1481(3) 0.6723(3) 0.41561(17)
H14_4 H 0.1334 0.6228 0.4127
C24_4 C 0.2309(3) 0.6937(3) 0.43984(17)
H15_4 H 0.2724 0.6587 0.4541
C25_4 C 0.2515(3) 0.7691(2) 0.44263(15)
C26_4 C 0.1907(3) 0.8215(3) 0.42177(15)
H16_4 H 0.2056 0.8710 0.4229
C27_4 C 0.1062(3) 0.7996(3) 0.39873(16)
H17_4 H 0.0641 0.8345 0.3858
C28_4 C 0.3422(3) 0.7936(2) 0.46958(16)
C29_4 C 0.0776(3) 0.4692(2) 0.10033(15)
C30_4 C 0.1710(3) 0.4798(2) 0.12847(14)
C31_4 C 0.2069(3) 0.4380(3) 0.17484(15)
H18_4 H 0.1724 0.4062 0.1896
C32_4 C 0.2935(3) 0.4434(2) 0.19928(17)
H19_4 H 0.3179 0.4143 0.2295
C33_4 C 0.3426(3) 0.4930(3) 0.17779(17)
C34_4 C 0.3065(3) 0.5366(3) 0.13259(18)
H20_4 H 0.3402 0.5703 0.1189
C35_4 C 0.2202(3) 0.5296(3) 0.10792(17)
H21_4 H 0.1957 0.5586 0.0776
C36_4 C 0.4713(3) 0.5666(3) 0.25663(18)
C37_4 C 0.4604(4) 0.5508(3) 0.3093(2)
H22_4 H 0.4397 0.5051 0.3171
C38_4 C 0.4807(4) 0.6040(3) 0.3500(2)
H23_4 H 0.4752 0.5933 0.3857
C39_4 C 0.5090(3) 0.6725(3) 0.3384(2)
C40_4 C 0.5168(3) 0.6880(3) 0.28519(18)
H24_4 H 0.5353 0.7343 0.2769
C41_4 C 0.4970(3) 0.6345(3) 0.2439(2)
H25_4 H 0.5014 0.6451 0.2080
C42_4 C 0.5331(3) 0.7293(3) 0.3830(2)
H26_4 H 0.015(2) 0.871(2) 0.0599(13)
H27_4 H 0.038(4) 0.891(3) 0.0088(16)
O29_2 O 0.17376(19) 0.73991(19) 0.03476(13)
O3_4 O 0.03699(14) 0.63692(13) 0.99104(9)
O25_2 O 0.20835(19) 0.66890(17) 0.96863(13)
S1_4 S 0.59855(7) 0.75822(7) 0.12098(5)
S2_4 S 0.98144(7) 0.69907(9) 0.36260(4)
O1_4 O 0.96072(19) 0.62191(17) 0.09708(11)
O15_4 O 0.6244(2) 0.81762(19) 0.09034(18)
O16_4 O 0.6028(2) 0.7675(2) 0.17983(15)
O17_4 O 0.9255(2) 0.7589(3) 0.36884(14)
O18_4 O 0.9644(2) 0.6273(2) 0.38122(13)
C1_4 C 0.8217(3) 0.4995(2) 0.09112(15)
C2_4 C 0.7645(2) 0.5635(2) 0.09917(15)
C3_4 C 0.7375(3) 0.6130(3) 0.05699(18)
H2_4 H 0.7541 0.6071 0.0237
C4_4 C 0.6862(3) 0.6712(3) 0.06379(19)
H3_4 H 0.6688 0.7048 0.0352
C5_4 C 0.6606(3) 0.6802(2) 0.11233(17)
C6_4 C 0.6862(3) 0.6312(3) 0.15470(19)
H4_4 H 0.6681 0.6373 0.1875
C7_4 C 0.7391(3) 0.5719(3) 0.14905(18)
H5_4 H 0.7570 0.5389 0.1779
C8_4 C 0.4909(3) 0.7377(2) 0.0883(2)
C9_4 C 0.4685(3) 0.7168(4) 0.0345(2)
H6_4 H 0.5105 0.7104 0.0145
C10_4 C 0.3825(3) 0.7049(4) 0.0092(2)
C11_4 C 0.3193(3) 0.7180(2) 0.03883(18)
C12_4 C 0.3421(3) 0.7417(3) 0.09190(18)
H8_4 H 0.2997 0.7526 0.1109
C13_4 C 0.4287(3) 0.7501(3) 0.11871(19)
H9_4 H 0.4441 0.7636 0.1558
C14_4 C 0.2250(3) 0.7079(3) 0.01121(19)
C15_4 C 0.9959(3) 0.6783(3) 0.12162(16)
C16_4 C 0.9930(3) 0.6832(3) 0.18188(16)
C17_4 C 0.9641(3) 0.6243(2) 0.20764(16)
H10_4 H 0.9467 0.5815 0.1878
C18_4 C 0.9607(3) 0.6283(3) 0.26337(17)
H11_4 H 0.9412 0.5886 0.2808
C19_4 C 0.9869(3) 0.6925(3) 0.29200(16)
H7_4 H 0.3673 0.6884 0.9728
O31 O 0.6534(5) 0.5972(5) 0.6434(3)
O31_2 O 0.8466(5) 0.0972(5) 0.8566(3)
O31_3 O 0.3466(5) 0.4028(5) 0.3566(3)
O31_4 O 0.1534(5) 0.9028(5) 0.1434(3)
loop_
_geom_bond_atom_site_label_1
_geom_bond_atom_site_label_2
_geom_bond_site_symmetry_1
_geom_bond_site_symmetry_2
O6 C42 1_555 1_555
O10 C42 1_555 1_555
C40 C39 1_555 1_555
H24 C40 1_555 1_555
C42 C39 1_555 1_555
Mn8 O6 1_555 1_555
S3 O19 1_555 1_555
O8 C29 1_555 1_555
O9 C1 1_555 1_555
C1 O5 1_555 1_555
C29 O4 1_555 1_555
C30 C29 1_555 1_555
C31 C30 1_555 1_555
H18 C31 1_555 1_555
C32 C31 1_555 1_555
H19 C32 1_555 1_555
C33 S3 1_555 1_555
Mn4 O4 1_555 1_555
Mn7 O5 1_555 1_555
O8 Mn7 1_555 1_555
O9 Mn7 1_555 1_555
C32 C33 1_555 1_555
Mn1 O1 1_555 1_555
Mn2 O3 1_555 1_555
Mn3 O3 1_555 1_555
S1 O15 1_555 1_555
S2 O17 1_555 1_555
O1 C15 1_555 1_555
O2 C28 1_555 1_555
O3 Mn1 1_555 1_555
H1 O3 1_555 1_555
O12 C28 1_555 1_555
O13 Mn3 1_555 1_555
O14 Mn3 1_555 1_555
O16 S1 1_555 1_555
O18 S2 1_555 1_555
C3 C2 1_555 1_555
H2 C3 1_555 1_555
C4 C3 1_555 1_555
H3 C4 1_555 1_555
C5 S1 1_555 1_555
C6 C5 1_555 1_555
H4 C6 1_555 1_555
C7 C2 1_555 1_555
H5 C7 1_555 1_555
C15 O14 1_555 1_555
C16 C15 1_555 1_555
C17 C16 1_555 1_555
H10 C17 1_555 1_555
C18 C17 1_555 1_555
H11 C18 1_555 1_555
C19 S2 1_555 1_555
C20 C19 1_555 1_555
H12 C20 1_555 1_555
C21 C16 1_555 1_555
H13 C21 1_555 1_555
C22 S2 1_555 1_555
C23 C22 1_555 1_555
H14 C23 1_555 1_555
C24 C23 1_555 1_555
H15 C24 1_555 1_555
C25 C24 1_555 1_555
C26 C25 1_555 1_555
H16 C26 1_555 1_555
C27 C22 1_555 1_555
H17 C27 1_555 1_555
C28 C25 1_555 1_555
H20 C34 1_555 1_555
H21 C35 1_555 1_555
C37 C36 1_555 1_555
H22 C37 1_555 1_555
C38 C37 1_555 1_555
H23 C38 1_555 1_555
C41 C36 1_555 1_555
H26 O13 1_555 1_555
H27 O13 1_555 1_555
O21 Mn1 1_555 1_555
O22 Mn1 1_555 1_555
O23 Mn2 1_555 1_555
O24 Mn2 1_555 1_555
O25 Mn2 1_555 1_555
O26 Mn2 1_555 1_555
O27 Mn2 1_555 1_555
O28 Mn3 1_555 1_555
O29 Mn3 1_555 1_555
O30 Mn3 1_555 1_555
C4 C5 1_555 1_555
C6 C7 1_555 1_555
C18 C19 1_555 1_555
C20 C21 1_555 1_555
C26 C27 1_555 1_555
C34 C35 1_555 1_555
O25 C14 1_555 1_555
O29 C14 1_555 1_555
C9 C8 1_555 1_555
C10 C9 1_555 1_555
H7 C10 1_555 1_555
C11 C10 1_555 1_555
C12 C11 1_555 1_555
H8 C12 1_555 1_555
C13 C8 1_555 1_555
H9 C13 1_555 1_555
C14 C11 1_555 1_555
C12 C13 1_555 1_555
Mn6 O7 1_555 1_555
Mn1_2 O1_2 1_555 1_555
S1_2 O15_2 1_555 1_555
S2_2 O17_2 1_555 1_555
O1_2 C15_2 1_555 1_555
O5_2 Mn1_2 1_555 1_555
O9_2 C1_2 1_555 1_555
O11 C14_2 1_555 1_555
O16_2 S1_2 1_555 1_555
O18_2 S2_2 1_555 1_555
C1_2 O5_2 1_555 1_555
C2_2 C1_2 1_555 1_555
C3_2 C2_2 1_555 1_555
H2_2 C3_2 1_555 1_555
C4_2 C3_2 1_555 1_555
H3_2 C4_2 1_555 1_555
C5_2 S1_2 1_555 1_555
C6_2 C5_2 1_555 1_555
H4_2 C6_2 1_555 1_555
C7_2 C2_2 1_555 1_555
H5_2 C7_2 1_555 1_555
C8_2 S1_2 1_555 1_555
C9_2 C8_2 1_555 1_555
H6_2 C9_2 1_555 1_555
C10_2 C9_2 1_555 1_555
C11_2 C10_2 1_555 1_555
C12_2 C11_2 1_555 1_555
H8_2 C12_2 1_555 1_555
C13_2 C8_2 1_555 1_555
H9_2 C13_2 1_555 1_555
C14_2 C11_2 1_555 1_555
C16_2 C15_2 1_555 1_555
C17_2 C16_2 1_555 1_555
H10_2 C17_2 1_555 1_555
C18_2 C17_2 1_555 1_555
H11_2 C18_2 1_555 1_555
C19_2 S2_2 1_555 1_555
Mn8 O5_2 1_555 1_555
Mn9 O11 1_555 1_555
O9_2 Mn8 1_555 1_555
C4_2 C5_2 1_555 1_555
C6_2 C7_2 1_555 1_555
C12_2 C13_2 1_555 1_555
C18_2 C19_2 1_555 1_555
Mn6 O3_2 1_555 1_555
O23_2 Mn6 1_555 1_555
O24_2 Mn6 1_555 1_555
O27_2 Mn6 1_555 1_555
Mn5 O23_2 1_555 1_555
S3_2 O19_2 1_555 1_555
O2_2 C28_2 1_555 1_555
O6_2 C42_2 1_555 1_555
O8_2 C29_2 1_555 1_555
O10_2 C42_2 1_555 1_555
O12_2 C28_2 1_555 1_555
O13_2 Mn9 1_555 1_555
O14_2 Mn9 1_555 1_555
O20_2 S3_2 1_555 1_555
H12_2 C20_2 1_555 1_555
H13_2 C21_2 1_555 1_555
C23_2 C22_2 1_555 1_555
H14_2 C23_2 1_555 1_555
C24_2 C23_2 1_555 1_555
H15_2 C24_2 1_555 1_555
C25_2 C24_2 1_555 1_555
C26_2 C25_2 1_555 1_555
H16_2 C26_2 1_555 1_555
C27_2 C22_2 1_555 1_555
H17_2 C27_2 1_555 1_555
C28_2 C25_2 1_555 1_555
C29_2 O4_2 1_555 1_555
C30_2 C29_2 1_555 1_555
C31_2 C30_2 1_555 1_555
H18_2 C31_2 1_555 1_555
C32_2 C31_2 1_555 1_555
H19_2 C32_2 1_555 1_555
C33_2 S3_2 1_555 1_555
C34_2 C33_2 1_555 1_555
H20_2 C34_2 1_555 1_555
C35_2 C30_2 1_555 1_555
H21_2 C35_2 1_555 1_555
C36_2 S3_2 1_555 1_555
C37_2 C36_2 1_555 1_555
H22_2 C37_2 1_555 1_555
C38_2 C37_2 1_555 1_555
H23_2 C38_2 1_555 1_555
C39_2 C38_2 1_555 1_555
C40_2 C39_2 1_555 1_555
H24_2 C40_2 1_555 1_555
C41_2 C36_2 1_555 1_555
H25_2 C41_2 1_555 1_555
C42_2 C39_2 1_555 1_555
H26_2 O13_2 1_555 1_555
H27_2 O13_2 1_555 1_555
Mn4 O2_2 1_555 1_555
Mn7 O6_2 1_555 1_555
Mn10_2 O10_2 1_555 1_555
O12_2 Mn10_2 1_555 1_555
C20_2 C21_2 1_555 1_555
C26_2 C27_2 1_555 1_555
C32_2 C33_2 1_555 1_555
C34_2 C35_2 1_555 1_555
C40_2 C41_2 1_555 1_555
O7_2 C14_3 1_555 1_555
O11_2 C14_3 1_555 1_555
C9_3 C8_3 1_555 1_555
C10_3 C9_3 1_555 1_555
H7_3 C10_3 1_555 1_555
C11_3 C10_3 1_555 1_555
C12_3 C11_3 1_555 1_555
H8_3 C12_3 1_555 1_555
C13_3 C8_3 1_555 1_555
H9_3 C13_3 1_555 1_555
C14_3 C11_3 1_555 1_555
Mn7 O7_2 1_555 1_555
Mn10_2 O11_2 1_555 1_555
C12_3 C13_3 1_555 1_555
Mn4 O1_3 1_555 1_555
Mn7 O3_3 1_555 1_555
Mn10_2 O3_3 1_555 1_555
S1_3 O15_3 1_555 1_555
S2_3 O17_3 1_555 1_555
O1_3 C15_3 1_555 1_555
O21_2 C28_3 1_555 1_555
O3_3 Mn4 1_555 1_555
H1_3 O3_3 1_555 1_555
O30_2 C28_3 1_555 1_555
O13_3 Mn10_2 1_555 1_555
O14_3 Mn10_2 1_555 1_555
O16_3 S1_3 1_555 1_555
O18_3 S2_3 1_555 1_555
C3_3 C2_3 1_555 1_555
H2_3 C3_3 1_555 1_555
C4_3 C3_3 1_555 1_555
H3_3 C4_3 1_555 1_555
C5_3 S1_3 1_555 1_555
C6_3 C5_3 1_555 1_555
H4_3 C6_3 1_555 1_555
C7_3 C2_3 1_555 1_555
H5_3 C7_3 1_555 1_555
C15_3 O14_3 1_555 1_555
C16_3 C15_3 1_555 1_555
C17_3 C16_3 1_555 1_555
H10_3 C17_3 1_555 1_555
C18_3 C17_3 1_555 1_555
H11_3 C18_3 1_555 1_555
C19_3 S2_3 1_555 1_555
C20_3 C19_3 1_555 1_555
H12_3 C20_3 1_555 1_555
C21_3 C16_3 1_555 1_555
H13_3 C21_3 1_555 1_555
C22_3 S2_3 1_555 1_555
C23_3 C22_3 1_555 1_555
H14_3 C23_3 1_555 1_555
C24_3 C23_3 1_555 1_555
H15_3 C24_3 1_555 1_555
C25_3 C24_3 1_555 1_555
C26_3 C25_3 1_555 1_555
H16_3 C26_3 1_555 1_555
C27_3 C22_3 1_555 1_555
H17_3 C27_3 1_555 1_555
C28_3 C25_3 1_555 1_555
H20_3 C34_3 1_555 1_555
H21_3 C35_3 1_555 1_555
C37_3 C36_3 1_555 1_555
H22_3 C37_3 1_555 1_555
C38_3 C37_3 1_555 1_555
H23_3 C38_3 1_555 1_555
C41_3 C36_3 1_555 1_555
H26_3 O13_3 1_555 1_555
H27_3 O13_3 1_555 1_555
C4_3 C5_3 1_555 1_555
C6_3 C7_3 1_555 1_555
C18_3 C19_3 1_555 1_555
C20_3 C21_3 1_555 1_555
C26_3 C27_3 1_555 1_555
C34_3 C35_3 1_555 1_555
S3_3 O19_3 1_555 1_555
O26 C29_3 1_555 1_555
O27 C1_3 1_555 1_555
C1_3 O23 1_555 1_555
C29_3 O22 1_555 1_555
C30_3 C29_3 1_555 1_555
C31_3 C30_3 1_555 1_555
H18_3 C31_3 1_555 1_555
C32_3 C31_3 1_555 1_555
H19_3 C32_3 1_555 1_555
C33_3 S3_3 1_555 1_555
C32_3 C33_3 1_555 1_555
O24_2 C42_3 1_555 1_555
O28_2 C42_3 1_555 1_555
C40_3 C39_3 1_555 1_555
H24_3 C40_3 1_555 1_555
C42_3 C39_3 1_555 1_555
S3_4 O19_4 1_555 1_555
O21 C28_4 1_555 1_555
O24 C42_4 1_555 1_555
O26_2 C29_4 1_555 1_555
O28 C42_4 1_555 1_555
O30 C28_4 1_555 1_555
O13_4 Mn10 1_555 1_555
O14_4 Mn10 1_555 1_555
O20_4 S3_4 1_555 1_555
H12_4 C20_4 1_555 1_555
H13_4 C21_4 1_555 1_555
C23_4 C22_4 1_555 1_555
H14_4 C23_4 1_555 1_555
C24_4 C23_4 1_555 1_555
H15_4 C24_4 1_555 1_555
C25_4 C24_4 1_555 1_555
C26_4 C25_4 1_555 1_555
H16_4 C26_4 1_555 1_555
C27_4 C22_4 1_555 1_555
H17_4 C27_4 1_555 1_555
C28_4 C25_4 1_555 1_555
C29_4 O22_2 1_555 1_555
C30_4 C29_4 1_555 1_555
C31_4 C30_4 1_555 1_555
H18_4 C31_4 1_555 1_555
C32_4 C31_4 1_555 1_555
H19_4 C32_4 1_555 1_555
C33_4 S3_4 1_555 1_555
C34_4 C33_4 1_555 1_555
H20_4 C34_4 1_555 1_555
C35_4 C30_4 1_555 1_555
H21_4 C35_4 1_555 1_555
C36_4 S3_4 1_555 1_555
C37_4 C36_4 1_555 1_555
H22_4 C37_4 1_555 1_555
C38_4 C37_4 1_555 1_555
H23_4 C38_4 1_555 1_555
C39_4 C38_4 1_555 1_555
C40_4 C39_4 1_555 1_555
H24_4 C40_4 1_555 1_555
C41_4 C36_4 1_555 1_555
H25_4 C41_4 1_555 1_555
C42_4 C39_4 1_555 1_555
H26_4 O13_4 1_555 1_555
H27_4 O13_4 1_555 1_555
O29_2 Mn10 1_555 1_555
C20_4 C21_4 1_555 1_555
C26_4 C27_4 1_555 1_555
C32_4 C33_4 1_555 1_555
C34_4 C35_4 1_555 1_555
C40_4 C41_4 1_555 1_555
Mn8 O3_4 1_555 1_555
O25_2 Mn8 1_555 1_555
Mn5 O1_4 1_555 1_555
S1_4 O15_4 1_555 1_555
S2_4 O17_4 1_555 1_555
O1_4 C15_4 1_555 1_555
O27_2 C1_4 1_555 1_555
O29_2 C14_4 1_555 1_555
O16_4 S1_4 1_555 1_555
O18_4 S2_4 1_555 1_555
C1_4 O23_2 1_555 1_555
C2_4 C1_4 1_555 1_555
C3_4 C2_4 1_555 1_555
H2_4 C3_4 1_555 1_555
C4_4 C3_4 1_555 1_555
H3_4 C4_4 1_555 1_555
C5_4 S1_4 1_555 1_555
C6_4 C5_4 1_555 1_555
H4_4 C6_4 1_555 1_555
C7_4 C2_4 1_555 1_555
H5_4 C7_4 1_555 1_555
C8_4 S1_4 1_555 1_555
C9_4 C8_4 1_555 1_555
H6_4 C9_4 1_555 1_555
C10_4 C9_4 1_555 1_555
C11_4 C10_4 1_555 1_555
C12_4 C11_4 1_555 1_555
H8_4 C12_4 1_555 1_555
C13_4 C8_4 1_555 1_555
H9_4 C13_4 1_555 1_555
C14_4 C11_4 1_555 1_555
C16_4 C15_4 1_555 1_555
C17_4 C16_4 1_555 1_555
H10_4 C17_4 1_555 1_555
C18_4 C17_4 1_555 1_555
H11_4 C18_4 1_555 1_555
C19_4 S2_4 1_555 1_555
C4_4 C5_4 1_555 1_555
C6_4 C7_4 1_555 1_555
C12_4 C13_4 1_555 1_555
C18_4 C19_4 1_555 1_555

#END
