
###############################################################################
#
# This file contains modified crystal structure data generated from the
# MOF subset of the Cambridge Structural Database (CSD) v543 
# hosted by the Cambridge Crystallographic Data Centre (CCDC).
#
# This work is licensed under the Creative Commons
# Attribution-NonCommercial-ShareAlike 4.0 International License.
# To view a copy of this license, visit
# http://creativecommons.org/licenses/by-nc-sa/4.0/
# or send a letter to
# Creative Commons, PO Box 1866, Mountain View, CA 94042, USA.
#
# CIF created using the CSD Python API on 29 September 2022
# The structure has been converted into the P1 space group
# The structure has a 3D framework
# The original CSD entry WITKOB is in the monoclinic crystal system
# The framework has been calculated to contain at least 10.0% void space
# The void calculation uses a probe of radius 1.32A, grid spacing 0.4
# The framework is charged, counterions have been retained in the structure
#
###############################################################################

data_WITKOB
_chemical_formula_moiety         '(C192 H120 Ag6 N24 O48 6+)n'
_symmetry_cell_setting           triclinic
_symmetry_space_group_name_H-M   'P 1'
_symmetry_Int_Tables_number      1
_space_group_name_Hall           'P 1'
loop_
_symmetry_equiv_pos_site_id
_symmetry_equiv_pos_as_xyz
1 x,y,z
_cell_length_a                   10.284(3)
_cell_length_b                   31.388(10)
_cell_length_c                   20.904(7)
_cell_angle_alpha                90
_cell_angle_beta                 103.189(9)
_cell_angle_gamma                90
_cell_volume                     6569.7
loop_
_atom_site_label
_atom_site_type_symbol
_atom_site_fract_x
_atom_site_fract_y
_atom_site_fract_z
Ag1 Ag 0.42511(6) 0.193373(15) 0.54063(3)
N2 N 0.2342(6) 0.16916(18) 0.4772(3)
C13 C 0.1997(8) 0.1816(2) 0.4149(4)
H8 H 0.2517 0.2018 0.3997
C14 C 0.0896(7) 0.1654(2) 0.3724(3)
H9 H 0.0680 0.1742 0.3288
C15 C 0.0118(6) 0.13640(19) 0.3944(3)
C16 C 0.0476(8) 0.1231(2) 0.4579(4)
C17 C 0.1590(8) 0.1407(2) 0.4960(3)
H11 H 0.1837 0.1317 0.5395
N4 N 0.5040(7) 0.12995(19) 0.5975(3)
N5 N 0.5715(6) 0.24477(15) 0.5594(3)
C1 C 0.6260(7) 0.06140(18) 0.1837(3)
C2 C 0.7424(7) 0.0717(2) 0.2266(3)
H1 H 0.8073 0.0512 0.2423
C3 C 0.7596(7) 0.1140(2) 0.2458(3)
C4 C 0.6652(6) 0.14437(18) 0.2208(3)
H2 H 0.6777 0.1728 0.2335
C5 C 0.5520(6) 0.13154(18) 0.1766(3)
C6 C 0.5287(7) 0.08985(18) 0.1579(3)
H3 H 0.4502 0.0815 0.1290
O2 O 0.6048(5) 0.01956(14) 0.1595(2)
O3 O 0.8775(4) 0.12761(12) 0.2900(2)
O4 O 0.8071(6) 0.09865(18) 0.3727(3)
H10 H 0.9980 0.1028 0.4744
C18 C 0.8879(9) 0.1178(2) 0.3530(3)
O5 O 0.4361(5) 0.15043(17) 0.0503(2)
O6 O 0.4526(4) 0.16256(12) 0.1565(2)
N3 N 0.0715(6) 0.25523(15) 0.0594(3)
C19 C 0.1634(8) 0.25570(19) 0.1173(3)
H12 H 0.1534 0.2751 0.1495
C20 C 0.2687(7) 0.22895(19) 0.1299(3)
H13 H 0.3300 0.2303 0.1702
C21 C 0.2860(7) 0.19980(17) 0.0838(3)
C22 C 0.1924(8) 0.19883(18) 0.0239(3)
C23 C 0.0895(6) 0.22722(19) 0.0157(3)
C24 C 0.3961(8) 0.1684(2) 0.0913(4)
Ag1_2 Ag 0.92511(6) 0.693373(15) 0.54063(3)
C1_2 C 0.1260(7) 0.56140(18) 0.1837(3)
C2_2 C 0.2424(7) 0.5717(2) 0.2266(3)
H1_2 H 0.3073 0.5512 0.2423
C3_2 C 0.2596(7) 0.6140(2) 0.2458(3)
C4_2 C 0.1652(6) 0.64437(18) 0.2208(3)
H2_2 H 0.1777 0.6728 0.2335
C5_2 C 0.0520(6) 0.63154(18) 0.1766(3)
C6_2 C 0.0287(7) 0.58985(18) 0.1579(3)
O1 O 0.1549(9) 0.48925(19) 0.2590(4)
O2_2 O 0.1048(5) 0.51956(14) 0.1595(2)
N1 N 0.0040(7) 0.37005(19) 0.0975(3)
C8 C 0.0312(10) 0.4455(3) 0.0977(4)
H5 H 0.0225 0.4709 0.0743
C9 C 0.0796(8) 0.4445(2) 0.1618(4)
C10 C 0.1032(10) 0.4089(3) 0.1949(4)
H6 H 0.1496 0.4080 0.2386
C11 C 0.0538(11) 0.3721(3) 0.1599(5)
H7 H 0.0571 0.3469 0.1837
C12 C 0.1208(10) 0.4872(3) 0.1974(5)
O3_2 O 0.3775(4) 0.62761(12) 0.2900(2)
O4_2 O 0.3071(6) 0.59865(18) 0.3727(3)
N2_2 N 0.7342(6) 0.66916(18) 0.4772(3)
C13_2 C 0.6997(8) 0.6816(2) 0.4149(4)
H8_2 H 0.7517 0.7018 0.3997
C14_2 C 0.5896(7) 0.6654(2) 0.3724(3)
H9_2 H 0.5680 0.6742 0.3288
C15_2 C 0.5118(6) 0.63640(19) 0.3944(3)
C16_2 C 0.5476(8) 0.6231(2) 0.4579(4)
H10_2 H 0.4980 0.6028 0.4744
C17_2 C 0.6590(8) 0.6407(2) 0.4960(3)
H11_2 H 0.6837 0.6317 0.5395
C18_2 C 0.3879(9) 0.6178(2) 0.3530(3)
O1_2 O 0.6549(9) 0.01075(19) 0.7590(4)
C7 C 0.4925(10) 0.0949(3) 0.5659(5)
H4 H 0.4580 0.0953 0.5207
C8_2 C 0.5312(10) 0.0545(3) 0.5977(4)
H5_2 H 0.5225 0.0291 0.5743
C9_2 C 0.5796(8) 0.0555(2) 0.6618(4)
C10_2 C 0.6032(10) 0.0911(3) 0.6949(4)
H6_2 H 0.6496 0.0920 0.7386
C11_2 C 0.5538(11) 0.1279(3) 0.6599(5)
H7_2 H 0.5571 0.1531 0.6837
C12_2 C 0.6208(10) 0.0128(3) 0.6974(5)
H3_2 H 0.9502 0.4185 0.6290
C7_2 C 0.9925(10) 0.5949(3) 0.5659(5)
H4_2 H 0.9580 0.5953 0.5207
O5_2 O 0.9361(5) 0.34957(17) 0.5503(2)
O6_2 O 0.9526(4) 0.33744(12) 0.6565(2)
C19_2 C 0.6634(8) 0.24430(19) 0.6173(3)
H12_2 H 0.6534 0.2249 0.6495
C20_2 C 0.7687(7) 0.27105(19) 0.6299(3)
H13_2 H 0.8300 0.2697 0.6702
C21_2 C 0.7860(7) 0.30020(17) 0.5838(3)
C22_2 C 0.6924(8) 0.30117(18) 0.5239(3)
H14 H 0.6999 0.3203 0.4910
C23_2 C 0.5895(6) 0.27278(19) 0.5157(3)
H15 H 0.5270 0.2734 0.4758
C24_2 C 0.8961(8) 0.3316(2) 0.5913(4)
H14_2 H 0.1999 0.1797 0.9910
H15_2 H 0.0270 0.2266 0.9758
O1_3 O 0.6549(9) 0.98925(19) 0.2590(4)
N1_2 N 0.5040(7) 0.87005(19) 0.0975(3)
C7_3 C 0.4925(10) 0.9051(3) 0.0659(5)
H4_3 H 0.4580 0.9047 0.0207
C8_3 C 0.5312(10) 0.9455(3) 0.0977(4)
H5_3 H 0.5225 0.9709 0.0743
C9_3 C 0.5796(8) 0.9445(2) 0.1618(4)
C10_3 C 0.6032(10) 0.9089(3) 0.1949(4)
H6_3 H 0.6496 0.9080 0.2386
C11_3 C 0.5538(11) 0.8721(3) 0.1599(5)
H7_3 H 0.5571 0.8469 0.1837
C12_3 C 0.6208(10) 0.9872(3) 0.1974(5)
Ag2 Ag 0.42511(6) 0.806627(15) 0.04063(3)
Ag3 Ag 0.92511(6) 0.306627(15) 0.04063(3)
H3_3 H 0.9502 0.5815 0.1290
C7_4 C 0.9925(10) 0.4051(3) 0.0659(5)
H4_4 H 0.9580 0.4047 0.0207
O5_3 O 0.9361(5) 0.65043(17) 0.0503(2)
O6_3 O 0.9526(4) 0.66256(12) 0.1565(2)
N3_2 N 0.5715(6) 0.75523(15) 0.0594(3)
C19_3 C 0.6634(8) 0.75570(19) 0.1173(3)
H12_3 H 0.6534 0.7751 0.1495
C20_3 C 0.7687(7) 0.72895(19) 0.1299(3)
H13_3 H 0.8300 0.7303 0.1702
C21_3 C 0.7860(7) 0.69980(17) 0.0838(3)
C22_3 C 0.6924(8) 0.69883(18) 0.0239(3)
C23_3 C 0.5895(6) 0.72722(19) 0.0157(3)
C24_3 C 0.8961(8) 0.6684(2) 0.0913(4)
H11_3 H 0.1837 0.8683 0.0395
H11_4 H 0.6837 0.3683 0.0395
Ag3_2 Ag 0.07489(6) 0.306627(15) 0.45937(3)
O1_4 O 0.3451(9) 0.98925(19) 0.2410(4)
N1_3 N 0.4960(7) 0.87005(19) 0.4025(3)
C7_5 C 0.5075(10) 0.9051(3) 0.4341(5)
H4_5 H 0.5420 0.9047 0.4793
C8_4 C 0.4688(10) 0.9455(3) 0.4023(4)
H5_4 H 0.4775 0.9709 0.4257
C9_4 C 0.4204(8) 0.9445(2) 0.3382(4)
C10_4 C 0.3968(10) 0.9089(3) 0.3051(4)
H6_4 H 0.3504 0.9080 0.2614
C11_4 C 0.4462(11) 0.8721(3) 0.3401(5)
H7_4 H 0.4429 0.8469 0.3163
C12_4 C 0.3792(10) 0.9872(3) 0.3026(5)
Ag2_2 Ag 0.57489(6) 0.806627(15) 0.45937(3)
H3_4 H 0.0498 0.5815 0.3710
C7_6 C 0.0075(10) 0.4051(3) 0.4341(5)
H4_6 H 0.0420 0.4047 0.4793
O5_4 O 0.0639(5) 0.65043(17) 0.4497(2)
O6_4 O 0.0474(4) 0.66256(12) 0.3435(2)
N3_3 N 0.4285(6) 0.75523(15) 0.4406(3)
C19_4 C 0.3366(8) 0.75570(19) 0.3827(3)
H12_4 H 0.3466 0.7751 0.3505
C20_4 C 0.2313(7) 0.72895(19) 0.3701(3)
H13_4 H 0.1700 0.7303 0.3298
C21_4 C 0.2140(7) 0.69980(17) 0.4162(3)
C22_4 C 0.3076(8) 0.69883(18) 0.4761(3)
H14_3 H 0.3001 0.6797 0.5090
C23_4 C 0.4105(6) 0.72722(19) 0.4843(3)
H15_3 H 0.4730 0.7266 0.5242
C24_4 C 0.1039(8) 0.6684(2) 0.4087(4)
N4_2 N 0.9960(7) 0.62995(19) 0.9025(3)
N5_2 N 0.9285(6) 0.74477(15) 0.9406(3)
C1_3 C 0.3740(7) 0.93860(18) 0.8163(3)
C2_3 C 0.2576(7) 0.9283(2) 0.7734(3)
H1_3 H 0.1927 0.9488 0.7577
C3_3 C 0.2404(7) 0.8860(2) 0.7542(3)
C4_3 C 0.3348(6) 0.85563(18) 0.7792(3)
H2_3 H 0.3223 0.8272 0.7665
C5_3 C 0.4480(6) 0.86846(18) 0.8234(3)
C6_3 C 0.4713(7) 0.91015(18) 0.8421(3)
H3_5 H 0.5498 0.9185 0.8710
O2_3 O 0.3952(5) 0.98044(14) 0.8405(2)
O3_3 O 0.1225(4) 0.87239(12) 0.7100(2)
O4_3 O 0.1929(6) 0.90135(18) 0.6273(3)
H10_3 H 0.0020 0.8972 0.5256
C18_3 C 0.1121(9) 0.8822(2) 0.6470(3)
O5_5 O 0.5639(5) 0.84957(17) 0.9497(2)
O6_5 O 0.5474(4) 0.83744(12) 0.8435(2)
C19_5 C 0.8366(8) 0.74430(19) 0.8827(3)
H12_5 H 0.8466 0.7249 0.8505
C20_5 C 0.7313(7) 0.77105(19) 0.8701(3)
H13_5 H 0.6700 0.7697 0.8298
C21_5 C 0.7140(7) 0.80020(17) 0.9162(3)
C22_5 C 0.8076(8) 0.80117(18) 0.9761(3)
C23_5 C 0.9105(6) 0.77278(19) 0.9843(3)
C24_5 C 0.6039(8) 0.8316(2) 0.9087(4)
N2_3 N 0.7658(6) 0.83084(18) 0.5228(3)
C13_3 C 0.8003(8) 0.8184(2) 0.5851(4)
H8_3 H 0.7483 0.7982 0.6003
C14_3 C 0.9104(7) 0.8346(2) 0.6276(3)
H9_3 H 0.9320 0.8258 0.6712
C15_3 C 0.9882(6) 0.86360(19) 0.6056(3)
C16_3 C 0.9524(8) 0.8769(2) 0.5421(4)
C17_3 C 0.8410(8) 0.8593(2) 0.5040(3)
H11_5 H 0.8163 0.8683 0.4605
C1_4 C 0.8740(7) 0.43860(18) 0.8163(3)
C2_4 C 0.7576(7) 0.4283(2) 0.7734(3)
H1_4 H 0.6927 0.4488 0.7577
C3_4 C 0.7404(7) 0.3860(2) 0.7542(3)
C4_4 C 0.8348(6) 0.35563(18) 0.7792(3)
H2_4 H 0.8223 0.3272 0.7665
C5_4 C 0.9480(6) 0.36846(18) 0.8234(3)
C6_4 C 0.9713(7) 0.41015(18) 0.8421(3)
O1_5 O 0.8451(9) 0.51075(19) 0.7410(4)
O2_4 O 0.8952(5) 0.48044(14) 0.8405(2)
C8_5 C 0.9688(10) 0.5545(3) 0.9023(4)
H5_5 H 0.9775 0.5291 0.9257
C9_5 C 0.9204(8) 0.5555(2) 0.8382(4)
C10_5 C 0.8968(10) 0.5911(3) 0.8051(4)
H6_5 H 0.8504 0.5920 0.7614
C11_5 C 0.9462(11) 0.6279(3) 0.8401(5)
H7_5 H 0.9429 0.6531 0.8163
C12_5 C 0.8792(10) 0.5128(3) 0.8026(5)
O3_4 O 0.6225(4) 0.37239(12) 0.7100(2)
O4_4 O 0.6929(6) 0.40135(18) 0.6273(3)
N2_4 N 0.2658(6) 0.33084(18) 0.5228(3)
C13_4 C 0.3003(8) 0.3184(2) 0.5851(4)
H8_4 H 0.2483 0.2982 0.6003
C14_4 C 0.4104(7) 0.3346(2) 0.6276(3)
H9_4 H 0.4320 0.3258 0.6712
C15_4 C 0.4882(6) 0.36360(19) 0.6056(3)
C16_4 C 0.4524(8) 0.3769(2) 0.5421(4)
H10_4 H 0.5020 0.3972 0.5256
C17_4 C 0.3410(8) 0.3593(2) 0.5040(3)
H11_6 H 0.3163 0.3683 0.4605
C18_4 C 0.6121(9) 0.3822(2) 0.6470(3)
C1_5 C 0.3740(7) 0.06140(18) 0.3163(3)
C2_5 C 0.2576(7) 0.0717(2) 0.2734(3)
H1_5 H 0.1927 0.0512 0.2577
C3_5 C 0.2404(7) 0.1140(2) 0.2542(3)
C4_5 C 0.3348(6) 0.14437(18) 0.2792(3)
H2_5 H 0.3223 0.1728 0.2665
C5_5 C 0.4480(6) 0.13154(18) 0.3234(3)
C6_5 C 0.4713(7) 0.08985(18) 0.3421(3)
H3_6 H 0.5498 0.0815 0.3710
O2_5 O 0.3952(5) 0.01956(14) 0.3405(2)
O3_5 O 0.1225(4) 0.12761(12) 0.2100(2)
O4_5 O 0.1929(6) 0.09865(18) 0.1273(3)
H10_5 H 0.0020 0.1028 0.0256
C18_5 C 0.1121(9) 0.1178(2) 0.1470(3)
O5_6 O 0.5639(5) 0.15043(17) 0.4497(2)
O6_6 O 0.5474(4) 0.16256(12) 0.3435(2)
N3_4 N 0.9285(6) 0.25523(15) 0.4406(3)
C19_6 C 0.8366(8) 0.25570(19) 0.3827(3)
H12_6 H 0.8466 0.2751 0.3505
C20_6 C 0.7313(7) 0.22895(19) 0.3701(3)
H13_6 H 0.6700 0.2303 0.3298
C21_6 C 0.7140(7) 0.19980(17) 0.4162(3)
C22_6 C 0.8076(8) 0.19883(18) 0.4761(3)
H14_4 H 0.8001 0.1797 0.5090
C23_6 C 0.9105(6) 0.22722(19) 0.4843(3)
H15_4 H 0.9730 0.2266 0.5242
C24_6 C 0.6039(8) 0.1684(2) 0.4087(4)
C1_6 C 0.8740(7) 0.56140(18) 0.3163(3)
C2_6 C 0.7576(7) 0.5717(2) 0.2734(3)
H1_6 H 0.6927 0.5512 0.2577
C3_6 C 0.7404(7) 0.6140(2) 0.2542(3)
C4_6 C 0.8348(6) 0.64437(18) 0.2792(3)
H2_6 H 0.8223 0.6728 0.2665
C5_6 C 0.9480(6) 0.63154(18) 0.3234(3)
C6_6 C 0.9713(7) 0.58985(18) 0.3421(3)
O1_6 O 0.8451(9) 0.48925(19) 0.2410(4)
O2_6 O 0.8952(5) 0.51956(14) 0.3405(2)
N1_4 N 0.9960(7) 0.37005(19) 0.4025(3)
C8_6 C 0.9688(10) 0.4455(3) 0.4023(4)
H5_6 H 0.9775 0.4709 0.4257
C9_6 C 0.9204(8) 0.4445(2) 0.3382(4)
C10_6 C 0.8968(10) 0.4089(3) 0.3051(4)
H6_6 H 0.8504 0.4080 0.2614
C11_6 C 0.9462(11) 0.3721(3) 0.3401(5)
H7_6 H 0.9429 0.3469 0.3163
C12_6 C 0.8792(10) 0.4872(3) 0.3026(5)
O3_6 O 0.6225(4) 0.62761(12) 0.2100(2)
O4_6 O 0.6929(6) 0.59865(18) 0.1273(3)
N2_5 N 0.2658(6) 0.66916(18) 0.0228(3)
C13_5 C 0.3003(8) 0.6816(2) 0.0851(4)
H8_5 H 0.2483 0.7018 0.1003
C14_5 C 0.4104(7) 0.6654(2) 0.1276(3)
H9_5 H 0.4320 0.6742 0.1712
C15_5 C 0.4882(6) 0.63640(19) 0.1056(3)
C16_5 C 0.4524(8) 0.6231(2) 0.0421(4)
H10_6 H 0.5020 0.6028 0.0256
C17_5 C 0.3410(8) 0.6407(2) 0.0040(3)
C18_6 C 0.6121(9) 0.6178(2) 0.1470(3)
N2_6 N 0.7658(6) 0.16916(18) 0.0228(3)
C13_6 C 0.8003(8) 0.1816(2) 0.0851(4)
H8_6 H 0.7483 0.2018 0.1003
C14_6 C 0.9104(7) 0.1654(2) 0.1276(3)
H9_6 H 0.9320 0.1742 0.1712
C15_6 C 0.9882(6) 0.13640(19) 0.1056(3)
C16_6 C 0.9524(8) 0.1231(2) 0.0421(4)
C17_6 C 0.8410(8) 0.1407(2) 0.0040(3)
Ag1_3 Ag 0.57489(6) 0.193373(15) 0.95937(3)
H11_7 H 0.8163 0.1317 0.9605
N4_3 N 0.4960(7) 0.12995(19) 0.9025(3)
N5_3 N 0.4285(6) 0.24477(15) 0.9406(3)
Ag1_4 Ag 0.07489(6) 0.693373(15) 0.95937(3)
H11_8 H 0.3163 0.6317 0.9605
O1_7 O 0.3451(9) 0.01075(19) 0.7410(4)
C7_7 C 0.5075(10) 0.0949(3) 0.9341(5)
H4_7 H 0.5420 0.0953 0.9793
C8_7 C 0.4688(10) 0.0545(3) 0.9023(4)
H5_7 H 0.4775 0.0291 0.9257
C9_7 C 0.4204(8) 0.0555(2) 0.8382(4)
C10_7 C 0.3968(10) 0.0911(3) 0.8051(4)
H6_7 H 0.3504 0.0920 0.7614
C11_7 C 0.4462(11) 0.1279(3) 0.8401(5)
H7_7 H 0.4429 0.1531 0.8163
C12_7 C 0.3792(10) 0.0128(3) 0.8026(5)
H3_7 H 0.0498 0.4185 0.8710
C7_8 C 0.0075(10) 0.5949(3) 0.9341(5)
H4_8 H 0.0420 0.5953 0.9793
O5_7 O 0.0639(5) 0.34957(17) 0.9497(2)
O6_7 O 0.0474(4) 0.33744(12) 0.8435(2)
C19_7 C 0.3366(8) 0.24430(19) 0.8827(3)
H12_7 H 0.3466 0.2249 0.8505
C20_7 C 0.2313(7) 0.27105(19) 0.8701(3)
H13_7 H 0.1700 0.2697 0.8298
C21_7 C 0.2140(7) 0.30020(17) 0.9162(3)
C22_7 C 0.3076(8) 0.30117(18) 0.9761(3)
C23_7 C 0.4105(6) 0.27278(19) 0.9843(3)
C24_7 C 0.1039(8) 0.3316(2) 0.9087(4)
N4_4 N 0.0040(7) 0.62995(19) 0.5975(3)
N5_4 N 0.0715(6) 0.74477(15) 0.5594(3)
C1_7 C 0.6260(7) 0.93860(18) 0.6837(3)
C2_7 C 0.7424(7) 0.9283(2) 0.7266(3)
H1_7 H 0.8073 0.9488 0.7423
C3_7 C 0.7596(7) 0.8860(2) 0.7458(3)
C4_7 C 0.6652(6) 0.85563(18) 0.7208(3)
H2_7 H 0.6777 0.8272 0.7335
C5_7 C 0.5520(6) 0.86846(18) 0.6766(3)
C6_7 C 0.5287(7) 0.91015(18) 0.6579(3)
H3_8 H 0.4502 0.9185 0.6290
O2_7 O 0.6048(5) 0.98044(14) 0.6595(2)
O3_7 O 0.8775(4) 0.87239(12) 0.7900(2)
O4_7 O 0.8071(6) 0.90135(18) 0.8727(3)
H10_7 H 0.9980 0.8972 0.9744
C18_7 C 0.8879(9) 0.8822(2) 0.8530(3)
O5_8 O 0.4361(5) 0.84957(17) 0.5503(2)
O6_8 O 0.4526(4) 0.83744(12) 0.6565(2)
C19_8 C 0.1634(8) 0.74430(19) 0.6173(3)
H12_8 H 0.1534 0.7249 0.6495
C20_8 C 0.2687(7) 0.77105(19) 0.6299(3)
H13_8 H 0.3300 0.7697 0.6702
C21_8 C 0.2860(7) 0.80020(17) 0.5838(3)
C22_8 C 0.1924(8) 0.80117(18) 0.5239(3)
H14_5 H 0.1999 0.8203 0.4910
C23_8 C 0.0895(6) 0.77278(19) 0.5157(3)
H15_5 H 0.0270 0.7734 0.4758
C24_8 C 0.3961(8) 0.8316(2) 0.5913(4)
C1_8 C 0.1260(7) 0.43860(18) 0.6837(3)
C2_8 C 0.2424(7) 0.4283(2) 0.7266(3)
H1_8 H 0.3073 0.4488 0.7423
C3_8 C 0.2596(7) 0.3860(2) 0.7458(3)
C4_8 C 0.1652(6) 0.35563(18) 0.7208(3)
H2_8 H 0.1777 0.3272 0.7335
C5_8 C 0.0520(6) 0.36846(18) 0.6766(3)
C6_8 C 0.0287(7) 0.41015(18) 0.6579(3)
O1_8 O 0.1549(9) 0.51075(19) 0.7590(4)
O2_8 O 0.1048(5) 0.48044(14) 0.6595(2)
C8_8 C 0.0312(10) 0.5545(3) 0.5977(4)
H5_8 H 0.0225 0.5291 0.5743
C9_8 C 0.0796(8) 0.5555(2) 0.6618(4)
C10_8 C 0.1032(10) 0.5911(3) 0.6949(4)
H6_8 H 0.1496 0.5920 0.7386
C11_8 C 0.0538(11) 0.6279(3) 0.6599(5)
H7_8 H 0.0571 0.6531 0.6837
C12_8 C 0.1208(10) 0.5128(3) 0.6974(5)
O3_8 O 0.3775(4) 0.37239(12) 0.7900(2)
O4_8 O 0.3071(6) 0.40135(18) 0.8727(3)
N2_7 N 0.7342(6) 0.33084(18) 0.9772(3)
C13_7 C 0.6997(8) 0.3184(2) 0.9149(4)
H8_7 H 0.7517 0.2982 0.8997
C14_7 C 0.5896(7) 0.3346(2) 0.8724(3)
H9_7 H 0.5680 0.3258 0.8288
C15_7 C 0.5118(6) 0.36360(19) 0.8944(3)
C16_7 C 0.5476(8) 0.3769(2) 0.9579(4)
H10_8 H 0.4980 0.3972 0.9744
C17_7 C 0.6590(8) 0.3593(2) 0.9960(3)
C18_8 C 0.3879(9) 0.3822(2) 0.8530(3)
H14_6 H 0.6999 0.6797 0.9910
H15_6 H 0.5270 0.7266 0.9758
H14_7 H 0.8001 0.8203 0.0090
H15_7 H 0.9730 0.7734 0.0242
N2_8 N 0.2342(6) 0.83084(18) 0.9772(3)
C13_8 C 0.1997(8) 0.8184(2) 0.9149(4)
H8_8 H 0.2517 0.7982 0.8997
C14_8 C 0.0896(7) 0.8346(2) 0.8724(3)
H9_8 H 0.0680 0.8258 0.8288
C15_8 C 0.0118(6) 0.86360(19) 0.8944(3)
C16_8 C 0.0476(8) 0.8769(2) 0.9579(4)
C17_8 C 0.1590(8) 0.8593(2) 0.9960(3)
H14_8 H 0.3001 0.3203 0.0090
H15_8 H 0.4730 0.2734 0.0242
loop_
_geom_bond_atom_site_label_1
_geom_bond_atom_site_label_2
_geom_bond_site_symmetry_1
_geom_bond_site_symmetry_2
Ag1 N2 1_555 1_555
N2 C13 1_555 1_555
C13 H8 1_555 1_555
C14 C13 1_555 1_555
H9 C14 1_555 1_555
C15 C14 1_555 1_555
C16 C15 1_555 1_555
C17 N2 1_555 1_555
H11 C17 1_555 1_555
N4 Ag1 1_555 1_555
N5 Ag1 1_555 1_555
C16 C17 1_555 1_555
C1 C2 1_555 1_555
C2 H1 1_555 1_555
C3 C2 1_555 1_555
C4 C3 1_555 1_555
H2 C4 1_555 1_555
C5 C4 1_555 1_555
C6 C1 1_555 1_555
H3 C6 1_555 1_555
O2 C1 1_555 1_555
O3 C3 1_555 1_555
O4 C18 1_555 1_555
C18 O3 1_555 1_555
O5 C24 1_555 1_555
O6 C5 1_555 1_555
N3 C19 1_555 1_555
C19 H12 1_555 1_555
C20 C19 1_555 1_555
H13 C20 1_555 1_555
C21 C20 1_555 1_555
C22 C21 1_555 1_555
C23 N3 1_555 1_555
C24 O6 1_555 1_555
C5 C6 1_555 1_555
C21 C24 1_555 1_555
C22 C23 1_555 1_555
Ag1_2 N2_2 1_555 1_555
C1_2 C2_2 1_555 1_555
C2_2 H1_2 1_555 1_555
C3_2 C2_2 1_555 1_555
C4_2 C3_2 1_555 1_555
H2_2 C4_2 1_555 1_555
C5_2 C4_2 1_555 1_555
C6_2 C1_2 1_555 1_555
O1 C12 1_555 1_555
O2_2 C1_2 1_555 1_555
H5 C8 1_555 1_555
C9 C8 1_555 1_555
C10 C9 1_555 1_555
H6 C10 1_555 1_555
C11 N1 1_555 1_555
H7 C11 1_555 1_555
C12 O2_2 1_555 1_555
O3_2 C3_2 1_555 1_555
O4_2 C18_2 1_555 1_555
N2_2 C13_2 1_555 1_555
C13_2 H8_2 1_555 1_555
C14_2 C13_2 1_555 1_555
H9_2 C14_2 1_555 1_555
C15_2 C14_2 1_555 1_555
C16_2 C15_2 1_555 1_555
H10_2 C16_2 1_555 1_555
C17_2 N2_2 1_555 1_555
H11_2 C17_2 1_555 1_555
C18_2 O3_2 1_555 1_555
C5_2 C6_2 1_555 1_555
C9 C12 1_555 1_555
C10 C11 1_555 1_555
C15_2 C18_2 1_555 1_555
C16_2 C17_2 1_555 1_555
O1_2 C12_2 1_555 1_555
N4 C7 1_555 1_555
C7 H4 1_555 1_555
C8_2 C7 1_555 1_555
H5_2 C8_2 1_555 1_555
C9_2 C8_2 1_555 1_555
C10_2 C9_2 1_555 1_555
H6_2 C10_2 1_555 1_555
C11_2 N4 1_555 1_555
H7_2 C11_2 1_555 1_555
C9_2 C12_2 1_555 1_555
C10_2 C11_2 1_555 1_555
C7_2 H4_2 1_555 1_555
O5_2 C24_2 1_555 1_555
N5 C19_2 1_555 1_555
C19_2 H12_2 1_555 1_555
C20_2 C19_2 1_555 1_555
H13_2 C20_2 1_555 1_555
C21_2 C20_2 1_555 1_555
C22_2 C21_2 1_555 1_555
H14 C22_2 1_555 1_555
C23_2 N5 1_555 1_555
H15 C23_2 1_555 1_555
C24_2 O6_2 1_555 1_555
C21_2 C24_2 1_555 1_555
C22_2 C23_2 1_555 1_555
O1_3 C12_3 1_555 1_555
N1_2 C7_3 1_555 1_555
C7_3 H4_3 1_555 1_555
C8_3 C7_3 1_555 1_555
H5_3 C8_3 1_555 1_555
C9_3 C8_3 1_555 1_555
C10_3 C9_3 1_555 1_555
H6_3 C10_3 1_555 1_555
C11_3 N1_2 1_555 1_555
H7_3 C11_3 1_555 1_555
Ag2 N1_2 1_555 1_555
C9_3 C12_3 1_555 1_555
C10_3 C11_3 1_555 1_555
C7_4 H4_4 1_555 1_555
O5_3 C24_3 1_555 1_555
N3_2 C19_3 1_555 1_555
C19_3 H12_3 1_555 1_555
C20_3 C19_3 1_555 1_555
H13_3 C20_3 1_555 1_555
C21_3 C20_3 1_555 1_555
C22_3 C21_3 1_555 1_555
C23_3 N3_2 1_555 1_555
C24_3 O6_3 1_555 1_555
Ag2 N3_2 1_555 1_555
C21_3 C24_3 1_555 1_555
C22_3 C23_3 1_555 1_555
O1_4 C12_4 1_555 1_555
N1_3 C7_5 1_555 1_555
C7_5 H4_5 1_555 1_555
C8_4 C7_5 1_555 1_555
H5_4 C8_4 1_555 1_555
C9_4 C8_4 1_555 1_555
C10_4 C9_4 1_555 1_555
H6_4 C10_4 1_555 1_555
C11_4 N1_3 1_555 1_555
H7_4 C11_4 1_555 1_555
Ag2_2 N1_3 1_555 1_555
C9_4 C12_4 1_555 1_555
C10_4 C11_4 1_555 1_555
C7_6 H4_6 1_555 1_555
O5_4 C24_4 1_555 1_555
N3_3 C19_4 1_555 1_555
C19_4 H12_4 1_555 1_555
C20_4 C19_4 1_555 1_555
H13_4 C20_4 1_555 1_555
C21_4 C20_4 1_555 1_555
C22_4 C21_4 1_555 1_555
H14_3 C22_4 1_555 1_555
C23_4 N3_3 1_555 1_555
H15_3 C23_4 1_555 1_555
C24_4 O6_4 1_555 1_555
Ag2_2 N3_3 1_555 1_555
C21_4 C24_4 1_555 1_555
C22_4 C23_4 1_555 1_555
C1_3 C2_3 1_555 1_555
C2_3 H1_3 1_555 1_555
C3_3 C2_3 1_555 1_555
C4_3 C3_3 1_555 1_555
H2_3 C4_3 1_555 1_555
C5_3 C4_3 1_555 1_555
C6_3 C1_3 1_555 1_555
H3_5 C6_3 1_555 1_555
O2_3 C1_3 1_555 1_555
O3_3 C3_3 1_555 1_555
O4_3 C18_3 1_555 1_555
C18_3 O3_3 1_555 1_555
O5_5 C24_5 1_555 1_555
O6_5 C5_3 1_555 1_555
N5_2 C19_5 1_555 1_555
C19_5 H12_5 1_555 1_555
C20_5 C19_5 1_555 1_555
H13_5 C20_5 1_555 1_555
C21_5 C20_5 1_555 1_555
C22_5 C21_5 1_555 1_555
C23_5 N5_2 1_555 1_555
C24_5 O6_5 1_555 1_555
C5_3 C6_3 1_555 1_555
C21_5 C24_5 1_555 1_555
C22_5 C23_5 1_555 1_555
Ag2_2 N2_3 1_555 1_555
N2_3 C13_3 1_555 1_555
C13_3 H8_3 1_555 1_555
C14_3 C13_3 1_555 1_555
H9_3 C14_3 1_555 1_555
C15_3 C14_3 1_555 1_555
C16_3 C15_3 1_555 1_555
C17_3 N2_3 1_555 1_555
H11_5 C17_3 1_555 1_555
C16_3 C17_3 1_555 1_555
Ag3_2 N2_4 1_555 1_555
C1_4 C2_4 1_555 1_555
C2_4 H1_4 1_555 1_555
C3_4 C2_4 1_555 1_555
C4_4 C3_4 1_555 1_555
H2_4 C4_4 1_555 1_555
C5_4 C4_4 1_555 1_555
C6_4 C1_4 1_555 1_555
O1_5 C12_5 1_555 1_555
O2_4 C1_4 1_555 1_555
H5_5 C8_5 1_555 1_555
C9_5 C8_5 1_555 1_555
C10_5 C9_5 1_555 1_555
H6_5 C10_5 1_555 1_555
C11_5 N4_2 1_555 1_555
H7_5 C11_5 1_555 1_555
C12_5 O2_4 1_555 1_555
O3_4 C3_4 1_555 1_555
O4_4 C18_4 1_555 1_555
N2_4 C13_4 1_555 1_555
C13_4 H8_4 1_555 1_555
C14_4 C13_4 1_555 1_555
H9_4 C14_4 1_555 1_555
C15_4 C14_4 1_555 1_555
C16_4 C15_4 1_555 1_555
H10_4 C16_4 1_555 1_555
C17_4 N2_4 1_555 1_555
H11_6 C17_4 1_555 1_555
C18_4 O3_4 1_555 1_555
C5_4 C6_4 1_555 1_555
C9_5 C12_5 1_555 1_555
C10_5 C11_5 1_555 1_555
C15_4 C18_4 1_555 1_555
C16_4 C17_4 1_555 1_555
C1_5 C2_5 1_555 1_555
C2_5 H1_5 1_555 1_555
C3_5 C2_5 1_555 1_555
C4_5 C3_5 1_555 1_555
H2_5 C4_5 1_555 1_555
C5_5 C4_5 1_555 1_555
C6_5 C1_5 1_555 1_555
H3_6 C6_5 1_555 1_555
O2_5 C1_5 1_555 1_555
O3_5 C3_5 1_555 1_555
O4_5 C18_5 1_555 1_555
C18_5 O3_5 1_555 1_555
O5_6 C24_6 1_555 1_555
O6_6 C5_5 1_555 1_555
N3_4 C19_6 1_555 1_555
C19_6 H12_6 1_555 1_555
C20_6 C19_6 1_555 1_555
H13_6 C20_6 1_555 1_555
C21_6 C20_6 1_555 1_555
C22_6 C21_6 1_555 1_555
H14_4 C22_6 1_555 1_555
C23_6 N3_4 1_555 1_555
H15_4 C23_6 1_555 1_555
C24_6 O6_6 1_555 1_555
C5_5 C6_5 1_555 1_555
C21_6 C24_6 1_555 1_555
C22_6 C23_6 1_555 1_555
C1_6 C2_6 1_555 1_555
C2_6 H1_6 1_555 1_555
C3_6 C2_6 1_555 1_555
C4_6 C3_6 1_555 1_555
H2_6 C4_6 1_555 1_555
C5_6 C4_6 1_555 1_555
C6_6 C1_6 1_555 1_555
O1_6 C12_6 1_555 1_555
O2_6 C1_6 1_555 1_555
H5_6 C8_6 1_555 1_555
C9_6 C8_6 1_555 1_555
C10_6 C9_6 1_555 1_555
H6_6 C10_6 1_555 1_555
C11_6 N1_4 1_555 1_555
H7_6 C11_6 1_555 1_555
C12_6 O2_6 1_555 1_555
O3_6 C3_6 1_555 1_555
O4_6 C18_6 1_555 1_555
N2_5 C13_5 1_555 1_555
C13_5 H8_5 1_555 1_555
C14_5 C13_5 1_555 1_555
H9_5 C14_5 1_555 1_555
C15_5 C14_5 1_555 1_555
C16_5 C15_5 1_555 1_555
H10_6 C16_5 1_555 1_555
C17_5 N2_5 1_555 1_555
C18_6 O3_6 1_555 1_555
C5_6 C6_6 1_555 1_555
C9_6 C12_6 1_555 1_555
C10_6 C11_6 1_555 1_555
C15_5 C18_6 1_555 1_555
C16_5 C17_5 1_555 1_555
N2_6 C13_6 1_555 1_555
C13_6 H8_6 1_555 1_555
C14_6 C13_6 1_555 1_555
H9_6 C14_6 1_555 1_555
C15_6 C14_6 1_555 1_555
C16_6 C15_6 1_555 1_555
C17_6 N2_6 1_555 1_555
C16_6 C17_6 1_555 1_555
N4_3 Ag1_3 1_555 1_555
N5_3 Ag1_3 1_555 1_555
O1_7 C12_7 1_555 1_555
N4_3 C7_7 1_555 1_555
C7_7 H4_7 1_555 1_555
C8_7 C7_7 1_555 1_555
H5_7 C8_7 1_555 1_555
C9_7 C8_7 1_555 1_555
C10_7 C9_7 1_555 1_555
H6_7 C10_7 1_555 1_555
C11_7 N4_3 1_555 1_555
H7_7 C11_7 1_555 1_555
C9_7 C12_7 1_555 1_555
C10_7 C11_7 1_555 1_555
C7_8 H4_8 1_555 1_555
O5_7 C24_7 1_555 1_555
N5_3 C19_7 1_555 1_555
C19_7 H12_7 1_555 1_555
C20_7 C19_7 1_555 1_555
H13_7 C20_7 1_555 1_555
C21_7 C20_7 1_555 1_555
C22_7 C21_7 1_555 1_555
C23_7 N5_3 1_555 1_555
C24_7 O6_7 1_555 1_555
C21_7 C24_7 1_555 1_555
C22_7 C23_7 1_555 1_555
C1_7 C2_7 1_555 1_555
C2_7 H1_7 1_555 1_555
C3_7 C2_7 1_555 1_555
C4_7 C3_7 1_555 1_555
H2_7 C4_7 1_555 1_555
C5_7 C4_7 1_555 1_555
C6_7 C1_7 1_555 1_555
H3_8 C6_7 1_555 1_555
O2_7 C1_7 1_555 1_555
O3_7 C3_7 1_555 1_555
O4_7 C18_7 1_555 1_555
C18_7 O3_7 1_555 1_555
O5_8 C24_8 1_555 1_555
O6_8 C5_7 1_555 1_555
N5_4 C19_8 1_555 1_555
C19_8 H12_8 1_555 1_555
C20_8 C19_8 1_555 1_555
H13_8 C20_8 1_555 1_555
C21_8 C20_8 1_555 1_555
C22_8 C21_8 1_555 1_555
H14_5 C22_8 1_555 1_555
C23_8 N5_4 1_555 1_555
H15_5 C23_8 1_555 1_555
C24_8 O6_8 1_555 1_555
C5_7 C6_7 1_555 1_555
C21_8 C24_8 1_555 1_555
C22_8 C23_8 1_555 1_555
C1_8 C2_8 1_555 1_555
C2_8 H1_8 1_555 1_555
C3_8 C2_8 1_555 1_555
C4_8 C3_8 1_555 1_555
H2_8 C4_8 1_555 1_555
C5_8 C4_8 1_555 1_555
C6_8 C1_8 1_555 1_555
O1_8 C12_8 1_555 1_555
O2_8 C1_8 1_555 1_555
H5_8 C8_8 1_555 1_555
C9_8 C8_8 1_555 1_555
C10_8 C9_8 1_555 1_555
H6_8 C10_8 1_555 1_555
C11_8 N4_4 1_555 1_555
H7_8 C11_8 1_555 1_555
C12_8 O2_8 1_555 1_555
O3_8 C3_8 1_555 1_555
O4_8 C18_8 1_555 1_555
N2_7 C13_7 1_555 1_555
C13_7 H8_7 1_555 1_555
C14_7 C13_7 1_555 1_555
H9_7 C14_7 1_555 1_555
C15_7 C14_7 1_555 1_555
C16_7 C15_7 1_555 1_555
H10_8 C16_7 1_555 1_555
C17_7 N2_7 1_555 1_555
C18_8 O3_8 1_555 1_555
C5_8 C6_8 1_555 1_555
C9_8 C12_8 1_555 1_555
C10_8 C11_8 1_555 1_555
C15_7 C18_8 1_555 1_555
C16_7 C17_7 1_555 1_555
N2_8 C13_8 1_555 1_555
C13_8 H8_8 1_555 1_555
C14_8 C13_8 1_555 1_555
H9_8 C14_8 1_555 1_555
C15_8 C14_8 1_555 1_555
C16_8 C15_8 1_555 1_555
C17_8 N2_8 1_555 1_555
C16_8 C17_8 1_555 1_555

#END
