
###############################################################################
#
# This file contains modified crystal structure data generated from the
# MOF subset of the Cambridge Structural Database (CSD) v543 
# hosted by the Cambridge Crystallographic Data Centre (CCDC).
#
# This work is licensed under the Creative Commons
# Attribution-NonCommercial-ShareAlike 4.0 International License.
# To view a copy of this license, visit
# http://creativecommons.org/licenses/by-nc-sa/4.0/
# or send a letter to
# Creative Commons, PO Box 1866, Mountain View, CA 94042, USA.
#
# CIF created using the CSD Python API on 29 September 2022
# The structure has been converted into the P1 space group
# The structure has a 3D framework
# The original CSD entry WIVRIE is in the orthorhombic crystal system
# The framework has been calculated to contain at least 10.0% void space
# The void calculation uses a probe of radius 1.32A, grid spacing 0.4
# H atom positions have been added when not included in the experimental data
#
###############################################################################

data_WIVRIE
_chemical_formula_moiety         '(C528 H448 Cd24 O216)n'
_symmetry_cell_setting           triclinic
_symmetry_space_group_name_H-M   'P 1'
_symmetry_Int_Tables_number      1
_space_group_name_Hall           'P 1'
loop_
_symmetry_equiv_pos_site_id
_symmetry_equiv_pos_as_xyz
1 x,y,z
_cell_length_a                   37.322(13)
_cell_length_b                   72.64(2)
_cell_length_c                   7.074(2)
_cell_angle_alpha                90
_cell_angle_beta                 90
_cell_angle_gamma                90
_cell_volume                     19178.1
loop_
_atom_site_label
_atom_site_type_symbol
_atom_site_fract_x
_atom_site_fract_y
_atom_site_fract_z
H16 H 0.1586 0.1133 0.0906
C25 C 0.1348(4) 0.14856(18) 0.026(2)
O8 O 0.1334(3) 0.14660(15) 0.2060(17)
Cd5 Cd 0.131444(16) 0.180493(10) 0.24306(10)
C1 C 0.1546(3) 0.06193(18) 0.375(2)
C2 C 0.1781(3) 0.06366(19) 0.1976(19)
H1 H 0.1752 0.0530 0.1162
H2 H 0.1720 0.0747 0.1268
C3 C 0.2403(3) 0.06633(17) 0.1375(17)
C7 C 0.3039(4) 0.06668(16) 0.0897(18)
H5 H 0.3270 0.0659 0.1383
C8 C 0.2745(3) 0.06510(17) 0.2097(18)
H6 H 0.2780 0.0632 0.3385
C10 C 0.1625(4) 0.0410(2) 0.439(2)
H7 H 0.1537 0.0324 0.3454
H8 H 0.1880 0.0391 0.4567
C11 C 0.1404(5) 0.0206(2) 0.654(3)
C12 C 0.1458(4) 0.0056(2) 0.535(3)
H9 H 0.1528 0.0075 0.4101
C15 C 0.1248(4) 0.0001(2) 0.907(3)
C16 C 0.1299(5) 0.0178(3) 0.840(3)
H12 H 0.1263 0.0278 0.9195
C18 C 0.1630(4) 0.07352(18) 0.555(2)
H13 H 0.1453 0.0715 0.6538
H14 H 0.1867 0.0709 0.6041
C19 C 0.1552(6) 0.1043(3) 0.644(3)
C20 C 0.1613(6) 0.1016(3) 0.834(3)
H15 H 0.1703 0.0903 0.8756
C21 C 0.1543(5) 0.1153(3) 0.963(3)
C22 C 0.1409(5) 0.1321(2) 0.902(3)
C23 C 0.1350(5) 0.1348(2) 0.711(3)
H17 H 0.1263 0.1460 0.6687
C24 C 0.1417(5) 0.1210(3) 0.583(3)
H18 H 0.1373 0.1230 0.4555
C26 C 0.1140(4) 0.0648(2) 0.322(3)
H19 H 0.0995 0.0572 0.4044
H20 H 0.1076 0.0775 0.3455
C27 C 0.0707(5) 0.0616(3) 0.081(3)
C28 C 0.0439(6) 0.0693(3) 0.188(4)
H21 H 0.0492 0.0740 0.3071
C29 C 0.0093(7) 0.0699(3) 0.122(4)
O1 O 0.21417(18) 0.06472(10) 0.2672(12)
O4 O 0.1445(3) 0.03929(17) 0.605(2)
O7 O 0.1606(3) 0.09172(17) 0.4778(19)
O9 O 0.1337(2) 0.16441(10) 0.9562(12)
O10 O 0.1062(3) 0.06083(16) 0.1474(18)
Cd2 Cd 0.40744(2) 0.062730(13) 0.03402(11)
O17 O 0.3739(2) 0.04688(11) 0.2645(14)
O20 O 0.3837(2) 0.08559(10) 0.2062(12)
O22 O 0.4554(3) 0.06137(15) 0.2045(18)
Cd8 Cd 0.15744(2) 0.187270(13) 0.78402(11)
Cd1 Cd 0.381444(16) 0.069507(10) 0.49306(10)
C4 C 0.2352(4) 0.0690(2) 0.945(2)
H3 H 0.2121 0.0698 0.8967
C5 C 0.2644(4) 0.0705(2) 0.826(2)
H4 H 0.2609 0.0723 0.6970
C6 C 0.2987(3) 0.06943(15) 0.8968(17)
C9 C 0.3311(2) 0.06798(13) 0.7638(17)
C30 C 0.0010(5) 0.0628(3) 0.946(3)
C31 C 0.0280(5) 0.0551(3) 0.838(3)
H23 H 0.0227 0.0503 0.7193
C32 C 0.0624(6) 0.0545(3) 0.904(3)
H24 H 0.0804 0.0494 0.8295
O2 O 0.36160(15) 0.06743(9) 0.8126(9)
O3 O 0.32280(19) 0.06945(12) 0.5833(13)
O13 O 0.4229(3) 0.03721(13) 0.8698(14)
O14 O 0.4419(3) 0.08040(18) 0.8422(18)
O15 O 0.3827(2) 0.03471(12) 0.5329(14)
O18 O 0.3834(3) 0.10340(15) 0.4560(17)
O21 O 0.4403(3) 0.06752(14) 0.5211(19)
H25 H 0.429408 0.0407022 0.738499
H26 H 0.44372 0.0312009 0.931695
H27 H 0.430933 0.0927935 0.829538
H28 H 0.466251 0.0815975 0.897402
H11 H 0.1178 0.9982 0.0315
O5 O 0.1173(2) 0.96529(12) 0.0329(14)
C13 C 0.1407(4) 0.9878(2) 0.602(2)
H10 H 0.1443 0.9778 0.5225
C14 C 0.1302(4) 0.98504(19) 0.787(2)
C17 C 0.1253(3) 0.96701(18) 0.869(2)
O6 O 0.1261(2) 0.95312(11) 0.7645(14)
Cd4 Cd 0.118556(16) 0.930493(10) 0.99306(10)
Cd7 Cd 0.09256(2) 0.937270(13) 0.53402(11)
H22 H 0.9914 0.0751 0.1960
O11 O 0.9403(3) 0.06752(14) 0.0211(19)
C33 C 0.9632(5) 0.0631(2) 0.886(3)
O12 O 0.9554(3) 0.06137(15) 0.7045(18)
Cd3 Cd 0.881444(16) 0.069507(10) 0.99306(10)
Cd6 Cd 0.90744(2) 0.062730(13) 0.53402(11)
H22_2 H 0.0086 0.9249 0.1960
O11_2 O 0.0597(3) 0.93248(14) 0.0211(19)
C33_2 C 0.0368(5) 0.9369(2) 0.886(3)
O12_2 O 0.0446(3) 0.93863(15) 0.7045(18)
H11_2 H 0.8822 0.0018 0.0315
O5_2 O 0.8827(2) 0.03471(12) 0.0329(14)
C13_2 C 0.8593(4) 0.0122(2) 0.602(2)
H10_2 H 0.8557 0.0222 0.5225
C14_2 C 0.8698(4) 0.01496(19) 0.787(2)
C17_2 C 0.8747(3) 0.03299(18) 0.869(2)
O6_2 O 0.8739(2) 0.04688(11) 0.7645(14)
H16_2 H 0.8414 0.8867 0.0906
C25_2 C 0.8652(4) 0.85144(18) 0.026(2)
O8_2 O 0.8666(3) 0.85340(15) 0.2060(17)
Cd5_2 Cd 0.868556(16) 0.819507(10) 0.24306(10)
C1_2 C 0.8454(3) 0.93807(18) 0.375(2)
C2_2 C 0.8219(3) 0.93634(19) 0.1976(19)
H1_2 H 0.8248 0.9470 0.1162
H2_2 H 0.8280 0.9253 0.1268
C3_2 C 0.7597(3) 0.93367(17) 0.1375(17)
C7_2 C 0.6961(4) 0.93332(16) 0.0897(18)
H5_2 H 0.6730 0.9341 0.1383
C8_2 C 0.7255(3) 0.93490(17) 0.2097(18)
H6_2 H 0.7220 0.9368 0.3385
C10_2 C 0.8375(4) 0.9590(2) 0.439(2)
H7_2 H 0.8463 0.9676 0.3454
H8_2 H 0.8120 0.9609 0.4567
C11_2 C 0.8596(5) 0.9794(2) 0.654(3)
C12_2 C 0.8542(4) 0.9944(2) 0.535(3)
H9_2 H 0.8472 0.9925 0.4101
C15_2 C 0.8752(4) 0.9999(2) 0.907(3)
C16_2 C 0.8701(5) 0.9822(3) 0.840(3)
H12_2 H 0.8737 0.9722 0.9195
C18_2 C 0.8370(4) 0.92648(18) 0.555(2)
H13_2 H 0.8547 0.9285 0.6538
H14_2 H 0.8133 0.9291 0.6041
C19_2 C 0.8448(6) 0.8957(3) 0.644(3)
C20_2 C 0.8387(6) 0.8984(3) 0.834(3)
H15_2 H 0.8297 0.9097 0.8756
C21_2 C 0.8457(5) 0.8847(3) 0.963(3)
C22_2 C 0.8591(5) 0.8679(2) 0.902(3)
C23_2 C 0.8650(5) 0.8652(2) 0.711(3)
H17_2 H 0.8737 0.8540 0.6687
C24_2 C 0.8583(5) 0.8790(3) 0.583(3)
H18_2 H 0.8627 0.8770 0.4555
C26_2 C 0.8860(4) 0.9352(2) 0.322(3)
H19_2 H 0.9005 0.9428 0.4044
H20_2 H 0.8924 0.9225 0.3455
C27_2 C 0.9293(5) 0.9384(3) 0.081(3)
C28_2 C 0.9561(6) 0.9307(3) 0.188(4)
H21_2 H 0.9508 0.9260 0.3071
C29_2 C 0.9907(7) 0.9301(3) 0.122(4)
O1_2 O 0.78583(18) 0.93528(10) 0.2672(12)
O4_2 O 0.8555(3) 0.96071(17) 0.605(2)
O7_2 O 0.8394(3) 0.90828(17) 0.4778(19)
O9_2 O 0.8663(2) 0.83559(10) 0.9562(12)
O10_2 O 0.8938(3) 0.93917(16) 0.1474(18)
Cd2_2 Cd 0.59256(2) 0.937270(13) 0.03402(11)
O17_2 O 0.6261(2) 0.95312(11) 0.2645(14)
O20_2 O 0.6163(2) 0.91441(10) 0.2062(12)
O22_2 O 0.5446(3) 0.93863(15) 0.2045(18)
Cd8_2 Cd 0.84256(2) 0.812730(13) 0.78402(11)
Cd1_2 Cd 0.618556(16) 0.930493(10) 0.49306(10)
C4_2 C 0.7648(4) 0.9310(2) 0.945(2)
H3_2 H 0.7879 0.9302 0.8967
C5_2 C 0.7356(4) 0.9295(2) 0.826(2)
H4_2 H 0.7391 0.9277 0.6970
C6_2 C 0.7013(3) 0.93057(15) 0.8968(17)
C9_2 C 0.6689(2) 0.93202(13) 0.7638(17)
C30_2 C 0.9990(5) 0.9372(3) 0.946(3)
C31_2 C 0.9720(5) 0.9449(3) 0.838(3)
H23_2 H 0.9773 0.9497 0.7193
C32_2 C 0.9376(6) 0.9455(3) 0.904(3)
H24_2 H 0.9196 0.9506 0.8295
O2_2 O 0.63840(15) 0.93257(9) 0.8126(9)
O3_2 O 0.67720(19) 0.93055(12) 0.5833(13)
O13_2 O 0.5771(3) 0.96279(13) 0.8698(14)
O14_2 O 0.5581(3) 0.91960(18) 0.8422(18)
O15_2 O 0.6173(2) 0.96529(12) 0.5329(14)
O18_2 O 0.6166(3) 0.89660(15) 0.4560(17)
O21_2 O 0.5597(3) 0.93248(14) 0.5211(19)
H25_2 H 0.570592 0.959298 0.738499
H26_2 H 0.55628 0.968799 0.931695
H27_2 H 0.569067 0.907206 0.829538
H28_2 H 0.533749 0.918403 0.897402
C14_3 C 0.3802(4) 0.26496(19) 0.037(2)
C15_3 C 0.3748(4) 0.2499(2) 0.157(3)
H11_3 H 0.3678 0.2518 0.2815
C16_3 C 0.3799(5) 0.2322(3) 0.090(3)
H12_3 H 0.3763 0.2222 0.1695
C17_3 C 0.3753(3) 0.28299(18) 0.119(2)
C20_3 C 0.4113(6) 0.1484(3) 0.084(3)
H15_3 H 0.4203 0.1597 0.1256
C21_3 C 0.4043(5) 0.1347(3) 0.213(3)
H16_3 H 0.4086 0.1367 0.3406
C22_3 C 0.3909(5) 0.1179(2) 0.152(3)
C25_3 C 0.3848(4) 0.10144(18) 0.276(2)
O5_3 O 0.3673(2) 0.28471(12) 0.2829(14)
O6_3 O 0.3761(2) 0.29688(11) 0.0145(14)
Cd4_2 Cd 0.368556(16) 0.319507(10) 0.24306(10)
C1_3 C 0.4046(3) 0.18807(18) 0.625(2)
C2_3 C 0.4281(3) 0.18634(19) 0.4476(19)
H1_3 H 0.4252 0.1970 0.3662
H2_3 H 0.4220 0.1753 0.3768
C3_3 C 0.4903(3) 0.18367(17) 0.3875(17)
C4_3 C 0.4852(4) 0.1810(2) 0.195(2)
H3_3 H 0.4621 0.1802 0.1467
C5_3 C 0.5144(4) 0.1795(2) 0.076(2)
C6_3 C 0.5487(3) 0.18057(15) 0.1468(17)
C7_3 C 0.5539(4) 0.18332(16) 0.3397(18)
H5_3 H 0.5770 0.1841 0.3883
C8_3 C 0.5245(3) 0.18490(17) 0.4597(18)
H6_3 H 0.5280 0.1868 0.5885
C9_3 C 0.5811(2) 0.18202(13) 0.0138(17)
C10_3 C 0.4125(4) 0.2090(2) 0.689(2)
H7_3 H 0.4037 0.2176 0.5954
H8_3 H 0.4380 0.2109 0.7067
C11_3 C 0.3904(5) 0.2294(2) 0.904(3)
C12_3 C 0.3958(4) 0.2444(2) 0.785(3)
H9_3 H 0.4028 0.2425 0.6601
C13_3 C 0.3907(4) 0.2622(2) 0.852(2)
H10_3 H 0.3943 0.2722 0.7725
C18_3 C 0.4130(4) 0.17648(18) 0.805(2)
H13_3 H 0.3953 0.1785 0.9038
H14_3 H 0.4367 0.1791 0.8541
C19_3 C 0.4052(6) 0.1457(3) 0.894(3)
C23_3 C 0.3850(5) 0.1152(2) 0.961(3)
H17_3 H 0.3763 0.1040 0.9187
C24_3 C 0.3917(5) 0.1290(3) 0.833(3)
H18_3 H 0.3873 0.1270 0.7055
C26_3 C 0.3640(4) 0.1852(2) 0.572(3)
H19_3 H 0.3495 0.1928 0.6544
H20_3 H 0.3576 0.1725 0.5955
C27_3 C 0.3207(5) 0.1884(3) 0.331(3)
C28_3 C 0.2939(6) 0.1807(3) 0.438(4)
H21_3 H 0.2992 0.1760 0.5571
C29_3 C 0.2593(7) 0.1801(3) 0.372(4)
H22_3 H 0.2414 0.1749 0.4460
C30_3 C 0.2510(5) 0.1872(3) 0.196(3)
C31_3 C 0.2780(5) 0.1949(3) 0.088(3)
C32_3 C 0.3124(6) 0.1955(3) 0.154(3)
H24_3 H 0.3304 0.2006 0.0795
C33_3 C 0.2132(5) 0.1869(2) 0.136(3)
O1_3 O 0.46417(18) 0.18528(10) 0.5172(12)
O2_3 O 0.61160(15) 0.18257(9) 0.0626(9)
O4_3 O 0.3945(3) 0.21071(17) 0.855(2)
O7_3 O 0.4106(3) 0.15828(17) 0.7278(19)
O10_3 O 0.3562(3) 0.18917(16) 0.3974(18)
O11_3 O 0.1903(3) 0.18248(14) 0.2711(19)
Cd2_3 Cd 0.65744(2) 0.187270(13) 0.28402(11)
O13_3 O 0.6729(3) 0.21279(13) 0.1198(14)
O14_3 O 0.6919(3) 0.16960(18) 0.0922(18)
O17_3 O 0.6239(2) 0.20312(11) 0.5145(14)
O20_3 O 0.6337(2) 0.16441(10) 0.4562(12)
O22_3 O 0.7054(3) 0.18863(15) 0.4545(18)
Cd7_2 Cd 0.34256(2) 0.312730(13) 0.78402(11)
H26_3 H 0.69372 0.218799 0.181695
H27_3 H 0.680933 0.157206 0.0795376
H28_3 H 0.716251 0.168403 0.147402
Cd1_3 Cd 0.631444(16) 0.180493(10) 0.74306(10)
H4_3 H 0.5109 0.1777 0.9470
H23_3 H 0.2727 0.1997 0.9693
O3_3 O 0.57280(19) 0.18055(12) 0.8333(13)
O12_3 O 0.2054(3) 0.18863(15) 0.9545(18)
O15_3 O 0.6327(2) 0.21529(12) 0.7829(14)
O18_3 O 0.6334(3) 0.14660(15) 0.7060(17)
O21_3 O 0.6903(3) 0.18248(14) 0.7711(19)
H25_3 H 0.679408 0.209298 0.988499
C14_4 C 0.1198(4) 0.23504(19) 0.037(2)
C15_4 C 0.1252(4) 0.2501(2) 0.157(3)
H11_4 H 0.1322 0.2482 0.2815
C16_4 C 0.1201(5) 0.2678(3) 0.090(3)
H12_4 H 0.1237 0.2778 0.1695
C17_4 C 0.1247(3) 0.21701(18) 0.119(2)
C20_4 C 0.0887(6) 0.3516(3) 0.084(3)
H15_4 H 0.0797 0.3403 0.1256
C21_4 C 0.0957(5) 0.3653(3) 0.213(3)
H16_4 H 0.0914 0.3633 0.3406
C22_4 C 0.1091(5) 0.3821(2) 0.152(3)
C25_4 C 0.1152(4) 0.39856(18) 0.276(2)
O5_4 O 0.1327(2) 0.21529(12) 0.2829(14)
O6_4 O 0.1239(2) 0.20312(11) 0.0145(14)
O8_3 O 0.1166(3) 0.39660(15) 0.4560(17)
O9_3 O 0.1163(2) 0.41441(10) 0.2062(12)
Cd5_3 Cd 0.118556(16) 0.430493(10) 0.49306(10)
Cd8_3 Cd 0.09256(2) 0.437270(13) 0.03402(11)
C1_4 C 0.0954(3) 0.31193(18) 0.625(2)
C2_4 C 0.0719(3) 0.31366(19) 0.4476(19)
H1_4 H 0.0748 0.3030 0.3662
H2_4 H 0.0780 0.3247 0.3768
C3_4 C 0.0097(3) 0.31633(17) 0.3875(17)
C4_4 C 0.0148(4) 0.3190(2) 0.195(2)
H3_4 H 0.0379 0.3198 0.1467
C10_4 C 0.0875(4) 0.2910(2) 0.689(2)
H7_4 H 0.0963 0.2824 0.5954
H8_4 H 0.0620 0.2891 0.7067
C11_4 C 0.1096(5) 0.2706(2) 0.904(3)
C12_4 C 0.1042(4) 0.2556(2) 0.785(3)
H9_4 H 0.0972 0.2575 0.6601
C13_4 C 0.1093(4) 0.2378(2) 0.852(2)
H10_4 H 0.1057 0.2278 0.7725
C18_4 C 0.0870(4) 0.32352(18) 0.805(2)
H13_4 H 0.1047 0.3215 0.9038
H14_4 H 0.0633 0.3209 0.8541
C19_4 C 0.0948(6) 0.3543(3) 0.894(3)
C23_4 C 0.1150(5) 0.3848(2) 0.961(3)
H17_4 H 0.1237 0.3960 0.9187
C24_4 C 0.1083(5) 0.3710(3) 0.833(3)
H18_4 H 0.1127 0.3730 0.7055
C26_4 C 0.1360(4) 0.3148(2) 0.572(3)
H19_4 H 0.1505 0.3072 0.6544
H20_4 H 0.1424 0.3275 0.5955
C27_4 C 0.1793(5) 0.3116(3) 0.331(3)
C28_4 C 0.2061(6) 0.3193(3) 0.438(4)
H21_4 H 0.2008 0.3240 0.5571
C29_4 C 0.2407(7) 0.3199(3) 0.372(4)
H22_4 H 0.2586 0.3251 0.4460
C30_4 C 0.2490(5) 0.3128(3) 0.196(3)
C31_4 C 0.2220(5) 0.3051(3) 0.088(3)
C32_4 C 0.1876(6) 0.3045(3) 0.154(3)
H24_4 H 0.1696 0.2994 0.0795
C33_4 C 0.2868(5) 0.3131(2) 0.136(3)
O1_4 O 0.03583(18) 0.31472(10) 0.5172(12)
O4_4 O 0.1055(3) 0.28929(17) 0.855(2)
O7_4 O 0.0894(3) 0.34172(17) 0.7278(19)
O10_4 O 0.1438(3) 0.31083(16) 0.3974(18)
O11_4 O 0.3097(3) 0.31752(14) 0.2711(19)
H23_4 H 0.2273 0.3003 0.9693
O12_4 O 0.2946(3) 0.31137(15) 0.9545(18)
C5_4 C 0.9856(4) 0.3205(2) 0.076(2)
C6_4 C 0.9513(3) 0.31943(15) 0.1468(17)
C7_4 C 0.9461(4) 0.31668(16) 0.3397(18)
H5_4 H 0.9230 0.3159 0.3883
C8_4 C 0.9755(3) 0.31510(17) 0.4597(18)
H6_4 H 0.9720 0.3132 0.5885
C9_4 C 0.9189(2) 0.31798(13) 0.0138(17)
O2_4 O 0.88840(15) 0.31743(9) 0.0626(9)
Cd2_4 Cd 0.84256(2) 0.312730(13) 0.28402(11)
O13_4 O 0.8271(3) 0.28721(13) 0.1198(14)
O14_4 O 0.8081(3) 0.33040(18) 0.0922(18)
O17_4 O 0.8761(2) 0.29688(11) 0.5145(14)
O20_4 O 0.8663(2) 0.33559(10) 0.4562(12)
O22_4 O 0.7946(3) 0.31137(15) 0.4545(18)
H26_4 H 0.80628 0.281201 0.181695
H27_4 H 0.819067 0.342794 0.0795376
H28_4 H 0.783749 0.331597 0.147402
Cd1_4 Cd 0.868556(16) 0.319507(10) 0.74306(10)
H4_4 H 0.9891 0.3223 0.9470
O3_4 O 0.92720(19) 0.31945(12) 0.8333(13)
O15_4 O 0.8673(2) 0.28471(12) 0.7829(14)
O18_4 O 0.8666(3) 0.35340(15) 0.7060(17)
O21_4 O 0.8097(3) 0.31752(14) 0.7711(19)
H25_4 H 0.820592 0.290702 0.988499
C11_5 C 0.1404(5) 0.5206(2) 0.154(3)
C12_5 C 0.1458(4) 0.5056(2) 0.035(3)
C13_5 C 0.1407(4) 0.4878(2) 0.102(2)
H10_5 H 0.1443 0.4778 0.0225
C14_5 C 0.1302(4) 0.48504(19) 0.287(2)
C15_5 C 0.1248(4) 0.5001(2) 0.407(3)
H11_5 H 0.1178 0.4982 0.5315
C16_5 C 0.1299(5) 0.5178(3) 0.340(3)
H12_5 H 0.1263 0.5278 0.4195
C17_5 C 0.1253(3) 0.46701(18) 0.369(2)
C18_5 C 0.1630(4) 0.57352(18) 0.055(2)
H13_5 H 0.1453 0.5715 0.1538
H14_5 H 0.1867 0.5709 0.1041
C19_5 C 0.1552(6) 0.6043(3) 0.144(3)
C20_5 C 0.1613(6) 0.6016(3) 0.334(3)
H15_5 H 0.1703 0.5903 0.3756
C21_5 C 0.1543(5) 0.6153(3) 0.463(3)
H16_5 H 0.1586 0.6133 0.5906
C22_5 C 0.1409(5) 0.6321(2) 0.402(3)
C23_5 C 0.1350(5) 0.6348(2) 0.211(3)
H17_5 H 0.1263 0.6460 0.1687
C24_5 C 0.1417(5) 0.6210(3) 0.083(3)
C25_5 C 0.1348(4) 0.64856(18) 0.526(2)
O4_5 O 0.1445(3) 0.53929(17) 0.105(2)
O5_5 O 0.1173(2) 0.46529(12) 0.5329(14)
O6_5 O 0.1261(2) 0.45312(11) 0.2645(14)
O8_4 O 0.1334(3) 0.64660(15) 0.7060(17)
O9_4 O 0.1337(2) 0.66441(10) 0.4562(12)
Cd5_4 Cd 0.131444(16) 0.680493(10) 0.74306(10)
Cd8_4 Cd 0.15744(2) 0.687270(13) 0.28402(11)
C1_5 C 0.1546(3) 0.56193(18) 0.875(2)
C2_5 C 0.1781(3) 0.56366(19) 0.6976(19)
H1_5 H 0.1752 0.5530 0.6162
H2_5 H 0.1720 0.5747 0.6268
C3_5 C 0.2403(3) 0.56633(17) 0.6375(17)
C4_5 C 0.2352(4) 0.5690(2) 0.445(2)
H3_5 H 0.2121 0.5698 0.3967
C5_5 C 0.2644(4) 0.5705(2) 0.326(2)
H4_5 H 0.2609 0.5723 0.1970
C6_5 C 0.2987(3) 0.56943(15) 0.3968(17)
C7_5 C 0.3039(4) 0.56668(16) 0.5897(18)
H5_5 H 0.3270 0.5659 0.6383
C8_5 C 0.2745(3) 0.56510(17) 0.7097(18)
H6_5 H 0.2780 0.5632 0.8385
C9_5 C 0.3311(2) 0.56798(13) 0.2638(17)
C10_5 C 0.1625(4) 0.5410(2) 0.939(2)
H7_5 H 0.1537 0.5324 0.8454
H8_5 H 0.1880 0.5391 0.9567
H9_5 H 0.1528 0.5075 0.9101
H18_5 H 0.1373 0.6230 0.9555
C26_5 C 0.1140(4) 0.5648(2) 0.822(3)
H19_5 H 0.0995 0.5572 0.9044
H20_5 H 0.1076 0.5775 0.8455
C27_5 C 0.0707(5) 0.5616(3) 0.581(3)
C28_5 C 0.0439(6) 0.5693(3) 0.688(4)
H21_5 H 0.0492 0.5740 0.8071
C29_5 C 0.0093(7) 0.5699(3) 0.622(4)
C30_5 C 0.0010(5) 0.5628(3) 0.446(3)
C31_5 C 0.0280(5) 0.5551(3) 0.338(3)
H23_5 H 0.0227 0.5503 0.2193
C32_5 C 0.0624(6) 0.5545(3) 0.404(3)
H24_5 H 0.0804 0.5494 0.3295
O1_5 O 0.21417(18) 0.56472(10) 0.7672(12)
O2_5 O 0.36160(15) 0.56743(9) 0.3126(9)
O3_5 O 0.32280(19) 0.56945(12) 0.0833(13)
O7_5 O 0.1606(3) 0.59172(17) 0.9778(19)
O10_5 O 0.1062(3) 0.56083(16) 0.6474(18)
Cd2_5 Cd 0.40744(2) 0.562730(13) 0.53402(11)
O13_5 O 0.4229(3) 0.53721(13) 0.3698(14)
O14_5 O 0.4419(3) 0.58040(18) 0.3422(18)
O15_5 O 0.3827(2) 0.53471(12) 0.0329(14)
O17_5 O 0.3739(2) 0.54688(11) 0.7645(14)
O20_5 O 0.3837(2) 0.58559(10) 0.7062(12)
O21_5 O 0.4403(3) 0.56752(14) 0.0211(19)
O22_5 O 0.4554(3) 0.56137(15) 0.7045(18)
H25_5 H 0.429408 0.540702 0.238499
H26_5 H 0.44372 0.531201 0.431695
H27_5 H 0.430933 0.592794 0.329538
H28_5 H 0.466251 0.581597 0.397402
Cd1_5 Cd 0.381444(16) 0.569507(10) 0.99306(10)
O18_5 O 0.3834(3) 0.60340(15) 0.9560(17)
H22_5 H 0.9914 0.5751 0.6960
C33_5 C 0.9632(5) 0.5631(2) 0.386(3)
O11_5 O 0.9403(3) 0.56752(14) 0.5211(19)
O12_5 O 0.9554(3) 0.56137(15) 0.2045(18)
Cd3_2 Cd 0.881444(16) 0.569507(10) 0.49306(10)
Cd6_2 Cd 0.90744(2) 0.562730(13) 0.03402(11)
H22_6 H 0.0086 0.4249 0.6960
C33_6 C 0.0368(5) 0.4369(2) 0.386(3)
O11_6 O 0.0597(3) 0.43248(14) 0.5211(19)
O12_6 O 0.0446(3) 0.43863(15) 0.2045(18)
C11_6 C 0.8596(5) 0.4794(2) 0.154(3)
C12_6 C 0.8542(4) 0.4944(2) 0.035(3)
C13_6 C 0.8593(4) 0.5122(2) 0.102(2)
H10_6 H 0.8557 0.5222 0.0225
C14_6 C 0.8698(4) 0.51496(19) 0.287(2)
C15_6 C 0.8752(4) 0.4999(2) 0.407(3)
H11_6 H 0.8822 0.5018 0.5315
C16_6 C 0.8701(5) 0.4822(3) 0.340(3)
H12_6 H 0.8737 0.4722 0.4195
C17_6 C 0.8747(3) 0.53299(18) 0.369(2)
C18_6 C 0.8370(4) 0.42648(18) 0.055(2)
H13_6 H 0.8547 0.4285 0.1538
H14_6 H 0.8133 0.4291 0.1041
C19_6 C 0.8448(6) 0.3957(3) 0.144(3)
C20_6 C 0.8387(6) 0.3984(3) 0.334(3)
H15_6 H 0.8297 0.4097 0.3756
C21_6 C 0.8457(5) 0.3847(3) 0.463(3)
H16_6 H 0.8414 0.3867 0.5906
C22_6 C 0.8591(5) 0.3679(2) 0.402(3)
C23_6 C 0.8650(5) 0.3652(2) 0.211(3)
H17_6 H 0.8737 0.3540 0.1687
C24_6 C 0.8583(5) 0.3790(3) 0.083(3)
C25_6 C 0.8652(4) 0.35144(18) 0.526(2)
O4_6 O 0.8555(3) 0.46071(17) 0.105(2)
O5_6 O 0.8827(2) 0.53471(12) 0.5329(14)
O6_6 O 0.8739(2) 0.54688(11) 0.2645(14)
C1_6 C 0.8454(3) 0.43807(18) 0.875(2)
C2_6 C 0.8219(3) 0.43634(19) 0.6976(19)
H1_6 H 0.8248 0.4470 0.6162
H2_6 H 0.8280 0.4253 0.6268
C3_6 C 0.7597(3) 0.43367(17) 0.6375(17)
C4_6 C 0.7648(4) 0.4310(2) 0.445(2)
H3_6 H 0.7879 0.4302 0.3967
C5_6 C 0.7356(4) 0.4295(2) 0.326(2)
H4_6 H 0.7391 0.4277 0.1970
C6_6 C 0.7013(3) 0.43057(15) 0.3968(17)
C7_6 C 0.6961(4) 0.43332(16) 0.5897(18)
H5_6 H 0.6730 0.4341 0.6383
C8_6 C 0.7255(3) 0.43490(17) 0.7097(18)
H6_6 H 0.7220 0.4368 0.8385
C9_6 C 0.6689(2) 0.43202(13) 0.2638(17)
C10_6 C 0.8375(4) 0.4590(2) 0.939(2)
H7_6 H 0.8463 0.4676 0.8454
H8_6 H 0.8120 0.4609 0.9567
H9_6 H 0.8472 0.4925 0.9101
H18_6 H 0.8627 0.3770 0.9555
C26_6 C 0.8860(4) 0.4352(2) 0.822(3)
H19_6 H 0.9005 0.4428 0.9044
H20_6 H 0.8924 0.4225 0.8455
C27_6 C 0.9293(5) 0.4384(3) 0.581(3)
C28_6 C 0.9561(6) 0.4307(3) 0.688(4)
H21_6 H 0.9508 0.4260 0.8071
C29_6 C 0.9907(7) 0.4301(3) 0.622(4)
C30_6 C 0.9990(5) 0.4372(3) 0.446(3)
C31_6 C 0.9720(5) 0.4449(3) 0.338(3)
H23_6 H 0.9773 0.4497 0.2193
C32_6 C 0.9376(6) 0.4455(3) 0.404(3)
H24_6 H 0.9196 0.4506 0.3295
O1_6 O 0.78583(18) 0.43528(10) 0.7672(12)
O2_6 O 0.63840(15) 0.43257(9) 0.3126(9)
O3_6 O 0.67720(19) 0.43055(12) 0.0833(13)
O7_6 O 0.8394(3) 0.40828(17) 0.9778(19)
O10_6 O 0.8938(3) 0.43917(16) 0.6474(18)
Cd2_6 Cd 0.59256(2) 0.437270(13) 0.53402(11)
O13_6 O 0.5771(3) 0.46279(13) 0.3698(14)
O14_6 O 0.5581(3) 0.41960(18) 0.3422(18)
O15_6 O 0.6173(2) 0.46529(12) 0.0329(14)
O17_6 O 0.6261(2) 0.45312(11) 0.7645(14)
O20_6 O 0.6163(2) 0.41441(10) 0.7062(12)
O21_6 O 0.5597(3) 0.43248(14) 0.0211(19)
O22_6 O 0.5446(3) 0.43863(15) 0.7045(18)
H25_6 H 0.570592 0.459298 0.238499
H26_6 H 0.55628 0.468799 0.431695
H27_6 H 0.569067 0.407206 0.329538
H28_6 H 0.533749 0.418403 0.397402
Cd1_6 Cd 0.618556(16) 0.430493(10) 0.99306(10)
O18_6 O 0.6166(3) 0.39660(15) 0.9560(17)
C1_7 C 0.4046(3) 0.68807(18) 0.125(2)
H6_7 H 0.5280 0.6868 0.0885
C10_7 C 0.4125(4) 0.7090(2) 0.189(2)
H7_7 H 0.4037 0.7176 0.0954
H8_7 H 0.4380 0.7109 0.2067
C11_7 C 0.3904(5) 0.7294(2) 0.404(3)
C12_7 C 0.3958(4) 0.7444(2) 0.285(3)
H9_7 H 0.4028 0.7425 0.1601
C13_7 C 0.3907(4) 0.7622(2) 0.352(2)
H10_7 H 0.3943 0.7722 0.2725
C14_7 C 0.3802(4) 0.76496(19) 0.537(2)
C15_7 C 0.3748(4) 0.7499(2) 0.657(3)
H11_7 H 0.3678 0.7518 0.7815
C16_7 C 0.3799(5) 0.7322(3) 0.590(3)
H12_7 H 0.3763 0.7222 0.6695
C17_7 C 0.3753(3) 0.78299(18) 0.619(2)
C18_7 C 0.4130(4) 0.67648(18) 0.305(2)
H13_7 H 0.3953 0.6785 0.4038
H14_7 H 0.4367 0.6791 0.3541
C19_7 C 0.4052(6) 0.6457(3) 0.394(3)
C20_7 C 0.4113(6) 0.6484(3) 0.584(3)
H15_7 H 0.4203 0.6597 0.6256
C21_7 C 0.4043(5) 0.6347(3) 0.713(3)
H16_7 H 0.4086 0.6367 0.8406
C22_7 C 0.3909(5) 0.6179(2) 0.652(3)
C23_7 C 0.3850(5) 0.6152(2) 0.461(3)
H17_7 H 0.3763 0.6040 0.4187
C24_7 C 0.3917(5) 0.6290(3) 0.333(3)
H18_7 H 0.3873 0.6270 0.2055
C25_7 C 0.3848(4) 0.60144(18) 0.776(2)
C26_7 C 0.3640(4) 0.6852(2) 0.072(3)
H19_7 H 0.3495 0.6928 0.1544
H20_7 H 0.3576 0.6725 0.0955
H21_7 H 0.2992 0.6760 0.0571
O1_7 O 0.46417(18) 0.68528(10) 0.0172(12)
O4_7 O 0.3945(3) 0.71071(17) 0.355(2)
O5_7 O 0.3673(2) 0.78471(12) 0.7829(14)
O6_7 O 0.3761(2) 0.79688(11) 0.5145(14)
O7_7 O 0.4106(3) 0.65828(17) 0.2278(19)
Cd4_3 Cd 0.368556(16) 0.819507(10) 0.74306(10)
O17_7 O 0.6239(2) 0.70312(11) 0.0145(14)
Cd7_3 Cd 0.34256(2) 0.812730(13) 0.28402(11)
Cd1_7 Cd 0.631444(16) 0.680493(10) 0.24306(10)
C2_7 C 0.4281(3) 0.68634(19) 0.9476(19)
H1_7 H 0.4252 0.6970 0.8662
H2_7 H 0.4220 0.6753 0.8768
C3_7 C 0.4903(3) 0.68367(17) 0.8875(17)
C4_7 C 0.4852(4) 0.6810(2) 0.695(2)
H3_7 H 0.4621 0.6802 0.6467
C5_7 C 0.5144(4) 0.6795(2) 0.576(2)
H4_7 H 0.5109 0.6777 0.4470
C6_7 C 0.5487(3) 0.68057(15) 0.6468(17)
C7_7 C 0.5539(4) 0.68332(16) 0.8397(18)
H5_7 H 0.5770 0.6841 0.8883
C8_7 C 0.5245(3) 0.68490(17) 0.9597(18)
C9_7 C 0.5811(2) 0.68202(13) 0.5138(17)
C27_7 C 0.3207(5) 0.6884(3) 0.831(3)
C28_7 C 0.2939(6) 0.6807(3) 0.938(4)
C29_7 C 0.2593(7) 0.6801(3) 0.872(4)
H22_7 H 0.2414 0.6749 0.9460
C30_7 C 0.2510(5) 0.6872(3) 0.696(3)
C31_7 C 0.2780(5) 0.6949(3) 0.588(3)
H23_7 H 0.2727 0.6997 0.4693
C32_7 C 0.3124(6) 0.6955(3) 0.654(3)
H24_7 H 0.3304 0.7006 0.5795
C33_7 C 0.2132(5) 0.6869(2) 0.636(3)
O2_7 O 0.61160(15) 0.68257(9) 0.5626(9)
O3_7 O 0.57280(19) 0.68055(12) 0.3333(13)
O10_7 O 0.3562(3) 0.68917(16) 0.8974(18)
O11_7 O 0.1903(3) 0.68248(14) 0.7711(19)
O12_7 O 0.2054(3) 0.68863(15) 0.4545(18)
Cd2_7 Cd 0.65744(2) 0.687270(13) 0.78402(11)
O13_7 O 0.6729(3) 0.71279(13) 0.6198(14)
O14_7 O 0.6919(3) 0.66960(18) 0.5922(18)
O15_7 O 0.6327(2) 0.71529(12) 0.2829(14)
O18_7 O 0.6334(3) 0.64660(15) 0.2060(17)
O20_7 O 0.6337(2) 0.66441(10) 0.9562(12)
O21_7 O 0.6903(3) 0.68248(14) 0.2711(19)
O22_7 O 0.7054(3) 0.68863(15) 0.9545(18)
H25_7 H 0.679408 0.709298 0.488499
H26_7 H 0.69372 0.718799 0.681695
H27_7 H 0.680933 0.657206 0.579538
H28_7 H 0.716251 0.668403 0.647402
C1_8 C 0.0954(3) 0.81193(18) 0.125(2)
C10_8 C 0.0875(4) 0.7910(2) 0.189(2)
H7_8 H 0.0963 0.7824 0.0954
H8_8 H 0.0620 0.7891 0.2067
C11_8 C 0.1096(5) 0.7706(2) 0.404(3)
C12_8 C 0.1042(4) 0.7556(2) 0.285(3)
H9_8 H 0.0972 0.7575 0.1601
C13_8 C 0.1093(4) 0.7378(2) 0.352(2)
H10_8 H 0.1057 0.7278 0.2725
C14_8 C 0.1198(4) 0.73504(19) 0.537(2)
C15_8 C 0.1252(4) 0.7501(2) 0.657(3)
H11_8 H 0.1322 0.7482 0.7815
C16_8 C 0.1201(5) 0.7678(3) 0.590(3)
H12_8 H 0.1237 0.7778 0.6695
C17_8 C 0.1247(3) 0.71701(18) 0.619(2)
C18_8 C 0.0870(4) 0.82352(18) 0.305(2)
H13_8 H 0.1047 0.8215 0.4038
H14_8 H 0.0633 0.8209 0.3541
C19_8 C 0.0948(6) 0.8543(3) 0.394(3)
C20_8 C 0.0887(6) 0.8516(3) 0.584(3)
H15_8 H 0.0797 0.8403 0.6256
C21_8 C 0.0957(5) 0.8653(3) 0.713(3)
H16_8 H 0.0914 0.8633 0.8406
C22_8 C 0.1091(5) 0.8821(2) 0.652(3)
C23_8 C 0.1150(5) 0.8848(2) 0.461(3)
H17_8 H 0.1237 0.8960 0.4187
C24_8 C 0.1083(5) 0.8710(3) 0.333(3)
H18_8 H 0.1127 0.8730 0.2055
C25_8 C 0.1152(4) 0.89856(18) 0.776(2)
C26_8 C 0.1360(4) 0.8148(2) 0.072(3)
H19_8 H 0.1505 0.8072 0.1544
H20_8 H 0.1424 0.8275 0.0955
H21_8 H 0.2008 0.8240 0.0571
O1_8 O 0.03583(18) 0.81472(10) 0.0172(12)
O4_8 O 0.1055(3) 0.78929(17) 0.355(2)
O5_8 O 0.1327(2) 0.71529(12) 0.7829(14)
O6_8 O 0.1239(2) 0.70312(11) 0.5145(14)
O7_8 O 0.0894(3) 0.84172(17) 0.2278(19)
O8_5 O 0.1166(3) 0.89660(15) 0.9560(17)
O9_5 O 0.1163(2) 0.91441(10) 0.7062(12)
C2_8 C 0.0719(3) 0.81366(19) 0.9476(19)
H1_8 H 0.0748 0.8030 0.8662
H2_8 H 0.0780 0.8247 0.8768
C3_8 C 0.0097(3) 0.81633(17) 0.8875(17)
C4_8 C 0.0148(4) 0.8190(2) 0.695(2)
H3_8 H 0.0379 0.8198 0.6467
C27_8 C 0.1793(5) 0.8116(3) 0.831(3)
C28_8 C 0.2061(6) 0.8193(3) 0.938(4)
C29_8 C 0.2407(7) 0.8199(3) 0.872(4)
H22_8 H 0.2586 0.8251 0.9460
C30_8 C 0.2490(5) 0.8128(3) 0.696(3)
C31_8 C 0.2220(5) 0.8051(3) 0.588(3)
H23_8 H 0.2273 0.8003 0.4693
C32_8 C 0.1876(6) 0.8045(3) 0.654(3)
H24_8 H 0.1696 0.7994 0.5795
C33_8 C 0.2868(5) 0.8131(2) 0.636(3)
O10_8 O 0.1438(3) 0.81083(16) 0.8974(18)
O11_8 O 0.3097(3) 0.81752(14) 0.7711(19)
O12_8 O 0.2946(3) 0.81137(15) 0.4545(18)
H6_8 H 0.9720 0.8132 0.0885
O17_8 O 0.8761(2) 0.79688(11) 0.0145(14)
C5_8 C 0.9856(4) 0.8205(2) 0.576(2)
H4_8 H 0.9891 0.8223 0.4470
C6_8 C 0.9513(3) 0.81943(15) 0.6468(17)
C7_8 C 0.9461(4) 0.81668(16) 0.8397(18)
H5_8 H 0.9230 0.8159 0.8883
C8_8 C 0.9755(3) 0.81510(17) 0.9597(18)
C9_8 C 0.9189(2) 0.81798(13) 0.5138(17)
O2_8 O 0.88840(15) 0.81743(9) 0.5626(9)
O3_8 O 0.92720(19) 0.81945(12) 0.3333(13)
O13_8 O 0.8271(3) 0.78721(13) 0.6198(14)
O14_8 O 0.8081(3) 0.83040(18) 0.5922(18)
O15_8 O 0.8673(2) 0.78471(12) 0.2829(14)
O21_8 O 0.8097(3) 0.81752(14) 0.2711(19)
O22_8 O 0.7946(3) 0.81137(15) 0.9545(18)
H25_8 H 0.820592 0.790702 0.488499
H26_8 H 0.80628 0.781201 0.681695
H27_8 H 0.819067 0.842794 0.579538
H28_8 H 0.783749 0.831597 0.647402
C11_9 C 0.6404(5) 0.0206(2) 0.154(3)
C12_9 C 0.6458(4) 0.0056(2) 0.035(3)
C15_9 C 0.6248(4) 0.0001(2) 0.407(3)
C16_9 C 0.6299(5) 0.0178(3) 0.340(3)
H12_9 H 0.6263 0.0278 0.4195
C18_9 C 0.6630(4) 0.07352(18) 0.055(2)
H13_9 H 0.6453 0.0715 0.1538
H14_9 H 0.6867 0.0709 0.1041
C19_9 C 0.6552(6) 0.1043(3) 0.144(3)
C20_9 C 0.6613(6) 0.1016(3) 0.334(3)
H15_9 H 0.6703 0.0903 0.3756
C21_9 C 0.6543(5) 0.1153(3) 0.463(3)
H16_9 H 0.6586 0.1133 0.5906
C22_9 C 0.6409(5) 0.1321(2) 0.402(3)
C23_9 C 0.6350(5) 0.1348(2) 0.211(3)
H17_9 H 0.6263 0.1460 0.1687
C24_9 C 0.6417(5) 0.1210(3) 0.083(3)
C25_9 C 0.6348(4) 0.14856(18) 0.526(2)
O4_9 O 0.6445(3) 0.03929(17) 0.105(2)
C1_9 C 0.6546(3) 0.06193(18) 0.875(2)
C2_9 C 0.6781(3) 0.06366(19) 0.6976(19)
H1_9 H 0.6752 0.0530 0.6162
H2_9 H 0.6720 0.0747 0.6268
C3_9 C 0.7403(3) 0.06633(17) 0.6375(17)
C4_9 C 0.7352(4) 0.0690(2) 0.445(2)
H3_9 H 0.7121 0.0698 0.3967
C5_9 C 0.7644(4) 0.0705(2) 0.326(2)
H4_9 H 0.7609 0.0723 0.1970
C6_9 C 0.7987(3) 0.06943(15) 0.3968(17)
C7_9 C 0.8039(4) 0.06668(16) 0.5897(18)
H5_9 H 0.8270 0.0659 0.6383
C8_9 C 0.7745(3) 0.06510(17) 0.7097(18)
H6_9 H 0.7780 0.0632 0.8385
C9_9 C 0.8311(2) 0.06798(13) 0.2638(17)
C10_9 C 0.6625(4) 0.0410(2) 0.939(2)
H7_9 H 0.6537 0.0324 0.8454
H8_9 H 0.6880 0.0391 0.9567
H9_9 H 0.6528 0.0075 0.9101
H18_9 H 0.6373 0.1230 0.9555
C26_9 C 0.6140(4) 0.0648(2) 0.822(3)
H19_9 H 0.5995 0.0572 0.9044
H20_9 H 0.6076 0.0775 0.8455
C27_9 C 0.5707(5) 0.0616(3) 0.581(3)
C28_9 C 0.5439(6) 0.0693(3) 0.688(4)
H21_9 H 0.5492 0.0740 0.8071
C29_9 C 0.5093(7) 0.0699(3) 0.622(4)
H22_9 H 0.4914 0.0751 0.6960
C30_9 C 0.5010(5) 0.0628(3) 0.446(3)
C31_9 C 0.5280(5) 0.0551(3) 0.338(3)
H23_9 H 0.5227 0.0503 0.2193
C32_9 C 0.5624(6) 0.0545(3) 0.404(3)
H24_9 H 0.5804 0.0494 0.3295
C33_9 C 0.4632(5) 0.0631(2) 0.386(3)
O1_9 O 0.71417(18) 0.06472(10) 0.7672(12)
O2_9 O 0.86160(15) 0.06743(9) 0.3126(9)
O3_9 O 0.82280(19) 0.06945(12) 0.0833(13)
O7_9 O 0.6606(3) 0.09172(17) 0.9778(19)
O10_9 O 0.6062(3) 0.06083(16) 0.6474(18)
O13_9 O 0.9229(3) 0.03721(13) 0.3698(14)
O14_9 O 0.9419(3) 0.08040(18) 0.3422(18)
O20_8 O 0.8837(2) 0.08559(10) 0.7062(12)
H25_9 H 0.929408 0.0407022 0.238499
H26_9 H 0.94372 0.0312009 0.431695
H27_9 H 0.930933 0.0927935 0.329538
H28_9 H 0.966251 0.0815975 0.397402
O18_8 O 0.8834(3) 0.10340(15) 0.9560(17)
C13_9 C 0.6407(4) 0.9878(2) 0.102(2)
H10_9 H 0.6443 0.9778 0.0225
C14_9 C 0.6302(4) 0.98504(19) 0.287(2)
H11_9 H 0.6178 0.9982 0.5315
C17_9 C 0.6253(3) 0.96701(18) 0.369(2)
C13_10 C 0.3593(4) 0.0122(2) 0.102(2)
H10_10 H 0.3557 0.0222 0.0225
C14_10 C 0.3698(4) 0.01496(19) 0.287(2)
H11_10 H 0.3822 0.0018 0.5315
C17_10 C 0.3747(3) 0.03299(18) 0.369(2)
C11_10 C 0.3596(5) 0.9794(2) 0.154(3)
C12_10 C 0.3542(4) 0.9944(2) 0.035(3)
C15_10 C 0.3752(4) 0.9999(2) 0.407(3)
C16_10 C 0.3701(5) 0.9822(3) 0.340(3)
H12_10 H 0.3737 0.9722 0.4195
C18_10 C 0.3370(4) 0.92648(18) 0.055(2)
H13_10 H 0.3547 0.9285 0.1538
H14_10 H 0.3133 0.9291 0.1041
C19_10 C 0.3448(6) 0.8957(3) 0.144(3)
C20_10 C 0.3387(6) 0.8984(3) 0.334(3)
H15_10 H 0.3297 0.9097 0.3756
C21_10 C 0.3457(5) 0.8847(3) 0.463(3)
H16_10 H 0.3414 0.8867 0.5906
C22_10 C 0.3591(5) 0.8679(2) 0.402(3)
C23_10 C 0.3650(5) 0.8652(2) 0.211(3)
H17_10 H 0.3737 0.8540 0.1687
C24_10 C 0.3583(5) 0.8790(3) 0.083(3)
C25_10 C 0.3652(4) 0.85144(18) 0.526(2)
O4_10 O 0.3555(3) 0.96071(17) 0.105(2)
O8_6 O 0.3666(3) 0.85340(15) 0.7060(17)
O9_6 O 0.3663(2) 0.83559(10) 0.4562(12)
C1_10 C 0.3454(3) 0.93807(18) 0.875(2)
C2_10 C 0.3219(3) 0.93634(19) 0.6976(19)
H1_10 H 0.3248 0.9470 0.6162
H2_10 H 0.3280 0.9253 0.6268
C3_10 C 0.2597(3) 0.93367(17) 0.6375(17)
C4_10 C 0.2648(4) 0.9310(2) 0.445(2)
H3_10 H 0.2879 0.9302 0.3967
C5_10 C 0.2356(4) 0.9295(2) 0.326(2)
H4_10 H 0.2391 0.9277 0.1970
C6_10 C 0.2013(3) 0.93057(15) 0.3968(17)
C7_10 C 0.1961(4) 0.93332(16) 0.5897(18)
H5_10 H 0.1730 0.9341 0.6383
C8_10 C 0.2255(3) 0.93490(17) 0.7097(18)
H6_10 H 0.2220 0.9368 0.8385
C9_10 C 0.1689(2) 0.93202(13) 0.2638(17)
C10_10 C 0.3375(4) 0.9590(2) 0.939(2)
H7_10 H 0.3463 0.9676 0.8454
H8_10 H 0.3120 0.9609 0.9567
H9_10 H 0.3472 0.9925 0.9101
H18_10 H 0.3627 0.8770 0.9555
C26_10 C 0.3860(4) 0.9352(2) 0.822(3)
H19_10 H 0.4005 0.9428 0.9044
H20_10 H 0.3924 0.9225 0.8455
C27_10 C 0.4293(5) 0.9384(3) 0.581(3)
C28_10 C 0.4561(6) 0.9307(3) 0.688(4)
H21_10 H 0.4508 0.9260 0.8071
C29_10 C 0.4907(7) 0.9301(3) 0.622(4)
H22_10 H 0.5086 0.9249 0.6960
C30_10 C 0.4990(5) 0.9372(3) 0.446(3)
C31_10 C 0.4720(5) 0.9449(3) 0.338(3)
H23_10 H 0.4773 0.9497 0.2193
C32_10 C 0.4376(6) 0.9455(3) 0.404(3)
H24_10 H 0.4196 0.9506 0.3295
C33_10 C 0.5368(5) 0.9369(2) 0.386(3)
O1_10 O 0.28583(18) 0.93528(10) 0.7672(12)
O2_10 O 0.13840(15) 0.93257(9) 0.3126(9)
O3_10 O 0.17720(19) 0.93055(12) 0.0833(13)
O7_10 O 0.3394(3) 0.90828(17) 0.9778(19)
O10_10 O 0.3938(3) 0.93917(16) 0.6474(18)
O13_10 O 0.0771(3) 0.96279(13) 0.3698(14)
O14_10 O 0.0581(3) 0.91960(18) 0.3422(18)
H25_10 H 0.0705923 0.959298 0.238499
H26_10 H 0.0562799 0.968799 0.431695
H27_10 H 0.0690674 0.907206 0.329538
H28_10 H 0.0337487 0.918403 0.397402
H6_11 H 0.0280 0.1868 0.0885
C5_11 C 0.0144(4) 0.1795(2) 0.576(2)
H4_11 H 0.0109 0.1777 0.4470
C6_11 C 0.0487(3) 0.18057(15) 0.6468(17)
C7_11 C 0.0539(4) 0.18332(16) 0.8397(18)
H5_11 H 0.0770 0.1841 0.8883
C8_11 C 0.0245(3) 0.18490(17) 0.9597(18)
C9_11 C 0.0811(2) 0.18202(13) 0.5138(17)
O2_11 O 0.11160(15) 0.18257(9) 0.5626(9)
O3_11 O 0.07280(19) 0.18055(12) 0.3333(13)
O13_11 O 0.1729(3) 0.21279(13) 0.6198(14)
O14_11 O 0.1919(3) 0.16960(18) 0.5922(18)
H25_11 H 0.179408 0.209298 0.488499
H26_11 H 0.19372 0.218799 0.681695
H27_11 H 0.180933 0.157206 0.579538
H28_11 H 0.216251 0.168403 0.647402
C1_11 C 0.9046(3) 0.18807(18) 0.125(2)
C10_11 C 0.9125(4) 0.2090(2) 0.189(2)
H7_11 H 0.9037 0.2176 0.0954
H8_11 H 0.9380 0.2109 0.2067
C11_11 C 0.8904(5) 0.2294(2) 0.404(3)
C12_11 C 0.8958(4) 0.2444(2) 0.285(3)
H9_11 H 0.9028 0.2425 0.1601
C13_11 C 0.8907(4) 0.2622(2) 0.352(2)
H10_11 H 0.8943 0.2722 0.2725
C14_11 C 0.8802(4) 0.26496(19) 0.537(2)
C15_11 C 0.8748(4) 0.2499(2) 0.657(3)
H11_11 H 0.8678 0.2518 0.7815
C16_11 C 0.8799(5) 0.2322(3) 0.590(3)
H12_11 H 0.8763 0.2222 0.6695
C17_11 C 0.8753(3) 0.28299(18) 0.619(2)
C18_11 C 0.9130(4) 0.17648(18) 0.305(2)
H13_11 H 0.8953 0.1785 0.4038
H14_11 H 0.9367 0.1791 0.3541
C19_11 C 0.9052(6) 0.1457(3) 0.394(3)
C20_11 C 0.9113(6) 0.1484(3) 0.584(3)
H15_11 H 0.9203 0.1597 0.6256
C21_11 C 0.9043(5) 0.1347(3) 0.713(3)
H16_11 H 0.9086 0.1367 0.8406
C22_11 C 0.8909(5) 0.1179(2) 0.652(3)
C23_11 C 0.8850(5) 0.1152(2) 0.461(3)
H17_11 H 0.8763 0.1040 0.4187
C24_11 C 0.8917(5) 0.1290(3) 0.333(3)
H18_11 H 0.8873 0.1270 0.2055
C25_11 C 0.8848(4) 0.10144(18) 0.776(2)
C26_11 C 0.8640(4) 0.1852(2) 0.072(3)
H19_11 H 0.8495 0.1928 0.1544
H20_11 H 0.8576 0.1725 0.0955
H21_11 H 0.7992 0.1760 0.0571
O1_11 O 0.96417(18) 0.18528(10) 0.0172(12)
O4_11 O 0.8945(3) 0.21071(17) 0.355(2)
O7_11 O 0.9106(3) 0.15828(17) 0.2278(19)
C2_11 C 0.9281(3) 0.18634(19) 0.9476(19)
H1_11 H 0.9252 0.1970 0.8662
H2_11 H 0.9220 0.1753 0.8768
C3_11 C 0.9903(3) 0.18367(17) 0.8875(17)
C4_11 C 0.9852(4) 0.1810(2) 0.695(2)
H3_11 H 0.9621 0.1802 0.6467
C27_11 C 0.8207(5) 0.1884(3) 0.831(3)
C28_11 C 0.7939(6) 0.1807(3) 0.938(4)
C29_11 C 0.7593(7) 0.1801(3) 0.872(4)
H22_11 H 0.7414 0.1749 0.9460
C30_11 C 0.7510(5) 0.1872(3) 0.696(3)
C31_11 C 0.7780(5) 0.1949(3) 0.588(3)
H23_11 H 0.7727 0.1997 0.4693
C32_11 C 0.8124(6) 0.1955(3) 0.654(3)
H24_11 H 0.8304 0.2006 0.5795
C33_11 C 0.7132(5) 0.1869(2) 0.636(3)
O10_11 O 0.8562(3) 0.18917(16) 0.8974(18)
C1_12 C 0.5954(3) 0.31193(18) 0.125(2)
H6_12 H 0.4720 0.3132 0.0885
C10_12 C 0.5875(4) 0.2910(2) 0.189(2)
H7_12 H 0.5963 0.2824 0.0954
H8_12 H 0.5620 0.2891 0.2067
C11_12 C 0.6096(5) 0.2706(2) 0.404(3)
C12_12 C 0.6042(4) 0.2556(2) 0.285(3)
H9_12 H 0.5972 0.2575 0.1601
C13_12 C 0.6093(4) 0.2378(2) 0.352(2)
H10_12 H 0.6057 0.2278 0.2725
C14_12 C 0.6198(4) 0.23504(19) 0.537(2)
C15_12 C 0.6252(4) 0.2501(2) 0.657(3)
H11_12 H 0.6322 0.2482 0.7815
C16_12 C 0.6201(5) 0.2678(3) 0.590(3)
H12_12 H 0.6237 0.2778 0.6695
C17_12 C 0.6247(3) 0.21701(18) 0.619(2)
C18_12 C 0.5870(4) 0.32352(18) 0.305(2)
H13_12 H 0.6047 0.3215 0.4038
H14_12 H 0.5633 0.3209 0.3541
C19_12 C 0.5948(6) 0.3543(3) 0.394(3)
C20_12 C 0.5887(6) 0.3516(3) 0.584(3)
H15_12 H 0.5797 0.3403 0.6256
C21_12 C 0.5957(5) 0.3653(3) 0.713(3)
H16_12 H 0.5914 0.3633 0.8406
C22_12 C 0.6091(5) 0.3821(2) 0.652(3)
C23_12 C 0.6150(5) 0.3848(2) 0.461(3)
H17_12 H 0.6237 0.3960 0.4187
C24_12 C 0.6083(5) 0.3710(3) 0.333(3)
H18_12 H 0.6127 0.3730 0.2055
C25_12 C 0.6152(4) 0.39856(18) 0.776(2)
C26_12 C 0.6360(4) 0.3148(2) 0.072(3)
H19_12 H 0.6505 0.3072 0.1544
H20_12 H 0.6424 0.3275 0.0955
H21_12 H 0.7008 0.3240 0.0571
O1_12 O 0.53583(18) 0.31472(10) 0.0172(12)
O4_12 O 0.6055(3) 0.28929(17) 0.355(2)
O7_12 O 0.5894(3) 0.34172(17) 0.2278(19)
C2_12 C 0.5719(3) 0.31366(19) 0.9476(19)
H1_12 H 0.5748 0.3030 0.8662
H2_12 H 0.5780 0.3247 0.8768
C3_12 C 0.5097(3) 0.31633(17) 0.8875(17)
C4_12 C 0.5148(4) 0.3190(2) 0.695(2)
H3_12 H 0.5379 0.3198 0.6467
C5_12 C 0.4856(4) 0.3205(2) 0.576(2)
H4_12 H 0.4891 0.3223 0.4470
C6_12 C 0.4513(3) 0.31943(15) 0.6468(17)
C7_12 C 0.4461(4) 0.31668(16) 0.8397(18)
H5_12 H 0.4230 0.3159 0.8883
C8_12 C 0.4755(3) 0.31510(17) 0.9597(18)
C9_12 C 0.4189(2) 0.31798(13) 0.5138(17)
C27_12 C 0.6793(5) 0.3116(3) 0.831(3)
C28_12 C 0.7061(6) 0.3193(3) 0.938(4)
C29_12 C 0.7407(7) 0.3199(3) 0.872(4)
H22_12 H 0.7586 0.3251 0.9460
C30_12 C 0.7490(5) 0.3128(3) 0.696(3)
C31_12 C 0.7220(5) 0.3051(3) 0.588(3)
H23_12 H 0.7273 0.3003 0.4693
C32_12 C 0.6876(6) 0.3045(3) 0.654(3)
H24_12 H 0.6696 0.2994 0.5795
C33_12 C 0.7868(5) 0.3131(2) 0.636(3)
O2_12 O 0.38840(15) 0.31743(9) 0.5626(9)
O3_12 O 0.42720(19) 0.31945(12) 0.3333(13)
O10_12 O 0.6438(3) 0.31083(16) 0.8974(18)
O13_12 O 0.3271(3) 0.28721(13) 0.6198(14)
O14_12 O 0.3081(3) 0.33040(18) 0.5922(18)
O18_9 O 0.3666(3) 0.35340(15) 0.2060(17)
O20_9 O 0.3663(2) 0.33559(10) 0.9562(12)
H25_12 H 0.320592 0.290702 0.488499
H26_12 H 0.30628 0.281201 0.681695
H27_12 H 0.319067 0.342794 0.579538
H28_12 H 0.283749 0.331597 0.647402
H11_13 H 0.6178 0.4982 0.0315
H16_13 H 0.6586 0.6133 0.0906
C25_13 C 0.6348(4) 0.64856(18) 0.026(2)
C1_13 C 0.6546(3) 0.56193(18) 0.375(2)
C2_13 C 0.6781(3) 0.56366(19) 0.1976(19)
H1_13 H 0.6752 0.5530 0.1162
H2_13 H 0.6720 0.5747 0.1268
C3_13 C 0.7403(3) 0.56633(17) 0.1375(17)
C7_13 C 0.8039(4) 0.56668(16) 0.0897(18)
H5_13 H 0.8270 0.5659 0.1383
C8_13 C 0.7745(3) 0.56510(17) 0.2097(18)
H6_13 H 0.7780 0.5632 0.3385
C10_13 C 0.6625(4) 0.5410(2) 0.439(2)
H7_13 H 0.6537 0.5324 0.3454
H8_13 H 0.6880 0.5391 0.4567
C11_13 C 0.6404(5) 0.5206(2) 0.654(3)
C12_13 C 0.6458(4) 0.5056(2) 0.535(3)
H9_13 H 0.6528 0.5075 0.4101
C13_13 C 0.6407(4) 0.4878(2) 0.602(2)
H10_13 H 0.6443 0.4778 0.5225
C14_13 C 0.6302(4) 0.48504(19) 0.787(2)
C15_13 C 0.6248(4) 0.5001(2) 0.907(3)
C16_13 C 0.6299(5) 0.5178(3) 0.840(3)
H12_13 H 0.6263 0.5278 0.9195
C17_13 C 0.6253(3) 0.46701(18) 0.869(2)
C18_13 C 0.6630(4) 0.57352(18) 0.555(2)
H13_13 H 0.6453 0.5715 0.6538
H14_13 H 0.6867 0.5709 0.6041
C19_13 C 0.6552(6) 0.6043(3) 0.644(3)
C20_13 C 0.6613(6) 0.6016(3) 0.834(3)
H15_13 H 0.6703 0.5903 0.8756
C21_13 C 0.6543(5) 0.6153(3) 0.963(3)
C22_13 C 0.6409(5) 0.6321(2) 0.902(3)
C23_13 C 0.6350(5) 0.6348(2) 0.711(3)
H17_13 H 0.6263 0.6460 0.6687
C24_13 C 0.6417(5) 0.6210(3) 0.583(3)
H18_13 H 0.6373 0.6230 0.4555
C26_13 C 0.6140(4) 0.5648(2) 0.322(3)
H19_13 H 0.5995 0.5572 0.4044
H20_13 H 0.6076 0.5775 0.3455
C27_13 C 0.5707(5) 0.5616(3) 0.081(3)
C28_13 C 0.5439(6) 0.5693(3) 0.188(4)
H21_13 H 0.5492 0.5740 0.3071
C29_13 C 0.5093(7) 0.5699(3) 0.122(4)
H22_13 H 0.4914 0.5751 0.1960
O1_13 O 0.71417(18) 0.56472(10) 0.2672(12)
O4_13 O 0.6445(3) 0.53929(17) 0.605(2)
O7_13 O 0.6606(3) 0.59172(17) 0.4778(19)
O10_13 O 0.6062(3) 0.56083(16) 0.1474(18)
O20_10 O 0.8837(2) 0.58559(10) 0.2062(12)
C4_13 C 0.7352(4) 0.5690(2) 0.945(2)
H3_13 H 0.7121 0.5698 0.8967
C5_13 C 0.7644(4) 0.5705(2) 0.826(2)
H4_13 H 0.7609 0.5723 0.6970
C6_13 C 0.7987(3) 0.56943(15) 0.8968(17)
C9_13 C 0.8311(2) 0.56798(13) 0.7638(17)
C30_13 C 0.5010(5) 0.5628(3) 0.946(3)
C31_13 C 0.5280(5) 0.5551(3) 0.838(3)
H23_13 H 0.5227 0.5503 0.7193
C32_13 C 0.5624(6) 0.5545(3) 0.904(3)
H24_13 H 0.5804 0.5494 0.8295
C33_13 C 0.4632(5) 0.5631(2) 0.886(3)
O2_13 O 0.86160(15) 0.56743(9) 0.8126(9)
O3_13 O 0.82280(19) 0.56945(12) 0.5833(13)
O13_13 O 0.9229(3) 0.53721(13) 0.8698(14)
O14_13 O 0.9419(3) 0.58040(18) 0.8422(18)
O18_10 O 0.8834(3) 0.60340(15) 0.4560(17)
H25_13 H 0.929408 0.540702 0.738499
H26_13 H 0.94372 0.531201 0.931695
H27_13 H 0.930933 0.592794 0.829538
H28_13 H 0.966251 0.581597 0.897402
H11_14 H 0.3822 0.5018 0.0315
H16_14 H 0.3414 0.3867 0.0906
C25_14 C 0.3652(4) 0.35144(18) 0.026(2)
C1_14 C 0.3454(3) 0.43807(18) 0.375(2)
C2_14 C 0.3219(3) 0.43634(19) 0.1976(19)
H1_14 H 0.3248 0.4470 0.1162
H2_14 H 0.3280 0.4253 0.1268
C3_14 C 0.2597(3) 0.43367(17) 0.1375(17)
C7_14 C 0.1961(4) 0.43332(16) 0.0897(18)
H5_14 H 0.1730 0.4341 0.1383
C8_14 C 0.2255(3) 0.43490(17) 0.2097(18)
H6_14 H 0.2220 0.4368 0.3385
C10_14 C 0.3375(4) 0.4590(2) 0.439(2)
H7_14 H 0.3463 0.4676 0.3454
H8_14 H 0.3120 0.4609 0.4567
C11_14 C 0.3596(5) 0.4794(2) 0.654(3)
C12_14 C 0.3542(4) 0.4944(2) 0.535(3)
H9_14 H 0.3472 0.4925 0.4101
C13_14 C 0.3593(4) 0.5122(2) 0.602(2)
H10_14 H 0.3557 0.5222 0.5225
C14_14 C 0.3698(4) 0.51496(19) 0.787(2)
C15_14 C 0.3752(4) 0.4999(2) 0.907(3)
C16_14 C 0.3701(5) 0.4822(3) 0.840(3)
H12_14 H 0.3737 0.4722 0.9195
C17_14 C 0.3747(3) 0.53299(18) 0.869(2)
C18_14 C 0.3370(4) 0.42648(18) 0.555(2)
H13_14 H 0.3547 0.4285 0.6538
H14_14 H 0.3133 0.4291 0.6041
C19_14 C 0.3448(6) 0.3957(3) 0.644(3)
C20_14 C 0.3387(6) 0.3984(3) 0.834(3)
H15_14 H 0.3297 0.4097 0.8756
C21_14 C 0.3457(5) 0.3847(3) 0.963(3)
C22_14 C 0.3591(5) 0.3679(2) 0.902(3)
C23_14 C 0.3650(5) 0.3652(2) 0.711(3)
H17_14 H 0.3737 0.3540 0.6687
C24_14 C 0.3583(5) 0.3790(3) 0.583(3)
H18_14 H 0.3627 0.3770 0.4555
C26_14 C 0.3860(4) 0.4352(2) 0.322(3)
H19_14 H 0.4005 0.4428 0.4044
H20_14 H 0.3924 0.4225 0.3455
C27_14 C 0.4293(5) 0.4384(3) 0.081(3)
C28_14 C 0.4561(6) 0.4307(3) 0.188(4)
H21_14 H 0.4508 0.4260 0.3071
C29_14 C 0.4907(7) 0.4301(3) 0.122(4)
H22_14 H 0.5086 0.4249 0.1960
O1_14 O 0.28583(18) 0.43528(10) 0.2672(12)
O4_14 O 0.3555(3) 0.46071(17) 0.605(2)
O7_14 O 0.3394(3) 0.40828(17) 0.4778(19)
O10_14 O 0.3938(3) 0.43917(16) 0.1474(18)
C4_14 C 0.2648(4) 0.4310(2) 0.945(2)
H3_14 H 0.2879 0.4302 0.8967
C5_14 C 0.2356(4) 0.4295(2) 0.826(2)
H4_14 H 0.2391 0.4277 0.6970
C6_14 C 0.2013(3) 0.43057(15) 0.8968(17)
C9_14 C 0.1689(2) 0.43202(13) 0.7638(17)
C30_14 C 0.4990(5) 0.4372(3) 0.946(3)
C31_14 C 0.4720(5) 0.4449(3) 0.838(3)
H23_14 H 0.4773 0.4497 0.7193
C32_14 C 0.4376(6) 0.4455(3) 0.904(3)
H24_14 H 0.4196 0.4506 0.8295
C33_14 C 0.5368(5) 0.4369(2) 0.886(3)
O2_14 O 0.13840(15) 0.43257(9) 0.8126(9)
O3_14 O 0.17720(19) 0.43055(12) 0.5833(13)
O13_14 O 0.0771(3) 0.46279(13) 0.8698(14)
O14_14 O 0.0581(3) 0.41960(18) 0.8422(18)
H25_14 H 0.0705923 0.459298 0.738499
H26_14 H 0.0562799 0.468799 0.931695
H27_14 H 0.0690674 0.407206 0.829538
H28_14 H 0.0337487 0.418403 0.897402
C5_15 C 0.0144(4) 0.6795(2) 0.076(2)
C6_15 C 0.0487(3) 0.68057(15) 0.1468(17)
C7_15 C 0.0539(4) 0.68332(16) 0.3397(18)
H5_15 H 0.0770 0.6841 0.3883
C8_15 C 0.0245(3) 0.68490(17) 0.4597(18)
H6_15 H 0.0280 0.6868 0.5885
C9_15 C 0.0811(2) 0.68202(13) 0.0138(17)
O2_15 O 0.11160(15) 0.68257(9) 0.0626(9)
O13_15 O 0.1729(3) 0.71279(13) 0.1198(14)
O14_15 O 0.1919(3) 0.66960(18) 0.0922(18)
H26_15 H 0.19372 0.718799 0.181695
H27_15 H 0.180933 0.657206 0.0795376
H28_15 H 0.216251 0.668403 0.147402
H4_15 H 0.0109 0.6777 0.9470
O3_15 O 0.07280(19) 0.68055(12) 0.8333(13)
H25_15 H 0.179408 0.709298 0.988499
C14_15 C 0.8802(4) 0.76496(19) 0.037(2)
C15_15 C 0.8748(4) 0.7499(2) 0.157(3)
H11_15 H 0.8678 0.7518 0.2815
C16_15 C 0.8799(5) 0.7322(3) 0.090(3)
H12_15 H 0.8763 0.7222 0.1695
C17_15 C 0.8753(3) 0.78299(18) 0.119(2)
C20_15 C 0.9113(6) 0.6484(3) 0.084(3)
H15_15 H 0.9203 0.6597 0.1256
C21_15 C 0.9043(5) 0.6347(3) 0.213(3)
H16_15 H 0.9086 0.6367 0.3406
C22_15 C 0.8909(5) 0.6179(2) 0.152(3)
C25_15 C 0.8848(4) 0.60144(18) 0.276(2)
C1_15 C 0.9046(3) 0.68807(18) 0.625(2)
C2_15 C 0.9281(3) 0.68634(19) 0.4476(19)
H1_15 H 0.9252 0.6970 0.3662
H2_15 H 0.9220 0.6753 0.3768
C3_15 C 0.9903(3) 0.68367(17) 0.3875(17)
C4_15 C 0.9852(4) 0.6810(2) 0.195(2)
H3_15 H 0.9621 0.6802 0.1467
C10_15 C 0.9125(4) 0.7090(2) 0.689(2)
H7_15 H 0.9037 0.7176 0.5954
H8_15 H 0.9380 0.7109 0.7067
C11_15 C 0.8904(5) 0.7294(2) 0.904(3)
C12_15 C 0.8958(4) 0.7444(2) 0.785(3)
H9_15 H 0.9028 0.7425 0.6601
C13_15 C 0.8907(4) 0.7622(2) 0.852(2)
H10_15 H 0.8943 0.7722 0.7725
C18_15 C 0.9130(4) 0.67648(18) 0.805(2)
H13_15 H 0.8953 0.6785 0.9038
H14_15 H 0.9367 0.6791 0.8541
C19_15 C 0.9052(6) 0.6457(3) 0.894(3)
C23_15 C 0.8850(5) 0.6152(2) 0.961(3)
H17_15 H 0.8763 0.6040 0.9187
C24_15 C 0.8917(5) 0.6290(3) 0.833(3)
H18_15 H 0.8873 0.6270 0.7055
C26_15 C 0.8640(4) 0.6852(2) 0.572(3)
H19_15 H 0.8495 0.6928 0.6544
H20_15 H 0.8576 0.6725 0.5955
C27_15 C 0.8207(5) 0.6884(3) 0.331(3)
C28_15 C 0.7939(6) 0.6807(3) 0.438(4)
H21_15 H 0.7992 0.6760 0.5571
C29_15 C 0.7593(7) 0.6801(3) 0.372(4)
H22_15 H 0.7414 0.6749 0.4460
C30_15 C 0.7510(5) 0.6872(3) 0.196(3)
C31_15 C 0.7780(5) 0.6949(3) 0.088(3)
C32_15 C 0.8124(6) 0.6955(3) 0.154(3)
H24_15 H 0.8304 0.7006 0.0795
C33_15 C 0.7132(5) 0.6869(2) 0.136(3)
O1_15 O 0.96417(18) 0.68528(10) 0.5172(12)
O4_15 O 0.8945(3) 0.71071(17) 0.855(2)
O7_15 O 0.9106(3) 0.65828(17) 0.7278(19)
O10_15 O 0.8562(3) 0.68917(16) 0.3974(18)
H23_15 H 0.7727 0.6997 0.9693
C14_16 C 0.6198(4) 0.73504(19) 0.037(2)
C15_16 C 0.6252(4) 0.7501(2) 0.157(3)
H11_16 H 0.6322 0.7482 0.2815
C16_16 C 0.6201(5) 0.7678(3) 0.090(3)
H12_16 H 0.6237 0.7778 0.1695
C17_16 C 0.6247(3) 0.71701(18) 0.119(2)
C20_16 C 0.5887(6) 0.8516(3) 0.084(3)
H15_16 H 0.5797 0.8403 0.1256
C21_16 C 0.5957(5) 0.8653(3) 0.213(3)
H16_16 H 0.5914 0.8633 0.3406
C22_16 C 0.6091(5) 0.8821(2) 0.152(3)
C25_16 C 0.6152(4) 0.89856(18) 0.276(2)
C1_16 C 0.5954(3) 0.81193(18) 0.625(2)
C2_16 C 0.5719(3) 0.81366(19) 0.4476(19)
H1_16 H 0.5748 0.8030 0.3662
H2_16 H 0.5780 0.8247 0.3768
C3_16 C 0.5097(3) 0.81633(17) 0.3875(17)
C4_16 C 0.5148(4) 0.8190(2) 0.195(2)
H3_16 H 0.5379 0.8198 0.1467
C5_16 C 0.4856(4) 0.8205(2) 0.076(2)
C6_16 C 0.4513(3) 0.81943(15) 0.1468(17)
C7_16 C 0.4461(4) 0.81668(16) 0.3397(18)
H5_16 H 0.4230 0.8159 0.3883
C8_16 C 0.4755(3) 0.81510(17) 0.4597(18)
H6_16 H 0.4720 0.8132 0.5885
C9_16 C 0.4189(2) 0.81798(13) 0.0138(17)
C10_16 C 0.5875(4) 0.7910(2) 0.689(2)
H7_16 H 0.5963 0.7824 0.5954
H8_16 H 0.5620 0.7891 0.7067
C11_16 C 0.6096(5) 0.7706(2) 0.904(3)
C12_16 C 0.6042(4) 0.7556(2) 0.785(3)
H9_16 H 0.5972 0.7575 0.6601
C13_16 C 0.6093(4) 0.7378(2) 0.852(2)
H10_16 H 0.6057 0.7278 0.7725
C18_16 C 0.5870(4) 0.82352(18) 0.805(2)
H13_16 H 0.6047 0.8215 0.9038
H14_16 H 0.5633 0.8209 0.8541
C19_16 C 0.5948(6) 0.8543(3) 0.894(3)
C23_16 C 0.6150(5) 0.8848(2) 0.961(3)
H17_16 H 0.6237 0.8960 0.9187
C24_16 C 0.6083(5) 0.8710(3) 0.833(3)
H18_16 H 0.6127 0.8730 0.7055
C26_16 C 0.6360(4) 0.8148(2) 0.572(3)
H19_16 H 0.6505 0.8072 0.6544
H20_16 H 0.6424 0.8275 0.5955
C27_16 C 0.6793(5) 0.8116(3) 0.331(3)
C28_16 C 0.7061(6) 0.8193(3) 0.438(4)
H21_16 H 0.7008 0.8240 0.5571
C29_16 C 0.7407(7) 0.8199(3) 0.372(4)
H22_16 H 0.7586 0.8251 0.4460
C30_16 C 0.7490(5) 0.8128(3) 0.196(3)
C31_16 C 0.7220(5) 0.8051(3) 0.088(3)
C32_16 C 0.6876(6) 0.8045(3) 0.154(3)
H24_16 H 0.6696 0.7994 0.0795
C33_16 C 0.7868(5) 0.8131(2) 0.136(3)
O1_16 O 0.53583(18) 0.81472(10) 0.5172(12)
O2_16 O 0.38840(15) 0.81743(9) 0.0626(9)
O4_16 O 0.6055(3) 0.78929(17) 0.855(2)
O7_16 O 0.5894(3) 0.84172(17) 0.7278(19)
O10_16 O 0.6438(3) 0.81083(16) 0.3974(18)
O13_16 O 0.3271(3) 0.78721(13) 0.1198(14)
O14_16 O 0.3081(3) 0.83040(18) 0.0922(18)
H26_16 H 0.30628 0.781201 0.181695
H27_16 H 0.319067 0.842794 0.0795376
H28_16 H 0.283749 0.831597 0.147402
H4_16 H 0.4891 0.8223 0.9470
H23_16 H 0.7273 0.8003 0.9693
O3_16 O 0.42720(19) 0.81945(12) 0.8333(13)
H25_16 H 0.320592 0.790702 0.988499
loop_
_geom_bond_atom_site_label_1
_geom_bond_atom_site_label_2
_geom_bond_site_symmetry_1
_geom_bond_site_symmetry_2
O8 C25 1_555 1_555
Cd5 O8 1_555 1_555
C1 C2 1_555 1_555
C2 H1 1_555 1_555
H2 C2 1_555 1_555
H5 C7 1_555 1_555
C8 C3 1_555 1_555
H6 C8 1_555 1_555
C10 C1 1_555 1_555
H7 C10 1_555 1_555
H8 C10 1_555 1_555
C11 C12 1_555 1_555
C12 H9 1_555 1_555
C16 C11 1_555 1_555
H12 C16 1_555 1_555
C18 C1 1_555 1_555
H13 C18 1_555 1_555
H14 C18 1_555 1_555
C19 C20 1_555 1_555
C20 H15 1_555 1_555
C21 C20 1_555 1_555
C22 C21 1_555 1_555
C23 C22 1_555 1_555
H17 C23 1_555 1_555
C24 C19 1_555 1_555
H18 C24 1_555 1_555
C26 C1 1_555 1_555
H19 C26 1_555 1_555
H20 C26 1_555 1_555
C27 C28 1_555 1_555
C28 H21 1_555 1_555
C29 C28 1_555 1_555
O1 C2 1_555 1_555
O4 C10 1_555 1_555
O7 C18 1_555 1_555
O10 C26 1_555 1_555
O17 Cd2 1_555 1_555
O20 Cd2 1_555 1_555
O22 Cd2 1_555 1_555
Cd8 O9 1_555 1_555
C3 O1 1_555 1_555
C7 C8 1_555 1_555
C11 O4 1_555 1_555
C15 C16 1_555 1_555
C19 O7 1_555 1_555
C23 C24 1_555 1_555
C27 O10 1_555 1_555
Cd1 O2 1_555 1_555
C4 H3 1_555 1_555
C5 C4 1_555 1_555
H4 C5 1_555 1_555
C6 C5 1_555 1_555
C9 C6 1_555 1_555
C31 C30 1_555 1_555
H23 C31 1_555 1_555
H24 C32 1_555 1_555
O2 C9 1_555 1_555
O3 Cd1 1_555 1_555
O15 Cd1 1_555 1_555
O17 Cd1 1_555 1_555
O18 Cd1 1_555 1_555
O20 Cd1 1_555 1_555
O21 Cd1 1_555 1_555
C9 O3 1_555 1_555
C31 C32 1_555 1_555
O13 H25 1_555 1_555
O13 H26 1_555 1_555
O14 H27 1_555 1_555
O14 H28 1_555 1_555
H10 C13 1_555 1_555
C14 C13 1_555 1_555
C17 C14 1_555 1_555
O6 C17 1_555 1_555
Cd7 O6 1_555 1_555
O6 Cd4 1_555 1_555
O12 C33 1_555 1_555
Cd6 O12 1_555 1_555
O12_2 C33_2 1_555 1_555
Cd7 O12_2 1_555 1_555
H10_2 C13_2 1_555 1_555
C14_2 C13_2 1_555 1_555
C17_2 C14_2 1_555 1_555
O6_2 C17_2 1_555 1_555
Cd6 O6_2 1_555 1_555
O6_2 Cd3 1_555 1_555
O8_2 C25_2 1_555 1_555
Cd5_2 O8_2 1_555 1_555
C1_2 C2_2 1_555 1_555
C2_2 H1_2 1_555 1_555
H2_2 C2_2 1_555 1_555
H5_2 C7_2 1_555 1_555
C8_2 C3_2 1_555 1_555
H6_2 C8_2 1_555 1_555
C10_2 C1_2 1_555 1_555
H7_2 C10_2 1_555 1_555
H8_2 C10_2 1_555 1_555
C11_2 C12_2 1_555 1_555
C12_2 H9_2 1_555 1_555
C16_2 C11_2 1_555 1_555
H12_2 C16_2 1_555 1_555
C18_2 C1_2 1_555 1_555
H13_2 C18_2 1_555 1_555
H14_2 C18_2 1_555 1_555
C19_2 C20_2 1_555 1_555
C20_2 H15_2 1_555 1_555
C21_2 C20_2 1_555 1_555
C22_2 C21_2 1_555 1_555
C23_2 C22_2 1_555 1_555
H17_2 C23_2 1_555 1_555
C24_2 C19_2 1_555 1_555
H18_2 C24_2 1_555 1_555
C26_2 C1_2 1_555 1_555
H19_2 C26_2 1_555 1_555
H20_2 C26_2 1_555 1_555
C27_2 C28_2 1_555 1_555
C28_2 H21_2 1_555 1_555
C29_2 C28_2 1_555 1_555
O1_2 C2_2 1_555 1_555
O4_2 C10_2 1_555 1_555
O7_2 C18_2 1_555 1_555
O10_2 C26_2 1_555 1_555
O17_2 Cd2_2 1_555 1_555
O20_2 Cd2_2 1_555 1_555
O22_2 Cd2_2 1_555 1_555
Cd8_2 O9_2 1_555 1_555
C3_2 O1_2 1_555 1_555
C7_2 C8_2 1_555 1_555
C11_2 O4_2 1_555 1_555
C15_2 C16_2 1_555 1_555
C19_2 O7_2 1_555 1_555
C23_2 C24_2 1_555 1_555
C27_2 O10_2 1_555 1_555
Cd1_2 O2_2 1_555 1_555
C4_2 H3_2 1_555 1_555
C5_2 C4_2 1_555 1_555
H4_2 C5_2 1_555 1_555
C6_2 C5_2 1_555 1_555
C9_2 C6_2 1_555 1_555
C31_2 C30_2 1_555 1_555
H23_2 C31_2 1_555 1_555
H24_2 C32_2 1_555 1_555
O2_2 C9_2 1_555 1_555
O3_2 Cd1_2 1_555 1_555
O15_2 Cd1_2 1_555 1_555
O17_2 Cd1_2 1_555 1_555
O18_2 Cd1_2 1_555 1_555
O20_2 Cd1_2 1_555 1_555
O21_2 Cd1_2 1_555 1_555
C9_2 O3_2 1_555 1_555
C31_2 C32_2 1_555 1_555
O13_2 H25_2 1_555 1_555
O13_2 H26_2 1_555 1_555
O14_2 H27_2 1_555 1_555
O14_2 H28_2 1_555 1_555
C15_3 C14_3 1_555 1_555
H11_3 C15_3 1_555 1_555
H12_3 C16_3 1_555 1_555
C17_3 C14_3 1_555 1_555
C20_3 H15_3 1_555 1_555
C21_3 C20_3 1_555 1_555
H16_3 C21_3 1_555 1_555
C22_3 C21_3 1_555 1_555
C25_3 C22_3 1_555 1_555
O5_3 C17_3 1_555 1_555
O6_3 C17_3 1_555 1_555
O18 C25_3 1_555 1_555
O20 C25_3 1_555 1_555
Cd4_2 O5_3 1_555 1_555
C15_3 C16_3 1_555 1_555
O6_3 Cd4_2 1_555 1_555
C1_3 C2_3 1_555 1_555
C2_3 H1_3 1_555 1_555
H2_3 C2_3 1_555 1_555
C3_3 C4_3 1_555 1_555
C4_3 H3_3 1_555 1_555
C5_3 C4_3 1_555 1_555
C6_3 C5_3 1_555 1_555
C7_3 C6_3 1_555 1_555
H5_3 C7_3 1_555 1_555
C8_3 C3_3 1_555 1_555
H6_3 C8_3 1_555 1_555
C9_3 C6_3 1_555 1_555
C10_3 C1_3 1_555 1_555
H7_3 C10_3 1_555 1_555
H8_3 C10_3 1_555 1_555
C11_3 C12_3 1_555 1_555
C12_3 H9_3 1_555 1_555
C13_3 C12_3 1_555 1_555
H10_3 C13_3 1_555 1_555
C18_3 C1_3 1_555 1_555
H13_3 C18_3 1_555 1_555
H14_3 C18_3 1_555 1_555
H17_3 C23_3 1_555 1_555
C24_3 C19_3 1_555 1_555
H18_3 C24_3 1_555 1_555
C26_3 C1_3 1_555 1_555
H19_3 C26_3 1_555 1_555
H20_3 C26_3 1_555 1_555
C27_3 C28_3 1_555 1_555
C28_3 H21_3 1_555 1_555
C29_3 C28_3 1_555 1_555
H22_3 C29_3 1_555 1_555
C30_3 C29_3 1_555 1_555
C31_3 C30_3 1_555 1_555
C32_3 C27_3 1_555 1_555
H24_3 C32_3 1_555 1_555
C33_3 C30_3 1_555 1_555
O1_3 C2_3 1_555 1_555
O2_3 C9_3 1_555 1_555
O4_3 C10_3 1_555 1_555
O7_3 C18_3 1_555 1_555
O10_3 C26_3 1_555 1_555
O11_3 C33_3 1_555 1_555
Cd2_3 O2_3 1_555 1_555
O13_3 Cd2_3 1_555 1_555
O14_3 Cd2_3 1_555 1_555
Cd5 O11_3 1_555 1_555
O17_3 Cd2_3 1_555 1_555
O20_3 Cd2_3 1_555 1_555
O22_3 Cd2_3 1_555 1_555
C3_3 O1_3 1_555 1_555
C7_3 C8_3 1_555 1_555
C11_3 O4_3 1_555 1_555
C19_3 O7_3 1_555 1_555
C23_3 C24_3 1_555 1_555
C27_3 O10_3 1_555 1_555
C31_3 C32_3 1_555 1_555
O13_3 H26_3 1_555 1_555
O14_3 H27_3 1_555 1_555
O14_3 H28_3 1_555 1_555
O3_3 Cd1_3 1_555 1_555
O15_3 Cd1_3 1_555 1_555
O17_3 Cd1_3 1_555 1_555
O18_3 Cd1_3 1_555 1_555
O20_3 Cd1_3 1_555 1_555
O21_3 Cd1_3 1_555 1_555
Cd8 O12_3 1_555 1_555
C15_4 C14_4 1_555 1_555
H11_4 C15_4 1_555 1_555
H12_4 C16_4 1_555 1_555
C17_4 C14_4 1_555 1_555
C20_4 H15_4 1_555 1_555
C21_4 C20_4 1_555 1_555
H16_4 C21_4 1_555 1_555
C22_4 C21_4 1_555 1_555
C25_4 C22_4 1_555 1_555
O5_4 C17_4 1_555 1_555
O6_4 C17_4 1_555 1_555
O8_3 C25_4 1_555 1_555
O9_3 C25_4 1_555 1_555
Cd5 O5_4 1_555 1_555
Cd5_3 O8_3 1_555 1_555
Cd8_3 O9_3 1_555 1_555
C15_4 C16_4 1_555 1_555
O6_4 Cd5 1_555 1_555
O9_3 Cd5_3 1_555 1_555
C1_4 C2_4 1_555 1_555
C2_4 H1_4 1_555 1_555
H2_4 C2_4 1_555 1_555
C3_4 C4_4 1_555 1_555
C4_4 H3_4 1_555 1_555
C10_4 C1_4 1_555 1_555
H7_4 C10_4 1_555 1_555
H8_4 C10_4 1_555 1_555
C11_4 C12_4 1_555 1_555
C12_4 H9_4 1_555 1_555
C13_4 C12_4 1_555 1_555
H10_4 C13_4 1_555 1_555
C18_4 C1_4 1_555 1_555
H13_4 C18_4 1_555 1_555
H14_4 C18_4 1_555 1_555
H17_4 C23_4 1_555 1_555
C24_4 C19_4 1_555 1_555
H18_4 C24_4 1_555 1_555
C26_4 C1_4 1_555 1_555
H19_4 C26_4 1_555 1_555
H20_4 C26_4 1_555 1_555
C27_4 C28_4 1_555 1_555
C28_4 H21_4 1_555 1_555
C29_4 C28_4 1_555 1_555
H22_4 C29_4 1_555 1_555
C30_4 C29_4 1_555 1_555
C31_4 C30_4 1_555 1_555
C32_4 C27_4 1_555 1_555
H24_4 C32_4 1_555 1_555
C33_4 C30_4 1_555 1_555
O1_4 C2_4 1_555 1_555
O4_4 C10_4 1_555 1_555
O7_4 C18_4 1_555 1_555
O10_4 C26_4 1_555 1_555
O11_4 C33_4 1_555 1_555
Cd4_2 O11_4 1_555 1_555
C3_4 O1_4 1_555 1_555
C11_4 O4_4 1_555 1_555
C19_4 O7_4 1_555 1_555
C23_4 C24_4 1_555 1_555
C27_4 O10_4 1_555 1_555
C31_4 C32_4 1_555 1_555
Cd7_2 O12_4 1_555 1_555
C6_4 C5_4 1_555 1_555
C7_4 C6_4 1_555 1_555
H5_4 C7_4 1_555 1_555
H6_4 C8_4 1_555 1_555
C9_4 C6_4 1_555 1_555
O2_4 C9_4 1_555 1_555
Cd2_4 O2_4 1_555 1_555
O13_4 Cd2_4 1_555 1_555
O14_4 Cd2_4 1_555 1_555
O17_4 Cd2_4 1_555 1_555
O20_4 Cd2_4 1_555 1_555
O22_4 Cd2_4 1_555 1_555
C7_4 C8_4 1_555 1_555
O13_4 H26_4 1_555 1_555
O14_4 H27_4 1_555 1_555
O14_4 H28_4 1_555 1_555
O3_4 Cd1_4 1_555 1_555
O15_4 Cd1_4 1_555 1_555
O17_4 Cd1_4 1_555 1_555
O18_4 Cd1_4 1_555 1_555
O20_4 Cd1_4 1_555 1_555
O21_4 Cd1_4 1_555 1_555
C11_5 C12_5 1_555 1_555
C13_5 C12_5 1_555 1_555
H10_5 C13_5 1_555 1_555
C14_5 C13_5 1_555 1_555
C15_5 C14_5 1_555 1_555
H11_5 C15_5 1_555 1_555
C16_5 C11_5 1_555 1_555
H12_5 C16_5 1_555 1_555
C17_5 C14_5 1_555 1_555
H13_5 C18_5 1_555 1_555
H14_5 C18_5 1_555 1_555
C19_5 C20_5 1_555 1_555
C20_5 H15_5 1_555 1_555
C21_5 C20_5 1_555 1_555
H16_5 C21_5 1_555 1_555
C22_5 C21_5 1_555 1_555
C23_5 C22_5 1_555 1_555
H17_5 C23_5 1_555 1_555
C24_5 C19_5 1_555 1_555
C25_5 C22_5 1_555 1_555
O5_5 C17_5 1_555 1_555
O6_5 C17_5 1_555 1_555
O8_4 C25_5 1_555 1_555
O9_4 C25_5 1_555 1_555
Cd5_3 O5_5 1_555 1_555
Cd5_4 O8_4 1_555 1_555
Cd8_3 O6_5 1_555 1_555
Cd8_4 O9_4 1_555 1_555
C11_5 O4_5 1_555 1_555
C15_5 C16_5 1_555 1_555
C23_5 C24_5 1_555 1_555
O6_5 Cd5_3 1_555 1_555
O9_4 Cd5_4 1_555 1_555
C1_5 C2_5 1_555 1_555
C2_5 H1_5 1_555 1_555
H2_5 C2_5 1_555 1_555
C3_5 C4_5 1_555 1_555
C4_5 H3_5 1_555 1_555
C5_5 C4_5 1_555 1_555
H4_5 C5_5 1_555 1_555
C6_5 C5_5 1_555 1_555
C7_5 C6_5 1_555 1_555
H5_5 C7_5 1_555 1_555
C8_5 C3_5 1_555 1_555
H6_5 C8_5 1_555 1_555
C9_5 C6_5 1_555 1_555
C10_5 C1_5 1_555 1_555
H7_5 C10_5 1_555 1_555
H8_5 C10_5 1_555 1_555
C26_5 C1_5 1_555 1_555
H19_5 C26_5 1_555 1_555
H20_5 C26_5 1_555 1_555
C27_5 C28_5 1_555 1_555
C28_5 H21_5 1_555 1_555
C29_5 C28_5 1_555 1_555
C30_5 C29_5 1_555 1_555
C31_5 C30_5 1_555 1_555
H23_5 C31_5 1_555 1_555
C32_5 C27_5 1_555 1_555
H24_5 C32_5 1_555 1_555
O1_5 C2_5 1_555 1_555
O2_5 C9_5 1_555 1_555
O10_5 C26_5 1_555 1_555
Cd2_5 O2_5 1_555 1_555
O13_5 Cd2_5 1_555 1_555
O14_5 Cd2_5 1_555 1_555
O17_5 Cd2_5 1_555 1_555
O20_5 Cd2_5 1_555 1_555
O22_5 Cd2_5 1_555 1_555
C3_5 O1_5 1_555 1_555
C7_5 C8_5 1_555 1_555
C9_5 O3_5 1_555 1_555
C27_5 O10_5 1_555 1_555
C31_5 C32_5 1_555 1_555
O13_5 H25_5 1_555 1_555
O13_5 H26_5 1_555 1_555
O14_5 H27_5 1_555 1_555
O14_5 H28_5 1_555 1_555
O17_5 Cd1_5 1_555 1_555
O18_5 Cd1_5 1_555 1_555
O20_5 Cd1_5 1_555 1_555
O11_5 C33_5 1_555 1_555
O12_5 C33_5 1_555 1_555
Cd3_2 O11_5 1_555 1_555
Cd6_2 O12_5 1_555 1_555
O11_6 C33_6 1_555 1_555
O12_6 C33_6 1_555 1_555
Cd5_3 O11_6 1_555 1_555
Cd8_3 O12_6 1_555 1_555
C11_6 C12_6 1_555 1_555
C13_6 C12_6 1_555 1_555
H10_6 C13_6 1_555 1_555
C14_6 C13_6 1_555 1_555
C15_6 C14_6 1_555 1_555
H11_6 C15_6 1_555 1_555
C16_6 C11_6 1_555 1_555
H12_6 C16_6 1_555 1_555
C17_6 C14_6 1_555 1_555
H13_6 C18_6 1_555 1_555
H14_6 C18_6 1_555 1_555
C19_6 C20_6 1_555 1_555
C20_6 H15_6 1_555 1_555
C21_6 C20_6 1_555 1_555
H16_6 C21_6 1_555 1_555
C22_6 C21_6 1_555 1_555
C23_6 C22_6 1_555 1_555
H17_6 C23_6 1_555 1_555
C24_6 C19_6 1_555 1_555
C25_6 C22_6 1_555 1_555
O5_6 C17_6 1_555 1_555
O6_6 C17_6 1_555 1_555
O18_4 C25_6 1_555 1_555
O20_4 C25_6 1_555 1_555
Cd3_2 O5_6 1_555 1_555
Cd6_2 O6_6 1_555 1_555
C11_6 O4_6 1_555 1_555
C15_6 C16_6 1_555 1_555
C23_6 C24_6 1_555 1_555
O6_6 Cd3_2 1_555 1_555
C1_6 C2_6 1_555 1_555
C2_6 H1_6 1_555 1_555
H2_6 C2_6 1_555 1_555
C3_6 C4_6 1_555 1_555
C4_6 H3_6 1_555 1_555
C5_6 C4_6 1_555 1_555
H4_6 C5_6 1_555 1_555
C6_6 C5_6 1_555 1_555
C7_6 C6_6 1_555 1_555
H5_6 C7_6 1_555 1_555
C8_6 C3_6 1_555 1_555
H6_6 C8_6 1_555 1_555
C9_6 C6_6 1_555 1_555
C10_6 C1_6 1_555 1_555
H7_6 C10_6 1_555 1_555
H8_6 C10_6 1_555 1_555
C26_6 C1_6 1_555 1_555
H19_6 C26_6 1_555 1_555
H20_6 C26_6 1_555 1_555
C27_6 C28_6 1_555 1_555
C28_6 H21_6 1_555 1_555
C29_6 C28_6 1_555 1_555
C30_6 C29_6 1_555 1_555
C31_6 C30_6 1_555 1_555
H23_6 C31_6 1_555 1_555
C32_6 C27_6 1_555 1_555
H24_6 C32_6 1_555 1_555
O1_6 C2_6 1_555 1_555
O2_6 C9_6 1_555 1_555
O10_6 C26_6 1_555 1_555
Cd2_6 O2_6 1_555 1_555
O13_6 Cd2_6 1_555 1_555
O14_6 Cd2_6 1_555 1_555
O17_6 Cd2_6 1_555 1_555
O20_6 Cd2_6 1_555 1_555
O22_6 Cd2_6 1_555 1_555
C3_6 O1_6 1_555 1_555
C7_6 C8_6 1_555 1_555
C9_6 O3_6 1_555 1_555
C27_6 O10_6 1_555 1_555
C31_6 C32_6 1_555 1_555
O13_6 H25_6 1_555 1_555
O13_6 H26_6 1_555 1_555
O14_6 H27_6 1_555 1_555
O14_6 H28_6 1_555 1_555
O17_6 Cd1_6 1_555 1_555
O18_6 Cd1_6 1_555 1_555
O20_6 Cd1_6 1_555 1_555
C10_7 C1_7 1_555 1_555
H7_7 C10_7 1_555 1_555
H8_7 C10_7 1_555 1_555
C11_7 C12_7 1_555 1_555
C12_7 H9_7 1_555 1_555
C13_7 C12_7 1_555 1_555
H10_7 C13_7 1_555 1_555
C14_7 C13_7 1_555 1_555
C15_7 C14_7 1_555 1_555
H11_7 C15_7 1_555 1_555
C16_7 C11_7 1_555 1_555
H12_7 C16_7 1_555 1_555
C17_7 C14_7 1_555 1_555
C18_7 C1_7 1_555 1_555
H13_7 C18_7 1_555 1_555
H14_7 C18_7 1_555 1_555
C19_7 C20_7 1_555 1_555
C20_7 H15_7 1_555 1_555
C21_7 C20_7 1_555 1_555
H16_7 C21_7 1_555 1_555
C22_7 C21_7 1_555 1_555
C23_7 C22_7 1_555 1_555
H17_7 C23_7 1_555 1_555
C24_7 C19_7 1_555 1_555
H18_7 C24_7 1_555 1_555
C25_7 C22_7 1_555 1_555
C26_7 C1_7 1_555 1_555
H19_7 C26_7 1_555 1_555
H20_7 C26_7 1_555 1_555
O4_7 C10_7 1_555 1_555
O5_7 C17_7 1_555 1_555
O6_7 C17_7 1_555 1_555
O7_7 C18_7 1_555 1_555
O18_5 C25_7 1_555 1_555
O20_5 C25_7 1_555 1_555
Cd4_3 O5_7 1_555 1_555
Cd7_3 O6_7 1_555 1_555
C11_7 O4_7 1_555 1_555
C15_7 C16_7 1_555 1_555
C19_7 O7_7 1_555 1_555
C23_7 C24_7 1_555 1_555
O6_7 Cd4_3 1_555 1_555
Cd1_7 O2_7 1_555 1_555
C2_7 H1_7 1_555 1_555
H2_7 C2_7 1_555 1_555
C3_7 C4_7 1_555 1_555
C4_7 H3_7 1_555 1_555
C5_7 C4_7 1_555 1_555
H4_7 C5_7 1_555 1_555
C6_7 C5_7 1_555 1_555
C7_7 C6_7 1_555 1_555
H5_7 C7_7 1_555 1_555
C8_7 C3_7 1_555 1_555
C9_7 C6_7 1_555 1_555
C27_7 C28_7 1_555 1_555
C29_7 C28_7 1_555 1_555
H22_7 C29_7 1_555 1_555
C30_7 C29_7 1_555 1_555
C31_7 C30_7 1_555 1_555
H23_7 C31_7 1_555 1_555
C32_7 C27_7 1_555 1_555
H24_7 C32_7 1_555 1_555
C33_7 C30_7 1_555 1_555
O2_7 C9_7 1_555 1_555
O3_7 Cd1_7 1_555 1_555
O11_7 C33_7 1_555 1_555
O12_7 C33_7 1_555 1_555
Cd2_7 O2_7 1_555 1_555
O13_7 Cd2_7 1_555 1_555
O14_7 Cd2_7 1_555 1_555
Cd5_4 O11_7 1_555 1_555
O15_7 Cd1_7 1_555 1_555
O17_7 Cd1_7 1_555 1_555
O18_7 Cd1_7 1_555 1_555
O20_7 Cd2_7 1_555 1_555
O21_7 Cd1_7 1_555 1_555
O22_7 Cd2_7 1_555 1_555
Cd8_4 O12_7 1_555 1_555
C7_7 C8_7 1_555 1_555
C9_7 O3_7 1_555 1_555
C27_7 O10_7 1_555 1_555
C31_7 C32_7 1_555 1_555
O13_7 H25_7 1_555 1_555
O13_7 H26_7 1_555 1_555
O14_7 H27_7 1_555 1_555
O14_7 H28_7 1_555 1_555
C10_8 C1_8 1_555 1_555
H7_8 C10_8 1_555 1_555
H8_8 C10_8 1_555 1_555
C11_8 C12_8 1_555 1_555
C12_8 H9_8 1_555 1_555
C13_8 C12_8 1_555 1_555
H10_8 C13_8 1_555 1_555
C14_8 C13_8 1_555 1_555
C15_8 C14_8 1_555 1_555
H11_8 C15_8 1_555 1_555
C16_8 C11_8 1_555 1_555
H12_8 C16_8 1_555 1_555
C17_8 C14_8 1_555 1_555
C18_8 C1_8 1_555 1_555
H13_8 C18_8 1_555 1_555
H14_8 C18_8 1_555 1_555
C19_8 C20_8 1_555 1_555
C20_8 H15_8 1_555 1_555
C21_8 C20_8 1_555 1_555
H16_8 C21_8 1_555 1_555
C22_8 C21_8 1_555 1_555
C23_8 C22_8 1_555 1_555
H17_8 C23_8 1_555 1_555
C24_8 C19_8 1_555 1_555
H18_8 C24_8 1_555 1_555
C25_8 C22_8 1_555 1_555
C26_8 C1_8 1_555 1_555
H19_8 C26_8 1_555 1_555
H20_8 C26_8 1_555 1_555
O4_8 C10_8 1_555 1_555
O5_8 C17_8 1_555 1_555
O6_8 C17_8 1_555 1_555
O7_8 C18_8 1_555 1_555
O8_5 C25_8 1_555 1_555
O9_5 C25_8 1_555 1_555
Cd5_4 O5_8 1_555 1_555
Cd4 O8_5 1_555 1_555
Cd8_4 O6_8 1_555 1_555
Cd7 O9_5 1_555 1_555
C11_8 O4_8 1_555 1_555
C15_8 C16_8 1_555 1_555
C19_8 O7_8 1_555 1_555
C23_8 C24_8 1_555 1_555
O6_8 Cd5_4 1_555 1_555
O9_5 Cd4 1_555 1_555
C2_8 H1_8 1_555 1_555
H2_8 C2_8 1_555 1_555
C3_8 C4_8 1_555 1_555
C4_8 H3_8 1_555 1_555
C27_8 C28_8 1_555 1_555
C29_8 C28_8 1_555 1_555
H22_8 C29_8 1_555 1_555
C30_8 C29_8 1_555 1_555
C31_8 C30_8 1_555 1_555
H23_8 C31_8 1_555 1_555
C32_8 C27_8 1_555 1_555
H24_8 C32_8 1_555 1_555
C33_8 C30_8 1_555 1_555
O11_8 C33_8 1_555 1_555
O12_8 C33_8 1_555 1_555
Cd4_3 O11_8 1_555 1_555
Cd7_3 O12_8 1_555 1_555
C27_8 O10_8 1_555 1_555
C31_8 C32_8 1_555 1_555
Cd5_2 O2_8 1_555 1_555
H4_8 C5_8 1_555 1_555
C6_8 C5_8 1_555 1_555
C7_8 C6_8 1_555 1_555
H5_8 C7_8 1_555 1_555
C9_8 C6_8 1_555 1_555
O2_8 C9_8 1_555 1_555
O3_8 Cd5_2 1_555 1_555
Cd8_2 O2_8 1_555 1_555
O13_8 Cd8_2 1_555 1_555
O14_8 Cd8_2 1_555 1_555
O15_8 Cd5_2 1_555 1_555
O17_8 Cd5_2 1_555 1_555
O21_8 Cd5_2 1_555 1_555
O22_8 Cd8_2 1_555 1_555
C7_8 C8_8 1_555 1_555
C9_8 O3_8 1_555 1_555
O13_8 H25_8 1_555 1_555
O13_8 H26_8 1_555 1_555
O14_8 H27_8 1_555 1_555
O14_8 H28_8 1_555 1_555
C11_9 C12_9 1_555 1_555
C16_9 C11_9 1_555 1_555
H12_9 C16_9 1_555 1_555
H13_9 C18_9 1_555 1_555
H14_9 C18_9 1_555 1_555
C19_9 C20_9 1_555 1_555
C20_9 H15_9 1_555 1_555
C21_9 C20_9 1_555 1_555
H16_9 C21_9 1_555 1_555
C22_9 C21_9 1_555 1_555
C23_9 C22_9 1_555 1_555
H17_9 C23_9 1_555 1_555
C24_9 C19_9 1_555 1_555
C25_9 C22_9 1_555 1_555
O18_3 C25_9 1_555 1_555
O20_3 C25_9 1_555 1_555
C11_9 O4_9 1_555 1_555
C15_9 C16_9 1_555 1_555
C23_9 C24_9 1_555 1_555
C1_9 C2_9 1_555 1_555
C2_9 H1_9 1_555 1_555
H2_9 C2_9 1_555 1_555
C3_9 C4_9 1_555 1_555
C4_9 H3_9 1_555 1_555
C5_9 C4_9 1_555 1_555
H4_9 C5_9 1_555 1_555
C6_9 C5_9 1_555 1_555
C7_9 C6_9 1_555 1_555
H5_9 C7_9 1_555 1_555
C8_9 C3_9 1_555 1_555
H6_9 C8_9 1_555 1_555
C9_9 C6_9 1_555 1_555
C10_9 C1_9 1_555 1_555
H7_9 C10_9 1_555 1_555
H8_9 C10_9 1_555 1_555
C26_9 C1_9 1_555 1_555
H19_9 C26_9 1_555 1_555
H20_9 C26_9 1_555 1_555
C27_9 C28_9 1_555 1_555
C28_9 H21_9 1_555 1_555
C29_9 C28_9 1_555 1_555
H22_9 C29_9 1_555 1_555
C30_9 C29_9 1_555 1_555
C31_9 C30_9 1_555 1_555
H23_9 C31_9 1_555 1_555
C32_9 C27_9 1_555 1_555
H24_9 C32_9 1_555 1_555
C33_9 C30_9 1_555 1_555
O1_9 C2_9 1_555 1_555
O2_9 C9_9 1_555 1_555
O10_9 C26_9 1_555 1_555
O21 C33_9 1_555 1_555
O22 C33_9 1_555 1_555
Cd6 O2_9 1_555 1_555
O13_9 Cd6 1_555 1_555
O14_9 Cd6 1_555 1_555
O20_8 Cd6 1_555 1_555
C3_9 O1_9 1_555 1_555
C7_9 C8_9 1_555 1_555
C9_9 O3_9 1_555 1_555
C27_9 O10_9 1_555 1_555
C31_9 C32_9 1_555 1_555
O13_9 H25_9 1_555 1_555
O13_9 H26_9 1_555 1_555
O14_9 H27_9 1_555 1_555
O14_9 H28_9 1_555 1_555
O18_8 Cd3 1_555 1_555
O20_8 Cd3 1_555 1_555
H10_9 C13_9 1_555 1_555
C14_9 C13_9 1_555 1_555
C17_9 C14_9 1_555 1_555
O15_2 C17_9 1_555 1_555
O17_2 C17_9 1_555 1_555
H10_10 C13_10 1_555 1_555
C14_10 C13_10 1_555 1_555
C17_10 C14_10 1_555 1_555
O15 C17_10 1_555 1_555
O17 C17_10 1_555 1_555
C11_10 C12_10 1_555 1_555
C16_10 C11_10 1_555 1_555
H12_10 C16_10 1_555 1_555
H13_10 C18_10 1_555 1_555
H14_10 C18_10 1_555 1_555
C19_10 C20_10 1_555 1_555
C20_10 H15_10 1_555 1_555
C21_10 C20_10 1_555 1_555
H16_10 C21_10 1_555 1_555
C22_10 C21_10 1_555 1_555
C23_10 C22_10 1_555 1_555
H17_10 C23_10 1_555 1_555
C24_10 C19_10 1_555 1_555
C25_10 C22_10 1_555 1_555
O8_6 C25_10 1_555 1_555
O9_6 C25_10 1_555 1_555
Cd4_3 O8_6 1_555 1_555
Cd7_3 O9_6 1_555 1_555
C11_10 O4_10 1_555 1_555
C15_10 C16_10 1_555 1_555
C23_10 C24_10 1_555 1_555
O9_6 Cd4_3 1_555 1_555
C1_10 C2_10 1_555 1_555
C2_10 H1_10 1_555 1_555
H2_10 C2_10 1_555 1_555
C3_10 C4_10 1_555 1_555
C4_10 H3_10 1_555 1_555
C5_10 C4_10 1_555 1_555
H4_10 C5_10 1_555 1_555
C6_10 C5_10 1_555 1_555
C7_10 C6_10 1_555 1_555
H5_10 C7_10 1_555 1_555
C8_10 C3_10 1_555 1_555
H6_10 C8_10 1_555 1_555
C9_10 C6_10 1_555 1_555
C10_10 C1_10 1_555 1_555
H7_10 C10_10 1_555 1_555
H8_10 C10_10 1_555 1_555
C26_10 C1_10 1_555 1_555
H19_10 C26_10 1_555 1_555
H20_10 C26_10 1_555 1_555
C27_10 C28_10 1_555 1_555
C28_10 H21_10 1_555 1_555
C29_10 C28_10 1_555 1_555
H22_10 C29_10 1_555 1_555
C30_10 C29_10 1_555 1_555
C31_10 C30_10 1_555 1_555
H23_10 C31_10 1_555 1_555
C32_10 C27_10 1_555 1_555
H24_10 C32_10 1_555 1_555
C33_10 C30_10 1_555 1_555
O1_10 C2_10 1_555 1_555
O2_10 C9_10 1_555 1_555
O10_10 C26_10 1_555 1_555
O21_2 C33_10 1_555 1_555
O22_2 C33_10 1_555 1_555
Cd7 O2_10 1_555 1_555
O13_10 Cd7 1_555 1_555
O14_10 Cd7 1_555 1_555
C3_10 O1_10 1_555 1_555
C7_10 C8_10 1_555 1_555
C9_10 O3_10 1_555 1_555
C27_10 O10_10 1_555 1_555
C31_10 C32_10 1_555 1_555
O13_10 H25_10 1_555 1_555
O13_10 H26_10 1_555 1_555
O14_10 H27_10 1_555 1_555
O14_10 H28_10 1_555 1_555
Cd5 O2_11 1_555 1_555
H4_11 C5_11 1_555 1_555
C6_11 C5_11 1_555 1_555
C7_11 C6_11 1_555 1_555
H5_11 C7_11 1_555 1_555
C9_11 C6_11 1_555 1_555
O2_11 C9_11 1_555 1_555
O3_11 Cd5 1_555 1_555
Cd8 O2_11 1_555 1_555
O13_11 Cd8 1_555 1_555
O14_11 Cd8 1_555 1_555
C7_11 C8_11 1_555 1_555
C9_11 O3_11 1_555 1_555
O13_11 H25_11 1_555 1_555
O13_11 H26_11 1_555 1_555
O14_11 H27_11 1_555 1_555
O14_11 H28_11 1_555 1_555
C10_11 C1_11 1_555 1_555
H7_11 C10_11 1_555 1_555
H8_11 C10_11 1_555 1_555
C11_11 C12_11 1_555 1_555
C12_11 H9_11 1_555 1_555
C13_11 C12_11 1_555 1_555
H10_11 C13_11 1_555 1_555
C14_11 C13_11 1_555 1_555
C15_11 C14_11 1_555 1_555
H11_11 C15_11 1_555 1_555
C16_11 C11_11 1_555 1_555
H12_11 C16_11 1_555 1_555
C17_11 C14_11 1_555 1_555
C18_11 C1_11 1_555 1_555
H13_11 C18_11 1_555 1_555
H14_11 C18_11 1_555 1_555
C19_11 C20_11 1_555 1_555
C20_11 H15_11 1_555 1_555
C21_11 C20_11 1_555 1_555
H16_11 C21_11 1_555 1_555
C22_11 C21_11 1_555 1_555
C23_11 C22_11 1_555 1_555
H17_11 C23_11 1_555 1_555
C24_11 C19_11 1_555 1_555
H18_11 C24_11 1_555 1_555
C25_11 C22_11 1_555 1_555
C26_11 C1_11 1_555 1_555
H19_11 C26_11 1_555 1_555
H20_11 C26_11 1_555 1_555
O4_11 C10_11 1_555 1_555
O15_4 C17_11 1_555 1_555
O17_4 C17_11 1_555 1_555
O7_11 C18_11 1_555 1_555
O18_8 C25_11 1_555 1_555
O20_8 C25_11 1_555 1_555
C11_11 O4_11 1_555 1_555
C15_11 C16_11 1_555 1_555
C19_11 O7_11 1_555 1_555
C23_11 C24_11 1_555 1_555
C2_11 H1_11 1_555 1_555
H2_11 C2_11 1_555 1_555
C3_11 C4_11 1_555 1_555
C4_11 H3_11 1_555 1_555
C27_11 C28_11 1_555 1_555
C29_11 C28_11 1_555 1_555
H22_11 C29_11 1_555 1_555
C30_11 C29_11 1_555 1_555
C31_11 C30_11 1_555 1_555
H23_11 C31_11 1_555 1_555
C32_11 C27_11 1_555 1_555
H24_11 C32_11 1_555 1_555
C33_11 C30_11 1_555 1_555
O21_3 C33_11 1_555 1_555
O22_3 C33_11 1_555 1_555
C27_11 O10_11 1_555 1_555
C31_11 C32_11 1_555 1_555
C10_12 C1_12 1_555 1_555
H7_12 C10_12 1_555 1_555
H8_12 C10_12 1_555 1_555
C11_12 C12_12 1_555 1_555
C12_12 H9_12 1_555 1_555
C13_12 C12_12 1_555 1_555
H10_12 C13_12 1_555 1_555
C14_12 C13_12 1_555 1_555
C15_12 C14_12 1_555 1_555
H11_12 C15_12 1_555 1_555
C16_12 C11_12 1_555 1_555
H12_12 C16_12 1_555 1_555
C17_12 C14_12 1_555 1_555
C18_12 C1_12 1_555 1_555
H13_12 C18_12 1_555 1_555
H14_12 C18_12 1_555 1_555
C19_12 C20_12 1_555 1_555
C20_12 H15_12 1_555 1_555
C21_12 C20_12 1_555 1_555
H16_12 C21_12 1_555 1_555
C22_12 C21_12 1_555 1_555
C23_12 C22_12 1_555 1_555
H17_12 C23_12 1_555 1_555
C24_12 C19_12 1_555 1_555
H18_12 C24_12 1_555 1_555
C25_12 C22_12 1_555 1_555
C26_12 C1_12 1_555 1_555
H19_12 C26_12 1_555 1_555
H20_12 C26_12 1_555 1_555
O4_12 C10_12 1_555 1_555
O15_3 C17_12 1_555 1_555
O17_3 C17_12 1_555 1_555
O7_12 C18_12 1_555 1_555
O18_6 C25_12 1_555 1_555
O20_6 C25_12 1_555 1_555
C11_12 O4_12 1_555 1_555
C15_12 C16_12 1_555 1_555
C19_12 O7_12 1_555 1_555
C23_12 C24_12 1_555 1_555
Cd4_2 O2_12 1_555 1_555
C2_12 H1_12 1_555 1_555
H2_12 C2_12 1_555 1_555
C3_12 C4_12 1_555 1_555
C4_12 H3_12 1_555 1_555
C5_12 C4_12 1_555 1_555
H4_12 C5_12 1_555 1_555
C6_12 C5_12 1_555 1_555
C7_12 C6_12 1_555 1_555
H5_12 C7_12 1_555 1_555
C8_12 C3_12 1_555 1_555
C9_12 C6_12 1_555 1_555
C27_12 C28_12 1_555 1_555
C29_12 C28_12 1_555 1_555
H22_12 C29_12 1_555 1_555
C30_12 C29_12 1_555 1_555
C31_12 C30_12 1_555 1_555
H23_12 C31_12 1_555 1_555
C32_12 C27_12 1_555 1_555
H24_12 C32_12 1_555 1_555
C33_12 C30_12 1_555 1_555
O2_12 C9_12 1_555 1_555
O3_12 Cd4_2 1_555 1_555
O21_4 C33_12 1_555 1_555
O22_4 C33_12 1_555 1_555
Cd7_2 O2_12 1_555 1_555
O13_12 Cd7_2 1_555 1_555
O14_12 Cd7_2 1_555 1_555
O18_9 Cd4_2 1_555 1_555
O20_9 Cd7_2 1_555 1_555
C7_12 C8_12 1_555 1_555
C9_12 O3_12 1_555 1_555
C27_12 O10_12 1_555 1_555
C31_12 C32_12 1_555 1_555
O13_12 H25_12 1_555 1_555
O13_12 H26_12 1_555 1_555
O14_12 H27_12 1_555 1_555
O14_12 H28_12 1_555 1_555
O18_7 C25_13 1_555 1_555
C1_13 C2_13 1_555 1_555
C2_13 H1_13 1_555 1_555
H2_13 C2_13 1_555 1_555
H5_13 C7_13 1_555 1_555
C8_13 C3_13 1_555 1_555
H6_13 C8_13 1_555 1_555
C10_13 C1_13 1_555 1_555
H7_13 C10_13 1_555 1_555
H8_13 C10_13 1_555 1_555
C11_13 C12_13 1_555 1_555
C12_13 H9_13 1_555 1_555
C13_13 C12_13 1_555 1_555
H10_13 C13_13 1_555 1_555
C14_13 C13_13 1_555 1_555
C15_13 C14_13 1_555 1_555
C16_13 C11_13 1_555 1_555
H12_13 C16_13 1_555 1_555
C17_13 C14_13 1_555 1_555
C18_13 C1_13 1_555 1_555
H13_13 C18_13 1_555 1_555
H14_13 C18_13 1_555 1_555
C19_13 C20_13 1_555 1_555
C20_13 H15_13 1_555 1_555
C21_13 C20_13 1_555 1_555
C22_13 C21_13 1_555 1_555
C23_13 C22_13 1_555 1_555
H17_13 C23_13 1_555 1_555
C24_13 C19_13 1_555 1_555
H18_13 C24_13 1_555 1_555
C26_13 C1_13 1_555 1_555
H19_13 C26_13 1_555 1_555
H20_13 C26_13 1_555 1_555
C27_13 C28_13 1_555 1_555
C28_13 H21_13 1_555 1_555
C29_13 C28_13 1_555 1_555
H22_13 C29_13 1_555 1_555
O1_13 C2_13 1_555 1_555
O4_13 C10_13 1_555 1_555
O17_6 C17_13 1_555 1_555
O7_13 C18_13 1_555 1_555
O10_13 C26_13 1_555 1_555
O20_10 Cd6_2 1_555 1_555
C3_13 O1_13 1_555 1_555
C7_13 C8_13 1_555 1_555
C11_13 O4_13 1_555 1_555
C15_13 C16_13 1_555 1_555
C19_13 O7_13 1_555 1_555
C23_13 C24_13 1_555 1_555
C27_13 O10_13 1_555 1_555
Cd3_2 O2_13 1_555 1_555
C4_13 H3_13 1_555 1_555
C5_13 C4_13 1_555 1_555
H4_13 C5_13 1_555 1_555
C6_13 C5_13 1_555 1_555
C9_13 C6_13 1_555 1_555
C31_13 C30_13 1_555 1_555
H23_13 C31_13 1_555 1_555
H24_13 C32_13 1_555 1_555
C33_13 C30_13 1_555 1_555
O2_13 C9_13 1_555 1_555
O3_13 Cd3_2 1_555 1_555
O22_5 C33_13 1_555 1_555
O18_10 Cd3_2 1_555 1_555
O20_10 Cd3_2 1_555 1_555
C9_13 O3_13 1_555 1_555
C31_13 C32_13 1_555 1_555
O13_13 H25_13 1_555 1_555
O13_13 H26_13 1_555 1_555
O14_13 H27_13 1_555 1_555
O14_13 H28_13 1_555 1_555
O18_9 C25_14 1_555 1_555
C1_14 C2_14 1_555 1_555
C2_14 H1_14 1_555 1_555
H2_14 C2_14 1_555 1_555
H5_14 C7_14 1_555 1_555
C8_14 C3_14 1_555 1_555
H6_14 C8_14 1_555 1_555
C10_14 C1_14 1_555 1_555
H7_14 C10_14 1_555 1_555
H8_14 C10_14 1_555 1_555
C11_14 C12_14 1_555 1_555
C12_14 H9_14 1_555 1_555
C13_14 C12_14 1_555 1_555
H10_14 C13_14 1_555 1_555
C14_14 C13_14 1_555 1_555
C15_14 C14_14 1_555 1_555
C16_14 C11_14 1_555 1_555
H12_14 C16_14 1_555 1_555
C17_14 C14_14 1_555 1_555
C18_14 C1_14 1_555 1_555
H13_14 C18_14 1_555 1_555
H14_14 C18_14 1_555 1_555
C19_14 C20_14 1_555 1_555
C20_14 H15_14 1_555 1_555
C21_14 C20_14 1_555 1_555
C22_14 C21_14 1_555 1_555
C23_14 C22_14 1_555 1_555
H17_14 C23_14 1_555 1_555
C24_14 C19_14 1_555 1_555
H18_14 C24_14 1_555 1_555
C26_14 C1_14 1_555 1_555
H19_14 C26_14 1_555 1_555
H20_14 C26_14 1_555 1_555
C27_14 C28_14 1_555 1_555
C28_14 H21_14 1_555 1_555
C29_14 C28_14 1_555 1_555
H22_14 C29_14 1_555 1_555
O1_14 C2_14 1_555 1_555
O4_14 C10_14 1_555 1_555
O17_5 C17_14 1_555 1_555
O7_14 C18_14 1_555 1_555
O10_14 C26_14 1_555 1_555
C3_14 O1_14 1_555 1_555
C7_14 C8_14 1_555 1_555
C11_14 O4_14 1_555 1_555
C15_14 C16_14 1_555 1_555
C19_14 O7_14 1_555 1_555
C23_14 C24_14 1_555 1_555
C27_14 O10_14 1_555 1_555
Cd5_3 O2_14 1_555 1_555
C4_14 H3_14 1_555 1_555
C5_14 C4_14 1_555 1_555
H4_14 C5_14 1_555 1_555
C6_14 C5_14 1_555 1_555
C9_14 C6_14 1_555 1_555
C31_14 C30_14 1_555 1_555
H23_14 C31_14 1_555 1_555
H24_14 C32_14 1_555 1_555
C33_14 C30_14 1_555 1_555
O2_14 C9_14 1_555 1_555
O3_14 Cd5_3 1_555 1_555
O22_6 C33_14 1_555 1_555
C9_14 O3_14 1_555 1_555
C31_14 C32_14 1_555 1_555
O13_14 H25_14 1_555 1_555
O13_14 H26_14 1_555 1_555
O14_14 H27_14 1_555 1_555
O14_14 H28_14 1_555 1_555
C6_15 C5_15 1_555 1_555
C7_15 C6_15 1_555 1_555
H5_15 C7_15 1_555 1_555
H6_15 C8_15 1_555 1_555
C9_15 C6_15 1_555 1_555
O2_15 C9_15 1_555 1_555
Cd8_4 O2_15 1_555 1_555
O13_15 Cd8_4 1_555 1_555
O14_15 Cd8_4 1_555 1_555
C7_15 C8_15 1_555 1_555
O13_15 H26_15 1_555 1_555
O14_15 H27_15 1_555 1_555
O14_15 H28_15 1_555 1_555
O3_15 Cd5_4 1_555 1_555
C15_15 C14_15 1_555 1_555
H11_15 C15_15 1_555 1_555
H12_15 C16_15 1_555 1_555
C17_15 C14_15 1_555 1_555
C20_15 H15_15 1_555 1_555
C21_15 C20_15 1_555 1_555
H16_15 C21_15 1_555 1_555
C22_15 C21_15 1_555 1_555
C25_15 C22_15 1_555 1_555
O15_8 C17_15 1_555 1_555
O17_8 C17_15 1_555 1_555
O18_10 C25_15 1_555 1_555
O20_10 C25_15 1_555 1_555
C15_15 C16_15 1_555 1_555
C1_15 C2_15 1_555 1_555
C2_15 H1_15 1_555 1_555
H2_15 C2_15 1_555 1_555
C3_15 C4_15 1_555 1_555
C4_15 H3_15 1_555 1_555
C10_15 C1_15 1_555 1_555
H7_15 C10_15 1_555 1_555
H8_15 C10_15 1_555 1_555
C11_15 C12_15 1_555 1_555
C12_15 H9_15 1_555 1_555
C13_15 C12_15 1_555 1_555
H10_15 C13_15 1_555 1_555
C18_15 C1_15 1_555 1_555
H13_15 C18_15 1_555 1_555
H14_15 C18_15 1_555 1_555
H17_15 C23_15 1_555 1_555
C24_15 C19_15 1_555 1_555
H18_15 C24_15 1_555 1_555
C26_15 C1_15 1_555 1_555
H19_15 C26_15 1_555 1_555
H20_15 C26_15 1_555 1_555
C27_15 C28_15 1_555 1_555
C28_15 H21_15 1_555 1_555
C29_15 C28_15 1_555 1_555
H22_15 C29_15 1_555 1_555
C30_15 C29_15 1_555 1_555
C31_15 C30_15 1_555 1_555
C32_15 C27_15 1_555 1_555
H24_15 C32_15 1_555 1_555
C33_15 C30_15 1_555 1_555
O1_15 C2_15 1_555 1_555
O4_15 C10_15 1_555 1_555
O7_15 C18_15 1_555 1_555
O10_15 C26_15 1_555 1_555
O21_7 C33_15 1_555 1_555
C3_15 O1_15 1_555 1_555
C11_15 O4_15 1_555 1_555
C19_15 O7_15 1_555 1_555
C23_15 C24_15 1_555 1_555
C27_15 O10_15 1_555 1_555
C31_15 C32_15 1_555 1_555
C15_16 C14_16 1_555 1_555
H11_16 C15_16 1_555 1_555
H12_16 C16_16 1_555 1_555
C17_16 C14_16 1_555 1_555
C20_16 H15_16 1_555 1_555
C21_16 C20_16 1_555 1_555
H16_16 C21_16 1_555 1_555
C22_16 C21_16 1_555 1_555
C25_16 C22_16 1_555 1_555
O15_7 C17_16 1_555 1_555
O17_7 C17_16 1_555 1_555
O18_2 C25_16 1_555 1_555
O20_2 C25_16 1_555 1_555
C15_16 C16_16 1_555 1_555
C1_16 C2_16 1_555 1_555
C2_16 H1_16 1_555 1_555
H2_16 C2_16 1_555 1_555
C3_16 C4_16 1_555 1_555
C4_16 H3_16 1_555 1_555
C5_16 C4_16 1_555 1_555
C6_16 C5_16 1_555 1_555
C7_16 C6_16 1_555 1_555
H5_16 C7_16 1_555 1_555
C8_16 C3_16 1_555 1_555
H6_16 C8_16 1_555 1_555
C9_16 C6_16 1_555 1_555
C10_16 C1_16 1_555 1_555
H7_16 C10_16 1_555 1_555
H8_16 C10_16 1_555 1_555
C11_16 C12_16 1_555 1_555
C12_16 H9_16 1_555 1_555
C13_16 C12_16 1_555 1_555
H10_16 C13_16 1_555 1_555
C18_16 C1_16 1_555 1_555
H13_16 C18_16 1_555 1_555
H14_16 C18_16 1_555 1_555
H17_16 C23_16 1_555 1_555
C24_16 C19_16 1_555 1_555
H18_16 C24_16 1_555 1_555
C26_16 C1_16 1_555 1_555
H19_16 C26_16 1_555 1_555
H20_16 C26_16 1_555 1_555
C27_16 C28_16 1_555 1_555
C28_16 H21_16 1_555 1_555
C29_16 C28_16 1_555 1_555
H22_16 C29_16 1_555 1_555
C30_16 C29_16 1_555 1_555
C31_16 C30_16 1_555 1_555
C32_16 C27_16 1_555 1_555
H24_16 C32_16 1_555 1_555
C33_16 C30_16 1_555 1_555
O1_16 C2_16 1_555 1_555
O2_16 C9_16 1_555 1_555
O4_16 C10_16 1_555 1_555
O7_16 C18_16 1_555 1_555
O10_16 C26_16 1_555 1_555
O21_8 C33_16 1_555 1_555
Cd7_3 O2_16 1_555 1_555
O13_16 Cd7_3 1_555 1_555
O14_16 Cd7_3 1_555 1_555
C3_16 O1_16 1_555 1_555
C7_16 C8_16 1_555 1_555
C11_16 O4_16 1_555 1_555
C19_16 O7_16 1_555 1_555
C23_16 C24_16 1_555 1_555
C27_16 O10_16 1_555 1_555
C31_16 C32_16 1_555 1_555
O13_16 H26_16 1_555 1_555
O14_16 H27_16 1_555 1_555
O14_16 H28_16 1_555 1_555
O3_16 Cd4_3 1_555 1_555

#END
