
###############################################################################
#
# This file contains modified crystal structure data generated from the
# MOF subset of the Cambridge Structural Database (CSD) v543 
# hosted by the Cambridge Crystallographic Data Centre (CCDC).
#
# This work is licensed under the Creative Commons
# Attribution-NonCommercial-ShareAlike 4.0 International License.
# To view a copy of this license, visit
# http://creativecommons.org/licenses/by-nc-sa/4.0/
# or send a letter to
# Creative Commons, PO Box 1866, Mountain View, CA 94042, USA.
#
# CIF created using the CSD Python API on 29 September 2022
# The structure has been converted into the P1 space group
# The structure has a 3D framework
# The original CSD entry WIWHUG is in the monoclinic crystal system
# The original CSD entry WIWHUG is in a Sohncke space group
# The framework has been calculated to contain at least 10.0% void space
# The void calculation uses a probe of radius 1.32A, grid spacing 0.4
#
###############################################################################

data_WIWHUG
_chemical_formula_moiety         '(C40 H40 Cu4 N8 O14)n'
_symmetry_cell_setting           triclinic
_symmetry_space_group_name_H-M   'P 1'
_symmetry_Int_Tables_number      1
_space_group_name_Hall           'P 1'
loop_
_symmetry_equiv_pos_site_id
_symmetry_equiv_pos_as_xyz
1 x,y,z
_cell_length_a                   6.6444(9)
_cell_length_b                   24.942(3)
_cell_length_c                   7.9004(11)
_cell_angle_alpha                90
_cell_angle_beta                 91.713(2)
_cell_angle_gamma                90
_cell_volume                     1308.71
loop_
_atom_site_label
_atom_site_type_symbol
_atom_site_fract_x
_atom_site_fract_y
_atom_site_fract_z
H17 H 0.099(5) 0.297(2) 0.370(4)
H19 H 0.059(6) 0.303(2) 0.174(2)
O10 O 0.0756(7) 0.19193(17) 0.5368(5)
O11 O 0.0585(6) 0.20123(17) 0.1287(5)
Cu1 Cu 0.37176(10) 0.31133(2) 0.75362(8)
O1 O 0.5890(7) 0.34228(17) 0.5503(5)
N1 N 0.1963(7) 0.3763(2) 0.7160(5)
C1 C 0.2582(9) 0.4197(2) 0.6337(7)
H1 H 0.3886 0.4196 0.5876
Cu2 Cu 0.87093(10) 0.23275(2) 0.28449(8)
O2 O 0.7090(6) 0.26299(17) 0.4665(5)
C2 C 0.1385(11) 0.4650(3) 0.6133(7)
H2 H 0.1857 0.4950 0.5518
N3 N 0.9960(7) 0.3056(2) 0.2835(6)
O4 O 0.6244(7) 0.27870(18) 0.0972(6)
N4 N 0.5038(8) 0.2402(2) 0.7761(6)
O5 O 0.2056(6) 0.27210(18) 0.5824(5)
C5 C 0.0083(10) 0.3758(3) 0.7763(8)
O7 O 0.1327(6) 0.26898(17) 0.9555(5)
C13 C 0.6996(8) 0.3142(3) 0.4630(7)
C14 C 0.8382(8) 0.3437(2) 0.3356(7)
H11 H 0.9059 0.3741 0.3971
C15 C 0.7143(9) 0.3667(2) 0.1894(7)
H12 H 0.8033 0.3896 0.1217
H13 H 0.6096 0.3902 0.2363
C16 C 0.6107(9) 0.3262(3) 0.0699(8)
C17 C 0.1936(9) 0.2216(2) 0.6096(7)
C18 C 0.3485(9) 0.1993(3) 0.7351(8)
H14 H 0.4158 0.1680 0.6815
C19 C 0.2513(9) 0.1798(2) 0.8991(7)
H15 H 0.1562 0.1505 0.8691
H16 H 0.3584 0.1643 0.9739
C20 C 0.1400(8) 0.2213(2) 0.9983(6)
H18 H 0.602(6) 0.229(3) 0.692(5)
H20 H 0.575(7) 0.239(3) 0.887(3)
N5 N 0.7042(8) 0.1660(2) 0.2657(6)
O9 O 0.5122(6) 0.34934(17) 0.9452(5)
N2 N 0.2958(8) 0.6660(2) 0.7343(6)
C3 C 0.9508(10) 0.4662(2) 0.6827(7)
C4 C 0.8847(10) 0.4191(3) 0.7646(8)
H3 H 0.7546 0.4178 0.8111
H4 H 0.9609 0.3442 0.8287
C6 C 0.8290(9) 0.5156(2) 0.6732(7)
H5 H 0.8760 0.5438 0.6039
C7 C 0.6598(10) 0.5240(2) 0.7531(7)
H6 H 0.6111 0.4953 0.8193
C8 C 0.5401(9) 0.5735(3) 0.7492(8)
C9 C 0.3434(10) 0.5745(2) 0.8103(8)
H7 H 0.2905 0.5433 0.8616
C10 C 0.2275(9) 0.6194(3) 0.7972(8)
H8 H 0.0928 0.6178 0.8340
C11 C 0.4833(9) 0.6665(2) 0.6791(7)
H9 H 0.5335 0.6989 0.6339
C12 C 0.6123(8) 0.6211(3) 0.6839(7)
H10 H 0.7451 0.6234 0.6432
Cu4 Cu 0.12907(10) 0.73275(2) 0.71551(8)
C6_2 C 0.1710(9) 0.0156(2) 0.3268(7)
H5_2 H 0.1240 0.0438 0.3961
C7_2 C 0.3402(10) 0.0240(2) 0.2469(7)
C8_2 C 0.4599(9) 0.0735(3) 0.2508(8)
C9_2 C 0.6566(10) 0.0745(2) 0.1897(8)
H7_2 H 0.7095 0.0433 0.1384
C10_2 C 0.7725(9) 0.1194(3) 0.2028(8)
H8_2 H 0.9072 0.1178 0.1660
C11_2 C 0.5167(9) 0.1665(2) 0.3209(7)
H9_2 H 0.4665 0.1989 0.3661
C12_2 C 0.3877(8) 0.1211(3) 0.3161(7)
H10_2 H 0.2549 0.1234 0.3568
C3_2 C 0.0492(10) 0.9662(2) 0.3173(7)
C4_2 C 0.1153(10) 0.9191(3) 0.2354(8)
H3_2 H 0.2454 0.9178 0.1889
H4_2 H 0.0391 0.8442 0.1713
H6_2 H 0.3889 0.9953 0.1807
O3 O 0.4878(6) 0.84934(17) 0.0548(5)
Cu3 Cu 0.62824(10) 0.81133(2) 0.24638(8)
O1_2 O 0.4110(7) 0.84228(17) 0.4497(5)
N1_2 N 0.8037(7) 0.8763(2) 0.2840(5)
C1_2 C 0.7418(9) 0.9197(2) 0.3663(7)
H1_2 H 0.6114 0.9196 0.4124
O2_2 O 0.2910(6) 0.76299(17) 0.5335(5)
C2_2 C 0.8615(11) 0.9650(3) 0.3867(7)
H2_2 H 0.8143 0.9950 0.4482
N3_2 N 0.0040(7) 0.8056(2) 0.7165(6)
O4_2 O 0.3756(7) 0.77870(18) 0.9028(6)
N4_2 N 0.4962(8) 0.7402(2) 0.2239(6)
O5_2 O 0.7944(6) 0.77210(18) 0.4176(5)
C5_2 C 0.9917(10) 0.8758(3) 0.2237(8)
O6 O 0.9244(7) 0.69193(17) 0.4632(5)
O7_2 O 0.8673(6) 0.76898(17) 0.0445(5)
C13_2 C 0.3004(8) 0.8142(3) 0.5370(7)
C14_2 C 0.1618(8) 0.8437(2) 0.6644(7)
H11_2 H 0.0941 0.8741 0.6029
C15_2 C 0.2857(9) 0.8667(2) 0.8106(7)
H12_2 H 0.1967 0.8896 0.8783
H13_2 H 0.3904 0.8902 0.7637
C16_2 C 0.3893(9) 0.8262(3) 0.9301(8)
C17_2 C 0.8064(9) 0.7216(2) 0.3904(7)
C18_2 C 0.6515(9) 0.6993(3) 0.2649(8)
H14_2 H 0.5842 0.6680 0.3185
C19_2 C 0.7487(9) 0.6798(2) 0.1009(7)
H15_2 H 0.8438 0.6505 0.1309
H16_2 H 0.6416 0.6643 0.0261
C20_2 C 0.8600(8) 0.7213(2) 0.0017(6)
H18_2 H 0.398(6) 0.729(3) 0.308(5)
H20_2 H 0.425(7) 0.739(3) 0.113(3)
O8 O 0.9415(6) 0.70123(17) 0.8713(5)
H17_2 H 0.901(5) 0.797(2) 0.630(4)
H19_2 H 0.941(6) 0.803(2) 0.826(2)
loop_
_geom_bond_atom_site_label_1
_geom_bond_atom_site_label_2
_geom_bond_site_symmetry_1
_geom_bond_site_symmetry_2
Cu1 O1 1_555 1_555
O1 C13 1_555 1_555
N1 Cu1 1_555 1_555
C1 N1 1_555 1_555
H1 C1 1_555 1_555
Cu2 O2 1_555 1_555
O2 C13 1_555 1_555
C2 C1 1_555 1_555
H2 C2 1_555 1_555
N3 Cu2 1_555 1_555
O4 Cu2 1_555 1_555
N4 Cu1 1_555 1_555
O5 Cu1 1_555 1_555
C5 N1 1_555 1_555
O10 C17 1_555 1_555
O7 Cu1 1_555 1_555
C13 C14 1_555 1_555
C14 N3 1_555 1_555
H11 C14 1_555 1_555
C15 C14 1_555 1_555
H12 C15 1_555 1_555
H13 C15 1_555 1_555
C16 O4 1_555 1_555
C17 O5 1_555 1_555
C18 N4 1_555 1_555
H14 C18 1_555 1_555
C19 C18 1_555 1_555
H15 C19 1_555 1_555
H16 C19 1_555 1_555
C20 O7 1_555 1_555
H18 N4 1_555 1_555
H20 N4 1_555 1_555
N5 Cu2 1_555 1_555
O9 Cu1 1_555 1_555
C15 C16 1_555 1_555
C17 C18 1_555 1_555
C19 C20 1_555 1_555
N2 C10 1_555 1_555
C4 C3 1_555 1_555
H3 C4 1_555 1_555
C6 C3 1_555 1_555
H5 C6 1_555 1_555
C7 C6 1_555 1_555
H6 C7 1_555 1_555
C8 C7 1_555 1_555
C9 C8 1_555 1_555
H7 C9 1_555 1_555
C10 C9 1_555 1_555
H8 C10 1_555 1_555
C11 N2 1_555 1_555
H9 C11 1_555 1_555
C12 C8 1_555 1_555
H10 C12 1_555 1_555
Cu4 N2 1_555 1_555
C11 C12 1_555 1_555
N5 C10_2 1_555 1_555
H5_2 C6_2 1_555 1_555
C7_2 C6_2 1_555 1_555
C8_2 C7_2 1_555 1_555
C9_2 C8_2 1_555 1_555
H7_2 C9_2 1_555 1_555
C10_2 C9_2 1_555 1_555
H8_2 C10_2 1_555 1_555
C11_2 N5 1_555 1_555
H9_2 C11_2 1_555 1_555
C12_2 C8_2 1_555 1_555
H10_2 C12_2 1_555 1_555
C11_2 C12_2 1_555 1_555
C4_2 C3_2 1_555 1_555
H3_2 C4_2 1_555 1_555
Cu3 O3 1_555 1_555
Cu3 O1_2 1_555 1_555
O1_2 C13_2 1_555 1_555
N1_2 Cu3 1_555 1_555
C1_2 N1_2 1_555 1_555
H1_2 C1_2 1_555 1_555
Cu4 O2_2 1_555 1_555
O2_2 C13_2 1_555 1_555
C2_2 C1_2 1_555 1_555
H2_2 C2_2 1_555 1_555
N3_2 Cu4 1_555 1_555
O4_2 Cu4 1_555 1_555
N4_2 Cu3 1_555 1_555
O5_2 Cu3 1_555 1_555
C5_2 N1_2 1_555 1_555
O6 C17_2 1_555 1_555
O7_2 Cu3 1_555 1_555
C13_2 C14_2 1_555 1_555
C14_2 N3_2 1_555 1_555
H11_2 C14_2 1_555 1_555
C15_2 C14_2 1_555 1_555
H12_2 C15_2 1_555 1_555
H13_2 C15_2 1_555 1_555
C16_2 O4_2 1_555 1_555
C17_2 O5_2 1_555 1_555
C18_2 N4_2 1_555 1_555
H14_2 C18_2 1_555 1_555
C19_2 C18_2 1_555 1_555
H15_2 C19_2 1_555 1_555
H16_2 C19_2 1_555 1_555
C20_2 O7_2 1_555 1_555
H18_2 N4_2 1_555 1_555
H20_2 N4_2 1_555 1_555
C15_2 C16_2 1_555 1_555
C17_2 C18_2 1_555 1_555
C19_2 C20_2 1_555 1_555

#END
