
###############################################################################
#
# This file contains modified crystal structure data generated from the
# MOF subset of the Cambridge Structural Database (CSD) v543 
# hosted by the Cambridge Crystallographic Data Centre (CCDC).
#
# This work is licensed under the Creative Commons
# Attribution-NonCommercial-ShareAlike 4.0 International License.
# To view a copy of this license, visit
# http://creativecommons.org/licenses/by-nc-sa/4.0/
# or send a letter to
# Creative Commons, PO Box 1866, Mountain View, CA 94042, USA.
#
# CIF created using the CSD Python API on 29 September 2022
# The structure has been converted into the P1 space group
# The structure has a 3D framework
# The original CSD entry WIWJIW is in the tetragonal crystal system
# The framework has been calculated to contain at least 10.0% void space
# The void calculation uses a probe of radius 1.32A, grid spacing 0.4
#
###############################################################################

data_WIWJIW
_chemical_formula_moiety         '(C224 H128 N128 S32 Zn18)n'
_symmetry_cell_setting           triclinic
_symmetry_space_group_name_H-M   'P 1'
_symmetry_Int_Tables_number      1
_space_group_name_Hall           'P 1'
loop_
_symmetry_equiv_pos_site_id
_symmetry_equiv_pos_as_xyz
1 x,y,z
_cell_length_a                   17.9622(11)
_cell_length_b                   17.9622(11)
_cell_length_c                   21.890(2)
_cell_angle_alpha                90
_cell_angle_beta                 90
_cell_angle_gamma                90
_cell_volume                     7062.6
loop_
_atom_site_label
_atom_site_type_symbol
_atom_site_fract_x
_atom_site_fract_y
_atom_site_fract_z
Zn1 Zn 0.2500 0.45546(2) 0.0000
N1 N 0.33991(12) 0.51484(12) 0.01832(10)
N2 N 0.62772(12) 0.51481(12) 0.18268(10)
N3 N 0.41517(12) 0.60764(12) 0.04630(11)
C1 C 0.43957(14) 0.54069(15) 0.06666(12)
C2 C 0.58870(16) 0.57819(16) 0.18144(14)
H1 H 0.6029 0.6168 0.2073
N4 N 0.39628(12) 0.48379(12) 0.05099(10)
C3 C 0.60496(16) 0.45979(17) 0.14604(13)
H2 H 0.6310 0.4150 0.1467
C4 C 0.52829(16) 0.58888(16) 0.14356(14)
H3 H 0.5031 0.6341 0.1436
C5 C 0.35330(15) 0.58864(15) 0.01692(12)
C6 C 0.54489(16) 0.46614(17) 0.10730(14)
H4 H 0.5311 0.4264 0.0826
C7 C 0.50545(14) 0.53173(15) 0.10547(12)
Zn2 Zn 0.70546(2) 0.5000 0.2500
S2 S 0.20110(4) 0.65290(4) 0.02388(4)
N7 N 0.23519(12) 0.37772(12) 0.06732(10)
Zn3 Zn 0.79454(2) 0.5000 0.7500
N6 N 0.87228(12) 0.51481(12) 0.81732(10)
C9 C 0.91130(16) 0.57819(16) 0.81856(14)
H5 H 0.8971 0.6168 0.7927
C10 C 0.89504(16) 0.45979(17) 0.85396(13)
H6 H 0.8690 0.4150 0.8533
C11 C 0.97171(16) 0.58888(16) 0.85644(14)
H7 H 0.9969 0.6341 0.8564
C13 C 0.95511(16) 0.46614(17) 0.89270(14)
H8 H 0.9689 0.4264 0.9174
C14 C 0.99455(14) 0.53173(15) 0.89453(12)
C3_2 C 0.10496(16) 0.95979(17) 0.64604(13)
H2_2 H 0.1310 0.9150 0.6467
C6_2 C 0.04489(16) 0.96614(17) 0.60730(14)
H4_2 H 0.0311 0.9264 0.5826
Zn2_2 Zn 0.20546(2) 1.0000 0.7500
S1 S 0.79890(4) 0.15290(4) 0.47612(4)
N1_2 N 0.83991(12) 0.01484(12) 0.51832(10)
N3_2 N 0.91517(12) 0.10764(12) 0.54630(11)
C1_2 C 0.93957(14) 0.04069(15) 0.56666(12)
C5_2 C 0.85330(15) 0.08864(15) 0.51692(12)
Zn3_2 Zn 0.29454(2) 0.0000 0.2500
S2_2 S 0.70110(4) 0.15290(4) 0.52388(4)
N5 N 0.66009(12) 0.01484(12) 0.48168(10)
N6_2 N 0.37228(12) 0.01481(12) 0.31732(10)
N9 N 0.58483(12) 0.10764(12) 0.45370(11)
C8 C 0.56043(14) 0.04069(15) 0.43334(12)
C9_2 C 0.41130(16) 0.07819(16) 0.31856(14)
H5_2 H 0.3971 0.1168 0.2927
C11_2 C 0.47171(16) 0.08888(16) 0.35644(14)
H7_2 H 0.4969 0.1341 0.3564
C12 C 0.64670(15) 0.08864(15) 0.48308(12)
C14_2 C 0.49455(14) 0.03173(15) 0.39453(12)
Zn1_2 Zn 0.7500 0.95546(2) 0.5000
N4_2 N 0.89628(12) 0.98379(12) 0.55099(10)
Zn3_3 Zn 0.29454(2) 1.0000 0.2500
N7_2 N 0.73519(12) 0.87772(12) 0.56732(10)
N8 N 0.76481(12) 0.87772(12) 0.43268(10)
N10 N 0.60372(12) 0.98379(12) 0.44901(10)
C10_2 C 0.39504(16) 0.95979(17) 0.35396(13)
H6_2 H 0.3690 0.9150 0.3533
C13_2 C 0.45511(16) 0.96614(17) 0.39270(14)
H8_2 H 0.4689 0.9264 0.4174
Zn1_3 Zn 0.2500 0.54454(2) 0.5000
S1_2 S 0.20110(4) 0.34710(4) 0.47612(4)
N1_3 N 0.16009(12) 0.48516(12) 0.51832(10)
N3_3 N 0.08483(12) 0.39236(12) 0.54630(11)
C1_3 C 0.06043(14) 0.45931(15) 0.56666(12)
N4_3 N 0.10372(12) 0.51621(12) 0.55099(10)
C5_3 C 0.14670(15) 0.41136(15) 0.51692(12)
S2_3 S 0.29890(4) 0.34710(4) 0.52388(4)
N5_2 N 0.33991(12) 0.48516(12) 0.48168(10)
N6_3 N 0.62772(12) 0.48519(12) 0.31732(10)
N7_3 N 0.26481(12) 0.62228(12) 0.56732(10)
N8_2 N 0.23519(12) 0.62228(12) 0.43268(10)
N9_2 N 0.41517(12) 0.39236(12) 0.45370(11)
C8_2 C 0.43957(14) 0.45931(15) 0.43334(12)
C9_3 C 0.58870(16) 0.42181(16) 0.31856(14)
H5_3 H 0.6029 0.3832 0.2927
N10_2 N 0.39628(12) 0.51621(12) 0.44901(10)
C10_3 C 0.60496(16) 0.54021(17) 0.35396(13)
H6_3 H 0.6310 0.5850 0.3533
C11_3 C 0.52829(16) 0.41112(16) 0.35644(14)
H7_3 H 0.5031 0.3659 0.3564
C12_2 C 0.35330(15) 0.41136(15) 0.48308(12)
C13_3 C 0.54489(16) 0.53386(17) 0.39270(14)
H8_3 H 0.5311 0.5736 0.4174
C14_3 C 0.50545(14) 0.46827(15) 0.39453(12)
N2_2 N 0.87228(12) 0.48519(12) 0.68268(10)
C2_2 C 0.91130(16) 0.42181(16) 0.68144(14)
H1_2 H 0.8971 0.3832 0.7073
C3_3 C 0.89504(16) 0.54021(17) 0.64604(13)
H2_3 H 0.8690 0.5850 0.6467
C4_2 C 0.97171(16) 0.41112(16) 0.64356(14)
H3_2 H 0.9969 0.3659 0.6436
C6_3 C 0.95511(16) 0.53386(17) 0.60730(14)
H4_3 H 0.9689 0.5736 0.5826
C7_2 C 0.99455(14) 0.46827(15) 0.60547(12)
N6_4 N 0.12772(12) 0.98519(12) 0.81732(10)
C9_4 C 0.08870(16) 0.92181(16) 0.81856(14)
H5_4 H 0.1029 0.8832 0.7927
C11_4 C 0.02829(16) 0.91112(16) 0.85644(14)
H7_4 H 0.0031 0.8659 0.8564
C14_4 C 0.00545(14) 0.96827(15) 0.89453(12)
Zn1_4 Zn 0.7500 0.04454(2) 0.0000
N4_4 N 0.60372(12) 0.01621(12) 0.05099(10)
C3_4 C 0.39504(16) 0.04021(17) 0.14604(13)
H2_4 H 0.3690 0.0850 0.1467
C6_4 C 0.45511(16) 0.03386(17) 0.10730(14)
H4_4 H 0.4689 0.0736 0.0826
N7_4 N 0.76481(12) 0.12228(12) 0.06732(10)
Zn1_5 Zn 0.7500 0.04454(2) 1.0000
N8_3 N 0.73519(12) 0.12228(12) 0.93268(10)
N10_3 N 0.89628(12) 0.01621(12) 0.94901(10)
N1_4 N 0.66009(12) 0.98516(12) 0.01832(10)
N2_3 N 0.37228(12) 0.98519(12) 0.18268(10)
N3_4 N 0.58483(12) 0.89236(12) 0.04630(11)
C1_4 C 0.56043(14) 0.95931(15) 0.06666(12)
C2_3 C 0.41130(16) 0.92181(16) 0.18144(14)
H1_3 H 0.3971 0.8832 0.2073
C4_3 C 0.47171(16) 0.91112(16) 0.14356(14)
H3_3 H 0.4969 0.8659 0.1436
C5_4 C 0.64670(15) 0.91136(15) 0.01692(12)
C7_3 C 0.49455(14) 0.96827(15) 0.10547(12)
S2_4 S 0.79890(4) 0.84710(4) 0.02388(4)
S1_3 S 0.40290(4) 0.95110(4) 0.77388(4)
N1_5 N 0.26484(12) 0.91009(12) 0.73168(10)
N3_5 N 0.35764(12) 0.83483(12) 0.70370(11)
C1_5 C 0.29069(15) 0.81043(14) 0.68334(12)
C2_4 C 0.32819(16) 0.66130(16) 0.56856(14)
H1_4 H 0.3668 0.6471 0.5427
N4_5 N 0.23379(12) 0.85372(12) 0.69901(10)
C3_5 C 0.20979(17) 0.64504(16) 0.60396(13)
H2_5 H 0.1650 0.6190 0.6033
C4_4 C 0.33888(16) 0.72171(16) 0.60644(14)
H3_4 H 0.3841 0.7469 0.6064
C5_5 C 0.33864(15) 0.89670(15) 0.73308(12)
C6_5 C 0.21614(17) 0.70511(16) 0.64270(14)
H4_5 H 0.1764 0.7189 0.6674
C7_4 C 0.28173(15) 0.74455(14) 0.64453(12)
S1_4 S 0.09710(4) 0.04890(4) 0.27388(4)
N1_6 N 0.23516(12) 0.08991(12) 0.23168(10)
N3_6 N 0.14236(12) 0.16517(12) 0.20370(11)
C1_6 C 0.20931(15) 0.18957(14) 0.18334(12)
C2_5 C 0.17181(16) 0.33870(16) 0.06856(14)
H1_5 H 0.1332 0.3529 0.0427
N4_6 N 0.26621(12) 0.14628(12) 0.19901(10)
C3_6 C 0.29021(17) 0.35496(16) 0.10396(13)
H2_6 H 0.3350 0.3810 0.1033
C4_5 C 0.16112(16) 0.27829(16) 0.10644(14)
H3_5 H 0.1159 0.2531 0.1064
C5_6 C 0.16136(15) 0.10330(15) 0.23308(12)
C6_6 C 0.28386(17) 0.29489(16) 0.14270(14)
H4_6 H 0.3236 0.2811 0.1674
C7_5 C 0.21827(15) 0.25545(14) 0.14453(12)
S2_5 S 0.09710(4) 0.95110(4) 0.22612(4)
N5_3 N 0.23516(12) 0.91009(12) 0.26832(10)
N9_3 N 0.14236(12) 0.83483(12) 0.29630(11)
C8_3 C 0.20931(15) 0.81043(14) 0.31666(12)
C9_5 C 0.17181(16) 0.66130(16) 0.43144(14)
H5_5 H 0.1332 0.6471 0.4573
N10_4 N 0.26621(12) 0.85372(12) 0.30099(10)
C10_4 C 0.29021(17) 0.64504(16) 0.39604(13)
H6_4 H 0.3350 0.6190 0.3967
C11_5 C 0.16112(16) 0.72171(16) 0.39356(14)
H7_5 H 0.1159 0.7469 0.3936
C12_3 C 0.16136(15) 0.89670(15) 0.26692(12)
C13_4 C 0.28386(17) 0.70511(16) 0.35730(14)
H8_4 H 0.3236 0.7189 0.3326
C14_5 C 0.21827(15) 0.74455(14) 0.35547(12)
S1_5 S 0.90290(4) 0.45110(4) 0.27388(4)
N1_7 N 0.76484(12) 0.41009(12) 0.23168(10)
N3_7 N 0.85764(12) 0.33483(12) 0.20370(11)
C1_7 C 0.79069(15) 0.31043(14) 0.18334(12)
C2_6 C 0.82819(16) 0.16130(16) 0.06856(14)
H1_6 H 0.8668 0.1471 0.0427
N4_7 N 0.73379(12) 0.35372(12) 0.19901(10)
C3_7 C 0.70979(17) 0.14504(16) 0.10396(13)
H2_7 H 0.6650 0.1190 0.1033
C4_6 C 0.83888(16) 0.22171(16) 0.10644(14)
H3_6 H 0.8841 0.2469 0.1064
C5_7 C 0.83864(15) 0.39670(15) 0.23308(12)
C6_7 C 0.71614(17) 0.20511(16) 0.14270(14)
H4_7 H 0.6764 0.2189 0.1674
C7_6 C 0.78173(15) 0.24455(14) 0.14453(12)
S2_6 S 0.90290(4) 0.54890(4) 0.22612(4)
N5_4 N 0.76484(12) 0.58991(12) 0.26832(10)
N9_4 N 0.85764(12) 0.66517(12) 0.29630(11)
C8_4 C 0.79069(15) 0.68957(14) 0.31666(12)
C9_6 C 0.82819(16) 0.83870(16) 0.43144(14)
H5_6 H 0.8668 0.8529 0.4573
N10_5 N 0.73379(12) 0.64628(12) 0.30099(10)
C10_5 C 0.70979(17) 0.85496(16) 0.39604(13)
H6_5 H 0.6650 0.8810 0.3967
C11_6 C 0.83888(16) 0.77829(16) 0.39356(14)
H7_6 H 0.8841 0.7531 0.3936
C12_4 C 0.83864(15) 0.60330(15) 0.26692(12)
C13_5 C 0.71614(17) 0.79489(16) 0.35730(14)
H8_5 H 0.6764 0.7811 0.3326
C14_6 C 0.78173(15) 0.75545(14) 0.35547(12)
S1_6 S 0.59710(4) 0.54890(4) 0.77388(4)
N1_8 N 0.73516(12) 0.58991(12) 0.73168(10)
N3_8 N 0.64236(12) 0.66517(12) 0.70370(11)
C1_8 C 0.70931(15) 0.68957(14) 0.68334(12)
C2_7 C 0.67181(16) 0.83870(16) 0.56856(14)
H1_7 H 0.6332 0.8529 0.5427
N4_8 N 0.76621(12) 0.64628(12) 0.69901(10)
C3_8 C 0.79021(17) 0.85496(16) 0.60396(13)
H2_8 H 0.8350 0.8810 0.6033
C4_7 C 0.66112(16) 0.77829(16) 0.60644(14)
H3_7 H 0.6159 0.7531 0.6064
C5_8 C 0.66136(15) 0.60330(15) 0.73308(12)
C6_8 C 0.78386(17) 0.79489(16) 0.64270(14)
H4_8 H 0.8236 0.7811 0.6674
C7_7 C 0.71827(15) 0.75545(14) 0.64453(12)
S2_7 S 0.59710(4) 0.45110(4) 0.72612(4)
N5_5 N 0.73516(12) 0.41009(12) 0.76832(10)
N9_5 N 0.64236(12) 0.33483(12) 0.79630(11)
C8_5 C 0.70931(15) 0.31043(14) 0.81666(12)
C9_7 C 0.67181(16) 0.16130(16) 0.93144(14)
H5_7 H 0.6332 0.1471 0.9573
N10_6 N 0.76621(12) 0.35372(12) 0.80099(10)
C10_6 C 0.79021(17) 0.14504(16) 0.89604(13)
H6_6 H 0.8350 0.1190 0.8967
C11_7 C 0.66112(16) 0.22171(16) 0.89356(14)
H7_7 H 0.6159 0.2469 0.8936
C12_5 C 0.66136(15) 0.39670(15) 0.76692(12)
C13_6 C 0.78386(17) 0.20511(16) 0.85730(14)
H8_6 H 0.8236 0.2189 0.8326
C14_7 C 0.71827(15) 0.24455(14) 0.85547(12)
Zn1_6 Zn 0.2500 0.45546(2) 1.0000
S1_7 S 0.29890(4) 0.65290(4) 0.97612(4)
N5_6 N 0.16009(12) 0.51484(12) 0.98168(10)
N8_4 N 0.26481(12) 0.37772(12) 0.93268(10)
N9_6 N 0.08483(12) 0.60764(12) 0.95370(11)
C8_6 C 0.06043(14) 0.54069(15) 0.93334(12)
N10_7 N 0.10372(12) 0.48379(12) 0.94901(10)
C12_6 C 0.14670(15) 0.58864(15) 0.98308(12)
N2_4 N 0.12772(12) 0.01481(12) 0.68268(10)
C2_8 C 0.08870(16) 0.07819(16) 0.68144(14)
H1_8 H 0.1029 0.1168 0.7073
C4_8 C 0.02829(16) 0.08888(16) 0.64356(14)
H3_8 H 0.0031 0.1341 0.6436
C7_8 C 0.00545(14) 0.03173(15) 0.60547(12)
Zn2_3 Zn 0.20546(2) 0.0000 0.7500
C10_7 C 0.10496(16) 0.04021(17) 0.85396(13)
H6_7 H 0.1310 0.0850 0.8533
C13_7 C 0.04489(16) 0.03386(17) 0.89270(14)
H8_7 H 0.0311 0.0736 0.9174
S2_8 S 0.40290(4) 0.04890(4) 0.72612(4)
N5_7 N 0.26484(12) 0.08991(12) 0.76832(10)
N9_7 N 0.35764(12) 0.16517(12) 0.79630(11)
C8_7 C 0.29069(15) 0.18957(14) 0.81666(12)
C9_8 C 0.32819(16) 0.33870(16) 0.93144(14)
H5_8 H 0.3668 0.3529 0.9573
N10_8 N 0.23379(12) 0.14628(12) 0.80099(10)
C10_8 C 0.20979(17) 0.35496(16) 0.89604(13)
H6_8 H 0.1650 0.3810 0.8967
C11_8 C 0.33888(16) 0.27829(16) 0.89356(14)
H7_8 H 0.3841 0.2531 0.8936
C12_7 C 0.33864(15) 0.10330(15) 0.76692(12)
C13_8 C 0.21614(17) 0.29489(16) 0.85730(14)
H8_8 H 0.1764 0.2811 0.8326
C14_8 C 0.28173(15) 0.25545(14) 0.85547(12)
Zn1_7 Zn 0.79454(2) 0.0000 0.2500
S1_8 S 0.59710(4) 0.04890(4) 0.22612(4)
N1_9 N 0.73516(12) 0.08991(12) 0.26832(10)
N2_5 N 0.73519(12) 0.37772(12) 0.43268(10)
N3_9 N 0.64236(12) 0.16517(12) 0.29630(11)
C1_9 C 0.70931(15) 0.18957(14) 0.31666(12)
C2_9 C 0.67181(16) 0.33870(16) 0.43144(14)
H1_9 H 0.6332 0.3529 0.4573
N4_9 N 0.76621(12) 0.14628(12) 0.30099(10)
C3_9 C 0.79021(17) 0.35496(16) 0.39604(13)
H2_9 H 0.8350 0.3810 0.3967
C4_9 C 0.66112(16) 0.27829(16) 0.39356(14)
H3_9 H 0.6159 0.2531 0.3936
C5_9 C 0.66136(15) 0.10330(15) 0.26692(12)
C6_9 C 0.78386(17) 0.29489(16) 0.35730(14)
H4_9 H 0.8236 0.2811 0.3326
C7_9 C 0.71827(15) 0.25545(14) 0.35547(12)
Zn2_4 Zn 0.7500 0.45546(2) 0.5000
N8_5 N 0.87228(12) 0.01481(12) 0.18268(10)
Zn3_4 Zn 0.7500 0.54454(2) 1.0000
Zn1_8 Zn 0.70546(2) 0.0000 0.7500
S2_9 S 0.90290(4) 0.04890(4) 0.77388(4)
N5_8 N 0.76484(12) 0.08991(12) 0.73168(10)
N6_5 N 0.76481(12) 0.37772(12) 0.56732(10)
N7_5 N 0.62772(12) 0.01481(12) 0.81732(10)
N9_8 N 0.85764(12) 0.16517(12) 0.70370(11)
C8_8 C 0.79069(15) 0.18957(14) 0.68334(12)
C9_9 C 0.82819(16) 0.33870(16) 0.56856(14)
H5_9 H 0.8668 0.3529 0.5427
N10_9 N 0.73379(12) 0.14628(12) 0.69901(10)
C10_9 C 0.70979(17) 0.35496(16) 0.60396(13)
H6_9 H 0.6650 0.3810 0.6033
C11_9 C 0.83888(16) 0.27829(16) 0.60644(14)
H7_9 H 0.8841 0.2531 0.6064
C12_8 C 0.83864(15) 0.10330(15) 0.73308(12)
C13_9 C 0.71614(17) 0.29489(16) 0.64270(14)
H8_9 H 0.6764 0.2811 0.6674
C14_9 C 0.78173(15) 0.25545(14) 0.64453(12)
Zn1_9 Zn 0.70546(2) 1.0000 0.7500
S1_9 S 0.90290(4) 0.95110(4) 0.72612(4)
N1_10 N 0.76484(12) 0.91009(12) 0.76832(10)
N2_6 N 0.76481(12) 0.62228(12) 0.93268(10)
N3_10 N 0.85764(12) 0.83483(12) 0.79630(11)
C1_10 C 0.79069(15) 0.81043(14) 0.81666(12)
C2_10 C 0.82819(16) 0.66130(16) 0.93144(14)
H1_10 H 0.8668 0.6471 0.9573
N4_10 N 0.73379(12) 0.85372(12) 0.80099(10)
C3_10 C 0.70979(17) 0.64504(16) 0.89604(13)
H2_10 H 0.6650 0.6190 0.8967
C4_10 C 0.83888(16) 0.72171(16) 0.89356(14)
H3_10 H 0.8841 0.7469 0.8936
C5_10 C 0.83864(15) 0.89670(15) 0.76692(12)
C6_10 C 0.71614(17) 0.70511(16) 0.85730(14)
H4_10 H 0.6764 0.7189 0.8326
C7_10 C 0.78173(15) 0.74455(14) 0.85547(12)
N8_6 N 0.62772(12) 0.98519(12) 0.68268(10)
Zn2_5 Zn 0.2500 0.95546(2) -0.0000
Zn1_10 Zn 0.29454(2) 0.5000 0.7500
S1_10 S 0.09710(4) 0.54890(4) 0.72612(4)
N1_11 N 0.23516(12) 0.58991(12) 0.76832(10)
N2_7 N 0.23519(12) 0.87772(12) 0.93268(10)
N3_11 N 0.14236(12) 0.66517(12) 0.79630(11)
C1_11 C 0.20931(15) 0.68957(14) 0.81666(12)
C2_11 C 0.17181(16) 0.83870(16) 0.93144(14)
H1_11 H 0.1332 0.8529 0.9573
N4_11 N 0.26621(12) 0.64628(12) 0.80099(10)
C3_11 C 0.29021(17) 0.85496(16) 0.89604(13)
H2_11 H 0.3350 0.8810 0.8967
C4_11 C 0.16112(16) 0.77829(16) 0.89356(14)
H3_11 H 0.1159 0.7531 0.8936
C5_11 C 0.16136(15) 0.60330(15) 0.76692(12)
C6_11 C 0.28386(17) 0.79489(16) 0.85730(14)
H4_11 H 0.3236 0.7811 0.8326
C7_11 C 0.21827(15) 0.75545(14) 0.85547(12)
Zn2_6 Zn 0.2500 0.95546(2) 1.0000
Zn3_5 Zn 0.2500 0.04454(2) 0.5000
S2_10 S 0.09710(4) 0.45110(4) 0.77388(4)
N5_9 N 0.23516(12) 0.41009(12) 0.73168(10)
N6_6 N 0.23519(12) 0.12228(12) 0.56732(10)
N7_6 N 0.37228(12) 0.48519(12) 0.81732(10)
N8_7 N 0.37228(12) 0.51481(12) 0.68268(10)
N9_9 N 0.14236(12) 0.33483(12) 0.70370(11)
C8_9 C 0.20931(15) 0.31043(14) 0.68334(12)
C9_10 C 0.17181(16) 0.16130(16) 0.56856(14)
H5_10 H 0.1332 0.1471 0.5427
N10_10 N 0.26621(12) 0.35372(12) 0.69901(10)
C10_10 C 0.29021(17) 0.14504(16) 0.60396(13)
H6_10 H 0.3350 0.1190 0.6033
C11_10 C 0.16112(16) 0.22171(16) 0.60644(14)
H7_10 H 0.1159 0.2469 0.6064
C12_9 C 0.16136(15) 0.39670(15) 0.73308(12)
C13_10 C 0.28386(17) 0.20511(16) 0.64270(14)
H8_10 H 0.3236 0.2189 0.6674
C14_10 C 0.21827(15) 0.24455(14) 0.64453(12)
Zn1_11 Zn 0.20546(2) 0.5000 0.2500
S1_11 S 0.40290(4) 0.45110(4) 0.22612(4)
N1_12 N 0.26484(12) 0.41009(12) 0.26832(10)
N2_8 N 0.26481(12) 0.12228(12) 0.43268(10)
N3_12 N 0.35764(12) 0.33483(12) 0.29630(11)
C1_12 C 0.29069(15) 0.31043(14) 0.31666(12)
C2_12 C 0.32819(16) 0.16130(16) 0.43144(14)
H1_12 H 0.3668 0.1471 0.4573
N4_12 N 0.23379(12) 0.35372(12) 0.30099(10)
C3_12 C 0.20979(17) 0.14504(16) 0.39604(13)
H2_12 H 0.1650 0.1190 0.3967
C4_12 C 0.33888(16) 0.22171(16) 0.39356(14)
H3_12 H 0.3841 0.2469 0.3936
C5_12 C 0.33864(15) 0.39670(15) 0.26692(12)
C6_12 C 0.21614(17) 0.20511(16) 0.35730(14)
H4_12 H 0.1764 0.2189 0.3326
C7_12 C 0.28173(15) 0.24455(14) 0.35547(12)
S2_11 S 0.40290(4) 0.54890(4) 0.27388(4)
N5_10 N 0.26484(12) 0.58991(12) 0.23168(10)
N6_7 N 0.26481(12) 0.87772(12) 0.06732(10)
N7_7 N 0.12772(12) 0.51481(12) 0.31732(10)
N8_8 N 0.12772(12) 0.48519(12) 0.18268(10)
N9_10 N 0.35764(12) 0.66517(12) 0.20370(11)
C8_10 C 0.29069(15) 0.68957(14) 0.18334(12)
C9_11 C 0.32819(16) 0.83870(16) 0.06856(14)
H5_11 H 0.3668 0.8529 0.0427
N10_11 N 0.23379(12) 0.64628(12) 0.19901(10)
C10_11 C 0.20979(17) 0.85496(16) 0.10396(13)
H6_11 H 0.1650 0.8810 0.1033
C11_11 C 0.33888(16) 0.77829(16) 0.10644(14)
H7_11 H 0.3841 0.7531 0.1064
C12_10 C 0.33864(15) 0.60330(15) 0.23308(12)
C13_11 C 0.21614(17) 0.79489(16) 0.14270(14)
H8_11 H 0.1764 0.7811 0.1674
C14_11 C 0.28173(15) 0.75545(14) 0.14453(12)
C9_12 C 0.08870(16) 0.42181(16) 0.18144(14)
H5_12 H 0.1029 0.3832 0.2073
C10_12 C 0.10496(16) 0.54021(17) 0.14604(13)
H6_12 H 0.1310 0.5850 0.1467
C11_12 C 0.02829(16) 0.41112(16) 0.14356(14)
H7_12 H 0.0031 0.3659 0.1436
C13_12 C 0.04489(16) 0.53386(17) 0.10730(14)
H8_12 H 0.0311 0.5736 0.0826
C14_12 C 0.00545(14) 0.46827(15) 0.10547(12)
N1_13 N 0.66009(12) 0.48516(12) 0.98168(10)
N3_13 N 0.58483(12) 0.39236(12) 0.95370(11)
C1_13 C 0.56043(14) 0.45931(15) 0.93334(12)
C2_13 C 0.41130(16) 0.42181(16) 0.81856(14)
H1_13 H 0.3971 0.3832 0.7927
N4_13 N 0.60372(12) 0.51621(12) 0.94901(10)
C3_13 C 0.39504(16) 0.54021(17) 0.85396(13)
H2_13 H 0.3690 0.5850 0.8533
C4_13 C 0.47171(16) 0.41112(16) 0.85644(14)
H3_13 H 0.4969 0.3659 0.8564
C5_13 C 0.64670(15) 0.41136(15) 0.98308(12)
C6_13 C 0.45511(16) 0.53386(17) 0.89270(14)
H4_13 H 0.4689 0.5736 0.9174
C7_13 C 0.49455(14) 0.46827(15) 0.89453(12)
S2_12 S 0.79890(4) 0.34710(4) 0.97612(4)
N4_14 N 0.10372(12) 0.01621(12) 0.44901(10)
N10_12 N 0.39628(12) 0.01621(12) 0.55099(10)
C10_13 C 0.60496(16) 0.04021(17) 0.64604(13)
H6_13 H 0.6310 0.0850 0.6467
C13_13 C 0.54489(16) 0.03386(17) 0.60730(14)
H8_13 H 0.5311 0.0736 0.5826
S1_12 S 0.20110(4) 0.84710(4) 0.52388(4)
N1_14 N 0.16009(12) 0.98516(12) 0.48168(10)
N3_14 N 0.08483(12) 0.89236(12) 0.45370(11)
C1_14 C 0.06043(14) 0.95931(15) 0.43334(12)
C5_14 C 0.14670(15) 0.91136(15) 0.48308(12)
S2_13 S 0.29890(4) 0.84710(4) 0.47612(4)
N5_11 N 0.33991(12) 0.98516(12) 0.51832(10)
N9_11 N 0.41517(12) 0.89236(12) 0.54630(11)
C8_11 C 0.43957(14) 0.95931(15) 0.56666(12)
C9_13 C 0.58870(16) 0.92181(16) 0.68144(14)
H5_13 H 0.6029 0.8832 0.7073
C11_13 C 0.52829(16) 0.91112(16) 0.64356(14)
H7_13 H 0.5031 0.8659 0.6436
C12_11 C 0.35330(15) 0.91136(15) 0.51692(12)
C14_13 C 0.50545(14) 0.96827(15) 0.60547(12)
C3_14 C 0.89504(16) 0.04021(17) 0.35396(13)
H2_14 H 0.8690 0.0850 0.3533
C6_14 C 0.95511(16) 0.03386(17) 0.39270(14)
H4_14 H 0.9689 0.0736 0.4174
C2_14 C 0.08870(16) 0.57819(16) 0.31856(14)
H1_14 H 0.1029 0.6168 0.2927
C3_15 C 0.10496(16) 0.45979(17) 0.35396(13)
H2_15 H 0.1310 0.4150 0.3533
C4_14 C 0.02829(16) 0.58888(16) 0.35644(14)
H3_14 H 0.0031 0.6341 0.3564
C6_15 C 0.04489(16) 0.46614(17) 0.39270(14)
H4_15 H 0.0311 0.4264 0.4174
C7_14 C 0.00545(14) 0.53173(15) 0.39453(12)
S1_13 S 0.79890(4) 0.65290(4) 0.52388(4)
N1_15 N 0.83991(12) 0.51484(12) 0.48168(10)
N3_15 N 0.91517(12) 0.60764(12) 0.45370(11)
C1_15 C 0.93957(14) 0.54069(15) 0.43334(12)
N4_15 N 0.89628(12) 0.48379(12) 0.44901(10)
C5_15 C 0.85330(15) 0.58864(15) 0.48308(12)
S2_14 S 0.70110(4) 0.65290(4) 0.47612(4)
N5_12 N 0.66009(12) 0.51484(12) 0.51832(10)
N9_12 N 0.58483(12) 0.60764(12) 0.54630(11)
C8_12 C 0.56043(14) 0.54069(15) 0.56666(12)
C9_14 C 0.41130(16) 0.57819(16) 0.68144(14)
H5_14 H 0.3971 0.6168 0.7073
N10_13 N 0.60372(12) 0.48379(12) 0.55099(10)
C10_14 C 0.39504(16) 0.45979(17) 0.64604(13)
H6_14 H 0.3690 0.4150 0.6467
C11_14 C 0.47171(16) 0.58888(16) 0.64356(14)
H7_14 H 0.4969 0.6341 0.6436
C12_12 C 0.64670(15) 0.58864(15) 0.51692(12)
C13_14 C 0.45511(16) 0.46614(17) 0.60730(14)
H8_14 H 0.4689 0.4264 0.5826
C14_14 C 0.49455(14) 0.53173(15) 0.60547(12)
N1_16 N 0.33991(12) 0.01484(12) 0.98168(10)
N3_16 N 0.41517(12) 0.10764(12) 0.95370(11)
C1_16 C 0.43957(14) 0.04069(15) 0.93334(12)
C2_15 C 0.58870(16) 0.07819(16) 0.81856(14)
H1_15 H 0.6029 0.1168 0.7927
C4_15 C 0.52829(16) 0.08888(16) 0.85644(14)
H3_15 H 0.5031 0.1341 0.8564
C5_16 C 0.35330(15) 0.08864(15) 0.98308(12)
C7_15 C 0.50545(14) 0.03173(15) 0.89453(12)
S2_15 S 0.20110(4) 0.15290(4) 0.97612(4)
N10_14 N 0.10372(12) 0.98379(12) 0.05099(10)
N4_16 N 0.39628(12) 0.98379(12) 0.94901(10)
C3_16 C 0.60496(16) 0.95979(17) 0.85396(13)
H2_16 H 0.6310 0.9150 0.8533
C6_16 C 0.54489(16) 0.96614(17) 0.89270(14)
H4_16 H 0.5311 0.9264 0.9174
C9_15 C 0.91130(16) 0.07819(16) 0.18144(14)
H5_15 H 0.8971 0.1168 0.2073
C11_15 C 0.97171(16) 0.08888(16) 0.14356(14)
H7_15 H 0.9969 0.1341 0.1436
C14_15 C 0.99455(14) 0.03173(15) 0.10547(12)
Zn1_12 Zn 0.79454(2) 1.0000 0.2500
Zn3_6 Zn 0.7500 0.54454(2) 0.0000
S2_16 S 0.59710(4) 0.95110(4) 0.27388(4)
N5_13 N 0.73516(12) 0.91009(12) 0.23168(10)
N6_8 N 0.73519(12) 0.62228(12) 0.06732(10)
N7_8 N 0.87228(12) 0.98519(12) 0.31732(10)
N9_13 N 0.64236(12) 0.83483(12) 0.20370(11)
C8_13 C 0.70931(15) 0.81043(14) 0.18334(12)
C9_16 C 0.67181(16) 0.66130(16) 0.06856(14)
H5_16 H 0.6332 0.6471 0.0427
N10_15 N 0.76621(12) 0.85372(12) 0.19901(10)
C10_15 C 0.79021(17) 0.64504(16) 0.10396(13)
H6_15 H 0.8350 0.6190 0.1033
C11_16 C 0.66112(16) 0.72171(16) 0.10644(14)
H7_16 H 0.6159 0.7469 0.1064
C12_13 C 0.66136(15) 0.89670(15) 0.23308(12)
C13_15 C 0.78386(17) 0.70511(16) 0.14270(14)
H8_15 H 0.8236 0.7189 0.1674
C14_16 C 0.71827(15) 0.74455(14) 0.14453(12)
S1_14 S 0.70110(4) 0.34710(4) 0.02388(4)
N5_14 N 0.83991(12) 0.48516(12) 0.01832(10)
N9_14 N 0.91517(12) 0.39236(12) 0.04630(11)
C8_14 C 0.93957(14) 0.45931(15) 0.06666(12)
N10_16 N 0.89628(12) 0.51621(12) 0.05099(10)
C12_14 C 0.85330(15) 0.41136(15) 0.01692(12)
C2_16 C 0.91130(16) 0.92181(16) 0.31856(14)
H1_16 H 0.8971 0.8832 0.2927
C4_16 C 0.97171(16) 0.91112(16) 0.35644(14)
H3_16 H 0.9969 0.8659 0.3564
C7_16 C 0.99455(14) 0.96827(15) 0.39453(12)
C10_16 C 0.89504(16) 0.95979(17) 0.14604(13)
H6_16 H 0.8690 0.9150 0.1467
C13_16 C 0.95511(16) 0.96614(17) 0.10730(14)
H8_16 H 0.9689 0.9264 0.0826
S1_15 S 0.70110(4) 0.84710(4) 0.97612(4)
N5_15 N 0.83991(12) 0.98516(12) 0.98168(10)
N9_15 N 0.91517(12) 0.89236(12) 0.95370(11)
C8_15 C 0.93957(14) 0.95931(15) 0.93334(12)
C12_15 C 0.85330(15) 0.91136(15) 0.98308(12)
S1_16 S 0.29890(4) 0.15290(4) 0.02388(4)
N5_16 N 0.16009(12) 0.01484(12) 0.01832(10)
N9_16 N 0.08483(12) 0.10764(12) 0.04630(11)
C8_16 C 0.06043(14) 0.04069(15) 0.06666(12)
C12_16 C 0.14670(15) 0.08864(15) 0.01692(12)
loop_
_geom_bond_atom_site_label_1
_geom_bond_atom_site_label_2
_geom_bond_site_symmetry_1
_geom_bond_site_symmetry_2
Zn1 N1 1_555 1_555
N1 N4 1_555 1_555
N2 C2 1_555 1_555
N3 C1 1_555 1_555
C1 N4 1_555 1_555
C2 H1 1_555 1_555
C3 N2 1_555 1_555
H2 C3 1_555 1_555
C4 C2 1_555 1_555
H3 C4 1_555 1_555
C5 N1 1_555 1_555
C6 C3 1_555 1_555
H4 C6 1_555 1_555
C7 C1 1_555 1_555
Zn2 N2 1_555 1_555
N7 Zn1 1_555 1_555
N3 C5 1_555 1_555
C4 C7 1_555 1_555
C6 C7 1_555 1_555
Zn3 N6 1_555 1_555
N6 C9 1_555 1_555
C9 H5 1_555 1_555
C10 N6 1_555 1_555
H6 C10 1_555 1_555
C11 C9 1_555 1_555
H7 C11 1_555 1_555
C13 C10 1_555 1_555
H8 C13 1_555 1_555
C11 C14 1_555 1_555
C13 C14 1_555 1_555
H2_2 C3_2 1_555 1_555
C6_2 C3_2 1_555 1_555
H4_2 C6_2 1_555 1_555
S1 C5_2 1_555 1_555
N3_2 C1_2 1_555 1_555
C5_2 N1_2 1_555 1_555
Zn3_2 N6_2 1_555 1_555
S2_2 S1 1_555 1_555
N6_2 C9_2 1_555 1_555
N9 C8 1_555 1_555
C9_2 H5_2 1_555 1_555
C11_2 C9_2 1_555 1_555
H7_2 C11_2 1_555 1_555
C12 S2_2 1_555 1_555
C14_2 C8 1_555 1_555
N3_2 C5_2 1_555 1_555
N5 C12 1_555 1_555
N9 C12 1_555 1_555
C11_2 C14_2 1_555 1_555
N7_2 Zn1_2 1_555 1_555
N8 Zn1_2 1_555 1_555
H6_2 C10_2 1_555 1_555
C13_2 C10_2 1_555 1_555
H8_2 C13_2 1_555 1_555
Zn1_3 N1_3 1_555 1_555
S1_2 C5_3 1_555 1_555
N1_3 N4_3 1_555 1_555
N3_3 C1_3 1_555 1_555
C1_3 N4_3 1_555 1_555
C5_3 N1_3 1_555 1_555
Zn2 N6_3 1_555 1_555
S2_3 S1_2 1_555 1_555
N5_2 Zn1_3 1_555 1_555
N6_3 C9_3 1_555 1_555
N7_3 Zn1_3 1_555 1_555
N8_2 Zn1_3 1_555 1_555
N9_2 C8_2 1_555 1_555
C8_2 N10_2 1_555 1_555
C9_3 H5_3 1_555 1_555
N10_2 N5_2 1_555 1_555
C10_3 N6_3 1_555 1_555
H6_3 C10_3 1_555 1_555
C11_3 C9_3 1_555 1_555
H7_3 C11_3 1_555 1_555
C12_2 S2_3 1_555 1_555
C13_3 C10_3 1_555 1_555
H8_3 C13_3 1_555 1_555
C14_3 C8_2 1_555 1_555
N3_3 C5_3 1_555 1_555
N5_2 C12_2 1_555 1_555
N9_2 C12_2 1_555 1_555
C11_3 C14_3 1_555 1_555
C13_3 C14_3 1_555 1_555
N2_2 C2_2 1_555 1_555
C2_2 H1_2 1_555 1_555
C3_3 N2_2 1_555 1_555
H2_3 C3_3 1_555 1_555
C4_2 C2_2 1_555 1_555
H3_2 C4_2 1_555 1_555
C6_3 C3_3 1_555 1_555
H4_3 C6_3 1_555 1_555
Zn3 N2_2 1_555 1_555
C4_2 C7_2 1_555 1_555
C6_3 C7_2 1_555 1_555
Zn2_2 N6_4 1_555 1_555
N6_4 C9_4 1_555 1_555
C9_4 H5_4 1_555 1_555
C11_4 C9_4 1_555 1_555
H7_4 C11_4 1_555 1_555
C11_4 C14_4 1_555 1_555
H2_4 C3_4 1_555 1_555
C6_4 C3_4 1_555 1_555
H4_4 C6_4 1_555 1_555
N7_4 Zn1_4 1_555 1_555
N8_3 Zn1_5 1_555 1_555
N2_3 C2_3 1_555 1_555
N3_4 C1_4 1_555 1_555
C2_3 H1_3 1_555 1_555
C4_3 C2_3 1_555 1_555
H3_3 C4_3 1_555 1_555
C5_4 N1_4 1_555 1_555
C7_3 C1_4 1_555 1_555
Zn3_3 N2_3 1_555 1_555
N3_4 C5_4 1_555 1_555
C4_3 C7_3 1_555 1_555
Zn2_2 N1_5 1_555 1_555
S1_3 C5_5 1_555 1_555
N1_5 N4_5 1_555 1_555
N7_3 C2_4 1_555 1_555
N3_5 C1_5 1_555 1_555
C1_5 N4_5 1_555 1_555
C2_4 H1_4 1_555 1_555
C3_5 N7_3 1_555 1_555
H2_5 C3_5 1_555 1_555
C4_4 C2_4 1_555 1_555
H3_4 C4_4 1_555 1_555
C5_5 N1_5 1_555 1_555
C6_5 C3_5 1_555 1_555
H4_5 C6_5 1_555 1_555
C7_4 C1_5 1_555 1_555
N3_5 C5_5 1_555 1_555
C4_4 C7_4 1_555 1_555
C6_5 C7_4 1_555 1_555
Zn3_2 N1_6 1_555 1_555
S1_4 C5_6 1_555 1_555
N1_6 N4_6 1_555 1_555
N7 C2_5 1_555 1_555
N3_6 C1_6 1_555 1_555
C1_6 N4_6 1_555 1_555
C2_5 H1_5 1_555 1_555
C3_6 N7 1_555 1_555
H2_6 C3_6 1_555 1_555
C4_5 C2_5 1_555 1_555
H3_5 C4_5 1_555 1_555
C5_6 N1_6 1_555 1_555
C6_6 C3_6 1_555 1_555
H4_6 C6_6 1_555 1_555
C7_5 C1_6 1_555 1_555
N3_6 C5_6 1_555 1_555
C4_5 C7_5 1_555 1_555
C6_6 C7_5 1_555 1_555
N5_3 Zn3_3 1_555 1_555
N8_2 C9_5 1_555 1_555
N9_3 C8_3 1_555 1_555
C8_3 N10_4 1_555 1_555
C9_5 H5_5 1_555 1_555
N10_4 N5_3 1_555 1_555
C10_4 N8_2 1_555 1_555
H6_4 C10_4 1_555 1_555
C11_5 C9_5 1_555 1_555
H7_5 C11_5 1_555 1_555
C12_3 S2_5 1_555 1_555
C13_4 C10_4 1_555 1_555
H8_4 C13_4 1_555 1_555
C14_5 C8_3 1_555 1_555
N5_3 C12_3 1_555 1_555
N9_3 C12_3 1_555 1_555
C11_5 C14_5 1_555 1_555
C13_4 C14_5 1_555 1_555
Zn2 N1_7 1_555 1_555
S1_5 C5_7 1_555 1_555
N1_7 N4_7 1_555 1_555
N7_4 C2_6 1_555 1_555
N3_7 C1_7 1_555 1_555
C1_7 N4_7 1_555 1_555
C2_6 H1_6 1_555 1_555
C3_7 N7_4 1_555 1_555
H2_7 C3_7 1_555 1_555
C4_6 C2_6 1_555 1_555
H3_6 C4_6 1_555 1_555
C5_7 N1_7 1_555 1_555
C6_7 C3_7 1_555 1_555
H4_7 C6_7 1_555 1_555
C7_6 C1_7 1_555 1_555
S2_6 S1_5 1_555 1_555
N5_4 Zn2 1_555 1_555
N8 C9_6 1_555 1_555
N9_4 C8_4 1_555 1_555
C8_4 N10_5 1_555 1_555
C9_6 H5_6 1_555 1_555
N10_5 N5_4 1_555 1_555
C10_5 N8 1_555 1_555
H6_5 C10_5 1_555 1_555
C11_6 C9_6 1_555 1_555
H7_6 C11_6 1_555 1_555
C12_4 S2_6 1_555 1_555
C13_5 C10_5 1_555 1_555
H8_5 C13_5 1_555 1_555
C14_6 C8_4 1_555 1_555
N3_7 C5_7 1_555 1_555
C4_6 C7_6 1_555 1_555
C6_7 C7_6 1_555 1_555
N5_4 C12_4 1_555 1_555
N9_4 C12_4 1_555 1_555
C11_6 C14_6 1_555 1_555
C13_5 C14_6 1_555 1_555
Zn3 N1_8 1_555 1_555
S1_6 C5_8 1_555 1_555
N1_8 N4_8 1_555 1_555
N7_2 C2_7 1_555 1_555
N3_8 C1_8 1_555 1_555
C1_8 N4_8 1_555 1_555
C2_7 H1_7 1_555 1_555
C3_8 N7_2 1_555 1_555
H2_8 C3_8 1_555 1_555
C4_7 C2_7 1_555 1_555
H3_7 C4_7 1_555 1_555
C5_8 N1_8 1_555 1_555
C6_8 C3_8 1_555 1_555
H4_8 C6_8 1_555 1_555
C7_7 C1_8 1_555 1_555
S2_7 S1_6 1_555 1_555
N5_5 Zn3 1_555 1_555
N8_3 C9_7 1_555 1_555
N9_5 C8_5 1_555 1_555
C8_5 N10_6 1_555 1_555
C9_7 H5_7 1_555 1_555
N10_6 N5_5 1_555 1_555
C10_6 N8_3 1_555 1_555
H6_6 C10_6 1_555 1_555
C11_7 C9_7 1_555 1_555
H7_7 C11_7 1_555 1_555
C12_5 S2_7 1_555 1_555
C13_6 C10_6 1_555 1_555
H8_6 C13_6 1_555 1_555
C14_7 C8_5 1_555 1_555
N3_8 C5_8 1_555 1_555
C4_7 C7_7 1_555 1_555
C6_8 C7_7 1_555 1_555
N5_5 C12_5 1_555 1_555
N9_5 C12_5 1_555 1_555
C11_7 C14_7 1_555 1_555
C13_6 C14_7 1_555 1_555
N5_6 Zn1_6 1_555 1_555
N8_4 Zn1_6 1_555 1_555
N9_6 C8_6 1_555 1_555
C8_6 N10_7 1_555 1_555
N10_7 N5_6 1_555 1_555
N5_6 C12_6 1_555 1_555
N9_6 C12_6 1_555 1_555
N2_4 C2_8 1_555 1_555
C2_8 H1_8 1_555 1_555
C4_8 C2_8 1_555 1_555
H3_8 C4_8 1_555 1_555
Zn2_3 N2_4 1_555 1_555
C4_8 C7_8 1_555 1_555
H6_7 C10_7 1_555 1_555
C13_7 C10_7 1_555 1_555
H8_7 C13_7 1_555 1_555
N5_7 Zn2_3 1_555 1_555
N8_4 C9_8 1_555 1_555
N9_7 C8_7 1_555 1_555
C8_7 N10_8 1_555 1_555
C9_8 H5_8 1_555 1_555
N10_8 N5_7 1_555 1_555
C10_8 N8_4 1_555 1_555
H6_8 C10_8 1_555 1_555
C11_8 C9_8 1_555 1_555
H7_8 C11_8 1_555 1_555
C12_7 S2_8 1_555 1_555
C13_8 C10_8 1_555 1_555
H8_8 C13_8 1_555 1_555
C14_8 C8_7 1_555 1_555
N5_7 C12_7 1_555 1_555
N9_7 C12_7 1_555 1_555
C11_8 C14_8 1_555 1_555
C13_8 C14_8 1_555 1_555
Zn1_7 N1_9 1_555 1_555
S1_8 C5_9 1_555 1_555
N1_9 N4_9 1_555 1_555
N2_5 C2_9 1_555 1_555
N3_9 C1_9 1_555 1_555
C1_9 N4_9 1_555 1_555
C2_9 H1_9 1_555 1_555
C3_9 N2_5 1_555 1_555
H2_9 C3_9 1_555 1_555
C4_9 C2_9 1_555 1_555
H3_9 C4_9 1_555 1_555
C5_9 N1_9 1_555 1_555
C6_9 C3_9 1_555 1_555
H4_9 C6_9 1_555 1_555
C7_9 C1_9 1_555 1_555
Zn2_4 N2_5 1_555 1_555
N8_5 Zn1_7 1_555 1_555
N3_9 C5_9 1_555 1_555
C4_9 C7_9 1_555 1_555
C6_9 C7_9 1_555 1_555
Zn2_4 N6_5 1_555 1_555
N5_8 Zn1_8 1_555 1_555
N6_5 C9_9 1_555 1_555
N7_5 Zn1_8 1_555 1_555
N9_8 C8_8 1_555 1_555
C8_8 N10_9 1_555 1_555
C9_9 H5_9 1_555 1_555
N10_9 N5_8 1_555 1_555
C10_9 N6_5 1_555 1_555
H6_9 C10_9 1_555 1_555
C11_9 C9_9 1_555 1_555
H7_9 C11_9 1_555 1_555
C12_8 S2_9 1_555 1_555
C13_9 C10_9 1_555 1_555
H8_9 C13_9 1_555 1_555
C14_9 C8_8 1_555 1_555
N5_8 C12_8 1_555 1_555
N9_8 C12_8 1_555 1_555
C11_9 C14_9 1_555 1_555
C13_9 C14_9 1_555 1_555
Zn1_9 N1_10 1_555 1_555
S1_9 C5_10 1_555 1_555
N1_10 N4_10 1_555 1_555
N2_6 C2_10 1_555 1_555
N3_10 C1_10 1_555 1_555
C1_10 N4_10 1_555 1_555
C2_10 H1_10 1_555 1_555
C3_10 N2_6 1_555 1_555
H2_10 C3_10 1_555 1_555
C4_10 C2_10 1_555 1_555
H3_10 C4_10 1_555 1_555
C5_10 N1_10 1_555 1_555
C6_10 C3_10 1_555 1_555
H4_10 C6_10 1_555 1_555
C7_10 C1_10 1_555 1_555
Zn3_4 N2_6 1_555 1_555
N8_6 Zn1_9 1_555 1_555
N3_10 C5_10 1_555 1_555
C4_10 C7_10 1_555 1_555
C6_10 C7_10 1_555 1_555
Zn1_10 N1_11 1_555 1_555
S1_10 C5_11 1_555 1_555
N1_11 N4_11 1_555 1_555
N2_7 C2_11 1_555 1_555
N3_11 C1_11 1_555 1_555
C1_11 N4_11 1_555 1_555
C2_11 H1_11 1_555 1_555
C3_11 N2_7 1_555 1_555
H2_11 C3_11 1_555 1_555
C4_11 C2_11 1_555 1_555
H3_11 C4_11 1_555 1_555
C5_11 N1_11 1_555 1_555
C6_11 C3_11 1_555 1_555
H4_11 C6_11 1_555 1_555
C7_11 C1_11 1_555 1_555
Zn2_6 N2_7 1_555 1_555
Zn3_5 N6_6 1_555 1_555
S2_10 S1_10 1_555 1_555
N5_9 Zn1_10 1_555 1_555
N6_6 C9_10 1_555 1_555
N7_6 Zn1_10 1_555 1_555
N8_7 Zn1_10 1_555 1_555
N9_9 C8_9 1_555 1_555
C8_9 N10_10 1_555 1_555
C9_10 H5_10 1_555 1_555
N10_10 N5_9 1_555 1_555
C10_10 N6_6 1_555 1_555
H6_10 C10_10 1_555 1_555
C11_10 C9_10 1_555 1_555
H7_10 C11_10 1_555 1_555
C12_9 S2_10 1_555 1_555
C13_10 C10_10 1_555 1_555
H8_10 C13_10 1_555 1_555
C14_10 C8_9 1_555 1_555
N3_11 C5_11 1_555 1_555
C4_11 C7_11 1_555 1_555
C6_11 C7_11 1_555 1_555
N5_9 C12_9 1_555 1_555
N9_9 C12_9 1_555 1_555
C11_10 C14_10 1_555 1_555
C13_10 C14_10 1_555 1_555
Zn1_11 N1_12 1_555 1_555
S1_11 C5_12 1_555 1_555
N1_12 N4_12 1_555 1_555
N2_8 C2_12 1_555 1_555
N3_12 C1_12 1_555 1_555
C1_12 N4_12 1_555 1_555
C2_12 H1_12 1_555 1_555
C3_12 N2_8 1_555 1_555
H2_12 C3_12 1_555 1_555
C4_12 C2_12 1_555 1_555
H3_12 C4_12 1_555 1_555
C5_12 N1_12 1_555 1_555
C6_12 C3_12 1_555 1_555
H4_12 C6_12 1_555 1_555
C7_12 C1_12 1_555 1_555
Zn3_5 N2_8 1_555 1_555
Zn2_5 N6_7 1_555 1_555
S2_11 S1_11 1_555 1_555
N5_10 Zn1_11 1_555 1_555
N6_7 C9_11 1_555 1_555
N7_7 Zn1_11 1_555 1_555
N8_8 Zn1_11 1_555 1_555
N9_10 C8_10 1_555 1_555
C8_10 N10_11 1_555 1_555
C9_11 H5_11 1_555 1_555
N10_11 N5_10 1_555 1_555
C10_11 N6_7 1_555 1_555
H6_11 C10_11 1_555 1_555
C11_11 C9_11 1_555 1_555
H7_11 C11_11 1_555 1_555
C12_10 S2_11 1_555 1_555
C13_11 C10_11 1_555 1_555
H8_11 C13_11 1_555 1_555
C14_11 C8_10 1_555 1_555
N3_12 C5_12 1_555 1_555
C4_12 C7_12 1_555 1_555
C6_12 C7_12 1_555 1_555
N5_10 C12_10 1_555 1_555
N9_10 C12_10 1_555 1_555
C11_11 C14_11 1_555 1_555
C13_11 C14_11 1_555 1_555
N8_8 C9_12 1_555 1_555
C9_12 H5_12 1_555 1_555
C10_12 N8_8 1_555 1_555
H6_12 C10_12 1_555 1_555
C11_12 C9_12 1_555 1_555
H7_12 C11_12 1_555 1_555
C13_12 C10_12 1_555 1_555
H8_12 C13_12 1_555 1_555
C11_12 C14_12 1_555 1_555
C13_12 C14_12 1_555 1_555
Zn3_4 N1_13 1_555 1_555
N1_13 N4_13 1_555 1_555
N7_6 C2_13 1_555 1_555
N3_13 C1_13 1_555 1_555
C1_13 N4_13 1_555 1_555
C2_13 H1_13 1_555 1_555
C3_13 N7_6 1_555 1_555
H2_13 C3_13 1_555 1_555
C4_13 C2_13 1_555 1_555
H3_13 C4_13 1_555 1_555
C5_13 N1_13 1_555 1_555
C6_13 C3_13 1_555 1_555
H4_13 C6_13 1_555 1_555
C7_13 C1_13 1_555 1_555
N3_13 C5_13 1_555 1_555
C4_13 C7_13 1_555 1_555
C6_13 C7_13 1_555 1_555
H6_13 C10_13 1_555 1_555
C13_13 C10_13 1_555 1_555
H8_13 C13_13 1_555 1_555
S1_12 C5_14 1_555 1_555
N3_14 C1_14 1_555 1_555
C5_14 N1_14 1_555 1_555
S2_13 S1_12 1_555 1_555
N8_6 C9_13 1_555 1_555
N9_11 C8_11 1_555 1_555
C9_13 H5_13 1_555 1_555
C11_13 C9_13 1_555 1_555
H7_13 C11_13 1_555 1_555
C12_11 S2_13 1_555 1_555
C14_13 C8_11 1_555 1_555
N3_14 C5_14 1_555 1_555
N5_11 C12_11 1_555 1_555
N9_11 C12_11 1_555 1_555
C11_13 C14_13 1_555 1_555
H2_14 C3_14 1_555 1_555
C6_14 C3_14 1_555 1_555
H4_14 C6_14 1_555 1_555
N7_7 C2_14 1_555 1_555
C2_14 H1_14 1_555 1_555
C3_15 N7_7 1_555 1_555
H2_15 C3_15 1_555 1_555
C4_14 C2_14 1_555 1_555
H3_14 C4_14 1_555 1_555
C6_15 C3_15 1_555 1_555
H4_15 C6_15 1_555 1_555
C4_14 C7_14 1_555 1_555
C6_15 C7_14 1_555 1_555
Zn2_4 N1_15 1_555 1_555
S1_13 C5_15 1_555 1_555
N1_15 N4_15 1_555 1_555
N3_15 C1_15 1_555 1_555
C1_15 N4_15 1_555 1_555
C5_15 N1_15 1_555 1_555
S2_14 S1_13 1_555 1_555
N5_12 Zn2_4 1_555 1_555
N8_7 C9_14 1_555 1_555
N9_12 C8_12 1_555 1_555
C8_12 N10_13 1_555 1_555
C9_14 H5_14 1_555 1_555
N10_13 N5_12 1_555 1_555
C10_14 N8_7 1_555 1_555
H6_14 C10_14 1_555 1_555
C11_14 C9_14 1_555 1_555
H7_14 C11_14 1_555 1_555
C12_12 S2_14 1_555 1_555
C13_14 C10_14 1_555 1_555
H8_14 C13_14 1_555 1_555
C14_14 C8_12 1_555 1_555
N3_15 C5_15 1_555 1_555
N5_12 C12_12 1_555 1_555
N9_12 C12_12 1_555 1_555
C11_14 C14_14 1_555 1_555
C13_14 C14_14 1_555 1_555
N7_5 C2_15 1_555 1_555
N3_16 C1_16 1_555 1_555
C2_15 H1_15 1_555 1_555
C4_15 C2_15 1_555 1_555
H3_15 C4_15 1_555 1_555
C5_16 N1_16 1_555 1_555
C7_15 C1_16 1_555 1_555
N3_16 C5_16 1_555 1_555
C4_15 C7_15 1_555 1_555
H2_16 C3_16 1_555 1_555
C6_16 C3_16 1_555 1_555
H4_16 C6_16 1_555 1_555
N8_5 C9_15 1_555 1_555
C9_15 H5_15 1_555 1_555
C11_15 C9_15 1_555 1_555
H7_15 C11_15 1_555 1_555
C11_15 C14_15 1_555 1_555
Zn3_6 N6_8 1_555 1_555
N5_13 Zn1_12 1_555 1_555
N6_8 C9_16 1_555 1_555
N7_8 Zn1_12 1_555 1_555
N9_13 C8_13 1_555 1_555
C8_13 N10_15 1_555 1_555
C9_16 H5_16 1_555 1_555
N10_15 N5_13 1_555 1_555
C10_15 N6_8 1_555 1_555
H6_15 C10_15 1_555 1_555
C11_16 C9_16 1_555 1_555
H7_16 C11_16 1_555 1_555
C12_13 S2_16 1_555 1_555
C13_15 C10_15 1_555 1_555
H8_15 C13_15 1_555 1_555
C14_16 C8_13 1_555 1_555
N5_13 C12_13 1_555 1_555
N9_13 C12_13 1_555 1_555
C11_16 C14_16 1_555 1_555
C13_15 C14_16 1_555 1_555
N5_14 Zn3_6 1_555 1_555
N9_14 C8_14 1_555 1_555
C8_14 N10_16 1_555 1_555
N10_16 N5_14 1_555 1_555
N5_14 C12_14 1_555 1_555
N9_14 C12_14 1_555 1_555
N7_8 C2_16 1_555 1_555
C2_16 H1_16 1_555 1_555
C4_16 C2_16 1_555 1_555
H3_16 C4_16 1_555 1_555
C4_16 C7_16 1_555 1_555
H6_16 C10_16 1_555 1_555
C13_16 C10_16 1_555 1_555
H8_16 C13_16 1_555 1_555
N9_15 C8_15 1_555 1_555
N5_15 C12_15 1_555 1_555
N9_15 C12_15 1_555 1_555
N9_16 C8_16 1_555 1_555
N5_16 C12_16 1_555 1_555
N9_16 C12_16 1_555 1_555

#END
