
###############################################################################
#
# This file contains modified crystal structure data generated from the
# MOF subset of the Cambridge Structural Database (CSD) v543 
# hosted by the Cambridge Crystallographic Data Centre (CCDC).
#
# This work is licensed under the Creative Commons
# Attribution-NonCommercial-ShareAlike 4.0 International License.
# To view a copy of this license, visit
# http://creativecommons.org/licenses/by-nc-sa/4.0/
# or send a letter to
# Creative Commons, PO Box 1866, Mountain View, CA 94042, USA.
#
# CIF created using the CSD Python API on 29 September 2022
# The structure has been converted into the P1 space group
# The structure has a 3D framework
# The original CSD entry WIYCAL is in the orthorhombic crystal system
# The original CSD entry WIYCAL is in a Sohncke space group
# The framework has been calculated to contain at least 10.0% void space
# The void calculation uses a probe of radius 1.32A, grid spacing 0.4
#
###############################################################################

data_WIYCAL
_chemical_formula_moiety         '(C56 H60 N4 O30 Zn8)n'
_symmetry_cell_setting           triclinic
_symmetry_space_group_name_H-M   'P 1'
_symmetry_Int_Tables_number      1
_space_group_name_Hall           'P 1'
loop_
_symmetry_equiv_pos_site_id
_symmetry_equiv_pos_as_xyz
1 x,y,z
_cell_length_a                   10.3267(2)
_cell_length_b                   12.9534(5)
_cell_length_c                   19.2093(5)
_cell_angle_alpha                90
_cell_angle_beta                 90
_cell_angle_gamma                90
_cell_volume                     2569.55
loop_
_atom_site_label
_atom_site_type_symbol
_atom_site_fract_x
_atom_site_fract_y
_atom_site_fract_z
O12 O 0.0139(5) 0.3336(5) 0.9416(3)
O5 O 0.1292(6) 0.2451(6) 0.0182(3)
Zn4 Zn 0.01445(8) 0.11143(7) 0.03997(5)
Zn7 Zn 0.32642(8) 0.20227(9) 0.03597(6)
O9 O 0.5924(6) 0.4447(7) 0.0463(4)
O10 O 0.8023(6) 0.4264(6) 0.0256(3)
O13 O 0.8509(5) 0.1811(5) 0.0281(3)
Zn1 Zn 0.51445(8) 0.38857(7) 0.96003(5)
Zn2 Zn 0.82642(8) 0.29773(9) 0.96403(6)
C1 C 0.6933(8) 0.3889(8) 0.8398(4)
C2 C 0.7149(9) 0.4256(8) 0.7671(4)
C3 C 0.8349(9) 0.4104(9) 0.7353(5)
H1 H 0.901431 0.373937 0.759037
C4 C 0.8567(10) 0.4488(10) 0.6687(5)
H2 H 0.938541 0.438012 0.647395
C5 C 0.7631(9) 0.5019(11) 0.6332(5)
C6 C 0.6414(9) 0.5147(10) 0.6652(5)
H3 H 0.574384 0.550226 0.641176
C7 C 0.6185(9) 0.4762(10) 0.7308(5)
H4 H 0.535524 0.484632 0.751424
C8 C 0.7914(9) 0.5445(9) 0.5630(5)
O1 O 0.7862(6) 0.3451(7) 0.8691(3)
O2 O 0.5851(7) 0.4086(5) 0.8665(3)
O3 O 0.9076(6) 0.5553(7) 0.5463(4)
O4 O 0.6977(6) 0.5736(6) 0.5256(3)
C9 C 0.1164(6) 0.3085(7) 0.9687(4)
C10 C 0.2403(7) 0.3536(8) 0.9357(5)
H5 H 0.236361 0.430616 0.939038
C11 C 0.2467(10) 0.3236(13) 0.8597(5)
H6 H 0.168928 0.348498 0.835722
H7 H 0.323628 0.354628 0.838394
H8 H 0.251600 0.248298 0.855720
O7 O 0.3509(5) 0.3189(5) 0.9719(3)
O8 O 0.4247(7) 0.5372(5) 0.9482(4)
C12 C 0.4837(17) 0.6097(11) 0.9166(10)
H9 H 0.574428 0.601658 0.910549
N1 N 0.4307(19) 0.6963(14) 0.8911(12)
C13 C 0.312(2) 0.7290(18) 0.9253(15)
H10 H 0.280568 0.792495 0.903404
H11 H 0.246774 0.674734 0.920860
H12 H 0.329803 0.741936 0.974662
C14 C 0.495(3) 0.7626(18) 0.8444(14)
H13 H 0.438168 0.820753 0.832711
H14 H 0.574341 0.788635 0.866065
H15 H 0.516806 0.724616 0.801876
Zn3 Zn 0.98555(8) 0.61143(7) 0.46003(5)
Zn6 Zn 0.67358(8) 0.70227(9) 0.46403(6)
O11 O 0.6292(6) 0.2549(6) 0.9818(3)
C9_2 C 0.3836(6) 0.6915(7) 0.4687(4)
C10_2 C 0.2597(7) 0.6464(8) 0.4357(5)
H5_2 H 0.263639 0.569384 0.439038
C11_2 C 0.2533(10) 0.6764(13) 0.3597(5)
H6_2 H 0.331072 0.651502 0.335722
H7_2 H 0.176372 0.645372 0.338394
H8_2 H 0.248400 0.751702 0.355720
O5_2 O 0.3708(6) 0.7549(6) 0.5182(3)
O6 O 0.4861(5) 0.6664(5) 0.4416(3)
O7_2 O 0.1491(5) 0.6811(5) 0.4719(3)
O8_2 O 0.0753(7) 0.4628(5) 0.4482(4)
C12_2 C 0.0163(17) 0.3903(11) 0.4166(10)
N1_2 N 0.0693(19) 0.3037(14) 0.3911(12)
C13_2 C 0.188(2) 0.2710(18) 0.4253(15)
H10_2 H 0.219432 0.207505 0.403404
H11_2 H 0.253226 0.325266 0.420860
H12_2 H 0.170197 0.258064 0.474662
C14_2 C 0.005(3) 0.2374(18) 0.3444(14)
H13_2 H 0.061832 0.179247 0.332711
Zn4_2 Zn 0.48555(8) 0.88857(7) 0.53997(5)
Zn7_2 Zn 0.17358(8) 0.79773(9) 0.53597(6)
C1_2 C 0.8067(8) 0.6111(8) 0.3398(4)
C2_2 C 0.7851(9) 0.5744(8) 0.2671(4)
C3_2 C 0.6651(9) 0.5896(9) 0.2353(5)
H1_2 H 0.598569 0.626063 0.259037
C4_2 C 0.6433(10) 0.5512(10) 0.1687(5)
H2_2 H 0.561459 0.561988 0.147395
C5_2 C 0.7369(9) 0.4981(11) 0.1332(5)
C6_2 C 0.8586(9) 0.4853(10) 0.1652(5)
H3_2 H 0.925616 0.449774 0.141176
C7_2 C 0.8815(9) 0.5238(10) 0.2308(5)
H4_2 H 0.964476 0.515368 0.251424
C8_2 C 0.7086(9) 0.4555(9) 0.0630(5)
O1_2 O 0.7138(6) 0.6549(7) 0.3691(3)
O2_2 O 0.9149(7) 0.5914(5) 0.3665(3)
H9_2 H 0.925572 0.398342 0.410549
H14_2 H 0.925659 0.211365 0.366065
H15_2 H 0.983194 0.275384 0.301876
O11_2 O 0.8708(6) 0.7451(6) 0.4818(3)
O13_2 O 0.6491(5) 0.8189(5) 0.5281(3)
C5_3 C 0.2369(9) 0.0019(11) 0.8668(5)
C6_3 C 0.3586(9) 0.0147(10) 0.8348(5)
H3_3 H 0.425616 0.050226 0.858824
C8_3 C 0.2086(9) 0.0445(9) 0.9370(5)
O3_2 O 0.0924(6) 0.0553(7) 0.9537(4)
O4_2 O 0.3023(6) 0.0736(6) 0.9744(3)
O8_3 O 0.5753(7) 0.0372(5) 0.5518(4)
C12_3 C 0.5163(17) 0.1097(11) 0.5834(10)
H9_3 H 0.425572 0.101658 0.589451
N1_3 N 0.5693(19) 0.1963(14) 0.6089(12)
C13_3 C 0.688(2) 0.2290(18) 0.5747(15)
H10_3 H 0.719432 0.292495 0.596596
H11_3 H 0.753226 0.174734 0.579140
H12_3 H 0.670197 0.241936 0.525338
C14_3 C 0.505(3) 0.2626(18) 0.6556(14)
H13_3 H 0.561832 0.320753 0.667289
H14_3 H 0.425659 0.288635 0.633935
H15_3 H 0.483194 0.224616 0.698124
C1_3 C 0.3067(8) 0.8889(8) 0.6602(4)
C2_3 C 0.2851(9) 0.9256(8) 0.7329(4)
C3_3 C 0.1651(9) 0.9104(9) 0.7647(5)
H1_3 H 0.098569 0.873937 0.740963
C4_3 C 0.1433(10) 0.9488(10) 0.8313(5)
H2_3 H 0.061459 0.938012 0.852605
C7_3 C 0.3815(9) 0.9762(10) 0.7692(5)
H4_3 H 0.464476 0.984632 0.748576
O1_3 O 0.2138(6) 0.8451(7) 0.6309(3)
O2_3 O 0.4149(7) 0.9086(5) 0.6335(3)
C9_3 C 0.8836(6) 0.8085(7) 0.5313(4)
C10_3 C 0.7597(7) 0.8536(8) 0.5643(5)
H5_3 H 0.763639 0.930616 0.560962
C11_3 C 0.7533(10) 0.8236(13) 0.6403(5)
H6_3 H 0.831072 0.848498 0.664278
H7_3 H 0.676372 0.854628 0.661606
H8_3 H 0.748400 0.748298 0.644280
O6_2 O 0.9861(5) 0.8336(5) 0.5584(3)
O9_2 O 0.4076(6) 0.9447(7) 0.4537(4)
O10_2 O 0.1977(6) 0.9264(6) 0.4744(3)
C1_4 C 0.1933(8) 0.1111(8) 0.1602(4)
C2_4 C 0.2149(9) 0.0744(8) 0.2329(4)
C3_4 C 0.3349(9) 0.0896(9) 0.2647(5)
H1_4 H 0.401431 0.126063 0.240963
C4_4 C 0.3567(10) 0.0512(10) 0.3313(5)
H2_4 H 0.438541 0.061988 0.352605
C7_4 C 0.1185(9) 0.0238(10) 0.2692(5)
H4_4 H 0.035524 0.015368 0.248576
O1_4 O 0.2862(6) 0.1549(7) 0.1309(3)
O2_4 O 0.0851(7) 0.0914(5) 0.1335(3)
O12_2 O 0.5139(5) 0.1664(5) 0.0584(3)
C5_4 C 0.2631(9) 0.9981(11) 0.3668(5)
C6_4 C 0.1414(9) 0.9853(10) 0.3348(5)
H3_4 H 0.074384 0.949774 0.358824
C8_4 C 0.2914(9) 0.9555(9) 0.4370(5)
H9_4 H 0.074428 0.898342 0.089451
H14_4 H 0.074341 0.711365 0.133935
H15_4 H 0.016806 0.775384 0.198124
C9_4 C 0.6164(6) 0.1915(7) 0.0313(4)
C10_4 C 0.7403(7) 0.1464(8) 0.0643(5)
H5_4 H 0.736361 0.069384 0.060962
C11_4 C 0.7467(10) 0.1764(13) 0.1403(5)
H6_4 H 0.668928 0.151502 0.164278
H7_4 H 0.823628 0.145372 0.161606
H8_4 H 0.751600 0.251702 0.144280
O8_4 O 0.9247(7) 0.9628(5) 0.0518(4)
C12_4 C 0.9837(17) 0.8903(11) 0.0834(10)
N1_4 N 0.9307(19) 0.8037(14) 0.1089(12)
C13_4 C 0.812(2) 0.7710(18) 0.0747(15)
H10_4 H 0.780568 0.707505 0.096596
H11_4 H 0.746774 0.825266 0.079140
H12_4 H 0.829803 0.758064 0.025338
C14_4 C 0.995(3) 0.7374(18) 0.1556(14)
H13_4 H 0.938168 0.679247 0.167289
loop_
_geom_bond_atom_site_label_1
_geom_bond_atom_site_label_2
_geom_bond_site_symmetry_1
_geom_bond_site_symmetry_2
Zn4 O5 1_555 1_555
Zn7 O5 1_555 1_555
Zn1 O2 1_555 1_555
Zn2 O1 1_555 1_555
C1 C2 1_555 1_555
C2 C3 1_555 1_555
C3 H1 1_555 1_555
C4 C3 1_555 1_555
H2 C4 1_555 1_555
C5 C4 1_555 1_555
C6 C5 1_555 1_555
H3 C6 1_555 1_555
C7 C2 1_555 1_555
H4 C7 1_555 1_555
C8 C5 1_555 1_555
O1 C1 1_555 1_555
O2 C1 1_555 1_555
O3 C8 1_555 1_555
O4 C8 1_555 1_555
C9 C10 1_555 1_555
C10 H5 1_555 1_555
C11 C10 1_555 1_555
H6 C11 1_555 1_555
H7 C11 1_555 1_555
H8 C11 1_555 1_555
O12 C9 1_555 1_555
O7 Zn1 1_555 1_555
O8 Zn1 1_555 1_555
C12 O8 1_555 1_555
H9 C12 1_555 1_555
N1 C12 1_555 1_555
C13 N1 1_555 1_555
H10 C13 1_555 1_555
H11 C13 1_555 1_555
H12 C13 1_555 1_555
C14 N1 1_555 1_555
H13 C14 1_555 1_555
H14 C14 1_555 1_555
H15 C14 1_555 1_555
Zn3 O3 1_555 1_555
Zn6 O4 1_555 1_555
O11 Zn1 1_555 1_555
Zn2 O11 1_555 1_555
C6 C7 1_555 1_555
C10 O7 1_555 1_555
C9_2 C10_2 1_555 1_555
C10_2 H5_2 1_555 1_555
C11_2 C10_2 1_555 1_555
H6_2 C11_2 1_555 1_555
H7_2 C11_2 1_555 1_555
H8_2 C11_2 1_555 1_555
O5_2 C9_2 1_555 1_555
O6 C9_2 1_555 1_555
C12_2 O8_2 1_555 1_555
N1_2 C12_2 1_555 1_555
C13_2 N1_2 1_555 1_555
H10_2 C13_2 1_555 1_555
H11_2 C13_2 1_555 1_555
H12_2 C13_2 1_555 1_555
C14_2 N1_2 1_555 1_555
H13_2 C14_2 1_555 1_555
Zn4_2 O5_2 1_555 1_555
Zn6 O6 1_555 1_555
Zn7_2 O5_2 1_555 1_555
C10_2 O7_2 1_555 1_555
O7_2 Zn7_2 1_555 1_555
Zn3 O2_2 1_555 1_555
Zn6 O1_2 1_555 1_555
C1_2 C2_2 1_555 1_555
C2_2 C3_2 1_555 1_555
C3_2 H1_2 1_555 1_555
C4_2 C3_2 1_555 1_555
H2_2 C4_2 1_555 1_555
C5_2 C4_2 1_555 1_555
C6_2 C5_2 1_555 1_555
H3_2 C6_2 1_555 1_555
C7_2 C2_2 1_555 1_555
H4_2 C7_2 1_555 1_555
C8_2 C5_2 1_555 1_555
O1_2 C1_2 1_555 1_555
O2_2 C1_2 1_555 1_555
O9 C8_2 1_555 1_555
O10 C8_2 1_555 1_555
O11_2 Zn3 1_555 1_555
O13_2 Zn6 1_555 1_555
Zn6 O11_2 1_555 1_555
C6_2 C7_2 1_555 1_555
C6_3 C5_3 1_555 1_555
H3_3 C6_3 1_555 1_555
C8_3 C5_3 1_555 1_555
O3_2 C8_3 1_555 1_555
O4_2 C8_3 1_555 1_555
C12_3 O8_3 1_555 1_555
H9_3 C12_3 1_555 1_555
N1_3 C12_3 1_555 1_555
C13_3 N1_3 1_555 1_555
H10_3 C13_3 1_555 1_555
H11_3 C13_3 1_555 1_555
H12_3 C13_3 1_555 1_555
C14_3 N1_3 1_555 1_555
H13_3 C14_3 1_555 1_555
H14_3 C14_3 1_555 1_555
H15_3 C14_3 1_555 1_555
Zn4_2 O2_3 1_555 1_555
Zn7_2 O1_3 1_555 1_555
C1_3 C2_3 1_555 1_555
C2_3 C3_3 1_555 1_555
C3_3 H1_3 1_555 1_555
C4_3 C3_3 1_555 1_555
H2_3 C4_3 1_555 1_555
C7_3 C2_3 1_555 1_555
H4_3 C7_3 1_555 1_555
O1_3 C1_3 1_555 1_555
O2_3 C1_3 1_555 1_555
C9_3 C10_3 1_555 1_555
C10_3 H5_3 1_555 1_555
C11_3 C10_3 1_555 1_555
H6_3 C11_3 1_555 1_555
H7_3 C11_3 1_555 1_555
H8_3 C11_3 1_555 1_555
O11_2 C9_3 1_555 1_555
O6_2 C9_3 1_555 1_555
O13_2 Zn4_2 1_555 1_555
O9_2 Zn4_2 1_555 1_555
O10_2 Zn7_2 1_555 1_555
C10_3 O13_2 1_555 1_555
Zn4 O2_4 1_555 1_555
Zn7 O1_4 1_555 1_555
C1_4 C2_4 1_555 1_555
C2_4 C3_4 1_555 1_555
C3_4 H1_4 1_555 1_555
C4_4 C3_4 1_555 1_555
H2_4 C4_4 1_555 1_555
C7_4 C2_4 1_555 1_555
H4_4 C7_4 1_555 1_555
O1_4 C1_4 1_555 1_555
O2_4 C1_4 1_555 1_555
O12_2 Zn7 1_555 1_555
C6_4 C5_4 1_555 1_555
H3_4 C6_4 1_555 1_555
C8_4 C5_4 1_555 1_555
O9_2 C8_4 1_555 1_555
O10_2 C8_4 1_555 1_555
C9_4 C10_4 1_555 1_555
C10_4 H5_4 1_555 1_555
C11_4 C10_4 1_555 1_555
H6_4 C11_4 1_555 1_555
H7_4 C11_4 1_555 1_555
H8_4 C11_4 1_555 1_555
O12_2 C9_4 1_555 1_555
C10_4 O13 1_555 1_555
C12_4 O8_4 1_555 1_555
N1_4 C12_4 1_555 1_555
C13_4 N1_4 1_555 1_555
H10_4 C13_4 1_555 1_555
H11_4 C13_4 1_555 1_555
H12_4 C13_4 1_555 1_555
C14_4 N1_4 1_555 1_555
H13_4 C14_4 1_555 1_555

#END
