
###############################################################################
#
# This file contains modified crystal structure data generated from the
# MOF subset of the Cambridge Structural Database (CSD) v543 
# hosted by the Cambridge Crystallographic Data Centre (CCDC).
#
# This work is licensed under the Creative Commons
# Attribution-NonCommercial-ShareAlike 4.0 International License.
# To view a copy of this license, visit
# http://creativecommons.org/licenses/by-nc-sa/4.0/
# or send a letter to
# Creative Commons, PO Box 1866, Mountain View, CA 94042, USA.
#
# CIF created using the CSD Python API on 29 September 2022
# The structure has been converted into the P1 space group
# The structure has a 3D framework
# The original CSD entry WIYFAM is in the tetragonal crystal system
# The framework has been calculated to contain at least 10.0% void space
# The void calculation uses a probe of radius 1.32A, grid spacing 0.4
#
###############################################################################

data_WIYFAM
_chemical_formula_moiety         '(C56 H56 N16 O10 Zn8)n'
_symmetry_cell_setting           triclinic
_symmetry_space_group_name_H-M   'P 1'
_symmetry_Int_Tables_number      1
_space_group_name_Hall           'P 1'
loop_
_symmetry_equiv_pos_site_id
_symmetry_equiv_pos_as_xyz
1 x,y,z
_cell_length_a                   11.5228(4)
_cell_length_b                   11.5228(4)
_cell_length_c                   25.7692(19)
_cell_angle_alpha                90
_cell_angle_beta                 90
_cell_angle_gamma                90
_cell_volume                     3421.5
loop_
_atom_site_label
_atom_site_type_symbol
_atom_site_fract_x
_atom_site_fract_y
_atom_site_fract_z
Zn1 Zn 0.40139(3) 0.40139(3) 0.20782(2)
N1 N 0.2477(2) 0.4615(3) 0.22942(11)
O1 O 0.4316(3) 0.4316(3) 0.13381(14)
O2 O 0.5000 0.5000 0.2500
C1 C 0.1077(4) 0.3599(6) 0.1737(2)
H1 H 0.0905 0.2841 0.1872
H2 H 0.1722 0.3549 0.1502
H3 H 0.0412 0.3894 0.1556
C2 C 0.1375(3) 0.4390(4) 0.21722(16)
C3 C 0.0648(4) 0.5000 0.2500
C4 C 0.5000 0.5000 0.1119(3)
C5 C 0.5000 0.5000 0.0540(3)
C6 C 0.4286(4) 0.4286(4) 0.0267(3)
H4 H 0.3789 0.3789 0.0444
Zn2 Zn 0.40139(3) 0.59861(3) 0.29218(2)
Zn5 Zn 0.59861(3) 0.40139(3) 0.29218(2)
Zn6 Zn 0.59861(3) 0.59861(3) 0.20782(2)
N2 N 0.2477(2) 0.5385(3) 0.27058(11)
N5 N 0.4615(3) 0.2477(2) 0.22942(11)
N6 N 0.5385(3) 0.2477(2) 0.27058(11)
N9 N 0.4615(3) 0.7523(2) 0.27058(11)
O3 O 0.5684(3) 0.5684(3) 0.13381(14)
O6 O 0.4316(3) 0.5684(3) 0.36619(14)
C7 C 0.1077(4) 0.6401(6) 0.3263(2)
C10 C 0.3599(6) 0.1077(4) 0.1737(2)
C11 C 0.6401(6) 0.1077(4) 0.3263(2)
H5 H 0.0905 0.7159 0.3128
H8 H 0.2841 0.0905 0.1872
H9 H 0.7159 0.0905 0.3128
H12 H 0.1722 0.6451 0.3498
H15 H 0.3549 0.1722 0.1502
H16 H 0.6451 0.1722 0.3498
H19 H 0.0412 0.6106 0.3444
H22 H 0.3894 0.0412 0.1556
H23 H 0.6106 0.0412 0.3444
C14 C 0.1375(3) 0.5610(4) 0.28278(16)
C17 C 0.4390(4) 0.1375(3) 0.21722(16)
C18 C 0.5610(4) 0.1375(3) 0.28278(16)
C22 C 0.5000 0.0648(4) 0.2500
C28 C 0.5714(4) 0.5714(4) 0.0267(3)
H26 H 0.6211 0.6211 0.0444
Zn7 Zn 0.40139(3) 0.40139(3) 0.79218(2)
Zn8 Zn 0.59861(3) 0.59861(3) 0.79218(2)
O4 O 0.4316(3) 0.4316(3) 0.86619(14)
O5 O 0.5684(3) 0.5684(3) 0.86619(14)
C24 C 0.5000 0.5000 0.8881(3)
C25 C 0.5000 0.5000 0.9460(3)
C26 C 0.4286(4) 0.4286(4) 0.9733(3)
C27 C 0.5714(4) 0.5714(4) 0.9733(3)
H27 H 0.6211 0.6211 0.9556
H28 H 0.3789 0.3789 0.9556
N7 N 0.5385(3) 0.7523(2) 0.22942(11)
C12 C 0.3599(6) 0.8923(4) 0.3263(2)
C13 C 0.6401(6) 0.8923(4) 0.1737(2)
H10 H 0.2841 0.9095 0.3128
H11 H 0.7159 0.9095 0.1872
H17 H 0.3549 0.8278 0.3498
H18 H 0.6451 0.8278 0.1502
H24 H 0.3894 0.9588 0.3444
H25 H 0.6106 0.9588 0.1556
C19 C 0.5610(4) 0.8625(3) 0.21722(16)
C20 C 0.4390(4) 0.8625(3) 0.28278(16)
C23 C 0.5000 0.9352(4) 0.2500
N3 N 0.7523(2) 0.5385(3) 0.22942(11)
N4 N 0.7523(2) 0.4615(3) 0.27058(11)
O8 O 0.5684(3) 0.4316(3) 0.36619(14)
C8 C 0.8923(4) 0.3599(6) 0.3263(2)
C9 C 0.8923(4) 0.6401(6) 0.1737(2)
H6 H 0.9095 0.2841 0.3128
H7 H 0.9095 0.7159 0.1872
H13 H 0.8278 0.3549 0.3498
H14 H 0.8278 0.6451 0.1502
H20 H 0.9588 0.3894 0.3444
H21 H 0.9588 0.6106 0.1556
C15 C 0.8625(3) 0.5610(4) 0.21722(16)
C16 C 0.8625(3) 0.4390(4) 0.28278(16)
C21 C 0.9352(4) 0.5000 0.2500
Zn9 Zn 0.40139(3) 0.59861(3) 0.70782(2)
N7_2 N 0.2477(2) 0.5385(3) 0.72942(11)
N8 N 0.2477(2) 0.4615(3) 0.77058(11)
C12_2 C 0.1077(4) 0.3599(6) 0.8263(2)
C13_2 C 0.1077(4) 0.6401(6) 0.6737(2)
H10_2 H 0.0905 0.2841 0.8128
H11_2 H 0.0905 0.7159 0.6872
H17_2 H 0.1722 0.3549 0.8498
H18_2 H 0.1722 0.6451 0.6502
H24_2 H 0.0412 0.3894 0.8444
H25_2 H 0.0412 0.6106 0.6556
C19_2 C 0.1375(3) 0.5610(4) 0.71722(16)
C20_2 C 0.1375(3) 0.4390(4) 0.78278(16)
C23_2 C 0.0648(4) 0.5000 0.7500
Zn1_2 Zn 0.59861(3) 0.40139(3) 0.70782(2)
N1_2 N 0.5385(3) 0.2477(2) 0.72942(11)
O1_2 O 0.5684(3) 0.4316(3) 0.63381(14)
O2_2 O 0.5000 0.5000 0.7500
C1_2 C 0.6401(6) 0.1077(4) 0.6737(2)
H1_2 H 0.7159 0.0905 0.6872
H2_2 H 0.6451 0.1722 0.6502
H3_2 H 0.6106 0.0412 0.6556
C2_2 C 0.5610(4) 0.1375(3) 0.71722(16)
C3_2 C 0.5000 0.0648(4) 0.7500
C4_2 C 0.5000 0.5000 0.6119(3)
C5_2 C 0.5000 0.5000 0.5540(3)
C6_2 C 0.5714(4) 0.4286(4) 0.5267(3)
H4_2 H 0.6211 0.3789 0.5444
N2_2 N 0.4615(3) 0.2477(2) 0.77058(11)
N5_2 N 0.7523(2) 0.4615(3) 0.72942(11)
N6_2 N 0.7523(2) 0.5385(3) 0.77058(11)
O3_2 O 0.4316(3) 0.5684(3) 0.63381(14)
C7_2 C 0.3599(6) 0.1077(4) 0.8263(2)
C10_2 C 0.8923(4) 0.3599(6) 0.6737(2)
C11_2 C 0.8923(4) 0.6401(6) 0.8263(2)
H5_2 H 0.2841 0.0905 0.8128
H8_2 H 0.9095 0.2841 0.6872
H9_2 H 0.9095 0.7159 0.8128
H12_2 H 0.3549 0.1722 0.8498
H15_2 H 0.8278 0.3549 0.6502
H16_2 H 0.8278 0.6451 0.8498
H19_2 H 0.3894 0.0412 0.8444
H22_2 H 0.9588 0.3894 0.6556
H23_2 H 0.9588 0.6106 0.8444
C14_2 C 0.4390(4) 0.1375(3) 0.78278(16)
C17_2 C 0.8625(3) 0.4390(4) 0.71722(16)
C18_2 C 0.8625(3) 0.5610(4) 0.78278(16)
C22_2 C 0.9352(4) 0.5000 0.7500
C24_2 C 0.5000 0.5000 0.3881(3)
C25_2 C 0.5000 0.5000 0.4460(3)
C26_2 C 0.5714(4) 0.4286(4) 0.4733(3)
C27_2 C 0.4286(4) 0.5714(4) 0.4733(3)
C28_2 C 0.4286(4) 0.5714(4) 0.5267(3)
H26_2 H 0.3789 0.6211 0.5444
H27_2 H 0.3789 0.6211 0.4556
H28_2 H 0.6211 0.3789 0.4556
N3_2 N 0.4615(3) 0.7523(2) 0.72942(11)
N4_2 N 0.5385(3) 0.7523(2) 0.77058(11)
C8_2 C 0.6401(6) 0.8923(4) 0.8263(2)
C9_2 C 0.3599(6) 0.8923(4) 0.6737(2)
H6_2 H 0.7159 0.9095 0.8128
H7_2 H 0.2841 0.9095 0.6872
H13_2 H 0.6451 0.8278 0.8498
H14_2 H 0.3549 0.8278 0.6502
H20_2 H 0.6106 0.9588 0.8444
H21_2 H 0.3894 0.9588 0.6556
C15_2 C 0.4390(4) 0.8625(3) 0.71722(16)
C16_2 C 0.5610(4) 0.8625(3) 0.78278(16)
C21_2 C 0.5000 0.9352(4) 0.7500
loop_
_geom_bond_atom_site_label_1
_geom_bond_atom_site_label_2
_geom_bond_site_symmetry_1
_geom_bond_site_symmetry_2
Zn1 N1 1_555 1_555
N1 C2 1_555 1_555
O1 Zn1 1_555 1_555
O2 Zn1 1_555 1_555
C1 H1 1_555 1_555
H2 C1 1_555 1_555
H3 C1 1_555 1_555
C2 C1 1_555 1_555
C3 C2 1_555 1_555
C4 O1 1_555 1_555
C5 C4 1_555 1_555
C6 C5 1_555 1_555
H4 C6 1_555 1_555
Zn2 O2 1_555 1_555
Zn5 O2 1_555 1_555
Zn6 O2 1_555 1_555
N2 N1 1_555 1_555
N5 Zn1 1_555 1_555
N6 Zn5 1_555 1_555
N9 Zn2 1_555 1_555
O3 C4 1_555 1_555
O6 Zn2 1_555 1_555
C7 H5 1_555 1_555
C10 H8 1_555 1_555
C11 H9 1_555 1_555
H12 C7 1_555 1_555
H15 C10 1_555 1_555
H16 C11 1_555 1_555
H19 C7 1_555 1_555
H22 C10 1_555 1_555
H23 C11 1_555 1_555
C14 C3 1_555 1_555
C17 N5 1_555 1_555
C18 N6 1_555 1_555
C22 C17 1_555 1_555
C28 C5 1_555 1_555
H26 C28 1_555 1_555
Zn2 N2 1_555 1_555
Zn6 O3 1_555 1_555
N2 C14 1_555 1_555
N5 N6 1_555 1_555
C7 C14 1_555 1_555
C10 C17 1_555 1_555
C11 C18 1_555 1_555
C18 C22 1_555 1_555
Zn7 O4 1_555 1_555
Zn8 O5 1_555 1_555
O4 C24 1_555 1_555
O5 C24 1_555 1_555
C24 C25 1_555 1_555
C25 C26 1_555 1_555
C27 C25 1_555 1_555
H27 C27 1_555 1_555
H28 C26 1_555 1_555
Zn6 N7 1_555 1_555
N7 N9 1_555 1_555
N9 C20 1_555 1_555
C12 H10 1_555 1_555
C13 H11 1_555 1_555
H17 C12 1_555 1_555
H18 C13 1_555 1_555
H24 C12 1_555 1_555
H25 C13 1_555 1_555
C19 N7 1_555 1_555
C20 C12 1_555 1_555
C23 C19 1_555 1_555
C13 C19 1_555 1_555
C20 C23 1_555 1_555
Zn6 N3 1_555 1_555
Zn5 N4 1_555 1_555
N3 N4 1_555 1_555
N4 C16 1_555 1_555
O8 Zn5 1_555 1_555
C8 H6 1_555 1_555
C9 H7 1_555 1_555
H13 C8 1_555 1_555
H14 C9 1_555 1_555
H20 C8 1_555 1_555
H21 C9 1_555 1_555
C15 N3 1_555 1_555
C16 C8 1_555 1_555
C9 C15 1_555 1_555
C15 C21 1_555 1_555
C16 C21 1_555 1_555
Zn9 N7_2 1_555 1_555
Zn7 N8 1_555 1_555
N7_2 N8 1_555 1_555
N8 C20_2 1_555 1_555
C12_2 H10_2 1_555 1_555
C13_2 H11_2 1_555 1_555
H17_2 C12_2 1_555 1_555
H18_2 C13_2 1_555 1_555
H24_2 C12_2 1_555 1_555
H25_2 C13_2 1_555 1_555
C19_2 N7_2 1_555 1_555
C20_2 C12_2 1_555 1_555
C23_2 C19_2 1_555 1_555
C13_2 C19_2 1_555 1_555
C20_2 C23_2 1_555 1_555
Zn1_2 N1_2 1_555 1_555
N1_2 C2_2 1_555 1_555
O1_2 Zn1_2 1_555 1_555
O2_2 Zn1_2 1_555 1_555
C1_2 H1_2 1_555 1_555
H2_2 C1_2 1_555 1_555
H3_2 C1_2 1_555 1_555
C2_2 C1_2 1_555 1_555
C3_2 C2_2 1_555 1_555
C4_2 O1_2 1_555 1_555
C5_2 C4_2 1_555 1_555
C6_2 C5_2 1_555 1_555
H4_2 C6_2 1_555 1_555
Zn7 O2_2 1_555 1_555
Zn8 O2_2 1_555 1_555
Zn9 O2_2 1_555 1_555
N2_2 N1_2 1_555 1_555
N5_2 Zn1_2 1_555 1_555
N6_2 Zn8 1_555 1_555
O3_2 C4_2 1_555 1_555
O8 C24_2 1_555 1_555
O6 C24_2 1_555 1_555
C7_2 H5_2 1_555 1_555
C10_2 H8_2 1_555 1_555
C11_2 H9_2 1_555 1_555
H12_2 C7_2 1_555 1_555
H15_2 C10_2 1_555 1_555
H16_2 C11_2 1_555 1_555
H19_2 C7_2 1_555 1_555
H22_2 C10_2 1_555 1_555
H23_2 C11_2 1_555 1_555
C14_2 C3_2 1_555 1_555
C17_2 N5_2 1_555 1_555
C18_2 N6_2 1_555 1_555
C22_2 C17_2 1_555 1_555
C24_2 C25_2 1_555 1_555
C25_2 C26_2 1_555 1_555
C26_2 C6_2 1_555 1_555
C27_2 C25_2 1_555 1_555
C28_2 C5_2 1_555 1_555
H26_2 C28_2 1_555 1_555
H27_2 C27_2 1_555 1_555
H28_2 C26_2 1_555 1_555
Zn7 N2_2 1_555 1_555
Zn9 O3_2 1_555 1_555
N2_2 C14_2 1_555 1_555
N5_2 N6_2 1_555 1_555
C7_2 C14_2 1_555 1_555
C10_2 C17_2 1_555 1_555
C11_2 C18_2 1_555 1_555
C18_2 C22_2 1_555 1_555
C27_2 C28_2 1_555 1_555
Zn9 N3_2 1_555 1_555
Zn8 N4_2 1_555 1_555
N3_2 N4_2 1_555 1_555
N4_2 C16_2 1_555 1_555
C8_2 H6_2 1_555 1_555
C9_2 H7_2 1_555 1_555
H13_2 C8_2 1_555 1_555
H14_2 C9_2 1_555 1_555
H20_2 C8_2 1_555 1_555
H21_2 C9_2 1_555 1_555
C15_2 N3_2 1_555 1_555
C16_2 C8_2 1_555 1_555
C9_2 C15_2 1_555 1_555
C15_2 C21_2 1_555 1_555
C16_2 C21_2 1_555 1_555

#END
