
###############################################################################
#
# This file contains modified crystal structure data generated from the
# MOF subset of the Cambridge Structural Database (CSD) v543 
# hosted by the Cambridge Crystallographic Data Centre (CCDC).
#
# This work is licensed under the Creative Commons
# Attribution-NonCommercial-ShareAlike 4.0 International License.
# To view a copy of this license, visit
# http://creativecommons.org/licenses/by-nc-sa/4.0/
# or send a letter to
# Creative Commons, PO Box 1866, Mountain View, CA 94042, USA.
#
# CIF created using the CSD Python API on 29 September 2022
# The structure has been converted into the P1 space group
# The structure has a 3D framework
# The original CSD entry WIYXUZ is in the orthorhombic crystal system
# The framework has been calculated to contain at least 10.0% void space
# The void calculation uses a probe of radius 1.32A, grid spacing 0.4
#
###############################################################################

data_WIYXUZ
_chemical_formula_moiety         '(C184 H176 N16 O44 Zn8)n'
_symmetry_cell_setting           triclinic
_symmetry_space_group_name_H-M   'P 1'
_symmetry_Int_Tables_number      1
_space_group_name_Hall           'P 1'
loop_
_symmetry_equiv_pos_site_id
_symmetry_equiv_pos_as_xyz
1 x,y,z
_cell_length_a                   14.0942(11)
_cell_length_b                   17.0938(13)
_cell_length_c                   20.1929(16)
_cell_angle_alpha                90
_cell_angle_beta                 90
_cell_angle_gamma                90
_cell_volume                     4864.94
loop_
_atom_site_label
_atom_site_type_symbol
_atom_site_fract_x
_atom_site_fract_y
_atom_site_fract_z
Zn1 Zn 0.32195(4) 0.12479(3) 0.42033(3)
O1 O 0.2898(3) 0.2276(2) 0.47749(19)
O2 O 0.3603(3) 0.1355(2) 0.5264(2)
O3 O 0.2925(2) 0.3209(2) 0.58240(17)
O4 O 0.1729(3) 0.4333(3) 0.5810(3)
O5 O 0.0100(3) 0.3510(2) 0.5801(2)
N1 N 0.3201(3) 0.1856(2) 0.3319(2)
N2 N 0.7055(3) 0.5535(2) 0.07541(17)
C1 C 0.3309(4) 0.2034(4) 0.5266(4)
C2 C 0.3540(4) 0.2544(3) 0.5832(3)
H1 H 0.3460 0.2257 0.6243
H2 H 0.4196 0.2713 0.5803
C3 C 0.2992(4) 0.3715(3) 0.6347(2)
C4 C 0.2337(4) 0.4323(3) 0.6339(3)
C5 C 0.2381(6) 0.4870(3) 0.6860(4)
H3 H 0.1970 0.5295 0.6860
C6 C 0.3008(7) 0.4788(5) 0.7358(4)
H4 H 0.3016 0.5147 0.7703
C7 C 0.3625(7) 0.4186(4) 0.7357(3)
H5 H 0.4061 0.4142 0.7701
C8 C 0.3626(4) 0.3642(3) 0.6865(3)
H6 H 0.4049 0.3225 0.6877
C9 C 0.0858(4) 0.4743(4) 0.5867(3)
H7 H 0.0798 0.5106 0.5500
H8 H 0.0859 0.5045 0.6274
C10 C 0.0028(4) 0.4205(4) 0.5869(3)
C11 C 0.3720(4) 0.1599(3) 0.2820(2)
H9 H 0.4017 0.1116 0.2863
C12 C 0.3846(3) 0.2008(3) 0.2240(2)
H10 H 0.4222 0.1798 0.1906
C13 C 0.3422(3) 0.2725(2) 0.2150(2)
C14 C 0.2860(4) 0.2984(3) 0.2677(3)
H11 H 0.2539 0.3457 0.2643
C15 C 0.2776(4) 0.2553(3) 0.3237(2)
H12 H 0.2407 0.2748 0.3580
C16 C 0.3560(3) 0.3176(3) 0.1530(2)
H13 H 0.3043 0.3546 0.1485
H14 H 0.3525 0.2818 0.1158
C17 C 0.4508(3) 0.3626(3) 0.1492(2)
H15 H 0.4523 0.4024 0.1835
H16 H 0.5030 0.3268 0.1571
C18 C 0.4629(4) 0.4008(3) 0.0820(2)
H17 H 0.4065 0.4310 0.0719
H18 H 0.4688 0.3603 0.0486
C19 C 0.5476(3) 0.4533(3) 0.0780(2)
C20 C 0.6370(4) 0.4271(3) 0.0629(3)
H19 H 0.6466 0.3745 0.0533
C21 C 0.7128(4) 0.4782(3) 0.0620(3)
H20 H 0.7723 0.4585 0.0513
C22 C 0.6181(3) 0.5809(3) 0.0886(2)
H21 H 0.6104 0.6341 0.0966
C23 C 0.5395(3) 0.5331(3) 0.0905(2)
H22 H 0.4803 0.5544 0.1002
Zn3 Zn 0.82195(4) 0.62479(3) 0.07967(3)
O7 O 0.4226(2) 0.0436(2) 0.40470(18)
N3 N 0.2055(3) 0.0535(2) 0.42459(17)
O6 O 0.9226(2) 0.4564(2) 0.59530(18)
Zn2 Zn 0.82195(4) 0.37521(3) 0.57967(3)
N2_2 N 0.2055(3) 0.9465(2) 0.92459(17)
C22_2 C 0.1181(3) 0.9191(3) 0.9114(2)
H21_2 H 0.1104 0.8659 0.9034
C23_2 C 0.0395(3) 0.9669(3) 0.9095(2)
Zn3_2 Zn 0.32195(4) 0.87521(3) 0.92033(3)
O1_2 O 0.7898(3) 0.2724(2) 0.52251(19)
O2_2 O 0.8603(3) 0.3645(2) 0.4736(2)
O3_2 O 0.7925(2) 0.1791(2) 0.41760(17)
O4_2 O 0.6729(3) 0.0667(3) 0.4190(3)
O5_2 O 0.5100(3) 0.1490(2) 0.4199(2)
N1_2 N 0.8201(3) 0.3144(2) 0.6681(2)
C1_2 C 0.8309(4) 0.2966(4) 0.4734(4)
C2_2 C 0.8540(4) 0.2456(3) 0.4168(3)
H1_2 H 0.8460 0.2743 0.3757
H2_2 H 0.9196 0.2287 0.4197
C3_2 C 0.7992(4) 0.1285(3) 0.3653(2)
C4_2 C 0.7337(4) 0.0677(3) 0.3661(3)
C5_2 C 0.7381(6) 0.0130(3) 0.3140(4)
C6_2 C 0.8008(7) 0.0212(5) 0.2642(4)
C7_2 C 0.8625(7) 0.0814(4) 0.2643(3)
H5_2 H 0.9061 0.0858 0.2299
C8_2 C 0.8626(4) 0.1358(3) 0.3135(3)
H6_2 H 0.9049 0.1775 0.3123
C9_2 C 0.5858(4) 0.0257(4) 0.4133(3)
C10_2 C 0.5028(4) 0.0795(4) 0.4131(3)
C11_2 C 0.8720(4) 0.3401(3) 0.7180(2)
H9_2 H 0.9017 0.3884 0.7137
C12_2 C 0.8846(3) 0.2992(3) 0.7760(2)
H10_2 H 0.9222 0.3202 0.8094
C13_2 C 0.8422(3) 0.2275(2) 0.7850(2)
C14_2 C 0.7860(4) 0.2016(3) 0.7323(3)
H11_2 H 0.7539 0.1543 0.7357
C15_2 C 0.7776(4) 0.2447(3) 0.6763(2)
H12_2 H 0.7407 0.2252 0.6420
C16_2 C 0.8560(3) 0.1824(3) 0.8470(2)
H13_2 H 0.8043 0.1454 0.8515
H14_2 H 0.8525 0.2182 0.8842
C17_2 C 0.9508(3) 0.1374(3) 0.8508(2)
H15_2 H 0.9523 0.0976 0.8165
C18_2 C 0.9629(4) 0.0992(3) 0.9180(2)
H17_2 H 0.9065 0.0690 0.9281
H18_2 H 0.9688 0.1397 0.9514
N3_2 N 0.7055(3) 0.4465(2) 0.57541(17)
C22_3 C 0.1181(3) 0.0809(3) 0.4114(2)
H21_3 H 0.1104 0.1341 0.4034
C23_3 C 0.0395(3) 0.0331(3) 0.4095(2)
O1_3 O 0.7898(3) 0.7276(2) 0.02251(19)
N1_3 N 0.8201(3) 0.6856(2) 0.1681(2)
C11_3 C 0.8720(4) 0.6599(3) 0.2180(2)
H9_3 H 0.9017 0.6116 0.2137
C12_3 C 0.8846(3) 0.7008(3) 0.2760(2)
H10_3 H 0.9222 0.6798 0.3094
C13_3 C 0.8422(3) 0.7725(2) 0.2850(2)
C14_3 C 0.7860(4) 0.7984(3) 0.2323(3)
H11_3 H 0.7539 0.8457 0.2357
C15_3 C 0.7776(4) 0.7553(3) 0.1763(2)
H12_3 H 0.7407 0.7748 0.1420
C16_3 C 0.8560(3) 0.8176(3) 0.3470(2)
H13_3 H 0.8043 0.8546 0.3515
H14_3 H 0.8525 0.7818 0.3842
C17_3 C 0.9508(3) 0.8626(3) 0.3508(2)
H15_3 H 0.9523 0.9024 0.3165
C18_3 C 0.9629(4) 0.9008(3) 0.4180(2)
H17_3 H 0.9065 0.9310 0.4281
H18_3 H 0.9688 0.8603 0.4514
O7_2 O 0.9226(2) 0.5436(2) 0.09530(18)
O2_3 O 0.8603(3) 0.6355(2) 0.9736(2)
O3_3 O 0.7925(2) 0.8209(2) 0.91760(17)
O4_3 O 0.6729(3) 0.9333(3) 0.9190(3)
O5_3 O 0.5100(3) 0.8510(2) 0.9199(2)
O6_2 O 0.4226(2) 0.9564(2) 0.90470(18)
C1_3 C 0.8309(4) 0.7034(4) 0.9734(4)
C2_3 C 0.8540(4) 0.7544(3) 0.9168(3)
H1_3 H 0.8460 0.7257 0.8757
H2_3 H 0.9196 0.7713 0.9197
C3_3 C 0.7992(4) 0.8715(3) 0.8653(2)
C4_3 C 0.7337(4) 0.9323(3) 0.8661(3)
C5_3 C 0.7381(6) 0.9870(3) 0.8140(4)
C6_3 C 0.8008(7) 0.9788(5) 0.7642(4)
C7_3 C 0.8625(7) 0.9186(4) 0.7643(3)
H5_3 H 0.9061 0.9142 0.7299
C8_3 C 0.8626(4) 0.8642(3) 0.8135(3)
H6_3 H 0.9049 0.8225 0.8123
C9_3 C 0.5858(4) 0.9743(4) 0.9133(3)
C10_3 C 0.5028(4) 0.9205(4) 0.9131(3)
O1_4 O 0.2898(3) 0.7724(2) 0.97749(19)
N1_4 N 0.3201(3) 0.8144(2) 0.8319(2)
C11_4 C 0.3720(4) 0.8401(3) 0.7820(2)
H9_4 H 0.4017 0.8884 0.7863
C12_4 C 0.3846(3) 0.7992(3) 0.7240(2)
H10_4 H 0.4222 0.8202 0.6906
C13_4 C 0.3422(3) 0.7275(2) 0.7150(2)
C14_4 C 0.2860(4) 0.7016(3) 0.7677(3)
H11_4 H 0.2539 0.6543 0.7643
C15_4 C 0.2776(4) 0.7447(3) 0.8237(2)
H12_4 H 0.2407 0.7252 0.8580
C16_4 C 0.3560(3) 0.6824(3) 0.6530(2)
H13_4 H 0.3043 0.6454 0.6485
H14_4 H 0.3525 0.7182 0.6158
C17_4 C 0.4508(3) 0.6374(3) 0.6492(2)
H15_4 H 0.4523 0.5976 0.6835
H16_2 H 0.5030 0.6732 0.6571
C18_4 C 0.4629(4) 0.5992(3) 0.5820(2)
H17_4 H 0.4065 0.5690 0.5719
H18_4 H 0.4688 0.6397 0.5486
C19_2 C 0.5476(3) 0.5467(3) 0.5780(2)
C20_2 C 0.6370(4) 0.5729(3) 0.5629(3)
H19_2 H 0.6466 0.6255 0.5533
C21_2 C 0.7128(4) 0.5218(3) 0.5620(3)
H20_2 H 0.7723 0.5415 0.5513
C22_4 C 0.6181(3) 0.4191(3) 0.5886(2)
H21_4 H 0.6104 0.3659 0.5966
C23_4 C 0.5395(3) 0.4669(3) 0.5905(2)
H22_2 H 0.4803 0.4456 0.6002
O2_4 O 0.1397(3) 0.3645(2) 0.0264(2)
O3_4 O 0.2075(2) 0.1791(2) 0.08240(17)
O4_4 O 0.3271(3) 0.0667(3) 0.0810(3)
O5_4 O 0.4900(3) 0.1490(2) 0.0801(2)
O6_3 O 0.5774(2) 0.0436(2) 0.09530(18)
C1_4 C 0.1691(4) 0.2966(4) 0.0266(4)
C2_4 C 0.1460(4) 0.2456(3) 0.0832(3)
H1_4 H 0.1540 0.2743 0.1243
H2_4 H 0.0804 0.2287 0.0803
C3_4 C 0.2008(4) 0.1285(3) 0.1347(2)
C4_4 C 0.2663(4) 0.0677(3) 0.1339(3)
C5_4 C 0.2619(6) 0.0130(3) 0.1860(4)
C6_4 C 0.1992(7) 0.0212(5) 0.2358(4)
C7_4 C 0.1375(7) 0.0814(4) 0.2357(3)
H5_4 H 0.0939 0.0858 0.2701
C8_4 C 0.1374(4) 0.1358(3) 0.1865(3)
H6_4 H 0.0951 0.1775 0.1877
C9_4 C 0.4142(4) 0.0257(4) 0.0867(3)
C10_4 C 0.4972(4) 0.0795(4) 0.0869(3)
Zn2_2 Zn 0.67805(4) 0.12479(3) 0.07967(3)
Zn1_2 Zn 0.17805(4) 0.37521(3) 0.92033(3)
O1_5 O 0.2102(3) 0.2724(2) 0.97749(19)
N1_5 N 0.1799(3) 0.3144(2) 0.8319(2)
C11_5 C 0.1280(4) 0.3401(3) 0.7820(2)
H9_5 H 0.0983 0.3884 0.7863
C12_5 C 0.1154(3) 0.2992(3) 0.7240(2)
H10_5 H 0.0778 0.3202 0.6906
C13_5 C 0.1578(3) 0.2275(2) 0.7150(2)
C14_5 C 0.2140(4) 0.2016(3) 0.7677(3)
H11_5 H 0.2461 0.1543 0.7643
C15_5 C 0.2224(4) 0.2447(3) 0.8237(2)
H12_5 H 0.2593 0.2252 0.8580
C16_5 C 0.1440(3) 0.1824(3) 0.6530(2)
H13_5 H 0.1957 0.1454 0.6485
H14_5 H 0.1475 0.2182 0.6158
C17_5 C 0.0492(3) 0.1374(3) 0.6492(2)
H15_5 H 0.0477 0.0976 0.6835
C18_5 C 0.0371(4) 0.0992(3) 0.5820(2)
H17_5 H 0.0935 0.0690 0.5719
H18_5 H 0.0312 0.1397 0.5486
O7_3 O 0.0774(2) 0.4564(2) 0.90470(18)
N3_3 N 0.2945(3) 0.4465(2) 0.92459(17)
N2_3 N 0.7945(3) 0.9465(2) 0.57541(17)
C22_5 C 0.8819(3) 0.9191(3) 0.5886(2)
H21_5 H 0.8896 0.8659 0.5966
C23_5 C 0.9605(3) 0.9669(3) 0.5905(2)
Zn3_3 Zn 0.67805(4) 0.87521(3) 0.57967(3)
O1_6 O 0.7102(3) 0.2276(2) 0.02251(19)
N1_6 N 0.6799(3) 0.1856(2) 0.1681(2)
N2_4 N 0.2945(3) 0.5535(2) 0.42459(17)
C11_6 C 0.6280(4) 0.1599(3) 0.2180(2)
H9_6 H 0.5983 0.1116 0.2137
C12_6 C 0.6154(3) 0.2008(3) 0.2760(2)
H10_6 H 0.5778 0.1798 0.3094
C13_6 C 0.6578(3) 0.2725(2) 0.2850(2)
C14_6 C 0.7140(4) 0.2984(3) 0.2323(3)
H11_6 H 0.7461 0.3457 0.2357
C15_6 C 0.7224(4) 0.2553(3) 0.1763(2)
H12_6 H 0.7593 0.2748 0.1420
C16_6 C 0.6440(3) 0.3176(3) 0.3470(2)
H13_6 H 0.6957 0.3546 0.3515
H14_6 H 0.6475 0.2818 0.3842
C17_6 C 0.5492(3) 0.3626(3) 0.3508(2)
H15_6 H 0.5477 0.4024 0.3165
H16_3 H 0.4970 0.3268 0.3429
C18_6 C 0.5371(4) 0.4008(3) 0.4180(2)
H17_6 H 0.5935 0.4310 0.4281
H18_6 H 0.5312 0.3603 0.4514
C19_3 C 0.4524(3) 0.4533(3) 0.4220(2)
C20_3 C 0.3630(4) 0.4271(3) 0.4371(3)
H19_3 H 0.3534 0.3745 0.4467
C21_3 C 0.2872(4) 0.4782(3) 0.4380(3)
H20_3 H 0.2277 0.4585 0.4487
C22_6 C 0.3819(3) 0.5809(3) 0.4114(2)
H21_6 H 0.3896 0.6341 0.4034
C23_6 C 0.4605(3) 0.5331(3) 0.4095(2)
H22_3 H 0.5197 0.5544 0.3998
Zn3_4 Zn 0.17805(4) 0.62479(3) 0.42033(3)
N3_4 N 0.7945(3) 0.0535(2) 0.07541(17)
O6_4 O 0.0774(2) 0.5436(2) 0.40470(18)
O1_7 O 0.7102(3) 0.7724(2) 0.52251(19)
O2_5 O 0.6397(3) 0.8645(2) 0.4736(2)
O3_5 O 0.7075(2) 0.6791(2) 0.41760(17)
O4_5 O 0.8271(3) 0.5667(3) 0.4190(3)
O5_5 O 0.9900(3) 0.6490(2) 0.4199(2)
N1_7 N 0.6799(3) 0.8144(2) 0.6681(2)
C1_5 C 0.6691(4) 0.7966(4) 0.4734(4)
C2_5 C 0.6460(4) 0.7456(3) 0.4168(3)
H1_5 H 0.6540 0.7743 0.3757
H2_5 H 0.5804 0.7287 0.4197
C3_5 C 0.7008(4) 0.6285(3) 0.3653(2)
C4_5 C 0.7663(4) 0.5677(3) 0.3661(3)
C5_5 C 0.7619(6) 0.5130(3) 0.3140(4)
H3_2 H 0.8030 0.4705 0.3140
C6_5 C 0.6992(7) 0.5212(5) 0.2642(4)
H4_2 H 0.6984 0.4853 0.2297
C7_5 C 0.6375(7) 0.5814(4) 0.2643(3)
H5_5 H 0.5939 0.5858 0.2299
C8_5 C 0.6374(4) 0.6358(3) 0.3135(3)
H6_5 H 0.5951 0.6775 0.3123
C9_5 C 0.9142(4) 0.5257(4) 0.4133(3)
H7_2 H 0.9202 0.4894 0.4500
H8_2 H 0.9141 0.4955 0.3726
C10_5 C 0.9972(4) 0.5795(4) 0.4131(3)
C11_7 C 0.6280(4) 0.8401(3) 0.7180(2)
H9_7 H 0.5983 0.8884 0.7137
C12_7 C 0.6154(3) 0.7992(3) 0.7760(2)
H10_7 H 0.5778 0.8202 0.8094
C13_7 C 0.6578(3) 0.7275(2) 0.7850(2)
C14_7 C 0.7140(4) 0.7016(3) 0.7323(3)
H11_7 H 0.7461 0.6543 0.7357
C15_7 C 0.7224(4) 0.7447(3) 0.6763(2)
H12_7 H 0.7593 0.7252 0.6420
C16_7 C 0.6440(3) 0.6824(3) 0.8470(2)
H13_7 H 0.6957 0.6454 0.8515
H14_7 H 0.6475 0.7182 0.8842
C17_7 C 0.5492(3) 0.6374(3) 0.8508(2)
H15_7 H 0.5477 0.5976 0.8165
H16_4 H 0.4970 0.6732 0.8429
C18_7 C 0.5371(4) 0.5992(3) 0.9180(2)
H17_7 H 0.5935 0.5690 0.9281
H18_7 H 0.5312 0.6397 0.9514
C19_4 C 0.4524(3) 0.5467(3) 0.9220(2)
C20_4 C 0.3630(4) 0.5729(3) 0.9371(3)
H19_4 H 0.3534 0.6255 0.9467
C21_4 C 0.2872(4) 0.5218(3) 0.9380(3)
H20_4 H 0.2277 0.5415 0.9487
C22_7 C 0.3819(3) 0.4191(3) 0.9114(2)
H21_7 H 0.3896 0.3659 0.9034
C23_7 C 0.4605(3) 0.4669(3) 0.9095(2)
H22_4 H 0.5197 0.4456 0.8998
O7_4 O 0.5774(2) 0.9564(2) 0.59530(18)
O1_8 O 0.2102(3) 0.7276(2) 0.47749(19)
O2_6 O 0.1397(3) 0.6355(2) 0.5264(2)
O3_6 O 0.2075(2) 0.8209(2) 0.58240(17)
O4_6 O 0.3271(3) 0.9333(3) 0.5810(3)
O5_6 O 0.4900(3) 0.8510(2) 0.5801(2)
N1_8 N 0.1799(3) 0.6856(2) 0.3319(2)
C1_6 C 0.1691(4) 0.7034(4) 0.5266(4)
C2_6 C 0.1460(4) 0.7544(3) 0.5832(3)
H1_6 H 0.1540 0.7257 0.6243
H2_6 H 0.0804 0.7713 0.5803
C3_6 C 0.2008(4) 0.8715(3) 0.6347(2)
C4_6 C 0.2663(4) 0.9323(3) 0.6339(3)
C5_6 C 0.2619(6) 0.9870(3) 0.6860(4)
C6_6 C 0.1992(7) 0.9788(5) 0.7358(4)
C7_6 C 0.1375(7) 0.9186(4) 0.7357(3)
H5_6 H 0.0939 0.9142 0.7701
C8_6 C 0.1374(4) 0.8642(3) 0.6865(3)
H6_6 H 0.0951 0.8225 0.6877
C9_6 C 0.4142(4) 0.9743(4) 0.5867(3)
C10_6 C 0.4972(4) 0.9205(4) 0.5869(3)
C11_8 C 0.1280(4) 0.6599(3) 0.2820(2)
H9_8 H 0.0983 0.6116 0.2863
C12_8 C 0.1154(3) 0.7008(3) 0.2240(2)
H10_8 H 0.0778 0.6798 0.1906
C13_8 C 0.1578(3) 0.7725(2) 0.2150(2)
C14_8 C 0.2140(4) 0.7984(3) 0.2677(3)
H11_8 H 0.2461 0.8457 0.2643
C15_8 C 0.2224(4) 0.7553(3) 0.3237(2)
H12_8 H 0.2593 0.7748 0.3580
C16_8 C 0.1440(3) 0.8176(3) 0.1530(2)
H13_8 H 0.1957 0.8546 0.1485
H14_8 H 0.1475 0.7818 0.1158
C17_8 C 0.0492(3) 0.8626(3) 0.1492(2)
H15_8 H 0.0477 0.9024 0.1835
C18_8 C 0.0371(4) 0.9008(3) 0.0820(2)
H17_8 H 0.0935 0.9310 0.0719
H18_8 H 0.0312 0.8603 0.0486
C22_8 C 0.8819(3) 0.0809(3) 0.0886(2)
H21_8 H 0.8896 0.1341 0.0966
C23_8 C 0.9605(3) 0.0331(3) 0.0905(2)
H3_3 H 0.3030 0.9705 0.1860
H4_3 H 0.1984 0.9853 0.2703
H7_3 H 0.4202 0.9894 0.0500
H8_3 H 0.4141 0.9955 0.1274
H22_5 H 0.0197 0.9456 0.6002
H16_5 H 0.9970 0.1732 0.6571
C19_5 C 0.9524(3) 0.0467(3) 0.5780(2)
C20_5 C 0.8630(4) 0.0729(3) 0.5629(3)
H19_5 H 0.8534 0.1255 0.5533
C21_5 C 0.7872(4) 0.0218(3) 0.5620(3)
H20_5 H 0.7277 0.0415 0.5513
H16_6 H 0.0030 0.1732 0.8429
C19_6 C 0.0476(3) 0.0467(3) 0.9220(2)
C20_6 C 0.1370(4) 0.0729(3) 0.9371(3)
H19_6 H 0.1466 0.1255 0.9467
C21_6 C 0.2128(4) 0.0218(3) 0.9380(3)
H20_6 H 0.2723 0.0415 0.9487
H3_4 H 0.6970 0.9705 0.3140
H4_4 H 0.8016 0.9853 0.2297
H7_4 H 0.5798 0.9894 0.4500
H8_4 H 0.5859 0.9955 0.3726
H22_6 H 0.9803 0.9456 0.8998
O2_7 O 0.6397(3) 0.1355(2) 0.9736(2)
O3_7 O 0.7075(2) 0.3209(2) 0.91760(17)
O4_7 O 0.8271(3) 0.4333(3) 0.9190(3)
O5_7 O 0.9900(3) 0.3510(2) 0.9199(2)
C1_7 C 0.6691(4) 0.2034(4) 0.9734(4)
C2_7 C 0.6460(4) 0.2544(3) 0.9168(3)
H1_7 H 0.6540 0.2257 0.8757
H2_7 H 0.5804 0.2713 0.9197
C3_7 C 0.7008(4) 0.3715(3) 0.8653(2)
C4_7 C 0.7663(4) 0.4323(3) 0.8661(3)
C5_7 C 0.7619(6) 0.4870(3) 0.8140(4)
H3_5 H 0.8030 0.5295 0.8140
C6_7 C 0.6992(7) 0.4788(5) 0.7642(4)
H4_5 H 0.6984 0.5147 0.7297
C7_7 C 0.6375(7) 0.4186(4) 0.7643(3)
H5_7 H 0.5939 0.4142 0.7299
C8_7 C 0.6374(4) 0.3642(3) 0.8135(3)
H6_7 H 0.5951 0.3225 0.8123
C9_7 C 0.9142(4) 0.4743(4) 0.9133(3)
H7_5 H 0.9202 0.5106 0.9500
H8_5 H 0.9141 0.5045 0.8726
C10_7 C 0.9972(4) 0.4205(4) 0.9131(3)
H16_7 H 0.0030 0.8268 0.3429
C19_7 C 0.0476(3) 0.9533(3) 0.4220(2)
C20_7 C 0.1370(4) 0.9271(3) 0.4371(3)
H19_7 H 0.1466 0.8745 0.4467
C21_7 C 0.2128(4) 0.9782(3) 0.4380(3)
H20_7 H 0.2723 0.9585 0.4487
H22_7 H 0.9803 0.0544 0.3998
H3_6 H 0.6970 0.0295 0.8140
H4_6 H 0.8016 0.0147 0.7297
H7_6 H 0.5798 0.0106 0.9500
H8_6 H 0.5859 0.0045 0.8726
H3_7 H 0.3030 0.0295 0.6860
H4_7 H 0.1984 0.0147 0.7703
H7_7 H 0.4202 0.0106 0.5500
H8_7 H 0.4141 0.0045 0.6274
H22_8 H 0.0197 0.0544 0.1002
H16_8 H 0.9970 0.8268 0.1571
C19_8 C 0.9524(3) 0.9533(3) 0.0780(2)
C20_8 C 0.8630(4) 0.9271(3) 0.0629(3)
H19_8 H 0.8534 0.8745 0.0533
C21_8 C 0.7872(4) 0.9782(3) 0.0620(3)
H20_8 H 0.7277 0.9585 0.0513
O2_8 O 0.3603(3) 0.8645(2) 0.0264(2)
O3_8 O 0.2925(2) 0.6791(2) 0.08240(17)
O4_8 O 0.1729(3) 0.5667(3) 0.0810(3)
O5_8 O 0.0100(3) 0.6490(2) 0.0801(2)
C1_8 C 0.3309(4) 0.7966(4) 0.0266(4)
C2_8 C 0.3540(4) 0.7456(3) 0.0832(3)
H1_8 H 0.3460 0.7743 0.1243
H2_8 H 0.4196 0.7287 0.0803
C3_8 C 0.2992(4) 0.6285(3) 0.1347(2)
C4_8 C 0.2337(4) 0.5677(3) 0.1339(3)
C5_8 C 0.2381(6) 0.5130(3) 0.1860(4)
H3_8 H 0.1970 0.4705 0.1860
C6_8 C 0.3008(7) 0.5212(5) 0.2358(4)
H4_8 H 0.3016 0.4853 0.2703
C7_8 C 0.3625(7) 0.5814(4) 0.2357(3)
H5_8 H 0.4061 0.5858 0.2701
C8_8 C 0.3626(4) 0.6358(3) 0.1865(3)
H6_8 H 0.4049 0.6775 0.1877
C9_8 C 0.0858(4) 0.5257(4) 0.0867(3)
H7_8 H 0.0798 0.4894 0.0500
H8_8 H 0.0859 0.4955 0.1274
C10_8 C 0.0028(4) 0.5795(4) 0.0869(3)
loop_
_geom_bond_atom_site_label_1
_geom_bond_atom_site_label_2
_geom_bond_site_symmetry_1
_geom_bond_site_symmetry_2
Zn1 O1 1_555 1_555
O1 C1 1_555 1_555
O2 Zn1 1_555 1_555
O3 C2 1_555 1_555
O4 C4 1_555 1_555
O5 C10 1_555 1_555
N1 Zn1 1_555 1_555
N2 C21 1_555 1_555
C1 O2 1_555 1_555
C2 C1 1_555 1_555
H1 C2 1_555 1_555
H2 C2 1_555 1_555
C3 O3 1_555 1_555
C4 C3 1_555 1_555
C5 C4 1_555 1_555
H3 C5 1_555 1_555
C6 C5 1_555 1_555
H4 C6 1_555 1_555
C7 C6 1_555 1_555
H5 C7 1_555 1_555
C8 C3 1_555 1_555
H6 C8 1_555 1_555
C9 O4 1_555 1_555
H7 C9 1_555 1_555
H8 C9 1_555 1_555
C10 C9 1_555 1_555
C11 N1 1_555 1_555
H9 C11 1_555 1_555
C12 C11 1_555 1_555
H10 C12 1_555 1_555
C13 C12 1_555 1_555
C14 C13 1_555 1_555
H11 C14 1_555 1_555
C15 N1 1_555 1_555
H12 C15 1_555 1_555
C16 C13 1_555 1_555
H13 C16 1_555 1_555
H14 C16 1_555 1_555
C17 C16 1_555 1_555
H15 C17 1_555 1_555
H16 C17 1_555 1_555
C18 C17 1_555 1_555
H17 C18 1_555 1_555
H18 C18 1_555 1_555
C19 C18 1_555 1_555
C20 C19 1_555 1_555
H19 C20 1_555 1_555
C21 C20 1_555 1_555
H20 C21 1_555 1_555
C22 N2 1_555 1_555
H21 C22 1_555 1_555
C23 C19 1_555 1_555
H22 C23 1_555 1_555
Zn3 N2 1_555 1_555
O7 Zn1 1_555 1_555
N3 Zn1 1_555 1_555
C7 C8 1_555 1_555
C14 C15 1_555 1_555
C22 C23 1_555 1_555
Zn2 O6 1_555 1_555
C22_2 N2_2 1_555 1_555
H21_2 C22_2 1_555 1_555
Zn3_2 N2_2 1_555 1_555
C22_2 C23_2 1_555 1_555
Zn2 O1_2 1_555 1_555
O1_2 C1_2 1_555 1_555
O2_2 Zn2 1_555 1_555
O3_2 C2_2 1_555 1_555
O4_2 C4_2 1_555 1_555
O5_2 C10_2 1_555 1_555
O7 C10_2 1_555 1_555
N1_2 Zn2 1_555 1_555
C1_2 O2_2 1_555 1_555
C2_2 C1_2 1_555 1_555
H1_2 C2_2 1_555 1_555
H2_2 C2_2 1_555 1_555
C3_2 O3_2 1_555 1_555
C4_2 C3_2 1_555 1_555
C5_2 C4_2 1_555 1_555
C6_2 C5_2 1_555 1_555
C7_2 C6_2 1_555 1_555
H5_2 C7_2 1_555 1_555
C8_2 C3_2 1_555 1_555
H6_2 C8_2 1_555 1_555
C9_2 O4_2 1_555 1_555
C10_2 C9_2 1_555 1_555
C11_2 N1_2 1_555 1_555
H9_2 C11_2 1_555 1_555
C12_2 C11_2 1_555 1_555
H10_2 C12_2 1_555 1_555
C13_2 C12_2 1_555 1_555
C14_2 C13_2 1_555 1_555
H11_2 C14_2 1_555 1_555
C15_2 N1_2 1_555 1_555
H12_2 C15_2 1_555 1_555
C16_2 C13_2 1_555 1_555
H13_2 C16_2 1_555 1_555
H14_2 C16_2 1_555 1_555
C17_2 C16_2 1_555 1_555
H15_2 C17_2 1_555 1_555
C18_2 C17_2 1_555 1_555
H17_2 C18_2 1_555 1_555
H18_2 C18_2 1_555 1_555
N3_2 Zn2 1_555 1_555
C7_2 C8_2 1_555 1_555
C14_2 C15_2 1_555 1_555
C22_3 N3 1_555 1_555
H21_3 C22_3 1_555 1_555
C22_3 C23_3 1_555 1_555
Zn3 O1_3 1_555 1_555
N1_3 Zn3 1_555 1_555
C11_3 N1_3 1_555 1_555
H9_3 C11_3 1_555 1_555
C12_3 C11_3 1_555 1_555
H10_3 C12_3 1_555 1_555
C13_3 C12_3 1_555 1_555
C14_3 C13_3 1_555 1_555
H11_3 C14_3 1_555 1_555
C15_3 N1_3 1_555 1_555
H12_3 C15_3 1_555 1_555
C16_3 C13_3 1_555 1_555
H13_3 C16_3 1_555 1_555
H14_3 C16_3 1_555 1_555
C17_3 C16_3 1_555 1_555
H15_3 C17_3 1_555 1_555
C18_3 C17_3 1_555 1_555
H17_3 C18_3 1_555 1_555
H18_3 C18_3 1_555 1_555
O7_2 Zn3 1_555 1_555
C14_3 C15_3 1_555 1_555
O3_3 C2_3 1_555 1_555
O4_3 C4_3 1_555 1_555
O5_3 C10_3 1_555 1_555
O6_2 C10_3 1_555 1_555
C1_3 O2_3 1_555 1_555
C2_3 C1_3 1_555 1_555
H1_3 C2_3 1_555 1_555
H2_3 C2_3 1_555 1_555
C3_3 O3_3 1_555 1_555
C4_3 C3_3 1_555 1_555
C5_3 C4_3 1_555 1_555
C6_3 C5_3 1_555 1_555
C7_3 C6_3 1_555 1_555
H5_3 C7_3 1_555 1_555
C8_3 C3_3 1_555 1_555
H6_3 C8_3 1_555 1_555
C9_3 O4_3 1_555 1_555
C10_3 C9_3 1_555 1_555
Zn3_2 O6_2 1_555 1_555
C7_3 C8_3 1_555 1_555
Zn3_2 O1_4 1_555 1_555
N1_4 Zn3_2 1_555 1_555
N3_2 C21_2 1_555 1_555
C11_4 N1_4 1_555 1_555
H9_4 C11_4 1_555 1_555
C12_4 C11_4 1_555 1_555
H10_4 C12_4 1_555 1_555
C13_4 C12_4 1_555 1_555
C14_4 C13_4 1_555 1_555
H11_4 C14_4 1_555 1_555
C15_4 N1_4 1_555 1_555
H12_4 C15_4 1_555 1_555
C16_4 C13_4 1_555 1_555
H13_4 C16_4 1_555 1_555
H14_4 C16_4 1_555 1_555
C17_4 C16_4 1_555 1_555
H15_4 C17_4 1_555 1_555
H16_2 C17_4 1_555 1_555
C18_4 C17_4 1_555 1_555
H17_4 C18_4 1_555 1_555
H18_4 C18_4 1_555 1_555
C19_2 C18_4 1_555 1_555
C20_2 C19_2 1_555 1_555
H19_2 C20_2 1_555 1_555
C21_2 C20_2 1_555 1_555
H20_2 C21_2 1_555 1_555
C22_4 N3_2 1_555 1_555
H21_4 C22_4 1_555 1_555
C23_4 C19_2 1_555 1_555
H22_2 C23_4 1_555 1_555
C14_4 C15_4 1_555 1_555
C22_4 C23_4 1_555 1_555
O3_4 C2_4 1_555 1_555
O4_4 C4_4 1_555 1_555
O5_4 C10_4 1_555 1_555
O6_3 C10_4 1_555 1_555
C1_4 O2_4 1_555 1_555
C2_4 C1_4 1_555 1_555
H1_4 C2_4 1_555 1_555
H2_4 C2_4 1_555 1_555
C3_4 O3_4 1_555 1_555
C4_4 C3_4 1_555 1_555
C5_4 C4_4 1_555 1_555
C6_4 C5_4 1_555 1_555
C7_4 C6_4 1_555 1_555
H5_4 C7_4 1_555 1_555
C8_4 C3_4 1_555 1_555
H6_4 C8_4 1_555 1_555
C9_4 O4_4 1_555 1_555
C10_4 C9_4 1_555 1_555
Zn2_2 O6_3 1_555 1_555
C7_4 C8_4 1_555 1_555
Zn1_2 O1_5 1_555 1_555
N1_5 Zn1_2 1_555 1_555
C11_5 N1_5 1_555 1_555
H9_5 C11_5 1_555 1_555
C12_5 C11_5 1_555 1_555
H10_5 C12_5 1_555 1_555
C13_5 C12_5 1_555 1_555
C14_5 C13_5 1_555 1_555
H11_5 C14_5 1_555 1_555
C15_5 N1_5 1_555 1_555
H12_5 C15_5 1_555 1_555
C16_5 C13_5 1_555 1_555
H13_5 C16_5 1_555 1_555
H14_5 C16_5 1_555 1_555
C17_5 C16_5 1_555 1_555
H15_5 C17_5 1_555 1_555
C18_5 C17_5 1_555 1_555
H17_5 C18_5 1_555 1_555
H18_5 C18_5 1_555 1_555
O7_3 Zn1_2 1_555 1_555
N3_3 Zn1_2 1_555 1_555
C14_5 C15_5 1_555 1_555
C22_5 N2_3 1_555 1_555
H21_5 C22_5 1_555 1_555
Zn3_3 N2_3 1_555 1_555
C22_5 C23_5 1_555 1_555
Zn2_2 O1_6 1_555 1_555
N1_6 Zn2_2 1_555 1_555
N2_4 C21_3 1_555 1_555
C11_6 N1_6 1_555 1_555
H9_6 C11_6 1_555 1_555
C12_6 C11_6 1_555 1_555
H10_6 C12_6 1_555 1_555
C13_6 C12_6 1_555 1_555
C14_6 C13_6 1_555 1_555
H11_6 C14_6 1_555 1_555
C15_6 N1_6 1_555 1_555
H12_6 C15_6 1_555 1_555
C16_6 C13_6 1_555 1_555
H13_6 C16_6 1_555 1_555
H14_6 C16_6 1_555 1_555
C17_6 C16_6 1_555 1_555
H15_6 C17_6 1_555 1_555
H16_3 C17_6 1_555 1_555
C18_6 C17_6 1_555 1_555
H17_6 C18_6 1_555 1_555
H18_6 C18_6 1_555 1_555
C19_3 C18_6 1_555 1_555
C20_3 C19_3 1_555 1_555
H19_3 C20_3 1_555 1_555
C21_3 C20_3 1_555 1_555
H20_3 C21_3 1_555 1_555
C22_6 N2_4 1_555 1_555
H21_6 C22_6 1_555 1_555
C23_6 C19_3 1_555 1_555
H22_3 C23_6 1_555 1_555
Zn3_4 N2_4 1_555 1_555
N3_4 Zn2_2 1_555 1_555
C14_6 C15_6 1_555 1_555
C22_6 C23_6 1_555 1_555
Zn3_4 O6_4 1_555 1_555
Zn3_3 O1_7 1_555 1_555
O1_7 C1_5 1_555 1_555
O2_5 Zn3_3 1_555 1_555
O3_5 C2_5 1_555 1_555
O4_5 C4_5 1_555 1_555
O5_5 C10_5 1_555 1_555
N1_7 Zn3_3 1_555 1_555
N3_3 C21_4 1_555 1_555
C1_5 O2_5 1_555 1_555
C2_5 C1_5 1_555 1_555
H1_5 C2_5 1_555 1_555
H2_5 C2_5 1_555 1_555
C3_5 O3_5 1_555 1_555
C4_5 C3_5 1_555 1_555
C5_5 C4_5 1_555 1_555
H3_2 C5_5 1_555 1_555
C6_5 C5_5 1_555 1_555
H4_2 C6_5 1_555 1_555
C7_5 C6_5 1_555 1_555
H5_5 C7_5 1_555 1_555
C8_5 C3_5 1_555 1_555
H6_5 C8_5 1_555 1_555
C9_5 O4_5 1_555 1_555
H7_2 C9_5 1_555 1_555
H8_2 C9_5 1_555 1_555
C10_5 C9_5 1_555 1_555
C11_7 N1_7 1_555 1_555
H9_7 C11_7 1_555 1_555
C12_7 C11_7 1_555 1_555
H10_7 C12_7 1_555 1_555
C13_7 C12_7 1_555 1_555
C14_7 C13_7 1_555 1_555
H11_7 C14_7 1_555 1_555
C15_7 N1_7 1_555 1_555
H12_7 C15_7 1_555 1_555
C16_7 C13_7 1_555 1_555
H13_7 C16_7 1_555 1_555
H14_7 C16_7 1_555 1_555
C17_7 C16_7 1_555 1_555
H15_7 C17_7 1_555 1_555
H16_4 C17_7 1_555 1_555
C18_7 C17_7 1_555 1_555
H17_7 C18_7 1_555 1_555
H18_7 C18_7 1_555 1_555
C19_4 C18_7 1_555 1_555
C20_4 C19_4 1_555 1_555
H19_4 C20_4 1_555 1_555
C21_4 C20_4 1_555 1_555
H20_4 C21_4 1_555 1_555
C22_7 N3_3 1_555 1_555
H21_7 C22_7 1_555 1_555
C23_7 C19_4 1_555 1_555
H22_4 C23_7 1_555 1_555
O7_4 Zn3_3 1_555 1_555
C7_5 C8_5 1_555 1_555
C14_7 C15_7 1_555 1_555
C22_7 C23_7 1_555 1_555
Zn3_4 O1_8 1_555 1_555
O1_8 C1_6 1_555 1_555
O2_6 Zn3_4 1_555 1_555
O3_6 C2_6 1_555 1_555
O4_6 C4_6 1_555 1_555
O5_6 C10_6 1_555 1_555
O7_4 C10_6 1_555 1_555
N1_8 Zn3_4 1_555 1_555
C1_6 O2_6 1_555 1_555
C2_6 C1_6 1_555 1_555
H1_6 C2_6 1_555 1_555
H2_6 C2_6 1_555 1_555
C3_6 O3_6 1_555 1_555
C4_6 C3_6 1_555 1_555
C5_6 C4_6 1_555 1_555
C6_6 C5_6 1_555 1_555
C7_6 C6_6 1_555 1_555
H5_6 C7_6 1_555 1_555
C8_6 C3_6 1_555 1_555
H6_6 C8_6 1_555 1_555
C9_6 O4_6 1_555 1_555
C10_6 C9_6 1_555 1_555
C11_8 N1_8 1_555 1_555
H9_8 C11_8 1_555 1_555
C12_8 C11_8 1_555 1_555
H10_8 C12_8 1_555 1_555
C13_8 C12_8 1_555 1_555
C14_8 C13_8 1_555 1_555
H11_8 C14_8 1_555 1_555
C15_8 N1_8 1_555 1_555
H12_8 C15_8 1_555 1_555
C16_8 C13_8 1_555 1_555
H13_8 C16_8 1_555 1_555
H14_8 C16_8 1_555 1_555
C17_8 C16_8 1_555 1_555
H15_8 C17_8 1_555 1_555
C18_8 C17_8 1_555 1_555
H17_8 C18_8 1_555 1_555
H18_8 C18_8 1_555 1_555
C7_6 C8_6 1_555 1_555
C14_8 C15_8 1_555 1_555
C22_8 N3_4 1_555 1_555
H21_8 C22_8 1_555 1_555
C22_8 C23_8 1_555 1_555
C20_5 C19_5 1_555 1_555
H19_5 C20_5 1_555 1_555
C21_5 C20_5 1_555 1_555
H20_5 C21_5 1_555 1_555
C20_6 C19_6 1_555 1_555
H19_6 C20_6 1_555 1_555
C21_6 C20_6 1_555 1_555
H20_6 C21_6 1_555 1_555
O3_7 C2_7 1_555 1_555
O4_7 C4_7 1_555 1_555
O5_7 C10_7 1_555 1_555
C1_7 O2_7 1_555 1_555
C2_7 C1_7 1_555 1_555
H1_7 C2_7 1_555 1_555
H2_7 C2_7 1_555 1_555
C3_7 O3_7 1_555 1_555
C4_7 C3_7 1_555 1_555
C5_7 C4_7 1_555 1_555
H3_5 C5_7 1_555 1_555
C6_7 C5_7 1_555 1_555
H4_5 C6_7 1_555 1_555
C7_7 C6_7 1_555 1_555
H5_7 C7_7 1_555 1_555
C8_7 C3_7 1_555 1_555
H6_7 C8_7 1_555 1_555
C9_7 O4_7 1_555 1_555
H7_5 C9_7 1_555 1_555
H8_5 C9_7 1_555 1_555
C10_7 C9_7 1_555 1_555
C7_7 C8_7 1_555 1_555
C20_7 C19_7 1_555 1_555
H19_7 C20_7 1_555 1_555
C21_7 C20_7 1_555 1_555
H20_7 C21_7 1_555 1_555
C20_8 C19_8 1_555 1_555
H19_8 C20_8 1_555 1_555
C21_8 C20_8 1_555 1_555
H20_8 C21_8 1_555 1_555
O3_8 C2_8 1_555 1_555
O4_8 C4_8 1_555 1_555
O5_8 C10_8 1_555 1_555
C1_8 O2_8 1_555 1_555
C2_8 C1_8 1_555 1_555
H1_8 C2_8 1_555 1_555
H2_8 C2_8 1_555 1_555
C3_8 O3_8 1_555 1_555
C4_8 C3_8 1_555 1_555
C5_8 C4_8 1_555 1_555
H3_8 C5_8 1_555 1_555
C6_8 C5_8 1_555 1_555
H4_8 C6_8 1_555 1_555
C7_8 C6_8 1_555 1_555
H5_8 C7_8 1_555 1_555
C8_8 C3_8 1_555 1_555
H6_8 C8_8 1_555 1_555
C9_8 O4_8 1_555 1_555
H7_8 C9_8 1_555 1_555
H8_8 C9_8 1_555 1_555
C10_8 C9_8 1_555 1_555
C7_8 C8_8 1_555 1_555

#END
