
###############################################################################
#
# This file contains modified crystal structure data generated from the
# MOF subset of the Cambridge Structural Database (CSD) v543 
# hosted by the Cambridge Crystallographic Data Centre (CCDC).
#
# This work is licensed under the Creative Commons
# Attribution-NonCommercial-ShareAlike 4.0 International License.
# To view a copy of this license, visit
# http://creativecommons.org/licenses/by-nc-sa/4.0/
# or send a letter to
# Creative Commons, PO Box 1866, Mountain View, CA 94042, USA.
#
# CIF created using the CSD Python API on 29 September 2022
# The structure has been converted into the P1 space group
# The structure has a 3D framework
# The original CSD entry WIZFES is in the orthorhombic crystal system
# The framework has been calculated to contain at least 10.0% void space
# The void calculation uses a probe of radius 1.32A, grid spacing 0.4
#
###############################################################################

data_WIZFES
_chemical_formula_moiety         '(C20 H16 Cd8 Cl16 N20)n'
_symmetry_cell_setting           triclinic
_symmetry_space_group_name_H-M   'P 1'
_symmetry_Int_Tables_number      1
_space_group_name_Hall           'P 1'
loop_
_symmetry_equiv_pos_site_id
_symmetry_equiv_pos_as_xyz
1 x,y,z
_cell_length_a                   14.857(5)
_cell_length_b                   23.615(9)
_cell_length_c                   3.7317(13)
_cell_angle_alpha                90
_cell_angle_beta                 90
_cell_angle_gamma                90
_cell_volume                     1309.26
loop_
_atom_site_label
_atom_site_type_symbol
_atom_site_fract_x
_atom_site_fract_y
_atom_site_fract_z
Cl4 Cl -0.0000 0.0000 -0.0000
C1 C 0.023(2) 0.1216(10) 0.5000
C2 C 0.066(2) 0.1733(10) 0.5000
N3 N 0.1496(13) 0.1757(11) 0.5000
N4 N 0.0191(15) 0.2752(10) 0.5000
H2 H 0.0738 0.2871 0.5000
C4 C 0.0011(14) 0.2173(10) 0.5000
N5 N 0.0964(15) 0.0868(9) 0.5000
C5 C 0.174(2) 0.1223(13) 0.5000
H4 H 0.2329 0.1095 0.5000
Cl4_2 Cl 0.0000 -0.0000 1.0000
Cd8 Cd 0.27229(13) 0.23968(8) 0.5000
Cl4_3 Cl 0.0000 1.0000 -0.0000
Cl9 Cl 0.2989(5) 0.8037(3) -0.0000
Cl11 Cl 0.1539(4) 0.6751(3) -0.0000
Cd12 Cd 0.11063(14) 0.99173(10) 0.5000
Cl13 Cl 0.2310(6) 0.9823(6) -0.0000
Cl4_4 Cl 0.0000 1.0000 1.0000
Cd3 Cd 0.22771(13) 0.73968(8) 0.5000
N6 N 0.0612(15) 0.8985(10) 0.5000
N7 N 0.0996(15) 0.8004(14) 0.5000
C8 C 0.123(2) 0.8548(14) 0.5000
H5 H 0.1838 0.8639 0.5000
H7 H 0.0246 0.7008 0.5000
Cl9_2 Cl 0.2989(5) 0.8037(3) 1.0000
Cl11_2 Cl 0.1539(4) 0.6751(3) 1.0000
N11 N 0.3504(13) 0.6757(11) 0.5000
Cl13_2 Cl 0.2310(6) 0.9823(6) 1.0000
Cl4_5 Cl 1.0000 0.0000 -0.0000
Cl8 Cl 0.7011(5) 0.1963(3) -0.0000
Cl10 Cl 0.8461(4) 0.3249(3) -0.0000
Cd10 Cd 0.88937(14) 0.00827(10) 0.5000
Cl12 Cl 0.7690(6) 0.0177(6) -0.0000
Cd1 Cd 0.77229(13) 0.26032(8) 0.5000
N1 N 0.9388(15) 0.1015(10) 0.5000
N2 N 0.9004(15) 0.1996(14) 0.5000
C3 C 0.877(2) 0.1452(14) 0.5000
H1 H 0.8162 0.1361 0.5000
H3 H 0.9754 0.2992 0.5000
Cl4_6 Cl 1.0000 -0.0000 1.0000
Cl8_2 Cl 0.7011(5) 0.1963(3) 1.0000
Cl10_2 Cl 0.8461(4) 0.3249(3) 1.0000
N12 N 0.6496(13) 0.3243(11) 0.5000
Cl12_2 Cl 0.7690(6) 0.0177(6) 1.0000
Cl4_7 Cl 1.0000 1.0000 -0.0000
Cl4_8 Cl 1.0000 1.0000 1.0000
C6 C 0.977(2) 0.8784(10) 0.5000
C7 C 0.934(2) 0.8267(10) 0.5000
N8 N 0.8504(13) 0.8243(11) 0.5000
N9 N 0.9809(15) 0.7248(10) 0.5000
H6 H 0.9262 0.7129 0.5000
C9 C 0.9989(14) 0.7827(10) 0.5000
N10 N 0.9036(15) 0.9132(9) 0.5000
C10 C 0.826(2) 0.8777(13) 0.5000
H8 H 0.7671 0.8905 0.5000
Cd7 Cd 0.72771(13) 0.76032(8) 0.5000
Cl1 Cl 0.7989(5) 0.6963(3) 0.0000
Cl2 Cl 0.6539(4) 0.8249(3) 0.0000
Cl3 Cl 0.7310(6) 0.5177(6) 0.0000
Cl5 Cl 0.2011(5) 0.3037(3) 0.0000
Cl6 Cl 0.3461(4) 0.1751(3) 0.0000
Cl7 Cl 0.2690(6) 0.4823(6) 0.0000
Cd9 Cd 0.61063(14) 0.50827(10) 0.5000
Cd11 Cd 0.38937(14) 0.49173(10) 0.5000
Cl14 Cl 0.5000 0.5000 0.0000
Cl1_2 Cl 0.7989(5) 0.6963(3) 1.0000
Cl2_2 Cl 0.6539(4) 0.8249(3) 1.0000
N1_2 N 0.5612(15) 0.6015(10) 0.5000
N2_2 N 0.5996(15) 0.6996(14) 0.5000
C1_2 C 0.477(2) 0.6216(10) 0.5000
C2_2 C 0.434(2) 0.6733(10) 0.5000
C3_2 C 0.623(2) 0.6452(14) 0.5000
H1_2 H 0.6838 0.6361 0.5000
N4_2 N 0.4809(15) 0.7752(10) 0.5000
H2_2 H 0.4262 0.7871 0.5000
H3_2 H 0.5246 0.7992 0.5000
C4_2 C 0.4989(14) 0.7173(10) 0.5000
N5_2 N 0.4036(15) 0.5868(9) 0.5000
C5_2 C 0.326(2) 0.6223(13) 0.5000
H4_2 H 0.2671 0.6095 0.5000
Cl3_2 Cl 0.7310(6) 0.5177(6) 1.0000
Cl5_2 Cl 0.2011(5) 0.3037(3) 1.0000
Cl6_2 Cl 0.3461(4) 0.1751(3) 1.0000
N6_2 N 0.4388(15) 0.3985(10) 0.5000
N7_2 N 0.4004(15) 0.3004(14) 0.5000
C6_2 C 0.523(2) 0.3784(10) 0.5000
C7_2 C 0.566(2) 0.3267(10) 0.5000
C8_2 C 0.377(2) 0.3548(14) 0.5000
H5_2 H 0.3162 0.3639 0.5000
N9_2 N 0.5191(15) 0.2248(10) 0.5000
H6_2 H 0.5738 0.2129 0.5000
H7_2 H 0.4754 0.2008 0.5000
C9_2 C 0.5011(14) 0.2827(10) 0.5000
N10_2 N 0.5964(15) 0.4132(9) 0.5000
C10_2 C 0.674(2) 0.3777(13) 0.5000
H8_2 H 0.7329 0.3905 0.5000
Cl7_2 Cl 0.2690(6) 0.4823(6) 1.0000
Cl14_2 Cl 0.5000 0.5000 1.0000
loop_
_geom_bond_atom_site_label_1
_geom_bond_atom_site_label_2
_geom_bond_site_symmetry_1
_geom_bond_site_symmetry_2
C1 C2 1_555 1_555
C2 N3 1_555 1_555
N3 C5 1_555 1_555
N4 H2 1_555 1_555
N5 C1 1_555 1_555
C5 N5 1_555 1_555
H4 C5 1_555 1_555
Cd8 N3 1_555 1_555
C2 C4 1_555 1_555
N4 C4 1_555 1_555
Cd12 Cl4_3 1_555 1_555
Cd12 Cl13 1_555 1_555
Cd3 Cl9 1_555 1_555
Cl11 Cd3 1_555 1_555
N7 Cd3 1_555 1_555
C8 N6 1_555 1_555
H5 C8 1_555 1_555
Cl9_2 Cd3 1_555 1_555
Cl11_2 Cd3 1_555 1_555
N11 Cd3 1_555 1_555
Cl13_2 Cd12 1_555 1_555
Cl4_4 Cd12 1_555 1_555
N6 Cd12 1_555 1_555
N7 C8 1_555 1_555
Cd10 Cl4_5 1_555 1_555
Cd10 Cl12 1_555 1_555
Cd1 Cl8 1_555 1_555
Cl10 Cd1 1_555 1_555
N2 Cd1 1_555 1_555
C3 N1 1_555 1_555
H1 C3 1_555 1_555
Cd10 N1 1_555 1_555
Cl4_6 Cd10 1_555 1_555
Cl8_2 Cd1 1_555 1_555
Cl10_2 Cd1 1_555 1_555
N12 Cd1 1_555 1_555
Cl12_2 Cd10 1_555 1_555
N2 C3 1_555 1_555
C6 C7 1_555 1_555
C7 N8 1_555 1_555
N8 C10 1_555 1_555
N9 H6 1_555 1_555
C10 N10 1_555 1_555
H8 C10 1_555 1_555
Cd7 N8 1_555 1_555
C6 N10 1_555 1_555
C7 C9 1_555 1_555
N9 C9 1_555 1_555
Cl1 Cd7 1_555 1_555
Cl5 Cd8 1_555 1_555
Cd7 Cl2 1_555 1_555
Cd8 Cl6 1_555 1_555
Cd9 Cl3 1_555 1_555
Cd11 Cl7 1_555 1_555
Cd9 Cl14 1_555 1_555
Cd11 Cl14 1_555 1_555
Cd7 Cl1_2 1_555 1_555
Cl2_2 Cd7 1_555 1_555
N1_2 C1_2 1_555 1_555
N2_2 Cd7 1_555 1_555
C1_2 C2_2 1_555 1_555
C2_2 N11 1_555 1_555
N11 C5_2 1_555 1_555
C3_2 N1_2 1_555 1_555
H1_2 C3_2 1_555 1_555
N4_2 H2_2 1_555 1_555
H3_2 N4_2 1_555 1_555
C4_2 N2_2 1_555 1_555
N5_2 C1_2 1_555 1_555
C5_2 N5_2 1_555 1_555
H4_2 C5_2 1_555 1_555
Cd9 N1_2 1_555 1_555
Cl3_2 Cd9 1_555 1_555
Cd8 Cl5_2 1_555 1_555
Cl6_2 Cd8 1_555 1_555
N6_2 C6_2 1_555 1_555
N7_2 Cd8 1_555 1_555
C6_2 C7_2 1_555 1_555
C7_2 N12 1_555 1_555
N12 C10_2 1_555 1_555
C8_2 N6_2 1_555 1_555
H5_2 C8_2 1_555 1_555
N9_2 H6_2 1_555 1_555
H7_2 N9_2 1_555 1_555
C9_2 N7_2 1_555 1_555
N10_2 Cd9 1_555 1_555
C10_2 N10_2 1_555 1_555
H8_2 C10_2 1_555 1_555
Cd11 N5_2 1_555 1_555
Cl7_2 Cd11 1_555 1_555
Cl14_2 Cd9 1_555 1_555
N2_2 C3_2 1_555 1_555
C2_2 C4_2 1_555 1_555
N4_2 C4_2 1_555 1_555
N6_2 Cd11 1_555 1_555
N7_2 C8_2 1_555 1_555
C6_2 N10_2 1_555 1_555
C7_2 C9_2 1_555 1_555
N9_2 C9_2 1_555 1_555
Cd11 Cl14_2 1_555 1_555

#END
