
###############################################################################
#
# This file contains modified crystal structure data generated from the
# MOF subset of the Cambridge Structural Database (CSD) v543 
# hosted by the Cambridge Crystallographic Data Centre (CCDC).
#
# This work is licensed under the Creative Commons
# Attribution-NonCommercial-ShareAlike 4.0 International License.
# To view a copy of this license, visit
# http://creativecommons.org/licenses/by-nc-sa/4.0/
# or send a letter to
# Creative Commons, PO Box 1866, Mountain View, CA 94042, USA.
#
# CIF created using the CSD Python API on 29 September 2022
# The structure has been converted into the P1 space group
# The structure has a 3D framework
# The original CSD entry WIZMAV06 is in the cubic crystal system
# The framework has been calculated to contain at least 10.0% void space
# The void calculation uses a probe of radius 1.32A, grid spacing 0.4
#
###############################################################################

data_WIZMAV06
_chemical_formula_moiety         '(C504 H288 O164 Zr41)n'
_symmetry_cell_setting           triclinic
_symmetry_space_group_name_H-M   'P 1'
_symmetry_Int_Tables_number      1
_space_group_name_Hall           'P 1'
loop_
_symmetry_equiv_pos_site_id
_symmetry_equiv_pos_as_xyz
1 x,y,z
_cell_length_a                   26.8711(17)
_cell_length_b                   26.8711(17)
_cell_length_c                   26.8711(17)
_cell_angle_alpha                90
_cell_angle_beta                 90
_cell_angle_gamma                90
_cell_volume                     19402.4
loop_
_atom_site_label
_atom_site_type_symbol
_atom_site_fract_x
_atom_site_fract_y
_atom_site_fract_z
Zr6 Zr -0.0000 0.90785(3) 0.5000
Zr12 Zr -0.0000 0.5000 0.90785(3)
Zr9 Zr 0.90785(3) 0.0000 0.5000
Zr11 Zr 0.5000 -0.0000 0.90785(3)
Zr5 Zr 0.5000 0.90785(3) 0.0000
Zr8 Zr 0.90785(3) 0.5000 0.0000
Zr1 Zr 0.5000 0.59215(3) 0.5000
C1 C 0.61769(16) 0.61769(16) 0.5000
O1 O 0.57288(15) 0.63237(16) 0.5000
C2 C 0.65627(16) 0.65627(16) 0.5000
O2 O 0.4531(2) 0.5469(2) 0.5469(2)
C3 C 0.6444(2) 0.7050(2) 0.5000
C4 C 0.6809(2) 0.7417(2) 0.5000
C5 C 0.73042(11) 0.73042(11) 0.5000
H1 H 0.6103 0.7144 0.5000
H2 H 0.6710 0.7757 0.5000
C6 C 0.88231(16) 0.88231(16) 0.5000
O3 O 0.92712(15) 0.86763(16) 0.5000
C7 C 0.84373(16) 0.84373(16) 0.5000
C8 C 0.8556(2) 0.7950(2) 0.5000
C9 C 0.8191(2) 0.7583(2) 0.5000
C10 C 0.76958(11) 0.76958(11) 0.5000
H3 H 0.8897 0.7856 0.5000
H4 H 0.8290 0.7243 0.5000
O4 O 0.63237(16) 0.57288(15) 0.5000
C11 C 0.7050(2) 0.6444(2) 0.5000
C12 C 0.7417(2) 0.6809(2) 0.5000
H5 H 0.7144 0.6103 0.5000
H6 H 0.7757 0.6710 0.5000
O5 O 0.86763(16) 0.92712(15) 0.5000
C13 C 0.7950(2) 0.8556(2) 0.5000
C14 C 0.7583(2) 0.8191(2) 0.5000
H7 H 0.7856 0.8897 0.5000
H8 H 0.7243 0.8290 0.5000
Zr2 Zr 0.59215(3) 0.5000 0.5000
C15 C 0.61769(16) 0.5000 0.61769(16)
O6 O 0.63237(16) 0.5000 0.57288(15)
C16 C 0.65627(16) 0.5000 0.65627(16)
O7 O 0.5469(2) 0.5469(2) 0.4531(2)
C17 C 0.7050(2) 0.5000 0.6444(2)
C18 C 0.7417(2) 0.5000 0.6809(2)
C19 C 0.73042(11) 0.5000 0.73042(11)
H9 H 0.7144 0.5000 0.6103
H10 H 0.7757 0.5000 0.6710
C20 C 0.88231(16) 0.5000 0.88231(16)
O8 O 0.86763(16) 0.5000 0.92712(15)
C21 C 0.84373(16) 0.5000 0.84373(16)
C22 C 0.7950(2) 0.5000 0.8556(2)
C23 C 0.7583(2) 0.5000 0.8191(2)
C24 C 0.76958(11) 0.5000 0.76958(11)
H11 H 0.7856 0.5000 0.8897
H12 H 0.7243 0.5000 0.8290
O9 O 0.57288(15) 0.5000 0.63237(16)
C25 C 0.6444(2) 0.5000 0.7050(2)
C26 C 0.6809(2) 0.5000 0.7417(2)
H13 H 0.6103 0.5000 0.7144
H14 H 0.6710 0.5000 0.7757
O10 O 0.92712(15) 0.5000 0.86763(16)
C27 C 0.8556(2) 0.5000 0.7950(2)
C28 C 0.8191(2) 0.5000 0.7583(2)
H15 H 0.8897 0.5000 0.7856
H16 H 0.8290 0.5000 0.7243
Zr3 Zr 0.5000 0.5000 0.59215(3)
C29 C 0.5000 0.61769(16) 0.61769(16)
O11 O 0.5000 0.57288(15) 0.63237(16)
C30 C 0.5000 0.65627(16) 0.65627(16)
O12 O 0.5469(2) 0.4531(2) 0.5469(2)
C31 C 0.5000 0.6444(2) 0.7050(2)
C32 C 0.5000 0.6809(2) 0.7417(2)
C33 C 0.5000 0.73042(11) 0.73042(11)
H17 H 0.5000 0.6103 0.7144
H18 H 0.5000 0.6710 0.7757
C34 C 0.5000 0.88231(16) 0.88231(16)
O13 O 0.5000 0.92712(15) 0.86763(16)
C35 C 0.5000 0.84373(16) 0.84373(16)
C36 C 0.5000 0.8556(2) 0.7950(2)
C37 C 0.5000 0.8191(2) 0.7583(2)
C38 C 0.5000 0.76958(11) 0.76958(11)
H19 H 0.5000 0.8897 0.7856
H20 H 0.5000 0.8290 0.7243
O14 O 0.5000 0.63237(16) 0.57288(15)
C39 C 0.5000 0.7050(2) 0.6444(2)
C40 C 0.5000 0.7417(2) 0.6809(2)
H21 H 0.5000 0.7144 0.6103
H22 H 0.5000 0.7757 0.6710
O15 O 0.5000 0.86763(16) 0.92712(15)
C41 C 0.5000 0.7950(2) 0.8556(2)
C42 C 0.5000 0.7583(2) 0.8191(2)
H23 H 0.5000 0.7856 0.8897
H24 H 0.5000 0.7243 0.8290
O16 O 0.4531(2) 0.5469(2) 0.4531(2)
Zr4 Zr 0.5000 0.40785(3) 0.5000
Zr5_2 Zr 0.5000 0.90785(3) 1.0000
Zr6_2 Zr 1.0000 0.90785(3) 0.5000
Zr7 Zr 0.40785(3) 0.5000 0.5000
Zr8_2 Zr 0.90785(3) 0.5000 1.0000
Zr9_2 Zr 0.90785(3) 1.0000 0.5000
Zr10 Zr 0.5000 0.5000 0.40785(3)
Zr11_2 Zr 0.5000 1.0000 0.90785(3)
Zr12_2 Zr 1.0000 0.5000 0.90785(3)
O17 O 0.63237(16) 0.5000 0.42712(15)
O18 O 0.5000 0.42712(15) 0.63237(16)
O19 O 0.42712(15) 0.63237(16) 0.5000
O20 O 0.5000 0.63237(16) 0.42712(15)
O21 O 0.42712(15) 0.5000 0.63237(16)
O22 O 0.63237(16) 0.42712(15) 0.5000
O23 O 0.5469(2) 0.4531(2) 0.4531(2)
O24 O 0.4531(2) 0.4531(2) 0.5469(2)
O25 O 0.5469(2) 0.5469(2) 0.5469(2)
Zr6_3 Zr -0.0000 0.40785(3) 0.0000
Zr12_3 Zr -0.0000 -0.0000 0.40785(3)
Zr6_4 Zr -0.0000 0.40785(3) 1.0000
Zr12_4 Zr -0.0000 1.0000 0.40785(3)
Zr1_2 Zr 0.5000 0.09215(3) 0.0000
C1_2 C 0.61769(16) 0.11769(16) 0.0000
O1_2 O 0.57288(15) 0.13237(16) 0.0000
C2_2 C 0.65627(16) 0.15627(16) 0.0000
O2_2 O 0.4531(2) 0.0469(2) 0.0469(2)
C3_2 C 0.6444(2) 0.2050(2) 0.0000
C4_2 C 0.6809(2) 0.2417(2) 0.0000
C5_2 C 0.73042(11) 0.23042(11) 0.0000
H1_2 H 0.6103 0.2144 0.0000
H2_2 H 0.6710 0.2757 0.0000
C6_2 C 0.88231(16) 0.38231(16) 0.0000
O3_2 O 0.92712(15) 0.36763(16) 0.0000
C7_2 C 0.84373(16) 0.34373(16) 0.0000
C8_2 C 0.8556(2) 0.2950(2) 0.0000
C9_2 C 0.8191(2) 0.2583(2) 0.0000
C10_2 C 0.76958(11) 0.26958(11) 0.0000
H3_2 H 0.8897 0.2856 0.0000
H4_2 H 0.8290 0.2243 0.0000
O4_2 O 0.63237(16) 0.07288(15) 0.0000
C11_2 C 0.7050(2) 0.1444(2) 0.0000
C12_2 C 0.7417(2) 0.1809(2) 0.0000
H5_2 H 0.7144 0.1103 0.0000
H6_2 H 0.7757 0.1710 0.0000
O5_2 O 0.86763(16) 0.42712(15) 0.0000
C13_2 C 0.7950(2) 0.3556(2) 0.0000
C14_2 C 0.7583(2) 0.3191(2) 0.0000
H7_2 H 0.7856 0.3897 0.0000
H8_2 H 0.7243 0.3290 0.0000
Zr2_2 Zr 0.59215(3) -0.0000 0.0000
C15_2 C 0.61769(16) -0.0000 0.11769(16)
O6_2 O 0.63237(16) -0.0000 0.07288(15)
C16_2 C 0.65627(16) -0.0000 0.15627(16)
C17_2 C 0.7050(2) -0.0000 0.1444(2)
C18_2 C 0.7417(2) -0.0000 0.1809(2)
C19_2 C 0.73042(11) -0.0000 0.23042(11)
H9_2 H 0.7144 -0.0000 0.1103
H10_2 H 0.7757 -0.0000 0.1710
C20_2 C 0.88231(16) -0.0000 0.38231(16)
O8_2 O 0.86763(16) -0.0000 0.42712(15)
C21_2 C 0.84373(16) -0.0000 0.34373(16)
C22_2 C 0.7950(2) -0.0000 0.3556(2)
C23_2 C 0.7583(2) -0.0000 0.3191(2)
C24_2 C 0.76958(11) -0.0000 0.26958(11)
H11_2 H 0.7856 -0.0000 0.3897
H12_2 H 0.7243 -0.0000 0.3290
O9_2 O 0.57288(15) -0.0000 0.13237(16)
C25_2 C 0.6444(2) -0.0000 0.2050(2)
C26_2 C 0.6809(2) -0.0000 0.2417(2)
H13_2 H 0.6103 -0.0000 0.2144
H14_2 H 0.6710 -0.0000 0.2757
O10_2 O 0.92712(15) -0.0000 0.36763(16)
C27_2 C 0.8556(2) -0.0000 0.2950(2)
C28_2 C 0.8191(2) -0.0000 0.2583(2)
H15_2 H 0.8897 -0.0000 0.2856
H16_2 H 0.8290 -0.0000 0.2243
Zr3_2 Zr 0.5000 -0.0000 0.09215(3)
C29_2 C 0.5000 0.11769(16) 0.11769(16)
O11_2 O 0.5000 0.07288(15) 0.13237(16)
C30_2 C 0.5000 0.15627(16) 0.15627(16)
C31_2 C 0.5000 0.1444(2) 0.2050(2)
C32_2 C 0.5000 0.1809(2) 0.2417(2)
C33_2 C 0.5000 0.23042(11) 0.23042(11)
H17_2 H 0.5000 0.1103 0.2144
H18_2 H 0.5000 0.1710 0.2757
C34_2 C 0.5000 0.38231(16) 0.38231(16)
O13_2 O 0.5000 0.42712(15) 0.36763(16)
C35_2 C 0.5000 0.34373(16) 0.34373(16)
C36_2 C 0.5000 0.3556(2) 0.2950(2)
C37_2 C 0.5000 0.3191(2) 0.2583(2)
C38_2 C 0.5000 0.26958(11) 0.26958(11)
H19_2 H 0.5000 0.3897 0.2856
H20_2 H 0.5000 0.3290 0.2243
O14_2 O 0.5000 0.13237(16) 0.07288(15)
C39_2 C 0.5000 0.2050(2) 0.1444(2)
C40_2 C 0.5000 0.2417(2) 0.1809(2)
H21_2 H 0.5000 0.2144 0.1103
H22_2 H 0.5000 0.2757 0.1710
O15_2 O 0.5000 0.36763(16) 0.42712(15)
C41_2 C 0.5000 0.2950(2) 0.3556(2)
C42_2 C 0.5000 0.2583(2) 0.3191(2)
H23_2 H 0.5000 0.2856 0.3897
H24_2 H 0.5000 0.2243 0.3290
Zr6_5 Zr 1.0000 0.40785(3) 0.0000
Zr7_2 Zr 0.40785(3) -0.0000 0.0000
Zr12_5 Zr 1.0000 -0.0000 0.40785(3)
O19_2 O 0.42712(15) 0.13237(16) 0.0000
O21_2 O 0.42712(15) -0.0000 0.13237(16)
O25_2 O 0.5469(2) 0.0469(2) 0.0469(2)
Zr1_3 Zr 0.5000 0.09215(3) 1.0000
C1_3 C 0.61769(16) 0.11769(16) 1.0000
O1_3 O 0.57288(15) 0.13237(16) 1.0000
C2_3 C 0.65627(16) 0.15627(16) 1.0000
C3_3 C 0.6444(2) 0.2050(2) 1.0000
C4_3 C 0.6809(2) 0.2417(2) 1.0000
C5_3 C 0.73042(11) 0.23042(11) 1.0000
H1_3 H 0.6103 0.2144 1.0000
H2_3 H 0.6710 0.2757 1.0000
C6_3 C 0.88231(16) 0.38231(16) 1.0000
O3_3 O 0.92712(15) 0.36763(16) 1.0000
C7_3 C 0.84373(16) 0.34373(16) 1.0000
C8_3 C 0.8556(2) 0.2950(2) 1.0000
C9_3 C 0.8191(2) 0.2583(2) 1.0000
C10_3 C 0.76958(11) 0.26958(11) 1.0000
H3_3 H 0.8897 0.2856 1.0000
H4_3 H 0.8290 0.2243 1.0000
O4_3 O 0.63237(16) 0.07288(15) 1.0000
C11_3 C 0.7050(2) 0.1444(2) 1.0000
C12_3 C 0.7417(2) 0.1809(2) 1.0000
H5_3 H 0.7144 0.1103 1.0000
H6_3 H 0.7757 0.1710 1.0000
O5_3 O 0.86763(16) 0.42712(15) 1.0000
C13_3 C 0.7950(2) 0.3556(2) 1.0000
C14_3 C 0.7583(2) 0.3191(2) 1.0000
H7_3 H 0.7856 0.3897 1.0000
H8_3 H 0.7243 0.3290 1.0000
Zr2_3 Zr 0.59215(3) -0.0000 1.0000
O7_2 O 0.5469(2) 0.0469(2) 0.9531(2)
O16_2 O 0.4531(2) 0.0469(2) 0.9531(2)
Zr6_6 Zr 1.0000 0.40785(3) 1.0000
Zr7_3 Zr 0.40785(3) -0.0000 1.0000
O17_2 O 0.63237(16) 0.0000 0.92712(15)
O19_3 O 0.42712(15) 0.13237(16) 1.0000
O20_2 O 0.5000 0.13237(16) 0.92712(15)
Zr2_4 Zr 0.59215(3) 1.0000 0.0000
C15_3 C 0.61769(16) 1.0000 0.11769(16)
O6_3 O 0.63237(16) 1.0000 0.07288(15)
C16_3 C 0.65627(16) 1.0000 0.15627(16)
C17_3 C 0.7050(2) 1.0000 0.1444(2)
C18_3 C 0.7417(2) 1.0000 0.1809(2)
C19_3 C 0.73042(11) 1.0000 0.23042(11)
H9_3 H 0.7144 1.0000 0.1103
H10_3 H 0.7757 1.0000 0.1710
C20_3 C 0.88231(16) 1.0000 0.38231(16)
O8_3 O 0.86763(16) 1.0000 0.42712(15)
C21_3 C 0.84373(16) 1.0000 0.34373(16)
C22_3 C 0.7950(2) 1.0000 0.3556(2)
C23_3 C 0.7583(2) 1.0000 0.3191(2)
C24_3 C 0.76958(11) 1.0000 0.26958(11)
H11_3 H 0.7856 1.0000 0.3897
H12_3 H 0.7243 1.0000 0.3290
O9_3 O 0.57288(15) 1.0000 0.13237(16)
C25_3 C 0.6444(2) 1.0000 0.2050(2)
C26_3 C 0.6809(2) 1.0000 0.2417(2)
H13_3 H 0.6103 1.0000 0.2144
H14_3 H 0.6710 1.0000 0.2757
O10_3 O 0.92712(15) 1.0000 0.36763(16)
C27_3 C 0.8556(2) 1.0000 0.2950(2)
C28_3 C 0.8191(2) 1.0000 0.2583(2)
H15_3 H 0.8897 1.0000 0.2856
H16_3 H 0.8290 1.0000 0.2243
Zr3_3 Zr 0.5000 1.0000 0.09215(3)
O12_2 O 0.5469(2) 0.9531(2) 0.0469(2)
Zr7_4 Zr 0.40785(3) 1.0000 0.0000
Zr12_6 Zr 1.0000 1.0000 0.40785(3)
O18_2 O 0.5000 0.92712(15) 0.13237(16)
O21_3 O 0.42712(15) 1.0000 0.13237(16)
O22_2 O 0.63237(16) 0.92712(15) 0.0000
O24_2 O 0.4531(2) 0.9531(2) 0.0469(2)
Zr2_5 Zr 0.59215(3) 1.0000 1.0000
Zr7_5 Zr 0.40785(3) 1.0000 1.0000
O17_3 O 0.63237(16) 1.0000 0.92712(15)
O22_3 O 0.63237(16) 0.92712(15) 1.0000
O23_2 O 0.5469(2) 0.9531(2) 0.9531(2)
Zr1_4 Zr -0.0000 0.59215(3) 0.0000
C1_4 C 0.11769(16) 0.61769(16) 0.0000
O1_4 O 0.07288(15) 0.63237(16) 0.0000
C2_4 C 0.15627(16) 0.65627(16) 0.0000
C3_4 C 0.1444(2) 0.7050(2) 0.0000
C4_4 C 0.1809(2) 0.7417(2) 0.0000
C5_4 C 0.23042(11) 0.73042(11) 0.0000
H1_4 H 0.1103 0.7144 0.0000
H2_4 H 0.1710 0.7757 0.0000
C6_4 C 0.38231(16) 0.88231(16) 0.0000
O3_4 O 0.42712(15) 0.86763(16) 0.0000
C7_4 C 0.34373(16) 0.84373(16) 0.0000
C8_4 C 0.3556(2) 0.7950(2) 0.0000
C9_4 C 0.3191(2) 0.7583(2) 0.0000
C10_4 C 0.26958(11) 0.76958(11) 0.0000
H3_4 H 0.3897 0.7856 0.0000
H4_4 H 0.3290 0.7243 0.0000
O4_4 O 0.13237(16) 0.57288(15) 0.0000
C11_4 C 0.2050(2) 0.6444(2) 0.0000
C12_4 C 0.2417(2) 0.6809(2) 0.0000
H5_4 H 0.2144 0.6103 0.0000
H6_4 H 0.2757 0.6710 0.0000
O5_4 O 0.36763(16) 0.92712(15) 0.0000
C13_4 C 0.2950(2) 0.8556(2) 0.0000
C14_4 C 0.2583(2) 0.8191(2) 0.0000
H7_4 H 0.2856 0.8897 0.0000
H8_4 H 0.2243 0.8290 0.0000
Zr2_6 Zr 0.09215(3) 0.5000 0.0000
C15_4 C 0.11769(16) 0.5000 0.11769(16)
O6_4 O 0.13237(16) 0.5000 0.07288(15)
C16_4 C 0.15627(16) 0.5000 0.15627(16)
C17_4 C 0.2050(2) 0.5000 0.1444(2)
C18_4 C 0.2417(2) 0.5000 0.1809(2)
C19_4 C 0.23042(11) 0.5000 0.23042(11)
H9_4 H 0.2144 0.5000 0.1103
H10_4 H 0.2757 0.5000 0.1710
C20_4 C 0.38231(16) 0.5000 0.38231(16)
O8_4 O 0.36763(16) 0.5000 0.42712(15)
C21_4 C 0.34373(16) 0.5000 0.34373(16)
C22_4 C 0.2950(2) 0.5000 0.3556(2)
C23_4 C 0.2583(2) 0.5000 0.3191(2)
C24_4 C 0.26958(11) 0.5000 0.26958(11)
H11_4 H 0.2856 0.5000 0.3897
H12_4 H 0.2243 0.5000 0.3290
O9_4 O 0.07288(15) 0.5000 0.13237(16)
C25_4 C 0.1444(2) 0.5000 0.2050(2)
C26_4 C 0.1809(2) 0.5000 0.2417(2)
H13_4 H 0.1103 0.5000 0.2144
H14_4 H 0.1710 0.5000 0.2757
O10_4 O 0.42712(15) 0.5000 0.36763(16)
C27_4 C 0.3556(2) 0.5000 0.2950(2)
C28_4 C 0.3191(2) 0.5000 0.2583(2)
H15_4 H 0.3897 0.5000 0.2856
H16_4 H 0.3290 0.5000 0.2243
Zr3_4 Zr -0.0000 0.5000 0.09215(3)
C29_3 C 0.0000 0.61769(16) 0.11769(16)
O11_3 O 0.0000 0.57288(15) 0.13237(16)
C30_3 C 0.0000 0.65627(16) 0.15627(16)
O12_3 O 0.0469(2) 0.4531(2) 0.0469(2)
C31_3 C 0.0000 0.6444(2) 0.2050(2)
C32_3 C 0.0000 0.6809(2) 0.2417(2)
C33_3 C 0.0000 0.73042(11) 0.23042(11)
H17_3 H 0.0000 0.6103 0.2144
H18_3 H 0.0000 0.6710 0.2757
C34_3 C 0.0000 0.88231(16) 0.38231(16)
O13_3 O -0.0000 0.92712(15) 0.36763(16)
C35_3 C 0.0000 0.84373(16) 0.34373(16)
C36_3 C 0.0000 0.8556(2) 0.2950(2)
C37_3 C 0.0000 0.8191(2) 0.2583(2)
C38_3 C 0.0000 0.76958(11) 0.26958(11)
H19_3 H 0.0000 0.8897 0.2856
H20_3 H 0.0000 0.8290 0.2243
O14_3 O 0.0000 0.63237(16) 0.07288(15)
C39_3 C 0.0000 0.7050(2) 0.1444(2)
C40_3 C 0.0000 0.7417(2) 0.1809(2)
H21_3 H 0.0000 0.7144 0.1103
H22_3 H 0.0000 0.7757 0.1710
O15_3 O -0.0000 0.86763(16) 0.42712(15)
C41_3 C 0.0000 0.7950(2) 0.3556(2)
C42_3 C 0.0000 0.7583(2) 0.3191(2)
H23_3 H 0.0000 0.7856 0.3897
H24_3 H 0.0000 0.7243 0.3290
O18_3 O -0.0000 0.42712(15) 0.13237(16)
O22_4 O 0.13237(16) 0.42712(15) 0.0000
O25_3 O 0.0469(2) 0.5469(2) 0.0469(2)
Zr1_5 Zr -0.0000 0.59215(3) 1.0000
C1_5 C 0.11769(16) 0.61769(16) 1.0000
O1_5 O 0.07288(15) 0.63237(16) 1.0000
C2_5 C 0.15627(16) 0.65627(16) 1.0000
C3_5 C 0.1444(2) 0.7050(2) 1.0000
C4_5 C 0.1809(2) 0.7417(2) 1.0000
C5_5 C 0.23042(11) 0.73042(11) 1.0000
H1_5 H 0.1103 0.7144 1.0000
H2_5 H 0.1710 0.7757 1.0000
C6_5 C 0.38231(16) 0.88231(16) 1.0000
O3_5 O 0.42712(15) 0.86763(16) 1.0000
C7_5 C 0.34373(16) 0.84373(16) 1.0000
C8_5 C 0.3556(2) 0.7950(2) 1.0000
C9_5 C 0.3191(2) 0.7583(2) 1.0000
C10_5 C 0.26958(11) 0.76958(11) 1.0000
H3_5 H 0.3897 0.7856 1.0000
H4_5 H 0.3290 0.7243 1.0000
O4_5 O 0.13237(16) 0.57288(15) 1.0000
C11_5 C 0.2050(2) 0.6444(2) 1.0000
C12_5 C 0.2417(2) 0.6809(2) 1.0000
H5_5 H 0.2144 0.6103 1.0000
H6_5 H 0.2757 0.6710 1.0000
O5_5 O 0.36763(16) 0.92712(15) 1.0000
C13_5 C 0.2950(2) 0.8556(2) 1.0000
C14_5 C 0.2583(2) 0.8191(2) 1.0000
H7_5 H 0.2856 0.8897 1.0000
H8_5 H 0.2243 0.8290 1.0000
Zr2_7 Zr 0.09215(3) 0.5000 1.0000
O7_3 O 0.0469(2) 0.5469(2) 0.9531(2)
O17_4 O 0.13237(16) 0.5000 0.92712(15)
O20_3 O -0.0000 0.63237(16) 0.92712(15)
O22_5 O 0.13237(16) 0.42712(15) 1.0000
O23_3 O 0.0469(2) 0.4531(2) 0.9531(2)
Zr1_6 Zr 1.0000 0.59215(3) 0.0000
O2_3 O 0.9531(2) 0.5469(2) 0.0469(2)
Zr3_5 Zr 1.0000 0.5000 0.09215(3)
C29_4 C 1.0000 0.61769(16) 0.11769(16)
O11_4 O 1.0000 0.57288(15) 0.13237(16)
C30_4 C 1.0000 0.65627(16) 0.15627(16)
C31_4 C 1.0000 0.6444(2) 0.2050(2)
C32_4 C 1.0000 0.6809(2) 0.2417(2)
C33_4 C 1.0000 0.73042(11) 0.23042(11)
H17_4 H 1.0000 0.6103 0.2144
H18_4 H 1.0000 0.6710 0.2757
C34_4 C 1.0000 0.88231(16) 0.38231(16)
O13_4 O 1.0000 0.92712(15) 0.36763(16)
C35_4 C 1.0000 0.84373(16) 0.34373(16)
C36_4 C 1.0000 0.8556(2) 0.2950(2)
C37_4 C 1.0000 0.8191(2) 0.2583(2)
C38_4 C 1.0000 0.76958(11) 0.26958(11)
H19_4 H 1.0000 0.8897 0.2856
H20_4 H 1.0000 0.8290 0.2243
O14_4 O 1.0000 0.63237(16) 0.07288(15)
C39_4 C 1.0000 0.7050(2) 0.1444(2)
C40_4 C 1.0000 0.7417(2) 0.1809(2)
H21_4 H 1.0000 0.7144 0.1103
H22_4 H 1.0000 0.7757 0.1710
O15_4 O 1.0000 0.86763(16) 0.42712(15)
C41_4 C 1.0000 0.7950(2) 0.3556(2)
C42_4 C 1.0000 0.7583(2) 0.3191(2)
H23_4 H 1.0000 0.7856 0.3897
H24_4 H 1.0000 0.7243 0.3290
O18_4 O 1.0000 0.42712(15) 0.13237(16)
O19_4 O 0.92712(15) 0.63237(16) 0.0000
O21_4 O 0.92712(15) 0.5000 0.13237(16)
O24_3 O 0.9531(2) 0.4531(2) 0.0469(2)
Zr1_7 Zr 1.0000 0.59215(3) 1.0000
O16_3 O 0.9531(2) 0.5469(2) 0.9531(2)
O19_5 O 0.92712(15) 0.63237(16) 1.0000
O20_4 O 1.0000 0.63237(16) 0.92712(15)
Zr1_8 Zr -0.0000 0.09215(3) 0.5000
C1_6 C 0.11769(16) 0.11769(16) 0.5000
O1_6 O 0.07288(15) 0.13237(16) 0.5000
C2_6 C 0.15627(16) 0.15627(16) 0.5000
C3_6 C 0.1444(2) 0.2050(2) 0.5000
C4_6 C 0.1809(2) 0.2417(2) 0.5000
C5_6 C 0.23042(11) 0.23042(11) 0.5000
H1_6 H 0.1103 0.2144 0.5000
H2_6 H 0.1710 0.2757 0.5000
C6_6 C 0.38231(16) 0.38231(16) 0.5000
O3_6 O 0.42712(15) 0.36763(16) 0.5000
C7_6 C 0.34373(16) 0.34373(16) 0.5000
C8_6 C 0.3556(2) 0.2950(2) 0.5000
C9_6 C 0.3191(2) 0.2583(2) 0.5000
C10_6 C 0.26958(11) 0.26958(11) 0.5000
H3_6 H 0.3897 0.2856 0.5000
H4_6 H 0.3290 0.2243 0.5000
O4_6 O 0.13237(16) 0.07288(15) 0.5000
C11_6 C 0.2050(2) 0.1444(2) 0.5000
C12_6 C 0.2417(2) 0.1809(2) 0.5000
H5_6 H 0.2144 0.1103 0.5000
H6_6 H 0.2757 0.1710 0.5000
O5_6 O 0.36763(16) 0.42712(15) 0.5000
C13_6 C 0.2950(2) 0.3556(2) 0.5000
C14_6 C 0.2583(2) 0.3191(2) 0.5000
H7_6 H 0.2856 0.3897 0.5000
H8_6 H 0.2243 0.3290 0.5000
Zr2_8 Zr 0.09215(3) -0.0000 0.5000
C15_5 C 0.11769(16) -0.0000 0.61769(16)
O6_5 O 0.13237(16) -0.0000 0.57288(15)
C16_5 C 0.15627(16) -0.0000 0.65627(16)
O7_4 O 0.0469(2) 0.0469(2) 0.4531(2)
C17_5 C 0.2050(2) -0.0000 0.6444(2)
C18_5 C 0.2417(2) -0.0000 0.6809(2)
C19_5 C 0.23042(11) -0.0000 0.73042(11)
H9_5 H 0.2144 -0.0000 0.6103
H10_5 H 0.2757 -0.0000 0.6710
C20_5 C 0.38231(16) -0.0000 0.88231(16)
O8_5 O 0.36763(16) -0.0000 0.92712(15)
C21_5 C 0.34373(16) -0.0000 0.84373(16)
C22_5 C 0.2950(2) -0.0000 0.8556(2)
C23_5 C 0.2583(2) -0.0000 0.8191(2)
C24_5 C 0.26958(11) -0.0000 0.76958(11)
H11_5 H 0.2856 -0.0000 0.8897
H12_5 H 0.2243 -0.0000 0.8290
O9_5 O 0.07288(15) -0.0000 0.63237(16)
C25_5 C 0.1444(2) -0.0000 0.7050(2)
C26_5 C 0.1809(2) -0.0000 0.7417(2)
H13_5 H 0.1103 -0.0000 0.7144
H14_5 H 0.1710 -0.0000 0.7757
O10_5 O 0.42712(15) -0.0000 0.86763(16)
C27_5 C 0.3556(2) -0.0000 0.7950(2)
C28_5 C 0.3191(2) -0.0000 0.7583(2)
H15_5 H 0.3897 -0.0000 0.7856
H16_5 H 0.3290 -0.0000 0.7243
Zr3_6 Zr -0.0000 -0.0000 0.59215(3)
C29_5 C 0.0000 0.11769(16) 0.61769(16)
O11_5 O 0.0000 0.07288(15) 0.63237(16)
C30_5 C 0.0000 0.15627(16) 0.65627(16)
C31_5 C 0.0000 0.1444(2) 0.7050(2)
C32_5 C 0.0000 0.1809(2) 0.7417(2)
C33_5 C 0.0000 0.23042(11) 0.73042(11)
H17_5 H 0.0000 0.1103 0.7144
H18_5 H 0.0000 0.1710 0.7757
C34_5 C 0.0000 0.38231(16) 0.88231(16)
O13_5 O -0.0000 0.42712(15) 0.86763(16)
C35_5 C 0.0000 0.34373(16) 0.84373(16)
C36_5 C 0.0000 0.3556(2) 0.7950(2)
C37_5 C 0.0000 0.3191(2) 0.7583(2)
C38_5 C 0.0000 0.26958(11) 0.76958(11)
H19_5 H 0.0000 0.3897 0.7856
H20_5 H 0.0000 0.3290 0.7243
O14_5 O 0.0000 0.13237(16) 0.57288(15)
C39_5 C 0.0000 0.2050(2) 0.6444(2)
C40_5 C 0.0000 0.2417(2) 0.6809(2)
H21_5 H 0.0000 0.2144 0.6103
H22_5 H 0.0000 0.2757 0.6710
O15_5 O -0.0000 0.36763(16) 0.92712(15)
C41_5 C 0.0000 0.2950(2) 0.8556(2)
C42_5 C 0.0000 0.2583(2) 0.8191(2)
H23_5 H 0.0000 0.2856 0.8897
H24_5 H 0.0000 0.2243 0.8290
O17_5 O 0.13237(16) 0.0000 0.42712(15)
O20_5 O -0.0000 0.13237(16) 0.42712(15)
O25_4 O 0.0469(2) 0.0469(2) 0.5469(2)
Zr2_9 Zr 0.09215(3) 1.0000 0.5000
C15_6 C 0.11769(16) 1.0000 0.61769(16)
O6_6 O 0.13237(16) 1.0000 0.57288(15)
C16_6 C 0.15627(16) 1.0000 0.65627(16)
C17_6 C 0.2050(2) 1.0000 0.6444(2)
C18_6 C 0.2417(2) 1.0000 0.6809(2)
C19_6 C 0.23042(11) 1.0000 0.73042(11)
H9_6 H 0.2144 1.0000 0.6103
H10_6 H 0.2757 1.0000 0.6710
C20_6 C 0.38231(16) 1.0000 0.88231(16)
O8_6 O 0.36763(16) 1.0000 0.92712(15)
C21_6 C 0.34373(16) 1.0000 0.84373(16)
C22_6 C 0.2950(2) 1.0000 0.8556(2)
C23_6 C 0.2583(2) 1.0000 0.8191(2)
C24_6 C 0.26958(11) 1.0000 0.76958(11)
H11_6 H 0.2856 1.0000 0.8897
H12_6 H 0.2243 1.0000 0.8290
O9_6 O 0.07288(15) 1.0000 0.63237(16)
C25_6 C 0.1444(2) 1.0000 0.7050(2)
C26_6 C 0.1809(2) 1.0000 0.7417(2)
H13_6 H 0.1103 1.0000 0.7144
H14_6 H 0.1710 1.0000 0.7757
O10_6 O 0.42712(15) 1.0000 0.86763(16)
C27_6 C 0.3556(2) 1.0000 0.7950(2)
C28_6 C 0.3191(2) 1.0000 0.7583(2)
H15_6 H 0.3897 1.0000 0.7856
H16_6 H 0.3290 1.0000 0.7243
Zr3_7 Zr -0.0000 1.0000 0.59215(3)
O12_4 O 0.0469(2) 0.9531(2) 0.5469(2)
O17_6 O 0.13237(16) 1.0000 0.42712(15)
O18_5 O -0.0000 0.92712(15) 0.63237(16)
O22_6 O 0.13237(16) 0.92712(15) 0.5000
O23_4 O 0.0469(2) 0.9531(2) 0.4531(2)
Zr1_9 Zr 1.0000 0.09215(3) 0.5000
O2_4 O 0.9531(2) 0.0469(2) 0.5469(2)
Zr3_8 Zr 1.0000 -0.0000 0.59215(3)
C29_6 C 1.0000 0.11769(16) 0.61769(16)
O11_6 O 1.0000 0.07288(15) 0.63237(16)
C30_6 C 1.0000 0.15627(16) 0.65627(16)
C31_6 C 1.0000 0.1444(2) 0.7050(2)
C32_6 C 1.0000 0.1809(2) 0.7417(2)
C33_6 C 1.0000 0.23042(11) 0.73042(11)
H17_6 H 1.0000 0.1103 0.7144
H18_6 H 1.0000 0.1710 0.7757
C34_6 C 1.0000 0.38231(16) 0.88231(16)
O13_6 O 1.0000 0.42712(15) 0.86763(16)
C35_6 C 1.0000 0.34373(16) 0.84373(16)
C36_6 C 1.0000 0.3556(2) 0.7950(2)
C37_6 C 1.0000 0.3191(2) 0.7583(2)
C38_6 C 1.0000 0.26958(11) 0.76958(11)
H19_6 H 1.0000 0.3897 0.7856
H20_6 H 1.0000 0.3290 0.7243
O14_6 O 1.0000 0.13237(16) 0.57288(15)
C39_6 C 1.0000 0.2050(2) 0.6444(2)
C40_6 C 1.0000 0.2417(2) 0.6809(2)
H21_6 H 1.0000 0.2144 0.6103
H22_6 H 1.0000 0.2757 0.6710
O15_6 O 1.0000 0.36763(16) 0.92712(15)
C41_6 C 1.0000 0.2950(2) 0.8556(2)
C42_6 C 1.0000 0.2583(2) 0.8191(2)
H23_6 H 1.0000 0.2856 0.8897
H24_6 H 1.0000 0.2243 0.8290
O16_4 O 0.9531(2) 0.0469(2) 0.4531(2)
O19_6 O 0.92712(15) 0.13237(16) 0.5000
O20_6 O 1.0000 0.13237(16) 0.42712(15)
O21_5 O 0.92712(15) -0.0000 0.63237(16)
Zr3_9 Zr 1.0000 1.0000 0.59215(3)
O18_6 O 1.0000 0.92712(15) 0.63237(16)
O21_6 O 0.92712(15) 1.0000 0.63237(16)
O24_4 O 0.9531(2) 0.9531(2) 0.5469(2)
C15_7 C 0.38231(16) 0.5000 0.61769(16)
O6_7 O 0.36763(16) 0.5000 0.57288(15)
C16_7 C 0.34373(16) 0.5000 0.65627(16)
O7_5 O 0.4531(2) 0.4531(2) 0.4531(2)
C17_7 C 0.2950(2) 0.5000 0.6444(2)
C18_7 C 0.2583(2) 0.5000 0.6809(2)
C19_7 C 0.26958(11) 0.5000 0.73042(11)
H9_7 H 0.2856 0.5000 0.6103
H10_7 H 0.2243 0.5000 0.6710
C20_7 C 0.11769(16) 0.5000 0.88231(16)
C21_7 C 0.15627(16) 0.5000 0.84373(16)
C22_7 C 0.2050(2) 0.5000 0.8556(2)
C23_7 C 0.2417(2) 0.5000 0.8191(2)
C24_7 C 0.23042(11) 0.5000 0.76958(11)
H11_7 H 0.2144 0.5000 0.8897
H12_7 H 0.2757 0.5000 0.8290
C25_7 C 0.3556(2) 0.5000 0.7050(2)
C26_7 C 0.3191(2) 0.5000 0.7417(2)
H13_7 H 0.3897 0.5000 0.7144
H14_7 H 0.3290 0.5000 0.7757
O10_7 O 0.07288(15) 0.5000 0.86763(16)
C27_7 C 0.1444(2) 0.5000 0.7950(2)
C28_7 C 0.1809(2) 0.5000 0.7583(2)
H15_7 H 0.1103 0.5000 0.7856
H16_7 H 0.1710 0.5000 0.7243
C29_7 C 0.5000 0.38231(16) 0.61769(16)
C30_7 C 0.5000 0.34373(16) 0.65627(16)
C31_7 C 0.5000 0.3556(2) 0.7050(2)
C32_7 C 0.5000 0.3191(2) 0.7417(2)
C33_7 C 0.5000 0.26958(11) 0.73042(11)
H17_7 H 0.5000 0.3897 0.7144
H18_7 H 0.5000 0.3290 0.7757
C34_7 C 0.5000 0.11769(16) 0.88231(16)
O13_7 O 0.5000 0.07288(15) 0.86763(16)
C35_7 C 0.5000 0.15627(16) 0.84373(16)
C36_7 C 0.5000 0.1444(2) 0.7950(2)
C37_7 C 0.5000 0.1809(2) 0.7583(2)
C38_7 C 0.5000 0.23042(11) 0.76958(11)
H19_7 H 0.5000 0.1103 0.7856
H20_7 H 0.5000 0.1710 0.7243
O14_7 O 0.5000 0.36763(16) 0.57288(15)
C39_7 C 0.5000 0.2950(2) 0.6444(2)
C40_7 C 0.5000 0.2583(2) 0.6809(2)
H21_7 H 0.5000 0.2856 0.6103
H22_7 H 0.5000 0.2243 0.6710
C41_7 C 0.5000 0.2050(2) 0.8556(2)
C42_7 C 0.5000 0.2417(2) 0.8191(2)
H23_7 H 0.5000 0.2144 0.8897
H24_7 H 0.5000 0.2757 0.8290
O19_7 O 0.57288(15) 0.36763(16) 0.5000
O22_7 O 0.36763(16) 0.57288(15) 0.5000
C15_8 C 0.38231(16) 0.0000 0.11769(16)
O6_8 O 0.36763(16) 0.0000 0.07288(15)
C16_8 C 0.34373(16) 0.0000 0.15627(16)
C17_8 C 0.2950(2) 0.0000 0.1444(2)
C18_8 C 0.2583(2) 0.0000 0.1809(2)
C19_8 C 0.26958(11) 0.0000 0.23042(11)
H9_8 H 0.2856 0.0000 0.1103
H10_8 H 0.2243 0.0000 0.1710
C20_8 C 0.11769(16) 0.0000 0.38231(16)
C21_8 C 0.15627(16) 0.0000 0.34373(16)
C22_8 C 0.2050(2) 0.0000 0.3556(2)
C23_8 C 0.2417(2) 0.0000 0.3191(2)
C24_8 C 0.23042(11) 0.0000 0.26958(11)
H11_8 H 0.2144 0.0000 0.3897
H12_8 H 0.2757 0.0000 0.3290
C25_8 C 0.3556(2) 0.0000 0.2050(2)
C26_8 C 0.3191(2) 0.0000 0.2417(2)
H13_8 H 0.3897 0.0000 0.2144
H14_8 H 0.3290 0.0000 0.2757
O10_8 O 0.07288(15) 0.0000 0.36763(16)
C27_8 C 0.1444(2) 0.0000 0.2950(2)
C28_8 C 0.1809(2) 0.0000 0.2583(2)
H15_8 H 0.1103 0.0000 0.2856
H16_8 H 0.1710 0.0000 0.2243
O22_8 O 0.36763(16) 0.07288(15) 0.0000
O22_9 O 0.36763(16) 0.07288(15) 1.0000
C15_9 C 0.38231(16) 1.0000 0.11769(16)
O6_9 O 0.36763(16) 1.0000 0.07288(15)
C16_9 C 0.34373(16) 1.0000 0.15627(16)
C17_9 C 0.2950(2) 1.0000 0.1444(2)
C18_9 C 0.2583(2) 1.0000 0.1809(2)
C19_9 C 0.26958(11) 1.0000 0.23042(11)
H9_9 H 0.2856 1.0000 0.1103
H10_9 H 0.2243 1.0000 0.1710
C20_9 C 0.11769(16) 1.0000 0.38231(16)
C21_9 C 0.15627(16) 1.0000 0.34373(16)
C22_9 C 0.2050(2) 1.0000 0.3556(2)
C23_9 C 0.2417(2) 1.0000 0.3191(2)
C24_9 C 0.23042(11) 1.0000 0.26958(11)
H11_9 H 0.2144 1.0000 0.3897
H12_9 H 0.2757 1.0000 0.3290
C25_9 C 0.3556(2) 1.0000 0.2050(2)
C26_9 C 0.3191(2) 1.0000 0.2417(2)
H13_9 H 0.3897 1.0000 0.2144
H14_9 H 0.3290 1.0000 0.2757
O10_9 O 0.07288(15) 1.0000 0.36763(16)
C27_9 C 0.1444(2) 1.0000 0.2950(2)
C28_9 C 0.1809(2) 1.0000 0.2583(2)
H15_9 H 0.1103 1.0000 0.2856
H16_9 H 0.1710 1.0000 0.2243
C29_8 C 0.5000 0.88231(16) 0.11769(16)
C30_8 C 0.5000 0.84373(16) 0.15627(16)
C31_8 C 0.5000 0.8556(2) 0.2050(2)
C32_8 C 0.5000 0.8191(2) 0.2417(2)
C33_8 C 0.5000 0.76958(11) 0.23042(11)
H17_8 H 0.5000 0.8897 0.2144
H18_8 H 0.5000 0.8290 0.2757
C34_8 C 0.5000 0.61769(16) 0.38231(16)
O13_8 O 0.5000 0.57288(15) 0.36763(16)
C35_8 C 0.5000 0.65627(16) 0.34373(16)
C36_8 C 0.5000 0.6444(2) 0.2950(2)
C37_8 C 0.5000 0.6809(2) 0.2583(2)
C38_8 C 0.5000 0.73042(11) 0.26958(11)
H19_8 H 0.5000 0.6103 0.2856
H20_8 H 0.5000 0.6710 0.2243
O14_8 O 0.5000 0.86763(16) 0.07288(15)
C39_8 C 0.5000 0.7950(2) 0.1444(2)
C40_8 C 0.5000 0.7583(2) 0.1809(2)
H21_8 H 0.5000 0.7856 0.1103
H22_8 H 0.5000 0.7243 0.1710
C41_8 C 0.5000 0.7050(2) 0.3556(2)
C42_8 C 0.5000 0.7417(2) 0.3191(2)
H23_8 H 0.5000 0.7144 0.3897
H24_8 H 0.5000 0.7757 0.3290
O19_8 O 0.57288(15) 0.86763(16) 0.0000
O7_6 O 0.4531(2) 0.9531(2) 0.9531(2)
O19_9 O 0.57288(15) 0.86763(16) 1.0000
C29_9 C -0.0000 0.38231(16) 0.11769(16)
C30_9 C -0.0000 0.34373(16) 0.15627(16)
C31_9 C -0.0000 0.3556(2) 0.2050(2)
C32_9 C -0.0000 0.3191(2) 0.2417(2)
C33_9 C -0.0000 0.26958(11) 0.23042(11)
H17_9 H -0.0000 0.3897 0.2144
H18_9 H -0.0000 0.3290 0.2757
C34_9 C -0.0000 0.11769(16) 0.38231(16)
O13_9 O 0.0000 0.07288(15) 0.36763(16)
C35_9 C -0.0000 0.15627(16) 0.34373(16)
C36_9 C -0.0000 0.1444(2) 0.2950(2)
C37_9 C -0.0000 0.1809(2) 0.2583(2)
C38_9 C -0.0000 0.23042(11) 0.26958(11)
H19_9 H -0.0000 0.1103 0.2856
H20_9 H -0.0000 0.1710 0.2243
O14_9 O -0.0000 0.36763(16) 0.07288(15)
C39_9 C -0.0000 0.2950(2) 0.1444(2)
C40_9 C -0.0000 0.2583(2) 0.1809(2)
H21_9 H -0.0000 0.2856 0.1103
H22_9 H -0.0000 0.2243 0.1710
C41_9 C -0.0000 0.2050(2) 0.3556(2)
C42_9 C -0.0000 0.2417(2) 0.3191(2)
H23_9 H -0.0000 0.2144 0.3897
H24_9 H -0.0000 0.2757 0.3290
O19_10 O 0.07288(15) 0.36763(16) 0.0000
O19_11 O 0.07288(15) 0.36763(16) 1.0000
C15_10 C 0.88231(16) 0.5000 0.11769(16)
O6_10 O 0.86763(16) 0.5000 0.07288(15)
C16_10 C 0.84373(16) 0.5000 0.15627(16)
C17_10 C 0.7950(2) 0.5000 0.1444(2)
C18_10 C 0.7583(2) 0.5000 0.1809(2)
C19_10 C 0.76958(11) 0.5000 0.23042(11)
H9_10 H 0.7856 0.5000 0.1103
H10_10 H 0.7243 0.5000 0.1710
C20_10 C 0.61769(16) 0.5000 0.38231(16)
C21_10 C 0.65627(16) 0.5000 0.34373(16)
C22_10 C 0.7050(2) 0.5000 0.3556(2)
C23_10 C 0.7417(2) 0.5000 0.3191(2)
C24_10 C 0.73042(11) 0.5000 0.26958(11)
H11_10 H 0.7144 0.5000 0.3897
H12_10 H 0.7757 0.5000 0.3290
C25_10 C 0.8556(2) 0.5000 0.2050(2)
C26_10 C 0.8191(2) 0.5000 0.2417(2)
H13_10 H 0.8897 0.5000 0.2144
H14_10 H 0.8290 0.5000 0.2757
O10_10 O 0.57288(15) 0.5000 0.36763(16)
C27_10 C 0.6444(2) 0.5000 0.2950(2)
C28_10 C 0.6809(2) 0.5000 0.2583(2)
H15_10 H 0.6103 0.5000 0.2856
H16_10 H 0.6710 0.5000 0.2243
C29_10 C 1.0000 0.38231(16) 0.11769(16)
C30_10 C 1.0000 0.34373(16) 0.15627(16)
C31_10 C 1.0000 0.3556(2) 0.2050(2)
C32_10 C 1.0000 0.3191(2) 0.2417(2)
C33_10 C 1.0000 0.26958(11) 0.23042(11)
H17_10 H 1.0000 0.3897 0.2144
H18_10 H 1.0000 0.3290 0.2757
C34_10 C 1.0000 0.11769(16) 0.38231(16)
O13_10 O 1.0000 0.07288(15) 0.36763(16)
C35_10 C 1.0000 0.15627(16) 0.34373(16)
C36_10 C 1.0000 0.1444(2) 0.2950(2)
C37_10 C 1.0000 0.1809(2) 0.2583(2)
C38_10 C 1.0000 0.23042(11) 0.26958(11)
H19_10 H 1.0000 0.1103 0.2856
H20_10 H 1.0000 0.1710 0.2243
O14_10 O 1.0000 0.36763(16) 0.07288(15)
C39_10 C 1.0000 0.2950(2) 0.1444(2)
C40_10 C 1.0000 0.2583(2) 0.1809(2)
H21_10 H 1.0000 0.2856 0.1103
H22_10 H 1.0000 0.2243 0.1710
C41_10 C 1.0000 0.2050(2) 0.3556(2)
C42_10 C 1.0000 0.2417(2) 0.3191(2)
H23_10 H 1.0000 0.2144 0.3897
H24_10 H 1.0000 0.2757 0.3290
O22_10 O 0.86763(16) 0.57288(15) 0.0000
O7_7 O 0.9531(2) 0.4531(2) 0.9531(2)
O22_11 O 0.86763(16) 0.57288(15) 1.0000
C29_11 C -0.0000 0.88231(16) 0.61769(16)
C30_11 C -0.0000 0.84373(16) 0.65627(16)
C31_11 C -0.0000 0.8556(2) 0.7050(2)
C32_11 C -0.0000 0.8191(2) 0.7417(2)
C33_11 C -0.0000 0.76958(11) 0.73042(11)
H17_11 H -0.0000 0.8897 0.7144
H18_11 H -0.0000 0.8290 0.7757
C34_11 C -0.0000 0.61769(16) 0.88231(16)
O13_11 O 0.0000 0.57288(15) 0.86763(16)
C35_11 C -0.0000 0.65627(16) 0.84373(16)
C36_11 C -0.0000 0.6444(2) 0.7950(2)
C37_11 C -0.0000 0.6809(2) 0.7583(2)
C38_11 C -0.0000 0.73042(11) 0.76958(11)
H19_11 H -0.0000 0.6103 0.7856
H20_11 H -0.0000 0.6710 0.7243
O14_11 O -0.0000 0.86763(16) 0.57288(15)
C39_11 C -0.0000 0.7950(2) 0.6444(2)
C40_11 C -0.0000 0.7583(2) 0.6809(2)
H21_11 H -0.0000 0.7856 0.6103
H22_11 H -0.0000 0.7243 0.6710
C41_11 C -0.0000 0.7050(2) 0.8556(2)
C42_11 C -0.0000 0.7417(2) 0.8191(2)
H23_11 H -0.0000 0.7144 0.8897
H24_11 H -0.0000 0.7757 0.8290
O19_12 O 0.07288(15) 0.86763(16) 0.5000
C15_11 C 0.88231(16) 0.0000 0.61769(16)
O6_11 O 0.86763(16) 0.0000 0.57288(15)
C16_11 C 0.84373(16) 0.0000 0.65627(16)
C17_11 C 0.7950(2) 0.0000 0.6444(2)
C18_11 C 0.7583(2) 0.0000 0.6809(2)
C19_11 C 0.76958(11) 0.0000 0.73042(11)
H9_11 H 0.7856 0.0000 0.6103
H10_11 H 0.7243 0.0000 0.6710
C20_11 C 0.61769(16) 0.0000 0.88231(16)
C21_11 C 0.65627(16) 0.0000 0.84373(16)
C22_11 C 0.7050(2) 0.0000 0.8556(2)
C23_11 C 0.7417(2) 0.0000 0.8191(2)
C24_11 C 0.73042(11) 0.0000 0.76958(11)
H11_11 H 0.7144 0.0000 0.8897
H12_11 H 0.7757 0.0000 0.8290
C25_11 C 0.8556(2) 0.0000 0.7050(2)
C26_11 C 0.8191(2) 0.0000 0.7417(2)
H13_11 H 0.8897 0.0000 0.7144
H14_11 H 0.8290 0.0000 0.7757
O10_11 O 0.57288(15) 0.0000 0.86763(16)
C27_11 C 0.6444(2) 0.0000 0.7950(2)
C28_11 C 0.6809(2) 0.0000 0.7583(2)
H15_11 H 0.6103 0.0000 0.7856
H16_11 H 0.6710 0.0000 0.7243
O22_12 O 0.86763(16) 0.07288(15) 0.5000
C15_12 C 0.88231(16) 1.0000 0.61769(16)
O6_12 O 0.86763(16) 1.0000 0.57288(15)
C16_12 C 0.84373(16) 1.0000 0.65627(16)
O7_8 O 0.9531(2) 0.9531(2) 0.4531(2)
C17_12 C 0.7950(2) 1.0000 0.6444(2)
C18_12 C 0.7583(2) 1.0000 0.6809(2)
C19_12 C 0.76958(11) 1.0000 0.73042(11)
H9_12 H 0.7856 1.0000 0.6103
H10_12 H 0.7243 1.0000 0.6710
C20_12 C 0.61769(16) 1.0000 0.88231(16)
C21_12 C 0.65627(16) 1.0000 0.84373(16)
C22_12 C 0.7050(2) 1.0000 0.8556(2)
C23_12 C 0.7417(2) 1.0000 0.8191(2)
C24_12 C 0.73042(11) 1.0000 0.76958(11)
H11_12 H 0.7144 1.0000 0.8897
H12_12 H 0.7757 1.0000 0.8290
C25_12 C 0.8556(2) 1.0000 0.7050(2)
C26_12 C 0.8191(2) 1.0000 0.7417(2)
H13_12 H 0.8897 1.0000 0.7144
H14_12 H 0.8290 1.0000 0.7757
O10_12 O 0.57288(15) 1.0000 0.86763(16)
C27_12 C 0.6444(2) 1.0000 0.7950(2)
C28_12 C 0.6809(2) 1.0000 0.7583(2)
H15_12 H 0.6103 1.0000 0.7856
H16_12 H 0.6710 1.0000 0.7243
C29_12 C 1.0000 0.88231(16) 0.61769(16)
C30_12 C 1.0000 0.84373(16) 0.65627(16)
C31_12 C 1.0000 0.8556(2) 0.7050(2)
C32_12 C 1.0000 0.8191(2) 0.7417(2)
C33_12 C 1.0000 0.76958(11) 0.73042(11)
H17_12 H 1.0000 0.8897 0.7144
H18_12 H 1.0000 0.8290 0.7757
C34_12 C 1.0000 0.61769(16) 0.88231(16)
O13_12 O 1.0000 0.57288(15) 0.86763(16)
C35_12 C 1.0000 0.65627(16) 0.84373(16)
C36_12 C 1.0000 0.6444(2) 0.7950(2)
C37_12 C 1.0000 0.6809(2) 0.7583(2)
C38_12 C 1.0000 0.73042(11) 0.76958(11)
H19_12 H 1.0000 0.6103 0.7856
H20_12 H 1.0000 0.6710 0.7243
O14_12 O 1.0000 0.86763(16) 0.57288(15)
C39_12 C 1.0000 0.7950(2) 0.6444(2)
C40_12 C 1.0000 0.7583(2) 0.6809(2)
H21_12 H 1.0000 0.7856 0.6103
H22_12 H 1.0000 0.7243 0.6710
C41_12 C 1.0000 0.7050(2) 0.8556(2)
C42_12 C 1.0000 0.7417(2) 0.8191(2)
H23_12 H 1.0000 0.7144 0.8897
H24_12 H 1.0000 0.7757 0.8290
C29_13 C 0.61769(16) 0.38231(16) 0.5000
C30_13 C 0.65627(16) 0.34373(16) 0.5000
C31_13 C 0.6444(2) 0.2950(2) 0.5000
C32_13 C 0.6809(2) 0.2583(2) 0.5000
C33_13 C 0.73042(11) 0.26958(11) 0.5000
H17_13 H 0.6103 0.2856 0.5000
H18_13 H 0.6710 0.2243 0.5000
C34_13 C 0.88231(16) 0.11769(16) 0.5000
C35_13 C 0.84373(16) 0.15627(16) 0.5000
C36_13 C 0.8556(2) 0.2050(2) 0.5000
C37_13 C 0.8191(2) 0.2417(2) 0.5000
C38_13 C 0.76958(11) 0.23042(11) 0.5000
H19_13 H 0.8897 0.2144 0.5000
H20_13 H 0.8290 0.2757 0.5000
C39_13 C 0.7050(2) 0.3556(2) 0.5000
C40_13 C 0.7417(2) 0.3191(2) 0.5000
H21_13 H 0.7144 0.3897 0.5000
H22_13 H 0.7757 0.3290 0.5000
C41_13 C 0.7950(2) 0.1444(2) 0.5000
C42_13 C 0.7583(2) 0.1809(2) 0.5000
H23_13 H 0.7856 0.1103 0.5000
H24_13 H 0.7243 0.1710 0.5000
C29_14 C 0.61769(16) 0.88231(16) -0.0000
C30_14 C 0.65627(16) 0.84373(16) -0.0000
C31_14 C 0.6444(2) 0.7950(2) -0.0000
C32_14 C 0.6809(2) 0.7583(2) -0.0000
C33_14 C 0.73042(11) 0.76958(11) -0.0000
H17_14 H 0.6103 0.7856 -0.0000
H18_14 H 0.6710 0.7243 -0.0000
C34_14 C 0.88231(16) 0.61769(16) -0.0000
C35_14 C 0.84373(16) 0.65627(16) -0.0000
C36_14 C 0.8556(2) 0.7050(2) -0.0000
C37_14 C 0.8191(2) 0.7417(2) -0.0000
C38_14 C 0.76958(11) 0.73042(11) -0.0000
H19_14 H 0.8897 0.7144 -0.0000
H20_14 H 0.8290 0.7757 -0.0000
C39_14 C 0.7050(2) 0.8556(2) -0.0000
C40_14 C 0.7417(2) 0.8191(2) -0.0000
H21_14 H 0.7144 0.8897 -0.0000
H22_14 H 0.7757 0.8290 -0.0000
C41_14 C 0.7950(2) 0.6444(2) -0.0000
C42_14 C 0.7583(2) 0.6809(2) -0.0000
H23_14 H 0.7856 0.6103 -0.0000
H24_14 H 0.7243 0.6710 -0.0000
C29_15 C 0.61769(16) 0.88231(16) 1.0000
C30_15 C 0.65627(16) 0.84373(16) 1.0000
C31_15 C 0.6444(2) 0.7950(2) 1.0000
C32_15 C 0.6809(2) 0.7583(2) 1.0000
C33_15 C 0.73042(11) 0.76958(11) 1.0000
H17_15 H 0.6103 0.7856 1.0000
H18_15 H 0.6710 0.7243 1.0000
C34_15 C 0.88231(16) 0.61769(16) 1.0000
C35_15 C 0.84373(16) 0.65627(16) 1.0000
C36_15 C 0.8556(2) 0.7050(2) 1.0000
C37_15 C 0.8191(2) 0.7417(2) 1.0000
C38_15 C 0.76958(11) 0.73042(11) 1.0000
H19_15 H 0.8897 0.7144 1.0000
H20_15 H 0.8290 0.7757 1.0000
C39_15 C 0.7050(2) 0.8556(2) 1.0000
C40_15 C 0.7417(2) 0.8191(2) 1.0000
H21_15 H 0.7144 0.8897 1.0000
H22_15 H 0.7757 0.8290 1.0000
C41_15 C 0.7950(2) 0.6444(2) 1.0000
C42_15 C 0.7583(2) 0.6809(2) 1.0000
H23_15 H 0.7856 0.6103 1.0000
H24_15 H 0.7243 0.6710 1.0000
C29_16 C 0.11769(16) 0.38231(16) -0.0000
C30_16 C 0.15627(16) 0.34373(16) -0.0000
C31_16 C 0.1444(2) 0.2950(2) -0.0000
C32_16 C 0.1809(2) 0.2583(2) -0.0000
C33_16 C 0.23042(11) 0.26958(11) -0.0000
H17_16 H 0.1103 0.2856 -0.0000
H18_16 H 0.1710 0.2243 -0.0000
C34_16 C 0.38231(16) 0.11769(16) -0.0000
C35_16 C 0.34373(16) 0.15627(16) -0.0000
C36_16 C 0.3556(2) 0.2050(2) -0.0000
C37_16 C 0.3191(2) 0.2417(2) -0.0000
C38_16 C 0.26958(11) 0.23042(11) -0.0000
H19_16 H 0.3897 0.2144 -0.0000
H20_16 H 0.3290 0.2757 -0.0000
C39_16 C 0.2050(2) 0.3556(2) -0.0000
C40_16 C 0.2417(2) 0.3191(2) -0.0000
H21_16 H 0.2144 0.3897 -0.0000
H22_16 H 0.2757 0.3290 -0.0000
C41_16 C 0.2950(2) 0.1444(2) -0.0000
C42_16 C 0.2583(2) 0.1809(2) -0.0000
H23_16 H 0.2856 0.1103 -0.0000
H24_16 H 0.2243 0.1710 -0.0000
C29_17 C 0.11769(16) 0.38231(16) 1.0000
C30_17 C 0.15627(16) 0.34373(16) 1.0000
C31_17 C 0.1444(2) 0.2950(2) 1.0000
C32_17 C 0.1809(2) 0.2583(2) 1.0000
C33_17 C 0.23042(11) 0.26958(11) 1.0000
H17_17 H 0.1103 0.2856 1.0000
H18_17 H 0.1710 0.2243 1.0000
C34_17 C 0.38231(16) 0.11769(16) 1.0000
C35_17 C 0.34373(16) 0.15627(16) 1.0000
C36_17 C 0.3556(2) 0.2050(2) 1.0000
C37_17 C 0.3191(2) 0.2417(2) 1.0000
C38_17 C 0.26958(11) 0.23042(11) 1.0000
H19_17 H 0.3897 0.2144 1.0000
H20_17 H 0.3290 0.2757 1.0000
C39_17 C 0.2050(2) 0.3556(2) 1.0000
C40_17 C 0.2417(2) 0.3191(2) 1.0000
H21_17 H 0.2144 0.3897 1.0000
H22_17 H 0.2757 0.3290 1.0000
C41_17 C 0.2950(2) 0.1444(2) 1.0000
C42_17 C 0.2583(2) 0.1809(2) 1.0000
H23_17 H 0.2856 0.1103 1.0000
H24_17 H 0.2243 0.1710 1.0000
C29_18 C 0.11769(16) 0.88231(16) 0.5000
C30_18 C 0.15627(16) 0.84373(16) 0.5000
C31_18 C 0.1444(2) 0.7950(2) 0.5000
C32_18 C 0.1809(2) 0.7583(2) 0.5000
C33_18 C 0.23042(11) 0.76958(11) 0.5000
H17_18 H 0.1103 0.7856 0.5000
H18_18 H 0.1710 0.7243 0.5000
C34_18 C 0.38231(16) 0.61769(16) 0.5000
C35_18 C 0.34373(16) 0.65627(16) 0.5000
C36_18 C 0.3556(2) 0.7050(2) 0.5000
C37_18 C 0.3191(2) 0.7417(2) 0.5000
C38_18 C 0.26958(11) 0.73042(11) 0.5000
H19_18 H 0.3897 0.7144 0.5000
H20_18 H 0.3290 0.7757 0.5000
C39_18 C 0.2050(2) 0.8556(2) 0.5000
C40_18 C 0.2417(2) 0.8191(2) 0.5000
H21_18 H 0.2144 0.8897 0.5000
H22_18 H 0.2757 0.8290 0.5000
C41_18 C 0.2950(2) 0.6444(2) 0.5000
C42_18 C 0.2583(2) 0.6809(2) 0.5000
H23_18 H 0.2856 0.6103 0.5000
H24_18 H 0.2243 0.6710 0.5000
loop_
_geom_bond_atom_site_label_1
_geom_bond_atom_site_label_2
_geom_bond_site_symmetry_1
_geom_bond_site_symmetry_2
Zr1 O1 1_555 1_555
C1 O1 1_555 1_555
C2 C1 1_555 1_555
O2 Zr1 1_555 1_555
C3 C2 1_555 1_555
C4 C3 1_555 1_555
C5 C4 1_555 1_555
H1 C3 1_555 1_555
H2 C4 1_555 1_555
C6 O3 1_555 1_555
O3 Zr6_2 1_555 1_555
C7 C6 1_555 1_555
C8 C7 1_555 1_555
C9 C8 1_555 1_555
C10 C5 1_555 1_555
H3 C8 1_555 1_555
H4 C9 1_555 1_555
O4 C1 1_555 1_555
C11 C2 1_555 1_555
C12 C5 1_555 1_555
H5 C11 1_555 1_555
H6 C12 1_555 1_555
O5 C6 1_555 1_555
C13 C7 1_555 1_555
C14 C10 1_555 1_555
H7 C13 1_555 1_555
H8 C14 1_555 1_555
Zr2 O4 1_555 1_555
C15 O6 1_555 1_555
O6 Zr2 1_555 1_555
C16 C15 1_555 1_555
O7 Zr1 1_555 1_555
C17 C16 1_555 1_555
C18 C17 1_555 1_555
C19 C18 1_555 1_555
H9 C17 1_555 1_555
H10 C18 1_555 1_555
C20 O8 1_555 1_555
O8 Zr8_2 1_555 1_555
C21 C20 1_555 1_555
C22 C21 1_555 1_555
C23 C22 1_555 1_555
C24 C19 1_555 1_555
H11 C22 1_555 1_555
H12 C23 1_555 1_555
O9 C15 1_555 1_555
C25 C16 1_555 1_555
C26 C19 1_555 1_555
H13 C25 1_555 1_555
H14 C26 1_555 1_555
O10 C20 1_555 1_555
C27 C21 1_555 1_555
C28 C24 1_555 1_555
H15 C27 1_555 1_555
H16 C28 1_555 1_555
Zr3 O2 1_555 1_555
C29 O11 1_555 1_555
O11 Zr3 1_555 1_555
C30 C29 1_555 1_555
O12 Zr2 1_555 1_555
C31 C30 1_555 1_555
C32 C31 1_555 1_555
C33 C32 1_555 1_555
H17 C31 1_555 1_555
H18 C32 1_555 1_555
C34 O13 1_555 1_555
O13 Zr11_2 1_555 1_555
C35 C34 1_555 1_555
C36 C35 1_555 1_555
C37 C36 1_555 1_555
C38 C33 1_555 1_555
H19 C36 1_555 1_555
H20 C37 1_555 1_555
O14 Zr1 1_555 1_555
C39 C30 1_555 1_555
C40 C33 1_555 1_555
H21 C39 1_555 1_555
H22 C40 1_555 1_555
O15 C34 1_555 1_555
C41 C35 1_555 1_555
C42 C38 1_555 1_555
H23 C41 1_555 1_555
H24 C42 1_555 1_555
O16 Zr1 1_555 1_555
Zr4 O12 1_555 1_555
Zr5_2 O15 1_555 1_555
Zr7 O2 1_555 1_555
Zr9_2 O5 1_555 1_555
Zr10 O7 1_555 1_555
Zr12_2 O10 1_555 1_555
O17 Zr2 1_555 1_555
O18 Zr3 1_555 1_555
O19 Zr1 1_555 1_555
O20 Zr1 1_555 1_555
O21 Zr3 1_555 1_555
O22 Zr2 1_555 1_555
O23 Zr2 1_555 1_555
O24 Zr3 1_555 1_555
O25 Zr1 1_555 1_555
C9 C10 1_555 1_555
C11 C12 1_555 1_555
C13 C14 1_555 1_555
Zr2 O7 1_555 1_555
Zr2 O25 1_555 1_555
C23 C24 1_555 1_555
O9 Zr3 1_555 1_555
C25 C26 1_555 1_555
C27 C28 1_555 1_555
Zr3 O12 1_555 1_555
Zr3 O25 1_555 1_555
C29 O14 1_555 1_555
C37 C38 1_555 1_555
C39 C40 1_555 1_555
C41 C42 1_555 1_555
O16 Zr7 1_555 1_555
O16 Zr10 1_555 1_555
Zr4 O23 1_555 1_555
Zr4 O24 1_555 1_555
Zr7 O24 1_555 1_555
Zr10 O23 1_555 1_555
Zr1_2 O1_2 1_555 1_555
C1_2 O1_2 1_555 1_555
C2_2 C1_2 1_555 1_555
O2_2 Zr1_2 1_555 1_555
C3_2 C2_2 1_555 1_555
C4_2 C3_2 1_555 1_555
C5_2 C4_2 1_555 1_555
H1_2 C3_2 1_555 1_555
H2_2 C4_2 1_555 1_555
C6_2 O3_2 1_555 1_555
O3_2 Zr6_5 1_555 1_555
C7_2 C6_2 1_555 1_555
C8_2 C7_2 1_555 1_555
C9_2 C8_2 1_555 1_555
C10_2 C5_2 1_555 1_555
H3_2 C8_2 1_555 1_555
H4_2 C9_2 1_555 1_555
O4_2 C1_2 1_555 1_555
C11_2 C2_2 1_555 1_555
C12_2 C5_2 1_555 1_555
H5_2 C11_2 1_555 1_555
H6_2 C12_2 1_555 1_555
O5_2 C6_2 1_555 1_555
C13_2 C7_2 1_555 1_555
C14_2 C10_2 1_555 1_555
H7_2 C13_2 1_555 1_555
H8_2 C14_2 1_555 1_555
Zr2_2 O4_2 1_555 1_555
C15_2 O6_2 1_555 1_555
O6_2 Zr2_2 1_555 1_555
C16_2 C15_2 1_555 1_555
C17_2 C16_2 1_555 1_555
C18_2 C17_2 1_555 1_555
C19_2 C18_2 1_555 1_555
H9_2 C17_2 1_555 1_555
H10_2 C18_2 1_555 1_555
C20_2 O8_2 1_555 1_555
O8_2 Zr9 1_555 1_555
C21_2 C20_2 1_555 1_555
C22_2 C21_2 1_555 1_555
C23_2 C22_2 1_555 1_555
C24_2 C19_2 1_555 1_555
H11_2 C22_2 1_555 1_555
H12_2 C23_2 1_555 1_555
O9_2 C15_2 1_555 1_555
C25_2 C16_2 1_555 1_555
C26_2 C19_2 1_555 1_555
H13_2 C25_2 1_555 1_555
H14_2 C26_2 1_555 1_555
O10_2 C20_2 1_555 1_555
C27_2 C21_2 1_555 1_555
C28_2 C24_2 1_555 1_555
H15_2 C27_2 1_555 1_555
H16_2 C28_2 1_555 1_555
Zr3_2 O2_2 1_555 1_555
C29_2 O11_2 1_555 1_555
O11_2 Zr3_2 1_555 1_555
C30_2 C29_2 1_555 1_555
C31_2 C30_2 1_555 1_555
C32_2 C31_2 1_555 1_555
C33_2 C32_2 1_555 1_555
H17_2 C31_2 1_555 1_555
H18_2 C32_2 1_555 1_555
C34_2 O13_2 1_555 1_555
O13_2 Zr10 1_555 1_555
C35_2 C34_2 1_555 1_555
C36_2 C35_2 1_555 1_555
C37_2 C36_2 1_555 1_555
C38_2 C33_2 1_555 1_555
H19_2 C36_2 1_555 1_555
H20_2 C37_2 1_555 1_555
O14_2 Zr1_2 1_555 1_555
C39_2 C30_2 1_555 1_555
C40_2 C33_2 1_555 1_555
H21_2 C39_2 1_555 1_555
H22_2 C40_2 1_555 1_555
O15_2 C34_2 1_555 1_555
C41_2 C35_2 1_555 1_555
C42_2 C38_2 1_555 1_555
H23_2 C41_2 1_555 1_555
H24_2 C42_2 1_555 1_555
Zr4 O15_2 1_555 1_555
Zr7_2 O2_2 1_555 1_555
Zr8 O5_2 1_555 1_555
Zr12_5 O10_2 1_555 1_555
O19_2 Zr1_2 1_555 1_555
O21_2 Zr3_2 1_555 1_555
O25_2 Zr1_2 1_555 1_555
C9_2 C10_2 1_555 1_555
C11_2 C12_2 1_555 1_555
C13_2 C14_2 1_555 1_555
Zr2_2 O25_2 1_555 1_555
C23_2 C24_2 1_555 1_555
O9_2 Zr3_2 1_555 1_555
C25_2 C26_2 1_555 1_555
C27_2 C28_2 1_555 1_555
Zr3_2 O25_2 1_555 1_555
C29_2 O14_2 1_555 1_555
C37_2 C38_2 1_555 1_555
C39_2 C40_2 1_555 1_555
C41_2 C42_2 1_555 1_555
Zr1_3 O1_3 1_555 1_555
C1_3 O1_3 1_555 1_555
C2_3 C1_3 1_555 1_555
C3_3 C2_3 1_555 1_555
C4_3 C3_3 1_555 1_555
C5_3 C4_3 1_555 1_555
H1_3 C3_3 1_555 1_555
H2_3 C4_3 1_555 1_555
C6_3 O3_3 1_555 1_555
O3_3 Zr6_6 1_555 1_555
C7_3 C6_3 1_555 1_555
C8_3 C7_3 1_555 1_555
C9_3 C8_3 1_555 1_555
C10_3 C5_3 1_555 1_555
H3_3 C8_3 1_555 1_555
H4_3 C9_3 1_555 1_555
O4_3 C1_3 1_555 1_555
C11_3 C2_3 1_555 1_555
C12_3 C5_3 1_555 1_555
H5_3 C11_3 1_555 1_555
H6_3 C12_3 1_555 1_555
O5_3 C6_3 1_555 1_555
C13_3 C7_3 1_555 1_555
C14_3 C10_3 1_555 1_555
H7_3 C13_3 1_555 1_555
H8_3 C14_3 1_555 1_555
Zr2_3 O4_3 1_555 1_555
O7_2 Zr1_3 1_555 1_555
O16_2 Zr1_3 1_555 1_555
Zr8_2 O5_3 1_555 1_555
Zr11 O7_2 1_555 1_555
O17_2 Zr2_3 1_555 1_555
O19_3 Zr1_3 1_555 1_555
O20_2 Zr1_3 1_555 1_555
C9_3 C10_3 1_555 1_555
C11_3 C12_3 1_555 1_555
C13_3 C14_3 1_555 1_555
Zr2_3 O7_2 1_555 1_555
O16_2 Zr7_3 1_555 1_555
O16_2 Zr11 1_555 1_555
C15_3 O6_3 1_555 1_555
O6_3 Zr2_4 1_555 1_555
C16_3 C15_3 1_555 1_555
C17_3 C16_3 1_555 1_555
C18_3 C17_3 1_555 1_555
C19_3 C18_3 1_555 1_555
H9_3 C17_3 1_555 1_555
H10_3 C18_3 1_555 1_555
C20_3 O8_3 1_555 1_555
O8_3 Zr9_2 1_555 1_555
C21_3 C20_3 1_555 1_555
C22_3 C21_3 1_555 1_555
C23_3 C22_3 1_555 1_555
C24_3 C19_3 1_555 1_555
H11_3 C22_3 1_555 1_555
H12_3 C23_3 1_555 1_555
O9_3 C15_3 1_555 1_555
C25_3 C16_3 1_555 1_555
C26_3 C19_3 1_555 1_555
H13_3 C25_3 1_555 1_555
H14_3 C26_3 1_555 1_555
O10_3 C20_3 1_555 1_555
C27_3 C21_3 1_555 1_555
C28_3 C24_3 1_555 1_555
H15_3 C27_3 1_555 1_555
H16_3 C28_3 1_555 1_555
O12_2 Zr2_4 1_555 1_555
Zr5 O12_2 1_555 1_555
Zr12_6 O10_3 1_555 1_555
O18_2 Zr3_3 1_555 1_555
O21_3 Zr3_3 1_555 1_555
O22_2 Zr2_4 1_555 1_555
O24_2 Zr3_3 1_555 1_555
C23_3 C24_3 1_555 1_555
O9_3 Zr3_3 1_555 1_555
C25_3 C26_3 1_555 1_555
C27_3 C28_3 1_555 1_555
Zr3_3 O12_2 1_555 1_555
Zr5 O24_2 1_555 1_555
Zr7_4 O24_2 1_555 1_555
O17_3 Zr2_5 1_555 1_555
O22_3 Zr2_5 1_555 1_555
O23_2 Zr2_5 1_555 1_555
Zr5_2 O23_2 1_555 1_555
Zr11_2 O23_2 1_555 1_555
Zr1_4 O1_4 1_555 1_555
C1_4 O1_4 1_555 1_555
C2_4 C1_4 1_555 1_555
C3_4 C2_4 1_555 1_555
C4_4 C3_4 1_555 1_555
C5_4 C4_4 1_555 1_555
H1_4 C3_4 1_555 1_555
H2_4 C4_4 1_555 1_555
C6_4 O3_4 1_555 1_555
O3_4 Zr5 1_555 1_555
C7_4 C6_4 1_555 1_555
C8_4 C7_4 1_555 1_555
C9_4 C8_4 1_555 1_555
C10_4 C5_4 1_555 1_555
H3_4 C8_4 1_555 1_555
H4_4 C9_4 1_555 1_555
O4_4 C1_4 1_555 1_555
C11_4 C2_4 1_555 1_555
C12_4 C5_4 1_555 1_555
H5_4 C11_4 1_555 1_555
H6_4 C12_4 1_555 1_555
O5_4 C6_4 1_555 1_555
C13_4 C7_4 1_555 1_555
C14_4 C10_4 1_555 1_555
H7_4 C13_4 1_555 1_555
H8_4 C14_4 1_555 1_555
Zr2_6 O4_4 1_555 1_555
C15_4 O6_4 1_555 1_555
O6_4 Zr2_6 1_555 1_555
C16_4 C15_4 1_555 1_555
C17_4 C16_4 1_555 1_555
C18_4 C17_4 1_555 1_555
C19_4 C18_4 1_555 1_555
H9_4 C17_4 1_555 1_555
H10_4 C18_4 1_555 1_555
C20_4 O8_4 1_555 1_555
O8_4 Zr7 1_555 1_555
C21_4 C20_4 1_555 1_555
C22_4 C21_4 1_555 1_555
C23_4 C22_4 1_555 1_555
C24_4 C19_4 1_555 1_555
H11_4 C22_4 1_555 1_555
H12_4 C23_4 1_555 1_555
O9_4 C15_4 1_555 1_555
C25_4 C16_4 1_555 1_555
C26_4 C19_4 1_555 1_555
H13_4 C25_4 1_555 1_555
H14_4 C26_4 1_555 1_555
O10_4 C20_4 1_555 1_555
C27_4 C21_4 1_555 1_555
C28_4 C24_4 1_555 1_555
H15_4 C27_4 1_555 1_555
H16_4 C28_4 1_555 1_555
C29_3 O11_3 1_555 1_555
O11_3 Zr3_4 1_555 1_555
C30_3 C29_3 1_555 1_555
O12_3 Zr2_6 1_555 1_555
C31_3 C30_3 1_555 1_555
C32_3 C31_3 1_555 1_555
C33_3 C32_3 1_555 1_555
H17_3 C31_3 1_555 1_555
H18_3 C32_3 1_555 1_555
C34_3 O13_3 1_555 1_555
O13_3 Zr12_4 1_555 1_555
C35_3 C34_3 1_555 1_555
C36_3 C35_3 1_555 1_555
C37_3 C36_3 1_555 1_555
C38_3 C33_3 1_555 1_555
H19_3 C36_3 1_555 1_555
H20_3 C37_3 1_555 1_555
O14_3 Zr1_4 1_555 1_555
C39_3 C30_3 1_555 1_555
C40_3 C33_3 1_555 1_555
H21_3 C39_3 1_555 1_555
H22_3 C40_3 1_555 1_555
O15_3 C34_3 1_555 1_555
C41_3 C35_3 1_555 1_555
C42_3 C38_3 1_555 1_555
H23_3 C41_3 1_555 1_555
H24_3 C42_3 1_555 1_555
Zr6_3 O12_3 1_555 1_555
Zr6 O15_3 1_555 1_555
Zr7_4 O5_4 1_555 1_555
Zr10 O10_4 1_555 1_555
O18_3 Zr3_4 1_555 1_555
O22_4 Zr2_6 1_555 1_555
O25_3 Zr1_4 1_555 1_555
C9_4 C10_4 1_555 1_555
C11_4 C12_4 1_555 1_555
C13_4 C14_4 1_555 1_555
Zr2_6 O25_3 1_555 1_555
C23_4 C24_4 1_555 1_555
O9_4 Zr3_4 1_555 1_555
C25_4 C26_4 1_555 1_555
C27_4 C28_4 1_555 1_555
Zr3_4 O12_3 1_555 1_555
Zr3_4 O25_3 1_555 1_555
C29_3 O14_3 1_555 1_555
C37_3 C38_3 1_555 1_555
C39_3 C40_3 1_555 1_555
C41_3 C42_3 1_555 1_555
Zr1_5 O1_5 1_555 1_555
C1_5 O1_5 1_555 1_555
C2_5 C1_5 1_555 1_555
C3_5 C2_5 1_555 1_555
C4_5 C3_5 1_555 1_555
C5_5 C4_5 1_555 1_555
H1_5 C3_5 1_555 1_555
H2_5 C4_5 1_555 1_555
C6_5 O3_5 1_555 1_555
O3_5 Zr5_2 1_555 1_555
C7_5 C6_5 1_555 1_555
C8_5 C7_5 1_555 1_555
C9_5 C8_5 1_555 1_555
C10_5 C5_5 1_555 1_555
H3_5 C8_5 1_555 1_555
H4_5 C9_5 1_555 1_555
O4_5 C1_5 1_555 1_555
C11_5 C2_5 1_555 1_555
C12_5 C5_5 1_555 1_555
H5_5 C11_5 1_555 1_555
H6_5 C12_5 1_555 1_555
O5_5 C6_5 1_555 1_555
C13_5 C7_5 1_555 1_555
C14_5 C10_5 1_555 1_555
H7_5 C13_5 1_555 1_555
H8_5 C14_5 1_555 1_555
Zr2_7 O4_5 1_555 1_555
O7_3 Zr1_5 1_555 1_555
Zr7_5 O5_5 1_555 1_555
Zr12 O7_3 1_555 1_555
O17_4 Zr2_7 1_555 1_555
O20_3 Zr1_5 1_555 1_555
O22_5 Zr2_7 1_555 1_555
O23_3 Zr2_7 1_555 1_555
C9_5 C10_5 1_555 1_555
C11_5 C12_5 1_555 1_555
C13_5 C14_5 1_555 1_555
Zr2_7 O7_3 1_555 1_555
Zr6_4 O23_3 1_555 1_555
Zr12 O23_3 1_555 1_555
O2_3 Zr1_6 1_555 1_555
Zr3_5 O2_3 1_555 1_555
C29_4 O11_4 1_555 1_555
O11_4 Zr3_5 1_555 1_555
C30_4 C29_4 1_555 1_555
C31_4 C30_4 1_555 1_555
C32_4 C31_4 1_555 1_555
C33_4 C32_4 1_555 1_555
H17_4 C31_4 1_555 1_555
H18_4 C32_4 1_555 1_555
C34_4 O13_4 1_555 1_555
O13_4 Zr12_6 1_555 1_555
C35_4 C34_4 1_555 1_555
C36_4 C35_4 1_555 1_555
C37_4 C36_4 1_555 1_555
C38_4 C33_4 1_555 1_555
H19_4 C36_4 1_555 1_555
H20_4 C37_4 1_555 1_555
O14_4 Zr1_6 1_555 1_555
C39_4 C30_4 1_555 1_555
C40_4 C33_4 1_555 1_555
H21_4 C39_4 1_555 1_555
H22_4 C40_4 1_555 1_555
O15_4 C34_4 1_555 1_555
C41_4 C35_4 1_555 1_555
C42_4 C38_4 1_555 1_555
H23_4 C41_4 1_555 1_555
H24_4 C42_4 1_555 1_555
Zr6_2 O15_4 1_555 1_555
Zr8 O2_3 1_555 1_555
O18_4 Zr3_5 1_555 1_555
O19_4 Zr1_6 1_555 1_555
O21_4 Zr3_5 1_555 1_555
O24_3 Zr3_5 1_555 1_555
C29_4 O14_4 1_555 1_555
C37_4 C38_4 1_555 1_555
C39_4 C40_4 1_555 1_555
C41_4 C42_4 1_555 1_555
Zr6_5 O24_3 1_555 1_555
Zr8 O24_3 1_555 1_555
O16_3 Zr1_7 1_555 1_555
O19_5 Zr1_7 1_555 1_555
O20_4 Zr1_7 1_555 1_555
O16_3 Zr8_2 1_555 1_555
O16_3 Zr12_2 1_555 1_555
Zr1_8 O1_6 1_555 1_555
C1_6 O1_6 1_555 1_555
C2_6 C1_6 1_555 1_555
C3_6 C2_6 1_555 1_555
C4_6 C3_6 1_555 1_555
C5_6 C4_6 1_555 1_555
H1_6 C3_6 1_555 1_555
H2_6 C4_6 1_555 1_555
C6_6 O3_6 1_555 1_555
O3_6 Zr4 1_555 1_555
C7_6 C6_6 1_555 1_555
C8_6 C7_6 1_555 1_555
C9_6 C8_6 1_555 1_555
C10_6 C5_6 1_555 1_555
H3_6 C8_6 1_555 1_555
H4_6 C9_6 1_555 1_555
O4_6 C1_6 1_555 1_555
C11_6 C2_6 1_555 1_555
C12_6 C5_6 1_555 1_555
H5_6 C11_6 1_555 1_555
H6_6 C12_6 1_555 1_555
O5_6 C6_6 1_555 1_555
C13_6 C7_6 1_555 1_555
C14_6 C10_6 1_555 1_555
H7_6 C13_6 1_555 1_555
H8_6 C14_6 1_555 1_555
Zr2_8 O4_6 1_555 1_555
C15_5 O6_5 1_555 1_555
O6_5 Zr2_8 1_555 1_555
C16_5 C15_5 1_555 1_555
O7_4 Zr1_8 1_555 1_555
C17_5 C16_5 1_555 1_555
C18_5 C17_5 1_555 1_555
C19_5 C18_5 1_555 1_555
H9_5 C17_5 1_555 1_555
H10_5 C18_5 1_555 1_555
C20_5 O8_5 1_555 1_555
O8_5 Zr7_3 1_555 1_555
C21_5 C20_5 1_555 1_555
C22_5 C21_5 1_555 1_555
C23_5 C22_5 1_555 1_555
C24_5 C19_5 1_555 1_555
H11_5 C22_5 1_555 1_555
H12_5 C23_5 1_555 1_555
O9_5 C15_5 1_555 1_555
C25_5 C16_5 1_555 1_555
C26_5 C19_5 1_555 1_555
H13_5 C25_5 1_555 1_555
H14_5 C26_5 1_555 1_555
O10_5 C20_5 1_555 1_555
C27_5 C21_5 1_555 1_555
C28_5 C24_5 1_555 1_555
H15_5 C27_5 1_555 1_555
H16_5 C28_5 1_555 1_555
C29_5 O11_5 1_555 1_555
O11_5 Zr3_6 1_555 1_555
C30_5 C29_5 1_555 1_555
C31_5 C30_5 1_555 1_555
C32_5 C31_5 1_555 1_555
C33_5 C32_5 1_555 1_555
H17_5 C31_5 1_555 1_555
H18_5 C32_5 1_555 1_555
C34_5 O13_5 1_555 1_555
O13_5 Zr12 1_555 1_555
C35_5 C34_5 1_555 1_555
C36_5 C35_5 1_555 1_555
C37_5 C36_5 1_555 1_555
C38_5 C33_5 1_555 1_555
H19_5 C36_5 1_555 1_555
H20_5 C37_5 1_555 1_555
O14_5 Zr1_8 1_555 1_555
C39_5 C30_5 1_555 1_555
C40_5 C33_5 1_555 1_555
H21_5 C39_5 1_555 1_555
H22_5 C40_5 1_555 1_555
O15_5 C34_5 1_555 1_555
C41_5 C35_5 1_555 1_555
C42_5 C38_5 1_555 1_555
H23_5 C41_5 1_555 1_555
H24_5 C42_5 1_555 1_555
Zr6_4 O15_5 1_555 1_555
Zr7 O5_6 1_555 1_555
Zr12_3 O7_4 1_555 1_555
Zr11 O10_5 1_555 1_555
O17_5 Zr2_8 1_555 1_555
O20_5 Zr1_8 1_555 1_555
O25_4 Zr1_8 1_555 1_555
C9_6 C10_6 1_555 1_555
C11_6 C12_6 1_555 1_555
C13_6 C14_6 1_555 1_555
Zr2_8 O7_4 1_555 1_555
Zr2_8 O25_4 1_555 1_555
C23_5 C24_5 1_555 1_555
O9_5 Zr3_6 1_555 1_555
C25_5 C26_5 1_555 1_555
C27_5 C28_5 1_555 1_555
Zr3_6 O25_4 1_555 1_555
C29_5 O14_5 1_555 1_555
C37_5 C38_5 1_555 1_555
C39_5 C40_5 1_555 1_555
C41_5 C42_5 1_555 1_555
C15_6 O6_6 1_555 1_555
O6_6 Zr2_9 1_555 1_555
C16_6 C15_6 1_555 1_555
C17_6 C16_6 1_555 1_555
C18_6 C17_6 1_555 1_555
C19_6 C18_6 1_555 1_555
H9_6 C17_6 1_555 1_555
H10_6 C18_6 1_555 1_555
C20_6 O8_6 1_555 1_555
O8_6 Zr7_5 1_555 1_555
C21_6 C20_6 1_555 1_555
C22_6 C21_6 1_555 1_555
C23_6 C22_6 1_555 1_555
C24_6 C19_6 1_555 1_555
H11_6 C22_6 1_555 1_555
H12_6 C23_6 1_555 1_555
O9_6 C15_6 1_555 1_555
C25_6 C16_6 1_555 1_555
C26_6 C19_6 1_555 1_555
H13_6 C25_6 1_555 1_555
H14_6 C26_6 1_555 1_555
O10_6 C20_6 1_555 1_555
C27_6 C21_6 1_555 1_555
C28_6 C24_6 1_555 1_555
H15_6 C27_6 1_555 1_555
H16_6 C28_6 1_555 1_555
O12_4 Zr2_9 1_555 1_555
Zr6 O12_4 1_555 1_555
Zr11_2 O10_6 1_555 1_555
O17_6 Zr2_9 1_555 1_555
O18_5 Zr3_7 1_555 1_555
O22_6 Zr2_9 1_555 1_555
O23_4 Zr2_9 1_555 1_555
C23_6 C24_6 1_555 1_555
O9_6 Zr3_7 1_555 1_555
C25_6 C26_6 1_555 1_555
C27_6 C28_6 1_555 1_555
Zr3_7 O12_4 1_555 1_555
Zr6 O23_4 1_555 1_555
Zr12_4 O23_4 1_555 1_555
O2_4 Zr1_9 1_555 1_555
Zr3_8 O2_4 1_555 1_555
C29_6 O11_6 1_555 1_555
O11_6 Zr3_8 1_555 1_555
C30_6 C29_6 1_555 1_555
C31_6 C30_6 1_555 1_555
C32_6 C31_6 1_555 1_555
C33_6 C32_6 1_555 1_555
H17_6 C31_6 1_555 1_555
H18_6 C32_6 1_555 1_555
C34_6 O13_6 1_555 1_555
O13_6 Zr12_2 1_555 1_555
C35_6 C34_6 1_555 1_555
C36_6 C35_6 1_555 1_555
C37_6 C36_6 1_555 1_555
C38_6 C33_6 1_555 1_555
H19_6 C36_6 1_555 1_555
H20_6 C37_6 1_555 1_555
O14_6 Zr1_9 1_555 1_555
C39_6 C30_6 1_555 1_555
C40_6 C33_6 1_555 1_555
H21_6 C39_6 1_555 1_555
H22_6 C40_6 1_555 1_555
O15_6 C34_6 1_555 1_555
C41_6 C35_6 1_555 1_555
C42_6 C38_6 1_555 1_555
H23_6 C41_6 1_555 1_555
H24_6 C42_6 1_555 1_555
O16_4 Zr1_9 1_555 1_555
Zr6_6 O15_6 1_555 1_555
Zr9 O2_4 1_555 1_555
O19_6 Zr1_9 1_555 1_555
O20_6 Zr1_9 1_555 1_555
O21_5 Zr3_8 1_555 1_555
C29_6 O14_6 1_555 1_555
C37_6 C38_6 1_555 1_555
C39_6 C40_6 1_555 1_555
C41_6 C42_6 1_555 1_555
O16_4 Zr9 1_555 1_555
O16_4 Zr12_5 1_555 1_555
O18_6 Zr3_9 1_555 1_555
O21_6 Zr3_9 1_555 1_555
O24_4 Zr3_9 1_555 1_555
Zr6_2 O24_4 1_555 1_555
Zr9_2 O24_4 1_555 1_555
C15_7 O6_7 1_555 1_555
O6_7 Zr7 1_555 1_555
C16_7 C15_7 1_555 1_555
O7_5 Zr4 1_555 1_555
C17_7 C16_7 1_555 1_555
C18_7 C17_7 1_555 1_555
C19_7 C18_7 1_555 1_555
H9_7 C17_7 1_555 1_555
H10_7 C18_7 1_555 1_555
C20_7 O17_4 1_555 1_555
C21_7 C20_7 1_555 1_555
C22_7 C21_7 1_555 1_555
C23_7 C22_7 1_555 1_555
C24_7 C19_7 1_555 1_555
H11_7 C22_7 1_555 1_555
H12_7 C23_7 1_555 1_555
O21 C15_7 1_555 1_555
C25_7 C16_7 1_555 1_555
C26_7 C19_7 1_555 1_555
H13_7 C25_7 1_555 1_555
H14_7 C26_7 1_555 1_555
O10_7 C20_7 1_555 1_555
C27_7 C21_7 1_555 1_555
C28_7 C24_7 1_555 1_555
H15_7 C27_7 1_555 1_555
H16_7 C28_7 1_555 1_555
C29_7 O18 1_555 1_555
C30_7 C29_7 1_555 1_555
C31_7 C30_7 1_555 1_555
C32_7 C31_7 1_555 1_555
C33_7 C32_7 1_555 1_555
H17_7 C31_7 1_555 1_555
H18_7 C32_7 1_555 1_555
C34_7 O13_7 1_555 1_555
O13_7 Zr11 1_555 1_555
C35_7 C34_7 1_555 1_555
C36_7 C35_7 1_555 1_555
C37_7 C36_7 1_555 1_555
C38_7 C33_7 1_555 1_555
H19_7 C36_7 1_555 1_555
H20_7 C37_7 1_555 1_555
O14_7 Zr4 1_555 1_555
C39_7 C30_7 1_555 1_555
C40_7 C33_7 1_555 1_555
H21_7 C39_7 1_555 1_555
H22_7 C40_7 1_555 1_555
O20_2 C34_7 1_555 1_555
C41_7 C35_7 1_555 1_555
C42_7 C38_7 1_555 1_555
H23_7 C41_7 1_555 1_555
H24_7 C42_7 1_555 1_555
Zr10 O7_5 1_555 1_555
Zr12 O10_7 1_555 1_555
O19_7 Zr4 1_555 1_555
O22_7 Zr7 1_555 1_555
Zr7 O7_5 1_555 1_555
C23_7 C24_7 1_555 1_555
C25_7 C26_7 1_555 1_555
C27_7 C28_7 1_555 1_555
C29_7 O14_7 1_555 1_555
C37_7 C38_7 1_555 1_555
C39_7 C40_7 1_555 1_555
C41_7 C42_7 1_555 1_555
C15_8 O6_8 1_555 1_555
O6_8 Zr7_2 1_555 1_555
C16_8 C15_8 1_555 1_555
C17_8 C16_8 1_555 1_555
C18_8 C17_8 1_555 1_555
C19_8 C18_8 1_555 1_555
H9_8 C17_8 1_555 1_555
H10_8 C18_8 1_555 1_555
C20_8 O17_5 1_555 1_555
C21_8 C20_8 1_555 1_555
C22_8 C21_8 1_555 1_555
C23_8 C22_8 1_555 1_555
C24_8 C19_8 1_555 1_555
H11_8 C22_8 1_555 1_555
H12_8 C23_8 1_555 1_555
O21_2 C15_8 1_555 1_555
C25_8 C16_8 1_555 1_555
C26_8 C19_8 1_555 1_555
H13_8 C25_8 1_555 1_555
H14_8 C26_8 1_555 1_555
O10_8 C20_8 1_555 1_555
C27_8 C21_8 1_555 1_555
C28_8 C24_8 1_555 1_555
H15_8 C27_8 1_555 1_555
H16_8 C28_8 1_555 1_555
Zr12_3 O10_8 1_555 1_555
O22_8 Zr7_2 1_555 1_555
C23_8 C24_8 1_555 1_555
C25_8 C26_8 1_555 1_555
C27_8 C28_8 1_555 1_555
O22_9 Zr7_3 1_555 1_555
C15_9 O6_9 1_555 1_555
O6_9 Zr7_4 1_555 1_555
C16_9 C15_9 1_555 1_555
C17_9 C16_9 1_555 1_555
C18_9 C17_9 1_555 1_555
C19_9 C18_9 1_555 1_555
H9_9 C17_9 1_555 1_555
H10_9 C18_9 1_555 1_555
C20_9 O17_6 1_555 1_555
C21_9 C20_9 1_555 1_555
C22_9 C21_9 1_555 1_555
C23_9 C22_9 1_555 1_555
C24_9 C19_9 1_555 1_555
H11_9 C22_9 1_555 1_555
H12_9 C23_9 1_555 1_555
O21_3 C15_9 1_555 1_555
C25_9 C16_9 1_555 1_555
C26_9 C19_9 1_555 1_555
H13_9 C25_9 1_555 1_555
H14_9 C26_9 1_555 1_555
O10_9 C20_9 1_555 1_555
C27_9 C21_9 1_555 1_555
C28_9 C24_9 1_555 1_555
H15_9 C27_9 1_555 1_555
H16_9 C28_9 1_555 1_555
C29_8 O18_2 1_555 1_555
C30_8 C29_8 1_555 1_555
C31_8 C30_8 1_555 1_555
C32_8 C31_8 1_555 1_555
C33_8 C32_8 1_555 1_555
H17_8 C31_8 1_555 1_555
H18_8 C32_8 1_555 1_555
C34_8 O13_8 1_555 1_555
O13_8 Zr10 1_555 1_555
C35_8 C34_8 1_555 1_555
C36_8 C35_8 1_555 1_555
C37_8 C36_8 1_555 1_555
C38_8 C33_8 1_555 1_555
H19_8 C36_8 1_555 1_555
H20_8 C37_8 1_555 1_555
O14_8 Zr5 1_555 1_555
C39_8 C30_8 1_555 1_555
C40_8 C33_8 1_555 1_555
H21_8 C39_8 1_555 1_555
H22_8 C40_8 1_555 1_555
O20 C34_8 1_555 1_555
C41_8 C35_8 1_555 1_555
C42_8 C38_8 1_555 1_555
H23_8 C41_8 1_555 1_555
H24_8 C42_8 1_555 1_555
Zr12_4 O10_9 1_555 1_555
O19_8 Zr5 1_555 1_555
C23_9 C24_9 1_555 1_555
C25_9 C26_9 1_555 1_555
C27_9 C28_9 1_555 1_555
C29_8 O14_8 1_555 1_555
C37_8 C38_8 1_555 1_555
C39_8 C40_8 1_555 1_555
C41_8 C42_8 1_555 1_555
O7_6 Zr5_2 1_555 1_555
Zr11_2 O7_6 1_555 1_555
O19_9 Zr5_2 1_555 1_555
Zr7_5 O7_6 1_555 1_555
C29_9 O18_3 1_555 1_555
C30_9 C29_9 1_555 1_555
C31_9 C30_9 1_555 1_555
C32_9 C31_9 1_555 1_555
C33_9 C32_9 1_555 1_555
H17_9 C31_9 1_555 1_555
H18_9 C32_9 1_555 1_555
C34_9 O13_9 1_555 1_555
O13_9 Zr12_3 1_555 1_555
C35_9 C34_9 1_555 1_555
C36_9 C35_9 1_555 1_555
C37_9 C36_9 1_555 1_555
C38_9 C33_9 1_555 1_555
H19_9 C36_9 1_555 1_555
H20_9 C37_9 1_555 1_555
O14_9 Zr6_3 1_555 1_555
C39_9 C30_9 1_555 1_555
C40_9 C33_9 1_555 1_555
H21_9 C39_9 1_555 1_555
H22_9 C40_9 1_555 1_555
O20_5 C34_9 1_555 1_555
C41_9 C35_9 1_555 1_555
C42_9 C38_9 1_555 1_555
H23_9 C41_9 1_555 1_555
H24_9 C42_9 1_555 1_555
O19_10 Zr6_3 1_555 1_555
C29_9 O14_9 1_555 1_555
C37_9 C38_9 1_555 1_555
C39_9 C40_9 1_555 1_555
C41_9 C42_9 1_555 1_555
O19_11 Zr6_4 1_555 1_555
C15_10 O6_10 1_555 1_555
O6_10 Zr8 1_555 1_555
C16_10 C15_10 1_555 1_555
C17_10 C16_10 1_555 1_555
C18_10 C17_10 1_555 1_555
C19_10 C18_10 1_555 1_555
H9_10 C17_10 1_555 1_555
H10_10 C18_10 1_555 1_555
C20_10 O17 1_555 1_555
C21_10 C20_10 1_555 1_555
C22_10 C21_10 1_555 1_555
C23_10 C22_10 1_555 1_555
C24_10 C19_10 1_555 1_555
H11_10 C22_10 1_555 1_555
H12_10 C23_10 1_555 1_555
O21_4 C15_10 1_555 1_555
C25_10 C16_10 1_555 1_555
C26_10 C19_10 1_555 1_555
H13_10 C25_10 1_555 1_555
H14_10 C26_10 1_555 1_555
O10_10 C20_10 1_555 1_555
C27_10 C21_10 1_555 1_555
C28_10 C24_10 1_555 1_555
H15_10 C27_10 1_555 1_555
H16_10 C28_10 1_555 1_555
C29_10 O18_4 1_555 1_555
C30_10 C29_10 1_555 1_555
C31_10 C30_10 1_555 1_555
C32_10 C31_10 1_555 1_555
C33_10 C32_10 1_555 1_555
H17_10 C31_10 1_555 1_555
H18_10 C32_10 1_555 1_555
C34_10 O13_10 1_555 1_555
O13_10 Zr12_5 1_555 1_555
C35_10 C34_10 1_555 1_555
C36_10 C35_10 1_555 1_555
C37_10 C36_10 1_555 1_555
C38_10 C33_10 1_555 1_555
H19_10 C36_10 1_555 1_555
H20_10 C37_10 1_555 1_555
O14_10 Zr6_5 1_555 1_555
C39_10 C30_10 1_555 1_555
C40_10 C33_10 1_555 1_555
H21_10 C39_10 1_555 1_555
H22_10 C40_10 1_555 1_555
O20_6 C34_10 1_555 1_555
C41_10 C35_10 1_555 1_555
C42_10 C38_10 1_555 1_555
H23_10 C41_10 1_555 1_555
H24_10 C42_10 1_555 1_555
Zr10 O10_10 1_555 1_555
O22_10 Zr8 1_555 1_555
C23_10 C24_10 1_555 1_555
C25_10 C26_10 1_555 1_555
C27_10 C28_10 1_555 1_555
C29_10 O14_10 1_555 1_555
C37_10 C38_10 1_555 1_555
C39_10 C40_10 1_555 1_555
C41_10 C42_10 1_555 1_555
O7_7 Zr6_6 1_555 1_555
Zr12_2 O7_7 1_555 1_555
O22_11 Zr8_2 1_555 1_555
Zr8_2 O7_7 1_555 1_555
C29_11 O18_5 1_555 1_555
C30_11 C29_11 1_555 1_555
C31_11 C30_11 1_555 1_555
C32_11 C31_11 1_555 1_555
C33_11 C32_11 1_555 1_555
H17_11 C31_11 1_555 1_555
H18_11 C32_11 1_555 1_555
C34_11 O13_11 1_555 1_555
O13_11 Zr12 1_555 1_555
C35_11 C34_11 1_555 1_555
C36_11 C35_11 1_555 1_555
C37_11 C36_11 1_555 1_555
C38_11 C33_11 1_555 1_555
H19_11 C36_11 1_555 1_555
H20_11 C37_11 1_555 1_555
O14_11 Zr6 1_555 1_555
C39_11 C30_11 1_555 1_555
C40_11 C33_11 1_555 1_555
H21_11 C39_11 1_555 1_555
H22_11 C40_11 1_555 1_555
O20_3 C34_11 1_555 1_555
C41_11 C35_11 1_555 1_555
C42_11 C38_11 1_555 1_555
H23_11 C41_11 1_555 1_555
H24_11 C42_11 1_555 1_555
O19_12 Zr6 1_555 1_555
C29_11 O14_11 1_555 1_555
C37_11 C38_11 1_555 1_555
C39_11 C40_11 1_555 1_555
C41_11 C42_11 1_555 1_555
C15_11 O6_11 1_555 1_555
O6_11 Zr9 1_555 1_555
C16_11 C15_11 1_555 1_555
C17_11 C16_11 1_555 1_555
C18_11 C17_11 1_555 1_555
C19_11 C18_11 1_555 1_555
H9_11 C17_11 1_555 1_555
H10_11 C18_11 1_555 1_555
C20_11 O17_2 1_555 1_555
C21_11 C20_11 1_555 1_555
C22_11 C21_11 1_555 1_555
C23_11 C22_11 1_555 1_555
C24_11 C19_11 1_555 1_555
H11_11 C22_11 1_555 1_555
H12_11 C23_11 1_555 1_555
O21_5 C15_11 1_555 1_555
C25_11 C16_11 1_555 1_555
C26_11 C19_11 1_555 1_555
H13_11 C25_11 1_555 1_555
H14_11 C26_11 1_555 1_555
O10_11 C20_11 1_555 1_555
C27_11 C21_11 1_555 1_555
C28_11 C24_11 1_555 1_555
H15_11 C27_11 1_555 1_555
H16_11 C28_11 1_555 1_555
Zr11 O10_11 1_555 1_555
O22_12 Zr9 1_555 1_555
C23_11 C24_11 1_555 1_555
C25_11 C26_11 1_555 1_555
C27_11 C28_11 1_555 1_555
C15_12 O6_12 1_555 1_555
O6_12 Zr9_2 1_555 1_555
C16_12 C15_12 1_555 1_555
O7_8 Zr6_2 1_555 1_555
C17_12 C16_12 1_555 1_555
C18_12 C17_12 1_555 1_555
C19_12 C18_12 1_555 1_555
H9_12 C17_12 1_555 1_555
H10_12 C18_12 1_555 1_555
C20_12 O17_3 1_555 1_555
C21_12 C20_12 1_555 1_555
C22_12 C21_12 1_555 1_555
C23_12 C22_12 1_555 1_555
C24_12 C19_12 1_555 1_555
H11_12 C22_12 1_555 1_555
H12_12 C23_12 1_555 1_555
O21_6 C15_12 1_555 1_555
C25_12 C16_12 1_555 1_555
C26_12 C19_12 1_555 1_555
H13_12 C25_12 1_555 1_555
H14_12 C26_12 1_555 1_555
O10_12 C20_12 1_555 1_555
C27_12 C21_12 1_555 1_555
C28_12 C24_12 1_555 1_555
H15_12 C27_12 1_555 1_555
H16_12 C28_12 1_555 1_555
C29_12 O18_6 1_555 1_555
C30_12 C29_12 1_555 1_555
C31_12 C30_12 1_555 1_555
C32_12 C31_12 1_555 1_555
C33_12 C32_12 1_555 1_555
H17_12 C31_12 1_555 1_555
H18_12 C32_12 1_555 1_555
C34_12 O13_12 1_555 1_555
O13_12 Zr12_2 1_555 1_555
C35_12 C34_12 1_555 1_555
C36_12 C35_12 1_555 1_555
C37_12 C36_12 1_555 1_555
C38_12 C33_12 1_555 1_555
H19_12 C36_12 1_555 1_555
H20_12 C37_12 1_555 1_555
O14_12 Zr6_2 1_555 1_555
C39_12 C30_12 1_555 1_555
C40_12 C33_12 1_555 1_555
H21_12 C39_12 1_555 1_555
H22_12 C40_12 1_555 1_555
O20_4 C34_12 1_555 1_555
C41_12 C35_12 1_555 1_555
C42_12 C38_12 1_555 1_555
H23_12 C41_12 1_555 1_555
H24_12 C42_12 1_555 1_555
Zr12_6 O7_8 1_555 1_555
Zr11_2 O10_12 1_555 1_555
Zr9_2 O7_8 1_555 1_555
C23_12 C24_12 1_555 1_555
C25_12 C26_12 1_555 1_555
C27_12 C28_12 1_555 1_555
C29_12 O14_12 1_555 1_555
C37_12 C38_12 1_555 1_555
C39_12 C40_12 1_555 1_555
C41_12 C42_12 1_555 1_555
C29_13 O19_7 1_555 1_555
C30_13 C29_13 1_555 1_555
C31_13 C30_13 1_555 1_555
C32_13 C31_13 1_555 1_555
C33_13 C32_13 1_555 1_555
H17_13 C31_13 1_555 1_555
H18_13 C32_13 1_555 1_555
C34_13 O19_6 1_555 1_555
C35_13 C34_13 1_555 1_555
C36_13 C35_13 1_555 1_555
C37_13 C36_13 1_555 1_555
C38_13 C33_13 1_555 1_555
H19_13 C36_13 1_555 1_555
H20_13 C37_13 1_555 1_555
C39_13 C30_13 1_555 1_555
C40_13 C33_13 1_555 1_555
H21_13 C39_13 1_555 1_555
H22_13 C40_13 1_555 1_555
O22_12 C34_13 1_555 1_555
C41_13 C35_13 1_555 1_555
C42_13 C38_13 1_555 1_555
H23_13 C41_13 1_555 1_555
H24_13 C42_13 1_555 1_555
C29_13 O22 1_555 1_555
C37_13 C38_13 1_555 1_555
C39_13 C40_13 1_555 1_555
C41_13 C42_13 1_555 1_555
C29_14 O19_8 1_555 1_555
C30_14 C29_14 1_555 1_555
C31_14 C30_14 1_555 1_555
C32_14 C31_14 1_555 1_555
C33_14 C32_14 1_555 1_555
H17_14 C31_14 1_555 1_555
H18_14 C32_14 1_555 1_555
C34_14 O19_4 1_555 1_555
C35_14 C34_14 1_555 1_555
C36_14 C35_14 1_555 1_555
C37_14 C36_14 1_555 1_555
C38_14 C33_14 1_555 1_555
H19_14 C36_14 1_555 1_555
H20_14 C37_14 1_555 1_555
C39_14 C30_14 1_555 1_555
C40_14 C33_14 1_555 1_555
H21_14 C39_14 1_555 1_555
H22_14 C40_14 1_555 1_555
O22_10 C34_14 1_555 1_555
C41_14 C35_14 1_555 1_555
C42_14 C38_14 1_555 1_555
H23_14 C41_14 1_555 1_555
H24_14 C42_14 1_555 1_555
C29_14 O22_2 1_555 1_555
C37_14 C38_14 1_555 1_555
C39_14 C40_14 1_555 1_555
C41_14 C42_14 1_555 1_555
C29_15 O19_9 1_555 1_555
C30_15 C29_15 1_555 1_555
C31_15 C30_15 1_555 1_555
C32_15 C31_15 1_555 1_555
C33_15 C32_15 1_555 1_555
H17_15 C31_15 1_555 1_555
H18_15 C32_15 1_555 1_555
C34_15 O19_5 1_555 1_555
C35_15 C34_15 1_555 1_555
C36_15 C35_15 1_555 1_555
C37_15 C36_15 1_555 1_555
C38_15 C33_15 1_555 1_555
H19_15 C36_15 1_555 1_555
H20_15 C37_15 1_555 1_555
C39_15 C30_15 1_555 1_555
C40_15 C33_15 1_555 1_555
H21_15 C39_15 1_555 1_555
H22_15 C40_15 1_555 1_555
O22_11 C34_15 1_555 1_555
C41_15 C35_15 1_555 1_555
C42_15 C38_15 1_555 1_555
H23_15 C41_15 1_555 1_555
H24_15 C42_15 1_555 1_555
C29_15 O22_3 1_555 1_555
C37_15 C38_15 1_555 1_555
C39_15 C40_15 1_555 1_555
C41_15 C42_15 1_555 1_555
C29_16 O19_10 1_555 1_555
C30_16 C29_16 1_555 1_555
C31_16 C30_16 1_555 1_555
C32_16 C31_16 1_555 1_555
C33_16 C32_16 1_555 1_555
H17_16 C31_16 1_555 1_555
H18_16 C32_16 1_555 1_555
C34_16 O19_2 1_555 1_555
C35_16 C34_16 1_555 1_555
C36_16 C35_16 1_555 1_555
C37_16 C36_16 1_555 1_555
C38_16 C33_16 1_555 1_555
H19_16 C36_16 1_555 1_555
H20_16 C37_16 1_555 1_555
C39_16 C30_16 1_555 1_555
C40_16 C33_16 1_555 1_555
H21_16 C39_16 1_555 1_555
H22_16 C40_16 1_555 1_555
O22_8 C34_16 1_555 1_555
C41_16 C35_16 1_555 1_555
C42_16 C38_16 1_555 1_555
H23_16 C41_16 1_555 1_555
H24_16 C42_16 1_555 1_555
C29_16 O22_4 1_555 1_555
C37_16 C38_16 1_555 1_555
C39_16 C40_16 1_555 1_555
C41_16 C42_16 1_555 1_555
C29_17 O19_11 1_555 1_555
C30_17 C29_17 1_555 1_555
C31_17 C30_17 1_555 1_555
C32_17 C31_17 1_555 1_555
C33_17 C32_17 1_555 1_555
H17_17 C31_17 1_555 1_555
H18_17 C32_17 1_555 1_555
C34_17 O19_3 1_555 1_555
C35_17 C34_17 1_555 1_555
C36_17 C35_17 1_555 1_555
C37_17 C36_17 1_555 1_555
C38_17 C33_17 1_555 1_555
H19_17 C36_17 1_555 1_555
H20_17 C37_17 1_555 1_555
C39_17 C30_17 1_555 1_555
C40_17 C33_17 1_555 1_555
H21_17 C39_17 1_555 1_555
H22_17 C40_17 1_555 1_555
O22_9 C34_17 1_555 1_555
C41_17 C35_17 1_555 1_555
C42_17 C38_17 1_555 1_555
H23_17 C41_17 1_555 1_555
H24_17 C42_17 1_555 1_555
C29_17 O22_5 1_555 1_555
C37_17 C38_17 1_555 1_555
C39_17 C40_17 1_555 1_555
C41_17 C42_17 1_555 1_555
C29_18 O19_12 1_555 1_555
C30_18 C29_18 1_555 1_555
C31_18 C30_18 1_555 1_555
C32_18 C31_18 1_555 1_555
C33_18 C32_18 1_555 1_555
H17_18 C31_18 1_555 1_555
H18_18 C32_18 1_555 1_555
C34_18 O19 1_555 1_555
C35_18 C34_18 1_555 1_555
C36_18 C35_18 1_555 1_555
C37_18 C36_18 1_555 1_555
C38_18 C33_18 1_555 1_555
H19_18 C36_18 1_555 1_555
H20_18 C37_18 1_555 1_555
C39_18 C30_18 1_555 1_555
C40_18 C33_18 1_555 1_555
H21_18 C39_18 1_555 1_555
H22_18 C40_18 1_555 1_555
O22_7 C34_18 1_555 1_555
C41_18 C35_18 1_555 1_555
C42_18 C38_18 1_555 1_555
H23_18 C41_18 1_555 1_555
H24_18 C42_18 1_555 1_555
C29_18 O22_6 1_555 1_555
C37_18 C38_18 1_555 1_555
C39_18 C40_18 1_555 1_555
C41_18 C42_18 1_555 1_555

#END
