
###############################################################################
#
# This file contains modified crystal structure data generated from the
# MOF subset of the Cambridge Structural Database (CSD) v543 
# hosted by the Cambridge Crystallographic Data Centre (CCDC).
#
# This work is licensed under the Creative Commons
# Attribution-NonCommercial-ShareAlike 4.0 International License.
# To view a copy of this license, visit
# http://creativecommons.org/licenses/by-nc-sa/4.0/
# or send a letter to
# Creative Commons, PO Box 1866, Mountain View, CA 94042, USA.
#
# CIF created using the CSD Python API on 29 September 2022
# The structure has been converted into the P1 space group
# The structure has a 3D framework
# The original CSD entry WIZMAV14 is in the cubic crystal system
# The framework has been calculated to contain at least 10.0% void space
# The void calculation uses a probe of radius 1.32A, grid spacing 0.4
#
###############################################################################

data_WIZMAV14
_chemical_formula_moiety         '(C504 H288 O160 Zr34)n'
_symmetry_cell_setting           triclinic
_symmetry_space_group_name_H-M   'P 1'
_symmetry_Int_Tables_number      1
_space_group_name_Hall           'P 1'
loop_
_symmetry_equiv_pos_site_id
_symmetry_equiv_pos_as_xyz
1 x,y,z
_cell_length_a                   26.880(3)
_cell_length_b                   26.880(3)
_cell_length_c                   26.880(3)
_cell_angle_alpha                90
_cell_angle_beta                 90
_cell_angle_gamma                90
_cell_volume                     19421.7
loop_
_atom_site_label
_atom_site_type_symbol
_atom_site_fract_x
_atom_site_fract_y
_atom_site_fract_z
Zr9 Zr -0.0000 -0.0000 0.09283(18)
Zr9_2 Zr -0.0000 1.0000 0.09283(18)
Zr12 Zr 0.09283(18) 0.0000 0.0000
Zr1 Zr 0.40717(18) 0.0000 0.5000
O1 O 0.3675(4) -0.0000 0.4276(4)
O2 O 0.4560(6) 0.0440(6) 0.5440(6)
C1 C 0.3821(4) -0.0000 0.3821(4)
C2 C 0.3437(4) -0.0000 0.3437(4)
C3 C 0.3560(5) 0.0000 0.2940(5)
H1 H 0.3893 -0.0000 0.2845
C4 C 0.3179(6) -0.0000 0.2571(5)
C5 C 0.2692(4) -0.0000 0.2692(4)
H2 H 0.3269 -0.0000 0.2237
O3 O 0.4276(4) -0.0000 0.3675(4)
C6 C 0.2940(5) -0.0000 0.3560(5)
H3 H 0.2845 -0.0000 0.3893
C7 C 0.2571(5) 0.0000 0.3179(6)
H4 H 0.2237 -0.0000 0.3269
O4 O 0.1325(4) -0.0000 0.0724(4)
C8 C 0.1179(4) -0.0000 0.1179(4)
C9 C 0.1563(4) -0.0000 0.1563(4)
C10 C 0.1440(5) -0.0000 0.2060(5)
H5 H 0.1107 -0.0000 0.2155
C11 C 0.1821(6) -0.0000 0.2429(5)
C12 C 0.2308(4) -0.0000 0.2308(4)
H6 H 0.1731 -0.0000 0.2763
O5 O 0.0724(4) 0.0000 0.1325(4)
C13 C 0.2060(5) -0.0000 0.1440(5)
H7 H 0.2155 -0.0000 0.1107
C14 C 0.2429(5) -0.0000 0.1821(6)
H8 H 0.2763 -0.0000 0.1731
O6 O 0.3675(4) -0.0000 0.5724(4)
C15 C 0.3821(4) -0.0000 0.6179(4)
C16 C 0.3437(4) -0.0000 0.6563(4)
C17 C 0.3560(5) -0.0000 0.7060(5)
H9 H 0.3893 -0.0000 0.7155
C18 C 0.3179(6) -0.0000 0.7429(5)
C19 C 0.2692(4) -0.0000 0.7308(4)
H10 H 0.3269 -0.0000 0.7763
O8 O 0.4276(4) -0.0000 0.6325(4)
C20 C 0.2940(5) -0.0000 0.6440(5)
H11 H 0.2845 0.0000 0.6107
C21 C 0.2571(5) -0.0000 0.6821(6)
H12 H 0.2237 -0.0000 0.6731
O9 O 0.1325(4) -0.0000 0.9276(4)
C22 C 0.1179(4) -0.0000 0.8821(4)
C23 C 0.1563(4) -0.0000 0.8437(4)
C24 C 0.1440(5) -0.0000 0.7940(5)
H13 H 0.1107 -0.0000 0.7845
C25 C 0.1821(6) -0.0000 0.7571(5)
C26 C 0.2308(4) -0.0000 0.7692(4)
H14 H 0.1731 -0.0000 0.7237
O10 O 0.0724(4) -0.0000 0.8675(4)
C27 C 0.2060(5) -0.0000 0.8560(5)
H15 H 0.2155 -0.0000 0.8893
C28 C 0.2429(5) -0.0000 0.8179(6)
H16 H 0.2763 -0.0000 0.8269
Zr2 Zr 0.5000 -0.0000 0.59283(18)
O11 O 0.5440(6) 0.0440(6) 0.5440(6)
Zr3 Zr 0.5000 -0.0000 0.40717(18)
O13 O 0.5724(4) -0.0000 0.3675(4)
C29 C 0.6179(4) -0.0000 0.3821(4)
C30 C 0.6563(4) -0.0000 0.3437(4)
C31 C 0.7060(5) -0.0000 0.3560(5)
H17 H 0.7155 -0.0000 0.3893
C32 C 0.7429(5) 0.0000 0.3179(6)
C33 C 0.7308(4) -0.0000 0.2692(4)
H18 H 0.7763 -0.0000 0.3269
O14 O 0.6325(4) -0.0000 0.4276(4)
C34 C 0.6440(5) 0.0000 0.2940(5)
H19 H 0.6107 -0.0000 0.2845
C35 C 0.6821(6) -0.0000 0.2571(5)
H20 H 0.6731 -0.0000 0.2237
O15 O 0.9276(4) 0.0000 0.1325(4)
C36 C 0.8821(4) -0.0000 0.1179(4)
C37 C 0.8437(4) -0.0000 0.1563(4)
C38 C 0.7940(5) -0.0000 0.1440(5)
H21 H 0.7845 -0.0000 0.1107
C39 C 0.7571(5) -0.0000 0.1821(6)
C40 C 0.7692(4) -0.0000 0.2308(4)
H22 H 0.7237 -0.0000 0.1731
O16 O 0.8675(4) -0.0000 0.0724(4)
C41 C 0.8560(5) -0.0000 0.2060(5)
H23 H 0.8893 -0.0000 0.2155
C42 C 0.8179(6) -0.0000 0.2429(5)
H24 H 0.8269 -0.0000 0.2763
Zr4 Zr 0.59283(18) 0.0000 0.5000
Zr6 Zr 0.5000 0.09283(18) 0.5000
Zr7 Zr -0.0000 -0.0000 0.90717(18)
Zr9_3 Zr 1.0000 -0.0000 0.09283(18)
Zr10 Zr 0.90717(18) 0.0000 0.0000
Zr12_2 Zr 0.09283(18) 0.0000 1.0000
O17 O 0.5724(4) -0.0000 0.6325(4)
O19 O 0.3675(4) 0.0724(4) 0.5000
O22 O 0.5000 0.0724(4) 0.6325(4)
O23 O 0.5000 0.0724(4) 0.3675(4)
O25 O 0.5440(6) 0.0440(6) 0.4560(6)
O26 O 0.4560(6) 0.0440(6) 0.4560(6)
Zr10_2 Zr 0.90717(18) 0.0000 1.0000
Zr12_3 Zr 0.09283(18) 1.0000 0.0000
Zr1_2 Zr 0.40717(18) 1.0000 0.5000
O1_2 O 0.3675(4) 1.0000 0.4276(4)
C1_2 C 0.3821(4) 1.0000 0.3821(4)
C2_2 C 0.3437(4) 1.0000 0.3437(4)
C3_2 C 0.3560(5) 1.0000 0.2940(5)
H1_2 H 0.3893 1.0000 0.2845
C4_2 C 0.3179(6) 1.0000 0.2571(5)
C5_2 C 0.2692(4) 1.0000 0.2692(4)
H2_2 H 0.3269 1.0000 0.2237
O3_2 O 0.4276(4) 1.0000 0.3675(4)
C6_2 C 0.2940(5) 1.0000 0.3560(5)
H3_2 H 0.2845 1.0000 0.3893
C7_2 C 0.2571(5) 1.0000 0.3179(6)
H4_2 H 0.2237 1.0000 0.3269
O4_2 O 0.1325(4) 1.0000 0.0724(4)
C8_2 C 0.1179(4) 1.0000 0.1179(4)
C9_2 C 0.1563(4) 1.0000 0.1563(4)
C10_2 C 0.1440(5) 1.0000 0.2060(5)
H5_2 H 0.1107 1.0000 0.2155
C11_2 C 0.1821(6) 1.0000 0.2429(5)
C12_2 C 0.2308(4) 1.0000 0.2308(4)
H6_2 H 0.1731 1.0000 0.2763
O5_2 O 0.0724(4) 1.0000 0.1325(4)
C13_2 C 0.2060(5) 1.0000 0.1440(5)
H7_2 H 0.2155 1.0000 0.1107
C14_2 C 0.2429(5) 1.0000 0.1821(6)
H8_2 H 0.2763 1.0000 0.1731
O6_2 O 0.3675(4) 1.0000 0.5724(4)
O7 O 0.4560(6) 0.9560(6) 0.4560(6)
C15_2 C 0.3821(4) 1.0000 0.6179(4)
C16_2 C 0.3437(4) 1.0000 0.6563(4)
C17_2 C 0.3560(5) 1.0000 0.7060(5)
H9_2 H 0.3893 1.0000 0.7155
C18_2 C 0.3179(6) 1.0000 0.7429(5)
C19_2 C 0.2692(4) 1.0000 0.7308(4)
H10_2 H 0.3269 1.0000 0.7763
O8_2 O 0.4276(4) 1.0000 0.6325(4)
C20_2 C 0.2940(5) 1.0000 0.6440(5)
H11_2 H 0.2845 1.0000 0.6107
C21_2 C 0.2571(5) 1.0000 0.6821(6)
H12_2 H 0.2237 1.0000 0.6731
O9_2 O 0.1325(4) 1.0000 0.9276(4)
C22_2 C 0.1179(4) 1.0000 0.8821(4)
C23_2 C 0.1563(4) 1.0000 0.8437(4)
C24_2 C 0.1440(5) 1.0000 0.7940(5)
H13_2 H 0.1107 1.0000 0.7845
C25_2 C 0.1821(6) 1.0000 0.7571(5)
C26_2 C 0.2308(4) 1.0000 0.7692(4)
H14_2 H 0.1731 1.0000 0.7237
O10_2 O 0.0724(4) 1.0000 0.8675(4)
C27_2 C 0.2060(5) 1.0000 0.8560(5)
H15_2 H 0.2155 1.0000 0.8893
C28_2 C 0.2429(5) 1.0000 0.8179(6)
H16_2 H 0.2763 1.0000 0.8269
Zr2_2 Zr 0.5000 1.0000 0.59283(18)
Zr3_2 Zr 0.5000 1.0000 0.40717(18)
O12 O 0.5440(6) 0.9560(6) 0.4560(6)
O13_2 O 0.5724(4) 1.0000 0.3675(4)
C29_2 C 0.6179(4) 1.0000 0.3821(4)
C30_2 C 0.6563(4) 1.0000 0.3437(4)
C31_2 C 0.7060(5) 1.0000 0.3560(5)
H17_2 H 0.7155 1.0000 0.3893
C32_2 C 0.7429(5) 1.0000 0.3179(6)
C33_2 C 0.7308(4) 1.0000 0.2692(4)
H18_2 H 0.7763 1.0000 0.3269
O14_2 O 0.6325(4) 1.0000 0.4276(4)
C34_2 C 0.6440(5) 1.0000 0.2940(5)
H19_2 H 0.6107 1.0000 0.2845
C35_2 C 0.6821(6) 1.0000 0.2571(5)
H20_2 H 0.6731 1.0000 0.2237
O15_2 O 0.9276(4) 1.0000 0.1325(4)
C36_2 C 0.8821(4) 1.0000 0.1179(4)
C37_2 C 0.8437(4) 1.0000 0.1563(4)
C38_2 C 0.7940(5) 1.0000 0.1440(5)
H21_2 H 0.7845 1.0000 0.1107
C39_2 C 0.7571(5) 1.0000 0.1821(6)
C40_2 C 0.7692(4) 1.0000 0.2308(4)
H22_2 H 0.7237 1.0000 0.1731
O16_2 O 0.8675(4) 1.0000 0.0724(4)
C41_2 C 0.8560(5) 1.0000 0.2060(5)
H23_2 H 0.8893 1.0000 0.2155
C42_2 C 0.8179(6) 1.0000 0.2429(5)
H24_2 H 0.8269 1.0000 0.2763
Zr4_2 Zr 0.59283(18) 1.0000 0.5000
Zr5 Zr 0.5000 0.90717(18) 0.5000
Zr7_2 Zr -0.0000 1.0000 0.90717(18)
Zr9_4 Zr 1.0000 1.0000 0.09283(18)
Zr10_3 Zr 0.90717(18) 1.0000 0.0000
Zr12_4 Zr 0.09283(18) 1.0000 1.0000
O17_2 O 0.5724(4) 1.0000 0.6325(4)
O18 O 0.3675(4) 0.9276(4) 0.5000
O20 O 0.5000 0.9276(4) 0.3675(4)
O21 O 0.5000 0.9276(4) 0.6325(4)
O24 O 0.5440(6) 0.9560(6) 0.5440(6)
O27 O 0.4560(6) 0.9560(6) 0.5440(6)
Zr10_4 Zr 0.90717(18) 1.0000 1.0000
Zr7_3 Zr 1.0000 -0.0000 0.90717(18)
Zr7_4 Zr 1.0000 1.0000 0.90717(18)
O6_3 O 0.6325(4) 0.0000 0.5724(4)
C15_3 C 0.6179(4) -0.0000 0.6179(4)
C16_3 C 0.6563(4) 0.0000 0.6563(4)
C17_3 C 0.6440(5) -0.0000 0.7060(5)
H9_3 H 0.6107 0.0000 0.7155
C18_3 C 0.6821(6) 0.0000 0.7429(5)
C19_3 C 0.7308(4) 0.0000 0.7308(4)
H10_3 H 0.6731 0.0000 0.7763
C20_3 C 0.7060(5) 0.0000 0.6440(5)
H11_3 H 0.7155 0.0000 0.6107
C21_3 C 0.7429(5) 0.0000 0.6821(6)
H12_3 H 0.7763 0.0000 0.6731
O9_3 O 0.8675(4) 0.0000 0.9276(4)
C22_3 C 0.8821(4) 0.0000 0.8821(4)
C23_3 C 0.8437(4) 0.0000 0.8437(4)
C24_3 C 0.8560(5) 0.0000 0.7940(5)
H13_3 H 0.8893 0.0000 0.7845
C25_3 C 0.8179(6) 0.0000 0.7571(5)
C26_3 C 0.7692(4) -0.0000 0.7692(4)
H14_3 H 0.8269 0.0000 0.7237
O10_3 O 0.9276(4) 0.0000 0.8675(4)
C27_3 C 0.7940(5) -0.0000 0.8560(5)
H15_3 H 0.7845 0.0000 0.8893
C28_3 C 0.7571(5) -0.0000 0.8179(6)
H16_3 H 0.7237 0.0000 0.8269
O18_2 O 0.6325(4) 0.0724(4) 0.5000
O6_4 O 0.6325(4) 1.0000 0.5724(4)
C15_4 C 0.6179(4) 1.0000 0.6179(4)
C16_4 C 0.6563(4) 1.0000 0.6563(4)
C17_4 C 0.6440(5) 1.0000 0.7060(5)
H9_4 H 0.6107 1.0000 0.7155
C18_4 C 0.6821(6) 1.0000 0.7429(5)
C19_4 C 0.7308(4) 1.0000 0.7308(4)
H10_4 H 0.6731 1.0000 0.7763
C20_4 C 0.7060(5) 1.0000 0.6440(5)
H11_4 H 0.7155 1.0000 0.6107
C21_4 C 0.7429(5) 1.0000 0.6821(6)
H12_4 H 0.7763 1.0000 0.6731
O9_4 O 0.8675(4) 1.0000 0.9276(4)
C22_4 C 0.8821(4) 1.0000 0.8821(4)
C23_4 C 0.8437(4) 1.0000 0.8437(4)
C24_4 C 0.8560(5) 1.0000 0.7940(5)
H13_4 H 0.8893 1.0000 0.7845
C25_4 C 0.8179(6) 1.0000 0.7571(5)
C26_4 C 0.7692(4) 1.0000 0.7692(4)
H14_4 H 0.8269 1.0000 0.7237
O10_4 O 0.9276(4) 1.0000 0.8675(4)
C27_4 C 0.7940(5) 1.0000 0.8560(5)
H15_4 H 0.7845 1.0000 0.8893
C28_4 C 0.7571(5) 1.0000 0.8179(6)
H16_4 H 0.7237 1.0000 0.8269
O19_2 O 0.6325(4) 0.9276(4) 0.5000
Zr12_5 Zr -0.0000 0.09283(18) 0.0000
Zr12_6 Zr -0.0000 0.09283(18) 1.0000
Zr1_3 Zr 0.5000 0.40717(18) 0.0000
O1_3 O 0.4276(4) 0.3675(4) -0.0000
O2_2 O 0.5440(6) 0.4560(6) 0.0440(6)
C1_3 C 0.3821(4) 0.3821(4) -0.0000
C2_3 C 0.3437(4) 0.3437(4) -0.0000
C3_3 C 0.2940(5) 0.3560(5) 0.0000
H1_3 H 0.2845 0.3893 -0.0000
C4_3 C 0.2571(5) 0.3179(6) -0.0000
C5_3 C 0.2692(4) 0.2692(4) -0.0000
H2_3 H 0.2237 0.3269 -0.0000
O3_3 O 0.3675(4) 0.4276(4) -0.0000
C6_3 C 0.3560(5) 0.2940(5) -0.0000
H3_3 H 0.3893 0.2845 -0.0000
C7_3 C 0.3179(6) 0.2571(5) 0.0000
H4_3 H 0.3269 0.2237 -0.0000
O4_3 O 0.0724(4) 0.1325(4) -0.0000
C8_3 C 0.1179(4) 0.1179(4) -0.0000
C9_3 C 0.1563(4) 0.1563(4) -0.0000
C10_3 C 0.2060(5) 0.1440(5) -0.0000
H5_3 H 0.2155 0.1107 -0.0000
C11_3 C 0.2429(5) 0.1821(6) -0.0000
C12_3 C 0.2308(4) 0.2308(4) 0.0000
H6_3 H 0.2763 0.1731 -0.0000
O5_3 O 0.1325(4) 0.0724(4) 0.0000
C13_3 C 0.1440(5) 0.2060(5) 0.0000
H7_3 H 0.1107 0.2155 -0.0000
C14_3 C 0.1821(6) 0.2429(5) -0.0000
H8_3 H 0.1731 0.2763 -0.0000
O6_5 O 0.5724(4) 0.3675(4) -0.0000
C15_5 C 0.6179(4) 0.3821(4) 0.0000
C16_5 C 0.6563(4) 0.3437(4) -0.0000
C17_5 C 0.7060(5) 0.3560(5) 0.0000
H9_5 H 0.7155 0.3893 -0.0000
C18_5 C 0.7429(5) 0.3179(6) -0.0000
C19_5 C 0.7308(4) 0.2692(4) -0.0000
H10_5 H 0.7763 0.3269 -0.0000
O8_3 O 0.6325(4) 0.4276(4) 0.0000
C20_5 C 0.6440(5) 0.2940(5) -0.0000
H11_5 H 0.6107 0.2845 0.0000
C21_5 C 0.6821(6) 0.2571(5) -0.0000
H12_5 H 0.6731 0.2237 -0.0000
O9_5 O 0.9276(4) 0.1325(4) -0.0000
C22_5 C 0.8821(4) 0.1179(4) -0.0000
C23_5 C 0.8437(4) 0.1563(4) -0.0000
C24_5 C 0.7940(5) 0.1440(5) -0.0000
H13_5 H 0.7845 0.1107 -0.0000
C25_5 C 0.7571(5) 0.1821(6) -0.0000
C26_5 C 0.7692(4) 0.2308(4) -0.0000
H14_5 H 0.7237 0.1731 -0.0000
O10_5 O 0.8675(4) 0.0724(4) -0.0000
C27_5 C 0.8560(5) 0.2060(5) -0.0000
H15_5 H 0.8893 0.2155 -0.0000
C28_5 C 0.8179(6) 0.2429(5) -0.0000
H16_5 H 0.8269 0.2763 -0.0000
Zr2_3 Zr 0.59283(18) 0.5000 -0.0000
O11_2 O 0.5440(6) 0.5440(6) 0.0440(6)
Zr3_3 Zr 0.40717(18) 0.5000 -0.0000
O13_3 O 0.3675(4) 0.5724(4) -0.0000
C29_3 C 0.3821(4) 0.6179(4) -0.0000
C30_3 C 0.3437(4) 0.6563(4) -0.0000
C31_3 C 0.3560(5) 0.7060(5) -0.0000
H17_3 H 0.3893 0.7155 -0.0000
C32_3 C 0.3179(6) 0.7429(5) 0.0000
C33_3 C 0.2692(4) 0.7308(4) -0.0000
H18_3 H 0.3269 0.7763 -0.0000
O14_3 O 0.4276(4) 0.6325(4) -0.0000
C34_3 C 0.2940(5) 0.6440(5) 0.0000
H19_3 H 0.2845 0.6107 -0.0000
C35_3 C 0.2571(5) 0.6821(6) -0.0000
H20_3 H 0.2237 0.6731 -0.0000
O15_3 O 0.1325(4) 0.9276(4) 0.0000
C36_3 C 0.1179(4) 0.8821(4) -0.0000
C37_3 C 0.1563(4) 0.8437(4) -0.0000
C38_3 C 0.1440(5) 0.7940(5) 0.0000
H21_3 H 0.1107 0.7845 -0.0000
C39_3 C 0.1821(6) 0.7571(5) -0.0000
C40_3 C 0.2308(4) 0.7692(4) 0.0000
H22_3 H 0.1731 0.7237 -0.0000
O16_3 O 0.0724(4) 0.8675(4) -0.0000
C41_3 C 0.2060(5) 0.8560(5) -0.0000
H23_3 H 0.2155 0.8893 -0.0000
C42_3 C 0.2429(5) 0.8179(6) -0.0000
H24_3 H 0.2763 0.8269 -0.0000
Zr4_3 Zr 0.5000 0.59283(18) 0.0000
Zr6_2 Zr 0.5000 0.5000 0.09283(18)
Zr10_5 Zr -0.0000 0.90717(18) 0.0000
Zr12_7 Zr 1.0000 0.09283(18) 0.0000
O17_3 O 0.6325(4) 0.5724(4) 0.0000
O19_3 O 0.5000 0.3675(4) 0.0724(4)
O22_2 O 0.6325(4) 0.5000 0.0724(4)
O23_2 O 0.3675(4) 0.5000 0.0724(4)
O25_2 O 0.4560(6) 0.5440(6) 0.0440(6)
O26_2 O 0.4560(6) 0.4560(6) 0.0440(6)
Zr1_4 Zr 0.5000 0.40717(18) 1.0000
O1_4 O 0.4276(4) 0.3675(4) 1.0000
C1_4 C 0.3821(4) 0.3821(4) 1.0000
C2_4 C 0.3437(4) 0.3437(4) 1.0000
C3_4 C 0.2940(5) 0.3560(5) 1.0000
H1_4 H 0.2845 0.3893 1.0000
C4_4 C 0.2571(5) 0.3179(6) 1.0000
C5_4 C 0.2692(4) 0.2692(4) 1.0000
H2_4 H 0.2237 0.3269 1.0000
O3_4 O 0.3675(4) 0.4276(4) 1.0000
C6_4 C 0.3560(5) 0.2940(5) 1.0000
H3_4 H 0.3893 0.2845 1.0000
C7_4 C 0.3179(6) 0.2571(5) 1.0000
H4_4 H 0.3269 0.2237 1.0000
O4_4 O 0.0724(4) 0.1325(4) 1.0000
C8_4 C 0.1179(4) 0.1179(4) 1.0000
C9_4 C 0.1563(4) 0.1563(4) 1.0000
C10_4 C 0.2060(5) 0.1440(5) 1.0000
H5_4 H 0.2155 0.1107 1.0000
C11_4 C 0.2429(5) 0.1821(6) 1.0000
C12_4 C 0.2308(4) 0.2308(4) 1.0000
H6_4 H 0.2763 0.1731 1.0000
O5_4 O 0.1325(4) 0.0724(4) 1.0000
C13_4 C 0.1440(5) 0.2060(5) 1.0000
H7_4 H 0.1107 0.2155 1.0000
C14_4 C 0.1821(6) 0.2429(5) 1.0000
H8_4 H 0.1731 0.2763 1.0000
O6_6 O 0.5724(4) 0.3675(4) 1.0000
O7_2 O 0.4560(6) 0.4560(6) 0.9560(6)
C15_6 C 0.6179(4) 0.3821(4) 1.0000
C16_6 C 0.6563(4) 0.3437(4) 1.0000
C17_6 C 0.7060(5) 0.3560(5) 1.0000
H9_6 H 0.7155 0.3893 1.0000
C18_6 C 0.7429(5) 0.3179(6) 1.0000
C19_6 C 0.7308(4) 0.2692(4) 1.0000
H10_6 H 0.7763 0.3269 1.0000
O8_4 O 0.6325(4) 0.4276(4) 1.0000
C20_6 C 0.6440(5) 0.2940(5) 1.0000
H11_6 H 0.6107 0.2845 1.0000
C21_6 C 0.6821(6) 0.2571(5) 1.0000
H12_6 H 0.6731 0.2237 1.0000
O9_6 O 0.9276(4) 0.1325(4) 1.0000
C22_6 C 0.8821(4) 0.1179(4) 1.0000
C23_6 C 0.8437(4) 0.1563(4) 1.0000
C24_6 C 0.7940(5) 0.1440(5) 1.0000
H13_6 H 0.7845 0.1107 1.0000
C25_6 C 0.7571(5) 0.1821(6) 1.0000
C26_6 C 0.7692(4) 0.2308(4) 1.0000
H14_6 H 0.7237 0.1731 1.0000
O10_6 O 0.8675(4) 0.0724(4) 1.0000
C27_6 C 0.8560(5) 0.2060(5) 1.0000
H15_6 H 0.8893 0.2155 1.0000
C28_6 C 0.8179(6) 0.2429(5) 1.0000
H16_6 H 0.8269 0.2763 1.0000
Zr2_4 Zr 0.59283(18) 0.5000 1.0000
Zr3_4 Zr 0.40717(18) 0.5000 1.0000
O12_2 O 0.4560(6) 0.5440(6) 0.9560(6)
O13_4 O 0.3675(4) 0.5724(4) 1.0000
C29_4 C 0.3821(4) 0.6179(4) 1.0000
C30_4 C 0.3437(4) 0.6563(4) 1.0000
C31_4 C 0.3560(5) 0.7060(5) 1.0000
H17_4 H 0.3893 0.7155 1.0000
C32_4 C 0.3179(6) 0.7429(5) 1.0000
C33_4 C 0.2692(4) 0.7308(4) 1.0000
H18_4 H 0.3269 0.7763 1.0000
O14_4 O 0.4276(4) 0.6325(4) 1.0000
C34_4 C 0.2940(5) 0.6440(5) 1.0000
H19_4 H 0.2845 0.6107 1.0000
C35_4 C 0.2571(5) 0.6821(6) 1.0000
H20_4 H 0.2237 0.6731 1.0000
O15_4 O 0.1325(4) 0.9276(4) 1.0000
C36_4 C 0.1179(4) 0.8821(4) 1.0000
C37_4 C 0.1563(4) 0.8437(4) 1.0000
C38_4 C 0.1440(5) 0.7940(5) 1.0000
H21_4 H 0.1107 0.7845 1.0000
C39_4 C 0.1821(6) 0.7571(5) 1.0000
C40_4 C 0.2308(4) 0.7692(4) 1.0000
H22_4 H 0.1731 0.7237 1.0000
O16_4 O 0.0724(4) 0.8675(4) 1.0000
C41_4 C 0.2060(5) 0.8560(5) 1.0000
H23_4 H 0.2155 0.8893 1.0000
C42_4 C 0.2429(5) 0.8179(6) 1.0000
H24_4 H 0.2763 0.8269 1.0000
Zr4_4 Zr 0.5000 0.59283(18) 1.0000
Zr5_2 Zr 0.5000 0.5000 0.90717(18)
Zr10_6 Zr -0.0000 0.90717(18) 1.0000
Zr12_8 Zr 1.0000 0.09283(18) 1.0000
O17_4 O 0.6325(4) 0.5724(4) 1.0000
O18_3 O 0.5000 0.3675(4) 0.9276(4)
O20_2 O 0.3675(4) 0.5000 0.9276(4)
O21_2 O 0.6325(4) 0.5000 0.9276(4)
O24_2 O 0.5440(6) 0.5440(6) 0.9560(6)
O27_2 O 0.5440(6) 0.4560(6) 0.9560(6)
Zr10_7 Zr 1.0000 0.90717(18) 0.0000
Zr10_8 Zr 1.0000 0.90717(18) 1.0000
O6_7 O 0.5724(4) 0.6325(4) 0.0000
C15_7 C 0.6179(4) 0.6179(4) 0.0000
C16_7 C 0.6563(4) 0.6563(4) 0.0000
C17_7 C 0.7060(5) 0.6440(5) 0.0000
H9_7 H 0.7155 0.6107 0.0000
C18_7 C 0.7429(5) 0.6821(6) 0.0000
C19_7 C 0.7308(4) 0.7308(4) 0.0000
H10_7 H 0.7763 0.6731 0.0000
C20_7 C 0.6440(5) 0.7060(5) 0.0000
H11_7 H 0.6107 0.7155 0.0000
C21_7 C 0.6821(6) 0.7429(5) 0.0000
H12_7 H 0.6731 0.7763 0.0000
O9_7 O 0.9276(4) 0.8675(4) 0.0000
C22_7 C 0.8821(4) 0.8821(4) 0.0000
C23_7 C 0.8437(4) 0.8437(4) 0.0000
C24_7 C 0.7940(5) 0.8560(5) 0.0000
H13_7 H 0.7845 0.8893 0.0000
C25_7 C 0.7571(5) 0.8179(6) 0.0000
C26_7 C 0.7692(4) 0.7692(4) 0.0000
H14_7 H 0.7237 0.8269 0.0000
O10_7 O 0.8675(4) 0.9276(4) 0.0000
C27_7 C 0.8560(5) 0.7940(5) 0.0000
H15_7 H 0.8893 0.7845 0.0000
C28_7 C 0.8179(6) 0.7571(5) 0.0000
H16_7 H 0.8269 0.7237 0.0000
O18_4 O 0.5000 0.6325(4) 0.0724(4)
O6_8 O 0.5724(4) 0.6325(4) 1.0000
C15_8 C 0.6179(4) 0.6179(4) 1.0000
C16_8 C 0.6563(4) 0.6563(4) 1.0000
C17_8 C 0.7060(5) 0.6440(5) 1.0000
H9_8 H 0.7155 0.6107 1.0000
C18_8 C 0.7429(5) 0.6821(6) 1.0000
C19_8 C 0.7308(4) 0.7308(4) 1.0000
H10_8 H 0.7763 0.6731 1.0000
C20_8 C 0.6440(5) 0.7060(5) 1.0000
H11_8 H 0.6107 0.7155 1.0000
C21_8 C 0.6821(6) 0.7429(5) 1.0000
H12_8 H 0.6731 0.7763 1.0000
O9_8 O 0.9276(4) 0.8675(4) 1.0000
C22_8 C 0.8821(4) 0.8821(4) 1.0000
C23_8 C 0.8437(4) 0.8437(4) 1.0000
C24_8 C 0.7940(5) 0.8560(5) 1.0000
H13_8 H 0.7845 0.8893 1.0000
C25_8 C 0.7571(5) 0.8179(6) 1.0000
C26_8 C 0.7692(4) 0.7692(4) 1.0000
H14_8 H 0.7237 0.8269 1.0000
O10_8 O 0.8675(4) 0.9276(4) 1.0000
C27_8 C 0.8560(5) 0.7940(5) 1.0000
H15_8 H 0.8893 0.7845 1.0000
C28_8 C 0.8179(6) 0.7571(5) 1.0000
H16_8 H 0.8269 0.7237 1.0000
O19_4 O 0.5000 0.6325(4) 0.9276(4)
Zr1_5 Zr -0.0000 0.5000 0.40717(18)
O1_5 O -0.0000 0.4276(4) 0.3675(4)
O2_3 O 0.0440(6) 0.5440(6) 0.4560(6)
C1_5 C 0.0000 0.3821(4) 0.3821(4)
C2_5 C -0.0000 0.3437(4) 0.3437(4)
C3_5 C -0.0000 0.2940(5) 0.3560(5)
H1_5 H -0.0000 0.2845 0.3893
C4_5 C -0.0000 0.2571(5) 0.3179(6)
C5_5 C -0.0000 0.2692(4) 0.2692(4)
H2_5 H -0.0000 0.2237 0.3269
O3_5 O -0.0000 0.3675(4) 0.4276(4)
C6_5 C -0.0000 0.3560(5) 0.2940(5)
H3_5 H -0.0000 0.3893 0.2845
C7_5 C 0.0000 0.3179(6) 0.2571(5)
H4_5 H -0.0000 0.3269 0.2237
O4_5 O -0.0000 0.0724(4) 0.1325(4)
C8_5 C -0.0000 0.1179(4) 0.1179(4)
C9_5 C -0.0000 0.1563(4) 0.1563(4)
C10_5 C -0.0000 0.2060(5) 0.1440(5)
H5_5 H -0.0000 0.2155 0.1107
C11_5 C -0.0000 0.2429(5) 0.1821(6)
C12_5 C -0.0000 0.2308(4) 0.2308(4)
H6_5 H -0.0000 0.2763 0.1731
O5_5 O -0.0000 0.1325(4) 0.0724(4)
C13_5 C -0.0000 0.1440(5) 0.2060(5)
H7_5 H -0.0000 0.1107 0.2155
C14_5 C -0.0000 0.1821(6) 0.2429(5)
H8_5 H -0.0000 0.1731 0.2763
O6_9 O -0.0000 0.5724(4) 0.3675(4)
C15_9 C 0.0000 0.6179(4) 0.3821(4)
C16_9 C -0.0000 0.6563(4) 0.3437(4)
C17_9 C -0.0000 0.7060(5) 0.3560(5)
H9_9 H -0.0000 0.7155 0.3893
C18_9 C -0.0000 0.7429(5) 0.3179(6)
C19_9 C -0.0000 0.7308(4) 0.2692(4)
H10_9 H -0.0000 0.7763 0.3269
O8_5 O -0.0000 0.6325(4) 0.4276(4)
C20_9 C -0.0000 0.6440(5) 0.2940(5)
H11_9 H -0.0000 0.6107 0.2845
C21_9 C -0.0000 0.6821(6) 0.2571(5)
H12_9 H -0.0000 0.6731 0.2237
O9_9 O -0.0000 0.9276(4) 0.1325(4)
C22_9 C -0.0000 0.8821(4) 0.1179(4)
C23_9 C -0.0000 0.8437(4) 0.1563(4)
C24_9 C -0.0000 0.7940(5) 0.1440(5)
H13_9 H -0.0000 0.7845 0.1107
C25_9 C -0.0000 0.7571(5) 0.1821(6)
C26_9 C -0.0000 0.7692(4) 0.2308(4)
H14_9 H -0.0000 0.7237 0.1731
O10_9 O -0.0000 0.8675(4) 0.0724(4)
C27_9 C -0.0000 0.8560(5) 0.2060(5)
H15_9 H -0.0000 0.8893 0.2155
C28_9 C -0.0000 0.8179(6) 0.2429(5)
H16_9 H -0.0000 0.8269 0.2763
Zr2_5 Zr -0.0000 0.59283(18) 0.5000
O11_3 O 0.0440(6) 0.5440(6) 0.5440(6)
Zr3_5 Zr -0.0000 0.40717(18) 0.5000
O13_5 O -0.0000 0.3675(4) 0.5724(4)
C29_5 C -0.0000 0.3821(4) 0.6179(4)
C30_5 C -0.0000 0.3437(4) 0.6563(4)
C31_5 C -0.0000 0.3560(5) 0.7060(5)
H17_5 H -0.0000 0.3893 0.7155
C32_5 C -0.0000 0.3179(6) 0.7429(5)
C33_5 C -0.0000 0.2692(4) 0.7308(4)
H18_5 H -0.0000 0.3269 0.7763
O14_5 O -0.0000 0.4276(4) 0.6325(4)
C34_5 C -0.0000 0.2940(5) 0.6440(5)
H19_5 H -0.0000 0.2845 0.6107
C35_5 C -0.0000 0.2571(5) 0.6821(6)
H20_5 H -0.0000 0.2237 0.6731
O15_5 O -0.0000 0.1325(4) 0.9276(4)
C36_5 C -0.0000 0.1179(4) 0.8821(4)
C37_5 C -0.0000 0.1563(4) 0.8437(4)
C38_5 C -0.0000 0.1440(5) 0.7940(5)
H21_5 H -0.0000 0.1107 0.7845
C39_5 C -0.0000 0.1821(6) 0.7571(5)
C40_5 C -0.0000 0.2308(4) 0.7692(4)
H22_5 H -0.0000 0.1731 0.7237
O16_5 O -0.0000 0.0724(4) 0.8675(4)
C41_5 C -0.0000 0.2060(5) 0.8560(5)
H23_5 H -0.0000 0.2155 0.8893
C42_5 C -0.0000 0.2429(5) 0.8179(6)
H24_5 H -0.0000 0.2763 0.8269
Zr4_5 Zr -0.0000 0.5000 0.59283(18)
Zr6_3 Zr 0.09283(18) 0.5000 0.5000
O17_5 O -0.0000 0.6325(4) 0.5724(4)
O19_5 O 0.0724(4) 0.5000 0.3675(4)
O22_3 O 0.0724(4) 0.6325(4) 0.5000
O23_3 O 0.0724(4) 0.3675(4) 0.5000
O25_3 O 0.0440(6) 0.4560(6) 0.5440(6)
O26_3 O 0.0440(6) 0.4560(6) 0.4560(6)
Zr1_6 Zr 1.0000 0.5000 0.40717(18)
O1_6 O 1.0000 0.4276(4) 0.3675(4)
C1_6 C 1.0000 0.3821(4) 0.3821(4)
C2_6 C 1.0000 0.3437(4) 0.3437(4)
C3_6 C 1.0000 0.2940(5) 0.3560(5)
H1_6 H 1.0000 0.2845 0.3893
C4_6 C 1.0000 0.2571(5) 0.3179(6)
C5_6 C 1.0000 0.2692(4) 0.2692(4)
H2_6 H 1.0000 0.2237 0.3269
O3_6 O 1.0000 0.3675(4) 0.4276(4)
C6_6 C 1.0000 0.3560(5) 0.2940(5)
H3_6 H 1.0000 0.3893 0.2845
C7_6 C 1.0000 0.3179(6) 0.2571(5)
H4_6 H 1.0000 0.3269 0.2237
O4_6 O 1.0000 0.0724(4) 0.1325(4)
C8_6 C 1.0000 0.1179(4) 0.1179(4)
C9_6 C 1.0000 0.1563(4) 0.1563(4)
C10_6 C 1.0000 0.2060(5) 0.1440(5)
H5_6 H 1.0000 0.2155 0.1107
C11_6 C 1.0000 0.2429(5) 0.1821(6)
C12_6 C 1.0000 0.2308(4) 0.2308(4)
H6_6 H 1.0000 0.2763 0.1731
O5_6 O 1.0000 0.1325(4) 0.0724(4)
C13_6 C 1.0000 0.1440(5) 0.2060(5)
H7_6 H 1.0000 0.1107 0.2155
C14_6 C 1.0000 0.1821(6) 0.2429(5)
H8_6 H 1.0000 0.1731 0.2763
O6_10 O 1.0000 0.5724(4) 0.3675(4)
O7_3 O 0.9560(6) 0.4560(6) 0.4560(6)
C15_10 C 1.0000 0.6179(4) 0.3821(4)
C16_10 C 1.0000 0.6563(4) 0.3437(4)
C17_10 C 1.0000 0.7060(5) 0.3560(5)
H9_10 H 1.0000 0.7155 0.3893
C18_10 C 1.0000 0.7429(5) 0.3179(6)
C19_10 C 1.0000 0.7308(4) 0.2692(4)
H10_10 H 1.0000 0.7763 0.3269
O8_6 O 1.0000 0.6325(4) 0.4276(4)
C20_10 C 1.0000 0.6440(5) 0.2940(5)
H11_10 H 1.0000 0.6107 0.2845
C21_10 C 1.0000 0.6821(6) 0.2571(5)
H12_10 H 1.0000 0.6731 0.2237
O9_10 O 1.0000 0.9276(4) 0.1325(4)
C22_10 C 1.0000 0.8821(4) 0.1179(4)
C23_10 C 1.0000 0.8437(4) 0.1563(4)
C24_10 C 1.0000 0.7940(5) 0.1440(5)
H13_10 H 1.0000 0.7845 0.1107
C25_10 C 1.0000 0.7571(5) 0.1821(6)
C26_10 C 1.0000 0.7692(4) 0.2308(4)
H14_10 H 1.0000 0.7237 0.1731
O10_10 O 1.0000 0.8675(4) 0.0724(4)
C27_10 C 1.0000 0.8560(5) 0.2060(5)
H15_10 H 1.0000 0.8893 0.2155
C28_10 C 1.0000 0.8179(6) 0.2429(5)
H16_10 H 1.0000 0.8269 0.2763
Zr2_6 Zr 1.0000 0.59283(18) 0.5000
Zr3_6 Zr 1.0000 0.40717(18) 0.5000
O12_3 O 0.9560(6) 0.4560(6) 0.5440(6)
O13_6 O 1.0000 0.3675(4) 0.5724(4)
C29_6 C 1.0000 0.3821(4) 0.6179(4)
C30_6 C 1.0000 0.3437(4) 0.6563(4)
C31_6 C 1.0000 0.3560(5) 0.7060(5)
H17_6 H 1.0000 0.3893 0.7155
C32_6 C 1.0000 0.3179(6) 0.7429(5)
C33_6 C 1.0000 0.2692(4) 0.7308(4)
H18_6 H 1.0000 0.3269 0.7763
O14_6 O 1.0000 0.4276(4) 0.6325(4)
C34_6 C 1.0000 0.2940(5) 0.6440(5)
H19_6 H 1.0000 0.2845 0.6107
C35_6 C 1.0000 0.2571(5) 0.6821(6)
H20_6 H 1.0000 0.2237 0.6731
O15_6 O 1.0000 0.1325(4) 0.9276(4)
C36_6 C 1.0000 0.1179(4) 0.8821(4)
C37_6 C 1.0000 0.1563(4) 0.8437(4)
C38_6 C 1.0000 0.1440(5) 0.7940(5)
H21_6 H 1.0000 0.1107 0.7845
C39_6 C 1.0000 0.1821(6) 0.7571(5)
C40_6 C 1.0000 0.2308(4) 0.7692(4)
H22_6 H 1.0000 0.1731 0.7237
O16_6 O 1.0000 0.0724(4) 0.8675(4)
C41_6 C 1.0000 0.2060(5) 0.8560(5)
H23_6 H 1.0000 0.2155 0.8893
C42_6 C 1.0000 0.2429(5) 0.8179(6)
H24_6 H 1.0000 0.2763 0.8269
Zr4_6 Zr 1.0000 0.5000 0.59283(18)
Zr5_3 Zr 0.90717(18) 0.5000 0.5000
O17_6 O 1.0000 0.6325(4) 0.5724(4)
O18_5 O 0.9276(4) 0.5000 0.3675(4)
O20_3 O 0.9276(4) 0.3675(4) 0.5000
O21_3 O 0.9276(4) 0.6325(4) 0.5000
O24_3 O 0.9560(6) 0.5440(6) 0.5440(6)
O27_3 O 0.9560(6) 0.5440(6) 0.4560(6)
O6_11 O -0.0000 0.5724(4) 0.6325(4)
C15_11 C 0.0000 0.6179(4) 0.6179(4)
C16_11 C 0.0000 0.6563(4) 0.6563(4)
C17_11 C -0.0000 0.7060(5) 0.6440(5)
H9_11 H 0.0000 0.7155 0.6107
C18_11 C -0.0000 0.7429(5) 0.6821(6)
C19_11 C -0.0000 0.7308(4) 0.7308(4)
H10_11 H 0.0000 0.7763 0.6731
C20_11 C -0.0000 0.6440(5) 0.7060(5)
H11_11 H 0.0000 0.6107 0.7155
C21_11 C 0.0000 0.6821(6) 0.7429(5)
H12_11 H 0.0000 0.6731 0.7763
O9_11 O -0.0000 0.9276(4) 0.8675(4)
C22_11 C 0.0000 0.8821(4) 0.8821(4)
C23_11 C -0.0000 0.8437(4) 0.8437(4)
C24_11 C 0.0000 0.7940(5) 0.8560(5)
H13_11 H -0.0000 0.7845 0.8893
C25_11 C 0.0000 0.7571(5) 0.8179(6)
C26_11 C -0.0000 0.7692(4) 0.7692(4)
H14_11 H 0.0000 0.7237 0.8269
O10_11 O -0.0000 0.8675(4) 0.9276(4)
C27_11 C -0.0000 0.8560(5) 0.7940(5)
H15_11 H -0.0000 0.8893 0.7845
C28_11 C -0.0000 0.8179(6) 0.7571(5)
H16_11 H -0.0000 0.8269 0.7237
O18_6 O 0.0724(4) 0.5000 0.6325(4)
O6_12 O 1.0000 0.5724(4) 0.6325(4)
C15_12 C 1.0000 0.6179(4) 0.6179(4)
C16_12 C 1.0000 0.6563(4) 0.6563(4)
C17_12 C 1.0000 0.7060(5) 0.6440(5)
H9_12 H 1.0000 0.7155 0.6107
C18_12 C 1.0000 0.7429(5) 0.6821(6)
C19_12 C 1.0000 0.7308(4) 0.7308(4)
H10_12 H 1.0000 0.7763 0.6731
C20_12 C 1.0000 0.6440(5) 0.7060(5)
H11_12 H 1.0000 0.6107 0.7155
C21_12 C 1.0000 0.6821(6) 0.7429(5)
H12_12 H 1.0000 0.6731 0.7763
O9_12 O 1.0000 0.9276(4) 0.8675(4)
C22_12 C 1.0000 0.8821(4) 0.8821(4)
C23_12 C 1.0000 0.8437(4) 0.8437(4)
C24_12 C 1.0000 0.7940(5) 0.8560(5)
H13_12 H 1.0000 0.7845 0.8893
C25_12 C 1.0000 0.7571(5) 0.8179(6)
C26_12 C 1.0000 0.7692(4) 0.7692(4)
H14_12 H 1.0000 0.7237 0.8269
O10_12 O 1.0000 0.8675(4) 0.9276(4)
C27_12 C 1.0000 0.8560(5) 0.7940(5)
H15_12 H 1.0000 0.8893 0.7845
C28_12 C 1.0000 0.8179(6) 0.7571(5)
H16_12 H 1.0000 0.8269 0.7237
O19_6 O 0.9276(4) 0.5000 0.6325(4)
C15_13 C 0.3821(4) 0.5000 0.1179(4)
C16_13 C 0.3437(4) 0.5000 0.1563(4)
C17_13 C 0.3560(5) 0.5000 0.2060(5)
H9_13 H 0.3893 0.5000 0.2155
C18_13 C 0.3179(6) 0.5000 0.2429(5)
C19_13 C 0.2692(4) 0.5000 0.2308(4)
H10_13 H 0.3269 0.5000 0.2763
O8_7 O 0.4276(4) 0.5000 0.1325(4)
C20_13 C 0.2940(5) 0.5000 0.1440(5)
H11_13 H 0.2845 0.5000 0.1107
C21_13 C 0.2571(5) 0.5000 0.1821(6)
H12_13 H 0.2237 0.5000 0.1731
O9_13 O 0.1325(4) 0.5000 0.4276(4)
C22_13 C 0.1179(4) 0.5000 0.3821(4)
C23_13 C 0.1563(4) 0.5000 0.3437(4)
C24_13 C 0.1440(5) 0.5000 0.2940(5)
H13_13 H 0.1107 0.5000 0.2845
C25_13 C 0.1821(6) 0.5000 0.2571(5)
C26_13 C 0.2308(4) 0.5000 0.2692(4)
H14_13 H 0.1731 0.5000 0.2237
C27_13 C 0.2060(5) 0.5000 0.3560(5)
H15_13 H 0.2155 0.5000 0.3893
C28_13 C 0.2429(5) 0.5000 0.3179(6)
H16_13 H 0.2763 0.5000 0.3269
O17_7 O 0.5724(4) 0.5000 0.1325(4)
O21_4 O 0.5000 0.4276(4) 0.1325(4)
O22_4 O 0.5000 0.5724(4) 0.1325(4)
C1_7 C 0.3821(4) 0.5000 0.8821(4)
C2_7 C 0.3437(4) 0.5000 0.8437(4)
C3_7 C 0.3560(5) 0.5000 0.7940(5)
H1_7 H 0.3893 0.5000 0.7845
C4_7 C 0.3179(6) 0.5000 0.7571(5)
C5_7 C 0.2692(4) 0.5000 0.7692(4)
H2_7 H 0.3269 0.5000 0.7237
O3_7 O 0.4276(4) 0.5000 0.8675(4)
C6_7 C 0.2940(5) 0.5000 0.8560(5)
H3_7 H 0.2845 0.5000 0.8893
C7_7 C 0.2571(5) 0.5000 0.8179(6)
H4_7 H 0.2237 0.5000 0.8269
O4_7 O 0.1325(4) 0.5000 0.5724(4)
C8_7 C 0.1179(4) 0.5000 0.6179(4)
C9_7 C 0.1563(4) 0.5000 0.6563(4)
C10_7 C 0.1440(5) 0.5000 0.7060(5)
H5_7 H 0.1107 0.5000 0.7155
C11_7 C 0.1821(6) 0.5000 0.7429(5)
C12_7 C 0.2308(4) 0.5000 0.7308(4)
H6_7 H 0.1731 0.5000 0.7763
C13_7 C 0.2060(5) 0.5000 0.6440(5)
H7_7 H 0.2155 0.5000 0.6107
C14_7 C 0.2429(5) 0.5000 0.6821(6)
H8_7 H 0.2763 0.5000 0.6731
O13_7 O 0.5724(4) 0.5000 0.8675(4)
C29_7 C 0.6179(4) 0.5000 0.8821(4)
C30_7 C 0.6563(4) 0.5000 0.8437(4)
C31_7 C 0.7060(5) 0.5000 0.8560(5)
H17_7 H 0.7155 0.5000 0.8893
C32_7 C 0.7429(5) 0.5000 0.8179(6)
C33_7 C 0.7308(4) 0.5000 0.7692(4)
H18_7 H 0.7763 0.5000 0.8269
C34_7 C 0.6440(5) 0.5000 0.7940(5)
H19_7 H 0.6107 0.5000 0.7845
C35_7 C 0.6821(6) 0.5000 0.7571(5)
H20_7 H 0.6731 0.5000 0.7237
C36_7 C 0.8821(4) 0.5000 0.6179(4)
C37_7 C 0.8437(4) 0.5000 0.6563(4)
C38_7 C 0.7940(5) 0.5000 0.6440(5)
H21_7 H 0.7845 0.5000 0.6107
C39_7 C 0.7571(5) 0.5000 0.6821(6)
C40_7 C 0.7692(4) 0.5000 0.7308(4)
H22_7 H 0.7237 0.5000 0.6731
O16_7 O 0.8675(4) 0.5000 0.5724(4)
C41_7 C 0.8560(5) 0.5000 0.7060(5)
H23_7 H 0.8893 0.5000 0.7155
C42_7 C 0.8179(6) 0.5000 0.7429(5)
H24_7 H 0.8269 0.5000 0.7763
O20_4 O 0.5000 0.4276(4) 0.8675(4)
O23_4 O 0.5000 0.5724(4) 0.8675(4)
C15_14 C 0.6179(4) 0.5000 0.1179(4)
C16_14 C 0.6563(4) 0.5000 0.1563(4)
C17_14 C 0.6440(5) 0.5000 0.2060(5)
H9_14 H 0.6107 0.5000 0.2155
C18_14 C 0.6821(6) 0.5000 0.2429(5)
C19_14 C 0.7308(4) 0.5000 0.2308(4)
H10_14 H 0.6731 0.5000 0.2763
C20_14 C 0.7060(5) 0.5000 0.1440(5)
H11_14 H 0.7155 0.5000 0.1107
C21_14 C 0.7429(5) 0.5000 0.1821(6)
H12_14 H 0.7763 0.5000 0.1731
O9_14 O 0.8675(4) 0.5000 0.4276(4)
C22_14 C 0.8821(4) 0.5000 0.3821(4)
C23_14 C 0.8437(4) 0.5000 0.3437(4)
C24_14 C 0.8560(5) 0.5000 0.2940(5)
H13_14 H 0.8893 0.5000 0.2845
C25_14 C 0.8179(6) 0.5000 0.2571(5)
C26_14 C 0.7692(4) 0.5000 0.2692(4)
H14_14 H 0.8269 0.5000 0.2237
C27_14 C 0.7940(5) 0.5000 0.3560(5)
H15_14 H 0.7845 0.5000 0.3893
C28_14 C 0.7571(5) 0.5000 0.3179(6)
H16_14 H 0.7237 0.5000 0.3269
C29_8 C 0.3821(4) 0.1179(4) 0.5000
C30_8 C 0.3437(4) 0.1563(4) 0.5000
C31_8 C 0.3560(5) 0.2060(5) 0.5000
H17_8 H 0.3893 0.2155 0.5000
C32_8 C 0.3179(6) 0.2429(5) 0.5000
C33_8 C 0.2692(4) 0.2308(4) 0.5000
H18_8 H 0.3269 0.2763 0.5000
O14_7 O 0.4276(4) 0.1325(4) 0.5000
C34_8 C 0.2940(5) 0.1440(5) 0.5000
H19_8 H 0.2845 0.1107 0.5000
C35_8 C 0.2571(5) 0.1821(6) 0.5000
H20_8 H 0.2237 0.1731 0.5000
O15_7 O 0.1325(4) 0.4276(4) 0.5000
C36_8 C 0.1179(4) 0.3821(4) 0.5000
C37_8 C 0.1563(4) 0.3437(4) 0.5000
C38_8 C 0.1440(5) 0.2940(5) 0.5000
H21_8 H 0.1107 0.2845 0.5000
C39_8 C 0.1821(6) 0.2571(5) 0.5000
C40_8 C 0.2308(4) 0.2692(4) 0.5000
H22_8 H 0.1731 0.2237 0.5000
C41_8 C 0.2060(5) 0.3560(5) 0.5000
H23_8 H 0.2155 0.3893 0.5000
C42_8 C 0.2429(5) 0.3179(6) 0.5000
H24_8 H 0.2763 0.3269 0.5000
O1_7 O 0.4276(4) 0.8675(4) 0.5000
C1_8 C 0.3821(4) 0.8821(4) 0.5000
C2_8 C 0.3437(4) 0.8437(4) 0.5000
C3_8 C 0.2940(5) 0.8560(5) 0.5000
H1_8 H 0.2845 0.8893 0.5000
C4_8 C 0.2571(5) 0.8179(6) 0.5000
C5_8 C 0.2692(4) 0.7692(4) 0.5000
H2_8 H 0.2237 0.8269 0.5000
C6_8 C 0.3560(5) 0.7940(5) 0.5000
H3_8 H 0.3893 0.7845 0.5000
C7_8 C 0.3179(6) 0.7571(5) 0.5000
H4_8 H 0.3269 0.7237 0.5000
C8_8 C 0.1179(4) 0.6179(4) 0.5000
C9_8 C 0.1563(4) 0.6563(4) 0.5000
C10_8 C 0.2060(5) 0.6440(5) 0.5000
H5_8 H 0.2155 0.6107 0.5000
C11_8 C 0.2429(5) 0.6821(6) 0.5000
C12_8 C 0.2308(4) 0.7308(4) 0.5000
H6_8 H 0.2763 0.6731 0.5000
O5_7 O 0.1325(4) 0.5724(4) 0.5000
C13_8 C 0.1440(5) 0.7060(5) 0.5000
H7_8 H 0.1107 0.7155 0.5000
C14_8 C 0.1821(6) 0.7429(5) 0.5000
H8_8 H 0.1731 0.7763 0.5000
O6_13 O 0.5724(4) 0.8675(4) 0.5000
C15_15 C 0.6179(4) 0.8821(4) 0.5000
C16_15 C 0.6563(4) 0.8437(4) 0.5000
C17_15 C 0.7060(5) 0.8560(5) 0.5000
H9_15 H 0.7155 0.8893 0.5000
C18_15 C 0.7429(5) 0.8179(6) 0.5000
C19_15 C 0.7308(4) 0.7692(4) 0.5000
H10_15 H 0.7763 0.8269 0.5000
C20_15 C 0.6440(5) 0.7940(5) 0.5000
H11_15 H 0.6107 0.7845 0.5000
C21_15 C 0.6821(6) 0.7571(5) 0.5000
H12_15 H 0.6731 0.7237 0.5000
C22_15 C 0.8821(4) 0.6179(4) 0.5000
C23_15 C 0.8437(4) 0.6563(4) 0.5000
C24_15 C 0.7940(5) 0.6440(5) 0.5000
H13_15 H 0.7845 0.6107 0.5000
C25_15 C 0.7571(5) 0.6821(6) 0.5000
C26_15 C 0.7692(4) 0.7308(4) 0.5000
H14_15 H 0.7237 0.6731 0.5000
O10_13 O 0.8675(4) 0.5724(4) 0.5000
C27_15 C 0.8560(5) 0.7060(5) 0.5000
H15_15 H 0.8893 0.7155 0.5000
C28_15 C 0.8179(6) 0.7429(5) 0.5000
H16_15 H 0.8269 0.7763 0.5000
O18_7 O 0.5000 0.8675(4) 0.4276(4)
O19_7 O 0.5000 0.8675(4) 0.5724(4)
O6_14 O 0.5724(4) 0.1325(4) 0.5000
C15_16 C 0.6179(4) 0.1179(4) 0.5000
C16_16 C 0.6563(4) 0.1563(4) 0.5000
C17_16 C 0.7060(5) 0.1440(5) 0.5000
H9_16 H 0.7155 0.1107 0.5000
C18_16 C 0.7429(5) 0.1821(6) 0.5000
C19_16 C 0.7308(4) 0.2308(4) 0.5000
H10_16 H 0.7763 0.1731 0.5000
C20_16 C 0.6440(5) 0.2060(5) 0.5000
H11_16 H 0.6107 0.2155 0.5000
C21_16 C 0.6821(6) 0.2429(5) 0.5000
H12_16 H 0.6731 0.2763 0.5000
C22_16 C 0.8821(4) 0.3821(4) 0.5000
C23_16 C 0.8437(4) 0.3437(4) 0.5000
C24_16 C 0.7940(5) 0.3560(5) 0.5000
H13_16 H 0.7845 0.3893 0.5000
C25_16 C 0.7571(5) 0.3179(6) 0.5000
C26_16 C 0.7692(4) 0.2692(4) 0.5000
H14_16 H 0.7237 0.3269 0.5000
O10_14 O 0.8675(4) 0.4276(4) 0.5000
C27_16 C 0.8560(5) 0.2940(5) 0.5000
H15_16 H 0.8893 0.2845 0.5000
C28_16 C 0.8179(6) 0.2571(5) 0.5000
H16_16 H 0.8269 0.2237 0.5000
O18_8 O 0.5000 0.1325(4) 0.5724(4)
O19_8 O 0.5000 0.1325(4) 0.4276(4)
O11_4 O 0.0440(6) 0.0440(6) 0.0440(6)
O2_4 O 0.0440(6) 0.0440(6) 0.9560(6)
O25_4 O 0.0440(6) 0.9560(6) 0.0440(6)
O26_4 O 0.0440(6) 0.9560(6) 0.9560(6)
O24_4 O 0.9560(6) 0.0440(6) 0.0440(6)
O27_4 O 0.9560(6) 0.0440(6) 0.9560(6)
O12_4 O 0.9560(6) 0.9560(6) 0.0440(6)
O7_4 O 0.9560(6) 0.9560(6) 0.9560(6)
C29_9 C 0.5000 0.3821(4) 0.1179(4)
C30_9 C 0.5000 0.3437(4) 0.1563(4)
C31_9 C 0.5000 0.3560(5) 0.2060(5)
H17_9 H 0.5000 0.3893 0.2155
C32_9 C 0.5000 0.3179(6) 0.2429(5)
C33_9 C 0.5000 0.2692(4) 0.2308(4)
H18_9 H 0.5000 0.3269 0.2763
C34_9 C 0.5000 0.2940(5) 0.1440(5)
H19_9 H 0.5000 0.2845 0.1107
C35_9 C 0.5000 0.2571(5) 0.1821(6)
H20_9 H 0.5000 0.2237 0.1731
C36_9 C 0.5000 0.1179(4) 0.3821(4)
C37_9 C 0.5000 0.1563(4) 0.3437(4)
C38_9 C 0.5000 0.1440(5) 0.2940(5)
H21_9 H 0.5000 0.1107 0.2845
C39_9 C 0.5000 0.1821(6) 0.2571(5)
C40_9 C 0.5000 0.2308(4) 0.2692(4)
H22_9 H 0.5000 0.1731 0.2237
C41_9 C 0.5000 0.2060(5) 0.3560(5)
H23_9 H 0.5000 0.2155 0.3893
C42_9 C 0.5000 0.2429(5) 0.3179(6)
H24_9 H 0.5000 0.2763 0.3269
C1_9 C 0.5000 0.3821(4) 0.8821(4)
C2_9 C 0.5000 0.3437(4) 0.8437(4)
C3_9 C 0.5000 0.2940(5) 0.8560(5)
H1_9 H 0.5000 0.2845 0.8893
C4_9 C 0.5000 0.2571(5) 0.8179(6)
C5_9 C 0.5000 0.2692(4) 0.7692(4)
H2_9 H 0.5000 0.2237 0.8269
C6_9 C 0.5000 0.3560(5) 0.7940(5)
H3_9 H 0.5000 0.3893 0.7845
C7_9 C 0.5000 0.3179(6) 0.7571(5)
H4_9 H 0.5000 0.3269 0.7237
C8_9 C 0.5000 0.1179(4) 0.6179(4)
C9_9 C 0.5000 0.1563(4) 0.6563(4)
C10_9 C 0.5000 0.2060(5) 0.6440(5)
H5_9 H 0.5000 0.2155 0.6107
C11_9 C 0.5000 0.2429(5) 0.6821(6)
C12_9 C 0.5000 0.2308(4) 0.7308(4)
H6_9 H 0.5000 0.2763 0.6731
C13_9 C 0.5000 0.1440(5) 0.7060(5)
H7_9 H 0.5000 0.1107 0.7155
C14_9 C 0.5000 0.1821(6) 0.7429(5)
H8_9 H 0.5000 0.1731 0.7763
C15_17 C 0.5000 0.6179(4) 0.8821(4)
C16_17 C 0.5000 0.6563(4) 0.8437(4)
C17_17 C 0.5000 0.7060(5) 0.8560(5)
H9_17 H 0.5000 0.7155 0.8893
C18_17 C 0.5000 0.7429(5) 0.8179(6)
C19_17 C 0.5000 0.7308(4) 0.7692(4)
H10_17 H 0.5000 0.7763 0.8269
C20_17 C 0.5000 0.6440(5) 0.7940(5)
H11_17 H 0.5000 0.6107 0.7845
C21_17 C 0.5000 0.6821(6) 0.7571(5)
H12_17 H 0.5000 0.6731 0.7237
C22_17 C 0.5000 0.8821(4) 0.6179(4)
C23_17 C 0.5000 0.8437(4) 0.6563(4)
C24_17 C 0.5000 0.7940(5) 0.6440(5)
H13_17 H 0.5000 0.7845 0.6107
C25_17 C 0.5000 0.7571(5) 0.6821(6)
C26_17 C 0.5000 0.7692(4) 0.7308(4)
H14_17 H 0.5000 0.7237 0.6731
C27_17 C 0.5000 0.8560(5) 0.7060(5)
H15_17 H 0.5000 0.8893 0.7155
C28_17 C 0.5000 0.8179(6) 0.7429(5)
H16_17 H 0.5000 0.8269 0.7763
C15_18 C 0.5000 0.6179(4) 0.1179(4)
C16_18 C 0.5000 0.6563(4) 0.1563(4)
C17_18 C 0.5000 0.7060(5) 0.1440(5)
H9_18 H 0.5000 0.7155 0.1107
C18_18 C 0.5000 0.7429(5) 0.1821(6)
C19_18 C 0.5000 0.7308(4) 0.2308(4)
H10_18 H 0.5000 0.7763 0.1731
C20_18 C 0.5000 0.6440(5) 0.2060(5)
H11_18 H 0.5000 0.6107 0.2155
C21_18 C 0.5000 0.6821(6) 0.2429(5)
H12_18 H 0.5000 0.6731 0.2763
C22_18 C 0.5000 0.8821(4) 0.3821(4)
C23_18 C 0.5000 0.8437(4) 0.3437(4)
C24_18 C 0.5000 0.7940(5) 0.3560(5)
H13_18 H 0.5000 0.7845 0.3893
C25_18 C 0.5000 0.7571(5) 0.3179(6)
C26_18 C 0.5000 0.7692(4) 0.2692(4)
H14_18 H 0.5000 0.7237 0.3269
C27_18 C 0.5000 0.8560(5) 0.2940(5)
H15_18 H 0.5000 0.8893 0.2845
C28_18 C 0.5000 0.8179(6) 0.2571(5)
H16_18 H 0.5000 0.8269 0.2237
loop_
_geom_bond_atom_site_label_1
_geom_bond_atom_site_label_2
_geom_bond_site_symmetry_1
_geom_bond_site_symmetry_2
Zr1 O1 1_555 1_555
O1 C1 1_555 1_555
O2 Zr1 1_555 1_555
C1 C2 1_555 1_555
C2 C3 1_555 1_555
C3 H1 1_555 1_555
C4 C3 1_555 1_555
C5 C4 1_555 1_555
H2 C4 1_555 1_555
O3 C1 1_555 1_555
C6 C2 1_555 1_555
H3 C6 1_555 1_555
C7 C5 1_555 1_555
H4 C7 1_555 1_555
O4 C8 1_555 1_555
C8 C9 1_555 1_555
C9 C10 1_555 1_555
C10 H5 1_555 1_555
C11 C10 1_555 1_555
C12 C5 1_555 1_555
H6 C11 1_555 1_555
O5 C8 1_555 1_555
C13 C9 1_555 1_555
H7 C13 1_555 1_555
C14 C12 1_555 1_555
H8 C14 1_555 1_555
O6 Zr1 1_555 1_555
C15 O6 1_555 1_555
C16 C15 1_555 1_555
C17 C16 1_555 1_555
H9 C17 1_555 1_555
C18 C17 1_555 1_555
C19 C18 1_555 1_555
H10 C18 1_555 1_555
O8 C15 1_555 1_555
C20 C16 1_555 1_555
H11 C20 1_555 1_555
C21 C19 1_555 1_555
H12 C21 1_555 1_555
O9 C22 1_555 1_555
C22 C23 1_555 1_555
C23 C24 1_555 1_555
C24 H13 1_555 1_555
C25 C24 1_555 1_555
C26 C19 1_555 1_555
H14 C25 1_555 1_555
O10 C22 1_555 1_555
C27 C23 1_555 1_555
H15 C27 1_555 1_555
C28 C26 1_555 1_555
H16 C28 1_555 1_555
Zr2 O2 1_555 1_555
O11 Zr2 1_555 1_555
Zr3 O3 1_555 1_555
O13 Zr3 1_555 1_555
C29 O13 1_555 1_555
C30 C29 1_555 1_555
C31 C30 1_555 1_555
H17 C31 1_555 1_555
C32 C31 1_555 1_555
C33 C32 1_555 1_555
H18 C32 1_555 1_555
O14 C29 1_555 1_555
C34 C30 1_555 1_555
H19 C34 1_555 1_555
C35 C33 1_555 1_555
H20 C35 1_555 1_555
O15 C36 1_555 1_555
C36 C37 1_555 1_555
C37 C38 1_555 1_555
C38 H21 1_555 1_555
C39 C38 1_555 1_555
C40 C33 1_555 1_555
H22 C39 1_555 1_555
O16 C36 1_555 1_555
C41 C37 1_555 1_555
H23 C41 1_555 1_555
C42 C40 1_555 1_555
H24 C42 1_555 1_555
Zr4 O11 1_555 1_555
Zr6 O2 1_555 1_555
Zr7 O10 1_555 1_555
Zr9 O5 1_555 1_555
Zr9_3 O15 1_555 1_555
Zr10 O16 1_555 1_555
Zr12 O4 1_555 1_555
Zr12_2 O9 1_555 1_555
O17 Zr2 1_555 1_555
O19 Zr1 1_555 1_555
O22 Zr2 1_555 1_555
O23 Zr3 1_555 1_555
O25 Zr3 1_555 1_555
O26 Zr1 1_555 1_555
C6 C7 1_555 1_555
C11 C12 1_555 1_555
C13 C14 1_555 1_555
O8 Zr2 1_555 1_555
C20 C21 1_555 1_555
C25 C26 1_555 1_555
C27 C28 1_555 1_555
O11 Zr6 1_555 1_555
Zr3 O26 1_555 1_555
O14 Zr4 1_555 1_555
C34 C35 1_555 1_555
C39 C40 1_555 1_555
C41 C42 1_555 1_555
Zr4 O25 1_555 1_555
Zr6 O25 1_555 1_555
Zr6 O26 1_555 1_555
Zr1_2 O1_2 1_555 1_555
O1_2 C1_2 1_555 1_555
C1_2 C2_2 1_555 1_555
C2_2 C3_2 1_555 1_555
C3_2 H1_2 1_555 1_555
C4_2 C3_2 1_555 1_555
C5_2 C4_2 1_555 1_555
H2_2 C4_2 1_555 1_555
O3_2 C1_2 1_555 1_555
C6_2 C2_2 1_555 1_555
H3_2 C6_2 1_555 1_555
C7_2 C5_2 1_555 1_555
H4_2 C7_2 1_555 1_555
O4_2 C8_2 1_555 1_555
C8_2 C9_2 1_555 1_555
C9_2 C10_2 1_555 1_555
C10_2 H5_2 1_555 1_555
C11_2 C10_2 1_555 1_555
C12_2 C5_2 1_555 1_555
H6_2 C11_2 1_555 1_555
O5_2 C8_2 1_555 1_555
C13_2 C9_2 1_555 1_555
H7_2 C13_2 1_555 1_555
C14_2 C12_2 1_555 1_555
H8_2 C14_2 1_555 1_555
O6_2 Zr1_2 1_555 1_555
O7 Zr1_2 1_555 1_555
C15_2 O6_2 1_555 1_555
C16_2 C15_2 1_555 1_555
C17_2 C16_2 1_555 1_555
H9_2 C17_2 1_555 1_555
C18_2 C17_2 1_555 1_555
C19_2 C18_2 1_555 1_555
H10_2 C18_2 1_555 1_555
O8_2 C15_2 1_555 1_555
C20_2 C16_2 1_555 1_555
H11_2 C20_2 1_555 1_555
C21_2 C19_2 1_555 1_555
H12_2 C21_2 1_555 1_555
O9_2 C22_2 1_555 1_555
C22_2 C23_2 1_555 1_555
C23_2 C24_2 1_555 1_555
C24_2 H13_2 1_555 1_555
C25_2 C24_2 1_555 1_555
C26_2 C19_2 1_555 1_555
H14_2 C25_2 1_555 1_555
O10_2 C22_2 1_555 1_555
C27_2 C23_2 1_555 1_555
H15_2 C27_2 1_555 1_555
C28_2 C26_2 1_555 1_555
H16_2 C28_2 1_555 1_555
Zr3_2 O3_2 1_555 1_555
O12 Zr3_2 1_555 1_555
O13_2 Zr3_2 1_555 1_555
C29_2 O13_2 1_555 1_555
C30_2 C29_2 1_555 1_555
C31_2 C30_2 1_555 1_555
H17_2 C31_2 1_555 1_555
C32_2 C31_2 1_555 1_555
C33_2 C32_2 1_555 1_555
H18_2 C32_2 1_555 1_555
O14_2 C29_2 1_555 1_555
C34_2 C30_2 1_555 1_555
H19_2 C34_2 1_555 1_555
C35_2 C33_2 1_555 1_555
H20_2 C35_2 1_555 1_555
O15_2 C36_2 1_555 1_555
C36_2 C37_2 1_555 1_555
C37_2 C38_2 1_555 1_555
C38_2 H21_2 1_555 1_555
C39_2 C38_2 1_555 1_555
C40_2 C33_2 1_555 1_555
H22_2 C39_2 1_555 1_555
O16_2 C36_2 1_555 1_555
C41_2 C37_2 1_555 1_555
H23_2 C41_2 1_555 1_555
C42_2 C40_2 1_555 1_555
H24_2 C42_2 1_555 1_555
Zr5 O7 1_555 1_555
Zr7_2 O10_2 1_555 1_555
Zr9_2 O5_2 1_555 1_555
Zr9_4 O15_2 1_555 1_555
Zr10_3 O16_2 1_555 1_555
Zr12_3 O4_2 1_555 1_555
Zr12_4 O9_2 1_555 1_555
O17_2 Zr2_2 1_555 1_555
O18 Zr1_2 1_555 1_555
O20 Zr3_2 1_555 1_555
O21 Zr2_2 1_555 1_555
O24 Zr2_2 1_555 1_555
O27 Zr1_2 1_555 1_555
C6_2 C7_2 1_555 1_555
C11_2 C12_2 1_555 1_555
C13_2 C14_2 1_555 1_555
O7 Zr3_2 1_555 1_555
O8_2 Zr2_2 1_555 1_555
C20_2 C21_2 1_555 1_555
C25_2 C26_2 1_555 1_555
C27_2 C28_2 1_555 1_555
Zr2_2 O27 1_555 1_555
O12 Zr4_2 1_555 1_555
O12 Zr5 1_555 1_555
O14_2 Zr4_2 1_555 1_555
C34_2 C35_2 1_555 1_555
C39_2 C40_2 1_555 1_555
C41_2 C42_2 1_555 1_555
Zr4_2 O24 1_555 1_555
Zr5 O24 1_555 1_555
Zr5 O27 1_555 1_555
O6_3 Zr4 1_555 1_555
C15_3 O6_3 1_555 1_555
C16_3 C15_3 1_555 1_555
C17_3 C16_3 1_555 1_555
H9_3 C17_3 1_555 1_555
C18_3 C17_3 1_555 1_555
C19_3 C18_3 1_555 1_555
H10_3 C18_3 1_555 1_555
O17 C15_3 1_555 1_555
C20_3 C16_3 1_555 1_555
H11_3 C20_3 1_555 1_555
C21_3 C19_3 1_555 1_555
H12_3 C21_3 1_555 1_555
O9_3 C22_3 1_555 1_555
C22_3 C23_3 1_555 1_555
C23_3 C24_3 1_555 1_555
C24_3 H13_3 1_555 1_555
C25_3 C24_3 1_555 1_555
C26_3 C19_3 1_555 1_555
H14_3 C25_3 1_555 1_555
O10_3 C22_3 1_555 1_555
C27_3 C23_3 1_555 1_555
H15_3 C27_3 1_555 1_555
C28_3 C26_3 1_555 1_555
H16_3 C28_3 1_555 1_555
Zr7_3 O10_3 1_555 1_555
Zr10_2 O9_3 1_555 1_555
O18_2 Zr4 1_555 1_555
C20_3 C21_3 1_555 1_555
C25_3 C26_3 1_555 1_555
C27_3 C28_3 1_555 1_555
O6_4 Zr4_2 1_555 1_555
C15_4 O6_4 1_555 1_555
C16_4 C15_4 1_555 1_555
C17_4 C16_4 1_555 1_555
H9_4 C17_4 1_555 1_555
C18_4 C17_4 1_555 1_555
C19_4 C18_4 1_555 1_555
H10_4 C18_4 1_555 1_555
O17_2 C15_4 1_555 1_555
C20_4 C16_4 1_555 1_555
H11_4 C20_4 1_555 1_555
C21_4 C19_4 1_555 1_555
H12_4 C21_4 1_555 1_555
O9_4 C22_4 1_555 1_555
C22_4 C23_4 1_555 1_555
C23_4 C24_4 1_555 1_555
C24_4 H13_4 1_555 1_555
C25_4 C24_4 1_555 1_555
C26_4 C19_4 1_555 1_555
H14_4 C25_4 1_555 1_555
O10_4 C22_4 1_555 1_555
C27_4 C23_4 1_555 1_555
H15_4 C27_4 1_555 1_555
C28_4 C26_4 1_555 1_555
H16_4 C28_4 1_555 1_555
Zr7_4 O10_4 1_555 1_555
Zr10_4 O9_4 1_555 1_555
O19_2 Zr4_2 1_555 1_555
C20_4 C21_4 1_555 1_555
C25_4 C26_4 1_555 1_555
C27_4 C28_4 1_555 1_555
Zr1_3 O1_3 1_555 1_555
O1_3 C1_3 1_555 1_555
O2_2 Zr1_3 1_555 1_555
C1_3 C2_3 1_555 1_555
C2_3 C3_3 1_555 1_555
C3_3 H1_3 1_555 1_555
C4_3 C3_3 1_555 1_555
C5_3 C4_3 1_555 1_555
H2_3 C4_3 1_555 1_555
O3_3 C1_3 1_555 1_555
C6_3 C2_3 1_555 1_555
H3_3 C6_3 1_555 1_555
C7_3 C5_3 1_555 1_555
H4_3 C7_3 1_555 1_555
O4_3 C8_3 1_555 1_555
C8_3 C9_3 1_555 1_555
C9_3 C10_3 1_555 1_555
C10_3 H5_3 1_555 1_555
C11_3 C10_3 1_555 1_555
C12_3 C5_3 1_555 1_555
H6_3 C11_3 1_555 1_555
O5_3 C8_3 1_555 1_555
C13_3 C9_3 1_555 1_555
H7_3 C13_3 1_555 1_555
C14_3 C12_3 1_555 1_555
H8_3 C14_3 1_555 1_555
O6_5 Zr1_3 1_555 1_555
C15_5 O6_5 1_555 1_555
C16_5 C15_5 1_555 1_555
C17_5 C16_5 1_555 1_555
H9_5 C17_5 1_555 1_555
C18_5 C17_5 1_555 1_555
C19_5 C18_5 1_555 1_555
H10_5 C18_5 1_555 1_555
O8_3 C15_5 1_555 1_555
C20_5 C16_5 1_555 1_555
H11_5 C20_5 1_555 1_555
C21_5 C19_5 1_555 1_555
H12_5 C21_5 1_555 1_555
O9_5 C22_5 1_555 1_555
C22_5 C23_5 1_555 1_555
C23_5 C24_5 1_555 1_555
C24_5 H13_5 1_555 1_555
C25_5 C24_5 1_555 1_555
C26_5 C19_5 1_555 1_555
H14_5 C25_5 1_555 1_555
O10_5 C22_5 1_555 1_555
C27_5 C23_5 1_555 1_555
H15_5 C27_5 1_555 1_555
C28_5 C26_5 1_555 1_555
H16_5 C28_5 1_555 1_555
Zr2_3 O2_2 1_555 1_555
O11_2 Zr2_3 1_555 1_555
Zr3_3 O3_3 1_555 1_555
O13_3 Zr3_3 1_555 1_555
C29_3 O13_3 1_555 1_555
C30_3 C29_3 1_555 1_555
C31_3 C30_3 1_555 1_555
H17_3 C31_3 1_555 1_555
C32_3 C31_3 1_555 1_555
C33_3 C32_3 1_555 1_555
H18_3 C32_3 1_555 1_555
O14_3 C29_3 1_555 1_555
C34_3 C30_3 1_555 1_555
H19_3 C34_3 1_555 1_555
C35_3 C33_3 1_555 1_555
H20_3 C35_3 1_555 1_555
O15_3 C36_3 1_555 1_555
C36_3 C37_3 1_555 1_555
C37_3 C38_3 1_555 1_555
C38_3 H21_3 1_555 1_555
C39_3 C38_3 1_555 1_555
C40_3 C33_3 1_555 1_555
H22_3 C39_3 1_555 1_555
O16_3 C36_3 1_555 1_555
C41_3 C37_3 1_555 1_555
H23_3 C41_3 1_555 1_555
C42_3 C40_3 1_555 1_555
H24_3 C42_3 1_555 1_555
Zr4_3 O11_2 1_555 1_555
Zr6_2 O2_2 1_555 1_555
Zr10 O10_5 1_555 1_555
Zr12 O5_3 1_555 1_555
Zr12_3 O15_3 1_555 1_555
Zr10_5 O16_3 1_555 1_555
Zr12_5 O4_3 1_555 1_555
Zr12_7 O9_5 1_555 1_555
O17_3 Zr2_3 1_555 1_555
O19_3 Zr1_3 1_555 1_555
O22_2 Zr2_3 1_555 1_555
O23_2 Zr3_3 1_555 1_555
O25_2 Zr3_3 1_555 1_555
O26_2 Zr1_3 1_555 1_555
C6_3 C7_3 1_555 1_555
C11_3 C12_3 1_555 1_555
C13_3 C14_3 1_555 1_555
O8_3 Zr2_3 1_555 1_555
C20_5 C21_5 1_555 1_555
C25_5 C26_5 1_555 1_555
C27_5 C28_5 1_555 1_555
O11_2 Zr6_2 1_555 1_555
Zr3_3 O26_2 1_555 1_555
O14_3 Zr4_3 1_555 1_555
C34_3 C35_3 1_555 1_555
C39_3 C40_3 1_555 1_555
C41_3 C42_3 1_555 1_555
Zr4_3 O25_2 1_555 1_555
Zr6_2 O25_2 1_555 1_555
Zr6_2 O26_2 1_555 1_555
Zr1_4 O1_4 1_555 1_555
O1_4 C1_4 1_555 1_555
C1_4 C2_4 1_555 1_555
C2_4 C3_4 1_555 1_555
C3_4 H1_4 1_555 1_555
C4_4 C3_4 1_555 1_555
C5_4 C4_4 1_555 1_555
H2_4 C4_4 1_555 1_555
O3_4 C1_4 1_555 1_555
C6_4 C2_4 1_555 1_555
H3_4 C6_4 1_555 1_555
C7_4 C5_4 1_555 1_555
H4_4 C7_4 1_555 1_555
O4_4 C8_4 1_555 1_555
C8_4 C9_4 1_555 1_555
C9_4 C10_4 1_555 1_555
C10_4 H5_4 1_555 1_555
C11_4 C10_4 1_555 1_555
C12_4 C5_4 1_555 1_555
H6_4 C11_4 1_555 1_555
O5_4 C8_4 1_555 1_555
C13_4 C9_4 1_555 1_555
H7_4 C13_4 1_555 1_555
C14_4 C12_4 1_555 1_555
H8_4 C14_4 1_555 1_555
O6_6 Zr1_4 1_555 1_555
O7_2 Zr1_4 1_555 1_555
C15_6 O6_6 1_555 1_555
C16_6 C15_6 1_555 1_555
C17_6 C16_6 1_555 1_555
H9_6 C17_6 1_555 1_555
C18_6 C17_6 1_555 1_555
C19_6 C18_6 1_555 1_555
H10_6 C18_6 1_555 1_555
O8_4 C15_6 1_555 1_555
C20_6 C16_6 1_555 1_555
H11_6 C20_6 1_555 1_555
C21_6 C19_6 1_555 1_555
H12_6 C21_6 1_555 1_555
O9_6 C22_6 1_555 1_555
C22_6 C23_6 1_555 1_555
C23_6 C24_6 1_555 1_555
C24_6 H13_6 1_555 1_555
C25_6 C24_6 1_555 1_555
C26_6 C19_6 1_555 1_555
H14_6 C25_6 1_555 1_555
O10_6 C22_6 1_555 1_555
C27_6 C23_6 1_555 1_555
H15_6 C27_6 1_555 1_555
C28_6 C26_6 1_555 1_555
H16_6 C28_6 1_555 1_555
Zr3_4 O3_4 1_555 1_555
O12_2 Zr3_4 1_555 1_555
O13_4 Zr3_4 1_555 1_555
C29_4 O13_4 1_555 1_555
C30_4 C29_4 1_555 1_555
C31_4 C30_4 1_555 1_555
H17_4 C31_4 1_555 1_555
C32_4 C31_4 1_555 1_555
C33_4 C32_4 1_555 1_555
H18_4 C32_4 1_555 1_555
O14_4 C29_4 1_555 1_555
C34_4 C30_4 1_555 1_555
H19_4 C34_4 1_555 1_555
C35_4 C33_4 1_555 1_555
H20_4 C35_4 1_555 1_555
O15_4 C36_4 1_555 1_555
C36_4 C37_4 1_555 1_555
C37_4 C38_4 1_555 1_555
C38_4 H21_4 1_555 1_555
C39_4 C38_4 1_555 1_555
C40_4 C33_4 1_555 1_555
H22_4 C39_4 1_555 1_555
O16_4 C36_4 1_555 1_555
C41_4 C37_4 1_555 1_555
H23_4 C41_4 1_555 1_555
C42_4 C40_4 1_555 1_555
H24_4 C42_4 1_555 1_555
Zr5_2 O7_2 1_555 1_555
Zr10_2 O10_6 1_555 1_555
Zr12_2 O5_4 1_555 1_555
Zr12_4 O15_4 1_555 1_555
Zr10_6 O16_4 1_555 1_555
Zr12_6 O4_4 1_555 1_555
Zr12_8 O9_6 1_555 1_555
O17_4 Zr2_4 1_555 1_555
O18_3 Zr1_4 1_555 1_555
O20_2 Zr3_4 1_555 1_555
O21_2 Zr2_4 1_555 1_555
O24_2 Zr2_4 1_555 1_555
O27_2 Zr1_4 1_555 1_555
C6_4 C7_4 1_555 1_555
C11_4 C12_4 1_555 1_555
C13_4 C14_4 1_555 1_555
O7_2 Zr3_4 1_555 1_555
O8_4 Zr2_4 1_555 1_555
C20_6 C21_6 1_555 1_555
C25_6 C26_6 1_555 1_555
C27_6 C28_6 1_555 1_555
Zr2_4 O27_2 1_555 1_555
O12_2 Zr4_4 1_555 1_555
O12_2 Zr5_2 1_555 1_555
O14_4 Zr4_4 1_555 1_555
C34_4 C35_4 1_555 1_555
C39_4 C40_4 1_555 1_555
C41_4 C42_4 1_555 1_555
Zr4_4 O24_2 1_555 1_555
Zr5_2 O24_2 1_555 1_555
Zr5_2 O27_2 1_555 1_555
O6_7 Zr4_3 1_555 1_555
C15_7 O6_7 1_555 1_555
C16_7 C15_7 1_555 1_555
C17_7 C16_7 1_555 1_555
H9_7 C17_7 1_555 1_555
C18_7 C17_7 1_555 1_555
C19_7 C18_7 1_555 1_555
H10_7 C18_7 1_555 1_555
O17_3 C15_7 1_555 1_555
C20_7 C16_7 1_555 1_555
H11_7 C20_7 1_555 1_555
C21_7 C19_7 1_555 1_555
H12_7 C21_7 1_555 1_555
O9_7 C22_7 1_555 1_555
C22_7 C23_7 1_555 1_555
C23_7 C24_7 1_555 1_555
C24_7 H13_7 1_555 1_555
C25_7 C24_7 1_555 1_555
C26_7 C19_7 1_555 1_555
H14_7 C25_7 1_555 1_555
O10_7 C22_7 1_555 1_555
C27_7 C23_7 1_555 1_555
H15_7 C27_7 1_555 1_555
C28_7 C26_7 1_555 1_555
H16_7 C28_7 1_555 1_555
Zr10_3 O10_7 1_555 1_555
Zr10_7 O9_7 1_555 1_555
O18_4 Zr4_3 1_555 1_555
C20_7 C21_7 1_555 1_555
C25_7 C26_7 1_555 1_555
C27_7 C28_7 1_555 1_555
O6_8 Zr4_4 1_555 1_555
C15_8 O6_8 1_555 1_555
C16_8 C15_8 1_555 1_555
C17_8 C16_8 1_555 1_555
H9_8 C17_8 1_555 1_555
C18_8 C17_8 1_555 1_555
C19_8 C18_8 1_555 1_555
H10_8 C18_8 1_555 1_555
O17_4 C15_8 1_555 1_555
C20_8 C16_8 1_555 1_555
H11_8 C20_8 1_555 1_555
C21_8 C19_8 1_555 1_555
H12_8 C21_8 1_555 1_555
O9_8 C22_8 1_555 1_555
C22_8 C23_8 1_555 1_555
C23_8 C24_8 1_555 1_555
C24_8 H13_8 1_555 1_555
C25_8 C24_8 1_555 1_555
C26_8 C19_8 1_555 1_555
H14_8 C25_8 1_555 1_555
O10_8 C22_8 1_555 1_555
C27_8 C23_8 1_555 1_555
H15_8 C27_8 1_555 1_555
C28_8 C26_8 1_555 1_555
H16_8 C28_8 1_555 1_555
Zr10_4 O10_8 1_555 1_555
Zr10_8 O9_8 1_555 1_555
O19_4 Zr4_4 1_555 1_555
C20_8 C21_8 1_555 1_555
C25_8 C26_8 1_555 1_555
C27_8 C28_8 1_555 1_555
Zr1_5 O1_5 1_555 1_555
O1_5 C1_5 1_555 1_555
O2_3 Zr1_5 1_555 1_555
C1_5 C2_5 1_555 1_555
C2_5 C3_5 1_555 1_555
C3_5 H1_5 1_555 1_555
C4_5 C3_5 1_555 1_555
C5_5 C4_5 1_555 1_555
H2_5 C4_5 1_555 1_555
O3_5 C1_5 1_555 1_555
C6_5 C2_5 1_555 1_555
H3_5 C6_5 1_555 1_555
C7_5 C5_5 1_555 1_555
H4_5 C7_5 1_555 1_555
O4_5 C8_5 1_555 1_555
C8_5 C9_5 1_555 1_555
C9_5 C10_5 1_555 1_555
C10_5 H5_5 1_555 1_555
C11_5 C10_5 1_555 1_555
C12_5 C5_5 1_555 1_555
H6_5 C11_5 1_555 1_555
O5_5 C8_5 1_555 1_555
C13_5 C9_5 1_555 1_555
H7_5 C13_5 1_555 1_555
C14_5 C12_5 1_555 1_555
H8_5 C14_5 1_555 1_555
O6_9 Zr1_5 1_555 1_555
C15_9 O6_9 1_555 1_555
C16_9 C15_9 1_555 1_555
C17_9 C16_9 1_555 1_555
H9_9 C17_9 1_555 1_555
C18_9 C17_9 1_555 1_555
C19_9 C18_9 1_555 1_555
H10_9 C18_9 1_555 1_555
O8_5 C15_9 1_555 1_555
C20_9 C16_9 1_555 1_555
H11_9 C20_9 1_555 1_555
C21_9 C19_9 1_555 1_555
H12_9 C21_9 1_555 1_555
O9_9 C22_9 1_555 1_555
C22_9 C23_9 1_555 1_555
C23_9 C24_9 1_555 1_555
C24_9 H13_9 1_555 1_555
C25_9 C24_9 1_555 1_555
C26_9 C19_9 1_555 1_555
H14_9 C25_9 1_555 1_555
O10_9 C22_9 1_555 1_555
C27_9 C23_9 1_555 1_555
H15_9 C27_9 1_555 1_555
C28_9 C26_9 1_555 1_555
H16_9 C28_9 1_555 1_555
Zr2_5 O2_3 1_555 1_555
O11_3 Zr2_5 1_555 1_555
Zr3_5 O3_5 1_555 1_555
O13_5 Zr3_5 1_555 1_555
C29_5 O13_5 1_555 1_555
C30_5 C29_5 1_555 1_555
C31_5 C30_5 1_555 1_555
H17_5 C31_5 1_555 1_555
C32_5 C31_5 1_555 1_555
C33_5 C32_5 1_555 1_555
H18_5 C32_5 1_555 1_555
O14_5 C29_5 1_555 1_555
C34_5 C30_5 1_555 1_555
H19_5 C34_5 1_555 1_555
C35_5 C33_5 1_555 1_555
H20_5 C35_5 1_555 1_555
O15_5 C36_5 1_555 1_555
C36_5 C37_5 1_555 1_555
C37_5 C38_5 1_555 1_555
C38_5 H21_5 1_555 1_555
C39_5 C38_5 1_555 1_555
C40_5 C33_5 1_555 1_555
H22_5 C39_5 1_555 1_555
O16_5 C36_5 1_555 1_555
C41_5 C37_5 1_555 1_555
H23_5 C41_5 1_555 1_555
C42_5 C40_5 1_555 1_555
H24_5 C42_5 1_555 1_555
Zr4_5 O11_3 1_555 1_555
Zr6_3 O2_3 1_555 1_555
Zr10_5 O10_9 1_555 1_555
Zr12_5 O5_5 1_555 1_555
Zr12_6 O15_5 1_555 1_555
Zr7 O16_5 1_555 1_555
Zr9 O4_5 1_555 1_555
Zr9_2 O9_9 1_555 1_555
O17_5 Zr2_5 1_555 1_555
O19_5 Zr1_5 1_555 1_555
O22_3 Zr2_5 1_555 1_555
O23_3 Zr3_5 1_555 1_555
O25_3 Zr3_5 1_555 1_555
O26_3 Zr1_5 1_555 1_555
C6_5 C7_5 1_555 1_555
C11_5 C12_5 1_555 1_555
C13_5 C14_5 1_555 1_555
O8_5 Zr2_5 1_555 1_555
C20_9 C21_9 1_555 1_555
C25_9 C26_9 1_555 1_555
C27_9 C28_9 1_555 1_555
O11_3 Zr6_3 1_555 1_555
Zr3_5 O26_3 1_555 1_555
O14_5 Zr4_5 1_555 1_555
C34_5 C35_5 1_555 1_555
C39_5 C40_5 1_555 1_555
C41_5 C42_5 1_555 1_555
Zr4_5 O25_3 1_555 1_555
Zr6_3 O25_3 1_555 1_555
Zr6_3 O26_3 1_555 1_555
Zr1_6 O1_6 1_555 1_555
O1_6 C1_6 1_555 1_555
C1_6 C2_6 1_555 1_555
C2_6 C3_6 1_555 1_555
C3_6 H1_6 1_555 1_555
C4_6 C3_6 1_555 1_555
C5_6 C4_6 1_555 1_555
H2_6 C4_6 1_555 1_555
O3_6 C1_6 1_555 1_555
C6_6 C2_6 1_555 1_555
H3_6 C6_6 1_555 1_555
C7_6 C5_6 1_555 1_555
H4_6 C7_6 1_555 1_555
O4_6 C8_6 1_555 1_555
C8_6 C9_6 1_555 1_555
C9_6 C10_6 1_555 1_555
C10_6 H5_6 1_555 1_555
C11_6 C10_6 1_555 1_555
C12_6 C5_6 1_555 1_555
H6_6 C11_6 1_555 1_555
O5_6 C8_6 1_555 1_555
C13_6 C9_6 1_555 1_555
H7_6 C13_6 1_555 1_555
C14_6 C12_6 1_555 1_555
H8_6 C14_6 1_555 1_555
O6_10 Zr1_6 1_555 1_555
O7_3 Zr1_6 1_555 1_555
C15_10 O6_10 1_555 1_555
C16_10 C15_10 1_555 1_555
C17_10 C16_10 1_555 1_555
H9_10 C17_10 1_555 1_555
C18_10 C17_10 1_555 1_555
C19_10 C18_10 1_555 1_555
H10_10 C18_10 1_555 1_555
O8_6 C15_10 1_555 1_555
C20_10 C16_10 1_555 1_555
H11_10 C20_10 1_555 1_555
C21_10 C19_10 1_555 1_555
H12_10 C21_10 1_555 1_555
O9_10 C22_10 1_555 1_555
C22_10 C23_10 1_555 1_555
C23_10 C24_10 1_555 1_555
C24_10 H13_10 1_555 1_555
C25_10 C24_10 1_555 1_555
C26_10 C19_10 1_555 1_555
H14_10 C25_10 1_555 1_555
O10_10 C22_10 1_555 1_555
C27_10 C23_10 1_555 1_555
H15_10 C27_10 1_555 1_555
C28_10 C26_10 1_555 1_555
H16_10 C28_10 1_555 1_555
Zr3_6 O3_6 1_555 1_555
O12_3 Zr3_6 1_555 1_555
O13_6 Zr3_6 1_555 1_555
C29_6 O13_6 1_555 1_555
C30_6 C29_6 1_555 1_555
C31_6 C30_6 1_555 1_555
H17_6 C31_6 1_555 1_555
C32_6 C31_6 1_555 1_555
C33_6 C32_6 1_555 1_555
H18_6 C32_6 1_555 1_555
O14_6 C29_6 1_555 1_555
C34_6 C30_6 1_555 1_555
H19_6 C34_6 1_555 1_555
C35_6 C33_6 1_555 1_555
H20_6 C35_6 1_555 1_555
O15_6 C36_6 1_555 1_555
C36_6 C37_6 1_555 1_555
C37_6 C38_6 1_555 1_555
C38_6 H21_6 1_555 1_555
C39_6 C38_6 1_555 1_555
C40_6 C33_6 1_555 1_555
H22_6 C39_6 1_555 1_555
O16_6 C36_6 1_555 1_555
C41_6 C37_6 1_555 1_555
H23_6 C41_6 1_555 1_555
C42_6 C40_6 1_555 1_555
H24_6 C42_6 1_555 1_555
Zr5_3 O7_3 1_555 1_555
Zr10_7 O10_10 1_555 1_555
Zr12_7 O5_6 1_555 1_555
Zr12_8 O15_6 1_555 1_555
Zr7_3 O16_6 1_555 1_555
Zr9_3 O4_6 1_555 1_555
Zr9_4 O9_10 1_555 1_555
O17_6 Zr2_6 1_555 1_555
O18_5 Zr1_6 1_555 1_555
O20_3 Zr3_6 1_555 1_555
O21_3 Zr2_6 1_555 1_555
O24_3 Zr2_6 1_555 1_555
O27_3 Zr1_6 1_555 1_555
C6_6 C7_6 1_555 1_555
C11_6 C12_6 1_555 1_555
C13_6 C14_6 1_555 1_555
O7_3 Zr3_6 1_555 1_555
O8_6 Zr2_6 1_555 1_555
C20_10 C21_10 1_555 1_555
C25_10 C26_10 1_555 1_555
C27_10 C28_10 1_555 1_555
Zr2_6 O27_3 1_555 1_555
O12_3 Zr4_6 1_555 1_555
O12_3 Zr5_3 1_555 1_555
O14_6 Zr4_6 1_555 1_555
C34_6 C35_6 1_555 1_555
C39_6 C40_6 1_555 1_555
C41_6 C42_6 1_555 1_555
Zr4_6 O24_3 1_555 1_555
Zr5_3 O24_3 1_555 1_555
Zr5_3 O27_3 1_555 1_555
O6_11 Zr4_5 1_555 1_555
C15_11 O6_11 1_555 1_555
C16_11 C15_11 1_555 1_555
C17_11 C16_11 1_555 1_555
H9_11 C17_11 1_555 1_555
C18_11 C17_11 1_555 1_555
C19_11 C18_11 1_555 1_555
H10_11 C18_11 1_555 1_555
O17_5 C15_11 1_555 1_555
C20_11 C16_11 1_555 1_555
H11_11 C20_11 1_555 1_555
C21_11 C19_11 1_555 1_555
H12_11 C21_11 1_555 1_555
O9_11 C22_11 1_555 1_555
C22_11 C23_11 1_555 1_555
C23_11 C24_11 1_555 1_555
C24_11 H13_11 1_555 1_555
C25_11 C24_11 1_555 1_555
C26_11 C19_11 1_555 1_555
H14_11 C25_11 1_555 1_555
O10_11 C22_11 1_555 1_555
C27_11 C23_11 1_555 1_555
H15_11 C27_11 1_555 1_555
C28_11 C26_11 1_555 1_555
H16_11 C28_11 1_555 1_555
Zr10_6 O10_11 1_555 1_555
Zr7_2 O9_11 1_555 1_555
O18_6 Zr4_5 1_555 1_555
C20_11 C21_11 1_555 1_555
C25_11 C26_11 1_555 1_555
C27_11 C28_11 1_555 1_555
O6_12 Zr4_6 1_555 1_555
C15_12 O6_12 1_555 1_555
C16_12 C15_12 1_555 1_555
C17_12 C16_12 1_555 1_555
H9_12 C17_12 1_555 1_555
C18_12 C17_12 1_555 1_555
C19_12 C18_12 1_555 1_555
H10_12 C18_12 1_555 1_555
O17_6 C15_12 1_555 1_555
C20_12 C16_12 1_555 1_555
H11_12 C20_12 1_555 1_555
C21_12 C19_12 1_555 1_555
H12_12 C21_12 1_555 1_555
O9_12 C22_12 1_555 1_555
C22_12 C23_12 1_555 1_555
C23_12 C24_12 1_555 1_555
C24_12 H13_12 1_555 1_555
C25_12 C24_12 1_555 1_555
C26_12 C19_12 1_555 1_555
H14_12 C25_12 1_555 1_555
O10_12 C22_12 1_555 1_555
C27_12 C23_12 1_555 1_555
H15_12 C27_12 1_555 1_555
C28_12 C26_12 1_555 1_555
H16_12 C28_12 1_555 1_555
Zr10_8 O10_12 1_555 1_555
Zr7_4 O9_12 1_555 1_555
O19_6 Zr4_6 1_555 1_555
C20_12 C21_12 1_555 1_555
C25_12 C26_12 1_555 1_555
C27_12 C28_12 1_555 1_555
C15_13 O23_2 1_555 1_555
C16_13 C15_13 1_555 1_555
C17_13 C16_13 1_555 1_555
H9_13 C17_13 1_555 1_555
C18_13 C17_13 1_555 1_555
C19_13 C18_13 1_555 1_555
H10_13 C18_13 1_555 1_555
O8_7 C15_13 1_555 1_555
C20_13 C16_13 1_555 1_555
H11_13 C20_13 1_555 1_555
C21_13 C19_13 1_555 1_555
H12_13 C21_13 1_555 1_555
O9_13 C22_13 1_555 1_555
C22_13 C23_13 1_555 1_555
C23_13 C24_13 1_555 1_555
C24_13 H13_13 1_555 1_555
C25_13 C24_13 1_555 1_555
C26_13 C19_13 1_555 1_555
H14_13 C25_13 1_555 1_555
O19_5 C22_13 1_555 1_555
C27_13 C23_13 1_555 1_555
H15_13 C27_13 1_555 1_555
C28_13 C26_13 1_555 1_555
H16_13 C28_13 1_555 1_555
Zr6_3 O9_13 1_555 1_555
O17_7 Zr6_2 1_555 1_555
O21_4 Zr6_2 1_555 1_555
O22_4 Zr6_2 1_555 1_555
O8_7 Zr6_2 1_555 1_555
C20_13 C21_13 1_555 1_555
C25_13 C26_13 1_555 1_555
C27_13 C28_13 1_555 1_555
O20_2 C1_7 1_555 1_555
C1_7 C2_7 1_555 1_555
C2_7 C3_7 1_555 1_555
C3_7 H1_7 1_555 1_555
C4_7 C3_7 1_555 1_555
C5_7 C4_7 1_555 1_555
H2_7 C4_7 1_555 1_555
O3_7 C1_7 1_555 1_555
C6_7 C2_7 1_555 1_555
H3_7 C6_7 1_555 1_555
C7_7 C5_7 1_555 1_555
H4_7 C7_7 1_555 1_555
O4_7 C8_7 1_555 1_555
C8_7 C9_7 1_555 1_555
C9_7 C10_7 1_555 1_555
C10_7 H5_7 1_555 1_555
C11_7 C10_7 1_555 1_555
C12_7 C5_7 1_555 1_555
H6_7 C11_7 1_555 1_555
O18_6 C8_7 1_555 1_555
C13_7 C9_7 1_555 1_555
H7_7 C13_7 1_555 1_555
C14_7 C12_7 1_555 1_555
H8_7 C14_7 1_555 1_555
Zr5_2 O3_7 1_555 1_555
O13_7 Zr5_2 1_555 1_555
C29_7 O13_7 1_555 1_555
C30_7 C29_7 1_555 1_555
C31_7 C30_7 1_555 1_555
H17_7 C31_7 1_555 1_555
C32_7 C31_7 1_555 1_555
C33_7 C32_7 1_555 1_555
H18_7 C32_7 1_555 1_555
O21_2 C29_7 1_555 1_555
C34_7 C30_7 1_555 1_555
H19_7 C34_7 1_555 1_555
C35_7 C33_7 1_555 1_555
H20_7 C35_7 1_555 1_555
O19_6 C36_7 1_555 1_555
C36_7 C37_7 1_555 1_555
C37_7 C38_7 1_555 1_555
C38_7 H21_7 1_555 1_555
C39_7 C38_7 1_555 1_555
C40_7 C33_7 1_555 1_555
H22_7 C39_7 1_555 1_555
O16_7 C36_7 1_555 1_555
C41_7 C37_7 1_555 1_555
H23_7 C41_7 1_555 1_555
C42_7 C40_7 1_555 1_555
H24_7 C42_7 1_555 1_555
Zr5_3 O16_7 1_555 1_555
Zr6_3 O4_7 1_555 1_555
O20_4 Zr5_2 1_555 1_555
O23_4 Zr5_2 1_555 1_555
C6_7 C7_7 1_555 1_555
C11_7 C12_7 1_555 1_555
C13_7 C14_7 1_555 1_555
C34_7 C35_7 1_555 1_555
C39_7 C40_7 1_555 1_555
C41_7 C42_7 1_555 1_555
C15_14 O22_2 1_555 1_555
C16_14 C15_14 1_555 1_555
C17_14 C16_14 1_555 1_555
H9_14 C17_14 1_555 1_555
C18_14 C17_14 1_555 1_555
C19_14 C18_14 1_555 1_555
H10_14 C18_14 1_555 1_555
O17_7 C15_14 1_555 1_555
C20_14 C16_14 1_555 1_555
H11_14 C20_14 1_555 1_555
C21_14 C19_14 1_555 1_555
H12_14 C21_14 1_555 1_555
O9_14 C22_14 1_555 1_555
C22_14 C23_14 1_555 1_555
C23_14 C24_14 1_555 1_555
C24_14 H13_14 1_555 1_555
C25_14 C24_14 1_555 1_555
C26_14 C19_14 1_555 1_555
H14_14 C25_14 1_555 1_555
O18_5 C22_14 1_555 1_555
C27_14 C23_14 1_555 1_555
H15_14 C27_14 1_555 1_555
C28_14 C26_14 1_555 1_555
H16_14 C28_14 1_555 1_555
Zr5_3 O9_14 1_555 1_555
C20_14 C21_14 1_555 1_555
C25_14 C26_14 1_555 1_555
C27_14 C28_14 1_555 1_555
C29_8 O19 1_555 1_555
C30_8 C29_8 1_555 1_555
C31_8 C30_8 1_555 1_555
H17_8 C31_8 1_555 1_555
C32_8 C31_8 1_555 1_555
C33_8 C32_8 1_555 1_555
H18_8 C32_8 1_555 1_555
O14_7 C29_8 1_555 1_555
C34_8 C30_8 1_555 1_555
H19_8 C34_8 1_555 1_555
C35_8 C33_8 1_555 1_555
H20_8 C35_8 1_555 1_555
O15_7 C36_8 1_555 1_555
C36_8 C37_8 1_555 1_555
C37_8 C38_8 1_555 1_555
C38_8 H21_8 1_555 1_555
C39_8 C38_8 1_555 1_555
C40_8 C33_8 1_555 1_555
H22_8 C39_8 1_555 1_555
O23_3 C36_8 1_555 1_555
C41_8 C37_8 1_555 1_555
H23_8 C41_8 1_555 1_555
C42_8 C40_8 1_555 1_555
H24_8 C42_8 1_555 1_555
Zr6_3 O15_7 1_555 1_555
O14_7 Zr6 1_555 1_555
C34_8 C35_8 1_555 1_555
C39_8 C40_8 1_555 1_555
C41_8 C42_8 1_555 1_555
Zr5 O1_7 1_555 1_555
O1_7 C1_8 1_555 1_555
C1_8 C2_8 1_555 1_555
C2_8 C3_8 1_555 1_555
C3_8 H1_8 1_555 1_555
C4_8 C3_8 1_555 1_555
C5_8 C4_8 1_555 1_555
H2_8 C4_8 1_555 1_555
O18 C1_8 1_555 1_555
C6_8 C2_8 1_555 1_555
H3_8 C6_8 1_555 1_555
C7_8 C5_8 1_555 1_555
H4_8 C7_8 1_555 1_555
O22_3 C8_8 1_555 1_555
C8_8 C9_8 1_555 1_555
C9_8 C10_8 1_555 1_555
C10_8 H5_8 1_555 1_555
C11_8 C10_8 1_555 1_555
C12_8 C5_8 1_555 1_555
H6_8 C11_8 1_555 1_555
O5_7 C8_8 1_555 1_555
C13_8 C9_8 1_555 1_555
H7_8 C13_8 1_555 1_555
C14_8 C12_8 1_555 1_555
H8_8 C14_8 1_555 1_555
O6_13 Zr5 1_555 1_555
C15_15 O6_13 1_555 1_555
C16_15 C15_15 1_555 1_555
C17_15 C16_15 1_555 1_555
H9_15 C17_15 1_555 1_555
C18_15 C17_15 1_555 1_555
C19_15 C18_15 1_555 1_555
H10_15 C18_15 1_555 1_555
O19_2 C15_15 1_555 1_555
C20_15 C16_15 1_555 1_555
H11_15 C20_15 1_555 1_555
C21_15 C19_15 1_555 1_555
H12_15 C21_15 1_555 1_555
O21_3 C22_15 1_555 1_555
C22_15 C23_15 1_555 1_555
C23_15 C24_15 1_555 1_555
C24_15 H13_15 1_555 1_555
C25_15 C24_15 1_555 1_555
C26_15 C19_15 1_555 1_555
H14_15 C25_15 1_555 1_555
O10_13 C22_15 1_555 1_555
C27_15 C23_15 1_555 1_555
H15_15 C27_15 1_555 1_555
C28_15 C26_15 1_555 1_555
H16_15 C28_15 1_555 1_555
Zr5_3 O10_13 1_555 1_555
Zr6_3 O5_7 1_555 1_555
O18_7 Zr5 1_555 1_555
O19_7 Zr5 1_555 1_555
C6_8 C7_8 1_555 1_555
C11_8 C12_8 1_555 1_555
C13_8 C14_8 1_555 1_555
C20_15 C21_15 1_555 1_555
C25_15 C26_15 1_555 1_555
C27_15 C28_15 1_555 1_555
O6_14 Zr6 1_555 1_555
C15_16 O6_14 1_555 1_555
C16_16 C15_16 1_555 1_555
C17_16 C16_16 1_555 1_555
H9_16 C17_16 1_555 1_555
C18_16 C17_16 1_555 1_555
C19_16 C18_16 1_555 1_555
H10_16 C18_16 1_555 1_555
O18_2 C15_16 1_555 1_555
C20_16 C16_16 1_555 1_555
H11_16 C20_16 1_555 1_555
C21_16 C19_16 1_555 1_555
H12_16 C21_16 1_555 1_555
O20_3 C22_16 1_555 1_555
C22_16 C23_16 1_555 1_555
C23_16 C24_16 1_555 1_555
C24_16 H13_16 1_555 1_555
C25_16 C24_16 1_555 1_555
C26_16 C19_16 1_555 1_555
H14_16 C25_16 1_555 1_555
O10_14 C22_16 1_555 1_555
C27_16 C23_16 1_555 1_555
H15_16 C27_16 1_555 1_555
C28_16 C26_16 1_555 1_555
H16_16 C28_16 1_555 1_555
Zr5_3 O10_14 1_555 1_555
O18_8 Zr6 1_555 1_555
O19_8 Zr6 1_555 1_555
C20_16 C21_16 1_555 1_555
C25_16 C26_16 1_555 1_555
C27_16 C28_16 1_555 1_555
O11_4 Zr12_5 1_555 1_555
Zr9 O11_4 1_555 1_555
O11_4 Zr12 1_555 1_555
O2_4 Zr7 1_555 1_555
Zr12_6 O2_4 1_555 1_555
Zr12_2 O2_4 1_555 1_555
O25_4 Zr10_5 1_555 1_555
Zr9_2 O25_4 1_555 1_555
Zr12_3 O25_4 1_555 1_555
O26_4 Zr7_2 1_555 1_555
Zr10_6 O26_4 1_555 1_555
Zr12_4 O26_4 1_555 1_555
O24_4 Zr12_7 1_555 1_555
Zr9_3 O24_4 1_555 1_555
Zr10 O24_4 1_555 1_555
O27_4 Zr7_3 1_555 1_555
Zr12_8 O27_4 1_555 1_555
Zr10_2 O27_4 1_555 1_555
O12_4 Zr10_7 1_555 1_555
O12_4 Zr9_4 1_555 1_555
O12_4 Zr10_3 1_555 1_555
O7_4 Zr7_4 1_555 1_555
Zr10_4 O7_4 1_555 1_555
O7_4 Zr10_8 1_555 1_555
C29_9 O19_3 1_555 1_555
C30_9 C29_9 1_555 1_555
C31_9 C30_9 1_555 1_555
H17_9 C31_9 1_555 1_555
C32_9 C31_9 1_555 1_555
C33_9 C32_9 1_555 1_555
H18_9 C32_9 1_555 1_555
O21_4 C29_9 1_555 1_555
C34_9 C30_9 1_555 1_555
H19_9 C34_9 1_555 1_555
C35_9 C33_9 1_555 1_555
H20_9 C35_9 1_555 1_555
O19_8 C36_9 1_555 1_555
C36_9 C37_9 1_555 1_555
C37_9 C38_9 1_555 1_555
C38_9 H21_9 1_555 1_555
C39_9 C38_9 1_555 1_555
C40_9 C33_9 1_555 1_555
H22_9 C39_9 1_555 1_555
O23 C36_9 1_555 1_555
C41_9 C37_9 1_555 1_555
H23_9 C41_9 1_555 1_555
C42_9 C40_9 1_555 1_555
H24_9 C42_9 1_555 1_555
C34_9 C35_9 1_555 1_555
C39_9 C40_9 1_555 1_555
C41_9 C42_9 1_555 1_555
O20_4 C1_9 1_555 1_555
C1_9 C2_9 1_555 1_555
C2_9 C3_9 1_555 1_555
C3_9 H1_9 1_555 1_555
C4_9 C3_9 1_555 1_555
C5_9 C4_9 1_555 1_555
H2_9 C4_9 1_555 1_555
O18_3 C1_9 1_555 1_555
C6_9 C2_9 1_555 1_555
H3_9 C6_9 1_555 1_555
C7_9 C5_9 1_555 1_555
H4_9 C7_9 1_555 1_555
O22 C8_9 1_555 1_555
C8_9 C9_9 1_555 1_555
C9_9 C10_9 1_555 1_555
C10_9 H5_9 1_555 1_555
C11_9 C10_9 1_555 1_555
C12_9 C5_9 1_555 1_555
H6_9 C11_9 1_555 1_555
O18_8 C8_9 1_555 1_555
C13_9 C9_9 1_555 1_555
H7_9 C13_9 1_555 1_555
C14_9 C12_9 1_555 1_555
H8_9 C14_9 1_555 1_555
C15_17 O23_4 1_555 1_555
C16_17 C15_17 1_555 1_555
C17_17 C16_17 1_555 1_555
H9_17 C17_17 1_555 1_555
C18_17 C17_17 1_555 1_555
C19_17 C18_17 1_555 1_555
H10_17 C18_17 1_555 1_555
O19_4 C15_17 1_555 1_555
C20_17 C16_17 1_555 1_555
H11_17 C20_17 1_555 1_555
C21_17 C19_17 1_555 1_555
H12_17 C21_17 1_555 1_555
O21 C22_17 1_555 1_555
C22_17 C23_17 1_555 1_555
C23_17 C24_17 1_555 1_555
C24_17 H13_17 1_555 1_555
C25_17 C24_17 1_555 1_555
C26_17 C19_17 1_555 1_555
H14_17 C25_17 1_555 1_555
O19_7 C22_17 1_555 1_555
C27_17 C23_17 1_555 1_555
H15_17 C27_17 1_555 1_555
C28_17 C26_17 1_555 1_555
H16_17 C28_17 1_555 1_555
C6_9 C7_9 1_555 1_555
C11_9 C12_9 1_555 1_555
C13_9 C14_9 1_555 1_555
C20_17 C21_17 1_555 1_555
C25_17 C26_17 1_555 1_555
C27_17 C28_17 1_555 1_555
C15_18 O22_4 1_555 1_555
C16_18 C15_18 1_555 1_555
C17_18 C16_18 1_555 1_555
H9_18 C17_18 1_555 1_555
C18_18 C17_18 1_555 1_555
C19_18 C18_18 1_555 1_555
H10_18 C18_18 1_555 1_555
O18_4 C15_18 1_555 1_555
C20_18 C16_18 1_555 1_555
H11_18 C20_18 1_555 1_555
C21_18 C19_18 1_555 1_555
H12_18 C21_18 1_555 1_555
O20 C22_18 1_555 1_555
C22_18 C23_18 1_555 1_555
C23_18 C24_18 1_555 1_555
C24_18 H13_18 1_555 1_555
C25_18 C24_18 1_555 1_555
C26_18 C19_18 1_555 1_555
H14_18 C25_18 1_555 1_555
O18_7 C22_18 1_555 1_555
C27_18 C23_18 1_555 1_555
H15_18 C27_18 1_555 1_555
C28_18 C26_18 1_555 1_555
H16_18 C28_18 1_555 1_555
C20_18 C21_18 1_555 1_555
C25_18 C26_18 1_555 1_555
C27_18 C28_18 1_555 1_555

#END
