
###############################################################################
#
# This file contains modified crystal structure data generated from the
# MOF subset of the Cambridge Structural Database (CSD) v543 
# hosted by the Cambridge Crystallographic Data Centre (CCDC).
#
# This work is licensed under the Creative Commons
# Attribution-NonCommercial-ShareAlike 4.0 International License.
# To view a copy of this license, visit
# http://creativecommons.org/licenses/by-nc-sa/4.0/
# or send a letter to
# Creative Commons, PO Box 1866, Mountain View, CA 94042, USA.
#
# CIF created using the CSD Python API on 29 September 2022
# The structure has been converted into the P1 space group
# The structure has a 3D framework
# The original CSD entry WOBHIF01 is in the rhombohedral crystal system
# The framework has been calculated to contain at least 10.0% void space
# The void calculation uses a probe of radius 1.32A, grid spacing 0.4
#
###############################################################################

data_WOBHIF01
_chemical_formula_moiety         '(C72 H18 O48 Zn10)n'
_symmetry_cell_setting           triclinic
_symmetry_space_group_name_H-M   'P 1'
_symmetry_Int_Tables_number      1
_space_group_name_Hall           'P 1'
loop_
_symmetry_equiv_pos_site_id
_symmetry_equiv_pos_as_xyz
1 x,y,z
_cell_length_a                   25.851(8)
_cell_length_b                   25.851(8)
_cell_length_c                   6.706(4)
_cell_angle_alpha                90
_cell_angle_beta                 90
_cell_angle_gamma                120
_cell_volume                     3881.05
loop_
_atom_site_label
_atom_site_type_symbol
_atom_site_fract_x
_atom_site_fract_y
_atom_site_fract_z
O4 O 0.0013(6) 0.3695(7) 0.216(2)
O5 O 0.0362(7) 0.7015(9) 0.117(2)
O12 O 0.0594(8) 0.3129(5) 0.1802(18)
Zn5 Zn 0.02868(11) 0.64672(15) 0.3563(4)
C1 C 0.0163(10) 0.5919(10) 0.733(4)
C2 C 0.0065(10) 0.5457(9) 0.884(4)
C4 C 0.0178(9) 0.5017(9) 0.805(3)
H1 H 0.0294 0.5037 0.6726
O2 O 0.0333(6) 0.5927(7) 0.561(2)
C7 C 0.0115(8) 0.4565(8) 0.926(3)
O9 O 0.1073(9) 0.3666(6) 0.772(2)
O10 O 0.0204(5) 0.4131(6) 0.8469(18)
Zn2 Zn 0.04862(10) 0.36201(11) 0.9770(4)
Zn3 Zn 0.01994(15) 0.71529(10) 0.6897(4)
C3 C 0.9885(8) 0.5435(8) 0.074(3)
O3 O 0.9796(5) 0.5869(6) 0.1531(18)
Zn1 Zn 0.95138(10) 0.63799(11) 0.0230(4)
C5 C 0.9837(10) 0.4081(10) 0.267(4)
C6 C 0.9935(10) 0.4543(9) 0.116(4)
C8 C 0.9822(9) 0.4983(9) 0.195(3)
H2 H 0.9706 0.4963 0.3274
O7 O 0.9667(6) 0.4073(7) 0.439(2)
O8 O 0.8927(9) 0.6334(6) 0.228(2)
Zn6 Zn 0.98006(15) 0.28471(10) 0.3103(4)
Zn7 Zn 0.97132(11) 0.35328(15) 0.6437(4)
O1 O 0.9987(6) 0.6305(7) 0.784(2)
O6 O 0.9638(7) 0.2985(9) 0.883(2)
O11 O 0.9406(8) 0.6871(5) 0.8198(18)
C3_2 C 0.4565(8) 0.4450(11) 0.074(3)
O3_2 O 0.4131(6) 0.3927(8) 0.1531(18)
Zn1_2 Zn 0.36201(11) 0.31339(15) 0.0230(4)
C5_2 C 0.5919(10) 0.5756(14) 0.267(4)
C6_2 C 0.5457(9) 0.5392(13) 0.116(4)
C8_2 C 0.5017(9) 0.4839(13) 0.195(3)
H2_2 H 0.5037 0.4743 0.3274
O4_2 O 0.6305(7) 0.6318(9) 0.216(2)
O5_2 O 0.2985(9) 0.3346(11) 0.117(2)
O7_2 O 0.5927(7) 0.5594(9) 0.439(2)
O8_2 O 0.3666(6) 0.2594(11) 0.228(2)
O12_2 O 0.6871(5) 0.7464(9) 0.1802(18)
Zn5_2 Zn 0.35328(15) 0.38195(19) 0.3563(4)
Zn6_2 Zn 0.71529(10) 0.69534(18) 0.3103(4)
Zn7_2 Zn 0.64672(15) 0.61805(19) 0.6437(4)
C1_2 C 0.4081(10) 0.4244(14) 0.733(4)
C2_2 C 0.4543(9) 0.4608(13) 0.884(4)
C4_2 C 0.4983(9) 0.5161(13) 0.805(3)
H1_2 H 0.4963 0.5257 0.6726
O1_2 O 0.3695(7) 0.3682(9) 0.784(2)
O2_2 O 0.4073(7) 0.4406(9) 0.561(2)
C7_2 C 0.5435(8) 0.5550(11) 0.926(3)
O6_2 O 0.7015(9) 0.6654(11) 0.883(2)
O9_2 O 0.6334(6) 0.7406(11) 0.772(2)
O10_2 O 0.5869(6) 0.6073(8) 0.8469(18)
O11_2 O 0.3129(5) 0.2536(9) 0.8198(18)
Zn2_2 Zn 0.63799(11) 0.68661(15) 0.9770(4)
Zn3_2 Zn 0.28471(10) 0.30466(18) 0.6897(4)
C3_3 C 0.5550(11) 0.0115(8) 0.074(3)
O3_3 O 0.6073(8) 0.0204(5) 0.1531(18)
Zn1_3 Zn 0.68661(15) 0.04862(10) 0.0230(4)
C5_3 C 0.4244(14) 0.0163(10) 0.267(4)
C6_3 C 0.4608(13) 0.0065(10) 0.116(4)
C8_3 C 0.5161(13) 0.0178(9) 0.195(3)
H2_3 H 0.5257 0.0294 0.3274
O7_3 O 0.4406(9) 0.0333(6) 0.439(2)
O8_3 O 0.7406(11) 0.1073(9) 0.228(2)
Zn6_3 Zn 0.30466(18) 0.01994(15) 0.3103(4)
Zn7_3 Zn 0.38195(19) 0.02868(11) 0.6437(4)
O1_3 O 0.6318(9) 0.0013(6) 0.784(2)
O6_3 O 0.3346(11) 0.0362(7) 0.883(2)
O11_3 O 0.7464(9) 0.0594(8) 0.8198(18)
O4_3 O 0.3682(9) 0.9987(6) 0.216(2)
O5_3 O 0.6654(11) 0.9638(7) 0.117(2)
O12_3 O 0.2536(9) 0.9406(8) 0.1802(18)
Zn5_3 Zn 0.61805(19) 0.97132(11) 0.3563(4)
C1_3 C 0.5756(14) 0.9837(10) 0.733(4)
C2_3 C 0.5392(13) 0.9935(10) 0.884(4)
C4_3 C 0.4839(13) 0.9822(9) 0.805(3)
H1_3 H 0.4743 0.9706 0.6726
O2_3 O 0.5594(9) 0.9667(6) 0.561(2)
C7_3 C 0.4450(11) 0.9885(8) 0.926(3)
O9_3 O 0.2594(11) 0.8927(9) 0.772(2)
O10_3 O 0.3927(8) 0.9796(5) 0.8469(18)
Zn2_3 Zn 0.31339(15) 0.95138(10) 0.9770(4)
Zn3_3 Zn 0.69534(18) 0.98006(15) 0.6897(4)
O5_4 O 0.7028(7) 0.0349(9) 0.451(2)
C1_4 C 0.6830(10) 0.9252(10) 0.066(4)
C2_4 C 0.6732(10) 0.8790(9) 0.217(4)
C3_4 C 0.6552(8) 0.8768(8) 0.407(3)
C4_4 C 0.6845(9) 0.8350(9) 0.138(3)
H1_4 H 0.6961 0.8370 0.0059
O3_4 O 0.6463(5) 0.9202(6) 0.4864(18)
C5_4 C 0.6504(10) 0.7414(10) 0.600(4)
C6_4 C 0.6602(10) 0.7876(9) 0.449(4)
C7_4 C 0.6782(8) 0.7898(8) 0.259(3)
C8_4 C 0.6489(9) 0.8316(9) 0.528(3)
H2_4 H 0.6373 0.8296 0.6607
O4_4 O 0.6680(6) 0.7028(7) 0.549(2)
O9_4 O 0.7739(9) 0.7000(6) 0.106(2)
O12_4 O 0.7260(8) 0.6463(5) 0.5136(18)
O2_4 O 0.7000(6) 0.9260(7) 0.894(2)
O9_5 O 0.3000(6) 0.0740(11) 0.106(2)
O12_5 O 0.3537(5) 0.0798(9) 0.5136(18)
C1_5 C 0.0748(10) 0.7577(14) 0.066(4)
C2_5 C 0.1210(9) 0.7941(13) 0.217(4)
C3_5 C 0.1232(8) 0.7783(11) 0.407(3)
C4_5 C 0.1650(9) 0.8494(13) 0.138(3)
H1_5 H 0.1630 0.8590 0.0059
O3_5 O 0.0798(6) 0.7260(8) 0.4864(18)
C5_5 C 0.2586(10) 0.9089(14) 0.600(4)
C6_5 C 0.2124(9) 0.8725(13) 0.449(4)
C7_5 C 0.2102(8) 0.8883(11) 0.259(3)
C8_5 C 0.1684(9) 0.8172(13) 0.528(3)
H2_5 H 0.1704 0.8076 0.6607
O4_5 O 0.2972(7) 0.9651(9) 0.549(2)
O2_5 O 0.0740(7) 0.7739(9) 0.894(2)
O5_5 O 0.9651(9) 0.6680(11) 0.451(2)
C1_6 C 0.2423(14) 0.3170(10) 0.066(4)
C2_6 C 0.2059(13) 0.3268(10) 0.217(4)
C3_6 C 0.2217(11) 0.3448(8) 0.407(3)
C4_6 C 0.1506(13) 0.3155(9) 0.138(3)
H1_6 H 0.1410 0.3039 0.0059
O3_6 O 0.2740(8) 0.3537(5) 0.4864(18)
C5_6 C 0.0911(14) 0.3496(10) 0.600(4)
C6_6 C 0.1275(13) 0.3398(10) 0.449(4)
C7_6 C 0.1117(11) 0.3218(8) 0.259(3)
C8_6 C 0.1828(13) 0.3511(9) 0.528(3)
H2_6 H 0.1924 0.3627 0.6607
O4_6 O 0.0349(9) 0.3320(6) 0.549(2)
O5_6 O 0.3320(11) 0.2972(7) 0.451(2)
O2_6 O 0.2261(9) 0.3000(6) 0.894(2)
O9_6 O 0.9260(11) 0.2261(9) 0.106(2)
O12_6 O 0.9202(9) 0.2740(8) 0.5136(18)
C1_7 C 0.3496(10) 0.2586(10) 0.400(4)
C2_7 C 0.3398(10) 0.2124(9) 0.551(4)
C3_7 C 0.3218(8) 0.2102(8) 0.741(3)
C4_7 C 0.3511(9) 0.1684(9) 0.472(3)
H1_7 H 0.3627 0.1704 0.3393
C5_7 C 0.3170(10) 0.0748(10) 0.934(4)
C6_7 C 0.3268(10) 0.1210(9) 0.783(4)
C7_7 C 0.3448(8) 0.1232(8) 0.593(3)
C8_7 C 0.3155(9) 0.1650(9) 0.862(3)
H2_7 H 0.3039 0.1630 0.9941
C1_8 C 0.7414(10) 0.0911(14) 0.400(4)
C2_8 C 0.7876(9) 0.1275(13) 0.551(4)
C3_8 C 0.7898(8) 0.1117(11) 0.741(3)
C4_8 C 0.8316(9) 0.1828(13) 0.472(3)
H1_8 H 0.8296 0.1924 0.3393
C5_8 C 0.9252(10) 0.2423(14) 0.934(4)
C6_8 C 0.8790(9) 0.2059(13) 0.783(4)
C7_8 C 0.8768(8) 0.2217(11) 0.593(3)
C8_8 C 0.8350(9) 0.1506(13) 0.862(3)
H2_8 H 0.8370 0.1410 0.9941
C1_9 C 0.9089(14) 0.6504(10) 0.400(4)
C2_9 C 0.8725(13) 0.6602(10) 0.551(4)
C3_9 C 0.8883(11) 0.6782(8) 0.741(3)
C4_9 C 0.8172(13) 0.6489(9) 0.472(3)
H1_9 H 0.8076 0.6373 0.3393
C5_9 C 0.7577(14) 0.6830(10) 0.934(4)
C6_9 C 0.7941(13) 0.6732(10) 0.783(4)
C7_9 C 0.7783(11) 0.6552(8) 0.593(3)
C8_9 C 0.8494(13) 0.6845(9) 0.862(3)
H2_9 H 0.8590 0.6961 0.9941
loop_
_geom_bond_atom_site_label_1
_geom_bond_atom_site_label_2
_geom_bond_site_symmetry_1
_geom_bond_site_symmetry_2
O5 Zn5 1_555 1_555
C1 C2 1_555 1_555
C4 C2 1_555 1_555
H1 C4 1_555 1_555
O2 C1 1_555 1_555
C7 C4 1_555 1_555
O9 Zn2 1_555 1_555
O10 C7 1_555 1_555
Zn5 O2 1_555 1_555
O10 Zn2 1_555 1_555
C3 O3 1_555 1_555
O3 Zn1 1_555 1_555
C5 C6 1_555 1_555
C8 C3 1_555 1_555
H2 C8 1_555 1_555
O7 C5 1_555 1_555
O8 Zn1 1_555 1_555
Zn7 O7 1_555 1_555
C6 C8 1_555 1_555
Zn7 O6 1_555 1_555
C3_2 O3_2 1_555 1_555
O3_2 Zn1_2 1_555 1_555
C5_2 C6_2 1_555 1_555
C8_2 C3_2 1_555 1_555
H2_2 C8_2 1_555 1_555
O4_2 C5_2 1_555 1_555
O5_2 Zn1_2 1_555 1_555
O7_2 C5_2 1_555 1_555
O8_2 Zn1_2 1_555 1_555
Zn5_2 O3_2 1_555 1_555
Zn6_2 O4_2 1_555 1_555
Zn7_2 O7_2 1_555 1_555
C6_2 C8_2 1_555 1_555
O5_2 Zn5_2 1_555 1_555
O12_2 Zn6_2 1_555 1_555
C1_2 C2_2 1_555 1_555
C4_2 C2_2 1_555 1_555
H1_2 C4_2 1_555 1_555
O1_2 C1_2 1_555 1_555
O2_2 C1_2 1_555 1_555
C7_2 C4_2 1_555 1_555
O6_2 Zn2_2 1_555 1_555
O9_2 Zn2_2 1_555 1_555
O10_2 C7_2 1_555 1_555
Zn3_2 O1_2 1_555 1_555
Zn5_2 O2_2 1_555 1_555
Zn7_2 O6_2 1_555 1_555
O10_2 Zn2_2 1_555 1_555
O10_2 Zn7_2 1_555 1_555
O11_2 Zn3_2 1_555 1_555
C3_3 O3_3 1_555 1_555
O3_3 Zn1_3 1_555 1_555
C5_3 C6_3 1_555 1_555
C8_3 C3_3 1_555 1_555
H2_3 C8_3 1_555 1_555
O7_3 C5_3 1_555 1_555
O8_3 Zn1_3 1_555 1_555
Zn7_3 O7_3 1_555 1_555
C6_3 C8_3 1_555 1_555
Zn7_3 O6_3 1_555 1_555
O5_3 Zn5_3 1_555 1_555
C1_3 C2_3 1_555 1_555
C4_3 C2_3 1_555 1_555
H1_3 C4_3 1_555 1_555
O2_3 C1_3 1_555 1_555
C7_3 C4_3 1_555 1_555
O9_3 Zn2_3 1_555 1_555
O10_3 C7_3 1_555 1_555
Zn5_3 O2_3 1_555 1_555
O10_3 Zn2_3 1_555 1_555
C1_4 C2_4 1_555 1_555
C2_4 C3_4 1_555 1_555
C3_4 O3_4 1_555 1_555
C4_4 C2_4 1_555 1_555
H1_4 C4_4 1_555 1_555
O5_3 C1_4 1_555 1_555
O3_4 Zn5_3 1_555 1_555
C5_4 C6_4 1_555 1_555
C6_4 C7_4 1_555 1_555
C7_4 C4_4 1_555 1_555
C8_4 C3_4 1_555 1_555
H2_4 C8_4 1_555 1_555
O4_4 C5_4 1_555 1_555
O9_2 C5_4 1_555 1_555
O9_4 Zn6_2 1_555 1_555
O12_2 C7_4 1_555 1_555
O12_4 Zn6_2 1_555 1_555
Zn6_2 O4_4 1_555 1_555
Zn3_3 O3_4 1_555 1_555
Zn7_2 O4_4 1_555 1_555
C6_4 C8_4 1_555 1_555
O12_4 Zn7_2 1_555 1_555
Zn3_3 O2_4 1_555 1_555
O9_5 Zn6_3 1_555 1_555
O12_5 Zn6_3 1_555 1_555
O12_5 Zn7_3 1_555 1_555
C1_5 C2_5 1_555 1_555
C2_5 C3_5 1_555 1_555
C3_5 O3_5 1_555 1_555
C4_5 C2_5 1_555 1_555
H1_5 C4_5 1_555 1_555
O5 C1_5 1_555 1_555
O3_5 Zn5 1_555 1_555
C5_5 C6_5 1_555 1_555
C6_5 C7_5 1_555 1_555
C7_5 C4_5 1_555 1_555
C8_5 C3_5 1_555 1_555
H2_5 C8_5 1_555 1_555
O4_5 C5_5 1_555 1_555
O9_3 C5_5 1_555 1_555
O12_3 C7_5 1_555 1_555
Zn3 O3_5 1_555 1_555
C6_5 C8_5 1_555 1_555
Zn3 O2_5 1_555 1_555
C1_6 C2_6 1_555 1_555
C2_6 C3_6 1_555 1_555
C3_6 O3_6 1_555 1_555
C4_6 C2_6 1_555 1_555
H1_6 C4_6 1_555 1_555
O5_2 C1_6 1_555 1_555
O3_6 Zn5_2 1_555 1_555
C5_6 C6_6 1_555 1_555
C6_6 C7_6 1_555 1_555
C7_6 C4_6 1_555 1_555
C8_6 C3_6 1_555 1_555
H2_6 C8_6 1_555 1_555
O4_6 C5_6 1_555 1_555
O5_6 Zn5_2 1_555 1_555
O9 C5_6 1_555 1_555
O12 C7_6 1_555 1_555
Zn3_2 O3_6 1_555 1_555
C6_6 C8_6 1_555 1_555
O5_6 Zn3_2 1_555 1_555
Zn3_2 O2_6 1_555 1_555
O9_6 Zn6 1_555 1_555
O12_6 Zn6 1_555 1_555
O12_6 Zn7 1_555 1_555
C1_7 C2_7 1_555 1_555
C2_7 C3_7 1_555 1_555
C3_7 O11_2 1_555 1_555
C4_7 C2_7 1_555 1_555
H1_7 C4_7 1_555 1_555
O5_6 C1_7 1_555 1_555
O8_2 C1_7 1_555 1_555
C5_7 C6_7 1_555 1_555
C6_7 C7_7 1_555 1_555
C7_7 C4_7 1_555 1_555
C8_7 C3_7 1_555 1_555
H2_7 C8_7 1_555 1_555
O6_3 C5_7 1_555 1_555
O12_5 C7_7 1_555 1_555
C6_7 C8_7 1_555 1_555
C1_8 C2_8 1_555 1_555
C2_8 C3_8 1_555 1_555
C3_8 O11_3 1_555 1_555
C4_8 C2_8 1_555 1_555
H1_8 C4_8 1_555 1_555
O5_4 C1_8 1_555 1_555
O8_3 C1_8 1_555 1_555
C5_8 C6_8 1_555 1_555
C6_8 C7_8 1_555 1_555
C7_8 C4_8 1_555 1_555
C8_8 C3_8 1_555 1_555
H2_8 C8_8 1_555 1_555
O6 C5_8 1_555 1_555
O12_6 C7_8 1_555 1_555
C6_8 C8_8 1_555 1_555
C1_9 C2_9 1_555 1_555
C2_9 C3_9 1_555 1_555
C3_9 O11 1_555 1_555
C4_9 C2_9 1_555 1_555
H1_9 C4_9 1_555 1_555
O5_5 C1_9 1_555 1_555
O8 C1_9 1_555 1_555
C5_9 C6_9 1_555 1_555
C6_9 C7_9 1_555 1_555
C7_9 C4_9 1_555 1_555
C8_9 C3_9 1_555 1_555
H2_9 C8_9 1_555 1_555
O6_2 C5_9 1_555 1_555
O12_4 C7_9 1_555 1_555
C6_9 C8_9 1_555 1_555

#END
