
###############################################################################
#
# This file contains modified crystal structure data generated from the
# MOF subset of the Cambridge Structural Database (CSD) v543 
# hosted by the Cambridge Crystallographic Data Centre (CCDC).
#
# This work is licensed under the Creative Commons
# Attribution-NonCommercial-ShareAlike 4.0 International License.
# To view a copy of this license, visit
# http://creativecommons.org/licenses/by-nc-sa/4.0/
# or send a letter to
# Creative Commons, PO Box 1866, Mountain View, CA 94042, USA.
#
# CIF created using the CSD Python API on 29 September 2022
# The structure has been converted into the P1 space group
# The structure has a 3D framework
# The original CSD entry WOBHOM is in the orthorhombic crystal system
# The original CSD entry WOBHOM is in a Sohncke space group
# The framework has been calculated to contain at least 10.0% void space
# The void calculation uses a probe of radius 1.32A, grid spacing 0.4
#
###############################################################################

data_WOBHOM
_chemical_formula_moiety         '(C48 H44 N4 O36 Zn8)n'
_symmetry_cell_setting           triclinic
_symmetry_space_group_name_H-M   'P 1'
_symmetry_Int_Tables_number      1
_space_group_name_Hall           'P 1'
loop_
_symmetry_equiv_pos_site_id
_symmetry_equiv_pos_as_xyz
1 x,y,z
_cell_length_a                   10.3349(4)
_cell_length_b                   11.8962(4)
_cell_length_c                   20.2894(8)
_cell_angle_alpha                90
_cell_angle_beta                 90
_cell_angle_gamma                90
_cell_volume                     2494.5
loop_
_atom_site_label
_atom_site_type_symbol
_atom_site_fract_x
_atom_site_fract_y
_atom_site_fract_z
O6 O 0.1192(3) 0.8380(3) 0.0078(2)
O8 O 0.4587(4) 0.8753(4) 0.0246(3)
C8 C 0.3530(5) 0.8285(4) 0.0135(3)
C9 C 0.2299(6) 0.8934(5) 0.0314(4)
H4 H 0.234(7) 0.968(6) 0.011(4)
C11 C 0.2240(8) 0.9068(10) 0.1068(5)
H8 H 0.1393 0.9320 0.1194
H9 H 0.2872 0.9609 0.1207
H10 H 0.2417 0.8357 0.1274
C12 C 0.5140(12) 0.3390(8) 0.0176(10)
H11 H 0.4574 0.3482 0.0528
O9 O 0.5480(15) 0.2350(8) 0.0079(10)
Zn4 Zn 0.64246(5) 0.82350(5) 0.00928(4)
O10 O 0.3780(5) 0.5453(5) 0.0765(2)
O11 O 0.1675(5) 0.5875(5) 0.0730(2)
Zn1 Zn 0.14246(5) 0.67650(5) 0.99072(4)
Zn2 Zn 0.45562(5) 0.58325(5) 0.99026(3)
O1 O 0.1796(5) 0.5980(5) 0.9068(3)
O2 O 0.3848(5) 0.5430(5) 0.9036(2)
O3 O 0.5383(5) 0.4180(4) 0.9927(4)
O4 O 0.1220(5) 0.4547(5) 0.5765(2)
O5 O 0.3325(5) 0.4125(5) 0.5730(2)
O7 O 0.3396(4) 0.7316(3) 0.9912(2)
C1 C 0.2588(6) 0.5299(7) 0.8057(3)
C2 C 0.2423(7) 0.4735(6) 0.6724(3)
C3 C 0.1485(7) 0.5384(9) 0.7735(4)
C4 C 0.3708(7) 0.4973(8) 0.7716(4)
H1 H 0.4496 0.4948 0.7937
C5 C 0.1379(7) 0.5082(9) 0.7090(4)
H2 H 0.0570 0.5112 0.6889
C6 C 0.3656(7) 0.4685(9) 0.7046(4)
H3 H 0.4397 0.4470 0.6818
C7 C 0.2783(6) 0.5586(7) 0.8779(3)
C10 C 0.2325(6) 0.4439(6) 0.6025(3)
N1 N 0.0320(12) 0.5755(18) 0.8022(6)
H5 H 0.0418 0.5802 0.8457
H7 H 0.0116 0.6428 0.7861
Zn3 Zn 0.35754(5) 0.32350(5) 0.49072(4)
Zn5 Zn 0.04438(5) 0.41675(5) 0.49026(3)
O12 O 0.6192(3) 0.6620(3) 0.9922(2)
Zn6 Zn 0.95562(5) 0.91675(5) 0.00974(3)
H6 H 0.9691 0.5269 0.7929
O13 O 0.9587(4) 0.6247(4) 0.9754(3)
O1_2 O 0.3204(5) 0.4020(5) 0.4068(3)
O2_2 O 0.1152(5) 0.4570(5) 0.4036(2)
O6_2 O 0.3808(3) 0.1620(3) 0.5078(2)
O7_2 O 0.1604(4) 0.2684(3) 0.4912(2)
O8_2 O 0.0413(4) 0.1247(4) 0.5246(3)
C1_2 C 0.2412(6) 0.4701(7) 0.3057(3)
C2_2 C 0.2577(7) 0.5265(6) 0.1724(3)
C3_2 C 0.3515(7) 0.4616(9) 0.2735(4)
C4_2 C 0.1292(7) 0.5027(8) 0.2716(4)
H1_2 H 0.0504 0.5052 0.2937
C5_2 C 0.3621(7) 0.4918(9) 0.2090(4)
H2_2 H 0.4430 0.4888 0.1889
C6_2 C 0.1344(7) 0.5315(9) 0.2046(4)
H3_2 H 0.0603 0.5530 0.1818
C7_2 C 0.2217(6) 0.4414(7) 0.3779(3)
C8_2 C 0.1470(5) 0.1715(4) 0.5135(3)
C9_2 C 0.2701(6) 0.1066(5) 0.5314(4)
H4_2 H 0.266(7) 0.032(6) 0.511(4)
C10_2 C 0.2675(6) 0.5561(6) 0.1025(3)
N1_2 N 0.4680(12) 0.4245(18) 0.3022(6)
H5_2 H 0.4582 0.4198 0.3457
H6_2 H 0.5309 0.4731 0.2929
H7_2 H 0.4884 0.3572 0.2861
C11_2 C 0.2760(8) 0.0932(10) 0.6068(5)
H8_2 H 0.3607 0.0680 0.6194
H9_2 H 0.2128 0.0391 0.6207
H10_2 H 0.2583 0.1643 0.6274
H11_2 H 0.0426 0.6518 0.5528
Zn6_2 Zn 0.54438(5) 0.08325(5) 0.50974(3)
O13_2 O 0.5413(4) 0.3753(4) 0.4754(3)
O3_2 O 0.9617(5) 0.5820(4) 0.4927(4)
C12_2 C 0.9860(12) 0.6610(8) 0.5176(10)
O9_2 O 0.9520(15) 0.7650(8) 0.5079(10)
Zn4_2 Zn 0.85754(5) 0.17650(5) 0.50928(4)
O12_2 O 0.8808(3) 0.3380(3) 0.4922(2)
O4_2 O 0.6220(5) 0.0453(5) 0.4235(2)
O5_2 O 0.8325(5) 0.0875(5) 0.4270(2)
C2_3 C 0.7423(7) 0.0265(6) 0.3276(3)
C4_3 C 0.8708(7) 0.0027(8) 0.2284(4)
H1_3 H 0.9496 0.0052 0.2063
C6_3 C 0.8656(7) 0.0315(9) 0.2954(4)
H3_3 H 0.9397 0.0530 0.3182
C10_3 C 0.7325(6) 0.0561(6) 0.3975(3)
O1_3 O 0.6796(5) 0.9020(5) 0.0932(3)
O2_3 O 0.8848(5) 0.9570(5) 0.0964(2)
O7_3 O 0.8396(4) 0.7684(3) 0.0088(2)
C1_3 C 0.7588(6) 0.9701(7) 0.1943(3)
C3_3 C 0.6485(7) 0.9616(9) 0.2265(4)
C5_3 C 0.6379(7) 0.9918(9) 0.2910(4)
H2_3 H 0.5570 0.9888 0.3111
C7_3 C 0.7783(6) 0.9414(7) 0.1221(3)
N1_3 N 0.5320(12) 0.9245(18) 0.1978(6)
H5_3 H 0.5418 0.9198 0.1543
H6_3 H 0.4691 0.9731 0.2071
H7_3 H 0.5116 0.8572 0.2139
C8_3 C 0.8530(5) 0.6715(4) 0.9865(3)
C9_3 C 0.7299(6) 0.6066(5) 0.9686(4)
H4_3 H 0.734(7) 0.532(6) 0.989(4)
C11_3 C 0.7240(8) 0.5932(10) 0.8932(5)
H8_3 H 0.6393 0.5680 0.8806
H9_3 H 0.7872 0.5391 0.8793
H10_3 H 0.7417 0.6643 0.8726
O10_2 O 0.8780(5) 0.9547(5) 0.9235(2)
O11_2 O 0.6675(5) 0.9125(5) 0.9270(2)
H6_4 H 0.0309 0.0269 0.7071
O1_4 O 0.8204(5) 0.0980(5) 0.5932(3)
O2_4 O 0.6152(5) 0.0430(5) 0.5964(2)
O7_4 O 0.6604(4) 0.2316(3) 0.5088(2)
C1_4 C 0.7412(6) 0.0299(7) 0.6943(3)
C3_4 C 0.8515(7) 0.0384(9) 0.7265(4)
C5_4 C 0.8621(7) 0.0082(9) 0.7910(4)
H2_4 H 0.9430 0.0112 0.8111
C7_4 C 0.7217(6) 0.0586(7) 0.6221(3)
C8_4 C 0.6470(5) 0.3285(4) 0.4865(3)
C9_4 C 0.7701(6) 0.3934(5) 0.4686(4)
H4_4 H 0.766(7) 0.468(6) 0.489(4)
N1_4 N 0.9680(12) 0.0755(18) 0.6978(6)
H5_4 H 0.9582 0.0802 0.6543
H7_4 H 0.9884 0.1428 0.7139
C11_4 C 0.7760(8) 0.4068(10) 0.3932(5)
H8_4 H 0.8607 0.4320 0.3806
H9_4 H 0.7128 0.4609 0.3793
H10_4 H 0.7583 0.3357 0.3726
O3_3 O 0.4617(5) 0.9180(4) 0.5073(4)
C2_4 C 0.7577(7) 0.9735(6) 0.8276(3)
C4_4 C 0.6292(7) 0.9973(8) 0.7284(4)
H1_4 H 0.5504 0.9948 0.7063
C6_4 C 0.6344(7) 0.9685(9) 0.7954(4)
H3_4 H 0.5603 0.9470 0.8182
C10_4 C 0.7675(6) 0.9439(6) 0.8975(3)
C12_3 C 0.4860(12) 0.8390(8) 0.4824(10)
H11_3 H 0.5426 0.8482 0.4472
O9_3 O 0.4520(15) 0.7350(8) 0.4921(10)
O3_4 O 0.0383(5) 0.0820(4) 0.0073(4)
C12_4 C 0.0140(12) 0.1610(8) 0.9824(10)
O9_4 O 0.0480(15) 0.2650(8) 0.9921(10)
H11_4 H 0.9574 0.1518 0.9472
loop_
_geom_bond_atom_site_label_1
_geom_bond_atom_site_label_2
_geom_bond_site_symmetry_1
_geom_bond_site_symmetry_2
O8 C8 1_555 1_555
C9 O6 1_555 1_555
H4 C9 1_555 1_555
C11 C9 1_555 1_555
H8 C11 1_555 1_555
H9 C11 1_555 1_555
H10 C11 1_555 1_555
H11 C12 1_555 1_555
O9 C12 1_555 1_555
Zn4 O8 1_555 1_555
C8 C9 1_555 1_555
Zn1 O1 1_555 1_555
Zn2 O2 1_555 1_555
O1 C7 1_555 1_555
O2 C7 1_555 1_555
O3 Zn2 1_555 1_555
O4 C10 1_555 1_555
O5 C10 1_555 1_555
O7 Zn1 1_555 1_555
C1 C3 1_555 1_555
C2 C5 1_555 1_555
C3 C5 1_555 1_555
C4 C1 1_555 1_555
H1 C4 1_555 1_555
C5 H2 1_555 1_555
C6 C2 1_555 1_555
H3 C6 1_555 1_555
C7 C1 1_555 1_555
C10 C2 1_555 1_555
N1 C3 1_555 1_555
H5 N1 1_555 1_555
H7 N1 1_555 1_555
Zn3 O5 1_555 1_555
Zn5 O4 1_555 1_555
O12 Zn2 1_555 1_555
Zn2 O7 1_555 1_555
C4 C6 1_555 1_555
Zn3 O1_2 1_555 1_555
Zn5 O2_2 1_555 1_555
O1_2 C7_2 1_555 1_555
O2_2 C7_2 1_555 1_555
O10 C10_2 1_555 1_555
O11 C10_2 1_555 1_555
O6_2 Zn3 1_555 1_555
O7_2 Zn3 1_555 1_555
O8_2 C8_2 1_555 1_555
C1_2 C3_2 1_555 1_555
C2_2 C5_2 1_555 1_555
C3_2 C5_2 1_555 1_555
C4_2 C1_2 1_555 1_555
H1_2 C4_2 1_555 1_555
C5_2 H2_2 1_555 1_555
C6_2 C2_2 1_555 1_555
H3_2 C6_2 1_555 1_555
C7_2 C1_2 1_555 1_555
C8_2 O7_2 1_555 1_555
C9_2 O6_2 1_555 1_555
H4_2 C9_2 1_555 1_555
C10_2 C2_2 1_555 1_555
N1_2 C3_2 1_555 1_555
H5_2 N1_2 1_555 1_555
H6_2 N1_2 1_555 1_555
H7_2 N1_2 1_555 1_555
C11_2 C9_2 1_555 1_555
H8_2 C11_2 1_555 1_555
H9_2 C11_2 1_555 1_555
H10_2 C11_2 1_555 1_555
Zn6_2 O6_2 1_555 1_555
O13_2 Zn3 1_555 1_555
Zn5 O7_2 1_555 1_555
C4_2 C6_2 1_555 1_555
C8_2 C9_2 1_555 1_555
C12_2 O3_2 1_555 1_555
O9_2 C12_2 1_555 1_555
Zn4_2 O12_2 1_555 1_555
O4_2 C10_3 1_555 1_555
O5_2 C10_3 1_555 1_555
H1_3 C4_3 1_555 1_555
C6_3 C2_3 1_555 1_555
H3_3 C6_3 1_555 1_555
C10_3 C2_3 1_555 1_555
Zn4_2 O5_2 1_555 1_555
Zn6_2 O4_2 1_555 1_555
C4_3 C6_3 1_555 1_555
Zn4 O1_3 1_555 1_555
Zn6 O2_3 1_555 1_555
O1_3 C7_3 1_555 1_555
O2_3 C7_3 1_555 1_555
O7_3 Zn4 1_555 1_555
C1_3 C3_3 1_555 1_555
C3_3 C5_3 1_555 1_555
C5_3 H2_3 1_555 1_555
C7_3 C1_3 1_555 1_555
N1_3 C3_3 1_555 1_555
H5_3 N1_3 1_555 1_555
H6_3 N1_3 1_555 1_555
H7_3 N1_3 1_555 1_555
Zn6 O7_3 1_555 1_555
O13 C8_3 1_555 1_555
C9_3 O12 1_555 1_555
H4_3 C9_3 1_555 1_555
C11_3 C9_3 1_555 1_555
H8_3 C11_3 1_555 1_555
H9_3 C11_3 1_555 1_555
H10_3 C11_3 1_555 1_555
C8_3 C9_3 1_555 1_555
Zn4_2 O1_4 1_555 1_555
Zn6_2 O2_4 1_555 1_555
O1_4 C7_4 1_555 1_555
O2_4 C7_4 1_555 1_555
O7_4 Zn4_2 1_555 1_555
O13_2 C8_4 1_555 1_555
C1_4 C3_4 1_555 1_555
C3_4 C5_4 1_555 1_555
C5_4 H2_4 1_555 1_555
C7_4 C1_4 1_555 1_555
C8_4 O7_4 1_555 1_555
C9_4 O12_2 1_555 1_555
H4_4 C9_4 1_555 1_555
N1_4 C3_4 1_555 1_555
H5_4 N1_4 1_555 1_555
H7_4 N1_4 1_555 1_555
C11_4 C9_4 1_555 1_555
H8_4 C11_4 1_555 1_555
H9_4 C11_4 1_555 1_555
H10_4 C11_4 1_555 1_555
Zn6_2 O7_4 1_555 1_555
C8_4 C9_4 1_555 1_555
O10_2 C10_4 1_555 1_555
O11_2 C10_4 1_555 1_555
H1_4 C4_4 1_555 1_555
C6_4 C2_4 1_555 1_555
H3_4 C6_4 1_555 1_555
C10_4 C2_4 1_555 1_555
C12_3 O3_3 1_555 1_555
H11_3 C12_3 1_555 1_555
O9_3 C12_3 1_555 1_555
C4_4 C6_4 1_555 1_555
O9_4 C12_4 1_555 1_555

#END
