
###############################################################################
#
# This file contains modified crystal structure data generated from the
# MOF subset of the Cambridge Structural Database (CSD) v543 
# hosted by the Cambridge Crystallographic Data Centre (CCDC).
#
# This work is licensed under the Creative Commons
# Attribution-NonCommercial-ShareAlike 4.0 International License.
# To view a copy of this license, visit
# http://creativecommons.org/licenses/by-nc-sa/4.0/
# or send a letter to
# Creative Commons, PO Box 1866, Mountain View, CA 94042, USA.
#
# CIF created using the CSD Python API on 29 September 2022
# The structure has been converted into the P1 space group
# The structure has a 3D framework
# The original CSD entry WOBQEL is in the monoclinic crystal system
# The framework has been calculated to contain at least 10.0% void space
# The void calculation uses a probe of radius 1.32A, grid spacing 0.4
#
###############################################################################

data_WOBQEL
_chemical_formula_moiety         '(C176 H104 Mn8 O32)n'
_symmetry_cell_setting           triclinic
_symmetry_space_group_name_H-M   'P 1'
_symmetry_Int_Tables_number      1
_space_group_name_Hall           'P 1'
loop_
_symmetry_equiv_pos_site_id
_symmetry_equiv_pos_as_xyz
1 x,y,z
_cell_length_a                   6.9970(2)
_cell_length_b                   25.4831(9)
_cell_length_c                   28.2642(8)
_cell_angle_alpha                90
_cell_angle_beta                 92.712(2)
_cell_angle_gamma                90
_cell_volume                     5034.01
loop_
_atom_site_label
_atom_site_type_symbol
_atom_site_fract_x
_atom_site_fract_y
_atom_site_fract_z
O4 O 0.1243(7) 0.6215(2) 0.80406(16)
H16 H 0.0554 0.6482 0.8851
Mn5 Mn 0.20060(13) 0.56932(4) 0.74834(3)
O3 O 0.5392(7) 0.47257(19) 0.20630(16)
O9 O 0.8284(8) 0.5026(2) 0.20308(19)
C4 C 0.2841(9) 0.6868(3) 0.0422(2)
C5 C 0.0963(10) 0.7536(3) 0.0005(3)
C12 C 0.0200(13) 0.7272(3) 0.0823(3)
C14 C 0.4430(11) 0.6508(3) 0.0382(3)
C15 C 0.1825(11) 0.6894(3) 0.0832(3)
H5 H 0.2140 0.6688 0.1096
C19 C 0.5913(13) 0.5428(3) 0.1536(3)
C21 C 0.4947(13) 0.6134(3) 0.0808(3)
C27 C 0.5515(13) 0.6467(3) 0.0003(3)
H12 H 0.6566 0.6243 0.0012
C29 C 0.6538(11) 0.5048(3) 0.1904(2)
C37 C 0.6782(13) 0.6112(4) 0.0987(3)
H19 H 0.7684 0.6342 0.0873
C39 C 0.3569(15) 0.5799(4) 0.0997(3)
H21 H 0.2307 0.5817 0.0879
C42 C 0.4065(13) 0.5440(3) 0.1360(3)
H24 H 0.3153 0.5216 0.1477
C44 C 0.7332(15) 0.5757(4) 0.1334(4)
H26 H 0.8611 0.5730 0.1437
Mn3 Mn 0.79940(13) 0.43068(4) 0.25166(3)
Mn7 Mn 0.34631(13) 0.46668(4) 0.26467(3)
Mn2 Mn 0.65369(13) 0.53332(4) 0.73533(3)
O1 O 0.8781(6) 0.58410(18) 0.76825(14)
O6 O 0.7958(7) 0.5408(2) 0.66989(17)
H1 H 0.7345 0.5236 0.6484
H2 H 0.7989 0.5730 0.6622
C2 C 0.0626(9) 0.7862(2) 0.9587(2)
C3 C 0.3554(9) 0.7126(2) 0.9582(2)
C7 C 0.2460(11) 0.7176(3) 0.9990(3)
C9 C 0.5080(11) 0.6749(3) 0.9610(3)
C10 C 0.9487(10) 0.6121(3) 0.8012(2)
C11 C 0.8312(10) 0.6328(4) 0.8396(3)
C13 C 0.3276(13) 0.7437(3) 0.9164(3)
H4 H 0.4036 0.7399 0.8905
O10 O 0.8276(7) 0.4675(2) 0.7569(2)
H6 H 0.7711 0.4394 0.7481
H7 H 0.8444 0.4676 0.7869
C18 C 0.6220(11) 0.6635(3) 0.9175(3)
H9 H 0.0482 0.9524 0.8563
C23 C 0.1663(12) 0.7831(4) 0.9171(3)
H10 H 0.1365 0.8045 0.8911
C31 C 0.5317(13) 0.6476(3) 0.8728(3)
H14 H 0.3989 0.6475 0.8693
C32 C 0.6369(11) 0.6329(3) 0.8357(3)
H15 H 0.5750 0.6228 0.8073
C33 C 0.9224(13) 0.6482(4) 0.8823(3)
C38 C 0.0010(13) 0.8930(4) 0.9017(3)
H20 H 0.1282 0.8890 0.9121
C41 C 0.8201(12) 0.6635(4) 0.9203(3)
H23 H 0.8848 0.6739 0.9482
O12 O 0.4677(6) 0.60172(16) 0.72233(14)
O14 O 0.4608(7) 0.52743(19) 0.79370(16)
O17 O 0.4573(7) 0.4795(2) 0.6986(2)
O11 O 0.1219(6) 0.41590(18) 0.23175(14)
O2 O 0.5323(6) 0.39828(16) 0.27767(14)
O5 O 0.7917(7) 0.3644(2) 0.31133(17)
O7 O 0.1667(6) 0.51499(19) 0.69163(16)
C1 C 0.0093(9) 0.2593(2) 0.4584(2)
C6 C 0.6158(10) 0.3682(3) 0.3092(2)
C8 C 0.2861(11) 0.4796(3) 0.6834(2)
H3 H 0.0598 0.2297 0.3924
C16 C 0.1955(12) 0.3248(3) 0.3757(3)
H8 H 0.0626 0.3257 0.3725
C17 C 0.1384(12) 0.3609(3) 0.5796(3)
C20 C 0.0897(11) 0.3222(3) 0.5383(3)
C22 C 0.0471(13) 0.4311(3) 0.6323(3)
C24 C 0.2272(12) 0.4373(3) 0.6488(3)
C25 C 0.3026(11) 0.3395(4) 0.3366(4)
H11 H 0.2425 0.3476 0.3075
C26 C 0.2811(11) 0.3092(3) 0.4182(2)
C28 C 0.4958(11) 0.3413(4) 0.3430(3)
C30 C 0.2021(12) 0.3262(3) 0.5008(3)
H13 H 0.3065 0.3488 0.5021
C34 C 0.3683(15) 0.4047(4) 0.6304(4)
H17 H 0.4944 0.4083 0.6418
C35 C 0.5801(14) 0.3219(4) 0.3857(3)
H18 H 0.7126 0.3185 0.3881
C36 C 0.1618(11) 0.2967(3) 0.4607(3)
C40 C 0.4808(12) 0.3081(4) 0.4230(3)
H22 H 0.5429 0.2979 0.4513
C43 C 0.3267(13) 0.3686(4) 0.5969(3)
H25 H 0.4245 0.3485 0.5850
O15 O 0.8757(7) 0.3785(2) 0.19594(16)
O16 O 0.8333(6) 0.48501(19) 0.30837(16)
O6_2 O 0.2042(7) 0.4592(2) 0.33011(17)
H1_2 H 0.2655 0.4764 0.3516
H2_2 H 0.2011 0.4270 0.3378
C2_2 C 0.9374(9) 0.2138(2) 0.0413(2)
C3_2 C 0.6446(9) 0.2874(2) 0.0418(2)
C7_2 C 0.7540(11) 0.2824(3) 0.0010(3)
C9_2 C 0.4920(11) 0.3251(3) 0.0390(3)
C10_2 C 0.0513(10) 0.3879(3) 0.1988(2)
C11_2 C 0.1688(10) 0.3672(4) 0.1604(3)
C13_2 C 0.6724(13) 0.2563(3) 0.0836(3)
H4_2 H 0.5964 0.2601 0.1095
O10_2 O 0.1724(7) 0.5325(2) 0.2431(2)
H6_2 H 0.2289 0.5606 0.2519
H7_2 H 0.1556 0.5324 0.2131
C18_2 C 0.3780(11) 0.3365(3) 0.0825(3)
H9_2 H 0.9518 0.0476 0.1437
C23_2 C 0.8337(12) 0.2169(4) 0.0829(3)
H10_2 H 0.8635 0.1955 0.1089
C31_2 C 0.4683(13) 0.3524(3) 0.1272(3)
H14_2 H 0.6011 0.3525 0.1307
C32_2 C 0.3631(11) 0.3671(3) 0.1643(3)
H15_2 H 0.4250 0.3772 0.1927
C33_2 C 0.0776(13) 0.3518(4) 0.1177(3)
C38_2 C 0.9990(13) 0.1070(4) 0.0983(3)
H20_2 H 0.8718 0.1110 0.0879
C41_2 C 0.1799(12) 0.3365(4) 0.0797(3)
H23_2 H 0.1152 0.3261 0.0518
O17_2 O 0.5427(7) 0.5205(2) 0.3014(2)
O9_2 O 0.1716(8) 0.4974(2) 0.79692(19)
C4_2 C 0.7159(9) 0.3132(3) 0.9578(2)
C5_2 C 0.9037(10) 0.2464(3) 0.9995(3)
C12_2 C 0.9800(13) 0.2728(3) 0.9177(3)
C14_2 C 0.5570(11) 0.3492(3) 0.9618(3)
C15_2 C 0.8175(11) 0.3106(3) 0.9168(3)
H5_2 H 0.7860 0.3312 0.8904
C19_2 C 0.4087(13) 0.4572(3) 0.8464(3)
C21_2 C 0.5053(13) 0.3866(3) 0.9192(3)
C27_2 C 0.4485(13) 0.3533(3) 0.9997(3)
H12_2 H 0.3434 0.3757 0.9988
C29_2 C 0.3462(11) 0.4952(3) 0.8096(2)
C37_2 C 0.3218(13) 0.3888(4) 0.9013(3)
H19_2 H 0.2316 0.3658 0.9127
C39_2 C 0.6431(15) 0.4201(4) 0.9003(3)
H21_2 H 0.7693 0.4183 0.9121
C42_2 C 0.5935(13) 0.4560(3) 0.8640(3)
H24_2 H 0.6847 0.4784 0.8523
C44_2 C 0.2668(15) 0.4243(4) 0.8666(4)
H26_2 H 0.1389 0.4270 0.8563
H16_2 H 0.9446 0.3518 0.1149
O5_2 O 0.2083(7) 0.6356(2) 0.68867(17)
C1_2 C 0.9907(9) 0.7407(2) 0.5416(2)
C6_2 C 0.3842(10) 0.6318(3) 0.6908(2)
C8_2 C 0.7139(11) 0.5204(3) 0.3166(2)
H3_2 H 0.9402 0.7703 0.6076
C16_2 C 0.8045(12) 0.6752(3) 0.6243(3)
H8_2 H 0.9374 0.6743 0.6275
C17_2 C 0.8616(12) 0.6391(3) 0.4204(3)
C20_2 C 0.9103(11) 0.6778(3) 0.4617(3)
C22_2 C 0.9529(13) 0.5689(3) 0.3677(3)
C24_2 C 0.7728(12) 0.5627(3) 0.3512(3)
C25_2 C 0.6974(11) 0.6605(4) 0.6634(4)
H11_2 H 0.7575 0.6524 0.6925
C26_2 C 0.7189(11) 0.6908(3) 0.5818(2)
C28_2 C 0.5042(11) 0.6587(4) 0.6570(3)
C30_2 C 0.7979(12) 0.6738(3) 0.4992(3)
H13_2 H 0.6935 0.6512 0.4979
C34_2 C 0.6317(15) 0.5953(4) 0.3696(4)
H17_2 H 0.5056 0.5917 0.3582
C35_2 C 0.4199(14) 0.6781(4) 0.6143(3)
H18_2 H 0.2874 0.6815 0.6119
C36_2 C 0.8382(11) 0.7033(3) 0.5393(3)
C40_2 C 0.5192(12) 0.6919(4) 0.5770(3)
H22_2 H 0.4571 0.7021 0.5487
C43_2 C 0.6733(13) 0.6314(4) 0.4031(3)
H25_2 H 0.5755 0.6515 0.4150
O18 O 0.1716(8) 0.0026(2) 0.29692(19)
O7_2 O 0.8333(6) 0.01499(19) 0.80837(16)
Mn4 Mn 0.79940(13) 0.06932(4) 0.75166(3)
Mn6 Mn 0.34631(13) 0.03332(4) 0.76467(3)
O1_2 O 0.1219(6) 0.08410(18) 0.73175(14)
O6_3 O 0.2042(7) 0.0408(2) 0.83011(17)
H1_3 H 0.2655 0.0236 0.8516
H2_3 H 0.2011 0.0730 0.8378
C2_3 C 0.9374(9) 0.2862(2) 0.5413(2)
C3_3 C 0.6446(9) 0.2126(2) 0.5418(2)
C4_3 C 0.7159(9) 0.1868(3) 0.4578(2)
C5_3 C 0.9037(10) 0.2536(3) 0.4995(3)
C7_3 C 0.7540(11) 0.2176(3) 0.5010(3)
C9_3 C 0.4920(11) 0.1749(3) 0.5390(3)
C10_3 C 0.0513(10) 0.1121(3) 0.6988(2)
C11_3 C 0.1688(10) 0.1328(4) 0.6604(3)
C12_3 C 0.9800(13) 0.2272(3) 0.4177(3)
C13_3 C 0.6724(13) 0.2437(3) 0.5836(3)
H4_3 H 0.5964 0.2399 0.6095
C14_3 C 0.5570(11) 0.1508(3) 0.4618(3)
C15_3 C 0.8175(11) 0.1894(3) 0.4168(3)
H5_3 H 0.7860 0.1688 0.3904
C18_3 C 0.3780(11) 0.1635(3) 0.5825(3)
C19_3 C 0.4087(13) 0.0428(3) 0.3464(3)
C21_3 C 0.5053(13) 0.1134(3) 0.4192(3)
H9_3 H 0.9518 0.4524 0.6437
C23_3 C 0.8337(12) 0.2831(4) 0.5829(3)
H10_3 H 0.8635 0.3045 0.6089
C27_3 C 0.4485(13) 0.1467(3) 0.4997(3)
H12_3 H 0.3434 0.1243 0.4988
C29_3 C 0.3462(11) 0.0048(3) 0.3096(2)
C31_3 C 0.4683(13) 0.1476(3) 0.6272(3)
H14_3 H 0.6011 0.1475 0.6307
C32_3 C 0.3631(11) 0.1329(3) 0.6643(3)
H15_3 H 0.4250 0.1228 0.6927
C33_3 C 0.0776(13) 0.1482(4) 0.6177(3)
C37_3 C 0.3218(13) 0.1112(4) 0.4013(3)
H19_3 H 0.2316 0.1342 0.4127
C38_3 C 0.9990(13) 0.3930(4) 0.5983(3)
H20_3 H 0.8718 0.3890 0.5879
C39_3 C 0.6431(15) 0.0799(4) 0.4003(3)
H21_3 H 0.7693 0.0817 0.4121
C41_3 C 0.1799(12) 0.1635(4) 0.5797(3)
H23_3 H 0.1152 0.1739 0.5518
C42_3 C 0.5935(13) 0.0440(3) 0.3640(3)
H24_3 H 0.6847 0.0216 0.3523
C44_3 C 0.2668(15) 0.0757(4) 0.3666(4)
H26_3 H 0.1389 0.0730 0.3563
O12_2 O 0.5323(6) 0.10172(16) 0.77767(14)
O14_2 O 0.5392(7) 0.02743(19) 0.70630(16)
O4_2 O 0.8757(7) 0.1215(2) 0.69594(16)
H16_3 H 0.9446 0.1482 0.6149
O8 O 0.4573(7) 0.0205(2) 0.1986(2)
C8_3 C 0.2861(11) 0.0204(3) 0.1834(2)
C17_3 C 0.1384(12) 0.1391(3) 0.0796(3)
C20_3 C 0.0897(11) 0.1778(3) 0.0383(3)
C22_3 C 0.0471(13) 0.0689(3) 0.1323(3)
C24_3 C 0.2272(12) 0.0627(3) 0.1488(3)
C30_3 C 0.2021(12) 0.1738(3) 0.0008(3)
H13_3 H 0.3065 0.1512 0.0021
C34_3 C 0.3683(15) 0.0953(4) 0.1304(4)
H17_3 H 0.4944 0.0917 0.1418
C43_3 C 0.3267(13) 0.1314(4) 0.0969(3)
H25_3 H 0.4245 0.1515 0.0850
O5_3 O 0.7917(7) 0.1356(2) 0.81133(17)
C1_3 C 0.0093(9) 0.2407(2) 0.9584(2)
C6_3 C 0.6158(10) 0.1318(3) 0.8092(2)
H3_3 H 0.0598 0.2703 0.8924
C16_3 C 0.1955(12) 0.1752(3) 0.8757(3)
H8_3 H 0.0626 0.1743 0.8725
C25_3 C 0.3026(11) 0.1605(4) 0.8366(4)
H11_3 H 0.2425 0.1524 0.8075
C26_3 C 0.2811(11) 0.1908(3) 0.9182(2)
C28_3 C 0.4958(11) 0.1587(4) 0.8430(3)
C35_3 C 0.5801(14) 0.1781(4) 0.8857(3)
H18_3 H 0.7126 0.1815 0.8881
C36_3 C 0.1618(11) 0.2033(3) 0.9607(3)
C40_3 C 0.4808(12) 0.1919(4) 0.9230(3)
H22_3 H 0.5429 0.2021 0.9513
O10_3 O 0.8276(7) 0.0325(2) 0.2569(2)
H6_3 H 0.7711 0.0606 0.2481
H7_3 H 0.8444 0.0324 0.2869
Mn1 Mn 0.20060(13) 0.93068(4) 0.24834(3)
O2_2 O 0.4677(6) 0.89828(16) 0.22233(14)
O5_4 O 0.2083(7) 0.8644(2) 0.18867(17)
C1_4 C 0.9907(9) 0.7593(2) 0.0416(2)
C6_4 C 0.3842(10) 0.8682(3) 0.1908(2)
H3_4 H 0.9402 0.7297 0.1076
C16_4 C 0.8045(12) 0.8248(3) 0.1243(3)
H8_4 H 0.9374 0.8257 0.1275
C25_4 C 0.6974(11) 0.8395(4) 0.1634(4)
H11_4 H 0.7575 0.8476 0.1925
C26_4 C 0.7189(11) 0.8092(3) 0.0818(2)
C28_4 C 0.5042(11) 0.8413(4) 0.1570(3)
C35_4 C 0.4199(14) 0.8219(4) 0.1143(3)
H18_4 H 0.2874 0.8185 0.1119
C36_4 C 0.8382(11) 0.7967(3) 0.0393(3)
C40_4 C 0.5192(12) 0.8081(4) 0.0770(3)
H22_4 H 0.4571 0.7979 0.0487
Mn8 Mn 0.65369(13) 0.96668(4) 0.23533(3)
O13 O 0.4608(7) 0.97257(19) 0.29370(16)
O15_2 O 0.1243(7) 0.8785(2) 0.30406(16)
O16_2 O 0.1667(6) 0.98501(19) 0.19163(16)
O8_2 O 0.5427(7) 0.9795(2) 0.8014(2)
C8_4 C 0.7139(11) 0.9796(3) 0.8166(2)
C17_4 C 0.8616(12) 0.8609(3) 0.9204(3)
C20_4 C 0.9103(11) 0.8222(3) 0.9617(3)
C22_4 C 0.9529(13) 0.9311(3) 0.8677(3)
C24_4 C 0.7728(12) 0.9373(3) 0.8512(3)
C30_4 C 0.7979(12) 0.8262(3) 0.9992(3)
H13_4 H 0.6935 0.8488 0.9979
C34_4 C 0.6317(15) 0.9047(4) 0.8696(4)
H17_4 H 0.5056 0.9083 0.8582
C43_4 C 0.6733(13) 0.8686(4) 0.9031(3)
H25_4 H 0.5755 0.8485 0.9150
O11_2 O 0.8781(6) 0.91590(18) 0.26825(14)
O10_4 O 0.1724(7) 0.9675(2) 0.7431(2)
H6_4 H 0.2289 0.9394 0.7519
H7_4 H 0.1556 0.9676 0.7131
O18_2 O 0.8284(8) 0.9974(2) 0.70308(19)
H16_4 H 0.0554 0.8518 0.3851
O6_4 O 0.7958(7) 0.9592(2) 0.16989(17)
H1_4 H 0.7345 0.9764 0.1484
H2_4 H 0.7989 0.9270 0.1622
C2_4 C 0.0626(9) 0.7138(2) 0.4587(2)
C3_4 C 0.3554(9) 0.7874(2) 0.4582(2)
C4_4 C 0.2841(9) 0.8132(3) 0.5422(2)
C5_4 C 0.0963(10) 0.7464(3) 0.5005(3)
C7_4 C 0.2460(11) 0.7824(3) 0.4990(3)
C9_4 C 0.5080(11) 0.8251(3) 0.4610(3)
C10_4 C 0.9487(10) 0.8879(3) 0.3012(2)
C11_4 C 0.8312(10) 0.8672(4) 0.3396(3)
C12_4 C 0.0200(13) 0.7728(3) 0.5823(3)
C13_4 C 0.3276(13) 0.7563(3) 0.4164(3)
H4_4 H 0.4036 0.7601 0.3905
C14_4 C 0.4430(11) 0.8492(3) 0.5382(3)
C15_4 C 0.1825(11) 0.8106(3) 0.5832(3)
H5_4 H 0.2140 0.8312 0.6096
C18_4 C 0.6220(11) 0.8365(3) 0.4175(3)
C19_4 C 0.5913(13) 0.9572(3) 0.6536(3)
C21_4 C 0.4947(13) 0.8866(3) 0.5808(3)
H9_4 H 0.0482 0.5476 0.3563
C23_4 C 0.1663(12) 0.7169(4) 0.4171(3)
H10_4 H 0.1365 0.6955 0.3911
C27_4 C 0.5515(13) 0.8533(3) 0.5003(3)
H12_4 H 0.6566 0.8757 0.5012
C29_4 C 0.6538(11) 0.9952(3) 0.6904(2)
C31_4 C 0.5317(13) 0.8524(3) 0.3728(3)
H14_4 H 0.3989 0.8525 0.3693
C32_4 C 0.6369(11) 0.8671(3) 0.3357(3)
H15_4 H 0.5750 0.8772 0.3073
C33_4 C 0.9224(13) 0.8518(4) 0.3823(3)
C37_4 C 0.6782(13) 0.8888(4) 0.5987(3)
H19_4 H 0.7684 0.8658 0.5873
C38_4 C 0.0010(13) 0.6070(4) 0.4017(3)
H20_4 H 0.1282 0.6110 0.4121
C39_4 C 0.3569(15) 0.9201(4) 0.5997(3)
H21_4 H 0.2307 0.9183 0.5879
C41_4 C 0.8201(12) 0.8365(4) 0.4203(3)
H23_4 H 0.8848 0.8261 0.4482
C42_4 C 0.4065(13) 0.9560(3) 0.6360(3)
H24_4 H 0.3153 0.9784 0.6477
C44_4 C 0.7332(15) 0.9243(4) 0.6334(4)
H26_4 H 0.8611 0.9270 0.6437
loop_
_geom_bond_atom_site_label_1
_geom_bond_atom_site_label_2
_geom_bond_site_symmetry_1
_geom_bond_site_symmetry_2
O4 Mn5 1_555 1_555
O3 C29 1_555 1_555
O9 C29 1_555 1_555
C14 C4 1_555 1_555
C15 C4 1_555 1_555
H5 C15 1_555 1_555
C19 C29 1_555 1_555
C21 C14 1_555 1_555
H12 C27 1_555 1_555
C37 C21 1_555 1_555
H19 C37 1_555 1_555
C39 C21 1_555 1_555
H21 C39 1_555 1_555
C42 C19 1_555 1_555
H24 C42 1_555 1_555
C44 C19 1_555 1_555
H26 C44 1_555 1_555
Mn3 O3 1_555 1_555
Mn7 O3 1_555 1_555
O9 Mn3 1_555 1_555
C12 C15 1_555 1_555
C14 C27 1_555 1_555
C37 C44 1_555 1_555
C39 C42 1_555 1_555
Mn2 O1 1_555 1_555
O1 C10 1_555 1_555
O6 Mn2 1_555 1_555
H1 O6 1_555 1_555
H2 O6 1_555 1_555
C3 C7 1_555 1_555
C9 C3 1_555 1_555
C10 C11 1_555 1_555
C11 C32 1_555 1_555
C13 C3 1_555 1_555
H4 C13 1_555 1_555
O10 Mn2 1_555 1_555
H6 O10 1_555 1_555
H7 O10 1_555 1_555
C18 C9 1_555 1_555
C23 C2 1_555 1_555
H10 C23 1_555 1_555
C31 C18 1_555 1_555
H14 C31 1_555 1_555
C32 C31 1_555 1_555
H15 C32 1_555 1_555
C33 C11 1_555 1_555
H20 C38 1_555 1_555
C41 C18 1_555 1_555
H23 C41 1_555 1_555
O12 Mn2 1_555 1_555
O14 Mn2 1_555 1_555
O17 Mn2 1_555 1_555
C13 C23 1_555 1_555
C33 C41 1_555 1_555
Mn3 O2 1_555 1_555
O2 C6 1_555 1_555
O5 Mn3 1_555 1_555
O7 C8 1_555 1_555
O17 C8 1_555 1_555
C6 O5 1_555 1_555
C8 C24 1_555 1_555
C16 H8 1_555 1_555
C17 C20 1_555 1_555
C24 C22 1_555 1_555
C25 C16 1_555 1_555
H11 C25 1_555 1_555
C26 C16 1_555 1_555
C28 C6 1_555 1_555
C30 C20 1_555 1_555
H13 C30 1_555 1_555
C34 C24 1_555 1_555
H17 C34 1_555 1_555
C35 C28 1_555 1_555
H18 C35 1_555 1_555
C36 C1 1_555 1_555
C40 C26 1_555 1_555
H22 C40 1_555 1_555
C43 C17 1_555 1_555
H25 C43 1_555 1_555
Mn5 O7 1_555 1_555
Mn7 O2 1_555 1_555
O15 Mn3 1_555 1_555
O16 Mn3 1_555 1_555
C25 C28 1_555 1_555
C26 C36 1_555 1_555
C30 C36 1_555 1_555
C34 C43 1_555 1_555
C35 C40 1_555 1_555
Mn7 O11 1_555 1_555
O11 C10_2 1_555 1_555
O6_2 Mn7 1_555 1_555
H1_2 O6_2 1_555 1_555
H2_2 O6_2 1_555 1_555
C3_2 C7_2 1_555 1_555
C9_2 C3_2 1_555 1_555
C10_2 C11_2 1_555 1_555
C11_2 C32_2 1_555 1_555
C13_2 C3_2 1_555 1_555
H4_2 C13_2 1_555 1_555
O10_2 Mn7 1_555 1_555
H6_2 O10_2 1_555 1_555
H7_2 O10_2 1_555 1_555
C18_2 C9_2 1_555 1_555
C23_2 C2_2 1_555 1_555
H10_2 C23_2 1_555 1_555
C31_2 C18_2 1_555 1_555
H14_2 C31_2 1_555 1_555
C32_2 C31_2 1_555 1_555
H15_2 C32_2 1_555 1_555
C33_2 C11_2 1_555 1_555
H20_2 C38_2 1_555 1_555
C41_2 C18_2 1_555 1_555
H23_2 C41_2 1_555 1_555
O17_2 Mn7 1_555 1_555
C13_2 C23_2 1_555 1_555
C33_2 C41_2 1_555 1_555
O14 C29_2 1_555 1_555
O9_2 C29_2 1_555 1_555
C14_2 C4_2 1_555 1_555
C15_2 C4_2 1_555 1_555
H5_2 C15_2 1_555 1_555
C19_2 C29_2 1_555 1_555
C21_2 C14_2 1_555 1_555
H12_2 C27_2 1_555 1_555
C37_2 C21_2 1_555 1_555
H19_2 C37_2 1_555 1_555
C39_2 C21_2 1_555 1_555
H21_2 C39_2 1_555 1_555
C42_2 C19_2 1_555 1_555
H24_2 C42_2 1_555 1_555
C44_2 C19_2 1_555 1_555
H26_2 C44_2 1_555 1_555
Mn5 O14 1_555 1_555
O9_2 Mn5 1_555 1_555
C12_2 C15_2 1_555 1_555
C14_2 C27_2 1_555 1_555
C37_2 C44_2 1_555 1_555
C39_2 C42_2 1_555 1_555
Mn5 O12 1_555 1_555
O12 C6_2 1_555 1_555
O5_2 Mn5 1_555 1_555
O16 C8_2 1_555 1_555
O17_2 C8_2 1_555 1_555
C6_2 O5_2 1_555 1_555
C8_2 C24_2 1_555 1_555
C16_2 H8_2 1_555 1_555
C17_2 C20_2 1_555 1_555
C24_2 C22_2 1_555 1_555
C25_2 C16_2 1_555 1_555
H11_2 C25_2 1_555 1_555
C26_2 C16_2 1_555 1_555
C28_2 C6_2 1_555 1_555
C30_2 C20_2 1_555 1_555
H13_2 C30_2 1_555 1_555
C34_2 C24_2 1_555 1_555
H17_2 C34_2 1_555 1_555
C35_2 C28_2 1_555 1_555
H18_2 C35_2 1_555 1_555
C36_2 C1_2 1_555 1_555
C40_2 C26_2 1_555 1_555
H22_2 C40_2 1_555 1_555
C43_2 C17_2 1_555 1_555
H25_2 C43_2 1_555 1_555
C25_2 C28_2 1_555 1_555
C26_2 C36_2 1_555 1_555
C30_2 C36_2 1_555 1_555
C34_2 C43_2 1_555 1_555
C35_2 C40_2 1_555 1_555
Mn4 O7_2 1_555 1_555
Mn6 O1_2 1_555 1_555
O1_2 C10_3 1_555 1_555
O6_3 Mn6 1_555 1_555
H1_3 O6_3 1_555 1_555
H2_3 O6_3 1_555 1_555
C2_3 C5_3 1_555 1_555
C3_3 C7_3 1_555 1_555
O18 C29_3 1_555 1_555
C4_3 C7_3 1_555 1_555
C5_3 C7_3 1_555 1_555
C9_3 C3_3 1_555 1_555
C10_3 C11_3 1_555 1_555
C11_3 C32_3 1_555 1_555
C13_3 C3_3 1_555 1_555
H4_3 C13_3 1_555 1_555
C14_3 C4_3 1_555 1_555
C15_3 C4_3 1_555 1_555
H5_3 C15_3 1_555 1_555
C18_3 C9_3 1_555 1_555
C19_3 C29_3 1_555 1_555
C21_3 C14_3 1_555 1_555
C23_3 C2_3 1_555 1_555
H10_3 C23_3 1_555 1_555
C27_3 C9_3 1_555 1_555
H12_3 C27_3 1_555 1_555
C31_3 C18_3 1_555 1_555
H14_3 C31_3 1_555 1_555
C32_3 C31_3 1_555 1_555
H15_3 C32_3 1_555 1_555
C33_3 C11_3 1_555 1_555
C37_3 C21_3 1_555 1_555
H19_3 C37_3 1_555 1_555
H20_3 C38_3 1_555 1_555
C39_3 C21_3 1_555 1_555
H21_3 C39_3 1_555 1_555
C41_3 C18_3 1_555 1_555
H23_3 C41_3 1_555 1_555
C42_3 C19_3 1_555 1_555
H24_3 C42_3 1_555 1_555
C44_3 C19_3 1_555 1_555
H26_3 C44_3 1_555 1_555
O12_2 Mn6 1_555 1_555
O14_2 Mn6 1_555 1_555
C12_3 C15_3 1_555 1_555
C13_3 C23_3 1_555 1_555
C14_3 C27_3 1_555 1_555
C33_3 C41_3 1_555 1_555
C37_3 C44_3 1_555 1_555
C39_3 C42_3 1_555 1_555
O4_2 Mn4 1_555 1_555
O8 C8_3 1_555 1_555
C8_3 C24_3 1_555 1_555
C17_3 C20_3 1_555 1_555
C24_3 C22_3 1_555 1_555
C30_3 C20_3 1_555 1_555
H13_3 C30_3 1_555 1_555
C34_3 C24_3 1_555 1_555
H17_3 C34_3 1_555 1_555
C43_3 C17_3 1_555 1_555
H25_3 C43_3 1_555 1_555
C34_3 C43_3 1_555 1_555
Mn4 O12_2 1_555 1_555
O12_2 C6_3 1_555 1_555
O5_3 Mn4 1_555 1_555
C6_3 O5_3 1_555 1_555
C16_3 H8_3 1_555 1_555
C25_3 C16_3 1_555 1_555
H11_3 C25_3 1_555 1_555
C26_3 C16_3 1_555 1_555
C28_3 C6_3 1_555 1_555
C35_3 C28_3 1_555 1_555
H18_3 C35_3 1_555 1_555
C36_3 C1_3 1_555 1_555
C40_3 C26_3 1_555 1_555
H22_3 C40_3 1_555 1_555
O14_2 Mn4 1_555 1_555
C25_3 C28_3 1_555 1_555
C26_3 C36_3 1_555 1_555
C35_3 C40_3 1_555 1_555
H6_3 O10_3 1_555 1_555
H7_3 O10_3 1_555 1_555
Mn1 O2_2 1_555 1_555
O2_2 C6_4 1_555 1_555
O5_4 Mn1 1_555 1_555
C6_4 O5_4 1_555 1_555
C16_4 H8_4 1_555 1_555
C25_4 C16_4 1_555 1_555
H11_4 C25_4 1_555 1_555
C26_4 C16_4 1_555 1_555
C28_4 C6_4 1_555 1_555
C35_4 C28_4 1_555 1_555
H18_4 C35_4 1_555 1_555
C36_4 C1_4 1_555 1_555
C40_4 C26_4 1_555 1_555
H22_4 C40_4 1_555 1_555
Mn8 O2_2 1_555 1_555
O13 Mn1 1_555 1_555
O15_2 Mn1 1_555 1_555
O16_2 Mn1 1_555 1_555
C25_4 C28_4 1_555 1_555
C26_4 C36_4 1_555 1_555
C35_4 C40_4 1_555 1_555
Mn8 O13 1_555 1_555
O8_2 C8_4 1_555 1_555
C8_4 C24_4 1_555 1_555
C17_4 C20_4 1_555 1_555
C24_4 C22_4 1_555 1_555
C30_4 C20_4 1_555 1_555
H13_4 C30_4 1_555 1_555
C34_4 C24_4 1_555 1_555
H17_4 C34_4 1_555 1_555
C43_4 C17_4 1_555 1_555
H25_4 C43_4 1_555 1_555
C34_4 C43_4 1_555 1_555
H6_4 O10_4 1_555 1_555
H7_4 O10_4 1_555 1_555
Mn8 O11_2 1_555 1_555
O11_2 C10_4 1_555 1_555
O6_4 Mn8 1_555 1_555
H1_4 O6_4 1_555 1_555
H2_4 O6_4 1_555 1_555
C2_4 C5_4 1_555 1_555
C3_4 C7_4 1_555 1_555
O18_2 C29_4 1_555 1_555
C4_4 C7_4 1_555 1_555
C5_4 C7_4 1_555 1_555
C9_4 C3_4 1_555 1_555
C10_4 C11_4 1_555 1_555
C11_4 C32_4 1_555 1_555
C13_4 C3_4 1_555 1_555
H4_4 C13_4 1_555 1_555
C14_4 C4_4 1_555 1_555
C15_4 C4_4 1_555 1_555
H5_4 C15_4 1_555 1_555
C18_4 C9_4 1_555 1_555
C19_4 C29_4 1_555 1_555
C21_4 C14_4 1_555 1_555
C23_4 C2_4 1_555 1_555
H10_4 C23_4 1_555 1_555
C27_4 C9_4 1_555 1_555
H12_4 C27_4 1_555 1_555
C31_4 C18_4 1_555 1_555
H14_4 C31_4 1_555 1_555
C32_4 C31_4 1_555 1_555
H15_4 C32_4 1_555 1_555
C33_4 C11_4 1_555 1_555
C37_4 C21_4 1_555 1_555
H19_4 C37_4 1_555 1_555
H20_4 C38_4 1_555 1_555
C39_4 C21_4 1_555 1_555
H21_4 C39_4 1_555 1_555
C41_4 C18_4 1_555 1_555
H23_4 C41_4 1_555 1_555
C42_4 C19_4 1_555 1_555
H24_4 C42_4 1_555 1_555
C44_4 C19_4 1_555 1_555
H26_4 C44_4 1_555 1_555
C12_4 C15_4 1_555 1_555
C13_4 C23_4 1_555 1_555
C14_4 C27_4 1_555 1_555
C33_4 C41_4 1_555 1_555
C37_4 C44_4 1_555 1_555
C39_4 C42_4 1_555 1_555

#END
