
###############################################################################
#
# This file contains modified crystal structure data generated from the
# MOF subset of the Cambridge Structural Database (CSD) v543 
# hosted by the Cambridge Crystallographic Data Centre (CCDC).
#
# This work is licensed under the Creative Commons
# Attribution-NonCommercial-ShareAlike 4.0 International License.
# To view a copy of this license, visit
# http://creativecommons.org/licenses/by-nc-sa/4.0/
# or send a letter to
# Creative Commons, PO Box 1866, Mountain View, CA 94042, USA.
#
# CIF created using the CSD Python API on 29 September 2022
# The structure has been converted into the P1 space group
# The structure has a 3D framework
# The original CSD entry WOCHAY is in the monoclinic crystal system
# The framework has been calculated to contain at least 10.0% void space
# The void calculation uses a probe of radius 1.32A, grid spacing 0.4
# H atom positions have been added when not included in the experimental data
#
###############################################################################

data_WOCHAY
_chemical_formula_moiety         '(C40 H36 N4 O26 Tb4)n'
_symmetry_cell_setting           triclinic
_symmetry_space_group_name_H-M   'P 1'
_symmetry_Int_Tables_number      1
_space_group_name_Hall           'P 1'
loop_
_symmetry_equiv_pos_site_id
_symmetry_equiv_pos_as_xyz
1 x,y,z
_cell_length_a                   9.120(10)
_cell_length_b                   14.078(14)
_cell_length_c                   9.502(10)
_cell_angle_alpha                90
_cell_angle_beta                 96.391(16)
_cell_angle_gamma                90
_cell_volume                     1212.39
loop_
_atom_site_label
_atom_site_type_symbol
_atom_site_fract_x
_atom_site_fract_y
_atom_site_fract_z
Tb3 Tb 0.12097(7) 0.38364(5) 0.51305(6)
C10 C 0.076(2) 0.5081(16) 0.0123(16)
H6 H 0.1273 0.4477 0.0196
H7 H 0.0980 0.5414 0.1014
Tb6 Tb 0.12097(7) 0.11636(5) 0.01305(6)
C1 C 0.5027(17) 0.3765(10) 0.5761(15)
H1 H 0.4918 0.4301 0.5186
C2 C 0.7702(18) 0.4024(12) 0.5861(14)
C3 C 0.119(2) 0.5081(15) 0.7591(15)
C4 C 0.131(2) 0.5676(14) 0.8914(15)
H2 H 0.0726 0.6248 0.8756
H3 H 0.2334 0.5861 0.9171
C5 C 0.6468(16) 0.3498(11) 0.6254(13)
C6 C 0.2539(17) 0.2128(11) 0.7208(14)
C7 C 0.3969(16) 0.2533(11) 0.6879(15)
C8 C 0.5290(19) 0.2242(12) 0.7413(17)
H4 H 0.5374 0.1728 0.8031
C9 C 0.6511(17) 0.2677(12) 0.7077(18)
H5 H 0.7424 0.2420 0.7406
N1 N 0.3806(14) 0.3333(9) 0.6030(11)
O1 O 0.1406(11) 0.2418(7) 0.6491(10)
O3 O 0.8915(11) 0.3604(8) 0.6029(10)
O4 O 0.0378(13) 0.5409(7) 0.6487(10)
O5 O 0.7456(11) 0.4807(8) 0.5325(10)
O6 O 0.1792(14) 0.4321(10) 0.7538(11)
O7 O 0.2585(11) 0.1565(8) 0.8196(10)
O17 O 0.2544(11) 0.5193(8) 0.4675(10)
O22 O 0.2585(11) 0.3435(8) 0.3196(10)
Tb5 Tb 0.87903(7) 0.61636(5) 0.48695(6)
C13 C 0.881(2) 0.4919(15) 0.2409(15)
C14 C 0.869(2) 0.4324(14) 0.1086(15)
H9 H 0.9274 0.3752 0.1244
H10 H 0.7666 0.4139 0.0829
O12 O 0.9622(13) 0.4591(7) 0.3513(10)
O19 O 0.8208(14) 0.5679(10) 0.2462(11)
O2 O 0.9954(14) 0.2520(10) 0.3847(11)
C20 C 0.924(2) 0.4919(16) 0.9877(16)
H13 H 0.8727 0.5523 0.9804
H14 H 0.9020 0.4586 0.8986
H15 H 0.992077 0.196681 0.449104
H16 H 0.893273 0.271336 0.349064
O9 O 0.0046(14) 0.7520(10) 0.1153(11)
O15 O 0.0378(13) 0.9591(7) 0.1487(10)
H17 H 0.00792272 0.696681 0.0508962
H18 H 0.106727 0.771336 0.150936
O11 O 0.1085(11) 0.8604(8) 0.8971(10)
O18 O 0.7456(11) 0.0193(8) 0.0325(10)
H13_2 H 0.1273 0.0523 0.5196
O14 O 0.9622(13) 0.0409(7) 0.8513(10)
O19_2 O 0.1792(14) 0.0679(10) 0.2538(11)
O23 O 0.7415(11) 0.8435(8) 0.1804(10)
C11 C 0.4973(17) 0.8765(10) 0.9239(15)
H8 H 0.5082 0.9301 0.9814
C12 C 0.2298(18) 0.9024(12) 0.9139(14)
C13_2 C 0.119(2) 0.9919(15) 0.2591(15)
C14_2 C 0.131(2) 0.9324(14) 0.3914(15)
H9_2 H 0.0726 0.8752 0.3756
H10_2 H 0.2334 0.9139 0.4171
C15 C 0.3532(16) 0.8498(11) 0.8746(13)
C16 C 0.7461(17) 0.7128(11) 0.7792(14)
C17 C 0.6031(16) 0.7533(11) 0.8121(15)
C18 C 0.4710(19) 0.7242(12) 0.7587(17)
H11 H 0.4626 0.6728 0.6969
C19 C 0.3489(17) 0.7677(12) 0.7923(18)
H12 H 0.2576 0.7420 0.7594
C20_2 C 0.076(2) 0.9919(16) 0.5123(16)
H14_2 H 0.0980 0.9586 0.6014
N2 N 0.6194(14) 0.8333(9) 0.8970(11)
O8 O 0.8594(11) 0.7418(7) 0.8509(10)
O16 O 0.2544(11) 0.9807(8) 0.9675(10)
O20 O 0.8208(14) 0.9321(10) 0.7462(11)
O21 O 0.7415(11) 0.6565(8) 0.6804(10)
Tb2 Tb 0.87903(7) 0.88364(5) 0.98695(6)
C3_2 C 0.881(2) 0.0081(15) 0.7409(15)
C4_2 C 0.869(2) 0.0676(14) 0.6086(15)
H2_2 H 0.9274 0.1248 0.6244
H3_2 H 0.7666 0.0861 0.5829
C10_2 C 0.924(2) 0.0081(16) 0.4877(16)
H7_2 H 0.9020 0.0414 0.3986
H6_2 H 0.8727 0.9477 0.4804
O9_2 O 0.0046(14) 0.7480(10) 0.6153(11)
O11_2 O 0.1085(11) 0.6396(8) 0.3971(10)
H17_2 H 0.00792272 0.803319 0.550896
H18_2 H 0.106727 0.728664 0.650936
C11_2 C 0.4973(17) 0.6235(10) 0.4239(15)
H8_2 H 0.5082 0.5699 0.4814
C12_2 C 0.2298(18) 0.5976(12) 0.4139(14)
C15_2 C 0.3532(16) 0.6502(11) 0.3746(13)
C16_2 C 0.7461(17) 0.7872(11) 0.2792(14)
C17_2 C 0.6031(16) 0.7467(11) 0.3121(15)
C18_2 C 0.4710(19) 0.7758(12) 0.2587(17)
H11_2 H 0.4626 0.8272 0.1969
C19_2 C 0.3489(17) 0.7323(12) 0.2923(18)
H12_2 H 0.2576 0.7580 0.2594
N2_2 N 0.6194(14) 0.6667(9) 0.3970(11)
O8_2 O 0.8594(11) 0.7582(7) 0.3509(10)
C1_2 C 0.5027(17) 0.1235(10) 0.0761(15)
H1_2 H 0.4918 0.0699 0.0186
C2_2 C 0.7702(18) 0.0976(12) 0.0861(14)
C5_2 C 0.6468(16) 0.1502(11) 0.1254(13)
C6_2 C 0.2539(17) 0.2872(11) 0.2208(14)
C7_2 C 0.3969(16) 0.2467(11) 0.1879(15)
C8_2 C 0.5290(19) 0.2758(12) 0.2413(17)
H4_2 H 0.5374 0.3272 0.3031
C9_2 C 0.6511(17) 0.2323(12) 0.2077(18)
H5_2 H 0.7424 0.2580 0.2406
N1_2 N 0.3806(14) 0.1667(9) 0.1030(11)
O1_2 O 0.1406(11) 0.2582(7) 0.1491(10)
O3_2 O 0.8915(11) 0.1396(8) 0.1029(10)
O2_2 O 0.9954(14) 0.2480(10) 0.8847(11)
H15_2 H 0.992077 0.303319 0.949104
H16_2 H 0.893273 0.228664 0.849064
loop_
_geom_bond_atom_site_label_1
_geom_bond_atom_site_label_2
_geom_bond_site_symmetry_1
_geom_bond_site_symmetry_2
H6 C10 1_555 1_555
H7 C10 1_555 1_555
C1 H1 1_555 1_555
C2 C5 1_555 1_555
C3 C4 1_555 1_555
C4 H2 1_555 1_555
H3 C4 1_555 1_555
C5 C1 1_555 1_555
C6 C7 1_555 1_555
C7 C8 1_555 1_555
C8 H4 1_555 1_555
C9 C5 1_555 1_555
H5 C9 1_555 1_555
N1 C1 1_555 1_555
O1 C6 1_555 1_555
O3 C2 1_555 1_555
O4 C3 1_555 1_555
O5 C2 1_555 1_555
O6 C3 1_555 1_555
O7 C6 1_555 1_555
Tb3 N1 1_555 1_555
O17 Tb3 1_555 1_555
O22 Tb3 1_555 1_555
Tb5 O5 1_555 1_555
C7 N1 1_555 1_555
C8 C9 1_555 1_555
O1 Tb3 1_555 1_555
O4 Tb3 1_555 1_555
O6 Tb3 1_555 1_555
C13 C14 1_555 1_555
C14 H9 1_555 1_555
H10 C14 1_555 1_555
O12 C13 1_555 1_555
O19 C13 1_555 1_555
Tb5 O12 1_555 1_555
O19 Tb5 1_555 1_555
H13 C20 1_555 1_555
H14 C20 1_555 1_555
O2 H15 1_555 1_555
O2 H16 1_555 1_555
O9 H17 1_555 1_555
O9 H18 1_555 1_555
O19_2 Tb6 1_555 1_555
C11 H8 1_555 1_555
C12 C15 1_555 1_555
C13_2 C14_2 1_555 1_555
C14_2 H9_2 1_555 1_555
H10_2 C14_2 1_555 1_555
C15 C11 1_555 1_555
C16 C17 1_555 1_555
C17 C18 1_555 1_555
C18 H11 1_555 1_555
C19 C15 1_555 1_555
H12 C19 1_555 1_555
H14_2 C20_2 1_555 1_555
N2 C11 1_555 1_555
O8 C16 1_555 1_555
O15 C13_2 1_555 1_555
O16 C12 1_555 1_555
O20 Tb2 1_555 1_555
O21 C16 1_555 1_555
Tb2 N2 1_555 1_555
Tb5 O21 1_555 1_555
C12 O11 1_555 1_555
C14_2 C20_2 1_555 1_555
C17 N2 1_555 1_555
C18 C19 1_555 1_555
O8 Tb2 1_555 1_555
C3_2 C4_2 1_555 1_555
C4_2 H2_2 1_555 1_555
H3_2 C4_2 1_555 1_555
C10_2 C4_2 1_555 1_555
H7_2 C10_2 1_555 1_555
O14 C3_2 1_555 1_555
O9_2 H17_2 1_555 1_555
O9_2 H18_2 1_555 1_555
C11_2 H8_2 1_555 1_555
C12_2 C15_2 1_555 1_555
C15_2 C11_2 1_555 1_555
C16_2 C17_2 1_555 1_555
C17_2 C18_2 1_555 1_555
C18_2 H11_2 1_555 1_555
C19_2 C15_2 1_555 1_555
H12_2 C19_2 1_555 1_555
N2_2 C11_2 1_555 1_555
O8_2 C16_2 1_555 1_555
O17 C12_2 1_555 1_555
O23 C16_2 1_555 1_555
Tb5 N2_2 1_555 1_555
C12_2 O11_2 1_555 1_555
C17_2 N2_2 1_555 1_555
C18_2 C19_2 1_555 1_555
O8_2 Tb5 1_555 1_555
C1_2 H1_2 1_555 1_555
C2_2 C5_2 1_555 1_555
C5_2 C1_2 1_555 1_555
C6_2 C7_2 1_555 1_555
C7_2 C8_2 1_555 1_555
C8_2 H4_2 1_555 1_555
C9_2 C5_2 1_555 1_555
H5_2 C9_2 1_555 1_555
N1_2 C1_2 1_555 1_555
O1_2 C6_2 1_555 1_555
O3_2 C2_2 1_555 1_555
O18 C2_2 1_555 1_555
O22 C6_2 1_555 1_555
Tb6 N1_2 1_555 1_555
C7_2 N1_2 1_555 1_555
C8_2 C9_2 1_555 1_555
O1_2 Tb6 1_555 1_555
O2_2 H15_2 1_555 1_555
O2_2 H16_2 1_555 1_555

#END
