
###############################################################################
#
# This file contains modified crystal structure data generated from the
# MOF subset of the Cambridge Structural Database (CSD) v543 
# hosted by the Cambridge Crystallographic Data Centre (CCDC).
#
# This work is licensed under the Creative Commons
# Attribution-NonCommercial-ShareAlike 4.0 International License.
# To view a copy of this license, visit
# http://creativecommons.org/licenses/by-nc-sa/4.0/
# or send a letter to
# Creative Commons, PO Box 1866, Mountain View, CA 94042, USA.
#
# CIF created using the CSD Python API on 29 September 2022
# The structure has been converted into the P1 space group
# The structure has a 3D framework
# The original CSD entry WOCVUG is in the monoclinic crystal system
# The original CSD entry WOCVUG is in a Sohncke space group
# The framework has been calculated to contain at least 10.0% void space
# The void calculation uses a probe of radius 1.32A, grid spacing 0.4
#
###############################################################################

data_WOCVUG
_chemical_formula_moiety         '(C88 H96 Cu8 N8 O32)n'
_symmetry_cell_setting           triclinic
_symmetry_space_group_name_H-M   'P 1'
_symmetry_Int_Tables_number      1
_space_group_name_Hall           'P 1'
loop_
_symmetry_equiv_pos_site_id
_symmetry_equiv_pos_as_xyz
1 x,y,z
_cell_length_a                   21.0446(18)
_cell_length_b                   13.7315(15)
_cell_length_c                   9.1291(10)
_cell_angle_alpha                90
_cell_angle_beta                 104.150(4)
_cell_angle_gamma                90
_cell_volume                     2558.03
loop_
_atom_site_label
_atom_site_type_symbol
_atom_site_fract_x
_atom_site_fract_y
_atom_site_fract_z
C16 C 0.02256(19) 0.0551(3) 0.3033(4)
C19 C 0.1239(2) 0.0454(3) 0.4981(5)
H21 H 0.1625 0.0774 0.5526
C20 C 0.0760(2) 0.1003(3) 0.3979(5)
H22 H 0.0803 0.1691 0.3949
H23 H 0.0035 0.2440 0.2440
N2 N 0.11790(15) 0.9539(3) 0.5193(3)
C17 C 0.01784(18) 0.9559(3) 0.3228(4)
C18 C 0.0667(2) 0.9080(3) 0.4336(4)
H20 H 0.0625 0.8399 0.4474
Cu7 Cu 0.19469(2) 0.87266(3) 0.66842(4)
Cu1 Cu 0.800688(19) 0.28193(3) 0.81509(4)
Cu2 Cu 0.69469(2) 0.37266(3) 0.66842(4)
O1 O 0.65205(13) 0.3320(2) 0.8290(3)
O2 O 0.74699(11) 0.2710(2) 0.9621(2)
O5 O 0.75385(13) 0.1669(2) 0.7109(3)
O6 O 0.66844(12) 0.24395(19) 0.5764(3)
N1 N 0.87948(15) 0.2062(2) 0.9693(3)
C1 C 0.68659(17) 0.2876(3) 0.9404(4)
H4 H 0.6362 0.0654 0.9907
H5 H 0.7072 0.0920 0.9684
C7 C 0.70024(17) 0.1686(3) 0.6172(4)
C8 C 0.6738(2) 0.0731(3) 0.5473(5)
H9 H 0.6948 0.0575 0.4643
H10 H 0.6261 0.0798 0.5030
H11 H 0.6633 0.0051 0.7410
C13 C 0.8800(2) 0.1087(3) 0.9832(6)
H17 H 0.8502 0.0711 0.9099
O9 O 0.73390(12) 0.4869(2) 0.7874(3)
O10 O 0.82858(12) 0.41248(19) 0.8928(3)
O11 O 0.83988(12) 0.3078(2) 0.6436(3)
O12 O 0.75182(13) 0.3931(2) 0.5299(3)
N3 N 0.61790(15) 0.4539(3) 0.5193(3)
O3 O 0.76610(12) 0.9869(2) 0.2126(3)
O4 O 0.67142(12) 0.91248(19) 0.1072(3)
C5 C 0.7097(2) 0.9863(3) 0.1281(4)
H18 H 0.9143 0.9961 0.1133
H19 H 0.9823 0.9202 0.2624
Cu3 Cu 0.699312(19) 0.78193(3) 0.18491(4)
Cu5 Cu 0.80531(2) 0.87266(3) 0.33158(4)
O7 O 0.66012(12) 0.8078(2) 0.3564(3)
O8 O 0.74818(13) 0.8931(2) 0.4701(3)
C9 C 0.6854(2) 0.9898(3) 0.6597(4)
H12 H 0.7330 0.9852 0.7064
C10 C 0.66033(19) 0.8868(3) 0.5902(4)
H13 H 0.6740 0.8369 0.6717
C11 C 0.69195(19) 0.8602(3) 0.4625(4)
C12 C 0.5858(2) 0.8886(4) 0.5440(6)
H14 H 0.5695 0.8253 0.5012
H15 H 0.5711 0.9396 0.4681
H16 H 0.5688 0.9020 0.6327
Cu1_2 Cu 0.199312(19) 0.28193(3) 0.18491(4)
Cu2_2 Cu 0.30531(2) 0.37266(3) 0.33158(4)
O1_2 O 0.34795(13) 0.3320(2) 0.1710(3)
O2_2 O 0.25301(11) 0.2710(2) 0.0379(2)
O5_2 O 0.24615(13) 0.1669(2) 0.2891(3)
O6_2 O 0.33156(12) 0.24395(19) 0.4236(3)
N1_2 N 0.12052(15) 0.2062(2) 0.0307(3)
C1_2 C 0.31341(17) 0.2876(3) 0.0596(4)
H4_2 H 0.3638 0.0654 0.0093
H5_2 H 0.2928 0.0920 0.0316
C7_2 C 0.29976(17) 0.1686(3) 0.3828(4)
C8_2 C 0.3262(2) 0.0731(3) 0.4527(5)
H9_2 H 0.3052 0.0575 0.5357
H10_2 H 0.3739 0.0798 0.4970
H11_2 H 0.3367 0.0051 0.2590
C13_2 C 0.1200(2) 0.1087(3) 0.0168(6)
H17_2 H 0.1498 0.0711 0.0901
O9_2 O 0.26610(12) 0.4869(2) 0.2126(3)
O10_2 O 0.17142(12) 0.41248(19) 0.1072(3)
O11_2 O 0.16012(12) 0.3078(2) 0.3564(3)
O12_2 O 0.24818(13) 0.3931(2) 0.4701(3)
N3_2 N 0.38210(15) 0.4539(3) 0.4807(3)
O7_2 O 0.33988(12) 0.8078(2) 0.6436(3)
O8_2 O 0.25182(13) 0.8931(2) 0.5299(3)
C9_2 C 0.3146(2) 0.9898(3) 0.3403(4)
H12_2 H 0.2670 0.9852 0.2936
C10_2 C 0.33967(19) 0.8868(3) 0.4098(4)
H13_2 H 0.3260 0.8369 0.3283
C11_2 C 0.30805(19) 0.8602(3) 0.5375(4)
C12_2 C 0.4142(2) 0.8886(4) 0.4560(6)
H14_2 H 0.4305 0.8253 0.4988
H15_2 H 0.4289 0.9396 0.5319
H16_2 H 0.4312 0.9020 0.3673
Cu4 Cu 0.300688(19) 0.78193(3) 0.81509(4)
O3_2 O 0.23390(12) 0.9869(2) 0.7874(3)
O4_2 O 0.32858(12) 0.91248(19) 0.8928(3)
C5_2 C 0.2903(2) 0.9863(3) 0.8719(4)
H18_2 H 0.0857 0.9961 0.8867
H19_2 H 0.0177 0.9202 0.7376
N2_2 N 0.88210(15) 0.9539(3) 0.4807(3)
C17_2 C 0.98216(18) 0.9559(3) 0.6772(4)
C18_2 C 0.9333(2) 0.9080(3) 0.5664(4)
H20_2 H 0.9375 0.8399 0.5526
C2 C 0.15320(17) 0.7532(3) 0.0609(4)
H1 H 0.1069 0.7361 0.0103
C3 C 0.18492(19) 0.6652(3) 0.1464(4)
H2 H 0.1625 0.6495 0.2269
H3 H 0.2312 0.6803 0.1953
C4 C 0.1823(2) 0.5773(3) 0.0449(4)
C5_3 C 0.2097(2) 0.4863(3) 0.1281(4)
C6 C 0.1520(2) 0.8394(3) 0.1726(4)
H6 H 0.1312 0.8962 0.1157
H7 H 0.1970 0.8559 0.2263
H8 H 0.1272 0.8199 0.2457
C14 C 0.4212(3) 0.5631(4) 0.0969(6)
H18_3 H 0.4143 0.4961 0.1133
C15 C 0.47254(16) 0.6088(3) 0.1899(4)
C16_2 C 0.52256(19) 0.5551(3) 0.3033(4)
C17_3 C 0.51784(18) 0.4559(3) 0.3228(4)
H19_3 H 0.4823 0.4202 0.2624
C18_3 C 0.5667(2) 0.4080(3) 0.4336(4)
H20_3 H 0.5625 0.3399 0.4474
C19_2 C 0.6239(2) 0.5454(3) 0.4981(5)
H21_2 H 0.6625 0.5774 0.5526
C20_2 C 0.5760(2) 0.6003(3) 0.3979(5)
H22_2 H 0.5803 0.6691 0.3949
C21 C 0.4713(2) 0.7063(4) 0.1764(5)
H23_2 H 0.5035 0.7440 0.2440
C22 C 0.4265(2) 0.7507(3) 0.0714(5)
H24 H 0.4279 0.8198 0.0684
O1_3 O 0.15205(13) 0.8320(2) 0.8290(3)
O2_3 O 0.24699(11) 0.7710(2) 0.9621(2)
O5_3 O 0.25385(13) 0.6669(2) 0.7109(3)
O6_3 O 0.16844(12) 0.74395(19) 0.5764(3)
N1_3 N 0.37948(15) 0.7062(2) 0.9693(3)
C1_3 C 0.18659(17) 0.7876(3) 0.9404(4)
H4_3 H 0.1362 0.5654 0.9907
H5_3 H 0.2072 0.5920 0.9684
C7_3 C 0.20024(17) 0.6686(3) 0.6172(4)
C8_3 C 0.1738(2) 0.5731(3) 0.5473(5)
H9_3 H 0.1948 0.5575 0.4643
H10_3 H 0.1261 0.5798 0.5030
C9_3 C 0.1854(2) 0.4898(3) 0.6597(4)
H11_3 H 0.1633 0.5051 0.7410
H12_3 H 0.2330 0.4852 0.7064
C10_3 C 0.16033(19) 0.3868(3) 0.5902(4)
H13_3 H 0.1740 0.3369 0.6717
C11_3 C 0.19195(19) 0.3602(3) 0.4625(4)
C12_3 C 0.0858(2) 0.3886(4) 0.5440(6)
H14_3 H 0.0695 0.3253 0.5012
H15_3 H 0.0711 0.4396 0.4681
H16_3 H 0.0688 0.4020 0.6327
C13_3 C 0.3800(2) 0.6087(3) 0.9832(6)
H17_3 H 0.3502 0.5711 0.9099
O1_4 O 0.84795(13) 0.8320(2) 0.1710(3)
O2_4 O 0.75301(11) 0.7710(2) 0.0379(2)
O5_4 O 0.74615(13) 0.6669(2) 0.2891(3)
O6_4 O 0.83156(12) 0.74395(19) 0.4236(3)
N1_4 N 0.62052(15) 0.7062(2) 0.0307(3)
C1_4 C 0.81341(17) 0.7876(3) 0.0596(4)
H4_4 H 0.8638 0.5654 0.0093
H5_4 H 0.7928 0.5920 0.0316
C7_4 C 0.79976(17) 0.6686(3) 0.3828(4)
C8_4 C 0.8262(2) 0.5731(3) 0.4527(5)
H9_4 H 0.8052 0.5575 0.5357
H10_4 H 0.8739 0.5798 0.4970
C9_4 C 0.8146(2) 0.4898(3) 0.3403(4)
H11_4 H 0.8367 0.5051 0.2590
H12_4 H 0.7670 0.4852 0.2936
C10_4 C 0.83967(19) 0.3868(3) 0.4098(4)
H13_4 H 0.8260 0.3369 0.3283
C11_4 C 0.80805(19) 0.3602(3) 0.5375(4)
C12_4 C 0.9142(2) 0.3886(4) 0.4560(6)
H14_4 H 0.9305 0.3253 0.4988
H15_4 H 0.9289 0.4396 0.5319
H16_4 H 0.9312 0.4020 0.3673
C13_4 C 0.6200(2) 0.6087(3) 0.0168(6)
H17_4 H 0.6498 0.5711 0.0901
C2_2 C 0.84680(17) 0.7532(3) 0.9391(4)
H1_2 H 0.8931 0.7361 0.9897
C3_2 C 0.81508(19) 0.6652(3) 0.8536(4)
H2_2 H 0.8375 0.6495 0.7731
H3_2 H 0.7688 0.6803 0.8047
C4_2 C 0.8177(2) 0.5773(3) 0.9551(4)
C5_4 C 0.7903(2) 0.4863(3) 0.8719(4)
C6_2 C 0.8480(2) 0.8394(3) 0.8274(4)
H6_2 H 0.8688 0.8962 0.8843
H7_2 H 0.8030 0.8559 0.7737
H8_2 H 0.8728 0.8199 0.7543
C14_2 C 0.5788(3) 0.5631(4) 0.9031(6)
H18_4 H 0.5857 0.4961 0.8867
C15_2 C 0.52746(16) 0.6088(3) 0.8101(4)
C16_3 C 0.47744(19) 0.5551(3) 0.6967(4)
C17_4 C 0.48216(18) 0.4559(3) 0.6772(4)
H19_4 H 0.5177 0.4202 0.7376
C18_4 C 0.4333(2) 0.4080(3) 0.5664(4)
H20_4 H 0.4375 0.3399 0.5526
C19_3 C 0.3761(2) 0.5454(3) 0.5019(5)
H21_3 H 0.3375 0.5774 0.4474
C20_3 C 0.4240(2) 0.6003(3) 0.6021(5)
H22_3 H 0.4197 0.6691 0.6051
C21_2 C 0.5287(2) 0.7063(4) 0.8236(5)
H23_3 H 0.4965 0.7440 0.7560
C22_2 C 0.5735(2) 0.7507(3) 0.9286(5)
H24_2 H 0.5721 0.8198 0.9316
C2_3 C 0.65320(17) 0.2532(3) 0.0609(4)
H1_3 H 0.6069 0.2361 0.0103
C3_3 C 0.68492(19) 0.1652(3) 0.1464(4)
H2_3 H 0.6625 0.1495 0.2269
H3_3 H 0.7312 0.1803 0.1953
C4_3 C 0.6823(2) 0.0773(3) 0.0449(4)
C6_3 C 0.6520(2) 0.3394(3) 0.1726(4)
H6_3 H 0.6312 0.3962 0.1157
H7_3 H 0.6970 0.3559 0.2263
H8_3 H 0.6272 0.3199 0.2457
C14_3 C 0.9212(3) 0.0631(4) 0.0969(6)
C15_3 C 0.97254(16) 0.1088(3) 0.1899(4)
C21_3 C 0.9713(2) 0.2063(4) 0.1764(5)
C22_3 C 0.9265(2) 0.2507(3) 0.0714(5)
H24_3 H 0.9279 0.3198 0.0684
C2_4 C 0.34680(17) 0.2532(3) 0.9391(4)
H1_4 H 0.3931 0.2361 0.9897
C3_4 C 0.31508(19) 0.1652(3) 0.8536(4)
H2_4 H 0.3375 0.1495 0.7731
H3_4 H 0.2688 0.1803 0.8047
C4_4 C 0.3177(2) 0.0773(3) 0.9551(4)
C6_4 C 0.3480(2) 0.3394(3) 0.8274(4)
H6_4 H 0.3688 0.3962 0.8843
H7_4 H 0.3030 0.3559 0.7737
H8_4 H 0.3728 0.3199 0.7543
C14_4 C 0.0788(3) 0.0631(4) 0.9031(6)
C15_4 C 0.02746(16) 0.1088(3) 0.8101(4)
C21_4 C 0.0287(2) 0.2063(4) 0.8236(5)
C22_4 C 0.0735(2) 0.2507(3) 0.9286(5)
H24_4 H 0.0721 0.3198 0.9316
C16_4 C 0.97744(19) 0.0551(3) 0.6967(4)
C19_4 C 0.8761(2) 0.0454(3) 0.5019(5)
H21_4 H 0.8375 0.0774 0.4474
C20_4 C 0.9240(2) 0.1003(3) 0.6021(5)
H22_4 H 0.9197 0.1691 0.6051
H23_4 H 0.9965 0.2440 0.7560
loop_
_geom_bond_atom_site_label_1
_geom_bond_atom_site_label_2
_geom_bond_site_symmetry_1
_geom_bond_site_symmetry_2
H21 C19 1_555 1_555
C20 C16 1_555 1_555
H22 C20 1_555 1_555
C19 C20 1_555 1_555
N2 C18 1_555 1_555
C18 C17 1_555 1_555
H20 C18 1_555 1_555
Cu7 N2 1_555 1_555
Cu1 O2 1_555 1_555
Cu2 O1 1_555 1_555
O1 C1 1_555 1_555
O2 C1 1_555 1_555
O5 Cu1 1_555 1_555
O6 Cu2 1_555 1_555
N1 Cu1 1_555 1_555
C7 O5 1_555 1_555
C8 C7 1_555 1_555
H9 C8 1_555 1_555
H10 C8 1_555 1_555
C13 N1 1_555 1_555
H17 C13 1_555 1_555
O9 Cu2 1_555 1_555
O10 Cu1 1_555 1_555
O11 Cu1 1_555 1_555
O12 Cu2 1_555 1_555
N3 Cu2 1_555 1_555
O6 C7 1_555 1_555
O3 C5 1_555 1_555
O4 C5 1_555 1_555
Cu3 O4 1_555 1_555
Cu5 O3 1_555 1_555
O7 C11 1_555 1_555
O8 C11 1_555 1_555
H12 C9 1_555 1_555
C10 C9 1_555 1_555
H13 C10 1_555 1_555
C11 C10 1_555 1_555
C12 C10 1_555 1_555
H14 C12 1_555 1_555
H15 C12 1_555 1_555
H16 C12 1_555 1_555
Cu3 O7 1_555 1_555
Cu5 O8 1_555 1_555
Cu1_2 O2_2 1_555 1_555
Cu2_2 O1_2 1_555 1_555
O1_2 C1_2 1_555 1_555
O2_2 C1_2 1_555 1_555
O5_2 Cu1_2 1_555 1_555
O6_2 Cu2_2 1_555 1_555
N1_2 Cu1_2 1_555 1_555
C7_2 O5_2 1_555 1_555
C8_2 C7_2 1_555 1_555
H9_2 C8_2 1_555 1_555
H10_2 C8_2 1_555 1_555
C13_2 N1_2 1_555 1_555
H17_2 C13_2 1_555 1_555
O9_2 Cu2_2 1_555 1_555
O10_2 Cu1_2 1_555 1_555
O11_2 Cu1_2 1_555 1_555
O12_2 Cu2_2 1_555 1_555
N3_2 Cu2_2 1_555 1_555
O6_2 C7_2 1_555 1_555
O7_2 C11_2 1_555 1_555
O8_2 C11_2 1_555 1_555
H12_2 C9_2 1_555 1_555
C10_2 C9_2 1_555 1_555
H13_2 C10_2 1_555 1_555
C11_2 C10_2 1_555 1_555
C12_2 C10_2 1_555 1_555
H14_2 C12_2 1_555 1_555
H15_2 C12_2 1_555 1_555
H16_2 C12_2 1_555 1_555
Cu4 O7_2 1_555 1_555
Cu7 O8_2 1_555 1_555
O3_2 C5_2 1_555 1_555
O4_2 C5_2 1_555 1_555
Cu4 O4_2 1_555 1_555
Cu7 O3_2 1_555 1_555
N2_2 C18_2 1_555 1_555
C18_2 C17_2 1_555 1_555
H20_2 C18_2 1_555 1_555
Cu5 N2_2 1_555 1_555
O9_2 C5_3 1_555 1_555
O10_2 C5_3 1_555 1_555
N3 C18_3 1_555 1_555
C2 H1 1_555 1_555
C3 C2 1_555 1_555
H2 C3 1_555 1_555
H3 C3 1_555 1_555
C4 C3 1_555 1_555
C5_3 C4 1_555 1_555
C6 C2 1_555 1_555
H6 C6 1_555 1_555
H7 C6 1_555 1_555
H8 C6 1_555 1_555
H18_3 C14 1_555 1_555
C15 C14 1_555 1_555
C16_2 C15 1_555 1_555
C17_3 C16_2 1_555 1_555
H19_3 C17_3 1_555 1_555
C18_3 C17_3 1_555 1_555
H20_3 C18_3 1_555 1_555
C19_2 N3 1_555 1_555
H21_2 C19_2 1_555 1_555
C20_2 C16_2 1_555 1_555
H22_2 C20_2 1_555 1_555
C21 C15 1_555 1_555
H23_2 C21 1_555 1_555
H24 C22 1_555 1_555
C19_2 C20_2 1_555 1_555
C21 C22 1_555 1_555
Cu4 O2_3 1_555 1_555
Cu7 O1_3 1_555 1_555
O1_3 C1_3 1_555 1_555
O2_3 C1_3 1_555 1_555
O5_3 Cu4 1_555 1_555
O6_3 Cu7 1_555 1_555
O11_2 C11_3 1_555 1_555
O12_2 C11_3 1_555 1_555
N1_3 Cu4 1_555 1_555
C7_3 O5_3 1_555 1_555
C8_3 C7_3 1_555 1_555
H9_3 C8_3 1_555 1_555
H10_3 C8_3 1_555 1_555
C9_3 C8_3 1_555 1_555
H11_3 C9_3 1_555 1_555
H12_3 C9_3 1_555 1_555
C10_3 C9_3 1_555 1_555
H13_3 C10_3 1_555 1_555
C11_3 C10_3 1_555 1_555
C12_3 C10_3 1_555 1_555
H14_3 C12_3 1_555 1_555
H15_3 C12_3 1_555 1_555
H16_3 C12_3 1_555 1_555
C13_3 N1_3 1_555 1_555
H17_3 C13_3 1_555 1_555
O6_3 C7_3 1_555 1_555
Cu3 O2_4 1_555 1_555
Cu5 O1_4 1_555 1_555
O1_4 C1_4 1_555 1_555
O2_4 C1_4 1_555 1_555
O5_4 Cu3 1_555 1_555
O6_4 Cu5 1_555 1_555
O11 C11_4 1_555 1_555
O12 C11_4 1_555 1_555
N1_4 Cu3 1_555 1_555
C7_4 O5_4 1_555 1_555
C8_4 C7_4 1_555 1_555
H9_4 C8_4 1_555 1_555
H10_4 C8_4 1_555 1_555
C9_4 C8_4 1_555 1_555
H11_4 C9_4 1_555 1_555
H12_4 C9_4 1_555 1_555
C10_4 C9_4 1_555 1_555
H13_4 C10_4 1_555 1_555
C11_4 C10_4 1_555 1_555
C12_4 C10_4 1_555 1_555
H14_4 C12_4 1_555 1_555
H15_4 C12_4 1_555 1_555
H16_4 C12_4 1_555 1_555
C13_4 N1_4 1_555 1_555
H17_4 C13_4 1_555 1_555
O6_4 C7_4 1_555 1_555
O9 C5_4 1_555 1_555
O10 C5_4 1_555 1_555
N3_2 C18_4 1_555 1_555
C2_2 H1_2 1_555 1_555
C3_2 C2_2 1_555 1_555
H2_2 C3_2 1_555 1_555
H3_2 C3_2 1_555 1_555
C4_2 C3_2 1_555 1_555
C5_4 C4_2 1_555 1_555
C6_2 C2_2 1_555 1_555
H6_2 C6_2 1_555 1_555
H7_2 C6_2 1_555 1_555
H8_2 C6_2 1_555 1_555
H18_4 C14_2 1_555 1_555
C15_2 C14_2 1_555 1_555
C16_3 C15_2 1_555 1_555
C17_4 C16_3 1_555 1_555
H19_4 C17_4 1_555 1_555
C18_4 C17_4 1_555 1_555
H20_4 C18_4 1_555 1_555
C19_3 N3_2 1_555 1_555
H21_3 C19_3 1_555 1_555
C20_3 C16_3 1_555 1_555
H22_3 C20_3 1_555 1_555
C21_2 C15_2 1_555 1_555
H23_3 C21_2 1_555 1_555
H24_2 C22_2 1_555 1_555
C19_3 C20_3 1_555 1_555
C21_2 C22_2 1_555 1_555
C2_3 H1_3 1_555 1_555
C3_3 C2_3 1_555 1_555
H2_3 C3_3 1_555 1_555
H3_3 C3_3 1_555 1_555
C4_3 C3_3 1_555 1_555
C6_3 C2_3 1_555 1_555
H6_3 C6_3 1_555 1_555
H7_3 C6_3 1_555 1_555
H8_3 C6_3 1_555 1_555
C15_3 C14_3 1_555 1_555
C21_3 C15_3 1_555 1_555
H24_3 C22_3 1_555 1_555
C21_3 C22_3 1_555 1_555
C2_4 H1_4 1_555 1_555
C3_4 C2_4 1_555 1_555
H2_4 C3_4 1_555 1_555
H3_4 C3_4 1_555 1_555
C4_4 C3_4 1_555 1_555
C6_4 C2_4 1_555 1_555
H6_4 C6_4 1_555 1_555
H7_4 C6_4 1_555 1_555
H8_4 C6_4 1_555 1_555
C15_4 C14_4 1_555 1_555
C21_4 C15_4 1_555 1_555
H24_4 C22_4 1_555 1_555
C21_4 C22_4 1_555 1_555
H21_4 C19_4 1_555 1_555
C20_4 C16_4 1_555 1_555
H22_4 C20_4 1_555 1_555
C19_4 C20_4 1_555 1_555

#END
