
###############################################################################
#
# This file contains modified crystal structure data generated from the
# MOF subset of the Cambridge Structural Database (CSD) v543 
# hosted by the Cambridge Crystallographic Data Centre (CCDC).
#
# This work is licensed under the Creative Commons
# Attribution-NonCommercial-ShareAlike 4.0 International License.
# To view a copy of this license, visit
# http://creativecommons.org/licenses/by-nc-sa/4.0/
# or send a letter to
# Creative Commons, PO Box 1866, Mountain View, CA 94042, USA.
#
# CIF created using the CSD Python API on 29 September 2022
# The structure has been converted into the P1 space group
# The structure has a 3D framework
# The original CSD entry WOCVOC is in the orthorhombic crystal system
# The original CSD entry WOCVOC is in a Sohncke space group
# The framework has been calculated to contain at least 10.0% void space
# The void calculation uses a probe of radius 1.32A, grid spacing 0.4
# The framework is charged, counterions have been retained in the structure
#
###############################################################################

data_WOCVOC
_chemical_formula_moiety         '(C176 H160 Br8 N16 O53 Zn16)n'
_symmetry_cell_setting           triclinic
_symmetry_space_group_name_H-M   'P 1'
_symmetry_Int_Tables_number      1
_space_group_name_Hall           'P 1'
loop_
_symmetry_equiv_pos_site_id
_symmetry_equiv_pos_as_xyz
1 x,y,z
_cell_length_a                   12.2066(2)
_cell_length_b                   17.7543(3)
_cell_length_c                   23.7868(3)
_cell_angle_alpha                90
_cell_angle_beta                 90
_cell_angle_gamma                90
_cell_volume                     5155.07
loop_
_atom_site_label
_atom_site_type_symbol
_atom_site_fract_x
_atom_site_fract_y
_atom_site_fract_z
Br2 Br 0.12512(11) 0.42685(10) 0.06866(7)
Zn1 Zn 0.23744(8) 0.55033(5) 0.44857(4)
Zn2 Zn 0.05988(8) 0.42125(5) 0.45853(4)
O1 O 0.3118(5) 0.1516(3) 0.0762(2)
O2 O 0.6335(5) 0.4846(3) 0.0728(3)
O3 O 0.1342(6) 0.5000 0.5000
O4 O 0.1490(6) 0.3881(3) 0.3919(3)
O5 O 0.1689(6) 0.5091(3) 0.3707(2)
O6 O 0.4246(5) 0.1742(3) 0.0041(3)
O7 O 0.6590(5) 0.3962(3) 0.0074(3)
C1 C 0.3417(8) 0.3773(5) 0.2063(4)
C2 C 0.5224(6) 0.3767(4) 0.0760(3)
C3 C 0.3785(7) 0.1915(4) 0.0494(3)
C4 C 0.6113(6) 0.4227(4) 0.0494(3)
C5 C 0.4750(7) 0.3986(4) 0.1265(3)
H1 H 0.4976 0.4430 0.1436
C6 C 0.3626(7) 0.2886(4) 0.1252(4)
H2 H 0.3091 0.2584 0.1415
C7 C 0.3926(7) 0.3541(5) 0.1522(4)
C8 C 0.1811(7) 0.4404(4) 0.3596(3)
C9 C 0.4086(6) 0.2659(4) 0.0751(3)
C10 C 0.4892(6) 0.3103(4) 0.0501(4)
H3 H 0.5207 0.2956 0.0162
C11 C 0.2374(8) 0.4185(5) 0.3064(3)
C12 C 0.2762(13) 0.4701(6) 0.2708(5)
H4 H 0.2691 0.5209 0.2798
C13 C 0.2568(13) 0.3441(6) 0.2936(5)
H5 H 0.2331 0.3066 0.3180
C14 C 0.3111(14) 0.3245(5) 0.2447(6)
H6 H 0.3271 0.2741 0.2379
C15 C 0.3268(12) 0.4503(6) 0.2211(5)
H7 H 0.3513 0.4880 0.1971
Zn3 Zn 0.76256(8) 0.55033(5) 0.05143(4)
Zn4 Zn 0.94012(8) 0.42125(5) 0.04147(4)
O8 O 0.6882(5) 0.1516(3) 0.4238(2)
O9 O 0.3665(5) 0.4846(3) 0.4272(3)
O10 O 0.8510(6) 0.3881(3) 0.1081(3)
O11 O 0.8311(6) 0.5091(3) 0.1293(2)
O12 O 0.5754(5) 0.1742(3) 0.4959(3)
O13 O 0.3410(5) 0.3962(3) 0.4926(3)
C16 C 0.6583(8) 0.3773(5) 0.2937(4)
C17 C 0.4776(6) 0.3767(4) 0.4240(3)
C18 C 0.6215(7) 0.1915(4) 0.4506(3)
C19 C 0.3887(6) 0.4227(4) 0.4506(3)
C20 C 0.5250(7) 0.3986(4) 0.3735(3)
H8 H 0.5024 0.4430 0.3564
C21 C 0.6374(7) 0.2886(4) 0.3748(4)
H9 H 0.6909 0.2584 0.3585
C22 C 0.6074(7) 0.3541(5) 0.3478(4)
C23 C 0.8189(7) 0.4404(4) 0.1404(3)
C24 C 0.5914(6) 0.2659(4) 0.4249(3)
C25 C 0.5108(6) 0.3103(4) 0.4499(4)
H10 H 0.4793 0.2956 0.4838
C26 C 0.7626(8) 0.4185(5) 0.1936(3)
C27 C 0.7238(13) 0.4701(6) 0.2292(5)
H11 H 0.7309 0.5209 0.2202
C28 C 0.7432(13) 0.3441(6) 0.2064(5)
H12 H 0.7669 0.3066 0.1820
C29 C 0.6889(14) 0.3245(5) 0.2553(6)
H13 H 0.6729 0.2741 0.2621
C30 C 0.6732(12) 0.4503(6) 0.2789(5)
H14 H 0.6487 0.4880 0.3029
Zn6 Zn 0.23744(8) 0.44967(5) 0.55143(4)
Zn7 Zn 0.73744(8) 0.05033(5) 0.44857(4)
Zn8 Zn 0.26256(8) 0.05033(5) 0.05143(4)
Zn9 Zn 0.05988(8) 0.57875(5) 0.54147(4)
Zn11 Zn 0.55988(8) 0.07875(5) 0.54147(4)
O14 O 0.8118(5) 0.6516(3) 0.0762(2)
O15 O 0.1882(5) 0.6516(3) 0.4238(2)
O16 O 0.8658(6) 0.5000 0.0000
O17 O 0.0754(5) 0.3258(3) 0.5041(3)
O19 O 0.3410(5) 0.6038(3) 0.5074(3)
Zn5 Zn 0.76256(8) 0.44967(5) 0.94857(4)
Zn10 Zn 0.44012(8) 0.07875(5) 0.95853(4)
O16_2 O 0.8658(6) 0.5000 1.0000
O18 O 0.9246(5) 0.3258(3) 0.9959(3)
O20 O 0.6590(5) 0.6038(3) 0.9926(3)
Zn11_2 Zn 0.44012(8) 0.92125(5) 0.04147(4)
O17_2 O 0.9246(5) 0.6742(3) 0.0041(3)
Zn2_2 Zn 0.94012(8) 0.57875(5) 0.95853(4)
O1_2 O 0.6882(5) 0.8484(3) 0.5762(2)
O2_2 O 0.3665(5) 0.5154(3) 0.5728(3)
O4_2 O 0.8510(6) 0.6119(3) 0.8919(3)
O5_2 O 0.8311(6) 0.4909(3) 0.8707(2)
O6_2 O 0.5754(5) 0.8258(3) 0.5041(3)
C1_2 C 0.6583(8) 0.6227(5) 0.7063(4)
C2_2 C 0.4776(6) 0.6233(4) 0.5760(3)
C3_2 C 0.6215(7) 0.8085(4) 0.5494(3)
C4_2 C 0.3887(6) 0.5773(4) 0.5494(3)
C5_2 C 0.5250(7) 0.6014(4) 0.6265(3)
H1_2 H 0.5024 0.5570 0.6436
C6_2 C 0.6374(7) 0.7114(4) 0.6252(4)
H2_2 H 0.6909 0.7416 0.6415
C7_2 C 0.6074(7) 0.6459(5) 0.6522(4)
C8_2 C 0.8189(7) 0.5596(4) 0.8596(3)
C9_2 C 0.5914(6) 0.7341(4) 0.5751(3)
C10_2 C 0.5108(6) 0.6897(4) 0.5501(4)
H3_2 H 0.4793 0.7044 0.5162
C11_2 C 0.7626(8) 0.5815(5) 0.8064(3)
C12_2 C 0.7238(13) 0.5299(6) 0.7708(5)
H4_2 H 0.7309 0.4791 0.7798
C13_2 C 0.7432(13) 0.6559(6) 0.7936(5)
H5_2 H 0.7669 0.6934 0.8180
C14_2 C 0.6889(14) 0.6755(5) 0.7447(6)
H6_2 H 0.6729 0.7259 0.7379
C15_2 C 0.6732(12) 0.5497(6) 0.7211(5)
H7_2 H 0.6487 0.5120 0.6971
O8_2 O 0.3118(5) 0.8484(3) 0.9238(2)
O9_2 O 0.6335(5) 0.5154(3) 0.9272(3)
O10_2 O 0.1490(6) 0.6119(3) 0.6081(3)
O11_2 O 0.1689(6) 0.4909(3) 0.6293(2)
O12_2 O 0.4246(5) 0.8258(3) 0.9959(3)
C16_2 C 0.3417(8) 0.6227(5) 0.7937(4)
C17_2 C 0.5224(6) 0.6233(4) 0.9240(3)
C18_2 C 0.3785(7) 0.8085(4) 0.9506(3)
C19_2 C 0.6113(6) 0.5773(4) 0.9506(3)
C20_2 C 0.4750(7) 0.6014(4) 0.8735(3)
H8_2 H 0.4976 0.5570 0.8564
C21_2 C 0.3626(7) 0.7114(4) 0.8748(4)
H9_2 H 0.3091 0.7416 0.8585
C22_2 C 0.3926(7) 0.6459(5) 0.8478(4)
C23_2 C 0.1811(7) 0.5596(4) 0.6404(3)
C24_2 C 0.4086(6) 0.7341(4) 0.9249(3)
C25_2 C 0.4892(6) 0.6897(4) 0.9499(4)
H10_2 H 0.5207 0.7044 0.9838
C26_2 C 0.2374(8) 0.5815(5) 0.6936(3)
C27_2 C 0.2762(13) 0.5299(6) 0.7292(5)
H11_2 H 0.2691 0.4791 0.7202
C28_2 C 0.2568(13) 0.6559(6) 0.7064(5)
H12_2 H 0.2331 0.6934 0.6820
C29_2 C 0.3111(14) 0.6755(5) 0.7553(6)
H13_2 H 0.3271 0.7259 0.7621
C30_2 C 0.3268(12) 0.5497(6) 0.7789(5)
H14_2 H 0.3513 0.5120 0.8029
Zn7_2 Zn 0.26256(8) 0.94967(5) 0.94857(4)
Zn8_2 Zn 0.73744(8) 0.94967(5) 0.55143(4)
Zn10_2 Zn 0.55988(8) 0.92125(5) 0.45853(4)
O14_2 O 0.1882(5) 0.3484(3) 0.5762(2)
O15_2 O 0.8118(5) 0.3484(3) 0.9238(2)
O18_2 O 0.0754(5) 0.6742(3) 0.4959(3)
O11_3 O 0.3311(6) 0.0091(3) 0.1293(2)
H11_3 H 0.2309 0.0209 0.2202
O16_3 O 0.3658(6) 0.0000 0.0000
O16_4 O 0.3658(6) 0.0000 1.0000
O20_2 O 0.1590(5) 0.1038(3) 0.9926(3)
O2_3 O 0.1335(5) 0.9846(3) 0.0728(3)
O7_2 O 0.1590(5) 0.8962(3) 0.0074(3)
C2_3 C 0.0224(6) 0.8767(4) 0.0760(3)
C4_3 C 0.1113(6) 0.9227(4) 0.0494(3)
H3_3 H 0.0207 0.7956 0.0162
Br2_2 Br 0.62512(11) 0.92685(10) 0.06866(7)
O10_3 O 0.3510(6) 0.8881(3) 0.1081(3)
C16_3 C 0.1583(8) 0.8773(5) 0.2937(4)
C18_3 C 0.1215(7) 0.6915(4) 0.4506(3)
C20_3 C 0.0250(7) 0.8986(4) 0.3735(3)
H8_3 H 0.0024 0.9430 0.3564
C21_3 C 0.1374(7) 0.7886(4) 0.3748(4)
H9_3 H 0.1909 0.7584 0.3585
C22_3 C 0.1074(7) 0.8541(5) 0.3478(4)
C23_3 C 0.3189(7) 0.9404(4) 0.1404(3)
C24_3 C 0.0914(6) 0.7659(4) 0.4249(3)
C25_3 C 0.0108(6) 0.8103(4) 0.4499(4)
C26_3 C 0.2626(8) 0.9185(5) 0.1936(3)
C27_3 C 0.2238(13) 0.9701(6) 0.2292(5)
C28_3 C 0.2432(13) 0.8441(6) 0.2064(5)
H12_3 H 0.2669 0.8066 0.1820
C29_3 C 0.1889(14) 0.8245(5) 0.2553(6)
H13_3 H 0.1729 0.7741 0.2621
C30_3 C 0.1732(12) 0.9503(6) 0.2789(5)
H14_3 H 0.1487 0.9880 0.3029
O16_5 O 0.3658(6) 1.0000 0.0000
O16_6 O 0.3658(6) 1.0000 1.0000
O3_2 O 0.6342(6) 0.0000 0.5000
O5_3 O 0.6689(6) 0.0091(3) 0.3707(2)
H4_3 H 0.7691 0.0209 0.2798
O19_2 O 0.8410(5) 0.1038(3) 0.5074(3)
Br1 Br 0.37488(11) 0.92685(10) 0.43134(7)
O3_3 O 0.6342(6) 1.0000 0.5000
O4_3 O 0.6490(6) 0.8881(3) 0.3919(3)
C1_3 C 0.8417(8) 0.8773(5) 0.2063(4)
C3_3 C 0.8785(7) 0.6915(4) 0.0494(3)
C5_3 C 0.9750(7) 0.8986(4) 0.1265(3)
H1_3 H 0.9976 0.9430 0.1436
C6_3 C 0.8626(7) 0.7886(4) 0.1252(4)
H2_3 H 0.8091 0.7584 0.1415
C7_3 C 0.8926(7) 0.8541(5) 0.1522(4)
C8_3 C 0.6811(7) 0.9404(4) 0.3596(3)
C9_3 C 0.9086(6) 0.7659(4) 0.0751(3)
C10_3 C 0.9892(6) 0.8103(4) 0.0501(4)
C11_3 C 0.7374(8) 0.9185(5) 0.3064(3)
C12_3 C 0.7762(13) 0.9701(6) 0.2708(5)
C13_3 C 0.7568(13) 0.8441(6) 0.2936(5)
H5_3 H 0.7331 0.8066 0.3180
C14_3 C 0.8111(14) 0.8245(5) 0.2447(6)
H6_3 H 0.8271 0.7741 0.2379
C15_3 C 0.8268(12) 0.9503(6) 0.2211(5)
H7_3 H 0.8513 0.9880 0.1971
O9_3 O 0.8665(5) 0.9846(3) 0.4272(3)
O13_2 O 0.8410(5) 0.8962(3) 0.4926(3)
C17_3 C 0.9776(6) 0.8767(4) 0.4240(3)
C19_3 C 0.8887(6) 0.9227(4) 0.4506(3)
H10_3 H 0.9793 0.7956 0.4838
Br1_2 Br 0.62512(11) 0.07315(10) 0.93134(7)
O4_4 O 0.3510(6) 0.1119(3) 0.8919(3)
C1_4 C 0.1583(8) 0.1227(5) 0.7063(4)
C3_4 C 0.1215(7) 0.3085(4) 0.5494(3)
C5_4 C 0.0250(7) 0.1014(4) 0.6265(3)
H1_4 H 0.0024 0.0570 0.6436
C6_4 C 0.1374(7) 0.2114(4) 0.6252(4)
H2_4 H 0.1909 0.2416 0.6415
C7_4 C 0.1074(7) 0.1459(5) 0.6522(4)
C8_4 C 0.3189(7) 0.0596(4) 0.8596(3)
C9_4 C 0.0914(6) 0.2341(4) 0.5751(3)
C10_4 C 0.0108(6) 0.1897(4) 0.5501(4)
C11_4 C 0.2626(8) 0.0815(5) 0.8064(3)
C12_4 C 0.2238(13) 0.0299(6) 0.7708(5)
C13_4 C 0.2432(13) 0.1559(6) 0.7936(5)
H5_4 H 0.2669 0.1934 0.8180
C14_4 C 0.1889(14) 0.1755(5) 0.7447(6)
H6_4 H 0.1729 0.2259 0.7379
C15_4 C 0.1732(12) 0.0497(6) 0.7211(5)
H7_4 H 0.1487 0.0120 0.6971
O9_4 O 0.1335(5) 0.0154(3) 0.9272(3)
C17_4 C 0.0224(6) 0.1233(4) 0.9240(3)
C19_4 C 0.1113(6) 0.0773(4) 0.9506(3)
H10_4 H 0.0207 0.2044 0.9838
O5_4 O 0.3311(6) 0.9909(3) 0.8707(2)
H4_4 H 0.2309 0.9791 0.7798
O2_4 O 0.8665(5) 0.0154(3) 0.5728(3)
C2_4 C 0.9776(6) 0.1233(4) 0.5760(3)
C4_4 C 0.8887(6) 0.0773(4) 0.5494(3)
H3_4 H 0.9793 0.2044 0.5162
Br2_3 Br 0.37488(11) 0.07315(10) 0.56866(7)
O10_4 O 0.6490(6) 0.1119(3) 0.6081(3)
C16_4 C 0.8417(8) 0.1227(5) 0.7937(4)
C18_4 C 0.8785(7) 0.3085(4) 0.9506(3)
C20_4 C 0.9750(7) 0.1014(4) 0.8735(3)
H8_4 H 0.9976 0.0570 0.8564
C21_4 C 0.8626(7) 0.2114(4) 0.8748(4)
H9_4 H 0.8091 0.2416 0.8585
C22_4 C 0.8926(7) 0.1459(5) 0.8478(4)
C23_4 C 0.6811(7) 0.0596(4) 0.6404(3)
C24_4 C 0.9086(6) 0.2341(4) 0.9249(3)
C25_4 C 0.9892(6) 0.1897(4) 0.9499(4)
C26_4 C 0.7374(8) 0.0815(5) 0.6936(3)
C27_4 C 0.7762(13) 0.0299(6) 0.7292(5)
C28_4 C 0.7568(13) 0.1559(6) 0.7064(5)
H12_4 H 0.7331 0.1934 0.6820
C29_4 C 0.8111(14) 0.1755(5) 0.7553(6)
H13_4 H 0.8271 0.2259 0.7621
C30_4 C 0.8268(12) 0.0497(6) 0.7789(5)
H14_4 H 0.8513 0.0120 0.8029
O11_4 O 0.6689(6) 0.9909(3) 0.6293(2)
H11_4 H 0.7691 0.9791 0.7202
Br1_3 Br 0.87488(11) 0.42685(10) 0.43134(7)
Br1_4 Br 0.12512(11) 0.57315(10) 0.93134(7)
Br2_4 Br 0.87488(11) 0.57315(10) 0.56866(7)
N1 N 0.0433(8) 0.1762(6) 0.4017(5)
N2 N 0.2154(11) 0.1580(9) 0.4212(7)
C31 C 0.1397(16) 0.2081(8) 0.4081(6)
H15 H 0.1529 0.2594 0.4040
C32 C 0.0587(11) 0.1011(7) 0.4153(7)
H16 H 0.0043 0.0645 0.4158
C33 C 0.1628(15) 0.0898(9) 0.4276(9)
H17 H 0.1946 0.0445 0.4385
C34 C 0.400(5) 0.146(4) 0.3016(15)
H18 H 0.4402 0.1138 0.2761
H19 H 0.3263 0.1510 0.2886
H20 H 0.4346 0.1942 0.3032
C35 C 0.400(4) 0.109(2) 0.3628(18)
H21 H 0.4756 0.1021 0.3748
H22 H 0.3675 0.0589 0.3602
C36 C 0.3366(14) 0.155(3) 0.4101(16)
H23 H 0.3694 0.1400 0.4455
H24 H 0.3583 0.2074 0.4045
C37 C 0.9461(18) 0.2232(16) 0.3967(15)
H25 H 0.8822 0.1936 0.4046
H26 H 0.9414 0.2429 0.3592
H27 H 0.9507 0.2641 0.4230
C37_2 C 0.0539(18) 0.7768(16) 0.8967(15)
H25_2 H 0.1178 0.8064 0.9046
H26_2 H 0.0586 0.7571 0.8592
H27_2 H 0.0493 0.7359 0.9230
N1_2 N 0.9567(8) 0.8238(6) 0.9017(5)
N2_2 N 0.7846(11) 0.8420(9) 0.9212(7)
C31_2 C 0.8603(16) 0.7919(8) 0.9081(6)
H15_2 H 0.8471 0.7406 0.9040
C32_2 C 0.9413(11) 0.8989(7) 0.9153(7)
H16_2 H 0.9957 0.9355 0.9158
C33_2 C 0.8372(15) 0.9102(9) 0.9276(9)
H17_2 H 0.8054 0.9555 0.9385
C34_2 C 0.600(5) 0.854(4) 0.8016(15)
H18_2 H 0.5598 0.8862 0.7761
H19_2 H 0.6737 0.8490 0.7886
H20_2 H 0.5654 0.8058 0.8032
C35_2 C 0.600(4) 0.891(2) 0.8628(18)
H21_2 H 0.5244 0.8979 0.8748
H22_2 H 0.6325 0.9411 0.8602
C36_2 C 0.6634(14) 0.845(3) 0.9101(16)
H23_2 H 0.6306 0.8600 0.9455
H24_2 H 0.6417 0.7926 0.9045
C37_3 C 0.0539(18) 0.2232(16) 0.1033(15)
H25_3 H 0.1178 0.1936 0.0954
H26_3 H 0.0586 0.2429 0.1408
H27_3 H 0.0493 0.2641 0.0770
N1_3 N 0.9567(8) 0.1762(6) 0.0983(5)
N2_3 N 0.7846(11) 0.1580(9) 0.0788(7)
C31_3 C 0.8603(16) 0.2081(8) 0.0919(6)
H15_3 H 0.8471 0.2594 0.0960
C32_3 C 0.9413(11) 0.1011(7) 0.0847(7)
H16_3 H 0.9957 0.0645 0.0842
C33_3 C 0.8372(15) 0.0898(9) 0.0724(9)
H17_3 H 0.8054 0.0445 0.0615
C34_3 C 0.600(5) 0.146(4) 0.1984(15)
H18_3 H 0.5598 0.1138 0.2239
H19_3 H 0.6737 0.1510 0.2114
H20_3 H 0.5654 0.1942 0.1968
C35_3 C 0.600(4) 0.109(2) 0.1372(18)
H21_3 H 0.5244 0.1021 0.1252
H22_3 H 0.6325 0.0589 0.1398
C36_3 C 0.6634(14) 0.155(3) 0.0899(16)
H23_3 H 0.6306 0.1400 0.0545
H24_3 H 0.6417 0.2074 0.0955
N1_4 N 0.0433(8) 0.8238(6) 0.5983(5)
N2_4 N 0.2154(11) 0.8420(9) 0.5788(7)
C31_4 C 0.1397(16) 0.7919(8) 0.5919(6)
H15_4 H 0.1529 0.7406 0.5960
C32_4 C 0.0587(11) 0.8989(7) 0.5847(7)
H16_4 H 0.0043 0.9355 0.5842
C33_4 C 0.1628(15) 0.9102(9) 0.5724(9)
H17_4 H 0.1946 0.9555 0.5615
C34_4 C 0.400(5) 0.854(4) 0.6984(15)
H18_4 H 0.4402 0.8862 0.7239
H19_4 H 0.3263 0.8490 0.7114
H20_4 H 0.4346 0.8058 0.6968
C35_4 C 0.400(4) 0.891(2) 0.6372(18)
H21_4 H 0.4756 0.8979 0.6252
H22_4 H 0.3675 0.9411 0.6398
C36_4 C 0.3366(14) 0.845(3) 0.5899(16)
H23_4 H 0.3694 0.8600 0.5545
H24_4 H 0.3583 0.7926 0.5955
C37_4 C 0.9461(18) 0.7768(16) 0.6033(15)
H25_4 H 0.8822 0.8064 0.5954
H26_4 H 0.9414 0.7571 0.6408
H27_4 H 0.9507 0.7359 0.5770
N1_5 N 0.5433(8) 0.6762(6) 0.4017(5)
N2_5 N 0.7154(11) 0.6580(9) 0.4212(7)
C31_5 C 0.6397(16) 0.7081(8) 0.4081(6)
H15_5 H 0.6529 0.7594 0.4040
C32_5 C 0.5587(11) 0.6011(7) 0.4153(7)
H16_5 H 0.5043 0.5645 0.4158
C33_5 C 0.6628(15) 0.5898(9) 0.4276(9)
H17_5 H 0.6946 0.5445 0.4385
C34_5 C 0.900(5) 0.646(4) 0.3016(15)
H18_5 H 0.9402 0.6138 0.2761
H19_5 H 0.8263 0.6510 0.2886
H20_5 H 0.9346 0.6942 0.3032
C35_5 C 0.900(4) 0.609(2) 0.3628(18)
H21_5 H 0.9756 0.6021 0.3748
H22_5 H 0.8675 0.5589 0.3602
C36_5 C 0.8366(14) 0.655(3) 0.4101(16)
H23_5 H 0.8694 0.6400 0.4455
H24_5 H 0.8583 0.7074 0.4045
C37_5 C 0.4461(18) 0.7232(16) 0.3967(15)
H25_5 H 0.3822 0.6936 0.4046
H26_5 H 0.4414 0.7429 0.3592
H27_5 H 0.4507 0.7641 0.4230
N1_6 N 0.4567(8) 0.3238(6) 0.9017(5)
N2_6 N 0.2846(11) 0.3420(9) 0.9212(7)
C31_6 C 0.3603(16) 0.2919(8) 0.9081(6)
H15_6 H 0.3471 0.2406 0.9040
C32_6 C 0.4413(11) 0.3989(7) 0.9153(7)
H16_6 H 0.4957 0.4355 0.9158
C33_6 C 0.3372(15) 0.4102(9) 0.9276(9)
H17_6 H 0.3054 0.4555 0.9385
C34_6 C 0.100(5) 0.354(4) 0.8016(15)
H18_6 H 0.0598 0.3862 0.7761
H19_6 H 0.1737 0.3490 0.7886
H20_6 H 0.0654 0.3058 0.8032
C35_6 C 0.100(4) 0.391(2) 0.8628(18)
H21_6 H 0.0244 0.3979 0.8748
H22_6 H 0.1325 0.4411 0.8602
C36_6 C 0.1634(14) 0.345(3) 0.9101(16)
H23_6 H 0.1306 0.3600 0.9455
H24_6 H 0.1417 0.2926 0.9045
C37_6 C 0.5539(18) 0.2768(16) 0.8967(15)
H25_6 H 0.6178 0.3064 0.9046
H26_6 H 0.5586 0.2571 0.8592
H27_6 H 0.5493 0.2359 0.9230
N1_7 N 0.4567(8) 0.6762(6) 0.0983(5)
N2_7 N 0.2846(11) 0.6580(9) 0.0788(7)
C31_7 C 0.3603(16) 0.7081(8) 0.0919(6)
H15_7 H 0.3471 0.7594 0.0960
C32_7 C 0.4413(11) 0.6011(7) 0.0847(7)
H16_7 H 0.4957 0.5645 0.0842
C33_7 C 0.3372(15) 0.5898(9) 0.0724(9)
H17_7 H 0.3054 0.5445 0.0615
C34_7 C 0.100(5) 0.646(4) 0.1984(15)
H18_7 H 0.0598 0.6138 0.2239
H19_7 H 0.1737 0.6510 0.2114
H20_7 H 0.0654 0.6942 0.1968
C35_7 C 0.100(4) 0.609(2) 0.1372(18)
H21_7 H 0.0244 0.6021 0.1252
H22_7 H 0.1325 0.5589 0.1398
C36_7 C 0.1634(14) 0.655(3) 0.0899(16)
H23_7 H 0.1306 0.6400 0.0545
H24_7 H 0.1417 0.7074 0.0955
C37_7 C 0.5539(18) 0.7232(16) 0.1033(15)
H25_7 H 0.6178 0.6936 0.0954
H26_7 H 0.5586 0.7429 0.1408
H27_7 H 0.5493 0.7641 0.0770
N1_8 N 0.5433(8) 0.3238(6) 0.5983(5)
N2_8 N 0.7154(11) 0.3420(9) 0.5788(7)
C31_8 C 0.6397(16) 0.2919(8) 0.5919(6)
H15_8 H 0.6529 0.2406 0.5960
C32_8 C 0.5587(11) 0.3989(7) 0.5847(7)
H16_8 H 0.5043 0.4355 0.5842
C33_8 C 0.6628(15) 0.4102(9) 0.5724(9)
H17_8 H 0.6946 0.4555 0.5615
C34_8 C 0.900(5) 0.354(4) 0.6984(15)
H18_8 H 0.9402 0.3862 0.7239
H19_8 H 0.8263 0.3490 0.7114
H20_8 H 0.9346 0.3058 0.6968
C35_8 C 0.900(4) 0.391(2) 0.6372(18)
H21_8 H 0.9756 0.3979 0.6252
H22_8 H 0.8675 0.4411 0.6398
C36_8 C 0.8366(14) 0.345(3) 0.5899(16)
H23_8 H 0.8694 0.3600 0.5545
H24_8 H 0.8583 0.2926 0.5955
C37_8 C 0.4461(18) 0.2768(16) 0.6033(15)
H25_8 H 0.3822 0.3064 0.5954
H26_8 H 0.4414 0.2571 0.6408
H27_8 H 0.4507 0.2359 0.5770
loop_
_geom_bond_atom_site_label_1
_geom_bond_atom_site_label_2
_geom_bond_site_symmetry_1
_geom_bond_site_symmetry_2
Zn1 O3 1_555 1_555
O1 C3 1_555 1_555
O2 C4 1_555 1_555
O3 Zn2 1_555 1_555
O4 Zn2 1_555 1_555
O5 Zn1 1_555 1_555
O6 C3 1_555 1_555
O7 C4 1_555 1_555
C1 C7 1_555 1_555
C2 C4 1_555 1_555
C3 C9 1_555 1_555
C5 C2 1_555 1_555
H1 C5 1_555 1_555
C6 H2 1_555 1_555
C7 C5 1_555 1_555
C8 O4 1_555 1_555
C9 C6 1_555 1_555
C10 C2 1_555 1_555
H3 C10 1_555 1_555
C11 C8 1_555 1_555
C12 C11 1_555 1_555
H4 C12 1_555 1_555
C13 C11 1_555 1_555
H5 C13 1_555 1_555
C14 C1 1_555 1_555
H6 C14 1_555 1_555
C15 C1 1_555 1_555
H7 C15 1_555 1_555
Zn3 O2 1_555 1_555
O8 C18 1_555 1_555
O9 Zn1 1_555 1_555
O10 Zn4 1_555 1_555
O11 Zn3 1_555 1_555
O12 C18 1_555 1_555
O13 C19 1_555 1_555
C16 C22 1_555 1_555
C17 C19 1_555 1_555
C18 C24 1_555 1_555
C19 O9 1_555 1_555
C20 C17 1_555 1_555
H8 C20 1_555 1_555
C21 H9 1_555 1_555
C22 C20 1_555 1_555
C23 O10 1_555 1_555
C24 C21 1_555 1_555
C25 C17 1_555 1_555
H10 C25 1_555 1_555
C26 C23 1_555 1_555
C27 C26 1_555 1_555
H11 C27 1_555 1_555
C28 C26 1_555 1_555
H12 C28 1_555 1_555
C29 C16 1_555 1_555
H13 C29 1_555 1_555
C30 C16 1_555 1_555
H14 C30 1_555 1_555
Zn6 O3 1_555 1_555
Zn7 O8 1_555 1_555
Zn8 O1 1_555 1_555
Zn9 O3 1_555 1_555
Zn11 O12 1_555 1_555
O14 Zn3 1_555 1_555
O15 Zn1 1_555 1_555
O16 Zn3 1_555 1_555
O17 Zn2 1_555 1_555
O19 Zn1 1_555 1_555
O5 C8 1_555 1_555
C6 C7 1_555 1_555
C9 C10 1_555 1_555
C12 C15 1_555 1_555
C13 C14 1_555 1_555
Zn4 O16 1_555 1_555
O11 C23 1_555 1_555
O13 Zn6 1_555 1_555
C21 C22 1_555 1_555
C24 C25 1_555 1_555
C27 C30 1_555 1_555
C28 C29 1_555 1_555
Zn5 O16_2 1_555 1_555
O1_2 C3_2 1_555 1_555
O2_2 C4_2 1_555 1_555
O16_2 Zn2_2 1_555 1_555
O4_2 Zn2_2 1_555 1_555
O5_2 Zn5 1_555 1_555
O6_2 C3_2 1_555 1_555
O19 C4_2 1_555 1_555
C1_2 C7_2 1_555 1_555
C2_2 C4_2 1_555 1_555
C3_2 C9_2 1_555 1_555
C5_2 C2_2 1_555 1_555
H1_2 C5_2 1_555 1_555
C6_2 H2_2 1_555 1_555
C7_2 C5_2 1_555 1_555
C8_2 O4_2 1_555 1_555
C9_2 C6_2 1_555 1_555
C10_2 C2_2 1_555 1_555
H3_2 C10_2 1_555 1_555
C11_2 C8_2 1_555 1_555
C12_2 C11_2 1_555 1_555
H4_2 C12_2 1_555 1_555
C13_2 C11_2 1_555 1_555
H5_2 C13_2 1_555 1_555
C14_2 C1_2 1_555 1_555
H6_2 C14_2 1_555 1_555
C15_2 C1_2 1_555 1_555
H7_2 C15_2 1_555 1_555
Zn6 O2_2 1_555 1_555
O8_2 C18_2 1_555 1_555
O9_2 Zn5 1_555 1_555
O10_2 Zn9 1_555 1_555
O11_2 Zn6 1_555 1_555
O12_2 C18_2 1_555 1_555
O20 C19_2 1_555 1_555
C16_2 C22_2 1_555 1_555
C17_2 C19_2 1_555 1_555
C18_2 C24_2 1_555 1_555
C19_2 O9_2 1_555 1_555
C20_2 C17_2 1_555 1_555
H8_2 C20_2 1_555 1_555
C21_2 H9_2 1_555 1_555
C22_2 C20_2 1_555 1_555
C23_2 O10_2 1_555 1_555
C24_2 C21_2 1_555 1_555
C25_2 C17_2 1_555 1_555
H10_2 C25_2 1_555 1_555
C26_2 C23_2 1_555 1_555
C27_2 C26_2 1_555 1_555
H11_2 C27_2 1_555 1_555
C28_2 C26_2 1_555 1_555
H12_2 C28_2 1_555 1_555
C29_2 C16_2 1_555 1_555
H13_2 C29_2 1_555 1_555
C30_2 C16_2 1_555 1_555
H14_2 C30_2 1_555 1_555
Zn7_2 O8_2 1_555 1_555
Zn8_2 O1_2 1_555 1_555
Zn10_2 O6_2 1_555 1_555
O14_2 Zn6 1_555 1_555
O15_2 Zn5 1_555 1_555
O18_2 Zn9 1_555 1_555
O5_2 C8_2 1_555 1_555
C6_2 C7_2 1_555 1_555
C9_2 C10_2 1_555 1_555
C12_2 C15_2 1_555 1_555
C13_2 C14_2 1_555 1_555
O11_2 C23_2 1_555 1_555
C21_2 C22_2 1_555 1_555
C24_2 C25_2 1_555 1_555
C27_2 C30_2 1_555 1_555
C28_2 C29_2 1_555 1_555
O11_3 Zn8 1_555 1_555
O16_3 Zn8 1_555 1_555
O2_3 C4_3 1_555 1_555
O7_2 C4_3 1_555 1_555
C2_3 C4_3 1_555 1_555
Zn11_2 Br2_2 1_555 1_555
O15 C18_3 1_555 1_555
O10_3 Zn11_2 1_555 1_555
O18_2 C18_3 1_555 1_555
C16_3 C22_3 1_555 1_555
C18_3 C24_3 1_555 1_555
H8_3 C20_3 1_555 1_555
C21_3 H9_3 1_555 1_555
C22_3 C20_3 1_555 1_555
C23_3 O10_3 1_555 1_555
C24_3 C21_3 1_555 1_555
C26_3 C23_3 1_555 1_555
C27_3 C26_3 1_555 1_555
C28_3 C26_3 1_555 1_555
H12_3 C28_3 1_555 1_555
C29_3 C16_3 1_555 1_555
H13_3 C29_3 1_555 1_555
C30_3 C16_3 1_555 1_555
H14_3 C30_3 1_555 1_555
Zn11_2 O16_5 1_555 1_555
C21_3 C22_3 1_555 1_555
C24_3 C25_3 1_555 1_555
C27_3 C30_3 1_555 1_555
C28_3 C29_3 1_555 1_555
Zn7_2 O16_6 1_555 1_555
Zn7 O3_2 1_555 1_555
O5_3 Zn7 1_555 1_555
Zn11 O3_2 1_555 1_555
O19_2 Zn7 1_555 1_555
Zn10_2 Br1 1_555 1_555
O14 C3_3 1_555 1_555
O3_3 Zn10_2 1_555 1_555
O4_3 Zn10_2 1_555 1_555
O17_2 C3_3 1_555 1_555
C1_3 C7_3 1_555 1_555
C3_3 C9_3 1_555 1_555
H1_3 C5_3 1_555 1_555
C6_3 H2_3 1_555 1_555
C7_3 C5_3 1_555 1_555
C8_3 O4_3 1_555 1_555
C9_3 C6_3 1_555 1_555
C11_3 C8_3 1_555 1_555
C12_3 C11_3 1_555 1_555
C13_3 C11_3 1_555 1_555
H5_3 C13_3 1_555 1_555
C14_3 C1_3 1_555 1_555
H6_3 C14_3 1_555 1_555
C15_3 C1_3 1_555 1_555
H7_3 C15_3 1_555 1_555
O13_2 C19_3 1_555 1_555
C17_3 C19_3 1_555 1_555
C19_3 O9_3 1_555 1_555
Zn8_2 O3_3 1_555 1_555
C6_3 C7_3 1_555 1_555
C9_3 C10_3 1_555 1_555
C12_3 C15_3 1_555 1_555
C13_3 C14_3 1_555 1_555
O13_2 Zn8_2 1_555 1_555
Zn10 Br1_2 1_555 1_555
O14_2 C3_4 1_555 1_555
O16_4 Zn10 1_555 1_555
O4_4 Zn10 1_555 1_555
O17 C3_4 1_555 1_555
C1_4 C7_4 1_555 1_555
C3_4 C9_4 1_555 1_555
H1_4 C5_4 1_555 1_555
C6_4 H2_4 1_555 1_555
C7_4 C5_4 1_555 1_555
C8_4 O4_4 1_555 1_555
C9_4 C6_4 1_555 1_555
C11_4 C8_4 1_555 1_555
C12_4 C11_4 1_555 1_555
C13_4 C11_4 1_555 1_555
H5_4 C13_4 1_555 1_555
C14_4 C1_4 1_555 1_555
H6_4 C14_4 1_555 1_555
C15_4 C1_4 1_555 1_555
H7_4 C15_4 1_555 1_555
O20_2 C19_4 1_555 1_555
C17_4 C19_4 1_555 1_555
C19_4 O9_4 1_555 1_555
C6_4 C7_4 1_555 1_555
C9_4 C10_4 1_555 1_555
C12_4 C15_4 1_555 1_555
C13_4 C14_4 1_555 1_555
O5_4 Zn7_2 1_555 1_555
O2_4 C4_4 1_555 1_555
O19_2 C4_4 1_555 1_555
C2_4 C4_4 1_555 1_555
Zn11 Br2_3 1_555 1_555
O15_2 C18_4 1_555 1_555
O10_4 Zn11 1_555 1_555
O18 C18_4 1_555 1_555
C16_4 C22_4 1_555 1_555
C18_4 C24_4 1_555 1_555
H8_4 C20_4 1_555 1_555
C21_4 H9_4 1_555 1_555
C22_4 C20_4 1_555 1_555
C23_4 O10_4 1_555 1_555
C24_4 C21_4 1_555 1_555
C26_4 C23_4 1_555 1_555
C27_4 C26_4 1_555 1_555
C28_4 C26_4 1_555 1_555
H12_4 C28_4 1_555 1_555
C29_4 C16_4 1_555 1_555
H13_4 C29_4 1_555 1_555
C30_4 C16_4 1_555 1_555
H14_4 C30_4 1_555 1_555
C21_4 C22_4 1_555 1_555
C24_4 C25_4 1_555 1_555
C27_4 C30_4 1_555 1_555
C28_4 C29_4 1_555 1_555
O11_4 Zn8_2 1_555 1_555
N1 C31 1_555 1_555
N2 C31 1_555 1_555
C31 H15 1_555 1_555
C32 N1 1_555 1_555
H16 C32 1_555 1_555
C33 N2 1_555 1_555
H17 C33 1_555 1_555
C34 H18 1_555 1_555
H19 C34 1_555 1_555
H20 C34 1_555 1_555
C35 C34 1_555 1_555
H21 C35 1_555 1_555
H22 C35 1_555 1_555
C36 N2 1_555 1_555
H23 C36 1_555 1_555
H24 C36 1_555 1_555
C32 C33 1_555 1_555
C35 C36 1_555 1_555
H25 C37 1_555 1_555
H26 C37 1_555 1_555
H27 C37 1_555 1_555
H25_2 C37_2 1_555 1_555
H26_2 C37_2 1_555 1_555
H27_2 C37_2 1_555 1_555
N1_2 C31_2 1_555 1_555
N2_2 C31_2 1_555 1_555
C31_2 H15_2 1_555 1_555
C32_2 N1_2 1_555 1_555
H16_2 C32_2 1_555 1_555
C33_2 N2_2 1_555 1_555
H17_2 C33_2 1_555 1_555
C34_2 H18_2 1_555 1_555
H19_2 C34_2 1_555 1_555
H20_2 C34_2 1_555 1_555
C35_2 C34_2 1_555 1_555
H21_2 C35_2 1_555 1_555
H22_2 C35_2 1_555 1_555
C36_2 N2_2 1_555 1_555
H23_2 C36_2 1_555 1_555
H24_2 C36_2 1_555 1_555
C32_2 C33_2 1_555 1_555
C35_2 C36_2 1_555 1_555
H25_3 C37_3 1_555 1_555
H26_3 C37_3 1_555 1_555
H27_3 C37_3 1_555 1_555
N1_3 C31_3 1_555 1_555
N2_3 C31_3 1_555 1_555
C31_3 H15_3 1_555 1_555
C32_3 N1_3 1_555 1_555
H16_3 C32_3 1_555 1_555
C33_3 N2_3 1_555 1_555
H17_3 C33_3 1_555 1_555
C34_3 H18_3 1_555 1_555
H19_3 C34_3 1_555 1_555
H20_3 C34_3 1_555 1_555
C35_3 C34_3 1_555 1_555
H21_3 C35_3 1_555 1_555
H22_3 C35_3 1_555 1_555
C36_3 N2_3 1_555 1_555
H23_3 C36_3 1_555 1_555
H24_3 C36_3 1_555 1_555
C32_3 C33_3 1_555 1_555
C35_3 C36_3 1_555 1_555
N1_4 C31_4 1_555 1_555
N2_4 C31_4 1_555 1_555
C31_4 H15_4 1_555 1_555
C32_4 N1_4 1_555 1_555
H16_4 C32_4 1_555 1_555
C33_4 N2_4 1_555 1_555
H17_4 C33_4 1_555 1_555
C34_4 H18_4 1_555 1_555
H19_4 C34_4 1_555 1_555
H20_4 C34_4 1_555 1_555
C35_4 C34_4 1_555 1_555
H21_4 C35_4 1_555 1_555
H22_4 C35_4 1_555 1_555
C36_4 N2_4 1_555 1_555
H23_4 C36_4 1_555 1_555
H24_4 C36_4 1_555 1_555
C32_4 C33_4 1_555 1_555
C35_4 C36_4 1_555 1_555
H25_4 C37_4 1_555 1_555
H26_4 C37_4 1_555 1_555
H27_4 C37_4 1_555 1_555
N1_5 C31_5 1_555 1_555
N2_5 C31_5 1_555 1_555
C31_5 H15_5 1_555 1_555
C32_5 N1_5 1_555 1_555
H16_5 C32_5 1_555 1_555
C33_5 N2_5 1_555 1_555
H17_5 C33_5 1_555 1_555
C34_5 H18_5 1_555 1_555
H19_5 C34_5 1_555 1_555
H20_5 C34_5 1_555 1_555
C35_5 C34_5 1_555 1_555
H21_5 C35_5 1_555 1_555
H22_5 C35_5 1_555 1_555
C36_5 N2_5 1_555 1_555
H23_5 C36_5 1_555 1_555
H24_5 C36_5 1_555 1_555
C37_5 N1_5 1_555 1_555
H25_5 C37_5 1_555 1_555
H26_5 C37_5 1_555 1_555
H27_5 C37_5 1_555 1_555
C32_5 C33_5 1_555 1_555
C35_5 C36_5 1_555 1_555
N1_6 C31_6 1_555 1_555
N2_6 C31_6 1_555 1_555
C31_6 H15_6 1_555 1_555
C32_6 N1_6 1_555 1_555
H16_6 C32_6 1_555 1_555
C33_6 N2_6 1_555 1_555
H17_6 C33_6 1_555 1_555
C34_6 H18_6 1_555 1_555
H19_6 C34_6 1_555 1_555
H20_6 C34_6 1_555 1_555
C35_6 C34_6 1_555 1_555
H21_6 C35_6 1_555 1_555
H22_6 C35_6 1_555 1_555
C36_6 N2_6 1_555 1_555
H23_6 C36_6 1_555 1_555
H24_6 C36_6 1_555 1_555
C37_6 N1_6 1_555 1_555
H25_6 C37_6 1_555 1_555
H26_6 C37_6 1_555 1_555
H27_6 C37_6 1_555 1_555
C32_6 C33_6 1_555 1_555
C35_6 C36_6 1_555 1_555
N1_7 C31_7 1_555 1_555
N2_7 C31_7 1_555 1_555
C31_7 H15_7 1_555 1_555
C32_7 N1_7 1_555 1_555
H16_7 C32_7 1_555 1_555
C33_7 N2_7 1_555 1_555
H17_7 C33_7 1_555 1_555
C34_7 H18_7 1_555 1_555
H19_7 C34_7 1_555 1_555
H20_7 C34_7 1_555 1_555
C35_7 C34_7 1_555 1_555
H21_7 C35_7 1_555 1_555
H22_7 C35_7 1_555 1_555
C36_7 N2_7 1_555 1_555
H23_7 C36_7 1_555 1_555
H24_7 C36_7 1_555 1_555
C37_7 N1_7 1_555 1_555
H25_7 C37_7 1_555 1_555
H26_7 C37_7 1_555 1_555
H27_7 C37_7 1_555 1_555
C32_7 C33_7 1_555 1_555
C35_7 C36_7 1_555 1_555
N1_8 C31_8 1_555 1_555
N2_8 C31_8 1_555 1_555
C31_8 H15_8 1_555 1_555
C32_8 N1_8 1_555 1_555
H16_8 C32_8 1_555 1_555
C33_8 N2_8 1_555 1_555
H17_8 C33_8 1_555 1_555
C34_8 H18_8 1_555 1_555
H19_8 C34_8 1_555 1_555
H20_8 C34_8 1_555 1_555
C35_8 C34_8 1_555 1_555
H21_8 C35_8 1_555 1_555
H22_8 C35_8 1_555 1_555
C36_8 N2_8 1_555 1_555
H23_8 C36_8 1_555 1_555
H24_8 C36_8 1_555 1_555
C37_8 N1_8 1_555 1_555
H25_8 C37_8 1_555 1_555
H26_8 C37_8 1_555 1_555
H27_8 C37_8 1_555 1_555
C32_8 C33_8 1_555 1_555
C35_8 C36_8 1_555 1_555

#END
