
###############################################################################
#
# This file contains modified crystal structure data generated from the
# MOF subset of the Cambridge Structural Database (CSD) v543 
# hosted by the Cambridge Crystallographic Data Centre (CCDC).
#
# This work is licensed under the Creative Commons
# Attribution-NonCommercial-ShareAlike 4.0 International License.
# To view a copy of this license, visit
# http://creativecommons.org/licenses/by-nc-sa/4.0/
# or send a letter to
# Creative Commons, PO Box 1866, Mountain View, CA 94042, USA.
#
# CIF created using the CSD Python API on 29 September 2022
# The structure has been converted into the P1 space group
# The structure has a 3D framework
# The original CSD entry WOCVIW is in the orthorhombic crystal system
# The framework has been calculated to contain at least 10.0% void space
# The void calculation uses a probe of radius 1.32A, grid spacing 0.4
#
###############################################################################

data_WOCVIW
_chemical_formula_moiety         '(C160 H80 Co8 N32 O30 S24)n'
_symmetry_cell_setting           triclinic
_symmetry_space_group_name_H-M   'P 1'
_symmetry_Int_Tables_number      1
_space_group_name_Hall           'P 1'
loop_
_symmetry_equiv_pos_site_id
_symmetry_equiv_pos_as_xyz
1 x,y,z
_cell_length_a                   17.1969(6)
_cell_length_b                   17.5745(6)
_cell_length_c                   16.4439(8)
_cell_angle_alpha                90
_cell_angle_beta                 90
_cell_angle_gamma                90
_cell_volume                     4969.79
loop_
_atom_site_label
_atom_site_type_symbol
_atom_site_fract_x
_atom_site_fract_y
_atom_site_fract_z
Co2 Co 0.02769(3) 0.43478(3) 0.60129(3)
S1 S 0.00930(7) 0.31229(6) 0.27167(6)
S2 S 0.45287(6) 0.50578(8) 0.65207(9)
S3 S 0.60179(7) 0.36513(9) 0.52905(9)
O2 O 0.02908(17) 0.41034(17) 0.48292(17)
O3 O 0.03919(19) 0.09496(17) 0.22418(19)
O4 O 0.0253(2) 0.19098(18) 0.13984(19)
N1 N 0.90191(18) 0.4283(2) 0.6015(2)
N2 N 0.15229(18) 0.4410(2) 0.5932(2)
N3 N 0.4418(2) 0.3937(2) 0.5467(3)
C1 C 0.0071(2) 0.4023(2) 0.4114(2)
N4 N 0.6133(2) 0.4775(2) 0.6324(3)
C2 C 0.3151(2) 0.4448(3) 0.5900(3)
C3 C 0.7399(2) 0.4280(3) 0.5919(3)
C4 C 0.0321(3) 0.2169(2) 0.2814(2)
C5 C 0.0192(2) 0.3258(2) 0.3743(2)
C6 C 0.0328(2) 0.1655(3) 0.2105(3)
C7 C 0.2727(3) 0.4950(3) 0.6362(3)
H1 H 0.2983 0.5316 0.6671
C8 C 0.7788(2) 0.4785(3) 0.6413(3)
H2 H 0.7513 0.5132 0.6728
C9 C 0.7836(3) 0.3763(3) 0.5478(3)
H3 H 0.7597 0.3405 0.5145
C10 C 0.1920(2) 0.4917(3) 0.6372(3)
H4 H 0.1647 0.5259 0.6695
C11 C 0.4004(2) 0.4437(3) 0.5904(3)
C12 C 0.1935(3) 0.3927(3) 0.5482(3)
H5 H 0.1666 0.3571 0.5172
C13 C 0.6543(2) 0.4286(3) 0.5895(3)
C14 C 0.8645(3) 0.3792(3) 0.5545(3)
H6 H 0.8937 0.3448 0.5243
C15 C 0.5185(2) 0.4074(3) 0.5637(3)
C16 C 0.2734(3) 0.3923(3) 0.5448(3)
H7 H 0.2992 0.3570 0.5124
C17 C 0.5367(2) 0.4643(3) 0.6173(3)
C18 C 0.8590(3) 0.4770(3) 0.6435(3)
H8 H 0.8843 0.5122 0.6763
C19 C 0.0466(3) 0.1993(2) 0.3604(3)
H9 H 0.0596 0.1505 0.3775
C20 C 0.0400(3) 0.2611(2) 0.4141(3)
H10 H 0.0488 0.2582 0.4698
Co4 Co 0.02769(3) 0.06522(3) 0.10129(3)
O5 O 0.02334(17) 0.54733(15) 0.63190(18)
O6 O 0.03919(19) 0.40504(17) 0.72418(19)
O7 O 0.0253(2) 0.30902(18) 0.63984(19)
O1 O 0.97666(17) 0.45267(15) 0.36810(18)
Co3 Co 0.97231(3) 0.56522(3) 0.39871(3)
N5 N 0.09809(18) 0.9283(2) 0.8985(2)
S1_2 S 0.99070(7) 0.81229(6) 0.22833(6)
O2_2 O 0.97092(17) 0.91034(17) 0.01708(17)
O3_2 O 0.96081(19) 0.59496(17) 0.27582(19)
O4_2 O 0.9747(2) 0.69098(18) 0.36016(19)
C1_2 C 0.9929(2) 0.9023(2) 0.0886(2)
C4_2 C 0.9679(3) 0.7169(2) 0.2186(2)
C5_2 C 0.9808(2) 0.8258(2) 0.1257(2)
C6_2 C 0.9672(2) 0.6655(3) 0.2895(3)
C19_2 C 0.9534(3) 0.6993(2) 0.1396(3)
H9_2 H 0.9404 0.6505 0.1225
C20_2 C 0.9600(3) 0.7611(2) 0.0859(3)
H10_2 H 0.9512 0.7582 0.0302
Co1 Co 0.97231(3) 0.93478(3) 0.89871(3)
S3_2 S 0.39821(7) 0.86513(9) 0.97095(9)
N2_2 N 0.84771(18) 0.9410(2) 0.9068(2)
N3_2 N 0.5582(2) 0.8937(2) 0.9533(3)
N4_2 N 0.3867(2) 0.9775(2) 0.8676(3)
C2_2 C 0.6849(2) 0.9448(3) 0.9100(3)
C3_2 C 0.2601(2) 0.9280(3) 0.9081(3)
C7_2 C 0.7273(3) 0.9950(3) 0.8638(3)
C8_2 C 0.2212(2) 0.9785(3) 0.8587(3)
C9_2 C 0.2164(3) 0.8763(3) 0.9522(3)
H3_2 H 0.2403 0.8405 0.9855
C10_2 C 0.8080(2) 0.9917(3) 0.8628(3)
C11_2 C 0.5996(2) 0.9437(3) 0.9096(3)
C12_2 C 0.8065(3) 0.8927(3) 0.9518(3)
H5_2 H 0.8334 0.8571 0.9828
C13_2 C 0.3457(2) 0.9286(3) 0.9105(3)
C14_2 C 0.1355(3) 0.8792(3) 0.9455(3)
H6_2 H 0.1063 0.8448 0.9757
C15_2 C 0.4815(2) 0.9074(3) 0.9363(3)
C16_2 C 0.7266(3) 0.8923(3) 0.9552(3)
H7_2 H 0.7008 0.8570 0.9876
C17_2 C 0.4633(2) 0.9643(3) 0.8827(3)
C18_2 C 0.1410(3) 0.9770(3) 0.8565(3)
O6_2 O 0.96081(19) 0.90504(17) 0.77582(19)
O7_2 O 0.9747(2) 0.80902(18) 0.86016(19)
N5_2 N 0.09809(18) 0.5717(2) 0.3985(2)
S1_3 S 0.99070(7) 0.68771(6) 0.72833(6)
S2_2 S 0.54713(6) 0.49422(8) 0.34793(9)
S3_3 S 0.39821(7) 0.63487(9) 0.47095(9)
O2_3 O 0.97092(17) 0.58966(17) 0.51708(17)
N2_3 N 0.84771(18) 0.5590(2) 0.4068(2)
N3_3 N 0.5582(2) 0.6063(2) 0.4533(3)
C1_3 C 0.9929(2) 0.5977(2) 0.5886(2)
N4_3 N 0.3867(2) 0.5225(2) 0.3676(3)
C2_3 C 0.6849(2) 0.5552(3) 0.4100(3)
C3_3 C 0.2601(2) 0.5720(3) 0.4081(3)
C4_3 C 0.9679(3) 0.7831(2) 0.7186(2)
C5_3 C 0.9808(2) 0.6742(2) 0.6257(2)
C6_3 C 0.9672(2) 0.8345(3) 0.7895(3)
C7_3 C 0.7273(3) 0.5050(3) 0.3638(3)
H1_2 H 0.7017 0.4684 0.3329
C8_3 C 0.2212(2) 0.5215(3) 0.3587(3)
H2_2 H 0.2487 0.4868 0.3272
C9_3 C 0.2164(3) 0.6237(3) 0.4522(3)
H3_3 H 0.2403 0.6595 0.4855
C10_3 C 0.8080(2) 0.5083(3) 0.3628(3)
H4_2 H 0.8353 0.4741 0.3305
C11_3 C 0.5996(2) 0.5563(3) 0.4096(3)
C12_3 C 0.8065(3) 0.6073(3) 0.4518(3)
H5_3 H 0.8334 0.6429 0.4828
C13_3 C 0.3457(2) 0.5714(3) 0.4105(3)
C14_3 C 0.1355(3) 0.6208(3) 0.4455(3)
H6_3 H 0.1063 0.6552 0.4757
C15_3 C 0.4815(2) 0.5926(3) 0.4363(3)
C16_3 C 0.7266(3) 0.6077(3) 0.4552(3)
H7_3 H 0.7008 0.6430 0.4876
C17_3 C 0.4633(2) 0.5357(3) 0.3827(3)
C18_3 C 0.1410(3) 0.5230(3) 0.3565(3)
H8_2 H 0.1157 0.4878 0.3237
C19_3 C 0.9534(3) 0.8007(2) 0.6396(3)
H9_3 H 0.9404 0.8495 0.6225
C20_3 C 0.9600(3) 0.7389(2) 0.5859(3)
H10_3 H 0.9512 0.7418 0.5302
S3_4 S 0.60179(7) 0.13487(9) 0.02905(9)
N1_2 N 0.90191(18) 0.0717(2) 0.1015(2)
N2_4 N 0.15229(18) 0.0590(2) 0.0932(2)
N3_4 N 0.4418(2) 0.1063(2) 0.0467(3)
N4_4 N 0.6133(2) 0.0225(2) 0.1324(3)
C2_4 C 0.3151(2) 0.0552(3) 0.0900(3)
C3_4 C 0.7399(2) 0.0720(3) 0.0919(3)
C7_4 C 0.2727(3) 0.0050(3) 0.1362(3)
C8_4 C 0.7788(2) 0.0215(3) 0.1413(3)
C9_4 C 0.7836(3) 0.1237(3) 0.0478(3)
H3_4 H 0.7597 0.1595 0.0145
C10_4 C 0.1920(2) 0.0083(3) 0.1372(3)
C11_4 C 0.4004(2) 0.0563(3) 0.0904(3)
C12_4 C 0.1935(3) 0.1073(3) 0.0482(3)
H5_4 H 0.1666 0.1429 0.0172
C13_4 C 0.6543(2) 0.0714(3) 0.0895(3)
C14_4 C 0.8645(3) 0.1208(3) 0.0545(3)
H6_4 H 0.8937 0.1552 0.0243
C15_4 C 0.5185(2) 0.0926(3) 0.0637(3)
C16_4 C 0.2734(3) 0.1077(3) 0.0448(3)
H7_4 H 0.2992 0.1430 0.0124
C17_4 C 0.5367(2) 0.0357(3) 0.1173(3)
C18_4 C 0.8590(3) 0.0230(3) 0.1435(3)
S1_4 S 0.00930(7) 0.18771(6) 0.77167(6)
O2_4 O 0.02908(17) 0.08966(17) 0.98292(17)
C1_4 C 0.0071(2) 0.0977(2) 0.9114(2)
C4_4 C 0.0321(3) 0.2831(2) 0.7814(2)
C5_4 C 0.0192(2) 0.1742(2) 0.8743(2)
C6_4 C 0.0328(2) 0.3345(3) 0.7105(3)
C19_4 C 0.0466(3) 0.3007(2) 0.8604(3)
H9_4 H 0.0596 0.3495 0.8775
C20_4 C 0.0400(3) 0.2389(2) 0.9141(3)
H10_4 H 0.0488 0.2418 0.9698
Co1_2 Co 0.47231(3) 0.06522(3) 0.60129(3)
S1_5 S 0.49070(7) 0.18771(6) 0.27167(6)
O1_2 O 0.52334(17) 0.04733(15) 0.36810(18)
O2_5 O 0.47092(17) 0.08966(17) 0.48292(17)
O3_3 O 0.46081(19) 0.40504(17) 0.22418(19)
O4_3 O 0.4747(2) 0.30902(18) 0.13984(19)
N2_5 N 0.34771(18) 0.0590(2) 0.5932(2)
N3_5 N 0.0582(2) 0.1063(2) 0.5467(3)
C1_5 C 0.4929(2) 0.0977(2) 0.4114(2)
C2_5 C 0.1849(2) 0.0552(3) 0.5900(3)
C4_5 C 0.4679(3) 0.2831(2) 0.2814(2)
C5_5 C 0.4808(2) 0.1742(2) 0.3743(2)
C6_5 C 0.4672(2) 0.3345(3) 0.2105(3)
C7_5 C 0.2273(3) 0.0050(3) 0.6362(3)
C10_5 C 0.3080(2) 0.0083(3) 0.6372(3)
C11_5 C 0.0996(2) 0.0563(3) 0.5904(3)
C12_5 C 0.3065(3) 0.1073(3) 0.5482(3)
H5_5 H 0.3334 0.1429 0.5172
C16_5 C 0.2266(3) 0.1077(3) 0.5448(3)
H7_5 H 0.2008 0.1430 0.5124
C19_5 C 0.4534(3) 0.3007(2) 0.3604(3)
H9_5 H 0.4404 0.3495 0.3775
C20_5 C 0.4600(3) 0.2389(2) 0.4141(3)
H10_5 H 0.4512 0.2418 0.4698
Co4_2 Co 0.47231(3) 0.43478(3) 0.10129(3)
O6_3 O 0.46081(19) 0.09496(17) 0.72418(19)
O7_3 O 0.4747(2) 0.19098(18) 0.63984(19)
N5_3 N 0.59809(18) 0.0717(2) 0.6015(2)
S2_3 S 0.04713(6) 0.99422(8) 0.65207(9)
H1_3 H 0.2017 0.9684 0.6671
H4_3 H 0.3353 0.9741 0.6695
Co3_2 Co 0.52769(3) 0.93478(3) 0.39871(3)
O5_2 O 0.47666(17) 0.95267(15) 0.63190(18)
S3_5 S 0.89821(7) 0.13487(9) 0.52905(9)
N4_5 N 0.8867(2) 0.0225(2) 0.6324(3)
C3_5 C 0.7601(2) 0.0720(3) 0.5919(3)
C8_5 C 0.7212(2) 0.0215(3) 0.6413(3)
C9_5 C 0.7164(3) 0.1237(3) 0.5478(3)
H3_5 H 0.7403 0.1595 0.5145
C13_5 C 0.8457(2) 0.0714(3) 0.5895(3)
C14_5 C 0.6355(3) 0.1208(3) 0.5545(3)
H6_5 H 0.6063 0.1552 0.5243
C15_5 C 0.9815(2) 0.0926(3) 0.5637(3)
C17_5 C 0.9633(2) 0.0357(3) 0.6173(3)
C18_5 C 0.6410(3) 0.0230(3) 0.6435(3)
S3_6 S 0.10179(7) 0.63487(9) 0.97095(9)
N1_3 N 0.40191(18) 0.5717(2) 0.8985(2)
N4_6 N 0.1133(2) 0.5225(2) 0.8676(3)
C3_6 C 0.2399(2) 0.5720(3) 0.9081(3)
C8_6 C 0.2788(2) 0.5215(3) 0.8587(3)
H2_3 H 0.2513 0.4868 0.8272
C9_6 C 0.2836(3) 0.6237(3) 0.9522(3)
H3_6 H 0.2597 0.6595 0.9855
C13_6 C 0.1543(2) 0.5714(3) 0.9105(3)
C14_6 C 0.3645(3) 0.6208(3) 0.9455(3)
H6_6 H 0.3937 0.6552 0.9757
C15_6 C 0.0185(2) 0.5926(3) 0.9363(3)
C17_6 C 0.0367(2) 0.5357(3) 0.8827(3)
C18_6 C 0.3590(3) 0.5230(3) 0.8565(3)
H8_3 H 0.3843 0.4878 0.8237
Co2_2 Co 0.52769(3) 0.56522(3) 0.89871(3)
S1_6 S 0.50930(7) 0.68771(6) 0.22833(6)
O1_3 O 0.47666(17) 0.54733(15) 0.13190(18)
O2_6 O 0.52908(17) 0.58966(17) 0.01708(17)
O3_4 O 0.53919(19) 0.90504(17) 0.27582(19)
O4_4 O 0.5253(2) 0.80902(18) 0.36016(19)
C1_6 C 0.5071(2) 0.5977(2) 0.0886(2)
C4_6 C 0.5321(3) 0.7831(2) 0.2186(2)
C5_6 C 0.5192(2) 0.6742(2) 0.1257(2)
C6_6 C 0.5328(2) 0.8345(3) 0.2895(3)
C19_6 C 0.5466(3) 0.8007(2) 0.1396(3)
H9_6 H 0.5596 0.8495 0.1225
C20_6 C 0.5400(3) 0.7389(2) 0.0859(3)
H10_6 H 0.5488 0.7418 0.0302
S2_4 S 0.95287(6) 0.49422(8) 0.84793(9)
N2_6 N 0.65229(18) 0.5590(2) 0.9068(2)
N3_6 N 0.9418(2) 0.6063(2) 0.9533(3)
C2_6 C 0.8151(2) 0.5552(3) 0.9100(3)
C7_6 C 0.7727(3) 0.5050(3) 0.8638(3)
H1_4 H 0.7983 0.4684 0.8329
C10_6 C 0.6920(2) 0.5083(3) 0.8628(3)
H4_4 H 0.6647 0.4741 0.8305
C11_6 C 0.9004(2) 0.5563(3) 0.9096(3)
C12_6 C 0.6935(3) 0.6073(3) 0.9518(3)
H5_6 H 0.6666 0.6429 0.9828
C16_6 C 0.7734(3) 0.6077(3) 0.9552(3)
H7_6 H 0.7992 0.6430 0.9876
O5_3 O 0.52334(17) 0.45267(15) 0.86810(18)
O6_4 O 0.53919(19) 0.59496(17) 0.77582(19)
O7_4 O 0.5253(2) 0.69098(18) 0.86016(19)
S3_7 S 0.10179(7) 0.86513(9) 0.47095(9)
N1_4 N 0.40191(18) 0.9283(2) 0.3985(2)
N4_7 N 0.1133(2) 0.9775(2) 0.3676(3)
C3_7 C 0.2399(2) 0.9280(3) 0.4081(3)
C8_7 C 0.2788(2) 0.9785(3) 0.3587(3)
C9_7 C 0.2836(3) 0.8763(3) 0.4522(3)
H3_7 H 0.2597 0.8405 0.4855
C13_7 C 0.1543(2) 0.9286(3) 0.4105(3)
C14_7 C 0.3645(3) 0.8792(3) 0.4455(3)
H6_7 H 0.3937 0.8448 0.4757
C15_7 C 0.0185(2) 0.9074(3) 0.4363(3)
C17_7 C 0.0367(2) 0.9643(3) 0.3827(3)
C18_7 C 0.3590(3) 0.9770(3) 0.3565(3)
S2_5 S 0.95287(6) 0.00578(8) 0.34793(9)
H1_5 H 0.7983 0.0316 0.3329
H4_5 H 0.6647 0.0259 0.3305
S1_7 S 0.50930(7) 0.81229(6) 0.72833(6)
O2_7 O 0.52908(17) 0.91034(17) 0.51708(17)
N2_7 N 0.65229(18) 0.9410(2) 0.4068(2)
N3_7 N 0.9418(2) 0.8937(2) 0.4533(3)
C1_7 C 0.5071(2) 0.9023(2) 0.5886(2)
C2_7 C 0.8151(2) 0.9448(3) 0.4100(3)
C4_7 C 0.5321(3) 0.7169(2) 0.7186(2)
C5_7 C 0.5192(2) 0.8258(2) 0.6257(2)
C6_7 C 0.5328(2) 0.6655(3) 0.7895(3)
C7_7 C 0.7727(3) 0.9950(3) 0.3638(3)
C10_7 C 0.6920(2) 0.9917(3) 0.3628(3)
C11_7 C 0.9004(2) 0.9437(3) 0.4096(3)
C12_7 C 0.6935(3) 0.8927(3) 0.4518(3)
H5_7 H 0.6666 0.8571 0.4828
C16_7 C 0.7734(3) 0.8923(3) 0.4552(3)
H7_7 H 0.7992 0.8570 0.4876
C19_7 C 0.5466(3) 0.6993(2) 0.6396(3)
H9_7 H 0.5596 0.6505 0.6225
C20_7 C 0.5400(3) 0.7611(2) 0.5859(3)
H10_7 H 0.5488 0.7582 0.5302
S2_6 S 0.04713(6) 0.50578(8) 0.15207(9)
N2_8 N 0.34771(18) 0.4410(2) 0.0932(2)
N3_8 N 0.0582(2) 0.3937(2) 0.0467(3)
C2_8 C 0.1849(2) 0.4448(3) 0.0900(3)
C7_8 C 0.2273(3) 0.4950(3) 0.1362(3)
H1_6 H 0.2017 0.5316 0.1671
C10_8 C 0.3080(2) 0.4917(3) 0.1372(3)
H4_6 H 0.3353 0.5259 0.1695
C11_8 C 0.0996(2) 0.4437(3) 0.0904(3)
C12_8 C 0.3065(3) 0.3927(3) 0.0482(3)
H5_8 H 0.3334 0.3571 0.0172
C16_8 C 0.2266(3) 0.3923(3) 0.0448(3)
H7_8 H 0.2008 0.3570 0.0124
N5_4 N 0.59809(18) 0.4283(2) 0.1015(2)
S1_8 S 0.49070(7) 0.31229(6) 0.77167(6)
O2_8 O 0.47092(17) 0.41034(17) 0.98292(17)
C1_8 C 0.4929(2) 0.4023(2) 0.9114(2)
C4_8 C 0.4679(3) 0.2169(2) 0.7814(2)
C5_8 C 0.4808(2) 0.3258(2) 0.8743(2)
C6_8 C 0.4672(2) 0.1655(3) 0.7105(3)
C19_8 C 0.4534(3) 0.1993(2) 0.8604(3)
H9_8 H 0.4404 0.1505 0.8775
C20_8 C 0.4600(3) 0.2611(2) 0.9141(3)
H10_8 H 0.4512 0.2582 0.9698
S3_8 S 0.89821(7) 0.36513(9) 0.02905(9)
N4_8 N 0.8867(2) 0.4775(2) 0.1324(3)
C3_8 C 0.7601(2) 0.4280(3) 0.0919(3)
C8_8 C 0.7212(2) 0.4785(3) 0.1413(3)
H2_4 H 0.7487 0.5132 0.1728
C9_8 C 0.7164(3) 0.3763(3) 0.0478(3)
H3_8 H 0.7403 0.3405 0.0145
C13_8 C 0.8457(2) 0.4286(3) 0.0895(3)
C14_8 C 0.6355(3) 0.3792(3) 0.0545(3)
H6_8 H 0.6063 0.3448 0.0243
C15_8 C 0.9815(2) 0.4074(3) 0.0637(3)
C17_8 C 0.9633(2) 0.4643(3) 0.1173(3)
C18_8 C 0.6410(3) 0.4770(3) 0.1435(3)
H8_4 H 0.6157 0.5122 0.1763
H2_5 H 0.7487 0.9868 0.6728
H8_5 H 0.6157 0.9878 0.6763
O1_4 O 0.02334(17) 0.95267(15) 0.13190(18)
S2_7 S 0.45287(6) 0.99422(8) 0.15207(9)
H1_7 H 0.2983 0.9684 0.1671
H2_6 H 0.7513 0.9868 0.1728
H4_7 H 0.1647 0.9741 0.1695
H8_6 H 0.8843 0.9878 0.1763
S2_8 S 0.54713(6) 0.00578(8) 0.84793(9)
H1_8 H 0.7017 0.0316 0.8329
H2_7 H 0.2487 0.0132 0.8272
H4_8 H 0.8353 0.0259 0.8305
H8_7 H 0.1157 0.0122 0.8237
O5_4 O 0.97666(17) 0.04733(15) 0.86810(18)
H2_8 H 0.2513 0.0132 0.3272
H8_8 H 0.3843 0.0122 0.3237
loop_
_geom_bond_atom_site_label_1
_geom_bond_atom_site_label_2
_geom_bond_site_symmetry_1
_geom_bond_site_symmetry_2
Co2 O2 1_555 1_555
S1 C4 1_555 1_555
S2 C11 1_555 1_555
S3 C13 1_555 1_555
O2 C1 1_555 1_555
O3 C6 1_555 1_555
O4 C6 1_555 1_555
N1 C14 1_555 1_555
N2 Co2 1_555 1_555
N3 C11 1_555 1_555
C1 C5 1_555 1_555
N4 C13 1_555 1_555
C2 C7 1_555 1_555
C3 C8 1_555 1_555
C4 C6 1_555 1_555
C5 S1 1_555 1_555
C7 H1 1_555 1_555
C8 H2 1_555 1_555
C9 C3 1_555 1_555
H3 C9 1_555 1_555
C10 N2 1_555 1_555
H4 C10 1_555 1_555
C11 C2 1_555 1_555
C12 N2 1_555 1_555
H5 C12 1_555 1_555
C13 C3 1_555 1_555
C14 C9 1_555 1_555
H6 C14 1_555 1_555
C15 S3 1_555 1_555
C16 C2 1_555 1_555
H7 C16 1_555 1_555
C17 S2 1_555 1_555
C18 N1 1_555 1_555
H8 C18 1_555 1_555
C19 C4 1_555 1_555
H9 C19 1_555 1_555
C20 C5 1_555 1_555
H10 C20 1_555 1_555
Co4 O3 1_555 1_555
O5 Co2 1_555 1_555
O6 Co2 1_555 1_555
O7 Co2 1_555 1_555
O4 Co4 1_555 1_555
N3 C15 1_555 1_555
N4 C17 1_555 1_555
C7 C10 1_555 1_555
C8 C18 1_555 1_555
C12 C16 1_555 1_555
C15 C17 1_555 1_555
C19 C20 1_555 1_555
Co3 O1 1_555 1_555
S1_2 C4_2 1_555 1_555
O2_2 C1_2 1_555 1_555
O3_2 C6_2 1_555 1_555
O4_2 C6_2 1_555 1_555
C1_2 C5_2 1_555 1_555
C4_2 C6_2 1_555 1_555
C5_2 S1_2 1_555 1_555
C19_2 C4_2 1_555 1_555
H9_2 C19_2 1_555 1_555
C20_2 C5_2 1_555 1_555
H10_2 C20_2 1_555 1_555
Co3 O3_2 1_555 1_555
O4_2 Co3 1_555 1_555
C19_2 C20_2 1_555 1_555
S3_2 C13_2 1_555 1_555
N5 C14_2 1_555 1_555
N2_2 Co1 1_555 1_555
N3_2 C11_2 1_555 1_555
N4_2 C13_2 1_555 1_555
C2_2 C7_2 1_555 1_555
C3_2 C8_2 1_555 1_555
C9_2 C3_2 1_555 1_555
H3_2 C9_2 1_555 1_555
C10_2 N2_2 1_555 1_555
C11_2 C2_2 1_555 1_555
C12_2 N2_2 1_555 1_555
H5_2 C12_2 1_555 1_555
C13_2 C3_2 1_555 1_555
C14_2 C9_2 1_555 1_555
H6_2 C14_2 1_555 1_555
C15_2 S3_2 1_555 1_555
C16_2 C2_2 1_555 1_555
H7_2 C16_2 1_555 1_555
C18_2 N5 1_555 1_555
O6_2 Co1 1_555 1_555
O7_2 Co1 1_555 1_555
N3_2 C15_2 1_555 1_555
N4_2 C17_2 1_555 1_555
C7_2 C10_2 1_555 1_555
C8_2 C18_2 1_555 1_555
C12_2 C16_2 1_555 1_555
C15_2 C17_2 1_555 1_555
Co3 O2_3 1_555 1_555
S1_3 C4_3 1_555 1_555
S2_2 C11_3 1_555 1_555
S3_3 C13_3 1_555 1_555
O2_3 C1_3 1_555 1_555
O6_2 C6_3 1_555 1_555
O7_2 C6_3 1_555 1_555
N5_2 C14_3 1_555 1_555
N2_3 Co3 1_555 1_555
N3_3 C11_3 1_555 1_555
C1_3 C5_3 1_555 1_555
N4_3 C13_3 1_555 1_555
C2_3 C7_3 1_555 1_555
C3_3 C8_3 1_555 1_555
C4_3 C6_3 1_555 1_555
C5_3 S1_3 1_555 1_555
C7_3 H1_2 1_555 1_555
C8_3 H2_2 1_555 1_555
C9_3 C3_3 1_555 1_555
H3_3 C9_3 1_555 1_555
C10_3 N2_3 1_555 1_555
H4_2 C10_3 1_555 1_555
C11_3 C2_3 1_555 1_555
C12_3 N2_3 1_555 1_555
H5_3 C12_3 1_555 1_555
C13_3 C3_3 1_555 1_555
C14_3 C9_3 1_555 1_555
H6_3 C14_3 1_555 1_555
C15_3 S3_3 1_555 1_555
C16_3 C2_3 1_555 1_555
H7_3 C16_3 1_555 1_555
C17_3 S2_2 1_555 1_555
C18_3 N5_2 1_555 1_555
H8_2 C18_3 1_555 1_555
C19_3 C4_3 1_555 1_555
H9_3 C19_3 1_555 1_555
C20_3 C5_3 1_555 1_555
H10_3 C20_3 1_555 1_555
N3_3 C15_3 1_555 1_555
N4_3 C17_3 1_555 1_555
C7_3 C10_3 1_555 1_555
C8_3 C18_3 1_555 1_555
C12_3 C16_3 1_555 1_555
C15_3 C17_3 1_555 1_555
C19_3 C20_3 1_555 1_555
S3_4 C13_4 1_555 1_555
N1_2 C14_4 1_555 1_555
N2_4 Co4 1_555 1_555
N3_4 C11_4 1_555 1_555
N4_4 C13_4 1_555 1_555
C2_4 C7_4 1_555 1_555
C3_4 C8_4 1_555 1_555
C9_4 C3_4 1_555 1_555
H3_4 C9_4 1_555 1_555
C10_4 N2_4 1_555 1_555
C11_4 C2_4 1_555 1_555
C12_4 N2_4 1_555 1_555
H5_4 C12_4 1_555 1_555
C13_4 C3_4 1_555 1_555
C14_4 C9_4 1_555 1_555
H6_4 C14_4 1_555 1_555
C15_4 S3_4 1_555 1_555
C16_4 C2_4 1_555 1_555
H7_4 C16_4 1_555 1_555
C18_4 N1_2 1_555 1_555
N3_4 C15_4 1_555 1_555
N4_4 C17_4 1_555 1_555
C7_4 C10_4 1_555 1_555
C8_4 C18_4 1_555 1_555
C12_4 C16_4 1_555 1_555
C15_4 C17_4 1_555 1_555
S1_4 C4_4 1_555 1_555
O2_4 C1_4 1_555 1_555
O6 C6_4 1_555 1_555
O7 C6_4 1_555 1_555
C1_4 C5_4 1_555 1_555
C4_4 C6_4 1_555 1_555
C5_4 S1_4 1_555 1_555
C19_4 C4_4 1_555 1_555
H9_4 C19_4 1_555 1_555
C20_4 C5_4 1_555 1_555
H10_4 C20_4 1_555 1_555
C19_4 C20_4 1_555 1_555
Co1_2 O2_5 1_555 1_555
S1_5 C4_5 1_555 1_555
O1_2 C1_5 1_555 1_555
O2_5 C1_5 1_555 1_555
O3_3 C6_5 1_555 1_555
O4_3 C6_5 1_555 1_555
N2_5 Co1_2 1_555 1_555
N3_5 C11_5 1_555 1_555
C1_5 C5_5 1_555 1_555
C2_5 C7_5 1_555 1_555
C4_5 C6_5 1_555 1_555
C5_5 S1_5 1_555 1_555
C10_5 N2_5 1_555 1_555
C11_5 C2_5 1_555 1_555
C12_5 N2_5 1_555 1_555
H5_5 C12_5 1_555 1_555
C16_5 C2_5 1_555 1_555
H7_5 C16_5 1_555 1_555
C19_5 C4_5 1_555 1_555
H9_5 C19_5 1_555 1_555
C20_5 C5_5 1_555 1_555
H10_5 C20_5 1_555 1_555
Co4_2 O3_3 1_555 1_555
O6_3 Co1_2 1_555 1_555
O7_3 Co1_2 1_555 1_555
N5_3 Co1_2 1_555 1_555
O4_3 Co4_2 1_555 1_555
C7_5 C10_5 1_555 1_555
C12_5 C16_5 1_555 1_555
C19_5 C20_5 1_555 1_555
S3_5 C13_5 1_555 1_555
N5_3 C14_5 1_555 1_555
N4_5 C13_5 1_555 1_555
C3_5 C8_5 1_555 1_555
C9_5 C3_5 1_555 1_555
H3_5 C9_5 1_555 1_555
C13_5 C3_5 1_555 1_555
C14_5 C9_5 1_555 1_555
H6_5 C14_5 1_555 1_555
C15_5 S3_5 1_555 1_555
C18_5 N5_3 1_555 1_555
N4_5 C17_5 1_555 1_555
C8_5 C18_5 1_555 1_555
C15_5 C17_5 1_555 1_555
S3_6 C13_6 1_555 1_555
N1_3 C14_6 1_555 1_555
N4_6 C13_6 1_555 1_555
C3_6 C8_6 1_555 1_555
C8_6 H2_3 1_555 1_555
C9_6 C3_6 1_555 1_555
H3_6 C9_6 1_555 1_555
C13_6 C3_6 1_555 1_555
C14_6 C9_6 1_555 1_555
H6_6 C14_6 1_555 1_555
C15_6 S3_6 1_555 1_555
C18_6 N1_3 1_555 1_555
H8_3 C18_6 1_555 1_555
Co2_2 N1_3 1_555 1_555
N4_6 C17_6 1_555 1_555
C8_6 C18_6 1_555 1_555
C15_6 C17_6 1_555 1_555
S1_6 C4_6 1_555 1_555
O1_3 C1_6 1_555 1_555
O2_6 C1_6 1_555 1_555
O3_4 C6_6 1_555 1_555
O4_4 C6_6 1_555 1_555
C1_6 C5_6 1_555 1_555
C4_6 C6_6 1_555 1_555
C5_6 S1_6 1_555 1_555
C19_6 C4_6 1_555 1_555
H9_6 C19_6 1_555 1_555
C20_6 C5_6 1_555 1_555
H10_6 C20_6 1_555 1_555
Co4_2 O1_3 1_555 1_555
Co3_2 O3_4 1_555 1_555
O4_4 Co3_2 1_555 1_555
C19_6 C20_6 1_555 1_555
S2_4 C11_6 1_555 1_555
N2_6 Co2_2 1_555 1_555
N3_6 C11_6 1_555 1_555
C2_6 C7_6 1_555 1_555
C7_6 H1_4 1_555 1_555
C10_6 N2_6 1_555 1_555
H4_4 C10_6 1_555 1_555
C11_6 C2_6 1_555 1_555
C12_6 N2_6 1_555 1_555
H5_6 C12_6 1_555 1_555
C16_6 C2_6 1_555 1_555
H7_6 C16_6 1_555 1_555
O5_3 Co2_2 1_555 1_555
O6_4 Co2_2 1_555 1_555
O7_4 Co2_2 1_555 1_555
C7_6 C10_6 1_555 1_555
C12_6 C16_6 1_555 1_555
S3_7 C13_7 1_555 1_555
N1_4 C14_7 1_555 1_555
N4_7 C13_7 1_555 1_555
C3_7 C8_7 1_555 1_555
C9_7 C3_7 1_555 1_555
H3_7 C9_7 1_555 1_555
C13_7 C3_7 1_555 1_555
C14_7 C9_7 1_555 1_555
H6_7 C14_7 1_555 1_555
C15_7 S3_7 1_555 1_555
C18_7 N1_4 1_555 1_555
Co3_2 N1_4 1_555 1_555
N4_7 C17_7 1_555 1_555
C8_7 C18_7 1_555 1_555
C15_7 C17_7 1_555 1_555
Co3_2 O2_7 1_555 1_555
S1_7 C4_7 1_555 1_555
O5_2 C1_7 1_555 1_555
O2_7 C1_7 1_555 1_555
O6_4 C6_7 1_555 1_555
O7_4 C6_7 1_555 1_555
N2_7 Co3_2 1_555 1_555
N3_7 C11_7 1_555 1_555
C1_7 C5_7 1_555 1_555
C2_7 C7_7 1_555 1_555
C4_7 C6_7 1_555 1_555
C5_7 S1_7 1_555 1_555
C10_7 N2_7 1_555 1_555
C11_7 C2_7 1_555 1_555
C12_7 N2_7 1_555 1_555
H5_7 C12_7 1_555 1_555
C16_7 C2_7 1_555 1_555
H7_7 C16_7 1_555 1_555
C19_7 C4_7 1_555 1_555
H9_7 C19_7 1_555 1_555
C20_7 C5_7 1_555 1_555
H10_7 C20_7 1_555 1_555
C7_7 C10_7 1_555 1_555
C12_7 C16_7 1_555 1_555
C19_7 C20_7 1_555 1_555
S2_6 C11_8 1_555 1_555
N2_8 Co4_2 1_555 1_555
N3_8 C11_8 1_555 1_555
C2_8 C7_8 1_555 1_555
C7_8 H1_6 1_555 1_555
C10_8 N2_8 1_555 1_555
H4_6 C10_8 1_555 1_555
C11_8 C2_8 1_555 1_555
C12_8 N2_8 1_555 1_555
H5_8 C12_8 1_555 1_555
C16_8 C2_8 1_555 1_555
H7_8 C16_8 1_555 1_555
N5_4 Co4_2 1_555 1_555
C7_8 C10_8 1_555 1_555
C12_8 C16_8 1_555 1_555
S1_8 C4_8 1_555 1_555
O5_3 C1_8 1_555 1_555
O2_8 C1_8 1_555 1_555
O6_3 C6_8 1_555 1_555
O7_3 C6_8 1_555 1_555
C1_8 C5_8 1_555 1_555
C4_8 C6_8 1_555 1_555
C5_8 S1_8 1_555 1_555
C19_8 C4_8 1_555 1_555
H9_8 C19_8 1_555 1_555
C20_8 C5_8 1_555 1_555
H10_8 C20_8 1_555 1_555
C19_8 C20_8 1_555 1_555
S3_8 C13_8 1_555 1_555
N5_4 C14_8 1_555 1_555
N4_8 C13_8 1_555 1_555
C3_8 C8_8 1_555 1_555
C8_8 H2_4 1_555 1_555
C9_8 C3_8 1_555 1_555
H3_8 C9_8 1_555 1_555
C13_8 C3_8 1_555 1_555
C14_8 C9_8 1_555 1_555
H6_8 C14_8 1_555 1_555
C15_8 S3_8 1_555 1_555
C18_8 N5_4 1_555 1_555
H8_4 C18_8 1_555 1_555
N4_8 C17_8 1_555 1_555
C8_8 C18_8 1_555 1_555
C15_8 C17_8 1_555 1_555

#END
