
###############################################################################
#
# This file contains modified crystal structure data generated from the
# MOF subset of the Cambridge Structural Database (CSD) v543 
# hosted by the Cambridge Crystallographic Data Centre (CCDC).
#
# This work is licensed under the Creative Commons
# Attribution-NonCommercial-ShareAlike 4.0 International License.
# To view a copy of this license, visit
# http://creativecommons.org/licenses/by-nc-sa/4.0/
# or send a letter to
# Creative Commons, PO Box 1866, Mountain View, CA 94042, USA.
#
# CIF created using the CSD Python API on 29 September 2022
# The structure has been converted into the P1 space group
# The structure has a 3D framework
# The original CSD entry WODFUT is in the orthorhombic crystal system
# The framework has been calculated to contain at least 10.0% void space
# The void calculation uses a probe of radius 1.32A, grid spacing 0.4
# The framework is charged, counterions have been retained in the structure
#
###############################################################################

data_WODFUT
_chemical_formula_moiety         '(C32 In8 O64 8-)n'
_symmetry_cell_setting           triclinic
_symmetry_space_group_name_H-M   'P 1'
_symmetry_Int_Tables_number      1
_space_group_name_Hall           'P 1'
loop_
_symmetry_equiv_pos_site_id
_symmetry_equiv_pos_as_xyz
1 x,y,z
_cell_length_a                   11.060(5)
_cell_length_b                   21.605(8)
_cell_length_c                   10.642(4)
_cell_angle_alpha                90
_cell_angle_beta                 90
_cell_angle_gamma                90
_cell_volume                     2542.92
loop_
_atom_site_label
_atom_site_type_symbol
_atom_site_fract_x
_atom_site_fract_y
_atom_site_fract_z
In3 In 0.02622(11) 0.61015(6) 0.34385(13)
O11 O 0.5134(11) 0.5087(6) 0.1622(13)
O12 O 0.4745(11) 0.4253(6) 0.0497(11)
C6 C 0.4940(15) 0.4811(9) 0.0542(17)
In2 In 0.52622(11) 0.61015(6) 0.15615(13)
O13 O 0.6433(11) 0.5851(5) 0.3202(12)
O14 O 0.8317(11) 0.5963(6) 0.4016(11)
O15 O 0.7238(11) 0.6171(6) 0.0943(12)
O16 O 0.9103(12) 0.6203(6) 0.1666(12)
C7 C 0.7547(19) 0.5962(7) 0.3023(17)
C8 C 0.8054(19) 0.6152(8) 0.1821(16)
O17 O 0.3317(11) 0.5963(6) 0.0984(11)
O19 O 0.4103(12) 0.6203(6) 0.3334(12)
O21 O 0.4957(15) 0.6966(6) 0.0473(16)
O22 O 0.5895(18) 0.7009(8) 0.2640(15)
In1 In 0.47378(11) 0.38985(6) 0.84385(13)
O1 O 0.3567(11) 0.4149(5) 0.6798(12)
O2 O 0.1683(11) 0.4037(6) 0.5984(11)
O3 O 0.2762(11) 0.3829(6) 0.9057(12)
O4 O 0.0897(12) 0.3797(6) 0.8334(12)
O5 O 0.5043(15) 0.3034(6) 0.9527(16)
O6 O 0.4105(18) 0.2009(8) 0.7360(15)
O7 O 0.4866(11) 0.4913(6) 0.8378(13)
O8 O 0.5255(11) 0.5747(6) 0.9503(11)
C1 C 0.2453(19) 0.4038(7) 0.6977(17)
C2 C 0.1946(19) 0.3848(8) 0.8179(16)
C3 C 0.488(3) 0.2500 0.904(3)
C4 C 0.437(3) 0.2500 0.790(3)
C5 C 0.5060(15) 0.5189(9) 0.9458(17)
O9 O 0.5043(15) 0.1966(6) 0.9527(16)
O10 O 0.4105(18) 0.2991(8) 0.7360(15)
In5 In 0.47378(11) 0.11015(6) 0.84385(13)
O18 O 0.6683(11) 0.4037(6) 0.9016(11)
O20 O 0.5897(12) 0.3797(6) 0.6666(12)
In4 In 0.97378(11) 0.38985(6) 0.65615(13)
O1_2 O 0.1433(11) 0.5851(5) 0.1798(12)
O3_2 O 0.2238(11) 0.6171(6) 0.4057(12)
O6_2 O 0.0895(18) 0.7991(8) 0.2360(15)
O7_2 O 0.0134(11) 0.5087(6) 0.3378(13)
C1_2 C 0.2547(19) 0.5962(7) 0.1977(17)
C2_2 C 0.3054(19) 0.6152(8) 0.3179(16)
C3_2 C 0.012(3) 0.7500 0.404(3)
C4_2 C 0.063(3) 0.7500 0.290(3)
O10_2 O 0.0895(18) 0.7009(8) 0.2360(15)
O12_2 O 0.0255(11) 0.5747(6) 0.5497(11)
C6_2 C 0.0060(15) 0.5189(9) 0.5542(17)
In5_2 In 0.02622(11) 0.88985(6) 0.34385(13)
O21_2 O 0.0043(15) 0.3034(6) 0.5473(16)
O5_2 O 0.9957(15) 0.6966(6) 0.4527(16)
O8_2 O 0.9745(11) 0.4253(6) 0.4503(11)
C5_2 C 0.9940(15) 0.4811(9) 0.4458(17)
O9_2 O 0.9957(15) 0.8034(6) 0.4527(16)
O11_2 O 0.9866(11) 0.4913(6) 0.6622(13)
O13_2 O 0.8567(11) 0.4149(5) 0.8202(12)
O15_2 O 0.7762(11) 0.3829(6) 0.5943(12)
C7_2 C 0.7453(19) 0.4038(7) 0.8023(17)
C8_2 C 0.6946(19) 0.3848(8) 0.6821(16)
O22_2 O 0.9105(18) 0.2991(8) 0.7640(15)
O11_3 O 0.4866(11) 0.0087(6) 0.8378(13)
O13_3 O 0.3567(11) 0.0851(5) 0.6798(12)
O14_2 O 0.1683(11) 0.0963(6) 0.5984(11)
O15_3 O 0.2762(11) 0.1171(6) 0.9057(12)
O16_2 O 0.0897(12) 0.1203(6) 0.8334(12)
C7_3 C 0.2453(19) 0.0962(7) 0.6977(17)
C8_3 C 0.1946(19) 0.1152(8) 0.8179(16)
O17_2 O 0.6683(11) 0.0963(6) 0.9016(11)
O19_2 O 0.5897(12) 0.1203(6) 0.6666(12)
In1_2 In 0.52622(11) 0.88985(6) 0.15615(13)
O1_3 O 0.6433(11) 0.9149(5) 0.3202(12)
O2_2 O 0.8317(11) 0.9037(6) 0.4016(11)
O3_3 O 0.7238(11) 0.8829(6) 0.0943(12)
O4_2 O 0.9103(12) 0.8797(6) 0.1666(12)
O5_3 O 0.4957(15) 0.8034(6) 0.0473(16)
O7_3 O 0.5134(11) 0.9913(6) 0.1622(13)
C1_3 C 0.7547(19) 0.9038(7) 0.3023(17)
C2_3 C 0.8054(19) 0.8848(8) 0.1821(16)
C3_3 C 0.512(3) 0.7500 0.096(3)
C4_3 C 0.563(3) 0.7500 0.210(3)
O10_3 O 0.5895(18) 0.7991(8) 0.2640(15)
O18_2 O 0.3317(11) 0.9037(6) 0.0984(11)
O20_2 O 0.4103(12) 0.8797(6) 0.3334(12)
In3_2 In 0.97378(11) 0.11015(6) 0.65615(13)
O5_4 O 0.0043(15) 0.1966(6) 0.5473(16)
O8_3 O 0.0255(11) 0.9253(6) 0.5497(11)
C5_3 C 0.0060(15) 0.9811(9) 0.5542(17)
O11_4 O 0.0134(11) 0.9913(6) 0.3378(13)
O13_4 O 0.1433(11) 0.9149(5) 0.1798(12)
O15_4 O 0.2238(11) 0.8829(6) 0.4057(12)
C7_4 C 0.2547(19) 0.9038(7) 0.1977(17)
C8_4 C 0.3054(19) 0.8848(8) 0.3179(16)
O1_4 O 0.8567(11) 0.0851(5) 0.8202(12)
O3_4 O 0.7762(11) 0.1171(6) 0.5943(12)
O7_4 O 0.9866(11) 0.0087(6) 0.6622(13)
C1_4 C 0.7453(19) 0.0962(7) 0.8023(17)
C2_4 C 0.6946(19) 0.1152(8) 0.6821(16)
C3_4 C 0.988(3) 0.2500 0.596(3)
C4_4 C 0.937(3) 0.2500 0.710(3)
O10_4 O 0.9105(18) 0.2009(8) 0.7640(15)
O12_3 O 0.9745(11) 0.0747(6) 0.4503(11)
C6_3 C 0.9940(15) 0.0189(9) 0.4458(17)
O8_4 O 0.4745(11) 0.0747(6) 0.0497(11)
C5_4 C 0.4940(15) 0.0189(9) 0.0542(17)
O12_4 O 0.5255(11) 0.9253(6) 0.9503(11)
C6_4 C 0.5060(15) 0.9811(9) 0.9458(17)
loop_
_geom_bond_atom_site_label_1
_geom_bond_atom_site_label_2
_geom_bond_site_symmetry_1
_geom_bond_site_symmetry_2
O11 C6 1_555 1_555
O13 In2 1_555 1_555
O14 C7 1_555 1_555
O15 In2 1_555 1_555
O16 C8 1_555 1_555
C7 O13 1_555 1_555
C8 O15 1_555 1_555
O17 In2 1_555 1_555
O19 In2 1_555 1_555
O21 In2 1_555 1_555
O22 In2 1_555 1_555
O11 In2 1_555 1_555
O12 C6 1_555 1_555
C7 C8 1_555 1_555
In1 O1 1_555 1_555
O1 C1 1_555 1_555
O2 C1 1_555 1_555
O3 In1 1_555 1_555
O4 C2 1_555 1_555
O5 In1 1_555 1_555
O6 C4 1_555 1_555
O7 In1 1_555 1_555
O8 C5 1_555 1_555
C1 C2 1_555 1_555
C2 O3 1_555 1_555
C3 O5 1_555 1_555
C4 C3 1_555 1_555
C5 O7 1_555 1_555
O9 C3 1_555 1_555
O10 In1 1_555 1_555
In5 O6 1_555 1_555
O18 In1 1_555 1_555
O20 In1 1_555 1_555
C4 O10 1_555 1_555
O9 In5 1_555 1_555
In3 O1_2 1_555 1_555
O1_2 C1_2 1_555 1_555
O17 C1_2 1_555 1_555
O3_2 In3 1_555 1_555
O19 C2_2 1_555 1_555
O6_2 C4_2 1_555 1_555
O7_2 In3 1_555 1_555
C1_2 C2_2 1_555 1_555
C2_2 O3_2 1_555 1_555
C4_2 C3_2 1_555 1_555
O10_2 In3 1_555 1_555
O12_2 In3 1_555 1_555
In5_2 O6_2 1_555 1_555
C4_2 O10_2 1_555 1_555
O12_2 C6_2 1_555 1_555
O8_2 C5_2 1_555 1_555
In4 O8_2 1_555 1_555
O13_2 In4 1_555 1_555
O18 C7_2 1_555 1_555
O15_2 In4 1_555 1_555
O20 C8_2 1_555 1_555
C7_2 O13_2 1_555 1_555
C8_2 O15_2 1_555 1_555
O22_2 In4 1_555 1_555
O11_2 In4 1_555 1_555
C7_2 C8_2 1_555 1_555
O13_3 In5 1_555 1_555
O14_2 C7_3 1_555 1_555
O15_3 In5 1_555 1_555
O16_2 C8_3 1_555 1_555
C7_3 O13_3 1_555 1_555
C8_3 O15_3 1_555 1_555
O17_2 In5 1_555 1_555
O19_2 In5 1_555 1_555
O11_3 In5 1_555 1_555
C7_3 C8_3 1_555 1_555
In1_2 O1_3 1_555 1_555
O1_3 C1_3 1_555 1_555
O2_2 C1_3 1_555 1_555
O3_3 In1_2 1_555 1_555
O4_2 C2_3 1_555 1_555
O5_3 In1_2 1_555 1_555
O22 C4_3 1_555 1_555
O7_3 In1_2 1_555 1_555
C1_3 C2_3 1_555 1_555
C2_3 O3_3 1_555 1_555
C3_3 O5_3 1_555 1_555
C4_3 C3_3 1_555 1_555
O21 C3_3 1_555 1_555
O10_3 In1_2 1_555 1_555
O18_2 In1_2 1_555 1_555
O20_2 In1_2 1_555 1_555
C4_3 O10_3 1_555 1_555
O8_3 C5_3 1_555 1_555
In5_2 O8_3 1_555 1_555
O13_4 In5_2 1_555 1_555
O18_2 C7_4 1_555 1_555
O15_4 In5_2 1_555 1_555
O20_2 C8_4 1_555 1_555
C7_4 O13_4 1_555 1_555
C8_4 O15_4 1_555 1_555
O11_4 In5_2 1_555 1_555
C7_4 C8_4 1_555 1_555
In3_2 O1_4 1_555 1_555
O1_4 C1_4 1_555 1_555
O17_2 C1_4 1_555 1_555
O3_4 In3_2 1_555 1_555
O19_2 C2_4 1_555 1_555
O22_2 C4_4 1_555 1_555
O7_4 In3_2 1_555 1_555
C1_4 C2_4 1_555 1_555
C2_4 O3_4 1_555 1_555
C4_4 C3_4 1_555 1_555
O10_4 In3_2 1_555 1_555
O12_3 In3_2 1_555 1_555
C4_4 O10_4 1_555 1_555
O12_3 C6_3 1_555 1_555
O8_4 C5_4 1_555 1_555
O12_4 C6_4 1_555 1_555

#END
