
###############################################################################
#
# This file contains modified crystal structure data generated from the
# MOF subset of the Cambridge Structural Database (CSD) v543 
# hosted by the Cambridge Crystallographic Data Centre (CCDC).
#
# This work is licensed under the Creative Commons
# Attribution-NonCommercial-ShareAlike 4.0 International License.
# To view a copy of this license, visit
# http://creativecommons.org/licenses/by-nc-sa/4.0/
# or send a letter to
# Creative Commons, PO Box 1866, Mountain View, CA 94042, USA.
#
# CIF created using the CSD Python API on 29 September 2022
# The structure has been converted into the P1 space group
# The structure has a 3D framework
# The original CSD entry WODFON is in the cubic crystal system
# The framework has been calculated to contain at least 10.0% void space
# The void calculation uses a probe of radius 1.32A, grid spacing 0.4
# The framework is charged, counterions have been retained in the structure
#
###############################################################################

data_WODFON
_chemical_formula_moiety         '(C240 In24 O384 48-)n'
_symmetry_cell_setting           triclinic
_symmetry_space_group_name_H-M   'P 1'
_symmetry_Int_Tables_number      1
_space_group_name_Hall           'P 1'
loop_
_symmetry_equiv_pos_site_id
_symmetry_equiv_pos_as_xyz
1 x,y,z
_cell_length_a                   28.315(9)
_cell_length_b                   28.315(9)
_cell_length_c                   28.315(9)
_cell_angle_alpha                90
_cell_angle_beta                 90
_cell_angle_gamma                90
_cell_volume                     22701.2
loop_
_atom_site_label
_atom_site_type_symbol
_atom_site_fract_x
_atom_site_fract_y
_atom_site_fract_z
In1 In 0.7500 0.10443(2) 0.60443(2)
C1 C 0.80088(12) 0.19912(12) 0.59848(17)
C2 C 0.83369(13) 0.16631(13) 0.62779(16)
C3 C 0.72486(17) 0.11137(16) 0.5000
C4 C 0.77797(19) 0.10251(17) 0.5000
O1 O 0.76099(8) 0.18282(8) 0.58840(8)
O2 O 0.81785(8) 0.12669(8) 0.63877(8)
O3 O 0.70532(7) 0.11458(8) 0.53917(8)
O4 O 0.79792(7) 0.09922(8) 0.53965(8)
O5 O 0.81718(8) 0.23901(8) 0.58840(8)
O6 O 0.87331(8) 0.18215(8) 0.63877(8)
O7 O 0.70532(7) 0.11458(8) 0.46083(8)
O8 O 0.79792(7) 0.09922(8) 0.46035(8)
In2 In 0.7500 0.10443(2) 0.39557(2)
In3 In 0.89557(2) 0.2500 0.60443(2)
O9 O 0.73901(8) 0.08840(8) 0.68282(8)
O10 O 0.68215(8) 0.13877(8) 0.62669(8)
O11 O 0.79468(7) 0.03917(8) 0.61458(8)
O12 O 0.70208(7) 0.03965(8) 0.59922(8)
In1_2 In 0.2500 0.89557(2) 0.60443(2)
C1_2 C 0.19912(12) 0.80088(12) 0.59848(17)
C2_2 C 0.16631(13) 0.83369(13) 0.62779(16)
C3_2 C 0.27514(17) 0.88863(16) 0.5000
C4_2 C 0.22203(19) 0.89749(17) 0.5000
O1_2 O 0.23901(8) 0.81718(8) 0.58840(8)
O2_2 O 0.18215(8) 0.87331(8) 0.63877(8)
O3_2 O 0.29468(7) 0.88542(8) 0.53917(8)
O4_2 O 0.20208(7) 0.90078(8) 0.53965(8)
O5_2 O 0.18282(8) 0.76099(8) 0.58840(8)
O6_2 O 0.12669(8) 0.81785(8) 0.63877(8)
O7_2 O 0.29468(7) 0.88542(8) 0.46083(8)
O8_2 O 0.20208(7) 0.90078(8) 0.46035(8)
In2_2 In 0.2500 0.89557(2) 0.39557(2)
In3_2 In 0.10443(2) 0.7500 0.60443(2)
O9_2 O 0.26099(8) 0.91160(8) 0.68282(8)
O10_2 O 0.31785(8) 0.86123(8) 0.62669(8)
O11_2 O 0.20532(7) 0.96083(8) 0.61458(8)
O12_2 O 0.29792(7) 0.96035(8) 0.59922(8)
In1_3 In 0.2500 0.10443(2) 0.39557(2)
C1_3 C 0.19912(12) 0.19912(12) 0.40152(17)
C2_3 C 0.16631(13) 0.16631(13) 0.37221(16)
C3_3 C 0.27514(17) 0.11137(16) 0.5000
C4_3 C 0.22203(19) 0.10251(17) 0.5000
O1_3 O 0.23901(8) 0.18282(8) 0.41160(8)
O2_3 O 0.18215(8) 0.12669(8) 0.36123(8)
O3_3 O 0.29468(7) 0.11458(8) 0.46083(8)
O4_3 O 0.20208(7) 0.09922(8) 0.46035(8)
O5_3 O 0.18282(8) 0.23901(8) 0.41160(8)
O6_3 O 0.12669(8) 0.18215(8) 0.36123(8)
O7_3 O 0.29468(7) 0.11458(8) 0.53917(8)
O8_3 O 0.20208(7) 0.09922(8) 0.53965(8)
In2_3 In 0.2500 0.10443(2) 0.60443(2)
In3_3 In 0.10443(2) 0.2500 0.39557(2)
O9_3 O 0.26099(8) 0.08840(8) 0.31718(8)
O10_3 O 0.31785(8) 0.13877(8) 0.37331(8)
O11_3 O 0.20532(7) 0.03917(8) 0.38542(8)
O12_3 O 0.29792(7) 0.03965(8) 0.40078(8)
In1_4 In 0.7500 0.89557(2) 0.39557(2)
C1_4 C 0.80088(12) 0.80088(12) 0.40152(17)
C2_4 C 0.83369(13) 0.83369(13) 0.37221(16)
C3_4 C 0.72486(17) 0.88863(16) 0.5000
C4_4 C 0.77797(19) 0.89749(17) 0.5000
O1_4 O 0.76099(8) 0.81718(8) 0.41160(8)
O2_4 O 0.81785(8) 0.87331(8) 0.36123(8)
O3_4 O 0.70532(7) 0.88542(8) 0.46083(8)
O4_4 O 0.79792(7) 0.90078(8) 0.46035(8)
O5_4 O 0.81718(8) 0.76099(8) 0.41160(8)
O6_4 O 0.87331(8) 0.81785(8) 0.36123(8)
O7_4 O 0.70532(7) 0.88542(8) 0.53917(8)
O8_4 O 0.79792(7) 0.90078(8) 0.53965(8)
In2_4 In 0.7500 0.89557(2) 0.60443(2)
In3_4 In 0.89557(2) 0.7500 0.39557(2)
O9_4 O 0.73901(8) 0.91160(8) 0.31718(8)
O10_4 O 0.68215(8) 0.86123(8) 0.37331(8)
O11_4 O 0.79468(7) 0.96083(8) 0.38542(8)
O12_4 O 0.70208(7) 0.96035(8) 0.40078(8)
In1_5 In 0.60443(2) 0.7500 0.10443(2)
C1_5 C 0.59848(17) 0.80088(12) 0.19912(12)
C2_5 C 0.62779(16) 0.83369(13) 0.16631(13)
C3_5 C 0.5000 0.72486(17) 0.11137(16)
C4_5 C 0.5000 0.77797(19) 0.10251(17)
O1_5 O 0.58840(8) 0.76099(8) 0.18282(8)
O2_5 O 0.63877(8) 0.81785(8) 0.12669(8)
O3_5 O 0.53917(8) 0.70532(7) 0.11458(8)
O4_5 O 0.53965(8) 0.79792(7) 0.09922(8)
O5_5 O 0.58840(8) 0.81718(8) 0.23901(8)
O6_5 O 0.63877(8) 0.87331(8) 0.18215(8)
O7_5 O 0.46083(8) 0.70532(7) 0.11458(8)
O8_5 O 0.46035(8) 0.79792(7) 0.09922(8)
In2_5 In 0.39557(2) 0.7500 0.10443(2)
In3_5 In 0.60443(2) 0.89557(2) 0.2500
O9_5 O 0.68282(8) 0.73901(8) 0.08840(8)
O10_5 O 0.62669(8) 0.68215(8) 0.13877(8)
O11_5 O 0.61458(8) 0.79468(7) 0.03917(8)
O12_5 O 0.59922(8) 0.70208(7) 0.03965(8)
In1_6 In 0.60443(2) 0.2500 0.89557(2)
C1_6 C 0.59848(17) 0.19912(12) 0.80088(12)
C2_6 C 0.62779(16) 0.16631(13) 0.83369(13)
C3_6 C 0.5000 0.27514(17) 0.88863(16)
C4_6 C 0.5000 0.22203(19) 0.89749(17)
O1_6 O 0.58840(8) 0.23901(8) 0.81718(8)
O2_6 O 0.63877(8) 0.18215(8) 0.87331(8)
O3_6 O 0.53917(8) 0.29468(7) 0.88542(8)
O4_6 O 0.53965(8) 0.20208(7) 0.90078(8)
O5_6 O 0.58840(8) 0.18282(8) 0.76099(8)
O6_6 O 0.63877(8) 0.12669(8) 0.81785(8)
O7_6 O 0.46083(8) 0.29468(7) 0.88542(8)
O8_6 O 0.46035(8) 0.20208(7) 0.90078(8)
In2_6 In 0.39557(2) 0.2500 0.89557(2)
In3_6 In 0.60443(2) 0.10443(2) 0.7500
O9_6 O 0.68282(8) 0.26099(8) 0.91160(8)
O10_6 O 0.62669(8) 0.31785(8) 0.86123(8)
O11_6 O 0.61458(8) 0.20532(7) 0.96083(8)
O12_6 O 0.59922(8) 0.29792(7) 0.96035(8)
In1_7 In 0.39557(2) 0.2500 0.10443(2)
C1_7 C 0.40152(17) 0.19912(12) 0.19912(12)
C2_7 C 0.37221(16) 0.16631(13) 0.16631(13)
C3_7 C 0.5000 0.27514(17) 0.11137(16)
C4_7 C 0.5000 0.22203(19) 0.10251(17)
O1_7 O 0.41160(8) 0.23901(8) 0.18282(8)
O2_7 O 0.36123(8) 0.18215(8) 0.12669(8)
O3_7 O 0.46083(8) 0.29468(7) 0.11458(8)
O4_7 O 0.46035(8) 0.20208(7) 0.09922(8)
O5_7 O 0.41160(8) 0.18282(8) 0.23901(8)
O6_7 O 0.36123(8) 0.12669(8) 0.18215(8)
O7_7 O 0.53917(8) 0.29468(7) 0.11458(8)
O8_7 O 0.53965(8) 0.20208(7) 0.09922(8)
In2_7 In 0.60443(2) 0.2500 0.10443(2)
In3_7 In 0.39557(2) 0.10443(2) 0.2500
O9_7 O 0.31718(8) 0.26099(8) 0.08840(8)
O10_7 O 0.37331(8) 0.31785(8) 0.13877(8)
O11_7 O 0.38542(8) 0.20532(7) 0.03917(8)
O12_7 O 0.40078(8) 0.29792(7) 0.03965(8)
In1_8 In 0.39557(2) 0.7500 0.89557(2)
C1_8 C 0.40152(17) 0.80088(12) 0.80088(12)
C2_8 C 0.37221(16) 0.83369(13) 0.83369(13)
C3_8 C 0.5000 0.72486(17) 0.88863(16)
C4_8 C 0.5000 0.77797(19) 0.89749(17)
O1_8 O 0.41160(8) 0.76099(8) 0.81718(8)
O2_8 O 0.36123(8) 0.81785(8) 0.87331(8)
O3_8 O 0.46083(8) 0.70532(7) 0.88542(8)
O4_8 O 0.46035(8) 0.79792(7) 0.90078(8)
O5_8 O 0.41160(8) 0.81718(8) 0.76099(8)
O6_8 O 0.36123(8) 0.87331(8) 0.81785(8)
O7_8 O 0.53917(8) 0.70532(7) 0.88542(8)
O8_8 O 0.53965(8) 0.79792(7) 0.90078(8)
In2_8 In 0.60443(2) 0.7500 0.89557(2)
In3_8 In 0.39557(2) 0.89557(2) 0.7500
O9_8 O 0.31718(8) 0.73901(8) 0.91160(8)
O10_8 O 0.37331(8) 0.68215(8) 0.86123(8)
O11_8 O 0.38542(8) 0.79468(7) 0.96083(8)
O12_8 O 0.40078(8) 0.70208(7) 0.96035(8)
In1_9 In 0.10443(2) 0.60443(2) 0.7500
C1_9 C 0.19912(12) 0.59848(17) 0.80088(12)
C2_9 C 0.16631(13) 0.62779(16) 0.83369(13)
C3_9 C 0.11137(16) 0.5000 0.72486(17)
C4_9 C 0.10251(17) 0.5000 0.77797(19)
O1_9 O 0.18282(8) 0.58840(8) 0.76099(8)
O2_9 O 0.12669(8) 0.63877(8) 0.81785(8)
O3_9 O 0.11458(8) 0.53917(8) 0.70532(7)
O4_9 O 0.09922(8) 0.53965(8) 0.79792(7)
O5_9 O 0.23901(8) 0.58840(8) 0.81718(8)
O6_9 O 0.18215(8) 0.63877(8) 0.87331(8)
O7_9 O 0.11458(8) 0.46083(8) 0.70532(7)
O8_9 O 0.09922(8) 0.46035(8) 0.79792(7)
In2_9 In 0.10443(2) 0.39557(2) 0.7500
In3_9 In 0.2500 0.60443(2) 0.89557(2)
O9_9 O 0.08840(8) 0.68282(8) 0.73901(8)
O10_9 O 0.13877(8) 0.62669(8) 0.68215(8)
O11_9 O 0.03917(8) 0.61458(8) 0.79468(7)
O12_9 O 0.03965(8) 0.59922(8) 0.70208(7)
In1_10 In 0.89557(2) 0.60443(2) 0.2500
C1_10 C 0.80088(12) 0.59848(17) 0.19912(12)
C2_10 C 0.83369(13) 0.62779(16) 0.16631(13)
C3_10 C 0.88863(16) 0.5000 0.27514(17)
C4_10 C 0.89749(17) 0.5000 0.22203(19)
O1_10 O 0.81718(8) 0.58840(8) 0.23901(8)
O2_10 O 0.87331(8) 0.63877(8) 0.18215(8)
O3_10 O 0.88542(8) 0.53917(8) 0.29468(7)
O4_10 O 0.90078(8) 0.53965(8) 0.20208(7)
O5_10 O 0.76099(8) 0.58840(8) 0.18282(8)
O6_10 O 0.81785(8) 0.63877(8) 0.12669(8)
O7_10 O 0.88542(8) 0.46083(8) 0.29468(7)
O8_10 O 0.90078(8) 0.46035(8) 0.20208(7)
In2_10 In 0.89557(2) 0.39557(2) 0.2500
In3_10 In 0.7500 0.60443(2) 0.10443(2)
O9_10 O 0.91160(8) 0.68282(8) 0.26099(8)
O10_10 O 0.86123(8) 0.62669(8) 0.31785(8)
O11_10 O 0.96083(8) 0.61458(8) 0.20532(7)
O12_10 O 0.96035(8) 0.59922(8) 0.29792(7)
In1_11 In 0.10443(2) 0.39557(2) 0.2500
C1_11 C 0.19912(12) 0.40152(17) 0.19912(12)
C2_11 C 0.16631(13) 0.37221(16) 0.16631(13)
C3_11 C 0.11137(16) 0.5000 0.27514(17)
C4_11 C 0.10251(17) 0.5000 0.22203(19)
O1_11 O 0.18282(8) 0.41160(8) 0.23901(8)
O2_11 O 0.12669(8) 0.36123(8) 0.18215(8)
O3_11 O 0.11458(8) 0.46083(8) 0.29468(7)
O4_11 O 0.09922(8) 0.46035(8) 0.20208(7)
O5_11 O 0.23901(8) 0.41160(8) 0.18282(8)
O6_11 O 0.18215(8) 0.36123(8) 0.12669(8)
O7_11 O 0.11458(8) 0.53917(8) 0.29468(7)
O8_11 O 0.09922(8) 0.53965(8) 0.20208(7)
In2_11 In 0.10443(2) 0.60443(2) 0.2500
In3_11 In 0.2500 0.39557(2) 0.10443(2)
O9_11 O 0.08840(8) 0.31718(8) 0.26099(8)
O10_11 O 0.13877(8) 0.37331(8) 0.31785(8)
O11_11 O 0.03917(8) 0.38542(8) 0.20532(7)
O12_11 O 0.03965(8) 0.40078(8) 0.29792(7)
In1_12 In 0.89557(2) 0.39557(2) 0.7500
C1_12 C 0.80088(12) 0.40152(17) 0.80088(12)
C2_12 C 0.83369(13) 0.37221(16) 0.83369(13)
C3_12 C 0.88863(16) 0.5000 0.72486(17)
C4_12 C 0.89749(17) 0.5000 0.77797(19)
O1_12 O 0.81718(8) 0.41160(8) 0.76099(8)
O2_12 O 0.87331(8) 0.36123(8) 0.81785(8)
O3_12 O 0.88542(8) 0.46083(8) 0.70532(7)
O4_12 O 0.90078(8) 0.46035(8) 0.79792(7)
O5_12 O 0.76099(8) 0.41160(8) 0.81718(8)
O6_12 O 0.81785(8) 0.36123(8) 0.87331(8)
O7_12 O 0.88542(8) 0.53917(8) 0.70532(7)
O8_12 O 0.90078(8) 0.53965(8) 0.79792(7)
In2_12 In 0.89557(2) 0.60443(2) 0.7500
In3_12 In 0.7500 0.39557(2) 0.89557(2)
O9_12 O 0.91160(8) 0.31718(8) 0.73901(8)
O10_12 O 0.86123(8) 0.37331(8) 0.68215(8)
O11_12 O 0.96083(8) 0.38542(8) 0.79468(7)
O12_12 O 0.96035(8) 0.40078(8) 0.70208(7)
In1_13 In 0.10443(2) 0.7500 0.39557(2)
C1_13 C 0.19912(12) 0.80088(12) 0.40152(17)
C2_13 C 0.16631(13) 0.83369(13) 0.37221(16)
C3_13 C 0.11137(16) 0.72486(17) 0.5000
C4_13 C 0.10251(17) 0.77797(19) 0.5000
O1_13 O 0.18282(8) 0.76099(8) 0.41160(8)
O2_13 O 0.12669(8) 0.81785(8) 0.36123(8)
O3_13 O 0.11458(8) 0.70532(7) 0.46083(8)
O4_13 O 0.09922(8) 0.79792(7) 0.46035(8)
O5_13 O 0.23901(8) 0.81718(8) 0.41160(8)
O6_13 O 0.18215(8) 0.87331(8) 0.36123(8)
O7_13 O 0.11458(8) 0.70532(7) 0.53917(8)
O8_13 O 0.09922(8) 0.79792(7) 0.53965(8)
O9_13 O 0.08840(8) 0.73901(8) 0.31718(8)
O10_13 O 0.13877(8) 0.68215(8) 0.37331(8)
O11_13 O 0.03917(8) 0.79468(7) 0.38542(8)
O12_13 O 0.03965(8) 0.70208(7) 0.40078(8)
In1_14 In 0.89557(2) 0.2500 0.39557(2)
C1_14 C 0.80088(12) 0.19912(12) 0.40152(17)
C2_14 C 0.83369(13) 0.16631(13) 0.37221(16)
C3_14 C 0.88863(16) 0.27514(17) 0.5000
C4_14 C 0.89749(17) 0.22203(19) 0.5000
O1_14 O 0.81718(8) 0.23901(8) 0.41160(8)
O2_14 O 0.87331(8) 0.18215(8) 0.36123(8)
O3_14 O 0.88542(8) 0.29468(7) 0.46083(8)
O4_14 O 0.90078(8) 0.20208(7) 0.46035(8)
O5_14 O 0.76099(8) 0.18282(8) 0.41160(8)
O6_14 O 0.81785(8) 0.12669(8) 0.36123(8)
O7_14 O 0.88542(8) 0.29468(7) 0.53917(8)
O8_14 O 0.90078(8) 0.20208(7) 0.53965(8)
O9_14 O 0.91160(8) 0.26099(8) 0.31718(8)
O10_14 O 0.86123(8) 0.31785(8) 0.37331(8)
O11_14 O 0.96083(8) 0.20532(7) 0.38542(8)
O12_14 O 0.96035(8) 0.29792(7) 0.40078(8)
In1_15 In 0.10443(2) 0.2500 0.60443(2)
C1_15 C 0.19912(12) 0.19912(12) 0.59848(17)
C2_15 C 0.16631(13) 0.16631(13) 0.62779(16)
C3_15 C 0.11137(16) 0.27514(17) 0.5000
C4_15 C 0.10251(17) 0.22203(19) 0.5000
O1_15 O 0.18282(8) 0.23901(8) 0.58840(8)
O2_15 O 0.12669(8) 0.18215(8) 0.63877(8)
O3_15 O 0.11458(8) 0.29468(7) 0.53917(8)
O4_15 O 0.09922(8) 0.20208(7) 0.53965(8)
O5_15 O 0.23901(8) 0.18282(8) 0.58840(8)
O6_15 O 0.18215(8) 0.12669(8) 0.63877(8)
O7_15 O 0.11458(8) 0.29468(7) 0.46083(8)
O8_15 O 0.09922(8) 0.20208(7) 0.46035(8)
O9_15 O 0.08840(8) 0.26099(8) 0.68282(8)
O10_15 O 0.13877(8) 0.31785(8) 0.62669(8)
O11_15 O 0.03917(8) 0.20532(7) 0.61458(8)
O12_15 O 0.03965(8) 0.29792(7) 0.59922(8)
In1_16 In 0.89557(2) 0.7500 0.60443(2)
C1_16 C 0.80088(12) 0.80088(12) 0.59848(17)
C2_16 C 0.83369(13) 0.83369(13) 0.62779(16)
C3_16 C 0.88863(16) 0.72486(17) 0.5000
C4_16 C 0.89749(17) 0.77797(19) 0.5000
O1_16 O 0.81718(8) 0.76099(8) 0.58840(8)
O2_16 O 0.87331(8) 0.81785(8) 0.63877(8)
O3_16 O 0.88542(8) 0.70532(7) 0.53917(8)
O4_16 O 0.90078(8) 0.79792(7) 0.53965(8)
O5_16 O 0.76099(8) 0.81718(8) 0.58840(8)
O6_16 O 0.81785(8) 0.87331(8) 0.63877(8)
O7_16 O 0.88542(8) 0.70532(7) 0.46083(8)
O8_16 O 0.90078(8) 0.79792(7) 0.46035(8)
O9_16 O 0.91160(8) 0.73901(8) 0.68282(8)
O10_16 O 0.86123(8) 0.68215(8) 0.62669(8)
O11_16 O 0.96083(8) 0.79468(7) 0.61458(8)
O12_16 O 0.96035(8) 0.70208(7) 0.59922(8)
In1_17 In 0.7500 0.60443(2) 0.89557(2)
C1_17 C 0.80088(12) 0.59848(17) 0.80088(12)
C2_17 C 0.83369(13) 0.62779(16) 0.83369(13)
C3_17 C 0.72486(17) 0.5000 0.88863(16)
C4_17 C 0.77797(19) 0.5000 0.89749(17)
O1_17 O 0.76099(8) 0.58840(8) 0.81718(8)
O2_17 O 0.81785(8) 0.63877(8) 0.87331(8)
O3_17 O 0.70532(7) 0.53917(8) 0.88542(8)
O4_17 O 0.79792(7) 0.53965(8) 0.90078(8)
O5_17 O 0.81718(8) 0.58840(8) 0.76099(8)
O6_17 O 0.87331(8) 0.63877(8) 0.81785(8)
O7_17 O 0.70532(7) 0.46083(8) 0.88542(8)
O8_17 O 0.79792(7) 0.46035(8) 0.90078(8)
O9_17 O 0.73901(8) 0.68282(8) 0.91160(8)
O10_17 O 0.68215(8) 0.62669(8) 0.86123(8)
O11_17 O 0.79468(7) 0.61458(8) 0.96083(8)
O12_17 O 0.70208(7) 0.59922(8) 0.96035(8)
In1_18 In 0.2500 0.60443(2) 0.10443(2)
C1_18 C 0.19912(12) 0.59848(17) 0.19912(12)
C2_18 C 0.16631(13) 0.62779(16) 0.16631(13)
C3_18 C 0.27514(17) 0.5000 0.11137(16)
C4_18 C 0.22203(19) 0.5000 0.10251(17)
O1_18 O 0.23901(8) 0.58840(8) 0.18282(8)
O2_18 O 0.18215(8) 0.63877(8) 0.12669(8)
O3_18 O 0.29468(7) 0.53917(8) 0.11458(8)
O4_18 O 0.20208(7) 0.53965(8) 0.09922(8)
O5_18 O 0.18282(8) 0.58840(8) 0.23901(8)
O6_18 O 0.12669(8) 0.63877(8) 0.18215(8)
O7_18 O 0.29468(7) 0.46083(8) 0.11458(8)
O8_18 O 0.20208(7) 0.46035(8) 0.09922(8)
O9_18 O 0.26099(8) 0.68282(8) 0.08840(8)
O10_18 O 0.31785(8) 0.62669(8) 0.13877(8)
O11_18 O 0.20532(7) 0.61458(8) 0.03917(8)
O12_18 O 0.29792(7) 0.59922(8) 0.03965(8)
In1_19 In 0.2500 0.39557(2) 0.89557(2)
C1_19 C 0.19912(12) 0.40152(17) 0.80088(12)
C2_19 C 0.16631(13) 0.37221(16) 0.83369(13)
C3_19 C 0.27514(17) 0.5000 0.88863(16)
C4_19 C 0.22203(19) 0.5000 0.89749(17)
O1_19 O 0.23901(8) 0.41160(8) 0.81718(8)
O2_19 O 0.18215(8) 0.36123(8) 0.87331(8)
O3_19 O 0.29468(7) 0.46083(8) 0.88542(8)
O4_19 O 0.20208(7) 0.46035(8) 0.90078(8)
O5_19 O 0.18282(8) 0.41160(8) 0.76099(8)
O6_19 O 0.12669(8) 0.36123(8) 0.81785(8)
O7_19 O 0.29468(7) 0.53917(8) 0.88542(8)
O8_19 O 0.20208(7) 0.53965(8) 0.90078(8)
O9_19 O 0.26099(8) 0.31718(8) 0.91160(8)
O10_19 O 0.31785(8) 0.37331(8) 0.86123(8)
O11_19 O 0.20532(7) 0.38542(8) 0.96083(8)
O12_19 O 0.29792(7) 0.40078(8) 0.96035(8)
In1_20 In 0.7500 0.39557(2) 0.10443(2)
C1_20 C 0.80088(12) 0.40152(17) 0.19912(12)
C2_20 C 0.83369(13) 0.37221(16) 0.16631(13)
C3_20 C 0.72486(17) 0.5000 0.11137(16)
C4_20 C 0.77797(19) 0.5000 0.10251(17)
O1_20 O 0.76099(8) 0.41160(8) 0.18282(8)
O2_20 O 0.81785(8) 0.36123(8) 0.12669(8)
O3_20 O 0.70532(7) 0.46083(8) 0.11458(8)
O4_20 O 0.79792(7) 0.46035(8) 0.09922(8)
O5_20 O 0.81718(8) 0.41160(8) 0.23901(8)
O6_20 O 0.87331(8) 0.36123(8) 0.18215(8)
O7_20 O 0.70532(7) 0.53917(8) 0.11458(8)
O8_20 O 0.79792(7) 0.53965(8) 0.09922(8)
O9_20 O 0.73901(8) 0.31718(8) 0.08840(8)
O10_20 O 0.68215(8) 0.37331(8) 0.13877(8)
O11_20 O 0.79468(7) 0.38542(8) 0.03917(8)
O12_20 O 0.70208(7) 0.40078(8) 0.03965(8)
In1_21 In 0.60443(2) 0.10443(2) 0.2500
C1_21 C 0.59848(17) 0.19912(12) 0.19912(12)
C2_21 C 0.62779(16) 0.16631(13) 0.16631(13)
C3_21 C 0.5000 0.11137(16) 0.27514(17)
C4_21 C 0.5000 0.10251(17) 0.22203(19)
O1_21 O 0.58840(8) 0.18282(8) 0.23901(8)
O2_21 O 0.63877(8) 0.12669(8) 0.18215(8)
O3_21 O 0.53917(8) 0.11458(8) 0.29468(7)
O4_21 O 0.53965(8) 0.09922(8) 0.20208(7)
O5_21 O 0.58840(8) 0.23901(8) 0.18282(8)
O6_21 O 0.63877(8) 0.18215(8) 0.12669(8)
O7_21 O 0.46083(8) 0.11458(8) 0.29468(7)
O8_21 O 0.46035(8) 0.09922(8) 0.20208(7)
O9_21 O 0.68282(8) 0.08840(8) 0.26099(8)
O10_21 O 0.62669(8) 0.13877(8) 0.31785(8)
O11_21 O 0.61458(8) 0.03917(8) 0.20532(7)
O12_21 O 0.59922(8) 0.03965(8) 0.29792(7)
In1_22 In 0.60443(2) 0.89557(2) 0.7500
C1_22 C 0.59848(17) 0.80088(12) 0.80088(12)
C2_22 C 0.62779(16) 0.83369(13) 0.83369(13)
C3_22 C 0.5000 0.88863(16) 0.72486(17)
C4_22 C 0.5000 0.89749(17) 0.77797(19)
O1_22 O 0.58840(8) 0.81718(8) 0.76099(8)
O2_22 O 0.63877(8) 0.87331(8) 0.81785(8)
O3_22 O 0.53917(8) 0.88542(8) 0.70532(7)
O4_22 O 0.53965(8) 0.90078(8) 0.79792(7)
O5_22 O 0.58840(8) 0.76099(8) 0.81718(8)
O6_22 O 0.63877(8) 0.81785(8) 0.87331(8)
O7_22 O 0.46083(8) 0.88542(8) 0.70532(7)
O8_22 O 0.46035(8) 0.90078(8) 0.79792(7)
O9_22 O 0.68282(8) 0.91160(8) 0.73901(8)
O10_22 O 0.62669(8) 0.86123(8) 0.68215(8)
O11_22 O 0.61458(8) 0.96083(8) 0.79468(7)
O12_22 O 0.59922(8) 0.96035(8) 0.70208(7)
In1_23 In 0.39557(2) 0.10443(2) 0.7500
C1_23 C 0.40152(17) 0.19912(12) 0.80088(12)
C2_23 C 0.37221(16) 0.16631(13) 0.83369(13)
C3_23 C 0.5000 0.11137(16) 0.72486(17)
C4_23 C 0.5000 0.10251(17) 0.77797(19)
O1_23 O 0.41160(8) 0.18282(8) 0.76099(8)
O2_23 O 0.36123(8) 0.12669(8) 0.81785(8)
O3_23 O 0.46083(8) 0.11458(8) 0.70532(7)
O4_23 O 0.46035(8) 0.09922(8) 0.79792(7)
O5_23 O 0.41160(8) 0.23901(8) 0.81718(8)
O6_23 O 0.36123(8) 0.18215(8) 0.87331(8)
O7_23 O 0.53917(8) 0.11458(8) 0.70532(7)
O8_23 O 0.53965(8) 0.09922(8) 0.79792(7)
O9_23 O 0.31718(8) 0.08840(8) 0.73901(8)
O10_23 O 0.37331(8) 0.13877(8) 0.68215(8)
O11_23 O 0.38542(8) 0.03917(8) 0.79468(7)
O12_23 O 0.40078(8) 0.03965(8) 0.70208(7)
In1_24 In 0.39557(2) 0.89557(2) 0.2500
C1_24 C 0.40152(17) 0.80088(12) 0.19912(12)
C2_24 C 0.37221(16) 0.83369(13) 0.16631(13)
C3_24 C 0.5000 0.88863(16) 0.27514(17)
C4_24 C 0.5000 0.89749(17) 0.22203(19)
O1_24 O 0.41160(8) 0.81718(8) 0.23901(8)
O2_24 O 0.36123(8) 0.87331(8) 0.18215(8)
O3_24 O 0.46083(8) 0.88542(8) 0.29468(7)
O4_24 O 0.46035(8) 0.90078(8) 0.20208(7)
O5_24 O 0.41160(8) 0.76099(8) 0.18282(8)
O6_24 O 0.36123(8) 0.81785(8) 0.12669(8)
O7_24 O 0.53917(8) 0.88542(8) 0.29468(7)
O8_24 O 0.53965(8) 0.90078(8) 0.20208(7)
O9_24 O 0.31718(8) 0.91160(8) 0.26099(8)
O10_24 O 0.37331(8) 0.86123(8) 0.31785(8)
O11_24 O 0.38542(8) 0.96083(8) 0.20532(7)
O12_24 O 0.40078(8) 0.96035(8) 0.29792(7)
C1_25 C 0.30088(12) 0.69912(12) 0.09848(17)
C2_25 C 0.33369(13) 0.66631(13) 0.12779(16)
C3_25 C 0.22486(17) 0.61137(16) 0.0000
C4_25 C 0.27797(19) 0.60251(17) 0.0000
O5_25 O 0.31718(8) 0.73901(8) 0.08840(8)
O6_25 O 0.37331(8) 0.68215(8) 0.13877(8)
C3_26 C 0.22486(17) 0.61137(16) 1.0000
C4_26 C 0.27797(19) 0.60251(17) 1.0000
O7_25 O 0.20532(7) 0.61458(8) 0.96083(8)
O8_25 O 0.29792(7) 0.59922(8) 0.96035(8)
C1_26 C 0.69912(12) 0.30088(12) 0.09848(17)
C2_26 C 0.66631(13) 0.33369(13) 0.12779(16)
C3_27 C 0.77514(17) 0.38863(16) 0.0000
C4_27 C 0.72203(19) 0.39749(17) 0.0000
O5_26 O 0.68282(8) 0.26099(8) 0.08840(8)
O6_26 O 0.62669(8) 0.31785(8) 0.13877(8)
C3_28 C 0.77514(17) 0.38863(16) 1.0000
C4_28 C 0.72203(19) 0.39749(17) 1.0000
O7_26 O 0.79468(7) 0.38542(8) 0.96083(8)
O8_26 O 0.70208(7) 0.40078(8) 0.96035(8)
C3_29 C 0.77514(17) 0.61137(16) 0.0000
C4_29 C 0.72203(19) 0.60251(17) 0.0000
O7_27 O 0.79468(7) 0.61458(8) 0.03917(8)
O8_27 O 0.70208(7) 0.59922(8) 0.03965(8)
C1_27 C 0.69912(12) 0.69912(12) 0.90152(17)
C2_27 C 0.66631(13) 0.66631(13) 0.87221(16)
C3_30 C 0.77514(17) 0.61137(16) 1.0000
C4_30 C 0.72203(19) 0.60251(17) 1.0000
O5_27 O 0.68282(8) 0.73901(8) 0.91160(8)
O6_27 O 0.62669(8) 0.68215(8) 0.86123(8)
C3_31 C 0.22486(17) 0.38863(16) 0.0000
C4_31 C 0.27797(19) 0.39749(17) 0.0000
O7_28 O 0.20532(7) 0.38542(8) 0.03917(8)
O8_28 O 0.29792(7) 0.40078(8) 0.03965(8)
C1_28 C 0.30088(12) 0.30088(12) 0.90152(17)
C2_28 C 0.33369(13) 0.33369(13) 0.87221(16)
C3_32 C 0.22486(17) 0.38863(16) 1.0000
C4_32 C 0.27797(19) 0.39749(17) 1.0000
O5_28 O 0.31718(8) 0.26099(8) 0.91160(8)
O6_28 O 0.37331(8) 0.31785(8) 0.86123(8)
C1_29 C 0.09848(17) 0.30088(12) 0.69912(12)
C2_29 C 0.12779(16) 0.33369(13) 0.66631(13)
C3_33 C -0.0000 0.22486(17) 0.61137(16)
C4_33 C -0.0000 0.27797(19) 0.60251(17)
O5_29 O 0.08840(8) 0.31718(8) 0.73901(8)
O6_29 O 0.13877(8) 0.37331(8) 0.68215(8)
C3_34 C 1.0000 0.22486(17) 0.61137(16)
C4_34 C 1.0000 0.27797(19) 0.60251(17)
O7_29 O 0.96083(8) 0.20532(7) 0.61458(8)
O8_29 O 0.96035(8) 0.29792(7) 0.59922(8)
C1_30 C 0.09848(17) 0.69912(12) 0.30088(12)
C2_30 C 0.12779(16) 0.66631(13) 0.33369(13)
C3_35 C 0.0000 0.77514(17) 0.38863(16)
C4_35 C -0.0000 0.72203(19) 0.39749(17)
O5_30 O 0.08840(8) 0.68282(8) 0.26099(8)
O6_30 O 0.13877(8) 0.62669(8) 0.31785(8)
C3_36 C 1.0000 0.77514(17) 0.38863(16)
C4_36 C 1.0000 0.72203(19) 0.39749(17)
O7_30 O 0.96083(8) 0.79468(7) 0.38542(8)
O8_30 O 0.96035(8) 0.70208(7) 0.40078(8)
C3_37 C 0.0000 0.77514(17) 0.61137(16)
C4_37 C 0.0000 0.72203(19) 0.60251(17)
O7_31 O 0.03917(8) 0.79468(7) 0.61458(8)
O8_31 O 0.03965(8) 0.70208(7) 0.59922(8)
C1_31 C 0.90152(17) 0.69912(12) 0.69912(12)
C2_31 C 0.87221(16) 0.66631(13) 0.66631(13)
C3_38 C 1.0000 0.77514(17) 0.61137(16)
C4_38 C 1.0000 0.72203(19) 0.60251(17)
O5_31 O 0.91160(8) 0.68282(8) 0.73901(8)
O6_31 O 0.86123(8) 0.62669(8) 0.68215(8)
C3_39 C -0.0000 0.22486(17) 0.38863(16)
C4_39 C -0.0000 0.27797(19) 0.39749(17)
O7_32 O 0.03917(8) 0.20532(7) 0.38542(8)
O8_32 O 0.03965(8) 0.29792(7) 0.40078(8)
C1_32 C 0.90152(17) 0.30088(12) 0.30088(12)
C2_32 C 0.87221(16) 0.33369(13) 0.33369(13)
C3_40 C 1.0000 0.22486(17) 0.38863(16)
C4_40 C 1.0000 0.27797(19) 0.39749(17)
O5_32 O 0.91160(8) 0.31718(8) 0.26099(8)
O6_32 O 0.86123(8) 0.37331(8) 0.31785(8)
C1_33 C 0.69912(12) 0.09848(17) 0.30088(12)
C2_33 C 0.66631(13) 0.12779(16) 0.33369(13)
C3_41 C 0.61137(16) -0.0000 0.22486(17)
C4_41 C 0.60251(17) -0.0000 0.27797(19)
O5_33 O 0.73901(8) 0.08840(8) 0.31718(8)
O6_33 O 0.68215(8) 0.13877(8) 0.37331(8)
C3_42 C 0.61137(16) 1.0000 0.22486(17)
C4_42 C 0.60251(17) 1.0000 0.27797(19)
O7_33 O 0.61458(8) 0.96083(8) 0.20532(7)
O8_33 O 0.59922(8) 0.96035(8) 0.29792(7)
C1_34 C 0.30088(12) 0.09848(17) 0.69912(12)
C2_34 C 0.33369(13) 0.12779(16) 0.66631(13)
C3_43 C 0.38863(16) 0.0000 0.77514(17)
C4_43 C 0.39749(17) -0.0000 0.72203(19)
O5_34 O 0.26099(8) 0.08840(8) 0.68282(8)
O6_34 O 0.31785(8) 0.13877(8) 0.62669(8)
C3_44 C 0.38863(16) 1.0000 0.77514(17)
C4_44 C 0.39749(17) 1.0000 0.72203(19)
O7_34 O 0.38542(8) 0.96083(8) 0.79468(7)
O8_34 O 0.40078(8) 0.96035(8) 0.70208(7)
C3_45 C 0.61137(16) 0.0000 0.77514(17)
C4_45 C 0.60251(17) -0.0000 0.72203(19)
O7_35 O 0.61458(8) 0.03917(8) 0.79468(7)
O8_35 O 0.59922(8) 0.03965(8) 0.70208(7)
C1_35 C 0.69912(12) 0.90152(17) 0.69912(12)
C2_35 C 0.66631(13) 0.87221(16) 0.66631(13)
C3_46 C 0.61137(16) 1.0000 0.77514(17)
C4_46 C 0.60251(17) 1.0000 0.72203(19)
O5_35 O 0.73901(8) 0.91160(8) 0.68282(8)
O6_35 O 0.68215(8) 0.86123(8) 0.62669(8)
C3_47 C 0.38863(16) -0.0000 0.22486(17)
C4_47 C 0.39749(17) -0.0000 0.27797(19)
O7_36 O 0.38542(8) 0.03917(8) 0.20532(7)
O8_36 O 0.40078(8) 0.03965(8) 0.29792(7)
C1_36 C 0.30088(12) 0.90152(17) 0.30088(12)
C2_36 C 0.33369(13) 0.87221(16) 0.33369(13)
C3_48 C 0.38863(16) 1.0000 0.22486(17)
C4_48 C 0.39749(17) 1.0000 0.27797(19)
O5_36 O 0.26099(8) 0.91160(8) 0.31718(8)
O6_36 O 0.31785(8) 0.86123(8) 0.37331(8)
C3_49 C 0.61137(16) 0.22486(17) 0.0000
C4_49 C 0.60251(17) 0.27797(19) 0.0000
O7_37 O 0.61458(8) 0.20532(7) 0.03917(8)
O8_37 O 0.59922(8) 0.29792(7) 0.03965(8)
C1_37 C 0.69912(12) 0.30088(12) 0.90152(17)
C2_37 C 0.66631(13) 0.33369(13) 0.87221(16)
C3_50 C 0.61137(16) 0.22486(17) 1.0000
C4_50 C 0.60251(17) 0.27797(19) 1.0000
O5_37 O 0.73901(8) 0.31718(8) 0.91160(8)
O6_37 O 0.68215(8) 0.37331(8) 0.86123(8)
C3_51 C 0.38863(16) 0.77514(17) 0.0000
C4_51 C 0.39749(17) 0.72203(19) 0.0000
O7_38 O 0.38542(8) 0.79468(7) 0.03917(8)
O8_38 O 0.40078(8) 0.70208(7) 0.03965(8)
C1_38 C 0.30088(12) 0.69912(12) 0.90152(17)
C2_38 C 0.33369(13) 0.66631(13) 0.87221(16)
C3_52 C 0.38863(16) 0.77514(17) 1.0000
C4_52 C 0.39749(17) 0.72203(19) 1.0000
O5_38 O 0.26099(8) 0.68282(8) 0.91160(8)
O6_38 O 0.31785(8) 0.62669(8) 0.86123(8)
C1_39 C 0.69912(12) 0.69912(12) 0.09848(17)
C2_39 C 0.66631(13) 0.66631(13) 0.12779(16)
C3_53 C 0.61137(16) 0.77514(17) 0.0000
C4_53 C 0.60251(17) 0.72203(19) 0.0000
O5_39 O 0.73901(8) 0.68282(8) 0.08840(8)
O6_39 O 0.68215(8) 0.62669(8) 0.13877(8)
C3_54 C 0.61137(16) 0.77514(17) 1.0000
C4_54 C 0.60251(17) 0.72203(19) 1.0000
O7_39 O 0.61458(8) 0.79468(7) 0.96083(8)
O8_39 O 0.59922(8) 0.70208(7) 0.96035(8)
C1_40 C 0.30088(12) 0.30088(12) 0.09848(17)
C2_40 C 0.33369(13) 0.33369(13) 0.12779(16)
C3_55 C 0.38863(16) 0.22486(17) 0.0000
C4_55 C 0.39749(17) 0.27797(19) 0.0000
O5_40 O 0.26099(8) 0.31718(8) 0.08840(8)
O6_40 O 0.31785(8) 0.37331(8) 0.13877(8)
C3_56 C 0.38863(16) 0.22486(17) 1.0000
C4_56 C 0.39749(17) 0.27797(19) 1.0000
O7_40 O 0.38542(8) 0.20532(7) 0.96083(8)
O8_40 O 0.40078(8) 0.29792(7) 0.96035(8)
C1_41 C 0.30088(12) 0.09848(17) 0.30088(12)
C2_41 C 0.33369(13) 0.12779(16) 0.33369(13)
C3_57 C 0.22486(17) -0.0000 0.38863(16)
C4_57 C 0.27797(19) -0.0000 0.39749(17)
O5_41 O 0.31718(8) 0.08840(8) 0.26099(8)
O6_41 O 0.37331(8) 0.13877(8) 0.31785(8)
C3_58 C 0.22486(17) 1.0000 0.38863(16)
C4_58 C 0.27797(19) 1.0000 0.39749(17)
O7_41 O 0.20532(7) 0.96083(8) 0.38542(8)
O8_41 O 0.29792(7) 0.96035(8) 0.40078(8)
C1_42 C 0.69912(12) 0.09848(17) 0.69912(12)
C2_42 C 0.66631(13) 0.12779(16) 0.66631(13)
C3_59 C 0.77514(17) 0.0000 0.61137(16)
C4_59 C 0.72203(19) 0.0000 0.60251(17)
O5_42 O 0.68282(8) 0.08840(8) 0.73901(8)
O6_42 O 0.62669(8) 0.13877(8) 0.68215(8)
C3_60 C 0.77514(17) 1.0000 0.61137(16)
C4_60 C 0.72203(19) 1.0000 0.60251(17)
O7_42 O 0.79468(7) 0.96083(8) 0.61458(8)
O8_42 O 0.70208(7) 0.96035(8) 0.59922(8)
C3_61 C 0.77514(17) -0.0000 0.38863(16)
C4_61 C 0.72203(19) -0.0000 0.39749(17)
O7_43 O 0.79468(7) 0.03917(8) 0.38542(8)
O8_43 O 0.70208(7) 0.03965(8) 0.40078(8)
C1_43 C 0.69912(12) 0.90152(17) 0.30088(12)
C2_43 C 0.66631(13) 0.87221(16) 0.33369(13)
C3_62 C 0.77514(17) 1.0000 0.38863(16)
C4_62 C 0.72203(19) 1.0000 0.39749(17)
O5_43 O 0.68282(8) 0.91160(8) 0.26099(8)
O6_43 O 0.62669(8) 0.86123(8) 0.31785(8)
C3_63 C 0.22486(17) 0.0000 0.61137(16)
C4_63 C 0.27797(19) 0.0000 0.60251(17)
O7_44 O 0.20532(7) 0.03917(8) 0.61458(8)
O8_44 O 0.29792(7) 0.03965(8) 0.59922(8)
C1_44 C 0.30088(12) 0.90152(17) 0.69912(12)
C2_44 C 0.33369(13) 0.87221(16) 0.66631(13)
C3_64 C 0.22486(17) 1.0000 0.61137(16)
C4_64 C 0.27797(19) 1.0000 0.60251(17)
O5_44 O 0.31718(8) 0.91160(8) 0.73901(8)
O6_44 O 0.37331(8) 0.86123(8) 0.68215(8)
C1_45 C 0.09848(17) 0.69912(12) 0.69912(12)
C2_45 C 0.12779(16) 0.66631(13) 0.66631(13)
C3_65 C 0.0000 0.61137(16) 0.77514(17)
C4_65 C 0.0000 0.60251(17) 0.72203(19)
O5_45 O 0.08840(8) 0.73901(8) 0.68282(8)
O6_45 O 0.13877(8) 0.68215(8) 0.62669(8)
C3_66 C 1.0000 0.61137(16) 0.77514(17)
C4_66 C 1.0000 0.60251(17) 0.72203(19)
O7_45 O 0.96083(8) 0.61458(8) 0.79468(7)
O8_45 O 0.96035(8) 0.59922(8) 0.70208(7)
C1_46 C 0.09848(17) 0.30088(12) 0.30088(12)
C2_46 C 0.12779(16) 0.33369(13) 0.33369(13)
C3_67 C -0.0000 0.38863(16) 0.22486(17)
C4_67 C -0.0000 0.39749(17) 0.27797(19)
O5_46 O 0.08840(8) 0.26099(8) 0.31718(8)
O6_46 O 0.13877(8) 0.31785(8) 0.37331(8)
C3_68 C 1.0000 0.38863(16) 0.22486(17)
C4_68 C 1.0000 0.39749(17) 0.27797(19)
O7_46 O 0.96083(8) 0.38542(8) 0.20532(7)
O8_46 O 0.96035(8) 0.40078(8) 0.29792(7)
C3_69 C -0.0000 0.61137(16) 0.22486(17)
C4_69 C -0.0000 0.60251(17) 0.27797(19)
O7_47 O 0.03917(8) 0.61458(8) 0.20532(7)
O8_47 O 0.03965(8) 0.59922(8) 0.29792(7)
C1_47 C 0.90152(17) 0.69912(12) 0.30088(12)
C2_47 C 0.87221(16) 0.66631(13) 0.33369(13)
C3_70 C 1.0000 0.61137(16) 0.22486(17)
C4_70 C 1.0000 0.60251(17) 0.27797(19)
O5_47 O 0.91160(8) 0.73901(8) 0.31718(8)
O6_47 O 0.86123(8) 0.68215(8) 0.37331(8)
C3_71 C 0.0000 0.38863(16) 0.77514(17)
C4_71 C -0.0000 0.39749(17) 0.72203(19)
O7_48 O 0.03917(8) 0.38542(8) 0.79468(7)
O8_48 O 0.03965(8) 0.40078(8) 0.70208(7)
C1_48 C 0.90152(17) 0.30088(12) 0.69912(12)
C2_48 C 0.87221(16) 0.33369(13) 0.66631(13)
C3_72 C 1.0000 0.38863(16) 0.77514(17)
C4_72 C 1.0000 0.39749(17) 0.72203(19)
O5_48 O 0.91160(8) 0.26099(8) 0.68282(8)
O6_48 O 0.86123(8) 0.31785(8) 0.62669(8)
loop_
_geom_bond_atom_site_label_1
_geom_bond_atom_site_label_2
_geom_bond_site_symmetry_1
_geom_bond_site_symmetry_2
In1 O1 1_555 1_555
C1 C2 1_555 1_555
C2 O2 1_555 1_555
C3 C4 1_555 1_555
C4 O4 1_555 1_555
O1 C1 1_555 1_555
O2 In1 1_555 1_555
O3 In1 1_555 1_555
O4 In1 1_555 1_555
O5 C1 1_555 1_555
O6 C2 1_555 1_555
O7 C3 1_555 1_555
O8 C4 1_555 1_555
In2 O7 1_555 1_555
In3 O5 1_555 1_555
O9 In1 1_555 1_555
O10 In1 1_555 1_555
O11 In1 1_555 1_555
O12 In1 1_555 1_555
C3 O3 1_555 1_555
O6 In3 1_555 1_555
O8 In2 1_555 1_555
In1_2 O1_2 1_555 1_555
C1_2 C2_2 1_555 1_555
C2_2 O2_2 1_555 1_555
C3_2 C4_2 1_555 1_555
C4_2 O4_2 1_555 1_555
O1_2 C1_2 1_555 1_555
O2_2 In1_2 1_555 1_555
O3_2 In1_2 1_555 1_555
O4_2 In1_2 1_555 1_555
O5_2 C1_2 1_555 1_555
O6_2 C2_2 1_555 1_555
O7_2 C3_2 1_555 1_555
O8_2 C4_2 1_555 1_555
In2_2 O7_2 1_555 1_555
In3_2 O5_2 1_555 1_555
O9_2 In1_2 1_555 1_555
O10_2 In1_2 1_555 1_555
O11_2 In1_2 1_555 1_555
O12_2 In1_2 1_555 1_555
C3_2 O3_2 1_555 1_555
O6_2 In3_2 1_555 1_555
O8_2 In2_2 1_555 1_555
In1_3 O1_3 1_555 1_555
C1_3 C2_3 1_555 1_555
C2_3 O2_3 1_555 1_555
C3_3 C4_3 1_555 1_555
C4_3 O4_3 1_555 1_555
O1_3 C1_3 1_555 1_555
O2_3 In1_3 1_555 1_555
O3_3 In1_3 1_555 1_555
O4_3 In1_3 1_555 1_555
O5_3 C1_3 1_555 1_555
O6_3 C2_3 1_555 1_555
O7_3 C3_3 1_555 1_555
O8_3 C4_3 1_555 1_555
In2_3 O7_3 1_555 1_555
In3_3 O5_3 1_555 1_555
O9_3 In1_3 1_555 1_555
O10_3 In1_3 1_555 1_555
O11_3 In1_3 1_555 1_555
O12_3 In1_3 1_555 1_555
C3_3 O3_3 1_555 1_555
O6_3 In3_3 1_555 1_555
O8_3 In2_3 1_555 1_555
In1_4 O1_4 1_555 1_555
C1_4 C2_4 1_555 1_555
C2_4 O2_4 1_555 1_555
C3_4 C4_4 1_555 1_555
C4_4 O4_4 1_555 1_555
O1_4 C1_4 1_555 1_555
O2_4 In1_4 1_555 1_555
O3_4 In1_4 1_555 1_555
O4_4 In1_4 1_555 1_555
O5_4 C1_4 1_555 1_555
O6_4 C2_4 1_555 1_555
O7_4 C3_4 1_555 1_555
O8_4 C4_4 1_555 1_555
In2_4 O7_4 1_555 1_555
In3_4 O5_4 1_555 1_555
O9_4 In1_4 1_555 1_555
O10_4 In1_4 1_555 1_555
O11_4 In1_4 1_555 1_555
O12_4 In1_4 1_555 1_555
C3_4 O3_4 1_555 1_555
O6_4 In3_4 1_555 1_555
O8_4 In2_4 1_555 1_555
In1_5 O1_5 1_555 1_555
C1_5 C2_5 1_555 1_555
C2_5 O2_5 1_555 1_555
C3_5 C4_5 1_555 1_555
C4_5 O4_5 1_555 1_555
O1_5 C1_5 1_555 1_555
O2_5 In1_5 1_555 1_555
O3_5 In1_5 1_555 1_555
O4_5 In1_5 1_555 1_555
O5_5 C1_5 1_555 1_555
O6_5 C2_5 1_555 1_555
O7_5 C3_5 1_555 1_555
O8_5 C4_5 1_555 1_555
In2_5 O7_5 1_555 1_555
In3_5 O5_5 1_555 1_555
O9_5 In1_5 1_555 1_555
O10_5 In1_5 1_555 1_555
O11_5 In1_5 1_555 1_555
O12_5 In1_5 1_555 1_555
C3_5 O3_5 1_555 1_555
O6_5 In3_5 1_555 1_555
O8_5 In2_5 1_555 1_555
In1_6 O1_6 1_555 1_555
C1_6 C2_6 1_555 1_555
C2_6 O2_6 1_555 1_555
C3_6 C4_6 1_555 1_555
C4_6 O4_6 1_555 1_555
O1_6 C1_6 1_555 1_555
O2_6 In1_6 1_555 1_555
O3_6 In1_6 1_555 1_555
O4_6 In1_6 1_555 1_555
O5_6 C1_6 1_555 1_555
O6_6 C2_6 1_555 1_555
O7_6 C3_6 1_555 1_555
O8_6 C4_6 1_555 1_555
In2_6 O7_6 1_555 1_555
In3_6 O5_6 1_555 1_555
O9_6 In1_6 1_555 1_555
O10_6 In1_6 1_555 1_555
O11_6 In1_6 1_555 1_555
O12_6 In1_6 1_555 1_555
C3_6 O3_6 1_555 1_555
O6_6 In3_6 1_555 1_555
O8_6 In2_6 1_555 1_555
In1_7 O1_7 1_555 1_555
C1_7 C2_7 1_555 1_555
C2_7 O2_7 1_555 1_555
C3_7 C4_7 1_555 1_555
C4_7 O4_7 1_555 1_555
O1_7 C1_7 1_555 1_555
O2_7 In1_7 1_555 1_555
O3_7 In1_7 1_555 1_555
O4_7 In1_7 1_555 1_555
O5_7 C1_7 1_555 1_555
O6_7 C2_7 1_555 1_555
O7_7 C3_7 1_555 1_555
O8_7 C4_7 1_555 1_555
In2_7 O7_7 1_555 1_555
In3_7 O5_7 1_555 1_555
O9_7 In1_7 1_555 1_555
O10_7 In1_7 1_555 1_555
O11_7 In1_7 1_555 1_555
O12_7 In1_7 1_555 1_555
C3_7 O3_7 1_555 1_555
O6_7 In3_7 1_555 1_555
O8_7 In2_7 1_555 1_555
In1_8 O1_8 1_555 1_555
C1_8 C2_8 1_555 1_555
C2_8 O2_8 1_555 1_555
C3_8 C4_8 1_555 1_555
C4_8 O4_8 1_555 1_555
O1_8 C1_8 1_555 1_555
O2_8 In1_8 1_555 1_555
O3_8 In1_8 1_555 1_555
O4_8 In1_8 1_555 1_555
O5_8 C1_8 1_555 1_555
O6_8 C2_8 1_555 1_555
O7_8 C3_8 1_555 1_555
O8_8 C4_8 1_555 1_555
In2_8 O7_8 1_555 1_555
In3_8 O5_8 1_555 1_555
O9_8 In1_8 1_555 1_555
O10_8 In1_8 1_555 1_555
O11_8 In1_8 1_555 1_555
O12_8 In1_8 1_555 1_555
C3_8 O3_8 1_555 1_555
O6_8 In3_8 1_555 1_555
O8_8 In2_8 1_555 1_555
In1_9 O1_9 1_555 1_555
C1_9 C2_9 1_555 1_555
C2_9 O2_9 1_555 1_555
C3_9 C4_9 1_555 1_555
C4_9 O4_9 1_555 1_555
O1_9 C1_9 1_555 1_555
O2_9 In1_9 1_555 1_555
O3_9 In1_9 1_555 1_555
O4_9 In1_9 1_555 1_555
O5_9 C1_9 1_555 1_555
O6_9 C2_9 1_555 1_555
O7_9 C3_9 1_555 1_555
O8_9 C4_9 1_555 1_555
In2_9 O7_9 1_555 1_555
In3_9 O5_9 1_555 1_555
O9_9 In1_9 1_555 1_555
O10_9 In1_9 1_555 1_555
O11_9 In1_9 1_555 1_555
O12_9 In1_9 1_555 1_555
C3_9 O3_9 1_555 1_555
O6_9 In3_9 1_555 1_555
O8_9 In2_9 1_555 1_555
In1_10 O1_10 1_555 1_555
C1_10 C2_10 1_555 1_555
C2_10 O2_10 1_555 1_555
C3_10 C4_10 1_555 1_555
C4_10 O4_10 1_555 1_555
O1_10 C1_10 1_555 1_555
O2_10 In1_10 1_555 1_555
O3_10 In1_10 1_555 1_555
O4_10 In1_10 1_555 1_555
O5_10 C1_10 1_555 1_555
O6_10 C2_10 1_555 1_555
O7_10 C3_10 1_555 1_555
O8_10 C4_10 1_555 1_555
In2_10 O7_10 1_555 1_555
In3_10 O5_10 1_555 1_555
O9_10 In1_10 1_555 1_555
O10_10 In1_10 1_555 1_555
O11_10 In1_10 1_555 1_555
O12_10 In1_10 1_555 1_555
C3_10 O3_10 1_555 1_555
O6_10 In3_10 1_555 1_555
O8_10 In2_10 1_555 1_555
In1_11 O1_11 1_555 1_555
C1_11 C2_11 1_555 1_555
C2_11 O2_11 1_555 1_555
C3_11 C4_11 1_555 1_555
C4_11 O4_11 1_555 1_555
O1_11 C1_11 1_555 1_555
O2_11 In1_11 1_555 1_555
O3_11 In1_11 1_555 1_555
O4_11 In1_11 1_555 1_555
O5_11 C1_11 1_555 1_555
O6_11 C2_11 1_555 1_555
O7_11 C3_11 1_555 1_555
O8_11 C4_11 1_555 1_555
In2_11 O7_11 1_555 1_555
In3_11 O5_11 1_555 1_555
O9_11 In1_11 1_555 1_555
O10_11 In1_11 1_555 1_555
O11_11 In1_11 1_555 1_555
O12_11 In1_11 1_555 1_555
C3_11 O3_11 1_555 1_555
O6_11 In3_11 1_555 1_555
O8_11 In2_11 1_555 1_555
In1_12 O1_12 1_555 1_555
C1_12 C2_12 1_555 1_555
C2_12 O2_12 1_555 1_555
C3_12 C4_12 1_555 1_555
C4_12 O4_12 1_555 1_555
O1_12 C1_12 1_555 1_555
O2_12 In1_12 1_555 1_555
O3_12 In1_12 1_555 1_555
O4_12 In1_12 1_555 1_555
O5_12 C1_12 1_555 1_555
O6_12 C2_12 1_555 1_555
O7_12 C3_12 1_555 1_555
O8_12 C4_12 1_555 1_555
In2_12 O7_12 1_555 1_555
In3_12 O5_12 1_555 1_555
O9_12 In1_12 1_555 1_555
O10_12 In1_12 1_555 1_555
O11_12 In1_12 1_555 1_555
O12_12 In1_12 1_555 1_555
C3_12 O3_12 1_555 1_555
O6_12 In3_12 1_555 1_555
O8_12 In2_12 1_555 1_555
In1_13 O1_13 1_555 1_555
C1_13 C2_13 1_555 1_555
C2_13 O2_13 1_555 1_555
C3_13 C4_13 1_555 1_555
C4_13 O4_13 1_555 1_555
O1_13 C1_13 1_555 1_555
O2_13 In1_13 1_555 1_555
O3_13 In1_13 1_555 1_555
O4_13 In1_13 1_555 1_555
O5_13 C1_13 1_555 1_555
O6_13 C2_13 1_555 1_555
O7_13 C3_13 1_555 1_555
O8_13 C4_13 1_555 1_555
In3_2 O7_13 1_555 1_555
In2_2 O5_13 1_555 1_555
O9_13 In1_13 1_555 1_555
O10_13 In1_13 1_555 1_555
O11_13 In1_13 1_555 1_555
O12_13 In1_13 1_555 1_555
C3_13 O3_13 1_555 1_555
O6_13 In2_2 1_555 1_555
O8_13 In3_2 1_555 1_555
In1_14 O1_14 1_555 1_555
C1_14 C2_14 1_555 1_555
C2_14 O2_14 1_555 1_555
C3_14 C4_14 1_555 1_555
C4_14 O4_14 1_555 1_555
O1_14 C1_14 1_555 1_555
O2_14 In1_14 1_555 1_555
O3_14 In1_14 1_555 1_555
O4_14 In1_14 1_555 1_555
O5_14 C1_14 1_555 1_555
O6_14 C2_14 1_555 1_555
O7_14 C3_14 1_555 1_555
O8_14 C4_14 1_555 1_555
In3 O7_14 1_555 1_555
In2 O5_14 1_555 1_555
O9_14 In1_14 1_555 1_555
O10_14 In1_14 1_555 1_555
O11_14 In1_14 1_555 1_555
O12_14 In1_14 1_555 1_555
C3_14 O3_14 1_555 1_555
O6_14 In2 1_555 1_555
O8_14 In3 1_555 1_555
In1_15 O1_15 1_555 1_555
C1_15 C2_15 1_555 1_555
C2_15 O2_15 1_555 1_555
C3_15 C4_15 1_555 1_555
C4_15 O4_15 1_555 1_555
O1_15 C1_15 1_555 1_555
O2_15 In1_15 1_555 1_555
O3_15 In1_15 1_555 1_555
O4_15 In1_15 1_555 1_555
O5_15 C1_15 1_555 1_555
O6_15 C2_15 1_555 1_555
O7_15 C3_15 1_555 1_555
O8_15 C4_15 1_555 1_555
In3_3 O7_15 1_555 1_555
In2_3 O5_15 1_555 1_555
O9_15 In1_15 1_555 1_555
O10_15 In1_15 1_555 1_555
O11_15 In1_15 1_555 1_555
O12_15 In1_15 1_555 1_555
C3_15 O3_15 1_555 1_555
O6_15 In2_3 1_555 1_555
O8_15 In3_3 1_555 1_555
In1_16 O1_16 1_555 1_555
C1_16 C2_16 1_555 1_555
C2_16 O2_16 1_555 1_555
C3_16 C4_16 1_555 1_555
C4_16 O4_16 1_555 1_555
O1_16 C1_16 1_555 1_555
O2_16 In1_16 1_555 1_555
O3_16 In1_16 1_555 1_555
O4_16 In1_16 1_555 1_555
O5_16 C1_16 1_555 1_555
O6_16 C2_16 1_555 1_555
O7_16 C3_16 1_555 1_555
O8_16 C4_16 1_555 1_555
In3_4 O7_16 1_555 1_555
In2_4 O5_16 1_555 1_555
O9_16 In1_16 1_555 1_555
O10_16 In1_16 1_555 1_555
O11_16 In1_16 1_555 1_555
O12_16 In1_16 1_555 1_555
C3_16 O3_16 1_555 1_555
O6_16 In2_4 1_555 1_555
O8_16 In3_4 1_555 1_555
In1_17 O1_17 1_555 1_555
C1_17 C2_17 1_555 1_555
C2_17 O2_17 1_555 1_555
C3_17 C4_17 1_555 1_555
C4_17 O4_17 1_555 1_555
O1_17 C1_17 1_555 1_555
O2_17 In1_17 1_555 1_555
O3_17 In1_17 1_555 1_555
O4_17 In1_17 1_555 1_555
O5_17 C1_17 1_555 1_555
O6_17 C2_17 1_555 1_555
O7_17 C3_17 1_555 1_555
O8_17 C4_17 1_555 1_555
In3_12 O7_17 1_555 1_555
In2_12 O5_17 1_555 1_555
O9_17 In1_17 1_555 1_555
O10_17 In1_17 1_555 1_555
O11_17 In1_17 1_555 1_555
O12_17 In1_17 1_555 1_555
C3_17 O3_17 1_555 1_555
O6_17 In2_12 1_555 1_555
O8_17 In3_12 1_555 1_555
In1_18 O1_18 1_555 1_555
C1_18 C2_18 1_555 1_555
C2_18 O2_18 1_555 1_555
C3_18 C4_18 1_555 1_555
C4_18 O4_18 1_555 1_555
O1_18 C1_18 1_555 1_555
O2_18 In1_18 1_555 1_555
O3_18 In1_18 1_555 1_555
O4_18 In1_18 1_555 1_555
O5_18 C1_18 1_555 1_555
O6_18 C2_18 1_555 1_555
O7_18 C3_18 1_555 1_555
O8_18 C4_18 1_555 1_555
In3_11 O7_18 1_555 1_555
In2_11 O5_18 1_555 1_555
O9_18 In1_18 1_555 1_555
O10_18 In1_18 1_555 1_555
O11_18 In1_18 1_555 1_555
O12_18 In1_18 1_555 1_555
C3_18 O3_18 1_555 1_555
O6_18 In2_11 1_555 1_555
O8_18 In3_11 1_555 1_555
In1_19 O1_19 1_555 1_555
C1_19 C2_19 1_555 1_555
C2_19 O2_19 1_555 1_555
C3_19 C4_19 1_555 1_555
C4_19 O4_19 1_555 1_555
O1_19 C1_19 1_555 1_555
O2_19 In1_19 1_555 1_555
O3_19 In1_19 1_555 1_555
O4_19 In1_19 1_555 1_555
O5_19 C1_19 1_555 1_555
O6_19 C2_19 1_555 1_555
O7_19 C3_19 1_555 1_555
O8_19 C4_19 1_555 1_555
In3_9 O7_19 1_555 1_555
In2_9 O5_19 1_555 1_555
O9_19 In1_19 1_555 1_555
O10_19 In1_19 1_555 1_555
O11_19 In1_19 1_555 1_555
O12_19 In1_19 1_555 1_555
C3_19 O3_19 1_555 1_555
O6_19 In2_9 1_555 1_555
O8_19 In3_9 1_555 1_555
In1_20 O1_20 1_555 1_555
C1_20 C2_20 1_555 1_555
C2_20 O2_20 1_555 1_555
C3_20 C4_20 1_555 1_555
C4_20 O4_20 1_555 1_555
O1_20 C1_20 1_555 1_555
O2_20 In1_20 1_555 1_555
O3_20 In1_20 1_555 1_555
O4_20 In1_20 1_555 1_555
O5_20 C1_20 1_555 1_555
O6_20 C2_20 1_555 1_555
O7_20 C3_20 1_555 1_555
O8_20 C4_20 1_555 1_555
In3_10 O7_20 1_555 1_555
In2_10 O5_20 1_555 1_555
O9_20 In1_20 1_555 1_555
O10_20 In1_20 1_555 1_555
O11_20 In1_20 1_555 1_555
O12_20 In1_20 1_555 1_555
C3_20 O3_20 1_555 1_555
O6_20 In2_10 1_555 1_555
O8_20 In3_10 1_555 1_555
In1_21 O1_21 1_555 1_555
C1_21 C2_21 1_555 1_555
C2_21 O2_21 1_555 1_555
C3_21 C4_21 1_555 1_555
C4_21 O4_21 1_555 1_555
O1_21 C1_21 1_555 1_555
O2_21 In1_21 1_555 1_555
O3_21 In1_21 1_555 1_555
O4_21 In1_21 1_555 1_555
O5_21 C1_21 1_555 1_555
O6_21 C2_21 1_555 1_555
O7_21 C3_21 1_555 1_555
O8_21 C4_21 1_555 1_555
In3_7 O7_21 1_555 1_555
In2_7 O5_21 1_555 1_555
O9_21 In1_21 1_555 1_555
O10_21 In1_21 1_555 1_555
O11_21 In1_21 1_555 1_555
O12_21 In1_21 1_555 1_555
C3_21 O3_21 1_555 1_555
O6_21 In2_7 1_555 1_555
O8_21 In3_7 1_555 1_555
In1_22 O1_22 1_555 1_555
C1_22 C2_22 1_555 1_555
C2_22 O2_22 1_555 1_555
C3_22 C4_22 1_555 1_555
C4_22 O4_22 1_555 1_555
O1_22 C1_22 1_555 1_555
O2_22 In1_22 1_555 1_555
O3_22 In1_22 1_555 1_555
O4_22 In1_22 1_555 1_555
O5_22 C1_22 1_555 1_555
O6_22 C2_22 1_555 1_555
O7_22 C3_22 1_555 1_555
O8_22 C4_22 1_555 1_555
In3_8 O7_22 1_555 1_555
In2_8 O5_22 1_555 1_555
O9_22 In1_22 1_555 1_555
O10_22 In1_22 1_555 1_555
O11_22 In1_22 1_555 1_555
O12_22 In1_22 1_555 1_555
C3_22 O3_22 1_555 1_555
O6_22 In2_8 1_555 1_555
O8_22 In3_8 1_555 1_555
In1_23 O1_23 1_555 1_555
C1_23 C2_23 1_555 1_555
C2_23 O2_23 1_555 1_555
C3_23 C4_23 1_555 1_555
C4_23 O4_23 1_555 1_555
O1_23 C1_23 1_555 1_555
O2_23 In1_23 1_555 1_555
O3_23 In1_23 1_555 1_555
O4_23 In1_23 1_555 1_555
O5_23 C1_23 1_555 1_555
O6_23 C2_23 1_555 1_555
O7_23 C3_23 1_555 1_555
O8_23 C4_23 1_555 1_555
In3_6 O7_23 1_555 1_555
In2_6 O5_23 1_555 1_555
O9_23 In1_23 1_555 1_555
O10_23 In1_23 1_555 1_555
O11_23 In1_23 1_555 1_555
O12_23 In1_23 1_555 1_555
C3_23 O3_23 1_555 1_555
O6_23 In2_6 1_555 1_555
O8_23 In3_6 1_555 1_555
In1_24 O1_24 1_555 1_555
C1_24 C2_24 1_555 1_555
C2_24 O2_24 1_555 1_555
C3_24 C4_24 1_555 1_555
C4_24 O4_24 1_555 1_555
O1_24 C1_24 1_555 1_555
O2_24 In1_24 1_555 1_555
O3_24 In1_24 1_555 1_555
O4_24 In1_24 1_555 1_555
O5_24 C1_24 1_555 1_555
O6_24 C2_24 1_555 1_555
O7_24 C3_24 1_555 1_555
O8_24 C4_24 1_555 1_555
In3_5 O7_24 1_555 1_555
In2_5 O5_24 1_555 1_555
O9_24 In1_24 1_555 1_555
O10_24 In1_24 1_555 1_555
O11_24 In1_24 1_555 1_555
O12_24 In1_24 1_555 1_555
C3_24 O3_24 1_555 1_555
O6_24 In2_5 1_555 1_555
O8_24 In3_5 1_555 1_555
C1_25 C2_25 1_555 1_555
C2_25 O10_18 1_555 1_555
C3_25 C4_25 1_555 1_555
C4_25 O12_18 1_555 1_555
O9_18 C1_25 1_555 1_555
O5_25 C1_25 1_555 1_555
O6_25 C2_25 1_555 1_555
In2_5 O5_25 1_555 1_555
C3_25 O11_18 1_555 1_555
O6_25 In2_5 1_555 1_555
C3_26 C4_26 1_555 1_555
O7_25 C3_26 1_555 1_555
O8_25 C4_26 1_555 1_555
In3_9 O7_25 1_555 1_555
O8_25 In3_9 1_555 1_555
C1_26 C2_26 1_555 1_555
C2_26 O10_20 1_555 1_555
C3_27 C4_27 1_555 1_555
C4_27 O12_20 1_555 1_555
O9_20 C1_26 1_555 1_555
O5_26 C1_26 1_555 1_555
O6_26 C2_26 1_555 1_555
In2_7 O5_26 1_555 1_555
C3_27 O11_20 1_555 1_555
O6_26 In2_7 1_555 1_555
C3_28 C4_28 1_555 1_555
O7_26 C3_28 1_555 1_555
O8_26 C4_28 1_555 1_555
In3_12 O7_26 1_555 1_555
O8_26 In3_12 1_555 1_555
C3_29 C4_29 1_555 1_555
O7_27 C3_29 1_555 1_555
O8_27 C4_29 1_555 1_555
In3_10 O7_27 1_555 1_555
O8_27 In3_10 1_555 1_555
C1_27 C2_27 1_555 1_555
C2_27 O10_17 1_555 1_555
C3_30 C4_30 1_555 1_555
C4_30 O12_17 1_555 1_555
O9_17 C1_27 1_555 1_555
O5_27 C1_27 1_555 1_555
O6_27 C2_27 1_555 1_555
In2_8 O5_27 1_555 1_555
C3_30 O11_17 1_555 1_555
O6_27 In2_8 1_555 1_555
C3_31 C4_31 1_555 1_555
O7_28 C3_31 1_555 1_555
O8_28 C4_31 1_555 1_555
In3_11 O7_28 1_555 1_555
O8_28 In3_11 1_555 1_555
C1_28 C2_28 1_555 1_555
C2_28 O10_19 1_555 1_555
C3_32 C4_32 1_555 1_555
C4_32 O12_19 1_555 1_555
O9_19 C1_28 1_555 1_555
O5_28 C1_28 1_555 1_555
O6_28 C2_28 1_555 1_555
In2_6 O5_28 1_555 1_555
C3_32 O11_19 1_555 1_555
O6_28 In2_6 1_555 1_555
C1_29 C2_29 1_555 1_555
C2_29 O10_15 1_555 1_555
C3_33 C4_33 1_555 1_555
C4_33 O12_15 1_555 1_555
O9_15 C1_29 1_555 1_555
O5_29 C1_29 1_555 1_555
O6_29 C2_29 1_555 1_555
In2_9 O5_29 1_555 1_555
C3_33 O11_15 1_555 1_555
O6_29 In2_9 1_555 1_555
C3_34 C4_34 1_555 1_555
O7_29 C3_34 1_555 1_555
O8_29 C4_34 1_555 1_555
In3 O7_29 1_555 1_555
O8_29 In3 1_555 1_555
C1_30 C2_30 1_555 1_555
C2_30 O10_13 1_555 1_555
C3_35 C4_35 1_555 1_555
C4_35 O12_13 1_555 1_555
O9_13 C1_30 1_555 1_555
O5_30 C1_30 1_555 1_555
O6_30 C2_30 1_555 1_555
In2_11 O5_30 1_555 1_555
C3_35 O11_13 1_555 1_555
O6_30 In2_11 1_555 1_555
C3_36 C4_36 1_555 1_555
O7_30 C3_36 1_555 1_555
O8_30 C4_36 1_555 1_555
In3_4 O7_30 1_555 1_555
O8_30 In3_4 1_555 1_555
C3_37 C4_37 1_555 1_555
O7_31 C3_37 1_555 1_555
O8_31 C4_37 1_555 1_555
In3_2 O7_31 1_555 1_555
O8_31 In3_2 1_555 1_555
C1_31 C2_31 1_555 1_555
C2_31 O10_16 1_555 1_555
C3_38 C4_38 1_555 1_555
C4_38 O12_16 1_555 1_555
O9_16 C1_31 1_555 1_555
O5_31 C1_31 1_555 1_555
O6_31 C2_31 1_555 1_555
In2_12 O5_31 1_555 1_555
C3_38 O11_16 1_555 1_555
O6_31 In2_12 1_555 1_555
C3_39 C4_39 1_555 1_555
O7_32 C3_39 1_555 1_555
O8_32 C4_39 1_555 1_555
In3_3 O7_32 1_555 1_555
O8_32 In3_3 1_555 1_555
C1_32 C2_32 1_555 1_555
C2_32 O10_14 1_555 1_555
C3_40 C4_40 1_555 1_555
C4_40 O12_14 1_555 1_555
O9_14 C1_32 1_555 1_555
O5_32 C1_32 1_555 1_555
O6_32 C2_32 1_555 1_555
In2_10 O5_32 1_555 1_555
C3_40 O11_14 1_555 1_555
O6_32 In2_10 1_555 1_555
C1_33 C2_33 1_555 1_555
C2_33 O10_21 1_555 1_555
C3_41 C4_41 1_555 1_555
C4_41 O12_21 1_555 1_555
O9_21 C1_33 1_555 1_555
O5_33 C1_33 1_555 1_555
O6_33 C2_33 1_555 1_555
In2 O5_33 1_555 1_555
C3_41 O11_21 1_555 1_555
O6_33 In2 1_555 1_555
C3_42 C4_42 1_555 1_555
O7_33 C3_42 1_555 1_555
O8_33 C4_42 1_555 1_555
In3_5 O7_33 1_555 1_555
O8_33 In3_5 1_555 1_555
C1_34 C2_34 1_555 1_555
C2_34 O10_23 1_555 1_555
C3_43 C4_43 1_555 1_555
C4_43 O12_23 1_555 1_555
O9_23 C1_34 1_555 1_555
O5_34 C1_34 1_555 1_555
O6_34 C2_34 1_555 1_555
In2_3 O5_34 1_555 1_555
C3_43 O11_23 1_555 1_555
O6_34 In2_3 1_555 1_555
C3_44 C4_44 1_555 1_555
O7_34 C3_44 1_555 1_555
O8_34 C4_44 1_555 1_555
In3_8 O7_34 1_555 1_555
O8_34 In3_8 1_555 1_555
C3_45 C4_45 1_555 1_555
O7_35 C3_45 1_555 1_555
O8_35 C4_45 1_555 1_555
In3_6 O7_35 1_555 1_555
O8_35 In3_6 1_555 1_555
C1_35 C2_35 1_555 1_555
C2_35 O10_22 1_555 1_555
C3_46 C4_46 1_555 1_555
C4_46 O12_22 1_555 1_555
O9_22 C1_35 1_555 1_555
O5_35 C1_35 1_555 1_555
O6_35 C2_35 1_555 1_555
In2_4 O5_35 1_555 1_555
C3_46 O11_22 1_555 1_555
O6_35 In2_4 1_555 1_555
C3_47 C4_47 1_555 1_555
O7_36 C3_47 1_555 1_555
O8_36 C4_47 1_555 1_555
In3_7 O7_36 1_555 1_555
O8_36 In3_7 1_555 1_555
C1_36 C2_36 1_555 1_555
C2_36 O10_24 1_555 1_555
C3_48 C4_48 1_555 1_555
C4_48 O12_24 1_555 1_555
O9_24 C1_36 1_555 1_555
O5_36 C1_36 1_555 1_555
O6_36 C2_36 1_555 1_555
In2_2 O5_36 1_555 1_555
C3_48 O11_24 1_555 1_555
O6_36 In2_2 1_555 1_555
C3_49 C4_49 1_555 1_555
O7_37 C3_49 1_555 1_555
O8_37 C4_49 1_555 1_555
In2_7 O7_37 1_555 1_555
O8_37 In2_7 1_555 1_555
C1_37 C2_37 1_555 1_555
C2_37 O10_6 1_555 1_555
C3_50 C4_50 1_555 1_555
C4_50 O12_6 1_555 1_555
O9_6 C1_37 1_555 1_555
O5_37 C1_37 1_555 1_555
O6_37 C2_37 1_555 1_555
In3_12 O5_37 1_555 1_555
C3_50 O11_6 1_555 1_555
O6_37 In3_12 1_555 1_555
C3_51 C4_51 1_555 1_555
O7_38 C3_51 1_555 1_555
O8_38 C4_51 1_555 1_555
In2_5 O7_38 1_555 1_555
O8_38 In2_5 1_555 1_555
C1_38 C2_38 1_555 1_555
C2_38 O10_8 1_555 1_555
C3_52 C4_52 1_555 1_555
C4_52 O12_8 1_555 1_555
O9_8 C1_38 1_555 1_555
O5_38 C1_38 1_555 1_555
O6_38 C2_38 1_555 1_555
In3_9 O5_38 1_555 1_555
C3_52 O11_8 1_555 1_555
O6_38 In3_9 1_555 1_555
C1_39 C2_39 1_555 1_555
C2_39 O10_5 1_555 1_555
C3_53 C4_53 1_555 1_555
C4_53 O12_5 1_555 1_555
O9_5 C1_39 1_555 1_555
O5_39 C1_39 1_555 1_555
O6_39 C2_39 1_555 1_555
In3_10 O5_39 1_555 1_555
C3_53 O11_5 1_555 1_555
O6_39 In3_10 1_555 1_555
C3_54 C4_54 1_555 1_555
O7_39 C3_54 1_555 1_555
O8_39 C4_54 1_555 1_555
In2_8 O7_39 1_555 1_555
O8_39 In2_8 1_555 1_555
C1_40 C2_40 1_555 1_555
C2_40 O10_7 1_555 1_555
C3_55 C4_55 1_555 1_555
C4_55 O12_7 1_555 1_555
O9_7 C1_40 1_555 1_555
O5_40 C1_40 1_555 1_555
O6_40 C2_40 1_555 1_555
In3_11 O5_40 1_555 1_555
C3_55 O11_7 1_555 1_555
O6_40 In3_11 1_555 1_555
C3_56 C4_56 1_555 1_555
O7_40 C3_56 1_555 1_555
O8_40 C4_56 1_555 1_555
In2_6 O7_40 1_555 1_555
O8_40 In2_6 1_555 1_555
C1_41 C2_41 1_555 1_555
C2_41 O10_3 1_555 1_555
C3_57 C4_57 1_555 1_555
C4_57 O12_3 1_555 1_555
O9_3 C1_41 1_555 1_555
O5_41 C1_41 1_555 1_555
O6_41 C2_41 1_555 1_555
In3_7 O5_41 1_555 1_555
C3_57 O11_3 1_555 1_555
O6_41 In3_7 1_555 1_555
C3_58 C4_58 1_555 1_555
O7_41 C3_58 1_555 1_555
O8_41 C4_58 1_555 1_555
In2_2 O7_41 1_555 1_555
O8_41 In2_2 1_555 1_555
C1_42 C2_42 1_555 1_555
C2_42 O10 1_555 1_555
C3_59 C4_59 1_555 1_555
C4_59 O12 1_555 1_555
O9 C1_42 1_555 1_555
O5_42 C1_42 1_555 1_555
O6_42 C2_42 1_555 1_555
In3_6 O5_42 1_555 1_555
C3_59 O11 1_555 1_555
O6_42 In3_6 1_555 1_555
C3_60 C4_60 1_555 1_555
O7_42 C3_60 1_555 1_555
O8_42 C4_60 1_555 1_555
In2_4 O7_42 1_555 1_555
O8_42 In2_4 1_555 1_555
C3_61 C4_61 1_555 1_555
O7_43 C3_61 1_555 1_555
O8_43 C4_61 1_555 1_555
In2 O7_43 1_555 1_555
O8_43 In2 1_555 1_555
C1_43 C2_43 1_555 1_555
C2_43 O10_4 1_555 1_555
C3_62 C4_62 1_555 1_555
C4_62 O12_4 1_555 1_555
O9_4 C1_43 1_555 1_555
O5_43 C1_43 1_555 1_555
O6_43 C2_43 1_555 1_555
In3_5 O5_43 1_555 1_555
C3_62 O11_4 1_555 1_555
O6_43 In3_5 1_555 1_555
C3_63 C4_63 1_555 1_555
O7_44 C3_63 1_555 1_555
O8_44 C4_63 1_555 1_555
In2_3 O7_44 1_555 1_555
O8_44 In2_3 1_555 1_555
C1_44 C2_44 1_555 1_555
C2_44 O10_2 1_555 1_555
C3_64 C4_64 1_555 1_555
C4_64 O12_2 1_555 1_555
O9_2 C1_44 1_555 1_555
O5_44 C1_44 1_555 1_555
O6_44 C2_44 1_555 1_555
In3_8 O5_44 1_555 1_555
C3_64 O11_2 1_555 1_555
O6_44 In3_8 1_555 1_555
C1_45 C2_45 1_555 1_555
C2_45 O10_9 1_555 1_555
C3_65 C4_65 1_555 1_555
C4_65 O12_9 1_555 1_555
O9_9 C1_45 1_555 1_555
O5_45 C1_45 1_555 1_555
O6_45 C2_45 1_555 1_555
In3_2 O5_45 1_555 1_555
C3_65 O11_9 1_555 1_555
O6_45 In3_2 1_555 1_555
C3_66 C4_66 1_555 1_555
O7_45 C3_66 1_555 1_555
O8_45 C4_66 1_555 1_555
In2_12 O7_45 1_555 1_555
O8_45 In2_12 1_555 1_555
C1_46 C2_46 1_555 1_555
C2_46 O10_11 1_555 1_555
C3_67 C4_67 1_555 1_555
C4_67 O12_11 1_555 1_555
O9_11 C1_46 1_555 1_555
O5_46 C1_46 1_555 1_555
O6_46 C2_46 1_555 1_555
In3_3 O5_46 1_555 1_555
C3_67 O11_11 1_555 1_555
O6_46 In3_3 1_555 1_555
C3_68 C4_68 1_555 1_555
O7_46 C3_68 1_555 1_555
O8_46 C4_68 1_555 1_555
In2_10 O7_46 1_555 1_555
O8_46 In2_10 1_555 1_555
C3_69 C4_69 1_555 1_555
O7_47 C3_69 1_555 1_555
O8_47 C4_69 1_555 1_555
In2_11 O7_47 1_555 1_555
O8_47 In2_11 1_555 1_555
C1_47 C2_47 1_555 1_555
C2_47 O10_10 1_555 1_555
C3_70 C4_70 1_555 1_555
C4_70 O12_10 1_555 1_555
O9_10 C1_47 1_555 1_555
O5_47 C1_47 1_555 1_555
O6_47 C2_47 1_555 1_555
In3_4 O5_47 1_555 1_555
C3_70 O11_10 1_555 1_555
O6_47 In3_4 1_555 1_555
C3_71 C4_71 1_555 1_555
O7_48 C3_71 1_555 1_555
O8_48 C4_71 1_555 1_555
In2_9 O7_48 1_555 1_555
O8_48 In2_9 1_555 1_555
C1_48 C2_48 1_555 1_555
C2_48 O10_12 1_555 1_555
C3_72 C4_72 1_555 1_555
C4_72 O12_12 1_555 1_555
O9_12 C1_48 1_555 1_555
O5_48 C1_48 1_555 1_555
O6_48 C2_48 1_555 1_555
In3 O5_48 1_555 1_555
C3_72 O11_12 1_555 1_555
O6_48 In3 1_555 1_555

#END
