
###############################################################################
#
# This file contains modified crystal structure data generated from the
# MOF subset of the Cambridge Structural Database (CSD) v543 
# hosted by the Cambridge Crystallographic Data Centre (CCDC).
#
# This work is licensed under the Creative Commons
# Attribution-NonCommercial-ShareAlike 4.0 International License.
# To view a copy of this license, visit
# http://creativecommons.org/licenses/by-nc-sa/4.0/
# or send a letter to
# Creative Commons, PO Box 1866, Mountain View, CA 94042, USA.
#
# CIF created using the CSD Python API on 29 September 2022
# The structure has been converted into the P1 space group
# The structure has a 3D framework
# The original CSD entry WODGEE is in the tetragonal crystal system
# The framework has been calculated to contain at least 10.0% void space
# The void calculation uses a probe of radius 1.32A, grid spacing 0.4
# The framework is charged, counterions have been retained in the structure
#
###############################################################################

data_WODGEE
_chemical_formula_moiety         '(C72 In16 O124 4-)n'
_symmetry_cell_setting           triclinic
_symmetry_space_group_name_H-M   'P 1'
_symmetry_Int_Tables_number      1
_space_group_name_Hall           'P 1'
loop_
_symmetry_equiv_pos_site_id
_symmetry_equiv_pos_as_xyz
1 x,y,z
_cell_length_a                   21.797(11)
_cell_length_b                   21.797(11)
_cell_length_c                   12.299(6)
_cell_angle_alpha                90
_cell_angle_beta                 90
_cell_angle_gamma                90
_cell_volume                     5843.37
loop_
_atom_site_label
_atom_site_type_symbol
_atom_site_fract_x
_atom_site_fract_y
_atom_site_fract_z
C1 C -0.0000 0.59510(17) 0.1766(3)
C2 C -0.0000 0.63249(19) 0.0687(3)
O5 O 0.05112(8) 0.58099(9) 0.21457(17)
O6 O 0.05091(8) 0.64515(10) 0.02891(16)
In3 In 0.13536(2) 0.61464(2) 0.1250
In1 In 0.86464(2) 0.61464(2) 0.1250
C1_2 C 1.0000 0.59510(17) 0.1766(3)
C2_2 C 1.0000 0.63249(19) 0.0687(3)
C3 C 0.85466(12) 0.48122(12) 0.0529(2)
O1 O 0.94888(8) 0.58099(9) 0.21457(17)
O2 O 0.94909(8) 0.64515(10) 0.02891(16)
O3 O 0.85536(9) 0.51039(9) 0.14020(16)
O4 O 0.85406(9) 0.42397(8) 0.04365(16)
O9 O 0.83099(9) 0.69888(8) 0.03543(17)
O10 O 0.89515(10) 0.69909(8) 0.22109(16)
O11 O 0.76039(9) 0.60536(9) 0.10980(16)
O12 O 0.82603(8) 0.60406(9) 0.29365(16)
C4 C 0.85466(12) 0.51878(12) 0.9471(2)
O7 O 0.85536(9) 0.48961(9) 0.85980(16)
O8 O 0.85406(9) 0.57603(8) 0.95635(16)
In2 In 0.86464(2) 0.38536(2) 0.8750
In1_2 In 0.63536(2) 0.38536(2) 0.6250
C1_3 C 0.5000 0.40490(17) 0.6766(3)
C2_3 C 0.5000 0.36751(19) 0.5687(3)
C3_2 C 0.64534(12) 0.51878(12) 0.5529(2)
O1_2 O 0.55112(8) 0.41901(9) 0.71457(17)
O2_2 O 0.55091(8) 0.35485(10) 0.52891(16)
O3_2 O 0.64464(9) 0.48961(9) 0.64020(16)
O4_2 O 0.64594(9) 0.57603(8) 0.54365(16)
O5_2 O 0.44888(8) 0.41901(9) 0.71457(17)
O6_2 O 0.44909(8) 0.35485(10) 0.52891(16)
C4_2 C 0.64534(12) 0.48122(12) 0.4471(2)
O7_2 O 0.64464(9) 0.51039(9) 0.35980(16)
O8_2 O 0.64594(9) 0.42397(8) 0.45635(16)
In2_2 In 0.63536(2) 0.61464(2) 0.3750
In3_2 In 0.36464(2) 0.38536(2) 0.6250
O9_2 O 0.66901(9) 0.30112(8) 0.53543(17)
O10_2 O 0.60485(10) 0.30091(8) 0.72109(16)
O11_2 O 0.73961(9) 0.39464(9) 0.60980(16)
O12_2 O 0.67397(8) 0.39594(9) 0.79365(16)
C1_4 C 0.65490(17) 0.7500 0.4266(3)
C2_4 C 0.61751(19) 0.7500 0.3187(3)
C3_3 C 0.76878(12) 0.60466(12) 0.3029(2)
O1_3 O 0.66901(9) 0.69888(8) 0.46457(17)
O2_3 O 0.60485(10) 0.69909(8) 0.27891(16)
O3_3 O 0.73961(9) 0.60536(9) 0.39020(16)
O5_3 O 0.66901(9) 0.80112(8) 0.46457(17)
O6_3 O 0.60485(10) 0.80091(8) 0.27891(16)
C4_3 C 0.73122(12) 0.60466(12) 0.1971(2)
O8_3 O 0.67397(8) 0.60406(9) 0.20635(16)
In3_3 In 0.63536(2) 0.88536(2) 0.3750
O9_3 O 0.55112(8) 0.58099(9) 0.28543(17)
O10_3 O 0.55091(8) 0.64515(10) 0.47109(16)
C1_5 C 0.84510(17) 0.2500 0.9266(3)
C2_5 C 0.88249(19) 0.2500 0.8187(3)
C3_4 C 0.73122(12) 0.39534(12) 0.8029(2)
O1_4 O 0.83099(9) 0.30112(8) 0.96457(17)
O2_4 O 0.89515(10) 0.30091(8) 0.77891(16)
O3_4 O 0.76039(9) 0.39464(9) 0.89020(16)
O5_4 O 0.83099(9) 0.19888(8) 0.96457(17)
O6_4 O 0.89515(10) 0.19909(8) 0.77891(16)
C4_4 C 0.76878(12) 0.39534(12) 0.6971(2)
O8_4 O 0.82603(8) 0.39594(9) 0.70635(16)
In3_4 In 0.86464(2) 0.11464(2) 0.8750
O9_4 O 0.94888(8) 0.41901(9) 0.78543(17)
O10_4 O 0.94909(8) 0.35485(10) 0.97109(16)
C1_6 C 0.5000 0.59510(17) 0.3234(3)
C2_6 C 0.5000 0.63249(19) 0.4313(3)
O5_5 O 0.44888(8) 0.58099(9) 0.28543(17)
O6_5 O 0.44909(8) 0.64515(10) 0.47109(16)
In3_5 In 0.36464(2) 0.61464(2) 0.3750
C1_7 C -0.0000 0.40490(17) 0.8234(3)
C2_7 C -0.0000 0.36751(19) 0.9313(3)
O5_6 O 0.05112(8) 0.41901(9) 0.78543(17)
O6_6 O 0.05091(8) 0.35485(10) 0.97109(16)
In3_6 In 0.13536(2) 0.38536(2) 0.8750
C1_8 C 1.0000 0.40490(17) 0.8234(3)
C2_8 C 1.0000 0.36751(19) 0.9313(3)
C1_9 C 0.84510(17) 0.7500 0.0734(3)
C2_9 C 0.88249(19) 0.7500 0.1813(3)
O5_7 O 0.83099(9) 0.80112(8) 0.03543(17)
O6_7 O 0.89515(10) 0.80091(8) 0.22109(16)
In3_7 In 0.86464(2) 0.88536(2) 0.1250
C1_10 C 0.65490(17) 0.2500 0.5734(3)
C2_10 C 0.61751(19) 0.2500 0.6813(3)
O5_8 O 0.66901(9) 0.19888(8) 0.53543(17)
O6_8 O 0.60485(10) 0.19909(8) 0.72109(16)
In3_8 In 0.63536(2) 0.11464(2) 0.6250
In1_3 In 0.36464(2) 0.11464(2) 0.6250
C1_11 C 0.5000 0.09510(17) 0.6766(3)
C2_11 C 0.5000 0.13249(19) 0.5687(3)
O1_5 O 0.44888(8) 0.08099(9) 0.71457(17)
O2_5 O 0.44909(8) 0.14515(10) 0.52891(16)
O3_5 O 0.35536(9) 0.01039(9) 0.64020(16)
O5_9 O 0.55112(8) 0.08099(9) 0.71457(17)
O6_9 O 0.55091(8) 0.14515(10) 0.52891(16)
C4_5 C 0.35466(12) 0.01878(12) 0.4471(2)
O8_5 O 0.35406(9) 0.07603(8) 0.45635(16)
O9_5 O 0.33099(9) 0.19888(8) 0.53543(17)
O10_5 O 0.39515(10) 0.19909(8) 0.72109(16)
O11_3 O 0.26039(9) 0.10536(9) 0.60980(16)
O12_3 O 0.32603(8) 0.10406(9) 0.79365(16)
C3_5 C 0.35466(12) 0.98122(12) 0.5529(2)
O4_3 O 0.35406(9) 0.92397(8) 0.54365(16)
O7_3 O 0.35536(9) 0.98961(9) 0.35980(16)
In2_3 In 0.36464(2) 0.88536(2) 0.3750
O7_4 O 0.14464(9) 0.01039(9) 0.85980(16)
In2_4 In 0.13536(2) 0.11464(2) 0.8750
In1_4 In 0.13536(2) 0.88536(2) 0.1250
C1_12 C 0.0000 0.90490(17) 0.1766(3)
C2_12 C 0.0000 0.86751(19) 0.0687(3)
O1_6 O 0.05112(8) 0.91901(9) 0.21457(17)
O2_6 O 0.05091(8) 0.85485(10) 0.02891(16)
O3_6 O 0.14464(9) 0.98961(9) 0.14020(16)
O9_6 O 0.16901(9) 0.80112(8) 0.03543(17)
O10_6 O 0.10485(10) 0.80091(8) 0.22109(16)
O11_4 O 0.23961(9) 0.89464(9) 0.10980(16)
O12_4 O 0.17397(8) 0.89594(9) 0.29365(16)
C1_13 C 1.0000 0.90490(17) 0.1766(3)
C2_13 C 1.0000 0.86751(19) 0.0687(3)
O5_10 O 0.94888(8) 0.91901(9) 0.21457(17)
O6_10 O 0.94909(8) 0.85485(10) 0.02891(16)
C1_14 C 0.15490(17) 0.2500 0.9266(3)
C2_14 C 0.11751(19) 0.2500 0.8187(3)
C3_6 C 0.26878(12) 0.10466(12) 0.8029(2)
O1_7 O 0.16901(9) 0.19888(8) 0.96457(17)
O2_7 O 0.10485(10) 0.19909(8) 0.77891(16)
O3_7 O 0.23961(9) 0.10536(9) 0.89020(16)
O5_11 O 0.16901(9) 0.30112(8) 0.96457(17)
O6_11 O 0.10485(10) 0.30091(8) 0.77891(16)
C4_6 C 0.23122(12) 0.10466(12) 0.6971(2)
O8_6 O 0.17397(8) 0.10406(9) 0.70635(16)
O9_7 O 0.05112(8) 0.08099(9) 0.78543(17)
O10_7 O 0.05091(8) 0.14515(10) 0.97109(16)
C1_15 C 0.34510(17) 0.7500 0.4266(3)
C2_15 C 0.38249(19) 0.7500 0.3187(3)
C3_7 C 0.23122(12) 0.89534(12) 0.3029(2)
O1_8 O 0.33099(9) 0.80112(8) 0.46457(17)
O2_8 O 0.39515(10) 0.80091(8) 0.27891(16)
O3_8 O 0.26039(9) 0.89464(9) 0.39020(16)
O5_12 O 0.33099(9) 0.69888(8) 0.46457(17)
O6_12 O 0.39515(10) 0.69909(8) 0.27891(16)
C4_7 C 0.26878(12) 0.89534(12) 0.1971(2)
O8_7 O 0.32603(8) 0.89594(9) 0.20635(16)
O9_8 O 0.44888(8) 0.91901(9) 0.28543(17)
O10_8 O 0.44909(8) 0.85485(10) 0.47109(16)
C1_16 C 0.0000 0.09510(17) 0.8234(3)
C2_16 C 0.0000 0.13249(19) 0.9313(3)
C1_17 C 1.0000 0.09510(17) 0.8234(3)
C2_17 C 1.0000 0.13249(19) 0.9313(3)
O5_13 O 0.94888(8) 0.08099(9) 0.78543(17)
O6_13 O 0.94909(8) 0.14515(10) 0.97109(16)
C1_18 C 0.5000 0.90490(17) 0.3234(3)
C2_18 C 0.5000 0.86751(19) 0.4313(3)
O5_14 O 0.55112(8) 0.91901(9) 0.28543(17)
O6_14 O 0.55091(8) 0.85485(10) 0.47109(16)
C1_19 C 0.34510(17) 0.2500 0.5734(3)
C2_19 C 0.38249(19) 0.2500 0.6813(3)
O5_15 O 0.33099(9) 0.30112(8) 0.53543(17)
O6_15 O 0.39515(10) 0.30091(8) 0.72109(16)
C1_20 C 0.15490(17) 0.7500 0.0734(3)
C2_20 C 0.11751(19) 0.7500 0.1813(3)
O5_16 O 0.16901(9) 0.69888(8) 0.03543(17)
O6_16 O 0.10485(10) 0.69909(8) 0.22109(16)
C4_8 C 0.14534(12) 0.48122(12) 0.0529(2)
O7_5 O 0.14464(9) 0.51039(9) 0.14020(16)
O8_8 O 0.14594(9) 0.42397(8) 0.04365(16)
C3_8 C 0.14534(12) 0.51878(12) 0.9471(2)
O3_9 O 0.14464(9) 0.48961(9) 0.85980(16)
O4_4 O 0.14594(9) 0.57603(8) 0.95635(16)
O11_5 O 0.23961(9) 0.39464(9) 0.89020(16)
O12_5 O 0.17397(8) 0.39594(9) 0.70635(16)
C3_9 C 0.35466(12) 0.48122(12) 0.4471(2)
O3_10 O 0.35536(9) 0.51039(9) 0.35980(16)
O4_5 O 0.35406(9) 0.42397(8) 0.45635(16)
C4_9 C 0.35466(12) 0.51878(12) 0.5529(2)
O7_6 O 0.35536(9) 0.48961(9) 0.64020(16)
O8_9 O 0.35406(9) 0.57603(8) 0.54365(16)
O11_6 O 0.26039(9) 0.60536(9) 0.39020(16)
O12_6 O 0.32603(8) 0.60406(9) 0.20635(16)
C3_10 C 0.23122(12) 0.39534(12) 0.6971(2)
O3_11 O 0.26039(9) 0.39464(9) 0.60980(16)
C4_10 C 0.26878(12) 0.39534(12) 0.8029(2)
O8_10 O 0.32603(8) 0.39594(9) 0.79365(16)
C3_11 C 0.26878(12) 0.60466(12) 0.1971(2)
O3_12 O 0.23961(9) 0.60536(9) 0.10980(16)
C4_11 C 0.23122(12) 0.60466(12) 0.3029(2)
O8_11 O 0.17397(8) 0.60406(9) 0.29365(16)
C3_12 C 0.64534(12) 0.01878(12) 0.4471(2)
O4_6 O 0.64594(9) 0.07603(8) 0.45635(16)
O7_7 O 0.64464(9) 0.01039(9) 0.64020(16)
O3_13 O 0.64464(9) 0.98961(9) 0.35980(16)
C4_12 C 0.64534(12) 0.98122(12) 0.5529(2)
O8_12 O 0.64594(9) 0.92397(8) 0.54365(16)
O11_7 O 0.73961(9) 0.89464(9) 0.39020(16)
O12_7 O 0.67397(8) 0.89594(9) 0.20635(16)
O3_14 O 0.85536(9) 0.01039(9) 0.85980(16)
O11_8 O 0.76039(9) 0.10536(9) 0.89020(16)
O12_8 O 0.82603(8) 0.10406(9) 0.70635(16)
O7_8 O 0.85536(9) 0.98961(9) 0.14020(16)
C3_13 C 0.73122(12) 0.89534(12) 0.1971(2)
O3_15 O 0.76039(9) 0.89464(9) 0.10980(16)
C4_13 C 0.76878(12) 0.89534(12) 0.3029(2)
O8_13 O 0.82603(8) 0.89594(9) 0.29365(16)
C3_14 C 0.76878(12) 0.10466(12) 0.6971(2)
O3_16 O 0.73961(9) 0.10536(9) 0.60980(16)
C4_14 C 0.73122(12) 0.10466(12) 0.8029(2)
O8_14 O 0.67397(8) 0.10406(9) 0.79365(16)
C3_15 C 0.14534(12) 0.01878(12) 0.0529(2)
O4_7 O 0.14594(9) 0.07603(8) 0.04365(16)
C4_15 C 0.14534(12) 0.98122(12) 0.9471(2)
O8_15 O 0.14594(9) 0.92397(8) 0.95635(16)
C4_16 C 0.85466(12) 0.01878(12) 0.0529(2)
O8_16 O 0.85406(9) 0.07603(8) 0.04365(16)
C3_16 C 0.85466(12) 0.98122(12) 0.9471(2)
O4_8 O 0.85406(9) 0.92397(8) 0.95635(16)
loop_
_geom_bond_atom_site_label_1
_geom_bond_atom_site_label_2
_geom_bond_site_symmetry_1
_geom_bond_site_symmetry_2
C1 C2 1_555 1_555
O5 C1 1_555 1_555
O6 C2 1_555 1_555
In3 O5 1_555 1_555
O6 In3 1_555 1_555
In1 O1 1_555 1_555
C1_2 C2_2 1_555 1_555
C2_2 O2 1_555 1_555
C3 O3 1_555 1_555
O1 C1_2 1_555 1_555
O2 In1 1_555 1_555
O3 In1 1_555 1_555
O4 C3 1_555 1_555
O9 In1 1_555 1_555
O10 In1 1_555 1_555
O11 In1 1_555 1_555
O12 In1 1_555 1_555
O7 C4 1_555 1_555
C4 O8 1_555 1_555
O7 In2 1_555 1_555
In1_2 O1_2 1_555 1_555
C1_3 C2_3 1_555 1_555
C2_3 O2_2 1_555 1_555
C3_2 O3_2 1_555 1_555
O1_2 C1_3 1_555 1_555
O2_2 In1_2 1_555 1_555
O3_2 In1_2 1_555 1_555
O4_2 C3_2 1_555 1_555
O5_2 C1_3 1_555 1_555
O6_2 C2_3 1_555 1_555
C4_2 C3_2 1_555 1_555
O7_2 C4_2 1_555 1_555
O8_2 In1_2 1_555 1_555
In2_2 O4_2 1_555 1_555
In3_2 O5_2 1_555 1_555
O9_2 In1_2 1_555 1_555
O10_2 In1_2 1_555 1_555
O11_2 In1_2 1_555 1_555
O12_2 In1_2 1_555 1_555
O6_2 In3_2 1_555 1_555
C4_2 O8_2 1_555 1_555
O7_2 In2_2 1_555 1_555
In2_2 O1_3 1_555 1_555
C1_4 C2_4 1_555 1_555
C2_4 O2_3 1_555 1_555
C3_3 O3_3 1_555 1_555
O1_3 C1_4 1_555 1_555
O2_3 In2_2 1_555 1_555
O3_3 In2_2 1_555 1_555
O12 C3_3 1_555 1_555
O5_3 C1_4 1_555 1_555
O6_3 C2_4 1_555 1_555
C4_3 C3_3 1_555 1_555
O11 C4_3 1_555 1_555
O8_3 In2_2 1_555 1_555
In3_3 O5_3 1_555 1_555
O9_3 In2_2 1_555 1_555
O10_3 In2_2 1_555 1_555
O6_3 In3_3 1_555 1_555
C4_3 O8_3 1_555 1_555
In2 O1_4 1_555 1_555
C1_5 C2_5 1_555 1_555
C2_5 O2_4 1_555 1_555
C3_4 O3_4 1_555 1_555
O1_4 C1_5 1_555 1_555
O2_4 In2 1_555 1_555
O3_4 In2 1_555 1_555
O12_2 C3_4 1_555 1_555
O5_4 C1_5 1_555 1_555
O6_4 C2_5 1_555 1_555
C4_4 C3_4 1_555 1_555
O11_2 C4_4 1_555 1_555
O8_4 In2 1_555 1_555
In3_4 O5_4 1_555 1_555
O9_4 In2 1_555 1_555
O10_4 In2 1_555 1_555
O6_4 In3_4 1_555 1_555
C4_4 O8_4 1_555 1_555
C1_6 C2_6 1_555 1_555
C2_6 O10_3 1_555 1_555
O9_3 C1_6 1_555 1_555
O5_5 C1_6 1_555 1_555
O6_5 C2_6 1_555 1_555
In3_5 O5_5 1_555 1_555
O6_5 In3_5 1_555 1_555
C1_7 C2_7 1_555 1_555
O5_6 C1_7 1_555 1_555
O6_6 C2_7 1_555 1_555
In3_6 O5_6 1_555 1_555
O6_6 In3_6 1_555 1_555
C1_8 C2_8 1_555 1_555
C2_8 O10_4 1_555 1_555
O9_4 C1_8 1_555 1_555
C1_9 C2_9 1_555 1_555
C2_9 O10 1_555 1_555
O9 C1_9 1_555 1_555
O5_7 C1_9 1_555 1_555
O6_7 C2_9 1_555 1_555
In3_7 O5_7 1_555 1_555
O6_7 In3_7 1_555 1_555
C1_10 C2_10 1_555 1_555
C2_10 O10_2 1_555 1_555
O9_2 C1_10 1_555 1_555
O5_8 C1_10 1_555 1_555
O6_8 C2_10 1_555 1_555
In3_8 O5_8 1_555 1_555
O6_8 In3_8 1_555 1_555
In1_3 O1_5 1_555 1_555
C1_11 C2_11 1_555 1_555
C2_11 O2_5 1_555 1_555
O1_5 C1_11 1_555 1_555
O2_5 In1_3 1_555 1_555
O3_5 In1_3 1_555 1_555
O5_9 C1_11 1_555 1_555
O6_9 C2_11 1_555 1_555
O8_5 In1_3 1_555 1_555
In3_8 O5_9 1_555 1_555
O9_5 In1_3 1_555 1_555
O10_5 In1_3 1_555 1_555
O11_3 In1_3 1_555 1_555
O12_3 In1_3 1_555 1_555
O6_9 In3_8 1_555 1_555
C4_5 O8_5 1_555 1_555
O4_3 C3_5 1_555 1_555
In2_3 O4_3 1_555 1_555
O7_3 In2_3 1_555 1_555
O7_4 In2_4 1_555 1_555
In1_4 O1_6 1_555 1_555
C1_12 C2_12 1_555 1_555
C2_12 O2_6 1_555 1_555
O1_6 C1_12 1_555 1_555
O2_6 In1_4 1_555 1_555
O3_6 In1_4 1_555 1_555
O9_6 In1_4 1_555 1_555
O10_6 In1_4 1_555 1_555
O11_4 In1_4 1_555 1_555
O12_4 In1_4 1_555 1_555
C1_13 C2_13 1_555 1_555
O5_10 C1_13 1_555 1_555
O6_10 C2_13 1_555 1_555
In3_7 O5_10 1_555 1_555
O6_10 In3_7 1_555 1_555
In2_4 O1_7 1_555 1_555
C1_14 C2_14 1_555 1_555
C2_14 O2_7 1_555 1_555
C3_6 O3_7 1_555 1_555
O1_7 C1_14 1_555 1_555
O2_7 In2_4 1_555 1_555
O3_7 In2_4 1_555 1_555
O12_3 C3_6 1_555 1_555
O5_11 C1_14 1_555 1_555
O6_11 C2_14 1_555 1_555
C4_6 C3_6 1_555 1_555
O11_3 C4_6 1_555 1_555
O8_6 In2_4 1_555 1_555
In3_6 O5_11 1_555 1_555
O9_7 In2_4 1_555 1_555
O10_7 In2_4 1_555 1_555
O6_11 In3_6 1_555 1_555
C4_6 O8_6 1_555 1_555
In2_3 O1_8 1_555 1_555
C1_15 C2_15 1_555 1_555
C2_15 O2_8 1_555 1_555
C3_7 O3_8 1_555 1_555
O1_8 C1_15 1_555 1_555
O2_8 In2_3 1_555 1_555
O3_8 In2_3 1_555 1_555
O12_4 C3_7 1_555 1_555
O5_12 C1_15 1_555 1_555
O6_12 C2_15 1_555 1_555
C4_7 C3_7 1_555 1_555
O11_4 C4_7 1_555 1_555
O8_7 In2_3 1_555 1_555
In3_5 O5_12 1_555 1_555
O9_8 In2_3 1_555 1_555
O10_8 In2_3 1_555 1_555
O6_12 In3_5 1_555 1_555
C4_7 O8_7 1_555 1_555
C1_16 C2_16 1_555 1_555
C2_16 O10_7 1_555 1_555
O9_7 C1_16 1_555 1_555
C1_17 C2_17 1_555 1_555
O5_13 C1_17 1_555 1_555
O6_13 C2_17 1_555 1_555
In3_4 O5_13 1_555 1_555
O6_13 In3_4 1_555 1_555
C1_18 C2_18 1_555 1_555
C2_18 O10_8 1_555 1_555
O9_8 C1_18 1_555 1_555
O5_14 C1_18 1_555 1_555
O6_14 C2_18 1_555 1_555
In3_3 O5_14 1_555 1_555
O6_14 In3_3 1_555 1_555
C1_19 C2_19 1_555 1_555
C2_19 O10_5 1_555 1_555
O9_5 C1_19 1_555 1_555
O5_15 C1_19 1_555 1_555
O6_15 C2_19 1_555 1_555
In3_2 O5_15 1_555 1_555
O6_15 In3_2 1_555 1_555
C1_20 C2_20 1_555 1_555
C2_20 O10_6 1_555 1_555
O9_6 C1_20 1_555 1_555
O5_16 C1_20 1_555 1_555
O6_16 C2_20 1_555 1_555
In3 O5_16 1_555 1_555
O6_16 In3 1_555 1_555
O7_5 C4_8 1_555 1_555
C4_8 O8_8 1_555 1_555
O7_5 In3 1_555 1_555
C3_8 O3_9 1_555 1_555
O3_9 In3_6 1_555 1_555
O4_4 C3_8 1_555 1_555
O11_5 In3_6 1_555 1_555
O12_5 In3_6 1_555 1_555
C3_9 O3_10 1_555 1_555
O3_10 In3_5 1_555 1_555
O4_5 C3_9 1_555 1_555
C4_9 C3_9 1_555 1_555
O7_6 C4_9 1_555 1_555
O8_9 In3_5 1_555 1_555
In3_2 O4_5 1_555 1_555
O11_6 In3_5 1_555 1_555
O12_6 In3_5 1_555 1_555
C4_9 O8_9 1_555 1_555
O7_6 In3_2 1_555 1_555
C3_10 O3_11 1_555 1_555
O3_11 In3_2 1_555 1_555
O12_5 C3_10 1_555 1_555
C4_10 C3_10 1_555 1_555
O11_5 C4_10 1_555 1_555
O8_10 In3_2 1_555 1_555
C4_10 O8_10 1_555 1_555
C3_11 O3_12 1_555 1_555
O3_12 In3 1_555 1_555
O12_6 C3_11 1_555 1_555
C4_11 C3_11 1_555 1_555
O11_6 C4_11 1_555 1_555
O8_11 In3 1_555 1_555
C4_11 O8_11 1_555 1_555
O4_6 C3_12 1_555 1_555
In3_8 O4_6 1_555 1_555
O7_7 In3_8 1_555 1_555
O3_13 In3_3 1_555 1_555
O8_12 In3_3 1_555 1_555
O11_7 In3_3 1_555 1_555
O12_7 In3_3 1_555 1_555
C4_12 O8_12 1_555 1_555
O3_14 In3_4 1_555 1_555
O11_8 In3_4 1_555 1_555
O12_8 In3_4 1_555 1_555
O7_8 In3_7 1_555 1_555
C3_13 O3_15 1_555 1_555
O3_15 In3_7 1_555 1_555
O12_7 C3_13 1_555 1_555
C4_13 C3_13 1_555 1_555
O11_7 C4_13 1_555 1_555
O8_13 In3_7 1_555 1_555
C4_13 O8_13 1_555 1_555
C3_14 O3_16 1_555 1_555
O3_16 In3_8 1_555 1_555
O12_8 C3_14 1_555 1_555
C4_14 C3_14 1_555 1_555
O11_8 C4_14 1_555 1_555
O8_14 In3_8 1_555 1_555
C4_14 O8_14 1_555 1_555
O4_7 C3_15 1_555 1_555
C4_15 O8_15 1_555 1_555
C4_16 O8_16 1_555 1_555
O4_8 C3_16 1_555 1_555

#END
