
###############################################################################
#
# This file contains modified crystal structure data generated from the
# MOF subset of the Cambridge Structural Database (CSD) v543 
# hosted by the Cambridge Crystallographic Data Centre (CCDC).
#
# This work is licensed under the Creative Commons
# Attribution-NonCommercial-ShareAlike 4.0 International License.
# To view a copy of this license, visit
# http://creativecommons.org/licenses/by-nc-sa/4.0/
# or send a letter to
# Creative Commons, PO Box 1866, Mountain View, CA 94042, USA.
#
# CIF created using the CSD Python API on 29 September 2022
# The structure has been converted into the P1 space group
# The structure has a 3D framework
# The original CSD entry WODPUC is in the triclinic crystal system
# The framework has been calculated to contain at least 10.0% void space
# The void calculation uses a probe of radius 1.32A, grid spacing 0.4
# H atom positions have been added when not included in the experimental data
#
###############################################################################

data_WODPUC
_chemical_formula_moiety         '(C40 H28 Dy2 N6 O22 Zn2)n'
_symmetry_cell_setting           triclinic
_symmetry_space_group_name_H-M   'P 1'
_symmetry_Int_Tables_number      1
_space_group_name_Hall           'P 1'
loop_
_symmetry_equiv_pos_site_id
_symmetry_equiv_pos_as_xyz
1 x,y,z
_cell_length_a                   10.660(2)
_cell_length_b                   11.377(2)
_cell_length_c                   12.509(3)
_cell_angle_alpha                86.24(3)
_cell_angle_beta                 81.85(3)
_cell_angle_gamma                89.07(3)
_cell_volume                     1498.49
loop_
_atom_site_label
_atom_site_type_symbol
_atom_site_fract_x
_atom_site_fract_y
_atom_site_fract_z
C7 C 0.1680(4) 0.3479(4) 0.1471(4)
H3 H 0.2370 0.3834 0.1038
C9 C 0.0841(4) 0.1951(4) 0.2648(4)
H5 H 0.0946 0.1239 0.3035
N2 N 0.1866(3) 0.2450(3) 0.2042(3)
C11 C 0.0511(4) 0.4017(4) 0.1510(4)
H7 H 0.0423 0.4725 0.1110
Zn3 Zn 0.36811(4) 0.16410(4) 0.20067(4)
N3 N 0.5399(3) 0.0664(3) 0.1636(3)
C12 C 0.6598(4) 0.1066(4) 0.1561(4)
H8 H 0.6730 0.1806 0.1798
C20 C 0.7639(4) 0.0402(4) 0.1140(4)
H10 H 0.8456 0.0698 0.1085
N4 N 0.3522(3) 0.1265(3) 0.3770(3)
O15 O 0.4174(3) 0.2515(2) 0.0411(2)
O16 O 0.4472(3) 0.3179(2) 0.2591(2)
O1 O 0.5030(3) 0.3228(3) 0.6417(2)
O2 O 0.3074(3) 0.3886(3) 0.6391(2)
C1 C 0.3965(4) 0.3169(4) 0.6106(3)
Dy1 Dy 0.573313(16) 0.514081(14) 0.238131(13)
C2 C 0.6208(4) 0.8855(3) 0.0890(3)
C3 C 0.3011(7) 0.0135(5) 0.5455(4)
C4 C 0.3272(7) 0.1084(5) 0.6019(4)
H2 H 0.3173 0.1021 0.6771
C5 C 0.3818(4) 0.2179(3) 0.4323(3)
C6 C 0.3687(4) 0.2145(4) 0.5452(3)
C8 C 0.3134(6) 0.0251(4) 0.4333(4)
C10 C 0.9643(4) 0.2448(4) 0.2722(4)
H6 H 0.8964 0.2077 0.3156
O3 O 0.7227(3) 0.3588(3) 0.2812(2)
C13 C 0.8167(4) 0.4077(3) 0.2198(3)
C14 C 0.3814(4) 0.9201(3) 0.1444(3)
C15 C 0.6000(3) 0.7620(3) 0.0553(3)
C16 C 0.4342(4) 0.3242(3) 0.3619(3)
C17 C 0.5198(4) 0.9576(3) 0.1315(3)
C18 C 0.7436(4) 0.9288(4) 0.0802(3)
H9 H 0.8120 0.8833 0.0517
C19 C 0.9461(4) 0.3505(4) 0.2144(3)
O4 O 0.3631(3) 0.5683(3) 0.2030(3)
O5 O 0.6079(3) 0.6801(2) 0.1260(2)
O6 O 0.2988(3) 0.9984(2) 0.1748(2)
O8 O 0.8019(3) 0.5026(2) 0.1641(2)
O10 O 0.4682(3) 0.4128(2) 0.4048(2)
O11 O 0.5875(3) 0.4269(3) 0.0680(2)
O12 O 0.3577(3) 0.8173(2) 0.1251(3)
O13 O 0.4970(3) 0.6772(3) 0.3583(2)
O14 O 0.6926(3) 0.6114(3) 0.3609(2)
Dy2 Dy 0.426687(16) 0.485919(14) 0.761869(13)
H11 H 0.300708 0.543423 0.266839
H12 H 0.357949 0.655035 0.188896
H13 H 0.559217 0.343756 0.0800274
H14 H 0.532515 0.4713 0.0214707
O7 O 0.5826(3) 0.7485(2) 0.9589(2)
Zn4 Zn 0.63189(4) 0.83590(4) 0.79933(4)
C1_2 C 0.6035(4) 0.6831(4) 0.3894(3)
C2_2 C 0.3792(4) 0.1145(3) 0.9110(3)
N1 N 0.6478(3) 0.8735(3) 0.6230(3)
C3_2 C 0.6989(7) 0.9865(5) 0.4545(4)
C4_2 C 0.6728(7) 0.8916(5) 0.3981(4)
H2_2 H 0.6827 0.8979 0.3229
C5_2 C 0.6182(4) 0.7821(3) 0.5677(3)
C6_2 C 0.6313(4) 0.7855(4) 0.4548(3)
C8_2 C 0.6866(6) 0.9749(4) 0.5667(4)
C10_2 C 0.0357(4) 0.7552(4) 0.7278(4)
H6_2 H 0.1036 0.7923 0.6844
O3_2 O 0.2773(3) 0.6412(3) 0.7188(2)
C13_2 C 0.1833(4) 0.5923(3) 0.7802(3)
C14_2 C 0.6186(4) 0.0799(3) 0.8556(3)
C15_2 C 0.4000(3) 0.2380(3) 0.9447(3)
C16_2 C 0.5658(4) 0.6758(3) 0.6381(3)
C17_2 C 0.4802(4) 0.0424(3) 0.8685(3)
C18_2 C 0.2564(4) 0.0712(4) 0.9198(3)
H9_2 H 0.1880 0.1167 0.9483
C19_2 C 0.0539(4) 0.6495(4) 0.7856(3)
O4_2 O 0.6369(3) 0.4317(3) 0.7970(3)
O5_2 O 0.3921(3) 0.3199(2) 0.8740(2)
O6_2 O 0.7012(3) 0.0016(2) 0.8252(2)
O8_2 O 0.1981(3) 0.4974(2) 0.8359(2)
O9 O 0.5528(3) 0.6821(2) 0.7409(2)
O10_2 O 0.5318(3) 0.5872(2) 0.5952(2)
O11_2 O 0.4125(3) 0.5731(3) 0.9320(2)
O12_2 O 0.6423(3) 0.1827(2) 0.8749(3)
H11_2 H 0.699292 0.456577 0.733161
H12_2 H 0.642051 0.344965 0.811104
H13_2 H 0.440783 0.656244 0.919973
H14_2 H 0.467485 0.5287 0.978529
N3_2 N 0.4601(3) 0.9336(3) 0.8364(3)
C12_2 C 0.3402(4) 0.8934(4) 0.8439(4)
H8_2 H 0.3270 0.8194 0.8202
C20_2 C 0.2361(4) 0.9598(4) 0.8860(4)
H10_2 H 0.1544 0.9302 0.8915
N5 N 0.8134(3) 0.7550(3) 0.7958(3)
C7_2 C 0.8320(4) 0.6521(4) 0.8529(4)
H3_2 H 0.7630 0.6166 0.8962
C9_2 C 0.9159(4) 0.8049(4) 0.7352(4)
H5_2 H 0.9054 0.8761 0.6965
C11_2 C 0.9489(4) 0.5983(4) 0.8490(4)
H7_2 H 0.9577 0.5275 0.8890
H1 H 0.2756 0.9424 0.5824
H4 H 0.2943 0.9612 0.3959
H1_2 H 0.7244 0.0576 0.4176
H4_2 H 0.7057 0.0388 0.6041
loop_
_geom_bond_atom_site_label_1
_geom_bond_atom_site_label_2
_geom_bond_site_symmetry_1
_geom_bond_site_symmetry_2
C7 H3 1_555 1_555
C9 H5 1_555 1_555
N2 C7 1_555 1_555
C11 C7 1_555 1_555
H7 C11 1_555 1_555
Zn3 N2 1_555 1_555
C9 N2 1_555 1_555
Zn3 N3 1_555 1_555
N3 C12 1_555 1_555
C12 H8 1_555 1_555
C20 C12 1_555 1_555
H10 C20 1_555 1_555
N4 Zn3 1_555 1_555
O15 Zn3 1_555 1_555
O16 Zn3 1_555 1_555
O1 C1 1_555 1_555
O2 C1 1_555 1_555
C1 C6 1_555 1_555
Dy1 O3 1_555 1_555
C2 C15 1_555 1_555
N4 C5 1_555 1_555
C4 C3 1_555 1_555
H2 C4 1_555 1_555
C5 C6 1_555 1_555
C6 C4 1_555 1_555
C8 N4 1_555 1_555
H6 C10 1_555 1_555
O3 C13 1_555 1_555
C13 C19 1_555 1_555
C14 C17 1_555 1_555
C15 O5 1_555 1_555
C16 C5 1_555 1_555
C17 C2 1_555 1_555
C18 C2 1_555 1_555
H9 C18 1_555 1_555
C19 C10 1_555 1_555
O4 Dy1 1_555 1_555
O5 Dy1 1_555 1_555
O8 Dy1 1_555 1_555
O16 Dy1 1_555 1_555
O10 Dy1 1_555 1_555
O11 Dy1 1_555 1_555
O12 C14 1_555 1_555
O13 Dy1 1_555 1_555
O14 Dy1 1_555 1_555
Dy2 O1 1_555 1_555
O2 Dy2 1_555 1_555
C3 C8 1_555 1_555
C13 O8 1_555 1_555
C14 O6 1_555 1_555
C16 O16 1_555 1_555
C16 O10 1_555 1_555
O4 H11 1_555 1_555
O4 H12 1_555 1_555
O11 H13 1_555 1_555
O11 H14 1_555 1_555
Zn4 O7 1_555 1_555
O13 C1_2 1_555 1_555
O14 C1_2 1_555 1_555
C1_2 C6_2 1_555 1_555
Dy2 O3_2 1_555 1_555
C2_2 C15_2 1_555 1_555
N1 C5_2 1_555 1_555
C4_2 C3_2 1_555 1_555
H2_2 C4_2 1_555 1_555
C5_2 C6_2 1_555 1_555
C6_2 C4_2 1_555 1_555
C8_2 N1 1_555 1_555
H6_2 C10_2 1_555 1_555
O3_2 C13_2 1_555 1_555
C13_2 C19_2 1_555 1_555
C14_2 C17_2 1_555 1_555
C15_2 O5_2 1_555 1_555
C16_2 C5_2 1_555 1_555
C17_2 C2_2 1_555 1_555
C18_2 C2_2 1_555 1_555
H9_2 C18_2 1_555 1_555
C19_2 C10_2 1_555 1_555
O4_2 Dy2 1_555 1_555
O5_2 Dy2 1_555 1_555
O8_2 Dy2 1_555 1_555
O9 Dy2 1_555 1_555
O10_2 Dy2 1_555 1_555
O11_2 Dy2 1_555 1_555
O12_2 C14_2 1_555 1_555
Zn4 N1 1_555 1_555
C3_2 C8_2 1_555 1_555
C13_2 O8_2 1_555 1_555
C14_2 O6_2 1_555 1_555
C16_2 O9 1_555 1_555
C16_2 O10_2 1_555 1_555
O9 Zn4 1_555 1_555
O4_2 H11_2 1_555 1_555
O4_2 H12_2 1_555 1_555
O11_2 H13_2 1_555 1_555
O11_2 H14_2 1_555 1_555
Zn4 N3_2 1_555 1_555
N3_2 C12_2 1_555 1_555
C12_2 H8_2 1_555 1_555
C20_2 C12_2 1_555 1_555
H10_2 C20_2 1_555 1_555
N5 Zn4 1_555 1_555
C7_2 H3_2 1_555 1_555
C9_2 H5_2 1_555 1_555
N5 C7_2 1_555 1_555
C11_2 C7_2 1_555 1_555
H7_2 C11_2 1_555 1_555
C9_2 N5 1_555 1_555

#END
