
###############################################################################
#
# This file contains modified crystal structure data generated from the
# MOF subset of the Cambridge Structural Database (CSD) v543 
# hosted by the Cambridge Crystallographic Data Centre (CCDC).
#
# This work is licensed under the Creative Commons
# Attribution-NonCommercial-ShareAlike 4.0 International License.
# To view a copy of this license, visit
# http://creativecommons.org/licenses/by-nc-sa/4.0/
# or send a letter to
# Creative Commons, PO Box 1866, Mountain View, CA 94042, USA.
#
# CIF created using the CSD Python API on 29 September 2022
# The structure has been converted into the P1 space group
# The structure has a 3D framework
# The original CSD entry WODVOB is in the monoclinic crystal system
# The framework has been calculated to contain at least 10.0% void space
# The void calculation uses a probe of radius 1.32A, grid spacing 0.4
# The framework is charged, counterions have been retained in the structure
#
###############################################################################

data_WODVOB
_chemical_formula_moiety         '(C140 H146 Cd6 N28 O55 10-)n'
_symmetry_cell_setting           triclinic
_symmetry_space_group_name_H-M   'P 1'
_symmetry_Int_Tables_number      1
_space_group_name_Hall           'P 1'
loop_
_symmetry_equiv_pos_site_id
_symmetry_equiv_pos_as_xyz
1 x,y,z
_cell_length_a                   24.361(5)
_cell_length_b                   15.388(4)
_cell_length_c                   11.609(3)
_cell_angle_alpha                90
_cell_angle_beta                 118.460(17)
_cell_angle_gamma                90
_cell_volume                     3825.91
loop_
_atom_site_label
_atom_site_type_symbol
_atom_site_fract_x
_atom_site_fract_y
_atom_site_fract_z
N1 N 0.4756(5) 0.0000 0.0099(13)
H5 H 0.3727 -0.0000 0.0004
N3 N 0.1416(7) 0.0000 0.1289(13)
C15 C 0.1477(7) 0.0000 0.0242(14)
H9 H 0.1875 0.0000 0.0320
C16 C 0.0781(10) 0.0000 0.117(2)
H10 H 0.0474 0.0000 0.0258
H11 H 0.0729 0.0509 0.1583
C17 C 0.1982(15) 0.0000 0.252(2)
H13 H 0.2336 0.0000 0.2371
H15 H 0.1994 0.0509 0.3014
Cd5 Cd 0.90801(2) 0.0000 0.30345(5)
O17 O 0.8039(3) 0.0000 0.2709(9)
C21 C 0.7030(6) 0.0000 0.3163(13)
O22 O 0.7395(5) 0.0000 0.0528(12)
C28 C 0.6519(7) 0.0000 0.3420(16)
H29 H 0.6578 0.0000 0.4274
C29 C 0.5831(5) 0.0000 0.1080(15)
C30 C 0.5930(6) 0.0000 0.2363(18)
H30 H 0.5586 0.0000 0.2509
C34 C 0.7480(5) 0.0000 0.1631(13)
C35 C 0.6335(5) 0.0000 0.0851(12)
C45 C 0.6947(5) 0.0000 0.1909(14)
O23 O 0.7620(5) 0.0000 0.4226(12)
H38 H 0.7881 0.0000 0.3970
Cd1 Cd 0.09199(2) 0.0000 0.69655(5)
O2 O 0.0084(3) 0.0929(4) 0.6665(7)
O3 O 0.0998(5) 0.0000 0.9095(9)
O4 O 0.1961(3) 0.0000 0.7291(9)
C1 C 0.2970(6) 0.0000 0.6837(13)
O5 O 0.0169(3) 0.1943(6) 0.8575(9)
H2 H 0.0316 0.1625 0.8226
O6 O 0.2605(5) 0.0000 0.9472(12)
C4 C 0.3481(7) 0.0000 0.6580(16)
H3 H 0.3422 0.0000 0.5726
C5 C 0.4169(5) 0.0000 0.8920(15)
C6 C 0.4070(6) 0.0000 0.7637(18)
H4 H 0.4414 0.0000 0.7491
C8 C 0.2520(5) 0.0000 0.8369(13)
C9 C 0.3665(5) 0.0000 0.9149(12)
C13 C 0.3053(5) 0.0000 0.8091(14)
O7 O 0.2380(5) 0.0000 0.5774(12)
H8 H 0.2119 0.0000 0.6030
O9 O 0.1341(4) 0.1401(5) 0.8026(8)
N5 N 0.5244(5) 0.0000 0.9901(13)
H31 H 0.6273 0.0000 0.9996
O28 O 0.0803(3) 0.0912(4) 0.5229(6)
C52 C 0.1665(6) 0.1948(7) 0.7814(15)
H46 H 0.1855 0.1775 0.7321
N10 N 0.1753(7) 0.2770(8) 0.8259(17)
C55 C 0.142(2) 0.311(2) 0.888(6)
H49 H 0.1188 0.2651 0.9024
H52 H 0.1703 0.3363 0.9711
H55 H 0.1129 0.3549 0.8336
C58 C 0.2166(10) 0.3297(11) 0.803(2)
H58 H 0.2234 0.3040 0.7352
H61 H 0.1987 0.3865 0.7755
H64 H 0.2557 0.3345 0.8818
N1_2 N 0.4756(5) 1.0000 0.0099(13)
H5_2 H 0.3727 1.0000 0.0004
N3_2 N 0.1416(7) 1.0000 0.1289(13)
C15_2 C 0.1477(7) 1.0000 0.0242(14)
H9_2 H 0.1875 1.0000 0.0320
C16_2 C 0.0781(10) 1.0000 0.117(2)
H10_2 H 0.0474 1.0000 0.0258
H12 H 0.0729 0.9491 0.1583
C17_2 C 0.1982(15) 1.0000 0.252(2)
H13_2 H 0.2336 1.0000 0.2371
H14 H 0.1994 0.9491 0.3014
Cd5_2 Cd 0.90801(2) 1.0000 0.30345(5)
O17_2 O 0.8039(3) 1.0000 0.2709(9)
C21_2 C 0.7030(6) 1.0000 0.3163(13)
O22_2 O 0.7395(5) 1.0000 0.0528(12)
C28_2 C 0.6519(7) 1.0000 0.3420(16)
H29_2 H 0.6578 1.0000 0.4274
C29_2 C 0.5831(5) 1.0000 0.1080(15)
C30_2 C 0.5930(6) 1.0000 0.2363(18)
H30_2 H 0.5586 1.0000 0.2509
C34_2 C 0.7480(5) 1.0000 0.1631(13)
C35_2 C 0.6335(5) 1.0000 0.0851(12)
C45_2 C 0.6947(5) 1.0000 0.1909(14)
O23_2 O 0.7620(5) 1.0000 0.4226(12)
H38_2 H 0.7881 1.0000 0.3970
Cd1_2 Cd 0.09199(2) 1.0000 0.69655(5)
O1 O 0.1341(4) 0.8599(5) 0.8026(8)
O3_2 O 0.0998(5) 1.0000 0.9095(9)
O4_2 O 0.1961(3) 1.0000 0.7291(9)
C1_2 C 0.2970(6) 1.0000 0.6837(13)
O6_2 O 0.2605(5) 1.0000 0.9472(12)
C4_2 C 0.3481(7) 1.0000 0.6580(16)
H3_2 H 0.3422 1.0000 0.5726
C5_2 C 0.4169(5) 1.0000 0.8920(15)
C6_2 C 0.4070(6) 1.0000 0.7637(18)
H4_2 H 0.4414 1.0000 0.7491
C8_2 C 0.2520(5) 1.0000 0.8369(13)
C9_2 C 0.3665(5) 1.0000 0.9149(12)
C13_2 C 0.3053(5) 1.0000 0.8091(14)
O7_2 O 0.2380(5) 1.0000 0.5774(12)
H8_2 H 0.2119 1.0000 0.6030
C18 C 0.1665(6) 0.8052(7) 0.7814(15)
H16 H 0.1855 0.8225 0.7321
N4 N 0.1753(7) 0.7230(8) 0.8259(17)
C19 C 0.142(2) 0.689(2) 0.888(6)
H17 H 0.1188 0.7349 0.9024
H18 H 0.1703 0.6637 0.9711
H19 H 0.1129 0.6451 0.8336
C20 C 0.2166(10) 0.6703(11) 0.803(2)
H20 H 0.2234 0.6960 0.7352
H21 H 0.1987 0.6135 0.7755
H22 H 0.2557 0.6655 0.8818
O13 O 0.0084(3) 0.9071(4) 0.6665(7)
N5_2 N 0.5244(5) 1.0000 0.9901(13)
O20 O 0.0169(3) 0.8057(6) 0.8575(9)
H27 H 0.0316 0.8375 0.8226
H31_2 H 0.6273 1.0000 0.9996
O27 O 0.0803(3) 0.9088(4) 0.5229(6)
C2 C 0.8626(5) 0.2754(8) 0.7540(10)
H1 H 0.8421 0.3087 0.7886
C3 C 0.9541(4) 0.2042(8) 0.7761(10)
C7 C 0.8279(4) 0.2414(6) 0.6265(10)
N2 N 0.7635(4) 0.2617(6) 0.5591(9)
C10 C 0.9205(3) 0.1709(5) 0.6505(8)
C11 C 0.8582(4) 0.1889(5) 0.5779(8)
H6 H 0.8359 0.1655 0.4943
C12 C 0.9512(3) 0.1139(4) 0.5920(8)
C14 C 0.9245(6) 0.2616(9) 0.8278(12)
H7 H 0.9472 0.2882 0.9089
O8 O 0.9197(3) 0.0912(4) 0.4771(6)
Cd2 Cd 0.40801(2) 0.5000 0.30345(5)
Cd4 Cd 0.59199(2) 0.5000 0.69655(5)
O10 O 0.3659(4) 0.6401(5) 0.1974(8)
O11 O 0.3659(4) 0.3599(5) 0.1974(8)
O12 O 0.4916(3) 0.4071(4) 0.3335(7)
O15 O 0.4916(3) 0.5929(4) 0.3335(7)
O16 O 0.4002(5) 0.5000 0.0905(9)
O18 O 0.3039(3) 0.5000 0.2709(9)
C22 C 0.6374(5) 0.2246(8) 0.2460(10)
H23 H 0.6579 0.1913 0.2114
O19 O 0.4831(3) 0.3057(6) 0.1425(9)
H26 H 0.4684 0.3375 0.1774
C25 C 0.5459(4) 0.2958(8) 0.2239(10)
C31 C 0.6721(4) 0.2586(6) 0.3735(10)
N6 N 0.7365(4) 0.2383(6) 0.4409(9)
C36 C 0.5795(3) 0.3291(5) 0.3495(8)
C39 C 0.6418(4) 0.3111(5) 0.4221(8)
H32 H 0.6641 0.3345 0.5057
C42 C 0.5488(3) 0.3861(4) 0.4080(8)
C46 C 0.5755(6) 0.2384(9) 0.1722(12)
H35 H 0.5528 0.2118 0.0911
O24 O 0.5803(3) 0.4088(4) 0.5229(6)
O29 O 0.4197(3) 0.5912(4) 0.4771(6)
O30 O 0.4197(3) 0.4088(4) 0.4771(6)
C53 C 0.3335(6) 0.6948(7) 0.2186(15)
C54 C 0.3335(6) 0.3052(7) 0.2186(15)
H47 H 0.3145 0.6775 0.2679
H48 H 0.3145 0.3225 0.2679
N11 N 0.3247(7) 0.7770(8) 0.1741(17)
N12 N 0.3247(7) 0.2230(8) 0.1741(17)
C56 C 0.358(2) 0.811(2) 0.112(6)
C57 C 0.358(2) 0.189(2) 0.112(6)
H50 H 0.3812 0.7651 0.0976
H51 H 0.3812 0.2349 0.0976
H53 H 0.3297 0.8363 0.0289
H54 H 0.3297 0.1637 0.0289
H56 H 0.3871 0.8549 0.1664
H57 H 0.3871 0.1451 0.1664
C59 C 0.2834(10) 0.8297(11) 0.197(2)
C60 C 0.2834(10) 0.1703(11) 0.197(2)
H59 H 0.2766 0.8040 0.2648
H60 H 0.2766 0.1960 0.2648
H62 H 0.3013 0.8865 0.2245
H63 H 0.3013 0.1135 0.2245
H65 H 0.2443 0.8345 0.1182
H66 H 0.2443 0.1655 0.1182
C23 C 0.8626(5) 0.7246(8) 0.7540(10)
C24 C 0.6374(5) 0.7754(8) 0.2460(10)
H24 H 0.8421 0.6913 0.7886
H25 H 0.6579 0.8087 0.2114
O21 O 0.4831(3) 0.6943(6) 0.1425(9)
H28 H 0.4684 0.6625 0.1774
C26 C 0.9541(4) 0.7958(8) 0.7761(10)
C27 C 0.5459(4) 0.7042(8) 0.2239(10)
C32 C 0.8279(4) 0.7586(6) 0.6265(10)
C33 C 0.6721(4) 0.7414(6) 0.3735(10)
N7 N 0.7635(4) 0.7383(6) 0.5591(9)
N8 N 0.7365(4) 0.7617(6) 0.4409(9)
C37 C 0.9205(3) 0.8291(5) 0.6505(8)
C38 C 0.5795(3) 0.6709(5) 0.3495(8)
C40 C 0.8582(4) 0.8111(5) 0.5779(8)
C41 C 0.6418(4) 0.6889(5) 0.4221(8)
H33 H 0.8359 0.8345 0.4943
H34 H 0.6641 0.6655 0.5057
C43 C 0.9512(3) 0.8861(4) 0.5920(8)
C44 C 0.5488(3) 0.6139(4) 0.4080(8)
C47 C 0.9245(6) 0.7384(9) 0.8278(12)
C48 C 0.5755(6) 0.7616(9) 0.1722(12)
H36 H 0.9472 0.7118 0.9089
H37 H 0.5528 0.7882 0.0911
O25 O 0.9197(3) 0.9088(4) 0.4771(6)
O26 O 0.5803(3) 0.5912(4) 0.5229(6)
C21_3 C 0.2030(6) 0.5000 0.3163(13)
O22_3 O 0.2395(5) 0.5000 0.0528(12)
C28_3 C 0.1519(7) 0.5000 0.3420(16)
H29_3 H 0.1578 0.5000 0.4274
C29_3 C 0.0831(5) 0.5000 0.1080(15)
C30_3 C 0.0930(6) 0.5000 0.2363(18)
H30_3 H 0.0586 0.5000 0.2509
C34_3 C 0.2480(5) 0.5000 0.1631(13)
C35_3 C 0.1335(5) 0.5000 0.0851(12)
C45_3 C 0.1947(5) 0.5000 0.1909(14)
O23_3 O 0.2620(5) 0.5000 0.4226(12)
H38_3 H 0.2881 0.5000 0.3970
O1_2 O 0.6341(4) 0.3599(5) 0.8026(8)
O2_2 O 0.5084(3) 0.5929(4) 0.6665(7)
O3_3 O 0.5998(5) 0.5000 0.9095(9)
O4_3 O 0.6961(3) 0.5000 0.7291(9)
C1_3 C 0.7970(6) 0.5000 0.6837(13)
C2_2 C 0.3626(5) 0.7754(8) 0.7540(10)
H1_2 H 0.3421 0.8087 0.7886
O5_2 O 0.5169(3) 0.6943(6) 0.8575(9)
H2_2 H 0.5316 0.6625 0.8226
C3_2 C 0.4541(4) 0.7042(8) 0.7761(10)
O6_3 O 0.7605(5) 0.5000 0.9472(12)
C4_3 C 0.8481(7) 0.5000 0.6580(16)
H3_3 H 0.8422 0.5000 0.5726
C5_3 C 0.9169(5) 0.5000 0.8920(15)
C6_3 C 0.9070(6) 0.5000 0.7637(18)
H4_3 H 0.9414 0.5000 0.7491
C7_2 C 0.3279(4) 0.7414(6) 0.6265(10)
C8_3 C 0.7520(5) 0.5000 0.8369(13)
C9_3 C 0.8665(5) 0.5000 0.9149(12)
N2_2 N 0.2635(4) 0.7617(6) 0.5591(9)
C10_2 C 0.4205(3) 0.6709(5) 0.6505(8)
C11_2 C 0.3582(4) 0.6889(5) 0.5779(8)
H6_2 H 0.3359 0.6655 0.4943
C12_2 C 0.4512(3) 0.6139(4) 0.5920(8)
C13_3 C 0.8053(5) 0.5000 0.8091(14)
C14_2 C 0.4245(6) 0.7616(9) 0.8278(12)
H7_2 H 0.4472 0.7882 0.9089
O7_3 O 0.7380(5) 0.5000 0.5774(12)
H8_3 H 0.7119 0.5000 0.6030
C18_2 C 0.6665(6) 0.3052(7) 0.7814(15)
H16_2 H 0.6855 0.3225 0.7321
N4_2 N 0.6753(7) 0.2230(8) 0.8259(17)
C19_2 C 0.642(2) 0.189(2) 0.888(6)
H17_2 H 0.6188 0.2349 0.9024
H18_2 H 0.6703 0.1637 0.9711
H19_2 H 0.6129 0.1451 0.8336
C20_2 C 0.7166(10) 0.1703(11) 0.803(2)
H20_2 H 0.7234 0.1960 0.7352
H21_2 H 0.6987 0.1135 0.7755
H22_2 H 0.7557 0.1655 0.8818
O9_2 O 0.6341(4) 0.6401(5) 0.8026(8)
O13_2 O 0.5084(3) 0.4071(4) 0.6665(7)
C22_2 C 0.1374(5) 0.7246(8) 0.2460(10)
C23_2 C 0.3626(5) 0.2246(8) 0.7540(10)
C24_2 C 0.1374(5) 0.2754(8) 0.2460(10)
H23_2 H 0.1579 0.6913 0.2114
H24_2 H 0.3421 0.1913 0.7886
H25_2 H 0.1579 0.3087 0.2114
O20_2 O 0.5169(3) 0.3057(6) 0.8575(9)
H27_2 H 0.5316 0.3375 0.8226
C25_2 C 0.0459(4) 0.7958(8) 0.2239(10)
C26_2 C 0.4541(4) 0.2958(8) 0.7761(10)
C27_2 C 0.0459(4) 0.2042(8) 0.2239(10)
C31_2 C 0.1721(4) 0.7586(6) 0.3735(10)
C32_2 C 0.3279(4) 0.2586(6) 0.6265(10)
C33_2 C 0.1721(4) 0.2414(6) 0.3735(10)
N6_2 N 0.2365(4) 0.7383(6) 0.4409(9)
N7_2 N 0.2635(4) 0.2383(6) 0.5591(9)
N8_2 N 0.2365(4) 0.2617(6) 0.4409(9)
C36_2 C 0.0795(3) 0.8291(5) 0.3495(8)
C37_2 C 0.4205(3) 0.3291(5) 0.6505(8)
C38_2 C 0.0795(3) 0.1709(5) 0.3495(8)
C39_2 C 0.1418(4) 0.8111(5) 0.4221(8)
C40_2 C 0.3582(4) 0.3111(5) 0.5779(8)
C41_2 C 0.1418(4) 0.1889(5) 0.4221(8)
H32_2 H 0.1641 0.8345 0.5057
H33_2 H 0.3359 0.3345 0.4943
H34_2 H 0.1641 0.1655 0.5057
C42_2 C 0.0488(3) 0.8861(4) 0.4080(8)
C43_2 C 0.4512(3) 0.3861(4) 0.5920(8)
C44_2 C 0.0488(3) 0.1139(4) 0.4080(8)
C46_2 C 0.0755(6) 0.7384(9) 0.1722(12)
C47_2 C 0.4245(6) 0.2384(9) 0.8278(12)
C48_2 C 0.0755(6) 0.2616(9) 0.1722(12)
H35_2 H 0.0528 0.7118 0.0911
H36_2 H 0.4472 0.2118 0.9089
H37_2 H 0.0528 0.2882 0.0911
C52_2 C 0.6665(6) 0.6948(7) 0.7814(15)
H46_2 H 0.6855 0.6775 0.7321
N10_2 N 0.6753(7) 0.7770(8) 0.8259(17)
C55_2 C 0.642(2) 0.811(2) 0.888(6)
H49_2 H 0.6188 0.7651 0.9024
H52_2 H 0.6703 0.8363 0.9711
H55_2 H 0.6129 0.8549 0.8336
C58_2 C 0.7166(10) 0.8297(11) 0.803(2)
H58_2 H 0.7234 0.8040 0.7352
H61_2 H 0.6987 0.8865 0.7755
H64_2 H 0.7557 0.8345 0.8818
O10_2 O 0.8659(4) 0.1401(5) 0.1974(8)
O15_2 O 0.9916(3) 0.0929(4) 0.3335(7)
O16_2 O 0.9002(5) 0.0000 0.0905(9)
C53_2 C 0.8335(6) 0.1948(7) 0.2186(15)
H47_2 H 0.8145 0.1775 0.2679
N11_2 N 0.8247(7) 0.2770(8) 0.1741(17)
C56_2 C 0.858(2) 0.311(2) 0.112(6)
H50_2 H 0.8812 0.2651 0.0976
H53_2 H 0.8297 0.3363 0.0289
H56_2 H 0.8871 0.3549 0.1664
C59_2 C 0.7834(10) 0.3297(11) 0.197(2)
H59_2 H 0.7766 0.3040 0.2648
H62_2 H 0.8013 0.3865 0.2245
H65_2 H 0.7443 0.3345 0.1182
N9 N 0.8584(7) 0.0000 0.8711(13)
C49 C 0.8523(7) 0.0000 0.9758(14)
H39 H 0.8125 0.0000 0.9680
C50 C 0.9219(10) 0.0000 0.883(2)
H40 H 0.9526 0.0000 0.9742
H42 H 0.9271 0.0509 0.8417
C51 C 0.8018(15) 0.0000 0.748(2)
H43 H 0.7664 0.0000 0.7629
H44 H 0.8006 0.0509 0.6986
O11_2 O 0.8659(4) 0.8599(5) 0.1974(8)
O12_2 O 0.9916(3) 0.9071(4) 0.3335(7)
O16_3 O 0.9002(5) 1.0000 0.0905(9)
O19_2 O 0.9831(3) 0.8057(6) 0.1425(9)
O21_2 O 0.9831(3) 0.1943(6) 0.1425(9)
H26_2 H 0.9684 0.8375 0.1774
H28_2 H 0.9684 0.1625 0.1774
C54_2 C 0.8335(6) 0.8052(7) 0.2186(15)
H48_2 H 0.8145 0.8225 0.2679
N12_2 N 0.8247(7) 0.7230(8) 0.1741(17)
C57_2 C 0.858(2) 0.689(2) 0.112(6)
H51_2 H 0.8812 0.7349 0.0976
H54_2 H 0.8297 0.6637 0.0289
H57_2 H 0.8871 0.6451 0.1664
C60_2 C 0.7834(10) 0.6703(11) 0.197(2)
H60_2 H 0.7766 0.6960 0.2648
H63_2 H 0.8013 0.6135 0.2245
H66_2 H 0.7443 0.6655 0.1182
N9_2 N 0.8584(7) 1.0000 0.8711(13)
C49_2 C 0.8523(7) 1.0000 0.9758(14)
H39_2 H 0.8125 1.0000 0.9680
C50_2 C 0.9219(10) 1.0000 0.883(2)
H40_2 H 0.9526 1.0000 0.9742
H41 H 0.9271 0.9491 0.8417
C51_2 C 0.8018(15) 1.0000 0.748(2)
H43_2 H 0.7664 1.0000 0.7629
H45 H 0.8006 0.9491 0.6986
N9_3 N 0.3584(7) 0.5000 0.8711(13)
C49_3 C 0.3523(7) 0.5000 0.9758(14)
H39_3 H 0.3125 0.5000 0.9680
C50_3 C 0.4219(10) 0.5000 0.883(2)
H40_3 H 0.4526 0.5000 0.9742
H41_2 H 0.4271 0.4491 0.8417
H42_2 H 0.4271 0.5509 0.8417
C51_3 C 0.3018(15) 0.5000 0.748(2)
H43_3 H 0.2664 0.5000 0.7629
H44_2 H 0.3006 0.5509 0.6986
H45_2 H 0.3006 0.4491 0.6986
N5_3 N 0.0244(5) 0.5000 0.9901(13)
H31_3 H 0.1273 0.5000 0.9996
N1_3 N 0.9756(5) 0.5000 0.0099(13)
H5_3 H 0.8727 0.5000 0.0004
N3_3 N 0.6416(7) 0.5000 0.1289(13)
C15_3 C 0.6477(7) 0.5000 0.0242(14)
H9_3 H 0.6875 0.5000 0.0320
C16_3 C 0.5781(10) 0.5000 0.117(2)
H10_3 H 0.5474 0.5000 0.0258
H11_2 H 0.5729 0.5509 0.1583
H12_2 H 0.5729 0.4491 0.1583
C17_3 C 0.6982(15) 0.5000 0.252(2)
H13_3 H 0.7336 0.5000 0.2371
H14_2 H 0.6994 0.4491 0.3014
H15_2 H 0.6994 0.5509 0.3014
loop_
_geom_bond_atom_site_label_1
_geom_bond_atom_site_label_2
_geom_bond_site_symmetry_1
_geom_bond_site_symmetry_2
N3 C15 1_555 1_555
H9 C15 1_555 1_555
C16 N3 1_555 1_555
H10 C16 1_555 1_555
H11 C16 1_555 1_555
C17 N3 1_555 1_555
H13 C17 1_555 1_555
H15 C17 1_555 1_555
Cd5 O17 1_555 1_555
O17 C34 1_555 1_555
C21 C28 1_555 1_555
O22 C34 1_555 1_555
C28 H29 1_555 1_555
C30 C28 1_555 1_555
H30 C30 1_555 1_555
C34 C45 1_555 1_555
C35 C29 1_555 1_555
C45 C21 1_555 1_555
O23 C21 1_555 1_555
H38 O23 1_555 1_555
C29 C30 1_555 1_555
C35 C45 1_555 1_555
O2 Cd1 1_555 1_555
O3 Cd1 1_555 1_555
O4 Cd1 1_555 1_555
C1 C4 1_555 1_555
O5 H2 1_555 1_555
O6 C8 1_555 1_555
C4 H3 1_555 1_555
C5 C6 1_555 1_555
C6 C4 1_555 1_555
H4 C6 1_555 1_555
C8 O4 1_555 1_555
C9 C5 1_555 1_555
C13 C1 1_555 1_555
O7 C1 1_555 1_555
H8 O7 1_555 1_555
O9 Cd1 1_555 1_555
O28 Cd1 1_555 1_555
C52 O9 1_555 1_555
H46 C52 1_555 1_555
N10 C52 1_555 1_555
C55 N10 1_555 1_555
H49 C55 1_555 1_555
H52 C55 1_555 1_555
H55 C55 1_555 1_555
C58 N10 1_555 1_555
H58 C58 1_555 1_555
H61 C58 1_555 1_555
H64 C58 1_555 1_555
C8 C13 1_555 1_555
C9 C13 1_555 1_555
N3_2 C15_2 1_555 1_555
H9_2 C15_2 1_555 1_555
C16_2 N3_2 1_555 1_555
H10_2 C16_2 1_555 1_555
H12 C16_2 1_555 1_555
C17_2 N3_2 1_555 1_555
H13_2 C17_2 1_555 1_555
H14 C17_2 1_555 1_555
Cd5_2 O17_2 1_555 1_555
O17_2 C34_2 1_555 1_555
C21_2 C28_2 1_555 1_555
O22_2 C34_2 1_555 1_555
C28_2 H29_2 1_555 1_555
C30_2 C28_2 1_555 1_555
H30_2 C30_2 1_555 1_555
C34_2 C45_2 1_555 1_555
C35_2 C29_2 1_555 1_555
C45_2 C21_2 1_555 1_555
O23_2 C21_2 1_555 1_555
H38_2 O23_2 1_555 1_555
C29_2 C30_2 1_555 1_555
C35_2 C45_2 1_555 1_555
Cd1_2 O1 1_555 1_555
O1 C18 1_555 1_555
O3_2 Cd1_2 1_555 1_555
O4_2 Cd1_2 1_555 1_555
C1_2 C4_2 1_555 1_555
O6_2 C8_2 1_555 1_555
C4_2 H3_2 1_555 1_555
C5_2 C6_2 1_555 1_555
C6_2 C4_2 1_555 1_555
H4_2 C6_2 1_555 1_555
C8_2 O4_2 1_555 1_555
C9_2 C5_2 1_555 1_555
C13_2 C1_2 1_555 1_555
O7_2 C1_2 1_555 1_555
H8_2 O7_2 1_555 1_555
C18 H16 1_555 1_555
N4 C18 1_555 1_555
C19 N4 1_555 1_555
H17 C19 1_555 1_555
H18 C19 1_555 1_555
H19 C19 1_555 1_555
C20 N4 1_555 1_555
H20 C20 1_555 1_555
H21 C20 1_555 1_555
H22 C20 1_555 1_555
O13 Cd1_2 1_555 1_555
O20 H27 1_555 1_555
O27 Cd1_2 1_555 1_555
C8_2 C13_2 1_555 1_555
C9_2 C13_2 1_555 1_555
C2 H1 1_555 1_555
C7 C2 1_555 1_555
N2 C7 1_555 1_555
C10 C3 1_555 1_555
C11 C7 1_555 1_555
H6 C11 1_555 1_555
C14 C2 1_555 1_555
H7 C14 1_555 1_555
O8 C12 1_555 1_555
Cd2 O10 1_555 1_555
Cd5 O8 1_555 1_555
Cd4 O24 1_555 1_555
O10 C53 1_555 1_555
O11 Cd2 1_555 1_555
O12 Cd2 1_555 1_555
O15 Cd2 1_555 1_555
O16 Cd2 1_555 1_555
O18 Cd2 1_555 1_555
C22 H23 1_555 1_555
O19 H26 1_555 1_555
C25 O19 1_555 1_555
C31 C22 1_555 1_555
N6 N2 1_555 1_555
C36 C25 1_555 1_555
C39 C31 1_555 1_555
H32 C39 1_555 1_555
C42 O12 1_555 1_555
C46 C22 1_555 1_555
H35 C46 1_555 1_555
O24 C42 1_555 1_555
O29 Cd2 1_555 1_555
O30 Cd2 1_555 1_555
C53 H47 1_555 1_555
C54 O11 1_555 1_555
H48 C54 1_555 1_555
N11 C53 1_555 1_555
N12 C54 1_555 1_555
C56 N11 1_555 1_555
C57 N12 1_555 1_555
H50 C56 1_555 1_555
H51 C57 1_555 1_555
H53 C56 1_555 1_555
H54 C57 1_555 1_555
H56 C56 1_555 1_555
H57 C57 1_555 1_555
C59 N11 1_555 1_555
C60 N12 1_555 1_555
H59 C59 1_555 1_555
H60 C60 1_555 1_555
H62 C59 1_555 1_555
H63 C60 1_555 1_555
H65 C59 1_555 1_555
H66 C60 1_555 1_555
C3 C14 1_555 1_555
C10 C11 1_555 1_555
C10 C12 1_555 1_555
C25 C46 1_555 1_555
C31 N6 1_555 1_555
C36 C39 1_555 1_555
C36 C42 1_555 1_555
Cd4 O26 1_555 1_555
O15 C44 1_555 1_555
C23 H24 1_555 1_555
C24 H25 1_555 1_555
O21 H28 1_555 1_555
C27 O21 1_555 1_555
C32 C23 1_555 1_555
C33 C24 1_555 1_555
N7 C32 1_555 1_555
N8 C33 1_555 1_555
C37 C26 1_555 1_555
C38 C27 1_555 1_555
C40 C32 1_555 1_555
C41 C33 1_555 1_555
H33 C40 1_555 1_555
H34 C41 1_555 1_555
C44 C38 1_555 1_555
C47 C23 1_555 1_555
C48 C24 1_555 1_555
H36 C47 1_555 1_555
H37 C48 1_555 1_555
O25 Cd5_2 1_555 1_555
O26 C44 1_555 1_555
C26 C47 1_555 1_555
C27 C48 1_555 1_555
N7 N8 1_555 1_555
C37 C40 1_555 1_555
C37 C43 1_555 1_555
C38 C41 1_555 1_555
C43 O25 1_555 1_555
O18 C34_3 1_555 1_555
C21_3 C28_3 1_555 1_555
O22_3 C34_3 1_555 1_555
C28_3 H29_3 1_555 1_555
C30_3 C28_3 1_555 1_555
H30_3 C30_3 1_555 1_555
C34_3 C45_3 1_555 1_555
C35_3 C29_3 1_555 1_555
C45_3 C21_3 1_555 1_555
O23_3 C21_3 1_555 1_555
H38_3 O23_3 1_555 1_555
C29_3 C30_3 1_555 1_555
C35_3 C45_3 1_555 1_555
Cd4 O1_2 1_555 1_555
O1_2 C18_2 1_555 1_555
O2_2 Cd4 1_555 1_555
O3_3 Cd4 1_555 1_555
O4_3 Cd4 1_555 1_555
C1_3 C4_3 1_555 1_555
C2_2 H1_2 1_555 1_555
O5_2 H2_2 1_555 1_555
C3_2 O5_2 1_555 1_555
O6_3 C8_3 1_555 1_555
C4_3 H3_3 1_555 1_555
C5_3 C6_3 1_555 1_555
C6_3 C4_3 1_555 1_555
H4_3 C6_3 1_555 1_555
C7_2 C2_2 1_555 1_555
C8_3 O4_3 1_555 1_555
C9_3 C5_3 1_555 1_555
N2_2 C7_2 1_555 1_555
C10_2 C3_2 1_555 1_555
C11_2 C7_2 1_555 1_555
H6_2 C11_2 1_555 1_555
C12_2 O2_2 1_555 1_555
C13_3 C1_3 1_555 1_555
C14_2 C2_2 1_555 1_555
H7_2 C14_2 1_555 1_555
O7_3 C1_3 1_555 1_555
H8_3 O7_3 1_555 1_555
O29 C12_2 1_555 1_555
C18_2 H16_2 1_555 1_555
N4_2 C18_2 1_555 1_555
C19_2 N4_2 1_555 1_555
H17_2 C19_2 1_555 1_555
H18_2 C19_2 1_555 1_555
H19_2 C19_2 1_555 1_555
C20_2 N4_2 1_555 1_555
H20_2 C20_2 1_555 1_555
H21_2 C20_2 1_555 1_555
H22_2 C20_2 1_555 1_555
O9_2 Cd4 1_555 1_555
O13_2 Cd4 1_555 1_555
C22_2 H23_2 1_555 1_555
C23_2 H24_2 1_555 1_555
C24_2 H25_2 1_555 1_555
O20_2 H27_2 1_555 1_555
C26_2 O20_2 1_555 1_555
C31_2 C22_2 1_555 1_555
C32_2 C23_2 1_555 1_555
C33_2 C24_2 1_555 1_555
N6_2 N2_2 1_555 1_555
N7_2 C32_2 1_555 1_555
N8_2 C33_2 1_555 1_555
C36_2 C25_2 1_555 1_555
C37_2 C26_2 1_555 1_555
C38_2 C27_2 1_555 1_555
C39_2 C31_2 1_555 1_555
C40_2 C32_2 1_555 1_555
C41_2 C33_2 1_555 1_555
H32_2 C39_2 1_555 1_555
H33_2 C40_2 1_555 1_555
H34_2 C41_2 1_555 1_555
C43_2 O13_2 1_555 1_555
C44_2 C38_2 1_555 1_555
C46_2 C22_2 1_555 1_555
C47_2 C23_2 1_555 1_555
C48_2 C24_2 1_555 1_555
H35_2 C46_2 1_555 1_555
H36_2 C47_2 1_555 1_555
H37_2 C48_2 1_555 1_555
O27 C42_2 1_555 1_555
O28 C44_2 1_555 1_555
C52_2 O9_2 1_555 1_555
H46_2 C52_2 1_555 1_555
N10_2 C52_2 1_555 1_555
C55_2 N10_2 1_555 1_555
H49_2 C55_2 1_555 1_555
H52_2 C55_2 1_555 1_555
H55_2 C55_2 1_555 1_555
C58_2 N10_2 1_555 1_555
H58_2 C58_2 1_555 1_555
H61_2 C58_2 1_555 1_555
H64_2 C58_2 1_555 1_555
C3_2 C14_2 1_555 1_555
C8_3 C13_3 1_555 1_555
C9_3 C13_3 1_555 1_555
C10_2 C11_2 1_555 1_555
C10_2 C12_2 1_555 1_555
C25_2 C46_2 1_555 1_555
C26_2 C47_2 1_555 1_555
C27_2 C48_2 1_555 1_555
C31_2 N6_2 1_555 1_555
N7_2 N8_2 1_555 1_555
C36_2 C39_2 1_555 1_555
C36_2 C42_2 1_555 1_555
C37_2 C40_2 1_555 1_555
C37_2 C43_2 1_555 1_555
C38_2 C41_2 1_555 1_555
C43_2 O30 1_555 1_555
Cd5 O10_2 1_555 1_555
O10_2 C53_2 1_555 1_555
O15_2 Cd5 1_555 1_555
O16_2 Cd5 1_555 1_555
C53_2 H47_2 1_555 1_555
N11_2 C53_2 1_555 1_555
C56_2 N11_2 1_555 1_555
H50_2 C56_2 1_555 1_555
H53_2 C56_2 1_555 1_555
H56_2 C56_2 1_555 1_555
C59_2 N11_2 1_555 1_555
H59_2 C59_2 1_555 1_555
H62_2 C59_2 1_555 1_555
H65_2 C59_2 1_555 1_555
N9 C49 1_555 1_555
H39 C49 1_555 1_555
C50 N9 1_555 1_555
H40 C50 1_555 1_555
H42 C50 1_555 1_555
C51 N9 1_555 1_555
H43 C51 1_555 1_555
H44 C51 1_555 1_555
O11_2 Cd5_2 1_555 1_555
O12_2 Cd5_2 1_555 1_555
O16_3 Cd5_2 1_555 1_555
O19_2 H26_2 1_555 1_555
O21_2 H28_2 1_555 1_555
C54_2 O11_2 1_555 1_555
H48_2 C54_2 1_555 1_555
N12_2 C54_2 1_555 1_555
C57_2 N12_2 1_555 1_555
H51_2 C57_2 1_555 1_555
H54_2 C57_2 1_555 1_555
H57_2 C57_2 1_555 1_555
C60_2 N12_2 1_555 1_555
H60_2 C60_2 1_555 1_555
H63_2 C60_2 1_555 1_555
H66_2 C60_2 1_555 1_555
N9_2 C49_2 1_555 1_555
H39_2 C49_2 1_555 1_555
C50_2 N9_2 1_555 1_555
H40_2 C50_2 1_555 1_555
H41 C50_2 1_555 1_555
C51_2 N9_2 1_555 1_555
H43_2 C51_2 1_555 1_555
H45 C51_2 1_555 1_555
N9_3 C49_3 1_555 1_555
H39_3 C49_3 1_555 1_555
C50_3 N9_3 1_555 1_555
H40_3 C50_3 1_555 1_555
H41_2 C50_3 1_555 1_555
H42_2 C50_3 1_555 1_555
C51_3 N9_3 1_555 1_555
H43_3 C51_3 1_555 1_555
H44_2 C51_3 1_555 1_555
H45_2 C51_3 1_555 1_555
N3_3 C15_3 1_555 1_555
H9_3 C15_3 1_555 1_555
C16_3 N3_3 1_555 1_555
H10_3 C16_3 1_555 1_555
H11_2 C16_3 1_555 1_555
H12_2 C16_3 1_555 1_555
C17_3 N3_3 1_555 1_555
H13_3 C17_3 1_555 1_555
H14_2 C17_3 1_555 1_555
H15_2 C17_3 1_555 1_555

#END
