
###############################################################################
#
# This file contains modified crystal structure data generated from the
# MOF subset of the Cambridge Structural Database (CSD) v543 
# hosted by the Cambridge Crystallographic Data Centre (CCDC).
#
# This work is licensed under the Creative Commons
# Attribution-NonCommercial-ShareAlike 4.0 International License.
# To view a copy of this license, visit
# http://creativecommons.org/licenses/by-nc-sa/4.0/
# or send a letter to
# Creative Commons, PO Box 1866, Mountain View, CA 94042, USA.
#
# CIF created using the CSD Python API on 29 September 2022
# The structure has been converted into the P1 space group
# The structure has a 3D framework
# The original CSD entry WODXEU is in the triclinic crystal system
# The framework has been calculated to contain at least 10.0% void space
# The void calculation uses a probe of radius 1.32A, grid spacing 0.4
# H atom positions have been added when not included in the experimental data
#
###############################################################################

data_WODXEU
_chemical_formula_moiety         '(C40 H32 La2 N6 O24 Zn2)n'
_symmetry_cell_setting           triclinic
_symmetry_space_group_name_H-M   'P 1'
_symmetry_Int_Tables_number      1
_space_group_name_Hall           'P 1'
loop_
_symmetry_equiv_pos_site_id
_symmetry_equiv_pos_as_xyz
1 x,y,z
_cell_length_a                   10.458(2)
_cell_length_b                   12.274(3)
_cell_length_c                   12.401(3)
_cell_angle_alpha                86.14(3)
_cell_angle_beta                 79.87(3)
_cell_angle_gamma                76.58(3)
_cell_volume                     1523.63
loop_
_atom_site_label
_atom_site_type_symbol
_atom_site_fract_x
_atom_site_fract_y
_atom_site_fract_z
O2 O 0.1864(3) 0.2608(2) 0.0468(2)
Zn2 Zn 0.18644(4) 0.35029(3) 0.19024(3)
N1 N 0.1718(3) 0.3940(2) 0.3587(2)
C1 C 0.0117(4) 0.4499(3) 0.8727(3)
O5 O 0.0398(4) 0.1579(3) 0.4480(2)
O7 O 0.1477(3) 0.1758(3) 0.6669(3)
C2 C 0.1279(3) 0.3819(3) 0.9005(3)
C4 C 0.1440(3) 0.2675(3) 0.9585(3)
C5 C 0.1270(4) 0.3213(3) 0.4340(3)
C6 C 0.0899(4) 0.2253(3) 0.3851(3)
C8 C 0.2073(4) 0.4814(3) 0.3929(3)
H2 H 0.2368 0.5323 0.3409
N3 N 0.0071(3) 0.5546(2) 0.8317(2)
C10 C 0.2419(4) 0.4249(3) 0.8795(3)
H3 H 0.3220 0.3817 0.8961
C11 C 0.1172(4) 0.5948(3) 0.8132(3)
H4 H 0.1126 0.6676 0.7854
C12 C 0.1170(4) 0.3344(3) 0.5455(3)
C15 C 0.2373(4) 0.5312(3) 0.8341(3)
H6 H 0.3140 0.5592 0.8180
C16 C 0.1584(5) 0.4245(4) 0.5787(3)
H7 H 0.1565 0.4341 0.6528
C17 C 0.2022(5) 0.4996(4) 0.5017(3)
H8 H 0.2278 0.5615 0.5230
C18 C 0.0664(4) 0.2569(3) 0.6341(3)
O10 O 0.1122(3) 0.2209(2) 0.2824(2)
O11 O 0.1262(3) 0.1848(2) 0.9143(2)
N4 N 0.3908(3) 0.2743(3) 0.1732(3)
O16 O 0.2215(2) 0.5053(2) 0.1272(2)
La2 La 0.04264(2) 0.874687(16) 0.170934(16)
O14 O 0.8655(3) 0.0988(2) 0.0244(2)
O3 O 0.0543(4) 0.9534(3) 0.3564(2)
O6 O 0.0532(3) 0.7192(3) 0.3240(3)
C3 C 0.1226(3) 0.5826(3) 0.1124(3)
O8 O 0.2906(3) 0.8189(3) 0.1892(3)
O13 O 0.1279(3) 0.6809(2) 0.0873(2)
H13 H 0.148365 0.953003 0.360566
H14 H 0.0189941 0.906061 0.41726
H15 H 0.324021 0.887406 0.194633
H16 H 0.342061 0.77687 0.123875
C7 C 0.6138(4) 0.2548(3) 0.0775(3)
H1 H 0.6734 0.2811 0.0230
C9 C 0.6567(4) 0.1600(3) 0.1394(3)
C13 C 0.7991(4) 0.0942(3) 0.1180(3)
C14 C 0.4814(4) 0.3099(3) 0.0973(3)
H5 H 0.4538 0.3747 0.0562
C19 C 0.5650(4) 0.1251(4) 0.2197(4)
H9 H 0.5914 0.0630 0.2645
C20 C 0.4346(4) 0.1824(4) 0.2331(4)
H10 H 0.3734 0.1565 0.2864
O12 O 0.8421(3) 0.0355(2) 0.1968(2)
O1 O 0.1345(3) 0.9012(2) 0.9756(2)
N2 N 0.6092(3) 0.7257(3) 0.8268(3)
C7_2 C 0.3862(4) 0.7452(3) 0.9225(3)
H1_2 H 0.3266 0.7189 0.9770
C9_2 C 0.3433(4) 0.8400(3) 0.8606(3)
C13_2 C 0.2009(4) 0.9058(3) 0.8820(3)
C14_2 C 0.5186(4) 0.6901(3) 0.9027(3)
H5_2 H 0.5462 0.6253 0.9438
C19_2 C 0.4350(4) 0.8749(4) 0.7803(4)
H9_2 H 0.4086 0.9370 0.7355
C20_2 C 0.5654(4) 0.8176(4) 0.7669(4)
H10_2 H 0.6266 0.8435 0.7136
O12_2 O 0.1579(3) 0.9645(2) 0.8032(2)
Zn4 Zn 0.81356(4) 0.64971(3) 0.80976(3)
La1 La 0.95736(2) 0.125313(16) 0.829066(16)
O3_2 O 0.9457(4) 0.0466(3) 0.6436(2)
O6_2 O 0.9468(3) 0.2808(3) 0.6760(3)
C3_2 C 0.8774(3) 0.4174(3) 0.8876(3)
O8_2 O 0.7094(3) 0.1811(3) 0.8108(3)
O9 O 0.7785(2) 0.4947(2) 0.8728(2)
O13_2 O 0.8721(3) 0.3191(2) 0.9127(2)
N5 N 0.9929(3) 0.4454(2) 0.1683(2)
H13_2 H 0.851635 0.0469968 0.639434
H14_2 H 0.981006 0.0939385 0.58274
H15_2 H 0.675979 0.112594 0.805367
H16_2 H 0.657939 0.22313 0.876125
N1_2 N 0.8282(3) 0.6060(2) 0.6413(2)
C1_2 C 0.9883(4) 0.5501(3) 0.1273(3)
O5_2 O 0.9602(4) 0.8421(3) 0.5520(2)
O7_2 O 0.8523(3) 0.8242(3) 0.3331(3)
C2_2 C 0.8721(3) 0.6181(3) 0.0995(3)
C4_2 C 0.8560(3) 0.7325(3) 0.0415(3)
C5_2 C 0.8730(4) 0.6787(3) 0.5660(3)
C6_2 C 0.9101(4) 0.7747(3) 0.6149(3)
C8_2 C 0.7927(4) 0.5186(3) 0.6071(3)
H2_2 H 0.7632 0.4677 0.6591
C10_2 C 0.7581(4) 0.5751(3) 0.1205(3)
H3_2 H 0.6780 0.6183 0.1039
C11_2 C 0.8828(4) 0.4052(3) 0.1868(3)
H4_2 H 0.8874 0.3324 0.2146
C12_2 C 0.8830(4) 0.6656(3) 0.4545(3)
C15_2 C 0.7627(4) 0.4688(3) 0.1659(3)
H6_2 H 0.6860 0.4408 0.1820
C16_2 C 0.8416(5) 0.5755(4) 0.4213(3)
H7_2 H 0.8435 0.5659 0.3472
C17_2 C 0.7978(5) 0.5004(4) 0.4983(3)
H8_2 H 0.7722 0.4385 0.4770
C18_2 C 0.9336(4) 0.7431(3) 0.3659(3)
O10_2 O 0.8878(3) 0.7791(2) 0.7176(2)
O11_2 O 0.8738(3) 0.8152(2) 0.0857(2)
O15 O 0.8136(3) 0.7392(2) 0.9532(2)
O4 O 0.8598(3) 0.9519(2) 0.8584(2)
H11 H 0.925865 0.887081 0.823237
H12 H 0.837952 0.935526 0.938163
O4_2 O 0.1402(3) 0.0481(2) 0.1416(2)
H11_2 H 0.0741349 0.112919 0.176763
H12_2 H 0.162048 0.0644739 0.0618368
loop_
_geom_bond_atom_site_label_1
_geom_bond_atom_site_label_2
_geom_bond_site_symmetry_1
_geom_bond_site_symmetry_2
Zn2 O2 1_555 1_555
Zn2 N1 1_555 1_555
N1 C5 1_555 1_555
C1 C2 1_555 1_555
O5 C6 1_555 1_555
C2 C4 1_555 1_555
C4 O11 1_555 1_555
C5 C6 1_555 1_555
C6 O10 1_555 1_555
C8 N1 1_555 1_555
H2 C8 1_555 1_555
N3 C1 1_555 1_555
C10 C2 1_555 1_555
H3 C10 1_555 1_555
C11 N3 1_555 1_555
H4 C11 1_555 1_555
C12 C5 1_555 1_555
C15 C10 1_555 1_555
H6 C15 1_555 1_555
C16 C12 1_555 1_555
H7 C16 1_555 1_555
C17 C8 1_555 1_555
H8 C17 1_555 1_555
O10 Zn2 1_555 1_555
N4 Zn2 1_555 1_555
O16 Zn2 1_555 1_555
O7 C18 1_555 1_555
C11 C15 1_555 1_555
C12 C18 1_555 1_555
C16 C17 1_555 1_555
La2 O3 1_555 1_555
O6 La2 1_555 1_555
O8 La2 1_555 1_555
O16 C3 1_555 1_555
O13 La2 1_555 1_555
C3 O13 1_555 1_555
O3 H13 1_555 1_555
O3 H14 1_555 1_555
O8 H15 1_555 1_555
O8 H16 1_555 1_555
O14 C13 1_555 1_555
N4 C14 1_555 1_555
C7 H1 1_555 1_555
C9 C7 1_555 1_555
C13 C9 1_555 1_555
C14 C7 1_555 1_555
H5 C14 1_555 1_555
C19 C9 1_555 1_555
H9 C19 1_555 1_555
C20 N4 1_555 1_555
H10 C20 1_555 1_555
C13 O12 1_555 1_555
C19 C20 1_555 1_555
O1 C13_2 1_555 1_555
N2 C14_2 1_555 1_555
C7_2 H1_2 1_555 1_555
C9_2 C7_2 1_555 1_555
C13_2 C9_2 1_555 1_555
C14_2 C7_2 1_555 1_555
H5_2 C14_2 1_555 1_555
C19_2 C9_2 1_555 1_555
H9_2 C19_2 1_555 1_555
C20_2 N2 1_555 1_555
H10_2 C20_2 1_555 1_555
Zn4 N2 1_555 1_555
C13_2 O12_2 1_555 1_555
C19_2 C20_2 1_555 1_555
La1 O3_2 1_555 1_555
O6_2 La1 1_555 1_555
O8_2 La1 1_555 1_555
O9 C3_2 1_555 1_555
O13_2 La1 1_555 1_555
C3_2 O13_2 1_555 1_555
O9 Zn4 1_555 1_555
O3_2 H13_2 1_555 1_555
O3_2 H14_2 1_555 1_555
O8_2 H15_2 1_555 1_555
O8_2 H16_2 1_555 1_555
Zn4 N1_2 1_555 1_555
N1_2 C5_2 1_555 1_555
C1_2 C2_2 1_555 1_555
O5_2 C6_2 1_555 1_555
C2_2 C4_2 1_555 1_555
C4_2 O11_2 1_555 1_555
C5_2 C6_2 1_555 1_555
C6_2 O10_2 1_555 1_555
C8_2 N1_2 1_555 1_555
H2_2 C8_2 1_555 1_555
N5 C1_2 1_555 1_555
C10_2 C2_2 1_555 1_555
H3_2 C10_2 1_555 1_555
C11_2 N5 1_555 1_555
H4_2 C11_2 1_555 1_555
C12_2 C5_2 1_555 1_555
C15_2 C10_2 1_555 1_555
H6_2 C15_2 1_555 1_555
C16_2 C12_2 1_555 1_555
H7_2 C16_2 1_555 1_555
C17_2 C8_2 1_555 1_555
H8_2 C17_2 1_555 1_555
O10_2 Zn4 1_555 1_555
O15 Zn4 1_555 1_555
O7_2 C18_2 1_555 1_555
C11_2 C15_2 1_555 1_555
C12_2 C18_2 1_555 1_555
C16_2 C17_2 1_555 1_555
O4 H11 1_555 1_555
O4 H12 1_555 1_555
O4_2 H11_2 1_555 1_555
O4_2 H12_2 1_555 1_555

#END
