
###############################################################################
#
# This file contains modified crystal structure data generated from the
# MOF subset of the Cambridge Structural Database (CSD) v543 
# hosted by the Cambridge Crystallographic Data Centre (CCDC).
#
# This work is licensed under the Creative Commons
# Attribution-NonCommercial-ShareAlike 4.0 International License.
# To view a copy of this license, visit
# http://creativecommons.org/licenses/by-nc-sa/4.0/
# or send a letter to
# Creative Commons, PO Box 1866, Mountain View, CA 94042, USA.
#
# CIF created using the CSD Python API on 29 September 2022
# The structure has been converted into the P1 space group
# The structure has a 3D framework
# The original CSD entry WODXAQ is in the triclinic crystal system
# The framework has been calculated to contain at least 10.0% void space
# The void calculation uses a probe of radius 1.32A, grid spacing 0.4
# H atom positions have been added when not included in the experimental data
#
###############################################################################

data_WODXAQ
_chemical_formula_moiety         '(C40 H28 Eu2 N6 O22 Zn2)n'
_symmetry_cell_setting           triclinic
_symmetry_space_group_name_H-M   'P 1'
_symmetry_Int_Tables_number      1
_space_group_name_Hall           'P 1'
loop_
_symmetry_equiv_pos_site_id
_symmetry_equiv_pos_as_xyz
1 x,y,z
_cell_length_a                   10.590(2)
_cell_length_b                   11.333(2)
_cell_length_c                   12.464(3)
_cell_angle_alpha                86.46(3)
_cell_angle_beta                 82.19(3)
_cell_angle_gamma                89.17(3)
_cell_volume                     1479.15
loop_
_atom_site_label
_atom_site_type_symbol
_atom_site_fract_x
_atom_site_fract_y
_atom_site_fract_z
N3 N 0.0396(4) 0.0660(4) 0.1640(3)
H2 H 0.2187 0.0624 0.4200
H3 H 0.2030 0.0410 0.6083
C18 C 0.2631(6) 0.0400(5) 0.1162(5)
H9 H 0.3452 0.0699 0.1111
C19 C 0.1597(6) 0.1061(5) 0.1582(5)
H10 H 0.1732 0.1799 0.1831
O15 O 0.2012(4) 0.0024(3) 0.8262(3)
Eu1 Eu 0.07151(3) 0.51475(2) 0.23896(2)
Zn1 Zn 0.13215(6) 0.83727(5) 0.79891(5)
O2 O 0.0346(4) 0.5900(3) 0.5936(3)
O4 O 0.0538(4) 0.6838(3) 0.7400(3)
O5 O 0.0862(4) 0.4242(4) 0.0673(3)
O6 O 0.2247(4) 0.3588(3) 0.2836(3)
O7 O 0.3028(4) 0.5018(3) 0.1667(3)
O10 O 0.1066(4) 0.6806(3) 0.1238(3)
N1 N 0.1469(5) 0.8759(4) 0.6238(4)
N2 N 0.6865(4) 0.2435(4) 0.2050(4)
C1 C 0.0669(5) 0.6783(5) 0.6373(4)
C2 C 0.1170(5) 0.7847(5) 0.5689(4)
C3 C 0.1296(6) 0.7890(5) 0.4562(5)
C4 C 0.1688(9) 0.8959(6) 0.4008(5)
H1 H 0.1775 0.9025 0.3254
C5 C 0.1945(9) 0.9906(6) 0.4565(6)
C6 C 0.1838(7) 0.9774(5) 0.5698(5)
C7 C 0.5834(6) 0.1944(6) 0.2661(6)
H4 H 0.5936 0.1229 0.3047
C8 C 0.4649(6) 0.2447(6) 0.2740(6)
H5 H 0.3968 0.2081 0.3180
C9 C 0.4465(5) 0.3497(5) 0.2165(5)
C10 C 0.5509(6) 0.4001(5) 0.1521(6)
H6 H 0.5420 0.4705 0.1112
C11 C 0.6674(6) 0.3456(6) 0.1489(5)
H7 H 0.7368 0.3811 0.1057
C12 C 0.3175(5) 0.4070(5) 0.2224(5)
C14 C 0.0205(5) 0.9582(4) 0.1306(4)
C15 C 0.1210(5) 0.8862(4) 0.0891(4)
C16 C 0.0998(5) 0.7637(5) 0.0542(4)
C17 C 0.2436(5) 0.9294(5) 0.0821(5)
H8 H 0.3127 0.8838 0.0542
C20 C 0.1028(6) 0.6869(5) 0.3907(4)
O12 O 0.1928(4) 0.6168(4) 0.3618(3)
Zn4 Zn 0.86785(6) 0.16273(5) 0.20109(5)
O16 O 0.0839(4) 0.7510(3) 0.9576(3)
N4 N 0.3135(4) 0.7565(4) 0.7950(4)
H11 H 0.130023 0.478765 0.00905874
H12 H 0.135403 0.349158 0.071187
O1 O 0.9960(4) 0.6796(4) 0.3590(3)
O3 O 0.8569(4) 0.5697(4) 0.2042(4)
O8 O 0.7988(4) 0.9976(3) 0.1738(3)
O9 O 0.8580(4) 0.8188(3) 0.1212(4)
C13 C 0.8812(5) 0.9213(5) 0.1421(4)
Eu2 Eu 0.92849(3) 0.48525(2) 0.76104(2)
O13 O 0.9654(4) 0.4100(3) 0.4064(3)
O14 O 0.9462(4) 0.3162(3) 0.2600(3)
N5 N 0.9604(4) 0.9340(4) 0.8360(3)
H13 H 0.855466 0.654091 0.177689
H14 H 0.831003 0.519588 0.148428
O1_2 O 0.0040(4) 0.3204(4) 0.6410(3)
O3_2 O 0.1431(4) 0.4303(4) 0.7958(4)
O9_2 O 0.1420(4) 0.1812(3) 0.8788(4)
C13_2 C 0.1188(5) 0.0787(5) 0.8579(4)
H13_2 H 0.144534 0.345909 0.822311
H14_2 H 0.168997 0.480412 0.851572
O11 O 0.9161(4) 0.2490(3) 0.0424(3)
O5_2 O 0.9138(4) 0.5758(4) 0.9327(3)
O6_2 O 0.7753(4) 0.6412(3) 0.7164(3)
O7_2 O 0.6972(4) 0.4982(3) 0.8333(3)
O10_2 O 0.8934(4) 0.3194(3) 0.8762(3)
N1_2 N 0.8531(5) 0.1241(4) 0.3762(4)
C1_2 C 0.9331(5) 0.3217(5) 0.3627(4)
C2_2 C 0.8830(5) 0.2153(5) 0.4311(4)
C3_2 C 0.8704(6) 0.2110(5) 0.5438(5)
C4_2 C 0.8312(9) 0.1041(6) 0.5992(5)
H1_2 H 0.8225 0.0975 0.6746
C5_2 C 0.8055(9) 0.0094(6) 0.5435(6)
C6_2 C 0.8162(7) 0.0226(5) 0.4302(5)
C7_2 C 0.4166(6) 0.8056(6) 0.7339(6)
H4_2 H 0.4064 0.8771 0.6953
C8_2 C 0.5351(6) 0.7553(6) 0.7260(6)
H5_2 H 0.6032 0.7919 0.6820
C9_2 C 0.5535(5) 0.6503(5) 0.7835(5)
C10_2 C 0.4491(6) 0.5999(5) 0.8479(6)
H6_2 H 0.4580 0.5295 0.8888
C11_2 C 0.3326(6) 0.6544(6) 0.8511(5)
H7_2 H 0.2632 0.6189 0.8943
C12_2 C 0.6825(5) 0.5930(5) 0.7776(5)
C14_2 C 0.9795(5) 0.0418(4) 0.8694(4)
C15_2 C 0.8790(5) 0.1138(4) 0.9109(4)
C16_2 C 0.9002(5) 0.2363(5) 0.9458(4)
C17_2 C 0.7564(5) 0.0706(5) 0.9179(5)
H8_2 H 0.6873 0.1162 0.9458
C20_2 C 0.8972(6) 0.3131(5) 0.6093(4)
O12_2 O 0.8072(4) 0.3832(4) 0.6382(3)
H11_2 H 0.869977 0.521235 0.990941
H12_2 H 0.864597 0.650842 0.928813
H2_2 H 0.7813 0.9376 0.5800
H3_2 H 0.7970 0.9590 0.3917
C18_2 C 0.7369(6) 0.9600(5) 0.8838(5)
H9_2 H 0.6548 0.9301 0.8889
C19_2 C 0.8403(6) 0.8939(5) 0.8418(5)
H10_2 H 0.8268 0.8201 0.8169
loop_
_geom_bond_atom_site_label_1
_geom_bond_atom_site_label_2
_geom_bond_site_symmetry_1
_geom_bond_site_symmetry_2
H9 C18 1_555 1_555
C19 N3 1_555 1_555
H10 C19 1_555 1_555
C18 C19 1_555 1_555
Zn1 O4 1_555 1_555
O2 C1 1_555 1_555
O4 C1 1_555 1_555
O5 Eu1 1_555 1_555
O6 Eu1 1_555 1_555
O7 Eu1 1_555 1_555
O10 Eu1 1_555 1_555
N1 Zn1 1_555 1_555
N2 C7 1_555 1_555
C1 C2 1_555 1_555
C2 N1 1_555 1_555
C3 C2 1_555 1_555
C4 C3 1_555 1_555
H1 C4 1_555 1_555
C5 C4 1_555 1_555
C6 N1 1_555 1_555
C7 H4 1_555 1_555
C8 C7 1_555 1_555
H5 C8 1_555 1_555
C9 C8 1_555 1_555
C10 C9 1_555 1_555
H6 C10 1_555 1_555
C11 N2 1_555 1_555
H7 C11 1_555 1_555
C12 O6 1_555 1_555
C14 C15 1_555 1_555
C15 C16 1_555 1_555
C16 O10 1_555 1_555
C17 C15 1_555 1_555
H8 C17 1_555 1_555
C20 C3 1_555 1_555
O12 Eu1 1_555 1_555
Zn4 N2 1_555 1_555
O16 Zn1 1_555 1_555
N4 Zn1 1_555 1_555
O7 C12 1_555 1_555
C5 C6 1_555 1_555
C9 C12 1_555 1_555
C10 C11 1_555 1_555
C20 O12 1_555 1_555
O5 H11 1_555 1_555
O5 H12 1_555 1_555
O8 C13 1_555 1_555
O9 C13 1_555 1_555
O3 H13 1_555 1_555
O3 H14 1_555 1_555
O15 C13_2 1_555 1_555
O9_2 C13_2 1_555 1_555
O3_2 H13_2 1_555 1_555
O3_2 H14_2 1_555 1_555
Zn4 O11 1_555 1_555
Zn4 O14 1_555 1_555
O13 C1_2 1_555 1_555
O14 C1_2 1_555 1_555
O5_2 Eu2 1_555 1_555
O6_2 Eu2 1_555 1_555
O7_2 Eu2 1_555 1_555
O10_2 Eu2 1_555 1_555
N1_2 Zn4 1_555 1_555
N4 C7_2 1_555 1_555
C1_2 C2_2 1_555 1_555
C2_2 N1_2 1_555 1_555
C3_2 C2_2 1_555 1_555
C4_2 C3_2 1_555 1_555
H1_2 C4_2 1_555 1_555
C5_2 C4_2 1_555 1_555
C6_2 N1_2 1_555 1_555
C7_2 H4_2 1_555 1_555
C8_2 C7_2 1_555 1_555
H5_2 C8_2 1_555 1_555
C9_2 C8_2 1_555 1_555
C10_2 C9_2 1_555 1_555
H6_2 C10_2 1_555 1_555
C11_2 N4 1_555 1_555
H7_2 C11_2 1_555 1_555
C12_2 O6_2 1_555 1_555
C14_2 C15_2 1_555 1_555
C15_2 C16_2 1_555 1_555
C16_2 O10_2 1_555 1_555
C17_2 C15_2 1_555 1_555
H8_2 C17_2 1_555 1_555
C20_2 C3_2 1_555 1_555
O12_2 Eu2 1_555 1_555
O7_2 C12_2 1_555 1_555
C5_2 C6_2 1_555 1_555
C9_2 C12_2 1_555 1_555
C10_2 C11_2 1_555 1_555
C20_2 O12_2 1_555 1_555
O5_2 H11_2 1_555 1_555
O5_2 H12_2 1_555 1_555
H9_2 C18_2 1_555 1_555
C19_2 N5 1_555 1_555
H10_2 C19_2 1_555 1_555
C18_2 C19_2 1_555 1_555

#END
