
###############################################################################
#
# This file contains modified crystal structure data generated from the
# MOF subset of the Cambridge Structural Database (CSD) v543 
# hosted by the Cambridge Crystallographic Data Centre (CCDC).
#
# This work is licensed under the Creative Commons
# Attribution-NonCommercial-ShareAlike 4.0 International License.
# To view a copy of this license, visit
# http://creativecommons.org/licenses/by-nc-sa/4.0/
# or send a letter to
# Creative Commons, PO Box 1866, Mountain View, CA 94042, USA.
#
# CIF created using the CSD Python API on 29 September 2022
# The structure has been converted into the P1 space group
# The structure has a 3D framework
# The original CSD entry WODZEX is in the monoclinic crystal system
# The framework has been calculated to contain at least 10.0% void space
# The void calculation uses a probe of radius 1.32A, grid spacing 0.4
# The framework is charged, counterions have been retained in the structure
#
###############################################################################

data_WODZEX
_chemical_formula_moiety         '(C144 H152 Fe13 N24 O88 8-)n'
_symmetry_cell_setting           triclinic
_symmetry_space_group_name_H-M   'P 1'
_symmetry_Int_Tables_number      1
_space_group_name_Hall           'P 1'
loop_
_symmetry_equiv_pos_site_id
_symmetry_equiv_pos_as_xyz
1 x,y,z
_cell_length_a                   29.03(2)
_cell_length_b                   18.120(11)
_cell_length_c                   14.060(10)
_cell_angle_alpha                90
_cell_angle_beta                 113.699(14)
_cell_angle_gamma                90
_cell_volume                     6772.19
loop_
_atom_site_label
_atom_site_type_symbol
_atom_site_fract_x
_atom_site_fract_y
_atom_site_fract_z
Fe7 Fe 0.31967(3) 0.03979(4) 0.64508(7)
Fe8 Fe 0.23653(3) 0.00326(4) 0.24493(7)
Fe1 Fe 0.18033(3) 0.46021(4) 0.35492(7)
Fe2 Fe 0.26347(3) 0.50326(4) 0.25507(7)
O1 O 0.26595(17) 0.5943(2) 0.3468(4)
O2 O 0.20929(15) 0.5641(2) 0.4124(3)
C1 C 0.2461(2) 0.6800(3) 0.4532(5)
C2 C 0.2603(2) 0.7413(3) 0.4122(5)
H1 H 0.267825 0.735496 0.354206
C3 C 0.2414(2) 0.6071(3) 0.4022(5)
C4 C 0.2363(2) 0.6875(3) 0.5434(4)
O3 O 0.17992(16) 0.4931(2) 0.2027(3)
O4 O 0.19708(18) 0.5670(2) 0.0103(4)
O5 O 0.34359(16) 0.4895(2) 0.3242(4)
H2 H 0.355410 0.489556 0.277340
H3 H 0.350483 0.448183 0.356429
O8 O 0.17767(16) 0.6162(2) 0.5825(4)
O9 O 0.25946(16) 0.5864(2) 0.6587(3)
C6 C 0.2233(2) 0.6240(3) 0.5986(5)
N1 N 0.1053(2) 0.5613(3) 0.3949(4)
H4 H 0.130684 0.577487 0.447539
N2 N 0.1081(2) 0.5090(3) 0.3274(5)
C7 C 0.0270(2) 0.5458(4) 0.2760(6)
C8 C 0.0573(2) 0.5844(4) 0.3683(6)
C9 C 0.0607(3) 0.4992(4) 0.2545(6)
C10 C 0.0484(3) 0.4485(5) 0.1641(7)
H5 H 0.078237 0.439149 0.152242
H6 H 0.023411 0.470904 0.103446
H7 H 0.035718 0.402825 0.178411
C11 C 0.0440(3) 0.6447(5) 0.4214(7)
H8 H 0.056159 0.633828 0.494204
H9 H 0.008102 0.650180 0.393234
H10 H 0.059031 0.689643 0.411567
O10 O 0.15257(18) 0.3567(2) 0.2959(4)
N3 N 0.1296(3) 0.2368(3) 0.2757(6)
C12 C 0.1400(3) 0.3029(4) 0.3244(7)
H11 H 0.136693 0.305795 0.387473
C13 C 0.1157(5) 0.1741(6) 0.3216(12)
H12 H 0.131184 0.130398 0.309105
H13 H 0.079842 0.168387 0.291208
H14 H 0.126989 0.181668 0.395084
C14 C 0.1357(4) 0.2245(7) 0.1826(9)
H15 H 0.103909 0.211390 0.128582
H16 H 0.159272 0.185021 0.192401
H17 H 0.148151 0.268569 0.163258
O11 O 0.26817(18) 0.5815(2) 0.1503(4)
C15 C 0.2438(2) 0.6774(3) 0.0284(5)
C17 C 0.2361(3) 0.6018(3) 0.0641(5)
C18 C 0.2286(2) 0.7361(3) 0.0684(5)
H18 H 0.212956 0.727025 0.113423
H19 H 0.1561(16) 0.525(3) 0.165(4)
O12 O 0.23405(17) 0.9057(2) 0.6532(4)
O13 O 0.29071(15) 0.9359(2) 0.5876(3)
C19 C 0.2539(2) 0.8200(3) 0.5468(5)
C20 C 0.2397(2) 0.7587(3) 0.5878(5)
H20 H 0.232175 0.764504 0.645794
C21 C 0.2586(2) 0.8929(3) 0.5978(5)
C22 C 0.2637(2) 0.8125(3) 0.4566(4)
O14 O 0.32233(16) 0.8838(2) 0.4175(4)
O15 O 0.24054(16) 0.9136(2) 0.3413(3)
C23 C 0.2767(2) 0.8760(3) 0.4014(5)
C30 C 0.2351(2) 0.8099(3) 0.0455(5)
O17 O 0.24330(15) 0.9277(2) 0.1277(3)
O18 O 0.17410(18) 0.8618(2) 0.0980(5)
C33 C 0.2152(2) 0.8699(3) 0.0899(5)
Fe5 Fe 0.31967(3) 0.96021(4) 0.14508(7)
Fe10 Fe 0.26347(3) 0.49674(4) 0.75507(7)
Fe12 Fe 0.23653(3) 0.99674(4) 0.74493(7)
O26 O 0.19708(18) 0.4330(2) 0.5103(4)
O28 O 0.25670(15) 0.4277(2) 0.3723(3)
O30 O 0.25946(16) 0.4136(2) 0.1587(3)
O6 O 0.25670(15) 0.5723(2) 0.8723(3)
O7 O 0.32590(18) 0.6382(2) 0.9020(5)
C5 C 0.2848(2) 0.6301(3) 0.9101(5)
C16 C 0.2649(2) 0.6901(3) 0.9545(5)
O16 O 0.23183(18) 0.9185(2) 0.8497(4)
C29 C 0.2562(2) 0.8226(3) 0.9716(5)
C31 C 0.2639(3) 0.8982(3) 0.9359(5)
C32 C 0.2714(2) 0.7639(3) 0.9316(5)
H28 H 0.287044 0.772975 0.886577
O19 O 0.30292(18) 0.9330(2) 0.9897(4)
Fe6 Fe 0.18033(3) 0.53979(4) 0.85492(7)
N4 N 0.8947(2) 0.5613(3) 0.1051(4)
H21 H 0.869316 0.577487 0.052461
N5 N 0.8919(2) 0.5090(3) 0.1726(5)
C24 C 0.9730(2) 0.5458(4) 0.2240(6)
C25 C 0.9427(2) 0.5844(4) 0.1317(6)
C26 C 0.9393(3) 0.4992(4) 0.2455(6)
C27 C 0.9516(3) 0.4485(5) 0.3359(7)
H22 H 0.921763 0.439149 0.347758
H23 H 0.976589 0.470904 0.396554
H24 H 0.964282 0.402825 0.321589
C28 C 0.9560(3) 0.6447(5) 0.0786(7)
H25 H 0.943841 0.633828 0.005796
H26 H 0.991898 0.650180 0.106766
H27 H 0.940969 0.689643 0.088433
Fe3 Fe 0.81967(3) 0.46021(4) 0.14508(7)
Fe4 Fe 0.73653(3) 0.50326(4) 0.24493(7)
O20 O 0.82008(16) 0.4931(2) 0.2973(3)
O21 O 0.65641(16) 0.4895(2) 0.1758(4)
H29 H 0.644590 0.489556 0.222660
H30 H 0.649517 0.448183 0.143571
O22 O 0.84743(18) 0.3567(2) 0.2041(4)
N6 N 0.8704(3) 0.2368(3) 0.2243(6)
C34 C 0.8600(3) 0.3029(4) 0.1756(7)
H31 H 0.863307 0.305795 0.112527
C35 C 0.8843(5) 0.1741(6) 0.1784(12)
H32 H 0.868816 0.130398 0.190895
H33 H 0.920158 0.168387 0.208792
H34 H 0.873011 0.181668 0.104916
C36 C 0.8643(4) 0.2245(7) 0.3174(9)
H35 H 0.896091 0.211390 0.371418
H36 H 0.840728 0.185021 0.307599
H37 H 0.851849 0.268569 0.336742
H38 H 0.8439(16) 0.525(3) 0.335(4)
O23 O 0.73405(17) 0.5943(2) 0.1532(4)
O24 O 0.79071(15) 0.5641(2) 0.0876(3)
O27 O 0.74330(15) 0.4277(2) 0.1277(3)
O29 O 0.74054(16) 0.4136(2) 0.3413(3)
O31 O 0.73183(18) 0.5815(2) 0.3497(4)
O25 O 0.80292(18) 0.4330(2) 0.9897(4)
Fe8_2 Fe 0.76347(3) 0.00326(4) 0.25507(7)
Fe7_2 Fe 0.68033(3) 0.03979(4) 0.85492(7)
C1_2 C 0.7539(2) 0.6800(3) 0.0468(5)
C2_2 C 0.7397(2) 0.7413(3) 0.0878(5)
H1_2 H 0.732175 0.735496 0.145794
C3_2 C 0.7586(2) 0.6071(3) 0.0978(5)
O4_2 O 0.80292(18) 0.5670(2) 0.4897(4)
O6_2 O 0.74330(15) 0.5723(2) 0.6277(3)
O7_2 O 0.67410(18) 0.6382(2) 0.5980(5)
C5_2 C 0.7152(2) 0.6301(3) 0.5899(5)
C15_2 C 0.7562(2) 0.6774(3) 0.4716(5)
C16_2 C 0.7351(2) 0.6901(3) 0.5455(5)
C17_2 C 0.7639(3) 0.6018(3) 0.4359(5)
C18_2 C 0.7714(2) 0.7361(3) 0.4316(5)
H18_2 H 0.787044 0.727025 0.386577
C22_2 C 0.7363(2) 0.8125(3) 0.0434(4)
O14_2 O 0.67767(16) 0.8838(2) 0.0825(4)
O15_2 O 0.75946(16) 0.9136(2) 0.1587(3)
C23_2 C 0.7233(2) 0.8760(3) 0.0986(5)
O16_2 O 0.76817(18) 0.9185(2) 0.6503(4)
C29_2 C 0.7438(2) 0.8226(3) 0.5284(5)
C30_2 C 0.7649(2) 0.8099(3) 0.4545(5)
C31_2 C 0.7361(3) 0.8982(3) 0.5641(5)
C32_2 C 0.7286(2) 0.7639(3) 0.5684(5)
H28_2 H 0.712956 0.772975 0.613423
O17_2 O 0.75670(15) 0.9277(2) 0.3723(3)
O18_2 O 0.82590(18) 0.8618(2) 0.4020(5)
C33_2 C 0.7848(2) 0.8699(3) 0.4101(5)
O19_2 O 0.69708(18) 0.9330(2) 0.5103(4)
Fe5_2 Fe 0.68033(3) 0.96021(4) 0.35492(7)
Fe6_2 Fe 0.81967(3) 0.53979(4) 0.64508(7)
Fe9 Fe 0.73653(3) 0.49674(4) 0.74493(7)
Fe11 Fe 0.76347(3) 0.99674(4) 0.75507(7)
C4_2 C 0.7637(2) 0.6875(3) 0.9566(4)
O8_2 O 0.82233(16) 0.6162(2) 0.9175(4)
O9_2 O 0.74054(16) 0.5864(2) 0.8413(3)
C6_2 C 0.7767(2) 0.6240(3) 0.9014(5)
O12_2 O 0.76595(17) 0.9057(2) 0.8468(4)
O13_2 O 0.70929(15) 0.9359(2) 0.9124(3)
C19_2 C 0.7461(2) 0.8200(3) 0.9532(5)
C20_2 C 0.7603(2) 0.7587(3) 0.9122(5)
H20_2 H 0.767825 0.764504 0.854206
C21_2 C 0.7414(2) 0.8929(3) 0.9022(5)
O1_2 O 0.76595(17) 0.0943(2) 0.3468(4)
O2_2 O 0.70929(15) 0.0641(2) 0.4124(3)
C1_3 C 0.7461(2) 0.1800(3) 0.4532(5)
C2_3 C 0.7603(2) 0.2413(3) 0.4122(5)
H1_3 H 0.767825 0.235496 0.354206
C3_3 C 0.7414(2) 0.1071(3) 0.4022(5)
C4_3 C 0.7363(2) 0.1875(3) 0.5434(4)
O4_3 O 0.69708(18) 0.0670(2) 0.0103(4)
O8_3 O 0.67767(16) 0.1162(2) 0.5825(4)
O9_3 O 0.75946(16) 0.0864(2) 0.6587(3)
C6_3 C 0.7233(2) 0.1240(3) 0.5986(5)
N1_2 N 0.6053(2) 0.0613(3) 0.3949(4)
H4_2 H 0.630684 0.077487 0.447539
N2_2 N 0.6081(2) 0.0090(3) 0.3274(5)
C7_2 C 0.5270(2) 0.0458(4) 0.2760(6)
C8_2 C 0.5573(2) 0.0844(4) 0.3683(6)
C11_2 C 0.5440(3) 0.1447(5) 0.4214(7)
H8_2 H 0.556159 0.133828 0.494204
H9_2 H 0.508102 0.150180 0.393234
H10_2 H 0.559031 0.189643 0.411567
O11_2 O 0.76817(18) 0.0815(2) 0.1503(4)
C15_3 C 0.7438(2) 0.1774(3) 0.0284(5)
C17_3 C 0.7361(3) 0.1018(3) 0.0641(5)
C18_3 C 0.7286(2) 0.2361(3) 0.0684(5)
H18_3 H 0.712956 0.227025 0.113423
H19_2 H 0.6561(16) 0.025(3) 0.165(4)
O12_3 O 0.73405(17) 0.4057(2) 0.6532(4)
O13_3 O 0.79071(15) 0.4359(2) 0.5876(3)
C19_3 C 0.7539(2) 0.3200(3) 0.5468(5)
C20_3 C 0.7397(2) 0.2587(3) 0.5878(5)
H20_3 H 0.732175 0.264504 0.645794
C21_3 C 0.7586(2) 0.3929(3) 0.5978(5)
C22_3 C 0.7637(2) 0.3125(3) 0.4566(4)
O14_3 O 0.82233(16) 0.3838(2) 0.4175(4)
C23_3 C 0.7767(2) 0.3760(3) 0.4014(5)
N4_2 N 0.3947(2) 0.0613(3) 0.1051(4)
H21_2 H 0.369316 0.077487 0.052461
N5_2 N 0.3919(2) 0.0090(3) 0.1726(5)
C24_2 C 0.4730(2) 0.0458(4) 0.2240(6)
C25_2 C 0.4427(2) 0.0844(4) 0.1317(6)
C28_2 C 0.4560(3) 0.1447(5) 0.0786(7)
H25_2 H 0.443841 0.133828 0.005796
H26_2 H 0.491898 0.150180 0.106766
H27_2 H 0.440969 0.189643 0.088433
C30_3 C 0.7351(2) 0.3099(3) 0.0455(5)
O18_3 O 0.67410(18) 0.3618(2) 0.0980(5)
C33_3 C 0.7152(2) 0.3699(3) 0.0899(5)
H38_2 H 0.3439(16) 0.025(3) 0.335(4)
O23_2 O 0.23405(17) 0.0943(2) 0.1532(4)
O24_2 O 0.29071(15) 0.0641(2) 0.0876(3)
O31_2 O 0.23183(18) 0.0815(2) 0.3497(4)
O6_3 O 0.75670(15) 0.0723(2) 0.8723(3)
O7_3 O 0.82590(18) 0.1382(2) 0.9020(5)
C5_3 C 0.7848(2) 0.1301(3) 0.9101(5)
C16_3 C 0.7649(2) 0.1901(3) 0.9545(5)
O16_3 O 0.73183(18) 0.4185(2) 0.8497(4)
C29_3 C 0.7562(2) 0.3226(3) 0.9716(5)
C31_3 C 0.7639(3) 0.3982(3) 0.9359(5)
C32_3 C 0.7714(2) 0.2639(3) 0.9316(5)
H28_3 H 0.787044 0.272975 0.886577
O3_2 O 0.67992(16) 0.9931(2) 0.2027(3)
O5_2 O 0.84359(16) 0.9895(2) 0.3242(4)
H2_2 H 0.855410 0.989556 0.277340
H3_2 H 0.850483 0.948183 0.356429
C9_2 C 0.5607(3) 0.9992(4) 0.2545(6)
C10_2 C 0.5484(3) 0.9485(5) 0.1641(7)
H5_2 H 0.578237 0.939149 0.152242
H6_2 H 0.523411 0.970904 0.103446
H7_2 H 0.535718 0.902825 0.178411
O10_2 O 0.65257(18) 0.8567(2) 0.2959(4)
N3_2 N 0.6296(3) 0.7368(3) 0.2757(6)
C12_2 C 0.6400(3) 0.8029(4) 0.3244(7)
H11_2 H 0.636693 0.805795 0.387473
C13_2 C 0.6157(5) 0.6741(6) 0.3216(12)
H12_2 H 0.631184 0.630398 0.309105
H13_2 H 0.579842 0.668387 0.291208
H14_2 H 0.626989 0.681668 0.395084
C14_2 C 0.6357(4) 0.7245(7) 0.1826(9)
H15_2 H 0.603909 0.711390 0.128582
H16_2 H 0.659272 0.685021 0.192401
H17_2 H 0.648151 0.768569 0.163258
C26_2 C 0.4393(3) 0.9992(4) 0.2455(6)
C27_2 C 0.4516(3) 0.9485(5) 0.3359(7)
H22_2 H 0.421763 0.939149 0.347758
H23_2 H 0.476589 0.970904 0.396554
H24_2 H 0.464282 0.902825 0.321589
O20_2 O 0.32008(16) 0.9931(2) 0.2973(3)
O21_2 O 0.15641(16) 0.9895(2) 0.1758(4)
H29_2 H 0.144590 0.989556 0.222660
H30_2 H 0.149517 0.948183 0.143571
O22_2 O 0.34743(18) 0.8567(2) 0.2041(4)
N6_2 N 0.3704(3) 0.7368(3) 0.2243(6)
C34_2 C 0.3600(3) 0.8029(4) 0.1756(7)
H31_2 H 0.363307 0.805795 0.112527
C35_2 C 0.3843(5) 0.6741(6) 0.1784(12)
H32_2 H 0.368816 0.630398 0.190895
H33_2 H 0.420158 0.668387 0.208792
H34_2 H 0.373011 0.681668 0.104916
C36_2 C 0.3643(4) 0.7245(7) 0.3174(9)
H35_2 H 0.396091 0.711390 0.371418
H36_2 H 0.340728 0.685021 0.307599
H37_2 H 0.351849 0.768569 0.336742
C1_4 C 0.2539(2) 0.1800(3) 0.0468(5)
C2_4 C 0.2397(2) 0.2413(3) 0.0878(5)
H1_4 H 0.232175 0.235496 0.145794
C3_4 C 0.2586(2) 0.1071(3) 0.0978(5)
O4_4 O 0.30292(18) 0.0670(2) 0.4897(4)
O6_4 O 0.24330(15) 0.0723(2) 0.6277(3)
O7_4 O 0.17410(18) 0.1382(2) 0.5980(5)
C5_4 C 0.2152(2) 0.1301(3) 0.5899(5)
C15_4 C 0.2562(2) 0.1774(3) 0.4716(5)
C16_4 C 0.2351(2) 0.1901(3) 0.5455(5)
C17_4 C 0.2639(3) 0.1018(3) 0.4359(5)
C18_4 C 0.2714(2) 0.2361(3) 0.4316(5)
H18_4 H 0.287044 0.227025 0.386577
C22_4 C 0.2363(2) 0.3125(3) 0.0434(4)
O14_4 O 0.17767(16) 0.3838(2) 0.0825(4)
C23_4 C 0.2233(2) 0.3760(3) 0.0986(5)
O16_4 O 0.26817(18) 0.4185(2) 0.6503(4)
C29_4 C 0.2438(2) 0.3226(3) 0.5284(5)
C30_4 C 0.2649(2) 0.3099(3) 0.4545(5)
C31_4 C 0.2361(3) 0.3982(3) 0.5641(5)
C32_4 C 0.2286(2) 0.2639(3) 0.5684(5)
H28_4 H 0.212956 0.272975 0.613423
O18_4 O 0.32590(18) 0.3618(2) 0.4020(5)
C33_4 C 0.2848(2) 0.3699(3) 0.4101(5)
C4_4 C 0.2637(2) 0.1875(3) 0.9566(4)
O8_4 O 0.32233(16) 0.1162(2) 0.9175(4)
O9_4 O 0.24054(16) 0.0864(2) 0.8413(3)
C6_4 C 0.2767(2) 0.1240(3) 0.9014(5)
O12_4 O 0.26595(17) 0.4057(2) 0.8468(4)
O13_4 O 0.20929(15) 0.4359(2) 0.9124(3)
C19_4 C 0.2461(2) 0.3200(3) 0.9532(5)
C20_4 C 0.2603(2) 0.2587(3) 0.9122(5)
H20_4 H 0.267825 0.264504 0.854206
C21_4 C 0.2414(2) 0.3929(3) 0.9022(5)
N4_3 N 0.1053(2) 0.4387(3) 0.8949(4)
H21_3 H 0.130684 0.422513 0.947539
N5_3 N 0.1081(2) 0.4910(3) 0.8274(5)
C24_3 C 0.0270(2) 0.4542(4) 0.7760(6)
C25_3 C 0.0573(2) 0.4156(4) 0.8683(6)
C26_3 C 0.0607(3) 0.5008(4) 0.7545(6)
C27_3 C 0.0484(3) 0.5515(5) 0.6641(7)
H22_3 H 0.078237 0.560851 0.652242
H23_3 H 0.023411 0.529096 0.603446
H24_3 H 0.035718 0.597175 0.678411
C28_3 C 0.0440(3) 0.3553(5) 0.9214(7)
H25_3 H 0.056159 0.366172 0.994204
H26_3 H 0.008102 0.349820 0.893234
H27_3 H 0.059031 0.310357 0.911567
O20_3 O 0.17992(16) 0.5069(2) 0.7027(3)
O21_3 O 0.34359(16) 0.5105(2) 0.8242(4)
H29_3 H 0.355410 0.510444 0.777340
H30_3 H 0.350483 0.551817 0.856429
O22_3 O 0.15257(18) 0.6433(2) 0.7959(4)
N6_3 N 0.1296(3) 0.7632(3) 0.7757(6)
C34_3 C 0.1400(3) 0.6971(4) 0.8244(7)
H31_3 H 0.136693 0.694205 0.887473
C35_3 C 0.1157(5) 0.8259(6) 0.8216(12)
H32_3 H 0.131184 0.869602 0.809105
H33_3 H 0.079842 0.831613 0.791208
H34_3 H 0.126989 0.818332 0.895084
C36_3 C 0.1357(4) 0.7755(7) 0.6826(9)
H35_3 H 0.103909 0.788610 0.628582
H36_3 H 0.159272 0.814979 0.692401
H37_3 H 0.148151 0.731431 0.663258
H38_3 H 0.1561(16) 0.475(3) 0.665(4)
O3_3 O 0.82008(16) 0.5069(2) 0.7973(3)
O5_3 O 0.65641(16) 0.5105(2) 0.6758(4)
H2_3 H 0.644590 0.510444 0.722660
H3_3 H 0.649517 0.551817 0.643571
N1_3 N 0.8947(2) 0.4387(3) 0.6051(4)
H4_3 H 0.869316 0.422513 0.552461
N2_3 N 0.8919(2) 0.4910(3) 0.6726(5)
C7_3 C 0.9730(2) 0.4542(4) 0.7240(6)
C8_3 C 0.9427(2) 0.4156(4) 0.6317(6)
C9_3 C 0.9393(3) 0.5008(4) 0.7455(6)
C10_3 C 0.9516(3) 0.5515(5) 0.8359(7)
H5_3 H 0.921763 0.560851 0.847758
H6_3 H 0.976589 0.529096 0.896554
H7_3 H 0.964282 0.597175 0.821589
C11_3 C 0.9560(3) 0.3553(5) 0.5786(7)
H8_3 H 0.943841 0.366172 0.505796
H9_3 H 0.991898 0.349820 0.606766
H10_3 H 0.940969 0.310357 0.588433
O10_3 O 0.84743(18) 0.6433(2) 0.7041(4)
N3_3 N 0.8704(3) 0.7632(3) 0.7243(6)
C12_3 C 0.8600(3) 0.6971(4) 0.6756(7)
H11_3 H 0.863307 0.694205 0.612527
C13_3 C 0.8843(5) 0.8259(6) 0.6784(12)
H12_3 H 0.868816 0.869602 0.690895
H13_3 H 0.920158 0.831613 0.708792
H14_3 H 0.873011 0.818332 0.604916
C14_3 C 0.8643(4) 0.7755(7) 0.8174(9)
H15_3 H 0.896091 0.788610 0.871418
H16_3 H 0.840728 0.814979 0.807599
H17_3 H 0.851849 0.731431 0.836742
H19_3 H 0.8439(16) 0.475(3) 0.835(4)
O3_4 O 0.32008(16) 0.0069(2) 0.7973(3)
O5_4 O 0.15641(16) 0.0105(2) 0.6758(4)
H2_4 H 0.144590 0.010444 0.722660
H3_4 H 0.149517 0.051817 0.643571
C9_4 C 0.4393(3) 0.0008(4) 0.7455(6)
C10_4 C 0.4516(3) 0.0515(5) 0.8359(7)
H5_4 H 0.421763 0.060851 0.847758
H6_4 H 0.476589 0.029096 0.896554
H7_4 H 0.464282 0.097175 0.821589
O10_4 O 0.34743(18) 0.1433(2) 0.7041(4)
N3_4 N 0.3704(3) 0.2632(3) 0.7243(6)
C12_4 C 0.3600(3) 0.1971(4) 0.6756(7)
H11_4 H 0.363307 0.194205 0.612527
C13_4 C 0.3843(5) 0.3259(6) 0.6784(12)
H12_4 H 0.368816 0.369602 0.690895
H13_4 H 0.420158 0.331613 0.708792
H14_4 H 0.373011 0.318332 0.604916
C14_4 C 0.3643(4) 0.2755(7) 0.8174(9)
H15_4 H 0.396091 0.288610 0.871418
H16_4 H 0.340728 0.314979 0.807599
H17_4 H 0.351849 0.231431 0.836742
C26_4 C 0.5607(3) 0.0008(4) 0.7545(6)
C27_4 C 0.5484(3) 0.0515(5) 0.6641(7)
H22_4 H 0.578237 0.060851 0.652242
H23_4 H 0.523411 0.029096 0.603446
H24_4 H 0.535718 0.097175 0.678411
O20_4 O 0.67992(16) 0.0069(2) 0.7027(3)
O21_4 O 0.84359(16) 0.0105(2) 0.8242(4)
H29_4 H 0.855410 0.010444 0.777340
H30_4 H 0.850483 0.051817 0.856429
O22_4 O 0.65257(18) 0.1433(2) 0.7959(4)
N6_4 N 0.6296(3) 0.2632(3) 0.7757(6)
C34_4 C 0.6400(3) 0.1971(4) 0.8244(7)
H31_4 H 0.636693 0.194205 0.887473
C35_4 C 0.6157(5) 0.3259(6) 0.8216(12)
H32_4 H 0.631184 0.369602 0.809105
H33_4 H 0.579842 0.331613 0.791208
H34_4 H 0.626989 0.318332 0.895084
C36_4 C 0.6357(4) 0.2755(7) 0.6826(9)
H35_4 H 0.603909 0.288610 0.628582
H36_4 H 0.659272 0.314979 0.692401
H37_4 H 0.648151 0.231431 0.663258
N1_4 N 0.3947(2) 0.9387(3) 0.6051(4)
H4_4 H 0.369316 0.922513 0.552461
N2_4 N 0.3919(2) 0.9910(3) 0.6726(5)
C7_4 C 0.4730(2) 0.9542(4) 0.7240(6)
C8_4 C 0.4427(2) 0.9156(4) 0.6317(6)
C11_4 C 0.4560(3) 0.8553(5) 0.5786(7)
H8_4 H 0.443841 0.866172 0.505796
H9_4 H 0.491898 0.849820 0.606766
H10_4 H 0.440969 0.810357 0.588433
H19_4 H 0.3439(16) 0.975(3) 0.835(4)
N4_4 N 0.6053(2) 0.9387(3) 0.8949(4)
H21_4 H 0.630684 0.922513 0.947539
N5_4 N 0.6081(2) 0.9910(3) 0.8274(5)
C24_4 C 0.5270(2) 0.9542(4) 0.7760(6)
C25_4 C 0.5573(2) 0.9156(4) 0.8683(6)
C28_4 C 0.5440(3) 0.8553(5) 0.9214(7)
H25_4 H 0.556159 0.866172 0.994204
H26_4 H 0.508102 0.849820 0.893234
H27_4 H 0.559031 0.810357 0.911567
H38_4 H 0.6561(16) 0.975(3) 0.665(4)
loop_
_geom_bond_atom_site_label_1
_geom_bond_atom_site_label_2
_geom_bond_site_symmetry_1
_geom_bond_site_symmetry_2
Fe1 O2 1_555 1_555
Fe2 O1 1_555 1_555
O1 C3 1_555 1_555
O2 C3 1_555 1_555
C1 C2 1_555 1_555
C2 H1 1_555 1_555
C3 C1 1_555 1_555
C4 C1 1_555 1_555
O3 Fe1 1_555 1_555
O4 C17 1_555 1_555
O5 Fe2 1_555 1_555
H2 O5 1_555 1_555
H3 O5 1_555 1_555
O8 C6 1_555 1_555
O9 C6 1_555 1_555
C6 C4 1_555 1_555
N1 H4 1_555 1_555
N2 Fe1 1_555 1_555
C7 C8 1_555 1_555
C8 N1 1_555 1_555
C9 N2 1_555 1_555
C10 C9 1_555 1_555
H5 C10 1_555 1_555
H6 C10 1_555 1_555
H7 C10 1_555 1_555
C11 C8 1_555 1_555
H8 C11 1_555 1_555
H9 C11 1_555 1_555
H10 C11 1_555 1_555
O10 Fe1 1_555 1_555
N3 C12 1_555 1_555
C12 O10 1_555 1_555
H11 C12 1_555 1_555
C13 N3 1_555 1_555
H12 C13 1_555 1_555
H13 C13 1_555 1_555
H14 C13 1_555 1_555
C14 N3 1_555 1_555
H15 C14 1_555 1_555
H16 C14 1_555 1_555
H17 C14 1_555 1_555
O11 Fe2 1_555 1_555
C17 O11 1_555 1_555
C18 C15 1_555 1_555
H18 C18 1_555 1_555
H19 O3 1_555 1_555
O12 C21 1_555 1_555
O13 C21 1_555 1_555
C19 C20 1_555 1_555
C20 C4 1_555 1_555
H20 C20 1_555 1_555
C21 C19 1_555 1_555
C22 C2 1_555 1_555
O14 C23 1_555 1_555
O15 C23 1_555 1_555
C23 C22 1_555 1_555
C30 C18 1_555 1_555
O17 C33 1_555 1_555
O18 C33 1_555 1_555
C33 C30 1_555 1_555
Fe5 O17 1_555 1_555
Fe10 O9 1_555 1_555
Fe12 O12 1_555 1_555
O26 Fe1 1_555 1_555
O28 Fe1 1_555 1_555
O30 Fe2 1_555 1_555
Fe2 O3 1_555 1_555
Fe2 O28 1_555 1_555
N1 N2 1_555 1_555
C7 C9 1_555 1_555
C15 C17 1_555 1_555
C19 C22 1_555 1_555
O6 C5 1_555 1_555
O7 C5 1_555 1_555
C5 C16 1_555 1_555
C16 C32 1_555 1_555
O16 C31 1_555 1_555
C31 C29 1_555 1_555
C32 C29 1_555 1_555
H28 C32 1_555 1_555
O19 C31 1_555 1_555
Fe10 O6 1_555 1_555
Fe12 O16 1_555 1_555
O6 Fe6 1_555 1_555
N4 H21 1_555 1_555
N5 N4 1_555 1_555
C25 N4 1_555 1_555
C26 N5 1_555 1_555
C27 C26 1_555 1_555
H22 C27 1_555 1_555
H23 C27 1_555 1_555
H24 C27 1_555 1_555
C28 C25 1_555 1_555
H25 C28 1_555 1_555
H26 C28 1_555 1_555
H27 C28 1_555 1_555
Fe3 N5 1_555 1_555
Fe4 O20 1_555 1_555
O20 Fe3 1_555 1_555
O21 Fe4 1_555 1_555
H29 O21 1_555 1_555
H30 O21 1_555 1_555
O22 Fe3 1_555 1_555
N6 C34 1_555 1_555
C34 O22 1_555 1_555
H31 C34 1_555 1_555
C35 N6 1_555 1_555
H32 C35 1_555 1_555
H33 C35 1_555 1_555
H34 C35 1_555 1_555
C36 N6 1_555 1_555
H35 C36 1_555 1_555
H36 C36 1_555 1_555
H37 C36 1_555 1_555
H38 O20 1_555 1_555
O23 Fe4 1_555 1_555
O24 Fe3 1_555 1_555
O27 Fe3 1_555 1_555
O29 Fe4 1_555 1_555
O31 Fe4 1_555 1_555
C24 C25 1_555 1_555
C24 C26 1_555 1_555
Fe4 O27 1_555 1_555
O23 C3_2 1_555 1_555
O24 C3_2 1_555 1_555
C1_2 C2_2 1_555 1_555
C2_2 H1_2 1_555 1_555
C3_2 C1_2 1_555 1_555
O4_2 C17_2 1_555 1_555
O6_2 C5_2 1_555 1_555
O7_2 C5_2 1_555 1_555
C5_2 C16_2 1_555 1_555
C15_2 C16_2 1_555 1_555
C16_2 C32_2 1_555 1_555
C17_2 O31 1_555 1_555
C18_2 C15_2 1_555 1_555
H18_2 C18_2 1_555 1_555
C22_2 C2_2 1_555 1_555
O14_2 C23_2 1_555 1_555
O15_2 C23_2 1_555 1_555
C23_2 C22_2 1_555 1_555
O16_2 C31_2 1_555 1_555
C29_2 C30_2 1_555 1_555
C30_2 C18_2 1_555 1_555
C31_2 C29_2 1_555 1_555
C32_2 C29_2 1_555 1_555
H28_2 C32_2 1_555 1_555
O17_2 C33_2 1_555 1_555
O18_2 C33_2 1_555 1_555
C33_2 C30_2 1_555 1_555
O19_2 C31_2 1_555 1_555
Fe5_2 O17_2 1_555 1_555
Fe6_2 O4_2 1_555 1_555
Fe9 O6_2 1_555 1_555
Fe11 O16_2 1_555 1_555
O6_2 Fe6_2 1_555 1_555
C15_2 C17_2 1_555 1_555
O19_2 Fe5_2 1_555 1_555
O8_2 C6_2 1_555 1_555
O9_2 C6_2 1_555 1_555
C6_2 C4_2 1_555 1_555
O12_2 C21_2 1_555 1_555
O13_2 C21_2 1_555 1_555
C19_2 C20_2 1_555 1_555
C20_2 C4_2 1_555 1_555
H20_2 C20_2 1_555 1_555
C21_2 C19_2 1_555 1_555
Fe9 O9_2 1_555 1_555
Fe11 O12_2 1_555 1_555
Fe8_2 O1_2 1_555 1_555
O1_2 C3_3 1_555 1_555
O2_2 C3_3 1_555 1_555
C1_3 C2_3 1_555 1_555
C2_3 H1_3 1_555 1_555
C3_3 C1_3 1_555 1_555
C4_3 C1_3 1_555 1_555
O4_3 C17_3 1_555 1_555
O8_3 C6_3 1_555 1_555
O9_3 C6_3 1_555 1_555
C6_3 C4_3 1_555 1_555
N1_2 H4_2 1_555 1_555
C7_2 C8_2 1_555 1_555
C8_2 N1_2 1_555 1_555
C11_2 C8_2 1_555 1_555
H8_2 C11_2 1_555 1_555
H9_2 C11_2 1_555 1_555
H10_2 C11_2 1_555 1_555
O11_2 Fe8_2 1_555 1_555
C17_3 O11_2 1_555 1_555
C18_3 C15_3 1_555 1_555
H18_3 C18_3 1_555 1_555
O12_3 C21_3 1_555 1_555
O13_3 C21_3 1_555 1_555
C19_3 C20_3 1_555 1_555
C20_3 C4_3 1_555 1_555
H20_3 C20_3 1_555 1_555
C21_3 C19_3 1_555 1_555
C22_3 C2_3 1_555 1_555
O14_3 C23_3 1_555 1_555
O29 C23_3 1_555 1_555
C23_3 C22_3 1_555 1_555
N4_2 H21_2 1_555 1_555
N5_2 N4_2 1_555 1_555
C24_2 C7_2 1_555 1_555
C25_2 N4_2 1_555 1_555
C28_2 C25_2 1_555 1_555
H25_2 C28_2 1_555 1_555
H26_2 C28_2 1_555 1_555
H27_2 C28_2 1_555 1_555
C30_3 C18_3 1_555 1_555
O27 C33_3 1_555 1_555
O18_3 C33_3 1_555 1_555
C33_3 C30_3 1_555 1_555
Fe6_2 O13_3 1_555 1_555
Fe9 O12_3 1_555 1_555
O23_2 Fe8 1_555 1_555
O31_2 Fe8 1_555 1_555
N1_2 N2_2 1_555 1_555
C15_3 C17_3 1_555 1_555
C19_3 C22_3 1_555 1_555
C24_2 C25_2 1_555 1_555
O6_3 C5_3 1_555 1_555
O7_3 C5_3 1_555 1_555
C5_3 C16_3 1_555 1_555
C16_3 C32_3 1_555 1_555
O16_3 C31_3 1_555 1_555
C31_3 C29_3 1_555 1_555
C32_3 C29_3 1_555 1_555
H28_3 C32_3 1_555 1_555
O25 C31_3 1_555 1_555
Fe9 O16_3 1_555 1_555
O6_3 Fe7_2 1_555 1_555
O3_2 Fe5_2 1_555 1_555
H2_2 O5_2 1_555 1_555
H3_2 O5_2 1_555 1_555
C10_2 C9_2 1_555 1_555
H5_2 C10_2 1_555 1_555
H6_2 C10_2 1_555 1_555
H7_2 C10_2 1_555 1_555
O10_2 Fe5_2 1_555 1_555
N3_2 C12_2 1_555 1_555
C12_2 O10_2 1_555 1_555
H11_2 C12_2 1_555 1_555
C13_2 N3_2 1_555 1_555
H12_2 C13_2 1_555 1_555
H13_2 C13_2 1_555 1_555
H14_2 C13_2 1_555 1_555
C14_2 N3_2 1_555 1_555
H15_2 C14_2 1_555 1_555
H16_2 C14_2 1_555 1_555
H17_2 C14_2 1_555 1_555
C27_2 C26_2 1_555 1_555
H22_2 C27_2 1_555 1_555
H23_2 C27_2 1_555 1_555
H24_2 C27_2 1_555 1_555
O20_2 Fe5 1_555 1_555
H29_2 O21_2 1_555 1_555
H30_2 O21_2 1_555 1_555
O22_2 Fe5 1_555 1_555
N6_2 C34_2 1_555 1_555
C34_2 O22_2 1_555 1_555
H31_2 C34_2 1_555 1_555
C35_2 N6_2 1_555 1_555
H32_2 C35_2 1_555 1_555
H33_2 C35_2 1_555 1_555
H34_2 C35_2 1_555 1_555
C36_2 N6_2 1_555 1_555
H35_2 C36_2 1_555 1_555
H36_2 C36_2 1_555 1_555
H37_2 C36_2 1_555 1_555
O23_2 C3_4 1_555 1_555
O24_2 C3_4 1_555 1_555
C1_4 C2_4 1_555 1_555
C2_4 H1_4 1_555 1_555
C3_4 C1_4 1_555 1_555
O4_4 C17_4 1_555 1_555
O6_4 C5_4 1_555 1_555
O7_4 C5_4 1_555 1_555
C5_4 C16_4 1_555 1_555
C15_4 C16_4 1_555 1_555
C16_4 C32_4 1_555 1_555
C17_4 O31_2 1_555 1_555
C18_4 C15_4 1_555 1_555
H18_4 C18_4 1_555 1_555
C22_4 C2_4 1_555 1_555
O14_4 C23_4 1_555 1_555
O30 C23_4 1_555 1_555
C23_4 C22_4 1_555 1_555
O16_4 C31_4 1_555 1_555
C29_4 C30_4 1_555 1_555
C30_4 C18_4 1_555 1_555
C31_4 C29_4 1_555 1_555
C32_4 C29_4 1_555 1_555
H28_4 C32_4 1_555 1_555
O28 C33_4 1_555 1_555
O18_4 C33_4 1_555 1_555
C33_4 C30_4 1_555 1_555
O26 C31_4 1_555 1_555
Fe7 O4_4 1_555 1_555
Fe10 O16_4 1_555 1_555
O6_4 Fe7 1_555 1_555
C15_4 C17_4 1_555 1_555
O8_4 C6_4 1_555 1_555
O9_4 C6_4 1_555 1_555
C6_4 C4_4 1_555 1_555
O12_4 C21_4 1_555 1_555
O13_4 C21_4 1_555 1_555
C19_4 C20_4 1_555 1_555
C20_4 C4_4 1_555 1_555
H20_4 C20_4 1_555 1_555
C21_4 C19_4 1_555 1_555
Fe6 O13_4 1_555 1_555
Fe10 O12_4 1_555 1_555
N4_3 H21_3 1_555 1_555
N5_3 N4_3 1_555 1_555
C25_3 N4_3 1_555 1_555
C26_3 N5_3 1_555 1_555
C27_3 C26_3 1_555 1_555
H22_3 C27_3 1_555 1_555
H23_3 C27_3 1_555 1_555
H24_3 C27_3 1_555 1_555
C28_3 C25_3 1_555 1_555
H25_3 C28_3 1_555 1_555
H26_3 C28_3 1_555 1_555
H27_3 C28_3 1_555 1_555
Fe6 N5_3 1_555 1_555
Fe10 O20_3 1_555 1_555
O20_3 Fe6 1_555 1_555
O21_3 Fe10 1_555 1_555
H29_3 O21_3 1_555 1_555
H30_3 O21_3 1_555 1_555
O22_3 Fe6 1_555 1_555
N6_3 C34_3 1_555 1_555
C34_3 O22_3 1_555 1_555
H31_3 C34_3 1_555 1_555
C35_3 N6_3 1_555 1_555
H32_3 C35_3 1_555 1_555
H33_3 C35_3 1_555 1_555
H34_3 C35_3 1_555 1_555
C36_3 N6_3 1_555 1_555
H35_3 C36_3 1_555 1_555
H36_3 C36_3 1_555 1_555
H37_3 C36_3 1_555 1_555
H38_3 O20_3 1_555 1_555
C24_3 C25_3 1_555 1_555
C24_3 C26_3 1_555 1_555
O3_3 Fe6_2 1_555 1_555
O5_3 Fe9 1_555 1_555
H2_3 O5_3 1_555 1_555
H3_3 O5_3 1_555 1_555
N1_3 H4_3 1_555 1_555
N2_3 Fe6_2 1_555 1_555
C7_3 C8_3 1_555 1_555
C8_3 N1_3 1_555 1_555
C9_3 N2_3 1_555 1_555
C10_3 C9_3 1_555 1_555
H5_3 C10_3 1_555 1_555
H6_3 C10_3 1_555 1_555
H7_3 C10_3 1_555 1_555
C11_3 C8_3 1_555 1_555
H8_3 C11_3 1_555 1_555
H9_3 C11_3 1_555 1_555
H10_3 C11_3 1_555 1_555
O10_3 Fe6_2 1_555 1_555
N3_3 C12_3 1_555 1_555
C12_3 O10_3 1_555 1_555
H11_3 C12_3 1_555 1_555
C13_3 N3_3 1_555 1_555
H12_3 C13_3 1_555 1_555
H13_3 C13_3 1_555 1_555
H14_3 C13_3 1_555 1_555
C14_3 N3_3 1_555 1_555
H15_3 C14_3 1_555 1_555
H16_3 C14_3 1_555 1_555
H17_3 C14_3 1_555 1_555
H19_3 O3_3 1_555 1_555
Fe9 O3_3 1_555 1_555
N1_3 N2_3 1_555 1_555
C7_3 C9_3 1_555 1_555
O3_4 Fe7 1_555 1_555
H2_4 O5_4 1_555 1_555
H3_4 O5_4 1_555 1_555
C10_4 C9_4 1_555 1_555
H5_4 C10_4 1_555 1_555
H6_4 C10_4 1_555 1_555
H7_4 C10_4 1_555 1_555
O10_4 Fe7 1_555 1_555
N3_4 C12_4 1_555 1_555
C12_4 O10_4 1_555 1_555
H11_4 C12_4 1_555 1_555
C13_4 N3_4 1_555 1_555
H12_4 C13_4 1_555 1_555
H13_4 C13_4 1_555 1_555
H14_4 C13_4 1_555 1_555
C14_4 N3_4 1_555 1_555
H15_4 C14_4 1_555 1_555
H16_4 C14_4 1_555 1_555
H17_4 C14_4 1_555 1_555
C27_4 C26_4 1_555 1_555
H22_4 C27_4 1_555 1_555
H23_4 C27_4 1_555 1_555
H24_4 C27_4 1_555 1_555
O20_4 Fe7_2 1_555 1_555
H29_4 O21_4 1_555 1_555
H30_4 O21_4 1_555 1_555
O22_4 Fe7_2 1_555 1_555
N6_4 C34_4 1_555 1_555
C34_4 O22_4 1_555 1_555
H31_4 C34_4 1_555 1_555
C35_4 N6_4 1_555 1_555
H32_4 C35_4 1_555 1_555
H33_4 C35_4 1_555 1_555
H34_4 C35_4 1_555 1_555
C36_4 N6_4 1_555 1_555
H35_4 C36_4 1_555 1_555
H36_4 C36_4 1_555 1_555
H37_4 C36_4 1_555 1_555
N1_4 H4_4 1_555 1_555
C7_4 C8_4 1_555 1_555
C8_4 N1_4 1_555 1_555
C11_4 C8_4 1_555 1_555
H8_4 C11_4 1_555 1_555
H9_4 C11_4 1_555 1_555
H10_4 C11_4 1_555 1_555
N4_4 H21_4 1_555 1_555
N5_4 N4_4 1_555 1_555
C24_4 C7_4 1_555 1_555
C25_4 N4_4 1_555 1_555
C28_4 C25_4 1_555 1_555
H25_4 C28_4 1_555 1_555
H26_4 C28_4 1_555 1_555
H27_4 C28_4 1_555 1_555
N1_4 N2_4 1_555 1_555
C24_4 C25_4 1_555 1_555

#END
