
###############################################################################
#
# This file contains modified crystal structure data generated from the
# MOF subset of the Cambridge Structural Database (CSD) v543 
# hosted by the Cambridge Crystallographic Data Centre (CCDC).
#
# This work is licensed under the Creative Commons
# Attribution-NonCommercial-ShareAlike 4.0 International License.
# To view a copy of this license, visit
# http://creativecommons.org/licenses/by-nc-sa/4.0/
# or send a letter to
# Creative Commons, PO Box 1866, Mountain View, CA 94042, USA.
#
# CIF created using the CSD Python API on 29 September 2022
# The structure has been converted into the P1 space group
# The structure has a 3D framework
# The original CSD entry WOFQIU is in the rhombohedral crystal system
# The framework has been calculated to contain at least 10.0% void space
# The void calculation uses a probe of radius 1.32A, grid spacing 0.4
# The framework is charged, counterions have been retained in the structure
# H atom positions have been added when not included in the experimental data
# Generated hydrogen atom positions removed from atoms on special positions
#
###############################################################################

data_WOFQIU
_chemical_formula_moiety         '(C756 H612 Ga58 O280 27+)n'
_symmetry_cell_setting           triclinic
_symmetry_space_group_name_H-M   'P 1'
_symmetry_Int_Tables_number      1
_space_group_name_Hall           'P 1'
loop_
_symmetry_equiv_pos_site_id
_symmetry_equiv_pos_as_xyz
1 x,y,z
_cell_length_a                   27.3458(4)
_cell_length_b                   27.3458(4)
_cell_length_c                   72.965(2)
_cell_angle_alpha                90
_cell_angle_beta                 90
_cell_angle_gamma                120
_cell_volume                     47252.7
loop_
_atom_site_label
_atom_site_type_symbol
_atom_site_fract_x
_atom_site_fract_y
_atom_site_fract_z
Ga2 Ga 0.733122(12) 0.122311(12) 0.403529(4)
C1 C 0.63366(16) 0.04449(13) 0.34743(4)
H1 H 0.6513 0.0836 0.3502
C2 C 0.63251(14) 0.00707(13) 0.36036(4)
C9 C 0.65797(12) 0.02653(12) 0.37896(4)
C14 C 0.60909(16) 0.02505(14) 0.33031(4)
H8 H 0.6099 0.0511 0.3215
O2 O 0.74058(9) 0.18868(9) 0.39007(3)
O4 O 0.46849(8) 0.00233(8) 0.27738(2)
O8 O 0.68444(8) 0.07873(8) 0.38218(2)
O9 O 0.72744(9) 0.06078(9) 0.4167
Ga3 Ga 0.788978(12) 0.066455(12) 0.429804(4)
O10 O 0.85535(9) 0.07391(9) 0.44326(3)
O16 O 0.74540(8) 0.01777(8) 0.45115(2)
Ga4 Ga 0.341118(15) 0.007785(15) 0.5833
Ga10 Ga 0.455644(12) 0.055856(17) 0.263138(4)
O17 O 0.84669(11) 0.11805(8) 0.41137(2)
O18 O 0.78471(8) 0.18003(11) 0.42197(2)
O19 O 0.79949(11) 0.13516(8) 0.38929(2)
O20 O 0.80182(8) 0.13283(11) 0.44405(2)
O22 O 0.61081(8) 0.02761(9) 0.41877(3)
O23 O 0.78808(8) 0.00235(8) 0.41749(3)
O24 O 0.66901(8) 0.12142(8) 0.41585(3)
Ga1 Ga 0.658882(15) 0.992215(15) 0.4167
C3 C 0.51311(13) 0.89874(12) 0.27360(4)
H2 H 0.4963 0.8820 0.2622
C4 C 0.52467(14) 0.74979(13) 0.25906(4)
H3 H 0.4950 0.7173 0.2533
C5 C 0.47232(11) 0.96185(11) 0.27042(3)
C6 C 0.57786(13) 0.75553(12) 0.26063(4)
C7 C 0.58821(12) 0.71065(12) 0.25354(4)
C8 C 0.50478(12) 0.94089(11) 0.28092(4)
C10 C 0.52796(14) 0.96497(13) 0.29798(4)
H4 H 0.5219 0.9936 0.3030
C11 C 0.62073(15) 0.80278(15) 0.26905(5)
H5 H 0.6573 0.8071 0.2700
C12 C 0.58128(19) 0.93089(15) 0.33951(5)
H6 H 0.5631 0.8916 0.3369
C13 C 0.60494(17) 0.94995(14) 0.35642(5)
H7 H 0.6024 0.9238 0.3655
C15 C 0.61055(16) 0.84391(15) 0.27611(5)
H9 H 0.6403 0.8763 0.2819
C16 C 0.56007(17) 0.94663(14) 0.30758(4)
C17 C 0.56832(15) 0.90483(14) 0.29984(4)
H10 H 0.5900 0.8922 0.3063
C18 C 0.58341(16) 0.96819(14) 0.32595(4)
C19 C 0.51465(15) 0.79100(14) 0.26580(5)
H11 H 0.4784 0.7872 0.2643
C20 C 0.54565(14) 0.88082(13) 0.28276(4)
C21 C 0.55704(15) 0.83816(14) 0.27479(4)
O1 O 0.58642(11) 0.91976(11) 0.4167
O3 O 0.45138(8) 0.93802(8) 0.25530(2)
O5 O 0.65093(10) 0.98770(9) 0.38998(3)
O6 O 0.63906(9) 0.72252(8) 0.25210(3)
O7 O 0.54525(8) 0.66432(8) 0.24918(3)
C22 C 0.71116(13) 0.96699(16) 0.48590(4)
H12 H 0.7503 0.9846 0.4831
C23 C 0.67374(13) 0.96584(14) 0.47297(4)
C24 C 0.56541(12) 0.84644(13) 0.55973(4)
H13 H 0.5487 0.8296 0.5711
C25 C 0.41646(13) 0.85800(14) 0.57427(4)
H14 H 0.3840 0.8283 0.5800
C26 C 0.62852(11) 0.80565(11) 0.56291(3)
C27 C 0.42220(12) 0.91119(13) 0.57270(4)
C28 C 0.37732(12) 0.92154(12) 0.57979(4)
C29 C 0.60756(11) 0.83811(12) 0.55241(4)
C30 C 0.69320(12) 0.99130(12) 0.45437(4)
C31 C 0.63164(13) 0.86129(14) 0.53535(4)
H15 H 0.6603 0.8552 0.5303
C32 C 0.46945(15) 0.95406(15) 0.56428(5)
H16 H 0.4738 0.9906 0.5633
C33 C 0.59756(15) 0.91461(19) 0.49382(5)
H17 H 0.5583 0.8964 0.4964
C34 C 0.61662(14) 0.93827(17) 0.47691(5)
H18 H 0.5905 0.9357 0.4678
C35 C 0.69172(14) 0.94242(16) 0.50302(4)
H19 H 0.7178 0.9432 0.5118
C36 C 0.51058(15) 0.94388(16) 0.55722(5)
H20 H 0.5430 0.9736 0.5514
C37 C 0.61330(14) 0.89340(17) 0.52575(4)
C38 C 0.57150(14) 0.90165(15) 0.53349(4)
H21 H 0.5589 0.9233 0.5270
C39 C 0.63486(14) 0.91674(16) 0.50738(4)
C40 C 0.45767(14) 0.84798(15) 0.56753(5)
H22 H 0.4539 0.8117 0.5690
C41 C 0.54749(13) 0.87898(14) 0.55057(4)
C42 C 0.50483(14) 0.89037(15) 0.55854(4)
O11 O 0.60469(8) 0.78471(8) 0.57803(2)
O12 O 0.66900(8) 0.80182(8) 0.55595(2)
O13 O 0.65437(9) 0.98426(10) 0.44335(3)
O14 O 0.38919(8) 0.97239(9) 0.58123(3)
O15 O 0.33099(8) 0.87858(8) 0.58415(3)
Ga5 Ga 0.674452(15) 0.674451(15) 0.2500
Ga6 Ga 0.266878(12) 0.877689(12) 0.596471(4)
Ga7 Ga 0.610811(17) 0.733122(12) 0.596471(4)
Ga8 Ga 0.544356(12) 0.600211(12) 0.236862(4)
Ga9 Ga 0.399789(12) 0.944144(17) 0.236862(4)
Ga11 Ga 0.722522(17) 0.788978(12) 0.570196(4)
O21 O 0.69427(9) 0.94415(8) 0.41457(3)
Ga5_2 Ga 0.325549(15) 0.000000(21) 0.2500
Ga1_2 Ga 0.007785(15) 0.666667(21) 0.4167
C3_2 C 0.10126(12) 0.61437(18) 0.27360(4)
H2_2 H 0.1180 0.6143 0.2622
C4_2 C 0.25021(13) 0.77488(19) 0.25906(4)
H3_2 H 0.2827 0.7777 0.2533
C5_2 C 0.03815(11) 0.51047(16) 0.27042(3)
C6_2 C 0.24447(12) 0.82233(18) 0.26063(4)
C7_2 C 0.28935(12) 0.87756(17) 0.25354(4)
C8_2 C 0.05911(11) 0.56389(16) 0.28092(4)
C10_2 C 0.03503(13) 0.56299(19) 0.29798(4)
H4_2 H 0.0064 0.5283 0.3030
C11_2 C 0.19722(15) 0.81795(21) 0.26905(5)
H5_2 H 0.1929 0.8502 0.2700
C12_2 C 0.06911(15) 0.65039(24) 0.33951(5)
H6_2 H 0.1084 0.6715 0.3369
C13_2 C 0.05005(14) 0.65499(22) 0.35642(5)
H7_2 H 0.0762 0.6786 0.3655
C15_2 C 0.15609(15) 0.76664(22) 0.27611(5)
H9_2 H 0.1237 0.7640 0.2819
C16_2 C 0.05337(14) 0.61344(22) 0.30758(4)
C17_2 C 0.09517(14) 0.66349(21) 0.29984(4)
H10_2 H 0.1078 0.6978 0.3063
C18_2 C 0.03181(14) 0.61522(21) 0.32595(4)
C19_2 C 0.20900(14) 0.72365(21) 0.26580(5)
H11_2 H 0.2128 0.6912 0.2643
C20_2 C 0.11918(13) 0.66483(19) 0.28276(4)
C21_2 C 0.16184(14) 0.71888(21) 0.27479(4)
O1_2 O 0.08024(11) 0.66666(16) 0.4167
O3_2 O 0.06198(8) 0.51336(11) 0.25530(2)
O5_2 O 0.01230(9) 0.66323(13) 0.38998(3)
O6_2 O 0.27748(8) 0.91654(12) 0.25210(3)
O7_2 O 0.33568(8) 0.88093(11) 0.24918(3)
C22_2 C 0.03301(16) 0.74416(21) 0.48590(4)
H12_2 H 0.0154 0.7656 0.4831
C23_2 C 0.03416(14) 0.70789(19) 0.47297(4)
C24_2 C 0.15356(13) 0.71896(18) 0.55973(4)
H13_2 H 0.1704 0.7190 0.5711
C25_2 C 0.14200(14) 0.55845(19) 0.57427(4)
H14_2 H 0.1717 0.5556 0.5800
C26_2 C 0.19435(11) 0.82286(16) 0.56291(3)
C27_2 C 0.08881(13) 0.51100(18) 0.57270(4)
C28_2 C 0.07846(12) 0.45577(17) 0.57979(4)
C29_2 C 0.16189(12) 0.76944(16) 0.55241(4)
C30_2 C 0.00870(12) 0.70189(17) 0.45437(4)
C31_2 C 0.13871(14) 0.77034(19) 0.53535(4)
H15_2 H 0.1448 0.8050 0.5303
C32_2 C 0.04594(15) 0.51538(21) 0.56428(5)
H16_2 H 0.0094 0.4831 0.5633
C33_2 C 0.08539(19) 0.68294(24) 0.49382(5)
H17_2 H 0.1036 0.6618 0.4964
C34_2 C 0.06173(17) 0.67834(22) 0.47691(5)
H18_2 H 0.0643 0.6547 0.4678
C35_2 C 0.05758(16) 0.74929(21) 0.50302(4)
H19_2 H 0.0568 0.7745 0.5118
C36_2 C 0.05612(16) 0.56669(22) 0.55722(5)
H20_2 H 0.0264 0.5693 0.5514
C37_2 C 0.10660(17) 0.71989(22) 0.52575(4)
C38_2 C 0.09835(15) 0.66984(21) 0.53349(4)
H21_2 H 0.0767 0.6355 0.5270
C39_2 C 0.08326(16) 0.71811(21) 0.50738(4)
C40_2 C 0.15202(15) 0.60968(21) 0.56753(5)
H22_2 H 0.1883 0.6421 0.5690
C41_2 C 0.12102(14) 0.66850(19) 0.55057(4)
C42_2 C 0.10963(15) 0.61445(21) 0.55854(4)
O11_2 O 0.21529(8) 0.81997(11) 0.57803(2)
O12_2 O 0.19818(8) 0.86717(11) 0.55595(2)
O13_2 O 0.01574(10) 0.67010(13) 0.44335(3)
O14_2 O 0.02761(9) 0.41679(12) 0.58123(3)
O15_2 O 0.12142(8) 0.45240(11) 0.58415(3)
Ga5_3 Ga 0.325549(15) 1.000000(21) 0.2500
Ga6_2 Ga 0.122311(12) 0.389189(17) 0.596471(4)
Ga9_2 Ga 0.055856(17) 0.455644(21) 0.236862(4)
Ga11_2 Ga 0.211022(12) 0.933545(21) 0.570196(4)
O21_2 O 0.05585(8) 0.75013(12) 0.41457(3)
Ga2_2 Ga 0.877689(12) 0.610811(17) 0.403529(4)
C1_2 C 0.95551(13) 0.58917(21) 0.34743(4)
H1_2 H 0.9164 0.5677 0.3502
C2_2 C 0.99293(13) 0.62544(19) 0.36036(4)
C9_2 C 0.97347(12) 0.63144(17) 0.37896(4)
C14_2 C 0.97495(14) 0.58404(21) 0.33031(4)
H8_2 H 0.9489 0.5588 0.3215
O2_2 O 0.81132(9) 0.55190(13) 0.39007(3)
O4_2 O 0.99767(8) 0.46616(11) 0.27738(2)
O8_2 O 0.92127(8) 0.60571(11) 0.38218(2)
O9_2 O 0.93922(9) 0.66666(13) 0.4167
Ga3_2 Ga 0.933545(12) 0.722522(17) 0.429804(4)
O10_2 O 0.92609(9) 0.78143(13) 0.44326(3)
O16_2 O 0.98223(8) 0.72762(11) 0.45115(2)
Ga4_2 Ga 0.992215(15) 0.333333(21) 0.5833
Ga10_2 Ga 0.944144(17) 0.399789(21) 0.263138(4)
O17_2 O 0.88195(8) 0.72865(14) 0.41137(2)
O18_2 O 0.81997(11) 0.60469(14) 0.42197(2)
O19_2 O 0.86484(8) 0.66434(14) 0.38929(2)
O20_2 O 0.86717(11) 0.66900(14) 0.44405(2)
O22_2 O 0.97239(9) 0.58321(12) 0.41877(3)
O23_2 O 0.99765(8) 0.78574(11) 0.41749(3)
O24_2 O 0.87858(8) 0.54760(11) 0.41585(3)
Ga1_3 Ga 0.333333(21) 0.341118(15) 0.4167
Ga2_3 Ga 0.389189(17) 0.266878(12) 0.403529(4)
C1_3 C 0.41083(21) 0.36634(16) 0.34743(4)
H1_3 H 0.4323 0.3487 0.3502
C2_3 C 0.37456(19) 0.36749(14) 0.36036(4)
C3_3 C 0.38563(18) 0.48689(13) 0.27360(4)
H2_3 H 0.3857 0.5037 0.2622
C4_3 C 0.22512(19) 0.47533(14) 0.25906(4)
H3_3 H 0.2223 0.5050 0.2533
C5_3 C 0.48953(16) 0.52768(11) 0.27042(3)
C6_3 C 0.17767(18) 0.42214(13) 0.26063(4)
C7_3 C 0.12244(17) 0.41179(12) 0.25354(4)
C8_3 C 0.43611(16) 0.49522(12) 0.28092(4)
C9_3 C 0.36856(17) 0.34203(12) 0.37896(4)
C10_3 C 0.43701(19) 0.47204(14) 0.29798(4)
H4_3 H 0.4717 0.4781 0.3030
C11_3 C 0.18205(21) 0.37927(15) 0.26905(5)
H5_3 H 0.1498 0.3427 0.2700
C12_3 C 0.34961(24) 0.41872(19) 0.33951(5)
H6_3 H 0.3285 0.4369 0.3369
C13_3 C 0.34501(22) 0.39506(17) 0.35642(5)
H7_3 H 0.3214 0.3976 0.3655
C14_3 C 0.41596(21) 0.39091(16) 0.33031(4)
H8_3 H 0.4412 0.3901 0.3215
C15_3 C 0.23336(22) 0.38945(16) 0.27611(5)
H9_3 H 0.2360 0.3597 0.2819
C16_3 C 0.38656(22) 0.43993(17) 0.30758(4)
C17_3 C 0.33651(21) 0.43168(15) 0.29984(4)
H10_3 H 0.3022 0.4100 0.3063
C18_3 C 0.38478(21) 0.41659(16) 0.32595(4)
C19_3 C 0.27635(21) 0.48535(15) 0.26580(5)
H11_3 H 0.3088 0.5216 0.2643
C20_3 C 0.33517(19) 0.45435(14) 0.28276(4)
C21_3 C 0.28112(21) 0.44296(15) 0.27479(4)
O1_3 O 0.33334(16) 0.41358(11) 0.4167
O2_3 O 0.44810(13) 0.25942(9) 0.39007(3)
O3_3 O 0.48664(11) 0.54862(8) 0.25530(2)
O4_3 O 0.53384(11) 0.53151(8) 0.27738(2)
O5_3 O 0.33677(13) 0.34907(10) 0.38998(3)
O6_3 O 0.08346(12) 0.36094(9) 0.25210(3)
O7_3 O 0.11907(11) 0.45475(8) 0.24918(3)
O8_3 O 0.39429(11) 0.31556(8) 0.38218(2)
O9_3 O 0.33334(13) 0.27256(9) 0.4167
Ga3_3 Ga 0.277478(17) 0.211022(12) 0.429804(4)
C22_3 C 0.25584(21) 0.28884(13) 0.48590(4)
H12_3 H 0.2344 0.2497 0.4831
C23_3 C 0.29211(19) 0.32626(13) 0.47297(4)
C24_3 C 0.28104(18) 0.43459(12) 0.55973(4)
H13_3 H 0.2810 0.4513 0.5711
C25_3 C 0.44155(19) 0.58354(13) 0.57427(4)
H14_3 H 0.4444 0.6160 0.5800
C26_3 C 0.17714(16) 0.37148(11) 0.56291(3)
C27_3 C 0.48900(18) 0.57780(12) 0.57270(4)
C28_3 C 0.54423(17) 0.62268(12) 0.57979(4)
C29_3 C 0.23056(16) 0.39244(11) 0.55241(4)
C30_3 C 0.29811(17) 0.30680(12) 0.45437(4)
C31_3 C 0.22966(19) 0.36836(13) 0.53535(4)
H15_3 H 0.1950 0.3397 0.5303
C32_3 C 0.48462(21) 0.53055(15) 0.56428(5)
H16_3 H 0.5169 0.5262 0.5633
C33_3 C 0.31706(24) 0.40244(15) 0.49382(5)
H17_3 H 0.3382 0.4417 0.4964
C34_3 C 0.32166(22) 0.38338(14) 0.47691(5)
H18_3 H 0.3453 0.4095 0.4678
C35_3 C 0.25071(21) 0.30828(14) 0.50302(4)
H19_3 H 0.2255 0.2822 0.5118
C36_3 C 0.43331(22) 0.48942(15) 0.55722(5)
H20_3 H 0.4307 0.4570 0.5514
C37_3 C 0.28011(22) 0.38670(14) 0.52575(4)
C38_3 C 0.33016(21) 0.42850(14) 0.53349(4)
H21_3 H 0.3645 0.4411 0.5270
C39_3 C 0.28189(21) 0.36514(14) 0.50738(4)
C40_3 C 0.39032(21) 0.54233(14) 0.56753(5)
H22_3 H 0.3579 0.5461 0.5690
C41_3 C 0.33150(19) 0.45251(13) 0.55057(4)
C42_3 C 0.38555(21) 0.49517(14) 0.55854(4)
O10_3 O 0.21857(13) 0.14465(9) 0.44326(3)
O11_3 O 0.18003(11) 0.39531(8) 0.57803(2)
O12_3 O 0.13283(11) 0.33100(8) 0.55595(2)
O13_3 O 0.32990(13) 0.34563(9) 0.44335(3)
O14_3 O 0.58321(12) 0.61081(8) 0.58123(3)
O15_3 O 0.54760(11) 0.66901(8) 0.58415(3)
O16_3 O 0.27238(11) 0.25460(8) 0.45115(2)
Ga4_3 Ga 0.666667(21) 0.658882(15) 0.5833
Ga5_4 Ga -0.000000(21) 0.325548(15) 0.2500
Ga10_3 Ga 0.600211(21) 0.544356(12) 0.263138(4)
Ga11_3 Ga 0.066455(21) 0.277478(17) 0.570196(4)
O17_3 O 0.27135(14) 0.15331(11) 0.41137(2)
O18_3 O 0.39531(14) 0.21529(8) 0.42197(2)
O19_3 O 0.33566(14) 0.20051(11) 0.38929(2)
O20_3 O 0.33100(14) 0.19818(8) 0.44405(2)
O21_3 O 0.24987(12) 0.30573(9) 0.41457(3)
O22_3 O 0.41679(12) 0.38919(8) 0.41877(3)
O23_3 O 0.21426(11) 0.21192(8) 0.41749(3)
O24_3 O 0.45240(11) 0.33099(8) 0.41585(3)
Ga5_5 Ga 1.000000(21) 0.325548(15) 0.2500
Ga2_4 Ga 0.122311(12) 0.733122(12) 0.096471(4)
C1_4 C 0.04449(13) 0.63366(16) 0.15257(4)
H1_4 H 0.0836 0.6513 0.1498
C2_4 C 0.00707(13) 0.63251(14) 0.13964(4)
C9_4 C 0.02653(12) 0.65797(12) 0.12104(4)
C14_4 C 0.02505(14) 0.60909(16) 0.16969(4)
H8_4 H 0.0511 0.6099 0.1785
O2_4 O 0.18868(9) 0.74058(9) 0.10993(3)
O4_4 O 0.00233(8) 0.46849(8) 0.22262(2)
O8_4 O 0.07873(8) 0.68444(8) 0.11782(2)
O9_4 O 0.06078(9) 0.72744(9) 0.0833
Ga3_4 Ga 0.066455(12) 0.788978(12) 0.070196(4)
O10_4 O 0.07391(9) 0.85535(9) 0.05674(3)
O16_4 O 0.01777(8) 0.74540(8) 0.04885(2)
O17_4 O 0.11805(8) 0.84669(11) 0.08863(2)
O18_4 O 0.18003(11) 0.78471(8) 0.07803(2)
O19_4 O 0.13516(8) 0.79949(11) 0.11071(2)
O20_4 O 0.13283(11) 0.80182(8) 0.05595(2)
O22_4 O 0.02761(9) 0.61081(8) 0.08123(3)
O23_4 O 0.00235(8) 0.78808(8) 0.08251(3)
O24_4 O 0.12142(8) 0.66901(8) 0.08415(3)
Ga4_4 Ga 0.007785(15) 0.341118(15) 0.9167
Ga1_4 Ga 0.992215(15) 0.658882(15) 0.0833
C3_4 C 0.89874(12) 0.51311(13) 0.22640(4)
H2_4 H 0.8820 0.4963 0.2378
C4_4 C 0.74979(13) 0.52467(14) 0.24094(4)
H3_4 H 0.7173 0.4950 0.2467
C5_4 C 0.96185(11) 0.47232(11) 0.22958(3)
C6_4 C 0.75553(12) 0.57786(13) 0.23937(4)
C7_4 C 0.71065(12) 0.58821(12) 0.24646(4)
C8_4 C 0.94089(11) 0.50478(12) 0.21908(4)
C10_4 C 0.96497(13) 0.52796(14) 0.20202(4)
H4_4 H 0.9936 0.5219 0.1970
C11_4 C 0.80278(15) 0.62073(15) 0.23095(5)
H5_4 H 0.8071 0.6573 0.2300
C12_4 C 0.93089(15) 0.58128(19) 0.16049(5)
H6_4 H 0.8916 0.5631 0.1631
C13_4 C 0.94995(14) 0.60494(17) 0.14358(5)
H7_4 H 0.9238 0.6024 0.1345
C15_4 C 0.84391(15) 0.61055(16) 0.22389(5)
H9_4 H 0.8763 0.6403 0.2181
C16_4 C 0.94663(14) 0.56007(17) 0.19242(4)
C17_4 C 0.90483(14) 0.56832(15) 0.20016(4)
H10_4 H 0.8922 0.5900 0.1937
C18_4 C 0.96819(14) 0.58341(16) 0.17405(4)
C19_4 C 0.79100(14) 0.51465(15) 0.23420(5)
H11_4 H 0.7872 0.4784 0.2357
C20_4 C 0.88082(13) 0.54565(14) 0.21724(4)
C21_4 C 0.83816(14) 0.55704(15) 0.22521(4)
O1_4 O 0.91976(11) 0.58642(11) 0.0833
O3_4 O 0.93802(8) 0.45138(8) 0.24470(2)
O5_4 O 0.98770(9) 0.65093(10) 0.11002(3)
O6_4 O 0.72252(8) 0.63906(9) 0.24790(3)
O7_4 O 0.66432(8) 0.54525(8) 0.25082(3)
C22_4 C 0.96699(16) 0.71116(13) 0.01410(4)
H12_4 H 0.9846 0.7503 0.0169
C23_4 C 0.96584(14) 0.67374(13) 0.02703(4)
C30_4 C 0.99130(12) 0.69320(12) 0.04563(4)
C33_4 C 0.91461(19) 0.59756(15) 0.00618(5)
H17_4 H 0.8964 0.5583 0.0036
C34_4 C 0.93827(17) 0.61662(14) 0.02309(5)
H18_4 H 0.9357 0.5905 0.0322
O13_4 O 0.98426(10) 0.65437(9) 0.05665(3)
O21_4 O 0.94415(8) 0.69427(9) 0.08543(3)
C24_4 C 0.84644(13) 0.56541(12) 0.94027(4)
H13_4 H 0.8296 0.5487 0.9289
C25_4 C 0.85800(14) 0.41646(13) 0.92573(4)
H14_4 H 0.8283 0.3840 0.9200
C26_4 C 0.80565(11) 0.62852(11) 0.93709(3)
C27_4 C 0.91119(13) 0.42220(12) 0.92730(4)
C28_4 C 0.92154(12) 0.37732(12) 0.92021(4)
C29_4 C 0.83811(12) 0.60756(11) 0.94759(4)
C31_4 C 0.86129(14) 0.63164(13) 0.96465(4)
H15_4 H 0.8552 0.6603 0.9697
C32_4 C 0.95406(15) 0.46945(15) 0.93572(5)
H16_4 H 0.9906 0.4738 0.9367
C35_4 C 0.94242(16) 0.69172(14) 0.99698(4)
H19_4 H 0.9432 0.7178 0.9882
C36_4 C 0.94388(16) 0.51058(15) 0.94278(5)
H20_4 H 0.9736 0.5430 0.9486
C37_4 C 0.89340(17) 0.61330(14) 0.97425(4)
C38_4 C 0.90165(15) 0.57150(14) 0.96651(4)
H21_4 H 0.9233 0.5589 0.9730
C39_4 C 0.91674(16) 0.63486(14) 0.99262(4)
C40_4 C 0.84798(15) 0.45767(14) 0.93247(5)
H22_4 H 0.8117 0.4539 0.9310
C41_4 C 0.87898(14) 0.54749(13) 0.94943(4)
C42_4 C 0.89037(15) 0.50483(14) 0.94146(4)
O11_4 O 0.78471(8) 0.60469(8) 0.92197(2)
O12_4 O 0.80182(8) 0.66900(8) 0.94405(2)
O14_4 O 0.97239(9) 0.38919(8) 0.91877(3)
O15_4 O 0.87858(8) 0.33099(8) 0.91585(3)
Ga6_3 Ga 0.877689(12) 0.266878(12) 0.903529(4)
Ga7_2 Ga 0.733122(12) 0.610811(17) 0.903529(4)
Ga11_4 Ga 0.788978(12) 0.722522(17) 0.929804(4)
Ga1_5 Ga 0.666667(21) 0.007785(15) 0.0833
C3_5 C 0.61437(18) 0.10126(12) 0.22640(4)
H2_5 H 0.6143 0.1180 0.2378
C4_5 C 0.77488(19) 0.25021(13) 0.24094(4)
H3_5 H 0.7777 0.2827 0.2467
C5_5 C 0.51047(16) 0.03815(11) 0.22958(3)
C6_5 C 0.82233(18) 0.24447(12) 0.23937(4)
C7_5 C 0.87756(17) 0.28935(12) 0.24646(4)
C8_5 C 0.56389(16) 0.05911(11) 0.21908(4)
C10_5 C 0.56299(19) 0.03503(13) 0.20202(4)
H4_5 H 0.5283 0.0064 0.1970
C11_5 C 0.81795(21) 0.19722(15) 0.23095(5)
H5_5 H 0.8502 0.1929 0.2300
C12_5 C 0.65039(24) 0.06911(15) 0.16049(5)
H6_5 H 0.6715 0.1084 0.1631
C13_5 C 0.65499(22) 0.05005(14) 0.14358(5)
H7_5 H 0.6786 0.0762 0.1345
C15_5 C 0.76664(22) 0.15609(15) 0.22389(5)
H9_5 H 0.7640 0.1237 0.2181
C16_5 C 0.61344(22) 0.05337(14) 0.19242(4)
C17_5 C 0.66349(21) 0.09517(14) 0.20016(4)
H10_5 H 0.6978 0.1078 0.1937
C18_5 C 0.61522(21) 0.03181(14) 0.17405(4)
C19_5 C 0.72365(21) 0.20900(14) 0.23420(5)
H11_5 H 0.6912 0.2128 0.2357
C20_5 C 0.66483(19) 0.11918(13) 0.21724(4)
C21_5 C 0.71888(21) 0.16184(14) 0.22521(4)
O1_5 O 0.66666(16) 0.08024(11) 0.0833
O3_5 O 0.51336(11) 0.06198(8) 0.24470(2)
O5_5 O 0.66323(13) 0.01230(9) 0.11002(3)
O6_5 O 0.91654(12) 0.27748(8) 0.24790(3)
O7_5 O 0.88093(11) 0.33568(8) 0.25082(3)
C22_5 C 0.74416(21) 0.03301(16) 0.01410(4)
H12_5 H 0.7656 0.0154 0.0169
C23_5 C 0.70789(19) 0.03416(14) 0.02703(4)
C30_5 C 0.70189(17) 0.00870(12) 0.04563(4)
C33_5 C 0.68294(24) 0.08539(19) 0.00618(5)
H17_5 H 0.6618 0.1036 0.0036
C34_5 C 0.67834(22) 0.06173(17) 0.02309(5)
H18_5 H 0.6547 0.0643 0.0322
O13_5 O 0.67010(13) 0.01574(10) 0.05665(3)
O21_5 O 0.75013(12) 0.05585(8) 0.08543(3)
C24_5 C 0.71896(18) 0.15356(13) 0.94027(4)
H13_5 H 0.7190 0.1704 0.9289
C25_5 C 0.55845(19) 0.14200(14) 0.92573(4)
H14_5 H 0.5556 0.1717 0.9200
C26_5 C 0.82286(16) 0.19435(11) 0.93709(3)
C27_5 C 0.51100(18) 0.08881(13) 0.92730(4)
C28_5 C 0.45577(17) 0.07846(12) 0.92021(4)
C29_5 C 0.76944(16) 0.16189(12) 0.94759(4)
C31_5 C 0.77034(19) 0.13871(14) 0.96465(4)
H15_5 H 0.8050 0.1448 0.9697
C32_5 C 0.51538(21) 0.04594(15) 0.93572(5)
H16_5 H 0.4831 0.0094 0.9367
C35_5 C 0.74929(21) 0.05758(16) 0.99698(4)
H19_5 H 0.7745 0.0568 0.9882
C36_5 C 0.56669(22) 0.05612(16) 0.94278(5)
H20_5 H 0.5693 0.0264 0.9486
C37_5 C 0.71989(22) 0.10660(17) 0.97425(4)
C38_5 C 0.66984(21) 0.09835(15) 0.96651(4)
H21_5 H 0.6355 0.0767 0.9730
C39_5 C 0.71811(21) 0.08326(16) 0.99262(4)
C40_5 C 0.60968(21) 0.15202(15) 0.93247(5)
H22_5 H 0.6421 0.1883 0.9310
C41_5 C 0.66850(19) 0.12102(14) 0.94943(4)
C42_5 C 0.61445(21) 0.10963(15) 0.94146(4)
O11_5 O 0.81997(11) 0.21529(8) 0.92197(2)
O12_5 O 0.86717(11) 0.19818(8) 0.94405(2)
O14_5 O 0.41679(12) 0.02761(9) 0.91877(3)
O15_5 O 0.45240(11) 0.12142(8) 0.91585(3)
Ga6_4 Ga 0.389189(17) 0.122311(12) 0.903529(4)
Ga11_5 Ga 0.933545(21) 0.211022(12) 0.929804(4)
Ga2_5 Ga 0.610811(17) 0.877689(12) 0.096471(4)
C1_5 C 0.58917(21) 0.95551(13) 0.15257(4)
H1_5 H 0.5677 0.9164 0.1498
C2_5 C 0.62544(19) 0.99293(13) 0.13964(4)
C9_5 C 0.63144(17) 0.97347(12) 0.12104(4)
C14_5 C 0.58404(21) 0.97495(14) 0.16969(4)
H8_5 H 0.5588 0.9489 0.1785
O2_5 O 0.55190(13) 0.81132(9) 0.10993(3)
O4_5 O 0.46616(11) 0.99767(8) 0.22262(2)
O8_5 O 0.60571(11) 0.92127(8) 0.11782(2)
O9_5 O 0.66666(13) 0.93922(9) 0.0833
Ga3_5 Ga 0.722522(17) 0.933545(12) 0.070196(4)
O10_5 O 0.78143(13) 0.92609(9) 0.05674(3)
O16_5 O 0.72762(11) 0.98223(8) 0.04885(2)
O17_5 O 0.72865(14) 0.88195(8) 0.08863(2)
O18_5 O 0.60469(14) 0.81997(11) 0.07803(2)
O19_5 O 0.66434(14) 0.86484(8) 0.11071(2)
O20_5 O 0.66900(14) 0.86717(11) 0.05595(2)
O22_5 O 0.58321(12) 0.97239(9) 0.08123(3)
O23_5 O 0.78574(11) 0.99765(8) 0.08251(3)
O24_5 O 0.54760(11) 0.87858(8) 0.08415(3)
Ga4_5 Ga 0.333333(21) 0.992215(15) 0.9167
Ga1_6 Ga 0.341118(15) 0.333333(21) 0.0833
Ga2_6 Ga 0.266878(12) 0.389189(17) 0.096471(4)
C1_6 C 0.36634(16) 0.41083(21) 0.15257(4)
H1_6 H 0.3487 0.4323 0.1498
C2_6 C 0.36749(14) 0.37456(19) 0.13964(4)
C3_6 C 0.48689(13) 0.38563(18) 0.22640(4)
H2_6 H 0.5037 0.3857 0.2378
C4_6 C 0.47533(14) 0.22512(19) 0.24094(4)
H3_6 H 0.5050 0.2223 0.2467
C5_6 C 0.52768(11) 0.48953(16) 0.22958(3)
C6_6 C 0.42214(13) 0.17767(18) 0.23937(4)
C7_6 C 0.41179(12) 0.12244(17) 0.24646(4)
C8_6 C 0.49522(12) 0.43611(16) 0.21908(4)
C9_6 C 0.34203(12) 0.36856(17) 0.12104(4)
C10_6 C 0.47204(14) 0.43701(19) 0.20202(4)
H4_6 H 0.4781 0.4717 0.1970
C11_6 C 0.37927(15) 0.18205(21) 0.23095(5)
H5_6 H 0.3427 0.1498 0.2300
C12_6 C 0.41872(19) 0.34961(24) 0.16049(5)
H6_6 H 0.4369 0.3285 0.1631
C13_6 C 0.39506(17) 0.34501(22) 0.14358(5)
H7_6 H 0.3976 0.3214 0.1345
C14_6 C 0.39091(16) 0.41596(21) 0.16969(4)
H8_6 H 0.3901 0.4412 0.1785
C15_6 C 0.38945(16) 0.23336(22) 0.22389(5)
H9_6 H 0.3597 0.2360 0.2181
C16_6 C 0.43993(17) 0.38656(22) 0.19242(4)
C17_6 C 0.43168(15) 0.33651(21) 0.20016(4)
H10_6 H 0.4100 0.3022 0.1937
C18_6 C 0.41659(16) 0.38478(21) 0.17405(4)
C19_6 C 0.48535(15) 0.27635(21) 0.23420(5)
H11_6 H 0.5216 0.3088 0.2357
C20_6 C 0.45435(14) 0.33517(19) 0.21724(4)
C21_6 C 0.44296(15) 0.28112(21) 0.22521(4)
O1_6 O 0.41358(11) 0.33334(16) 0.0833
O2_6 O 0.25942(9) 0.44810(13) 0.10993(3)
O3_6 O 0.54862(8) 0.48664(11) 0.24470(2)
O4_6 O 0.53151(8) 0.53384(11) 0.22262(2)
O5_6 O 0.34907(10) 0.33677(13) 0.11002(3)
O6_6 O 0.36094(9) 0.08346(12) 0.24790(3)
O7_6 O 0.45475(8) 0.11907(11) 0.25082(3)
O8_6 O 0.31556(8) 0.39429(11) 0.11782(2)
O9_6 O 0.27256(9) 0.33334(13) 0.0833
Ga3_6 Ga 0.211022(12) 0.277478(17) 0.070196(4)
C22_6 C 0.28884(13) 0.25584(21) 0.01410(4)
H12_6 H 0.2497 0.2344 0.0169
C23_6 C 0.32626(13) 0.29211(19) 0.02703(4)
C30_6 C 0.30680(12) 0.29811(17) 0.04563(4)
C33_6 C 0.40244(15) 0.31706(24) 0.00618(5)
H17_6 H 0.4417 0.3382 0.0036
C34_6 C 0.38338(14) 0.32166(22) 0.02309(5)
H18_6 H 0.4095 0.3453 0.0322
O10_6 O 0.14465(9) 0.21857(13) 0.05674(3)
O13_6 O 0.34563(9) 0.32990(13) 0.05665(3)
O16_6 O 0.25460(8) 0.27238(11) 0.04885(2)
O17_6 O 0.15331(11) 0.27135(14) 0.08863(2)
O18_6 O 0.21529(8) 0.39531(14) 0.07803(2)
O19_6 O 0.20051(11) 0.33566(14) 0.11071(2)
O20_6 O 0.19818(8) 0.33100(14) 0.05595(2)
O21_6 O 0.30573(9) 0.24987(12) 0.08543(3)
O22_6 O 0.38919(8) 0.41679(12) 0.08123(3)
O23_6 O 0.21192(8) 0.21426(11) 0.08251(3)
O24_6 O 0.33099(8) 0.45240(11) 0.08415(3)
C24_6 C 0.43459(12) 0.28104(18) 0.94027(4)
H13_6 H 0.4513 0.2810 0.9289
C25_6 C 0.58354(13) 0.44155(19) 0.92573(4)
H14_6 H 0.6160 0.4444 0.9200
C26_6 C 0.37148(11) 0.17714(16) 0.93709(3)
C27_6 C 0.57780(12) 0.48900(18) 0.92730(4)
C28_6 C 0.62268(12) 0.54423(17) 0.92021(4)
C29_6 C 0.39244(11) 0.23056(16) 0.94759(4)
C31_6 C 0.36836(13) 0.22966(19) 0.96465(4)
H15_6 H 0.3397 0.1950 0.9697
C32_6 C 0.53055(15) 0.48462(21) 0.93572(5)
H16_6 H 0.5262 0.5169 0.9367
C35_6 C 0.30828(14) 0.25071(21) 0.99698(4)
H19_6 H 0.2822 0.2255 0.9882
C36_6 C 0.48942(15) 0.43331(22) 0.94278(5)
H20_6 H 0.4570 0.4307 0.9486
C37_6 C 0.38670(14) 0.28011(22) 0.97425(4)
C38_6 C 0.42850(14) 0.33016(21) 0.96651(4)
H21_6 H 0.4411 0.3645 0.9730
C39_6 C 0.36514(14) 0.28189(21) 0.99262(4)
C40_6 C 0.54233(14) 0.39032(21) 0.93247(5)
H22_6 H 0.5461 0.3579 0.9310
C41_6 C 0.45251(13) 0.33150(19) 0.94943(4)
C42_6 C 0.49517(14) 0.38555(21) 0.94146(4)
O11_6 O 0.39531(8) 0.18003(11) 0.92197(2)
O12_6 O 0.33100(8) 0.13283(11) 0.94405(2)
O14_6 O 0.61081(8) 0.58321(12) 0.91877(3)
O15_6 O 0.66901(8) 0.54760(11) 0.91585(3)
Ga4_6 Ga 0.658882(15) 0.666667(21) 0.9167
Ga11_6 Ga 0.277478(17) 0.066455(21) 0.929804(4)
Ga1_7 Ga 0.325549(15) 0.325548(15) 0.7500
Ga2_7 Ga 0.399789(12) 0.455644(12) 0.736862(4)
C1_7 C 0.30033(16) 0.37782(13) 0.68076(4)
H1_7 H 0.3180 0.4169 0.6835
C2_7 C 0.29918(14) 0.34040(13) 0.69369(4)
C3_7 C 0.17978(13) 0.23207(12) 0.60693(4)
H2_7 H 0.1630 0.2153 0.5955
C4_7 C 0.19134(14) 0.08312(13) 0.59239(4)
H3_7 H 0.1617 0.0506 0.5866
C5_7 C 0.13899(11) 0.29518(11) 0.60375(3)
C6_7 C 0.24453(13) 0.08886(12) 0.59396(4)
C7_7 C 0.25488(12) 0.04398(12) 0.58687(4)
C8_7 C 0.17145(12) 0.27422(11) 0.61425(4)
C9_7 C 0.32464(12) 0.35986(12) 0.71229(4)
C10_7 C 0.19463(14) 0.29830(13) 0.63131(4)
H4_7 H 0.1886 0.3269 0.6363
C11_7 C 0.28740(15) 0.13611(15) 0.60238(5)
H5_7 H 0.3240 0.1404 0.6033
C12_7 C 0.24795(19) 0.26422(15) 0.67284(5)
H6_7 H 0.2298 0.2249 0.6702
C13_7 C 0.27161(17) 0.28328(14) 0.68975(5)
H7_7 H 0.2691 0.2571 0.6988
C14_7 C 0.27576(16) 0.35838(14) 0.66364(4)
H8_7 H 0.2766 0.3844 0.6548
C15_7 C 0.27722(16) 0.17724(15) 0.60944(5)
H9_7 H 0.3070 0.2096 0.6152
C16_7 C 0.22674(17) 0.27996(14) 0.64091(4)
C17_7 C 0.23499(15) 0.23816(14) 0.63317(4)
H10_7 H 0.2567 0.2255 0.6396
C18_7 C 0.25008(16) 0.30152(14) 0.65928(4)
C19_7 C 0.18132(15) 0.12433(14) 0.59913(5)
H11_7 H 0.1451 0.1205 0.5976
C20_7 C 0.21232(14) 0.21415(13) 0.61609(4)
C21_7 C 0.22371(15) 0.17149(14) 0.60812(4)
O1_7 O 0.25309(11) 0.25309(11) 0.7500
O2_7 O 0.40725(9) 0.52201(9) 0.72340(3)
O3_7 O 0.11805(8) 0.27135(8) 0.58863(2)
O4_7 O 0.13516(8) 0.33566(8) 0.61071(2)
O5_7 O 0.31760(10) 0.32103(9) 0.72331(3)
O6_7 O 0.30573(9) 0.05585(8) 0.58543(3)
O8_7 O 0.35111(8) 0.41206(8) 0.71551(2)
O9_7 O 0.39411(9) 0.39411(9) 0.7500
Ga3_7 Ga 0.455644(12) 0.399789(12) 0.763138(4)
C22_7 C 0.37782(13) 0.30033(16) 0.81924(4)
H12_7 H 0.4169 0.3180 0.8165
C23_7 C 0.34040(13) 0.29918(14) 0.80631(4)
C24_7 C 0.23207(12) 0.17978(13) 0.89307(4)
H13_7 H 0.2153 0.1630 0.9045
C25_7 C 0.08312(13) 0.19134(14) 0.90761(4)
H14_7 H 0.0506 0.1617 0.9134
C26_7 C 0.29518(11) 0.13899(11) 0.89625(3)
C27_7 C 0.08886(12) 0.24453(13) 0.90604(4)
C28_7 C 0.04398(12) 0.25488(12) 0.91313(4)
C29_7 C 0.27422(11) 0.17145(12) 0.88575(4)
C30_7 C 0.35986(12) 0.32464(12) 0.78771(4)
C31_7 C 0.29830(13) 0.19463(14) 0.86869(4)
H15_7 H 0.3269 0.1886 0.8637
C32_7 C 0.13611(15) 0.28740(15) 0.89762(5)
H16_7 H 0.1404 0.3240 0.8967
C33_7 C 0.26422(15) 0.24795(19) 0.82716(5)
H17_7 H 0.2249 0.2298 0.8298
C34_7 C 0.28328(14) 0.27161(17) 0.81025(5)
H18_7 H 0.2571 0.2691 0.8012
C35_7 C 0.35838(14) 0.27576(16) 0.83636(4)
H19_7 H 0.3844 0.2766 0.8452
C36_7 C 0.17724(15) 0.27722(16) 0.89056(5)
H20_7 H 0.2096 0.3070 0.8848
C37_7 C 0.27996(14) 0.22674(17) 0.85909(4)
C38_7 C 0.23816(14) 0.23499(15) 0.86683(4)
H21_7 H 0.2255 0.2567 0.8604
C39_7 C 0.30152(14) 0.25008(16) 0.84072(4)
C40_7 C 0.12433(14) 0.18132(15) 0.90087(5)
H22_7 H 0.1205 0.1451 0.9024
C41_7 C 0.21415(13) 0.21232(14) 0.88391(4)
C42_7 C 0.17149(14) 0.22371(15) 0.89188(4)
O10_7 O 0.52201(9) 0.40725(9) 0.77660(3)
O11_7 O 0.27135(8) 0.11805(8) 0.91137(2)
O12_7 O 0.33566(8) 0.13516(8) 0.88929(2)
O13_7 O 0.32103(9) 0.31760(10) 0.77669(3)
O14_7 O 0.05585(8) 0.30573(9) 0.91457(3)
O16_7 O 0.41206(8) 0.35111(8) 0.78449(2)
O17_7 O 0.51336(11) 0.45138(8) 0.74470(2)
O18_7 O 0.45138(8) 0.51336(11) 0.75530(2)
O19_7 O 0.46616(11) 0.46849(8) 0.72262(2)
O20_7 O 0.46849(8) 0.46616(11) 0.77738(2)
O21_7 O 0.36094(9) 0.27748(8) 0.74790(3)
O22_7 O 0.27748(8) 0.36094(9) 0.75210(3)
O23_7 O 0.45475(8) 0.33568(8) 0.75082(3)
O24_7 O 0.33568(8) 0.45475(8) 0.74918(3)
O7_7 O 0.21192(8) 0.99765(8) 0.58251(3)
O15_7 O 0.99765(8) 0.21192(8) 0.91749(3)
O7_8 O 0.00235(8) 0.21426(11) 0.58251(3)
Ga1_8 Ga 0.674452(15) 0.000000(21) 0.7500
C4_8 C 0.91688(13) 0.10821(19) 0.59239(4)
H3_8 H 0.9494 0.1110 0.5866
C6_8 C 0.91114(12) 0.15566(18) 0.59396(4)
C7_8 C 0.95602(12) 0.21089(17) 0.58687(4)
C11_8 C 0.86389(15) 0.15128(21) 0.60238(5)
H5_8 H 0.8596 0.1835 0.6033
H6_8 H 0.7751 0.0048 0.6702
H7_8 H 0.7429 0.0119 0.6988
C15_8 C 0.82276(15) 0.09997(22) 0.60944(5)
H9_8 H 0.7904 0.0973 0.6152
H10_8 H 0.7745 0.0311 0.6396
C19_8 C 0.87567(14) 0.05698(21) 0.59913(5)
H11_8 H 0.8795 0.0245 0.5976
C21_8 C 0.82851(14) 0.05221(21) 0.60812(4)
O1_8 O 0.74691(11) -0.00001(16) 0.7500
O6_8 O 0.94415(8) 0.24987(12) 0.58543(3)
O9_8 O 0.60589(9) -0.00001(13) 0.7500
Ga3_8 Ga 0.600211(12) 0.055856(17) 0.763138(4)
C22_8 C 0.69967(16) 0.07750(21) 0.81924(4)
H12_8 H 0.6820 0.0990 0.8165
C23_8 C 0.70082(14) 0.04123(19) 0.80631(4)
C24_8 C 0.82022(13) 0.05230(18) 0.89307(4)
H13_8 H 0.8370 0.0524 0.9045
C26_8 C 0.86101(11) 0.15620(16) 0.89625(3)
C29_8 C 0.82855(12) 0.10278(16) 0.88575(4)
C30_8 C 0.67536(12) 0.03523(17) 0.78771(4)
C31_8 C 0.80537(14) 0.10368(19) 0.86869(4)
H15_8 H 0.8114 0.1384 0.8637
C33_8 C 0.75205(19) 0.01628(24) 0.82716(5)
C34_8 C 0.72839(17) 0.01168(22) 0.81025(5)
C35_8 C 0.72424(16) 0.08263(21) 0.83636(4)
H19_8 H 0.7234 0.1079 0.8452
C37_8 C 0.77326(17) 0.05323(22) 0.85909(4)
C38_8 C 0.76501(15) 0.00318(21) 0.86683(4)
C39_8 C 0.74992(16) 0.05145(21) 0.84072(4)
C41_8 C 0.78768(14) 0.00184(19) 0.88391(4)
O10_8 O 0.59275(9) 0.11477(13) 0.77660(3)
O11_8 O 0.88195(8) 0.15331(11) 0.91137(2)
O12_8 O 0.86484(8) 0.20051(11) 0.88929(2)
O13_8 O 0.68240(10) 0.00344(13) 0.77669(3)
O16_8 O 0.64889(8) 0.06096(11) 0.78449(2)
O17_8 O 0.54862(8) 0.06198(14) 0.74470(2)
O20_8 O 0.53384(11) 0.00233(14) 0.77738(2)
O21_8 O 0.72252(8) 0.08346(12) 0.74790(3)
O23_8 O 0.66432(8) 0.11907(11) 0.75082(3)
H25 H 0.775704 0.033374 0.74316
H26 H 0.759835 0.00164089 0.762853
Ga1_9 Ga 0.674452(15) 1.000000(21) 0.7500
Ga2_8 Ga 0.544356(12) 0.944144(17) 0.736862(4)
C1_8 C 0.62218(13) 0.92250(21) 0.68076(4)
H1_8 H 0.5831 0.9010 0.6835
C2_8 C 0.65960(13) 0.95877(19) 0.69369(4)
C3_8 C 0.76793(12) 0.94770(18) 0.60693(4)
H2_8 H 0.7847 0.9476 0.5955
C5_8 C 0.70482(11) 0.84380(16) 0.60375(3)
C8_8 C 0.72578(11) 0.89722(16) 0.61425(4)
C9_8 C 0.64014(12) 0.96477(17) 0.71229(4)
C10_8 C 0.70170(13) 0.89632(19) 0.63131(4)
H4_8 H 0.6731 0.8616 0.6363
C12_8 C 0.73578(15) 0.98372(24) 0.67284(5)
C13_8 C 0.71672(14) 0.98832(22) 0.68975(5)
C14_8 C 0.64162(14) 0.91737(21) 0.66364(4)
H8_8 H 0.6156 0.8921 0.6548
C16_8 C 0.72004(14) 0.94677(22) 0.64091(4)
C17_8 C 0.76184(14) 0.99682(21) 0.63317(4)
C18_8 C 0.69848(14) 0.94855(21) 0.65928(4)
C20_8 C 0.78585(13) 0.99816(19) 0.61609(4)
O1_9 O 0.74691(11) 0.99999(16) 0.7500
O2_8 O 0.47799(9) 0.88523(13) 0.72340(3)
O3_8 O 0.72865(8) 0.84669(11) 0.58863(2)
O4_8 O 0.66434(8) 0.79949(11) 0.61071(2)
O5_8 O 0.67897(9) 0.99656(13) 0.72331(3)
O8_8 O 0.58794(8) 0.93904(11) 0.71551(2)
O9_9 O 0.60589(9) 0.99999(13) 0.7500
C25_8 C 0.80866(14) 0.89179(19) 0.90761(4)
H14_8 H 0.8383 0.8890 0.9134
C27_8 C 0.75547(13) 0.84434(18) 0.90604(4)
C28_8 C 0.74512(12) 0.78911(17) 0.91313(4)
C32_8 C 0.71260(15) 0.84872(21) 0.89762(5)
H16_8 H 0.6760 0.8165 0.8967
H17_8 H 0.7702 0.9952 0.8298
H18_8 H 0.7309 0.9881 0.8012
C36_8 C 0.72278(16) 0.90003(22) 0.89056(5)
H20_8 H 0.6930 0.9027 0.8848
H21_8 H 0.7433 0.9689 0.8604
C40_8 C 0.81868(15) 0.94302(21) 0.90087(5)
H22_8 H 0.8549 0.9755 0.9024
C42_8 C 0.77629(15) 0.94779(21) 0.89188(4)
O14_8 O 0.69427(9) 0.75013(12) 0.91457(3)
O15_8 O 0.78808(8) 0.78574(11) 0.91749(3)
O18_8 O 0.48664(11) 0.93802(14) 0.75530(2)
O19_8 O 0.53151(8) 0.99767(14) 0.72262(2)
O22_8 O 0.63906(9) 0.91654(12) 0.75210(3)
O24_8 O 0.54525(8) 0.88093(11) 0.74918(3)
O15_9 O 0.21426(11) 0.00235(8) 0.91749(3)
Ga1_10 Ga -0.000000(21) 0.674451(15) 0.7500
Ga2_9 Ga 0.055856(17) 0.600211(12) 0.736862(4)
C1_9 C 0.07750(21) 0.69967(16) 0.68076(4)
H1_9 H 0.0990 0.6820 0.6835
C2_9 C 0.04123(19) 0.70082(14) 0.69369(4)
C3_9 C 0.05230(18) 0.82022(13) 0.60693(4)
H2_9 H 0.0524 0.8370 0.5955
C5_9 C 0.15620(16) 0.86101(11) 0.60375(3)
C8_9 C 0.10278(16) 0.82855(12) 0.61425(4)
C9_9 C 0.03523(17) 0.67536(12) 0.71229(4)
C10_9 C 0.10368(19) 0.80537(14) 0.63131(4)
H4_9 H 0.1384 0.8114 0.6363
C12_9 C 0.01628(24) 0.75205(19) 0.67284(5)
C13_9 C 0.01168(22) 0.72839(17) 0.68975(5)
C14_9 C 0.08263(21) 0.72424(16) 0.66364(4)
H8_9 H 0.1079 0.7234 0.6548
C16_9 C 0.05323(22) 0.77326(17) 0.64091(4)
C17_9 C 0.00318(21) 0.76501(15) 0.63317(4)
C18_9 C 0.05145(21) 0.74992(16) 0.65928(4)
C20_9 C 0.00184(19) 0.78768(14) 0.61609(4)
O1_10 O 0.00001(16) 0.74691(11) 0.7500
O2_9 O 0.11477(13) 0.59275(9) 0.72340(3)
O3_9 O 0.15331(11) 0.88195(8) 0.58863(2)
O4_9 O 0.20051(11) 0.86484(8) 0.61071(2)
O5_9 O 0.00344(13) 0.68240(10) 0.72331(3)
O8_9 O 0.06096(11) 0.64889(8) 0.71551(2)
O9_10 O 0.00001(13) 0.60589(9) 0.7500
C25_9 C 0.10821(19) 0.91688(13) 0.90761(4)
H14_9 H 0.1110 0.9494 0.9134
C27_9 C 0.15566(18) 0.91114(12) 0.90604(4)
C28_9 C 0.21089(17) 0.95602(12) 0.91313(4)
C32_9 C 0.15128(21) 0.86389(15) 0.89762(5)
H16_9 H 0.1835 0.8596 0.8967
H17_9 H 0.0048 0.7751 0.8298
H18_9 H 0.0119 0.7429 0.8012
C36_9 C 0.09997(22) 0.82276(15) 0.89056(5)
H20_9 H 0.0973 0.7904 0.8848
H21_9 H 0.0311 0.7745 0.8604
C40_9 C 0.05698(21) 0.87567(14) 0.90087(5)
H22_9 H 0.0245 0.8795 0.9024
C42_9 C 0.05221(21) 0.82851(14) 0.89188(4)
O14_9 O 0.24987(12) 0.94415(8) 0.91457(3)
O18_9 O 0.06198(14) 0.54862(8) 0.75530(2)
O19_9 O 0.00233(14) 0.53384(11) 0.72262(2)
O22_9 O 0.08346(12) 0.72252(8) 0.75210(3)
O24_9 O 0.11907(11) 0.66432(8) 0.74918(3)
Ga1_11 Ga 1.000000(21) 0.674451(15) 0.7500
C4_9 C 0.89179(19) 0.80866(14) 0.59239(4)
H3_9 H 0.8890 0.8383 0.5866
C6_9 C 0.84434(18) 0.75547(13) 0.59396(4)
C7_9 C 0.78911(17) 0.74512(12) 0.58687(4)
C11_9 C 0.84872(21) 0.71260(15) 0.60238(5)
H5_9 H 0.8165 0.6760 0.6033
H6_9 H 0.9952 0.7702 0.6702
H7_9 H 0.9881 0.7309 0.6988
C15_9 C 0.90003(22) 0.72278(16) 0.60944(5)
H9_9 H 0.9027 0.6930 0.6152
H10_9 H 0.9689 0.7433 0.6396
C19_9 C 0.94302(21) 0.81868(15) 0.59913(5)
H11_9 H 0.9755 0.8549 0.5976
C21_9 C 0.94779(21) 0.77629(15) 0.60812(4)
O1_11 O 1.00001(16) 0.74691(11) 0.7500
O6_9 O 0.75013(12) 0.69427(9) 0.58543(3)
O7_9 O 0.78574(11) 0.78808(8) 0.58251(3)
O9_11 O 1.00001(13) 0.60589(9) 0.7500
Ga3_9 Ga 0.944144(17) 0.544356(12) 0.763138(4)
C22_9 C 0.92250(21) 0.62218(13) 0.81924(4)
H12_9 H 0.9010 0.5831 0.8165
C23_9 C 0.95877(19) 0.65960(13) 0.80631(4)
C24_9 C 0.94770(18) 0.76793(12) 0.89307(4)
H13_9 H 0.9476 0.7847 0.9045
C26_9 C 0.84380(16) 0.70482(11) 0.89625(3)
C29_9 C 0.89722(16) 0.72578(11) 0.88575(4)
C30_9 C 0.96477(17) 0.64014(12) 0.78771(4)
C31_9 C 0.89632(19) 0.70170(13) 0.86869(4)
H15_9 H 0.8616 0.6731 0.8637
C33_9 C 0.98372(24) 0.73578(15) 0.82716(5)
C34_9 C 0.98832(22) 0.71672(14) 0.81025(5)
C35_9 C 0.91737(21) 0.64162(14) 0.83636(4)
H19_9 H 0.8921 0.6156 0.8452
C37_9 C 0.94677(22) 0.72004(14) 0.85909(4)
C38_9 C 0.99682(21) 0.76184(14) 0.86683(4)
C39_9 C 0.94855(21) 0.69848(14) 0.84072(4)
C41_9 C 0.99816(19) 0.78585(13) 0.88391(4)
O10_9 O 0.88523(13) 0.47799(9) 0.77660(3)
O11_9 O 0.84669(11) 0.72865(8) 0.91137(2)
O12_9 O 0.79949(11) 0.66434(8) 0.88929(2)
O13_9 O 0.99656(13) 0.67897(9) 0.77669(3)
O16_9 O 0.93904(11) 0.58794(8) 0.78449(2)
O17_9 O 0.93802(14) 0.48664(11) 0.74470(2)
O20_9 O 0.99767(14) 0.53151(8) 0.77738(2)
O21_9 O 0.91654(12) 0.63906(9) 0.74790(3)
O23_9 O 0.88093(11) 0.54525(8) 0.75082(3)
H25_2 H 0.966626 0.74233 0.74316
H26_2 H 0.998359 0.758194 0.762853
H25_3 H 0.033374 0.775704 0.75684
H26_3 H 0.00164089 0.759835 0.737147
H25_4 H 0.74233 0.966626 0.75684
H26_4 H 0.758194 0.998359 0.737147
C3_10 C 0.48689(13) 0.10126(12) 0.72640(4)
H2_10 H 0.5037 0.1180 0.7378
C4_10 C 0.47533(14) 0.25021(13) 0.74094(4)
H3_10 H 0.5050 0.2827 0.7467
C5_10 C 0.52768(11) 0.03815(11) 0.72958(3)
C6_10 C 0.42214(13) 0.24447(12) 0.73937(4)
C7_10 C 0.41179(12) 0.28935(12) 0.74646(4)
C8_10 C 0.49522(12) 0.05911(11) 0.71908(4)
C10_10 C 0.47204(14) 0.03503(13) 0.70202(4)
H4_10 H 0.4781 0.0064 0.6970
C11_10 C 0.37927(15) 0.19722(15) 0.73095(5)
H5_10 H 0.3427 0.1929 0.7300
C12_10 C 0.41872(19) 0.06911(15) 0.66049(5)
H6_10 H 0.4369 0.1084 0.6631
C13_10 C 0.39506(17) 0.05005(14) 0.64358(5)
H7_10 H 0.3976 0.0762 0.6345
C15_10 C 0.38945(16) 0.15609(15) 0.72389(5)
H9_10 H 0.3597 0.1237 0.7181
C16_10 C 0.43993(17) 0.05337(14) 0.69242(4)
C17_10 C 0.43168(15) 0.09517(14) 0.70016(4)
H10_10 H 0.4100 0.1078 0.6937
C18_10 C 0.41659(16) 0.03181(14) 0.67405(4)
C19_10 C 0.48535(15) 0.20900(14) 0.73420(5)
H11_10 H 0.5216 0.2128 0.7357
C20_10 C 0.45435(14) 0.11918(13) 0.71724(4)
C21_10 C 0.44296(15) 0.16184(14) 0.72521(4)
O1_12 O 0.41358(11) 0.08024(11) 0.5833
O5_10 O 0.34907(10) 0.01230(9) 0.61002(3)
C22_10 C 0.28884(13) 0.03301(16) 0.51410(4)
H12_10 H 0.2497 0.0154 0.5169
C23_10 C 0.32626(13) 0.03416(14) 0.52703(4)
C24_10 C 0.43459(12) 0.15356(13) 0.44027(4)
H13_10 H 0.4513 0.1704 0.4289
C25_10 C 0.58354(13) 0.14200(14) 0.42573(4)
H14_10 H 0.6160 0.1717 0.4200
C26_10 C 0.37148(11) 0.19435(11) 0.43709(3)
C27_10 C 0.57780(12) 0.08881(13) 0.42730(4)
C28_10 C 0.62268(12) 0.07846(12) 0.42021(4)
C29_10 C 0.39244(11) 0.16189(12) 0.44759(4)
C30_10 C 0.30680(12) 0.00870(12) 0.54563(4)
C31_10 C 0.36836(13) 0.13871(14) 0.46465(4)
H15_10 H 0.3397 0.1448 0.4697
C32_10 C 0.53055(15) 0.04594(15) 0.43572(5)
H16_10 H 0.5262 0.0094 0.4367
C33_10 C 0.40244(15) 0.08539(19) 0.50618(5)
H17_10 H 0.4417 0.1036 0.5036
C34_10 C 0.38338(14) 0.06173(17) 0.52309(5)
H18_10 H 0.4095 0.0643 0.5322
C35_10 C 0.30828(14) 0.05758(16) 0.49698(4)
H19_10 H 0.2822 0.0568 0.4882
C36_10 C 0.48942(15) 0.05612(16) 0.44278(5)
H20_10 H 0.4570 0.0264 0.4486
C37_10 C 0.38670(14) 0.10660(17) 0.47425(4)
C38_10 C 0.42850(14) 0.09835(15) 0.46651(4)
H21_10 H 0.4411 0.0767 0.4730
C39_10 C 0.36514(14) 0.08326(16) 0.49262(4)
C40_10 C 0.54233(14) 0.15202(15) 0.43247(5)
H22_10 H 0.5461 0.1883 0.4310
C41_10 C 0.45251(13) 0.12102(14) 0.44943(4)
C42_10 C 0.49517(14) 0.10963(15) 0.44146(4)
O13_10 O 0.34563(9) 0.01574(10) 0.55665(3)
C1_10 C 0.36634(16) 0.95551(13) 0.65257(4)
H1_10 H 0.3487 0.9164 0.6498
C2_10 C 0.36749(14) 0.99293(13) 0.63964(4)
C9_10 C 0.34203(12) 0.97347(12) 0.62104(4)
C14_10 C 0.39091(16) 0.97495(14) 0.66969(4)
H8_10 H 0.3901 0.9489 0.6785
O2_10 O 0.25942(9) 0.81132(9) 0.60993(3)
O8_10 O 0.31556(8) 0.92127(8) 0.61782(2)
O9_12 O 0.27256(9) 0.93922(9) 0.5833
O10_10 O 0.14465(9) 0.92609(9) 0.55674(3)
O16_10 O 0.25460(8) 0.98223(8) 0.54885(2)
C1_11 C 0.04449(13) 0.41083(21) 0.65257(4)
H1_11 H 0.0836 0.4323 0.6498
C2_11 C 0.00707(13) 0.37456(19) 0.63964(4)
C9_11 C 0.02653(12) 0.36856(17) 0.62104(4)
C14_11 C 0.02505(14) 0.41596(21) 0.66969(4)
H8_11 H 0.0511 0.4412 0.6785
O2_11 O 0.18868(9) 0.44810(13) 0.60993(3)
O8_11 O 0.07873(8) 0.39429(11) 0.61782(2)
O9_13 O 0.06078(9) 0.33334(13) 0.5833
O10_11 O 0.07391(9) 0.21857(13) 0.55674(3)
O16_11 O 0.01777(8) 0.27238(11) 0.54885(2)
C3_11 C 0.89874(12) 0.38563(18) 0.72640(4)
H2_11 H 0.8820 0.3857 0.7378
C4_11 C 0.74979(13) 0.22512(19) 0.74094(4)
H3_11 H 0.7173 0.2223 0.7467
C5_11 C 0.96185(11) 0.48953(16) 0.72958(3)
C6_11 C 0.75553(12) 0.17767(18) 0.73937(4)
C7_11 C 0.71065(12) 0.12244(17) 0.74646(4)
C8_11 C 0.94089(11) 0.43611(16) 0.71908(4)
C10_11 C 0.96497(13) 0.43701(19) 0.70202(4)
H4_11 H 0.9936 0.4717 0.6970
C11_11 C 0.80278(15) 0.18205(21) 0.73095(5)
H5_11 H 0.8071 0.1498 0.7300
C12_11 C 0.93089(15) 0.34961(24) 0.66049(5)
H6_11 H 0.8916 0.3285 0.6631
C13_11 C 0.94995(14) 0.34501(22) 0.64358(5)
H7_11 H 0.9238 0.3214 0.6345
C15_11 C 0.84391(15) 0.23336(22) 0.72389(5)
H9_11 H 0.8763 0.2360 0.7181
C16_11 C 0.94663(14) 0.38656(22) 0.69242(4)
C17_11 C 0.90483(14) 0.33651(21) 0.70016(4)
H10_11 H 0.8922 0.3022 0.6937
C18_11 C 0.96819(14) 0.38478(21) 0.67405(4)
C19_11 C 0.79100(14) 0.27635(21) 0.73420(5)
H11_11 H 0.7872 0.3088 0.7357
C20_11 C 0.88082(13) 0.33517(19) 0.71724(4)
C21_11 C 0.83816(14) 0.28112(21) 0.72521(4)
O1_13 O 0.91976(11) 0.33334(16) 0.5833
O5_11 O 0.98770(9) 0.33677(13) 0.61002(3)
C22_11 C 0.96699(16) 0.25584(21) 0.51410(4)
H12_11 H 0.9846 0.2344 0.5169
C23_11 C 0.96584(14) 0.29211(19) 0.52703(4)
C24_11 C 0.84644(13) 0.28104(18) 0.44027(4)
H13_11 H 0.8296 0.2810 0.4289
C25_11 C 0.85800(14) 0.44155(19) 0.42573(4)
H14_11 H 0.8283 0.4444 0.4200
C26_11 C 0.80565(11) 0.17714(16) 0.43709(3)
C27_11 C 0.91119(13) 0.48900(18) 0.42730(4)
C28_11 C 0.92154(12) 0.54423(17) 0.42021(4)
C29_11 C 0.83811(12) 0.23056(16) 0.44759(4)
C30_11 C 0.99130(12) 0.29811(17) 0.54563(4)
C31_11 C 0.86129(14) 0.22966(19) 0.46465(4)
H15_11 H 0.8552 0.1950 0.4697
C32_11 C 0.95406(15) 0.48462(21) 0.43572(5)
H16_11 H 0.9906 0.5169 0.4367
C33_11 C 0.91461(19) 0.31706(24) 0.50618(5)
H17_11 H 0.8964 0.3382 0.5036
C34_11 C 0.93827(17) 0.32166(22) 0.52309(5)
H18_11 H 0.9357 0.3453 0.5322
C35_11 C 0.94242(16) 0.25071(21) 0.49698(4)
H19_11 H 0.9432 0.2255 0.4882
C36_11 C 0.94388(16) 0.43331(22) 0.44278(5)
H20_11 H 0.9736 0.4307 0.4486
C37_11 C 0.89340(17) 0.28011(22) 0.47425(4)
C38_11 C 0.90165(15) 0.33016(21) 0.46651(4)
H21_11 H 0.9233 0.3645 0.4730
C39_11 C 0.91674(16) 0.28189(21) 0.49262(4)
C40_11 C 0.84798(15) 0.39032(21) 0.43247(5)
H22_11 H 0.8117 0.3579 0.4310
C41_11 C 0.87898(14) 0.33150(19) 0.44943(4)
C42_11 C 0.89037(15) 0.38555(21) 0.44146(4)
O13_11 O 0.98426(10) 0.32990(13) 0.55665(3)
C1_12 C 0.58917(21) 0.63366(16) 0.65257(4)
H1_12 H 0.5677 0.6513 0.6498
C2_12 C 0.62544(19) 0.63251(14) 0.63964(4)
C3_12 C 0.61437(18) 0.51311(13) 0.72640(4)
H2_12 H 0.6143 0.4963 0.7378
C4_12 C 0.77488(19) 0.52467(14) 0.74094(4)
H3_12 H 0.7777 0.4950 0.7467
C5_12 C 0.51047(16) 0.47232(11) 0.72958(3)
C6_12 C 0.82233(18) 0.57786(13) 0.73937(4)
C7_12 C 0.87756(17) 0.58821(12) 0.74646(4)
C8_12 C 0.56389(16) 0.50478(12) 0.71908(4)
C9_12 C 0.63144(17) 0.65797(12) 0.62104(4)
C10_12 C 0.56299(19) 0.52796(14) 0.70202(4)
H4_12 H 0.5283 0.5219 0.6970
C11_12 C 0.81795(21) 0.62073(15) 0.73095(5)
H5_12 H 0.8502 0.6573 0.7300
C12_12 C 0.65039(24) 0.58128(19) 0.66049(5)
H6_12 H 0.6715 0.5631 0.6631
C13_12 C 0.65499(22) 0.60494(17) 0.64358(5)
H7_12 H 0.6786 0.6024 0.6345
C14_12 C 0.58404(21) 0.60909(16) 0.66969(4)
H8_12 H 0.5588 0.6099 0.6785
C15_12 C 0.76664(22) 0.61055(16) 0.72389(5)
H9_12 H 0.7640 0.6403 0.7181
C16_12 C 0.61344(22) 0.56007(17) 0.69242(4)
C17_12 C 0.66349(21) 0.56832(15) 0.70016(4)
H10_12 H 0.6978 0.5900 0.6937
C18_12 C 0.61522(21) 0.58341(16) 0.67405(4)
C19_12 C 0.72365(21) 0.51465(15) 0.73420(5)
H11_12 H 0.6912 0.4784 0.7357
C20_12 C 0.66483(19) 0.54565(14) 0.71724(4)
C21_12 C 0.71888(21) 0.55704(15) 0.72521(4)
O1_14 O 0.66666(16) 0.58642(11) 0.5833
O2_12 O 0.55190(13) 0.74058(9) 0.60993(3)
O5_12 O 0.66323(13) 0.65093(10) 0.61002(3)
O8_12 O 0.60571(11) 0.68444(8) 0.61782(2)
O9_14 O 0.66666(13) 0.72744(9) 0.5833
C22_12 C 0.74416(21) 0.71116(13) 0.51410(4)
H12_12 H 0.7656 0.7503 0.5169
C23_12 C 0.70789(19) 0.67374(13) 0.52703(4)
C24_12 C 0.71896(18) 0.56541(12) 0.44027(4)
H13_12 H 0.7190 0.5487 0.4289
C25_12 C 0.55845(19) 0.41646(13) 0.42573(4)
H14_12 H 0.5556 0.3840 0.4200
C26_12 C 0.82286(16) 0.62852(11) 0.43709(3)
C27_12 C 0.51100(18) 0.42220(12) 0.42730(4)
C28_12 C 0.45577(17) 0.37732(12) 0.42021(4)
C29_12 C 0.76944(16) 0.60756(11) 0.44759(4)
C30_12 C 0.70189(17) 0.69320(12) 0.54563(4)
C31_12 C 0.77034(19) 0.63164(13) 0.46465(4)
H15_12 H 0.8050 0.6603 0.4697
C32_12 C 0.51538(21) 0.46945(15) 0.43572(5)
H16_12 H 0.4831 0.4738 0.4367
C33_12 C 0.68294(24) 0.59756(15) 0.50618(5)
H17_12 H 0.6618 0.5583 0.5036
C34_12 C 0.67834(22) 0.61662(14) 0.52309(5)
H18_12 H 0.6547 0.5905 0.5322
C35_12 C 0.74929(21) 0.69172(14) 0.49698(4)
H19_12 H 0.7745 0.7178 0.4882
C36_12 C 0.56669(22) 0.51058(15) 0.44278(5)
H20_12 H 0.5693 0.5430 0.4486
C37_12 C 0.71989(22) 0.61330(14) 0.47425(4)
C38_12 C 0.66984(21) 0.57150(14) 0.46651(4)
H21_12 H 0.6355 0.5589 0.4730
C39_12 C 0.71811(21) 0.63486(14) 0.49262(4)
C40_12 C 0.60968(21) 0.45767(14) 0.43247(5)
H22_12 H 0.6421 0.4539 0.4310
C41_12 C 0.66850(19) 0.54749(13) 0.44943(4)
C42_12 C 0.61445(21) 0.50483(14) 0.44146(4)
O10_12 O 0.78143(13) 0.85535(9) 0.55674(3)
O13_12 O 0.67010(13) 0.65437(9) 0.55665(3)
O16_12 O 0.72762(11) 0.74540(8) 0.54885(2)
C24_13 C 0.15356(13) 0.43459(12) 0.05973(4)
H13_13 H 0.1704 0.4513 0.0711
C25_13 C 0.14200(14) 0.58354(13) 0.07427(4)
H14_13 H 0.1717 0.6160 0.0800
C26_13 C 0.19435(11) 0.37148(11) 0.06291(3)
C27_13 C 0.08881(13) 0.57780(12) 0.07270(4)
C28_13 C 0.07846(12) 0.62268(12) 0.07979(4)
C29_13 C 0.16189(12) 0.39244(11) 0.05241(4)
C31_13 C 0.13871(14) 0.36836(13) 0.03535(4)
H15_13 H 0.1448 0.3397 0.0303
C32_13 C 0.04594(15) 0.53055(15) 0.06428(5)
H16_13 H 0.0094 0.5262 0.0633
C35_13 C 0.05758(16) 0.30828(14) 0.00302(4)
H19_13 H 0.0568 0.2822 0.0118
C36_13 C 0.05612(16) 0.48942(15) 0.05722(5)
H20_13 H 0.0264 0.4570 0.0514
C37_13 C 0.10660(17) 0.38670(14) 0.02575(4)
C38_13 C 0.09835(15) 0.42850(14) 0.03349(4)
H21_13 H 0.0767 0.4411 0.0270
C39_13 C 0.08326(16) 0.36514(14) 0.00738(4)
C40_13 C 0.15202(15) 0.54233(14) 0.06753(5)
H22_13 H 0.1883 0.5461 0.0690
C41_13 C 0.12102(14) 0.45251(13) 0.05057(4)
C42_13 C 0.10963(15) 0.49517(14) 0.05854(4)
C3_13 C 0.10126(12) 0.48689(13) 0.77360(4)
H2_13 H 0.1180 0.5037 0.7622
C4_13 C 0.25021(13) 0.47533(14) 0.75906(4)
H3_13 H 0.2827 0.5050 0.7533
C5_13 C 0.03815(11) 0.52768(11) 0.77042(3)
C6_13 C 0.24447(12) 0.42214(13) 0.76063(4)
C7_13 C 0.28935(12) 0.41179(12) 0.75354(4)
C8_13 C 0.05911(11) 0.49522(12) 0.78092(4)
C10_13 C 0.03503(13) 0.47204(14) 0.79798(4)
H4_13 H 0.0064 0.4781 0.8030
C11_13 C 0.19722(15) 0.37927(15) 0.76905(5)
H5_13 H 0.1929 0.3427 0.7700
C12_13 C 0.06911(15) 0.41872(19) 0.83951(5)
H6_13 H 0.1084 0.4369 0.8369
C13_13 C 0.05005(14) 0.39506(17) 0.85642(5)
H7_13 H 0.0762 0.3976 0.8655
C15_13 C 0.15609(15) 0.38945(16) 0.77611(5)
H9_13 H 0.1237 0.3597 0.7819
C16_13 C 0.05337(14) 0.43993(17) 0.80758(4)
C17_13 C 0.09517(14) 0.43168(15) 0.79984(4)
H10_13 H 0.1078 0.4100 0.8063
C18_13 C 0.03181(14) 0.41659(16) 0.82595(4)
C19_13 C 0.20900(14) 0.48535(15) 0.76580(5)
H11_13 H 0.2128 0.5216 0.7643
C20_13 C 0.11918(13) 0.45435(14) 0.78276(4)
C21_13 C 0.16184(14) 0.44296(15) 0.77479(4)
O1_15 O 0.08024(11) 0.41358(11) 0.9167
O5_13 O 0.01230(9) 0.34907(10) 0.88998(3)
C22_13 C 0.03301(16) 0.28884(13) 0.98590(4)
H12_13 H 0.0154 0.2497 0.9831
C23_13 C 0.03416(14) 0.32626(13) 0.97297(4)
C30_13 C 0.00870(12) 0.30680(12) 0.95437(4)
C33_13 C 0.08539(19) 0.40244(15) 0.99382(5)
H17_13 H 0.1036 0.4417 0.9964
C34_13 C 0.06173(17) 0.38338(14) 0.97691(5)
H18_13 H 0.0643 0.4095 0.9678
O13_13 O 0.01574(10) 0.34563(9) 0.94335(3)
C1_13 C 0.95551(13) 0.36634(16) 0.84743(4)
H1_13 H 0.9164 0.3487 0.8502
C2_13 C 0.99293(13) 0.36749(14) 0.86036(4)
C9_13 C 0.97347(12) 0.34203(12) 0.87896(4)
C14_13 C 0.97495(14) 0.39091(16) 0.83031(4)
H8_13 H 0.9489 0.3901 0.8215
O2_13 O 0.81132(9) 0.25942(9) 0.89007(3)
O8_13 O 0.92127(8) 0.31556(8) 0.88218(2)
O9_15 O 0.93922(9) 0.27256(9) 0.9167
O10_13 O 0.92609(9) 0.14465(9) 0.94326(3)
O16_13 O 0.98223(8) 0.25460(8) 0.95115(2)
C1_14 C 0.41083(21) 0.04449(13) 0.84743(4)
H1_14 H 0.4323 0.0836 0.8502
C2_14 C 0.37456(19) 0.00707(13) 0.86036(4)
C9_14 C 0.36856(17) 0.02653(12) 0.87896(4)
C14_14 C 0.41596(21) 0.02505(14) 0.83031(4)
H8_14 H 0.4412 0.0511 0.8215
O2_14 O 0.44810(13) 0.18868(9) 0.89007(3)
O8_14 O 0.39429(11) 0.07873(8) 0.88218(2)
O9_16 O 0.33334(13) 0.06078(9) 0.9167
O10_14 O 0.21857(13) 0.07391(9) 0.94326(3)
O16_14 O 0.27238(11) 0.01777(8) 0.95115(2)
C24_14 C 0.28104(18) 0.84644(13) 0.05973(4)
H13_14 H 0.2810 0.8296 0.0711
C25_14 C 0.44155(19) 0.85800(14) 0.07427(4)
H14_14 H 0.4444 0.8283 0.0800
C26_14 C 0.17714(16) 0.80565(11) 0.06291(3)
C27_14 C 0.48900(18) 0.91119(13) 0.07270(4)
C28_14 C 0.54423(17) 0.92154(12) 0.07979(4)
C29_14 C 0.23056(16) 0.83811(12) 0.05241(4)
C31_14 C 0.22966(19) 0.86129(14) 0.03535(4)
H15_14 H 0.1950 0.8552 0.0303
C32_14 C 0.48462(21) 0.95406(15) 0.06428(5)
H16_14 H 0.5169 0.9906 0.0633
C35_14 C 0.25071(21) 0.94242(16) 0.00302(4)
H19_14 H 0.2255 0.9432 0.0118
C36_14 C 0.43331(22) 0.94388(16) 0.05722(5)
H20_14 H 0.4307 0.9736 0.0514
C37_14 C 0.28011(22) 0.89340(17) 0.02575(4)
C38_14 C 0.33016(21) 0.90165(15) 0.03349(4)
H21_14 H 0.3645 0.9233 0.0270
C39_14 C 0.28189(21) 0.91674(16) 0.00738(4)
C40_14 C 0.39032(21) 0.84798(15) 0.06753(5)
H22_14 H 0.3579 0.8117 0.0690
C41_14 C 0.33150(19) 0.87898(14) 0.05057(4)
C42_14 C 0.38555(21) 0.89037(15) 0.05854(4)
C3_14 C 0.38563(18) 0.89874(12) 0.77360(4)
H2_14 H 0.3857 0.8820 0.7622
C4_14 C 0.22512(19) 0.74979(13) 0.75906(4)
H3_14 H 0.2223 0.7173 0.7533
C5_14 C 0.48953(16) 0.96185(11) 0.77042(3)
C6_14 C 0.17767(18) 0.75553(12) 0.76063(4)
C7_14 C 0.12244(17) 0.71065(12) 0.75354(4)
C8_14 C 0.43611(16) 0.94089(11) 0.78092(4)
C10_14 C 0.43701(19) 0.96497(13) 0.79798(4)
H4_14 H 0.4717 0.9936 0.8030
C11_14 C 0.18205(21) 0.80278(15) 0.76905(5)
H5_14 H 0.1498 0.8071 0.7700
C12_14 C 0.34961(24) 0.93089(15) 0.83951(5)
H6_14 H 0.3285 0.8916 0.8369
C13_14 C 0.34501(22) 0.94995(14) 0.85642(5)
H7_14 H 0.3214 0.9238 0.8655
C15_14 C 0.23336(22) 0.84391(15) 0.77611(5)
H9_14 H 0.2360 0.8763 0.7819
C16_14 C 0.38656(22) 0.94663(14) 0.80758(4)
C17_14 C 0.33651(21) 0.90483(14) 0.79984(4)
H10_14 H 0.3022 0.8922 0.8063
C18_14 C 0.38478(21) 0.96819(14) 0.82595(4)
C19_14 C 0.27635(21) 0.79100(14) 0.76580(5)
H11_14 H 0.3088 0.7872 0.7643
C20_14 C 0.33517(19) 0.88082(13) 0.78276(4)
C21_14 C 0.28112(21) 0.83816(14) 0.77479(4)
O1_16 O 0.33334(16) 0.91976(11) 0.9167
O5_14 O 0.33677(13) 0.98770(9) 0.88998(3)
C22_14 C 0.25584(21) 0.96699(16) 0.98590(4)
H12_14 H 0.2344 0.9846 0.9831
C23_14 C 0.29211(19) 0.96584(14) 0.97297(4)
C30_14 C 0.29811(17) 0.99130(12) 0.95437(4)
C33_14 C 0.31706(24) 0.91461(19) 0.99382(5)
H17_14 H 0.3382 0.8964 0.9964
C34_14 C 0.32166(22) 0.93827(17) 0.97691(5)
H18_14 H 0.3453 0.9357 0.9678
O13_14 O 0.32990(13) 0.98426(10) 0.94335(3)
C24_15 C 0.56541(12) 0.71896(18) 0.05973(4)
H13_15 H 0.5487 0.7190 0.0711
C25_15 C 0.41646(13) 0.55845(19) 0.07427(4)
H14_15 H 0.3840 0.5556 0.0800
C26_15 C 0.62852(11) 0.82286(16) 0.06291(3)
C27_15 C 0.42220(12) 0.51100(18) 0.07270(4)
C28_15 C 0.37732(12) 0.45577(17) 0.07979(4)
C29_15 C 0.60756(11) 0.76944(16) 0.05241(4)
C31_15 C 0.63164(13) 0.77034(19) 0.03535(4)
H15_15 H 0.6603 0.8050 0.0303
C32_15 C 0.46945(15) 0.51538(21) 0.06428(5)
H16_15 H 0.4738 0.4831 0.0633
C35_15 C 0.69172(14) 0.74929(21) 0.00302(4)
H19_15 H 0.7178 0.7745 0.0118
C36_15 C 0.51058(15) 0.56669(22) 0.05722(5)
H20_15 H 0.5430 0.5693 0.0514
C37_15 C 0.61330(14) 0.71989(22) 0.02575(4)
C38_15 C 0.57150(14) 0.66984(21) 0.03349(4)
H21_15 H 0.5589 0.6355 0.0270
C39_15 C 0.63486(14) 0.71811(21) 0.00738(4)
C40_15 C 0.45767(14) 0.60968(21) 0.06753(5)
H22_15 H 0.4539 0.6421 0.0690
C41_15 C 0.54749(13) 0.66850(19) 0.05057(4)
C42_15 C 0.50483(14) 0.61445(21) 0.05854(4)
C1_15 C 0.63366(16) 0.58917(21) 0.84743(4)
H1_15 H 0.6513 0.5677 0.8502
C2_15 C 0.63251(14) 0.62544(19) 0.86036(4)
C3_15 C 0.51311(13) 0.61437(18) 0.77360(4)
H2_15 H 0.4963 0.6143 0.7622
C4_15 C 0.52467(14) 0.77488(19) 0.75906(4)
H3_15 H 0.4950 0.7777 0.7533
C5_15 C 0.47232(11) 0.51047(16) 0.77042(3)
C6_15 C 0.57786(13) 0.82233(18) 0.76063(4)
C7_15 C 0.58821(12) 0.87756(17) 0.75354(4)
C8_15 C 0.50478(12) 0.56389(16) 0.78092(4)
C9_15 C 0.65797(12) 0.63144(17) 0.87896(4)
C10_15 C 0.52796(14) 0.56299(19) 0.79798(4)
H4_15 H 0.5219 0.5283 0.8030
C11_15 C 0.62073(15) 0.81795(21) 0.76905(5)
H5_15 H 0.6573 0.8502 0.7700
C12_15 C 0.58128(19) 0.65039(24) 0.83951(5)
H6_15 H 0.5631 0.6715 0.8369
C13_15 C 0.60494(17) 0.65499(22) 0.85642(5)
H7_15 H 0.6024 0.6786 0.8655
C14_15 C 0.60909(16) 0.58404(21) 0.83031(4)
H8_15 H 0.6099 0.5588 0.8215
C15_15 C 0.61055(16) 0.76664(22) 0.77611(5)
H9_15 H 0.6403 0.7640 0.7819
C16_15 C 0.56007(17) 0.61344(22) 0.80758(4)
C17_15 C 0.56832(15) 0.66349(21) 0.79984(4)
H10_15 H 0.5900 0.6978 0.8063
C18_15 C 0.58341(16) 0.61522(21) 0.82595(4)
C19_15 C 0.51465(15) 0.72365(21) 0.76580(5)
H11_15 H 0.4784 0.6912 0.7643
C20_15 C 0.54565(14) 0.66483(19) 0.78276(4)
C21_15 C 0.55704(15) 0.71888(21) 0.77479(4)
O1_17 O 0.58642(11) 0.66666(16) 0.9167
O2_15 O 0.74058(9) 0.55190(13) 0.89007(3)
O5_15 O 0.65093(10) 0.66323(13) 0.88998(3)
O8_15 O 0.68444(8) 0.60571(11) 0.88218(2)
O9_17 O 0.72744(9) 0.66666(13) 0.9167
C22_15 C 0.71116(13) 0.74416(21) 0.98590(4)
H12_15 H 0.7503 0.7656 0.9831
C23_15 C 0.67374(13) 0.70789(19) 0.97297(4)
C30_15 C 0.69320(12) 0.70189(17) 0.95437(4)
C33_15 C 0.59756(15) 0.68294(24) 0.99382(5)
H17_15 H 0.5583 0.6618 0.9964
C34_15 C 0.61662(14) 0.67834(22) 0.97691(5)
H18_15 H 0.5905 0.6547 0.9678
O10_15 O 0.85535(9) 0.78143(13) 0.94326(3)
O13_15 O 0.65437(9) 0.67010(13) 0.94335(3)
O16_15 O 0.74540(8) 0.72762(11) 0.95115(2)
C1_16 C 0.69967(16) 0.62218(13) 0.31924(4)
H1_16 H 0.6820 0.5831 0.3165
C2_16 C 0.70082(14) 0.65960(13) 0.30631(4)
C3_16 C 0.82022(13) 0.76793(12) 0.39307(4)
H2_16 H 0.8370 0.7847 0.4045
C4_16 C 0.80866(14) 0.91688(13) 0.40761(4)
H3_16 H 0.8383 0.9494 0.4134
C5_16 C 0.86101(11) 0.70482(11) 0.39625(3)
C6_16 C 0.75547(13) 0.91114(12) 0.40604(4)
C7_16 C 0.74512(12) 0.95602(12) 0.41313(4)
C8_16 C 0.82855(12) 0.72578(11) 0.38575(4)
C9_16 C 0.67536(12) 0.64014(12) 0.28771(4)
C10_16 C 0.80537(14) 0.70170(13) 0.36869(4)
H4_16 H 0.8114 0.6731 0.3637
C11_16 C 0.71260(15) 0.86389(15) 0.39762(5)
H5_16 H 0.6760 0.8596 0.3967
C12_16 C 0.75205(19) 0.73578(15) 0.32716(5)
H6_16 H 0.7702 0.7751 0.3298
C13_16 C 0.72839(17) 0.71672(14) 0.31025(5)
H7_16 H 0.7309 0.7429 0.3012
C14_16 C 0.72424(16) 0.64162(14) 0.33636(4)
H8_16 H 0.7234 0.6156 0.3452
C15_16 C 0.72278(16) 0.82276(15) 0.39056(5)
H9_16 H 0.6930 0.7904 0.3848
C16_16 C 0.77326(17) 0.72004(14) 0.35909(4)
C17_16 C 0.76501(15) 0.76184(14) 0.36683(4)
H10_16 H 0.7433 0.7745 0.3604
C18_16 C 0.74992(16) 0.69848(14) 0.34072(4)
C19_16 C 0.81868(15) 0.87567(14) 0.40087(5)
H11_16 H 0.8549 0.8795 0.4024
C20_16 C 0.78768(14) 0.78585(13) 0.38391(4)
C21_16 C 0.77629(15) 0.82851(14) 0.39188(4)
O1_18 O 0.74691(11) 0.74691(11) 0.2500
O2_16 O 0.59275(9) 0.47799(9) 0.27660(3)
O5_16 O 0.68240(10) 0.67897(9) 0.27669(3)
O8_16 O 0.64889(8) 0.58794(8) 0.28449(2)
O9_18 O 0.60589(9) 0.60589(9) 0.2500
C22_16 C 0.62218(13) 0.69967(16) 0.18076(4)
H12_16 H 0.5831 0.6820 0.1835
C23_16 C 0.65960(13) 0.70082(14) 0.19369(4)
C24_16 C 0.76793(12) 0.82022(13) 0.10693(4)
H13_16 H 0.7847 0.8370 0.0955
C25_16 C 0.91688(13) 0.80866(14) 0.09239(4)
H14_16 H 0.9494 0.8383 0.0866
C26_16 C 0.70482(11) 0.86101(11) 0.10375(3)
C27_16 C 0.91114(12) 0.75547(13) 0.09396(4)
C28_16 C 0.95602(12) 0.74512(12) 0.08687(4)
C29_16 C 0.72578(11) 0.82855(12) 0.11425(4)
C30_16 C 0.64014(12) 0.67536(12) 0.21229(4)
C31_16 C 0.70170(13) 0.80537(14) 0.13131(4)
H15_16 H 0.6731 0.8114 0.1363
C32_16 C 0.86389(15) 0.71260(15) 0.10238(5)
H16_16 H 0.8596 0.6760 0.1033
C33_16 C 0.73578(15) 0.75205(19) 0.17284(5)
H17_16 H 0.7751 0.7702 0.1702
C34_16 C 0.71672(14) 0.72839(17) 0.18975(5)
H18_16 H 0.7429 0.7309 0.1988
C35_16 C 0.64162(14) 0.72424(16) 0.16364(4)
H19_16 H 0.6156 0.7234 0.1548
C36_16 C 0.82276(15) 0.72278(16) 0.10944(5)
H20_16 H 0.7904 0.6930 0.1152
C37_16 C 0.72004(14) 0.77326(17) 0.14091(4)
C38_16 C 0.76184(14) 0.76501(15) 0.13317(4)
H21_16 H 0.7745 0.7433 0.1396
C39_16 C 0.69848(14) 0.74992(16) 0.15928(4)
C40_16 C 0.87567(14) 0.81868(15) 0.09913(5)
H22_16 H 0.8795 0.8549 0.0976
C41_16 C 0.78585(13) 0.78768(14) 0.11609(4)
C42_16 C 0.82851(14) 0.77629(15) 0.10812(4)
O10_16 O 0.47799(9) 0.59275(9) 0.22340(3)
O13_16 O 0.67897(9) 0.68240(10) 0.22331(3)
O16_16 O 0.58794(8) 0.64889(8) 0.21551(2)
C1_17 C 0.37782(13) 0.07750(21) 0.31924(4)
H1_17 H 0.4169 0.0990 0.3165
C2_17 C 0.34040(13) 0.04123(19) 0.30631(4)
C3_17 C 0.23207(12) 0.05230(18) 0.39307(4)
H2_17 H 0.2153 0.0524 0.4045
C5_17 C 0.29518(11) 0.15620(16) 0.39625(3)
C8_17 C 0.27422(11) 0.10278(16) 0.38575(4)
C9_17 C 0.35986(12) 0.03523(17) 0.28771(4)
C10_17 C 0.29830(13) 0.10368(19) 0.36869(4)
H4_17 H 0.3269 0.1384 0.3637
C12_17 C 0.26422(15) 0.01628(24) 0.32716(5)
C13_17 C 0.28328(14) 0.01168(22) 0.31025(5)
C14_17 C 0.35838(14) 0.08263(21) 0.33636(4)
H8_17 H 0.3844 0.1079 0.3452
C16_17 C 0.27996(14) 0.05323(22) 0.35909(4)
C17_17 C 0.23816(14) 0.00318(21) 0.36683(4)
C18_17 C 0.30152(14) 0.05145(21) 0.34072(4)
C20_17 C 0.21415(13) 0.00184(19) 0.38391(4)
O1_19 O 0.25309(11) 0.00001(16) 0.2500
O2_17 O 0.52201(9) 0.11477(13) 0.27660(3)
O5_17 O 0.32103(9) 0.00344(13) 0.27669(3)
O8_17 O 0.41206(8) 0.06096(11) 0.28449(2)
O9_19 O 0.39411(9) 0.00001(13) 0.2500
C25_17 C 0.19134(14) 0.10821(19) 0.09239(4)
H14_17 H 0.1617 0.1110 0.0866
C27_17 C 0.24453(13) 0.15566(18) 0.09396(4)
C28_17 C 0.25488(12) 0.21089(17) 0.08687(4)
C32_17 C 0.28740(15) 0.15128(21) 0.10238(5)
H16_17 H 0.3240 0.1835 0.1033
H17_17 H 0.2298 0.0048 0.1702
H18_17 H 0.2691 0.0119 0.1988
C36_17 C 0.27722(16) 0.09997(22) 0.10944(5)
H20_17 H 0.3070 0.0973 0.1152
H21_17 H 0.2567 0.0311 0.1396
C40_17 C 0.18132(15) 0.05698(21) 0.09913(5)
H22_17 H 0.1451 0.0245 0.0976
C42_17 C 0.22371(15) 0.05221(21) 0.10812(4)
C4_17 C 0.08312(13) 0.89179(19) 0.40761(4)
H3_17 H 0.0506 0.8890 0.4134
C6_17 C 0.08886(12) 0.84434(18) 0.40604(4)
C7_17 C 0.04398(12) 0.78911(17) 0.41313(4)
C11_17 C 0.13611(15) 0.84872(21) 0.39762(5)
H5_17 H 0.1404 0.8165 0.3967
H6_17 H 0.2249 0.9952 0.3298
H7_17 H 0.2571 0.9881 0.3012
C15_17 C 0.17724(15) 0.90003(22) 0.39056(5)
H9_17 H 0.2096 0.9027 0.3848
H10_17 H 0.2255 0.9689 0.3604
C19_17 C 0.12433(14) 0.94302(21) 0.40087(5)
H11_17 H 0.1205 0.9755 0.4024
C21_17 C 0.17149(14) 0.94779(21) 0.39188(4)
O1_20 O 0.25309(11) 1.00001(16) 0.2500
O9_20 O 0.39411(9) 1.00001(13) 0.2500
C22_17 C 0.30033(16) 0.92250(21) 0.18076(4)
H12_17 H 0.3180 0.9010 0.1835
C23_17 C 0.29918(14) 0.95877(19) 0.19369(4)
C24_17 C 0.17978(13) 0.94770(18) 0.10693(4)
H13_17 H 0.1630 0.9476 0.0955
C26_17 C 0.13899(11) 0.84380(16) 0.10375(3)
C29_17 C 0.17145(12) 0.89722(16) 0.11425(4)
C30_17 C 0.32464(12) 0.96477(17) 0.21229(4)
C31_17 C 0.19463(14) 0.89632(19) 0.13131(4)
H15_17 H 0.1886 0.8616 0.1363
C33_17 C 0.24795(19) 0.98372(24) 0.17284(5)
C34_17 C 0.27161(17) 0.98832(22) 0.18975(5)
C35_17 C 0.27576(16) 0.91737(21) 0.16364(4)
H19_17 H 0.2766 0.8921 0.1548
C37_17 C 0.22674(17) 0.94677(22) 0.14091(4)
C38_17 C 0.23499(15) 0.99682(21) 0.13317(4)
C39_17 C 0.25008(16) 0.94855(21) 0.15928(4)
C41_17 C 0.21232(14) 0.99816(19) 0.11609(4)
O10_17 O 0.40725(9) 0.88523(13) 0.22340(3)
O13_17 O 0.31760(10) 0.99656(13) 0.22331(3)
O16_17 O 0.35111(8) 0.93904(11) 0.21551(2)
H25_5 H 0.224296 0.966626 0.25684
H26_5 H 0.240165 0.998359 0.237147
C4_18 C 0.10821(19) 0.19134(14) 0.40761(4)
H3_18 H 0.1110 0.1617 0.4134
C6_18 C 0.15566(18) 0.24453(13) 0.40604(4)
C7_18 C 0.21089(17) 0.25488(12) 0.41313(4)
C11_18 C 0.15128(21) 0.28740(15) 0.39762(5)
H5_18 H 0.1835 0.3240 0.3967
H6_18 H 0.0048 0.2298 0.3298
H7_18 H 0.0119 0.2691 0.3012
C15_18 C 0.09997(22) 0.27722(16) 0.39056(5)
H9_18 H 0.0973 0.3070 0.3848
H10_18 H 0.0311 0.2567 0.3604
C19_18 C 0.05698(21) 0.18132(15) 0.40087(5)
H11_18 H 0.0245 0.1451 0.4024
C21_18 C 0.05221(21) 0.22371(15) 0.39188(4)
O1_21 O -0.00001(16) 0.25309(11) 0.2500
O9_21 O -0.00001(13) 0.39411(9) 0.2500
C22_18 C 0.07750(21) 0.37782(13) 0.18076(4)
H12_18 H 0.0990 0.4169 0.1835
C23_18 C 0.04123(19) 0.34040(13) 0.19369(4)
C24_18 C 0.05230(18) 0.23207(12) 0.10693(4)
H13_18 H 0.0524 0.2153 0.0955
C26_18 C 0.15620(16) 0.29518(11) 0.10375(3)
C29_18 C 0.10278(16) 0.27422(11) 0.11425(4)
C30_18 C 0.03523(17) 0.35986(12) 0.21229(4)
C31_18 C 0.10368(19) 0.29830(13) 0.13131(4)
H15_18 H 0.1384 0.3269 0.1363
C33_18 C 0.01628(24) 0.26422(15) 0.17284(5)
C34_18 C 0.01168(22) 0.28328(14) 0.18975(5)
C35_18 C 0.08263(21) 0.35838(14) 0.16364(4)
H19_18 H 0.1079 0.3844 0.1548
C37_18 C 0.05323(22) 0.27996(14) 0.14091(4)
C38_18 C 0.00318(21) 0.23816(14) 0.13317(4)
C39_18 C 0.05145(21) 0.30152(14) 0.15928(4)
C41_18 C 0.00184(19) 0.21415(13) 0.11609(4)
O10_18 O 0.11477(13) 0.52201(9) 0.22340(3)
O13_18 O 0.00344(13) 0.32103(9) 0.22331(3)
O16_18 O 0.06096(11) 0.41206(8) 0.21551(2)
H25_6 H 0.033374 0.25767 0.25684
H26_6 H 0.00164089 0.241806 0.237147
C1_18 C 0.92250(21) 0.30033(16) 0.31924(4)
H1_18 H 0.9010 0.3180 0.3165
C2_18 C 0.95877(19) 0.29918(14) 0.30631(4)
C3_18 C 0.94770(18) 0.17978(13) 0.39307(4)
H2_18 H 0.9476 0.1630 0.4045
C5_18 C 0.84380(16) 0.13899(11) 0.39625(3)
C8_18 C 0.89722(16) 0.17145(12) 0.38575(4)
C9_18 C 0.96477(17) 0.32464(12) 0.28771(4)
C10_18 C 0.89632(19) 0.19463(14) 0.36869(4)
H4_18 H 0.8616 0.1886 0.3637
C12_18 C 0.98372(24) 0.24795(19) 0.32716(5)
C13_18 C 0.98832(22) 0.27161(17) 0.31025(5)
C14_18 C 0.91737(21) 0.27576(16) 0.33636(4)
H8_18 H 0.8921 0.2766 0.3452
C16_18 C 0.94677(22) 0.22674(17) 0.35909(4)
C17_18 C 0.99682(21) 0.23499(15) 0.36683(4)
C18_18 C 0.94855(21) 0.25008(16) 0.34072(4)
C20_18 C 0.99816(19) 0.21232(14) 0.38391(4)
O1_22 O 0.99999(16) 0.25309(11) 0.2500
O2_18 O 0.88523(13) 0.40725(9) 0.27660(3)
O5_18 O 0.99656(13) 0.31760(10) 0.27669(3)
O8_18 O 0.93904(11) 0.35111(8) 0.28449(2)
O9_22 O 0.99999(13) 0.39411(9) 0.2500
C25_18 C 0.89179(19) 0.08312(13) 0.09239(4)
H14_18 H 0.8890 0.0506 0.0866
C27_18 C 0.84434(18) 0.08886(12) 0.09396(4)
C28_18 C 0.78911(17) 0.04398(12) 0.08687(4)
C32_18 C 0.84872(21) 0.13611(15) 0.10238(5)
H16_18 H 0.8165 0.1404 0.1033
H17_18 H 0.9952 0.2249 0.1702
H18_18 H 0.9881 0.2571 0.1988
C36_18 C 0.90003(22) 0.17724(15) 0.10944(5)
H20_18 H 0.9027 0.2096 0.1152
H21_18 H 0.9689 0.2255 0.1396
C40_18 C 0.94302(21) 0.12433(14) 0.09913(5)
H22_18 H 0.9755 0.1205 0.0976
C42_18 C 0.94779(21) 0.17149(14) 0.10812(4)
H25_7 H 0.966626 0.224296 0.24316
H26_7 H 0.998359 0.240165 0.262853
H25_8 H 0.25767 0.033374 0.24316
H26_8 H 0.241806 0.00164089 0.262853
loop_
_geom_bond_atom_site_label_1
_geom_bond_atom_site_label_2
_geom_bond_site_symmetry_1
_geom_bond_site_symmetry_2
Ga2 O2 1_555 1_555
C1 H1 1_555 1_555
C2 C1 1_555 1_555
C9 C2 1_555 1_555
C14 C1 1_555 1_555
H8 C14 1_555 1_555
O8 Ga2 1_555 1_555
Ga3 O9 1_555 1_555
O10 Ga3 1_555 1_555
O16 Ga3 1_555 1_555
Ga10 O4 1_555 1_555
O17 Ga3 1_555 1_555
O18 Ga2 1_555 1_555
O19 Ga2 1_555 1_555
O20 Ga3 1_555 1_555
O23 Ga3 1_555 1_555
O24 Ga2 1_555 1_555
Ga2 O9 1_555 1_555
C9 O8 1_555 1_555
Ga1 O1 1_555 1_555
C3 H2 1_555 1_555
C4 H3 1_555 1_555
C5 C8 1_555 1_555
C6 C4 1_555 1_555
C7 C6 1_555 1_555
C8 C3 1_555 1_555
C10 C8 1_555 1_555
H4 C10 1_555 1_555
C11 C6 1_555 1_555
H5 C11 1_555 1_555
C12 H6 1_555 1_555
H7 C13 1_555 1_555
C15 C11 1_555 1_555
H9 C15 1_555 1_555
C16 C10 1_555 1_555
C17 C16 1_555 1_555
H10 C17 1_555 1_555
C18 C12 1_555 1_555
C19 C4 1_555 1_555
H11 C19 1_555 1_555
C20 C3 1_555 1_555
C21 C15 1_555 1_555
O3 C5 1_555 1_555
O5 Ga1 1_555 1_555
O6 C7 1_555 1_555
O7 C7 1_555 1_555
C22 H12 1_555 1_555
C23 C22 1_555 1_555
C24 H13 1_555 1_555
C25 H14 1_555 1_555
C26 C29 1_555 1_555
C27 C25 1_555 1_555
C28 C27 1_555 1_555
C29 C24 1_555 1_555
C30 C23 1_555 1_555
C31 C29 1_555 1_555
H15 C31 1_555 1_555
C32 C27 1_555 1_555
H16 C32 1_555 1_555
C33 H17 1_555 1_555
C34 C23 1_555 1_555
H18 C34 1_555 1_555
C35 C22 1_555 1_555
H19 C35 1_555 1_555
C36 C32 1_555 1_555
H20 C36 1_555 1_555
C37 C31 1_555 1_555
C38 C37 1_555 1_555
H21 C38 1_555 1_555
C39 C33 1_555 1_555
C40 C25 1_555 1_555
H22 C40 1_555 1_555
C41 C24 1_555 1_555
C42 C36 1_555 1_555
O11 C26 1_555 1_555
O12 C26 1_555 1_555
O13 Ga1 1_555 1_555
O14 C28 1_555 1_555
O15 C28 1_555 1_555
Ga5 O6 1_555 1_555
Ga6 O15 1_555 1_555
Ga7 O11 1_555 1_555
Ga8 O7 1_555 1_555
Ga9 O3 1_555 1_555
Ga11 O12 1_555 1_555
O21 Ga1 1_555 1_555
C12 C13 1_555 1_555
C16 C18 1_555 1_555
C17 C20 1_555 1_555
C19 C21 1_555 1_555
C20 C21 1_555 1_555
C30 O13 1_555 1_555
C33 C34 1_555 1_555
C35 C39 1_555 1_555
C37 C39 1_555 1_555
C38 C41 1_555 1_555
C40 C42 1_555 1_555
C41 C42 1_555 1_555
Ga1_2 O1_2 1_555 1_555
C3_2 H2_2 1_555 1_555
C4_2 H3_2 1_555 1_555
C5_2 C8_2 1_555 1_555
C6_2 C4_2 1_555 1_555
C7_2 C6_2 1_555 1_555
C8_2 C3_2 1_555 1_555
C10_2 C8_2 1_555 1_555
H4_2 C10_2 1_555 1_555
C11_2 C6_2 1_555 1_555
H5_2 C11_2 1_555 1_555
C12_2 H6_2 1_555 1_555
H7_2 C13_2 1_555 1_555
C15_2 C11_2 1_555 1_555
H9_2 C15_2 1_555 1_555
C16_2 C10_2 1_555 1_555
C17_2 C16_2 1_555 1_555
H10_2 C17_2 1_555 1_555
C18_2 C12_2 1_555 1_555
C19_2 C4_2 1_555 1_555
H11_2 C19_2 1_555 1_555
C20_2 C3_2 1_555 1_555
C21_2 C15_2 1_555 1_555
O3_2 C5_2 1_555 1_555
O5_2 Ga1_2 1_555 1_555
O6_2 C7_2 1_555 1_555
O7_2 C7_2 1_555 1_555
C22_2 H12_2 1_555 1_555
C23_2 C22_2 1_555 1_555
C24_2 H13_2 1_555 1_555
C25_2 H14_2 1_555 1_555
C26_2 C29_2 1_555 1_555
C27_2 C25_2 1_555 1_555
C28_2 C27_2 1_555 1_555
C29_2 C24_2 1_555 1_555
C30_2 C23_2 1_555 1_555
C31_2 C29_2 1_555 1_555
H15_2 C31_2 1_555 1_555
C32_2 C27_2 1_555 1_555
H16_2 C32_2 1_555 1_555
C33_2 H17_2 1_555 1_555
C34_2 C23_2 1_555 1_555
H18_2 C34_2 1_555 1_555
C35_2 C22_2 1_555 1_555
H19_2 C35_2 1_555 1_555
C36_2 C32_2 1_555 1_555
H20_2 C36_2 1_555 1_555
C37_2 C31_2 1_555 1_555
C38_2 C37_2 1_555 1_555
H21_2 C38_2 1_555 1_555
C39_2 C33_2 1_555 1_555
C40_2 C25_2 1_555 1_555
H22_2 C40_2 1_555 1_555
C41_2 C24_2 1_555 1_555
C42_2 C36_2 1_555 1_555
O11_2 C26_2 1_555 1_555
O12_2 C26_2 1_555 1_555
O13_2 Ga1_2 1_555 1_555
O14_2 C28_2 1_555 1_555
O15_2 C28_2 1_555 1_555
Ga5_3 O6_2 1_555 1_555
Ga6_2 O15_2 1_555 1_555
Ga6 O11_2 1_555 1_555
Ga9 O7_2 1_555 1_555
Ga9_2 O3_2 1_555 1_555
Ga11_2 O12_2 1_555 1_555
O21_2 Ga1_2 1_555 1_555
C12_2 C13_2 1_555 1_555
C16_2 C18_2 1_555 1_555
C17_2 C20_2 1_555 1_555
C19_2 C21_2 1_555 1_555
C20_2 C21_2 1_555 1_555
C30_2 O13_2 1_555 1_555
C33_2 C34_2 1_555 1_555
C35_2 C39_2 1_555 1_555
C37_2 C39_2 1_555 1_555
C38_2 C41_2 1_555 1_555
C40_2 C42_2 1_555 1_555
C41_2 C42_2 1_555 1_555
Ga2_2 O2_2 1_555 1_555
C1_2 H1_2 1_555 1_555
C2_2 C1_2 1_555 1_555
C9_2 C2_2 1_555 1_555
C14_2 C1_2 1_555 1_555
H8_2 C14_2 1_555 1_555
O8_2 Ga2_2 1_555 1_555
Ga3_2 O9_2 1_555 1_555
O10_2 Ga3_2 1_555 1_555
O16_2 Ga3_2 1_555 1_555
Ga10_2 O4_2 1_555 1_555
O17_2 Ga3_2 1_555 1_555
O18_2 Ga2_2 1_555 1_555
O19_2 Ga2_2 1_555 1_555
O20_2 Ga3_2 1_555 1_555
O23_2 Ga3_2 1_555 1_555
O24_2 Ga2_2 1_555 1_555
Ga2_2 O9_2 1_555 1_555
C9_2 O8_2 1_555 1_555
Ga1_3 O1_3 1_555 1_555
Ga2_3 O2_3 1_555 1_555
C1_3 H1_3 1_555 1_555
C2_3 C1_3 1_555 1_555
C3_3 H2_3 1_555 1_555
C4_3 H3_3 1_555 1_555
C5_3 C8_3 1_555 1_555
C6_3 C4_3 1_555 1_555
C7_3 C6_3 1_555 1_555
C8_3 C3_3 1_555 1_555
C9_3 C2_3 1_555 1_555
C10_3 C8_3 1_555 1_555
H4_3 C10_3 1_555 1_555
C11_3 C6_3 1_555 1_555
H5_3 C11_3 1_555 1_555
C12_3 H6_3 1_555 1_555
C13_3 C2_3 1_555 1_555
H7_3 C13_3 1_555 1_555
C14_3 C1_3 1_555 1_555
H8_3 C14_3 1_555 1_555
C15_3 C11_3 1_555 1_555
H9_3 C15_3 1_555 1_555
C16_3 C10_3 1_555 1_555
C17_3 C16_3 1_555 1_555
H10_3 C17_3 1_555 1_555
C18_3 C12_3 1_555 1_555
C19_3 C4_3 1_555 1_555
H11_3 C19_3 1_555 1_555
C20_3 C3_3 1_555 1_555
C21_3 C15_3 1_555 1_555
O3_3 C5_3 1_555 1_555
O4_3 C5_3 1_555 1_555
O5_3 Ga1_3 1_555 1_555
O6_3 C7_3 1_555 1_555
O7_3 C7_3 1_555 1_555
O8_3 Ga2_3 1_555 1_555
O9_3 Ga1_3 1_555 1_555
Ga3_3 O9_3 1_555 1_555
C22_3 H12_3 1_555 1_555
C23_3 C22_3 1_555 1_555
C24_3 H13_3 1_555 1_555
C25_3 H14_3 1_555 1_555
C26_3 C29_3 1_555 1_555
C27_3 C25_3 1_555 1_555
C28_3 C27_3 1_555 1_555
C29_3 C24_3 1_555 1_555
C30_3 C23_3 1_555 1_555
C31_3 C29_3 1_555 1_555
H15_3 C31_3 1_555 1_555
C32_3 C27_3 1_555 1_555
H16_3 C32_3 1_555 1_555
C33_3 H17_3 1_555 1_555
C34_3 C23_3 1_555 1_555
H18_3 C34_3 1_555 1_555
C35_3 C22_3 1_555 1_555
H19_3 C35_3 1_555 1_555
C36_3 C32_3 1_555 1_555
H20_3 C36_3 1_555 1_555
C37_3 C31_3 1_555 1_555
C38_3 C37_3 1_555 1_555
H21_3 C38_3 1_555 1_555
C39_3 C33_3 1_555 1_555
C40_3 C25_3 1_555 1_555
H22_3 C40_3 1_555 1_555
C41_3 C24_3 1_555 1_555
C42_3 C36_3 1_555 1_555
O10_3 Ga3_3 1_555 1_555
O11_3 C26_3 1_555 1_555
O12_3 C26_3 1_555 1_555
O13_3 Ga1_3 1_555 1_555
O14_3 C28_3 1_555 1_555
O15_3 C28_3 1_555 1_555
O16_3 Ga3_3 1_555 1_555
Ga4_3 O14_3 1_555 1_555
Ga5_4 O6_3 1_555 1_555
Ga7 O15_3 1_555 1_555
Ga6_2 O11_3 1_555 1_555
Ga9_2 O7_3 1_555 1_555
Ga8 O3_3 1_555 1_555
Ga10_3 O4_3 1_555 1_555
Ga11_3 O12_3 1_555 1_555
O17_3 Ga3_3 1_555 1_555
O18_3 Ga2_3 1_555 1_555
O19_3 Ga2_3 1_555 1_555
O20_3 Ga3_3 1_555 1_555
O21_3 Ga1_3 1_555 1_555
O22_3 Ga1_3 1_555 1_555
O23_3 Ga3_3 1_555 1_555
O24_3 Ga2_3 1_555 1_555
Ga2_3 O9_3 1_555 1_555
C9_3 O5_3 1_555 1_555
C9_3 O8_3 1_555 1_555
C12_3 C13_3 1_555 1_555
C14_3 C18_3 1_555 1_555
C16_3 C18_3 1_555 1_555
C17_3 C20_3 1_555 1_555
C19_3 C21_3 1_555 1_555
C20_3 C21_3 1_555 1_555
C30_3 O13_3 1_555 1_555
C30_3 O16_3 1_555 1_555
C33_3 C34_3 1_555 1_555
C35_3 C39_3 1_555 1_555
C37_3 C39_3 1_555 1_555
C38_3 C41_3 1_555 1_555
C40_3 C42_3 1_555 1_555
C41_3 C42_3 1_555 1_555
Ga2_4 O2_4 1_555 1_555
C1_4 H1_4 1_555 1_555
C2_4 C1_4 1_555 1_555
C9_4 C2_4 1_555 1_555
C14_4 C1_4 1_555 1_555
H8_4 C14_4 1_555 1_555
O8_4 Ga2_4 1_555 1_555
Ga3_4 O9_4 1_555 1_555
O10_4 Ga3_4 1_555 1_555
O16_4 Ga3_4 1_555 1_555
Ga9_2 O4_4 1_555 1_555
O17_4 Ga3_4 1_555 1_555
O18_4 Ga2_4 1_555 1_555
O19_4 Ga2_4 1_555 1_555
O20_4 Ga3_4 1_555 1_555
O23_4 Ga3_4 1_555 1_555
O24_4 Ga2_4 1_555 1_555
Ga2_4 O9_4 1_555 1_555
C9_4 O8_4 1_555 1_555
Ga1_4 O1_4 1_555 1_555
C3_4 H2_4 1_555 1_555
C4_4 H3_4 1_555 1_555
C5_4 C8_4 1_555 1_555
C6_4 C4_4 1_555 1_555
C7_4 C6_4 1_555 1_555
C8_4 C3_4 1_555 1_555
C10_4 C8_4 1_555 1_555
H4_4 C10_4 1_555 1_555
C11_4 C6_4 1_555 1_555
H5_4 C11_4 1_555 1_555
C12_4 H6_4 1_555 1_555
H7_4 C13_4 1_555 1_555
C15_4 C11_4 1_555 1_555
H9_4 C15_4 1_555 1_555
C16_4 C10_4 1_555 1_555
C17_4 C16_4 1_555 1_555
H10_4 C17_4 1_555 1_555
C18_4 C12_4 1_555 1_555
C19_4 C4_4 1_555 1_555
H11_4 C19_4 1_555 1_555
C20_4 C3_4 1_555 1_555
C21_4 C15_4 1_555 1_555
O3_4 C5_4 1_555 1_555
O5_4 Ga1_4 1_555 1_555
O6_4 C7_4 1_555 1_555
O7_4 C7_4 1_555 1_555
C22_4 H12_4 1_555 1_555
C23_4 C22_4 1_555 1_555
C30_4 C23_4 1_555 1_555
C33_4 H17_4 1_555 1_555
C34_4 C23_4 1_555 1_555
H18_4 C34_4 1_555 1_555
O13_4 Ga1_4 1_555 1_555
Ga5 O6_4 1_555 1_555
Ga10_3 O7_4 1_555 1_555
Ga10_2 O3_4 1_555 1_555
O21_4 Ga1_4 1_555 1_555
C12_4 C13_4 1_555 1_555
C16_4 C18_4 1_555 1_555
C17_4 C20_4 1_555 1_555
C19_4 C21_4 1_555 1_555
C20_4 C21_4 1_555 1_555
C30_4 O13_4 1_555 1_555
C33_4 C34_4 1_555 1_555
C24_4 H13_4 1_555 1_555
C25_4 H14_4 1_555 1_555
C26_4 C29_4 1_555 1_555
C27_4 C25_4 1_555 1_555
C28_4 C27_4 1_555 1_555
C29_4 C24_4 1_555 1_555
C31_4 C29_4 1_555 1_555
H15_4 C31_4 1_555 1_555
C32_4 C27_4 1_555 1_555
H16_4 C32_4 1_555 1_555
H19_4 C35_4 1_555 1_555
C36_4 C32_4 1_555 1_555
H20_4 C36_4 1_555 1_555
C37_4 C31_4 1_555 1_555
C38_4 C37_4 1_555 1_555
H21_4 C38_4 1_555 1_555
C40_4 C25_4 1_555 1_555
H22_4 C40_4 1_555 1_555
C41_4 C24_4 1_555 1_555
C42_4 C36_4 1_555 1_555
O11_4 C26_4 1_555 1_555
O12_4 C26_4 1_555 1_555
O14_4 C28_4 1_555 1_555
O15_4 C28_4 1_555 1_555
Ga6_3 O15_4 1_555 1_555
Ga7_2 O11_4 1_555 1_555
Ga11_4 O12_4 1_555 1_555
C35_4 C39_4 1_555 1_555
C37_4 C39_4 1_555 1_555
C38_4 C41_4 1_555 1_555
C40_4 C42_4 1_555 1_555
C41_4 C42_4 1_555 1_555
Ga1_5 O1_5 1_555 1_555
C3_5 H2_5 1_555 1_555
C4_5 H3_5 1_555 1_555
C5_5 C8_5 1_555 1_555
C6_5 C4_5 1_555 1_555
C7_5 C6_5 1_555 1_555
C8_5 C3_5 1_555 1_555
C10_5 C8_5 1_555 1_555
H4_5 C10_5 1_555 1_555
C11_5 C6_5 1_555 1_555
H5_5 C11_5 1_555 1_555
C12_5 H6_5 1_555 1_555
H7_5 C13_5 1_555 1_555
C15_5 C11_5 1_555 1_555
H9_5 C15_5 1_555 1_555
C16_5 C10_5 1_555 1_555
C17_5 C16_5 1_555 1_555
H10_5 C17_5 1_555 1_555
C18_5 C12_5 1_555 1_555
C19_5 C4_5 1_555 1_555
H11_5 C19_5 1_555 1_555
C20_5 C3_5 1_555 1_555
C21_5 C15_5 1_555 1_555
O3_5 C5_5 1_555 1_555
O5_5 Ga1_5 1_555 1_555
O6_5 C7_5 1_555 1_555
O7_5 C7_5 1_555 1_555
C22_5 H12_5 1_555 1_555
C23_5 C22_5 1_555 1_555
C30_5 C23_5 1_555 1_555
C33_5 H17_5 1_555 1_555
C34_5 C23_5 1_555 1_555
H18_5 C34_5 1_555 1_555
O13_5 Ga1_5 1_555 1_555
Ga5_5 O6_5 1_555 1_555
Ga10_2 O7_5 1_555 1_555
Ga10 O3_5 1_555 1_555
O21_5 Ga1_5 1_555 1_555
C12_5 C13_5 1_555 1_555
C16_5 C18_5 1_555 1_555
C17_5 C20_5 1_555 1_555
C19_5 C21_5 1_555 1_555
C20_5 C21_5 1_555 1_555
C30_5 O13_5 1_555 1_555
C33_5 C34_5 1_555 1_555
C24_5 H13_5 1_555 1_555
C25_5 H14_5 1_555 1_555
C26_5 C29_5 1_555 1_555
C27_5 C25_5 1_555 1_555
C28_5 C27_5 1_555 1_555
C29_5 C24_5 1_555 1_555
C31_5 C29_5 1_555 1_555
H15_5 C31_5 1_555 1_555
C32_5 C27_5 1_555 1_555
H16_5 C32_5 1_555 1_555
H19_5 C35_5 1_555 1_555
C36_5 C32_5 1_555 1_555
H20_5 C36_5 1_555 1_555
C37_5 C31_5 1_555 1_555
C38_5 C37_5 1_555 1_555
H21_5 C38_5 1_555 1_555
C40_5 C25_5 1_555 1_555
H22_5 C40_5 1_555 1_555
C41_5 C24_5 1_555 1_555
C42_5 C36_5 1_555 1_555
O11_5 C26_5 1_555 1_555
O12_5 C26_5 1_555 1_555
O14_5 C28_5 1_555 1_555
O15_5 C28_5 1_555 1_555
Ga6_4 O15_5 1_555 1_555
Ga6_3 O11_5 1_555 1_555
Ga11_5 O12_5 1_555 1_555
C35_5 C39_5 1_555 1_555
C37_5 C39_5 1_555 1_555
C38_5 C41_5 1_555 1_555
C40_5 C42_5 1_555 1_555
C41_5 C42_5 1_555 1_555
Ga2_5 O2_5 1_555 1_555
C1_5 H1_5 1_555 1_555
C2_5 C1_5 1_555 1_555
C9_5 C2_5 1_555 1_555
C14_5 C1_5 1_555 1_555
H8_5 C14_5 1_555 1_555
O8_5 Ga2_5 1_555 1_555
Ga3_5 O9_5 1_555 1_555
O10_5 Ga3_5 1_555 1_555
O16_5 Ga3_5 1_555 1_555
Ga9 O4_5 1_555 1_555
O17_5 Ga3_5 1_555 1_555
O18_5 Ga2_5 1_555 1_555
O19_5 Ga2_5 1_555 1_555
O20_5 Ga3_5 1_555 1_555
O23_5 Ga3_5 1_555 1_555
O24_5 Ga2_5 1_555 1_555
Ga2_5 O9_5 1_555 1_555
C9_5 O8_5 1_555 1_555
Ga1_6 O1_6 1_555 1_555
Ga2_6 O2_6 1_555 1_555
C1_6 H1_6 1_555 1_555
C2_6 C1_6 1_555 1_555
C3_6 H2_6 1_555 1_555
C4_6 H3_6 1_555 1_555
C5_6 C8_6 1_555 1_555
C6_6 C4_6 1_555 1_555
C7_6 C6_6 1_555 1_555
C8_6 C3_6 1_555 1_555
C9_6 C2_6 1_555 1_555
C10_6 C8_6 1_555 1_555
H4_6 C10_6 1_555 1_555
C11_6 C6_6 1_555 1_555
H5_6 C11_6 1_555 1_555
C12_6 H6_6 1_555 1_555
C13_6 C2_6 1_555 1_555
H7_6 C13_6 1_555 1_555
C14_6 C1_6 1_555 1_555
H8_6 C14_6 1_555 1_555
C15_6 C11_6 1_555 1_555
H9_6 C15_6 1_555 1_555
C16_6 C10_6 1_555 1_555
C17_6 C16_6 1_555 1_555
H10_6 C17_6 1_555 1_555
C18_6 C12_6 1_555 1_555
C19_6 C4_6 1_555 1_555
H11_6 C19_6 1_555 1_555
C20_6 C3_6 1_555 1_555
C21_6 C15_6 1_555 1_555
O3_6 C5_6 1_555 1_555
O4_6 C5_6 1_555 1_555
O5_6 Ga1_6 1_555 1_555
O6_6 C7_6 1_555 1_555
O7_6 C7_6 1_555 1_555
O8_6 Ga2_6 1_555 1_555
O9_6 Ga1_6 1_555 1_555
Ga3_6 O9_6 1_555 1_555
C22_6 H12_6 1_555 1_555
C23_6 C22_6 1_555 1_555
C30_6 C23_6 1_555 1_555
C33_6 H17_6 1_555 1_555
C34_6 C23_6 1_555 1_555
H18_6 C34_6 1_555 1_555
O10_6 Ga3_6 1_555 1_555
O13_6 Ga1_6 1_555 1_555
O16_6 Ga3_6 1_555 1_555
Ga5_2 O6_6 1_555 1_555
Ga10 O7_6 1_555 1_555
Ga10_3 O3_6 1_555 1_555
Ga8 O4_6 1_555 1_555
O17_6 Ga3_6 1_555 1_555
O18_6 Ga2_6 1_555 1_555
O19_6 Ga2_6 1_555 1_555
O20_6 Ga3_6 1_555 1_555
O21_6 Ga1_6 1_555 1_555
O22_6 Ga1_6 1_555 1_555
O23_6 Ga3_6 1_555 1_555
O24_6 Ga2_6 1_555 1_555
Ga2_6 O9_6 1_555 1_555
C9_6 O5_6 1_555 1_555
C9_6 O8_6 1_555 1_555
C12_6 C13_6 1_555 1_555
C14_6 C18_6 1_555 1_555
C16_6 C18_6 1_555 1_555
C17_6 C20_6 1_555 1_555
C19_6 C21_6 1_555 1_555
C20_6 C21_6 1_555 1_555
C30_6 O13_6 1_555 1_555
C30_6 O16_6 1_555 1_555
C33_6 C34_6 1_555 1_555
C24_6 H13_6 1_555 1_555
C25_6 H14_6 1_555 1_555
C26_6 C29_6 1_555 1_555
C27_6 C25_6 1_555 1_555
C28_6 C27_6 1_555 1_555
C29_6 C24_6 1_555 1_555
C31_6 C29_6 1_555 1_555
H15_6 C31_6 1_555 1_555
C32_6 C27_6 1_555 1_555
H16_6 C32_6 1_555 1_555
H19_6 C35_6 1_555 1_555
C36_6 C32_6 1_555 1_555
H20_6 C36_6 1_555 1_555
C37_6 C31_6 1_555 1_555
C38_6 C37_6 1_555 1_555
H21_6 C38_6 1_555 1_555
C40_6 C25_6 1_555 1_555
H22_6 C40_6 1_555 1_555
C41_6 C24_6 1_555 1_555
C42_6 C36_6 1_555 1_555
O11_6 C26_6 1_555 1_555
O12_6 C26_6 1_555 1_555
O14_6 C28_6 1_555 1_555
O15_6 C28_6 1_555 1_555
Ga4_6 O14_6 1_555 1_555
Ga7_2 O15_6 1_555 1_555
Ga6_4 O11_6 1_555 1_555
Ga11_6 O12_6 1_555 1_555
C35_6 C39_6 1_555 1_555
C37_6 C39_6 1_555 1_555
C38_6 C41_6 1_555 1_555
C40_6 C42_6 1_555 1_555
C41_6 C42_6 1_555 1_555
Ga1_7 O1_7 1_555 1_555
Ga2_7 O2_7 1_555 1_555
C1_7 H1_7 1_555 1_555
C2_7 C1_7 1_555 1_555
C3_7 H2_7 1_555 1_555
C4_7 H3_7 1_555 1_555
C5_7 C8_7 1_555 1_555
C6_7 C4_7 1_555 1_555
C7_7 C6_7 1_555 1_555
C8_7 C3_7 1_555 1_555
C9_7 C2_7 1_555 1_555
C10_7 C8_7 1_555 1_555
H4_7 C10_7 1_555 1_555
C11_7 C6_7 1_555 1_555
H5_7 C11_7 1_555 1_555
C12_7 H6_7 1_555 1_555
C13_7 C2_7 1_555 1_555
H7_7 C13_7 1_555 1_555
C14_7 C1_7 1_555 1_555
H8_7 C14_7 1_555 1_555
C15_7 C11_7 1_555 1_555
H9_7 C15_7 1_555 1_555
C16_7 C10_7 1_555 1_555
C17_7 C16_7 1_555 1_555
H10_7 C17_7 1_555 1_555
C18_7 C12_7 1_555 1_555
C19_7 C4_7 1_555 1_555
H11_7 C19_7 1_555 1_555
C20_7 C3_7 1_555 1_555
C21_7 C15_7 1_555 1_555
O3_7 C5_7 1_555 1_555
O4_7 C5_7 1_555 1_555
O5_7 Ga1_7 1_555 1_555
O6_7 C7_7 1_555 1_555
O8_7 Ga2_7 1_555 1_555
O9_7 Ga1_7 1_555 1_555
Ga3_7 O9_7 1_555 1_555
C22_7 H12_7 1_555 1_555
C23_7 C22_7 1_555 1_555
C24_7 H13_7 1_555 1_555
C25_7 H14_7 1_555 1_555
C26_7 C29_7 1_555 1_555
C27_7 C25_7 1_555 1_555
C28_7 C27_7 1_555 1_555
C29_7 C24_7 1_555 1_555
C30_7 C23_7 1_555 1_555
C31_7 C29_7 1_555 1_555
H15_7 C31_7 1_555 1_555
C32_7 C27_7 1_555 1_555
H16_7 C32_7 1_555 1_555
C33_7 H17_7 1_555 1_555
C34_7 C23_7 1_555 1_555
H18_7 C34_7 1_555 1_555
C35_7 C22_7 1_555 1_555
H19_7 C35_7 1_555 1_555
C36_7 C32_7 1_555 1_555
H20_7 C36_7 1_555 1_555
C37_7 C31_7 1_555 1_555
C38_7 C37_7 1_555 1_555
H21_7 C38_7 1_555 1_555
C39_7 C33_7 1_555 1_555
C40_7 C25_7 1_555 1_555
H22_7 C40_7 1_555 1_555
C41_7 C24_7 1_555 1_555
C42_7 C36_7 1_555 1_555
O10_7 Ga3_7 1_555 1_555
O11_7 C26_7 1_555 1_555
O12_7 C26_7 1_555 1_555
O13_7 Ga1_7 1_555 1_555
O14_7 C28_7 1_555 1_555
O16_7 Ga3_7 1_555 1_555
Ga4_4 O14_7 1_555 1_555
Ga4 O6_7 1_555 1_555
Ga11_6 O11_7 1_555 1_555
Ga11_3 O3_7 1_555 1_555
Ga6_2 O4_7 1_555 1_555
Ga6_4 O12_7 1_555 1_555
O17_7 Ga3_7 1_555 1_555
O18_7 Ga2_7 1_555 1_555
O19_7 Ga2_7 1_555 1_555
O20_7 Ga3_7 1_555 1_555
O21_7 Ga1_7 1_555 1_555
O22_7 Ga1_7 1_555 1_555
O23_7 Ga3_7 1_555 1_555
O24_7 Ga2_7 1_555 1_555
Ga2_7 O9_7 1_555 1_555
C9_7 O5_7 1_555 1_555
C9_7 O8_7 1_555 1_555
C12_7 C13_7 1_555 1_555
C14_7 C18_7 1_555 1_555
C16_7 C18_7 1_555 1_555
C17_7 C20_7 1_555 1_555
C19_7 C21_7 1_555 1_555
C20_7 C21_7 1_555 1_555
C30_7 O13_7 1_555 1_555
C30_7 O16_7 1_555 1_555
C33_7 C34_7 1_555 1_555
C35_7 C39_7 1_555 1_555
C37_7 C39_7 1_555 1_555
C38_7 C41_7 1_555 1_555
C40_7 C42_7 1_555 1_555
C41_7 C42_7 1_555 1_555
Ga11_2 O7_7 1_555 1_555
Ga11_5 O15_7 1_555 1_555
Ga11_3 O7_8 1_555 1_555
Ga1_8 O1_8 1_555 1_555
C4_8 H3_8 1_555 1_555
C6_8 C4_8 1_555 1_555
C7_8 C6_8 1_555 1_555
C11_8 C6_8 1_555 1_555
H5_8 C11_8 1_555 1_555
C15_8 C11_8 1_555 1_555
H9_8 C15_8 1_555 1_555
C19_8 C4_8 1_555 1_555
H11_8 C19_8 1_555 1_555
C21_8 C15_8 1_555 1_555
O6_8 C7_8 1_555 1_555
O9_8 Ga1_8 1_555 1_555
Ga3_8 O9_8 1_555 1_555
C22_8 H12_8 1_555 1_555
C23_8 C22_8 1_555 1_555
C24_8 H13_8 1_555 1_555
C26_8 C29_8 1_555 1_555
C29_8 C24_8 1_555 1_555
C30_8 C23_8 1_555 1_555
C31_8 C29_8 1_555 1_555
H15_8 C31_8 1_555 1_555
C34_8 C23_8 1_555 1_555
C35_8 C22_8 1_555 1_555
H19_8 C35_8 1_555 1_555
C37_8 C31_8 1_555 1_555
C38_8 C37_8 1_555 1_555
C39_8 C33_8 1_555 1_555
C41_8 C24_8 1_555 1_555
O10_8 Ga3_8 1_555 1_555
O11_8 C26_8 1_555 1_555
O12_8 C26_8 1_555 1_555
O13_8 Ga1_8 1_555 1_555
O16_8 Ga3_8 1_555 1_555
Ga4_2 O6_8 1_555 1_555
Ga11_5 O11_8 1_555 1_555
Ga6_3 O12_8 1_555 1_555
O17_8 Ga3_8 1_555 1_555
O20_8 Ga3_8 1_555 1_555
O21_8 Ga1_8 1_555 1_555
O23_8 Ga3_8 1_555 1_555
C19_8 C21_8 1_555 1_555
C30_8 O13_8 1_555 1_555
C30_8 O16_8 1_555 1_555
C33_8 C34_8 1_555 1_555
C35_8 C39_8 1_555 1_555
C37_8 C39_8 1_555 1_555
C38_8 C41_8 1_555 1_555
O1_8 H25 1_555 1_555
O1_8 H26 1_555 1_555
Ga1_9 O1_9 1_555 1_555
Ga2_8 O2_8 1_555 1_555
C1_8 H1_8 1_555 1_555
C2_8 C1_8 1_555 1_555
C3_8 H2_8 1_555 1_555
C5_8 C8_8 1_555 1_555
C8_8 C3_8 1_555 1_555
C9_8 C2_8 1_555 1_555
C10_8 C8_8 1_555 1_555
H4_8 C10_8 1_555 1_555
C13_8 C2_8 1_555 1_555
C14_8 C1_8 1_555 1_555
H8_8 C14_8 1_555 1_555
C16_8 C10_8 1_555 1_555
C17_8 C16_8 1_555 1_555
C18_8 C12_8 1_555 1_555
C20_8 C3_8 1_555 1_555
O3_8 C5_8 1_555 1_555
O4_8 C5_8 1_555 1_555
O5_8 Ga1_9 1_555 1_555
O8_8 Ga2_8 1_555 1_555
O9_9 Ga1_9 1_555 1_555
C25_8 H14_8 1_555 1_555
C27_8 C25_8 1_555 1_555
C28_8 C27_8 1_555 1_555
C32_8 C27_8 1_555 1_555
H16_8 C32_8 1_555 1_555
C36_8 C32_8 1_555 1_555
H20_8 C36_8 1_555 1_555
C40_8 C25_8 1_555 1_555
H22_8 C40_8 1_555 1_555
C42_8 C36_8 1_555 1_555
O14_8 C28_8 1_555 1_555
O15_8 C28_8 1_555 1_555
Ga4_6 O14_8 1_555 1_555
Ga11_4 O15_8 1_555 1_555
Ga11 O3_8 1_555 1_555
Ga7 O4_8 1_555 1_555
O18_8 Ga2_8 1_555 1_555
O19_8 Ga2_8 1_555 1_555
O22_8 Ga1_9 1_555 1_555
O24_8 Ga2_8 1_555 1_555
Ga2_8 O9_9 1_555 1_555
C9_8 O5_8 1_555 1_555
C9_8 O8_8 1_555 1_555
C12_8 C13_8 1_555 1_555
C14_8 C18_8 1_555 1_555
C16_8 C18_8 1_555 1_555
C17_8 C20_8 1_555 1_555
C40_8 C42_8 1_555 1_555
Ga11_6 O15_9 1_555 1_555
Ga1_10 O1_10 1_555 1_555
Ga2_9 O2_9 1_555 1_555
C1_9 H1_9 1_555 1_555
C2_9 C1_9 1_555 1_555
C3_9 H2_9 1_555 1_555
C5_9 C8_9 1_555 1_555
C8_9 C3_9 1_555 1_555
C9_9 C2_9 1_555 1_555
C10_9 C8_9 1_555 1_555
H4_9 C10_9 1_555 1_555
C13_9 C2_9 1_555 1_555
C14_9 C1_9 1_555 1_555
H8_9 C14_9 1_555 1_555
C16_9 C10_9 1_555 1_555
C17_9 C16_9 1_555 1_555
C18_9 C12_9 1_555 1_555
C20_9 C3_9 1_555 1_555
O3_9 C5_9 1_555 1_555
O4_9 C5_9 1_555 1_555
O5_9 Ga1_10 1_555 1_555
O8_9 Ga2_9 1_555 1_555
O9_10 Ga1_10 1_555 1_555
C25_9 H14_9 1_555 1_555
C27_9 C25_9 1_555 1_555
C28_9 C27_9 1_555 1_555
C32_9 C27_9 1_555 1_555
H16_9 C32_9 1_555 1_555
C36_9 C32_9 1_555 1_555
H20_9 C36_9 1_555 1_555
C40_9 C25_9 1_555 1_555
H22_9 C40_9 1_555 1_555
C42_9 C36_9 1_555 1_555
O14_9 C28_9 1_555 1_555
Ga4_5 O14_9 1_555 1_555
Ga11_2 O3_9 1_555 1_555
Ga6 O4_9 1_555 1_555
O18_9 Ga2_9 1_555 1_555
O19_9 Ga2_9 1_555 1_555
O22_9 Ga1_10 1_555 1_555
O24_9 Ga2_9 1_555 1_555
Ga2_9 O9_10 1_555 1_555
C9_9 O5_9 1_555 1_555
C9_9 O8_9 1_555 1_555
C12_9 C13_9 1_555 1_555
C14_9 C18_9 1_555 1_555
C16_9 C18_9 1_555 1_555
C17_9 C20_9 1_555 1_555
C40_9 C42_9 1_555 1_555
Ga1_11 O1_11 1_555 1_555
C4_9 H3_9 1_555 1_555
C6_9 C4_9 1_555 1_555
C7_9 C6_9 1_555 1_555
C11_9 C6_9 1_555 1_555
H5_9 C11_9 1_555 1_555
C15_9 C11_9 1_555 1_555
H9_9 C15_9 1_555 1_555
C19_9 C4_9 1_555 1_555
H11_9 C19_9 1_555 1_555
C21_9 C15_9 1_555 1_555
O6_9 C7_9 1_555 1_555
O7_9 C7_9 1_555 1_555
O9_11 Ga1_11 1_555 1_555
Ga3_9 O9_11 1_555 1_555
C22_9 H12_9 1_555 1_555
C23_9 C22_9 1_555 1_555
C24_9 H13_9 1_555 1_555
C26_9 C29_9 1_555 1_555
C29_9 C24_9 1_555 1_555
C30_9 C23_9 1_555 1_555
C31_9 C29_9 1_555 1_555
H15_9 C31_9 1_555 1_555
C34_9 C23_9 1_555 1_555
C35_9 C22_9 1_555 1_555
H19_9 C35_9 1_555 1_555
C37_9 C31_9 1_555 1_555
C38_9 C37_9 1_555 1_555
C39_9 C33_9 1_555 1_555
C41_9 C24_9 1_555 1_555
O10_9 Ga3_9 1_555 1_555
O11_9 C26_9 1_555 1_555
O12_9 C26_9 1_555 1_555
O13_9 Ga1_11 1_555 1_555
O16_9 Ga3_9 1_555 1_555
Ga4_3 O6_9 1_555 1_555
Ga11_4 O11_9 1_555 1_555
Ga11 O7_9 1_555 1_555
Ga7_2 O12_9 1_555 1_555
O17_9 Ga3_9 1_555 1_555
O20_9 Ga3_9 1_555 1_555
O21_9 Ga1_11 1_555 1_555
O23_9 Ga3_9 1_555 1_555
C19_9 C21_9 1_555 1_555
C30_9 O13_9 1_555 1_555
C30_9 O16_9 1_555 1_555
C33_9 C34_9 1_555 1_555
C35_9 C39_9 1_555 1_555
C37_9 C39_9 1_555 1_555
C38_9 C41_9 1_555 1_555
O1_11 H25_2 1_555 1_555
O1_11 H26_2 1_555 1_555
O1_10 H25_3 1_555 1_555
O1_10 H26_3 1_555 1_555
O1_9 H25_4 1_555 1_555
O1_9 H26_4 1_555 1_555
Ga4 O1_12 1_555 1_555
C3_10 H2_10 1_555 1_555
C4_10 H3_10 1_555 1_555
C5_10 C8_10 1_555 1_555
C6_10 C4_10 1_555 1_555
C7_10 C6_10 1_555 1_555
C8_10 C3_10 1_555 1_555
C10_10 C8_10 1_555 1_555
H4_10 C10_10 1_555 1_555
C11_10 C6_10 1_555 1_555
H5_10 C11_10 1_555 1_555
C12_10 H6_10 1_555 1_555
H7_10 C13_10 1_555 1_555
C15_10 C11_10 1_555 1_555
H9_10 C15_10 1_555 1_555
C16_10 C10_10 1_555 1_555
C17_10 C16_10 1_555 1_555
H10_10 C17_10 1_555 1_555
C18_10 C12_10 1_555 1_555
C19_10 C4_10 1_555 1_555
H11_10 C19_10 1_555 1_555
C20_10 C3_10 1_555 1_555
C21_10 C15_10 1_555 1_555
O17_8 C5_10 1_555 1_555
O5_10 Ga4 1_555 1_555
O21_7 C7_10 1_555 1_555
O23_7 C7_10 1_555 1_555
C22_10 H12_10 1_555 1_555
C23_10 C22_10 1_555 1_555
C24_10 H13_10 1_555 1_555
C25_10 H14_10 1_555 1_555
C26_10 C29_10 1_555 1_555
C27_10 C25_10 1_555 1_555
C28_10 C27_10 1_555 1_555
C29_10 C24_10 1_555 1_555
C30_10 C23_10 1_555 1_555
C31_10 C29_10 1_555 1_555
H15_10 C31_10 1_555 1_555
C32_10 C27_10 1_555 1_555
H16_10 C32_10 1_555 1_555
C33_10 H17_10 1_555 1_555
C34_10 C23_10 1_555 1_555
H18_10 C34_10 1_555 1_555
C35_10 C22_10 1_555 1_555
H19_10 C35_10 1_555 1_555
C36_10 C32_10 1_555 1_555
H20_10 C36_10 1_555 1_555
C37_10 C31_10 1_555 1_555
C38_10 C37_10 1_555 1_555
H21_10 C38_10 1_555 1_555
C39_10 C33_10 1_555 1_555
C40_10 C25_10 1_555 1_555
H22_10 C40_10 1_555 1_555
C41_10 C24_10 1_555 1_555
C42_10 C36_10 1_555 1_555
O18_3 C26_10 1_555 1_555
O20_3 C26_10 1_555 1_555
O13_10 Ga4 1_555 1_555
O22 C28_10 1_555 1_555
O24 C28_10 1_555 1_555
C12_10 C13_10 1_555 1_555
C16_10 C18_10 1_555 1_555
C17_10 C20_10 1_555 1_555
C19_10 C21_10 1_555 1_555
C20_10 C21_10 1_555 1_555
C30_10 O13_10 1_555 1_555
C33_10 C34_10 1_555 1_555
C35_10 C39_10 1_555 1_555
C37_10 C39_10 1_555 1_555
C38_10 C41_10 1_555 1_555
C40_10 C42_10 1_555 1_555
C41_10 C42_10 1_555 1_555
Ga6 O2_10 1_555 1_555
C1_10 H1_10 1_555 1_555
C2_10 C1_10 1_555 1_555
C9_10 C2_10 1_555 1_555
C14_10 C1_10 1_555 1_555
H8_10 C14_10 1_555 1_555
O8_10 Ga6 1_555 1_555
Ga11_2 O9_12 1_555 1_555
O10_10 Ga11_2 1_555 1_555
O16_10 Ga11_2 1_555 1_555
Ga6 O9_12 1_555 1_555
C9_10 O8_10 1_555 1_555
Ga6_2 O2_11 1_555 1_555
C1_11 H1_11 1_555 1_555
C2_11 C1_11 1_555 1_555
C9_11 C2_11 1_555 1_555
C14_11 C1_11 1_555 1_555
H8_11 C14_11 1_555 1_555
O8_11 Ga6_2 1_555 1_555
Ga11_3 O9_13 1_555 1_555
O10_11 Ga11_3 1_555 1_555
O16_11 Ga11_3 1_555 1_555
Ga6_2 O9_13 1_555 1_555
C9_11 O8_11 1_555 1_555
Ga4_2 O1_13 1_555 1_555
C3_11 H2_11 1_555 1_555
C4_11 H3_11 1_555 1_555
C5_11 C8_11 1_555 1_555
C6_11 C4_11 1_555 1_555
C7_11 C6_11 1_555 1_555
C8_11 C3_11 1_555 1_555
C10_11 C8_11 1_555 1_555
H4_11 C10_11 1_555 1_555
C11_11 C6_11 1_555 1_555
H5_11 C11_11 1_555 1_555
C12_11 H6_11 1_555 1_555
H7_11 C13_11 1_555 1_555
C15_11 C11_11 1_555 1_555
H9_11 C15_11 1_555 1_555
C16_11 C10_11 1_555 1_555
C17_11 C16_11 1_555 1_555
H10_11 C17_11 1_555 1_555
C18_11 C12_11 1_555 1_555
C19_11 C4_11 1_555 1_555
H11_11 C19_11 1_555 1_555
C20_11 C3_11 1_555 1_555
C21_11 C15_11 1_555 1_555
O17_9 C5_11 1_555 1_555
O5_11 Ga4_2 1_555 1_555
O21_8 C7_11 1_555 1_555
O23_8 C7_11 1_555 1_555
C22_11 H12_11 1_555 1_555
C23_11 C22_11 1_555 1_555
C24_11 H13_11 1_555 1_555
C25_11 H14_11 1_555 1_555
C26_11 C29_11 1_555 1_555
C27_11 C25_11 1_555 1_555
C28_11 C27_11 1_555 1_555
C29_11 C24_11 1_555 1_555
C30_11 C23_11 1_555 1_555
C31_11 C29_11 1_555 1_555
H15_11 C31_11 1_555 1_555
C32_11 C27_11 1_555 1_555
H16_11 C32_11 1_555 1_555
C33_11 H17_11 1_555 1_555
C34_11 C23_11 1_555 1_555
H18_11 C34_11 1_555 1_555
C35_11 C22_11 1_555 1_555
H19_11 C35_11 1_555 1_555
C36_11 C32_11 1_555 1_555
H20_11 C36_11 1_555 1_555
C37_11 C31_11 1_555 1_555
C38_11 C37_11 1_555 1_555
H21_11 C38_11 1_555 1_555
C39_11 C33_11 1_555 1_555
C40_11 C25_11 1_555 1_555
H22_11 C40_11 1_555 1_555
C41_11 C24_11 1_555 1_555
C42_11 C36_11 1_555 1_555
O18 C26_11 1_555 1_555
O20 C26_11 1_555 1_555
O13_11 Ga4_2 1_555 1_555
O22_2 C28_11 1_555 1_555
O24_2 C28_11 1_555 1_555
C12_11 C13_11 1_555 1_555
C16_11 C18_11 1_555 1_555
C17_11 C20_11 1_555 1_555
C19_11 C21_11 1_555 1_555
C20_11 C21_11 1_555 1_555
C30_11 O13_11 1_555 1_555
C33_11 C34_11 1_555 1_555
C35_11 C39_11 1_555 1_555
C37_11 C39_11 1_555 1_555
C38_11 C41_11 1_555 1_555
C40_11 C42_11 1_555 1_555
C41_11 C42_11 1_555 1_555
Ga4_3 O1_14 1_555 1_555
Ga7 O2_12 1_555 1_555
C1_12 H1_12 1_555 1_555
C2_12 C1_12 1_555 1_555
C3_12 H2_12 1_555 1_555
C4_12 H3_12 1_555 1_555
C5_12 C8_12 1_555 1_555
C6_12 C4_12 1_555 1_555
C7_12 C6_12 1_555 1_555
C8_12 C3_12 1_555 1_555
C9_12 C2_12 1_555 1_555
C10_12 C8_12 1_555 1_555
H4_12 C10_12 1_555 1_555
C11_12 C6_12 1_555 1_555
H5_12 C11_12 1_555 1_555
C12_12 H6_12 1_555 1_555
C13_12 C2_12 1_555 1_555
H7_12 C13_12 1_555 1_555
C14_12 C1_12 1_555 1_555
H8_12 C14_12 1_555 1_555
C15_12 C11_12 1_555 1_555
H9_12 C15_12 1_555 1_555
C16_12 C10_12 1_555 1_555
C17_12 C16_12 1_555 1_555
H10_12 C17_12 1_555 1_555
C18_12 C12_12 1_555 1_555
C19_12 C4_12 1_555 1_555
H11_12 C19_12 1_555 1_555
C20_12 C3_12 1_555 1_555
C21_12 C15_12 1_555 1_555
O17_7 C5_12 1_555 1_555
O19_7 C5_12 1_555 1_555
O5_12 Ga4_3 1_555 1_555
O21_9 C7_12 1_555 1_555
O23_9 C7_12 1_555 1_555
O8_12 Ga7 1_555 1_555
O9_14 Ga4_3 1_555 1_555
Ga11 O9_14 1_555 1_555
C22_12 H12_12 1_555 1_555
C23_12 C22_12 1_555 1_555
C24_12 H13_12 1_555 1_555
C25_12 H14_12 1_555 1_555
C26_12 C29_12 1_555 1_555
C27_12 C25_12 1_555 1_555
C28_12 C27_12 1_555 1_555
C29_12 C24_12 1_555 1_555
C30_12 C23_12 1_555 1_555
C31_12 C29_12 1_555 1_555
H15_12 C31_12 1_555 1_555
C32_12 C27_12 1_555 1_555
H16_12 C32_12 1_555 1_555
C33_12 H17_12 1_555 1_555
C34_12 C23_12 1_555 1_555
H18_12 C34_12 1_555 1_555
C35_12 C22_12 1_555 1_555
H19_12 C35_12 1_555 1_555
C36_12 C32_12 1_555 1_555
H20_12 C36_12 1_555 1_555
C37_12 C31_12 1_555 1_555
C38_12 C37_12 1_555 1_555
H21_12 C38_12 1_555 1_555
C39_12 C33_12 1_555 1_555
C40_12 C25_12 1_555 1_555
H22_12 C40_12 1_555 1_555
C41_12 C24_12 1_555 1_555
C42_12 C36_12 1_555 1_555
O10_12 Ga11 1_555 1_555
O18_2 C26_12 1_555 1_555
O20_2 C26_12 1_555 1_555
O13_12 Ga4_3 1_555 1_555
O22_3 C28_12 1_555 1_555
O24_3 C28_12 1_555 1_555
O16_12 Ga11 1_555 1_555
Ga7 O9_14 1_555 1_555
C9_12 O5_12 1_555 1_555
C9_12 O8_12 1_555 1_555
C12_12 C13_12 1_555 1_555
C14_12 C18_12 1_555 1_555
C16_12 C18_12 1_555 1_555
C17_12 C20_12 1_555 1_555
C19_12 C21_12 1_555 1_555
C20_12 C21_12 1_555 1_555
C30_12 O13_12 1_555 1_555
C30_12 O16_12 1_555 1_555
C33_12 C34_12 1_555 1_555
C35_12 C39_12 1_555 1_555
C37_12 C39_12 1_555 1_555
C38_12 C41_12 1_555 1_555
C40_12 C42_12 1_555 1_555
C41_12 C42_12 1_555 1_555
C24_13 H13_13 1_555 1_555
C25_13 H14_13 1_555 1_555
C26_13 C29_13 1_555 1_555
C27_13 C25_13 1_555 1_555
C28_13 C27_13 1_555 1_555
C29_13 C24_13 1_555 1_555
C31_13 C29_13 1_555 1_555
H15_13 C31_13 1_555 1_555
C32_13 C27_13 1_555 1_555
H16_13 C32_13 1_555 1_555
H19_13 C35_13 1_555 1_555
C36_13 C32_13 1_555 1_555
H20_13 C36_13 1_555 1_555
C37_13 C31_13 1_555 1_555
C38_13 C37_13 1_555 1_555
H21_13 C38_13 1_555 1_555
C40_13 C25_13 1_555 1_555
H22_13 C40_13 1_555 1_555
C41_13 C24_13 1_555 1_555
C42_13 C36_13 1_555 1_555
O18_6 C26_13 1_555 1_555
O20_6 C26_13 1_555 1_555
O22_4 C28_13 1_555 1_555
O24_4 C28_13 1_555 1_555
C35_13 C39_13 1_555 1_555
C37_13 C39_13 1_555 1_555
C38_13 C41_13 1_555 1_555
C40_13 C42_13 1_555 1_555
C41_13 C42_13 1_555 1_555
Ga4_4 O1_15 1_555 1_555
C3_13 H2_13 1_555 1_555
C4_13 H3_13 1_555 1_555
C5_13 C8_13 1_555 1_555
C6_13 C4_13 1_555 1_555
C7_13 C6_13 1_555 1_555
C8_13 C3_13 1_555 1_555
C10_13 C8_13 1_555 1_555
H4_13 C10_13 1_555 1_555
C11_13 C6_13 1_555 1_555
H5_13 C11_13 1_555 1_555
C12_13 H6_13 1_555 1_555
H7_13 C13_13 1_555 1_555
C15_13 C11_13 1_555 1_555
H9_13 C15_13 1_555 1_555
C16_13 C10_13 1_555 1_555
C17_13 C16_13 1_555 1_555
H10_13 C17_13 1_555 1_555
C18_13 C12_13 1_555 1_555
C19_13 C4_13 1_555 1_555
H11_13 C19_13 1_555 1_555
C20_13 C3_13 1_555 1_555
C21_13 C15_13 1_555 1_555
O18_9 C5_13 1_555 1_555
O5_13 Ga4_4 1_555 1_555
O22_7 C7_13 1_555 1_555
O24_7 C7_13 1_555 1_555
C22_13 H12_13 1_555 1_555
C23_13 C22_13 1_555 1_555
C30_13 C23_13 1_555 1_555
C33_13 H17_13 1_555 1_555
C34_13 C23_13 1_555 1_555
H18_13 C34_13 1_555 1_555
O13_13 Ga4_4 1_555 1_555
C12_13 C13_13 1_555 1_555
C16_13 C18_13 1_555 1_555
C17_13 C20_13 1_555 1_555
C19_13 C21_13 1_555 1_555
C20_13 C21_13 1_555 1_555
C30_13 O13_13 1_555 1_555
C33_13 C34_13 1_555 1_555
Ga6_3 O2_13 1_555 1_555
C1_13 H1_13 1_555 1_555
C2_13 C1_13 1_555 1_555
C9_13 C2_13 1_555 1_555
C14_13 C1_13 1_555 1_555
H8_13 C14_13 1_555 1_555
O8_13 Ga6_3 1_555 1_555
Ga11_5 O9_15 1_555 1_555
O10_13 Ga11_5 1_555 1_555
O16_13 Ga11_5 1_555 1_555
Ga6_3 O9_15 1_555 1_555
C9_13 O8_13 1_555 1_555
Ga6_4 O2_14 1_555 1_555
C1_14 H1_14 1_555 1_555
C2_14 C1_14 1_555 1_555
C9_14 C2_14 1_555 1_555
C14_14 C1_14 1_555 1_555
H8_14 C14_14 1_555 1_555
O8_14 Ga6_4 1_555 1_555
Ga11_6 O9_16 1_555 1_555
O10_14 Ga11_6 1_555 1_555
O16_14 Ga11_6 1_555 1_555
Ga6_4 O9_16 1_555 1_555
C9_14 O8_14 1_555 1_555
C24_14 H13_14 1_555 1_555
C25_14 H14_14 1_555 1_555
C26_14 C29_14 1_555 1_555
C27_14 C25_14 1_555 1_555
C28_14 C27_14 1_555 1_555
C29_14 C24_14 1_555 1_555
C31_14 C29_14 1_555 1_555
H15_14 C31_14 1_555 1_555
C32_14 C27_14 1_555 1_555
H16_14 C32_14 1_555 1_555
H19_14 C35_14 1_555 1_555
C36_14 C32_14 1_555 1_555
H20_14 C36_14 1_555 1_555
C37_14 C31_14 1_555 1_555
C38_14 C37_14 1_555 1_555
H21_14 C38_14 1_555 1_555
C40_14 C25_14 1_555 1_555
H22_14 C40_14 1_555 1_555
C41_14 C24_14 1_555 1_555
C42_14 C36_14 1_555 1_555
O18_4 C26_14 1_555 1_555
O20_4 C26_14 1_555 1_555
O22_5 C28_14 1_555 1_555
O24_5 C28_14 1_555 1_555
C35_14 C39_14 1_555 1_555
C37_14 C39_14 1_555 1_555
C38_14 C41_14 1_555 1_555
C40_14 C42_14 1_555 1_555
C41_14 C42_14 1_555 1_555
Ga4_5 O1_16 1_555 1_555
C3_14 H2_14 1_555 1_555
C4_14 H3_14 1_555 1_555
C5_14 C8_14 1_555 1_555
C6_14 C4_14 1_555 1_555
C7_14 C6_14 1_555 1_555
C8_14 C3_14 1_555 1_555
C10_14 C8_14 1_555 1_555
H4_14 C10_14 1_555 1_555
C11_14 C6_14 1_555 1_555
H5_14 C11_14 1_555 1_555
C12_14 H6_14 1_555 1_555
H7_14 C13_14 1_555 1_555
C15_14 C11_14 1_555 1_555
H9_14 C15_14 1_555 1_555
C16_14 C10_14 1_555 1_555
C17_14 C16_14 1_555 1_555
H10_14 C17_14 1_555 1_555
C18_14 C12_14 1_555 1_555
C19_14 C4_14 1_555 1_555
H11_14 C19_14 1_555 1_555
C20_14 C3_14 1_555 1_555
C21_14 C15_14 1_555 1_555
O18_8 C5_14 1_555 1_555
O5_14 Ga4_5 1_555 1_555
O22_9 C7_14 1_555 1_555
O24_9 C7_14 1_555 1_555
C22_14 H12_14 1_555 1_555
C23_14 C22_14 1_555 1_555
C30_14 C23_14 1_555 1_555
C33_14 H17_14 1_555 1_555
C34_14 C23_14 1_555 1_555
H18_14 C34_14 1_555 1_555
O13_14 Ga4_5 1_555 1_555
C12_14 C13_14 1_555 1_555
C16_14 C18_14 1_555 1_555
C17_14 C20_14 1_555 1_555
C19_14 C21_14 1_555 1_555
C20_14 C21_14 1_555 1_555
C30_14 O13_14 1_555 1_555
C33_14 C34_14 1_555 1_555
C24_15 H13_15 1_555 1_555
C25_15 H14_15 1_555 1_555
C26_15 C29_15 1_555 1_555
C27_15 C25_15 1_555 1_555
C28_15 C27_15 1_555 1_555
C29_15 C24_15 1_555 1_555
C31_15 C29_15 1_555 1_555
H15_15 C31_15 1_555 1_555
C32_15 C27_15 1_555 1_555
H16_15 C32_15 1_555 1_555
H19_15 C35_15 1_555 1_555
C36_15 C32_15 1_555 1_555
H20_15 C36_15 1_555 1_555
C37_15 C31_15 1_555 1_555
C38_15 C37_15 1_555 1_555
H21_15 C38_15 1_555 1_555
C40_15 C25_15 1_555 1_555
H22_15 C40_15 1_555 1_555
C41_15 C24_15 1_555 1_555
C42_15 C36_15 1_555 1_555
O18_5 C26_15 1_555 1_555
O20_5 C26_15 1_555 1_555
O22_6 C28_15 1_555 1_555
O24_6 C28_15 1_555 1_555
C35_15 C39_15 1_555 1_555
C37_15 C39_15 1_555 1_555
C38_15 C41_15 1_555 1_555
C40_15 C42_15 1_555 1_555
C41_15 C42_15 1_555 1_555
Ga4_6 O1_17 1_555 1_555
Ga7_2 O2_15 1_555 1_555
C1_15 H1_15 1_555 1_555
C2_15 C1_15 1_555 1_555
C3_15 H2_15 1_555 1_555
C4_15 H3_15 1_555 1_555
C5_15 C8_15 1_555 1_555
C6_15 C4_15 1_555 1_555
C7_15 C6_15 1_555 1_555
C8_15 C3_15 1_555 1_555
C9_15 C2_15 1_555 1_555
C10_15 C8_15 1_555 1_555
H4_15 C10_15 1_555 1_555
C11_15 C6_15 1_555 1_555
H5_15 C11_15 1_555 1_555
C12_15 H6_15 1_555 1_555
C13_15 C2_15 1_555 1_555
H7_15 C13_15 1_555 1_555
C14_15 C1_15 1_555 1_555
H8_15 C14_15 1_555 1_555
C15_15 C11_15 1_555 1_555
H9_15 C15_15 1_555 1_555
C16_15 C10_15 1_555 1_555
C17_15 C16_15 1_555 1_555
H10_15 C17_15 1_555 1_555
C18_15 C12_15 1_555 1_555
C19_15 C4_15 1_555 1_555
H11_15 C19_15 1_555 1_555
C20_15 C3_15 1_555 1_555
C21_15 C15_15 1_555 1_555
O18_7 C5_15 1_555 1_555
O20_7 C5_15 1_555 1_555
O5_15 Ga4_6 1_555 1_555
O22_8 C7_15 1_555 1_555
O24_8 C7_15 1_555 1_555
O8_15 Ga7_2 1_555 1_555
O9_17 Ga4_6 1_555 1_555
Ga11_4 O9_17 1_555 1_555
C22_15 H12_15 1_555 1_555
C23_15 C22_15 1_555 1_555
C30_15 C23_15 1_555 1_555
C33_15 H17_15 1_555 1_555
C34_15 C23_15 1_555 1_555
H18_15 C34_15 1_555 1_555
O10_15 Ga11_4 1_555 1_555
O13_15 Ga4_6 1_555 1_555
O16_15 Ga11_4 1_555 1_555
Ga7_2 O9_17 1_555 1_555
C9_15 O5_15 1_555 1_555
C9_15 O8_15 1_555 1_555
C12_15 C13_15 1_555 1_555
C14_15 C18_15 1_555 1_555
C16_15 C18_15 1_555 1_555
C17_15 C20_15 1_555 1_555
C19_15 C21_15 1_555 1_555
C20_15 C21_15 1_555 1_555
C30_15 O13_15 1_555 1_555
C30_15 O16_15 1_555 1_555
C33_15 C34_15 1_555 1_555
Ga5 O1_18 1_555 1_555
Ga10_3 O2_16 1_555 1_555
C1_16 H1_16 1_555 1_555
C2_16 C1_16 1_555 1_555
C3_16 H2_16 1_555 1_555
C4_16 H3_16 1_555 1_555
C5_16 C8_16 1_555 1_555
C6_16 C4_16 1_555 1_555
C7_16 C6_16 1_555 1_555
C8_16 C3_16 1_555 1_555
C9_16 C2_16 1_555 1_555
C10_16 C8_16 1_555 1_555
H4_16 C10_16 1_555 1_555
C11_16 C6_16 1_555 1_555
H5_16 C11_16 1_555 1_555
C12_16 H6_16 1_555 1_555
C13_16 C2_16 1_555 1_555
H7_16 C13_16 1_555 1_555
C14_16 C1_16 1_555 1_555
H8_16 C14_16 1_555 1_555
C15_16 C11_16 1_555 1_555
H9_16 C15_16 1_555 1_555
C16_16 C10_16 1_555 1_555
C17_16 C16_16 1_555 1_555
H10_16 C17_16 1_555 1_555
C18_16 C12_16 1_555 1_555
C19_16 C4_16 1_555 1_555
H11_16 C19_16 1_555 1_555
C20_16 C3_16 1_555 1_555
C21_16 C15_16 1_555 1_555
O17_2 C5_16 1_555 1_555
O19_2 C5_16 1_555 1_555
O5_16 Ga5 1_555 1_555
O21 C7_16 1_555 1_555
O8_16 Ga10_3 1_555 1_555
O9_18 Ga5 1_555 1_555
Ga8 O9_18 1_555 1_555
C22_16 H12_16 1_555 1_555
C23_16 C22_16 1_555 1_555
C24_16 H13_16 1_555 1_555
C25_16 H14_16 1_555 1_555
C26_16 C29_16 1_555 1_555
C27_16 C25_16 1_555 1_555
C28_16 C27_16 1_555 1_555
C29_16 C24_16 1_555 1_555
C30_16 C23_16 1_555 1_555
C31_16 C29_16 1_555 1_555
H15_16 C31_16 1_555 1_555
C32_16 C27_16 1_555 1_555
H16_16 C32_16 1_555 1_555
C33_16 H17_16 1_555 1_555
C34_16 C23_16 1_555 1_555
H18_16 C34_16 1_555 1_555
C35_16 C22_16 1_555 1_555
H19_16 C35_16 1_555 1_555
C36_16 C32_16 1_555 1_555
H20_16 C36_16 1_555 1_555
C37_16 C31_16 1_555 1_555
C38_16 C37_16 1_555 1_555
H21_16 C38_16 1_555 1_555
C39_16 C33_16 1_555 1_555
C40_16 C25_16 1_555 1_555
H22_16 C40_16 1_555 1_555
C41_16 C24_16 1_555 1_555
C42_16 C36_16 1_555 1_555
O10_16 Ga8 1_555 1_555
O17_5 C26_16 1_555 1_555
O19_5 C26_16 1_555 1_555
O13_16 Ga5 1_555 1_555
O21_4 C28_16 1_555 1_555
O16_16 Ga8 1_555 1_555
Ga10_3 O9_18 1_555 1_555
C9_16 O5_16 1_555 1_555
C9_16 O8_16 1_555 1_555
C12_16 C13_16 1_555 1_555
C14_16 C18_16 1_555 1_555
C16_16 C18_16 1_555 1_555
C17_16 C20_16 1_555 1_555
C19_16 C21_16 1_555 1_555
C20_16 C21_16 1_555 1_555
C30_16 O13_16 1_555 1_555
C30_16 O16_16 1_555 1_555
C33_16 C34_16 1_555 1_555
C35_16 C39_16 1_555 1_555
C37_16 C39_16 1_555 1_555
C38_16 C41_16 1_555 1_555
C40_16 C42_16 1_555 1_555
C41_16 C42_16 1_555 1_555
Ga5_2 O1_19 1_555 1_555
Ga10 O2_17 1_555 1_555
C1_17 H1_17 1_555 1_555
C2_17 C1_17 1_555 1_555
C3_17 H2_17 1_555 1_555
C5_17 C8_17 1_555 1_555
C8_17 C3_17 1_555 1_555
C9_17 C2_17 1_555 1_555
C10_17 C8_17 1_555 1_555
H4_17 C10_17 1_555 1_555
C13_17 C2_17 1_555 1_555
C14_17 C1_17 1_555 1_555
H8_17 C14_17 1_555 1_555
C16_17 C10_17 1_555 1_555
C17_17 C16_17 1_555 1_555
C18_17 C12_17 1_555 1_555
C20_17 C3_17 1_555 1_555
O17_3 C5_17 1_555 1_555
O19_3 C5_17 1_555 1_555
O5_17 Ga5_2 1_555 1_555
O8_17 Ga10 1_555 1_555
O9_19 Ga5_2 1_555 1_555
C25_17 H14_17 1_555 1_555
C27_17 C25_17 1_555 1_555
C28_17 C27_17 1_555 1_555
C32_17 C27_17 1_555 1_555
H16_17 C32_17 1_555 1_555
C36_17 C32_17 1_555 1_555
H20_17 C36_17 1_555 1_555
C40_17 C25_17 1_555 1_555
H22_17 C40_17 1_555 1_555
C42_17 C36_17 1_555 1_555
O21_6 C28_17 1_555 1_555
O23_6 C28_17 1_555 1_555
Ga10 O9_19 1_555 1_555
C9_17 O5_17 1_555 1_555
C9_17 O8_17 1_555 1_555
C12_17 C13_17 1_555 1_555
C14_17 C18_17 1_555 1_555
C16_17 C18_17 1_555 1_555
C17_17 C20_17 1_555 1_555
C40_17 C42_17 1_555 1_555
Ga5_3 O1_20 1_555 1_555
C4_17 H3_17 1_555 1_555
C6_17 C4_17 1_555 1_555
C7_17 C6_17 1_555 1_555
C11_17 C6_17 1_555 1_555
H5_17 C11_17 1_555 1_555
C15_17 C11_17 1_555 1_555
H9_17 C15_17 1_555 1_555
C19_17 C4_17 1_555 1_555
H11_17 C19_17 1_555 1_555
C21_17 C15_17 1_555 1_555
O21_2 C7_17 1_555 1_555
O9_20 Ga5_3 1_555 1_555
Ga9 O9_20 1_555 1_555
C22_17 H12_17 1_555 1_555
C23_17 C22_17 1_555 1_555
C24_17 H13_17 1_555 1_555
C26_17 C29_17 1_555 1_555
C29_17 C24_17 1_555 1_555
C30_17 C23_17 1_555 1_555
C31_17 C29_17 1_555 1_555
H15_17 C31_17 1_555 1_555
C34_17 C23_17 1_555 1_555
C35_17 C22_17 1_555 1_555
H19_17 C35_17 1_555 1_555
C37_17 C31_17 1_555 1_555
C38_17 C37_17 1_555 1_555
C39_17 C33_17 1_555 1_555
C41_17 C24_17 1_555 1_555
O10_17 Ga9 1_555 1_555
O17_4 C26_17 1_555 1_555
O19_4 C26_17 1_555 1_555
O13_17 Ga5_3 1_555 1_555
O16_17 Ga9 1_555 1_555
C19_17 C21_17 1_555 1_555
C30_17 O13_17 1_555 1_555
C30_17 O16_17 1_555 1_555
C33_17 C34_17 1_555 1_555
C35_17 C39_17 1_555 1_555
C37_17 C39_17 1_555 1_555
C38_17 C41_17 1_555 1_555
O1_20 H25_5 1_555 1_555
O1_20 H26_5 1_555 1_555
Ga5_4 O1_21 1_555 1_555
C4_18 H3_18 1_555 1_555
C6_18 C4_18 1_555 1_555
C7_18 C6_18 1_555 1_555
C11_18 C6_18 1_555 1_555
H5_18 C11_18 1_555 1_555
C15_18 C11_18 1_555 1_555
H9_18 C15_18 1_555 1_555
C19_18 C4_18 1_555 1_555
H11_18 C19_18 1_555 1_555
C21_18 C15_18 1_555 1_555
O21_3 C7_18 1_555 1_555
O23_3 C7_18 1_555 1_555
O9_21 Ga5_4 1_555 1_555
Ga9_2 O9_21 1_555 1_555
C22_18 H12_18 1_555 1_555
C23_18 C22_18 1_555 1_555
C24_18 H13_18 1_555 1_555
C26_18 C29_18 1_555 1_555
C29_18 C24_18 1_555 1_555
C30_18 C23_18 1_555 1_555
C31_18 C29_18 1_555 1_555
H15_18 C31_18 1_555 1_555
C34_18 C23_18 1_555 1_555
C35_18 C22_18 1_555 1_555
H19_18 C35_18 1_555 1_555
C37_18 C31_18 1_555 1_555
C38_18 C37_18 1_555 1_555
C39_18 C33_18 1_555 1_555
C41_18 C24_18 1_555 1_555
O10_18 Ga9_2 1_555 1_555
O17_6 C26_18 1_555 1_555
O19_6 C26_18 1_555 1_555
O13_18 Ga5_4 1_555 1_555
O16_18 Ga9_2 1_555 1_555
C19_18 C21_18 1_555 1_555
C30_18 O13_18 1_555 1_555
C30_18 O16_18 1_555 1_555
C33_18 C34_18 1_555 1_555
C35_18 C39_18 1_555 1_555
C37_18 C39_18 1_555 1_555
C38_18 C41_18 1_555 1_555
O1_21 H25_6 1_555 1_555
O1_21 H26_6 1_555 1_555
Ga5_5 O1_22 1_555 1_555
Ga10_2 O2_18 1_555 1_555
C1_18 H1_18 1_555 1_555
C2_18 C1_18 1_555 1_555
C3_18 H2_18 1_555 1_555
C5_18 C8_18 1_555 1_555
C8_18 C3_18 1_555 1_555
C9_18 C2_18 1_555 1_555
C10_18 C8_18 1_555 1_555
H4_18 C10_18 1_555 1_555
C13_18 C2_18 1_555 1_555
C14_18 C1_18 1_555 1_555
H8_18 C14_18 1_555 1_555
C16_18 C10_18 1_555 1_555
C17_18 C16_18 1_555 1_555
C18_18 C12_18 1_555 1_555
C20_18 C3_18 1_555 1_555
O17 C5_18 1_555 1_555
O19 C5_18 1_555 1_555
O5_18 Ga5_5 1_555 1_555
O8_18 Ga10_2 1_555 1_555
O9_22 Ga5_5 1_555 1_555
C25_18 H14_18 1_555 1_555
C27_18 C25_18 1_555 1_555
C28_18 C27_18 1_555 1_555
C32_18 C27_18 1_555 1_555
H16_18 C32_18 1_555 1_555
C36_18 C32_18 1_555 1_555
H20_18 C36_18 1_555 1_555
C40_18 C25_18 1_555 1_555
H22_18 C40_18 1_555 1_555
C42_18 C36_18 1_555 1_555
O21_5 C28_18 1_555 1_555
Ga10_2 O9_22 1_555 1_555
C9_18 O5_18 1_555 1_555
C9_18 O8_18 1_555 1_555
C12_18 C13_18 1_555 1_555
C14_18 C18_18 1_555 1_555
C16_18 C18_18 1_555 1_555
C17_18 C20_18 1_555 1_555
C40_18 C42_18 1_555 1_555
O1_22 H25_7 1_555 1_555
O1_22 H26_7 1_555 1_555
O1_19 H25_8 1_555 1_555
O1_19 H26_8 1_555 1_555

#END
