
###############################################################################
#
# This file contains modified crystal structure data generated from the
# MOF subset of the Cambridge Structural Database (CSD) v543 
# hosted by the Cambridge Crystallographic Data Centre (CCDC).
#
# This work is licensed under the Creative Commons
# Attribution-NonCommercial-ShareAlike 4.0 International License.
# To view a copy of this license, visit
# http://creativecommons.org/licenses/by-nc-sa/4.0/
# or send a letter to
# Creative Commons, PO Box 1866, Mountain View, CA 94042, USA.
#
# CIF created using the CSD Python API on 29 September 2022
# The structure has been converted into the P1 space group
# The structure has a 3D framework
# The original CSD entry WOFQOA is in the rhombohedral crystal system
# The framework has been calculated to contain at least 10.0% void space
# The void calculation uses a probe of radius 1.32A, grid spacing 0.4
# The framework is charged, counterions have been retained in the structure
# H atom positions have been added when not included in the experimental data
# Generated hydrogen atom positions removed from atoms on special positions
#
###############################################################################

data_WOFQOA
_chemical_formula_moiety         '(C756 H540 In58 O276 30+)n'
_symmetry_cell_setting           triclinic
_symmetry_space_group_name_H-M   'P 1'
_symmetry_Int_Tables_number      1
_space_group_name_Hall           'P 1'
loop_
_symmetry_equiv_pos_site_id
_symmetry_equiv_pos_as_xyz
1 x,y,z
_cell_length_a                   28.1880(6)
_cell_length_b                   28.1880(6)
_cell_length_c                   74.414(2)
_cell_angle_alpha                90
_cell_angle_beta                 90
_cell_angle_gamma                120
_cell_volume                     51205.2
loop_
_atom_site_label
_atom_site_type_symbol
_atom_site_fract_x
_atom_site_fract_y
_atom_site_fract_z
O1 O 0.2088(4) 0.2159(3) 0.41929(9)
O2 O 0.2455(4) 0.3044(3) 0.41239(11)
C1 C 0.2074(6) 0.2565(5) 0.41355(13)
C2 C 0.1530(7) 0.2465(5) 0.40621(15)
C3 C 0.1485(8) 0.2866(6) 0.39718(18)
H1 H 0.1789 0.3214 0.3959
C4 C 0.0987(8) 0.2751(6) 0.38987(19)
H2 H 0.0967 0.3020 0.3832
C5 C 0.0525(7) 0.2254(5) 0.39211(16)
C6 C 0.0571(8) 0.1856(6) 0.40125(17)
H3 H 0.0260 0.1515 0.4030
C7 C 0.1065(7) 0.1951(5) 0.40776(16)
H4 H 0.1089 0.1668 0.4133
H7 H 0.0042 0.2326 0.3308
H8 H 0.0095 0.2705 0.3032
H10 H 0.0308 0.2560 0.3612
In5 In 0.27436(3) 0.20748(2) 0.430809(7)
In9 In 0.33333(4) 0.34438(3) 0.4167
In11 In -0.00000(4) 0.32228(3) 0.2500
In1 In 0.73354(2) 0.12585(2) 0.402524(7)
O3 O 0.9411(4) 0.3524(3) 0.28716(8)
O4 O 0.9874(5) 0.3112(4) 0.27845(9)
O5 O 0.8073(2) 0.1415(3) 0.38909(8)
O6 O 0.8505(3) 0.1186(3) 0.40986(8)
O7 O 0.7280(3) 0.0613(3) 0.4167
O8 O 0.7403(4) 0.1965(3) 0.38849(10)
C8 C 0.9613(6) 0.3222(4) 0.28957(12)
C9 C 0.9583(4) 0.2988(5) 0.30826(13)
C10 C 0.9266(5) 0.3026(6) 0.32135(13)
H5 H 0.9077 0.3211 0.3192
C11 C 0.9227(5) 0.2782(6) 0.33822(14)
H6 H 0.8994 0.2790 0.3469
C12 C 0.9526(4) 0.2536(6) 0.34200(14)
C13 C 0.9844(6) 0.2503(7) 0.32858(17)
C14 C 0.9874(6) 0.2728(6) 0.31201(16)
C15 C 0.8491(4) 0.1418(4) 0.39560(11)
C16 C 0.9022(4) 0.1749(5) 0.38591(12)
C17 C 0.9503(4) 0.1822(5) 0.39294(13)
H9 H 0.9501 0.1651 0.4037
C18 C 0.9992(4) 0.2148(5) 0.38413(15)
C19 C 0.9982(4) 0.2363(5) 0.36752(15)
C20 C 0.9503(4) 0.2295(6) 0.35997(14)
C21 C 0.9018(4) 0.1996(5) 0.36943(12)
H11 H 0.8693 0.1957 0.3649
In4 In 0.79252(2) 0.06687(2) 0.430809(7)
In8 In 0.94102(3) 0.40021(2) 0.264143(7)
In11_2 In 1.00000(4) 0.32228(3) 0.2500
O18 O 0.6596(5) 0.1174(3) 0.41404(9)
O19 O 0.6078(5) 0.0289(3) 0.42094(11)
O20 O 0.6857(3) 0.0780(5) 0.37951(8)
O24 O 0.7853(3) 0.1838(3) 0.42347(8)
H23 H 0.739384 0.190409 0.375321
H24 H 0.70923 0.201785 0.391952
In2 In 0.65562(3) 0.98895(3) 0.4167
O9 O 0.5793(4) 0.9126(4) 0.4167
In3 In 0.87415(2) 0.60769(3) 0.402524(7)
O10 O 0.7841(3) 0.9929(5) 0.41929(9)
O11 O 0.6956(3) 0.9411(5) 0.41239(11)
O12 O 0.6476(3) 0.5887(5) 0.28716(8)
O13 O 0.6888(4) 0.6762(6) 0.27845(9)
O14 O 0.8585(3) 0.6658(4) 0.38909(8)
O15 O 0.8814(3) 0.7319(4) 0.40986(8)
O16 O 0.8035(3) 0.5438(5) 0.38849(10)
C22 C 0.7435(5) 0.9509(8) 0.41355(13)
C23 C 0.7535(5) 0.9065(9) 0.40621(15)
C24 C 0.7134(6) 0.8619(10) 0.39718(18)
H12 H 0.6786 0.8575 0.3959
C25 C 0.7249(6) 0.8236(10) 0.38987(19)
H13 H 0.6980 0.7947 0.3832
C26 C 0.7746(5) 0.8271(9) 0.39211(16)
C27 C 0.8144(6) 0.8715(10) 0.40125(17)
H14 H 0.8485 0.8745 0.4030
C28 C 0.8049(5) 0.9114(9) 0.40776(16)
H15 H 0.8332 0.9421 0.4133
C29 C 0.6778(4) 0.6391(7) 0.28957(12)
C30 C 0.7012(5) 0.6595(6) 0.30826(13)
C31 C 0.6974(6) 0.6240(8) 0.32135(13)
H16 H 0.6789 0.5866 0.3192
C32 C 0.7218(6) 0.6445(8) 0.33822(14)
H17 H 0.7210 0.6204 0.3469
C33 C 0.7464(6) 0.6990(7) 0.34200(14)
C34 C 0.7497(7) 0.7341(9) 0.32858(17)
H18 H 0.7674 0.7716 0.3308
C35 C 0.7272(6) 0.7146(8) 0.31201(16)
H19 H 0.7295 0.7390 0.3032
C36 C 0.8582(4) 0.7073(6) 0.39560(11)
C37 C 0.8251(5) 0.7273(6) 0.38591(12)
C38 C 0.8178(5) 0.7681(6) 0.39294(13)
H20 H 0.8349 0.7850 0.4037
C39 C 0.7852(5) 0.7844(6) 0.38413(15)
C40 C 0.7637(5) 0.7619(6) 0.36752(15)
H21 H 0.7440 0.7748 0.3612
C41 C 0.7705(6) 0.7208(7) 0.35997(14)
C42 C 0.8004(5) 0.7022(6) 0.36943(12)
H22 H 0.8043 0.6736 0.3649
In6 In 0.93313(2) 0.72564(3) 0.430809(7)
In7 In 0.59979(2) 0.54082(2) 0.264143(7)
In10 In 0.67772(3) 0.67771(3) 0.2500
O17 O 0.8826(3) 0.5421(4) 0.41404(9)
O21 O 0.9220(5) 0.6078(4) 0.37951(8)
O22 O 0.6445(4) 0.9905(6) 0.38822(9)
O23 O 0.6571(6) 0.9779(4) 0.44512(9)
O25 O 0.8162(3) 0.6014(4) 0.42347(8)
O26 O 0.9387(3) 0.6667(4) 0.4167
H27 H 0.809591 0.548975 0.375321
H28 H 0.798215 0.507445 0.391952
In3_2 In 0.39231(3) 0.26646(4) 0.402524(7)
O12_2 O 0.4113(5) 0.0589(6) 0.28716(8)
O13_2 O 0.3238(6) 0.0126(7) 0.27845(9)
O14_2 O 0.3342(4) 0.1927(5) 0.38909(8)
O15_2 O 0.2681(4) 0.1495(5) 0.40986(8)
O16_2 O 0.4562(5) 0.2597(6) 0.38849(10)
C29_2 C 0.3609(7) 0.0387(8) 0.28957(12)
C30_2 C 0.3405(6) 0.0417(8) 0.30826(13)
C31_2 C 0.3760(8) 0.0734(10) 0.32135(13)
H16_2 H 0.4134 0.0923 0.3192
C32_2 C 0.3555(8) 0.0773(10) 0.33822(14)
H17_2 H 0.3796 0.1006 0.3469
C33_2 C 0.3010(7) 0.0474(9) 0.34200(14)
C34_2 C 0.2659(9) 0.0156(11) 0.32858(17)
C35_2 C 0.2854(8) 0.0126(10) 0.31201(16)
C36_2 C 0.2927(6) 0.1509(7) 0.39560(11)
C37_2 C 0.2727(6) 0.0978(8) 0.38591(12)
C38_2 C 0.2319(6) 0.0497(8) 0.39294(13)
H20_2 H 0.2150 0.0499 0.4037
C39_2 C 0.2156(6) 0.0008(8) 0.38413(15)
C40_2 C 0.2381(6) 0.0018(8) 0.36752(15)
C41_2 C 0.2792(7) 0.0497(9) 0.35997(14)
C42_2 C 0.2978(6) 0.0982(8) 0.36943(12)
H22_2 H 0.3264 0.1307 0.3649
In7_2 In 0.45918(2) 0.05898(3) 0.264143(7)
In10_2 In 0.32229(3) 0.00000(4) 0.2500
O17_2 O 0.4579(4) 0.3404(5) 0.41404(9)
O21_2 O 0.3922(4) 0.3143(6) 0.37951(8)
O25_2 O 0.3986(4) 0.2147(5) 0.42347(8)
O26_2 O 0.3333(4) 0.2720(5) 0.4167
H27_2 H 0.451025 0.260616 0.375321
H28_2 H 0.492555 0.29077 0.391952
In2_2 In 0.01105(3) 0.66667(4) 0.4167
O9_2 O 0.0874(4) 0.6667(6) 0.4167
O10_2 O 0.0071(5) 0.7912(6) 0.41929(9)
O11_2 O 0.0589(5) 0.7545(6) 0.41239(11)
C22_2 C 0.0491(8) 0.7926(9) 0.41355(13)
C23_2 C 0.0935(9) 0.8470(10) 0.40621(15)
C24_2 C 0.1381(10) 0.8515(12) 0.39718(18)
H12_2 H 0.1425 0.8211 0.3959
C25_2 C 0.1764(10) 0.9013(12) 0.38987(19)
H13_2 H 0.2053 0.9033 0.3832
C26_2 C 0.1729(9) 0.9475(10) 0.39211(16)
C27_2 C 0.1285(10) 0.9429(12) 0.40125(17)
H14_2 H 0.1255 0.9740 0.4030
C28_2 C 0.0886(9) 0.8935(10) 0.40776(16)
H15_2 H 0.0579 0.8911 0.4133
H18_2 H 0.2284 0.9958 0.3308
H19_2 H 0.2610 0.9905 0.3032
H21_2 H 0.2252 0.9692 0.3612
In10_3 In 0.32229(3) 1.00000(4) 0.2500
O22_2 O 0.0095(6) 0.6541(7) 0.38822(9)
O23_2 O 0.0221(4) 0.6793(7) 0.44512(9)
O19_2 O 0.9711(3) 0.5788(6) 0.42094(11)
O9_3 O 0.3333(6) 0.4207(4) 0.4167
O19_3 O 0.4212(6) 0.3922(5) 0.42094(11)
O22_3 O 0.3459(7) 0.3555(4) 0.38822(9)
O23_3 O 0.3207(7) 0.3429(6) 0.44512(9)
O1_2 O 0.2159(3) 0.2088(4) 0.08071(9)
O2_2 O 0.3044(3) 0.2455(4) 0.08761(11)
C1_2 C 0.2565(5) 0.2074(6) 0.08645(13)
C2_2 C 0.2465(5) 0.1530(7) 0.09379(15)
C3_2 C 0.2866(6) 0.1485(8) 0.10282(18)
H1_2 H 0.3214 0.1789 0.1041
C4_2 C 0.2751(6) 0.0987(8) 0.11013(19)
H2_2 H 0.3020 0.0967 0.1168
C5_2 C 0.2254(5) 0.0525(7) 0.10789(16)
C6_2 C 0.1856(6) 0.0571(8) 0.09875(17)
H3_2 H 0.1515 0.0260 0.0970
C7_2 C 0.1951(5) 0.1065(7) 0.09224(16)
H4_2 H 0.1668 0.1089 0.0867
H7_2 H 0.2326 0.0042 0.1692
H8_2 H 0.2705 0.0095 0.1968
H10_2 H 0.2560 0.0308 0.1388
In5_2 In 0.20748(2) 0.27436(3) 0.069191(7)
In9_2 In 0.34438(3) 0.33333(4) 0.0833
In1_2 In 0.12585(2) 0.73354(2) 0.097476(7)
O3_2 O 0.3524(3) 0.9411(4) 0.21284(8)
O4_2 O 0.3112(4) 0.9874(5) 0.22155(9)
O5_2 O 0.1415(3) 0.8073(2) 0.11091(8)
O6_2 O 0.1186(3) 0.8505(3) 0.09014(8)
O7_2 O 0.0613(3) 0.7280(3) 0.0833
O8_2 O 0.1965(3) 0.7403(4) 0.11151(10)
C8_2 C 0.3222(4) 0.9613(6) 0.21043(12)
C9_2 C 0.2988(5) 0.9583(4) 0.19174(13)
C10_2 C 0.3026(6) 0.9266(5) 0.17865(13)
H5_2 H 0.3211 0.9077 0.1808
C11_2 C 0.2782(6) 0.9227(5) 0.16178(14)
H6_2 H 0.2790 0.8994 0.1531
C12_2 C 0.2536(6) 0.9526(4) 0.15800(14)
C13_2 C 0.2503(7) 0.9844(6) 0.17142(17)
C14_2 C 0.2728(6) 0.9874(6) 0.18799(16)
C15_2 C 0.1418(4) 0.8491(4) 0.10440(11)
C16_2 C 0.1749(5) 0.9022(4) 0.11409(12)
C17_2 C 0.1822(5) 0.9503(4) 0.10706(13)
H9_2 H 0.1651 0.9501 0.0963
C18_2 C 0.2148(5) 0.9992(4) 0.11587(15)
C19_2 C 0.2363(5) 0.9982(4) 0.13248(15)
C20_2 C 0.2295(6) 0.9503(4) 0.14003(14)
C21_2 C 0.1996(5) 0.9018(4) 0.13057(12)
H11_2 H 0.1957 0.8693 0.1351
In4_2 In 0.06687(2) 0.79252(2) 0.069191(7)
In8_2 In 0.40021(2) 0.94102(3) 0.235857(7)
O18_2 O 0.1174(3) 0.6596(5) 0.08596(9)
O19_4 O 0.0289(3) 0.6078(5) 0.07906(11)
O20_2 O 0.0780(5) 0.6857(3) 0.12049(8)
O24_2 O 0.1838(3) 0.7853(3) 0.07653(8)
H23_2 H 0.190409 0.739384 0.124679
H24_2 H 0.201785 0.70923 0.108048
In2_3 In 0.98895(3) 0.65562(3) 0.0833
O9_4 O 0.9126(4) 0.5793(4) 0.0833
In3_3 In 0.60769(3) 0.87415(2) 0.097476(7)
O10_3 O 0.9929(5) 0.7841(3) 0.08071(9)
O11_3 O 0.9411(5) 0.6956(3) 0.08761(11)
O12_3 O 0.5887(5) 0.6476(3) 0.21284(8)
O13_3 O 0.6762(6) 0.6888(4) 0.22155(9)
O14_3 O 0.6658(4) 0.8585(3) 0.11091(8)
O15_3 O 0.7319(4) 0.8814(3) 0.09014(8)
O16_3 O 0.5438(5) 0.8035(3) 0.11151(10)
C22_3 C 0.9509(8) 0.7435(5) 0.08645(13)
C23_3 C 0.9065(9) 0.7535(5) 0.09379(15)
C24_3 C 0.8619(10) 0.7134(6) 0.10282(18)
H12_3 H 0.8575 0.6786 0.1041
C25_3 C 0.8236(10) 0.7249(6) 0.11013(19)
H13_3 H 0.7947 0.6980 0.1168
C26_3 C 0.8271(9) 0.7746(5) 0.10789(16)
C27_3 C 0.8715(10) 0.8144(6) 0.09875(17)
H14_3 H 0.8745 0.8485 0.0970
C28_3 C 0.9114(9) 0.8049(5) 0.09224(16)
H15_3 H 0.9421 0.8332 0.0867
C29_3 C 0.6391(7) 0.6778(4) 0.21043(12)
C30_3 C 0.6595(6) 0.7012(5) 0.19174(13)
C31_3 C 0.6240(8) 0.6974(6) 0.17865(13)
H16_3 H 0.5866 0.6789 0.1808
C32_3 C 0.6445(8) 0.7218(6) 0.16178(14)
H17_3 H 0.6204 0.7210 0.1531
C33_3 C 0.6990(7) 0.7464(6) 0.15800(14)
C34_3 C 0.7341(9) 0.7497(7) 0.17142(17)
H18_3 H 0.7716 0.7674 0.1692
C35_3 C 0.7146(8) 0.7272(6) 0.18799(16)
H19_3 H 0.7390 0.7295 0.1968
C36_3 C 0.7073(6) 0.8582(4) 0.10440(11)
C37_3 C 0.7273(6) 0.8251(5) 0.11409(12)
C38_3 C 0.7681(6) 0.8178(5) 0.10706(13)
H20_3 H 0.7850 0.8349 0.0963
C39_3 C 0.7844(6) 0.7852(5) 0.11587(15)
C40_3 C 0.7619(6) 0.7637(5) 0.13248(15)
H21_3 H 0.7748 0.7440 0.1388
C41_3 C 0.7208(7) 0.7705(6) 0.14003(14)
C42_3 C 0.7022(6) 0.8004(5) 0.13057(12)
H22_3 H 0.6736 0.8043 0.1351
In6_2 In 0.72564(3) 0.93313(2) 0.069191(7)
In7_3 In 0.54082(2) 0.59979(2) 0.235857(7)
O17_3 O 0.5421(4) 0.8826(3) 0.08596(9)
O21_3 O 0.6078(4) 0.9220(5) 0.12049(8)
O22_4 O 0.9905(6) 0.6445(4) 0.11178(9)
O23_4 O 0.9779(4) 0.6571(6) 0.05488(9)
O25_3 O 0.6014(4) 0.8162(3) 0.07653(8)
O26_3 O 0.6667(4) 0.9387(3) 0.0833
H27_3 H 0.548975 0.809591 0.124679
H28_3 H 0.507445 0.798215 0.108048
In3_4 In 0.26646(4) 0.39231(3) 0.097476(7)
O12_4 O 0.0589(6) 0.4113(5) 0.21284(8)
O13_4 O 0.0126(7) 0.3238(6) 0.22155(9)
O14_4 O 0.1927(5) 0.3342(4) 0.11091(8)
O15_4 O 0.1495(5) 0.2681(4) 0.09014(8)
O16_4 O 0.2597(6) 0.4562(5) 0.11151(10)
C29_4 C 0.0387(8) 0.3609(7) 0.21043(12)
C30_4 C 0.0417(8) 0.3405(6) 0.19174(13)
C31_4 C 0.0734(10) 0.3760(8) 0.17865(13)
H16_4 H 0.0923 0.4134 0.1808
C32_4 C 0.0773(10) 0.3555(8) 0.16178(14)
H17_4 H 0.1006 0.3796 0.1531
C33_4 C 0.0474(9) 0.3010(7) 0.15800(14)
C34_4 C 0.0156(11) 0.2659(9) 0.17142(17)
C35_4 C 0.0126(10) 0.2854(8) 0.18799(16)
C36_4 C 0.1509(7) 0.2927(6) 0.10440(11)
C37_4 C 0.0978(8) 0.2727(6) 0.11409(12)
C38_4 C 0.0497(8) 0.2319(6) 0.10706(13)
H20_4 H 0.0499 0.2150 0.0963
C39_4 C 0.0008(8) 0.2156(6) 0.11587(15)
C40_4 C 0.0018(8) 0.2381(6) 0.13248(15)
C41_4 C 0.0497(9) 0.2792(7) 0.14003(14)
C42_4 C 0.0982(8) 0.2978(6) 0.13057(12)
H22_4 H 0.1307 0.3264 0.1351
In7_4 In 0.05898(3) 0.45918(2) 0.235857(7)
O17_4 O 0.3404(5) 0.4579(4) 0.08596(9)
O21_4 O 0.3143(6) 0.3922(4) 0.12049(8)
O25_4 O 0.2147(5) 0.3986(4) 0.07653(8)
O26_4 O 0.2720(5) 0.3333(4) 0.0833
H27_4 H 0.260616 0.451025 0.124679
H28_4 H 0.29077 0.492555 0.108048
In2_4 In 0.66667(4) 0.01105(3) 0.0833
O9_5 O 0.6667(6) 0.0874(4) 0.0833
O10_4 O 0.7912(6) 0.0071(5) 0.08071(9)
O11_4 O 0.7545(6) 0.0589(5) 0.08761(11)
C22_4 C 0.7926(9) 0.0491(8) 0.08645(13)
C23_4 C 0.8470(10) 0.0935(9) 0.09379(15)
C24_4 C 0.8515(12) 0.1381(10) 0.10282(18)
H12_4 H 0.8211 0.1425 0.1041
C25_4 C 0.9013(12) 0.1764(10) 0.11013(19)
H13_4 H 0.9033 0.2053 0.1168
C26_4 C 0.9475(10) 0.1729(9) 0.10789(16)
C27_4 C 0.9429(12) 0.1285(10) 0.09875(17)
H14_4 H 0.9740 0.1255 0.0970
C28_4 C 0.8935(10) 0.0886(9) 0.09224(16)
H15_4 H 0.8911 0.0579 0.0867
H18_4 H 0.9958 0.2284 0.1692
H19_4 H 0.9905 0.2610 0.1968
H21_4 H 0.9692 0.2252 0.1388
O22_5 O 0.6541(7) 0.0095(6) 0.11178(9)
O23_5 O 0.6793(7) 0.0221(4) 0.05488(9)
O19_5 O 0.5788(6) 0.9711(3) 0.07906(11)
O9_6 O 0.4207(4) 0.3333(6) 0.0833
O19_6 O 0.3922(5) 0.4212(6) 0.07906(11)
O22_6 O 0.3555(4) 0.3459(7) 0.11178(9)
O23_6 O 0.3429(6) 0.3207(7) 0.05488(9)
In9_3 In -0.00000(4) 0.67771(3) 0.7500
In1_3 In 0.40021(2) 0.45918(2) 0.735857(7)
In2_5 In 0.32229(3) 0.32228(3) 0.7500
O1_3 O 0.8755(4) 0.5492(3) 0.75262(9)
O2_3 O 0.9122(4) 0.6377(3) 0.74572(11)
O3_3 O 0.6078(4) 0.6857(3) 0.62049(8)
O4_3 O 0.6541(5) 0.6445(4) 0.61178(9)
O5_3 O 0.4740(2) 0.4748(3) 0.72242(8)
O6_3 O 0.5172(3) 0.4519(3) 0.74319(8)
O7_3 O 0.3947(3) 0.3946(3) 0.7500
O8_3 O 0.4070(4) 0.5298(3) 0.72182(10)
O9_7 O 0.2460(4) 0.2459(4) 0.7500
C1_3 C 0.8741(6) 0.5898(5) 0.74688(13)
C2_3 C 0.8197(7) 0.5798(5) 0.73954(15)
C3_3 C 0.8152(8) 0.6199(6) 0.73051(18)
H1_3 H 0.8456 0.6547 0.7292
C4_3 C 0.7654(8) 0.6084(6) 0.72320(19)
H2_3 H 0.7634 0.6353 0.7165
C5_3 C 0.7192(7) 0.5587(5) 0.72544(16)
C6_3 C 0.7238(8) 0.5189(6) 0.73458(17)
H3_3 H 0.6927 0.4848 0.7363
C7_3 C 0.7732(7) 0.5284(5) 0.74109(16)
H4_3 H 0.7756 0.5001 0.7466
C8_3 C 0.6280(6) 0.6555(4) 0.62290(12)
C9_3 C 0.6250(4) 0.6321(5) 0.64159(13)
C10_3 C 0.5933(5) 0.6359(6) 0.65468(13)
H5_3 H 0.5744 0.6544 0.6525
C11_3 C 0.5894(5) 0.6115(6) 0.67155(14)
H6_3 H 0.5661 0.6123 0.6802
C12_3 C 0.6193(4) 0.5869(6) 0.67533(14)
C13_3 C 0.6511(6) 0.5836(7) 0.66191(17)
H7_3 H 0.6709 0.5659 0.6641
C14_3 C 0.6541(6) 0.6061(6) 0.64534(16)
H8_3 H 0.6762 0.6038 0.6365
C15_3 C 0.5158(4) 0.4751(4) 0.72893(11)
C16_3 C 0.5689(4) 0.5082(5) 0.71924(12)
C17_3 C 0.6170(4) 0.5155(5) 0.72627(13)
H9_3 H 0.6168 0.4984 0.7370
C18_3 C 0.6659(4) 0.5481(5) 0.71746(15)
C19_3 C 0.6649(4) 0.5696(5) 0.70085(15)
H10_3 H 0.6975 0.5893 0.6945
C20_3 C 0.6170(4) 0.5628(6) 0.69330(14)
C21_3 C 0.5685(4) 0.5329(5) 0.70276(12)
H11_3 H 0.5360 0.5290 0.6982
O10_5 O 0.4508(3) 0.3262(5) 0.75262(9)
O11_5 O 0.3623(3) 0.2744(5) 0.74572(11)
O13_5 O 0.3555(4) 0.0095(6) 0.61178(9)
O15_5 O 0.5481(3) 0.0652(4) 0.74319(8)
C22_5 C 0.4102(5) 0.2842(8) 0.74688(13)
C23_5 C 0.4202(5) 0.2398(9) 0.73954(15)
C24_5 C 0.3801(6) 0.1952(10) 0.73051(18)
H12_5 H 0.3453 0.1908 0.7292
C25_5 C 0.3916(6) 0.1569(10) 0.72320(19)
H13_5 H 0.3647 0.1280 0.7165
C26_5 C 0.4413(5) 0.1604(9) 0.72544(16)
C27_5 C 0.4811(6) 0.2048(10) 0.73458(17)
H14_5 H 0.5152 0.2078 0.7363
C28_5 C 0.4716(5) 0.2447(9) 0.74109(16)
H15_5 H 0.4999 0.2754 0.7466
C33_5 C 0.4131(6) 0.0323(7) 0.67533(14)
C34_5 C 0.4164(7) 0.0674(9) 0.66191(17)
H18_5 H 0.4341 0.1049 0.6641
C35_5 C 0.3939(6) 0.0479(8) 0.64534(16)
H19_5 H 0.3962 0.0723 0.6365
C36_5 C 0.5249(4) 0.0406(6) 0.72893(11)
C37_5 C 0.4918(5) 0.0606(6) 0.71924(12)
C38_5 C 0.4845(5) 0.1014(6) 0.72627(13)
H20_5 H 0.5016 0.1183 0.7370
C39_5 C 0.4519(5) 0.1177(6) 0.71746(15)
C40_5 C 0.4304(5) 0.0952(6) 0.70085(15)
H21_5 H 0.4107 0.1081 0.6945
C41_5 C 0.4372(6) 0.0541(7) 0.69330(14)
C42_5 C 0.4671(5) 0.0355(6) 0.70276(12)
H22_5 H 0.4710 0.0069 0.6982
In4_3 In 0.45918(2) 0.40021(2) 0.764143(7)
In5_3 In 0.94102(3) 0.54082(2) 0.764143(7)
In6_3 In 0.59979(2) 0.05898(3) 0.764143(7)
In8_3 In 0.60769(3) 0.73354(2) 0.597476(7)
In9_4 In 1.00000(4) 0.67771(3) 0.7500
In10_4 In 0.34438(3) 0.01105(3) 0.5834
In11_3 In 0.66666(4) 0.65562(3) 0.5834
O18_3 O 0.3262(5) 0.4508(3) 0.74738(9)
O19_7 O 0.2744(5) 0.3623(3) 0.75428(11)
O20_3 O 0.3524(3) 0.4113(5) 0.71284(8)
O22_7 O 0.3112(4) 0.3238(6) 0.72155(9)
O23_7 O 0.3238(6) 0.3112(4) 0.77845(9)
O24_3 O 0.4519(3) 0.5172(3) 0.75681(8)
O26_5 O 0.6054(3) 0.0000(4) 0.7500
H23_3 H 0.406051 0.523742 0.708654
H24_3 H 0.375897 0.535118 0.725285
In3_5 In 0.54082(2) 0.94102(3) 0.735857(7)
O12_5 O 0.3143(3) 0.9220(5) 0.62049(8)
O14_5 O 0.5252(3) 0.9991(4) 0.72242(8)
O16_5 O 0.4702(3) 0.8771(5) 0.72182(10)
C29_5 C 0.3445(4) 0.9724(7) 0.62290(12)
C30_5 C 0.3679(5) 0.9928(6) 0.64159(13)
C31_5 C 0.3641(6) 0.9573(8) 0.65468(13)
H16_5 H 0.3456 0.9199 0.6525
C32_5 C 0.3885(6) 0.9778(8) 0.67155(14)
H17_5 H 0.3877 0.9537 0.6802
In7_5 In 0.26646(2) 0.87415(2) 0.597476(7)
O17_5 O 0.5492(3) 0.8755(4) 0.74738(9)
O21_5 O 0.5887(5) 0.9411(4) 0.71284(8)
O25_5 O 0.4828(3) 0.9348(4) 0.75681(8)
O26_6 O 0.6054(3) 1.0000(4) 0.7500
H27_5 H 0.476258 0.882309 0.708654
H28_5 H 0.464882 0.840779 0.725285
In3_6 In 0.05898(3) 0.59979(4) 0.735857(7)
O12_6 O 0.0780(5) 0.3922(6) 0.62049(8)
O14_6 O 0.0009(4) 0.5260(5) 0.72242(8)
O16_6 O 0.1229(5) 0.5930(6) 0.72182(10)
C29_6 C 0.0276(7) 0.3720(8) 0.62290(12)
C30_6 C 0.0072(6) 0.3750(8) 0.64159(13)
C31_6 C 0.0427(8) 0.4067(10) 0.65468(13)
H16_6 H 0.0801 0.4256 0.6525
C32_6 C 0.0222(8) 0.4106(10) 0.67155(14)
H17_6 H 0.0463 0.4339 0.6802
In7_6 In 0.12585(2) 0.39231(3) 0.597476(7)
O17_6 O 0.1245(4) 0.6738(5) 0.74738(9)
O21_6 O 0.0589(4) 0.6476(6) 0.71284(8)
O25_6 O 0.0652(4) 0.5481(5) 0.75681(8)
O26_7 O -0.0000(4) 0.6053(5) 0.7500
H27_6 H 0.117691 0.593949 0.708654
H28_6 H 0.159221 0.624103 0.725285
In2_6 In 0.67772(3) 0.00000(4) 0.7500
O9_8 O 0.7541(4) 0.0000(6) 0.7500
O10_6 O 0.6738(5) 0.1245(6) 0.75262(9)
O11_6 O 0.7256(5) 0.0878(6) 0.74572(11)
O13_6 O 0.9905(6) 0.3459(7) 0.61178(9)
O15_6 O 0.9348(4) 0.4828(5) 0.74319(8)
C22_6 C 0.7158(8) 0.1259(9) 0.74688(13)
C23_6 C 0.7602(9) 0.1803(10) 0.73954(15)
C24_6 C 0.8048(10) 0.1848(12) 0.73051(18)
H12_6 H 0.8092 0.1544 0.7292
C25_6 C 0.8431(10) 0.2346(12) 0.72320(19)
H13_6 H 0.8720 0.2366 0.7165
C26_6 C 0.8396(9) 0.2808(10) 0.72544(16)
C27_6 C 0.7952(10) 0.2762(12) 0.73458(17)
H14_6 H 0.7922 0.3073 0.7363
C28_6 C 0.7553(9) 0.2268(10) 0.74109(16)
H15_6 H 0.7246 0.2244 0.7466
C33_6 C 0.9677(7) 0.3807(9) 0.67533(14)
C34_6 C 0.9326(9) 0.3489(11) 0.66191(17)
H18_6 H 0.8951 0.3291 0.6641
C35_6 C 0.9521(8) 0.3459(10) 0.64534(16)
H19_6 H 0.9277 0.3238 0.6365
C36_6 C 0.9594(6) 0.4842(7) 0.72893(11)
C37_6 C 0.9394(6) 0.4311(8) 0.71924(12)
C38_6 C 0.8986(6) 0.3830(8) 0.72627(13)
H20_6 H 0.8817 0.3832 0.7370
C39_6 C 0.8823(6) 0.3341(8) 0.71746(15)
C40_6 C 0.9048(6) 0.3351(8) 0.70085(15)
H21_6 H 0.8919 0.3025 0.6945
C41_6 C 0.9459(7) 0.3830(9) 0.69330(14)
C42_6 C 0.9645(6) 0.4315(8) 0.70276(12)
H22_6 H 0.9931 0.4640 0.6982
In10_5 In 0.98895(3) 0.33334(4) 0.5834
O23_8 O 0.6888(4) 0.0126(7) 0.77845(9)
O26_8 O 1.0000(4) 0.6053(5) 0.7500
H25 H 0.777744 0.0239162 0.759878
In2_7 In 0.67772(3) 1.00000(4) 0.7500
O9_9 O 0.7541(4) 1.0000(6) 0.7500
O19_8 O 0.6377(3) 0.9122(6) 0.75428(11)
O22_8 O 0.6762(6) 0.9874(7) 0.72155(9)
H26 H 0.746858 0.962109 0.751895
O9_10 O -0.0000(6) 0.7540(4) 0.7500
O19_9 O 0.0878(6) 0.7256(5) 0.75428(11)
O22_9 O 0.0126(7) 0.6888(4) 0.72155(9)
H26_2 H 0.0378911 0.784749 0.751895
O9_11 O 1.0000(6) 0.7540(4) 0.7500
O23_9 O 0.9874(7) 0.6762(6) 0.77845(9)
H25_2 H 0.976084 0.753827 0.759878
O3_4 O 0.0191(3) 0.2744(4) 0.54617(8)
In8_4 In 0.06687(2) 0.27436(3) 0.569191(7)
O4_4 O 0.9779(4) 0.3207(5) 0.55488(9)
O5_4 O 0.8082(3) 0.1406(2) 0.44424(8)
O8_4 O 0.8632(3) 0.0736(4) 0.44484(10)
C1_4 C 0.9232(5) 0.5407(6) 0.41978(13)
C2_4 C 0.9132(5) 0.4863(7) 0.42712(15)
C3_4 C 0.9533(6) 0.4818(8) 0.43615(18)
H1_4 H 0.9881 0.5122 0.4374
C4_4 C 0.9418(6) 0.4320(8) 0.44346(19)
H2_4 H 0.9687 0.4300 0.4501
C5_4 C 0.8921(5) 0.3858(7) 0.44122(16)
C6_4 C 0.8523(6) 0.3904(8) 0.43208(17)
H3_4 H 0.8182 0.3593 0.4303
C7_4 C 0.8618(5) 0.4398(7) 0.42557(16)
H4_4 H 0.8335 0.4422 0.4200
C8_4 C 0.9889(4) 0.2946(6) 0.54376(12)
C9_4 C 0.9655(5) 0.2916(4) 0.52507(13)
C10_4 C 0.9693(6) 0.2599(5) 0.51198(13)
H5_4 H 0.9878 0.2410 0.5141
C11_4 C 0.9449(6) 0.2560(5) 0.49511(14)
H6_4 H 0.9457 0.2327 0.4864
C12_4 C 0.9203(6) 0.2859(4) 0.49133(14)
C13_4 C 0.9170(7) 0.3177(6) 0.50475(17)
H7_4 H 0.8993 0.3375 0.5025
C14_4 C 0.9395(6) 0.3207(6) 0.52132(16)
H8_4 H 0.9372 0.3428 0.5301
C15_4 C 0.8085(4) 0.1824(4) 0.43773(11)
C16_4 C 0.8416(5) 0.2355(4) 0.44742(12)
C17_4 C 0.8489(5) 0.2836(4) 0.44039(13)
H9_4 H 0.8318 0.2834 0.4296
C18_4 C 0.8815(5) 0.3325(4) 0.44920(15)
C19_4 C 0.9030(5) 0.3315(4) 0.46581(15)
H10_4 H 0.9227 0.3641 0.4721
C20_4 C 0.8962(6) 0.2836(4) 0.47336(14)
C21_4 C 0.8663(5) 0.2351(4) 0.46390(12)
H11_4 H 0.8624 0.2026 0.4684
O13_7 O 0.3429(6) 0.0221(4) 0.55488(9)
O14_7 O 0.3325(4) 0.1918(3) 0.44424(8)
O16_7 O 0.2105(5) 0.1368(3) 0.44484(10)
C22_7 C 0.6176(8) 0.0768(5) 0.41978(13)
C23_7 C 0.5732(9) 0.0868(5) 0.42712(15)
C24_7 C 0.5286(10) 0.0467(6) 0.43615(18)
H12_7 H 0.5242 0.0119 0.4374
C25_7 C 0.4903(10) 0.0582(6) 0.44346(19)
H13_7 H 0.4614 0.0313 0.4501
C26_7 C 0.4938(9) 0.1079(5) 0.44122(16)
C27_7 C 0.5382(10) 0.1477(6) 0.43208(17)
H14_7 H 0.5412 0.1818 0.4303
C28_7 C 0.5781(9) 0.1382(5) 0.42557(16)
H15_7 H 0.6088 0.1665 0.4200
C29_7 C 0.3058(7) 0.0111(4) 0.54376(12)
C30_7 C 0.3262(6) 0.0345(5) 0.52507(13)
C31_7 C 0.2907(8) 0.0307(6) 0.51198(13)
H16_7 H 0.2533 0.0122 0.5141
C32_7 C 0.3112(8) 0.0551(6) 0.49511(14)
H17_7 H 0.2871 0.0543 0.4864
C33_7 C 0.3657(7) 0.0797(6) 0.49133(14)
C34_7 C 0.4008(9) 0.0830(7) 0.50475(17)
H18_7 H 0.4383 0.1007 0.5025
C35_7 C 0.3813(8) 0.0605(6) 0.52132(16)
H19_7 H 0.4057 0.0628 0.5301
C36_7 C 0.3740(6) 0.1915(4) 0.43773(11)
C37_7 C 0.3940(6) 0.1584(5) 0.44742(12)
C38_7 C 0.4348(6) 0.1511(5) 0.44039(13)
H20_7 H 0.4517 0.1682 0.4296
C39_7 C 0.4511(6) 0.1185(5) 0.44920(15)
C40_7 C 0.4286(6) 0.0970(5) 0.46581(15)
H21_7 H 0.4415 0.0773 0.4721
C41_7 C 0.3875(7) 0.1038(6) 0.47336(14)
C42_7 C 0.3689(6) 0.1337(5) 0.46390(12)
H22_7 H 0.3403 0.1376 0.4684
O20_4 O 0.7446(5) 0.0191(3) 0.45383(8)
O21_7 O 0.2744(4) 0.2554(5) 0.45383(8)
H23_4 H 0.857075 0.0727172 0.458012
H24_4 H 0.868451 0.0425633 0.441381
H27_7 H 0.215642 0.142925 0.458012
H28_7 H 0.174112 0.131549 0.441381
O12_7 O 0.2554(5) 0.9809(3) 0.54617(8)
In7_7 In 0.20748(2) 0.93313(2) 0.569191(7)
O12_8 O 0.7256(6) 0.7446(5) 0.54617(8)
O13_8 O 0.6793(7) 0.6571(6) 0.55488(9)
O14_8 O 0.8594(5) 0.6675(4) 0.44424(8)
O16_8 O 0.9264(6) 0.7895(5) 0.44484(10)
C22_8 C 0.4593(9) 0.3824(8) 0.41978(13)
C23_8 C 0.5137(10) 0.4268(9) 0.42712(15)
C24_8 C 0.5182(12) 0.4714(10) 0.43615(18)
H12_8 H 0.4878 0.4758 0.4374
C25_8 C 0.5680(12) 0.5097(10) 0.44346(19)
H13_8 H 0.5700 0.5386 0.4501
C26_8 C 0.6142(10) 0.5062(9) 0.44122(16)
C27_8 C 0.6096(12) 0.4618(10) 0.43208(17)
H14_8 H 0.6407 0.4588 0.4303
C28_8 C 0.5602(10) 0.4219(9) 0.42557(16)
H15_8 H 0.5578 0.3912 0.4200
C29_8 C 0.7054(8) 0.6942(7) 0.54376(12)
C30_8 C 0.7084(8) 0.6738(6) 0.52507(13)
C31_8 C 0.7401(10) 0.7093(8) 0.51198(13)
H16_8 H 0.7590 0.7467 0.5141
C32_8 C 0.7440(10) 0.6888(8) 0.49511(14)
H17_8 H 0.7673 0.7129 0.4864
C33_8 C 0.7141(9) 0.6343(7) 0.49133(14)
C34_8 C 0.6823(11) 0.5992(9) 0.50475(17)
H18_8 H 0.6625 0.5617 0.5025
C35_8 C 0.6793(10) 0.6187(8) 0.52132(16)
H19_8 H 0.6572 0.5943 0.5301
C36_8 C 0.8176(7) 0.6260(6) 0.43773(11)
C37_8 C 0.7645(8) 0.6060(6) 0.44742(12)
C38_8 C 0.7164(8) 0.5652(6) 0.44039(13)
H20_8 H 0.7166 0.5483 0.4296
C39_8 C 0.6675(8) 0.5489(6) 0.44920(15)
C40_8 C 0.6685(8) 0.5714(6) 0.46581(15)
H21_8 H 0.6359 0.5585 0.4721
C41_8 C 0.7164(9) 0.6125(7) 0.47336(14)
C42_8 C 0.7649(8) 0.6311(6) 0.46390(12)
H22_8 H 0.7974 0.6597 0.4684
In7_8 In 0.72564(3) 0.79252(2) 0.569191(7)
O21_8 O 0.9809(6) 0.7256(4) 0.45383(8)
H27_8 H 0.927283 0.784358 0.458012
H28_8 H 0.957437 0.825888 0.441381
O3_5 O 0.2744(4) 0.0191(3) 0.95383(8)
In8_5 In 0.27436(3) 0.06687(2) 0.930809(7)
O5_5 O 0.1406(2) 0.8082(3) 0.05576(8)
O8_5 O 0.0736(4) 0.8632(3) 0.05516(10)
C1_5 C 0.5407(6) 0.9232(5) 0.08022(13)
C2_5 C 0.4863(7) 0.9132(5) 0.07288(15)
C3_5 C 0.4818(8) 0.9533(6) 0.06385(18)
H1_5 H 0.5122 0.9881 0.0626
C4_5 C 0.4320(8) 0.9418(6) 0.05654(19)
H2_5 H 0.4300 0.9687 0.0499
C5_5 C 0.3858(7) 0.8921(5) 0.05878(16)
C6_5 C 0.3904(8) 0.8523(6) 0.06792(17)
H3_5 H 0.3593 0.8182 0.0697
C7_5 C 0.4398(7) 0.8618(5) 0.07443(16)
H4_5 H 0.4422 0.8335 0.0800
C11_5 C 0.2560(5) 0.9449(6) 0.00489(14)
H6_5 H 0.2327 0.9457 0.0136
C12_5 C 0.2859(4) 0.9203(6) 0.00867(14)
C15_5 C 0.1824(4) 0.8085(4) 0.06227(11)
C16_5 C 0.2355(4) 0.8416(5) 0.05258(12)
C17_5 C 0.2836(4) 0.8489(5) 0.05961(13)
H9_5 H 0.2834 0.8318 0.0704
C18_5 C 0.3325(4) 0.8815(5) 0.05080(15)
C19_5 C 0.3315(4) 0.9030(5) 0.03419(15)
H10_5 H 0.3641 0.9227 0.0279
C20_5 C 0.2836(4) 0.8962(6) 0.02664(14)
C21_5 C 0.2351(4) 0.8663(5) 0.03610(12)
H11_5 H 0.2026 0.8624 0.0316
O14_9 O 0.1918(3) 0.3325(4) 0.05576(8)
O16_9 O 0.1368(3) 0.2105(5) 0.05516(10)
C22_9 C 0.0768(5) 0.6176(8) 0.08022(13)
C23_9 C 0.0868(5) 0.5732(9) 0.07288(15)
C24_9 C 0.0467(6) 0.5286(10) 0.06385(18)
H12_9 H 0.0119 0.5242 0.0626
C25_9 C 0.0582(6) 0.4903(10) 0.05654(19)
H13_9 H 0.0313 0.4614 0.0499
C26_9 C 0.1079(5) 0.4938(9) 0.05878(16)
C27_9 C 0.1477(6) 0.5382(10) 0.06792(17)
H14_9 H 0.1818 0.5412 0.0697
C28_9 C 0.1382(5) 0.5781(9) 0.07443(16)
H15_9 H 0.1665 0.6088 0.0800
C32_9 C 0.0551(6) 0.3112(8) 0.00489(14)
H17_9 H 0.0543 0.2871 0.0136
C33_9 C 0.0797(6) 0.3657(7) 0.00867(14)
C36_9 C 0.1915(4) 0.3740(6) 0.06227(11)
C37_9 C 0.1584(5) 0.3940(6) 0.05258(12)
C38_9 C 0.1511(5) 0.4348(6) 0.05961(13)
H20_9 H 0.1682 0.4517 0.0704
C39_9 C 0.1185(5) 0.4511(6) 0.05080(15)
C40_9 C 0.0970(5) 0.4286(6) 0.03419(15)
H21_9 H 0.0773 0.4415 0.0279
C41_9 C 0.1038(6) 0.3875(7) 0.02664(14)
C42_9 C 0.1337(5) 0.3689(6) 0.03610(12)
H22_9 H 0.1376 0.3403 0.0316
O20_5 O 0.0191(3) 0.7446(5) 0.04617(8)
O21_9 O 0.2554(5) 0.2744(4) 0.04617(8)
H23_5 H 0.0727172 0.857075 0.0419875
H24_5 H 0.0425633 0.868451 0.0586186
H27_9 H 0.142925 0.215642 0.0419875
H28_9 H 0.131549 0.174112 0.0586186
O4_5 O 0.3207(5) 0.9779(4) 0.94512(9)
C8_5 C 0.2946(6) 0.9889(4) 0.95624(12)
C9_5 C 0.2916(4) 0.9655(5) 0.97493(13)
C10_5 C 0.2599(5) 0.9693(6) 0.98802(13)
H5_5 H 0.2410 0.9878 0.9859
C13_5 C 0.3177(6) 0.9170(7) 0.99525(17)
H7_5 H 0.3375 0.8993 0.9975
C14_5 C 0.3207(6) 0.9395(6) 0.97868(16)
H8_5 H 0.3428 0.9372 0.9699
O13_9 O 0.0221(4) 0.3429(6) 0.94512(9)
C29_9 C 0.0111(4) 0.3058(7) 0.95624(12)
C30_9 C 0.0345(5) 0.3262(6) 0.97493(13)
C31_9 C 0.0307(6) 0.2907(8) 0.98802(13)
H16_9 H 0.0122 0.2533 0.9859
C34_9 C 0.0830(7) 0.4008(9) 0.99525(17)
H18_9 H 0.1007 0.4383 0.9975
C35_9 C 0.0605(6) 0.3813(8) 0.97868(16)
H19_9 H 0.0628 0.4057 0.9699
In10_6 In 0.01105(3) 0.34438(3) 0.9167
In11_4 In 0.33333(4) 0.98895(3) 0.9167
O12_9 O 0.9809(3) 0.2554(5) 0.95383(8)
In7_9 In 0.93313(2) 0.20748(2) 0.930809(7)
O14_10 O 0.6675(4) 0.8594(5) 0.05576(8)
O16_10 O 0.7895(5) 0.9264(6) 0.05516(10)
C22_10 C 0.3824(8) 0.4593(9) 0.08022(13)
C23_10 C 0.4268(9) 0.5137(10) 0.07288(15)
C24_10 C 0.4714(10) 0.5182(12) 0.06385(18)
H12_10 H 0.4758 0.4878 0.0626
C25_10 C 0.5097(10) 0.5680(12) 0.05654(19)
H13_10 H 0.5386 0.5700 0.0499
C26_10 C 0.5062(9) 0.6142(10) 0.05878(16)
C27_10 C 0.4618(10) 0.6096(12) 0.06792(17)
H14_10 H 0.4588 0.6407 0.0697
C28_10 C 0.4219(9) 0.5602(10) 0.07443(16)
H15_10 H 0.3912 0.5578 0.0800
C32_10 C 0.6888(8) 0.7440(10) 0.00489(14)
H17_10 H 0.7129 0.7673 0.0136
C33_10 C 0.6343(7) 0.7141(9) 0.00867(14)
C36_10 C 0.6260(6) 0.8176(7) 0.06227(11)
C37_10 C 0.6060(6) 0.7645(8) 0.05258(12)
C38_10 C 0.5652(6) 0.7164(8) 0.05961(13)
H20_10 H 0.5483 0.7166 0.0704
C39_10 C 0.5489(6) 0.6675(8) 0.05080(15)
C40_10 C 0.5714(6) 0.6685(8) 0.03419(15)
H21_10 H 0.5585 0.6359 0.0279
C41_10 C 0.6125(7) 0.7164(9) 0.02664(14)
C42_10 C 0.6311(6) 0.7649(8) 0.03610(12)
H22_10 H 0.6597 0.7974 0.0316
O21_10 O 0.7256(4) 0.9809(6) 0.04617(8)
H27_10 H 0.784358 0.927283 0.0419875
H28_10 H 0.825888 0.957437 0.0586186
O12_10 O 0.7446(5) 0.7256(6) 0.95383(8)
O13_10 O 0.6571(6) 0.6793(7) 0.94512(9)
C29_10 C 0.6942(7) 0.7054(8) 0.95624(12)
C30_10 C 0.6738(6) 0.7084(8) 0.97493(13)
C31_10 C 0.7093(8) 0.7401(10) 0.98802(13)
H16_10 H 0.7467 0.7590 0.9859
C34_10 C 0.5992(9) 0.6823(11) 0.99525(17)
H18_10 H 0.5617 0.6625 0.9975
C35_10 C 0.6187(8) 0.6793(10) 0.97868(16)
H19_10 H 0.5943 0.6572 0.9699
In7_10 In 0.79252(2) 0.72564(3) 0.930809(7)
In10_7 In 0.65562(3) 0.66667(4) 0.9167
O3_6 O 0.6857(3) 0.6078(4) 0.87951(8)
O4_6 O 0.6445(4) 0.6541(5) 0.88822(9)
O5_6 O 0.4748(3) 0.4740(2) 0.77758(8)
O8_6 O 0.5298(3) 0.4070(4) 0.77818(10)
C1_6 C 0.5898(5) 0.8741(6) 0.75312(13)
C2_6 C 0.5798(5) 0.8197(7) 0.76046(15)
C3_6 C 0.6199(6) 0.8152(8) 0.76949(18)
H1_6 H 0.6547 0.8456 0.7708
C4_6 C 0.6084(6) 0.7654(8) 0.77680(19)
H2_6 H 0.6353 0.7634 0.7835
C5_6 C 0.5587(5) 0.7192(7) 0.77456(16)
C6_6 C 0.5189(6) 0.7238(8) 0.76542(17)
H3_6 H 0.4848 0.6927 0.7637
C7_6 C 0.5284(5) 0.7732(7) 0.75891(16)
H4_6 H 0.5001 0.7756 0.7534
C8_6 C 0.6555(4) 0.6280(6) 0.87710(12)
C9_6 C 0.6321(5) 0.6250(4) 0.85841(13)
C10_6 C 0.6359(6) 0.5933(5) 0.84532(13)
H5_6 H 0.6544 0.5744 0.8475
C11_6 C 0.6115(6) 0.5894(5) 0.82845(14)
H6_6 H 0.6123 0.5661 0.8198
C12_6 C 0.5869(6) 0.6193(4) 0.82467(14)
C13_6 C 0.5836(7) 0.6511(6) 0.83809(17)
H7_6 H 0.5659 0.6709 0.8359
C14_6 C 0.6061(6) 0.6541(6) 0.85466(16)
H8_6 H 0.6038 0.6762 0.8635
C15_6 C 0.4751(4) 0.5158(4) 0.77107(11)
C16_6 C 0.5082(5) 0.5689(4) 0.78076(12)
C17_6 C 0.5155(5) 0.6170(4) 0.77373(13)
H9_6 H 0.4984 0.6168 0.7630
C18_6 C 0.5481(5) 0.6659(4) 0.78254(15)
C19_6 C 0.5696(5) 0.6649(4) 0.79915(15)
H10_6 H 0.5893 0.6975 0.8055
C20_6 C 0.5628(6) 0.6170(4) 0.80670(14)
C21_6 C 0.5329(5) 0.5685(4) 0.79724(12)
H11_6 H 0.5290 0.5360 0.8018
O13_11 O 0.0095(6) 0.3555(4) 0.88822(9)
C22_11 C 0.2842(8) 0.4102(5) 0.75312(13)
C23_11 C 0.2398(9) 0.4202(5) 0.76046(15)
C24_11 C 0.1952(10) 0.3801(6) 0.76949(18)
H12_11 H 0.1908 0.3453 0.7708
C25_11 C 0.1569(10) 0.3916(6) 0.77680(19)
H13_11 H 0.1280 0.3647 0.7835
C26_11 C 0.1604(9) 0.4413(5) 0.77456(16)
C27_11 C 0.2048(10) 0.4811(6) 0.76542(17)
H14_11 H 0.2078 0.5152 0.7637
C28_11 C 0.2447(9) 0.4716(5) 0.75891(16)
H15_11 H 0.2754 0.4999 0.7534
C33_11 C 0.0323(7) 0.4131(6) 0.82467(14)
C34_11 C 0.0674(9) 0.4164(7) 0.83809(17)
H18_11 H 0.1049 0.4341 0.8359
C35_11 C 0.0479(8) 0.3939(6) 0.85466(16)
H19_11 H 0.0723 0.3962 0.8635
C36_11 C 0.0406(6) 0.5249(4) 0.77107(11)
C37_11 C 0.0606(6) 0.4918(5) 0.78076(12)
C38_11 C 0.1014(6) 0.4845(5) 0.77373(13)
H20_11 H 0.1183 0.5016 0.7630
C39_11 C 0.1177(6) 0.4519(5) 0.78254(15)
C40_11 C 0.0952(6) 0.4304(5) 0.79915(15)
H21_11 H 0.1081 0.4107 0.8055
C41_11 C 0.0541(7) 0.4372(6) 0.80670(14)
C42_11 C 0.0355(6) 0.4671(5) 0.79724(12)
H22_11 H 0.0069 0.4710 0.8018
In8_6 In 0.73354(2) 0.60769(3) 0.902524(7)
O20_6 O 0.4113(5) 0.3524(3) 0.78716(8)
H23_6 H 0.523742 0.406051 0.791346
H24_6 H 0.535118 0.375897 0.774715
O12_11 O 0.9220(5) 0.3143(3) 0.87951(8)
O14_11 O 0.9991(4) 0.5252(3) 0.77758(8)
O16_11 O 0.8771(5) 0.4702(3) 0.77818(10)
C29_11 C 0.9724(7) 0.3445(4) 0.87710(12)
C30_11 C 0.9928(6) 0.3679(5) 0.85841(13)
C31_11 C 0.9573(8) 0.3641(6) 0.84532(13)
H16_11 H 0.9199 0.3456 0.8475
C32_11 C 0.9778(8) 0.3885(6) 0.82845(14)
H17_11 H 0.9537 0.3877 0.8198
In7_11 In 0.87415(2) 0.26646(2) 0.902524(7)
O21_11 O 0.9411(4) 0.5887(5) 0.78716(8)
H27_11 H 0.882309 0.476258 0.791346
H28_11 H 0.840779 0.464882 0.774715
O12_12 O 0.3922(6) 0.0780(5) 0.87951(8)
O14_12 O 0.5260(5) 0.0009(4) 0.77758(8)
O16_12 O 0.5930(6) 0.1229(5) 0.77818(10)
C29_12 C 0.3720(8) 0.0276(7) 0.87710(12)
C30_12 C 0.3750(8) 0.0072(6) 0.85841(13)
C31_12 C 0.4067(10) 0.0427(8) 0.84532(13)
H16_12 H 0.4256 0.0801 0.8475
C32_12 C 0.4106(10) 0.0222(8) 0.82845(14)
H17_12 H 0.4339 0.0463 0.8198
In7_12 In 0.39231(3) 0.12585(2) 0.902524(7)
O21_12 O 0.6476(6) 0.0589(4) 0.78716(8)
H27_12 H 0.593949 0.117691 0.791346
H28_12 H 0.624103 0.159221 0.774715
O13_12 O 0.3459(7) 0.9905(6) 0.88822(9)
C22_12 C 0.1259(9) 0.7158(8) 0.75312(13)
C23_12 C 0.1803(10) 0.7602(9) 0.76046(15)
C24_12 C 0.1848(12) 0.8048(10) 0.76949(18)
H12_12 H 0.1544 0.8092 0.7708
C25_12 C 0.2346(12) 0.8431(10) 0.77680(19)
H13_12 H 0.2366 0.8720 0.7835
C26_12 C 0.2808(10) 0.8396(9) 0.77456(16)
C27_12 C 0.2762(12) 0.7952(10) 0.76542(17)
H14_12 H 0.3073 0.7922 0.7637
C28_12 C 0.2268(10) 0.7553(9) 0.75891(16)
H15_12 H 0.2244 0.7246 0.7534
C33_12 C 0.3807(9) 0.9677(7) 0.82467(14)
C34_12 C 0.3489(11) 0.9326(9) 0.83809(17)
H18_12 H 0.3291 0.8951 0.8359
C35_12 C 0.3459(10) 0.9521(8) 0.85466(16)
H19_12 H 0.3238 0.9277 0.8635
C36_12 C 0.4842(7) 0.9594(6) 0.77107(11)
C37_12 C 0.4311(8) 0.9394(6) 0.78076(12)
C38_12 C 0.3830(8) 0.8986(6) 0.77373(13)
H20_12 H 0.3832 0.8817 0.7630
C39_12 C 0.3341(8) 0.8823(6) 0.78254(15)
C40_12 C 0.3351(8) 0.9048(6) 0.79915(15)
H21_12 H 0.3025 0.8919 0.8055
C41_12 C 0.3830(9) 0.9459(7) 0.80670(14)
C42_12 C 0.4315(8) 0.9645(6) 0.79724(12)
H22_12 H 0.4640 0.9931 0.8018
H25_3 H 0.0239162 0.777744 0.740122
H26_3 H 0.962109 0.746858 0.748105
H26_4 H 0.784749 0.0378911 0.748105
H25_4 H 0.753827 0.976084 0.740122
O9_12 O 0.4207(4) 0.0874(4) 0.5833
O10_7 O 0.2159(3) 0.0071(5) 0.58071(9)
O11_7 O 0.3044(3) 0.0589(5) 0.58761(11)
O14_13 O 0.1415(3) 0.3342(4) 0.61091(8)
O15_7 O 0.1186(3) 0.2681(4) 0.59014(8)
O16_13 O 0.1965(3) 0.4562(5) 0.61151(10)
C22_13 C 0.2565(5) 0.0491(8) 0.58645(13)
C23_13 C 0.2465(5) 0.0935(9) 0.59379(15)
C24_13 C 0.2866(6) 0.1381(10) 0.60282(18)
H12_13 H 0.3214 0.1425 0.6041
C25_13 C 0.2751(6) 0.1764(10) 0.61013(19)
H13_13 H 0.3020 0.2053 0.6168
C26_13 C 0.2254(5) 0.1729(9) 0.60789(16)
C27_13 C 0.1856(6) 0.1285(10) 0.59875(17)
H14_13 H 0.1515 0.1255 0.5970
C28_13 C 0.1951(5) 0.0886(9) 0.59224(16)
H15_13 H 0.1668 0.0579 0.5867
C29_13 C 0.3222(4) 0.3609(7) 0.71043(12)
C30_13 C 0.2988(5) 0.3405(6) 0.69174(13)
C31_13 C 0.3026(6) 0.3760(8) 0.67865(13)
H16_13 H 0.3211 0.4134 0.6808
C32_13 C 0.2782(6) 0.3555(8) 0.66178(14)
H17_13 H 0.2790 0.3796 0.6531
C33_13 C 0.2536(6) 0.3010(7) 0.65800(14)
C34_13 C 0.2503(7) 0.2659(9) 0.67142(17)
H18_13 H 0.2326 0.2284 0.6692
C35_13 C 0.2728(6) 0.2854(8) 0.68799(16)
H19_13 H 0.2705 0.2610 0.6968
C36_13 C 0.1418(4) 0.2927(6) 0.60440(11)
C37_13 C 0.1749(5) 0.2727(6) 0.61409(12)
C38_13 C 0.1822(5) 0.2319(6) 0.60706(13)
H20_13 H 0.1651 0.2150 0.5963
C39_13 C 0.2148(5) 0.2156(6) 0.61587(15)
C40_13 C 0.2363(5) 0.2381(6) 0.63248(15)
H21_13 H 0.2560 0.2252 0.6388
C41_13 C 0.2295(6) 0.2792(7) 0.64003(14)
C42_13 C 0.1996(5) 0.2978(6) 0.63057(12)
H22_13 H 0.1957 0.3264 0.6351
O17_7 O 0.1174(3) 0.4579(4) 0.58596(9)
O25_7 O 0.1838(3) 0.3986(4) 0.57653(8)
O26_9 O 0.0613(3) 0.3333(4) 0.5833
H27_13 H 0.190409 0.451025 0.624679
H28_13 H 0.201785 0.492555 0.608048
O5_7 O 0.1927(2) 0.8585(3) 0.61091(8)
O6_4 O 0.1495(3) 0.8814(3) 0.59014(8)
O7_4 O 0.2720(3) 0.9387(3) 0.5833
O8_7 O 0.2597(4) 0.8035(3) 0.61151(10)
C8_7 C 0.0387(6) 0.6778(4) 0.71043(12)
C9_7 C 0.0417(4) 0.7012(5) 0.69174(13)
C10_7 C 0.0734(5) 0.6974(6) 0.67865(13)
H5_7 H 0.0923 0.6789 0.6808
C11_7 C 0.0773(5) 0.7218(6) 0.66178(14)
H6_7 H 0.1006 0.7210 0.6531
C12_7 C 0.0474(4) 0.7464(6) 0.65800(14)
C13_7 C 0.0156(6) 0.7497(7) 0.67142(17)
C14_7 C 0.0126(6) 0.7272(6) 0.68799(16)
C15_7 C 0.1509(4) 0.8582(4) 0.60440(11)
C16_7 C 0.0978(4) 0.8251(5) 0.61409(12)
C17_7 C 0.0497(4) 0.8178(5) 0.60706(13)
H9_7 H 0.0499 0.8349 0.5963
C18_7 C 0.0008(4) 0.7852(5) 0.61587(15)
C19_7 C 0.0018(4) 0.7637(5) 0.63248(15)
C20_7 C 0.0497(4) 0.7705(6) 0.64003(14)
C21_7 C 0.0982(4) 0.8004(5) 0.63057(12)
H11_7 H 0.1307 0.8043 0.6351
O18_4 O 0.3404(5) 0.8826(3) 0.58596(9)
O19_10 O 0.3922(5) 0.9711(3) 0.57906(11)
O24_4 O 0.2147(3) 0.8162(3) 0.57653(8)
H23_7 H 0.260616 0.809591 0.624679
H24_7 H 0.29077 0.798215 0.608048
O1_4 O 0.7912(4) 0.7841(3) 0.58071(9)
O2_4 O 0.7545(4) 0.6956(3) 0.58761(11)
C1_7 C 0.7926(6) 0.7435(5) 0.58645(13)
C2_7 C 0.8470(7) 0.7535(5) 0.59379(15)
C3_7 C 0.8515(8) 0.7134(6) 0.60282(18)
H1_7 H 0.8211 0.6786 0.6041
C4_7 C 0.9013(8) 0.7249(6) 0.61013(19)
H2_7 H 0.9033 0.6980 0.6168
C5_7 C 0.9475(7) 0.7746(5) 0.60789(16)
C6_7 C 0.9429(8) 0.8144(6) 0.59875(17)
H3_7 H 0.9740 0.8485 0.5970
C7_7 C 0.8935(7) 0.8049(5) 0.59224(16)
H4_7 H 0.8911 0.8332 0.5867
H7_7 H 0.9958 0.7674 0.6692
H8_7 H 0.9905 0.7295 0.6968
H10_7 H 0.9692 0.7440 0.6388
O19_11 O 0.0289(3) 0.4212(6) 0.57906(11)
O9_13 O 0.9126(4) 0.3333(6) 0.5833
O10_8 O 0.9929(5) 0.2088(6) 0.58071(9)
O11_8 O 0.9411(5) 0.2455(6) 0.58761(11)
C22_14 C 0.9509(8) 0.2074(9) 0.58645(13)
C23_14 C 0.9065(9) 0.1530(10) 0.59379(15)
C24_14 C 0.8619(10) 0.1485(12) 0.60282(18)
H12_14 H 0.8575 0.1789 0.6041
C25_14 C 0.8236(10) 0.0987(12) 0.61013(19)
H13_14 H 0.7947 0.0967 0.6168
C26_14 C 0.8271(9) 0.0525(10) 0.60789(16)
C27_14 C 0.8715(10) 0.0571(12) 0.59875(17)
H14_14 H 0.8745 0.0260 0.5970
C28_14 C 0.9114(9) 0.1065(10) 0.59224(16)
H15_14 H 0.9421 0.1089 0.5867
H18_14 H 0.7716 0.0042 0.6692
H19_14 H 0.7390 0.0095 0.6968
H21_14 H 0.7748 0.0308 0.6388
O14_14 O 0.6658(4) 0.8073(5) 0.61091(8)
O15_8 O 0.7319(4) 0.8505(5) 0.59014(8)
O16_14 O 0.5438(5) 0.7403(6) 0.61151(10)
C29_14 C 0.6391(7) 0.9613(8) 0.71043(12)
C30_14 C 0.6595(6) 0.9583(8) 0.69174(13)
C31_14 C 0.6240(8) 0.9266(10) 0.67865(13)
H16_14 H 0.5866 0.9077 0.6808
C32_14 C 0.6445(8) 0.9227(10) 0.66178(14)
H17_14 H 0.6204 0.8994 0.6531
C33_14 C 0.6990(7) 0.9526(9) 0.65800(14)
C34_14 C 0.7341(9) 0.9844(11) 0.67142(17)
C35_14 C 0.7146(8) 0.9874(10) 0.68799(16)
C36_14 C 0.7073(6) 0.8491(7) 0.60440(11)
C37_14 C 0.7273(6) 0.9022(8) 0.61409(12)
C38_14 C 0.7681(6) 0.9503(8) 0.60706(13)
H20_14 H 0.7850 0.9501 0.5963
C39_14 C 0.7844(6) 0.9992(8) 0.61587(15)
C40_14 C 0.7619(6) 0.9982(8) 0.63248(15)
C41_14 C 0.7208(7) 0.9503(9) 0.64003(14)
C42_14 C 0.7022(6) 0.9018(8) 0.63057(12)
H22_14 H 0.6736 0.8693 0.6351
O17_8 O 0.5421(4) 0.6596(5) 0.58596(9)
O25_8 O 0.6014(4) 0.7853(5) 0.57653(8)
O26_10 O 0.6667(4) 0.7280(5) 0.5833
H27_14 H 0.548975 0.739384 0.624679
H28_14 H 0.507445 0.70923 0.608048
O9_14 O 0.6667(6) 0.5793(4) 0.5833
O19_12 O 0.5788(6) 0.6078(5) 0.57906(11)
O9_15 O 0.0874(4) 0.4207(4) 0.9167
O10_9 O 0.0071(5) 0.2159(3) 0.91929(9)
O11_9 O 0.0589(5) 0.3044(3) 0.91239(11)
O14_15 O 0.3342(4) 0.1415(3) 0.88909(8)
O15_9 O 0.2681(4) 0.1186(3) 0.90986(8)
O16_15 O 0.4562(5) 0.1965(3) 0.88849(10)
C22_15 C 0.0491(8) 0.2565(5) 0.91355(13)
C23_15 C 0.0935(9) 0.2465(5) 0.90621(15)
C24_15 C 0.1381(10) 0.2866(6) 0.89718(18)
H12_15 H 0.1425 0.3214 0.8959
C25_15 C 0.1764(10) 0.2751(6) 0.88987(19)
H13_15 H 0.2053 0.3020 0.8832
C26_15 C 0.1729(9) 0.2254(5) 0.89211(16)
C27_15 C 0.1285(10) 0.1856(6) 0.90125(17)
H14_15 H 0.1255 0.1515 0.9030
C28_15 C 0.0886(9) 0.1951(5) 0.90776(16)
H15_15 H 0.0579 0.1668 0.9133
C29_15 C 0.3609(7) 0.3222(4) 0.78957(12)
C30_15 C 0.3405(6) 0.2988(5) 0.80826(13)
C31_15 C 0.3760(8) 0.3026(6) 0.82135(13)
H16_15 H 0.4134 0.3211 0.8192
C32_15 C 0.3555(8) 0.2782(6) 0.83822(14)
H17_15 H 0.3796 0.2790 0.8469
C33_15 C 0.3010(7) 0.2536(6) 0.84200(14)
C34_15 C 0.2659(9) 0.2503(7) 0.82858(17)
H18_15 H 0.2284 0.2326 0.8308
C35_15 C 0.2854(8) 0.2728(6) 0.81201(16)
H19_15 H 0.2610 0.2705 0.8032
C36_15 C 0.2927(6) 0.1418(4) 0.89560(11)
C37_15 C 0.2727(6) 0.1749(5) 0.88591(12)
C38_15 C 0.2319(6) 0.1822(5) 0.89294(13)
H20_15 H 0.2150 0.1651 0.9037
C39_15 C 0.2156(6) 0.2148(5) 0.88413(15)
C40_15 C 0.2381(6) 0.2363(5) 0.86752(15)
H21_15 H 0.2252 0.2560 0.8612
C41_15 C 0.2792(7) 0.2295(6) 0.85997(14)
C42_15 C 0.2978(6) 0.1996(5) 0.86943(12)
H22_15 H 0.3264 0.1957 0.8649
O17_9 O 0.4579(4) 0.1174(3) 0.91404(9)
O25_9 O 0.3986(4) 0.1838(3) 0.92347(8)
O26_11 O 0.3333(4) 0.0613(3) 0.9167
H27_15 H 0.451025 0.190409 0.875321
H28_15 H 0.492555 0.201785 0.891952
O5_8 O 0.8585(3) 0.1927(2) 0.88909(8)
O6_5 O 0.8814(3) 0.1495(3) 0.90986(8)
O7_5 O 0.9387(3) 0.2720(3) 0.9167
O8_8 O 0.8035(3) 0.2597(4) 0.88849(10)
C8_8 C 0.6778(4) 0.0387(6) 0.78957(12)
C9_8 C 0.7012(5) 0.0417(4) 0.80826(13)
C10_8 C 0.6974(6) 0.0734(5) 0.82135(13)
H5_8 H 0.6789 0.0923 0.8192
C11_8 C 0.7218(6) 0.0773(5) 0.83822(14)
H6_8 H 0.7210 0.1006 0.8469
C12_8 C 0.7464(6) 0.0474(4) 0.84200(14)
C13_8 C 0.7497(7) 0.0156(6) 0.82858(17)
C14_8 C 0.7272(6) 0.0126(6) 0.81201(16)
C15_8 C 0.8582(4) 0.1509(4) 0.89560(11)
C16_8 C 0.8251(5) 0.0978(4) 0.88591(12)
C17_8 C 0.8178(5) 0.0497(4) 0.89294(13)
H9_8 H 0.8349 0.0499 0.9037
C18_8 C 0.7852(5) 0.0008(4) 0.88413(15)
C19_8 C 0.7637(5) 0.0018(4) 0.86752(15)
C20_8 C 0.7705(6) 0.0497(4) 0.85997(14)
C21_8 C 0.8004(5) 0.0982(4) 0.86943(12)
H11_8 H 0.8043 0.1307 0.8649
O18_5 O 0.8826(3) 0.3404(5) 0.91404(9)
O19_13 O 0.9711(3) 0.3922(5) 0.92094(11)
O24_5 O 0.8162(3) 0.2147(3) 0.92347(8)
H23_8 H 0.809591 0.260616 0.875321
H24_8 H 0.798215 0.29077 0.891952
O1_5 O 0.7841(3) 0.7912(4) 0.91929(9)
O2_5 O 0.6956(3) 0.7545(4) 0.91239(11)
C1_8 C 0.7435(5) 0.7926(6) 0.91355(13)
C2_8 C 0.7535(5) 0.8470(7) 0.90621(15)
C3_8 C 0.7134(6) 0.8515(8) 0.89718(18)
H1_8 H 0.6786 0.8211 0.8959
C4_8 C 0.7249(6) 0.9013(8) 0.88987(19)
H2_8 H 0.6980 0.9033 0.8832
C5_8 C 0.7746(5) 0.9475(7) 0.89211(16)
C6_8 C 0.8144(6) 0.9429(8) 0.90125(17)
H3_8 H 0.8485 0.9740 0.9030
C7_8 C 0.8049(5) 0.8935(7) 0.90776(16)
H4_8 H 0.8332 0.8911 0.9133
H7_8 H 0.7674 0.9958 0.8308
H8_8 H 0.7295 0.9905 0.8032
H10_8 H 0.7440 0.9692 0.8612
O19_14 O 0.4212(6) 0.0289(3) 0.92094(11)
O9_16 O 0.3333(6) 0.9126(4) 0.9167
O10_10 O 0.2088(6) 0.9929(5) 0.91929(9)
O11_10 O 0.2455(6) 0.9411(5) 0.91239(11)
C22_16 C 0.2074(9) 0.9509(8) 0.91355(13)
C23_16 C 0.1530(10) 0.9065(9) 0.90621(15)
C24_16 C 0.1485(12) 0.8619(10) 0.89718(18)
H12_16 H 0.1789 0.8575 0.8959
C25_16 C 0.0987(12) 0.8236(10) 0.88987(19)
H13_16 H 0.0967 0.7947 0.8832
C26_16 C 0.0525(10) 0.8271(9) 0.89211(16)
C27_16 C 0.0571(12) 0.8715(10) 0.90125(17)
H14_16 H 0.0260 0.8745 0.9030
C28_16 C 0.1065(10) 0.9114(9) 0.90776(16)
H15_16 H 0.1089 0.9421 0.9133
H18_16 H 0.0042 0.7716 0.8308
H19_16 H 0.0095 0.7390 0.8032
H21_16 H 0.0308 0.7748 0.8612
O14_16 O 0.8073(5) 0.6658(4) 0.88909(8)
O15_10 O 0.8505(5) 0.7319(4) 0.90986(8)
O16_16 O 0.7403(6) 0.5438(5) 0.88849(10)
C29_16 C 0.9613(8) 0.6391(7) 0.78957(12)
C30_16 C 0.9583(8) 0.6595(6) 0.80826(13)
C31_16 C 0.9266(10) 0.6240(8) 0.82135(13)
H16_16 H 0.9077 0.5866 0.8192
C32_16 C 0.9227(10) 0.6445(8) 0.83822(14)
H17_16 H 0.8994 0.6204 0.8469
C33_16 C 0.9526(9) 0.6990(7) 0.84200(14)
C34_16 C 0.9844(11) 0.7341(9) 0.82858(17)
C35_16 C 0.9874(10) 0.7146(8) 0.81201(16)
C36_16 C 0.8491(7) 0.7073(6) 0.89560(11)
C37_16 C 0.9022(8) 0.7273(6) 0.88591(12)
C38_16 C 0.9503(8) 0.7681(6) 0.89294(13)
H20_16 H 0.9501 0.7850 0.9037
C39_16 C 0.9992(8) 0.7844(6) 0.88413(15)
C40_16 C 0.9982(8) 0.7619(6) 0.86752(15)
C41_16 C 0.9503(9) 0.7208(7) 0.85997(14)
C42_16 C 0.9018(8) 0.7022(6) 0.86943(12)
H22_16 H 0.8693 0.6736 0.8649
O17_10 O 0.6596(5) 0.5421(4) 0.91404(9)
O25_10 O 0.7853(5) 0.6014(4) 0.92347(8)
O26_12 O 0.7280(5) 0.6667(4) 0.9167
H27_16 H 0.739384 0.548975 0.875321
H28_16 H 0.70923 0.507445 0.891952
O9_17 O 0.5793(4) 0.6667(6) 0.9167
O19_15 O 0.6078(5) 0.5788(6) 0.92094(11)
O14_17 O 0.4748(3) 0.0009(4) 0.27758(8)
O16_17 O 0.5298(3) 0.1229(5) 0.27818(10)
C29_17 C 0.6555(4) 0.0276(7) 0.37710(12)
C30_17 C 0.6321(5) 0.0072(6) 0.35841(13)
C31_17 C 0.6359(6) 0.0427(8) 0.34532(13)
H16_17 H 0.6544 0.0801 0.3475
C32_17 C 0.6115(6) 0.0222(8) 0.32845(14)
H17_17 H 0.6123 0.0463 0.3198
O17_11 O 0.4508(3) 0.1245(4) 0.25262(9)
O25_11 O 0.5172(3) 0.0652(4) 0.24319(8)
O26_13 O 0.3946(3) -0.0000(4) 0.2500
H27_17 H 0.523742 0.117691 0.291346
H28_17 H 0.535118 0.159221 0.274715
O1_6 O 0.1245(4) 0.4508(3) 0.24738(9)
O2_6 O 0.0878(4) 0.3623(3) 0.25428(11)
O5_9 O 0.5260(2) 0.5252(3) 0.27758(8)
O6_6 O 0.4828(3) 0.5481(3) 0.25681(8)
O7_6 O 0.6053(3) 0.6054(3) 0.2500
O8_9 O 0.5930(4) 0.4702(3) 0.27818(10)
O9_18 O 0.7540(4) 0.7541(4) 0.2500
C1_9 C 0.1259(6) 0.4102(5) 0.25312(13)
C2_9 C 0.1803(7) 0.4202(5) 0.26046(15)
C3_9 C 0.1848(8) 0.3801(6) 0.26949(18)
H1_9 H 0.1544 0.3453 0.2708
C4_9 C 0.2346(8) 0.3916(6) 0.27680(19)
H2_9 H 0.2366 0.3647 0.2835
C5_9 C 0.2808(7) 0.4413(5) 0.27456(16)
C6_9 C 0.2762(8) 0.4811(6) 0.26542(17)
H3_9 H 0.3073 0.5152 0.2637
C7_9 C 0.2268(7) 0.4716(5) 0.25891(16)
H4_9 H 0.2244 0.4999 0.2534
C8_9 C 0.3720(6) 0.3445(4) 0.37710(12)
C9_9 C 0.3750(4) 0.3679(5) 0.35841(13)
C10_9 C 0.4067(5) 0.3641(6) 0.34532(13)
H5_9 H 0.4256 0.3456 0.3475
C11_9 C 0.4106(5) 0.3885(6) 0.32845(14)
H6_9 H 0.4339 0.3877 0.3198
C12_9 C 0.3807(4) 0.4131(6) 0.32467(14)
C13_9 C 0.3489(6) 0.4164(7) 0.33809(17)
H7_9 H 0.3291 0.4341 0.3359
C14_9 C 0.3459(6) 0.3939(6) 0.35466(16)
H8_9 H 0.3238 0.3962 0.3635
C15_9 C 0.4842(4) 0.5249(4) 0.27107(11)
C16_9 C 0.4311(4) 0.4918(5) 0.28076(12)
C17_9 C 0.3830(4) 0.4845(5) 0.27373(13)
H9_9 H 0.3832 0.5016 0.2630
C18_9 C 0.3341(4) 0.4519(5) 0.28254(15)
C19_9 C 0.3351(4) 0.4304(5) 0.29915(15)
H10_9 H 0.3025 0.4107 0.3055
C20_9 C 0.3830(4) 0.4372(6) 0.30670(14)
C21_9 C 0.4315(4) 0.4671(5) 0.29724(12)
H11_9 H 0.4640 0.4710 0.3018
O10_11 O 0.5492(3) 0.6738(5) 0.24738(9)
O11_11 O 0.6377(3) 0.7256(5) 0.25428(11)
O15_11 O 0.4519(3) 0.9348(4) 0.25681(8)
C22_17 C 0.5898(5) 0.7158(8) 0.25312(13)
C23_17 C 0.5798(5) 0.7602(9) 0.26046(15)
C24_17 C 0.6199(6) 0.8048(10) 0.26949(18)
H12_17 H 0.6547 0.8092 0.2708
C25_17 C 0.6084(6) 0.8431(10) 0.27680(19)
H13_17 H 0.6353 0.8720 0.2835
C26_17 C 0.5587(5) 0.8396(9) 0.27456(16)
C27_17 C 0.5189(6) 0.7952(10) 0.26542(17)
H14_17 H 0.4848 0.7922 0.2637
C28_17 C 0.5284(5) 0.7553(9) 0.25891(16)
H15_17 H 0.5001 0.7246 0.2534
C33_17 C 0.5869(6) 0.9677(7) 0.32467(14)
C34_17 C 0.5836(7) 0.9326(9) 0.33809(17)
H18_17 H 0.5659 0.8951 0.3359
C35_17 C 0.6061(6) 0.9521(8) 0.35466(16)
H19_17 H 0.6038 0.9277 0.3635
C36_17 C 0.4751(4) 0.9594(6) 0.27107(11)
C37_17 C 0.5082(5) 0.9394(6) 0.28076(12)
C38_17 C 0.5155(5) 0.8986(6) 0.27373(13)
H20_17 H 0.4984 0.8817 0.2630
C39_17 C 0.5481(5) 0.8823(6) 0.28254(15)
C40_17 C 0.5696(5) 0.9048(6) 0.29915(15)
H21_17 H 0.5893 0.8919 0.3055
C41_17 C 0.5628(6) 0.9459(7) 0.30670(14)
C42_17 C 0.5329(5) 0.9645(6) 0.29724(12)
H22_17 H 0.5290 0.9931 0.3018
O18_6 O 0.6738(5) 0.5492(3) 0.25262(9)
O19_16 O 0.7256(5) 0.6377(3) 0.24572(11)
O24_6 O 0.5481(3) 0.4828(3) 0.24319(8)
O26_14 O 0.3946(3) 1.0000(4) 0.2500
H23_9 H 0.593949 0.476258 0.291346
H24_9 H 0.624103 0.464882 0.274715
O9_19 O 0.2459(4) -0.0000(6) 0.2500
O19_17 O 0.3623(3) 0.0878(6) 0.24572(11)
H26_5 H 0.253142 0.0378911 0.248105
O9_20 O 0.2459(4) 1.0000(6) 0.2500
O10_12 O 0.3262(5) 0.8755(6) 0.24738(9)
O11_12 O 0.2744(5) 0.9122(6) 0.25428(11)
O15_12 O 0.0652(4) 0.5172(5) 0.25681(8)
C22_18 C 0.2842(8) 0.8741(9) 0.25312(13)
C23_18 C 0.2398(9) 0.8197(10) 0.26046(15)
C24_18 C 0.1952(10) 0.8152(12) 0.26949(18)
H12_18 H 0.1908 0.8456 0.2708
C25_18 C 0.1569(10) 0.7654(12) 0.27680(19)
H13_18 H 0.1280 0.7634 0.2835
C26_18 C 0.1604(9) 0.7192(10) 0.27456(16)
C27_18 C 0.2048(10) 0.7238(12) 0.26542(17)
H14_18 H 0.2078 0.6927 0.2637
C28_18 C 0.2447(9) 0.7732(10) 0.25891(16)
H15_18 H 0.2754 0.7756 0.2534
C33_18 C 0.0323(7) 0.6193(9) 0.32467(14)
C34_18 C 0.0674(9) 0.6511(11) 0.33809(17)
H18_18 H 0.1049 0.6709 0.3359
C35_18 C 0.0479(8) 0.6541(10) 0.35466(16)
H19_18 H 0.0723 0.6762 0.3635
C36_18 C 0.0406(6) 0.5158(7) 0.27107(11)
C37_18 C 0.0606(6) 0.5689(8) 0.28076(12)
C38_18 C 0.1014(6) 0.6170(8) 0.27373(13)
H20_18 H 0.1183 0.6168 0.2630
C39_18 C 0.1177(6) 0.6659(8) 0.28254(15)
C40_18 C 0.0952(6) 0.6649(8) 0.29915(15)
H21_18 H 0.1081 0.6975 0.3055
C41_18 C 0.0541(7) 0.6170(9) 0.30670(14)
C42_18 C 0.0355(6) 0.5685(8) 0.29724(12)
H22_18 H 0.0069 0.5360 0.3018
O26_15 O 0.0000(4) 0.3947(5) 0.2500
H25_5 H 0.222256 0.976084 0.240122
O14_18 O 0.9991(4) 0.4740(5) 0.27758(8)
O16_18 O 0.8771(5) 0.4070(6) 0.27818(10)
C29_18 C 0.9724(7) 0.6280(8) 0.37710(12)
C30_18 C 0.9928(6) 0.6250(8) 0.35841(13)
C31_18 C 0.9573(8) 0.5933(10) 0.34532(13)
H16_18 H 0.9199 0.5744 0.3475
C32_18 C 0.9778(8) 0.5894(10) 0.32845(14)
H17_18 H 0.9537 0.5661 0.3198
O17_12 O 0.8755(4) 0.3262(5) 0.25262(9)
O25_12 O 0.9348(4) 0.4519(5) 0.24319(8)
O26_16 O 1.0000(4) 0.3947(5) 0.2500
H27_18 H 0.882309 0.406051 0.291346
H28_18 H 0.840779 0.375897 0.274715
O9_21 O 0.0000(6) 0.2460(4) 0.2500
H25_6 H 0.0239162 0.246173 0.240122
O9_22 O 1.0000(6) 0.2460(4) 0.2500
O19_18 O 0.9122(6) 0.2744(5) 0.24572(11)
H26_6 H 0.962109 0.215251 0.248105
O5_10 O 0.1918(3) 0.8594(2) 0.55576(8)
O8_10 O 0.1368(3) 0.9264(4) 0.55516(10)
C1_10 C 0.0768(5) 0.4593(6) 0.58022(13)
C2_10 C 0.0868(5) 0.5137(7) 0.57288(15)
C3_10 C 0.0467(6) 0.5182(8) 0.56385(18)
H1_10 H 0.0119 0.4878 0.5626
C4_10 C 0.0582(6) 0.5680(8) 0.55654(19)
H2_10 H 0.0313 0.5700 0.5499
C5_10 C 0.1079(5) 0.6142(7) 0.55878(16)
C6_10 C 0.1477(6) 0.6096(8) 0.56792(17)
H3_10 H 0.1818 0.6407 0.5697
C7_10 C 0.1382(5) 0.5602(7) 0.57443(16)
H4_10 H 0.1665 0.5578 0.5800
C8_10 C 0.0111(4) 0.7054(6) 0.45624(12)
C9_10 C 0.0345(5) 0.7084(4) 0.47493(13)
C10_10 C 0.0307(6) 0.7401(5) 0.48802(13)
H5_10 H 0.0122 0.7590 0.4859
C11_10 C 0.0551(6) 0.7440(5) 0.50489(14)
H6_10 H 0.0543 0.7673 0.5136
C12_10 C 0.0797(6) 0.7141(4) 0.50867(14)
C13_10 C 0.0830(7) 0.6823(6) 0.49525(17)
H7_10 H 0.1007 0.6625 0.4975
C14_10 C 0.0605(6) 0.6793(6) 0.47868(16)
H8_10 H 0.0628 0.6572 0.4699
C15_10 C 0.1915(4) 0.8176(4) 0.56227(11)
C16_10 C 0.1584(5) 0.7645(4) 0.55258(12)
C17_10 C 0.1511(5) 0.7164(4) 0.55961(13)
H9_10 H 0.1682 0.7166 0.5704
C18_10 C 0.1185(5) 0.6675(4) 0.55080(15)
C19_10 C 0.0970(5) 0.6685(4) 0.53419(15)
H10_10 H 0.0773 0.6359 0.5279
C20_10 C 0.1038(6) 0.7164(4) 0.52664(14)
C21_10 C 0.1337(5) 0.7649(4) 0.53610(12)
H11_10 H 0.1376 0.7974 0.5316
O14_19 O 0.6675(4) 0.8082(3) 0.55576(8)
O16_19 O 0.7895(5) 0.8632(3) 0.55516(10)
C22_19 C 0.3824(8) 0.9232(5) 0.58022(13)
C23_19 C 0.4268(9) 0.9132(5) 0.57288(15)
C24_19 C 0.4714(10) 0.9533(6) 0.56385(18)
H12_19 H 0.4758 0.9881 0.5626
C25_19 C 0.5097(10) 0.9418(6) 0.55654(19)
H13_19 H 0.5386 0.9687 0.5499
C26_19 C 0.5062(9) 0.8921(5) 0.55878(16)
C27_19 C 0.4618(10) 0.8523(6) 0.56792(17)
H14_19 H 0.4588 0.8182 0.5697
C28_19 C 0.4219(9) 0.8618(5) 0.57443(16)
H15_19 H 0.3912 0.8335 0.5800
C29_19 C 0.6942(7) 0.9889(4) 0.45624(12)
C30_19 C 0.6738(6) 0.9655(5) 0.47493(13)
C31_19 C 0.7093(8) 0.9693(6) 0.48802(13)
H16_19 H 0.7467 0.9878 0.4859
C32_19 C 0.6888(8) 0.9449(6) 0.50489(14)
H17_19 H 0.7129 0.9457 0.5136
C33_19 C 0.6343(7) 0.9203(6) 0.50867(14)
C34_19 C 0.5992(9) 0.9170(7) 0.49525(17)
H18_19 H 0.5617 0.8993 0.4975
C35_19 C 0.6187(8) 0.9395(6) 0.47868(16)
H19_19 H 0.5943 0.9372 0.4699
C36_19 C 0.6260(6) 0.8085(4) 0.56227(11)
C37_19 C 0.6060(6) 0.8416(5) 0.55258(12)
C38_19 C 0.5652(6) 0.8489(5) 0.55961(13)
H20_19 H 0.5483 0.8318 0.5704
C39_19 C 0.5489(6) 0.8815(5) 0.55080(15)
C40_19 C 0.5714(6) 0.9030(5) 0.53419(15)
H21_19 H 0.5585 0.9227 0.5279
C41_19 C 0.6125(7) 0.8962(6) 0.52664(14)
C42_19 C 0.6311(6) 0.8663(5) 0.53610(12)
H22_19 H 0.6597 0.8624 0.5316
H23_10 H 0.142925 0.927283 0.541988
H24_10 H 0.131549 0.957437 0.558619
H27_19 H 0.784358 0.857075 0.541988
H28_19 H 0.825888 0.868451 0.558619
O14_20 O 0.1406(5) 0.3325(4) 0.55576(8)
O16_20 O 0.0736(6) 0.2105(5) 0.55516(10)
C22_20 C 0.5407(9) 0.6176(8) 0.58022(13)
C23_20 C 0.4863(10) 0.5732(9) 0.57288(15)
C24_20 C 0.4818(12) 0.5286(10) 0.56385(18)
H12_20 H 0.5122 0.5242 0.5626
C25_20 C 0.4320(12) 0.4903(10) 0.55654(19)
H13_20 H 0.4300 0.4614 0.5499
C26_20 C 0.3858(10) 0.4938(9) 0.55878(16)
C27_20 C 0.3904(12) 0.5382(10) 0.56792(17)
H14_20 H 0.3593 0.5412 0.5697
C28_20 C 0.4398(10) 0.5781(9) 0.57443(16)
H15_20 H 0.4422 0.6088 0.5800
C29_20 C 0.2946(8) 0.3058(7) 0.45624(12)
C30_20 C 0.2916(8) 0.3262(6) 0.47493(13)
C31_20 C 0.2599(10) 0.2907(8) 0.48802(13)
H16_20 H 0.2410 0.2533 0.4859
C32_20 C 0.2560(10) 0.3112(8) 0.50489(14)
H17_20 H 0.2327 0.2871 0.5136
C33_20 C 0.2859(9) 0.3657(7) 0.50867(14)
C34_20 C 0.3177(11) 0.4008(9) 0.49525(17)
H18_20 H 0.3375 0.4383 0.4975
C35_20 C 0.3207(10) 0.3813(8) 0.47868(16)
H19_20 H 0.3428 0.4057 0.4699
C36_20 C 0.1824(7) 0.3740(6) 0.56227(11)
C37_20 C 0.2355(8) 0.3940(6) 0.55258(12)
C38_20 C 0.2836(8) 0.4348(6) 0.55961(13)
H20_20 H 0.2834 0.4517 0.5704
C39_20 C 0.3325(8) 0.4511(6) 0.55080(15)
C40_20 C 0.3315(8) 0.4286(6) 0.53419(15)
H21_20 H 0.3641 0.4415 0.5279
C41_20 C 0.2836(9) 0.3875(7) 0.52664(14)
C42_20 C 0.2351(8) 0.3689(6) 0.53610(12)
H22_20 H 0.2026 0.3403 0.5316
H27_20 H 0.0727172 0.215642 0.541988
H28_20 H 0.0425633 0.174112 0.558619
C8_11 C 0.7054(6) 0.0111(4) 0.04376(12)
C9_11 C 0.7084(4) 0.0345(5) 0.02507(13)
C10_11 C 0.7401(5) 0.0307(6) 0.01198(13)
H5_11 H 0.7590 0.0122 0.0141
C13_11 C 0.6823(6) 0.0830(7) 0.00475(17)
H7_11 H 0.6625 0.1007 0.0025
C14_11 C 0.6793(6) 0.0605(6) 0.02132(16)
H8_11 H 0.6572 0.0628 0.0301
C29_21 C 0.9889(4) 0.6942(7) 0.04376(12)
C30_21 C 0.9655(5) 0.6738(6) 0.02507(13)
C31_21 C 0.9693(6) 0.7093(8) 0.01198(13)
H16_21 H 0.9878 0.7467 0.0141
C34_21 C 0.9170(7) 0.5992(9) 0.00475(17)
H18_21 H 0.8993 0.5617 0.0025
C35_21 C 0.9395(6) 0.6187(8) 0.02132(16)
H19_21 H 0.9372 0.5943 0.0301
O5_11 O 0.8594(2) 0.1918(3) 0.94424(8)
O8_11 O 0.9264(4) 0.1368(3) 0.94484(10)
C1_11 C 0.4593(6) 0.0768(5) 0.91978(13)
C2_11 C 0.5137(7) 0.0868(5) 0.92712(15)
C3_11 C 0.5182(8) 0.0467(6) 0.93615(18)
H1_11 H 0.4878 0.0119 0.9374
C4_11 C 0.5680(8) 0.0582(6) 0.94346(19)
H2_11 H 0.5700 0.0313 0.9501
C5_11 C 0.6142(7) 0.1079(5) 0.94122(16)
C6_11 C 0.6096(8) 0.1477(6) 0.93208(17)
H3_11 H 0.6407 0.1818 0.9303
C7_11 C 0.5602(7) 0.1382(5) 0.92557(16)
H4_11 H 0.5578 0.1665 0.9200
C11_11 C 0.7440(5) 0.0551(6) 0.99511(14)
H6_11 H 0.7673 0.0543 0.9864
C12_11 C 0.7141(4) 0.0797(6) 0.99133(14)
C15_11 C 0.8176(4) 0.1915(4) 0.93773(11)
C16_11 C 0.7645(4) 0.1584(5) 0.94742(12)
C17_11 C 0.7164(4) 0.1511(5) 0.94039(13)
H9_11 H 0.7166 0.1682 0.9296
C18_11 C 0.6675(4) 0.1185(5) 0.94920(15)
C19_11 C 0.6685(4) 0.0970(5) 0.96581(15)
H10_11 H 0.6359 0.0773 0.9721
C20_11 C 0.7164(4) 0.1038(6) 0.97336(14)
C21_11 C 0.7649(4) 0.1337(5) 0.96390(12)
H11_11 H 0.7974 0.1376 0.9684
O14_21 O 0.8082(3) 0.6675(4) 0.94424(8)
O16_21 O 0.8632(3) 0.7895(5) 0.94484(10)
C22_21 C 0.9232(5) 0.3824(8) 0.91978(13)
C23_21 C 0.9132(5) 0.4268(9) 0.92712(15)
C24_21 C 0.9533(6) 0.4714(10) 0.93615(18)
H12_21 H 0.9881 0.4758 0.9374
C25_21 C 0.9418(6) 0.5097(10) 0.94346(19)
H13_21 H 0.9687 0.5386 0.9501
C26_21 C 0.8921(5) 0.5062(9) 0.94122(16)
C27_21 C 0.8523(6) 0.4618(10) 0.93208(17)
H14_21 H 0.8182 0.4588 0.9303
C28_21 C 0.8618(5) 0.4219(9) 0.92557(16)
H15_21 H 0.8335 0.3912 0.9200
C32_21 C 0.9449(6) 0.6888(8) 0.99511(14)
H17_21 H 0.9457 0.7129 0.9864
C33_21 C 0.9203(6) 0.6343(7) 0.99133(14)
C36_21 C 0.8085(4) 0.6260(6) 0.93773(11)
C37_21 C 0.8416(5) 0.6060(6) 0.94742(12)
C38_21 C 0.8489(5) 0.5652(6) 0.94039(13)
H20_21 H 0.8318 0.5483 0.9296
C39_21 C 0.8815(5) 0.5489(6) 0.94920(15)
C40_21 C 0.9030(5) 0.5714(6) 0.96581(15)
H21_21 H 0.9227 0.5585 0.9721
C41_21 C 0.8962(6) 0.6125(7) 0.97336(14)
C42_21 C 0.8663(5) 0.6311(6) 0.96390(12)
H22_21 H 0.8624 0.6597 0.9684
H23_11 H 0.927283 0.142925 0.958012
H24_11 H 0.957437 0.131549 0.941381
H27_21 H 0.857075 0.784358 0.958012
H28_21 H 0.868451 0.825888 0.941381
C29_22 C 0.3058(7) 0.2946(8) 0.04376(12)
C30_22 C 0.3262(6) 0.2916(8) 0.02507(13)
C31_22 C 0.2907(8) 0.2599(10) 0.01198(13)
H16_22 H 0.2533 0.2410 0.0141
C34_22 C 0.4008(9) 0.3177(11) 0.00475(17)
H18_22 H 0.4383 0.3375 0.0025
C35_22 C 0.3813(8) 0.3207(10) 0.02132(16)
H19_22 H 0.4057 0.3428 0.0301
O14_22 O 0.3325(4) 0.1406(5) 0.94424(8)
O16_22 O 0.2105(5) 0.0736(6) 0.94484(10)
C22_22 C 0.6176(8) 0.5407(9) 0.91978(13)
C23_22 C 0.5732(9) 0.4863(10) 0.92712(15)
C24_22 C 0.5286(10) 0.4818(12) 0.93615(18)
H12_22 H 0.5242 0.5122 0.9374
C25_22 C 0.4903(10) 0.4320(12) 0.94346(19)
H13_22 H 0.4614 0.4300 0.9501
C26_22 C 0.4938(9) 0.3858(10) 0.94122(16)
C27_22 C 0.5382(10) 0.3904(12) 0.93208(17)
H14_22 H 0.5412 0.3593 0.9303
C28_22 C 0.5781(9) 0.4398(10) 0.92557(16)
H15_22 H 0.6088 0.4422 0.9200
C32_22 C 0.3112(8) 0.2560(10) 0.99511(14)
H17_22 H 0.2871 0.2327 0.9864
C33_22 C 0.3657(7) 0.2859(9) 0.99133(14)
C36_22 C 0.3740(6) 0.1824(7) 0.93773(11)
C37_22 C 0.3940(6) 0.2355(8) 0.94742(12)
C38_22 C 0.4348(6) 0.2836(8) 0.94039(13)
H20_22 H 0.4517 0.2834 0.9296
C39_22 C 0.4511(6) 0.3325(8) 0.94920(15)
C40_22 C 0.4286(6) 0.3315(8) 0.96581(15)
H21_22 H 0.4415 0.3641 0.9721
C41_22 C 0.3875(7) 0.2836(9) 0.97336(14)
C42_22 C 0.3689(6) 0.2351(8) 0.96390(12)
H22_22 H 0.3403 0.2026 0.9684
H27_22 H 0.215642 0.0727172 0.958012
H28_22 H 0.174112 0.0425633 0.941381
O14_23 O 0.0009(4) 0.4748(3) 0.22242(8)
O16_23 O 0.1229(5) 0.5298(3) 0.22182(10)
C29_23 C 0.0276(7) 0.6555(4) 0.12290(12)
C30_23 C 0.0072(6) 0.6321(5) 0.14159(13)
C31_23 C 0.0427(8) 0.6359(6) 0.15468(13)
H16_23 H 0.0801 0.6544 0.1525
C32_23 C 0.0222(8) 0.6115(6) 0.17155(14)
H17_23 H 0.0463 0.6123 0.1802
H27_23 H 0.117691 0.523742 0.208654
H28_23 H 0.159221 0.535118 0.225285
O5_12 O 0.5252(3) 0.5260(2) 0.22242(8)
O8_12 O 0.4702(3) 0.5930(4) 0.22182(10)
C1_12 C 0.4102(5) 0.1259(6) 0.24688(13)
C2_12 C 0.4202(5) 0.1803(7) 0.23954(15)
C3_12 C 0.3801(6) 0.1848(8) 0.23051(18)
H1_12 H 0.3453 0.1544 0.2292
C4_12 C 0.3916(6) 0.2346(8) 0.22320(19)
H2_12 H 0.3647 0.2366 0.2165
C5_12 C 0.4413(5) 0.2808(7) 0.22544(16)
C6_12 C 0.4811(6) 0.2762(8) 0.23458(17)
H3_12 H 0.5152 0.3073 0.2363
C7_12 C 0.4716(5) 0.2268(7) 0.24109(16)
H4_12 H 0.4999 0.2244 0.2466
C8_12 C 0.3445(4) 0.3720(6) 0.12290(12)
C9_12 C 0.3679(5) 0.3750(4) 0.14159(13)
C10_12 C 0.3641(6) 0.4067(5) 0.15468(13)
H5_12 H 0.3456 0.4256 0.1525
C11_12 C 0.3885(6) 0.4106(5) 0.17155(14)
H6_12 H 0.3877 0.4339 0.1802
C12_12 C 0.4131(6) 0.3807(4) 0.17533(14)
C13_12 C 0.4164(7) 0.3489(6) 0.16191(17)
H7_12 H 0.4341 0.3291 0.1641
C14_12 C 0.3939(6) 0.3459(6) 0.14534(16)
H8_12 H 0.3962 0.3238 0.1365
C15_12 C 0.5249(4) 0.4842(4) 0.22893(11)
C16_12 C 0.4918(5) 0.4311(4) 0.21924(12)
C17_12 C 0.4845(5) 0.3830(4) 0.22627(13)
H9_12 H 0.5016 0.3832 0.2370
C18_12 C 0.4519(5) 0.3341(4) 0.21746(15)
C19_12 C 0.4304(5) 0.3351(4) 0.20085(15)
H10_12 H 0.4107 0.3025 0.1945
C20_12 C 0.4372(6) 0.3830(4) 0.19330(14)
C21_12 C 0.4671(5) 0.4315(4) 0.20276(12)
H11_12 H 0.4710 0.4640 0.1982
C22_23 C 0.7158(8) 0.5898(5) 0.24688(13)
C23_23 C 0.7602(9) 0.5798(5) 0.23954(15)
C24_23 C 0.8048(10) 0.6199(6) 0.23051(18)
H12_23 H 0.8092 0.6547 0.2292
C25_23 C 0.8431(10) 0.6084(6) 0.22320(19)
H13_23 H 0.8720 0.6353 0.2165
C26_23 C 0.8396(9) 0.5587(5) 0.22544(16)
C27_23 C 0.7952(10) 0.5189(6) 0.23458(17)
H14_23 H 0.7922 0.4848 0.2363
C28_23 C 0.7553(9) 0.5284(5) 0.24109(16)
H15_23 H 0.7246 0.5001 0.2466
C33_23 C 0.9677(7) 0.5869(6) 0.17533(14)
C34_23 C 0.9326(9) 0.5836(7) 0.16191(17)
H18_23 H 0.8951 0.5659 0.1641
C35_23 C 0.9521(8) 0.6061(6) 0.14534(16)
H19_23 H 0.9277 0.6038 0.1365
C36_23 C 0.9594(6) 0.4751(4) 0.22893(11)
C37_23 C 0.9394(6) 0.5082(5) 0.21924(12)
C38_23 C 0.8986(6) 0.5155(5) 0.22627(13)
H20_23 H 0.8817 0.4984 0.2370
C39_23 C 0.8823(6) 0.5481(5) 0.21746(15)
C40_23 C 0.9048(6) 0.5696(5) 0.20085(15)
H21_23 H 0.8919 0.5893 0.1945
C41_23 C 0.9459(7) 0.5628(6) 0.19330(14)
C42_23 C 0.9645(6) 0.5329(5) 0.20276(12)
H22_23 H 0.9931 0.5290 0.1982
H23_12 H 0.476258 0.593949 0.208654
H24_12 H 0.464882 0.624103 0.225285
H26_7 H 0.0378911 0.253142 0.251895
C22_24 C 0.8741(9) 0.2842(8) 0.24688(13)
C23_24 C 0.8197(10) 0.2398(9) 0.23954(15)
C24_24 C 0.8152(12) 0.1952(10) 0.23051(18)
H12_24 H 0.8456 0.1908 0.2292
C25_24 C 0.7654(12) 0.1569(10) 0.22320(19)
H13_24 H 0.7634 0.1280 0.2165
C26_24 C 0.7192(10) 0.1604(9) 0.22544(16)
C27_24 C 0.7238(12) 0.2048(10) 0.23458(17)
H14_24 H 0.6927 0.2078 0.2363
C28_24 C 0.7732(10) 0.2447(9) 0.24109(16)
H15_24 H 0.7756 0.2754 0.2466
C33_24 C 0.6193(9) 0.0323(7) 0.17533(14)
C34_24 C 0.6511(11) 0.0674(9) 0.16191(17)
H18_24 H 0.6709 0.1049 0.1641
C35_24 C 0.6541(10) 0.0479(8) 0.14534(16)
H19_24 H 0.6762 0.0723 0.1365
C36_24 C 0.5158(7) 0.0406(6) 0.22893(11)
C37_24 C 0.5689(8) 0.0606(6) 0.21924(12)
C38_24 C 0.6170(8) 0.1014(6) 0.22627(13)
H20_24 H 0.6168 0.1183 0.2370
C39_24 C 0.6659(8) 0.1177(6) 0.21746(15)
C40_24 C 0.6649(8) 0.0952(6) 0.20085(15)
H21_24 H 0.6975 0.1081 0.1945
C41_24 C 0.6170(9) 0.0541(7) 0.19330(14)
C42_24 C 0.5685(8) 0.0355(6) 0.20276(12)
H22_24 H 0.5360 0.0069 0.1982
H25_7 H 0.976084 0.222256 0.259878
O14_24 O 0.4740(5) 0.9991(4) 0.22242(8)
O16_24 O 0.4070(6) 0.8771(5) 0.22182(10)
C29_24 C 0.6280(8) 0.9724(7) 0.12290(12)
C30_24 C 0.6250(8) 0.9928(6) 0.14159(13)
C31_24 C 0.5933(10) 0.9573(8) 0.15468(13)
H16_24 H 0.5744 0.9199 0.1525
C32_24 C 0.5894(10) 0.9778(8) 0.17155(14)
H17_24 H 0.5661 0.9537 0.1802
H27_24 H 0.406051 0.882309 0.208654
H28_24 H 0.375897 0.840779 0.225285
H25_8 H 0.246173 0.0239162 0.259878
H26_8 H 0.215251 0.962109 0.251895
loop_
_geom_bond_atom_site_label_1
_geom_bond_atom_site_label_2
_geom_bond_site_symmetry_1
_geom_bond_site_symmetry_2
O1 C1 1_555 1_555
O2 C1 1_555 1_555
C1 C2 1_555 1_555
C2 C3 1_555 1_555
C3 H1 1_555 1_555
C4 C3 1_555 1_555
H2 C4 1_555 1_555
C5 C4 1_555 1_555
C6 C5 1_555 1_555
H3 C6 1_555 1_555
C7 C2 1_555 1_555
H4 C7 1_555 1_555
In5 O1 1_555 1_555
In9 O2 1_555 1_555
C6 C7 1_555 1_555
In1 O5 1_555 1_555
O3 C8 1_555 1_555
O4 C8 1_555 1_555
O5 C15 1_555 1_555
O6 C15 1_555 1_555
O7 In1 1_555 1_555
O8 In1 1_555 1_555
C8 C9 1_555 1_555
C9 C10 1_555 1_555
C10 H5 1_555 1_555
C11 C10 1_555 1_555
H6 C11 1_555 1_555
C12 C11 1_555 1_555
C13 C12 1_555 1_555
C14 C9 1_555 1_555
C15 C16 1_555 1_555
C16 C17 1_555 1_555
C17 H9 1_555 1_555
C19 C18 1_555 1_555
C20 C12 1_555 1_555
C21 C16 1_555 1_555
H11 C21 1_555 1_555
In4 O6 1_555 1_555
In8 O3 1_555 1_555
In11_2 O4 1_555 1_555
O18 In1 1_555 1_555
O20 In1 1_555 1_555
O24 In1 1_555 1_555
O7 In4 1_555 1_555
C13 C14 1_555 1_555
C17 C18 1_555 1_555
C19 C20 1_555 1_555
C20 C21 1_555 1_555
O8 H23 1_555 1_555
O8 H24 1_555 1_555
O9 In2 1_555 1_555
In3 O14 1_555 1_555
O10 C22 1_555 1_555
O11 In2 1_555 1_555
O12 C29 1_555 1_555
O13 C29 1_555 1_555
O14 C36 1_555 1_555
O15 C36 1_555 1_555
O16 In3 1_555 1_555
C22 O11 1_555 1_555
C23 C22 1_555 1_555
C24 C23 1_555 1_555
H12 C24 1_555 1_555
C25 C24 1_555 1_555
H13 C25 1_555 1_555
C26 C25 1_555 1_555
C27 C26 1_555 1_555
H14 C27 1_555 1_555
C28 C23 1_555 1_555
H15 C28 1_555 1_555
C29 C30 1_555 1_555
C30 C31 1_555 1_555
C31 H16 1_555 1_555
C32 C31 1_555 1_555
H17 C32 1_555 1_555
C33 C32 1_555 1_555
C34 C33 1_555 1_555
H18 C34 1_555 1_555
C35 C30 1_555 1_555
H19 C35 1_555 1_555
C36 C37 1_555 1_555
C37 C38 1_555 1_555
C38 H20 1_555 1_555
C39 C26 1_555 1_555
C40 C39 1_555 1_555
H21 C40 1_555 1_555
C41 C33 1_555 1_555
C42 C37 1_555 1_555
H22 C42 1_555 1_555
In6 O15 1_555 1_555
In7 O12 1_555 1_555
In10 O13 1_555 1_555
O17 In3 1_555 1_555
O21 In3 1_555 1_555
O22 In2 1_555 1_555
O23 In2 1_555 1_555
O25 In3 1_555 1_555
O26 In3 1_555 1_555
C27 C28 1_555 1_555
C34 C35 1_555 1_555
C38 C39 1_555 1_555
C40 C41 1_555 1_555
C41 C42 1_555 1_555
In6 O26 1_555 1_555
O16 H27 1_555 1_555
O16 H28 1_555 1_555
In3_2 O14_2 1_555 1_555
O12_2 C29_2 1_555 1_555
O13_2 C29_2 1_555 1_555
O14_2 C36_2 1_555 1_555
O15_2 C36_2 1_555 1_555
O16_2 In3_2 1_555 1_555
C29_2 C30_2 1_555 1_555
C30_2 C31_2 1_555 1_555
C31_2 H16_2 1_555 1_555
C32_2 C31_2 1_555 1_555
H17_2 C32_2 1_555 1_555
C33_2 C32_2 1_555 1_555
C34_2 C33_2 1_555 1_555
C35_2 C30_2 1_555 1_555
C36_2 C37_2 1_555 1_555
C37_2 C38_2 1_555 1_555
C38_2 H20_2 1_555 1_555
C40_2 C39_2 1_555 1_555
C41_2 C33_2 1_555 1_555
C42_2 C37_2 1_555 1_555
H22_2 C42_2 1_555 1_555
In5 O15_2 1_555 1_555
In7_2 O12_2 1_555 1_555
In10_2 O13_2 1_555 1_555
O17_2 In3_2 1_555 1_555
O21_2 In3_2 1_555 1_555
O25_2 In3_2 1_555 1_555
O26_2 In3_2 1_555 1_555
C34_2 C35_2 1_555 1_555
C38_2 C39_2 1_555 1_555
C40_2 C41_2 1_555 1_555
C41_2 C42_2 1_555 1_555
In5 O26_2 1_555 1_555
O16_2 H27_2 1_555 1_555
O16_2 H28_2 1_555 1_555
O9_2 In2_2 1_555 1_555
O10_2 C22_2 1_555 1_555
O11_2 In2_2 1_555 1_555
C22_2 O11_2 1_555 1_555
C23_2 C22_2 1_555 1_555
C24_2 C23_2 1_555 1_555
H12_2 C24_2 1_555 1_555
C25_2 C24_2 1_555 1_555
H13_2 C25_2 1_555 1_555
C26_2 C25_2 1_555 1_555
C27_2 C26_2 1_555 1_555
H14_2 C27_2 1_555 1_555
C28_2 C23_2 1_555 1_555
H15_2 C28_2 1_555 1_555
O22_2 In2_2 1_555 1_555
O23_2 In2_2 1_555 1_555
C27_2 C28_2 1_555 1_555
In9 O26_2 1_555 1_555
O9_3 In9 1_555 1_555
O19_3 In9 1_555 1_555
O22_3 In9 1_555 1_555
O23_3 In9 1_555 1_555
O1_2 C1_2 1_555 1_555
O2_2 C1_2 1_555 1_555
C1_2 C2_2 1_555 1_555
C2_2 C3_2 1_555 1_555
C3_2 H1_2 1_555 1_555
C4_2 C3_2 1_555 1_555
H2_2 C4_2 1_555 1_555
C5_2 C4_2 1_555 1_555
C6_2 C5_2 1_555 1_555
H3_2 C6_2 1_555 1_555
C7_2 C2_2 1_555 1_555
H4_2 C7_2 1_555 1_555
In5_2 O1_2 1_555 1_555
In9_2 O2_2 1_555 1_555
C6_2 C7_2 1_555 1_555
In1_2 O5_2 1_555 1_555
O3_2 C8_2 1_555 1_555
O4_2 C8_2 1_555 1_555
O5_2 C15_2 1_555 1_555
O6_2 C15_2 1_555 1_555
O7_2 In1_2 1_555 1_555
O8_2 In1_2 1_555 1_555
C8_2 C9_2 1_555 1_555
C9_2 C10_2 1_555 1_555
C10_2 H5_2 1_555 1_555
C11_2 C10_2 1_555 1_555
H6_2 C11_2 1_555 1_555
C12_2 C11_2 1_555 1_555
C13_2 C12_2 1_555 1_555
C14_2 C9_2 1_555 1_555
C15_2 C16_2 1_555 1_555
C16_2 C17_2 1_555 1_555
C17_2 H9_2 1_555 1_555
C19_2 C18_2 1_555 1_555
C20_2 C12_2 1_555 1_555
C21_2 C16_2 1_555 1_555
H11_2 C21_2 1_555 1_555
In4_2 O6_2 1_555 1_555
In8_2 O3_2 1_555 1_555
In10_3 O4_2 1_555 1_555
O18_2 In1_2 1_555 1_555
O20_2 In1_2 1_555 1_555
O24_2 In1_2 1_555 1_555
O7_2 In4_2 1_555 1_555
C13_2 C14_2 1_555 1_555
C17_2 C18_2 1_555 1_555
C19_2 C20_2 1_555 1_555
C20_2 C21_2 1_555 1_555
O8_2 H23_2 1_555 1_555
O8_2 H24_2 1_555 1_555
O9_4 In2_3 1_555 1_555
In3_3 O14_3 1_555 1_555
O10_3 C22_3 1_555 1_555
O11_3 In2_3 1_555 1_555
O12_3 C29_3 1_555 1_555
O13_3 C29_3 1_555 1_555
O14_3 C36_3 1_555 1_555
O15_3 C36_3 1_555 1_555
O16_3 In3_3 1_555 1_555
C22_3 O11_3 1_555 1_555
C23_3 C22_3 1_555 1_555
C24_3 C23_3 1_555 1_555
H12_3 C24_3 1_555 1_555
C25_3 C24_3 1_555 1_555
H13_3 C25_3 1_555 1_555
C26_3 C25_3 1_555 1_555
C27_3 C26_3 1_555 1_555
H14_3 C27_3 1_555 1_555
C28_3 C23_3 1_555 1_555
H15_3 C28_3 1_555 1_555
C29_3 C30_3 1_555 1_555
C30_3 C31_3 1_555 1_555
C31_3 H16_3 1_555 1_555
C32_3 C31_3 1_555 1_555
H17_3 C32_3 1_555 1_555
C33_3 C32_3 1_555 1_555
C34_3 C33_3 1_555 1_555
H18_3 C34_3 1_555 1_555
C35_3 C30_3 1_555 1_555
H19_3 C35_3 1_555 1_555
C36_3 C37_3 1_555 1_555
C37_3 C38_3 1_555 1_555
C38_3 H20_3 1_555 1_555
C39_3 C26_3 1_555 1_555
C40_3 C39_3 1_555 1_555
H21_3 C40_3 1_555 1_555
C41_3 C33_3 1_555 1_555
C42_3 C37_3 1_555 1_555
H22_3 C42_3 1_555 1_555
In6_2 O15_3 1_555 1_555
In7_3 O12_3 1_555 1_555
In10 O13_3 1_555 1_555
O17_3 In3_3 1_555 1_555
O21_3 In3_3 1_555 1_555
O22_4 In2_3 1_555 1_555
O23_4 In2_3 1_555 1_555
O25_3 In3_3 1_555 1_555
O26_3 In3_3 1_555 1_555
C27_3 C28_3 1_555 1_555
C34_3 C35_3 1_555 1_555
C38_3 C39_3 1_555 1_555
C40_3 C41_3 1_555 1_555
C41_3 C42_3 1_555 1_555
In6_2 O26_3 1_555 1_555
O16_3 H27_3 1_555 1_555
O16_3 H28_3 1_555 1_555
In3_4 O14_4 1_555 1_555
O12_4 C29_4 1_555 1_555
O13_4 C29_4 1_555 1_555
O14_4 C36_4 1_555 1_555
O15_4 C36_4 1_555 1_555
O16_4 In3_4 1_555 1_555
C29_4 C30_4 1_555 1_555
C30_4 C31_4 1_555 1_555
C31_4 H16_4 1_555 1_555
C32_4 C31_4 1_555 1_555
H17_4 C32_4 1_555 1_555
C33_4 C32_4 1_555 1_555
C34_4 C33_4 1_555 1_555
C35_4 C30_4 1_555 1_555
C36_4 C37_4 1_555 1_555
C37_4 C38_4 1_555 1_555
C38_4 H20_4 1_555 1_555
C40_4 C39_4 1_555 1_555
C41_4 C33_4 1_555 1_555
C42_4 C37_4 1_555 1_555
H22_4 C42_4 1_555 1_555
In5_2 O15_4 1_555 1_555
In7_4 O12_4 1_555 1_555
In11 O13_4 1_555 1_555
O17_4 In3_4 1_555 1_555
O21_4 In3_4 1_555 1_555
O25_4 In3_4 1_555 1_555
O26_4 In3_4 1_555 1_555
C34_4 C35_4 1_555 1_555
C38_4 C39_4 1_555 1_555
C40_4 C41_4 1_555 1_555
C41_4 C42_4 1_555 1_555
In5_2 O26_4 1_555 1_555
O16_4 H27_4 1_555 1_555
O16_4 H28_4 1_555 1_555
O9_5 In2_4 1_555 1_555
O10_4 C22_4 1_555 1_555
O11_4 In2_4 1_555 1_555
C22_4 O11_4 1_555 1_555
C23_4 C22_4 1_555 1_555
C24_4 C23_4 1_555 1_555
H12_4 C24_4 1_555 1_555
C25_4 C24_4 1_555 1_555
H13_4 C25_4 1_555 1_555
C26_4 C25_4 1_555 1_555
C27_4 C26_4 1_555 1_555
H14_4 C27_4 1_555 1_555
C28_4 C23_4 1_555 1_555
H15_4 C28_4 1_555 1_555
O22_5 In2_4 1_555 1_555
O23_5 In2_4 1_555 1_555
C27_4 C28_4 1_555 1_555
In9_2 O26_4 1_555 1_555
O9_6 In9_2 1_555 1_555
O19_6 In9_2 1_555 1_555
O22_6 In9_2 1_555 1_555
O23_6 In9_2 1_555 1_555
In1_3 O5_3 1_555 1_555
In2_5 O7_3 1_555 1_555
O1_3 C1_3 1_555 1_555
O2_3 C1_3 1_555 1_555
O3_3 C8_3 1_555 1_555
O4_3 C8_3 1_555 1_555
O5_3 C15_3 1_555 1_555
O6_3 C15_3 1_555 1_555
O7_3 In1_3 1_555 1_555
O8_3 In1_3 1_555 1_555
O9_7 In2_5 1_555 1_555
C1_3 C2_3 1_555 1_555
C2_3 C3_3 1_555 1_555
C3_3 H1_3 1_555 1_555
C4_3 C3_3 1_555 1_555
H2_3 C4_3 1_555 1_555
C5_3 C4_3 1_555 1_555
C6_3 C5_3 1_555 1_555
H3_3 C6_3 1_555 1_555
C7_3 C2_3 1_555 1_555
H4_3 C7_3 1_555 1_555
C8_3 C9_3 1_555 1_555
C9_3 C10_3 1_555 1_555
C10_3 H5_3 1_555 1_555
C11_3 C10_3 1_555 1_555
H6_3 C11_3 1_555 1_555
C12_3 C11_3 1_555 1_555
C13_3 C12_3 1_555 1_555
H7_3 C13_3 1_555 1_555
C14_3 C9_3 1_555 1_555
H8_3 C14_3 1_555 1_555
C15_3 C16_3 1_555 1_555
C16_3 C17_3 1_555 1_555
C17_3 H9_3 1_555 1_555
C18_3 C5_3 1_555 1_555
C19_3 C18_3 1_555 1_555
H10_3 C19_3 1_555 1_555
C20_3 C12_3 1_555 1_555
C21_3 C16_3 1_555 1_555
H11_3 C21_3 1_555 1_555
O10_5 C22_5 1_555 1_555
O11_5 In2_5 1_555 1_555
O15_5 C36_5 1_555 1_555
C22_5 O11_5 1_555 1_555
C23_5 C22_5 1_555 1_555
C24_5 C23_5 1_555 1_555
H12_5 C24_5 1_555 1_555
C25_5 C24_5 1_555 1_555
H13_5 C25_5 1_555 1_555
C26_5 C25_5 1_555 1_555
C27_5 C26_5 1_555 1_555
H14_5 C27_5 1_555 1_555
C28_5 C23_5 1_555 1_555
H15_5 C28_5 1_555 1_555
C34_5 C33_5 1_555 1_555
H18_5 C34_5 1_555 1_555
H19_5 C35_5 1_555 1_555
C36_5 C37_5 1_555 1_555
C37_5 C38_5 1_555 1_555
C38_5 H20_5 1_555 1_555
C39_5 C26_5 1_555 1_555
C40_5 C39_5 1_555 1_555
H21_5 C40_5 1_555 1_555
C41_5 C33_5 1_555 1_555
C42_5 C37_5 1_555 1_555
H22_5 C42_5 1_555 1_555
In4_3 O6_3 1_555 1_555
In5_3 O1_3 1_555 1_555
In6_3 O15_5 1_555 1_555
In8_3 O3_3 1_555 1_555
In9_4 O2_3 1_555 1_555
In10_4 O13_5 1_555 1_555
In11_3 O4_3 1_555 1_555
O18_3 In1_3 1_555 1_555
O19_7 In2_5 1_555 1_555
O20_3 In1_3 1_555 1_555
O22_7 In2_5 1_555 1_555
O23_7 In2_5 1_555 1_555
O24_3 In1_3 1_555 1_555
O7_3 In4_3 1_555 1_555
C6_3 C7_3 1_555 1_555
C13_3 C14_3 1_555 1_555
C17_3 C18_3 1_555 1_555
C19_3 C20_3 1_555 1_555
C20_3 C21_3 1_555 1_555
O10_5 In4_3 1_555 1_555
C27_5 C28_5 1_555 1_555
C34_5 C35_5 1_555 1_555
C38_5 C39_5 1_555 1_555
C40_5 C41_5 1_555 1_555
C41_5 C42_5 1_555 1_555
In6_3 O26_5 1_555 1_555
O8_3 H23_3 1_555 1_555
O8_3 H24_3 1_555 1_555
In3_5 O14_5 1_555 1_555
O12_5 C29_5 1_555 1_555
O16_5 In3_5 1_555 1_555
C29_5 C30_5 1_555 1_555
C30_5 C31_5 1_555 1_555
C31_5 H16_5 1_555 1_555
C32_5 C31_5 1_555 1_555
H17_5 C32_5 1_555 1_555
In7_5 O12_5 1_555 1_555
O17_5 In3_5 1_555 1_555
O21_5 In3_5 1_555 1_555
O25_5 In3_5 1_555 1_555
O26_6 In3_5 1_555 1_555
O16_5 H27_5 1_555 1_555
O16_5 H28_5 1_555 1_555
In3_6 O14_6 1_555 1_555
O12_6 C29_6 1_555 1_555
O16_6 In3_6 1_555 1_555
C29_6 C30_6 1_555 1_555
C30_6 C31_6 1_555 1_555
C31_6 H16_6 1_555 1_555
C32_6 C31_6 1_555 1_555
H17_6 C32_6 1_555 1_555
In7_6 O12_6 1_555 1_555
O17_6 In3_6 1_555 1_555
O21_6 In3_6 1_555 1_555
O25_6 In3_6 1_555 1_555
O26_7 In3_6 1_555 1_555
O16_6 H27_6 1_555 1_555
O16_6 H28_6 1_555 1_555
In2_6 O26_5 1_555 1_555
O9_8 In2_6 1_555 1_555
O10_6 C22_6 1_555 1_555
O11_6 In2_6 1_555 1_555
O15_6 C36_6 1_555 1_555
C22_6 O11_6 1_555 1_555
C23_6 C22_6 1_555 1_555
C24_6 C23_6 1_555 1_555
H12_6 C24_6 1_555 1_555
C25_6 C24_6 1_555 1_555
H13_6 C25_6 1_555 1_555
C26_6 C25_6 1_555 1_555
C27_6 C26_6 1_555 1_555
H14_6 C27_6 1_555 1_555
C28_6 C23_6 1_555 1_555
H15_6 C28_6 1_555 1_555
C34_6 C33_6 1_555 1_555
H18_6 C34_6 1_555 1_555
H19_6 C35_6 1_555 1_555
C36_6 C37_6 1_555 1_555
C37_6 C38_6 1_555 1_555
C38_6 H20_6 1_555 1_555
C39_6 C26_6 1_555 1_555
C40_6 C39_6 1_555 1_555
H21_6 C40_6 1_555 1_555
C41_6 C33_6 1_555 1_555
C42_6 C37_6 1_555 1_555
H22_6 C42_6 1_555 1_555
In5_3 O15_6 1_555 1_555
In10_5 O13_6 1_555 1_555
O23_8 In2_6 1_555 1_555
O10_6 In6_3 1_555 1_555
C27_6 C28_6 1_555 1_555
C34_6 C35_6 1_555 1_555
C38_6 C39_6 1_555 1_555
C40_6 C41_6 1_555 1_555
C41_6 C42_6 1_555 1_555
In5_3 O26_8 1_555 1_555
O9_8 H25 1_555 1_555
In2_7 O26_6 1_555 1_555
O9_9 In2_7 1_555 1_555
O19_8 In2_7 1_555 1_555
O22_8 In2_7 1_555 1_555
O9_9 H26 1_555 1_555
In9_3 O26_7 1_555 1_555
O9_10 In9_3 1_555 1_555
O19_9 In9_3 1_555 1_555
O22_9 In9_3 1_555 1_555
O9_10 H26_2 1_555 1_555
In9_4 O26_8 1_555 1_555
O9_11 In9_4 1_555 1_555
O23_9 In9_4 1_555 1_555
O9_11 H25_2 1_555 1_555
In8_4 O3_4 1_555 1_555
In4 O5_4 1_555 1_555
O17 C1_4 1_555 1_555
O19_2 C1_4 1_555 1_555
O4_4 C8_4 1_555 1_555
O5_4 C15_4 1_555 1_555
O24 C15_4 1_555 1_555
O8_4 In4 1_555 1_555
C1_4 C2_4 1_555 1_555
C2_4 C3_4 1_555 1_555
C3_4 H1_4 1_555 1_555
C4_4 C3_4 1_555 1_555
H2_4 C4_4 1_555 1_555
C5_4 C4_4 1_555 1_555
C6_4 C5_4 1_555 1_555
H3_4 C6_4 1_555 1_555
C7_4 C2_4 1_555 1_555
H4_4 C7_4 1_555 1_555
C8_4 C9_4 1_555 1_555
C9_4 C10_4 1_555 1_555
C10_4 H5_4 1_555 1_555
C11_4 C10_4 1_555 1_555
H6_4 C11_4 1_555 1_555
C12_4 C11_4 1_555 1_555
C13_4 C12_4 1_555 1_555
H7_4 C13_4 1_555 1_555
C14_4 C9_4 1_555 1_555
H8_4 C14_4 1_555 1_555
C15_4 C16_4 1_555 1_555
C16_4 C17_4 1_555 1_555
C17_4 H9_4 1_555 1_555
C18_4 C5_4 1_555 1_555
C19_4 C18_4 1_555 1_555
H10_4 C19_4 1_555 1_555
C20_4 C12_4 1_555 1_555
C21_4 C16_4 1_555 1_555
H11_4 C21_4 1_555 1_555
In5 O14_7 1_555 1_555
O18 C22_7 1_555 1_555
O13_7 C29_7 1_555 1_555
O14_7 C36_7 1_555 1_555
O25_2 C36_7 1_555 1_555
O16_7 In5 1_555 1_555
C22_7 O19 1_555 1_555
C23_7 C22_7 1_555 1_555
C24_7 C23_7 1_555 1_555
H12_7 C24_7 1_555 1_555
C25_7 C24_7 1_555 1_555
H13_7 C25_7 1_555 1_555
C26_7 C25_7 1_555 1_555
C27_7 C26_7 1_555 1_555
H14_7 C27_7 1_555 1_555
C28_7 C23_7 1_555 1_555
H15_7 C28_7 1_555 1_555
C29_7 C30_7 1_555 1_555
C30_7 C31_7 1_555 1_555
C31_7 H16_7 1_555 1_555
C32_7 C31_7 1_555 1_555
H17_7 C32_7 1_555 1_555
C33_7 C32_7 1_555 1_555
C34_7 C33_7 1_555 1_555
H18_7 C34_7 1_555 1_555
C35_7 C30_7 1_555 1_555
H19_7 C35_7 1_555 1_555
C36_7 C37_7 1_555 1_555
C37_7 C38_7 1_555 1_555
C38_7 H20_7 1_555 1_555
C39_7 C26_7 1_555 1_555
C40_7 C39_7 1_555 1_555
H21_7 C40_7 1_555 1_555
C41_7 C33_7 1_555 1_555
C42_7 C37_7 1_555 1_555
H22_7 C42_7 1_555 1_555
In10_4 O13_7 1_555 1_555
In10_5 O4_4 1_555 1_555
O20_4 In4 1_555 1_555
O21_7 In5 1_555 1_555
C6_4 C7_4 1_555 1_555
C13_4 C14_4 1_555 1_555
C17_4 C18_4 1_555 1_555
C19_4 C20_4 1_555 1_555
C20_4 C21_4 1_555 1_555
C27_7 C28_7 1_555 1_555
C34_7 C35_7 1_555 1_555
C38_7 C39_7 1_555 1_555
C40_7 C41_7 1_555 1_555
C41_7 C42_7 1_555 1_555
O8_4 H23_4 1_555 1_555
O8_4 H24_4 1_555 1_555
O16_7 H27_7 1_555 1_555
O16_7 H28_7 1_555 1_555
In7_7 O12_7 1_555 1_555
In6 O14_8 1_555 1_555
O17_2 C22_8 1_555 1_555
O12_8 C29_8 1_555 1_555
O13_8 C29_8 1_555 1_555
O14_8 C36_8 1_555 1_555
O25 C36_8 1_555 1_555
O16_8 In6 1_555 1_555
C22_8 O19_3 1_555 1_555
C23_8 C22_8 1_555 1_555
C24_8 C23_8 1_555 1_555
H12_8 C24_8 1_555 1_555
C25_8 C24_8 1_555 1_555
H13_8 C25_8 1_555 1_555
C26_8 C25_8 1_555 1_555
C27_8 C26_8 1_555 1_555
H14_8 C27_8 1_555 1_555
C28_8 C23_8 1_555 1_555
H15_8 C28_8 1_555 1_555
C29_8 C30_8 1_555 1_555
C30_8 C31_8 1_555 1_555
C31_8 H16_8 1_555 1_555
C32_8 C31_8 1_555 1_555
H17_8 C32_8 1_555 1_555
C33_8 C32_8 1_555 1_555
C34_8 C33_8 1_555 1_555
H18_8 C34_8 1_555 1_555
C35_8 C30_8 1_555 1_555
H19_8 C35_8 1_555 1_555
C36_8 C37_8 1_555 1_555
C37_8 C38_8 1_555 1_555
C38_8 H20_8 1_555 1_555
C39_8 C26_8 1_555 1_555
C40_8 C39_8 1_555 1_555
H21_8 C40_8 1_555 1_555
C41_8 C33_8 1_555 1_555
C42_8 C37_8 1_555 1_555
H22_8 C42_8 1_555 1_555
In7_8 O12_8 1_555 1_555
In11_3 O13_8 1_555 1_555
O21_8 In6 1_555 1_555
C27_8 C28_8 1_555 1_555
C34_8 C35_8 1_555 1_555
C38_8 C39_8 1_555 1_555
C40_8 C41_8 1_555 1_555
C41_8 C42_8 1_555 1_555
O16_8 H27_8 1_555 1_555
O16_8 H28_8 1_555 1_555
In8_5 O3_5 1_555 1_555
In4_2 O5_5 1_555 1_555
O17_3 C1_5 1_555 1_555
O19_5 C1_5 1_555 1_555
O5_5 C15_5 1_555 1_555
O24_2 C15_5 1_555 1_555
O8_5 In4_2 1_555 1_555
C1_5 C2_5 1_555 1_555
C2_5 C3_5 1_555 1_555
C3_5 H1_5 1_555 1_555
C4_5 C3_5 1_555 1_555
H2_5 C4_5 1_555 1_555
C5_5 C4_5 1_555 1_555
C6_5 C5_5 1_555 1_555
H3_5 C6_5 1_555 1_555
C7_5 C2_5 1_555 1_555
H4_5 C7_5 1_555 1_555
H6_5 C11_5 1_555 1_555
C12_5 C11_5 1_555 1_555
C15_5 C16_5 1_555 1_555
C16_5 C17_5 1_555 1_555
C17_5 H9_5 1_555 1_555
C18_5 C5_5 1_555 1_555
C19_5 C18_5 1_555 1_555
H10_5 C19_5 1_555 1_555
C20_5 C12_5 1_555 1_555
C21_5 C16_5 1_555 1_555
H11_5 C21_5 1_555 1_555
In5_2 O14_9 1_555 1_555
O18_2 C22_9 1_555 1_555
O14_9 C36_9 1_555 1_555
O25_4 C36_9 1_555 1_555
O16_9 In5_2 1_555 1_555
C22_9 O19_4 1_555 1_555
C23_9 C22_9 1_555 1_555
C24_9 C23_9 1_555 1_555
H12_9 C24_9 1_555 1_555
C25_9 C24_9 1_555 1_555
H13_9 C25_9 1_555 1_555
C26_9 C25_9 1_555 1_555
C27_9 C26_9 1_555 1_555
H14_9 C27_9 1_555 1_555
C28_9 C23_9 1_555 1_555
H15_9 C28_9 1_555 1_555
H17_9 C32_9 1_555 1_555
C33_9 C32_9 1_555 1_555
C36_9 C37_9 1_555 1_555
C37_9 C38_9 1_555 1_555
C38_9 H20_9 1_555 1_555
C39_9 C26_9 1_555 1_555
C40_9 C39_9 1_555 1_555
H21_9 C40_9 1_555 1_555
C41_9 C33_9 1_555 1_555
C42_9 C37_9 1_555 1_555
H22_9 C42_9 1_555 1_555
O20_5 In4_2 1_555 1_555
O21_9 In5_2 1_555 1_555
C6_5 C7_5 1_555 1_555
C17_5 C18_5 1_555 1_555
C19_5 C20_5 1_555 1_555
C20_5 C21_5 1_555 1_555
C27_9 C28_9 1_555 1_555
C38_9 C39_9 1_555 1_555
C40_9 C41_9 1_555 1_555
C41_9 C42_9 1_555 1_555
O8_5 H23_5 1_555 1_555
O8_5 H24_5 1_555 1_555
O16_9 H27_9 1_555 1_555
O16_9 H28_9 1_555 1_555
O4_5 C8_5 1_555 1_555
C8_5 C9_5 1_555 1_555
C9_5 C10_5 1_555 1_555
C10_5 H5_5 1_555 1_555
H7_5 C13_5 1_555 1_555
C14_5 C9_5 1_555 1_555
H8_5 C14_5 1_555 1_555
O13_9 C29_9 1_555 1_555
C29_9 C30_9 1_555 1_555
C30_9 C31_9 1_555 1_555
C31_9 H16_9 1_555 1_555
H18_9 C34_9 1_555 1_555
C35_9 C30_9 1_555 1_555
H19_9 C35_9 1_555 1_555
In10_6 O13_9 1_555 1_555
In11_4 O4_5 1_555 1_555
C13_5 C14_5 1_555 1_555
C34_9 C35_9 1_555 1_555
In7_9 O12_9 1_555 1_555
In6_2 O14_10 1_555 1_555
O17_4 C22_10 1_555 1_555
O14_10 C36_10 1_555 1_555
O25_3 C36_10 1_555 1_555
O16_10 In6_2 1_555 1_555
C22_10 O19_6 1_555 1_555
C23_10 C22_10 1_555 1_555
C24_10 C23_10 1_555 1_555
H12_10 C24_10 1_555 1_555
C25_10 C24_10 1_555 1_555
H13_10 C25_10 1_555 1_555
C26_10 C25_10 1_555 1_555
C27_10 C26_10 1_555 1_555
H14_10 C27_10 1_555 1_555
C28_10 C23_10 1_555 1_555
H15_10 C28_10 1_555 1_555
H17_10 C32_10 1_555 1_555
C33_10 C32_10 1_555 1_555
C36_10 C37_10 1_555 1_555
C37_10 C38_10 1_555 1_555
C38_10 H20_10 1_555 1_555
C39_10 C26_10 1_555 1_555
C40_10 C39_10 1_555 1_555
H21_10 C40_10 1_555 1_555
C41_10 C33_10 1_555 1_555
C42_10 C37_10 1_555 1_555
H22_10 C42_10 1_555 1_555
O21_10 In6_2 1_555 1_555
C27_10 C28_10 1_555 1_555
C38_10 C39_10 1_555 1_555
C40_10 C41_10 1_555 1_555
C41_10 C42_10 1_555 1_555
O16_10 H27_10 1_555 1_555
O16_10 H28_10 1_555 1_555
O12_10 C29_10 1_555 1_555
O13_10 C29_10 1_555 1_555
C29_10 C30_10 1_555 1_555
C30_10 C31_10 1_555 1_555
C31_10 H16_10 1_555 1_555
H18_10 C34_10 1_555 1_555
C35_10 C30_10 1_555 1_555
H19_10 C35_10 1_555 1_555
In7_10 O12_10 1_555 1_555
In10_7 O13_10 1_555 1_555
C34_10 C35_10 1_555 1_555
In4_3 O5_6 1_555 1_555
O17_5 C1_6 1_555 1_555
O19_8 C1_6 1_555 1_555
O3_6 C8_6 1_555 1_555
O4_6 C8_6 1_555 1_555
O5_6 C15_6 1_555 1_555
O24_3 C15_6 1_555 1_555
O8_6 In4_3 1_555 1_555
C1_6 C2_6 1_555 1_555
C2_6 C3_6 1_555 1_555
C3_6 H1_6 1_555 1_555
C4_6 C3_6 1_555 1_555
H2_6 C4_6 1_555 1_555
C5_6 C4_6 1_555 1_555
C6_6 C5_6 1_555 1_555
H3_6 C6_6 1_555 1_555
C7_6 C2_6 1_555 1_555
H4_6 C7_6 1_555 1_555
C8_6 C9_6 1_555 1_555
C9_6 C10_6 1_555 1_555
C10_6 H5_6 1_555 1_555
C11_6 C10_6 1_555 1_555
H6_6 C11_6 1_555 1_555
C12_6 C11_6 1_555 1_555
C13_6 C12_6 1_555 1_555
H7_6 C13_6 1_555 1_555
C14_6 C9_6 1_555 1_555
H8_6 C14_6 1_555 1_555
C15_6 C16_6 1_555 1_555
C16_6 C17_6 1_555 1_555
C17_6 H9_6 1_555 1_555
C18_6 C5_6 1_555 1_555
C19_6 C18_6 1_555 1_555
H10_6 C19_6 1_555 1_555
C20_6 C12_6 1_555 1_555
C21_6 C16_6 1_555 1_555
H11_6 C21_6 1_555 1_555
O18_3 C22_11 1_555 1_555
O25_6 C36_11 1_555 1_555
C22_11 O19_7 1_555 1_555
C23_11 C22_11 1_555 1_555
C24_11 C23_11 1_555 1_555
H12_11 C24_11 1_555 1_555
C25_11 C24_11 1_555 1_555
H13_11 C25_11 1_555 1_555
C26_11 C25_11 1_555 1_555
C27_11 C26_11 1_555 1_555
H14_11 C27_11 1_555 1_555
C28_11 C23_11 1_555 1_555
H15_11 C28_11 1_555 1_555
C34_11 C33_11 1_555 1_555
H18_11 C34_11 1_555 1_555
H19_11 C35_11 1_555 1_555
C36_11 C37_11 1_555 1_555
C37_11 C38_11 1_555 1_555
C38_11 H20_11 1_555 1_555
C39_11 C26_11 1_555 1_555
C40_11 C39_11 1_555 1_555
H21_11 C40_11 1_555 1_555
C41_11 C33_11 1_555 1_555
C42_11 C37_11 1_555 1_555
H22_11 C42_11 1_555 1_555
In8_6 O3_6 1_555 1_555
In10_6 O13_11 1_555 1_555
In10_7 O4_6 1_555 1_555
O20_6 In4_3 1_555 1_555
C6_6 C7_6 1_555 1_555
C13_6 C14_6 1_555 1_555
C17_6 C18_6 1_555 1_555
C19_6 C20_6 1_555 1_555
C20_6 C21_6 1_555 1_555
C27_11 C28_11 1_555 1_555
C34_11 C35_11 1_555 1_555
C38_11 C39_11 1_555 1_555
C40_11 C41_11 1_555 1_555
C41_11 C42_11 1_555 1_555
O8_6 H23_6 1_555 1_555
O8_6 H24_6 1_555 1_555
In5_3 O14_11 1_555 1_555
O12_11 C29_11 1_555 1_555
O16_11 In5_3 1_555 1_555
C29_11 C30_11 1_555 1_555
C30_11 C31_11 1_555 1_555
C31_11 H16_11 1_555 1_555
C32_11 C31_11 1_555 1_555
H17_11 C32_11 1_555 1_555
In7_11 O12_11 1_555 1_555
O21_11 In5_3 1_555 1_555
O16_11 H27_11 1_555 1_555
O16_11 H28_11 1_555 1_555
In6_3 O14_12 1_555 1_555
O12_12 C29_12 1_555 1_555
O16_12 In6_3 1_555 1_555
C29_12 C30_12 1_555 1_555
C30_12 C31_12 1_555 1_555
C31_12 H16_12 1_555 1_555
C32_12 C31_12 1_555 1_555
H17_12 C32_12 1_555 1_555
In7_12 O12_12 1_555 1_555
O21_12 In6_3 1_555 1_555
O16_12 H27_12 1_555 1_555
O16_12 H28_12 1_555 1_555
O17_6 C22_12 1_555 1_555
O25_5 C36_12 1_555 1_555
C22_12 O19_9 1_555 1_555
C23_12 C22_12 1_555 1_555
C24_12 C23_12 1_555 1_555
H12_12 C24_12 1_555 1_555
C25_12 C24_12 1_555 1_555
H13_12 C25_12 1_555 1_555
C26_12 C25_12 1_555 1_555
C27_12 C26_12 1_555 1_555
H14_12 C27_12 1_555 1_555
C28_12 C23_12 1_555 1_555
H15_12 C28_12 1_555 1_555
C34_12 C33_12 1_555 1_555
H18_12 C34_12 1_555 1_555
H19_12 C35_12 1_555 1_555
C36_12 C37_12 1_555 1_555
C37_12 C38_12 1_555 1_555
C38_12 H20_12 1_555 1_555
C39_12 C26_12 1_555 1_555
C40_12 C39_12 1_555 1_555
H21_12 C40_12 1_555 1_555
C41_12 C33_12 1_555 1_555
C42_12 C37_12 1_555 1_555
H22_12 C42_12 1_555 1_555
In11_4 O13_12 1_555 1_555
C27_12 C28_12 1_555 1_555
C34_12 C35_12 1_555 1_555
C38_12 C39_12 1_555 1_555
C40_12 C41_12 1_555 1_555
C41_12 C42_12 1_555 1_555
O9_10 H25_3 1_555 1_555
O9_11 H26_3 1_555 1_555
O9_8 H26_4 1_555 1_555
O9_9 H25_4 1_555 1_555
O9_12 In10_4 1_555 1_555
In7_6 O14_13 1_555 1_555
O10_7 C22_13 1_555 1_555
O11_7 In10_4 1_555 1_555
O20_3 C29_13 1_555 1_555
O22_7 C29_13 1_555 1_555
O14_13 C36_13 1_555 1_555
O15_7 C36_13 1_555 1_555
O16_13 In7_6 1_555 1_555
C22_13 O11_7 1_555 1_555
C23_13 C22_13 1_555 1_555
C24_13 C23_13 1_555 1_555
H12_13 C24_13 1_555 1_555
C25_13 C24_13 1_555 1_555
H13_13 C25_13 1_555 1_555
C26_13 C25_13 1_555 1_555
C27_13 C26_13 1_555 1_555
H14_13 C27_13 1_555 1_555
C28_13 C23_13 1_555 1_555
H15_13 C28_13 1_555 1_555
C29_13 C30_13 1_555 1_555
C30_13 C31_13 1_555 1_555
C31_13 H16_13 1_555 1_555
C32_13 C31_13 1_555 1_555
H17_13 C32_13 1_555 1_555
C33_13 C32_13 1_555 1_555
C34_13 C33_13 1_555 1_555
H18_13 C34_13 1_555 1_555
C35_13 C30_13 1_555 1_555
H19_13 C35_13 1_555 1_555
C36_13 C37_13 1_555 1_555
C37_13 C38_13 1_555 1_555
C38_13 H20_13 1_555 1_555
C39_13 C26_13 1_555 1_555
C40_13 C39_13 1_555 1_555
H21_13 C40_13 1_555 1_555
C41_13 C33_13 1_555 1_555
C42_13 C37_13 1_555 1_555
H22_13 C42_13 1_555 1_555
In8_4 O15_7 1_555 1_555
O17_7 In7_6 1_555 1_555
O25_7 In7_6 1_555 1_555
O26_9 In7_6 1_555 1_555
C27_13 C28_13 1_555 1_555
C34_13 C35_13 1_555 1_555
C38_13 C39_13 1_555 1_555
C40_13 C41_13 1_555 1_555
C41_13 C42_13 1_555 1_555
In8_4 O26_9 1_555 1_555
O16_13 H27_13 1_555 1_555
O16_13 H28_13 1_555 1_555
In7_5 O5_7 1_555 1_555
O21_6 C8_7 1_555 1_555
O22_9 C8_7 1_555 1_555
O5_7 C15_7 1_555 1_555
O6_4 C15_7 1_555 1_555
O7_4 In7_5 1_555 1_555
O8_7 In7_5 1_555 1_555
C8_7 C9_7 1_555 1_555
C9_7 C10_7 1_555 1_555
C10_7 H5_7 1_555 1_555
C11_7 C10_7 1_555 1_555
H6_7 C11_7 1_555 1_555
C12_7 C11_7 1_555 1_555
C13_7 C12_7 1_555 1_555
C14_7 C9_7 1_555 1_555
C15_7 C16_7 1_555 1_555
C16_7 C17_7 1_555 1_555
C17_7 H9_7 1_555 1_555
C19_7 C18_7 1_555 1_555
C20_7 C12_7 1_555 1_555
C21_7 C16_7 1_555 1_555
H11_7 C21_7 1_555 1_555
In7_7 O6_4 1_555 1_555
O18_4 In7_5 1_555 1_555
O24_4 In7_5 1_555 1_555
O7_4 In7_7 1_555 1_555
C13_7 C14_7 1_555 1_555
C17_7 C18_7 1_555 1_555
C19_7 C20_7 1_555 1_555
C20_7 C21_7 1_555 1_555
O8_7 H23_7 1_555 1_555
O8_7 H24_7 1_555 1_555
O1_4 C1_7 1_555 1_555
O2_4 C1_7 1_555 1_555
C1_7 C2_7 1_555 1_555
C2_7 C3_7 1_555 1_555
C3_7 H1_7 1_555 1_555
C4_7 C3_7 1_555 1_555
H2_7 C4_7 1_555 1_555
C5_7 C4_7 1_555 1_555
C6_7 C5_7 1_555 1_555
H3_7 C6_7 1_555 1_555
C7_7 C2_7 1_555 1_555
H4_7 C7_7 1_555 1_555
In7_8 O1_4 1_555 1_555
In11_3 O2_4 1_555 1_555
C6_7 C7_7 1_555 1_555
O9_13 In10_5 1_555 1_555
O10_8 C22_14 1_555 1_555
O11_8 In10_5 1_555 1_555
C22_14 O11_8 1_555 1_555
C23_14 C22_14 1_555 1_555
C24_14 C23_14 1_555 1_555
H12_14 C24_14 1_555 1_555
C25_14 C24_14 1_555 1_555
H13_14 C25_14 1_555 1_555
C26_14 C25_14 1_555 1_555
C27_14 C26_14 1_555 1_555
H14_14 C27_14 1_555 1_555
C28_14 C23_14 1_555 1_555
H15_14 C28_14 1_555 1_555
C27_14 C28_14 1_555 1_555
In8_3 O14_14 1_555 1_555
O21_5 C29_14 1_555 1_555
O22_8 C29_14 1_555 1_555
O14_14 C36_14 1_555 1_555
O15_8 C36_14 1_555 1_555
O16_14 In8_3 1_555 1_555
C29_14 C30_14 1_555 1_555
C30_14 C31_14 1_555 1_555
C31_14 H16_14 1_555 1_555
C32_14 C31_14 1_555 1_555
H17_14 C32_14 1_555 1_555
C33_14 C32_14 1_555 1_555
C34_14 C33_14 1_555 1_555
C35_14 C30_14 1_555 1_555
C36_14 C37_14 1_555 1_555
C37_14 C38_14 1_555 1_555
C38_14 H20_14 1_555 1_555
C40_14 C39_14 1_555 1_555
C41_14 C33_14 1_555 1_555
C42_14 C37_14 1_555 1_555
H22_14 C42_14 1_555 1_555
In7_8 O15_8 1_555 1_555
O17_8 In8_3 1_555 1_555
O25_8 In8_3 1_555 1_555
O26_10 In8_3 1_555 1_555
C34_14 C35_14 1_555 1_555
C38_14 C39_14 1_555 1_555
C40_14 C41_14 1_555 1_555
C41_14 C42_14 1_555 1_555
In7_8 O26_10 1_555 1_555
O16_14 H27_14 1_555 1_555
O16_14 H28_14 1_555 1_555
In11_3 O26_10 1_555 1_555
O9_14 In11_3 1_555 1_555
O19_12 In11_3 1_555 1_555
O9_15 In10_6 1_555 1_555
In7_12 O14_15 1_555 1_555
O10_9 C22_15 1_555 1_555
O11_9 In10_6 1_555 1_555
O20_6 C29_15 1_555 1_555
O23_7 C29_15 1_555 1_555
O14_15 C36_15 1_555 1_555
O15_9 C36_15 1_555 1_555
O16_15 In7_12 1_555 1_555
C22_15 O11_9 1_555 1_555
C23_15 C22_15 1_555 1_555
C24_15 C23_15 1_555 1_555
H12_15 C24_15 1_555 1_555
C25_15 C24_15 1_555 1_555
H13_15 C25_15 1_555 1_555
C26_15 C25_15 1_555 1_555
C27_15 C26_15 1_555 1_555
H14_15 C27_15 1_555 1_555
C28_15 C23_15 1_555 1_555
H15_15 C28_15 1_555 1_555
C29_15 C30_15 1_555 1_555
C30_15 C31_15 1_555 1_555
C31_15 H16_15 1_555 1_555
C32_15 C31_15 1_555 1_555
H17_15 C32_15 1_555 1_555
C33_15 C32_15 1_555 1_555
C34_15 C33_15 1_555 1_555
H18_15 C34_15 1_555 1_555
C35_15 C30_15 1_555 1_555
H19_15 C35_15 1_555 1_555
C36_15 C37_15 1_555 1_555
C37_15 C38_15 1_555 1_555
C38_15 H20_15 1_555 1_555
C39_15 C26_15 1_555 1_555
C40_15 C39_15 1_555 1_555
H21_15 C40_15 1_555 1_555
C41_15 C33_15 1_555 1_555
C42_15 C37_15 1_555 1_555
H22_15 C42_15 1_555 1_555
In8_5 O15_9 1_555 1_555
O17_9 In7_12 1_555 1_555
O25_9 In7_12 1_555 1_555
O26_11 In7_12 1_555 1_555
C27_15 C28_15 1_555 1_555
C34_15 C35_15 1_555 1_555
C38_15 C39_15 1_555 1_555
C40_15 C41_15 1_555 1_555
C41_15 C42_15 1_555 1_555
In8_5 O26_11 1_555 1_555
O16_15 H27_15 1_555 1_555
O16_15 H28_15 1_555 1_555
In7_11 O5_8 1_555 1_555
O21_12 C8_8 1_555 1_555
O23_8 C8_8 1_555 1_555
O5_8 C15_8 1_555 1_555
O6_5 C15_8 1_555 1_555
O7_5 In7_11 1_555 1_555
O8_8 In7_11 1_555 1_555
C8_8 C9_8 1_555 1_555
C9_8 C10_8 1_555 1_555
C10_8 H5_8 1_555 1_555
C11_8 C10_8 1_555 1_555
H6_8 C11_8 1_555 1_555
C12_8 C11_8 1_555 1_555
C13_8 C12_8 1_555 1_555
C14_8 C9_8 1_555 1_555
C15_8 C16_8 1_555 1_555
C16_8 C17_8 1_555 1_555
C17_8 H9_8 1_555 1_555
C19_8 C18_8 1_555 1_555
C20_8 C12_8 1_555 1_555
C21_8 C16_8 1_555 1_555
H11_8 C21_8 1_555 1_555
In7_9 O6_5 1_555 1_555
O18_5 In7_11 1_555 1_555
O24_5 In7_11 1_555 1_555
O7_5 In7_9 1_555 1_555
C13_8 C14_8 1_555 1_555
C17_8 C18_8 1_555 1_555
C19_8 C20_8 1_555 1_555
C20_8 C21_8 1_555 1_555
O8_8 H23_8 1_555 1_555
O8_8 H24_8 1_555 1_555
O1_5 C1_8 1_555 1_555
O2_5 C1_8 1_555 1_555
C1_8 C2_8 1_555 1_555
C2_8 C3_8 1_555 1_555
C3_8 H1_8 1_555 1_555
C4_8 C3_8 1_555 1_555
H2_8 C4_8 1_555 1_555
C5_8 C4_8 1_555 1_555
C6_8 C5_8 1_555 1_555
H3_8 C6_8 1_555 1_555
C7_8 C2_8 1_555 1_555
H4_8 C7_8 1_555 1_555
In7_10 O1_5 1_555 1_555
In10_7 O2_5 1_555 1_555
C6_8 C7_8 1_555 1_555
O9_16 In11_4 1_555 1_555
O10_10 C22_16 1_555 1_555
O11_10 In11_4 1_555 1_555
C22_16 O11_10 1_555 1_555
C23_16 C22_16 1_555 1_555
C24_16 C23_16 1_555 1_555
H12_16 C24_16 1_555 1_555
C25_16 C24_16 1_555 1_555
H13_16 C25_16 1_555 1_555
C26_16 C25_16 1_555 1_555
C27_16 C26_16 1_555 1_555
H14_16 C27_16 1_555 1_555
C28_16 C23_16 1_555 1_555
H15_16 C28_16 1_555 1_555
C27_16 C28_16 1_555 1_555
In8_6 O14_16 1_555 1_555
O21_11 C29_16 1_555 1_555
O23_9 C29_16 1_555 1_555
O14_16 C36_16 1_555 1_555
O15_10 C36_16 1_555 1_555
O16_16 In8_6 1_555 1_555
C29_16 C30_16 1_555 1_555
C30_16 C31_16 1_555 1_555
C31_16 H16_16 1_555 1_555
C32_16 C31_16 1_555 1_555
H17_16 C32_16 1_555 1_555
C33_16 C32_16 1_555 1_555
C34_16 C33_16 1_555 1_555
C35_16 C30_16 1_555 1_555
C36_16 C37_16 1_555 1_555
C37_16 C38_16 1_555 1_555
C38_16 H20_16 1_555 1_555
C40_16 C39_16 1_555 1_555
C41_16 C33_16 1_555 1_555
C42_16 C37_16 1_555 1_555
H22_16 C42_16 1_555 1_555
In7_10 O15_10 1_555 1_555
O17_10 In8_6 1_555 1_555
O25_10 In8_6 1_555 1_555
O26_12 In8_6 1_555 1_555
C34_16 C35_16 1_555 1_555
C38_16 C39_16 1_555 1_555
C40_16 C41_16 1_555 1_555
C41_16 C42_16 1_555 1_555
In7_10 O26_12 1_555 1_555
O16_16 H27_16 1_555 1_555
O16_16 H28_16 1_555 1_555
In10_7 O26_12 1_555 1_555
O9_17 In10_7 1_555 1_555
O19_15 In10_7 1_555 1_555
In7_2 O14_17 1_555 1_555
O20 C29_17 1_555 1_555
O16_17 In7_2 1_555 1_555
C29_17 C30_17 1_555 1_555
C30_17 C31_17 1_555 1_555
C31_17 H16_17 1_555 1_555
C32_17 C31_17 1_555 1_555
H17_17 C32_17 1_555 1_555
O17_11 In7_2 1_555 1_555
O25_11 In7_2 1_555 1_555
O26_13 In7_2 1_555 1_555
O16_17 H27_17 1_555 1_555
O16_17 H28_17 1_555 1_555
In7 O5_9 1_555 1_555
In10 O7_6 1_555 1_555
O1_6 C1_9 1_555 1_555
O2_6 C1_9 1_555 1_555
O21_2 C8_9 1_555 1_555
O22_3 C8_9 1_555 1_555
O5_9 C15_9 1_555 1_555
O6_6 C15_9 1_555 1_555
O7_6 In7 1_555 1_555
O8_9 In7 1_555 1_555
O9_18 In10 1_555 1_555
C1_9 C2_9 1_555 1_555
C2_9 C3_9 1_555 1_555
C3_9 H1_9 1_555 1_555
C4_9 C3_9 1_555 1_555
H2_9 C4_9 1_555 1_555
C5_9 C4_9 1_555 1_555
C6_9 C5_9 1_555 1_555
H3_9 C6_9 1_555 1_555
C7_9 C2_9 1_555 1_555
H4_9 C7_9 1_555 1_555
C8_9 C9_9 1_555 1_555
C9_9 C10_9 1_555 1_555
C10_9 H5_9 1_555 1_555
C11_9 C10_9 1_555 1_555
H6_9 C11_9 1_555 1_555
C12_9 C11_9 1_555 1_555
C13_9 C12_9 1_555 1_555
H7_9 C13_9 1_555 1_555
C14_9 C9_9 1_555 1_555
H8_9 C14_9 1_555 1_555
C15_9 C16_9 1_555 1_555
C16_9 C17_9 1_555 1_555
C17_9 H9_9 1_555 1_555
C18_9 C5_9 1_555 1_555
C19_9 C18_9 1_555 1_555
H10_9 C19_9 1_555 1_555
C20_9 C12_9 1_555 1_555
C21_9 C16_9 1_555 1_555
H11_9 C21_9 1_555 1_555
O10_11 C22_17 1_555 1_555
O11_11 In10 1_555 1_555
O15_11 C36_17 1_555 1_555
C22_17 O11_11 1_555 1_555
C23_17 C22_17 1_555 1_555
C24_17 C23_17 1_555 1_555
H12_17 C24_17 1_555 1_555
C25_17 C24_17 1_555 1_555
H13_17 C25_17 1_555 1_555
C26_17 C25_17 1_555 1_555
C27_17 C26_17 1_555 1_555
H14_17 C27_17 1_555 1_555
C28_17 C23_17 1_555 1_555
H15_17 C28_17 1_555 1_555
C34_17 C33_17 1_555 1_555
H18_17 C34_17 1_555 1_555
H19_17 C35_17 1_555 1_555
C36_17 C37_17 1_555 1_555
C37_17 C38_17 1_555 1_555
C38_17 H20_17 1_555 1_555
C39_17 C26_17 1_555 1_555
C40_17 C39_17 1_555 1_555
H21_17 C40_17 1_555 1_555
C41_17 C33_17 1_555 1_555
C42_17 C37_17 1_555 1_555
H22_17 C42_17 1_555 1_555
In7_3 O6_6 1_555 1_555
In7_4 O1_6 1_555 1_555
In8_2 O15_11 1_555 1_555
In11 O2_6 1_555 1_555
O18_6 In7 1_555 1_555
O19_16 In10 1_555 1_555
O24_6 In7 1_555 1_555
O7_6 In7_3 1_555 1_555
C6_9 C7_9 1_555 1_555
C13_9 C14_9 1_555 1_555
C17_9 C18_9 1_555 1_555
C19_9 C20_9 1_555 1_555
C20_9 C21_9 1_555 1_555
O10_11 In7_3 1_555 1_555
C27_17 C28_17 1_555 1_555
C34_17 C35_17 1_555 1_555
C38_17 C39_17 1_555 1_555
C40_17 C41_17 1_555 1_555
C41_17 C42_17 1_555 1_555
In8_2 O26_14 1_555 1_555
O8_9 H23_9 1_555 1_555
O8_9 H24_9 1_555 1_555
In10_2 O26_13 1_555 1_555
O9_19 In10_2 1_555 1_555
O19_17 In10_2 1_555 1_555
O9_19 H26_5 1_555 1_555
In10_3 O26_14 1_555 1_555
O9_20 In10_3 1_555 1_555
O10_12 C22_18 1_555 1_555
O11_12 In10_3 1_555 1_555
O15_12 C36_18 1_555 1_555
C22_18 O11_12 1_555 1_555
C23_18 C22_18 1_555 1_555
C24_18 C23_18 1_555 1_555
H12_18 C24_18 1_555 1_555
C25_18 C24_18 1_555 1_555
H13_18 C25_18 1_555 1_555
C26_18 C25_18 1_555 1_555
C27_18 C26_18 1_555 1_555
H14_18 C27_18 1_555 1_555
C28_18 C23_18 1_555 1_555
H15_18 C28_18 1_555 1_555
C34_18 C33_18 1_555 1_555
H18_18 C34_18 1_555 1_555
H19_18 C35_18 1_555 1_555
C36_18 C37_18 1_555 1_555
C37_18 C38_18 1_555 1_555
C38_18 H20_18 1_555 1_555
C39_18 C26_18 1_555 1_555
C40_18 C39_18 1_555 1_555
H21_18 C40_18 1_555 1_555
C41_18 C33_18 1_555 1_555
C42_18 C37_18 1_555 1_555
H22_18 C42_18 1_555 1_555
In7_4 O15_12 1_555 1_555
O10_12 In8_2 1_555 1_555
C27_18 C28_18 1_555 1_555
C34_18 C35_18 1_555 1_555
C38_18 C39_18 1_555 1_555
C40_18 C41_18 1_555 1_555
C41_18 C42_18 1_555 1_555
In7_4 O26_15 1_555 1_555
O9_20 H25_5 1_555 1_555
In8 O14_18 1_555 1_555
O21 C29_18 1_555 1_555
O16_18 In8 1_555 1_555
C29_18 C30_18 1_555 1_555
C30_18 C31_18 1_555 1_555
C31_18 H16_18 1_555 1_555
C32_18 C31_18 1_555 1_555
H17_18 C32_18 1_555 1_555
O17_12 In8 1_555 1_555
O25_12 In8 1_555 1_555
O26_16 In8 1_555 1_555
O16_18 H27_18 1_555 1_555
O16_18 H28_18 1_555 1_555
In11 O26_15 1_555 1_555
O9_21 In11 1_555 1_555
O9_21 H25_6 1_555 1_555
In11_2 O26_16 1_555 1_555
O9_22 In11_2 1_555 1_555
O19_18 In11_2 1_555 1_555
O9_22 H26_6 1_555 1_555
In7_7 O5_10 1_555 1_555
O17_7 C1_10 1_555 1_555
O19_11 C1_10 1_555 1_555
O23_2 C8_10 1_555 1_555
O5_10 C15_10 1_555 1_555
O24_4 C15_10 1_555 1_555
O8_10 In7_7 1_555 1_555
C1_10 C2_10 1_555 1_555
C2_10 C3_10 1_555 1_555
C3_10 H1_10 1_555 1_555
C4_10 C3_10 1_555 1_555
H2_10 C4_10 1_555 1_555
C5_10 C4_10 1_555 1_555
C6_10 C5_10 1_555 1_555
H3_10 C6_10 1_555 1_555
C7_10 C2_10 1_555 1_555
H4_10 C7_10 1_555 1_555
C8_10 C9_10 1_555 1_555
C9_10 C10_10 1_555 1_555
C10_10 H5_10 1_555 1_555
C11_10 C10_10 1_555 1_555
H6_10 C11_10 1_555 1_555
C12_10 C11_10 1_555 1_555
C13_10 C12_10 1_555 1_555
H7_10 C13_10 1_555 1_555
C14_10 C9_10 1_555 1_555
H8_10 C14_10 1_555 1_555
C15_10 C16_10 1_555 1_555
C16_10 C17_10 1_555 1_555
C17_10 H9_10 1_555 1_555
C18_10 C5_10 1_555 1_555
C19_10 C18_10 1_555 1_555
H10_10 C19_10 1_555 1_555
C20_10 C12_10 1_555 1_555
C21_10 C16_10 1_555 1_555
H11_10 C21_10 1_555 1_555
In7_8 O14_19 1_555 1_555
O18_4 C22_19 1_555 1_555
O23 C29_19 1_555 1_555
O14_19 C36_19 1_555 1_555
O25_8 C36_19 1_555 1_555
O16_19 In7_8 1_555 1_555
C22_19 O19_10 1_555 1_555
C23_19 C22_19 1_555 1_555
C24_19 C23_19 1_555 1_555
H12_19 C24_19 1_555 1_555
C25_19 C24_19 1_555 1_555
H13_19 C25_19 1_555 1_555
C26_19 C25_19 1_555 1_555
C27_19 C26_19 1_555 1_555
H14_19 C27_19 1_555 1_555
C28_19 C23_19 1_555 1_555
H15_19 C28_19 1_555 1_555
C29_19 C30_19 1_555 1_555
C30_19 C31_19 1_555 1_555
C31_19 H16_19 1_555 1_555
C32_19 C31_19 1_555 1_555
H17_19 C32_19 1_555 1_555
C33_19 C32_19 1_555 1_555
C34_19 C33_19 1_555 1_555
H18_19 C34_19 1_555 1_555
C35_19 C30_19 1_555 1_555
H19_19 C35_19 1_555 1_555
C36_19 C37_19 1_555 1_555
C37_19 C38_19 1_555 1_555
C38_19 H20_19 1_555 1_555
C39_19 C26_19 1_555 1_555
C40_19 C39_19 1_555 1_555
H21_19 C40_19 1_555 1_555
C41_19 C33_19 1_555 1_555
C42_19 C37_19 1_555 1_555
H22_19 C42_19 1_555 1_555
C6_10 C7_10 1_555 1_555
C13_10 C14_10 1_555 1_555
C17_10 C18_10 1_555 1_555
C19_10 C20_10 1_555 1_555
C20_10 C21_10 1_555 1_555
C27_19 C28_19 1_555 1_555
C34_19 C35_19 1_555 1_555
C38_19 C39_19 1_555 1_555
C40_19 C41_19 1_555 1_555
C41_19 C42_19 1_555 1_555
O8_10 H23_10 1_555 1_555
O8_10 H24_10 1_555 1_555
O16_19 H27_19 1_555 1_555
O16_19 H28_19 1_555 1_555
In8_4 O14_20 1_555 1_555
O17_8 C22_20 1_555 1_555
O21_7 C29_20 1_555 1_555
O23_3 C29_20 1_555 1_555
O14_20 C36_20 1_555 1_555
O25_7 C36_20 1_555 1_555
O16_20 In8_4 1_555 1_555
C22_20 O19_12 1_555 1_555
C23_20 C22_20 1_555 1_555
C24_20 C23_20 1_555 1_555
H12_20 C24_20 1_555 1_555
C25_20 C24_20 1_555 1_555
H13_20 C25_20 1_555 1_555
C26_20 C25_20 1_555 1_555
C27_20 C26_20 1_555 1_555
H14_20 C27_20 1_555 1_555
C28_20 C23_20 1_555 1_555
H15_20 C28_20 1_555 1_555
C29_20 C30_20 1_555 1_555
C30_20 C31_20 1_555 1_555
C31_20 H16_20 1_555 1_555
C32_20 C31_20 1_555 1_555
H17_20 C32_20 1_555 1_555
C33_20 C32_20 1_555 1_555
C34_20 C33_20 1_555 1_555
H18_20 C34_20 1_555 1_555
C35_20 C30_20 1_555 1_555
H19_20 C35_20 1_555 1_555
C36_20 C37_20 1_555 1_555
C37_20 C38_20 1_555 1_555
C38_20 H20_20 1_555 1_555
C39_20 C26_20 1_555 1_555
C40_20 C39_20 1_555 1_555
H21_20 C40_20 1_555 1_555
C41_20 C33_20 1_555 1_555
C42_20 C37_20 1_555 1_555
H22_20 C42_20 1_555 1_555
C27_20 C28_20 1_555 1_555
C34_20 C35_20 1_555 1_555
C38_20 C39_20 1_555 1_555
C40_20 C41_20 1_555 1_555
C41_20 C42_20 1_555 1_555
O16_20 H27_20 1_555 1_555
O16_20 H28_20 1_555 1_555
O23_5 C8_11 1_555 1_555
C8_11 C9_11 1_555 1_555
C9_11 C10_11 1_555 1_555
C10_11 H5_11 1_555 1_555
H7_11 C13_11 1_555 1_555
C14_11 C9_11 1_555 1_555
H8_11 C14_11 1_555 1_555
O23_4 C29_21 1_555 1_555
C29_21 C30_21 1_555 1_555
C30_21 C31_21 1_555 1_555
C31_21 H16_21 1_555 1_555
H18_21 C34_21 1_555 1_555
C35_21 C30_21 1_555 1_555
H19_21 C35_21 1_555 1_555
C13_11 C14_11 1_555 1_555
C34_21 C35_21 1_555 1_555
In7_9 O5_11 1_555 1_555
O17_9 C1_11 1_555 1_555
O19_14 C1_11 1_555 1_555
O5_11 C15_11 1_555 1_555
O24_5 C15_11 1_555 1_555
O8_11 In7_9 1_555 1_555
C1_11 C2_11 1_555 1_555
C2_11 C3_11 1_555 1_555
C3_11 H1_11 1_555 1_555
C4_11 C3_11 1_555 1_555
H2_11 C4_11 1_555 1_555
C5_11 C4_11 1_555 1_555
C6_11 C5_11 1_555 1_555
H3_11 C6_11 1_555 1_555
C7_11 C2_11 1_555 1_555
H4_11 C7_11 1_555 1_555
H6_11 C11_11 1_555 1_555
C12_11 C11_11 1_555 1_555
C15_11 C16_11 1_555 1_555
C16_11 C17_11 1_555 1_555
C17_11 H9_11 1_555 1_555
C18_11 C5_11 1_555 1_555
C19_11 C18_11 1_555 1_555
H10_11 C19_11 1_555 1_555
C20_11 C12_11 1_555 1_555
C21_11 C16_11 1_555 1_555
H11_11 C21_11 1_555 1_555
In7_10 O14_21 1_555 1_555
O18_5 C22_21 1_555 1_555
O14_21 C36_21 1_555 1_555
O25_10 C36_21 1_555 1_555
O16_21 In7_10 1_555 1_555
C22_21 O19_13 1_555 1_555
C23_21 C22_21 1_555 1_555
C24_21 C23_21 1_555 1_555
H12_21 C24_21 1_555 1_555
C25_21 C24_21 1_555 1_555
H13_21 C25_21 1_555 1_555
C26_21 C25_21 1_555 1_555
C27_21 C26_21 1_555 1_555
H14_21 C27_21 1_555 1_555
C28_21 C23_21 1_555 1_555
H15_21 C28_21 1_555 1_555
H17_21 C32_21 1_555 1_555
C33_21 C32_21 1_555 1_555
C36_21 C37_21 1_555 1_555
C37_21 C38_21 1_555 1_555
C38_21 H20_21 1_555 1_555
C39_21 C26_21 1_555 1_555
C40_21 C39_21 1_555 1_555
H21_21 C40_21 1_555 1_555
C41_21 C33_21 1_555 1_555
C42_21 C37_21 1_555 1_555
H22_21 C42_21 1_555 1_555
C6_11 C7_11 1_555 1_555
C17_11 C18_11 1_555 1_555
C19_11 C20_11 1_555 1_555
C20_11 C21_11 1_555 1_555
C27_21 C28_21 1_555 1_555
C38_21 C39_21 1_555 1_555
C40_21 C41_21 1_555 1_555
C41_21 C42_21 1_555 1_555
O8_11 H23_11 1_555 1_555
O8_11 H24_11 1_555 1_555
O16_21 H27_21 1_555 1_555
O16_21 H28_21 1_555 1_555
O21_9 C29_22 1_555 1_555
O23_6 C29_22 1_555 1_555
C29_22 C30_22 1_555 1_555
C30_22 C31_22 1_555 1_555
C31_22 H16_22 1_555 1_555
H18_22 C34_22 1_555 1_555
C35_22 C30_22 1_555 1_555
H19_22 C35_22 1_555 1_555
C34_22 C35_22 1_555 1_555
In8_5 O14_22 1_555 1_555
O17_10 C22_22 1_555 1_555
O14_22 C36_22 1_555 1_555
O25_9 C36_22 1_555 1_555
O16_22 In8_5 1_555 1_555
C22_22 O19_15 1_555 1_555
C23_22 C22_22 1_555 1_555
C24_22 C23_22 1_555 1_555
H12_22 C24_22 1_555 1_555
C25_22 C24_22 1_555 1_555
H13_22 C25_22 1_555 1_555
C26_22 C25_22 1_555 1_555
C27_22 C26_22 1_555 1_555
H14_22 C27_22 1_555 1_555
C28_22 C23_22 1_555 1_555
H15_22 C28_22 1_555 1_555
H17_22 C32_22 1_555 1_555
C33_22 C32_22 1_555 1_555
C36_22 C37_22 1_555 1_555
C37_22 C38_22 1_555 1_555
C38_22 H20_22 1_555 1_555
C39_22 C26_22 1_555 1_555
C40_22 C39_22 1_555 1_555
H21_22 C40_22 1_555 1_555
C41_22 C33_22 1_555 1_555
C42_22 C37_22 1_555 1_555
H22_22 C42_22 1_555 1_555
C27_22 C28_22 1_555 1_555
C38_22 C39_22 1_555 1_555
C40_22 C41_22 1_555 1_555
C41_22 C42_22 1_555 1_555
O16_22 H27_22 1_555 1_555
O16_22 H28_22 1_555 1_555
In7_4 O14_23 1_555 1_555
O20_2 C29_23 1_555 1_555
O16_23 In7_4 1_555 1_555
C29_23 C30_23 1_555 1_555
C30_23 C31_23 1_555 1_555
C31_23 H16_23 1_555 1_555
C32_23 C31_23 1_555 1_555
H17_23 C32_23 1_555 1_555
O16_23 H27_23 1_555 1_555
O16_23 H28_23 1_555 1_555
In7_3 O5_12 1_555 1_555
O17_11 C1_12 1_555 1_555
O19_17 C1_12 1_555 1_555
O21_4 C8_12 1_555 1_555
O22_6 C8_12 1_555 1_555
O5_12 C15_12 1_555 1_555
O24_6 C15_12 1_555 1_555
O8_12 In7_3 1_555 1_555
C1_12 C2_12 1_555 1_555
C2_12 C3_12 1_555 1_555
C3_12 H1_12 1_555 1_555
C4_12 C3_12 1_555 1_555
H2_12 C4_12 1_555 1_555
C5_12 C4_12 1_555 1_555
C6_12 C5_12 1_555 1_555
H3_12 C6_12 1_555 1_555
C7_12 C2_12 1_555 1_555
H4_12 C7_12 1_555 1_555
C8_12 C9_12 1_555 1_555
C9_12 C10_12 1_555 1_555
C10_12 H5_12 1_555 1_555
C11_12 C10_12 1_555 1_555
H6_12 C11_12 1_555 1_555
C12_12 C11_12 1_555 1_555
C13_12 C12_12 1_555 1_555
H7_12 C13_12 1_555 1_555
C14_12 C9_12 1_555 1_555
H8_12 C14_12 1_555 1_555
C15_12 C16_12 1_555 1_555
C16_12 C17_12 1_555 1_555
C17_12 H9_12 1_555 1_555
C18_12 C5_12 1_555 1_555
C19_12 C18_12 1_555 1_555
H10_12 C19_12 1_555 1_555
C20_12 C12_12 1_555 1_555
C21_12 C16_12 1_555 1_555
H11_12 C21_12 1_555 1_555
O18_6 C22_23 1_555 1_555
O25_12 C36_23 1_555 1_555
C22_23 O19_16 1_555 1_555
C23_23 C22_23 1_555 1_555
C24_23 C23_23 1_555 1_555
H12_23 C24_23 1_555 1_555
C25_23 C24_23 1_555 1_555
H13_23 C25_23 1_555 1_555
C26_23 C25_23 1_555 1_555
C27_23 C26_23 1_555 1_555
H14_23 C27_23 1_555 1_555
C28_23 C23_23 1_555 1_555
H15_23 C28_23 1_555 1_555
C34_23 C33_23 1_555 1_555
H18_23 C34_23 1_555 1_555
H19_23 C35_23 1_555 1_555
C36_23 C37_23 1_555 1_555
C37_23 C38_23 1_555 1_555
C38_23 H20_23 1_555 1_555
C39_23 C26_23 1_555 1_555
C40_23 C39_23 1_555 1_555
H21_23 C40_23 1_555 1_555
C41_23 C33_23 1_555 1_555
C42_23 C37_23 1_555 1_555
H22_23 C42_23 1_555 1_555
C6_12 C7_12 1_555 1_555
C13_12 C14_12 1_555 1_555
C17_12 C18_12 1_555 1_555
C19_12 C20_12 1_555 1_555
C20_12 C21_12 1_555 1_555
C27_23 C28_23 1_555 1_555
C34_23 C35_23 1_555 1_555
C38_23 C39_23 1_555 1_555
C40_23 C41_23 1_555 1_555
C41_23 C42_23 1_555 1_555
O8_12 H23_12 1_555 1_555
O8_12 H24_12 1_555 1_555
O9_21 H26_7 1_555 1_555
O17_12 C22_24 1_555 1_555
O25_11 C36_24 1_555 1_555
C22_24 O19_18 1_555 1_555
C23_24 C22_24 1_555 1_555
C24_24 C23_24 1_555 1_555
H12_24 C24_24 1_555 1_555
C25_24 C24_24 1_555 1_555
H13_24 C25_24 1_555 1_555
C26_24 C25_24 1_555 1_555
C27_24 C26_24 1_555 1_555
H14_24 C27_24 1_555 1_555
C28_24 C23_24 1_555 1_555
H15_24 C28_24 1_555 1_555
C34_24 C33_24 1_555 1_555
H18_24 C34_24 1_555 1_555
H19_24 C35_24 1_555 1_555
C36_24 C37_24 1_555 1_555
C37_24 C38_24 1_555 1_555
C38_24 H20_24 1_555 1_555
C39_24 C26_24 1_555 1_555
C40_24 C39_24 1_555 1_555
H21_24 C40_24 1_555 1_555
C41_24 C33_24 1_555 1_555
C42_24 C37_24 1_555 1_555
H22_24 C42_24 1_555 1_555
C27_24 C28_24 1_555 1_555
C34_24 C35_24 1_555 1_555
C38_24 C39_24 1_555 1_555
C40_24 C41_24 1_555 1_555
C41_24 C42_24 1_555 1_555
O9_22 H25_7 1_555 1_555
In8_2 O14_24 1_555 1_555
O21_3 C29_24 1_555 1_555
O16_24 In8_2 1_555 1_555
C29_24 C30_24 1_555 1_555
C30_24 C31_24 1_555 1_555
C31_24 H16_24 1_555 1_555
C32_24 C31_24 1_555 1_555
H17_24 C32_24 1_555 1_555
O16_24 H27_24 1_555 1_555
O16_24 H28_24 1_555 1_555
O9_19 H25_8 1_555 1_555
O9_20 H26_8 1_555 1_555

#END
