
###############################################################################
#
# This file contains modified crystal structure data generated from the
# MOF subset of the Cambridge Structural Database (CSD) v543 
# hosted by the Cambridge Crystallographic Data Centre (CCDC).
#
# This work is licensed under the Creative Commons
# Attribution-NonCommercial-ShareAlike 4.0 International License.
# To view a copy of this license, visit
# http://creativecommons.org/licenses/by-nc-sa/4.0/
# or send a letter to
# Creative Commons, PO Box 1866, Mountain View, CA 94042, USA.
#
# CIF created using the CSD Python API on 29 September 2022
# The structure has been converted into the P1 space group
# The structure has a 3D framework
# The original CSD entry WOFQEQ is in the rhombohedral crystal system
# The framework has been calculated to contain at least 10.0% void space
# The void calculation uses a probe of radius 1.32A, grid spacing 0.4
# The framework is charged, counterions have been retained in the structure
# H atom positions have been added when not included in the experimental data
# Generated hydrogen atom positions removed from atoms on special positions
#
###############################################################################

data_WOFQEQ
_chemical_formula_moiety         '(C756 H540 Al58 O288 33+)n'
_symmetry_cell_setting           triclinic
_symmetry_space_group_name_H-M   'P 1'
_symmetry_Int_Tables_number      1
_space_group_name_Hall           'P 1'
loop_
_symmetry_equiv_pos_site_id
_symmetry_equiv_pos_as_xyz
1 x,y,z
_cell_length_a                   27.3814(9)
_cell_length_b                   27.3814(9)
_cell_length_c                   71.344(5)
_cell_angle_alpha                90
_cell_angle_beta                 90
_cell_angle_gamma                120
_cell_volume                     46323.3
loop_
_atom_site_label
_atom_site_type_symbol
_atom_site_fract_x
_atom_site_fract_y
_atom_site_fract_z
O1 O 0.40352(10) 0.07019(10) 0.0833
O21 O 0.29971(8) 0.04578(11) 0.08459(3)
O24 O 0.33800(11) 0.00585(8) 0.05709(3)
O25 O 0.33918(8) 0.00467(11) 0.10958(3)
C28 C 0.69993(16) 0.00257(11) 0.95458(4)
O14 O 0.75210(10) 0.02895(7) 0.95127(2)
Al5 Al 0.66761(4) 0.00094(4) 0.9167
Al10 Al 0.79403(3) 0.07345(3) 0.930033(10)
Al1 Al 0.33239(4) 0.99906(4) 0.0833
Al2 Al 0.20597(3) 0.92655(3) 0.069967(10)
C1 C 0.09188(13) 0.66306(12) 0.03490(4)
H1 H 0.0692 0.6283 0.0286
C2 C 0.09841(13) 0.71217(12) 0.02706(4)
C3 C 0.19073(11) 0.81869(11) 0.06340(3)
C4 C 0.08388(11) 0.45271(11) 0.08097(4)
C5 C 0.15741(12) 0.76407(11) 0.05312(4)
C6 C 0.13098(12) 0.76326(12) 0.03633(4)
H2 H 0.1351 0.7972 0.0313
C11 C 0.04831(13) 0.51044(12) 0.06595(4)
H5 H 0.0120 0.4777 0.0653
C12 C 0.04620(14) 0.74094(13) 0.00468(4)
H6 H 0.0457 0.7655 0.0140
C13 C 0.14509(13) 0.55565(12) 0.07514(4)
H7 H 0.1756 0.5538 0.0808
C15 C 0.15129(12) 0.71475(11) 0.06074(4)
H9 H 0.1700 0.7160 0.0721
C16 C 0.11782(13) 0.66328(12) 0.05179(4)
C17 C 0.05654(14) 0.56096(13) 0.05888(5)
H10 H 0.0258 0.5624 0.0533
C18 C 0.09263(12) 0.50751(11) 0.07390(4)
C19 C 0.07151(13) 0.70949(11) 0.00848(4)
C20 C 0.10921(13) 0.61002(12) 0.05985(4)
C21 C 0.15330(13) 0.60631(12) 0.06825(4)
H11 H 0.1895 0.6391 0.0692
O2 O 0.19275(8) 0.86156(7) 0.05648(2)
O3 O 0.12648(8) 0.44944(7) 0.08552(2)
O4 O 0.21246(8) 0.81682(7) 0.07874(2)
O5 O 0.03362(8) 0.41273(7) 0.08208(3)
O7 O 0.14146(8) 0.91922(8) 0.05649(3)
O9 O 0.26571(9) 0.93238(9) 0.0833
Al3 Al 0.72058(4) 0.79403(3) 0.069967(10)
C22 C 0.57118(18) 0.90812(13) 0.03490(4)
H12 H 0.5591 0.9308 0.0286
C23 C 0.61376(18) 0.90159(13) 0.02706(4)
C24 C 0.62796(16) 0.80927(11) 0.06340(3)
C25 C 0.36883(16) 0.91612(11) 0.08097(4)
C26 C 0.60666(16) 0.84259(12) 0.05312(4)
C27 C 0.63228(17) 0.86902(12) 0.03633(4)
H13 H 0.6621 0.8649 0.0313
C32 C 0.46213(18) 0.95169(13) 0.06595(4)
H16 H 0.4657 0.9880 0.0653
C33 C 0.69474(19) 0.95380(14) 0.00468(4)
H17 H 0.7198 0.9543 0.0140
C34 C 0.41056(18) 0.85491(13) 0.07514(4)
H18 H 0.3782 0.8244 0.0808
C36 C 0.56346(16) 0.84871(12) 0.06074(4)
H20 H 0.5460 0.8300 0.0721
C37 C 0.54546(18) 0.88218(13) 0.05179(4)
C38 C 0.50442(19) 0.94346(14) 0.05888(5)
H21 H 0.5366 0.9742 0.0533
C39 C 0.41488(16) 0.90737(12) 0.07390(4)
C40 C 0.63798(17) 0.92849(13) 0.00848(4)
C41 C 0.50081(18) 0.89079(13) 0.05985(4)
C42 C 0.45301(18) 0.84670(13) 0.06825(4)
H22 H 0.4496 0.8105 0.0692
O10 O 0.66881(11) 0.80725(8) 0.05648(2)
O11 O 0.32296(11) 0.87352(8) 0.08552(2)
O12 O 0.60436(11) 0.78754(8) 0.07874(2)
O13 O 0.37911(11) 0.96638(8) 0.08208(3)
O15 O 0.77776(11) 0.85854(8) 0.05649(3)
Al4 Al 0.00094(4) 0.33333(6) 0.0833
Al7 Al 0.25988(3) 0.87264(3) 0.096700(10)
Al8 Al 0.61275(4) 0.74012(3) 0.096700(10)
Al9 Al 0.12736(3) 0.38725(4) 0.096700(10)
O17 O 0.78277(7) 0.79315(8) 0.08115(2)
O18 O 0.20685(8) 0.98963(11) 0.08115(2)
O19 O 0.15015(7) 0.87913(8) 0.08793(2)
O20 O 0.72897(11) 0.84985(7) 0.08793(2)
O22 O 0.72315(7) 0.75210(10) 0.04873(2)
O23 O 0.24790(10) 0.97105(7) 0.04873(2)
O26 O 0.66667(13) 0.73429(9) 0.0833
H25 H 0.107866 0.882156 0.0594136
H26 H 0.134276 0.949937 0.060316
H27 H 0.774289 0.892134 0.0594136
H28 H 0.815661 0.865724 0.060316
C8 C 0.02186(12) 0.70157(11) 0.97363(4)
C9 C 0.07170(15) 0.67348(13) 0.99462(4)
H3 H 0.0886 0.6512 0.9971
C10 C 0.02115(13) 0.73707(12) 0.98720(4)
H4 H 0.0037 0.7589 0.9847
C14 C 0.04765(14) 0.67006(13) 0.97743(4)
H8 H 0.0487 0.6459 0.9681
O8 O 0.00585(8) 0.66785(8) 0.94291(3)
C29 C 0.67971(16) 0.97814(12) 0.97363(4)
C30 C 0.60178(20) 0.92830(15) 0.99462(4)
H14 H 0.5626 0.9114 0.9971
C31 C 0.71592(18) 0.97885(13) 0.98720(4)
H15 H 0.7552 0.9963 0.9847
C35 C 0.62241(19) 0.95235(14) 0.97743(4)
H19 H 0.5972 0.9513 0.9681
O16 O 0.66200(11) 0.99415(8) 0.94291(3)
C7 C 0.99743(11) 0.69736(11) 0.95458(4)
O6 O 0.97105(7) 0.72315(7) 0.95127(2)
Al6 Al 0.99906(4) 0.66667(6) 0.9167
Al11 Al 0.92655(3) 0.72058(4) 0.930033(10)
Al2_2 Al 0.07345(3) 0.27942(4) 0.069967(10)
C1_2 C 0.33694(12) 0.42882(18) 0.03490(4)
H1_2 H 0.3717 0.4409 0.0286
C2_2 C 0.28783(12) 0.38624(18) 0.02706(4)
C3_2 C 0.18131(11) 0.37204(16) 0.06340(3)
C4_2 C 0.54729(11) 0.63117(16) 0.08097(4)
C5_2 C 0.23593(11) 0.39334(16) 0.05312(4)
C6_2 C 0.23674(12) 0.36772(17) 0.03633(4)
H2_2 H 0.2028 0.3379 0.0313
C11_2 C 0.48956(12) 0.53787(18) 0.06595(4)
H5_2 H 0.5223 0.5343 0.0653
C12_2 C 0.25906(13) 0.30526(19) 0.00468(4)
H6_2 H 0.2345 0.2802 0.0140
C13_2 C 0.44435(12) 0.58944(18) 0.07514(4)
H7_2 H 0.4462 0.6218 0.0808
C15_2 C 0.28525(11) 0.43654(16) 0.06074(4)
H9_2 H 0.2840 0.4540 0.0721
C16_2 C 0.33672(12) 0.45454(18) 0.05179(4)
C17_2 C 0.43904(13) 0.49558(19) 0.05888(5)
H10_2 H 0.4376 0.4634 0.0533
C18_2 C 0.49249(11) 0.58512(16) 0.07390(4)
C19_2 C 0.29051(11) 0.36202(17) 0.00848(4)
C20_2 C 0.38998(12) 0.49919(18) 0.05985(4)
C21_2 C 0.39369(12) 0.54699(18) 0.06825(4)
H11_2 H 0.3609 0.5504 0.0692
O2_2 O 0.13844(7) 0.33119(11) 0.05648(2)
O3_2 O 0.55056(7) 0.67704(11) 0.08552(2)
O4_2 O 0.18318(7) 0.39564(11) 0.07874(2)
O5_2 O 0.58727(7) 0.62089(11) 0.08208(3)
O7_2 O 0.08078(8) 0.22224(11) 0.05649(3)
O9_2 O 0.06762(9) 0.33333(13) 0.0833
Al4_2 Al 0.66667(6) 0.66761(7) 0.0833
O18_2 O 0.01037(11) 0.21723(14) 0.08115(2)
O19_2 O 0.12087(8) 0.27103(11) 0.08793(2)
O23_2 O 0.02895(7) 0.27685(12) 0.04873(2)
H25_2 H 0.117844 0.225711 0.0594136
H26_2 H 0.0500634 0.184339 0.060316
C7_2 C 0.30264(11) 0.30007(16) 0.95458(4)
C8_2 C 0.29843(11) 0.32029(16) 0.97363(4)
C9_2 C 0.32652(13) 0.39822(20) 0.99462(4)
H3_2 H 0.3488 0.4374 0.9971
C10_2 C 0.26293(12) 0.28408(18) 0.98720(4)
H4_2 H 0.2411 0.2448 0.9847
C14_2 C 0.32994(13) 0.37759(19) 0.97743(4)
H8_2 H 0.3541 0.4028 0.9681
O6_2 O 0.27685(7) 0.24790(10) 0.95127(2)
O8_2 O 0.33215(8) 0.33800(11) 0.94291(3)
Al6_2 Al 0.33333(6) 0.33239(7) 0.9167
Al11_2 Al 0.27942(4) 0.20597(5) 0.930033(10)
O1_2 O 0.92981(10) 0.33333(14) 0.0833
O21_2 O 0.95422(11) 0.25394(14) 0.08459(3)
O24_2 O 0.99415(8) 0.33215(14) 0.05709(3)
O25_2 O 0.99533(11) 0.33452(14) 0.10958(3)
O1_3 O 0.66667(14) 0.59648(10) 0.0833
O21_3 O 0.74606(14) 0.70029(8) 0.08459(3)
O24_3 O 0.66785(14) 0.66200(11) 0.05709(3)
O25_3 O 0.66548(14) 0.66082(8) 0.10958(3)
O1_4 O 0.07019(10) 0.40352(10) 0.4167
C28_2 C 0.00257(11) 0.69993(16) 0.54542(4)
O14_2 O 0.02895(7) 0.75210(10) 0.54873(2)
Al5_2 Al 0.00094(4) 0.66761(4) 0.5833
Al10_2 Al 0.07345(3) 0.79403(3) 0.569967(10)
O21_4 O 0.04578(11) 0.29971(8) 0.41541(3)
O24_4 O 0.00585(8) 0.33800(11) 0.44291(3)
O25_4 O 0.00467(11) 0.33918(8) 0.39042(3)
Al1_2 Al 0.99906(4) 0.33239(4) 0.4167
Al2_3 Al 0.92655(3) 0.20597(3) 0.430033(10)
C1_3 C 0.66306(12) 0.09188(13) 0.46510(4)
H1_3 H 0.6283 0.0692 0.4714
C2_3 C 0.71217(12) 0.09841(13) 0.47294(4)
C3_3 C 0.81869(11) 0.19073(11) 0.43660(3)
C4_3 C 0.45271(11) 0.08388(11) 0.41903(4)
C5_3 C 0.76407(11) 0.15741(12) 0.44688(4)
C6_3 C 0.76326(12) 0.13098(12) 0.46367(4)
H2_3 H 0.7972 0.1351 0.4687
C8_3 C 0.70157(11) 0.02186(12) 0.52637(4)
C9_3 C 0.67348(13) 0.07170(15) 0.50538(4)
H3_3 H 0.6512 0.0886 0.5029
C10_3 C 0.73707(12) 0.02115(13) 0.51280(4)
H4_3 H 0.7589 0.0037 0.5153
C11_3 C 0.51044(12) 0.04831(13) 0.43405(4)
H5_3 H 0.4777 0.0120 0.4347
C12_3 C 0.74094(13) 0.04620(14) 0.49532(4)
H6_3 H 0.7655 0.0457 0.4860
C13_3 C 0.55565(12) 0.14509(13) 0.42486(4)
H7_3 H 0.5538 0.1756 0.4192
C14_3 C 0.67006(13) 0.04765(14) 0.52257(4)
H8_3 H 0.6459 0.0487 0.5319
C15_3 C 0.71475(11) 0.15129(12) 0.43926(4)
H9_3 H 0.7160 0.1700 0.4279
C16_3 C 0.66328(12) 0.11782(13) 0.44821(4)
C17_3 C 0.56096(13) 0.05654(14) 0.44112(5)
H10_3 H 0.5624 0.0258 0.4467
C18_3 C 0.50751(11) 0.09263(12) 0.42610(4)
C19_3 C 0.70949(11) 0.07151(13) 0.49152(4)
C20_3 C 0.61002(12) 0.10921(13) 0.44015(4)
C21_3 C 0.60631(12) 0.15330(13) 0.43175(4)
H11_3 H 0.6391 0.1895 0.4308
O2_3 O 0.86156(7) 0.19275(8) 0.44352(2)
O3_3 O 0.44944(7) 0.12648(8) 0.41448(2)
O4_3 O 0.81682(7) 0.21246(8) 0.42126(2)
O5_3 O 0.41273(7) 0.03362(8) 0.41792(3)
O7_3 O 0.91922(8) 0.14146(8) 0.44351(3)
O8_3 O 0.66785(8) 0.00585(8) 0.55709(3)
O9_3 O 0.93238(9) 0.26571(9) 0.4167
Al3_2 Al 0.79403(3) 0.72058(4) 0.430033(10)
C22_2 C 0.90812(13) 0.57118(18) 0.46510(4)
H12_2 H 0.9308 0.5591 0.4714
C23_2 C 0.90159(13) 0.61376(18) 0.47294(4)
C24_2 C 0.80927(11) 0.62796(16) 0.43660(3)
C25_2 C 0.91612(11) 0.36883(16) 0.41903(4)
C26_2 C 0.84259(12) 0.60666(16) 0.44688(4)
C27_2 C 0.86902(12) 0.63228(17) 0.46367(4)
H13_2 H 0.8649 0.6621 0.4687
C29_2 C 0.97814(12) 0.67971(16) 0.52637(4)
C30_2 C 0.92830(15) 0.60178(20) 0.50538(4)
H14_2 H 0.9114 0.5626 0.5029
C31_2 C 0.97885(13) 0.71592(18) 0.51280(4)
H15_2 H 0.9963 0.7552 0.5153
C32_2 C 0.95169(13) 0.46213(18) 0.43405(4)
H16_2 H 0.9880 0.4657 0.4347
C33_2 C 0.95380(14) 0.69474(19) 0.49532(4)
H17_2 H 0.9543 0.7198 0.4860
C34_2 C 0.85491(13) 0.41056(18) 0.42486(4)
H18_2 H 0.8244 0.3782 0.4192
C35_2 C 0.95235(14) 0.62241(19) 0.52257(4)
H19_2 H 0.9513 0.5972 0.5319
C36_2 C 0.84871(12) 0.56346(16) 0.43926(4)
H20_2 H 0.8300 0.5460 0.4279
C37_2 C 0.88218(13) 0.54546(18) 0.44821(4)
C38_2 C 0.94346(14) 0.50442(19) 0.44112(5)
H21_2 H 0.9742 0.5366 0.4467
C39_2 C 0.90737(12) 0.41488(16) 0.42610(4)
C40_2 C 0.92849(13) 0.63798(17) 0.49152(4)
C41_2 C 0.89079(13) 0.50081(18) 0.44015(4)
C42_2 C 0.84670(13) 0.45301(18) 0.43175(4)
H22_2 H 0.8105 0.4496 0.4308
O10_2 O 0.80725(8) 0.66881(11) 0.44352(2)
O11_2 O 0.87352(8) 0.32296(11) 0.41448(2)
O12_2 O 0.78754(8) 0.60436(11) 0.42126(2)
O13_2 O 0.96638(8) 0.37911(11) 0.41792(3)
O15_2 O 0.85854(8) 0.77776(11) 0.44351(3)
O16_2 O 0.99415(8) 0.66200(11) 0.55709(3)
Al4_3 Al 0.33333(6) 0.00094(4) 0.4167
Al7_2 Al 0.87264(3) 0.25988(3) 0.403300(10)
Al8_2 Al 0.74012(3) 0.61275(4) 0.403300(10)
Al9_2 Al 0.38725(4) 0.12736(3) 0.403300(10)
O17_2 O 0.79315(8) 0.78277(7) 0.41885(2)
O18_3 O 0.98963(11) 0.20685(8) 0.41885(2)
O19_3 O 0.87913(8) 0.15015(7) 0.41207(2)
O20_2 O 0.84985(7) 0.72897(11) 0.41207(2)
O22_2 O 0.75210(10) 0.72315(7) 0.45127(2)
O23_3 O 0.97105(7) 0.24790(10) 0.45127(2)
O26_2 O 0.73429(9) 0.66667(13) 0.4167
H25_3 H 0.882156 0.107866 0.440586
H26_3 H 0.949937 0.134276 0.439684
H27_2 H 0.892134 0.774289 0.440586
H28_2 H 0.865724 0.815661 0.439684
C7_3 C 0.69736(11) 0.99743(11) 0.54542(4)
O6_3 O 0.72315(7) 0.97105(7) 0.54873(2)
Al6_3 Al 0.66667(6) 0.99906(4) 0.5833
Al11_3 Al 0.72058(4) 0.92655(3) 0.569967(10)
Al2_4 Al 0.27942(4) 0.07345(3) 0.430033(10)
C1_4 C 0.42882(18) 0.33694(12) 0.46510(4)
H1_4 H 0.4409 0.3717 0.4714
C2_4 C 0.38624(18) 0.28783(12) 0.47294(4)
C3_4 C 0.37204(16) 0.18131(11) 0.43660(3)
C4_4 C 0.63117(16) 0.54729(11) 0.41903(4)
C5_4 C 0.39334(16) 0.23593(11) 0.44688(4)
C6_4 C 0.36772(17) 0.23674(12) 0.46367(4)
H2_4 H 0.3379 0.2028 0.4687
C7_4 C 0.30007(16) 0.30264(11) 0.54542(4)
C8_4 C 0.32029(16) 0.29843(11) 0.52637(4)
C9_4 C 0.39822(20) 0.32652(13) 0.50538(4)
H3_4 H 0.4374 0.3488 0.5029
C10_4 C 0.28408(18) 0.26293(12) 0.51280(4)
H4_4 H 0.2448 0.2411 0.5153
C11_4 C 0.53787(18) 0.48956(12) 0.43405(4)
H5_4 H 0.5343 0.5223 0.4347
C12_4 C 0.30526(19) 0.25906(13) 0.49532(4)
H6_4 H 0.2802 0.2345 0.4860
C13_4 C 0.58944(18) 0.44435(12) 0.42486(4)
H7_4 H 0.6218 0.4462 0.4192
C14_4 C 0.37759(19) 0.32994(13) 0.52257(4)
H8_4 H 0.4028 0.3541 0.5319
C15_4 C 0.43654(16) 0.28525(11) 0.43926(4)
H9_4 H 0.4540 0.2840 0.4279
C16_4 C 0.45454(18) 0.33672(12) 0.44821(4)
C17_4 C 0.49558(19) 0.43904(13) 0.44112(5)
H10_4 H 0.4634 0.4376 0.4467
C18_4 C 0.58512(16) 0.49249(11) 0.42610(4)
C19_4 C 0.36202(17) 0.29051(11) 0.49152(4)
C20_4 C 0.49919(18) 0.38998(12) 0.44015(4)
C21_4 C 0.54699(18) 0.39369(12) 0.43175(4)
H11_4 H 0.5504 0.3609 0.4308
O2_4 O 0.33119(11) 0.13844(7) 0.44352(2)
O3_4 O 0.67704(11) 0.55056(7) 0.41448(2)
O4_4 O 0.39564(11) 0.18318(7) 0.42126(2)
O5_4 O 0.62089(11) 0.58727(7) 0.41792(3)
O6_4 O 0.24790(10) 0.27685(7) 0.54873(2)
O7_4 O 0.22224(11) 0.08078(8) 0.44351(3)
O8_4 O 0.33800(11) 0.33215(8) 0.55709(3)
O9_4 O 0.33333(13) 0.06762(9) 0.4167
Al4_4 Al 0.66761(7) 0.66667(6) 0.4167
Al6_4 Al 0.33239(7) 0.33333(6) 0.5833
Al11_4 Al 0.20597(5) 0.27942(4) 0.569967(10)
O18_4 O 0.21723(14) 0.01037(11) 0.41885(2)
O19_4 O 0.27103(11) 0.12087(8) 0.41207(2)
O23_4 O 0.27685(12) 0.02895(7) 0.45127(2)
H25_4 H 0.225711 0.117844 0.440586
H26_4 H 0.184339 0.0500634 0.439684
O1_5 O 0.33333(14) 0.92981(10) 0.4167
O21_5 O 0.25394(14) 0.95422(11) 0.41541(3)
O24_5 O 0.33215(14) 0.99415(8) 0.44291(3)
O25_5 O 0.33452(14) 0.99533(11) 0.39042(3)
O1_6 O 0.59648(10) 0.66667(14) 0.4167
O21_6 O 0.70029(8) 0.74606(14) 0.41541(3)
O24_6 O 0.66200(11) 0.66785(14) 0.44291(3)
O25_6 O 0.66082(8) 0.66548(14) 0.39042(3)
C22_3 C 0.23785(18) 0.24145(13) 0.36823(4)
H12_3 H 0.2258 0.2641 0.3619
C23_3 C 0.28043(18) 0.23492(13) 0.36039(4)
C24_3 C 0.29463(16) 0.14260(11) 0.39673(3)
C25_3 C 0.03550(16) 0.24945(11) 0.41430(4)
C26_3 C 0.27333(16) 0.17592(12) 0.38645(4)
C27_3 C 0.29895(17) 0.20235(12) 0.36966(4)
H13_3 H 0.3288 0.1982 0.3646
C28_3 C 0.36660(16) 0.33590(11) 0.28791(4)
C29_3 C 0.34638(16) 0.31147(12) 0.30696(4)
C30_3 C 0.26845(20) 0.26163(15) 0.32795(4)
H14_3 H 0.2293 0.2447 0.3304
C31_3 C 0.38259(18) 0.31218(13) 0.32053(4)
H15_3 H 0.4219 0.3296 0.3180
C32_3 C 0.12880(18) 0.28502(13) 0.39928(4)
H16_3 H 0.1324 0.3213 0.3986
C33_3 C 0.36141(19) 0.28713(14) 0.33801(4)
H17_3 H 0.3865 0.2876 0.3473
C34_3 C 0.07723(18) 0.18824(13) 0.40847(4)
H18_3 H 0.0449 0.1577 0.4141
C35_3 C 0.28908(19) 0.28568(14) 0.31076(4)
H19_3 H 0.2639 0.2846 0.3014
C36_3 C 0.23013(16) 0.18204(12) 0.39407(4)
H20_3 H 0.2127 0.1633 0.4054
C37_3 C 0.21213(18) 0.21551(13) 0.38512(4)
C38_3 C 0.17109(19) 0.27679(14) 0.39221(5)
H21_3 H 0.2033 0.3075 0.3866
C39_3 C 0.08155(16) 0.24070(12) 0.40723(4)
C40_3 C 0.30465(17) 0.26182(13) 0.34181(4)
C41_3 C 0.16748(18) 0.22412(13) 0.39318(4)
C42_3 C 0.11968(18) 0.18003(13) 0.40158(4)
H22_3 H 0.1163 0.1438 0.4025
O10_3 O 0.33548(11) 0.14058(8) 0.38981(2)
O14_3 O 0.41877(10) 0.36228(7) 0.28460(2)
O15_3 O 0.44443(11) 0.19187(8) 0.38982(3)
O16_3 O 0.32867(11) 0.32748(8) 0.27624(3)
Al5_3 Al 0.33428(4) 0.33427(4) 0.2500
Al10_3 Al 0.46070(3) 0.40678(3) 0.263366(10)
O22_3 O 0.38982(7) 0.08543(10) 0.38206(2)
H27_3 H 0.440956 0.225467 0.392747
H28_3 H 0.482328 0.199058 0.393649
C2_5 C 0.76508(13) 0.04550(12) 0.36039(4)
C3_5 C 0.85740(11) 0.15202(11) 0.39673(3)
C5_5 C 0.82408(12) 0.09740(11) 0.38645(4)
C6_5 C 0.79765(12) 0.09659(12) 0.36966(4)
H2_5 H 0.8018 0.1305 0.3646
C7_5 C 0.66410(11) 0.03069(11) 0.28791(4)
C8_5 C 0.68853(12) 0.03490(11) 0.30696(4)
C9_5 C 0.73837(15) 0.00681(13) 0.32795(4)
C10_5 C 0.68782(13) 0.07040(12) 0.32053(4)
H4_5 H 0.6704 0.0922 0.3180
C12_5 C 0.71287(14) 0.07427(13) 0.33801(4)
H6_5 H 0.7124 0.0988 0.3473
C14_5 C 0.71432(14) 0.00339(13) 0.31076(4)
C15_5 C 0.81796(12) 0.04808(11) 0.39407(4)
H9_5 H 0.8367 0.0493 0.4054
C19_5 C 0.73818(13) 0.04282(11) 0.34181(4)
O2_5 O 0.85942(8) 0.19489(7) 0.38981(2)
O6_5 O 0.63772(7) 0.05648(7) 0.28460(2)
O7_5 O 0.80813(8) 0.25255(8) 0.38982(3)
O8_5 O 0.67252(8) 0.00118(8) 0.27624(3)
Al6_5 Al 0.66573(4) 0.00000(6) 0.2500
Al11_5 Al 0.59322(3) 0.05391(4) 0.263366(10)
O23_5 O 0.91457(10) 0.30438(7) 0.38206(2)
H25_5 H 0.774533 0.215489 0.392747
H26_5 H 0.800942 0.28327 0.393649
C1_5 C 0.75855(13) 0.99639(12) 0.36823(4)
H1_5 H 0.7359 0.9616 0.3619
C4_5 C 0.75055(11) 0.78604(11) 0.41430(4)
H3_5 H 0.7553 0.9845 0.3304
C11_5 C 0.71498(13) 0.84377(12) 0.39928(4)
H5_5 H 0.6787 0.8110 0.3986
C13_5 C 0.81176(13) 0.88898(12) 0.40847(4)
H7_5 H 0.8423 0.8871 0.4141
H8_5 H 0.7154 0.9792 0.3014
C16_5 C 0.78449(13) 0.99661(12) 0.38512(4)
C17_5 C 0.72321(14) 0.89429(13) 0.39221(5)
H10_5 H 0.6925 0.8957 0.3866
C18_5 C 0.75930(12) 0.84084(11) 0.40723(4)
C20_5 C 0.77588(13) 0.94335(12) 0.39318(4)
C21_5 C 0.81997(13) 0.93964(12) 0.40158(4)
H11_5 H 0.8562 0.9724 0.4025
Al6_6 Al 0.66573(4) 1.00000(6) 0.2500
C1_6 C 0.00361(12) 0.76215(18) 0.36823(4)
H1_6 H 0.0384 0.7742 0.3619
C4_6 C 0.21396(11) 0.96450(16) 0.41430(4)
H3_6 H 0.0155 0.7707 0.3304
C11_6 C 0.15623(12) 0.87120(18) 0.39928(4)
H5_6 H 0.1890 0.8676 0.3986
C13_6 C 0.11102(12) 0.92277(18) 0.40847(4)
H7_6 H 0.1129 0.9551 0.4141
H8_6 H 0.0208 0.7361 0.3014
C16_6 C 0.00339(12) 0.78787(18) 0.38512(4)
C17_6 C 0.10571(13) 0.82891(19) 0.39221(5)
H10_6 H 0.1043 0.7967 0.3866
C18_6 C 0.15916(11) 0.91845(16) 0.40723(4)
C20_6 C 0.05665(12) 0.83252(18) 0.39318(4)
C21_6 C 0.06036(12) 0.88032(18) 0.40158(4)
H11_6 H 0.0276 0.8837 0.4025
Al6_7 Al -0.00000(6) 0.66572(7) 0.2500
C2_6 C 0.95450(12) 0.71957(18) 0.36039(4)
C3_6 C 0.84798(11) 0.70537(16) 0.39673(3)
C5_6 C 0.90260(11) 0.72667(16) 0.38645(4)
C6_6 C 0.90341(12) 0.70105(17) 0.36966(4)
H2_6 H 0.8695 0.6712 0.3646
C7_6 C 0.96931(11) 0.63340(16) 0.28791(4)
C8_6 C 0.96510(11) 0.65362(16) 0.30696(4)
C9_6 C 0.99319(13) 0.73155(20) 0.32795(4)
C10_6 C 0.92960(12) 0.61741(18) 0.32053(4)
H4_6 H 0.9078 0.5781 0.3180
C12_6 C 0.92573(13) 0.63859(19) 0.33801(4)
H6_6 H 0.9012 0.6135 0.3473
C14_6 C 0.99661(13) 0.71092(19) 0.31076(4)
C15_6 C 0.95192(11) 0.76987(16) 0.39407(4)
H9_6 H 0.9507 0.7873 0.4054
C19_6 C 0.95718(11) 0.69535(17) 0.34181(4)
O2_6 O 0.80511(7) 0.66452(11) 0.38981(2)
O6_6 O 0.94352(7) 0.58123(10) 0.28460(2)
O7_6 O 0.74745(8) 0.55557(11) 0.38982(3)
O8_6 O 0.99882(8) 0.67133(11) 0.27624(3)
Al6_8 Al 1.00000(6) 0.66572(7) 0.2500
Al11_6 Al 0.94609(4) 0.53930(5) 0.263366(10)
O23_6 O 0.69562(7) 0.61018(12) 0.38206(2)
H25_6 H 0.784511 0.559044 0.392747
H26_6 H 0.71673 0.517672 0.393649
Al3_3 Al 0.46070(3) 0.05391(4) 0.763366(10)
C28_4 C 0.66924(11) 0.03326(16) 0.87875(4)
C29_4 C 0.64481(12) 0.01304(16) 0.85970(4)
C31_4 C 0.64552(13) 0.04925(18) 0.84613(4)
H15_4 H 0.6630 0.0885 0.8486
C33_4 C 0.62047(14) 0.02807(19) 0.82865(4)
H17_4 H 0.6210 0.0531 0.8193
O10_4 O 0.47392(8) 0.00214(11) 0.77685(2)
O14_4 O 0.69562(7) 0.08543(10) 0.88206(2)
O15_4 O 0.52521(8) 0.11109(11) 0.77684(3)
Al10_4 Al 0.74012(3) 0.12736(3) 0.903300(10)
O17_3 O 0.45981(8) 0.11611(7) 0.75219(2)
O20_3 O 0.51651(7) 0.06231(11) 0.74541(2)
O22_4 O 0.41877(10) 0.05648(7) 0.78460(2)
O26_3 O 0.40096(9) 0.00000(13) 0.7500
H27_4 H 0.5588 0.107623 0.77392
H28_4 H 0.532391 0.148994 0.773017
Al1_3 Al 0.66573(4) 0.66572(4) 0.7500
Al2_5 Al 0.59322(3) 0.53930(3) 0.763366(10)
C1_7 C 0.32973(12) 0.42521(13) 0.79843(4)
H1_7 H 0.2950 0.4025 0.8047
C2_7 C 0.37884(12) 0.43174(13) 0.80627(4)
C3_7 C 0.48536(11) 0.52406(11) 0.76993(3)
C4_7 C 0.11938(11) 0.41721(11) 0.75236(4)
C5_7 C 0.43074(11) 0.49074(12) 0.78021(4)
C6_7 C 0.42993(12) 0.46431(12) 0.79700(4)
H2_7 H 0.4639 0.4684 0.8020
C7_7 C 0.36403(11) 0.33076(11) 0.87875(4)
C8_7 C 0.36824(11) 0.35519(12) 0.85970(4)
C9_7 C 0.34015(13) 0.40503(15) 0.83871(4)
H3_7 H 0.3179 0.4219 0.8362
C10_7 C 0.40374(12) 0.35448(13) 0.84613(4)
H4_7 H 0.4256 0.3370 0.8486
C11_7 C 0.17711(12) 0.38164(13) 0.76738(4)
H5_7 H 0.1444 0.3453 0.7680
C12_7 C 0.40761(13) 0.37953(14) 0.82865(4)
H6_7 H 0.4322 0.3790 0.8193
C13_7 C 0.22232(12) 0.47842(13) 0.75819(4)
H7_7 H 0.2205 0.5089 0.7525
C14_7 C 0.33673(13) 0.38098(14) 0.85590(4)
H8_7 H 0.3126 0.3820 0.8652
C15_7 C 0.38142(11) 0.48462(12) 0.77259(4)
H9_7 H 0.3827 0.5033 0.7612
C16_7 C 0.32995(12) 0.45115(13) 0.78154(4)
C17_7 C 0.22763(13) 0.38987(14) 0.77445(5)
H10_7 H 0.2291 0.3591 0.7800
C18_7 C 0.17418(11) 0.42596(12) 0.75943(4)
C19_7 C 0.37616(11) 0.40484(13) 0.82485(4)
C20_7 C 0.27669(12) 0.44254(13) 0.77348(4)
C21_7 C 0.27298(12) 0.48663(13) 0.76508(4)
H11_7 H 0.3058 0.5228 0.7641
O1_7 O 0.73686(10) 0.73685(10) 0.7500
O2_7 O 0.52823(7) 0.52608(8) 0.77685(2)
O3_5 O 0.11611(7) 0.45981(8) 0.74781(2)
O4_5 O 0.48349(7) 0.54579(8) 0.75459(2)
O5_5 O 0.07940(7) 0.36695(8) 0.75125(3)
O6_7 O 0.38982(7) 0.30438(7) 0.88206(2)
O7_7 O 0.58589(8) 0.47479(8) 0.77684(3)
O8_7 O 0.33452(8) 0.33918(8) 0.89042(3)
O9_5 O 0.59905(9) 0.59904(9) 0.7500
C22_4 C 0.57479(13) 0.90451(18) 0.79843(4)
H12_4 H 0.5975 0.8924 0.8047
C23_4 C 0.56826(13) 0.94709(18) 0.80627(4)
C24_4 C 0.47594(11) 0.96129(16) 0.76993(3)
C25_4 C 0.58279(11) 0.70216(16) 0.75236(4)
C26_4 C 0.50926(12) 0.93999(16) 0.78021(4)
C27_4 C 0.53569(12) 0.96561(17) 0.79700(4)
H13_4 H 0.5316 0.9954 0.8020
C30_4 C 0.59497(15) 0.93511(20) 0.83871(4)
H14_4 H 0.5781 0.8959 0.8362
C32_4 C 0.61836(13) 0.79546(18) 0.76738(4)
H16_4 H 0.6547 0.7990 0.7680
C34_4 C 0.52158(13) 0.74389(18) 0.75819(4)
H18_4 H 0.4911 0.7115 0.7525
C35_4 C 0.61902(14) 0.95574(19) 0.85590(4)
H19_4 H 0.6180 0.9305 0.8652
C36_4 C 0.51538(12) 0.89679(16) 0.77259(4)
H20_4 H 0.4967 0.8793 0.7612
C37_4 C 0.54885(13) 0.87879(18) 0.78154(4)
C38_4 C 0.61013(14) 0.83775(19) 0.77445(5)
H21_4 H 0.6409 0.8699 0.7800
C39_4 C 0.57404(12) 0.74821(16) 0.75943(4)
C40_4 C 0.59516(13) 0.97131(17) 0.82485(4)
C41_4 C 0.55746(13) 0.83414(18) 0.77348(4)
C42_4 C 0.51337(13) 0.78634(18) 0.76508(4)
H22_4 H 0.4772 0.7829 0.7641
O11_3 O 0.54019(8) 0.65629(11) 0.74781(2)
O12_3 O 0.45421(8) 0.93769(11) 0.75459(2)
O13_3 O 0.63305(8) 0.71244(11) 0.75125(3)
O16_4 O 0.66082(8) 0.99533(11) 0.89042(3)
Al4_5 Al -0.00000(6) 0.33427(4) 0.7500
Al7_3 Al 0.53930(3) 0.59322(3) 0.736634(10)
Al8_3 Al 0.40678(3) 0.94609(4) 0.736634(10)
Al9_3 Al 0.05391(4) 0.46070(3) 0.736634(10)
Al11_7 Al 0.38725(4) 0.25988(3) 0.903300(10)
O18_5 O 0.65629(11) 0.54019(8) 0.75219(2)
O19_5 O 0.54579(8) 0.48349(7) 0.74541(2)
O21_7 O 0.71244(11) 0.63305(8) 0.74875(3)
O23_7 O 0.63772(7) 0.58123(10) 0.78460(2)
O24_7 O 0.67252(8) 0.67133(11) 0.77624(3)
O25_7 O 0.67133(11) 0.67252(8) 0.72376(3)
O26_4 O 0.40096(9) 1.00000(13) 0.7500
H25_7 H 0.548823 0.4412 0.77392
H26_7 H 0.616603 0.467609 0.773017
Al4_6 Al 1.00000(6) 0.33427(4) 0.7500
Al4_7 Al 0.33428(7) 0.00000(6) 0.7500
C1_8 C 0.09549(18) 0.67027(12) 0.79843(4)
H1_8 H 0.1076 0.7050 0.8047
C2_8 C 0.05291(18) 0.62116(12) 0.80627(4)
C3_8 C 0.03871(16) 0.51464(11) 0.76993(3)
C4_8 C 0.29784(16) 0.88062(11) 0.75236(4)
C5_8 C 0.06001(16) 0.56926(11) 0.78021(4)
C6_8 C 0.03439(17) 0.57007(12) 0.79700(4)
H2_8 H 0.0046 0.5361 0.8020
C9_8 C 0.06489(20) 0.65985(13) 0.83871(4)
H3_8 H 0.1041 0.6821 0.8362
C11_8 C 0.20454(18) 0.82289(12) 0.76738(4)
H5_8 H 0.2010 0.8556 0.7680
C13_8 C 0.25611(18) 0.77768(12) 0.75819(4)
H7_8 H 0.2885 0.7795 0.7525
C14_8 C 0.04426(19) 0.66327(13) 0.85590(4)
H8_8 H 0.0695 0.6874 0.8652
C15_8 C 0.10321(16) 0.61858(11) 0.77259(4)
H9_8 H 0.1207 0.6173 0.7612
C16_8 C 0.12121(18) 0.67005(12) 0.78154(4)
C17_8 C 0.16225(19) 0.77237(13) 0.77445(5)
H10_8 H 0.1301 0.7709 0.7800
C18_8 C 0.25179(16) 0.82582(11) 0.75943(4)
C19_8 C 0.02869(17) 0.62384(11) 0.82485(4)
C20_8 C 0.16586(18) 0.72331(12) 0.77348(4)
C21_8 C 0.21366(18) 0.72702(12) 0.76508(4)
H11_8 H 0.2171 0.6942 0.7641
O1_8 O -0.00000(14) 0.26314(10) 0.7500
O3_6 O 0.34371(11) 0.88389(7) 0.74781(2)
O4_6 O 0.06231(11) 0.51651(7) 0.75459(2)
O5_6 O 0.28756(11) 0.92060(7) 0.75125(3)
O8_8 O 0.00467(11) 0.66548(8) 0.89042(3)
O9_6 O -0.00000(13) 0.40095(9) 0.7500
Al4_8 Al 0.33428(7) 1.00000(6) 0.7500
O25_8 O 0.00118(14) 0.32867(11) 0.72376(3)
H23 H 0.0181371 0.260125 0.761689
Al2_6 Al 0.94609(4) 0.40678(3) 0.763366(10)
C7_8 C 0.96674(16) 0.63597(11) 0.87875(4)
C8_8 C 0.98696(16) 0.63176(11) 0.85970(4)
C10_8 C 0.95075(18) 0.59626(12) 0.84613(4)
H4_8 H 0.9115 0.5744 0.8486
C12_8 C 0.97193(19) 0.59239(13) 0.82865(4)
H6_8 H 0.9469 0.5678 0.8193
O1_9 O 1.00000(14) 0.26314(10) 0.7500
O2_8 O 0.99786(11) 0.47177(7) 0.77685(2)
O6_8 O 0.91457(10) 0.61018(7) 0.88206(2)
O7_8 O 0.88891(11) 0.41411(8) 0.77684(3)
O9_7 O 1.00000(13) 0.40095(9) 0.7500
Al11_8 Al 0.87264(5) 0.61275(4) 0.903300(10)
O18_6 O 0.88389(14) 0.34371(11) 0.75219(2)
O19_6 O 0.93769(11) 0.45421(8) 0.74541(2)
O21_8 O 0.92060(14) 0.28756(11) 0.74875(3)
O23_8 O 0.94352(12) 0.36228(7) 0.78460(2)
O24_8 O 0.99882(14) 0.32748(8) 0.77624(3)
H24 H 0.960558 0.231335 0.749427
H25_8 H 0.892377 0.451177 0.77392
H26_8 H 0.851006 0.383397 0.773017
O1_10 O 0.26315(10) 0.00000(14) 0.7500
O21_9 O 0.36695(8) 0.07940(14) 0.74875(3)
O24_9 O 0.32867(11) 0.00118(14) 0.77624(3)
H24_2 H 0.270778 0.0394421 0.749427
O1_11 O 0.26315(10) 1.00000(14) 0.7500
O25_9 O 0.32748(8) 0.99882(14) 0.72376(3)
H23_2 H 0.241988 0.981863 0.761689
C28_5 C 0.03326(16) 0.66924(11) 0.62125(4)
C29_5 C 0.01304(16) 0.64481(12) 0.64030(4)
C31_5 C 0.04925(18) 0.64552(13) 0.65387(4)
H15_5 H 0.0885 0.6630 0.6514
C33_5 C 0.02807(19) 0.62047(14) 0.67135(4)
H17_5 H 0.0531 0.6210 0.6807
O10_5 O 0.00214(11) 0.47392(8) 0.72315(2)
O14_5 O 0.08543(10) 0.69562(7) 0.61794(2)
O15_5 O 0.11109(11) 0.52521(8) 0.72316(3)
Al10_5 Al 0.12736(3) 0.74012(3) 0.596700(10)
O22_5 O 0.05648(7) 0.41877(10) 0.71540(2)
H27_5 H 0.107623 0.5588 0.72608
H28_5 H 0.148994 0.532391 0.726983
C1_9 C 0.42521(13) 0.32973(12) 0.70157(4)
H1_9 H 0.4025 0.2950 0.6953
C2_9 C 0.43174(13) 0.37884(12) 0.69373(4)
C3_9 C 0.52406(11) 0.48536(11) 0.73007(3)
C4_9 C 0.41721(11) 0.11938(11) 0.74764(4)
C5_9 C 0.49074(12) 0.43074(11) 0.71979(4)
C6_9 C 0.46431(12) 0.42993(12) 0.70300(4)
H2_9 H 0.4684 0.4639 0.6980
C7_9 C 0.33076(11) 0.36403(11) 0.62125(4)
C8_9 C 0.35519(12) 0.36824(11) 0.64030(4)
C9_9 C 0.40503(15) 0.34015(13) 0.66129(4)
H3_9 H 0.4219 0.3179 0.6638
C10_9 C 0.35448(13) 0.40374(12) 0.65387(4)
H4_9 H 0.3370 0.4256 0.6514
C11_9 C 0.38164(13) 0.17711(12) 0.73262(4)
H5_9 H 0.3453 0.1444 0.7320
C12_9 C 0.37953(14) 0.40761(13) 0.67135(4)
H6_9 H 0.3790 0.4322 0.6807
C13_9 C 0.47842(13) 0.22232(12) 0.74181(4)
H7_9 H 0.5089 0.2205 0.7475
C14_9 C 0.38098(14) 0.33673(13) 0.64410(4)
H8_9 H 0.3820 0.3126 0.6348
C15_9 C 0.48462(12) 0.38142(11) 0.72741(4)
H9_9 H 0.5033 0.3827 0.7388
C16_9 C 0.45115(13) 0.32995(12) 0.71846(4)
C17_9 C 0.38987(14) 0.22763(13) 0.72555(5)
H10_9 H 0.3591 0.2291 0.7200
C18_9 C 0.42596(12) 0.17418(11) 0.74057(4)
C19_9 C 0.40484(13) 0.37616(11) 0.67515(4)
C20_9 C 0.44254(13) 0.27669(12) 0.72652(4)
C21_9 C 0.48663(13) 0.27298(12) 0.73492(4)
H11_9 H 0.5228 0.3058 0.7359
O2_9 O 0.52608(8) 0.52823(7) 0.72315(2)
O6_9 O 0.30438(7) 0.38982(7) 0.61794(2)
O7_9 O 0.47479(8) 0.58589(8) 0.72316(3)
O8_9 O 0.33918(8) 0.33452(8) 0.60958(3)
C22_5 C 0.90451(18) 0.57479(13) 0.70157(4)
H12_5 H 0.8924 0.5975 0.6953
C23_5 C 0.94709(18) 0.56826(13) 0.69373(4)
C24_5 C 0.96129(16) 0.47594(11) 0.73007(3)
C25_5 C 0.70216(16) 0.58279(11) 0.74764(4)
C26_5 C 0.93999(16) 0.50926(12) 0.71979(4)
C27_5 C 0.96561(17) 0.53569(12) 0.70300(4)
H13_5 H 0.9954 0.5316 0.6980
C30_5 C 0.93511(20) 0.59497(15) 0.66129(4)
H14_5 H 0.8959 0.5781 0.6638
C32_5 C 0.79546(18) 0.61836(13) 0.73262(4)
H16_5 H 0.7990 0.6547 0.7320
C34_5 C 0.74389(18) 0.52158(13) 0.74181(4)
H18_5 H 0.7115 0.4911 0.7475
C35_5 C 0.95574(19) 0.61902(14) 0.64410(4)
H19_5 H 0.9305 0.6180 0.6348
C36_5 C 0.89679(16) 0.51538(12) 0.72741(4)
H20_5 H 0.8793 0.4967 0.7388
C37_5 C 0.87879(18) 0.54885(13) 0.71846(4)
C38_5 C 0.83775(19) 0.61013(14) 0.72555(5)
H21_5 H 0.8699 0.6409 0.7200
C39_5 C 0.74821(16) 0.57404(12) 0.74057(4)
C40_5 C 0.97131(17) 0.59516(13) 0.67515(4)
C41_5 C 0.83414(18) 0.55746(13) 0.72652(4)
C42_5 C 0.78634(18) 0.51337(13) 0.73492(4)
H22_5 H 0.7829 0.4772 0.7359
O16_5 O 0.99533(11) 0.66082(8) 0.60958(3)
Al11_9 Al 0.25988(3) 0.38725(4) 0.596700(10)
O23_9 O 0.58123(10) 0.63772(7) 0.71540(2)
H25_9 H 0.4412 0.548823 0.72608
H26_9 H 0.467609 0.616603 0.726983
C1_10 C 0.67027(12) 0.09549(18) 0.70157(4)
H1_10 H 0.7050 0.1076 0.6953
C2_10 C 0.62116(12) 0.05291(18) 0.69373(4)
C3_10 C 0.51464(11) 0.03871(16) 0.73007(3)
C4_10 C 0.88062(11) 0.29784(16) 0.74764(4)
C5_10 C 0.56926(11) 0.06001(16) 0.71979(4)
C6_10 C 0.57007(12) 0.03439(17) 0.70300(4)
H2_10 H 0.5361 0.0046 0.6980
C9_10 C 0.65985(13) 0.06489(20) 0.66129(4)
H3_10 H 0.6821 0.1041 0.6638
C11_10 C 0.82289(12) 0.20454(18) 0.73262(4)
H5_10 H 0.8556 0.2010 0.7320
C13_10 C 0.77768(12) 0.25611(18) 0.74181(4)
H7_10 H 0.7795 0.2885 0.7475
C14_10 C 0.66327(13) 0.04426(19) 0.64410(4)
H8_10 H 0.6874 0.0695 0.6348
C15_10 C 0.61858(11) 0.10321(16) 0.72741(4)
H9_10 H 0.6173 0.1207 0.7388
C16_10 C 0.67005(12) 0.12121(18) 0.71846(4)
C17_10 C 0.77237(13) 0.16225(19) 0.72555(5)
H10_10 H 0.7709 0.1301 0.7200
C18_10 C 0.82582(11) 0.25179(16) 0.74057(4)
C19_10 C 0.62384(11) 0.02869(17) 0.67515(4)
C20_10 C 0.72331(12) 0.16586(18) 0.72652(4)
C21_10 C 0.72702(12) 0.21366(18) 0.73492(4)
H11_10 H 0.6942 0.2171 0.7359
O8_10 O 0.66548(8) 0.00467(11) 0.60958(3)
H23_3 H 0.260125 0.0181371 0.738311
C7_10 C 0.63597(11) 0.96674(16) 0.62125(4)
C8_10 C 0.63176(11) 0.98696(16) 0.64030(4)
C10_10 C 0.59626(12) 0.95075(18) 0.65387(4)
H4_10 H 0.5744 0.9115 0.6514
C12_10 C 0.59239(13) 0.97193(19) 0.67135(4)
H6_10 H 0.5678 0.9469 0.6807
O2_10 O 0.47177(7) 0.99786(11) 0.72315(2)
O6_10 O 0.61018(7) 0.91457(10) 0.61794(2)
O7_10 O 0.41411(8) 0.88891(11) 0.72316(3)
Al11_10 Al 0.61275(4) 0.87264(5) 0.596700(10)
O23_10 O 0.36228(7) 0.94352(12) 0.71540(2)
H24_3 H 0.231335 0.960558 0.750573
H25_10 H 0.451177 0.892377 0.72608
H26_10 H 0.383397 0.851006 0.726983
H24_4 H 0.0394421 0.270778 0.750573
H23_4 H 0.981863 0.241988 0.738311
C22_6 C 0.24145(13) 0.23785(18) 0.13177(4)
H12_6 H 0.2641 0.2258 0.1381
C23_6 C 0.23492(13) 0.28043(18) 0.13961(4)
C24_6 C 0.14260(11) 0.29463(16) 0.10327(3)
C25_6 C 0.24945(11) 0.03550(16) 0.08570(4)
C26_6 C 0.17592(12) 0.27333(16) 0.11355(4)
C27_6 C 0.20235(12) 0.29895(17) 0.13034(4)
H13_6 H 0.1982 0.3288 0.1354
C28_6 C 0.33590(11) 0.36660(16) 0.21209(4)
C29_6 C 0.31147(12) 0.34638(16) 0.19304(4)
C30_6 C 0.26163(15) 0.26845(20) 0.17205(4)
H14_6 H 0.2447 0.2293 0.1696
C31_6 C 0.31218(13) 0.38259(18) 0.17947(4)
H15_6 H 0.3296 0.4219 0.1820
C32_6 C 0.28502(13) 0.12880(18) 0.10072(4)
H16_6 H 0.3213 0.1324 0.1014
C33_6 C 0.28713(14) 0.36141(19) 0.16199(4)
H17_6 H 0.2876 0.3865 0.1527
C34_6 C 0.18824(13) 0.07723(18) 0.09153(4)
H18_6 H 0.1577 0.0449 0.0859
C35_6 C 0.28568(14) 0.28908(19) 0.18924(4)
H19_6 H 0.2846 0.2639 0.1986
C36_6 C 0.18204(12) 0.23013(16) 0.10593(4)
H20_6 H 0.1633 0.2127 0.0946
C37_6 C 0.21551(13) 0.21213(18) 0.11488(4)
C38_6 C 0.27679(14) 0.17109(19) 0.10779(5)
H21_6 H 0.3075 0.2033 0.1134
C39_6 C 0.24070(12) 0.08155(16) 0.09277(4)
C40_6 C 0.26182(13) 0.30465(17) 0.15819(4)
C41_6 C 0.22412(13) 0.16748(18) 0.10682(4)
C42_6 C 0.18003(13) 0.11968(18) 0.09842(4)
H22_6 H 0.1438 0.1163 0.0975
O10_6 O 0.14058(8) 0.33548(11) 0.11019(2)
O14_6 O 0.36228(7) 0.41877(10) 0.21540(2)
O15_6 O 0.19187(8) 0.44443(11) 0.11018(3)
O16_6 O 0.32748(8) 0.32867(11) 0.22376(3)
Al10_6 Al 0.40678(3) 0.46070(3) 0.236634(10)
O22_6 O 0.08543(10) 0.38982(7) 0.11794(2)
H27_6 H 0.225467 0.440956 0.107253
H28_6 H 0.199058 0.482328 0.106351
C2_11 C 0.04550(12) 0.76508(13) 0.13961(4)
C3_11 C 0.15202(11) 0.85740(11) 0.10327(3)
C5_11 C 0.09740(11) 0.82408(12) 0.11355(4)
C6_11 C 0.09659(12) 0.79765(12) 0.13034(4)
H2_11 H 0.1305 0.8018 0.1354
C7_11 C 0.03069(11) 0.66410(11) 0.21209(4)
C8_11 C 0.03490(11) 0.68853(12) 0.19304(4)
C9_11 C 0.00681(13) 0.73837(15) 0.17205(4)
C10_11 C 0.07040(12) 0.68782(13) 0.17947(4)
H4_11 H 0.0922 0.6704 0.1820
C12_11 C 0.07427(13) 0.71287(14) 0.16199(4)
H6_11 H 0.0988 0.7124 0.1527
C14_11 C 0.00339(13) 0.71432(14) 0.18924(4)
C15_11 C 0.04808(11) 0.81796(12) 0.10593(4)
H9_11 H 0.0493 0.8367 0.0946
C19_11 C 0.04282(11) 0.73818(13) 0.15819(4)
O2_11 O 0.19489(7) 0.85942(8) 0.11019(2)
O6_11 O 0.05648(7) 0.63772(7) 0.21540(2)
O7_11 O 0.25255(8) 0.80813(8) 0.11018(3)
O8_11 O 0.00118(8) 0.67252(8) 0.22376(3)
Al11_11 Al 0.05391(4) 0.59322(3) 0.236634(10)
O23_11 O 0.30438(7) 0.91457(10) 0.11794(2)
H25_11 H 0.215489 0.774533 0.107253
H26_11 H 0.28327 0.800942 0.106351
C1_11 C 0.99639(12) 0.75855(13) 0.13177(4)
H1_11 H 0.9616 0.7359 0.1381
C4_11 C 0.78604(11) 0.75055(11) 0.08570(4)
H3_11 H 0.9845 0.7553 0.1696
C11_11 C 0.84377(12) 0.71498(13) 0.10072(4)
H5_11 H 0.8110 0.6787 0.1014
C13_11 C 0.88898(12) 0.81176(13) 0.09153(4)
H7_11 H 0.8871 0.8423 0.0859
H8_11 H 0.9792 0.7154 0.1986
C16_11 C 0.99661(12) 0.78449(13) 0.11488(4)
C17_11 C 0.89429(13) 0.72321(14) 0.10779(5)
H10_11 H 0.8957 0.6925 0.1134
C18_11 C 0.84084(11) 0.75930(12) 0.09277(4)
C20_11 C 0.94335(12) 0.77588(13) 0.10682(4)
C21_11 C 0.93964(12) 0.81997(13) 0.09842(4)
H11_11 H 0.9724 0.8562 0.0975
C1_12 C 0.76215(18) 0.00361(12) 0.13177(4)
H1_12 H 0.7742 0.0384 0.1381
C4_12 C 0.96450(16) 0.21396(11) 0.08570(4)
H3_12 H 0.7707 0.0155 0.1696
C11_12 C 0.87120(18) 0.15623(12) 0.10072(4)
H5_12 H 0.8676 0.1890 0.1014
C13_12 C 0.92277(18) 0.11102(12) 0.09153(4)
H7_12 H 0.9551 0.1129 0.0859
H8_12 H 0.7361 0.0208 0.1986
C16_12 C 0.78787(18) 0.00339(12) 0.11488(4)
C17_12 C 0.82891(19) 0.10571(13) 0.10779(5)
H10_12 H 0.7967 0.1043 0.1134
C18_12 C 0.91845(16) 0.15916(11) 0.09277(4)
C20_12 C 0.83252(18) 0.05665(12) 0.10682(4)
C21_12 C 0.88032(18) 0.06036(12) 0.09842(4)
H11_12 H 0.8837 0.0276 0.0975
C2_12 C 0.71957(18) 0.95450(12) 0.13961(4)
C3_12 C 0.70537(16) 0.84798(11) 0.10327(3)
C5_12 C 0.72667(16) 0.90260(11) 0.11355(4)
C6_12 C 0.70105(17) 0.90341(12) 0.13034(4)
H2_12 H 0.6712 0.8695 0.1354
C7_12 C 0.63340(16) 0.96931(11) 0.21209(4)
C8_12 C 0.65362(16) 0.96510(11) 0.19304(4)
C9_12 C 0.73155(20) 0.99319(13) 0.17205(4)
C10_12 C 0.61741(18) 0.92960(12) 0.17947(4)
H4_12 H 0.5781 0.9078 0.1820
C12_12 C 0.63859(19) 0.92573(13) 0.16199(4)
H6_12 H 0.6135 0.9012 0.1527
C14_12 C 0.71092(19) 0.99661(13) 0.18924(4)
C15_12 C 0.76987(16) 0.95192(11) 0.10593(4)
H9_12 H 0.7873 0.9507 0.0946
C19_12 C 0.69535(17) 0.95718(11) 0.15819(4)
O2_12 O 0.66452(11) 0.80511(7) 0.11019(2)
O6_12 O 0.58123(10) 0.94352(7) 0.21540(2)
O7_12 O 0.55557(11) 0.74745(8) 0.11018(3)
O8_12 O 0.67133(11) 0.99882(8) 0.22376(3)
Al11_12 Al 0.53930(5) 0.94609(4) 0.236634(10)
O23_12 O 0.61018(12) 0.69562(7) 0.11794(2)
H25_12 H 0.559044 0.784511 0.107253
H26_12 H 0.517672 0.71673 0.106351
C7_13 C 0.00257(11) 0.30264(11) 0.04542(4)
C8_13 C 0.97814(12) 0.29843(11) 0.02637(4)
C9_13 C 0.92830(15) 0.32652(13) 0.00538(4)
H3_13 H 0.9114 0.3488 0.0029
C10_13 C 0.97885(13) 0.26293(12) 0.01280(4)
H4_13 H 0.9963 0.2411 0.0153
C14_13 C 0.95235(14) 0.32994(13) 0.02257(4)
H8_13 H 0.9513 0.3541 0.0319
C29_7 C 0.32029(16) 0.02186(12) 0.02637(4)
C30_7 C 0.39822(20) 0.07170(15) 0.00538(4)
H14_7 H 0.4374 0.0886 0.0029
C31_7 C 0.28408(18) 0.02115(13) 0.01280(4)
H15_7 H 0.2448 0.0037 0.0153
C35_7 C 0.37759(19) 0.04765(14) 0.02257(4)
H19_7 H 0.4028 0.0487 0.0319
C1_13 C 0.90812(13) 0.33694(12) 0.96510(4)
H1_13 H 0.9308 0.3717 0.9714
C2_13 C 0.90159(13) 0.28783(12) 0.97294(4)
C3_13 C 0.80927(11) 0.18131(11) 0.93660(3)
C4_13 C 0.91612(11) 0.54729(11) 0.91903(4)
C5_13 C 0.84259(12) 0.23593(11) 0.94688(4)
C6_13 C 0.86902(12) 0.23674(12) 0.96367(4)
H2_13 H 0.8649 0.2028 0.9687
C11_13 C 0.95169(13) 0.48956(12) 0.93405(4)
H5_13 H 0.9880 0.5223 0.9347
C12_13 C 0.95380(14) 0.25906(13) 0.99532(4)
H6_13 H 0.9543 0.2345 0.9860
C13_13 C 0.85491(13) 0.44435(12) 0.92486(4)
H7_13 H 0.8244 0.4462 0.9192
C15_13 C 0.84871(12) 0.28525(11) 0.93926(4)
H9_13 H 0.8300 0.2840 0.9279
C16_13 C 0.88218(13) 0.33672(12) 0.94821(4)
C17_13 C 0.94346(14) 0.43904(13) 0.94112(5)
H10_13 H 0.9742 0.4376 0.9467
C18_13 C 0.90737(12) 0.49249(11) 0.92610(4)
C19_13 C 0.92849(13) 0.29051(11) 0.99152(4)
C20_13 C 0.89079(13) 0.38998(12) 0.94015(4)
C21_13 C 0.84670(13) 0.39369(12) 0.93175(4)
H11_13 H 0.8105 0.3609 0.9308
O2_13 O 0.80725(8) 0.13844(7) 0.94352(2)
O3_7 O 0.87352(8) 0.55056(7) 0.91448(2)
O4_7 O 0.78754(8) 0.18318(7) 0.92126(2)
O5_7 O 0.96638(8) 0.58727(7) 0.91792(3)
O7_13 O 0.85854(8) 0.08078(8) 0.94351(3)
O9_8 O 0.73429(9) 0.06762(9) 0.9167
C22_7 C 0.42882(18) 0.09188(13) 0.96510(4)
H12_7 H 0.4409 0.0692 0.9714
C23_7 C 0.38624(18) 0.09841(13) 0.97294(4)
C24_7 C 0.37204(16) 0.19073(11) 0.93660(3)
C25_7 C 0.63117(16) 0.08388(11) 0.91903(4)
C26_7 C 0.39334(16) 0.15741(12) 0.94688(4)
C27_7 C 0.36772(17) 0.13098(12) 0.96367(4)
H13_7 H 0.3379 0.1351 0.9687
C32_7 C 0.53787(18) 0.04831(13) 0.93405(4)
H16_7 H 0.5343 0.0120 0.9347
C33_7 C 0.30526(19) 0.04620(14) 0.99532(4)
H17_7 H 0.2802 0.0457 0.9860
C34_7 C 0.58944(18) 0.14509(13) 0.92486(4)
H18_7 H 0.6218 0.1756 0.9192
C36_7 C 0.43654(16) 0.15129(12) 0.93926(4)
H20_7 H 0.4540 0.1700 0.9279
C37_7 C 0.45454(18) 0.11782(13) 0.94821(4)
C38_7 C 0.49558(19) 0.05654(14) 0.94112(5)
H21_7 H 0.4634 0.0258 0.9467
C39_7 C 0.58512(16) 0.09263(12) 0.92610(4)
C40_7 C 0.36202(17) 0.07151(13) 0.99152(4)
C41_7 C 0.49919(18) 0.10921(13) 0.94015(4)
C42_7 C 0.54699(18) 0.15330(13) 0.93175(4)
H22_7 H 0.5504 0.1895 0.9308
O10_7 O 0.33119(11) 0.19275(8) 0.94352(2)
O11_4 O 0.67704(11) 0.12648(8) 0.91448(2)
O12_4 O 0.39564(11) 0.21246(8) 0.92126(2)
O13_4 O 0.62089(11) 0.03362(8) 0.91792(3)
O15_7 O 0.22224(11) 0.14146(8) 0.94351(3)
O17_4 O 0.21723(7) 0.20685(8) 0.91885(2)
O18_7 O 0.79315(8) 0.01037(11) 0.91885(2)
O19_7 O 0.84985(7) 0.12087(8) 0.91207(2)
O20_4 O 0.27103(11) 0.15015(7) 0.91207(2)
O26_5 O 0.33333(13) 0.26571(9) 0.9167
H25_13 H 0.892134 0.117844 0.940586
H26_13 H 0.865724 0.0500634 0.939684
H27_7 H 0.225711 0.107866 0.940586
H28_7 H 0.184339 0.134276 0.939684
C28_7 C 0.30007(16) 0.99743(11) 0.04542(4)
O1_12 O 0.59648(10) 0.92981(10) 0.9167
O21_10 O 0.70029(8) 0.95422(11) 0.91541(3)
O1_13 O 0.07019(10) 0.66667(14) 0.9167
O21_11 O 0.04578(11) 0.74606(14) 0.91541(3)
C7_14 C 0.69736(11) 0.69993(16) 0.04542(4)
C8_14 C 0.70157(11) 0.67971(16) 0.02637(4)
C9_14 C 0.67348(13) 0.60178(20) 0.00538(4)
H3_14 H 0.6512 0.5626 0.0029
C10_14 C 0.73707(12) 0.71592(18) 0.01280(4)
H4_14 H 0.7589 0.7552 0.0153
C14_14 C 0.67006(13) 0.62241(19) 0.02257(4)
H8_14 H 0.6459 0.5972 0.0319
C1_14 C 0.66306(12) 0.57118(18) 0.96510(4)
H1_14 H 0.6283 0.5591 0.9714
C2_14 C 0.71217(12) 0.61376(18) 0.97294(4)
C3_14 C 0.81869(11) 0.62796(16) 0.93660(3)
C4_14 C 0.45271(11) 0.36883(16) 0.91903(4)
C5_14 C 0.76407(11) 0.60666(16) 0.94688(4)
C6_14 C 0.76326(12) 0.63228(17) 0.96367(4)
H2_14 H 0.7972 0.6621 0.9687
C11_14 C 0.51044(12) 0.46213(18) 0.93405(4)
H5_14 H 0.4777 0.4657 0.9347
C12_14 C 0.74094(13) 0.69474(19) 0.99532(4)
H6_14 H 0.7655 0.7198 0.9860
C13_14 C 0.55565(12) 0.41056(18) 0.92486(4)
H7_14 H 0.5538 0.3782 0.9192
C15_14 C 0.71475(11) 0.56346(16) 0.93926(4)
H9_14 H 0.7160 0.5460 0.9279
C16_14 C 0.66328(12) 0.54546(18) 0.94821(4)
C17_14 C 0.56096(13) 0.50442(19) 0.94112(5)
H10_14 H 0.5624 0.5366 0.9467
C18_14 C 0.50751(11) 0.41488(16) 0.92610(4)
C19_14 C 0.70949(11) 0.63798(17) 0.99152(4)
C20_14 C 0.61002(12) 0.50081(18) 0.94015(4)
C21_14 C 0.60631(12) 0.45301(18) 0.93175(4)
H11_14 H 0.6391 0.4496 0.9308
O2_14 O 0.86156(7) 0.66881(11) 0.94352(2)
O3_8 O 0.44944(7) 0.32296(11) 0.91448(2)
O4_8 O 0.81682(7) 0.60436(11) 0.92126(2)
O5_8 O 0.41273(7) 0.37911(11) 0.91792(3)
O7_14 O 0.91922(8) 0.77776(11) 0.94351(3)
O9_9 O 0.93238(9) 0.66667(13) 0.9167
O18_8 O 0.98963(11) 0.78277(14) 0.91885(2)
O19_8 O 0.87913(8) 0.72897(11) 0.91207(2)
H25_14 H 0.882156 0.774289 0.940586
H26_14 H 0.949937 0.815661 0.939684
O1_14 O 0.33333(14) 0.40352(10) 0.9167
O21_12 O 0.25394(14) 0.29971(8) 0.91541(3)
C7_15 C 0.30264(11) 0.00257(11) 0.45458(4)
C1_15 C 0.33694(12) 0.90812(13) 0.53490(4)
H1_15 H 0.3717 0.9308 0.5286
C2_15 C 0.28783(12) 0.90159(13) 0.52706(4)
C3_15 C 0.18131(11) 0.80927(11) 0.56340(3)
C4_15 C 0.54729(11) 0.91612(11) 0.58097(4)
C5_15 C 0.23593(11) 0.84259(12) 0.55312(4)
C6_15 C 0.23674(12) 0.86902(12) 0.53633(4)
H2_15 H 0.2028 0.8649 0.5313
C8_15 C 0.29843(11) 0.97814(12) 0.47363(4)
C9_15 C 0.32652(13) 0.92830(15) 0.49462(4)
H3_15 H 0.3488 0.9114 0.4971
C10_15 C 0.26293(12) 0.97885(13) 0.48720(4)
H4_15 H 0.2411 0.9963 0.4847
C11_15 C 0.48956(12) 0.95169(13) 0.56595(4)
H5_15 H 0.5223 0.9880 0.5653
C12_15 C 0.25906(13) 0.95380(14) 0.50468(4)
H6_15 H 0.2345 0.9543 0.5140
C13_15 C 0.44435(12) 0.85491(13) 0.57514(4)
H7_15 H 0.4462 0.8244 0.5808
C14_15 C 0.32994(13) 0.95235(14) 0.47743(4)
H8_15 H 0.3541 0.9513 0.4681
C15_15 C 0.28525(11) 0.84871(12) 0.56074(4)
H9_15 H 0.2840 0.8300 0.5721
C16_15 C 0.33672(12) 0.88218(13) 0.55179(4)
C17_15 C 0.43904(13) 0.94346(14) 0.55888(5)
H10_15 H 0.4376 0.9742 0.5533
C18_15 C 0.49249(11) 0.90737(12) 0.57390(4)
C19_15 C 0.29051(11) 0.92849(13) 0.50848(4)
C20_15 C 0.38998(12) 0.89079(13) 0.55985(4)
C21_15 C 0.39369(12) 0.84670(13) 0.56825(4)
H11_15 H 0.3609 0.8105 0.5692
O2_15 O 0.13844(7) 0.80725(8) 0.55648(2)
O3_9 O 0.55056(7) 0.87352(8) 0.58552(2)
O4_9 O 0.18318(7) 0.78754(8) 0.57874(2)
O5_9 O 0.58727(7) 0.96638(8) 0.58208(3)
O7_15 O 0.08078(8) 0.85854(8) 0.55649(3)
O9_10 O 0.06762(9) 0.73429(9) 0.5833
C22_8 C 0.09188(13) 0.42882(18) 0.53490(4)
H12_8 H 0.0692 0.4409 0.5286
C23_8 C 0.09841(13) 0.38624(18) 0.52706(4)
C24_8 C 0.19073(11) 0.37204(16) 0.56340(3)
C25_8 C 0.08388(11) 0.63117(16) 0.58097(4)
C26_8 C 0.15741(12) 0.39334(16) 0.55312(4)
C27_8 C 0.13098(12) 0.36772(17) 0.53633(4)
H13_8 H 0.1351 0.3379 0.5313
C29_8 C 0.02186(12) 0.32029(16) 0.47363(4)
C30_8 C 0.07170(15) 0.39822(20) 0.49462(4)
H14_8 H 0.0886 0.4374 0.4971
C31_8 C 0.02115(13) 0.28408(18) 0.48720(4)
H15_8 H 0.0037 0.2448 0.4847
C32_8 C 0.04831(13) 0.53787(18) 0.56595(4)
H16_8 H 0.0120 0.5343 0.5653
C33_8 C 0.04620(14) 0.30526(19) 0.50468(4)
H17_8 H 0.0457 0.2802 0.5140
C34_8 C 0.14509(13) 0.58944(18) 0.57514(4)
H18_8 H 0.1756 0.6218 0.5808
C35_8 C 0.04765(14) 0.37759(19) 0.47743(4)
H19_8 H 0.0487 0.4028 0.4681
C36_8 C 0.15129(12) 0.43654(16) 0.56074(4)
H20_8 H 0.1700 0.4540 0.5721
C37_8 C 0.11782(13) 0.45454(18) 0.55179(4)
C38_8 C 0.05654(14) 0.49558(19) 0.55888(5)
H21_8 H 0.0258 0.4634 0.5533
C39_8 C 0.09263(12) 0.58512(16) 0.57390(4)
C40_8 C 0.07151(13) 0.36202(17) 0.50848(4)
C41_8 C 0.10921(13) 0.49919(18) 0.55985(4)
C42_8 C 0.15330(13) 0.54699(18) 0.56825(4)
H22_8 H 0.1895 0.5504 0.5692
O10_8 O 0.19275(8) 0.33119(11) 0.55648(2)
O11_5 O 0.12648(8) 0.67704(11) 0.58552(2)
O12_5 O 0.21246(8) 0.39564(11) 0.57874(2)
O13_5 O 0.03362(8) 0.62089(11) 0.58208(3)
O15_8 O 0.14146(8) 0.22224(11) 0.55649(3)
O17_5 O 0.20685(8) 0.21723(7) 0.58115(2)
O18_9 O 0.01037(11) 0.79315(8) 0.58115(2)
O19_9 O 0.12087(8) 0.84985(7) 0.58793(2)
O20_5 O 0.15015(7) 0.27103(11) 0.58793(2)
O26_6 O 0.26571(9) 0.33333(13) 0.5833
H25_15 H 0.117844 0.892134 0.559414
H26_15 H 0.0500634 0.865724 0.560316
H27_8 H 0.107866 0.225711 0.559414
H28_8 H 0.134276 0.184339 0.560316
O1_15 O 0.92981(10) 0.59648(10) 0.5833
C28_8 C 0.99743(11) 0.30007(16) 0.45458(4)
O21_13 O 0.95422(11) 0.70029(8) 0.58459(3)
O1_16 O 0.66667(14) 0.07019(10) 0.5833
O21_14 O 0.74606(14) 0.04578(11) 0.58459(3)
C1_16 C 0.57118(18) 0.66306(12) 0.53490(4)
H1_16 H 0.5591 0.6283 0.5286
C2_16 C 0.61376(18) 0.71217(12) 0.52706(4)
C3_16 C 0.62796(16) 0.81869(11) 0.56340(3)
C4_16 C 0.36883(16) 0.45271(11) 0.58097(4)
C5_16 C 0.60666(16) 0.76407(11) 0.55312(4)
C6_16 C 0.63228(17) 0.76326(12) 0.53633(4)
H2_16 H 0.6621 0.7972 0.5313
C7_16 C 0.69993(16) 0.69736(11) 0.45458(4)
C8_16 C 0.67971(16) 0.70157(11) 0.47363(4)
C9_16 C 0.60178(20) 0.67348(13) 0.49462(4)
H3_16 H 0.5626 0.6512 0.4971
C10_16 C 0.71592(18) 0.73707(12) 0.48720(4)
H4_16 H 0.7552 0.7589 0.4847
C11_16 C 0.46213(18) 0.51044(12) 0.56595(4)
H5_16 H 0.4657 0.4777 0.5653
C12_16 C 0.69474(19) 0.74094(13) 0.50468(4)
H6_16 H 0.7198 0.7655 0.5140
C13_16 C 0.41056(18) 0.55565(12) 0.57514(4)
H7_16 H 0.3782 0.5538 0.5808
C14_16 C 0.62241(19) 0.67006(13) 0.47743(4)
H8_16 H 0.5972 0.6459 0.4681
C15_16 C 0.56346(16) 0.71475(11) 0.56074(4)
H9_16 H 0.5460 0.7160 0.5721
C16_16 C 0.54546(18) 0.66328(12) 0.55179(4)
C17_16 C 0.50442(19) 0.56096(13) 0.55888(5)
H10_16 H 0.5366 0.5624 0.5533
C18_16 C 0.41488(16) 0.50751(11) 0.57390(4)
C19_16 C 0.63798(17) 0.70949(11) 0.50848(4)
C20_16 C 0.50081(18) 0.61002(12) 0.55985(4)
C21_16 C 0.45301(18) 0.60631(12) 0.56825(4)
H11_16 H 0.4496 0.6391 0.5692
O2_16 O 0.66881(11) 0.86156(7) 0.55648(2)
O3_10 O 0.32296(11) 0.44944(7) 0.58552(2)
O4_10 O 0.60436(11) 0.81682(7) 0.57874(2)
O5_10 O 0.37911(11) 0.41273(7) 0.58208(3)
O7_16 O 0.77776(11) 0.91922(8) 0.55649(3)
O9_11 O 0.66667(13) 0.93238(9) 0.5833
O18_10 O 0.78277(14) 0.98963(11) 0.58115(2)
O19_10 O 0.72897(11) 0.87913(8) 0.58793(2)
H25_16 H 0.774289 0.882156 0.559414
H26_16 H 0.815661 0.949937 0.560316
O1_17 O 0.40352(10) 0.33333(14) 0.5833
O21_15 O 0.29971(8) 0.25394(14) 0.58459(3)
C1_17 C 0.24145(13) 0.00361(12) 0.63177(4)
H1_17 H 0.2641 0.0384 0.6381
C4_17 C 0.24945(11) 0.21396(11) 0.58570(4)
H3_17 H 0.2447 0.0155 0.6696
C11_17 C 0.28502(13) 0.15623(12) 0.60072(4)
H5_17 H 0.3213 0.1890 0.6014
C13_17 C 0.18824(13) 0.11102(12) 0.59153(4)
H7_17 H 0.1577 0.1129 0.5859
H8_17 H 0.2846 0.0208 0.6986
C16_17 C 0.21551(13) 0.00339(12) 0.61488(4)
C17_17 C 0.27679(14) 0.10571(13) 0.60779(5)
H10_17 H 0.3075 0.1043 0.6134
C18_17 C 0.24070(12) 0.15916(11) 0.59277(4)
C20_17 C 0.22412(13) 0.05665(12) 0.60682(4)
C21_17 C 0.18003(13) 0.06036(12) 0.59842(4)
H11_17 H 0.1438 0.0276 0.5975
C2_17 C 0.23492(13) 0.95450(12) 0.63961(4)
C3_17 C 0.14260(11) 0.84798(11) 0.60327(3)
C5_17 C 0.17592(12) 0.90260(11) 0.61355(4)
C6_17 C 0.20235(12) 0.90341(12) 0.63034(4)
H2_17 H 0.1982 0.8695 0.6354
C7_17 C 0.33590(11) 0.96931(11) 0.71209(4)
C8_17 C 0.31147(12) 0.96510(11) 0.69304(4)
C9_17 C 0.26163(15) 0.99319(13) 0.67205(4)
C10_17 C 0.31218(13) 0.92960(12) 0.67947(4)
H4_17 H 0.3296 0.9078 0.6820
C12_17 C 0.28713(14) 0.92573(13) 0.66199(4)
H6_17 H 0.2876 0.9012 0.6527
C14_17 C 0.28568(14) 0.99661(13) 0.68924(4)
C15_17 C 0.18204(12) 0.95192(11) 0.60593(4)
H9_17 H 0.1633 0.9507 0.5946
C19_17 C 0.26182(13) 0.95718(11) 0.65819(4)
O2_17 O 0.14058(8) 0.80511(7) 0.61019(2)
O7_17 O 0.19187(8) 0.74745(8) 0.61018(3)
H25_17 H 0.225467 0.784511 0.607253
H26_17 H 0.199058 0.71673 0.606351
C22_9 C 0.76215(18) 0.75855(13) 0.63177(4)
H12_9 H 0.7742 0.7359 0.6381
C23_9 C 0.71957(18) 0.76508(13) 0.63961(4)
C24_9 C 0.70537(16) 0.85740(11) 0.60327(3)
C25_9 C 0.96450(16) 0.75055(11) 0.58570(4)
C26_9 C 0.72667(16) 0.82408(12) 0.61355(4)
C27_9 C 0.70105(17) 0.79765(12) 0.63034(4)
H13_9 H 0.6712 0.8018 0.6354
C28_9 C 0.63340(16) 0.66410(11) 0.71209(4)
C29_9 C 0.65362(16) 0.68853(12) 0.69304(4)
C30_9 C 0.73155(20) 0.73837(15) 0.67205(4)
H14_9 H 0.7707 0.7553 0.6696
C31_9 C 0.61741(18) 0.68782(13) 0.67947(4)
H15_9 H 0.5781 0.6704 0.6820
C32_9 C 0.87120(18) 0.71498(13) 0.60072(4)
H16_9 H 0.8676 0.6787 0.6014
C33_9 C 0.63859(19) 0.71287(14) 0.66199(4)
H17_9 H 0.6135 0.7124 0.6527
C34_9 C 0.92277(18) 0.81176(13) 0.59153(4)
H18_9 H 0.9551 0.8423 0.5859
C35_9 C 0.71092(19) 0.71432(14) 0.68924(4)
H19_9 H 0.7361 0.7154 0.6986
C36_9 C 0.76987(16) 0.81796(12) 0.60593(4)
H20_9 H 0.7873 0.8367 0.5946
C37_9 C 0.78787(18) 0.78449(13) 0.61488(4)
C38_9 C 0.82891(19) 0.72321(14) 0.60779(5)
H21_9 H 0.7967 0.6925 0.6134
C39_9 C 0.91845(16) 0.75930(12) 0.59277(4)
C40_9 C 0.69535(17) 0.73818(13) 0.65819(4)
C41_9 C 0.83252(18) 0.77588(13) 0.60682(4)
C42_9 C 0.88032(18) 0.81997(13) 0.59842(4)
H22_9 H 0.8837 0.8562 0.5975
O10_9 O 0.66452(11) 0.85942(8) 0.61019(2)
O15_9 O 0.55557(11) 0.80813(8) 0.61018(3)
H27_9 H 0.559044 0.774533 0.607253
H28_9 H 0.517672 0.800942 0.606351
C2_18 C 0.04550(12) 0.28043(18) 0.63961(4)
C3_18 C 0.15202(11) 0.29463(16) 0.60327(3)
C5_18 C 0.09740(11) 0.27333(16) 0.61355(4)
C6_18 C 0.09659(12) 0.29895(17) 0.63034(4)
H2_18 H 0.1305 0.3288 0.6354
C7_18 C 0.03069(11) 0.36660(16) 0.71209(4)
C8_18 C 0.03490(11) 0.34638(16) 0.69304(4)
C9_18 C 0.00681(13) 0.26845(20) 0.67205(4)
C10_18 C 0.07040(12) 0.38259(18) 0.67947(4)
H4_18 H 0.0922 0.4219 0.6820
C12_18 C 0.07427(13) 0.36141(19) 0.66199(4)
H6_18 H 0.0988 0.3865 0.6527
C14_18 C 0.00339(13) 0.28908(19) 0.68924(4)
C15_18 C 0.04808(11) 0.23013(16) 0.60593(4)
H9_18 H 0.0493 0.2127 0.5946
C19_18 C 0.04282(11) 0.30465(17) 0.65819(4)
O2_18 O 0.19489(7) 0.33548(11) 0.61019(2)
O7_18 O 0.25255(8) 0.44443(11) 0.61018(3)
H25_18 H 0.215489 0.440956 0.607253
H26_18 H 0.28327 0.482328 0.606351
C1_18 C 0.99639(12) 0.23785(18) 0.63177(4)
H1_18 H 0.9616 0.2258 0.6381
C4_18 C 0.78604(11) 0.03550(16) 0.58570(4)
H3_18 H 0.9845 0.2293 0.6696
C11_18 C 0.84377(12) 0.12880(18) 0.60072(4)
H5_18 H 0.8110 0.1324 0.6014
C13_18 C 0.88898(12) 0.07723(18) 0.59153(4)
H7_18 H 0.8871 0.0449 0.5859
H8_18 H 0.9792 0.2639 0.6986
C16_18 C 0.99661(12) 0.21213(18) 0.61488(4)
C17_18 C 0.89429(13) 0.17109(19) 0.60779(5)
H10_18 H 0.8957 0.2033 0.6134
C18_18 C 0.84084(11) 0.08155(16) 0.59277(4)
C20_18 C 0.94335(12) 0.16748(18) 0.60682(4)
C21_18 C 0.93964(12) 0.11968(18) 0.59842(4)
H11_18 H 0.9724 0.1163 0.5975
C1_19 C 0.67027(12) 0.57479(13) 0.20157(4)
H1_19 H 0.7050 0.5975 0.1953
C2_19 C 0.62116(12) 0.56826(13) 0.19373(4)
C3_19 C 0.51464(11) 0.47594(11) 0.23007(3)
C4_19 C 0.88062(11) 0.58279(11) 0.24764(4)
C5_19 C 0.56926(11) 0.50926(12) 0.21979(4)
C6_19 C 0.57007(12) 0.53569(12) 0.20300(4)
H2_19 H 0.5361 0.5316 0.1980
C7_19 C 0.63597(11) 0.66924(11) 0.12125(4)
C8_19 C 0.63176(11) 0.64481(12) 0.14030(4)
C9_19 C 0.65985(13) 0.59497(15) 0.16129(4)
H3_19 H 0.6821 0.5781 0.1638
C10_19 C 0.59626(12) 0.64552(13) 0.15387(4)
H4_19 H 0.5744 0.6630 0.1514
C11_19 C 0.82289(12) 0.61836(13) 0.23262(4)
H5_19 H 0.8556 0.6547 0.2320
C12_19 C 0.59239(13) 0.62047(14) 0.17135(4)
H6_19 H 0.5678 0.6210 0.1807
C13_19 C 0.77768(12) 0.52158(13) 0.24181(4)
H7_19 H 0.7795 0.4911 0.2475
C14_19 C 0.66327(13) 0.61902(14) 0.14410(4)
H8_19 H 0.6874 0.6180 0.1348
C15_19 C 0.61858(11) 0.51538(12) 0.22741(4)
H9_19 H 0.6173 0.4967 0.2388
C16_19 C 0.67005(12) 0.54885(13) 0.21846(4)
C17_19 C 0.77237(13) 0.61013(14) 0.22555(5)
H10_19 H 0.7709 0.6409 0.2200
C18_19 C 0.82582(11) 0.57404(12) 0.24057(4)
C19_19 C 0.62384(11) 0.59516(13) 0.17515(4)
C20_19 C 0.72331(12) 0.55746(13) 0.22652(4)
C21_19 C 0.72702(12) 0.51337(13) 0.23492(4)
H11_19 H 0.6942 0.4772 0.2359
O1_18 O 0.26314(10) 0.26315(10) 0.2500
O2_19 O 0.47177(7) 0.47392(8) 0.22315(2)
O3_11 O 0.88389(7) 0.54019(8) 0.25219(2)
O4_11 O 0.51651(7) 0.45421(8) 0.24541(2)
O5_11 O 0.92060(7) 0.63305(8) 0.24875(3)
O7_19 O 0.41411(8) 0.52521(8) 0.22316(3)
O9_12 O 0.40095(9) 0.40096(9) 0.2500
C22_10 C 0.42521(13) 0.09549(18) 0.20157(4)
H12_10 H 0.4025 0.1076 0.1953
C23_10 C 0.43174(13) 0.05291(18) 0.19373(4)
C24_10 C 0.52406(11) 0.03871(16) 0.23007(3)
C25_10 C 0.41721(11) 0.29784(16) 0.24764(4)
C26_10 C 0.49074(12) 0.06001(16) 0.21979(4)
C27_10 C 0.46431(12) 0.03439(17) 0.20300(4)
H13_10 H 0.4684 0.0046 0.1980
C30_10 C 0.40503(15) 0.06489(20) 0.16129(4)
H14_10 H 0.4219 0.1041 0.1638
C32_10 C 0.38164(13) 0.20454(18) 0.23262(4)
H16_10 H 0.3453 0.2010 0.2320
C34_10 C 0.47842(13) 0.25611(18) 0.24181(4)
H18_10 H 0.5089 0.2885 0.2475
C35_10 C 0.38098(14) 0.04426(19) 0.14410(4)
H19_10 H 0.3820 0.0695 0.1348
C36_10 C 0.48462(12) 0.10321(16) 0.22741(4)
H20_10 H 0.5033 0.1207 0.2388
C37_10 C 0.45115(13) 0.12121(18) 0.21846(4)
C38_10 C 0.38987(14) 0.16225(19) 0.22555(5)
H21_10 H 0.3591 0.1301 0.2200
C39_10 C 0.42596(12) 0.25179(16) 0.24057(4)
C40_10 C 0.40484(13) 0.02869(17) 0.17515(4)
C41_10 C 0.44254(13) 0.16586(18) 0.22652(4)
C42_10 C 0.48663(13) 0.21366(18) 0.23492(4)
H22_10 H 0.5228 0.2171 0.2359
O11_6 O 0.45981(8) 0.34371(11) 0.25219(2)
O12_6 O 0.54579(8) 0.06231(11) 0.24541(2)
O13_6 O 0.36695(8) 0.28756(11) 0.24875(3)
O18_11 O 0.34371(11) 0.45981(8) 0.24781(2)
O19_11 O 0.45421(8) 0.51651(7) 0.25459(2)
O21_16 O 0.28756(11) 0.36695(8) 0.25125(3)
O26_7 O 0.59904(9) -0.00000(13) 0.2500
H25_19 H 0.451177 0.5588 0.22608
H26_19 H 0.383397 0.532391 0.226983
C28_10 C 0.33076(11) 0.96674(16) 0.12125(4)
C29_10 C 0.35519(12) 0.98696(16) 0.14030(4)
C31_10 C 0.35448(13) 0.95075(18) 0.15387(4)
H15_10 H 0.3370 0.9115 0.1514
C33_10 C 0.37953(14) 0.97193(19) 0.17135(4)
H17_10 H 0.3790 0.9469 0.1807
O10_10 O 0.52608(8) 0.99786(11) 0.22315(2)
O15_10 O 0.47479(8) 0.88891(11) 0.22316(3)
O17_6 O 0.54019(8) 0.88389(7) 0.24781(2)
O20_6 O 0.48349(7) 0.93769(11) 0.25459(2)
O26_8 O 0.59904(9) 1.00000(13) 0.2500
H27_10 H 0.4412 0.892377 0.22608
H28_10 H 0.467609 0.851006 0.226983
C7_20 C 0.03326(16) 0.36403(11) 0.12125(4)
C8_20 C 0.01304(16) 0.36824(11) 0.14030(4)
C10_20 C 0.04925(18) 0.40374(12) 0.15387(4)
H4_20 H 0.0885 0.4256 0.1514
C12_20 C 0.02807(19) 0.40761(13) 0.17135(4)
H6_20 H 0.0531 0.4322 0.1807
O1_19 O 0.00000(14) 0.73686(10) 0.2500
O2_20 O 0.00214(11) 0.52823(7) 0.22315(2)
O7_20 O 0.11109(11) 0.58589(8) 0.22316(3)
O9_13 O 0.00000(13) 0.59905(9) 0.2500
O18_12 O 0.11611(14) 0.65629(11) 0.24781(2)
O19_12 O 0.06231(11) 0.54579(8) 0.25459(2)
O21_17 O 0.07940(14) 0.71244(11) 0.25125(3)
H24_5 H 0.0394421 0.768665 0.250573
H25_20 H 0.107623 0.548823 0.22608
H26_20 H 0.148994 0.616603 0.226983
C1_20 C 0.90451(18) 0.32973(12) 0.20157(4)
H1_20 H 0.8924 0.2950 0.1953
C2_20 C 0.94709(18) 0.37884(12) 0.19373(4)
C3_20 C 0.96129(16) 0.48536(11) 0.23007(3)
C4_20 C 0.70216(16) 0.11938(11) 0.24764(4)
C5_20 C 0.93999(16) 0.43074(11) 0.21979(4)
C6_20 C 0.96561(17) 0.42993(12) 0.20300(4)
H2_20 H 0.9954 0.4639 0.1980
C9_20 C 0.93511(20) 0.34015(13) 0.16129(4)
H3_20 H 0.8959 0.3179 0.1638
C11_20 C 0.79546(18) 0.17711(12) 0.23262(4)
H5_20 H 0.7990 0.1444 0.2320
C13_20 C 0.74389(18) 0.22232(12) 0.24181(4)
H7_20 H 0.7115 0.2205 0.2475
C14_20 C 0.95574(19) 0.33673(13) 0.14410(4)
H8_20 H 0.9305 0.3126 0.1348
C15_20 C 0.89679(16) 0.38142(11) 0.22741(4)
H9_20 H 0.8793 0.3827 0.2388
C16_20 C 0.87879(18) 0.32995(12) 0.21846(4)
C17_20 C 0.83775(19) 0.22763(13) 0.22555(5)
H10_20 H 0.8699 0.2291 0.2200
C18_20 C 0.74821(16) 0.17418(11) 0.24057(4)
C19_20 C 0.97131(17) 0.37616(11) 0.17515(4)
C20_20 C 0.83414(18) 0.27669(12) 0.22652(4)
C21_20 C 0.78634(18) 0.27298(12) 0.23492(4)
H11_20 H 0.7829 0.3058 0.2359
O1_20 O 1.00000(14) 0.73686(10) 0.2500
O3_12 O 0.65629(11) 0.11611(7) 0.25219(2)
O4_12 O 0.93769(11) 0.48349(7) 0.24541(2)
O5_12 O 0.71244(11) 0.07940(7) 0.24875(3)
O9_14 O 1.00000(13) 0.59905(9) 0.2500
H23_5 H 0.981863 0.739875 0.238311
O1_21 O 0.73685(10) -0.00000(14) 0.2500
H23_6 H 0.758012 0.0181371 0.238311
O1_22 O 0.73685(10) 1.00000(14) 0.2500
O21_18 O 0.63305(8) 0.92060(14) 0.25125(3)
H24_6 H 0.729222 0.960558 0.250573
C1_21 C 0.57479(13) 0.67027(12) 0.29843(4)
H1_21 H 0.5975 0.7050 0.3047
C2_21 C 0.56826(13) 0.62116(12) 0.30627(4)
C3_21 C 0.47594(11) 0.51464(11) 0.26993(3)
C4_21 C 0.58279(11) 0.88062(11) 0.25236(4)
C5_21 C 0.50926(12) 0.56926(11) 0.28021(4)
C6_21 C 0.53569(12) 0.57007(12) 0.29700(4)
H2_21 H 0.5316 0.5361 0.3020
C7_21 C 0.66924(11) 0.63597(11) 0.37875(4)
C8_21 C 0.64481(12) 0.63176(11) 0.35970(4)
C9_21 C 0.59497(15) 0.65985(13) 0.33871(4)
H3_21 H 0.5781 0.6821 0.3362
C10_21 C 0.64552(13) 0.59626(12) 0.34613(4)
H4_21 H 0.6630 0.5744 0.3486
C11_21 C 0.61836(13) 0.82289(12) 0.26738(4)
H5_21 H 0.6547 0.8556 0.2680
C12_21 C 0.62047(14) 0.59239(13) 0.32865(4)
H6_21 H 0.6210 0.5678 0.3193
C13_21 C 0.52158(13) 0.77768(12) 0.25819(4)
H7_21 H 0.4911 0.7795 0.2525
C14_21 C 0.61902(14) 0.66327(13) 0.35590(4)
H8_21 H 0.6180 0.6874 0.3652
C15_21 C 0.51538(12) 0.61858(11) 0.27259(4)
H9_21 H 0.4967 0.6173 0.2612
C16_21 C 0.54885(13) 0.67005(12) 0.28154(4)
C17_21 C 0.61013(14) 0.77237(13) 0.27445(5)
H10_21 H 0.6409 0.7709 0.2800
C18_21 C 0.57404(12) 0.82582(11) 0.25943(4)
C19_21 C 0.59516(13) 0.62384(11) 0.32485(4)
C20_21 C 0.55746(13) 0.72331(12) 0.27348(4)
C21_21 C 0.51337(13) 0.72702(12) 0.26508(4)
H11_21 H 0.4772 0.6942 0.2641
O2_21 O 0.47392(8) 0.47177(7) 0.27685(2)
O7_21 O 0.52521(8) 0.41411(8) 0.27684(3)
C22_11 C 0.09549(18) 0.42521(13) 0.29843(4)
H12_11 H 0.1076 0.4025 0.3047
C23_11 C 0.05291(18) 0.43174(13) 0.30627(4)
C24_11 C 0.03871(16) 0.52406(11) 0.26993(3)
C25_11 C 0.29784(16) 0.41721(11) 0.25236(4)
C26_11 C 0.06001(16) 0.49074(12) 0.28021(4)
C27_11 C 0.03439(17) 0.46431(12) 0.29700(4)
H13_11 H 0.0046 0.4684 0.3020
C30_11 C 0.06489(20) 0.40503(15) 0.33871(4)
H14_11 H 0.1041 0.4219 0.3362
C32_11 C 0.20454(18) 0.38164(13) 0.26738(4)
H16_11 H 0.2010 0.3453 0.2680
C34_11 C 0.25611(18) 0.47842(13) 0.25819(4)
H18_11 H 0.2885 0.5089 0.2525
C35_11 C 0.04426(19) 0.38098(14) 0.35590(4)
H19_11 H 0.0695 0.3820 0.3652
C36_11 C 0.10321(16) 0.48462(12) 0.27259(4)
H20_11 H 0.1207 0.5033 0.2612
C37_11 C 0.12121(18) 0.45115(13) 0.28154(4)
C38_11 C 0.16225(19) 0.38987(14) 0.27445(5)
H21_11 H 0.1301 0.3591 0.2800
C39_11 C 0.25179(16) 0.42596(12) 0.25943(4)
C40_11 C 0.02869(17) 0.40484(13) 0.32485(4)
C41_11 C 0.16586(18) 0.44254(13) 0.27348(4)
C42_11 C 0.21366(18) 0.48663(13) 0.26508(4)
H22_11 H 0.2171 0.5228 0.2641
H25_21 H 0.5588 0.451177 0.27392
H26_21 H 0.532391 0.383397 0.273017
C28_11 C 0.96674(16) 0.33076(11) 0.37875(4)
C29_11 C 0.98696(16) 0.35519(12) 0.35970(4)
C31_11 C 0.95075(18) 0.35448(13) 0.34613(4)
H15_11 H 0.9115 0.3370 0.3486
C33_11 C 0.97193(19) 0.37953(14) 0.32865(4)
H17_11 H 0.9469 0.3790 0.3193
O10_11 O 0.99786(11) 0.52608(8) 0.27685(2)
O15_11 O 0.88891(11) 0.47479(8) 0.27684(3)
H27_11 H 0.892377 0.4412 0.27392
H28_11 H 0.851006 0.467609 0.273017
C7_22 C 0.36403(11) 0.03326(16) 0.37875(4)
C8_22 C 0.36824(11) 0.01304(16) 0.35970(4)
C10_22 C 0.40374(12) 0.04925(18) 0.34613(4)
H4_22 H 0.4256 0.0885 0.3486
C12_22 C 0.40761(13) 0.02807(19) 0.32865(4)
H6_22 H 0.4322 0.0531 0.3193
O2_22 O 0.52823(7) 0.00214(11) 0.27685(2)
O7_22 O 0.58589(8) 0.11109(11) 0.27684(3)
H24_7 H 0.768665 0.0394421 0.249427
H25_22 H 0.548823 0.107623 0.27392
H26_22 H 0.616603 0.148994 0.273017
C1_22 C 0.32973(12) 0.90451(18) 0.29843(4)
H1_22 H 0.2950 0.8924 0.3047
C2_22 C 0.37884(12) 0.94709(18) 0.30627(4)
C3_22 C 0.48536(11) 0.96129(16) 0.26993(3)
C4_22 C 0.11938(11) 0.70216(16) 0.25236(4)
C5_22 C 0.43074(11) 0.93999(16) 0.28021(4)
C6_22 C 0.42993(12) 0.96561(17) 0.29700(4)
H2_22 H 0.4639 0.9954 0.3020
C9_22 C 0.34015(13) 0.93511(20) 0.33871(4)
H3_22 H 0.3179 0.8959 0.3362
C11_22 C 0.17711(12) 0.79546(18) 0.26738(4)
H5_22 H 0.1444 0.7990 0.2680
C13_22 C 0.22232(12) 0.74389(18) 0.25819(4)
H7_22 H 0.2205 0.7115 0.2525
C14_22 C 0.33673(13) 0.95574(19) 0.35590(4)
H8_22 H 0.3126 0.9305 0.3652
C15_22 C 0.38142(11) 0.89679(16) 0.27259(4)
H9_22 H 0.3827 0.8793 0.2612
C16_22 C 0.32995(12) 0.87879(18) 0.28154(4)
C17_22 C 0.22763(13) 0.83775(19) 0.27445(5)
H10_22 H 0.2291 0.8699 0.2800
C18_22 C 0.17418(11) 0.74821(16) 0.25943(4)
C19_22 C 0.37616(11) 0.97131(17) 0.32485(4)
C20_22 C 0.27669(12) 0.83414(18) 0.27348(4)
C21_22 C 0.27298(12) 0.78634(18) 0.26508(4)
H11_22 H 0.3058 0.7829 0.2641
H23_7 H 0.739875 0.981863 0.261689
H23_8 H 0.0181371 0.758012 0.261689
H24_8 H 0.960558 0.729222 0.249427
C1_23 C 0.00361(12) 0.24145(13) 0.86823(4)
H1_23 H 0.0384 0.2641 0.8619
C4_23 C 0.21396(11) 0.24945(11) 0.91430(4)
H3_23 H 0.0155 0.2447 0.8304
C11_23 C 0.15623(12) 0.28502(13) 0.89928(4)
H5_23 H 0.1890 0.3213 0.8986
C13_23 C 0.11102(12) 0.18824(13) 0.90847(4)
H7_23 H 0.1129 0.1577 0.9141
H8_23 H 0.0208 0.2846 0.8014
C16_23 C 0.00339(12) 0.21551(13) 0.88512(4)
C17_23 C 0.10571(13) 0.27679(14) 0.89221(5)
H10_23 H 0.1043 0.3075 0.8866
C18_23 C 0.15916(11) 0.24070(12) 0.90723(4)
C20_23 C 0.05665(12) 0.22412(13) 0.89318(4)
C21_23 C 0.06036(12) 0.18003(13) 0.90158(4)
H11_23 H 0.0276 0.1438 0.9025
C2_23 C 0.95450(12) 0.23492(13) 0.86039(4)
C3_23 C 0.84798(11) 0.14260(11) 0.89673(3)
C5_23 C 0.90260(11) 0.17592(12) 0.88645(4)
C6_23 C 0.90341(12) 0.20235(12) 0.86966(4)
H2_23 H 0.8695 0.1982 0.8646
C7_23 C 0.96931(11) 0.33590(11) 0.78791(4)
C8_23 C 0.96510(11) 0.31147(12) 0.80696(4)
C9_23 C 0.99319(13) 0.26163(15) 0.82795(4)
C10_23 C 0.92960(12) 0.31218(13) 0.82053(4)
H4_23 H 0.9078 0.3296 0.8180
C12_23 C 0.92573(13) 0.28713(14) 0.83801(4)
H6_23 H 0.9012 0.2876 0.8473
C14_23 C 0.99661(13) 0.28568(14) 0.81076(4)
C15_23 C 0.95192(11) 0.18204(12) 0.89407(4)
H9_23 H 0.9507 0.1633 0.9054
C19_23 C 0.95718(11) 0.26182(13) 0.84181(4)
O2_23 O 0.80511(7) 0.14058(8) 0.88981(2)
O7_23 O 0.74745(8) 0.19187(8) 0.88982(3)
H25_23 H 0.784511 0.225467 0.892747
H26_23 H 0.71673 0.199058 0.893649
C22_12 C 0.75855(13) 0.76215(18) 0.86823(4)
H12_12 H 0.7359 0.7742 0.8619
C23_12 C 0.76508(13) 0.71957(18) 0.86039(4)
C24_12 C 0.85740(11) 0.70537(16) 0.89673(3)
C25_12 C 0.75055(11) 0.96450(16) 0.91430(4)
C26_12 C 0.82408(12) 0.72667(16) 0.88645(4)
C27_12 C 0.79765(12) 0.70105(17) 0.86966(4)
H13_12 H 0.8018 0.6712 0.8646
C28_12 C 0.66410(11) 0.63340(16) 0.78791(4)
C29_12 C 0.68853(12) 0.65362(16) 0.80696(4)
C30_12 C 0.73837(15) 0.73155(20) 0.82795(4)
H14_12 H 0.7553 0.7707 0.8304
C31_12 C 0.68782(13) 0.61741(18) 0.82053(4)
H15_12 H 0.6704 0.5781 0.8180
C32_12 C 0.71498(13) 0.87120(18) 0.89928(4)
H16_12 H 0.6787 0.8676 0.8986
C33_12 C 0.71287(14) 0.63859(19) 0.83801(4)
H17_12 H 0.7124 0.6135 0.8473
C34_12 C 0.81176(13) 0.92277(18) 0.90847(4)
H18_12 H 0.8423 0.9551 0.9141
C35_12 C 0.71432(14) 0.71092(19) 0.81076(4)
H19_12 H 0.7154 0.7361 0.8014
C36_12 C 0.81796(12) 0.76987(16) 0.89407(4)
H20_12 H 0.8367 0.7873 0.9054
C37_12 C 0.78449(13) 0.78787(18) 0.88512(4)
C38_12 C 0.72321(14) 0.82891(19) 0.89221(5)
H21_12 H 0.6925 0.7967 0.8866
C39_12 C 0.75930(12) 0.91845(16) 0.90723(4)
C40_12 C 0.73818(13) 0.69535(17) 0.84181(4)
C41_12 C 0.77588(13) 0.83252(18) 0.89318(4)
C42_12 C 0.81997(13) 0.88032(18) 0.90158(4)
H22_12 H 0.8562 0.8837 0.9025
O10_12 O 0.85942(8) 0.66452(11) 0.88981(2)
O15_12 O 0.80813(8) 0.55557(11) 0.88982(3)
H27_12 H 0.774533 0.559044 0.892747
H28_12 H 0.800942 0.517672 0.893649
C2_24 C 0.28043(18) 0.04550(12) 0.86039(4)
C3_24 C 0.29463(16) 0.15202(11) 0.89673(3)
C5_24 C 0.27333(16) 0.09740(11) 0.88645(4)
C6_24 C 0.29895(17) 0.09659(12) 0.86966(4)
H2_24 H 0.3288 0.1305 0.8646
C7_24 C 0.36660(16) 0.03069(11) 0.78791(4)
C8_24 C 0.34638(16) 0.03490(11) 0.80696(4)
C9_24 C 0.26845(20) 0.00681(13) 0.82795(4)
C10_24 C 0.38259(18) 0.07040(12) 0.82053(4)
H4_24 H 0.4219 0.0922 0.8180
C12_24 C 0.36141(19) 0.07427(13) 0.83801(4)
H6_24 H 0.3865 0.0988 0.8473
C14_24 C 0.28908(19) 0.00339(13) 0.81076(4)
C15_24 C 0.23013(16) 0.04808(11) 0.89407(4)
H9_24 H 0.2127 0.0493 0.9054
C19_24 C 0.30465(17) 0.04282(11) 0.84181(4)
O2_24 O 0.33548(11) 0.19489(7) 0.88981(2)
O7_24 O 0.44443(11) 0.25255(8) 0.88982(3)
H25_24 H 0.440956 0.215489 0.892747
H26_24 H 0.482328 0.28327 0.893649
C1_24 C 0.23785(18) 0.99639(12) 0.86823(4)
H1_24 H 0.2258 0.9616 0.8619
C4_24 C 0.03550(16) 0.78604(11) 0.91430(4)
H3_24 H 0.2293 0.9845 0.8304
C11_24 C 0.12880(18) 0.84377(12) 0.89928(4)
H5_24 H 0.1324 0.8110 0.8986
C13_24 C 0.07723(18) 0.88898(12) 0.90847(4)
H7_24 H 0.0449 0.8871 0.9141
H8_24 H 0.2639 0.9792 0.8014
C16_24 C 0.21213(18) 0.99661(12) 0.88512(4)
C17_24 C 0.17109(19) 0.89429(13) 0.89221(5)
H10_24 H 0.2033 0.8957 0.8866
C18_24 C 0.08155(16) 0.84084(11) 0.90723(4)
C20_24 C 0.16748(18) 0.94335(12) 0.89318(4)
C21_24 C 0.11968(18) 0.93964(12) 0.90158(4)
H11_24 H 0.1163 0.9724 0.9025
loop_
_geom_bond_atom_site_label_1
_geom_bond_atom_site_label_2
_geom_bond_site_symmetry_1
_geom_bond_site_symmetry_2
O14 C28 1_555 1_555
Al10 O14 1_555 1_555
Al2 O2 1_555 1_555
C1 H1 1_555 1_555
C2 C1 1_555 1_555
C3 C5 1_555 1_555
C4 C18 1_555 1_555
C5 C6 1_555 1_555
C6 C2 1_555 1_555
H2 C6 1_555 1_555
C11 H5 1_555 1_555
H6 C12 1_555 1_555
C13 H7 1_555 1_555
C15 C5 1_555 1_555
H9 C15 1_555 1_555
C16 C1 1_555 1_555
C17 C11 1_555 1_555
H10 C17 1_555 1_555
C18 C11 1_555 1_555
C19 C2 1_555 1_555
C20 C16 1_555 1_555
C21 C13 1_555 1_555
H11 C21 1_555 1_555
O2 C3 1_555 1_555
O3 C4 1_555 1_555
O4 C3 1_555 1_555
O5 C4 1_555 1_555
O7 Al2 1_555 1_555
O9 Al1 1_555 1_555
Al3 O10 1_555 1_555
C22 H12 1_555 1_555
C23 C22 1_555 1_555
C24 C26 1_555 1_555
C25 C39 1_555 1_555
C26 C27 1_555 1_555
C27 C23 1_555 1_555
H13 C27 1_555 1_555
C32 H16 1_555 1_555
H17 C33 1_555 1_555
C34 H18 1_555 1_555
C36 C26 1_555 1_555
H20 C36 1_555 1_555
C37 C22 1_555 1_555
C38 C32 1_555 1_555
H21 C38 1_555 1_555
C39 C32 1_555 1_555
C40 C23 1_555 1_555
C41 C37 1_555 1_555
C42 C34 1_555 1_555
H22 C42 1_555 1_555
O10 C24 1_555 1_555
O11 C25 1_555 1_555
O12 C24 1_555 1_555
O13 Al1 1_555 1_555
O15 Al3 1_555 1_555
Al4 O5 1_555 1_555
Al7 O4 1_555 1_555
Al8 O12 1_555 1_555
Al9 O3 1_555 1_555
O17 Al3 1_555 1_555
O18 Al2 1_555 1_555
O19 Al2 1_555 1_555
O20 Al3 1_555 1_555
O22 Al3 1_555 1_555
O23 Al2 1_555 1_555
O26 Al3 1_555 1_555
Al2 O9 1_555 1_555
C12 C19 1_555 1_555
C13 C18 1_555 1_555
C15 C16 1_555 1_555
C17 C20 1_555 1_555
C20 C21 1_555 1_555
O9 Al7 1_555 1_555
C25 O13 1_555 1_555
C33 C40 1_555 1_555
C34 C39 1_555 1_555
C36 C37 1_555 1_555
C38 C41 1_555 1_555
C41 C42 1_555 1_555
O11 Al7 1_555 1_555
Al8 O26 1_555 1_555
O7 H25 1_555 1_555
O7 H26 1_555 1_555
O15 H27 1_555 1_555
O15 H28 1_555 1_555
C8 C10 1_555 1_555
C9 H3 1_555 1_555
C10 H4 1_555 1_555
C14 C8 1_555 1_555
H8 C14 1_555 1_555
C29 C31 1_555 1_555
C30 H14 1_555 1_555
C31 H15 1_555 1_555
C35 C29 1_555 1_555
H19 C35 1_555 1_555
C9 C14 1_555 1_555
C30 C35 1_555 1_555
O6 C7 1_555 1_555
Al11 O6 1_555 1_555
Al2_2 O2_2 1_555 1_555
C1_2 H1_2 1_555 1_555
C2_2 C1_2 1_555 1_555
C3_2 C5_2 1_555 1_555
C4_2 C18_2 1_555 1_555
C5_2 C6_2 1_555 1_555
C6_2 C2_2 1_555 1_555
H2_2 C6_2 1_555 1_555
C11_2 H5_2 1_555 1_555
H6_2 C12_2 1_555 1_555
C13_2 H7_2 1_555 1_555
C15_2 C5_2 1_555 1_555
H9_2 C15_2 1_555 1_555
C16_2 C1_2 1_555 1_555
C17_2 C11_2 1_555 1_555
H10_2 C17_2 1_555 1_555
C18_2 C11_2 1_555 1_555
C19_2 C2_2 1_555 1_555
C20_2 C16_2 1_555 1_555
C21_2 C13_2 1_555 1_555
H11_2 C21_2 1_555 1_555
O2_2 C3_2 1_555 1_555
O3_2 C4_2 1_555 1_555
O4_2 C3_2 1_555 1_555
O5_2 C4_2 1_555 1_555
O7_2 Al2_2 1_555 1_555
O9_2 Al4 1_555 1_555
Al4_2 O5_2 1_555 1_555
Al9 O4_2 1_555 1_555
Al8 O3_2 1_555 1_555
O18_2 Al2_2 1_555 1_555
O19_2 Al2_2 1_555 1_555
O23_2 Al2_2 1_555 1_555
Al2_2 O9_2 1_555 1_555
C12_2 C19_2 1_555 1_555
C13_2 C18_2 1_555 1_555
C15_2 C16_2 1_555 1_555
C17_2 C20_2 1_555 1_555
C20_2 C21_2 1_555 1_555
O9_2 Al9 1_555 1_555
O7_2 H25_2 1_555 1_555
O7_2 H26_2 1_555 1_555
C7_2 C8_2 1_555 1_555
C8_2 C10_2 1_555 1_555
C9_2 H3_2 1_555 1_555
C10_2 H4_2 1_555 1_555
C14_2 C8_2 1_555 1_555
H8_2 C14_2 1_555 1_555
O6_2 C7_2 1_555 1_555
O8_2 C7_2 1_555 1_555
Al6_2 O8_2 1_555 1_555
Al11_2 O6_2 1_555 1_555
C9_2 C14_2 1_555 1_555
Al4_2 O1_3 1_555 1_555
O26 Al4_2 1_555 1_555
O21_3 Al4_2 1_555 1_555
O24_3 Al4_2 1_555 1_555
O25_3 Al4_2 1_555 1_555
O14_2 C28_2 1_555 1_555
Al10_2 O14_2 1_555 1_555
Al2_3 O2_3 1_555 1_555
C1_3 H1_3 1_555 1_555
C2_3 C1_3 1_555 1_555
C3_3 C5_3 1_555 1_555
C4_3 C18_3 1_555 1_555
C5_3 C6_3 1_555 1_555
C6_3 C2_3 1_555 1_555
H2_3 C6_3 1_555 1_555
C8_3 C10_3 1_555 1_555
C9_3 H3_3 1_555 1_555
C10_3 H4_3 1_555 1_555
C11_3 H5_3 1_555 1_555
C12_3 C10_3 1_555 1_555
H6_3 C12_3 1_555 1_555
C13_3 H7_3 1_555 1_555
C14_3 C8_3 1_555 1_555
H8_3 C14_3 1_555 1_555
C15_3 C5_3 1_555 1_555
H9_3 C15_3 1_555 1_555
C16_3 C1_3 1_555 1_555
C17_3 C11_3 1_555 1_555
H10_3 C17_3 1_555 1_555
C18_3 C11_3 1_555 1_555
C19_3 C2_3 1_555 1_555
C20_3 C16_3 1_555 1_555
C21_3 C13_3 1_555 1_555
H11_3 C21_3 1_555 1_555
O2_3 C3_3 1_555 1_555
O3_3 C4_3 1_555 1_555
O4_3 C3_3 1_555 1_555
O5_3 C4_3 1_555 1_555
O7_3 Al2_3 1_555 1_555
O9_3 Al1_2 1_555 1_555
Al3_2 O10_2 1_555 1_555
C22_2 H12_2 1_555 1_555
C23_2 C22_2 1_555 1_555
C24_2 C26_2 1_555 1_555
C25_2 C39_2 1_555 1_555
C26_2 C27_2 1_555 1_555
C27_2 C23_2 1_555 1_555
H13_2 C27_2 1_555 1_555
C29_2 C31_2 1_555 1_555
C30_2 H14_2 1_555 1_555
C31_2 H15_2 1_555 1_555
C32_2 H16_2 1_555 1_555
C33_2 C31_2 1_555 1_555
H17_2 C33_2 1_555 1_555
C34_2 H18_2 1_555 1_555
C35_2 C29_2 1_555 1_555
H19_2 C35_2 1_555 1_555
C36_2 C26_2 1_555 1_555
H20_2 C36_2 1_555 1_555
C37_2 C22_2 1_555 1_555
C38_2 C32_2 1_555 1_555
H21_2 C38_2 1_555 1_555
C39_2 C32_2 1_555 1_555
C40_2 C23_2 1_555 1_555
C41_2 C37_2 1_555 1_555
C42_2 C34_2 1_555 1_555
H22_2 C42_2 1_555 1_555
O10_2 C24_2 1_555 1_555
O11_2 C25_2 1_555 1_555
O12_2 C24_2 1_555 1_555
O13_2 Al1_2 1_555 1_555
O15_2 Al3_2 1_555 1_555
Al4_3 O5_3 1_555 1_555
Al7_2 O4_3 1_555 1_555
Al8_2 O12_2 1_555 1_555
Al9_2 O3_3 1_555 1_555
O17_2 Al3_2 1_555 1_555
O18_3 Al2_3 1_555 1_555
O19_3 Al2_3 1_555 1_555
O20_2 Al3_2 1_555 1_555
O22_2 Al3_2 1_555 1_555
O23_3 Al2_3 1_555 1_555
O26_2 Al3_2 1_555 1_555
Al2_3 O9_3 1_555 1_555
C9_3 C14_3 1_555 1_555
C9_3 C19_3 1_555 1_555
C12_3 C19_3 1_555 1_555
C13_3 C18_3 1_555 1_555
C15_3 C16_3 1_555 1_555
C17_3 C20_3 1_555 1_555
C20_3 C21_3 1_555 1_555
O9_3 Al7_2 1_555 1_555
C25_2 O13_2 1_555 1_555
C30_2 C35_2 1_555 1_555
C30_2 C40_2 1_555 1_555
C33_2 C40_2 1_555 1_555
C34_2 C39_2 1_555 1_555
C36_2 C37_2 1_555 1_555
C38_2 C41_2 1_555 1_555
C41_2 C42_2 1_555 1_555
O11_2 Al7_2 1_555 1_555
Al8_2 O26_2 1_555 1_555
O7_3 H25_3 1_555 1_555
O7_3 H26_3 1_555 1_555
O15_2 H27_2 1_555 1_555
O15_2 H28_2 1_555 1_555
O6_3 C7_3 1_555 1_555
Al11_3 O6_3 1_555 1_555
Al2_4 O2_4 1_555 1_555
C1_4 H1_4 1_555 1_555
C2_4 C1_4 1_555 1_555
C3_4 C5_4 1_555 1_555
C4_4 C18_4 1_555 1_555
C5_4 C6_4 1_555 1_555
C6_4 C2_4 1_555 1_555
H2_4 C6_4 1_555 1_555
C7_4 C8_4 1_555 1_555
C8_4 C10_4 1_555 1_555
C9_4 H3_4 1_555 1_555
C10_4 H4_4 1_555 1_555
C11_4 H5_4 1_555 1_555
C12_4 C10_4 1_555 1_555
H6_4 C12_4 1_555 1_555
C13_4 H7_4 1_555 1_555
C14_4 C8_4 1_555 1_555
H8_4 C14_4 1_555 1_555
C15_4 C5_4 1_555 1_555
H9_4 C15_4 1_555 1_555
C16_4 C1_4 1_555 1_555
C17_4 C11_4 1_555 1_555
H10_4 C17_4 1_555 1_555
C18_4 C11_4 1_555 1_555
C19_4 C2_4 1_555 1_555
C20_4 C16_4 1_555 1_555
C21_4 C13_4 1_555 1_555
H11_4 C21_4 1_555 1_555
O2_4 C3_4 1_555 1_555
O3_4 C4_4 1_555 1_555
O4_4 C3_4 1_555 1_555
O5_4 C4_4 1_555 1_555
O6_4 C7_4 1_555 1_555
O7_4 Al2_4 1_555 1_555
O8_4 C7_4 1_555 1_555
O9_4 Al4_3 1_555 1_555
Al4_4 O5_4 1_555 1_555
Al6_4 O8_4 1_555 1_555
Al9_2 O4_4 1_555 1_555
Al8_2 O3_4 1_555 1_555
Al11_4 O6_4 1_555 1_555
O18_4 Al2_4 1_555 1_555
O19_4 Al2_4 1_555 1_555
O23_4 Al2_4 1_555 1_555
Al2_4 O9_4 1_555 1_555
C9_4 C14_4 1_555 1_555
C9_4 C19_4 1_555 1_555
C12_4 C19_4 1_555 1_555
C13_4 C18_4 1_555 1_555
C15_4 C16_4 1_555 1_555
C17_4 C20_4 1_555 1_555
C20_4 C21_4 1_555 1_555
O9_4 Al9_2 1_555 1_555
O7_4 H25_4 1_555 1_555
O7_4 H26_4 1_555 1_555
Al4_4 O1_6 1_555 1_555
O26_2 Al4_4 1_555 1_555
O21_6 Al4_4 1_555 1_555
O24_6 Al4_4 1_555 1_555
O25_6 Al4_4 1_555 1_555
Al9_2 O10_3 1_555 1_555
C22_3 H12_3 1_555 1_555
C23_3 C22_3 1_555 1_555
C24_3 C26_3 1_555 1_555
C25_3 C39_3 1_555 1_555
C26_3 C27_3 1_555 1_555
C27_3 C23_3 1_555 1_555
H13_3 C27_3 1_555 1_555
C28_3 C29_3 1_555 1_555
C29_3 C31_3 1_555 1_555
C30_3 H14_3 1_555 1_555
C31_3 H15_3 1_555 1_555
C32_3 H16_3 1_555 1_555
C33_3 C31_3 1_555 1_555
H17_3 C33_3 1_555 1_555
C34_3 H18_3 1_555 1_555
C35_3 C29_3 1_555 1_555
H19_3 C35_3 1_555 1_555
C36_3 C26_3 1_555 1_555
H20_3 C36_3 1_555 1_555
C37_3 C22_3 1_555 1_555
C38_3 C32_3 1_555 1_555
H21_3 C38_3 1_555 1_555
C39_3 C32_3 1_555 1_555
C40_3 C23_3 1_555 1_555
C41_3 C37_3 1_555 1_555
C42_3 C34_3 1_555 1_555
H22_3 C42_3 1_555 1_555
O10_3 C24_3 1_555 1_555
O19_4 C24_3 1_555 1_555
O14_3 C28_3 1_555 1_555
O15_3 Al9_2 1_555 1_555
O16_3 C28_3 1_555 1_555
Al5_3 O16_3 1_555 1_555
Al10_3 O14_3 1_555 1_555
O22_3 Al9_2 1_555 1_555
C25_3 O21_4 1_555 1_555
C30_3 C35_3 1_555 1_555
C30_3 C40_3 1_555 1_555
C33_3 C40_3 1_555 1_555
C34_3 C39_3 1_555 1_555
C36_3 C37_3 1_555 1_555
C38_3 C41_3 1_555 1_555
C41_3 C42_3 1_555 1_555
O15_3 H27_3 1_555 1_555
O15_3 H28_3 1_555 1_555
Al7_2 O2_5 1_555 1_555
C3_5 C5_5 1_555 1_555
C5_5 C6_5 1_555 1_555
C6_5 C2_5 1_555 1_555
H2_5 C6_5 1_555 1_555
C7_5 C8_5 1_555 1_555
C8_5 C10_5 1_555 1_555
C10_5 H4_5 1_555 1_555
C12_5 C10_5 1_555 1_555
H6_5 C12_5 1_555 1_555
C14_5 C8_5 1_555 1_555
C15_5 C5_5 1_555 1_555
H9_5 C15_5 1_555 1_555
C19_5 C2_5 1_555 1_555
O2_5 C3_5 1_555 1_555
O19_3 C3_5 1_555 1_555
O6_5 C7_5 1_555 1_555
O7_5 Al7_2 1_555 1_555
O8_5 C7_5 1_555 1_555
Al6_5 O8_5 1_555 1_555
Al11_5 O6_5 1_555 1_555
O23_5 Al7_2 1_555 1_555
C9_5 C14_5 1_555 1_555
C9_5 C19_5 1_555 1_555
C12_5 C19_5 1_555 1_555
O7_5 H25_5 1_555 1_555
O7_5 H26_5 1_555 1_555
C1_5 H1_5 1_555 1_555
C4_5 C18_5 1_555 1_555
C11_5 H5_5 1_555 1_555
C13_5 H7_5 1_555 1_555
C16_5 C1_5 1_555 1_555
C17_5 C11_5 1_555 1_555
H10_5 C17_5 1_555 1_555
C18_5 C11_5 1_555 1_555
C20_5 C16_5 1_555 1_555
C21_5 C13_5 1_555 1_555
H11_5 C21_5 1_555 1_555
O17_2 C4_5 1_555 1_555
O21_6 C4_5 1_555 1_555
C13_5 C18_5 1_555 1_555
C17_5 C20_5 1_555 1_555
C20_5 C21_5 1_555 1_555
C1_6 H1_6 1_555 1_555
C4_6 C18_6 1_555 1_555
C11_6 H5_6 1_555 1_555
C13_6 H7_6 1_555 1_555
C16_6 C1_6 1_555 1_555
C17_6 C11_6 1_555 1_555
H10_6 C17_6 1_555 1_555
C18_6 C11_6 1_555 1_555
C20_6 C16_6 1_555 1_555
C21_6 C13_6 1_555 1_555
H11_6 C21_6 1_555 1_555
O21_5 C4_6 1_555 1_555
C13_6 C18_6 1_555 1_555
C17_6 C20_6 1_555 1_555
C20_6 C21_6 1_555 1_555
Al8_2 O2_6 1_555 1_555
C3_6 C5_6 1_555 1_555
C5_6 C6_6 1_555 1_555
C6_6 C2_6 1_555 1_555
H2_6 C6_6 1_555 1_555
C7_6 C8_6 1_555 1_555
C8_6 C10_6 1_555 1_555
C10_6 H4_6 1_555 1_555
C12_6 C10_6 1_555 1_555
H6_6 C12_6 1_555 1_555
C14_6 C8_6 1_555 1_555
C15_6 C5_6 1_555 1_555
H9_6 C15_6 1_555 1_555
C19_6 C2_6 1_555 1_555
O2_6 C3_6 1_555 1_555
O20_2 C3_6 1_555 1_555
O6_6 C7_6 1_555 1_555
O7_6 Al8_2 1_555 1_555
O8_6 C7_6 1_555 1_555
Al6_8 O8_6 1_555 1_555
Al11_6 O6_6 1_555 1_555
O23_6 Al8_2 1_555 1_555
C9_6 C14_6 1_555 1_555
C9_6 C19_6 1_555 1_555
C12_6 C19_6 1_555 1_555
O7_6 H25_6 1_555 1_555
O7_6 H26_6 1_555 1_555
Al3_3 O10_4 1_555 1_555
C28_4 C29_4 1_555 1_555
C29_4 C31_4 1_555 1_555
C31_4 H15_4 1_555 1_555
C33_4 C31_4 1_555 1_555
H17_4 C33_4 1_555 1_555
O14_4 C28_4 1_555 1_555
O15_4 Al3_3 1_555 1_555
Al10_4 O14_4 1_555 1_555
O17_3 Al3_3 1_555 1_555
O20_3 Al3_3 1_555 1_555
O22_4 Al3_3 1_555 1_555
O26_3 Al3_3 1_555 1_555
O15_4 H27_4 1_555 1_555
O15_4 H28_4 1_555 1_555
Al1_3 O1_7 1_555 1_555
Al2_5 O2_7 1_555 1_555
C1_7 H1_7 1_555 1_555
C2_7 C1_7 1_555 1_555
C3_7 C5_7 1_555 1_555
C4_7 C18_7 1_555 1_555
C5_7 C6_7 1_555 1_555
C6_7 C2_7 1_555 1_555
H2_7 C6_7 1_555 1_555
C7_7 C8_7 1_555 1_555
C8_7 C10_7 1_555 1_555
C9_7 H3_7 1_555 1_555
C10_7 H4_7 1_555 1_555
C11_7 H5_7 1_555 1_555
C12_7 C10_7 1_555 1_555
H6_7 C12_7 1_555 1_555
C13_7 H7_7 1_555 1_555
C14_7 C8_7 1_555 1_555
H8_7 C14_7 1_555 1_555
C15_7 C5_7 1_555 1_555
H9_7 C15_7 1_555 1_555
C16_7 C1_7 1_555 1_555
C17_7 C11_7 1_555 1_555
H10_7 C17_7 1_555 1_555
C18_7 C11_7 1_555 1_555
C19_7 C2_7 1_555 1_555
C20_7 C16_7 1_555 1_555
C21_7 C13_7 1_555 1_555
H11_7 C21_7 1_555 1_555
O2_7 C3_7 1_555 1_555
O3_5 C4_7 1_555 1_555
O4_5 C3_7 1_555 1_555
O5_5 C4_7 1_555 1_555
O6_7 C7_7 1_555 1_555
O7_7 Al2_5 1_555 1_555
O8_7 C7_7 1_555 1_555
O9_5 Al1_3 1_555 1_555
C22_4 H12_4 1_555 1_555
C23_4 C22_4 1_555 1_555
C24_4 C26_4 1_555 1_555
C25_4 C39_4 1_555 1_555
C26_4 C27_4 1_555 1_555
C27_4 C23_4 1_555 1_555
H13_4 C27_4 1_555 1_555
C30_4 H14_4 1_555 1_555
C32_4 H16_4 1_555 1_555
C34_4 H18_4 1_555 1_555
H19_4 C35_4 1_555 1_555
C36_4 C26_4 1_555 1_555
H20_4 C36_4 1_555 1_555
C37_4 C22_4 1_555 1_555
C38_4 C32_4 1_555 1_555
H21_4 C38_4 1_555 1_555
C39_4 C32_4 1_555 1_555
C40_4 C23_4 1_555 1_555
C41_4 C37_4 1_555 1_555
C42_4 C34_4 1_555 1_555
H22_4 C42_4 1_555 1_555
O11_3 C25_4 1_555 1_555
O12_3 C24_4 1_555 1_555
O13_3 Al1_3 1_555 1_555
Al4_5 O5_5 1_555 1_555
Al6_2 O8_7 1_555 1_555
Al7_3 O4_5 1_555 1_555
Al8_3 O12_3 1_555 1_555
Al9_3 O3_5 1_555 1_555
Al11_7 O6_7 1_555 1_555
O18_5 Al2_5 1_555 1_555
O19_5 Al2_5 1_555 1_555
O21_7 Al1_3 1_555 1_555
O23_7 Al2_5 1_555 1_555
O24_7 Al1_3 1_555 1_555
O25_7 Al1_3 1_555 1_555
Al2_5 O9_5 1_555 1_555
C9_7 C14_7 1_555 1_555
C9_7 C19_7 1_555 1_555
C12_7 C19_7 1_555 1_555
C13_7 C18_7 1_555 1_555
C15_7 C16_7 1_555 1_555
C17_7 C20_7 1_555 1_555
C20_7 C21_7 1_555 1_555
O9_5 Al7_3 1_555 1_555
C25_4 O13_3 1_555 1_555
C30_4 C35_4 1_555 1_555
C30_4 C40_4 1_555 1_555
C34_4 C39_4 1_555 1_555
C36_4 C37_4 1_555 1_555
C38_4 C41_4 1_555 1_555
C41_4 C42_4 1_555 1_555
O11_3 Al7_3 1_555 1_555
Al8_3 O26_4 1_555 1_555
O7_7 H25_7 1_555 1_555
O7_7 H26_7 1_555 1_555
Al4_5 O1_8 1_555 1_555
C1_8 H1_8 1_555 1_555
C2_8 C1_8 1_555 1_555
C3_8 C5_8 1_555 1_555
C4_8 C18_8 1_555 1_555
C5_8 C6_8 1_555 1_555
C6_8 C2_8 1_555 1_555
H2_8 C6_8 1_555 1_555
C9_8 H3_8 1_555 1_555
C11_8 H5_8 1_555 1_555
C13_8 H7_8 1_555 1_555
H8_8 C14_8 1_555 1_555
C15_8 C5_8 1_555 1_555
H9_8 C15_8 1_555 1_555
C16_8 C1_8 1_555 1_555
C17_8 C11_8 1_555 1_555
H10_8 C17_8 1_555 1_555
C18_8 C11_8 1_555 1_555
C19_8 C2_8 1_555 1_555
C20_8 C16_8 1_555 1_555
C21_8 C13_8 1_555 1_555
H11_8 C21_8 1_555 1_555
O3_6 C4_8 1_555 1_555
O4_6 C3_8 1_555 1_555
O5_6 C4_8 1_555 1_555
O9_6 Al4_5 1_555 1_555
Al4_8 O5_6 1_555 1_555
Al9_3 O4_6 1_555 1_555
Al8_3 O3_6 1_555 1_555
O25_8 Al4_5 1_555 1_555
C9_8 C14_8 1_555 1_555
C9_8 C19_8 1_555 1_555
C13_8 C18_8 1_555 1_555
C15_8 C16_8 1_555 1_555
C17_8 C20_8 1_555 1_555
C20_8 C21_8 1_555 1_555
O9_6 Al9_3 1_555 1_555
O1_8 H23 1_555 1_555
Al4_6 O1_9 1_555 1_555
Al2_6 O2_8 1_555 1_555
C7_8 C8_8 1_555 1_555
C8_8 C10_8 1_555 1_555
C10_8 H4_8 1_555 1_555
C12_8 C10_8 1_555 1_555
H6_8 C12_8 1_555 1_555
O6_8 C7_8 1_555 1_555
O7_8 Al2_6 1_555 1_555
O9_7 Al4_6 1_555 1_555
Al11_8 O6_8 1_555 1_555
O18_6 Al2_6 1_555 1_555
O19_6 Al2_6 1_555 1_555
O21_8 Al4_6 1_555 1_555
O23_8 Al2_6 1_555 1_555
O24_8 Al4_6 1_555 1_555
Al2_6 O9_7 1_555 1_555
O1_9 H24 1_555 1_555
O7_8 H25_8 1_555 1_555
O7_8 H26_8 1_555 1_555
Al4_7 O1_10 1_555 1_555
O26_3 Al4_7 1_555 1_555
O21_9 Al4_7 1_555 1_555
O24_9 Al4_7 1_555 1_555
O1_10 H24_2 1_555 1_555
Al4_8 O1_11 1_555 1_555
O26_4 Al4_8 1_555 1_555
O25_9 Al4_8 1_555 1_555
O1_11 H23_2 1_555 1_555
Al9_3 O10_5 1_555 1_555
C28_5 C29_5 1_555 1_555
C29_5 C31_5 1_555 1_555
C31_5 H15_5 1_555 1_555
C33_5 C31_5 1_555 1_555
H17_5 C33_5 1_555 1_555
O14_5 C28_5 1_555 1_555
O15_5 Al9_3 1_555 1_555
Al10_5 O14_5 1_555 1_555
O22_5 Al9_3 1_555 1_555
O15_5 H27_5 1_555 1_555
O15_5 H28_5 1_555 1_555
Al7_3 O2_9 1_555 1_555
C1_9 H1_9 1_555 1_555
C2_9 C1_9 1_555 1_555
C3_9 C5_9 1_555 1_555
C4_9 C18_9 1_555 1_555
C5_9 C6_9 1_555 1_555
C6_9 C2_9 1_555 1_555
H2_9 C6_9 1_555 1_555
C7_9 C8_9 1_555 1_555
C8_9 C10_9 1_555 1_555
C9_9 H3_9 1_555 1_555
C10_9 H4_9 1_555 1_555
C11_9 H5_9 1_555 1_555
C12_9 C10_9 1_555 1_555
H6_9 C12_9 1_555 1_555
C13_9 H7_9 1_555 1_555
C14_9 C8_9 1_555 1_555
H8_9 C14_9 1_555 1_555
C15_9 C5_9 1_555 1_555
H9_9 C15_9 1_555 1_555
C16_9 C1_9 1_555 1_555
C17_9 C11_9 1_555 1_555
H10_9 C17_9 1_555 1_555
C18_9 C11_9 1_555 1_555
C19_9 C2_9 1_555 1_555
C20_9 C16_9 1_555 1_555
C21_9 C13_9 1_555 1_555
H11_9 C21_9 1_555 1_555
O2_9 C3_9 1_555 1_555
O17_3 C4_9 1_555 1_555
O19_5 C3_9 1_555 1_555
O21_9 C4_9 1_555 1_555
O6_9 C7_9 1_555 1_555
O7_9 Al7_3 1_555 1_555
O8_9 C7_9 1_555 1_555
C22_5 H12_5 1_555 1_555
C23_5 C22_5 1_555 1_555
C24_5 C26_5 1_555 1_555
C25_5 C39_5 1_555 1_555
C26_5 C27_5 1_555 1_555
C27_5 C23_5 1_555 1_555
H13_5 C27_5 1_555 1_555
C30_5 H14_5 1_555 1_555
C32_5 H16_5 1_555 1_555
C34_5 H18_5 1_555 1_555
H19_5 C35_5 1_555 1_555
C36_5 C26_5 1_555 1_555
H20_5 C36_5 1_555 1_555
C37_5 C22_5 1_555 1_555
C38_5 C32_5 1_555 1_555
H21_5 C38_5 1_555 1_555
C39_5 C32_5 1_555 1_555
C40_5 C23_5 1_555 1_555
C41_5 C37_5 1_555 1_555
C42_5 C34_5 1_555 1_555
H22_5 C42_5 1_555 1_555
O18_5 C25_5 1_555 1_555
O19_6 C24_5 1_555 1_555
Al6_4 O8_9 1_555 1_555
Al11_9 O6_9 1_555 1_555
O23_9 Al7_3 1_555 1_555
C9_9 C14_9 1_555 1_555
C9_9 C19_9 1_555 1_555
C12_9 C19_9 1_555 1_555
C13_9 C18_9 1_555 1_555
C15_9 C16_9 1_555 1_555
C17_9 C20_9 1_555 1_555
C20_9 C21_9 1_555 1_555
C25_5 O21_7 1_555 1_555
C30_5 C35_5 1_555 1_555
C30_5 C40_5 1_555 1_555
C34_5 C39_5 1_555 1_555
C36_5 C37_5 1_555 1_555
C38_5 C41_5 1_555 1_555
C41_5 C42_5 1_555 1_555
O7_9 H25_9 1_555 1_555
O7_9 H26_9 1_555 1_555
C1_10 H1_10 1_555 1_555
C2_10 C1_10 1_555 1_555
C3_10 C5_10 1_555 1_555
C4_10 C18_10 1_555 1_555
C5_10 C6_10 1_555 1_555
C6_10 C2_10 1_555 1_555
H2_10 C6_10 1_555 1_555
C9_10 H3_10 1_555 1_555
C11_10 H5_10 1_555 1_555
C13_10 H7_10 1_555 1_555
H8_10 C14_10 1_555 1_555
C15_10 C5_10 1_555 1_555
H9_10 C15_10 1_555 1_555
C16_10 C1_10 1_555 1_555
C17_10 C11_10 1_555 1_555
H10_10 C17_10 1_555 1_555
C18_10 C11_10 1_555 1_555
C19_10 C2_10 1_555 1_555
C20_10 C16_10 1_555 1_555
C21_10 C13_10 1_555 1_555
H11_10 C21_10 1_555 1_555
O18_6 C4_10 1_555 1_555
O20_3 C3_10 1_555 1_555
O21_8 C4_10 1_555 1_555
C9_10 C14_10 1_555 1_555
C9_10 C19_10 1_555 1_555
C13_10 C18_10 1_555 1_555
C15_10 C16_10 1_555 1_555
C17_10 C20_10 1_555 1_555
C20_10 C21_10 1_555 1_555
O1_10 H23_3 1_555 1_555
Al8_3 O2_10 1_555 1_555
C7_10 C8_10 1_555 1_555
C8_10 C10_10 1_555 1_555
C10_10 H4_10 1_555 1_555
C12_10 C10_10 1_555 1_555
H6_10 C12_10 1_555 1_555
O6_10 C7_10 1_555 1_555
O7_10 Al8_3 1_555 1_555
Al11_10 O6_10 1_555 1_555
O23_10 Al8_3 1_555 1_555
O1_11 H24_3 1_555 1_555
O7_10 H25_10 1_555 1_555
O7_10 H26_10 1_555 1_555
O1_8 H24_4 1_555 1_555
O1_9 H23_4 1_555 1_555
Al9 O10_6 1_555 1_555
C22_6 H12_6 1_555 1_555
C23_6 C22_6 1_555 1_555
C24_6 C26_6 1_555 1_555
C25_6 C39_6 1_555 1_555
C26_6 C27_6 1_555 1_555
C27_6 C23_6 1_555 1_555
H13_6 C27_6 1_555 1_555
C28_6 C29_6 1_555 1_555
C29_6 C31_6 1_555 1_555
C30_6 H14_6 1_555 1_555
C31_6 H15_6 1_555 1_555
C32_6 H16_6 1_555 1_555
C33_6 C31_6 1_555 1_555
H17_6 C33_6 1_555 1_555
C34_6 H18_6 1_555 1_555
C35_6 C29_6 1_555 1_555
H19_6 C35_6 1_555 1_555
C36_6 C26_6 1_555 1_555
H20_6 C36_6 1_555 1_555
C37_6 C22_6 1_555 1_555
C38_6 C32_6 1_555 1_555
H21_6 C38_6 1_555 1_555
C39_6 C32_6 1_555 1_555
C40_6 C23_6 1_555 1_555
C41_6 C37_6 1_555 1_555
C42_6 C34_6 1_555 1_555
H22_6 C42_6 1_555 1_555
O10_6 C24_6 1_555 1_555
O19_2 C24_6 1_555 1_555
O14_6 C28_6 1_555 1_555
O15_6 Al9 1_555 1_555
O16_6 C28_6 1_555 1_555
Al5_3 O16_6 1_555 1_555
Al10_6 O14_6 1_555 1_555
O22_6 Al9 1_555 1_555
C25_6 O21 1_555 1_555
C30_6 C35_6 1_555 1_555
C30_6 C40_6 1_555 1_555
C33_6 C40_6 1_555 1_555
C34_6 C39_6 1_555 1_555
C36_6 C37_6 1_555 1_555
C38_6 C41_6 1_555 1_555
C41_6 C42_6 1_555 1_555
O15_6 H27_6 1_555 1_555
O15_6 H28_6 1_555 1_555
Al7 O2_11 1_555 1_555
C3_11 C5_11 1_555 1_555
C5_11 C6_11 1_555 1_555
C6_11 C2_11 1_555 1_555
H2_11 C6_11 1_555 1_555
C7_11 C8_11 1_555 1_555
C8_11 C10_11 1_555 1_555
C10_11 H4_11 1_555 1_555
C12_11 C10_11 1_555 1_555
H6_11 C12_11 1_555 1_555
C14_11 C8_11 1_555 1_555
C15_11 C5_11 1_555 1_555
H9_11 C15_11 1_555 1_555
C19_11 C2_11 1_555 1_555
O2_11 C3_11 1_555 1_555
O19 C3_11 1_555 1_555
O6_11 C7_11 1_555 1_555
O7_11 Al7 1_555 1_555
O8_11 C7_11 1_555 1_555
Al6_7 O8_11 1_555 1_555
Al11_11 O6_11 1_555 1_555
O23_11 Al7 1_555 1_555
C9_11 C14_11 1_555 1_555
C9_11 C19_11 1_555 1_555
C12_11 C19_11 1_555 1_555
O7_11 H25_11 1_555 1_555
O7_11 H26_11 1_555 1_555
C1_11 H1_11 1_555 1_555
C4_11 C18_11 1_555 1_555
C11_11 H5_11 1_555 1_555
C13_11 H7_11 1_555 1_555
C16_11 C1_11 1_555 1_555
C17_11 C11_11 1_555 1_555
H10_11 C17_11 1_555 1_555
C18_11 C11_11 1_555 1_555
C20_11 C16_11 1_555 1_555
C21_11 C13_11 1_555 1_555
H11_11 C21_11 1_555 1_555
O17 C4_11 1_555 1_555
O21_3 C4_11 1_555 1_555
C13_11 C18_11 1_555 1_555
C17_11 C20_11 1_555 1_555
C20_11 C21_11 1_555 1_555
C1_12 H1_12 1_555 1_555
C4_12 C18_12 1_555 1_555
C11_12 H5_12 1_555 1_555
C13_12 H7_12 1_555 1_555
C16_12 C1_12 1_555 1_555
C17_12 C11_12 1_555 1_555
H10_12 C17_12 1_555 1_555
C18_12 C11_12 1_555 1_555
C20_12 C16_12 1_555 1_555
C21_12 C13_12 1_555 1_555
H11_12 C21_12 1_555 1_555
O21_2 C4_12 1_555 1_555
C13_12 C18_12 1_555 1_555
C17_12 C20_12 1_555 1_555
C20_12 C21_12 1_555 1_555
Al8 O2_12 1_555 1_555
C3_12 C5_12 1_555 1_555
C5_12 C6_12 1_555 1_555
C6_12 C2_12 1_555 1_555
H2_12 C6_12 1_555 1_555
C7_12 C8_12 1_555 1_555
C8_12 C10_12 1_555 1_555
C10_12 H4_12 1_555 1_555
C12_12 C10_12 1_555 1_555
H6_12 C12_12 1_555 1_555
C14_12 C8_12 1_555 1_555
C15_12 C5_12 1_555 1_555
H9_12 C15_12 1_555 1_555
C19_12 C2_12 1_555 1_555
O2_12 C3_12 1_555 1_555
O20 C3_12 1_555 1_555
O6_12 C7_12 1_555 1_555
O7_12 Al8 1_555 1_555
O8_12 C7_12 1_555 1_555
Al6_6 O8_12 1_555 1_555
Al11_12 O6_12 1_555 1_555
O23_12 Al8 1_555 1_555
C9_12 C14_12 1_555 1_555
C9_12 C19_12 1_555 1_555
C12_12 C19_12 1_555 1_555
O7_12 H25_12 1_555 1_555
O7_12 H26_12 1_555 1_555
O23_2 C7_13 1_555 1_555
C8_13 C10_13 1_555 1_555
C9_13 H3_13 1_555 1_555
C10_13 H4_13 1_555 1_555
C14_13 C8_13 1_555 1_555
H8_13 C14_13 1_555 1_555
C29_7 C31_7 1_555 1_555
C30_7 H14_7 1_555 1_555
C31_7 H15_7 1_555 1_555
C35_7 C29_7 1_555 1_555
H19_7 C35_7 1_555 1_555
C9_13 C14_13 1_555 1_555
C30_7 C35_7 1_555 1_555
Al10 O2_13 1_555 1_555
C1_13 H1_13 1_555 1_555
C2_13 C1_13 1_555 1_555
C3_13 C5_13 1_555 1_555
C4_13 C18_13 1_555 1_555
C5_13 C6_13 1_555 1_555
C6_13 C2_13 1_555 1_555
H2_13 C6_13 1_555 1_555
C11_13 H5_13 1_555 1_555
H6_13 C12_13 1_555 1_555
C13_13 H7_13 1_555 1_555
C15_13 C5_13 1_555 1_555
H9_13 C15_13 1_555 1_555
C16_13 C1_13 1_555 1_555
C17_13 C11_13 1_555 1_555
H10_13 C17_13 1_555 1_555
C18_13 C11_13 1_555 1_555
C19_13 C2_13 1_555 1_555
C20_13 C16_13 1_555 1_555
C21_13 C13_13 1_555 1_555
H11_13 C21_13 1_555 1_555
O2_13 C3_13 1_555 1_555
O3_7 C4_13 1_555 1_555
O4_7 C3_13 1_555 1_555
O5_7 C4_13 1_555 1_555
O7_13 Al10 1_555 1_555
O9_8 Al5 1_555 1_555
Al11_2 O10_7 1_555 1_555
C22_7 H12_7 1_555 1_555
C23_7 C22_7 1_555 1_555
C24_7 C26_7 1_555 1_555
C25_7 C39_7 1_555 1_555
C26_7 C27_7 1_555 1_555
C27_7 C23_7 1_555 1_555
H13_7 C27_7 1_555 1_555
C32_7 H16_7 1_555 1_555
H17_7 C33_7 1_555 1_555
C34_7 H18_7 1_555 1_555
C36_7 C26_7 1_555 1_555
H20_7 C36_7 1_555 1_555
C37_7 C22_7 1_555 1_555
C38_7 C32_7 1_555 1_555
H21_7 C38_7 1_555 1_555
C39_7 C32_7 1_555 1_555
C40_7 C23_7 1_555 1_555
C41_7 C37_7 1_555 1_555
C42_7 C34_7 1_555 1_555
H22_7 C42_7 1_555 1_555
O10_7 C24_7 1_555 1_555
O11_4 C25_7 1_555 1_555
O12_4 C24_7 1_555 1_555
O13_4 Al5 1_555 1_555
O15_7 Al11_2 1_555 1_555
Al6 O5_7 1_555 1_555
Al10_4 O4_7 1_555 1_555
Al11_7 O12_4 1_555 1_555
Al11_8 O3_7 1_555 1_555
O17_4 Al11_2 1_555 1_555
O18_7 Al10 1_555 1_555
O19_7 Al10 1_555 1_555
O20_4 Al11_2 1_555 1_555
O26_5 Al11_2 1_555 1_555
Al10 O9_8 1_555 1_555
C12_13 C19_13 1_555 1_555
C13_13 C18_13 1_555 1_555
C15_13 C16_13 1_555 1_555
C17_13 C20_13 1_555 1_555
C20_13 C21_13 1_555 1_555
O9_8 Al10_4 1_555 1_555
C25_7 O13_4 1_555 1_555
C33_7 C40_7 1_555 1_555
C34_7 C39_7 1_555 1_555
C36_7 C37_7 1_555 1_555
C38_7 C41_7 1_555 1_555
C41_7 C42_7 1_555 1_555
O11_4 Al10_4 1_555 1_555
Al11_7 O26_5 1_555 1_555
O7_13 H25_13 1_555 1_555
O7_13 H26_13 1_555 1_555
O15_7 H27_7 1_555 1_555
O15_7 H28_7 1_555 1_555
O23 C28_7 1_555 1_555
C7_14 C8_14 1_555 1_555
C8_14 C10_14 1_555 1_555
C9_14 H3_14 1_555 1_555
C10_14 H4_14 1_555 1_555
C14_14 C8_14 1_555 1_555
H8_14 C14_14 1_555 1_555
O22 C7_14 1_555 1_555
O24_3 C7_14 1_555 1_555
C9_14 C14_14 1_555 1_555
Al11 O2_14 1_555 1_555
C1_14 H1_14 1_555 1_555
C2_14 C1_14 1_555 1_555
C3_14 C5_14 1_555 1_555
C4_14 C18_14 1_555 1_555
C5_14 C6_14 1_555 1_555
C6_14 C2_14 1_555 1_555
H2_14 C6_14 1_555 1_555
C11_14 H5_14 1_555 1_555
H6_14 C12_14 1_555 1_555
C13_14 H7_14 1_555 1_555
C15_14 C5_14 1_555 1_555
H9_14 C15_14 1_555 1_555
C16_14 C1_14 1_555 1_555
C17_14 C11_14 1_555 1_555
H10_14 C17_14 1_555 1_555
C18_14 C11_14 1_555 1_555
C19_14 C2_14 1_555 1_555
C20_14 C16_14 1_555 1_555
C21_14 C13_14 1_555 1_555
H11_14 C21_14 1_555 1_555
O2_14 C3_14 1_555 1_555
O3_8 C4_14 1_555 1_555
O4_8 C3_14 1_555 1_555
O5_8 C4_14 1_555 1_555
O7_14 Al11 1_555 1_555
O9_9 Al6 1_555 1_555
Al6_2 O5_8 1_555 1_555
Al11_8 O4_8 1_555 1_555
Al11_7 O3_8 1_555 1_555
O18_8 Al11 1_555 1_555
O19_8 Al11 1_555 1_555
Al11 O9_9 1_555 1_555
C12_14 C19_14 1_555 1_555
C13_14 C18_14 1_555 1_555
C15_14 C16_14 1_555 1_555
C17_14 C20_14 1_555 1_555
C20_14 C21_14 1_555 1_555
O9_9 Al11_8 1_555 1_555
O7_14 H25_14 1_555 1_555
O7_14 H26_14 1_555 1_555
Al6_2 O1_14 1_555 1_555
O26_5 Al6_2 1_555 1_555
O21_12 Al6_2 1_555 1_555
O23_4 C7_15 1_555 1_555
Al10_2 O2_15 1_555 1_555
C1_15 H1_15 1_555 1_555
C2_15 C1_15 1_555 1_555
C3_15 C5_15 1_555 1_555
C4_15 C18_15 1_555 1_555
C5_15 C6_15 1_555 1_555
C6_15 C2_15 1_555 1_555
H2_15 C6_15 1_555 1_555
C8_15 C10_15 1_555 1_555
C9_15 H3_15 1_555 1_555
C10_15 H4_15 1_555 1_555
C11_15 H5_15 1_555 1_555
C12_15 C10_15 1_555 1_555
H6_15 C12_15 1_555 1_555
C13_15 H7_15 1_555 1_555
C14_15 C8_15 1_555 1_555
H8_15 C14_15 1_555 1_555
C15_15 C5_15 1_555 1_555
H9_15 C15_15 1_555 1_555
C16_15 C1_15 1_555 1_555
C17_15 C11_15 1_555 1_555
H10_15 C17_15 1_555 1_555
C18_15 C11_15 1_555 1_555
C19_15 C2_15 1_555 1_555
C20_15 C16_15 1_555 1_555
C21_15 C13_15 1_555 1_555
H11_15 C21_15 1_555 1_555
O2_15 C3_15 1_555 1_555
O3_9 C4_15 1_555 1_555
O4_9 C3_15 1_555 1_555
O5_9 C4_15 1_555 1_555
O7_15 Al10_2 1_555 1_555
O9_10 Al5_2 1_555 1_555
Al11_4 O10_8 1_555 1_555
C22_8 H12_8 1_555 1_555
C23_8 C22_8 1_555 1_555
C24_8 C26_8 1_555 1_555
C25_8 C39_8 1_555 1_555
C26_8 C27_8 1_555 1_555
C27_8 C23_8 1_555 1_555
H13_8 C27_8 1_555 1_555
C29_8 C31_8 1_555 1_555
C30_8 H14_8 1_555 1_555
C31_8 H15_8 1_555 1_555
C32_8 H16_8 1_555 1_555
C33_8 C31_8 1_555 1_555
H17_8 C33_8 1_555 1_555
C34_8 H18_8 1_555 1_555
C35_8 C29_8 1_555 1_555
H19_8 C35_8 1_555 1_555
C36_8 C26_8 1_555 1_555
H20_8 C36_8 1_555 1_555
C37_8 C22_8 1_555 1_555
C38_8 C32_8 1_555 1_555
H21_8 C38_8 1_555 1_555
C39_8 C32_8 1_555 1_555
C40_8 C23_8 1_555 1_555
C41_8 C37_8 1_555 1_555
C42_8 C34_8 1_555 1_555
H22_8 C42_8 1_555 1_555
O10_8 C24_8 1_555 1_555
O11_5 C25_8 1_555 1_555
O12_5 C24_8 1_555 1_555
O13_5 Al5_2 1_555 1_555
O15_8 Al11_4 1_555 1_555
Al6_3 O5_9 1_555 1_555
Al10_5 O4_9 1_555 1_555
Al11_9 O12_5 1_555 1_555
Al11_10 O3_9 1_555 1_555
O17_5 Al11_4 1_555 1_555
O18_9 Al10_2 1_555 1_555
O19_9 Al10_2 1_555 1_555
O20_5 Al11_4 1_555 1_555
O26_6 Al11_4 1_555 1_555
Al10_2 O9_10 1_555 1_555
C9_15 C14_15 1_555 1_555
C9_15 C19_15 1_555 1_555
C12_15 C19_15 1_555 1_555
C13_15 C18_15 1_555 1_555
C15_15 C16_15 1_555 1_555
C17_15 C20_15 1_555 1_555
C20_15 C21_15 1_555 1_555
O9_10 Al10_5 1_555 1_555
C25_8 O13_5 1_555 1_555
C30_8 C35_8 1_555 1_555
C30_8 C40_8 1_555 1_555
C33_8 C40_8 1_555 1_555
C34_8 C39_8 1_555 1_555
C36_8 C37_8 1_555 1_555
C38_8 C41_8 1_555 1_555
C41_8 C42_8 1_555 1_555
O11_5 Al10_5 1_555 1_555
Al11_9 O26_6 1_555 1_555
O7_15 H25_15 1_555 1_555
O7_15 H26_15 1_555 1_555
O15_8 H27_8 1_555 1_555
O15_8 H28_8 1_555 1_555
O23_3 C28_8 1_555 1_555
Al11_3 O2_16 1_555 1_555
C1_16 H1_16 1_555 1_555
C2_16 C1_16 1_555 1_555
C3_16 C5_16 1_555 1_555
C4_16 C18_16 1_555 1_555
C5_16 C6_16 1_555 1_555
C6_16 C2_16 1_555 1_555
H2_16 C6_16 1_555 1_555
C7_16 C8_16 1_555 1_555
C8_16 C10_16 1_555 1_555
C9_16 H3_16 1_555 1_555
C10_16 H4_16 1_555 1_555
C11_16 H5_16 1_555 1_555
C12_16 C10_16 1_555 1_555
H6_16 C12_16 1_555 1_555
C13_16 H7_16 1_555 1_555
C14_16 C8_16 1_555 1_555
H8_16 C14_16 1_555 1_555
C15_16 C5_16 1_555 1_555
H9_16 C15_16 1_555 1_555
C16_16 C1_16 1_555 1_555
C17_16 C11_16 1_555 1_555
H10_16 C17_16 1_555 1_555
C18_16 C11_16 1_555 1_555
C19_16 C2_16 1_555 1_555
C20_16 C16_16 1_555 1_555
C21_16 C13_16 1_555 1_555
H11_16 C21_16 1_555 1_555
O2_16 C3_16 1_555 1_555
O3_10 C4_16 1_555 1_555
O4_10 C3_16 1_555 1_555
O5_10 C4_16 1_555 1_555
O22_2 C7_16 1_555 1_555
O7_16 Al11_3 1_555 1_555
O24_6 C7_16 1_555 1_555
O9_11 Al6_3 1_555 1_555
Al6_4 O5_10 1_555 1_555
Al11_10 O4_10 1_555 1_555
Al11_9 O3_10 1_555 1_555
O18_10 Al11_3 1_555 1_555
O19_10 Al11_3 1_555 1_555
Al11_3 O9_11 1_555 1_555
C9_16 C14_16 1_555 1_555
C9_16 C19_16 1_555 1_555
C12_16 C19_16 1_555 1_555
C13_16 C18_16 1_555 1_555
C15_16 C16_16 1_555 1_555
C17_16 C20_16 1_555 1_555
C20_16 C21_16 1_555 1_555
O9_11 Al11_10 1_555 1_555
O7_16 H25_16 1_555 1_555
O7_16 H26_16 1_555 1_555
Al6_4 O1_17 1_555 1_555
O26_6 Al6_4 1_555 1_555
O21_15 Al6_4 1_555 1_555
C1_17 H1_17 1_555 1_555
C4_17 C18_17 1_555 1_555
C11_17 H5_17 1_555 1_555
C13_17 H7_17 1_555 1_555
C16_17 C1_17 1_555 1_555
C17_17 C11_17 1_555 1_555
H10_17 C17_17 1_555 1_555
C18_17 C11_17 1_555 1_555
C20_17 C16_17 1_555 1_555
C21_17 C13_17 1_555 1_555
H11_17 C21_17 1_555 1_555
O17_5 C4_17 1_555 1_555
O21_15 C4_17 1_555 1_555
C13_17 C18_17 1_555 1_555
C17_17 C20_17 1_555 1_555
C20_17 C21_17 1_555 1_555
Al10_5 O2_17 1_555 1_555
C3_17 C5_17 1_555 1_555
C5_17 C6_17 1_555 1_555
C6_17 C2_17 1_555 1_555
H2_17 C6_17 1_555 1_555
C7_17 C8_17 1_555 1_555
C8_17 C10_17 1_555 1_555
C10_17 H4_17 1_555 1_555
C12_17 C10_17 1_555 1_555
H6_17 C12_17 1_555 1_555
C14_17 C8_17 1_555 1_555
C15_17 C5_17 1_555 1_555
H9_17 C15_17 1_555 1_555
C19_17 C2_17 1_555 1_555
O2_17 C3_17 1_555 1_555
O19_9 C3_17 1_555 1_555
O23_10 C7_17 1_555 1_555
O7_17 Al10_5 1_555 1_555
O25_9 C7_17 1_555 1_555
C9_17 C14_17 1_555 1_555
C9_17 C19_17 1_555 1_555
C12_17 C19_17 1_555 1_555
O7_17 H25_17 1_555 1_555
O7_17 H26_17 1_555 1_555
Al11_10 O10_9 1_555 1_555
C22_9 H12_9 1_555 1_555
C23_9 C22_9 1_555 1_555
C24_9 C26_9 1_555 1_555
C25_9 C39_9 1_555 1_555
C26_9 C27_9 1_555 1_555
C27_9 C23_9 1_555 1_555
H13_9 C27_9 1_555 1_555
C28_9 C29_9 1_555 1_555
C29_9 C31_9 1_555 1_555
C30_9 H14_9 1_555 1_555
C31_9 H15_9 1_555 1_555
C32_9 H16_9 1_555 1_555
C33_9 C31_9 1_555 1_555
H17_9 C33_9 1_555 1_555
C34_9 H18_9 1_555 1_555
C35_9 C29_9 1_555 1_555
H19_9 C35_9 1_555 1_555
C36_9 C26_9 1_555 1_555
H20_9 C36_9 1_555 1_555
C37_9 C22_9 1_555 1_555
C38_9 C32_9 1_555 1_555
H21_9 C38_9 1_555 1_555
C39_9 C32_9 1_555 1_555
C40_9 C23_9 1_555 1_555
C41_9 C37_9 1_555 1_555
C42_9 C34_9 1_555 1_555
H22_9 C42_9 1_555 1_555
O10_9 C24_9 1_555 1_555
O19_10 C24_9 1_555 1_555
O23_9 C28_9 1_555 1_555
O15_9 Al11_10 1_555 1_555
O25_7 C28_9 1_555 1_555
C25_9 O21_13 1_555 1_555
C30_9 C35_9 1_555 1_555
C30_9 C40_9 1_555 1_555
C33_9 C40_9 1_555 1_555
C34_9 C39_9 1_555 1_555
C36_9 C37_9 1_555 1_555
C38_9 C41_9 1_555 1_555
C41_9 C42_9 1_555 1_555
O15_9 H27_9 1_555 1_555
O15_9 H28_9 1_555 1_555
Al11_9 O2_18 1_555 1_555
C3_18 C5_18 1_555 1_555
C5_18 C6_18 1_555 1_555
C6_18 C2_18 1_555 1_555
H2_18 C6_18 1_555 1_555
C7_18 C8_18 1_555 1_555
C8_18 C10_18 1_555 1_555
C10_18 H4_18 1_555 1_555
C12_18 C10_18 1_555 1_555
H6_18 C12_18 1_555 1_555
C14_18 C8_18 1_555 1_555
C15_18 C5_18 1_555 1_555
H9_18 C15_18 1_555 1_555
C19_18 C2_18 1_555 1_555
O2_18 C3_18 1_555 1_555
O20_5 C3_18 1_555 1_555
O22_5 C7_18 1_555 1_555
O7_18 Al11_9 1_555 1_555
O25_8 C7_18 1_555 1_555
C9_18 C14_18 1_555 1_555
C9_18 C19_18 1_555 1_555
C12_18 C19_18 1_555 1_555
O7_18 H25_18 1_555 1_555
O7_18 H26_18 1_555 1_555
C1_18 H1_18 1_555 1_555
C4_18 C18_18 1_555 1_555
C11_18 H5_18 1_555 1_555
C13_18 H7_18 1_555 1_555
C16_18 C1_18 1_555 1_555
C17_18 C11_18 1_555 1_555
H10_18 C17_18 1_555 1_555
C18_18 C11_18 1_555 1_555
C20_18 C16_18 1_555 1_555
C21_18 C13_18 1_555 1_555
H11_18 C21_18 1_555 1_555
O21_14 C4_18 1_555 1_555
C13_18 C18_18 1_555 1_555
C17_18 C20_18 1_555 1_555
C20_18 C21_18 1_555 1_555
Al5_3 O1_18 1_555 1_555
Al10_6 O2_19 1_555 1_555
C1_19 H1_19 1_555 1_555
C2_19 C1_19 1_555 1_555
C3_19 C5_19 1_555 1_555
C4_19 C18_19 1_555 1_555
C5_19 C6_19 1_555 1_555
C6_19 C2_19 1_555 1_555
H2_19 C6_19 1_555 1_555
C7_19 C8_19 1_555 1_555
C8_19 C10_19 1_555 1_555
C9_19 H3_19 1_555 1_555
C10_19 H4_19 1_555 1_555
C11_19 H5_19 1_555 1_555
C12_19 C10_19 1_555 1_555
H6_19 C12_19 1_555 1_555
C13_19 H7_19 1_555 1_555
C14_19 C8_19 1_555 1_555
H8_19 C14_19 1_555 1_555
C15_19 C5_19 1_555 1_555
H9_19 C15_19 1_555 1_555
C16_19 C1_19 1_555 1_555
C17_19 C11_19 1_555 1_555
H10_19 C17_19 1_555 1_555
C18_19 C11_19 1_555 1_555
C19_19 C2_19 1_555 1_555
C20_19 C16_19 1_555 1_555
C21_19 C13_19 1_555 1_555
H11_19 C21_19 1_555 1_555
O2_19 C3_19 1_555 1_555
O3_11 C4_19 1_555 1_555
O4_11 C3_19 1_555 1_555
O5_11 C4_19 1_555 1_555
O23_12 C7_19 1_555 1_555
O7_19 Al10_6 1_555 1_555
O25_3 C7_19 1_555 1_555
O9_12 Al5_3 1_555 1_555
C22_10 H12_10 1_555 1_555
C23_10 C22_10 1_555 1_555
C24_10 C26_10 1_555 1_555
C25_10 C39_10 1_555 1_555
C26_10 C27_10 1_555 1_555
C27_10 C23_10 1_555 1_555
H13_10 C27_10 1_555 1_555
C30_10 H14_10 1_555 1_555
C32_10 H16_10 1_555 1_555
C34_10 H18_10 1_555 1_555
H19_10 C35_10 1_555 1_555
C36_10 C26_10 1_555 1_555
H20_10 C36_10 1_555 1_555
C37_10 C22_10 1_555 1_555
C38_10 C32_10 1_555 1_555
H21_10 C38_10 1_555 1_555
C39_10 C32_10 1_555 1_555
C40_10 C23_10 1_555 1_555
C41_10 C37_10 1_555 1_555
C42_10 C34_10 1_555 1_555
H22_10 C42_10 1_555 1_555
O11_6 C25_10 1_555 1_555
O12_6 C24_10 1_555 1_555
O13_6 Al5_3 1_555 1_555
Al6_8 O5_11 1_555 1_555
Al10_3 O4_11 1_555 1_555
Al11_5 O12_6 1_555 1_555
Al11_6 O3_11 1_555 1_555
O18_11 Al10_6 1_555 1_555
O19_11 Al10_6 1_555 1_555
O21_16 Al5_3 1_555 1_555
Al10_6 O9_12 1_555 1_555
C9_19 C14_19 1_555 1_555
C9_19 C19_19 1_555 1_555
C12_19 C19_19 1_555 1_555
C13_19 C18_19 1_555 1_555
C15_19 C16_19 1_555 1_555
C17_19 C20_19 1_555 1_555
C20_19 C21_19 1_555 1_555
O9_12 Al10_3 1_555 1_555
C25_10 O13_6 1_555 1_555
C30_10 C35_10 1_555 1_555
C30_10 C40_10 1_555 1_555
C34_10 C39_10 1_555 1_555
C36_10 C37_10 1_555 1_555
C38_10 C41_10 1_555 1_555
C41_10 C42_10 1_555 1_555
O11_6 Al10_3 1_555 1_555
Al11_5 O26_7 1_555 1_555
O7_19 H25_19 1_555 1_555
O7_19 H26_19 1_555 1_555
Al11_12 O10_10 1_555 1_555
C28_10 C29_10 1_555 1_555
C29_10 C31_10 1_555 1_555
C31_10 H15_10 1_555 1_555
C33_10 C31_10 1_555 1_555
H17_10 C33_10 1_555 1_555
O23_11 C28_10 1_555 1_555
O15_10 Al11_12 1_555 1_555
O17_6 Al11_12 1_555 1_555
O20_6 Al11_12 1_555 1_555
O26_8 Al11_12 1_555 1_555
O15_10 H27_10 1_555 1_555
O15_10 H28_10 1_555 1_555
Al6_7 O1_19 1_555 1_555
Al11_11 O2_20 1_555 1_555
C7_20 C8_20 1_555 1_555
C8_20 C10_20 1_555 1_555
C10_20 H4_20 1_555 1_555
C12_20 C10_20 1_555 1_555
H6_20 C12_20 1_555 1_555
O22_6 C7_20 1_555 1_555
O7_20 Al11_11 1_555 1_555
O9_13 Al6_7 1_555 1_555
O18_12 Al11_11 1_555 1_555
O19_12 Al11_11 1_555 1_555
O21_17 Al6_7 1_555 1_555
Al11_11 O9_13 1_555 1_555
O1_19 H24_5 1_555 1_555
O7_20 H25_20 1_555 1_555
O7_20 H26_20 1_555 1_555
Al6_8 O1_20 1_555 1_555
C1_20 H1_20 1_555 1_555
C2_20 C1_20 1_555 1_555
C3_20 C5_20 1_555 1_555
C4_20 C18_20 1_555 1_555
C5_20 C6_20 1_555 1_555
C6_20 C2_20 1_555 1_555
H2_20 C6_20 1_555 1_555
C9_20 H3_20 1_555 1_555
C11_20 H5_20 1_555 1_555
C13_20 H7_20 1_555 1_555
H8_20 C14_20 1_555 1_555
C15_20 C5_20 1_555 1_555
H9_20 C15_20 1_555 1_555
C16_20 C1_20 1_555 1_555
C17_20 C11_20 1_555 1_555
H10_20 C17_20 1_555 1_555
C18_20 C11_20 1_555 1_555
C19_20 C2_20 1_555 1_555
C20_20 C16_20 1_555 1_555
C21_20 C13_20 1_555 1_555
H11_20 C21_20 1_555 1_555
O3_12 C4_20 1_555 1_555
O4_12 C3_20 1_555 1_555
O5_12 C4_20 1_555 1_555
O9_14 Al6_8 1_555 1_555
Al6_5 O5_12 1_555 1_555
Al11_6 O4_12 1_555 1_555
Al11_5 O3_12 1_555 1_555
C9_20 C14_20 1_555 1_555
C9_20 C19_20 1_555 1_555
C13_20 C18_20 1_555 1_555
C15_20 C16_20 1_555 1_555
C17_20 C20_20 1_555 1_555
C20_20 C21_20 1_555 1_555
O9_14 Al11_6 1_555 1_555
O1_20 H23_5 1_555 1_555
Al6_5 O1_21 1_555 1_555
O26_7 Al6_5 1_555 1_555
O1_21 H23_6 1_555 1_555
Al6_6 O1_22 1_555 1_555
O26_8 Al6_6 1_555 1_555
O21_18 Al6_6 1_555 1_555
O1_22 H24_6 1_555 1_555
Al10_3 O2_21 1_555 1_555
C1_21 H1_21 1_555 1_555
C2_21 C1_21 1_555 1_555
C3_21 C5_21 1_555 1_555
C4_21 C18_21 1_555 1_555
C5_21 C6_21 1_555 1_555
C6_21 C2_21 1_555 1_555
H2_21 C6_21 1_555 1_555
C7_21 C8_21 1_555 1_555
C8_21 C10_21 1_555 1_555
C9_21 H3_21 1_555 1_555
C10_21 H4_21 1_555 1_555
C11_21 H5_21 1_555 1_555
C12_21 C10_21 1_555 1_555
H6_21 C12_21 1_555 1_555
C13_21 H7_21 1_555 1_555
C14_21 C8_21 1_555 1_555
H8_21 C14_21 1_555 1_555
C15_21 C5_21 1_555 1_555
H9_21 C15_21 1_555 1_555
C16_21 C1_21 1_555 1_555
C17_21 C11_21 1_555 1_555
H10_21 C17_21 1_555 1_555
C18_21 C11_21 1_555 1_555
C19_21 C2_21 1_555 1_555
C20_21 C16_21 1_555 1_555
C21_21 C13_21 1_555 1_555
H11_21 C21_21 1_555 1_555
O2_21 C3_21 1_555 1_555
O17_6 C4_21 1_555 1_555
O19_11 C3_21 1_555 1_555
O21_18 C4_21 1_555 1_555
O23_6 C7_21 1_555 1_555
O7_21 Al10_3 1_555 1_555
O25_6 C7_21 1_555 1_555
C22_11 H12_11 1_555 1_555
C23_11 C22_11 1_555 1_555
C24_11 C26_11 1_555 1_555
C25_11 C39_11 1_555 1_555
C26_11 C27_11 1_555 1_555
C27_11 C23_11 1_555 1_555
H13_11 C27_11 1_555 1_555
C30_11 H14_11 1_555 1_555
C32_11 H16_11 1_555 1_555
C34_11 H18_11 1_555 1_555
H19_11 C35_11 1_555 1_555
C36_11 C26_11 1_555 1_555
H20_11 C36_11 1_555 1_555
C37_11 C22_11 1_555 1_555
C38_11 C32_11 1_555 1_555
H21_11 C38_11 1_555 1_555
C39_11 C32_11 1_555 1_555
C40_11 C23_11 1_555 1_555
C41_11 C37_11 1_555 1_555
C42_11 C34_11 1_555 1_555
H22_11 C42_11 1_555 1_555
O18_11 C25_11 1_555 1_555
O19_12 C24_11 1_555 1_555
C9_21 C14_21 1_555 1_555
C9_21 C19_21 1_555 1_555
C12_21 C19_21 1_555 1_555
C13_21 C18_21 1_555 1_555
C15_21 C16_21 1_555 1_555
C17_21 C20_21 1_555 1_555
C20_21 C21_21 1_555 1_555
C25_11 O21_16 1_555 1_555
C30_11 C35_11 1_555 1_555
C30_11 C40_11 1_555 1_555
C34_11 C39_11 1_555 1_555
C36_11 C37_11 1_555 1_555
C38_11 C41_11 1_555 1_555
C41_11 C42_11 1_555 1_555
O7_21 H25_21 1_555 1_555
O7_21 H26_21 1_555 1_555
Al11_6 O10_11 1_555 1_555
C28_11 C29_11 1_555 1_555
C29_11 C31_11 1_555 1_555
C31_11 H15_11 1_555 1_555
C33_11 C31_11 1_555 1_555
H17_11 C33_11 1_555 1_555
O23_5 C28_11 1_555 1_555
O15_11 Al11_6 1_555 1_555
O15_11 H27_11 1_555 1_555
O15_11 H28_11 1_555 1_555
Al11_5 O2_22 1_555 1_555
C7_22 C8_22 1_555 1_555
C8_22 C10_22 1_555 1_555
C10_22 H4_22 1_555 1_555
C12_22 C10_22 1_555 1_555
H6_22 C12_22 1_555 1_555
O22_3 C7_22 1_555 1_555
O7_22 Al11_5 1_555 1_555
O1_21 H24_7 1_555 1_555
O7_22 H25_22 1_555 1_555
O7_22 H26_22 1_555 1_555
C1_22 H1_22 1_555 1_555
C2_22 C1_22 1_555 1_555
C3_22 C5_22 1_555 1_555
C4_22 C18_22 1_555 1_555
C5_22 C6_22 1_555 1_555
C6_22 C2_22 1_555 1_555
H2_22 C6_22 1_555 1_555
C9_22 H3_22 1_555 1_555
C11_22 H5_22 1_555 1_555
C13_22 H7_22 1_555 1_555
H8_22 C14_22 1_555 1_555
C15_22 C5_22 1_555 1_555
H9_22 C15_22 1_555 1_555
C16_22 C1_22 1_555 1_555
C17_22 C11_22 1_555 1_555
H10_22 C17_22 1_555 1_555
C18_22 C11_22 1_555 1_555
C19_22 C2_22 1_555 1_555
C20_22 C16_22 1_555 1_555
C21_22 C13_22 1_555 1_555
H11_22 C21_22 1_555 1_555
O18_12 C4_22 1_555 1_555
O20_6 C3_22 1_555 1_555
O21_17 C4_22 1_555 1_555
C9_22 C14_22 1_555 1_555
C9_22 C19_22 1_555 1_555
C13_22 C18_22 1_555 1_555
C15_22 C16_22 1_555 1_555
C17_22 C20_22 1_555 1_555
C20_22 C21_22 1_555 1_555
O1_22 H23_7 1_555 1_555
O1_19 H23_8 1_555 1_555
O1_20 H24_8 1_555 1_555
C1_23 H1_23 1_555 1_555
C4_23 C18_23 1_555 1_555
C11_23 H5_23 1_555 1_555
C13_23 H7_23 1_555 1_555
C16_23 C1_23 1_555 1_555
C17_23 C11_23 1_555 1_555
H10_23 C17_23 1_555 1_555
C18_23 C11_23 1_555 1_555
C20_23 C16_23 1_555 1_555
C21_23 C13_23 1_555 1_555
H11_23 C21_23 1_555 1_555
O17_4 C4_23 1_555 1_555
O21_12 C4_23 1_555 1_555
C13_23 C18_23 1_555 1_555
C17_23 C20_23 1_555 1_555
C20_23 C21_23 1_555 1_555
Al10_4 O2_23 1_555 1_555
C3_23 C5_23 1_555 1_555
C5_23 C6_23 1_555 1_555
C6_23 C2_23 1_555 1_555
H2_23 C6_23 1_555 1_555
C7_23 C8_23 1_555 1_555
C8_23 C10_23 1_555 1_555
C10_23 H4_23 1_555 1_555
C12_23 C10_23 1_555 1_555
H6_23 C12_23 1_555 1_555
C14_23 C8_23 1_555 1_555
C15_23 C5_23 1_555 1_555
H9_23 C15_23 1_555 1_555
C19_23 C2_23 1_555 1_555
O2_23 C3_23 1_555 1_555
O19_7 C3_23 1_555 1_555
O23_8 C7_23 1_555 1_555
O7_23 Al10_4 1_555 1_555
O24_8 C7_23 1_555 1_555
C9_23 C14_23 1_555 1_555
C9_23 C19_23 1_555 1_555
C12_23 C19_23 1_555 1_555
O7_23 H25_23 1_555 1_555
O7_23 H26_23 1_555 1_555
Al11_8 O10_12 1_555 1_555
C22_12 H12_12 1_555 1_555
C23_12 C22_12 1_555 1_555
C24_12 C26_12 1_555 1_555
C25_12 C39_12 1_555 1_555
C26_12 C27_12 1_555 1_555
C27_12 C23_12 1_555 1_555
H13_12 C27_12 1_555 1_555
C28_12 C29_12 1_555 1_555
C29_12 C31_12 1_555 1_555
C30_12 H14_12 1_555 1_555
C31_12 H15_12 1_555 1_555
C32_12 H16_12 1_555 1_555
C33_12 C31_12 1_555 1_555
H17_12 C33_12 1_555 1_555
C34_12 H18_12 1_555 1_555
C35_12 C29_12 1_555 1_555
H19_12 C35_12 1_555 1_555
C36_12 C26_12 1_555 1_555
H20_12 C36_12 1_555 1_555
C37_12 C22_12 1_555 1_555
C38_12 C32_12 1_555 1_555
H21_12 C38_12 1_555 1_555
C39_12 C32_12 1_555 1_555
C40_12 C23_12 1_555 1_555
C41_12 C37_12 1_555 1_555
C42_12 C34_12 1_555 1_555
H22_12 C42_12 1_555 1_555
O10_12 C24_12 1_555 1_555
O19_8 C24_12 1_555 1_555
O23_7 C28_12 1_555 1_555
O15_12 Al11_8 1_555 1_555
O24_7 C28_12 1_555 1_555
C25_12 O21_10 1_555 1_555
C30_12 C35_12 1_555 1_555
C30_12 C40_12 1_555 1_555
C33_12 C40_12 1_555 1_555
C34_12 C39_12 1_555 1_555
C36_12 C37_12 1_555 1_555
C38_12 C41_12 1_555 1_555
C41_12 C42_12 1_555 1_555
O15_12 H27_12 1_555 1_555
O15_12 H28_12 1_555 1_555
Al11_7 O2_24 1_555 1_555
C3_24 C5_24 1_555 1_555
C5_24 C6_24 1_555 1_555
C6_24 C2_24 1_555 1_555
H2_24 C6_24 1_555 1_555
C7_24 C8_24 1_555 1_555
C8_24 C10_24 1_555 1_555
C10_24 H4_24 1_555 1_555
C12_24 C10_24 1_555 1_555
H6_24 C12_24 1_555 1_555
C14_24 C8_24 1_555 1_555
C15_24 C5_24 1_555 1_555
H9_24 C15_24 1_555 1_555
C19_24 C2_24 1_555 1_555
O2_24 C3_24 1_555 1_555
O20_4 C3_24 1_555 1_555
O22_4 C7_24 1_555 1_555
O7_24 Al11_7 1_555 1_555
O24_9 C7_24 1_555 1_555
C9_24 C14_24 1_555 1_555
C9_24 C19_24 1_555 1_555
C12_24 C19_24 1_555 1_555
O7_24 H25_24 1_555 1_555
O7_24 H26_24 1_555 1_555
C1_24 H1_24 1_555 1_555
C4_24 C18_24 1_555 1_555
C11_24 H5_24 1_555 1_555
C13_24 H7_24 1_555 1_555
C16_24 C1_24 1_555 1_555
C17_24 C11_24 1_555 1_555
H10_24 C17_24 1_555 1_555
C18_24 C11_24 1_555 1_555
C20_24 C16_24 1_555 1_555
C21_24 C13_24 1_555 1_555
H11_24 C21_24 1_555 1_555
O21_11 C4_24 1_555 1_555
C13_24 C18_24 1_555 1_555
C17_24 C20_24 1_555 1_555
C20_24 C21_24 1_555 1_555

#END
