
###############################################################################
#
# This file contains modified crystal structure data generated from the
# MOF subset of the Cambridge Structural Database (CSD) v543 
# hosted by the Cambridge Crystallographic Data Centre (CCDC).
#
# This work is licensed under the Creative Commons
# Attribution-NonCommercial-ShareAlike 4.0 International License.
# To view a copy of this license, visit
# http://creativecommons.org/licenses/by-nc-sa/4.0/
# or send a letter to
# Creative Commons, PO Box 1866, Mountain View, CA 94042, USA.
#
# CIF created using the CSD Python API on 29 September 2022
# The structure has been converted into the P1 space group
# The structure has a 3D framework
# The original CSD entry WOFVOF is in the tetragonal crystal system
# The framework has been calculated to contain at least 10.0% void space
# The void calculation uses a probe of radius 1.32A, grid spacing 0.4
# H atom positions have been added when not included in the experimental data
# Generated hydrogen atom positions removed from atoms on special positions
#
###############################################################################

data_WOFVOF
_chemical_formula_moiety         '(C138 H128 Mn8 N74 O28 W10)n'
_symmetry_cell_setting           triclinic
_symmetry_space_group_name_H-M   'P 1'
_symmetry_Int_Tables_number      1
_space_group_name_Hall           'P 1'
loop_
_symmetry_equiv_pos_site_id
_symmetry_equiv_pos_as_xyz
1 x,y,z
_cell_length_a                   14.470(2)
_cell_length_b                   14.470(2)
_cell_length_c                   28.017(6)
_cell_angle_alpha                90
_cell_angle_beta                 90
_cell_angle_gamma                90
_cell_volume                     5866.22
loop_
_atom_site_label
_atom_site_type_symbol
_atom_site_fract_x
_atom_site_fract_y
_atom_site_fract_z
W1 W 0.0000 0.0000 0.31522(2)
Mn1 Mn 0.2500 0.2500 0.2500
O1 O 0.1525(7) 0.3593(7) 0.2713(4)
O2 O 0.1251(5) 0.2210(5) 0.0000
N1 N 0.0000 0.0000 0.1960(4)
N2 N 0.1591(6) 0.1468(6) 0.2790(2)
N3 N 0.1832(5) 0.2362(5) 0.1761(2)
N5 N 0.0151(10) 0.1831(9) 0.3913(4)
C1 C 0.1034(5) 0.0953(5) 0.2929(3)
C2 C 0.0000 0.0000 0.2376(4)
C3 C 0.2276(6) 0.2667(7) 0.1375(3)
H1 H 0.2841 0.2963 0.1413
C4 C 0.1918(6) 0.2556(7) 0.0920(3)
H2 H 0.2248 0.2770 0.0657
C5 C 0.1033(5) 0.1941(6) 0.1696(3)
H3 H 0.0715 0.1726 0.1962
C6 C 0.0645(5) 0.1806(6) 0.1248(2)
H4 H 0.0088 0.1491 0.1218
C7 C 0.1080(5) 0.2134(5) 0.0856(2)
C8 C 0.0703(5) 0.2005(5) 0.0378(2)
C9 C 0.0141(6) 0.1105(5) 0.3655(3)
O5 O 0.3475(7) 0.1407(7) 0.2287(4)
N18 N 0.3409(6) 0.3532(6) 0.2210(2)
N20 N 0.3168(5) 0.2638(5) 0.3239(2)
O2_2 O 0.1251(5) 0.2210(5) 1.0000
N6 N 0.1832(5) 0.2362(5) 0.8239(2)
C10 C 0.2276(6) 0.2667(7) 0.8625(3)
H5 H 0.2841 0.2963 0.8587
C11 C 0.1918(6) 0.2556(7) 0.9080(3)
H6 H 0.2248 0.2770 0.9343
C12 C 0.1033(5) 0.1941(6) 0.8304(3)
H7 H 0.0715 0.1726 0.8038
C13 C 0.0645(5) 0.1806(6) 0.8752(2)
H8 H 0.0088 0.1491 0.8782
C14 C 0.1080(5) 0.2134(5) 0.9144(2)
C15 C 0.0703(5) 0.2005(5) 0.9622(2)
Mn5 Mn 0.2500 0.2500 0.7500
W1_2 W 0.0000 1.0000 0.31522(2)
N1_2 N -0.0000 1.0000 0.1960(4)
C2_2 C 0.0000 1.0000 0.2376(4)
N16 N 0.1468(6) 0.8409(6) 0.2790(2)
N17 N 0.1831(9) 0.9849(10) 0.3913(4)
C32 C 0.0953(5) 0.8966(5) 0.2929(3)
C33 C 0.1105(5) 0.9859(6) 0.3655(3)
Mn4 Mn 0.2500 0.7500 0.2500
W1_3 W 1.0000 0.0000 0.31522(2)
N1_3 N 1.0000 0.0000 0.1960(4)
N4 N 0.9899(4) 0.1731(5) 0.0249(2)
C2_3 C 1.0000 0.0000 0.2376(4)
Mn2 Mn 0.7500 0.2500 0.2500
O3 O 0.6407(7) 0.1525(7) 0.2713(4)
O4 O 0.7790(5) 0.1251(5) 0.0000
N8 N 0.8532(6) 0.1591(6) 0.2790(2)
N9 N 0.7638(5) 0.1832(5) 0.1761(2)
N11 N 0.8169(9) 0.0151(10) 0.3913(4)
C16 C 0.9047(5) 0.1034(5) 0.2929(3)
C17 C 0.7333(7) 0.2276(6) 0.1375(3)
H9 H 0.7037 0.2841 0.1413
C18 C 0.7444(7) 0.1918(6) 0.0920(3)
H10 H 0.7230 0.2248 0.0657
C19 C 0.8059(6) 0.1033(5) 0.1696(3)
H11 H 0.8274 0.0715 0.1962
C20 C 0.8194(6) 0.0645(5) 0.1248(2)
H12 H 0.8509 0.0088 0.1218
C21 C 0.7866(5) 0.1080(5) 0.0856(2)
C22 C 0.7995(5) 0.0703(5) 0.0378(2)
C23 C 0.8895(5) 0.0141(6) 0.3655(3)
O6 O 0.8593(7) 0.3475(7) 0.2287(4)
N19 N 0.6468(6) 0.3409(6) 0.2210(2)
N21 N 0.7362(5) 0.3168(5) 0.3239(2)
N7 N 0.9899(4) 0.1731(5) 0.9751(2)
O4_2 O 0.7790(5) 0.1251(5) 1.0000
N12 N 0.7638(5) 0.1832(5) 0.8239(2)
C24 C 0.7333(7) 0.2276(6) 0.8625(3)
H13 H 0.7037 0.2841 0.8587
C25 C 0.7444(7) 0.1918(6) 0.9080(3)
H14 H 0.7230 0.2248 0.9343
C26 C 0.8059(6) 0.1033(5) 0.8304(3)
H15 H 0.8274 0.0715 0.8038
C27 C 0.8194(6) 0.0645(5) 0.8752(2)
H16 H 0.8509 0.0088 0.8782
C28 C 0.7866(5) 0.1080(5) 0.9144(2)
C29 C 0.7995(5) 0.0703(5) 0.9622(2)
Mn6 Mn 0.7500 0.2500 0.7500
W1_4 W 1.0000 1.0000 0.31522(2)
N1_4 N 1.0000 1.0000 0.1960(4)
C2_4 C 1.0000 1.0000 0.2376(4)
N10 N 0.8269(5) 0.9899(4) 0.0249(2)
N14 N 0.8409(6) 0.8532(6) 0.2790(2)
N15 N 0.9849(10) 0.8169(9) 0.3913(4)
C30 C 0.8966(5) 0.9047(5) 0.2929(3)
C31 C 0.9859(6) 0.8895(5) 0.3655(3)
Mn3 Mn 0.7500 0.7500 0.2500
N13 N 0.8269(5) 0.9899(4) 0.9751(2)
N10_2 N 0.0101(4) 0.8269(5) 0.0249(2)
N13_2 N 0.0101(4) 0.8269(5) 0.9751(2)
O3_2 O 0.8475(7) 0.6407(7) 0.2713(4)
O4_3 O 0.8749(5) 0.7790(5) 0.0000
N9_2 N 0.8168(5) 0.7638(5) 0.1761(2)
C17_2 C 0.7724(6) 0.7333(7) 0.1375(3)
H9_2 H 0.7159 0.7037 0.1413
C18_2 C 0.8082(6) 0.7444(7) 0.0920(3)
H10_2 H 0.7752 0.7230 0.0657
C19_2 C 0.8967(5) 0.8059(6) 0.1696(3)
H11_2 H 0.9285 0.8274 0.1962
C20_2 C 0.9355(5) 0.8194(6) 0.1248(2)
H12_2 H 0.9912 0.8509 0.1218
C21_2 C 0.8920(5) 0.7866(5) 0.0856(2)
C22_2 C 0.9297(5) 0.7995(5) 0.0378(2)
O6_2 O 0.6525(7) 0.8593(7) 0.2287(4)
N19_2 N 0.6591(6) 0.6468(6) 0.2210(2)
N21_2 N 0.6832(5) 0.7362(5) 0.3239(2)
O4_4 O 0.8749(5) 0.7790(5) 1.0000
N12_2 N 0.8168(5) 0.7638(5) 0.8239(2)
C24_2 C 0.7724(6) 0.7333(7) 0.8625(3)
H13_2 H 0.7159 0.7037 0.8587
C25_2 C 0.8082(6) 0.7444(7) 0.9080(3)
H14_2 H 0.7752 0.7230 0.9343
C26_2 C 0.8967(5) 0.8059(6) 0.8304(3)
H15_2 H 0.9285 0.8274 0.8038
C27_2 C 0.9355(5) 0.8194(6) 0.8752(2)
H16_2 H 0.9912 0.8509 0.8782
C28_2 C 0.8920(5) 0.7866(5) 0.9144(2)
C29_2 C 0.9297(5) 0.7995(5) 0.9622(2)
Mn6_2 Mn 0.7500 0.7500 0.7500
N10_3 N 0.1731(5) 0.0101(4) 0.0249(2)
N13_3 N 0.1731(5) 0.0101(4) 0.9751(2)
O3_3 O 0.3593(7) 0.8475(7) 0.2713(4)
O4_5 O 0.2210(5) 0.8749(5) 0.0000
N9_3 N 0.2362(5) 0.8168(5) 0.1761(2)
C17_3 C 0.2667(7) 0.7724(6) 0.1375(3)
H9_3 H 0.2963 0.7159 0.1413
C18_3 C 0.2556(7) 0.8082(6) 0.0920(3)
H10_3 H 0.2770 0.7752 0.0657
C19_3 C 0.1941(6) 0.8967(5) 0.1696(3)
H11_3 H 0.1726 0.9285 0.1962
C20_3 C 0.1806(6) 0.9355(5) 0.1248(2)
H12_3 H 0.1491 0.9912 0.1218
C21_3 C 0.2134(5) 0.8920(5) 0.0856(2)
C22_3 C 0.2005(5) 0.9297(5) 0.0378(2)
O6_3 O 0.1407(7) 0.6525(7) 0.2287(4)
N19_3 N 0.3532(6) 0.6591(6) 0.2210(2)
N21_3 N 0.2638(5) 0.6832(5) 0.3239(2)
O4_6 O 0.2210(5) 0.8749(5) 1.0000
N12_3 N 0.2362(5) 0.8168(5) 0.8239(2)
C24_3 C 0.2667(7) 0.7724(6) 0.8625(3)
H13_3 H 0.2963 0.7159 0.8587
C25_3 C 0.2556(7) 0.8082(6) 0.9080(3)
H14_3 H 0.2770 0.7752 0.9343
C26_3 C 0.1941(6) 0.8967(5) 0.8304(3)
H15_3 H 0.1726 0.9285 0.8038
C27_3 C 0.1806(6) 0.9355(5) 0.8752(2)
H16_3 H 0.1491 0.9912 0.8782
C28_3 C 0.2134(5) 0.8920(5) 0.9144(2)
C29_3 C 0.2005(5) 0.9297(5) 0.9622(2)
Mn6_3 Mn 0.2500 0.7500 0.7500
W1_5 W 0.5000 0.5000 0.81522(2)
O1_2 O 0.6525(7) 0.8593(7) 0.7713(4)
O2_3 O 0.6251(5) 0.7210(5) 0.5000
N1_5 N 0.5000 0.5000 0.6960(4)
N2_2 N 0.6591(6) 0.6468(6) 0.7790(2)
N3_2 N 0.6832(5) 0.7362(5) 0.6761(2)
N4_2 N 0.4899(4) 0.6731(5) 0.5249(2)
N5_2 N 0.5151(10) 0.6831(9) 0.8913(4)
C1_2 C 0.6034(5) 0.5953(5) 0.7929(3)
C2_5 C 0.5000 0.5000 0.7376(4)
C3_2 C 0.7276(6) 0.7667(7) 0.6375(3)
H1_2 H 0.7841 0.7963 0.6413
C4_2 C 0.6918(6) 0.7556(7) 0.5920(3)
H2_2 H 0.7248 0.7770 0.5657
C5_2 C 0.6033(5) 0.6941(6) 0.6696(3)
H3_2 H 0.5715 0.6726 0.6962
C6_2 C 0.5645(5) 0.6806(6) 0.6248(2)
H4_2 H 0.5088 0.6491 0.6218
C7_2 C 0.6080(5) 0.7134(5) 0.5856(2)
C8_2 C 0.5703(5) 0.7005(5) 0.5378(2)
C9_2 C 0.5141(6) 0.6105(5) 0.8655(3)
N7_2 N 0.4899(4) 0.6731(5) 0.4751(2)
C10_2 C 0.7276(6) 0.7667(7) 0.3625(3)
H5_2 H 0.7841 0.7963 0.3587
C11_2 C 0.6918(6) 0.7556(7) 0.4080(3)
H6_2 H 0.7248 0.7770 0.4343
C12_2 C 0.6033(5) 0.6941(6) 0.3304(3)
H7_2 H 0.5715 0.6726 0.3038
C13_2 C 0.5645(5) 0.6806(6) 0.3752(2)
H8_2 H 0.5088 0.6491 0.3782
C14_2 C 0.6080(5) 0.7134(5) 0.4144(2)
C15_2 C 0.5703(5) 0.7005(5) 0.4622(2)
O3_4 O 0.1407(7) 0.6525(7) 0.7713(4)
O4_7 O 0.2790(5) 0.6251(5) 0.5000
N8_2 N 0.3532(6) 0.6591(6) 0.7790(2)
N9_4 N 0.2638(5) 0.6832(5) 0.6761(2)
N10_4 N 0.3269(5) 0.4899(4) 0.5249(2)
N11_2 N 0.3169(9) 0.5151(10) 0.8913(4)
C16_2 C 0.4047(5) 0.6034(5) 0.7929(3)
C17_4 C 0.2333(7) 0.7276(6) 0.6375(3)
H9_4 H 0.2037 0.7841 0.6413
C18_4 C 0.2444(7) 0.6918(6) 0.5920(3)
H10_4 H 0.2230 0.7248 0.5657
C19_4 C 0.3059(6) 0.6033(5) 0.6696(3)
H11_4 H 0.3274 0.5715 0.6962
C20_4 C 0.3194(6) 0.5645(5) 0.6248(2)
H12_4 H 0.3509 0.5088 0.6218
C21_4 C 0.2866(5) 0.6080(5) 0.5856(2)
C22_4 C 0.2995(5) 0.5703(5) 0.5378(2)
C23_2 C 0.3895(5) 0.5141(6) 0.8655(3)
N13_4 N 0.3269(5) 0.4899(4) 0.4751(2)
C24_4 C 0.2333(7) 0.7276(6) 0.3625(3)
H13_4 H 0.2037 0.7841 0.3587
C25_4 C 0.2444(7) 0.6918(6) 0.4080(3)
H14_4 H 0.2230 0.7248 0.4343
C26_4 C 0.3059(6) 0.6033(5) 0.3304(3)
H15_4 H 0.3274 0.5715 0.3038
C27_4 C 0.3194(6) 0.5645(5) 0.3752(2)
H16_4 H 0.3509 0.5088 0.3782
C28_4 C 0.2866(5) 0.6080(5) 0.4144(2)
C29_4 C 0.2995(5) 0.5703(5) 0.4622(2)
N14_2 N 0.3409(6) 0.3532(6) 0.7790(2)
N15_2 N 0.4849(10) 0.3169(9) 0.8913(4)
C30_2 C 0.3966(5) 0.4047(5) 0.7929(3)
C31_2 C 0.4859(6) 0.3895(5) 0.8655(3)
N16_2 N 0.6468(6) 0.3409(6) 0.7790(2)
N17_2 N 0.6831(9) 0.4849(10) 0.8913(4)
C32_2 C 0.5953(5) 0.3966(5) 0.7929(3)
C33_2 C 0.6105(5) 0.4859(6) 0.8655(3)
O5_2 O 0.8475(7) 0.6407(7) 0.7287(4)
O6_4 O 0.3593(7) 0.8475(7) 0.7287(4)
N18_2 N 0.8409(6) 0.8532(6) 0.7210(2)
N19_4 N 0.1468(6) 0.8409(6) 0.7210(2)
O3_5 O 0.3475(7) 0.1407(7) 0.7713(4)
O4_8 O 0.3749(5) 0.2790(5) 0.5000
N9_5 N 0.3168(5) 0.2638(5) 0.6761(2)
N10_5 N 0.5101(4) 0.3269(5) 0.5249(2)
C17_5 C 0.2724(6) 0.2333(7) 0.6375(3)
H9_5 H 0.2159 0.2037 0.6413
C18_5 C 0.3082(6) 0.2444(7) 0.5920(3)
H10_5 H 0.2752 0.2230 0.5657
C19_5 C 0.3967(5) 0.3059(6) 0.6696(3)
H11_5 H 0.4285 0.3274 0.6962
C20_5 C 0.4355(5) 0.3194(6) 0.6248(2)
H12_5 H 0.4912 0.3509 0.6218
C21_5 C 0.3920(5) 0.2866(5) 0.5856(2)
C22_5 C 0.4297(5) 0.2995(5) 0.5378(2)
N13_5 N 0.5101(4) 0.3269(5) 0.4751(2)
C24_5 C 0.2724(6) 0.2333(7) 0.3625(3)
H13_5 H 0.2159 0.2037 0.3587
C25_5 C 0.3082(6) 0.2444(7) 0.4080(3)
H14_5 H 0.2752 0.2230 0.4343
C26_5 C 0.3967(5) 0.3059(6) 0.3304(3)
H15_5 H 0.4285 0.3274 0.3038
C27_5 C 0.4355(5) 0.3194(6) 0.3752(2)
H16_5 H 0.4912 0.3509 0.3782
C28_5 C 0.3920(5) 0.2866(5) 0.4144(2)
C29_5 C 0.4297(5) 0.2995(5) 0.4622(2)
O6_5 O 0.1525(7) 0.3593(7) 0.7287(4)
N19_5 N 0.1591(6) 0.1468(6) 0.7210(2)
O3_6 O 0.8593(7) 0.3475(7) 0.7713(4)
O4_9 O 0.7210(5) 0.3749(5) 0.5000
N9_6 N 0.7362(5) 0.3168(5) 0.6761(2)
N10_6 N 0.6731(5) 0.5101(4) 0.5249(2)
C17_6 C 0.7667(7) 0.2724(6) 0.6375(3)
H9_6 H 0.7963 0.2159 0.6413
C18_6 C 0.7556(7) 0.3082(6) 0.5920(3)
H10_6 H 0.7770 0.2752 0.5657
C19_6 C 0.6941(6) 0.3967(5) 0.6696(3)
H11_6 H 0.6726 0.4285 0.6962
C20_6 C 0.6806(6) 0.4355(5) 0.6248(2)
H12_6 H 0.6491 0.4912 0.6218
C21_6 C 0.7134(5) 0.3920(5) 0.5856(2)
C22_6 C 0.7005(5) 0.4297(5) 0.5378(2)
N13_6 N 0.6731(5) 0.5101(4) 0.4751(2)
C24_6 C 0.7667(7) 0.2724(6) 0.3625(3)
H13_6 H 0.7963 0.2159 0.3587
C25_6 C 0.7556(7) 0.3082(6) 0.4080(3)
H14_6 H 0.7770 0.2752 0.4343
C26_6 C 0.6941(6) 0.3967(5) 0.3304(3)
H15_6 H 0.6726 0.4285 0.3038
C27_6 C 0.6806(6) 0.4355(5) 0.3752(2)
H16_6 H 0.6491 0.4912 0.3782
C28_6 C 0.7134(5) 0.3920(5) 0.4144(2)
C29_6 C 0.7005(5) 0.4297(5) 0.4622(2)
O6_6 O 0.6407(7) 0.1525(7) 0.7287(4)
N19_6 N 0.8532(6) 0.1591(6) 0.7210(2)
W1_6 W 0.0000 0.0000 0.68478(2)
N1_6 N 0.0000 0.0000 0.8040(4)
C2_6 C 0.0000 0.0000 0.7624(4)
N15_3 N 0.0151(10) 0.1831(9) 0.6087(4)
C30_3 C 0.1034(5) 0.0953(5) 0.7071(3)
C31_3 C 0.0141(6) 0.1105(5) 0.6345(3)
W1_7 W -0.0000 1.0000 0.68478(2)
N1_7 N 0.0000 1.0000 0.8040(4)
C2_7 C 0.0000 1.0000 0.7624(4)
N11_3 N 0.1831(9) 0.9849(10) 0.6087(4)
C16_3 C 0.0953(5) 0.8966(5) 0.7071(3)
C23_3 C 0.1105(5) 0.9859(6) 0.6345(3)
W1_8 W 1.0000 0.0000 0.68478(2)
N1_8 N 1.0000 0.0000 0.8040(4)
C2_8 C 1.0000 0.0000 0.7624(4)
N17_3 N 0.8169(9) 0.0151(10) 0.6087(4)
C32_3 C 0.9047(5) 0.1034(5) 0.7071(3)
C33_3 C 0.8895(5) 0.0141(6) 0.6345(3)
W1_9 W 1.0000 1.0000 0.68478(2)
N1_9 N 1.0000 1.0000 0.8040(4)
N5_3 N 0.9849(10) 0.8169(9) 0.6087(4)
C1_3 C 0.8966(5) 0.9047(5) 0.7071(3)
C2_9 C 1.0000 1.0000 0.7624(4)
C9_3 C 0.9859(6) 0.8895(5) 0.6345(3)
W1_10 W 0.5000 0.5000 0.18478(2)
N1_10 N 0.5000 0.5000 0.3040(4)
N5_4 N 0.4849(10) 0.3169(9) 0.1087(4)
C1_4 C 0.3966(5) 0.4047(5) 0.2071(3)
C2_10 C 0.5000 0.5000 0.2624(4)
C9_4 C 0.4859(6) 0.3895(5) 0.1345(3)
N11_4 N 0.6831(9) 0.4849(10) 0.1087(4)
C16_4 C 0.5953(5) 0.3966(5) 0.2071(3)
C23_4 C 0.6105(5) 0.4859(6) 0.1345(3)
N15_4 N 0.5151(10) 0.6831(9) 0.1087(4)
C30_4 C 0.6034(5) 0.5953(5) 0.2071(3)
C31_4 C 0.5141(6) 0.6105(5) 0.1345(3)
N17_4 N 0.3169(9) 0.5151(10) 0.1087(4)
C32_4 C 0.4047(5) 0.6034(5) 0.2071(3)
C33_4 C 0.3895(5) 0.5141(6) 0.1345(3)
loop_
_geom_bond_atom_site_label_1
_geom_bond_atom_site_label_2
_geom_bond_site_symmetry_1
_geom_bond_site_symmetry_2
W1 C1 1_555 1_555
Mn1 O1 1_555 1_555
O2 C8 1_555 1_555
N1 C2 1_555 1_555
N2 Mn1 1_555 1_555
N3 Mn1 1_555 1_555
N5 C9 1_555 1_555
C1 N2 1_555 1_555
C2 W1 1_555 1_555
C3 N3 1_555 1_555
H1 C3 1_555 1_555
C4 C3 1_555 1_555
H2 C4 1_555 1_555
C5 N3 1_555 1_555
H3 C5 1_555 1_555
C6 C5 1_555 1_555
H4 C6 1_555 1_555
C7 C4 1_555 1_555
C8 C7 1_555 1_555
C9 W1 1_555 1_555
O5 Mn1 1_555 1_555
N18 Mn1 1_555 1_555
N20 Mn1 1_555 1_555
C6 C7 1_555 1_555
N6 C10 1_555 1_555
C10 H5 1_555 1_555
C11 C10 1_555 1_555
H6 C11 1_555 1_555
C12 N6 1_555 1_555
H7 C12 1_555 1_555
C13 C12 1_555 1_555
H8 C13 1_555 1_555
C14 C11 1_555 1_555
C15 O2_2 1_555 1_555
Mn5 N6 1_555 1_555
C13 C14 1_555 1_555
C14 C15 1_555 1_555
N1_2 C2_2 1_555 1_555
C2_2 W1_2 1_555 1_555
N16 C32 1_555 1_555
N17 C33 1_555 1_555
C32 W1_2 1_555 1_555
C33 W1_2 1_555 1_555
Mn4 N16 1_555 1_555
N1_3 C2_3 1_555 1_555
C2_3 W1_3 1_555 1_555
Mn2 O3 1_555 1_555
O4 C22 1_555 1_555
N8 Mn2 1_555 1_555
N9 Mn2 1_555 1_555
N11 C23 1_555 1_555
C16 W1_3 1_555 1_555
C17 N9 1_555 1_555
H9 C17 1_555 1_555
C18 C17 1_555 1_555
H10 C18 1_555 1_555
C19 N9 1_555 1_555
H11 C19 1_555 1_555
C20 C19 1_555 1_555
H12 C20 1_555 1_555
C21 C18 1_555 1_555
C22 C21 1_555 1_555
C23 W1_3 1_555 1_555
O6 Mn2 1_555 1_555
N19 Mn2 1_555 1_555
N21 Mn2 1_555 1_555
N8 C16 1_555 1_555
C20 C21 1_555 1_555
N12 C24 1_555 1_555
C24 H13 1_555 1_555
C25 C24 1_555 1_555
H14 C25 1_555 1_555
C26 N12 1_555 1_555
H15 C26 1_555 1_555
C27 C26 1_555 1_555
H16 C27 1_555 1_555
C28 C25 1_555 1_555
C29 O4_2 1_555 1_555
Mn6 N12 1_555 1_555
C27 C28 1_555 1_555
C28 C29 1_555 1_555
N1_4 C2_4 1_555 1_555
C2_4 W1_4 1_555 1_555
N14 C30 1_555 1_555
N15 C31 1_555 1_555
C30 W1_4 1_555 1_555
C31 W1_4 1_555 1_555
Mn3 N14 1_555 1_555
Mn3 O3_2 1_555 1_555
O4_3 C22_2 1_555 1_555
N9_2 Mn3 1_555 1_555
C17_2 N9_2 1_555 1_555
H9_2 C17_2 1_555 1_555
C18_2 C17_2 1_555 1_555
H10_2 C18_2 1_555 1_555
C19_2 N9_2 1_555 1_555
H11_2 C19_2 1_555 1_555
C20_2 C19_2 1_555 1_555
H12_2 C20_2 1_555 1_555
C21_2 C18_2 1_555 1_555
C22_2 C21_2 1_555 1_555
O6_2 Mn3 1_555 1_555
N19_2 Mn3 1_555 1_555
N21_2 Mn3 1_555 1_555
C20_2 C21_2 1_555 1_555
N12_2 C24_2 1_555 1_555
C24_2 H13_2 1_555 1_555
C25_2 C24_2 1_555 1_555
H14_2 C25_2 1_555 1_555
C26_2 N12_2 1_555 1_555
H15_2 C26_2 1_555 1_555
C27_2 C26_2 1_555 1_555
H16_2 C27_2 1_555 1_555
C28_2 C25_2 1_555 1_555
C29_2 O4_4 1_555 1_555
Mn6_2 N12_2 1_555 1_555
C27_2 C28_2 1_555 1_555
C28_2 C29_2 1_555 1_555
Mn4 O3_3 1_555 1_555
O4_5 C22_3 1_555 1_555
N9_3 Mn4 1_555 1_555
C17_3 N9_3 1_555 1_555
H9_3 C17_3 1_555 1_555
C18_3 C17_3 1_555 1_555
H10_3 C18_3 1_555 1_555
C19_3 N9_3 1_555 1_555
H11_3 C19_3 1_555 1_555
C20_3 C19_3 1_555 1_555
H12_3 C20_3 1_555 1_555
C21_3 C18_3 1_555 1_555
C22_3 C21_3 1_555 1_555
O6_3 Mn4 1_555 1_555
N19_3 Mn4 1_555 1_555
N21_3 Mn4 1_555 1_555
C20_3 C21_3 1_555 1_555
N12_3 C24_3 1_555 1_555
C24_3 H13_3 1_555 1_555
C25_3 C24_3 1_555 1_555
H14_3 C25_3 1_555 1_555
C26_3 N12_3 1_555 1_555
H15_3 C26_3 1_555 1_555
C27_3 C26_3 1_555 1_555
H16_3 C27_3 1_555 1_555
C28_3 C25_3 1_555 1_555
C29_3 O4_6 1_555 1_555
Mn6_3 N12_3 1_555 1_555
C27_3 C28_3 1_555 1_555
C28_3 C29_3 1_555 1_555
W1_5 C1_2 1_555 1_555
Mn6_2 O1_2 1_555 1_555
O2_3 C8_2 1_555 1_555
N1_5 C2_5 1_555 1_555
N2_2 Mn6_2 1_555 1_555
N3_2 Mn6_2 1_555 1_555
N4_2 C8_2 1_555 1_555
N5_2 C9_2 1_555 1_555
C1_2 N2_2 1_555 1_555
C2_5 W1_5 1_555 1_555
C3_2 N3_2 1_555 1_555
H1_2 C3_2 1_555 1_555
C4_2 C3_2 1_555 1_555
H2_2 C4_2 1_555 1_555
C5_2 N3_2 1_555 1_555
H3_2 C5_2 1_555 1_555
C6_2 C5_2 1_555 1_555
H4_2 C6_2 1_555 1_555
C7_2 C4_2 1_555 1_555
C8_2 C7_2 1_555 1_555
C9_2 W1_5 1_555 1_555
N21_2 C10_2 1_555 1_555
N7_2 N4_2 1_555 1_555
C10_2 H5_2 1_555 1_555
C11_2 C10_2 1_555 1_555
H6_2 C11_2 1_555 1_555
C12_2 N21_2 1_555 1_555
H7_2 C12_2 1_555 1_555
C13_2 C12_2 1_555 1_555
H8_2 C13_2 1_555 1_555
C14_2 C11_2 1_555 1_555
C15_2 O2_3 1_555 1_555
Mn6_3 O3_4 1_555 1_555
O4_7 C22_4 1_555 1_555
N8_2 Mn6_3 1_555 1_555
N9_4 Mn6_3 1_555 1_555
N10_4 C22_4 1_555 1_555
N11_2 C23_2 1_555 1_555
C16_2 W1_5 1_555 1_555
C17_4 N9_4 1_555 1_555
H9_4 C17_4 1_555 1_555
C18_4 C17_4 1_555 1_555
H10_4 C18_4 1_555 1_555
C19_4 N9_4 1_555 1_555
H11_4 C19_4 1_555 1_555
C20_4 C19_4 1_555 1_555
H12_4 C20_4 1_555 1_555
C21_4 C18_4 1_555 1_555
C22_4 C21_4 1_555 1_555
C23_2 W1_5 1_555 1_555
N21_3 C24_4 1_555 1_555
N13_4 N10_4 1_555 1_555
C24_4 H13_4 1_555 1_555
C25_4 C24_4 1_555 1_555
H14_4 C25_4 1_555 1_555
C26_4 N21_3 1_555 1_555
H15_4 C26_4 1_555 1_555
C27_4 C26_4 1_555 1_555
H16_4 C27_4 1_555 1_555
C28_4 C25_4 1_555 1_555
C29_4 O4_7 1_555 1_555
N14_2 C30_2 1_555 1_555
N15_2 C31_2 1_555 1_555
C30_2 W1_5 1_555 1_555
C31_2 W1_5 1_555 1_555
N16_2 C32_2 1_555 1_555
N17_2 C33_2 1_555 1_555
C32_2 W1_5 1_555 1_555
C33_2 W1_5 1_555 1_555
O5_2 Mn6_2 1_555 1_555
O6_4 Mn6_3 1_555 1_555
Mn5 N14_2 1_555 1_555
Mn6 N16_2 1_555 1_555
N18_2 Mn6_2 1_555 1_555
N19_4 Mn6_3 1_555 1_555
C6_2 C7_2 1_555 1_555
N7_2 C15_2 1_555 1_555
C13_2 C14_2 1_555 1_555
C14_2 C15_2 1_555 1_555
N8_2 C16_2 1_555 1_555
C20_4 C21_4 1_555 1_555
N13_4 C29_4 1_555 1_555
C27_4 C28_4 1_555 1_555
C28_4 C29_4 1_555 1_555
Mn5 O3_5 1_555 1_555
O4_8 C22_5 1_555 1_555
N9_5 Mn5 1_555 1_555
N10_5 C22_5 1_555 1_555
C17_5 N9_5 1_555 1_555
H9_5 C17_5 1_555 1_555
C18_5 C17_5 1_555 1_555
H10_5 C18_5 1_555 1_555
C19_5 N9_5 1_555 1_555
H11_5 C19_5 1_555 1_555
C20_5 C19_5 1_555 1_555
H12_5 C20_5 1_555 1_555
C21_5 C18_5 1_555 1_555
C22_5 C21_5 1_555 1_555
N20 C24_5 1_555 1_555
N13_5 N10_5 1_555 1_555
C24_5 H13_5 1_555 1_555
C25_5 C24_5 1_555 1_555
H14_5 C25_5 1_555 1_555
C26_5 N20 1_555 1_555
H15_5 C26_5 1_555 1_555
C27_5 C26_5 1_555 1_555
H16_5 C27_5 1_555 1_555
C28_5 C25_5 1_555 1_555
C29_5 O4_8 1_555 1_555
O6_5 Mn5 1_555 1_555
N19_5 Mn5 1_555 1_555
C20_5 C21_5 1_555 1_555
N13_5 C29_5 1_555 1_555
C27_5 C28_5 1_555 1_555
C28_5 C29_5 1_555 1_555
Mn6 O3_6 1_555 1_555
O4_9 C22_6 1_555 1_555
N9_6 Mn6 1_555 1_555
N10_6 C22_6 1_555 1_555
C17_6 N9_6 1_555 1_555
H9_6 C17_6 1_555 1_555
C18_6 C17_6 1_555 1_555
H10_6 C18_6 1_555 1_555
C19_6 N9_6 1_555 1_555
H11_6 C19_6 1_555 1_555
C20_6 C19_6 1_555 1_555
H12_6 C20_6 1_555 1_555
C21_6 C18_6 1_555 1_555
C22_6 C21_6 1_555 1_555
N21 C24_6 1_555 1_555
N13_6 N10_6 1_555 1_555
C24_6 H13_6 1_555 1_555
C25_6 C24_6 1_555 1_555
H14_6 C25_6 1_555 1_555
C26_6 N21 1_555 1_555
H15_6 C26_6 1_555 1_555
C27_6 C26_6 1_555 1_555
H16_6 C27_6 1_555 1_555
C28_6 C25_6 1_555 1_555
C29_6 O4_9 1_555 1_555
O6_6 Mn6 1_555 1_555
N19_6 Mn6 1_555 1_555
C20_6 C21_6 1_555 1_555
N13_6 C29_6 1_555 1_555
C27_6 C28_6 1_555 1_555
C28_6 C29_6 1_555 1_555
N1_6 C2_6 1_555 1_555
C2_6 W1_6 1_555 1_555
N19_5 C30_3 1_555 1_555
N15_3 C31_3 1_555 1_555
C30_3 W1_6 1_555 1_555
C31_3 W1_6 1_555 1_555
N1_7 C2_7 1_555 1_555
C2_7 W1_7 1_555 1_555
N11_3 C23_3 1_555 1_555
C16_3 W1_7 1_555 1_555
C23_3 W1_7 1_555 1_555
N19_4 C16_3 1_555 1_555
N1_8 C2_8 1_555 1_555
C2_8 W1_8 1_555 1_555
N19_6 C32_3 1_555 1_555
N17_3 C33_3 1_555 1_555
C32_3 W1_8 1_555 1_555
C33_3 W1_8 1_555 1_555
W1_9 C1_3 1_555 1_555
N1_9 C2_9 1_555 1_555
N5_3 C9_3 1_555 1_555
C1_3 N18_2 1_555 1_555
C2_9 W1_9 1_555 1_555
C9_3 W1_9 1_555 1_555
W1_10 C1_4 1_555 1_555
N1_10 C2_10 1_555 1_555
N5_4 C9_4 1_555 1_555
C1_4 N18 1_555 1_555
C2_10 W1_10 1_555 1_555
C9_4 W1_10 1_555 1_555
N11_4 C23_4 1_555 1_555
C16_4 W1_10 1_555 1_555
C23_4 W1_10 1_555 1_555
N19_2 C30_4 1_555 1_555
N15_4 C31_4 1_555 1_555
C30_4 W1_10 1_555 1_555
C31_4 W1_10 1_555 1_555
N19_3 C32_4 1_555 1_555
N17_4 C33_4 1_555 1_555
C32_4 W1_10 1_555 1_555
C33_4 W1_10 1_555 1_555
N19 C16_4 1_555 1_555

#END
