
###############################################################################
#
# This file contains modified crystal structure data generated from the
# MOF subset of the Cambridge Structural Database (CSD) v543 
# hosted by the Cambridge Crystallographic Data Centre (CCDC).
#
# This work is licensed under the Creative Commons
# Attribution-NonCommercial-ShareAlike 4.0 International License.
# To view a copy of this license, visit
# http://creativecommons.org/licenses/by-nc-sa/4.0/
# or send a letter to
# Creative Commons, PO Box 1866, Mountain View, CA 94042, USA.
#
# CIF created using the CSD Python API on 29 September 2022
# The structure has been converted into the P1 space group
# The structure has a 3D framework
# The original CSD entry WOGBAY is in the cubic crystal system
# The framework has been calculated to contain at least 10.0% void space
# The void calculation uses a probe of radius 1.32A, grid spacing 0.4
# H atom positions have been added when not included in the experimental data
#
###############################################################################

data_WOGBAY
_chemical_formula_moiety         '(C192 H50 N48 O90 S48 Zr9)n'
_symmetry_cell_setting           triclinic
_symmetry_space_group_name_H-M   'P 1'
_symmetry_Int_Tables_number      1
_space_group_name_Hall           'P 1'
loop_
_symmetry_equiv_pos_site_id
_symmetry_equiv_pos_as_xyz
1 x,y,z
_cell_length_a                   25.3505(8)
_cell_length_b                   25.3505(8)
_cell_length_c                   25.3505(8)
_cell_angle_alpha                90
_cell_angle_beta                 90
_cell_angle_gamma                90
_cell_volume                     16291.4
loop_
_atom_site_label
_atom_site_type_symbol
_atom_site_fract_x
_atom_site_fract_y
_atom_site_fract_z
Zr9 Zr 0.5064(2) 0.0001(3) 0.09334(18)
Zr1 Zr 0.5064(2) 0.4999(3) 0.40666(18)
O1 O 0.43024(20) 0.5237(9) 0.3742(4)
O2 O 0.3600(3) 0.5033(12) 0.4274(2)
C1 C 0.38371(18) 0.5071(6) 0.3831(2)
C2 C 0.34542(14) 0.5229(7) 0.33869(16)
N1 N 0.31957(18) 0.5336(16) 0.2452(5)
C3 C 0.3599(6) 0.520(2) 0.27829(19)
C4 C 0.2734(2) 0.526(2) 0.2697(3)
S1 S 0.2806(2) 0.5195(11) 0.3332(2)
O3 O 0.5846(3) 0.4801(9) 0.3781(5)
O4 O 0.6462(3) 0.5150(9) 0.4345(3)
C5 C 0.62763(19) 0.5035(6) 0.3889(3)
C6 C 0.67221(13) 0.4864(5) 0.35132(16)
N2 N 0.7639(5) 0.503(3) 0.32192(17)
C7 C 0.7363(4) 0.499(3) 0.27727(19)
C8 C 0.7315(8) 0.499(4) 0.3645(3)
S2 S 0.6734(2) 0.4921(11) 0.2867(2)
O5 O 0.4453(4) 0.5467(4) 0.4386(3)
O6 O 0.45217(2) 0.45217(2) 0.45217(2)
H1 H 0.43317(2) 0.43317(2) 0.43317(2)
O7 O 0.06976(20) 0.5237(9) 0.1258(4)
O8 O 0.1400(3) 0.5033(12) 0.0726(2)
C9 C 0.11629(18) 0.5071(6) 0.1169(2)
C10 C 0.15458(14) 0.5229(7) 0.16131(16)
N3 N 0.18043(18) 0.5336(16) 0.2548(5)
C11 C 0.1401(6) 0.520(2) 0.22171(19)
C12 C 0.2266(2) 0.526(2) 0.2303(3)
S3 S 0.2194(2) 0.5195(11) 0.1668(2)
O9 O 0.9154(3) 0.4801(9) 0.1219(5)
O10 O 0.8538(3) 0.5150(9) 0.0655(3)
C13 C 0.87237(19) 0.5035(6) 0.1111(3)
C14 C 0.82779(13) 0.4864(5) 0.14868(16)
N4 N 0.7361(5) 0.503(3) 0.17808(17)
C15 C 0.7637(4) 0.499(3) 0.22273(19)
C16 C 0.7685(8) 0.499(4) 0.1355(3)
S4 S 0.8266(2) 0.4921(11) 0.2133(2)
O13 O 0.0547(4) 0.5467(4) 0.0614(3)
O14 O 0.04783(2) 0.45217(2) 0.04783(2)
H2 H 0.06683(2) 0.43317(2) 0.06683(2)
Zr3 Zr 0.4999(3) 0.40666(18) 0.5064(2)
O17 O 0.5237(9) 0.3742(4) 0.43024(20)
O18 O 0.5033(12) 0.4274(2) 0.3600(3)
C25 C 0.5071(6) 0.3831(2) 0.38371(18)
C26 C 0.5229(7) 0.33869(16) 0.34542(14)
N7 N 0.5336(16) 0.2452(5) 0.31957(18)
C27 C 0.520(2) 0.27829(19) 0.3599(6)
C28 C 0.526(2) 0.2697(3) 0.2734(2)
S7 S 0.5195(11) 0.3332(2) 0.2806(2)
O19 O 0.5467(4) 0.4386(3) 0.4453(4)
O20 O 0.5237(9) 0.1258(4) 0.06976(20)
O21 O 0.5033(12) 0.0726(2) 0.1400(3)
C29 C 0.5071(6) 0.1169(2) 0.11629(18)
C30 C 0.5229(7) 0.16131(16) 0.15458(14)
N8 N 0.5336(16) 0.2548(5) 0.18043(18)
C31 C 0.520(2) 0.22171(19) 0.1401(6)
C32 C 0.526(2) 0.2303(3) 0.2266(2)
S8 S 0.5195(11) 0.1668(2) 0.2194(2)
Zr4 Zr 0.0001(3) 0.09334(18) 0.5064(2)
O27 O 0.5467(4) 0.0614(3) 0.0547(4)
O29 O 0.5199(9) 0.6219(5) 0.4154(3)
O30 O 0.4850(9) 0.5655(3) 0.3538(3)
C41 C 0.4965(6) 0.6111(3) 0.37237(19)
C42 C 0.5136(5) 0.64868(16) 0.32779(13)
N11 N 0.497(3) 0.67808(17) 0.2361(5)
C43 C 0.501(3) 0.72273(19) 0.2637(4)
C44 C 0.501(4) 0.6355(3) 0.2685(8)
S11 S 0.5079(11) 0.7133(2) 0.3266(2)
O31 O 0.5199(9) 0.8781(5) 0.0846(3)
O32 O 0.4850(9) 0.9345(3) 0.1462(3)
C45 C 0.4965(6) 0.8889(3) 0.12763(19)
C46 C 0.5136(5) 0.85132(16) 0.17221(13)
N12 N 0.497(3) 0.82192(17) 0.2639(5)
C47 C 0.501(3) 0.77727(19) 0.2363(4)
C48 C 0.501(4) 0.8645(3) 0.2315(8)
S12 S 0.5079(11) 0.7867(2) 0.1734(2)
Zr10 Zr 0.9936(2) 0.4999(3) 0.09334(18)
Zr12 Zr 0.40666(18) 0.5064(2) 0.4999(3)
Zr13 Zr 0.09334(18) 0.5064(2) 0.0001(3)
Zr14 Zr 0.5001(3) 0.59334(18) 0.4936(2)
Zr15 Zr 0.5001(3) 0.90666(18) 0.0064(2)
Zr18 Zr 0.59334(18) 0.4936(2) 0.5001(3)
O33 O 0.4274(2) 0.3600(3) 0.5033(12)
O35 O 0.0726(2) 0.1400(3) 0.5033(12)
O37 O 0.4801(9) 0.3781(5) 0.5846(3)
O38 O 0.0199(9) 0.1219(5) 0.5846(3)
O41 O 0.0150(9) 0.5655(3) 0.1462(3)
O42 O 0.5655(3) 0.3538(3) 0.4850(9)
O45 O 0.5655(3) 0.1462(3) 0.0150(9)
O46 O 0.4386(3) 0.4453(4) 0.5467(4)
O48 O 0.0614(3) 0.0547(4) 0.5467(4)
O50 O 0.5547(4) 0.4533(4) 0.5614(3)
O54 O 0.5614(3) 0.5547(4) 0.4533(4)
O56 O 0.45217(2) 0.04783(2) 0.04783(2)
O57 O 0.04783(2) 0.04783(2) 0.45217(2)
H3 H 0.745583 0.504145 0.404756
H4 H 0.101299 0.508177 0.235855
H5 H 0.398701 0.508177 0.264145
H6 H 0.508177 0.235855 0.101299
H7 H 0.754417 0.504145 0.0952437
H11 H 0.508177 0.264145 0.398701
H12 H 0.495855 0.595244 0.254417
H14 H 0.495855 0.904756 0.245583
Zr5 Zr 0.4999(3) 0.09334(18) 0.9936(2)
Zr6 Zr 0.0001(3) 0.40666(18) 0.9936(2)
Zr20 Zr 0.90666(18) 0.4936(2) 0.9999(3)
Zr22 Zr 0.59334(18) 0.0064(2) 0.9999(3)
O34 O 0.0726(2) 0.3600(3) 0.9967(12)
O36 O 0.4274(2) 0.1400(3) 0.9967(12)
O39 O 0.4801(9) 0.1219(5) 0.9154(3)
O40 O 0.0199(9) 0.3781(5) 0.9154(3)
O47 O 0.0614(3) 0.4453(4) 0.9533(4)
O49 O 0.4386(3) 0.0547(4) 0.9533(4)
O51 O 0.5547(4) 0.0467(4) 0.9386(3)
O22 O 0.9763(9) 0.1258(4) 0.43024(20)
O23 O 0.9967(12) 0.0726(2) 0.3600(3)
C33 C 0.9929(6) 0.1169(2) 0.38371(18)
C34 C 0.9771(7) 0.16131(16) 0.34542(14)
N9 N 0.9664(16) 0.2548(5) 0.31957(18)
C35 C 0.980(2) 0.22171(19) 0.3599(6)
C36 C 0.974(2) 0.2303(3) 0.2734(2)
S9 S 0.9805(11) 0.1668(2) 0.2806(2)
O24 O 0.9533(4) 0.0614(3) 0.4453(4)
O25 O 0.9763(9) 0.3742(4) 0.06976(20)
O26 O 0.9967(12) 0.4274(2) 0.1400(3)
C37 C 0.9929(6) 0.3831(2) 0.11629(18)
C38 C 0.9771(7) 0.33869(16) 0.15458(14)
N10 N 0.9664(16) 0.2452(5) 0.18043(18)
C39 C 0.980(2) 0.27829(19) 0.1401(6)
C40 C 0.974(2) 0.2697(3) 0.2266(2)
S10 S 0.9805(11) 0.3332(2) 0.2194(2)
O28 O 0.9533(4) 0.4386(3) 0.0547(4)
Zr11 Zr 0.9936(2) 0.0001(3) 0.40666(18)
Zr16 Zr 0.9999(3) 0.59334(18) 0.0064(2)
Zr21 Zr 0.90666(18) 0.0064(2) 0.5001(3)
O43 O 0.9345(3) 0.3538(3) 0.0150(9)
O44 O 0.9345(3) 0.1462(3) 0.4850(9)
O53 O 0.9453(4) 0.0467(4) 0.5614(3)
O55 O 0.9386(3) 0.5547(4) 0.0467(4)
H9 H 0.991823 0.235855 0.398701
H13 H 0.991823 0.264145 0.101299
O52 O 0.9453(4) 0.4533(4) 0.9386(3)
O3_2 O 0.5846(3) 0.0199(9) 0.1219(5)
C6_2 C 0.67221(13) 0.0136(5) 0.14868(16)
C7_2 C 0.7363(4) 0.001(3) 0.22273(19)
C8_2 C 0.7315(8) 0.001(4) 0.1355(3)
S2_2 S 0.6734(2) 0.0079(11) 0.2133(2)
H1_2 H 0.43317(2) 0.06683(2) 0.06683(2)
O9_2 O 0.9154(3) 0.0199(9) 0.3781(5)
C14_2 C 0.82779(13) 0.0136(5) 0.35132(16)
C15_2 C 0.7637(4) 0.001(3) 0.27727(19)
C16_2 C 0.7685(8) 0.001(4) 0.3645(3)
S4_2 S 0.8266(2) 0.0079(11) 0.2867(2)
H2_2 H 0.06683(2) 0.06683(2) 0.43317(2)
O1_2 O 0.43024(20) 0.9763(9) 0.1258(4)
O2_2 O 0.3600(3) 0.9967(12) 0.0726(2)
C1_2 C 0.38371(18) 0.9929(6) 0.1169(2)
C2_2 C 0.34542(14) 0.9771(7) 0.16131(16)
N1_2 N 0.31957(18) 0.9664(16) 0.2548(5)
C3_2 C 0.3599(6) 0.980(2) 0.22171(19)
C4_2 C 0.2734(2) 0.974(2) 0.2303(3)
S1_2 S 0.2806(2) 0.9805(11) 0.1668(2)
O4_2 O 0.6462(3) 0.9850(9) 0.0655(3)
C5_2 C 0.62763(19) 0.9965(6) 0.1111(3)
N2_2 N 0.7639(5) 0.997(3) 0.17808(17)
O5_2 O 0.4453(4) 0.9533(4) 0.0614(3)
O7_2 O 0.06976(20) 0.9763(9) 0.3742(4)
O8_2 O 0.1400(3) 0.9967(12) 0.4274(2)
C9_2 C 0.11629(18) 0.9929(6) 0.3831(2)
C10_2 C 0.15458(14) 0.9771(7) 0.33869(16)
N3_2 N 0.18043(18) 0.9664(16) 0.2452(5)
C11_2 C 0.1401(6) 0.980(2) 0.27829(19)
C12_2 C 0.2266(2) 0.974(2) 0.2697(3)
S3_2 S 0.2194(2) 0.9805(11) 0.3332(2)
O10_2 O 0.8538(3) 0.9850(9) 0.4345(3)
C13_2 C 0.87237(19) 0.9965(6) 0.3889(3)
N4_2 N 0.7361(5) 0.997(3) 0.32192(17)
O13_2 O 0.0547(4) 0.9533(4) 0.4386(3)
Zr12_2 Zr 0.40666(18) 0.9936(2) 0.0001(3)
Zr13_2 Zr 0.09334(18) 0.9936(2) 0.4999(3)
O41_2 O 0.0150(9) 0.9345(3) 0.3538(3)
O54_2 O 0.5614(3) 0.9453(4) 0.0467(4)
H3_2 H 0.745583 0.995855 0.0952437
H4_2 H 0.101299 0.991823 0.264145
H5_2 H 0.398701 0.991823 0.235855
H7_2 H 0.754417 0.995855 0.404756
Zr16_2 Zr 0.9999(3) 0.90666(18) 0.4936(2)
O55_2 O 0.9386(3) 0.9453(4) 0.4533(4)
C41_2 C 0.0035(6) 0.6111(3) 0.12763(19)
N11_2 N 0.003(3) 0.67808(17) 0.2639(5)
C45_2 C 0.0035(6) 0.8889(3) 0.37237(19)
N12_2 N 0.003(3) 0.82192(17) 0.2361(5)
H12_2 H 0.00414472 0.595244 0.245583
H14_2 H 0.00414472 0.904756 0.254417
O29_2 O 0.9801(9) 0.6219(5) 0.0846(3)
C42_2 C 0.9864(5) 0.64868(16) 0.17221(13)
C43_2 C 0.999(3) 0.72273(19) 0.2363(4)
C44_2 C 0.999(4) 0.6355(3) 0.2315(8)
S11_2 S 0.9921(11) 0.7133(2) 0.1734(2)
O31_2 O 0.9801(9) 0.8781(5) 0.4154(3)
C46_2 C 0.9864(5) 0.85132(16) 0.32779(13)
C47_2 C 0.999(3) 0.77727(19) 0.2637(4)
C48_2 C 0.999(4) 0.8645(3) 0.2685(8)
S12_2 S 0.9921(11) 0.7867(2) 0.3266(2)
O4_3 O 0.5150(9) 0.4345(3) 0.6462(3)
C5_3 C 0.5035(6) 0.3889(3) 0.62763(19)
C6_3 C 0.4864(5) 0.35132(16) 0.67221(13)
N2_3 N 0.503(3) 0.32192(17) 0.7639(5)
C7_3 C 0.499(3) 0.27727(19) 0.7363(4)
C8_3 C 0.499(4) 0.3645(3) 0.7315(8)
S2_3 S 0.4921(11) 0.2867(2) 0.6734(2)
O10_3 O 0.5150(9) 0.0655(3) 0.8538(3)
C13_3 C 0.5035(6) 0.1111(3) 0.87237(19)
C14_3 C 0.4864(5) 0.14868(16) 0.82779(13)
N4_3 N 0.503(3) 0.17808(17) 0.7361(5)
C15_3 C 0.499(3) 0.22273(19) 0.7637(4)
C16_3 C 0.499(4) 0.1355(3) 0.7685(8)
S4_3 S 0.4921(11) 0.2133(2) 0.8266(2)
O17_2 O 0.3742(4) 0.43024(20) 0.5237(9)
C25_2 C 0.3831(2) 0.38371(18) 0.5071(6)
C26_2 C 0.33869(16) 0.34542(14) 0.5229(7)
N7_2 N 0.2452(5) 0.31957(18) 0.5336(16)
C27_2 C 0.27829(19) 0.3599(6) 0.520(2)
C28_2 C 0.2697(3) 0.2734(2) 0.526(2)
S7_2 S 0.3332(2) 0.2806(2) 0.5195(11)
O20_2 O 0.1258(4) 0.06976(20) 0.5237(9)
C29_2 C 0.1169(2) 0.11629(18) 0.5071(6)
C30_2 C 0.16131(16) 0.15458(14) 0.5229(7)
N8_2 N 0.2548(5) 0.18043(18) 0.5336(16)
C31_2 C 0.22171(19) 0.1401(6) 0.520(2)
C32_2 C 0.2303(3) 0.2266(2) 0.526(2)
S8_2 S 0.1668(2) 0.2194(2) 0.5195(11)
O29_3 O 0.6219(5) 0.4154(3) 0.5199(9)
C41_3 C 0.6111(3) 0.37237(19) 0.4965(6)
C42_3 C 0.64868(16) 0.32779(13) 0.5136(5)
N11_3 N 0.67808(17) 0.2361(5) 0.497(3)
C43_3 C 0.72273(19) 0.2637(4) 0.501(3)
C44_3 C 0.6355(3) 0.2685(8) 0.501(4)
S11_3 S 0.7133(2) 0.3266(2) 0.5079(11)
O31_3 O 0.8781(5) 0.0846(3) 0.5199(9)
C45_3 C 0.8889(3) 0.12763(19) 0.4965(6)
C46_3 C 0.85132(16) 0.17221(13) 0.5136(5)
N12_3 N 0.82192(17) 0.2639(5) 0.497(3)
C47_3 C 0.77727(19) 0.2363(4) 0.501(3)
C48_3 C 0.8645(3) 0.2315(8) 0.501(4)
S12_3 S 0.7867(2) 0.1734(2) 0.5079(11)
Zr18_2 Zr 0.4936(2) 0.5001(3) 0.59334(18)
O37_2 O 0.3781(5) 0.5846(3) 0.4801(9)
O38_2 O 0.1219(5) 0.5846(3) 0.0199(9)
O42_2 O 0.3538(3) 0.4850(9) 0.5655(3)
O45_2 O 0.1462(3) 0.0150(9) 0.5655(3)
O50_2 O 0.4533(4) 0.5614(3) 0.5547(4)
H3_3 H 0.504145 0.404756 0.745583
H6_2 H 0.235855 0.101299 0.508177
H7_3 H 0.504145 0.0952437 0.754417
H11_2 H 0.264145 0.398701 0.508177
H12_3 H 0.595244 0.254417 0.495855
H14_3 H 0.904756 0.245583 0.495855
O22_2 O 0.1258(4) 0.43024(20) 0.9763(9)
C33_2 C 0.1169(2) 0.38371(18) 0.9929(6)
C34_2 C 0.16131(16) 0.34542(14) 0.9771(7)
N9_2 N 0.2548(5) 0.31957(18) 0.9664(16)
C35_2 C 0.22171(19) 0.3599(6) 0.980(2)
C36_2 C 0.2303(3) 0.2734(2) 0.974(2)
S9_2 S 0.1668(2) 0.2806(2) 0.9805(11)
O25_2 O 0.3742(4) 0.06976(20) 0.9763(9)
C37_2 C 0.3831(2) 0.11629(18) 0.9929(6)
C38_2 C 0.33869(16) 0.15458(14) 0.9771(7)
N10_2 N 0.2452(5) 0.18043(18) 0.9664(16)
C39_2 C 0.27829(19) 0.1401(6) 0.980(2)
C40_2 C 0.2697(3) 0.2266(2) 0.974(2)
S10_2 S 0.3332(2) 0.2194(2) 0.9805(11)
Zr21_2 Zr 0.0064(2) 0.5001(3) 0.90666(18)
O43_2 O 0.3538(3) 0.0150(9) 0.9345(3)
O44_2 O 0.1462(3) 0.4850(9) 0.9345(3)
O53_2 O 0.0467(4) 0.5614(3) 0.9453(4)
H9_2 H 0.235855 0.398701 0.991823
H13_2 H 0.264145 0.101299 0.991823
Zr20_2 Zr 0.4936(2) 0.9999(3) 0.90666(18)
Zr22_2 Zr 0.0064(2) 0.9999(3) 0.59334(18)
O39_2 O 0.1219(5) 0.9154(3) 0.4801(9)
O40_2 O 0.3781(5) 0.9154(3) 0.0199(9)
O51_2 O 0.0467(4) 0.9386(3) 0.5547(4)
O52_2 O 0.4533(4) 0.9386(3) 0.9453(4)
C6_4 C 0.0136(5) 0.14868(16) 0.67221(13)
C7_4 C 0.001(3) 0.22273(19) 0.7363(4)
C8_4 C 0.001(4) 0.1355(3) 0.7315(8)
S2_4 S 0.0079(11) 0.2133(2) 0.6734(2)
C14_4 C 0.0136(5) 0.35132(16) 0.82779(13)
C15_4 C 0.001(3) 0.27727(19) 0.7637(4)
C16_4 C 0.001(4) 0.3645(3) 0.7685(8)
S4_4 S 0.0079(11) 0.2867(2) 0.8266(2)
O4_4 O 0.9850(9) 0.0655(3) 0.6462(3)
C5_4 C 0.9965(6) 0.1111(3) 0.62763(19)
N2_4 N 0.997(3) 0.17808(17) 0.7639(5)
O10_4 O 0.9850(9) 0.4345(3) 0.8538(3)
C13_4 C 0.9965(6) 0.3889(3) 0.87237(19)
N4_4 N 0.997(3) 0.32192(17) 0.7361(5)
H3_4 H 0.995855 0.0952437 0.745583
H7_4 H 0.995855 0.404756 0.754417
C41_4 C 0.6111(3) 0.12763(19) 0.0035(6)
N11_4 N 0.67808(17) 0.2639(5) 0.003(3)
C45_4 C 0.8889(3) 0.37237(19) 0.0035(6)
N12_4 N 0.82192(17) 0.2361(5) 0.003(3)
H12_4 H 0.595244 0.245583 0.00414472
H14_4 H 0.904756 0.254417 0.00414472
O29_4 O 0.6219(5) 0.0846(3) 0.9801(9)
C42_4 C 0.64868(16) 0.17221(13) 0.9864(5)
C43_4 C 0.72273(19) 0.2363(4) 0.999(3)
C44_4 C 0.6355(3) 0.2315(8) 0.999(4)
S11_4 S 0.7133(2) 0.1734(2) 0.9921(11)
O31_4 O 0.8781(5) 0.4154(3) 0.9801(9)
C46_4 C 0.85132(16) 0.32779(13) 0.9864(5)
C47_4 C 0.77727(19) 0.2637(4) 0.999(3)
C48_4 C 0.8645(3) 0.2685(8) 0.999(4)
S12_4 S 0.7867(2) 0.3266(2) 0.9921(11)
O4_5 O 0.4345(3) 0.6462(3) 0.5150(9)
C5_5 C 0.3889(3) 0.62763(19) 0.5035(6)
C6_5 C 0.35132(16) 0.67221(13) 0.4864(5)
N2_5 N 0.32192(17) 0.7639(5) 0.503(3)
C7_5 C 0.27727(19) 0.7363(4) 0.499(3)
C8_5 C 0.3645(3) 0.7315(8) 0.499(4)
S2_5 S 0.2867(2) 0.6734(2) 0.4921(11)
O10_5 O 0.0655(3) 0.8538(3) 0.5150(9)
C13_5 C 0.1111(3) 0.87237(19) 0.5035(6)
C14_5 C 0.14868(16) 0.82779(13) 0.4864(5)
N4_5 N 0.17808(17) 0.7361(5) 0.503(3)
C15_5 C 0.22273(19) 0.7637(4) 0.499(3)
C16_5 C 0.1355(3) 0.7685(8) 0.499(4)
S4_5 S 0.2133(2) 0.8266(2) 0.4921(11)
O29_5 O 0.4154(3) 0.5199(9) 0.6219(5)
C41_5 C 0.37237(19) 0.4965(6) 0.6111(3)
C42_5 C 0.32779(13) 0.5136(5) 0.64868(16)
N11_5 N 0.2361(5) 0.497(3) 0.67808(17)
C43_5 C 0.2637(4) 0.501(3) 0.72273(19)
C44_5 C 0.2685(8) 0.501(4) 0.6355(3)
S11_5 S 0.3266(2) 0.5079(11) 0.7133(2)
O31_5 O 0.0846(3) 0.5199(9) 0.8781(5)
C45_5 C 0.12763(19) 0.4965(6) 0.8889(3)
C46_5 C 0.17221(13) 0.5136(5) 0.85132(16)
N12_5 N 0.2639(5) 0.497(3) 0.82192(17)
C47_5 C 0.2363(4) 0.501(3) 0.77727(19)
C48_5 C 0.2315(8) 0.501(4) 0.8645(3)
S12_5 S 0.1734(2) 0.5079(11) 0.7867(2)
H3_5 H 0.404756 0.745583 0.504145
H7_5 H 0.0952437 0.754417 0.504145
H12_5 H 0.254417 0.495855 0.595244
H14_5 H 0.245583 0.495855 0.904756
C6_6 C 0.14868(16) 0.67221(13) 0.0136(5)
C7_6 C 0.22273(19) 0.7363(4) 0.001(3)
C8_6 C 0.1355(3) 0.7315(8) 0.001(4)
S2_6 S 0.2133(2) 0.6734(2) 0.0079(11)
C14_6 C 0.35132(16) 0.82779(13) 0.0136(5)
C15_6 C 0.27727(19) 0.7637(4) 0.001(3)
C16_6 C 0.3645(3) 0.7685(8) 0.001(4)
S4_6 S 0.2867(2) 0.8266(2) 0.0079(11)
O4_6 O 0.0655(3) 0.6462(3) 0.9850(9)
C5_6 C 0.1111(3) 0.62763(19) 0.9965(6)
N2_6 N 0.17808(17) 0.7639(5) 0.997(3)
O10_6 O 0.4345(3) 0.8538(3) 0.9850(9)
C13_6 C 0.3889(3) 0.87237(19) 0.9965(6)
N4_6 N 0.32192(17) 0.7361(5) 0.997(3)
H3_6 H 0.0952437 0.745583 0.995855
H7_6 H 0.404756 0.754417 0.995855
C41_6 C 0.12763(19) 0.0035(6) 0.6111(3)
N11_6 N 0.2639(5) 0.003(3) 0.67808(17)
C45_6 C 0.37237(19) 0.0035(6) 0.8889(3)
N12_6 N 0.2361(5) 0.003(3) 0.82192(17)
H12_6 H 0.245583 0.00414472 0.595244
H14_6 H 0.254417 0.00414472 0.904756
O29_6 O 0.0846(3) 0.9801(9) 0.6219(5)
C42_6 C 0.17221(13) 0.9864(5) 0.64868(16)
C43_6 C 0.2363(4) 0.999(3) 0.72273(19)
C44_6 C 0.2315(8) 0.999(4) 0.6355(3)
S11_6 S 0.1734(2) 0.9921(11) 0.7133(2)
O31_6 O 0.4154(3) 0.9801(9) 0.8781(5)
C46_6 C 0.32779(13) 0.9864(5) 0.85132(16)
C47_6 C 0.2637(4) 0.999(3) 0.77727(19)
C48_6 C 0.2685(8) 0.999(4) 0.8645(3)
S12_6 S 0.3266(2) 0.9921(11) 0.7867(2)
O22_3 O 0.0237(9) 0.8742(4) 0.56976(20)
O23_2 O 0.0033(12) 0.9274(2) 0.6400(3)
C33_3 C 0.0071(6) 0.8831(2) 0.61629(18)
C34_3 C 0.0229(7) 0.83869(16) 0.65458(14)
N9_3 N 0.0336(16) 0.7452(5) 0.68043(18)
C35_3 C 0.020(2) 0.77829(19) 0.6401(6)
C36_3 C 0.026(2) 0.7697(3) 0.7266(2)
S9_3 S 0.0195(11) 0.8332(2) 0.7194(2)
O25_3 O 0.0237(9) 0.6258(4) 0.93024(20)
O26_2 O 0.0033(12) 0.5726(2) 0.8600(3)
C37_3 C 0.0071(6) 0.6169(2) 0.88371(18)
C38_3 C 0.0229(7) 0.66131(16) 0.84542(14)
N10_3 N 0.0336(16) 0.7548(5) 0.81957(18)
C39_3 C 0.020(2) 0.72171(19) 0.8599(6)
C40_3 C 0.026(2) 0.7303(3) 0.7734(2)
S10_3 S 0.0195(11) 0.6668(2) 0.7806(2)
H9_3 H 0.00817702 0.764145 0.601299
H13_3 H 0.00817702 0.735855 0.898701
O34_2 O 0.9274(2) 0.6400(3) 0.0033(12)
O36_2 O 0.5726(2) 0.8600(3) 0.0033(12)
O1_3 O 0.56976(20) 0.4763(9) 0.6258(4)
O2_3 O 0.6400(3) 0.4967(12) 0.5726(2)
C1_3 C 0.61629(18) 0.4929(6) 0.6169(2)
C2_3 C 0.65458(14) 0.4771(7) 0.66131(16)
N1_3 N 0.68043(18) 0.4664(16) 0.7548(5)
C3_3 C 0.6401(6) 0.480(2) 0.72171(19)
C4_3 C 0.7266(2) 0.474(2) 0.7303(3)
S1_3 S 0.7194(2) 0.4805(11) 0.6668(2)
O6_2 O 0.54783(2) 0.54783(2) 0.54783(2)
H1_3 H 0.56683(2) 0.56683(2) 0.56683(2)
O7_3 O 0.93024(20) 0.4763(9) 0.8742(4)
O8_3 O 0.8600(3) 0.4967(12) 0.9274(2)
C9_3 C 0.88371(18) 0.4929(6) 0.8831(2)
C10_3 C 0.84542(14) 0.4771(7) 0.83869(16)
N3_3 N 0.81957(18) 0.4664(16) 0.7452(5)
C11_3 C 0.8599(6) 0.480(2) 0.77829(19)
C12_3 C 0.7734(2) 0.474(2) 0.7697(3)
S3_3 S 0.7806(2) 0.4805(11) 0.8332(2)
O14_2 O 0.95217(2) 0.54783(2) 0.95217(2)
H2_3 H 0.93317(2) 0.56683(2) 0.93317(2)
O17_3 O 0.4763(9) 0.6258(4) 0.56976(20)
O18_2 O 0.4967(12) 0.5726(2) 0.6400(3)
C25_3 C 0.4929(6) 0.6169(2) 0.61629(18)
C26_3 C 0.4771(7) 0.66131(16) 0.65458(14)
N7_3 N 0.4664(16) 0.7548(5) 0.68043(18)
C27_3 C 0.480(2) 0.72171(19) 0.6401(6)
C28_3 C 0.474(2) 0.7303(3) 0.7266(2)
S7_3 S 0.4805(11) 0.6668(2) 0.7194(2)
O20_3 O 0.4763(9) 0.8742(4) 0.93024(20)
O21_2 O 0.4967(12) 0.9274(2) 0.8600(3)
C29_3 C 0.4929(6) 0.8831(2) 0.88371(18)
C30_3 C 0.4771(7) 0.83869(16) 0.84542(14)
N8_3 N 0.4664(16) 0.7452(5) 0.81957(18)
C31_3 C 0.480(2) 0.77829(19) 0.8599(6)
C32_3 C 0.474(2) 0.7697(3) 0.7734(2)
S8_3 S 0.4805(11) 0.8332(2) 0.7806(2)
O33_2 O 0.5726(2) 0.6400(3) 0.4967(12)
O35_2 O 0.9274(2) 0.8600(3) 0.4967(12)
O56_2 O 0.54783(2) 0.95217(2) 0.95217(2)
O57_2 O 0.95217(2) 0.95217(2) 0.54783(2)
H4_3 H 0.898701 0.491823 0.764145
H5_3 H 0.601299 0.491823 0.735855
H6_3 H 0.491823 0.764145 0.898701
H11_3 H 0.491823 0.735855 0.601299
O1_4 O 0.56976(20) 0.0237(9) 0.8742(4)
O2_4 O 0.6400(3) 0.0033(12) 0.9274(2)
C1_4 C 0.61629(18) 0.0071(6) 0.8831(2)
C2_4 C 0.65458(14) 0.0229(7) 0.83869(16)
N1_4 N 0.68043(18) 0.0336(16) 0.7452(5)
C3_4 C 0.6401(6) 0.020(2) 0.77829(19)
C4_4 C 0.7266(2) 0.026(2) 0.7697(3)
S1_4 S 0.7194(2) 0.0195(11) 0.8332(2)
O7_4 O 0.93024(20) 0.0237(9) 0.6258(4)
O8_4 O 0.8600(3) 0.0033(12) 0.5726(2)
C9_4 C 0.88371(18) 0.0071(6) 0.6169(2)
C10_4 C 0.84542(14) 0.0229(7) 0.66131(16)
N3_4 N 0.81957(18) 0.0336(16) 0.7548(5)
C11_4 C 0.8599(6) 0.020(2) 0.72171(19)
C12_4 C 0.7734(2) 0.026(2) 0.7303(3)
S3_4 S 0.7806(2) 0.0195(11) 0.6668(2)
H4_4 H 0.898701 0.00817702 0.735855
H5_4 H 0.601299 0.00817702 0.764145
H1_4 H 0.56683(2) 0.93317(2) 0.93317(2)
H2_4 H 0.93317(2) 0.93317(2) 0.56683(2)
O22_4 O 0.8742(4) 0.56976(20) 0.0237(9)
C33_4 C 0.8831(2) 0.61629(18) 0.0071(6)
C34_4 C 0.83869(16) 0.65458(14) 0.0229(7)
N9_4 N 0.7452(5) 0.68043(18) 0.0336(16)
C35_4 C 0.77829(19) 0.6401(6) 0.020(2)
C36_4 C 0.7697(3) 0.7266(2) 0.026(2)
S9_4 S 0.8332(2) 0.7194(2) 0.0195(11)
O25_4 O 0.6258(4) 0.93024(20) 0.0237(9)
C37_4 C 0.6169(2) 0.88371(18) 0.0071(6)
C38_4 C 0.66131(16) 0.84542(14) 0.0229(7)
N10_4 N 0.7548(5) 0.81957(18) 0.0336(16)
C39_4 C 0.72171(19) 0.8599(6) 0.020(2)
C40_4 C 0.7303(3) 0.7734(2) 0.026(2)
S10_4 S 0.6668(2) 0.7806(2) 0.0195(11)
H9_4 H 0.764145 0.601299 0.00817702
H13_4 H 0.735855 0.898701 0.00817702
O17_4 O 0.6258(4) 0.56976(20) 0.4763(9)
C25_4 C 0.6169(2) 0.61629(18) 0.4929(6)
C26_4 C 0.66131(16) 0.65458(14) 0.4771(7)
N7_4 N 0.7548(5) 0.68043(18) 0.4664(16)
C27_4 C 0.72171(19) 0.6401(6) 0.480(2)
C28_4 C 0.7303(3) 0.7266(2) 0.474(2)
S7_4 S 0.6668(2) 0.7194(2) 0.4805(11)
O20_4 O 0.8742(4) 0.93024(20) 0.4763(9)
C29_4 C 0.8831(2) 0.88371(18) 0.4929(6)
C30_4 C 0.83869(16) 0.84542(14) 0.4771(7)
N8_4 N 0.7452(5) 0.81957(18) 0.4664(16)
C31_4 C 0.77829(19) 0.8599(6) 0.480(2)
C32_4 C 0.7697(3) 0.7734(2) 0.474(2)
S8_4 S 0.8332(2) 0.7806(2) 0.4805(11)
H6_4 H 0.764145 0.898701 0.491823
H11_4 H 0.735855 0.601299 0.491823
loop_
_geom_bond_atom_site_label_1
_geom_bond_atom_site_label_2
_geom_bond_site_symmetry_1
_geom_bond_site_symmetry_2
Zr1 O1 1_555 1_555
O1 C1 1_555 1_555
O2 C1 1_555 1_555
C1 C2 1_555 1_555
C2 C3 1_555 1_555
N1 C3 1_555 1_555
C4 N1 1_555 1_555
S1 C2 1_555 1_555
O3 Zr1 1_555 1_555
O4 C5 1_555 1_555
C5 O3 1_555 1_555
C6 C5 1_555 1_555
N2 C7 1_555 1_555
C7 S2 1_555 1_555
C8 C6 1_555 1_555
S2 C6 1_555 1_555
O5 Zr1 1_555 1_555
O6 Zr1 1_555 1_555
H1 O6 1_555 1_555
O7 C9 1_555 1_555
O8 C9 1_555 1_555
C9 C10 1_555 1_555
C10 C11 1_555 1_555
N3 C11 1_555 1_555
C12 C4 1_555 1_555
S3 C10 1_555 1_555
O9 C13 1_555 1_555
O10 C13 1_555 1_555
C13 C14 1_555 1_555
C14 C16 1_555 1_555
N4 C15 1_555 1_555
C15 C7 1_555 1_555
C16 N4 1_555 1_555
S4 C14 1_555 1_555
H2 O14 1_555 1_555
Zr3 O6 1_555 1_555
O17 Zr3 1_555 1_555
O18 Zr1 1_555 1_555
C25 O17 1_555 1_555
C26 C25 1_555 1_555
N7 C27 1_555 1_555
C27 C26 1_555 1_555
C28 N7 1_555 1_555
S7 C26 1_555 1_555
O19 Zr1 1_555 1_555
O20 C29 1_555 1_555
O21 C29 1_555 1_555
C29 C30 1_555 1_555
C30 C31 1_555 1_555
N8 C31 1_555 1_555
C32 C28 1_555 1_555
S8 C30 1_555 1_555
O29 C41 1_555 1_555
O30 Zr1 1_555 1_555
C41 O30 1_555 1_555
C42 C41 1_555 1_555
N11 C43 1_555 1_555
C43 S11 1_555 1_555
C44 C42 1_555 1_555
S11 C42 1_555 1_555
O31 C45 1_555 1_555
O32 C45 1_555 1_555
C45 C46 1_555 1_555
C46 C48 1_555 1_555
N12 C47 1_555 1_555
C47 C43 1_555 1_555
C48 N12 1_555 1_555
S12 C46 1_555 1_555
Zr9 O21 1_555 1_555
Zr10 O9 1_555 1_555
Zr12 O2 1_555 1_555
Zr13 O8 1_555 1_555
Zr14 O5 1_555 1_555
Zr15 O31 1_555 1_555
Zr18 O4 1_555 1_555
O33 Zr3 1_555 1_555
O35 Zr4 1_555 1_555
O37 Zr3 1_555 1_555
O38 Zr4 1_555 1_555
O42 Zr3 1_555 1_555
O46 Zr3 1_555 1_555
O48 Zr4 1_555 1_555
O50 Zr3 1_555 1_555
O54 Zr1 1_555 1_555
O57 Zr4 1_555 1_555
C4 S1 1_555 1_555
N2 C8 1_555 1_555
O5 Zr12 1_555 1_555
O6 Zr12 1_555 1_555
N3 C12 1_555 1_555
C12 S3 1_555 1_555
C15 S4 1_555 1_555
O13 Zr13 1_555 1_555
O14 Zr13 1_555 1_555
Zr3 O19 1_555 1_555
O18 C25 1_555 1_555
C28 S7 1_555 1_555
O19 Zr18 1_555 1_555
N8 C32 1_555 1_555
C32 S8 1_555 1_555
O27 Zr9 1_555 1_555
O29 Zr14 1_555 1_555
N11 C44 1_555 1_555
C47 S12 1_555 1_555
Zr9 O56 1_555 1_555
Zr12 O46 1_555 1_555
Zr14 O54 1_555 1_555
Zr18 O50 1_555 1_555
Zr18 O54 1_555 1_555
C8 H3 1_555 1_555
C11 H4 1_555 1_555
C3 H5 1_555 1_555
C31 H6 1_555 1_555
C16 H7 1_555 1_555
C27 H11 1_555 1_555
C44 H12 1_555 1_555
C48 H14 1_555 1_555
O34 Zr6 1_555 1_555
O36 Zr5 1_555 1_555
O39 Zr5 1_555 1_555
O40 Zr6 1_555 1_555
O47 Zr6 1_555 1_555
O49 Zr5 1_555 1_555
O51 Zr5 1_555 1_555
Zr22 O51 1_555 1_555
O22 C33 1_555 1_555
O23 C33 1_555 1_555
C33 C34 1_555 1_555
C34 C35 1_555 1_555
N9 C35 1_555 1_555
C36 N9 1_555 1_555
S9 C34 1_555 1_555
O25 C37 1_555 1_555
O26 Zr10 1_555 1_555
C37 O26 1_555 1_555
C38 C37 1_555 1_555
N10 C39 1_555 1_555
C39 C38 1_555 1_555
C40 C36 1_555 1_555
S10 C38 1_555 1_555
O28 Zr10 1_555 1_555
Zr11 O23 1_555 1_555
Zr21 O24 1_555 1_555
O55 Zr10 1_555 1_555
C36 S9 1_555 1_555
O24 Zr11 1_555 1_555
N10 C40 1_555 1_555
C40 S10 1_555 1_555
Zr16 O55 1_555 1_555
Zr21 O53 1_555 1_555
C35 H9 1_555 1_555
C39 H13 1_555 1_555
Zr20 O52 1_555 1_555
O3_2 Zr9 1_555 1_555
C7_2 S2_2 1_555 1_555
C8_2 C6_2 1_555 1_555
S2_2 C6_2 1_555 1_555
H1_2 O56 1_555 1_555
C14_2 C16_2 1_555 1_555
C15_2 C7_2 1_555 1_555
S4_2 C14_2 1_555 1_555
H2_2 O57 1_555 1_555
Zr11 O9_2 1_555 1_555
C15_2 S4_2 1_555 1_555
O1_2 C1_2 1_555 1_555
O2_2 C1_2 1_555 1_555
C1_2 C2_2 1_555 1_555
C2_2 C3_2 1_555 1_555
N1_2 C3_2 1_555 1_555
C4_2 N1_2 1_555 1_555
S1_2 C2_2 1_555 1_555
O4_2 C5_2 1_555 1_555
O7_2 C9_2 1_555 1_555
O8_2 C9_2 1_555 1_555
C9_2 C10_2 1_555 1_555
C10_2 C11_2 1_555 1_555
N3_2 C11_2 1_555 1_555
C12_2 C4_2 1_555 1_555
S3_2 C10_2 1_555 1_555
O10_2 C13_2 1_555 1_555
Zr12_2 O2_2 1_555 1_555
Zr13_2 O8_2 1_555 1_555
Zr15 O5_2 1_555 1_555
C4_2 S1_2 1_555 1_555
O5_2 Zr12_2 1_555 1_555
N3_2 C12_2 1_555 1_555
C12_2 S3_2 1_555 1_555
O13_2 Zr13_2 1_555 1_555
Zr15 O54_2 1_555 1_555
C11_2 H4_2 1_555 1_555
C3_2 H5_2 1_555 1_555
Zr16_2 O55_2 1_555 1_555
C41_2 O41 1_555 1_555
O41_2 C45_2 1_555 1_555
C43_2 S11_2 1_555 1_555
C44_2 C42_2 1_555 1_555
S11_2 C42_2 1_555 1_555
C46_2 C48_2 1_555 1_555
C47_2 C43_2 1_555 1_555
S12_2 C46_2 1_555 1_555
Zr16_2 O31_2 1_555 1_555
O29_2 Zr16 1_555 1_555
C47_2 S12_2 1_555 1_555
O4_3 C5_3 1_555 1_555
C5_3 O37 1_555 1_555
C6_3 C5_3 1_555 1_555
N2_3 C7_3 1_555 1_555
C7_3 S2_3 1_555 1_555
C8_3 C6_3 1_555 1_555
S2_3 C6_3 1_555 1_555
O39 C13_3 1_555 1_555
O10_3 C13_3 1_555 1_555
C13_3 C14_3 1_555 1_555
C14_3 C16_3 1_555 1_555
N4_3 C15_3 1_555 1_555
C15_3 C7_3 1_555 1_555
C16_3 N4_3 1_555 1_555
S4_3 C14_3 1_555 1_555
O17_2 Zr12 1_555 1_555
C25_2 O17_2 1_555 1_555
C26_2 C25_2 1_555 1_555
N7_2 C27_2 1_555 1_555
C27_2 C26_2 1_555 1_555
C28_2 N7_2 1_555 1_555
S7_2 C26_2 1_555 1_555
O20_2 C29_2 1_555 1_555
O35 C29_2 1_555 1_555
C29_2 C30_2 1_555 1_555
C30_2 C31_2 1_555 1_555
N8_2 C31_2 1_555 1_555
C32_2 C28_2 1_555 1_555
S8_2 C30_2 1_555 1_555
O29_3 C41_3 1_555 1_555
C41_3 O42 1_555 1_555
C42_3 C41_3 1_555 1_555
N11_3 C43_3 1_555 1_555
C43_3 S11_3 1_555 1_555
C44_3 C42_3 1_555 1_555
S11_3 C42_3 1_555 1_555
O31_3 C45_3 1_555 1_555
O44 C45_3 1_555 1_555
C45_3 C46_3 1_555 1_555
C46_3 C48_3 1_555 1_555
N12_3 C47_3 1_555 1_555
C47_3 C43_3 1_555 1_555
C48_3 N12_3 1_555 1_555
S12_3 C46_3 1_555 1_555
Zr21 O31_3 1_555 1_555
Zr18_2 O4_3 1_555 1_555
O37_2 Zr12 1_555 1_555
O38_2 Zr13 1_555 1_555
O42_2 Zr12 1_555 1_555
O50_2 Zr12 1_555 1_555
N2_3 C8_3 1_555 1_555
C15_3 S4_3 1_555 1_555
O33 C25_2 1_555 1_555
C28_2 S7_2 1_555 1_555
O46 Zr18_2 1_555 1_555
N8_2 C32_2 1_555 1_555
C32_2 S8_2 1_555 1_555
O29_3 Zr18 1_555 1_555
N11_3 C44_3 1_555 1_555
C47_3 S12_3 1_555 1_555
Zr18_2 O50_2 1_555 1_555
Zr18_2 O50 1_555 1_555
C8_3 H3_3 1_555 1_555
C31_2 H6_2 1_555 1_555
C16_3 H7_3 1_555 1_555
C27_2 H11_2 1_555 1_555
C44_3 H12_3 1_555 1_555
C48_3 H14_3 1_555 1_555
O22_2 C33_2 1_555 1_555
O34 C33_2 1_555 1_555
C33_2 C34_2 1_555 1_555
C34_2 C35_2 1_555 1_555
N9_2 C35_2 1_555 1_555
C36_2 N9_2 1_555 1_555
S9_2 C34_2 1_555 1_555
O25_2 C37_2 1_555 1_555
C37_2 O36 1_555 1_555
C38_2 C37_2 1_555 1_555
N10_2 C39_2 1_555 1_555
C39_2 C38_2 1_555 1_555
C40_2 C36_2 1_555 1_555
S10_2 C38_2 1_555 1_555
Zr21_2 O47 1_555 1_555
C36_2 S9_2 1_555 1_555
N10_2 C40_2 1_555 1_555
C40_2 S10_2 1_555 1_555
Zr21_2 O53_2 1_555 1_555
C35_2 H9_2 1_555 1_555
C39_2 H13_2 1_555 1_555
O39_2 Zr13_2 1_555 1_555
O40_2 Zr12_2 1_555 1_555
O51_2 Zr13_2 1_555 1_555
Zr22_2 O51_2 1_555 1_555
Zr20_2 O52_2 1_555 1_555
C7_4 S2_4 1_555 1_555
C8_4 C6_4 1_555 1_555
S2_4 C6_4 1_555 1_555
C14_4 C16_4 1_555 1_555
C15_4 C7_4 1_555 1_555
S4_4 C14_4 1_555 1_555
C15_4 S4_4 1_555 1_555
O4_4 C5_4 1_555 1_555
O10_4 C13_4 1_555 1_555
C41_4 O45 1_555 1_555
O43 C45_4 1_555 1_555
C43_4 S11_4 1_555 1_555
C44_4 C42_4 1_555 1_555
S11_4 C42_4 1_555 1_555
C46_4 C48_4 1_555 1_555
C47_4 C43_4 1_555 1_555
S12_4 C46_4 1_555 1_555
Zr20 O31_4 1_555 1_555
O29_4 Zr22 1_555 1_555
C47_4 S12_4 1_555 1_555
O4_5 C5_5 1_555 1_555
C5_5 O37_2 1_555 1_555
C6_5 C5_5 1_555 1_555
N2_5 C7_5 1_555 1_555
C7_5 S2_5 1_555 1_555
C8_5 C6_5 1_555 1_555
S2_5 C6_5 1_555 1_555
O39_2 C13_5 1_555 1_555
O10_5 C13_5 1_555 1_555
C13_5 C14_5 1_555 1_555
C14_5 C16_5 1_555 1_555
N4_5 C15_5 1_555 1_555
C15_5 C7_5 1_555 1_555
C16_5 N4_5 1_555 1_555
S4_5 C14_5 1_555 1_555
O29_5 C41_5 1_555 1_555
C41_5 O42_2 1_555 1_555
C42_5 C41_5 1_555 1_555
N11_5 C43_5 1_555 1_555
C43_5 S11_5 1_555 1_555
C44_5 C42_5 1_555 1_555
S11_5 C42_5 1_555 1_555
O31_5 C45_5 1_555 1_555
O44_2 C45_5 1_555 1_555
C45_5 C46_5 1_555 1_555
C46_5 C48_5 1_555 1_555
N12_5 C47_5 1_555 1_555
C47_5 C43_5 1_555 1_555
C48_5 N12_5 1_555 1_555
S12_5 C46_5 1_555 1_555
Zr21_2 O31_5 1_555 1_555
Zr14 O4_5 1_555 1_555
N2_5 C8_5 1_555 1_555
C15_5 S4_5 1_555 1_555
O29_5 Zr18_2 1_555 1_555
N11_5 C44_5 1_555 1_555
C47_5 S12_5 1_555 1_555
Zr14 O50_2 1_555 1_555
C8_5 H3_5 1_555 1_555
C16_5 H7_5 1_555 1_555
C44_5 H12_5 1_555 1_555
C48_5 H14_5 1_555 1_555
C7_6 S2_6 1_555 1_555
C8_6 C6_6 1_555 1_555
S2_6 C6_6 1_555 1_555
C14_6 C16_6 1_555 1_555
C15_6 C7_6 1_555 1_555
S4_6 C14_6 1_555 1_555
C15_6 S4_6 1_555 1_555
O4_6 C5_6 1_555 1_555
O10_6 C13_6 1_555 1_555
C41_6 O45_2 1_555 1_555
O43_2 C45_6 1_555 1_555
C43_6 S11_6 1_555 1_555
C44_6 C42_6 1_555 1_555
S11_6 C42_6 1_555 1_555
C46_6 C48_6 1_555 1_555
C47_6 C43_6 1_555 1_555
S12_6 C46_6 1_555 1_555
Zr20_2 O31_6 1_555 1_555
O29_6 Zr22_2 1_555 1_555
C47_6 S12_6 1_555 1_555
O22_3 C33_3 1_555 1_555
O23_2 C33_3 1_555 1_555
C33_3 C34_3 1_555 1_555
C34_3 C35_3 1_555 1_555
N9_3 C35_3 1_555 1_555
C36_3 N9_3 1_555 1_555
S9_3 C34_3 1_555 1_555
O25_3 C37_3 1_555 1_555
O26_2 Zr21_2 1_555 1_555
C37_3 O26_2 1_555 1_555
C38_3 C37_3 1_555 1_555
N10_3 C39_3 1_555 1_555
C39_3 C38_3 1_555 1_555
C40_3 C36_3 1_555 1_555
S10_3 C38_3 1_555 1_555
Zr22_2 O23_2 1_555 1_555
C36_3 S9_3 1_555 1_555
N10_3 C40_3 1_555 1_555
C40_3 S10_3 1_555 1_555
C35_3 H9_3 1_555 1_555
C39_3 H13_3 1_555 1_555
O34_2 Zr16 1_555 1_555
O36_2 Zr15 1_555 1_555
Zr18_2 O1_3 1_555 1_555
O1_3 C1_3 1_555 1_555
O2_3 C1_3 1_555 1_555
C1_3 C2_3 1_555 1_555
C2_3 C3_3 1_555 1_555
N1_3 C3_3 1_555 1_555
C4_3 N1_3 1_555 1_555
S1_3 C2_3 1_555 1_555
O6_2 Zr18_2 1_555 1_555
H1_3 O6_2 1_555 1_555
O7_3 C9_3 1_555 1_555
O8_3 C9_3 1_555 1_555
C9_3 C10_3 1_555 1_555
C10_3 C11_3 1_555 1_555
N3_3 C11_3 1_555 1_555
C12_3 C4_3 1_555 1_555
S3_3 C10_3 1_555 1_555
H2_3 O14_2 1_555 1_555
Zr14 O6_2 1_555 1_555
O17_3 Zr14 1_555 1_555
O18_2 Zr18_2 1_555 1_555
C25_3 O17_3 1_555 1_555
C26_3 C25_3 1_555 1_555
N7_3 C27_3 1_555 1_555
C27_3 C26_3 1_555 1_555
C28_3 N7_3 1_555 1_555
S7_3 C26_3 1_555 1_555
O20_3 C29_3 1_555 1_555
O21_2 C29_3 1_555 1_555
C29_3 C30_3 1_555 1_555
C30_3 C31_3 1_555 1_555
N8_3 C31_3 1_555 1_555
C32_3 C28_3 1_555 1_555
S8_3 C30_3 1_555 1_555
Zr20_2 O21_2 1_555 1_555
Zr18 O2_3 1_555 1_555
Zr20 O8_3 1_555 1_555
O33_2 Zr14 1_555 1_555
O35_2 Zr16_2 1_555 1_555
O57_2 Zr16_2 1_555 1_555
C4_3 S1_3 1_555 1_555
O6_2 Zr18 1_555 1_555
N3_3 C12_3 1_555 1_555
C12_3 S3_3 1_555 1_555
O14_2 Zr20 1_555 1_555
O18_2 C25_3 1_555 1_555
C28_3 S7_3 1_555 1_555
N8_3 C32_3 1_555 1_555
C32_3 S8_3 1_555 1_555
Zr20_2 O56_2 1_555 1_555
C11_3 H4_3 1_555 1_555
C3_3 H5_3 1_555 1_555
C31_3 H6_3 1_555 1_555
C27_3 H11_3 1_555 1_555
O1_4 C1_4 1_555 1_555
O2_4 C1_4 1_555 1_555
C1_4 C2_4 1_555 1_555
C2_4 C3_4 1_555 1_555
N1_4 C3_4 1_555 1_555
C4_4 N1_4 1_555 1_555
S1_4 C2_4 1_555 1_555
O7_4 C9_4 1_555 1_555
O8_4 C9_4 1_555 1_555
C9_4 C10_4 1_555 1_555
C10_4 C11_4 1_555 1_555
N3_4 C11_4 1_555 1_555
C12_4 C4_4 1_555 1_555
S3_4 C10_4 1_555 1_555
Zr22 O2_4 1_555 1_555
Zr21 O8_4 1_555 1_555
C4_4 S1_4 1_555 1_555
N3_4 C12_4 1_555 1_555
C12_4 S3_4 1_555 1_555
C11_4 H4_4 1_555 1_555
C3_4 H5_4 1_555 1_555
H1_4 O56_2 1_555 1_555
H2_4 O57_2 1_555 1_555
O22_4 C33_4 1_555 1_555
O34_2 C33_4 1_555 1_555
C33_4 C34_4 1_555 1_555
C34_4 C35_4 1_555 1_555
N9_4 C35_4 1_555 1_555
C36_4 N9_4 1_555 1_555
S9_4 C34_4 1_555 1_555
O25_4 C37_4 1_555 1_555
C37_4 O36_2 1_555 1_555
C38_4 C37_4 1_555 1_555
N10_4 C39_4 1_555 1_555
C39_4 C38_4 1_555 1_555
C40_4 C36_4 1_555 1_555
S10_4 C38_4 1_555 1_555
C36_4 S9_4 1_555 1_555
N10_4 C40_4 1_555 1_555
C40_4 S10_4 1_555 1_555
C35_4 H9_4 1_555 1_555
C39_4 H13_4 1_555 1_555
O17_4 Zr18 1_555 1_555
C25_4 O17_4 1_555 1_555
C26_4 C25_4 1_555 1_555
N7_4 C27_4 1_555 1_555
C27_4 C26_4 1_555 1_555
C28_4 N7_4 1_555 1_555
S7_4 C26_4 1_555 1_555
O20_4 C29_4 1_555 1_555
O35_2 C29_4 1_555 1_555
C29_4 C30_4 1_555 1_555
C30_4 C31_4 1_555 1_555
N8_4 C31_4 1_555 1_555
C32_4 C28_4 1_555 1_555
S8_4 C30_4 1_555 1_555
O33_2 C25_4 1_555 1_555
C28_4 S7_4 1_555 1_555
N8_4 C32_4 1_555 1_555
C32_4 S8_4 1_555 1_555
C31_4 H6_4 1_555 1_555
C27_4 H11_4 1_555 1_555

#END
