
###############################################################################
#
# This file contains modified crystal structure data generated from the
# MOF subset of the Cambridge Structural Database (CSD) v543 
# hosted by the Cambridge Crystallographic Data Centre (CCDC).
#
# This work is licensed under the Creative Commons
# Attribution-NonCommercial-ShareAlike 4.0 International License.
# To view a copy of this license, visit
# http://creativecommons.org/licenses/by-nc-sa/4.0/
# or send a letter to
# Creative Commons, PO Box 1866, Mountain View, CA 94042, USA.
#
# CIF created using the CSD Python API on 29 September 2022
# The structure has been converted into the P1 space group
# The structure has a 3D framework
# The original CSD entry WOGHEG is in the triclinic crystal system
# The original CSD entry WOGHEG is in a Sohncke space group
# The framework has been calculated to contain at least 10.0% void space
# The void calculation uses a probe of radius 1.32A, grid spacing 0.4
#
###############################################################################

data_WOGHEG
_chemical_formula_moiety         '(C32 H20 N5 O7 Zn2)n'
_symmetry_cell_setting           triclinic
_symmetry_space_group_name_H-M   'P 1'
_symmetry_Int_Tables_number      1
_space_group_name_Hall           'P 1'
loop_
_symmetry_equiv_pos_site_id
_symmetry_equiv_pos_as_xyz
1 x,y,z
_cell_length_a                   7.9273(16)
_cell_length_b                   10.556(2)
_cell_length_c                   13.155(3)
_cell_angle_alpha                107.26(3)
_cell_angle_beta                 107.06(3)
_cell_angle_gamma                90.65(3)
_cell_volume                     999.136
loop_
_atom_site_label
_atom_site_type_symbol
_atom_site_fract_x
_atom_site_fract_y
_atom_site_fract_z
_atom_site_U_iso_or_equiv
_atom_site_thermal_displace_type
N1 N 0.1600(8) 0.7599(6) 0.0656(5) 0.0437 Uani
H13 H 0.2872 0.6047 0.0037 0.0650 Uiso
Zn7 Zn 0.38573(11) 0.87077(9) 0.17794(8) 0.0271 Uani
O1 O 0.476(2) 0.9188(13) 0.0599(10) 0.0392 Uani
O5 O 0.558(2) 0.7266(14) 0.1815(14) 0.0546 Uani
O6 O 0.8228(19) 0.8644(12) 0.2640(13) 0.0432 Uani
C1 C 0.607(3) 0.983(2) 0.0564(16) 0.0473 Uani
C11 C 0.721(3) 0.7506(16) 0.2205(15) 0.0332 Uani
C12 C 0.825(3) 0.6308(18) 0.2200(16) 0.0428 Uani
H7 H 0.7597 0.5479 0.1972 0.0510 Uiso
C15 C 0.998(3) 0.3868(19) 0.213(2) 0.0583 Uani
H9 H 0.8748 0.3727 0.1885 0.0700 Uiso
O9 O 0.381(2) 0.8624(13) 0.3323(10) 0.0423 Uani
C2 C 0.609(2) 0.994(2) 0.9532(12) 0.0408 Uani
C3 C 0.518(4) 0.912(2) 0.8567(18) 0.0631 Uani
H1 H 0.4498 0.8414 0.8594 0.0760 Uiso
C4 C 0.508(4) 0.913(3) 0.7398(17) 0.0724 Uani
H2 H 0.4340 0.8482 0.6774 0.0880 Uiso
C9 C 0.498(4) 0.921(2) 0.5327(19) 0.0653 Uani
H6 H 0.4203 0.8596 0.5391 0.0770 Uiso
C10 C 0.499(3) 0.9240(17) 0.4105(15) 0.0339 Uani
C21 C 0.1758(7) 0.6346(6) 0.9977(5) 0.0542 Uani
C22 C 0.0252(7) 0.5539(6) 0.9208(5) 0.0556 Uani
H14 H 0.0357 0.4700 0.8753 0.0670 Uiso
C25 C 0.9936(8) 0.8045(6) 0.0566(5) 0.0592 Uani
H16 H 0.9830 0.8884 0.1021 0.0710 Uiso
C23 C 0.8587(7) 0.5985(5) 0.9118(4) 0.0620 Uani
C24 C 0.8429(8) 0.7238(6) 0.9798(5) 0.0741 Uani
H15 H 0.7316 0.7536 0.9738 0.0890 Uiso
C26 C 0.6952(7) 0.5173(5) 0.8284(4) 0.0437 Uani
N2 N 0.5327(7) 0.5688(6) 0.8185(5) 0.0581 Uani
N3 N 0.3795(7) 0.4944(6) 0.7389(5) 0.0914 Uani
C27 C 0.3889(7) 0.3684(5) 0.6693(4) 0.1012 Uani
N4 N 0.5514(7) 0.3169(5) 0.6793(5) 0.1011 Uani
N5 N 0.7046(7) 0.3913(5) 0.7589(5) 0.0653 Uani
C28 C 0.2510(7) 0.3126(5) 0.5793(4) 0.0525 Uani
C29 C 0.2675(7) 0.2026(6) 0.4943(5) 0.0409 Uani
H17 H 0.3794 0.1786 0.4927 0.0490 Uiso
C30 C 0.1167(8) 0.1287(6) 0.4117(5) 0.0373 Uani
H18 H 0.1277 0.0551 0.3549 0.0440 Uiso
C32 C 0.0838(7) 0.3485(6) 0.5817(5) 0.0925 Uani
H20 H 0.0728 0.4220 0.6385 0.1110 Uiso
O7 O 0.299(2) 0.0539(14) 0.2067(12) 0.0433 Uani
O8 O 0.5502(19) 0.1824(12) 0.2953(11) 0.0444 Uani
C13 C 0.012(3) 0.634(2) 0.2511(19) 0.0592 Uani
H8 H 0.0819 0.7141 0.2712 0.0710 Uiso
C14 C 0.091(3) 0.515(2) 0.2514(17) 0.0621 Uani
C16 C 0.109(3) 0.278(2) 0.2150(18) 0.0473 Uani
H10 H 0.0494 0.1924 0.1817 0.0570 Uiso
C17 C 0.285(3) 0.2859(18) 0.2587(19) 0.0563 Uani
C18 C 0.380(3) 0.168(2) 0.2528(15) 0.0393 Uani
C19 C 0.3697(19) 0.4116(14) 0.2873(14) 0.0606 Uani
H11 H 0.4930 0.4244 0.3098 0.0730 Uiso
C20 C 0.272(2) 0.5208(14) 0.2828(14) 0.0614 Uani
H12 H 0.3351 0.6038 0.3028 0.0740 Uiso
Zn4 Zn 0.72617(12) 0.04537(9) 0.29817(8) 0.0286 Uani
O2 O 0.740(2) 0.0499(15) 0.1474(11) 0.0542 Uani
N6 N 0.9494(7) 0.1646(6) 0.4141(5) 0.0302 Uani
C31 C 0.9330(7) 0.2745(7) 0.4991(6) 0.0802 Uani
H19 H 0.8211 0.2986 0.5007 0.0970 Uiso
O10 O 0.627(2) 0.0060(18) 0.4159(12) 0.0645 Uani
C5 C 0.608(4) 0.011(3) 0.7255(18) 0.0787 Uani
C6 C 0.693(2) 0.0868(15) 0.8238(13) 0.0667 Uani
H3 H 0.7619 0.1585 0.8239 0.0800 Uiso
C7 C 0.704(2) 0.0851(16) 0.9333(12) 0.0637 Uani
H4 H 0.7804 0.1506 0.9942 0.0770 Uiso
C8 C 0.612(4) 0.009(3) 0.6250(18) 0.0722 Uani
H5 H 0.6933 0.0672 0.6181 0.0860 Uiso
loop_
_atom_site_aniso_label
_atom_site_aniso_U_11
_atom_site_aniso_U_22
_atom_site_aniso_U_33
_atom_site_aniso_U_23
_atom_site_aniso_U_13
_atom_site_aniso_U_12
N1 0.057 0.047 0.015 -0.002 0.005 0.015
Zn7 0.0224 0.0257 0.0242 0.0016 0.0002 0.0008
O1 0.055 0.045 0.026 0.02 0.016 0.002
O5 0.04 0.041 0.087 0.028 0.017 0.026
O6 0.041 0.023 0.061 0.006 0.016 0.014
C1 0.055 0.035 0.038 0.003 0.002 0.02
C11 0.036 0.027 0.045 0.01 0.026 0.01
C12 0.036 0.04 0.056 0.017 0.018 -0.007
C15 0.042 0.048 0.109 0.04 0.043 0.019
O9 0.049 0.043 0.022 0.002 0.001 -0.011
C2 0.044 0.069 0.013 0.022 0.005 0.007
C3 0.087 0.074 0.044 0.032 0.029 0.034
C4 0.067 0.11 0.029 0.022 -0.002 0.02
C9 0.11 0.043 0.067 0.021 0.059 0.01
C10 0.056 0.036 0.027 0.016 0.032 0.008
C21 0.053 0.054 0.054 0.0151 0.0163 0.0068
C22 0.044 0.044 0.054 -0.008 0.002 0.011
C25 0.032 0.1 0.039 0.011 0.013 -0.007
C23 0.042 0.067 0.059 0.013 -0.004 0.003
C24 0.038 0.054 0.079 -0.029 -0.007 0.011
C26 0.043 0.043 0.044 0.0124 0.013 0.0048
N2 0.039 0.047 0.061 -0.007 0 0.001
N3 0.08 0.087 0.094 0.013 0.023 0.01
C27 0.093 0.084 0.089 -0.008 0.007 0.047
N4 0.094 0.095 0.103 0.026 0.019 0.009
N5 0.049 0.049 0.071 0.002 -0.004 0.004
C28 0.036 0.034 0.041 -0.031 -0.013 0.005
C29 0.023 0.05 0.044 0.008 0.009 -0.002
C30 0.03 0.015 0.043 -0.009 -0.006 0.011
C32 0.085 0.087 0.091 0.014 0.02 0.014
O7 0.036 0.046 0.046 0.016 0.008 0.013
O8 0.036 0.029 0.051 0 0.001 0.003
C13 0.06 0.046 0.059 0.008 0.009 -0.004
C14 0.039 0.082 0.049 0.015 -0.006 0.04
C16 0.045 0.048 0.065 0.029 0.028 0.039
C17 0.049 0.028 0.079 0.007 0.01 0.029
C18 0.035 0.042 0.031 0.009 -0.002 0.012
C19 0.034 0.044 0.09 0.012 0.008 0.002
C20 0.046 0.038 0.091 0.016 0.012 0.006
Zn4 0.0282 0.0284 0.0259 0.008 0.0041 0.0032
O2 0.072 0.067 0.029 0.021 0.018 -0.002
N6 0.013 0.015 0.046 -0.003 -0.002 -0.007
C31 0.08 0.08 0.08 0.024 0.025 0.0091
O10 0.052 0.095 0.032 0.002 0.011 -0.017
C5 0.1 0.1 0.023 0.002 0.017 0.018
C6 0.079 0.061 0.055 0.019 0.014 -0.03
C7 0.074 0.07 0.035 0.004 0.013 -0.024
C8 0.065 0.11 0.036 0.014 0.017 -0.007
loop_
_geom_bond_atom_site_label_1
_geom_bond_atom_site_label_2
_geom_bond_site_symmetry_1
_geom_bond_site_symmetry_2
Zn7 N1 1_555 1_555
Zn7 O1 1_555 1_555
O1 C1 1_555 1_555
O5 Zn7 1_555 1_555
C11 O5 1_555 1_555
C12 C11 1_555 1_555
H7 C12 1_555 1_555
H9 C15 1_555 1_555
O9 Zn7 1_555 1_555
O6 C11 1_555 1_555
O9 C10 1_555 1_555
C2 C3 1_555 1_555
C3 H1 1_555 1_555
C4 C3 1_555 1_555
H2 C4 1_555 1_555
H6 C9 1_555 1_555
C10 C9 1_555 1_555
C22 C21 1_555 1_555
H14 C22 1_555 1_555
H16 C25 1_555 1_555
C24 C23 1_555 1_555
H15 C24 1_555 1_555
C26 C23 1_555 1_555
N2 C26 1_555 1_555
N3 N2 1_555 1_555
C27 N3 1_555 1_555
N4 C27 1_555 1_555
N5 C26 1_555 1_555
C28 C27 1_555 1_555
C29 C28 1_555 1_555
H17 C29 1_555 1_555
C30 C29 1_555 1_555
H18 C30 1_555 1_555
C32 C28 1_555 1_555
H20 C32 1_555 1_555
N4 N5 1_555 1_555
O7 C18 1_555 1_555
O8 C18 1_555 1_555
H8 C13 1_555 1_555
C14 C13 1_555 1_555
H10 C16 1_555 1_555
C17 C16 1_555 1_555
C18 C17 1_555 1_555
C19 C17 1_555 1_555
H11 C19 1_555 1_555
C20 C14 1_555 1_555
H12 C20 1_555 1_555
Zn4 O8 1_555 1_555
C19 C20 1_555 1_555
Zn4 O2 1_555 1_555
N6 Zn4 1_555 1_555
C31 N6 1_555 1_555
H19 C31 1_555 1_555
O10 Zn4 1_555 1_555
C6 C5 1_555 1_555
H3 C6 1_555 1_555
H4 C7 1_555 1_555
C8 C5 1_555 1_555
H5 C8 1_555 1_555
C6 C7 1_555 1_555

#END
