
###############################################################################
#
# This file contains modified crystal structure data generated from the
# MOF subset of the Cambridge Structural Database (CSD) v543 
# hosted by the Cambridge Crystallographic Data Centre (CCDC).
#
# This work is licensed under the Creative Commons
# Attribution-NonCommercial-ShareAlike 4.0 International License.
# To view a copy of this license, visit
# http://creativecommons.org/licenses/by-nc-sa/4.0/
# or send a letter to
# Creative Commons, PO Box 1866, Mountain View, CA 94042, USA.
#
# CIF created using the CSD Python API on 29 September 2022
# The structure has been converted into the P1 space group
# The structure has a 3D framework
# The original CSD entry WOGNOY is in the tetragonal crystal system
# The framework has been calculated to contain at least 10.0% void space
# The void calculation uses a probe of radius 1.32A, grid spacing 0.4
# H atom positions have been added when not included in the experimental data
# Generated hydrogen atom positions removed from atoms on special positions
#
###############################################################################

data_WOGNOY
_chemical_formula_moiety         '(C128 H224 O79 Th22)n'
_symmetry_cell_setting           triclinic
_symmetry_space_group_name_H-M   'P 1'
_symmetry_Int_Tables_number      1
_space_group_name_Hall           'P 1'
loop_
_symmetry_equiv_pos_site_id
_symmetry_equiv_pos_as_xyz
1 x,y,z
_cell_length_a                   25.5223(17)
_cell_length_b                   25.5223(17)
_cell_length_c                   14.6275(11)
_cell_angle_alpha                90
_cell_angle_beta                 90
_cell_angle_gamma                90
_cell_volume                     9528.18
loop_
_atom_site_label
_atom_site_type_symbol
_atom_site_fract_x
_atom_site_fract_y
_atom_site_fract_z
Th10 Th 0.000000 0.42354(4) 0.86805(9)
Th9 Th -0.000000 0.57646(4) 0.86805(9)
Th6 Th 0.89086(3) 0.500000 0.000000
Th1 Th 0.500000 0.10914(3) 0.500000
Th2 Th 0.57646(4) -0.000000 0.63195(9)
O1 O 0.5625(6) 0.1492(6) 0.6094(12)
O2 O 0.500000 0.0503(9) 0.6242(16)
C1 C 0.5991(6) 0.1333(6) 0.6574(8)
O4 O 0.6750(9) -0.000000 0.603(2)
O5 O 0.5623(13) -0.000000 0.788(2)
C2 C 0.6376(5) 0.1745(5) 0.6849(12)
C3 C 0.6774(6) 0.1635(4) 0.7470(11)
H1 H 0.680243 0.129495 0.772859
C4 C 0.7131(5) 0.2023(5) 0.7711(10)
H2 H 0.740253 0.194791 0.813454
C5 C 0.7089(5) 0.2521(4) 0.7332(11)
C6 C 0.6692(5) 0.2631(4) 0.6711(11)
C7 C 0.6335(5) 0.2243(5) 0.6470(10)
H3 H 0.606338 0.231773 0.604633
O6 O 0.6066(6) 0.0879(6) 0.6843(11)
O7 O 0.500000 0.2139(8) 0.500000
C8 C 0.6665(9) 0.3157(7) 0.6262(15)
H4 H 0.680929 0.342244 0.667408
H5 H 0.629889 0.324147 0.612256
H6 H 0.686854 0.315024 0.569392
O8 O 0.8508(6) 0.4375(6) 0.8906(12)
C9 C 0.8667(6) 0.4009(6) 0.8426(8)
C10 C 0.8255(5) 0.3624(5) 0.8151(12)
C11 C 0.8365(4) 0.3226(6) 0.7530(11)
H7 H 0.870505 0.319757 0.727141
C12 C 0.7977(5) 0.2869(5) 0.7289(10)
H8 H 0.805209 0.259747 0.686546
C13 C 0.7479(4) 0.2911(5) 0.7668(11)
C14 C 0.7369(4) 0.3308(5) 0.8289(11)
C15 C 0.7757(5) 0.3665(5) 0.8530(10)
H9 H 0.768227 0.393662 0.895367
O9 O 0.9121(6) 0.3934(6) 0.8157(11)
C16 C 0.6843(7) 0.3335(9) 0.8738(15)
H10 H 0.657756 0.319071 0.832592
H11 H 0.675853 0.370111 0.887744
H12 H 0.684976 0.313146 0.930608
Th3 Th 0.42354(4) -0.000000 0.63195(9)
O11 O 0.4287(9) 0.0487(8) 0.500000
O12 O 0.3250(9) -0.000000 0.603(2)
O13 O 0.4377(13) -0.000000 0.788(2)
Th6_2 Th 0.89086(3) 0.500000 1.000000
Th7 Th 0.42354(4) -0.000000 0.36805(9)
Th8 Th 0.57646(4) -0.000000 0.36805(9)
Th10_2 Th 1.000000 0.42354(4) 0.86805(9)
O18 O 0.4375(6) 0.1492(6) 0.3906(12)
O19 O 0.5625(6) 0.1492(6) 0.3906(12)
O20 O 0.4375(6) 0.1492(6) 0.6094(12)
O21 O 0.500000 0.0503(9) 0.3758(16)
O23 O 0.5713(9) 0.0487(8) 0.500000
O25 O 0.3934(6) 0.0879(6) 0.6843(11)
Th2_2 Th 0.57646(4) 1.000000 0.63195(9)
O3 O 0.5713(9) 0.9513(8) 0.500000
O4_2 O 0.6750(9) 1.000000 0.603(2)
O5_2 O 0.5623(13) 1.000000 0.788(2)
Th3_2 Th 0.42354(4) 1.000000 0.63195(9)
O10 O 0.500000 0.9497(9) 0.6242(16)
O12_2 O 0.3250(9) 1.000000 0.603(2)
O13_2 O 0.4377(13) 1.000000 0.788(2)
O14 O 0.5625(6) 0.8508(6) 0.6094(12)
C17 C 0.5991(6) 0.8667(6) 0.6574(8)
C18 C 0.6376(5) 0.8255(5) 0.6849(12)
C19 C 0.6774(6) 0.8365(4) 0.7470(11)
H13 H 0.680243 0.870505 0.772859
C20 C 0.7131(5) 0.7977(5) 0.7711(10)
H14 H 0.740253 0.805209 0.813454
C21 C 0.7089(5) 0.7479(4) 0.7332(11)
C22 C 0.6692(5) 0.7369(4) 0.6711(11)
C23 C 0.6335(5) 0.7757(5) 0.6470(10)
H15 H 0.606338 0.768227 0.604633
O15 O 0.6066(6) 0.9121(6) 0.6843(11)
C24 C 0.6665(9) 0.6843(7) 0.6262(15)
H16 H 0.680929 0.657756 0.667408
H17 H 0.629889 0.675853 0.612256
H18 H 0.686854 0.684976 0.569392
O16 O 0.8508(6) 0.5625(6) 0.8906(12)
C25 C 0.8667(6) 0.5991(6) 0.8426(8)
C26 C 0.8255(5) 0.6376(5) 0.8151(12)
C27 C 0.8365(4) 0.6774(6) 0.7530(11)
H19 H 0.870505 0.680243 0.727141
C28 C 0.7977(5) 0.7131(5) 0.7289(10)
H20 H 0.805209 0.740253 0.686546
C29 C 0.7479(4) 0.7089(5) 0.7668(11)
C30 C 0.7369(4) 0.6692(5) 0.8289(11)
C31 C 0.7757(5) 0.6335(5) 0.8530(10)
H21 H 0.768227 0.606338 0.895367
O17 O 0.9121(6) 0.6066(6) 0.8157(11)
C32 C 0.6843(7) 0.6665(9) 0.8738(15)
H22 H 0.657756 0.680929 0.832592
H23 H 0.675853 0.629889 0.887744
H24 H 0.684976 0.686854 0.930608
Th4 Th 0.500000 0.89086(3) 0.500000
Th7_2 Th 0.42354(4) 1.000000 0.36805(9)
Th8_2 Th 0.57646(4) 1.000000 0.36805(9)
Th9_2 Th 1.000000 0.57646(4) 0.86805(9)
O22 O 0.4287(9) 0.9513(8) 0.500000
O24 O 0.3934(6) 0.9121(6) 0.6843(11)
Th5 Th 0.10914(3) 0.500000 0.000000
C17_2 C 0.4009(6) 0.1333(6) 0.6574(8)
C18_2 C 0.3624(5) 0.1745(5) 0.6849(12)
C19_2 C 0.3226(6) 0.1635(4) 0.7470(11)
H13_2 H 0.319757 0.129495 0.772859
C20_2 C 0.2869(5) 0.2023(5) 0.7711(10)
H14_2 H 0.259747 0.194791 0.813454
C21_2 C 0.2911(5) 0.2521(4) 0.7332(11)
C22_2 C 0.3308(5) 0.2631(4) 0.6711(11)
C23_2 C 0.3665(5) 0.2243(5) 0.6470(10)
H15_2 H 0.393662 0.231773 0.604633
C24_2 C 0.3335(9) 0.3157(7) 0.6262(15)
H16_2 H 0.319071 0.342244 0.667408
H17_2 H 0.370111 0.324147 0.612256
H18_2 H 0.313146 0.315024 0.569392
O16_2 O 0.1492(6) 0.4375(6) 0.8906(12)
C25_2 C 0.1333(6) 0.4009(6) 0.8426(8)
C26_2 C 0.1745(5) 0.3624(5) 0.8151(12)
C27_2 C 0.1635(4) 0.3226(6) 0.7530(11)
H19_2 H 0.129495 0.319757 0.727141
C28_2 C 0.2023(5) 0.2869(5) 0.7289(10)
H20_2 H 0.194791 0.259747 0.686546
C29_2 C 0.2521(4) 0.2911(5) 0.7668(11)
C30_2 C 0.2631(4) 0.3308(5) 0.8289(11)
C31_2 C 0.2243(5) 0.3665(5) 0.8530(10)
H21_2 H 0.231773 0.393662 0.895367
O17_2 O 0.0879(6) 0.3934(6) 0.8157(11)
C32_2 C 0.3157(7) 0.3335(9) 0.8738(15)
H22_2 H 0.342244 0.319071 0.832592
H23_2 H 0.324147 0.370111 0.887744
H24_2 H 0.315024 0.313146 0.930608
Th5_2 Th 0.10914(3) 0.500000 1.000000
O1_2 O 0.4375(6) 0.8508(6) 0.6094(12)
C1_2 C 0.4009(6) 0.8667(6) 0.6574(8)
C2_2 C 0.3624(5) 0.8255(5) 0.6849(12)
C3_2 C 0.3226(6) 0.8365(4) 0.7470(11)
H1_2 H 0.319757 0.870505 0.772859
C4_2 C 0.2869(5) 0.7977(5) 0.7711(10)
H2_2 H 0.259747 0.805209 0.813454
C5_2 C 0.2911(5) 0.7479(4) 0.7332(11)
C6_2 C 0.3308(5) 0.7369(4) 0.6711(11)
C7_2 C 0.3665(5) 0.7757(5) 0.6470(10)
H3_2 H 0.393662 0.768227 0.604633
O7_2 O 0.500000 0.7861(8) 0.500000
C8_2 C 0.3335(9) 0.6843(7) 0.6262(15)
H4_2 H 0.319071 0.657756 0.667408
H5_2 H 0.370111 0.675853 0.612256
H6_2 H 0.313146 0.684976 0.569392
O8_2 O 0.1492(6) 0.5625(6) 0.8906(12)
C9_2 C 0.1333(6) 0.5991(6) 0.8426(8)
C10_2 C 0.1745(5) 0.6376(5) 0.8151(12)
C11_2 C 0.1635(4) 0.6774(6) 0.7530(11)
H7_2 H 0.129495 0.680243 0.727141
C12_2 C 0.2023(5) 0.7131(5) 0.7289(10)
H8_2 H 0.194791 0.740253 0.686546
C13_2 C 0.2521(4) 0.7089(5) 0.7668(11)
C14_2 C 0.2631(4) 0.6692(5) 0.8289(11)
C15_2 C 0.2243(5) 0.6335(5) 0.8530(10)
H9_2 H 0.231773 0.606338 0.895367
O9_2 O 0.0879(6) 0.6066(6) 0.8157(11)
C16_2 C 0.3157(7) 0.6665(9) 0.8738(15)
H10_2 H 0.342244 0.680929 0.832592
H11_2 H 0.324147 0.629889 0.887744
H12_2 H 0.315024 0.686854 0.930608
O18_2 O 0.5625(6) 0.8508(6) 0.3906(12)
O19_2 O 0.4375(6) 0.8508(6) 0.3906(12)
O21_2 O 0.500000 0.9497(9) 0.3758(16)
Th2_3 Th 0.000000 0.57646(4) 0.13195(9)
O3_2 O 0.0487(8) 0.5713(9) 0.000000
O4_3 O -0.000000 0.6750(9) 0.103(2)
O5_3 O -0.000000 0.5623(13) 0.288(2)
Th3_3 Th 0.000000 0.42354(4) 0.13195(9)
O10_2 O 0.0503(9) 0.500000 0.1242(16)
O12_3 O 0.000000 0.3250(9) 0.103(2)
O13_3 O 0.000000 0.4377(13) 0.288(2)
O14_2 O 0.1492(6) 0.5625(6) 0.1094(12)
C17_3 C 0.1333(6) 0.5991(6) 0.1574(8)
C18_3 C 0.1745(5) 0.6376(5) 0.1849(12)
C19_3 C 0.1635(4) 0.6774(6) 0.2470(11)
H13_3 H 0.129495 0.680243 0.272859
C20_3 C 0.2023(5) 0.7131(5) 0.2711(10)
H14_3 H 0.194791 0.740253 0.313454
C21_3 C 0.2521(4) 0.7089(5) 0.2332(11)
C22_3 C 0.2631(4) 0.6692(5) 0.1711(11)
C23_3 C 0.2243(5) 0.6335(5) 0.1470(10)
H15_3 H 0.231773 0.606338 0.104633
O15_2 O 0.0879(6) 0.6066(6) 0.1843(11)
C24_3 C 0.3157(7) 0.6665(9) 0.1262(15)
H16_3 H 0.342244 0.680929 0.167408
H17_3 H 0.324147 0.629889 0.112256
H18_3 H 0.315024 0.686854 0.069392
C25_3 C 0.4009(6) 0.8667(6) 0.3426(8)
C26_3 C 0.3624(5) 0.8255(5) 0.3151(12)
C27_3 C 0.3226(6) 0.8365(4) 0.2530(11)
H19_3 H 0.319757 0.870505 0.227141
C28_3 C 0.2869(5) 0.7977(5) 0.2289(10)
H20_3 H 0.259747 0.805209 0.186546
C29_3 C 0.2911(5) 0.7479(4) 0.2668(11)
C30_3 C 0.3308(5) 0.7369(4) 0.3289(11)
C31_3 C 0.3665(5) 0.7757(5) 0.3530(10)
H21_3 H 0.393662 0.768227 0.395367
O17_3 O 0.3934(6) 0.9121(6) 0.3157(11)
C32_3 C 0.3335(9) 0.6843(7) 0.3738(15)
H22_3 H 0.319071 0.657756 0.332592
H23_3 H 0.370111 0.675853 0.387744
H24_3 H 0.313146 0.684976 0.430608
O22_2 O 0.0487(8) 0.4287(9) 0.000000
O24_2 O 0.0879(6) 0.3934(6) 0.1843(11)
O3_3 O 0.0487(8) 0.5713(9) 1.000000
O22_3 O 0.0487(8) 0.4287(9) 1.000000
Th2_4 Th 1.000000 0.57646(4) 0.13195(9)
O1_3 O 0.8508(6) 0.5625(6) 0.1094(12)
O2_2 O 0.9497(9) 0.500000 0.1242(16)
C1_3 C 0.8667(6) 0.5991(6) 0.1574(8)
O4_4 O 1.000000 0.6750(9) 0.103(2)
O5_4 O 1.000000 0.5623(13) 0.288(2)
C2_3 C 0.8255(5) 0.6376(5) 0.1849(12)
C3_3 C 0.8365(4) 0.6774(6) 0.2470(11)
H1_3 H 0.870505 0.680243 0.272859
C4_3 C 0.7977(5) 0.7131(5) 0.2711(10)
H2_3 H 0.805209 0.740253 0.313454
C5_3 C 0.7479(4) 0.7089(5) 0.2332(11)
C6_3 C 0.7369(4) 0.6692(5) 0.1711(11)
C7_3 C 0.7757(5) 0.6335(5) 0.1470(10)
H3_3 H 0.768227 0.606338 0.104633
O6_2 O 0.9121(6) 0.6066(6) 0.1843(11)
O7_3 O 0.7861(8) 0.500000 0.000000
C8_3 C 0.6843(7) 0.6665(9) 0.1262(15)
H4_3 H 0.657756 0.680929 0.167408
H5_3 H 0.675853 0.629889 0.112256
H6_3 H 0.684976 0.686854 0.069392
C9_3 C 0.5991(6) 0.8667(6) 0.3426(8)
C10_3 C 0.6376(5) 0.8255(5) 0.3151(12)
C11_3 C 0.6774(6) 0.8365(4) 0.2530(11)
H7_3 H 0.680243 0.870505 0.227141
C12_3 C 0.7131(5) 0.7977(5) 0.2289(10)
H8_3 H 0.740253 0.805209 0.186546
C13_3 C 0.7089(5) 0.7479(4) 0.2668(11)
C14_3 C 0.6692(5) 0.7369(4) 0.3289(11)
C15_3 C 0.6335(5) 0.7757(5) 0.3530(10)
H9_3 H 0.606338 0.768227 0.395367
O9_3 O 0.6066(6) 0.9121(6) 0.3157(11)
C16_3 C 0.6665(9) 0.6843(7) 0.3738(15)
H10_3 H 0.680929 0.657756 0.332592
H11_3 H 0.629889 0.675853 0.387744
H12_3 H 0.686854 0.684976 0.430608
Th3_4 Th 1.000000 0.42354(4) 0.13195(9)
O11_2 O 0.9513(8) 0.4287(9) 0.000000
O12_4 O 1.000000 0.3250(9) 0.103(2)
O13_4 O 1.000000 0.4377(13) 0.288(2)
O20_2 O 0.8508(6) 0.4375(6) 0.1094(12)
O23_2 O 0.9513(8) 0.5713(9) 0.000000
O25_2 O 0.9121(6) 0.3934(6) 0.1843(11)
O7_4 O 0.7861(8) 0.500000 1.000000
O11_3 O 0.9513(8) 0.4287(9) 1.000000
O21_3 O 0.9497(9) 0.500000 0.8758(16)
O23_3 O 0.9513(8) 0.5713(9) 1.000000
O1_4 O 0.1492(6) 0.4375(6) 0.1094(12)
C1_4 C 0.1333(6) 0.4009(6) 0.1574(8)
C2_4 C 0.1745(5) 0.3624(5) 0.1849(12)
C3_4 C 0.1635(4) 0.3226(6) 0.2470(11)
H1_4 H 0.129495 0.319757 0.272859
C4_4 C 0.2023(5) 0.2869(5) 0.2711(10)
H2_4 H 0.194791 0.259747 0.313454
C5_4 C 0.2521(4) 0.2911(5) 0.2332(11)
C6_4 C 0.2631(4) 0.3308(5) 0.1711(11)
C7_4 C 0.2243(5) 0.3665(5) 0.1470(10)
H3_4 H 0.231773 0.393662 0.104633
O7_5 O 0.2139(8) 0.500000 0.000000
C8_4 C 0.3157(7) 0.3335(9) 0.1262(15)
H4_4 H 0.342244 0.319071 0.167408
H5_4 H 0.324147 0.370111 0.112256
H6_4 H 0.315024 0.313146 0.069392
C9_4 C 0.4009(6) 0.1333(6) 0.3426(8)
C10_4 C 0.3624(5) 0.1745(5) 0.3151(12)
C11_4 C 0.3226(6) 0.1635(4) 0.2530(11)
H7_4 H 0.319757 0.129495 0.227141
C12_4 C 0.2869(5) 0.2023(5) 0.2289(10)
H8_4 H 0.259747 0.194791 0.186546
C13_4 C 0.2911(5) 0.2521(4) 0.2668(11)
C14_4 C 0.3308(5) 0.2631(4) 0.3289(11)
C15_4 C 0.3665(5) 0.2243(5) 0.3530(10)
H9_4 H 0.393662 0.231773 0.395367
O9_4 O 0.3934(6) 0.0879(6) 0.3157(11)
C16_4 C 0.3335(9) 0.3157(7) 0.3738(15)
H10_4 H 0.319071 0.342244 0.332592
H11_4 H 0.370111 0.324147 0.387744
H12_4 H 0.313146 0.315024 0.430608
O7_6 O 0.2139(8) 0.500000 1.000000
O21_4 O 0.0503(9) 0.500000 0.8758(16)
C17_4 C 0.8667(6) 0.4009(6) 0.1574(8)
C18_4 C 0.8255(5) 0.3624(5) 0.1849(12)
C19_4 C 0.8365(4) 0.3226(6) 0.2470(11)
H13_4 H 0.870505 0.319757 0.272859
C20_4 C 0.7977(5) 0.2869(5) 0.2711(10)
H14_4 H 0.805209 0.259747 0.313454
C21_4 C 0.7479(4) 0.2911(5) 0.2332(11)
C22_4 C 0.7369(4) 0.3308(5) 0.1711(11)
C23_4 C 0.7757(5) 0.3665(5) 0.1470(10)
H15_4 H 0.768227 0.393662 0.104633
C24_4 C 0.6843(7) 0.3335(9) 0.1262(15)
H16_4 H 0.657756 0.319071 0.167408
H17_4 H 0.675853 0.370111 0.112256
H18_4 H 0.684976 0.313146 0.069392
C25_4 C 0.5991(6) 0.1333(6) 0.3426(8)
C26_4 C 0.6376(5) 0.1745(5) 0.3151(12)
C27_4 C 0.6774(6) 0.1635(4) 0.2530(11)
H19_4 H 0.680243 0.129495 0.227141
C28_4 C 0.7131(5) 0.2023(5) 0.2289(10)
H20_4 H 0.740253 0.194791 0.186546
C29_4 C 0.7089(5) 0.2521(4) 0.2668(11)
C30_4 C 0.6692(5) 0.2631(4) 0.3289(11)
C31_4 C 0.6335(5) 0.2243(5) 0.3530(10)
H21_4 H 0.606338 0.231773 0.395367
O17_4 O 0.6066(6) 0.0879(6) 0.3157(11)
C32_4 C 0.6665(9) 0.3157(7) 0.3738(15)
H22_4 H 0.680929 0.342244 0.332592
H23_4 H 0.629889 0.324147 0.387744
H24_4 H 0.686854 0.315024 0.430608
O4_5 O 0.3250(9) -0.000000 0.397(2)
O5_5 O 0.4377(13) -0.000000 0.212(2)
O12_5 O 0.6750(9) -0.000000 0.397(2)
O13_5 O 0.5623(13) -0.000000 0.212(2)
O4_6 O 0.3250(9) 1.000000 0.397(2)
O5_6 O 0.4377(13) 1.000000 0.212(2)
O12_6 O 0.6750(9) 1.000000 0.397(2)
O13_6 O 0.5623(13) 1.000000 0.212(2)
O4_7 O -0.000000 0.6750(9) 0.897(2)
O5_7 O -0.000000 0.5623(13) 0.712(2)
O12_7 O -0.000000 0.3250(9) 0.897(2)
O13_7 O -0.000000 0.4377(13) 0.712(2)
O4_8 O 1.000000 0.6750(9) 0.897(2)
O5_8 O 1.000000 0.5623(13) 0.712(2)
O12_8 O 1.000000 0.3250(9) 0.897(2)
O13_8 O 1.000000 0.4377(13) 0.712(2)
loop_
_geom_bond_atom_site_label_1
_geom_bond_atom_site_label_2
_geom_bond_site_symmetry_1
_geom_bond_site_symmetry_2
Th1 O1 1_555 1_555
Th2 O2 1_555 1_555
O1 C1 1_555 1_555
O2 Th1 1_555 1_555
C1 C2 1_555 1_555
O4 Th2 1_555 1_555
O5 Th2 1_555 1_555
C2 C3 1_555 1_555
C3 H1 1_555 1_555
C4 C3 1_555 1_555
H2 C4 1_555 1_555
C5 C4 1_555 1_555
C6 C5 1_555 1_555
C7 C2 1_555 1_555
H3 C7 1_555 1_555
O6 Th2 1_555 1_555
O7 Th1 1_555 1_555
C8 C6 1_555 1_555
H4 C8 1_555 1_555
H5 C8 1_555 1_555
H6 C8 1_555 1_555
O8 C9 1_555 1_555
C9 C10 1_555 1_555
C10 C11 1_555 1_555
C11 H7 1_555 1_555
C12 C11 1_555 1_555
H8 C12 1_555 1_555
C13 C5 1_555 1_555
C14 C13 1_555 1_555
C15 C10 1_555 1_555
H9 C15 1_555 1_555
O9 C9 1_555 1_555
C16 C14 1_555 1_555
H10 C16 1_555 1_555
H11 C16 1_555 1_555
H12 C16 1_555 1_555
Th3 O2 1_555 1_555
O11 Th1 1_555 1_555
O12 Th3 1_555 1_555
O13 Th3 1_555 1_555
Th6_2 O8 1_555 1_555
Th7 O11 1_555 1_555
Th10_2 O9 1_555 1_555
O18 Th1 1_555 1_555
O19 Th1 1_555 1_555
O20 Th1 1_555 1_555
O21 Th1 1_555 1_555
O23 Th1 1_555 1_555
O25 Th3 1_555 1_555
Th2 O23 1_555 1_555
C1 O6 1_555 1_555
C6 C7 1_555 1_555
C12 C13 1_555 1_555
C14 C15 1_555 1_555
Th3 O11 1_555 1_555
Th7 O21 1_555 1_555
Th8 O21 1_555 1_555
Th8 O23 1_555 1_555
O3 Th2_2 1_555 1_555
O4_2 Th2_2 1_555 1_555
O5_2 Th2_2 1_555 1_555
O10 Th2_2 1_555 1_555
O12_2 Th3_2 1_555 1_555
O13_2 Th3_2 1_555 1_555
O14 C17 1_555 1_555
C17 C18 1_555 1_555
C18 C19 1_555 1_555
C19 H13 1_555 1_555
C20 C19 1_555 1_555
H14 C20 1_555 1_555
C21 C20 1_555 1_555
C22 C21 1_555 1_555
C23 C18 1_555 1_555
H15 C23 1_555 1_555
O15 Th2_2 1_555 1_555
C24 C22 1_555 1_555
H16 C24 1_555 1_555
H17 C24 1_555 1_555
H18 C24 1_555 1_555
O16 C25 1_555 1_555
C25 C26 1_555 1_555
C26 C27 1_555 1_555
C27 H19 1_555 1_555
C28 C27 1_555 1_555
H20 C28 1_555 1_555
C29 C21 1_555 1_555
C30 C29 1_555 1_555
C31 C26 1_555 1_555
H21 C31 1_555 1_555
O17 C25 1_555 1_555
C32 C30 1_555 1_555
H22 C32 1_555 1_555
H23 C32 1_555 1_555
H24 C32 1_555 1_555
Th4 O3 1_555 1_555
Th6_2 O16 1_555 1_555
Th8_2 O3 1_555 1_555
Th9_2 O17 1_555 1_555
O22 Th3_2 1_555 1_555
O24 Th3_2 1_555 1_555
Th3_2 O10 1_555 1_555
O10 Th4 1_555 1_555
O14 Th4 1_555 1_555
C17 O15 1_555 1_555
C22 C23 1_555 1_555
C28 C29 1_555 1_555
C30 C31 1_555 1_555
Th4 O22 1_555 1_555
Th7_2 O22 1_555 1_555
O20 C17_2 1_555 1_555
C17_2 C18_2 1_555 1_555
C18_2 C19_2 1_555 1_555
C19_2 H13_2 1_555 1_555
C20_2 C19_2 1_555 1_555
H14_2 C20_2 1_555 1_555
C21_2 C20_2 1_555 1_555
C22_2 C21_2 1_555 1_555
C23_2 C18_2 1_555 1_555
H15_2 C23_2 1_555 1_555
C24_2 C22_2 1_555 1_555
H16_2 C24_2 1_555 1_555
H17_2 C24_2 1_555 1_555
H18_2 C24_2 1_555 1_555
O16_2 C25_2 1_555 1_555
C25_2 C26_2 1_555 1_555
C26_2 C27_2 1_555 1_555
C27_2 H19_2 1_555 1_555
C28_2 C27_2 1_555 1_555
H20_2 C28_2 1_555 1_555
C29_2 C21_2 1_555 1_555
C30_2 C29_2 1_555 1_555
C31_2 C26_2 1_555 1_555
H21_2 C31_2 1_555 1_555
O17_2 C25_2 1_555 1_555
C32_2 C30_2 1_555 1_555
H22_2 C32_2 1_555 1_555
H23_2 C32_2 1_555 1_555
H24_2 C32_2 1_555 1_555
Th5_2 O16_2 1_555 1_555
Th10 O17_2 1_555 1_555
C17_2 O25 1_555 1_555
C22_2 C23_2 1_555 1_555
C28_2 C29_2 1_555 1_555
C30_2 C31_2 1_555 1_555
Th4 O1_2 1_555 1_555
O1_2 C1_2 1_555 1_555
C1_2 C2_2 1_555 1_555
C2_2 C3_2 1_555 1_555
C3_2 H1_2 1_555 1_555
C4_2 C3_2 1_555 1_555
H2_2 C4_2 1_555 1_555
C5_2 C4_2 1_555 1_555
C6_2 C5_2 1_555 1_555
C7_2 C2_2 1_555 1_555
H3_2 C7_2 1_555 1_555
O7_2 Th4 1_555 1_555
C8_2 C6_2 1_555 1_555
H4_2 C8_2 1_555 1_555
H5_2 C8_2 1_555 1_555
H6_2 C8_2 1_555 1_555
O8_2 C9_2 1_555 1_555
C9_2 C10_2 1_555 1_555
C10_2 C11_2 1_555 1_555
C11_2 H7_2 1_555 1_555
C12_2 C11_2 1_555 1_555
H8_2 C12_2 1_555 1_555
C13_2 C5_2 1_555 1_555
C14_2 C13_2 1_555 1_555
C15_2 C10_2 1_555 1_555
H9_2 C15_2 1_555 1_555
O9_2 C9_2 1_555 1_555
C16_2 C14_2 1_555 1_555
H10_2 C16_2 1_555 1_555
H11_2 C16_2 1_555 1_555
H12_2 C16_2 1_555 1_555
Th5_2 O8_2 1_555 1_555
Th9 O9_2 1_555 1_555
O18_2 Th4 1_555 1_555
O19_2 Th4 1_555 1_555
O21_2 Th4 1_555 1_555
C1_2 O24 1_555 1_555
C6_2 C7_2 1_555 1_555
C12_2 C13_2 1_555 1_555
C14_2 C15_2 1_555 1_555
Th8_2 O21_2 1_555 1_555
Th7_2 O21_2 1_555 1_555
O3_2 Th2_3 1_555 1_555
O4_3 Th2_3 1_555 1_555
O5_3 Th2_3 1_555 1_555
O10_2 Th2_3 1_555 1_555
O12_3 Th3_3 1_555 1_555
O13_3 Th3_3 1_555 1_555
O14_2 C17_3 1_555 1_555
C17_3 C18_3 1_555 1_555
C18_3 C19_3 1_555 1_555
C19_3 H13_3 1_555 1_555
C20_3 C19_3 1_555 1_555
H14_3 C20_3 1_555 1_555
C21_3 C20_3 1_555 1_555
C22_3 C21_3 1_555 1_555
C23_3 C18_3 1_555 1_555
H15_3 C23_3 1_555 1_555
O15_2 Th2_3 1_555 1_555
C24_3 C22_3 1_555 1_555
H16_3 C24_3 1_555 1_555
H17_3 C24_3 1_555 1_555
H18_3 C24_3 1_555 1_555
O19_2 C25_3 1_555 1_555
C25_3 C26_3 1_555 1_555
C26_3 C27_3 1_555 1_555
C27_3 H19_3 1_555 1_555
C28_3 C27_3 1_555 1_555
H20_3 C28_3 1_555 1_555
C29_3 C21_3 1_555 1_555
C30_3 C29_3 1_555 1_555
C31_3 C26_3 1_555 1_555
H21_3 C31_3 1_555 1_555
O17_3 C25_3 1_555 1_555
C32_3 C30_3 1_555 1_555
H22_3 C32_3 1_555 1_555
H23_3 C32_3 1_555 1_555
H24_3 C32_3 1_555 1_555
Th5 O3_2 1_555 1_555
Th7_2 O17_3 1_555 1_555
O22_2 Th3_3 1_555 1_555
O24_2 Th3_3 1_555 1_555
Th3_3 O10_2 1_555 1_555
O10_2 Th5 1_555 1_555
O14_2 Th5 1_555 1_555
C17_3 O15_2 1_555 1_555
C22_3 C23_3 1_555 1_555
C28_3 C29_3 1_555 1_555
C30_3 C31_3 1_555 1_555
Th5 O22_2 1_555 1_555
Th5_2 O3_3 1_555 1_555
Th9 O3_3 1_555 1_555
Th5_2 O22_3 1_555 1_555
Th10 O22_3 1_555 1_555
Th6 O1_3 1_555 1_555
Th2_4 O2_2 1_555 1_555
O1_3 C1_3 1_555 1_555
O2_2 Th6 1_555 1_555
C1_3 C2_3 1_555 1_555
O4_4 Th2_4 1_555 1_555
O5_4 Th2_4 1_555 1_555
C2_3 C3_3 1_555 1_555
C3_3 H1_3 1_555 1_555
C4_3 C3_3 1_555 1_555
H2_3 C4_3 1_555 1_555
C5_3 C4_3 1_555 1_555
C6_3 C5_3 1_555 1_555
C7_3 C2_3 1_555 1_555
H3_3 C7_3 1_555 1_555
O6_2 Th2_4 1_555 1_555
O7_3 Th6 1_555 1_555
C8_3 C6_3 1_555 1_555
H4_3 C8_3 1_555 1_555
H5_3 C8_3 1_555 1_555
H6_3 C8_3 1_555 1_555
O18_2 C9_3 1_555 1_555
C9_3 C10_3 1_555 1_555
C10_3 C11_3 1_555 1_555
C11_3 H7_3 1_555 1_555
C12_3 C11_3 1_555 1_555
H8_3 C12_3 1_555 1_555
C13_3 C5_3 1_555 1_555
C14_3 C13_3 1_555 1_555
C15_3 C10_3 1_555 1_555
H9_3 C15_3 1_555 1_555
O9_3 C9_3 1_555 1_555
C16_3 C14_3 1_555 1_555
H10_3 C16_3 1_555 1_555
H11_3 C16_3 1_555 1_555
H12_3 C16_3 1_555 1_555
Th3_4 O2_2 1_555 1_555
O11_2 Th6 1_555 1_555
O12_4 Th3_4 1_555 1_555
O13_4 Th3_4 1_555 1_555
Th8_2 O9_3 1_555 1_555
O20_2 Th6 1_555 1_555
O23_2 Th6 1_555 1_555
O25_2 Th3_4 1_555 1_555
Th2_4 O23_2 1_555 1_555
C1_3 O6_2 1_555 1_555
C6_3 C7_3 1_555 1_555
C12_3 C13_3 1_555 1_555
C14_3 C15_3 1_555 1_555
Th3_4 O11_2 1_555 1_555
O7_4 Th6_2 1_555 1_555
O11_3 Th6_2 1_555 1_555
Th10_2 O11_3 1_555 1_555
O21_3 Th6_2 1_555 1_555
O23_3 Th6_2 1_555 1_555
Th10_2 O21_3 1_555 1_555
Th9_2 O21_3 1_555 1_555
Th9_2 O23_3 1_555 1_555
Th5 O1_4 1_555 1_555
O1_4 C1_4 1_555 1_555
C1_4 C2_4 1_555 1_555
C2_4 C3_4 1_555 1_555
C3_4 H1_4 1_555 1_555
C4_4 C3_4 1_555 1_555
H2_4 C4_4 1_555 1_555
C5_4 C4_4 1_555 1_555
C6_4 C5_4 1_555 1_555
C7_4 C2_4 1_555 1_555
H3_4 C7_4 1_555 1_555
O7_5 Th5 1_555 1_555
C8_4 C6_4 1_555 1_555
H4_4 C8_4 1_555 1_555
H5_4 C8_4 1_555 1_555
H6_4 C8_4 1_555 1_555
O18 C9_4 1_555 1_555
C9_4 C10_4 1_555 1_555
C10_4 C11_4 1_555 1_555
C11_4 H7_4 1_555 1_555
C12_4 C11_4 1_555 1_555
H8_4 C12_4 1_555 1_555
C13_4 C5_4 1_555 1_555
C14_4 C13_4 1_555 1_555
C15_4 C10_4 1_555 1_555
H9_4 C15_4 1_555 1_555
O9_4 C9_4 1_555 1_555
C16_4 C14_4 1_555 1_555
H10_4 C16_4 1_555 1_555
H11_4 C16_4 1_555 1_555
H12_4 C16_4 1_555 1_555
Th7 O9_4 1_555 1_555
C1_4 O24_2 1_555 1_555
C6_4 C7_4 1_555 1_555
C12_4 C13_4 1_555 1_555
C14_4 C15_4 1_555 1_555
O7_6 Th5_2 1_555 1_555
O21_4 Th5_2 1_555 1_555
Th9 O21_4 1_555 1_555
Th10 O21_4 1_555 1_555
O20_2 C17_4 1_555 1_555
C17_4 C18_4 1_555 1_555
C18_4 C19_4 1_555 1_555
C19_4 H13_4 1_555 1_555
C20_4 C19_4 1_555 1_555
H14_4 C20_4 1_555 1_555
C21_4 C20_4 1_555 1_555
C22_4 C21_4 1_555 1_555
C23_4 C18_4 1_555 1_555
H15_4 C23_4 1_555 1_555
C24_4 C22_4 1_555 1_555
H16_4 C24_4 1_555 1_555
H17_4 C24_4 1_555 1_555
H18_4 C24_4 1_555 1_555
O19 C25_4 1_555 1_555
C25_4 C26_4 1_555 1_555
C26_4 C27_4 1_555 1_555
C27_4 H19_4 1_555 1_555
C28_4 C27_4 1_555 1_555
H20_4 C28_4 1_555 1_555
C29_4 C21_4 1_555 1_555
C30_4 C29_4 1_555 1_555
C31_4 C26_4 1_555 1_555
H21_4 C31_4 1_555 1_555
O17_4 C25_4 1_555 1_555
C32_4 C30_4 1_555 1_555
H22_4 C32_4 1_555 1_555
H23_4 C32_4 1_555 1_555
H24_4 C32_4 1_555 1_555
Th8 O17_4 1_555 1_555
C17_4 O25_2 1_555 1_555
C22_4 C23_4 1_555 1_555
C28_4 C29_4 1_555 1_555
C30_4 C31_4 1_555 1_555
O4_5 Th7 1_555 1_555
O5_5 Th7 1_555 1_555
O12_5 Th8 1_555 1_555
O13_5 Th8 1_555 1_555
O4_6 Th7_2 1_555 1_555
O5_6 Th7_2 1_555 1_555
O12_6 Th8_2 1_555 1_555
O13_6 Th8_2 1_555 1_555
O4_7 Th9 1_555 1_555
O5_7 Th9 1_555 1_555
O12_7 Th10 1_555 1_555
O13_7 Th10 1_555 1_555
O4_8 Th9_2 1_555 1_555
O5_8 Th9_2 1_555 1_555
O12_8 Th10_2 1_555 1_555
O13_8 Th10_2 1_555 1_555

#END
