
###############################################################################
#
# This file contains modified crystal structure data generated from the
# MOF subset of the Cambridge Structural Database (CSD) v543 
# hosted by the Cambridge Crystallographic Data Centre (CCDC).
#
# This work is licensed under the Creative Commons
# Attribution-NonCommercial-ShareAlike 4.0 International License.
# To view a copy of this license, visit
# http://creativecommons.org/licenses/by-nc-sa/4.0/
# or send a letter to
# Creative Commons, PO Box 1866, Mountain View, CA 94042, USA.
#
# CIF created using the CSD Python API on 29 September 2022
# The structure has been converted into the P1 space group
# The structure has a 3D framework
# The original CSD entry WOGPAM is in the tetragonal crystal system
# The framework has been calculated to contain at least 10.0% void space
# The void calculation uses a probe of radius 1.32A, grid spacing 0.4
# H atom positions have been added when not included in the experimental data
# Generated hydrogen atom positions removed from atoms on special positions
#
###############################################################################

data_WOGPAM
_chemical_formula_moiety         '(C128 H216 O79 U22)n'
_symmetry_cell_setting           triclinic
_symmetry_space_group_name_H-M   'P 1'
_symmetry_Int_Tables_number      1
_space_group_name_Hall           'P 1'
loop_
_symmetry_equiv_pos_site_id
_symmetry_equiv_pos_as_xyz
1 x,y,z
_cell_length_a                   25.114(3)
_cell_length_b                   25.114(3)
_cell_length_c                   15.2262(16)
_cell_angle_alpha                90
_cell_angle_beta                 90
_cell_angle_gamma                90
_cell_volume                     9603.36
loop_
_atom_site_label
_atom_site_type_symbol
_atom_site_fract_x
_atom_site_fract_y
_atom_site_fract_z
U10 U -0.000000 0.42487(10) 0.87471(17)
U9 U 0.000000 0.57513(10) 0.87471(17)
U6 U 0.89163(11) 0.500000 0.000000
U1 U 0.500000 0.10837(11) 0.500000
U2 U 0.57513(10) 0.000000 0.62529(17)
O1 O 0.500000 0.0499(17) 0.621(2)
O3 O 0.5615(15) 0.1498(18) 0.605(2)
O4 O 0.6054(14) 0.0866(17) 0.679(2)
O5 O 0.565(3) -0.000000 0.771(6)
O6 O 0.672(2) 0.000000 0.583(3)
O7 O 0.500000 0.219(3) 0.500000
C1 C 0.5974(10) 0.1325(11) 0.6521(16)
C2 C 0.6363(10) 0.1737(9) 0.686(2)
C3 C 0.6786(12) 0.1644(9) 0.743(2)
H1 H 0.683258 0.130228 0.768815
C4 C 0.7142(10) 0.2052(13) 0.7627(17)
H2 H 0.743071 0.198863 0.801519
C5 C 0.7074(10) 0.2552(10) 0.725(2)
C6 C 0.6651(11) 0.2645(8) 0.6684(19)
C7 C 0.6295(9) 0.2237(11) 0.6490(18)
H3 H 0.600620 0.230035 0.610144
C8 C 0.6513(19) 0.3221(12) 0.641(3)
H4 H 0.666000 0.346986 0.684647
H5 H 0.612537 0.326302 0.638747
H6 H 0.666639 0.329684 0.583497
O8 O 0.8502(18) 0.4385(15) 0.895(2)
O9 O 0.9134(17) 0.3946(14) 0.821(2)
C9 C 0.8675(11) 0.4026(10) 0.8479(16)
C10 C 0.8263(9) 0.3637(10) 0.814(2)
C11 C 0.8356(9) 0.3214(12) 0.757(2)
H7 H 0.869772 0.316742 0.731185
C12 C 0.7948(13) 0.2858(10) 0.7373(17)
H8 H 0.801137 0.256929 0.698481
C13 C 0.7448(10) 0.2926(10) 0.775(2)
C14 C 0.7355(8) 0.3349(11) 0.8316(19)
C15 C 0.7763(11) 0.3705(9) 0.8510(18)
H9 H 0.769965 0.399380 0.889856
C16 C 0.6779(12) 0.3487(19) 0.859(3)
H10 H 0.653014 0.334000 0.815353
H11 H 0.673698 0.387463 0.861253
H12 H 0.670316 0.333361 0.916503
U3 U 0.42487(10) 0.000000 0.62529(17)
O11 O 0.4280(17) 0.0500(18) 0.500000
O12 O 0.435(3) -0.000000 0.771(6)
O13 O 0.328(2) 0.000000 0.583(3)
U6_2 U 0.89163(11) 0.500000 1.000000
U7 U 0.42487(10) 0.000000 0.37471(17)
U8 U 0.57513(10) 0.000000 0.37471(17)
U10_2 U 1.000000 0.42487(10) 0.87471(17)
O18 O 0.500000 0.0499(17) 0.379(2)
O20 O 0.5720(17) 0.0500(18) 0.500000
O21 O 0.4385(15) 0.1498(18) 0.395(2)
O22 O 0.5615(15) 0.1498(18) 0.395(2)
O23 O 0.4385(15) 0.1498(18) 0.605(2)
O25 O 0.3946(14) 0.0866(17) 0.679(2)
U2_2 U 0.57513(10) 1.000000 0.62529(17)
O2 O 0.5720(17) 0.9500(18) 0.500000
O5_2 O 0.565(3) 1.000000 0.771(6)
O6_2 O 0.672(2) 1.000000 0.583(3)
U3_2 U 0.42487(10) 1.000000 0.62529(17)
O10 O 0.500000 0.9501(17) 0.621(2)
O12_2 O 0.435(3) 1.000000 0.771(6)
O13_2 O 0.328(2) 1.000000 0.583(3)
O14 O 0.5615(15) 0.8502(18) 0.605(2)
O15 O 0.6054(14) 0.9134(17) 0.679(2)
C17 C 0.5974(10) 0.8675(11) 0.6521(16)
C18 C 0.6363(10) 0.8263(9) 0.686(2)
C19 C 0.6786(12) 0.8356(9) 0.743(2)
H13 H 0.683258 0.869772 0.768815
C20 C 0.7142(10) 0.7948(13) 0.7627(17)
H14 H 0.743071 0.801137 0.801519
C21 C 0.7074(10) 0.7448(10) 0.725(2)
C22 C 0.6651(11) 0.7355(8) 0.6684(19)
C23 C 0.6295(9) 0.7763(11) 0.6490(18)
H15 H 0.600620 0.769965 0.610144
C24 C 0.6513(19) 0.6779(12) 0.641(3)
H16 H 0.666000 0.653014 0.684647
H17 H 0.612537 0.673698 0.638747
H18 H 0.666639 0.670316 0.583497
O16 O 0.8502(18) 0.5615(15) 0.895(2)
O17 O 0.9134(17) 0.6054(14) 0.821(2)
C25 C 0.8675(11) 0.5974(10) 0.8479(16)
C26 C 0.8263(9) 0.6363(10) 0.814(2)
C27 C 0.8356(9) 0.6786(12) 0.757(2)
H19 H 0.869772 0.683258 0.731185
C28 C 0.7948(13) 0.7142(10) 0.7373(17)
H20 H 0.801137 0.743071 0.698481
C29 C 0.7448(10) 0.7074(10) 0.775(2)
C30 C 0.7355(8) 0.6651(11) 0.8316(19)
C31 C 0.7763(11) 0.6295(9) 0.8510(18)
H21 H 0.769965 0.600620 0.889856
C32 C 0.6779(12) 0.6513(19) 0.859(3)
H22 H 0.653014 0.666000 0.815353
H23 H 0.673698 0.612537 0.861253
H24 H 0.670316 0.666639 0.916503
U4 U 0.500000 0.89163(11) 0.500000
U7_2 U 0.42487(10) 1.000000 0.37471(17)
U8_2 U 0.57513(10) 1.000000 0.37471(17)
U9_2 U 1.000000 0.57513(10) 0.87471(17)
O19 O 0.4280(17) 0.9500(18) 0.500000
O24 O 0.3946(14) 0.9134(17) 0.679(2)
U5 U 0.10837(11) 0.500000 0.000000
C17_2 C 0.4026(10) 0.1325(11) 0.6521(16)
C18_2 C 0.3637(10) 0.1737(9) 0.686(2)
C19_2 C 0.3214(12) 0.1644(9) 0.743(2)
H13_2 H 0.316742 0.130228 0.768815
C20_2 C 0.2858(10) 0.2052(13) 0.7627(17)
H14_2 H 0.256929 0.198863 0.801519
C21_2 C 0.2926(10) 0.2552(10) 0.725(2)
C22_2 C 0.3349(11) 0.2645(8) 0.6684(19)
C23_2 C 0.3705(9) 0.2237(11) 0.6490(18)
H15_2 H 0.399380 0.230035 0.610144
C24_2 C 0.3487(19) 0.3221(12) 0.641(3)
H16_2 H 0.334000 0.346986 0.684647
H17_2 H 0.387463 0.326302 0.638747
H18_2 H 0.333361 0.329684 0.583497
O16_2 O 0.1498(18) 0.4385(15) 0.895(2)
O17_2 O 0.0866(17) 0.3946(14) 0.821(2)
C25_2 C 0.1325(11) 0.4026(10) 0.8479(16)
C26_2 C 0.1737(9) 0.3637(10) 0.814(2)
C27_2 C 0.1644(9) 0.3214(12) 0.757(2)
H19_2 H 0.130228 0.316742 0.731185
C28_2 C 0.2052(13) 0.2858(10) 0.7373(17)
H20_2 H 0.198863 0.256929 0.698481
C29_2 C 0.2552(10) 0.2926(10) 0.775(2)
C30_2 C 0.2645(8) 0.3349(11) 0.8316(19)
C31_2 C 0.2237(11) 0.3705(9) 0.8510(18)
H21_2 H 0.230035 0.399380 0.889856
C32_2 C 0.3221(12) 0.3487(19) 0.859(3)
H22_2 H 0.346986 0.334000 0.815353
H23_2 H 0.326302 0.387463 0.861253
H24_2 H 0.329684 0.333361 0.916503
U5_2 U 0.10837(11) 0.500000 1.000000
O3_2 O 0.4385(15) 0.8502(18) 0.605(2)
O7_2 O 0.500000 0.781(3) 0.500000
C1_2 C 0.4026(10) 0.8675(11) 0.6521(16)
C2_2 C 0.3637(10) 0.8263(9) 0.686(2)
C3_2 C 0.3214(12) 0.8356(9) 0.743(2)
H1_2 H 0.316742 0.869772 0.768815
C4_2 C 0.2858(10) 0.7948(13) 0.7627(17)
H2_2 H 0.256929 0.801137 0.801519
C5_2 C 0.2926(10) 0.7448(10) 0.725(2)
C6_2 C 0.3349(11) 0.7355(8) 0.6684(19)
C7_2 C 0.3705(9) 0.7763(11) 0.6490(18)
H3_2 H 0.399380 0.769965 0.610144
C8_2 C 0.3487(19) 0.6779(12) 0.641(3)
H4_2 H 0.334000 0.653014 0.684647
H5_2 H 0.387463 0.673698 0.638747
H6_2 H 0.333361 0.670316 0.583497
O8_2 O 0.1498(18) 0.5615(15) 0.895(2)
O9_2 O 0.0866(17) 0.6054(14) 0.821(2)
C9_2 C 0.1325(11) 0.5974(10) 0.8479(16)
C10_2 C 0.1737(9) 0.6363(10) 0.814(2)
C11_2 C 0.1644(9) 0.6786(12) 0.757(2)
H7_2 H 0.130228 0.683258 0.731185
C12_2 C 0.2052(13) 0.7142(10) 0.7373(17)
H8_2 H 0.198863 0.743071 0.698481
C13_2 C 0.2552(10) 0.7074(10) 0.775(2)
C14_2 C 0.2645(8) 0.6651(11) 0.8316(19)
C15_2 C 0.2237(11) 0.6295(9) 0.8510(18)
H9_2 H 0.230035 0.600620 0.889856
C16_2 C 0.3221(12) 0.6513(19) 0.859(3)
H10_2 H 0.346986 0.666000 0.815353
H11_2 H 0.326302 0.612537 0.861253
H12_2 H 0.329684 0.666639 0.916503
O18_2 O 0.500000 0.9501(17) 0.379(2)
O21_2 O 0.5615(15) 0.8502(18) 0.395(2)
O22_2 O 0.4385(15) 0.8502(18) 0.395(2)
U2_3 U -0.000000 0.57513(10) 0.12529(17)
O2_2 O 0.0500(18) 0.5720(17) 0.000000
O5_3 O 0.000000 0.565(3) 0.271(6)
O6_3 O 0.000000 0.672(2) 0.083(3)
U3_3 U -0.000000 0.42487(10) 0.12529(17)
O10_2 O 0.0499(17) 0.500000 0.121(2)
O12_3 O 0.000000 0.435(3) 0.271(6)
O13_3 O 0.000000 0.328(2) 0.083(3)
O14_2 O 0.1498(18) 0.5615(15) 0.105(2)
O15_2 O 0.0866(17) 0.6054(14) 0.179(2)
C17_3 C 0.1325(11) 0.5974(10) 0.1521(16)
C18_3 C 0.1737(9) 0.6363(10) 0.186(2)
C19_3 C 0.1644(9) 0.6786(12) 0.243(2)
H13_3 H 0.130228 0.683258 0.268815
C20_3 C 0.2052(13) 0.7142(10) 0.2627(17)
H14_3 H 0.198863 0.743071 0.301519
C21_3 C 0.2552(10) 0.7074(10) 0.225(2)
C22_3 C 0.2645(8) 0.6651(11) 0.1684(19)
C23_3 C 0.2237(11) 0.6295(9) 0.1490(18)
H15_3 H 0.230035 0.600620 0.110144
C24_3 C 0.3221(12) 0.6513(19) 0.141(3)
H16_3 H 0.346986 0.666000 0.184647
H17_3 H 0.326302 0.612537 0.138747
H18_3 H 0.329684 0.666639 0.083497
O17_3 O 0.3946(14) 0.9134(17) 0.321(2)
C25_3 C 0.4026(10) 0.8675(11) 0.3479(16)
C26_3 C 0.3637(10) 0.8263(9) 0.314(2)
C27_3 C 0.3214(12) 0.8356(9) 0.257(2)
H19_3 H 0.316742 0.869772 0.231185
C28_3 C 0.2858(10) 0.7948(13) 0.2373(17)
H20_3 H 0.256929 0.801137 0.198481
C29_3 C 0.2926(10) 0.7448(10) 0.275(2)
C30_3 C 0.3349(11) 0.7355(8) 0.3316(19)
C31_3 C 0.3705(9) 0.7763(11) 0.3510(18)
H21_3 H 0.399380 0.769965 0.389856
C32_3 C 0.3487(19) 0.6779(12) 0.359(3)
H22_3 H 0.334000 0.653014 0.315353
H23_3 H 0.387463 0.673698 0.361253
H24_3 H 0.333361 0.670316 0.416503
O19_2 O 0.0500(18) 0.4280(17) 0.000000
O24_2 O 0.0866(17) 0.3946(14) 0.179(2)
O2_3 O 0.0500(18) 0.5720(17) 1.000000
O19_3 O 0.0500(18) 0.4280(17) 1.000000
U2_4 U 1.000000 0.57513(10) 0.12529(17)
O1_2 O 0.9501(17) 0.500000 0.121(2)
O3_3 O 0.8502(18) 0.5615(15) 0.105(2)
O4_2 O 0.9134(17) 0.6054(14) 0.179(2)
O5_4 O 1.000000 0.565(3) 0.271(6)
O6_4 O 1.000000 0.672(2) 0.083(3)
O7_3 O 0.781(3) 0.500000 0.000000
C1_3 C 0.8675(11) 0.5974(10) 0.1521(16)
C2_3 C 0.8263(9) 0.6363(10) 0.186(2)
C3_3 C 0.8356(9) 0.6786(12) 0.243(2)
H1_3 H 0.869772 0.683258 0.268815
C4_3 C 0.7948(13) 0.7142(10) 0.2627(17)
H2_3 H 0.801137 0.743071 0.301519
C5_3 C 0.7448(10) 0.7074(10) 0.225(2)
C6_3 C 0.7355(8) 0.6651(11) 0.1684(19)
C7_3 C 0.7763(11) 0.6295(9) 0.1490(18)
H3_3 H 0.769965 0.600620 0.110144
C8_3 C 0.6779(12) 0.6513(19) 0.141(3)
H4_3 H 0.653014 0.666000 0.184647
H5_3 H 0.673698 0.612537 0.138747
H6_3 H 0.670316 0.666639 0.083497
O9_3 O 0.6054(14) 0.9134(17) 0.321(2)
C9_3 C 0.5974(10) 0.8675(11) 0.3479(16)
C10_3 C 0.6363(10) 0.8263(9) 0.314(2)
C11_3 C 0.6786(12) 0.8356(9) 0.257(2)
H7_3 H 0.683258 0.869772 0.231185
C12_3 C 0.7142(10) 0.7948(13) 0.2373(17)
H8_3 H 0.743071 0.801137 0.198481
C13_3 C 0.7074(10) 0.7448(10) 0.275(2)
C14_3 C 0.6651(11) 0.7355(8) 0.3316(19)
C15_3 C 0.6295(9) 0.7763(11) 0.3510(18)
H9_3 H 0.600620 0.769965 0.389856
C16_3 C 0.6513(19) 0.6779(12) 0.359(3)
H10_3 H 0.666000 0.653014 0.315353
H11_3 H 0.612537 0.673698 0.361253
H12_3 H 0.666639 0.670316 0.416503
U3_4 U 1.000000 0.42487(10) 0.12529(17)
O11_2 O 0.9500(18) 0.4280(17) 0.000000
O12_4 O 1.000000 0.435(3) 0.271(6)
O13_4 O 1.000000 0.328(2) 0.083(3)
O20_2 O 0.9500(18) 0.5720(17) 0.000000
O23_2 O 0.8502(18) 0.4385(15) 0.105(2)
O25_2 O 0.9134(17) 0.3946(14) 0.179(2)
O7_4 O 0.781(3) 0.500000 1.000000
O11_3 O 0.9500(18) 0.4280(17) 1.000000
O18_3 O 0.9501(17) 0.500000 0.879(2)
O20_3 O 0.9500(18) 0.5720(17) 1.000000
O3_4 O 0.1498(18) 0.4385(15) 0.105(2)
O7_5 O 0.219(3) 0.500000 0.000000
C1_4 C 0.1325(11) 0.4026(10) 0.1521(16)
C2_4 C 0.1737(9) 0.3637(10) 0.186(2)
C3_4 C 0.1644(9) 0.3214(12) 0.243(2)
H1_4 H 0.130228 0.316742 0.268815
C4_4 C 0.2052(13) 0.2858(10) 0.2627(17)
H2_4 H 0.198863 0.256929 0.301519
C5_4 C 0.2552(10) 0.2926(10) 0.225(2)
C6_4 C 0.2645(8) 0.3349(11) 0.1684(19)
C7_4 C 0.2237(11) 0.3705(9) 0.1490(18)
H3_4 H 0.230035 0.399380 0.110144
C8_4 C 0.3221(12) 0.3487(19) 0.141(3)
H4_4 H 0.346986 0.334000 0.184647
H5_4 H 0.326302 0.387463 0.138747
H6_4 H 0.329684 0.333361 0.083497
O9_4 O 0.3946(14) 0.0866(17) 0.321(2)
C9_4 C 0.4026(10) 0.1325(11) 0.3479(16)
C10_4 C 0.3637(10) 0.1737(9) 0.314(2)
C11_4 C 0.3214(12) 0.1644(9) 0.257(2)
H7_4 H 0.316742 0.130228 0.231185
C12_4 C 0.2858(10) 0.2052(13) 0.2373(17)
H8_4 H 0.256929 0.198863 0.198481
C13_4 C 0.2926(10) 0.2552(10) 0.275(2)
C14_4 C 0.3349(11) 0.2645(8) 0.3316(19)
C15_4 C 0.3705(9) 0.2237(11) 0.3510(18)
H9_4 H 0.399380 0.230035 0.389856
C16_4 C 0.3487(19) 0.3221(12) 0.359(3)
H10_4 H 0.334000 0.346986 0.315353
H11_4 H 0.387463 0.326302 0.361253
H12_4 H 0.333361 0.329684 0.416503
O7_6 O 0.219(3) 0.500000 1.000000
O18_4 O 0.0499(17) 0.500000 0.879(2)
C17_4 C 0.8675(11) 0.4026(10) 0.1521(16)
C18_4 C 0.8263(9) 0.3637(10) 0.186(2)
C19_4 C 0.8356(9) 0.3214(12) 0.243(2)
H13_4 H 0.869772 0.316742 0.268815
C20_4 C 0.7948(13) 0.2858(10) 0.2627(17)
H14_4 H 0.801137 0.256929 0.301519
C21_4 C 0.7448(10) 0.2926(10) 0.225(2)
C22_4 C 0.7355(8) 0.3349(11) 0.1684(19)
C23_4 C 0.7763(11) 0.3705(9) 0.1490(18)
H15_4 H 0.769965 0.399380 0.110144
C24_4 C 0.6779(12) 0.3487(19) 0.141(3)
H16_4 H 0.653014 0.334000 0.184647
H17_4 H 0.673698 0.387463 0.138747
H18_4 H 0.670316 0.333361 0.083497
O17_4 O 0.6054(14) 0.0866(17) 0.321(2)
C25_4 C 0.5974(10) 0.1325(11) 0.3479(16)
C26_4 C 0.6363(10) 0.1737(9) 0.314(2)
C27_4 C 0.6786(12) 0.1644(9) 0.257(2)
H19_4 H 0.683258 0.130228 0.231185
C28_4 C 0.7142(10) 0.2052(13) 0.2373(17)
H20_4 H 0.743071 0.198863 0.198481
C29_4 C 0.7074(10) 0.2552(10) 0.275(2)
C30_4 C 0.6651(11) 0.2645(8) 0.3316(19)
C31_4 C 0.6295(9) 0.2237(11) 0.3510(18)
H21_4 H 0.600620 0.230035 0.389856
C32_4 C 0.6513(19) 0.3221(12) 0.359(3)
H22_4 H 0.666000 0.346986 0.315353
H23_4 H 0.612537 0.326302 0.361253
H24_4 H 0.666639 0.329684 0.416503
O5_5 O 0.435(3) -0.000000 0.229(6)
O6_5 O 0.328(2) -0.000000 0.417(3)
O12_5 O 0.565(3) -0.000000 0.229(6)
O13_5 O 0.672(2) -0.000000 0.417(3)
O5_6 O 0.435(3) 1.000000 0.229(6)
O6_6 O 0.328(2) 1.000000 0.417(3)
O12_6 O 0.565(3) 1.000000 0.229(6)
O13_6 O 0.672(2) 1.000000 0.417(3)
O5_7 O -0.000000 0.565(3) 0.729(6)
O6_7 O 0.000000 0.672(2) 0.917(3)
O12_7 O -0.000000 0.435(3) 0.729(6)
O13_7 O -0.000000 0.328(2) 0.917(3)
O5_8 O 1.000000 0.565(3) 0.729(6)
O6_8 O 1.000000 0.672(2) 0.917(3)
O12_8 O 1.000000 0.435(3) 0.729(6)
O13_8 O 1.000000 0.328(2) 0.917(3)
loop_
_geom_bond_atom_site_label_1
_geom_bond_atom_site_label_2
_geom_bond_site_symmetry_1
_geom_bond_site_symmetry_2
U1 O1 1_555 1_555
U2 O1 1_555 1_555
O1 U3 1_555 1_555
O3 U1 1_555 1_555
O4 U2 1_555 1_555
O5 U2 1_555 1_555
O6 U2 1_555 1_555
O7 U1 1_555 1_555
C1 O3 1_555 1_555
C2 C1 1_555 1_555
C3 C2 1_555 1_555
H1 C3 1_555 1_555
C4 C3 1_555 1_555
H2 C4 1_555 1_555
C5 C4 1_555 1_555
C6 C5 1_555 1_555
C7 C2 1_555 1_555
H3 C7 1_555 1_555
C8 C6 1_555 1_555
H4 C8 1_555 1_555
H5 C8 1_555 1_555
H6 C8 1_555 1_555
O8 C9 1_555 1_555
O9 C9 1_555 1_555
C9 C10 1_555 1_555
C10 C11 1_555 1_555
C11 H7 1_555 1_555
C12 C11 1_555 1_555
H8 C12 1_555 1_555
C13 C5 1_555 1_555
C14 C13 1_555 1_555
C15 C10 1_555 1_555
H9 C15 1_555 1_555
C16 C14 1_555 1_555
H10 C16 1_555 1_555
H11 C16 1_555 1_555
H12 C16 1_555 1_555
O11 U1 1_555 1_555
O12 U3 1_555 1_555
O13 U3 1_555 1_555
U6_2 O8 1_555 1_555
U7 O11 1_555 1_555
U10_2 O9 1_555 1_555
O18 U1 1_555 1_555
O20 U1 1_555 1_555
O21 U1 1_555 1_555
O22 U1 1_555 1_555
O23 U1 1_555 1_555
O25 U3 1_555 1_555
U2 O20 1_555 1_555
O4 C1 1_555 1_555
C6 C7 1_555 1_555
C12 C13 1_555 1_555
C14 C15 1_555 1_555
U3 O11 1_555 1_555
U7 O18 1_555 1_555
U8 O18 1_555 1_555
U8 O20 1_555 1_555
O2 U2_2 1_555 1_555
O5_2 U2_2 1_555 1_555
O6_2 U2_2 1_555 1_555
U3_2 O10 1_555 1_555
O10 U2_2 1_555 1_555
O12_2 U3_2 1_555 1_555
O13_2 U3_2 1_555 1_555
O14 C17 1_555 1_555
O15 U2_2 1_555 1_555
C17 O15 1_555 1_555
C18 C17 1_555 1_555
C19 C18 1_555 1_555
H13 C19 1_555 1_555
C20 C19 1_555 1_555
H14 C20 1_555 1_555
C21 C20 1_555 1_555
C22 C21 1_555 1_555
C23 C18 1_555 1_555
H15 C23 1_555 1_555
C24 C22 1_555 1_555
H16 C24 1_555 1_555
H17 C24 1_555 1_555
H18 C24 1_555 1_555
O16 C25 1_555 1_555
O17 C25 1_555 1_555
C25 C26 1_555 1_555
C26 C27 1_555 1_555
C27 H19 1_555 1_555
C28 C27 1_555 1_555
H20 C28 1_555 1_555
C29 C21 1_555 1_555
C30 C29 1_555 1_555
C31 C26 1_555 1_555
H21 C31 1_555 1_555
C32 C30 1_555 1_555
H22 C32 1_555 1_555
H23 C32 1_555 1_555
H24 C32 1_555 1_555
U4 O2 1_555 1_555
U6_2 O16 1_555 1_555
U8_2 O2 1_555 1_555
U9_2 O17 1_555 1_555
O19 U3_2 1_555 1_555
O24 U3_2 1_555 1_555
O10 U4 1_555 1_555
O14 U4 1_555 1_555
C22 C23 1_555 1_555
C28 C29 1_555 1_555
C30 C31 1_555 1_555
U4 O19 1_555 1_555
U7_2 O19 1_555 1_555
O23 C17_2 1_555 1_555
C17_2 O25 1_555 1_555
C18_2 C17_2 1_555 1_555
C19_2 C18_2 1_555 1_555
H13_2 C19_2 1_555 1_555
C20_2 C19_2 1_555 1_555
H14_2 C20_2 1_555 1_555
C21_2 C20_2 1_555 1_555
C22_2 C21_2 1_555 1_555
C23_2 C18_2 1_555 1_555
H15_2 C23_2 1_555 1_555
C24_2 C22_2 1_555 1_555
H16_2 C24_2 1_555 1_555
H17_2 C24_2 1_555 1_555
H18_2 C24_2 1_555 1_555
O16_2 C25_2 1_555 1_555
O17_2 C25_2 1_555 1_555
C25_2 C26_2 1_555 1_555
C26_2 C27_2 1_555 1_555
C27_2 H19_2 1_555 1_555
C28_2 C27_2 1_555 1_555
H20_2 C28_2 1_555 1_555
C29_2 C21_2 1_555 1_555
C30_2 C29_2 1_555 1_555
C31_2 C26_2 1_555 1_555
H21_2 C31_2 1_555 1_555
C32_2 C30_2 1_555 1_555
H22_2 C32_2 1_555 1_555
H23_2 C32_2 1_555 1_555
H24_2 C32_2 1_555 1_555
U5_2 O16_2 1_555 1_555
U10 O17_2 1_555 1_555
C22_2 C23_2 1_555 1_555
C28_2 C29_2 1_555 1_555
C30_2 C31_2 1_555 1_555
O3_2 U4 1_555 1_555
O7_2 U4 1_555 1_555
C1_2 O3_2 1_555 1_555
C2_2 C1_2 1_555 1_555
C3_2 C2_2 1_555 1_555
H1_2 C3_2 1_555 1_555
C4_2 C3_2 1_555 1_555
H2_2 C4_2 1_555 1_555
C5_2 C4_2 1_555 1_555
C6_2 C5_2 1_555 1_555
C7_2 C2_2 1_555 1_555
H3_2 C7_2 1_555 1_555
C8_2 C6_2 1_555 1_555
H4_2 C8_2 1_555 1_555
H5_2 C8_2 1_555 1_555
H6_2 C8_2 1_555 1_555
O8_2 C9_2 1_555 1_555
O9_2 C9_2 1_555 1_555
C9_2 C10_2 1_555 1_555
C10_2 C11_2 1_555 1_555
C11_2 H7_2 1_555 1_555
C12_2 C11_2 1_555 1_555
H8_2 C12_2 1_555 1_555
C13_2 C5_2 1_555 1_555
C14_2 C13_2 1_555 1_555
C15_2 C10_2 1_555 1_555
H9_2 C15_2 1_555 1_555
C16_2 C14_2 1_555 1_555
H10_2 C16_2 1_555 1_555
H11_2 C16_2 1_555 1_555
H12_2 C16_2 1_555 1_555
U5_2 O8_2 1_555 1_555
U9 O9_2 1_555 1_555
O18_2 U4 1_555 1_555
O21_2 U4 1_555 1_555
O22_2 U4 1_555 1_555
O24 C1_2 1_555 1_555
C6_2 C7_2 1_555 1_555
C12_2 C13_2 1_555 1_555
C14_2 C15_2 1_555 1_555
U8_2 O18_2 1_555 1_555
U7_2 O18_2 1_555 1_555
O2_2 U2_3 1_555 1_555
O5_3 U2_3 1_555 1_555
O6_3 U2_3 1_555 1_555
U3_3 O10_2 1_555 1_555
O10_2 U2_3 1_555 1_555
O12_3 U3_3 1_555 1_555
O13_3 U3_3 1_555 1_555
O14_2 C17_3 1_555 1_555
O15_2 U2_3 1_555 1_555
C17_3 O15_2 1_555 1_555
C18_3 C17_3 1_555 1_555
C19_3 C18_3 1_555 1_555
H13_3 C19_3 1_555 1_555
C20_3 C19_3 1_555 1_555
H14_3 C20_3 1_555 1_555
C21_3 C20_3 1_555 1_555
C22_3 C21_3 1_555 1_555
C23_3 C18_3 1_555 1_555
H15_3 C23_3 1_555 1_555
C24_3 C22_3 1_555 1_555
H16_3 C24_3 1_555 1_555
H17_3 C24_3 1_555 1_555
H18_3 C24_3 1_555 1_555
O22_2 C25_3 1_555 1_555
O17_3 C25_3 1_555 1_555
C25_3 C26_3 1_555 1_555
C26_3 C27_3 1_555 1_555
C27_3 H19_3 1_555 1_555
C28_3 C27_3 1_555 1_555
H20_3 C28_3 1_555 1_555
C29_3 C21_3 1_555 1_555
C30_3 C29_3 1_555 1_555
C31_3 C26_3 1_555 1_555
H21_3 C31_3 1_555 1_555
C32_3 C30_3 1_555 1_555
H22_3 C32_3 1_555 1_555
H23_3 C32_3 1_555 1_555
H24_3 C32_3 1_555 1_555
U5 O2_2 1_555 1_555
U7_2 O17_3 1_555 1_555
O19_2 U3_3 1_555 1_555
O24_2 U3_3 1_555 1_555
O10_2 U5 1_555 1_555
O14_2 U5 1_555 1_555
C22_3 C23_3 1_555 1_555
C28_3 C29_3 1_555 1_555
C30_3 C31_3 1_555 1_555
U5 O19_2 1_555 1_555
U5_2 O2_3 1_555 1_555
U9 O2_3 1_555 1_555
U5_2 O19_3 1_555 1_555
U10 O19_3 1_555 1_555
U6 O1_2 1_555 1_555
U2_4 O1_2 1_555 1_555
O1_2 U3_4 1_555 1_555
O3_3 U6 1_555 1_555
O4_2 U2_4 1_555 1_555
O5_4 U2_4 1_555 1_555
O6_4 U2_4 1_555 1_555
O7_3 U6 1_555 1_555
C1_3 O3_3 1_555 1_555
C2_3 C1_3 1_555 1_555
C3_3 C2_3 1_555 1_555
H1_3 C3_3 1_555 1_555
C4_3 C3_3 1_555 1_555
H2_3 C4_3 1_555 1_555
C5_3 C4_3 1_555 1_555
C6_3 C5_3 1_555 1_555
C7_3 C2_3 1_555 1_555
H3_3 C7_3 1_555 1_555
C8_3 C6_3 1_555 1_555
H4_3 C8_3 1_555 1_555
H5_3 C8_3 1_555 1_555
H6_3 C8_3 1_555 1_555
O21_2 C9_3 1_555 1_555
O9_3 C9_3 1_555 1_555
C9_3 C10_3 1_555 1_555
C10_3 C11_3 1_555 1_555
C11_3 H7_3 1_555 1_555
C12_3 C11_3 1_555 1_555
H8_3 C12_3 1_555 1_555
C13_3 C5_3 1_555 1_555
C14_3 C13_3 1_555 1_555
C15_3 C10_3 1_555 1_555
H9_3 C15_3 1_555 1_555
C16_3 C14_3 1_555 1_555
H10_3 C16_3 1_555 1_555
H11_3 C16_3 1_555 1_555
H12_3 C16_3 1_555 1_555
O11_2 U6 1_555 1_555
O12_4 U3_4 1_555 1_555
O13_4 U3_4 1_555 1_555
U8_2 O9_3 1_555 1_555
O20_2 U6 1_555 1_555
O23_2 U6 1_555 1_555
O25_2 U3_4 1_555 1_555
U2_4 O20_2 1_555 1_555
O4_2 C1_3 1_555 1_555
C6_3 C7_3 1_555 1_555
C12_3 C13_3 1_555 1_555
C14_3 C15_3 1_555 1_555
U3_4 O11_2 1_555 1_555
O7_4 U6_2 1_555 1_555
O11_3 U6_2 1_555 1_555
U10_2 O11_3 1_555 1_555
O18_3 U6_2 1_555 1_555
O20_3 U6_2 1_555 1_555
U10_2 O18_3 1_555 1_555
U9_2 O18_3 1_555 1_555
U9_2 O20_3 1_555 1_555
O3_4 U5 1_555 1_555
O7_5 U5 1_555 1_555
C1_4 O3_4 1_555 1_555
C2_4 C1_4 1_555 1_555
C3_4 C2_4 1_555 1_555
H1_4 C3_4 1_555 1_555
C4_4 C3_4 1_555 1_555
H2_4 C4_4 1_555 1_555
C5_4 C4_4 1_555 1_555
C6_4 C5_4 1_555 1_555
C7_4 C2_4 1_555 1_555
H3_4 C7_4 1_555 1_555
C8_4 C6_4 1_555 1_555
H4_4 C8_4 1_555 1_555
H5_4 C8_4 1_555 1_555
H6_4 C8_4 1_555 1_555
O21 C9_4 1_555 1_555
O9_4 C9_4 1_555 1_555
C9_4 C10_4 1_555 1_555
C10_4 C11_4 1_555 1_555
C11_4 H7_4 1_555 1_555
C12_4 C11_4 1_555 1_555
H8_4 C12_4 1_555 1_555
C13_4 C5_4 1_555 1_555
C14_4 C13_4 1_555 1_555
C15_4 C10_4 1_555 1_555
H9_4 C15_4 1_555 1_555
C16_4 C14_4 1_555 1_555
H10_4 C16_4 1_555 1_555
H11_4 C16_4 1_555 1_555
H12_4 C16_4 1_555 1_555
U7 O9_4 1_555 1_555
O24_2 C1_4 1_555 1_555
C6_4 C7_4 1_555 1_555
C12_4 C13_4 1_555 1_555
C14_4 C15_4 1_555 1_555
O7_6 U5_2 1_555 1_555
O18_4 U5_2 1_555 1_555
U9 O18_4 1_555 1_555
U10 O18_4 1_555 1_555
O23_2 C17_4 1_555 1_555
C17_4 O25_2 1_555 1_555
C18_4 C17_4 1_555 1_555
C19_4 C18_4 1_555 1_555
H13_4 C19_4 1_555 1_555
C20_4 C19_4 1_555 1_555
H14_4 C20_4 1_555 1_555
C21_4 C20_4 1_555 1_555
C22_4 C21_4 1_555 1_555
C23_4 C18_4 1_555 1_555
H15_4 C23_4 1_555 1_555
C24_4 C22_4 1_555 1_555
H16_4 C24_4 1_555 1_555
H17_4 C24_4 1_555 1_555
H18_4 C24_4 1_555 1_555
O22 C25_4 1_555 1_555
O17_4 C25_4 1_555 1_555
C25_4 C26_4 1_555 1_555
C26_4 C27_4 1_555 1_555
C27_4 H19_4 1_555 1_555
C28_4 C27_4 1_555 1_555
H20_4 C28_4 1_555 1_555
C29_4 C21_4 1_555 1_555
C30_4 C29_4 1_555 1_555
C31_4 C26_4 1_555 1_555
H21_4 C31_4 1_555 1_555
C32_4 C30_4 1_555 1_555
H22_4 C32_4 1_555 1_555
H23_4 C32_4 1_555 1_555
H24_4 C32_4 1_555 1_555
U8 O17_4 1_555 1_555
C22_4 C23_4 1_555 1_555
C28_4 C29_4 1_555 1_555
C30_4 C31_4 1_555 1_555
O5_5 U7 1_555 1_555
O6_5 U7 1_555 1_555
O12_5 U8 1_555 1_555
O13_5 U8 1_555 1_555
O5_6 U7_2 1_555 1_555
O6_6 U7_2 1_555 1_555
O12_6 U8_2 1_555 1_555
O13_6 U8_2 1_555 1_555
O5_7 U9 1_555 1_555
O6_7 U9 1_555 1_555
O12_7 U10 1_555 1_555
O13_7 U10 1_555 1_555
O5_8 U9_2 1_555 1_555
O6_8 U9_2 1_555 1_555
O12_8 U10_2 1_555 1_555
O13_8 U10_2 1_555 1_555

#END
