
###############################################################################
#
# This file contains modified crystal structure data generated from the
# MOF subset of the Cambridge Structural Database (CSD) v543 
# hosted by the Cambridge Crystallographic Data Centre (CCDC).
#
# This work is licensed under the Creative Commons
# Attribution-NonCommercial-ShareAlike 4.0 International License.
# To view a copy of this license, visit
# http://creativecommons.org/licenses/by-nc-sa/4.0/
# or send a letter to
# Creative Commons, PO Box 1866, Mountain View, CA 94042, USA.
#
# CIF created using the CSD Python API on 29 September 2022
# The structure has been converted into the P1 space group
# The structure has a 3D framework
# The original CSD entry WOGTAQ is in the orthorhombic crystal system
# The framework has been calculated to contain at least 10.0% void space
# The void calculation uses a probe of radius 1.32A, grid spacing 0.4
#
###############################################################################

data_WOGTAQ
_chemical_formula_moiety         '(C336 H240 N32 O76 Zn16)n'
_symmetry_cell_setting           triclinic
_symmetry_space_group_name_H-M   'P 1'
_symmetry_Int_Tables_number      1
_space_group_name_Hall           'P 1'
loop_
_symmetry_equiv_pos_site_id
_symmetry_equiv_pos_as_xyz
1 x,y,z
_cell_length_a                   17.6350(15)
_cell_length_b                   22.345(2)
_cell_length_c                   22.944(2)
_cell_angle_alpha                90
_cell_angle_beta                 90
_cell_angle_gamma                90
_cell_volume                     9041.18
loop_
_atom_site_label
_atom_site_type_symbol
_atom_site_fract_x
_atom_site_fract_y
_atom_site_fract_z
Zn1 Zn 0.05591(2) 0.00521(2) 0.04800(2)
N1 N 0.39928(12) 0.02595(14) 0.19401(10)
H1 H 0.404604 0.006968 0.163702
N2 N 0.14238(11) 0.00874(9) 0.10603(9)
C6 C 0.26522(12) 0.00965(11) 0.18367(10)
C8 C 0.33238(13) 0.00848(12) 0.22128(10)
C14 C 0.25915(17) 0.05061(15) 0.13872(13)
H7 H 0.296331 0.079685 0.133801
C20 C 0.19808(18) 0.04847(15) 0.10115(14)
H13 H 0.195814 0.076183 0.070954
C21 C 0.46644(19) 0.0261(3) 0.22958(15)
H14 H 0.468741 0.062974 0.251767
H15 H 0.510946 0.024196 0.204812
C24 C 0.14838(13) 0.03200(10) 0.35119(10)
H17 H 0.110859 0.061034 0.347764
C25 C 0.20791(13) 0.03261(10) 0.31203(10)
H18 H 0.209539 0.061389 0.282777
O12 O 0.10726(13) 0.04479(10) 0.51561(9)
O15 O 0.00274(11) 0.07043(8) 0.42497(8)
O14 O 0.07898(10) 0.07889(8) 0.99901(8)
C11 C 0.14838(13) 0.96800(10) 0.14881(10)
H5 H 0.110859 0.938966 0.152236
C13 C 0.20791(13) 0.96739(10) 0.18797(10)
H6 H 0.209539 0.938611 0.217223
N3 N 0.39928(12) 0.97405(14) 0.30599(10)
H16 H 0.404604 0.993032 0.336298
N4 N 0.14238(11) 0.99126(9) 0.39397(9)
C22 C 0.26522(12) 0.99035(11) 0.31633(10)
C23 C 0.33238(13) 0.99152(12) 0.27872(10)
C26 C 0.25915(17) 0.94939(15) 0.36128(13)
H19 H 0.296331 0.920315 0.366199
C27 C 0.19808(18) 0.95153(15) 0.39885(14)
H20 H 0.195814 0.923817 0.429046
C28 C 0.46644(19) 0.9739(3) 0.27042(15)
H21 H 0.468741 0.937026 0.248233
H22 H 0.510946 0.975804 0.295188
Zn2 Zn 0.05591(2) 0.99479(2) 0.45200(2)
O13 O 0.07898(10) 0.92111(8) 0.50099(8)
O16 O 0.00274(11) 0.92957(8) 0.07503(8)
O11 O 0.10726(13) 0.95521(10) 0.98439(9)
O1 O 0.70305(13) 0.22130(10) 0.17206(9)
O2 O 0.97331(12) 0.05296(10) 0.08994(9)
C1 C 0.56196(14) 0.33191(11) 0.13204(11)
H2 H 0.517573 0.347776 0.147534
C2 C 0.85612(16) 0.10402(11) 0.09531(11)
C3 C 0.65687(15) 0.33012(11) 0.05701(11)
H3 H 0.675648 0.344381 0.021765
O3 O 0.89274(13) 0.04479(10) 0.01561(9)
C4 C 0.55237(13) 0.40547(10) 0.04936(10)
O4 O 0.57898(10) 0.42111(8) 0.00099(8)
C5 C 0.66644(16) 0.26405(12) 0.13864(11)
O5 O 0.49726(11) 0.42957(8) 0.07503(8)
C7 C 0.59016(13) 0.35405(10) 0.07958(10)
C9 C 0.59952(16) 0.28635(12) 0.16141(11)
H4 H 0.579930 0.271029 0.195961
C10 C 0.75388(17) 0.18264(12) 0.14475(11)
C12 C 0.91143(17) 0.06404(12) 0.06473(12)
C15 C 0.87482(15) 0.13528(12) 0.14532(12)
H8 H 0.922206 0.129749 0.162263
C16 C 0.69557(16) 0.28553(13) 0.08618(12)
H9 H 0.740393 0.270049 0.071058
C17 C 0.78447(19) 0.11163(14) 0.07200(13)
H10 H 0.770565 0.089727 0.039231
C18 C 0.82385(17) 0.17471(12) 0.17044(12)
H11 H 0.836607 0.195525 0.204144
C19 C 0.73327(19) 0.15090(15) 0.09624(14)
H12 H 0.685405 0.155800 0.079906
Zn6 Zn 0.94409(2) 0.00521(2) 0.54800(2)
Zn8 Zn 0.44409(2) 0.50521(2) 0.04800(2)
Zn4 Zn 0.55591(2) 0.49479(2) 0.95200(2)
O6 O 0.70305(13) 0.77870(10) 0.32794(9)
O7 O 0.97331(12) 0.94704(10) 0.41006(9)
C29 C 0.56196(14) 0.66809(11) 0.36796(11)
H23 H 0.517573 0.652224 0.352466
C30 C 0.85612(16) 0.89598(11) 0.40469(11)
C31 C 0.65687(15) 0.66988(11) 0.44299(11)
H24 H 0.675648 0.655619 0.478235
O8 O 0.89274(13) 0.95521(10) 0.48439(9)
C32 C 0.55237(13) 0.59453(10) 0.45064(10)
O9 O 0.57898(10) 0.57889(8) 0.49901(8)
C33 C 0.66644(16) 0.73595(12) 0.36136(11)
O10 O 0.49726(11) 0.57043(8) 0.42497(8)
C34 C 0.59016(13) 0.64595(10) 0.42042(10)
C35 C 0.59952(16) 0.71365(12) 0.33859(11)
H25 H 0.579930 0.728971 0.304039
C36 C 0.75388(17) 0.81736(12) 0.35525(11)
C37 C 0.91143(17) 0.93596(12) 0.43527(12)
C38 C 0.87482(15) 0.86472(12) 0.35468(12)
H26 H 0.922206 0.870251 0.337737
C39 C 0.69557(16) 0.71447(13) 0.41382(12)
H27 H 0.740393 0.729951 0.428942
C40 C 0.78447(19) 0.88837(14) 0.42800(13)
H28 H 0.770565 0.910273 0.460769
C41 C 0.82385(17) 0.82529(12) 0.32956(12)
H29 H 0.836607 0.804475 0.295856
C42 C 0.73327(19) 0.84910(15) 0.40376(14)
H30 H 0.685405 0.844200 0.420094
Zn3 Zn 0.55591(2) 0.50521(2) 0.54800(2)
Zn7 Zn 0.44409(2) 0.49479(2) 0.45200(2)
Zn5 Zn 0.94409(2) 0.99479(2) 0.95200(2)
O12_2 O 0.60726(13) 0.54479(10) 0.01561(9)
O1_2 O 0.20305(13) 0.72130(10) 0.67206(9)
N1_2 N 0.89928(12) 0.52595(14) 0.69401(10)
H1_2 H 0.904604 0.506968 0.663702
O2_2 O 0.47331(12) 0.55296(10) 0.58994(9)
C1_2 C 0.06196(14) 0.83191(11) 0.63204(11)
H2_2 H 0.017573 0.847776 0.647534
C2_2 C 0.35612(16) 0.60402(11) 0.59531(11)
C3_2 C 0.15687(15) 0.83012(11) 0.55701(11)
H3_2 H 0.175648 0.844381 0.521765
O3_2 O 0.39274(13) 0.54479(10) 0.51561(9)
C4_2 C 0.05237(13) 0.90547(10) 0.54936(10)
N2_2 N 0.64238(11) 0.50874(9) 0.60603(9)
C5_2 C 0.16644(16) 0.76405(12) 0.63864(11)
C6_2 C 0.76522(12) 0.50965(11) 0.68367(10)
C7_2 C 0.09016(13) 0.85405(10) 0.57958(10)
C8_2 C 0.83238(13) 0.50848(12) 0.72128(10)
C9_2 C 0.09952(16) 0.78635(12) 0.66141(11)
H4_2 H 0.079930 0.771029 0.695961
C10_2 C 0.25388(17) 0.68264(12) 0.64475(11)
C11_2 C 0.64838(13) 0.46800(10) 0.64881(10)
H5_2 H 0.610859 0.438966 0.652236
C12_2 C 0.41143(17) 0.56404(12) 0.56473(12)
C13_2 C 0.70791(13) 0.46739(10) 0.68797(10)
H6_2 H 0.709539 0.438611 0.717223
C14_2 C 0.75915(17) 0.55061(15) 0.63872(13)
H7_2 H 0.796331 0.579685 0.633801
C15_2 C 0.37482(15) 0.63528(12) 0.64532(12)
H8_2 H 0.422206 0.629749 0.662263
C16_2 C 0.19557(16) 0.78553(13) 0.58618(12)
H9_2 H 0.240393 0.770049 0.571058
C17_2 C 0.28447(19) 0.61163(14) 0.57200(13)
H10_2 H 0.270565 0.589727 0.539231
C18_2 C 0.32385(17) 0.67471(12) 0.67044(12)
H11_2 H 0.336607 0.695525 0.704144
C19_2 C 0.23327(19) 0.65090(15) 0.59624(14)
H12_2 H 0.185405 0.655800 0.579906
C20_2 C 0.69808(18) 0.54847(15) 0.60115(14)
H13_2 H 0.695814 0.576183 0.570954
C21_2 C 0.96644(19) 0.5261(3) 0.72958(15)
H14_2 H 0.968741 0.562974 0.751767
N3_2 N 0.89928(12) 0.47405(14) 0.80599(10)
H16_2 H 0.904604 0.493032 0.836298
N4_2 N 0.64238(11) 0.49126(9) 0.89397(9)
C22_2 C 0.76522(12) 0.49035(11) 0.81633(10)
C23_2 C 0.83238(13) 0.49152(12) 0.77872(10)
C24_2 C 0.64838(13) 0.53200(10) 0.85119(10)
H17_2 H 0.610859 0.561034 0.847764
C25_2 C 0.70791(13) 0.53261(10) 0.81203(10)
H18_2 H 0.709539 0.561389 0.782777
C26_2 C 0.75915(17) 0.44939(15) 0.86128(13)
H19_2 H 0.796331 0.420315 0.866199
C27_2 C 0.69808(18) 0.45153(15) 0.89885(14)
H20_2 H 0.695814 0.423817 0.929046
C28_2 C 0.96644(19) 0.4739(3) 0.77042(15)
H21_2 H 0.968741 0.437026 0.748233
O6_2 O 0.20305(13) 0.27870(10) 0.82794(9)
O7_2 O 0.47331(12) 0.44704(10) 0.91006(9)
C29_2 C 0.06196(14) 0.16809(11) 0.86796(11)
H23_2 H 0.017573 0.152224 0.852466
C30_2 C 0.35612(16) 0.39598(11) 0.90469(11)
C31_2 C 0.15687(15) 0.16988(11) 0.94299(11)
H24_2 H 0.175648 0.155619 0.978235
O8_2 O 0.39274(13) 0.45521(10) 0.98439(9)
C32_2 C 0.05237(13) 0.09453(10) 0.95064(10)
C33_2 C 0.16644(16) 0.23595(12) 0.86136(11)
C34_2 C 0.09016(13) 0.14595(10) 0.92042(10)
C35_2 C 0.09952(16) 0.21365(12) 0.83859(11)
H25_2 H 0.079930 0.228971 0.804039
C36_2 C 0.25388(17) 0.31736(12) 0.85525(11)
C37_2 C 0.41143(17) 0.43596(12) 0.93527(12)
C38_2 C 0.37482(15) 0.36472(12) 0.85468(12)
H26_2 H 0.422206 0.370251 0.837737
C39_2 C 0.19557(16) 0.21447(13) 0.91382(12)
H27_2 H 0.240393 0.229951 0.928942
C40_2 C 0.28447(19) 0.38837(14) 0.92800(13)
H28_2 H 0.270565 0.410273 0.960769
C41_2 C 0.32385(17) 0.32529(12) 0.82956(12)
H29_2 H 0.336607 0.304475 0.795856
C42_2 C 0.23327(19) 0.34910(15) 0.90376(14)
H30_2 H 0.185405 0.344200 0.920094
O11_2 O 0.60726(13) 0.45521(10) 0.48439(9)
O15_2 O 0.50274(11) 0.57043(8) 0.92497(8)
O16_2 O 0.50274(11) 0.42957(8) 0.57503(8)
O5_2 O 0.99726(11) 0.92957(8) 0.57503(8)
O10_2 O 0.99726(11) 0.07043(8) 0.92497(8)
O6_3 O 0.29695(13) 0.22130(10) 0.67206(9)
O7_3 O 0.02669(12) 0.05296(10) 0.58994(9)
C29_3 C 0.43804(14) 0.33191(11) 0.63204(11)
H23_3 H 0.482427 0.347776 0.647534
C30_3 C 0.14388(16) 0.10402(11) 0.59531(11)
C31_3 C 0.34313(15) 0.33012(11) 0.55701(11)
H24_3 H 0.324352 0.344381 0.521765
C32_3 C 0.44763(13) 0.40547(10) 0.54936(10)
O9_2 O 0.42102(10) 0.42111(8) 0.50099(8)
C33_3 C 0.33356(16) 0.26405(12) 0.63864(11)
C34_3 C 0.40984(13) 0.35405(10) 0.57958(10)
C35_3 C 0.40048(16) 0.28635(12) 0.66141(11)
H25_3 H 0.420070 0.271029 0.695961
C36_3 C 0.24612(17) 0.18264(12) 0.64475(11)
C37_3 C 0.08857(17) 0.06404(12) 0.56473(12)
C38_3 C 0.12518(15) 0.13528(12) 0.64532(12)
H26_3 H 0.077794 0.129749 0.662263
C39_3 C 0.30443(16) 0.28553(13) 0.58618(12)
H27_3 H 0.259607 0.270049 0.571058
C40_3 C 0.21553(19) 0.11163(14) 0.57200(13)
H28_3 H 0.229435 0.089727 0.539231
C41_3 C 0.17615(17) 0.17471(12) 0.67044(12)
H29_3 H 0.163393 0.195525 0.704144
C42_3 C 0.26673(19) 0.15090(15) 0.59624(14)
H30_3 H 0.314595 0.155800 0.579906
O1_3 O 0.29695(13) 0.77870(10) 0.82794(9)
O2_3 O 0.02669(12) 0.94704(10) 0.91006(9)
C1_3 C 0.43804(14) 0.66809(11) 0.86796(11)
H2_3 H 0.482427 0.652224 0.852466
C2_3 C 0.14388(16) 0.89598(11) 0.90469(11)
C3_3 C 0.34313(15) 0.66988(11) 0.94299(11)
H3_3 H 0.324352 0.655619 0.978235
C4_3 C 0.44763(13) 0.59453(10) 0.95064(10)
O4_2 O 0.42102(10) 0.57889(8) 0.99901(8)
C5_3 C 0.33356(16) 0.73595(12) 0.86136(11)
C7_3 C 0.40984(13) 0.64595(10) 0.92042(10)
C9_3 C 0.40048(16) 0.71365(12) 0.83859(11)
H4_3 H 0.420070 0.728971 0.804039
C10_3 C 0.24612(17) 0.81736(12) 0.85525(11)
C12_3 C 0.08857(17) 0.93596(12) 0.93527(12)
C15_3 C 0.12518(15) 0.86472(12) 0.85468(12)
H8_3 H 0.077794 0.870251 0.837737
C16_3 C 0.30443(16) 0.71447(13) 0.91382(12)
H9_3 H 0.259607 0.729951 0.928942
C17_3 C 0.21553(19) 0.88837(14) 0.92800(13)
H10_3 H 0.229435 0.910273 0.960769
C18_3 C 0.17615(17) 0.82529(12) 0.82956(12)
H11_3 H 0.163393 0.804475 0.795856
C19_3 C 0.26673(19) 0.84910(15) 0.90376(14)
H12_3 H 0.314595 0.844200 0.920094
C11_3 C 0.85162(13) 0.03200(10) 0.85119(10)
H5_3 H 0.889141 0.061034 0.847764
C13_3 C 0.79209(13) 0.03261(10) 0.81203(10)
H6_3 H 0.790461 0.061389 0.782777
N3_3 N 0.60072(12) 0.02595(14) 0.69401(10)
H16_3 H 0.595396 0.006968 0.663702
N4_3 N 0.85762(11) 0.00874(9) 0.60603(9)
C22_3 C 0.73478(12) 0.00965(11) 0.68367(10)
C23_3 C 0.66762(13) 0.00848(12) 0.72128(10)
C26_3 C 0.74085(17) 0.05061(15) 0.63872(13)
H19_3 H 0.703669 0.079685 0.633801
C27_3 C 0.80192(18) 0.04847(15) 0.60115(14)
H20_3 H 0.804186 0.076183 0.570954
C28_3 C 0.53356(19) 0.0261(3) 0.72958(15)
H21_3 H 0.531259 0.062974 0.751767
H22_2 H 0.489054 0.024196 0.704812
O13_2 O 0.92102(10) 0.07889(8) 0.49901(8)
O14_2 O 0.92102(10) 0.92111(8) 0.00099(8)
N1_3 N 0.60072(12) 0.97405(14) 0.80599(10)
H1_3 H 0.595396 0.993032 0.836298
N2_3 N 0.85762(11) 0.99126(9) 0.89397(9)
C6_3 C 0.73478(12) 0.99035(11) 0.81633(10)
C8_3 C 0.66762(13) 0.99152(12) 0.77872(10)
C14_3 C 0.74085(17) 0.94939(15) 0.86128(13)
H7_3 H 0.703669 0.920315 0.866199
C20_3 C 0.80192(18) 0.95153(15) 0.89885(14)
H13_3 H 0.804186 0.923817 0.929046
C21_3 C 0.53356(19) 0.9739(3) 0.77042(15)
H14_3 H 0.531259 0.937026 0.748233
H15_2 H 0.489054 0.975804 0.795188
C24_3 C 0.85162(13) 0.96800(10) 0.64881(10)
H17_3 H 0.889141 0.938966 0.652236
C25_3 C 0.79209(13) 0.96739(10) 0.68797(10)
H18_3 H 0.790461 0.938611 0.717223
O1_4 O 0.79695(13) 0.27870(10) 0.32794(9)
N1_4 N 0.10072(12) 0.47405(14) 0.30599(10)
H1_4 H 0.095396 0.493032 0.336298
O2_4 O 0.52669(12) 0.44704(10) 0.41006(9)
C1_4 C 0.93804(14) 0.16809(11) 0.36796(11)
H2_4 H 0.982427 0.152224 0.352466
C2_4 C 0.64388(16) 0.39598(11) 0.40469(11)
C3_4 C 0.84313(15) 0.16988(11) 0.44299(11)
H3_4 H 0.824352 0.155619 0.478235
C4_4 C 0.94763(13) 0.09453(10) 0.45064(10)
N2_4 N 0.35762(11) 0.49126(9) 0.39397(9)
C5_4 C 0.83356(16) 0.23595(12) 0.36136(11)
C6_4 C 0.23478(12) 0.49035(11) 0.31633(10)
C7_4 C 0.90984(13) 0.14595(10) 0.42042(10)
C8_4 C 0.16762(13) 0.49152(12) 0.27872(10)
C9_4 C 0.90048(16) 0.21365(12) 0.33859(11)
H4_4 H 0.920070 0.228971 0.304039
C10_4 C 0.74612(17) 0.31736(12) 0.35525(11)
C11_4 C 0.35162(13) 0.53200(10) 0.35119(10)
H5_4 H 0.389141 0.561034 0.347764
C12_4 C 0.58857(17) 0.43596(12) 0.43527(12)
C13_4 C 0.29209(13) 0.53261(10) 0.31203(10)
H6_4 H 0.290461 0.561389 0.282777
C14_4 C 0.24085(17) 0.44939(15) 0.36128(13)
H7_4 H 0.203669 0.420315 0.366199
C15_4 C 0.62518(15) 0.36472(12) 0.35468(12)
H8_4 H 0.577794 0.370251 0.337737
C16_4 C 0.80443(16) 0.21447(13) 0.41382(12)
H9_4 H 0.759607 0.229951 0.428942
C17_4 C 0.71553(19) 0.38837(14) 0.42800(13)
H10_4 H 0.729435 0.410273 0.460769
C18_4 C 0.67615(17) 0.32529(12) 0.32956(12)
H11_4 H 0.663393 0.304475 0.295856
C19_4 C 0.76673(19) 0.34910(15) 0.40376(14)
H12_4 H 0.814595 0.344200 0.420094
C20_4 C 0.30192(18) 0.45153(15) 0.39885(14)
H13_4 H 0.304186 0.423817 0.429046
C21_4 C 0.03356(19) 0.4739(3) 0.27042(15)
H14_4 H 0.031259 0.437026 0.248233
N3_4 N 0.10072(12) 0.52595(14) 0.19401(10)
H16_4 H 0.095396 0.506968 0.163702
N4_4 N 0.35762(11) 0.50874(9) 0.10603(9)
C22_4 C 0.23478(12) 0.50965(11) 0.18367(10)
C23_4 C 0.16762(13) 0.50848(12) 0.22128(10)
C24_4 C 0.35162(13) 0.46800(10) 0.14881(10)
H17_4 H 0.389141 0.438966 0.152236
C25_4 C 0.29209(13) 0.46739(10) 0.18797(10)
H18_4 H 0.290461 0.438611 0.217223
C26_4 C 0.24085(17) 0.55061(15) 0.13872(13)
H19_4 H 0.203669 0.579685 0.133801
C27_4 C 0.30192(18) 0.54847(15) 0.10115(14)
H20_4 H 0.304186 0.576183 0.070954
C28_4 C 0.03356(19) 0.5261(3) 0.22958(15)
H21_4 H 0.031259 0.562974 0.251767
O6_4 O 0.79695(13) 0.72130(10) 0.17206(9)
O7_4 O 0.52669(12) 0.55296(10) 0.08994(9)
C29_4 C 0.93804(14) 0.83191(11) 0.13204(11)
H23_4 H 0.982427 0.847776 0.147534
C30_4 C 0.64388(16) 0.60402(11) 0.09531(11)
C31_4 C 0.84313(15) 0.83012(11) 0.05701(11)
H24_4 H 0.824352 0.844381 0.021765
C32_4 C 0.94763(13) 0.90547(10) 0.04936(10)
C33_4 C 0.83356(16) 0.76405(12) 0.13864(11)
C34_4 C 0.90984(13) 0.85405(10) 0.07958(10)
C35_4 C 0.90048(16) 0.78635(12) 0.16141(11)
H25_4 H 0.920070 0.771029 0.195961
C36_4 C 0.74612(17) 0.68264(12) 0.14475(11)
C37_4 C 0.58857(17) 0.56404(12) 0.06473(12)
C38_4 C 0.62518(15) 0.63528(12) 0.14532(12)
H26_4 H 0.577794 0.629749 0.162263
C39_4 C 0.80443(16) 0.78553(13) 0.08618(12)
H27_4 H 0.759607 0.770049 0.071058
C40_4 C 0.71553(19) 0.61163(14) 0.07200(13)
H28_4 H 0.729435 0.589727 0.039231
C41_4 C 0.67615(17) 0.67471(12) 0.17044(12)
H29_4 H 0.663393 0.695525 0.204144
C42_4 C 0.76673(19) 0.65090(15) 0.09624(14)
H30_4 H 0.814595 0.655800 0.079906
Zn7_2 Zn 0.55591(2) 0.00521(2) 0.45200(2)
O1_5 O 0.29695(13) 0.27870(10) 0.17206(9)
O2_5 O 0.02669(12) 0.44704(10) 0.08994(9)
C1_5 C 0.43804(14) 0.16809(11) 0.13204(11)
H2_5 H 0.482427 0.152224 0.147534
C2_5 C 0.14388(16) 0.39598(11) 0.09531(11)
C3_5 C 0.34313(15) 0.16988(11) 0.05701(11)
H3_5 H 0.324352 0.155619 0.021765
O3_3 O 0.10726(13) 0.45521(10) 0.01561(9)
C4_5 C 0.44763(13) 0.09453(10) 0.04936(10)
O4_3 O 0.42102(10) 0.07889(8) 0.00099(8)
C5_5 C 0.33356(16) 0.23595(12) 0.13864(11)
O5_3 O 0.50274(11) 0.07043(8) 0.07503(8)
C7_5 C 0.40984(13) 0.14595(10) 0.07958(10)
C9_5 C 0.40048(16) 0.21365(12) 0.16141(11)
H4_5 H 0.420070 0.228971 0.195961
C10_5 C 0.24612(17) 0.31736(12) 0.14475(11)
C12_5 C 0.08857(17) 0.43596(12) 0.06473(12)
C15_5 C 0.12518(15) 0.36472(12) 0.14532(12)
H8_5 H 0.077794 0.370251 0.162263
C16_5 C 0.30443(16) 0.21447(13) 0.08618(12)
H9_5 H 0.259607 0.229951 0.071058
C17_5 C 0.21553(19) 0.38837(14) 0.07200(13)
H10_5 H 0.229435 0.410273 0.039231
C18_5 C 0.17615(17) 0.32529(12) 0.17044(12)
H11_5 H 0.163393 0.304475 0.204144
C19_5 C 0.26673(19) 0.34910(15) 0.09624(14)
H12_5 H 0.314595 0.344200 0.079906
O6_5 O 0.29695(13) 0.72130(10) 0.32794(9)
O7_5 O 0.02669(12) 0.55296(10) 0.41006(9)
C29_5 C 0.43804(14) 0.83191(11) 0.36796(11)
H23_5 H 0.482427 0.847776 0.352466
C30_5 C 0.14388(16) 0.60402(11) 0.40469(11)
C31_5 C 0.34313(15) 0.83012(11) 0.44299(11)
H24_5 H 0.324352 0.844381 0.478235
O8_3 O 0.10726(13) 0.54479(10) 0.48439(9)
C32_5 C 0.44763(13) 0.90547(10) 0.45064(10)
O9_3 O 0.42102(10) 0.92111(8) 0.49901(8)
C33_5 C 0.33356(16) 0.76405(12) 0.36136(11)
O10_3 O 0.50274(11) 0.92957(8) 0.42497(8)
C34_5 C 0.40984(13) 0.85405(10) 0.42042(10)
C35_5 C 0.40048(16) 0.78635(12) 0.33859(11)
H25_5 H 0.420070 0.771029 0.304039
C36_5 C 0.24612(17) 0.68264(12) 0.35525(11)
C37_5 C 0.08857(17) 0.56404(12) 0.43527(12)
C38_5 C 0.12518(15) 0.63528(12) 0.35468(12)
H26_5 H 0.077794 0.629749 0.337737
C39_5 C 0.30443(16) 0.78553(13) 0.41382(12)
H27_5 H 0.259607 0.770049 0.428942
C40_5 C 0.21553(19) 0.61163(14) 0.42800(13)
H28_5 H 0.229435 0.589727 0.460769
C41_5 C 0.17615(17) 0.67471(12) 0.32956(12)
H29_5 H 0.163393 0.695525 0.295856
C42_5 C 0.26673(19) 0.65090(15) 0.40376(14)
H30_5 H 0.314595 0.655800 0.420094
Zn3_2 Zn 0.44409(2) 0.99479(2) 0.54800(2)
Zn6_2 Zn 0.05591(2) 0.49479(2) 0.54800(2)
Zn4_2 Zn 0.44409(2) 0.00521(2) 0.95200(2)
Zn5_2 Zn 0.05591(2) 0.50521(2) 0.95200(2)
Zn8_2 Zn 0.55591(2) 0.99479(2) 0.04800(2)
Zn1_2 Zn 0.94409(2) 0.49479(2) 0.04800(2)
N1_5 N 0.60072(12) 0.47405(14) 0.19401(10)
H1_5 H 0.595396 0.493032 0.163702
N2_5 N 0.85762(11) 0.49126(9) 0.10603(9)
C6_5 C 0.73478(12) 0.49035(11) 0.18367(10)
C8_5 C 0.66762(13) 0.49152(12) 0.22128(10)
C11_5 C 0.85162(13) 0.53200(10) 0.14881(10)
H5_5 H 0.889141 0.561034 0.152236
C13_5 C 0.79209(13) 0.53261(10) 0.18797(10)
H6_5 H 0.790461 0.561389 0.217223
C14_5 C 0.74085(17) 0.44939(15) 0.13872(13)
H7_5 H 0.703669 0.420315 0.133801
C20_5 C 0.80192(18) 0.45153(15) 0.10115(14)
H13_5 H 0.804186 0.423817 0.070954
C21_5 C 0.53356(19) 0.4739(3) 0.22958(15)
H14_5 H 0.531259 0.437026 0.251767
H15_3 H 0.489054 0.475804 0.204812
N3_5 N 0.60072(12) 0.52595(14) 0.30599(10)
H16_5 H 0.595396 0.506968 0.336298
N4_5 N 0.85762(11) 0.50874(9) 0.39397(9)
C22_5 C 0.73478(12) 0.50965(11) 0.31633(10)
C23_5 C 0.66762(13) 0.50848(12) 0.27872(10)
C24_5 C 0.85162(13) 0.46800(10) 0.35119(10)
H17_5 H 0.889141 0.438966 0.347764
C25_5 C 0.79209(13) 0.46739(10) 0.31203(10)
H18_5 H 0.790461 0.438611 0.282777
C26_5 C 0.74085(17) 0.55061(15) 0.36128(13)
H19_5 H 0.703669 0.579685 0.366199
C27_5 C 0.80192(18) 0.54847(15) 0.39885(14)
H20_5 H 0.804186 0.576183 0.429046
C28_5 C 0.53356(19) 0.5261(3) 0.27042(15)
H21_5 H 0.531259 0.562974 0.248233
H22_3 H 0.489054 0.524196 0.295188
Zn2_2 Zn 0.94409(2) 0.50521(2) 0.45200(2)
O12_3 O 0.89274(13) 0.45521(10) 0.51561(9)
O13_3 O 0.92102(10) 0.57889(8) 0.50099(8)
O15_3 O 0.99726(11) 0.42957(8) 0.42497(8)
O16_3 O 0.99726(11) 0.57043(8) 0.07503(8)
O11_3 O 0.89274(13) 0.54479(10) 0.98439(9)
O14_3 O 0.92102(10) 0.42111(8) 0.99901(8)
O5_4 O 0.00274(11) 0.42957(8) 0.92497(8)
O10_4 O 0.00274(11) 0.57043(8) 0.57503(8)
O1_6 O 0.79695(13) 0.22130(10) 0.82794(9)
N1_6 N 0.10072(12) 0.02595(14) 0.80599(10)
H1_6 H 0.095396 0.006968 0.836298
O2_6 O 0.52669(12) 0.05296(10) 0.91006(9)
C1_6 C 0.93804(14) 0.33191(11) 0.86796(11)
H2_6 H 0.982427 0.347776 0.852466
C2_6 C 0.64388(16) 0.10402(11) 0.90469(11)
C3_6 C 0.84313(15) 0.33012(11) 0.94299(11)
H3_6 H 0.824352 0.344381 0.978235
O3_4 O 0.60726(13) 0.04479(10) 0.98439(9)
C4_6 C 0.94763(13) 0.40547(10) 0.95064(10)
N2_6 N 0.35762(11) 0.00874(9) 0.89397(9)
C5_6 C 0.83356(16) 0.26405(12) 0.86136(11)
C6_6 C 0.23478(12) 0.00965(11) 0.81633(10)
C7_6 C 0.90984(13) 0.35405(10) 0.92042(10)
C8_6 C 0.16762(13) 0.00848(12) 0.77872(10)
C9_6 C 0.90048(16) 0.28635(12) 0.83859(11)
H4_6 H 0.920070 0.271029 0.804039
C10_6 C 0.74612(17) 0.18264(12) 0.85525(11)
C12_6 C 0.58857(17) 0.06404(12) 0.93527(12)
C14_6 C 0.24085(17) 0.05061(15) 0.86128(13)
H7_6 H 0.203669 0.079685 0.866199
C15_6 C 0.62518(15) 0.13528(12) 0.85468(12)
H8_6 H 0.577794 0.129749 0.837737
C16_6 C 0.80443(16) 0.28553(13) 0.91382(12)
H9_6 H 0.759607 0.270049 0.928942
C17_6 C 0.71553(19) 0.11163(14) 0.92800(13)
H10_6 H 0.729435 0.089727 0.960769
C18_6 C 0.67615(17) 0.17471(12) 0.82956(12)
H11_6 H 0.663393 0.195525 0.795856
C19_6 C 0.76673(19) 0.15090(15) 0.90376(14)
H12_6 H 0.814595 0.155800 0.920094
C20_6 C 0.30192(18) 0.04847(15) 0.89885(14)
H13_6 H 0.304186 0.076183 0.929046
C21_6 C 0.03356(19) 0.0261(3) 0.77042(15)
H14_6 H 0.031259 0.062974 0.748233
C24_6 C 0.35162(13) 0.03200(10) 0.64881(10)
H17_6 H 0.389141 0.061034 0.652236
C25_6 C 0.29209(13) 0.03261(10) 0.68797(10)
H18_6 H 0.290461 0.061389 0.717223
O12_4 O 0.39274(13) 0.04479(10) 0.48439(9)
O15_4 O 0.49726(11) 0.07043(8) 0.57503(8)
O11_4 O 0.39274(13) 0.95521(10) 0.01561(9)
C11_6 C 0.35162(13) 0.96800(10) 0.85119(10)
H5_6 H 0.389141 0.938966 0.847764
C13_6 C 0.29209(13) 0.96739(10) 0.81203(10)
H6_6 H 0.290461 0.938611 0.782777
N3_6 N 0.10072(12) 0.97405(14) 0.69401(10)
H16_6 H 0.095396 0.993032 0.663702
N4_6 N 0.35762(11) 0.99126(9) 0.60603(9)
C22_6 C 0.23478(12) 0.99035(11) 0.68367(10)
C23_6 C 0.16762(13) 0.99152(12) 0.72128(10)
C26_6 C 0.24085(17) 0.94939(15) 0.63872(13)
H19_6 H 0.203669 0.920315 0.633801
C27_6 C 0.30192(18) 0.95153(15) 0.60115(14)
H20_6 H 0.304186 0.923817 0.570954
C28_6 C 0.03356(19) 0.9739(3) 0.72958(15)
H21_6 H 0.031259 0.937026 0.751767
O6_6 O 0.79695(13) 0.77870(10) 0.67206(9)
O7_6 O 0.52669(12) 0.94704(10) 0.58994(9)
C29_6 C 0.93804(14) 0.66809(11) 0.63204(11)
H23_6 H 0.982427 0.652224 0.647534
C30_6 C 0.64388(16) 0.89598(11) 0.59531(11)
C31_6 C 0.84313(15) 0.66988(11) 0.55701(11)
H24_6 H 0.824352 0.655619 0.521765
O8_4 O 0.60726(13) 0.95521(10) 0.51561(9)
C32_6 C 0.94763(13) 0.59453(10) 0.54936(10)
C33_6 C 0.83356(16) 0.73595(12) 0.63864(11)
C34_6 C 0.90984(13) 0.64595(10) 0.57958(10)
C35_6 C 0.90048(16) 0.71365(12) 0.66141(11)
H25_6 H 0.920070 0.728971 0.695961
C36_6 C 0.74612(17) 0.81736(12) 0.64475(11)
C37_6 C 0.58857(17) 0.93596(12) 0.56473(12)
C38_6 C 0.62518(15) 0.86472(12) 0.64532(12)
H26_6 H 0.577794 0.870251 0.662263
C39_6 C 0.80443(16) 0.71447(13) 0.58618(12)
H27_6 H 0.759607 0.729951 0.571058
C40_6 C 0.71553(19) 0.88837(14) 0.57200(13)
H28_6 H 0.729435 0.910273 0.539231
C41_6 C 0.67615(17) 0.82529(12) 0.67044(12)
H29_6 H 0.663393 0.804475 0.704144
C42_6 C 0.76673(19) 0.84910(15) 0.59624(14)
H30_6 H 0.814595 0.844200 0.579906
O16_4 O 0.49726(11) 0.92957(8) 0.92497(8)
O14_4 O 0.07898(10) 0.57889(8) 0.00099(8)
N1_7 N 0.39928(12) 0.52595(14) 0.80599(10)
H1_7 H 0.404604 0.506968 0.836298
N2_7 N 0.14238(11) 0.50874(9) 0.89397(9)
C6_7 C 0.26522(12) 0.50965(11) 0.81633(10)
C8_7 C 0.33238(13) 0.50848(12) 0.77872(10)
C11_7 C 0.14838(13) 0.46800(10) 0.85119(10)
H5_7 H 0.110859 0.438966 0.847764
C13_7 C 0.20791(13) 0.46739(10) 0.81203(10)
H6_7 H 0.209539 0.438611 0.782777
C14_7 C 0.25915(17) 0.55061(15) 0.86128(13)
H7_7 H 0.296331 0.579685 0.866199
C20_7 C 0.19808(18) 0.54847(15) 0.89885(14)
H13_7 H 0.195814 0.576183 0.929046
C21_7 C 0.46644(19) 0.5261(3) 0.77042(15)
H14_7 H 0.468741 0.562974 0.748233
H15_4 H 0.510946 0.524196 0.795188
N3_7 N 0.39928(12) 0.47405(14) 0.69401(10)
H16_7 H 0.404604 0.493032 0.663702
N4_7 N 0.14238(11) 0.49126(9) 0.60603(9)
C22_7 C 0.26522(12) 0.49035(11) 0.68367(10)
C23_7 C 0.33238(13) 0.49152(12) 0.72128(10)
C24_7 C 0.14838(13) 0.53200(10) 0.64881(10)
H17_7 H 0.110859 0.561034 0.652236
C25_7 C 0.20791(13) 0.53261(10) 0.68797(10)
H18_7 H 0.209539 0.561389 0.717223
C26_7 C 0.25915(17) 0.44939(15) 0.63872(13)
H19_7 H 0.296331 0.420315 0.633801
C27_7 C 0.19808(18) 0.45153(15) 0.60115(14)
H20_7 H 0.195814 0.423817 0.570954
C28_7 C 0.46644(19) 0.4739(3) 0.72958(15)
H21_7 H 0.468741 0.437026 0.751767
H22_4 H 0.510946 0.475804 0.704812
O13_4 O 0.07898(10) 0.42111(8) 0.49901(8)
O1_7 O 0.70305(13) 0.72130(10) 0.82794(9)
O2_7 O 0.97331(12) 0.55296(10) 0.91006(9)
C1_7 C 0.56196(14) 0.83191(11) 0.86796(11)
H2_7 H 0.517573 0.847776 0.852466
C2_7 C 0.85612(16) 0.60402(11) 0.90469(11)
C3_7 C 0.65687(15) 0.83012(11) 0.94299(11)
H3_7 H 0.675648 0.844381 0.978235
C4_7 C 0.55237(13) 0.90547(10) 0.95064(10)
O4_4 O 0.57898(10) 0.92111(8) 0.99901(8)
C5_7 C 0.66644(16) 0.76405(12) 0.86136(11)
C7_7 C 0.59016(13) 0.85405(10) 0.92042(10)
C9_7 C 0.59952(16) 0.78635(12) 0.83859(11)
H4_7 H 0.579930 0.771029 0.804039
C10_7 C 0.75388(17) 0.68264(12) 0.85525(11)
C12_7 C 0.91143(17) 0.56404(12) 0.93527(12)
C15_7 C 0.87482(15) 0.63528(12) 0.85468(12)
H8_7 H 0.922206 0.629749 0.837737
C16_7 C 0.69557(16) 0.78553(13) 0.91382(12)
H9_7 H 0.740393 0.770049 0.928942
C17_7 C 0.78447(19) 0.61163(14) 0.92800(13)
H10_7 H 0.770565 0.589727 0.960769
C18_7 C 0.82385(17) 0.67471(12) 0.82956(12)
H11_7 H 0.836607 0.695525 0.795856
C19_7 C 0.73327(19) 0.65090(15) 0.90376(14)
H12_7 H 0.685405 0.655800 0.920094
O6_7 O 0.70305(13) 0.27870(10) 0.67206(9)
O7_7 O 0.97331(12) 0.44704(10) 0.58994(9)
C29_7 C 0.56196(14) 0.16809(11) 0.63204(11)
H23_7 H 0.517573 0.152224 0.647534
C30_7 C 0.85612(16) 0.39598(11) 0.59531(11)
C31_7 C 0.65687(15) 0.16988(11) 0.55701(11)
H24_7 H 0.675648 0.155619 0.521765
C32_7 C 0.55237(13) 0.09453(10) 0.54936(10)
O9_4 O 0.57898(10) 0.07889(8) 0.50099(8)
C33_7 C 0.66644(16) 0.23595(12) 0.63864(11)
C34_7 C 0.59016(13) 0.14595(10) 0.57958(10)
C35_7 C 0.59952(16) 0.21365(12) 0.66141(11)
H25_7 H 0.579930 0.228971 0.695961
C36_7 C 0.75388(17) 0.31736(12) 0.64475(11)
C37_7 C 0.91143(17) 0.43596(12) 0.56473(12)
C38_7 C 0.87482(15) 0.36472(12) 0.64532(12)
H26_7 H 0.922206 0.370251 0.662263
C39_7 C 0.69557(16) 0.21447(13) 0.58618(12)
H27_7 H 0.740393 0.229951 0.571058
C40_7 C 0.78447(19) 0.38837(14) 0.57200(13)
H28_7 H 0.770565 0.410273 0.539231
C41_7 C 0.82385(17) 0.32529(12) 0.67044(12)
H29_7 H 0.836607 0.304475 0.704144
C42_7 C 0.73327(19) 0.34910(15) 0.59624(14)
H30_7 H 0.685405 0.344200 0.579906
C11_8 C 0.64838(13) 0.03200(10) 0.14881(10)
H5_8 H 0.610859 0.061034 0.152236
C13_8 C 0.70791(13) 0.03261(10) 0.18797(10)
H6_8 H 0.709539 0.061389 0.217223
N3_8 N 0.89928(12) 0.02595(14) 0.30599(10)
H16_8 H 0.904604 0.006968 0.336298
N4_8 N 0.64238(11) 0.00874(9) 0.39397(9)
C22_8 C 0.76522(12) 0.00965(11) 0.31633(10)
C23_8 C 0.83238(13) 0.00848(12) 0.27872(10)
C26_8 C 0.75915(17) 0.05061(15) 0.36128(13)
H19_8 H 0.796331 0.079685 0.366199
C27_8 C 0.69808(18) 0.04847(15) 0.39885(14)
H20_8 H 0.695814 0.076183 0.429046
C28_8 C 0.96644(19) 0.0261(3) 0.27042(15)
H21_8 H 0.968741 0.062974 0.248233
O6_8 O 0.20305(13) 0.22130(10) 0.32794(9)
O7_8 O 0.47331(12) 0.05296(10) 0.41006(9)
C29_8 C 0.06196(14) 0.33191(11) 0.36796(11)
H23_8 H 0.017573 0.347776 0.352466
C30_8 C 0.35612(16) 0.10402(11) 0.40469(11)
C31_8 C 0.15687(15) 0.33012(11) 0.44299(11)
H24_8 H 0.175648 0.344381 0.478235
C32_8 C 0.05237(13) 0.40547(10) 0.45064(10)
C33_8 C 0.16644(16) 0.26405(12) 0.36136(11)
C34_8 C 0.09016(13) 0.35405(10) 0.42042(10)
C35_8 C 0.09952(16) 0.28635(12) 0.33859(11)
H25_8 H 0.079930 0.271029 0.304039
C36_8 C 0.25388(17) 0.18264(12) 0.35525(11)
C37_8 C 0.41143(17) 0.06404(12) 0.43527(12)
C38_8 C 0.37482(15) 0.13528(12) 0.35468(12)
H26_8 H 0.422206 0.129749 0.337737
C39_8 C 0.19557(16) 0.28553(13) 0.41382(12)
H27_8 H 0.240393 0.270049 0.428942
C40_8 C 0.28447(19) 0.11163(14) 0.42800(13)
H28_8 H 0.270565 0.089727 0.460769
C41_8 C 0.32385(17) 0.17471(12) 0.32956(12)
H29_8 H 0.336607 0.195525 0.295856
C42_8 C 0.23327(19) 0.15090(15) 0.40376(14)
H30_8 H 0.185405 0.155800 0.420094
O1_8 O 0.20305(13) 0.77870(10) 0.17206(9)
N1_8 N 0.89928(12) 0.97405(14) 0.19401(10)
H1_8 H 0.904604 0.993032 0.163702
O2_8 O 0.47331(12) 0.94704(10) 0.08994(9)
C1_8 C 0.06196(14) 0.66809(11) 0.13204(11)
H2_8 H 0.017573 0.652224 0.147534
C2_8 C 0.35612(16) 0.89598(11) 0.09531(11)
C3_8 C 0.15687(15) 0.66988(11) 0.05701(11)
H3_8 H 0.175648 0.655619 0.021765
C4_8 C 0.05237(13) 0.59453(10) 0.04936(10)
N2_8 N 0.64238(11) 0.99126(9) 0.10603(9)
C5_8 C 0.16644(16) 0.73595(12) 0.13864(11)
C6_8 C 0.76522(12) 0.99035(11) 0.18367(10)
C7_8 C 0.09016(13) 0.64595(10) 0.07958(10)
C8_8 C 0.83238(13) 0.99152(12) 0.22128(10)
C9_8 C 0.09952(16) 0.71365(12) 0.16141(11)
H4_8 H 0.079930 0.728971 0.195961
C10_8 C 0.25388(17) 0.81736(12) 0.14475(11)
C12_8 C 0.41143(17) 0.93596(12) 0.06473(12)
C14_8 C 0.75915(17) 0.94939(15) 0.13872(13)
H7_8 H 0.796331 0.920315 0.133801
C15_8 C 0.37482(15) 0.86472(12) 0.14532(12)
H8_8 H 0.422206 0.870251 0.162263
C16_8 C 0.19557(16) 0.71447(13) 0.08618(12)
H9_8 H 0.240393 0.729951 0.071058
C17_8 C 0.28447(19) 0.88837(14) 0.07200(13)
H10_8 H 0.270565 0.910273 0.039231
C18_8 C 0.32385(17) 0.82529(12) 0.17044(12)
H11_8 H 0.336607 0.804475 0.204144
C19_8 C 0.23327(19) 0.84910(15) 0.09624(14)
H12_8 H 0.185405 0.844200 0.079906
C20_8 C 0.69808(18) 0.95153(15) 0.10115(14)
H13_8 H 0.695814 0.923817 0.070954
C21_8 C 0.96644(19) 0.9739(3) 0.22958(15)
H14_8 H 0.968741 0.937026 0.251767
C24_8 C 0.64838(13) 0.96800(10) 0.35119(10)
H17_8 H 0.610859 0.938966 0.347764
C25_8 C 0.70791(13) 0.96739(10) 0.31203(10)
H18_8 H 0.709539 0.938611 0.282777
H15_5 H 0.989054 0.024196 0.795188
H22_5 H 0.989054 0.975804 0.704812
H15_6 H 0.010946 0.524196 0.704812
H22_6 H 0.010946 0.475804 0.795188
H22_7 H 0.010946 0.024196 0.295188
H15_7 H 0.010946 0.975804 0.204812
H15_8 H 0.989054 0.475804 0.295188
H22_8 H 0.989054 0.524196 0.204812
loop_
_geom_bond_atom_site_label_1
_geom_bond_atom_site_label_2
_geom_bond_site_symmetry_1
_geom_bond_site_symmetry_2
N1 H1 1_555 1_555
N2 Zn1 1_555 1_555
C6 C8 1_555 1_555
C8 N1 1_555 1_555
C14 C6 1_555 1_555
H7 C14 1_555 1_555
C20 N2 1_555 1_555
H13 C20 1_555 1_555
C21 N1 1_555 1_555
H14 C21 1_555 1_555
H15 C21 1_555 1_555
C24 H17 1_555 1_555
H18 C25 1_555 1_555
C14 C20 1_555 1_555
C24 C25 1_555 1_555
H5 C11 1_555 1_555
H6 C13 1_555 1_555
N3 H16 1_555 1_555
C22 C23 1_555 1_555
C26 C22 1_555 1_555
H19 C26 1_555 1_555
C27 N4 1_555 1_555
H20 C27 1_555 1_555
H21 C28 1_555 1_555
H22 C28 1_555 1_555
Zn2 N4 1_555 1_555
O13 Zn2 1_555 1_555
C11 C13 1_555 1_555
N3 C23 1_555 1_555
N3 C28 1_555 1_555
C26 C27 1_555 1_555
O1 C5 1_555 1_555
O2 C12 1_555 1_555
C1 H2 1_555 1_555
C2 C12 1_555 1_555
C3 H3 1_555 1_555
O3 C12 1_555 1_555
C4 O4 1_555 1_555
C5 C9 1_555 1_555
O5 C4 1_555 1_555
C7 C1 1_555 1_555
C9 C1 1_555 1_555
H4 C9 1_555 1_555
C10 O1 1_555 1_555
C15 C2 1_555 1_555
H8 C15 1_555 1_555
C16 C3 1_555 1_555
H9 C16 1_555 1_555
C17 C2 1_555 1_555
H10 C17 1_555 1_555
C18 C10 1_555 1_555
H11 C18 1_555 1_555
C19 C10 1_555 1_555
H12 C19 1_555 1_555
Zn8 O5 1_555 1_555
C3 C7 1_555 1_555
C4 C7 1_555 1_555
C5 C16 1_555 1_555
C15 C18 1_555 1_555
C17 C19 1_555 1_555
O6 C33 1_555 1_555
C29 H23 1_555 1_555
C30 C37 1_555 1_555
C31 H24 1_555 1_555
O8 C37 1_555 1_555
C32 O9 1_555 1_555
O9 Zn3 1_555 1_555
C33 C35 1_555 1_555
O10 C32 1_555 1_555
C34 C29 1_555 1_555
C35 C29 1_555 1_555
H25 C35 1_555 1_555
C36 O6 1_555 1_555
C37 O7 1_555 1_555
C38 C30 1_555 1_555
H26 C38 1_555 1_555
C39 C31 1_555 1_555
H27 C39 1_555 1_555
C40 C30 1_555 1_555
H28 C40 1_555 1_555
C41 C36 1_555 1_555
H29 C41 1_555 1_555
C42 C36 1_555 1_555
H30 C42 1_555 1_555
Zn7 O10 1_555 1_555
C31 C34 1_555 1_555
C32 C34 1_555 1_555
C33 C39 1_555 1_555
C38 C41 1_555 1_555
C40 C42 1_555 1_555
Zn3 O2_2 1_555 1_555
O1_2 C5_2 1_555 1_555
N1_2 H1_2 1_555 1_555
O2_2 C12_2 1_555 1_555
C1_2 H2_2 1_555 1_555
C2_2 C12_2 1_555 1_555
C3_2 H3_2 1_555 1_555
O3_2 C12_2 1_555 1_555
C4_2 O13 1_555 1_555
N2_2 Zn3 1_555 1_555
C5_2 C9_2 1_555 1_555
C6_2 C8_2 1_555 1_555
C7_2 C1_2 1_555 1_555
C8_2 N1_2 1_555 1_555
C9_2 C1_2 1_555 1_555
H4_2 C9_2 1_555 1_555
C10_2 O1_2 1_555 1_555
C11_2 N2_2 1_555 1_555
H5_2 C11_2 1_555 1_555
C13_2 C6_2 1_555 1_555
H6_2 C13_2 1_555 1_555
C14_2 C6_2 1_555 1_555
H7_2 C14_2 1_555 1_555
C15_2 C2_2 1_555 1_555
H8_2 C15_2 1_555 1_555
C16_2 C3_2 1_555 1_555
H9_2 C16_2 1_555 1_555
C17_2 C2_2 1_555 1_555
H10_2 C17_2 1_555 1_555
C18_2 C10_2 1_555 1_555
H11_2 C18_2 1_555 1_555
C19_2 C10_2 1_555 1_555
H12_2 C19_2 1_555 1_555
C20_2 N2_2 1_555 1_555
H13_2 C20_2 1_555 1_555
C21_2 N1_2 1_555 1_555
H14_2 C21_2 1_555 1_555
N3_2 H16_2 1_555 1_555
N4_2 C24_2 1_555 1_555
C22_2 C23_2 1_555 1_555
C23_2 C8_2 1_555 1_555
C24_2 H17_2 1_555 1_555
C25_2 C22_2 1_555 1_555
H18_2 C25_2 1_555 1_555
C26_2 C22_2 1_555 1_555
H19_2 C26_2 1_555 1_555
C27_2 N4_2 1_555 1_555
H20_2 C27_2 1_555 1_555
C28_2 C21_2 1_555 1_555
H21_2 C28_2 1_555 1_555
Zn4 N4_2 1_555 1_555
O6_2 C33_2 1_555 1_555
O7_2 Zn4 1_555 1_555
C29_2 H23_2 1_555 1_555
C30_2 C37_2 1_555 1_555
C31_2 H24_2 1_555 1_555
O8_2 C37_2 1_555 1_555
C32_2 O14 1_555 1_555
C33_2 C35_2 1_555 1_555
C34_2 C29_2 1_555 1_555
C35_2 C29_2 1_555 1_555
H25_2 C35_2 1_555 1_555
C36_2 O6_2 1_555 1_555
C37_2 O7_2 1_555 1_555
C38_2 C30_2 1_555 1_555
H26_2 C38_2 1_555 1_555
C39_2 C31_2 1_555 1_555
H27_2 C39_2 1_555 1_555
C40_2 C30_2 1_555 1_555
H28_2 C40_2 1_555 1_555
C41_2 C36_2 1_555 1_555
H29_2 C41_2 1_555 1_555
C42_2 C36_2 1_555 1_555
H30_2 C42_2 1_555 1_555
Zn7 O3_2 1_555 1_555
O11_2 Zn3 1_555 1_555
O15_2 Zn4 1_555 1_555
O16_2 Zn3 1_555 1_555
C3_2 C7_2 1_555 1_555
C4_2 C7_2 1_555 1_555
C5_2 C16_2 1_555 1_555
C11_2 C13_2 1_555 1_555
C14_2 C20_2 1_555 1_555
C15_2 C18_2 1_555 1_555
C17_2 C19_2 1_555 1_555
N3_2 C23_2 1_555 1_555
N3_2 C28_2 1_555 1_555
C24_2 C25_2 1_555 1_555
C26_2 C27_2 1_555 1_555
C31_2 C34_2 1_555 1_555
C32_2 C34_2 1_555 1_555
C33_2 C39_2 1_555 1_555
C38_2 C41_2 1_555 1_555
C40_2 C42_2 1_555 1_555
O6_3 C33_3 1_555 1_555
C29_3 H23_3 1_555 1_555
C30_3 C37_3 1_555 1_555
C31_3 H24_3 1_555 1_555
O12 C37_3 1_555 1_555
C32_3 O9_2 1_555 1_555
O9_2 Zn7 1_555 1_555
C33_3 C35_3 1_555 1_555
O16_2 C32_3 1_555 1_555
C34_3 C29_3 1_555 1_555
C35_3 C29_3 1_555 1_555
H25_3 C35_3 1_555 1_555
C36_3 O6_3 1_555 1_555
C37_3 O7_3 1_555 1_555
C38_3 C30_3 1_555 1_555
H26_3 C38_3 1_555 1_555
C39_3 C31_3 1_555 1_555
H27_3 C39_3 1_555 1_555
C40_3 C30_3 1_555 1_555
H28_3 C40_3 1_555 1_555
C41_3 C36_3 1_555 1_555
H29_3 C41_3 1_555 1_555
C42_3 C36_3 1_555 1_555
H30_3 C42_3 1_555 1_555
C31_3 C34_3 1_555 1_555
C32_3 C34_3 1_555 1_555
C33_3 C39_3 1_555 1_555
C38_3 C41_3 1_555 1_555
C40_3 C42_3 1_555 1_555
O1_3 C5_3 1_555 1_555
O2_3 C12_3 1_555 1_555
C1_3 H2_3 1_555 1_555
C2_3 C12_3 1_555 1_555
C3_3 H3_3 1_555 1_555
O11 C12_3 1_555 1_555
C4_3 O4_2 1_555 1_555
C5_3 C9_3 1_555 1_555
O15_2 C4_3 1_555 1_555
C7_3 C1_3 1_555 1_555
C9_3 C1_3 1_555 1_555
H4_3 C9_3 1_555 1_555
C10_3 O1_3 1_555 1_555
C15_3 C2_3 1_555 1_555
H8_3 C15_3 1_555 1_555
C16_3 C3_3 1_555 1_555
H9_3 C16_3 1_555 1_555
C17_3 C2_3 1_555 1_555
H10_3 C17_3 1_555 1_555
C18_3 C10_3 1_555 1_555
H11_3 C18_3 1_555 1_555
C19_3 C10_3 1_555 1_555
H12_3 C19_3 1_555 1_555
C3_3 C7_3 1_555 1_555
C4_3 C7_3 1_555 1_555
C5_3 C16_3 1_555 1_555
C15_3 C18_3 1_555 1_555
C17_3 C19_3 1_555 1_555
H5_3 C11_3 1_555 1_555
H6_3 C13_3 1_555 1_555
N3_3 H16_3 1_555 1_555
C22_3 C23_3 1_555 1_555
C26_3 C22_3 1_555 1_555
H19_3 C26_3 1_555 1_555
C27_3 N4_3 1_555 1_555
H20_3 C27_3 1_555 1_555
H21_3 C28_3 1_555 1_555
H22_2 C28_3 1_555 1_555
Zn6 N4_3 1_555 1_555
O13_2 Zn6 1_555 1_555
C11_3 C13_3 1_555 1_555
N3_3 C23_3 1_555 1_555
N3_3 C28_3 1_555 1_555
C26_3 C27_3 1_555 1_555
N1_3 H1_3 1_555 1_555
N2_3 Zn5 1_555 1_555
C6_3 C8_3 1_555 1_555
C8_3 N1_3 1_555 1_555
C14_3 C6_3 1_555 1_555
H7_3 C14_3 1_555 1_555
C20_3 N2_3 1_555 1_555
H13_3 C20_3 1_555 1_555
C21_3 N1_3 1_555 1_555
H14_3 C21_3 1_555 1_555
H15_2 C21_3 1_555 1_555
C24_3 H17_3 1_555 1_555
H18_3 C25_3 1_555 1_555
C14_3 C20_3 1_555 1_555
C24_3 C25_3 1_555 1_555
Zn7 O2_4 1_555 1_555
O1_4 C5_4 1_555 1_555
N1_4 H1_4 1_555 1_555
O2_4 C12_4 1_555 1_555
C1_4 H2_4 1_555 1_555
C2_4 C12_4 1_555 1_555
C3_4 H3_4 1_555 1_555
O11_2 C12_4 1_555 1_555
C4_4 O13_2 1_555 1_555
N2_4 Zn7 1_555 1_555
C5_4 C9_4 1_555 1_555
C6_4 C8_4 1_555 1_555
C7_4 C1_4 1_555 1_555
C8_4 N1_4 1_555 1_555
C9_4 C1_4 1_555 1_555
H4_4 C9_4 1_555 1_555
C10_4 O1_4 1_555 1_555
C11_4 N2_4 1_555 1_555
H5_4 C11_4 1_555 1_555
C13_4 C6_4 1_555 1_555
H6_4 C13_4 1_555 1_555
C14_4 C6_4 1_555 1_555
H7_4 C14_4 1_555 1_555
C15_4 C2_4 1_555 1_555
H8_4 C15_4 1_555 1_555
C16_4 C3_4 1_555 1_555
H9_4 C16_4 1_555 1_555
C17_4 C2_4 1_555 1_555
H10_4 C17_4 1_555 1_555
C18_4 C10_4 1_555 1_555
H11_4 C18_4 1_555 1_555
C19_4 C10_4 1_555 1_555
H12_4 C19_4 1_555 1_555
C20_4 N2_4 1_555 1_555
H13_4 C20_4 1_555 1_555
C21_4 N1_4 1_555 1_555
H14_4 C21_4 1_555 1_555
N3_4 H16_4 1_555 1_555
N4_4 C24_4 1_555 1_555
C22_4 C23_4 1_555 1_555
C23_4 C8_4 1_555 1_555
C24_4 H17_4 1_555 1_555
C25_4 C22_4 1_555 1_555
H18_4 C25_4 1_555 1_555
C26_4 C22_4 1_555 1_555
H19_4 C26_4 1_555 1_555
C27_4 N4_4 1_555 1_555
H20_4 C27_4 1_555 1_555
C28_4 C21_4 1_555 1_555
H21_4 C28_4 1_555 1_555
Zn8 N4_4 1_555 1_555
O6_4 C33_4 1_555 1_555
O7_4 Zn8 1_555 1_555
C29_4 H23_4 1_555 1_555
C30_4 C37_4 1_555 1_555
C31_4 H24_4 1_555 1_555
O12_2 C37_4 1_555 1_555
C32_4 O14_2 1_555 1_555
C33_4 C35_4 1_555 1_555
C34_4 C29_4 1_555 1_555
C35_4 C29_4 1_555 1_555
H25_4 C35_4 1_555 1_555
C36_4 O6_4 1_555 1_555
C37_4 O7_4 1_555 1_555
C38_4 C30_4 1_555 1_555
H26_4 C38_4 1_555 1_555
C39_4 C31_4 1_555 1_555
H27_4 C39_4 1_555 1_555
C40_4 C30_4 1_555 1_555
H28_4 C40_4 1_555 1_555
C41_4 C36_4 1_555 1_555
H29_4 C41_4 1_555 1_555
C42_4 C36_4 1_555 1_555
H30_4 C42_4 1_555 1_555
C3_4 C7_4 1_555 1_555
C4_4 C7_4 1_555 1_555
C5_4 C16_4 1_555 1_555
C11_4 C13_4 1_555 1_555
C14_4 C20_4 1_555 1_555
C15_4 C18_4 1_555 1_555
C17_4 C19_4 1_555 1_555
N3_4 C23_4 1_555 1_555
N3_4 C28_4 1_555 1_555
C24_4 C25_4 1_555 1_555
C26_4 C27_4 1_555 1_555
C31_4 C34_4 1_555 1_555
C32_4 C34_4 1_555 1_555
C33_4 C39_4 1_555 1_555
C38_4 C41_4 1_555 1_555
C40_4 C42_4 1_555 1_555
O1_5 C5_5 1_555 1_555
O2_5 C12_5 1_555 1_555
C1_5 H2_5 1_555 1_555
C2_5 C12_5 1_555 1_555
C3_5 H3_5 1_555 1_555
O3_3 C12_5 1_555 1_555
C4_5 O4_3 1_555 1_555
C5_5 C9_5 1_555 1_555
O5_3 C4_5 1_555 1_555
C7_5 C1_5 1_555 1_555
C9_5 C1_5 1_555 1_555
H4_5 C9_5 1_555 1_555
C10_5 O1_5 1_555 1_555
C15_5 C2_5 1_555 1_555
H8_5 C15_5 1_555 1_555
C16_5 C3_5 1_555 1_555
H9_5 C16_5 1_555 1_555
C17_5 C2_5 1_555 1_555
H10_5 C17_5 1_555 1_555
C18_5 C10_5 1_555 1_555
H11_5 C18_5 1_555 1_555
C19_5 C10_5 1_555 1_555
H12_5 C19_5 1_555 1_555
O6_5 C33_5 1_555 1_555
C29_5 H23_5 1_555 1_555
C30_5 C37_5 1_555 1_555
C31_5 H24_5 1_555 1_555
O8_3 C37_5 1_555 1_555
C32_5 O9_3 1_555 1_555
O9_3 Zn3_2 1_555 1_555
C33_5 C35_5 1_555 1_555
O10_3 C32_5 1_555 1_555
C34_5 C29_5 1_555 1_555
C35_5 C29_5 1_555 1_555
H25_5 C35_5 1_555 1_555
C36_5 O6_5 1_555 1_555
C37_5 O7_5 1_555 1_555
C38_5 C30_5 1_555 1_555
H26_5 C38_5 1_555 1_555
C39_5 C31_5 1_555 1_555
H27_5 C39_5 1_555 1_555
C40_5 C30_5 1_555 1_555
H28_5 C40_5 1_555 1_555
C41_5 C36_5 1_555 1_555
H29_5 C41_5 1_555 1_555
C42_5 C36_5 1_555 1_555
H30_5 C42_5 1_555 1_555
Zn6_2 O8_3 1_555 1_555
C3_5 C7_5 1_555 1_555
C4_5 C7_5 1_555 1_555
C5_5 C16_5 1_555 1_555
C15_5 C18_5 1_555 1_555
C17_5 C19_5 1_555 1_555
C31_5 C34_5 1_555 1_555
C32_5 C34_5 1_555 1_555
C33_5 C39_5 1_555 1_555
C38_5 C41_5 1_555 1_555
C40_5 C42_5 1_555 1_555
N1_5 H1_5 1_555 1_555
N2_5 Zn1_2 1_555 1_555
C6_5 C8_5 1_555 1_555
C8_5 N1_5 1_555 1_555
C11_5 N2_5 1_555 1_555
H5_5 C11_5 1_555 1_555
C13_5 C6_5 1_555 1_555
H6_5 C13_5 1_555 1_555
C14_5 C6_5 1_555 1_555
H7_5 C14_5 1_555 1_555
C20_5 N2_5 1_555 1_555
H13_5 C20_5 1_555 1_555
C21_5 N1_5 1_555 1_555
H14_5 C21_5 1_555 1_555
H15_3 C21_5 1_555 1_555
N3_5 H16_5 1_555 1_555
N4_5 C24_5 1_555 1_555
C22_5 C23_5 1_555 1_555
C23_5 C8_5 1_555 1_555
C24_5 H17_5 1_555 1_555
C25_5 C22_5 1_555 1_555
H18_5 C25_5 1_555 1_555
C26_5 C22_5 1_555 1_555
H19_5 C26_5 1_555 1_555
C27_5 N4_5 1_555 1_555
H20_5 C27_5 1_555 1_555
C28_5 C21_5 1_555 1_555
H21_5 C28_5 1_555 1_555
H22_3 C28_5 1_555 1_555
Zn2_2 N4_5 1_555 1_555
O12_3 Zn2_2 1_555 1_555
O13_3 Zn2_2 1_555 1_555
O15_3 Zn2_2 1_555 1_555
O16_3 Zn1_2 1_555 1_555
C11_5 C13_5 1_555 1_555
C14_5 C20_5 1_555 1_555
N3_5 C23_5 1_555 1_555
N3_5 C28_5 1_555 1_555
C24_5 C25_5 1_555 1_555
C26_5 C27_5 1_555 1_555
Zn5_2 O5_4 1_555 1_555
Zn6_2 O10_4 1_555 1_555
Zn4_2 O2_6 1_555 1_555
O1_6 C5_6 1_555 1_555
N1_6 H1_6 1_555 1_555
O2_6 C12_6 1_555 1_555
C1_6 H2_6 1_555 1_555
C2_6 C12_6 1_555 1_555
C3_6 H3_6 1_555 1_555
O3_4 C12_6 1_555 1_555
C4_6 O14_3 1_555 1_555
N2_6 Zn4_2 1_555 1_555
C5_6 C9_6 1_555 1_555
C6_6 C8_6 1_555 1_555
C7_6 C1_6 1_555 1_555
C8_6 N1_6 1_555 1_555
C9_6 C1_6 1_555 1_555
H4_6 C9_6 1_555 1_555
C10_6 O1_6 1_555 1_555
C14_6 C6_6 1_555 1_555
H7_6 C14_6 1_555 1_555
C15_6 C2_6 1_555 1_555
H8_6 C15_6 1_555 1_555
C16_6 C3_6 1_555 1_555
H9_6 C16_6 1_555 1_555
C17_6 C2_6 1_555 1_555
H10_6 C17_6 1_555 1_555
C18_6 C10_6 1_555 1_555
H11_6 C18_6 1_555 1_555
C19_6 C10_6 1_555 1_555
H12_6 C19_6 1_555 1_555
C20_6 N2_6 1_555 1_555
H13_6 C20_6 1_555 1_555
C21_6 N1_6 1_555 1_555
H14_6 C21_6 1_555 1_555
C24_6 H17_6 1_555 1_555
H18_6 C25_6 1_555 1_555
C3_6 C7_6 1_555 1_555
C4_6 C7_6 1_555 1_555
C5_6 C16_6 1_555 1_555
C14_6 C20_6 1_555 1_555
C15_6 C18_6 1_555 1_555
C17_6 C19_6 1_555 1_555
C24_6 C25_6 1_555 1_555
H5_6 C11_6 1_555 1_555
H6_6 C13_6 1_555 1_555
N3_6 H16_6 1_555 1_555
C22_6 C23_6 1_555 1_555
C26_6 C22_6 1_555 1_555
H19_6 C26_6 1_555 1_555
C27_6 N4_6 1_555 1_555
H20_6 C27_6 1_555 1_555
H21_6 C28_6 1_555 1_555
Zn3_2 N4_6 1_555 1_555
O6_6 C33_6 1_555 1_555
O7_6 Zn3_2 1_555 1_555
C29_6 H23_6 1_555 1_555
C30_6 C37_6 1_555 1_555
C31_6 H24_6 1_555 1_555
O8_4 C37_6 1_555 1_555
C32_6 O13_3 1_555 1_555
C33_6 C35_6 1_555 1_555
C34_6 C29_6 1_555 1_555
C35_6 C29_6 1_555 1_555
H25_6 C35_6 1_555 1_555
C36_6 O6_6 1_555 1_555
C37_6 O7_6 1_555 1_555
C38_6 C30_6 1_555 1_555
H26_6 C38_6 1_555 1_555
C39_6 C31_6 1_555 1_555
H27_6 C39_6 1_555 1_555
C40_6 C30_6 1_555 1_555
H28_6 C40_6 1_555 1_555
C41_6 C36_6 1_555 1_555
H29_6 C41_6 1_555 1_555
C42_6 C36_6 1_555 1_555
H30_6 C42_6 1_555 1_555
C11_6 C13_6 1_555 1_555
N3_6 C23_6 1_555 1_555
N3_6 C28_6 1_555 1_555
C26_6 C27_6 1_555 1_555
C31_6 C34_6 1_555 1_555
C32_6 C34_6 1_555 1_555
C33_6 C39_6 1_555 1_555
C38_6 C41_6 1_555 1_555
C40_6 C42_6 1_555 1_555
N1_7 H1_7 1_555 1_555
N2_7 Zn5_2 1_555 1_555
C6_7 C8_7 1_555 1_555
C8_7 N1_7 1_555 1_555
C11_7 N2_7 1_555 1_555
H5_7 C11_7 1_555 1_555
C13_7 C6_7 1_555 1_555
H6_7 C13_7 1_555 1_555
C14_7 C6_7 1_555 1_555
H7_7 C14_7 1_555 1_555
C20_7 N2_7 1_555 1_555
H13_7 C20_7 1_555 1_555
C21_7 N1_7 1_555 1_555
H14_7 C21_7 1_555 1_555
H15_4 C21_7 1_555 1_555
N3_7 H16_7 1_555 1_555
N4_7 C24_7 1_555 1_555
C22_7 C23_7 1_555 1_555
C23_7 C8_7 1_555 1_555
C24_7 H17_7 1_555 1_555
C25_7 C22_7 1_555 1_555
H18_7 C25_7 1_555 1_555
C26_7 C22_7 1_555 1_555
H19_7 C26_7 1_555 1_555
C27_7 N4_7 1_555 1_555
H20_7 C27_7 1_555 1_555
C28_7 C21_7 1_555 1_555
H21_7 C28_7 1_555 1_555
H22_4 C28_7 1_555 1_555
Zn6_2 N4_7 1_555 1_555
O13_4 Zn6_2 1_555 1_555
C11_7 C13_7 1_555 1_555
C14_7 C20_7 1_555 1_555
N3_7 C23_7 1_555 1_555
N3_7 C28_7 1_555 1_555
C24_7 C25_7 1_555 1_555
C26_7 C27_7 1_555 1_555
O1_7 C5_7 1_555 1_555
O2_7 C12_7 1_555 1_555
C1_7 H2_7 1_555 1_555
C2_7 C12_7 1_555 1_555
C3_7 H3_7 1_555 1_555
O11_3 C12_7 1_555 1_555
C4_7 O4_4 1_555 1_555
C5_7 C9_7 1_555 1_555
O16_4 C4_7 1_555 1_555
C7_7 C1_7 1_555 1_555
C9_7 C1_7 1_555 1_555
H4_7 C9_7 1_555 1_555
C10_7 O1_7 1_555 1_555
C15_7 C2_7 1_555 1_555
H8_7 C15_7 1_555 1_555
C16_7 C3_7 1_555 1_555
H9_7 C16_7 1_555 1_555
C17_7 C2_7 1_555 1_555
H10_7 C17_7 1_555 1_555
C18_7 C10_7 1_555 1_555
H11_7 C18_7 1_555 1_555
C19_7 C10_7 1_555 1_555
H12_7 C19_7 1_555 1_555
O6_7 C33_7 1_555 1_555
C29_7 H23_7 1_555 1_555
C30_7 C37_7 1_555 1_555
C31_7 H24_7 1_555 1_555
O12_3 C37_7 1_555 1_555
C32_7 O9_4 1_555 1_555
O9_4 Zn7_2 1_555 1_555
C33_7 C35_7 1_555 1_555
O15_4 C32_7 1_555 1_555
C34_7 C29_7 1_555 1_555
C35_7 C29_7 1_555 1_555
H25_7 C35_7 1_555 1_555
C36_7 O6_7 1_555 1_555
C37_7 O7_7 1_555 1_555
C38_7 C30_7 1_555 1_555
H26_7 C38_7 1_555 1_555
C39_7 C31_7 1_555 1_555
H27_7 C39_7 1_555 1_555
C40_7 C30_7 1_555 1_555
H28_7 C40_7 1_555 1_555
C41_7 C36_7 1_555 1_555
H29_7 C41_7 1_555 1_555
C42_7 C36_7 1_555 1_555
H30_7 C42_7 1_555 1_555
C3_7 C7_7 1_555 1_555
C4_7 C7_7 1_555 1_555
C5_7 C16_7 1_555 1_555
C15_7 C18_7 1_555 1_555
C17_7 C19_7 1_555 1_555
C31_7 C34_7 1_555 1_555
C32_7 C34_7 1_555 1_555
C33_7 C39_7 1_555 1_555
C38_7 C41_7 1_555 1_555
C40_7 C42_7 1_555 1_555
H5_8 C11_8 1_555 1_555
H6_8 C13_8 1_555 1_555
N3_8 H16_8 1_555 1_555
C22_8 C23_8 1_555 1_555
C26_8 C22_8 1_555 1_555
H19_8 C26_8 1_555 1_555
C27_8 N4_8 1_555 1_555
H20_8 C27_8 1_555 1_555
H21_8 C28_8 1_555 1_555
Zn7_2 N4_8 1_555 1_555
O6_8 C33_8 1_555 1_555
O7_8 Zn7_2 1_555 1_555
C29_8 H23_8 1_555 1_555
C30_8 C37_8 1_555 1_555
C31_8 H24_8 1_555 1_555
O12_4 C37_8 1_555 1_555
C32_8 O13_4 1_555 1_555
C33_8 C35_8 1_555 1_555
C34_8 C29_8 1_555 1_555
C35_8 C29_8 1_555 1_555
H25_8 C35_8 1_555 1_555
C36_8 O6_8 1_555 1_555
C37_8 O7_8 1_555 1_555
C38_8 C30_8 1_555 1_555
H26_8 C38_8 1_555 1_555
C39_8 C31_8 1_555 1_555
H27_8 C39_8 1_555 1_555
C40_8 C30_8 1_555 1_555
H28_8 C40_8 1_555 1_555
C41_8 C36_8 1_555 1_555
H29_8 C41_8 1_555 1_555
C42_8 C36_8 1_555 1_555
H30_8 C42_8 1_555 1_555
C11_8 C13_8 1_555 1_555
N3_8 C23_8 1_555 1_555
N3_8 C28_8 1_555 1_555
C26_8 C27_8 1_555 1_555
C31_8 C34_8 1_555 1_555
C32_8 C34_8 1_555 1_555
C33_8 C39_8 1_555 1_555
C38_8 C41_8 1_555 1_555
C40_8 C42_8 1_555 1_555
Zn8_2 O2_8 1_555 1_555
O1_8 C5_8 1_555 1_555
N1_8 H1_8 1_555 1_555
O2_8 C12_8 1_555 1_555
C1_8 H2_8 1_555 1_555
C2_8 C12_8 1_555 1_555
C3_8 H3_8 1_555 1_555
O11_4 C12_8 1_555 1_555
C4_8 O14_4 1_555 1_555
N2_8 Zn8_2 1_555 1_555
C5_8 C9_8 1_555 1_555
C6_8 C8_8 1_555 1_555
C7_8 C1_8 1_555 1_555
C8_8 N1_8 1_555 1_555
C9_8 C1_8 1_555 1_555
H4_8 C9_8 1_555 1_555
C10_8 O1_8 1_555 1_555
C14_8 C6_8 1_555 1_555
H7_8 C14_8 1_555 1_555
C15_8 C2_8 1_555 1_555
H8_8 C15_8 1_555 1_555
C16_8 C3_8 1_555 1_555
H9_8 C16_8 1_555 1_555
C17_8 C2_8 1_555 1_555
H10_8 C17_8 1_555 1_555
C18_8 C10_8 1_555 1_555
H11_8 C18_8 1_555 1_555
C19_8 C10_8 1_555 1_555
H12_8 C19_8 1_555 1_555
C20_8 N2_8 1_555 1_555
H13_8 C20_8 1_555 1_555
C21_8 N1_8 1_555 1_555
H14_8 C21_8 1_555 1_555
C24_8 H17_8 1_555 1_555
H18_8 C25_8 1_555 1_555
C3_8 C7_8 1_555 1_555
C4_8 C7_8 1_555 1_555
C5_8 C16_8 1_555 1_555
C14_8 C20_8 1_555 1_555
C15_8 C18_8 1_555 1_555
C17_8 C19_8 1_555 1_555
C24_8 C25_8 1_555 1_555

#END
