
###############################################################################
#
# This file contains modified crystal structure data generated from the
# MOF subset of the Cambridge Structural Database (CSD) v543 
# hosted by the Cambridge Crystallographic Data Centre (CCDC).
#
# This work is licensed under the Creative Commons
# Attribution-NonCommercial-ShareAlike 4.0 International License.
# To view a copy of this license, visit
# http://creativecommons.org/licenses/by-nc-sa/4.0/
# or send a letter to
# Creative Commons, PO Box 1866, Mountain View, CA 94042, USA.
#
# CIF created using the CSD Python API on 29 September 2022
# The structure has been converted into the P1 space group
# The structure has a 3D framework
# The original CSD entry WOHBIF is in the monoclinic crystal system
# The original CSD entry WOHBIF is in a Sohncke space group
# The framework has been calculated to contain at least 10.0% void space
# The void calculation uses a probe of radius 1.32A, grid spacing 0.4
#
###############################################################################

data_WOHBIF
_chemical_formula_moiety         '(C88 H96 Cu8 N4 O32)n'
_symmetry_cell_setting           triclinic
_symmetry_space_group_name_H-M   'P 1'
_symmetry_Int_Tables_number      1
_space_group_name_Hall           'P 1'
loop_
_symmetry_equiv_pos_site_id
_symmetry_equiv_pos_as_xyz
1 x,y,z
_cell_length_a                   20.9211(3)
_cell_length_b                   13.7081(3)
_cell_length_c                   9.1075(2)
_cell_angle_alpha                90
_cell_angle_beta                 103.665(2)
_cell_angle_gamma                90
_cell_volume                     2537.99
loop_
_atom_site_label
_atom_site_type_symbol
_atom_site_fract_x
_atom_site_fract_y
_atom_site_fract_z
Cu6 Cu 0.30547(3) 0.06581(4) 0.82927(7)
Cu1 Cu 0.30000(3) 0.47371(4) 0.31601(7)
Cu2 Cu 0.19453(3) 0.56581(4) 0.17073(7)
O1 O 0.24601(17) 0.4650(3) 0.4659(4)
O2 O 0.15064(19) 0.5259(3) 0.3318(4)
O3 O 0.17024(18) 0.1043(3) 0.6062(4)
O4 O 0.26516(19) 0.1789(3) 0.7087(4)
O5 O 0.33976(19) 0.4980(3) 0.1436(4)
O6 O 0.25273(19) 0.5881(3) 0.0318(4)
N1 N 0.3781(2) 0.3983(3) 0.4703(5)
C1 C 0.4258(4) 0.4435(5) 0.5654(8)
H1 H 0.4275 0.5126 0.5592
C2 C 0.4732(4) 0.3982(5) 0.6724(7)
H2 H 0.5072 0.4356 0.7351
C3 C 0.4720(3) 0.3005(5) 0.6893(6)
C4 C 0.4218(4) 0.2524(6) 0.5931(10)
H3 H 0.4181 0.1836 0.6005
C5 C 0.3766(4) 0.3029(5) 0.4858(9)
H4 H 0.3428 0.2672 0.4196
C6 C 0.6222(3) 0.2401(5) 0.9966(7)
C7 C 0.5775(3) 0.2926(5) 0.8906(7)
H6 H 0.5844 0.3602 0.8774
C8 C 0.5228(3) 0.2466(4) 0.8035(5)
C9 C 0.5178(3) 0.1467(4) 0.8248(6)
H7 H 0.4822 0.1108 0.7652
C10 C 0.5653(3) 0.1001(5) 0.9336(5)
H8 H 0.5612 0.0319 0.9468
C11 C 0.1860(2) 0.4831(4) 0.4456(5)
C12 C 0.1517(3) 0.4485(4) 0.5679(5)
H9 H 0.1047 0.4332 0.5188
C13 C 0.1837(3) 0.3572(4) 0.6504(6)
H10 H 0.2303 0.3717 0.6992
H11 H 0.1611 0.3401 0.7309
C14 C 0.1809(3) 0.2705(4) 0.5449(6)
H12 H 0.1346 0.2591 0.4906
H13 H 0.2062 0.2860 0.4688
C15 C 0.2079(3) 0.1791(4) 0.6268(5)
C16 C 0.1532(3) 0.5323(4) 0.6797(6)
H14 H 0.1322 0.5900 0.6253
H15 H 0.1989 0.5476 0.7295
H16 H 0.1294 0.5130 0.7558
C17 C 0.3094(3) 0.5547(4) 0.0408(5)
H20 H 0.3093 0.7504 0.0385
H24 H 0.4315 0.6226 0.0439
O9 O 0.32976(18) 0.6043(3) 0.3938(4)
O10 O 0.23484(19) 0.6789(3) 0.2913(4)
O11 O 0.25411(19) 0.3568(3) 0.2150(4)
O12 O 0.16799(19) 0.4376(3) 0.0760(4)
N3 N 0.1171(2) 0.6462(4) 0.0216(5)
O7 O 0.24589(19) 0.8568(3) 0.7850(4)
O8 O 0.33201(19) 0.9376(3) 0.9240(4)
C18 C 0.3422(3) 0.5810(4) 0.9137(6)
H17 H 0.3281 0.5306 0.8331
C19 C 0.3180(3) 0.6797(5) 0.8426(6)
H18 H 0.3406 0.6936 0.7609
H19 H 0.2703 0.6747 0.7959
C20 C 0.32919(18) 0.7659(3) 0.9528(4)
H21 H 0.3771 0.7745 0.9939
C21 C 0.30020(18) 0.8617(3) 0.8809(4)
C22 C 0.41566(18) 0.5768(3) 0.9608(4)
H22 H 0.4341 0.5944 0.8750
H23 H 0.4295 0.5105 0.9943
Cu4 Cu 0.20000(3) 0.97371(4) 0.68399(7)
N2 N 0.3829(2) 0.1462(4) 0.9784(5)
H5 H 0.3409 0.2739 0.9444
H5_2 H 0.1591 0.7739 0.0556
C18_2 C 0.1578(3) 0.0810(4) 0.0863(6)
H17_2 H 0.1719 0.0306 0.1669
C19_2 C 0.1820(3) 0.1797(5) 0.1574(6)
H18_2 H 0.1594 0.1936 0.2391
H19_2 H 0.2297 0.1747 0.2041
C20_2 C 0.17081(18) 0.2659(3) 0.0472(4)
H21_2 H 0.1229 0.2745 0.0061
C21_2 C 0.19980(18) 0.3617(3) 0.1191(4)
C22_2 C 0.08434(18) 0.0768(3) 0.0392(4)
H22_2 H 0.0659 0.0944 0.1250
H23_2 H 0.0705 0.0105 0.0057
O2_2 O 0.34936(19) 0.0259(3) 0.6682(4)
O6_2 O 0.24727(19) 0.0881(3) 0.9682(4)
H1_2 H 0.0725 0.0126 0.4408
C16_2 C 0.3468(3) 0.0323(4) 0.3203(6)
H14_2 H 0.3678 0.0900 0.3747
H15_2 H 0.3011 0.0476 0.2705
H16_2 H 0.3706 0.0130 0.2442
C17_2 C 0.1906(3) 0.0547(4) 0.9592(5)
H20_2 H 0.1907 0.2504 0.9615
H24_2 H 0.0685 0.1226 0.9561
O1_2 O 0.25399(17) 0.9650(3) 0.5341(4)
O5_2 O 0.16024(19) 0.9980(3) 0.8564(4)
N1_2 N 0.1219(2) 0.8983(3) 0.5297(5)
C1_2 C 0.0742(4) 0.9435(5) 0.4346(8)
C2_2 C 0.0268(4) 0.8982(5) 0.3276(7)
C3_2 C 0.0280(3) 0.8005(5) 0.3107(6)
C4_2 C 0.0782(4) 0.7524(6) 0.4069(10)
H3_2 H 0.0819 0.6836 0.3995
C5_2 C 0.1234(4) 0.8029(5) 0.5142(9)
H4_2 H 0.1572 0.7672 0.5804
H7_2 H 0.0178 0.6108 0.2348
C11_2 C 0.3140(2) 0.9831(4) 0.5544(5)
C12_2 C 0.3483(3) 0.9485(4) 0.4321(5)
H9_2 H 0.3953 0.9332 0.4812
C13_2 C 0.3163(3) 0.8572(4) 0.3496(6)
H10_2 H 0.2697 0.8717 0.3008
H11_2 H 0.3389 0.8401 0.2691
C14_2 C 0.3191(3) 0.7705(4) 0.4551(6)
H12_2 H 0.3654 0.7591 0.5094
H13_2 H 0.2938 0.7860 0.5312
C15_2 C 0.2921(3) 0.6791(4) 0.3732(5)
N2_2 N 0.6171(2) 0.1462(4) 0.0216(5)
H5_3 H 0.6591 0.2739 0.0556
Cu7 Cu 0.69453(3) 0.06581(4) 0.17073(7)
O7_2 O 0.75411(19) 0.8568(3) 0.2150(4)
O8_2 O 0.66799(19) 0.9376(3) 0.0760(4)
C18_3 C 0.6578(3) 0.5810(4) 0.0863(6)
H17_3 H 0.6719 0.5306 0.1669
C19_3 C 0.6820(3) 0.6797(5) 0.1574(6)
H18_3 H 0.6594 0.6936 0.2391
H19_3 H 0.7297 0.6747 0.2041
C20_3 C 0.67081(18) 0.7659(3) 0.0472(4)
H21_3 H 0.6229 0.7745 0.0061
C21_3 C 0.69980(18) 0.8617(3) 0.1191(4)
C22_3 C 0.58434(18) 0.5768(3) 0.0392(4)
H22_3 H 0.5659 0.5944 0.1250
H23_3 H 0.5705 0.5105 0.0057
Cu4_2 Cu 0.80000(3) 0.97371(4) 0.31601(7)
Cu1_2 Cu 0.70000(3) 0.47371(4) 0.68399(7)
Cu2_2 Cu 0.80547(3) 0.56581(4) 0.82927(7)
O1_3 O 0.75399(17) 0.4650(3) 0.5341(4)
O2_3 O 0.84936(19) 0.5259(3) 0.6682(4)
O3_2 O 0.82976(18) 0.1043(3) 0.3938(4)
O4_2 O 0.73484(19) 0.1789(3) 0.2913(4)
O5_3 O 0.66024(19) 0.4980(3) 0.8564(4)
O6_3 O 0.74727(19) 0.5881(3) 0.9682(4)
N1_3 N 0.6219(2) 0.3983(3) 0.5297(5)
C1_3 C 0.5742(4) 0.4435(5) 0.4346(8)
H1_3 H 0.5725 0.5126 0.4408
C2_3 C 0.5268(4) 0.3982(5) 0.3276(7)
H2_2 H 0.4928 0.4356 0.2649
C3_3 C 0.5280(3) 0.3005(5) 0.3107(6)
C4_3 C 0.5782(4) 0.2524(6) 0.4069(10)
H3_3 H 0.5819 0.1836 0.3995
C5_3 C 0.6234(4) 0.3029(5) 0.5142(9)
H4_3 H 0.6572 0.2672 0.5804
C6_2 C 0.3778(3) 0.2401(5) 0.0034(7)
C7_2 C 0.4225(3) 0.2926(5) 0.1094(7)
H6_2 H 0.4156 0.3602 0.1226
C8_2 C 0.4772(3) 0.2466(4) 0.1965(5)
C9_2 C 0.4822(3) 0.1467(4) 0.1752(6)
H7_3 H 0.5178 0.1108 0.2348
C10_2 C 0.4347(3) 0.1001(5) 0.0664(5)
H8_2 H 0.4388 0.0319 0.0532
C11_3 C 0.8140(2) 0.4831(4) 0.5544(5)
C12_3 C 0.8483(3) 0.4485(4) 0.4321(5)
H9_3 H 0.8953 0.4332 0.4812
C13_3 C 0.8163(3) 0.3572(4) 0.3496(6)
H10_3 H 0.7697 0.3717 0.3008
H11_3 H 0.8389 0.3401 0.2691
C14_3 C 0.8191(3) 0.2705(4) 0.4551(6)
H12_3 H 0.8654 0.2591 0.5094
H13_3 H 0.7938 0.2860 0.5312
C15_3 C 0.7921(3) 0.1791(4) 0.3732(5)
C16_3 C 0.8468(3) 0.5323(4) 0.3203(6)
H14_3 H 0.8678 0.5900 0.3747
H15_3 H 0.8011 0.5476 0.2705
H16_3 H 0.8706 0.5130 0.2442
C17_3 C 0.6906(3) 0.5547(4) 0.9592(5)
H20_3 H 0.6907 0.7504 0.9615
H24_3 H 0.5685 0.6226 0.9561
O9_2 O 0.67024(18) 0.6043(3) 0.6062(4)
O10_2 O 0.76516(19) 0.6789(3) 0.7087(4)
O11_2 O 0.74589(19) 0.3568(3) 0.7850(4)
O12_2 O 0.83201(19) 0.4376(3) 0.9240(4)
N3_2 N 0.8829(2) 0.6462(4) 0.9784(5)
O2_4 O 0.65064(19) 0.0259(3) 0.3318(4)
O6_4 O 0.75273(19) 0.0881(3) 0.0318(4)
H1_4 H 0.9275 0.0126 0.5592
C16_4 C 0.6532(3) 0.0323(4) 0.6797(6)
H14_4 H 0.6322 0.0900 0.6253
H15_4 H 0.6989 0.0476 0.7295
H16_4 H 0.6294 0.0130 0.7558
C17_4 C 0.8094(3) 0.0547(4) 0.0408(5)
H20_4 H 0.8093 0.2504 0.0385
H24_4 H 0.9315 0.1226 0.0439
C18_4 C 0.8422(3) 0.0810(4) 0.9137(6)
H17_4 H 0.8281 0.0306 0.8331
C19_4 C 0.8180(3) 0.1797(5) 0.8426(6)
H18_4 H 0.8406 0.1936 0.7609
H19_4 H 0.7703 0.1747 0.7959
C20_4 C 0.82919(18) 0.2659(3) 0.9528(4)
H21_4 H 0.8771 0.2745 0.9939
C21_4 C 0.80020(18) 0.3617(3) 0.8809(4)
C22_4 C 0.91566(18) 0.0768(3) 0.9608(4)
H22_4 H 0.9341 0.0944 0.8750
H23_4 H 0.9295 0.0105 0.9943
O1_4 O 0.74601(17) 0.9650(3) 0.4659(4)
O5_4 O 0.83976(19) 0.9980(3) 0.1436(4)
N1_4 N 0.8781(2) 0.8983(3) 0.4703(5)
C1_4 C 0.9258(4) 0.9435(5) 0.5654(8)
C2_4 C 0.9732(4) 0.8982(5) 0.6724(7)
C3_4 C 0.9720(3) 0.8005(5) 0.6893(6)
C4_4 C 0.9218(4) 0.7524(6) 0.5931(10)
H3_4 H 0.9181 0.6836 0.6005
C5_4 C 0.8766(4) 0.8029(5) 0.4858(9)
H4_4 H 0.8428 0.7672 0.4196
H7_4 H 0.9822 0.6108 0.7652
C11_4 C 0.6860(2) 0.9831(4) 0.4456(5)
C12_4 C 0.6517(3) 0.9485(4) 0.5679(5)
H9_4 H 0.6047 0.9332 0.5188
C13_4 C 0.6837(3) 0.8572(4) 0.6504(6)
H10_4 H 0.7303 0.8717 0.6992
H11_4 H 0.6611 0.8401 0.7309
C14_4 C 0.6809(3) 0.7705(4) 0.5449(6)
H12_4 H 0.6346 0.7591 0.4906
H13_4 H 0.7062 0.7860 0.4688
C15_4 C 0.7079(3) 0.6791(4) 0.6268(5)
H5_4 H 0.8409 0.7739 0.9444
H2_3 H 0.0072 0.9356 0.7351
C6_3 C 0.1222(3) 0.7401(5) 0.9966(7)
C7_3 C 0.0775(3) 0.7926(5) 0.8906(7)
H6_3 H 0.0844 0.8602 0.8774
C8_3 C 0.0228(3) 0.7466(4) 0.8035(5)
C9_3 C 0.0178(3) 0.6467(4) 0.8248(6)
C10_3 C 0.0653(3) 0.6001(5) 0.9336(5)
H8_3 H 0.0612 0.5319 0.9468
H2_4 H 0.9928 0.9356 0.2649
C6_4 C 0.8778(3) 0.7401(5) 0.0034(7)
C7_4 C 0.9225(3) 0.7926(5) 0.1094(7)
H6_4 H 0.9156 0.8602 0.1226
C8_4 C 0.9772(3) 0.7466(4) 0.1965(5)
C9_4 C 0.9822(3) 0.6467(4) 0.1752(6)
C10_4 C 0.9347(3) 0.6001(5) 0.0664(5)
H8_4 H 0.9388 0.5319 0.0532
loop_
_geom_bond_atom_site_label_1
_geom_bond_atom_site_label_2
_geom_bond_site_symmetry_1
_geom_bond_site_symmetry_2
Cu1 O1 1_555 1_555
Cu2 O2 1_555 1_555
O1 C11 1_555 1_555
O2 C11 1_555 1_555
O3 C15 1_555 1_555
O4 C15 1_555 1_555
O5 Cu1 1_555 1_555
O6 Cu2 1_555 1_555
N1 Cu1 1_555 1_555
C1 N1 1_555 1_555
H1 C1 1_555 1_555
C2 C1 1_555 1_555
H2 C2 1_555 1_555
C3 C2 1_555 1_555
C4 C3 1_555 1_555
H3 C4 1_555 1_555
C5 N1 1_555 1_555
H4 C5 1_555 1_555
C7 C6 1_555 1_555
H6 C7 1_555 1_555
C8 C3 1_555 1_555
C9 C8 1_555 1_555
H7 C9 1_555 1_555
H8 C10 1_555 1_555
C11 C12 1_555 1_555
C12 H9 1_555 1_555
C13 C12 1_555 1_555
H10 C13 1_555 1_555
H11 C13 1_555 1_555
C14 C13 1_555 1_555
H12 C14 1_555 1_555
H13 C14 1_555 1_555
C15 C14 1_555 1_555
C16 C12 1_555 1_555
H14 C16 1_555 1_555
H15 C16 1_555 1_555
H16 C16 1_555 1_555
C17 O5 1_555 1_555
Cu6 O4 1_555 1_555
O9 Cu1 1_555 1_555
O10 Cu2 1_555 1_555
O11 Cu1 1_555 1_555
O12 Cu2 1_555 1_555
N3 Cu2 1_555 1_555
O6 C17 1_555 1_555
C4 C5 1_555 1_555
C7 C8 1_555 1_555
C9 C10 1_555 1_555
O7 C21 1_555 1_555
O8 C21 1_555 1_555
H17 C18 1_555 1_555
C19 C18 1_555 1_555
H18 C19 1_555 1_555
H19 C19 1_555 1_555
C20 C19 1_555 1_555
H21 C20 1_555 1_555
C21 C20 1_555 1_555
C22 C18 1_555 1_555
H22 C22 1_555 1_555
H23 C22 1_555 1_555
Cu4 O7 1_555 1_555
Cu6 N2 1_555 1_555
O11 C21_2 1_555 1_555
O12 C21_2 1_555 1_555
H17_2 C18_2 1_555 1_555
C19_2 C18_2 1_555 1_555
H18_2 C19_2 1_555 1_555
H19_2 C19_2 1_555 1_555
C20_2 C19_2 1_555 1_555
H21_2 C20_2 1_555 1_555
C21_2 C20_2 1_555 1_555
C22_2 C18_2 1_555 1_555
H22_2 C22_2 1_555 1_555
H23_2 C22_2 1_555 1_555
Cu6 O2_2 1_555 1_555
O6_2 Cu6 1_555 1_555
H14_2 C16_2 1_555 1_555
H15_2 C16_2 1_555 1_555
H16_2 C16_2 1_555 1_555
O6_2 C17_2 1_555 1_555
Cu4 O1_2 1_555 1_555
O1_2 C11_2 1_555 1_555
O9 C15_2 1_555 1_555
O10 C15_2 1_555 1_555
O5_2 Cu4 1_555 1_555
N1_2 Cu4 1_555 1_555
C1_2 N1_2 1_555 1_555
C2_2 C1_2 1_555 1_555
C3_2 C2_2 1_555 1_555
C4_2 C3_2 1_555 1_555
H3_2 C4_2 1_555 1_555
C5_2 N1_2 1_555 1_555
H4_2 C5_2 1_555 1_555
C11_2 C12_2 1_555 1_555
C12_2 H9_2 1_555 1_555
C13_2 C12_2 1_555 1_555
H10_2 C13_2 1_555 1_555
H11_2 C13_2 1_555 1_555
C14_2 C13_2 1_555 1_555
H12_2 C14_2 1_555 1_555
H13_2 C14_2 1_555 1_555
C15_2 C14_2 1_555 1_555
C4_2 C5_2 1_555 1_555
Cu7 N2_2 1_555 1_555
O7_2 C21_3 1_555 1_555
O8_2 C21_3 1_555 1_555
H17_3 C18_3 1_555 1_555
C19_3 C18_3 1_555 1_555
H18_3 C19_3 1_555 1_555
H19_3 C19_3 1_555 1_555
C20_3 C19_3 1_555 1_555
H21_3 C20_3 1_555 1_555
C21_3 C20_3 1_555 1_555
C22_3 C18_3 1_555 1_555
H22_3 C22_3 1_555 1_555
H23_3 C22_3 1_555 1_555
Cu4_2 O7_2 1_555 1_555
Cu1_2 O1_3 1_555 1_555
Cu2_2 O2_3 1_555 1_555
O1_3 C11_3 1_555 1_555
O2_3 C11_3 1_555 1_555
O3_2 C15_3 1_555 1_555
O4_2 C15_3 1_555 1_555
O5_3 Cu1_2 1_555 1_555
O6_3 Cu2_2 1_555 1_555
N1_3 Cu1_2 1_555 1_555
C1_3 N1_3 1_555 1_555
H1_3 C1_3 1_555 1_555
C2_3 C1_3 1_555 1_555
H2_2 C2_3 1_555 1_555
C3_3 C2_3 1_555 1_555
C4_3 C3_3 1_555 1_555
H3_3 C4_3 1_555 1_555
C5_3 N1_3 1_555 1_555
H4_3 C5_3 1_555 1_555
C7_2 C6_2 1_555 1_555
H6_2 C7_2 1_555 1_555
C8_2 C3_3 1_555 1_555
C9_2 C8_2 1_555 1_555
H7_3 C9_2 1_555 1_555
H8_2 C10_2 1_555 1_555
C11_3 C12_3 1_555 1_555
C12_3 H9_3 1_555 1_555
C13_3 C12_3 1_555 1_555
H10_3 C13_3 1_555 1_555
H11_3 C13_3 1_555 1_555
C14_3 C13_3 1_555 1_555
H12_3 C14_3 1_555 1_555
H13_3 C14_3 1_555 1_555
C15_3 C14_3 1_555 1_555
C16_3 C12_3 1_555 1_555
H14_3 C16_3 1_555 1_555
H15_3 C16_3 1_555 1_555
H16_3 C16_3 1_555 1_555
C17_3 O5_3 1_555 1_555
Cu7 O4_2 1_555 1_555
O9_2 Cu1_2 1_555 1_555
O10_2 Cu2_2 1_555 1_555
O11_2 Cu1_2 1_555 1_555
O12_2 Cu2_2 1_555 1_555
N3_2 Cu2_2 1_555 1_555
O6_3 C17_3 1_555 1_555
C4_3 C5_3 1_555 1_555
C7_2 C8_2 1_555 1_555
C9_2 C10_2 1_555 1_555
Cu7 O2_4 1_555 1_555
O6_4 Cu7 1_555 1_555
H14_4 C16_4 1_555 1_555
H15_4 C16_4 1_555 1_555
H16_4 C16_4 1_555 1_555
O6_4 C17_4 1_555 1_555
O11_2 C21_4 1_555 1_555
O12_2 C21_4 1_555 1_555
H17_4 C18_4 1_555 1_555
C19_4 C18_4 1_555 1_555
H18_4 C19_4 1_555 1_555
H19_4 C19_4 1_555 1_555
C20_4 C19_4 1_555 1_555
H21_4 C20_4 1_555 1_555
C21_4 C20_4 1_555 1_555
C22_4 C18_4 1_555 1_555
H22_4 C22_4 1_555 1_555
H23_4 C22_4 1_555 1_555
Cu4_2 O1_4 1_555 1_555
O1_4 C11_4 1_555 1_555
O9_2 C15_4 1_555 1_555
O10_2 C15_4 1_555 1_555
O5_4 Cu4_2 1_555 1_555
N1_4 Cu4_2 1_555 1_555
C1_4 N1_4 1_555 1_555
C2_4 C1_4 1_555 1_555
C3_4 C2_4 1_555 1_555
C4_4 C3_4 1_555 1_555
H3_4 C4_4 1_555 1_555
C5_4 N1_4 1_555 1_555
H4_4 C5_4 1_555 1_555
C11_4 C12_4 1_555 1_555
C12_4 H9_4 1_555 1_555
C13_4 C12_4 1_555 1_555
H10_4 C13_4 1_555 1_555
H11_4 C13_4 1_555 1_555
C14_4 C13_4 1_555 1_555
H12_4 C14_4 1_555 1_555
H13_4 C14_4 1_555 1_555
C15_4 C14_4 1_555 1_555
C4_4 C5_4 1_555 1_555
C7_3 C6_3 1_555 1_555
H6_3 C7_3 1_555 1_555
C9_3 C8_3 1_555 1_555
H8_3 C10_3 1_555 1_555
C7_3 C8_3 1_555 1_555
C9_3 C10_3 1_555 1_555
C7_4 C6_4 1_555 1_555
H6_4 C7_4 1_555 1_555
C9_4 C8_4 1_555 1_555
H8_4 C10_4 1_555 1_555
C7_4 C8_4 1_555 1_555
C9_4 C10_4 1_555 1_555

#END
