
###############################################################################
#
# This file contains modified crystal structure data generated from the
# MOF subset of the Cambridge Structural Database (CSD) v543 
# hosted by the Cambridge Crystallographic Data Centre (CCDC).
#
# This work is licensed under the Creative Commons
# Attribution-NonCommercial-ShareAlike 4.0 International License.
# To view a copy of this license, visit
# http://creativecommons.org/licenses/by-nc-sa/4.0/
# or send a letter to
# Creative Commons, PO Box 1866, Mountain View, CA 94042, USA.
#
# CIF created using the CSD Python API on 29 September 2022
# The structure has been converted into the P1 space group
# The structure has a 3D framework
# The original CSD entry WOHSIV is in the orthorhombic crystal system
# The original CSD entry WOHSIV is in a Sohncke space group
# The framework has been calculated to contain at least 10.0% void space
# The void calculation uses a probe of radius 1.32A, grid spacing 0.4
#
###############################################################################

data_WOHSIV
_chemical_formula_moiety         '(C154 H108 Cu8 N24 Na2 O20)n'
_symmetry_cell_setting           triclinic
_symmetry_space_group_name_H-M   'P 1'
_symmetry_Int_Tables_number      1
_space_group_name_Hall           'P 1'
loop_
_symmetry_equiv_pos_site_id
_symmetry_equiv_pos_as_xyz
1 x,y,z
_cell_length_a                   8.975(9)
_cell_length_b                   19.243(3)
_cell_length_c                   21.130(7)
_cell_angle_alpha                90
_cell_angle_beta                 90
_cell_angle_gamma                90
_cell_volume                     3649.28
loop_
_atom_site_label
_atom_site_type_symbol
_atom_site_fract_x
_atom_site_fract_y
_atom_site_fract_z
C2 C 0.174(3) 0.000(1) 0.425(1)
C21 C 0.219(3) 0.0268(9) 0.7023(9)
C22 C 0.159(3) 0.088(1) 0.683(1)
C23 C 0.165(3) 0.1101(9) 0.620(1)
C24 C 0.233(3) 0.068(1) 0.5784(9)
C25 C 0.292(3) 0.0060(9) 0.5980(8)
H2 H 0.14903 0.04656 0.43755
H3 H 0.35191 0.02103 0.36558
H18 H 0.21877 0.01227 0.74931
H19 H 0.11085 0.12041 0.71403
H20 H 0.11536 0.15426 0.60804
H21 H 0.23757 0.08199 0.53445
Na3 Na 0.6360(9) 0.0049(3) 0.8354(3)
O7 O 0.032(2) 0.0397(7) 0.2668(6)
Cu2 Cu 0.2963(2) 0.8254(1) 0.6375(1)
O1 O 0.148(1) 0.8544(5) 0.5807(5)
O4 O 0.468(2) 0.9603(7) 0.7668(6)
O5 O 0.357(2) 0.6204(6) 0.6678(6)
N4 N 0.354(2) 0.9183(7) 0.6774(6)
N5 N 0.425(2) 0.7929(8) 0.7042(6)
N6 N 0.315(2) 0.7248(7) 0.6141(6)
C1 C 0.093(2) 0.945(1) 0.4527(8)
C2_2 C 0.174(3) 1.000(1) 0.425(1)
C3 C 0.281(3) 0.985(1) 0.381(1)
C4 C 0.307(3) 0.916(1) 0.363(1)
C5 C 0.226(2) 0.865(1) 0.388(1)
C6 C 0.122(2) 0.877(1) 0.4315(9)
C15 C 0.056(3) 0.864(1) 0.782(1)
C16 C 0.116(3) 0.812(1) 0.817(1)
C17 C 0.118(3) 0.745(1) 0.794(1)
C18 C 0.060(2) 0.732(1) 0.735(1)
C19 C 0.003(3) 0.7843(9) 0.7002(8)
C20 C 0.293(2) 0.9849(8) 0.6599(8)
C26 C 0.430(2) 0.915(1) 0.7298(8)
C27 C 0.489(3) 0.8402(8) 0.7429(8)
C28 C 0.582(3) 0.819(1) 0.788(1)
C29 C 0.613(3) 0.750(1) 0.794(1)
C30 C 0.544(2) 0.7005(9) 0.753(1)
C31 C 0.449(2) 0.7256(9) 0.7103(9)
C32 C 0.368(2) 0.6846(8) 0.6598(9)
C33 C 0.241(2) 0.6927(8) 0.5606(9)
C34 C 0.274(2) 0.7173(8) 0.5026(9)
C35 C 0.211(3) 0.687(1) 0.4482(9)
C36 C 0.107(2) 0.635(1) 0.452(1)
C37 C 0.072(3) 0.612(1) 0.513(1)
C38 C 0.134(2) 0.639(1) 0.567(1)
H1 H 0.15204 0.83077 0.53941
H4 H 0.37271 0.90661 0.32823
H5 H 0.25180 0.81551 0.37397
H6 H 0.06527 0.83582 0.44832
H10 H 0.03497 0.90809 0.80218
H11 H 0.16100 0.82079 0.86014
H12 H 0.15800 0.70729 0.81978
H13 H 0.05986 0.68374 0.71999
H15 H 0.62060 0.85293 0.82164
H16 H 0.68867 0.73289 0.82499
H17 H 0.55731 0.65070 0.75789
H22 H 0.34034 0.97392 0.56769
H23 H 0.33873 0.75637 0.49716
H24 H 0.23756 0.70133 0.40571
H25 H 0.06021 0.61704 0.41312
H27 H 0.10199 0.62276 0.60901
Na4 Na 0.3640(9) 0.5049(3) 0.6646(3)
O2 O 0.843(1) 0.0351(7) 0.4393(6)
C7 C 0.879(2) 0.0061(8) 0.4905(9)
C8 C 0.801(2) 0.0254(8) 0.5487(8)
C9 C 0.692(2) 0.079(1) 0.5551(8)
C10 C 0.634(3) 0.088(1) 0.614(1)
C11 C 0.685(2) 0.055(1) 0.6658(9)
C12 C 0.792(2) 0.0036(9) 0.6585(8)
H7 H 0.65949 0.10712 0.51917
H8 H 0.55629 0.12600 0.61990
H9 H 0.65425 0.06942 0.70908
O6 O 0.678(2) 0.0370(7) 0.2638(6)
Cu1 Cu 0.9916(3) 0.9201(1) 0.58981(9)
Na1 Na 0.8640(9) 0.9951(3) 0.3354(3)
O3 O 0.822(2) 0.9630(7) 0.7638(6)
N1 N 0.982(2) 0.9580(7) 0.5007(6)
N2 N 0.847(1) 0.9918(7) 0.6006(6)
N3 N 0.938(2) 0.9041(7) 0.6818(6)
C13 C 0.853(2) 0.9545(9) 0.7071(7)
C14 C 0.997(3) 0.8525(9) 0.7236(8)
H14 H 0.96501 0.77268 0.65891
H26 H 0.99614 0.57663 0.51521
O8 O 0.857(2) 0.8796(6) 0.3322(6)
Cu1_2 Cu 0.5084(3) 0.0799(1) 0.08981(9)
Cu2_2 Cu 0.2037(2) 0.1746(1) 0.1375(1)
O1_2 O 0.352(1) 0.1456(5) 0.0807(5)
O5_2 O 0.143(2) 0.3796(6) 0.1678(6)
N1_2 N 0.518(2) 0.0420(7) 0.0007(6)
N2_2 N 0.653(1) 0.0082(7) 0.1006(6)
N3_2 N 0.562(2) 0.0959(7) 0.1818(6)
N4_2 N 0.146(2) 0.0817(7) 0.1774(6)
N5_2 N 0.075(2) 0.2071(8) 0.2042(6)
N6_2 N 0.185(2) 0.2752(7) 0.1141(6)
C13_2 C 0.647(2) 0.0455(9) 0.2071(7)
C14_2 C 0.503(3) 0.1475(9) 0.2236(8)
C15_2 C 0.444(3) 0.136(1) 0.282(1)
C16_2 C 0.384(3) 0.188(1) 0.317(1)
C17_2 C 0.382(3) 0.255(1) 0.294(1)
C18_2 C 0.440(2) 0.268(1) 0.235(1)
C19_2 C 0.497(3) 0.2157(9) 0.2002(8)
C20_2 C 0.207(2) 0.0151(8) 0.1599(8)
C26_2 C 0.070(2) 0.085(1) 0.2298(8)
C27_2 C 0.011(3) 0.1598(8) 0.2429(8)
C31_2 C 0.051(2) 0.2744(9) 0.2103(9)
C32_2 C 0.132(2) 0.3154(8) 0.1598(9)
C33_2 C 0.259(2) 0.3073(8) 0.0606(9)
C34_2 C 0.226(2) 0.2827(8) 0.0026(9)
C37_2 C 0.428(3) 0.388(1) 0.013(1)
C38_2 C 0.366(2) 0.361(1) 0.067(1)
H1_2 H 0.34796 0.16923 0.03941
H10_2 H 0.46503 0.09191 0.30218
H11_2 H 0.33900 0.17921 0.36014
H12_2 H 0.34200 0.29271 0.31978
H13_2 H 0.44014 0.31626 0.21999
H14_2 H 0.53499 0.22732 0.15891
H22_2 H 0.15966 0.02608 0.06769
H26_2 H 0.50386 0.42337 0.01521
H27_2 H 0.39801 0.37724 0.10901
Na4_2 Na 0.1360(9) 0.4951(3) 0.1646(3)
C1_2 C 0.407(2) 0.055(1) 0.9527(8)
C2_3 C 0.326(3) -0.000(1) 0.925(1)
C3_2 C 0.219(3) 0.015(1) 0.881(1)
C4_2 C 0.193(3) 0.084(1) 0.863(1)
C5_2 C 0.274(2) 0.135(1) 0.888(1)
C6_2 C 0.378(2) 0.123(1) 0.9315(9)
C35_2 C 0.289(3) 0.313(1) 0.9482(9)
C36_2 C 0.393(2) 0.365(1) 0.952(1)
H4_2 H 0.12729 0.09339 0.82823
H5_2 H 0.24820 0.18449 0.87397
H6_2 H 0.43473 0.16418 0.94832
H23_2 H 0.16127 0.24363 0.99716
H24_2 H 0.26244 0.29867 0.90571
H25_2 H 0.43979 0.38296 0.91312
O8_2 O 0.643(2) 0.1204(6) 0.8322(6)
C8_2 C 0.699(2) 0.9746(8) 0.0487(8)
C9_2 C 0.808(2) 0.921(1) 0.0551(8)
C10_2 C 0.866(3) 0.912(1) 0.114(1)
C11_2 C 0.815(2) 0.945(1) 0.1658(9)
C12_2 C 0.708(2) 0.9964(9) 0.1585(8)
C21_2 C 0.281(3) 0.9732(9) 0.2023(9)
C22_2 C 0.341(3) 0.912(1) 0.183(1)
C23_2 C 0.335(3) 0.8899(9) 0.120(1)
C24_2 C 0.267(3) 0.932(1) 0.0784(9)
C25_2 C 0.208(3) 0.9940(9) 0.0980(8)
H7_2 H 0.84051 0.89288 0.01917
H8_2 H 0.94371 0.87400 0.11990
H9_2 H 0.84575 0.93058 0.20908
H18_2 H 0.28123 0.98773 0.24931
H19_2 H 0.38915 0.87959 0.21403
H20_2 H 0.38464 0.84574 0.10804
H21_2 H 0.26243 0.91801 0.03445
O2_2 O 0.657(1) 0.9649(7) 0.9393(6)
C2_4 C 0.326(3) 1.000(1) 0.925(1)
C7_2 C 0.621(2) 0.9939(8) 0.9905(9)
H2_2 H 0.35097 0.95344 0.93755
H3_2 H 0.14809 0.97897 0.86558
C28_2 C 0.082(3) 0.681(1) 0.212(1)
C29_2 C 0.113(3) 0.750(1) 0.206(1)
C30_2 C 0.044(2) 0.7995(9) 0.247(1)
H15_2 H 0.12060 0.64707 0.17836
H16_2 H 0.18867 0.76711 0.17501
H17_2 H 0.05731 0.84930 0.24211
Cu1_3 Cu 0.4916(3) 0.5799(1) 0.41019(9)
Cu2_3 Cu 0.7963(2) 0.6746(1) 0.3625(1)
O1_3 O 0.648(1) 0.6456(5) 0.4193(5)
O2_3 O 0.343(1) 0.4649(7) 0.5607(6)
O3_2 O 0.322(2) 0.5370(7) 0.2362(6)
O4_2 O 0.968(2) 0.5397(7) 0.2332(6)
N1_3 N 0.482(2) 0.5420(7) 0.4993(6)
N2_3 N 0.347(1) 0.5082(7) 0.3994(6)
N3_3 N 0.438(2) 0.5959(7) 0.3182(6)
N4_3 N 0.854(2) 0.5817(7) 0.3226(6)
N5_3 N 0.925(2) 0.7071(8) 0.2958(6)
N6_3 N 0.815(2) 0.7752(7) 0.3859(6)
C1_3 C 0.593(2) 0.555(1) 0.5473(8)
C2_5 C 0.674(3) 0.500(1) 0.575(1)
C3_3 C 0.781(3) 0.515(1) 0.619(1)
C4_3 C 0.807(3) 0.584(1) 0.637(1)
C5_3 C 0.726(2) 0.635(1) 0.612(1)
C6_3 C 0.622(2) 0.623(1) 0.5685(9)
C7_3 C 0.379(2) 0.4939(8) 0.5095(9)
C8_3 C 0.301(2) 0.4746(8) 0.4513(8)
C9_3 C 0.192(2) 0.421(1) 0.4449(8)
C10_3 C 0.134(3) 0.412(1) 0.386(1)
C11_3 C 0.185(2) 0.445(1) 0.3342(9)
C12_3 C 0.292(2) 0.4964(9) 0.3415(8)
C13_3 C 0.353(2) 0.5455(9) 0.2929(7)
C14_3 C 0.497(3) 0.6475(9) 0.2764(8)
C15_3 C 0.556(3) 0.636(1) 0.218(1)
C16_3 C 0.616(3) 0.688(1) 0.183(1)
C17_3 C 0.618(3) 0.755(1) 0.206(1)
C18_3 C 0.560(2) 0.768(1) 0.265(1)
C19_3 C 0.503(3) 0.7157(9) 0.2998(8)
C20_3 C 0.793(2) 0.5151(8) 0.3401(8)
C21_3 C 0.719(3) 0.4732(9) 0.2977(9)
C22_3 C 0.659(3) 0.412(1) 0.317(1)
C23_3 C 0.665(3) 0.3899(9) 0.380(1)
C24_3 C 0.733(3) 0.432(1) 0.4216(9)
C25_3 C 0.792(3) 0.4940(9) 0.4020(8)
C26_3 C 0.930(2) 0.585(1) 0.2702(8)
C27_3 C 0.989(3) 0.6598(8) 0.2571(8)
C31_3 C 0.949(2) 0.7744(9) 0.2897(9)
C32_3 C 0.868(2) 0.8154(8) 0.3402(9)
C33_3 C 0.741(2) 0.8073(8) 0.4394(9)
C34_3 C 0.774(2) 0.7827(8) 0.4974(9)
C35_3 C 0.711(3) 0.813(1) 0.5518(9)
C36_3 C 0.607(2) 0.865(1) 0.548(1)
C37_3 C 0.572(3) 0.888(1) 0.487(1)
C38_3 C 0.634(2) 0.861(1) 0.433(1)
H1_3 H 0.65204 0.66923 0.46059
H2_3 H 0.64903 0.45344 0.56245
H3_3 H 0.85191 0.47897 0.63442
H4_3 H 0.87271 0.59339 0.67177
H5_3 H 0.75180 0.68449 0.62603
H6_3 H 0.56527 0.66418 0.55168
H7_3 H 0.15949 0.39288 0.48083
H8_3 H 0.05629 0.37400 0.38010
H9_3 H 0.15425 0.43058 0.29092
H10_3 H 0.53497 0.59191 0.19782
H11_3 H 0.66100 0.67921 0.13986
H12_3 H 0.65800 0.79271 0.18022
H13_3 H 0.55986 0.81626 0.28001
H14_3 H 0.46501 0.72732 0.34109
H18_3 H 0.71877 0.48773 0.25069
H19_3 H 0.61085 0.37959 0.28597
H20_3 H 0.61536 0.34574 0.39196
H21_3 H 0.73757 0.41801 0.46555
H22_3 H 0.84034 0.52608 0.43231
H23_3 H 0.83873 0.74363 0.50284
H24_3 H 0.73756 0.79867 0.59429
H25_3 H 0.56021 0.88296 0.58688
H26_3 H 0.49614 0.92337 0.48479
H27_3 H 0.60199 0.87724 0.39099
O6_2 O 0.178(2) 0.4630(7) 0.7362(6)
O7_2 O 0.532(2) 0.4603(7) 0.7332(6)
O2_4 O 0.157(1) 0.5351(7) 0.0607(6)
C7_4 C 0.121(2) 0.5061(8) 0.0095(9)
Cu1_4 Cu 0.0084(3) 0.4201(1) 0.91019(9)
N1_4 N 0.018(2) 0.4580(7) 0.9993(6)
N2_4 N 0.153(1) 0.4918(7) 0.8994(6)
N3_4 N 0.062(2) 0.4041(7) 0.8182(6)
C8_4 C 0.199(2) 0.5254(8) 0.9513(8)
C9_4 C 0.308(2) 0.579(1) 0.9449(8)
C10_4 C 0.366(3) 0.588(1) 0.886(1)
C11_4 C 0.315(2) 0.555(1) 0.8342(9)
C12_4 C 0.208(2) 0.5036(9) 0.8415(8)
C13_4 C 0.147(2) 0.4545(9) 0.7929(7)
C14_4 C 0.003(3) 0.3525(9) 0.7764(8)
H7_4 H 0.34051 0.60712 0.98083
H8_4 H 0.44371 0.62600 0.88010
H9_4 H 0.34575 0.56942 0.79092
H14_4 H 0.03499 0.27268 0.84109
H26_4 H 0.00386 0.07663 0.98479
C1_4 C 0.907(2) 0.445(1) 0.0473(8)
C2_6 C 0.826(3) 0.500(1) 0.075(1)
C3_4 C 0.719(3) 0.485(1) 0.119(1)
C4_4 C 0.693(3) 0.416(1) 0.137(1)
C5_4 C 0.774(2) 0.365(1) 0.112(1)
C6_4 C 0.878(2) 0.377(1) 0.0685(9)
C35_4 C 0.789(3) 0.187(1) 0.0518(9)
C36_4 C 0.893(2) 0.135(1) 0.048(1)
H2_4 H 0.85097 0.54656 0.06245
H3_4 H 0.64809 0.52103 0.13442
H4_4 H 0.62729 0.40661 0.17177
H5_4 H 0.74820 0.31551 0.12603
H6_4 H 0.93473 0.33582 0.05168
H23_4 H 0.66127 0.25637 0.00284
H24_4 H 0.76244 0.20133 0.09429
H25_4 H 0.93979 0.11704 0.08688
Cu2_4 Cu 0.7037(2) 0.3254(1) 0.8625(1)
O1_4 O 0.852(1) 0.3544(5) 0.9193(5)
N4_4 N 0.646(2) 0.4183(7) 0.8226(6)
N5_4 N 0.575(2) 0.2929(8) 0.7958(6)
N6_4 N 0.685(2) 0.2248(7) 0.8859(6)
C15_4 C 0.944(3) 0.364(1) 0.718(1)
C16_4 C 0.884(3) 0.312(1) 0.683(1)
C17_4 C 0.882(3) 0.245(1) 0.706(1)
C18_4 C 0.940(2) 0.232(1) 0.765(1)
C19_4 C 0.997(3) 0.2843(9) 0.7998(8)
C20_4 C 0.707(2) 0.4849(8) 0.8401(8)
C21_4 C 0.781(3) 0.5268(9) 0.7977(9)
C22_4 C 0.841(3) 0.588(1) 0.817(1)
C23_4 C 0.835(3) 0.6101(9) 0.880(1)
C24_4 C 0.767(3) 0.568(1) 0.9216(9)
C25_4 C 0.708(3) 0.5060(9) 0.9020(8)
C26_4 C 0.570(2) 0.415(1) 0.7702(8)
C27_4 C 0.511(3) 0.3402(8) 0.7571(8)
C28_3 C 0.418(3) 0.319(1) 0.712(1)
C29_3 C 0.387(3) 0.250(1) 0.706(1)
C30_3 C 0.456(2) 0.2005(9) 0.747(1)
C31_4 C 0.551(2) 0.2256(9) 0.7897(9)
C32_4 C 0.632(2) 0.1846(8) 0.8402(9)
C33_4 C 0.759(2) 0.1927(8) 0.9394(9)
C34_4 C 0.726(2) 0.2173(8) 0.9974(9)
C37_4 C 0.928(3) 0.112(1) 0.987(1)
C38_4 C 0.866(2) 0.139(1) 0.933(1)
H1_4 H 0.84796 0.33077 0.96059
H10_4 H 0.96503 0.40809 0.69782
H11_4 H 0.83900 0.32079 0.63986
H12_4 H 0.84200 0.20729 0.68022
H13_4 H 0.94014 0.18374 0.78001
H15_3 H 0.37940 0.35293 0.67836
H16_3 H 0.31133 0.23289 0.67501
H17_3 H 0.44269 0.15070 0.74211
H18_4 H 0.78123 0.51227 0.75069
H19_4 H 0.88915 0.62041 0.78597
H20_4 H 0.88464 0.65426 0.89196
H21_4 H 0.76243 0.58199 0.96555
H22_4 H 0.65966 0.47392 0.93231
H27_4 H 0.89801 0.12276 0.89099
C28_4 C 0.918(3) 0.181(1) 0.288(1)
C29_4 C 0.887(3) 0.250(1) 0.294(1)
C30_4 C 0.956(2) 0.2995(9) 0.253(1)
H15_4 H 0.87940 0.14707 0.32164
H16_4 H 0.81133 0.26711 0.32499
H17_4 H 0.94269 0.34930 0.25789
loop_
_geom_bond_atom_site_label_1
_geom_bond_atom_site_label_2
_geom_bond_site_symmetry_1
_geom_bond_site_symmetry_2
C22 C21 1_555 1_555
C23 C22 1_555 1_555
C24 C23 1_555 1_555
H2 C2 1_555 1_555
H18 C21 1_555 1_555
H19 C22 1_555 1_555
H20 C23 1_555 1_555
H21 C24 1_555 1_555
C24 C25 1_555 1_555
Cu2 O1 1_555 1_555
O1 H1 1_555 1_555
O4 C26 1_555 1_555
O5 C32 1_555 1_555
N4 Cu2 1_555 1_555
N5 Cu2 1_555 1_555
N6 Cu2 1_555 1_555
C2_2 C1 1_555 1_555
C3 C2_2 1_555 1_555
C4 C3 1_555 1_555
C5 C4 1_555 1_555
C6 C1 1_555 1_555
C16 C15 1_555 1_555
C17 C16 1_555 1_555
C18 C17 1_555 1_555
C20 N4 1_555 1_555
C26 N4 1_555 1_555
C27 N5 1_555 1_555
C28 C27 1_555 1_555
C29 C28 1_555 1_555
C30 C29 1_555 1_555
C31 N5 1_555 1_555
C32 N6 1_555 1_555
C33 N6 1_555 1_555
C34 C33 1_555 1_555
C35 C34 1_555 1_555
C36 C35 1_555 1_555
C37 C36 1_555 1_555
C38 C33 1_555 1_555
H4 C4 1_555 1_555
H5 C5 1_555 1_555
H6 C6 1_555 1_555
H10 C15 1_555 1_555
H11 C16 1_555 1_555
H12 C17 1_555 1_555
H13 C18 1_555 1_555
H15 C28 1_555 1_555
H16 C29 1_555 1_555
H17 C30 1_555 1_555
H23 C34 1_555 1_555
H24 C35 1_555 1_555
H25 C36 1_555 1_555
H27 C38 1_555 1_555
Na4 O5 1_555 1_555
C5 C6 1_555 1_555
C18 C19 1_555 1_555
C26 C27 1_555 1_555
C30 C31 1_555 1_555
C31 C32 1_555 1_555
C37 C38 1_555 1_555
O2 C7 1_555 1_555
C9 C8 1_555 1_555
C10 C9 1_555 1_555
C11 C10 1_555 1_555
H7 C9 1_555 1_555
H8 C10 1_555 1_555
H9 C11 1_555 1_555
C7 C8 1_555 1_555
C11 C12 1_555 1_555
O3 C13 1_555 1_555
N1 Cu1 1_555 1_555
N2 Cu1 1_555 1_555
N3 Cu1 1_555 1_555
C13 N3 1_555 1_555
C14 N3 1_555 1_555
O8 Na1 1_555 1_555
Cu1_2 O1_2 1_555 1_555
Cu2_2 O1_2 1_555 1_555
O1_2 H1_2 1_555 1_555
O6 C13_2 1_555 1_555
O7 C26_2 1_555 1_555
O5_2 C32_2 1_555 1_555
N1_2 Cu1_2 1_555 1_555
N2_2 Cu1_2 1_555 1_555
N3_2 Cu1_2 1_555 1_555
N4_2 Cu2_2 1_555 1_555
N5_2 Cu2_2 1_555 1_555
N6_2 Cu2_2 1_555 1_555
C13_2 N3_2 1_555 1_555
C14_2 N3_2 1_555 1_555
C15_2 C14_2 1_555 1_555
C16_2 C15_2 1_555 1_555
C17_2 C16_2 1_555 1_555
C18_2 C17_2 1_555 1_555
C19_2 C14_2 1_555 1_555
C20_2 N4_2 1_555 1_555
C26_2 N4_2 1_555 1_555
C27_2 N5_2 1_555 1_555
C31_2 N5_2 1_555 1_555
C32_2 N6_2 1_555 1_555
C33_2 N6_2 1_555 1_555
C34_2 C33_2 1_555 1_555
C38_2 C33_2 1_555 1_555
H10_2 C15_2 1_555 1_555
H11_2 C16_2 1_555 1_555
H12_2 C17_2 1_555 1_555
H13_2 C18_2 1_555 1_555
H14_2 C19_2 1_555 1_555
H26_2 C37_2 1_555 1_555
H27_2 C38_2 1_555 1_555
Na4_2 O5_2 1_555 1_555
C18_2 C19_2 1_555 1_555
C26_2 C27_2 1_555 1_555
C31_2 C32_2 1_555 1_555
C37_2 C38_2 1_555 1_555
C2_3 C1_2 1_555 1_555
C3_2 C2_3 1_555 1_555
C4_2 C3_2 1_555 1_555
C5_2 C4_2 1_555 1_555
C6_2 C1_2 1_555 1_555
C36_2 C35_2 1_555 1_555
H4_2 C4_2 1_555 1_555
H5_2 C5_2 1_555 1_555
H6_2 C6_2 1_555 1_555
H24_2 C35_2 1_555 1_555
H25_2 C36_2 1_555 1_555
O8_2 Na3 1_555 1_555
C5_2 C6_2 1_555 1_555
C9_2 C8_2 1_555 1_555
C10_2 C9_2 1_555 1_555
C11_2 C10_2 1_555 1_555
C22_2 C21_2 1_555 1_555
C23_2 C22_2 1_555 1_555
C24_2 C23_2 1_555 1_555
H7_2 C9_2 1_555 1_555
H8_2 C10_2 1_555 1_555
H9_2 C11_2 1_555 1_555
H18_2 C21_2 1_555 1_555
H19_2 C22_2 1_555 1_555
H20_2 C23_2 1_555 1_555
H21_2 C24_2 1_555 1_555
C11_2 C12_2 1_555 1_555
C24_2 C25_2 1_555 1_555
O2_2 C7_2 1_555 1_555
H2_2 C2_4 1_555 1_555
C29_2 C28_2 1_555 1_555
C30_2 C29_2 1_555 1_555
H15_2 C28_2 1_555 1_555
H16_2 C29_2 1_555 1_555
H17_2 C30_2 1_555 1_555
Cu1_3 O1_3 1_555 1_555
Cu2_3 O1_3 1_555 1_555
Na4 O2_3 1_555 1_555
O1_3 H1_3 1_555 1_555
O2_3 C7_3 1_555 1_555
O3_2 C13_3 1_555 1_555
O4_2 C26_3 1_555 1_555
O8 C32_3 1_555 1_555
N1_3 Cu1_3 1_555 1_555
N2_3 Cu1_3 1_555 1_555
N3_3 Cu1_3 1_555 1_555
N4_3 Cu2_3 1_555 1_555
N5_3 Cu2_3 1_555 1_555
N6_3 Cu2_3 1_555 1_555
C1_3 N1_3 1_555 1_555
C2_5 C1_3 1_555 1_555
C3_3 C2_5 1_555 1_555
C4_3 C3_3 1_555 1_555
C5_3 C4_3 1_555 1_555
C6_3 C1_3 1_555 1_555
C7_3 N1_3 1_555 1_555
C8_3 N2_3 1_555 1_555
C9_3 C8_3 1_555 1_555
C10_3 C9_3 1_555 1_555
C11_3 C10_3 1_555 1_555
C12_3 N2_3 1_555 1_555
C13_3 N3_3 1_555 1_555
C14_3 N3_3 1_555 1_555
C15_3 C14_3 1_555 1_555
C16_3 C15_3 1_555 1_555
C17_3 C16_3 1_555 1_555
C18_3 C17_3 1_555 1_555
C19_3 C14_3 1_555 1_555
C20_3 N4_3 1_555 1_555
C21_3 C20_3 1_555 1_555
C22_3 C21_3 1_555 1_555
C23_3 C22_3 1_555 1_555
C24_3 C23_3 1_555 1_555
C25_3 C20_3 1_555 1_555
C26_3 N4_3 1_555 1_555
C27_3 N5_3 1_555 1_555
C31_3 N5_3 1_555 1_555
C32_3 N6_3 1_555 1_555
C33_3 N6_3 1_555 1_555
C34_3 C33_3 1_555 1_555
C35_3 C34_3 1_555 1_555
C36_3 C35_3 1_555 1_555
C37_3 C36_3 1_555 1_555
C38_3 C33_3 1_555 1_555
H2_3 C2_5 1_555 1_555
H3_3 C3_3 1_555 1_555
H4_3 C4_3 1_555 1_555
H5_3 C5_3 1_555 1_555
H6_3 C6_3 1_555 1_555
H7_3 C9_3 1_555 1_555
H8_3 C10_3 1_555 1_555
H9_3 C11_3 1_555 1_555
H10_3 C15_3 1_555 1_555
H11_3 C16_3 1_555 1_555
H12_3 C17_3 1_555 1_555
H13_3 C18_3 1_555 1_555
H14_3 C19_3 1_555 1_555
H18_3 C21_3 1_555 1_555
H19_3 C22_3 1_555 1_555
H20_3 C23_3 1_555 1_555
H21_3 C24_3 1_555 1_555
H22_3 C25_3 1_555 1_555
H23_3 C34_3 1_555 1_555
H24_3 C35_3 1_555 1_555
H25_3 C36_3 1_555 1_555
H26_3 C37_3 1_555 1_555
H27_3 C38_3 1_555 1_555
Na4_2 O3_2 1_555 1_555
O6_2 Na4 1_555 1_555
O7_2 Na4 1_555 1_555
C5_3 C6_3 1_555 1_555
C7_3 C8_3 1_555 1_555
C11_3 C12_3 1_555 1_555
C12_3 C13_3 1_555 1_555
C18_3 C19_3 1_555 1_555
C24_3 C25_3 1_555 1_555
C26_3 C27_3 1_555 1_555
C31_3 C32_3 1_555 1_555
C37_3 C38_3 1_555 1_555
Na4_2 O2_4 1_555 1_555
O2_4 C7_4 1_555 1_555
O6_2 C13_4 1_555 1_555
N1_4 Cu1_4 1_555 1_555
N2_4 Cu1_4 1_555 1_555
N3_4 Cu1_4 1_555 1_555
C8_4 N2_4 1_555 1_555
C9_4 C8_4 1_555 1_555
C10_4 C9_4 1_555 1_555
C11_4 C10_4 1_555 1_555
C12_4 N2_4 1_555 1_555
C13_4 N3_4 1_555 1_555
C14_4 N3_4 1_555 1_555
H7_4 C9_4 1_555 1_555
H8_4 C10_4 1_555 1_555
H9_4 C11_4 1_555 1_555
C11_4 C12_4 1_555 1_555
C12_4 C13_4 1_555 1_555
C2_6 C1_4 1_555 1_555
C3_4 C2_6 1_555 1_555
C4_4 C3_4 1_555 1_555
C5_4 C4_4 1_555 1_555
C6_4 C1_4 1_555 1_555
C36_4 C35_4 1_555 1_555
H2_4 C2_6 1_555 1_555
H3_4 C3_4 1_555 1_555
H4_4 C4_4 1_555 1_555
H5_4 C5_4 1_555 1_555
H6_4 C6_4 1_555 1_555
H24_4 C35_4 1_555 1_555
H25_4 C36_4 1_555 1_555
C5_4 C6_4 1_555 1_555
Cu2_4 O1_4 1_555 1_555
O1_4 H1_4 1_555 1_555
O7_2 C26_4 1_555 1_555
O8_2 C32_4 1_555 1_555
N4_4 Cu2_4 1_555 1_555
N5_4 Cu2_4 1_555 1_555
N6_4 Cu2_4 1_555 1_555
C16_4 C15_4 1_555 1_555
C17_4 C16_4 1_555 1_555
C18_4 C17_4 1_555 1_555
C20_4 N4_4 1_555 1_555
C21_4 C20_4 1_555 1_555
C22_4 C21_4 1_555 1_555
C23_4 C22_4 1_555 1_555
C24_4 C23_4 1_555 1_555
C25_4 C20_4 1_555 1_555
C26_4 N4_4 1_555 1_555
C27_4 N5_4 1_555 1_555
C28_3 C27_4 1_555 1_555
C29_3 C28_3 1_555 1_555
C30_3 C29_3 1_555 1_555
C31_4 N5_4 1_555 1_555
C32_4 N6_4 1_555 1_555
C33_4 N6_4 1_555 1_555
C34_4 C33_4 1_555 1_555
C38_4 C33_4 1_555 1_555
H10_4 C15_4 1_555 1_555
H11_4 C16_4 1_555 1_555
H12_4 C17_4 1_555 1_555
H13_4 C18_4 1_555 1_555
H15_3 C28_3 1_555 1_555
H16_3 C29_3 1_555 1_555
H17_3 C30_3 1_555 1_555
H18_4 C21_4 1_555 1_555
H19_4 C22_4 1_555 1_555
H20_4 C23_4 1_555 1_555
H21_4 C24_4 1_555 1_555
H22_4 C25_4 1_555 1_555
H27_4 C38_4 1_555 1_555
C18_4 C19_4 1_555 1_555
C24_4 C25_4 1_555 1_555
C26_4 C27_4 1_555 1_555
C30_3 C31_4 1_555 1_555
C31_4 C32_4 1_555 1_555
C37_4 C38_4 1_555 1_555
C29_4 C28_4 1_555 1_555
C30_4 C29_4 1_555 1_555
H15_4 C28_4 1_555 1_555
H16_4 C29_4 1_555 1_555
H17_4 C30_4 1_555 1_555

#END
