
###############################################################################
#
# This file contains modified crystal structure data generated from the
# MOF subset of the Cambridge Structural Database (CSD) v543 
# hosted by the Cambridge Crystallographic Data Centre (CCDC).
#
# This work is licensed under the Creative Commons
# Attribution-NonCommercial-ShareAlike 4.0 International License.
# To view a copy of this license, visit
# http://creativecommons.org/licenses/by-nc-sa/4.0/
# or send a letter to
# Creative Commons, PO Box 1866, Mountain View, CA 94042, USA.
#
# CIF created using the CSD Python API on 29 September 2022
# The structure has been converted into the P1 space group
# The structure has a 3D framework
# The original CSD entry WOHSOB is in the orthorhombic crystal system
# The original CSD entry WOHSOB is in a Sohncke space group
# The framework has been calculated to contain at least 10.0% void space
# The void calculation uses a probe of radius 1.32A, grid spacing 0.4
#
###############################################################################

data_WOHSOB
_chemical_formula_moiety         '(C152 H108 Cu8 K2 N24 O20)n'
_symmetry_cell_setting           triclinic
_symmetry_space_group_name_H-M   'P 1'
_symmetry_Int_Tables_number      1
_space_group_name_Hall           'P 1'
loop_
_symmetry_equiv_pos_site_id
_symmetry_equiv_pos_as_xyz
1 x,y,z
_cell_length_a                   8.491(2)
_cell_length_b                   19.915(4)
_cell_length_c                   22.077(8)
_cell_angle_alpha                90
_cell_angle_beta                 90
_cell_angle_gamma                90
_cell_volume                     3733.18
loop_
_atom_site_label
_atom_site_type_symbol
_atom_site_fract_x
_atom_site_fract_y
_atom_site_fract_z
C2 C 0.179(3) 0.003(1) 0.4334(9)
C21 C 0.235(3) 0.026(1) 0.6985(9)
C22 C 0.180(3) 0.087(1) 0.681(1)
C23 C 0.197(4) 0.108(1) 0.621(1)
C24 C 0.267(3) 0.068(1) 0.581(1)
C25 C 0.318(3) 0.0059(9) 0.5990(9)
H2 H 0.16804 0.05141 0.44942
H3 H 0.35213 0.02736 0.37030
H18 H 0.22277 0.01461 0.74285
H19 H 0.12884 0.11731 0.70915
H20 H 0.15399 0.15017 0.60585
H21 H 0.28449 0.08762 0.53830
K3 K 0.6483(6) 0.0061(2) 0.8488(2)
O7 O 0.023(2) 0.0410(7) 0.2632(6)
Cu2 Cu 0.3052(3) 0.8310(1) 0.6360(1)
O1 O 0.154(1) 0.8596(5) 0.5798(5)
O4 O 0.477(2) 0.9590(7) 0.7632(6)
O5 O 0.354(2) 0.6331(6) 0.6659(6)
N4 N 0.363(2) 0.9210(7) 0.6736(6)
N5 N 0.432(2) 0.8005(7) 0.7012(6)
N6 N 0.311(2) 0.7321(6) 0.6148(6)
C1 C 0.095(2) 0.9545(9) 0.4604(7)
C3 C 0.285(3) 0.991(1) 0.387(1)
C4 C 0.293(3) 0.926(2) 0.3660(9)
C5 C 0.213(3) 0.876(1) 0.3922(9)
C6 C 0.114(3) 0.8896(9) 0.4397(9)
C14 C 0.002(3) 0.8555(8) 0.7183(8)
C15 C 0.073(3) 0.862(1) 0.7725(9)
C16 C 0.119(3) 0.811(1) 0.808(1)
C17 C 0.101(3) 0.745(1) 0.786(1)
C18 C 0.038(3) 0.735(1) 0.730(1)
C20 C 0.311(2) 0.9846(8) 0.6576(8)
C26 C 0.441(2) 0.9153(9) 0.7254(9)
C27 C 0.493(3) 0.8422(9) 0.7392(7)
C28 C 0.592(2) 0.821(1) 0.7847(9)
C29 C 0.619(3) 0.752(1) 0.792(1)
C30 C 0.548(2) 0.709(1) 0.7525(9)
C31 C 0.453(2) 0.733(1) 0.7071(9)
C32 C 0.363(2) 0.6961(9) 0.6600(8)
C33 C 0.243(2) 0.7018(8) 0.5632(8)
C34 C 0.276(2) 0.7251(9) 0.5078(9)
C35 C 0.215(3) 0.695(1) 0.4555(8)
C36 C 0.121(3) 0.640(1) 0.4609(9)
C37 C 0.083(3) 0.619(1) 0.516(1)
C38 C 0.139(2) 0.647(1) 0.5675(8)
H1 H 0.15521 0.83762 0.53935
H4 H 0.35272 0.91748 0.33036
H5 H 0.22874 0.82960 0.38013
H6 H 0.05371 0.85324 0.45944
H10 H 0.08444 0.90563 0.79151
H11 H 0.16292 0.81872 0.85166
H12 H 0.13349 0.70773 0.81152
H13 H 0.03708 0.69001 0.71412
H15 H 0.64445 0.85282 0.81465
H16 H 0.68803 0.73808 0.82638
H17 H 0.56766 0.65960 0.76026
H22 H 0.35233 0.97470 0.56638
H23 H 0.34669 0.76380 0.50384
H24 H 0.23816 0.71108 0.41463
H25 H 0.08363 0.61712 0.42475
H26 H 0.01274 0.57889 0.51636
H27 H 0.10809 0.62889 0.60790
K4 K 0.3517(6) 0.5061(2) 0.6512(2)
O2 O 0.857(2) 0.0522(7) 0.4578(6)
N2 N 0.855(2) 0.0003(7) 0.6094(7)
C7 C 0.889(3) 0.020(1) 0.5056(9)
C8 C 0.812(3) 0.0383(9) 0.5616(8)
C9 C 0.710(3) 0.092(1) 0.571(1)
C10 C 0.659(2) 0.103(1) 0.630(1)
C11 C 0.706(3) 0.064(1) 0.678(1)
C12 C 0.806(2) 0.011(1) 0.6653(8)
H7 H 0.66729 0.11954 0.53613
H8 H 0.59160 0.14369 0.63585
H9 H 0.67802 0.07531 0.71991
O6 O 0.651(2) 0.0309(7) 0.2636(6)
Cu1 Cu 0.9984(3) 0.9274(1) 0.59328(9)
K1 K 0.8517(6) 0.9939(2) 0.3488(2)
O3 O 0.849(2) 0.9691(7) 0.7636(6)
N1 N 0.993(2) 0.9693(7) 0.5110(6)
N3 N 0.946(2) 0.9086(7) 0.6814(6)
C13 C 0.875(3) 0.959(1) 0.7097(8)
C19 C 0.991(3) 0.791(1) 0.6966(8)
H14 H 0.94232 0.78251 0.65635
O8 O 0.854(2) 0.8669(6) 0.3341(6)
Cu1_2 Cu 0.5016(3) 0.0726(1) 0.09328(9)
Cu2_2 Cu 0.1948(3) 0.1690(1) 0.1360(1)
O1_2 O 0.346(1) 0.1404(5) 0.0798(5)
O5_2 O 0.146(2) 0.3669(6) 0.1659(6)
N1_2 N 0.507(2) 0.0307(7) 0.0110(6)
N3_2 N 0.554(2) 0.0914(7) 0.1814(6)
N4_2 N 0.137(2) 0.0790(7) 0.1736(6)
N5_2 N 0.068(2) 0.1995(7) 0.2012(6)
N6_2 N 0.189(2) 0.2679(6) 0.1148(6)
C13_2 C 0.625(3) 0.041(1) 0.2097(8)
C14_2 C 0.498(3) 0.1445(8) 0.2183(8)
C15_2 C 0.427(3) 0.138(1) 0.2725(9)
C16_2 C 0.381(3) 0.189(1) 0.308(1)
C17_2 C 0.399(3) 0.255(1) 0.286(1)
C18_2 C 0.462(3) 0.265(1) 0.230(1)
C19_2 C 0.509(3) 0.209(1) 0.1966(8)
C20_2 C 0.189(2) 0.0154(8) 0.1576(8)
C26_2 C 0.059(2) 0.0847(9) 0.2254(9)
C27_2 C 0.007(3) 0.1578(9) 0.2392(7)
C31_2 C 0.047(2) 0.267(1) 0.2071(9)
C32_2 C 0.137(2) 0.3039(9) 0.1600(8)
C33_2 C 0.257(2) 0.2982(8) 0.0632(8)
C34_2 C 0.224(2) 0.2749(9) 0.0078(9)
C37_2 C 0.417(3) 0.381(1) 0.016(1)
C38_2 C 0.361(2) 0.353(1) 0.0675(8)
H1_2 H 0.34479 0.16238 0.03935
H10_2 H 0.41556 0.09437 0.29151
H11_2 H 0.33708 0.18128 0.35166
H12_2 H 0.36651 0.29227 0.31152
H13_2 H 0.46292 0.30999 0.21412
H14_2 H 0.55768 0.21749 0.15635
H22_2 H 0.14767 0.02530 0.06638
H23_2 H 0.15331 0.23620 0.00384
H26_2 H 0.48726 0.42111 0.01636
H27_2 H 0.39191 0.37111 0.10790
K4_2 K 0.1483(6) 0.4939(2) 0.1512(2)
C1_2 C 0.405(2) 0.0455(9) 0.9604(7)
C3_2 C 0.215(3) 0.009(1) 0.887(1)
C4_2 C 0.207(3) 0.074(2) 0.8660(9)
C5_2 C 0.287(3) 0.124(1) 0.8922(9)
C6_2 C 0.386(3) 0.1104(9) 0.9397(9)
C35_2 C 0.285(3) 0.305(1) 0.9555(8)
C36_2 C 0.379(3) 0.360(1) 0.9609(9)
H4_2 H 0.14728 0.08252 0.83036
H5_2 H 0.27126 0.17040 0.88013
H6_2 H 0.44629 0.14676 0.95944
H24_2 H 0.26184 0.28892 0.91463
H25_2 H 0.41637 0.38288 0.92475
O8_2 O 0.646(2) 0.1331(6) 0.8341(6)
N2_2 N 0.645(2) 0.9997(7) 0.1094(7)
C7_2 C 0.611(3) 0.980(1) 0.0056(9)
C8_2 C 0.688(3) 0.9617(9) 0.0616(8)
C9_2 C 0.790(3) 0.908(1) 0.071(1)
C10_2 C 0.841(2) 0.897(1) 0.130(1)
C11_2 C 0.794(3) 0.936(1) 0.178(1)
C12_2 C 0.694(2) 0.989(1) 0.1653(8)
C21_2 C 0.265(3) 0.974(1) 0.1985(9)
C22_2 C 0.320(3) 0.913(1) 0.181(1)
C23_2 C 0.303(4) 0.892(1) 0.121(1)
C24_2 C 0.233(3) 0.932(1) 0.081(1)
C25_2 C 0.182(3) 0.9941(9) 0.0990(9)
H7_2 H 0.83271 0.88046 0.03613
H8_2 H 0.90840 0.85631 0.13585
H9_2 H 0.82198 0.92469 0.21991
H18_2 H 0.27723 0.98539 0.24285
H19_2 H 0.37116 0.88269 0.20915
H20_2 H 0.34601 0.84983 0.10585
H21_2 H 0.21551 0.91238 0.03830
O2_2 O 0.643(2) 0.9478(7) 0.9578(6)
C2_2 C 0.321(3) 0.997(1) 0.9334(9)
H2_2 H 0.33196 0.94859 0.94942
H3_2 H 0.14787 0.97264 0.87030
C28_2 C 0.092(2) 0.679(1) 0.2153(9)
C29_2 C 0.119(3) 0.748(1) 0.208(1)
C30_2 C 0.048(2) 0.791(1) 0.2475(9)
H15_2 H 0.14445 0.64718 0.18535
H16_2 H 0.18803 0.76192 0.17362
H17_2 H 0.06766 0.84040 0.23974
Cu1_3 Cu 0.4984(3) 0.5726(1) 0.40672(9)
Cu2_3 Cu 0.8052(3) 0.6690(1) 0.3640(1)
O1_3 O 0.654(1) 0.6404(5) 0.4202(5)
O2_3 O 0.357(2) 0.4478(7) 0.5422(6)
O3_2 O 0.349(2) 0.5309(7) 0.2364(6)
O4_2 O 0.977(2) 0.5410(7) 0.2368(6)
N1_3 N 0.493(2) 0.5307(7) 0.4890(6)
N2_3 N 0.355(2) 0.4997(7) 0.3906(7)
N3_3 N 0.446(2) 0.5914(7) 0.3186(6)
N4_3 N 0.863(2) 0.5790(7) 0.3264(6)
N5_3 N 0.932(2) 0.6995(7) 0.2988(6)
N6_3 N 0.811(2) 0.7679(6) 0.3852(6)
C1_3 C 0.595(2) 0.5455(9) 0.5396(7)
C2_3 C 0.679(3) 0.497(1) 0.5666(9)
C3_3 C 0.785(3) 0.509(1) 0.613(1)
C4_3 C 0.793(3) 0.574(2) 0.6340(9)
C5_3 C 0.713(3) 0.624(1) 0.6078(9)
C6_3 C 0.614(3) 0.6104(9) 0.5603(9)
C7_3 C 0.389(3) 0.480(1) 0.4944(9)
C8_3 C 0.312(3) 0.4617(9) 0.4384(8)
C9_3 C 0.210(3) 0.408(1) 0.429(1)
C10_3 C 0.159(2) 0.397(1) 0.370(1)
C11_3 C 0.206(3) 0.436(1) 0.322(1)
C12_3 C 0.306(2) 0.489(1) 0.3347(8)
C13_3 C 0.375(3) 0.541(1) 0.2903(8)
C14_3 C 0.502(3) 0.6445(8) 0.2817(8)
C15_3 C 0.573(3) 0.638(1) 0.2275(9)
C16_3 C 0.619(3) 0.689(1) 0.192(1)
C17_3 C 0.601(3) 0.755(1) 0.214(1)
C18_3 C 0.538(3) 0.765(1) 0.270(1)
C19_3 C 0.491(3) 0.709(1) 0.3034(8)
C20_3 C 0.811(2) 0.5154(8) 0.3424(8)
C21_3 C 0.735(3) 0.474(1) 0.3015(9)
C22_3 C 0.680(3) 0.413(1) 0.319(1)
C23_3 C 0.697(4) 0.392(1) 0.379(1)
C24_3 C 0.767(3) 0.432(1) 0.419(1)
C25_3 C 0.818(3) 0.4941(9) 0.4010(9)
C26_3 C 0.941(2) 0.5847(9) 0.2746(9)
C27_3 C 0.993(3) 0.6578(9) 0.2608(7)
C31_3 C 0.953(2) 0.767(1) 0.2929(9)
C32_3 C 0.863(2) 0.8039(9) 0.3400(8)
C33_3 C 0.743(2) 0.7982(8) 0.4368(8)
C34_3 C 0.776(2) 0.7749(9) 0.4922(9)
C35_3 C 0.715(3) 0.805(1) 0.5445(8)
C36_3 C 0.621(3) 0.860(1) 0.5391(9)
C37_3 C 0.583(3) 0.881(1) 0.484(1)
C38_3 C 0.639(2) 0.853(1) 0.4325(8)
H1_3 H 0.65521 0.66238 0.46065
H2_3 H 0.66804 0.44859 0.55058
H3_3 H 0.85213 0.47264 0.62970
H4_3 H 0.85272 0.58252 0.66964
H5_3 H 0.72874 0.67040 0.61987
H6_3 H 0.55371 0.64676 0.54056
H7_3 H 0.16729 0.38046 0.46387
H8_3 H 0.09160 0.35631 0.36415
H9_3 H 0.17802 0.42469 0.28009
H10_3 H 0.58444 0.59437 0.20849
H11_3 H 0.66292 0.68128 0.14834
H12_3 H 0.63349 0.79227 0.18848
H13_3 H 0.53708 0.80999 0.28588
H14_3 H 0.44232 0.71749 0.34365
H18_3 H 0.72277 0.48539 0.25715
H19_3 H 0.62884 0.38269 0.29085
H20_3 H 0.65399 0.34983 0.39415
H21_3 H 0.78449 0.41238 0.46170
H22_3 H 0.85233 0.52530 0.43362
H23_3 H 0.84669 0.73620 0.49616
H24_3 H 0.73816 0.78892 0.58537
H25_3 H 0.58363 0.88288 0.57525
H26_3 H 0.51274 0.92111 0.48364
H27_3 H 0.60809 0.87111 0.39210
O6_2 O 0.151(2) 0.4691(7) 0.7364(6)
O7_2 O 0.523(2) 0.4590(7) 0.7368(6)
O2_4 O 0.143(2) 0.5522(7) 0.0422(6)
Cu1_4 Cu 0.0016(3) 0.4274(1) 0.90672(9)
N1_4 N 0.007(2) 0.4693(7) 0.9890(6)
N2_4 N 0.145(2) 0.5003(7) 0.8906(7)
N3_4 N 0.054(2) 0.4086(7) 0.8186(6)
C7_4 C 0.111(3) 0.520(1) 0.9944(9)
C8_4 C 0.188(3) 0.5383(9) 0.9384(8)
C9_4 C 0.290(3) 0.592(1) 0.929(1)
C10_4 C 0.341(2) 0.603(1) 0.870(1)
C11_4 C 0.294(3) 0.564(1) 0.822(1)
C12_4 C 0.194(2) 0.511(1) 0.8347(8)
C13_4 C 0.125(3) 0.459(1) 0.7903(8)
C19_4 C 0.009(3) 0.291(1) 0.8034(8)
H7_4 H 0.33271 0.61954 0.96387
H8_4 H 0.40840 0.64369 0.86415
H9_4 H 0.32198 0.57531 0.78009
H14_4 H 0.05768 0.28251 0.84365
C1_4 C 0.905(2) 0.4545(9) 0.0396(7)
C2_4 C 0.821(3) 0.503(1) 0.0666(9)
C3_4 C 0.715(3) 0.491(1) 0.113(1)
C4_4 C 0.707(3) 0.426(2) 0.1340(9)
C5_4 C 0.787(3) 0.376(1) 0.1078(9)
C6_4 C 0.886(3) 0.3896(9) 0.0603(9)
C35_4 C 0.785(3) 0.195(1) 0.0445(8)
C36_4 C 0.879(3) 0.140(1) 0.0391(9)
H2_4 H 0.83196 0.55141 0.05058
H3_4 H 0.64787 0.52736 0.12970
H4_4 H 0.64728 0.41748 0.16964
H5_4 H 0.77126 0.32960 0.11987
H6_4 H 0.94629 0.35324 0.04056
H24_4 H 0.76184 0.21108 0.08537
H25_4 H 0.91637 0.11712 0.07525
Cu2_4 Cu 0.6948(3) 0.3310(1) 0.8640(1)
O1_4 O 0.846(1) 0.3596(5) 0.9202(5)
N4_4 N 0.637(2) 0.4210(7) 0.8264(6)
N5_4 N 0.568(2) 0.3005(7) 0.7988(6)
N6_4 N 0.689(2) 0.2321(6) 0.8852(6)
C14_4 C 0.998(3) 0.3555(8) 0.7817(8)
C15_4 C 0.927(3) 0.362(1) 0.7275(9)
C16_4 C 0.881(3) 0.311(1) 0.692(1)
C17_4 C 0.899(3) 0.245(1) 0.714(1)
C18_4 C 0.962(3) 0.235(1) 0.770(1)
C20_4 C 0.689(2) 0.4846(8) 0.8424(8)
C21_4 C 0.765(3) 0.526(1) 0.8015(9)
C22_4 C 0.820(3) 0.587(1) 0.819(1)
C23_4 C 0.803(4) 0.608(1) 0.879(1)
C24_4 C 0.733(3) 0.568(1) 0.919(1)
C25_4 C 0.682(3) 0.5059(9) 0.9010(9)
C26_4 C 0.559(2) 0.4153(9) 0.7746(9)
C27_4 C 0.507(3) 0.3422(9) 0.7608(7)
C28_3 C 0.408(2) 0.321(1) 0.7153(9)
C29_3 C 0.381(3) 0.252(1) 0.708(1)
C30_3 C 0.452(2) 0.209(1) 0.7475(9)
C31_4 C 0.547(2) 0.233(1) 0.7929(9)
C32_4 C 0.637(2) 0.1961(9) 0.8400(8)
C33_4 C 0.757(2) 0.2018(8) 0.9368(8)
C34_4 C 0.724(2) 0.2251(9) 0.9922(9)
C37_4 C 0.917(3) 0.119(1) 0.984(1)
C38_4 C 0.861(2) 0.147(1) 0.9325(8)
H1_4 H 0.84479 0.33762 0.96065
H10_4 H 0.91556 0.40563 0.70849
H11_4 H 0.83708 0.31872 0.64834
H12_4 H 0.86651 0.20773 0.68848
H13_4 H 0.96292 0.19001 0.78588
H15_3 H 0.35555 0.35282 0.68535
H16_3 H 0.31197 0.23808 0.67362
H17_3 H 0.43234 0.15960 0.73974
H18_4 H 0.77723 0.51461 0.75715
H19_4 H 0.87116 0.61731 0.79085
H20_4 H 0.84601 0.65017 0.89415
H21_4 H 0.71551 0.58762 0.96170
H22_4 H 0.64767 0.47470 0.93362
H23_4 H 0.65331 0.26380 0.99616
H26_4 H 0.98726 0.07889 0.98364
H27_4 H 0.89191 0.12889 0.89210
C28_4 C 0.908(2) 0.179(1) 0.2847(9)
C29_4 C 0.881(3) 0.248(1) 0.292(1)
C30_4 C 0.952(2) 0.291(1) 0.2525(9)
H15_4 H 0.85555 0.14718 0.31465
H16_4 H 0.81197 0.26192 0.32638
H17_4 H 0.93234 0.34040 0.26026
loop_
_geom_bond_atom_site_label_1
_geom_bond_atom_site_label_2
_geom_bond_site_symmetry_1
_geom_bond_site_symmetry_2
C22 C21 1_555 1_555
C23 C22 1_555 1_555
C24 C23 1_555 1_555
H2 C2 1_555 1_555
H18 C21 1_555 1_555
H19 C22 1_555 1_555
H20 C23 1_555 1_555
H21 C24 1_555 1_555
C24 C25 1_555 1_555
Cu2 O1 1_555 1_555
O1 H1 1_555 1_555
O4 C26 1_555 1_555
O5 C32 1_555 1_555
N4 Cu2 1_555 1_555
N5 Cu2 1_555 1_555
N6 Cu2 1_555 1_555
C4 C3 1_555 1_555
C5 C4 1_555 1_555
C6 C1 1_555 1_555
C15 C14 1_555 1_555
C16 C15 1_555 1_555
C17 C16 1_555 1_555
C18 C17 1_555 1_555
C20 N4 1_555 1_555
C26 N4 1_555 1_555
C27 N5 1_555 1_555
C28 C27 1_555 1_555
C29 C28 1_555 1_555
C30 C29 1_555 1_555
C31 N5 1_555 1_555
C32 N6 1_555 1_555
C33 N6 1_555 1_555
C34 C33 1_555 1_555
C35 C34 1_555 1_555
C36 C35 1_555 1_555
C37 C36 1_555 1_555
C38 C33 1_555 1_555
H4 C4 1_555 1_555
H5 C5 1_555 1_555
H6 C6 1_555 1_555
H10 C15 1_555 1_555
H11 C16 1_555 1_555
H12 C17 1_555 1_555
H13 C18 1_555 1_555
H15 C28 1_555 1_555
H16 C29 1_555 1_555
H17 C30 1_555 1_555
H23 C34 1_555 1_555
H24 C35 1_555 1_555
H25 C36 1_555 1_555
H26 C37 1_555 1_555
H27 C38 1_555 1_555
K4 O5 1_555 1_555
C5 C6 1_555 1_555
C26 C27 1_555 1_555
C30 C31 1_555 1_555
C31 C32 1_555 1_555
C37 C38 1_555 1_555
O2 C7 1_555 1_555
C8 N2 1_555 1_555
C9 C8 1_555 1_555
C10 C9 1_555 1_555
C11 C10 1_555 1_555
C12 N2 1_555 1_555
H7 C9 1_555 1_555
H8 C10 1_555 1_555
H9 C11 1_555 1_555
C7 C8 1_555 1_555
C11 C12 1_555 1_555
O3 C13 1_555 1_555
N1 Cu1 1_555 1_555
N3 Cu1 1_555 1_555
C13 N3 1_555 1_555
H14 C19 1_555 1_555
O8 K1 1_555 1_555
Cu1_2 O1_2 1_555 1_555
Cu2_2 O1_2 1_555 1_555
O1_2 H1_2 1_555 1_555
O6 C13_2 1_555 1_555
O7 C26_2 1_555 1_555
O5_2 C32_2 1_555 1_555
N1_2 Cu1_2 1_555 1_555
N3_2 Cu1_2 1_555 1_555
N4_2 Cu2_2 1_555 1_555
N5_2 Cu2_2 1_555 1_555
N6_2 Cu2_2 1_555 1_555
C13_2 N3_2 1_555 1_555
C14_2 N3_2 1_555 1_555
C15_2 C14_2 1_555 1_555
C16_2 C15_2 1_555 1_555
C17_2 C16_2 1_555 1_555
C18_2 C17_2 1_555 1_555
C19_2 C14_2 1_555 1_555
C20_2 N4_2 1_555 1_555
C26_2 N4_2 1_555 1_555
C27_2 N5_2 1_555 1_555
C31_2 N5_2 1_555 1_555
C32_2 N6_2 1_555 1_555
C33_2 N6_2 1_555 1_555
C34_2 C33_2 1_555 1_555
C38_2 C33_2 1_555 1_555
H10_2 C15_2 1_555 1_555
H11_2 C16_2 1_555 1_555
H12_2 C17_2 1_555 1_555
H13_2 C18_2 1_555 1_555
H14_2 C19_2 1_555 1_555
H23_2 C34_2 1_555 1_555
H26_2 C37_2 1_555 1_555
H27_2 C38_2 1_555 1_555
K4_2 O5_2 1_555 1_555
C18_2 C19_2 1_555 1_555
C26_2 C27_2 1_555 1_555
C31_2 C32_2 1_555 1_555
C37_2 C38_2 1_555 1_555
C4_2 C3_2 1_555 1_555
C5_2 C4_2 1_555 1_555
C6_2 C1_2 1_555 1_555
C36_2 C35_2 1_555 1_555
H4_2 C4_2 1_555 1_555
H5_2 C5_2 1_555 1_555
H6_2 C6_2 1_555 1_555
H24_2 C35_2 1_555 1_555
H25_2 C36_2 1_555 1_555
O8_2 K3 1_555 1_555
C5_2 C6_2 1_555 1_555
C8_2 N2_2 1_555 1_555
C9_2 C8_2 1_555 1_555
C10_2 C9_2 1_555 1_555
C11_2 C10_2 1_555 1_555
C12_2 N2_2 1_555 1_555
C22_2 C21_2 1_555 1_555
C23_2 C22_2 1_555 1_555
C24_2 C23_2 1_555 1_555
H7_2 C9_2 1_555 1_555
H8_2 C10_2 1_555 1_555
H9_2 C11_2 1_555 1_555
H18_2 C21_2 1_555 1_555
H19_2 C22_2 1_555 1_555
H20_2 C23_2 1_555 1_555
H21_2 C24_2 1_555 1_555
C7_2 C8_2 1_555 1_555
C11_2 C12_2 1_555 1_555
C24_2 C25_2 1_555 1_555
H2_2 C2_2 1_555 1_555
C29_2 C28_2 1_555 1_555
C30_2 C29_2 1_555 1_555
H15_2 C28_2 1_555 1_555
H16_2 C29_2 1_555 1_555
H17_2 C30_2 1_555 1_555
Cu1_3 O1_3 1_555 1_555
Cu2_3 O1_3 1_555 1_555
K4 O2_3 1_555 1_555
O1_3 H1_3 1_555 1_555
O2_3 C7_3 1_555 1_555
O3_2 C13_3 1_555 1_555
O4_2 C26_3 1_555 1_555
O8 C32_3 1_555 1_555
N1_3 Cu1_3 1_555 1_555
N2_3 Cu1_3 1_555 1_555
N3_3 Cu1_3 1_555 1_555
N4_3 Cu2_3 1_555 1_555
N5_3 Cu2_3 1_555 1_555
N6_3 Cu2_3 1_555 1_555
C1_3 N1_3 1_555 1_555
C2_3 C1_3 1_555 1_555
C3_3 C2_3 1_555 1_555
C4_3 C3_3 1_555 1_555
C5_3 C4_3 1_555 1_555
C6_3 C1_3 1_555 1_555
C7_3 N1_3 1_555 1_555
C8_3 N2_3 1_555 1_555
C9_3 C8_3 1_555 1_555
C10_3 C9_3 1_555 1_555
C11_3 C10_3 1_555 1_555
C12_3 N2_3 1_555 1_555
C13_3 N3_3 1_555 1_555
C14_3 N3_3 1_555 1_555
C15_3 C14_3 1_555 1_555
C16_3 C15_3 1_555 1_555
C17_3 C16_3 1_555 1_555
C18_3 C17_3 1_555 1_555
C19_3 C14_3 1_555 1_555
C20_3 N4_3 1_555 1_555
C21_3 C20_3 1_555 1_555
C22_3 C21_3 1_555 1_555
C23_3 C22_3 1_555 1_555
C24_3 C23_3 1_555 1_555
C25_3 C20_3 1_555 1_555
C26_3 N4_3 1_555 1_555
C27_3 N5_3 1_555 1_555
C31_3 N5_3 1_555 1_555
C32_3 N6_3 1_555 1_555
C33_3 N6_3 1_555 1_555
C34_3 C33_3 1_555 1_555
C35_3 C34_3 1_555 1_555
C36_3 C35_3 1_555 1_555
C37_3 C36_3 1_555 1_555
C38_3 C33_3 1_555 1_555
H2_3 C2_3 1_555 1_555
H3_3 C3_3 1_555 1_555
H4_3 C4_3 1_555 1_555
H5_3 C5_3 1_555 1_555
H6_3 C6_3 1_555 1_555
H7_3 C9_3 1_555 1_555
H8_3 C10_3 1_555 1_555
H9_3 C11_3 1_555 1_555
H10_3 C15_3 1_555 1_555
H11_3 C16_3 1_555 1_555
H12_3 C17_3 1_555 1_555
H13_3 C18_3 1_555 1_555
H14_3 C19_3 1_555 1_555
H18_3 C21_3 1_555 1_555
H19_3 C22_3 1_555 1_555
H20_3 C23_3 1_555 1_555
H21_3 C24_3 1_555 1_555
H22_3 C25_3 1_555 1_555
H23_3 C34_3 1_555 1_555
H24_3 C35_3 1_555 1_555
H25_3 C36_3 1_555 1_555
H26_3 C37_3 1_555 1_555
H27_3 C38_3 1_555 1_555
K4_2 O3_2 1_555 1_555
O6_2 K4 1_555 1_555
O7_2 K4 1_555 1_555
C5_3 C6_3 1_555 1_555
C7_3 C8_3 1_555 1_555
C11_3 C12_3 1_555 1_555
C12_3 C13_3 1_555 1_555
C18_3 C19_3 1_555 1_555
C24_3 C25_3 1_555 1_555
C26_3 C27_3 1_555 1_555
C31_3 C32_3 1_555 1_555
C37_3 C38_3 1_555 1_555
K4_2 O2_4 1_555 1_555
O6_2 C13_4 1_555 1_555
N1_4 Cu1_4 1_555 1_555
N2_4 Cu1_4 1_555 1_555
N3_4 Cu1_4 1_555 1_555
C7_4 N1_4 1_555 1_555
C8_4 N2_4 1_555 1_555
C9_4 C8_4 1_555 1_555
C10_4 C9_4 1_555 1_555
C11_4 C10_4 1_555 1_555
C12_4 N2_4 1_555 1_555
C13_4 N3_4 1_555 1_555
H7_4 C9_4 1_555 1_555
H8_4 C10_4 1_555 1_555
H9_4 C11_4 1_555 1_555
H14_4 C19_4 1_555 1_555
C7_4 C8_4 1_555 1_555
C11_4 C12_4 1_555 1_555
C12_4 C13_4 1_555 1_555
C2_4 C1_4 1_555 1_555
C3_4 C2_4 1_555 1_555
C4_4 C3_4 1_555 1_555
C5_4 C4_4 1_555 1_555
C6_4 C1_4 1_555 1_555
C36_4 C35_4 1_555 1_555
H2_4 C2_4 1_555 1_555
H3_4 C3_4 1_555 1_555
H4_4 C4_4 1_555 1_555
H5_4 C5_4 1_555 1_555
H6_4 C6_4 1_555 1_555
H24_4 C35_4 1_555 1_555
H25_4 C36_4 1_555 1_555
C5_4 C6_4 1_555 1_555
Cu2_4 O1_4 1_555 1_555
O1_4 H1_4 1_555 1_555
O7_2 C26_4 1_555 1_555
O8_2 C32_4 1_555 1_555
N4_4 Cu2_4 1_555 1_555
N5_4 Cu2_4 1_555 1_555
N6_4 Cu2_4 1_555 1_555
C15_4 C14_4 1_555 1_555
C16_4 C15_4 1_555 1_555
C17_4 C16_4 1_555 1_555
C18_4 C17_4 1_555 1_555
C20_4 N4_4 1_555 1_555
C21_4 C20_4 1_555 1_555
C22_4 C21_4 1_555 1_555
C23_4 C22_4 1_555 1_555
C24_4 C23_4 1_555 1_555
C25_4 C20_4 1_555 1_555
C26_4 N4_4 1_555 1_555
C27_4 N5_4 1_555 1_555
C28_3 C27_4 1_555 1_555
C29_3 C28_3 1_555 1_555
C30_3 C29_3 1_555 1_555
C31_4 N5_4 1_555 1_555
C32_4 N6_4 1_555 1_555
C33_4 N6_4 1_555 1_555
C34_4 C33_4 1_555 1_555
C38_4 C33_4 1_555 1_555
H10_4 C15_4 1_555 1_555
H11_4 C16_4 1_555 1_555
H12_4 C17_4 1_555 1_555
H13_4 C18_4 1_555 1_555
H15_3 C28_3 1_555 1_555
H16_3 C29_3 1_555 1_555
H17_3 C30_3 1_555 1_555
H18_4 C21_4 1_555 1_555
H19_4 C22_4 1_555 1_555
H20_4 C23_4 1_555 1_555
H21_4 C24_4 1_555 1_555
H22_4 C25_4 1_555 1_555
H23_4 C34_4 1_555 1_555
H26_4 C37_4 1_555 1_555
H27_4 C38_4 1_555 1_555
C24_4 C25_4 1_555 1_555
C26_4 C27_4 1_555 1_555
C30_3 C31_4 1_555 1_555
C31_4 C32_4 1_555 1_555
C37_4 C38_4 1_555 1_555
C29_4 C28_4 1_555 1_555
C30_4 C29_4 1_555 1_555
H15_4 C28_4 1_555 1_555
H16_4 C29_4 1_555 1_555
H17_4 C30_4 1_555 1_555

#END
