
###############################################################################
#
# This file contains modified crystal structure data generated from the
# MOF subset of the Cambridge Structural Database (CSD) v543 
# hosted by the Cambridge Crystallographic Data Centre (CCDC).
#
# This work is licensed under the Creative Commons
# Attribution-NonCommercial-ShareAlike 4.0 International License.
# To view a copy of this license, visit
# http://creativecommons.org/licenses/by-nc-sa/4.0/
# or send a letter to
# Creative Commons, PO Box 1866, Mountain View, CA 94042, USA.
#
# CIF created using the CSD Python API on 29 September 2022
# The structure has been converted into the P1 space group
# The structure has a 3D framework
# The original CSD entry WOHTUK is in the orthorhombic crystal system
# The framework has been calculated to contain at least 10.0% void space
# The void calculation uses a probe of radius 1.32A, grid spacing 0.4
#
###############################################################################

data_WOHTUK
_chemical_formula_moiety         '(C280 H400 Cu40 N80)n'
_symmetry_cell_setting           triclinic
_symmetry_space_group_name_H-M   'P 1'
_symmetry_Int_Tables_number      1
_space_group_name_Hall           'P 1'
loop_
_symmetry_equiv_pos_site_id
_symmetry_equiv_pos_as_xyz
1 x,y,z
_cell_length_a                   10.2646(13)
_cell_length_b                   32.685(2)
_cell_length_c                   33.689(4)
_cell_angle_alpha                90
_cell_angle_beta                 90
_cell_angle_gamma                90
_cell_volume                     11302.6
loop_
_atom_site_label
_atom_site_type_symbol
_atom_site_fract_x
_atom_site_fract_y
_atom_site_fract_z
Cu7 Cu 0.42903(12) 0.07833(3) 0.15675(4)
Cu9 Cu 0.29375(13) 0.02387(3) 0.09133(4)
C43 C 0.0537(8) 0.17083(18) 0.0905(2)
C44 C 0.1380(7) 0.13724(18) 0.1001(2)
N13 N 0.2990(6) 0.10003(16) 0.12762(19)
N14 N 0.2336(7) 0.07500(17) 0.1006(2)
C45 C 0.2412(7) 0.13667(15) 0.1258(2)
C46 C 0.0599(7) 0.1965(2) 0.05979(18)
C47 C 0.1373(6) 0.09820(19) 0.0854(2)
C49 C 0.3963(8) 0.1968(3) 0.1311(4)
H61 H 0.4524 0.1789 0.1163
H62 H 0.4467 0.2117 0.1503
H63 H 0.3549 0.2157 0.1133
C51 C 0.2911(8) 0.1712(2) 0.1527(2)
H66 H 0.3278 0.1596 0.1767
H67 H 0.2191 0.1887 0.1602
C56 C 0.0411(7) 0.0773(2) 0.0566(2)
H68 H 0.0882 0.0594 0.0386
C59 C 0.1632(8) 0.1975(3) 0.0262(2)
H75 H 0.2002 0.2247 0.0242
H76 H 0.2330 0.1785 0.0323
N22 N 0.6235(8) 0.0231(2) 0.1732(2)
N23 N 0.5602(7) 0.0573(2) 0.1865(2)
C5 C 0.7112(9) 0.0400(2) 0.2332(3)
C7 C 0.7118(6) 0.0135(2) 0.2019(3)
C8 C 0.6126(7) 0.0665(2) 0.2217(2)
C22 C 0.5576(7) 0.1033(2) 0.2449(3)
H19 H 0.6241 0.1138 0.2626
H20 H 0.5348 0.1249 0.2264
H31 H 0.9533 0.0137 0.1804
C27 C 0.4363(8) 0.0914(4) 0.2692(3)
H33 H 0.3596 0.0954 0.2533
H34 H 0.4314 0.1082 0.2925
H35 H 0.4424 0.0631 0.2768
N11 N 0.8765(8) 0.0231(2) 0.3268(2)
C36 C 0.7888(9) 0.0400(2) 0.2668(3)
C37 C 0.7882(6) 0.0135(2) 0.2981(3)
N12 N 0.9398(7) 0.0573(2) 0.3135(2)
C38 C 0.8874(7) 0.0665(2) 0.2783(2)
C40 C 0.9424(7) 0.1033(2) 0.2551(3)
H53 H 0.8759 0.1138 0.2374
H54 H 0.9652 0.1249 0.2736
H56 H 0.5467 0.0137 0.3196
C60 C 0.0991(13) 0.1856(5) 0.9863(2)
H77 H 0.1426 0.1621 0.9755
H78 H 0.1061 0.2080 0.9680
H79 H 0.0089 0.1793 0.9906
Cu1 Cu 0.07097(12) 0.42167(3) 0.15675(4)
Cu2 Cu 0.57527(14) 0.23037(3) 0.02822(5)
Cu3 Cu 0.7500 0.2500 0.09743(6)
Cu4 Cu 0.20625(13) 0.47613(3) 0.09133(4)
C1 C 0.4463(8) 0.32917(18) 0.0905(2)
C2 C 0.3620(7) 0.36276(18) 0.1001(2)
N1 N 0.2010(6) 0.39997(16) 0.12762(19)
N2 N 0.2664(7) 0.42500(17) 0.1006(2)
N3 N 0.6033(7) 0.28051(16) 0.0926(2)
N5 N 0.1426(7) 0.52683(18) 0.0806(2)
C3 C 0.2588(7) 0.36333(15) 0.1258(2)
C4 C 0.4401(7) 0.3035(2) 0.05979(18)
C6 C 0.3627(6) 0.40180(19) 0.0854(2)
N7 N 0.5334(7) 0.27423(18) 0.0592(3)
N8 N 0.0226(8) 0.53846(19) 0.0950(2)
C9 C 0.5504(7) 0.3146(2) 0.1111(2)
C10 C 0.1037(8) 0.3032(3) 0.1311(4)
H1 H 0.0476 0.3211 0.1163
H2 H 0.0533 0.2883 0.1503
H3 H 0.1451 0.2843 0.1133
C11 C 0.6128(7) 0.3290(3) 0.1505(2)
H4 H 0.6342 0.3054 0.1666
H5 H 0.5508 0.3456 0.1650
C12 C 0.2089(8) 0.3288(2) 0.1527(2)
H6 H 0.1722 0.3404 0.1767
H7 H 0.2809 0.3113 0.1602
C13 C 0.1846(5) 0.5587(2) 0.0589(3)
C14 C 0.1228(10) 0.6328(2) 0.0441(3)
C15 C 0.0021(6) 0.5778(2) 0.0830(3)
C16 C 0.1083(11) 0.59220(19) 0.0604(3)
C17 C 0.4589(7) 0.4227(2) 0.0566(2)
H8 H 0.4118 0.4406 0.0386
H9 H 0.5040 0.4022 0.0409
C19 C 0.3151(6) 0.5530(3) 0.0359(2)
H13 H 0.3178 0.5713 0.0132
H14 H 0.3226 0.5251 0.0264
C21 C 0.3368(8) 0.3025(3) 0.0262(2)
H17 H 0.2998 0.2753 0.0242
H18 H 0.2670 0.3215 0.0323
C24 C 0.5596(8) 0.4482(4) 0.0811(4)
H24 H 0.5147 0.4637 0.1011
H25 H 0.6054 0.4666 0.0637
H26 H 0.6207 0.4301 0.0936
C25 C 0.7383(8) 0.3544(4) 0.1426(4)
H27 H 0.7865 0.3422 0.1212
H28 H 0.7912 0.3547 0.1661
H29 H 0.7149 0.3819 0.1357
C27_2 C 0.0637(8) 0.4086(4) 0.2692(3)
H33_2 H 0.1404 0.4046 0.2533
H34_2 H 0.0686 0.3918 0.2925
H35_2 H 0.0576 0.4369 0.2768
C28 C 0.4296(7) 0.5631(6) 0.0650(4)
H36 H 0.4201 0.5905 0.0747
H37 H 0.5111 0.5605 0.0512
H38 H 0.4278 0.5443 0.0869
N9 N 0.1146(8) 0.68786(17) 0.0038(2)
C29 C 0.0758(8) 0.6480(2) 0.00833(18)
C30 C 0.1871(10) 0.6635(3) 0.06164(19)
C32 C 0.2815(9) 0.6641(4) 0.0986(2)
H41 H 0.3146 0.6369 0.1039
H42 H 0.3548 0.6821 0.0936
N10 N 0.1772(11) 0.69792(18) 0.0372(3)
C35 C 0.2018(16) 0.6799(6) 0.1350(2)
H48 H 0.1880 0.7089 0.1325
H49 H 0.2493 0.6745 0.1590
H50 H 0.1192 0.6662 0.1360
Cu6 Cu 0.2500 0.7500 0.04086(7)
Cu10 Cu 0.55682(16) 0.99389(4) 0.13168(5)
N16 N 0.3574(7) 0.97317(18) 0.0806(2)
N18 N 0.4774(8) 0.96154(19) 0.0950(2)
C52 C 0.3154(5) 0.9413(2) 0.0589(3)
C53 C 0.3772(10) 0.8672(2) 0.0441(3)
C54 C 0.4979(6) 0.9222(2) 0.0830(3)
C55 C 0.3917(11) 0.90780(19) 0.0604(3)
C57 C 0.6530(13) 0.8801(4) 0.1251(3)
H70 H 0.6954 0.8957 0.1455
H71 H 0.7028 0.8559 0.1197
H72 H 0.5673 0.8725 0.1338
C58 C 0.1849(6) 0.9470(3) 0.0359(2)
H73 H 0.1822 0.9287 0.0132
H74 H 0.1774 0.9749 0.0264
C63 C 0.0704(7) 0.9369(6) 0.0650(4)
H86 H 0.0799 0.9095 0.0747
H88 H 0.0722 0.9557 0.0869
N19 N 0.3854(8) 0.81214(17) 0.0038(2)
C64 C 0.4242(8) 0.8520(2) 0.00833(18)
C65 C 0.3129(10) 0.8365(3) 0.06164(19)
C67 C 0.2185(9) 0.8359(4) 0.0986(2)
H91 H 0.1854 0.8631 0.1039
H92 H 0.1452 0.8179 0.0936
C68 C 0.6423(8) 0.9063(4) 0.0867(3)
H93 H 0.6648 0.8899 0.0637
H94 H 0.7021 0.9293 0.0881
N20 N 0.3228(11) 0.80208(18) 0.0372(3)
C70 C 0.2982(16) 0.8201(6) 0.1350(2)
H98 H 0.3120 0.7911 0.1325
H99 H 0.2507 0.8255 0.1590
H100 H 0.3808 0.8338 0.1360
N21 N 0.8967(7) 0.21949(16) 0.0926(2)
Cu8 Cu 0.92473(14) 0.26963(3) 0.02822(5)
N17 N 0.9666(7) 0.22577(18) 0.0592(3)
C48 C 0.9496(7) 0.1854(2) 0.1111(2)
C50 C 0.8872(7) 0.1710(3) 0.1505(2)
H64 H 0.8658 0.1946 0.1666
H65 H 0.9492 0.1544 0.1650
H69 H 0.9960 0.0978 0.0409
C61 C 0.9404(8) 0.0518(4) 0.0811(4)
H80 H 0.9853 0.0363 0.1011
H81 H 0.8946 0.0334 0.0637
H82 H 0.8793 0.0699 0.0936
C62 C 0.7617(8) 0.1456(4) 0.1426(4)
H83 H 0.7135 0.1578 0.1212
H84 H 0.7088 0.1453 0.1661
H85 H 0.7851 0.1181 0.1357
C42 C 0.0637(8) 0.0914(4) 0.2308(3)
H58 H 0.1404 0.0954 0.2467
H59 H 0.0686 0.1082 0.2075
H60 H 0.0576 0.0631 0.2232
Cu11 Cu 0.07097(12) 0.07833(3) 0.34325(4)
C20 C 0.8014(7) 0.9750(2) 0.1968(3)
H15 H 0.8294 0.9652 0.2226
H16 H 0.7538 0.9533 0.1836
C26 C 0.9216(8) 0.9877(5) 0.1715(4)
H30 H 0.9890 0.9675 0.1744
H32 H 0.8968 0.9895 0.1441
C39 C 0.6986(7) 0.9750(2) 0.3032(3)
H51 H 0.6706 0.9652 0.2774
H52 H 0.7462 0.9533 0.3164
C41 C 0.5784(8) 0.9877(5) 0.3285(4)
H55 H 0.5110 0.9675 0.3256
H57 H 0.6032 0.9895 0.3559
Cu15 Cu 0.94318(16) 0.99389(4) 0.36832(5)
Cu2_2 Cu 0.57527(14) 0.26963(3) 0.47178(5)
Cu3_2 Cu 0.7500 0.2500 0.40257(6)
Cu4_2 Cu 0.20625(13) 0.02387(3) 0.40867(4)
C1_2 C 0.4463(8) 0.17083(18) 0.4095(2)
C2_2 C 0.3620(7) 0.13724(18) 0.3999(2)
N1_2 N 0.2010(6) 0.10003(16) 0.37238(19)
N2_2 N 0.2664(7) 0.07500(17) 0.3994(2)
N3_2 N 0.6033(7) 0.21949(16) 0.4074(2)
C3_2 C 0.2588(7) 0.13667(15) 0.3742(2)
C4_2 C 0.4401(7) 0.1965(2) 0.44021(18)
C6_2 C 0.3627(6) 0.09820(19) 0.4146(2)
N7_2 N 0.5334(7) 0.22577(18) 0.4408(3)
C9_2 C 0.5504(7) 0.1854(2) 0.3889(2)
C10_2 C 0.1037(8) 0.1968(3) 0.3689(4)
H1_2 H 0.0476 0.1789 0.3837
H2_2 H 0.0533 0.2117 0.3497
H3_2 H 0.1451 0.2157 0.3867
C11_2 C 0.6128(7) 0.1710(3) 0.3495(2)
H4_2 H 0.6342 0.1946 0.3334
H5_2 H 0.5508 0.1544 0.3350
C12_2 C 0.2089(8) 0.1712(2) 0.3473(2)
H6_2 H 0.1722 0.1596 0.3233
H7_2 H 0.2809 0.1887 0.3398
C17_2 C 0.4589(7) 0.0773(2) 0.4434(2)
H8_2 H 0.4118 0.0594 0.4614
H9_2 H 0.5040 0.0978 0.4591
C21_2 C 0.3368(8) 0.1975(3) 0.4738(2)
H17_2 H 0.2998 0.2247 0.4758
H18_2 H 0.2670 0.1785 0.4677
C23 C 0.4009(13) 0.1856(5) 0.5137(2)
H21 H 0.3574 0.1621 0.5245
H22 H 0.3939 0.2080 0.5320
H23 H 0.4911 0.1793 0.5094
C24_2 C 0.5596(8) 0.0518(4) 0.4189(4)
H24_2 H 0.5147 0.0363 0.3989
H25_2 H 0.6054 0.0334 0.4363
H26_2 H 0.6207 0.0699 0.4064
C25_2 C 0.7383(8) 0.1456(4) 0.3574(4)
H27_2 H 0.7865 0.1578 0.3788
H28_2 H 0.7912 0.1453 0.3339
H29_2 H 0.7149 0.1181 0.3643
N21_2 N 0.8967(7) 0.28051(16) 0.4074(2)
N25 N 0.6146(8) 0.31214(17) 0.5038(2)
C18 C 0.8470(13) 0.8801(4) 0.3749(3)
H10 H 0.8046 0.8957 0.3545
H11 H 0.7972 0.8559 0.3803
H12 H 0.9327 0.8725 0.3662
H39 H 0.9430 0.8549 0.5384
H40 H 0.9550 0.8968 0.5158
C33 C 0.8577(8) 0.9063(4) 0.4133(3)
H43 H 0.8352 0.8899 0.4363
H44 H 0.7979 0.9293 0.4119
Cu8_2 Cu 0.92473(14) 0.23037(3) 0.47178(5)
N17_2 N 0.9666(7) 0.27423(18) 0.4408(3)
C48_2 C 0.9496(7) 0.3146(2) 0.3889(2)
C50_2 C 0.8872(7) 0.3290(3) 0.3495(2)
H64_2 H 0.8658 0.3054 0.3334
H65_2 H 0.9492 0.3456 0.3350
H69_2 H 0.9960 0.4022 0.4591
C61_2 C 0.9404(8) 0.4482(4) 0.4189(4)
H80_2 H 0.9853 0.4637 0.3989
H81_2 H 0.8946 0.4666 0.4363
H82_2 H 0.8793 0.4301 0.4064
C62_2 C 0.7617(8) 0.3544(4) 0.3574(4)
H83_2 H 0.7135 0.3422 0.3788
H84_2 H 0.7088 0.3547 0.3339
H85_2 H 0.7851 0.3819 0.3643
H87 H 0.9889 0.5605 0.4488
N24 N 0.8854(8) 0.18786(17) 0.5038(2)
Cu5 Cu 0.05682(16) 0.49389(4) 0.86832(5)
N4 N 0.1235(8) 0.5231(2) 0.8268(2)
C5_2 C 0.2112(9) 0.5400(2) 0.7668(3)
C7_2 C 0.2118(6) 0.5135(2) 0.7981(3)
N6 N 0.0602(7) 0.5573(2) 0.8135(2)
C8_2 C 0.1126(7) 0.5665(2) 0.7783(2)
C18_2 C 0.1530(13) 0.3801(4) 0.8749(3)
H10_2 H 0.1954 0.3957 0.8545
H11_2 H 0.2028 0.3559 0.8803
H12_2 H 0.0673 0.3725 0.8662
C20_2 C 0.3014(7) 0.4750(2) 0.8032(3)
H15_2 H 0.3294 0.4652 0.7774
H16_2 H 0.2538 0.4533 0.8164
C22_2 C 0.0576(7) 0.6033(2) 0.7551(3)
H19_2 H 0.1241 0.6138 0.7374
H20_2 H 0.0348 0.6249 0.7736
C26_2 C 0.4216(8) 0.4877(5) 0.8285(4)
H30_2 H 0.4890 0.4675 0.8256
H31_2 H 0.4533 0.5137 0.8196
H32_2 H 0.3968 0.4895 0.8559
C33_2 C 0.1423(8) 0.4063(4) 0.9133(3)
H43_2 H 0.1648 0.3899 0.9363
H44_2 H 0.2021 0.4293 0.9119
N11_2 N 0.3765(8) 0.5231(2) 0.6732(2)
C36_2 C 0.2888(9) 0.5400(2) 0.7332(3)
C37_2 C 0.2882(6) 0.5135(2) 0.7019(3)
N12_2 N 0.4398(7) 0.5573(2) 0.6865(2)
C38_2 C 0.3874(7) 0.5665(2) 0.7217(2)
C39_2 C 0.1986(7) 0.4750(2) 0.6968(3)
H51_2 H 0.1706 0.4652 0.7226
H52_2 H 0.2462 0.4533 0.6836
C40_2 C 0.4424(7) 0.6033(2) 0.7449(3)
H53_2 H 0.3759 0.6138 0.7626
H54_2 H 0.4652 0.6249 0.7264
C41_2 C 0.0784(8) 0.4877(5) 0.6715(4)
H55_2 H 0.0110 0.4675 0.6744
H56_2 H 0.0467 0.5137 0.6804
H57_2 H 0.1032 0.4895 0.6441
C42_2 C 0.5637(8) 0.5914(4) 0.7692(3)
H58_2 H 0.6404 0.5954 0.7533
H59_2 H 0.5686 0.6082 0.7925
H60_2 H 0.5576 0.5631 0.7768
H87_2 H 0.0111 0.0605 0.9488
Cu11_2 Cu 0.57097(12) 0.57833(3) 0.65675(4)
Cu15_2 Cu 0.44318(16) 0.49389(4) 0.63168(5)
C23_2 C 0.5991(13) 0.6856(5) 0.0137(2)
H21_2 H 0.6426 0.6621 0.0245
H22_2 H 0.6061 0.7080 0.0320
H23_2 H 0.5089 0.6793 0.0094
C31 C 0.9959(7) 0.3737(3) 0.0262(2)
C34 C 0.8972(11) 0.3892(4) 0.0581(3)
H45 H 0.8504 0.3663 0.0689
H46 H 0.9436 0.4028 0.0790
H47 H 0.8370 0.4079 0.0461
C66 C 0.5041(7) 0.1263(3) 0.0262(2)
H89 H 0.4430 0.1451 0.0384
H90 H 0.4550 0.1032 0.0158
C69 C 0.6028(11) 0.1108(4) 0.0581(3)
H95 H 0.6496 0.1337 0.0689
H96 H 0.5564 0.0972 0.0790
H97 H 0.6630 0.0921 0.0461
N5_2 N 0.8574(7) 0.02683(18) 0.5806(2)
N8_2 N 0.9774(8) 0.03846(19) 0.5950(2)
C13_2 C 0.8154(5) 0.0587(2) 0.5589(3)
C14_2 C 0.8772(10) 0.1328(2) 0.5441(3)
C15_2 C 0.9979(6) 0.0778(2) 0.5830(3)
C16_2 C 0.8917(11) 0.09220(19) 0.5604(3)
C19_2 C 0.6849(6) 0.0530(3) 0.5359(2)
H13_2 H 0.6822 0.0713 0.5132
H14_2 H 0.6774 0.0251 0.5264
C28_2 C 0.5704(7) 0.0631(6) 0.5650(4)
H36_2 H 0.5799 0.0905 0.5747
H37_2 H 0.4889 0.0605 0.5512
H38_2 H 0.5722 0.0443 0.5869
C29_2 C 0.9242(8) 0.1480(2) 0.50833(18)
C30_2 C 0.8129(10) 0.1635(3) 0.56164(19)
C31_2 C 0.9959(7) 0.1263(3) 0.4738(2)
C32_2 C 0.7185(9) 0.1641(4) 0.5986(2)
H41_2 H 0.6854 0.1369 0.6039
H42_2 H 0.6452 0.1821 0.5936
C34_2 C 0.8972(11) 0.1108(4) 0.4419(3)
H45_2 H 0.8504 0.1337 0.4311
H46_2 H 0.9436 0.0972 0.4210
H47_2 H 0.8370 0.0921 0.4539
N10_2 N 0.8228(11) 0.19792(18) 0.5372(3)
C35_2 C 0.7982(16) 0.1799(6) 0.6350(2)
H48_2 H 0.8120 0.2089 0.6325
H49_2 H 0.7507 0.1745 0.6590
H50_2 H 0.8808 0.1662 0.6360
Cu6_2 Cu 0.7500 0.2500 0.54086(7)
Cu9_2 Cu 0.70625(13) 0.52387(3) 0.59133(4)
C43_2 C 0.9463(8) 0.67083(18) 0.5905(2)
C44_2 C 0.8620(7) 0.63724(18) 0.6001(2)
N13_2 N 0.7010(6) 0.60003(16) 0.62762(19)
N14_2 N 0.7664(7) 0.57500(17) 0.6006(2)
N16_2 N 0.6426(7) 0.47317(18) 0.5806(2)
C45_2 C 0.7588(7) 0.63667(15) 0.6258(2)
C46_2 C 0.9401(7) 0.6965(2) 0.55979(18)
C47_2 C 0.8627(6) 0.59820(19) 0.5854(2)
N18_2 N 0.5226(8) 0.46154(19) 0.5950(2)
C49_2 C 0.6037(8) 0.6968(3) 0.6311(4)
H61_2 H 0.5476 0.6789 0.6163
H62_2 H 0.5533 0.7117 0.6503
H63_2 H 0.6451 0.7157 0.6133
C51_2 C 0.7089(8) 0.6712(2) 0.6527(2)
H66_2 H 0.6722 0.6596 0.6767
H67_2 H 0.7809 0.6887 0.6602
C52_2 C 0.6846(5) 0.4413(2) 0.5589(3)
C53_2 C 0.6228(10) 0.3672(2) 0.5441(3)
C54_2 C 0.5021(6) 0.4222(2) 0.5830(3)
C55_2 C 0.6083(11) 0.40780(19) 0.5604(3)
C56_2 C 0.9589(7) 0.5773(2) 0.5566(2)
H68_2 H 0.9118 0.5594 0.5386
C57_2 C 0.3470(13) 0.3801(4) 0.6251(3)
H70_2 H 0.3046 0.3957 0.6455
H71_2 H 0.2972 0.3559 0.6197
H72_2 H 0.4327 0.3725 0.6338
C58_2 C 0.8151(6) 0.4470(3) 0.5359(2)
H73_2 H 0.8178 0.4287 0.5132
H74_2 H 0.8226 0.4749 0.5264
C59_2 C 0.8368(8) 0.6975(3) 0.5262(2)
H75_2 H 0.7998 0.7247 0.5242
H76_2 H 0.7670 0.6785 0.5323
C60_2 C 0.9009(13) 0.6856(5) 0.4863(2)
H77_2 H 0.8574 0.6621 0.4755
H78_2 H 0.8939 0.7080 0.4680
H79_2 H 0.9911 0.6793 0.4906
C63_2 C 0.9296(7) 0.4369(6) 0.5650(4)
H86_2 H 0.9201 0.4095 0.5747
H88_2 H 0.9278 0.4557 0.5869
C64_2 C 0.5758(8) 0.3520(2) 0.50833(18)
C65_2 C 0.6871(10) 0.3365(3) 0.56164(19)
C66_2 C 0.5041(7) 0.3737(3) 0.4738(2)
H89_2 H 0.4430 0.3549 0.4616
H90_2 H 0.4550 0.3968 0.4842
C67_2 C 0.7815(9) 0.3359(4) 0.5986(2)
H91_2 H 0.8146 0.3631 0.6039
H92_2 H 0.8548 0.3179 0.5936
C68_2 C 0.3577(8) 0.4063(4) 0.5867(3)
H93_2 H 0.3352 0.3899 0.5637
H94_2 H 0.2979 0.4293 0.5881
C69_2 C 0.6028(11) 0.3892(4) 0.4419(3)
H95_2 H 0.6496 0.3663 0.4311
H96_2 H 0.5564 0.4028 0.4210
H97_2 H 0.6630 0.4079 0.4539
N20_2 N 0.6772(11) 0.30208(18) 0.5372(3)
C70_2 C 0.7018(16) 0.3201(6) 0.6350(2)
H98_2 H 0.6880 0.2911 0.6325
H99_2 H 0.7493 0.3255 0.6590
H100_2 H 0.6192 0.3338 0.6360
C23_3 C 0.4009(13) 0.3144(5) 0.9863(2)
H21_3 H 0.3574 0.3379 0.9755
H22_3 H 0.3939 0.2920 0.9680
H23_3 H 0.4911 0.3207 0.9906
C31_3 C 0.0041(7) 0.6263(3) 0.9738(2)
C34_3 C 0.1028(11) 0.6108(4) 0.9419(3)
H45_3 H 0.1496 0.6337 0.9311
H46_3 H 0.0564 0.5972 0.9210
H47_3 H 0.1630 0.5921 0.9539
C66_3 C 0.4959(7) 0.8737(3) 0.9738(2)
H89_3 H 0.5570 0.8549 0.9616
H90_3 H 0.5450 0.8968 0.9842
C69_3 C 0.3972(11) 0.8892(4) 0.9419(3)
H95_3 H 0.3504 0.8663 0.9311
H96_3 H 0.4436 0.9028 0.9210
H97_3 H 0.3370 0.9079 0.9539
Cu12 Cu 0.42473(14) 0.76963(3) 0.97178(5)
Cu13 Cu 0.07527(14) 0.73037(3) 0.97178(5)
N25_2 N 0.6146(8) 0.18786(17) 0.9962(2)
N24_2 N 0.8854(8) 0.31214(17) 0.9962(2)
Cu5_2 Cu 0.94318(16) 0.50611(4) 0.13168(5)
N4_2 N 0.8765(8) 0.4769(2) 0.1732(2)
C5_3 C 0.7888(9) 0.4600(2) 0.2332(3)
C7_3 C 0.7882(6) 0.4865(2) 0.2019(3)
N6_2 N 0.9398(7) 0.4427(2) 0.1865(2)
C8_3 C 0.8874(7) 0.4335(2) 0.2217(2)
C18_3 C 0.8470(13) 0.6199(4) 0.1251(3)
H10_3 H 0.8046 0.6043 0.1455
H11_3 H 0.7972 0.6441 0.1197
H12_3 H 0.9327 0.6275 0.1338
C20_3 C 0.6986(7) 0.5250(2) 0.1968(3)
H15_3 H 0.6706 0.5348 0.2226
H16_3 H 0.7462 0.5467 0.1836
C22_3 C 0.9424(7) 0.3967(2) 0.2449(3)
H19_3 H 0.8759 0.3862 0.2626
H20_3 H 0.9652 0.3751 0.2264
C26_3 C 0.5784(8) 0.5123(5) 0.1715(4)
H30_3 H 0.5110 0.5325 0.1744
H31_3 H 0.5467 0.4863 0.1804
H32_3 H 0.6032 0.5105 0.1441
C33_3 C 0.8577(8) 0.5937(4) 0.0867(3)
H43_3 H 0.8352 0.6101 0.0637
H44_3 H 0.7979 0.5707 0.0881
N11_3 N 0.6235(8) 0.4769(2) 0.3268(2)
C36_3 C 0.7112(9) 0.4600(2) 0.2668(3)
C37_3 C 0.7118(6) 0.4865(2) 0.2981(3)
N12_3 N 0.5602(7) 0.4427(2) 0.3135(2)
C38_3 C 0.6126(7) 0.4335(2) 0.2783(2)
C39_3 C 0.8014(7) 0.5250(2) 0.3032(3)
H51_3 H 0.8294 0.5348 0.2774
H52_3 H 0.7538 0.5467 0.3164
C40_3 C 0.5576(7) 0.3967(2) 0.2551(3)
H53_3 H 0.6241 0.3862 0.2374
H54_3 H 0.5348 0.3751 0.2736
C41_3 C 0.9216(8) 0.5123(5) 0.3285(4)
H55_3 H 0.9890 0.5325 0.3256
H56_3 H 0.9533 0.4863 0.3196
H57_3 H 0.8968 0.5105 0.3559
C42_3 C 0.4363(8) 0.4086(4) 0.2308(3)
H58_3 H 0.3596 0.4046 0.2467
H59_3 H 0.4314 0.3918 0.2075
H60_3 H 0.4424 0.4369 0.2232
H87_3 H 0.9889 0.9395 0.0512
Cu11_3 Cu 0.42903(12) 0.42167(3) 0.34325(4)
Cu15_3 Cu 0.55682(16) 0.50611(4) 0.36832(5)
N5_3 N 0.1426(7) 0.97317(18) 0.4194(2)
N8_3 N 0.0226(8) 0.96154(19) 0.4050(2)
C13_3 C 0.1846(5) 0.9413(2) 0.4411(3)
C14_3 C 0.1228(10) 0.8672(2) 0.4559(3)
C15_3 C 0.0021(6) 0.9222(2) 0.4170(3)
C16_3 C 0.1083(11) 0.90780(19) 0.4396(3)
C19_3 C 0.3151(6) 0.9470(3) 0.4641(2)
H13_3 H 0.3178 0.9287 0.4868
H14_3 H 0.3226 0.9749 0.4736
C28_3 C 0.4296(7) 0.9369(6) 0.4350(4)
H36_3 H 0.4201 0.9095 0.4253
H37_3 H 0.5111 0.9395 0.4488
H38_3 H 0.4278 0.9557 0.4131
N9_2 N 0.1146(8) 0.81214(17) 0.4962(2)
C29_3 C 0.0758(8) 0.8520(2) 0.49167(18)
C30_3 C 0.1871(10) 0.8365(3) 0.43836(19)
C31_4 C 0.0041(7) 0.8737(3) 0.5262(2)
C32_3 C 0.2815(9) 0.8359(4) 0.4014(2)
H41_3 H 0.3146 0.8631 0.3961
H42_3 H 0.3548 0.8179 0.4064
C34_4 C 0.1028(11) 0.8892(4) 0.5581(3)
H45_4 H 0.1496 0.8663 0.5689
H46_4 H 0.0564 0.9028 0.5790
H47_4 H 0.1630 0.9079 0.5461
N10_3 N 0.1772(11) 0.80208(18) 0.4628(3)
C35_3 C 0.2018(16) 0.8201(6) 0.3650(2)
H48_3 H 0.1880 0.7911 0.3675
H49_3 H 0.2493 0.8255 0.3410
H50_3 H 0.1192 0.8338 0.3640
Cu6_3 Cu 0.2500 0.7500 0.45914(7)
Cu9_3 Cu 0.29375(13) 0.47613(3) 0.40867(4)
C43_3 C 0.0537(8) 0.32917(18) 0.4095(2)
C44_3 C 0.1380(7) 0.36276(18) 0.3999(2)
N13_3 N 0.2990(6) 0.39997(16) 0.37238(19)
N14_3 N 0.2336(7) 0.42500(17) 0.3994(2)
N16_3 N 0.3574(7) 0.52683(18) 0.4194(2)
C45_3 C 0.2412(7) 0.36333(15) 0.3742(2)
C46_3 C 0.0599(7) 0.3035(2) 0.44021(18)
C47_3 C 0.1373(6) 0.40180(19) 0.4146(2)
N18_3 N 0.4774(8) 0.53846(19) 0.4050(2)
C49_3 C 0.3963(8) 0.3032(3) 0.3689(4)
H61_3 H 0.4524 0.3211 0.3837
H62_3 H 0.4467 0.2883 0.3497
H63_3 H 0.3549 0.2843 0.3867
C51_3 C 0.2911(8) 0.3288(2) 0.3473(2)
H66_3 H 0.3278 0.3404 0.3233
H67_3 H 0.2191 0.3113 0.3398
C52_3 C 0.3154(5) 0.5587(2) 0.4411(3)
C53_3 C 0.3772(10) 0.6328(2) 0.4559(3)
C54_3 C 0.4979(6) 0.5778(2) 0.4170(3)
C55_3 C 0.3917(11) 0.59220(19) 0.4396(3)
C56_3 C 0.0411(7) 0.4227(2) 0.4434(2)
H68_3 H 0.0882 0.4406 0.4614
C57_3 C 0.6530(13) 0.6199(4) 0.3749(3)
H70_3 H 0.6954 0.6043 0.3545
H71_3 H 0.7028 0.6441 0.3803
H72_3 H 0.5673 0.6275 0.3662
C58_3 C 0.1849(6) 0.5530(3) 0.4641(2)
H73_3 H 0.1822 0.5713 0.4868
H74_3 H 0.1774 0.5251 0.4736
C59_3 C 0.1632(8) 0.3025(3) 0.4738(2)
H75_3 H 0.2002 0.2753 0.4758
H76_3 H 0.2330 0.3215 0.4677
C60_3 C 0.0991(13) 0.3144(5) 0.5137(2)
H77_3 H 0.1426 0.3379 0.5245
H78_3 H 0.1061 0.2920 0.5320
H79_3 H 0.0089 0.3207 0.5094
C63_3 C 0.0704(7) 0.5631(6) 0.4350(4)
H86_3 H 0.0799 0.5905 0.4253
H88_3 H 0.0722 0.5443 0.4131
N19_2 N 0.3854(8) 0.68786(17) 0.4962(2)
C64_3 C 0.4242(8) 0.6480(2) 0.49167(18)
C65_3 C 0.3129(10) 0.6635(3) 0.43836(19)
C66_4 C 0.4959(7) 0.6263(3) 0.5262(2)
H89_4 H 0.5570 0.6451 0.5384
H90_4 H 0.5450 0.6032 0.5158
C67_3 C 0.2185(9) 0.6641(4) 0.4014(2)
H91_3 H 0.1854 0.6369 0.3961
H92_3 H 0.1452 0.6821 0.4064
C68_3 C 0.6423(8) 0.5937(4) 0.4133(3)
H93_3 H 0.6648 0.6101 0.4363
H94_3 H 0.7021 0.5707 0.4119
C69_4 C 0.3972(11) 0.6108(4) 0.5581(3)
H95_4 H 0.3504 0.6337 0.5689
H96_4 H 0.4436 0.5972 0.5790
H97_4 H 0.3370 0.5921 0.5461
N20_3 N 0.3228(11) 0.69792(18) 0.4628(3)
C70_3 C 0.2982(16) 0.6799(6) 0.3650(2)
H98_3 H 0.3120 0.7089 0.3675
H99_3 H 0.2507 0.6745 0.3410
H100_3 H 0.3808 0.6662 0.3640
Cu12_2 Cu 0.42473(14) 0.73037(3) 0.52822(5)
Cu13_2 Cu 0.07527(14) 0.76963(3) 0.52822(5)
N15 N 0.1033(7) 0.78051(16) 0.9074(2)
N17_3 N 0.0334(7) 0.77423(18) 0.9408(3)
C48_3 C 0.0504(7) 0.8146(2) 0.8889(2)
C50_3 C 0.1128(7) 0.8290(3) 0.8495(2)
H64_3 H 0.1342 0.8054 0.8334
H65_3 H 0.0508 0.8456 0.8350
H69_3 H 0.0040 0.9022 0.9591
C61_3 C 0.0596(8) 0.9482(4) 0.9189(4)
H80_3 H 0.0147 0.9637 0.8989
H81_3 H 0.1054 0.9666 0.9363
H82_3 H 0.1207 0.9301 0.9064
C62_3 C 0.2383(8) 0.8544(4) 0.8574(4)
H83_3 H 0.2865 0.8422 0.8788
H84_3 H 0.2912 0.8547 0.8339
H85_3 H 0.2149 0.8819 0.8643
Cu14 Cu 0.2500 0.7500 0.90257(6)
Cu1_2 Cu 0.92903(12) 0.57833(3) 0.84325(4)
Cu4_3 Cu 0.79375(13) 0.52387(3) 0.90867(4)
C1_3 C 0.5537(8) 0.67083(18) 0.9095(2)
C2_3 C 0.6380(7) 0.63724(18) 0.8999(2)
N1_3 N 0.7990(6) 0.60003(16) 0.87238(19)
N2_3 N 0.7336(7) 0.57500(17) 0.8994(2)
N3_3 N 0.3967(7) 0.71949(16) 0.9074(2)
N5_4 N 0.8574(7) 0.47317(18) 0.9194(2)
C3_3 C 0.7412(7) 0.63667(15) 0.8742(2)
C4_3 C 0.5599(7) 0.6965(2) 0.94021(18)
C6_3 C 0.6373(6) 0.59820(19) 0.9146(2)
N7_3 N 0.4666(7) 0.72577(18) 0.9408(3)
N8_4 N 0.9774(8) 0.46154(19) 0.9050(2)
C9_3 C 0.4496(7) 0.6854(2) 0.8889(2)
C10_3 C 0.8963(8) 0.6968(3) 0.8689(4)
H1_3 H 0.9524 0.6789 0.8837
H2_3 H 0.9467 0.7117 0.8497
H3_3 H 0.8549 0.7157 0.8867
C11_3 C 0.3872(7) 0.6710(3) 0.8495(2)
H4_3 H 0.3658 0.6946 0.8334
H5_3 H 0.4492 0.6544 0.8350
C12_3 C 0.7911(8) 0.6712(2) 0.8473(2)
H6_3 H 0.8278 0.6596 0.8233
H7_3 H 0.7191 0.6887 0.8398
C13_4 C 0.8154(5) 0.4413(2) 0.9411(3)
C14_4 C 0.8772(10) 0.3672(2) 0.9559(3)
C15_4 C 0.9979(6) 0.4222(2) 0.9170(3)
C16_4 C 0.8917(11) 0.40780(19) 0.9396(3)
C17_3 C 0.5411(7) 0.5773(2) 0.9434(2)
H8_3 H 0.5882 0.5594 0.9614
H9_3 H 0.4960 0.5978 0.9591
C19_4 C 0.6849(6) 0.4470(3) 0.9641(2)
H13_4 H 0.6822 0.4287 0.9868
H14_4 H 0.6774 0.4749 0.9736
C21_3 C 0.6632(8) 0.6975(3) 0.9738(2)
H17_3 H 0.7002 0.7247 0.9758
H18_3 H 0.7330 0.6785 0.9677
C24_3 C 0.4404(8) 0.5518(4) 0.9189(4)
H24_3 H 0.4853 0.5363 0.8989
H25_3 H 0.3946 0.5334 0.9363
H26_3 H 0.3793 0.5699 0.9064
C25_3 C 0.2617(8) 0.6456(4) 0.8574(4)
H27_3 H 0.2135 0.6578 0.8788
H28_3 H 0.2088 0.6453 0.8339
H29_3 H 0.2851 0.6181 0.8643
C27_3 C 0.9363(8) 0.5914(4) 0.7308(3)
H33_3 H 0.8596 0.5954 0.7467
H34_3 H 0.9314 0.6082 0.7075
H35_3 H 0.9424 0.5631 0.7232
C28_4 C 0.5704(7) 0.4369(6) 0.9350(4)
H36_4 H 0.5799 0.4095 0.9253
H37_4 H 0.4889 0.4395 0.9488
H38_4 H 0.5722 0.4557 0.9131
C29_4 C 0.9242(8) 0.3520(2) 0.99167(18)
C30_4 C 0.8129(10) 0.3365(3) 0.93836(19)
C32_4 C 0.7185(9) 0.3359(4) 0.9014(2)
H41_4 H 0.6854 0.3631 0.8961
H42_4 H 0.6452 0.3179 0.9064
N10_4 N 0.8228(11) 0.30208(18) 0.9628(3)
C35_4 C 0.7982(16) 0.3201(6) 0.8650(2)
H48_4 H 0.8120 0.2911 0.8675
H49_4 H 0.7507 0.3255 0.8410
H50_4 H 0.8808 0.3338 0.8640
Cu6_4 Cu 0.7500 0.2500 0.95914(7)
Cu10_2 Cu 0.44318(16) 0.00611(4) 0.86832(5)
N16_4 N 0.6426(7) 0.02683(18) 0.9194(2)
N18_4 N 0.5226(8) 0.03846(19) 0.9050(2)
C52_4 C 0.6846(5) 0.0587(2) 0.9411(3)
C53_4 C 0.6228(10) 0.1328(2) 0.9559(3)
C54_4 C 0.5021(6) 0.0778(2) 0.9170(3)
C55_4 C 0.6083(11) 0.09220(19) 0.9396(3)
C57_4 C 0.3470(13) 0.1199(4) 0.8749(3)
H70_4 H 0.3046 0.1043 0.8545
H71_4 H 0.2972 0.1441 0.8803
H72_4 H 0.4327 0.1275 0.8662
C58_4 C 0.8151(6) 0.0530(3) 0.9641(2)
H73_4 H 0.8178 0.0713 0.9868
H74_4 H 0.8226 0.0251 0.9736
C63_4 C 0.9296(7) 0.0631(6) 0.9350(4)
H86_4 H 0.9201 0.0905 0.9253
H88_4 H 0.9278 0.0443 0.9131
C64_4 C 0.5758(8) 0.1480(2) 0.99167(18)
C65_4 C 0.6871(10) 0.1635(3) 0.93836(19)
C67_4 C 0.7815(9) 0.1641(4) 0.9014(2)
H91_4 H 0.8146 0.1369 0.8961
H92_4 H 0.8548 0.1821 0.9064
C68_4 C 0.3577(8) 0.0937(4) 0.9133(3)
H93_4 H 0.3352 0.1101 0.9363
H94_4 H 0.2979 0.0707 0.9119
N20_4 N 0.6772(11) 0.19792(18) 0.9628(3)
C70_4 C 0.7018(16) 0.1799(6) 0.8650(2)
H98_4 H 0.6880 0.2089 0.8675
H99_4 H 0.7493 0.1745 0.8410
H100_4 H 0.6192 0.1662 0.8640
C20_4 C 0.1986(7) 0.0250(2) 0.8032(3)
H15_4 H 0.1706 0.0348 0.7774
H16_4 H 0.2462 0.0467 0.8164
C26_4 C 0.0784(8) 0.0123(5) 0.8285(4)
H30_4 H 0.0110 0.0325 0.8256
H32_4 H 0.1032 0.0105 0.8559
C39_4 C 0.3014(7) 0.0250(2) 0.6968(3)
H51_4 H 0.3294 0.0348 0.7226
H52_4 H 0.2538 0.0467 0.6836
C41_4 C 0.4216(8) 0.0123(5) 0.6715(4)
H55_4 H 0.4890 0.0325 0.6744
H57_4 H 0.3968 0.0105 0.6441
Cu15_4 Cu 0.05682(16) 0.00611(4) 0.63168(5)
C42_4 C 0.9363(8) 0.9086(4) 0.7692(3)
H58_4 H 0.8596 0.9046 0.7533
H59_4 H 0.9314 0.8918 0.7925
H60_4 H 0.9424 0.9369 0.7768
Cu11_4 Cu 0.92903(12) 0.92167(3) 0.65675(4)
C18_4 C 0.1530(13) 0.1199(4) 0.6251(3)
H10_4 H 0.1954 0.1043 0.6455
H11_4 H 0.2028 0.1441 0.6197
H12_4 H 0.0673 0.1275 0.6338
H39_2 H 0.0570 0.1451 0.4616
H40_2 H 0.0450 0.1032 0.4842
C33_4 C 0.1423(8) 0.0937(4) 0.5867(3)
H43_4 H 0.1648 0.1101 0.5637
H44_4 H 0.2021 0.0707 0.5881
N15_2 N 0.1033(7) 0.71949(16) 0.5926(2)
N17_4 N 0.0334(7) 0.72577(18) 0.5592(3)
C48_4 C 0.0504(7) 0.6854(2) 0.6111(2)
C50_4 C 0.1128(7) 0.6710(3) 0.6505(2)
H64_4 H 0.1342 0.6946 0.6666
H65_4 H 0.0508 0.6544 0.6650
H69_4 H 0.0040 0.5978 0.5409
C61_4 C 0.0596(8) 0.5518(4) 0.5811(4)
H80_4 H 0.0147 0.5363 0.6011
H81_4 H 0.1054 0.5334 0.5637
H82_4 H 0.1207 0.5699 0.5936
C62_4 C 0.2383(8) 0.6456(4) 0.6426(4)
H83_4 H 0.2865 0.6578 0.6212
H84_4 H 0.2912 0.6453 0.6661
H85_4 H 0.2149 0.6181 0.6357
H87_4 H 0.0111 0.4395 0.5512
Cu14_2 Cu 0.2500 0.7500 0.59743(6)
Cu4_4 Cu 0.79375(13) 0.97613(3) 0.59133(4)
C1_4 C 0.5537(8) 0.82917(18) 0.5905(2)
C2_4 C 0.6380(7) 0.86276(18) 0.6001(2)
N1_4 N 0.7990(6) 0.89997(16) 0.62762(19)
N2_4 N 0.7336(7) 0.92500(17) 0.6006(2)
N3_4 N 0.3967(7) 0.78051(16) 0.5926(2)
C3_4 C 0.7412(7) 0.86333(15) 0.6258(2)
C4_4 C 0.5599(7) 0.8035(2) 0.55979(18)
C6_4 C 0.6373(6) 0.90180(19) 0.5854(2)
N7_4 N 0.4666(7) 0.77423(18) 0.5592(3)
C9_4 C 0.4496(7) 0.8146(2) 0.6111(2)
C10_4 C 0.8963(8) 0.8032(3) 0.6311(4)
H1_4 H 0.9524 0.8211 0.6163
H2_4 H 0.9467 0.7883 0.6503
H3_4 H 0.8549 0.7843 0.6133
C11_4 C 0.3872(7) 0.8290(3) 0.6505(2)
H4_4 H 0.3658 0.8054 0.6666
H5_4 H 0.4492 0.8456 0.6650
C12_4 C 0.7911(8) 0.8288(2) 0.6527(2)
H6_4 H 0.8278 0.8404 0.6767
H7_4 H 0.7191 0.8113 0.6602
C17_4 C 0.5411(7) 0.9227(2) 0.5566(2)
H8_4 H 0.5882 0.9406 0.5386
H9_4 H 0.4960 0.9022 0.5409
C21_4 C 0.6632(8) 0.8025(3) 0.5262(2)
H17_4 H 0.7002 0.7753 0.5242
H18_4 H 0.7330 0.8215 0.5323
C23_4 C 0.5991(13) 0.8144(5) 0.4863(2)
H21_4 H 0.6426 0.8379 0.4755
H22_4 H 0.6061 0.7920 0.4680
H23_4 H 0.5089 0.8207 0.4906
C24_4 C 0.4404(8) 0.9482(4) 0.5811(4)
H24_4 H 0.4853 0.9637 0.6011
H25_4 H 0.3946 0.9666 0.5637
H26_4 H 0.3793 0.9301 0.5936
C25_4 C 0.2617(8) 0.8544(4) 0.6426(4)
H27_4 H 0.2135 0.8422 0.6212
H28_4 H 0.2088 0.8547 0.6661
H29_4 H 0.2851 0.8819 0.6357
H39_3 H 0.9430 0.6451 0.9616
H40_3 H 0.9550 0.6032 0.9842
H39_4 H 0.0570 0.3549 0.0384
H40_4 H 0.0450 0.3968 0.0158
C60_4 C 0.9009(13) 0.8144(5) 0.0137(2)
H77_4 H 0.8574 0.8379 0.0245
H78_4 H 0.8939 0.7920 0.0320
H79_4 H 0.9911 0.8207 0.0094
Cu7_2 Cu 0.57097(12) 0.92167(3) 0.84325(4)
Cu9_4 Cu 0.70625(13) 0.97613(3) 0.90867(4)
C43_4 C 0.9463(8) 0.82917(18) 0.9095(2)
C44_4 C 0.8620(7) 0.86276(18) 0.8999(2)
N13_4 N 0.7010(6) 0.89997(16) 0.87238(19)
N14_4 N 0.7664(7) 0.92500(17) 0.8994(2)
C45_4 C 0.7588(7) 0.86333(15) 0.8742(2)
C46_4 C 0.9401(7) 0.8035(2) 0.94021(18)
C47_4 C 0.8627(6) 0.90180(19) 0.9146(2)
C49_4 C 0.6037(8) 0.8032(3) 0.8689(4)
H61_4 H 0.5476 0.8211 0.8837
H62_4 H 0.5533 0.7883 0.8497
H63_4 H 0.6451 0.7843 0.8867
C51_4 C 0.7089(8) 0.8288(2) 0.8473(2)
H66_4 H 0.6722 0.8404 0.8233
H67_4 H 0.7809 0.8113 0.8398
C56_4 C 0.9589(7) 0.9227(2) 0.9434(2)
H68_4 H 0.9118 0.9406 0.9614
C59_4 C 0.8368(8) 0.8025(3) 0.9738(2)
H75_4 H 0.7998 0.7753 0.9758
H76_4 H 0.7670 0.8215 0.9677
N22_2 N 0.3765(8) 0.9769(2) 0.8268(2)
N23_2 N 0.4398(7) 0.9427(2) 0.8135(2)
C5_4 C 0.2888(9) 0.9600(2) 0.7668(3)
C7_4 C 0.2882(6) 0.9865(2) 0.7981(3)
C8_4 C 0.3874(7) 0.9335(2) 0.7783(2)
C22_4 C 0.4424(7) 0.8967(2) 0.7551(3)
H19_4 H 0.3759 0.8862 0.7374
H20_4 H 0.4652 0.8751 0.7736
H31_4 H 0.0467 0.9863 0.8196
C27_4 C 0.5637(8) 0.9086(4) 0.7308(3)
H33_4 H 0.6404 0.9046 0.7467
H34_4 H 0.5686 0.8918 0.7075
H35_4 H 0.5576 0.9369 0.7232
N11_4 N 0.1235(8) 0.9769(2) 0.6732(2)
C36_4 C 0.2112(9) 0.9600(2) 0.7332(3)
C37_4 C 0.2118(6) 0.9865(2) 0.7019(3)
N12_4 N 0.0602(7) 0.9427(2) 0.6865(2)
C38_4 C 0.1126(7) 0.9335(2) 0.7217(2)
C40_4 C 0.0576(7) 0.8967(2) 0.7449(3)
H53_4 H 0.1241 0.8862 0.7626
H54_4 H 0.0348 0.8751 0.7264
H56_4 H 0.4533 0.9863 0.6804
loop_
_geom_bond_atom_site_label_1
_geom_bond_atom_site_label_2
_geom_bond_site_symmetry_1
_geom_bond_site_symmetry_2
Cu7 N13 1_555 1_555
Cu9 N14 1_555 1_555
C43 C44 1_555 1_555
C44 C45 1_555 1_555
N13 N14 1_555 1_555
N14 C47 1_555 1_555
C45 N13 1_555 1_555
C46 C43 1_555 1_555
C47 C44 1_555 1_555
C49 H61 1_555 1_555
H62 C49 1_555 1_555
H63 C49 1_555 1_555
C51 C45 1_555 1_555
H66 C51 1_555 1_555
H67 C51 1_555 1_555
C56 C47 1_555 1_555
H68 C56 1_555 1_555
C59 C46 1_555 1_555
H75 C59 1_555 1_555
H76 C59 1_555 1_555
N23 Cu7 1_555 1_555
C49 C51 1_555 1_555
N22 N23 1_555 1_555
N22 C7 1_555 1_555
C5 C7 1_555 1_555
C8 C5 1_555 1_555
C22 C8 1_555 1_555
H19 C22 1_555 1_555
H20 C22 1_555 1_555
C27 C22 1_555 1_555
H33 C27 1_555 1_555
H34 C27 1_555 1_555
H35 C27 1_555 1_555
N11 C37 1_555 1_555
C36 C5 1_555 1_555
C37 C36 1_555 1_555
N12 N11 1_555 1_555
C38 C36 1_555 1_555
C40 C38 1_555 1_555
H53 C40 1_555 1_555
H54 C40 1_555 1_555
N23 C8 1_555 1_555
N12 C38 1_555 1_555
H77 C60 1_555 1_555
H78 C60 1_555 1_555
H79 C60 1_555 1_555
Cu1 N1 1_555 1_555
Cu2 N7 1_555 1_555
Cu3 N3 1_555 1_555
Cu4 N2 1_555 1_555
C1 C2 1_555 1_555
C2 C3 1_555 1_555
N1 N2 1_555 1_555
N2 C6 1_555 1_555
N3 N7 1_555 1_555
N5 Cu4 1_555 1_555
C3 N1 1_555 1_555
C4 C1 1_555 1_555
C6 C2 1_555 1_555
N7 C4 1_555 1_555
C9 C1 1_555 1_555
C10 H1 1_555 1_555
H2 C10 1_555 1_555
H3 C10 1_555 1_555
C11 C9 1_555 1_555
H4 C11 1_555 1_555
H5 C11 1_555 1_555
C12 C3 1_555 1_555
H6 C12 1_555 1_555
H7 C12 1_555 1_555
C13 N5 1_555 1_555
C14 C16 1_555 1_555
C15 N8 1_555 1_555
C16 C13 1_555 1_555
C17 C6 1_555 1_555
H8 C17 1_555 1_555
H9 C17 1_555 1_555
C19 C13 1_555 1_555
H13 C19 1_555 1_555
H14 C19 1_555 1_555
C21 C4 1_555 1_555
H17 C21 1_555 1_555
H18 C21 1_555 1_555
C24 C17 1_555 1_555
H24 C24 1_555 1_555
H25 C24 1_555 1_555
H26 C24 1_555 1_555
C25 C11 1_555 1_555
H27 C25 1_555 1_555
H28 C25 1_555 1_555
H29 C25 1_555 1_555
H33_2 C27_2 1_555 1_555
H34_2 C27_2 1_555 1_555
H35_2 C27_2 1_555 1_555
C28 C19 1_555 1_555
H36 C28 1_555 1_555
H37 C28 1_555 1_555
H38 C28 1_555 1_555
N9 C29 1_555 1_555
C29 C14 1_555 1_555
C30 C14 1_555 1_555
C32 C30 1_555 1_555
H41 C32 1_555 1_555
H42 C32 1_555 1_555
N10 N9 1_555 1_555
C35 C32 1_555 1_555
H48 C35 1_555 1_555
H49 C35 1_555 1_555
H50 C35 1_555 1_555
Cu6 N10 1_555 1_555
Cu10 N18 1_555 1_555
N18 N16 1_555 1_555
C52 N16 1_555 1_555
C53 C55 1_555 1_555
C54 N18 1_555 1_555
C55 C52 1_555 1_555
C57 H70 1_555 1_555
H71 C57 1_555 1_555
H72 C57 1_555 1_555
C58 C52 1_555 1_555
H73 C58 1_555 1_555
H74 C58 1_555 1_555
C63 C58 1_555 1_555
H86 C63 1_555 1_555
H88 C63 1_555 1_555
N19 C64 1_555 1_555
C64 C53 1_555 1_555
C65 C53 1_555 1_555
C67 C65 1_555 1_555
H91 C67 1_555 1_555
H92 C67 1_555 1_555
C68 C54 1_555 1_555
H93 C68 1_555 1_555
H94 C68 1_555 1_555
N20 Cu6 1_555 1_555
C70 C67 1_555 1_555
H98 C70 1_555 1_555
H99 C70 1_555 1_555
H100 C70 1_555 1_555
N21 Cu3 1_555 1_555
N3 C9 1_555 1_555
N5 N8 1_555 1_555
C10 C12 1_555 1_555
C15 C16 1_555 1_555
C30 N10 1_555 1_555
C54 C55 1_555 1_555
C57 C68 1_555 1_555
N19 N20 1_555 1_555
C65 N20 1_555 1_555
Cu8 N17 1_555 1_555
N21 N17 1_555 1_555
C50 C48 1_555 1_555
H64 C50 1_555 1_555
H65 C50 1_555 1_555
H80 C61 1_555 1_555
H81 C61 1_555 1_555
H82 C61 1_555 1_555
C62 C50 1_555 1_555
H83 C62 1_555 1_555
H84 C62 1_555 1_555
H85 C62 1_555 1_555
N21 C48 1_555 1_555
H58 C42 1_555 1_555
H59 C42 1_555 1_555
H60 C42 1_555 1_555
C20 H15 1_555 1_555
H16 C20 1_555 1_555
C26 C20 1_555 1_555
H30 C26 1_555 1_555
H32 C26 1_555 1_555
H51 C39 1_555 1_555
H52 C39 1_555 1_555
C41 C39 1_555 1_555
H55 C41 1_555 1_555
H57 C41 1_555 1_555
Cu11 N1_2 1_555 1_555
Cu2_2 N7_2 1_555 1_555
Cu3_2 N3_2 1_555 1_555
Cu4_2 N2_2 1_555 1_555
C1_2 C2_2 1_555 1_555
C2_2 C3_2 1_555 1_555
N1_2 N2_2 1_555 1_555
N2_2 C6_2 1_555 1_555
N3_2 N7_2 1_555 1_555
C3_2 N1_2 1_555 1_555
C4_2 C1_2 1_555 1_555
C6_2 C2_2 1_555 1_555
N7_2 C4_2 1_555 1_555
C9_2 C1_2 1_555 1_555
C10_2 H1_2 1_555 1_555
H2_2 C10_2 1_555 1_555
H3_2 C10_2 1_555 1_555
C11_2 C9_2 1_555 1_555
H4_2 C11_2 1_555 1_555
H5_2 C11_2 1_555 1_555
C12_2 C3_2 1_555 1_555
H6_2 C12_2 1_555 1_555
H7_2 C12_2 1_555 1_555
C17_2 C6_2 1_555 1_555
H8_2 C17_2 1_555 1_555
H9_2 C17_2 1_555 1_555
C21_2 C4_2 1_555 1_555
H17_2 C21_2 1_555 1_555
H18_2 C21_2 1_555 1_555
C23 C21_2 1_555 1_555
H21 C23 1_555 1_555
H22 C23 1_555 1_555
H23 C23 1_555 1_555
C24_2 C17_2 1_555 1_555
H24_2 C24_2 1_555 1_555
H25_2 C24_2 1_555 1_555
H26_2 C24_2 1_555 1_555
C25_2 C11_2 1_555 1_555
H27_2 C25_2 1_555 1_555
H28_2 C25_2 1_555 1_555
H29_2 C25_2 1_555 1_555
N21_2 Cu3_2 1_555 1_555
N25 Cu2_2 1_555 1_555
N3_2 C9_2 1_555 1_555
C10_2 C12_2 1_555 1_555
C18 H10 1_555 1_555
H11 C18 1_555 1_555
H12 C18 1_555 1_555
H43 C33 1_555 1_555
H44 C33 1_555 1_555
Cu8_2 N17_2 1_555 1_555
N21_2 N17_2 1_555 1_555
C50_2 C48_2 1_555 1_555
H64_2 C50_2 1_555 1_555
H65_2 C50_2 1_555 1_555
H80_2 C61_2 1_555 1_555
H81_2 C61_2 1_555 1_555
H82_2 C61_2 1_555 1_555
C62_2 C50_2 1_555 1_555
H83_2 C62_2 1_555 1_555
H84_2 C62_2 1_555 1_555
H85_2 C62_2 1_555 1_555
N24 Cu8_2 1_555 1_555
C18 C33 1_555 1_555
N21_2 C48_2 1_555 1_555
Cu5 N4 1_555 1_555
N4 C7_2 1_555 1_555
C5_2 C7_2 1_555 1_555
C7_2 C20_2 1_555 1_555
C8_2 C5_2 1_555 1_555
C18_2 H10_2 1_555 1_555
H11_2 C18_2 1_555 1_555
H12_2 C18_2 1_555 1_555
C20_2 H15_2 1_555 1_555
H16_2 C20_2 1_555 1_555
C22_2 C8_2 1_555 1_555
H19_2 C22_2 1_555 1_555
H20_2 C22_2 1_555 1_555
C26_2 C20_2 1_555 1_555
H30_2 C26_2 1_555 1_555
H31_2 C26_2 1_555 1_555
H32_2 C26_2 1_555 1_555
H43_2 C33_2 1_555 1_555
H44_2 C33_2 1_555 1_555
N11_2 C37_2 1_555 1_555
C36_2 C5_2 1_555 1_555
C37_2 C36_2 1_555 1_555
N12_2 N11_2 1_555 1_555
C38_2 C36_2 1_555 1_555
C39_2 C37_2 1_555 1_555
H51_2 C39_2 1_555 1_555
H52_2 C39_2 1_555 1_555
C40_2 C38_2 1_555 1_555
H53_2 C40_2 1_555 1_555
H54_2 C40_2 1_555 1_555
C41_2 C39_2 1_555 1_555
H55_2 C41_2 1_555 1_555
H56_2 C41_2 1_555 1_555
H57_2 C41_2 1_555 1_555
C42_2 C40_2 1_555 1_555
H58_2 C42_2 1_555 1_555
H59_2 C42_2 1_555 1_555
H60_2 C42_2 1_555 1_555
Cu11_2 N12_2 1_555 1_555
Cu15_2 N11_2 1_555 1_555
N4 N6 1_555 1_555
N6 C8_2 1_555 1_555
C18_2 C33_2 1_555 1_555
N12_2 C38_2 1_555 1_555
H21_2 C23_2 1_555 1_555
H22_2 C23_2 1_555 1_555
H23_2 C23_2 1_555 1_555
C34 C31 1_555 1_555
H45 C34 1_555 1_555
H46 C34 1_555 1_555
H47 C34 1_555 1_555
H89 C66 1_555 1_555
H90 C66 1_555 1_555
C69 C66 1_555 1_555
H95 C69 1_555 1_555
H96 C69 1_555 1_555
H97 C69 1_555 1_555
C13_2 N5_2 1_555 1_555
C14_2 C16_2 1_555 1_555
C15_2 N8_2 1_555 1_555
C16_2 C13_2 1_555 1_555
C19_2 C13_2 1_555 1_555
H13_2 C19_2 1_555 1_555
H14_2 C19_2 1_555 1_555
C28_2 C19_2 1_555 1_555
H36_2 C28_2 1_555 1_555
H37_2 C28_2 1_555 1_555
H38_2 C28_2 1_555 1_555
N24 C29_2 1_555 1_555
C29_2 C14_2 1_555 1_555
C30_2 C14_2 1_555 1_555
C31_2 C29_2 1_555 1_555
C32_2 C30_2 1_555 1_555
H41_2 C32_2 1_555 1_555
H42_2 C32_2 1_555 1_555
C34_2 C31_2 1_555 1_555
H45_2 C34_2 1_555 1_555
H46_2 C34_2 1_555 1_555
H47_2 C34_2 1_555 1_555
N10_2 N24 1_555 1_555
C35_2 C32_2 1_555 1_555
H48_2 C35_2 1_555 1_555
H49_2 C35_2 1_555 1_555
H50_2 C35_2 1_555 1_555
Cu6_2 N10_2 1_555 1_555
Cu11_2 N13_2 1_555 1_555
Cu9_2 N14_2 1_555 1_555
Cu15_2 N18_2 1_555 1_555
C43_2 C44_2 1_555 1_555
C44_2 C45_2 1_555 1_555
N13_2 N14_2 1_555 1_555
N14_2 C47_2 1_555 1_555
N16_2 Cu9_2 1_555 1_555
C45_2 N13_2 1_555 1_555
C46_2 C43_2 1_555 1_555
C47_2 C44_2 1_555 1_555
N18_2 N16_2 1_555 1_555
C49_2 H61_2 1_555 1_555
H62_2 C49_2 1_555 1_555
H63_2 C49_2 1_555 1_555
C51_2 C45_2 1_555 1_555
H66_2 C51_2 1_555 1_555
H67_2 C51_2 1_555 1_555
C52_2 N16_2 1_555 1_555
C53_2 C55_2 1_555 1_555
C54_2 N18_2 1_555 1_555
C55_2 C52_2 1_555 1_555
C56_2 C47_2 1_555 1_555
H68_2 C56_2 1_555 1_555
C57_2 H70_2 1_555 1_555
H71_2 C57_2 1_555 1_555
H72_2 C57_2 1_555 1_555
C58_2 C52_2 1_555 1_555
H73_2 C58_2 1_555 1_555
H74_2 C58_2 1_555 1_555
C59_2 C46_2 1_555 1_555
H75_2 C59_2 1_555 1_555
H76_2 C59_2 1_555 1_555
C60_2 C59_2 1_555 1_555
H77_2 C60_2 1_555 1_555
H78_2 C60_2 1_555 1_555
H79_2 C60_2 1_555 1_555
C63_2 C58_2 1_555 1_555
H86_2 C63_2 1_555 1_555
H88_2 C63_2 1_555 1_555
N25 C64_2 1_555 1_555
C64_2 C53_2 1_555 1_555
C65_2 C53_2 1_555 1_555
C66_2 C64_2 1_555 1_555
H89_2 C66_2 1_555 1_555
H90_2 C66_2 1_555 1_555
C67_2 C65_2 1_555 1_555
H91_2 C67_2 1_555 1_555
H92_2 C67_2 1_555 1_555
C68_2 C54_2 1_555 1_555
H93_2 C68_2 1_555 1_555
H94_2 C68_2 1_555 1_555
C69_2 C66_2 1_555 1_555
H95_2 C69_2 1_555 1_555
H96_2 C69_2 1_555 1_555
H97_2 C69_2 1_555 1_555
N20_2 Cu6_2 1_555 1_555
C70_2 C67_2 1_555 1_555
H98_2 C70_2 1_555 1_555
H99_2 C70_2 1_555 1_555
H100_2 C70_2 1_555 1_555
N5_2 N8_2 1_555 1_555
C15_2 C16_2 1_555 1_555
C30_2 N10_2 1_555 1_555
C49_2 C51_2 1_555 1_555
C54_2 C55_2 1_555 1_555
C57_2 C68_2 1_555 1_555
N25 N20_2 1_555 1_555
C65_2 N20_2 1_555 1_555
H21_3 C23_3 1_555 1_555
H22_3 C23_3 1_555 1_555
H23_3 C23_3 1_555 1_555
C34_3 C31_3 1_555 1_555
H45_3 C34_3 1_555 1_555
H46_3 C34_3 1_555 1_555
H47_3 C34_3 1_555 1_555
H89_3 C66_3 1_555 1_555
H90_3 C66_3 1_555 1_555
C69_3 C66_3 1_555 1_555
H95_3 C69_3 1_555 1_555
H96_3 C69_3 1_555 1_555
H97_3 C69_3 1_555 1_555
Cu5_2 N4_2 1_555 1_555
N4_2 C7_3 1_555 1_555
C5_3 C7_3 1_555 1_555
C7_3 C20_3 1_555 1_555
C8_3 C5_3 1_555 1_555
C18_3 H10_3 1_555 1_555
H11_3 C18_3 1_555 1_555
H12_3 C18_3 1_555 1_555
C20_3 H15_3 1_555 1_555
H16_3 C20_3 1_555 1_555
C22_3 C8_3 1_555 1_555
H19_3 C22_3 1_555 1_555
H20_3 C22_3 1_555 1_555
C26_3 C20_3 1_555 1_555
H30_3 C26_3 1_555 1_555
H31_3 C26_3 1_555 1_555
H32_3 C26_3 1_555 1_555
H43_3 C33_3 1_555 1_555
H44_3 C33_3 1_555 1_555
N11_3 C37_3 1_555 1_555
C36_3 C5_3 1_555 1_555
C37_3 C36_3 1_555 1_555
N12_3 N11_3 1_555 1_555
C38_3 C36_3 1_555 1_555
C39_3 C37_3 1_555 1_555
H51_3 C39_3 1_555 1_555
H52_3 C39_3 1_555 1_555
C40_3 C38_3 1_555 1_555
H53_3 C40_3 1_555 1_555
H54_3 C40_3 1_555 1_555
C41_3 C39_3 1_555 1_555
H55_3 C41_3 1_555 1_555
H56_3 C41_3 1_555 1_555
H57_3 C41_3 1_555 1_555
C42_3 C40_3 1_555 1_555
H58_3 C42_3 1_555 1_555
H59_3 C42_3 1_555 1_555
H60_3 C42_3 1_555 1_555
Cu11_3 N12_3 1_555 1_555
Cu15_3 N11_3 1_555 1_555
N4_2 N6_2 1_555 1_555
N6_2 C8_3 1_555 1_555
C18_3 C33_3 1_555 1_555
N12_3 C38_3 1_555 1_555
C13_3 N5_3 1_555 1_555
C14_3 C16_3 1_555 1_555
C15_3 N8_3 1_555 1_555
C16_3 C13_3 1_555 1_555
C19_3 C13_3 1_555 1_555
H13_3 C19_3 1_555 1_555
H14_3 C19_3 1_555 1_555
C28_3 C19_3 1_555 1_555
H36_3 C28_3 1_555 1_555
H37_3 C28_3 1_555 1_555
H38_3 C28_3 1_555 1_555
N9_2 C29_3 1_555 1_555
C29_3 C14_3 1_555 1_555
C30_3 C14_3 1_555 1_555
C31_4 C29_3 1_555 1_555
C32_3 C30_3 1_555 1_555
H41_3 C32_3 1_555 1_555
H42_3 C32_3 1_555 1_555
C34_4 C31_4 1_555 1_555
H45_4 C34_4 1_555 1_555
H46_4 C34_4 1_555 1_555
H47_4 C34_4 1_555 1_555
N10_3 N9_2 1_555 1_555
C35_3 C32_3 1_555 1_555
H48_3 C35_3 1_555 1_555
H49_3 C35_3 1_555 1_555
H50_3 C35_3 1_555 1_555
Cu6_3 N10_3 1_555 1_555
Cu11_3 N13_3 1_555 1_555
Cu9_3 N14_3 1_555 1_555
Cu15_3 N18_3 1_555 1_555
C43_3 C44_3 1_555 1_555
C44_3 C45_3 1_555 1_555
N13_3 N14_3 1_555 1_555
N14_3 C47_3 1_555 1_555
N16_3 Cu9_3 1_555 1_555
C45_3 N13_3 1_555 1_555
C46_3 C43_3 1_555 1_555
C47_3 C44_3 1_555 1_555
N18_3 N16_3 1_555 1_555
C49_3 H61_3 1_555 1_555
H62_3 C49_3 1_555 1_555
H63_3 C49_3 1_555 1_555
C51_3 C45_3 1_555 1_555
H66_3 C51_3 1_555 1_555
H67_3 C51_3 1_555 1_555
C52_3 N16_3 1_555 1_555
C53_3 C55_3 1_555 1_555
C54_3 N18_3 1_555 1_555
C55_3 C52_3 1_555 1_555
C56_3 C47_3 1_555 1_555
H68_3 C56_3 1_555 1_555
C57_3 H70_3 1_555 1_555
H71_3 C57_3 1_555 1_555
H72_3 C57_3 1_555 1_555
C58_3 C52_3 1_555 1_555
H73_3 C58_3 1_555 1_555
H74_3 C58_3 1_555 1_555
C59_3 C46_3 1_555 1_555
H75_3 C59_3 1_555 1_555
H76_3 C59_3 1_555 1_555
C60_3 C59_3 1_555 1_555
H77_3 C60_3 1_555 1_555
H78_3 C60_3 1_555 1_555
H79_3 C60_3 1_555 1_555
C63_3 C58_3 1_555 1_555
H86_3 C63_3 1_555 1_555
H88_3 C63_3 1_555 1_555
N19_2 C64_3 1_555 1_555
C64_3 C53_3 1_555 1_555
C65_3 C53_3 1_555 1_555
C66_4 C64_3 1_555 1_555
H89_4 C66_4 1_555 1_555
H90_4 C66_4 1_555 1_555
C67_3 C65_3 1_555 1_555
H91_3 C67_3 1_555 1_555
H92_3 C67_3 1_555 1_555
C68_3 C54_3 1_555 1_555
H93_3 C68_3 1_555 1_555
H94_3 C68_3 1_555 1_555
C69_4 C66_4 1_555 1_555
H95_4 C69_4 1_555 1_555
H96_4 C69_4 1_555 1_555
H97_4 C69_4 1_555 1_555
N20_3 Cu6_3 1_555 1_555
C70_3 C67_3 1_555 1_555
H98_3 C70_3 1_555 1_555
H99_3 C70_3 1_555 1_555
H100_3 C70_3 1_555 1_555
Cu12_2 N19_2 1_555 1_555
Cu13_2 N9_2 1_555 1_555
N5_3 N8_3 1_555 1_555
C15_3 C16_3 1_555 1_555
C30_3 N10_3 1_555 1_555
C49_3 C51_3 1_555 1_555
C54_3 C55_3 1_555 1_555
C57_3 C68_3 1_555 1_555
N19_2 N20_3 1_555 1_555
C65_3 N20_3 1_555 1_555
Cu13 N17_3 1_555 1_555
N15 N17_3 1_555 1_555
C50_3 C48_3 1_555 1_555
H64_3 C50_3 1_555 1_555
H65_3 C50_3 1_555 1_555
H80_3 C61_3 1_555 1_555
H81_3 C61_3 1_555 1_555
H82_3 C61_3 1_555 1_555
C62_3 C50_3 1_555 1_555
H83_3 C62_3 1_555 1_555
H84_3 C62_3 1_555 1_555
H85_3 C62_3 1_555 1_555
Cu14 N15 1_555 1_555
N15 C48_3 1_555 1_555
Cu1_2 N1_3 1_555 1_555
Cu12 N7_3 1_555 1_555
Cu14 N3_3 1_555 1_555
Cu4_3 N2_3 1_555 1_555
C1_3 C2_3 1_555 1_555
C2_3 C3_3 1_555 1_555
N1_3 N2_3 1_555 1_555
N2_3 C6_3 1_555 1_555
N3_3 N7_3 1_555 1_555
N5_4 Cu4_3 1_555 1_555
C3_3 N1_3 1_555 1_555
C4_3 C1_3 1_555 1_555
C6_3 C2_3 1_555 1_555
N7_3 C4_3 1_555 1_555
C9_3 C1_3 1_555 1_555
C10_3 H1_3 1_555 1_555
H2_3 C10_3 1_555 1_555
H3_3 C10_3 1_555 1_555
C11_3 C9_3 1_555 1_555
H4_3 C11_3 1_555 1_555
H5_3 C11_3 1_555 1_555
C12_3 C3_3 1_555 1_555
H6_3 C12_3 1_555 1_555
H7_3 C12_3 1_555 1_555
C13_4 N5_4 1_555 1_555
C14_4 C16_4 1_555 1_555
C15_4 N8_4 1_555 1_555
C16_4 C13_4 1_555 1_555
C17_3 C6_3 1_555 1_555
H8_3 C17_3 1_555 1_555
H9_3 C17_3 1_555 1_555
C19_4 C13_4 1_555 1_555
H13_4 C19_4 1_555 1_555
H14_4 C19_4 1_555 1_555
C21_3 C4_3 1_555 1_555
H17_3 C21_3 1_555 1_555
H18_3 C21_3 1_555 1_555
C24_3 C17_3 1_555 1_555
H24_3 C24_3 1_555 1_555
H25_3 C24_3 1_555 1_555
H26_3 C24_3 1_555 1_555
C25_3 C11_3 1_555 1_555
H27_3 C25_3 1_555 1_555
H28_3 C25_3 1_555 1_555
H29_3 C25_3 1_555 1_555
H33_3 C27_3 1_555 1_555
H34_3 C27_3 1_555 1_555
H35_3 C27_3 1_555 1_555
C28_4 C19_4 1_555 1_555
H36_4 C28_4 1_555 1_555
H37_4 C28_4 1_555 1_555
H38_4 C28_4 1_555 1_555
N24_2 C29_4 1_555 1_555
C29_4 C14_4 1_555 1_555
C30_4 C14_4 1_555 1_555
C32_4 C30_4 1_555 1_555
H41_4 C32_4 1_555 1_555
H42_4 C32_4 1_555 1_555
N10_4 N24_2 1_555 1_555
C35_4 C32_4 1_555 1_555
H48_4 C35_4 1_555 1_555
H49_4 C35_4 1_555 1_555
H50_4 C35_4 1_555 1_555
Cu6_4 N10_4 1_555 1_555
Cu10_2 N18_4 1_555 1_555
N18_4 N16_4 1_555 1_555
C52_4 N16_4 1_555 1_555
C53_4 C55_4 1_555 1_555
C54_4 N18_4 1_555 1_555
C55_4 C52_4 1_555 1_555
C57_4 H70_4 1_555 1_555
H71_4 C57_4 1_555 1_555
H72_4 C57_4 1_555 1_555
C58_4 C52_4 1_555 1_555
H73_4 C58_4 1_555 1_555
H74_4 C58_4 1_555 1_555
C63_4 C58_4 1_555 1_555
H86_4 C63_4 1_555 1_555
H88_4 C63_4 1_555 1_555
N25_2 C64_4 1_555 1_555
C64_4 C53_4 1_555 1_555
C65_4 C53_4 1_555 1_555
C67_4 C65_4 1_555 1_555
H91_4 C67_4 1_555 1_555
H92_4 C67_4 1_555 1_555
C68_4 C54_4 1_555 1_555
H93_4 C68_4 1_555 1_555
H94_4 C68_4 1_555 1_555
N20_4 Cu6_4 1_555 1_555
C70_4 C67_4 1_555 1_555
H98_4 C70_4 1_555 1_555
H99_4 C70_4 1_555 1_555
H100_4 C70_4 1_555 1_555
N3_3 C9_3 1_555 1_555
N5_4 N8_4 1_555 1_555
C10_3 C12_3 1_555 1_555
C15_4 C16_4 1_555 1_555
C30_4 N10_4 1_555 1_555
C54_4 C55_4 1_555 1_555
C57_4 C68_4 1_555 1_555
N25_2 N20_4 1_555 1_555
C65_4 N20_4 1_555 1_555
C20_4 H15_4 1_555 1_555
H16_4 C20_4 1_555 1_555
C26_4 C20_4 1_555 1_555
H30_4 C26_4 1_555 1_555
H32_4 C26_4 1_555 1_555
H51_4 C39_4 1_555 1_555
H52_4 C39_4 1_555 1_555
C41_4 C39_4 1_555 1_555
H55_4 C41_4 1_555 1_555
H57_4 C41_4 1_555 1_555
H58_4 C42_4 1_555 1_555
H59_4 C42_4 1_555 1_555
H60_4 C42_4 1_555 1_555
C18_4 H10_4 1_555 1_555
H11_4 C18_4 1_555 1_555
H12_4 C18_4 1_555 1_555
H43_4 C33_4 1_555 1_555
H44_4 C33_4 1_555 1_555
Cu13_2 N17_4 1_555 1_555
N15_2 N17_4 1_555 1_555
C50_4 C48_4 1_555 1_555
H64_4 C50_4 1_555 1_555
H65_4 C50_4 1_555 1_555
H80_4 C61_4 1_555 1_555
H81_4 C61_4 1_555 1_555
H82_4 C61_4 1_555 1_555
C62_4 C50_4 1_555 1_555
H83_4 C62_4 1_555 1_555
H84_4 C62_4 1_555 1_555
H85_4 C62_4 1_555 1_555
Cu14_2 N15_2 1_555 1_555
C18_4 C33_4 1_555 1_555
N15_2 C48_4 1_555 1_555
Cu11_4 N1_4 1_555 1_555
Cu12_2 N7_4 1_555 1_555
Cu14_2 N3_4 1_555 1_555
Cu4_4 N2_4 1_555 1_555
C1_4 C2_4 1_555 1_555
C2_4 C3_4 1_555 1_555
N1_4 N2_4 1_555 1_555
N2_4 C6_4 1_555 1_555
N3_4 N7_4 1_555 1_555
C3_4 N1_4 1_555 1_555
C4_4 C1_4 1_555 1_555
C6_4 C2_4 1_555 1_555
N7_4 C4_4 1_555 1_555
C9_4 C1_4 1_555 1_555
C10_4 H1_4 1_555 1_555
H2_4 C10_4 1_555 1_555
H3_4 C10_4 1_555 1_555
C11_4 C9_4 1_555 1_555
H4_4 C11_4 1_555 1_555
H5_4 C11_4 1_555 1_555
C12_4 C3_4 1_555 1_555
H6_4 C12_4 1_555 1_555
H7_4 C12_4 1_555 1_555
C17_4 C6_4 1_555 1_555
H8_4 C17_4 1_555 1_555
H9_4 C17_4 1_555 1_555
C21_4 C4_4 1_555 1_555
H17_4 C21_4 1_555 1_555
H18_4 C21_4 1_555 1_555
C23_4 C21_4 1_555 1_555
H21_4 C23_4 1_555 1_555
H22_4 C23_4 1_555 1_555
H23_4 C23_4 1_555 1_555
C24_4 C17_4 1_555 1_555
H24_4 C24_4 1_555 1_555
H25_4 C24_4 1_555 1_555
H26_4 C24_4 1_555 1_555
C25_4 C11_4 1_555 1_555
H27_4 C25_4 1_555 1_555
H28_4 C25_4 1_555 1_555
H29_4 C25_4 1_555 1_555
N3_4 C9_4 1_555 1_555
C10_4 C12_4 1_555 1_555
H77_4 C60_4 1_555 1_555
H78_4 C60_4 1_555 1_555
H79_4 C60_4 1_555 1_555
Cu7_2 N13_4 1_555 1_555
Cu9_4 N14_4 1_555 1_555
C43_4 C44_4 1_555 1_555
C44_4 C45_4 1_555 1_555
N13_4 N14_4 1_555 1_555
N14_4 C47_4 1_555 1_555
C45_4 N13_4 1_555 1_555
C46_4 C43_4 1_555 1_555
C47_4 C44_4 1_555 1_555
C49_4 H61_4 1_555 1_555
H62_4 C49_4 1_555 1_555
H63_4 C49_4 1_555 1_555
C51_4 C45_4 1_555 1_555
H66_4 C51_4 1_555 1_555
H67_4 C51_4 1_555 1_555
C56_4 C47_4 1_555 1_555
H68_4 C56_4 1_555 1_555
C59_4 C46_4 1_555 1_555
H75_4 C59_4 1_555 1_555
H76_4 C59_4 1_555 1_555
N23_2 Cu7_2 1_555 1_555
C49_4 C51_4 1_555 1_555
N22_2 N23_2 1_555 1_555
N22_2 C7_4 1_555 1_555
C5_4 C7_4 1_555 1_555
C8_4 C5_4 1_555 1_555
C22_4 C8_4 1_555 1_555
H19_4 C22_4 1_555 1_555
H20_4 C22_4 1_555 1_555
C27_4 C22_4 1_555 1_555
H33_4 C27_4 1_555 1_555
H34_4 C27_4 1_555 1_555
H35_4 C27_4 1_555 1_555
N11_4 C37_4 1_555 1_555
C36_4 C5_4 1_555 1_555
C37_4 C36_4 1_555 1_555
N12_4 N11_4 1_555 1_555
C38_4 C36_4 1_555 1_555
C40_4 C38_4 1_555 1_555
H53_4 C40_4 1_555 1_555
H54_4 C40_4 1_555 1_555
N23_2 C8_4 1_555 1_555
N12_4 C38_4 1_555 1_555

#END
