
###############################################################################
#
# This file contains modified crystal structure data generated from the
# MOF subset of the Cambridge Structural Database (CSD) v543 
# hosted by the Cambridge Crystallographic Data Centre (CCDC).
#
# This work is licensed under the Creative Commons
# Attribution-NonCommercial-ShareAlike 4.0 International License.
# To view a copy of this license, visit
# http://creativecommons.org/licenses/by-nc-sa/4.0/
# or send a letter to
# Creative Commons, PO Box 1866, Mountain View, CA 94042, USA.
#
# CIF created using the CSD Python API on 29 September 2022
# The structure has been converted into the P1 space group
# The structure has a 3D framework
# The original CSD entry WOHZAU01 is in the monoclinic crystal system
# The framework has been calculated to contain at least 10.0% void space
# The void calculation uses a probe of radius 1.32A, grid spacing 0.4
# H atom positions have been added when not included in the experimental data
#
###############################################################################

data_WOHZAU01
_chemical_formula_moiety         '(C72 H104 Er8 O62)n'
_symmetry_cell_setting           triclinic
_symmetry_space_group_name_H-M   'P 1'
_symmetry_Int_Tables_number      1
_space_group_name_Hall           'P 1'
loop_
_symmetry_equiv_pos_site_id
_symmetry_equiv_pos_as_xyz
1 x,y,z
_cell_length_a                   13.3944(16)
_cell_length_b                   12.2501(9)
_cell_length_c                   15.9220(16)
_cell_angle_alpha                90
_cell_angle_beta                 92.089(13)
_cell_angle_gamma                90
_cell_volume                     2610.79
loop_
_atom_site_label
_atom_site_type_symbol
_atom_site_fract_x
_atom_site_fract_y
_atom_site_fract_z
Er4 Er 0.12221(4) 0.09981(4) 0.01079(4)
O11 O 0.0359(6) 0.0798(7) 0.5500(6)
H5 H 0.0471119 0.14726 0.39659
Er5 Er 0.62221(4) 0.59981(4) 0.01079(4)
Er1 Er 0.87779(4) 0.09981(4) 0.48921(4)
O1 O 0.8668(8) 0.2275(8) 0.5879(7)
O2 O 0.7257(7) 0.3154(8) 0.6003(6)
O3 O 0.8079(7) 0.0511(7) 0.9117(7)
O4 O 0.9641(6) 0.0798(7) 0.9500(6)
O5 O 0.6496(6) 0.4741(8) 0.8992(6)
O6 O 0.7809(7) 0.5564(7) 0.9512(7)
C1 C 0.8088(10) 0.2813(10) 0.6296(8)
C2 C 0.8843(8) 0.1118(10) 0.9086(8)
C3 C 0.7416(10) 0.4842(10) 0.9024(9)
C4 C 0.8392(11) 0.3062(11) 0.7215(8)
C5 C 0.8475(10) 0.1976(10) 0.7700(8)
C6 C 0.8827(9) 0.2163(10) 0.8611(8)
C7 C 0.8159(9) 0.3003(11) 0.9065(8)
C8 C 0.8080(8) 0.4064(11) 0.8556(7)
C9 C 0.7686(10) 0.3854(10) 0.7645(8)
O7 O 0.9772(10) 0.1346(18) 0.3760(13)
O8 O 0.9455(15) 0.288(2) 0.4635(19)
O9 O 0.7743(7) 0.1846(8) 0.3997(6)
Er2 Er 0.62221(4) 0.40019(4) 0.51079(4)
O14 O 0.7191(7) 0.0564(7) 0.5488(7)
H1 H 0.913109 0.343316 0.722406
H2 H 0.900788 0.144857 0.739629
H3 H 0.774548 0.158281 0.768994
H4 H 0.95856 0.2483 0.861282
H6 H 0.975027 0.0710014 0.337308
H7 H 0.998432 0.305145 0.506781
H8 H 0.974099 0.290864 0.406873
H9 H 0.694094 0.349946 0.765478
H10 H 0.765482 0.462181 0.730033
H11 H 0.848841 0.317815 0.96858
H12 H 0.741555 0.265985 0.912855
H13 H 0.882214 0.442319 0.853228
O10 O 0.8079(7) 0.9489(7) 0.4117(7)
O12 O 0.9641(6) 0.9202(7) 0.4500(6)
O13 O 0.8504(6) 0.9741(8) 0.6008(6)
Er3 Er 0.87779(4) 0.90019(4) 0.98921(4)
O7_2 O 0.0228(10) 0.1346(18) 0.1240(13)
O8_2 O 0.0545(15) 0.288(2) 0.0365(19)
O9_2 O 0.2257(7) 0.1846(8) 0.1003(6)
H6_2 H 0.0249735 0.0710014 0.162692
H8_2 H 0.0259014 0.290864 0.0931268
O1_2 O 0.1332(8) 0.2275(8) 0.9121(7)
O2_2 O 0.2743(7) 0.3154(8) 0.8997(6)
O3_2 O 0.1921(7) 0.0511(7) 0.5883(7)
O5_2 O 0.3504(6) 0.4741(8) 0.6008(6)
O6_2 O 0.2191(7) 0.5564(7) 0.5488(7)
C1_2 C 0.1912(10) 0.2813(10) 0.8704(8)
C2_2 C 0.1157(8) 0.1118(10) 0.5914(8)
C3_2 C 0.2584(10) 0.4842(10) 0.5976(9)
C4_2 C 0.1608(11) 0.3062(11) 0.7785(8)
C5_2 C 0.1525(10) 0.1976(10) 0.7300(8)
C6_2 C 0.1173(9) 0.2163(10) 0.6389(8)
C7_2 C 0.1841(9) 0.3003(11) 0.5935(8)
C8_2 C 0.1920(8) 0.4064(11) 0.6444(7)
C9_2 C 0.2314(10) 0.3854(10) 0.7355(8)
Er2_2 Er 0.37779(4) 0.40019(4) 0.98921(4)
O14_2 O 0.2809(7) 0.0564(7) 0.9512(7)
Er5_2 Er 0.37779(4) 0.59981(4) 0.48921(4)
H1_2 H 0.0868913 0.343316 0.777594
H2_2 H 0.0992118 0.144857 0.760371
H3_2 H 0.225452 0.158281 0.731006
H4_2 H 0.04144 0.2483 0.638718
H7_2 H 0.00156798 0.305145 0.993219
H9_2 H 0.305906 0.349946 0.734522
H10_2 H 0.234518 0.462181 0.769967
H11_2 H 0.151159 0.317815 0.53142
H12_2 H 0.258445 0.265985 0.587145
H13_2 H 0.117786 0.442319 0.646772
O10_2 O 0.1921(7) 0.9489(7) 0.0883(7)
O12_2 O 0.0359(6) 0.9202(7) 0.0500(6)
O13_2 O 0.1496(6) 0.9741(8) 0.8992(6)
Er3_2 Er 0.12221(4) 0.90019(4) 0.51079(4)
O1_3 O 0.3668(8) 0.7275(8) 0.5879(7)
O2_3 O 0.2257(7) 0.8154(8) 0.6003(6)
O3_3 O 0.3079(7) 0.5511(7) 0.9117(7)
O4_2 O 0.4641(6) 0.5798(7) 0.9500(6)
C1_3 C 0.3088(10) 0.7813(10) 0.6296(8)
C2_3 C 0.3843(8) 0.6118(10) 0.9086(8)
C3_3 C 0.2416(10) 0.9842(10) 0.9024(9)
C4_3 C 0.3392(11) 0.8062(11) 0.7215(8)
C5_3 C 0.3475(10) 0.6976(10) 0.7700(8)
C6_3 C 0.3827(9) 0.7163(10) 0.8611(8)
C7_3 C 0.3159(9) 0.8003(11) 0.9065(8)
C8_3 C 0.3080(8) 0.9064(11) 0.8556(7)
C9_3 C 0.2686(10) 0.8854(10) 0.7645(8)
O7_3 O 0.4772(10) 0.6346(18) 0.3760(13)
O8_3 O 0.4455(15) 0.788(2) 0.4635(19)
O9_3 O 0.2743(7) 0.6846(8) 0.3997(6)
O10_3 O 0.3079(7) 0.4489(7) 0.4117(7)
O11_2 O 0.5359(6) 0.5798(7) 0.5500(6)
O12_3 O 0.4641(6) 0.4202(7) 0.4500(6)
H1_3 H 0.413109 0.843316 0.722406
H2_3 H 0.400788 0.644857 0.739629
H3_3 H 0.274548 0.658281 0.768994
H4_3 H 0.45856 0.7483 0.861282
H5_2 H 0.547112 0.64726 0.39659
H6_3 H 0.475027 0.571001 0.337308
H7_3 H 0.498432 0.805145 0.506781
H8_3 H 0.474099 0.790864 0.406873
H9_3 H 0.194094 0.849946 0.765478
H10_3 H 0.265482 0.962181 0.730033
H11_3 H 0.348841 0.817815 0.96858
H12_3 H 0.241555 0.765985 0.912855
H13_3 H 0.382214 0.942319 0.853228
O7_4 O 0.5228(10) 0.6346(18) 0.1240(13)
O8_4 O 0.5545(15) 0.788(2) 0.0365(19)
O9_4 O 0.7257(7) 0.6846(8) 0.1003(6)
O10_4 O 0.6921(7) 0.4489(7) 0.0883(7)
O12_4 O 0.5359(6) 0.4202(7) 0.0500(6)
H5_3 H 0.452888 0.64726 0.10341
H6_4 H 0.524973 0.571001 0.162692
H8_4 H 0.525901 0.790864 0.0931268
O1_4 O 0.6332(8) 0.7275(8) 0.9121(7)
O2_4 O 0.7743(7) 0.8154(8) 0.8997(6)
O3_4 O 0.6921(7) 0.5511(7) 0.5883(7)
C1_4 C 0.6912(10) 0.7813(10) 0.8704(8)
C2_4 C 0.6157(8) 0.6118(10) 0.5914(8)
C3_4 C 0.7584(10) 0.9842(10) 0.5976(9)
C4_4 C 0.6608(11) 0.8062(11) 0.7785(8)
C5_4 C 0.6525(10) 0.6976(10) 0.7300(8)
C6_4 C 0.6173(9) 0.7163(10) 0.6389(8)
C7_4 C 0.6841(9) 0.8003(11) 0.5935(8)
C8_4 C 0.6920(8) 0.9064(11) 0.6444(7)
C9_4 C 0.7314(10) 0.8854(10) 0.7355(8)
H1_4 H 0.586891 0.843316 0.777594
H2_4 H 0.599212 0.644857 0.760371
H3_4 H 0.725452 0.658281 0.731006
H4_4 H 0.54144 0.7483 0.638718
H7_4 H 0.501568 0.805145 0.993219
H9_4 H 0.805906 0.849946 0.734522
H10_4 H 0.734518 0.962181 0.769967
H11_4 H 0.651159 0.817815 0.53142
H12_4 H 0.758445 0.765985 0.587145
H13_4 H 0.617786 0.942319 0.646772
O13_3 O 0.1496(6) 0.0259(8) 0.3992(6)
O1_5 O 0.1332(8) 0.7725(8) 0.4121(7)
O5_3 O 0.3504(6) 0.5259(8) 0.1008(6)
O6_3 O 0.2191(7) 0.4436(7) 0.0488(7)
C1_5 C 0.1912(10) 0.7187(10) 0.3704(8)
C2_5 C 0.1157(8) 0.8882(10) 0.0914(8)
C3_5 C 0.2584(10) 0.5158(10) 0.0976(9)
C4_5 C 0.1608(11) 0.6938(11) 0.2785(8)
C5_5 C 0.1525(10) 0.8024(10) 0.2300(8)
C6_5 C 0.1173(9) 0.7837(10) 0.1389(8)
C7_5 C 0.1841(9) 0.6997(11) 0.0935(8)
C8_5 C 0.1920(8) 0.5936(11) 0.1444(7)
C9_5 C 0.2314(10) 0.6146(10) 0.2355(8)
O7_5 O 0.0228(10) 0.8654(18) 0.6240(13)
O8_5 O 0.0545(15) 0.712(2) 0.5365(19)
O14_3 O 0.2809(7) 0.9436(7) 0.4512(7)
H1_5 H 0.0868913 0.656684 0.277594
H2_5 H 0.0992118 0.855143 0.260371
H3_5 H 0.225452 0.841719 0.231006
H4_5 H 0.04144 0.7517 0.138718
H6_5 H 0.0249735 0.928999 0.662692
H7_5 H 0.00156798 0.694855 0.493219
H8_5 H 0.0259014 0.709136 0.593127
H9_5 H 0.305906 0.650054 0.234522
H10_5 H 0.234518 0.537819 0.269967
H11_5 H 0.151159 0.682185 0.0314203
H12_5 H 0.258445 0.734015 0.0871452
H13_5 H 0.117786 0.557681 0.146772
H5_4 H 0.952888 0.85274 0.60341
O13_4 O 0.8504(6) 0.0259(8) 0.1008(6)
O1_6 O 0.8668(8) 0.7725(8) 0.0879(7)
O5_4 O 0.6496(6) 0.5259(8) 0.3992(6)
O6_4 O 0.7809(7) 0.4436(7) 0.4512(7)
C1_6 C 0.8088(10) 0.7187(10) 0.1296(8)
C2_6 C 0.8843(8) 0.8882(10) 0.4086(8)
C3_6 C 0.7416(10) 0.5158(10) 0.4024(9)
C4_6 C 0.8392(11) 0.6938(11) 0.2215(8)
C5_6 C 0.8475(10) 0.8024(10) 0.2700(8)
C6_6 C 0.8827(9) 0.7837(10) 0.3611(8)
C7_6 C 0.8159(9) 0.6997(11) 0.4065(8)
C8_6 C 0.8080(8) 0.5936(11) 0.3556(7)
C9_6 C 0.7686(10) 0.6146(10) 0.2645(8)
O14_4 O 0.7191(7) 0.9436(7) 0.0488(7)
H1_6 H 0.913109 0.656684 0.222406
H2_6 H 0.900788 0.855143 0.239629
H3_6 H 0.774548 0.841719 0.268994
H4_6 H 0.95856 0.7517 0.361282
H7_6 H 0.998432 0.694855 0.00678101
H9_6 H 0.694094 0.650054 0.265478
H10_6 H 0.765482 0.537819 0.230033
H11_6 H 0.848841 0.682185 0.46858
H12_6 H 0.741555 0.734015 0.412855
H13_6 H 0.882214 0.557681 0.353228
O7_6 O 0.9772(10) 0.8654(18) 0.8760(13)
O8_6 O 0.9455(15) 0.712(2) 0.9635(19)
H6_6 H 0.975027 0.928999 0.837308
H8_6 H 0.974099 0.709136 0.906873
O1_7 O 0.6332(8) 0.2725(8) 0.4121(7)
C1_7 C 0.6912(10) 0.2187(10) 0.3704(8)
C2_7 C 0.6157(8) 0.3882(10) 0.0914(8)
C3_7 C 0.7584(10) 0.0158(10) 0.0976(9)
C4_7 C 0.6608(11) 0.1938(11) 0.2785(8)
C5_7 C 0.6525(10) 0.3024(10) 0.2300(8)
C6_7 C 0.6173(9) 0.2837(10) 0.1389(8)
C7_7 C 0.6841(9) 0.1997(11) 0.0935(8)
C8_7 C 0.6920(8) 0.0936(11) 0.1444(7)
C9_7 C 0.7314(10) 0.1146(10) 0.2355(8)
O7_7 O 0.5228(10) 0.3654(18) 0.6240(13)
O8_7 O 0.5545(15) 0.212(2) 0.5365(19)
H1_7 H 0.586891 0.156684 0.277594
H2_7 H 0.599212 0.355143 0.260371
H3_7 H 0.725452 0.341719 0.231006
H4_7 H 0.54144 0.2517 0.138718
H5_5 H 0.452888 0.35274 0.60341
H6_7 H 0.524973 0.428999 0.662692
H7_7 H 0.501568 0.194855 0.493219
H8_7 H 0.525901 0.209136 0.593127
H9_7 H 0.805906 0.150054 0.234522
H10_7 H 0.734518 0.0378192 0.269967
H11_7 H 0.651159 0.182185 0.0314203
H12_7 H 0.758445 0.234015 0.0871452
H13_7 H 0.617786 0.0576812 0.146772
O1_8 O 0.3668(8) 0.2725(8) 0.0879(7)
C1_8 C 0.3088(10) 0.2187(10) 0.1296(8)
C2_8 C 0.3843(8) 0.3882(10) 0.4086(8)
C3_8 C 0.2416(10) 0.0158(10) 0.4024(9)
C4_8 C 0.3392(11) 0.1938(11) 0.2215(8)
C5_8 C 0.3475(10) 0.3024(10) 0.2700(8)
C6_8 C 0.3827(9) 0.2837(10) 0.3611(8)
C7_8 C 0.3159(9) 0.1997(11) 0.4065(8)
C8_8 C 0.3080(8) 0.0936(11) 0.3556(7)
C9_8 C 0.2686(10) 0.1146(10) 0.2645(8)
H1_8 H 0.413109 0.156684 0.222406
H2_8 H 0.400788 0.355143 0.239629
H3_8 H 0.274548 0.341719 0.268994
H4_8 H 0.45856 0.2517 0.361282
H7_8 H 0.498432 0.194855 0.00678101
H9_8 H 0.194094 0.150054 0.265478
H10_8 H 0.265482 0.0378192 0.230033
H11_8 H 0.348841 0.182185 0.46858
H12_8 H 0.241555 0.234015 0.412855
H13_8 H 0.382214 0.0576812 0.353228
O7_8 O 0.4772(10) 0.3654(18) 0.8760(13)
O8_8 O 0.4455(15) 0.212(2) 0.9635(19)
H5_6 H 0.547112 0.35274 0.89659
H6_8 H 0.475027 0.428999 0.837308
H8_8 H 0.474099 0.209136 0.906873
H5_7 H 0.952888 0.14726 0.10341
H5_8 H 0.0471119 0.85274 0.89659
loop_
_geom_bond_atom_site_label_1
_geom_bond_atom_site_label_2
_geom_bond_site_symmetry_1
_geom_bond_site_symmetry_2
Er1 O1 1_555 1_555
O1 C1 1_555 1_555
O2 C1 1_555 1_555
O3 C2 1_555 1_555
O4 C2 1_555 1_555
O5 C3 1_555 1_555
O6 C3 1_555 1_555
C1 C4 1_555 1_555
C2 C6 1_555 1_555
C3 C8 1_555 1_555
C4 C5 1_555 1_555
C5 C6 1_555 1_555
C6 C7 1_555 1_555
C7 C8 1_555 1_555
C8 C9 1_555 1_555
C9 C4 1_555 1_555
O7 Er1 1_555 1_555
O8 Er1 1_555 1_555
O9 Er1 1_555 1_555
Er2 O2 1_555 1_555
O14 Er1 1_555 1_555
C4 H1 1_555 1_555
C5 H2 1_555 1_555
C5 H3 1_555 1_555
C6 H4 1_555 1_555
O7 H6 1_555 1_555
O8 H7 1_555 1_555
O8 H8 1_555 1_555
C9 H9 1_555 1_555
C9 H10 1_555 1_555
C7 H11 1_555 1_555
C7 H12 1_555 1_555
C8 H13 1_555 1_555
O7_2 Er4 1_555 1_555
O8_2 Er4 1_555 1_555
O9_2 Er4 1_555 1_555
O7_2 H6_2 1_555 1_555
O8_2 H8_2 1_555 1_555
O1_2 C1_2 1_555 1_555
O2_2 C1_2 1_555 1_555
O3_2 C2_2 1_555 1_555
O11 C2_2 1_555 1_555
O5_2 C3_2 1_555 1_555
O6_2 C3_2 1_555 1_555
C1_2 C4_2 1_555 1_555
C2_2 C6_2 1_555 1_555
C3_2 C8_2 1_555 1_555
C4_2 C5_2 1_555 1_555
C5_2 C6_2 1_555 1_555
C6_2 C7_2 1_555 1_555
C7_2 C8_2 1_555 1_555
C8_2 C9_2 1_555 1_555
C9_2 C4_2 1_555 1_555
Er2_2 O2_2 1_555 1_555
Er5_2 O5_2 1_555 1_555
O6_2 Er5_2 1_555 1_555
C4_2 H1_2 1_555 1_555
C5_2 H2_2 1_555 1_555
C5_2 H3_2 1_555 1_555
C6_2 H4_2 1_555 1_555
C9_2 H9_2 1_555 1_555
C9_2 H10_2 1_555 1_555
C7_2 H11_2 1_555 1_555
C7_2 H12_2 1_555 1_555
C8_2 H13_2 1_555 1_555
Er5_2 O1_3 1_555 1_555
O1_3 C1_3 1_555 1_555
O2_3 C1_3 1_555 1_555
O3_3 C2_3 1_555 1_555
O4_2 C2_3 1_555 1_555
O13_2 C3_3 1_555 1_555
C1_3 C4_3 1_555 1_555
C2_3 C6_3 1_555 1_555
C3_3 C8_3 1_555 1_555
C4_3 C5_3 1_555 1_555
C5_3 C6_3 1_555 1_555
C6_3 C7_3 1_555 1_555
C7_3 C8_3 1_555 1_555
C8_3 C9_3 1_555 1_555
C9_3 C4_3 1_555 1_555
O7_3 Er5_2 1_555 1_555
O8_3 Er5_2 1_555 1_555
O9_3 Er5_2 1_555 1_555
Er3_2 O2_3 1_555 1_555
O10_3 Er5_2 1_555 1_555
O11_2 Er5_2 1_555 1_555
O12_3 Er5_2 1_555 1_555
Er2_2 O3_3 1_555 1_555
O4_2 Er2_2 1_555 1_555
C4_3 H1_3 1_555 1_555
C5_3 H2_3 1_555 1_555
C5_3 H3_3 1_555 1_555
C6_3 H4_3 1_555 1_555
O7_3 H5_2 1_555 1_555
O7_3 H6_3 1_555 1_555
O8_3 H7_3 1_555 1_555
O8_3 H8_3 1_555 1_555
C9_3 H9_3 1_555 1_555
C9_3 H10_3 1_555 1_555
C7_3 H11_3 1_555 1_555
C7_3 H12_3 1_555 1_555
C8_3 H13_3 1_555 1_555
O7_4 Er5 1_555 1_555
O8_4 Er5 1_555 1_555
O9_4 Er5 1_555 1_555
O10_4 Er5 1_555 1_555
O12_4 Er5 1_555 1_555
O7_4 H5_3 1_555 1_555
O7_4 H6_4 1_555 1_555
O8_4 H8_4 1_555 1_555
O1_4 C1_4 1_555 1_555
O2_4 C1_4 1_555 1_555
O3_4 C2_4 1_555 1_555
O11_2 C2_4 1_555 1_555
O13 C3_4 1_555 1_555
C1_4 C4_4 1_555 1_555
C2_4 C6_4 1_555 1_555
C3_4 C8_4 1_555 1_555
C4_4 C5_4 1_555 1_555
C5_4 C6_4 1_555 1_555
C6_4 C7_4 1_555 1_555
C7_4 C8_4 1_555 1_555
C8_4 C9_4 1_555 1_555
C9_4 C4_4 1_555 1_555
Er3 O2_4 1_555 1_555
Er2 O3_4 1_555 1_555
O11_2 Er2 1_555 1_555
C4_4 H1_4 1_555 1_555
C5_4 H2_4 1_555 1_555
C5_4 H3_4 1_555 1_555
C6_4 H4_4 1_555 1_555
C9_4 H9_4 1_555 1_555
C9_4 H10_4 1_555 1_555
C7_4 H11_4 1_555 1_555
C7_4 H12_4 1_555 1_555
C8_4 H13_4 1_555 1_555
Er3_2 O1_5 1_555 1_555
O1_5 C1_5 1_555 1_555
O9_3 C1_5 1_555 1_555
O10_2 C2_5 1_555 1_555
O12_2 C2_5 1_555 1_555
O5_3 C3_5 1_555 1_555
O6_3 C3_5 1_555 1_555
C1_5 C4_5 1_555 1_555
C2_5 C6_5 1_555 1_555
C3_5 C8_5 1_555 1_555
C4_5 C5_5 1_555 1_555
C5_5 C6_5 1_555 1_555
C6_5 C7_5 1_555 1_555
C7_5 C8_5 1_555 1_555
C8_5 C9_5 1_555 1_555
C9_5 C4_5 1_555 1_555
O7_5 Er3_2 1_555 1_555
O8_5 Er3_2 1_555 1_555
O14_3 Er3_2 1_555 1_555
C4_5 H1_5 1_555 1_555
C5_5 H2_5 1_555 1_555
C5_5 H3_5 1_555 1_555
C6_5 H4_5 1_555 1_555
O7_5 H6_5 1_555 1_555
O8_5 H7_5 1_555 1_555
O8_5 H8_5 1_555 1_555
C9_5 H9_5 1_555 1_555
C9_5 H10_5 1_555 1_555
C7_5 H11_5 1_555 1_555
C7_5 H12_5 1_555 1_555
C8_5 H13_5 1_555 1_555
O1_6 C1_6 1_555 1_555
O9_4 C1_6 1_555 1_555
O10 C2_6 1_555 1_555
O12 C2_6 1_555 1_555
O5_4 C3_6 1_555 1_555
O6_4 C3_6 1_555 1_555
C1_6 C4_6 1_555 1_555
C2_6 C6_6 1_555 1_555
C3_6 C8_6 1_555 1_555
C4_6 C5_6 1_555 1_555
C5_6 C6_6 1_555 1_555
C6_6 C7_6 1_555 1_555
C7_6 C8_6 1_555 1_555
C8_6 C9_6 1_555 1_555
C9_6 C4_6 1_555 1_555
Er2 O5_4 1_555 1_555
O6_4 Er2 1_555 1_555
C4_6 H1_6 1_555 1_555
C5_6 H2_6 1_555 1_555
C5_6 H3_6 1_555 1_555
C6_6 H4_6 1_555 1_555
C9_6 H9_6 1_555 1_555
C9_6 H10_6 1_555 1_555
C7_6 H11_6 1_555 1_555
C7_6 H12_6 1_555 1_555
C8_6 H13_6 1_555 1_555
O7_6 Er3 1_555 1_555
O8_6 Er3 1_555 1_555
O7_6 H6_6 1_555 1_555
O8_6 H8_6 1_555 1_555
Er2 O1_7 1_555 1_555
O1_7 C1_7 1_555 1_555
O9 C1_7 1_555 1_555
O10_4 C2_7 1_555 1_555
O12_4 C2_7 1_555 1_555
O13_4 C3_7 1_555 1_555
C1_7 C4_7 1_555 1_555
C2_7 C6_7 1_555 1_555
C3_7 C8_7 1_555 1_555
C4_7 C5_7 1_555 1_555
C5_7 C6_7 1_555 1_555
C6_7 C7_7 1_555 1_555
C7_7 C8_7 1_555 1_555
C8_7 C9_7 1_555 1_555
C9_7 C4_7 1_555 1_555
O7_7 Er2 1_555 1_555
O8_7 Er2 1_555 1_555
O12_3 Er2 1_555 1_555
C4_7 H1_7 1_555 1_555
C5_7 H2_7 1_555 1_555
C5_7 H3_7 1_555 1_555
C6_7 H4_7 1_555 1_555
O7_7 H5_5 1_555 1_555
O7_7 H6_7 1_555 1_555
O8_7 H7_7 1_555 1_555
O8_7 H8_7 1_555 1_555
C9_7 H9_7 1_555 1_555
C9_7 H10_7 1_555 1_555
C7_7 H11_7 1_555 1_555
C7_7 H12_7 1_555 1_555
C8_7 H13_7 1_555 1_555
O1_8 C1_8 1_555 1_555
O9_2 C1_8 1_555 1_555
O10_3 C2_8 1_555 1_555
O12_3 C2_8 1_555 1_555
O13_3 C3_8 1_555 1_555
C1_8 C4_8 1_555 1_555
C2_8 C6_8 1_555 1_555
C3_8 C8_8 1_555 1_555
C4_8 C5_8 1_555 1_555
C5_8 C6_8 1_555 1_555
C6_8 C7_8 1_555 1_555
C7_8 C8_8 1_555 1_555
C8_8 C9_8 1_555 1_555
C9_8 C4_8 1_555 1_555
C4_8 H1_8 1_555 1_555
C5_8 H2_8 1_555 1_555
C5_8 H3_8 1_555 1_555
C6_8 H4_8 1_555 1_555
C9_8 H9_8 1_555 1_555
C9_8 H10_8 1_555 1_555
C7_8 H11_8 1_555 1_555
C7_8 H12_8 1_555 1_555
C8_8 H13_8 1_555 1_555
O7_8 Er2_2 1_555 1_555
O8_8 Er2_2 1_555 1_555
O7_8 H5_6 1_555 1_555
O7_8 H6_8 1_555 1_555
O8_8 H8_8 1_555 1_555

#END
