
###############################################################################
#
# This file contains modified crystal structure data generated from the
# MOF subset of the Cambridge Structural Database (CSD) v543 
# hosted by the Cambridge Crystallographic Data Centre (CCDC).
#
# This work is licensed under the Creative Commons
# Attribution-NonCommercial-ShareAlike 4.0 International License.
# To view a copy of this license, visit
# http://creativecommons.org/licenses/by-nc-sa/4.0/
# or send a letter to
# Creative Commons, PO Box 1866, Mountain View, CA 94042, USA.
#
# CIF created using the CSD Python API on 29 September 2022
# The structure has been converted into the P1 space group
# The structure has a 3D framework
# The original CSD entry WOHZAU is in the monoclinic crystal system
# The framework has been calculated to contain at least 10.0% void space
# The void calculation uses a probe of radius 1.32A, grid spacing 0.4
# H atom positions have been added when not included in the experimental data
#
###############################################################################

data_WOHZAU
_chemical_formula_moiety         '(C72 H104 Er8 O62)n'
_symmetry_cell_setting           triclinic
_symmetry_space_group_name_H-M   'P 1'
_symmetry_Int_Tables_number      1
_space_group_name_Hall           'P 1'
loop_
_symmetry_equiv_pos_site_id
_symmetry_equiv_pos_as_xyz
1 x,y,z
_cell_length_a                   13.4186(2)
_cell_length_b                   12.2468(2)
_cell_length_c                   15.9193(3)
_cell_angle_alpha                90
_cell_angle_beta                 92.1430(10)
_cell_angle_gamma                90
_cell_volume                     2614.27
loop_
_atom_site_label
_atom_site_type_symbol
_atom_site_fract_x
_atom_site_fract_y
_atom_site_fract_z
O7 O 0.5545(9) 0.2922(9) 0.0414(8)
O8 O 0.5240(5) 0.1308(9) 0.1266(6)
Er1 Er 0.622293(17) 0.09986(2) 0.010995(14)
O9 O 0.7247(3) 0.1848(4) 0.1024(3)
H11 H 0.52773 0.29384 0.0987012
H12 H 0.453674 0.142344 0.106976
H13 H 0.527967 0.0665759 0.164654
C1 C 0.6613(4) 0.3059(5) 0.7784(3)
H1 H 0.5951 0.3396 0.7782
C2 C 0.7315(5) 0.3845(5) 0.7343(3)
H2 H 0.7976 0.3526 0.7327
H3 H 0.7366 0.4524 0.7655
C3 C 0.6914(4) 0.4074(4) 0.6442(3)
H4 H 0.6247 0.4395 0.6468
C4 C 0.6838(4) 0.2995(5) 0.5942(3)
H5 H 0.7498 0.2685 0.5893
H6 H 0.6566 0.3141 0.5380
C5 C 0.6162(4) 0.2172(4) 0.6385(3)
H7 H 0.5482 0.2465 0.6384
C6 C 0.6524(5) 0.1977(5) 0.7298(3)
H8 H 0.7168 0.1617 0.7305
H9 H 0.6059 0.1500 0.7572
C7 C 0.6930(5) 0.2814(5) 0.8688(3)
O1 O 0.6333(4) 0.2259(4) 0.9102(3)
O2 O 0.7753(3) 0.3152(4) 0.8976(3)
C8 C 0.7569(4) 0.4840(5) 0.5968(3)
O3 O 0.7177(3) 0.5563(4) 0.5492(3)
O4 O 0.8502(3) 0.4732(4) 0.6006(3)
C9 C 0.6149(4) 0.1107(5) 0.5904(3)
O5 O 0.5375(3) 0.0799(4) 0.5495(3)
O6 O 0.6914(3) 0.0522(4) 0.5903(3)
Er2 Er 0.877707(17) 0.40014(2) 0.989005(14)
Er3 Er 0.877707(17) 0.59986(2) 0.489005(14)
Er5 Er 0.377707(17) 0.09986(2) 0.489005(14)
O10 O 0.7823(3) 0.0563(4) 0.9508(3)
O13 O 0.4625(3) 0.0799(4) 0.9505(3)
H10 H 0.500453 0.310447 0.999431
O12 O 0.5375(3) 0.9201(4) 0.0495(3)
O14 O 0.6914(3) 0.9478(4) 0.0903(3)
Er4 Er 0.622293(17) 0.90014(2) 0.510995(14)
O11 O 0.6498(3) 0.9732(4) 0.8994(3)
O3_2 O 0.2177(3) 0.0563(4) 0.5492(3)
O7_2 O 0.0545(9) 0.7922(9) 0.0414(8)
O8_2 O 0.0240(5) 0.6308(9) 0.1266(6)
Er1_2 Er 0.122293(17) 0.59986(2) 0.010995(14)
O9_2 O 0.2247(3) 0.6848(4) 0.1024(3)
O12_2 O 0.0375(3) 0.4201(4) 0.0495(3)
O14_2 O 0.1914(3) 0.4478(4) 0.0903(3)
H11_2 H 0.0277296 0.79384 0.0987012
H13_2 H 0.0279668 0.566576 0.164654
C1_2 C 0.1613(4) 0.8059(5) 0.7784(3)
H1_2 H 0.0951 0.8396 0.7782
C2_2 C 0.2315(5) 0.8845(5) 0.7343(3)
H2_2 H 0.2976 0.8526 0.7327
H3_2 H 0.2366 0.9524 0.7655
C3_2 C 0.1914(4) 0.9074(4) 0.6442(3)
H4_2 H 0.1247 0.9395 0.6468
C4_2 C 0.1838(4) 0.7995(5) 0.5942(3)
H5_2 H 0.2498 0.7685 0.5893
H6_2 H 0.1566 0.8141 0.5380
C5_2 C 0.1162(4) 0.7172(4) 0.6385(3)
H7_2 H 0.0482 0.7465 0.6384
C6_2 C 0.1524(5) 0.6977(5) 0.7298(3)
H8_2 H 0.2168 0.6617 0.7305
H9_2 H 0.1059 0.6500 0.7572
C7_2 C 0.1930(5) 0.7814(5) 0.8688(3)
O1_2 O 0.1333(4) 0.7259(4) 0.9102(3)
O2_2 O 0.2753(3) 0.8152(4) 0.8976(3)
C8_2 C 0.2569(4) 0.9840(5) 0.5968(3)
O4_2 O 0.3502(3) 0.9732(4) 0.6006(3)
C9_2 C 0.1149(4) 0.6107(5) 0.5904(3)
O5_2 O 0.0375(3) 0.5799(4) 0.5495(3)
O6_2 O 0.1914(3) 0.5522(4) 0.5903(3)
Er2_2 Er 0.377707(17) 0.90014(2) 0.989005(14)
Er4_2 Er 0.122293(17) 0.40014(2) 0.510995(14)
O10_2 O 0.2823(3) 0.5563(4) 0.9508(3)
O11_2 O 0.1498(3) 0.4732(4) 0.8994(3)
H10_2 H 0.00045299 0.810447 0.999431
O13_2 O 0.9625(3) 0.5799(4) 0.9505(3)
O11_3 O 0.6498(3) 0.0268(4) 0.3994(3)
C1_3 C 0.6613(4) 0.6941(5) 0.2784(3)
H1_3 H 0.5951 0.6604 0.2782
C2_3 C 0.7315(5) 0.6155(5) 0.2343(3)
H2_3 H 0.7976 0.6474 0.2327
H3_3 H 0.7366 0.5476 0.2655
C3_3 C 0.6914(4) 0.5926(4) 0.1442(3)
H4_3 H 0.6247 0.5605 0.1468
C4_3 C 0.6838(4) 0.7005(5) 0.0942(3)
H5_3 H 0.7498 0.7315 0.0893
H6_3 H 0.6566 0.6859 0.0380
C5_3 C 0.6162(4) 0.7828(4) 0.1385(3)
H7_3 H 0.5482 0.7535 0.1384
C6_3 C 0.6524(5) 0.8023(5) 0.2298(3)
H8_3 H 0.7168 0.8383 0.2305
H9_3 H 0.6059 0.8500 0.2572
C7_3 C 0.6930(5) 0.7186(5) 0.3688(3)
O1_3 O 0.6333(4) 0.7741(4) 0.4102(3)
O2_3 O 0.7753(3) 0.6848(4) 0.3976(3)
C8_3 C 0.7569(4) 0.5160(5) 0.0968(3)
O3_3 O 0.7177(3) 0.4437(4) 0.0492(3)
O4_3 O 0.8502(3) 0.5268(4) 0.1006(3)
C9_3 C 0.6149(4) 0.8893(5) 0.0904(3)
O7_3 O 0.5545(9) 0.7078(9) 0.5414(8)
O8_3 O 0.5240(5) 0.8692(9) 0.6266(6)
O9_3 O 0.7247(3) 0.8152(4) 0.6024(3)
O10_3 O 0.7823(3) 0.9437(4) 0.4508(3)
O13_3 O 0.4625(3) 0.9201(4) 0.4505(3)
H10_3 H 0.500453 0.689553 0.499431
H11_3 H 0.52773 0.70616 0.598701
H12_2 H 0.453674 0.857656 0.606976
H13_3 H 0.527967 0.933424 0.664654
C1_4 C 0.1613(4) 0.1941(5) 0.2784(3)
H1_4 H 0.0951 0.1604 0.2782
C2_4 C 0.2315(5) 0.1155(5) 0.2343(3)
H2_4 H 0.2976 0.1474 0.2327
H3_4 H 0.2366 0.0476 0.2655
C3_4 C 0.1914(4) 0.0926(4) 0.1442(3)
H4_4 H 0.1247 0.0605 0.1468
C4_4 C 0.1838(4) 0.2005(5) 0.0942(3)
H5_4 H 0.2498 0.2315 0.0893
H6_4 H 0.1566 0.1859 0.0380
C5_4 C 0.1162(4) 0.2828(4) 0.1385(3)
H7_4 H 0.0482 0.2535 0.1384
C6_4 C 0.1524(5) 0.3023(5) 0.2298(3)
H8_4 H 0.2168 0.3383 0.2305
H9_4 H 0.1059 0.3500 0.2572
C7_4 C 0.1930(5) 0.2186(5) 0.3688(3)
O1_4 O 0.1333(4) 0.2741(4) 0.4102(3)
O2_4 O 0.2753(3) 0.1848(4) 0.3976(3)
C8_4 C 0.2569(4) 0.0160(5) 0.0968(3)
O4_4 O 0.3502(3) 0.0268(4) 0.1006(3)
C9_4 C 0.1149(4) 0.3893(5) 0.0904(3)
O7_4 O 0.0545(9) 0.2078(9) 0.5414(8)
O8_4 O 0.0240(5) 0.3692(9) 0.6266(6)
O9_4 O 0.2247(3) 0.3152(4) 0.6024(3)
O10_4 O 0.2823(3) 0.4437(4) 0.4508(3)
O11_4 O 0.1498(3) 0.5268(4) 0.3994(3)
H10_4 H 0.00045299 0.189553 0.499431
H11_4 H 0.0277296 0.20616 0.598701
H13_4 H 0.0279668 0.433424 0.664654
O3_4 O 0.2177(3) 0.9437(4) 0.0492(3)
O13_4 O 0.9625(3) 0.4201(4) 0.4505(3)
H12_3 H 0.953674 0.357656 0.606976
O14_3 O 0.3086(3) 0.0522(4) 0.9097(3)
C1_5 C 0.3387(4) 0.6941(5) 0.2216(3)
H1_5 H 0.4049 0.6604 0.2218
C2_5 C 0.2685(5) 0.6155(5) 0.2657(3)
H2_5 H 0.2024 0.6474 0.2673
H3_5 H 0.2634 0.5476 0.2345
C3_5 C 0.3086(4) 0.5926(4) 0.3558(3)
H4_5 H 0.3753 0.5605 0.3532
C4_5 C 0.3162(4) 0.7005(5) 0.4058(3)
H5_5 H 0.2502 0.7315 0.4107
H6_5 H 0.3434 0.6859 0.4620
C5_5 C 0.3838(4) 0.7828(4) 0.3615(3)
H7_5 H 0.4518 0.7535 0.3616
C6_5 C 0.3476(5) 0.8023(5) 0.2702(3)
H8_5 H 0.2832 0.8383 0.2695
H9_5 H 0.3941 0.8500 0.2428
C7_5 C 0.3070(5) 0.7186(5) 0.1312(3)
O1_5 O 0.3667(4) 0.7741(4) 0.0898(3)
C8_5 C 0.2431(4) 0.5160(5) 0.4032(3)
C9_5 C 0.3851(4) 0.8893(5) 0.4096(3)
O6_3 O 0.3086(3) 0.9478(4) 0.4097(3)
H10_5 H 0.499547 0.689553 0.000569073
O7_5 O 0.4455(9) 0.7078(9) 0.9586(8)
O8_5 O 0.4760(5) 0.8692(9) 0.8734(6)
H11_5 H 0.47227 0.70616 0.901299
H12_4 H 0.546326 0.857656 0.893024
H13_5 H 0.472033 0.933424 0.835346
C1_6 C 0.8387(4) 0.1941(5) 0.2216(3)
H1_6 H 0.9049 0.1604 0.2218
C2_6 C 0.7685(5) 0.1155(5) 0.2657(3)
H2_6 H 0.7024 0.1474 0.2673
H3_6 H 0.7634 0.0476 0.2345
C3_6 C 0.8086(4) 0.0926(4) 0.3558(3)
H4_6 H 0.8753 0.0605 0.3532
C4_6 C 0.8162(4) 0.2005(5) 0.4058(3)
H5_6 H 0.7502 0.2315 0.4107
H6_6 H 0.8434 0.1859 0.4620
C5_6 C 0.8838(4) 0.2828(4) 0.3615(3)
H7_6 H 0.9518 0.2535 0.3616
C6_6 C 0.8476(5) 0.3023(5) 0.2702(3)
H8_6 H 0.7832 0.3383 0.2695
H9_6 H 0.8941 0.3500 0.2428
C7_6 C 0.8070(5) 0.2186(5) 0.1312(3)
O1_6 O 0.8667(4) 0.2741(4) 0.0898(3)
C8_6 C 0.7431(4) 0.0160(5) 0.4032(3)
C9_6 C 0.8851(4) 0.3893(5) 0.4096(3)
O6_4 O 0.8086(3) 0.4478(4) 0.4097(3)
H10_6 H 0.999547 0.189553 0.000569073
O7_6 O 0.9455(9) 0.2078(9) 0.9586(8)
O8_6 O 0.9760(5) 0.3692(9) 0.8734(6)
O14_4 O 0.8086(3) 0.5522(4) 0.9097(3)
H11_6 H 0.97227 0.20616 0.901299
H13_6 H 0.972033 0.433424 0.835346
C1_7 C 0.3387(4) 0.3059(5) 0.7216(3)
H1_7 H 0.4049 0.3396 0.7218
C2_7 C 0.2685(5) 0.3845(5) 0.7657(3)
H2_7 H 0.2024 0.3526 0.7673
H3_7 H 0.2634 0.4524 0.7345
C3_7 C 0.3086(4) 0.4074(4) 0.8558(3)
H4_7 H 0.3753 0.4395 0.8532
C4_7 C 0.3162(4) 0.2995(5) 0.9058(3)
H5_7 H 0.2502 0.2685 0.9107
H6_7 H 0.3434 0.3141 0.9620
C5_7 C 0.3838(4) 0.2172(4) 0.8615(3)
H7_7 H 0.4518 0.2465 0.8616
C6_7 C 0.3476(5) 0.1977(5) 0.7702(3)
H8_7 H 0.2832 0.1617 0.7695
H9_7 H 0.3941 0.1500 0.7428
C7_7 C 0.3070(5) 0.2814(5) 0.6312(3)
O1_7 O 0.3667(4) 0.2259(4) 0.5898(3)
C8_7 C 0.2431(4) 0.4840(5) 0.9032(3)
C9_7 C 0.3851(4) 0.1107(5) 0.9096(3)
O7_7 O 0.4455(9) 0.2922(9) 0.4586(8)
O8_7 O 0.4760(5) 0.1308(9) 0.3734(6)
H10_7 H 0.499547 0.310447 0.500569
H11_7 H 0.47227 0.29384 0.401299
H12_5 H 0.546326 0.142344 0.393024
H13_7 H 0.472033 0.0665759 0.335346
H12_6 H 0.0463256 0.642344 0.393024
C1_8 C 0.8387(4) 0.8059(5) 0.7216(3)
H1_8 H 0.9049 0.8396 0.7218
C2_8 C 0.7685(5) 0.8845(5) 0.7657(3)
H2_8 H 0.7024 0.8526 0.7673
H3_8 H 0.7634 0.9524 0.7345
C3_8 C 0.8086(4) 0.9074(4) 0.8558(3)
H4_8 H 0.8753 0.9395 0.8532
C4_8 C 0.8162(4) 0.7995(5) 0.9058(3)
H5_8 H 0.7502 0.7685 0.9107
H6_8 H 0.8434 0.8141 0.9620
C5_8 C 0.8838(4) 0.7172(4) 0.8615(3)
H7_8 H 0.9518 0.7465 0.8616
C6_8 C 0.8476(5) 0.6977(5) 0.7702(3)
H8_8 H 0.7832 0.6617 0.7695
H9_8 H 0.8941 0.6500 0.7428
C7_8 C 0.8070(5) 0.7814(5) 0.6312(3)
O1_8 O 0.8667(4) 0.7259(4) 0.5898(3)
C8_8 C 0.7431(4) 0.9840(5) 0.9032(3)
C9_8 C 0.8851(4) 0.6107(5) 0.9096(3)
O7_8 O 0.9455(9) 0.7922(9) 0.4586(8)
O8_8 O 0.9760(5) 0.6308(9) 0.3734(6)
H10_8 H 0.999547 0.810447 0.500569
H11_8 H 0.97227 0.79384 0.401299
H13_8 H 0.972033 0.566576 0.335346
H12_7 H 0.953674 0.642344 0.106976
H12_8 H 0.0463256 0.357656 0.893024
loop_
_geom_bond_atom_site_label_1
_geom_bond_atom_site_label_2
_geom_bond_site_symmetry_1
_geom_bond_site_symmetry_2
O7 Er1 1_555 1_555
O8 Er1 1_555 1_555
O9 Er1 1_555 1_555
O7 H11 1_555 1_555
O8 H12 1_555 1_555
O8 H13 1_555 1_555
C1 H1 1_555 1_555
C2 C1 1_555 1_555
H2 C2 1_555 1_555
H3 C2 1_555 1_555
C3 C2 1_555 1_555
H4 C3 1_555 1_555
C4 C3 1_555 1_555
H5 C4 1_555 1_555
H6 C4 1_555 1_555
C5 C4 1_555 1_555
H7 C5 1_555 1_555
C6 C1 1_555 1_555
H8 C6 1_555 1_555
H9 C6 1_555 1_555
C7 C1 1_555 1_555
O1 C7 1_555 1_555
O2 C7 1_555 1_555
C8 C3 1_555 1_555
O3 C8 1_555 1_555
O4 C8 1_555 1_555
C9 C5 1_555 1_555
O5 C9 1_555 1_555
O6 C9 1_555 1_555
Er2 O2 1_555 1_555
Er3 O3 1_555 1_555
Er5 O5 1_555 1_555
C5 C6 1_555 1_555
O4 Er3 1_555 1_555
Er5 O3_2 1_555 1_555
O7_2 Er1_2 1_555 1_555
O8_2 Er1_2 1_555 1_555
O9_2 Er1_2 1_555 1_555
O12_2 Er1_2 1_555 1_555
O14_2 Er1_2 1_555 1_555
O7_2 H11_2 1_555 1_555
O8_2 H13_2 1_555 1_555
C1_2 H1_2 1_555 1_555
C2_2 C1_2 1_555 1_555
H2_2 C2_2 1_555 1_555
H3_2 C2_2 1_555 1_555
C3_2 C2_2 1_555 1_555
H4_2 C3_2 1_555 1_555
C4_2 C3_2 1_555 1_555
H5_2 C4_2 1_555 1_555
H6_2 C4_2 1_555 1_555
C5_2 C4_2 1_555 1_555
H7_2 C5_2 1_555 1_555
C6_2 C1_2 1_555 1_555
H8_2 C6_2 1_555 1_555
H9_2 C6_2 1_555 1_555
C7_2 C1_2 1_555 1_555
O1_2 C7_2 1_555 1_555
O2_2 C7_2 1_555 1_555
C8_2 C3_2 1_555 1_555
O4_2 C8_2 1_555 1_555
C9_2 C5_2 1_555 1_555
O5_2 C9_2 1_555 1_555
O6_2 C9_2 1_555 1_555
Er2_2 O2_2 1_555 1_555
Er4_2 O5_2 1_555 1_555
C5_2 C6_2 1_555 1_555
O6_2 Er4_2 1_555 1_555
C1_3 H1_3 1_555 1_555
C2_3 C1_3 1_555 1_555
H2_3 C2_3 1_555 1_555
H3_3 C2_3 1_555 1_555
C3_3 C2_3 1_555 1_555
H4_3 C3_3 1_555 1_555
C4_3 C3_3 1_555 1_555
H5_3 C4_3 1_555 1_555
H6_3 C4_3 1_555 1_555
C5_3 C4_3 1_555 1_555
H7_3 C5_3 1_555 1_555
C6_3 C1_3 1_555 1_555
H8_3 C6_3 1_555 1_555
H9_3 C6_3 1_555 1_555
C7_3 C1_3 1_555 1_555
O1_3 C7_3 1_555 1_555
O2_3 C7_3 1_555 1_555
C8_3 C3_3 1_555 1_555
O3_3 C8_3 1_555 1_555
O4_3 C8_3 1_555 1_555
C9_3 C5_3 1_555 1_555
O12 C9_3 1_555 1_555
O14 C9_3 1_555 1_555
O7_3 Er4 1_555 1_555
O8_3 Er4 1_555 1_555
Er4 O1_3 1_555 1_555
Er3 O2_3 1_555 1_555
O9_3 Er4 1_555 1_555
O10_3 Er4 1_555 1_555
O13_3 Er4 1_555 1_555
C5_3 C6_3 1_555 1_555
O7_3 H10_3 1_555 1_555
O7_3 H11_3 1_555 1_555
O8_3 H12_2 1_555 1_555
O8_3 H13_3 1_555 1_555
C1_4 H1_4 1_555 1_555
C2_4 C1_4 1_555 1_555
H2_4 C2_4 1_555 1_555
H3_4 C2_4 1_555 1_555
C3_4 C2_4 1_555 1_555
H4_4 C3_4 1_555 1_555
C4_4 C3_4 1_555 1_555
H5_4 C4_4 1_555 1_555
H6_4 C4_4 1_555 1_555
C5_4 C4_4 1_555 1_555
H7_4 C5_4 1_555 1_555
C6_4 C1_4 1_555 1_555
H8_4 C6_4 1_555 1_555
H9_4 C6_4 1_555 1_555
C7_4 C1_4 1_555 1_555
O1_4 C7_4 1_555 1_555
O2_4 C7_4 1_555 1_555
C8_4 C3_4 1_555 1_555
O4_4 C8_4 1_555 1_555
C9_4 C5_4 1_555 1_555
O12_2 C9_4 1_555 1_555
O14_2 C9_4 1_555 1_555
O7_4 Er4_2 1_555 1_555
O8_4 Er4_2 1_555 1_555
Er4_2 O1_4 1_555 1_555
Er5 O2_4 1_555 1_555
O9_4 Er4_2 1_555 1_555
O10_4 Er4_2 1_555 1_555
O11_4 Er4_2 1_555 1_555
C5_4 C6_4 1_555 1_555
O7_4 H10_4 1_555 1_555
O7_4 H11_4 1_555 1_555
O8_4 H13_4 1_555 1_555
C1_5 H1_5 1_555 1_555
C2_5 C1_5 1_555 1_555
H2_5 C2_5 1_555 1_555
H3_5 C2_5 1_555 1_555
C3_5 C2_5 1_555 1_555
H4_5 C3_5 1_555 1_555
C4_5 C3_5 1_555 1_555
H5_5 C4_5 1_555 1_555
H6_5 C4_5 1_555 1_555
C5_5 C4_5 1_555 1_555
H7_5 C5_5 1_555 1_555
C6_5 C1_5 1_555 1_555
H8_5 C6_5 1_555 1_555
H9_5 C6_5 1_555 1_555
C7_5 C1_5 1_555 1_555
O1_5 C7_5 1_555 1_555
O9_2 C7_5 1_555 1_555
C8_5 C3_5 1_555 1_555
O10_4 C8_5 1_555 1_555
O11_4 C8_5 1_555 1_555
C9_5 C5_5 1_555 1_555
O13_3 C9_5 1_555 1_555
O6_3 C9_5 1_555 1_555
C5_5 C6_5 1_555 1_555
O7_5 Er2_2 1_555 1_555
O8_5 Er2_2 1_555 1_555
O7_5 H11_5 1_555 1_555
O8_5 H12_4 1_555 1_555
O8_5 H13_5 1_555 1_555
C1_6 H1_6 1_555 1_555
C2_6 C1_6 1_555 1_555
H2_6 C2_6 1_555 1_555
H3_6 C2_6 1_555 1_555
C3_6 C2_6 1_555 1_555
H4_6 C3_6 1_555 1_555
C4_6 C3_6 1_555 1_555
H5_6 C4_6 1_555 1_555
H6_6 C4_6 1_555 1_555
C5_6 C4_6 1_555 1_555
H7_6 C5_6 1_555 1_555
C6_6 C1_6 1_555 1_555
H8_6 C6_6 1_555 1_555
H9_6 C6_6 1_555 1_555
C7_6 C1_6 1_555 1_555
O1_6 C7_6 1_555 1_555
O9 C7_6 1_555 1_555
C8_6 C3_6 1_555 1_555
O11_3 C8_6 1_555 1_555
C9_6 C5_6 1_555 1_555
O13_4 C9_6 1_555 1_555
O6_4 C9_6 1_555 1_555
Er3 O13_4 1_555 1_555
C5_6 C6_6 1_555 1_555
O6_4 Er3 1_555 1_555
O7_6 Er2 1_555 1_555
O8_6 Er2 1_555 1_555
O13_2 Er2 1_555 1_555
O14_4 Er2 1_555 1_555
O7_6 H11_6 1_555 1_555
O8_6 H13_6 1_555 1_555
C1_7 H1_7 1_555 1_555
C2_7 C1_7 1_555 1_555
H2_7 C2_7 1_555 1_555
H3_7 C2_7 1_555 1_555
C3_7 C2_7 1_555 1_555
H4_7 C3_7 1_555 1_555
C4_7 C3_7 1_555 1_555
H5_7 C4_7 1_555 1_555
H6_7 C4_7 1_555 1_555
C5_7 C4_7 1_555 1_555
H7_7 C5_7 1_555 1_555
C6_7 C1_7 1_555 1_555
H8_7 C6_7 1_555 1_555
H9_7 C6_7 1_555 1_555
C7_7 C1_7 1_555 1_555
O1_7 C7_7 1_555 1_555
O9_4 C7_7 1_555 1_555
C8_7 C3_7 1_555 1_555
O10_2 C8_7 1_555 1_555
O11_2 C8_7 1_555 1_555
C9_7 C5_7 1_555 1_555
O13 C9_7 1_555 1_555
O14_3 C9_7 1_555 1_555
O7_7 Er5 1_555 1_555
O8_7 Er5 1_555 1_555
Er5 O1_7 1_555 1_555
C5_7 C6_7 1_555 1_555
O7_7 H10_7 1_555 1_555
O7_7 H11_7 1_555 1_555
O8_7 H12_5 1_555 1_555
O8_7 H13_7 1_555 1_555
C1_8 H1_8 1_555 1_555
C2_8 C1_8 1_555 1_555
H2_8 C2_8 1_555 1_555
H3_8 C2_8 1_555 1_555
C3_8 C2_8 1_555 1_555
H4_8 C3_8 1_555 1_555
C4_8 C3_8 1_555 1_555
H5_8 C4_8 1_555 1_555
H6_8 C4_8 1_555 1_555
C5_8 C4_8 1_555 1_555
H7_8 C5_8 1_555 1_555
C6_8 C1_8 1_555 1_555
H8_8 C6_8 1_555 1_555
H9_8 C6_8 1_555 1_555
C7_8 C1_8 1_555 1_555
O1_8 C7_8 1_555 1_555
O9_3 C7_8 1_555 1_555
C8_8 C3_8 1_555 1_555
O11 C8_8 1_555 1_555
C9_8 C5_8 1_555 1_555
O13_2 C9_8 1_555 1_555
O14_4 C9_8 1_555 1_555
O7_8 Er3 1_555 1_555
O8_8 Er3 1_555 1_555
Er3 O1_8 1_555 1_555
C5_8 C6_8 1_555 1_555
O7_8 H10_8 1_555 1_555
O7_8 H11_8 1_555 1_555
O8_8 H13_8 1_555 1_555

#END
