
###############################################################################
#
# This file contains modified crystal structure data generated from the
# MOF subset of the Cambridge Structural Database (CSD) v543 
# hosted by the Cambridge Crystallographic Data Centre (CCDC).
#
# This work is licensed under the Creative Commons
# Attribution-NonCommercial-ShareAlike 4.0 International License.
# To view a copy of this license, visit
# http://creativecommons.org/licenses/by-nc-sa/4.0/
# or send a letter to
# Creative Commons, PO Box 1866, Mountain View, CA 94042, USA.
#
# CIF created using the CSD Python API on 29 September 2022
# The structure has been converted into the P1 space group
# The structure has a 3D framework
# The original CSD entry WOJJOV is in the tetragonal crystal system
# The framework has been calculated to contain at least 10.0% void space
# The void calculation uses a probe of radius 1.32A, grid spacing 0.4
#
###############################################################################

data_WOJJOV
_chemical_formula_moiety         '(C96 H48 Al12 O40)n'
_symmetry_cell_setting           triclinic
_symmetry_space_group_name_H-M   'P 1'
_symmetry_Int_Tables_number      1
_space_group_name_Hall           'P 1'
loop_
_symmetry_equiv_pos_site_id
_symmetry_equiv_pos_as_xyz
1 x,y,z
_cell_length_a                   21.1012(7)
_cell_length_b                   21.1012(7)
_cell_length_c                   6.6095(4)
_cell_angle_alpha                90
_cell_angle_beta                 90
_cell_angle_gamma                90
_cell_volume                     2942.95
loop_
_atom_site_label
_atom_site_type_symbol
_atom_site_fract_x
_atom_site_fract_y
_atom_site_fract_z
_atom_site_U_iso_or_equiv
_atom_site_thermal_displace_type
Al1 Al 0.250 0.250 0.000 1.0000 Uiso
Al2 Al 0.250 0.250 0.500 1.0000 Uiso
O1 O 0.219(1) 0.281(1) 0.285(8) 4.5000 Uiso
C1 C 0.253(3) 0.139(3) 0.27(1) 4.5000 Uiso
O2 O 0.248(2) 0.171(2) 0.117(6) 4.5000 Uiso
O3 O 0.251(2) 0.165(2) 0.447(5) 4.5000 Uiso
C2 C 0.257(3) 0.068(3) 0.26(1) 4.5000 Uiso
C3 C 0.289(2) 0.034(2) 0.097(8) 4.5000 Uiso
C4 C 0.230(3) 0.034(3) 0.41(1) 4.5000 Uiso
H1 H 0.21(2) 0.06(3) 0.53(6) 5.9760 Uiso
O5 O 0.281(1) 0.219(1) 0.715(8) 4.5000 Uiso
O10 O 0.329(2) 0.252(2) 0.117(6) 4.5000 Uiso
O14 O 0.165(2) 0.251(2) 0.553(5) 4.5000 Uiso
O15 O 0.249(2) 0.335(2) 0.553(5) 4.5000 Uiso
O16 O 0.335(2) 0.249(2) 0.447(5) 4.5000 Uiso
C20 C 0.068(3) 0.322(2) 0.061(9) 4.5000 Uiso
C23 C 0.034(2) 0.350(2) 0.228(9) 4.5000 Uiso
H8 H 0.12(2) 0.322(2) 0.061(9) 5.9760 Uiso
H11 H 0.06(1) 0.37(2) 0.35(6) 5.9760 Uiso
Al1_2 Al 0.250 0.250 1.000 1.0000 Uiso
C5 C 0.322(2) 0.068(3) 0.939(9) 4.5000 Uiso
C6 C 0.350(2) 0.034(2) 0.772(9) 4.5000 Uiso
H2 H 0.322(2) 0.12(2) 0.939(9) 5.9760 Uiso
H3 H 0.37(2) 0.06(1) 0.65(6) 5.9760 Uiso
C8 C 0.139(3) 0.253(3) 0.73(1) 4.5000 Uiso
O7 O 0.171(2) 0.248(2) 0.883(6) 4.5000 Uiso
O9 O 0.252(2) 0.329(2) 0.883(6) 4.5000 Uiso
C11 C 0.068(3) 0.257(3) 0.74(1) 4.5000 Uiso
C14 C 0.034(2) 0.289(2) 0.903(8) 4.5000 Uiso
C17 C 0.034(3) 0.230(3) 0.59(1) 4.5000 Uiso
H5 H 0.06(3) 0.21(2) 0.47(6) 5.9760 Uiso
Al3 Al 0.250 0.750 0.000 1.0000 Uiso
Al5 Al 0.250 0.750 0.500 1.0000 Uiso
C7 C 0.253(3) 0.861(3) 0.27(1) 4.5000 Uiso
O6 O 0.248(2) 0.829(2) 0.117(6) 4.5000 Uiso
O11 O 0.251(2) 0.835(2) 0.447(5) 4.5000 Uiso
C10 C 0.257(3) 0.932(3) 0.26(1) 4.5000 Uiso
C13 C 0.289(2) 0.966(2) 0.097(8) 4.5000 Uiso
C16 C 0.230(3) 0.966(3) 0.41(1) 4.5000 Uiso
H4 H 0.21(2) 0.94(3) 0.53(6) 5.9760 Uiso
Al3_2 Al 0.250 0.750 1.000 1.0000 Uiso
C19 C 0.322(2) 0.932(3) 0.939(9) 4.5000 Uiso
C22 C 0.350(2) 0.966(2) 0.772(9) 4.5000 Uiso
H7 H 0.322(2) 0.88(2) 0.939(9) 5.9760 Uiso
H10 H 0.37(2) 0.94(1) 0.65(6) 5.9760 Uiso
Al4 Al 0.750 0.250 0.000 1.0000 Uiso
C21 C 0.932(3) 0.322(2) 0.061(9) 4.5000 Uiso
C24 C 0.966(2) 0.350(2) 0.228(9) 4.5000 Uiso
H9 H 0.88(2) 0.322(2) 0.061(9) 5.9760 Uiso
H12 H 0.94(1) 0.37(2) 0.35(6) 5.9760 Uiso
Al4_2 Al 0.750 0.250 1.000 1.0000 Uiso
Al7 Al 0.750 0.250 0.500 1.0000 Uiso
C9 C 0.861(3) 0.253(3) 0.73(1) 4.5000 Uiso
O8 O 0.829(2) 0.248(2) 0.883(6) 4.5000 Uiso
O13 O 0.835(2) 0.251(2) 0.553(5) 4.5000 Uiso
C12 C 0.932(3) 0.257(3) 0.74(1) 4.5000 Uiso
C15 C 0.966(2) 0.289(2) 0.903(8) 4.5000 Uiso
C18 C 0.966(3) 0.230(3) 0.59(1) 4.5000 Uiso
H6 H 0.94(3) 0.21(2) 0.47(6) 5.9760 Uiso
C21_2 C 0.068(3) 0.678(2) 0.061(9) 4.5000 Uiso
C24_2 C 0.034(2) 0.650(2) 0.228(9) 4.5000 Uiso
H9_2 H 0.12(2) 0.678(2) 0.061(9) 5.9760 Uiso
H12_2 H 0.06(1) 0.63(2) 0.35(6) 5.9760 Uiso
C9_2 C 0.139(3) 0.747(3) 0.73(1) 4.5000 Uiso
O8_2 O 0.171(2) 0.752(2) 0.883(6) 4.5000 Uiso
O13_2 O 0.165(2) 0.749(2) 0.553(5) 4.5000 Uiso
C12_2 C 0.068(3) 0.743(3) 0.74(1) 4.5000 Uiso
C15_2 C 0.034(2) 0.711(2) 0.903(8) 4.5000 Uiso
C18_2 C 0.034(3) 0.770(3) 0.59(1) 4.5000 Uiso
H6_2 H 0.06(3) 0.79(2) 0.47(6) 5.9760 Uiso
C7_2 C 0.747(3) 0.139(3) 0.27(1) 4.5000 Uiso
O6_2 O 0.752(2) 0.171(2) 0.117(6) 4.5000 Uiso
O11_2 O 0.749(2) 0.165(2) 0.447(5) 4.5000 Uiso
C10_2 C 0.743(3) 0.068(3) 0.26(1) 4.5000 Uiso
C13_2 C 0.711(2) 0.034(2) 0.097(8) 4.5000 Uiso
C16_2 C 0.770(3) 0.034(3) 0.41(1) 4.5000 Uiso
H4_2 H 0.79(2) 0.06(3) 0.53(6) 5.9760 Uiso
C19_2 C 0.678(2) 0.068(3) 0.939(9) 4.5000 Uiso
C22_2 C 0.650(2) 0.034(2) 0.772(9) 4.5000 Uiso
H7_2 H 0.678(2) 0.12(2) 0.939(9) 5.9760 Uiso
H10_2 H 0.63(2) 0.06(1) 0.65(6) 5.9760 Uiso
Al1_3 Al 0.750 0.750 0.000 1.0000 Uiso
Al2_2 Al 0.750 0.750 0.500 1.0000 Uiso
O1_2 O 0.781(1) 0.719(1) 0.285(8) 4.5000 Uiso
C1_2 C 0.747(3) 0.861(3) 0.27(1) 4.5000 Uiso
O2_2 O 0.752(2) 0.829(2) 0.117(6) 4.5000 Uiso
O3_2 O 0.749(2) 0.835(2) 0.447(5) 4.5000 Uiso
C2_2 C 0.743(3) 0.932(3) 0.26(1) 4.5000 Uiso
C3_2 C 0.711(2) 0.966(2) 0.097(8) 4.5000 Uiso
C4_2 C 0.770(3) 0.966(3) 0.41(1) 4.5000 Uiso
H1_2 H 0.79(2) 0.94(3) 0.53(6) 5.9760 Uiso
O5_2 O 0.719(1) 0.781(1) 0.715(8) 4.5000 Uiso
O10_2 O 0.671(2) 0.748(2) 0.117(6) 4.5000 Uiso
O14_2 O 0.835(2) 0.749(2) 0.553(5) 4.5000 Uiso
O15_2 O 0.751(2) 0.665(2) 0.553(5) 4.5000 Uiso
O16_2 O 0.665(2) 0.751(2) 0.447(5) 4.5000 Uiso
C20_2 C 0.932(3) 0.678(2) 0.061(9) 4.5000 Uiso
C23_2 C 0.966(2) 0.650(2) 0.228(9) 4.5000 Uiso
H8_2 H 0.88(2) 0.678(2) 0.061(9) 5.9760 Uiso
H11_2 H 0.94(1) 0.63(2) 0.35(6) 5.9760 Uiso
Al1_4 Al 0.750 0.750 1.000 1.0000 Uiso
C5_2 C 0.678(2) 0.932(3) 0.939(9) 4.5000 Uiso
C6_2 C 0.650(2) 0.966(2) 0.772(9) 4.5000 Uiso
H2_2 H 0.678(2) 0.88(2) 0.939(9) 5.9760 Uiso
H3_2 H 0.63(2) 0.94(1) 0.65(6) 5.9760 Uiso
C8_2 C 0.861(3) 0.747(3) 0.73(1) 4.5000 Uiso
O7_2 O 0.829(2) 0.752(2) 0.883(6) 4.5000 Uiso
O9_2 O 0.748(2) 0.671(2) 0.883(6) 4.5000 Uiso
C11_2 C 0.932(3) 0.743(3) 0.74(1) 4.5000 Uiso
C14_2 C 0.966(2) 0.711(2) 0.903(8) 4.5000 Uiso
C17_2 C 0.966(3) 0.770(3) 0.59(1) 4.5000 Uiso
H5_2 H 0.94(3) 0.79(2) 0.47(6) 5.9760 Uiso
O1_3 O 0.219(1) 0.719(1) 0.285(8) 4.5000 Uiso
C1_3 C 0.361(3) 0.753(3) 0.27(1) 4.5000 Uiso
O2_3 O 0.329(2) 0.748(2) 0.117(6) 4.5000 Uiso
O3_3 O 0.335(2) 0.751(2) 0.447(5) 4.5000 Uiso
C2_3 C 0.432(3) 0.757(3) 0.26(1) 4.5000 Uiso
C3_3 C 0.466(2) 0.789(2) 0.097(8) 4.5000 Uiso
C4_3 C 0.466(3) 0.730(3) 0.41(1) 4.5000 Uiso
H1_3 H 0.44(3) 0.71(2) 0.53(6) 5.9760 Uiso
O5_3 O 0.281(1) 0.781(1) 0.715(8) 4.5000 Uiso
C7_3 C 0.639(3) 0.753(3) 0.27(1) 4.5000 Uiso
O14_3 O 0.249(2) 0.665(2) 0.553(5) 4.5000 Uiso
C10_3 C 0.568(3) 0.757(3) 0.26(1) 4.5000 Uiso
C13_3 C 0.534(2) 0.789(2) 0.097(8) 4.5000 Uiso
C16_3 C 0.534(3) 0.730(3) 0.41(1) 4.5000 Uiso
C20_3 C 0.178(2) 0.568(3) 0.061(9) 4.5000 Uiso
C21_3 C 0.178(2) 0.432(3) 0.061(9) 4.5000 Uiso
C23_3 C 0.150(2) 0.534(2) 0.228(9) 4.5000 Uiso
C24_3 C 0.150(2) 0.466(2) 0.228(9) 4.5000 Uiso
H4_3 H 0.56(3) 0.71(2) 0.53(6) 5.9760 Uiso
H8_3 H 0.178(2) 0.62(2) 0.061(9) 5.9760 Uiso
H9_3 H 0.178(2) 0.38(2) 0.061(9) 5.9760 Uiso
H11_3 H 0.13(2) 0.56(1) 0.35(6) 5.9760 Uiso
H12_3 H 0.13(2) 0.44(1) 0.35(6) 5.9760 Uiso
C5_3 C 0.432(3) 0.822(2) 0.939(9) 4.5000 Uiso
C6_3 C 0.466(2) 0.850(2) 0.772(9) 4.5000 Uiso
H2_3 H 0.38(2) 0.822(2) 0.939(9) 5.9760 Uiso
H3_3 H 0.44(1) 0.87(2) 0.65(6) 5.9760 Uiso
C8_3 C 0.247(3) 0.639(3) 0.73(1) 4.5000 Uiso
C9_3 C 0.247(3) 0.361(3) 0.73(1) 4.5000 Uiso
O7_3 O 0.252(2) 0.671(2) 0.883(6) 4.5000 Uiso
C11_3 C 0.243(3) 0.568(3) 0.74(1) 4.5000 Uiso
C12_3 C 0.243(3) 0.432(3) 0.74(1) 4.5000 Uiso
C14_3 C 0.211(2) 0.534(2) 0.903(8) 4.5000 Uiso
C15_3 C 0.211(2) 0.466(2) 0.903(8) 4.5000 Uiso
C17_3 C 0.270(3) 0.534(3) 0.59(1) 4.5000 Uiso
C18_3 C 0.270(3) 0.466(3) 0.59(1) 4.5000 Uiso
C19_3 C 0.568(3) 0.822(2) 0.939(9) 4.5000 Uiso
C22_3 C 0.534(2) 0.850(2) 0.772(9) 4.5000 Uiso
H5_3 H 0.29(2) 0.56(3) 0.47(6) 5.9760 Uiso
H6_3 H 0.29(2) 0.44(3) 0.47(6) 5.9760 Uiso
H7_3 H 0.62(2) 0.822(2) 0.939(9) 5.9760 Uiso
H10_3 H 0.56(1) 0.87(2) 0.65(6) 5.9760 Uiso
O1_4 O 0.781(1) 0.281(1) 0.285(8) 4.5000 Uiso
C1_4 C 0.639(3) 0.247(3) 0.27(1) 4.5000 Uiso
O2_4 O 0.671(2) 0.252(2) 0.117(6) 4.5000 Uiso
O3_4 O 0.665(2) 0.249(2) 0.447(5) 4.5000 Uiso
C2_4 C 0.568(3) 0.243(3) 0.26(1) 4.5000 Uiso
C3_4 C 0.534(2) 0.211(2) 0.097(8) 4.5000 Uiso
C4_4 C 0.534(3) 0.270(3) 0.41(1) 4.5000 Uiso
H1_4 H 0.56(3) 0.29(2) 0.53(6) 5.9760 Uiso
O5_4 O 0.719(1) 0.219(1) 0.715(8) 4.5000 Uiso
C7_4 C 0.361(3) 0.247(3) 0.27(1) 4.5000 Uiso
O14_4 O 0.751(2) 0.335(2) 0.553(5) 4.5000 Uiso
C10_4 C 0.432(3) 0.243(3) 0.26(1) 4.5000 Uiso
C13_4 C 0.466(2) 0.211(2) 0.097(8) 4.5000 Uiso
C16_4 C 0.466(3) 0.270(3) 0.41(1) 4.5000 Uiso
C20_4 C 0.822(2) 0.432(3) 0.061(9) 4.5000 Uiso
C21_4 C 0.822(2) 0.568(3) 0.061(9) 4.5000 Uiso
C23_4 C 0.850(2) 0.466(2) 0.228(9) 4.5000 Uiso
C24_4 C 0.850(2) 0.534(2) 0.228(9) 4.5000 Uiso
H4_4 H 0.44(3) 0.29(2) 0.53(6) 5.9760 Uiso
H8_4 H 0.822(2) 0.38(2) 0.061(9) 5.9760 Uiso
H9_4 H 0.822(2) 0.62(2) 0.061(9) 5.9760 Uiso
H11_4 H 0.87(2) 0.44(1) 0.35(6) 5.9760 Uiso
H12_4 H 0.87(2) 0.56(1) 0.35(6) 5.9760 Uiso
C5_4 C 0.568(3) 0.178(2) 0.939(9) 4.5000 Uiso
C6_4 C 0.534(2) 0.150(2) 0.772(9) 4.5000 Uiso
H2_4 H 0.62(2) 0.178(2) 0.939(9) 5.9760 Uiso
H3_4 H 0.56(1) 0.13(2) 0.65(6) 5.9760 Uiso
C8_4 C 0.753(3) 0.361(3) 0.73(1) 4.5000 Uiso
C9_4 C 0.753(3) 0.639(3) 0.73(1) 4.5000 Uiso
O7_4 O 0.748(2) 0.329(2) 0.883(6) 4.5000 Uiso
C11_4 C 0.757(3) 0.432(3) 0.74(1) 4.5000 Uiso
C12_4 C 0.757(3) 0.568(3) 0.74(1) 4.5000 Uiso
C14_4 C 0.789(2) 0.466(2) 0.903(8) 4.5000 Uiso
C15_4 C 0.789(2) 0.534(2) 0.903(8) 4.5000 Uiso
C17_4 C 0.730(3) 0.466(3) 0.59(1) 4.5000 Uiso
C18_4 C 0.730(3) 0.534(3) 0.59(1) 4.5000 Uiso
C19_4 C 0.432(3) 0.178(2) 0.939(9) 4.5000 Uiso
C22_4 C 0.466(2) 0.150(2) 0.772(9) 4.5000 Uiso
H5_4 H 0.71(2) 0.44(3) 0.47(6) 5.9760 Uiso
H6_4 H 0.71(2) 0.56(3) 0.47(6) 5.9760 Uiso
H7_4 H 0.38(2) 0.178(2) 0.939(9) 5.9760 Uiso
H10_4 H 0.44(1) 0.13(2) 0.65(6) 5.9760 Uiso
loop_
_geom_bond_atom_site_label_1
_geom_bond_atom_site_label_2
_geom_bond_site_symmetry_1
_geom_bond_site_symmetry_2
Al1 O1 1_555 1_555
Al2 O1 1_555 1_555
C1 O2 1_555 1_555
O2 Al1 1_555 1_555
O3 Al2 1_555 1_555
C2 C1 1_555 1_555
C3 C2 1_555 1_555
C4 C2 1_555 1_555
H1 C4 1_555 1_555
O5 Al2 1_555 1_555
O10 Al1 1_555 1_555
O14 Al2 1_555 1_555
O15 Al2 1_555 1_555
O16 Al2 1_555 1_555
C23 C20 1_555 1_555
H8 C20 1_555 1_555
H11 C23 1_555 1_555
C1 O3 1_555 1_555
C6 C5 1_555 1_555
H2 C5 1_555 1_555
H3 C6 1_555 1_555
O5 Al1_2 1_555 1_555
C8 O7 1_555 1_555
O7 Al1_2 1_555 1_555
O9 Al1_2 1_555 1_555
C11 C8 1_555 1_555
C14 C11 1_555 1_555
C17 C11 1_555 1_555
H5 C17 1_555 1_555
C8 O14 1_555 1_555
Al3 O6 1_555 1_555
Al5 O11 1_555 1_555
C7 O6 1_555 1_555
O11 C7 1_555 1_555
C10 C7 1_555 1_555
H4 C16 1_555 1_555
C10 C13 1_555 1_555
C10 C16 1_555 1_555
H7 C19 1_555 1_555
H10 C22 1_555 1_555
C19 C22 1_555 1_555
C24 C21 1_555 1_555
H9 C21 1_555 1_555
H12 C24 1_555 1_555
Al4_2 O8 1_555 1_555
Al7 O13 1_555 1_555
C9 O8 1_555 1_555
O13 C9 1_555 1_555
C12 C9 1_555 1_555
C15 C12 1_555 1_555
C18 C12 1_555 1_555
H6 C18 1_555 1_555
C24_2 C21_2 1_555 1_555
H9_2 C21_2 1_555 1_555
H12_2 C24_2 1_555 1_555
Al3_2 O8_2 1_555 1_555
Al5 O13_2 1_555 1_555
C9_2 O8_2 1_555 1_555
O13_2 C9_2 1_555 1_555
C12_2 C9_2 1_555 1_555
C15_2 C12_2 1_555 1_555
C18_2 C12_2 1_555 1_555
H6_2 C18_2 1_555 1_555
Al4 O6_2 1_555 1_555
Al7 O11_2 1_555 1_555
C7_2 O6_2 1_555 1_555
O11_2 C7_2 1_555 1_555
C10_2 C7_2 1_555 1_555
H4_2 C16_2 1_555 1_555
C10_2 C13_2 1_555 1_555
C10_2 C16_2 1_555 1_555
H7_2 C19_2 1_555 1_555
H10_2 C22_2 1_555 1_555
C19_2 C22_2 1_555 1_555
Al1_3 O1_2 1_555 1_555
Al2_2 O1_2 1_555 1_555
C1_2 O2_2 1_555 1_555
O2_2 Al1_3 1_555 1_555
O3_2 Al2_2 1_555 1_555
C2_2 C1_2 1_555 1_555
C3_2 C2_2 1_555 1_555
C4_2 C2_2 1_555 1_555
H1_2 C4_2 1_555 1_555
O5_2 Al2_2 1_555 1_555
O10_2 Al1_3 1_555 1_555
O14_2 Al2_2 1_555 1_555
O15_2 Al2_2 1_555 1_555
O16_2 Al2_2 1_555 1_555
C23_2 C20_2 1_555 1_555
H8_2 C20_2 1_555 1_555
H11_2 C23_2 1_555 1_555
C1_2 O3_2 1_555 1_555
C6_2 C5_2 1_555 1_555
H2_2 C5_2 1_555 1_555
H3_2 C6_2 1_555 1_555
O5_2 Al1_4 1_555 1_555
C8_2 O7_2 1_555 1_555
O7_2 Al1_4 1_555 1_555
O9_2 Al1_4 1_555 1_555
C11_2 C8_2 1_555 1_555
C14_2 C11_2 1_555 1_555
C17_2 C11_2 1_555 1_555
H5_2 C17_2 1_555 1_555
C8_2 O14_2 1_555 1_555
Al3 O1_3 1_555 1_555
Al5 O1_3 1_555 1_555
C1_3 O2_3 1_555 1_555
O2_3 Al3 1_555 1_555
O3_3 Al5 1_555 1_555
C2_3 C1_3 1_555 1_555
C3_3 C2_3 1_555 1_555
C4_3 C2_3 1_555 1_555
H1_3 C4_3 1_555 1_555
O5_3 Al5 1_555 1_555
C7_3 O10_2 1_555 1_555
O16_2 C7_3 1_555 1_555
O14_3 Al5 1_555 1_555
C10_3 C7_3 1_555 1_555
C13_3 C3_3 1_555 1_555
C16_3 C4_3 1_555 1_555
C23_3 C20_3 1_555 1_555
C24_3 C21_3 1_555 1_555
H4_3 C16_3 1_555 1_555
H8_3 C20_3 1_555 1_555
H9_3 C21_3 1_555 1_555
H11_3 C23_3 1_555 1_555
H12_3 C24_3 1_555 1_555
C1_3 O3_3 1_555 1_555
C10_3 C13_3 1_555 1_555
C10_3 C16_3 1_555 1_555
C23_3 C24_3 1_555 1_555
C6_3 C5_3 1_555 1_555
H2_3 C5_3 1_555 1_555
H3_3 C6_3 1_555 1_555
O5_3 Al3_2 1_555 1_555
C8_3 O7_3 1_555 1_555
C9_3 O9 1_555 1_555
O7_3 Al3_2 1_555 1_555
O15 C9_3 1_555 1_555
C11_3 C8_3 1_555 1_555
C12_3 C9_3 1_555 1_555
C14_3 C11_3 1_555 1_555
C15_3 C12_3 1_555 1_555
C17_3 C11_3 1_555 1_555
C18_3 C12_3 1_555 1_555
C22_3 C6_3 1_555 1_555
H5_3 C17_3 1_555 1_555
H6_3 C18_3 1_555 1_555
H7_3 C19_3 1_555 1_555
H10_3 C22_3 1_555 1_555
C8_3 O14_3 1_555 1_555
C14_3 C15_3 1_555 1_555
C17_3 C18_3 1_555 1_555
C19_3 C22_3 1_555 1_555
Al4 O1_4 1_555 1_555
Al7 O1_4 1_555 1_555
C1_4 O2_4 1_555 1_555
O2_4 Al4 1_555 1_555
O3_4 Al7 1_555 1_555
C2_4 C1_4 1_555 1_555
C3_4 C2_4 1_555 1_555
C4_4 C2_4 1_555 1_555
H1_4 C4_4 1_555 1_555
O5_4 Al7 1_555 1_555
C7_4 O10 1_555 1_555
O16 C7_4 1_555 1_555
O14_4 Al7 1_555 1_555
C10_4 C7_4 1_555 1_555
C13_4 C3_4 1_555 1_555
C16_4 C4_4 1_555 1_555
C23_4 C20_4 1_555 1_555
C24_4 C21_4 1_555 1_555
H4_4 C16_4 1_555 1_555
H8_4 C20_4 1_555 1_555
H9_4 C21_4 1_555 1_555
H11_4 C23_4 1_555 1_555
H12_4 C24_4 1_555 1_555
C1_4 O3_4 1_555 1_555
C10_4 C13_4 1_555 1_555
C10_4 C16_4 1_555 1_555
C23_4 C24_4 1_555 1_555
C6_4 C5_4 1_555 1_555
H2_4 C5_4 1_555 1_555
H3_4 C6_4 1_555 1_555
O5_4 Al4_2 1_555 1_555
C8_4 O7_4 1_555 1_555
C9_4 O9_2 1_555 1_555
O7_4 Al4_2 1_555 1_555
O15_2 C9_4 1_555 1_555
C11_4 C8_4 1_555 1_555
C12_4 C9_4 1_555 1_555
C14_4 C11_4 1_555 1_555
C15_4 C12_4 1_555 1_555
C17_4 C11_4 1_555 1_555
C18_4 C12_4 1_555 1_555
C22_4 C6_4 1_555 1_555
H5_4 C17_4 1_555 1_555
H6_4 C18_4 1_555 1_555
H7_4 C19_4 1_555 1_555
H10_4 C22_4 1_555 1_555
C8_4 O14_4 1_555 1_555
C14_4 C15_4 1_555 1_555
C17_4 C18_4 1_555 1_555
C19_4 C22_4 1_555 1_555

#END
