
###############################################################################
#
# This file contains modified crystal structure data generated from the
# MOF subset of the Cambridge Structural Database (CSD) v543 
# hosted by the Cambridge Crystallographic Data Centre (CCDC).
#
# This work is licensed under the Creative Commons
# Attribution-NonCommercial-ShareAlike 4.0 International License.
# To view a copy of this license, visit
# http://creativecommons.org/licenses/by-nc-sa/4.0/
# or send a letter to
# Creative Commons, PO Box 1866, Mountain View, CA 94042, USA.
#
# CIF created using the CSD Python API on 29 September 2022
# The structure has been converted into the P1 space group
# The structure has a 3D framework
# The original CSD entry WOJVAV is in the monoclinic crystal system
# The framework has been calculated to contain at least 10.0% void space
# The void calculation uses a probe of radius 1.32A, grid spacing 0.4
#
###############################################################################

data_WOJVAV
_chemical_formula_moiety         '(C256 H190 Co38 N24 O154)n'
_symmetry_cell_setting           triclinic
_symmetry_space_group_name_H-M   'P 1'
_symmetry_Int_Tables_number      1
_space_group_name_Hall           'P 1'
loop_
_symmetry_equiv_pos_site_id
_symmetry_equiv_pos_as_xyz
1 x,y,z
_cell_length_a                   35.4961(19)
_cell_length_b                   11.1880(5)
_cell_length_c                   21.9119(16)
_cell_angle_alpha                90
_cell_angle_beta                 94.224(11)
_cell_angle_gamma                90
_cell_volume                     8678.24
loop_
_atom_site_label
_atom_site_type_symbol
_atom_site_fract_x
_atom_site_fract_y
_atom_site_fract_z
O24 O 0.6095(9) 0.036(3) 0.4410(14)
Co1 Co 0.4287(2) 0.7525(6) 0.0055(4)
Co2 Co 0.3725(2) 0.4367(6) 0.1296(4)
Co3 Co 0.32595(19) 0.5729(6) 0.2374(4)
Co4 Co 0.59843(19) 0.7186(6) 0.3226(4)
Co5 Co 0.6400(2) 0.8841(7) 0.4366(5)
O1 O 0.6051(7) 0.750(2) 0.4204(12)
H1 H 0.621282 0.666060 0.414929
O2 O 0.3554(8) 0.590(2) 0.1606(13)
H2 H 0.332980 0.597960 0.144060
O4 O 0.3905(9) 0.036(3) 0.0590(14)
O5 O 0.3563(8) 0.296(3) 0.1774(13)
O6 O 0.3155(8) 0.397(3) 0.2289(13)
O7 O 0.8105(9) 0.569(3) 0.5911(14)
O8 O 0.8034(9) 0.765(3) 0.5841(15)
O9 O 0.6215(9) 0.725(2) 0.5499(12)
O10 O 0.6618(9) 0.856(3) 0.5217(17)
O11 O 0.5839(8) 0.669(3) 0.2319(14)
O12 O 0.6223(8) 0.525(2) 0.2160(12)
O13 O 0.4465(8) 0.609(3) 0.1568(13)
O14 O 0.4283(9) 0.419(3) 0.1600(13)
O15 O 0.3896(9) 0.493(3) 0.0456(14)
O16 O 0.4395(9) 0.580(3) 0.0005(15)
O17 O 0.5587(9) 0.861(3) 0.3150(15)
O18 O 0.3153(8) 0.419(3) 0.0742(14)
N1 N 0.2318(8) 0.072(3) 0.3186(15)
H3 H 0.232356 0.135299 0.343505
H4 H 0.232682 0.007394 0.342162
N3 N 0.5469(9) 0.226(3) 0.0868(14)
H7 H 0.525991 0.181964 0.080683
H8 H 0.563271 0.182228 0.110061
N4 N 0.6929(9) 0.408(3) 0.6739(15)
H9 H 0.713512 0.362774 0.677739
H10 H 0.675369 0.366095 0.652337
C1 C 0.4172(16) 0.027(5) 0.024(3)
C3 C 0.4350(10) 0.364(2) 0.0075(13)
C4 C 0.4181(7) 0.257(3) 0.0232(12)
H12 H 0.396021 0.258476 0.043635
C5 C 0.4342(9) 0.149(2) 0.0085(13)
C8 C 0.4206(15) 0.485(4) 0.017(2)
C10 C 0.2824(10) 0.184(2) 0.2671(14)
H14 H 0.270755 0.254622 0.276973
C11 C 0.2676(7) 0.075(3) 0.2847(12)
C14 C 0.3321(7) 0.080(3) 0.2200(12)
H16 H 0.353692 0.081187 0.198346
C15 C 0.3147(10) 0.186(2) 0.2348(14)
C16 C 0.3305(15) 0.296(5) 0.212(2)
C17 C 0.4527(18) 0.507(7) 0.159(3)
C18 C 0.5582(9) 0.494(3) 0.1815(13)
C19 C 0.5208(11) 0.530(2) 0.1839(13)
H17 H 0.515186 0.599665 0.204828
C20 C 0.4919(7) 0.463(3) 0.1549(14)
C21 C 0.5003(10) 0.359(3) 0.1235(14)
H18 H 0.481003 0.314176 0.104144
C22 C 0.5377(12) 0.323(2) 0.1212(14)
C23 C 0.5666(7) 0.391(3) 0.1502(15)
H19 H 0.591603 0.366886 0.148650
C24 C 0.5886(15) 0.568(5) 0.209(2)
C25 C 0.6565(18) 0.774(6) 0.554(3)
C26 C 0.7217(12) 0.716(2) 0.5788(12)
H20 H 0.728365 0.786137 0.559450
C27 C 0.6840(9) 0.693(3) 0.5873(14)
C28 C 0.6741(7) 0.588(4) 0.6162(15)
H21 H 0.648853 0.572008 0.621909
C29 C 0.7018(11) 0.506(2) 0.6365(12)
C30 C 0.7395(9) 0.530(3) 0.6279(13)
H22 H 0.758116 0.475499 0.641512
C31 C 0.7495(7) 0.635(3) 0.5991(13)
C32 C 0.7914(15) 0.663(6) 0.596(2)
H23 H 0.557460 0.896560 0.350090
H24 H 0.536069 0.834049 0.308161
H25 H 0.316170 0.455920 0.038850
H26 H 0.298241 0.459169 0.090750
Co7 Co 0.5713(2) 0.7525(6) 0.4945(4)
Co10 Co 0.67405(19) 0.5729(6) 0.2626(4)
Co11 Co 0.17405(19) 0.0729(6) 0.2626(4)
Co12 Co 0.67405(19) 0.4271(6) 0.7626(4)
Co14 Co 0.40157(19) 0.7186(6) 0.1774(4)
Co16 Co 0.8600(2) 0.6159(7) 0.5634(5)
O21 O 0.3949(7) 0.750(2) 0.0796(12)
O22 O 0.6446(8) 0.590(2) 0.3394(13)
O23 O 0.4291(9) 0.936(4) 0.0011(15)
O25 O 0.6895(9) 0.931(3) 0.4089(14)
O27 O 0.3777(8) 0.525(2) 0.2840(12)
O28 O 0.5535(8) 0.609(3) 0.3432(13)
O29 O 0.6367(10) 0.859(3) 0.3046(15)
O30 O 0.3209(9) 0.756(3) 0.2442(14)
N5 N 0.2682(8) 0.572(3) 0.1814(15)
N6 N 0.4790(9) 0.763(3) 0.0631(15)
N8 N 0.3071(9) 0.592(3) 0.3261(15)
N2 N 0.5210(9) 0.237(3) 0.9369(15)
H5 H 0.522727 0.290436 0.907363
H6 H 0.520719 0.164996 0.919145
C2 C 0.4680(10) 0.362(2) 0.9771(13)
H11 H 0.479273 0.433311 0.966550
C6 C 0.4672(9) 0.147(2) 0.9780(13)
H13 H 0.477913 0.074185 0.968125
C7 C 0.4841(7) 0.253(3) 0.9623(13)
Co8 Co 0.5713(2) 0.2475(6) 0.9945(4)
O26 O 0.3785(9) 0.725(2) 0.9501(12)
N7 N 0.4531(9) 0.774(3) 0.9132(14)
O19 O 0.3633(10) 0.859(3) 0.1954(15)
C9 C 0.3360(15) 0.851(5) 0.228(2)
C12 C 0.2851(9) 0.969(2) 0.2699(13)
H15 H 0.275190 0.895822 0.281654
C13 C 0.3173(9) 0.971(2) 0.2376(13)
Co15 Co 0.3600(2) 0.8841(7) 0.0634(5)
Co2_2 Co 0.6275(2) 0.4367(6) 0.3704(4)
H1_2 H 0.378718 0.666060 0.085071
H2_2 H 0.667020 0.597960 0.355940
O5_2 O 0.6437(8) 0.296(3) 0.3226(13)
O6_2 O 0.6845(8) 0.397(3) 0.2711(13)
O11_2 O 0.4161(8) 0.669(3) 0.2681(14)
O14_2 O 0.5717(9) 0.419(3) 0.3400(13)
O15_2 O 0.6104(9) 0.493(3) 0.4544(14)
O16_2 O 0.5605(9) 0.580(3) 0.4995(15)
O17_2 O 0.4413(9) 0.861(3) 0.1850(15)
O18_2 O 0.6847(8) 0.419(3) 0.4258(14)
N1_2 N 0.7682(8) 0.072(3) 0.1814(15)
H3_2 H 0.767644 0.135299 0.156495
H4_2 H 0.767318 0.007394 0.157838
N2_2 N 0.4790(9) 0.237(3) 0.5631(15)
H5_2 H 0.477273 0.290436 0.592637
H6_2 H 0.479281 0.164996 0.580855
N3_2 N 0.4531(9) 0.226(3) 0.4132(14)
H7_2 H 0.474009 0.181964 0.419317
H8_2 H 0.436729 0.182228 0.389939
C1_2 C 0.5828(16) 0.027(5) 0.476(3)
C2_2 C 0.5320(10) 0.362(2) 0.5229(13)
H11_2 H 0.520727 0.433311 0.533450
C3_2 C 0.5650(10) 0.364(2) 0.4925(13)
C4_2 C 0.5819(7) 0.257(3) 0.4768(12)
H12_2 H 0.603979 0.258476 0.456365
C5_2 C 0.5658(9) 0.149(2) 0.4915(13)
C6_2 C 0.5328(9) 0.147(2) 0.5220(13)
H13_2 H 0.522087 0.074185 0.531875
C7_2 C 0.5159(7) 0.253(3) 0.5377(13)
C8_2 C 0.5794(15) 0.485(4) 0.483(2)
C10_2 C 0.7176(10) 0.184(2) 0.2329(14)
H14_2 H 0.729245 0.254622 0.223027
C11_2 C 0.7324(7) 0.075(3) 0.2153(12)
C14_2 C 0.6679(7) 0.080(3) 0.2800(12)
H16_2 H 0.646308 0.081187 0.301654
C15_2 C 0.6853(10) 0.186(2) 0.2652(14)
C16_2 C 0.6695(15) 0.296(5) 0.288(2)
C17_2 C 0.5473(18) 0.507(7) 0.341(3)
C18_2 C 0.4418(9) 0.494(3) 0.3185(13)
C19_2 C 0.4792(11) 0.530(2) 0.3161(13)
H17_2 H 0.484814 0.599665 0.295172
C20_2 C 0.5081(7) 0.463(3) 0.3451(14)
C21_2 C 0.4997(10) 0.359(3) 0.3765(14)
H18_2 H 0.518997 0.314176 0.395856
C22_2 C 0.4623(12) 0.323(2) 0.3788(14)
C23_2 C 0.4334(7) 0.391(3) 0.3498(15)
H19_2 H 0.408397 0.366886 0.351350
C24_2 C 0.4114(15) 0.568(5) 0.291(2)
H23_2 H 0.442540 0.896560 0.149910
H24_2 H 0.463931 0.834049 0.191839
H25_2 H 0.683830 0.455920 0.461150
H26_2 H 0.701759 0.459169 0.409250
Co8_2 Co 0.4287(2) 0.2475(6) 0.5055(4)
Co11_2 Co 0.82595(19) 0.0729(6) 0.2374(4)
O23_2 O 0.5709(9) 0.936(4) 0.4989(15)
O25_2 O 0.3105(9) 0.931(3) 0.0911(14)
O30_2 O 0.6791(9) 0.756(3) 0.2558(14)
N5_2 N 0.7318(8) 0.572(3) 0.3186(15)
N6_2 N 0.5210(9) 0.763(3) 0.4369(15)
N7_2 N 0.5469(9) 0.774(3) 0.5868(14)
N8_2 N 0.6929(9) 0.592(3) 0.1739(15)
O7_2 O 0.1895(9) 0.569(3) 0.9089(14)
O8_2 O 0.1966(9) 0.765(3) 0.9159(15)
O10_2 O 0.3382(9) 0.856(3) 0.9783(17)
N4_2 N 0.3071(9) 0.408(3) 0.8261(15)
H9_2 H 0.286488 0.362774 0.822261
H10_2 H 0.324631 0.366095 0.847663
C25_2 C 0.3435(18) 0.774(6) 0.946(3)
C26_2 C 0.2783(12) 0.716(2) 0.9212(12)
H20_2 H 0.271635 0.786137 0.940550
C27_2 C 0.3160(9) 0.693(3) 0.9127(14)
C28_2 C 0.3259(7) 0.588(4) 0.8838(15)
H21_2 H 0.351147 0.572008 0.878091
C29_2 C 0.2982(11) 0.506(2) 0.8635(12)
C30_2 C 0.2605(9) 0.530(3) 0.8721(13)
H22_2 H 0.241884 0.475499 0.858488
C31_2 C 0.2505(7) 0.635(3) 0.9009(13)
C32_2 C 0.2086(15) 0.663(6) 0.904(2)
Co12_2 Co 0.32595(19) 0.4271(6) 0.7374(4)
Co16_2 Co 0.1400(2) 0.6159(7) 0.9366(5)
C9_2 C 0.6640(15) 0.851(5) 0.272(2)
C12_2 C 0.7149(9) 0.969(2) 0.2301(13)
H15_2 H 0.724810 0.895822 0.218346
C13_2 C 0.6827(9) 0.971(2) 0.2624(13)
Co4_2 Co 0.09843(19) 0.2186(6) 0.3226(4)
Co5_2 Co 0.1400(2) 0.3841(7) 0.4366(5)
O1_2 O 0.1051(7) 0.250(2) 0.4204(12)
H1_3 H 0.121282 0.166060 0.414929
O7_3 O 0.3105(9) 0.069(3) 0.5911(14)
O8_3 O 0.3034(9) 0.265(3) 0.5841(15)
O9_2 O 0.1215(9) 0.225(2) 0.5499(12)
O10_3 O 0.1618(9) 0.356(3) 0.5217(17)
O11_3 O 0.0839(8) 0.169(3) 0.2319(14)
O12_2 O 0.1223(8) 0.025(2) 0.2160(12)
O17_3 O 0.0587(9) 0.361(3) 0.3150(15)
C19_3 C 0.0208(11) 0.030(2) 0.1839(13)
H17_3 H 0.015186 0.099665 0.204828
C24_3 C 0.0886(15) 0.068(5) 0.209(2)
C25_3 C 0.1565(18) 0.274(6) 0.554(3)
C26_3 C 0.2217(12) 0.216(2) 0.5788(12)
H20_3 H 0.228365 0.286137 0.559450
C27_3 C 0.1840(9) 0.193(3) 0.5873(14)
C28_3 C 0.1741(7) 0.088(4) 0.6162(15)
H21_3 H 0.148853 0.072008 0.621909
C29_3 C 0.2018(11) 0.006(2) 0.6365(12)
C30_3 C 0.2395(9) 0.030(3) 0.6279(13)
C31_3 C 0.2495(7) 0.135(3) 0.5991(13)
C32_3 C 0.2914(15) 0.163(6) 0.596(2)
H23_3 H 0.057460 0.396560 0.350090
H24_3 H 0.036069 0.334049 0.308161
Co7_2 Co 0.0713(2) 0.2525(6) 0.4945(4)
Co16_3 Co 0.3600(2) 0.1159(7) 0.5634(5)
O22_2 O 0.1446(8) 0.090(2) 0.3394(13)
O24_2 O 0.1095(9) 0.536(3) 0.4410(14)
O25_3 O 0.1895(9) 0.431(3) 0.4089(14)
O28_2 O 0.0535(8) 0.109(3) 0.3432(13)
O29_2 O 0.1367(10) 0.359(3) 0.3046(15)
N3_3 N 0.0469(9) 0.726(3) 0.0868(14)
H7_3 H 0.025991 0.681964 0.080683
H8_3 H 0.063271 0.682228 0.110061
N4_3 N 0.1929(9) 0.908(3) 0.6739(15)
H9_3 H 0.213512 0.862774 0.677739
H10_3 H 0.175369 0.866095 0.652337
C18_3 C 0.0582(9) 0.994(3) 0.1815(13)
C21_3 C 0.0003(10) 0.859(3) 0.1235(14)
C22_3 C 0.0377(12) 0.823(2) 0.1212(14)
C23_3 C 0.0666(7) 0.891(3) 0.1502(15)
H19_3 H 0.091603 0.866886 0.148650
H22_3 H 0.258116 0.975499 0.641512
Co12_3 Co 0.17405(19) 0.9271(6) 0.7626(4)
N2_3 N 0.0210(9) 0.737(3) 0.9369(15)
H5_3 H 0.022727 0.790436 0.907363
H6_3 H 0.020719 0.664996 0.919145
Co8_3 Co 0.0713(2) 0.7475(6) 0.9945(4)
Co1_2 Co 0.9287(2) 0.2525(6) 0.0055(4)
O2_2 O 0.8554(8) 0.090(2) 0.1606(13)
H2_3 H 0.832980 0.097960 0.144060
O13_2 O 0.9465(8) 0.109(3) 0.1568(13)
O16_3 O 0.9395(9) 0.080(3) 0.0005(15)
C17_3 C 0.9527(18) 0.007(7) 0.159(3)
Co14_2 Co 0.90157(19) 0.2186(6) 0.1774(4)
O21_2 O 0.8949(7) 0.250(2) 0.0796(12)
O23_3 O 0.9291(9) 0.436(4) 0.0011(15)
O27_2 O 0.8777(8) 0.025(2) 0.2840(12)
O30_3 O 0.8209(9) 0.256(3) 0.2442(14)
N6_3 N 0.9790(9) 0.263(3) 0.0631(15)
N8_3 N 0.8071(9) 0.092(3) 0.3261(15)
O26_2 O 0.8785(9) 0.225(2) 0.9501(12)
N7_3 N 0.9531(9) 0.274(3) 0.9132(14)
Co2_3 Co 0.8725(2) 0.9367(6) 0.1296(4)
O4_2 O 0.8905(9) 0.536(3) 0.0590(14)
O5_3 O 0.8563(8) 0.796(3) 0.1774(13)
O6_3 O 0.8155(8) 0.897(3) 0.2289(13)
O14_3 O 0.9283(9) 0.919(3) 0.1600(13)
O15_3 O 0.8896(9) 0.993(3) 0.0456(14)
O18_3 O 0.8153(8) 0.919(3) 0.0742(14)
O19_2 O 0.8633(10) 0.359(3) 0.1954(15)
H3_3 H 0.732356 0.635299 0.343505
H4_3 H 0.732682 0.507394 0.342162
C1_3 C 0.9172(16) 0.527(5) 0.024(3)
C3_3 C 0.9350(10) 0.864(2) 0.0075(13)
C4_3 C 0.9181(7) 0.757(3) 0.0232(12)
H12_3 H 0.896021 0.758476 0.043635
C5_3 C 0.9342(9) 0.649(2) 0.0085(13)
C8_3 C 0.9206(15) 0.985(4) 0.017(2)
C9_3 C 0.8360(15) 0.351(5) 0.228(2)
C10_3 C 0.7824(10) 0.684(2) 0.2671(14)
H14_3 H 0.770755 0.754622 0.276973
C11_3 C 0.7676(7) 0.575(3) 0.2847(12)
C12_3 C 0.7851(9) 0.469(2) 0.2699(13)
H15_3 H 0.775190 0.395822 0.281654
C13_3 C 0.8173(9) 0.471(2) 0.2376(13)
C14_3 C 0.8321(7) 0.580(3) 0.2200(12)
H16_3 H 0.853692 0.581187 0.198346
C15_3 C 0.8147(10) 0.686(2) 0.2348(14)
C16_3 C 0.8305(15) 0.796(5) 0.212(2)
C20_3 C 0.9919(7) 0.963(3) 0.1549(14)
H18_3 H 0.981003 0.814176 0.104144
H25_3 H 0.816170 0.955920 0.038850
H26_3 H 0.798241 0.959169 0.090750
Co15_2 Co 0.8600(2) 0.3841(7) 0.0634(5)
H2_4 H 0.167020 0.097960 0.355940
O16_4 O 0.0605(9) 0.080(3) 0.4995(15)
C17_4 C 0.0473(18) 0.007(7) 0.341(3)
O23_4 O 0.0709(9) 0.436(4) 0.4989(15)
O30_4 O 0.1791(9) 0.256(3) 0.2558(14)
N6_4 N 0.0210(9) 0.263(3) 0.4369(15)
N7_4 N 0.0469(9) 0.274(3) 0.5868(14)
N8_4 N 0.1929(9) 0.092(3) 0.1739(15)
Co2_4 Co 0.1275(2) 0.9367(6) 0.3704(4)
O5_4 O 0.1437(8) 0.796(3) 0.3226(13)
O6_4 O 0.1845(8) 0.897(3) 0.2711(13)
O14_4 O 0.0717(9) 0.919(3) 0.3400(13)
O15_4 O 0.1104(9) 0.993(3) 0.4544(14)
O18_4 O 0.1847(8) 0.919(3) 0.4258(14)
H3_4 H 0.267644 0.635299 0.156495
H4_4 H 0.267318 0.507394 0.157838
C1_4 C 0.0828(16) 0.527(5) 0.476(3)
C2_3 C 0.0320(10) 0.862(2) 0.5229(13)
H11_3 H 0.020727 0.933311 0.533450
C3_4 C 0.0650(10) 0.864(2) 0.4925(13)
C4_4 C 0.0819(7) 0.757(3) 0.4768(12)
H12_4 H 0.103979 0.758476 0.456365
C5_4 C 0.0658(9) 0.649(2) 0.4915(13)
C6_3 C 0.0328(9) 0.647(2) 0.5220(13)
H13_3 H 0.022087 0.574185 0.531875
C7_3 C 0.0159(7) 0.753(3) 0.5377(13)
C8_4 C 0.0794(15) 0.985(4) 0.483(2)
C9_4 C 0.1640(15) 0.351(5) 0.272(2)
C10_4 C 0.2176(10) 0.684(2) 0.2329(14)
H14_4 H 0.229245 0.754622 0.223027
C11_4 C 0.2324(7) 0.575(3) 0.2153(12)
C12_4 C 0.2149(9) 0.469(2) 0.2301(13)
H15_4 H 0.224810 0.395822 0.218346
C13_4 C 0.1827(9) 0.471(2) 0.2624(13)
C14_4 C 0.1679(7) 0.580(3) 0.2800(12)
H16_4 H 0.146308 0.581187 0.301654
C15_4 C 0.1853(10) 0.686(2) 0.2652(14)
C16_4 C 0.1695(15) 0.796(5) 0.288(2)
C20_4 C 0.0081(7) 0.963(3) 0.3451(14)
H18_4 H 0.018997 0.814176 0.395856
H25_4 H 0.183830 0.955920 0.461150
H26_4 H 0.201759 0.959169 0.409250
H1_4 H 0.878718 0.166060 0.085071
O11_4 O 0.9161(8) 0.169(3) 0.2681(14)
O17_4 O 0.9413(9) 0.361(3) 0.1850(15)
C19_4 C 0.9792(11) 0.030(2) 0.3161(13)
H17_4 H 0.984814 0.099665 0.295172
C24_4 C 0.9114(15) 0.068(5) 0.291(2)
H23_4 H 0.942540 0.396560 0.149910
H24_4 H 0.963931 0.334049 0.191839
O25_4 O 0.8105(9) 0.431(3) 0.0911(14)
O7_4 O 0.6895(9) 0.069(3) 0.9089(14)
O8_4 O 0.6966(9) 0.265(3) 0.9159(15)
O10_4 O 0.8382(9) 0.356(3) 0.9783(17)
C25_4 C 0.8435(18) 0.274(6) 0.946(3)
C26_4 C 0.7783(12) 0.216(2) 0.9212(12)
H20_4 H 0.771635 0.286137 0.940550
C27_4 C 0.8160(9) 0.193(3) 0.9127(14)
C28_4 C 0.8259(7) 0.088(4) 0.8838(15)
H21_4 H 0.851147 0.072008 0.878091
C29_4 C 0.7982(11) 0.006(2) 0.8635(12)
C30_4 C 0.7605(9) 0.030(3) 0.8721(13)
C31_4 C 0.7505(7) 0.135(3) 0.9009(13)
C32_4 C 0.7086(15) 0.163(6) 0.904(2)
Co16_4 Co 0.6400(2) 0.1159(7) 0.9366(5)
N2_4 N 0.9790(9) 0.737(3) 0.5631(15)
H5_4 H 0.977273 0.790436 0.592637
H6_4 H 0.979281 0.664996 0.580855
N3_4 N 0.9531(9) 0.726(3) 0.4132(14)
H7_4 H 0.974009 0.681964 0.419317
H8_4 H 0.936729 0.682228 0.389939
C18_4 C 0.9418(9) 0.994(3) 0.3185(13)
C21_4 C 0.9997(10) 0.859(3) 0.3765(14)
C22_4 C 0.9623(12) 0.823(2) 0.3788(14)
C23_4 C 0.9334(7) 0.891(3) 0.3498(15)
H19_4 H 0.908397 0.866886 0.351350
Co8_4 Co 0.9287(2) 0.7475(6) 0.5055(4)
N4_4 N 0.8071(9) 0.908(3) 0.8261(15)
H9_4 H 0.786488 0.862774 0.822261
H10_4 H 0.824631 0.866095 0.847663
H22_4 H 0.741884 0.975499 0.858488
Co12_4 Co 0.82595(19) 0.9271(6) 0.7374(4)
O3 O 0.5709(9) 0.064(4) 0.9989(15)
O19_3 O 0.6367(10) 0.141(3) 0.8046(15)
O20 O 0.6791(9) 0.244(3) 0.7558(14)
C9_5 C 0.6640(15) 0.149(5) 0.772(2)
C12_5 C 0.7149(9) 0.031(2) 0.7301(13)
H15_5 H 0.724810 0.104178 0.718346
C13_5 C 0.6827(9) 0.029(2) 0.7624(13)
Co13 Co 0.59843(19) 0.2814(6) 0.8226(4)
H5_5 H 0.477273 0.709564 0.092637
H6_5 H 0.479281 0.835004 0.080855
C2_4 C 0.5320(10) 0.638(2) 0.0229(13)
H11_4 H 0.520727 0.566689 0.033450
C6_4 C 0.5328(9) 0.853(2) 0.0220(13)
H13_4 H 0.522087 0.925815 0.031875
C7_4 C 0.5159(7) 0.747(3) 0.0377(13)
O26_3 O 0.6215(9) 0.275(2) 0.0499(12)
Co2_5 Co 0.6275(2) 0.5633(6) 0.8704(4)
Co4_3 Co 0.40157(19) 0.2814(6) 0.6774(4)
O1_3 O 0.3949(7) 0.250(2) 0.5796(12)
H1_5 H 0.378718 0.333940 0.585071
O2_3 O 0.6446(8) 0.410(2) 0.8394(13)
H2_5 H 0.667020 0.402040 0.855940
O4_3 O 0.6095(9) 0.964(3) 0.9410(14)
O5_5 O 0.6437(8) 0.704(3) 0.8226(13)
O6_5 O 0.6845(8) 0.603(3) 0.7711(13)
O8_5 O 0.1966(9) 0.235(3) 0.4159(15)
O9_3 O 0.3785(9) 0.275(2) 0.4501(12)
O10_5 O 0.3382(9) 0.144(3) 0.4783(17)
O11_5 O 0.4161(8) 0.331(3) 0.7681(14)
O12_3 O 0.3777(8) 0.475(2) 0.7840(12)
O13_3 O 0.5535(8) 0.391(3) 0.8432(13)
O14_5 O 0.5717(9) 0.581(3) 0.8400(13)
O15_5 O 0.6104(9) 0.507(3) 0.9544(14)
O16_5 O 0.5605(9) 0.420(3) 0.9995(15)
O17_5 O 0.4413(9) 0.139(3) 0.6850(15)
O18_5 O 0.6847(8) 0.581(3) 0.9258(14)
N1_3 N 0.7682(8) 0.928(3) 0.6814(15)
H3_5 H 0.767644 0.864701 0.656495
H4_5 H 0.767318 0.992606 0.657838
H7_5 H 0.474009 0.818036 0.919317
H8_5 H 0.436729 0.817772 0.889939
H9_5 H 0.286488 0.637226 0.322261
H10_5 H 0.324631 0.633905 0.347663
C1_5 C 0.5828(16) 0.973(5) 0.976(3)
C3_5 C 0.5650(10) 0.636(2) 0.9925(13)
C4_5 C 0.5819(7) 0.743(3) 0.9768(12)
H12_5 H 0.603979 0.741524 0.956365
C5_5 C 0.5658(9) 0.851(2) 0.9915(13)
C8_5 C 0.5794(15) 0.515(4) 0.983(2)
C10_5 C 0.7176(10) 0.816(2) 0.7329(14)
H14_5 H 0.729245 0.745378 0.723027
C11_5 C 0.7324(7) 0.925(3) 0.7153(12)
C14_5 C 0.6679(7) 0.920(3) 0.7800(12)
H16_5 H 0.646308 0.918813 0.801654
C15_5 C 0.6853(10) 0.814(2) 0.7652(14)
C16_5 C 0.6695(15) 0.704(5) 0.788(2)
C17_5 C 0.5473(18) 0.493(7) 0.841(3)
C18_5 C 0.4418(9) 0.506(3) 0.8185(13)
C19_5 C 0.4792(11) 0.470(2) 0.8161(13)
H17_5 H 0.484814 0.400335 0.795172
C20_5 C 0.5081(7) 0.537(3) 0.8451(14)
C21_5 C 0.4997(10) 0.641(3) 0.8765(14)
H18_5 H 0.518997 0.685824 0.895856
C22_5 C 0.4623(12) 0.677(2) 0.8788(14)
C23_5 C 0.4334(7) 0.609(3) 0.8498(15)
H19_5 H 0.408397 0.633114 0.851350
C24_5 C 0.4114(15) 0.432(5) 0.791(2)
C25_5 C 0.3435(18) 0.226(6) 0.446(3)
C26_5 C 0.2783(12) 0.284(2) 0.4212(12)
H20_5 H 0.271635 0.213863 0.440550
C27_5 C 0.3160(9) 0.307(3) 0.4127(14)
C28_5 C 0.3259(7) 0.412(4) 0.3838(15)
H21_5 H 0.351147 0.427992 0.378091
C29_5 C 0.2982(11) 0.494(2) 0.3635(12)
C30_5 C 0.2605(9) 0.470(3) 0.3721(13)
H22_5 H 0.241884 0.524501 0.358488
C31_5 C 0.2505(7) 0.365(3) 0.4009(13)
C32_5 C 0.2086(15) 0.337(6) 0.404(2)
H23_5 H 0.442540 0.103440 0.649910
H24_5 H 0.463931 0.165951 0.691839
H25_5 H 0.683830 0.544080 0.961150
H26_5 H 0.701759 0.540831 0.909250
O21_3 O 0.6051(7) 0.250(2) 0.9204(12)
O22_3 O 0.3554(8) 0.410(2) 0.6606(13)
O27_3 O 0.6223(8) 0.475(2) 0.7160(12)
O28_3 O 0.4465(8) 0.391(3) 0.6568(13)
O29_3 O 0.3633(10) 0.141(3) 0.6954(15)
N5_3 N 0.7318(8) 0.428(3) 0.8186(15)
O24_3 O 0.3905(9) 0.964(3) 0.5590(14)
O3_2 O 0.4291(9) 0.064(4) 0.5011(15)
O20_2 O 0.3209(9) 0.244(3) 0.7442(14)
C9_6 C 0.3360(15) 0.149(5) 0.728(2)
C12_6 C 0.2851(9) 0.031(2) 0.7699(13)
H15_6 H 0.275190 0.104178 0.781654
C13_6 C 0.3173(9) 0.029(2) 0.7376(13)
O8_6 O 0.8034(9) 0.235(3) 0.0841(15)
O10_6 O 0.6618(9) 0.144(3) 0.0217(17)
H9_6 H 0.713512 0.637226 0.177739
H10_6 H 0.675369 0.633905 0.152337
C25_6 C 0.6565(18) 0.226(6) 0.054(3)
C26_6 C 0.7217(12) 0.284(2) 0.0788(12)
H20_6 H 0.728365 0.213863 0.059450
C27_6 C 0.6840(9) 0.307(3) 0.0873(14)
C28_6 C 0.6741(7) 0.412(4) 0.1162(15)
H21_6 H 0.648853 0.427992 0.121909
C29_6 C 0.7018(11) 0.494(2) 0.1365(12)
C30_6 C 0.7395(9) 0.470(3) 0.1279(13)
H22_6 H 0.758116 0.524501 0.141512
C31_6 C 0.7495(7) 0.365(3) 0.0991(13)
C32_6 C 0.7914(15) 0.337(6) 0.096(2)
Co2_6 Co 0.3725(2) 0.5633(6) 0.6296(4)
H1_6 H 0.621282 0.333940 0.914929
H2_6 H 0.332980 0.402040 0.644060
O5_6 O 0.3563(8) 0.704(3) 0.6774(13)
O6_6 O 0.3155(8) 0.603(3) 0.7289(13)
O11_6 O 0.5839(8) 0.331(3) 0.7319(14)
O14_6 O 0.4283(9) 0.581(3) 0.6600(13)
O15_6 O 0.3896(9) 0.507(3) 0.5456(14)
O16_6 O 0.4395(9) 0.420(3) 0.5005(15)
O17_6 O 0.5587(9) 0.139(3) 0.8150(15)
O18_6 O 0.3153(8) 0.581(3) 0.5742(14)
N1_4 N 0.2318(8) 0.928(3) 0.8186(15)
H3_6 H 0.232356 0.864701 0.843505
H4_6 H 0.232682 0.992606 0.842162
H5_6 H 0.522727 0.709564 0.407363
H6_6 H 0.520719 0.835004 0.419145
H7_6 H 0.525991 0.818036 0.580683
H8_6 H 0.563271 0.817772 0.610061
C1_6 C 0.4172(16) 0.973(5) 0.524(3)
C2_5 C 0.4680(10) 0.638(2) 0.4771(13)
H11_5 H 0.479273 0.566689 0.466550
C3_6 C 0.4350(10) 0.636(2) 0.5075(13)
C4_6 C 0.4181(7) 0.743(3) 0.5232(12)
H12_6 H 0.396021 0.741524 0.543635
C5_6 C 0.4342(9) 0.851(2) 0.5085(13)
C6_5 C 0.4672(9) 0.853(2) 0.4780(13)
H13_5 H 0.477913 0.925815 0.468125
C7_5 C 0.4841(7) 0.747(3) 0.4623(13)
C8_6 C 0.4206(15) 0.515(4) 0.517(2)
C10_6 C 0.2824(10) 0.816(2) 0.7671(14)
H14_6 H 0.270755 0.745378 0.776973
C11_6 C 0.2676(7) 0.925(3) 0.7847(12)
C14_6 C 0.3321(7) 0.920(3) 0.7200(12)
H16_6 H 0.353692 0.918813 0.698346
C15_6 C 0.3147(10) 0.814(2) 0.7348(14)
C16_6 C 0.3305(15) 0.704(5) 0.712(2)
C17_6 C 0.4527(18) 0.493(7) 0.659(3)
C18_6 C 0.5582(9) 0.506(3) 0.6815(13)
C19_6 C 0.5208(11) 0.470(2) 0.6839(13)
H17_6 H 0.515186 0.400335 0.704828
C20_6 C 0.4919(7) 0.537(3) 0.6549(14)
C21_6 C 0.5003(10) 0.641(3) 0.6235(14)
H18_6 H 0.481003 0.685824 0.604144
C22_6 C 0.5377(12) 0.677(2) 0.6212(14)
C23_6 C 0.5666(7) 0.609(3) 0.6502(15)
H19_6 H 0.591603 0.633114 0.648650
C24_6 C 0.5886(15) 0.432(5) 0.709(2)
H23_6 H 0.557460 0.103440 0.850090
H24_6 H 0.536069 0.165951 0.808161
H25_6 H 0.316170 0.544080 0.538850
H26_6 H 0.298241 0.540831 0.590750
N5_4 N 0.2682(8) 0.428(3) 0.6814(15)
Co2_7 Co 0.1275(2) 0.0633(6) 0.8704(4)
O3_3 O 0.0709(9) 0.564(4) 0.9989(15)
O4_4 O 0.1095(9) 0.464(3) 0.9410(14)
O5_7 O 0.1437(8) 0.204(3) 0.8226(13)
O6_7 O 0.1845(8) 0.103(3) 0.7711(13)
O14_7 O 0.0717(9) 0.081(3) 0.8400(13)
O15_7 O 0.1104(9) 0.007(3) 0.9544(14)
O18_7 O 0.1847(8) 0.081(3) 0.9258(14)
O19_4 O 0.1367(10) 0.641(3) 0.8046(15)
O20_3 O 0.1791(9) 0.744(3) 0.7558(14)
H3_7 H 0.267644 0.364701 0.656495
H4_7 H 0.267318 0.492606 0.657838
C1_7 C 0.0828(16) 0.473(5) 0.976(3)
C3_7 C 0.0650(10) 0.136(2) 0.9925(13)
C4_7 C 0.0819(7) 0.243(3) 0.9768(12)
H12_7 H 0.103979 0.241524 0.956365
C5_7 C 0.0658(9) 0.351(2) 0.9915(13)
C8_7 C 0.0794(15) 0.015(4) 0.983(2)
C9_7 C 0.1640(15) 0.649(5) 0.772(2)
C10_7 C 0.2176(10) 0.316(2) 0.7329(14)
H14_7 H 0.229245 0.245378 0.723027
C11_7 C 0.2324(7) 0.425(3) 0.7153(12)
C12_7 C 0.2149(9) 0.531(2) 0.7301(13)
H15_7 H 0.224810 0.604178 0.718346
C13_7 C 0.1827(9) 0.529(2) 0.7624(13)
C14_7 C 0.1679(7) 0.420(3) 0.7800(12)
H16_7 H 0.146308 0.418813 0.801654
C15_7 C 0.1853(10) 0.314(2) 0.7652(14)
C16_7 C 0.1695(15) 0.204(5) 0.788(2)
C20_7 C 0.0081(7) 0.037(3) 0.8451(14)
H18_7 H 0.018997 0.185824 0.895856
H25_7 H 0.183830 0.044080 0.961150
H26_7 H 0.201759 0.040831 0.909250
Co13_2 Co 0.09843(19) 0.7814(6) 0.8226(4)
O26_4 O 0.1215(9) 0.775(2) 0.0499(12)
O2_4 O 0.1446(8) 0.910(2) 0.8394(13)
H2_7 H 0.167020 0.902040 0.855940
O13_4 O 0.0535(8) 0.891(3) 0.8432(13)
O16_7 O 0.0605(9) 0.920(3) 0.9995(15)
C17_7 C 0.0473(18) 0.993(7) 0.841(3)
O21_4 O 0.1051(7) 0.750(2) 0.9204(12)
O27_4 O 0.1223(8) 0.975(2) 0.7160(12)
H5_7 H 0.977273 0.209564 0.092637
H6_7 H 0.979281 0.335004 0.080855
H7_7 H 0.974009 0.318036 0.919317
H8_7 H 0.936729 0.317772 0.889939
H9_7 H 0.786488 0.137226 0.322261
H10_7 H 0.824631 0.133905 0.347663
C18_7 C 0.9418(9) 0.006(3) 0.8185(13)
C21_7 C 0.9997(10) 0.141(3) 0.8765(14)
C22_7 C 0.9623(12) 0.177(2) 0.8788(14)
C23_7 C 0.9334(7) 0.109(3) 0.8498(15)
H19_7 H 0.908397 0.133114 0.851350
H22_7 H 0.741884 0.024501 0.358488
Co4_4 Co 0.90157(19) 0.7814(6) 0.6774(4)
O1_4 O 0.8949(7) 0.750(2) 0.5796(12)
H1_7 H 0.878718 0.833940 0.585071
O8_7 O 0.6966(9) 0.735(3) 0.4159(15)
O9_4 O 0.8785(9) 0.775(2) 0.4501(12)
O10_7 O 0.8382(9) 0.644(3) 0.4783(17)
O11_7 O 0.9161(8) 0.831(3) 0.7681(14)
O12_4 O 0.8777(8) 0.975(2) 0.7840(12)
O17_7 O 0.9413(9) 0.639(3) 0.6850(15)
C19_7 C 0.9792(11) 0.970(2) 0.8161(13)
H17_7 H 0.984814 0.900335 0.795172
C24_7 C 0.9114(15) 0.932(5) 0.791(2)
C25_7 C 0.8435(18) 0.726(6) 0.446(3)
C26_7 C 0.7783(12) 0.784(2) 0.4212(12)
H20_7 H 0.771635 0.713863 0.440550
C27_7 C 0.8160(9) 0.807(3) 0.4127(14)
C28_7 C 0.8259(7) 0.912(4) 0.3838(15)
H21_7 H 0.851147 0.927992 0.378091
C29_7 C 0.7982(11) 0.994(2) 0.3635(12)
C30_7 C 0.7605(9) 0.970(3) 0.3721(13)
C31_7 C 0.7505(7) 0.865(3) 0.4009(13)
C32_7 C 0.7086(15) 0.837(6) 0.404(2)
H23_7 H 0.942540 0.603440 0.649910
H24_7 H 0.963931 0.665951 0.691839
O22_4 O 0.8554(8) 0.910(2) 0.6606(13)
O24_4 O 0.8905(9) 0.464(3) 0.5590(14)
O28_4 O 0.9465(8) 0.891(3) 0.6568(13)
O29_4 O 0.8633(10) 0.641(3) 0.6954(15)
H9_8 H 0.213512 0.137226 0.177739
H10_8 H 0.175369 0.133905 0.152337
H22_8 H 0.258116 0.024501 0.141512
H5_8 H 0.022727 0.209564 0.407363
H6_8 H 0.020719 0.335004 0.419145
H7_8 H 0.025991 0.318036 0.580683
H8_8 H 0.063271 0.317772 0.610061
C18_8 C 0.0582(9) 0.006(3) 0.6815(13)
C21_8 C 0.0003(10) 0.141(3) 0.6235(14)
C22_8 C 0.0377(12) 0.177(2) 0.6212(14)
C23_8 C 0.0666(7) 0.109(3) 0.6502(15)
H19_8 H 0.091603 0.133114 0.648650
O8_8 O 0.3034(9) 0.735(3) 0.0841(15)
O10_8 O 0.1618(9) 0.644(3) 0.0217(17)
C25_8 C 0.1565(18) 0.726(6) 0.054(3)
C26_8 C 0.2217(12) 0.784(2) 0.0788(12)
H20_8 H 0.228365 0.713863 0.059450
C27_8 C 0.1840(9) 0.807(3) 0.0873(14)
C28_8 C 0.1741(7) 0.912(4) 0.1162(15)
H21_8 H 0.148853 0.927992 0.121909
C29_8 C 0.2018(11) 0.994(2) 0.1365(12)
C30_8 C 0.2395(9) 0.970(3) 0.1279(13)
C31_8 C 0.2495(7) 0.865(3) 0.0991(13)
C32_8 C 0.2914(15) 0.837(6) 0.096(2)
H1_8 H 0.121282 0.833940 0.914929
O11_8 O 0.0839(8) 0.831(3) 0.7319(14)
O17_8 O 0.0587(9) 0.639(3) 0.8150(15)
C19_8 C 0.0208(11) 0.970(2) 0.6839(13)
H17_8 H 0.015186 0.900335 0.704828
C24_8 C 0.0886(15) 0.932(5) 0.709(2)
H23_8 H 0.057460 0.603440 0.850090
H24_8 H 0.036069 0.665951 0.808161
Co2_8 Co 0.8725(2) 0.0633(6) 0.6296(4)
O3_4 O 0.9291(9) 0.564(4) 0.5011(15)
O5_8 O 0.8563(8) 0.204(3) 0.6774(13)
O6_8 O 0.8155(8) 0.103(3) 0.7289(13)
O14_8 O 0.9283(9) 0.081(3) 0.6600(13)
O15_8 O 0.8896(9) 0.007(3) 0.5456(14)
O18_8 O 0.8153(8) 0.081(3) 0.5742(14)
O20_4 O 0.8209(9) 0.744(3) 0.7442(14)
H3_8 H 0.732356 0.364701 0.843505
H4_8 H 0.732682 0.492606 0.842162
C1_8 C 0.9172(16) 0.473(5) 0.524(3)
C2_6 C 0.9680(10) 0.138(2) 0.4771(13)
H11_6 H 0.979273 0.066689 0.466550
C3_8 C 0.9350(10) 0.136(2) 0.5075(13)
C4_8 C 0.9181(7) 0.243(3) 0.5232(12)
H12_8 H 0.896021 0.241524 0.543635
C5_8 C 0.9342(9) 0.351(2) 0.5085(13)
C6_6 C 0.9672(9) 0.353(2) 0.4780(13)
H13_6 H 0.977913 0.425815 0.468125
C7_6 C 0.9841(7) 0.247(3) 0.4623(13)
C8_8 C 0.9206(15) 0.015(4) 0.517(2)
C9_8 C 0.8360(15) 0.649(5) 0.728(2)
C10_8 C 0.7824(10) 0.316(2) 0.7671(14)
H14_8 H 0.770755 0.245378 0.776973
C11_8 C 0.7676(7) 0.425(3) 0.7847(12)
C12_8 C 0.7851(9) 0.531(2) 0.7699(13)
H15_8 H 0.775190 0.604178 0.781654
C13_8 C 0.8173(9) 0.529(2) 0.7376(13)
C14_8 C 0.8321(7) 0.420(3) 0.7200(12)
H16_8 H 0.853692 0.418813 0.698346
C15_8 C 0.8147(10) 0.314(2) 0.7348(14)
C16_8 C 0.8305(15) 0.204(5) 0.712(2)
C20_8 C 0.9919(7) 0.037(3) 0.6549(14)
H18_8 H 0.981003 0.185824 0.604144
H25_8 H 0.816170 0.044080 0.538850
H26_8 H 0.798241 0.040831 0.590750
H2_8 H 0.832980 0.902040 0.644060
O16_8 O 0.9395(9) 0.920(3) 0.5005(15)
C17_8 C 0.9527(18) 0.993(7) 0.659(3)
C2_7 C 0.9680(10) 0.862(2) 0.9771(13)
H11_7 H 0.979273 0.933311 0.966550
C6_7 C 0.9672(9) 0.647(2) 0.9780(13)
H13_7 H 0.977913 0.574185 0.968125
C7_7 C 0.9841(7) 0.753(3) 0.9623(13)
C2_8 C 0.0320(10) 0.138(2) 0.0229(13)
H11_8 H 0.020727 0.066689 0.033450
C6_8 C 0.0328(9) 0.353(2) 0.0220(13)
H13_8 H 0.022087 0.425815 0.031875
C7_8 C 0.0159(7) 0.247(3) 0.0377(13)
loop_
_geom_bond_atom_site_label_1
_geom_bond_atom_site_label_2
_geom_bond_site_symmetry_1
_geom_bond_site_symmetry_2
Co1 O16 1_555 1_555
Co2 O2 1_555 1_555
Co3 O2 1_555 1_555
Co4 O1 1_555 1_555
Co5 O1 1_555 1_555
O1 H1 1_555 1_555
O2 H2 1_555 1_555
O4 C1 1_555 1_555
O5 Co2 1_555 1_555
O6 Co3 1_555 1_555
O7 C32 1_555 1_555
O8 C32 1_555 1_555
O9 C25 1_555 1_555
O10 Co5 1_555 1_555
O11 Co4 1_555 1_555
O12 C24 1_555 1_555
O13 C17 1_555 1_555
O14 Co2 1_555 1_555
O15 Co2 1_555 1_555
O16 C8 1_555 1_555
O17 Co4 1_555 1_555
O18 Co2 1_555 1_555
N1 H3 1_555 1_555
H4 N1 1_555 1_555
N3 H7 1_555 1_555
H8 N3 1_555 1_555
N4 H9 1_555 1_555
H10 N4 1_555 1_555
C1 C5 1_555 1_555
C4 C3 1_555 1_555
H12 C4 1_555 1_555
C5 C4 1_555 1_555
C8 O15 1_555 1_555
C10 H14 1_555 1_555
C11 N1 1_555 1_555
H16 C14 1_555 1_555
C15 C10 1_555 1_555
C16 O5 1_555 1_555
C17 O14 1_555 1_555
C18 C19 1_555 1_555
C19 H17 1_555 1_555
C20 C17 1_555 1_555
C21 C20 1_555 1_555
H18 C21 1_555 1_555
C22 N3 1_555 1_555
C23 C18 1_555 1_555
H19 C23 1_555 1_555
C24 O11 1_555 1_555
C25 O10 1_555 1_555
C26 H20 1_555 1_555
C27 C25 1_555 1_555
C28 C27 1_555 1_555
H21 C28 1_555 1_555
C29 N4 1_555 1_555
C30 C29 1_555 1_555
H22 C30 1_555 1_555
C31 C26 1_555 1_555
C32 C31 1_555 1_555
H23 O17 1_555 1_555
H24 O17 1_555 1_555
H25 O18 1_555 1_555
H26 O18 1_555 1_555
Co7 O1 1_555 1_555
Co10 O12 1_555 1_555
Co11 N1 1_555 1_555
Co12 N4 1_555 1_555
Co14 O2 1_555 1_555
Co16 O7 1_555 1_555
O21 Co1 1_555 1_555
O22 Co4 1_555 1_555
O23 Co1 1_555 1_555
O25 Co5 1_555 1_555
O27 Co3 1_555 1_555
O28 Co4 1_555 1_555
O29 Co4 1_555 1_555
O30 Co3 1_555 1_555
N5 Co3 1_555 1_555
N6 Co1 1_555 1_555
N8 Co3 1_555 1_555
O6 C16 1_555 1_555
O9 Co7 1_555 1_555
O13 Co14 1_555 1_555
C3 C8 1_555 1_555
C10 C11 1_555 1_555
C14 C15 1_555 1_555
C15 C16 1_555 1_555
C18 C24 1_555 1_555
C19 C20 1_555 1_555
C21 C22 1_555 1_555
C22 C23 1_555 1_555
C26 C27 1_555 1_555
C28 C29 1_555 1_555
C30 C31 1_555 1_555
Co10 O22 1_555 1_555
Co14 O21 1_555 1_555
N2 H5 1_555 1_555
H6 N2 1_555 1_555
C2 H11 1_555 1_555
H13 C6 1_555 1_555
C7 N2 1_555 1_555
Co8 N2 1_555 1_555
C2 C7 1_555 1_555
C6 C7 1_555 1_555
O19 C9 1_555 1_555
O30 C9 1_555 1_555
C9 C13 1_555 1_555
H15 C12 1_555 1_555
C13 C12 1_555 1_555
Co14 O19 1_555 1_555
Co7 O16_2 1_555 1_555
Co2_2 O22 1_555 1_555
Co15 O21 1_555 1_555
O21 H1_2 1_555 1_555
O22 H2_2 1_555 1_555
O24 C1_2 1_555 1_555
O5_2 Co2_2 1_555 1_555
O6_2 Co10 1_555 1_555
O11_2 Co14 1_555 1_555
O27 C24_2 1_555 1_555
O28 C17_2 1_555 1_555
O14_2 Co2_2 1_555 1_555
O15_2 Co2_2 1_555 1_555
O16_2 C8_2 1_555 1_555
O17_2 Co14 1_555 1_555
O18_2 Co2_2 1_555 1_555
N1_2 H3_2 1_555 1_555
H4_2 N1_2 1_555 1_555
N2_2 H5_2 1_555 1_555
H6_2 N2_2 1_555 1_555
N3_2 H7_2 1_555 1_555
H8_2 N3_2 1_555 1_555
C1_2 C5_2 1_555 1_555
C2_2 H11_2 1_555 1_555
C3_2 C2_2 1_555 1_555
C4_2 C3_2 1_555 1_555
H12_2 C4_2 1_555 1_555
C5_2 C4_2 1_555 1_555
C6_2 C5_2 1_555 1_555
H13_2 C6_2 1_555 1_555
C7_2 N2_2 1_555 1_555
C8_2 O15_2 1_555 1_555
C10_2 H14_2 1_555 1_555
C11_2 N1_2 1_555 1_555
H16_2 C14_2 1_555 1_555
C15_2 C10_2 1_555 1_555
C16_2 O5_2 1_555 1_555
C17_2 O14_2 1_555 1_555
C18_2 C19_2 1_555 1_555
C19_2 H17_2 1_555 1_555
C20_2 C17_2 1_555 1_555
C21_2 C20_2 1_555 1_555
H18_2 C21_2 1_555 1_555
C22_2 N3_2 1_555 1_555
C23_2 C18_2 1_555 1_555
H19_2 C23_2 1_555 1_555
C24_2 O11_2 1_555 1_555
H23_2 O17_2 1_555 1_555
H24_2 O17_2 1_555 1_555
H25_2 O18_2 1_555 1_555
H26_2 O18_2 1_555 1_555
Co8_2 N2_2 1_555 1_555
Co11_2 N1_2 1_555 1_555
O23_2 Co7 1_555 1_555
O25_2 Co15 1_555 1_555
O30_2 Co10 1_555 1_555
N5_2 Co10 1_555 1_555
N6_2 Co7 1_555 1_555
N7_2 Co7 1_555 1_555
N8_2 Co10 1_555 1_555
O6_2 C16_2 1_555 1_555
N3_2 Co8_2 1_555 1_555
C2_2 C7_2 1_555 1_555
C3_2 C8_2 1_555 1_555
C6_2 C7_2 1_555 1_555
C10_2 C11_2 1_555 1_555
C14_2 C15_2 1_555 1_555
C15_2 C16_2 1_555 1_555
C18_2 C24_2 1_555 1_555
C19_2 C20_2 1_555 1_555
C21_2 C22_2 1_555 1_555
C22_2 C23_2 1_555 1_555
O7_2 C32_2 1_555 1_555
O8_2 C32_2 1_555 1_555
O26 C25_2 1_555 1_555
N4_2 H9_2 1_555 1_555
H10_2 N4_2 1_555 1_555
C25_2 O10_2 1_555 1_555
C26_2 H20_2 1_555 1_555
C27_2 C25_2 1_555 1_555
C28_2 C27_2 1_555 1_555
H21_2 C28_2 1_555 1_555
C29_2 N4_2 1_555 1_555
C30_2 C29_2 1_555 1_555
H22_2 C30_2 1_555 1_555
C31_2 C26_2 1_555 1_555
C32_2 C31_2 1_555 1_555
Co12_2 N4_2 1_555 1_555
Co16_2 O7_2 1_555 1_555
C26_2 C27_2 1_555 1_555
C28_2 C29_2 1_555 1_555
C30_2 C31_2 1_555 1_555
O29 C9_2 1_555 1_555
O30_2 C9_2 1_555 1_555
C9_2 C13_2 1_555 1_555
H15_2 C12_2 1_555 1_555
C13_2 C12_2 1_555 1_555
Co4_2 O1_2 1_555 1_555
Co5_2 O1_2 1_555 1_555
O1_2 H1_3 1_555 1_555
O7_3 C32_3 1_555 1_555
O8_3 C32_3 1_555 1_555
O9_2 C25_3 1_555 1_555
O10_3 Co5_2 1_555 1_555
O11_3 Co4_2 1_555 1_555
O12_2 C24_3 1_555 1_555
O17_3 Co4_2 1_555 1_555
C19_3 H17_3 1_555 1_555
C24_3 O11_3 1_555 1_555
C25_3 O10_3 1_555 1_555
C26_3 H20_3 1_555 1_555
C27_3 C25_3 1_555 1_555
C28_3 C27_3 1_555 1_555
H21_3 C28_3 1_555 1_555
C30_3 C29_3 1_555 1_555
C31_3 C26_3 1_555 1_555
C32_3 C31_3 1_555 1_555
H23_3 O17_3 1_555 1_555
H24_3 O17_3 1_555 1_555
Co7_2 O1_2 1_555 1_555
Co11 O12_2 1_555 1_555
Co16_3 O7_3 1_555 1_555
O22_2 Co4_2 1_555 1_555
O24_2 Co5_2 1_555 1_555
O25_3 Co5_2 1_555 1_555
O28_2 Co4_2 1_555 1_555
O29_2 Co4_2 1_555 1_555
O9_2 Co7_2 1_555 1_555
C26_3 C27_3 1_555 1_555
C28_3 C29_3 1_555 1_555
C30_3 C31_3 1_555 1_555
Co11 O22_2 1_555 1_555
N3_3 H7_3 1_555 1_555
H8_3 N3_3 1_555 1_555
N4_3 H9_3 1_555 1_555
H10_3 N4_3 1_555 1_555
C22_3 N3_3 1_555 1_555
C23_3 C18_3 1_555 1_555
H19_3 C23_3 1_555 1_555
Co12_3 N4_3 1_555 1_555
C21_3 C22_3 1_555 1_555
C22_3 C23_3 1_555 1_555
N2_3 H5_3 1_555 1_555
H6_3 N2_3 1_555 1_555
Co8_3 N2_3 1_555 1_555
Co1_2 O16_3 1_555 1_555
Co11_2 O2_2 1_555 1_555
O2_2 H2_3 1_555 1_555
O13_2 C17_3 1_555 1_555
Co14_2 O2_2 1_555 1_555
O21_2 Co1_2 1_555 1_555
O23_3 Co1_2 1_555 1_555
O27_2 Co11_2 1_555 1_555
O30_3 Co11_2 1_555 1_555
N6_3 Co1_2 1_555 1_555
N8_3 Co11_2 1_555 1_555
O13_2 Co14_2 1_555 1_555
Co14_2 O21_2 1_555 1_555
O23_3 C1_3 1_555 1_555
O4_2 C1_3 1_555 1_555
O5_3 Co2_3 1_555 1_555
O14_3 Co2_3 1_555 1_555
O15_3 Co2_3 1_555 1_555
O18_3 Co2_3 1_555 1_555
O19_2 C9_3 1_555 1_555
O30_3 C9_3 1_555 1_555
N5_2 H3_3 1_555 1_555
H4_3 N5_2 1_555 1_555
C1_3 C5_3 1_555 1_555
C4_3 C3_3 1_555 1_555
H12_3 C4_3 1_555 1_555
C5_3 C4_3 1_555 1_555
C8_3 O15_3 1_555 1_555
C9_3 C13_3 1_555 1_555
C10_3 H14_3 1_555 1_555
C11_3 N5_2 1_555 1_555
C12_3 C11_3 1_555 1_555
H15_3 C12_3 1_555 1_555
C13_3 C12_3 1_555 1_555
C14_3 C13_3 1_555 1_555
H16_3 C14_3 1_555 1_555
C15_3 C10_3 1_555 1_555
C16_3 O5_3 1_555 1_555
H25_3 O18_3 1_555 1_555
H26_3 O18_3 1_555 1_555
Co14_2 O19_2 1_555 1_555
Co15_2 O4_2 1_555 1_555
O6_3 C16_3 1_555 1_555
C3_3 C8_3 1_555 1_555
C10_3 C11_3 1_555 1_555
C14_3 C15_3 1_555 1_555
C15_3 C16_3 1_555 1_555
Co7_2 O16_4 1_555 1_555
O22_2 H2_4 1_555 1_555
O28_2 C17_4 1_555 1_555
O23_4 Co7_2 1_555 1_555
O30_4 Co11 1_555 1_555
N6_4 Co7_2 1_555 1_555
N7_4 Co7_2 1_555 1_555
N8_4 Co11 1_555 1_555
O23_4 C1_4 1_555 1_555
O24_2 C1_4 1_555 1_555
O5_4 Co2_4 1_555 1_555
O14_4 Co2_4 1_555 1_555
O15_4 Co2_4 1_555 1_555
O18_4 Co2_4 1_555 1_555
O29_2 C9_4 1_555 1_555
O30_4 C9_4 1_555 1_555
N5 H3_4 1_555 1_555
H4_4 N5 1_555 1_555
C1_4 C5_4 1_555 1_555
C2_3 H11_3 1_555 1_555
C3_4 C2_3 1_555 1_555
C4_4 C3_4 1_555 1_555
H12_4 C4_4 1_555 1_555
C5_4 C4_4 1_555 1_555
C6_3 C5_4 1_555 1_555
H13_3 C6_3 1_555 1_555
C8_4 O15_4 1_555 1_555
C9_4 C13_4 1_555 1_555
C10_4 H14_4 1_555 1_555
C11_4 N5 1_555 1_555
C12_4 C11_4 1_555 1_555
H15_4 C12_4 1_555 1_555
C13_4 C12_4 1_555 1_555
C14_4 C13_4 1_555 1_555
H16_4 C14_4 1_555 1_555
C15_4 C10_4 1_555 1_555
C16_4 O5_4 1_555 1_555
H25_4 O18_4 1_555 1_555
H26_4 O18_4 1_555 1_555
O6_4 C16_4 1_555 1_555
C2_3 C7_3 1_555 1_555
C3_4 C8_4 1_555 1_555
C6_3 C7_3 1_555 1_555
C10_4 C11_4 1_555 1_555
C14_4 C15_4 1_555 1_555
C15_4 C16_4 1_555 1_555
Co15_2 O21_2 1_555 1_555
O21_2 H1_4 1_555 1_555
O11_4 Co14_2 1_555 1_555
O27_2 C24_4 1_555 1_555
O17_4 Co14_2 1_555 1_555
C19_4 H17_4 1_555 1_555
C24_4 O11_4 1_555 1_555
H23_4 O17_4 1_555 1_555
H24_4 O17_4 1_555 1_555
O25_4 Co15_2 1_555 1_555
O7_4 C32_4 1_555 1_555
O8_4 C32_4 1_555 1_555
O26_2 C25_4 1_555 1_555
C25_4 O10_4 1_555 1_555
C26_4 H20_4 1_555 1_555
C27_4 C25_4 1_555 1_555
C28_4 C27_4 1_555 1_555
H21_4 C28_4 1_555 1_555
C30_4 C29_4 1_555 1_555
C31_4 C26_4 1_555 1_555
C32_4 C31_4 1_555 1_555
Co16_4 O7_4 1_555 1_555
C26_4 C27_4 1_555 1_555
C28_4 C29_4 1_555 1_555
C30_4 C31_4 1_555 1_555
N2_4 H5_4 1_555 1_555
H6_4 N2_4 1_555 1_555
N3_4 H7_4 1_555 1_555
H8_4 N3_4 1_555 1_555
C22_4 N3_4 1_555 1_555
C23_4 C18_4 1_555 1_555
H19_4 C23_4 1_555 1_555
Co8_4 N2_4 1_555 1_555
N3_4 Co8_4 1_555 1_555
C21_4 C22_4 1_555 1_555
C22_4 C23_4 1_555 1_555
N4_4 H9_4 1_555 1_555
H10_4 N4_4 1_555 1_555
Co12_4 N4_4 1_555 1_555
O19_3 C9_5 1_555 1_555
O20 C9_5 1_555 1_555
C9_5 C13_5 1_555 1_555
H15_5 C12_5 1_555 1_555
C13_5 C12_5 1_555 1_555
Co8 O3 1_555 1_555
Co12 O20 1_555 1_555
Co13 O19_3 1_555 1_555
N6 H5_5 1_555 1_555
H6_5 N6 1_555 1_555
C2_4 H11_4 1_555 1_555
H13_4 C6_4 1_555 1_555
C7_4 N6 1_555 1_555
C2_4 C7_4 1_555 1_555
C6_4 C7_4 1_555 1_555
Co8 O16_5 1_555 1_555
Co2_5 O2_3 1_555 1_555
Co12 O2_3 1_555 1_555
Co4_3 O1_3 1_555 1_555
Co16_3 O1_3 1_555 1_555
O1_3 H1_5 1_555 1_555
O2_3 H2_5 1_555 1_555
O4_3 C1_5 1_555 1_555
O5_5 Co2_5 1_555 1_555
O6_5 Co12 1_555 1_555
O25_3 C32_5 1_555 1_555
O8_5 C32_5 1_555 1_555
O9_3 C25_5 1_555 1_555
O10_5 Co16_3 1_555 1_555
O11_5 Co4_3 1_555 1_555
O12_3 C24_5 1_555 1_555
O13_3 C17_5 1_555 1_555
O14_5 Co2_5 1_555 1_555
O15_5 Co2_5 1_555 1_555
O16_5 C8_5 1_555 1_555
O17_5 Co4_3 1_555 1_555
O18_5 Co2_5 1_555 1_555
N1_3 H3_5 1_555 1_555
H4_5 N1_3 1_555 1_555
N7 H7_5 1_555 1_555
H8_5 N7 1_555 1_555
N8 H9_5 1_555 1_555
H10_5 N8 1_555 1_555
C1_5 C5_5 1_555 1_555
C4_5 C3_5 1_555 1_555
H12_5 C4_5 1_555 1_555
C5_5 C4_5 1_555 1_555
C8_5 O15_5 1_555 1_555
C10_5 H14_5 1_555 1_555
C11_5 N1_3 1_555 1_555
H16_5 C14_5 1_555 1_555
C15_5 C10_5 1_555 1_555
C16_5 O5_5 1_555 1_555
C17_5 O14_5 1_555 1_555
C18_5 C19_5 1_555 1_555
C19_5 H17_5 1_555 1_555
C20_5 C17_5 1_555 1_555
C21_5 C20_5 1_555 1_555
H18_5 C21_5 1_555 1_555
C22_5 N7 1_555 1_555
C23_5 C18_5 1_555 1_555
H19_5 C23_5 1_555 1_555
C24_5 O11_5 1_555 1_555
C25_5 O10_5 1_555 1_555
C26_5 H20_5 1_555 1_555
C27_5 C25_5 1_555 1_555
C28_5 C27_5 1_555 1_555
H21_5 C28_5 1_555 1_555
C29_5 N8 1_555 1_555
C30_5 C29_5 1_555 1_555
H22_5 C30_5 1_555 1_555
C31_5 C26_5 1_555 1_555
C32_5 C31_5 1_555 1_555
H23_5 O17_5 1_555 1_555
H24_5 O17_5 1_555 1_555
H25_5 O18_5 1_555 1_555
H26_5 O18_5 1_555 1_555
Co8_2 O1_3 1_555 1_555
Co12_2 O12_3 1_555 1_555
Co12_4 N1_3 1_555 1_555
Co13 O2_3 1_555 1_555
O21_3 Co8 1_555 1_555
O22_3 Co4_3 1_555 1_555
O27_3 Co12 1_555 1_555
O28_3 Co4_3 1_555 1_555
O29_3 Co4_3 1_555 1_555
N5_3 Co12 1_555 1_555
O6_5 C16_5 1_555 1_555
O9_3 Co8_2 1_555 1_555
O13_3 Co13 1_555 1_555
C3_5 C8_5 1_555 1_555
C10_5 C11_5 1_555 1_555
C14_5 C15_5 1_555 1_555
C15_5 C16_5 1_555 1_555
C18_5 C24_5 1_555 1_555
C19_5 C20_5 1_555 1_555
C21_5 C22_5 1_555 1_555
C22_5 C23_5 1_555 1_555
C26_5 C27_5 1_555 1_555
C28_5 C29_5 1_555 1_555
C30_5 C31_5 1_555 1_555
Co12_2 O22_3 1_555 1_555
Co13 O21_3 1_555 1_555
O29_3 C9_6 1_555 1_555
O20_2 C9_6 1_555 1_555
C9_6 C13_6 1_555 1_555
H15_6 C12_6 1_555 1_555
C13_6 C12_6 1_555 1_555
Co8_2 O3_2 1_555 1_555
Co12_2 O20_2 1_555 1_555
O25_4 C32_6 1_555 1_555
O8_6 C32_6 1_555 1_555
O26_3 C25_6 1_555 1_555
N8_2 H9_6 1_555 1_555
H10_6 N8_2 1_555 1_555
C25_6 O10_6 1_555 1_555
C26_6 H20_6 1_555 1_555
C27_6 C25_6 1_555 1_555
C28_6 C27_6 1_555 1_555
H21_6 C28_6 1_555 1_555
C29_6 N8_2 1_555 1_555
C30_6 C29_6 1_555 1_555
H22_6 C30_6 1_555 1_555
C31_6 C26_6 1_555 1_555
C32_6 C31_6 1_555 1_555
C26_6 C27_6 1_555 1_555
C28_6 C29_6 1_555 1_555
C30_6 C31_6 1_555 1_555
Co8_2 O16_6 1_555 1_555
Co2_6 O22_3 1_555 1_555
Co16_4 O21_3 1_555 1_555
O21_3 H1_6 1_555 1_555
O22_3 H2_6 1_555 1_555
O24_3 C1_6 1_555 1_555
O5_6 Co2_6 1_555 1_555
O6_6 Co12_2 1_555 1_555
O11_6 Co13 1_555 1_555
O27_3 C24_6 1_555 1_555
O28_3 C17_6 1_555 1_555
O14_6 Co2_6 1_555 1_555
O15_6 Co2_6 1_555 1_555
O16_6 C8_6 1_555 1_555
O17_6 Co13 1_555 1_555
O18_6 Co2_6 1_555 1_555
N1_4 H3_6 1_555 1_555
H4_6 N1_4 1_555 1_555
N6_2 H5_6 1_555 1_555
H6_6 N6_2 1_555 1_555
N7_2 H7_6 1_555 1_555
H8_6 N7_2 1_555 1_555
C1_6 C5_6 1_555 1_555
C2_5 H11_5 1_555 1_555
C3_6 C2_5 1_555 1_555
C4_6 C3_6 1_555 1_555
H12_6 C4_6 1_555 1_555
C5_6 C4_6 1_555 1_555
C6_5 C5_6 1_555 1_555
H13_5 C6_5 1_555 1_555
C7_5 N6_2 1_555 1_555
C8_6 O15_6 1_555 1_555
C10_6 H14_6 1_555 1_555
C11_6 N1_4 1_555 1_555
H16_6 C14_6 1_555 1_555
C15_6 C10_6 1_555 1_555
C16_6 O5_6 1_555 1_555
C17_6 O14_6 1_555 1_555
C18_6 C19_6 1_555 1_555
C19_6 H17_6 1_555 1_555
C20_6 C17_6 1_555 1_555
C21_6 C20_6 1_555 1_555
H18_6 C21_6 1_555 1_555
C22_6 N7_2 1_555 1_555
C23_6 C18_6 1_555 1_555
H19_6 C23_6 1_555 1_555
C24_6 O11_6 1_555 1_555
H23_6 O17_6 1_555 1_555
H24_6 O17_6 1_555 1_555
H25_6 O18_6 1_555 1_555
H26_6 O18_6 1_555 1_555
Co12_3 N1_4 1_555 1_555
N5_4 Co12_2 1_555 1_555
O6_6 C16_6 1_555 1_555
C2_5 C7_5 1_555 1_555
C3_6 C8_6 1_555 1_555
C6_5 C7_5 1_555 1_555
C10_6 C11_6 1_555 1_555
C14_6 C15_6 1_555 1_555
C15_6 C16_6 1_555 1_555
C18_6 C24_6 1_555 1_555
C19_6 C20_6 1_555 1_555
C21_6 C22_6 1_555 1_555
C22_6 C23_6 1_555 1_555
O3_3 C1_7 1_555 1_555
O4_4 C1_7 1_555 1_555
O5_7 Co2_7 1_555 1_555
O14_7 Co2_7 1_555 1_555
O15_7 Co2_7 1_555 1_555
O18_7 Co2_7 1_555 1_555
O19_4 C9_7 1_555 1_555
O20_3 C9_7 1_555 1_555
N5_4 H3_7 1_555 1_555
H4_7 N5_4 1_555 1_555
C1_7 C5_7 1_555 1_555
C4_7 C3_7 1_555 1_555
H12_7 C4_7 1_555 1_555
C5_7 C4_7 1_555 1_555
C8_7 O15_7 1_555 1_555
C9_7 C13_7 1_555 1_555
C10_7 H14_7 1_555 1_555
C11_7 N5_4 1_555 1_555
C12_7 C11_7 1_555 1_555
H15_7 C12_7 1_555 1_555
C13_7 C12_7 1_555 1_555
C14_7 C13_7 1_555 1_555
H16_7 C14_7 1_555 1_555
C15_7 C10_7 1_555 1_555
C16_7 O5_7 1_555 1_555
H25_7 O18_7 1_555 1_555
H26_7 O18_7 1_555 1_555
Co8_3 O3_3 1_555 1_555
Co12_3 O20_3 1_555 1_555
Co13_2 O19_4 1_555 1_555
Co16_2 O4_4 1_555 1_555
O6_7 C16_7 1_555 1_555
C3_7 C8_7 1_555 1_555
C10_7 C11_7 1_555 1_555
C14_7 C15_7 1_555 1_555
C15_7 C16_7 1_555 1_555
Co8_3 O16_7 1_555 1_555
Co12_3 O2_4 1_555 1_555
O2_4 H2_7 1_555 1_555
O13_4 C17_7 1_555 1_555
Co13_2 O2_4 1_555 1_555
O21_4 Co8_3 1_555 1_555
O27_4 Co12_3 1_555 1_555
O13_4 Co13_2 1_555 1_555
Co13_2 O21_4 1_555 1_555
N6_3 H5_7 1_555 1_555
H6_7 N6_3 1_555 1_555
N7_3 H7_7 1_555 1_555
H8_7 N7_3 1_555 1_555
N8_3 H9_7 1_555 1_555
H10_7 N8_3 1_555 1_555
C22_7 N7_3 1_555 1_555
C23_7 C18_7 1_555 1_555
H19_7 C23_7 1_555 1_555
C21_7 C22_7 1_555 1_555
C22_7 C23_7 1_555 1_555
Co4_4 O1_4 1_555 1_555
Co16 O1_4 1_555 1_555
O1_4 H1_7 1_555 1_555
O25 C32_7 1_555 1_555
O8_7 C32_7 1_555 1_555
O9_4 C25_7 1_555 1_555
O10_7 Co16 1_555 1_555
O11_7 Co4_4 1_555 1_555
O12_4 C24_7 1_555 1_555
O17_7 Co4_4 1_555 1_555
C19_7 H17_7 1_555 1_555
C24_7 O11_7 1_555 1_555
C25_7 O10_7 1_555 1_555
C26_7 H20_7 1_555 1_555
C27_7 C25_7 1_555 1_555
C28_7 C27_7 1_555 1_555
H21_7 C28_7 1_555 1_555
C30_7 C29_7 1_555 1_555
C31_7 C26_7 1_555 1_555
C32_7 C31_7 1_555 1_555
H23_7 O17_7 1_555 1_555
H24_7 O17_7 1_555 1_555
Co8_4 O1_4 1_555 1_555
Co12_4 O12_4 1_555 1_555
O22_4 Co4_4 1_555 1_555
O24_4 Co16 1_555 1_555
O28_4 Co4_4 1_555 1_555
O29_4 Co4_4 1_555 1_555
O9_4 Co8_4 1_555 1_555
C26_7 C27_7 1_555 1_555
C28_7 C29_7 1_555 1_555
C30_7 C31_7 1_555 1_555
Co12_4 O22_4 1_555 1_555
N8_4 H9_8 1_555 1_555
H10_8 N8_4 1_555 1_555
N6_4 H5_8 1_555 1_555
H6_8 N6_4 1_555 1_555
N7_4 H7_8 1_555 1_555
H8_8 N7_4 1_555 1_555
C22_8 N7_4 1_555 1_555
C23_8 C18_8 1_555 1_555
H19_8 C23_8 1_555 1_555
C21_8 C22_8 1_555 1_555
C22_8 C23_8 1_555 1_555
O25_2 C32_8 1_555 1_555
O8_8 C32_8 1_555 1_555
O26_4 C25_8 1_555 1_555
C25_8 O10_8 1_555 1_555
C26_8 H20_8 1_555 1_555
C27_8 C25_8 1_555 1_555
C28_8 C27_8 1_555 1_555
H21_8 C28_8 1_555 1_555
C30_8 C29_8 1_555 1_555
C31_8 C26_8 1_555 1_555
C32_8 C31_8 1_555 1_555
C26_8 C27_8 1_555 1_555
C28_8 C29_8 1_555 1_555
C30_8 C31_8 1_555 1_555
Co16_2 O21_4 1_555 1_555
O21_4 H1_8 1_555 1_555
O11_8 Co13_2 1_555 1_555
O27_4 C24_8 1_555 1_555
O17_8 Co13_2 1_555 1_555
C19_8 H17_8 1_555 1_555
C24_8 O11_8 1_555 1_555
H23_8 O17_8 1_555 1_555
H24_8 O17_8 1_555 1_555
O3_4 C1_8 1_555 1_555
O24_4 C1_8 1_555 1_555
O5_8 Co2_8 1_555 1_555
O14_8 Co2_8 1_555 1_555
O15_8 Co2_8 1_555 1_555
O18_8 Co2_8 1_555 1_555
O29_4 C9_8 1_555 1_555
O20_4 C9_8 1_555 1_555
N5_3 H3_8 1_555 1_555
H4_8 N5_3 1_555 1_555
C1_8 C5_8 1_555 1_555
C2_6 H11_6 1_555 1_555
C3_8 C2_6 1_555 1_555
C4_8 C3_8 1_555 1_555
H12_8 C4_8 1_555 1_555
C5_8 C4_8 1_555 1_555
C6_6 C5_8 1_555 1_555
H13_6 C6_6 1_555 1_555
C8_8 O15_8 1_555 1_555
C9_8 C13_8 1_555 1_555
C10_8 H14_8 1_555 1_555
C11_8 N5_3 1_555 1_555
C12_8 C11_8 1_555 1_555
H15_8 C12_8 1_555 1_555
C13_8 C12_8 1_555 1_555
C14_8 C13_8 1_555 1_555
H16_8 C14_8 1_555 1_555
C15_8 C10_8 1_555 1_555
C16_8 O5_8 1_555 1_555
H25_8 O18_8 1_555 1_555
H26_8 O18_8 1_555 1_555
Co8_4 O3_4 1_555 1_555
Co12_4 O20_4 1_555 1_555
O6_8 C16_8 1_555 1_555
C2_6 C7_6 1_555 1_555
C3_8 C8_8 1_555 1_555
C6_6 C7_6 1_555 1_555
C10_8 C11_8 1_555 1_555
C14_8 C15_8 1_555 1_555
C15_8 C16_8 1_555 1_555
Co8_4 O16_8 1_555 1_555
O22_4 H2_8 1_555 1_555
O28_4 C17_8 1_555 1_555
C2_7 H11_7 1_555 1_555
H13_7 C6_7 1_555 1_555
C2_7 C7_7 1_555 1_555
C6_7 C7_7 1_555 1_555
C2_8 H11_8 1_555 1_555
H13_8 C6_8 1_555 1_555
C2_8 C7_8 1_555 1_555
C6_8 C7_8 1_555 1_555

#END
