
###############################################################################
#
# This file contains modified crystal structure data generated from the
# MOF subset of the Cambridge Structural Database (CSD) v543 
# hosted by the Cambridge Crystallographic Data Centre (CCDC).
#
# This work is licensed under the Creative Commons
# Attribution-NonCommercial-ShareAlike 4.0 International License.
# To view a copy of this license, visit
# http://creativecommons.org/licenses/by-nc-sa/4.0/
# or send a letter to
# Creative Commons, PO Box 1866, Mountain View, CA 94042, USA.
#
# CIF created using the CSD Python API on 29 September 2022
# The structure has been converted into the P1 space group
# The structure has a 3D framework
# The original CSD entry WOJZIG is in the monoclinic crystal system
# The framework has been calculated to contain at least 10.0% void space
# The void calculation uses a probe of radius 1.32A, grid spacing 0.4
# H atom positions have been added when not included in the experimental data
#
###############################################################################

data_WOJZIG
_chemical_formula_moiety         '(C144 H128 Eu8 N8 O64)n'
_symmetry_cell_setting           triclinic
_symmetry_space_group_name_H-M   'P 1'
_symmetry_Int_Tables_number      1
_space_group_name_Hall           'P 1'
loop_
_symmetry_equiv_pos_site_id
_symmetry_equiv_pos_as_xyz
1 x,y,z
_cell_length_a                   24.5711(7)
_cell_length_b                   13.2963(4)
_cell_length_c                   14.7313(5)
_cell_angle_alpha                90
_cell_angle_beta                 96.735(3)
_cell_angle_gamma                90
_cell_volume                     4779.57
loop_
_atom_site_label
_atom_site_type_symbol
_atom_site_fract_x
_atom_site_fract_y
_atom_site_fract_z
H15 H 0.356854 0.00206097 0.0827454
Eu1 Eu 0.328769(12) 0.79250(2) 0.030196(19)
O7 O 0.3767(3) 0.9397(6) 0.1038(5)
O8 O 0.3738(3) 0.7318(6) 0.1759(5)
N1 N 0.3896(8) 0.6501(16) 0.3127(8)
C16 C 0.3546(8) 0.6970(15) 0.2395(10)
H8 H 0.3170 0.7000 0.2419
C17 C 0.3616(10) 0.5969(19) 0.3822(15)
H9 H 0.3884 0.5684 0.4276
H10 H 0.3390 0.5443 0.3534
H11 H 0.3391 0.6436 0.4108
C18 C 0.4467(8) 0.664(3) 0.3171(17)
H12 H 0.4547 0.7080 0.2689
H13 H 0.4641 0.6000 0.3104
H14 H 0.4603 0.6926 0.3751
O9 O 0.27431(19) 0.8507(4) 0.1461(3)
O12 O 0.2749(2) 0.6470(3) 0.0424(3)
H16 H 0.377866 0.933842 0.1712
O1 O 0.3045(2) 0.7343(4) 0.8794(3)
O2 O 0.22569(19) 0.6493(4) 0.8539(3)
O3 O 0.2016(2) 0.4396(4) 0.5624(4)
O4 O 0.2749(2) 0.3530(3) 0.5424(3)
O5 O 0.6006(2) 0.6660(4) 0.5007(4)
O6 O 0.5869(2) 0.8197(4) 0.5438(4)
C1 C 0.2731(3) 0.6724(5) 0.8365(4)
C2 C 0.2951(3) 0.6214(5) 0.7562(4)
C3 C 0.2642(3) 0.5519(5) 0.7024(4)
H1 H 0.2284 0.5384 0.7133
C4 C 0.2862(3) 0.5024(5) 0.6327(4)
C5 C 0.2520(3) 0.4264(5) 0.5768(4)
C6 C 0.3392(3) 0.5240(5) 0.6151(5)
H2 H 0.3545 0.4878 0.5704
C7 C 0.3700(3) 0.5991(5) 0.6634(5)
C8 C 0.3470(3) 0.6449(5) 0.7364(4)
H3 H 0.3675 0.6922 0.7723
C9 C 0.4240(3) 0.6311(5) 0.6387(5)
C10 C 0.4599(3) 0.5635(6) 0.6059(5)
H4 H 0.4507 0.4957 0.6023
C11 C 0.5089(3) 0.5944(6) 0.5784(5)
H5 H 0.5326 0.5470 0.5584
C12 C 0.5232(3) 0.6957(5) 0.5800(5)
C13 C 0.5737(3) 0.7281(5) 0.5390(5)
C14 C 0.4885(3) 0.7620(6) 0.6153(6)
H6 H 0.4980 0.8297 0.6194
C15 C 0.4402(3) 0.7314(6) 0.6447(6)
H7 H 0.4179 0.7784 0.6691
Eu2 Eu 0.671231(12) 0.79250(2) 0.469804(19)
Eu3 Eu 0.171231(12) 0.29250(2) 0.469804(19)
Eu4 Eu 0.328769(12) 0.20750(2) 0.530196(19)
Eu5 Eu 0.171231(12) 0.70750(2) 0.969804(19)
O10 O 0.2984(2) 0.9396(4) 0.9376(4)
O11 O 0.2251(2) 0.8530(3) 0.9576(3)
O13 O 0.3994(2) 0.6660(4) 0.9993(4)
O14 O 0.4131(2) 0.8197(4) 0.9562(4)
Eu3_2 Eu 0.828769(12) 0.29250(2) 0.030196(19)
O1_2 O 0.6955(2) 0.7343(4) 0.6206(3)
O2_2 O 0.77431(19) 0.6493(4) 0.6461(3)
O3_2 O 0.7984(2) 0.4396(4) 0.9376(4)
O4_2 O 0.7251(2) 0.3530(3) 0.9576(3)
O7_2 O 0.6233(3) 0.9397(6) 0.3962(5)
O8_2 O 0.6262(3) 0.7318(6) 0.3241(5)
C1_2 C 0.7269(3) 0.6724(5) 0.6635(4)
C2_2 C 0.7049(3) 0.6214(5) 0.7438(4)
C3_2 C 0.7358(3) 0.5519(5) 0.7976(4)
H1_2 H 0.7716 0.5384 0.7867
C4_2 C 0.7138(3) 0.5024(5) 0.8673(4)
C5_2 C 0.7480(3) 0.4264(5) 0.9232(4)
C6_2 C 0.6608(3) 0.5240(5) 0.8849(5)
H2_2 H 0.6455 0.4878 0.9296
C7_2 C 0.6300(3) 0.5991(5) 0.8366(5)
C8_2 C 0.6530(3) 0.6449(5) 0.7636(4)
H3_2 H 0.6325 0.6922 0.7277
C9_2 C 0.5760(3) 0.6311(5) 0.8613(5)
C10_2 C 0.5401(3) 0.5635(6) 0.8941(5)
H4_2 H 0.5493 0.4957 0.8977
C11_2 C 0.4911(3) 0.5944(6) 0.9216(5)
H5_2 H 0.4674 0.5470 0.9416
C12_2 C 0.4768(3) 0.6957(5) 0.9200(5)
C13_2 C 0.4263(3) 0.7281(5) 0.9610(5)
C14_2 C 0.5115(3) 0.7620(6) 0.8847(6)
H6_2 H 0.5020 0.8297 0.8806
C15_2 C 0.5598(3) 0.7314(6) 0.8553(6)
H7_2 H 0.5821 0.7784 0.8309
N1_2 N 0.6104(8) 0.6501(16) 0.1873(8)
C16_2 C 0.6454(8) 0.6970(15) 0.2605(10)
H8_2 H 0.6830 0.7000 0.2581
C17_2 C 0.6384(10) 0.5969(19) 0.1178(15)
H9_2 H 0.6116 0.5684 0.0724
H10_2 H 0.6610 0.5443 0.1466
H11_2 H 0.6609 0.6436 0.0892
C18_2 C 0.5533(8) 0.664(3) 0.1829(17)
H12_2 H 0.5453 0.7080 0.2311
H13_2 H 0.5359 0.6000 0.1896
H14_2 H 0.5397 0.6926 0.1249
Eu4_2 Eu 0.671231(12) 0.20750(2) 0.969804(19)
Eu5_2 Eu 0.828769(12) 0.70750(2) 0.530196(19)
O9_2 O 0.72569(19) 0.8507(4) 0.3539(3)
O10_2 O 0.7016(2) 0.9396(4) 0.5624(4)
O11_2 O 0.7749(2) 0.8530(3) 0.5424(3)
O12_2 O 0.7251(2) 0.6470(3) 0.4576(3)
H16_2 H 0.622134 0.933842 0.3288
O5_2 O 0.1006(2) 0.1660(4) 0.5007(4)
O6_2 O 0.0869(2) 0.3197(4) 0.5438(4)
C11_3 C 0.0089(3) 0.0944(6) 0.5784(5)
H5_3 H 0.0326 0.0470 0.5584
C12_3 C 0.0232(3) 0.1957(5) 0.5800(5)
C13_3 C 0.0737(3) 0.2281(5) 0.5390(5)
O7_3 O 0.8767(3) 0.4397(6) 0.1038(5)
O8_3 O 0.8738(3) 0.2318(6) 0.1759(5)
N1_3 N 0.8896(8) 0.1501(16) 0.3127(8)
C16_3 C 0.8546(8) 0.1970(15) 0.2395(10)
H8_3 H 0.8170 0.2000 0.2419
C17_3 C 0.8616(10) 0.0969(19) 0.3822(15)
H9_3 H 0.8884 0.0684 0.4276
H10_3 H 0.8390 0.0443 0.3534
H11_3 H 0.8391 0.1436 0.4108
C18_3 C 0.9467(8) 0.164(3) 0.3171(17)
H12_3 H 0.9547 0.2080 0.2689
H13_3 H 0.9641 0.1000 0.3104
H14_3 H 0.9603 0.1926 0.3751
O9_3 O 0.77431(19) 0.3507(4) 0.1461(3)
O12_3 O 0.7749(2) 0.1470(3) 0.0424(3)
H15_2 H 0.856854 0.502061 0.0827454
H16_3 H 0.877866 0.433842 0.1712
O1_3 O 0.8045(2) 0.2343(4) 0.8794(3)
O2_3 O 0.72569(19) 0.1493(4) 0.8539(3)
C1_3 C 0.7731(3) 0.1724(5) 0.8365(4)
C2_3 C 0.7951(3) 0.1214(5) 0.7562(4)
C3_3 C 0.7642(3) 0.0519(5) 0.7024(4)
H1_3 H 0.7284 0.0384 0.7133
C4_3 C 0.7862(3) 0.0024(5) 0.6327(4)
C6_3 C 0.8392(3) 0.0240(5) 0.6151(5)
C7_3 C 0.8700(3) 0.0991(5) 0.6634(5)
C8_3 C 0.8470(3) 0.1449(5) 0.7364(4)
H3_3 H 0.8675 0.1922 0.7723
C9_3 C 0.9240(3) 0.1311(5) 0.6387(5)
C10_3 C 0.9599(3) 0.0635(6) 0.6059(5)
C14_3 C 0.9885(3) 0.2620(6) 0.6153(6)
H6_3 H 0.9980 0.3297 0.6194
C15_3 C 0.9402(3) 0.2314(6) 0.6447(6)
H7_3 H 0.9179 0.2784 0.6691
O13_2 O 0.8994(2) 0.1660(4) 0.9993(4)
O14_2 O 0.9131(2) 0.3197(4) 0.9562(4)
C5_3 C 0.7520(3) 0.9264(5) 0.5768(4)
H2_3 H 0.8545 0.9878 0.5704
H4_3 H 0.9507 0.9957 0.6023
O1_4 O 0.1955(2) 0.2343(4) 0.6206(3)
O2_4 O 0.27431(19) 0.1493(4) 0.6461(3)
O7_4 O 0.1233(3) 0.4397(6) 0.3962(5)
O8_4 O 0.1262(3) 0.2318(6) 0.3241(5)
C1_4 C 0.2269(3) 0.1724(5) 0.6635(4)
C2_4 C 0.2049(3) 0.1214(5) 0.7438(4)
C3_4 C 0.2358(3) 0.0519(5) 0.7976(4)
H1_4 H 0.2716 0.0384 0.7867
C4_4 C 0.2138(3) 0.0024(5) 0.8673(4)
C6_4 C 0.1608(3) 0.0240(5) 0.8849(5)
C7_4 C 0.1300(3) 0.0991(5) 0.8366(5)
C8_4 C 0.1530(3) 0.1449(5) 0.7636(4)
H3_4 H 0.1325 0.1922 0.7277
C9_4 C 0.0760(3) 0.1311(5) 0.8613(5)
C10_4 C 0.0401(3) 0.0635(6) 0.8941(5)
C14_4 C 0.0115(3) 0.2620(6) 0.8847(6)
H6_4 H 0.0020 0.3297 0.8806
C15_4 C 0.0598(3) 0.2314(6) 0.8553(6)
H7_4 H 0.0821 0.2784 0.8309
N1_4 N 0.1104(8) 0.1501(16) 0.1873(8)
C16_4 C 0.1454(8) 0.1970(15) 0.2605(10)
H8_4 H 0.1830 0.2000 0.2581
C17_4 C 0.1384(10) 0.0969(19) 0.1178(15)
H9_4 H 0.1116 0.0684 0.0724
H10_4 H 0.1610 0.0443 0.1466
H11_4 H 0.1609 0.1436 0.0892
C18_4 C 0.0533(8) 0.164(3) 0.1829(17)
H12_4 H 0.0453 0.2080 0.2311
H13_4 H 0.0359 0.1000 0.1896
H14_4 H 0.0397 0.1926 0.1249
O9_4 O 0.22569(19) 0.3507(4) 0.3539(3)
O12_4 O 0.2251(2) 0.1470(3) 0.4576(3)
H15_3 H 0.143146 0.502061 0.417255
H16_4 H 0.122134 0.433842 0.3288
C5_4 C 0.2480(3) 0.9264(5) 0.9232(4)
H2_4 H 0.1455 0.9878 0.9296
H4_4 H 0.0493 0.9957 0.8977
C11_4 C 0.9911(3) 0.0944(6) 0.9216(5)
H5_4 H 0.9674 0.0470 0.9416
C12_4 C 0.9768(3) 0.1957(5) 0.9200(5)
C13_4 C 0.9263(3) 0.2281(5) 0.9610(5)
O1_5 O 0.6955(2) 0.2657(4) 0.1206(3)
O3_3 O 0.7984(2) 0.5604(4) 0.4376(4)
O5_3 O 0.3994(2) 0.3340(4) 0.4993(4)
O6_3 O 0.4131(2) 0.1803(4) 0.4562(4)
C1_5 C 0.7269(3) 0.3276(5) 0.1635(4)
C2_5 C 0.7049(3) 0.3786(5) 0.2438(4)
C3_5 C 0.7358(3) 0.4481(5) 0.2976(4)
H1_5 H 0.7716 0.4616 0.2867
C4_5 C 0.7138(3) 0.4976(5) 0.3673(4)
C5_5 C 0.7480(3) 0.5736(5) 0.4232(4)
C6_5 C 0.6608(3) 0.4760(5) 0.3849(5)
H2_5 H 0.6455 0.5122 0.4296
C7_5 C 0.6300(3) 0.4009(5) 0.3366(5)
C8_5 C 0.6530(3) 0.3551(5) 0.2636(4)
H3_5 H 0.6325 0.3078 0.2277
C9_5 C 0.5760(3) 0.3689(5) 0.3613(5)
C10_5 C 0.5401(3) 0.4365(6) 0.3941(5)
H4_5 H 0.5493 0.5043 0.3977
C11_5 C 0.4911(3) 0.4056(6) 0.4216(5)
H5_5 H 0.4674 0.4530 0.4416
C12_5 C 0.4768(3) 0.3043(5) 0.4200(5)
C13_5 C 0.4263(3) 0.2719(5) 0.4610(5)
C14_5 C 0.5115(3) 0.2380(6) 0.3847(6)
H6_5 H 0.5020 0.1703 0.3806
C15_5 C 0.5598(3) 0.2686(6) 0.3553(6)
H7_5 H 0.5821 0.2216 0.3309
O10_3 O 0.7016(2) 0.0604(4) 0.0624(4)
O13_3 O 0.6006(2) 0.3340(4) 0.0007(4)
O14_3 O 0.5869(2) 0.1803(4) 0.0438(4)
O7_5 O 0.6233(3) 0.0603(6) 0.8962(5)
O8_5 O 0.6262(3) 0.2682(6) 0.8241(5)
N1_5 N 0.6104(8) 0.3499(16) 0.6873(8)
C16_5 C 0.6454(8) 0.3030(15) 0.7605(10)
H8_5 H 0.6830 0.3000 0.7581
C17_5 C 0.6384(10) 0.4031(19) 0.6178(15)
H9_5 H 0.6116 0.4316 0.5724
H10_5 H 0.6610 0.4557 0.6466
H11_5 H 0.6609 0.3564 0.5892
C18_5 C 0.5533(8) 0.336(3) 0.6829(17)
H12_5 H 0.5453 0.2920 0.7311
H13_5 H 0.5359 0.4000 0.6896
H14_5 H 0.5397 0.3074 0.6249
H16_5 H 0.622134 0.0661577 0.8288
O1_6 O 0.3045(2) 0.2657(4) 0.3794(3)
O3_4 O 0.2016(2) 0.5604(4) 0.0624(4)
O7_6 O 0.3767(3) 0.0603(6) 0.6038(5)
O8_6 O 0.3738(3) 0.2682(6) 0.6759(5)
C1_6 C 0.2731(3) 0.3276(5) 0.3365(4)
C2_6 C 0.2951(3) 0.3786(5) 0.2562(4)
C3_6 C 0.2642(3) 0.4481(5) 0.2024(4)
H1_6 H 0.2284 0.4616 0.2133
C4_6 C 0.2862(3) 0.4976(5) 0.1327(4)
C5_6 C 0.2520(3) 0.5736(5) 0.0768(4)
C6_6 C 0.3392(3) 0.4760(5) 0.1151(5)
H2_6 H 0.3545 0.5122 0.0704
C7_6 C 0.3700(3) 0.4009(5) 0.1634(5)
C8_6 C 0.3470(3) 0.3551(5) 0.2364(4)
H3_6 H 0.3675 0.3078 0.2723
C9_6 C 0.4240(3) 0.3689(5) 0.1387(5)
C10_6 C 0.4599(3) 0.4365(6) 0.1059(5)
H4_6 H 0.4507 0.5043 0.1023
C11_6 C 0.5089(3) 0.4056(6) 0.0784(5)
H5_6 H 0.5326 0.4530 0.0584
C12_6 C 0.5232(3) 0.3043(5) 0.0800(5)
C13_6 C 0.5737(3) 0.2719(5) 0.0390(5)
C14_6 C 0.4885(3) 0.2380(6) 0.1153(6)
H6_6 H 0.4980 0.1703 0.1194
C15_6 C 0.4402(3) 0.2686(6) 0.1447(6)
H7_6 H 0.4179 0.2216 0.1691
N1_6 N 0.3896(8) 0.3499(16) 0.8127(8)
C16_6 C 0.3546(8) 0.3030(15) 0.7395(10)
H8_6 H 0.3170 0.3000 0.7419
C17_6 C 0.3616(10) 0.4031(19) 0.8822(15)
H9_6 H 0.3884 0.4316 0.9276
H10_6 H 0.3390 0.4557 0.8534
H11_6 H 0.3391 0.3564 0.9108
C18_6 C 0.4467(8) 0.336(3) 0.8171(17)
H12_6 H 0.4547 0.2920 0.7689
H13_6 H 0.4641 0.4000 0.8104
H14_6 H 0.4603 0.3074 0.8751
O10_4 O 0.2984(2) 0.0604(4) 0.4376(4)
H16_6 H 0.377866 0.0661577 0.6712
C5_7 C 0.2480(3) 0.0736(5) 0.4232(4)
H2_7 H 0.1455 0.0122 0.4296
H4_7 H 0.0493 0.0043 0.3977
O1_7 O 0.1955(2) 0.7657(4) 0.1206(3)
C1_7 C 0.2269(3) 0.8276(5) 0.1635(4)
C2_7 C 0.2049(3) 0.8786(5) 0.2438(4)
C3_7 C 0.2358(3) 0.9481(5) 0.2976(4)
H1_7 H 0.2716 0.9616 0.2867
C4_7 C 0.2138(3) 0.9976(5) 0.3673(4)
C6_7 C 0.1608(3) 0.9760(5) 0.3849(5)
C7_7 C 0.1300(3) 0.9009(5) 0.3366(5)
C8_7 C 0.1530(3) 0.8551(5) 0.2636(4)
H3_7 H 0.1325 0.8078 0.2277
C9_7 C 0.0760(3) 0.8689(5) 0.3613(5)
C10_7 C 0.0401(3) 0.9365(6) 0.3941(5)
C14_7 C 0.0115(3) 0.7380(6) 0.3847(6)
H6_7 H 0.0020 0.6703 0.3806
C15_7 C 0.0598(3) 0.7686(6) 0.3553(6)
H7_7 H 0.0821 0.7216 0.3309
O13_4 O 0.1006(2) 0.8340(4) 0.0007(4)
O14_4 O 0.0869(2) 0.6803(4) 0.0438(4)
O7_7 O 0.1233(3) 0.5603(6) 0.8962(5)
O8_7 O 0.1262(3) 0.7682(6) 0.8241(5)
N1_7 N 0.1104(8) 0.8499(16) 0.6873(8)
C16_7 C 0.1454(8) 0.8030(15) 0.7605(10)
H8_7 H 0.1830 0.8000 0.7581
C17_7 C 0.1384(10) 0.9031(19) 0.6178(15)
H9_7 H 0.1116 0.9316 0.5724
H10_7 H 0.1610 0.9557 0.6466
H11_7 H 0.1609 0.8564 0.5892
C18_7 C 0.0533(8) 0.836(3) 0.6829(17)
H12_7 H 0.0453 0.7920 0.7311
H13_7 H 0.0359 0.9000 0.6896
H14_7 H 0.0397 0.8074 0.6249
H15_4 H 0.143146 0.497939 0.917255
H16_7 H 0.122134 0.566158 0.8288
O5_4 O 0.8994(2) 0.8340(4) 0.4993(4)
O6_4 O 0.9131(2) 0.6803(4) 0.4562(4)
C11_7 C 0.9911(3) 0.9056(6) 0.4216(5)
H5_7 H 0.9674 0.9530 0.4416
C12_7 C 0.9768(3) 0.8043(5) 0.4200(5)
C13_7 C 0.9263(3) 0.7719(5) 0.4610(5)
C11_8 C 0.0089(3) 0.9056(6) 0.0784(5)
H5_8 H 0.0326 0.9530 0.0584
C12_8 C 0.0232(3) 0.8043(5) 0.0800(5)
C13_8 C 0.0737(3) 0.7719(5) 0.0390(5)
C5_8 C 0.7520(3) 0.0736(5) 0.0768(4)
H2_8 H 0.8545 0.0122 0.0704
H4_8 H 0.9507 0.0043 0.1023
O1_8 O 0.8045(2) 0.7657(4) 0.3794(3)
O7_8 O 0.8767(3) 0.5603(6) 0.6038(5)
O8_8 O 0.8738(3) 0.7682(6) 0.6759(5)
C1_8 C 0.7731(3) 0.8276(5) 0.3365(4)
C2_8 C 0.7951(3) 0.8786(5) 0.2562(4)
C3_8 C 0.7642(3) 0.9481(5) 0.2024(4)
H1_8 H 0.7284 0.9616 0.2133
C4_8 C 0.7862(3) 0.9976(5) 0.1327(4)
C6_8 C 0.8392(3) 0.9760(5) 0.1151(5)
C7_8 C 0.8700(3) 0.9009(5) 0.1634(5)
C8_8 C 0.8470(3) 0.8551(5) 0.2364(4)
H3_8 H 0.8675 0.8078 0.2723
C9_8 C 0.9240(3) 0.8689(5) 0.1387(5)
C10_8 C 0.9599(3) 0.9365(6) 0.1059(5)
C14_8 C 0.9885(3) 0.7380(6) 0.1153(6)
H6_8 H 0.9980 0.6703 0.1194
C15_8 C 0.9402(3) 0.7686(6) 0.1447(6)
H7_8 H 0.9179 0.7216 0.1691
N1_8 N 0.8896(8) 0.8499(16) 0.8127(8)
C16_8 C 0.8546(8) 0.8030(15) 0.7395(10)
H8_8 H 0.8170 0.8000 0.7419
C17_8 C 0.8616(10) 0.9031(19) 0.8822(15)
H9_8 H 0.8884 0.9316 0.9276
H10_8 H 0.8390 0.9557 0.8534
H11_8 H 0.8391 0.8564 0.9108
C18_8 C 0.9467(8) 0.836(3) 0.8171(17)
H12_8 H 0.9547 0.7920 0.7689
H13_8 H 0.9641 0.9000 0.8104
H14_8 H 0.9603 0.8074 0.8751
H15_5 H 0.856854 0.497939 0.582745
H16_8 H 0.877866 0.566158 0.6712
H15_6 H 0.643146 0.00206097 0.417255
H15_7 H 0.643146 0.997939 0.917255
H15_8 H 0.356854 0.997939 0.582745
loop_
_geom_bond_atom_site_label_1
_geom_bond_atom_site_label_2
_geom_bond_site_symmetry_1
_geom_bond_site_symmetry_2
O7 Eu1 1_555 1_555
O8 Eu1 1_555 1_555
N1 C16 1_555 1_555
C16 O8 1_555 1_555
H8 C16 1_555 1_555
C17 N1 1_555 1_555
H9 C17 1_555 1_555
H10 C17 1_555 1_555
H11 C17 1_555 1_555
C18 N1 1_555 1_555
H12 C18 1_555 1_555
H13 C18 1_555 1_555
H14 C18 1_555 1_555
O9 Eu1 1_555 1_555
O12 Eu1 1_555 1_555
O7 H16 1_555 1_555
O1 C1 1_555 1_555
O2 C1 1_555 1_555
O3 C5 1_555 1_555
O4 C5 1_555 1_555
O5 C13 1_555 1_555
O6 C13 1_555 1_555
C1 C2 1_555 1_555
C2 C3 1_555 1_555
C3 H1 1_555 1_555
C4 C3 1_555 1_555
C5 C4 1_555 1_555
C6 C4 1_555 1_555
H2 C6 1_555 1_555
C7 C6 1_555 1_555
C8 C2 1_555 1_555
H3 C8 1_555 1_555
C9 C7 1_555 1_555
C10 C9 1_555 1_555
H4 C10 1_555 1_555
C11 C10 1_555 1_555
H5 C11 1_555 1_555
C12 C11 1_555 1_555
C13 C12 1_555 1_555
C14 C12 1_555 1_555
H6 C14 1_555 1_555
C15 C9 1_555 1_555
H7 C15 1_555 1_555
Eu2 O5 1_555 1_555
Eu3 O3 1_555 1_555
Eu4 O4 1_555 1_555
Eu5 O2 1_555 1_555
O4 Eu3 1_555 1_555
O6 Eu2 1_555 1_555
C7 C8 1_555 1_555
C14 C15 1_555 1_555
Eu5 O11 1_555 1_555
Eu2 O1_2 1_555 1_555
O1_2 C1_2 1_555 1_555
O2_2 C1_2 1_555 1_555
O3_2 C5_2 1_555 1_555
O4_2 C5_2 1_555 1_555
O13 C13_2 1_555 1_555
O14 C13_2 1_555 1_555
O7_2 Eu2 1_555 1_555
O8_2 Eu2 1_555 1_555
C1_2 C2_2 1_555 1_555
C2_2 C3_2 1_555 1_555
C3_2 H1_2 1_555 1_555
C4_2 C3_2 1_555 1_555
C5_2 C4_2 1_555 1_555
C6_2 C4_2 1_555 1_555
H2_2 C6_2 1_555 1_555
C7_2 C6_2 1_555 1_555
C8_2 C2_2 1_555 1_555
H3_2 C8_2 1_555 1_555
C9_2 C7_2 1_555 1_555
C10_2 C9_2 1_555 1_555
H4_2 C10_2 1_555 1_555
C11_2 C10_2 1_555 1_555
H5_2 C11_2 1_555 1_555
C12_2 C11_2 1_555 1_555
C13_2 C12_2 1_555 1_555
C14_2 C12_2 1_555 1_555
H6_2 C14_2 1_555 1_555
C15_2 C9_2 1_555 1_555
H7_2 C15_2 1_555 1_555
N1_2 C16_2 1_555 1_555
C16_2 O8_2 1_555 1_555
H8_2 C16_2 1_555 1_555
C17_2 N1_2 1_555 1_555
H9_2 C17_2 1_555 1_555
H10_2 C17_2 1_555 1_555
H11_2 C17_2 1_555 1_555
C18_2 N1_2 1_555 1_555
H12_2 C18_2 1_555 1_555
H13_2 C18_2 1_555 1_555
H14_2 C18_2 1_555 1_555
Eu4_2 O4_2 1_555 1_555
Eu5_2 O2_2 1_555 1_555
O9_2 Eu2 1_555 1_555
O10_2 Eu2 1_555 1_555
O11_2 Eu2 1_555 1_555
O12_2 Eu2 1_555 1_555
C7_2 C8_2 1_555 1_555
C14_2 C15_2 1_555 1_555
Eu5_2 O11_2 1_555 1_555
Eu5_2 O12_2 1_555 1_555
O7_2 H16_2 1_555 1_555
O5_2 C13_3 1_555 1_555
O6_2 C13_3 1_555 1_555
H5_3 C11_3 1_555 1_555
C12_3 C11_3 1_555 1_555
C13_3 C12_3 1_555 1_555
Eu3 O5_2 1_555 1_555
O6_2 Eu3 1_555 1_555
O7_3 Eu3_2 1_555 1_555
O8_3 Eu3_2 1_555 1_555
N1_3 C16_3 1_555 1_555
C16_3 O8_3 1_555 1_555
H8_3 C16_3 1_555 1_555
C17_3 N1_3 1_555 1_555
H9_3 C17_3 1_555 1_555
H10_3 C17_3 1_555 1_555
H11_3 C17_3 1_555 1_555
C18_3 N1_3 1_555 1_555
H12_3 C18_3 1_555 1_555
H13_3 C18_3 1_555 1_555
H14_3 C18_3 1_555 1_555
O9_3 Eu3_2 1_555 1_555
O12_3 Eu3_2 1_555 1_555
O7_3 H15_2 1_555 1_555
O7_3 H16_3 1_555 1_555
O1_3 C1_3 1_555 1_555
O2_3 C1_3 1_555 1_555
C1_3 C2_3 1_555 1_555
C2_3 C3_3 1_555 1_555
C3_3 H1_3 1_555 1_555
C4_3 C3_3 1_555 1_555
C6_3 C4_3 1_555 1_555
C7_3 C6_3 1_555 1_555
C8_3 C2_3 1_555 1_555
H3_3 C8_3 1_555 1_555
C9_3 C7_3 1_555 1_555
C10_3 C9_3 1_555 1_555
H6_3 C14_3 1_555 1_555
C15_3 C9_3 1_555 1_555
H7_3 C15_3 1_555 1_555
Eu4_2 O2_3 1_555 1_555
C7_3 C8_3 1_555 1_555
C14_3 C15_3 1_555 1_555
O10_2 C5_3 1_555 1_555
O11_2 C5_3 1_555 1_555
Eu3 O1_4 1_555 1_555
O1_4 C1_4 1_555 1_555
O2_4 C1_4 1_555 1_555
O7_4 Eu3 1_555 1_555
O8_4 Eu3 1_555 1_555
C1_4 C2_4 1_555 1_555
C2_4 C3_4 1_555 1_555
C3_4 H1_4 1_555 1_555
C4_4 C3_4 1_555 1_555
C6_4 C4_4 1_555 1_555
C7_4 C6_4 1_555 1_555
C8_4 C2_4 1_555 1_555
H3_4 C8_4 1_555 1_555
C9_4 C7_4 1_555 1_555
C10_4 C9_4 1_555 1_555
H6_4 C14_4 1_555 1_555
C15_4 C9_4 1_555 1_555
H7_4 C15_4 1_555 1_555
N1_4 C16_4 1_555 1_555
C16_4 O8_4 1_555 1_555
H8_4 C16_4 1_555 1_555
C17_4 N1_4 1_555 1_555
H9_4 C17_4 1_555 1_555
H10_4 C17_4 1_555 1_555
H11_4 C17_4 1_555 1_555
C18_4 N1_4 1_555 1_555
H12_4 C18_4 1_555 1_555
H13_4 C18_4 1_555 1_555
H14_4 C18_4 1_555 1_555
Eu4 O2_4 1_555 1_555
O9_4 Eu3 1_555 1_555
O12_4 Eu3 1_555 1_555
C7_4 C8_4 1_555 1_555
C14_4 C15_4 1_555 1_555
Eu4 O12_4 1_555 1_555
O7_4 H15_3 1_555 1_555
O7_4 H16_4 1_555 1_555
O10 C5_4 1_555 1_555
O11 C5_4 1_555 1_555
O13_2 C13_4 1_555 1_555
O14_2 C13_4 1_555 1_555
H5_4 C11_4 1_555 1_555
C12_4 C11_4 1_555 1_555
C13_4 C12_4 1_555 1_555
O1_5 C1_5 1_555 1_555
O9_3 C1_5 1_555 1_555
O3_3 C5_5 1_555 1_555
O12_2 C5_5 1_555 1_555
O5_3 C13_5 1_555 1_555
O6_3 C13_5 1_555 1_555
C1_5 C2_5 1_555 1_555
C2_5 C3_5 1_555 1_555
C3_5 H1_5 1_555 1_555
C4_5 C3_5 1_555 1_555
C5_5 C4_5 1_555 1_555
C6_5 C4_5 1_555 1_555
H2_5 C6_5 1_555 1_555
C7_5 C6_5 1_555 1_555
C8_5 C2_5 1_555 1_555
H3_5 C8_5 1_555 1_555
C9_5 C7_5 1_555 1_555
C10_5 C9_5 1_555 1_555
H4_5 C10_5 1_555 1_555
C11_5 C10_5 1_555 1_555
H5_5 C11_5 1_555 1_555
C12_5 C11_5 1_555 1_555
C13_5 C12_5 1_555 1_555
C14_5 C12_5 1_555 1_555
H6_5 C14_5 1_555 1_555
C15_5 C9_5 1_555 1_555
H7_5 C15_5 1_555 1_555
Eu4 O5_3 1_555 1_555
Eu5_2 O3_3 1_555 1_555
O6_3 Eu4 1_555 1_555
C7_5 C8_5 1_555 1_555
C14_5 C15_5 1_555 1_555
O7_5 Eu4_2 1_555 1_555
O8_5 Eu4_2 1_555 1_555
N1_5 C16_5 1_555 1_555
C16_5 O8_5 1_555 1_555
H8_5 C16_5 1_555 1_555
C17_5 N1_5 1_555 1_555
H9_5 C17_5 1_555 1_555
H10_5 C17_5 1_555 1_555
H11_5 C17_5 1_555 1_555
C18_5 N1_5 1_555 1_555
H12_5 C18_5 1_555 1_555
H13_5 C18_5 1_555 1_555
H14_5 C18_5 1_555 1_555
O7_5 H16_5 1_555 1_555
Eu4 O1_6 1_555 1_555
O1_6 C1_6 1_555 1_555
O9_4 C1_6 1_555 1_555
O3_4 C5_6 1_555 1_555
O12 C5_6 1_555 1_555
O13_3 C13_6 1_555 1_555
O14_3 C13_6 1_555 1_555
O7_6 Eu4 1_555 1_555
O8_6 Eu4 1_555 1_555
C1_6 C2_6 1_555 1_555
C2_6 C3_6 1_555 1_555
C3_6 H1_6 1_555 1_555
C4_6 C3_6 1_555 1_555
C5_6 C4_6 1_555 1_555
C6_6 C4_6 1_555 1_555
H2_6 C6_6 1_555 1_555
C7_6 C6_6 1_555 1_555
C8_6 C2_6 1_555 1_555
H3_6 C8_6 1_555 1_555
C9_6 C7_6 1_555 1_555
C10_6 C9_6 1_555 1_555
H4_6 C10_6 1_555 1_555
C11_6 C10_6 1_555 1_555
H5_6 C11_6 1_555 1_555
C12_6 C11_6 1_555 1_555
C13_6 C12_6 1_555 1_555
C14_6 C12_6 1_555 1_555
H6_6 C14_6 1_555 1_555
C15_6 C9_6 1_555 1_555
H7_6 C15_6 1_555 1_555
N1_6 C16_6 1_555 1_555
C16_6 O8_6 1_555 1_555
H8_6 C16_6 1_555 1_555
C17_6 N1_6 1_555 1_555
H9_6 C17_6 1_555 1_555
H10_6 C17_6 1_555 1_555
H11_6 C17_6 1_555 1_555
C18_6 N1_6 1_555 1_555
H12_6 C18_6 1_555 1_555
H13_6 C18_6 1_555 1_555
H14_6 C18_6 1_555 1_555
O10_4 Eu4 1_555 1_555
C7_6 C8_6 1_555 1_555
C14_6 C15_6 1_555 1_555
O7_6 H16_6 1_555 1_555
O10_4 C5_7 1_555 1_555
O12_4 C5_7 1_555 1_555
O1_7 C1_7 1_555 1_555
O9 C1_7 1_555 1_555
C1_7 C2_7 1_555 1_555
C2_7 C3_7 1_555 1_555
C3_7 H1_7 1_555 1_555
C4_7 C3_7 1_555 1_555
C6_7 C4_7 1_555 1_555
C7_7 C6_7 1_555 1_555
C8_7 C2_7 1_555 1_555
H3_7 C8_7 1_555 1_555
C9_7 C7_7 1_555 1_555
C10_7 C9_7 1_555 1_555
H6_7 C14_7 1_555 1_555
C15_7 C9_7 1_555 1_555
H7_7 C15_7 1_555 1_555
C7_7 C8_7 1_555 1_555
C14_7 C15_7 1_555 1_555
O7_7 Eu5 1_555 1_555
O8_7 Eu5 1_555 1_555
N1_7 C16_7 1_555 1_555
C16_7 O8_7 1_555 1_555
H8_7 C16_7 1_555 1_555
C17_7 N1_7 1_555 1_555
H9_7 C17_7 1_555 1_555
H10_7 C17_7 1_555 1_555
H11_7 C17_7 1_555 1_555
C18_7 N1_7 1_555 1_555
H12_7 C18_7 1_555 1_555
H13_7 C18_7 1_555 1_555
H14_7 C18_7 1_555 1_555
O7_7 H15_4 1_555 1_555
O7_7 H16_7 1_555 1_555
O5_4 C13_7 1_555 1_555
O6_4 C13_7 1_555 1_555
H5_7 C11_7 1_555 1_555
C12_7 C11_7 1_555 1_555
C13_7 C12_7 1_555 1_555
Eu5_2 O5_4 1_555 1_555
O6_4 Eu5_2 1_555 1_555
O13_4 C13_8 1_555 1_555
O14_4 C13_8 1_555 1_555
H5_8 C11_8 1_555 1_555
C12_8 C11_8 1_555 1_555
C13_8 C12_8 1_555 1_555
O10_3 C5_8 1_555 1_555
O12_3 C5_8 1_555 1_555
Eu5_2 O1_8 1_555 1_555
O1_8 C1_8 1_555 1_555
O9_2 C1_8 1_555 1_555
O7_8 Eu5_2 1_555 1_555
O8_8 Eu5_2 1_555 1_555
C1_8 C2_8 1_555 1_555
C2_8 C3_8 1_555 1_555
C3_8 H1_8 1_555 1_555
C4_8 C3_8 1_555 1_555
C6_8 C4_8 1_555 1_555
C7_8 C6_8 1_555 1_555
C8_8 C2_8 1_555 1_555
H3_8 C8_8 1_555 1_555
C9_8 C7_8 1_555 1_555
C10_8 C9_8 1_555 1_555
H6_8 C14_8 1_555 1_555
C15_8 C9_8 1_555 1_555
H7_8 C15_8 1_555 1_555
N1_8 C16_8 1_555 1_555
C16_8 O8_8 1_555 1_555
H8_8 C16_8 1_555 1_555
C17_8 N1_8 1_555 1_555
H9_8 C17_8 1_555 1_555
H10_8 C17_8 1_555 1_555
H11_8 C17_8 1_555 1_555
C18_8 N1_8 1_555 1_555
H12_8 C18_8 1_555 1_555
H13_8 C18_8 1_555 1_555
H14_8 C18_8 1_555 1_555
C7_8 C8_8 1_555 1_555
C14_8 C15_8 1_555 1_555
O7_8 H15_5 1_555 1_555
O7_8 H16_8 1_555 1_555

#END
