
###############################################################################
#
# This file contains modified crystal structure data generated from the
# MOF subset of the Cambridge Structural Database (CSD) v543 
# hosted by the Cambridge Crystallographic Data Centre (CCDC).
#
# This work is licensed under the Creative Commons
# Attribution-NonCommercial-ShareAlike 4.0 International License.
# To view a copy of this license, visit
# http://creativecommons.org/licenses/by-nc-sa/4.0/
# or send a letter to
# Creative Commons, PO Box 1866, Mountain View, CA 94042, USA.
#
# CIF created using the CSD Python API on 29 September 2022
# The structure has been converted into the P1 space group
# The structure has a 3D framework
# The original CSD entry WOJZEC is in the monoclinic crystal system
# The framework has been calculated to contain at least 10.0% void space
# The void calculation uses a probe of radius 1.32A, grid spacing 0.4
# H atom positions have been added when not included in the experimental data
#
###############################################################################

data_WOJZEC
_chemical_formula_moiety         '(C144 H128 N8 O64 Pr8)n'
_symmetry_cell_setting           triclinic
_symmetry_space_group_name_H-M   'P 1'
_symmetry_Int_Tables_number      1
_space_group_name_Hall           'P 1'
loop_
_symmetry_equiv_pos_site_id
_symmetry_equiv_pos_as_xyz
1 x,y,z
_cell_length_a                   24.7168(7)
_cell_length_b                   13.0121(4)
_cell_length_c                   14.9778(5)
_cell_angle_alpha                90
_cell_angle_beta                 96.682(3)
_cell_angle_gamma                90
_cell_volume                     4784.4
loop_
_atom_site_label
_atom_site_type_symbol
_atom_site_fract_x
_atom_site_fract_y
_atom_site_fract_z
H15 H 0.354614 0.0152181 0.0880298
Pr1 Pr 0.328805(9) 0.795436(18) 0.032669(15)
O7 O 0.3755(2) 0.9525(4) 0.1080(3)
O8 O 0.3756(2) 0.7315(5) 0.1775(3)
N1 N 0.3927(7) 0.6528(15) 0.3136(7)
C16 C 0.3582(7) 0.6986(13) 0.2414(9)
H8 H 0.3209 0.7024 0.2449
C17 C 0.3640(9) 0.6021(16) 0.3817(12)
H9 H 0.3901 0.5734 0.4275
H10 H 0.3414 0.5483 0.3541
H11 H 0.3419 0.6515 0.4082
C18 C 0.4472(8) 0.675(2) 0.3196(14)
H12 H 0.4539 0.7199 0.2710
H13 H 0.4676 0.6129 0.3162
H14 H 0.4583 0.7089 0.3758
O9 O 0.27279(14) 0.8469(3) 0.1504(2)
O12 O 0.27373(13) 0.6418(2) 0.0382(2)
H16 H 0.377038 0.945616 0.174275
O1 O 0.30531(14) 0.7384(3) 0.8784(2)
O2 O 0.22721(14) 0.6531(3) 0.8496(2)
O3 O 0.20146(13) 0.4491(3) 0.5611(3)
O4 O 0.27373(13) 0.3582(2) 0.5382(2)
O5 O 0.59904(15) 0.6671(3) 0.5018(3)
O6 O 0.58532(15) 0.8265(3) 0.5413(3)
C1 C 0.27477(19) 0.6762(4) 0.8347(3)
C2 C 0.29652(18) 0.6258(3) 0.7550(3)
C3 C 0.26524(18) 0.5577(3) 0.7010(3)
H1 H 0.2295 0.5451 0.7114
C4 C 0.28644(18) 0.5078(3) 0.6315(3)
C5 C 0.25179(18) 0.4338(3) 0.5743(3)
C6 C 0.33963(18) 0.5287(3) 0.6143(3)
H2 H 0.3544 0.4934 0.5689
C7 C 0.37055(18) 0.6017(3) 0.6644(3)
C8 C 0.34844(19) 0.6492(4) 0.7364(3)
H3 H 0.3691 0.6969 0.7719
C9 C 0.42481(18) 0.6341(4) 0.6402(3)
C10 C 0.4596(2) 0.5644(4) 0.6070(4)
H4 H 0.4504 0.4951 0.6042
C11 C 0.5081(2) 0.5962(4) 0.5780(4)
H5 H 0.5312 0.5480 0.5567
C12 C 0.52240(18) 0.6985(4) 0.5803(3)
C13 C 0.57224(19) 0.7329(4) 0.5394(4)
C14 C 0.4890(2) 0.7678(4) 0.6158(4)
H6 H 0.4990 0.8367 0.6200
C15 C 0.4406(2) 0.7365(4) 0.6455(4)
H7 H 0.4184 0.7846 0.6691
Pr2 Pr 0.671195(9) 0.795436(18) 0.467331(15)
Pr3 Pr 0.171195(9) 0.295436(18) 0.467331(15)
Pr4 Pr 0.328805(9) 0.204564(18) 0.532669(15)
Pr5 Pr 0.171195(9) 0.704564(18) 0.967331(15)
O10 O 0.29854(13) 0.9491(3) 0.9389(3)
O11 O 0.22627(13) 0.8582(2) 0.9618(2)
O13 O 0.40096(15) 0.6671(3) 0.9982(3)
O14 O 0.41468(15) 0.8265(3) 0.9587(3)
Pr3_2 Pr 0.828805(9) 0.295436(18) 0.032669(15)
O1_2 O 0.69469(14) 0.7384(3) 0.6216(2)
O2_2 O 0.77279(14) 0.6531(3) 0.6504(2)
O3_2 O 0.79854(13) 0.4491(3) 0.9389(3)
O4_2 O 0.72627(13) 0.3582(2) 0.9618(2)
O7_2 O 0.6245(2) 0.9525(4) 0.3920(3)
O8_2 O 0.6244(2) 0.7315(5) 0.3225(3)
C1_2 C 0.72523(19) 0.6762(4) 0.6653(3)
C2_2 C 0.70348(18) 0.6258(3) 0.7450(3)
C3_2 C 0.73476(18) 0.5577(3) 0.7990(3)
H1_2 H 0.7705 0.5451 0.7886
C4_2 C 0.71356(18) 0.5078(3) 0.8685(3)
C5_2 C 0.74821(18) 0.4338(3) 0.9257(3)
C6_2 C 0.66037(18) 0.5287(3) 0.8857(3)
H2_2 H 0.6456 0.4934 0.9311
C7_2 C 0.62945(18) 0.6017(3) 0.8356(3)
C8_2 C 0.65156(19) 0.6492(4) 0.7636(3)
H3_2 H 0.6309 0.6969 0.7281
C9_2 C 0.57519(18) 0.6341(4) 0.8598(3)
C10_2 C 0.5404(2) 0.5644(4) 0.8930(4)
H4_2 H 0.5496 0.4951 0.8958
C11_2 C 0.4919(2) 0.5962(4) 0.9220(4)
H5_2 H 0.4688 0.5480 0.9433
C12_2 C 0.47760(18) 0.6985(4) 0.9197(3)
C13_2 C 0.42776(19) 0.7329(4) 0.9606(4)
C14_2 C 0.5110(2) 0.7678(4) 0.8842(4)
H6_2 H 0.5010 0.8367 0.8800
C15_2 C 0.5594(2) 0.7365(4) 0.8545(4)
H7_2 H 0.5816 0.7846 0.8309
N1_2 N 0.6073(7) 0.6528(15) 0.1864(7)
C16_2 C 0.6418(7) 0.6986(13) 0.2586(9)
H8_2 H 0.6791 0.7024 0.2551
C17_2 C 0.6360(9) 0.6021(16) 0.1183(12)
H9_2 H 0.6099 0.5734 0.0725
H10_2 H 0.6586 0.5483 0.1459
H11_2 H 0.6581 0.6515 0.0918
C18_2 C 0.5528(8) 0.675(2) 0.1804(14)
H12_2 H 0.5461 0.7199 0.2290
H13_2 H 0.5324 0.6129 0.1838
H14_2 H 0.5417 0.7089 0.1242
Pr4_2 Pr 0.671195(9) 0.204564(18) 0.967331(15)
Pr5_2 Pr 0.828805(9) 0.704564(18) 0.532669(15)
O9_2 O 0.72721(14) 0.8469(3) 0.3496(2)
O10_2 O 0.70146(13) 0.9491(3) 0.5611(3)
O11_2 O 0.77373(13) 0.8582(2) 0.5382(2)
O12_2 O 0.72627(13) 0.6418(2) 0.4618(2)
H16_2 H 0.622962 0.945616 0.325725
O5_2 O 0.09904(15) 0.1671(3) 0.5018(3)
O6_2 O 0.08532(15) 0.3265(3) 0.5413(3)
C11_3 C 0.0081(2) 0.0962(4) 0.5780(4)
H5_3 H 0.0312 0.0480 0.5567
C12_3 C 0.02240(18) 0.1985(4) 0.5803(3)
C13_3 C 0.07224(19) 0.2329(4) 0.5394(4)
O7_3 O 0.8755(2) 0.4525(4) 0.1080(3)
O8_3 O 0.8756(2) 0.2315(5) 0.1775(3)
N1_3 N 0.8927(7) 0.1528(15) 0.3136(7)
C16_3 C 0.8582(7) 0.1986(13) 0.2414(9)
H8_3 H 0.8209 0.2024 0.2449
C17_3 C 0.8640(9) 0.1021(16) 0.3817(12)
H9_3 H 0.8901 0.0734 0.4275
H10_3 H 0.8414 0.0483 0.3541
H11_3 H 0.8419 0.1515 0.4082
C18_3 C 0.9472(8) 0.175(2) 0.3196(14)
H12_3 H 0.9539 0.2199 0.2710
H13_3 H 0.9676 0.1129 0.3162
H14_3 H 0.9583 0.2089 0.3758
O9_3 O 0.77279(14) 0.3469(3) 0.1504(2)
O12_3 O 0.77373(13) 0.1418(2) 0.0382(2)
H15_2 H 0.854614 0.515218 0.0880298
H16_3 H 0.877038 0.445616 0.174275
O1_3 O 0.80531(14) 0.2384(3) 0.8784(2)
O2_3 O 0.72721(14) 0.1531(3) 0.8496(2)
C1_3 C 0.77477(19) 0.1762(4) 0.8347(3)
C2_3 C 0.79652(18) 0.1258(3) 0.7550(3)
C3_3 C 0.76524(18) 0.0577(3) 0.7010(3)
H1_3 H 0.7295 0.0451 0.7114
C4_3 C 0.78644(18) 0.0078(3) 0.6315(3)
C6_3 C 0.83963(18) 0.0287(3) 0.6143(3)
C7_3 C 0.87055(18) 0.1017(3) 0.6644(3)
C8_3 C 0.84844(19) 0.1492(4) 0.7364(3)
H3_3 H 0.8691 0.1969 0.7719
C9_3 C 0.92481(18) 0.1341(4) 0.6402(3)
C10_3 C 0.9596(2) 0.0644(4) 0.6070(4)
C14_3 C 0.9890(2) 0.2678(4) 0.6158(4)
H6_3 H 0.9990 0.3367 0.6200
C15_3 C 0.9406(2) 0.2365(4) 0.6455(4)
H7_3 H 0.9184 0.2846 0.6691
O13_2 O 0.90096(15) 0.1671(3) 0.9982(3)
O14_2 O 0.91468(15) 0.3265(3) 0.9587(3)
C5_3 C 0.75179(18) 0.9338(3) 0.5743(3)
H2_3 H 0.8544 0.9934 0.5689
H4_3 H 0.9504 0.9951 0.6042
O1_4 O 0.19469(14) 0.2384(3) 0.6216(2)
O2_4 O 0.27279(14) 0.1531(3) 0.6504(2)
O7_4 O 0.1245(2) 0.4525(4) 0.3920(3)
O8_4 O 0.1244(2) 0.2315(5) 0.3225(3)
C1_4 C 0.22523(19) 0.1762(4) 0.6653(3)
C2_4 C 0.20348(18) 0.1258(3) 0.7450(3)
C3_4 C 0.23476(18) 0.0577(3) 0.7990(3)
H1_4 H 0.2705 0.0451 0.7886
C4_4 C 0.21356(18) 0.0078(3) 0.8685(3)
C6_4 C 0.16037(18) 0.0287(3) 0.8857(3)
C7_4 C 0.12945(18) 0.1017(3) 0.8356(3)
C8_4 C 0.15156(19) 0.1492(4) 0.7636(3)
H3_4 H 0.1309 0.1969 0.7281
C9_4 C 0.07519(18) 0.1341(4) 0.8598(3)
C10_4 C 0.0404(2) 0.0644(4) 0.8930(4)
C14_4 C 0.0110(2) 0.2678(4) 0.8842(4)
H6_4 H 0.0010 0.3367 0.8800
C15_4 C 0.0594(2) 0.2365(4) 0.8545(4)
H7_4 H 0.0816 0.2846 0.8309
N1_4 N 0.1073(7) 0.1528(15) 0.1864(7)
C16_4 C 0.1418(7) 0.1986(13) 0.2586(9)
H8_4 H 0.1791 0.2024 0.2551
C17_4 C 0.1360(9) 0.1021(16) 0.1183(12)
H9_4 H 0.1099 0.0734 0.0725
H10_4 H 0.1586 0.0483 0.1459
H11_4 H 0.1581 0.1515 0.0918
C18_4 C 0.0528(8) 0.175(2) 0.1804(14)
H12_4 H 0.0461 0.2199 0.2290
H13_4 H 0.0324 0.1129 0.1838
H14_4 H 0.0417 0.2089 0.1242
O9_4 O 0.22721(14) 0.3469(3) 0.3496(2)
O12_4 O 0.22627(13) 0.1418(2) 0.4618(2)
H15_3 H 0.145386 0.515218 0.41197
H16_4 H 0.122962 0.445616 0.325725
C5_4 C 0.24821(18) 0.9338(3) 0.9257(3)
H2_4 H 0.1456 0.9934 0.9311
H4_4 H 0.0496 0.9951 0.8958
C11_4 C 0.9919(2) 0.0962(4) 0.9220(4)
H5_4 H 0.9688 0.0480 0.9433
C12_4 C 0.97760(18) 0.1985(4) 0.9197(3)
C13_4 C 0.92776(19) 0.2329(4) 0.9606(4)
O1_5 O 0.69469(14) 0.2616(3) 0.1216(2)
O3_3 O 0.79854(13) 0.5509(3) 0.4389(3)
O5_3 O 0.40096(15) 0.3329(3) 0.4982(3)
O6_3 O 0.41468(15) 0.1735(3) 0.4587(3)
C1_5 C 0.72523(19) 0.3238(4) 0.1653(3)
C2_5 C 0.70348(18) 0.3742(3) 0.2450(3)
C3_5 C 0.73476(18) 0.4423(3) 0.2990(3)
H1_5 H 0.7705 0.4549 0.2886
C4_5 C 0.71356(18) 0.4922(3) 0.3685(3)
C5_5 C 0.74821(18) 0.5662(3) 0.4257(3)
C6_5 C 0.66037(18) 0.4713(3) 0.3857(3)
H2_5 H 0.6456 0.5066 0.4311
C7_5 C 0.62945(18) 0.3983(3) 0.3356(3)
C8_5 C 0.65156(19) 0.3508(4) 0.2636(3)
H3_5 H 0.6309 0.3031 0.2281
C9_5 C 0.57519(18) 0.3659(4) 0.3598(3)
C10_5 C 0.5404(2) 0.4356(4) 0.3930(4)
H4_5 H 0.5496 0.5049 0.3958
C11_5 C 0.4919(2) 0.4038(4) 0.4220(4)
H5_5 H 0.4688 0.4520 0.4433
C12_5 C 0.47760(18) 0.3015(4) 0.4197(3)
C13_5 C 0.42776(19) 0.2671(4) 0.4606(4)
C14_5 C 0.5110(2) 0.2322(4) 0.3842(4)
H6_5 H 0.5010 0.1633 0.3800
C15_5 C 0.5594(2) 0.2635(4) 0.3545(4)
H7_5 H 0.5816 0.2154 0.3309
O10_3 O 0.70146(13) 0.0509(3) 0.0611(3)
O13_3 O 0.59904(15) 0.3329(3) 0.0018(3)
O14_3 O 0.58532(15) 0.1735(3) 0.0413(3)
O7_5 O 0.6245(2) 0.0475(4) 0.8920(3)
O8_5 O 0.6244(2) 0.2685(5) 0.8225(3)
N1_5 N 0.6073(7) 0.3472(15) 0.6864(7)
C16_5 C 0.6418(7) 0.3014(13) 0.7586(9)
H8_5 H 0.6791 0.2976 0.7551
C17_5 C 0.6360(9) 0.3979(16) 0.6183(12)
H9_5 H 0.6099 0.4266 0.5725
H10_5 H 0.6586 0.4517 0.6459
H11_5 H 0.6581 0.3485 0.5918
C18_5 C 0.5528(8) 0.325(2) 0.6804(14)
H12_5 H 0.5461 0.2801 0.7290
H13_5 H 0.5324 0.3871 0.6838
H14_5 H 0.5417 0.2911 0.6242
H16_5 H 0.622962 0.0543837 0.825725
O1_6 O 0.30531(14) 0.2616(3) 0.3784(2)
O3_4 O 0.20146(13) 0.5509(3) 0.0611(3)
O7_6 O 0.3755(2) 0.0475(4) 0.6080(3)
O8_6 O 0.3756(2) 0.2685(5) 0.6775(3)
C1_6 C 0.27477(19) 0.3238(4) 0.3347(3)
C2_6 C 0.29652(18) 0.3742(3) 0.2550(3)
C3_6 C 0.26524(18) 0.4423(3) 0.2010(3)
H1_6 H 0.2295 0.4549 0.2114
C4_6 C 0.28644(18) 0.4922(3) 0.1315(3)
C5_6 C 0.25179(18) 0.5662(3) 0.0743(3)
C6_6 C 0.33963(18) 0.4713(3) 0.1143(3)
H2_6 H 0.3544 0.5066 0.0689
C7_6 C 0.37055(18) 0.3983(3) 0.1644(3)
C8_6 C 0.34844(19) 0.3508(4) 0.2364(3)
H3_6 H 0.3691 0.3031 0.2719
C9_6 C 0.42481(18) 0.3659(4) 0.1402(3)
C10_6 C 0.4596(2) 0.4356(4) 0.1070(4)
H4_6 H 0.4504 0.5049 0.1042
C11_6 C 0.5081(2) 0.4038(4) 0.0780(4)
H5_6 H 0.5312 0.4520 0.0567
C12_6 C 0.52240(18) 0.3015(4) 0.0803(3)
C13_6 C 0.57224(19) 0.2671(4) 0.0394(4)
C14_6 C 0.4890(2) 0.2322(4) 0.1158(4)
H6_6 H 0.4990 0.1633 0.1200
C15_6 C 0.4406(2) 0.2635(4) 0.1455(4)
H7_6 H 0.4184 0.2154 0.1691
N1_6 N 0.3927(7) 0.3472(15) 0.8136(7)
C16_6 C 0.3582(7) 0.3014(13) 0.7414(9)
H8_6 H 0.3209 0.2976 0.7449
C17_6 C 0.3640(9) 0.3979(16) 0.8817(12)
H9_6 H 0.3901 0.4266 0.9275
H10_6 H 0.3414 0.4517 0.8541
H11_6 H 0.3419 0.3485 0.9082
C18_6 C 0.4472(8) 0.325(2) 0.8196(14)
H12_6 H 0.4539 0.2801 0.7710
H13_6 H 0.4676 0.3871 0.8162
H14_6 H 0.4583 0.2911 0.8758
O10_4 O 0.29854(13) 0.0509(3) 0.4389(3)
H16_6 H 0.377038 0.0543837 0.674275
C5_7 C 0.24821(18) 0.0662(3) 0.4257(3)
H2_7 H 0.1456 0.0066 0.4311
H4_7 H 0.0496 0.0049 0.3958
O1_7 O 0.19469(14) 0.7616(3) 0.1216(2)
C1_7 C 0.22523(19) 0.8238(4) 0.1653(3)
C2_7 C 0.20348(18) 0.8742(3) 0.2450(3)
C3_7 C 0.23476(18) 0.9423(3) 0.2990(3)
H1_7 H 0.2705 0.9549 0.2886
C4_7 C 0.21356(18) 0.9922(3) 0.3685(3)
C6_7 C 0.16037(18) 0.9713(3) 0.3857(3)
C7_7 C 0.12945(18) 0.8983(3) 0.3356(3)
C8_7 C 0.15156(19) 0.8508(4) 0.2636(3)
H3_7 H 0.1309 0.8031 0.2281
C9_7 C 0.07519(18) 0.8659(4) 0.3598(3)
C10_7 C 0.0404(2) 0.9356(4) 0.3930(4)
C14_7 C 0.0110(2) 0.7322(4) 0.3842(4)
H6_7 H 0.0010 0.6633 0.3800
C15_7 C 0.0594(2) 0.7635(4) 0.3545(4)
H7_7 H 0.0816 0.7154 0.3309
O13_4 O 0.09904(15) 0.8329(3) 0.0018(3)
O14_4 O 0.08532(15) 0.6735(3) 0.0413(3)
O7_7 O 0.1245(2) 0.5475(4) 0.8920(3)
O8_7 O 0.1244(2) 0.7685(5) 0.8225(3)
N1_7 N 0.1073(7) 0.8472(15) 0.6864(7)
C16_7 C 0.1418(7) 0.8014(13) 0.7586(9)
H8_7 H 0.1791 0.7976 0.7551
C17_7 C 0.1360(9) 0.8979(16) 0.6183(12)
H9_7 H 0.1099 0.9266 0.5725
H10_7 H 0.1586 0.9517 0.6459
H11_7 H 0.1581 0.8485 0.5918
C18_7 C 0.0528(8) 0.825(2) 0.6804(14)
H12_7 H 0.0461 0.7801 0.7290
H13_7 H 0.0324 0.8871 0.6838
H14_7 H 0.0417 0.7911 0.6242
H15_4 H 0.145386 0.484782 0.91197
H16_7 H 0.122962 0.554384 0.825725
O5_4 O 0.90096(15) 0.8329(3) 0.4982(3)
O6_4 O 0.91468(15) 0.6735(3) 0.4587(3)
C11_7 C 0.9919(2) 0.9038(4) 0.4220(4)
H5_7 H 0.9688 0.9520 0.4433
C12_7 C 0.97760(18) 0.8015(4) 0.4197(3)
C13_7 C 0.92776(19) 0.7671(4) 0.4606(4)
C11_8 C 0.0081(2) 0.9038(4) 0.0780(4)
H5_8 H 0.0312 0.9520 0.0567
C12_8 C 0.02240(18) 0.8015(4) 0.0803(3)
C13_8 C 0.07224(19) 0.7671(4) 0.0394(4)
C5_8 C 0.75179(18) 0.0662(3) 0.0743(3)
H2_8 H 0.8544 0.0066 0.0689
H4_8 H 0.9504 0.0049 0.1042
O1_8 O 0.80531(14) 0.7616(3) 0.3784(2)
O7_8 O 0.8755(2) 0.5475(4) 0.6080(3)
O8_8 O 0.8756(2) 0.7685(5) 0.6775(3)
C1_8 C 0.77477(19) 0.8238(4) 0.3347(3)
C2_8 C 0.79652(18) 0.8742(3) 0.2550(3)
C3_8 C 0.76524(18) 0.9423(3) 0.2010(3)
H1_8 H 0.7295 0.9549 0.2114
C4_8 C 0.78644(18) 0.9922(3) 0.1315(3)
C6_8 C 0.83963(18) 0.9713(3) 0.1143(3)
C7_8 C 0.87055(18) 0.8983(3) 0.1644(3)
C8_8 C 0.84844(19) 0.8508(4) 0.2364(3)
H3_8 H 0.8691 0.8031 0.2719
C9_8 C 0.92481(18) 0.8659(4) 0.1402(3)
C10_8 C 0.9596(2) 0.9356(4) 0.1070(4)
C14_8 C 0.9890(2) 0.7322(4) 0.1158(4)
H6_8 H 0.9990 0.6633 0.1200
C15_8 C 0.9406(2) 0.7635(4) 0.1455(4)
H7_8 H 0.9184 0.7154 0.1691
N1_8 N 0.8927(7) 0.8472(15) 0.8136(7)
C16_8 C 0.8582(7) 0.8014(13) 0.7414(9)
H8_8 H 0.8209 0.7976 0.7449
C17_8 C 0.8640(9) 0.8979(16) 0.8817(12)
H9_8 H 0.8901 0.9266 0.9275
H10_8 H 0.8414 0.9517 0.8541
H11_8 H 0.8419 0.8485 0.9082
C18_8 C 0.9472(8) 0.825(2) 0.8196(14)
H12_8 H 0.9539 0.7801 0.7710
H13_8 H 0.9676 0.8871 0.8162
H14_8 H 0.9583 0.7911 0.8758
H15_5 H 0.854614 0.484782 0.58803
H16_8 H 0.877038 0.554384 0.674275
H15_6 H 0.645386 0.0152181 0.41197
H15_7 H 0.645386 0.984782 0.91197
H15_8 H 0.354614 0.984782 0.58803
loop_
_geom_bond_atom_site_label_1
_geom_bond_atom_site_label_2
_geom_bond_site_symmetry_1
_geom_bond_site_symmetry_2
O7 Pr1 1_555 1_555
O8 Pr1 1_555 1_555
N1 C16 1_555 1_555
C16 O8 1_555 1_555
H8 C16 1_555 1_555
C17 N1 1_555 1_555
H9 C17 1_555 1_555
H10 C17 1_555 1_555
H11 C17 1_555 1_555
C18 N1 1_555 1_555
H12 C18 1_555 1_555
H13 C18 1_555 1_555
H14 C18 1_555 1_555
O9 Pr1 1_555 1_555
O12 Pr1 1_555 1_555
O7 H16 1_555 1_555
O1 C1 1_555 1_555
O2 C1 1_555 1_555
O3 C5 1_555 1_555
O4 C5 1_555 1_555
O5 C13 1_555 1_555
O6 C13 1_555 1_555
C1 C2 1_555 1_555
C2 C3 1_555 1_555
C3 H1 1_555 1_555
C4 C3 1_555 1_555
C5 C4 1_555 1_555
C6 C4 1_555 1_555
H2 C6 1_555 1_555
C7 C6 1_555 1_555
C8 C2 1_555 1_555
H3 C8 1_555 1_555
C9 C7 1_555 1_555
C10 C9 1_555 1_555
H4 C10 1_555 1_555
C11 C10 1_555 1_555
H5 C11 1_555 1_555
C12 C11 1_555 1_555
C13 C12 1_555 1_555
C14 C12 1_555 1_555
H6 C14 1_555 1_555
C15 C9 1_555 1_555
H7 C15 1_555 1_555
Pr2 O5 1_555 1_555
Pr3 O3 1_555 1_555
Pr4 O4 1_555 1_555
Pr5 O2 1_555 1_555
O4 Pr3 1_555 1_555
O6 Pr2 1_555 1_555
C7 C8 1_555 1_555
C14 C15 1_555 1_555
Pr5 O11 1_555 1_555
Pr2 O1_2 1_555 1_555
O1_2 C1_2 1_555 1_555
O2_2 C1_2 1_555 1_555
O3_2 C5_2 1_555 1_555
O4_2 C5_2 1_555 1_555
O13 C13_2 1_555 1_555
O14 C13_2 1_555 1_555
O7_2 Pr2 1_555 1_555
O8_2 Pr2 1_555 1_555
C1_2 C2_2 1_555 1_555
C2_2 C3_2 1_555 1_555
C3_2 H1_2 1_555 1_555
C4_2 C3_2 1_555 1_555
C5_2 C4_2 1_555 1_555
C6_2 C4_2 1_555 1_555
H2_2 C6_2 1_555 1_555
C7_2 C6_2 1_555 1_555
C8_2 C2_2 1_555 1_555
H3_2 C8_2 1_555 1_555
C9_2 C7_2 1_555 1_555
C10_2 C9_2 1_555 1_555
H4_2 C10_2 1_555 1_555
C11_2 C10_2 1_555 1_555
H5_2 C11_2 1_555 1_555
C12_2 C11_2 1_555 1_555
C13_2 C12_2 1_555 1_555
C14_2 C12_2 1_555 1_555
H6_2 C14_2 1_555 1_555
C15_2 C9_2 1_555 1_555
H7_2 C15_2 1_555 1_555
N1_2 C16_2 1_555 1_555
C16_2 O8_2 1_555 1_555
H8_2 C16_2 1_555 1_555
C17_2 N1_2 1_555 1_555
H9_2 C17_2 1_555 1_555
H10_2 C17_2 1_555 1_555
H11_2 C17_2 1_555 1_555
C18_2 N1_2 1_555 1_555
H12_2 C18_2 1_555 1_555
H13_2 C18_2 1_555 1_555
H14_2 C18_2 1_555 1_555
Pr4_2 O4_2 1_555 1_555
Pr5_2 O2_2 1_555 1_555
O9_2 Pr2 1_555 1_555
O10_2 Pr2 1_555 1_555
O11_2 Pr2 1_555 1_555
O12_2 Pr2 1_555 1_555
C7_2 C8_2 1_555 1_555
C14_2 C15_2 1_555 1_555
Pr5_2 O11_2 1_555 1_555
Pr5_2 O12_2 1_555 1_555
O7_2 H16_2 1_555 1_555
O5_2 C13_3 1_555 1_555
O6_2 C13_3 1_555 1_555
H5_3 C11_3 1_555 1_555
C12_3 C11_3 1_555 1_555
C13_3 C12_3 1_555 1_555
Pr3 O5_2 1_555 1_555
O6_2 Pr3 1_555 1_555
O7_3 Pr3_2 1_555 1_555
O8_3 Pr3_2 1_555 1_555
N1_3 C16_3 1_555 1_555
C16_3 O8_3 1_555 1_555
H8_3 C16_3 1_555 1_555
C17_3 N1_3 1_555 1_555
H9_3 C17_3 1_555 1_555
H10_3 C17_3 1_555 1_555
H11_3 C17_3 1_555 1_555
C18_3 N1_3 1_555 1_555
H12_3 C18_3 1_555 1_555
H13_3 C18_3 1_555 1_555
H14_3 C18_3 1_555 1_555
O9_3 Pr3_2 1_555 1_555
O12_3 Pr3_2 1_555 1_555
O7_3 H15_2 1_555 1_555
O7_3 H16_3 1_555 1_555
O1_3 C1_3 1_555 1_555
O2_3 C1_3 1_555 1_555
C1_3 C2_3 1_555 1_555
C2_3 C3_3 1_555 1_555
C3_3 H1_3 1_555 1_555
C4_3 C3_3 1_555 1_555
C6_3 C4_3 1_555 1_555
C7_3 C6_3 1_555 1_555
C8_3 C2_3 1_555 1_555
H3_3 C8_3 1_555 1_555
C9_3 C7_3 1_555 1_555
C10_3 C9_3 1_555 1_555
H6_3 C14_3 1_555 1_555
C15_3 C9_3 1_555 1_555
H7_3 C15_3 1_555 1_555
Pr4_2 O2_3 1_555 1_555
C7_3 C8_3 1_555 1_555
C14_3 C15_3 1_555 1_555
O10_2 C5_3 1_555 1_555
O11_2 C5_3 1_555 1_555
Pr3 O1_4 1_555 1_555
O1_4 C1_4 1_555 1_555
O2_4 C1_4 1_555 1_555
O7_4 Pr3 1_555 1_555
O8_4 Pr3 1_555 1_555
C1_4 C2_4 1_555 1_555
C2_4 C3_4 1_555 1_555
C3_4 H1_4 1_555 1_555
C4_4 C3_4 1_555 1_555
C6_4 C4_4 1_555 1_555
C7_4 C6_4 1_555 1_555
C8_4 C2_4 1_555 1_555
H3_4 C8_4 1_555 1_555
C9_4 C7_4 1_555 1_555
C10_4 C9_4 1_555 1_555
H6_4 C14_4 1_555 1_555
C15_4 C9_4 1_555 1_555
H7_4 C15_4 1_555 1_555
N1_4 C16_4 1_555 1_555
C16_4 O8_4 1_555 1_555
H8_4 C16_4 1_555 1_555
C17_4 N1_4 1_555 1_555
H9_4 C17_4 1_555 1_555
H10_4 C17_4 1_555 1_555
H11_4 C17_4 1_555 1_555
C18_4 N1_4 1_555 1_555
H12_4 C18_4 1_555 1_555
H13_4 C18_4 1_555 1_555
H14_4 C18_4 1_555 1_555
Pr4 O2_4 1_555 1_555
O9_4 Pr3 1_555 1_555
O12_4 Pr3 1_555 1_555
C7_4 C8_4 1_555 1_555
C14_4 C15_4 1_555 1_555
Pr4 O12_4 1_555 1_555
O7_4 H15_3 1_555 1_555
O7_4 H16_4 1_555 1_555
O10 C5_4 1_555 1_555
O11 C5_4 1_555 1_555
O13_2 C13_4 1_555 1_555
O14_2 C13_4 1_555 1_555
H5_4 C11_4 1_555 1_555
C12_4 C11_4 1_555 1_555
C13_4 C12_4 1_555 1_555
O1_5 C1_5 1_555 1_555
O9_3 C1_5 1_555 1_555
O3_3 C5_5 1_555 1_555
O12_2 C5_5 1_555 1_555
O5_3 C13_5 1_555 1_555
O6_3 C13_5 1_555 1_555
C1_5 C2_5 1_555 1_555
C2_5 C3_5 1_555 1_555
C3_5 H1_5 1_555 1_555
C4_5 C3_5 1_555 1_555
C5_5 C4_5 1_555 1_555
C6_5 C4_5 1_555 1_555
H2_5 C6_5 1_555 1_555
C7_5 C6_5 1_555 1_555
C8_5 C2_5 1_555 1_555
H3_5 C8_5 1_555 1_555
C9_5 C7_5 1_555 1_555
C10_5 C9_5 1_555 1_555
H4_5 C10_5 1_555 1_555
C11_5 C10_5 1_555 1_555
H5_5 C11_5 1_555 1_555
C12_5 C11_5 1_555 1_555
C13_5 C12_5 1_555 1_555
C14_5 C12_5 1_555 1_555
H6_5 C14_5 1_555 1_555
C15_5 C9_5 1_555 1_555
H7_5 C15_5 1_555 1_555
Pr4 O5_3 1_555 1_555
Pr5_2 O3_3 1_555 1_555
O6_3 Pr4 1_555 1_555
C7_5 C8_5 1_555 1_555
C14_5 C15_5 1_555 1_555
O7_5 Pr4_2 1_555 1_555
O8_5 Pr4_2 1_555 1_555
N1_5 C16_5 1_555 1_555
C16_5 O8_5 1_555 1_555
H8_5 C16_5 1_555 1_555
C17_5 N1_5 1_555 1_555
H9_5 C17_5 1_555 1_555
H10_5 C17_5 1_555 1_555
H11_5 C17_5 1_555 1_555
C18_5 N1_5 1_555 1_555
H12_5 C18_5 1_555 1_555
H13_5 C18_5 1_555 1_555
H14_5 C18_5 1_555 1_555
O7_5 H16_5 1_555 1_555
Pr4 O1_6 1_555 1_555
O1_6 C1_6 1_555 1_555
O9_4 C1_6 1_555 1_555
O3_4 C5_6 1_555 1_555
O12 C5_6 1_555 1_555
O13_3 C13_6 1_555 1_555
O14_3 C13_6 1_555 1_555
O7_6 Pr4 1_555 1_555
O8_6 Pr4 1_555 1_555
C1_6 C2_6 1_555 1_555
C2_6 C3_6 1_555 1_555
C3_6 H1_6 1_555 1_555
C4_6 C3_6 1_555 1_555
C5_6 C4_6 1_555 1_555
C6_6 C4_6 1_555 1_555
H2_6 C6_6 1_555 1_555
C7_6 C6_6 1_555 1_555
C8_6 C2_6 1_555 1_555
H3_6 C8_6 1_555 1_555
C9_6 C7_6 1_555 1_555
C10_6 C9_6 1_555 1_555
H4_6 C10_6 1_555 1_555
C11_6 C10_6 1_555 1_555
H5_6 C11_6 1_555 1_555
C12_6 C11_6 1_555 1_555
C13_6 C12_6 1_555 1_555
C14_6 C12_6 1_555 1_555
H6_6 C14_6 1_555 1_555
C15_6 C9_6 1_555 1_555
H7_6 C15_6 1_555 1_555
N1_6 C16_6 1_555 1_555
C16_6 O8_6 1_555 1_555
H8_6 C16_6 1_555 1_555
C17_6 N1_6 1_555 1_555
H9_6 C17_6 1_555 1_555
H10_6 C17_6 1_555 1_555
H11_6 C17_6 1_555 1_555
C18_6 N1_6 1_555 1_555
H12_6 C18_6 1_555 1_555
H13_6 C18_6 1_555 1_555
H14_6 C18_6 1_555 1_555
O10_4 Pr4 1_555 1_555
C7_6 C8_6 1_555 1_555
C14_6 C15_6 1_555 1_555
O7_6 H16_6 1_555 1_555
O10_4 C5_7 1_555 1_555
O12_4 C5_7 1_555 1_555
O1_7 C1_7 1_555 1_555
O9 C1_7 1_555 1_555
C1_7 C2_7 1_555 1_555
C2_7 C3_7 1_555 1_555
C3_7 H1_7 1_555 1_555
C4_7 C3_7 1_555 1_555
C6_7 C4_7 1_555 1_555
C7_7 C6_7 1_555 1_555
C8_7 C2_7 1_555 1_555
H3_7 C8_7 1_555 1_555
C9_7 C7_7 1_555 1_555
C10_7 C9_7 1_555 1_555
H6_7 C14_7 1_555 1_555
C15_7 C9_7 1_555 1_555
H7_7 C15_7 1_555 1_555
C7_7 C8_7 1_555 1_555
C14_7 C15_7 1_555 1_555
O7_7 Pr5 1_555 1_555
O8_7 Pr5 1_555 1_555
N1_7 C16_7 1_555 1_555
C16_7 O8_7 1_555 1_555
H8_7 C16_7 1_555 1_555
C17_7 N1_7 1_555 1_555
H9_7 C17_7 1_555 1_555
H10_7 C17_7 1_555 1_555
H11_7 C17_7 1_555 1_555
C18_7 N1_7 1_555 1_555
H12_7 C18_7 1_555 1_555
H13_7 C18_7 1_555 1_555
H14_7 C18_7 1_555 1_555
O7_7 H15_4 1_555 1_555
O7_7 H16_7 1_555 1_555
O5_4 C13_7 1_555 1_555
O6_4 C13_7 1_555 1_555
H5_7 C11_7 1_555 1_555
C12_7 C11_7 1_555 1_555
C13_7 C12_7 1_555 1_555
Pr5_2 O5_4 1_555 1_555
O6_4 Pr5_2 1_555 1_555
O13_4 C13_8 1_555 1_555
O14_4 C13_8 1_555 1_555
H5_8 C11_8 1_555 1_555
C12_8 C11_8 1_555 1_555
C13_8 C12_8 1_555 1_555
O10_3 C5_8 1_555 1_555
O12_3 C5_8 1_555 1_555
Pr5_2 O1_8 1_555 1_555
O1_8 C1_8 1_555 1_555
O9_2 C1_8 1_555 1_555
O7_8 Pr5_2 1_555 1_555
O8_8 Pr5_2 1_555 1_555
C1_8 C2_8 1_555 1_555
C2_8 C3_8 1_555 1_555
C3_8 H1_8 1_555 1_555
C4_8 C3_8 1_555 1_555
C6_8 C4_8 1_555 1_555
C7_8 C6_8 1_555 1_555
C8_8 C2_8 1_555 1_555
H3_8 C8_8 1_555 1_555
C9_8 C7_8 1_555 1_555
C10_8 C9_8 1_555 1_555
H6_8 C14_8 1_555 1_555
C15_8 C9_8 1_555 1_555
H7_8 C15_8 1_555 1_555
N1_8 C16_8 1_555 1_555
C16_8 O8_8 1_555 1_555
H8_8 C16_8 1_555 1_555
C17_8 N1_8 1_555 1_555
H9_8 C17_8 1_555 1_555
H10_8 C17_8 1_555 1_555
H11_8 C17_8 1_555 1_555
C18_8 N1_8 1_555 1_555
H12_8 C18_8 1_555 1_555
H13_8 C18_8 1_555 1_555
H14_8 C18_8 1_555 1_555
C7_8 C8_8 1_555 1_555
C14_8 C15_8 1_555 1_555
O7_8 H15_5 1_555 1_555
O7_8 H16_8 1_555 1_555

#END
