
###############################################################################
#
# This file contains modified crystal structure data generated from the
# MOF subset of the Cambridge Structural Database (CSD) v543 
# hosted by the Cambridge Crystallographic Data Centre (CCDC).
#
# This work is licensed under the Creative Commons
# Attribution-NonCommercial-ShareAlike 4.0 International License.
# To view a copy of this license, visit
# http://creativecommons.org/licenses/by-nc-sa/4.0/
# or send a letter to
# Creative Commons, PO Box 1866, Mountain View, CA 94042, USA.
#
# CIF created using the CSD Python API on 29 September 2022
# The structure has been converted into the P1 space group
# The structure has a 3D framework
# The original CSD entry WOJZAY is in the monoclinic crystal system
# The framework has been calculated to contain at least 10.0% void space
# The void calculation uses a probe of radius 1.32A, grid spacing 0.4
# H atom positions have been added when not included in the experimental data
#
###############################################################################

data_WOJZAY
_chemical_formula_moiety         '(C144 H128 Ce8 N8 O64)n'
_symmetry_cell_setting           triclinic
_symmetry_space_group_name_H-M   'P 1'
_symmetry_Int_Tables_number      1
_space_group_name_Hall           'P 1'
loop_
_symmetry_equiv_pos_site_id
_symmetry_equiv_pos_as_xyz
1 x,y,z
_cell_length_a                   24.8443(7)
_cell_length_b                   12.8836(4)
_cell_length_c                   15.0538(5)
_cell_angle_alpha                90
_cell_angle_beta                 96.709(3)
_cell_angle_gamma                90
_cell_volume                     4785.49
loop_
_atom_site_label
_atom_site_type_symbol
_atom_site_fract_x
_atom_site_fract_y
_atom_site_fract_z
H15 H 0.353175 0.0205835 0.0903695
Ce1 Ce 0.328806(8) 0.796964(17) 0.033831(15)
O7 O 0.3744(2) 0.9577(4) 0.1101(3)
O8 O 0.3761(2) 0.7321(5) 0.1791(3)
N1 N 0.3921(7) 0.6575(15) 0.3165(7)
C16 C 0.3571(7) 0.6960(13) 0.2425(9)
H8 H 0.3198 0.6934 0.2429
C17 C 0.3636(9) 0.6055(17) 0.3837(13)
H9 H 0.3895 0.5768 0.4294
H10 H 0.3414 0.5509 0.3558
H11 H 0.3411 0.6548 0.4099
C18 C 0.4463(7) 0.6795(19) 0.3194(14)
H12 H 0.4521 0.7241 0.2703
H13 H 0.4662 0.6162 0.3153
H14 H 0.4586 0.7137 0.3748
O9 O 0.27183(13) 0.8443(3) 0.1516(2)
O12 O 0.27345(12) 0.6394(2) 0.0367(2)
H16 H 0.37591 0.950359 0.176008
O1 O 0.30629(13) 0.7411(3) 0.8785(2)
O2 O 0.22817(13) 0.6557(3) 0.8484(2)
O3 O 0.20203(13) 0.4527(2) 0.5606(2)
O4 O 0.27345(12) 0.3606(2) 0.5367(2)
O5 O 0.59850(14) 0.6679(3) 0.5016(3)
O6 O 0.58481(14) 0.8293(3) 0.5403(3)
C1 C 0.27550(17) 0.6785(3) 0.8341(3)
C2 C 0.29716(16) 0.6278(3) 0.7549(3)
C3 C 0.26597(16) 0.5601(3) 0.7004(3)
H1 H 0.2302 0.5480 0.7103
C4 C 0.28700(16) 0.5097(3) 0.6311(3)
C5 C 0.25216(17) 0.4361(3) 0.5730(3)
C6 C 0.33989(17) 0.5306(3) 0.6144(3)
H2 H 0.3544 0.4953 0.5688
C7 C 0.37135(16) 0.6036(3) 0.6649(3)
C8 C 0.34965(17) 0.6505(3) 0.7365(3)
H3 H 0.3705 0.6976 0.7725
C9 C 0.42532(16) 0.6360(3) 0.6407(3)
C10 C 0.45978(19) 0.5653(4) 0.6072(4)
H4 H 0.4505 0.4953 0.6044
C11 C 0.50795(19) 0.5972(4) 0.5778(4)
H5 H 0.5308 0.5485 0.5563
C12 C 0.52220(17) 0.7007(3) 0.5800(3)
C13 C 0.57176(18) 0.7346(4) 0.5383(3)
C14 C 0.4897(2) 0.7697(4) 0.6162(4)
H6 H 0.4999 0.8391 0.6208
C15 C 0.4415(2) 0.7388(4) 0.6464(4)
H7 H 0.4198 0.7876 0.6708
Ce2 Ce 0.671194(8) 0.796964(17) 0.466169(15)
Ce3 Ce 0.171194(8) 0.296964(17) 0.466169(15)
Ce4 Ce 0.328806(8) 0.203036(17) 0.533831(15)
Ce5 Ce 0.171194(8) 0.703036(17) 0.966169(15)
O10 O 0.29797(13) 0.9527(2) 0.9394(2)
O11 O 0.22655(12) 0.8606(2) 0.9633(2)
O13 O 0.40150(14) 0.6679(3) 0.9984(3)
O14 O 0.41519(14) 0.8293(3) 0.9597(3)
Ce3_2 Ce 0.828806(8) 0.296964(17) 0.033831(15)
O1_2 O 0.69371(13) 0.7411(3) 0.6215(2)
O2_2 O 0.77183(13) 0.6557(3) 0.6516(2)
O3_2 O 0.79797(13) 0.4527(2) 0.9394(2)
O4_2 O 0.72655(12) 0.3606(2) 0.9633(2)
O7_2 O 0.6256(2) 0.9577(4) 0.3899(3)
O8_2 O 0.6239(2) 0.7321(5) 0.3209(3)
C1_2 C 0.72450(17) 0.6785(3) 0.6659(3)
C2_2 C 0.70284(16) 0.6278(3) 0.7451(3)
C3_2 C 0.73403(16) 0.5601(3) 0.7996(3)
H1_2 H 0.7698 0.5480 0.7897
C4_2 C 0.71300(16) 0.5097(3) 0.8689(3)
C5_2 C 0.74784(17) 0.4361(3) 0.9270(3)
C6_2 C 0.66011(17) 0.5306(3) 0.8856(3)
H2_2 H 0.6456 0.4953 0.9312
C7_2 C 0.62865(16) 0.6036(3) 0.8351(3)
C8_2 C 0.65035(17) 0.6505(3) 0.7635(3)
H3_2 H 0.6295 0.6976 0.7275
C9_2 C 0.57468(16) 0.6360(3) 0.8593(3)
C10_2 C 0.54022(19) 0.5653(4) 0.8928(4)
H4_2 H 0.5495 0.4953 0.8956
C11_2 C 0.49205(19) 0.5972(4) 0.9222(4)
H5_2 H 0.4692 0.5485 0.9437
C12_2 C 0.47780(17) 0.7007(3) 0.9200(3)
C13_2 C 0.42824(18) 0.7346(4) 0.9617(3)
C14_2 C 0.5103(2) 0.7697(4) 0.8838(4)
H6_2 H 0.5001 0.8391 0.8792
C15_2 C 0.5585(2) 0.7388(4) 0.8536(4)
H7_2 H 0.5802 0.7876 0.8292
N1_2 N 0.6079(7) 0.6575(15) 0.1835(7)
C16_2 C 0.6429(7) 0.6960(13) 0.2575(9)
H8_2 H 0.6802 0.6934 0.2571
C17_2 C 0.6364(9) 0.6055(17) 0.1163(13)
H9_2 H 0.6105 0.5768 0.0706
H10_2 H 0.6586 0.5509 0.1442
H11_2 H 0.6589 0.6548 0.0901
C18_2 C 0.5537(7) 0.6795(19) 0.1806(14)
H12_2 H 0.5479 0.7241 0.2297
H13_2 H 0.5338 0.6162 0.1847
H14_2 H 0.5414 0.7137 0.1252
Ce4_2 Ce 0.671194(8) 0.203036(17) 0.966169(15)
Ce5_2 Ce 0.828806(8) 0.703036(17) 0.533831(15)
O9_2 O 0.72817(13) 0.8443(3) 0.3484(2)
O10_2 O 0.70203(13) 0.9527(2) 0.5606(2)
O11_2 O 0.77345(12) 0.8606(2) 0.5367(2)
O12_2 O 0.72655(12) 0.6394(2) 0.4633(2)
H16_2 H 0.62409 0.950359 0.323992
O5_2 O 0.09850(14) 0.1679(3) 0.5016(3)
O6_2 O 0.08481(14) 0.3293(3) 0.5403(3)
C11_3 C 0.00795(19) 0.0972(4) 0.5778(4)
H5_3 H 0.0308 0.0485 0.5563
C12_3 C 0.02220(17) 0.2007(3) 0.5800(3)
C13_3 C 0.07176(18) 0.2346(4) 0.5383(3)
O7_3 O 0.8744(2) 0.4577(4) 0.1101(3)
O8_3 O 0.8761(2) 0.2321(5) 0.1791(3)
N1_3 N 0.8921(7) 0.1575(15) 0.3165(7)
C16_3 C 0.8571(7) 0.1960(13) 0.2425(9)
H8_3 H 0.8198 0.1934 0.2429
C17_3 C 0.8636(9) 0.1055(17) 0.3837(13)
H9_3 H 0.8895 0.0768 0.4294
H10_3 H 0.8414 0.0509 0.3558
H11_3 H 0.8411 0.1548 0.4099
C18_3 C 0.9463(7) 0.1795(19) 0.3194(14)
H12_3 H 0.9521 0.2241 0.2703
H13_3 H 0.9662 0.1162 0.3153
H14_3 H 0.9586 0.2137 0.3748
O9_3 O 0.77183(13) 0.3443(3) 0.1516(2)
O12_3 O 0.77345(12) 0.1394(2) 0.0367(2)
H15_2 H 0.853175 0.520584 0.0903695
H16_3 H 0.87591 0.450359 0.176008
O1_3 O 0.80629(13) 0.2411(3) 0.8785(2)
O2_3 O 0.72817(13) 0.1557(3) 0.8484(2)
C1_3 C 0.77550(17) 0.1785(3) 0.8341(3)
C2_3 C 0.79716(16) 0.1278(3) 0.7549(3)
C3_3 C 0.76597(16) 0.0601(3) 0.7004(3)
H1_3 H 0.7302 0.0480 0.7103
C4_3 C 0.78700(16) 0.0097(3) 0.6311(3)
C6_3 C 0.83989(17) 0.0306(3) 0.6144(3)
C7_3 C 0.87135(16) 0.1036(3) 0.6649(3)
C8_3 C 0.84965(17) 0.1505(3) 0.7365(3)
H3_3 H 0.8705 0.1976 0.7725
C9_3 C 0.92532(16) 0.1360(3) 0.6407(3)
C10_3 C 0.95978(19) 0.0653(4) 0.6072(4)
C14_3 C 0.9897(2) 0.2697(4) 0.6162(4)
H6_3 H 0.9999 0.3391 0.6208
C15_3 C 0.9415(2) 0.2388(4) 0.6464(4)
H7_3 H 0.9198 0.2876 0.6708
O13_2 O 0.90150(14) 0.1679(3) 0.9984(3)
O14_2 O 0.91519(14) 0.3293(3) 0.9597(3)
C5_3 C 0.75216(17) 0.9361(3) 0.5730(3)
H2_3 H 0.8544 0.9953 0.5688
H4_3 H 0.9505 0.9953 0.6044
O1_4 O 0.19371(13) 0.2411(3) 0.6215(2)
O2_4 O 0.27183(13) 0.1557(3) 0.6516(2)
O7_4 O 0.1256(2) 0.4577(4) 0.3899(3)
O8_4 O 0.1239(2) 0.2321(5) 0.3209(3)
C1_4 C 0.22450(17) 0.1785(3) 0.6659(3)
C2_4 C 0.20284(16) 0.1278(3) 0.7451(3)
C3_4 C 0.23403(16) 0.0601(3) 0.7996(3)
H1_4 H 0.2698 0.0480 0.7897
C4_4 C 0.21300(16) 0.0097(3) 0.8689(3)
C6_4 C 0.16011(17) 0.0306(3) 0.8856(3)
C7_4 C 0.12865(16) 0.1036(3) 0.8351(3)
C8_4 C 0.15035(17) 0.1505(3) 0.7635(3)
H3_4 H 0.1295 0.1976 0.7275
C9_4 C 0.07468(16) 0.1360(3) 0.8593(3)
C10_4 C 0.04022(19) 0.0653(4) 0.8928(4)
C14_4 C 0.0103(2) 0.2697(4) 0.8838(4)
H6_4 H 0.0001 0.3391 0.8792
C15_4 C 0.0585(2) 0.2388(4) 0.8536(4)
H7_4 H 0.0802 0.2876 0.8292
N1_4 N 0.1079(7) 0.1575(15) 0.1835(7)
C16_4 C 0.1429(7) 0.1960(13) 0.2575(9)
H8_4 H 0.1802 0.1934 0.2571
C17_4 C 0.1364(9) 0.1055(17) 0.1163(13)
H9_4 H 0.1105 0.0768 0.0706
H10_4 H 0.1586 0.0509 0.1442
H11_4 H 0.1589 0.1548 0.0901
C18_4 C 0.0537(7) 0.1795(19) 0.1806(14)
H12_4 H 0.0479 0.2241 0.2297
H13_4 H 0.0338 0.1162 0.1847
H14_4 H 0.0414 0.2137 0.1252
O9_4 O 0.22817(13) 0.3443(3) 0.3484(2)
O12_4 O 0.22655(12) 0.1394(2) 0.4633(2)
H15_3 H 0.146825 0.520584 0.409631
H16_4 H 0.12409 0.450359 0.323992
C5_4 C 0.24784(17) 0.9361(3) 0.9270(3)
H2_4 H 0.1456 0.9953 0.9312
H4_4 H 0.0495 0.9953 0.8956
C11_4 C 0.99205(19) 0.0972(4) 0.9222(4)
H5_4 H 0.9692 0.0485 0.9437
C12_4 C 0.97780(17) 0.2007(3) 0.9200(3)
C13_4 C 0.92824(18) 0.2346(4) 0.9617(3)
O1_5 O 0.69371(13) 0.2589(3) 0.1215(2)
O3_3 O 0.79797(13) 0.5473(2) 0.4394(2)
O5_3 O 0.40150(14) 0.3321(3) 0.4984(3)
O6_3 O 0.41519(14) 0.1707(3) 0.4597(3)
C1_5 C 0.72450(17) 0.3215(3) 0.1659(3)
C2_5 C 0.70284(16) 0.3722(3) 0.2451(3)
C3_5 C 0.73403(16) 0.4399(3) 0.2996(3)
H1_5 H 0.7698 0.4520 0.2897
C4_5 C 0.71300(16) 0.4903(3) 0.3689(3)
C5_5 C 0.74784(17) 0.5639(3) 0.4270(3)
C6_5 C 0.66011(17) 0.4694(3) 0.3856(3)
H2_5 H 0.6456 0.5047 0.4312
C7_5 C 0.62865(16) 0.3964(3) 0.3351(3)
C8_5 C 0.65035(17) 0.3495(3) 0.2635(3)
H3_5 H 0.6295 0.3024 0.2275
C9_5 C 0.57468(16) 0.3640(3) 0.3593(3)
C10_5 C 0.54022(19) 0.4347(4) 0.3928(4)
H4_5 H 0.5495 0.5047 0.3956
C11_5 C 0.49205(19) 0.4028(4) 0.4222(4)
H5_5 H 0.4692 0.4515 0.4437
C12_5 C 0.47780(17) 0.2993(3) 0.4200(3)
C13_5 C 0.42824(18) 0.2654(4) 0.4617(3)
C14_5 C 0.5103(2) 0.2303(4) 0.3838(4)
H6_5 H 0.5001 0.1609 0.3792
C15_5 C 0.5585(2) 0.2612(4) 0.3536(4)
H7_5 H 0.5802 0.2124 0.3292
O10_3 O 0.70203(13) 0.0473(2) 0.0606(2)
O13_3 O 0.59850(14) 0.3321(3) 0.0016(3)
O14_3 O 0.58481(14) 0.1707(3) 0.0403(3)
O7_5 O 0.6256(2) 0.0423(4) 0.8899(3)
O8_5 O 0.6239(2) 0.2679(5) 0.8209(3)
N1_5 N 0.6079(7) 0.3425(15) 0.6835(7)
C16_5 C 0.6429(7) 0.3040(13) 0.7575(9)
H8_5 H 0.6802 0.3066 0.7571
C17_5 C 0.6364(9) 0.3945(17) 0.6163(13)
H9_5 H 0.6105 0.4232 0.5706
H10_5 H 0.6586 0.4491 0.6442
H11_5 H 0.6589 0.3452 0.5901
C18_5 C 0.5537(7) 0.3205(19) 0.6806(14)
H12_5 H 0.5479 0.2759 0.7297
H13_5 H 0.5338 0.3838 0.6847
H14_5 H 0.5414 0.2863 0.6252
H16_5 H 0.62409 0.0496413 0.823992
O1_6 O 0.30629(13) 0.2589(3) 0.3785(2)
O3_4 O 0.20203(13) 0.5473(2) 0.0606(2)
O7_6 O 0.3744(2) 0.0423(4) 0.6101(3)
O8_6 O 0.3761(2) 0.2679(5) 0.6791(3)
C1_6 C 0.27550(17) 0.3215(3) 0.3341(3)
C2_6 C 0.29716(16) 0.3722(3) 0.2549(3)
C3_6 C 0.26597(16) 0.4399(3) 0.2004(3)
H1_6 H 0.2302 0.4520 0.2103
C4_6 C 0.28700(16) 0.4903(3) 0.1311(3)
C5_6 C 0.25216(17) 0.5639(3) 0.0730(3)
C6_6 C 0.33989(17) 0.4694(3) 0.1144(3)
H2_6 H 0.3544 0.5047 0.0688
C7_6 C 0.37135(16) 0.3964(3) 0.1649(3)
C8_6 C 0.34965(17) 0.3495(3) 0.2365(3)
H3_6 H 0.3705 0.3024 0.2725
C9_6 C 0.42532(16) 0.3640(3) 0.1407(3)
C10_6 C 0.45978(19) 0.4347(4) 0.1072(4)
H4_6 H 0.4505 0.5047 0.1044
C11_6 C 0.50795(19) 0.4028(4) 0.0778(4)
H5_6 H 0.5308 0.4515 0.0563
C12_6 C 0.52220(17) 0.2993(3) 0.0800(3)
C13_6 C 0.57176(18) 0.2654(4) 0.0383(3)
C14_6 C 0.4897(2) 0.2303(4) 0.1162(4)
H6_6 H 0.4999 0.1609 0.1208
C15_6 C 0.4415(2) 0.2612(4) 0.1464(4)
H7_6 H 0.4198 0.2124 0.1708
N1_6 N 0.3921(7) 0.3425(15) 0.8165(7)
C16_6 C 0.3571(7) 0.3040(13) 0.7425(9)
H8_6 H 0.3198 0.3066 0.7429
C17_6 C 0.3636(9) 0.3945(17) 0.8837(13)
H9_6 H 0.3895 0.4232 0.9294
H10_6 H 0.3414 0.4491 0.8558
H11_6 H 0.3411 0.3452 0.9099
C18_6 C 0.4463(7) 0.3205(19) 0.8194(14)
H12_6 H 0.4521 0.2759 0.7703
H13_6 H 0.4662 0.3838 0.8153
H14_6 H 0.4586 0.2863 0.8748
O10_4 O 0.29797(13) 0.0473(2) 0.4394(2)
H16_6 H 0.37591 0.0496413 0.676008
C5_7 C 0.24784(17) 0.0639(3) 0.4270(3)
H2_7 H 0.1456 0.0047 0.4312
H4_7 H 0.0495 0.0047 0.3956
O1_7 O 0.19371(13) 0.7589(3) 0.1215(2)
C1_7 C 0.22450(17) 0.8215(3) 0.1659(3)
C2_7 C 0.20284(16) 0.8722(3) 0.2451(3)
C3_7 C 0.23403(16) 0.9399(3) 0.2996(3)
H1_7 H 0.2698 0.9520 0.2897
C4_7 C 0.21300(16) 0.9903(3) 0.3689(3)
C6_7 C 0.16011(17) 0.9694(3) 0.3856(3)
C7_7 C 0.12865(16) 0.8964(3) 0.3351(3)
C8_7 C 0.15035(17) 0.8495(3) 0.2635(3)
H3_7 H 0.1295 0.8024 0.2275
C9_7 C 0.07468(16) 0.8640(3) 0.3593(3)
C10_7 C 0.04022(19) 0.9347(4) 0.3928(4)
C14_7 C 0.0103(2) 0.7303(4) 0.3838(4)
H6_7 H 0.0001 0.6609 0.3792
C15_7 C 0.0585(2) 0.7612(4) 0.3536(4)
H7_7 H 0.0802 0.7124 0.3292
O13_4 O 0.09850(14) 0.8321(3) 0.0016(3)
O14_4 O 0.08481(14) 0.6707(3) 0.0403(3)
O7_7 O 0.1256(2) 0.5423(4) 0.8899(3)
O8_7 O 0.1239(2) 0.7679(5) 0.8209(3)
N1_7 N 0.1079(7) 0.8425(15) 0.6835(7)
C16_7 C 0.1429(7) 0.8040(13) 0.7575(9)
H8_7 H 0.1802 0.8066 0.7571
C17_7 C 0.1364(9) 0.8945(17) 0.6163(13)
H9_7 H 0.1105 0.9232 0.5706
H10_7 H 0.1586 0.9491 0.6442
H11_7 H 0.1589 0.8452 0.5901
C18_7 C 0.0537(7) 0.8205(19) 0.6806(14)
H12_7 H 0.0479 0.7759 0.7297
H13_7 H 0.0338 0.8838 0.6847
H14_7 H 0.0414 0.7863 0.6252
H15_4 H 0.146825 0.479416 0.909631
H16_7 H 0.12409 0.549641 0.823992
O5_4 O 0.90150(14) 0.8321(3) 0.4984(3)
O6_4 O 0.91519(14) 0.6707(3) 0.4597(3)
C11_7 C 0.99205(19) 0.9028(4) 0.4222(4)
H5_7 H 0.9692 0.9515 0.4437
C12_7 C 0.97780(17) 0.7993(3) 0.4200(3)
C13_7 C 0.92824(18) 0.7654(4) 0.4617(3)
C11_8 C 0.00795(19) 0.9028(4) 0.0778(4)
H5_8 H 0.0308 0.9515 0.0563
C12_8 C 0.02220(17) 0.7993(3) 0.0800(3)
C13_8 C 0.07176(18) 0.7654(4) 0.0383(3)
C5_8 C 0.75216(17) 0.0639(3) 0.0730(3)
H2_8 H 0.8544 0.0047 0.0688
H4_8 H 0.9505 0.0047 0.1044
O1_8 O 0.80629(13) 0.7589(3) 0.3785(2)
O7_8 O 0.8744(2) 0.5423(4) 0.6101(3)
O8_8 O 0.8761(2) 0.7679(5) 0.6791(3)
C1_8 C 0.77550(17) 0.8215(3) 0.3341(3)
C2_8 C 0.79716(16) 0.8722(3) 0.2549(3)
C3_8 C 0.76597(16) 0.9399(3) 0.2004(3)
H1_8 H 0.7302 0.9520 0.2103
C4_8 C 0.78700(16) 0.9903(3) 0.1311(3)
C6_8 C 0.83989(17) 0.9694(3) 0.1144(3)
C7_8 C 0.87135(16) 0.8964(3) 0.1649(3)
C8_8 C 0.84965(17) 0.8495(3) 0.2365(3)
H3_8 H 0.8705 0.8024 0.2725
C9_8 C 0.92532(16) 0.8640(3) 0.1407(3)
C10_8 C 0.95978(19) 0.9347(4) 0.1072(4)
C14_8 C 0.9897(2) 0.7303(4) 0.1162(4)
H6_8 H 0.9999 0.6609 0.1208
C15_8 C 0.9415(2) 0.7612(4) 0.1464(4)
H7_8 H 0.9198 0.7124 0.1708
N1_8 N 0.8921(7) 0.8425(15) 0.8165(7)
C16_8 C 0.8571(7) 0.8040(13) 0.7425(9)
H8_8 H 0.8198 0.8066 0.7429
C17_8 C 0.8636(9) 0.8945(17) 0.8837(13)
H9_8 H 0.8895 0.9232 0.9294
H10_8 H 0.8414 0.9491 0.8558
H11_8 H 0.8411 0.8452 0.9099
C18_8 C 0.9463(7) 0.8205(19) 0.8194(14)
H12_8 H 0.9521 0.7759 0.7703
H13_8 H 0.9662 0.8838 0.8153
H14_8 H 0.9586 0.7863 0.8748
H15_5 H 0.853175 0.479416 0.590369
H16_8 H 0.87591 0.549641 0.676008
H15_6 H 0.646825 0.0205835 0.409631
H15_7 H 0.646825 0.979416 0.909631
H15_8 H 0.353175 0.979416 0.590369
loop_
_geom_bond_atom_site_label_1
_geom_bond_atom_site_label_2
_geom_bond_site_symmetry_1
_geom_bond_site_symmetry_2
O7 Ce1 1_555 1_555
O8 Ce1 1_555 1_555
N1 C16 1_555 1_555
C16 O8 1_555 1_555
H8 C16 1_555 1_555
C17 N1 1_555 1_555
H9 C17 1_555 1_555
H10 C17 1_555 1_555
H11 C17 1_555 1_555
C18 N1 1_555 1_555
H12 C18 1_555 1_555
H13 C18 1_555 1_555
H14 C18 1_555 1_555
O9 Ce1 1_555 1_555
O12 Ce1 1_555 1_555
O7 H16 1_555 1_555
O1 C1 1_555 1_555
O2 C1 1_555 1_555
O3 C5 1_555 1_555
O4 C5 1_555 1_555
O5 C13 1_555 1_555
O6 C13 1_555 1_555
C1 C2 1_555 1_555
C2 C3 1_555 1_555
C3 H1 1_555 1_555
C4 C3 1_555 1_555
C5 C4 1_555 1_555
C6 C4 1_555 1_555
H2 C6 1_555 1_555
C7 C6 1_555 1_555
C8 C2 1_555 1_555
H3 C8 1_555 1_555
C9 C7 1_555 1_555
C10 C9 1_555 1_555
H4 C10 1_555 1_555
C11 C10 1_555 1_555
H5 C11 1_555 1_555
C12 C11 1_555 1_555
C13 C12 1_555 1_555
C14 C12 1_555 1_555
H6 C14 1_555 1_555
C15 C9 1_555 1_555
H7 C15 1_555 1_555
Ce2 O5 1_555 1_555
Ce3 O3 1_555 1_555
Ce4 O4 1_555 1_555
Ce5 O2 1_555 1_555
O4 Ce3 1_555 1_555
O6 Ce2 1_555 1_555
C7 C8 1_555 1_555
C14 C15 1_555 1_555
Ce5 O11 1_555 1_555
Ce2 O1_2 1_555 1_555
O1_2 C1_2 1_555 1_555
O2_2 C1_2 1_555 1_555
O3_2 C5_2 1_555 1_555
O4_2 C5_2 1_555 1_555
O13 C13_2 1_555 1_555
O14 C13_2 1_555 1_555
O7_2 Ce2 1_555 1_555
O8_2 Ce2 1_555 1_555
C1_2 C2_2 1_555 1_555
C2_2 C3_2 1_555 1_555
C3_2 H1_2 1_555 1_555
C4_2 C3_2 1_555 1_555
C5_2 C4_2 1_555 1_555
C6_2 C4_2 1_555 1_555
H2_2 C6_2 1_555 1_555
C7_2 C6_2 1_555 1_555
C8_2 C2_2 1_555 1_555
H3_2 C8_2 1_555 1_555
C9_2 C7_2 1_555 1_555
C10_2 C9_2 1_555 1_555
H4_2 C10_2 1_555 1_555
C11_2 C10_2 1_555 1_555
H5_2 C11_2 1_555 1_555
C12_2 C11_2 1_555 1_555
C13_2 C12_2 1_555 1_555
C14_2 C12_2 1_555 1_555
H6_2 C14_2 1_555 1_555
C15_2 C9_2 1_555 1_555
H7_2 C15_2 1_555 1_555
N1_2 C16_2 1_555 1_555
C16_2 O8_2 1_555 1_555
H8_2 C16_2 1_555 1_555
C17_2 N1_2 1_555 1_555
H9_2 C17_2 1_555 1_555
H10_2 C17_2 1_555 1_555
H11_2 C17_2 1_555 1_555
C18_2 N1_2 1_555 1_555
H12_2 C18_2 1_555 1_555
H13_2 C18_2 1_555 1_555
H14_2 C18_2 1_555 1_555
Ce4_2 O4_2 1_555 1_555
Ce5_2 O2_2 1_555 1_555
O9_2 Ce2 1_555 1_555
O10_2 Ce2 1_555 1_555
O11_2 Ce2 1_555 1_555
O12_2 Ce2 1_555 1_555
C7_2 C8_2 1_555 1_555
C14_2 C15_2 1_555 1_555
Ce5_2 O11_2 1_555 1_555
Ce5_2 O12_2 1_555 1_555
O7_2 H16_2 1_555 1_555
O5_2 C13_3 1_555 1_555
O6_2 C13_3 1_555 1_555
H5_3 C11_3 1_555 1_555
C12_3 C11_3 1_555 1_555
C13_3 C12_3 1_555 1_555
Ce3 O5_2 1_555 1_555
O6_2 Ce3 1_555 1_555
O7_3 Ce3_2 1_555 1_555
O8_3 Ce3_2 1_555 1_555
N1_3 C16_3 1_555 1_555
C16_3 O8_3 1_555 1_555
H8_3 C16_3 1_555 1_555
C17_3 N1_3 1_555 1_555
H9_3 C17_3 1_555 1_555
H10_3 C17_3 1_555 1_555
H11_3 C17_3 1_555 1_555
C18_3 N1_3 1_555 1_555
H12_3 C18_3 1_555 1_555
H13_3 C18_3 1_555 1_555
H14_3 C18_3 1_555 1_555
O9_3 Ce3_2 1_555 1_555
O12_3 Ce3_2 1_555 1_555
O7_3 H15_2 1_555 1_555
O7_3 H16_3 1_555 1_555
O1_3 C1_3 1_555 1_555
O2_3 C1_3 1_555 1_555
C1_3 C2_3 1_555 1_555
C2_3 C3_3 1_555 1_555
C3_3 H1_3 1_555 1_555
C4_3 C3_3 1_555 1_555
C6_3 C4_3 1_555 1_555
C7_3 C6_3 1_555 1_555
C8_3 C2_3 1_555 1_555
H3_3 C8_3 1_555 1_555
C9_3 C7_3 1_555 1_555
C10_3 C9_3 1_555 1_555
H6_3 C14_3 1_555 1_555
C15_3 C9_3 1_555 1_555
H7_3 C15_3 1_555 1_555
Ce4_2 O2_3 1_555 1_555
C7_3 C8_3 1_555 1_555
C14_3 C15_3 1_555 1_555
O10_2 C5_3 1_555 1_555
O11_2 C5_3 1_555 1_555
Ce3 O1_4 1_555 1_555
O1_4 C1_4 1_555 1_555
O2_4 C1_4 1_555 1_555
O7_4 Ce3 1_555 1_555
O8_4 Ce3 1_555 1_555
C1_4 C2_4 1_555 1_555
C2_4 C3_4 1_555 1_555
C3_4 H1_4 1_555 1_555
C4_4 C3_4 1_555 1_555
C6_4 C4_4 1_555 1_555
C7_4 C6_4 1_555 1_555
C8_4 C2_4 1_555 1_555
H3_4 C8_4 1_555 1_555
C9_4 C7_4 1_555 1_555
C10_4 C9_4 1_555 1_555
H6_4 C14_4 1_555 1_555
C15_4 C9_4 1_555 1_555
H7_4 C15_4 1_555 1_555
N1_4 C16_4 1_555 1_555
C16_4 O8_4 1_555 1_555
H8_4 C16_4 1_555 1_555
C17_4 N1_4 1_555 1_555
H9_4 C17_4 1_555 1_555
H10_4 C17_4 1_555 1_555
H11_4 C17_4 1_555 1_555
C18_4 N1_4 1_555 1_555
H12_4 C18_4 1_555 1_555
H13_4 C18_4 1_555 1_555
H14_4 C18_4 1_555 1_555
Ce4 O2_4 1_555 1_555
O9_4 Ce3 1_555 1_555
O12_4 Ce3 1_555 1_555
C7_4 C8_4 1_555 1_555
C14_4 C15_4 1_555 1_555
Ce4 O12_4 1_555 1_555
O7_4 H15_3 1_555 1_555
O7_4 H16_4 1_555 1_555
O10 C5_4 1_555 1_555
O11 C5_4 1_555 1_555
O13_2 C13_4 1_555 1_555
O14_2 C13_4 1_555 1_555
H5_4 C11_4 1_555 1_555
C12_4 C11_4 1_555 1_555
C13_4 C12_4 1_555 1_555
O1_5 C1_5 1_555 1_555
O9_3 C1_5 1_555 1_555
O3_3 C5_5 1_555 1_555
O12_2 C5_5 1_555 1_555
O5_3 C13_5 1_555 1_555
O6_3 C13_5 1_555 1_555
C1_5 C2_5 1_555 1_555
C2_5 C3_5 1_555 1_555
C3_5 H1_5 1_555 1_555
C4_5 C3_5 1_555 1_555
C5_5 C4_5 1_555 1_555
C6_5 C4_5 1_555 1_555
H2_5 C6_5 1_555 1_555
C7_5 C6_5 1_555 1_555
C8_5 C2_5 1_555 1_555
H3_5 C8_5 1_555 1_555
C9_5 C7_5 1_555 1_555
C10_5 C9_5 1_555 1_555
H4_5 C10_5 1_555 1_555
C11_5 C10_5 1_555 1_555
H5_5 C11_5 1_555 1_555
C12_5 C11_5 1_555 1_555
C13_5 C12_5 1_555 1_555
C14_5 C12_5 1_555 1_555
H6_5 C14_5 1_555 1_555
C15_5 C9_5 1_555 1_555
H7_5 C15_5 1_555 1_555
Ce4 O5_3 1_555 1_555
Ce5_2 O3_3 1_555 1_555
O6_3 Ce4 1_555 1_555
C7_5 C8_5 1_555 1_555
C14_5 C15_5 1_555 1_555
O7_5 Ce4_2 1_555 1_555
O8_5 Ce4_2 1_555 1_555
N1_5 C16_5 1_555 1_555
C16_5 O8_5 1_555 1_555
H8_5 C16_5 1_555 1_555
C17_5 N1_5 1_555 1_555
H9_5 C17_5 1_555 1_555
H10_5 C17_5 1_555 1_555
H11_5 C17_5 1_555 1_555
C18_5 N1_5 1_555 1_555
H12_5 C18_5 1_555 1_555
H13_5 C18_5 1_555 1_555
H14_5 C18_5 1_555 1_555
O7_5 H16_5 1_555 1_555
Ce4 O1_6 1_555 1_555
O1_6 C1_6 1_555 1_555
O9_4 C1_6 1_555 1_555
O3_4 C5_6 1_555 1_555
O12 C5_6 1_555 1_555
O13_3 C13_6 1_555 1_555
O14_3 C13_6 1_555 1_555
O7_6 Ce4 1_555 1_555
O8_6 Ce4 1_555 1_555
C1_6 C2_6 1_555 1_555
C2_6 C3_6 1_555 1_555
C3_6 H1_6 1_555 1_555
C4_6 C3_6 1_555 1_555
C5_6 C4_6 1_555 1_555
C6_6 C4_6 1_555 1_555
H2_6 C6_6 1_555 1_555
C7_6 C6_6 1_555 1_555
C8_6 C2_6 1_555 1_555
H3_6 C8_6 1_555 1_555
C9_6 C7_6 1_555 1_555
C10_6 C9_6 1_555 1_555
H4_6 C10_6 1_555 1_555
C11_6 C10_6 1_555 1_555
H5_6 C11_6 1_555 1_555
C12_6 C11_6 1_555 1_555
C13_6 C12_6 1_555 1_555
C14_6 C12_6 1_555 1_555
H6_6 C14_6 1_555 1_555
C15_6 C9_6 1_555 1_555
H7_6 C15_6 1_555 1_555
N1_6 C16_6 1_555 1_555
C16_6 O8_6 1_555 1_555
H8_6 C16_6 1_555 1_555
C17_6 N1_6 1_555 1_555
H9_6 C17_6 1_555 1_555
H10_6 C17_6 1_555 1_555
H11_6 C17_6 1_555 1_555
C18_6 N1_6 1_555 1_555
H12_6 C18_6 1_555 1_555
H13_6 C18_6 1_555 1_555
H14_6 C18_6 1_555 1_555
O10_4 Ce4 1_555 1_555
C7_6 C8_6 1_555 1_555
C14_6 C15_6 1_555 1_555
O7_6 H16_6 1_555 1_555
O10_4 C5_7 1_555 1_555
O12_4 C5_7 1_555 1_555
O1_7 C1_7 1_555 1_555
O9 C1_7 1_555 1_555
C1_7 C2_7 1_555 1_555
C2_7 C3_7 1_555 1_555
C3_7 H1_7 1_555 1_555
C4_7 C3_7 1_555 1_555
C6_7 C4_7 1_555 1_555
C7_7 C6_7 1_555 1_555
C8_7 C2_7 1_555 1_555
H3_7 C8_7 1_555 1_555
C9_7 C7_7 1_555 1_555
C10_7 C9_7 1_555 1_555
H6_7 C14_7 1_555 1_555
C15_7 C9_7 1_555 1_555
H7_7 C15_7 1_555 1_555
C7_7 C8_7 1_555 1_555
C14_7 C15_7 1_555 1_555
O7_7 Ce5 1_555 1_555
O8_7 Ce5 1_555 1_555
N1_7 C16_7 1_555 1_555
C16_7 O8_7 1_555 1_555
H8_7 C16_7 1_555 1_555
C17_7 N1_7 1_555 1_555
H9_7 C17_7 1_555 1_555
H10_7 C17_7 1_555 1_555
H11_7 C17_7 1_555 1_555
C18_7 N1_7 1_555 1_555
H12_7 C18_7 1_555 1_555
H13_7 C18_7 1_555 1_555
H14_7 C18_7 1_555 1_555
O7_7 H15_4 1_555 1_555
O7_7 H16_7 1_555 1_555
O5_4 C13_7 1_555 1_555
O6_4 C13_7 1_555 1_555
H5_7 C11_7 1_555 1_555
C12_7 C11_7 1_555 1_555
C13_7 C12_7 1_555 1_555
Ce5_2 O5_4 1_555 1_555
O6_4 Ce5_2 1_555 1_555
O13_4 C13_8 1_555 1_555
O14_4 C13_8 1_555 1_555
H5_8 C11_8 1_555 1_555
C12_8 C11_8 1_555 1_555
C13_8 C12_8 1_555 1_555
O10_3 C5_8 1_555 1_555
O12_3 C5_8 1_555 1_555
Ce5_2 O1_8 1_555 1_555
O1_8 C1_8 1_555 1_555
O9_2 C1_8 1_555 1_555
O7_8 Ce5_2 1_555 1_555
O8_8 Ce5_2 1_555 1_555
C1_8 C2_8 1_555 1_555
C2_8 C3_8 1_555 1_555
C3_8 H1_8 1_555 1_555
C4_8 C3_8 1_555 1_555
C6_8 C4_8 1_555 1_555
C7_8 C6_8 1_555 1_555
C8_8 C2_8 1_555 1_555
H3_8 C8_8 1_555 1_555
C9_8 C7_8 1_555 1_555
C10_8 C9_8 1_555 1_555
H6_8 C14_8 1_555 1_555
C15_8 C9_8 1_555 1_555
H7_8 C15_8 1_555 1_555
N1_8 C16_8 1_555 1_555
C16_8 O8_8 1_555 1_555
H8_8 C16_8 1_555 1_555
C17_8 N1_8 1_555 1_555
H9_8 C17_8 1_555 1_555
H10_8 C17_8 1_555 1_555
H11_8 C17_8 1_555 1_555
C18_8 N1_8 1_555 1_555
H12_8 C18_8 1_555 1_555
H13_8 C18_8 1_555 1_555
H14_8 C18_8 1_555 1_555
C7_8 C8_8 1_555 1_555
C14_8 C15_8 1_555 1_555
O7_8 H15_5 1_555 1_555
O7_8 H16_8 1_555 1_555

#END
