
###############################################################################
#
# This file contains modified crystal structure data generated from the
# MOF subset of the Cambridge Structural Database (CSD) v543 
# hosted by the Cambridge Crystallographic Data Centre (CCDC).
#
# This work is licensed under the Creative Commons
# Attribution-NonCommercial-ShareAlike 4.0 International License.
# To view a copy of this license, visit
# http://creativecommons.org/licenses/by-nc-sa/4.0/
# or send a letter to
# Creative Commons, PO Box 1866, Mountain View, CA 94042, USA.
#
# CIF created using the CSD Python API on 29 September 2022
# The structure has been converted into the P1 space group
# The structure has a 3D framework
# The original CSD entry WOJZOM is in the monoclinic crystal system
# The framework has been calculated to contain at least 10.0% void space
# The void calculation uses a probe of radius 1.32A, grid spacing 0.4
#
###############################################################################

data_WOJZOM
_chemical_formula_moiety         '(C152 H152 O64 S16 Sm8)n'
_symmetry_cell_setting           triclinic
_symmetry_space_group_name_H-M   'P 1'
_symmetry_Int_Tables_number      1
_space_group_name_Hall           'P 1'
loop_
_symmetry_equiv_pos_site_id
_symmetry_equiv_pos_as_xyz
1 x,y,z
_cell_length_a                   24.8112(8)
_cell_length_b                   13.7461(4)
_cell_length_c                   13.6627(4)
_cell_angle_alpha                90
_cell_angle_beta                 99.153(3)
_cell_angle_gamma                90
_cell_volume                     4600.43
loop_
_atom_site_label
_atom_site_type_symbol
_atom_site_fract_x
_atom_site_fract_y
_atom_site_fract_z
Sm1 Sm 0.170233(5) 0.215478(8) 0.461044(8)
C1 C 0.07530(10) 0.28048(17) 0.53748(18)
C2 C 0.02402(10) 0.31182(19) 0.57474(18)
C7 C 0.01269(11) 0.4080(2) 0.5862(2)
H4 H 0.0390 0.4539 0.5774
C16 C 0.0575(3) 0.3373(8) 0.1609(7)
H8 H 0.0271 0.3038 0.1810
H9 H 0.0537 0.3372 0.0898
H10 H 0.0583 0.4032 0.1844
C17 C 0.1585(3) 0.3514(7) 0.1867(7)
H11 H 0.1944 0.3252 0.2078
H12 H 0.1547 0.4112 0.2212
H13 H 0.1534 0.3634 0.1167
O1 O 0.10696(7) 0.34308(13) 0.51399(15)
O2 O 0.08439(7) 0.18995(13) 0.52822(14)
O7 O 0.12500(11) 0.29888(16) 0.31574(17)
O8 O 0.12079(8) 0.08572(14) 0.36104(15)
S1 S 0.11667(7) 0.28005(10) 0.20949(9)
S2 S 0.13348(4) 0.02764(7) 0.27387(7)
O9 O 0.27273(7) 0.14462(11) 0.53041(12)
O10 O 0.22727(7) 0.35538(11) 0.46959(12)
O11 O 0.19963(7) 0.05892(12) 0.54345(13)
O12 O 0.22306(7) 0.17257(14) 0.33011(13)
O13 O 0.19809(7) 0.24671(13) 0.63596(12)
Sm2 Sm 0.829767(5) 0.215478(8) 0.038956(8)
C3 C 0.98578(12) 0.2436(2) 0.5932(3)
H1 H 0.9932 0.1776 0.5886
C4 C 0.93629(13) 0.2737(2) 0.6185(3)
H2 H 0.9107 0.2272 0.6298
C5 C 0.92410(10) 0.37206(18) 0.62747(18)
C6 C 0.96322(11) 0.4398(2) 0.6107(2)
H3 H 0.9564 0.5060 0.6157
C8 C 0.86936(10) 0.39993(18) 0.65019(19)
C9 C 0.84619(10) 0.34657(19) 0.71914(18)
H5 H 0.8668 0.2982 0.7550
C10 C 0.79335(10) 0.36301(17) 0.73630(17)
C11 C 0.76188(10) 0.43346(17) 0.67997(18)
H6 H 0.7254 0.4421 0.6864
C12 C 0.78562(10) 0.49103(16) 0.61371(17)
C13 C 0.83886(10) 0.47529(17) 0.60036(17)
H7 H 0.8546 0.5153 0.5578
C14 C 0.77129(10) 0.30712(18) 0.81685(18)
C15 C 0.75078(10) 0.56970(16) 0.55873(16)
O3 O 0.77273(7) 0.64462(11) 0.53041(12)
O4 O 0.69963(7) 0.55892(12) 0.54345(13)
O5 O 0.72306(7) 0.32743(14) 0.83011(13)
O6 O 0.80191(7) 0.24671(13) 0.86404(12)
Sm3 Sm 0.670233(5) 0.715478(8) 0.461044(8)
Sm4 Sm 0.829767(5) 0.784522(8) 0.538956(8)
Sm5 Sm 0.670233(5) 0.284522(8) 0.961044(8)
Sm3_2 Sm 0.329767(5) 0.715478(8) 0.038956(8)
C3_2 C 0.01422(12) 0.2436(2) 0.9068(3)
H1_2 H 0.0068 0.1776 0.9114
C4_2 C 0.06371(13) 0.2737(2) 0.8815(3)
H2_2 H 0.0893 0.2272 0.8702
C5_2 C 0.07590(10) 0.37206(18) 0.87253(18)
C6_2 C 0.03678(11) 0.4398(2) 0.8893(2)
H3_2 H 0.0436 0.5060 0.8843
C8_2 C 0.13064(10) 0.39993(18) 0.84981(19)
C9_2 C 0.15381(10) 0.34657(19) 0.78086(18)
H5_2 H 0.1332 0.2982 0.7450
C10_2 C 0.20665(10) 0.36301(17) 0.76370(17)
C11_2 C 0.23812(10) 0.43346(17) 0.82003(18)
H6_2 H 0.2746 0.4421 0.8136
C12_2 C 0.21438(10) 0.49103(16) 0.88629(17)
C13_2 C 0.16114(10) 0.47529(17) 0.89964(17)
H7_2 H 0.1454 0.5153 0.9422
C14_2 C 0.22871(10) 0.30712(18) 0.68315(18)
C15_2 C 0.24922(10) 0.56970(16) 0.94127(16)
O3_2 O 0.22727(7) 0.64462(11) 0.96959(12)
O4_2 O 0.30037(7) 0.55892(12) 0.95655(13)
O5_2 O 0.27694(7) 0.32743(14) 0.66989(13)
Sm4_2 Sm 0.170233(5) 0.784522(8) 0.961044(8)
Sm5_2 Sm 0.329767(5) 0.284522(8) 0.538956(8)
C16_2 C 0.9425(3) 0.3373(8) 0.3391(7)
H8_2 H 0.9729 0.3038 0.3190
H9_2 H 0.9463 0.3372 0.4102
H10_2 H 0.9417 0.4032 0.3156
C17_2 C 0.8415(3) 0.3514(7) 0.3133(7)
H11_2 H 0.8056 0.3252 0.2922
H12_2 H 0.8453 0.4112 0.2788
H13_2 H 0.8466 0.3634 0.3833
O7_2 O 0.87500(11) 0.29888(16) 0.18426(17)
O8_2 O 0.87921(8) 0.08572(14) 0.13896(15)
S1_2 S 0.88333(7) 0.28005(10) 0.29051(9)
S2_2 S 0.86652(4) 0.02764(7) 0.22613(7)
O10_2 O 0.77273(7) 0.35538(11) 0.03041(12)
O12_2 O 0.77694(7) 0.17257(14) 0.16989(13)
C1_2 C 0.92470(10) 0.28048(17) 0.96252(18)
C2_2 C 0.97598(10) 0.31182(19) 0.92526(18)
C7_2 C 0.98731(11) 0.4080(2) 0.9138(2)
H4_2 H 0.9610 0.4539 0.9226
O1_2 O 0.89304(7) 0.34308(13) 0.98601(15)
O2_2 O 0.91561(7) 0.18995(13) 0.97178(14)
O9_2 O 0.72727(7) 0.14462(11) 0.96959(12)
O11_2 O 0.80037(7) 0.05892(12) 0.95655(13)
H3_3 H 0.4564 0.0060 0.6157
H7_3 H 0.3546 0.0153 0.5578
C15_3 C 0.25078(10) 0.06970(16) 0.55873(16)
C1_3 C 0.57530(10) 0.78048(17) 0.53748(18)
C2_3 C 0.52402(10) 0.81182(19) 0.57474(18)
C3_3 C 0.48578(12) 0.7436(2) 0.5932(3)
H1_3 H 0.4932 0.6776 0.5886
C4_3 C 0.43629(13) 0.7737(2) 0.6185(3)
H2_3 H 0.4107 0.7272 0.6298
C5_3 C 0.42410(10) 0.87206(18) 0.62747(18)
C6_3 C 0.46322(11) 0.9398(2) 0.6107(2)
C7_3 C 0.51269(11) 0.9080(2) 0.5862(2)
H4_3 H 0.5390 0.9539 0.5774
C8_3 C 0.36936(10) 0.89993(18) 0.65019(19)
C9_3 C 0.34619(10) 0.84657(19) 0.71914(18)
H5_3 H 0.3668 0.7982 0.7550
C10_3 C 0.29335(10) 0.86301(17) 0.73630(17)
C11_3 C 0.26188(10) 0.93346(17) 0.67997(18)
H6_3 H 0.2254 0.9421 0.6864
C12_3 C 0.28562(10) 0.99103(16) 0.61371(17)
C13_3 C 0.33886(10) 0.97529(17) 0.60036(17)
C14_3 C 0.27129(10) 0.80712(18) 0.81685(18)
C16_3 C 0.5575(3) 0.8373(8) 0.1609(7)
H8_3 H 0.5271 0.8038 0.1810
H9_3 H 0.5537 0.8372 0.0898
H10_3 H 0.5583 0.9032 0.1844
C17_3 C 0.6585(3) 0.8514(7) 0.1867(7)
H11_3 H 0.6944 0.8252 0.2078
H12_3 H 0.6547 0.9112 0.2212
H13_3 H 0.6534 0.8634 0.1167
C18 C 0.68057(19) 0.4337(3) 0.3271(3)
H14 H 0.7154 0.4623 0.3513
H15 H 0.6846 0.3862 0.2773
H16 H 0.6666 0.4028 0.3809
C19 C 0.5770(2) 0.4541(3) 0.2372(4)
H17 H 0.5643 0.4283 0.2948
H18 H 0.5869 0.4016 0.1974
H19 H 0.5485 0.4918 0.1992
O1_3 O 0.60696(7) 0.84308(13) 0.51399(15)
O2_3 O 0.58439(7) 0.68995(13) 0.52822(14)
O5_3 O 0.22306(7) 0.82743(14) 0.83011(13)
O6_2 O 0.30191(7) 0.74671(13) 0.86404(12)
O7_3 O 0.62500(11) 0.79888(16) 0.31574(17)
O8_3 O 0.62079(8) 0.58572(14) 0.36104(15)
S1_3 S 0.61667(7) 0.78005(10) 0.20949(9)
S2_3 S 0.63348(4) 0.52764(7) 0.27387(7)
O10_3 O 0.72727(7) 0.85538(11) 0.46959(12)
O12_3 O 0.72306(7) 0.67257(14) 0.33011(13)
O13_2 O 0.69809(7) 0.74671(13) 0.63596(12)
H3_4 H 0.5436 0.0060 0.8843
H7_4 H 0.6454 0.0153 0.9422
C15_4 C 0.74922(10) 0.06970(16) 0.94127(16)
C16_4 C 0.4425(3) 0.8373(8) 0.3391(7)
H8_4 H 0.4729 0.8038 0.3190
H9_4 H 0.4463 0.8372 0.4102
H10_4 H 0.4417 0.9032 0.3156
C17_4 C 0.3415(3) 0.8514(7) 0.3133(7)
H11_4 H 0.3056 0.8252 0.2922
H12_4 H 0.3453 0.9112 0.2788
H13_4 H 0.3466 0.8634 0.3833
C18_2 C 0.31943(19) 0.4337(3) 0.1729(3)
H14_2 H 0.2846 0.4623 0.1487
H15_2 H 0.3154 0.3862 0.2227
H16_2 H 0.3334 0.4028 0.1191
C19_2 C 0.4230(2) 0.4541(3) 0.2628(4)
H17_2 H 0.4357 0.4283 0.2052
H18_2 H 0.4131 0.4016 0.3026
H19_2 H 0.4515 0.4918 0.3008
O7_4 O 0.37500(11) 0.79888(16) 0.18426(17)
O8_4 O 0.37921(8) 0.58572(14) 0.13896(15)
S1_4 S 0.38333(7) 0.78005(10) 0.29051(9)
S2_4 S 0.36652(4) 0.52764(7) 0.22613(7)
O10_4 O 0.27273(7) 0.85538(11) 0.03041(12)
O12_4 O 0.27694(7) 0.67257(14) 0.16989(13)
C1_4 C 0.42470(10) 0.78048(17) 0.96252(18)
C2_4 C 0.47598(10) 0.81182(19) 0.92526(18)
C3_4 C 0.51422(12) 0.7436(2) 0.9068(3)
H1_4 H 0.5068 0.6776 0.9114
C4_4 C 0.56371(13) 0.7737(2) 0.8815(3)
H2_4 H 0.5893 0.7272 0.8702
C5_4 C 0.57590(10) 0.87206(18) 0.87253(18)
C6_4 C 0.53678(11) 0.9398(2) 0.8893(2)
C7_4 C 0.48731(11) 0.9080(2) 0.9138(2)
H4_4 H 0.4610 0.9539 0.9226
C8_4 C 0.63064(10) 0.89993(18) 0.84981(19)
C9_4 C 0.65381(10) 0.84657(19) 0.78086(18)
H5_4 H 0.6332 0.7982 0.7450
C10_4 C 0.70665(10) 0.86301(17) 0.76370(17)
C11_4 C 0.73812(10) 0.93346(17) 0.82003(18)
H6_4 H 0.7746 0.9421 0.8136
C12_4 C 0.71438(10) 0.99103(16) 0.88629(17)
C13_4 C 0.66114(10) 0.97529(17) 0.89964(17)
C14_4 C 0.72871(10) 0.80712(18) 0.68315(18)
O1_4 O 0.39304(7) 0.84308(13) 0.98601(15)
O2_4 O 0.41561(7) 0.68995(13) 0.97178(14)
O5_4 O 0.77694(7) 0.82743(14) 0.66989(13)
C3_5 C 0.01422(12) 0.7564(2) 0.4068(3)
H1_5 H 0.0068 0.8224 0.4114
C4_5 C 0.06371(13) 0.7263(2) 0.3815(3)
H2_5 H 0.0893 0.7728 0.3702
C5_5 C 0.07590(10) 0.62794(18) 0.37253(18)
C6_5 C 0.03678(11) 0.5602(2) 0.3893(2)
H3_5 H 0.0436 0.4940 0.3843
C8_5 C 0.13064(10) 0.60007(18) 0.34981(19)
C9_5 C 0.15381(10) 0.65343(19) 0.28086(18)
H5_5 H 0.1332 0.7018 0.2450
C10_5 C 0.20665(10) 0.63699(17) 0.26370(17)
C11_5 C 0.23812(10) 0.56654(17) 0.32003(18)
H6_5 H 0.2746 0.5579 0.3136
C12_5 C 0.21438(10) 0.50897(16) 0.38629(17)
C13_5 C 0.16114(10) 0.52471(17) 0.39964(17)
H7_5 H 0.1454 0.4847 0.4422
C14_5 C 0.22871(10) 0.69288(18) 0.18315(18)
C15_5 C 0.24922(10) 0.43030(16) 0.44127(16)
O4_3 O 0.30037(7) 0.44108(12) 0.45655(13)
O6_3 O 0.19809(7) 0.75329(13) 0.13596(12)
C1_5 C 0.92470(10) 0.71952(17) 0.46252(18)
C2_5 C 0.97598(10) 0.68818(19) 0.42526(18)
C7_5 C 0.98731(11) 0.5920(2) 0.4138(2)
H4_5 H 0.9610 0.5461 0.4226
C16_5 C 0.9425(3) 0.6627(8) 0.8391(7)
H8_5 H 0.9729 0.6962 0.8190
H9_5 H 0.9463 0.6628 0.9102
H10_5 H 0.9417 0.5968 0.8156
C17_5 C 0.8415(3) 0.6486(7) 0.8133(7)
H11_5 H 0.8056 0.6748 0.7922
H12_5 H 0.8453 0.5888 0.7788
H13_5 H 0.8466 0.6366 0.8833
O1_5 O 0.89304(7) 0.65692(13) 0.48601(15)
O2_5 O 0.91561(7) 0.81005(13) 0.47178(14)
O7_5 O 0.87500(11) 0.70112(16) 0.68426(17)
O8_5 O 0.87921(8) 0.91428(14) 0.63896(15)
S1_5 S 0.88333(7) 0.71995(10) 0.79051(9)
S2_5 S 0.86652(4) 0.97236(7) 0.72613(7)
O11_3 O 0.80037(7) 0.94108(12) 0.45655(13)
O13_3 O 0.80191(7) 0.75329(13) 0.36404(12)
C1_6 C 0.07530(10) 0.71952(17) 0.03748(18)
C2_6 C 0.02402(10) 0.68818(19) 0.07474(18)
C7_6 C 0.01269(11) 0.5920(2) 0.0862(2)
H4_6 H 0.0390 0.5461 0.0774
O1_6 O 0.10696(7) 0.65692(13) 0.01399(15)
O2_6 O 0.08439(7) 0.81005(13) 0.02822(14)
O11_4 O 0.19963(7) 0.94108(12) 0.04345(13)
C16_6 C 0.0575(3) 0.6627(8) 0.6609(7)
H8_6 H 0.0271 0.6962 0.6810
H9_6 H 0.0537 0.6628 0.5898
H10_6 H 0.0583 0.5968 0.6844
C17_6 C 0.1585(3) 0.6486(7) 0.6867(7)
H11_6 H 0.1944 0.6748 0.7078
H12_6 H 0.1547 0.5888 0.7212
H13_6 H 0.1534 0.6366 0.6167
O7_6 O 0.12500(11) 0.70112(16) 0.81574(17)
O8_6 O 0.12079(8) 0.91428(14) 0.86104(15)
S1_6 S 0.11667(7) 0.71995(10) 0.70949(9)
S2_6 S 0.13348(4) 0.97236(7) 0.77387(7)
C3_6 C 0.98578(12) 0.7564(2) 0.0932(3)
H1_6 H 0.9932 0.8224 0.0886
C4_6 C 0.93629(13) 0.7263(2) 0.1185(3)
H2_6 H 0.9107 0.7728 0.1298
C5_6 C 0.92410(10) 0.62794(18) 0.12747(18)
C6_6 C 0.96322(11) 0.5602(2) 0.1107(2)
H3_6 H 0.9564 0.4940 0.1157
C8_6 C 0.86936(10) 0.60007(18) 0.15019(19)
C9_6 C 0.84619(10) 0.65343(19) 0.21914(18)
H5_6 H 0.8668 0.7018 0.2550
C10_6 C 0.79335(10) 0.63699(17) 0.23630(17)
C11_6 C 0.76188(10) 0.56654(17) 0.17997(18)
H6_6 H 0.7254 0.5579 0.1864
C12_6 C 0.78562(10) 0.50897(16) 0.11371(17)
C13_6 C 0.83886(10) 0.52471(17) 0.10036(17)
H7_6 H 0.8546 0.4847 0.0578
C14_6 C 0.77129(10) 0.69288(18) 0.31685(18)
C15_6 C 0.75078(10) 0.43030(16) 0.05873(16)
O4_4 O 0.69963(7) 0.44108(12) 0.04345(13)
C1_7 C 0.42470(10) 0.21952(17) 0.46252(18)
C2_7 C 0.47598(10) 0.18818(19) 0.42526(18)
C3_7 C 0.51422(12) 0.2564(2) 0.4068(3)
H1_7 H 0.5068 0.3224 0.4114
C4_7 C 0.56371(13) 0.2263(2) 0.3815(3)
H2_7 H 0.5893 0.2728 0.3702
C5_7 C 0.57590(10) 0.12794(18) 0.37253(18)
C6_7 C 0.53678(11) 0.0602(2) 0.3893(2)
C7_7 C 0.48731(11) 0.0920(2) 0.4138(2)
H4_7 H 0.4610 0.0461 0.4226
C8_7 C 0.63064(10) 0.10007(18) 0.34981(19)
C9_7 C 0.65381(10) 0.15343(19) 0.28086(18)
H5_7 H 0.6332 0.2018 0.2450
C10_7 C 0.70665(10) 0.13699(17) 0.26370(17)
C11_7 C 0.73812(10) 0.06654(17) 0.32003(18)
H6_7 H 0.7746 0.0579 0.3136
C12_7 C 0.71438(10) 0.00897(16) 0.38629(17)
C13_7 C 0.66114(10) 0.02471(17) 0.39964(17)
C14_7 C 0.72871(10) 0.19288(18) 0.18315(18)
C16_7 C 0.4425(3) 0.1627(8) 0.8391(7)
H8_7 H 0.4729 0.1962 0.8190
H9_7 H 0.4463 0.1628 0.9102
H10_7 H 0.4417 0.0968 0.8156
C17_7 C 0.3415(3) 0.1486(7) 0.8133(7)
H11_7 H 0.3056 0.1748 0.7922
H12_7 H 0.3453 0.0888 0.7788
H13_7 H 0.3466 0.1366 0.8833
C18_3 C 0.31943(19) 0.5663(3) 0.6729(3)
H14_3 H 0.2846 0.5377 0.6487
H15_3 H 0.3154 0.6138 0.7227
H16_3 H 0.3334 0.5972 0.6191
C19_3 C 0.4230(2) 0.5459(3) 0.7628(4)
H17_3 H 0.4357 0.5717 0.7052
H18_3 H 0.4131 0.5984 0.8026
H19_3 H 0.4515 0.5082 0.8008
O1_7 O 0.39304(7) 0.15692(13) 0.48601(15)
O2_7 O 0.41561(7) 0.31005(13) 0.47178(14)
O6_4 O 0.69809(7) 0.25329(13) 0.13596(12)
O7_7 O 0.37500(11) 0.20112(16) 0.68426(17)
O8_7 O 0.37921(8) 0.41428(14) 0.63896(15)
S1_7 S 0.38333(7) 0.21995(10) 0.79051(9)
S2_7 S 0.36652(4) 0.47236(7) 0.72613(7)
O13_4 O 0.30191(7) 0.25329(13) 0.36404(12)
H3_7 H 0.5436 0.9940 0.3843
H7_7 H 0.6454 0.9847 0.4422
C15_7 C 0.74922(10) 0.93030(16) 0.44127(16)
C1_8 C 0.57530(10) 0.21952(17) 0.03748(18)
C2_8 C 0.52402(10) 0.18818(19) 0.07474(18)
C3_8 C 0.48578(12) 0.2564(2) 0.0932(3)
H1_8 H 0.4932 0.3224 0.0886
C4_8 C 0.43629(13) 0.2263(2) 0.1185(3)
H2_8 H 0.4107 0.2728 0.1298
C5_8 C 0.42410(10) 0.12794(18) 0.12747(18)
C6_8 C 0.46322(11) 0.0602(2) 0.1107(2)
C7_8 C 0.51269(11) 0.0920(2) 0.0862(2)
H4_8 H 0.5390 0.0461 0.0774
C8_8 C 0.36936(10) 0.10007(18) 0.15019(19)
C9_8 C 0.34619(10) 0.15343(19) 0.21914(18)
H5_8 H 0.3668 0.2018 0.2550
C10_8 C 0.29335(10) 0.13699(17) 0.23630(17)
C11_8 C 0.26188(10) 0.06654(17) 0.17997(18)
H6_8 H 0.2254 0.0579 0.1864
C12_8 C 0.28562(10) 0.00897(16) 0.11371(17)
C13_8 C 0.33886(10) 0.02471(17) 0.10036(17)
C14_8 C 0.27129(10) 0.19288(18) 0.31685(18)
O1_8 O 0.60696(7) 0.15692(13) 0.01399(15)
O2_8 O 0.58439(7) 0.31005(13) 0.02822(14)
C16_8 C 0.5575(3) 0.1627(8) 0.6609(7)
H8_8 H 0.5271 0.1962 0.6810
H9_8 H 0.5537 0.1628 0.5898
H10_8 H 0.5583 0.0968 0.6844
C17_8 C 0.6585(3) 0.1486(7) 0.6867(7)
H11_8 H 0.6944 0.1748 0.7078
H12_8 H 0.6547 0.0888 0.7212
H13_8 H 0.6534 0.1366 0.6167
C18_4 C 0.68057(19) 0.5663(3) 0.8271(3)
H14_4 H 0.7154 0.5377 0.8513
H15_4 H 0.6846 0.6138 0.7773
H16_4 H 0.6666 0.5972 0.8809
C19_4 C 0.5770(2) 0.5459(3) 0.7372(4)
H17_4 H 0.5643 0.5717 0.7948
H18_4 H 0.5869 0.5984 0.6974
H19_4 H 0.5485 0.5082 0.6992
O7_8 O 0.62500(11) 0.20112(16) 0.81574(17)
O8_8 O 0.62079(8) 0.41428(14) 0.86104(15)
S1_8 S 0.61667(7) 0.21995(10) 0.70949(9)
S2_8 S 0.63348(4) 0.47236(7) 0.77387(7)
H3_8 H 0.4564 0.9940 0.1157
H7_8 H 0.3546 0.9847 0.0578
C15_8 C 0.25078(10) 0.93030(16) 0.05873(16)
C18_5 C 0.18057(19) 0.9337(3) 0.3271(3)
H14_5 H 0.2154 0.9623 0.3513
H15_5 H 0.1846 0.8862 0.2773
H16_5 H 0.1666 0.9028 0.3809
C19_5 C 0.0770(2) 0.9541(3) 0.2372(4)
H17_5 H 0.0643 0.9283 0.2948
H18_5 H 0.0869 0.9016 0.1974
H19_5 H 0.0485 0.9918 0.1992
C18_6 C 0.81943(19) 0.9337(3) 0.1729(3)
H14_6 H 0.7846 0.9623 0.1487
H15_6 H 0.8154 0.8862 0.2227
H16_6 H 0.8334 0.9028 0.1191
C19_6 C 0.9230(2) 0.9541(3) 0.2628(4)
H17_6 H 0.9357 0.9283 0.2052
H18_6 H 0.9131 0.9016 0.3026
H19_6 H 0.9515 0.9918 0.3008
C18_7 C 0.81943(19) 0.0663(3) 0.6729(3)
H14_7 H 0.7846 0.0377 0.6487
H15_7 H 0.8154 0.1138 0.7227
H16_7 H 0.8334 0.0972 0.6191
C19_7 C 0.9230(2) 0.0459(3) 0.7628(4)
H17_7 H 0.9357 0.0717 0.7052
H18_7 H 0.9131 0.0984 0.8026
H19_7 H 0.9515 0.0082 0.8008
C18_8 C 0.18057(19) 0.0663(3) 0.8271(3)
H14_8 H 0.2154 0.0377 0.8513
H15_8 H 0.1846 0.1138 0.7773
H16_8 H 0.1666 0.0972 0.8809
C19_8 C 0.0770(2) 0.0459(3) 0.7372(4)
H17_8 H 0.0643 0.0717 0.7948
H18_8 H 0.0869 0.0984 0.6974
H19_8 H 0.0485 0.0082 0.6992
loop_
_geom_bond_atom_site_label_1
_geom_bond_atom_site_label_2
_geom_bond_site_symmetry_1
_geom_bond_site_symmetry_2
Sm1 O1 1_555 1_555
C1 C2 1_555 1_555
C7 C2 1_555 1_555
H4 C7 1_555 1_555
C16 H8 1_555 1_555
H9 C16 1_555 1_555
H10 C16 1_555 1_555
C17 H11 1_555 1_555
H12 C17 1_555 1_555
H13 C17 1_555 1_555
O1 C1 1_555 1_555
O2 Sm1 1_555 1_555
O7 Sm1 1_555 1_555
O8 Sm1 1_555 1_555
S1 C16 1_555 1_555
O9 Sm1 1_555 1_555
O10 Sm1 1_555 1_555
O11 Sm1 1_555 1_555
O12 Sm1 1_555 1_555
O13 Sm1 1_555 1_555
C1 O2 1_555 1_555
C17 S1 1_555 1_555
O7 S1 1_555 1_555
O8 S2 1_555 1_555
C3 H1 1_555 1_555
C4 C3 1_555 1_555
H2 C4 1_555 1_555
C5 C4 1_555 1_555
C6 C5 1_555 1_555
H3 C6 1_555 1_555
C8 C5 1_555 1_555
C9 C8 1_555 1_555
H5 C9 1_555 1_555
C10 C9 1_555 1_555
C11 C10 1_555 1_555
H6 C11 1_555 1_555
C12 C11 1_555 1_555
C13 C8 1_555 1_555
H7 C13 1_555 1_555
C14 C10 1_555 1_555
C15 C12 1_555 1_555
O3 C15 1_555 1_555
O4 C15 1_555 1_555
O5 C14 1_555 1_555
O6 C14 1_555 1_555
Sm3 O3 1_555 1_555
Sm4 O3 1_555 1_555
Sm5 O5 1_555 1_555
C12 C13 1_555 1_555
O4 Sm3 1_555 1_555
C3_2 H1_2 1_555 1_555
C4_2 C3_2 1_555 1_555
H2_2 C4_2 1_555 1_555
C5_2 C4_2 1_555 1_555
C6_2 C5_2 1_555 1_555
H3_2 C6_2 1_555 1_555
C8_2 C5_2 1_555 1_555
C9_2 C8_2 1_555 1_555
H5_2 C9_2 1_555 1_555
C10_2 C9_2 1_555 1_555
C11_2 C10_2 1_555 1_555
H6_2 C11_2 1_555 1_555
C12_2 C11_2 1_555 1_555
C13_2 C8_2 1_555 1_555
H7_2 C13_2 1_555 1_555
C14_2 C10_2 1_555 1_555
C15_2 C12_2 1_555 1_555
O3_2 C15_2 1_555 1_555
O4_2 C15_2 1_555 1_555
O5_2 C14_2 1_555 1_555
O13 C14_2 1_555 1_555
Sm4_2 O3_2 1_555 1_555
Sm5_2 O5_2 1_555 1_555
C12_2 C13_2 1_555 1_555
C16_2 H8_2 1_555 1_555
H9_2 C16_2 1_555 1_555
H10_2 C16_2 1_555 1_555
C17_2 H11_2 1_555 1_555
H12_2 C17_2 1_555 1_555
H13_2 C17_2 1_555 1_555
O7_2 Sm2 1_555 1_555
O8_2 Sm2 1_555 1_555
S1_2 C16_2 1_555 1_555
O10_2 Sm2 1_555 1_555
O12_2 Sm2 1_555 1_555
C17_2 S1_2 1_555 1_555
O7_2 S1_2 1_555 1_555
O8_2 S2_2 1_555 1_555
C1_2 C2_2 1_555 1_555
C7_2 C2_2 1_555 1_555
H4_2 C7_2 1_555 1_555
O1_2 C1_2 1_555 1_555
C1_2 O2_2 1_555 1_555
O9 C15_3 1_555 1_555
O11 C15_3 1_555 1_555
Sm5_2 O9 1_555 1_555
Sm3 O1_3 1_555 1_555
C1_3 C2_3 1_555 1_555
C2_3 C3_3 1_555 1_555
C3_3 H1_3 1_555 1_555
C4_3 C3_3 1_555 1_555
H2_3 C4_3 1_555 1_555
C5_3 C4_3 1_555 1_555
C6_3 C5_3 1_555 1_555
C7_3 C2_3 1_555 1_555
H4_3 C7_3 1_555 1_555
C8_3 C5_3 1_555 1_555
C9_3 C8_3 1_555 1_555
H5_3 C9_3 1_555 1_555
C10_3 C9_3 1_555 1_555
C11_3 C10_3 1_555 1_555
H6_3 C11_3 1_555 1_555
C12_3 C11_3 1_555 1_555
C13_3 C8_3 1_555 1_555
C14_3 C10_3 1_555 1_555
C16_3 H8_3 1_555 1_555
H9_3 C16_3 1_555 1_555
H10_3 C16_3 1_555 1_555
C17_3 H11_3 1_555 1_555
H12_3 C17_3 1_555 1_555
H13_3 C17_3 1_555 1_555
C18 H14 1_555 1_555
H15 C18 1_555 1_555
H16 C18 1_555 1_555
C19 H17 1_555 1_555
H18 C19 1_555 1_555
H19 C19 1_555 1_555
O1_3 C1_3 1_555 1_555
O2_3 Sm3 1_555 1_555
O5_3 C14_3 1_555 1_555
O6_2 C14_3 1_555 1_555
O7_3 Sm3 1_555 1_555
O8_3 Sm3 1_555 1_555
S1_3 C16_3 1_555 1_555
S2_3 C18 1_555 1_555
Sm4_2 O5_3 1_555 1_555
O10_3 Sm3 1_555 1_555
O12_3 Sm3 1_555 1_555
O13_2 Sm3 1_555 1_555
C1_3 O2_3 1_555 1_555
C6_3 C7_3 1_555 1_555
C12_3 C13_3 1_555 1_555
C17_3 S1_3 1_555 1_555
C19 S2_3 1_555 1_555
O7_3 S1_3 1_555 1_555
O8_3 S2_3 1_555 1_555
O9_2 C15_4 1_555 1_555
O11_2 C15_4 1_555 1_555
Sm5 O9_2 1_555 1_555
C16_4 H8_4 1_555 1_555
H9_4 C16_4 1_555 1_555
H10_4 C16_4 1_555 1_555
C17_4 H11_4 1_555 1_555
H12_4 C17_4 1_555 1_555
H13_4 C17_4 1_555 1_555
C18_2 H14_2 1_555 1_555
H15_2 C18_2 1_555 1_555
H16_2 C18_2 1_555 1_555
C19_2 H17_2 1_555 1_555
H18_2 C19_2 1_555 1_555
H19_2 C19_2 1_555 1_555
O7_4 Sm3_2 1_555 1_555
O8_4 Sm3_2 1_555 1_555
S1_4 C16_4 1_555 1_555
S2_4 C18_2 1_555 1_555
O10_4 Sm3_2 1_555 1_555
O12_4 Sm3_2 1_555 1_555
C17_4 S1_4 1_555 1_555
C19_2 S2_4 1_555 1_555
O7_4 S1_4 1_555 1_555
O8_4 S2_4 1_555 1_555
C1_4 C2_4 1_555 1_555
C2_4 C3_4 1_555 1_555
C3_4 H1_4 1_555 1_555
C4_4 C3_4 1_555 1_555
H2_4 C4_4 1_555 1_555
C5_4 C4_4 1_555 1_555
C6_4 C5_4 1_555 1_555
C7_4 C2_4 1_555 1_555
H4_4 C7_4 1_555 1_555
C8_4 C5_4 1_555 1_555
C9_4 C8_4 1_555 1_555
H5_4 C9_4 1_555 1_555
C10_4 C9_4 1_555 1_555
C11_4 C10_4 1_555 1_555
H6_4 C11_4 1_555 1_555
C12_4 C11_4 1_555 1_555
C13_4 C8_4 1_555 1_555
C14_4 C10_4 1_555 1_555
O1_4 C1_4 1_555 1_555
O5_4 C14_4 1_555 1_555
O13_2 C14_4 1_555 1_555
Sm4 O5_4 1_555 1_555
C1_4 O2_4 1_555 1_555
C6_4 C7_4 1_555 1_555
C12_4 C13_4 1_555 1_555
C3_5 H1_5 1_555 1_555
C4_5 C3_5 1_555 1_555
H2_5 C4_5 1_555 1_555
C5_5 C4_5 1_555 1_555
C6_5 C5_5 1_555 1_555
H3_5 C6_5 1_555 1_555
C8_5 C5_5 1_555 1_555
C9_5 C8_5 1_555 1_555
H5_5 C9_5 1_555 1_555
C10_5 C9_5 1_555 1_555
C11_5 C10_5 1_555 1_555
H6_5 C11_5 1_555 1_555
C12_5 C11_5 1_555 1_555
C13_5 C8_5 1_555 1_555
H7_5 C13_5 1_555 1_555
C14_5 C10_5 1_555 1_555
C15_5 C12_5 1_555 1_555
O10 C15_5 1_555 1_555
O4_3 C15_5 1_555 1_555
O12_4 C14_5 1_555 1_555
O6_3 C14_5 1_555 1_555
Sm5_2 O10 1_555 1_555
C12_5 C13_5 1_555 1_555
O4_3 Sm5_2 1_555 1_555
Sm4 O1_5 1_555 1_555
C1_5 C2_5 1_555 1_555
C7_5 C2_5 1_555 1_555
H4_5 C7_5 1_555 1_555
C16_5 H8_5 1_555 1_555
H9_5 C16_5 1_555 1_555
H10_5 C16_5 1_555 1_555
C17_5 H11_5 1_555 1_555
H12_5 C17_5 1_555 1_555
H13_5 C17_5 1_555 1_555
O1_5 C1_5 1_555 1_555
O2_5 Sm4 1_555 1_555
O7_5 Sm4 1_555 1_555
O8_5 Sm4 1_555 1_555
S1_5 C16_5 1_555 1_555
O10_3 Sm4 1_555 1_555
O11_3 Sm4 1_555 1_555
O13_3 Sm4 1_555 1_555
C1_5 O2_5 1_555 1_555
C17_5 S1_5 1_555 1_555
O7_5 S1_5 1_555 1_555
O8_5 S2_5 1_555 1_555
C1_6 C2_6 1_555 1_555
C7_6 C2_6 1_555 1_555
H4_6 C7_6 1_555 1_555
O1_6 C1_6 1_555 1_555
C1_6 O2_6 1_555 1_555
C16_6 H8_6 1_555 1_555
H9_6 C16_6 1_555 1_555
H10_6 C16_6 1_555 1_555
C17_6 H11_6 1_555 1_555
H12_6 C17_6 1_555 1_555
H13_6 C17_6 1_555 1_555
O7_6 Sm4_2 1_555 1_555
O8_6 Sm4_2 1_555 1_555
S1_6 C16_6 1_555 1_555
C17_6 S1_6 1_555 1_555
O7_6 S1_6 1_555 1_555
O8_6 S2_6 1_555 1_555
C3_6 H1_6 1_555 1_555
C4_6 C3_6 1_555 1_555
H2_6 C4_6 1_555 1_555
C5_6 C4_6 1_555 1_555
C6_6 C5_6 1_555 1_555
H3_6 C6_6 1_555 1_555
C8_6 C5_6 1_555 1_555
C9_6 C8_6 1_555 1_555
H5_6 C9_6 1_555 1_555
C10_6 C9_6 1_555 1_555
C11_6 C10_6 1_555 1_555
H6_6 C11_6 1_555 1_555
C12_6 C11_6 1_555 1_555
C13_6 C8_6 1_555 1_555
H7_6 C13_6 1_555 1_555
C14_6 C10_6 1_555 1_555
C15_6 C12_6 1_555 1_555
O10_2 C15_6 1_555 1_555
O4_4 C15_6 1_555 1_555
O12_3 C14_6 1_555 1_555
O13_3 C14_6 1_555 1_555
C12_6 C13_6 1_555 1_555
Sm5_2 O1_7 1_555 1_555
C1_7 C2_7 1_555 1_555
C2_7 C3_7 1_555 1_555
C3_7 H1_7 1_555 1_555
C4_7 C3_7 1_555 1_555
H2_7 C4_7 1_555 1_555
C5_7 C4_7 1_555 1_555
C6_7 C5_7 1_555 1_555
C7_7 C2_7 1_555 1_555
H4_7 C7_7 1_555 1_555
C8_7 C5_7 1_555 1_555
C9_7 C8_7 1_555 1_555
H5_7 C9_7 1_555 1_555
C10_7 C9_7 1_555 1_555
C11_7 C10_7 1_555 1_555
H6_7 C11_7 1_555 1_555
C12_7 C11_7 1_555 1_555
C13_7 C8_7 1_555 1_555
C14_7 C10_7 1_555 1_555
C16_7 H8_7 1_555 1_555
H9_7 C16_7 1_555 1_555
H10_7 C16_7 1_555 1_555
C17_7 H11_7 1_555 1_555
H12_7 C17_7 1_555 1_555
H13_7 C17_7 1_555 1_555
C18_3 H14_3 1_555 1_555
H15_3 C18_3 1_555 1_555
H16_3 C18_3 1_555 1_555
C19_3 H17_3 1_555 1_555
H18_3 C19_3 1_555 1_555
H19_3 C19_3 1_555 1_555
O1_7 C1_7 1_555 1_555
O2_7 Sm5_2 1_555 1_555
O12_2 C14_7 1_555 1_555
O6_4 C14_7 1_555 1_555
O7_7 Sm5_2 1_555 1_555
O8_7 Sm5_2 1_555 1_555
S1_7 C16_7 1_555 1_555
S2_7 C18_3 1_555 1_555
O13_4 Sm5_2 1_555 1_555
C1_7 O2_7 1_555 1_555
C6_7 C7_7 1_555 1_555
C12_7 C13_7 1_555 1_555
C17_7 S1_7 1_555 1_555
C19_3 S2_7 1_555 1_555
O7_7 S1_7 1_555 1_555
O8_7 S2_7 1_555 1_555
O10_3 C15_7 1_555 1_555
O11_3 C15_7 1_555 1_555
C1_8 C2_8 1_555 1_555
C2_8 C3_8 1_555 1_555
C3_8 H1_8 1_555 1_555
C4_8 C3_8 1_555 1_555
H2_8 C4_8 1_555 1_555
C5_8 C4_8 1_555 1_555
C6_8 C5_8 1_555 1_555
C7_8 C2_8 1_555 1_555
H4_8 C7_8 1_555 1_555
C8_8 C5_8 1_555 1_555
C9_8 C8_8 1_555 1_555
H5_8 C9_8 1_555 1_555
C10_8 C9_8 1_555 1_555
C11_8 C10_8 1_555 1_555
H6_8 C11_8 1_555 1_555
C12_8 C11_8 1_555 1_555
C13_8 C8_8 1_555 1_555
C14_8 C10_8 1_555 1_555
O1_8 C1_8 1_555 1_555
O12 C14_8 1_555 1_555
O13_4 C14_8 1_555 1_555
C1_8 O2_8 1_555 1_555
C6_8 C7_8 1_555 1_555
C12_8 C13_8 1_555 1_555
C16_8 H8_8 1_555 1_555
H9_8 C16_8 1_555 1_555
H10_8 C16_8 1_555 1_555
C17_8 H11_8 1_555 1_555
H12_8 C17_8 1_555 1_555
H13_8 C17_8 1_555 1_555
C18_4 H14_4 1_555 1_555
H15_4 C18_4 1_555 1_555
H16_4 C18_4 1_555 1_555
C19_4 H17_4 1_555 1_555
H18_4 C19_4 1_555 1_555
H19_4 C19_4 1_555 1_555
O7_8 Sm5 1_555 1_555
O8_8 Sm5 1_555 1_555
S1_8 C16_8 1_555 1_555
S2_8 C18_4 1_555 1_555
C17_8 S1_8 1_555 1_555
C19_4 S2_8 1_555 1_555
O7_8 S1_8 1_555 1_555
O8_8 S2_8 1_555 1_555
O10_4 C15_8 1_555 1_555
O11_4 C15_8 1_555 1_555
C18_5 H14_5 1_555 1_555
H15_5 C18_5 1_555 1_555
H16_5 C18_5 1_555 1_555
C19_5 H17_5 1_555 1_555
H18_5 C19_5 1_555 1_555
H19_5 C19_5 1_555 1_555
C18_6 H14_6 1_555 1_555
H15_6 C18_6 1_555 1_555
H16_6 C18_6 1_555 1_555
C19_6 H17_6 1_555 1_555
H18_6 C19_6 1_555 1_555
H19_6 C19_6 1_555 1_555
C18_7 H14_7 1_555 1_555
H15_7 C18_7 1_555 1_555
H16_7 C18_7 1_555 1_555
C19_7 H17_7 1_555 1_555
H18_7 C19_7 1_555 1_555
H19_7 C19_7 1_555 1_555
C18_8 H14_8 1_555 1_555
H15_8 C18_8 1_555 1_555
H16_8 C18_8 1_555 1_555
C19_8 H17_8 1_555 1_555
H18_8 C19_8 1_555 1_555
H19_8 C19_8 1_555 1_555

#END
