
###############################################################################
#
# This file contains modified crystal structure data generated from the
# MOF subset of the Cambridge Structural Database (CSD) v543 
# hosted by the Cambridge Crystallographic Data Centre (CCDC).
#
# This work is licensed under the Creative Commons
# Attribution-NonCommercial-ShareAlike 4.0 International License.
# To view a copy of this license, visit
# http://creativecommons.org/licenses/by-nc-sa/4.0/
# or send a letter to
# Creative Commons, PO Box 1866, Mountain View, CA 94042, USA.
#
# CIF created using the CSD Python API on 29 September 2022
# The structure has been converted into the P1 space group
# The structure has a 3D framework
# The original CSD entry WOLFAG is in the orthorhombic crystal system
# The framework has been calculated to contain at least 10.0% void space
# The void calculation uses a probe of radius 1.32A, grid spacing 0.4
#
###############################################################################

data_WOLFAG
_chemical_formula_moiety         '(C336 H256 Cu16 N32 O80)n'
_symmetry_cell_setting           triclinic
_symmetry_space_group_name_H-M   'P 1'
_symmetry_Int_Tables_number      1
_space_group_name_Hall           'P 1'
loop_
_symmetry_equiv_pos_site_id
_symmetry_equiv_pos_as_xyz
1 x,y,z
_cell_length_a                   30.275(2)
_cell_length_b                   15.2890(11)
_cell_length_c                   22.4210(17)
_cell_angle_alpha                90
_cell_angle_beta                 90
_cell_angle_gamma                90
_cell_volume                     10378.1
loop_
_atom_site_label
_atom_site_type_symbol
_atom_site_fract_x
_atom_site_fract_y
_atom_site_fract_z
N3 N 0.17423(12) 0.0176(3) 0.00950(16)
H2 H 0.1487 0.0087 0.0253
C33 C 0.27522(17) 0.0432(4) 0.1100(2)
H23 H 0.2857 0.0914 0.1344
H24 H 0.2977 0.0301 0.0805
C34 C 0.23288(16) 0.0700(4) 0.0787(2)
H25 H 0.2388 0.1187 0.0521
H26 H 0.2114 0.0891 0.1080
N4 N 0.05899(13) 0.0298(3) 0.90182(18)
O5 O 0.33654(9) 0.10309(19) 0.83102(13)
O6 O 0.33782(10) 0.08704(19) 0.73126(13)
O10 O 0.21220(11) 0.0733(2) 0.93166(15)
C16 C 0.25369(14) 0.0043(3) 0.8119(2)
H10 H 0.2474 0.0579 0.8296
C24 C 0.32588(13) 0.0653(3) 0.7831(2)
C36 C 0.17659(16) 0.0532(3) 0.9549(2)
C37 C 0.13459(15) 0.0661(3) 0.9214(2)
C38 C 0.09634(15) 0.0195(3) 0.9325(2)
C39 C 0.05884(17) 0.0889(4) 0.8584(2)
H29 H 0.0328 0.0977 0.8373
C40 C 0.09523(19) 0.1378(4) 0.8432(2)
H30 H 0.0939 0.1776 0.8118
C41 C 0.13384(17) 0.1267(4) 0.8753(2)
H31 H 0.1589 0.1593 0.8662
Cu4 Cu 0.380316(14) 0.20038(3) 0.83243(2)
Cu6 Cu 0.369900(15) 0.19607(3) 0.71461(2)
N2 N 0.18469(12) 0.8439(3) 0.05009(16)
H1 H 0.1958 0.8308 0.0160
O9 O 0.13375(10) 0.8072(2) 0.11951(12)
C25 C 0.08723(18) 0.6052(3) 0.0115(2)
H15 H 0.0723 0.5566 0.0262
C26 C 0.10733(16) 0.6626(3) 0.0500(2)
H16 H 0.1057 0.6538 0.0910
C27 C 0.12995(14) 0.7335(3) 0.02702(19)
C29 C 0.15035(14) 0.7977(3) 0.06935(19)
C30 C 0.20470(15) 0.9164(3) 0.08385(19)
H18 H 0.1838 0.9352 0.1147
C31 C 0.24751(16) 0.8872(4) 0.1144(2)
H19 H 0.2413 0.8392 0.1414
H20 H 0.2683 0.8668 0.0846
C32 C 0.26777(17) 0.9635(4) 0.1492(2)
H21 H 0.2483 0.9791 0.1818
H22 H 0.2958 0.9451 0.1661
C35 C 0.21398(14) 0.9935(3) 0.0430(2)
H27 H 0.2365 0.9751 0.0141
Cu7 Cu 0.130100(15) 0.80393(3) 0.21461(2)
Cu1 Cu 0.119684(14) 0.70038(3) 0.83243(2)
N1 N 0.11065(11) 0.6898(2) 0.92765(15)
O1 O 0.07317(9) 0.6141(2) 0.81180(13)
C1 C 0.05972(13) 0.5971(3) 0.7599(2)
Cu2 Cu 0.130100(15) 0.69607(3) 0.71461(2)
O2 O 0.07534(9) 0.6275(2) 0.71185(13)
C2 C 0.02185(13) 0.5338(3) 0.75430(18)
O3 O 0.17017(9) 0.78289(19) 0.82881(14)
O4 O 0.18410(9) 0.7622(2) 0.73147(14)
C12 C 0.02601(13) 0.4674(3) 0.71347(19)
H8 H 0.0508 0.4650 0.6891
C13 C 0.19200(13) 0.7954(3) 0.7816(2)
C14 C 0.22971(13) 0.8589(3) 0.78578(19)
C15 C 0.22149(14) 0.9384(3) 0.8108(2)
H9 H 0.1939 0.9493 0.8275
C17 C 0.29442(13) 0.9897(3) 0.78700(19)
C18 C 0.30537(14) 0.9064(3) 0.7631(2)
C19 C 0.34831(15) 0.8871(3) 0.7408(2)
H11 H 0.3698 0.9306 0.7403
C20 C 0.35818(16) 0.8060(4) 0.7202(3)
H12 H 0.3864 0.7945 0.7058
C21 C 0.32665(17) 0.7401(4) 0.7206(3)
H13 H 0.3342 0.6847 0.7070
C22 C 0.28467(16) 0.7555(3) 0.7407(2)
H14 H 0.2638 0.7108 0.7401
C23 C 0.27289(14) 0.8392(3) 0.76231(19)
C28 C 0.12989(14) 0.7450(3) 0.96570(18)
H17 H 0.1441 0.7939 0.9502
H28 H 0.0967 0.9786 0.9632
C42 C 0.08941(16) 0.6203(3) 0.9511(2)
H32 H 0.0757 0.5810 0.9254
O11 O 0.16346(9) 0.60309(19) 0.83102(13)
O12 O 0.16218(10) 0.58704(19) 0.73126(13)
O13 O 0.09556(9) 0.80456(19) 0.71753(12)
O14 O 0.07932(9) 0.7966(2) 0.81487(13)
O15 O 0.13375(10) 0.6928(2) 0.61951(12)
C3 C 0.98299(13) 0.5405(3) 0.79007(19)
C4 C 0.97643(15) 0.6104(3) 0.8304(2)
H3 H 0.9983 0.6527 0.8346
C5 C 0.93860(17) 0.6167(4) 0.8633(3)
H4 H 0.9353 0.6622 0.8905
C6 C 0.90467(17) 0.5547(3) 0.8563(2)
H5 H 0.8789 0.5597 0.8785
O7 O 0.90444(9) 0.30456(19) 0.78247(12)
C7 C 0.90943(14) 0.4875(3) 0.8172(2)
H6 H 0.8865 0.4477 0.8125
O8 O 0.92068(9) 0.2966(2) 0.68513(13)
C8 C 0.94878(13) 0.4769(3) 0.78342(19)
C9 C 0.95543(13) 0.4066(3) 0.74245(18)
C10 C 0.92382(13) 0.3301(3) 0.7360(2)
C11 C 0.99307(13) 0.4032(3) 0.70814(19)
H7 H 0.9968 0.3577 0.6811
Cu3 Cu 0.880316(14) 0.20038(3) 0.66757(2)
Cu5 Cu 0.869900(15) 0.19607(3) 0.78539(2)
Cu1_2 Cu 0.380316(14) 0.29962(3) 0.33243(2)
N1_2 N 0.38935(11) 0.3102(2) 0.42765(15)
O1_2 O 0.42683(9) 0.3859(2) 0.31180(13)
C1_2 C 0.44028(13) 0.4029(3) 0.2599(2)
Cu2_2 Cu 0.369900(15) 0.30393(3) 0.21461(2)
O2_2 O 0.42466(9) 0.3725(2) 0.21185(13)
C2_2 C 0.47815(13) 0.4662(3) 0.25430(18)
N2_2 N 0.31531(12) 0.1561(3) 0.55009(16)
H1_2 H 0.3042 0.1692 0.5160
O3_2 O 0.32983(9) 0.21711(19) 0.32881(14)
C3_2 C 0.51701(13) 0.4595(3) 0.29007(19)
O4_2 O 0.31590(9) 0.2378(2) 0.23147(14)
C4_2 C 0.52357(15) 0.3896(3) 0.3304(2)
H3_2 H 0.5017 0.3473 0.3346
C5_2 C 0.56140(17) 0.3833(4) 0.3633(3)
H4_2 H 0.5647 0.3378 0.3905
C6_2 C 0.59533(17) 0.4453(3) 0.3563(2)
H5_2 H 0.6211 0.4403 0.3785
O7_2 O 0.59556(9) 0.69544(19) 0.28247(12)
C7_2 C 0.59057(14) 0.5125(3) 0.3172(2)
H6_2 H 0.6135 0.5523 0.3125
O8_2 O 0.57932(9) 0.7034(2) 0.18513(13)
C8_2 C 0.55122(13) 0.5231(3) 0.28342(19)
C9_2 C 0.54457(13) 0.5934(3) 0.24245(18)
O9_2 O 0.36625(10) 0.1928(2) 0.61951(12)
C10_2 C 0.57618(13) 0.6699(3) 0.2360(2)
C11_2 C 0.50693(13) 0.5968(3) 0.20814(19)
H7_2 H 0.5032 0.6423 0.1811
C12_2 C 0.47399(13) 0.5326(3) 0.21347(19)
H8_2 H 0.4492 0.5350 0.1891
C13_2 C 0.30800(13) 0.2046(3) 0.2816(2)
C14_2 C 0.27029(13) 0.1411(3) 0.28578(19)
C15_2 C 0.27851(14) 0.0616(3) 0.3108(2)
H9_2 H 0.3061 0.0507 0.3275
C17_2 C 0.20558(13) 0.0103(3) 0.28700(19)
C18_2 C 0.19463(14) 0.0936(3) 0.2631(2)
C19_2 C 0.15169(15) 0.1129(3) 0.2408(2)
H11_2 H 0.1302 0.0694 0.2403
C20_2 C 0.14182(16) 0.1940(4) 0.2202(3)
H12_2 H 0.1136 0.2055 0.2058
C21_2 C 0.17335(17) 0.2599(4) 0.2206(3)
H13_2 H 0.1658 0.3153 0.2070
C22_2 C 0.21533(16) 0.2445(3) 0.2407(2)
H14_2 H 0.2362 0.2892 0.2401
C23_2 C 0.22711(14) 0.1608(3) 0.26231(19)
C25_2 C 0.41277(18) 0.3948(3) 0.5115(2)
H15_2 H 0.4277 0.4434 0.5262
C26_2 C 0.39267(16) 0.3374(3) 0.5500(2)
H16_2 H 0.3943 0.3462 0.5910
C27_2 C 0.37005(14) 0.2665(3) 0.52702(19)
C28_2 C 0.37011(14) 0.2550(3) 0.46570(18)
H17_2 H 0.3559 0.2061 0.4502
C29_2 C 0.34965(14) 0.2023(3) 0.56935(19)
C30_2 C 0.29530(15) 0.0836(3) 0.58385(19)
H18_2 H 0.3162 0.0648 0.6147
C31_2 C 0.25249(16) 0.1128(4) 0.6144(2)
H19_2 H 0.2587 0.1608 0.6414
H20_2 H 0.2317 0.1332 0.5846
C32_2 C 0.23223(17) 0.0365(4) 0.6492(2)
H21_2 H 0.2517 0.0209 0.6818
H22_2 H 0.2042 0.0549 0.6661
C35_2 C 0.28602(14) 0.0065(3) 0.5430(2)
H27_2 H 0.2635 0.0249 0.5141
H28_2 H 0.4033 0.0214 0.4632
C42_2 C 0.41059(16) 0.3797(3) 0.4511(2)
H32_2 H 0.4243 0.4190 0.4254
Cu3_2 Cu 0.619684(14) 0.79962(3) 0.16757(2)
Cu5_2 Cu 0.630100(15) 0.80393(3) 0.28539(2)
O11_2 O 0.33654(9) 0.39691(19) 0.33102(13)
O12_2 O 0.33782(10) 0.41296(19) 0.23126(13)
O13_2 O 0.40444(9) 0.19544(19) 0.21753(12)
O14_2 O 0.42068(9) 0.2034(2) 0.31487(13)
O15_2 O 0.36625(10) 0.3072(2) 0.11951(12)
N3_2 N 0.32577(12) 0.9824(3) 0.50950(16)
H2_2 H 0.3513 0.9913 0.5253
N4_2 N 0.44101(13) 0.9702(3) 0.40182(18)
O5_2 O 0.16346(9) 0.89691(19) 0.33102(13)
O6_2 O 0.16218(10) 0.91296(19) 0.23126(13)
O10_2 O 0.28780(11) 0.9267(2) 0.43166(15)
C16_2 C 0.24631(14) 0.9957(3) 0.3119(2)
H10_2 H 0.2526 0.9421 0.3296
C24_2 C 0.17412(13) 0.9347(3) 0.2831(2)
C33_2 C 0.22478(17) 0.9568(4) 0.6100(2)
H23_2 H 0.2143 0.9086 0.6344
H24_2 H 0.2023 0.9699 0.5805
C34_2 C 0.26712(16) 0.9300(4) 0.5787(2)
H25_2 H 0.2612 0.8813 0.5521
H26_2 H 0.2886 0.9109 0.6080
C36_2 C 0.32341(16) 0.9468(3) 0.4549(2)
C37_2 C 0.36541(15) 0.9339(3) 0.4214(2)
C38_2 C 0.40366(15) 0.9805(3) 0.4325(2)
C39_2 C 0.44116(17) 0.9111(4) 0.3584(2)
H29_2 H 0.4672 0.9023 0.3373
C40_2 C 0.40477(19) 0.8622(4) 0.3432(2)
H30_2 H 0.4061 0.8224 0.3118
C41_2 C 0.36616(17) 0.8733(4) 0.3753(2)
H31_2 H 0.3411 0.8407 0.3662
Cu4_2 Cu 0.119684(14) 0.79962(3) 0.33243(2)
C7_3 C 0.40943(14) 0.0125(3) 0.1828(2)
H6_3 H 0.3865 0.0523 0.1875
C8_3 C 0.44878(13) 0.0231(3) 0.21658(19)
C9_3 C 0.45543(13) 0.0934(3) 0.25755(18)
C10_3 C 0.42382(13) 0.1699(3) 0.2640(2)
C11_3 C 0.49307(13) 0.0968(3) 0.29186(19)
H7_3 H 0.4968 0.1423 0.3189
C12_3 C 0.52601(13) 0.0326(3) 0.28653(19)
H8_3 H 0.5508 0.0350 0.3109
N1_3 N 0.61065(11) 0.8102(2) 0.07235(15)
O1_3 O 0.57317(9) 0.8859(2) 0.18820(13)
C1_3 C 0.55972(13) 0.9029(3) 0.2401(2)
O2_3 O 0.57534(9) 0.8725(2) 0.28815(13)
C2_3 C 0.52185(13) 0.9662(3) 0.24570(18)
O3_3 O 0.67017(9) 0.71711(19) 0.17119(14)
C3_3 C 0.48299(13) 0.9595(3) 0.20993(19)
O4_3 O 0.68410(9) 0.7378(2) 0.26853(14)
N4_3 N 0.55899(13) 0.4702(3) 0.09818(18)
C4_3 C 0.47643(15) 0.8896(3) 0.1696(2)
H3_3 H 0.4983 0.8473 0.1654
O5_3 O 0.83654(9) 0.39691(19) 0.16898(13)
C5_3 C 0.43860(17) 0.8833(4) 0.1367(3)
H4_3 H 0.4353 0.8378 0.1095
O6_3 O 0.83782(10) 0.41296(19) 0.26874(13)
C6_3 C 0.40467(17) 0.9453(3) 0.1437(2)
H5_3 H 0.3789 0.9403 0.1215
O10_3 O 0.71220(11) 0.4267(2) 0.06834(15)
C13_3 C 0.69200(13) 0.7046(3) 0.2184(2)
C14_3 C 0.72971(13) 0.6411(3) 0.21422(19)
C15_3 C 0.72149(14) 0.5616(3) 0.1892(2)
H9_3 H 0.6939 0.5507 0.1725
C16_3 C 0.75369(14) 0.4957(3) 0.1881(2)
H10_3 H 0.7474 0.4421 0.1704
C17_3 C 0.79442(13) 0.5103(3) 0.21300(19)
C18_3 C 0.80537(14) 0.5936(3) 0.2369(2)
C19_3 C 0.84831(15) 0.6129(3) 0.2592(2)
H11_3 H 0.8698 0.5694 0.2597
C20_3 C 0.85818(16) 0.6940(4) 0.2798(3)
H12_3 H 0.8864 0.7055 0.2942
C21_3 C 0.82665(17) 0.7599(4) 0.2794(3)
H13_3 H 0.8342 0.8153 0.2930
C22_3 C 0.78467(16) 0.7445(3) 0.2593(2)
H14_3 H 0.7638 0.7892 0.2599
C23_3 C 0.77289(14) 0.6608(3) 0.23769(19)
C24_3 C 0.82588(13) 0.4347(3) 0.2169(2)
C28_3 C 0.62989(14) 0.7550(3) 0.03430(18)
H17_3 H 0.6441 0.7061 0.0498
C36_3 C 0.67659(16) 0.4468(3) 0.0451(2)
C37_3 C 0.63459(15) 0.4339(3) 0.0786(2)
C38_3 C 0.59634(15) 0.4805(3) 0.0675(2)
H28_3 H 0.5967 0.5214 0.0368
C39_3 C 0.55884(17) 0.4111(4) 0.1416(2)
H29_3 H 0.5328 0.4023 0.1627
C40_3 C 0.59523(19) 0.3622(4) 0.1568(2)
H30_3 H 0.5939 0.3224 0.1882
C41_3 C 0.63384(17) 0.3733(4) 0.1247(2)
H31_3 H 0.6589 0.3407 0.1338
C42_3 C 0.58941(16) 0.8797(3) 0.0489(2)
H32_3 H 0.5757 0.9190 0.0746
Cu4_3 Cu 0.880316(14) 0.29962(3) 0.16757(2)
Cu6_2 Cu 0.869900(15) 0.30393(3) 0.28539(2)
O11_3 O 0.66346(9) 0.89691(19) 0.16898(13)
O12_3 O 0.66218(10) 0.91296(19) 0.26874(13)
O15_3 O 0.63375(10) 0.8072(2) 0.38049(12)
N2_3 N 0.68469(12) 0.6561(3) 0.94991(16)
H1_3 H 0.6958 0.6692 0.9840
N3_3 N 0.67423(12) 0.4824(3) 0.99050(16)
H2_3 H 0.6487 0.4913 0.9747
O9_3 O 0.63375(10) 0.6928(2) 0.88049(12)
C25_3 C 0.58723(18) 0.8948(3) 0.9885(2)
H15_3 H 0.5723 0.9434 0.9738
C26_3 C 0.60733(16) 0.8374(3) 0.9500(2)
H16_3 H 0.6057 0.8462 0.9090
C27_3 C 0.62995(14) 0.7665(3) 0.97298(19)
C29_3 C 0.65035(14) 0.7023(3) 0.93065(19)
C30_3 C 0.70470(15) 0.5836(3) 0.91615(19)
H18_3 H 0.6838 0.5648 0.8853
C31_3 C 0.74751(16) 0.6128(4) 0.8856(2)
H19_3 H 0.7413 0.6608 0.8586
H20_3 H 0.7683 0.6332 0.9154
C32_3 C 0.76777(17) 0.5365(4) 0.8508(2)
H21_3 H 0.7483 0.5209 0.8182
H22_3 H 0.7958 0.5549 0.8339
C33_3 C 0.77522(17) 0.4568(4) 0.8900(2)
H23_3 H 0.7857 0.4086 0.8656
H24_3 H 0.7977 0.4699 0.9195
C34_3 C 0.73288(16) 0.4300(4) 0.9213(2)
H25_3 H 0.7388 0.3813 0.9479
H26_3 H 0.7114 0.4109 0.8920
C35_3 C 0.71398(14) 0.5065(3) 0.9570(2)
H27_3 H 0.7365 0.5249 0.9859
Cu7_2 Cu 0.630100(15) 0.69607(3) 0.78539(2)
C7_4 C 0.09057(14) 0.9875(3) 0.6828(2)
H6_4 H 0.1135 0.9477 0.6875
C8_4 C 0.05122(13) 0.9769(3) 0.71658(19)
C9_4 C 0.04457(13) 0.9066(3) 0.75755(18)
C10_4 C 0.07618(13) 0.8301(3) 0.7640(2)
C11_4 C 0.00693(13) 0.9032(3) 0.79186(19)
H7_4 H 0.0032 0.8577 0.8189
N1_4 N 0.88935(11) 0.1898(2) 0.57235(15)
O1_4 O 0.92683(9) 0.1141(2) 0.68820(13)
C1_4 C 0.94028(13) 0.0971(3) 0.7401(2)
O2_4 O 0.92466(9) 0.1275(2) 0.78815(13)
C2_4 C 0.97815(13) 0.0338(3) 0.74570(18)
N2_4 N 0.81531(12) 0.3439(3) 0.44991(16)
H1_4 H 0.8042 0.3308 0.4840
O3_4 O 0.82983(9) 0.28289(19) 0.67119(14)
N3_4 N 0.82577(12) 0.5176(3) 0.49050(16)
H2_4 H 0.8513 0.5087 0.4747
O4_4 O 0.81590(9) 0.2622(2) 0.76853(14)
N4_4 N 0.94101(13) 0.5298(3) 0.59818(18)
O5_4 O 0.66346(9) 0.60309(19) 0.66898(13)
O6_4 O 0.66218(10) 0.58704(19) 0.76874(13)
O9_4 O 0.86625(10) 0.3072(2) 0.38049(12)
O10_4 O 0.78780(11) 0.5733(2) 0.56834(15)
C13_4 C 0.80800(13) 0.2954(3) 0.7184(2)
C14_4 C 0.77029(13) 0.3589(3) 0.71422(19)
C15_4 C 0.77851(14) 0.4384(3) 0.6892(2)
H9_4 H 0.8061 0.4493 0.6725
C16_4 C 0.74631(14) 0.5043(3) 0.6881(2)
H10_4 H 0.7526 0.5579 0.6704
C17_4 C 0.70558(13) 0.4897(3) 0.71300(19)
C18_4 C 0.69463(14) 0.4064(3) 0.7369(2)
C19_4 C 0.65169(15) 0.3871(3) 0.7592(2)
H11_4 H 0.6302 0.4306 0.7597
C20_4 C 0.64182(16) 0.3060(4) 0.7798(3)
H12_4 H 0.6136 0.2945 0.7942
C21_4 C 0.67335(17) 0.2401(4) 0.7794(3)
H13_4 H 0.6658 0.1847 0.7930
C22_4 C 0.71533(16) 0.2555(3) 0.7593(2)
H14_4 H 0.7362 0.2108 0.7599
C23_4 C 0.72711(14) 0.3392(3) 0.73769(19)
C24_4 C 0.67412(13) 0.5653(3) 0.7169(2)
C25_4 C 0.91277(18) 0.1052(3) 0.4885(2)
H15_4 H 0.9277 0.0566 0.4738
C26_4 C 0.89267(16) 0.1626(3) 0.4500(2)
H16_4 H 0.8943 0.1538 0.4090
C27_4 C 0.87005(14) 0.2335(3) 0.47298(19)
C28_4 C 0.87011(14) 0.2450(3) 0.53430(18)
H17_4 H 0.8559 0.2939 0.5498
C29_4 C 0.84965(14) 0.2977(3) 0.43065(19)
C30_4 C 0.79530(15) 0.4164(3) 0.41615(19)
H18_4 H 0.8162 0.4352 0.3853
C31_4 C 0.75249(16) 0.3872(4) 0.3856(2)
H19_4 H 0.7587 0.3392 0.3586
H20_4 H 0.7317 0.3668 0.4154
C32_4 C 0.73223(17) 0.4635(4) 0.3508(2)
H21_4 H 0.7517 0.4791 0.3182
H22_4 H 0.7042 0.4451 0.3339
C33_4 C 0.72478(17) 0.5432(4) 0.3900(2)
H23_4 H 0.7143 0.5914 0.3656
H24_4 H 0.7023 0.5301 0.4195
C34_4 C 0.76712(16) 0.5700(4) 0.4213(2)
H25_4 H 0.7612 0.6187 0.4479
H26_4 H 0.7886 0.5891 0.3920
C35_4 C 0.78602(14) 0.4935(3) 0.4570(2)
H27_4 H 0.7635 0.4751 0.4859
C36_4 C 0.82341(16) 0.5532(3) 0.5451(2)
C37_4 C 0.86541(15) 0.5661(3) 0.5786(2)
C38_4 C 0.90366(15) 0.5195(3) 0.5675(2)
H28_4 H 0.9033 0.4786 0.5368
C39_4 C 0.94116(17) 0.5889(4) 0.6416(2)
H29_4 H 0.9672 0.5977 0.6627
C40_4 C 0.90477(19) 0.6378(4) 0.6568(2)
H30_4 H 0.9061 0.6776 0.6882
C41_4 C 0.86616(17) 0.6267(4) 0.6247(2)
H31_4 H 0.8411 0.6593 0.6338
C42_4 C 0.91059(16) 0.1203(3) 0.5489(2)
H32_4 H 0.9243 0.0810 0.5746
Cu4_4 Cu 0.619684(14) 0.70038(3) 0.66757(2)
O11_4 O 0.83654(9) 0.10309(19) 0.66898(13)
O12_4 O 0.83782(10) 0.08704(19) 0.76874(13)
O15_4 O 0.86625(10) 0.1928(2) 0.88049(12)
C3_4 C 0.01701(13) 0.4595(3) 0.20993(19)
C4_4 C 0.02357(15) 0.3896(3) 0.1696(2)
H3_4 H 0.0017 0.3473 0.1654
C5_4 C 0.06140(17) 0.3833(4) 0.1367(3)
H4_4 H 0.0647 0.3378 0.1095
C6_4 C 0.09533(17) 0.4453(3) 0.1437(2)
H5_4 H 0.1211 0.4403 0.1215
O7_3 O 0.09556(9) 0.69544(19) 0.21753(12)
C7_5 C 0.09057(14) 0.5125(3) 0.1828(2)
H6_5 H 0.1135 0.5523 0.1875
O8_3 O 0.07932(9) 0.7034(2) 0.31487(13)
C8_5 C 0.05122(13) 0.5231(3) 0.21658(19)
C9_5 C 0.04457(13) 0.5934(3) 0.25755(18)
C10_5 C 0.07618(13) 0.6699(3) 0.2640(2)
C11_5 C 0.00693(13) 0.5968(3) 0.29186(19)
H7_5 H 0.0032 0.6423 0.3189
N1_5 N 0.88935(11) 0.3102(2) 0.07235(15)
O1_5 O 0.92683(9) 0.3859(2) 0.18820(13)
C1_5 C 0.94028(13) 0.4029(3) 0.2401(2)
O2_5 O 0.92466(9) 0.3725(2) 0.28815(13)
C2_5 C 0.97815(13) 0.4662(3) 0.24570(18)
O3_5 O 0.82983(9) 0.21711(19) 0.17119(14)
O4_5 O 0.81590(9) 0.2378(2) 0.26853(14)
C12_4 C 0.97399(13) 0.5326(3) 0.28653(19)
H8_4 H 0.9492 0.5350 0.3109
C13_5 C 0.80800(13) 0.2046(3) 0.2184(2)
C14_5 C 0.77029(13) 0.1411(3) 0.21422(19)
C15_5 C 0.77851(14) 0.0616(3) 0.1892(2)
H9_5 H 0.8061 0.0507 0.1725
C17_5 C 0.70558(13) 0.0103(3) 0.21300(19)
C18_5 C 0.69463(14) 0.0936(3) 0.2369(2)
C19_5 C 0.65169(15) 0.1129(3) 0.2592(2)
H11_5 H 0.6302 0.0694 0.2597
C20_5 C 0.64182(16) 0.1940(4) 0.2798(3)
H12_5 H 0.6136 0.2055 0.2942
C21_5 C 0.67335(17) 0.2599(4) 0.2794(3)
H13_5 H 0.6658 0.3153 0.2930
C22_5 C 0.71533(16) 0.2445(3) 0.2593(2)
H14_5 H 0.7362 0.2892 0.2599
C23_5 C 0.72711(14) 0.1608(3) 0.23769(19)
C28_5 C 0.87011(14) 0.2550(3) 0.03430(18)
H17_5 H 0.8559 0.2061 0.0498
H28_5 H 0.9033 0.0214 0.0368
C42_5 C 0.91059(16) 0.3797(3) 0.0489(2)
H32_5 H 0.9243 0.4190 0.0746
O13_3 O 0.90444(9) 0.19544(19) 0.28247(12)
O14_3 O 0.92068(9) 0.2034(2) 0.18513(13)
N2_5 N 0.81531(12) 0.1561(3) 0.94991(16)
H1_5 H 0.8042 0.1692 0.9840
C25_5 C 0.91277(18) 0.3948(3) 0.9885(2)
H15_5 H 0.9277 0.4434 0.9738
C26_5 C 0.89267(16) 0.3374(3) 0.9500(2)
H16_5 H 0.8943 0.3462 0.9090
C27_5 C 0.87005(14) 0.2665(3) 0.97298(19)
C29_5 C 0.84965(14) 0.2023(3) 0.93065(19)
C30_5 C 0.79530(15) 0.0836(3) 0.91615(19)
H18_5 H 0.8162 0.0648 0.8853
C31_5 C 0.75249(16) 0.1128(4) 0.8856(2)
H19_5 H 0.7587 0.1608 0.8586
H20_5 H 0.7317 0.1332 0.9154
C32_5 C 0.73223(17) 0.0365(4) 0.8508(2)
H21_5 H 0.7517 0.0209 0.8182
H22_5 H 0.7042 0.0549 0.8339
C35_5 C 0.78602(14) 0.0065(3) 0.9570(2)
H27_5 H 0.7635 0.0249 0.9859
N4_5 N 0.94101(13) 0.9702(3) 0.09818(18)
O10_5 O 0.78780(11) 0.9267(2) 0.06834(15)
C16_5 C 0.74631(14) 0.9957(3) 0.1881(2)
H10_5 H 0.7526 0.9421 0.1704
C24_5 C 0.67412(13) 0.9347(3) 0.2169(2)
C36_5 C 0.82341(16) 0.9468(3) 0.0451(2)
C37_5 C 0.86541(15) 0.9339(3) 0.0786(2)
C38_5 C 0.90366(15) 0.9805(3) 0.0675(2)
C39_5 C 0.94116(17) 0.9111(4) 0.1416(2)
H29_5 H 0.9672 0.9023 0.1627
C40_5 C 0.90477(19) 0.8622(4) 0.1568(2)
H30_5 H 0.9061 0.8224 0.1882
C41_5 C 0.86616(17) 0.8733(4) 0.1247(2)
H31_5 H 0.8411 0.8407 0.1338
N3_5 N 0.67423(12) 0.0176(3) 0.49050(16)
H2_5 H 0.6487 0.0087 0.4747
N4_6 N 0.55899(13) 0.0298(3) 0.59818(18)
O10_6 O 0.71220(11) 0.0733(2) 0.56834(15)
C16_6 C 0.75369(14) 0.0043(3) 0.6881(2)
H10_6 H 0.7474 0.0579 0.6704
C24_6 C 0.82588(13) 0.0653(3) 0.7169(2)
C33_5 C 0.77522(17) 0.0432(4) 0.3900(2)
H23_5 H 0.7857 0.0914 0.3656
H24_5 H 0.7977 0.0301 0.4195
C34_5 C 0.73288(16) 0.0700(4) 0.4213(2)
H25_5 H 0.7388 0.1187 0.4479
H26_5 H 0.7114 0.0891 0.3920
C36_6 C 0.67659(16) 0.0532(3) 0.5451(2)
C37_6 C 0.63459(15) 0.0661(3) 0.5786(2)
C38_6 C 0.59634(15) 0.0195(3) 0.5675(2)
C39_6 C 0.55884(17) 0.0889(4) 0.6416(2)
H29_6 H 0.5328 0.0977 0.6627
C40_6 C 0.59523(19) 0.1378(4) 0.6568(2)
H30_6 H 0.5939 0.1776 0.6882
C41_6 C 0.63384(17) 0.1267(4) 0.6247(2)
H31_6 H 0.6589 0.1593 0.6338
N1_6 N 0.61065(11) 0.6898(2) 0.57235(15)
O1_6 O 0.57317(9) 0.6141(2) 0.68820(13)
C1_6 C 0.55972(13) 0.5971(3) 0.7401(2)
O2_6 O 0.57534(9) 0.6275(2) 0.78815(13)
C2_6 C 0.52185(13) 0.5338(3) 0.74570(18)
N2_6 N 0.68469(12) 0.8439(3) 0.44991(16)
H1_6 H 0.6958 0.8308 0.4840
O3_6 O 0.67017(9) 0.78289(19) 0.67119(14)
C3_5 C 0.48299(13) 0.5405(3) 0.70993(19)
O4_6 O 0.68410(9) 0.7622(2) 0.76853(14)
C4_5 C 0.47643(15) 0.6104(3) 0.6696(2)
H3_5 H 0.4983 0.6527 0.6654
C5_5 C 0.43860(17) 0.6167(4) 0.6367(3)
H4_5 H 0.4353 0.6622 0.6095
C6_5 C 0.40467(17) 0.5547(3) 0.6437(2)
H5_5 H 0.3789 0.5597 0.6215
O7_4 O 0.40444(9) 0.30456(19) 0.71753(12)
C7_6 C 0.40943(14) 0.4875(3) 0.6828(2)
H6_6 H 0.3865 0.4477 0.6875
O8_4 O 0.42068(9) 0.2966(2) 0.81487(13)
C8_6 C 0.44878(13) 0.4769(3) 0.71658(19)
C9_6 C 0.45543(13) 0.4066(3) 0.75755(18)
C10_6 C 0.42382(13) 0.3301(3) 0.7640(2)
C11_6 C 0.49307(13) 0.4032(3) 0.79186(19)
H7_6 H 0.4968 0.3577 0.8189
C12_5 C 0.52601(13) 0.4674(3) 0.78653(19)
H8_5 H 0.5508 0.4650 0.8109
C13_6 C 0.69200(13) 0.7954(3) 0.7184(2)
C14_6 C 0.72971(13) 0.8589(3) 0.71422(19)
C15_6 C 0.72149(14) 0.9384(3) 0.6892(2)
H9_6 H 0.6939 0.9493 0.6725
C17_6 C 0.79442(13) 0.9897(3) 0.71300(19)
C18_6 C 0.80537(14) 0.9064(3) 0.7369(2)
C19_6 C 0.84831(15) 0.8871(3) 0.7592(2)
H11_6 H 0.8698 0.9306 0.7597
C20_6 C 0.85818(16) 0.8060(4) 0.7798(3)
H12_6 H 0.8864 0.7945 0.7942
C21_6 C 0.82665(17) 0.7401(4) 0.7794(3)
H13_6 H 0.8342 0.6847 0.7930
C22_6 C 0.78467(16) 0.7555(3) 0.7593(2)
H14_6 H 0.7638 0.7108 0.7599
C23_6 C 0.77289(14) 0.8392(3) 0.73769(19)
C25_6 C 0.58723(18) 0.6052(3) 0.4885(2)
H15_6 H 0.5723 0.5566 0.4738
C26_6 C 0.60733(16) 0.6626(3) 0.4500(2)
H16_6 H 0.6057 0.6538 0.4090
C27_6 C 0.62995(14) 0.7335(3) 0.47298(19)
C28_6 C 0.62989(14) 0.7450(3) 0.53430(18)
H17_6 H 0.6441 0.7939 0.5498
C29_6 C 0.65035(14) 0.7977(3) 0.43065(19)
C30_6 C 0.70470(15) 0.9164(3) 0.41615(19)
H18_6 H 0.6838 0.9352 0.3853
C31_6 C 0.74751(16) 0.8872(4) 0.3856(2)
H19_6 H 0.7413 0.8392 0.3586
H20_6 H 0.7683 0.8668 0.4154
C32_6 C 0.76777(17) 0.9635(4) 0.3508(2)
H21_6 H 0.7483 0.9791 0.3182
H22_6 H 0.7958 0.9451 0.3339
C35_6 C 0.71398(14) 0.9935(3) 0.4570(2)
H27_6 H 0.7365 0.9751 0.4859
H28_6 H 0.5967 0.9786 0.5368
C42_6 C 0.58941(16) 0.6203(3) 0.5489(2)
H32_6 H 0.5757 0.5810 0.5746
O13_4 O 0.59556(9) 0.80456(19) 0.78247(12)
O14_4 O 0.57932(9) 0.7966(2) 0.68513(13)
N2_7 N 0.31531(12) 0.3439(3) 0.05009(16)
H1_7 H 0.3042 0.3308 0.0160
N3_6 N 0.32577(12) 0.5176(3) 0.00950(16)
H2_6 H 0.3513 0.5087 0.0253
C25_7 C 0.41277(18) 0.1052(3) 0.0115(2)
H15_7 H 0.4277 0.0566 0.0262
C26_7 C 0.39267(16) 0.1626(3) 0.0500(2)
H16_7 H 0.3943 0.1538 0.0910
C27_7 C 0.37005(14) 0.2335(3) 0.02702(19)
C29_7 C 0.34965(14) 0.2977(3) 0.06935(19)
C30_7 C 0.29530(15) 0.4164(3) 0.08385(19)
H18_7 H 0.3162 0.4352 0.1147
C31_7 C 0.25249(16) 0.3872(4) 0.1144(2)
H19_7 H 0.2587 0.3392 0.1414
H20_7 H 0.2317 0.3668 0.0846
C32_7 C 0.23223(17) 0.4635(4) 0.1492(2)
H21_7 H 0.2517 0.4791 0.1818
H22_7 H 0.2042 0.4451 0.1661
C33_6 C 0.22478(17) 0.5432(4) 0.1100(2)
H23_6 H 0.2143 0.5914 0.1344
H24_6 H 0.2023 0.5301 0.0805
C34_6 C 0.26712(16) 0.5700(4) 0.0787(2)
H25_6 H 0.2612 0.6187 0.0521
H26_6 H 0.2886 0.5891 0.1080
C35_7 C 0.28602(14) 0.4935(3) 0.0430(2)
H27_7 H 0.2635 0.4751 0.0141
N1_7 N 0.38935(11) 0.1898(2) 0.92765(15)
O1_7 O 0.42683(9) 0.1141(2) 0.81180(13)
C1_7 C 0.44028(13) 0.0971(3) 0.7599(2)
O2_7 O 0.42466(9) 0.1275(2) 0.71185(13)
C2_7 C 0.47815(13) 0.0338(3) 0.75430(18)
O3_7 O 0.32983(9) 0.28289(19) 0.82881(14)
C3_6 C 0.51701(13) 0.0405(3) 0.79007(19)
O4_7 O 0.31590(9) 0.2622(2) 0.73147(14)
N4_7 N 0.44101(13) 0.5298(3) 0.90182(18)
C4_6 C 0.52357(15) 0.1104(3) 0.8304(2)
H3_6 H 0.5017 0.1527 0.8346
C5_6 C 0.56140(17) 0.1167(4) 0.8633(3)
H4_6 H 0.5647 0.1622 0.8905
C6_6 C 0.59533(17) 0.0547(3) 0.8563(2)
H5_6 H 0.6211 0.0597 0.8785
O10_7 O 0.28780(11) 0.5733(2) 0.93166(15)
C13_7 C 0.30800(13) 0.2954(3) 0.7816(2)
C14_7 C 0.27029(13) 0.3589(3) 0.78578(19)
C15_7 C 0.27851(14) 0.4384(3) 0.8108(2)
H9_7 H 0.3061 0.4493 0.8275
C16_7 C 0.24631(14) 0.5043(3) 0.8119(2)
H10_7 H 0.2526 0.5579 0.8296
C17_7 C 0.20558(13) 0.4897(3) 0.78700(19)
C18_7 C 0.19463(14) 0.4064(3) 0.7631(2)
C19_7 C 0.15169(15) 0.3871(3) 0.7408(2)
H11_7 H 0.1302 0.4306 0.7403
C20_7 C 0.14182(16) 0.3060(4) 0.7202(3)
H12_7 H 0.1136 0.2945 0.7058
C21_7 C 0.17335(17) 0.2401(4) 0.7206(3)
H13_7 H 0.1658 0.1847 0.7070
C22_7 C 0.21533(16) 0.2555(3) 0.7407(2)
H14_7 H 0.2362 0.2108 0.7401
C23_7 C 0.22711(14) 0.3392(3) 0.76231(19)
C24_7 C 0.17412(13) 0.5653(3) 0.7831(2)
C28_7 C 0.37011(14) 0.2450(3) 0.96570(18)
H17_7 H 0.3559 0.2939 0.9502
C36_7 C 0.32341(16) 0.5532(3) 0.9549(2)
C37_7 C 0.36541(15) 0.5661(3) 0.9214(2)
C38_7 C 0.40366(15) 0.5195(3) 0.9325(2)
H28_7 H 0.4033 0.4786 0.9632
C39_7 C 0.44116(17) 0.5889(4) 0.8584(2)
H29_7 H 0.4672 0.5977 0.8373
C40_7 C 0.40477(19) 0.6378(4) 0.8432(2)
H30_7 H 0.4061 0.6776 0.8118
C41_7 C 0.36616(17) 0.6267(4) 0.8753(2)
H31_7 H 0.3411 0.6593 0.8662
C42_7 C 0.41059(16) 0.1203(3) 0.9511(2)
H32_7 H 0.4243 0.0810 0.9254
C7_7 C 0.59057(14) 0.9875(3) 0.8172(2)
H6_7 H 0.6135 0.9477 0.8125
C8_7 C 0.55122(13) 0.9769(3) 0.78342(19)
C9_7 C 0.54457(13) 0.9066(3) 0.74245(18)
C10_7 C 0.57618(13) 0.8301(3) 0.7360(2)
C11_7 C 0.50693(13) 0.9032(3) 0.70814(19)
H7_7 H 0.5032 0.8577 0.6811
C12_6 C 0.47399(13) 0.9674(3) 0.71347(19)
H8_6 H 0.4492 0.9650 0.6891
N1_8 N 0.11065(11) 0.8102(2) 0.42765(15)
O1_8 O 0.07317(9) 0.8859(2) 0.31180(13)
C1_8 C 0.05972(13) 0.9029(3) 0.2599(2)
O2_8 O 0.07534(9) 0.8725(2) 0.21185(13)
C2_8 C 0.02185(13) 0.9662(3) 0.25430(18)
N2_8 N 0.18469(12) 0.6561(3) 0.55009(16)
H1_8 H 0.1958 0.6692 0.5160
O3_8 O 0.17017(9) 0.71711(19) 0.32881(14)
N3_7 N 0.17423(12) 0.4824(3) 0.50950(16)
H2_7 H 0.1487 0.4913 0.5253
O4_8 O 0.18410(9) 0.7378(2) 0.23147(14)
N4_8 N 0.05899(13) 0.4702(3) 0.40182(18)
O10_8 O 0.21220(11) 0.4267(2) 0.43166(15)
C13_8 C 0.19200(13) 0.7046(3) 0.2816(2)
C14_8 C 0.22971(13) 0.6411(3) 0.28578(19)
C15_8 C 0.22149(14) 0.5616(3) 0.3108(2)
H9_8 H 0.1939 0.5507 0.3275
C16_8 C 0.25369(14) 0.4957(3) 0.3119(2)
H10_8 H 0.2474 0.4421 0.3296
C17_8 C 0.29442(13) 0.5103(3) 0.28700(19)
C18_8 C 0.30537(14) 0.5936(3) 0.2631(2)
C19_8 C 0.34831(15) 0.6129(3) 0.2408(2)
H11_8 H 0.3698 0.5694 0.2403
C20_8 C 0.35818(16) 0.6940(4) 0.2202(3)
H12_8 H 0.3864 0.7055 0.2058
C21_8 C 0.32665(17) 0.7599(4) 0.2206(3)
H13_8 H 0.3342 0.8153 0.2070
C22_8 C 0.28467(16) 0.7445(3) 0.2407(2)
H14_8 H 0.2638 0.7892 0.2401
C23_8 C 0.27289(14) 0.6608(3) 0.26231(19)
C24_8 C 0.32588(13) 0.4347(3) 0.2831(2)
C25_8 C 0.08723(18) 0.8948(3) 0.5115(2)
H15_8 H 0.0723 0.9434 0.5262
C26_8 C 0.10733(16) 0.8374(3) 0.5500(2)
H16_8 H 0.1057 0.8462 0.5910
C27_8 C 0.12995(14) 0.7665(3) 0.52702(19)
C28_8 C 0.12989(14) 0.7550(3) 0.46570(18)
H17_8 H 0.1441 0.7061 0.4502
C29_8 C 0.15035(14) 0.7023(3) 0.56935(19)
C30_8 C 0.20470(15) 0.5836(3) 0.58385(19)
H18_8 H 0.1838 0.5648 0.6147
C31_8 C 0.24751(16) 0.6128(4) 0.6144(2)
H19_8 H 0.2413 0.6608 0.6414
H20_8 H 0.2683 0.6332 0.5846
C32_8 C 0.26777(17) 0.5365(4) 0.6492(2)
H21_8 H 0.2483 0.5209 0.6818
H22_8 H 0.2958 0.5549 0.6661
C33_7 C 0.27522(17) 0.4568(4) 0.6100(2)
H23_7 H 0.2857 0.4086 0.6344
H24_7 H 0.2977 0.4699 0.5805
C34_7 C 0.23288(16) 0.4300(4) 0.5787(2)
H25_7 H 0.2388 0.3813 0.5521
H26_7 H 0.2114 0.4109 0.6080
C35_8 C 0.21398(14) 0.5065(3) 0.5430(2)
H27_8 H 0.2365 0.5249 0.5141
C36_8 C 0.17659(16) 0.4468(3) 0.4549(2)
C37_8 C 0.13459(15) 0.4339(3) 0.4214(2)
C38_8 C 0.09634(15) 0.4805(3) 0.4325(2)
H28_8 H 0.0967 0.5214 0.4632
C39_8 C 0.05884(17) 0.4111(4) 0.3584(2)
H29_8 H 0.0328 0.4023 0.3373
C40_8 C 0.09523(19) 0.3622(4) 0.3432(2)
H30_8 H 0.0939 0.3224 0.3118
C41_8 C 0.13384(17) 0.3733(4) 0.3753(2)
H31_8 H 0.1589 0.3407 0.3662
C42_8 C 0.08941(16) 0.8797(3) 0.4511(2)
H32_8 H 0.0757 0.9190 0.4254
C7_8 C 0.90943(14) 0.0125(3) 0.3172(2)
H6_8 H 0.8865 0.0523 0.3125
C8_8 C 0.94878(13) 0.0231(3) 0.28342(19)
C9_8 C 0.95543(13) 0.0934(3) 0.24245(18)
C10_8 C 0.92382(13) 0.1699(3) 0.2360(2)
C11_8 C 0.99307(13) 0.0968(3) 0.20814(19)
H7_8 H 0.9968 0.1423 0.1811
C3_7 C 0.01701(13) 0.0405(3) 0.70993(19)
C4_7 C 0.02357(15) 0.1104(3) 0.6696(2)
H3_7 H 0.0017 0.1527 0.6654
C5_7 C 0.06140(17) 0.1167(4) 0.6367(3)
H4_7 H 0.0647 0.1622 0.6095
C6_7 C 0.09533(17) 0.0547(3) 0.6437(2)
H5_7 H 0.1211 0.0597 0.6215
C12_7 C 0.97399(13) 0.9674(3) 0.78653(19)
H8_7 H 0.9492 0.9650 0.8109
N3_8 N 0.82577(12) 0.9824(3) 0.99050(16)
H2_8 H 0.8513 0.9913 0.9747
C33_8 C 0.72478(17) 0.9568(4) 0.8900(2)
H23_8 H 0.7143 0.9086 0.8656
H24_8 H 0.7023 0.9699 0.9195
C34_8 C 0.76712(16) 0.9300(4) 0.9213(2)
H25_8 H 0.7612 0.8813 0.9479
H26_8 H 0.7886 0.9109 0.8920
C12_8 C 0.02601(13) 0.0326(3) 0.21347(19)
H8_8 H 0.0508 0.0350 0.1891
C3_8 C 0.98299(13) 0.9595(3) 0.29007(19)
C4_8 C 0.97643(15) 0.8896(3) 0.3304(2)
H3_8 H 0.9983 0.8473 0.3346
C5_8 C 0.93860(17) 0.8833(4) 0.3633(3)
H4_8 H 0.9353 0.8378 0.3905
C6_8 C 0.90467(17) 0.9453(3) 0.3563(2)
H5_8 H 0.8789 0.9403 0.3785
loop_
_geom_bond_atom_site_label_1
_geom_bond_atom_site_label_2
_geom_bond_site_symmetry_1
_geom_bond_site_symmetry_2
N3 H2 1_555 1_555
H23 C33 1_555 1_555
H24 C33 1_555 1_555
C34 C33 1_555 1_555
H25 C34 1_555 1_555
H26 C34 1_555 1_555
N4 C38 1_555 1_555
O5 C24 1_555 1_555
O6 C24 1_555 1_555
O10 C36 1_555 1_555
H10 C16 1_555 1_555
C37 C36 1_555 1_555
C38 C37 1_555 1_555
C39 N4 1_555 1_555
H29 C39 1_555 1_555
C40 C39 1_555 1_555
H30 C40 1_555 1_555
C41 C37 1_555 1_555
H31 C41 1_555 1_555
Cu4 O5 1_555 1_555
Cu6 O6 1_555 1_555
C40 C41 1_555 1_555
Cu4 Cu6 1_555 1_555
N2 H1 1_555 1_555
O9 C29 1_555 1_555
C25 H15 1_555 1_555
C26 C25 1_555 1_555
H16 C26 1_555 1_555
C27 C26 1_555 1_555
C29 N2 1_555 1_555
C30 N2 1_555 1_555
H18 C30 1_555 1_555
C31 C30 1_555 1_555
H19 C31 1_555 1_555
H20 C31 1_555 1_555
C32 C31 1_555 1_555
H21 C32 1_555 1_555
H22 C32 1_555 1_555
H27 C35 1_555 1_555
Cu7 O9 1_555 1_555
C27 C29 1_555 1_555
C30 C35 1_555 1_555
Cu1 N1 1_555 1_555
N1 C28 1_555 1_555
O1 Cu1 1_555 1_555
C1 O1 1_555 1_555
Cu2 Cu1 1_555 1_555
O2 C1 1_555 1_555
C2 C1 1_555 1_555
O3 Cu1 1_555 1_555
O4 Cu2 1_555 1_555
C12 C2 1_555 1_555
H8 C12 1_555 1_555
C13 O3 1_555 1_555
C14 C13 1_555 1_555
C15 C14 1_555 1_555
H9 C15 1_555 1_555
C18 C17 1_555 1_555
C19 C18 1_555 1_555
H11 C19 1_555 1_555
C20 C19 1_555 1_555
H12 C20 1_555 1_555
C21 C20 1_555 1_555
H13 C21 1_555 1_555
C22 C21 1_555 1_555
H14 C22 1_555 1_555
C23 C14 1_555 1_555
H17 C28 1_555 1_555
C42 N1 1_555 1_555
H32 C42 1_555 1_555
O11 Cu1 1_555 1_555
O12 Cu2 1_555 1_555
O13 Cu2 1_555 1_555
O14 Cu1 1_555 1_555
O15 Cu2 1_555 1_555
Cu2 O2 1_555 1_555
O4 C13 1_555 1_555
C18 C23 1_555 1_555
C22 C23 1_555 1_555
C4 C3 1_555 1_555
H3 C4 1_555 1_555
C5 C4 1_555 1_555
H4 C5 1_555 1_555
C6 C5 1_555 1_555
H5 C6 1_555 1_555
O7 C10 1_555 1_555
C7 C6 1_555 1_555
H6 C7 1_555 1_555
O8 C10 1_555 1_555
C8 C3 1_555 1_555
C9 C8 1_555 1_555
C10 C9 1_555 1_555
C11 C9 1_555 1_555
H7 C11 1_555 1_555
Cu3 O8 1_555 1_555
Cu5 O7 1_555 1_555
C7 C8 1_555 1_555
Cu3 Cu5 1_555 1_555
Cu1_2 N1_2 1_555 1_555
N1_2 C28_2 1_555 1_555
O1_2 Cu1_2 1_555 1_555
C1_2 O1_2 1_555 1_555
Cu2_2 Cu1_2 1_555 1_555
O2_2 C1_2 1_555 1_555
C2_2 C1_2 1_555 1_555
N2_2 H1_2 1_555 1_555
O3_2 Cu1_2 1_555 1_555
C3_2 C2_2 1_555 1_555
O4_2 Cu2_2 1_555 1_555
C4_2 C3_2 1_555 1_555
H3_2 C4_2 1_555 1_555
C5_2 C4_2 1_555 1_555
H4_2 C5_2 1_555 1_555
C6_2 C5_2 1_555 1_555
H5_2 C6_2 1_555 1_555
O7_2 C10_2 1_555 1_555
C7_2 C6_2 1_555 1_555
H6_2 C7_2 1_555 1_555
O8_2 C10_2 1_555 1_555
C8_2 C3_2 1_555 1_555
C9_2 C8_2 1_555 1_555
O9_2 C29_2 1_555 1_555
C10_2 C9_2 1_555 1_555
C11_2 C9_2 1_555 1_555
H7_2 C11_2 1_555 1_555
C12_2 C2_2 1_555 1_555
H8_2 C12_2 1_555 1_555
C13_2 O3_2 1_555 1_555
C14_2 C13_2 1_555 1_555
C15_2 C14_2 1_555 1_555
H9_2 C15_2 1_555 1_555
C18_2 C17_2 1_555 1_555
C19_2 C18_2 1_555 1_555
H11_2 C19_2 1_555 1_555
C20_2 C19_2 1_555 1_555
H12_2 C20_2 1_555 1_555
C21_2 C20_2 1_555 1_555
H13_2 C21_2 1_555 1_555
C22_2 C21_2 1_555 1_555
H14_2 C22_2 1_555 1_555
C23_2 C14_2 1_555 1_555
C25_2 H15_2 1_555 1_555
C26_2 C25_2 1_555 1_555
H16_2 C26_2 1_555 1_555
C27_2 C26_2 1_555 1_555
C28_2 C27_2 1_555 1_555
H17_2 C28_2 1_555 1_555
C29_2 N2_2 1_555 1_555
C30_2 N2_2 1_555 1_555
H18_2 C30_2 1_555 1_555
C31_2 C30_2 1_555 1_555
H19_2 C31_2 1_555 1_555
H20_2 C31_2 1_555 1_555
C32_2 C31_2 1_555 1_555
H21_2 C32_2 1_555 1_555
H22_2 C32_2 1_555 1_555
H27_2 C35_2 1_555 1_555
C42_2 N1_2 1_555 1_555
H32_2 C42_2 1_555 1_555
Cu3_2 O8_2 1_555 1_555
Cu5_2 O7_2 1_555 1_555
Cu6 O9_2 1_555 1_555
O11_2 Cu1_2 1_555 1_555
O12_2 Cu2_2 1_555 1_555
O13_2 Cu2_2 1_555 1_555
O14_2 Cu1_2 1_555 1_555
O15_2 Cu2_2 1_555 1_555
Cu2_2 O2_2 1_555 1_555
O4_2 C13_2 1_555 1_555
C7_2 C8_2 1_555 1_555
C11_2 C12_2 1_555 1_555
C18_2 C23_2 1_555 1_555
C22_2 C23_2 1_555 1_555
C25_2 C42_2 1_555 1_555
C27_2 C29_2 1_555 1_555
C30_2 C35_2 1_555 1_555
Cu3_2 Cu5_2 1_555 1_555
N3_2 H2_2 1_555 1_555
N4_2 C38_2 1_555 1_555
O5_2 C24_2 1_555 1_555
O6_2 C24_2 1_555 1_555
O10_2 C36_2 1_555 1_555
H10_2 C16_2 1_555 1_555
H23_2 C33_2 1_555 1_555
H24_2 C33_2 1_555 1_555
C34_2 C33_2 1_555 1_555
H25_2 C34_2 1_555 1_555
H26_2 C34_2 1_555 1_555
C36_2 N3_2 1_555 1_555
C37_2 C36_2 1_555 1_555
C38_2 C37_2 1_555 1_555
C39_2 N4_2 1_555 1_555
H29_2 C39_2 1_555 1_555
C40_2 C39_2 1_555 1_555
H30_2 C40_2 1_555 1_555
C41_2 C37_2 1_555 1_555
H31_2 C41_2 1_555 1_555
Cu4_2 O5_2 1_555 1_555
Cu7 O6_2 1_555 1_555
C40_2 C41_2 1_555 1_555
Cu4_2 Cu7 1_555 1_555
O13_2 C10_3 1_555 1_555
H6_3 C7_3 1_555 1_555
O14_2 C10_3 1_555 1_555
C9_3 C8_3 1_555 1_555
C10_3 C9_3 1_555 1_555
C11_3 C9_3 1_555 1_555
H7_3 C11_3 1_555 1_555
H8_3 C12_3 1_555 1_555
C7_3 C8_3 1_555 1_555
C11_3 C12_3 1_555 1_555
Cu3_2 N1_3 1_555 1_555
N1_3 C28_3 1_555 1_555
O1_3 Cu3_2 1_555 1_555
C1_3 O1_3 1_555 1_555
O2_3 C1_3 1_555 1_555
C2_3 C1_3 1_555 1_555
O3_3 Cu3_2 1_555 1_555
C3_3 C2_3 1_555 1_555
O4_3 Cu5_2 1_555 1_555
N4_3 C38_3 1_555 1_555
C4_3 C3_3 1_555 1_555
H3_3 C4_3 1_555 1_555
O5_3 C24_3 1_555 1_555
C5_3 C4_3 1_555 1_555
H4_3 C5_3 1_555 1_555
O6_3 C24_3 1_555 1_555
C6_3 C5_3 1_555 1_555
H5_3 C6_3 1_555 1_555
O10_3 C36_3 1_555 1_555
C13_3 O3_3 1_555 1_555
C14_3 C13_3 1_555 1_555
C15_3 C14_3 1_555 1_555
H9_3 C15_3 1_555 1_555
C16_3 C15_3 1_555 1_555
H10_3 C16_3 1_555 1_555
C17_3 C16_3 1_555 1_555
C18_3 C17_3 1_555 1_555
C19_3 C18_3 1_555 1_555
H11_3 C19_3 1_555 1_555
C20_3 C19_3 1_555 1_555
H12_3 C20_3 1_555 1_555
C21_3 C20_3 1_555 1_555
H13_3 C21_3 1_555 1_555
C22_3 C21_3 1_555 1_555
H14_3 C22_3 1_555 1_555
C23_3 C14_3 1_555 1_555
C24_3 C17_3 1_555 1_555
H17_3 C28_3 1_555 1_555
C37_3 C36_3 1_555 1_555
C38_3 C37_3 1_555 1_555
H28_3 C38_3 1_555 1_555
C39_3 N4_3 1_555 1_555
H29_3 C39_3 1_555 1_555
C40_3 C39_3 1_555 1_555
H30_3 C40_3 1_555 1_555
C41_3 C37_3 1_555 1_555
H31_3 C41_3 1_555 1_555
C42_3 N1_3 1_555 1_555
H32_3 C42_3 1_555 1_555
Cu4_3 O5_3 1_555 1_555
Cu6_2 O6_3 1_555 1_555
O11_3 Cu3_2 1_555 1_555
O12_3 Cu5_2 1_555 1_555
O15_3 Cu5_2 1_555 1_555
Cu5_2 O2_3 1_555 1_555
O4_3 C13_3 1_555 1_555
C18_3 C23_3 1_555 1_555
C22_3 C23_3 1_555 1_555
C40_3 C41_3 1_555 1_555
Cu4_3 Cu6_2 1_555 1_555
N2_3 H1_3 1_555 1_555
N3_3 H2_3 1_555 1_555
O9_3 C29_3 1_555 1_555
C25_3 H15_3 1_555 1_555
C26_3 C25_3 1_555 1_555
H16_3 C26_3 1_555 1_555
C27_3 C26_3 1_555 1_555
C29_3 N2_3 1_555 1_555
C30_3 N2_3 1_555 1_555
H18_3 C30_3 1_555 1_555
C31_3 C30_3 1_555 1_555
H19_3 C31_3 1_555 1_555
H20_3 C31_3 1_555 1_555
C32_3 C31_3 1_555 1_555
H21_3 C32_3 1_555 1_555
H22_3 C32_3 1_555 1_555
C33_3 C32_3 1_555 1_555
H23_3 C33_3 1_555 1_555
H24_3 C33_3 1_555 1_555
C34_3 C33_3 1_555 1_555
H25_3 C34_3 1_555 1_555
H26_3 C34_3 1_555 1_555
C35_3 N3_3 1_555 1_555
H27_3 C35_3 1_555 1_555
Cu7_2 O9_3 1_555 1_555
C27_3 C29_3 1_555 1_555
C30_3 C35_3 1_555 1_555
C34_3 C35_3 1_555 1_555
O13 C10_4 1_555 1_555
H6_4 C7_4 1_555 1_555
O14 C10_4 1_555 1_555
C9_4 C8_4 1_555 1_555
C10_4 C9_4 1_555 1_555
C11_4 C9_4 1_555 1_555
H7_4 C11_4 1_555 1_555
C7_4 C8_4 1_555 1_555
Cu3 N1_4 1_555 1_555
N1_4 C28_4 1_555 1_555
O1_4 Cu3 1_555 1_555
C1_4 O1_4 1_555 1_555
O2_4 C1_4 1_555 1_555
C2_4 C1_4 1_555 1_555
N2_4 H1_4 1_555 1_555
O3_4 Cu3 1_555 1_555
N3_4 H2_4 1_555 1_555
O4_4 Cu5 1_555 1_555
N4_4 C38_4 1_555 1_555
O5_4 C24_4 1_555 1_555
O6_4 C24_4 1_555 1_555
O9_4 C29_4 1_555 1_555
O10_4 C36_4 1_555 1_555
C13_4 O3_4 1_555 1_555
C14_4 C13_4 1_555 1_555
C15_4 C14_4 1_555 1_555
H9_4 C15_4 1_555 1_555
C16_4 C15_4 1_555 1_555
H10_4 C16_4 1_555 1_555
C17_4 C16_4 1_555 1_555
C18_4 C17_4 1_555 1_555
C19_4 C18_4 1_555 1_555
H11_4 C19_4 1_555 1_555
C20_4 C19_4 1_555 1_555
H12_4 C20_4 1_555 1_555
C21_4 C20_4 1_555 1_555
H13_4 C21_4 1_555 1_555
C22_4 C21_4 1_555 1_555
H14_4 C22_4 1_555 1_555
C23_4 C14_4 1_555 1_555
C24_4 C17_4 1_555 1_555
C25_4 H15_4 1_555 1_555
C26_4 C25_4 1_555 1_555
H16_4 C26_4 1_555 1_555
C27_4 C26_4 1_555 1_555
C28_4 C27_4 1_555 1_555
H17_4 C28_4 1_555 1_555
C29_4 N2_4 1_555 1_555
C30_4 N2_4 1_555 1_555
H18_4 C30_4 1_555 1_555
C31_4 C30_4 1_555 1_555
H19_4 C31_4 1_555 1_555
H20_4 C31_4 1_555 1_555
C32_4 C31_4 1_555 1_555
H21_4 C32_4 1_555 1_555
H22_4 C32_4 1_555 1_555
C33_4 C32_4 1_555 1_555
H23_4 C33_4 1_555 1_555
H24_4 C33_4 1_555 1_555
C34_4 C33_4 1_555 1_555
H25_4 C34_4 1_555 1_555
H26_4 C34_4 1_555 1_555
C35_4 N3_4 1_555 1_555
H27_4 C35_4 1_555 1_555
C36_4 N3_4 1_555 1_555
C37_4 C36_4 1_555 1_555
C38_4 C37_4 1_555 1_555
H28_4 C38_4 1_555 1_555
C39_4 N4_4 1_555 1_555
H29_4 C39_4 1_555 1_555
C40_4 C39_4 1_555 1_555
H30_4 C40_4 1_555 1_555
C41_4 C37_4 1_555 1_555
H31_4 C41_4 1_555 1_555
C42_4 N1_4 1_555 1_555
H32_4 C42_4 1_555 1_555
Cu4_4 O5_4 1_555 1_555
Cu7_2 O6_4 1_555 1_555
Cu6_2 O9_4 1_555 1_555
O11_4 Cu3 1_555 1_555
O12_4 Cu5 1_555 1_555
O15_4 Cu5 1_555 1_555
Cu5 O2_4 1_555 1_555
O4_4 C13_4 1_555 1_555
C18_4 C23_4 1_555 1_555
C22_4 C23_4 1_555 1_555
C25_4 C42_4 1_555 1_555
C27_4 C29_4 1_555 1_555
C30_4 C35_4 1_555 1_555
C34_4 C35_4 1_555 1_555
C40_4 C41_4 1_555 1_555
Cu4_4 Cu7_2 1_555 1_555
C4_4 C3_4 1_555 1_555
H3_4 C4_4 1_555 1_555
C5_4 C4_4 1_555 1_555
H4_4 C5_4 1_555 1_555
C6_4 C5_4 1_555 1_555
H5_4 C6_4 1_555 1_555
O7_3 C10_5 1_555 1_555
C7_5 C6_4 1_555 1_555
H6_5 C7_5 1_555 1_555
O8_3 C10_5 1_555 1_555
C8_5 C3_4 1_555 1_555
C9_5 C8_5 1_555 1_555
C10_5 C9_5 1_555 1_555
C11_5 C9_5 1_555 1_555
H7_5 C11_5 1_555 1_555
Cu4_2 O8_3 1_555 1_555
Cu7 O7_3 1_555 1_555
C7_5 C8_5 1_555 1_555
Cu4_3 N1_5 1_555 1_555
N1_5 C28_5 1_555 1_555
O1_5 Cu4_3 1_555 1_555
C1_5 O1_5 1_555 1_555
O2_5 C1_5 1_555 1_555
C2_5 C1_5 1_555 1_555
O3_5 Cu4_3 1_555 1_555
O4_5 Cu6_2 1_555 1_555
C12_4 C2_5 1_555 1_555
H8_4 C12_4 1_555 1_555
C13_5 O3_5 1_555 1_555
C14_5 C13_5 1_555 1_555
C15_5 C14_5 1_555 1_555
H9_5 C15_5 1_555 1_555
C18_5 C17_5 1_555 1_555
C19_5 C18_5 1_555 1_555
H11_5 C19_5 1_555 1_555
C20_5 C19_5 1_555 1_555
H12_5 C20_5 1_555 1_555
C21_5 C20_5 1_555 1_555
H13_5 C21_5 1_555 1_555
C22_5 C21_5 1_555 1_555
H14_5 C22_5 1_555 1_555
C23_5 C14_5 1_555 1_555
H17_5 C28_5 1_555 1_555
C42_5 N1_5 1_555 1_555
H32_5 C42_5 1_555 1_555
O13_3 Cu6_2 1_555 1_555
O14_3 Cu4_3 1_555 1_555
Cu6_2 O2_5 1_555 1_555
O4_5 C13_5 1_555 1_555
C18_5 C23_5 1_555 1_555
C22_5 C23_5 1_555 1_555
N2_5 H1_5 1_555 1_555
O15_4 C29_5 1_555 1_555
C25_5 H15_5 1_555 1_555
C26_5 C25_5 1_555 1_555
H16_5 C26_5 1_555 1_555
C27_5 C26_5 1_555 1_555
C29_5 N2_5 1_555 1_555
C30_5 N2_5 1_555 1_555
H18_5 C30_5 1_555 1_555
C31_5 C30_5 1_555 1_555
H19_5 C31_5 1_555 1_555
H20_5 C31_5 1_555 1_555
C32_5 C31_5 1_555 1_555
H21_5 C32_5 1_555 1_555
H22_5 C32_5 1_555 1_555
H27_5 C35_5 1_555 1_555
C27_5 C29_5 1_555 1_555
C30_5 C35_5 1_555 1_555
N4_5 C38_5 1_555 1_555
O11_3 C24_5 1_555 1_555
O12_3 C24_5 1_555 1_555
O10_5 C36_5 1_555 1_555
H10_5 C16_5 1_555 1_555
C37_5 C36_5 1_555 1_555
C38_5 C37_5 1_555 1_555
C39_5 N4_5 1_555 1_555
H29_5 C39_5 1_555 1_555
C40_5 C39_5 1_555 1_555
H30_5 C40_5 1_555 1_555
C41_5 C37_5 1_555 1_555
H31_5 C41_5 1_555 1_555
C40_5 C41_5 1_555 1_555
N3_5 H2_5 1_555 1_555
N4_6 C38_6 1_555 1_555
O11_4 C24_6 1_555 1_555
O12_4 C24_6 1_555 1_555
O10_6 C36_6 1_555 1_555
H10_6 C16_6 1_555 1_555
H23_5 C33_5 1_555 1_555
H24_5 C33_5 1_555 1_555
C34_5 C33_5 1_555 1_555
H25_5 C34_5 1_555 1_555
H26_5 C34_5 1_555 1_555
C36_6 N3_5 1_555 1_555
C37_6 C36_6 1_555 1_555
C38_6 C37_6 1_555 1_555
C39_6 N4_6 1_555 1_555
H29_6 C39_6 1_555 1_555
C40_6 C39_6 1_555 1_555
H30_6 C40_6 1_555 1_555
C41_6 C37_6 1_555 1_555
H31_6 C41_6 1_555 1_555
C40_6 C41_6 1_555 1_555
Cu4_4 N1_6 1_555 1_555
N1_6 C28_6 1_555 1_555
O1_6 Cu4_4 1_555 1_555
C1_6 O1_6 1_555 1_555
O2_6 C1_6 1_555 1_555
C2_6 C1_6 1_555 1_555
N2_6 H1_6 1_555 1_555
O3_6 Cu4_4 1_555 1_555
C3_5 C2_6 1_555 1_555
O4_6 Cu7_2 1_555 1_555
C4_5 C3_5 1_555 1_555
H3_5 C4_5 1_555 1_555
C5_5 C4_5 1_555 1_555
H4_5 C5_5 1_555 1_555
C6_5 C5_5 1_555 1_555
H5_5 C6_5 1_555 1_555
O7_4 C10_6 1_555 1_555
C7_6 C6_5 1_555 1_555
H6_6 C7_6 1_555 1_555
O8_4 C10_6 1_555 1_555
C8_6 C3_5 1_555 1_555
C9_6 C8_6 1_555 1_555
O15_3 C29_6 1_555 1_555
C10_6 C9_6 1_555 1_555
C11_6 C9_6 1_555 1_555
H7_6 C11_6 1_555 1_555
C12_5 C2_6 1_555 1_555
H8_5 C12_5 1_555 1_555
C13_6 O3_6 1_555 1_555
C14_6 C13_6 1_555 1_555
C15_6 C14_6 1_555 1_555
H9_6 C15_6 1_555 1_555
C18_6 C17_6 1_555 1_555
C19_6 C18_6 1_555 1_555
H11_6 C19_6 1_555 1_555
C20_6 C19_6 1_555 1_555
H12_6 C20_6 1_555 1_555
C21_6 C20_6 1_555 1_555
H13_6 C21_6 1_555 1_555
C22_6 C21_6 1_555 1_555
H14_6 C22_6 1_555 1_555
C23_6 C14_6 1_555 1_555
C25_6 H15_6 1_555 1_555
C26_6 C25_6 1_555 1_555
H16_6 C26_6 1_555 1_555
C27_6 C26_6 1_555 1_555
C28_6 C27_6 1_555 1_555
H17_6 C28_6 1_555 1_555
C29_6 N2_6 1_555 1_555
C30_6 N2_6 1_555 1_555
H18_6 C30_6 1_555 1_555
C31_6 C30_6 1_555 1_555
H19_6 C31_6 1_555 1_555
H20_6 C31_6 1_555 1_555
C32_6 C31_6 1_555 1_555
H21_6 C32_6 1_555 1_555
H22_6 C32_6 1_555 1_555
H27_6 C35_6 1_555 1_555
C42_6 N1_6 1_555 1_555
H32_6 C42_6 1_555 1_555
Cu4 O8_4 1_555 1_555
Cu6 O7_4 1_555 1_555
O13_4 Cu7_2 1_555 1_555
O14_4 Cu4_4 1_555 1_555
Cu7_2 O2_6 1_555 1_555
O4_6 C13_6 1_555 1_555
C7_6 C8_6 1_555 1_555
C11_6 C12_5 1_555 1_555
C18_6 C23_6 1_555 1_555
C22_6 C23_6 1_555 1_555
C25_6 C42_6 1_555 1_555
C27_6 C29_6 1_555 1_555
C30_6 C35_6 1_555 1_555
N2_7 H1_7 1_555 1_555
N3_6 H2_6 1_555 1_555
O15_2 C29_7 1_555 1_555
C25_7 H15_7 1_555 1_555
C26_7 C25_7 1_555 1_555
H16_7 C26_7 1_555 1_555
C27_7 C26_7 1_555 1_555
C29_7 N2_7 1_555 1_555
C30_7 N2_7 1_555 1_555
H18_7 C30_7 1_555 1_555
C31_7 C30_7 1_555 1_555
H19_7 C31_7 1_555 1_555
H20_7 C31_7 1_555 1_555
C32_7 C31_7 1_555 1_555
H21_7 C32_7 1_555 1_555
H22_7 C32_7 1_555 1_555
C33_6 C32_7 1_555 1_555
H23_6 C33_6 1_555 1_555
H24_6 C33_6 1_555 1_555
C34_6 C33_6 1_555 1_555
H25_6 C34_6 1_555 1_555
H26_6 C34_6 1_555 1_555
C35_7 N3_6 1_555 1_555
H27_7 C35_7 1_555 1_555
C27_7 C29_7 1_555 1_555
C30_7 C35_7 1_555 1_555
C34_6 C35_7 1_555 1_555
Cu4 N1_7 1_555 1_555
N1_7 C28_7 1_555 1_555
O1_7 Cu4 1_555 1_555
C1_7 O1_7 1_555 1_555
O2_7 C1_7 1_555 1_555
C2_7 C1_7 1_555 1_555
O3_7 Cu4 1_555 1_555
C3_6 C2_7 1_555 1_555
O4_7 Cu6 1_555 1_555
N4_7 C38_7 1_555 1_555
C4_6 C3_6 1_555 1_555
H3_6 C4_6 1_555 1_555
O11 C24_7 1_555 1_555
C5_6 C4_6 1_555 1_555
H4_6 C5_6 1_555 1_555
O12 C24_7 1_555 1_555
C6_6 C5_6 1_555 1_555
H5_6 C6_6 1_555 1_555
O10_7 C36_7 1_555 1_555
C13_7 O3_7 1_555 1_555
C14_7 C13_7 1_555 1_555
C15_7 C14_7 1_555 1_555
H9_7 C15_7 1_555 1_555
C16_7 C15_7 1_555 1_555
H10_7 C16_7 1_555 1_555
C17_7 C16_7 1_555 1_555
C18_7 C17_7 1_555 1_555
C19_7 C18_7 1_555 1_555
H11_7 C19_7 1_555 1_555
C20_7 C19_7 1_555 1_555
H12_7 C20_7 1_555 1_555
C21_7 C20_7 1_555 1_555
H13_7 C21_7 1_555 1_555
C22_7 C21_7 1_555 1_555
H14_7 C22_7 1_555 1_555
C23_7 C14_7 1_555 1_555
C24_7 C17_7 1_555 1_555
H17_7 C28_7 1_555 1_555
C37_7 C36_7 1_555 1_555
C38_7 C37_7 1_555 1_555
H28_7 C38_7 1_555 1_555
C39_7 N4_7 1_555 1_555
H29_7 C39_7 1_555 1_555
C40_7 C39_7 1_555 1_555
H30_7 C40_7 1_555 1_555
C41_7 C37_7 1_555 1_555
H31_7 C41_7 1_555 1_555
C42_7 N1_7 1_555 1_555
H32_7 C42_7 1_555 1_555
Cu6 O2_7 1_555 1_555
O4_7 C13_7 1_555 1_555
C18_7 C23_7 1_555 1_555
C22_7 C23_7 1_555 1_555
C40_7 C41_7 1_555 1_555
O13_4 C10_7 1_555 1_555
H6_7 C7_7 1_555 1_555
O14_4 C10_7 1_555 1_555
C9_7 C8_7 1_555 1_555
C10_7 C9_7 1_555 1_555
C11_7 C9_7 1_555 1_555
H7_7 C11_7 1_555 1_555
H8_6 C12_6 1_555 1_555
C7_7 C8_7 1_555 1_555
C11_7 C12_6 1_555 1_555
Cu4_2 N1_8 1_555 1_555
N1_8 C28_8 1_555 1_555
O1_8 Cu4_2 1_555 1_555
C1_8 O1_8 1_555 1_555
O2_8 C1_8 1_555 1_555
C2_8 C1_8 1_555 1_555
N2_8 H1_8 1_555 1_555
O3_8 Cu4_2 1_555 1_555
N3_7 H2_7 1_555 1_555
O4_8 Cu7 1_555 1_555
N4_8 C38_8 1_555 1_555
O11_2 C24_8 1_555 1_555
O12_2 C24_8 1_555 1_555
O15 C29_8 1_555 1_555
O10_8 C36_8 1_555 1_555
C13_8 O3_8 1_555 1_555
C14_8 C13_8 1_555 1_555
C15_8 C14_8 1_555 1_555
H9_8 C15_8 1_555 1_555
C16_8 C15_8 1_555 1_555
H10_8 C16_8 1_555 1_555
C17_8 C16_8 1_555 1_555
C18_8 C17_8 1_555 1_555
C19_8 C18_8 1_555 1_555
H11_8 C19_8 1_555 1_555
C20_8 C19_8 1_555 1_555
H12_8 C20_8 1_555 1_555
C21_8 C20_8 1_555 1_555
H13_8 C21_8 1_555 1_555
C22_8 C21_8 1_555 1_555
H14_8 C22_8 1_555 1_555
C23_8 C14_8 1_555 1_555
C24_8 C17_8 1_555 1_555
C25_8 H15_8 1_555 1_555
C26_8 C25_8 1_555 1_555
H16_8 C26_8 1_555 1_555
C27_8 C26_8 1_555 1_555
C28_8 C27_8 1_555 1_555
H17_8 C28_8 1_555 1_555
C29_8 N2_8 1_555 1_555
C30_8 N2_8 1_555 1_555
H18_8 C30_8 1_555 1_555
C31_8 C30_8 1_555 1_555
H19_8 C31_8 1_555 1_555
H20_8 C31_8 1_555 1_555
C32_8 C31_8 1_555 1_555
H21_8 C32_8 1_555 1_555
H22_8 C32_8 1_555 1_555
C33_7 C32_8 1_555 1_555
H23_7 C33_7 1_555 1_555
H24_7 C33_7 1_555 1_555
C34_7 C33_7 1_555 1_555
H25_7 C34_7 1_555 1_555
H26_7 C34_7 1_555 1_555
C35_8 N3_7 1_555 1_555
H27_8 C35_8 1_555 1_555
C36_8 N3_7 1_555 1_555
C37_8 C36_8 1_555 1_555
C38_8 C37_8 1_555 1_555
H28_8 C38_8 1_555 1_555
C39_8 N4_8 1_555 1_555
H29_8 C39_8 1_555 1_555
C40_8 C39_8 1_555 1_555
H30_8 C40_8 1_555 1_555
C41_8 C37_8 1_555 1_555
H31_8 C41_8 1_555 1_555
C42_8 N1_8 1_555 1_555
H32_8 C42_8 1_555 1_555
Cu7 O2_8 1_555 1_555
O4_8 C13_8 1_555 1_555
C18_8 C23_8 1_555 1_555
C22_8 C23_8 1_555 1_555
C25_8 C42_8 1_555 1_555
C27_8 C29_8 1_555 1_555
C30_8 C35_8 1_555 1_555
C34_7 C35_8 1_555 1_555
C40_8 C41_8 1_555 1_555
O13_3 C10_8 1_555 1_555
H6_8 C7_8 1_555 1_555
O14_3 C10_8 1_555 1_555
C9_8 C8_8 1_555 1_555
C10_8 C9_8 1_555 1_555
C11_8 C9_8 1_555 1_555
H7_8 C11_8 1_555 1_555
C7_8 C8_8 1_555 1_555
C4_7 C3_7 1_555 1_555
H3_7 C4_7 1_555 1_555
C5_7 C4_7 1_555 1_555
H4_7 C5_7 1_555 1_555
C6_7 C5_7 1_555 1_555
H5_7 C6_7 1_555 1_555
H8_7 C12_7 1_555 1_555
N3_8 H2_8 1_555 1_555
H23_8 C33_8 1_555 1_555
H24_8 C33_8 1_555 1_555
C34_8 C33_8 1_555 1_555
H25_8 C34_8 1_555 1_555
H26_8 C34_8 1_555 1_555
H8_8 C12_8 1_555 1_555
C4_8 C3_8 1_555 1_555
H3_8 C4_8 1_555 1_555
C5_8 C4_8 1_555 1_555
H4_8 C5_8 1_555 1_555
C6_8 C5_8 1_555 1_555
H5_8 C6_8 1_555 1_555

#END
