
###############################################################################
#
# This file contains modified crystal structure data generated from the
# MOF subset of the Cambridge Structural Database (CSD) v543 
# hosted by the Cambridge Crystallographic Data Centre (CCDC).
#
# This work is licensed under the Creative Commons
# Attribution-NonCommercial-ShareAlike 4.0 International License.
# To view a copy of this license, visit
# http://creativecommons.org/licenses/by-nc-sa/4.0/
# or send a letter to
# Creative Commons, PO Box 1866, Mountain View, CA 94042, USA.
#
# CIF created using the CSD Python API on 29 September 2022
# The structure has been converted into the P1 space group
# The structure has a 3D framework
# The original CSD entry WOLHIR is in the orthorhombic crystal system
# The framework has been calculated to contain at least 10.0% void space
# The void calculation uses a probe of radius 1.32A, grid spacing 0.4
# The framework is charged, counterions have been retained in the structure
#
###############################################################################

data_WOLHIR
_chemical_formula_moiety         '(C400 H552 Cd32 Cu48 N32 O240 8+)n'
_symmetry_cell_setting           triclinic
_symmetry_space_group_name_H-M   'P 1'
_symmetry_Int_Tables_number      1
_space_group_name_Hall           'P 1'
loop_
_symmetry_equiv_pos_site_id
_symmetry_equiv_pos_as_xyz
1 x,y,z
_cell_length_a                   26.343(3)
_cell_length_b                   27.158(4)
_cell_length_c                   27.158
_cell_angle_alpha                90
_cell_angle_beta                 90
_cell_angle_gamma                90
_cell_volume                     19429.5
loop_
_atom_site_label
_atom_site_type_symbol
_atom_site_fract_x
_atom_site_fract_y
_atom_site_fract_z
Cd1 Cd 0.63420(2) 0.34021(2) 0.18751(3)
Cd2 Cd 0.69829(3) 0.14221(3) 0.32523(3)
Cd3 Cd 0.83184(2) 0.19920(3) 0.12433(3)
Cd4 Cd 0.59633(4) 0.11147(3) 0.09903(3)
Cu1 Cu 0.61871(4) 0.22367(4) 0.14530(4)
Cu2 Cu 0.75810(4) 0.17160(4) 0.22525(4)
Cu3 Cu 0.66543(4) 0.24165(4) 0.25133(4)
Cu4 Cu 0.64529(4) 0.13234(4) 0.21278(4)
Cu5 Cu 0.73204(4) 0.26345(4) 0.15720(4)
Cu6 Cu 0.71187(4) 0.15427(4) 0.11868(4)
H3 H 0.7343 0.3296 0.0057
C5 C 0.7595(3) 0.2463(3) 0.3033(4)
H4 H 0.7867 0.2284 0.3193
H5 H 0.7401 0.2630 0.3287
C6 C 0.5432(3) 0.1677(3) 0.1992(4)
H6 H 0.5313 0.1355 0.2095
H7 H 0.5185 0.1810 0.1764
C7 C 0.5455(3) 0.2013(3) 0.2446(3)
C8 C 0.5824(3) 0.1821(3) 0.2836(4)
H8 H 0.5805 0.2038 0.3119
H9 H 0.5706 0.1499 0.2941
C9 C 0.6855(3) 0.2507(3) 0.0442(3)
C10 C 0.6506(3) 0.2058(3) 0.0456(3)
H10 H 0.6167 0.2159 0.0360
H11 H 0.6624 0.1820 0.0215
C12 C 0.7432(3) 0.3196(3) 0.2454(4)
H13 H 0.7266 0.3386 0.2709
H14 H 0.7609 0.3424 0.2239
C13 C 0.7821(3) 0.2843(3) 0.2691(3)
C14 C 0.8145(3) 0.2604(4) 0.2281(4)
H15 H 0.8308 0.2863 0.2093
H16 H 0.8410 0.2409 0.2433
C15 C 0.6947(3) 0.0548(3) 0.1549(4)
H17 H 0.7033 0.0432 0.1222
H18 H 0.6708 0.0316 0.1691
C16 C 0.7419(3) 0.0553(3) 0.1858(3)
C17 C 0.7305(4) 0.0689(3) 0.2381(3)
H19 H 0.7062 0.0455 0.2513
H20 H 0.7615 0.0660 0.2573
C18 C 0.7846(4) 0.0872(3) 0.1647(4)
H21 H 0.8144 0.0842 0.1856
H22 H 0.7936 0.0751 0.1322
C19 C 0.5595(3) 0.2533(3) 0.2299(4)
H23 H 0.5340 0.2655 0.2071
H24 H 0.5584 0.2739 0.2590
C20 C 0.7410(3) 0.2346(3) 0.0551(3)
H25 H 0.7511 0.2096 0.0316
H26 H 0.7633 0.2627 0.0509
C21 C 0.4940(3) 0.2031(3) 0.2712(4)
C22 C 0.8170(5) 0.3185(5) 0.1107(5)
C23 C 0.7652(4) 0.0030(4) 0.1865(4)
C24 C 0.6284(4) 0.3332(4) 0.3077(4)
C25 C 0.8191(4) 0.3171(4) 0.3017(5)
C26 C 0.8031(6) 0.3470(6) 0.3345(6)
H27 H 0.7684 0.3528 0.3362
C27 C 0.9002(5) 0.3367(6) 0.3361(5)
H28 H 0.9347 0.3295 0.3363
C28 C 0.8690(5) 0.3127(5) 0.3044(5)
H29 H 0.8843 0.2910 0.2825
C29 C 0.8346(7) 0.3718(7) 0.3685(7)
H30 H 0.8200 0.3905 0.3935
C30 C 0.6216(7) 0.3592(5) 0.3566(5)
H31 H 0.6119 0.3928 0.3509
H32 H 0.6529 0.3583 0.3746
H33 H 0.5955 0.3430 0.3752
C31 C 0.4653(4) 0.1618(5) 0.2787(6)
H34 H 0.4772 0.1323 0.2656
C32 C 0.5560(4) 0.3780(5) 0.1312(6)
C33 C 0.4745(4) 0.2434(5) 0.2940(6)
H35 H 0.4912 0.2735 0.2916
C34 C 0.5111(5) 0.3962(6) 0.1001(6)
H36 H 0.4801 0.3909 0.1178
H37 H 0.5102 0.3784 0.0696
H38 H 0.5152 0.4307 0.0935
C35 C 0.8406(6) 0.3668(5) 0.0867(6)
H39 H 0.8739 0.3596 0.0742
H40 H 0.8429 0.3922 0.1111
H41 H 0.8193 0.3778 0.0602
C36 C 0.4301(4) 0.2400(5) 0.3206(5)
H42 H 0.4177 0.2688 0.3347
C37 C 0.4193(4) 0.1608(4) 0.3046(5)
H43 H 0.3999 0.1322 0.3052
C42 C 0.8631(5) 0.1437(6) 0.0497(4)
C43 C 0.8212(5) 0.1345(5) 0.3106(7)
C44 C 0.8871(9) 0.1116(9) 0.0044(8)
H49 H 0.9200 0.0996 0.0137
C45 C 0.8753(8) 0.1287(9) 0.3359(8)
H51 H 0.8710 0.1213 0.3702
H52 H 0.8941 0.1588 0.3324
H53 H 0.8936 0.1023 0.3203
C46 C 0.6526(9) 0.0590(6) 0.3635(6)
C47 C 0.6304(8) 0.0144(9) 0.3883(8)
H55 H 0.5944 0.0188 0.3923
H56 H 0.6459 0.0101 0.4200
C48 C 0.7017(10) 0.0933(8) 0.0271(9)
C49 C 0.6670(4) 0.2925(3) 0.0777(4)
H57 H 0.6897 0.3205 0.0742
H58 H 0.6335 0.3029 0.0671
N2 N 0.8829(5) 0.3689(5) 0.3652(6)
N3 N 0.4038(3) 0.2001(3) 0.3279(3)
O1 O 0.6056(3) 0.0672(2) 0.2420(3)
H62 H 0.6227 0.0452 0.2624
H63 H 0.5717 0.0617 0.2341
O2 O 0.6647(2) 0.2789(2) 0.1286(2)
O3 O 0.5582(4) 0.0458(4) 0.1395(5)
H64 H 0.5230 0.0436 0.1411
H65 H 0.5783 0.0219 0.1545
O4 O 0.7055(2) 0.2931(2) 0.2173(2)
O5 O 0.6087(2) 0.2585(2) 0.2073(2)
O6 O 0.7271(2) 0.2120(2) 0.2785(2)
O7 O 0.6413(3) 0.2881(2) 0.3105(2)
O8 O 0.6479(2) 0.1824(2) 0.0928(2)
O9 O 0.7868(2) 0.2303(2) 0.1956(2)
O10 O 0.59006(19) 0.1621(2) 0.1743(2)
O11 O 0.7745(3) 0.3231(2) 0.1277(3)
O12 O 0.7704(2) 0.1395(2) 0.1611(2)
O13 O 0.6335(2) 0.1777(2) 0.2699(2)
O14 O 0.7466(2) 0.2158(2) 0.1035(2)
O15 O 0.6697(2) 0.1033(2) 0.1505(2)
O16 O 0.8214(3) 0.1462(3) 0.2649(3)
O17 O 0.6203(3) 0.3571(2) 0.2691(3)
O18 O 0.7341(3) 0.1127(3) 0.0546(3)
O19 O 0.7104(2) 0.1181(2) 0.2444(2)
O20 O 0.8456(3) 0.2820(3) 0.1071(3)
O21 O 0.7842(3) 0.1319(3) 0.3380(3)
O22 O 0.5991(4) 0.3788(4) 0.1140(4)
O23 O 0.5497(5) 0.3559(5) 0.1658(6)
O24 O 0.5360(5) 0.1569(5) 0.0673(6)
H66 H 0.5239 0.1801 0.0848
H67 H 0.5247 0.1521 0.0384
O25 O 0.8481(4) 0.1846(5) 0.0442(4)
O26 O 0.8683(5) 0.1242(4) 0.0905(5)
O27 O 0.6318(5) 0.0854(5) 0.3418(5)
O28 O 0.6975(6) 0.0655(5) 0.3678(7)
O29 O 0.6448(6) 0.0810(4) 0.0379(4)
O30 O 0.5514(3) 0.2471(3) 0.1067(3)
H68 H 0.5245 0.2299 0.1083
H69 H 0.5518 0.2736 0.0901
Cd7 Cd 0.33184(2) 0.19920(3) 0.37567(3)
N5 N 0.6916(3) 0.1851(3) 0.3969(3)
N6 N 0.9038(3) 0.2001(3) 0.1721(3)
N7 N 0.6851(3) 0.4106(3) 0.1856(3)
C1 C 0.6634(5) 0.2769(5) 0.9060(4)
H1 H 0.6441 0.2641 0.8803
C2 C 0.7176(4) 0.3317(4) 0.9339(4)
H2 H 0.7392 0.3581 0.9277
C3 C 0.7161(5) 0.3143(4) 0.9806(4)
C4 C 0.6867(4) 0.2729(4) 0.9900(4)
C11 C 0.6599(4) 0.2537(4) 0.9523(4)
H12 H 0.6398 0.2259 0.9567
H48 H 0.8652 0.0843 0.9972
H50 H 0.8903 0.1321 0.9758
C50 C 0.7215(11) 0.0826(11) 0.9724(8)
H59 H 0.7566 0.0918 0.9700
H60 H 0.7019 0.1014 0.9493
H61 H 0.7180 0.0481 0.9653
N1 N 0.6916(3) 0.3149(3) 0.8969(3)
Cd6 Cd 0.69829(3) 0.35779(3) 0.82523(3)
C38 C 0.7682(6) 0.9754(5) 0.1469(5)
H44 H 0.7555 0.9869 0.1171
C39 C 0.7859(6) 0.9823(6) 0.2260(6)
H45 H 0.7841 0.9994 0.2556
C40 C 0.8108(6) 0.9353(6) 0.2262(6)
H46 H 0.8240 0.9226 0.2553
C41 C 0.7914(5) 0.9272(5) 0.1495(5)
H47 H 0.7885 0.9069 0.1220
H54 H 0.6366 0.9858 0.3685
N4 N 0.8149(3) 0.9106(3) 0.1856(3)
Cd5 Cd 0.86580(2) 0.84021(2) 0.18751(3)
C21_2 C 0.0060(3) 0.7969(3) 0.7712(4)
C31_2 C 0.0347(4) 0.8382(5) 0.7787(6)
H34_2 H 0.0228 0.8677 0.7656
C33_2 C 0.0255(4) 0.7566(5) 0.7940(6)
H35_2 H 0.0088 0.7265 0.7916
H36_2 H 0.0199 0.6091 0.6178
C36_2 C 0.0699(4) 0.7600(5) 0.8206(5)
H42_2 H 0.0823 0.7312 0.8347
C37_2 C 0.0807(4) 0.8392(4) 0.8046(5)
H43_2 H 0.1001 0.8678 0.8052
N3_2 N 0.0962(3) 0.7999(3) 0.8279(3)
Cd7_2 Cd 0.16816(2) 0.80080(3) 0.87567(3)
C38_2 C 0.7318(6) 0.0246(5) 0.6469(5)
H44_2 H 0.7445 0.0131 0.6171
C39_2 C 0.7141(6) 0.0177(6) 0.7260(6)
H45_2 H 0.7159 0.0006 0.7556
C40_2 C 0.6892(6) 0.0647(6) 0.7262(6)
H46_2 H 0.6760 0.0774 0.7553
C41_2 C 0.7086(5) 0.0728(5) 0.6495(5)
H47_2 H 0.7115 0.0931 0.6220
H54_2 H 0.8634 0.0142 0.8685
N4_2 N 0.6851(3) 0.0894(3) 0.6856(3)
Cd5_2 Cd 0.63420(2) 0.15979(2) 0.68751(3)
Cd1_2 Cd 0.86580(2) 0.65979(2) 0.68751(3)
Cd2_2 Cd 0.80171(3) 0.85779(3) 0.82523(3)
Cd3_2 Cd 0.66816(2) 0.80080(3) 0.62433(3)
Cd4_2 Cd 0.90367(4) 0.88853(3) 0.59903(3)
Cu1_2 Cu 0.88129(4) 0.77633(4) 0.64530(4)
Cu2_2 Cu 0.74190(4) 0.82840(4) 0.72525(4)
Cu3_2 Cu 0.83457(4) 0.75835(4) 0.75133(4)
Cu4_2 Cu 0.85471(4) 0.86766(4) 0.71278(4)
Cu5_2 Cu 0.76796(4) 0.73655(4) 0.65720(4)
Cu6_2 Cu 0.78813(4) 0.84573(4) 0.61868(4)
C1_2 C 0.8366(5) 0.7231(5) 0.4060(4)
H1_2 H 0.8559 0.7359 0.3803
C2_2 C 0.7824(4) 0.6683(4) 0.4339(4)
H2_2 H 0.7608 0.6419 0.4277
C3_2 C 0.7839(5) 0.6857(4) 0.4806(4)
H3_2 H 0.7657 0.6704 0.5057
C4_2 C 0.8133(4) 0.7271(4) 0.4900(4)
C5_2 C 0.7405(3) 0.7537(3) 0.8033(4)
H4_2 H 0.7133 0.7716 0.8193
H5_2 H 0.7599 0.7370 0.8287
C6_2 C 0.9568(3) 0.8323(3) 0.6992(4)
H6_2 H 0.9687 0.8645 0.7095
H7_2 H 0.9815 0.8190 0.6764
C7_2 C 0.9545(3) 0.7987(3) 0.7446(3)
C8_2 C 0.9176(3) 0.8179(3) 0.7836(4)
H8_2 H 0.9195 0.7962 0.8119
H9_2 H 0.9294 0.8501 0.7941
C9_2 C 0.8145(3) 0.7493(3) 0.5442(3)
C10_2 C 0.8494(3) 0.7942(3) 0.5456(3)
H10_2 H 0.8833 0.7841 0.5360
H11_2 H 0.8376 0.8180 0.5215
C11_2 C 0.8401(4) 0.7463(4) 0.4523(4)
H12_2 H 0.8602 0.7741 0.4567
C12_2 C 0.7568(3) 0.6804(3) 0.7454(4)
H13_2 H 0.7734 0.6614 0.7709
H14_2 H 0.7391 0.6576 0.7239
C13_2 C 0.7179(3) 0.7157(3) 0.7691(3)
C14_2 C 0.6855(3) 0.7396(4) 0.7281(4)
H15_2 H 0.6692 0.7137 0.7093
H16_2 H 0.6590 0.7591 0.7433
C15_2 C 0.8053(3) 0.9452(3) 0.6549(4)
H17_2 H 0.7967 0.9568 0.6222
H18_2 H 0.8292 0.9684 0.6691
C16_2 C 0.7581(3) 0.9447(3) 0.6858(3)
C17_2 C 0.7695(4) 0.9311(3) 0.7381(3)
H19_2 H 0.7938 0.9545 0.7513
H20_2 H 0.7385 0.9340 0.7573
C18_2 C 0.7154(4) 0.9128(3) 0.6647(4)
H21_2 H 0.6856 0.9158 0.6856
H22_2 H 0.7064 0.9249 0.6322
C19_2 C 0.9405(3) 0.7467(3) 0.7299(4)
H23_2 H 0.9660 0.7345 0.7071
H24_2 H 0.9416 0.7261 0.7590
C20_2 C 0.7590(3) 0.7654(3) 0.5551(3)
H25_2 H 0.7489 0.7904 0.5316
H26_2 H 0.7367 0.7373 0.5509
C22_2 C 0.6830(5) 0.6815(5) 0.6107(5)
C23_2 C 0.7348(4) 0.9970(4) 0.6865(4)
C24_2 C 0.8716(4) 0.6668(4) 0.8077(4)
C25_2 C 0.6809(4) 0.6829(4) 0.8017(5)
C26_2 C 0.6969(6) 0.6530(6) 0.8345(6)
H27_2 H 0.7316 0.6472 0.8362
C27_2 C 0.5998(5) 0.6633(6) 0.8361(5)
H28_2 H 0.5653 0.6705 0.8363
C28_2 C 0.6310(5) 0.6873(5) 0.8044(5)
H29_2 H 0.6157 0.7090 0.7825
C29_2 C 0.6654(7) 0.6282(7) 0.8685(7)
H30_2 H 0.6800 0.6095 0.8935
C30_2 C 0.8784(7) 0.6408(5) 0.8566(5)
H31_2 H 0.8881 0.6072 0.8509
H32_2 H 0.8471 0.6417 0.8746
H33_2 H 0.9045 0.6570 0.8752
C32_2 C 0.9440(4) 0.6220(5) 0.6312(6)
C34_2 C 0.9889(5) 0.6038(6) 0.6001(6)
H37_2 H 0.9898 0.6216 0.5696
H38_2 H 0.9848 0.5693 0.5935
C35_2 C 0.6594(6) 0.6332(5) 0.5867(6)
H39_2 H 0.6261 0.6404 0.5742
H40_2 H 0.6571 0.6078 0.6111
H41_2 H 0.6807 0.6222 0.5602
C42_2 C 0.6369(5) 0.8563(6) 0.5497(4)
C43_2 C 0.6788(5) 0.8655(5) 0.8106(7)
C44_2 C 0.6129(9) 0.8884(9) 0.5044(8)
H48_2 H 0.6348 0.9157 0.4972
H49_2 H 0.5800 0.9004 0.5137
H50_2 H 0.6097 0.8679 0.4758
C45_2 C 0.6247(8) 0.8713(9) 0.8359(8)
H51_2 H 0.6290 0.8787 0.8702
H52_2 H 0.6059 0.8412 0.8324
H53_2 H 0.6064 0.8977 0.8203
C46_2 C 0.8474(9) 0.9410(6) 0.8635(6)
C47_2 C 0.8696(8) 0.9856(9) 0.8883(8)
H55_2 H 0.9056 0.9812 0.8923
H56_2 H 0.8541 0.9899 0.9200
C48_2 C 0.7983(10) 0.9067(8) 0.5271(9)
C49_2 C 0.8330(4) 0.7075(3) 0.5777(4)
H57_2 H 0.8103 0.6795 0.5742
H58_2 H 0.8665 0.6971 0.5671
C50_2 C 0.7785(11) 0.9174(11) 0.4724(8)
H59_2 H 0.7434 0.9082 0.4700
H60_2 H 0.7981 0.8986 0.4493
H61_2 H 0.7820 0.9519 0.4653
N1_2 N 0.8084(3) 0.6851(3) 0.3969(3)
N2_2 N 0.6171(5) 0.6311(5) 0.8652(6)
O1_2 O 0.8944(3) 0.9328(2) 0.7420(3)
H62_2 H 0.8773 0.9548 0.7624
H63_2 H 0.9283 0.9383 0.7341
O2_2 O 0.8353(2) 0.7211(2) 0.6286(2)
O3_2 O 0.9418(4) 0.9542(4) 0.6395(5)
H64_2 H 0.9770 0.9564 0.6411
H65_2 H 0.9217 0.9781 0.6545
O4_2 O 0.7945(2) 0.7069(2) 0.7173(2)
O5_2 O 0.8913(2) 0.7415(2) 0.7073(2)
O6_2 O 0.7729(2) 0.7880(2) 0.7785(2)
O7_2 O 0.8587(3) 0.7119(2) 0.8105(2)
O8_2 O 0.8521(2) 0.8176(2) 0.5928(2)
O9_2 O 0.7132(2) 0.7697(2) 0.6956(2)
O10_2 O 0.90994(19) 0.8379(2) 0.6743(2)
O11_2 O 0.7255(3) 0.6769(2) 0.6277(3)
O12_2 O 0.7296(2) 0.8605(2) 0.6611(2)
O13_2 O 0.8665(2) 0.8223(2) 0.7699(2)
O14_2 O 0.7534(2) 0.7842(2) 0.6035(2)
O15_2 O 0.8303(2) 0.8967(2) 0.6505(2)
O16_2 O 0.6786(3) 0.8538(3) 0.7649(3)
O17_2 O 0.8797(3) 0.6429(2) 0.7691(3)
O18_2 O 0.7659(3) 0.8873(3) 0.5546(3)
O19_2 O 0.7896(2) 0.8819(2) 0.7444(2)
O20_2 O 0.6544(3) 0.7180(3) 0.6071(3)
O21_2 O 0.7158(3) 0.8681(3) 0.8380(3)
O22_2 O 0.9009(4) 0.6212(4) 0.6140(4)
O23_2 O 0.9503(5) 0.6441(5) 0.6658(6)
O24_2 O 0.9640(5) 0.8431(5) 0.5673(6)
H66_2 H 0.9761 0.8199 0.5848
H67_2 H 0.9753 0.8479 0.5384
O25_2 O 0.6519(4) 0.8154(5) 0.5442(4)
O26_2 O 0.6317(5) 0.8758(4) 0.5905(5)
O27_2 O 0.8682(5) 0.9146(5) 0.8418(5)
O28_2 O 0.8025(6) 0.9345(5) 0.8678(7)
O29_2 O 0.8552(6) 0.9190(4) 0.5379(4)
O30_2 O 0.9486(3) 0.7529(3) 0.6067(3)
H68_2 H 0.9755 0.7701 0.6083
H69_2 H 0.9482 0.7264 0.5901
Cd6_2 Cd 0.80171(3) 0.64221(3) 0.32523(3)
N5_2 N 0.8084(3) 0.8149(3) 0.8969(3)
N6_2 N 0.5962(3) 0.7999(3) 0.6721(3)
N7_2 N 0.8149(3) 0.5894(3) 0.6856(3)
Cd1_3 Cd 0.36580(2) 0.84021(2) 0.31249(3)
Cd2_3 Cd 0.30171(3) 0.64221(3) 0.17477(3)
Cd3_3 Cd 0.16816(2) 0.69920(3) 0.37567(3)
Cd4_3 Cd 0.40367(4) 0.61147(3) 0.40097(3)
Cu1_3 Cu 0.38129(4) 0.72367(4) 0.35470(4)
Cu2_3 Cu 0.24190(4) 0.67160(4) 0.27475(4)
Cu3_3 Cu 0.33457(4) 0.74165(4) 0.24867(4)
Cu4_3 Cu 0.35471(4) 0.63234(4) 0.28722(4)
Cu5_3 Cu 0.26796(4) 0.76345(4) 0.34280(4)
Cu6_3 Cu 0.28813(4) 0.65427(4) 0.38132(4)
C1_3 C 0.3366(5) 0.7769(5) 0.5940(4)
H1_3 H 0.3559 0.7641 0.6197
C2_3 C 0.2824(4) 0.8317(4) 0.5661(4)
H2_3 H 0.2608 0.8581 0.5723
C3_3 C 0.2839(5) 0.8143(4) 0.5194(4)
H3_3 H 0.2657 0.8296 0.4943
C4_3 C 0.3133(4) 0.7729(4) 0.5100(4)
C5_3 C 0.2405(3) 0.7463(3) 0.1967(4)
H4_3 H 0.2133 0.7284 0.1807
H5_3 H 0.2599 0.7630 0.1713
C6_3 C 0.4568(3) 0.6677(3) 0.3008(4)
H6_3 H 0.4687 0.6355 0.2905
H7_3 H 0.4815 0.6810 0.3236
C7_3 C 0.4545(3) 0.7013(3) 0.2554(3)
C8_3 C 0.4176(3) 0.6821(3) 0.2164(4)
H8_3 H 0.4195 0.7038 0.1881
H9_3 H 0.4294 0.6499 0.2059
C9_3 C 0.3145(3) 0.7507(3) 0.4558(3)
C10_3 C 0.3494(3) 0.7058(3) 0.4544(3)
H10_3 H 0.3833 0.7159 0.4640
H11_3 H 0.3376 0.6820 0.4785
C11_3 C 0.3401(4) 0.7537(4) 0.5477(4)
H12_3 H 0.3602 0.7259 0.5433
C12_3 C 0.2568(3) 0.8196(3) 0.2546(4)
H13_3 H 0.2734 0.8386 0.2291
H14_3 H 0.2391 0.8424 0.2761
C13_3 C 0.2179(3) 0.7843(3) 0.2309(3)
C14_3 C 0.1855(3) 0.7604(4) 0.2719(4)
H15_3 H 0.1692 0.7863 0.2907
H16_3 H 0.1590 0.7409 0.2567
C15_3 C 0.3053(3) 0.5548(3) 0.3451(4)
H17_3 H 0.2967 0.5432 0.3778
H18_3 H 0.3292 0.5316 0.3309
C16_3 C 0.2581(3) 0.5553(3) 0.3142(3)
C17_3 C 0.2695(4) 0.5689(3) 0.2619(3)
H19_3 H 0.2938 0.5455 0.2487
H20_3 H 0.2385 0.5660 0.2427
C18_3 C 0.2154(4) 0.5872(3) 0.3353(4)
H21_3 H 0.1856 0.5842 0.3144
H22_3 H 0.2064 0.5751 0.3678
C19_3 C 0.4405(3) 0.7533(3) 0.2701(4)
H23_3 H 0.4660 0.7655 0.2929
H24_3 H 0.4416 0.7739 0.2410
C20_3 C 0.2590(3) 0.7346(3) 0.4449(3)
H25_3 H 0.2489 0.7096 0.4684
H26_3 H 0.2367 0.7627 0.4491
C21_3 C 0.5060(3) 0.7031(3) 0.2288(4)
C22_3 C 0.1830(5) 0.8185(5) 0.3893(5)
C23_3 C 0.2348(4) 0.5030(4) 0.3135(4)
C24_3 C 0.3716(4) 0.8332(4) 0.1923(4)
C25_3 C 0.1809(4) 0.8171(4) 0.1983(5)
C26_3 C 0.1969(6) 0.8470(6) 0.1655(6)
H27_3 H 0.2316 0.8528 0.1638
C27_3 C 0.0998(5) 0.8367(6) 0.1639(5)
H28_3 H 0.0653 0.8295 0.1637
C28_3 C 0.1310(5) 0.8127(5) 0.1956(5)
H29_3 H 0.1157 0.7910 0.2175
C29_3 C 0.1654(7) 0.8718(7) 0.1315(7)
H30_3 H 0.1800 0.8905 0.1065
C30_3 C 0.3784(7) 0.8592(5) 0.1434(5)
H31_3 H 0.3881 0.8928 0.1491
H32_3 H 0.3471 0.8583 0.1254
H33_3 H 0.4045 0.8430 0.1248
C31_3 C 0.5347(4) 0.6618(5) 0.2213(6)
H34_3 H 0.5228 0.6323 0.2344
C32_3 C 0.4440(4) 0.8780(5) 0.3688(6)
C33_3 C 0.5255(4) 0.7434(5) 0.2060(6)
H35_3 H 0.5088 0.7735 0.2084
C34_3 C 0.4889(5) 0.8962(6) 0.3999(6)
H36_3 H 0.5199 0.8909 0.3822
H37_3 H 0.4898 0.8784 0.4304
H38_3 H 0.4848 0.9307 0.4065
C35_3 C 0.1594(6) 0.8668(5) 0.4133(6)
H39_3 H 0.1261 0.8596 0.4258
H40_3 H 0.1571 0.8922 0.3889
H41_3 H 0.1807 0.8778 0.4398
C36_3 C 0.5699(4) 0.7400(5) 0.1794(5)
H42_3 H 0.5823 0.7688 0.1653
C37_3 C 0.5807(4) 0.6608(4) 0.1954(5)
H43_3 H 0.6001 0.6322 0.1948
C38_3 C 0.2318(6) 0.4754(5) 0.3531(5)
H44_3 H 0.2445 0.4869 0.3829
C39_3 C 0.2141(6) 0.4823(6) 0.2740(6)
H45_3 H 0.2159 0.4994 0.2444
C40_3 C 0.1892(6) 0.4353(6) 0.2738(6)
H46_3 H 0.1760 0.4226 0.2447
C41_3 C 0.2086(5) 0.4272(5) 0.3505(5)
H47_3 H 0.2115 0.4069 0.3780
C42_3 C 0.1369(5) 0.6437(6) 0.4503(4)
C43_3 C 0.1788(5) 0.6345(5) 0.1894(7)
C44_3 C 0.1129(9) 0.6116(9) 0.4956(8)
H48_3 H 0.1348 0.5843 0.5028
H49_3 H 0.0800 0.5996 0.4863
H50_3 H 0.1097 0.6321 0.5242
C45_3 C 0.1247(8) 0.6287(9) 0.1641(8)
H51_3 H 0.1290 0.6213 0.1298
H52_3 H 0.1059 0.6588 0.1676
H53_3 H 0.1064 0.6023 0.1797
C46_3 C 0.3474(9) 0.5590(6) 0.1365(6)
C47_3 C 0.3696(8) 0.5144(9) 0.1117(8)
H54_3 H 0.3634 0.4858 0.1315
H55_3 H 0.4056 0.5188 0.1077
H56_3 H 0.3541 0.5101 0.0800
C48_3 C 0.2983(10) 0.5933(8) 0.4729(9)
C49_3 C 0.3330(4) 0.7925(3) 0.4223(4)
H57_3 H 0.3103 0.8205 0.4258
H58_3 H 0.3665 0.8029 0.4329
C50_3 C 0.2785(11) 0.5826(11) 0.5276(8)
H59_3 H 0.2434 0.5918 0.5300
H60_3 H 0.2981 0.6014 0.5507
H61_3 H 0.2820 0.5481 0.5347
N1_3 N 0.3084(3) 0.8149(3) 0.6031(3)
N2_3 N 0.1171(5) 0.8689(5) 0.1348(6)
N3_3 N 0.5962(3) 0.7001(3) 0.1721(3)
N4_3 N 0.1851(3) 0.4106(3) 0.3144(3)
O1_3 O 0.3944(3) 0.5672(2) 0.2580(3)
H62_3 H 0.3773 0.5452 0.2376
H63_3 H 0.4283 0.5617 0.2659
O2_3 O 0.3353(2) 0.7789(2) 0.3714(2)
O3_3 O 0.4418(4) 0.5458(4) 0.3605(5)
H64_3 H 0.4770 0.5436 0.3589
H65_3 H 0.4217 0.5219 0.3455
O4_3 O 0.2945(2) 0.7931(2) 0.2827(2)
O5_3 O 0.3913(2) 0.7585(2) 0.2927(2)
O6_3 O 0.2729(2) 0.7120(2) 0.2215(2)
O7_3 O 0.3587(3) 0.7881(2) 0.1895(2)
O8_3 O 0.3521(2) 0.6824(2) 0.4072(2)
O9_3 O 0.2132(2) 0.7303(2) 0.3044(2)
O10_3 O 0.40994(19) 0.6621(2) 0.3257(2)
O11_3 O 0.2255(3) 0.8231(2) 0.3723(3)
O12_3 O 0.2296(2) 0.6395(2) 0.3389(2)
O13_3 O 0.3665(2) 0.6777(2) 0.2301(2)
O14_3 O 0.2534(2) 0.7158(2) 0.3965(2)
O15_3 O 0.3303(2) 0.6033(2) 0.3495(2)
O16_3 O 0.1786(3) 0.6462(3) 0.2351(3)
O17_3 O 0.3797(3) 0.8571(2) 0.2309(3)
O18_3 O 0.2659(3) 0.6127(3) 0.4454(3)
O19_3 O 0.2896(2) 0.6181(2) 0.2556(2)
O20_3 O 0.1544(3) 0.7820(3) 0.3929(3)
O21_3 O 0.2158(3) 0.6319(3) 0.1620(3)
O22_3 O 0.4009(4) 0.8788(4) 0.3860(4)
O23_3 O 0.4503(5) 0.8559(5) 0.3342(6)
O24_3 O 0.4640(5) 0.6569(5) 0.4327(6)
H66_3 H 0.4761 0.6801 0.4152
H67_3 H 0.4753 0.6521 0.4616
O25_3 O 0.1519(4) 0.6846(5) 0.4558(4)
O26_3 O 0.1317(5) 0.6242(4) 0.4095(5)
O27_3 O 0.3682(5) 0.5854(5) 0.1582(5)
O28_3 O 0.3025(6) 0.5655(5) 0.1322(7)
O29_3 O 0.3552(6) 0.5810(4) 0.4621(4)
O30_3 O 0.4486(3) 0.7471(3) 0.3933(3)
H68_3 H 0.4755 0.7299 0.3917
H69_3 H 0.4482 0.7736 0.4099
Cd5_3 Cd 0.13420(2) 0.34021(2) 0.31249(3)
Cd6_3 Cd 0.30171(3) 0.85779(3) 0.67477(3)
Cd7_3 Cd 0.66816(2) 0.69920(3) 0.12433(3)
N5_3 N 0.3084(3) 0.6851(3) 0.1031(3)
N6_3 N 0.0962(3) 0.7001(3) 0.3279(3)
N7_3 N 0.3149(3) 0.9106(3) 0.3144(3)
C1_4 C 0.1634(5) 0.2231(5) 0.0940(4)
H1_4 H 0.1441 0.2359 0.1197
C2_4 C 0.2176(4) 0.1683(4) 0.0661(4)
H2_4 H 0.2392 0.1419 0.0723
C3_4 C 0.2161(5) 0.1857(4) 0.0194(4)
C4_4 C 0.1867(4) 0.2271(4) 0.0100(4)
C11_4 C 0.1599(4) 0.2463(4) 0.0477(4)
H12_4 H 0.1398 0.2741 0.0433
H48_4 H 0.3652 0.4157 0.0028
H50_4 H 0.3903 0.3679 0.0242
C50_4 C 0.2215(11) 0.4174(11) 0.0276(8)
H59_4 H 0.2566 0.4082 0.0300
H60_4 H 0.2019 0.3986 0.0507
H61_4 H 0.2180 0.4519 0.0347
N1_4 N 0.1916(3) 0.1851(3) 0.1031(3)
Cd6_4 Cd 0.19829(3) 0.14221(3) 0.17477(3)
Cd1_4 Cd 0.13420(2) 0.15979(2) 0.81249(3)
Cd2_4 Cd 0.19829(3) 0.35779(3) 0.67477(3)
Cd3_4 Cd 0.33184(2) 0.30080(3) 0.87567(3)
Cd4_4 Cd 0.09633(4) 0.38853(3) 0.90097(3)
Cu1_4 Cu 0.11871(4) 0.27633(4) 0.85470(4)
Cu2_4 Cu 0.25810(4) 0.32840(4) 0.77475(4)
Cu3_4 Cu 0.16543(4) 0.25835(4) 0.74867(4)
Cu4_4 Cu 0.14529(4) 0.36766(4) 0.78722(4)
Cu5_4 Cu 0.23204(4) 0.23655(4) 0.84280(4)
Cu6_4 Cu 0.21187(4) 0.34573(4) 0.88132(4)
H3_4 H 0.2343 0.1704 0.9943
C5_4 C 0.2595(3) 0.2537(3) 0.6967(4)
H4_4 H 0.2867 0.2716 0.6807
H5_4 H 0.2401 0.2370 0.6713
C6_4 C 0.0432(3) 0.3323(3) 0.8008(4)
H6_4 H 0.0313 0.3645 0.7905
H7_4 H 0.0185 0.3190 0.8236
C7_4 C 0.0455(3) 0.2987(3) 0.7554(3)
C8_4 C 0.0824(3) 0.3179(3) 0.7164(4)
H8_4 H 0.0805 0.2962 0.6881
H9_4 H 0.0706 0.3501 0.7059
C9_4 C 0.1855(3) 0.2493(3) 0.9558(3)
C10_4 C 0.1506(3) 0.2942(3) 0.9544(3)
H10_4 H 0.1167 0.2841 0.9640
H11_4 H 0.1624 0.3180 0.9785
C12_4 C 0.2432(3) 0.1804(3) 0.7546(4)
H13_4 H 0.2266 0.1614 0.7291
H14_4 H 0.2609 0.1576 0.7761
C13_4 C 0.2821(3) 0.2157(3) 0.7309(3)
C14_4 C 0.3145(3) 0.2396(4) 0.7719(4)
H15_4 H 0.3308 0.2137 0.7907
H16_4 H 0.3410 0.2591 0.7567
C15_4 C 0.1947(3) 0.4452(3) 0.8451(4)
H17_4 H 0.2033 0.4568 0.8778
H18_4 H 0.1708 0.4684 0.8309
C16_4 C 0.2419(3) 0.4447(3) 0.8142(3)
C17_4 C 0.2305(4) 0.4311(3) 0.7619(3)
H19_4 H 0.2062 0.4545 0.7487
H20_4 H 0.2615 0.4340 0.7427
C18_4 C 0.2846(4) 0.4128(3) 0.8353(4)
H21_4 H 0.3144 0.4158 0.8144
H22_4 H 0.2936 0.4249 0.8678
C19_4 C 0.0595(3) 0.2467(3) 0.7701(4)
H23_4 H 0.0340 0.2345 0.7929
H24_4 H 0.0584 0.2261 0.7410
C20_4 C 0.2410(3) 0.2654(3) 0.9449(3)
H25_4 H 0.2511 0.2904 0.9684
H26_4 H 0.2633 0.2373 0.9491
C22_4 C 0.3170(5) 0.1815(5) 0.8893(5)
C23_4 C 0.2652(4) 0.4970(4) 0.8135(4)
C24_4 C 0.1284(4) 0.1668(4) 0.6923(4)
C25_4 C 0.3191(4) 0.1829(4) 0.6983(5)
C26_4 C 0.3031(6) 0.1530(6) 0.6655(6)
H27_4 H 0.2684 0.1472 0.6638
C27_4 C 0.4002(5) 0.1633(6) 0.6639(5)
H28_4 H 0.4347 0.1705 0.6637
C28_4 C 0.3690(5) 0.1873(5) 0.6956(5)
H29_4 H 0.3843 0.2090 0.7175
C29_4 C 0.3346(7) 0.1282(7) 0.6315(7)
H30_4 H 0.3200 0.1095 0.6065
C30_4 C 0.1216(7) 0.1408(5) 0.6434(5)
H31_4 H 0.1119 0.1072 0.6491
H32_4 H 0.1529 0.1417 0.6254
H33_4 H 0.0955 0.1570 0.6248
C32_4 C 0.0560(4) 0.1220(5) 0.8688(6)
C34_4 C 0.0111(5) 0.1038(6) 0.8999(6)
H37_4 H 0.0102 0.1216 0.9304
H38_4 H 0.0152 0.0693 0.9065
C35_4 C 0.3406(6) 0.1332(5) 0.9133(6)
H39_4 H 0.3739 0.1404 0.9258
H40_4 H 0.3429 0.1078 0.8889
H41_4 H 0.3193 0.1222 0.9398
C38_4 C 0.2682(6) 0.5246(5) 0.8531(5)
H44_4 H 0.2555 0.5131 0.8829
C39_4 C 0.2859(6) 0.5177(6) 0.7740(6)
H45_4 H 0.2841 0.5006 0.7444
C40_4 C 0.3108(6) 0.5647(6) 0.7738(6)
H46_4 H 0.3240 0.5774 0.7447
C41_4 C 0.2914(5) 0.5728(5) 0.8505(5)
H47_4 H 0.2885 0.5931 0.8780
C42_4 C 0.3631(5) 0.3563(6) 0.9503(4)
C43_4 C 0.3212(5) 0.3655(5) 0.6894(7)
C44_4 C 0.3871(9) 0.3884(9) 0.9956(8)
H49_4 H 0.4200 0.4004 0.9863
C45_4 C 0.3753(8) 0.3713(9) 0.6641(8)
H51_4 H 0.3710 0.3787 0.6298
H52_4 H 0.3941 0.3412 0.6676
H53_4 H 0.3936 0.3977 0.6797
C46_4 C 0.1526(9) 0.4410(6) 0.6365(6)
C47_4 C 0.1304(8) 0.4856(9) 0.6117(8)
H54_4 H 0.1366 0.5142 0.6315
H55_4 H 0.0944 0.4812 0.6077
H56_4 H 0.1459 0.4899 0.5800
C48_4 C 0.2017(10) 0.4067(8) 0.9729(9)
C49_4 C 0.1670(4) 0.2075(3) 0.9223(4)
H57_4 H 0.1897 0.1795 0.9258
H58_4 H 0.1335 0.1971 0.9329
N2_4 N 0.3829(5) 0.1311(5) 0.6348(6)
N4_4 N 0.3149(3) 0.5894(3) 0.8144(3)
O1_4 O 0.1056(3) 0.4328(2) 0.7580(3)
H62_4 H 0.1227 0.4548 0.7376
H63_4 H 0.0717 0.4383 0.7659
O2_4 O 0.1647(2) 0.2211(2) 0.8714(2)
O3_4 O 0.0582(4) 0.4542(4) 0.8605(5)
H64_4 H 0.0230 0.4564 0.8589
H65_4 H 0.0783 0.4781 0.8455
O4_4 O 0.2055(2) 0.2069(2) 0.7827(2)
O5_4 O 0.1087(2) 0.2415(2) 0.7927(2)
O6_4 O 0.2271(2) 0.2880(2) 0.7215(2)
O7_4 O 0.1413(3) 0.2119(2) 0.6895(2)
O8_4 O 0.1479(2) 0.3176(2) 0.9072(2)
O9_4 O 0.2868(2) 0.2697(2) 0.8044(2)
O10_4 O 0.09006(19) 0.3379(2) 0.8257(2)
O11_4 O 0.2745(3) 0.1769(2) 0.8723(3)
O12_4 O 0.2704(2) 0.3605(2) 0.8389(2)
O13_4 O 0.1335(2) 0.3223(2) 0.7301(2)
O14_4 O 0.2466(2) 0.2842(2) 0.8965(2)
O15_4 O 0.1697(2) 0.3967(2) 0.8495(2)
O16_4 O 0.3214(3) 0.3538(3) 0.7351(3)
O17_4 O 0.1203(3) 0.1429(2) 0.7309(3)
O18_4 O 0.2341(3) 0.3873(3) 0.9454(3)
O19_4 O 0.2104(2) 0.3819(2) 0.7556(2)
O20_4 O 0.3456(3) 0.2180(3) 0.8929(3)
O21_4 O 0.2842(3) 0.3681(3) 0.6620(3)
O22_4 O 0.0991(4) 0.1212(4) 0.8860(4)
O23_4 O 0.0497(5) 0.1441(5) 0.8342(6)
O24_4 O 0.0360(5) 0.3431(5) 0.9327(6)
H66_4 H 0.0239 0.3199 0.9152
H67_4 H 0.0247 0.3479 0.9616
O25_4 O 0.3481(4) 0.3154(5) 0.9558(4)
O26_4 O 0.3683(5) 0.3758(4) 0.9095(5)
O27_4 O 0.1318(5) 0.4146(5) 0.6582(5)
O28_4 O 0.1975(6) 0.4345(5) 0.6322(7)
O29_4 O 0.1448(6) 0.4190(4) 0.9621(4)
O30_4 O 0.0514(3) 0.2529(3) 0.8933(3)
H68_4 H 0.0245 0.2701 0.8917
H69_4 H 0.0518 0.2264 0.9099
Cd5_4 Cd 0.36580(2) 0.65979(2) 0.81249(3)
N5_4 N 0.1916(3) 0.3149(3) 0.6031(3)
N6_4 N 0.4038(3) 0.2999(3) 0.8279(3)
N7_4 N 0.1851(3) 0.0894(3) 0.8144(3)
C21_4 C 0.9940(3) 0.2969(3) 0.7288(4)
C31_4 C 0.9653(4) 0.3382(5) 0.7213(6)
H34_4 H 0.9772 0.3677 0.7344
C33_4 C 0.9745(4) 0.2566(5) 0.7060(6)
H35_4 H 0.9912 0.2265 0.7084
H36_4 H 0.9801 0.1091 0.8822
C36_4 C 0.9301(4) 0.2600(5) 0.6794(5)
H42_4 H 0.9177 0.2312 0.6653
C37_4 C 0.9193(4) 0.3392(4) 0.6954(5)
H43_4 H 0.8999 0.3678 0.6948
N3_4 N 0.9038(3) 0.2999(3) 0.6721(3)
Cd7_4 Cd 0.83184(2) 0.30080(3) 0.62433(3)
C38_5 C 0.2318(6) 0.0246(5) 0.8531(5)
H44_5 H 0.2445 0.0131 0.8829
C39_5 C 0.2141(6) 0.0177(6) 0.7740(6)
H45_5 H 0.2159 0.0006 0.7444
C40_5 C 0.1892(6) 0.0647(6) 0.7738(6)
H46_5 H 0.1760 0.0774 0.7447
C41_5 C 0.2086(5) 0.0728(5) 0.8505(5)
H47_5 H 0.2115 0.0931 0.8780
H54_5 H 0.3634 0.0142 0.6315
C1_5 C 0.3366(5) 0.7231(5) 0.0940(4)
H1_5 H 0.3559 0.7359 0.1197
C2_5 C 0.2824(4) 0.6683(4) 0.0661(4)
H2_5 H 0.2608 0.6419 0.0723
C3_5 C 0.2839(5) 0.6857(4) 0.0194(4)
C4_5 C 0.3133(4) 0.7271(4) 0.0100(4)
C11_5 C 0.3401(4) 0.7463(4) 0.0477(4)
H12_5 H 0.3602 0.7741 0.0433
H48_5 H 0.1348 0.9157 0.0028
H50_5 H 0.1097 0.8679 0.0242
C50_5 C 0.2785(11) 0.9174(11) 0.0276(8)
H59_5 H 0.2434 0.9082 0.0300
H60_5 H 0.2981 0.8986 0.0507
H61_5 H 0.2820 0.9519 0.0347
Cd4_5 Cd 0.40367(4) 0.88853(3) 0.90097(3)
Cu1_5 Cu 0.38129(4) 0.77633(4) 0.85470(4)
Cu2_5 Cu 0.24190(4) 0.82840(4) 0.77475(4)
Cu3_5 Cu 0.33457(4) 0.75835(4) 0.74867(4)
Cu4_5 Cu 0.35471(4) 0.86766(4) 0.78722(4)
Cu5_5 Cu 0.26796(4) 0.73655(4) 0.84280(4)
Cu6_5 Cu 0.28813(4) 0.84573(4) 0.88132(4)
H3_5 H 0.2657 0.6704 0.9943
C5_5 C 0.2405(3) 0.7537(3) 0.6967(4)
H4_5 H 0.2133 0.7716 0.6807
H5_5 H 0.2599 0.7370 0.6713
C6_5 C 0.4568(3) 0.8323(3) 0.8008(4)
H6_5 H 0.4687 0.8645 0.7905
H7_5 H 0.4815 0.8190 0.8236
C7_5 C 0.4545(3) 0.7987(3) 0.7554(3)
C8_5 C 0.4176(3) 0.8179(3) 0.7164(4)
H8_5 H 0.4195 0.7962 0.6881
H9_5 H 0.4294 0.8501 0.7059
C9_5 C 0.3145(3) 0.7493(3) 0.9558(3)
C10_5 C 0.3494(3) 0.7942(3) 0.9544(3)
H10_5 H 0.3833 0.7841 0.9640
H11_5 H 0.3376 0.8180 0.9785
C12_5 C 0.2568(3) 0.6804(3) 0.7546(4)
H13_5 H 0.2734 0.6614 0.7291
H14_5 H 0.2391 0.6576 0.7761
C13_5 C 0.2179(3) 0.7157(3) 0.7309(3)
C14_5 C 0.1855(3) 0.7396(4) 0.7719(4)
H15_5 H 0.1692 0.7137 0.7907
H16_5 H 0.1590 0.7591 0.7567
C15_5 C 0.3053(3) 0.9452(3) 0.8451(4)
H17_5 H 0.2967 0.9568 0.8778
H18_5 H 0.3292 0.9684 0.8309
C16_5 C 0.2581(3) 0.9447(3) 0.8142(3)
C17_5 C 0.2695(4) 0.9311(3) 0.7619(3)
H19_5 H 0.2938 0.9545 0.7487
H20_5 H 0.2385 0.9340 0.7427
C18_5 C 0.2154(4) 0.9128(3) 0.8353(4)
H21_5 H 0.1856 0.9158 0.8144
H22_5 H 0.2064 0.9249 0.8678
C19_5 C 0.4405(3) 0.7467(3) 0.7701(4)
H23_5 H 0.4660 0.7345 0.7929
H24_5 H 0.4416 0.7261 0.7410
C20_5 C 0.2590(3) 0.7654(3) 0.9449(3)
H25_5 H 0.2489 0.7904 0.9684
H26_5 H 0.2367 0.7373 0.9491
C21_5 C 0.5060(3) 0.7969(3) 0.7288(4)
C22_5 C 0.1830(5) 0.6815(5) 0.8893(5)
C23_5 C 0.2348(4) 0.9970(4) 0.8135(4)
C24_5 C 0.3716(4) 0.6668(4) 0.6923(4)
C25_5 C 0.1809(4) 0.6829(4) 0.6983(5)
C26_5 C 0.1969(6) 0.6530(6) 0.6655(6)
H27_5 H 0.2316 0.6472 0.6638
C27_5 C 0.0998(5) 0.6633(6) 0.6639(5)
H28_5 H 0.0653 0.6705 0.6637
C28_5 C 0.1310(5) 0.6873(5) 0.6956(5)
H29_5 H 0.1157 0.7090 0.7175
C29_5 C 0.1654(7) 0.6282(7) 0.6315(7)
H30_5 H 0.1800 0.6095 0.6065
C30_5 C 0.3784(7) 0.6408(5) 0.6434(5)
H31_5 H 0.3881 0.6072 0.6491
H32_5 H 0.3471 0.6417 0.6254
H33_5 H 0.4045 0.6570 0.6248
C31_5 C 0.5347(4) 0.8382(5) 0.7213(6)
H34_5 H 0.5228 0.8677 0.7344
C32_5 C 0.4440(4) 0.6220(5) 0.8688(6)
C33_5 C 0.5255(4) 0.7566(5) 0.7060(6)
H35_5 H 0.5088 0.7265 0.7084
C34_5 C 0.4889(5) 0.6038(6) 0.8999(6)
H36_5 H 0.5199 0.6091 0.8822
H37_5 H 0.4898 0.6216 0.9304
H38_5 H 0.4848 0.5693 0.9065
C35_5 C 0.1594(6) 0.6332(5) 0.9133(6)
H39_5 H 0.1261 0.6404 0.9258
H40_5 H 0.1571 0.6078 0.8889
H41_5 H 0.1807 0.6222 0.9398
C36_5 C 0.5699(4) 0.7600(5) 0.6794(5)
H42_5 H 0.5823 0.7312 0.6653
C37_5 C 0.5807(4) 0.8392(4) 0.6954(5)
H43_5 H 0.6001 0.8678 0.6948
C42_5 C 0.1369(5) 0.8563(6) 0.9503(4)
C43_5 C 0.1788(5) 0.8655(5) 0.6894(7)
C44_5 C 0.1129(9) 0.8884(9) 0.9956(8)
H49_5 H 0.0800 0.9004 0.9863
C45_5 C 0.1247(8) 0.8713(9) 0.6641(8)
H51_5 H 0.1290 0.8787 0.6298
H52_5 H 0.1059 0.8412 0.6676
H53_5 H 0.1064 0.8977 0.6797
C46_5 C 0.3474(9) 0.9410(6) 0.6365(6)
C47_5 C 0.3696(8) 0.9856(9) 0.6117(8)
H55_5 H 0.4056 0.9812 0.6077
H56_5 H 0.3541 0.9899 0.5800
C48_5 C 0.2983(10) 0.9067(8) 0.9729(9)
C49_5 C 0.3330(4) 0.7075(3) 0.9223(4)
H57_5 H 0.3103 0.6795 0.9258
H58_5 H 0.3665 0.6971 0.9329
N2_5 N 0.1171(5) 0.6311(5) 0.6348(6)
O1_5 O 0.3944(3) 0.9328(2) 0.7580(3)
H62_5 H 0.3773 0.9548 0.7376
H63_5 H 0.4283 0.9383 0.7659
O2_5 O 0.3353(2) 0.7211(2) 0.8714(2)
O3_5 O 0.4418(4) 0.9542(4) 0.8605(5)
H64_5 H 0.4770 0.9564 0.8589
H65_5 H 0.4217 0.9781 0.8455
O4_5 O 0.2945(2) 0.7069(2) 0.7827(2)
O5_5 O 0.3913(2) 0.7415(2) 0.7927(2)
O6_5 O 0.2729(2) 0.7880(2) 0.7215(2)
O7_5 O 0.3587(3) 0.7119(2) 0.6895(2)
O8_5 O 0.3521(2) 0.8176(2) 0.9072(2)
O9_5 O 0.2132(2) 0.7697(2) 0.8044(2)
O10_5 O 0.40994(19) 0.8379(2) 0.8257(2)
O11_5 O 0.2255(3) 0.6769(2) 0.8723(3)
O12_5 O 0.2296(2) 0.8605(2) 0.8389(2)
O13_5 O 0.3665(2) 0.8223(2) 0.7301(2)
O14_5 O 0.2534(2) 0.7842(2) 0.8965(2)
O15_5 O 0.3303(2) 0.8967(2) 0.8495(2)
O16_5 O 0.1786(3) 0.8538(3) 0.7351(3)
O17_5 O 0.3797(3) 0.6429(2) 0.7309(3)
O18_5 O 0.2659(3) 0.8873(3) 0.9454(3)
O19_5 O 0.2896(2) 0.8819(2) 0.7556(2)
O20_5 O 0.1544(3) 0.7180(3) 0.8929(3)
O21_5 O 0.2158(3) 0.8681(3) 0.6620(3)
O22_5 O 0.4009(4) 0.6212(4) 0.8860(4)
O23_5 O 0.4503(5) 0.6441(5) 0.8342(6)
O24_5 O 0.4640(5) 0.8431(5) 0.9327(6)
H66_5 H 0.4761 0.8199 0.9152
H67_5 H 0.4753 0.8479 0.9616
O25_5 O 0.1519(4) 0.8154(5) 0.9558(4)
O26_5 O 0.1317(5) 0.8758(4) 0.9095(5)
O27_5 O 0.3682(5) 0.9146(5) 0.6582(5)
O28_5 O 0.3025(6) 0.9345(5) 0.6322(7)
O29_5 O 0.3552(6) 0.9190(4) 0.9621(4)
O30_5 O 0.4486(3) 0.7529(3) 0.8933(3)
H68_5 H 0.4755 0.7701 0.8917
H69_5 H 0.4482 0.7264 0.9099
Cd4_6 Cd 0.09633(4) 0.11147(3) 0.40097(3)
Cu1_6 Cu 0.11871(4) 0.22367(4) 0.35470(4)
Cu2_6 Cu 0.25810(4) 0.17160(4) 0.27475(4)
Cu3_6 Cu 0.16543(4) 0.24165(4) 0.24867(4)
Cu4_6 Cu 0.14529(4) 0.13234(4) 0.28722(4)
Cu5_6 Cu 0.23204(4) 0.26345(4) 0.34280(4)
Cu6_6 Cu 0.21187(4) 0.15427(4) 0.38132(4)
C1_6 C 0.1634(5) 0.2769(5) 0.5940(4)
H1_6 H 0.1441 0.2641 0.6197
C2_6 C 0.2176(4) 0.3317(4) 0.5661(4)
H2_6 H 0.2392 0.3581 0.5723
C3_6 C 0.2161(5) 0.3143(4) 0.5194(4)
H3_6 H 0.2343 0.3296 0.4943
C4_6 C 0.1867(4) 0.2729(4) 0.5100(4)
C5_6 C 0.2595(3) 0.2463(3) 0.1967(4)
H4_6 H 0.2867 0.2284 0.1807
H5_6 H 0.2401 0.2630 0.1713
C6_6 C 0.0432(3) 0.1677(3) 0.3008(4)
H6_6 H 0.0313 0.1355 0.2905
H7_6 H 0.0185 0.1810 0.3236
C7_6 C 0.0455(3) 0.2013(3) 0.2554(3)
C8_6 C 0.0824(3) 0.1821(3) 0.2164(4)
H8_6 H 0.0805 0.2038 0.1881
H9_6 H 0.0706 0.1499 0.2059
C9_6 C 0.1855(3) 0.2507(3) 0.4558(3)
C10_6 C 0.1506(3) 0.2058(3) 0.4544(3)
H10_6 H 0.1167 0.2159 0.4640
H11_6 H 0.1624 0.1820 0.4785
C11_6 C 0.1599(4) 0.2537(4) 0.5477(4)
H12_6 H 0.1398 0.2259 0.5433
C12_6 C 0.2432(3) 0.3196(3) 0.2546(4)
H13_6 H 0.2266 0.3386 0.2291
H14_6 H 0.2609 0.3424 0.2761
C13_6 C 0.2821(3) 0.2843(3) 0.2309(3)
C14_6 C 0.3145(3) 0.2604(4) 0.2719(4)
H15_6 H 0.3308 0.2863 0.2907
H16_6 H 0.3410 0.2409 0.2567
C15_6 C 0.1947(3) 0.0548(3) 0.3451(4)
H17_6 H 0.2033 0.0432 0.3778
H18_6 H 0.1708 0.0316 0.3309
C16_6 C 0.2419(3) 0.0553(3) 0.3142(3)
C17_6 C 0.2305(4) 0.0689(3) 0.2619(3)
H19_6 H 0.2062 0.0455 0.2487
H20_6 H 0.2615 0.0660 0.2427
C18_6 C 0.2846(4) 0.0872(3) 0.3353(4)
H21_6 H 0.3144 0.0842 0.3144
H22_6 H 0.2936 0.0751 0.3678
C19_6 C 0.0595(3) 0.2533(3) 0.2701(4)
H23_6 H 0.0340 0.2655 0.2929
H24_6 H 0.0584 0.2739 0.2410
C20_6 C 0.2410(3) 0.2346(3) 0.4449(3)
H25_6 H 0.2511 0.2096 0.4684
H26_6 H 0.2633 0.2627 0.4491
C22_6 C 0.3170(5) 0.3185(5) 0.3893(5)
C23_6 C 0.2652(4) 0.0030(4) 0.3135(4)
C24_6 C 0.1284(4) 0.3332(4) 0.1923(4)
C25_6 C 0.3191(4) 0.3171(4) 0.1983(5)
C26_6 C 0.3031(6) 0.3470(6) 0.1655(6)
H27_6 H 0.2684 0.3528 0.1638
C27_6 C 0.4002(5) 0.3367(6) 0.1639(5)
H28_6 H 0.4347 0.3295 0.1637
C28_6 C 0.3690(5) 0.3127(5) 0.1956(5)
H29_6 H 0.3843 0.2910 0.2175
C29_6 C 0.3346(7) 0.3718(7) 0.1315(7)
H30_6 H 0.3200 0.3905 0.1065
C30_6 C 0.1216(7) 0.3592(5) 0.1434(5)
H31_6 H 0.1119 0.3928 0.1491
H32_6 H 0.1529 0.3583 0.1254
H33_6 H 0.0955 0.3430 0.1248
C32_6 C 0.0560(4) 0.3780(5) 0.3688(6)
C34_6 C 0.0111(5) 0.3962(6) 0.3999(6)
H37_6 H 0.0102 0.3784 0.4304
H38_6 H 0.0152 0.4307 0.4065
C35_6 C 0.3406(6) 0.3668(5) 0.4133(6)
H39_6 H 0.3739 0.3596 0.4258
H40_6 H 0.3429 0.3922 0.3889
H41_6 H 0.3193 0.3778 0.4398
C42_6 C 0.3631(5) 0.1437(6) 0.4503(4)
C43_6 C 0.3212(5) 0.1345(5) 0.1894(7)
C44_6 C 0.3871(9) 0.1116(9) 0.4956(8)
H48_6 H 0.3652 0.0843 0.5028
H49_6 H 0.4200 0.0996 0.4863
H50_6 H 0.3903 0.1321 0.5242
C45_6 C 0.3753(8) 0.1287(9) 0.1641(8)
H51_6 H 0.3710 0.1213 0.1298
H52_6 H 0.3941 0.1588 0.1676
H53_6 H 0.3936 0.1023 0.1797
C46_6 C 0.1526(9) 0.0590(6) 0.1365(6)
C47_6 C 0.1304(8) 0.0144(9) 0.1117(8)
H55_6 H 0.0944 0.0188 0.1077
H56_6 H 0.1459 0.0101 0.0800
C48_6 C 0.2017(10) 0.0933(8) 0.4729(9)
C49_6 C 0.1670(4) 0.2925(3) 0.4223(4)
H57_6 H 0.1897 0.3205 0.4258
H58_6 H 0.1335 0.3029 0.4329
C50_6 C 0.2215(11) 0.0826(11) 0.5276(8)
H59_6 H 0.2566 0.0918 0.5300
H60_6 H 0.2019 0.1014 0.5507
H61_6 H 0.2180 0.0481 0.5347
N2_6 N 0.3829(5) 0.3689(5) 0.1348(6)
O1_6 O 0.1056(3) 0.0672(2) 0.2580(3)
H62_6 H 0.1227 0.0452 0.2376
H63_6 H 0.0717 0.0617 0.2659
O2_6 O 0.1647(2) 0.2789(2) 0.3714(2)
O3_6 O 0.0582(4) 0.0458(4) 0.3605(5)
H64_6 H 0.0230 0.0436 0.3589
H65_6 H 0.0783 0.0219 0.3455
O4_6 O 0.2055(2) 0.2931(2) 0.2827(2)
O5_6 O 0.1087(2) 0.2585(2) 0.2927(2)
O6_6 O 0.2271(2) 0.2120(2) 0.2215(2)
O7_6 O 0.1413(3) 0.2881(2) 0.1895(2)
O8_6 O 0.1479(2) 0.1824(2) 0.4072(2)
O9_6 O 0.2868(2) 0.2303(2) 0.3044(2)
O10_6 O 0.09006(19) 0.1621(2) 0.3257(2)
O11_6 O 0.2745(3) 0.3231(2) 0.3723(3)
O12_6 O 0.2704(2) 0.1395(2) 0.3389(2)
O13_6 O 0.1335(2) 0.1777(2) 0.2301(2)
O14_6 O 0.2466(2) 0.2158(2) 0.3965(2)
O15_6 O 0.1697(2) 0.1033(2) 0.3495(2)
O16_6 O 0.3214(3) 0.1462(3) 0.2351(3)
O17_6 O 0.1203(3) 0.3571(2) 0.2309(3)
O18_6 O 0.2341(3) 0.1127(3) 0.4454(3)
O19_6 O 0.2104(2) 0.1181(2) 0.2556(2)
O20_6 O 0.3456(3) 0.2820(3) 0.3929(3)
O21_6 O 0.2842(3) 0.1319(3) 0.1620(3)
O22_6 O 0.0991(4) 0.3788(4) 0.3860(4)
O23_6 O 0.0497(5) 0.3559(5) 0.3342(6)
O24_6 O 0.0360(5) 0.1569(5) 0.4327(6)
H66_6 H 0.0239 0.1801 0.4152
H67_6 H 0.0247 0.1521 0.4616
O25_6 O 0.3481(4) 0.1846(5) 0.4558(4)
O26_6 O 0.3683(5) 0.1242(4) 0.4095(5)
O27_6 O 0.1318(5) 0.0854(5) 0.1582(5)
O28_6 O 0.1975(6) 0.0655(5) 0.1322(7)
O29_6 O 0.1448(6) 0.0810(4) 0.4621(4)
O30_6 O 0.0514(3) 0.2471(3) 0.3933(3)
H68_6 H 0.0245 0.2299 0.3917
H69_6 H 0.0518 0.2736 0.4099
C38_6 C 0.2682(6) 0.9754(5) 0.3531(5)
H44_6 H 0.2555 0.9869 0.3829
C39_6 C 0.2859(6) 0.9823(6) 0.2740(6)
H45_6 H 0.2841 0.9994 0.2444
C40_6 C 0.3108(6) 0.9353(6) 0.2738(6)
H46_6 H 0.3240 0.9226 0.2447
C41_6 C 0.2914(5) 0.9272(5) 0.3505(5)
H47_6 H 0.2885 0.9069 0.3780
H54_6 H 0.1366 0.9858 0.1315
C21_6 C 0.9940(3) 0.2031(3) 0.2288(4)
C31_6 C 0.9653(4) 0.1618(5) 0.2213(6)
H34_6 H 0.9772 0.1323 0.2344
C33_6 C 0.9745(4) 0.2434(5) 0.2060(6)
H35_6 H 0.9912 0.2735 0.2084
H36_6 H 0.9801 0.3909 0.3822
C36_6 C 0.9301(4) 0.2400(5) 0.1794(5)
H42_6 H 0.9177 0.2688 0.1653
C37_6 C 0.9193(4) 0.1608(4) 0.1954(5)
H43_6 H 0.8999 0.1322 0.1948
Cd4_7 Cd 0.59633(4) 0.38853(3) 0.59903(3)
Cu1_7 Cu 0.61871(4) 0.27633(4) 0.64530(4)
Cu2_7 Cu 0.75810(4) 0.32840(4) 0.72525(4)
Cu3_7 Cu 0.66543(4) 0.25835(4) 0.75133(4)
Cu4_7 Cu 0.64529(4) 0.36766(4) 0.71278(4)
Cu5_7 Cu 0.73204(4) 0.23655(4) 0.65720(4)
Cu6_7 Cu 0.71187(4) 0.34573(4) 0.61868(4)
C1_7 C 0.6634(5) 0.2231(5) 0.4060(4)
H1_7 H 0.6441 0.2359 0.3803
C2_7 C 0.7176(4) 0.1683(4) 0.4339(4)
H2_7 H 0.7392 0.1419 0.4277
C3_7 C 0.7161(5) 0.1857(4) 0.4806(4)
H3_7 H 0.7343 0.1704 0.5057
C4_7 C 0.6867(4) 0.2271(4) 0.4900(4)
C5_7 C 0.7595(3) 0.2537(3) 0.8033(4)
H4_7 H 0.7867 0.2716 0.8193
H5_7 H 0.7401 0.2370 0.8287
C6_7 C 0.5432(3) 0.3323(3) 0.6992(4)
H6_7 H 0.5313 0.3645 0.7095
H7_7 H 0.5185 0.3190 0.6764
C7_7 C 0.5455(3) 0.2987(3) 0.7446(3)
C8_7 C 0.5824(3) 0.3179(3) 0.7836(4)
H8_7 H 0.5805 0.2962 0.8119
H9_7 H 0.5706 0.3501 0.7941
C9_7 C 0.6855(3) 0.2493(3) 0.5442(3)
C10_7 C 0.6506(3) 0.2942(3) 0.5456(3)
H10_7 H 0.6167 0.2841 0.5360
H11_7 H 0.6624 0.3180 0.5215
C11_7 C 0.6599(4) 0.2463(4) 0.4523(4)
H12_7 H 0.6398 0.2741 0.4567
C12_7 C 0.7432(3) 0.1804(3) 0.7454(4)
H13_7 H 0.7266 0.1614 0.7709
H14_7 H 0.7609 0.1576 0.7239
C13_7 C 0.7821(3) 0.2157(3) 0.7691(3)
C14_7 C 0.8145(3) 0.2396(4) 0.7281(4)
H15_7 H 0.8308 0.2137 0.7093
H16_7 H 0.8410 0.2591 0.7433
C15_7 C 0.6947(3) 0.4452(3) 0.6549(4)
H17_7 H 0.7033 0.4568 0.6222
H18_7 H 0.6708 0.4684 0.6691
C16_7 C 0.7419(3) 0.4447(3) 0.6858(3)
C17_7 C 0.7305(4) 0.4311(3) 0.7381(3)
H19_7 H 0.7062 0.4545 0.7513
H20_7 H 0.7615 0.4340 0.7573
C18_7 C 0.7846(4) 0.4128(3) 0.6647(4)
H21_7 H 0.8144 0.4158 0.6856
H22_7 H 0.7936 0.4249 0.6322
C19_7 C 0.5595(3) 0.2467(3) 0.7299(4)
H23_7 H 0.5340 0.2345 0.7071
H24_7 H 0.5584 0.2261 0.7590
C20_7 C 0.7410(3) 0.2654(3) 0.5551(3)
H25_7 H 0.7511 0.2904 0.5316
H26_7 H 0.7633 0.2373 0.5509
C21_7 C 0.4940(3) 0.2969(3) 0.7712(4)
C22_7 C 0.8170(5) 0.1815(5) 0.6107(5)
C23_7 C 0.7652(4) 0.4970(4) 0.6865(4)
C24_7 C 0.6284(4) 0.1668(4) 0.8077(4)
C25_7 C 0.8191(4) 0.1829(4) 0.8017(5)
C26_7 C 0.8031(6) 0.1530(6) 0.8345(6)
H27_7 H 0.7684 0.1472 0.8362
C27_7 C 0.9002(5) 0.1633(6) 0.8361(5)
H28_7 H 0.9347 0.1705 0.8363
C28_7 C 0.8690(5) 0.1873(5) 0.8044(5)
H29_7 H 0.8843 0.2090 0.7825
C29_7 C 0.8346(7) 0.1282(7) 0.8685(7)
H30_7 H 0.8200 0.1095 0.8935
C30_7 C 0.6216(7) 0.1408(5) 0.8566(5)
H31_7 H 0.6119 0.1072 0.8509
H32_7 H 0.6529 0.1417 0.8746
H33_7 H 0.5955 0.1570 0.8752
C31_7 C 0.4653(4) 0.3382(5) 0.7787(6)
H34_7 H 0.4772 0.3677 0.7656
C32_7 C 0.5560(4) 0.1220(5) 0.6312(6)
C33_7 C 0.4745(4) 0.2566(5) 0.7940(6)
H35_7 H 0.4912 0.2265 0.7916
C34_7 C 0.5111(5) 0.1038(6) 0.6001(6)
H36_7 H 0.4801 0.1091 0.6178
H37_7 H 0.5102 0.1216 0.5696
H38_7 H 0.5152 0.0693 0.5935
C35_7 C 0.8406(6) 0.1332(5) 0.5867(6)
H39_7 H 0.8739 0.1404 0.5742
H40_7 H 0.8429 0.1078 0.6111
H41_7 H 0.8193 0.1222 0.5602
C36_7 C 0.4301(4) 0.2600(5) 0.8206(5)
H42_7 H 0.4177 0.2312 0.8347
C37_7 C 0.4193(4) 0.3392(4) 0.8046(5)
H43_7 H 0.3999 0.3678 0.8052
C38_7 C 0.7682(6) 0.5246(5) 0.6469(5)
H44_7 H 0.7555 0.5131 0.6171
C39_7 C 0.7859(6) 0.5177(6) 0.7260(6)
H45_7 H 0.7841 0.5006 0.7556
C40_7 C 0.8108(6) 0.5647(6) 0.7262(6)
H46_7 H 0.8240 0.5774 0.7553
C41_7 C 0.7914(5) 0.5728(5) 0.6495(5)
H47_7 H 0.7885 0.5931 0.6220
C42_7 C 0.8631(5) 0.3563(6) 0.5497(4)
C43_7 C 0.8212(5) 0.3655(5) 0.8106(7)
C44_7 C 0.8871(9) 0.3884(9) 0.5044(8)
H48_7 H 0.8652 0.4157 0.4972
H49_7 H 0.9200 0.4004 0.5137
H50_7 H 0.8903 0.3679 0.4758
C45_7 C 0.8753(8) 0.3713(9) 0.8359(8)
H51_7 H 0.8710 0.3787 0.8702
H52_7 H 0.8941 0.3412 0.8324
H53_7 H 0.8936 0.3977 0.8203
C46_7 C 0.6526(9) 0.4410(6) 0.8635(6)
C47_7 C 0.6304(8) 0.4856(9) 0.8883(8)
H54_7 H 0.6366 0.5142 0.8685
H55_7 H 0.5944 0.4812 0.8923
H56_7 H 0.6459 0.4899 0.9200
C48_7 C 0.7017(10) 0.4067(8) 0.5271(9)
C49_7 C 0.6670(4) 0.2075(3) 0.5777(4)
H57_7 H 0.6897 0.1795 0.5742
H58_7 H 0.6335 0.1971 0.5671
C50_7 C 0.7215(11) 0.4174(11) 0.4724(8)
H59_7 H 0.7566 0.4082 0.4700
H60_7 H 0.7019 0.3986 0.4493
H61_7 H 0.7180 0.4519 0.4653
N2_7 N 0.8829(5) 0.1311(5) 0.8652(6)
O1_7 O 0.6056(3) 0.4328(2) 0.7420(3)
H62_7 H 0.6227 0.4548 0.7624
H63_7 H 0.5717 0.4383 0.7341
O2_7 O 0.6647(2) 0.2211(2) 0.6286(2)
O3_7 O 0.5582(4) 0.4542(4) 0.6395(5)
H64_7 H 0.5230 0.4564 0.6411
H65_7 H 0.5783 0.4781 0.6545
O4_7 O 0.7055(2) 0.2069(2) 0.7173(2)
O5_7 O 0.6087(2) 0.2415(2) 0.7073(2)
O6_7 O 0.7271(2) 0.2880(2) 0.7785(2)
O7_7 O 0.6413(3) 0.2119(2) 0.8105(2)
O8_7 O 0.6479(2) 0.3176(2) 0.5928(2)
O9_7 O 0.7868(2) 0.2697(2) 0.6956(2)
O10_7 O 0.59006(19) 0.3379(2) 0.6743(2)
O11_7 O 0.7745(3) 0.1769(2) 0.6277(3)
O12_7 O 0.7704(2) 0.3605(2) 0.6611(2)
O13_7 O 0.6335(2) 0.3223(2) 0.7699(2)
O14_7 O 0.7466(2) 0.2842(2) 0.6035(2)
O15_7 O 0.6697(2) 0.3967(2) 0.6505(2)
O16_7 O 0.8214(3) 0.3538(3) 0.7649(3)
O17_7 O 0.6203(3) 0.1429(2) 0.7691(3)
O18_7 O 0.7341(3) 0.3873(3) 0.5546(3)
O19_7 O 0.7104(2) 0.3819(2) 0.7444(2)
O20_7 O 0.8456(3) 0.2180(3) 0.6071(3)
O21_7 O 0.7842(3) 0.3681(3) 0.8380(3)
O22_7 O 0.5991(4) 0.1212(4) 0.6140(4)
O23_7 O 0.5497(5) 0.1441(5) 0.6658(6)
O24_7 O 0.5360(5) 0.3431(5) 0.5673(6)
H66_7 H 0.5239 0.3199 0.5848
H67_7 H 0.5247 0.3479 0.5384
O25_7 O 0.8481(4) 0.3154(5) 0.5442(4)
O26_7 O 0.8683(5) 0.3758(4) 0.5905(5)
O27_7 O 0.6318(5) 0.4146(5) 0.8418(5)
O28_7 O 0.6975(6) 0.4345(5) 0.8678(7)
O29_7 O 0.6448(6) 0.4190(4) 0.5379(4)
O30_7 O 0.5514(3) 0.2529(3) 0.6067(3)
H68_7 H 0.5245 0.2701 0.6083
H69_7 H 0.5518 0.2264 0.5901
C21_8 C 0.0060(3) 0.7031(3) 0.2712(4)
C31_8 C 0.0347(4) 0.6618(5) 0.2787(6)
H34_8 H 0.0228 0.6323 0.2656
C33_8 C 0.0255(4) 0.7434(5) 0.2940(6)
H35_8 H 0.0088 0.7735 0.2916
H36_8 H 0.0199 0.8909 0.1178
C36_8 C 0.0699(4) 0.7400(5) 0.3206(5)
H42_8 H 0.0823 0.7688 0.3347
C37_8 C 0.0807(4) 0.6608(4) 0.3046(5)
H43_8 H 0.1001 0.6322 0.3052
Cd4_8 Cd 0.90367(4) 0.61147(3) 0.09903(3)
Cu1_8 Cu 0.88129(4) 0.72367(4) 0.14530(4)
Cu2_8 Cu 0.74190(4) 0.67160(4) 0.22525(4)
Cu3_8 Cu 0.83457(4) 0.74165(4) 0.25133(4)
Cu4_8 Cu 0.85471(4) 0.63234(4) 0.21278(4)
Cu5_8 Cu 0.76796(4) 0.76345(4) 0.15720(4)
Cu6_8 Cu 0.78813(4) 0.65427(4) 0.11868(4)
H3_8 H 0.7657 0.8296 0.0057
C5_8 C 0.7405(3) 0.7463(3) 0.3033(4)
H4_8 H 0.7133 0.7284 0.3193
H5_8 H 0.7599 0.7630 0.3287
C6_8 C 0.9568(3) 0.6677(3) 0.1992(4)
H6_8 H 0.9687 0.6355 0.2095
H7_8 H 0.9815 0.6810 0.1764
C7_8 C 0.9545(3) 0.7013(3) 0.2446(3)
C8_8 C 0.9176(3) 0.6821(3) 0.2836(4)
H8_8 H 0.9195 0.7038 0.3119
H9_8 H 0.9294 0.6499 0.2941
C9_8 C 0.8145(3) 0.7507(3) 0.0442(3)
C10_8 C 0.8494(3) 0.7058(3) 0.0456(3)
H10_8 H 0.8833 0.7159 0.0360
H11_8 H 0.8376 0.6820 0.0215
C12_8 C 0.7568(3) 0.8196(3) 0.2454(4)
H13_8 H 0.7734 0.8386 0.2709
H14_8 H 0.7391 0.8424 0.2239
C13_8 C 0.7179(3) 0.7843(3) 0.2691(3)
C14_8 C 0.6855(3) 0.7604(4) 0.2281(4)
H15_8 H 0.6692 0.7863 0.2093
H16_8 H 0.6590 0.7409 0.2433
C15_8 C 0.8053(3) 0.5548(3) 0.1549(4)
H17_8 H 0.7967 0.5432 0.1222
H18_8 H 0.8292 0.5316 0.1691
C16_8 C 0.7581(3) 0.5553(3) 0.1858(3)
C17_8 C 0.7695(4) 0.5689(3) 0.2381(3)
H19_8 H 0.7938 0.5455 0.2513
H20_8 H 0.7385 0.5660 0.2573
C18_8 C 0.7154(4) 0.5872(3) 0.1647(4)
H21_8 H 0.6856 0.5842 0.1856
H22_8 H 0.7064 0.5751 0.1322
C19_8 C 0.9405(3) 0.7533(3) 0.2299(4)
H23_8 H 0.9660 0.7655 0.2071
H24_8 H 0.9416 0.7739 0.2590
C20_8 C 0.7590(3) 0.7346(3) 0.0551(3)
H25_8 H 0.7489 0.7096 0.0316
H26_8 H 0.7367 0.7627 0.0509
C22_8 C 0.6830(5) 0.8185(5) 0.1107(5)
C23_8 C 0.7348(4) 0.5030(4) 0.1865(4)
C24_8 C 0.8716(4) 0.8332(4) 0.3077(4)
C25_8 C 0.6809(4) 0.8171(4) 0.3017(5)
C26_8 C 0.6969(6) 0.8470(6) 0.3345(6)
H27_8 H 0.7316 0.8528 0.3362
C27_8 C 0.5998(5) 0.8367(6) 0.3361(5)
H28_8 H 0.5653 0.8295 0.3363
C28_8 C 0.6310(5) 0.8127(5) 0.3044(5)
H29_8 H 0.6157 0.7910 0.2825
C29_8 C 0.6654(7) 0.8718(7) 0.3685(7)
H30_8 H 0.6800 0.8905 0.3935
C30_8 C 0.8784(7) 0.8592(5) 0.3566(5)
H31_8 H 0.8881 0.8928 0.3509
H32_8 H 0.8471 0.8583 0.3746
H33_8 H 0.9045 0.8430 0.3752
C32_8 C 0.9440(4) 0.8780(5) 0.1312(6)
C34_8 C 0.9889(5) 0.8962(6) 0.1001(6)
H37_8 H 0.9898 0.8784 0.0696
H38_8 H 0.9848 0.9307 0.0935
C35_8 C 0.6594(6) 0.8668(5) 0.0867(6)
H39_8 H 0.6261 0.8596 0.0742
H40_8 H 0.6571 0.8922 0.1111
H41_8 H 0.6807 0.8778 0.0602
C38_8 C 0.7318(6) 0.4754(5) 0.1469(5)
H44_8 H 0.7445 0.4869 0.1171
C39_8 C 0.7141(6) 0.4823(6) 0.2260(6)
H45_8 H 0.7159 0.4994 0.2556
C40_8 C 0.6892(6) 0.4353(6) 0.2262(6)
H46_8 H 0.6760 0.4226 0.2553
C41_8 C 0.7086(5) 0.4272(5) 0.1495(5)
H47_8 H 0.7115 0.4069 0.1220
C42_8 C 0.6369(5) 0.6437(6) 0.0497(4)
C43_8 C 0.6788(5) 0.6345(5) 0.3106(7)
C44_8 C 0.6129(9) 0.6116(9) 0.0044(8)
H49_8 H 0.5800 0.5996 0.0137
C45_8 C 0.6247(8) 0.6287(9) 0.3359(8)
H51_8 H 0.6290 0.6213 0.3702
H52_8 H 0.6059 0.6588 0.3324
H53_8 H 0.6064 0.6023 0.3203
C46_8 C 0.8474(9) 0.5590(6) 0.3635(6)
C47_8 C 0.8696(8) 0.5144(9) 0.3883(8)
H54_8 H 0.8634 0.4858 0.3685
H55_8 H 0.9056 0.5188 0.3923
H56_8 H 0.8541 0.5101 0.4200
C48_8 C 0.7983(10) 0.5933(8) 0.0271(9)
C49_8 C 0.8330(4) 0.7925(3) 0.0777(4)
H57_8 H 0.8103 0.8205 0.0742
H58_8 H 0.8665 0.8029 0.0671
N2_8 N 0.6171(5) 0.8689(5) 0.3652(6)
O1_8 O 0.8944(3) 0.5672(2) 0.2420(3)
H62_8 H 0.8773 0.5452 0.2624
H63_8 H 0.9283 0.5617 0.2341
O2_8 O 0.8353(2) 0.7789(2) 0.1286(2)
O3_8 O 0.9418(4) 0.5458(4) 0.1395(5)
H64_8 H 0.9770 0.5436 0.1411
H65_8 H 0.9217 0.5219 0.1545
O4_8 O 0.7945(2) 0.7931(2) 0.2173(2)
O5_8 O 0.8913(2) 0.7585(2) 0.2073(2)
O6_8 O 0.7729(2) 0.7120(2) 0.2785(2)
O7_8 O 0.8587(3) 0.7881(2) 0.3105(2)
O8_8 O 0.8521(2) 0.6824(2) 0.0928(2)
O9_8 O 0.7132(2) 0.7303(2) 0.1956(2)
O10_8 O 0.90994(19) 0.6621(2) 0.1743(2)
O11_8 O 0.7255(3) 0.8231(2) 0.1277(3)
O12_8 O 0.7296(2) 0.6395(2) 0.1611(2)
O13_8 O 0.8665(2) 0.6777(2) 0.2699(2)
O14_8 O 0.7534(2) 0.7158(2) 0.1035(2)
O15_8 O 0.8303(2) 0.6033(2) 0.1505(2)
O16_8 O 0.6786(3) 0.6462(3) 0.2649(3)
O17_8 O 0.8797(3) 0.8571(2) 0.2691(3)
O18_8 O 0.7659(3) 0.6127(3) 0.0546(3)
O19_8 O 0.7896(2) 0.6181(2) 0.2444(2)
O20_8 O 0.6544(3) 0.7820(3) 0.1071(3)
O21_8 O 0.7158(3) 0.6319(3) 0.3380(3)
O22_8 O 0.9009(4) 0.8788(4) 0.1140(4)
O23_8 O 0.9503(5) 0.8559(5) 0.1658(6)
O24_8 O 0.9640(5) 0.6569(5) 0.0673(6)
H66_8 H 0.9761 0.6801 0.0848
H67_8 H 0.9753 0.6521 0.0384
O25_8 O 0.6519(4) 0.6846(5) 0.0442(4)
O26_8 O 0.6317(5) 0.6242(4) 0.0905(5)
O27_8 O 0.8682(5) 0.5854(5) 0.3418(5)
O28_8 O 0.8025(6) 0.5655(5) 0.3678(7)
O29_8 O 0.8552(6) 0.5810(4) 0.0379(4)
O30_8 O 0.9486(3) 0.7471(3) 0.1067(3)
H68_8 H 0.9755 0.7299 0.1083
H69_8 H 0.9482 0.7736 0.0901
C1_8 C 0.8366(5) 0.7769(5) 0.9060(4)
H1_8 H 0.8559 0.7641 0.8803
C2_8 C 0.7824(4) 0.8317(4) 0.9339(4)
H2_8 H 0.7608 0.8581 0.9277
C3_8 C 0.7839(5) 0.8143(4) 0.9806(4)
C4_8 C 0.8133(4) 0.7729(4) 0.9900(4)
C11_8 C 0.8401(4) 0.7537(4) 0.9523(4)
H12_8 H 0.8602 0.7259 0.9567
H48_8 H 0.6348 0.5843 0.9972
H50_8 H 0.6097 0.6321 0.9758
C50_8 C 0.7785(11) 0.5826(11) 0.9724(8)
H59_8 H 0.7434 0.5918 0.9700
H60_8 H 0.7981 0.6014 0.9493
H61_8 H 0.7820 0.5481 0.9653
loop_
_geom_bond_atom_site_label_1
_geom_bond_atom_site_label_2
_geom_bond_site_symmetry_1
_geom_bond_site_symmetry_2
Cd1 O2 1_555 1_555
Cd2 O6 1_555 1_555
Cd3 O9 1_555 1_555
Cd4 O3 1_555 1_555
Cu1 O2 1_555 1_555
Cu2 O6 1_555 1_555
Cu3 O4 1_555 1_555
Cu4 O1 1_555 1_555
Cu5 O2 1_555 1_555
Cu6 O8 1_555 1_555
C5 H4 1_555 1_555
H5 C5 1_555 1_555
C6 H6 1_555 1_555
H7 C6 1_555 1_555
C7 C6 1_555 1_555
C8 C7 1_555 1_555
H8 C8 1_555 1_555
H9 C8 1_555 1_555
C10 C9 1_555 1_555
H10 C10 1_555 1_555
H11 C10 1_555 1_555
C12 H13 1_555 1_555
H14 C12 1_555 1_555
C13 C5 1_555 1_555
C14 C13 1_555 1_555
H15 C14 1_555 1_555
H16 C14 1_555 1_555
C15 H17 1_555 1_555
H18 C15 1_555 1_555
C16 C15 1_555 1_555
C17 C16 1_555 1_555
H19 C17 1_555 1_555
H20 C17 1_555 1_555
C18 C16 1_555 1_555
H21 C18 1_555 1_555
H22 C18 1_555 1_555
C19 C7 1_555 1_555
H23 C19 1_555 1_555
H24 C19 1_555 1_555
C20 C9 1_555 1_555
H25 C20 1_555 1_555
H26 C20 1_555 1_555
C21 C7 1_555 1_555
C22 C35 1_555 1_555
C23 C16 1_555 1_555
C24 C30 1_555 1_555
C25 C13 1_555 1_555
C26 C25 1_555 1_555
H27 C26 1_555 1_555
C27 H28 1_555 1_555
C28 C25 1_555 1_555
H29 C28 1_555 1_555
C29 C26 1_555 1_555
H30 C29 1_555 1_555
C30 H31 1_555 1_555
H32 C30 1_555 1_555
H33 C30 1_555 1_555
C31 C21 1_555 1_555
H34 C31 1_555 1_555
C32 C34 1_555 1_555
C33 C21 1_555 1_555
H35 C33 1_555 1_555
C34 H36 1_555 1_555
H37 C34 1_555 1_555
H38 C34 1_555 1_555
C35 H39 1_555 1_555
H40 C35 1_555 1_555
H41 C35 1_555 1_555
C36 C33 1_555 1_555
H42 C36 1_555 1_555
C37 C31 1_555 1_555
H43 C37 1_555 1_555
C42 C44 1_555 1_555
C43 C45 1_555 1_555
H49 C44 1_555 1_555
C45 H51 1_555 1_555
H52 C45 1_555 1_555
H53 C45 1_555 1_555
C46 C47 1_555 1_555
H55 C47 1_555 1_555
H56 C47 1_555 1_555
C49 C9 1_555 1_555
H57 C49 1_555 1_555
H58 C49 1_555 1_555
N2 C27 1_555 1_555
N3 C36 1_555 1_555
O1 H62 1_555 1_555
H63 O1 1_555 1_555
O2 C49 1_555 1_555
O3 H64 1_555 1_555
H65 O3 1_555 1_555
O4 Cd1 1_555 1_555
O5 Cd1 1_555 1_555
O6 Cu3 1_555 1_555
O7 Cu3 1_555 1_555
O8 Cd4 1_555 1_555
O9 Cu2 1_555 1_555
O10 Cd4 1_555 1_555
O11 Cu5 1_555 1_555
O12 Cd3 1_555 1_555
O13 Cd2 1_555 1_555
O14 Cd3 1_555 1_555
O15 Cd4 1_555 1_555
O16 Cu2 1_555 1_555
O17 Cd1 1_555 1_555
O18 Cu6 1_555 1_555
O19 Cd2 1_555 1_555
O20 Cd3 1_555 1_555
O21 Cd2 1_555 1_555
O22 Cd1 1_555 1_555
O23 Cd1 1_555 1_555
O24 Cd4 1_555 1_555
H66 O24 1_555 1_555
H67 O24 1_555 1_555
O25 Cd3 1_555 1_555
O26 Cd3 1_555 1_555
O27 Cd2 1_555 1_555
O28 Cd2 1_555 1_555
O29 Cd4 1_555 1_555
O30 Cu1 1_555 1_555
H68 O30 1_555 1_555
H69 O30 1_555 1_555
Cd7 N3 1_555 1_555
N5 Cd2 1_555 1_555
N6 Cd3 1_555 1_555
N7 Cd1 1_555 1_555
Cu1 O5 1_555 1_555
Cu1 O8 1_555 1_555
Cu1 O10 1_555 1_555
Cu2 O12 1_555 1_555
Cu2 O19 1_555 1_555
Cu3 O5 1_555 1_555
Cu3 O13 1_555 1_555
Cu4 O10 1_555 1_555
Cu4 O13 1_555 1_555
Cu4 O15 1_555 1_555
Cu4 O19 1_555 1_555
Cu5 O4 1_555 1_555
Cu5 O9 1_555 1_555
Cu5 O14 1_555 1_555
Cu6 O12 1_555 1_555
Cu6 O14 1_555 1_555
Cu6 O15 1_555 1_555
C5 O6 1_555 1_555
C6 O10 1_555 1_555
C8 O13 1_555 1_555
C10 O8 1_555 1_555
C12 C13 1_555 1_555
C12 O4 1_555 1_555
C14 O9 1_555 1_555
C15 O15 1_555 1_555
C17 O19 1_555 1_555
C18 O12 1_555 1_555
C19 O5 1_555 1_555
C20 O14 1_555 1_555
C22 O11 1_555 1_555
C22 O20 1_555 1_555
C24 O7 1_555 1_555
C24 O17 1_555 1_555
C27 C28 1_555 1_555
C29 N2 1_555 1_555
C32 O22 1_555 1_555
C32 O23 1_555 1_555
C37 N3 1_555 1_555
C42 O25 1_555 1_555
C42 O26 1_555 1_555
C43 O16 1_555 1_555
C43 O21 1_555 1_555
C46 O27 1_555 1_555
C46 O28 1_555 1_555
C48 O18 1_555 1_555
C48 O29 1_555 1_555
C1 H1 1_555 1_555
C2 H2 1_555 1_555
C3 C2 1_555 1_555
C4 C3 1_555 1_555
C11 C1 1_555 1_555
H12 C11 1_555 1_555
C50 H59 1_555 1_555
H60 C50 1_555 1_555
H61 C50 1_555 1_555
N1 C1 1_555 1_555
Cd6 N1 1_555 1_555
C2 N1 1_555 1_555
C4 C11 1_555 1_555
H44 C38 1_555 1_555
H45 C39 1_555 1_555
C40 C39 1_555 1_555
H46 C40 1_555 1_555
C41 C38 1_555 1_555
H47 C41 1_555 1_555
N4 C40 1_555 1_555
Cd5 N4 1_555 1_555
C41 N4 1_555 1_555
C31_2 C21_2 1_555 1_555
H34_2 C31_2 1_555 1_555
C33_2 C21_2 1_555 1_555
H35_2 C33_2 1_555 1_555
C36_2 C33_2 1_555 1_555
H42_2 C36_2 1_555 1_555
C37_2 C31_2 1_555 1_555
H43_2 C37_2 1_555 1_555
N3_2 C36_2 1_555 1_555
Cd7_2 N3_2 1_555 1_555
C37_2 N3_2 1_555 1_555
H44_2 C38_2 1_555 1_555
H45_2 C39_2 1_555 1_555
C40_2 C39_2 1_555 1_555
H46_2 C40_2 1_555 1_555
C41_2 C38_2 1_555 1_555
H47_2 C41_2 1_555 1_555
N4_2 C40_2 1_555 1_555
Cd5_2 N4_2 1_555 1_555
C41_2 N4_2 1_555 1_555
Cd1_2 O2_2 1_555 1_555
Cd2_2 O6_2 1_555 1_555
Cd3_2 O9_2 1_555 1_555
Cd4_2 O3_2 1_555 1_555
Cu1_2 O2_2 1_555 1_555
Cu2_2 O6_2 1_555 1_555
Cu3_2 O4_2 1_555 1_555
Cu4_2 O1_2 1_555 1_555
Cu5_2 O2_2 1_555 1_555
Cu6_2 O8_2 1_555 1_555
C1_2 H1_2 1_555 1_555
C2_2 H2_2 1_555 1_555
C3_2 C2_2 1_555 1_555
H3_2 C3_2 1_555 1_555
C4_2 C3_2 1_555 1_555
C5_2 H4_2 1_555 1_555
H5_2 C5_2 1_555 1_555
C6_2 H6_2 1_555 1_555
H7_2 C6_2 1_555 1_555
C7_2 C6_2 1_555 1_555
C8_2 C7_2 1_555 1_555
H8_2 C8_2 1_555 1_555
H9_2 C8_2 1_555 1_555
C9_2 C4_2 1_555 1_555
C10_2 C9_2 1_555 1_555
H10_2 C10_2 1_555 1_555
H11_2 C10_2 1_555 1_555
C11_2 C1_2 1_555 1_555
H12_2 C11_2 1_555 1_555
C12_2 H13_2 1_555 1_555
H14_2 C12_2 1_555 1_555
C13_2 C5_2 1_555 1_555
C14_2 C13_2 1_555 1_555
H15_2 C14_2 1_555 1_555
H16_2 C14_2 1_555 1_555
C15_2 H17_2 1_555 1_555
H18_2 C15_2 1_555 1_555
C16_2 C15_2 1_555 1_555
C17_2 C16_2 1_555 1_555
H19_2 C17_2 1_555 1_555
H20_2 C17_2 1_555 1_555
C18_2 C16_2 1_555 1_555
H21_2 C18_2 1_555 1_555
H22_2 C18_2 1_555 1_555
C19_2 C7_2 1_555 1_555
H23_2 C19_2 1_555 1_555
H24_2 C19_2 1_555 1_555
C20_2 C9_2 1_555 1_555
H25_2 C20_2 1_555 1_555
H26_2 C20_2 1_555 1_555
C22_2 C35_2 1_555 1_555
C23_2 C16_2 1_555 1_555
C24_2 C30_2 1_555 1_555
C25_2 C13_2 1_555 1_555
C26_2 C25_2 1_555 1_555
H27_2 C26_2 1_555 1_555
C27_2 H28_2 1_555 1_555
C28_2 C25_2 1_555 1_555
H29_2 C28_2 1_555 1_555
C29_2 C26_2 1_555 1_555
H30_2 C29_2 1_555 1_555
C30_2 H31_2 1_555 1_555
H32_2 C30_2 1_555 1_555
H33_2 C30_2 1_555 1_555
C32_2 C34_2 1_555 1_555
H37_2 C34_2 1_555 1_555
H38_2 C34_2 1_555 1_555
C35_2 H39_2 1_555 1_555
H40_2 C35_2 1_555 1_555
H41_2 C35_2 1_555 1_555
C42_2 C44_2 1_555 1_555
C43_2 C45_2 1_555 1_555
C44_2 H48_2 1_555 1_555
H49_2 C44_2 1_555 1_555
H50_2 C44_2 1_555 1_555
C45_2 H51_2 1_555 1_555
H52_2 C45_2 1_555 1_555
H53_2 C45_2 1_555 1_555
C46_2 C47_2 1_555 1_555
H55_2 C47_2 1_555 1_555
H56_2 C47_2 1_555 1_555
C48_2 C50_2 1_555 1_555
C49_2 C9_2 1_555 1_555
H57_2 C49_2 1_555 1_555
H58_2 C49_2 1_555 1_555
C50_2 H59_2 1_555 1_555
H60_2 C50_2 1_555 1_555
H61_2 C50_2 1_555 1_555
N1_2 C1_2 1_555 1_555
N2_2 C27_2 1_555 1_555
O1_2 H62_2 1_555 1_555
H63_2 O1_2 1_555 1_555
O2_2 C49_2 1_555 1_555
O3_2 H64_2 1_555 1_555
H65_2 O3_2 1_555 1_555
O4_2 Cd1_2 1_555 1_555
O5_2 Cd1_2 1_555 1_555
O6_2 Cu3_2 1_555 1_555
O7_2 Cu3_2 1_555 1_555
O8_2 Cd4_2 1_555 1_555
O9_2 Cu2_2 1_555 1_555
O10_2 Cd4_2 1_555 1_555
O11_2 Cu5_2 1_555 1_555
O12_2 Cd3_2 1_555 1_555
O13_2 Cd2_2 1_555 1_555
O14_2 Cd3_2 1_555 1_555
O15_2 Cd4_2 1_555 1_555
O16_2 Cu2_2 1_555 1_555
O17_2 Cd1_2 1_555 1_555
O18_2 Cu6_2 1_555 1_555
O19_2 Cd2_2 1_555 1_555
O20_2 Cd3_2 1_555 1_555
O21_2 Cd2_2 1_555 1_555
O22_2 Cd1_2 1_555 1_555
O23_2 Cd1_2 1_555 1_555
O24_2 Cd4_2 1_555 1_555
H66_2 O24_2 1_555 1_555
H67_2 O24_2 1_555 1_555
O25_2 Cd3_2 1_555 1_555
O26_2 Cd3_2 1_555 1_555
O27_2 Cd2_2 1_555 1_555
O28_2 Cd2_2 1_555 1_555
O29_2 Cd4_2 1_555 1_555
O30_2 Cu1_2 1_555 1_555
H68_2 O30_2 1_555 1_555
H69_2 O30_2 1_555 1_555
Cd6_2 N1_2 1_555 1_555
N5_2 Cd2_2 1_555 1_555
N6_2 Cd3_2 1_555 1_555
N7_2 Cd1_2 1_555 1_555
Cu1_2 O5_2 1_555 1_555
Cu1_2 O8_2 1_555 1_555
Cu1_2 O10_2 1_555 1_555
Cu2_2 O12_2 1_555 1_555
Cu2_2 O19_2 1_555 1_555
Cu3_2 O5_2 1_555 1_555
Cu3_2 O13_2 1_555 1_555
Cu4_2 O10_2 1_555 1_555
Cu4_2 O13_2 1_555 1_555
Cu4_2 O15_2 1_555 1_555
Cu4_2 O19_2 1_555 1_555
Cu5_2 O4_2 1_555 1_555
Cu5_2 O9_2 1_555 1_555
Cu5_2 O14_2 1_555 1_555
Cu6_2 O12_2 1_555 1_555
Cu6_2 O14_2 1_555 1_555
Cu6_2 O15_2 1_555 1_555
C2_2 N1_2 1_555 1_555
C4_2 C11_2 1_555 1_555
C5_2 O6_2 1_555 1_555
C6_2 O10_2 1_555 1_555
C8_2 O13_2 1_555 1_555
C10_2 O8_2 1_555 1_555
C12_2 C13_2 1_555 1_555
C12_2 O4_2 1_555 1_555
C14_2 O9_2 1_555 1_555
C15_2 O15_2 1_555 1_555
C17_2 O19_2 1_555 1_555
C18_2 O12_2 1_555 1_555
C19_2 O5_2 1_555 1_555
C20_2 O14_2 1_555 1_555
C22_2 O11_2 1_555 1_555
C22_2 O20_2 1_555 1_555
C24_2 O7_2 1_555 1_555
C24_2 O17_2 1_555 1_555
C27_2 C28_2 1_555 1_555
C29_2 N2_2 1_555 1_555
C32_2 O22_2 1_555 1_555
C32_2 O23_2 1_555 1_555
C42_2 O25_2 1_555 1_555
C42_2 O26_2 1_555 1_555
C43_2 O16_2 1_555 1_555
C43_2 O21_2 1_555 1_555
C46_2 O27_2 1_555 1_555
C46_2 O28_2 1_555 1_555
C48_2 O18_2 1_555 1_555
C48_2 O29_2 1_555 1_555
Cd1_3 O2_3 1_555 1_555
Cd2_3 O6_3 1_555 1_555
Cd3_3 O9_3 1_555 1_555
Cd4_3 O3_3 1_555 1_555
Cu1_3 O2_3 1_555 1_555
Cu2_3 O6_3 1_555 1_555
Cu3_3 O4_3 1_555 1_555
Cu4_3 O1_3 1_555 1_555
Cu5_3 O2_3 1_555 1_555
Cu6_3 O8_3 1_555 1_555
C1_3 H1_3 1_555 1_555
C2_3 H2_3 1_555 1_555
C3_3 C2_3 1_555 1_555
H3_3 C3_3 1_555 1_555
C4_3 C3_3 1_555 1_555
C5_3 H4_3 1_555 1_555
H5_3 C5_3 1_555 1_555
C6_3 H6_3 1_555 1_555
H7_3 C6_3 1_555 1_555
C7_3 C6_3 1_555 1_555
C8_3 C7_3 1_555 1_555
H8_3 C8_3 1_555 1_555
H9_3 C8_3 1_555 1_555
C9_3 C4_3 1_555 1_555
C10_3 C9_3 1_555 1_555
H10_3 C10_3 1_555 1_555
H11_3 C10_3 1_555 1_555
C11_3 C1_3 1_555 1_555
H12_3 C11_3 1_555 1_555
C12_3 H13_3 1_555 1_555
H14_3 C12_3 1_555 1_555
C13_3 C5_3 1_555 1_555
C14_3 C13_3 1_555 1_555
H15_3 C14_3 1_555 1_555
H16_3 C14_3 1_555 1_555
C15_3 H17_3 1_555 1_555
H18_3 C15_3 1_555 1_555
C16_3 C15_3 1_555 1_555
C17_3 C16_3 1_555 1_555
H19_3 C17_3 1_555 1_555
H20_3 C17_3 1_555 1_555
C18_3 C16_3 1_555 1_555
H21_3 C18_3 1_555 1_555
H22_3 C18_3 1_555 1_555
C19_3 C7_3 1_555 1_555
H23_3 C19_3 1_555 1_555
H24_3 C19_3 1_555 1_555
C20_3 C9_3 1_555 1_555
H25_3 C20_3 1_555 1_555
H26_3 C20_3 1_555 1_555
C21_3 C7_3 1_555 1_555
C22_3 C35_3 1_555 1_555
C23_3 C16_3 1_555 1_555
C24_3 C30_3 1_555 1_555
C25_3 C13_3 1_555 1_555
C26_3 C25_3 1_555 1_555
H27_3 C26_3 1_555 1_555
C27_3 H28_3 1_555 1_555
C28_3 C25_3 1_555 1_555
H29_3 C28_3 1_555 1_555
C29_3 C26_3 1_555 1_555
H30_3 C29_3 1_555 1_555
C30_3 H31_3 1_555 1_555
H32_3 C30_3 1_555 1_555
H33_3 C30_3 1_555 1_555
C31_3 C21_3 1_555 1_555
H34_3 C31_3 1_555 1_555
C32_3 C34_3 1_555 1_555
C33_3 C21_3 1_555 1_555
H35_3 C33_3 1_555 1_555
C34_3 H36_3 1_555 1_555
H37_3 C34_3 1_555 1_555
H38_3 C34_3 1_555 1_555
C35_3 H39_3 1_555 1_555
H40_3 C35_3 1_555 1_555
H41_3 C35_3 1_555 1_555
C36_3 C33_3 1_555 1_555
H42_3 C36_3 1_555 1_555
C37_3 C31_3 1_555 1_555
H43_3 C37_3 1_555 1_555
C38_3 C23_3 1_555 1_555
H44_3 C38_3 1_555 1_555
C39_3 C23_3 1_555 1_555
H45_3 C39_3 1_555 1_555
C40_3 C39_3 1_555 1_555
H46_3 C40_3 1_555 1_555
C41_3 C38_3 1_555 1_555
H47_3 C41_3 1_555 1_555
C42_3 C44_3 1_555 1_555
C43_3 C45_3 1_555 1_555
C44_3 H48_3 1_555 1_555
H49_3 C44_3 1_555 1_555
H50_3 C44_3 1_555 1_555
C45_3 H51_3 1_555 1_555
H52_3 C45_3 1_555 1_555
H53_3 C45_3 1_555 1_555
C46_3 C47_3 1_555 1_555
C47_3 H54_3 1_555 1_555
H55_3 C47_3 1_555 1_555
H56_3 C47_3 1_555 1_555
C48_3 C50_3 1_555 1_555
C49_3 C9_3 1_555 1_555
H57_3 C49_3 1_555 1_555
H58_3 C49_3 1_555 1_555
C50_3 H59_3 1_555 1_555
H60_3 C50_3 1_555 1_555
H61_3 C50_3 1_555 1_555
N1_3 C1_3 1_555 1_555
N2_3 C27_3 1_555 1_555
N3_3 C36_3 1_555 1_555
N4_3 C40_3 1_555 1_555
O1_3 H62_3 1_555 1_555
H63_3 O1_3 1_555 1_555
O2_3 C49_3 1_555 1_555
O3_3 H64_3 1_555 1_555
H65_3 O3_3 1_555 1_555
O4_3 Cd1_3 1_555 1_555
O5_3 Cd1_3 1_555 1_555
O6_3 Cu3_3 1_555 1_555
O7_3 Cu3_3 1_555 1_555
O8_3 Cd4_3 1_555 1_555
O9_3 Cu2_3 1_555 1_555
O10_3 Cd4_3 1_555 1_555
O11_3 Cu5_3 1_555 1_555
O12_3 Cd3_3 1_555 1_555
O13_3 Cd2_3 1_555 1_555
O14_3 Cd3_3 1_555 1_555
O15_3 Cd4_3 1_555 1_555
O16_3 Cu2_3 1_555 1_555
O17_3 Cd1_3 1_555 1_555
O18_3 Cu6_3 1_555 1_555
O19_3 Cd2_3 1_555 1_555
O20_3 Cd3_3 1_555 1_555
O21_3 Cd2_3 1_555 1_555
O22_3 Cd1_3 1_555 1_555
O23_3 Cd1_3 1_555 1_555
O24_3 Cd4_3 1_555 1_555
H66_3 O24_3 1_555 1_555
H67_3 O24_3 1_555 1_555
O25_3 Cd3_3 1_555 1_555
O26_3 Cd3_3 1_555 1_555
O27_3 Cd2_3 1_555 1_555
O28_3 Cd2_3 1_555 1_555
O29_3 Cd4_3 1_555 1_555
O30_3 Cu1_3 1_555 1_555
H68_3 O30_3 1_555 1_555
H69_3 O30_3 1_555 1_555
Cd5_3 N4_3 1_555 1_555
Cd6_3 N1_3 1_555 1_555
Cd7_3 N3_3 1_555 1_555
N5_3 Cd2_3 1_555 1_555
N6_3 Cd3_3 1_555 1_555
N7_3 Cd1_3 1_555 1_555
Cu1_3 O5_3 1_555 1_555
Cu1_3 O8_3 1_555 1_555
Cu1_3 O10_3 1_555 1_555
Cu2_3 O12_3 1_555 1_555
Cu2_3 O19_3 1_555 1_555
Cu3_3 O5_3 1_555 1_555
Cu3_3 O13_3 1_555 1_555
Cu4_3 O10_3 1_555 1_555
Cu4_3 O13_3 1_555 1_555
Cu4_3 O15_3 1_555 1_555
Cu4_3 O19_3 1_555 1_555
Cu5_3 O4_3 1_555 1_555
Cu5_3 O9_3 1_555 1_555
Cu5_3 O14_3 1_555 1_555
Cu6_3 O12_3 1_555 1_555
Cu6_3 O14_3 1_555 1_555
Cu6_3 O15_3 1_555 1_555
C2_3 N1_3 1_555 1_555
C4_3 C11_3 1_555 1_555
C5_3 O6_3 1_555 1_555
C6_3 O10_3 1_555 1_555
C8_3 O13_3 1_555 1_555
C10_3 O8_3 1_555 1_555
C12_3 C13_3 1_555 1_555
C12_3 O4_3 1_555 1_555
C14_3 O9_3 1_555 1_555
C15_3 O15_3 1_555 1_555
C17_3 O19_3 1_555 1_555
C18_3 O12_3 1_555 1_555
C19_3 O5_3 1_555 1_555
C20_3 O14_3 1_555 1_555
C22_3 O11_3 1_555 1_555
C22_3 O20_3 1_555 1_555
C24_3 O7_3 1_555 1_555
C24_3 O17_3 1_555 1_555
C27_3 C28_3 1_555 1_555
C29_3 N2_3 1_555 1_555
C32_3 O22_3 1_555 1_555
C32_3 O23_3 1_555 1_555
C37_3 N3_3 1_555 1_555
C41_3 N4_3 1_555 1_555
C42_3 O25_3 1_555 1_555
C42_3 O26_3 1_555 1_555
C43_3 O16_3 1_555 1_555
C43_3 O21_3 1_555 1_555
C46_3 O27_3 1_555 1_555
C46_3 O28_3 1_555 1_555
C48_3 O18_3 1_555 1_555
C48_3 O29_3 1_555 1_555
C1_4 H1_4 1_555 1_555
C2_4 H2_4 1_555 1_555
C3_4 C2_4 1_555 1_555
C4_4 C3_4 1_555 1_555
C11_4 C1_4 1_555 1_555
H12_4 C11_4 1_555 1_555
C50_4 H59_4 1_555 1_555
H60_4 C50_4 1_555 1_555
H61_4 C50_4 1_555 1_555
N1_4 C1_4 1_555 1_555
Cd6_4 N1_4 1_555 1_555
C2_4 N1_4 1_555 1_555
C4_4 C11_4 1_555 1_555
Cd1_4 O2_4 1_555 1_555
Cd2_4 O6_4 1_555 1_555
Cd3_4 O9_4 1_555 1_555
Cd4_4 O3_4 1_555 1_555
Cu1_4 O2_4 1_555 1_555
Cu2_4 O6_4 1_555 1_555
Cu3_4 O4_4 1_555 1_555
Cu4_4 O1_4 1_555 1_555
Cu5_4 O2_4 1_555 1_555
Cu6_4 O8_4 1_555 1_555
C5_4 H4_4 1_555 1_555
H5_4 C5_4 1_555 1_555
C6_4 H6_4 1_555 1_555
H7_4 C6_4 1_555 1_555
C7_4 C6_4 1_555 1_555
C8_4 C7_4 1_555 1_555
H8_4 C8_4 1_555 1_555
H9_4 C8_4 1_555 1_555
C10_4 C9_4 1_555 1_555
H10_4 C10_4 1_555 1_555
H11_4 C10_4 1_555 1_555
C12_4 H13_4 1_555 1_555
H14_4 C12_4 1_555 1_555
C13_4 C5_4 1_555 1_555
C14_4 C13_4 1_555 1_555
H15_4 C14_4 1_555 1_555
H16_4 C14_4 1_555 1_555
C15_4 H17_4 1_555 1_555
H18_4 C15_4 1_555 1_555
C16_4 C15_4 1_555 1_555
C17_4 C16_4 1_555 1_555
H19_4 C17_4 1_555 1_555
H20_4 C17_4 1_555 1_555
C18_4 C16_4 1_555 1_555
H21_4 C18_4 1_555 1_555
H22_4 C18_4 1_555 1_555
C19_4 C7_4 1_555 1_555
H23_4 C19_4 1_555 1_555
H24_4 C19_4 1_555 1_555
C20_4 C9_4 1_555 1_555
H25_4 C20_4 1_555 1_555
H26_4 C20_4 1_555 1_555
C22_4 C35_4 1_555 1_555
C23_4 C16_4 1_555 1_555
C24_4 C30_4 1_555 1_555
C25_4 C13_4 1_555 1_555
C26_4 C25_4 1_555 1_555
H27_4 C26_4 1_555 1_555
C27_4 H28_4 1_555 1_555
C28_4 C25_4 1_555 1_555
H29_4 C28_4 1_555 1_555
C29_4 C26_4 1_555 1_555
H30_4 C29_4 1_555 1_555
C30_4 H31_4 1_555 1_555
H32_4 C30_4 1_555 1_555
H33_4 C30_4 1_555 1_555
C32_4 C34_4 1_555 1_555
H37_4 C34_4 1_555 1_555
H38_4 C34_4 1_555 1_555
C35_4 H39_4 1_555 1_555
H40_4 C35_4 1_555 1_555
H41_4 C35_4 1_555 1_555
C38_4 C23_4 1_555 1_555
H44_4 C38_4 1_555 1_555
C39_4 C23_4 1_555 1_555
H45_4 C39_4 1_555 1_555
C40_4 C39_4 1_555 1_555
H46_4 C40_4 1_555 1_555
C41_4 C38_4 1_555 1_555
H47_4 C41_4 1_555 1_555
C42_4 C44_4 1_555 1_555
C43_4 C45_4 1_555 1_555
H49_4 C44_4 1_555 1_555
C45_4 H51_4 1_555 1_555
H52_4 C45_4 1_555 1_555
H53_4 C45_4 1_555 1_555
C46_4 C47_4 1_555 1_555
C47_4 H54_4 1_555 1_555
H55_4 C47_4 1_555 1_555
H56_4 C47_4 1_555 1_555
C49_4 C9_4 1_555 1_555
H57_4 C49_4 1_555 1_555
H58_4 C49_4 1_555 1_555
N2_4 C27_4 1_555 1_555
N4_4 C40_4 1_555 1_555
O1_4 H62_4 1_555 1_555
H63_4 O1_4 1_555 1_555
O2_4 C49_4 1_555 1_555
O3_4 H64_4 1_555 1_555
H65_4 O3_4 1_555 1_555
O4_4 Cd1_4 1_555 1_555
O5_4 Cd1_4 1_555 1_555
O6_4 Cu3_4 1_555 1_555
O7_4 Cu3_4 1_555 1_555
O8_4 Cd4_4 1_555 1_555
O9_4 Cu2_4 1_555 1_555
O10_4 Cd4_4 1_555 1_555
O11_4 Cu5_4 1_555 1_555
O12_4 Cd3_4 1_555 1_555
O13_4 Cd2_4 1_555 1_555
O14_4 Cd3_4 1_555 1_555
O15_4 Cd4_4 1_555 1_555
O16_4 Cu2_4 1_555 1_555
O17_4 Cd1_4 1_555 1_555
O18_4 Cu6_4 1_555 1_555
O19_4 Cd2_4 1_555 1_555
O20_4 Cd3_4 1_555 1_555
O21_4 Cd2_4 1_555 1_555
O22_4 Cd1_4 1_555 1_555
O23_4 Cd1_4 1_555 1_555
O24_4 Cd4_4 1_555 1_555
H66_4 O24_4 1_555 1_555
H67_4 O24_4 1_555 1_555
O25_4 Cd3_4 1_555 1_555
O26_4 Cd3_4 1_555 1_555
O27_4 Cd2_4 1_555 1_555
O28_4 Cd2_4 1_555 1_555
O29_4 Cd4_4 1_555 1_555
O30_4 Cu1_4 1_555 1_555
H68_4 O30_4 1_555 1_555
H69_4 O30_4 1_555 1_555
Cd5_4 N4_4 1_555 1_555
N5_4 Cd2_4 1_555 1_555
N6_4 Cd3_4 1_555 1_555
N7_4 Cd1_4 1_555 1_555
Cu1_4 O5_4 1_555 1_555
Cu1_4 O8_4 1_555 1_555
Cu1_4 O10_4 1_555 1_555
Cu2_4 O12_4 1_555 1_555
Cu2_4 O19_4 1_555 1_555
Cu3_4 O5_4 1_555 1_555
Cu3_4 O13_4 1_555 1_555
Cu4_4 O10_4 1_555 1_555
Cu4_4 O13_4 1_555 1_555
Cu4_4 O15_4 1_555 1_555
Cu4_4 O19_4 1_555 1_555
Cu5_4 O4_4 1_555 1_555
Cu5_4 O9_4 1_555 1_555
Cu5_4 O14_4 1_555 1_555
Cu6_4 O12_4 1_555 1_555
Cu6_4 O14_4 1_555 1_555
Cu6_4 O15_4 1_555 1_555
C5_4 O6_4 1_555 1_555
C6_4 O10_4 1_555 1_555
C8_4 O13_4 1_555 1_555
C10_4 O8_4 1_555 1_555
C12_4 C13_4 1_555 1_555
C12_4 O4_4 1_555 1_555
C14_4 O9_4 1_555 1_555
C15_4 O15_4 1_555 1_555
C17_4 O19_4 1_555 1_555
C18_4 O12_4 1_555 1_555
C19_4 O5_4 1_555 1_555
C20_4 O14_4 1_555 1_555
C22_4 O11_4 1_555 1_555
C22_4 O20_4 1_555 1_555
C24_4 O7_4 1_555 1_555
C24_4 O17_4 1_555 1_555
C27_4 C28_4 1_555 1_555
C29_4 N2_4 1_555 1_555
C32_4 O22_4 1_555 1_555
C32_4 O23_4 1_555 1_555
C41_4 N4_4 1_555 1_555
C42_4 O25_4 1_555 1_555
C42_4 O26_4 1_555 1_555
C43_4 O16_4 1_555 1_555
C43_4 O21_4 1_555 1_555
C46_4 O27_4 1_555 1_555
C46_4 O28_4 1_555 1_555
C48_4 O18_4 1_555 1_555
C48_4 O29_4 1_555 1_555
C31_4 C21_4 1_555 1_555
H34_4 C31_4 1_555 1_555
C33_4 C21_4 1_555 1_555
H35_4 C33_4 1_555 1_555
C36_4 C33_4 1_555 1_555
H42_4 C36_4 1_555 1_555
C37_4 C31_4 1_555 1_555
H43_4 C37_4 1_555 1_555
N3_4 C36_4 1_555 1_555
Cd7_4 N3_4 1_555 1_555
C37_4 N3_4 1_555 1_555
H44_5 C38_5 1_555 1_555
H45_5 C39_5 1_555 1_555
C40_5 C39_5 1_555 1_555
H46_5 C40_5 1_555 1_555
C41_5 C38_5 1_555 1_555
H47_5 C41_5 1_555 1_555
N7_4 C40_5 1_555 1_555
C41_5 N7_4 1_555 1_555
C1_5 H1_5 1_555 1_555
C2_5 H2_5 1_555 1_555
C3_5 C2_5 1_555 1_555
C4_5 C3_5 1_555 1_555
C11_5 C1_5 1_555 1_555
H12_5 C11_5 1_555 1_555
C50_5 H59_5 1_555 1_555
H60_5 C50_5 1_555 1_555
H61_5 C50_5 1_555 1_555
N5_3 C1_5 1_555 1_555
C2_5 N5_3 1_555 1_555
C4_5 C11_5 1_555 1_555
Cd5_4 O2_5 1_555 1_555
Cd6_3 O6_5 1_555 1_555
Cd7_2 O9_5 1_555 1_555
Cd4_5 O3_5 1_555 1_555
Cu1_5 O2_5 1_555 1_555
Cu2_5 O6_5 1_555 1_555
Cu3_5 O4_5 1_555 1_555
Cu4_5 O1_5 1_555 1_555
Cu5_5 O2_5 1_555 1_555
Cu6_5 O8_5 1_555 1_555
C5_5 H4_5 1_555 1_555
H5_5 C5_5 1_555 1_555
C6_5 H6_5 1_555 1_555
H7_5 C6_5 1_555 1_555
C7_5 C6_5 1_555 1_555
C8_5 C7_5 1_555 1_555
H8_5 C8_5 1_555 1_555
H9_5 C8_5 1_555 1_555
C10_5 C9_5 1_555 1_555
H10_5 C10_5 1_555 1_555
H11_5 C10_5 1_555 1_555
C12_5 H13_5 1_555 1_555
H14_5 C12_5 1_555 1_555
C13_5 C5_5 1_555 1_555
C14_5 C13_5 1_555 1_555
H15_5 C14_5 1_555 1_555
H16_5 C14_5 1_555 1_555
C15_5 H17_5 1_555 1_555
H18_5 C15_5 1_555 1_555
C16_5 C15_5 1_555 1_555
C17_5 C16_5 1_555 1_555
H19_5 C17_5 1_555 1_555
H20_5 C17_5 1_555 1_555
C18_5 C16_5 1_555 1_555
H21_5 C18_5 1_555 1_555
H22_5 C18_5 1_555 1_555
C19_5 C7_5 1_555 1_555
H23_5 C19_5 1_555 1_555
H24_5 C19_5 1_555 1_555
C20_5 C9_5 1_555 1_555
H25_5 C20_5 1_555 1_555
H26_5 C20_5 1_555 1_555
C21_5 C7_5 1_555 1_555
C22_5 C35_5 1_555 1_555
C23_5 C16_5 1_555 1_555
C24_5 C30_5 1_555 1_555
C25_5 C13_5 1_555 1_555
C26_5 C25_5 1_555 1_555
H27_5 C26_5 1_555 1_555
C27_5 H28_5 1_555 1_555
C28_5 C25_5 1_555 1_555
H29_5 C28_5 1_555 1_555
C29_5 C26_5 1_555 1_555
H30_5 C29_5 1_555 1_555
C30_5 H31_5 1_555 1_555
H32_5 C30_5 1_555 1_555
H33_5 C30_5 1_555 1_555
C31_5 C21_5 1_555 1_555
H34_5 C31_5 1_555 1_555
C32_5 C34_5 1_555 1_555
C33_5 C21_5 1_555 1_555
H35_5 C33_5 1_555 1_555
C34_5 H36_5 1_555 1_555
H37_5 C34_5 1_555 1_555
H38_5 C34_5 1_555 1_555
C35_5 H39_5 1_555 1_555
H40_5 C35_5 1_555 1_555
H41_5 C35_5 1_555 1_555
C36_5 C33_5 1_555 1_555
H42_5 C36_5 1_555 1_555
C37_5 C31_5 1_555 1_555
H43_5 C37_5 1_555 1_555
C42_5 C44_5 1_555 1_555
C43_5 C45_5 1_555 1_555
H49_5 C44_5 1_555 1_555
C45_5 H51_5 1_555 1_555
H52_5 C45_5 1_555 1_555
H53_5 C45_5 1_555 1_555
C46_5 C47_5 1_555 1_555
H55_5 C47_5 1_555 1_555
H56_5 C47_5 1_555 1_555
C49_5 C9_5 1_555 1_555
H57_5 C49_5 1_555 1_555
H58_5 C49_5 1_555 1_555
N2_5 C27_5 1_555 1_555
N6_2 C36_5 1_555 1_555
O1_5 H62_5 1_555 1_555
H63_5 O1_5 1_555 1_555
O2_5 C49_5 1_555 1_555
O3_5 H64_5 1_555 1_555
H65_5 O3_5 1_555 1_555
O4_5 Cd5_4 1_555 1_555
O5_5 Cd5_4 1_555 1_555
O6_5 Cu3_5 1_555 1_555
O7_5 Cu3_5 1_555 1_555
O8_5 Cd4_5 1_555 1_555
O9_5 Cu2_5 1_555 1_555
O10_5 Cd4_5 1_555 1_555
O11_5 Cu5_5 1_555 1_555
O12_5 Cd7_2 1_555 1_555
O13_5 Cd6_3 1_555 1_555
O14_5 Cd7_2 1_555 1_555
O15_5 Cd4_5 1_555 1_555
O16_5 Cu2_5 1_555 1_555
O17_5 Cd5_4 1_555 1_555
O18_5 Cu6_5 1_555 1_555
O19_5 Cd6_3 1_555 1_555
O20_5 Cd7_2 1_555 1_555
O21_5 Cd6_3 1_555 1_555
O22_5 Cd5_4 1_555 1_555
O23_5 Cd5_4 1_555 1_555
O24_5 Cd4_5 1_555 1_555
H66_5 O24_5 1_555 1_555
H67_5 O24_5 1_555 1_555
O25_5 Cd7_2 1_555 1_555
O26_5 Cd7_2 1_555 1_555
O27_5 Cd6_3 1_555 1_555
O28_5 Cd6_3 1_555 1_555
O29_5 Cd4_5 1_555 1_555
O30_5 Cu1_5 1_555 1_555
H68_5 O30_5 1_555 1_555
H69_5 O30_5 1_555 1_555
Cu1_5 O5_5 1_555 1_555
Cu1_5 O8_5 1_555 1_555
Cu1_5 O10_5 1_555 1_555
Cu2_5 O12_5 1_555 1_555
Cu2_5 O19_5 1_555 1_555
Cu3_5 O5_5 1_555 1_555
Cu3_5 O13_5 1_555 1_555
Cu4_5 O10_5 1_555 1_555
Cu4_5 O13_5 1_555 1_555
Cu4_5 O15_5 1_555 1_555
Cu4_5 O19_5 1_555 1_555
Cu5_5 O4_5 1_555 1_555
Cu5_5 O9_5 1_555 1_555
Cu5_5 O14_5 1_555 1_555
Cu6_5 O12_5 1_555 1_555
Cu6_5 O14_5 1_555 1_555
Cu6_5 O15_5 1_555 1_555
C5_5 O6_5 1_555 1_555
C6_5 O10_5 1_555 1_555
C8_5 O13_5 1_555 1_555
C10_5 O8_5 1_555 1_555
C12_5 C13_5 1_555 1_555
C12_5 O4_5 1_555 1_555
C14_5 O9_5 1_555 1_555
C15_5 O15_5 1_555 1_555
C17_5 O19_5 1_555 1_555
C18_5 O12_5 1_555 1_555
C19_5 O5_5 1_555 1_555
C20_5 O14_5 1_555 1_555
C22_5 O11_5 1_555 1_555
C22_5 O20_5 1_555 1_555
C24_5 O7_5 1_555 1_555
C24_5 O17_5 1_555 1_555
C27_5 C28_5 1_555 1_555
C29_5 N2_5 1_555 1_555
C32_5 O22_5 1_555 1_555
C32_5 O23_5 1_555 1_555
C37_5 N6_2 1_555 1_555
C42_5 O25_5 1_555 1_555
C42_5 O26_5 1_555 1_555
C43_5 O16_5 1_555 1_555
C43_5 O21_5 1_555 1_555
C46_5 O27_5 1_555 1_555
C46_5 O28_5 1_555 1_555
C48_5 O18_5 1_555 1_555
C48_5 O29_5 1_555 1_555
Cd5_3 O2_6 1_555 1_555
Cd6_4 O6_6 1_555 1_555
Cd7 O9_6 1_555 1_555
Cd4_6 O3_6 1_555 1_555
Cu1_6 O2_6 1_555 1_555
Cu2_6 O6_6 1_555 1_555
Cu3_6 O4_6 1_555 1_555
Cu4_6 O1_6 1_555 1_555
Cu5_6 O2_6 1_555 1_555
Cu6_6 O8_6 1_555 1_555
C1_6 H1_6 1_555 1_555
C2_6 H2_6 1_555 1_555
C3_6 C2_6 1_555 1_555
H3_6 C3_6 1_555 1_555
C4_6 C3_6 1_555 1_555
C5_6 H4_6 1_555 1_555
H5_6 C5_6 1_555 1_555
C6_6 H6_6 1_555 1_555
H7_6 C6_6 1_555 1_555
C7_6 C6_6 1_555 1_555
C8_6 C7_6 1_555 1_555
H8_6 C8_6 1_555 1_555
H9_6 C8_6 1_555 1_555
C9_6 C4_6 1_555 1_555
C10_6 C9_6 1_555 1_555
H10_6 C10_6 1_555 1_555
H11_6 C10_6 1_555 1_555
C11_6 C1_6 1_555 1_555
H12_6 C11_6 1_555 1_555
C12_6 H13_6 1_555 1_555
H14_6 C12_6 1_555 1_555
C13_6 C5_6 1_555 1_555
C14_6 C13_6 1_555 1_555
H15_6 C14_6 1_555 1_555
H16_6 C14_6 1_555 1_555
C15_6 H17_6 1_555 1_555
H18_6 C15_6 1_555 1_555
C16_6 C15_6 1_555 1_555
C17_6 C16_6 1_555 1_555
H19_6 C17_6 1_555 1_555
H20_6 C17_6 1_555 1_555
C18_6 C16_6 1_555 1_555
H21_6 C18_6 1_555 1_555
H22_6 C18_6 1_555 1_555
C19_6 C7_6 1_555 1_555
H23_6 C19_6 1_555 1_555
H24_6 C19_6 1_555 1_555
C20_6 C9_6 1_555 1_555
H25_6 C20_6 1_555 1_555
H26_6 C20_6 1_555 1_555
C22_6 C35_6 1_555 1_555
C23_6 C16_6 1_555 1_555
C24_6 C30_6 1_555 1_555
C25_6 C13_6 1_555 1_555
C26_6 C25_6 1_555 1_555
H27_6 C26_6 1_555 1_555
C27_6 H28_6 1_555 1_555
C28_6 C25_6 1_555 1_555
H29_6 C28_6 1_555 1_555
C29_6 C26_6 1_555 1_555
H30_6 C29_6 1_555 1_555
C30_6 H31_6 1_555 1_555
H32_6 C30_6 1_555 1_555
H33_6 C30_6 1_555 1_555
C32_6 C34_6 1_555 1_555
H37_6 C34_6 1_555 1_555
H38_6 C34_6 1_555 1_555
C35_6 H39_6 1_555 1_555
H40_6 C35_6 1_555 1_555
H41_6 C35_6 1_555 1_555
C42_6 C44_6 1_555 1_555
C43_6 C45_6 1_555 1_555
C44_6 H48_6 1_555 1_555
H49_6 C44_6 1_555 1_555
H50_6 C44_6 1_555 1_555
C45_6 H51_6 1_555 1_555
H52_6 C45_6 1_555 1_555
H53_6 C45_6 1_555 1_555
C46_6 C47_6 1_555 1_555
H55_6 C47_6 1_555 1_555
H56_6 C47_6 1_555 1_555
C48_6 C50_6 1_555 1_555
C49_6 C9_6 1_555 1_555
H57_6 C49_6 1_555 1_555
H58_6 C49_6 1_555 1_555
C50_6 H59_6 1_555 1_555
H60_6 C50_6 1_555 1_555
H61_6 C50_6 1_555 1_555
N5_4 C1_6 1_555 1_555
N2_6 C27_6 1_555 1_555
O1_6 H62_6 1_555 1_555
H63_6 O1_6 1_555 1_555
O2_6 C49_6 1_555 1_555
O3_6 H64_6 1_555 1_555
H65_6 O3_6 1_555 1_555
O4_6 Cd5_3 1_555 1_555
O5_6 Cd5_3 1_555 1_555
O6_6 Cu3_6 1_555 1_555
O7_6 Cu3_6 1_555 1_555
O8_6 Cd4_6 1_555 1_555
O9_6 Cu2_6 1_555 1_555
O10_6 Cd4_6 1_555 1_555
O11_6 Cu5_6 1_555 1_555
O12_6 Cd7 1_555 1_555
O13_6 Cd6_4 1_555 1_555
O14_6 Cd7 1_555 1_555
O15_6 Cd4_6 1_555 1_555
O16_6 Cu2_6 1_555 1_555
O17_6 Cd5_3 1_555 1_555
O18_6 Cu6_6 1_555 1_555
O19_6 Cd6_4 1_555 1_555
O20_6 Cd7 1_555 1_555
O21_6 Cd6_4 1_555 1_555
O22_6 Cd5_3 1_555 1_555
O23_6 Cd5_3 1_555 1_555
O24_6 Cd4_6 1_555 1_555
H66_6 O24_6 1_555 1_555
H67_6 O24_6 1_555 1_555
O25_6 Cd7 1_555 1_555
O26_6 Cd7 1_555 1_555
O27_6 Cd6_4 1_555 1_555
O28_6 Cd6_4 1_555 1_555
O29_6 Cd4_6 1_555 1_555
O30_6 Cu1_6 1_555 1_555
H68_6 O30_6 1_555 1_555
H69_6 O30_6 1_555 1_555
Cu1_6 O5_6 1_555 1_555
Cu1_6 O8_6 1_555 1_555
Cu1_6 O10_6 1_555 1_555
Cu2_6 O12_6 1_555 1_555
Cu2_6 O19_6 1_555 1_555
Cu3_6 O5_6 1_555 1_555
Cu3_6 O13_6 1_555 1_555
Cu4_6 O10_6 1_555 1_555
Cu4_6 O13_6 1_555 1_555
Cu4_6 O15_6 1_555 1_555
Cu4_6 O19_6 1_555 1_555
Cu5_6 O4_6 1_555 1_555
Cu5_6 O9_6 1_555 1_555
Cu5_6 O14_6 1_555 1_555
Cu6_6 O12_6 1_555 1_555
Cu6_6 O14_6 1_555 1_555
Cu6_6 O15_6 1_555 1_555
C2_6 N5_4 1_555 1_555
C4_6 C11_6 1_555 1_555
C5_6 O6_6 1_555 1_555
C6_6 O10_6 1_555 1_555
C8_6 O13_6 1_555 1_555
C10_6 O8_6 1_555 1_555
C12_6 C13_6 1_555 1_555
C12_6 O4_6 1_555 1_555
C14_6 O9_6 1_555 1_555
C15_6 O15_6 1_555 1_555
C17_6 O19_6 1_555 1_555
C18_6 O12_6 1_555 1_555
C19_6 O5_6 1_555 1_555
C20_6 O14_6 1_555 1_555
C22_6 O11_6 1_555 1_555
C22_6 O20_6 1_555 1_555
C24_6 O7_6 1_555 1_555
C24_6 O17_6 1_555 1_555
C27_6 C28_6 1_555 1_555
C29_6 N2_6 1_555 1_555
C32_6 O22_6 1_555 1_555
C32_6 O23_6 1_555 1_555
C42_6 O25_6 1_555 1_555
C42_6 O26_6 1_555 1_555
C43_6 O16_6 1_555 1_555
C43_6 O21_6 1_555 1_555
C46_6 O27_6 1_555 1_555
C46_6 O28_6 1_555 1_555
C48_6 O18_6 1_555 1_555
C48_6 O29_6 1_555 1_555
H44_6 C38_6 1_555 1_555
H45_6 C39_6 1_555 1_555
C40_6 C39_6 1_555 1_555
H46_6 C40_6 1_555 1_555
C41_6 C38_6 1_555 1_555
H47_6 C41_6 1_555 1_555
N7_3 C40_6 1_555 1_555
C41_6 N7_3 1_555 1_555
C31_6 C21_6 1_555 1_555
H34_6 C31_6 1_555 1_555
C33_6 C21_6 1_555 1_555
H35_6 C33_6 1_555 1_555
C36_6 C33_6 1_555 1_555
H42_6 C36_6 1_555 1_555
C37_6 C31_6 1_555 1_555
H43_6 C37_6 1_555 1_555
N6 C36_6 1_555 1_555
C37_6 N6 1_555 1_555
Cd5_2 O2_7 1_555 1_555
Cd6 O6_7 1_555 1_555
Cd7_4 O9_7 1_555 1_555
Cd4_7 O3_7 1_555 1_555
Cu1_7 O2_7 1_555 1_555
Cu2_7 O6_7 1_555 1_555
Cu3_7 O4_7 1_555 1_555
Cu4_7 O1_7 1_555 1_555
Cu5_7 O2_7 1_555 1_555
Cu6_7 O8_7 1_555 1_555
C1_7 H1_7 1_555 1_555
C2_7 H2_7 1_555 1_555
C3_7 C2_7 1_555 1_555
H3_7 C3_7 1_555 1_555
C4_7 C3_7 1_555 1_555
C5_7 H4_7 1_555 1_555
H5_7 C5_7 1_555 1_555
C6_7 H6_7 1_555 1_555
H7_7 C6_7 1_555 1_555
C7_7 C6_7 1_555 1_555
C8_7 C7_7 1_555 1_555
H8_7 C8_7 1_555 1_555
H9_7 C8_7 1_555 1_555
C9_7 C4_7 1_555 1_555
C10_7 C9_7 1_555 1_555
H10_7 C10_7 1_555 1_555
H11_7 C10_7 1_555 1_555
C11_7 C1_7 1_555 1_555
H12_7 C11_7 1_555 1_555
C12_7 H13_7 1_555 1_555
H14_7 C12_7 1_555 1_555
C13_7 C5_7 1_555 1_555
C14_7 C13_7 1_555 1_555
H15_7 C14_7 1_555 1_555
H16_7 C14_7 1_555 1_555
C15_7 H17_7 1_555 1_555
H18_7 C15_7 1_555 1_555
C16_7 C15_7 1_555 1_555
C17_7 C16_7 1_555 1_555
H19_7 C17_7 1_555 1_555
H20_7 C17_7 1_555 1_555
C18_7 C16_7 1_555 1_555
H21_7 C18_7 1_555 1_555
H22_7 C18_7 1_555 1_555
C19_7 C7_7 1_555 1_555
H23_7 C19_7 1_555 1_555
H24_7 C19_7 1_555 1_555
C20_7 C9_7 1_555 1_555
H25_7 C20_7 1_555 1_555
H26_7 C20_7 1_555 1_555
C21_7 C7_7 1_555 1_555
C22_7 C35_7 1_555 1_555
C23_7 C16_7 1_555 1_555
C24_7 C30_7 1_555 1_555
C25_7 C13_7 1_555 1_555
C26_7 C25_7 1_555 1_555
H27_7 C26_7 1_555 1_555
C27_7 H28_7 1_555 1_555
C28_7 C25_7 1_555 1_555
H29_7 C28_7 1_555 1_555
C29_7 C26_7 1_555 1_555
H30_7 C29_7 1_555 1_555
C30_7 H31_7 1_555 1_555
H32_7 C30_7 1_555 1_555
H33_7 C30_7 1_555 1_555
C31_7 C21_7 1_555 1_555
H34_7 C31_7 1_555 1_555
C32_7 C34_7 1_555 1_555
C33_7 C21_7 1_555 1_555
H35_7 C33_7 1_555 1_555
C34_7 H36_7 1_555 1_555
H37_7 C34_7 1_555 1_555
H38_7 C34_7 1_555 1_555
C35_7 H39_7 1_555 1_555
H40_7 C35_7 1_555 1_555
H41_7 C35_7 1_555 1_555
C36_7 C33_7 1_555 1_555
H42_7 C36_7 1_555 1_555
C37_7 C31_7 1_555 1_555
H43_7 C37_7 1_555 1_555
C38_7 C23_7 1_555 1_555
H44_7 C38_7 1_555 1_555
C39_7 C23_7 1_555 1_555
H45_7 C39_7 1_555 1_555
C40_7 C39_7 1_555 1_555
H46_7 C40_7 1_555 1_555
C41_7 C38_7 1_555 1_555
H47_7 C41_7 1_555 1_555
C42_7 C44_7 1_555 1_555
C43_7 C45_7 1_555 1_555
C44_7 H48_7 1_555 1_555
H49_7 C44_7 1_555 1_555
H50_7 C44_7 1_555 1_555
C45_7 H51_7 1_555 1_555
H52_7 C45_7 1_555 1_555
H53_7 C45_7 1_555 1_555
C46_7 C47_7 1_555 1_555
C47_7 H54_7 1_555 1_555
H55_7 C47_7 1_555 1_555
H56_7 C47_7 1_555 1_555
C48_7 C50_7 1_555 1_555
C49_7 C9_7 1_555 1_555
H57_7 C49_7 1_555 1_555
H58_7 C49_7 1_555 1_555
C50_7 H59_7 1_555 1_555
H60_7 C50_7 1_555 1_555
H61_7 C50_7 1_555 1_555
N5 C1_7 1_555 1_555
N2_7 C27_7 1_555 1_555
N6_4 C36_7 1_555 1_555
N7_2 C40_7 1_555 1_555
O1_7 H62_7 1_555 1_555
H63_7 O1_7 1_555 1_555
O2_7 C49_7 1_555 1_555
O3_7 H64_7 1_555 1_555
H65_7 O3_7 1_555 1_555
O4_7 Cd5_2 1_555 1_555
O5_7 Cd5_2 1_555 1_555
O6_7 Cu3_7 1_555 1_555
O7_7 Cu3_7 1_555 1_555
O8_7 Cd4_7 1_555 1_555
O9_7 Cu2_7 1_555 1_555
O10_7 Cd4_7 1_555 1_555
O11_7 Cu5_7 1_555 1_555
O12_7 Cd7_4 1_555 1_555
O13_7 Cd6 1_555 1_555
O14_7 Cd7_4 1_555 1_555
O15_7 Cd4_7 1_555 1_555
O16_7 Cu2_7 1_555 1_555
O17_7 Cd5_2 1_555 1_555
O18_7 Cu6_7 1_555 1_555
O19_7 Cd6 1_555 1_555
O20_7 Cd7_4 1_555 1_555
O21_7 Cd6 1_555 1_555
O22_7 Cd5_2 1_555 1_555
O23_7 Cd5_2 1_555 1_555
O24_7 Cd4_7 1_555 1_555
H66_7 O24_7 1_555 1_555
H67_7 O24_7 1_555 1_555
O25_7 Cd7_4 1_555 1_555
O26_7 Cd7_4 1_555 1_555
O27_7 Cd6 1_555 1_555
O28_7 Cd6 1_555 1_555
O29_7 Cd4_7 1_555 1_555
O30_7 Cu1_7 1_555 1_555
H68_7 O30_7 1_555 1_555
H69_7 O30_7 1_555 1_555
Cu1_7 O5_7 1_555 1_555
Cu1_7 O8_7 1_555 1_555
Cu1_7 O10_7 1_555 1_555
Cu2_7 O12_7 1_555 1_555
Cu2_7 O19_7 1_555 1_555
Cu3_7 O5_7 1_555 1_555
Cu3_7 O13_7 1_555 1_555
Cu4_7 O10_7 1_555 1_555
Cu4_7 O13_7 1_555 1_555
Cu4_7 O15_7 1_555 1_555
Cu4_7 O19_7 1_555 1_555
Cu5_7 O4_7 1_555 1_555
Cu5_7 O9_7 1_555 1_555
Cu5_7 O14_7 1_555 1_555
Cu6_7 O12_7 1_555 1_555
Cu6_7 O14_7 1_555 1_555
Cu6_7 O15_7 1_555 1_555
C2_7 N5 1_555 1_555
C4_7 C11_7 1_555 1_555
C5_7 O6_7 1_555 1_555
C6_7 O10_7 1_555 1_555
C8_7 O13_7 1_555 1_555
C10_7 O8_7 1_555 1_555
C12_7 C13_7 1_555 1_555
C12_7 O4_7 1_555 1_555
C14_7 O9_7 1_555 1_555
C15_7 O15_7 1_555 1_555
C17_7 O19_7 1_555 1_555
C18_7 O12_7 1_555 1_555
C19_7 O5_7 1_555 1_555
C20_7 O14_7 1_555 1_555
C22_7 O11_7 1_555 1_555
C22_7 O20_7 1_555 1_555
C24_7 O7_7 1_555 1_555
C24_7 O17_7 1_555 1_555
C27_7 C28_7 1_555 1_555
C29_7 N2_7 1_555 1_555
C32_7 O22_7 1_555 1_555
C32_7 O23_7 1_555 1_555
C37_7 N6_4 1_555 1_555
C41_7 N7_2 1_555 1_555
C42_7 O25_7 1_555 1_555
C42_7 O26_7 1_555 1_555
C43_7 O16_7 1_555 1_555
C43_7 O21_7 1_555 1_555
C46_7 O27_7 1_555 1_555
C46_7 O28_7 1_555 1_555
C48_7 O18_7 1_555 1_555
C48_7 O29_7 1_555 1_555
C31_8 C21_8 1_555 1_555
H34_8 C31_8 1_555 1_555
C33_8 C21_8 1_555 1_555
H35_8 C33_8 1_555 1_555
C36_8 C33_8 1_555 1_555
H42_8 C36_8 1_555 1_555
C37_8 C31_8 1_555 1_555
H43_8 C37_8 1_555 1_555
N6_3 C36_8 1_555 1_555
C37_8 N6_3 1_555 1_555
Cd5 O2_8 1_555 1_555
Cd6_2 O6_8 1_555 1_555
Cd7_3 O9_8 1_555 1_555
Cd4_8 O3_8 1_555 1_555
Cu1_8 O2_8 1_555 1_555
Cu2_8 O6_8 1_555 1_555
Cu3_8 O4_8 1_555 1_555
Cu4_8 O1_8 1_555 1_555
Cu5_8 O2_8 1_555 1_555
Cu6_8 O8_8 1_555 1_555
C5_8 H4_8 1_555 1_555
H5_8 C5_8 1_555 1_555
C6_8 H6_8 1_555 1_555
H7_8 C6_8 1_555 1_555
C7_8 C6_8 1_555 1_555
C8_8 C7_8 1_555 1_555
H8_8 C8_8 1_555 1_555
H9_8 C8_8 1_555 1_555
C10_8 C9_8 1_555 1_555
H10_8 C10_8 1_555 1_555
H11_8 C10_8 1_555 1_555
C12_8 H13_8 1_555 1_555
H14_8 C12_8 1_555 1_555
C13_8 C5_8 1_555 1_555
C14_8 C13_8 1_555 1_555
H15_8 C14_8 1_555 1_555
H16_8 C14_8 1_555 1_555
C15_8 H17_8 1_555 1_555
H18_8 C15_8 1_555 1_555
C16_8 C15_8 1_555 1_555
C17_8 C16_8 1_555 1_555
H19_8 C17_8 1_555 1_555
H20_8 C17_8 1_555 1_555
C18_8 C16_8 1_555 1_555
H21_8 C18_8 1_555 1_555
H22_8 C18_8 1_555 1_555
C19_8 C7_8 1_555 1_555
H23_8 C19_8 1_555 1_555
H24_8 C19_8 1_555 1_555
C20_8 C9_8 1_555 1_555
H25_8 C20_8 1_555 1_555
H26_8 C20_8 1_555 1_555
C22_8 C35_8 1_555 1_555
C23_8 C16_8 1_555 1_555
C24_8 C30_8 1_555 1_555
C25_8 C13_8 1_555 1_555
C26_8 C25_8 1_555 1_555
H27_8 C26_8 1_555 1_555
C27_8 H28_8 1_555 1_555
C28_8 C25_8 1_555 1_555
H29_8 C28_8 1_555 1_555
C29_8 C26_8 1_555 1_555
H30_8 C29_8 1_555 1_555
C30_8 H31_8 1_555 1_555
H32_8 C30_8 1_555 1_555
H33_8 C30_8 1_555 1_555
C32_8 C34_8 1_555 1_555
H37_8 C34_8 1_555 1_555
H38_8 C34_8 1_555 1_555
C35_8 H39_8 1_555 1_555
H40_8 C35_8 1_555 1_555
H41_8 C35_8 1_555 1_555
C38_8 C23_8 1_555 1_555
H44_8 C38_8 1_555 1_555
C39_8 C23_8 1_555 1_555
H45_8 C39_8 1_555 1_555
C40_8 C39_8 1_555 1_555
H46_8 C40_8 1_555 1_555
C41_8 C38_8 1_555 1_555
H47_8 C41_8 1_555 1_555
C42_8 C44_8 1_555 1_555
C43_8 C45_8 1_555 1_555
H49_8 C44_8 1_555 1_555
C45_8 H51_8 1_555 1_555
H52_8 C45_8 1_555 1_555
H53_8 C45_8 1_555 1_555
C46_8 C47_8 1_555 1_555
C47_8 H54_8 1_555 1_555
H55_8 C47_8 1_555 1_555
H56_8 C47_8 1_555 1_555
C49_8 C9_8 1_555 1_555
H57_8 C49_8 1_555 1_555
H58_8 C49_8 1_555 1_555
N2_8 C27_8 1_555 1_555
N7 C40_8 1_555 1_555
O1_8 H62_8 1_555 1_555
H63_8 O1_8 1_555 1_555
O2_8 C49_8 1_555 1_555
O3_8 H64_8 1_555 1_555
H65_8 O3_8 1_555 1_555
O4_8 Cd5 1_555 1_555
O5_8 Cd5 1_555 1_555
O6_8 Cu3_8 1_555 1_555
O7_8 Cu3_8 1_555 1_555
O8_8 Cd4_8 1_555 1_555
O9_8 Cu2_8 1_555 1_555
O10_8 Cd4_8 1_555 1_555
O11_8 Cu5_8 1_555 1_555
O12_8 Cd7_3 1_555 1_555
O13_8 Cd6_2 1_555 1_555
O14_8 Cd7_3 1_555 1_555
O15_8 Cd4_8 1_555 1_555
O16_8 Cu2_8 1_555 1_555
O17_8 Cd5 1_555 1_555
O18_8 Cu6_8 1_555 1_555
O19_8 Cd6_2 1_555 1_555
O20_8 Cd7_3 1_555 1_555
O21_8 Cd6_2 1_555 1_555
O22_8 Cd5 1_555 1_555
O23_8 Cd5 1_555 1_555
O24_8 Cd4_8 1_555 1_555
H66_8 O24_8 1_555 1_555
H67_8 O24_8 1_555 1_555
O25_8 Cd7_3 1_555 1_555
O26_8 Cd7_3 1_555 1_555
O27_8 Cd6_2 1_555 1_555
O28_8 Cd6_2 1_555 1_555
O29_8 Cd4_8 1_555 1_555
O30_8 Cu1_8 1_555 1_555
H68_8 O30_8 1_555 1_555
H69_8 O30_8 1_555 1_555
Cu1_8 O5_8 1_555 1_555
Cu1_8 O8_8 1_555 1_555
Cu1_8 O10_8 1_555 1_555
Cu2_8 O12_8 1_555 1_555
Cu2_8 O19_8 1_555 1_555
Cu3_8 O5_8 1_555 1_555
Cu3_8 O13_8 1_555 1_555
Cu4_8 O10_8 1_555 1_555
Cu4_8 O13_8 1_555 1_555
Cu4_8 O15_8 1_555 1_555
Cu4_8 O19_8 1_555 1_555
Cu5_8 O4_8 1_555 1_555
Cu5_8 O9_8 1_555 1_555
Cu5_8 O14_8 1_555 1_555
Cu6_8 O12_8 1_555 1_555
Cu6_8 O14_8 1_555 1_555
Cu6_8 O15_8 1_555 1_555
C5_8 O6_8 1_555 1_555
C6_8 O10_8 1_555 1_555
C8_8 O13_8 1_555 1_555
C10_8 O8_8 1_555 1_555
C12_8 C13_8 1_555 1_555
C12_8 O4_8 1_555 1_555
C14_8 O9_8 1_555 1_555
C15_8 O15_8 1_555 1_555
C17_8 O19_8 1_555 1_555
C18_8 O12_8 1_555 1_555
C19_8 O5_8 1_555 1_555
C20_8 O14_8 1_555 1_555
C22_8 O11_8 1_555 1_555
C22_8 O20_8 1_555 1_555
C24_8 O7_8 1_555 1_555
C24_8 O17_8 1_555 1_555
C27_8 C28_8 1_555 1_555
C29_8 N2_8 1_555 1_555
C32_8 O22_8 1_555 1_555
C32_8 O23_8 1_555 1_555
C41_8 N7 1_555 1_555
C42_8 O25_8 1_555 1_555
C42_8 O26_8 1_555 1_555
C43_8 O16_8 1_555 1_555
C43_8 O21_8 1_555 1_555
C46_8 O27_8 1_555 1_555
C46_8 O28_8 1_555 1_555
C48_8 O18_8 1_555 1_555
C48_8 O29_8 1_555 1_555
C1_8 H1_8 1_555 1_555
C2_8 H2_8 1_555 1_555
C3_8 C2_8 1_555 1_555
C4_8 C3_8 1_555 1_555
C11_8 C1_8 1_555 1_555
H12_8 C11_8 1_555 1_555
C50_8 H59_8 1_555 1_555
H60_8 C50_8 1_555 1_555
H61_8 C50_8 1_555 1_555
N5_2 C1_8 1_555 1_555
C2_8 N5_2 1_555 1_555
C4_8 C11_8 1_555 1_555

#END
