
###############################################################################
#
# This file contains modified crystal structure data generated from the
# MOF subset of the Cambridge Structural Database (CSD) v543 
# hosted by the Cambridge Crystallographic Data Centre (CCDC).
#
# This work is licensed under the Creative Commons
# Attribution-NonCommercial-ShareAlike 4.0 International License.
# To view a copy of this license, visit
# http://creativecommons.org/licenses/by-nc-sa/4.0/
# or send a letter to
# Creative Commons, PO Box 1866, Mountain View, CA 94042, USA.
#
# CIF created using the CSD Python API on 29 September 2022
# The structure has been converted into the P1 space group
# The structure has a 3D framework
# The original CSD entry WOMCUY is in the tetragonal crystal system
# The framework has been calculated to contain at least 10.0% void space
# The void calculation uses a probe of radius 1.32A, grid spacing 0.4
#
###############################################################################

data_WOMCUY
_chemical_formula_moiety         '(C256 H144 Cd16 Cl16 N48 O64)n'
_symmetry_cell_setting           triclinic
_symmetry_space_group_name_H-M   'P 1'
_symmetry_Int_Tables_number      1
_space_group_name_Hall           'P 1'
loop_
_symmetry_equiv_pos_site_id
_symmetry_equiv_pos_as_xyz
1 x,y,z
_cell_length_a                   22.0734(10)
_cell_length_b                   22.0734(10)
_cell_length_c                   16.1233(14)
_cell_angle_alpha                90
_cell_angle_beta                 90
_cell_angle_gamma                90
_cell_volume                     7855.84
loop_
_atom_site_label
_atom_site_type_symbol
_atom_site_fract_x
_atom_site_fract_y
_atom_site_fract_z
Cd1 Cd 0.421191(16) 0.011965(16) 0.05059(2)
N2 N 0.4423(2) 0.1012(2) 0.1213(3)
C1 C 0.4873(3) 0.2190(2) 0.1436(4)
C3 C 0.2098(4) 0.0267(4) 0.1082(5)
C4 C 0.4276(3) 0.2088(3) 0.1183(5)
H2 H 0.4017 0.2413 0.1086
C5 C 0.2352(3) 0.1385(3) 0.0355(5)
H3 H 0.2432 0.1757 0.0107
C7 C 0.4982(3) 0.1111(3) 0.1511(4)
H4 H 0.5223 0.0778 0.1642
C8 C 0.5218(3) 0.1688(3) 0.1631(4)
H5 H 0.5607 0.1735 0.1842
C9 C 0.1928(4) 0.1346(4) 0.0991(6)
H6 H 0.1723 0.1689 0.1173
C10 C 0.2655(3) 0.0872(3) 0.0092(4)
C11 C 0.1817(4) 0.0789(5) 0.1347(6)
C12 C 0.4074(3) 0.1502(3) 0.1080(5)
H7 H 0.3676 0.1442 0.0910
C13 C 0.2524(3) 0.0312(3) 0.0457(4)
Cl1 Cl 0.13194(19) 0.07352(18) 0.2190(3)
N4 N 0.5577(2) 0.3988(2) 0.1213(3)
C17 C 0.5127(3) 0.2810(2) 0.1436(4)
C18 C 0.5724(3) 0.2912(3) 0.1183(5)
H10 H 0.5983 0.2587 0.1086
C19 C 0.5018(3) 0.3889(3) 0.1511(4)
H11 H 0.4777 0.4222 0.1642
C20 C 0.4782(3) 0.3312(3) 0.1631(4)
H12 H 0.4393 0.3265 0.1842
C21 C 0.5926(3) 0.3498(3) 0.1080(5)
H13 H 0.6324 0.3558 0.0910
Cd2 Cd 0.578809(16) 0.488035(16) 0.05059(2)
C23 C 0.7902(4) 0.4733(4) 0.1082(5)
H14 H 0.7997 0.5106 0.1318
C24 C 0.7648(3) 0.3615(3) 0.0355(5)
H15 H 0.7568 0.3243 0.0107
C26 C 0.8072(4) 0.3654(4) 0.0991(6)
H16 H 0.8277 0.3311 0.1173
C27 C 0.7345(3) 0.4128(3) 0.0092(4)
C28 C 0.8183(4) 0.4211(5) 0.1347(6)
C29 C 0.7476(3) 0.4688(3) 0.0457(4)
H17 H 0.7274 0.5034 0.0277
Cl2 Cl 0.86806(19) 0.42648(18) 0.2190(3)
N7 N 0.6349(2) 0.5557(2) 0.1191(3)
O12 O 0.48523(17) 0.52976(18) 0.0686(3)
N1 N 0.3672(2) 0.0632(2) 0.9533(3)
C2 C 0.3126(2) 0.0894(2) 0.9440(3)
C6 C 0.3965(2) 0.0718(2) 0.8799(3)
O1 O 0.4128(2) 0.1047(2) 0.7000(3)
H9 H 0.4350 0.0856 0.7311
O2 O 0.48284(19) 0.0525(2) 0.7976(3)
N3 N 0.3057(2) 0.1151(2) 0.8691(3)
C14 C 0.3582(2) 0.1034(2) 0.8273(3)
C15 C 0.3638(3) 0.1206(3) 0.7398(4)
C16 C 0.4594(2) 0.0503(2) 0.8681(3)
O3 O 0.32236(19) 0.1482(2) 0.7055(3)
O4 O 0.48523(17) 0.02976(18) 0.9314(3)
N5 N 0.6328(2) 0.4368(2) 0.9533(3)
C22 C 0.6874(2) 0.4106(2) 0.9440(3)
C25 C 0.6035(2) 0.4282(2) 0.8799(3)
O5 O 0.5872(2) 0.3953(2) 0.7000(3)
H18 H 0.5650 0.4144 0.7311
O6 O 0.51716(19) 0.4475(2) 0.7976(3)
N6 N 0.6943(2) 0.3849(2) 0.8691(3)
C30 C 0.6418(2) 0.3966(2) 0.8273(3)
C31 C 0.6362(3) 0.3794(3) 0.7398(4)
C32 C 0.5406(2) 0.4497(2) 0.8681(3)
O7 O 0.67764(19) 0.3518(2) 0.7055(3)
O8 O 0.51477(17) 0.47024(18) 0.9314(3)
Cd3 Cd 0.761965(16) 0.328809(16) 0.80059(2)
Cd4 Cd 0.238035(16) 0.171191(16) 0.80059(2)
Cd6 Cd 0.421191(16) 0.511965(16) 0.94941(2)
O9 O 0.6018(2) 0.57236(19) 0.9555(3)
H1 H 0.2003 0.9894 0.1318
H8 H 0.2726 0.9966 0.0277
N8 N 0.3651(2) 0.9443(2) 0.1191(3)
O11 O 0.51477(17) 0.97024(18) 0.0686(3)
Cd5 Cd 0.578809(16) 0.988035(16) 0.94941(2)
O10 O 0.3982(2) 0.92764(19) 0.9555(3)
H1_2 H 0.2997 0.0106 0.6318
H8_2 H 0.2274 0.0034 0.5277
N8_2 N 0.1349(2) 0.0557(2) 0.6191(3)
O10_2 O 0.1018(2) 0.07236(19) 0.4555(3)
Cd1_2 Cd 0.078809(16) 0.988035(16) 0.55059(2)
N1_2 N 0.1328(2) 0.9368(2) 0.4533(3)
N2_2 N 0.0577(2) 0.8988(2) 0.6213(3)
C1_2 C 0.0127(3) 0.7810(2) 0.6436(4)
C2_2 C 0.1874(2) 0.9106(2) 0.4440(3)
C3_2 C 0.2902(4) 0.9733(4) 0.6082(5)
C4_2 C 0.0724(3) 0.7912(3) 0.6183(5)
H2_2 H 0.0983 0.7587 0.6086
C5_2 C 0.2648(3) 0.8615(3) 0.5355(5)
H3_2 H 0.2568 0.8243 0.5107
C6_2 C 0.1035(2) 0.9282(2) 0.3799(3)
C7_2 C 0.0018(3) 0.8889(3) 0.6511(4)
C9_2 C 0.3072(4) 0.8654(4) 0.5991(6)
H6_2 H 0.3277 0.8311 0.6173
C10_2 C 0.2345(3) 0.9128(3) 0.5092(4)
C11_2 C 0.3183(4) 0.9211(5) 0.6347(6)
C12_2 C 0.0926(3) 0.8498(3) 0.6080(5)
H7_2 H 0.1324 0.8558 0.5910
C13_2 C 0.2476(3) 0.9688(3) 0.5457(4)
Cl1_2 Cl 0.36806(19) 0.92648(18) 0.7190(3)
O1_2 O 0.0872(2) 0.8953(2) 0.2000(3)
H9_2 H 0.0650 0.9144 0.2311
O2_2 O 0.01716(19) 0.9475(2) 0.2976(3)
N3_2 N 0.1943(2) 0.8849(2) 0.3691(3)
C14_2 C 0.1418(2) 0.8966(2) 0.3273(3)
C15_2 C 0.1362(3) 0.8794(3) 0.2398(4)
C16_2 C 0.0406(2) 0.9497(2) 0.3681(3)
O3_2 O 0.17764(19) 0.8518(2) 0.2055(3)
O4_2 O 0.01477(17) 0.97024(18) 0.4314(3)
H11_2 H 0.0223 0.5778 0.6642
C20_2 C 0.0218(3) 0.6688(3) 0.6631(4)
H12_2 H 0.0607 0.6735 0.6842
Cd4_2 Cd 0.261965(16) 0.828809(16) 0.30059(2)
Cd6_2 Cd 0.078809(16) 0.488035(16) 0.44941(2)
O12_2 O 0.01477(17) 0.47024(18) 0.5686(3)
Cd5_2 Cd 0.921191(16) 0.011965(16) 0.44941(2)
O11_2 O 0.98523(17) 0.02976(18) 0.5686(3)
H4_2 H 0.9777 0.9222 0.6642
C8_2 C 0.9782(3) 0.8312(3) 0.6631(4)
H5_2 H 0.9393 0.8265 0.6842
N4_2 N 0.9423(2) 0.6012(2) 0.6213(3)
C17_2 C 0.9873(3) 0.7190(2) 0.6436(4)
C18_2 C 0.9276(3) 0.7088(3) 0.6183(5)
H10_2 H 0.9017 0.7413 0.6086
C19_2 C 0.9982(3) 0.6111(3) 0.6511(4)
C21_2 C 0.9074(3) 0.6502(3) 0.6080(5)
H13_2 H 0.8676 0.6442 0.5910
Cd2_2 Cd 0.921191(16) 0.511965(16) 0.55059(2)
N5_2 N 0.8672(2) 0.5632(2) 0.4533(3)
C22_2 C 0.8126(2) 0.5894(2) 0.4440(3)
C23_2 C 0.7098(4) 0.5267(4) 0.6082(5)
H14_2 H 0.7003 0.4894 0.6318
C24_2 C 0.7352(3) 0.6385(3) 0.5355(5)
H15_2 H 0.7432 0.6757 0.5107
C25_2 C 0.8965(2) 0.5718(2) 0.3799(3)
C26_2 C 0.6928(4) 0.6346(4) 0.5991(6)
H16_2 H 0.6723 0.6689 0.6173
C27_2 C 0.7655(3) 0.5872(3) 0.5092(4)
C28_2 C 0.6817(4) 0.5789(5) 0.6347(6)
C29_2 C 0.7524(3) 0.5312(3) 0.5457(4)
H17_2 H 0.7726 0.4966 0.5277
Cl2_2 Cl 0.63194(19) 0.57352(18) 0.7190(3)
O5_2 O 0.9128(2) 0.6047(2) 0.2000(3)
H18_2 H 0.9350 0.5856 0.2311
O6_2 O 0.98284(19) 0.5525(2) 0.2976(3)
N6_2 N 0.8057(2) 0.6151(2) 0.3691(3)
C30_2 C 0.8582(2) 0.6034(2) 0.3273(3)
C31_2 C 0.8638(3) 0.6206(3) 0.2398(4)
C32_2 C 0.9594(2) 0.5503(2) 0.3681(3)
O7_2 O 0.82236(19) 0.6482(2) 0.2055(3)
O8_2 O 0.98523(17) 0.52976(18) 0.4314(3)
Cd3_2 Cd 0.738035(16) 0.671191(16) 0.30059(2)
N7_2 N 0.8651(2) 0.4443(2) 0.6191(3)
O9_2 O 0.8982(2) 0.42764(19) 0.4555(3)
C23_3 C 0.2767(4) 0.0402(4) 0.3582(5)
H14_3 H 0.2394 0.0497 0.3818
C24_3 C 0.3885(3) 0.0148(3) 0.2855(5)
H15_3 H 0.4257 0.0068 0.2607
C26_3 C 0.3846(4) 0.0572(4) 0.3491(6)
H16_3 H 0.4189 0.0777 0.3673
C28_3 C 0.3289(5) 0.0683(4) 0.3847(6)
Cl2_3 Cl 0.32352(18) 0.11806(19) 0.4690(3)
N1_3 N 0.6868(2) 0.6172(2) 0.2033(3)
N2_3 N 0.6488(2) 0.6923(2) 0.3713(3)
C1_3 C 0.5310(2) 0.7373(3) 0.3936(4)
C2_3 C 0.6606(2) 0.5626(2) 0.1940(3)
C3_3 C 0.7233(4) 0.4598(4) 0.3582(5)
H1_3 H 0.7606 0.4503 0.3818
C4_3 C 0.5412(3) 0.6776(3) 0.3683(5)
H2_3 H 0.5087 0.6517 0.3586
C5_3 C 0.6115(3) 0.4852(3) 0.2855(5)
H3_3 H 0.5743 0.4932 0.2607
C6_3 C 0.6782(2) 0.6465(2) 0.1299(3)
C7_3 C 0.6389(3) 0.7482(3) 0.4011(4)
H4_3 H 0.6722 0.7723 0.4142
C8_3 C 0.5812(3) 0.7718(3) 0.4131(4)
H5_3 H 0.5765 0.8107 0.4342
C9_3 C 0.6154(4) 0.4428(4) 0.3491(6)
H6_3 H 0.5811 0.4223 0.3673
C10_3 C 0.6628(3) 0.5155(3) 0.2592(4)
C11_3 C 0.6711(5) 0.4317(4) 0.3847(6)
C12_3 C 0.5998(3) 0.6574(3) 0.3580(5)
H7_3 H 0.6058 0.6176 0.3410
C13_3 C 0.7188(3) 0.5024(3) 0.2957(4)
H8_3 H 0.7534 0.5226 0.2777
Cl1_3 Cl 0.67648(18) 0.38194(19) 0.4690(3)
O2_3 O 0.6975(2) 0.73284(19) 0.0476(3)
C14_3 C 0.6466(2) 0.6082(2) 0.0773(3)
C16_3 C 0.6997(2) 0.7094(2) 0.1181(3)
O4_3 O 0.72024(18) 0.73523(17) 0.1814(3)
N4_3 N 0.3512(2) 0.8077(2) 0.3713(3)
C17_3 C 0.4690(2) 0.7627(3) 0.3936(4)
C18_3 C 0.4588(3) 0.8224(3) 0.3683(5)
H10_3 H 0.4913 0.8483 0.3586
C19_3 C 0.3611(3) 0.7518(3) 0.4011(4)
H11_3 H 0.3278 0.7277 0.4142
C20_3 C 0.4188(3) 0.7282(3) 0.4131(4)
H12_3 H 0.4235 0.6893 0.4342
C21_3 C 0.4002(3) 0.8426(3) 0.3580(5)
H13_3 H 0.3942 0.8824 0.3410
N5_3 N 0.3132(2) 0.8828(2) 0.2033(3)
C22_3 C 0.3394(2) 0.9374(2) 0.1940(3)
C25_3 C 0.3218(2) 0.8535(2) 0.1299(3)
C27_3 C 0.3372(3) 0.9845(3) 0.2592(4)
C29_3 C 0.2812(3) 0.9976(3) 0.2957(4)
H17_3 H 0.2466 0.9774 0.2777
O6_3 O 0.3025(2) 0.76716(19) 0.0476(3)
C30_3 C 0.3534(2) 0.8918(2) 0.0773(3)
C32_3 C 0.3003(2) 0.7906(2) 0.1181(3)
O8_3 O 0.27976(18) 0.76477(17) 0.1814(3)
Cd5_3 Cd 0.761965(16) 0.828809(16) 0.19941(2)
Cd6_3 Cd 0.238035(16) 0.671191(16) 0.19941(2)
O11_3 O 0.77976(18) 0.76477(17) 0.3186(3)
O12_3 O 0.22024(18) 0.73523(17) 0.3186(3)
O1_3 O 0.6453(2) 0.6628(2) 0.9500(3)
H9_3 H 0.6644 0.6850 0.9811
C15_3 C 0.6294(3) 0.6138(3) 0.9898(4)
O5_3 O 0.3547(2) 0.8372(2) 0.9500(3)
H18_3 H 0.3356 0.8150 0.9811
C31_3 C 0.3706(3) 0.8862(3) 0.9898(4)
N4_4 N 0.1488(2) 0.1923(2) 0.8713(3)
C17_4 C 0.0310(2) 0.2373(3) 0.8936(4)
C18_4 C 0.0412(3) 0.1776(3) 0.8683(5)
H10_4 H 0.0087 0.1517 0.8586
C19_4 C 0.1389(3) 0.2482(3) 0.9011(4)
H11_4 H 0.1722 0.2723 0.9142
C20_4 C 0.0812(3) 0.2718(3) 0.9131(4)
H12_4 H 0.0765 0.3107 0.9342
C21_4 C 0.0998(3) 0.1574(3) 0.8580(5)
H13_4 H 0.1058 0.1176 0.8410
N5_4 N 0.1868(2) 0.1172(2) 0.7033(3)
C22_4 C 0.1606(2) 0.0626(2) 0.6940(3)
C25_4 C 0.1782(2) 0.1465(2) 0.6299(3)
C27_4 C 0.1628(3) 0.0155(3) 0.7592(4)
C29_4 C 0.2188(3) 0.0024(3) 0.7957(4)
H17_4 H 0.2534 0.0226 0.7777
O5_4 O 0.1453(2) 0.1628(2) 0.4500(3)
H18_4 H 0.1644 0.1850 0.4811
O6_4 O 0.1975(2) 0.23284(19) 0.5476(3)
C30_4 C 0.1466(2) 0.1082(2) 0.5773(3)
C31_4 C 0.1294(3) 0.1138(3) 0.4898(4)
C32_4 C 0.1997(2) 0.2094(2) 0.6181(3)
O8_4 O 0.22024(18) 0.23523(17) 0.6814(3)
Cd6_4 Cd 0.261965(16) 0.328809(16) 0.69941(2)
O12_4 O 0.27976(18) 0.26477(17) 0.8186(3)
C23_4 C 0.2233(4) 0.9598(4) 0.8582(5)
H14_4 H 0.2606 0.9503 0.8818
C24_4 C 0.1115(3) 0.9852(3) 0.7855(5)
H15_4 H 0.0743 0.9932 0.7607
C26_4 C 0.1154(4) 0.9428(4) 0.8491(6)
H16_4 H 0.0811 0.9223 0.8673
C28_4 C 0.1711(5) 0.9317(4) 0.8847(6)
Cl2_4 Cl 0.17648(18) 0.88194(19) 0.9690(3)
N1_4 N 0.8132(2) 0.3828(2) 0.7033(3)
N2_4 N 0.8512(2) 0.3077(2) 0.8713(3)
C1_4 C 0.9690(2) 0.2627(3) 0.8936(4)
C2_4 C 0.8394(2) 0.4374(2) 0.6940(3)
C3_4 C 0.7767(4) 0.5402(4) 0.8582(5)
H1_4 H 0.7394 0.5497 0.8818
C4_4 C 0.9588(3) 0.3224(3) 0.8683(5)
H2_4 H 0.9913 0.3483 0.8586
C5_4 C 0.8885(3) 0.5148(3) 0.7855(5)
H3_4 H 0.9257 0.5068 0.7607
C6_4 C 0.8218(2) 0.3535(2) 0.6299(3)
C7_4 C 0.8611(3) 0.2518(3) 0.9011(4)
H4_4 H 0.8278 0.2277 0.9142
C8_4 C 0.9188(3) 0.2282(3) 0.9131(4)
H5_4 H 0.9235 0.1893 0.9342
C9_4 C 0.8846(4) 0.5572(4) 0.8491(6)
H6_4 H 0.9189 0.5777 0.8673
C10_4 C 0.8372(3) 0.4845(3) 0.7592(4)
C11_4 C 0.8289(5) 0.5683(4) 0.8847(6)
C12_4 C 0.9002(3) 0.3426(3) 0.8580(5)
H7_4 H 0.8942 0.3824 0.8410
C13_4 C 0.7812(3) 0.4976(3) 0.7957(4)
H8_4 H 0.7466 0.4774 0.7777
Cl1_4 Cl 0.82352(18) 0.61806(19) 0.9690(3)
O1_4 O 0.8547(2) 0.3372(2) 0.4500(3)
H9_4 H 0.8356 0.3150 0.4811
O2_4 O 0.8025(2) 0.26716(19) 0.5476(3)
C14_4 C 0.8534(2) 0.3918(2) 0.5773(3)
C15_4 C 0.8706(3) 0.3862(3) 0.4898(4)
C16_4 C 0.8003(2) 0.2906(2) 0.6181(3)
O4_4 O 0.77976(18) 0.26477(17) 0.6814(3)
Cd5_4 Cd 0.738035(16) 0.171191(16) 0.69941(2)
O11_4 O 0.72024(18) 0.23523(17) 0.8186(3)
O10_3 O 0.6018(2) 0.07236(19) 0.0445(3)
H1_5 H 0.7997 0.0106 0.8682
H8_5 H 0.7274 0.0034 0.9723
N8_3 N 0.6349(2) 0.0557(2) 0.8809(3)
N1_5 N 0.6328(2) 0.9368(2) 0.0467(3)
C2_5 C 0.6874(2) 0.9106(2) 0.0560(3)
C6_5 C 0.6035(2) 0.9282(2) 0.1201(3)
O1_5 O 0.5872(2) 0.8953(2) 0.3000(3)
H9_5 H 0.5650 0.9144 0.2689
O2_5 O 0.51716(19) 0.9475(2) 0.2024(3)
N3_3 N 0.6943(2) 0.8849(2) 0.1309(3)
C14_5 C 0.6418(2) 0.8966(2) 0.1727(3)
C15_5 C 0.6362(3) 0.8794(3) 0.2602(4)
C16_5 C 0.5406(2) 0.9497(2) 0.1319(3)
O3_3 O 0.67764(19) 0.8518(2) 0.2945(3)
N5_5 N 0.3672(2) 0.5632(2) 0.0467(3)
C22_5 C 0.3126(2) 0.5894(2) 0.0560(3)
C25_5 C 0.3965(2) 0.5718(2) 0.1201(3)
O5_5 O 0.4128(2) 0.6047(2) 0.3000(3)
H18_5 H 0.4350 0.5856 0.2689
O6_5 O 0.48284(19) 0.5525(2) 0.2024(3)
N6_3 N 0.3057(2) 0.6151(2) 0.1309(3)
C30_5 C 0.3582(2) 0.6034(2) 0.1727(3)
C31_5 C 0.3638(3) 0.6206(3) 0.2602(4)
C32_5 C 0.4594(2) 0.5503(2) 0.1319(3)
O7_3 O 0.32236(19) 0.6482(2) 0.2945(3)
O9_3 O 0.3982(2) 0.42764(19) 0.0445(3)
N2_5 N 0.5577(2) 0.8988(2) 0.8787(3)
C1_5 C 0.5127(3) 0.7810(2) 0.8564(4)
C3_5 C 0.7902(4) 0.9733(4) 0.8918(5)
C4_5 C 0.5724(3) 0.7912(3) 0.8817(5)
H2_5 H 0.5983 0.7587 0.8914
C5_5 C 0.7648(3) 0.8615(3) 0.9645(5)
H3_5 H 0.7568 0.8243 0.9893
C7_5 C 0.5018(3) 0.8889(3) 0.8489(4)
H4_5 H 0.4777 0.9222 0.8358
C8_5 C 0.4782(3) 0.8312(3) 0.8369(4)
H5_5 H 0.4393 0.8265 0.8158
C9_5 C 0.8072(4) 0.8654(4) 0.9009(6)
H6_5 H 0.8277 0.8311 0.8827
C10_5 C 0.7345(3) 0.9128(3) 0.9908(4)
C11_5 C 0.8183(4) 0.9211(5) 0.8653(6)
C12_5 C 0.5926(3) 0.8498(3) 0.8920(5)
H7_5 H 0.6324 0.8558 0.9090
C13_5 C 0.7476(3) 0.9688(3) 0.9543(4)
Cl1_5 Cl 0.86806(19) 0.92648(18) 0.7810(3)
N4_5 N 0.4423(2) 0.6012(2) 0.8787(3)
C17_5 C 0.4873(3) 0.7190(2) 0.8564(4)
C18_5 C 0.4276(3) 0.7088(3) 0.8817(5)
H10_5 H 0.4017 0.7413 0.8914
C19_5 C 0.4982(3) 0.6111(3) 0.8489(4)
H11_5 H 0.5223 0.5778 0.8358
C20_5 C 0.5218(3) 0.6688(3) 0.8369(4)
H12_5 H 0.5607 0.6735 0.8158
C21_5 C 0.4074(3) 0.6502(3) 0.8920(5)
H13_5 H 0.3676 0.6442 0.9090
C23_5 C 0.2098(4) 0.5267(4) 0.8918(5)
H14_5 H 0.2003 0.4894 0.8682
C24_5 C 0.2352(3) 0.6385(3) 0.9645(5)
H15_5 H 0.2432 0.6757 0.9893
C26_5 C 0.1928(4) 0.6346(4) 0.9009(6)
H16_5 H 0.1723 0.6689 0.8827
C27_5 C 0.2655(3) 0.5872(3) 0.9908(4)
C28_5 C 0.1817(4) 0.5789(5) 0.8653(6)
C29_5 C 0.2524(3) 0.5312(3) 0.9543(4)
H17_5 H 0.2726 0.4966 0.9723
Cl2_5 Cl 0.13194(19) 0.57352(18) 0.7810(3)
N7_3 N 0.3651(2) 0.4443(2) 0.8809(3)
H4_6 H 0.0223 0.0778 0.3358
C8_6 C 0.0218(3) 0.1688(3) 0.3369(4)
H5_6 H 0.0607 0.1735 0.3158
N4_6 N 0.0577(2) 0.3988(2) 0.3787(3)
C17_6 C 0.0127(3) 0.2810(2) 0.3564(4)
C18_6 C 0.0724(3) 0.2912(3) 0.3817(5)
H10_6 H 0.0983 0.2587 0.3914
C19_6 C 0.0018(3) 0.3889(3) 0.3489(4)
C21_6 C 0.0926(3) 0.3498(3) 0.3920(5)
H13_6 H 0.1324 0.3558 0.4090
N5_6 N 0.1328(2) 0.4368(2) 0.5467(3)
C22_6 C 0.1874(2) 0.4106(2) 0.5560(3)
C23_6 C 0.2902(4) 0.4733(4) 0.3918(5)
H14_6 H 0.2997 0.5106 0.3682
C24_6 C 0.2648(3) 0.3615(3) 0.4645(5)
H15_6 H 0.2568 0.3243 0.4893
C25_6 C 0.1035(2) 0.4282(2) 0.6201(3)
C26_6 C 0.3072(4) 0.3654(4) 0.4009(6)
H16_6 H 0.3277 0.3311 0.3827
C27_6 C 0.2345(3) 0.4128(3) 0.4908(4)
C28_6 C 0.3183(4) 0.4211(5) 0.3653(6)
C29_6 C 0.2476(3) 0.4688(3) 0.4543(4)
H17_6 H 0.2274 0.5034 0.4723
Cl2_6 Cl 0.36806(19) 0.42648(18) 0.2810(3)
O5_6 O 0.0872(2) 0.3953(2) 0.8000(3)
H18_6 H 0.0650 0.4144 0.7689
O6_6 O 0.01716(19) 0.4475(2) 0.7024(3)
N6_4 N 0.1943(2) 0.3849(2) 0.6309(3)
C30_6 C 0.1418(2) 0.3966(2) 0.6727(3)
C31_6 C 0.1362(3) 0.3794(3) 0.7602(4)
C32_6 C 0.0406(2) 0.4497(2) 0.6319(3)
O7_4 O 0.17764(19) 0.3518(2) 0.7945(3)
N7_4 N 0.1349(2) 0.5557(2) 0.3809(3)
O9_4 O 0.1018(2) 0.57236(19) 0.5445(3)
N1_6 N 0.8672(2) 0.0632(2) 0.5467(3)
N2_6 N 0.9423(2) 0.1012(2) 0.3787(3)
C1_6 C 0.9873(3) 0.2190(2) 0.3564(4)
C2_6 C 0.8126(2) 0.0894(2) 0.5560(3)
C3_6 C 0.7098(4) 0.0267(4) 0.3918(5)
C4_6 C 0.9276(3) 0.2088(3) 0.3817(5)
H2_6 H 0.9017 0.2413 0.3914
C5_6 C 0.7352(3) 0.1385(3) 0.4645(5)
H3_6 H 0.7432 0.1757 0.4893
C6_6 C 0.8965(2) 0.0718(2) 0.6201(3)
C7_6 C 0.9982(3) 0.1111(3) 0.3489(4)
C9_6 C 0.6928(4) 0.1346(4) 0.4009(6)
H6_6 H 0.6723 0.1689 0.3827
C10_6 C 0.7655(3) 0.0872(3) 0.4908(4)
C11_6 C 0.6817(4) 0.0789(5) 0.3653(6)
C12_6 C 0.9074(3) 0.1502(3) 0.3920(5)
H7_6 H 0.8676 0.1442 0.4090
C13_6 C 0.7524(3) 0.0312(3) 0.4543(4)
Cl1_6 Cl 0.63194(19) 0.07352(18) 0.2810(3)
O1_6 O 0.9128(2) 0.1047(2) 0.8000(3)
H9_6 H 0.9350 0.0856 0.7689
O2_6 O 0.98284(19) 0.0525(2) 0.7024(3)
N3_4 N 0.8057(2) 0.1151(2) 0.6309(3)
C14_6 C 0.8582(2) 0.1034(2) 0.6727(3)
C15_6 C 0.8638(3) 0.1206(3) 0.7602(4)
C16_6 C 0.9594(2) 0.0503(2) 0.6319(3)
O3_4 O 0.82236(19) 0.1482(2) 0.7945(3)
H11_6 H 0.9777 0.4222 0.3358
C20_6 C 0.9782(3) 0.3312(3) 0.3369(4)
H12_6 H 0.9393 0.3265 0.3158
H1_6 H 0.7003 0.9894 0.3682
H8_6 H 0.7726 0.9966 0.4723
N8_4 N 0.8651(2) 0.9443(2) 0.3809(3)
O10_4 O 0.8982(2) 0.92764(19) 0.5445(3)
O1_7 O 0.3547(2) 0.3372(2) 0.0500(3)
H9_7 H 0.3356 0.3150 0.0189
C15_7 C 0.3706(3) 0.3862(3) 0.0102(4)
O5_7 O 0.6453(2) 0.1628(2) 0.0500(3)
H18_7 H 0.6644 0.1850 0.0189
C31_7 C 0.6294(3) 0.1138(3) 0.0102(4)
N1_7 N 0.3132(2) 0.3828(2) 0.7967(3)
N2_7 N 0.3512(2) 0.3077(2) 0.6287(3)
C1_7 C 0.4690(2) 0.2627(3) 0.6064(4)
C2_7 C 0.3394(2) 0.4374(2) 0.8060(3)
C3_7 C 0.2767(4) 0.5402(4) 0.6418(5)
H1_7 H 0.2394 0.5497 0.6182
C4_7 C 0.4588(3) 0.3224(3) 0.6317(5)
H2_7 H 0.4913 0.3483 0.6414
C5_7 C 0.3885(3) 0.5148(3) 0.7145(5)
H3_7 H 0.4257 0.5068 0.7393
C6_7 C 0.3218(2) 0.3535(2) 0.8701(3)
C7_7 C 0.3611(3) 0.2518(3) 0.5989(4)
H4_7 H 0.3278 0.2277 0.5858
C8_7 C 0.4188(3) 0.2282(3) 0.5869(4)
H5_7 H 0.4235 0.1893 0.5658
C9_7 C 0.3846(4) 0.5572(4) 0.6509(6)
H6_7 H 0.4189 0.5777 0.6327
C10_7 C 0.3372(3) 0.4845(3) 0.7408(4)
C11_7 C 0.3289(5) 0.5683(4) 0.6153(6)
C12_7 C 0.4002(3) 0.3426(3) 0.6420(5)
H7_7 H 0.3942 0.3824 0.6590
C13_7 C 0.2812(3) 0.4976(3) 0.7043(4)
H8_7 H 0.2466 0.4774 0.7223
Cl1_7 Cl 0.32352(18) 0.61806(19) 0.5310(3)
O2_7 O 0.3025(2) 0.26716(19) 0.9524(3)
C14_7 C 0.3534(2) 0.3918(2) 0.9227(3)
C16_7 C 0.3003(2) 0.2906(2) 0.8819(3)
N4_7 N 0.6488(2) 0.1923(2) 0.6287(3)
C17_7 C 0.5310(2) 0.2373(3) 0.6064(4)
C18_7 C 0.5412(3) 0.1776(3) 0.6317(5)
H10_7 H 0.5087 0.1517 0.6414
C19_7 C 0.6389(3) 0.2482(3) 0.5989(4)
H11_7 H 0.6722 0.2723 0.5858
C20_7 C 0.5812(3) 0.2718(3) 0.5869(4)
H12_7 H 0.5765 0.3107 0.5658
C21_7 C 0.5998(3) 0.1574(3) 0.6420(5)
H13_7 H 0.6058 0.1176 0.6590
N5_7 N 0.6868(2) 0.1172(2) 0.7967(3)
C22_7 C 0.6606(2) 0.0626(2) 0.8060(3)
C25_7 C 0.6782(2) 0.1465(2) 0.8701(3)
C27_7 C 0.6628(3) 0.0155(3) 0.7408(4)
C29_7 C 0.7188(3) 0.0024(3) 0.7043(4)
H17_7 H 0.7534 0.0226 0.7223
O6_7 O 0.6975(2) 0.23284(19) 0.9524(3)
C30_7 C 0.6466(2) 0.1082(2) 0.9227(3)
C32_7 C 0.6997(2) 0.2094(2) 0.8819(3)
C23_7 C 0.7233(4) 0.9598(4) 0.6418(5)
H14_7 H 0.7606 0.9503 0.6182
C24_7 C 0.6115(3) 0.9852(3) 0.7145(5)
H15_7 H 0.5743 0.9932 0.7393
C26_7 C 0.6154(4) 0.9428(4) 0.6509(6)
H16_7 H 0.5811 0.9223 0.6327
C28_7 C 0.6711(5) 0.9317(4) 0.6153(6)
Cl2_7 Cl 0.67648(18) 0.88194(19) 0.5310(3)
N1_8 N 0.1868(2) 0.6172(2) 0.2967(3)
N2_8 N 0.1488(2) 0.6923(2) 0.1287(3)
C1_8 C 0.0310(2) 0.7373(3) 0.1064(4)
C2_8 C 0.1606(2) 0.5626(2) 0.3060(3)
C3_8 C 0.2233(4) 0.4598(4) 0.1418(5)
H1_8 H 0.2606 0.4503 0.1182
C4_8 C 0.0412(3) 0.6776(3) 0.1317(5)
H2_8 H 0.0087 0.6517 0.1414
C5_8 C 0.1115(3) 0.4852(3) 0.2145(5)
H3_8 H 0.0743 0.4932 0.2393
C6_8 C 0.1782(2) 0.6465(2) 0.3701(3)
C7_8 C 0.1389(3) 0.7482(3) 0.0989(4)
H4_8 H 0.1722 0.7723 0.0858
C8_8 C 0.0812(3) 0.7718(3) 0.0869(4)
H5_8 H 0.0765 0.8107 0.0658
C9_8 C 0.1154(4) 0.4428(4) 0.1509(6)
H6_8 H 0.0811 0.4223 0.1327
C10_8 C 0.1628(3) 0.5155(3) 0.2408(4)
C11_8 C 0.1711(5) 0.4317(4) 0.1153(6)
C12_8 C 0.0998(3) 0.6574(3) 0.1420(5)
H7_8 H 0.1058 0.6176 0.1590
C13_8 C 0.2188(3) 0.5024(3) 0.2043(4)
H8_8 H 0.2534 0.5226 0.2223
Cl1_8 Cl 0.17648(18) 0.38194(19) 0.0310(3)
O1_8 O 0.1453(2) 0.6628(2) 0.5500(3)
H9_8 H 0.1644 0.6850 0.5189
O2_8 O 0.1975(2) 0.73284(19) 0.4524(3)
C14_8 C 0.1466(2) 0.6082(2) 0.4227(3)
C15_8 C 0.1294(3) 0.6138(3) 0.5102(4)
C16_8 C 0.1997(2) 0.7094(2) 0.3819(3)
C23_8 C 0.7767(4) 0.0402(4) 0.1418(5)
H14_8 H 0.7394 0.0497 0.1182
C24_8 C 0.8885(3) 0.0148(3) 0.2145(5)
H15_8 H 0.9257 0.0068 0.2393
C26_8 C 0.8846(4) 0.0572(4) 0.1509(6)
H16_8 H 0.9189 0.0777 0.1327
C28_8 C 0.8289(5) 0.0683(4) 0.1153(6)
Cl2_8 Cl 0.82352(18) 0.11806(19) 0.0310(3)
N4_8 N 0.8512(2) 0.8077(2) 0.1287(3)
C17_8 C 0.9690(2) 0.7627(3) 0.1064(4)
C18_8 C 0.9588(3) 0.8224(3) 0.1317(5)
H10_8 H 0.9913 0.8483 0.1414
C19_8 C 0.8611(3) 0.7518(3) 0.0989(4)
H11_8 H 0.8278 0.7277 0.0858
C20_8 C 0.9188(3) 0.7282(3) 0.0869(4)
H12_8 H 0.9235 0.6893 0.0658
C21_8 C 0.9002(3) 0.8426(3) 0.1420(5)
H13_8 H 0.8942 0.8824 0.1590
N5_8 N 0.8132(2) 0.8828(2) 0.2967(3)
C22_8 C 0.8394(2) 0.9374(2) 0.3060(3)
C25_8 C 0.8218(2) 0.8535(2) 0.3701(3)
C27_8 C 0.8372(3) 0.9845(3) 0.2408(4)
C29_8 C 0.7812(3) 0.9976(3) 0.2043(4)
H17_8 H 0.7466 0.9774 0.2223
O5_8 O 0.8547(2) 0.8372(2) 0.5500(3)
H18_8 H 0.8356 0.8150 0.5189
O6_8 O 0.8025(2) 0.76716(19) 0.4524(3)
C30_8 C 0.8534(2) 0.8918(2) 0.4227(3)
C31_8 C 0.8706(3) 0.8862(3) 0.5102(4)
C32_8 C 0.8003(2) 0.7906(2) 0.3819(3)
loop_
_geom_bond_atom_site_label_1
_geom_bond_atom_site_label_2
_geom_bond_site_symmetry_1
_geom_bond_site_symmetry_2
N2 Cd1 1_555 1_555
C1 C4 1_555 1_555
C4 H2 1_555 1_555
C5 H3 1_555 1_555
C7 N2 1_555 1_555
H4 C7 1_555 1_555
C8 C1 1_555 1_555
H5 C8 1_555 1_555
C9 C5 1_555 1_555
H6 C9 1_555 1_555
C10 C5 1_555 1_555
C11 C3 1_555 1_555
C12 N2 1_555 1_555
H7 C12 1_555 1_555
C13 C3 1_555 1_555
Cl1 C11 1_555 1_555
N4 C19 1_555 1_555
C17 C1 1_555 1_555
C18 C17 1_555 1_555
H10 C18 1_555 1_555
C19 H11 1_555 1_555
C20 C17 1_555 1_555
H12 C20 1_555 1_555
C21 N4 1_555 1_555
H13 C21 1_555 1_555
Cd2 N4 1_555 1_555
C23 H14 1_555 1_555
C24 H15 1_555 1_555
C26 C24 1_555 1_555
H16 C26 1_555 1_555
C28 C23 1_555 1_555
C29 C23 1_555 1_555
H17 C29 1_555 1_555
Cl2 C28 1_555 1_555
N7 Cd2 1_555 1_555
O12 Cd2 1_555 1_555
C4 C12 1_555 1_555
C7 C8 1_555 1_555
C9 C11 1_555 1_555
C10 C13 1_555 1_555
C18 C21 1_555 1_555
C19 C20 1_555 1_555
C24 C27 1_555 1_555
C26 C28 1_555 1_555
C27 C29 1_555 1_555
N1 C2 1_555 1_555
C6 N1 1_555 1_555
O1 H9 1_555 1_555
O2 C16 1_555 1_555
N3 C2 1_555 1_555
C14 C6 1_555 1_555
C15 O1 1_555 1_555
C16 C6 1_555 1_555
O3 C15 1_555 1_555
C22 N5 1_555 1_555
C25 N5 1_555 1_555
O5 H18 1_555 1_555
O6 C32 1_555 1_555
N6 C22 1_555 1_555
C30 C25 1_555 1_555
C31 O5 1_555 1_555
C32 C25 1_555 1_555
O7 C31 1_555 1_555
Cd3 N6 1_555 1_555
Cd4 N3 1_555 1_555
Cd6 O8 1_555 1_555
N3 C14 1_555 1_555
C14 C15 1_555 1_555
C16 O4 1_555 1_555
O3 Cd4 1_555 1_555
N6 C30 1_555 1_555
C30 C31 1_555 1_555
C32 O8 1_555 1_555
O7 Cd3 1_555 1_555
Cd1_2 N1_2 1_555 1_555
N1_2 C2_2 1_555 1_555
N2_2 Cd1_2 1_555 1_555
C1_2 C4_2 1_555 1_555
C2_2 C10_2 1_555 1_555
C4_2 H2_2 1_555 1_555
C5_2 H3_2 1_555 1_555
C6_2 N1_2 1_555 1_555
C7_2 N2_2 1_555 1_555
C9_2 C5_2 1_555 1_555
H6_2 C9_2 1_555 1_555
C10_2 C5_2 1_555 1_555
C11_2 C3_2 1_555 1_555
C12_2 N2_2 1_555 1_555
H7_2 C12_2 1_555 1_555
C13_2 C3_2 1_555 1_555
Cl1_2 C11_2 1_555 1_555
O1_2 H9_2 1_555 1_555
O2_2 C16_2 1_555 1_555
N3_2 C2_2 1_555 1_555
C14_2 C6_2 1_555 1_555
C15_2 O1_2 1_555 1_555
C16_2 C6_2 1_555 1_555
O3_2 C15_2 1_555 1_555
O4_2 Cd1_2 1_555 1_555
H12_2 C20_2 1_555 1_555
Cd4_2 N3_2 1_555 1_555
C4_2 C12_2 1_555 1_555
C9_2 C11_2 1_555 1_555
C10_2 C13_2 1_555 1_555
N3_2 C14_2 1_555 1_555
C14_2 C15_2 1_555 1_555
C16_2 O4_2 1_555 1_555
O3_2 Cd4_2 1_555 1_555
Cd6_2 O12_2 1_555 1_555
Cd5_2 O11_2 1_555 1_555
H5_2 C8_2 1_555 1_555
N4_2 C19_2 1_555 1_555
C18_2 C17_2 1_555 1_555
H10_2 C18_2 1_555 1_555
C21_2 N4_2 1_555 1_555
H13_2 C21_2 1_555 1_555
Cd2_2 N4_2 1_555 1_555
N5_2 Cd2_2 1_555 1_555
C22_2 N5_2 1_555 1_555
C23_2 H14_2 1_555 1_555
C24_2 H15_2 1_555 1_555
C25_2 N5_2 1_555 1_555
C26_2 C24_2 1_555 1_555
H16_2 C26_2 1_555 1_555
C27_2 C22_2 1_555 1_555
C28_2 C23_2 1_555 1_555
C29_2 C23_2 1_555 1_555
H17_2 C29_2 1_555 1_555
Cl2_2 C28_2 1_555 1_555
O5_2 H18_2 1_555 1_555
O6_2 C32_2 1_555 1_555
N6_2 C22_2 1_555 1_555
C30_2 C25_2 1_555 1_555
C31_2 O5_2 1_555 1_555
C32_2 C25_2 1_555 1_555
O7_2 C31_2 1_555 1_555
O8_2 Cd2_2 1_555 1_555
Cd3_2 N6_2 1_555 1_555
N7_2 Cd2_2 1_555 1_555
O9_2 Cd2_2 1_555 1_555
C18_2 C21_2 1_555 1_555
C24_2 C27_2 1_555 1_555
C26_2 C28_2 1_555 1_555
C27_2 C29_2 1_555 1_555
N6_2 C30_2 1_555 1_555
C30_2 C31_2 1_555 1_555
C32_2 O8_2 1_555 1_555
O7_2 Cd3_2 1_555 1_555
C23_3 H14_3 1_555 1_555
C24_3 H15_3 1_555 1_555
C26_3 C24_3 1_555 1_555
H16_3 C26_3 1_555 1_555
C28_3 C23_3 1_555 1_555
Cl2_3 C28_3 1_555 1_555
C26_3 C28_3 1_555 1_555
Cd3_2 N1_3 1_555 1_555
N1_3 C2_3 1_555 1_555
N2_3 Cd3_2 1_555 1_555
C1_3 C4_3 1_555 1_555
C2_3 C10_3 1_555 1_555
C3_3 H1_3 1_555 1_555
C4_3 H2_3 1_555 1_555
C5_3 H3_3 1_555 1_555
C6_3 N1_3 1_555 1_555
C7_3 N2_3 1_555 1_555
H4_3 C7_3 1_555 1_555
C8_3 C1_3 1_555 1_555
H5_3 C8_3 1_555 1_555
C9_3 C5_3 1_555 1_555
H6_3 C9_3 1_555 1_555
C10_3 C5_3 1_555 1_555
C11_3 C3_3 1_555 1_555
C12_3 N2_3 1_555 1_555
H7_3 C12_3 1_555 1_555
C13_3 C3_3 1_555 1_555
H8_3 C13_3 1_555 1_555
Cl1_3 C11_3 1_555 1_555
O2_3 C16_3 1_555 1_555
N7 C2_3 1_555 1_555
C14_3 C6_3 1_555 1_555
C16_3 C6_3 1_555 1_555
O4_3 Cd3_2 1_555 1_555
N4_3 C19_3 1_555 1_555
C17_3 C1_3 1_555 1_555
C18_3 C17_3 1_555 1_555
H10_3 C18_3 1_555 1_555
C19_3 H11_3 1_555 1_555
C20_3 C17_3 1_555 1_555
H12_3 C20_3 1_555 1_555
C21_3 N4_3 1_555 1_555
H13_3 C21_3 1_555 1_555
Cd4_2 N4_3 1_555 1_555
N5_3 Cd4_2 1_555 1_555
C22_3 N5_3 1_555 1_555
C25_3 N5_3 1_555 1_555
C27_3 C22_3 1_555 1_555
H17_3 C29_3 1_555 1_555
O6_3 C32_3 1_555 1_555
N8 C22_3 1_555 1_555
C30_3 C25_3 1_555 1_555
C32_3 C25_3 1_555 1_555
O8_3 Cd4_2 1_555 1_555
Cd5_3 O4_3 1_555 1_555
Cd6_3 O8_3 1_555 1_555
O11_3 Cd3_2 1_555 1_555
O12_3 Cd4_2 1_555 1_555
C4_3 C12_3 1_555 1_555
C7_3 C8_3 1_555 1_555
C9_3 C11_3 1_555 1_555
C10_3 C13_3 1_555 1_555
N7 C14_3 1_555 1_555
C16_3 O4_3 1_555 1_555
C18_3 C21_3 1_555 1_555
C19_3 C20_3 1_555 1_555
C27_3 C29_3 1_555 1_555
N8 C30_3 1_555 1_555
C32_3 O8_3 1_555 1_555
Cd5_3 O11_3 1_555 1_555
Cd6_3 O12_3 1_555 1_555
O1_3 H9_3 1_555 1_555
C15_3 O1_3 1_555 1_555
O9 C15_3 1_555 1_555
O5_3 H18_3 1_555 1_555
C31_3 O5_3 1_555 1_555
O10 C31_3 1_555 1_555
N4_4 C19_4 1_555 1_555
C18_4 C17_4 1_555 1_555
H10_4 C18_4 1_555 1_555
C19_4 H11_4 1_555 1_555
C20_4 C17_4 1_555 1_555
H12_4 C20_4 1_555 1_555
C21_4 N4_4 1_555 1_555
H13_4 C21_4 1_555 1_555
Cd4 N4_4 1_555 1_555
N5_4 Cd4 1_555 1_555
C22_4 N5_4 1_555 1_555
C25_4 N5_4 1_555 1_555
C27_4 C22_4 1_555 1_555
H17_4 C29_4 1_555 1_555
O5_4 H18_4 1_555 1_555
O6_4 C32_4 1_555 1_555
N8_2 C22_4 1_555 1_555
C30_4 C25_4 1_555 1_555
C31_4 O5_4 1_555 1_555
C32_4 C25_4 1_555 1_555
O10_2 C31_4 1_555 1_555
O8_4 Cd4 1_555 1_555
Cd6_4 O8_4 1_555 1_555
O12_4 Cd4 1_555 1_555
C18_4 C21_4 1_555 1_555
C19_4 C20_4 1_555 1_555
C27_4 C29_4 1_555 1_555
N8_2 C30_4 1_555 1_555
C30_4 C31_4 1_555 1_555
C32_4 O8_4 1_555 1_555
Cd6_4 O12_4 1_555 1_555
C23_4 H14_4 1_555 1_555
C24_4 H15_4 1_555 1_555
C26_4 C24_4 1_555 1_555
H16_4 C26_4 1_555 1_555
C28_4 C23_4 1_555 1_555
Cl2_4 C28_4 1_555 1_555
C26_4 C28_4 1_555 1_555
Cd3 N1_4 1_555 1_555
N1_4 C2_4 1_555 1_555
N2_4 Cd3 1_555 1_555
C1_4 C4_4 1_555 1_555
C2_4 C10_4 1_555 1_555
C3_4 H1_4 1_555 1_555
C4_4 H2_4 1_555 1_555
C5_4 H3_4 1_555 1_555
C6_4 N1_4 1_555 1_555
C7_4 N2_4 1_555 1_555
H4_4 C7_4 1_555 1_555
C8_4 C1_4 1_555 1_555
H5_4 C8_4 1_555 1_555
C9_4 C5_4 1_555 1_555
H6_4 C9_4 1_555 1_555
C10_4 C5_4 1_555 1_555
C11_4 C3_4 1_555 1_555
C12_4 N2_4 1_555 1_555
H7_4 C12_4 1_555 1_555
C13_4 C3_4 1_555 1_555
H8_4 C13_4 1_555 1_555
Cl1_4 C11_4 1_555 1_555
O1_4 H9_4 1_555 1_555
O2_4 C16_4 1_555 1_555
N7_2 C2_4 1_555 1_555
C14_4 C6_4 1_555 1_555
C15_4 O1_4 1_555 1_555
C16_4 C6_4 1_555 1_555
O9_2 C15_4 1_555 1_555
O4_4 Cd3 1_555 1_555
Cd5_4 O4_4 1_555 1_555
O11_4 Cd3 1_555 1_555
C4_4 C12_4 1_555 1_555
C7_4 C8_4 1_555 1_555
C9_4 C11_4 1_555 1_555
C10_4 C13_4 1_555 1_555
N7_2 C14_4 1_555 1_555
C14_4 C15_4 1_555 1_555
C16_4 O4_4 1_555 1_555
Cd5_4 O11_4 1_555 1_555
N1_5 C2_5 1_555 1_555
C6_5 N1_5 1_555 1_555
O1_5 H9_5 1_555 1_555
O2_5 C16_5 1_555 1_555
N3_3 C2_5 1_555 1_555
C14_5 C6_5 1_555 1_555
C15_5 O1_5 1_555 1_555
C16_5 C6_5 1_555 1_555
O3_3 C15_5 1_555 1_555
C22_5 N5_5 1_555 1_555
C25_5 N5_5 1_555 1_555
O5_5 H18_5 1_555 1_555
O6_5 C32_5 1_555 1_555
N6_3 C22_5 1_555 1_555
C30_5 C25_5 1_555 1_555
C31_5 O5_5 1_555 1_555
C32_5 C25_5 1_555 1_555
O7_3 C31_5 1_555 1_555
Cd6_3 N6_3 1_555 1_555
Cd5_3 N3_3 1_555 1_555
N3_3 C14_5 1_555 1_555
C14_5 C15_5 1_555 1_555
C16_5 O11 1_555 1_555
O3_3 Cd5_3 1_555 1_555
N6_3 C30_5 1_555 1_555
C30_5 C31_5 1_555 1_555
C32_5 O12 1_555 1_555
O7_3 Cd6_3 1_555 1_555
N2_5 Cd5 1_555 1_555
C1_5 C4_5 1_555 1_555
C4_5 H2_5 1_555 1_555
C5_5 H3_5 1_555 1_555
C7_5 N2_5 1_555 1_555
H4_5 C7_5 1_555 1_555
C8_5 C1_5 1_555 1_555
H5_5 C8_5 1_555 1_555
C9_5 C5_5 1_555 1_555
H6_5 C9_5 1_555 1_555
C10_5 C5_5 1_555 1_555
C11_5 C3_5 1_555 1_555
C12_5 N2_5 1_555 1_555
H7_5 C12_5 1_555 1_555
C13_5 C3_5 1_555 1_555
Cl1_5 C11_5 1_555 1_555
N4_5 C19_5 1_555 1_555
C17_5 C1_5 1_555 1_555
C18_5 C17_5 1_555 1_555
H10_5 C18_5 1_555 1_555
C19_5 H11_5 1_555 1_555
C20_5 C17_5 1_555 1_555
H12_5 C20_5 1_555 1_555
C21_5 N4_5 1_555 1_555
H13_5 C21_5 1_555 1_555
Cd6 N4_5 1_555 1_555
C23_5 H14_5 1_555 1_555
C24_5 H15_5 1_555 1_555
C26_5 C24_5 1_555 1_555
H16_5 C26_5 1_555 1_555
C28_5 C23_5 1_555 1_555
C29_5 C23_5 1_555 1_555
H17_5 C29_5 1_555 1_555
Cl2_5 C28_5 1_555 1_555
N7_3 Cd6 1_555 1_555
C4_5 C12_5 1_555 1_555
C7_5 C8_5 1_555 1_555
C9_5 C11_5 1_555 1_555
C10_5 C13_5 1_555 1_555
C18_5 C21_5 1_555 1_555
C19_5 C20_5 1_555 1_555
C24_5 C27_5 1_555 1_555
C26_5 C28_5 1_555 1_555
C27_5 C29_5 1_555 1_555
H5_6 C8_6 1_555 1_555
N4_6 C19_6 1_555 1_555
C18_6 C17_6 1_555 1_555
H10_6 C18_6 1_555 1_555
C21_6 N4_6 1_555 1_555
H13_6 C21_6 1_555 1_555
Cd6_2 N4_6 1_555 1_555
N5_6 Cd6_2 1_555 1_555
C22_6 N5_6 1_555 1_555
C23_6 H14_6 1_555 1_555
C24_6 H15_6 1_555 1_555
C25_6 N5_6 1_555 1_555
C26_6 C24_6 1_555 1_555
H16_6 C26_6 1_555 1_555
C27_6 C22_6 1_555 1_555
C28_6 C23_6 1_555 1_555
C29_6 C23_6 1_555 1_555
H17_6 C29_6 1_555 1_555
Cl2_6 C28_6 1_555 1_555
O5_6 H18_6 1_555 1_555
O6_6 C32_6 1_555 1_555
N6_4 C22_6 1_555 1_555
C30_6 C25_6 1_555 1_555
C31_6 O5_6 1_555 1_555
C32_6 C25_6 1_555 1_555
O7_4 C31_6 1_555 1_555
Cd6_4 N6_4 1_555 1_555
N7_4 Cd6_2 1_555 1_555
O9_4 Cd6_2 1_555 1_555
C18_6 C21_6 1_555 1_555
C24_6 C27_6 1_555 1_555
C26_6 C28_6 1_555 1_555
C27_6 C29_6 1_555 1_555
N6_4 C30_6 1_555 1_555
C30_6 C31_6 1_555 1_555
C32_6 O12_2 1_555 1_555
O7_4 Cd6_4 1_555 1_555
Cd5_2 N1_6 1_555 1_555
N1_6 C2_6 1_555 1_555
N2_6 Cd5_2 1_555 1_555
C1_6 C4_6 1_555 1_555
C2_6 C10_6 1_555 1_555
C4_6 H2_6 1_555 1_555
C5_6 H3_6 1_555 1_555
C6_6 N1_6 1_555 1_555
C7_6 N2_6 1_555 1_555
C9_6 C5_6 1_555 1_555
H6_6 C9_6 1_555 1_555
C10_6 C5_6 1_555 1_555
C11_6 C3_6 1_555 1_555
C12_6 N2_6 1_555 1_555
H7_6 C12_6 1_555 1_555
C13_6 C3_6 1_555 1_555
Cl1_6 C11_6 1_555 1_555
O1_6 H9_6 1_555 1_555
O2_6 C16_6 1_555 1_555
N3_4 C2_6 1_555 1_555
C14_6 C6_6 1_555 1_555
C15_6 O1_6 1_555 1_555
C16_6 C6_6 1_555 1_555
O3_4 C15_6 1_555 1_555
H12_6 C20_6 1_555 1_555
Cd5_4 N3_4 1_555 1_555
C4_6 C12_6 1_555 1_555
C9_6 C11_6 1_555 1_555
C10_6 C13_6 1_555 1_555
N3_4 C14_6 1_555 1_555
C14_6 C15_6 1_555 1_555
C16_6 O11_2 1_555 1_555
O3_4 Cd5_4 1_555 1_555
O1_7 H9_7 1_555 1_555
C15_7 O1_7 1_555 1_555
O9_3 C15_7 1_555 1_555
O5_7 H18_7 1_555 1_555
C31_7 O5_7 1_555 1_555
O10_3 C31_7 1_555 1_555
Cd6_4 N1_7 1_555 1_555
N1_7 C2_7 1_555 1_555
N2_7 Cd6_4 1_555 1_555
C1_7 C4_7 1_555 1_555
C2_7 C10_7 1_555 1_555
C3_7 H1_7 1_555 1_555
C4_7 H2_7 1_555 1_555
C5_7 H3_7 1_555 1_555
C6_7 N1_7 1_555 1_555
C7_7 N2_7 1_555 1_555
H4_7 C7_7 1_555 1_555
C8_7 C1_7 1_555 1_555
H5_7 C8_7 1_555 1_555
C9_7 C5_7 1_555 1_555
H6_7 C9_7 1_555 1_555
C10_7 C5_7 1_555 1_555
C11_7 C3_7 1_555 1_555
C12_7 N2_7 1_555 1_555
H7_7 C12_7 1_555 1_555
C13_7 C3_7 1_555 1_555
H8_7 C13_7 1_555 1_555
Cl1_7 C11_7 1_555 1_555
O2_7 C16_7 1_555 1_555
N7_3 C2_7 1_555 1_555
C14_7 C6_7 1_555 1_555
C16_7 C6_7 1_555 1_555
N4_7 C19_7 1_555 1_555
C17_7 C1_7 1_555 1_555
C18_7 C17_7 1_555 1_555
H10_7 C18_7 1_555 1_555
C19_7 H11_7 1_555 1_555
C20_7 C17_7 1_555 1_555
H12_7 C20_7 1_555 1_555
C21_7 N4_7 1_555 1_555
H13_7 C21_7 1_555 1_555
Cd5_4 N4_7 1_555 1_555
N5_7 Cd5_4 1_555 1_555
C22_7 N5_7 1_555 1_555
C25_7 N5_7 1_555 1_555
C27_7 C22_7 1_555 1_555
H17_7 C29_7 1_555 1_555
O6_7 C32_7 1_555 1_555
N8_3 C22_7 1_555 1_555
C30_7 C25_7 1_555 1_555
C32_7 C25_7 1_555 1_555
C4_7 C12_7 1_555 1_555
C7_7 C8_7 1_555 1_555
C9_7 C11_7 1_555 1_555
C10_7 C13_7 1_555 1_555
N7_3 C14_7 1_555 1_555
C16_7 O12_4 1_555 1_555
C18_7 C21_7 1_555 1_555
C19_7 C20_7 1_555 1_555
C27_7 C29_7 1_555 1_555
N8_3 C30_7 1_555 1_555
C32_7 O11_4 1_555 1_555
C23_7 H14_7 1_555 1_555
C24_7 H15_7 1_555 1_555
C26_7 C24_7 1_555 1_555
H16_7 C26_7 1_555 1_555
C28_7 C23_7 1_555 1_555
Cl2_7 C28_7 1_555 1_555
C26_7 C28_7 1_555 1_555
Cd6_3 N1_8 1_555 1_555
N1_8 C2_8 1_555 1_555
N2_8 Cd6_3 1_555 1_555
C1_8 C4_8 1_555 1_555
C2_8 C10_8 1_555 1_555
C3_8 H1_8 1_555 1_555
C4_8 H2_8 1_555 1_555
C5_8 H3_8 1_555 1_555
C6_8 N1_8 1_555 1_555
C7_8 N2_8 1_555 1_555
H4_8 C7_8 1_555 1_555
C8_8 C1_8 1_555 1_555
H5_8 C8_8 1_555 1_555
C9_8 C5_8 1_555 1_555
H6_8 C9_8 1_555 1_555
C10_8 C5_8 1_555 1_555
C11_8 C3_8 1_555 1_555
C12_8 N2_8 1_555 1_555
H7_8 C12_8 1_555 1_555
C13_8 C3_8 1_555 1_555
H8_8 C13_8 1_555 1_555
Cl1_8 C11_8 1_555 1_555
O1_8 H9_8 1_555 1_555
O2_8 C16_8 1_555 1_555
N7_4 C2_8 1_555 1_555
C14_8 C6_8 1_555 1_555
C15_8 O1_8 1_555 1_555
C16_8 C6_8 1_555 1_555
O9_4 C15_8 1_555 1_555
C4_8 C12_8 1_555 1_555
C7_8 C8_8 1_555 1_555
C9_8 C11_8 1_555 1_555
C10_8 C13_8 1_555 1_555
N7_4 C14_8 1_555 1_555
C14_8 C15_8 1_555 1_555
C16_8 O12_3 1_555 1_555
C23_8 H14_8 1_555 1_555
C24_8 H15_8 1_555 1_555
C26_8 C24_8 1_555 1_555
H16_8 C26_8 1_555 1_555
C28_8 C23_8 1_555 1_555
Cl2_8 C28_8 1_555 1_555
C26_8 C28_8 1_555 1_555
N4_8 C19_8 1_555 1_555
C18_8 C17_8 1_555 1_555
H10_8 C18_8 1_555 1_555
C19_8 H11_8 1_555 1_555
C20_8 C17_8 1_555 1_555
H12_8 C20_8 1_555 1_555
C21_8 N4_8 1_555 1_555
H13_8 C21_8 1_555 1_555
Cd5_3 N4_8 1_555 1_555
N5_8 Cd5_3 1_555 1_555
C22_8 N5_8 1_555 1_555
C25_8 N5_8 1_555 1_555
C27_8 C22_8 1_555 1_555
H17_8 C29_8 1_555 1_555
O5_8 H18_8 1_555 1_555
O6_8 C32_8 1_555 1_555
N8_4 C22_8 1_555 1_555
C30_8 C25_8 1_555 1_555
C31_8 O5_8 1_555 1_555
C32_8 C25_8 1_555 1_555
O10_4 C31_8 1_555 1_555
C18_8 C21_8 1_555 1_555
C19_8 C20_8 1_555 1_555
C27_8 C29_8 1_555 1_555
N8_4 C30_8 1_555 1_555
C30_8 C31_8 1_555 1_555
C32_8 O11_3 1_555 1_555

#END
