
###############################################################################
#
# This file contains modified crystal structure data generated from the
# MOF subset of the Cambridge Structural Database (CSD) v543 
# hosted by the Cambridge Crystallographic Data Centre (CCDC).
#
# This work is licensed under the Creative Commons
# Attribution-NonCommercial-ShareAlike 4.0 International License.
# To view a copy of this license, visit
# http://creativecommons.org/licenses/by-nc-sa/4.0/
# or send a letter to
# Creative Commons, PO Box 1866, Mountain View, CA 94042, USA.
#
# CIF created using the CSD Python API on 29 September 2022
# The structure has been converted into the P1 space group
# The structure has a 3D framework
# The original CSD entry WOMFIO is in the hexagonal crystal system
# The original CSD entry WOMFIO is in a Sohncke space group
# The framework has been calculated to contain at least 10.0% void space
# The void calculation uses a probe of radius 1.32A, grid spacing 0.4
#
###############################################################################

data_WOMFIO
_chemical_formula_moiety         '(C24 H24 Mn6 N24 O23)n'
_symmetry_cell_setting           triclinic
_symmetry_space_group_name_H-M   'P 1'
_symmetry_Int_Tables_number      1
_space_group_name_Hall           'P 1'
loop_
_symmetry_equiv_pos_site_id
_symmetry_equiv_pos_as_xyz
1 x,y,z
_cell_length_a                   14.3295(6)
_cell_length_b                   14.3295(6)
_cell_length_c                   10.0523(8)
_cell_angle_alpha                90
_cell_angle_beta                 90
_cell_angle_gamma                120
_cell_volume                     1787.55
loop_
_atom_site_label
_atom_site_type_symbol
_atom_site_fract_x
_atom_site_fract_y
_atom_site_fract_z
N2 N 0.0118(3) 0.4681(3) 0.3338(4)
N3 N 0.0083(2) 0.5346(2) 0.4222(3)
Mn2 Mn 0.12517(6) 0.66040(4) 0.56239(6)
Mn1 Mn 0.66040(4) 0.53523(4) 0.39572(6)
C1 C 0.7797(4) 0.4610(3) 0.1982(4)
C2 C 0.8715(3) 0.4809(3) 0.2853(4)
C3 C 0.9207(3) 0.5441(3) 0.3959(4)
C4 C 0.9027(3) 0.6169(3) 0.4858(4)
N1 N 0.9297(2) 0.4347(2) 0.2500(4)
O1 O 0.7601(3) 0.3963(3) 0.1031(4)
O2 O 0.7284(2) 0.5099(3) 0.2184(3)
O3 O 0.8125(3) 0.6100(3) 0.4911(4)
O4 O 0.9815(2) 0.6785(2) 0.5568(4)
Mn3 Mn 0.87483(6) 0.33960(4) 0.06239(6)
N4 N 0.5653(2) 0.4950(3) 0.5833(4)
N5 N 0.5346(2) 0.5263(3) 0.2555(3)
O5 O 0.6037(3) 0.3638(4) 0.4364(4)
O6 O 0.6785(2) 0.6970(3) 0.3901(4)
Mn1_2 Mn 0.46477(4) 0.12517(6) 0.72905(6)
C1_2 C 0.5390(3) 0.3187(5) 0.5315(4)
C2_2 C 0.5191(3) 0.3906(4) 0.6186(4)
C3_2 C 0.4559(3) 0.3766(4) 0.7292(4)
C4_2 C 0.3831(3) 0.2858(4) 0.8191(4)
N2_2 N 0.5319(3) 0.5437(4) 0.6671(4)
N3_2 N 0.4654(2) 0.4737(3) 0.7555(3)
O2_2 O 0.4901(3) 0.2185(4) 0.5517(3)
O3_2 O 0.3900(3) 0.2025(4) 0.8244(4)
O4_2 O 0.3215(2) 0.3030(3) 0.8901(4)
Mn2_2 Mn 0.33960(4) 0.46477(7) 0.89572(6)
N4_2 N 0.5050(3) 0.0703(4) 0.9167(4)
N5_2 N 0.4737(3) 0.0083(4) 0.5889(3)
O5_2 O 0.6362(4) 0.2399(5) 0.7698(4)
O6_2 O 0.3030(3) 0.9815(4) 0.7235(4)
O6_3 O 0.0185(4) 0.3215(2) 0.0568(4)
C3_3 C 0.6234(4) 0.0793(3) 0.0626(4)
C4_3 C 0.7142(4) 0.0973(3) 0.1525(4)
O3_3 O 0.7975(4) 0.1875(3) 0.1578(4)
O4_3 O 0.6970(3) 0.0185(2) 0.2235(4)
C1_3 C 0.6813(5) 0.2203(4) 0.8649(4)
C2_3 C 0.6094(4) 0.1285(3) 0.9520(4)
O2_3 O 0.7815(4) 0.2716(2) 0.8851(3)
N5_3 N 0.9917(4) 0.4654(2) 0.9222(3)
N2_3 N 0.4563(4) 0.9882(3) 0.0005(4)
N3_3 N 0.5263(3) 0.9917(2) 0.0889(3)
Mn2_3 Mn 0.53523(7) 0.87483(6) 0.22905(6)
N4_3 N 0.4347(2) 0.5050(3) 0.0833(4)
C1_4 C 0.2203(4) 0.5390(3) 0.6982(4)
C2_4 C 0.1285(3) 0.5191(3) 0.7853(4)
C3_4 C 0.0793(3) 0.4559(3) 0.8959(4)
C4_4 C 0.0973(3) 0.3831(3) 0.9858(4)
N1_2 N 0.0703(2) 0.5653(2) 0.7500(4)
O1_2 O 0.2399(3) 0.6037(3) 0.6031(4)
O2_4 O 0.2716(2) 0.4901(3) 0.7184(3)
O3_4 O 0.1875(3) 0.3900(3) 0.9911(4)
O5_3 O 0.3963(3) 0.6362(4) 0.9364(4)
N2_4 N 0.9882(3) 0.5319(3) 0.8338(4)
C1_5 C 0.4610(3) 0.6813(5) 0.0315(4)
C2_5 C 0.4809(3) 0.6094(4) 0.1186(4)
C3_5 C 0.5441(3) 0.6234(4) 0.2292(4)
C4_5 C 0.6169(3) 0.7142(4) 0.3191(4)
N2_5 N 0.4681(3) 0.4563(4) 0.1671(4)
O2_5 O 0.5099(3) 0.7815(4) 0.0517(3)
O3_5 O 0.6100(3) 0.7975(4) 0.3244(4)
N4_4 N 0.4950(3) 0.9297(4) 0.4167(4)
O5_4 O 0.3638(4) 0.7601(5) 0.2698(4)
N2_6 N 0.5437(4) 0.0118(3) 0.5005(4)
C1_6 C 0.3187(5) 0.7797(4) 0.3649(4)
C2_6 C 0.3906(4) 0.8715(3) 0.4520(4)
C3_6 C 0.3766(4) 0.9207(3) 0.5626(4)
C4_6 C 0.2858(4) 0.9027(3) 0.6525(4)
O2_6 O 0.2185(4) 0.7284(2) 0.3851(3)
O3_6 O 0.2025(4) 0.8125(3) 0.6578(4)
H4 H 0.2376 0.7324 0.0041
N6 N 0.2822(5) 0.7656(4) 0.9353(7)
H1 H 0.2419 0.7484 0.8610
H2 H 0.3311 0.8363 0.9304
H3 H 0.3168 0.7291 0.9175
N6_2 N 0.2344(4) 0.5166(6) 0.2686(7)
H1_2 H 0.2516 0.4935 0.1943
H2_2 H 0.1637 0.4948 0.2637
H3_2 H 0.2709 0.5877 0.2508
H4_2 H 0.2676 0.5052 0.3374
N6_3 N 0.4834(6) 0.7178(5) 0.6020(7)
H1_3 H 0.5065 0.7581 0.5277
H2_3 H 0.5052 0.6689 0.5971
H3_3 H 0.4123 0.6832 0.5842
H4_3 H 0.4948 0.7624 0.6708
N6_4 N 0.7178(5) 0.2344(4) 0.4353(7)
H1_4 H 0.7581 0.2516 0.3610
H2_4 H 0.6689 0.1637 0.4304
H3_4 H 0.6832 0.2709 0.4175
H4_4 H 0.7624 0.2676 0.5041
N6_5 N 0.7656(4) 0.4834(6) 0.7686(7)
H1_5 H 0.7484 0.5065 0.6943
H2_5 H 0.8363 0.5052 0.7637
H3_5 H 0.7291 0.4123 0.7508
H4_5 H 0.7324 0.4948 0.8374
N6_6 N 0.5166(6) 0.2822(5) 0.1020(7)
H1_6 H 0.4935 0.2419 0.0277
H2_6 H 0.4948 0.3311 0.0971
H3_6 H 0.5877 0.3168 0.0842
H4_6 H 0.5052 0.2376 0.1708
loop_
_geom_bond_atom_site_label_1
_geom_bond_atom_site_label_2
_geom_bond_site_symmetry_1
_geom_bond_site_symmetry_2
Mn2 N3 1_555 1_555
N2 N3 1_555 1_555
Mn1 O2 1_555 1_555
C1 C2 1_555 1_555
C2 C3 1_555 1_555
C3 C4 1_555 1_555
C4 O3 1_555 1_555
N1 C2 1_555 1_555
O1 C1 1_555 1_555
O2 C1 1_555 1_555
O3 Mn1 1_555 1_555
O4 C4 1_555 1_555
Mn3 N1 1_555 1_555
N4 Mn1 1_555 1_555
N5 Mn1 1_555 1_555
O5 Mn1 1_555 1_555
O6 Mn1 1_555 1_555
O1 Mn3 1_555 1_555
Mn1_2 O2_2 1_555 1_555
C1_2 C2_2 1_555 1_555
C2_2 C3_2 1_555 1_555
C3_2 C4_2 1_555 1_555
C4_2 O3_2 1_555 1_555
N4 C2_2 1_555 1_555
N2_2 N4 1_555 1_555
N3_2 C3_2 1_555 1_555
O5 C1_2 1_555 1_555
O2_2 C1_2 1_555 1_555
O3_2 Mn1_2 1_555 1_555
O4_2 C4_2 1_555 1_555
Mn2_2 N3_2 1_555 1_555
N4_2 Mn1_2 1_555 1_555
N5_2 Mn1_2 1_555 1_555
O5_2 Mn1_2 1_555 1_555
N2_2 N3_2 1_555 1_555
O4_2 Mn2_2 1_555 1_555
C3_3 C4_3 1_555 1_555
C4_3 O3_3 1_555 1_555
O3_3 Mn3 1_555 1_555
O4_3 C4_3 1_555 1_555
C1_3 C2_3 1_555 1_555
N4_2 C2_3 1_555 1_555
O5_2 C1_3 1_555 1_555
O2_3 C1_3 1_555 1_555
Mn2_3 N3_3 1_555 1_555
N2_3 N3_3 1_555 1_555
Mn2_2 O2_4 1_555 1_555
C1_4 C2_4 1_555 1_555
C2_4 C3_4 1_555 1_555
C3_4 C4_4 1_555 1_555
C4_4 O3_4 1_555 1_555
N1_2 C2_4 1_555 1_555
O1_2 C1_4 1_555 1_555
O2_4 C1_4 1_555 1_555
O3_4 Mn2_2 1_555 1_555
Mn2 N1_2 1_555 1_555
O5_3 Mn2_2 1_555 1_555
O1_2 Mn2 1_555 1_555
N2_4 N5_3 1_555 1_555
Mn2_3 O2_5 1_555 1_555
C1_5 C2_5 1_555 1_555
C2_5 C3_5 1_555 1_555
C3_5 C4_5 1_555 1_555
C4_5 O3_5 1_555 1_555
N4_3 C2_5 1_555 1_555
N2_5 N4_3 1_555 1_555
N5 C3_5 1_555 1_555
O2_5 C1_5 1_555 1_555
O3_5 Mn2_3 1_555 1_555
O6 C4_5 1_555 1_555
N4_4 Mn2_3 1_555 1_555
O5_4 Mn2_3 1_555 1_555
N2_5 N5 1_555 1_555
N2_6 N5_2 1_555 1_555
Mn2 O2_6 1_555 1_555
C1_6 C2_6 1_555 1_555
C2_6 C3_6 1_555 1_555
C3_6 C4_6 1_555 1_555
C4_6 O3_6 1_555 1_555
N4_4 C2_6 1_555 1_555
O5_4 C1_6 1_555 1_555
O2_6 C1_6 1_555 1_555
O3_6 Mn2 1_555 1_555
O6_2 C4_6 1_555 1_555
N6 H1 1_555 1_555
H2 N6 1_555 1_555
H3 N6 1_555 1_555
N6_2 H1_2 1_555 1_555
H2_2 N6_2 1_555 1_555
H3_2 N6_2 1_555 1_555
H4_2 N6_2 1_555 1_555
N6_3 H1_3 1_555 1_555
H2_3 N6_3 1_555 1_555
H3_3 N6_3 1_555 1_555
H4_3 N6_3 1_555 1_555
N6_4 H1_4 1_555 1_555
H2_4 N6_4 1_555 1_555
H3_4 N6_4 1_555 1_555
H4_4 N6_4 1_555 1_555
N6_5 H1_5 1_555 1_555
H2_5 N6_5 1_555 1_555
H3_5 N6_5 1_555 1_555
H4_5 N6_5 1_555 1_555
N6_6 H1_6 1_555 1_555
H2_6 N6_6 1_555 1_555
H3_6 N6_6 1_555 1_555
H4_6 N6_6 1_555 1_555

#END
