
###############################################################################
#
# This file contains modified crystal structure data generated from the
# MOF subset of the Cambridge Structural Database (CSD) v543 
# hosted by the Cambridge Crystallographic Data Centre (CCDC).
#
# This work is licensed under the Creative Commons
# Attribution-NonCommercial-ShareAlike 4.0 International License.
# To view a copy of this license, visit
# http://creativecommons.org/licenses/by-nc-sa/4.0/
# or send a letter to
# Creative Commons, PO Box 1866, Mountain View, CA 94042, USA.
#
# CIF created using the CSD Python API on 29 September 2022
# The structure has been converted into the P1 space group
# The structure has a 3D framework
# The original CSD entry WONVIH is in the tetragonal crystal system
# The framework has been calculated to contain at least 10.0% void space
# The void calculation uses a probe of radius 1.32A, grid spacing 0.4
# H atom positions have been added when not included in the experimental data
#
###############################################################################

data_WONVIH
_chemical_formula_moiety         '(C192 H96 O74 Ti14 Zr8)n'
_symmetry_cell_setting           triclinic
_symmetry_space_group_name_H-M   'P 1'
_symmetry_Int_Tables_number      1
_space_group_name_Hall           'P 1'
loop_
_symmetry_equiv_pos_site_id
_symmetry_equiv_pos_as_xyz
1 x,y,z
_cell_length_a                   16.5(4)
_cell_length_b                   16.5(4)
_cell_length_c                   29.8(8)
_cell_angle_alpha                90
_cell_angle_beta                 90
_cell_angle_gamma                90
_cell_volume                     8113.05
loop_
_atom_site_label
_atom_site_type_symbol
_atom_site_fract_x
_atom_site_fract_y
_atom_site_fract_z
Ti1 Ti 0.1083(4) 0.1083(4) 0.4427(3)
Ti2 Ti 0.1081(5) 0.1081(5) 0.5585(3)
Zr1 Zr 0.0000 0.0000 0.37713(18)
O1 O 0.0804(7) 0.0804(7) 0.4999(8)
O3 O 0.2292(12) 0.0871(16) 0.5353(8)
O4 O 0.2250(11) 0.1162(14) 0.4591(7)
O5 O 0.1568(14) 0.1568(14) 0.3790(7)
O6 O 0.0763(13) 0.0763(13) 0.3358(8)
O7 O 0.3501(17) 0.3501(17) 0.1143(9)
O8 O 0.4232(14) 0.4232(14) 0.1643(9)
C1 C 0.2620(11) 0.1066(19) 0.4977(8)
C2 C 0.3500(12) 0.104(2) 0.4927(10)
C3 C 0.4005(13) 0.103(3) 0.5310(10)
C4 C 0.4840(11) 0.098(4) 0.5216(5)
C5 C 0.5329(13) 0.092(4) 0.5605(9)
C6 C 0.6165(15) 0.101(4) 0.5505(11)
C7 C 0.1311(14) 0.1311(14) 0.3422(8)
C8 C 0.1654(15) 0.1654(15) 0.3019(8)
C9 C 0.1415(17) 0.1415(17) 0.2585(9)
C10 C 0.1774(19) 0.1774(19) 0.2202(11)
C11 C 0.2370(17) 0.2370(17) 0.2258(13)
C12 C 0.2608(18) 0.2608(18) 0.2694(13)
C13 C 0.2250(16) 0.2250(16) 0.3078(11)
C14 C 0.321(2) 0.321(2) 0.2737(12)
C15 C 0.355(2) 0.355(2) 0.2343(12)
C16 C 0.3296(17) 0.3296(17) 0.1917(11)
C17 C 0.2697(18) 0.2697(18) 0.1858(12)
C18 C 0.3687(15) 0.3687(15) 0.1538(10)
O9 O 0.7708(12) 0.0871(16) 0.4647(8)
O10 O 0.7750(11) 0.1162(14) 0.5409(7)
C19 C 0.7380(11) 0.1066(19) 0.5023(8)
C20 C 0.6500(12) 0.104(2) 0.5073(10)
C21 C 0.5995(13) 0.103(3) 0.4690(10)
C22 C 0.5160(11) 0.098(4) 0.4784(5)
C23 C 0.4671(13) 0.092(4) 0.4395(9)
C24 C 0.3835(15) 0.101(4) 0.4495(11)
O17 O 0.1089(9) 0.0013(14) 0.5806(4)
O19 O 0.0871(16) 0.2292(12) 0.5353(8)
O20 O 0.1162(14) 0.2250(11) 0.4591(7)
C37 C 0.1066(19) 0.2620(11) 0.4977(8)
C38 C 0.104(2) 0.3500(12) 0.4927(10)
C39 C 0.103(3) 0.4005(13) 0.5310(10)
C40 C 0.098(4) 0.4840(11) 0.5216(5)
C41 C 0.092(4) 0.5329(13) 0.5605(9)
C42 C 0.101(4) 0.6165(15) 0.5505(11)
O21 O 0.0871(16) 0.7708(12) 0.4647(8)
O22 O 0.1162(14) 0.7750(11) 0.5409(7)
C43 C 0.1066(19) 0.7380(11) 0.5023(8)
C44 C 0.104(2) 0.6500(12) 0.5073(10)
C45 C 0.103(3) 0.5995(13) 0.4690(10)
C46 C 0.098(4) 0.5160(11) 0.4784(5)
C47 C 0.092(4) 0.4671(13) 0.4395(9)
C48 C 0.101(4) 0.3835(15) 0.4495(11)
Ti6 Ti 0.1083(4) 0.8917(4) 0.5573(3)
Ti8 Ti 0.8917(4) 0.1083(4) 0.5573(3)
Ti10 Ti 0.1081(5) 0.8919(5) 0.4415(3)
Ti12 Ti 0.8919(5) 0.1081(5) 0.4415(3)
Ti14 Ti 0.3919(5) 0.3919(5) 0.0585(3)
Zr2 Zr -0.0000 -0.0000 0.62287(18)
Zr4 Zr 0.5000 0.5000 0.12287(18)
O23 O 0.0013(14) 0.1089(9) 0.5806(4)
O32 O 0.1499(17) 0.1499(17) 0.6143(9)
H1 H 0.340996 0.340996 0.306719
H2 H 0.401525 0.401525 0.237174
H3 H 0.249901 0.249901 0.152708
H4 H 0.158836 0.158836 0.186672
H5 H 0.658099 0.105992 0.578736
H6 H 0.0951287 0.0951287 0.254379
H7 H 0.509162 0.081697 0.594118
H8 H 0.243484 0.243484 0.341355
H9 H 0.376747 0.105866 0.565058
H10 H 0.341901 0.105992 0.421264
H12 H 0.490838 0.081697 0.405882
H16 H 0.623253 0.105866 0.434942
H19 H 0.081697 0.490838 0.405882
H20 H 0.105992 0.341901 0.421264
H21 H 0.105866 0.623253 0.434942
H22 H 0.105992 0.658099 0.578736
H23 H 0.105866 0.376747 0.565058
H24 H 0.081697 0.509162 0.594118
Zr1_2 Zr -0.0000 1.0000 0.37713(18)
O12 O 0.0013(14) 0.8911(9) 0.4194(4)
Zr2_2 Zr -0.0000 1.0000 0.62287(18)
O26 O 0.1089(9) 0.9987(14) 0.4194(4)
O34 O 0.0768(14) 0.9232(14) 0.3357(9)
Zr1_3 Zr 1.0000 0.0000 0.37713(18)
O2 O 0.9987(14) 0.1089(9) 0.4194(4)
Zr2_3 Zr 1.0000 -0.0000 0.62287(18)
O25 O 0.8911(9) 0.0013(14) 0.4194(4)
O33 O 0.9232(14) 0.0768(14) 0.3357(9)
Zr1_4 Zr 1.0000 1.0000 0.37713(18)
Ti3 Ti 0.8917(4) 0.8917(4) 0.4427(3)
Ti4 Ti 0.8919(5) 0.8919(5) 0.5585(3)
O11 O 0.9196(7) 0.9196(7) 0.4999(8)
O13 O 0.8432(14) 0.8432(14) 0.3790(7)
O14 O 0.9237(13) 0.9237(13) 0.3358(8)
O15 O 0.6499(17) 0.6499(17) 0.1143(9)
O16 O 0.5768(14) 0.5768(14) 0.1643(9)
C25 C 0.8689(14) 0.8689(14) 0.3422(8)
C26 C 0.8346(15) 0.8346(15) 0.3019(8)
C27 C 0.8585(17) 0.8585(17) 0.2585(9)
C28 C 0.8226(19) 0.8226(19) 0.2202(11)
C29 C 0.7630(17) 0.7630(17) 0.2258(13)
C30 C 0.7392(18) 0.7392(18) 0.2694(13)
C31 C 0.7750(16) 0.7750(16) 0.3078(11)
C32 C 0.679(2) 0.679(2) 0.2737(12)
C33 C 0.645(2) 0.645(2) 0.2343(12)
C34 C 0.6704(17) 0.6704(17) 0.1917(11)
C35 C 0.7303(18) 0.7303(18) 0.1858(12)
C36 C 0.6313(15) 0.6313(15) 0.1538(10)
O18 O 0.8911(9) 0.9987(14) 0.5806(4)
Ti13 Ti 0.6081(5) 0.6081(5) 0.0585(3)
Zr2_4 Zr 1.0000 1.0000 0.62287(18)
O24 O 0.9987(14) 0.8911(9) 0.5806(4)
O27 O 0.7708(12) 0.9129(16) 0.5353(8)
O28 O 0.9129(16) 0.7708(12) 0.5353(8)
O29 O 0.7750(11) 0.8838(14) 0.4591(7)
O30 O 0.8838(14) 0.7750(11) 0.4591(7)
O31 O 0.8501(17) 0.8501(17) 0.6143(9)
H11 H 0.659004 0.659004 0.306719
H13 H 0.756516 0.756516 0.341355
H14 H 0.598475 0.598475 0.237174
H15 H 0.904871 0.904871 0.254379
H17 H 0.841164 0.841164 0.186672
H18 H 0.750099 0.750099 0.152708
C1_2 C 0.7380(11) 0.8934(19) 0.4977(8)
C2_2 C 0.6500(12) 0.896(2) 0.4927(10)
C3_2 C 0.5995(13) 0.897(3) 0.5310(10)
C4_2 C 0.5160(11) 0.902(4) 0.5216(5)
C5_2 C 0.4671(13) 0.908(4) 0.5605(9)
C6_2 C 0.3835(15) 0.899(4) 0.5505(11)
O9_2 O 0.2292(12) 0.9129(16) 0.4647(8)
O10_2 O 0.2250(11) 0.8838(14) 0.5409(7)
C19_2 C 0.2620(11) 0.8934(19) 0.5023(8)
C20_2 C 0.3500(12) 0.896(2) 0.5073(10)
C21_2 C 0.4005(13) 0.897(3) 0.4690(10)
C22_2 C 0.4840(11) 0.902(4) 0.4784(5)
C23_2 C 0.5329(13) 0.908(4) 0.4395(9)
C24_2 C 0.6165(15) 0.899(4) 0.4495(11)
C37_2 C 0.8934(19) 0.7380(11) 0.4977(8)
C38_2 C 0.896(2) 0.6500(12) 0.4927(10)
C39_2 C 0.897(3) 0.5995(13) 0.5310(10)
C40_2 C 0.902(4) 0.5160(11) 0.5216(5)
C41_2 C 0.908(4) 0.4671(13) 0.5605(9)
C42_2 C 0.899(4) 0.3835(15) 0.5505(11)
O21_2 O 0.9129(16) 0.2292(12) 0.4647(8)
O22_2 O 0.8838(14) 0.2250(11) 0.5409(7)
C43_2 C 0.8934(19) 0.2620(11) 0.5023(8)
C44_2 C 0.896(2) 0.3500(12) 0.5073(10)
C45_2 C 0.897(3) 0.4005(13) 0.4690(10)
C46_2 C 0.902(4) 0.4840(11) 0.4784(5)
C47_2 C 0.908(4) 0.5329(13) 0.4395(9)
C48_2 C 0.899(4) 0.6165(15) 0.4495(11)
H5_2 H 0.341901 0.894008 0.578736
H7_2 H 0.490838 0.918303 0.594118
H9_2 H 0.623253 0.894134 0.565058
H10_2 H 0.658099 0.894008 0.421264
H12_2 H 0.509162 0.918303 0.405882
H16_2 H 0.376747 0.894134 0.434942
H19_2 H 0.918303 0.509162 0.405882
H20_2 H 0.894008 0.658099 0.421264
H21_2 H 0.894134 0.376747 0.434942
H22_2 H 0.894008 0.341901 0.578736
H23_2 H 0.894134 0.623253 0.565058
H24_2 H 0.918303 0.490838 0.594118
O33_2 O 0.0768(14) 0.0768(14) 0.6643(9)
O1_2 O 0.0804(7) 0.9196(7) 0.5001(8)
O5_2 O 0.1568(14) 0.8432(14) 0.6210(7)
O6_2 O 0.0763(13) 0.9237(13) 0.6642(8)
O7_2 O 0.3501(17) 0.6499(17) 0.8857(9)
O8_2 O 0.4232(14) 0.5768(14) 0.8357(9)
C7_2 C 0.1311(14) 0.8689(14) 0.6578(8)
C8_2 C 0.1654(15) 0.8346(15) 0.6981(8)
C9_2 C 0.1415(17) 0.8585(17) 0.7415(9)
C10_2 C 0.1774(19) 0.8226(19) 0.7798(11)
C11_2 C 0.2370(17) 0.7630(17) 0.7742(13)
C12_2 C 0.2608(18) 0.7392(18) 0.7306(13)
C13_2 C 0.2250(16) 0.7750(16) 0.6922(11)
C14_2 C 0.321(2) 0.679(2) 0.7263(12)
C15_2 C 0.355(2) 0.645(2) 0.7657(12)
C16_2 C 0.3296(17) 0.6704(17) 0.8083(11)
C17_2 C 0.2697(18) 0.7303(18) 0.8142(12)
C18_2 C 0.3687(15) 0.6313(15) 0.8462(10)
Ti14_2 Ti 0.3919(5) 0.6081(5) 0.9415(3)
Zr4_2 Zr 0.5000 0.5000 0.87713(18)
O32_2 O 0.1499(17) 0.8501(17) 0.3857(9)
H1_2 H 0.340996 0.659004 0.693281
H2_2 H 0.401525 0.598475 0.762826
H3_2 H 0.249901 0.750099 0.847292
H4_2 H 0.158836 0.841164 0.813328
H6_2 H 0.0951287 0.904871 0.745621
H8_2 H 0.243484 0.756516 0.658645
O11_2 O 0.9196(7) 0.0804(7) 0.5001(8)
O13_2 O 0.8432(14) 0.1568(14) 0.6210(7)
O14_2 O 0.9237(13) 0.0763(13) 0.6642(8)
O15_2 O 0.6499(17) 0.3501(17) 0.8857(9)
O16_2 O 0.5768(14) 0.4232(14) 0.8357(9)
C25_2 C 0.8689(14) 0.1311(14) 0.6578(8)
C26_2 C 0.8346(15) 0.1654(15) 0.6981(8)
C27_2 C 0.8585(17) 0.1415(17) 0.7415(9)
C28_2 C 0.8226(19) 0.1774(19) 0.7798(11)
C29_2 C 0.7630(17) 0.2370(17) 0.7742(13)
C30_2 C 0.7392(18) 0.2608(18) 0.7306(13)
C31_2 C 0.7750(16) 0.2250(16) 0.6922(11)
C32_2 C 0.679(2) 0.321(2) 0.7263(12)
C33_2 C 0.645(2) 0.355(2) 0.7657(12)
C34_2 C 0.6704(17) 0.3296(17) 0.8083(11)
C35_2 C 0.7303(18) 0.2697(18) 0.8142(12)
C36_2 C 0.6313(15) 0.3687(15) 0.8462(10)
Ti13_2 Ti 0.6081(5) 0.3919(5) 0.9415(3)
O31_2 O 0.8501(17) 0.1499(17) 0.3857(9)
H11_2 H 0.659004 0.340996 0.693281
H13_2 H 0.756516 0.243484 0.658645
H14_2 H 0.598475 0.401525 0.762826
H15_2 H 0.904871 0.0951287 0.745621
H17_2 H 0.841164 0.158836 0.813328
H18_2 H 0.750099 0.249901 0.847292
O34_2 O 0.9232(14) 0.9232(14) 0.6643(9)
C5_3 C 0.0329(13) 0.592(4) 0.0605(9)
C6_3 C 0.1165(15) 0.601(4) 0.0505(11)
O10_3 O 0.2750(11) 0.6162(14) 0.0409(7)
C19_3 C 0.2380(11) 0.6066(19) 0.0023(8)
C20_3 C 0.1500(12) 0.604(2) 0.0073(10)
Ti8_2 Ti 0.3917(4) 0.6083(4) 0.0573(3)
H5_3 H 0.158099 0.605992 0.0787359
H7_3 H 0.00916229 0.581697 0.0941176
O9_3 O 0.2708(12) 0.5871(16) 0.9647(8)
C21_3 C 0.0995(13) 0.603(3) 0.9690(10)
C22_3 C 0.0160(11) 0.598(4) 0.9784(5)
H16_3 H 0.123253 0.605866 0.934942
C41_3 C 0.592(4) 0.0329(13) 0.0605(9)
C42_3 C 0.601(4) 0.1165(15) 0.0505(11)
O22_3 O 0.6162(14) 0.2750(11) 0.0409(7)
C43_3 C 0.6066(19) 0.2380(11) 0.0023(8)
C44_3 C 0.604(2) 0.1500(12) 0.0073(10)
Ti6_2 Ti 0.6083(4) 0.3917(4) 0.0573(3)
H22_3 H 0.605992 0.158099 0.0787359
H24_3 H 0.581697 0.00916229 0.0941176
O21_3 O 0.5871(16) 0.2708(12) 0.9647(8)
C45_3 C 0.603(3) 0.0995(13) 0.9690(10)
C46_3 C 0.598(4) 0.0160(11) 0.9784(5)
H21_3 H 0.605866 0.123253 0.934942
O3_2 O 0.7292(12) 0.5871(16) 0.0353(8)
C3_3 C 0.9005(13) 0.603(3) 0.0310(10)
C4_3 C 0.9840(11) 0.598(4) 0.0216(5)
O17_2 O 0.6089(9) 0.5013(14) 0.0806(4)
O18_2 O 0.3911(9) 0.4987(14) 0.0806(4)
O19_2 O 0.5871(16) 0.7292(12) 0.0353(8)
C39_3 C 0.603(3) 0.9005(13) 0.0310(10)
C40_3 C 0.598(4) 0.9840(11) 0.0216(5)
O23_2 O 0.5013(14) 0.6089(9) 0.0806(4)
O24_2 O 0.4987(14) 0.3911(9) 0.0806(4)
O27_2 O 0.2708(12) 0.4129(16) 0.0353(8)
O28_2 O 0.4129(16) 0.2708(12) 0.0353(8)
H9_3 H 0.876747 0.605866 0.0650581
H23_3 H 0.605866 0.876747 0.0650581
Ti1_2 Ti 0.6083(4) 0.6083(4) 0.9427(3)
O1_3 O 0.5804(7) 0.5804(7) 0.9999(8)
O2_2 O 0.4987(14) 0.6089(9) 0.9194(4)
O4_2 O 0.7250(11) 0.6162(14) 0.9591(7)
O5_3 O 0.6568(14) 0.6568(14) 0.8790(7)
O6_3 O 0.5763(13) 0.5763(13) 0.8358(8)
C1_3 C 0.7620(11) 0.6066(19) 0.9977(8)
C2_3 C 0.8500(12) 0.604(2) 0.9927(10)
C7_3 C 0.6311(14) 0.6311(14) 0.8422(8)
C8_3 C 0.6654(15) 0.6654(15) 0.8019(8)
C9_3 C 0.6415(17) 0.6415(17) 0.7585(9)
C10_3 C 0.6774(19) 0.6774(19) 0.7202(11)
C11_3 C 0.7370(17) 0.7370(17) 0.7258(13)
C12_3 C 0.7608(18) 0.7608(18) 0.7694(13)
C13_3 C 0.7250(16) 0.7250(16) 0.8078(11)
C14_3 C 0.821(2) 0.821(2) 0.7737(12)
C15_3 C 0.855(2) 0.855(2) 0.7343(12)
C16_3 C 0.8296(17) 0.8296(17) 0.6917(11)
C17_3 C 0.7697(18) 0.7697(18) 0.6858(12)
C18_3 C 0.8687(15) 0.8687(15) 0.6538(10)
C23_3 C 0.9671(13) 0.592(4) 0.9395(9)
C24_3 C 0.8835(15) 0.601(4) 0.9495(11)
Ti3_2 Ti 0.3917(4) 0.3917(4) 0.9427(3)
O11_3 O 0.4196(7) 0.4196(7) 0.9999(8)
O12_2 O 0.5013(14) 0.3911(9) 0.9194(4)
O13_3 O 0.3432(14) 0.3432(14) 0.8790(7)
O14_3 O 0.4237(13) 0.4237(13) 0.8358(8)
C25_3 C 0.3689(14) 0.3689(14) 0.8422(8)
C26_3 C 0.3346(15) 0.3346(15) 0.8019(8)
C27_3 C 0.3585(17) 0.3585(17) 0.7585(9)
C28_3 C 0.3226(19) 0.3226(19) 0.7202(11)
C29_3 C 0.2630(17) 0.2630(17) 0.7258(13)
C30_3 C 0.2392(18) 0.2392(18) 0.7694(13)
C31_3 C 0.2750(16) 0.2750(16) 0.8078(11)
C32_3 C 0.179(2) 0.179(2) 0.7737(12)
C33_3 C 0.145(2) 0.145(2) 0.7343(12)
C34_3 C 0.1704(17) 0.1704(17) 0.6917(11)
C35_3 C 0.2303(18) 0.2303(18) 0.6858(12)
C36_3 C 0.1313(15) 0.1313(15) 0.6538(10)
O20_2 O 0.6162(14) 0.7250(11) 0.9591(7)
C37_3 C 0.6066(19) 0.7620(11) 0.9977(8)
C38_3 C 0.604(2) 0.8500(12) 0.9927(10)
C47_3 C 0.592(4) 0.9671(13) 0.9395(9)
C48_3 C 0.601(4) 0.8835(15) 0.9495(11)
O25_2 O 0.3911(9) 0.5013(14) 0.9194(4)
O26_2 O 0.6089(9) 0.4987(14) 0.9194(4)
O29_2 O 0.2750(11) 0.3838(14) 0.9591(7)
O30_2 O 0.3838(14) 0.2750(11) 0.9591(7)
H1_3 H 0.840996 0.840996 0.806719
H2_3 H 0.901525 0.901525 0.737174
H3_3 H 0.749901 0.749901 0.652708
H4_3 H 0.658836 0.658836 0.686672
H6_3 H 0.595129 0.595129 0.754379
H8_3 H 0.743484 0.743484 0.841355
H10_3 H 0.841901 0.605992 0.921264
H11_3 H 0.159004 0.159004 0.806719
H12_3 H 0.990838 0.581697 0.905882
H13_3 H 0.256516 0.256516 0.841355
H14_3 H 0.0984755 0.0984755 0.737174
H15_3 H 0.404871 0.404871 0.754379
H17_3 H 0.341164 0.341164 0.686672
H18_3 H 0.250099 0.250099 0.652708
H19_3 H 0.581697 0.990838 0.905882
H20_3 H 0.605992 0.841901 0.921264
C3_4 C 0.0995(13) 0.397(3) 0.0310(10)
C4_4 C 0.0160(11) 0.402(4) 0.0216(5)
C39_4 C 0.397(3) 0.0995(13) 0.0310(10)
C40_4 C 0.402(4) 0.0160(11) 0.0216(5)
H9_4 H 0.123253 0.394134 0.0650581
H23_4 H 0.394134 0.123253 0.0650581
C1_4 C 0.2380(11) 0.3934(19) 0.9977(8)
C2_4 C 0.1500(12) 0.396(2) 0.9927(10)
C23_4 C 0.0329(13) 0.408(4) 0.9395(9)
C24_4 C 0.1165(15) 0.399(4) 0.9495(11)
C37_4 C 0.3934(19) 0.2380(11) 0.9977(8)
C38_4 C 0.396(2) 0.1500(12) 0.9927(10)
C47_4 C 0.408(4) 0.0329(13) 0.9395(9)
C48_4 C 0.399(4) 0.1165(15) 0.9495(11)
H10_4 H 0.158099 0.394008 0.921264
H12_4 H 0.00916229 0.418303 0.905882
H19_4 H 0.418303 0.00916229 0.905882
H20_4 H 0.394008 0.158099 0.921264
C41_4 C 0.408(4) 0.9671(13) 0.0605(9)
C42_4 C 0.399(4) 0.8835(15) 0.0505(11)
O22_4 O 0.3838(14) 0.7250(11) 0.0409(7)
C43_4 C 0.3934(19) 0.7620(11) 0.0023(8)
C44_4 C 0.396(2) 0.8500(12) 0.0073(10)
H22_4 H 0.394008 0.841901 0.0787359
H24_4 H 0.418303 0.990838 0.0941176
O21_4 O 0.4129(16) 0.7292(12) 0.9647(8)
C45_4 C 0.397(3) 0.9005(13) 0.9690(10)
C46_4 C 0.402(4) 0.9840(11) 0.9784(5)
H21_4 H 0.394134 0.876747 0.934942
C5_4 C 0.9671(13) 0.408(4) 0.0605(9)
C6_4 C 0.8835(15) 0.399(4) 0.0505(11)
O10_4 O 0.7250(11) 0.3838(14) 0.0409(7)
C19_4 C 0.7620(11) 0.3934(19) 0.0023(8)
C20_4 C 0.8500(12) 0.396(2) 0.0073(10)
H5_4 H 0.841901 0.394008 0.0787359
H7_4 H 0.990838 0.418303 0.0941176
O9_4 O 0.7292(12) 0.4129(16) 0.9647(8)
C21_4 C 0.9005(13) 0.397(3) 0.9690(10)
C22_4 C 0.9840(11) 0.402(4) 0.9784(5)
H16_4 H 0.876747 0.394134 0.934942
O1_4 O 0.5804(7) 0.4196(7) 0.0001(8)
O5_4 O 0.6568(14) 0.3432(14) 0.1210(7)
O6_4 O 0.5763(13) 0.4237(13) 0.1642(8)
C7_4 C 0.6311(14) 0.3689(14) 0.1578(8)
C8_4 C 0.6654(15) 0.3346(15) 0.1981(8)
C9_4 C 0.6415(17) 0.3585(17) 0.2415(9)
C10_4 C 0.6774(19) 0.3226(19) 0.2798(11)
C11_4 C 0.7370(17) 0.2630(17) 0.2742(13)
C12_4 C 0.7608(18) 0.2392(18) 0.2306(13)
C13_4 C 0.7250(16) 0.2750(16) 0.1922(11)
C14_4 C 0.821(2) 0.179(2) 0.2263(12)
C15_4 C 0.855(2) 0.145(2) 0.2657(12)
C16_4 C 0.8296(17) 0.1704(17) 0.3083(11)
C17_4 C 0.7697(18) 0.2303(18) 0.3142(12)
C18_4 C 0.8687(15) 0.1313(15) 0.3462(10)
O11_4 O 0.4196(7) 0.5804(7) 0.0001(8)
O13_4 O 0.3432(14) 0.6568(14) 0.1210(7)
O14_4 O 0.4237(13) 0.5763(13) 0.1642(8)
C25_4 C 0.3689(14) 0.6311(14) 0.1578(8)
C26_4 C 0.3346(15) 0.6654(15) 0.1981(8)
C27_4 C 0.3585(17) 0.6415(17) 0.2415(9)
C28_4 C 0.3226(19) 0.6774(19) 0.2798(11)
C29_4 C 0.2630(17) 0.7370(17) 0.2742(13)
C30_4 C 0.2392(18) 0.7608(18) 0.2306(13)
C31_4 C 0.2750(16) 0.7250(16) 0.1922(11)
C32_4 C 0.179(2) 0.821(2) 0.2263(12)
C33_4 C 0.145(2) 0.855(2) 0.2657(12)
C34_4 C 0.1704(17) 0.8296(17) 0.3083(11)
C35_4 C 0.2303(18) 0.7697(18) 0.3142(12)
C36_4 C 0.1313(15) 0.8687(15) 0.3462(10)
H1_4 H 0.840996 0.159004 0.193281
H2_4 H 0.901525 0.0984755 0.262826
H3_4 H 0.749901 0.250099 0.347292
H4_4 H 0.658836 0.341164 0.313328
H6_4 H 0.595129 0.404871 0.245621
H8_4 H 0.743484 0.256516 0.158645
H11_4 H 0.159004 0.840996 0.193281
H13_4 H 0.256516 0.743484 0.158645
H14_4 H 0.0984755 0.901525 0.262826
H15_4 H 0.404871 0.595129 0.245621
H17_4 H 0.341164 0.658836 0.313328
H18_4 H 0.250099 0.749901 0.347292
loop_
_geom_bond_atom_site_label_1
_geom_bond_atom_site_label_2
_geom_bond_site_symmetry_1
_geom_bond_site_symmetry_2
Ti1 O1 1_555 1_555
Ti2 O1 1_555 1_555
O3 Ti2 1_555 1_555
O4 Ti1 1_555 1_555
O5 Ti1 1_555 1_555
O6 Zr1 1_555 1_555
O7 C18 1_555 1_555
O8 C18 1_555 1_555
C1 O3 1_555 1_555
C2 C1 1_555 1_555
C3 C2 1_555 1_555
C4 C3 1_555 1_555
C5 C4 1_555 1_555
C6 C5 1_555 1_555
C7 O5 1_555 1_555
C8 C7 1_555 1_555
C9 C8 1_555 1_555
C10 C9 1_555 1_555
C11 C10 1_555 1_555
C12 C11 1_555 1_555
C13 C8 1_555 1_555
C14 C12 1_555 1_555
C15 C14 1_555 1_555
C16 C15 1_555 1_555
C17 C11 1_555 1_555
C18 C16 1_555 1_555
O9 C19 1_555 1_555
O10 C19 1_555 1_555
C19 C20 1_555 1_555
C20 C6 1_555 1_555
C21 C20 1_555 1_555
C22 C4 1_555 1_555
C23 C22 1_555 1_555
C24 C2 1_555 1_555
O17 Ti2 1_555 1_555
O19 Ti2 1_555 1_555
O20 Ti1 1_555 1_555
C37 O19 1_555 1_555
C38 C37 1_555 1_555
C39 C38 1_555 1_555
C40 C39 1_555 1_555
C41 C40 1_555 1_555
C42 C41 1_555 1_555
O21 C43 1_555 1_555
O22 C43 1_555 1_555
C43 C44 1_555 1_555
C44 C42 1_555 1_555
C45 C44 1_555 1_555
C46 C40 1_555 1_555
C47 C46 1_555 1_555
C48 C38 1_555 1_555
Ti6 O22 1_555 1_555
Ti8 O10 1_555 1_555
Ti10 O21 1_555 1_555
Ti12 O9 1_555 1_555
Ti14 O7 1_555 1_555
Zr2 O17 1_555 1_555
Zr4 O8 1_555 1_555
O23 Ti2 1_555 1_555
O32 Ti2 1_555 1_555
O4 C1 1_555 1_555
O6 C7 1_555 1_555
C12 C13 1_555 1_555
C16 C17 1_555 1_555
C21 C22 1_555 1_555
C23 C24 1_555 1_555
O20 C37 1_555 1_555
C45 C46 1_555 1_555
C47 C48 1_555 1_555
Zr2 O23 1_555 1_555
C14 H1 1_555 1_555
C15 H2 1_555 1_555
C17 H3 1_555 1_555
C10 H4 1_555 1_555
C6 H5 1_555 1_555
C9 H6 1_555 1_555
C5 H7 1_555 1_555
C13 H8 1_555 1_555
C3 H9 1_555 1_555
C24 H10 1_555 1_555
C23 H12 1_555 1_555
C21 H16 1_555 1_555
C47 H19 1_555 1_555
C48 H20 1_555 1_555
C45 H21 1_555 1_555
C42 H22 1_555 1_555
C39 H23 1_555 1_555
C41 H24 1_555 1_555
O12 Zr1_2 1_555 1_555
Ti10 O12 1_555 1_555
O34 Zr1_2 1_555 1_555
Zr1_2 O26 1_555 1_555
Ti10 O26 1_555 1_555
Zr1_3 O2 1_555 1_555
Ti12 O2 1_555 1_555
O25 Zr1_3 1_555 1_555
O33 Zr1_3 1_555 1_555
Ti12 O25 1_555 1_555
Ti3 O11 1_555 1_555
Ti4 O11 1_555 1_555
O13 Ti3 1_555 1_555
O14 Zr1_4 1_555 1_555
O15 C36 1_555 1_555
O16 C36 1_555 1_555
C25 O13 1_555 1_555
C26 C25 1_555 1_555
C27 C26 1_555 1_555
C28 C27 1_555 1_555
C29 C28 1_555 1_555
C30 C29 1_555 1_555
C31 C26 1_555 1_555
C32 C30 1_555 1_555
C33 C32 1_555 1_555
C34 C33 1_555 1_555
C35 C29 1_555 1_555
C36 C34 1_555 1_555
O18 Ti4 1_555 1_555
Ti13 O15 1_555 1_555
Zr4 O16 1_555 1_555
O24 Ti4 1_555 1_555
O27 Ti4 1_555 1_555
O28 Ti4 1_555 1_555
O29 Ti3 1_555 1_555
O30 Ti3 1_555 1_555
O31 Ti4 1_555 1_555
O14 C25 1_555 1_555
C30 C31 1_555 1_555
C34 C35 1_555 1_555
O18 Zr2_4 1_555 1_555
Zr2_4 O24 1_555 1_555
C32 H11 1_555 1_555
C31 H13 1_555 1_555
C33 H14 1_555 1_555
C27 H15 1_555 1_555
C28 H17 1_555 1_555
C35 H18 1_555 1_555
C1_2 O27 1_555 1_555
C2_2 C1_2 1_555 1_555
C3_2 C2_2 1_555 1_555
C4_2 C3_2 1_555 1_555
C5_2 C4_2 1_555 1_555
C6_2 C5_2 1_555 1_555
O9_2 C19_2 1_555 1_555
O10_2 C19_2 1_555 1_555
C19_2 C20_2 1_555 1_555
C20_2 C6_2 1_555 1_555
C21_2 C20_2 1_555 1_555
C22_2 C4_2 1_555 1_555
C23_2 C22_2 1_555 1_555
C24_2 C2_2 1_555 1_555
C37_2 O28 1_555 1_555
C38_2 C37_2 1_555 1_555
C39_2 C38_2 1_555 1_555
C40_2 C39_2 1_555 1_555
C41_2 C40_2 1_555 1_555
C42_2 C41_2 1_555 1_555
O21_2 C43_2 1_555 1_555
O22_2 C43_2 1_555 1_555
C43_2 C44_2 1_555 1_555
C44_2 C42_2 1_555 1_555
C45_2 C44_2 1_555 1_555
C46_2 C40_2 1_555 1_555
C47_2 C46_2 1_555 1_555
C48_2 C38_2 1_555 1_555
Ti8 O22_2 1_555 1_555
Ti6 O10_2 1_555 1_555
Ti12 O21_2 1_555 1_555
Ti10 O9_2 1_555 1_555
O29 C1_2 1_555 1_555
C21_2 C22_2 1_555 1_555
C23_2 C24_2 1_555 1_555
O30 C37_2 1_555 1_555
C45_2 C46_2 1_555 1_555
C47_2 C48_2 1_555 1_555
C6_2 H5_2 1_555 1_555
C5_2 H7_2 1_555 1_555
C3_2 H9_2 1_555 1_555
C24_2 H10_2 1_555 1_555
C23_2 H12_2 1_555 1_555
C21_2 H16_2 1_555 1_555
C47_2 H19_2 1_555 1_555
C48_2 H20_2 1_555 1_555
C45_2 H21_2 1_555 1_555
C42_2 H22_2 1_555 1_555
C39_2 H23_2 1_555 1_555
C41_2 H24_2 1_555 1_555
O33_2 Zr2 1_555 1_555
Ti6 O1_2 1_555 1_555
Ti10 O1_2 1_555 1_555
O5_2 Ti6 1_555 1_555
O6_2 Zr2_2 1_555 1_555
O7_2 C18_2 1_555 1_555
O8_2 C18_2 1_555 1_555
C7_2 O5_2 1_555 1_555
C8_2 C7_2 1_555 1_555
C9_2 C8_2 1_555 1_555
C10_2 C9_2 1_555 1_555
C11_2 C10_2 1_555 1_555
C12_2 C11_2 1_555 1_555
C13_2 C8_2 1_555 1_555
C14_2 C12_2 1_555 1_555
C15_2 C14_2 1_555 1_555
C16_2 C15_2 1_555 1_555
C17_2 C11_2 1_555 1_555
C18_2 C16_2 1_555 1_555
Ti14_2 O7_2 1_555 1_555
Zr4_2 O8_2 1_555 1_555
O32_2 Ti10 1_555 1_555
O6_2 C7_2 1_555 1_555
C12_2 C13_2 1_555 1_555
C16_2 C17_2 1_555 1_555
C14_2 H1_2 1_555 1_555
C15_2 H2_2 1_555 1_555
C17_2 H3_2 1_555 1_555
C10_2 H4_2 1_555 1_555
C9_2 H6_2 1_555 1_555
C13_2 H8_2 1_555 1_555
Ti8 O11_2 1_555 1_555
Ti12 O11_2 1_555 1_555
O13_2 Ti8 1_555 1_555
O14_2 Zr2_3 1_555 1_555
O15_2 C36_2 1_555 1_555
O16_2 C36_2 1_555 1_555
C25_2 O13_2 1_555 1_555
C26_2 C25_2 1_555 1_555
C27_2 C26_2 1_555 1_555
C28_2 C27_2 1_555 1_555
C29_2 C28_2 1_555 1_555
C30_2 C29_2 1_555 1_555
C31_2 C26_2 1_555 1_555
C32_2 C30_2 1_555 1_555
C33_2 C32_2 1_555 1_555
C34_2 C33_2 1_555 1_555
C35_2 C29_2 1_555 1_555
C36_2 C34_2 1_555 1_555
Ti13_2 O15_2 1_555 1_555
Zr4_2 O16_2 1_555 1_555
O31_2 Ti12 1_555 1_555
O14_2 C25_2 1_555 1_555
C30_2 C31_2 1_555 1_555
C34_2 C35_2 1_555 1_555
C32_2 H11_2 1_555 1_555
C31_2 H13_2 1_555 1_555
C33_2 H14_2 1_555 1_555
C27_2 H15_2 1_555 1_555
C28_2 H17_2 1_555 1_555
C35_2 H18_2 1_555 1_555
O34_2 Zr2_4 1_555 1_555
C6_3 C5_3 1_555 1_555
O10_3 C19_3 1_555 1_555
C19_3 C20_3 1_555 1_555
C20_3 C6_3 1_555 1_555
Ti8_2 O10_3 1_555 1_555
C6_3 H5_3 1_555 1_555
C5_3 H7_3 1_555 1_555
Ti14_2 O9_3 1_555 1_555
C21_3 C22_3 1_555 1_555
C21_3 H16_3 1_555 1_555
C42_3 C41_3 1_555 1_555
O22_3 C43_3 1_555 1_555
C43_3 C44_3 1_555 1_555
C44_3 C42_3 1_555 1_555
Ti6_2 O22_3 1_555 1_555
C42_3 H22_3 1_555 1_555
C41_3 H24_3 1_555 1_555
Ti13_2 O21_3 1_555 1_555
C45_3 C46_3 1_555 1_555
C45_3 H21_3 1_555 1_555
O3_2 Ti13 1_555 1_555
C4_3 C3_3 1_555 1_555
O17_2 Ti13 1_555 1_555
O18_2 Ti14 1_555 1_555
O19_2 Ti13 1_555 1_555
C40_3 C39_3 1_555 1_555
Ti6_2 O17_2 1_555 1_555
Ti8_2 O18_2 1_555 1_555
Zr4 O17_2 1_555 1_555
O23_2 Ti13 1_555 1_555
O24_2 Ti14 1_555 1_555
O27_2 Ti14 1_555 1_555
O28_2 Ti14 1_555 1_555
O18_2 Zr4 1_555 1_555
Ti6_2 O24_2 1_555 1_555
Ti8_2 O23_2 1_555 1_555
Zr4 O23_2 1_555 1_555
Zr4 O24_2 1_555 1_555
C3_3 H9_3 1_555 1_555
C39_3 H23_3 1_555 1_555
Ti1_2 O1_3 1_555 1_555
Zr4_2 O2_2 1_555 1_555
O2_2 Ti1_2 1_555 1_555
O4_2 Ti1_2 1_555 1_555
O5_3 Ti1_2 1_555 1_555
O6_3 Zr4_2 1_555 1_555
O31 C18_3 1_555 1_555
O34_2 C18_3 1_555 1_555
C2_3 C1_3 1_555 1_555
C7_3 O5_3 1_555 1_555
C8_3 C7_3 1_555 1_555
C9_3 C8_3 1_555 1_555
C10_3 C9_3 1_555 1_555
C11_3 C10_3 1_555 1_555
C12_3 C11_3 1_555 1_555
C13_3 C8_3 1_555 1_555
C14_3 C12_3 1_555 1_555
C15_3 C14_3 1_555 1_555
C16_3 C15_3 1_555 1_555
C17_3 C11_3 1_555 1_555
C18_3 C16_3 1_555 1_555
C24_3 C2_3 1_555 1_555
Ti3_2 O11_3 1_555 1_555
O12_2 Zr4_2 1_555 1_555
O13_3 Ti3_2 1_555 1_555
O14_3 Zr4_2 1_555 1_555
O32 C36_3 1_555 1_555
O33_2 C36_3 1_555 1_555
C25_3 O13_3 1_555 1_555
C26_3 C25_3 1_555 1_555
C27_3 C26_3 1_555 1_555
C28_3 C27_3 1_555 1_555
C29_3 C28_3 1_555 1_555
C30_3 C29_3 1_555 1_555
C31_3 C26_3 1_555 1_555
C32_3 C30_3 1_555 1_555
C33_3 C32_3 1_555 1_555
C34_3 C33_3 1_555 1_555
C35_3 C29_3 1_555 1_555
C36_3 C34_3 1_555 1_555
O20_2 Ti1_2 1_555 1_555
C38_3 C37_3 1_555 1_555
C48_3 C38_3 1_555 1_555
Ti13_2 O12_2 1_555 1_555
Ti14_2 O2_2 1_555 1_555
O25_2 Zr4_2 1_555 1_555
O26_2 Ti1_2 1_555 1_555
O29_2 Ti3_2 1_555 1_555
O30_2 Ti3_2 1_555 1_555
Zr4_2 O26_2 1_555 1_555
O4_2 C1_3 1_555 1_555
O6_3 C7_3 1_555 1_555
C12_3 C13_3 1_555 1_555
C16_3 C17_3 1_555 1_555
C23_3 C24_3 1_555 1_555
Ti3_2 O12_2 1_555 1_555
Ti3_2 O25_2 1_555 1_555
O14_3 C25_3 1_555 1_555
C30_3 C31_3 1_555 1_555
C34_3 C35_3 1_555 1_555
O20_2 C37_3 1_555 1_555
C47_3 C48_3 1_555 1_555
Ti13_2 O26_2 1_555 1_555
Ti14_2 O25_2 1_555 1_555
C14_3 H1_3 1_555 1_555
C15_3 H2_3 1_555 1_555
C17_3 H3_3 1_555 1_555
C10_3 H4_3 1_555 1_555
C9_3 H6_3 1_555 1_555
C13_3 H8_3 1_555 1_555
C24_3 H10_3 1_555 1_555
C32_3 H11_3 1_555 1_555
C23_3 H12_3 1_555 1_555
C31_3 H13_3 1_555 1_555
C33_3 H14_3 1_555 1_555
C27_3 H15_3 1_555 1_555
C28_3 H17_3 1_555 1_555
C35_3 H18_3 1_555 1_555
C47_3 H19_3 1_555 1_555
C48_3 H20_3 1_555 1_555
C4_4 C3_4 1_555 1_555
C40_4 C39_4 1_555 1_555
C3_4 H9_4 1_555 1_555
C39_4 H23_4 1_555 1_555
C2_4 C1_4 1_555 1_555
C24_4 C2_4 1_555 1_555
C38_4 C37_4 1_555 1_555
C48_4 C38_4 1_555 1_555
O29_2 C1_4 1_555 1_555
C23_4 C24_4 1_555 1_555
O30_2 C37_4 1_555 1_555
C47_4 C48_4 1_555 1_555
C24_4 H10_4 1_555 1_555
C23_4 H12_4 1_555 1_555
C47_4 H19_4 1_555 1_555
C48_4 H20_4 1_555 1_555
C42_4 C41_4 1_555 1_555
O22_4 C43_4 1_555 1_555
C43_4 C44_4 1_555 1_555
C44_4 C42_4 1_555 1_555
Ti8_2 O22_4 1_555 1_555
C42_4 H22_4 1_555 1_555
C41_4 H24_4 1_555 1_555
Ti14_2 O21_4 1_555 1_555
C45_4 C46_4 1_555 1_555
C45_4 H21_4 1_555 1_555
C6_4 C5_4 1_555 1_555
O10_4 C19_4 1_555 1_555
C19_4 C20_4 1_555 1_555
C20_4 C6_4 1_555 1_555
Ti6_2 O10_4 1_555 1_555
C6_4 H5_4 1_555 1_555
C5_4 H7_4 1_555 1_555
Ti13_2 O9_4 1_555 1_555
C21_4 C22_4 1_555 1_555
C21_4 H16_4 1_555 1_555
Ti6_2 O1_4 1_555 1_555
O5_4 Ti6_2 1_555 1_555
O6_4 Zr4 1_555 1_555
O31_2 C18_4 1_555 1_555
O33 C18_4 1_555 1_555
C7_4 O5_4 1_555 1_555
C8_4 C7_4 1_555 1_555
C9_4 C8_4 1_555 1_555
C10_4 C9_4 1_555 1_555
C11_4 C10_4 1_555 1_555
C12_4 C11_4 1_555 1_555
C13_4 C8_4 1_555 1_555
C14_4 C12_4 1_555 1_555
C15_4 C14_4 1_555 1_555
C16_4 C15_4 1_555 1_555
C17_4 C11_4 1_555 1_555
C18_4 C16_4 1_555 1_555
Ti8_2 O11_4 1_555 1_555
O13_4 Ti8_2 1_555 1_555
O14_4 Zr4 1_555 1_555
O32_2 C36_4 1_555 1_555
O34 C36_4 1_555 1_555
C25_4 O13_4 1_555 1_555
C26_4 C25_4 1_555 1_555
C27_4 C26_4 1_555 1_555
C28_4 C27_4 1_555 1_555
C29_4 C28_4 1_555 1_555
C30_4 C29_4 1_555 1_555
C31_4 C26_4 1_555 1_555
C32_4 C30_4 1_555 1_555
C33_4 C32_4 1_555 1_555
C34_4 C33_4 1_555 1_555
C35_4 C29_4 1_555 1_555
C36_4 C34_4 1_555 1_555
O6_4 C7_4 1_555 1_555
C12_4 C13_4 1_555 1_555
C16_4 C17_4 1_555 1_555
O14_4 C25_4 1_555 1_555
C30_4 C31_4 1_555 1_555
C34_4 C35_4 1_555 1_555
C14_4 H1_4 1_555 1_555
C15_4 H2_4 1_555 1_555
C17_4 H3_4 1_555 1_555
C10_4 H4_4 1_555 1_555
C9_4 H6_4 1_555 1_555
C13_4 H8_4 1_555 1_555
C32_4 H11_4 1_555 1_555
C31_4 H13_4 1_555 1_555
C33_4 H14_4 1_555 1_555
C27_4 H15_4 1_555 1_555
C28_4 H17_4 1_555 1_555
C35_4 H18_4 1_555 1_555

#END
