
###############################################################################
#
# This file contains modified crystal structure data generated from the
# MOF subset of the Cambridge Structural Database (CSD) v543 
# hosted by the Cambridge Crystallographic Data Centre (CCDC).
#
# This work is licensed under the Creative Commons
# Attribution-NonCommercial-ShareAlike 4.0 International License.
# To view a copy of this license, visit
# http://creativecommons.org/licenses/by-nc-sa/4.0/
# or send a letter to
# Creative Commons, PO Box 1866, Mountain View, CA 94042, USA.
#
# CIF created using the CSD Python API on 29 September 2022
# The structure has been converted into the P1 space group
# The structure has a 3D framework
# The original CSD entry WONXIH is in the monoclinic crystal system
# The framework has been calculated to contain at least 10.0% void space
# The void calculation uses a probe of radius 1.32A, grid spacing 0.4
#
###############################################################################

data_WONXIH
_chemical_formula_moiety         '(C56 H32 Cu4 Gd4 N8 O28)n'
_symmetry_cell_setting           triclinic
_symmetry_space_group_name_H-M   'P 1'
_symmetry_Int_Tables_number      1
_space_group_name_Hall           'P 1'
loop_
_symmetry_equiv_pos_site_id
_symmetry_equiv_pos_as_xyz
1 x,y,z
_cell_length_a                   9.5441(4)
_cell_length_b                   21.5841(11)
_cell_length_c                   9.2209(5)
_cell_angle_alpha                90
_cell_angle_beta                 116.219(3)
_cell_angle_gamma                90
_cell_volume                     1704.08
loop_
_atom_site_label
_atom_site_type_symbol
_atom_site_fract_x
_atom_site_fract_y
_atom_site_fract_z
C13 C 0.5077(5) 0.5354(2) 0.0113(5)
O6 O 0.6434(4) 0.55661(15) 0.0919(4)
O8 O 0.0386(4) 0.06102(15) 0.1369(4)
Cu3 Cu 0.19136(7) 0.85407(3) 0.04005(9)
Cu4 Cu 0.80864(7) 0.35407(3) 0.45995(9)
Gd6 Gd 0.85832(2) 0.491540(10) 0.12410(3)
C15 C 0.0764(6) 0.7327(2) 0.0287(6)
C20 C 0.0243(5) 0.6195(2) 0.0122(5)
C21 C 0.6228(6) 0.3674(3) 0.6281(6)
H13 H 0.7018 0.3436 0.7054
C22 C 0.4991(6) 0.3844(3) 0.6577(6)
H14 H 0.4954 0.3726 0.7530
C23 C 0.3814(6) 0.4190(3) 0.5441(6)
H15 H 0.2967 0.4314 0.5614
C24 C 0.3902(5) 0.4352(2) 0.4033(6)
C25 C 0.5190(6) 0.4174(2) 0.3840(6)
H16 H 0.5263 0.4293 0.2907
C26 C 0.2580(5) 0.4700(2) 0.2691(6)
N3 N 0.0573(5) 0.79209(19) 0.0587(6)
N5 N 0.6360(5) 0.3830(2) 0.4954(5)
O10 O 0.0362(4) 0.07543(17) 0.4481(4)
O13 O 0.2854(4) 0.49528(15) 0.1631(4)
O14 O 0.2854(4) 0.00472(15) 0.6631(4)
O15 O 0.1314(4) 0.47089(18) 0.2786(4)
O18 O 0.6162(4) 0.43357(15) 0.0513(4)
O21 O 0.3566(4) 0.05661(15) 0.4081(4)
Gd1 Gd 0.14168(2) 0.508460(10) 0.87590(3)
C2 C 0.0098(5) 0.3164(2) 0.9550(6)
C3 C 0.1260(6) 0.3021(3) 0.9068(7)
H2 H 0.1866 0.3333 0.8933
C4 C 0.1490(6) 0.2411(3) 0.8796(7)
H3 H 0.2259 0.2306 0.8479
C5 C 0.0576(6) 0.1956(3) 0.8995(7)
H4 H 0.0766 0.1545 0.8833
O1 O 0.0362(4) 0.42457(17) 0.9481(4)
O5 O 0.3838(4) 0.56643(15) 0.9487(4)
H9 H 0.1526 0.7237 0.9948
C27 C 0.4923(5) 0.4646(2) 0.9887(5)
O11 O 0.1121(4) 0.61256(16) 0.9452(4)
O20 O 0.3566(4) 0.44339(15) 0.9081(4)
O23 O 0.1178(4) 0.55829(15) 0.6289(4)
O25 O 0.0386(4) 0.43898(15) 0.6369(4)
Gd2 Gd 0.14168(2) 0.991540(10) 0.37590(3)
N6 N 0.3640(5) 0.8830(2) 0.0046(5)
O12 O 0.1121(4) 0.88744(16) 0.4452(4)
O19 O 0.3838(4) 0.93357(15) 0.4487(4)
O22 O 0.1178(4) 0.94171(15) 0.1289(4)
C28 C 0.0227(5) 0.9658(2) 0.9964(5)
H1 H 0.8474 0.2763 0.0052
C7 C 0.6228(6) 0.1326(3) 0.1281(6)
H5 H 0.7018 0.1564 0.2054
C8 C 0.4991(6) 0.1156(3) 0.1577(6)
H6 H 0.4954 0.1274 0.2530
C9 C 0.3814(6) 0.0810(3) 0.0441(6)
H7 H 0.2967 0.0686 0.0614
C14 C 0.9773(5) 0.0342(2) 0.0036(5)
O2 O 0.8879(4) 0.38744(16) 0.0548(4)
C16 C 0.9902(5) 0.6836(2) 0.0450(6)
C17 C 0.8740(6) 0.6979(3) 0.0932(7)
H10 H 0.8134 0.6667 0.1067
C18 C 0.8510(6) 0.7589(3) 0.1204(7)
H11 H 0.7741 0.7694 0.1521
C19 C 0.9424(6) 0.8044(3) 0.1005(7)
H12 H 0.9234 0.8455 0.1167
O9 O 0.9638(4) 0.57543(17) 0.0519(4)
Cu1 Cu 0.80864(7) 0.14593(3) 0.95995(9)
C1 C 0.9236(6) 0.2673(2) 0.9713(6)
C6 C 0.9757(5) 0.3805(2) 0.9878(5)
C10 C 0.3902(5) 0.0648(2) 0.9033(6)
C11 C 0.5190(6) 0.0826(2) 0.8840(6)
H8 H 0.5263 0.0707 0.7907
C12 C 0.2580(5) 0.0300(2) 0.7691(6)
N1 N 0.9427(5) 0.20791(19) 0.9413(6)
N2 N 0.6360(5) 0.1170(2) 0.9954(5)
O4 O 0.1314(4) 0.02911(18) 0.7786(4)
O7 O 0.8822(4) 0.05829(15) 0.8711(4)
Gd7 Gd 0.85832(2) 0.008460(10) 0.62410(3)
O16 O 0.8686(4) 0.52911(18) 0.7214(4)
O17 O 0.8686(4) 0.97089(18) 0.2214(4)
O24 O 0.9614(4) 0.93898(15) 0.8631(4)
C16_2 C 0.0098(5) 0.1836(2) 0.4550(6)
C17_2 C 0.1260(6) 0.1979(3) 0.4068(7)
H10_2 H 0.1866 0.1667 0.3933
C18_2 C 0.1490(6) 0.2589(3) 0.3796(7)
H11_2 H 0.2259 0.2694 0.3479
C19_2 C 0.0576(6) 0.3044(3) 0.3995(7)
H12_2 H 0.0766 0.3455 0.3833
Cu1_2 Cu 0.19136(7) 0.64593(3) 0.54005(9)
C1_2 C 0.0764(6) 0.7673(2) 0.5287(6)
H1_2 H 0.1526 0.7763 0.4948
C6_2 C 0.0243(5) 0.8805(2) 0.5122(5)
C7_2 C 0.3772(6) 0.6326(3) 0.3719(6)
H5_2 H 0.2982 0.6564 0.2946
C8_2 C 0.5009(6) 0.6156(3) 0.3423(6)
H6_2 H 0.5046 0.6274 0.2470
C9_2 C 0.6186(6) 0.5810(3) 0.4559(6)
H7_2 H 0.7033 0.5686 0.4386
C10_2 C 0.6098(5) 0.5648(2) 0.5967(6)
C11_2 C 0.4810(6) 0.5826(2) 0.6160(6)
H8_2 H 0.4737 0.5707 0.7093
C12_2 C 0.7420(5) 0.5300(2) 0.7309(6)
C14_2 C 0.0227(5) 0.5342(2) 0.4964(5)
N1_2 N 0.0573(5) 0.70791(19) 0.5587(6)
N2_2 N 0.3640(5) 0.6170(2) 0.5046(5)
O3 O 0.7146(4) 0.50472(15) 0.8369(4)
C13_2 C 0.4923(5) 0.0354(2) 0.4887(5)
O5_2 O 0.6162(4) 0.06643(15) 0.5513(4)
C15_2 C 0.9236(6) 0.2327(2) 0.4713(6)
H9_2 H 0.8474 0.2237 0.5052
C20_2 C 0.9757(5) 0.1195(2) 0.4878(5)
N3_2 N 0.9427(5) 0.29209(19) 0.4413(6)
O11_2 O 0.8879(4) 0.11256(16) 0.5548(4)
C2_2 C 0.9902(5) 0.8164(2) 0.5450(6)
C3_2 C 0.8740(6) 0.8021(3) 0.5932(7)
H2_2 H 0.8134 0.8333 0.6067
C4_2 C 0.8510(6) 0.7411(3) 0.6204(7)
H3_2 H 0.7741 0.7306 0.6521
C5_2 C 0.9424(6) 0.6956(3) 0.6005(7)
H4_2 H 0.9234 0.6545 0.6167
O1_2 O 0.9638(4) 0.92457(17) 0.5519(4)
O8_2 O 0.9614(4) 0.56102(15) 0.3631(4)
C24_2 C 0.6098(5) 0.9352(2) 0.0967(6)
C25_2 C 0.4810(6) 0.9174(2) 0.1160(6)
H16_2 H 0.4737 0.9293 0.2093
C26_2 C 0.7420(5) 0.9700(2) 0.2309(6)
C27_2 C 0.5077(5) 0.9646(2) 0.5113(5)
C28_2 C 0.9773(5) 0.4658(2) 0.5036(5)
O13_2 O 0.7146(4) 0.99528(15) 0.3369(4)
O20_2 O 0.6434(4) 0.94339(15) 0.5919(4)
O22_2 O 0.8822(4) 0.44171(15) 0.3711(4)
C21_2 C 0.3772(6) 0.8674(3) 0.8719(6)
H13_2 H 0.2982 0.8436 0.7946
C22_2 C 0.5009(6) 0.8844(3) 0.8423(6)
H14_2 H 0.5046 0.8726 0.7470
C23_2 C 0.6186(6) 0.9190(3) 0.9559(6)
H15_2 H 0.7033 0.9314 0.9386
loop_
_geom_bond_atom_site_label_1
_geom_bond_atom_site_label_2
_geom_bond_site_symmetry_1
_geom_bond_site_symmetry_2
O6 C13 1_555 1_555
Cu3 N3 1_555 1_555
Cu4 N5 1_555 1_555
Gd6 O6 1_555 1_555
C21 H13 1_555 1_555
C22 C21 1_555 1_555
H14 C22 1_555 1_555
C23 C22 1_555 1_555
H15 C23 1_555 1_555
C24 C23 1_555 1_555
C25 C24 1_555 1_555
H16 C25 1_555 1_555
C26 C24 1_555 1_555
N3 C15 1_555 1_555
N5 C21 1_555 1_555
O18 Gd6 1_555 1_555
C25 N5 1_555 1_555
C26 O13 1_555 1_555
C26 O15 1_555 1_555
Gd1 O1 1_555 1_555
C3 C2 1_555 1_555
H2 C3 1_555 1_555
C4 C3 1_555 1_555
H3 C4 1_555 1_555
C5 C4 1_555 1_555
H4 C5 1_555 1_555
O5 Gd1 1_555 1_555
O11 Gd1 1_555 1_555
O20 Gd1 1_555 1_555
O23 Gd1 1_555 1_555
O25 Gd1 1_555 1_555
C27 O20 1_555 1_555
N6 Cu3 1_555 1_555
O12 Gd2 1_555 1_555
O19 Gd2 1_555 1_555
O22 Cu3 1_555 1_555
Gd2 O22 1_555 1_555
C7 H5 1_555 1_555
C8 C7 1_555 1_555
H6 C8 1_555 1_555
C9 C8 1_555 1_555
H7 C9 1_555 1_555
Gd6 O2 1_555 1_555
C17 C16 1_555 1_555
H10 C17 1_555 1_555
C18 C17 1_555 1_555
H11 C18 1_555 1_555
C19 C18 1_555 1_555
H12 C19 1_555 1_555
O9 Gd6 1_555 1_555
Cu1 N1 1_555 1_555
C11 C10 1_555 1_555
H8 C11 1_555 1_555
C12 C10 1_555 1_555
N1 C1 1_555 1_555
N2 Cu1 1_555 1_555
O14 C12 1_555 1_555
O4 C12 1_555 1_555
O7 Cu1 1_555 1_555
Gd7 O7 1_555 1_555
C11 N2 1_555 1_555
C17_2 C16_2 1_555 1_555
H10_2 C17_2 1_555 1_555
C18_2 C17_2 1_555 1_555
H11_2 C18_2 1_555 1_555
C19_2 C18_2 1_555 1_555
H12_2 C19_2 1_555 1_555
Cu1_2 N1_2 1_555 1_555
C1_2 H1_2 1_555 1_555
C7_2 H5_2 1_555 1_555
C8_2 C7_2 1_555 1_555
H6_2 C8_2 1_555 1_555
C9_2 C8_2 1_555 1_555
H7_2 C9_2 1_555 1_555
C10_2 C9_2 1_555 1_555
C11_2 C10_2 1_555 1_555
H8_2 C11_2 1_555 1_555
C12_2 C10_2 1_555 1_555
C14_2 O23 1_555 1_555
N1_2 C1_2 1_555 1_555
N2_2 Cu1_2 1_555 1_555
O12 C6_2 1_555 1_555
O3 C12_2 1_555 1_555
O16 C12_2 1_555 1_555
O23 Cu1_2 1_555 1_555
C7_2 N2_2 1_555 1_555
C11_2 N2_2 1_555 1_555
C13_2 O5_2 1_555 1_555
O5_2 Gd7 1_555 1_555
O21 C13_2 1_555 1_555
Cu4 N3_2 1_555 1_555
C15_2 H9_2 1_555 1_555
N3_2 C15_2 1_555 1_555
O11_2 Gd7 1_555 1_555
C20_2 O11_2 1_555 1_555
C3_2 C2_2 1_555 1_555
H2_2 C3_2 1_555 1_555
C4_2 C3_2 1_555 1_555
H3_2 C4_2 1_555 1_555
C5_2 C4_2 1_555 1_555
H4_2 C5_2 1_555 1_555
Gd6 O8_2 1_555 1_555
C25_2 C24_2 1_555 1_555
H16_2 C25_2 1_555 1_555
C26_2 C24_2 1_555 1_555
O22_2 Cu4 1_555 1_555
Gd6 O22_2 1_555 1_555
C25_2 N6 1_555 1_555
C26_2 O13_2 1_555 1_555
C26_2 O17 1_555 1_555
C27_2 O19 1_555 1_555
C27_2 O20_2 1_555 1_555
C28_2 O22_2 1_555 1_555
C21_2 H13_2 1_555 1_555
C22_2 C21_2 1_555 1_555
H14_2 C22_2 1_555 1_555
C23_2 C22_2 1_555 1_555
H15_2 C23_2 1_555 1_555

#END
