
###############################################################################
#
# This file contains modified crystal structure data generated from the
# MOF subset of the Cambridge Structural Database (CSD) v543 
# hosted by the Cambridge Crystallographic Data Centre (CCDC).
#
# This work is licensed under the Creative Commons
# Attribution-NonCommercial-ShareAlike 4.0 International License.
# To view a copy of this license, visit
# http://creativecommons.org/licenses/by-nc-sa/4.0/
# or send a letter to
# Creative Commons, PO Box 1866, Mountain View, CA 94042, USA.
#
# CIF created using the CSD Python API on 29 September 2022
# The structure has been converted into the P1 space group
# The structure has a 3D framework
# The original CSD entry WONZUV is in the tetragonal crystal system
# The framework has been calculated to contain at least 10.0% void space
# The void calculation uses a probe of radius 1.32A, grid spacing 0.4
#
###############################################################################

data_WONZUV
_chemical_formula_moiety         '(C128 H96 F44 N16 Si15 Zn5)n'
_symmetry_cell_setting           triclinic
_symmetry_space_group_name_H-M   'P 1'
_symmetry_Int_Tables_number      1
_space_group_name_Hall           'P 1'
loop_
_symmetry_equiv_pos_site_id
_symmetry_equiv_pos_as_xyz
1 x,y,z
_cell_length_a                   22.0593(13)
_cell_length_b                   22.0593(13)
_cell_length_c                   15.0937(18)
_cell_angle_alpha                90
_cell_angle_beta                 90
_cell_angle_gamma                90
_cell_volume                     7344.79
loop_
_atom_site_label
_atom_site_type_symbol
_atom_site_fract_x
_atom_site_fract_y
_atom_site_fract_z
Zn1 Zn 0.0000 0.0000 0.2500
Si1 Si 0.0000 0.0000 0.0000
F2 F 0.0000 0.0000 0.1134(2)
N1 N 0.06787(10) 0.06787(10) 0.2500
C1 C 0.06911(16) 0.11100(15) 0.1883(2)
H1 H 0.0388 0.1103 0.1436
C2 C 0.11251(17) 0.15727(16) 0.1854(3)
H2 H 0.1113 0.1876 0.1408
C3 C 0.15731(14) 0.15731(14) 0.2500
C4 C 0.20514(14) 0.20514(14) 0.2500
C5 C 0.1909(2) 0.2632(2) 0.2295(4)
H3 H 0.1503 0.2735 0.2151
Zn3 Zn 0.5000 0.5000 0.2500
F3 F 0.07277(13) 0.01785(16) 0.0000
F7 F 0.0000 0.0000 0.3866(2)
N2 N 0.43213(10) 0.43213(10) 0.2500
C6 C 0.11100(15) 0.06911(16) 0.3117(2)
C7 C 0.38900(15) 0.43089(16) 0.1883(2)
C8 C 0.43089(16) 0.38900(15) 0.3117(2)
H4 H 0.1103 0.0388 0.3564
H5 H 0.4612 0.3897 0.3564
H6 H 0.3897 0.4612 0.1436
C13 C 0.15727(16) 0.11251(17) 0.3146(3)
C14 C 0.34273(16) 0.38749(17) 0.1854(3)
C15 C 0.38749(17) 0.34273(16) 0.3146(3)
H11 H 0.1876 0.1113 0.3592
H12 H 0.3887 0.3124 0.3592
H13 H 0.3124 0.3887 0.1408
C20 C 0.34269(14) 0.34269(14) 0.2500
C23 C 0.29486(14) 0.29486(14) 0.2500
C26 C 0.2368(2) 0.3091(2) 0.2295(4)
C27 C 0.3091(2) 0.2368(2) 0.2705(4)
C28 C 0.2632(2) 0.1909(2) 0.2705(4)
H18 H 0.3497 0.2265 0.2849
H19 H 0.2735 0.1503 0.2849
H20 H 0.2265 0.3497 0.2151
Si1_2 Si 0.0000 0.0000 1.0000
Zn2 Zn 0.0000 0.0000 0.7500
F3_2 F 0.07277(13) 0.01785(16) 1.0000
F6 F 0.0000 0.0000 0.8866(2)
Zn1_2 Zn -0.0000 1.0000 0.2500
Si1_3 Si 0.0000 1.0000 0.0000
F1 F 0.01785(16) 0.92723(13) 0.0000
F2_2 F -0.0000 1.0000 0.1134(2)
F7_2 F 0.0000 1.0000 0.3866(2)
N5 N 0.06787(10) 0.93213(10) 0.2500
Si1_4 Si 0.0000 1.0000 1.0000
F1_2 F 0.01785(16) 0.92723(13) 1.0000
Zn2_2 Zn 0.0000 1.0000 0.7500
F6_2 F 0.0000 1.0000 0.8866(2)
Zn1_3 Zn 1.0000 0.0000 0.2500
Si1_5 Si 1.0000 0.0000 0.0000
F2_3 F 1.0000 0.0000 0.1134(2)
F5 F 0.98215(16) 0.07277(13) 0.0000
F7_3 F 1.0000 0.0000 0.3866(2)
N3 N 0.93213(10) 0.06787(10) 0.2500
N4 N 0.56787(10) 0.43213(10) 0.2500
C9 C 0.88900(15) 0.06911(16) 0.1883(2)
C10 C 0.93089(16) 0.11100(15) 0.3117(2)
C11 C 0.56911(16) 0.38900(15) 0.1883(2)
C12 C 0.61100(15) 0.43089(16) 0.3117(2)
H7 H 0.8897 0.0388 0.1436
H8 H 0.9612 0.1103 0.3564
H9 H 0.6103 0.4612 0.3564
H10 H 0.5388 0.3897 0.1436
C16 C 0.84273(16) 0.11251(17) 0.1854(3)
C17 C 0.88749(17) 0.15727(16) 0.3146(3)
C18 C 0.61251(17) 0.34273(16) 0.1854(3)
C19 C 0.65727(16) 0.38749(17) 0.3146(3)
H14 H 0.8124 0.1113 0.1408
H15 H 0.8887 0.1876 0.3592
H16 H 0.6876 0.3887 0.3592
H17 H 0.6113 0.3124 0.1408
C21 C 0.84269(14) 0.15731(14) 0.2500
C22 C 0.65731(14) 0.34269(14) 0.2500
C24 C 0.79486(14) 0.20514(14) 0.2500
C25 C 0.70514(14) 0.29486(14) 0.2500
C29 C 0.7368(2) 0.1909(2) 0.2295(4)
C30 C 0.6909(2) 0.2368(2) 0.2295(4)
C31 C 0.7632(2) 0.3091(2) 0.2705(4)
C32 C 0.8091(2) 0.2632(2) 0.2705(4)
H21 H 0.7265 0.1503 0.2151
H22 H 0.7735 0.3497 0.2849
H23 H 0.8497 0.2735 0.2849
H24 H 0.6503 0.2265 0.2151
Si1_6 Si 1.0000 0.0000 1.0000
Zn2_3 Zn 1.0000 0.0000 0.7500
F5_2 F 0.98215(16) 0.07277(13) 1.0000
F6_3 F 1.0000 0.0000 0.8866(2)
Zn1_4 Zn 1.0000 1.0000 0.2500
Si1_7 Si 1.0000 1.0000 0.0000
F2_4 F 1.0000 1.0000 0.1134(2)
F4 F 0.92723(13) 0.98215(16) 0.0000
F7_4 F 1.0000 1.0000 0.3866(2)
N6 N 0.93213(10) 0.93213(10) 0.2500
Si1_8 Si 1.0000 1.0000 1.0000
Zn2_4 Zn 1.0000 1.0000 0.7500
F4_2 F 0.92723(13) 0.98215(16) 1.0000
F6_4 F 1.0000 1.0000 0.8866(2)
N4_2 N 0.56787(10) 0.56787(10) 0.2500
C9_2 C 0.93089(16) 0.88900(15) 0.1883(2)
C10_2 C 0.88900(15) 0.93089(16) 0.3117(2)
C11_2 C 0.61100(15) 0.56911(16) 0.1883(2)
C12_2 C 0.56911(16) 0.61100(15) 0.3117(2)
H7_2 H 0.9612 0.8897 0.1436
H8_2 H 0.8897 0.9612 0.3564
H9_2 H 0.5388 0.6103 0.3564
H10_2 H 0.6103 0.5388 0.1436
C16_2 C 0.88749(17) 0.84273(16) 0.1854(3)
C17_2 C 0.84273(16) 0.88749(17) 0.3146(3)
C18_2 C 0.65727(16) 0.61251(17) 0.1854(3)
C19_2 C 0.61251(17) 0.65727(16) 0.3146(3)
H14_2 H 0.8887 0.8124 0.1408
H15_2 H 0.8124 0.8887 0.3592
H16_2 H 0.6113 0.6876 0.3592
H17_2 H 0.6876 0.6113 0.1408
C21_2 C 0.84269(14) 0.84269(14) 0.2500
C22_2 C 0.65731(14) 0.65731(14) 0.2500
C24_2 C 0.79486(14) 0.79486(14) 0.2500
C25_2 C 0.70514(14) 0.70514(14) 0.2500
C29_2 C 0.8091(2) 0.7368(2) 0.2295(4)
C30_2 C 0.7632(2) 0.6909(2) 0.2295(4)
C31_2 C 0.6909(2) 0.7632(2) 0.2705(4)
C32_2 C 0.7368(2) 0.8091(2) 0.2705(4)
H21_2 H 0.8497 0.7265 0.2151
H22_2 H 0.6503 0.7735 0.2849
H23_2 H 0.7265 0.8497 0.2849
H24_2 H 0.7735 0.6503 0.2151
C1_2 C 0.11100(15) 0.93089(16) 0.1883(2)
H1_2 H 0.1103 0.9612 0.1436
C2_2 C 0.15727(16) 0.88749(17) 0.1854(3)
H2_2 H 0.1876 0.8887 0.1408
C3_2 C 0.15731(14) 0.84269(14) 0.2500
C4_2 C 0.20514(14) 0.79486(14) 0.2500
C5_2 C 0.2632(2) 0.8091(2) 0.2295(4)
H3_2 H 0.2735 0.8497 0.2151
N2_2 N 0.43213(10) 0.56787(10) 0.2500
C6_2 C 0.06911(16) 0.88900(15) 0.3117(2)
C7_2 C 0.43089(16) 0.61100(15) 0.1883(2)
C8_2 C 0.38900(15) 0.56911(16) 0.3117(2)
H4_2 H 0.0388 0.8897 0.3564
H5_2 H 0.3897 0.5388 0.3564
H6_2 H 0.4612 0.6103 0.1436
C13_2 C 0.11251(17) 0.84273(16) 0.3146(3)
C14_2 C 0.38749(17) 0.65727(16) 0.1854(3)
C15_2 C 0.34273(16) 0.61251(17) 0.3146(3)
H11_2 H 0.1113 0.8124 0.3592
H12_2 H 0.3124 0.6113 0.3592
H13_2 H 0.3887 0.6876 0.1408
C20_2 C 0.34269(14) 0.65731(14) 0.2500
C23_2 C 0.29486(14) 0.70514(14) 0.2500
C26_2 C 0.3091(2) 0.7632(2) 0.2295(4)
C27_2 C 0.2368(2) 0.6909(2) 0.2705(4)
C28_2 C 0.1909(2) 0.7368(2) 0.2705(4)
H18_2 H 0.2265 0.6503 0.2849
H19_2 H 0.1503 0.7265 0.2849
H20_2 H 0.3497 0.7735 0.2151
Si1_9 Si 0.0000 0.0000 0.5000
F3_3 F 0.01785(16) 0.07277(13) 0.5000
F6_5 F 0.0000 0.0000 0.6134(2)
Si1_10 Si 0.0000 1.0000 0.5000
F5_3 F 0.07277(13) 0.98215(16) 0.5000
F6_6 F 0.0000 1.0000 0.6134(2)
Si1_11 Si 1.0000 0.0000 0.5000
F1_3 F 0.92723(13) 0.01785(16) 0.5000
F6_7 F 1.0000 0.0000 0.6134(2)
Si1_12 Si 1.0000 1.0000 0.5000
F4_3 F 0.98215(16) 0.92723(13) 0.5000
F6_8 F 1.0000 1.0000 0.6134(2)
Zn1_5 Zn 0.5000 0.5000 0.7500
Si1_13 Si 0.5000 0.5000 0.5000
F1_4 F 0.51785(16) 0.42723(13) 0.5000
F2_5 F 0.5000 0.5000 0.6134(2)
N1_2 N 0.56787(10) 0.56787(10) 0.7500
C1_3 C 0.56911(16) 0.61100(15) 0.6883(2)
H1_3 H 0.5388 0.6103 0.6436
C2_3 C 0.61251(17) 0.65727(16) 0.6854(3)
H2_3 H 0.6113 0.6876 0.6408
C3_3 C 0.65731(14) 0.65731(14) 0.7500
C4_3 C 0.70514(14) 0.70514(14) 0.7500
C5_3 C 0.6909(2) 0.7632(2) 0.7295(4)
H3_3 H 0.6503 0.7735 0.7151
F3_4 F 0.57277(13) 0.51785(16) 0.5000
F4_4 F 0.42723(13) 0.48215(16) 0.5000
F5_4 F 0.48215(16) 0.57277(13) 0.5000
F6_9 F 0.5000 0.5000 0.3866(2)
F7_5 F 0.5000 0.5000 0.8866(2)
N2_3 N 0.93213(10) 0.93213(10) 0.7500
N3_2 N 0.43213(10) 0.56787(10) 0.7500
N4_3 N 0.06787(10) 0.93213(10) 0.7500
N5_2 N 0.56787(10) 0.43213(10) 0.7500
N6_2 N 0.43213(10) 0.43213(10) 0.7500
C6_3 C 0.61100(15) 0.56911(16) 0.8117(2)
C7_3 C 0.88900(15) 0.93089(16) 0.6883(2)
C8_3 C 0.93089(16) 0.88900(15) 0.8117(2)
C9_3 C 0.38900(15) 0.56911(16) 0.6883(2)
C10_3 C 0.43089(16) 0.61100(15) 0.8117(2)
C11_3 C 0.06911(16) 0.88900(15) 0.6883(2)
C12_3 C 0.11100(15) 0.93089(16) 0.8117(2)
H4_3 H 0.6103 0.5388 0.8564
H5_3 H 0.9612 0.8897 0.8564
H6_3 H 0.8897 0.9612 0.6436
H7_3 H 0.3897 0.5388 0.6436
H8_3 H 0.4612 0.6103 0.8564
H9_3 H 0.1103 0.9612 0.8564
H10_3 H 0.0388 0.8897 0.6436
C13_3 C 0.65727(16) 0.61251(17) 0.8146(3)
C14_3 C 0.84273(16) 0.88749(17) 0.6854(3)
C15_3 C 0.88749(17) 0.84273(16) 0.8146(3)
C16_3 C 0.34273(16) 0.61251(17) 0.6854(3)
C17_3 C 0.38749(17) 0.65727(16) 0.8146(3)
C18_3 C 0.11251(17) 0.84273(16) 0.6854(3)
C19_3 C 0.15727(16) 0.88749(17) 0.8146(3)
H11_3 H 0.6876 0.6113 0.8592
H12_3 H 0.8887 0.8124 0.8592
H13_3 H 0.8124 0.8887 0.6408
H14_3 H 0.3124 0.6113 0.6408
H15_3 H 0.3887 0.6876 0.8592
H16_3 H 0.1876 0.8887 0.8592
H17_3 H 0.1113 0.8124 0.6408
C20_3 C 0.84269(14) 0.84269(14) 0.7500
C21_3 C 0.34269(14) 0.65731(14) 0.7500
C22_3 C 0.15731(14) 0.84269(14) 0.7500
C23_3 C 0.79486(14) 0.79486(14) 0.7500
C24_3 C 0.29486(14) 0.70514(14) 0.7500
C25_3 C 0.20514(14) 0.79486(14) 0.7500
C26_3 C 0.7368(2) 0.8091(2) 0.7295(4)
C27_3 C 0.8091(2) 0.7368(2) 0.7705(4)
C28_3 C 0.7632(2) 0.6909(2) 0.7705(4)
C29_3 C 0.2368(2) 0.6909(2) 0.7295(4)
C30_3 C 0.1909(2) 0.7368(2) 0.7295(4)
C31_3 C 0.2632(2) 0.8091(2) 0.7705(4)
C32_3 C 0.3091(2) 0.7632(2) 0.7705(4)
H18_3 H 0.8497 0.7265 0.7849
H19_3 H 0.7735 0.6503 0.7849
H20_3 H 0.7265 0.8497 0.7151
H21_3 H 0.2265 0.6503 0.7151
H22_3 H 0.2735 0.8497 0.7849
H23_3 H 0.3497 0.7735 0.7849
H24_3 H 0.1503 0.7265 0.7151
N4_4 N 0.06787(10) 0.06787(10) 0.7500
C9_4 C 0.43089(16) 0.38900(15) 0.6883(2)
C10_4 C 0.38900(15) 0.43089(16) 0.8117(2)
C11_4 C 0.11100(15) 0.06911(16) 0.6883(2)
C12_4 C 0.06911(16) 0.11100(15) 0.8117(2)
H7_4 H 0.4612 0.3897 0.6436
H8_4 H 0.3897 0.4612 0.8564
H9_4 H 0.0388 0.1103 0.8564
H10_4 H 0.1103 0.0388 0.6436
C16_4 C 0.38749(17) 0.34273(16) 0.6854(3)
C17_4 C 0.34273(16) 0.38749(17) 0.8146(3)
C18_4 C 0.15727(16) 0.11251(17) 0.6854(3)
C19_4 C 0.11251(17) 0.15727(16) 0.8146(3)
H14_4 H 0.3887 0.3124 0.6408
H15_4 H 0.3124 0.3887 0.8592
H16_4 H 0.1113 0.1876 0.8592
H17_4 H 0.1876 0.1113 0.6408
C21_4 C 0.34269(14) 0.34269(14) 0.7500
C22_4 C 0.15731(14) 0.15731(14) 0.7500
C24_4 C 0.29486(14) 0.29486(14) 0.7500
C25_4 C 0.20514(14) 0.20514(14) 0.7500
C29_4 C 0.3091(2) 0.2368(2) 0.7295(4)
C30_4 C 0.2632(2) 0.1909(2) 0.7295(4)
C31_4 C 0.1909(2) 0.2632(2) 0.7705(4)
C32_4 C 0.2368(2) 0.3091(2) 0.7705(4)
H21_4 H 0.3497 0.2265 0.7151
H22_4 H 0.1503 0.2735 0.7849
H23_4 H 0.2265 0.3497 0.7849
H24_4 H 0.2735 0.1503 0.7151
C1_4 C 0.61100(15) 0.43089(16) 0.6883(2)
H1_4 H 0.6103 0.4612 0.6436
C2_4 C 0.65727(16) 0.38749(17) 0.6854(3)
H2_4 H 0.6876 0.3887 0.6408
C3_4 C 0.65731(14) 0.34269(14) 0.7500
C4_4 C 0.70514(14) 0.29486(14) 0.7500
C5_4 C 0.7632(2) 0.3091(2) 0.7295(4)
H3_4 H 0.7735 0.3497 0.7151
N2_4 N 0.93213(10) 0.06787(10) 0.7500
C6_4 C 0.56911(16) 0.38900(15) 0.8117(2)
C7_4 C 0.93089(16) 0.11100(15) 0.6883(2)
C8_4 C 0.88900(15) 0.06911(16) 0.8117(2)
H4_4 H 0.5388 0.3897 0.8564
H5_4 H 0.8897 0.0388 0.8564
H6_4 H 0.9612 0.1103 0.6436
C13_4 C 0.61251(17) 0.34273(16) 0.8146(3)
C14_4 C 0.88749(17) 0.15727(16) 0.6854(3)
C15_4 C 0.84273(16) 0.11251(17) 0.8146(3)
H11_4 H 0.6113 0.3124 0.8592
H12_4 H 0.8124 0.1113 0.8592
H13_4 H 0.8887 0.1876 0.6408
C20_4 C 0.84269(14) 0.15731(14) 0.7500
C23_4 C 0.79486(14) 0.20514(14) 0.7500
C26_4 C 0.8091(2) 0.2632(2) 0.7295(4)
C27_4 C 0.7368(2) 0.1909(2) 0.7705(4)
C28_4 C 0.6909(2) 0.2368(2) 0.7705(4)
H18_4 H 0.7265 0.1503 0.7849
H19_4 H 0.6503 0.2265 0.7849
H20_4 H 0.8497 0.2735 0.7151
Si1_14 Si 0.5000 0.5000 0.0000
F1_5 F 0.42723(13) 0.51785(16) 0.0000
F3_5 F 0.51785(16) 0.57277(13) 0.0000
F4_5 F 0.48215(16) 0.42723(13) 0.0000
F5_5 F 0.57277(13) 0.48215(16) 0.0000
F6_10 F 0.5000 0.5000 0.1134(2)
Si1_15 Si 0.5000 0.5000 1.0000
F1_6 F 0.42723(13) 0.51785(16) 1.0000
F3_6 F 0.51785(16) 0.57277(13) 1.0000
F4_6 F 0.48215(16) 0.42723(13) 1.0000
F5_6 F 0.57277(13) 0.48215(16) 1.0000
loop_
_geom_bond_atom_site_label_1
_geom_bond_atom_site_label_2
_geom_bond_site_symmetry_1
_geom_bond_site_symmetry_2
Zn1 F2 1_555 1_555
F2 Si1 1_555 1_555
N1 Zn1 1_555 1_555
C1 N1 1_555 1_555
H1 C1 1_555 1_555
C2 C1 1_555 1_555
H2 C2 1_555 1_555
C3 C2 1_555 1_555
C4 C3 1_555 1_555
C5 C4 1_555 1_555
H3 C5 1_555 1_555
Zn3 N2 1_555 1_555
F3 Si1 1_555 1_555
F7 Zn1 1_555 1_555
N2 C7 1_555 1_555
C6 N1 1_555 1_555
C7 H6 1_555 1_555
C8 N2 1_555 1_555
H4 C6 1_555 1_555
H5 C8 1_555 1_555
C13 C3 1_555 1_555
C14 C7 1_555 1_555
C15 C8 1_555 1_555
H11 C13 1_555 1_555
H12 C15 1_555 1_555
H13 C14 1_555 1_555
C20 C14 1_555 1_555
C23 C20 1_555 1_555
C26 C5 1_555 1_555
C27 C23 1_555 1_555
C28 C4 1_555 1_555
H18 C27 1_555 1_555
H19 C28 1_555 1_555
H20 C26 1_555 1_555
C6 C13 1_555 1_555
C15 C20 1_555 1_555
C23 C26 1_555 1_555
C27 C28 1_555 1_555
Zn2 F6 1_555 1_555
F3_2 Si1_2 1_555 1_555
F6 Si1_2 1_555 1_555
Zn1_2 F2_2 1_555 1_555
Si1_3 F1 1_555 1_555
F2_2 Si1_3 1_555 1_555
F7_2 Zn1_2 1_555 1_555
N5 Zn1_2 1_555 1_555
Si1_4 F1_2 1_555 1_555
Zn2_2 F6_2 1_555 1_555
F6_2 Si1_4 1_555 1_555
Zn1_3 F2_3 1_555 1_555
F2_3 Si1_5 1_555 1_555
Zn3 N4 1_555 1_555
F5 Si1_5 1_555 1_555
F7_3 Zn1_3 1_555 1_555
N3 Zn1_3 1_555 1_555
N4 C11 1_555 1_555
C9 N3 1_555 1_555
C10 N3 1_555 1_555
C11 H10 1_555 1_555
C12 N4 1_555 1_555
H7 C9 1_555 1_555
H8 C10 1_555 1_555
H9 C12 1_555 1_555
C16 C9 1_555 1_555
C17 C10 1_555 1_555
C18 C11 1_555 1_555
C19 C12 1_555 1_555
H14 C16 1_555 1_555
H15 C17 1_555 1_555
H16 C19 1_555 1_555
H17 C18 1_555 1_555
C21 C16 1_555 1_555
C22 C18 1_555 1_555
C24 C21 1_555 1_555
C25 C22 1_555 1_555
C29 C24 1_555 1_555
C30 C25 1_555 1_555
C31 C25 1_555 1_555
C32 C24 1_555 1_555
H21 C29 1_555 1_555
H22 C31 1_555 1_555
H23 C32 1_555 1_555
H24 C30 1_555 1_555
C17 C21 1_555 1_555
C19 C22 1_555 1_555
C29 C30 1_555 1_555
C31 C32 1_555 1_555
Zn2_3 F6_3 1_555 1_555
F5_2 Si1_6 1_555 1_555
F6_3 Si1_6 1_555 1_555
Zn1_4 F2_4 1_555 1_555
F2_4 Si1_7 1_555 1_555
F4 Si1_7 1_555 1_555
F7_4 Zn1_4 1_555 1_555
N6 Zn1_4 1_555 1_555
Zn2_4 F6_4 1_555 1_555
F4_2 Si1_8 1_555 1_555
F6_4 Si1_8 1_555 1_555
Zn3 N4_2 1_555 1_555
N4_2 C11_2 1_555 1_555
C9_2 N6 1_555 1_555
C10_2 N6 1_555 1_555
C11_2 H10_2 1_555 1_555
C12_2 N4_2 1_555 1_555
H7_2 C9_2 1_555 1_555
H8_2 C10_2 1_555 1_555
H9_2 C12_2 1_555 1_555
C16_2 C9_2 1_555 1_555
C17_2 C10_2 1_555 1_555
C18_2 C11_2 1_555 1_555
C19_2 C12_2 1_555 1_555
H14_2 C16_2 1_555 1_555
H15_2 C17_2 1_555 1_555
H16_2 C19_2 1_555 1_555
H17_2 C18_2 1_555 1_555
C21_2 C16_2 1_555 1_555
C22_2 C18_2 1_555 1_555
C24_2 C21_2 1_555 1_555
C25_2 C22_2 1_555 1_555
C29_2 C24_2 1_555 1_555
C30_2 C25_2 1_555 1_555
C31_2 C25_2 1_555 1_555
C32_2 C24_2 1_555 1_555
H21_2 C29_2 1_555 1_555
H22_2 C31_2 1_555 1_555
H23_2 C32_2 1_555 1_555
H24_2 C30_2 1_555 1_555
C17_2 C21_2 1_555 1_555
C19_2 C22_2 1_555 1_555
C29_2 C30_2 1_555 1_555
C31_2 C32_2 1_555 1_555
C1_2 N5 1_555 1_555
H1_2 C1_2 1_555 1_555
C2_2 C1_2 1_555 1_555
H2_2 C2_2 1_555 1_555
C3_2 C2_2 1_555 1_555
C4_2 C3_2 1_555 1_555
C5_2 C4_2 1_555 1_555
H3_2 C5_2 1_555 1_555
Zn3 N2_2 1_555 1_555
N2_2 C7_2 1_555 1_555
C6_2 N5 1_555 1_555
C7_2 H6_2 1_555 1_555
C8_2 N2_2 1_555 1_555
H4_2 C6_2 1_555 1_555
H5_2 C8_2 1_555 1_555
C13_2 C3_2 1_555 1_555
C14_2 C7_2 1_555 1_555
C15_2 C8_2 1_555 1_555
H11_2 C13_2 1_555 1_555
H12_2 C15_2 1_555 1_555
H13_2 C14_2 1_555 1_555
C20_2 C14_2 1_555 1_555
C23_2 C20_2 1_555 1_555
C26_2 C5_2 1_555 1_555
C27_2 C23_2 1_555 1_555
C28_2 C4_2 1_555 1_555
H18_2 C27_2 1_555 1_555
H19_2 C28_2 1_555 1_555
H20_2 C26_2 1_555 1_555
C6_2 C13_2 1_555 1_555
C15_2 C20_2 1_555 1_555
C23_2 C26_2 1_555 1_555
C27_2 C28_2 1_555 1_555
F7 Si1_9 1_555 1_555
Zn2 F6_5 1_555 1_555
F3_3 Si1_9 1_555 1_555
F6_5 Si1_9 1_555 1_555
F7_2 Si1_10 1_555 1_555
Zn2_2 F6_6 1_555 1_555
F5_3 Si1_10 1_555 1_555
F6_6 Si1_10 1_555 1_555
Si1_11 F1_3 1_555 1_555
F7_3 Si1_11 1_555 1_555
Zn2_3 F6_7 1_555 1_555
F6_7 Si1_11 1_555 1_555
F7_4 Si1_12 1_555 1_555
Zn2_4 F6_8 1_555 1_555
F4_3 Si1_12 1_555 1_555
F6_8 Si1_12 1_555 1_555
Zn1_5 F2_5 1_555 1_555
Si1_13 F1_4 1_555 1_555
F2_5 Si1_13 1_555 1_555
N1_2 Zn1_5 1_555 1_555
C1_3 N1_2 1_555 1_555
H1_3 C1_3 1_555 1_555
C2_3 C1_3 1_555 1_555
H2_3 C2_3 1_555 1_555
C3_3 C2_3 1_555 1_555
C4_3 C3_3 1_555 1_555
C5_3 C4_3 1_555 1_555
H3_3 C5_3 1_555 1_555
Zn3 F6_9 1_555 1_555
Zn2_4 N2_3 1_555 1_555
Zn2_2 N4_3 1_555 1_555
F3_4 Si1_13 1_555 1_555
F4_4 Si1_13 1_555 1_555
F5_4 Si1_13 1_555 1_555
F6_9 Si1_13 1_555 1_555
F7_5 Zn1_5 1_555 1_555
N2_3 C7_3 1_555 1_555
N3_2 Zn1_5 1_555 1_555
N4_3 C11_3 1_555 1_555
N5_2 Zn1_5 1_555 1_555
N6_2 Zn1_5 1_555 1_555
C6_3 N1_2 1_555 1_555
C7_3 H6_3 1_555 1_555
C8_3 N2_3 1_555 1_555
C9_3 N3_2 1_555 1_555
C10_3 N3_2 1_555 1_555
C11_3 H10_3 1_555 1_555
C12_3 N4_3 1_555 1_555
H4_3 C6_3 1_555 1_555
H5_3 C8_3 1_555 1_555
H7_3 C9_3 1_555 1_555
H8_3 C10_3 1_555 1_555
H9_3 C12_3 1_555 1_555
C13_3 C3_3 1_555 1_555
C14_3 C7_3 1_555 1_555
C15_3 C8_3 1_555 1_555
C16_3 C9_3 1_555 1_555
C17_3 C10_3 1_555 1_555
C18_3 C11_3 1_555 1_555
C19_3 C12_3 1_555 1_555
H11_3 C13_3 1_555 1_555
H12_3 C15_3 1_555 1_555
H13_3 C14_3 1_555 1_555
H14_3 C16_3 1_555 1_555
H15_3 C17_3 1_555 1_555
H16_3 C19_3 1_555 1_555
H17_3 C18_3 1_555 1_555
C20_3 C14_3 1_555 1_555
C21_3 C16_3 1_555 1_555
C22_3 C18_3 1_555 1_555
C23_3 C20_3 1_555 1_555
C24_3 C21_3 1_555 1_555
C25_3 C22_3 1_555 1_555
C26_3 C5_3 1_555 1_555
C27_3 C23_3 1_555 1_555
C28_3 C4_3 1_555 1_555
C29_3 C24_3 1_555 1_555
C30_3 C25_3 1_555 1_555
C31_3 C25_3 1_555 1_555
C32_3 C24_3 1_555 1_555
H18_3 C27_3 1_555 1_555
H19_3 C28_3 1_555 1_555
H20_3 C26_3 1_555 1_555
H21_3 C29_3 1_555 1_555
H22_3 C31_3 1_555 1_555
H23_3 C32_3 1_555 1_555
H24_3 C30_3 1_555 1_555
C6_3 C13_3 1_555 1_555
C15_3 C20_3 1_555 1_555
C17_3 C21_3 1_555 1_555
C19_3 C22_3 1_555 1_555
C23_3 C26_3 1_555 1_555
C27_3 C28_3 1_555 1_555
C29_3 C30_3 1_555 1_555
C31_3 C32_3 1_555 1_555
Zn2 N4_4 1_555 1_555
N4_4 C11_4 1_555 1_555
C9_4 N6_2 1_555 1_555
C10_4 N6_2 1_555 1_555
C11_4 H10_4 1_555 1_555
C12_4 N4_4 1_555 1_555
H7_4 C9_4 1_555 1_555
H8_4 C10_4 1_555 1_555
H9_4 C12_4 1_555 1_555
C16_4 C9_4 1_555 1_555
C17_4 C10_4 1_555 1_555
C18_4 C11_4 1_555 1_555
C19_4 C12_4 1_555 1_555
H14_4 C16_4 1_555 1_555
H15_4 C17_4 1_555 1_555
H16_4 C19_4 1_555 1_555
H17_4 C18_4 1_555 1_555
C21_4 C16_4 1_555 1_555
C22_4 C18_4 1_555 1_555
C24_4 C21_4 1_555 1_555
C25_4 C22_4 1_555 1_555
C29_4 C24_4 1_555 1_555
C30_4 C25_4 1_555 1_555
C31_4 C25_4 1_555 1_555
C32_4 C24_4 1_555 1_555
H21_4 C29_4 1_555 1_555
H22_4 C31_4 1_555 1_555
H23_4 C32_4 1_555 1_555
H24_4 C30_4 1_555 1_555
C17_4 C21_4 1_555 1_555
C19_4 C22_4 1_555 1_555
C29_4 C30_4 1_555 1_555
C31_4 C32_4 1_555 1_555
C1_4 N5_2 1_555 1_555
H1_4 C1_4 1_555 1_555
C2_4 C1_4 1_555 1_555
H2_4 C2_4 1_555 1_555
C3_4 C2_4 1_555 1_555
C4_4 C3_4 1_555 1_555
C5_4 C4_4 1_555 1_555
H3_4 C5_4 1_555 1_555
Zn2_3 N2_4 1_555 1_555
N2_4 C7_4 1_555 1_555
C6_4 N5_2 1_555 1_555
C7_4 H6_4 1_555 1_555
C8_4 N2_4 1_555 1_555
H4_4 C6_4 1_555 1_555
H5_4 C8_4 1_555 1_555
C13_4 C3_4 1_555 1_555
C14_4 C7_4 1_555 1_555
C15_4 C8_4 1_555 1_555
H11_4 C13_4 1_555 1_555
H12_4 C15_4 1_555 1_555
H13_4 C14_4 1_555 1_555
C20_4 C14_4 1_555 1_555
C23_4 C20_4 1_555 1_555
C26_4 C5_4 1_555 1_555
C27_4 C23_4 1_555 1_555
C28_4 C4_4 1_555 1_555
H18_4 C27_4 1_555 1_555
H19_4 C28_4 1_555 1_555
H20_4 C26_4 1_555 1_555
C6_4 C13_4 1_555 1_555
C15_4 C20_4 1_555 1_555
C23_4 C26_4 1_555 1_555
C27_4 C28_4 1_555 1_555
Si1_14 F1_5 1_555 1_555
Zn3 F6_10 1_555 1_555
F3_5 Si1_14 1_555 1_555
F4_5 Si1_14 1_555 1_555
F5_5 Si1_14 1_555 1_555
F6_10 Si1_14 1_555 1_555
Si1_15 F1_6 1_555 1_555
F7_5 Si1_15 1_555 1_555
F3_6 Si1_15 1_555 1_555
F4_6 Si1_15 1_555 1_555
F5_6 Si1_15 1_555 1_555

#END
