
###############################################################################
#
# This file contains modified crystal structure data generated from the
# MOF subset of the Cambridge Structural Database (CSD) v543 
# hosted by the Cambridge Crystallographic Data Centre (CCDC).
#
# This work is licensed under the Creative Commons
# Attribution-NonCommercial-ShareAlike 4.0 International License.
# To view a copy of this license, visit
# http://creativecommons.org/licenses/by-nc-sa/4.0/
# or send a letter to
# Creative Commons, PO Box 1866, Mountain View, CA 94042, USA.
#
# CIF created using the CSD Python API on 29 September 2022
# The structure has been converted into the P1 space group
# The structure has a 3D framework
# The original CSD entry WOPHEQ is in the triclinic crystal system
# The framework has been calculated to contain at least 10.0% void space
# The void calculation uses a probe of radius 1.32A, grid spacing 0.4
#
###############################################################################

data_WOPHEQ
_chemical_formula_moiety         '(C96 H68 Co4 N24 O20)n'
_symmetry_cell_setting           triclinic
_symmetry_space_group_name_H-M   'P 1'
_symmetry_Int_Tables_number      1
_space_group_name_Hall           'P 1'
loop_
_symmetry_equiv_pos_site_id
_symmetry_equiv_pos_as_xyz
1 x,y,z
_cell_length_a                   10.079(4)
_cell_length_b                   14.817(5)
_cell_length_c                   20.165(7)
_cell_angle_alpha                98.577(5)
_cell_angle_beta                 103.941(4)
_cell_angle_gamma                91.757(4)
_cell_volume                     2883.09
loop_
_atom_site_label
_atom_site_type_symbol
_atom_site_fract_x
_atom_site_fract_y
_atom_site_fract_z
Co8 Co 0.13889(8) 0.33832(6) 0.20610(4)
N2 N 0.1492(7) 0.1923(5) 0.2024(3)
C4 C 0.2516(10) 0.1644(6) 0.2488(5)
H3 H 0.3205 0.2078 0.2744
C24 C 0.1611(9) 0.0110(5) 0.2242(5)
H16 H 0.0049 0.0462 0.3969
C37 C 0.0535(12) 0.0348(7) 0.1727(6)
C39 C 0.2619(11) 0.0765(7) 0.2612(5)
H23 H 0.3359 0.0612 0.2941
C43 C 0.0554(10) 0.1285(6) 0.1669(5)
H27 H 0.0047 0.2164 0.4275
O2 O 0.9408(4) 0.3231(3) 0.1498(2)
O4 O 0.3536(5) 0.3450(4) 0.2120(2)
O6 O 0.2172(5) 0.3344(4) 0.1086(3)
C5 C 0.5885(6) 0.3388(5) 0.1613(3)
H4 H 0.6003 0.3439 0.2089
C10 C 0.8439(7) 0.3330(5) 0.1792(3)
C11 C 0.7039(7) 0.3327(5) 0.1326(3)
O10 O 0.8578(5) 0.3412(5) 0.2422(3)
C13 C 0.5559(7) 0.3324(6) 0.0198(4)
C16 C 0.6845(7) 0.3290(6) 0.0616(4)
H8 H 0.7594 0.3241 0.0422
C17 C 0.4595(7) 0.3371(5) 0.1188(3)
C19 C 0.3352(7) 0.3401(5) 0.1482(4)
C31 C 0.4409(7) 0.3331(6) 0.0471(4)
H15 H 0.3533 0.3310 0.0182
Co5 Co 0.89282(8) 0.37440(6) 0.34693(4)
O1 O 0.0903(5) 0.3784(4) 0.4013(2)
O3 O 0.8126(5) 0.3986(4) 0.4398(3)
O5 O 0.6766(5) 0.3788(4) 0.3370(2)
O7 O 0.1703(5) 0.3440(4) 0.3088(2)
N3 N 0.1360(6) 0.4834(4) 0.2168(3)
C6 C 0.4424(6) 0.3771(4) 0.3886(3)
H5 H 0.4294 0.3738 0.3411
C7 C 0.3299(6) 0.3730(5) 0.4181(3)
C8 C 0.5735(6) 0.3861(5) 0.4323(3)
O8 O 0.5130(5) 0.3783(5) 0.5998(3)
C9 C 0.1864(6) 0.3647(4) 0.3726(3)
O9 O 0.5253(5) 0.3324(6) 0.9501(3)
C12 C 0.6954(6) 0.3882(5) 0.4022(3)
C14 C 0.3497(7) 0.3751(5) 0.4890(3)
H6 H 0.2746 0.3726 0.5080
C15 C 0.5931(7) 0.3880(5) 0.5020(4)
H7 H 0.6818 0.3940 0.5302
C18 C 0.6354(8) 0.3309(7) 0.9166(4)
H9 H 0.6808 0.2744 0.9200
H10 H 0.7022 0.3817 0.9383
C20 C 0.0756(8) 0.5275(5) 0.1668(4)
H11 H 0.0277 0.4932 0.1249
C21 C 0.1566(8) 0.7739(5) 0.2511(5)
C23 C 0.4822(7) 0.3810(6) 0.5314(3)
C25 C 0.2010(7) 0.5349(5) 0.2774(4)
H12 H 0.2433 0.5059 0.3139
C26 C 0.1638(10) 0.9197(5) 0.2454(5)
C27 C 0.5758(8) 0.3383(6) 0.8424(4)
C28 C 0.4620(7) 0.3542(6) 0.7043(4)
C29 C 0.5359(8) 0.2608(6) 0.7942(4)
H13 H 0.5453 0.2034 0.8076
C30 C 0.5568(8) 0.4240(6) 0.8229(4)
H14 H 0.5837 0.4765 0.8558
C33 C 0.1455(7) 0.6749(5) 0.2333(4)
C34 C 0.4015(8) 0.3626(7) 0.6308(4)
H17 H 0.3472 0.3069 0.6068
H18 H 0.3427 0.4132 0.6282
C35 C 0.4802(8) 0.2682(6) 0.7238(4)
H19 H 0.4558 0.2158 0.6907
C36 C 0.2072(7) 0.6284(5) 0.2872(4)
H20 H 0.2526 0.6615 0.3300
N7 N 0.1894(8) 0.8172(5) 0.3140(4)
H24 H 0.0159 0.5631 0.4398
N8 N 0.1935(9) 0.9086(5) 0.3105(4)
C44 C 0.0794(9) 0.6222(6) 0.1731(4)
H26 H 0.0362 0.6494 0.1357
C46 C 0.4981(8) 0.4314(6) 0.7547(4)
H28 H 0.4825 0.4890 0.7425
N9 N 0.1394(7) 0.8372(5) 0.2058(4)
N11 N 0.1142(11) 0.8169(6) 0.1345(4)
H29 H 0.1131 0.8603 0.1104
H30 H 0.0997 0.7609 0.1142
N1 N 0.8761(8) 0.2286(5) 0.3493(5)
C1 C 0.7655(16) 0.1799(9) 0.2961(9)
H1 H 0.6967 0.2127 0.2732
C2 C 0.757(2) 0.0837(11) 0.2774(15)
H2 H 0.6956 0.0525 0.2380
C3 C 0.8495(17) 0.0396(9) 0.3233(10)
C32 C 0.9402(15) 0.0788(11) 0.3708(12)
H25 H 0.9830 0.1468 0.1347
C45 C 0.945(2) 0.1859(9) 0.3870(12)
N4 N 0.9110(6) 0.5187(4) 0.3447(3)
C22 C 0.8692(12) 0.7926(8) 0.3043(6)
N5 N 0.8146(13) 0.8989(7) 0.2430(8)
N6 N 0.8317(13) 0.8191(13) 0.2508(11)
H21 H 0.9862 0.9921 0.1446
C38 C 0.9511(11) 0.6882(9) 0.3830(6)
H22 H 0.9839 0.7395 0.4165
C40 C 0.8457(14) 0.9346(10) 0.3051(8)
C41 C 0.8844(9) 0.6918(9) 0.3180(5)
C42 C 0.9690(10) 0.5783(7) 0.3977(6)
N10 N 0.8897(8) 0.8740(4) 0.3501(4)
C47 C 0.8347(12) 0.6290(9) 0.2692(7)
H31 H 0.7895 0.6398 0.2255
C48 C 0.8508(10) 0.5478(7) 0.2842(6)
H32 H 0.8151 0.5009 0.2474
N12 N 0.939(3) 0.8693(12) 0.4413(13)
H33 H 0.9385 0.9174 0.4709
H34 H 0.9636 0.8189 0.4554
Co1 Co 0.10718(8) 0.62560(6) 0.65307(4)
N4_2 N 0.0890(6) 0.4813(4) 0.6553(3)
C22_2 C 0.1308(12) 0.2074(8) 0.6957(6)
N5_2 N 0.1854(13) 0.1011(7) 0.7570(8)
N6_2 N 0.1683(13) 0.1809(13) 0.7492(11)
H21_2 H 0.0138 0.0079 0.8554
C38_2 C 0.0489(11) 0.3118(9) 0.6170(6)
H22_2 H 0.0161 0.2605 0.5835
C40_2 C 0.1543(14) 0.0654(10) 0.6949(8)
C41_2 C 0.1156(9) 0.3082(9) 0.6820(5)
C42_2 C 0.0310(10) 0.4217(7) 0.6023(6)
N10_2 N 0.1103(8) 0.1260(4) 0.6499(4)
C47_2 C 0.1653(12) 0.3710(9) 0.7308(7)
H31_2 H 0.2105 0.3602 0.7745
C48_2 C 0.1492(10) 0.4522(7) 0.7158(6)
H32_2 H 0.1849 0.4991 0.7526
N12_2 N 0.061(3) 0.1307(12) 0.5587(13)
H33_2 H 0.0615 0.0826 0.5291
H34_2 H 0.0364 0.1811 0.5446
N13 N 0.1239(8) 0.7714(5) 0.6507(5)
O11 O 0.0592(4) 0.6769(3) 0.8502(2)
O12 O 0.1874(5) 0.6014(4) 0.5602(3)
O14 O 0.3234(5) 0.6212(4) 0.6630(2)
O16 O 0.1422(5) 0.6588(5) 0.7578(3)
C1_2 C 0.2345(16) 0.8201(9) 0.7039(9)
H1_2 H 0.3033 0.7873 0.7268
C2_2 C 0.243(2) 0.9163(11) 0.7226(15)
H2_2 H 0.3044 0.9475 0.7620
C3_2 C 0.1505(17) 0.9604(9) 0.6767(10)
C32_2 C 0.0598(15) 0.9212(11) 0.6292(12)
H25_2 H 0.0170 0.8532 0.8653
C45_2 C 0.055(2) 0.8141(9) 0.6130(12)
Co2 Co 0.86111(8) 0.66168(6) 0.79390(4)
O1_2 O 0.9097(5) 0.6216(4) 0.5987(2)
O7_2 O 0.8297(5) 0.6560(4) 0.6912(2)
N3_2 N 0.8640(6) 0.5166(4) 0.7832(3)
C6_2 C 0.5576(6) 0.6229(4) 0.6114(3)
H5_2 H 0.5706 0.6262 0.6589
C7_2 C 0.6701(6) 0.6270(5) 0.5819(3)
C8_2 C 0.4265(6) 0.6139(5) 0.5677(3)
O8_2 O 0.4870(5) 0.6217(5) 0.4002(3)
C9_2 C 0.8136(6) 0.6353(4) 0.6274(3)
O9_2 O 0.4747(5) 0.6676(6) 0.0499(3)
C12_2 C 0.3046(6) 0.6118(5) 0.5978(3)
C14_2 C 0.6503(7) 0.6249(5) 0.5110(3)
H6_2 H 0.7254 0.6274 0.4920
C15_2 C 0.4069(7) 0.6120(5) 0.4980(4)
H7_2 H 0.3182 0.6060 0.4698
C18_2 C 0.3646(8) 0.6691(7) 0.0834(4)
H9_2 H 0.3192 0.7256 0.0800
H10_2 H 0.2978 0.6183 0.0617
C20_2 C 0.9244(8) 0.4725(5) 0.8332(4)
H11_2 H 0.9723 0.5068 0.8751
C21_2 C 0.8434(8) 0.2261(5) 0.7489(5)
C23_2 C 0.5178(7) 0.6190(6) 0.4686(3)
C25_2 C 0.7990(7) 0.4651(5) 0.7226(4)
H12_2 H 0.7567 0.4941 0.6861
C26_2 C 0.8362(10) 0.0803(5) 0.7546(5)
C27_2 C 0.4242(8) 0.6617(6) 0.1576(4)
C28_2 C 0.5380(7) 0.6458(6) 0.2957(4)
C29_2 C 0.4641(8) 0.7392(6) 0.2058(4)
H13_2 H 0.4547 0.7966 0.1924
C30_2 C 0.4432(8) 0.5760(6) 0.1771(4)
H14_2 H 0.4163 0.5235 0.1442
C33_2 C 0.8545(7) 0.3251(5) 0.7667(4)
C34_2 C 0.5985(8) 0.6374(7) 0.3692(4)
H17_2 H 0.6528 0.6931 0.3932
H18_2 H 0.6573 0.5868 0.3718
C35_2 C 0.5198(8) 0.7318(6) 0.2762(4)
H19_2 H 0.5442 0.7842 0.3093
C36_2 C 0.7928(7) 0.3716(5) 0.7128(4)
H20_2 H 0.7474 0.3385 0.6700
N7_2 N 0.8106(8) 0.1828(5) 0.6860(4)
H24_2 H 0.9841 0.4369 0.5602
N8_2 N 0.8065(9) 0.0914(5) 0.6895(4)
C44_2 C 0.9206(9) 0.3778(6) 0.8269(4)
H26_2 H 0.9638 0.3506 0.8643
C46_2 C 0.5019(8) 0.5686(6) 0.2453(4)
H28_2 H 0.5175 0.5110 0.2575
N9_2 N 0.8606(7) 0.1628(5) 0.7942(4)
N11_2 N 0.8858(11) 0.1831(6) 0.8655(4)
H29_2 H 0.8869 0.1397 0.8896
H30_2 H 0.9003 0.2391 0.8858
N14 N 0.8508(7) 0.8077(5) 0.7976(3)
O13 O 0.6464(5) 0.6550(4) 0.7880(2)
O15 O 0.7828(5) 0.6656(4) 0.8914(3)
C5_2 C 0.4115(6) 0.6612(5) 0.8387(3)
H4_2 H 0.3997 0.6561 0.7911
C10_2 C 0.1561(7) 0.6670(5) 0.8208(3)
C11_2 C 0.2961(7) 0.6673(5) 0.8674(3)
C13_2 C 0.4441(7) 0.6676(6) 0.9802(4)
C16_2 C 0.3155(7) 0.6710(6) 0.9384(4)
H8_2 H 0.2406 0.6759 0.9578
C17_2 C 0.5405(7) 0.6629(5) 0.8812(3)
C19_2 C 0.6648(7) 0.6599(5) 0.8518(4)
C31_2 C 0.5591(7) 0.6669(6) 0.9529(4)
H15_2 H 0.6467 0.6690 0.9818
C4_2 C 0.7484(10) 0.8356(6) 0.7512(5)
H3_2 H 0.6795 0.7922 0.7256
C24_2 C 0.8389(9) 0.9890(5) 0.7758(5)
H16_2 H 0.9951 0.9538 0.6031
C37_2 C 0.9465(12) 0.9652(7) 0.8273(6)
C39_2 C 0.7381(11) 0.9235(7) 0.7388(5)
H23_2 H 0.6641 0.9388 0.7059
C43_2 C 0.9446(10) 0.8715(6) 0.8331(5)
H27_2 H 0.9953 0.7836 0.5725
loop_
_geom_bond_atom_site_label_1
_geom_bond_atom_site_label_2
_geom_bond_site_symmetry_1
_geom_bond_site_symmetry_2
N2 C4 1_555 1_555
C4 H3 1_555 1_555
C37 C24 1_555 1_555
C39 C4 1_555 1_555
H23 C39 1_555 1_555
C43 N2 1_555 1_555
Co8 N2 1_555 1_555
C24 C39 1_555 1_555
C37 C43 1_555 1_555
O2 C10 1_555 1_555
O4 C19 1_555 1_555
O6 C19 1_555 1_555
C5 H4 1_555 1_555
C10 C11 1_555 1_555
C11 C5 1_555 1_555
O10 C10 1_555 1_555
C13 C16 1_555 1_555
C16 C11 1_555 1_555
H8 C16 1_555 1_555
C17 C5 1_555 1_555
C19 C17 1_555 1_555
C31 C13 1_555 1_555
H15 C31 1_555 1_555
Co5 O10 1_555 1_555
Co8 O4 1_555 1_555
O6 Co8 1_555 1_555
C17 C31 1_555 1_555
Co8 O7 1_555 1_555
O1 C9 1_555 1_555
O3 C12 1_555 1_555
O5 C12 1_555 1_555
O7 C9 1_555 1_555
N3 Co8 1_555 1_555
C6 H5 1_555 1_555
C7 C6 1_555 1_555
C8 C6 1_555 1_555
O8 C23 1_555 1_555
C9 C7 1_555 1_555
C12 C8 1_555 1_555
C14 C7 1_555 1_555
H6 C14 1_555 1_555
C15 C8 1_555 1_555
H7 C15 1_555 1_555
C18 O9 1_555 1_555
H9 C18 1_555 1_555
H10 C18 1_555 1_555
C20 N3 1_555 1_555
H11 C20 1_555 1_555
C21 C33 1_555 1_555
C23 C14 1_555 1_555
C25 N3 1_555 1_555
H12 C25 1_555 1_555
C26 N8 1_555 1_555
C27 C18 1_555 1_555
C28 C34 1_555 1_555
C29 C27 1_555 1_555
H13 C29 1_555 1_555
C30 C27 1_555 1_555
H14 C30 1_555 1_555
C33 C36 1_555 1_555
C34 O8 1_555 1_555
H17 C34 1_555 1_555
H18 C34 1_555 1_555
C35 C28 1_555 1_555
H19 C35 1_555 1_555
C36 C25 1_555 1_555
H20 C36 1_555 1_555
N7 C21 1_555 1_555
N8 N7 1_555 1_555
C44 C20 1_555 1_555
H26 C44 1_555 1_555
C46 C28 1_555 1_555
H28 C46 1_555 1_555
N9 C21 1_555 1_555
N11 N9 1_555 1_555
H29 N11 1_555 1_555
H30 N11 1_555 1_555
Co5 O3 1_555 1_555
O5 Co5 1_555 1_555
C15 C23 1_555 1_555
C26 N9 1_555 1_555
C29 C35 1_555 1_555
C30 C46 1_555 1_555
C33 C44 1_555 1_555
N1 C1 1_555 1_555
C1 H1 1_555 1_555
C2 C1 1_555 1_555
H2 C2 1_555 1_555
C3 C2 1_555 1_555
C32 C3 1_555 1_555
C45 N1 1_555 1_555
Co5 N1 1_555 1_555
C32 C45 1_555 1_555
N4 Co5 1_555 1_555
C22 N6 1_555 1_555
N5 N6 1_555 1_555
C38 H22 1_555 1_555
C41 C22 1_555 1_555
C42 N4 1_555 1_555
N10 C22 1_555 1_555
C47 C41 1_555 1_555
H31 C47 1_555 1_555
C48 N4 1_555 1_555
H32 C48 1_555 1_555
N12 N10 1_555 1_555
H33 N12 1_555 1_555
H34 N12 1_555 1_555
N5 C40 1_555 1_555
C38 C41 1_555 1_555
C38 C42 1_555 1_555
C40 N10 1_555 1_555
C47 C48 1_555 1_555
N4_2 Co1 1_555 1_555
C22_2 N6_2 1_555 1_555
N5_2 N6_2 1_555 1_555
C38_2 H22_2 1_555 1_555
C41_2 C22_2 1_555 1_555
C42_2 N4_2 1_555 1_555
N10_2 C22_2 1_555 1_555
C47_2 C41_2 1_555 1_555
H31_2 C47_2 1_555 1_555
C48_2 N4_2 1_555 1_555
H32_2 C48_2 1_555 1_555
N12_2 N10_2 1_555 1_555
H33_2 N12_2 1_555 1_555
H34_2 N12_2 1_555 1_555
N13 Co1 1_555 1_555
O12 Co1 1_555 1_555
O14 Co1 1_555 1_555
O16 Co1 1_555 1_555
N5_2 C40_2 1_555 1_555
C38_2 C41_2 1_555 1_555
C38_2 C42_2 1_555 1_555
C40_2 N10_2 1_555 1_555
C47_2 C48_2 1_555 1_555
N13 C1_2 1_555 1_555
C1_2 H1_2 1_555 1_555
C2_2 C1_2 1_555 1_555
H2_2 C2_2 1_555 1_555
C3_2 C2_2 1_555 1_555
C32_2 C3_2 1_555 1_555
C45_2 N13 1_555 1_555
C32_2 C45_2 1_555 1_555
Co2 O7_2 1_555 1_555
O1_2 C9_2 1_555 1_555
O12 C12_2 1_555 1_555
O14 C12_2 1_555 1_555
O7_2 C9_2 1_555 1_555
N3_2 Co2 1_555 1_555
C6_2 H5_2 1_555 1_555
C7_2 C6_2 1_555 1_555
C8_2 C6_2 1_555 1_555
O8_2 C23_2 1_555 1_555
C9_2 C7_2 1_555 1_555
C12_2 C8_2 1_555 1_555
C14_2 C7_2 1_555 1_555
H6_2 C14_2 1_555 1_555
C15_2 C8_2 1_555 1_555
H7_2 C15_2 1_555 1_555
C18_2 O9_2 1_555 1_555
H9_2 C18_2 1_555 1_555
H10_2 C18_2 1_555 1_555
C20_2 N3_2 1_555 1_555
H11_2 C20_2 1_555 1_555
C21_2 C33_2 1_555 1_555
C23_2 C14_2 1_555 1_555
C25_2 N3_2 1_555 1_555
H12_2 C25_2 1_555 1_555
C26_2 N8_2 1_555 1_555
C27_2 C18_2 1_555 1_555
C28_2 C34_2 1_555 1_555
C29_2 C27_2 1_555 1_555
H13_2 C29_2 1_555 1_555
C30_2 C27_2 1_555 1_555
H14_2 C30_2 1_555 1_555
C33_2 C36_2 1_555 1_555
C34_2 O8_2 1_555 1_555
H17_2 C34_2 1_555 1_555
H18_2 C34_2 1_555 1_555
C35_2 C28_2 1_555 1_555
H19_2 C35_2 1_555 1_555
C36_2 C25_2 1_555 1_555
H20_2 C36_2 1_555 1_555
N7_2 C21_2 1_555 1_555
N8_2 N7_2 1_555 1_555
C44_2 C20_2 1_555 1_555
H26_2 C44_2 1_555 1_555
C46_2 C28_2 1_555 1_555
H28_2 C46_2 1_555 1_555
N9_2 C21_2 1_555 1_555
N11_2 N9_2 1_555 1_555
H29_2 N11_2 1_555 1_555
H30_2 N11_2 1_555 1_555
N14 Co2 1_555 1_555
O13 Co2 1_555 1_555
O15 Co2 1_555 1_555
C15_2 C23_2 1_555 1_555
C26_2 N9_2 1_555 1_555
C29_2 C35_2 1_555 1_555
C30_2 C46_2 1_555 1_555
C33_2 C44_2 1_555 1_555
O11 C10_2 1_555 1_555
O13 C19_2 1_555 1_555
O15 C19_2 1_555 1_555
C5_2 H4_2 1_555 1_555
C10_2 C11_2 1_555 1_555
C11_2 C5_2 1_555 1_555
O16 C10_2 1_555 1_555
C13_2 C16_2 1_555 1_555
C16_2 C11_2 1_555 1_555
H8_2 C16_2 1_555 1_555
C17_2 C5_2 1_555 1_555
C19_2 C17_2 1_555 1_555
C31_2 C13_2 1_555 1_555
H15_2 C31_2 1_555 1_555
C17_2 C31_2 1_555 1_555
N14 C4_2 1_555 1_555
C4_2 H3_2 1_555 1_555
C37_2 C24_2 1_555 1_555
C39_2 C4_2 1_555 1_555
H23_2 C39_2 1_555 1_555
C43_2 N14 1_555 1_555
C24_2 C39_2 1_555 1_555
C37_2 C43_2 1_555 1_555

#END
