
###############################################################################
#
# This file contains modified crystal structure data generated from the
# MOF subset of the Cambridge Structural Database (CSD) v543 
# hosted by the Cambridge Crystallographic Data Centre (CCDC).
#
# This work is licensed under the Creative Commons
# Attribution-NonCommercial-ShareAlike 4.0 International License.
# To view a copy of this license, visit
# http://creativecommons.org/licenses/by-nc-sa/4.0/
# or send a letter to
# Creative Commons, PO Box 1866, Mountain View, CA 94042, USA.
#
# CIF created using the CSD Python API on 29 September 2022
# The structure has been converted into the P1 space group
# The structure has a 3D framework
# The original CSD entry WOPHIU is in the monoclinic crystal system
# The framework has been calculated to contain at least 10.0% void space
# The void calculation uses a probe of radius 1.32A, grid spacing 0.4
# H atom positions have been added when not included in the experimental data
#
###############################################################################

data_WOPHIU
_chemical_formula_moiety         '(C288 H208 N48 O88 Zn16)n'
_symmetry_cell_setting           triclinic
_symmetry_space_group_name_H-M   'P 1'
_symmetry_Int_Tables_number      1
_space_group_name_Hall           'P 1'
loop_
_symmetry_equiv_pos_site_id
_symmetry_equiv_pos_as_xyz
1 x,y,z
_cell_length_a                   30.892(6)
_cell_length_b                   14.751(2)
_cell_length_c                   19.080(3)
_cell_angle_alpha                90
_cell_angle_beta                 111.552(3)
_cell_angle_gamma                90
_cell_volume                     8086.64
loop_
_atom_site_label
_atom_site_type_symbol
_atom_site_fract_x
_atom_site_fract_y
_atom_site_fract_z
H21 H 0.4030 0.7217 0.0232
Zn7 Zn 0.49548(3) 0.76451(6) 0.01363(5)
C1 C 0.4356(2) 0.4557(5) 0.2751(4)
C2 C 0.4004(2) 0.4749(4) 0.3098(4)
C3 C 0.3535(2) 0.4785(5) 0.2653(4)
H1 H 0.3434 0.4671 0.2139
C4 C 0.3219(2) 0.4994(5) 0.2991(4)
C5 C 0.3370(2) 0.5194(5) 0.3762(4)
H2 H 0.3154 0.5347 0.3977
C6 C 0.3835(2) 0.5164(5) 0.4203(4)
C7 C 0.3994(3) 0.5419(6) 0.5019(4)
C8 C 0.4152(2) 0.4930(5) 0.3859(4)
H3 H 0.4468 0.4896 0.4151
C9 C 0.2573(2) 0.4867(6) 0.1821(4)
H4 H 0.2677 0.4275 0.1726
H5 H 0.2690 0.5320 0.1567
C10 C 0.2054(2) 0.4897(6) 0.1534(4)
C11 C 0.1820(3) 0.5037(8) 0.0771(5)
H6 H 0.1987 0.5130 0.0459
C12 C 0.1339(3) 0.5039(8) 0.0469(5)
C13 C 0.1089(2) 0.4913(6) 0.0885(5)
H8 H 0.0766 0.4922 0.0670
C14 C 0.1314(2) 0.4766(8) 0.1653(5)
C15 C 0.1801(3) 0.4791(7) 0.1968(5)
H9 H 0.1951 0.4734 0.2487
C16 C 0.1029(3) 0.4525(7) 0.2202(6)
H10 H 0.0747 0.4192 0.1929
H11 H 0.1220 0.4164 0.2630
C17 C 0.0706(3) 0.5320(6) 0.2901(4)
C18 C 0.0563(2) 0.4569(6) 0.3200(4)
H12 H 0.0615 0.3987 0.3061
C19 C 0.0337(2) 0.4699(5) 0.3718(4)
C20 C 0.0208(2) 0.3903(5) 0.4071(4)
C21 C 0.0253(2) 0.5564(5) 0.3910(3)
H13 H 0.0105 0.5649 0.4250
C22 C 0.0392(2) 0.6315(5) 0.3593(4)
C23 C 0.0313(2) 0.7262(6) 0.3778(4)
C24 C 0.0617(2) 0.6176(6) 0.3081(4)
H14 H 0.0707 0.6671 0.2865
C25 C 0.0774(4) 0.7751(7) 0.6559(6)
H15 H 0.0524 0.7887 0.6703
C26 C 0.1213(4) 0.7814(8) 0.7082(7)
H16 H 0.1253 0.8013 0.7564
C27 C 0.1579(3) 0.7607(7) 0.6933(8)
C28 C 0.1517(4) 0.7387(7) 0.6178(9)
H17 H 0.1768 0.7273 0.6034
C29 C 0.1051(3) 0.7349(6) 0.5653(6)
H18 H 0.1003 0.7212 0.5154
C30 C 0.2026(4) 0.7602(10) 0.7590(9)
C31 C 0.2746(4) 0.7541(11) 0.8301(10)
C32 C 0.3283(3) 0.7554(8) 0.8653(8)
C33 C 0.3565(5) 0.7821(10) 0.8318(7)
H19 H 0.3449 0.8004 0.7817
C34 C 0.4048(3) 0.7822(9) 0.8742(6)
H20 H 0.4248 0.8007 0.8506
C35 C 0.3924(3) 0.7360(8) 0.9722(7)
C36 C 0.3455(4) 0.7316(11) 0.9338(10)
H22 H 0.3262 0.7112 0.9580
N1 N 0.0686(2) 0.7495(4) 0.5829(4)
N2 N 0.2043(4) 0.7478(15) 0.8254(8)
N3 N 0.2479(4) 0.7417(16) 0.8642(9)
N4 N 0.2466(2) 0.7613(5) 0.7600(4)
N5 N 0.2592(5) 0.7855(9) 0.6941(8)
H23 H 0.2877 0.7964 0.7003
H24 H 0.2379 0.7885 0.6498
N6 N 0.4229(2) 0.7577(4) 0.9452(4)
O1 O 0.42192(16) 0.4499(5) 0.2051(3)
O2 O 0.47604(17) 0.4470(6) 0.3173(3)
O3 O 0.44343(19) 0.5421(4) 0.5383(3)
O4 O 0.3716(2) 0.5651(6) 0.5294(3)
O5 O 0.27416(16) 0.5044(5) 0.2610(3)
O6 O 0.0931(2) 0.5313(5) 0.2426(4)
O7 O 0.0244(2) 0.3117(4) 0.3846(3)
O8 O 0.00732(16) 0.4005(3) 0.4611(3)
O9 O 0.0091(2) 0.7427(4) 0.4191(3)
O10 O 0.0480(2) 0.7880(4) 0.3484(4)
Zn1 Zn 0.45816(2) 0.41975(6) 0.14393(4)
O12 O 0.52396(17) 0.4470(6) 0.1827(3)
O13 O 0.44343(19) 0.4579(4) 0.0383(3)
O16 O 0.4520(2) 0.2880(4) 0.1516(4)
Zn3 Zn 0.54184(2) 0.41975(6) 0.35607(4)
Zn4 Zn 0.04184(2) 0.91975(6) 0.35607(4)
Zn5 Zn 0.45816(2) 0.58025(6) 0.64393(4)
Zn6 Zn 0.00452(3) 0.26451(6) 0.48637(5)
H25 H 0.0128752 0.906655 0.514292
O11 O 0.9918(2) 0.8729(4) 0.5337(4)
Zn2 Zn 0.99548(3) 0.73549(6) 0.51363(5)
N7 N 0.9229(2) 0.7423(4) 0.4452(4)
O14 O 0.9756(2) 0.6883(4) 0.6154(3)
O15 O 0.99268(16) 0.5995(3) 0.5389(3)
H26 H 0.959351 0.89438 0.507684
N7_2 N 0.0771(2) 0.7423(4) 0.0548(4)
O11_2 O 0.0082(2) 0.8729(4) 0.9663(4)
Zn2_2 Zn 0.00452(3) 0.73549(6) 0.98637(5)
O14_2 O 0.0244(2) 0.6883(4) 0.8846(3)
O15_2 O 0.00732(16) 0.5995(3) 0.9611(3)
H26_2 H 0.0406488 0.89438 0.992316
C1_2 C 0.5644(2) 0.4557(5) 0.2249(4)
C2_2 C 0.5996(2) 0.4749(4) 0.1902(4)
C3_2 C 0.6465(2) 0.4785(5) 0.2347(4)
H1_2 H 0.6566 0.4671 0.2861
C4_2 C 0.6781(2) 0.4994(5) 0.2009(4)
C5_2 C 0.6630(2) 0.5194(5) 0.1238(4)
H2_2 H 0.6846 0.5347 0.1023
C6_2 C 0.6165(2) 0.5164(5) 0.0797(4)
C8_2 C 0.5848(2) 0.4930(5) 0.1141(4)
H3_2 H 0.5532 0.4896 0.0849
C9_2 C 0.7427(2) 0.4867(6) 0.3179(4)
H4_2 H 0.7323 0.4275 0.3274
H5_2 H 0.7310 0.5320 0.3433
C10_2 C 0.7946(2) 0.4897(6) 0.3466(4)
C11_2 C 0.8180(3) 0.5037(8) 0.4229(5)
H6_2 H 0.8013 0.5130 0.4541
C12_2 C 0.8661(3) 0.5039(8) 0.4531(5)
H7 H 0.8812 0.5134 0.5045
C13_2 C 0.8911(2) 0.4913(6) 0.4115(5)
H8_2 H 0.9234 0.4922 0.4330
C14_2 C 0.8686(2) 0.4766(8) 0.3347(5)
C15_2 C 0.8199(3) 0.4791(7) 0.3032(5)
H9_2 H 0.8049 0.4734 0.2513
C16_2 C 0.8971(3) 0.4525(7) 0.2798(6)
H10_2 H 0.9253 0.4192 0.3071
H11_2 H 0.8780 0.4164 0.2370
C17_2 C 0.9294(3) 0.5320(6) 0.2099(4)
C18_2 C 0.9437(2) 0.4569(6) 0.1800(4)
H12_2 H 0.9385 0.3987 0.1939
C19_2 C 0.9663(2) 0.4699(5) 0.1282(4)
C20_2 C 0.9792(2) 0.3903(5) 0.0929(4)
C21_2 C 0.9747(2) 0.5564(5) 0.1090(3)
H13_2 H 0.9895 0.5649 0.0750
C22_2 C 0.9608(2) 0.6315(5) 0.1407(4)
C23_2 C 0.9687(2) 0.7262(6) 0.1222(4)
C24_2 C 0.9383(2) 0.6176(6) 0.1919(4)
H14_2 H 0.9293 0.6671 0.2135
O1_2 O 0.57808(16) 0.4499(5) 0.2949(3)
O5_2 O 0.72584(16) 0.5044(5) 0.2390(3)
O6_2 O 0.9069(2) 0.5313(5) 0.2574(4)
O7_2 O 0.9756(2) 0.3117(4) 0.1154(3)
O8_2 O 0.99268(16) 0.4005(3) 0.0389(3)
O9_2 O 0.9909(2) 0.7427(4) 0.0809(3)
O10_2 O 0.9520(2) 0.7880(4) 0.1516(4)
O13_2 O 0.55657(19) 0.4579(4) 0.4617(3)
O16_2 O 0.5480(2) 0.2880(4) 0.3484(4)
Zn4_2 Zn 0.95816(2) 0.91975(6) 0.14393(4)
Zn6_2 Zn 0.99548(3) 0.26451(6) 0.01363(5)
C7_2 C 0.6006(3) 0.5419(6) 0.9981(4)
C25_2 C 0.9226(4) 0.7751(7) 0.8441(6)
H15_2 H 0.9476 0.7887 0.8297
C26_2 C 0.8787(4) 0.7814(8) 0.7918(7)
H16_2 H 0.8747 0.8013 0.7436
C27_2 C 0.8421(3) 0.7607(7) 0.8067(8)
C28_2 C 0.8483(4) 0.7387(7) 0.8822(9)
H17_2 H 0.8232 0.7273 0.8966
C29_2 C 0.8949(3) 0.7349(6) 0.9347(6)
H18_2 H 0.8997 0.7212 0.9846
C30_2 C 0.7974(4) 0.7602(10) 0.7410(9)
C31_2 C 0.7254(4) 0.7541(11) 0.6699(10)
C32_2 C 0.6717(3) 0.7554(8) 0.6347(8)
C33_2 C 0.6435(5) 0.7821(10) 0.6682(7)
H19_2 H 0.6551 0.8004 0.7183
C34_2 C 0.5952(3) 0.7822(9) 0.6258(6)
H20_2 H 0.5752 0.8007 0.6494
C35_2 C 0.6076(3) 0.7360(8) 0.5278(7)
H21_2 H 0.5970 0.7217 0.4768
C36_2 C 0.6545(4) 0.7316(11) 0.5662(10)
H22_2 H 0.6738 0.7112 0.5420
N1_2 N 0.9314(2) 0.7495(4) 0.9171(4)
N2_2 N 0.7957(4) 0.7478(15) 0.6746(8)
N3_2 N 0.7521(4) 0.7417(16) 0.6358(9)
N4_2 N 0.7534(2) 0.7613(5) 0.7400(4)
N5_2 N 0.7408(5) 0.7855(9) 0.8059(8)
H23_2 H 0.7123 0.7964 0.7997
H24_2 H 0.7621 0.7885 0.8502
N6_2 N 0.5771(2) 0.7577(4) 0.5548(4)
O3_2 O 0.55657(19) 0.5421(4) 0.9617(3)
O4_2 O 0.6284(2) 0.5651(6) 0.9706(3)
Zn5_2 Zn 0.54184(2) 0.58025(6) 0.85607(4)
Zn7_2 Zn 0.50452(3) 0.76451(6) 0.48637(5)
H25_2 H 0.987125 0.906655 0.985708
O12_2 O 0.02396(17) 0.9470(6) 0.1827(3)
H21_3 H 0.9030 0.2217 0.0232
C5_3 C 0.8370(2) 0.0194(5) 0.3762(4)
H2_3 H 0.8154 0.0347 0.3977
C6_3 C 0.8835(2) 0.0164(5) 0.4203(4)
C7_3 C 0.8994(3) 0.0419(6) 0.5019(4)
H5_3 H 0.7690 0.0320 0.1567
C11_3 C 0.6820(3) 0.0037(8) 0.0771(5)
H6_3 H 0.6987 0.0130 0.0459
C12_3 C 0.6339(3) 0.0039(8) 0.0469(5)
C17_3 C 0.5706(3) 0.0320(6) 0.2901(4)
C21_3 C 0.5253(2) 0.0564(5) 0.3910(3)
H13_3 H 0.5105 0.0649 0.4250
C22_3 C 0.5392(2) 0.1315(5) 0.3593(4)
C23_3 C 0.5313(2) 0.2262(6) 0.3778(4)
C24_3 C 0.5617(2) 0.1176(6) 0.3081(4)
H14_3 H 0.5707 0.1671 0.2865
C25_3 C 0.5774(4) 0.2751(7) 0.6559(6)
H15_3 H 0.5524 0.2887 0.6703
C26_3 C 0.6213(4) 0.2814(8) 0.7082(7)
H16_3 H 0.6253 0.3013 0.7564
C27_3 C 0.6579(3) 0.2607(7) 0.6933(8)
C28_3 C 0.6517(4) 0.2387(7) 0.6178(9)
H17_3 H 0.6768 0.2273 0.6034
C29_3 C 0.6051(3) 0.2349(6) 0.5653(6)
H18_3 H 0.6003 0.2212 0.5154
C30_3 C 0.7026(4) 0.2602(10) 0.7590(9)
C31_3 C 0.7746(4) 0.2541(11) 0.8301(10)
C32_3 C 0.8283(3) 0.2554(8) 0.8653(8)
C33_3 C 0.8565(5) 0.2821(10) 0.8318(7)
H19_3 H 0.8449 0.3004 0.7817
C34_3 C 0.9048(3) 0.2822(9) 0.8742(6)
H20_3 H 0.9248 0.3007 0.8506
C35_3 C 0.8924(3) 0.2360(8) 0.9722(7)
C36_3 C 0.8455(4) 0.2316(11) 0.9338(10)
H22_3 H 0.8262 0.2112 0.9580
N1_3 N 0.5686(2) 0.2495(4) 0.5829(4)
N2_3 N 0.7043(4) 0.2478(15) 0.8254(8)
N3_3 N 0.7479(4) 0.2417(16) 0.8642(9)
N4_3 N 0.7466(2) 0.2613(5) 0.7600(4)
N5_3 N 0.7592(5) 0.2855(9) 0.6941(8)
H23_3 H 0.7877 0.2964 0.7003
H24_3 H 0.7379 0.2885 0.6498
N6_3 N 0.9229(2) 0.2577(4) 0.9452(4)
O3_3 O 0.94343(19) 0.0421(4) 0.5383(3)
O4_3 O 0.8716(2) 0.0651(6) 0.5294(3)
O5_3 O 0.77416(16) 0.0044(5) 0.2610(3)
O6_3 O 0.5931(2) 0.0313(5) 0.2426(4)
O9_3 O 0.5091(2) 0.2427(4) 0.4191(3)
O11_3 O 0.4918(2) 0.3729(4) 0.5337(4)
Zn2_3 Zn 0.49548(3) 0.23549(6) 0.51363(5)
N7_3 N 0.4229(2) 0.2423(4) 0.4452(4)
O14_3 O 0.4756(2) 0.1883(4) 0.6154(3)
O15_3 O 0.49268(16) 0.0995(3) 0.5389(3)
Zn5_3 Zn 0.95816(2) 0.08025(6) 0.64393(4)
H25_3 H 0.512875 0.406655 0.514292
H26_3 H 0.459351 0.39438 0.507684
C1_3 C 0.9356(2) 0.9557(5) 0.2751(4)
C2_3 C 0.9004(2) 0.9749(4) 0.3098(4)
C3_3 C 0.8535(2) 0.9785(5) 0.2653(4)
H1_3 H 0.8434 0.9671 0.2139
C4_3 C 0.8219(2) 0.9994(5) 0.2991(4)
C8_3 C 0.9152(2) 0.9930(5) 0.3859(4)
H3_3 H 0.9468 0.9896 0.4151
C9_3 C 0.7573(2) 0.9867(6) 0.1821(4)
H4_3 H 0.7677 0.9275 0.1726
C10_3 C 0.7054(2) 0.9897(6) 0.1534(4)
C13_3 C 0.6089(2) 0.9913(6) 0.0885(5)
H8_3 H 0.5766 0.9922 0.0670
C14_3 C 0.6314(2) 0.9766(8) 0.1653(5)
C15_3 C 0.6801(3) 0.9791(7) 0.1968(5)
H9_3 H 0.6951 0.9734 0.2487
C16_3 C 0.6029(3) 0.9525(7) 0.2202(6)
H10_3 H 0.5747 0.9192 0.1929
H11_3 H 0.6220 0.9164 0.2630
C18_3 C 0.5563(2) 0.9569(6) 0.3200(4)
H12_3 H 0.5615 0.8987 0.3061
C19_3 C 0.5337(2) 0.9699(5) 0.3718(4)
C20_3 C 0.5208(2) 0.8903(5) 0.4071(4)
O1_3 O 0.92192(16) 0.9499(5) 0.2051(3)
O2_2 O 0.97604(17) 0.9470(6) 0.3173(3)
O7_3 O 0.5244(2) 0.8117(4) 0.3846(3)
O8_3 O 0.50732(16) 0.9005(3) 0.4611(3)
O13_3 O 0.94343(19) 0.9579(4) 0.0383(3)
C5_4 C 0.1630(2) 0.0194(5) 0.1238(4)
H2_4 H 0.1846 0.0347 0.1023
C6_4 C 0.1165(2) 0.0164(5) 0.0797(4)
H5_4 H 0.2310 0.0320 0.3433
C11_4 C 0.3180(3) 0.0037(8) 0.4229(5)
H6_4 H 0.3013 0.0130 0.4541
C12_4 C 0.3661(3) 0.0039(8) 0.4531(5)
H7_2 H 0.3812 0.0134 0.5045
C17_4 C 0.4294(3) 0.0320(6) 0.2099(4)
C21_4 C 0.4747(2) 0.0564(5) 0.1090(3)
H13_4 H 0.4895 0.0649 0.0750
C22_4 C 0.4608(2) 0.1315(5) 0.1407(4)
C23_4 C 0.4687(2) 0.2262(6) 0.1222(4)
C24_4 C 0.4383(2) 0.1176(6) 0.1919(4)
H14_4 H 0.4293 0.1671 0.2135
O5_4 O 0.22584(16) 0.0044(5) 0.2390(3)
O6_4 O 0.4069(2) 0.0313(5) 0.2574(4)
O9_4 O 0.4909(2) 0.2427(4) 0.0809(3)
N7_4 N 0.5771(2) 0.2423(4) 0.0548(4)
C7_4 C 0.1006(3) 0.0419(6) 0.9981(4)
C25_4 C 0.4226(4) 0.2751(7) 0.8441(6)
H15_4 H 0.4476 0.2887 0.8297
C26_4 C 0.3787(4) 0.2814(8) 0.7918(7)
H16_4 H 0.3747 0.3013 0.7436
C27_4 C 0.3421(3) 0.2607(7) 0.8067(8)
C28_4 C 0.3483(4) 0.2387(7) 0.8822(9)
H17_4 H 0.3232 0.2273 0.8966
C29_4 C 0.3949(3) 0.2349(6) 0.9347(6)
H18_4 H 0.3997 0.2212 0.9846
C30_4 C 0.2974(4) 0.2602(10) 0.7410(9)
C31_4 C 0.2254(4) 0.2541(11) 0.6699(10)
C32_4 C 0.1717(3) 0.2554(8) 0.6347(8)
C33_4 C 0.1435(5) 0.2821(10) 0.6682(7)
H19_4 H 0.1551 0.3004 0.7183
C34_4 C 0.0952(3) 0.2822(9) 0.6258(6)
H20_4 H 0.0752 0.3007 0.6494
C35_4 C 0.1076(3) 0.2360(8) 0.5278(7)
H21_4 H 0.0970 0.2217 0.4768
C36_4 C 0.1545(4) 0.2316(11) 0.5662(10)
H22_4 H 0.1738 0.2112 0.5420
N1_4 N 0.4314(2) 0.2495(4) 0.9171(4)
N2_4 N 0.2957(4) 0.2478(15) 0.6746(8)
N3_4 N 0.2521(4) 0.2417(16) 0.6358(9)
N4_4 N 0.2534(2) 0.2613(5) 0.7400(4)
N5_4 N 0.2408(5) 0.2855(9) 0.8059(8)
H23_4 H 0.2123 0.2964 0.7997
H24_4 H 0.2621 0.2885 0.8502
N6_4 N 0.0771(2) 0.2577(4) 0.5548(4)
O3_4 O 0.05657(19) 0.0421(4) 0.9617(3)
O4_4 O 0.1284(2) 0.0651(6) 0.9706(3)
O11_4 O 0.5082(2) 0.3729(4) 0.9663(4)
Zn2_4 Zn 0.50452(3) 0.23549(6) 0.98637(5)
O14_4 O 0.5244(2) 0.1883(4) 0.8846(3)
O15_4 O 0.50732(16) 0.0995(3) 0.9611(3)
Zn5_4 Zn 0.04184(2) 0.08025(6) 0.85607(4)
H25_4 H 0.487125 0.406655 0.985708
H26_4 H 0.540649 0.39438 0.992316
C1_4 C 0.0644(2) 0.9557(5) 0.2249(4)
C2_4 C 0.0996(2) 0.9749(4) 0.1902(4)
C3_4 C 0.1465(2) 0.9785(5) 0.2347(4)
H1_4 H 0.1566 0.9671 0.2861
C4_4 C 0.1781(2) 0.9994(5) 0.2009(4)
C8_4 C 0.0848(2) 0.9930(5) 0.1141(4)
H3_4 H 0.0532 0.9896 0.0849
C9_4 C 0.2427(2) 0.9867(6) 0.3179(4)
H4_4 H 0.2323 0.9275 0.3274
C10_4 C 0.2946(2) 0.9897(6) 0.3466(4)
C13_4 C 0.3911(2) 0.9913(6) 0.4115(5)
H8_4 H 0.4234 0.9922 0.4330
C14_4 C 0.3686(2) 0.9766(8) 0.3347(5)
C15_4 C 0.3199(3) 0.9791(7) 0.3032(5)
H9_4 H 0.3049 0.9734 0.2513
C16_4 C 0.3971(3) 0.9525(7) 0.2798(6)
H10_4 H 0.4253 0.9192 0.3071
H11_4 H 0.3780 0.9164 0.2370
C18_4 C 0.4437(2) 0.9569(6) 0.1800(4)
H12_4 H 0.4385 0.8987 0.1939
C19_4 C 0.4663(2) 0.9699(5) 0.1282(4)
C20_4 C 0.4792(2) 0.8903(5) 0.0929(4)
O1_4 O 0.07808(16) 0.9499(5) 0.2949(3)
O7_4 O 0.4756(2) 0.8117(4) 0.1154(3)
O8_4 O 0.49268(16) 0.9005(3) 0.0389(3)
O13_4 O 0.05657(19) 0.9579(4) 0.4617(3)
O11_5 O 0.0082(2) 0.1271(4) 0.4663(4)
H26_5 H 0.0406488 0.10562 0.492316
C1_5 C 0.5644(2) 0.5443(5) 0.7249(4)
C2_5 C 0.5996(2) 0.5251(4) 0.6902(4)
C3_5 C 0.6465(2) 0.5215(5) 0.7347(4)
H1_5 H 0.6566 0.5329 0.7861
C4_5 C 0.6781(2) 0.5006(5) 0.7009(4)
C5_5 C 0.6630(2) 0.4806(5) 0.6238(4)
H2_5 H 0.6846 0.4653 0.6023
C6_5 C 0.6165(2) 0.4836(5) 0.5797(4)
C7_5 C 0.6006(3) 0.4581(6) 0.4981(4)
C8_5 C 0.5848(2) 0.5070(5) 0.6141(4)
H3_5 H 0.5532 0.5104 0.5849
C9_5 C 0.7427(2) 0.5133(6) 0.8179(4)
H4_5 H 0.7323 0.5725 0.8274
H5_5 H 0.7310 0.4680 0.8433
C10_5 C 0.7946(2) 0.5103(6) 0.8466(4)
C11_5 C 0.8180(3) 0.4963(8) 0.9229(5)
H6_5 H 0.8013 0.4870 0.9541
C12_5 C 0.8661(3) 0.4961(8) 0.9531(5)
C13_5 C 0.8911(2) 0.5087(6) 0.9115(5)
H8_5 H 0.9234 0.5078 0.9330
C14_5 C 0.8686(2) 0.5234(8) 0.8347(5)
C15_5 C 0.8199(3) 0.5209(7) 0.8032(5)
H9_5 H 0.8049 0.5266 0.7513
C16_5 C 0.8971(3) 0.5475(7) 0.7798(6)
H10_5 H 0.9253 0.5808 0.8071
H11_5 H 0.8780 0.5836 0.7370
C17_5 C 0.9294(3) 0.4680(6) 0.7099(4)
C18_5 C 0.9437(2) 0.5431(6) 0.6800(4)
H12_5 H 0.9385 0.6013 0.6939
C19_5 C 0.9663(2) 0.5301(5) 0.6282(4)
C20_5 C 0.9792(2) 0.6097(5) 0.5929(4)
C21_5 C 0.9747(2) 0.4436(5) 0.6090(3)
H13_5 H 0.9895 0.4351 0.5750
C22_5 C 0.9608(2) 0.3685(5) 0.6407(4)
C23_5 C 0.9687(2) 0.2738(6) 0.6222(4)
C24_5 C 0.9383(2) 0.3824(6) 0.6919(4)
H14_5 H 0.9293 0.3329 0.7135
C25_5 C 0.9226(4) 0.2249(7) 0.3441(6)
H15_5 H 0.9476 0.2113 0.3297
C26_5 C 0.8787(4) 0.2186(8) 0.2918(7)
H16_5 H 0.8747 0.1987 0.2436
C27_5 C 0.8421(3) 0.2393(7) 0.3067(8)
C28_5 C 0.8483(4) 0.2613(7) 0.3822(9)
H17_5 H 0.8232 0.2727 0.3966
C29_5 C 0.8949(3) 0.2651(6) 0.4347(6)
H18_5 H 0.8997 0.2788 0.4846
C30_5 C 0.7974(4) 0.2398(10) 0.2410(9)
C31_5 C 0.7254(4) 0.2459(11) 0.1699(10)
C32_5 C 0.6717(3) 0.2446(8) 0.1347(8)
C33_5 C 0.6435(5) 0.2179(10) 0.1682(7)
H19_5 H 0.6551 0.1996 0.2183
C34_5 C 0.5952(3) 0.2178(9) 0.1258(6)
H20_5 H 0.5752 0.1993 0.1494
C35_5 C 0.6076(3) 0.2640(8) 0.0278(7)
C36_5 C 0.6545(4) 0.2684(11) 0.0662(10)
H22_5 H 0.6738 0.2888 0.0420
N1_5 N 0.9314(2) 0.2505(4) 0.4171(4)
N2_5 N 0.7957(4) 0.2522(15) 0.1746(8)
N3_5 N 0.7521(4) 0.2583(16) 0.1358(9)
N4_5 N 0.7534(2) 0.2387(5) 0.2400(4)
N5_5 N 0.7408(5) 0.2145(9) 0.3059(8)
H23_5 H 0.7123 0.2036 0.2997
H24_5 H 0.7621 0.2115 0.3502
O1_5 O 0.57808(16) 0.5501(5) 0.7949(3)
O2_3 O 0.52396(17) 0.5530(6) 0.6827(3)
O4_5 O 0.6284(2) 0.4349(6) 0.4706(3)
O5_5 O 0.72584(16) 0.4956(5) 0.7390(3)
O6_5 O 0.9069(2) 0.4687(5) 0.7574(4)
O9_5 O 0.9909(2) 0.2573(4) 0.5809(3)
O10_3 O 0.9520(2) 0.2120(4) 0.6516(4)
O12_3 O 0.47604(17) 0.5530(6) 0.8173(3)
O16_3 O 0.5480(2) 0.7120(4) 0.8484(4)
H25_5 H 0.987125 0.0933453 0.485708
H21_5 H 0.5970 0.2783 0.9768
C7_6 C 0.3994(3) 0.4581(6) 0.0019(4)
C25_6 C 0.0774(4) 0.2249(7) 0.1559(6)
H15_6 H 0.0524 0.2113 0.1703
C26_6 C 0.1213(4) 0.2186(8) 0.2082(7)
H16_6 H 0.1253 0.1987 0.2564
C27_6 C 0.1579(3) 0.2393(7) 0.1933(8)
C28_6 C 0.1517(4) 0.2613(7) 0.1178(9)
H17_6 H 0.1768 0.2727 0.1034
C29_6 C 0.1051(3) 0.2651(6) 0.0653(6)
H18_6 H 0.1003 0.2788 0.0154
C30_6 C 0.2026(4) 0.2398(10) 0.2590(9)
C31_6 C 0.2746(4) 0.2459(11) 0.3301(10)
C32_6 C 0.3283(3) 0.2446(8) 0.3653(8)
C33_6 C 0.3565(5) 0.2179(10) 0.3318(7)
H19_6 H 0.3449 0.1996 0.2817
C34_6 C 0.4048(3) 0.2178(9) 0.3742(6)
H20_6 H 0.4248 0.1993 0.3506
C35_6 C 0.3924(3) 0.2640(8) 0.4722(7)
H21_6 H 0.4030 0.2783 0.5232
C36_6 C 0.3455(4) 0.2684(11) 0.4338(10)
H22_6 H 0.3262 0.2888 0.4580
N1_6 N 0.0686(2) 0.2505(4) 0.0829(4)
N2_6 N 0.2043(4) 0.2522(15) 0.3254(8)
N3_6 N 0.2479(4) 0.2583(16) 0.3642(9)
N4_6 N 0.2466(2) 0.2387(5) 0.2600(4)
N5_6 N 0.2592(5) 0.2145(9) 0.1941(8)
H23_6 H 0.2877 0.2036 0.2003
H24_6 H 0.2379 0.2115 0.1498
O4_6 O 0.3716(2) 0.4349(6) 0.0294(3)
H25_6 H 0.0128752 0.0933453 0.0142918
C1_6 C 0.4356(2) 0.5443(5) 0.7751(4)
C2_6 C 0.4004(2) 0.5251(4) 0.8098(4)
C3_6 C 0.3535(2) 0.5215(5) 0.7653(4)
H1_6 H 0.3434 0.5329 0.7139
C4_6 C 0.3219(2) 0.5006(5) 0.7991(4)
C5_6 C 0.3370(2) 0.4806(5) 0.8762(4)
H2_6 H 0.3154 0.4653 0.8977
C6_6 C 0.3835(2) 0.4836(5) 0.9203(4)
C8_6 C 0.4152(2) 0.5070(5) 0.8859(4)
H3_6 H 0.4468 0.5104 0.9151
C9_6 C 0.2573(2) 0.5133(6) 0.6821(4)
H4_6 H 0.2677 0.5725 0.6726
H5_6 H 0.2690 0.4680 0.6567
C10_6 C 0.2054(2) 0.5103(6) 0.6534(4)
C11_6 C 0.1820(3) 0.4963(8) 0.5771(5)
H6_6 H 0.1987 0.4870 0.5459
C12_6 C 0.1339(3) 0.4961(8) 0.5469(5)
H7_3 H 0.1188 0.4866 0.4955
C13_6 C 0.1089(2) 0.5087(6) 0.5885(5)
H8_6 H 0.0766 0.5078 0.5670
C14_6 C 0.1314(2) 0.5234(8) 0.6653(5)
C15_6 C 0.1801(3) 0.5209(7) 0.6968(5)
H9_6 H 0.1951 0.5266 0.7487
C16_6 C 0.1029(3) 0.5475(7) 0.7202(6)
H10_6 H 0.0747 0.5808 0.6929
H11_6 H 0.1220 0.5836 0.7630
C17_6 C 0.0706(3) 0.4680(6) 0.7901(4)
C18_6 C 0.0563(2) 0.5431(6) 0.8200(4)
H12_6 H 0.0615 0.6013 0.8061
C19_6 C 0.0337(2) 0.5301(5) 0.8718(4)
C20_6 C 0.0208(2) 0.6097(5) 0.9071(4)
C21_6 C 0.0253(2) 0.4436(5) 0.8910(3)
H13_6 H 0.0105 0.4351 0.9250
C22_6 C 0.0392(2) 0.3685(5) 0.8593(4)
C23_6 C 0.0313(2) 0.2738(6) 0.8778(4)
C24_6 C 0.0617(2) 0.3824(6) 0.8081(4)
H14_6 H 0.0707 0.3329 0.7865
O1_6 O 0.42192(16) 0.5501(5) 0.7051(3)
O5_6 O 0.27416(16) 0.4956(5) 0.7610(3)
O6_6 O 0.0931(2) 0.4687(5) 0.7426(4)
O9_6 O 0.0091(2) 0.2573(4) 0.9191(3)
O10_4 O 0.0480(2) 0.2120(4) 0.8484(4)
O16_4 O 0.4520(2) 0.7120(4) 0.6516(4)
O11_6 O 0.9918(2) 0.1271(4) 0.0337(4)
H26_6 H 0.959351 0.10562 0.00768356
C1_7 C 0.0644(2) 0.0443(5) 0.7249(4)
C2_7 C 0.0996(2) 0.0251(4) 0.6902(4)
C3_7 C 0.1465(2) 0.0215(5) 0.7347(4)
H1_7 H 0.1566 0.0329 0.7861
C4_7 C 0.1781(2) 0.0006(5) 0.7009(4)
C8_7 C 0.0848(2) 0.0070(5) 0.6141(4)
H3_7 H 0.0532 0.0104 0.5849
C9_7 C 0.2427(2) 0.0133(6) 0.8179(4)
H4_7 H 0.2323 0.0725 0.8274
C10_7 C 0.2946(2) 0.0103(6) 0.8466(4)
C13_7 C 0.3911(2) 0.0087(6) 0.9115(5)
H8_7 H 0.4234 0.0078 0.9330
C14_7 C 0.3686(2) 0.0234(8) 0.8347(5)
C15_7 C 0.3199(3) 0.0209(7) 0.8032(5)
H9_7 H 0.3049 0.0266 0.7513
C16_7 C 0.3971(3) 0.0475(7) 0.7798(6)
H10_7 H 0.4253 0.0808 0.8071
H11_7 H 0.3780 0.0836 0.7370
C18_7 C 0.4437(2) 0.0431(6) 0.6800(4)
H12_7 H 0.4385 0.1013 0.6939
C19_7 C 0.4663(2) 0.0301(5) 0.6282(4)
C20_7 C 0.4792(2) 0.1097(5) 0.5929(4)
O1_7 O 0.07808(16) 0.0501(5) 0.7949(3)
O2_4 O 0.02396(17) 0.0530(6) 0.6827(3)
C5_7 C 0.1630(2) 0.9806(5) 0.6238(4)
H2_7 H 0.1846 0.9653 0.6023
C6_7 C 0.1165(2) 0.9836(5) 0.5797(4)
C7_7 C 0.1006(3) 0.9581(6) 0.4981(4)
H5_7 H 0.2310 0.9680 0.8433
C11_7 C 0.3180(3) 0.9963(8) 0.9229(5)
H6_7 H 0.3013 0.9870 0.9541
C12_7 C 0.3661(3) 0.9961(8) 0.9531(5)
C17_7 C 0.4294(3) 0.9680(6) 0.7099(4)
C21_7 C 0.4747(2) 0.9436(5) 0.6090(3)
H13_7 H 0.4895 0.9351 0.5750
C22_7 C 0.4608(2) 0.8685(5) 0.6407(4)
C23_7 C 0.4687(2) 0.7738(6) 0.6222(4)
C24_7 C 0.4383(2) 0.8824(6) 0.6919(4)
H14_7 H 0.4293 0.8329 0.7135
C25_7 C 0.4226(4) 0.7249(7) 0.3441(6)
H15_7 H 0.4476 0.7113 0.3297
C26_7 C 0.3787(4) 0.7186(8) 0.2918(7)
H16_7 H 0.3747 0.6987 0.2436
C27_7 C 0.3421(3) 0.7393(7) 0.3067(8)
C28_7 C 0.3483(4) 0.7613(7) 0.3822(9)
H17_7 H 0.3232 0.7727 0.3966
C29_7 C 0.3949(3) 0.7651(6) 0.4347(6)
H18_7 H 0.3997 0.7788 0.4846
C30_7 C 0.2974(4) 0.7398(10) 0.2410(9)
C31_7 C 0.2254(4) 0.7459(11) 0.1699(10)
C32_7 C 0.1717(3) 0.7446(8) 0.1347(8)
C33_7 C 0.1435(5) 0.7179(10) 0.1682(7)
H19_7 H 0.1551 0.6996 0.2183
C34_7 C 0.0952(3) 0.7178(9) 0.1258(6)
H20_7 H 0.0752 0.6993 0.1494
C35_7 C 0.1076(3) 0.7640(8) 0.0278(7)
C36_7 C 0.1545(4) 0.7684(11) 0.0662(10)
H22_7 H 0.1738 0.7888 0.0420
N1_7 N 0.4314(2) 0.7505(4) 0.4171(4)
N2_7 N 0.2957(4) 0.7522(15) 0.1746(8)
N3_7 N 0.2521(4) 0.7583(16) 0.1358(9)
N4_7 N 0.2534(2) 0.7387(5) 0.2400(4)
N5_7 N 0.2408(5) 0.7145(9) 0.3059(8)
H23_7 H 0.2123 0.7036 0.2997
H24_7 H 0.2621 0.7115 0.3502
O4_7 O 0.1284(2) 0.9349(6) 0.4706(3)
O5_7 O 0.22584(16) 0.9956(5) 0.7390(3)
O6_7 O 0.4069(2) 0.9687(5) 0.7574(4)
O9_7 O 0.4909(2) 0.7573(4) 0.5809(3)
O11_7 O 0.5082(2) 0.6271(4) 0.4663(4)
H25_7 H 0.487125 0.593345 0.485708
H26_7 H 0.540649 0.60562 0.492316
H21_7 H 0.0970 0.7783 0.9768
O12_4 O 0.97604(17) 0.0530(6) 0.8173(3)
C1_8 C 0.9356(2) 0.0443(5) 0.7751(4)
C2_8 C 0.9004(2) 0.0251(4) 0.8098(4)
C3_8 C 0.8535(2) 0.0215(5) 0.7653(4)
H1_8 H 0.8434 0.0329 0.7139
C4_8 C 0.8219(2) 0.0006(5) 0.7991(4)
C8_8 C 0.9152(2) 0.0070(5) 0.8859(4)
H3_8 H 0.9468 0.0104 0.9151
C9_8 C 0.7573(2) 0.0133(6) 0.6821(4)
H4_8 H 0.7677 0.0725 0.6726
C10_8 C 0.7054(2) 0.0103(6) 0.6534(4)
C13_8 C 0.6089(2) 0.0087(6) 0.5885(5)
H8_8 H 0.5766 0.0078 0.5670
C14_8 C 0.6314(2) 0.0234(8) 0.6653(5)
C15_8 C 0.6801(3) 0.0209(7) 0.6968(5)
H9_8 H 0.6951 0.0266 0.7487
C16_8 C 0.6029(3) 0.0475(7) 0.7202(6)
H10_8 H 0.5747 0.0808 0.6929
H11_8 H 0.6220 0.0836 0.7630
C18_8 C 0.5563(2) 0.0431(6) 0.8200(4)
H12_8 H 0.5615 0.1013 0.8061
C19_8 C 0.5337(2) 0.0301(5) 0.8718(4)
C20_8 C 0.5208(2) 0.1097(5) 0.9071(4)
O1_8 O 0.92192(16) 0.0501(5) 0.7051(3)
C7_8 C 0.8994(3) 0.9581(6) 0.0019(4)
C25_8 C 0.5774(4) 0.7249(7) 0.1559(6)
H15_8 H 0.5524 0.7113 0.1703
C26_8 C 0.6213(4) 0.7186(8) 0.2082(7)
H16_8 H 0.6253 0.6987 0.2564
C27_8 C 0.6579(3) 0.7393(7) 0.1933(8)
C28_8 C 0.6517(4) 0.7613(7) 0.1178(9)
H17_8 H 0.6768 0.7727 0.1034
C29_8 C 0.6051(3) 0.7651(6) 0.0653(6)
H18_8 H 0.6003 0.7788 0.0154
C30_8 C 0.7026(4) 0.7398(10) 0.2590(9)
C31_8 C 0.7746(4) 0.7459(11) 0.3301(10)
C32_8 C 0.8283(3) 0.7446(8) 0.3653(8)
C33_8 C 0.8565(5) 0.7179(10) 0.3318(7)
H19_8 H 0.8449 0.6996 0.2817
C34_8 C 0.9048(3) 0.7178(9) 0.3742(6)
H20_8 H 0.9248 0.6993 0.3506
C35_8 C 0.8924(3) 0.7640(8) 0.4722(7)
H21_8 H 0.9030 0.7783 0.5232
C36_8 C 0.8455(4) 0.7684(11) 0.4338(10)
H22_8 H 0.8262 0.7888 0.4580
N1_8 N 0.5686(2) 0.7505(4) 0.0829(4)
N2_8 N 0.7043(4) 0.7522(15) 0.3254(8)
N3_8 N 0.7479(4) 0.7583(16) 0.3642(9)
N4_8 N 0.7466(2) 0.7387(5) 0.2600(4)
N5_8 N 0.7592(5) 0.7145(9) 0.1941(8)
H23_8 H 0.7877 0.7036 0.2003
H24_8 H 0.7379 0.7115 0.1498
O4_8 O 0.8716(2) 0.9349(6) 0.0294(3)
O11_8 O 0.4918(2) 0.6271(4) 0.0337(4)
H25_8 H 0.512875 0.593345 0.0142918
H26_8 H 0.459351 0.60562 0.00768356
C5_8 C 0.8370(2) 0.9806(5) 0.8762(4)
H2_8 H 0.8154 0.9653 0.8977
C6_8 C 0.8835(2) 0.9836(5) 0.9203(4)
H5_8 H 0.7690 0.9680 0.6567
C11_8 C 0.6820(3) 0.9963(8) 0.5771(5)
H6_8 H 0.6987 0.9870 0.5459
C12_8 C 0.6339(3) 0.9961(8) 0.5469(5)
H7_4 H 0.6188 0.9866 0.4955
C17_8 C 0.5706(3) 0.9680(6) 0.7901(4)
C21_8 C 0.5253(2) 0.9436(5) 0.8910(3)
H13_8 H 0.5105 0.9351 0.9250
C22_8 C 0.5392(2) 0.8685(5) 0.8593(4)
C23_8 C 0.5313(2) 0.7738(6) 0.8778(4)
C24_8 C 0.5617(2) 0.8824(6) 0.8081(4)
H14_8 H 0.5707 0.8329 0.7865
O5_8 O 0.77416(16) 0.9956(5) 0.7610(3)
O6_8 O 0.5931(2) 0.9687(5) 0.7426(4)
O9_8 O 0.5091(2) 0.7573(4) 0.9191(3)
H7_5 H 0.1188 0.5134 0.9955
H7_6 H 0.6188 0.0134 0.9955
H7_7 H 0.8812 0.4866 0.0045
H7_8 H 0.3812 0.9866 0.0045
loop_
_geom_bond_atom_site_label_1
_geom_bond_atom_site_label_2
_geom_bond_site_symmetry_1
_geom_bond_site_symmetry_2
C1 C2 1_555 1_555
C2 C3 1_555 1_555
C3 H1 1_555 1_555
C4 C3 1_555 1_555
C5 C4 1_555 1_555
H2 C5 1_555 1_555
C6 C5 1_555 1_555
C7 C6 1_555 1_555
C8 C2 1_555 1_555
H3 C8 1_555 1_555
C9 H4 1_555 1_555
H5 C9 1_555 1_555
C10 C9 1_555 1_555
C11 C10 1_555 1_555
H6 C11 1_555 1_555
C12 C11 1_555 1_555
C13 C12 1_555 1_555
H8 C13 1_555 1_555
C14 C13 1_555 1_555
C15 C10 1_555 1_555
H9 C15 1_555 1_555
C16 C14 1_555 1_555
H10 C16 1_555 1_555
H11 C16 1_555 1_555
C17 C18 1_555 1_555
C18 H12 1_555 1_555
C19 C18 1_555 1_555
C20 C19 1_555 1_555
C21 C19 1_555 1_555
H13 C21 1_555 1_555
C22 C21 1_555 1_555
C23 C22 1_555 1_555
C24 C17 1_555 1_555
H14 C24 1_555 1_555
C25 H15 1_555 1_555
C26 C25 1_555 1_555
H16 C26 1_555 1_555
C27 C26 1_555 1_555
C28 C27 1_555 1_555
H17 C28 1_555 1_555
C29 C28 1_555 1_555
H18 C29 1_555 1_555
C30 C27 1_555 1_555
C31 C32 1_555 1_555
C32 C33 1_555 1_555
C33 H19 1_555 1_555
C34 C33 1_555 1_555
H20 C34 1_555 1_555
C36 C32 1_555 1_555
H22 C36 1_555 1_555
N1 C25 1_555 1_555
N2 C30 1_555 1_555
N3 C31 1_555 1_555
N4 C30 1_555 1_555
N5 N4 1_555 1_555
H23 N5 1_555 1_555
H24 N5 1_555 1_555
N6 C34 1_555 1_555
O1 C1 1_555 1_555
O2 C1 1_555 1_555
O3 C7 1_555 1_555
O4 C7 1_555 1_555
O5 C4 1_555 1_555
O6 C16 1_555 1_555
O7 C20 1_555 1_555
O8 C20 1_555 1_555
O9 C23 1_555 1_555
O10 C23 1_555 1_555
Zn1 O1 1_555 1_555
O12 Zn1 1_555 1_555
O13 Zn1 1_555 1_555
O16 Zn1 1_555 1_555
Zn3 O2 1_555 1_555
Zn4 O10 1_555 1_555
Zn5 O3 1_555 1_555
Zn6 O7 1_555 1_555
C6 C8 1_555 1_555
C9 O5 1_555 1_555
C14 C15 1_555 1_555
C17 O6 1_555 1_555
C22 C24 1_555 1_555
C29 N1 1_555 1_555
C31 N4 1_555 1_555
C35 C36 1_555 1_555
C35 N6 1_555 1_555
N2 N3 1_555 1_555
O8 Zn6 1_555 1_555
O11 Zn2 1_555 1_555
N7 Zn2 1_555 1_555
O14 Zn2 1_555 1_555
O15 Zn2 1_555 1_555
O11 H26 1_555 1_555
O11_2 Zn2_2 1_555 1_555
O14_2 Zn2_2 1_555 1_555
O15_2 Zn2_2 1_555 1_555
O11_2 H26_2 1_555 1_555
C1_2 C2_2 1_555 1_555
C2_2 C3_2 1_555 1_555
C3_2 H1_2 1_555 1_555
C4_2 C3_2 1_555 1_555
C5_2 C4_2 1_555 1_555
H2_2 C5_2 1_555 1_555
C6_2 C5_2 1_555 1_555
C8_2 C2_2 1_555 1_555
H3_2 C8_2 1_555 1_555
C9_2 H4_2 1_555 1_555
H5_2 C9_2 1_555 1_555
C10_2 C9_2 1_555 1_555
C11_2 C10_2 1_555 1_555
H6_2 C11_2 1_555 1_555
C12_2 C11_2 1_555 1_555
H7 C12_2 1_555 1_555
C13_2 C12_2 1_555 1_555
H8_2 C13_2 1_555 1_555
C14_2 C13_2 1_555 1_555
C15_2 C10_2 1_555 1_555
H9_2 C15_2 1_555 1_555
C16_2 C14_2 1_555 1_555
H10_2 C16_2 1_555 1_555
H11_2 C16_2 1_555 1_555
C17_2 C18_2 1_555 1_555
C18_2 H12_2 1_555 1_555
C19_2 C18_2 1_555 1_555
C20_2 C19_2 1_555 1_555
C21_2 C19_2 1_555 1_555
H13_2 C21_2 1_555 1_555
C22_2 C21_2 1_555 1_555
C23_2 C22_2 1_555 1_555
C24_2 C17_2 1_555 1_555
H14_2 C24_2 1_555 1_555
O1_2 C1_2 1_555 1_555
O12 C1_2 1_555 1_555
O5_2 C4_2 1_555 1_555
O6_2 C16_2 1_555 1_555
O7_2 C20_2 1_555 1_555
O8_2 C20_2 1_555 1_555
O9_2 C23_2 1_555 1_555
O10_2 C23_2 1_555 1_555
Zn3 O1_2 1_555 1_555
O13_2 Zn3 1_555 1_555
O16_2 Zn3 1_555 1_555
Zn4_2 O10_2 1_555 1_555
Zn6_2 O7_2 1_555 1_555
C6_2 C8_2 1_555 1_555
C9_2 O5_2 1_555 1_555
C14_2 C15_2 1_555 1_555
C17_2 O6_2 1_555 1_555
C22_2 C24_2 1_555 1_555
O8_2 Zn6_2 1_555 1_555
C25_2 H15_2 1_555 1_555
C26_2 C25_2 1_555 1_555
H16_2 C26_2 1_555 1_555
C27_2 C26_2 1_555 1_555
C28_2 C27_2 1_555 1_555
H17_2 C28_2 1_555 1_555
C29_2 C28_2 1_555 1_555
H18_2 C29_2 1_555 1_555
C30_2 C27_2 1_555 1_555
C31_2 C32_2 1_555 1_555
C32_2 C33_2 1_555 1_555
C33_2 H19_2 1_555 1_555
C34_2 C33_2 1_555 1_555
H20_2 C34_2 1_555 1_555
C35_2 H21_2 1_555 1_555
C36_2 C32_2 1_555 1_555
H22_2 C36_2 1_555 1_555
N1_2 C25_2 1_555 1_555
N2_2 C30_2 1_555 1_555
N3_2 C31_2 1_555 1_555
N4_2 C30_2 1_555 1_555
N5_2 N4_2 1_555 1_555
H23_2 N5_2 1_555 1_555
H24_2 N5_2 1_555 1_555
N6_2 C34_2 1_555 1_555
O3_2 C7_2 1_555 1_555
O4_2 C7_2 1_555 1_555
Zn5_2 O3_2 1_555 1_555
Zn7_2 N6_2 1_555 1_555
C29_2 N1_2 1_555 1_555
C31_2 N4_2 1_555 1_555
C35_2 C36_2 1_555 1_555
C35_2 N6_2 1_555 1_555
N2_2 N3_2 1_555 1_555
H2_3 C5_3 1_555 1_555
C6_3 C5_3 1_555 1_555
C7_3 C6_3 1_555 1_555
H6_3 C11_3 1_555 1_555
C12_3 C11_3 1_555 1_555
H13_3 C21_3 1_555 1_555
C22_3 C21_3 1_555 1_555
C23_3 C22_3 1_555 1_555
C24_3 C17_3 1_555 1_555
H14_3 C24_3 1_555 1_555
C25_3 H15_3 1_555 1_555
C26_3 C25_3 1_555 1_555
H16_3 C26_3 1_555 1_555
C27_3 C26_3 1_555 1_555
C28_3 C27_3 1_555 1_555
H17_3 C28_3 1_555 1_555
C29_3 C28_3 1_555 1_555
H18_3 C29_3 1_555 1_555
C30_3 C27_3 1_555 1_555
C31_3 C32_3 1_555 1_555
C32_3 C33_3 1_555 1_555
C33_3 H19_3 1_555 1_555
C34_3 C33_3 1_555 1_555
H20_3 C34_3 1_555 1_555
C36_3 C32_3 1_555 1_555
H22_3 C36_3 1_555 1_555
N1_3 C25_3 1_555 1_555
N2_3 C30_3 1_555 1_555
N3_3 C31_3 1_555 1_555
N4_3 C30_3 1_555 1_555
N5_3 N4_3 1_555 1_555
H23_3 N5_3 1_555 1_555
H24_3 N5_3 1_555 1_555
N6_3 C34_3 1_555 1_555
O3_3 C7_3 1_555 1_555
O4_3 C7_3 1_555 1_555
O9_3 C23_3 1_555 1_555
O16_2 C23_3 1_555 1_555
O11_3 Zn2_3 1_555 1_555
Zn2_3 N1_3 1_555 1_555
N7_3 Zn2_3 1_555 1_555
O14_3 Zn2_3 1_555 1_555
O15_3 Zn2_3 1_555 1_555
Zn5_3 O3_3 1_555 1_555
C17_3 O6_3 1_555 1_555
C22_3 C24_3 1_555 1_555
C29_3 N1_3 1_555 1_555
C31_3 N4_3 1_555 1_555
C35_3 C36_3 1_555 1_555
C35_3 N6_3 1_555 1_555
N2_3 N3_3 1_555 1_555
O9_3 Zn2_3 1_555 1_555
O11_3 H25_3 1_555 1_555
O11_3 H26_3 1_555 1_555
C1_3 C2_3 1_555 1_555
C2_3 C3_3 1_555 1_555
C3_3 H1_3 1_555 1_555
C4_3 C3_3 1_555 1_555
C8_3 C2_3 1_555 1_555
H3_3 C8_3 1_555 1_555
C9_3 H4_3 1_555 1_555
C10_3 C9_3 1_555 1_555
H8_3 C13_3 1_555 1_555
C14_3 C13_3 1_555 1_555
C15_3 C10_3 1_555 1_555
H9_3 C15_3 1_555 1_555
C16_3 C14_3 1_555 1_555
H10_3 C16_3 1_555 1_555
H11_3 C16_3 1_555 1_555
C18_3 H12_3 1_555 1_555
C19_3 C18_3 1_555 1_555
C20_3 C19_3 1_555 1_555
O1_3 C1_3 1_555 1_555
O2_2 C1_3 1_555 1_555
O7_3 C20_3 1_555 1_555
O8_3 C20_3 1_555 1_555
Zn4_2 O1_3 1_555 1_555
O13_3 Zn4_2 1_555 1_555
Zn7_2 O7_3 1_555 1_555
C14_3 C15_3 1_555 1_555
O8_3 Zn7_2 1_555 1_555
H2_4 C5_4 1_555 1_555
C6_4 C5_4 1_555 1_555
H6_4 C11_4 1_555 1_555
C12_4 C11_4 1_555 1_555
H7_2 C12_4 1_555 1_555
H13_4 C21_4 1_555 1_555
C22_4 C21_4 1_555 1_555
C23_4 C22_4 1_555 1_555
C24_4 C17_4 1_555 1_555
H14_4 C24_4 1_555 1_555
O9_4 C23_4 1_555 1_555
O16 C23_4 1_555 1_555
C17_4 O6_4 1_555 1_555
C22_4 C24_4 1_555 1_555
C25_4 H15_4 1_555 1_555
C26_4 C25_4 1_555 1_555
H16_4 C26_4 1_555 1_555
C27_4 C26_4 1_555 1_555
C28_4 C27_4 1_555 1_555
H17_4 C28_4 1_555 1_555
C29_4 C28_4 1_555 1_555
H18_4 C29_4 1_555 1_555
C30_4 C27_4 1_555 1_555
C31_4 C32_4 1_555 1_555
C32_4 C33_4 1_555 1_555
C33_4 H19_4 1_555 1_555
C34_4 C33_4 1_555 1_555
H20_4 C34_4 1_555 1_555
C35_4 H21_4 1_555 1_555
C36_4 C32_4 1_555 1_555
H22_4 C36_4 1_555 1_555
N1_4 C25_4 1_555 1_555
N2_4 C30_4 1_555 1_555
N3_4 C31_4 1_555 1_555
N4_4 C30_4 1_555 1_555
N5_4 N4_4 1_555 1_555
H23_4 N5_4 1_555 1_555
H24_4 N5_4 1_555 1_555
N6_4 C34_4 1_555 1_555
O3_4 C7_4 1_555 1_555
O4_4 C7_4 1_555 1_555
O11_4 Zn2_4 1_555 1_555
Zn2_4 N1_4 1_555 1_555
O14_4 Zn2_4 1_555 1_555
O15_4 Zn2_4 1_555 1_555
Zn5_4 O3_4 1_555 1_555
Zn6 N6_4 1_555 1_555
C29_4 N1_4 1_555 1_555
C31_4 N4_4 1_555 1_555
C35_4 C36_4 1_555 1_555
C35_4 N6_4 1_555 1_555
N2_4 N3_4 1_555 1_555
O11_4 H25_4 1_555 1_555
O11_4 H26_4 1_555 1_555
C1_4 C2_4 1_555 1_555
C2_4 C3_4 1_555 1_555
C3_4 H1_4 1_555 1_555
C4_4 C3_4 1_555 1_555
C8_4 C2_4 1_555 1_555
H3_4 C8_4 1_555 1_555
C9_4 H4_4 1_555 1_555
C10_4 C9_4 1_555 1_555
H8_4 C13_4 1_555 1_555
C14_4 C13_4 1_555 1_555
C15_4 C10_4 1_555 1_555
H9_4 C15_4 1_555 1_555
C16_4 C14_4 1_555 1_555
H10_4 C16_4 1_555 1_555
H11_4 C16_4 1_555 1_555
C18_4 H12_4 1_555 1_555
C19_4 C18_4 1_555 1_555
C20_4 C19_4 1_555 1_555
O1_4 C1_4 1_555 1_555
O12_2 C1_4 1_555 1_555
O7_4 C20_4 1_555 1_555
O8_4 C20_4 1_555 1_555
Zn4 O1_4 1_555 1_555
O13_4 Zn4 1_555 1_555
Zn7 O7_4 1_555 1_555
C14_4 C15_4 1_555 1_555
O8_4 Zn7 1_555 1_555
O11_5 Zn6 1_555 1_555
O11_5 H26_5 1_555 1_555
C1_5 C2_5 1_555 1_555
C2_5 C3_5 1_555 1_555
C3_5 H1_5 1_555 1_555
C4_5 C3_5 1_555 1_555
C5_5 C4_5 1_555 1_555
H2_5 C5_5 1_555 1_555
C6_5 C5_5 1_555 1_555
C7_5 C6_5 1_555 1_555
C8_5 C2_5 1_555 1_555
H3_5 C8_5 1_555 1_555
C9_5 H4_5 1_555 1_555
H5_5 C9_5 1_555 1_555
C10_5 C9_5 1_555 1_555
C11_5 C10_5 1_555 1_555
H6_5 C11_5 1_555 1_555
C12_5 C11_5 1_555 1_555
C13_5 C12_5 1_555 1_555
H8_5 C13_5 1_555 1_555
C14_5 C13_5 1_555 1_555
C15_5 C10_5 1_555 1_555
H9_5 C15_5 1_555 1_555
C16_5 C14_5 1_555 1_555
H10_5 C16_5 1_555 1_555
H11_5 C16_5 1_555 1_555
C17_5 C18_5 1_555 1_555
C18_5 H12_5 1_555 1_555
C19_5 C18_5 1_555 1_555
C20_5 C19_5 1_555 1_555
C21_5 C19_5 1_555 1_555
H13_5 C21_5 1_555 1_555
C22_5 C21_5 1_555 1_555
C23_5 C22_5 1_555 1_555
C24_5 C17_5 1_555 1_555
H14_5 C24_5 1_555 1_555
C25_5 H15_5 1_555 1_555
C26_5 C25_5 1_555 1_555
H16_5 C26_5 1_555 1_555
C27_5 C26_5 1_555 1_555
C28_5 C27_5 1_555 1_555
H17_5 C28_5 1_555 1_555
C29_5 C28_5 1_555 1_555
H18_5 C29_5 1_555 1_555
C30_5 C27_5 1_555 1_555
C31_5 C32_5 1_555 1_555
C32_5 C33_5 1_555 1_555
C33_5 H19_5 1_555 1_555
C34_5 C33_5 1_555 1_555
H20_5 C34_5 1_555 1_555
C36_5 C32_5 1_555 1_555
H22_5 C36_5 1_555 1_555
N1_5 C25_5 1_555 1_555
N2_5 C30_5 1_555 1_555
N3_5 C31_5 1_555 1_555
N4_5 C30_5 1_555 1_555
N5_5 N4_5 1_555 1_555
H23_5 N5_5 1_555 1_555
H24_5 N5_5 1_555 1_555
N7_4 C34_5 1_555 1_555
O1_5 C1_5 1_555 1_555
O2_3 C1_5 1_555 1_555
O13_2 C7_5 1_555 1_555
O4_5 C7_5 1_555 1_555
O5_5 C4_5 1_555 1_555
O6_5 C16_5 1_555 1_555
O14 C20_5 1_555 1_555
O15 C20_5 1_555 1_555
O9_5 C23_5 1_555 1_555
O10_3 C23_5 1_555 1_555
Zn5_2 O1_5 1_555 1_555
O12_3 Zn5_2 1_555 1_555
O16_3 Zn5_2 1_555 1_555
Zn5 O2_3 1_555 1_555
Zn5_3 O10_3 1_555 1_555
C6_5 C8_5 1_555 1_555
C9_5 O5_5 1_555 1_555
C14_5 C15_5 1_555 1_555
C17_5 O6_5 1_555 1_555
C22_5 C24_5 1_555 1_555
C29_5 N1_5 1_555 1_555
C31_5 N4_5 1_555 1_555
C35_5 C36_5 1_555 1_555
C35_5 N7_4 1_555 1_555
N2_5 N3_5 1_555 1_555
C25_6 H15_6 1_555 1_555
C26_6 C25_6 1_555 1_555
H16_6 C26_6 1_555 1_555
C27_6 C26_6 1_555 1_555
C28_6 C27_6 1_555 1_555
H17_6 C28_6 1_555 1_555
C29_6 C28_6 1_555 1_555
H18_6 C29_6 1_555 1_555
C30_6 C27_6 1_555 1_555
C31_6 C32_6 1_555 1_555
C32_6 C33_6 1_555 1_555
C33_6 H19_6 1_555 1_555
C34_6 C33_6 1_555 1_555
H20_6 C34_6 1_555 1_555
C35_6 H21_6 1_555 1_555
C36_6 C32_6 1_555 1_555
H22_6 C36_6 1_555 1_555
N1_6 C25_6 1_555 1_555
N2_6 C30_6 1_555 1_555
N3_6 C31_6 1_555 1_555
N4_6 C30_6 1_555 1_555
N5_6 N4_6 1_555 1_555
H23_6 N5_6 1_555 1_555
H24_6 N5_6 1_555 1_555
N7_3 C34_6 1_555 1_555
O13 C7_6 1_555 1_555
O4_6 C7_6 1_555 1_555
C29_6 N1_6 1_555 1_555
C31_6 N4_6 1_555 1_555
C35_6 C36_6 1_555 1_555
C35_6 N7_3 1_555 1_555
N2_6 N3_6 1_555 1_555
C1_6 C2_6 1_555 1_555
C2_6 C3_6 1_555 1_555
C3_6 H1_6 1_555 1_555
C4_6 C3_6 1_555 1_555
C5_6 C4_6 1_555 1_555
H2_6 C5_6 1_555 1_555
C6_6 C5_6 1_555 1_555
C8_6 C2_6 1_555 1_555
H3_6 C8_6 1_555 1_555
C9_6 H4_6 1_555 1_555
H5_6 C9_6 1_555 1_555
C10_6 C9_6 1_555 1_555
C11_6 C10_6 1_555 1_555
H6_6 C11_6 1_555 1_555
C12_6 C11_6 1_555 1_555
H7_3 C12_6 1_555 1_555
C13_6 C12_6 1_555 1_555
H8_6 C13_6 1_555 1_555
C14_6 C13_6 1_555 1_555
C15_6 C10_6 1_555 1_555
H9_6 C15_6 1_555 1_555
C16_6 C14_6 1_555 1_555
H10_6 C16_6 1_555 1_555
H11_6 C16_6 1_555 1_555
C17_6 C18_6 1_555 1_555
C18_6 H12_6 1_555 1_555
C19_6 C18_6 1_555 1_555
C20_6 C19_6 1_555 1_555
C21_6 C19_6 1_555 1_555
H13_6 C21_6 1_555 1_555
C22_6 C21_6 1_555 1_555
C23_6 C22_6 1_555 1_555
C24_6 C17_6 1_555 1_555
H14_6 C24_6 1_555 1_555
O1_6 C1_6 1_555 1_555
O12_3 C1_6 1_555 1_555
O5_6 C4_6 1_555 1_555
O6_6 C16_6 1_555 1_555
O14_2 C20_6 1_555 1_555
O15_2 C20_6 1_555 1_555
O9_6 C23_6 1_555 1_555
O10_4 C23_6 1_555 1_555
Zn5 O1_6 1_555 1_555
O16_4 Zn5 1_555 1_555
Zn5_4 O10_4 1_555 1_555
C6_6 C8_6 1_555 1_555
C9_6 O5_6 1_555 1_555
C14_6 C15_6 1_555 1_555
C17_6 O6_6 1_555 1_555
C22_6 C24_6 1_555 1_555
O11_6 Zn6_2 1_555 1_555
O11_6 H26_6 1_555 1_555
C1_7 C2_7 1_555 1_555
C2_7 C3_7 1_555 1_555
C3_7 H1_7 1_555 1_555
C4_7 C3_7 1_555 1_555
C8_7 C2_7 1_555 1_555
H3_7 C8_7 1_555 1_555
C9_7 H4_7 1_555 1_555
C10_7 C9_7 1_555 1_555
H8_7 C13_7 1_555 1_555
C14_7 C13_7 1_555 1_555
C15_7 C10_7 1_555 1_555
H9_7 C15_7 1_555 1_555
C16_7 C14_7 1_555 1_555
H10_7 C16_7 1_555 1_555
H11_7 C16_7 1_555 1_555
C18_7 H12_7 1_555 1_555
C19_7 C18_7 1_555 1_555
C20_7 C19_7 1_555 1_555
O1_7 C1_7 1_555 1_555
O2_4 C1_7 1_555 1_555
O14_3 C20_7 1_555 1_555
O15_3 C20_7 1_555 1_555
Zn5_4 O1_7 1_555 1_555
C14_7 C15_7 1_555 1_555
H2_7 C5_7 1_555 1_555
C6_7 C5_7 1_555 1_555
C7_7 C6_7 1_555 1_555
H6_7 C11_7 1_555 1_555
C12_7 C11_7 1_555 1_555
H13_7 C21_7 1_555 1_555
C22_7 C21_7 1_555 1_555
C23_7 C22_7 1_555 1_555
C24_7 C17_7 1_555 1_555
H14_7 C24_7 1_555 1_555
C25_7 H15_7 1_555 1_555
C26_7 C25_7 1_555 1_555
H16_7 C26_7 1_555 1_555
C27_7 C26_7 1_555 1_555
C28_7 C27_7 1_555 1_555
H17_7 C28_7 1_555 1_555
C29_7 C28_7 1_555 1_555
H18_7 C29_7 1_555 1_555
C30_7 C27_7 1_555 1_555
C31_7 C32_7 1_555 1_555
C32_7 C33_7 1_555 1_555
C33_7 H19_7 1_555 1_555
C34_7 C33_7 1_555 1_555
H20_7 C34_7 1_555 1_555
C36_7 C32_7 1_555 1_555
H22_7 C36_7 1_555 1_555
N1_7 C25_7 1_555 1_555
N2_7 C30_7 1_555 1_555
N3_7 C31_7 1_555 1_555
N4_7 C30_7 1_555 1_555
N5_7 N4_7 1_555 1_555
H23_7 N5_7 1_555 1_555
H24_7 N5_7 1_555 1_555
N7_2 C34_7 1_555 1_555
O13_4 C7_7 1_555 1_555
O4_7 C7_7 1_555 1_555
O9_7 C23_7 1_555 1_555
O16_4 C23_7 1_555 1_555
O11_7 Zn7_2 1_555 1_555
Zn7_2 N1_7 1_555 1_555
C17_7 O6_7 1_555 1_555
C22_7 C24_7 1_555 1_555
C29_7 N1_7 1_555 1_555
C31_7 N4_7 1_555 1_555
C35_7 C36_7 1_555 1_555
C35_7 N7_2 1_555 1_555
N2_7 N3_7 1_555 1_555
O9_7 Zn7_2 1_555 1_555
O11_7 H25_7 1_555 1_555
O11_7 H26_7 1_555 1_555
C1_8 C2_8 1_555 1_555
C2_8 C3_8 1_555 1_555
C3_8 H1_8 1_555 1_555
C4_8 C3_8 1_555 1_555
C8_8 C2_8 1_555 1_555
H3_8 C8_8 1_555 1_555
C9_8 H4_8 1_555 1_555
C10_8 C9_8 1_555 1_555
H8_8 C13_8 1_555 1_555
C14_8 C13_8 1_555 1_555
C15_8 C10_8 1_555 1_555
H9_8 C15_8 1_555 1_555
C16_8 C14_8 1_555 1_555
H10_8 C16_8 1_555 1_555
H11_8 C16_8 1_555 1_555
C18_8 H12_8 1_555 1_555
C19_8 C18_8 1_555 1_555
C20_8 C19_8 1_555 1_555
O1_8 C1_8 1_555 1_555
O12_4 C1_8 1_555 1_555
O14_4 C20_8 1_555 1_555
O15_4 C20_8 1_555 1_555
Zn5_3 O1_8 1_555 1_555
C14_8 C15_8 1_555 1_555
C25_8 H15_8 1_555 1_555
C26_8 C25_8 1_555 1_555
H16_8 C26_8 1_555 1_555
C27_8 C26_8 1_555 1_555
C28_8 C27_8 1_555 1_555
H17_8 C28_8 1_555 1_555
C29_8 C28_8 1_555 1_555
H18_8 C29_8 1_555 1_555
C30_8 C27_8 1_555 1_555
C31_8 C32_8 1_555 1_555
C32_8 C33_8 1_555 1_555
C33_8 H19_8 1_555 1_555
C34_8 C33_8 1_555 1_555
H20_8 C34_8 1_555 1_555
C35_8 H21_8 1_555 1_555
C36_8 C32_8 1_555 1_555
H22_8 C36_8 1_555 1_555
N1_8 C25_8 1_555 1_555
N2_8 C30_8 1_555 1_555
N3_8 C31_8 1_555 1_555
N4_8 C30_8 1_555 1_555
N5_8 N4_8 1_555 1_555
H23_8 N5_8 1_555 1_555
H24_8 N5_8 1_555 1_555
N7 C34_8 1_555 1_555
O13_3 C7_8 1_555 1_555
O4_8 C7_8 1_555 1_555
O11_8 Zn7 1_555 1_555
Zn7 N1_8 1_555 1_555
C29_8 N1_8 1_555 1_555
C31_8 N4_8 1_555 1_555
C35_8 C36_8 1_555 1_555
C35_8 N7 1_555 1_555
N2_8 N3_8 1_555 1_555
O11_8 H25_8 1_555 1_555
O11_8 H26_8 1_555 1_555
H2_8 C5_8 1_555 1_555
C6_8 C5_8 1_555 1_555
H6_8 C11_8 1_555 1_555
C12_8 C11_8 1_555 1_555
H7_4 C12_8 1_555 1_555
H13_8 C21_8 1_555 1_555
C22_8 C21_8 1_555 1_555
C23_8 C22_8 1_555 1_555
C24_8 C17_8 1_555 1_555
H14_8 C24_8 1_555 1_555
O9_8 C23_8 1_555 1_555
O16_3 C23_8 1_555 1_555
C17_8 O6_8 1_555 1_555
C22_8 C24_8 1_555 1_555

#END
