
###############################################################################
#
# This file contains modified crystal structure data generated from the
# MOF subset of the Cambridge Structural Database (CSD) v543 
# hosted by the Cambridge Crystallographic Data Centre (CCDC).
#
# This work is licensed under the Creative Commons
# Attribution-NonCommercial-ShareAlike 4.0 International License.
# To view a copy of this license, visit
# http://creativecommons.org/licenses/by-nc-sa/4.0/
# or send a letter to
# Creative Commons, PO Box 1866, Mountain View, CA 94042, USA.
#
# CIF created using the CSD Python API on 29 September 2022
# The structure has been converted into the P1 space group
# The structure has a 3D framework
# The original CSD entry WOPHIU01 is in the monoclinic crystal system
# The framework has been calculated to contain at least 10.0% void space
# The void calculation uses a probe of radius 1.32A, grid spacing 0.4
# H atom positions have been added when not included in the experimental data
#
###############################################################################

data_WOPHIU01
_chemical_formula_moiety         '(C288 H208 N48 O84 Zn16)n'
_symmetry_cell_setting           triclinic
_symmetry_space_group_name_H-M   'P 1'
_symmetry_Int_Tables_number      1
_space_group_name_Hall           'P 1'
loop_
_symmetry_equiv_pos_site_id
_symmetry_equiv_pos_as_xyz
1 x,y,z
_cell_length_a                   38.030(4)
_cell_length_b                   10.0098(9)
_cell_length_c                   26.423(3)
_cell_angle_alpha                90
_cell_angle_beta                 125.5890(10)
_cell_angle_gamma                90
_cell_volume                     8179.71
loop_
_atom_site_label
_atom_site_type_symbol
_atom_site_fract_x
_atom_site_fract_y
_atom_site_fract_z
C1 C 0.07079(19) 0.7205(6) 0.0842(3)
C2 C 0.02774(19) 0.6611(5) 0.0612(3)
C3 C 0.02565(19) 0.5368(6) 0.0825(3)
H1 H 0.0507 0.4885 0.1099
C9 C 0.0146(2) 0.2859(7) 0.1226(3)
H4 H 0.0318 0.3339 0.1618
H5 H 0.0323 0.2687 0.1079
C15 C 0.0120(3) 0.0388(7) 0.1213(4)
H9 H 0.0303 0.0378 0.1087
O1 O 0.06962(15) 0.8388(4) 0.0655(2)
O2 O 0.10415(14) 0.6533(4) 0.1172(2)
Zn4 Zn 0.16266(2) 0.66779(6) 0.20840(3)
Zn5 Zn 0.11391(2) 0.96437(7) 0.08442(3)
Zn6 Zn 0.88609(2) 0.03563(7) 0.91558(3)
C4 C 0.9853(2) 0.4853(6) 0.0621(3)
C5 C 0.94775(19) 0.5584(6) 0.0218(3)
H2 H 0.9210 0.5251 0.0092
C6 C 0.95093(19) 0.6833(6) 0.0005(3)
C7 C 0.99084(18) 0.7329(6) 0.0203(3)
H3 H 0.9928 0.8153 0.0058
C10 C 0.9985(2) 0.1567(6) 0.1312(3)
C11 C 0.9727(2) 0.1551(6) 0.1532(3)
H6 H 0.9654 0.2354 0.1625
C12 C 0.9579(2) 0.0373(6) 0.1611(3)
C16 C 0.9295(3) 0.0298(7) 0.1825(4)
C17 C 0.8943(2) 0.1617(6) 0.2153(3)
C18 C 0.8855(2) 0.2891(6) 0.2259(3)
H12 H 0.8927 0.3634 0.2126
C19 C 0.8661(2) 0.3058(6) 0.2564(3)
C20 C 0.8565(2) 0.1934(6) 0.2772(3)
H13 H 0.8441 0.2037 0.2987
C21 C 0.86491(19) 0.0693(6) 0.2666(3)
C22 C 0.8840(2) 0.0504(6) 0.2344(3)
C23 C 0.8552(2) 0.4422(6) 0.2682(3)
O5 O 0.97780(14) 0.3618(4) 0.0783(2)
O6 O 0.91515(18) 0.1561(4) 0.1859(2)
O9 O 0.83454(17) 0.4520(5) 0.2906(2)
O10 O 0.8676(2) 0.5423(5) 0.2557(3)
Zn3 Zn 0.83734(2) 0.66779(6) 0.29160(3)
O14 O 0.91695(15) 0.1309(5) 0.4376(2)
C8 C 0.9117(2) 0.7674(6) 0.9598(3)
O3 O 0.87655(15) 0.7338(6) 0.9507(3)
O4 O 0.91695(15) 0.8691(5) 0.9376(2)
Zn2 Zn 0.88609(2) 0.96437(7) 0.41558(3)
C13 C 0.9710(3) 0.9209(7) 0.1498(4)
H7 H 0.9615 0.8403 0.1553
C14 C 0.9970(3) 0.9185(8) 0.1310(5)
H10 H 0.9047 0.9740 0.1541
H11 H 0.9453 0.9882 0.2233
H14 H 0.8893 0.9651 0.2264
C24 C 0.85441(19) 0.9465(6) 0.2886(3)
C25 C 0.77337(19) 0.7915(6) 0.3120(3)
H15 H 0.7703 0.8548 0.2840
C26 C 0.74973(19) 0.8068(6) 0.3354(3)
H16 H 0.7324 0.8820 0.3248
C27 C 0.7512(2) 0.7125(7) 0.3743(3)
C28 C 0.7796(3) 0.6026(8) 0.3906(4)
H17 H 0.7821 0.5347 0.4165
C29 C 0.8036(2) 0.6012(8) 0.3659(4)
H18 H 0.8232 0.5319 0.3777
C30 C 0.7265(2) 0.7319(7) 0.4003(3)
C31 C 0.6908(2) 0.7082(7) 0.4397(3)
C32 C 0.6708(2) 0.6537(7) 0.4698(3)
C33 C 0.6419(3) 0.7383(8) 0.4713(4)
H19 H 0.6342 0.8209 0.4514
C34 C 0.6253(3) 0.6955(8) 0.5029(4)
H20 H 0.6051 0.7492 0.5024
C35 C 0.6629(2) 0.5004(7) 0.5298(4)
H21 H 0.6699 0.4173 0.5492
C36 C 0.6797(3) 0.5352(7) 0.4979(4)
H22 H 0.6976 0.4757 0.4958
N1 N 0.80031(16) 0.6914(5) 0.3272(2)
N2 N 0.71053(18) 0.6404(6) 0.4181(2)
N3 N 0.71765(19) 0.8498(6) 0.4099(3)
N4 N 0.6949(2) 0.8351(6) 0.4348(3)
N5 N 0.7090(3) 0.4992(7) 0.4110(4)
H23 H 0.7194 0.4627 0.3929
H24 H 0.6976 0.4504 0.4247
N6 N 0.63672(16) 0.5805(5) 0.5344(2)
O7 O 0.8568(2) 0.8343(4) 0.2707(2)
O8 O 0.84354(13) 0.9656(4) 0.32520(19)
O11 O 0.77924(19) 0.6749(7) 0.1995(3)
Zn7 Zn 0.61391(2) 0.53563(7) 0.58442(3)
N7 N 0.86328(16) 0.9195(5) 0.4656(2)
O12 O 0.93038(15) 0.8388(4) 0.4345(2)
O13 O 0.89585(14) 0.6533(4) 0.3828(2)
H25 H 0.764482 0.761663 0.192936
H26 H 0.786324 0.66558 0.168949
Zn6_2 Zn 0.11391(2) 0.03563(7) 0.58442(3)
C4_2 C 0.0147(2) 0.4853(6) 0.4379(3)
C5_2 C 0.05225(19) 0.5584(6) 0.4782(3)
H2_2 H 0.0790 0.5251 0.4908
C6_2 C 0.04907(19) 0.6833(6) 0.4995(3)
C7_2 C 0.00916(18) 0.7329(6) 0.4797(3)
H3_2 H 0.0072 0.8153 0.4942
C8_2 C 0.0883(2) 0.7674(6) 0.5402(3)
C10_2 C 0.0015(2) 0.1567(6) 0.3688(3)
C11_2 C 0.0273(2) 0.1551(6) 0.3468(3)
H6_2 H 0.0346 0.2354 0.3375
C12_2 C 0.0421(2) 0.0373(6) 0.3389(3)
C16_2 C 0.0705(3) 0.0298(7) 0.3175(4)
C17_2 C 0.1057(2) 0.1617(6) 0.2847(3)
C18_2 C 0.1145(2) 0.2891(6) 0.2741(3)
H12_2 H 0.1073 0.3634 0.2874
C19_2 C 0.1339(2) 0.3058(6) 0.2436(3)
C20_2 C 0.1435(2) 0.1934(6) 0.2228(3)
H13_2 H 0.1559 0.2037 0.2013
C21_2 C 0.13509(19) 0.0693(6) 0.2334(3)
C22_2 C 0.1160(2) 0.0504(6) 0.2656(3)
C23_2 C 0.1448(2) 0.4422(6) 0.2318(3)
O3_2 O 0.12345(15) 0.7338(6) 0.5493(3)
O4_2 O 0.08305(15) 0.8691(5) 0.5624(2)
O5_2 O 0.02220(14) 0.3618(4) 0.4217(2)
O6_2 O 0.08485(18) 0.1561(4) 0.3141(2)
O9_2 O 0.16546(17) 0.4520(5) 0.2094(2)
O10_2 O 0.1324(2) 0.5423(5) 0.2443(3)
O14_2 O 0.08305(15) 0.1309(5) 0.0624(2)
C13_2 C 0.0290(3) 0.9209(7) 0.3502(4)
H7_2 H 0.0385 0.8403 0.3447
C14_2 C 0.0030(3) 0.9185(8) 0.3690(5)
H10_2 H 0.0953 0.9740 0.3459
H11_2 H 0.0547 0.9882 0.2767
H14_2 H 0.1107 0.9651 0.2736
C24_2 C 0.14559(19) 0.9465(6) 0.2114(3)
C25_2 C 0.22663(19) 0.7915(6) 0.1880(3)
H15_2 H 0.2297 0.8548 0.2160
C26_2 C 0.25027(19) 0.8068(6) 0.1646(3)
H16_2 H 0.2676 0.8820 0.1752
C27_2 C 0.2488(2) 0.7125(7) 0.1257(3)
C28_2 C 0.2204(3) 0.6026(8) 0.1094(4)
H17_2 H 0.2179 0.5347 0.0835
C29_2 C 0.1964(2) 0.6012(8) 0.1341(4)
H18_2 H 0.1768 0.5319 0.1223
C30_2 C 0.2735(2) 0.7319(7) 0.0997(3)
C31_2 C 0.3092(2) 0.7082(7) 0.0603(3)
C32_2 C 0.3292(2) 0.6537(7) 0.0302(3)
C33_2 C 0.3581(3) 0.7383(8) 0.0287(4)
H19_2 H 0.3658 0.8209 0.0486
C36_2 C 0.3203(3) 0.5352(7) 0.0021(4)
H22_2 H 0.3024 0.4757 0.0042
N1_2 N 0.19969(16) 0.6914(5) 0.1728(2)
N2_2 N 0.28947(18) 0.6404(6) 0.0819(2)
N3_2 N 0.28235(19) 0.8498(6) 0.0901(3)
N4_2 N 0.3051(2) 0.8351(6) 0.0652(3)
N5_2 N 0.2910(3) 0.4992(7) 0.0890(4)
H23_2 H 0.2806 0.4627 0.1071
H24_2 H 0.3024 0.4504 0.0753
O7_2 O 0.1432(2) 0.8343(4) 0.2293(2)
O8_2 O 0.15646(13) 0.9656(4) 0.17480(19)
O11_2 O 0.22076(19) 0.6749(7) 0.3005(3)
N7_2 N 0.13672(16) 0.9195(5) 0.0344(2)
H25_2 H 0.235518 0.761663 0.307064
H26_2 H 0.213676 0.66558 0.331051
C34_2 C 0.3747(3) 0.6955(8) 0.9971(4)
H20_2 H 0.3949 0.7492 0.9976
C35_2 C 0.3371(2) 0.5004(7) 0.9702(4)
H21_2 H 0.3301 0.4173 0.9508
N6_2 N 0.36328(16) 0.5805(5) 0.9656(2)
Zn7_2 Zn 0.38609(2) 0.53563(7) 0.91558(3)
C1_2 C 0.92921(19) 0.7205(6) 0.4158(3)
C2_2 C 0.97226(19) 0.6611(5) 0.4388(3)
C3_2 C 0.97435(19) 0.5368(6) 0.4175(3)
H1_2 H 0.9493 0.4885 0.3901
C9_2 C 0.9854(2) 0.2859(7) 0.3774(3)
H4_2 H 0.9682 0.3339 0.3382
H5_2 H 0.9677 0.2687 0.3921
C15_2 C 0.9880(3) 0.0388(7) 0.3787(4)
H9_2 H 0.9697 0.0378 0.3913
C1_3 C 0.57079(19) 0.2205(6) 0.0842(3)
C2_3 C 0.52774(19) 0.1611(5) 0.0612(3)
C3_3 C 0.52565(19) 0.0368(6) 0.0825(3)
C5_3 C 0.44775(19) 0.0584(6) 0.0218(3)
H2_3 H 0.4210 0.0251 0.0092
C6_3 C 0.45093(19) 0.1833(6) 0.0005(3)
C7_3 C 0.49084(18) 0.2329(6) 0.0203(3)
H3_3 H 0.4928 0.3153 0.0058
O1_2 O 0.56962(15) 0.3388(4) 0.0655(2)
O2_2 O 0.60415(14) 0.1533(4) 0.1172(2)
O10_3 O 0.3676(2) 0.0423(5) 0.2557(3)
Zn3_2 Zn 0.33734(2) 0.16779(6) 0.29160(3)
Zn4_2 Zn 0.66266(2) 0.16779(6) 0.20840(3)
Zn5_2 Zn 0.61391(2) 0.46437(7) 0.08442(3)
C8_3 C 0.4117(2) 0.2674(6) 0.9598(3)
O3_3 O 0.37655(15) 0.2338(6) 0.9507(3)
O4_3 O 0.41695(15) 0.3691(5) 0.9376(2)
Zn2_2 Zn 0.38609(2) 0.46437(7) 0.41558(3)
H1_3 H 0.5507 0.9885 0.1099
C4_3 C 0.4853(2) 0.9853(6) 0.0621(3)
C9_3 C 0.5146(2) 0.7859(7) 0.1226(3)
H4_3 H 0.5318 0.8339 0.1618
H5_3 H 0.5323 0.7687 0.1079
C10_3 C 0.4985(2) 0.6567(6) 0.1312(3)
C11_3 C 0.4727(2) 0.6551(6) 0.1532(3)
H6_3 H 0.4654 0.7354 0.1625
C12_3 C 0.4579(2) 0.5373(6) 0.1611(3)
C13_3 C 0.4710(3) 0.4209(7) 0.1498(4)
H7_3 H 0.4615 0.3403 0.1553
C14_3 C 0.4970(3) 0.4185(8) 0.1310(5)
H8 H 0.5054 0.3369 0.1243
C15_3 C 0.5120(3) 0.5388(7) 0.1213(4)
H9_3 H 0.5303 0.5378 0.1087
C16_3 C 0.4295(3) 0.5298(7) 0.1825(4)
H10_3 H 0.4047 0.4740 0.1541
H11_3 H 0.4453 0.4882 0.2233
C17_3 C 0.3943(2) 0.6617(6) 0.2153(3)
C18_3 C 0.3855(2) 0.7891(6) 0.2259(3)
H12_3 H 0.3927 0.8634 0.2126
C19_3 C 0.3661(2) 0.8058(6) 0.2564(3)
C20_3 C 0.3565(2) 0.6934(6) 0.2772(3)
H13_3 H 0.3441 0.7037 0.2987
C21_3 C 0.36491(19) 0.5693(6) 0.2666(3)
C22_3 C 0.3840(2) 0.5504(6) 0.2344(3)
H14_3 H 0.3893 0.4651 0.2264
C23_3 C 0.3552(2) 0.9422(6) 0.2682(3)
C24_3 C 0.35441(19) 0.4465(6) 0.2886(3)
C25_3 C 0.27337(19) 0.2915(6) 0.3120(3)
H15_3 H 0.2703 0.3548 0.2840
C26_3 C 0.24973(19) 0.3068(6) 0.3354(3)
H16_3 H 0.2324 0.3820 0.3248
C27_3 C 0.2512(2) 0.2125(7) 0.3743(3)
C28_3 C 0.2796(3) 0.1026(8) 0.3906(4)
H17_3 H 0.2821 0.0347 0.4165
C29_3 C 0.3036(2) 0.1012(8) 0.3659(4)
H18_3 H 0.3232 0.0319 0.3777
C30_3 C 0.2265(2) 0.2319(7) 0.4003(3)
C31_3 C 0.1908(2) 0.2082(7) 0.4397(3)
C32_3 C 0.1708(2) 0.1537(7) 0.4698(3)
C33_3 C 0.1419(3) 0.2383(8) 0.4713(4)
H19_3 H 0.1342 0.3209 0.4514
C34_3 C 0.1253(3) 0.1955(8) 0.5029(4)
H20_3 H 0.1051 0.2492 0.5024
C35_3 C 0.1629(2) 0.0004(7) 0.5298(4)
C36_3 C 0.1797(3) 0.0352(7) 0.4979(4)
N1_3 N 0.30031(16) 0.1914(5) 0.3272(2)
N2_3 N 0.21053(18) 0.1404(6) 0.4181(2)
N3_3 N 0.21765(19) 0.3498(6) 0.4099(3)
N4_3 N 0.1949(2) 0.3351(6) 0.4348(3)
N6_3 N 0.13672(16) 0.0805(5) 0.5344(2)
O5_3 O 0.47780(14) 0.8618(4) 0.0783(2)
O6_3 O 0.41515(18) 0.6561(4) 0.1859(2)
O7_3 O 0.3568(2) 0.3343(4) 0.2707(2)
O8_3 O 0.34354(13) 0.4656(4) 0.32520(19)
O9_3 O 0.33454(17) 0.9520(5) 0.2906(2)
O11_3 O 0.27924(19) 0.1749(7) 0.1995(3)
N7_3 N 0.36328(16) 0.4195(5) 0.4656(2)
O12_2 O 0.43038(15) 0.3388(4) 0.4345(2)
O13_2 O 0.39585(14) 0.1533(4) 0.3828(2)
O14_3 O 0.41695(15) 0.6309(5) 0.4376(2)
H25_3 H 0.264482 0.261663 0.192936
H26_3 H 0.286324 0.16558 0.168949
H21_3 H 0.1699 0.9173 0.5492
H22_3 H 0.1976 0.9757 0.4958
N5_3 N 0.2090(3) 0.9992(7) 0.4110(4)
H23_3 H 0.2194 0.9627 0.3929
H24_3 H 0.1976 0.9504 0.4247
C1_4 C 0.42921(19) 0.2205(6) 0.4158(3)
C2_4 C 0.47226(19) 0.1611(5) 0.4388(3)
C3_4 C 0.47435(19) 0.0368(6) 0.4175(3)
C5_4 C 0.55225(19) 0.0584(6) 0.4782(3)
H2_4 H 0.5790 0.0251 0.4908
C6_4 C 0.54907(19) 0.1833(6) 0.4995(3)
C7_4 C 0.50916(18) 0.2329(6) 0.4797(3)
H3_4 H 0.5072 0.3153 0.4942
C8_4 C 0.5883(2) 0.2674(6) 0.5402(3)
O3_4 O 0.62345(15) 0.2338(6) 0.5493(3)
O4_4 O 0.58305(15) 0.3691(5) 0.5624(2)
O10_4 O 0.6324(2) 0.0423(5) 0.2443(3)
H1_4 H 0.4493 0.9885 0.3901
C4_4 C 0.5147(2) 0.9853(6) 0.4379(3)
C9_4 C 0.4854(2) 0.7859(7) 0.3774(3)
H4_4 H 0.4682 0.8339 0.3382
H5_4 H 0.4677 0.7687 0.3921
C10_4 C 0.5015(2) 0.6567(6) 0.3688(3)
C11_4 C 0.5273(2) 0.6551(6) 0.3468(3)
H6_4 H 0.5346 0.7354 0.3375
C12_4 C 0.5421(2) 0.5373(6) 0.3389(3)
C13_4 C 0.5290(3) 0.4209(7) 0.3502(4)
H7_4 H 0.5385 0.3403 0.3447
C14_4 C 0.5030(3) 0.4185(8) 0.3690(5)
H8_2 H 0.4946 0.3369 0.3757
C15_4 C 0.4880(3) 0.5388(7) 0.3787(4)
H9_4 H 0.4697 0.5378 0.3913
C16_4 C 0.5705(3) 0.5298(7) 0.3175(4)
H10_4 H 0.5953 0.4740 0.3459
H11_4 H 0.5547 0.4882 0.2767
C17_4 C 0.6057(2) 0.6617(6) 0.2847(3)
C18_4 C 0.6145(2) 0.7891(6) 0.2741(3)
H12_4 H 0.6073 0.8634 0.2874
C19_4 C 0.6339(2) 0.8058(6) 0.2436(3)
C20_4 C 0.6435(2) 0.6934(6) 0.2228(3)
H13_4 H 0.6559 0.7037 0.2013
C21_4 C 0.63509(19) 0.5693(6) 0.2334(3)
C22_4 C 0.6160(2) 0.5504(6) 0.2656(3)
H14_4 H 0.6107 0.4651 0.2736
C23_4 C 0.6448(2) 0.9422(6) 0.2318(3)
C24_4 C 0.64559(19) 0.4465(6) 0.2114(3)
C25_4 C 0.72663(19) 0.2915(6) 0.1880(3)
H15_4 H 0.7297 0.3548 0.2160
C26_4 C 0.75027(19) 0.3068(6) 0.1646(3)
H16_4 H 0.7676 0.3820 0.1752
C27_4 C 0.7488(2) 0.2125(7) 0.1257(3)
C28_4 C 0.7204(3) 0.1026(8) 0.1094(4)
H17_4 H 0.7179 0.0347 0.0835
C29_4 C 0.6964(2) 0.1012(8) 0.1341(4)
H18_4 H 0.6768 0.0319 0.1223
C30_4 C 0.7735(2) 0.2319(7) 0.0997(3)
C31_4 C 0.8092(2) 0.2082(7) 0.0603(3)
C32_4 C 0.8292(2) 0.1537(7) 0.0302(3)
C33_4 C 0.8581(3) 0.2383(8) 0.0287(4)
H19_4 H 0.8658 0.3209 0.0486
C36_4 C 0.8203(3) 0.0352(7) 0.0021(4)
N1_4 N 0.69969(16) 0.1914(5) 0.1728(2)
N2_4 N 0.78947(18) 0.1404(6) 0.0819(2)
N3_4 N 0.78235(19) 0.3498(6) 0.0901(3)
N4_4 N 0.8051(2) 0.3351(6) 0.0652(3)
O5_4 O 0.52220(14) 0.8618(4) 0.4217(2)
O6_4 O 0.58485(18) 0.6561(4) 0.3141(2)
O7_4 O 0.6432(2) 0.3343(4) 0.2293(2)
O8_4 O 0.65646(13) 0.4656(4) 0.17480(19)
O9_4 O 0.66546(17) 0.9520(5) 0.2094(2)
O11_4 O 0.72076(19) 0.1749(7) 0.3005(3)
N7_4 N 0.63672(16) 0.4195(5) 0.0344(2)
O14_4 O 0.58305(15) 0.6309(5) 0.0624(2)
H25_4 H 0.735518 0.261663 0.307064
H26_4 H 0.713676 0.16558 0.331051
C34_4 C 0.8747(3) 0.1955(8) 0.9971(4)
H20_4 H 0.8949 0.2492 0.9976
C35_4 C 0.8371(2) 0.0004(7) 0.9702(4)
N6_4 N 0.86328(16) 0.0805(5) 0.9656(2)
H22_4 H 0.8024 0.9757 0.0042
N5_4 N 0.7910(3) 0.9992(7) 0.0890(4)
H23_4 H 0.7806 0.9627 0.1071
H24_4 H 0.8024 0.9504 0.0753
Zn1 Zn 0.16266(2) 0.33221(6) 0.70840(3)
C13_5 C 0.0290(3) 0.0791(7) 0.8502(4)
H7_5 H 0.0385 0.1597 0.8447
C14_5 C 0.0030(3) 0.0815(8) 0.8690(5)
H10_5 H 0.0953 0.0260 0.8459
H11_5 H 0.0547 0.0118 0.7767
H14_5 H 0.1107 0.0349 0.7736
C24_5 C 0.14559(19) 0.0535(6) 0.7114(3)
C25_5 C 0.22663(19) 0.2085(6) 0.6880(3)
H15_5 H 0.2297 0.1452 0.7160
C26_5 C 0.25027(19) 0.1932(6) 0.6646(3)
H16_5 H 0.2676 0.1180 0.6752
C27_5 C 0.2488(2) 0.2875(7) 0.6257(3)
C28_5 C 0.2204(3) 0.3974(8) 0.6094(4)
H17_5 H 0.2179 0.4653 0.5835
C29_5 C 0.1964(2) 0.3988(8) 0.6341(4)
H18_5 H 0.1768 0.4681 0.6223
C30_5 C 0.2735(2) 0.2681(7) 0.5997(3)
C31_5 C 0.3092(2) 0.2918(7) 0.5603(3)
C32_5 C 0.3292(2) 0.3463(7) 0.5302(3)
C33_5 C 0.3581(3) 0.2617(8) 0.5287(4)
H19_5 H 0.3658 0.1791 0.5486
C34_5 C 0.3747(3) 0.3045(8) 0.4971(4)
H20_5 H 0.3949 0.2508 0.4976
C35_5 C 0.3371(2) 0.4996(7) 0.4702(4)
H21_4 H 0.3301 0.5827 0.4508
C36_5 C 0.3203(3) 0.4648(7) 0.5021(4)
H22_5 H 0.3024 0.5243 0.5042
N1_5 N 0.19969(16) 0.3086(5) 0.6728(2)
N2_5 N 0.28947(18) 0.3596(6) 0.5819(2)
N3_5 N 0.28235(19) 0.1502(6) 0.5901(3)
N4_5 N 0.3051(2) 0.1649(6) 0.5652(3)
N5_5 N 0.2910(3) 0.5008(7) 0.5890(4)
H23_5 H 0.2806 0.5373 0.6071
H24_5 H 0.3024 0.5496 0.5753
O7_5 O 0.1432(2) 0.1657(4) 0.7293(2)
O8_5 O 0.15646(13) 0.0344(4) 0.67480(19)
O11_5 O 0.22076(19) 0.3251(7) 0.8005(3)
O12_3 O 0.06962(15) 0.1612(4) 0.5655(2)
O13_3 O 0.10415(14) 0.3467(4) 0.6172(2)
O15 O 0.16546(17) 0.5480(5) 0.7094(2)
O16 O 0.1324(2) 0.4577(5) 0.7443(3)
H25_5 H 0.235518 0.238337 0.807064
H26_5 H 0.213676 0.33442 0.831051
C8_5 C 0.0883(2) 0.2326(6) 0.0402(3)
O3_5 O 0.12345(15) 0.2662(6) 0.0493(3)
C4_5 C 0.0147(2) 0.5147(6) 0.9379(3)
C5_5 C 0.05225(19) 0.4416(6) 0.9782(3)
H2_5 H 0.0790 0.4749 0.9908
C6_5 C 0.04907(19) 0.3167(6) 0.9995(3)
C7_5 C 0.00916(18) 0.2671(6) 0.9797(3)
H3_5 H 0.0072 0.1847 0.9942
C10_5 C 0.0015(2) 0.8433(6) 0.8688(3)
C11_5 C 0.0273(2) 0.8449(6) 0.8468(3)
H6_5 H 0.0346 0.7646 0.8375
C12_5 C 0.0421(2) 0.9627(6) 0.8389(3)
C16_5 C 0.0705(3) 0.9702(7) 0.8175(4)
C17_5 C 0.1057(2) 0.8383(6) 0.7847(3)
C18_5 C 0.1145(2) 0.7109(6) 0.7741(3)
H12_5 H 0.1073 0.6366 0.7874
C19_5 C 0.1339(2) 0.6942(6) 0.7436(3)
C20_5 C 0.1435(2) 0.8066(6) 0.7228(3)
H13_5 H 0.1559 0.7963 0.7013
C21_5 C 0.13509(19) 0.9307(6) 0.7334(3)
C22_5 C 0.1160(2) 0.9496(6) 0.7656(3)
C23_5 C 0.1448(2) 0.5578(6) 0.7318(3)
O5_5 O 0.02220(14) 0.6382(4) 0.9217(2)
O6_5 O 0.08485(18) 0.8439(4) 0.8141(2)
C1_5 C 0.92921(19) 0.2795(6) 0.9158(3)
C2_5 C 0.97226(19) 0.3389(5) 0.9388(3)
C3_5 C 0.97435(19) 0.4632(6) 0.9175(3)
H1_5 H 0.9493 0.5115 0.8901
C9_5 C 0.9854(2) 0.7141(7) 0.8774(3)
H4_5 H 0.9682 0.6661 0.8382
H5_5 H 0.9677 0.7313 0.8921
C15_5 C 0.9880(3) 0.9612(7) 0.8787(4)
H9_5 H 0.9697 0.9622 0.8913
O1_3 O 0.93038(15) 0.1612(4) 0.9345(2)
O2_3 O 0.89585(14) 0.3467(4) 0.8828(2)
Zn4_3 Zn 0.83734(2) 0.33221(6) 0.79160(3)
C1_6 C 0.07079(19) 0.2795(6) 0.5842(3)
C2_6 C 0.02774(19) 0.3389(5) 0.5612(3)
C3_6 C 0.02565(19) 0.4632(6) 0.5825(3)
H1_6 H 0.0507 0.5115 0.6099
C9_6 C 0.0146(2) 0.7141(7) 0.6226(3)
H4_6 H 0.0318 0.6661 0.6618
H5_6 H 0.0323 0.7313 0.6079
C15_6 C 0.0120(3) 0.9612(7) 0.6213(4)
H9_6 H 0.0303 0.9622 0.6087
C34_6 C 0.6253(3) 0.3045(8) 0.0029(4)
H20_6 H 0.6051 0.2508 0.0024
C35_6 C 0.6629(2) 0.4996(7) 0.0298(4)
H21_5 H 0.6699 0.5827 0.0492
C13_6 C 0.9710(3) 0.0791(7) 0.6498(4)
H7_6 H 0.9615 0.1597 0.6553
C14_6 C 0.9970(3) 0.0815(8) 0.6310(5)
H10_6 H 0.9047 0.0260 0.6541
H11_6 H 0.9453 0.0118 0.7233
H14_6 H 0.8893 0.0349 0.7264
C24_6 C 0.85441(19) 0.0535(6) 0.7886(3)
C25_6 C 0.77337(19) 0.2085(6) 0.8120(3)
H15_6 H 0.7703 0.1452 0.7840
C26_6 C 0.74973(19) 0.1932(6) 0.8354(3)
H16_6 H 0.7324 0.1180 0.8248
C27_6 C 0.7512(2) 0.2875(7) 0.8743(3)
C28_6 C 0.7796(3) 0.3974(8) 0.8906(4)
H17_6 H 0.7821 0.4653 0.9165
C29_6 C 0.8036(2) 0.3988(8) 0.8659(4)
H18_6 H 0.8232 0.4681 0.8777
C30_6 C 0.7265(2) 0.2681(7) 0.9003(3)
C31_6 C 0.6908(2) 0.2918(7) 0.9397(3)
C32_6 C 0.6708(2) 0.3463(7) 0.9698(3)
C33_6 C 0.6419(3) 0.2617(8) 0.9713(4)
H19_6 H 0.6342 0.1791 0.9514
C36_6 C 0.6797(3) 0.4648(7) 0.9979(4)
H22_6 H 0.6976 0.5243 0.9958
N1_6 N 0.80031(16) 0.3086(5) 0.8272(2)
N2_6 N 0.71053(18) 0.3596(6) 0.9181(2)
N3_6 N 0.71765(19) 0.1502(6) 0.9099(3)
N4_6 N 0.6949(2) 0.1649(6) 0.9348(3)
N5_6 N 0.7090(3) 0.5008(7) 0.9110(4)
H23_6 H 0.7194 0.5373 0.8929
H24_6 H 0.6976 0.5496 0.9247
O7_6 O 0.8568(2) 0.1657(4) 0.7707(2)
O8_6 O 0.84354(13) 0.0344(4) 0.82520(19)
O11_6 O 0.77924(19) 0.3251(7) 0.6995(3)
O15_2 O 0.83454(17) 0.5480(5) 0.7906(2)
O16_2 O 0.8676(2) 0.4577(5) 0.7557(3)
H25_6 H 0.764482 0.238337 0.692936
H26_6 H 0.786324 0.33442 0.668949
C4_6 C 0.9853(2) 0.5147(6) 0.5621(3)
C5_6 C 0.94775(19) 0.4416(6) 0.5218(3)
H2_6 H 0.9210 0.4749 0.5092
C6_6 C 0.95093(19) 0.3167(6) 0.5005(3)
C7_6 C 0.99084(18) 0.2671(6) 0.5203(3)
H3_6 H 0.9928 0.1847 0.5058
C8_6 C 0.9117(2) 0.2326(6) 0.4598(3)
C10_6 C 0.9985(2) 0.8433(6) 0.6312(3)
C11_6 C 0.9727(2) 0.8449(6) 0.6532(3)
H6_6 H 0.9654 0.7646 0.6625
C12_6 C 0.9579(2) 0.9627(6) 0.6611(3)
C16_6 C 0.9295(3) 0.9702(7) 0.6825(4)
C17_6 C 0.8943(2) 0.8383(6) 0.7153(3)
C18_6 C 0.8855(2) 0.7109(6) 0.7259(3)
H12_6 H 0.8927 0.6366 0.7126
C19_6 C 0.8661(2) 0.6942(6) 0.7564(3)
C20_6 C 0.8565(2) 0.8066(6) 0.7772(3)
H13_6 H 0.8441 0.7963 0.7987
C21_6 C 0.86491(19) 0.9307(6) 0.7666(3)
C22_6 C 0.8840(2) 0.9496(6) 0.7344(3)
C23_6 C 0.8552(2) 0.5578(6) 0.7682(3)
O3_6 O 0.87655(15) 0.2662(6) 0.4507(3)
O5_6 O 0.97780(14) 0.6382(4) 0.5783(2)
O6_6 O 0.91515(18) 0.8439(4) 0.6859(2)
H21_6 H 0.8301 0.0827 0.4508
H22_7 H 0.8024 0.0243 0.5042
N5_7 N 0.7910(3) 0.0008(7) 0.5890(4)
H23_7 H 0.7806 0.0373 0.6071
H24_7 H 0.8024 0.0496 0.5753
O15_3 O 0.66546(17) 0.0480(5) 0.7094(2)
Zn1_2 Zn 0.66266(2) 0.83221(6) 0.70840(3)
H1_7 H 0.4493 0.0115 0.8901
C4_7 C 0.5147(2) 0.0147(6) 0.9379(3)
C9_7 C 0.4854(2) 0.2141(7) 0.8774(3)
H4_7 H 0.4682 0.1661 0.8382
H5_7 H 0.4677 0.2313 0.8921
C10_7 C 0.5015(2) 0.3433(6) 0.8688(3)
C11_7 C 0.5273(2) 0.3449(6) 0.8468(3)
H6_7 H 0.5346 0.2646 0.8375
C12_7 C 0.5421(2) 0.4627(6) 0.8389(3)
C13_7 C 0.5290(3) 0.5791(7) 0.8502(4)
H7_7 H 0.5385 0.6597 0.8447
C14_7 C 0.5030(3) 0.5815(8) 0.8690(5)
H8_3 H 0.4946 0.6631 0.8757
C15_7 C 0.4880(3) 0.4612(7) 0.8787(4)
H9_7 H 0.4697 0.4622 0.8913
C16_7 C 0.5705(3) 0.4702(7) 0.8175(4)
H10_7 H 0.5953 0.5260 0.8459
H11_7 H 0.5547 0.5118 0.7767
C17_7 C 0.6057(2) 0.3383(6) 0.7847(3)
C18_7 C 0.6145(2) 0.2109(6) 0.7741(3)
H12_7 H 0.6073 0.1366 0.7874
C19_7 C 0.6339(2) 0.1942(6) 0.7436(3)
C20_7 C 0.6435(2) 0.3066(6) 0.7228(3)
H13_7 H 0.6559 0.2963 0.7013
C21_7 C 0.63509(19) 0.4307(6) 0.7334(3)
C22_7 C 0.6160(2) 0.4496(6) 0.7656(3)
H14_7 H 0.6107 0.5349 0.7736
C23_7 C 0.6448(2) 0.0578(6) 0.7318(3)
C24_7 C 0.64559(19) 0.5535(6) 0.7114(3)
C25_7 C 0.72663(19) 0.7085(6) 0.6880(3)
H15_7 H 0.7297 0.6452 0.7160
C26_7 C 0.75027(19) 0.6932(6) 0.6646(3)
H16_7 H 0.7676 0.6180 0.6752
C27_7 C 0.7488(2) 0.7875(7) 0.6257(3)
C28_7 C 0.7204(3) 0.8974(8) 0.6094(4)
H17_7 H 0.7179 0.9653 0.5835
C29_7 C 0.6964(2) 0.8988(8) 0.6341(4)
H18_7 H 0.6768 0.9681 0.6223
C30_7 C 0.7735(2) 0.7681(7) 0.5997(3)
C31_7 C 0.8092(2) 0.7918(7) 0.5603(3)
C32_7 C 0.8292(2) 0.8463(7) 0.5302(3)
C33_7 C 0.8581(3) 0.7617(8) 0.5287(4)
H19_7 H 0.8658 0.6791 0.5486
C34_7 C 0.8747(3) 0.8045(8) 0.4971(4)
H20_7 H 0.8949 0.7508 0.4976
C35_7 C 0.8371(2) 0.9996(7) 0.4702(4)
C36_7 C 0.8203(3) 0.9648(7) 0.5021(4)
N1_7 N 0.69969(16) 0.8086(5) 0.6728(2)
N2_7 N 0.78947(18) 0.8596(6) 0.5819(2)
N3_7 N 0.78235(19) 0.6502(6) 0.5901(3)
N4_7 N 0.8051(2) 0.6649(6) 0.5652(3)
O5_7 O 0.52220(14) 0.1382(4) 0.9217(2)
O6_7 O 0.58485(18) 0.3439(4) 0.8141(2)
O7_7 O 0.6432(2) 0.6657(4) 0.7293(2)
O8_7 O 0.65646(13) 0.5344(4) 0.67480(19)
O11_7 O 0.72076(19) 0.8251(7) 0.8005(3)
O12_4 O 0.56962(15) 0.6612(4) 0.5655(2)
O13_4 O 0.60415(14) 0.8467(4) 0.6172(2)
O16_3 O 0.6324(2) 0.9577(5) 0.7443(3)
H25_7 H 0.735518 0.738337 0.807064
H26_7 H 0.713676 0.83442 0.831051
C8_7 C 0.5883(2) 0.7326(6) 0.0402(3)
O3_7 O 0.62345(15) 0.7662(6) 0.0493(3)
C1_7 C 0.42921(19) 0.7795(6) 0.9158(3)
C2_7 C 0.47226(19) 0.8389(5) 0.9388(3)
C3_7 C 0.47435(19) 0.9632(6) 0.9175(3)
C5_7 C 0.55225(19) 0.9416(6) 0.9782(3)
H2_7 H 0.5790 0.9749 0.9908
C6_7 C 0.54907(19) 0.8167(6) 0.9995(3)
C7_7 C 0.50916(18) 0.7671(6) 0.9797(3)
H3_7 H 0.5072 0.6847 0.9942
O1_4 O 0.43038(15) 0.6612(4) 0.9345(2)
O2_4 O 0.39585(14) 0.8467(4) 0.8828(2)
Zn4_4 Zn 0.33734(2) 0.83221(6) 0.79160(3)
H22_8 H 0.1976 0.0243 0.9958
N5_8 N 0.2090(3) 0.0008(7) 0.9110(4)
H23_8 H 0.2194 0.0373 0.8929
H24_8 H 0.1976 0.0496 0.9247
O15_4 O 0.33454(17) 0.0480(5) 0.7906(2)
C34_8 C 0.1253(3) 0.8045(8) 0.0029(4)
H20_8 H 0.1051 0.7508 0.0024
C35_8 C 0.1629(2) 0.9996(7) 0.0298(4)
H1_8 H 0.5507 0.0115 0.6099
C4_8 C 0.4853(2) 0.0147(6) 0.5621(3)
C9_8 C 0.5146(2) 0.2141(7) 0.6226(3)
H4_8 H 0.5318 0.1661 0.6618
H5_8 H 0.5323 0.2313 0.6079
C10_8 C 0.4985(2) 0.3433(6) 0.6312(3)
C11_8 C 0.4727(2) 0.3449(6) 0.6532(3)
H6_8 H 0.4654 0.2646 0.6625
C12_8 C 0.4579(2) 0.4627(6) 0.6611(3)
C13_8 C 0.4710(3) 0.5791(7) 0.6498(4)
H7_8 H 0.4615 0.6597 0.6553
C14_8 C 0.4970(3) 0.5815(8) 0.6310(5)
H8_4 H 0.5054 0.6631 0.6243
C15_8 C 0.5120(3) 0.4612(7) 0.6213(4)
H9_8 H 0.5303 0.4622 0.6087
C16_8 C 0.4295(3) 0.4702(7) 0.6825(4)
H10_8 H 0.4047 0.5260 0.6541
H11_8 H 0.4453 0.5118 0.7233
C17_8 C 0.3943(2) 0.3383(6) 0.7153(3)
C18_8 C 0.3855(2) 0.2109(6) 0.7259(3)
H12_8 H 0.3927 0.1366 0.7126
C19_8 C 0.3661(2) 0.1942(6) 0.7564(3)
C20_8 C 0.3565(2) 0.3066(6) 0.7772(3)
H13_8 H 0.3441 0.2963 0.7987
C21_8 C 0.36491(19) 0.4307(6) 0.7666(3)
C22_8 C 0.3840(2) 0.4496(6) 0.7344(3)
H14_8 H 0.3893 0.5349 0.7264
C23_8 C 0.3552(2) 0.0578(6) 0.7682(3)
C24_8 C 0.35441(19) 0.5535(6) 0.7886(3)
C25_8 C 0.27337(19) 0.7085(6) 0.8120(3)
H15_8 H 0.2703 0.6452 0.7840
C26_8 C 0.24973(19) 0.6932(6) 0.8354(3)
H16_8 H 0.2324 0.6180 0.8248
C27_8 C 0.2512(2) 0.7875(7) 0.8743(3)
C28_8 C 0.2796(3) 0.8974(8) 0.8906(4)
H17_8 H 0.2821 0.9653 0.9165
C29_8 C 0.3036(2) 0.8988(8) 0.8659(4)
H18_8 H 0.3232 0.9681 0.8777
C30_8 C 0.2265(2) 0.7681(7) 0.9003(3)
C31_8 C 0.1908(2) 0.7918(7) 0.9397(3)
C32_8 C 0.1708(2) 0.8463(7) 0.9698(3)
C33_8 C 0.1419(3) 0.7617(8) 0.9713(4)
H19_8 H 0.1342 0.6791 0.9514
C36_8 C 0.1797(3) 0.9648(7) 0.9979(4)
N1_8 N 0.30031(16) 0.8086(5) 0.8272(2)
N2_8 N 0.21053(18) 0.8596(6) 0.9181(2)
N3_8 N 0.21765(19) 0.6502(6) 0.9099(3)
N4_8 N 0.1949(2) 0.6649(6) 0.9348(3)
O5_8 O 0.47780(14) 0.1382(4) 0.5783(2)
O6_8 O 0.41515(18) 0.3439(4) 0.6859(2)
O7_8 O 0.3568(2) 0.6657(4) 0.7707(2)
O8_8 O 0.34354(13) 0.5344(4) 0.82520(19)
O11_8 O 0.27924(19) 0.8251(7) 0.6995(3)
O16_4 O 0.3676(2) 0.9577(5) 0.7557(3)
H25_8 H 0.264482 0.738337 0.692936
H26_8 H 0.286324 0.83442 0.668949
C1_8 C 0.57079(19) 0.7795(6) 0.5842(3)
C2_8 C 0.52774(19) 0.8389(5) 0.5612(3)
C3_8 C 0.52565(19) 0.9632(6) 0.5825(3)
C5_8 C 0.44775(19) 0.9416(6) 0.5218(3)
H2_8 H 0.4210 0.9749 0.5092
C6_8 C 0.45093(19) 0.8167(6) 0.5005(3)
C7_8 C 0.49084(18) 0.7671(6) 0.5203(3)
H3_8 H 0.4928 0.6847 0.5058
C8_8 C 0.4117(2) 0.7326(6) 0.4598(3)
O3_8 O 0.37655(15) 0.7662(6) 0.4507(3)
H8_5 H 0.0054 0.8369 0.1243
H8_6 H 0.9946 0.8369 0.3757
H21_7 H 0.8301 0.9173 0.9508
H8_7 H 0.9946 0.1631 0.8757
H8_8 H 0.0054 0.1631 0.6243
H21_8 H 0.1699 0.0827 0.0492
loop_
_geom_bond_atom_site_label_1
_geom_bond_atom_site_label_2
_geom_bond_site_symmetry_1
_geom_bond_site_symmetry_2
C1 C2 1_555 1_555
C2 C3 1_555 1_555
C3 H1 1_555 1_555
C9 H4 1_555 1_555
H5 C9 1_555 1_555
H9 C15 1_555 1_555
O1 C1 1_555 1_555
O2 C1 1_555 1_555
Zn4 O2 1_555 1_555
Zn5 O1 1_555 1_555
C5 C4 1_555 1_555
H2 C5 1_555 1_555
C6 C5 1_555 1_555
H3 C7 1_555 1_555
C11 C10 1_555 1_555
H6 C11 1_555 1_555
C12 C11 1_555 1_555
C16 C12 1_555 1_555
C17 C18 1_555 1_555
C18 H12 1_555 1_555
C19 C18 1_555 1_555
C20 C19 1_555 1_555
H13 C20 1_555 1_555
C21 C20 1_555 1_555
C22 C17 1_555 1_555
C23 C19 1_555 1_555
O5 C4 1_555 1_555
O6 C16 1_555 1_555
O9 C23 1_555 1_555
O10 C23 1_555 1_555
Zn3 O9 1_555 1_555
C6 C7 1_555 1_555
C17 O6 1_555 1_555
C21 C22 1_555 1_555
O10 Zn3 1_555 1_555
O3 C8 1_555 1_555
O4 C8 1_555 1_555
Zn3 N1 1_555 1_555
Zn2 O8 1_555 1_555
H7 C13 1_555 1_555
C14 C13 1_555 1_555
C25 H15 1_555 1_555
C26 C25 1_555 1_555
H16 C26 1_555 1_555
C27 C26 1_555 1_555
C28 C27 1_555 1_555
H17 C28 1_555 1_555
C29 C28 1_555 1_555
H18 C29 1_555 1_555
C30 C27 1_555 1_555
C31 C32 1_555 1_555
C32 C33 1_555 1_555
C33 H19 1_555 1_555
C34 C33 1_555 1_555
H20 C34 1_555 1_555
C35 H21 1_555 1_555
C36 C32 1_555 1_555
H22 C36 1_555 1_555
N1 C25 1_555 1_555
N2 C30 1_555 1_555
N3 C30 1_555 1_555
N4 C31 1_555 1_555
N5 N2 1_555 1_555
H23 N5 1_555 1_555
H24 N5 1_555 1_555
N6 C34 1_555 1_555
O7 Zn3 1_555 1_555
O8 C24 1_555 1_555
O11 Zn3 1_555 1_555
Zn7 N6 1_555 1_555
N7 Zn2 1_555 1_555
O12 Zn2 1_555 1_555
O13 Zn3 1_555 1_555
C24 O7 1_555 1_555
C29 N1 1_555 1_555
C31 N2 1_555 1_555
C35 C36 1_555 1_555
C35 N6 1_555 1_555
N3 N4 1_555 1_555
O11 H25 1_555 1_555
O11 H26 1_555 1_555
C5_2 C4_2 1_555 1_555
H2_2 C5_2 1_555 1_555
C6_2 C5_2 1_555 1_555
H3_2 C7_2 1_555 1_555
C8_2 C6_2 1_555 1_555
C11_2 C10_2 1_555 1_555
H6_2 C11_2 1_555 1_555
C12_2 C11_2 1_555 1_555
C16_2 C12_2 1_555 1_555
C17_2 C18_2 1_555 1_555
C18_2 H12_2 1_555 1_555
C19_2 C18_2 1_555 1_555
C20_2 C19_2 1_555 1_555
H13_2 C20_2 1_555 1_555
C21_2 C20_2 1_555 1_555
C22_2 C17_2 1_555 1_555
C23_2 C19_2 1_555 1_555
O3_2 C8_2 1_555 1_555
O4_2 C8_2 1_555 1_555
O5_2 C4_2 1_555 1_555
O6_2 C16_2 1_555 1_555
O9_2 C23_2 1_555 1_555
O10_2 C23_2 1_555 1_555
Zn4 O9_2 1_555 1_555
C6_2 C7_2 1_555 1_555
C17_2 O6_2 1_555 1_555
C21_2 C22_2 1_555 1_555
O10_2 Zn4 1_555 1_555
Zn4 N1_2 1_555 1_555
Zn5 O8_2 1_555 1_555
H7_2 C13_2 1_555 1_555
C14_2 C13_2 1_555 1_555
C25_2 H15_2 1_555 1_555
C26_2 C25_2 1_555 1_555
H16_2 C26_2 1_555 1_555
C27_2 C26_2 1_555 1_555
C28_2 C27_2 1_555 1_555
H17_2 C28_2 1_555 1_555
C29_2 C28_2 1_555 1_555
H18_2 C29_2 1_555 1_555
C30_2 C27_2 1_555 1_555
C31_2 C32_2 1_555 1_555
C32_2 C33_2 1_555 1_555
C33_2 H19_2 1_555 1_555
C36_2 C32_2 1_555 1_555
H22_2 C36_2 1_555 1_555
N1_2 C25_2 1_555 1_555
N2_2 C30_2 1_555 1_555
N3_2 C30_2 1_555 1_555
N4_2 C31_2 1_555 1_555
N5_2 N2_2 1_555 1_555
H23_2 N5_2 1_555 1_555
H24_2 N5_2 1_555 1_555
O7_2 Zn4 1_555 1_555
O8_2 C24_2 1_555 1_555
O11_2 Zn4 1_555 1_555
N7_2 Zn5 1_555 1_555
C24_2 O7_2 1_555 1_555
C29_2 N1_2 1_555 1_555
C31_2 N2_2 1_555 1_555
N3_2 N4_2 1_555 1_555
O11_2 H25_2 1_555 1_555
O11_2 H26_2 1_555 1_555
H20_2 C34_2 1_555 1_555
C35_2 H21_2 1_555 1_555
N6_2 C34_2 1_555 1_555
Zn7_2 N6_2 1_555 1_555
C35_2 N6_2 1_555 1_555
C1_2 C2_2 1_555 1_555
C2_2 C3_2 1_555 1_555
C3_2 H1_2 1_555 1_555
C9_2 H4_2 1_555 1_555
H5_2 C9_2 1_555 1_555
H9_2 C15_2 1_555 1_555
O12 C1_2 1_555 1_555
O13 C1_2 1_555 1_555
C1_3 C2_3 1_555 1_555
C2_3 C3_3 1_555 1_555
H2_3 C5_3 1_555 1_555
C6_3 C5_3 1_555 1_555
C7_3 C2_3 1_555 1_555
H3_3 C7_3 1_555 1_555
O1_2 C1_3 1_555 1_555
O2_2 C1_3 1_555 1_555
Zn4_2 O2_2 1_555 1_555
Zn5_2 O1_2 1_555 1_555
C6_3 C7_3 1_555 1_555
O10_3 Zn3_2 1_555 1_555
O3_3 C8_3 1_555 1_555
O4_3 C8_3 1_555 1_555
Zn7_2 O4_3 1_555 1_555
Zn3_2 N1_3 1_555 1_555
Zn2_2 O8_3 1_555 1_555
C9_3 H4_3 1_555 1_555
H5_3 C9_3 1_555 1_555
C10_3 C9_3 1_555 1_555
C11_3 C10_3 1_555 1_555
H6_3 C11_3 1_555 1_555
C12_3 C11_3 1_555 1_555
C13_3 C12_3 1_555 1_555
H7_3 C13_3 1_555 1_555
C14_3 C13_3 1_555 1_555
H8 C14_3 1_555 1_555
C15_3 C10_3 1_555 1_555
H9_3 C15_3 1_555 1_555
C16_3 C12_3 1_555 1_555
H10_3 C16_3 1_555 1_555
H11_3 C16_3 1_555 1_555
C17_3 C18_3 1_555 1_555
C18_3 H12_3 1_555 1_555
C19_3 C18_3 1_555 1_555
C20_3 C19_3 1_555 1_555
H13_3 C20_3 1_555 1_555
C21_3 C20_3 1_555 1_555
C22_3 C17_3 1_555 1_555
H14_3 C22_3 1_555 1_555
C23_3 C19_3 1_555 1_555
C24_3 C21_3 1_555 1_555
C25_3 H15_3 1_555 1_555
C26_3 C25_3 1_555 1_555
H16_3 C26_3 1_555 1_555
C27_3 C26_3 1_555 1_555
C28_3 C27_3 1_555 1_555
H17_3 C28_3 1_555 1_555
C29_3 C28_3 1_555 1_555
H18_3 C29_3 1_555 1_555
C30_3 C27_3 1_555 1_555
C31_3 C32_3 1_555 1_555
C32_3 C33_3 1_555 1_555
C33_3 H19_3 1_555 1_555
C34_3 C33_3 1_555 1_555
H20_3 C34_3 1_555 1_555
C36_3 C32_3 1_555 1_555
N1_3 C25_3 1_555 1_555
N2_3 C30_3 1_555 1_555
N3_3 C30_3 1_555 1_555
N4_3 C31_3 1_555 1_555
N6_3 C34_3 1_555 1_555
O5_3 C4_3 1_555 1_555
O6_3 C16_3 1_555 1_555
O7_3 Zn3_2 1_555 1_555
O8_3 C24_3 1_555 1_555
O9_3 C23_3 1_555 1_555
O11_3 Zn3_2 1_555 1_555
Zn6_2 N6_3 1_555 1_555
N7_3 Zn2_2 1_555 1_555
O12_2 Zn2_2 1_555 1_555
O13_2 Zn3_2 1_555 1_555
O14_3 Zn2_2 1_555 1_555
C9_3 O5_3 1_555 1_555
C14_3 C15_3 1_555 1_555
C17_3 O6_3 1_555 1_555
C21_3 C22_3 1_555 1_555
C24_3 O7_3 1_555 1_555
C29_3 N1_3 1_555 1_555
C31_3 N2_3 1_555 1_555
C35_3 C36_3 1_555 1_555
C35_3 N6_3 1_555 1_555
N3_3 N4_3 1_555 1_555
O11_3 H25_3 1_555 1_555
O11_3 H26_3 1_555 1_555
H23_3 N5_3 1_555 1_555
H24_3 N5_3 1_555 1_555
C1_4 C2_4 1_555 1_555
C2_4 C3_4 1_555 1_555
H2_4 C5_4 1_555 1_555
C6_4 C5_4 1_555 1_555
C7_4 C2_4 1_555 1_555
H3_4 C7_4 1_555 1_555
C8_4 C6_4 1_555 1_555
O12_2 C1_4 1_555 1_555
O13_2 C1_4 1_555 1_555
O3_4 C8_4 1_555 1_555
O4_4 C8_4 1_555 1_555
Zn7 O4_4 1_555 1_555
C6_4 C7_4 1_555 1_555
O10_4 Zn4_2 1_555 1_555
Zn4_2 N1_4 1_555 1_555
Zn5_2 O8_4 1_555 1_555
C9_4 H4_4 1_555 1_555
H5_4 C9_4 1_555 1_555
C10_4 C9_4 1_555 1_555
C11_4 C10_4 1_555 1_555
H6_4 C11_4 1_555 1_555
C12_4 C11_4 1_555 1_555
C13_4 C12_4 1_555 1_555
H7_4 C13_4 1_555 1_555
C14_4 C13_4 1_555 1_555
H8_2 C14_4 1_555 1_555
C15_4 C10_4 1_555 1_555
H9_4 C15_4 1_555 1_555
C16_4 C12_4 1_555 1_555
H10_4 C16_4 1_555 1_555
H11_4 C16_4 1_555 1_555
C17_4 C18_4 1_555 1_555
C18_4 H12_4 1_555 1_555
C19_4 C18_4 1_555 1_555
C20_4 C19_4 1_555 1_555
H13_4 C20_4 1_555 1_555
C21_4 C20_4 1_555 1_555
C22_4 C17_4 1_555 1_555
H14_4 C22_4 1_555 1_555
C23_4 C19_4 1_555 1_555
C24_4 C21_4 1_555 1_555
C25_4 H15_4 1_555 1_555
C26_4 C25_4 1_555 1_555
H16_4 C26_4 1_555 1_555
C27_4 C26_4 1_555 1_555
C28_4 C27_4 1_555 1_555
H17_4 C28_4 1_555 1_555
C29_4 C28_4 1_555 1_555
H18_4 C29_4 1_555 1_555
C30_4 C27_4 1_555 1_555
C31_4 C32_4 1_555 1_555
C32_4 C33_4 1_555 1_555
C33_4 H19_4 1_555 1_555
C36_4 C32_4 1_555 1_555
N1_4 C25_4 1_555 1_555
N2_4 C30_4 1_555 1_555
N3_4 C30_4 1_555 1_555
N4_4 C31_4 1_555 1_555
O5_4 C4_4 1_555 1_555
O6_4 C16_4 1_555 1_555
O7_4 Zn4_2 1_555 1_555
O8_4 C24_4 1_555 1_555
O9_4 C23_4 1_555 1_555
O11_4 Zn4_2 1_555 1_555
N7_4 Zn5_2 1_555 1_555
O14_4 Zn5_2 1_555 1_555
C9_4 O5_4 1_555 1_555
C14_4 C15_4 1_555 1_555
C17_4 O6_4 1_555 1_555
C21_4 C22_4 1_555 1_555
C24_4 O7_4 1_555 1_555
C29_4 N1_4 1_555 1_555
C31_4 N2_4 1_555 1_555
N3_4 N4_4 1_555 1_555
O11_4 H25_4 1_555 1_555
O11_4 H26_4 1_555 1_555
H20_4 C34_4 1_555 1_555
N6_4 C34_4 1_555 1_555
Zn6 N6_4 1_555 1_555
C35_4 N6_4 1_555 1_555
H23_4 N5_4 1_555 1_555
H24_4 N5_4 1_555 1_555
Zn1 N1_5 1_555 1_555
Zn6_2 O8_5 1_555 1_555
H7_5 C13_5 1_555 1_555
C14_5 C13_5 1_555 1_555
C25_5 H15_5 1_555 1_555
C26_5 C25_5 1_555 1_555
H16_5 C26_5 1_555 1_555
C27_5 C26_5 1_555 1_555
C28_5 C27_5 1_555 1_555
H17_5 C28_5 1_555 1_555
C29_5 C28_5 1_555 1_555
H18_5 C29_5 1_555 1_555
C30_5 C27_5 1_555 1_555
C31_5 C32_5 1_555 1_555
C32_5 C33_5 1_555 1_555
C33_5 H19_5 1_555 1_555
C34_5 C33_5 1_555 1_555
H20_5 C34_5 1_555 1_555
C35_5 H21_4 1_555 1_555
C36_5 C32_5 1_555 1_555
H22_5 C36_5 1_555 1_555
N1_5 C25_5 1_555 1_555
N2_5 C30_5 1_555 1_555
N3_5 C30_5 1_555 1_555
N4_5 C31_5 1_555 1_555
N5_5 N2_5 1_555 1_555
H23_5 N5_5 1_555 1_555
H24_5 N5_5 1_555 1_555
N7_3 C34_5 1_555 1_555
O7_5 Zn1 1_555 1_555
O8_5 C24_5 1_555 1_555
O11_5 Zn1 1_555 1_555
O12_3 Zn6_2 1_555 1_555
O13_3 Zn1 1_555 1_555
O15 Zn1 1_555 1_555
O16 Zn1 1_555 1_555
C24_5 O7_5 1_555 1_555
C29_5 N1_5 1_555 1_555
C31_5 N2_5 1_555 1_555
C35_5 C36_5 1_555 1_555
C35_5 N7_3 1_555 1_555
N3_5 N4_5 1_555 1_555
O11_5 H25_5 1_555 1_555
O11_5 H26_5 1_555 1_555
O3_5 C8_5 1_555 1_555
O14_2 C8_5 1_555 1_555
C5_5 C4_5 1_555 1_555
H2_5 C5_5 1_555 1_555
C6_5 C5_5 1_555 1_555
H3_5 C7_5 1_555 1_555
C11_5 C10_5 1_555 1_555
H6_5 C11_5 1_555 1_555
C12_5 C11_5 1_555 1_555
C16_5 C12_5 1_555 1_555
C17_5 C18_5 1_555 1_555
C18_5 H12_5 1_555 1_555
C19_5 C18_5 1_555 1_555
C20_5 C19_5 1_555 1_555
H13_5 C20_5 1_555 1_555
C21_5 C20_5 1_555 1_555
C22_5 C17_5 1_555 1_555
C23_5 C19_5 1_555 1_555
O5_5 C4_5 1_555 1_555
O6_5 C16_5 1_555 1_555
O15 C23_5 1_555 1_555
O16 C23_5 1_555 1_555
C6_5 C7_5 1_555 1_555
C17_5 O6_5 1_555 1_555
C21_5 C22_5 1_555 1_555
C1_5 C2_5 1_555 1_555
C2_5 C3_5 1_555 1_555
C3_5 H1_5 1_555 1_555
C9_5 H4_5 1_555 1_555
H5_5 C9_5 1_555 1_555
H9_5 C15_5 1_555 1_555
O1_3 C1_5 1_555 1_555
O2_3 C1_5 1_555 1_555
Zn4_3 O2_3 1_555 1_555
Zn6 O1_3 1_555 1_555
C1_6 C2_6 1_555 1_555
C2_6 C3_6 1_555 1_555
C3_6 H1_6 1_555 1_555
C9_6 H4_6 1_555 1_555
H5_6 C9_6 1_555 1_555
H9_6 C15_6 1_555 1_555
O12_3 C1_6 1_555 1_555
O13_3 C1_6 1_555 1_555
H20_6 C34_6 1_555 1_555
C35_6 H21_5 1_555 1_555
N7_4 C34_6 1_555 1_555
C35_6 N7_4 1_555 1_555
Zn4_3 N1_6 1_555 1_555
Zn6 O8_6 1_555 1_555
H7_6 C13_6 1_555 1_555
C14_6 C13_6 1_555 1_555
C25_6 H15_6 1_555 1_555
C26_6 C25_6 1_555 1_555
H16_6 C26_6 1_555 1_555
C27_6 C26_6 1_555 1_555
C28_6 C27_6 1_555 1_555
H17_6 C28_6 1_555 1_555
C29_6 C28_6 1_555 1_555
H18_6 C29_6 1_555 1_555
C30_6 C27_6 1_555 1_555
C31_6 C32_6 1_555 1_555
C32_6 C33_6 1_555 1_555
C33_6 H19_6 1_555 1_555
C36_6 C32_6 1_555 1_555
H22_6 C36_6 1_555 1_555
N1_6 C25_6 1_555 1_555
N2_6 C30_6 1_555 1_555
N3_6 C30_6 1_555 1_555
N4_6 C31_6 1_555 1_555
N5_6 N2_6 1_555 1_555
H23_6 N5_6 1_555 1_555
H24_6 N5_6 1_555 1_555
O7_6 Zn4_3 1_555 1_555
O8_6 C24_6 1_555 1_555
O11_6 Zn4_3 1_555 1_555
O15_2 Zn4_3 1_555 1_555
O16_2 Zn4_3 1_555 1_555
C24_6 O7_6 1_555 1_555
C29_6 N1_6 1_555 1_555
C31_6 N2_6 1_555 1_555
N3_6 N4_6 1_555 1_555
O11_6 H25_6 1_555 1_555
O11_6 H26_6 1_555 1_555
C5_6 C4_6 1_555 1_555
H2_6 C5_6 1_555 1_555
C6_6 C5_6 1_555 1_555
H3_6 C7_6 1_555 1_555
C8_6 C6_6 1_555 1_555
C11_6 C10_6 1_555 1_555
H6_6 C11_6 1_555 1_555
C12_6 C11_6 1_555 1_555
C16_6 C12_6 1_555 1_555
C17_6 C18_6 1_555 1_555
C18_6 H12_6 1_555 1_555
C19_6 C18_6 1_555 1_555
C20_6 C19_6 1_555 1_555
H13_6 C20_6 1_555 1_555
C21_6 C20_6 1_555 1_555
C22_6 C17_6 1_555 1_555
C23_6 C19_6 1_555 1_555
O3_6 C8_6 1_555 1_555
O14 C8_6 1_555 1_555
O5_6 C4_6 1_555 1_555
O6_6 C16_6 1_555 1_555
O15_2 C23_6 1_555 1_555
O16_2 C23_6 1_555 1_555
C6_6 C7_6 1_555 1_555
C17_6 O6_6 1_555 1_555
C21_6 C22_6 1_555 1_555
H23_7 N5_7 1_555 1_555
H24_7 N5_7 1_555 1_555
Zn1_2 N1_7 1_555 1_555
Zn7 O8_7 1_555 1_555
C9_7 H4_7 1_555 1_555
H5_7 C9_7 1_555 1_555
C10_7 C9_7 1_555 1_555
C11_7 C10_7 1_555 1_555
H6_7 C11_7 1_555 1_555
C12_7 C11_7 1_555 1_555
C13_7 C12_7 1_555 1_555
H7_7 C13_7 1_555 1_555
C14_7 C13_7 1_555 1_555
H8_3 C14_7 1_555 1_555
C15_7 C10_7 1_555 1_555
H9_7 C15_7 1_555 1_555
C16_7 C12_7 1_555 1_555
H10_7 C16_7 1_555 1_555
H11_7 C16_7 1_555 1_555
C17_7 C18_7 1_555 1_555
C18_7 H12_7 1_555 1_555
C19_7 C18_7 1_555 1_555
C20_7 C19_7 1_555 1_555
H13_7 C20_7 1_555 1_555
C21_7 C20_7 1_555 1_555
C22_7 C17_7 1_555 1_555
H14_7 C22_7 1_555 1_555
C23_7 C19_7 1_555 1_555
C24_7 C21_7 1_555 1_555
C25_7 H15_7 1_555 1_555
C26_7 C25_7 1_555 1_555
H16_7 C26_7 1_555 1_555
C27_7 C26_7 1_555 1_555
C28_7 C27_7 1_555 1_555
H17_7 C28_7 1_555 1_555
C29_7 C28_7 1_555 1_555
H18_7 C29_7 1_555 1_555
C30_7 C27_7 1_555 1_555
C31_7 C32_7 1_555 1_555
C32_7 C33_7 1_555 1_555
C33_7 H19_7 1_555 1_555
C34_7 C33_7 1_555 1_555
H20_7 C34_7 1_555 1_555
C36_7 C32_7 1_555 1_555
N1_7 C25_7 1_555 1_555
N2_7 C30_7 1_555 1_555
N3_7 C30_7 1_555 1_555
N4_7 C31_7 1_555 1_555
N7 C34_7 1_555 1_555
O5_7 C4_7 1_555 1_555
O6_7 C16_7 1_555 1_555
O7_7 Zn1_2 1_555 1_555
O8_7 C24_7 1_555 1_555
O15_3 C23_7 1_555 1_555
O11_7 Zn1_2 1_555 1_555
O12_4 Zn7 1_555 1_555
O13_4 Zn1_2 1_555 1_555
O16_3 Zn1_2 1_555 1_555
C9_7 O5_7 1_555 1_555
C14_7 C15_7 1_555 1_555
C17_7 O6_7 1_555 1_555
C21_7 C22_7 1_555 1_555
C24_7 O7_7 1_555 1_555
C29_7 N1_7 1_555 1_555
C31_7 N2_7 1_555 1_555
C35_7 C36_7 1_555 1_555
C35_7 N7 1_555 1_555
N3_7 N4_7 1_555 1_555
O11_7 H25_7 1_555 1_555
O11_7 H26_7 1_555 1_555
O3_7 C8_7 1_555 1_555
O14_4 C8_7 1_555 1_555
C1_7 C2_7 1_555 1_555
C2_7 C3_7 1_555 1_555
H2_7 C5_7 1_555 1_555
C6_7 C5_7 1_555 1_555
C7_7 C2_7 1_555 1_555
H3_7 C7_7 1_555 1_555
O1_4 C1_7 1_555 1_555
O2_4 C1_7 1_555 1_555
Zn4_4 O2_4 1_555 1_555
Zn7_2 O1_4 1_555 1_555
C6_7 C7_7 1_555 1_555
H23_8 N5_8 1_555 1_555
H24_8 N5_8 1_555 1_555
H20_8 C34_8 1_555 1_555
N7_2 C34_8 1_555 1_555
C35_8 N7_2 1_555 1_555
Zn4_4 N1_8 1_555 1_555
Zn7_2 O8_8 1_555 1_555
C9_8 H4_8 1_555 1_555
H5_8 C9_8 1_555 1_555
C10_8 C9_8 1_555 1_555
C11_8 C10_8 1_555 1_555
H6_8 C11_8 1_555 1_555
C12_8 C11_8 1_555 1_555
C13_8 C12_8 1_555 1_555
H7_8 C13_8 1_555 1_555
C14_8 C13_8 1_555 1_555
H8_4 C14_8 1_555 1_555
C15_8 C10_8 1_555 1_555
H9_8 C15_8 1_555 1_555
C16_8 C12_8 1_555 1_555
H10_8 C16_8 1_555 1_555
H11_8 C16_8 1_555 1_555
C17_8 C18_8 1_555 1_555
C18_8 H12_8 1_555 1_555
C19_8 C18_8 1_555 1_555
C20_8 C19_8 1_555 1_555
H13_8 C20_8 1_555 1_555
C21_8 C20_8 1_555 1_555
C22_8 C17_8 1_555 1_555
H14_8 C22_8 1_555 1_555
C23_8 C19_8 1_555 1_555
C24_8 C21_8 1_555 1_555
C25_8 H15_8 1_555 1_555
C26_8 C25_8 1_555 1_555
H16_8 C26_8 1_555 1_555
C27_8 C26_8 1_555 1_555
C28_8 C27_8 1_555 1_555
H17_8 C28_8 1_555 1_555
C29_8 C28_8 1_555 1_555
H18_8 C29_8 1_555 1_555
C30_8 C27_8 1_555 1_555
C31_8 C32_8 1_555 1_555
C32_8 C33_8 1_555 1_555
C33_8 H19_8 1_555 1_555
C36_8 C32_8 1_555 1_555
N1_8 C25_8 1_555 1_555
N2_8 C30_8 1_555 1_555
N3_8 C30_8 1_555 1_555
N4_8 C31_8 1_555 1_555
O5_8 C4_8 1_555 1_555
O6_8 C16_8 1_555 1_555
O7_8 Zn4_4 1_555 1_555
O8_8 C24_8 1_555 1_555
O15_4 C23_8 1_555 1_555
O11_8 Zn4_4 1_555 1_555
O16_4 Zn4_4 1_555 1_555
C9_8 O5_8 1_555 1_555
C14_8 C15_8 1_555 1_555
C17_8 O6_8 1_555 1_555
C21_8 C22_8 1_555 1_555
C24_8 O7_8 1_555 1_555
C29_8 N1_8 1_555 1_555
C31_8 N2_8 1_555 1_555
N3_8 N4_8 1_555 1_555
O11_8 H25_8 1_555 1_555
O11_8 H26_8 1_555 1_555
C1_8 C2_8 1_555 1_555
C2_8 C3_8 1_555 1_555
H2_8 C5_8 1_555 1_555
C6_8 C5_8 1_555 1_555
C7_8 C2_8 1_555 1_555
H3_8 C7_8 1_555 1_555
C8_8 C6_8 1_555 1_555
O12_4 C1_8 1_555 1_555
O13_4 C1_8 1_555 1_555
O3_8 C8_8 1_555 1_555
O14_3 C8_8 1_555 1_555
C6_8 C7_8 1_555 1_555

#END
