
###############################################################################
#
# This file contains modified crystal structure data generated from the
# MOF subset of the Cambridge Structural Database (CSD) v543 
# hosted by the Cambridge Crystallographic Data Centre (CCDC).
#
# This work is licensed under the Creative Commons
# Attribution-NonCommercial-ShareAlike 4.0 International License.
# To view a copy of this license, visit
# http://creativecommons.org/licenses/by-nc-sa/4.0/
# or send a letter to
# Creative Commons, PO Box 1866, Mountain View, CA 94042, USA.
#
# CIF created using the CSD Python API on 29 September 2022
# The structure has been converted into the P1 space group
# The structure has a 3D framework
# The original CSD entry WOPWOP is in the triclinic crystal system
# The framework has been calculated to contain at least 10.0% void space
# The void calculation uses a probe of radius 1.32A, grid spacing 0.4
#
###############################################################################

data_WOPWOP
_chemical_formula_moiety         '(C48 H36 Co4 N8 O18)n'
_symmetry_cell_setting           triclinic
_symmetry_space_group_name_H-M   'P 1'
_symmetry_Int_Tables_number      1
_space_group_name_Hall           'P 1'
loop_
_symmetry_equiv_pos_site_id
_symmetry_equiv_pos_as_xyz
1 x,y,z
_cell_length_a                   10.561(2)
_cell_length_b                   11.815(2)
_cell_length_c                   13.964(3)
_cell_angle_alpha                106.17(3)
_cell_angle_beta                 101.87(3)
_cell_angle_gamma                111.67(3)
_cell_volume                     1459.34
loop_
_atom_site_label
_atom_site_type_symbol
_atom_site_fract_x
_atom_site_fract_y
_atom_site_fract_z
O2 O 0.1016(2) 0.1978(2) 0.61945(18)
O6 O 0.2862(2) 0.3865(2) 0.63927(17)
C1 C 0.1612(3) 0.0545(3) 0.4555(2)
H3 H 0.1140 0.0109 0.4934
C7 C 0.2225(4) 0.1905(3) 0.4959(3)
C14 C 0.2010(3) 0.2639(3) 0.5933(2)
C21 C 0.2348(4) 0.0451(4) 0.3113(3)
C23 C 0.2956(5) 0.2560(4) 0.4406(3)
H17 H 0.3394 0.3478 0.4658
C24 C 0.3021(6) 0.1816(4) 0.3469(4)
H18 H 0.3511 0.2230 0.3086
Co5 Co 0.30883(4) 0.50576(4) 0.78637(3)
Co2 Co 0.04700(4) 0.77044(4) 0.30877(3)
N2 N 0.2174(3) 0.7487(3) 0.2495(2)
N4 N 0.1655(3) 0.9811(3) 0.3645(2)
C2 C 0.1883(3) 0.6986(3) 0.1445(2)
H4 H 0.0943 0.6688 0.0996
C4 C 0.3527(4) 0.7892(3) 0.3128(3)
H6 H 0.3757 0.8259 0.3860
C5 C 0.2903(3) 0.6886(3) 0.0991(2)
C18 C 0.4596(4) 0.7784(3) 0.2734(3)
H12 H 0.5512 0.8039 0.3197
C19 C 0.4293(4) 0.7296(3) 0.1648(3)
H13 H 0.5006 0.7246 0.1368
H15 H 0.2378 0.9959 0.2478
O13 O 0.1610(3) 0.7823(2) 0.45391(17)
O4 O 0.3389(2) 0.6307(2) 0.93858(17)
O9 O 0.1094(2) 0.5820(3) 0.92883(18)
C11 C 0.2431(3) 0.6297(3) 0.9796(3)
O3 O 0.0580(2) 0.2475(2) 0.84177(17)
O7 O 0.2856(2) 0.3603(2) 0.84973(18)
C16 C 0.1921(3) 0.3165(3) 0.8903(3)
O1 O 0.0771(2) 0.4397(2) 0.74257(17)
H1 H 0.071(4) 0.481(3) 0.802(2)
H2 H 0.024(3) 0.445(4) 0.692(2)
N1 N 0.3360(3) 0.6597(3) 0.7293(2)
N3 N 0.5385(3) 0.5665(3) 0.8396(2)
O8 O 0.0963(3) 0.5683(2) 0.4213(2)
C3 C 0.2568(3) 0.6318(3) 0.6294(2)
H5 H 0.1958 0.5437 0.5847
C6 C 0.6046(3) 0.6070(3) 0.9442(3)
H7 H 0.5488 0.6082 0.9877
C8 C 0.1654(4) 0.6882(3) 0.4794(3)
C9 C 0.4256(4) 0.7871(3) 0.7920(3)
H8 H 0.4802 0.8076 0.8613
C10 C 0.6181(4) 0.5601(4) 0.7775(3)
H9 H 0.5735 0.5298 0.7045
C12 C 0.8334(4) 0.6439(4) 0.9270(3)
H10 H 0.9327 0.6725 0.9558
C13 C 0.7508(3) 0.6471(3) 0.9913(2)
C15 C 0.2622(3) 0.7280(3) 0.5904(3)
C17 C 0.3574(4) 0.8590(3) 0.6562(3)
H11 H 0.3650 0.9261 0.6317
C20 C 0.4405(4) 0.8887(4) 0.7583(3)
H14 H 0.5054 0.9757 0.8034
C22 C 0.7646(4) 0.5970(4) 0.8181(3)
H16 H 0.8169 0.5905 0.7725
Co8 Co 0.95300(4) 0.22956(4) 0.69123(3)
Co1 Co 0.69117(4) 0.49424(4) 0.21363(3)
O1_2 O 0.9229(2) 0.5603(2) 0.25743(17)
H1_2 H 0.929(4) 0.519(3) 0.198(2)
H2_2 H 0.976(3) 0.555(4) 0.308(2)
O5 O 0.8390(3) 0.2177(2) 0.54609(17)
N1_2 N 0.6640(3) 0.3403(3) 0.2707(2)
N3_2 N 0.4615(3) 0.4335(3) 0.1604(2)
O8_2 O 0.9037(3) 0.4317(2) 0.5787(2)
C3_2 C 0.7432(3) 0.3682(3) 0.3706(2)
H5_2 H 0.8042 0.4563 0.4153
C6_2 C 0.3954(3) 0.3930(3) 0.0558(3)
H7_2 H 0.4512 0.3918 0.0123
C8_2 C 0.8346(4) 0.3118(3) 0.5206(3)
C9_2 C 0.5744(4) 0.2129(3) 0.2080(3)
H8_2 H 0.5198 0.1924 0.1387
C10_2 C 0.3819(4) 0.4399(4) 0.2225(3)
H9_2 H 0.4265 0.4702 0.2955
C12_2 C 0.1666(4) 0.3561(4) 0.0730(3)
H10_2 H 0.0673 0.3275 0.0442
C13_2 C 0.2492(3) 0.3529(3) 0.0087(2)
C15_2 C 0.7378(3) 0.2720(3) 0.4096(3)
C17_2 C 0.6426(4) 0.1410(3) 0.3438(3)
H11_2 H 0.6350 0.0739 0.3683
C20_2 C 0.5595(4) 0.1113(4) 0.2417(3)
H14_2 H 0.4946 0.0243 0.1966
C22_2 C 0.2354(4) 0.4030(4) 0.1819(3)
H16_2 H 0.1831 0.4095 0.2275
O10 O 0.8984(2) 0.8022(2) 0.38055(18)
O11 O 0.9420(2) 0.7525(2) 0.15823(17)
O12 O 0.6611(2) 0.3693(2) 0.06142(17)
O14 O 0.7138(2) 0.6135(2) 0.36073(17)
O15 O 0.7144(2) 0.6397(2) 0.15027(18)
C16_2 C 0.8079(3) 0.6835(3) 0.1097(3)
O9_2 O 0.8906(2) 0.4180(3) 0.07117(18)
C11_2 C 0.7569(3) 0.3703(3) 0.0204(3)
N2_2 N 0.7826(3) 0.2513(3) 0.7505(2)
N4_2 N 0.8345(3) 0.0189(3) 0.6355(2)
C2_2 C 0.8117(3) 0.3014(3) 0.8555(2)
H4_2 H 0.9057 0.3312 0.9004
C4_2 C 0.6473(4) 0.2108(3) 0.6872(3)
H6_2 H 0.6243 0.1741 0.6140
C5_2 C 0.7097(3) 0.3114(3) 0.9009(2)
C18_2 C 0.5404(4) 0.2216(3) 0.7266(3)
H12_2 H 0.4488 0.1961 0.6803
C19_2 C 0.5707(4) 0.2704(3) 0.8352(3)
H13_2 H 0.4994 0.2754 0.8632
H15_2 H 0.7622 0.0041 0.7522
C1_2 C 0.8388(3) 0.9455(3) 0.5445(2)
H3_2 H 0.8860 0.9891 0.5066
C7_2 C 0.7775(4) 0.8095(3) 0.5041(3)
C14_2 C 0.7990(3) 0.7361(3) 0.4067(2)
C21_2 C 0.7652(4) 0.9549(4) 0.6887(3)
C23_2 C 0.7044(5) 0.7440(4) 0.5594(3)
H17_2 H 0.6606 0.6522 0.5342
C24_2 C 0.6979(6) 0.8184(4) 0.6531(4)
H18_2 H 0.6489 0.7770 0.6914
loop_
_geom_bond_atom_site_label_1
_geom_bond_atom_site_label_2
_geom_bond_site_symmetry_1
_geom_bond_site_symmetry_2
O2 C14 1_555 1_555
O6 C14 1_555 1_555
H3 C1 1_555 1_555
C7 C1 1_555 1_555
C14 C7 1_555 1_555
C23 C7 1_555 1_555
H17 C23 1_555 1_555
C24 C21 1_555 1_555
H18 C24 1_555 1_555
Co5 O6 1_555 1_555
C23 C24 1_555 1_555
N2 Co2 1_555 1_555
N4 Co2 1_555 1_555
C2 N2 1_555 1_555
H4 C2 1_555 1_555
C4 N2 1_555 1_555
H6 C4 1_555 1_555
C5 C2 1_555 1_555
C18 C4 1_555 1_555
H12 C18 1_555 1_555
C19 C5 1_555 1_555
H13 C19 1_555 1_555
O13 Co2 1_555 1_555
C18 C19 1_555 1_555
O4 C11 1_555 1_555
O9 C11 1_555 1_555
Co5 O4 1_555 1_555
O3 C16 1_555 1_555
O7 C16 1_555 1_555
Co5 O7 1_555 1_555
Co5 O1 1_555 1_555
O1 H1 1_555 1_555
H2 O1 1_555 1_555
O13 C8 1_555 1_555
N1 Co5 1_555 1_555
N3 Co5 1_555 1_555
O8 C8 1_555 1_555
C3 N1 1_555 1_555
H5 C3 1_555 1_555
C6 N3 1_555 1_555
H7 C6 1_555 1_555
C8 C15 1_555 1_555
C9 N1 1_555 1_555
H8 C9 1_555 1_555
C10 N3 1_555 1_555
H9 C10 1_555 1_555
C12 H10 1_555 1_555
C13 C6 1_555 1_555
C15 C3 1_555 1_555
C17 C15 1_555 1_555
H11 C17 1_555 1_555
C20 C9 1_555 1_555
H14 C20 1_555 1_555
C22 C10 1_555 1_555
H16 C22 1_555 1_555
C12 C13 1_555 1_555
C12 C22 1_555 1_555
C17 C20 1_555 1_555
Co1 O1_2 1_555 1_555
O1_2 H1_2 1_555 1_555
H2_2 O1_2 1_555 1_555
O5 C8_2 1_555 1_555
N1_2 Co1 1_555 1_555
N3_2 Co1 1_555 1_555
O8_2 C8_2 1_555 1_555
C3_2 N1_2 1_555 1_555
H5_2 C3_2 1_555 1_555
C6_2 N3_2 1_555 1_555
H7_2 C6_2 1_555 1_555
C8_2 C15_2 1_555 1_555
C9_2 N1_2 1_555 1_555
H8_2 C9_2 1_555 1_555
C10_2 N3_2 1_555 1_555
H9_2 C10_2 1_555 1_555
C12_2 H10_2 1_555 1_555
C13_2 C6_2 1_555 1_555
C15_2 C3_2 1_555 1_555
C17_2 C15_2 1_555 1_555
H11_2 C17_2 1_555 1_555
C20_2 C9_2 1_555 1_555
H14_2 C20_2 1_555 1_555
C22_2 C10_2 1_555 1_555
H16_2 C22_2 1_555 1_555
Co8 O5 1_555 1_555
O12 Co1 1_555 1_555
O14 Co1 1_555 1_555
O15 Co1 1_555 1_555
C12_2 C13_2 1_555 1_555
C12_2 C22_2 1_555 1_555
C17_2 C20_2 1_555 1_555
O11 C16_2 1_555 1_555
O15 C16_2 1_555 1_555
O12 C11_2 1_555 1_555
O9_2 C11_2 1_555 1_555
N2_2 Co8 1_555 1_555
N4_2 Co8 1_555 1_555
C2_2 N2_2 1_555 1_555
H4_2 C2_2 1_555 1_555
C4_2 N2_2 1_555 1_555
H6_2 C4_2 1_555 1_555
C5_2 C2_2 1_555 1_555
C18_2 C4_2 1_555 1_555
H12_2 C18_2 1_555 1_555
C19_2 C5_2 1_555 1_555
H13_2 C19_2 1_555 1_555
C18_2 C19_2 1_555 1_555
O10 C14_2 1_555 1_555
O14 C14_2 1_555 1_555
H3_2 C1_2 1_555 1_555
C7_2 C1_2 1_555 1_555
C14_2 C7_2 1_555 1_555
C23_2 C7_2 1_555 1_555
H17_2 C23_2 1_555 1_555
C24_2 C21_2 1_555 1_555
H18_2 C24_2 1_555 1_555
C23_2 C24_2 1_555 1_555

#END
