
###############################################################################
#
# This file contains modified crystal structure data generated from the
# MOF subset of the Cambridge Structural Database (CSD) v543 
# hosted by the Cambridge Crystallographic Data Centre (CCDC).
#
# This work is licensed under the Creative Commons
# Attribution-NonCommercial-ShareAlike 4.0 International License.
# To view a copy of this license, visit
# http://creativecommons.org/licenses/by-nc-sa/4.0/
# or send a letter to
# Creative Commons, PO Box 1866, Mountain View, CA 94042, USA.
#
# CIF created using the CSD Python API on 29 September 2022
# The structure has been converted into the P1 space group
# The structure has a 3D framework
# The original CSD entry WOQTUT is in the rhombohedral crystal system
# The framework has been calculated to contain at least 10.0% void space
# The void calculation uses a probe of radius 1.32A, grid spacing 0.4
#
###############################################################################

data_WOQTUT
_chemical_formula_moiety         '(C90 H90 Fe12 O66)n'
_symmetry_cell_setting           triclinic
_symmetry_space_group_name_H-M   'P 1'
_symmetry_Int_Tables_number      1
_space_group_name_Hall           'P 1'
loop_
_symmetry_equiv_pos_site_id
_symmetry_equiv_pos_as_xyz
1 x,y,z
_cell_length_a                   26.2736(8)
_cell_length_b                   26.2736(8)
_cell_length_c                   6.7213(2)
_cell_angle_alpha                90
_cell_angle_beta                 90
_cell_angle_gamma                120
_cell_volume                     4018.12
loop_
_atom_site_label
_atom_site_type_symbol
_atom_site_fract_x
_atom_site_fract_y
_atom_site_fract_z
C1 C 0.4218(2) 0.4083(2) 0.2533(7)
C2 C 0.46110(18) 0.45280(19) 0.1233(5)
C3 C 0.5573(2) 0.5422(3) 0.0698(6)
C4 C 0.5183(2) 0.4968(3) 0.1958(6)
H1 H 0.5291(7) 0.4955(9) 0.3329(16)
Fe1 Fe 0.61356(12) 0.64838(11) 0.3442(4)
O1 O 0.4391(3) 0.4046(3) 0.4259(7)
O2 O 0.37463(19) 0.3660(2) 0.1858(10)
O3 O 0.61027(16) 0.5867(3) 0.1447(9)
O4 O 0.5429(9) 0.6578(5) 0.197(2)
H2 H 0.5633(20) 0.6360(12) 0.192(19)
C5 C 0.4851(9) 0.6149(6) 0.222(2)
H3 H 0.460(4) 0.625(3) 0.129(9)
H4 H 0.4811(14) 0.5745(4) 0.181(14)
H5 H 0.474(5) 0.614(3) 0.372(6)
Fe4 Fe 0.68495(11) 0.63185(16) 0.0109(4)
Fe6 Fe 0.38644(12) 0.35162(11) 0.6558(4)
Fe8 Fe 0.29851(16) 0.28023(12) 0.3225(4)
O10 O 0.5609(3) 0.5954(3) 0.5741(7)
O13 O 0.67530(28) 0.70796(19) 0.1475(10)
O14 O 0.6993(2) 0.65804(28) 0.4809(10)
O15 O 0.64310(34) 0.72306(16) 0.4780(9)
C6 C 0.5782(2) 0.5917(2) 0.7467(7)
C7 C 0.53890(18) 0.54720(19) 0.8767(5)
C8 C 0.4427(2) 0.4578(3) 0.9302(6)
C9 C 0.4817(2) 0.5032(3) 0.8042(6)
H6 H 0.4709(7) 0.5045(9) 0.6671(16)
O6 O 0.62537(19) 0.6340(2) 0.8142(10)
O7 O 0.38973(16) 0.4133(3) 0.8553(9)
O8 O 0.4571(9) 0.3422(5) 0.803(2)
H7 H 0.4367(20) 0.3640(12) 0.808(19)
C10 C 0.5149(9) 0.3851(6) 0.778(2)
H8 H 0.540(4) 0.375(3) 0.871(9)
H9 H 0.5189(14) 0.4255(4) 0.819(14)
H10 H 0.526(5) 0.386(3) 0.628(6)
Fe5 Fe 0.70149(16) 0.71977(12) 0.6775(4)
Fe7 Fe 0.31505(11) 0.36815(16) 0.9891(4)
O11 O 0.32470(28) 0.29204(19) 0.8525(10)
O12 O 0.3007(2) 0.34196(28) 0.5191(10)
O16 O 0.35690(34) 0.27694(16) 0.5220(9)
O14_2 O 0.0327(2) 0.32470(28) 0.1475(10)
Fe4_2 Fe 0.01829(11) 0.29851(16) 0.6775(4)
Fe5_2 Fe 0.03482(16) 0.38644(12) 0.3442(4)
O13_2 O 0.00863(28) 0.37463(19) 0.8142(10)
Fe1_2 Fe 0.94689(12) 0.31505(11) 0.0109(4)
O1_2 O 0.7724(3) 0.0713(3) 0.0926(7)
H5_2 H 0.807(5) 0.281(3) 0.039(6)
Fe6_2 Fe 0.71977(12) 0.01829(11) 0.3225(4)
O10_2 O 0.8942(3) 0.2621(3) 0.2408(7)
O15_2 O 0.97643(34) 0.38973(16) 0.1447(9)
C1_2 C 0.7551(2) 0.0750(2) 0.9200(7)
C2_2 C 0.79443(18) 0.11947(19) 0.7900(5)
C3_2 C 0.8906(2) 0.2089(3) 0.7365(6)
C4_2 C 0.8516(2) 0.1635(3) 0.8625(6)
H1_2 H 0.8624(7) 0.1622(9) 0.9996(16)
O2_2 O 0.70796(19) 0.0327(2) 0.8525(10)
O3_2 O 0.94360(16) 0.2534(3) 0.8114(9)
O4_2 O 0.8762(9) 0.3245(5) 0.864(2)
H2_2 H 0.8966(20) 0.3027(12) 0.859(19)
C5_2 C 0.8184(9) 0.2816(6) 0.889(2)
H3_2 H 0.793(4) 0.292(3) 0.796(9)
H4_2 H 0.8144(14) 0.2412(4) 0.848(14)
C6_2 C 0.9115(2) 0.2584(2) 0.4134(7)
C7_2 C 0.87223(18) 0.21387(19) 0.5434(5)
C8_2 C 0.7760(2) 0.1245(3) 0.5969(6)
C9_2 C 0.8150(2) 0.1699(3) 0.4709(6)
H6_2 H 0.8042(7) 0.1712(9) 0.3338(16)
O6_2 O 0.95870(19) 0.3007(2) 0.4809(10)
O7_2 O 0.72306(16) 0.0800(3) 0.5220(9)
O8_2 O 0.7904(9) 0.0089(5) 0.470(2)
H7_2 H 0.7700(20) 0.0307(12) 0.475(19)
C10_2 C 0.8482(9) 0.0518(6) 0.445(2)
H8_2 H 0.873(4) 0.042(3) 0.538(9)
H9_2 H 0.8522(14) 0.0922(4) 0.486(14)
H10_2 H 0.859(5) 0.053(3) 0.295(6)
Fe7_2 Fe 0.64838(11) 0.03482(16) 0.6558(4)
O12_2 O 0.6340(2) 0.00863(28) 0.1858(10)
Fe8_2 Fe 0.63185(16) 0.94689(12) 0.9891(4)
O11_2 O 0.65804(28) 0.95870(19) 0.5191(10)
O16_2 O 0.69024(34) 0.94360(16) 0.1886(9)
Fe5_3 Fe 0.36815(16) 0.05311(12) 0.0109(4)
O13_3 O 0.34196(28) 0.04130(19) 0.4809(10)
O15_3 O 0.30976(34) 0.05640(16) 0.8114(9)
C1_3 C 0.0885(2) 0.7416(2) 0.5866(7)
C2_3 C 0.12777(18) 0.78613(19) 0.4566(5)
C3_3 C 0.2240(2) 0.8755(3) 0.4031(6)
C4_3 C 0.1850(2) 0.8301(3) 0.5291(6)
H1_3 H 0.1958(7) 0.8288(9) 0.6662(16)
Fe1_3 Fe 0.28023(12) 0.98171(11) 0.6775(4)
O1_3 O 0.1058(3) 0.7379(3) 0.7592(7)
O2_3 O 0.04130(19) 0.6993(2) 0.5191(10)
O3_3 O 0.27694(16) 0.9200(3) 0.4780(9)
O4_3 O 0.2096(9) 0.9911(5) 0.530(2)
H2_3 H 0.2300(20) 0.9693(12) 0.525(19)
C5_3 C 0.1518(9) 0.9482(6) 0.555(2)
H3_3 H 0.127(4) 0.958(3) 0.462(9)
H4_3 H 0.1478(14) 0.9078(4) 0.514(14)
H5_3 H 0.141(5) 0.947(3) 0.705(6)
C6_3 C 0.2449(2) 0.9250(2) 0.0800(7)
C7_3 C 0.20557(18) 0.88053(19) 0.2100(5)
C8_3 C 0.1094(2) 0.7911(3) 0.2635(6)
C9_3 C 0.1484(2) 0.8365(3) 0.1375(6)
H6_3 H 0.1376(7) 0.8378(9) 0.0004(16)
O6_3 O 0.29204(19) 0.9673(2) 0.1475(10)
O7_3 O 0.05640(16) 0.7466(3) 0.1886(9)
O8_3 O 0.1238(9) 0.6755(5) 0.136(2)
H7_3 H 0.1034(20) 0.6973(12) 0.141(19)
C10_3 C 0.1816(9) 0.7184(6) 0.111(2)
H8_3 H 0.207(4) 0.708(3) 0.204(9)
H9_3 H 0.1856(14) 0.7588(4) 0.152(14)
Fe4_3 Fe 0.35162(11) 0.96518(16) 0.3442(4)
Fe6_3 Fe 0.05311(12) 0.68495(11) 0.9891(4)
O10_3 O 0.2276(3) 0.9287(3) 0.9074(7)
O14_3 O 0.3660(2) 0.99137(28) 0.8142(10)
H10_3 H 0.193(5) 0.719(3) 0.961(6)
O16_3 O 0.02357(34) 0.61027(16) 0.8553(9)
Fe7_3 Fe 0.98171(11) 0.70149(16) 0.3225(4)
Fe8_3 Fe 0.96518(16) 0.61356(12) 0.6558(4)
O11_3 O 0.99137(28) 0.62537(19) 0.1858(10)
O12_3 O 0.9673(2) 0.67530(28) 0.8525(10)
C1_4 C 0.5917(2) 0.0135(3) 0.2533(7)
C2_4 C 0.54720(19) 0.00830(26) 0.1233(5)
C3_4 C 0.4578(3) 0.0151(4) 0.0698(6)
C4_4 C 0.5032(3) 0.0215(4) 0.1958(6)
H1_4 H 0.5045(9) 0.0336(11) 0.3329(16)
O1_4 O 0.5954(3) 0.0345(4) 0.4259(7)
O3_4 O 0.4133(3) 0.02357(34) 0.1447(9)
O8_4 O 0.6578(5) 0.1149(10) 0.803(2)
H7_4 H 0.6360(12) 0.0727(23) 0.808(19)
C10_4 C 0.6149(6) 0.1298(11) 0.778(2)
H8_4 H 0.625(3) 0.165(5) 0.871(9)
H9_4 H 0.5745(4) 0.0934(15) 0.819(14)
H10_4 H 0.614(3) 0.140(6) 0.628(6)
O4_4 O 0.3422(5) 0.8851(10) 0.197(2)
H2_4 H 0.3640(12) 0.9273(23) 0.192(19)
C5_4 C 0.3851(6) 0.8702(11) 0.222(2)
H3_4 H 0.375(3) 0.835(5) 0.129(9)
H4_4 H 0.4255(4) 0.9066(15) 0.181(14)
H5_4 H 0.386(3) 0.860(6) 0.372(6)
O10_4 O 0.4046(3) 0.9655(4) 0.5741(7)
C6_4 C 0.4083(2) 0.9865(3) 0.7467(7)
C7_4 C 0.45280(19) 0.99170(26) 0.8767(5)
C8_4 C 0.5422(3) 0.9849(4) 0.9302(6)
C9_4 C 0.4968(3) 0.9785(4) 0.8042(6)
H6_4 H 0.4955(9) 0.9664(11) 0.6671(16)
O7_4 O 0.5867(3) 0.97643(34) 0.8553(9)
O4_5 O 0.1149(10) 0.4571(9) 0.197(2)
H2_5 H 0.0727(23) 0.4367(20) 0.192(19)
C5_5 C 0.1298(11) 0.5149(9) 0.222(2)
H3_5 H 0.165(5) 0.540(4) 0.129(9)
H4_5 H 0.0934(15) 0.5189(14) 0.181(14)
H5_5 H 0.140(6) 0.526(5) 0.372(6)
O10_5 O 0.0345(4) 0.4391(3) 0.5741(7)
O15_4 O 0.07997(38) 0.35690(34) 0.4780(9)
C6_5 C 0.0135(3) 0.4218(2) 0.7467(7)
C7_5 C 0.00830(26) 0.46110(18) 0.8767(5)
C8_5 C 0.0151(4) 0.5573(2) 0.9302(6)
C9_5 C 0.0215(4) 0.5183(2) 0.8042(6)
H6_5 H 0.0336(11) 0.5291(7) 0.6671(16)
C1_5 C 0.9865(3) 0.5782(2) 0.2533(7)
C2_5 C 0.99170(26) 0.53890(18) 0.1233(5)
C3_5 C 0.9849(4) 0.4427(2) 0.0698(6)
C4_5 C 0.9785(4) 0.4817(2) 0.1958(6)
H1_5 H 0.9664(11) 0.4709(7) 0.3329(16)
O1_5 O 0.9655(4) 0.5609(3) 0.4259(7)
O8_5 O 0.8851(10) 0.5429(9) 0.803(2)
H7_5 H 0.9273(23) 0.5633(20) 0.808(19)
C10_5 C 0.8702(11) 0.4851(9) 0.778(2)
H8_5 H 0.835(5) 0.460(4) 0.871(9)
H9_5 H 0.9066(15) 0.4811(14) 0.819(14)
H10_5 H 0.860(6) 0.474(5) 0.628(6)
O16_4 O 0.92003(38) 0.64310(34) 0.5220(9)
O1_6 O 0.9287(3) 0.7012(4) 0.0926(7)
H5_6 H 0.719(3) 0.527(6) 0.039(6)
O10_6 O 0.7379(3) 0.6322(4) 0.2408(7)
C1_6 C 0.9250(2) 0.6802(3) 0.9200(7)
C2_6 C 0.88053(19) 0.67497(26) 0.7900(5)
C3_6 C 0.7911(3) 0.6818(4) 0.7365(6)
C4_6 C 0.8365(3) 0.6882(4) 0.8625(6)
H1_6 H 0.8378(9) 0.7003(11) 0.9996(16)
O3_5 O 0.7466(3) 0.69024(34) 0.8114(9)
O4_6 O 0.6755(5) 0.5518(10) 0.864(2)
H2_6 H 0.6973(12) 0.5940(23) 0.859(19)
C5_6 C 0.7184(6) 0.5369(11) 0.889(2)
H3_6 H 0.708(3) 0.502(5) 0.796(9)
H4_6 H 0.7588(4) 0.5733(15) 0.848(14)
C6_6 C 0.7416(2) 0.6532(3) 0.4134(7)
C7_6 C 0.78613(19) 0.65837(26) 0.5434(5)
C8_6 C 0.8755(3) 0.6516(4) 0.5969(6)
C9_6 C 0.8301(3) 0.6452(4) 0.4709(6)
H6_6 H 0.8288(9) 0.6331(11) 0.3338(16)
O8_6 O 0.9911(5) 0.7816(10) 0.470(2)
H7_6 H 0.9693(12) 0.7394(23) 0.475(19)
C10_6 C 0.9482(6) 0.7965(11) 0.445(2)
H8_6 H 0.958(3) 0.832(5) 0.538(9)
H9_6 H 0.9078(4) 0.7601(15) 0.486(14)
H10_6 H 0.947(3) 0.807(6) 0.295(6)
O1_7 O 0.2988(4) 0.2276(3) 0.0926(7)
H5_7 H 0.473(6) 0.193(5) 0.039(6)
O10_7 O 0.3678(4) 0.1058(3) 0.2408(7)
C1_7 C 0.3198(3) 0.2449(2) 0.9200(7)
C2_7 C 0.32503(26) 0.20557(18) 0.7900(5)
C3_7 C 0.3182(4) 0.1094(2) 0.7365(6)
C4_7 C 0.3118(4) 0.1484(2) 0.8625(6)
H1_7 H 0.2997(11) 0.1376(7) 0.9996(16)
O4_7 O 0.4482(10) 0.1238(9) 0.864(2)
H2_7 H 0.4060(23) 0.1034(20) 0.859(19)
C5_7 C 0.4631(11) 0.1816(9) 0.889(2)
H3_7 H 0.498(5) 0.207(4) 0.796(9)
H4_7 H 0.4267(15) 0.1856(14) 0.848(14)
C6_7 C 0.3468(3) 0.0885(2) 0.4134(7)
C7_7 C 0.34163(26) 0.12777(18) 0.5434(5)
C8_7 C 0.3484(4) 0.2240(2) 0.5969(6)
C9_7 C 0.3548(4) 0.1850(2) 0.4709(6)
H6_7 H 0.3669(11) 0.1958(7) 0.3338(16)
O8_7 O 0.2184(10) 0.2096(9) 0.470(2)
H7_7 H 0.2606(23) 0.2300(20) 0.475(19)
C10_7 C 0.2035(11) 0.1518(9) 0.445(2)
H8_7 H 0.168(5) 0.127(4) 0.538(9)
H9_7 H 0.2399(15) 0.1478(14) 0.486(14)
H10_7 H 0.193(6) 0.141(5) 0.295(6)
O16_5 O 0.25337(38) 0.30976(34) 0.1886(9)
C1_8 C 0.2584(2) 0.3468(3) 0.5866(7)
C2_8 C 0.21387(19) 0.34163(26) 0.4566(5)
C3_8 C 0.1245(3) 0.3484(4) 0.4031(6)
C4_8 C 0.1699(3) 0.3548(4) 0.5291(6)
H1_8 H 0.1712(9) 0.3669(11) 0.6662(16)
O1_8 O 0.2621(3) 0.3678(4) 0.7592(7)
O4_8 O 0.0089(5) 0.2184(10) 0.530(2)
H2_8 H 0.0307(12) 0.2606(23) 0.525(19)
C5_8 C 0.0518(6) 0.2035(11) 0.555(2)
H3_8 H 0.042(3) 0.168(5) 0.462(9)
H4_8 H 0.0922(4) 0.2399(15) 0.514(14)
H5_8 H 0.053(3) 0.193(6) 0.705(6)
C6_8 C 0.0750(2) 0.3198(3) 0.0800(7)
C7_8 C 0.11947(19) 0.32503(26) 0.2100(5)
C8_8 C 0.2089(3) 0.3182(4) 0.2635(6)
C9_8 C 0.1635(3) 0.3118(4) 0.1375(6)
H6_8 H 0.1622(9) 0.2997(11) 0.0004(16)
O8_8 O 0.3245(5) 0.4482(10) 0.136(2)
H7_8 H 0.3027(12) 0.4060(23) 0.141(19)
C10_8 C 0.2816(6) 0.4631(11) 0.111(2)
H8_8 H 0.292(3) 0.498(5) 0.204(9)
H9_8 H 0.2412(4) 0.4267(15) 0.152(14)
O10_8 O 0.0713(3) 0.2988(4) 0.9074(7)
H10_8 H 0.281(3) 0.473(6) 0.961(6)
C1_9 C 0.6532(3) 0.9115(2) 0.5866(7)
C2_9 C 0.65837(26) 0.87223(18) 0.4566(5)
C3_9 C 0.6516(4) 0.7760(2) 0.4031(6)
C4_9 C 0.6452(4) 0.8150(2) 0.5291(6)
H1_9 H 0.6331(11) 0.8042(7) 0.6662(16)
O1_9 O 0.6322(4) 0.8942(3) 0.7592(7)
O4_9 O 0.7816(10) 0.7904(9) 0.530(2)
H2_9 H 0.7394(23) 0.7700(20) 0.525(19)
C5_9 C 0.7965(11) 0.8482(9) 0.555(2)
H3_9 H 0.832(5) 0.873(4) 0.462(9)
H4_9 H 0.7601(15) 0.8522(14) 0.514(14)
H5_9 H 0.807(6) 0.859(5) 0.705(6)
C6_9 C 0.6802(3) 0.7551(2) 0.0800(7)
C7_9 C 0.67497(26) 0.79443(18) 0.2100(5)
C8_9 C 0.6818(4) 0.8906(2) 0.2635(6)
C9_9 C 0.6882(4) 0.8516(2) 0.1375(6)
H6_9 H 0.7003(11) 0.8624(7) 0.0004(16)
O8_9 O 0.5518(10) 0.8762(9) 0.136(2)
H7_9 H 0.5940(23) 0.8966(20) 0.141(19)
C10_9 C 0.5369(11) 0.8184(9) 0.111(2)
H8_9 H 0.502(5) 0.793(4) 0.204(9)
H9_9 H 0.5733(15) 0.8144(14) 0.152(14)
O10_9 O 0.7012(4) 0.7724(3) 0.9074(7)
H10_9 H 0.527(6) 0.807(5) 0.961(6)
loop_
_geom_bond_atom_site_label_1
_geom_bond_atom_site_label_2
_geom_bond_site_symmetry_1
_geom_bond_site_symmetry_2
C1 C2 1_555 1_555
C2 C4 1_555 1_555
C3 C4 1_555 1_555
C4 H1 1_555 1_555
Fe1 O3 1_555 1_555
O1 C1 1_555 1_555
O2 C1 1_555 1_555
O3 C3 1_555 1_555
O4 Fe1 1_555 1_555
H2 O4 1_555 1_555
C5 O4 1_555 1_555
H3 C5 1_555 1_555
H4 C5 1_555 1_555
H5 C5 1_555 1_555
Fe4 O3 1_555 1_555
Fe6 O1 1_555 1_555
Fe8 O2 1_555 1_555
O10 Fe1 1_555 1_555
O13 Fe1 1_555 1_555
O14 Fe1 1_555 1_555
O15 Fe1 1_555 1_555
Fe4 O13 1_555 1_555
C6 C7 1_555 1_555
C9 C7 1_555 1_555
H6 C9 1_555 1_555
O10 C6 1_555 1_555
O6 C6 1_555 1_555
O7 C8 1_555 1_555
Fe6 O7 1_555 1_555
O8 Fe6 1_555 1_555
H7 O8 1_555 1_555
C10 O8 1_555 1_555
H8 C10 1_555 1_555
H9 C10 1_555 1_555
H10 C10 1_555 1_555
Fe5 O6 1_555 1_555
O11 Fe6 1_555 1_555
O12 Fe6 1_555 1_555
O16 Fe6 1_555 1_555
C8 C9 1_555 1_555
O7 Fe7 1_555 1_555
Fe7 O11 1_555 1_555
Fe4_2 O13_2 1_555 1_555
Fe6_2 O1_2 1_555 1_555
O10_2 Fe1_2 1_555 1_555
O15_2 Fe1_2 1_555 1_555
C1_2 C2_2 1_555 1_555
C2_2 C4_2 1_555 1_555
C3_2 C4_2 1_555 1_555
C4_2 H1_2 1_555 1_555
O2_2 C1_2 1_555 1_555
O3_2 C3_2 1_555 1_555
H2_2 O4_2 1_555 1_555
C5_2 O4_2 1_555 1_555
H3_2 C5_2 1_555 1_555
H4_2 C5_2 1_555 1_555
C6_2 C7_2 1_555 1_555
C7_2 C3_2 1_555 1_555
C8_2 C2_2 1_555 1_555
C9_2 C7_2 1_555 1_555
H6_2 C9_2 1_555 1_555
O10_2 C6_2 1_555 1_555
O6_2 C6_2 1_555 1_555
O7_2 C8_2 1_555 1_555
Fe6_2 O7_2 1_555 1_555
O8_2 Fe6_2 1_555 1_555
H7_2 O8_2 1_555 1_555
C10_2 O8_2 1_555 1_555
H8_2 C10_2 1_555 1_555
H9_2 C10_2 1_555 1_555
H10_2 C10_2 1_555 1_555
Fe7_2 O2_2 1_555 1_555
O12_2 Fe6_2 1_555 1_555
C8_2 C9_2 1_555 1_555
O7_2 Fe7_2 1_555 1_555
C1_3 C2_3 1_555 1_555
C2_3 C4_3 1_555 1_555
C3_3 C4_3 1_555 1_555
C4_3 H1_3 1_555 1_555
Fe1_3 O3_3 1_555 1_555
O1_3 C1_3 1_555 1_555
O2_3 C1_3 1_555 1_555
O3_3 C3_3 1_555 1_555
O4_3 Fe1_3 1_555 1_555
H2_3 O4_3 1_555 1_555
C5_3 O4_3 1_555 1_555
H3_3 C5_3 1_555 1_555
H4_3 C5_3 1_555 1_555
H5_3 C5_3 1_555 1_555
C6_3 C7_3 1_555 1_555
C7_3 C3_3 1_555 1_555
C8_3 C2_3 1_555 1_555
C9_3 C7_3 1_555 1_555
H6_3 C9_3 1_555 1_555
O6_3 C6_3 1_555 1_555
O7_3 C8_3 1_555 1_555
H7_3 O8_3 1_555 1_555
C10_3 O8_3 1_555 1_555
H8_3 C10_3 1_555 1_555
H9_3 C10_3 1_555 1_555
Fe4_3 O3_3 1_555 1_555
Fe6_3 O1_3 1_555 1_555
O10_3 Fe1_3 1_555 1_555
O14_3 Fe1_3 1_555 1_555
C8_3 C9_3 1_555 1_555
O6_3 Fe4_3 1_555 1_555
O16_3 Fe6_3 1_555 1_555
Fe7_3 O11_3 1_555 1_555
C1_4 C2_4 1_555 1_555
C2_4 C4_4 1_555 1_555
C3_4 C4_4 1_555 1_555
C4_4 H1_4 1_555 1_555
O1_4 C1_4 1_555 1_555
O12_2 C1_4 1_555 1_555
O3_4 C3_4 1_555 1_555
Fe5_3 O3_4 1_555 1_555
Fe7_2 O1_4 1_555 1_555
O8_4 Fe7_2 1_555 1_555
H7_4 O8_4 1_555 1_555
C10_4 O8_4 1_555 1_555
H8_4 C10_4 1_555 1_555
H9_4 C10_4 1_555 1_555
H10_4 C10_4 1_555 1_555
O4_4 Fe4_3 1_555 1_555
H2_4 O4_4 1_555 1_555
C5_4 O4_4 1_555 1_555
H3_4 C5_4 1_555 1_555
H4_4 C5_4 1_555 1_555
H5_4 C5_4 1_555 1_555
O10_4 Fe4_3 1_555 1_555
C6_4 C7_4 1_555 1_555
C9_4 C7_4 1_555 1_555
H6_4 C9_4 1_555 1_555
O10_4 C6_4 1_555 1_555
O14_3 C6_4 1_555 1_555
O7_4 C8_4 1_555 1_555
C8_4 C9_4 1_555 1_555
O7_4 Fe8_2 1_555 1_555
O4_5 Fe5_2 1_555 1_555
H2_5 O4_5 1_555 1_555
C5_5 O4_5 1_555 1_555
H3_5 C5_5 1_555 1_555
H4_5 C5_5 1_555 1_555
H5_5 C5_5 1_555 1_555
O10_5 Fe5_2 1_555 1_555
O14_2 Fe5_2 1_555 1_555
O15_4 Fe5_2 1_555 1_555
C6_5 C7_5 1_555 1_555
C9_5 C7_5 1_555 1_555
H6_5 C9_5 1_555 1_555
O10_5 C6_5 1_555 1_555
O13_2 C6_5 1_555 1_555
O16_3 C8_5 1_555 1_555
C8_5 C9_5 1_555 1_555
C1_5 C2_5 1_555 1_555
C2_5 C4_5 1_555 1_555
C3_5 C4_5 1_555 1_555
C4_5 H1_5 1_555 1_555
O1_5 C1_5 1_555 1_555
O11_3 C1_5 1_555 1_555
O15_2 C3_5 1_555 1_555
Fe8_3 O1_5 1_555 1_555
O8_5 Fe8_3 1_555 1_555
H7_5 O8_5 1_555 1_555
C10_5 O8_5 1_555 1_555
H8_5 C10_5 1_555 1_555
H9_5 C10_5 1_555 1_555
H10_5 C10_5 1_555 1_555
O12_3 Fe8_3 1_555 1_555
O16_4 Fe8_3 1_555 1_555
Fe7_3 O1_6 1_555 1_555
O10_6 Fe4 1_555 1_555
C1_6 C2_6 1_555 1_555
C2_6 C4_6 1_555 1_555
C3_6 C4_6 1_555 1_555
C4_6 H1_6 1_555 1_555
O12_3 C1_6 1_555 1_555
O3_5 C3_6 1_555 1_555
H2_6 O4_6 1_555 1_555
C5_6 O4_6 1_555 1_555
H3_6 C5_6 1_555 1_555
H4_6 C5_6 1_555 1_555
C6_6 C7_6 1_555 1_555
C7_6 C3_6 1_555 1_555
C8_6 C2_6 1_555 1_555
C9_6 C7_6 1_555 1_555
H6_6 C9_6 1_555 1_555
O10_6 C6_6 1_555 1_555
O14 C6_6 1_555 1_555
O16_4 C8_6 1_555 1_555
Fe7_3 O16_4 1_555 1_555
O8_6 Fe7_3 1_555 1_555
H7_6 O8_6 1_555 1_555
C10_6 O8_6 1_555 1_555
H8_6 C10_6 1_555 1_555
H9_6 C10_6 1_555 1_555
H10_6 C10_6 1_555 1_555
Fe5 O3_5 1_555 1_555
C8_6 C9_6 1_555 1_555
O14 Fe5 1_555 1_555
Fe8 O1_7 1_555 1_555
O10_7 Fe5_3 1_555 1_555
C1_7 C2_7 1_555 1_555
C2_7 C4_7 1_555 1_555
C3_7 C4_7 1_555 1_555
C4_7 H1_7 1_555 1_555
O11 C1_7 1_555 1_555
O15_3 C3_7 1_555 1_555
H2_7 O4_7 1_555 1_555
C5_7 O4_7 1_555 1_555
H3_7 C5_7 1_555 1_555
H4_7 C5_7 1_555 1_555
C6_7 C7_7 1_555 1_555
C7_7 C3_7 1_555 1_555
C8_7 C2_7 1_555 1_555
C9_7 C7_7 1_555 1_555
H6_7 C9_7 1_555 1_555
O10_7 C6_7 1_555 1_555
O13_3 C6_7 1_555 1_555
O16 C8_7 1_555 1_555
Fe8 O16 1_555 1_555
O8_7 Fe8 1_555 1_555
H7_7 O8_7 1_555 1_555
C10_7 O8_7 1_555 1_555
H8_7 C10_7 1_555 1_555
H9_7 C10_7 1_555 1_555
H10_7 C10_7 1_555 1_555
O12 Fe8 1_555 1_555
O16_5 Fe8 1_555 1_555
C8_7 C9_7 1_555 1_555
C1_8 C2_8 1_555 1_555
C2_8 C4_8 1_555 1_555
C3_8 C4_8 1_555 1_555
C4_8 H1_8 1_555 1_555
Fe4_2 O15_4 1_555 1_555
O1_8 C1_8 1_555 1_555
O12 C1_8 1_555 1_555
O15_4 C3_8 1_555 1_555
O4_8 Fe4_2 1_555 1_555
H2_8 O4_8 1_555 1_555
C5_8 O4_8 1_555 1_555
H3_8 C5_8 1_555 1_555
H4_8 C5_8 1_555 1_555
H5_8 C5_8 1_555 1_555
C6_8 C7_8 1_555 1_555
C7_8 C3_8 1_555 1_555
C8_8 C2_8 1_555 1_555
C9_8 C7_8 1_555 1_555
H6_8 C9_8 1_555 1_555
O14_2 C6_8 1_555 1_555
O16_5 C8_8 1_555 1_555
H7_8 O8_8 1_555 1_555
C10_8 O8_8 1_555 1_555
H8_8 C10_8 1_555 1_555
H9_8 C10_8 1_555 1_555
Fe7 O1_8 1_555 1_555
O10_8 Fe4_2 1_555 1_555
C8_8 C9_8 1_555 1_555
C1_9 C2_9 1_555 1_555
C2_9 C4_9 1_555 1_555
C3_9 C4_9 1_555 1_555
C4_9 H1_9 1_555 1_555
Fe5 O15 1_555 1_555
O1_9 C1_9 1_555 1_555
O11_2 C1_9 1_555 1_555
O15 C3_9 1_555 1_555
O4_9 Fe5 1_555 1_555
H2_9 O4_9 1_555 1_555
C5_9 O4_9 1_555 1_555
H3_9 C5_9 1_555 1_555
H4_9 C5_9 1_555 1_555
H5_9 C5_9 1_555 1_555
C6_9 C7_9 1_555 1_555
C7_9 C3_9 1_555 1_555
C8_9 C2_9 1_555 1_555
C9_9 C7_9 1_555 1_555
H6_9 C9_9 1_555 1_555
O13 C6_9 1_555 1_555
O16_2 C8_9 1_555 1_555
H7_9 O8_9 1_555 1_555
C10_9 O8_9 1_555 1_555
H8_9 C10_9 1_555 1_555
H9_9 C10_9 1_555 1_555
Fe8_2 O1_9 1_555 1_555
O10_9 Fe5 1_555 1_555
C8_9 C9_9 1_555 1_555

#END
