
###############################################################################
#
# This file contains modified crystal structure data generated from the
# MOF subset of the Cambridge Structural Database (CSD) v543 
# hosted by the Cambridge Crystallographic Data Centre (CCDC).
#
# This work is licensed under the Creative Commons
# Attribution-NonCommercial-ShareAlike 4.0 International License.
# To view a copy of this license, visit
# http://creativecommons.org/licenses/by-nc-sa/4.0/
# or send a letter to
# Creative Commons, PO Box 1866, Mountain View, CA 94042, USA.
#
# CIF created using the CSD Python API on 29 September 2022
# The structure has been converted into the P1 space group
# The structure has a 3D framework
# The original CSD entry WORKUL is in the triclinic crystal system
# The framework has been calculated to contain at least 10.0% void space
# The void calculation uses a probe of radius 1.32A, grid spacing 0.4
# H atom positions have been added when not included in the experimental data
#
###############################################################################

data_WORKUL
_chemical_formula_moiety         '(C144 H88 O60 Zn10)n'
_symmetry_cell_setting           triclinic
_symmetry_space_group_name_H-M   'P 1'
_symmetry_Int_Tables_number      1
_space_group_name_Hall           'P 1'
loop_
_symmetry_equiv_pos_site_id
_symmetry_equiv_pos_as_xyz
1 x,y,z
_cell_length_a                   19.278(4)
_cell_length_b                   19.593(4)
_cell_length_c                   20.046(4)
_cell_angle_alpha                70.65(3)
_cell_angle_beta                 70.05(3)
_cell_angle_gamma                69.86(3)
_cell_volume                     6482.93
loop_
_atom_site_label
_atom_site_type_symbol
_atom_site_fract_x
_atom_site_fract_y
_atom_site_fract_z
Zn1 Zn 0.18755(6) 0.54172(5) 0.07652(6)
Zn2 Zn 0.20700(5) 0.39467(5) 0.20803(5)
Zn3 Zn 0.05795(6) 0.53071(5) 0.22475(6)
Zn4 Zn 0.21662(5) 0.54682(5) 0.22407(4)
O1 O 0.1689(3) 0.5037(3) 0.1837(3)
O3 O 0.1269(4) 0.3429(3) 0.2628(3)
O4 O 0.0235(4) 0.4419(4) 0.2617(4)
C1 C 0.0078(4) 0.1893(3) 0.3726(4)
H1 H 0.0328 0.1376 0.3763
C2 C 0.0452(3) 0.2431(4) 0.3247(4)
H2 H 0.0957 0.2282 0.2957
C3 C 0.0087(4) 0.3187(4) 0.3193(4)
C11 C 0.0545(6) 0.3725(5) 0.2783(4)
O7 O 0.2865(3) 0.6039(3) 0.1518(3)
O8 O 0.2603(4) 0.6000(4) 0.0506(3)
C13 C 0.4427(7) 0.7282(7) 0.0243(4)
H7 H 0.4722 0.7402 0.0462
C14 C 0.3935(6) 0.6850(6) 0.0662(5)
H8 H 0.3903 0.6658 0.1171
C15 C 0.3466(5) 0.6683(5) 0.0347(4)
C23 C 0.2934(6) 0.6221(5) 0.0815(5)
O11 O 0.1442(4) 0.6131(4) 0.2861(3)
O12 O 0.0396(5) 0.5882(9) 0.2890(8)
C25 C 0.0207(6) 0.7455(6) 0.4347(6)
H13 H 0.0459 0.7628 0.4567
C26 C 0.0639(6) 0.7045(6) 0.3859(6)
H14 H 0.1178 0.6966 0.3711
C27 C 0.0277(5) 0.6730(6) 0.3567(5)
C35 C 0.0753(9) 0.6241(7) 0.3050(6)
O15 O 0.2468(5) 0.4577(4) 0.0347(3)
O16 O 0.2581(3) 0.3532(3) 0.1239(3)
C39 C 0.3111(6) 0.3420(5) 0.0025(4)
C40 C 0.3316(5) 0.2652(5) 0.0250(4)
H21 H 0.3153 0.2417 0.0753
H24 H 0.3819 0.1167 0.0456
C47 C 0.2700(5) 0.3876(5) 0.0593(5)
O19 O 0.2750(3) 0.4695(3) 0.2890(3)
O20 O 0.2778(3) 0.3623(3) 0.2684(3)
O21 O 0.5663(4) 0.1408(3) 0.6010(3)
O22 O 0.5655(3) 0.0357(3) 0.5786(3)
C49 C 0.3967(8) 0.3481(6) 0.4476(6)
H25 H 0.4041 0.3723 0.4777
C50 C 0.3547(8) 0.3904(5) 0.3976(6)
H26 H 0.3335 0.4427 0.3934
C51 C 0.3432(5) 0.3546(4) 0.3518(4)
C52 C 0.3744(5) 0.2784(5) 0.3606(4)
H27 H 0.366 0.2538 0.3315
C53 C 0.4172(4) 0.2368(4) 0.4097(4)
C54 C 0.4285(5) 0.2720(4) 0.4558(4)
C55 C 0.4726(5) 0.2284(5) 0.5058(4)
H28 H 0.4822 0.252 0.535
C56 C 0.5022(5) 0.1524(4) 0.5134(4)
C57 C 0.4918(5) 0.1181(4) 0.4695(4)
H29 H 0.5121 0.0655 0.4751
C58 C 0.4531(6) 0.1585(5) 0.4182(5)
H30 H 0.4496 0.1338 0.3864
C59 C 0.2961(5) 0.3982(5) 0.2991(4)
C60 C 0.5488(5) 0.1075(5) 0.5688(4)
O24 O 0.0952(6) 0.6236(7) 0.0691(6)
C71 C 0.0268(9) 0.6288(8) 0.0986(9)
O29 O 0.0924(13) 0.4970(11) 0.0665(12)
Zn10 Zn 0.63617(7) 0.11752(5) 0.66458(6)
H39 H 0.0416677 0.520123 0.0958054
H40 H 0.091518 0.510519 0.0144223
O9 O 0.6016(3) 0.8814(3) 0.8122(3)
O10 O 0.5583(3) 0.9013(3) 0.7162(3)
C16 C 0.3550(5) 0.6918(5) 0.9615(4)
H9 H 0.3265 0.677 0.9409
C17 C 0.4021(5) 0.7357(5) 0.9160(4)
C18 C 0.4497(5) 0.7552(5) 0.9473(4)
C19 C 0.4986(5) 0.7996(5) 0.9012(4)
H10 H 0.5289 0.8125 0.9215
C20 C 0.5044(4) 0.8252(4) 0.8285(4)
C21 C 0.4587(5) 0.8070(5) 0.7969(4)
H11 H 0.462 0.8248 0.746
C22 C 0.4111(6) 0.7644(5) 0.8406(5)
H12 H 0.3814 0.7528 0.8186
C24 C 0.5585(4) 0.8733(4) 0.7811(4)
O17 O 0.5477(6) 0.1237(5) 0.7546(3)
O18 O 0.5664(3) 0.0267(3) 0.8501(3)
C37 C 0.3821(10) 0.3377(6) 0.8782(6)
H19 H 0.4007 0.3625 0.8288
C38 C 0.3376(9) 0.3770(6) 0.9271(5)
H20 H 0.3229 0.4301 0.9115
C41 C 0.3758(5) 0.2214(5) 0.9755(4)
C42 C 0.4016(6) 0.2576(5) 0.9003(5)
C43 C 0.4498(8) 0.2142(6) 0.8507(5)
H22 H 0.4643 0.2381 0.8003
C44 C 0.4764(6) 0.1386(6) 0.8729(5)
C45 C 0.4487(5) 0.1026(5) 0.9471(5)
H23 H 0.4648 0.0495 0.9625
C46 C 0.4000(5) 0.1423(4) 0.9965(5)
C48 C 0.5338(7) 0.0934(6) 0.8220(5)
C64 C 0.0025(7) 0.7174(7) 0.9808(7)
H33 H 0.0563 0.7085 0.9615
H36 H 0.0371 0.7858 0.8387
O30 O 0.1963(10) 0.5970(8) 0.9522(8)
Zn15 Zn 0.62542(5) 0.96252(5) 0.64227(4)
Zn18 Zn 0.64438(5) 0.96572(5) 0.78882(4)
H43 H 0.196029 0.650314 0.941566
H44 H 0.244522 0.570065 0.92271
O2 O 0.6702(3) 0.0052(2) 0.6852(2)
O5 O 0.8278(5) 0.0495(7) 0.5787(5)
O6 O 0.7188(7) 0.1441(9) 0.5816(9)
C4 C 0.9348(4) 0.3406(3) 0.3618(5)
H3 H 0.9098 0.3923 0.3581
C5 C 0.8974(3) 0.2868(3) 0.4097(4)
C6 C 0.9339(4) 0.2111(3) 0.4150(3)
C7 C 0.8965(5) 0.1573(4) 0.4629(4)
H4 H 0.9215 0.1056 0.4666
C8 C 0.8226(5) 0.1792(6) 0.5054(5)
C9 C 0.7861(5) 0.2548(6) 0.5000(6)
H5 H 0.7356 0.2698 0.529
C10 C 0.8235(4) 0.3086(5) 0.4521(6)
H6 H 0.7985 0.3604 0.4485
C12 C 0.7872(10) 0.1181(8) 0.5587(7)
O13 O 0.8070(4) 0.8945(5) 0.6019(4)
O14 O 0.7000(4) 0.8964(3) 0.5818(3)
C28 C 0.9534(7) 0.6888(7) 0.3737(6)
H15 H 0.9306 0.6691 0.3516
C29 C 0.9036(6) 0.7345(6) 0.4241(6)
C30 C 0.9414(5) 0.7641(6) 0.4549(5)
C31 C 0.8952(5) 0.8086(6) 0.5018(5)
H16 H 0.9189 0.8299 0.5215
C32 C 0.8178(5) 0.8243(5) 0.5220(4)
C33 C 0.7803(5) 0.7969(6) 0.4887(6)
H17 H 0.7262 0.8113 0.4979
C34 C 0.8223(6) 0.7521(6) 0.4457(6)
H18 H 0.7974 0.7302 0.428
C36 C 0.7707(6) 0.8772(5) 0.5709(5)
O23 O 0.9963(4) 0.5967(4) 0.1607(4)
C61 C 0.8445(7) 0.7496(7) 0.0406(5)
H31 H 0.7915 0.7626 0.0641
C62 C 0.8938(7) 0.6996(9) 0.0794(8)
H32 H 0.873 0.6759 0.1285
C63 C 0.9716(8) 0.6808(9) 0.0529(7)
O27 O 0.7128(8) 0.1011(4) 0.7365(7)
O28 O 0.6073(10) 0.2341(5) 0.6580(9)
Zn12 Zn 0.77950(5) 0.97259(6) 0.65219(5)
H37 H 0.654323 0.249315 0.649433
H38 H 0.583056 0.2627 0.616952
H41 H 0.766024 0.0753333 0.71432
H42 H 0.711558 0.150649 0.740645
O25 O 0.7291(3) 0.9191(3) 0.8316(3)
O26 O 0.8301(3) 0.9211(3) 0.7308(3)
C65 C 0.9519(6) 0.7686(7) 0.9365(5)
C66 C 0.8706(6) 0.7832(7) 0.9647(5)
C67 C 0.8269(6) 0.8265(6) 0.9193(5)
H34 H 0.773 0.8377 0.9388
C68 C 0.8544(5) 0.8558(5) 0.8470(5)
C69 C 0.9373(6) 0.8408(6) 0.8154(5)
H35 H 0.9577 0.8615 0.7652
C70 C 0.9833(7) 0.7977(8) 0.8587(8)
C72 C 0.8028(5) 0.9027(5) 0.8001(4)
Zn6 Zn 0.22050(5) 0.02741(6) 0.34781(5)
Zn7 Zn 0.37458(5) 0.03748(5) 0.35773(4)
Zn8 Zn 0.35562(5) 0.03428(5) 0.21118(4)
O31 O 0.3984(3) 0.1186(3) 0.1878(3)
O32 O 0.4417(3) 0.0987(3) 0.2838(3)
O33 O 0.1930(4) 0.1055(5) 0.3981(4)
O34 O 0.3000(4) 0.1036(3) 0.4182(3)
O39 O 0.2709(3) 0.0809(3) 0.1684(3)
O40 O 0.1699(3) 0.0789(3) 0.2692(3)
C65_2 C 0.0481(6) 0.2314(7) 0.0635(5)
C66_2 C 0.1294(6) 0.2168(7) 0.0353(5)
C67_2 C 0.1731(6) 0.1735(6) 0.0807(5)
H34_2 H 0.227 0.1623 0.0612
C68_2 C 0.1456(5) 0.1442(5) 0.1530(5)
C69_2 C 0.0627(6) 0.1592(6) 0.1846(5)
H35_2 H 0.0423 0.1385 0.2348
C70_2 C 0.0167(7) 0.2023(8) 0.1413(8)
C72_2 C 0.1972(5) 0.0973(5) 0.1999(4)
Zn5 Zn 0.36383(7) 0.88248(5) 0.33542(6)
O2_2 O 0.3298(3) 0.9948(2) 0.3148(2)
O5_2 O 0.1722(5) 0.9505(7) 0.4213(5)
O6_2 O 0.2812(7) 0.8559(9) 0.4184(9)
C4_2 C 0.0652(4) 0.6594(3) 0.6382(5)
H3_2 H 0.0902 0.6077 0.6419
C5_2 C 0.1026(3) 0.7132(3) 0.5903(4)
C6_2 C 0.0661(4) 0.7889(3) 0.5850(3)
C7_2 C 0.1035(5) 0.8427(4) 0.5371(4)
H4_2 H 0.0785 0.8944 0.5334
C8_2 C 0.1774(5) 0.8208(6) 0.4946(5)
C9_2 C 0.2139(5) 0.7452(6) 0.5000(6)
H5_2 H 0.2644 0.7302 0.471
C10_2 C 0.1765(4) 0.6914(5) 0.5479(6)
H6_2 H 0.2015 0.6396 0.5515
C12_2 C 0.2128(10) 0.8819(8) 0.4413(7)
C28_2 C 0.0466(7) 0.3112(7) 0.6263(6)
H15_2 H 0.0694 0.3309 0.6484
C29_2 C 0.0964(6) 0.2655(6) 0.5759(6)
C30_2 C 0.0586(5) 0.2359(6) 0.5451(5)
C31_2 C 0.1048(5) 0.1914(6) 0.4982(5)
H16_2 H 0.0811 0.1701 0.4785
C32_2 C 0.1822(5) 0.1757(5) 0.4780(4)
C33_2 C 0.2197(5) 0.2031(6) 0.5113(6)
H17_2 H 0.2738 0.1887 0.5021
C34_2 C 0.1777(6) 0.2479(6) 0.5543(6)
H18_2 H 0.2026 0.2698 0.572
C36_2 C 0.2293(6) 0.1228(5) 0.4291(5)
O23_2 O 0.0037(4) 0.4033(4) 0.8393(4)
C61_2 C 0.1555(7) 0.2504(7) 0.9594(5)
H31_2 H 0.2085 0.2374 0.9359
C62_2 C 0.1062(7) 0.3004(9) 0.9206(8)
H32_2 H 0.127 0.3241 0.8715
C63_2 C 0.0284(8) 0.3192(9) 0.9471(7)
O27_2 O 0.2872(8) 0.8989(4) 0.2635(7)
O28_2 O 0.3927(10) 0.7659(5) 0.3420(9)
O35 O 0.4523(6) 0.8763(5) 0.2454(3)
O36 O 0.4336(3) 0.9733(3) 0.1499(3)
O37 O 0.4337(4) 0.8592(3) 0.3990(3)
O38 O 0.4345(3) 0.9643(3) 0.4214(3)
H37_2 H 0.345677 0.750685 0.350567
H38_2 H 0.416944 0.7373 0.383048
H41_2 H 0.233976 0.924667 0.28568
H42_2 H 0.288442 0.849351 0.259355
C16_2 C 0.6450(5) 0.3082(5) 0.0385(4)
H9_2 H 0.6735 0.323 0.0591
C17_2 C 0.5979(5) 0.2643(5) 0.0840(4)
C18_2 C 0.5503(5) 0.2448(5) 0.0527(4)
C19_2 C 0.5014(5) 0.2004(5) 0.0988(4)
H10_2 H 0.4711 0.1875 0.0785
C20_2 C 0.4956(4) 0.1748(4) 0.1715(4)
C21_2 C 0.5413(5) 0.1930(5) 0.2031(4)
H11_2 H 0.538 0.1752 0.254
C22_2 C 0.5889(6) 0.2356(5) 0.1594(5)
H12_2 H 0.6186 0.2472 0.1814
C24_2 C 0.4415(4) 0.1267(4) 0.2189(4)
C37_2 C 0.6179(10) 0.6623(6) 0.1218(6)
H19_2 H 0.5993 0.6375 0.1712
C38_2 C 0.6624(9) 0.6230(6) 0.0729(5)
H20_2 H 0.6771 0.5699 0.0885
C41_2 C 0.6242(5) 0.7786(5) 0.0245(4)
C42_2 C 0.5984(6) 0.7424(5) 0.0997(5)
C43_2 C 0.5502(8) 0.7858(6) 0.1493(5)
H22_2 H 0.5357 0.7619 0.1997
C44_2 C 0.5236(6) 0.8614(6) 0.1271(5)
C45_2 C 0.5513(5) 0.8974(5) 0.0529(5)
H23_2 H 0.5352 0.9505 0.0375
C46_2 C 0.6000(5) 0.8577(4) 0.0035(5)
C48_2 C 0.4662(7) 0.9066(6) 0.1780(5)
C64_2 C 0.9975(7) 0.2826(7) 0.0192(7)
H33_2 H 0.9437 0.2915 0.0385
H36_2 H 0.9629 0.2142 0.1613
O30_2 O 0.8037(10) 0.4030(8) 0.0478(8)
H43_2 H 0.803971 0.349686 0.0584343
H44_2 H 0.755478 0.429935 0.0772899
Zn1_2 Zn 0.81245(6) 0.45828(5) 0.92348(6)
Zn2_2 Zn 0.79300(5) 0.60533(5) 0.79197(5)
Zn3_2 Zn 0.94205(6) 0.46929(5) 0.77525(6)
Zn4_2 Zn 0.78338(5) 0.45318(5) 0.77593(4)
O1_2 O 0.8311(3) 0.4963(3) 0.8163(3)
O3_2 O 0.8731(4) 0.6571(3) 0.7372(3)
O4_2 O 0.9765(4) 0.5581(4) 0.7383(4)
C1_2 C 0.9922(4) 0.8107(3) 0.6274(4)
H1_2 H 0.9672 0.8624 0.6237
C2_2 C 0.9548(3) 0.7569(4) 0.6753(4)
H2_2 H 0.9043 0.7718 0.7043
C3_2 C 0.9913(4) 0.6813(4) 0.6807(4)
C11_2 C 0.9455(6) 0.6275(5) 0.7217(4)
O7_2 O 0.7135(3) 0.3961(3) 0.8482(3)
O8_2 O 0.7397(4) 0.4000(4) 0.9494(3)
C13_2 C 0.5573(7) 0.2718(7) 0.9757(4)
H7_2 H 0.5278 0.2598 0.9538
C14_2 C 0.6065(6) 0.3150(6) 0.9338(5)
H8_2 H 0.6097 0.3342 0.8829
C15_2 C 0.6534(5) 0.3317(5) 0.9653(4)
C23_2 C 0.7066(6) 0.3779(5) 0.9185(5)
O11_2 O 0.8558(4) 0.3869(4) 0.7139(3)
O12_2 O 0.9604(5) 0.4118(9) 0.7110(8)
C25_2 C 0.9793(6) 0.2545(6) 0.5653(6)
H13_2 H 0.9541 0.2372 0.5433
C26_2 C 0.9361(6) 0.2955(6) 0.6141(6)
H14_2 H 0.8822 0.3034 0.6289
C27_2 C 0.9723(5) 0.3270(6) 0.6433(5)
C35_2 C 0.9247(9) 0.3759(7) 0.6950(6)
O15_2 O 0.7532(5) 0.5423(4) 0.9653(3)
O16_2 O 0.7419(3) 0.6468(3) 0.8761(3)
C39_2 C 0.6889(6) 0.6580(5) 0.9975(4)
C40_2 C 0.6684(5) 0.7348(5) 0.9750(4)
H21_2 H 0.6847 0.7583 0.9247
H24_2 H 0.6181 0.8833 0.9544
C47_2 C 0.7300(5) 0.6124(5) 0.9407(5)
O19_2 O 0.7250(3) 0.5305(3) 0.7110(3)
O20_2 O 0.7222(3) 0.6377(3) 0.7316(3)
C49_2 C 0.6033(8) 0.6519(6) 0.5524(6)
H25_2 H 0.5959 0.6277 0.5223
C50_2 C 0.6453(8) 0.6096(5) 0.6024(6)
H26_2 H 0.6665 0.5573 0.6066
C51_2 C 0.6568(5) 0.6454(4) 0.6482(4)
C52_2 C 0.6256(5) 0.7216(5) 0.6394(4)
H27_2 H 0.634 0.7462 0.6685
C53_2 C 0.5828(4) 0.7632(4) 0.5903(4)
C54_2 C 0.5715(5) 0.7280(4) 0.5442(4)
C55_2 C 0.5274(5) 0.7716(5) 0.4942(4)
H28_2 H 0.5178 0.748 0.465
C56_2 C 0.4978(5) 0.8476(4) 0.4866(4)
C57_2 C 0.5082(5) 0.8819(4) 0.5305(4)
H29_2 H 0.4879 0.9345 0.5249
C58_2 C 0.5469(6) 0.8415(5) 0.5818(5)
H30_2 H 0.5504 0.8662 0.6136
C59_2 C 0.7039(5) 0.6018(5) 0.7009(4)
C60_2 C 0.4512(5) 0.8925(5) 0.4312(4)
O24_2 O 0.9048(6) 0.3764(7) 0.9309(6)
C71_2 C 0.9732(9) 0.3712(8) 0.9014(9)
O29_2 O 0.9076(13) 0.5030(11) 0.9335(12)
H39_2 H 0.958332 0.479877 0.904195
H40_2 H 0.908482 0.489481 0.985578
loop_
_geom_bond_atom_site_label_1
_geom_bond_atom_site_label_2
_geom_bond_site_symmetry_1
_geom_bond_site_symmetry_2
Zn1 O1 1_555 1_555
Zn2 O1 1_555 1_555
Zn3 O1 1_555 1_555
Zn4 O1 1_555 1_555
O3 Zn2 1_555 1_555
O4 Zn3 1_555 1_555
C1 H1 1_555 1_555
C2 C1 1_555 1_555
H2 C2 1_555 1_555
C3 C2 1_555 1_555
C11 O3 1_555 1_555
O7 Zn4 1_555 1_555
O8 Zn1 1_555 1_555
C13 H7 1_555 1_555
C14 C13 1_555 1_555
H8 C14 1_555 1_555
C15 C14 1_555 1_555
C23 O7 1_555 1_555
O11 Zn4 1_555 1_555
O12 Zn3 1_555 1_555
C25 H13 1_555 1_555
C26 C25 1_555 1_555
H14 C26 1_555 1_555
C27 C26 1_555 1_555
C35 O11 1_555 1_555
O15 Zn1 1_555 1_555
O16 Zn2 1_555 1_555
C40 C39 1_555 1_555
H21 C40 1_555 1_555
C47 O15 1_555 1_555
O19 Zn4 1_555 1_555
O20 Zn2 1_555 1_555
O21 C60 1_555 1_555
O22 C60 1_555 1_555
C49 H25 1_555 1_555
C50 C49 1_555 1_555
H26 C50 1_555 1_555
C51 C50 1_555 1_555
C52 C51 1_555 1_555
H27 C52 1_555 1_555
C53 C52 1_555 1_555
C54 C49 1_555 1_555
C55 C54 1_555 1_555
H28 C55 1_555 1_555
C56 C55 1_555 1_555
C57 C56 1_555 1_555
H29 C57 1_555 1_555
C58 C53 1_555 1_555
H30 C58 1_555 1_555
C59 O19 1_555 1_555
C60 C56 1_555 1_555
O24 Zn1 1_555 1_555
O29 Zn1 1_555 1_555
Zn10 O21 1_555 1_555
O4 C11 1_555 1_555
C3 C11 1_555 1_555
O8 C23 1_555 1_555
C15 C23 1_555 1_555
O12 C35 1_555 1_555
C27 C35 1_555 1_555
O16 C47 1_555 1_555
C39 C47 1_555 1_555
O20 C59 1_555 1_555
C51 C59 1_555 1_555
C53 C54 1_555 1_555
C57 C58 1_555 1_555
O24 C71 1_555 1_555
O29 H39 1_555 1_555
O29 H40 1_555 1_555
O9 C24 1_555 1_555
O10 C24 1_555 1_555
H9 C16 1_555 1_555
C17 C16 1_555 1_555
C19 C18 1_555 1_555
H10 C19 1_555 1_555
C20 C19 1_555 1_555
C21 C20 1_555 1_555
H11 C21 1_555 1_555
C22 C17 1_555 1_555
H12 C22 1_555 1_555
C24 C20 1_555 1_555
O17 C48 1_555 1_555
O18 C48 1_555 1_555
C37 H19 1_555 1_555
C38 C37 1_555 1_555
H20 C38 1_555 1_555
C42 C37 1_555 1_555
C43 C42 1_555 1_555
H22 C43 1_555 1_555
C44 C43 1_555 1_555
C45 C44 1_555 1_555
H23 C45 1_555 1_555
C46 C41 1_555 1_555
C48 C44 1_555 1_555
H33 C64 1_555 1_555
Zn10 O17 1_555 1_555
Zn15 O10 1_555 1_555
Zn18 O9 1_555 1_555
C17 C18 1_555 1_555
C21 C22 1_555 1_555
C41 C42 1_555 1_555
C45 C46 1_555 1_555
O30 H43 1_555 1_555
O30 H44 1_555 1_555
Zn10 O2 1_555 1_555
O6 Zn10 1_555 1_555
H3 C4 1_555 1_555
C5 C4 1_555 1_555
C7 C6 1_555 1_555
H4 C7 1_555 1_555
C8 C7 1_555 1_555
C9 C8 1_555 1_555
H5 C9 1_555 1_555
C10 C5 1_555 1_555
H6 C10 1_555 1_555
C12 O5 1_555 1_555
O13 C36 1_555 1_555
O14 C36 1_555 1_555
H15 C28 1_555 1_555
C29 C28 1_555 1_555
C31 C30 1_555 1_555
H16 C31 1_555 1_555
C32 C31 1_555 1_555
C33 C32 1_555 1_555
H17 C33 1_555 1_555
C34 C29 1_555 1_555
H18 C34 1_555 1_555
C36 C32 1_555 1_555
C61 H31 1_555 1_555
C62 C61 1_555 1_555
H32 C62 1_555 1_555
C63 C62 1_555 1_555
O27 Zn10 1_555 1_555
O28 Zn10 1_555 1_555
Zn12 O13 1_555 1_555
Zn15 O14 1_555 1_555
O6 C12 1_555 1_555
C5 C6 1_555 1_555
C8 C12 1_555 1_555
C9 C10 1_555 1_555
C29 C30 1_555 1_555
C33 C34 1_555 1_555
O28 H37 1_555 1_555
O28 H38 1_555 1_555
O27 H41 1_555 1_555
O27 H42 1_555 1_555
O25 C72 1_555 1_555
O26 C72 1_555 1_555
C67 C66 1_555 1_555
H34 C67 1_555 1_555
C68 C67 1_555 1_555
C69 C68 1_555 1_555
H35 C69 1_555 1_555
C70 C65 1_555 1_555
C72 C68 1_555 1_555
Zn12 O26 1_555 1_555
Zn18 O25 1_555 1_555
C65 C66 1_555 1_555
C69 C70 1_555 1_555
O31 Zn8 1_555 1_555
O32 Zn7 1_555 1_555
O33 Zn6 1_555 1_555
O34 Zn7 1_555 1_555
O39 Zn8 1_555 1_555
O40 Zn6 1_555 1_555
O39 C72_2 1_555 1_555
O40 C72_2 1_555 1_555
C67_2 C66_2 1_555 1_555
H34_2 C67_2 1_555 1_555
C68_2 C67_2 1_555 1_555
C69_2 C68_2 1_555 1_555
H35_2 C69_2 1_555 1_555
C70_2 C65_2 1_555 1_555
C72_2 C68_2 1_555 1_555
C65_2 C66_2 1_555 1_555
C69_2 C70_2 1_555 1_555
Zn5 O2_2 1_555 1_555
O6_2 Zn5 1_555 1_555
H3_2 C4_2 1_555 1_555
C5_2 C4_2 1_555 1_555
C7_2 C6_2 1_555 1_555
H4_2 C7_2 1_555 1_555
C8_2 C7_2 1_555 1_555
C9_2 C8_2 1_555 1_555
H5_2 C9_2 1_555 1_555
C10_2 C5_2 1_555 1_555
H6_2 C10_2 1_555 1_555
C12_2 O5_2 1_555 1_555
O33 C36_2 1_555 1_555
O34 C36_2 1_555 1_555
H15_2 C28_2 1_555 1_555
C29_2 C28_2 1_555 1_555
C31_2 C30_2 1_555 1_555
H16_2 C31_2 1_555 1_555
C32_2 C31_2 1_555 1_555
C33_2 C32_2 1_555 1_555
H17_2 C33_2 1_555 1_555
C34_2 C29_2 1_555 1_555
H18_2 C34_2 1_555 1_555
C36_2 C32_2 1_555 1_555
C61_2 H31_2 1_555 1_555
C62_2 C61_2 1_555 1_555
H32_2 C62_2 1_555 1_555
C63_2 C62_2 1_555 1_555
O27_2 Zn5 1_555 1_555
O28_2 Zn5 1_555 1_555
O35 Zn5 1_555 1_555
O37 Zn5 1_555 1_555
O6_2 C12_2 1_555 1_555
C5_2 C6_2 1_555 1_555
C8_2 C12_2 1_555 1_555
C9_2 C10_2 1_555 1_555
C29_2 C30_2 1_555 1_555
C33_2 C34_2 1_555 1_555
O28_2 H37_2 1_555 1_555
O28_2 H38_2 1_555 1_555
O27_2 H41_2 1_555 1_555
O27_2 H42_2 1_555 1_555
O31 C24_2 1_555 1_555
O32 C24_2 1_555 1_555
H9_2 C16_2 1_555 1_555
C17_2 C16_2 1_555 1_555
C19_2 C18_2 1_555 1_555
H10_2 C19_2 1_555 1_555
C20_2 C19_2 1_555 1_555
C21_2 C20_2 1_555 1_555
H11_2 C21_2 1_555 1_555
C22_2 C17_2 1_555 1_555
H12_2 C22_2 1_555 1_555
C24_2 C20_2 1_555 1_555
O35 C48_2 1_555 1_555
O36 C48_2 1_555 1_555
C37_2 H19_2 1_555 1_555
C38_2 C37_2 1_555 1_555
H20_2 C38_2 1_555 1_555
C42_2 C37_2 1_555 1_555
C43_2 C42_2 1_555 1_555
H22_2 C43_2 1_555 1_555
C44_2 C43_2 1_555 1_555
C45_2 C44_2 1_555 1_555
H23_2 C45_2 1_555 1_555
C46_2 C41_2 1_555 1_555
C48_2 C44_2 1_555 1_555
H33_2 C64_2 1_555 1_555
C17_2 C18_2 1_555 1_555
C21_2 C22_2 1_555 1_555
C41_2 C42_2 1_555 1_555
C45_2 C46_2 1_555 1_555
O30_2 H43_2 1_555 1_555
O30_2 H44_2 1_555 1_555
Zn1_2 O1_2 1_555 1_555
Zn2_2 O1_2 1_555 1_555
Zn3_2 O1_2 1_555 1_555
Zn4_2 O1_2 1_555 1_555
O3_2 Zn2_2 1_555 1_555
O4_2 Zn3_2 1_555 1_555
C1_2 H1_2 1_555 1_555
C2_2 C1_2 1_555 1_555
H2_2 C2_2 1_555 1_555
C3_2 C2_2 1_555 1_555
C11_2 O3_2 1_555 1_555
O7_2 Zn4_2 1_555 1_555
O8_2 Zn1_2 1_555 1_555
C13_2 H7_2 1_555 1_555
C14_2 C13_2 1_555 1_555
H8_2 C14_2 1_555 1_555
C15_2 C14_2 1_555 1_555
C23_2 O7_2 1_555 1_555
O11_2 Zn4_2 1_555 1_555
O12_2 Zn3_2 1_555 1_555
C25_2 H13_2 1_555 1_555
C26_2 C25_2 1_555 1_555
H14_2 C26_2 1_555 1_555
C27_2 C26_2 1_555 1_555
C35_2 O11_2 1_555 1_555
O15_2 Zn1_2 1_555 1_555
O16_2 Zn2_2 1_555 1_555
C40_2 C39_2 1_555 1_555
H21_2 C40_2 1_555 1_555
C47_2 O15_2 1_555 1_555
O19_2 Zn4_2 1_555 1_555
O20_2 Zn2_2 1_555 1_555
O37 C60_2 1_555 1_555
O38 C60_2 1_555 1_555
C49_2 H25_2 1_555 1_555
C50_2 C49_2 1_555 1_555
H26_2 C50_2 1_555 1_555
C51_2 C50_2 1_555 1_555
C52_2 C51_2 1_555 1_555
H27_2 C52_2 1_555 1_555
C53_2 C52_2 1_555 1_555
C54_2 C49_2 1_555 1_555
C55_2 C54_2 1_555 1_555
H28_2 C55_2 1_555 1_555
C56_2 C55_2 1_555 1_555
C57_2 C56_2 1_555 1_555
H29_2 C57_2 1_555 1_555
C58_2 C53_2 1_555 1_555
H30_2 C58_2 1_555 1_555
C59_2 O19_2 1_555 1_555
C60_2 C56_2 1_555 1_555
O24_2 Zn1_2 1_555 1_555
O29_2 Zn1_2 1_555 1_555
O4_2 C11_2 1_555 1_555
C3_2 C11_2 1_555 1_555
O8_2 C23_2 1_555 1_555
C15_2 C23_2 1_555 1_555
O12_2 C35_2 1_555 1_555
C27_2 C35_2 1_555 1_555
O16_2 C47_2 1_555 1_555
C39_2 C47_2 1_555 1_555
O20_2 C59_2 1_555 1_555
C51_2 C59_2 1_555 1_555
C53_2 C54_2 1_555 1_555
C57_2 C58_2 1_555 1_555
O24_2 C71_2 1_555 1_555
O29_2 H39_2 1_555 1_555
O29_2 H40_2 1_555 1_555

#END
