
###############################################################################
#
# This file contains modified crystal structure data generated from the
# MOF subset of the Cambridge Structural Database (CSD) v543 
# hosted by the Cambridge Crystallographic Data Centre (CCDC).
#
# This work is licensed under the Creative Commons
# Attribution-NonCommercial-ShareAlike 4.0 International License.
# To view a copy of this license, visit
# http://creativecommons.org/licenses/by-nc-sa/4.0/
# or send a letter to
# Creative Commons, PO Box 1866, Mountain View, CA 94042, USA.
#
# CIF created using the CSD Python API on 29 September 2022
# The structure has been converted into the P1 space group
# The structure has a 3D framework
# The original CSD entry WORLAS is in the triclinic crystal system
# The framework has been calculated to contain at least 10.0% void space
# The void calculation uses a probe of radius 1.32A, grid spacing 0.4
# H atom positions have been added when not included in the experimental data
#
###############################################################################

data_WORLAS
_chemical_formula_moiety         '(C162 H118 N6 O60 Zn16)n'
_symmetry_cell_setting           triclinic
_symmetry_space_group_name_H-M   'P 1'
_symmetry_Int_Tables_number      1
_space_group_name_Hall           'P 1'
loop_
_symmetry_equiv_pos_site_id
_symmetry_equiv_pos_as_xyz
1 x,y,z
_cell_length_a                   17.9128(9)
_cell_length_b                   20.0002(9)
_cell_length_c                   20.8725(10)
_cell_angle_alpha                71.6450(10)
_cell_angle_beta                 70.3050(10)
_cell_angle_gamma                68.9810(10)
_cell_volume                     6409.72
loop_
_atom_site_label
_atom_site_type_symbol
_atom_site_fract_x
_atom_site_fract_y
_atom_site_fract_z
C80 C 0.0605(8) 0.6228(7) 0.4316(7)
H52 H 0.0907 0.6424 0.3846
H53 H 0.0929 0.5730 0.4492
H54 H 0.0513 0.6544 0.4627
H56 H 0.0017 0.5697 0.3494
Zn1 Zn 0.13343(6) 0.15948(5) 0.11836(5)
O1 O 0.1621(3) 0.1835(3) 0.0135(3)
O2 O 0.1074(5) 0.1351(5) 0.2285(5)
O3 O 0.0420(4) 0.1117(4) 0.1352(4)
O4 O 0.0539(4) 0.0709(3) 0.0414(4)
C1 C 0.0327(5) 0.0673(5) 0.1067(6)
O15 O 0.0424(4) 0.2592(3) 0.1342(3)
O16 O 0.0673(3) 0.3532(3) 0.0444(3)
C37 C 0.0336(6) 0.3260(5) 0.1073(5)
O19 O 0.2264(4) 0.0588(3) 0.1219(3)
O20 O 0.3431(4) 0.0725(3) 0.0385(3)
C49 C 0.3000(7) 0.0420(5) 0.1005(5)
C67 C 0.3070(7) 0.0220(5) 0.8339(5)
C68 C 0.3916(7) 0.0105(5) 0.8070(5)
H34 H 0.4207 0.0332 0.8202
C72 C 0.2633(7) 0.0727(5) 0.8847(5)
O26 O 0.1863(4) 0.0829(3) 0.9080(3)
O27 O 0.3093(4) 0.0975(3) 0.9005(3)
O28 O 0.2284(6) 0.2071(5) 0.1068(5)
N1 N 0.2942(8) 0.2399(6) 0.1622(7)
C73 C 0.2304(10) 0.2268(8) 0.1542(9)
H37 H 0.1810 0.2339 0.1904
C74 C 0.2982(8) 0.2624(7) 0.2212(7)
H38 H 0.2615 0.3121 0.2228
H39 H 0.3550 0.2616 0.2154
H40 H 0.2806 0.2283 0.2647
C75 C 0.3749(8) 0.2075(7) 0.1164(7)
H41 H 0.3809 0.1559 0.1202
H42 H 0.4199 0.2109 0.1309
H43 H 0.3773 0.2345 0.0679
Zn9 Zn 0.10895(6) 0.14140(5) 0.97648(5)
Zn10 Zn 0.28048(6) 0.14835(5) 0.97767(5)
H58 H 0.101439 0.179127 0.24425
H59 H 0.055183 0.120732 0.248862
Zn3 Zn 0.13095(6) 0.28848(5) 0.98293(5)
O7 O 0.0288(4) 0.2144(3) 0.9272(3)
O8 O 0.0599(4) 0.3165(3) 0.9190(4)
C13 C 0.0227(6) 0.2810(6) 0.9042(5)
O11 O 0.2227(4) 0.3267(3) 0.9256(3)
O12 O 0.3335(3) 0.2259(3) 0.9268(3)
C25 C 0.2962(6) 0.2945(5) 0.9061(5)
C26 C 0.3534(6) 0.3399(6) 0.8556(5)
C27 C 0.3182(6) 0.4155(5) 0.8260(5)
H13 H 0.2604 0.4369 0.8417
C28 C 0.3644(6) 0.4576(5) 0.7766(4)
C29 C 0.3287(6) 0.5317(5) 0.7522(5)
H14 H 0.2718 0.5543 0.7703
C30 C 0.3778(6) 0.5705(5) 0.7017(6)
H15 H 0.3542 0.6215 0.6855
C31 C 0.4615(6) 0.5396(5) 0.6721(5)
C32 C 0.4957(6) 0.4676(5) 0.6954(5)
H16 H 0.5517 0.4453 0.6742
C33 C 0.4504(6) 0.4254(5) 0.7499(5)
C34 C 0.4835(6) 0.3506(5) 0.7779(6)
H17 H 0.5408 0.3293 0.7605
C35 C 0.4407(6) 0.3076(6) 0.8269(6)
H18 H 0.4665 0.2571 0.8428
C36 C 0.5157(7) 0.5834(5) 0.6164(5)
O13 O 0.4817(4) 0.6541(3) 0.6016(3)
O14 O 0.5875(4) 0.5512(3) 0.5886(3)
Zn11 Zn 0.54245(6) 0.72501(5) 0.54132(5)
Zn18 Zn 0.69018(6) 0.57928(5) 0.54067(5)
Zn6 Zn 0.69367(6) 0.70764(5) 0.41061(5)
Zn7 Zn 0.72328(7) 0.72412(5) 0.54690(5)
H6 H 0.0128 0.9565 0.0807
C50 C 0.3544(6) 0.9845(5) 0.1449(4)
C51 C 0.3187(6) 0.9717(5) 0.2147(5)
H25 H 0.2620 0.9954 0.2321
C52 C 0.3685(5) 0.9214(5) 0.2625(4)
C53 C 0.3340(7) 0.9060(7) 0.3374(5)
H26 H 0.2767 0.9261 0.3564
C54 C 0.3823(6) 0.8640(6) 0.3792(5)
H27 H 0.3609 0.8571 0.4284
C55 C 0.4658(6) 0.8296(5) 0.3506(5)
C56 C 0.4997(6) 0.8388(4) 0.2816(4)
H28 H 0.5560 0.8138 0.2642
C57 C 0.4519(5) 0.8851(4) 0.2357(4)
C58 C 0.4859(5) 0.9025(4) 0.1606(4)
H29 H 0.5417 0.8784 0.1409
C59 C 0.4388(6) 0.9524(5) 0.1187(4)
H30 H 0.4634 0.9662 0.0703
C60 C 0.5213(6) 0.7849(5) 0.4010(5)
O21 O 0.4863(4) 0.7767(3) 0.4655(3)
O22 O 0.5953(4) 0.7589(3) 0.3737(3)
O23 O 0.6595(3) 0.6850(2) 0.5116(3)
O24 O 0.5091(4) 0.7947(3) 0.5988(4)
O25 O 0.6321(4) 0.7967(3) 0.6024(3)
C61 C 0.5538(8) 0.8141(5) 0.6203(5)
C62 C 0.5105(7) 0.8659(5) 0.6699(5)
C63 C 0.4294(7) 0.8777(5) 0.6973(5)
H31 H 0.4006 0.8529 0.6863
C64 C 0.3848(7) 0.9272(5) 0.7432(5)
C65 C 0.3006(6) 0.9384(5) 0.7763(6)
H32 H 0.2704 0.9131 0.7676
C66 C 0.2615(6) 0.9845(5) 0.8206(5)
H33 H 0.2042 0.9917 0.8426
C69 C 0.4346(7) 0.9625(5) 0.7579(5)
C70 C 0.5146(7) 0.9502(6) 0.7266(6)
H35 H 0.5462 0.9745 0.7349
C71 C 0.5531(7) 0.9015(6) 0.6815(6)
H36 H 0.6103 0.8938 0.6589
O29 O 0.8127(6) 0.7546(5) 0.5759(5)
N2 N 0.8595(8) 0.8408(7) 0.5946(7)
C76 C 0.8057(9) 0.8195(8) 0.5791(8)
H44 H 0.7573 0.8566 0.5695
C77 C 0.8419(8) 0.9163(7) 0.5995(7)
H45 H 0.8134 0.9498 0.5639
H46 H 0.8938 0.9270 0.5920
H47 H 0.8067 0.9227 0.6458
C78 C 0.9266(8) 0.7811(7) 0.6188(7)
H48 H 0.9037 0.7445 0.6567
H49 H 0.9575 0.8006 0.6358
H50 H 0.9637 0.7579 0.5801
O30 O 0.8357(6) 0.6491(5) 0.4869(5)
N3 N 0.9748(7) 0.6203(6) 0.4289(7)
C79 C 0.9068(9) 0.6496(8) 0.4824(8)
H51 H 0.9158 0.6692 0.5143
C81 C 0.9533(8) 0.5846(7) 0.3869(7)
H55 H 0.9360 0.5414 0.4172
H57 H 0.9080 0.6196 0.3668
O31 O 0.7486(5) 0.8076(4) 0.4597(4)
O32 O 0.7672(4) 0.7685(3) 0.3674(3)
O33 O 0.7460(5) 0.5340(5) 0.6116(4)
O34 O 0.7425(6) 0.6409(5) 0.6336(4)
O37 O 0.7371(4) 0.5285(3) 0.4632(3)
O38 O 0.7425(3) 0.6236(3) 0.3688(3)
C2 C 0.9881(5) 0.0126(5) 0.1543(5)
C3 C 0.9537(6) 0.0169(5) 0.2224(5)
H1 H 0.9588 0.0534 0.2394
H2 H 0.8724 0.0040 0.3586
C38 C 0.9771(5) 0.3777(5) 0.1539(5)
C39 C 0.9499(5) 0.3535(5) 0.2235(5)
H19 H 0.9661 0.3023 0.2433
C40 C 0.8984(6) 0.4021(4) 0.2674(4)
C41 C 0.8729(6) 0.3790(4) 0.3396(5)
H20 H 0.8909 0.3283 0.3603
C42 C 0.8229(6) 0.4269(4) 0.3816(5)
H21 H 0.8014 0.4093 0.4300
C43 C 0.8038(5) 0.5027(4) 0.3519(5)
C44 C 0.8287(5) 0.5273(4) 0.2825(4)
H22 H 0.8121 0.5785 0.2631
C45 C 0.8787(5) 0.4789(4) 0.2381(4)
C46 C 0.9095(6) 0.5019(4) 0.1671(5)
H23 H 0.8964 0.5531 0.1471
C47 C 0.9580(6) 0.4544(5) 0.1241(4)
H24 H 0.9783 0.4724 0.0756
C48 C 0.7586(6) 0.5560(5) 0.3970(5)
C14 C 0.9628(6) 0.3302(5) 0.8593(5)
C15 C 0.9200(7) 0.2967(6) 0.8399(6)
H7 H 0.9262 0.2454 0.8564
C16 C 0.8696(6) 0.3381(6) 0.7971(5)
H8 H 0.8399 0.3153 0.7845
C17 C 0.8604(6) 0.4126(6) 0.7713(5)
C18 C 0.8126(6) 0.4552(6) 0.7246(5)
H9 H 0.7842 0.4335 0.7093
C19 C 0.8065(7) 0.5281(7) 0.7007(5)
C20 C 0.8569(10) 0.5620(7) 0.7202(7)
H10 H 0.8572 0.6117 0.6999
C21 C 0.9012(9) 0.5200(7) 0.7670(7)
H11 H 0.9298 0.5410 0.7827
C22 C 0.9051(8) 0.4457(6) 0.7925(6)
C23 C 0.9565(7) 0.4019(6) 0.8372(6)
H12 H 0.9865 0.4230 0.8515
C24 C 0.7574(8) 0.5736(8) 0.6452(7)
C4 C 0.9099(6) 0.9653(6) 0.2677(5)
C5 C 0.8699(6) 0.9676(6) 0.3399(6)
C6 C 0.8287(7) 0.9178(6) 0.3810(6)
H3 H 0.8012 0.9206 0.4281
C7 C 0.8262(6) 0.8614(5) 0.3547(5)
C8 C 0.8674(5) 0.8572(5) 0.2862(5)
H4 H 0.8673 0.8185 0.2691
C9 C 0.9092(5) 0.9082(5) 0.2415(5)
C10 C 0.9485(5) 0.9053(5) 0.1699(5)
H5 H 0.9480 0.8676 0.1517
C11 C 0.9867(5) 0.9578(5) 0.1283(5)
C12 C 0.7766(7) 0.8092(6) 0.3994(7)
C4_2 C 0.0901(6) 0.0347(6) 0.7323(5)
C5_2 C 0.1301(6) 0.0324(6) 0.6601(6)
C6_2 C 0.1713(7) 0.0822(6) 0.6190(6)
H3_2 H 0.1988 0.0794 0.5719
C7_2 C 0.1738(6) 0.1386(5) 0.6453(5)
C8_2 C 0.1326(5) 0.1428(5) 0.7138(5)
H4_2 H 0.1327 0.1815 0.7309
C9_2 C 0.0908(5) 0.0918(5) 0.7585(5)
C10_2 C 0.0515(5) 0.0947(5) 0.8301(5)
H5_2 H 0.0520 0.1324 0.8483
C11_2 C 0.0133(5) 0.0422(5) 0.8717(5)
C12_2 C 0.2234(7) 0.1908(6) 0.6006(7)
O5 O 0.2514(5) 0.1924(4) 0.5403(4)
O6 O 0.2328(4) 0.2315(3) 0.6326(3)
Zn12 Zn 0.30633(6) 0.29236(5) 0.58939(5)
Zn14 Zn 0.27672(7) 0.27588(5) 0.45310(5)
C14_2 C 0.0372(6) 0.6698(5) 0.1407(5)
C15_2 C 0.0800(7) 0.7033(6) 0.1601(6)
H7_2 H 0.0738 0.7546 0.1436
C16_2 C 0.1304(6) 0.6619(6) 0.2029(5)
H8_2 H 0.1601 0.6847 0.2155
C17_2 C 0.1396(6) 0.5874(6) 0.2287(5)
C18_2 C 0.1874(6) 0.5448(6) 0.2754(5)
H9_2 H 0.2158 0.5665 0.2907
C19_2 C 0.1935(7) 0.4719(7) 0.2993(5)
C20_2 C 0.1431(10) 0.4380(7) 0.2798(7)
H10_2 H 0.1428 0.3883 0.3001
C21_2 C 0.0988(9) 0.4800(7) 0.2330(7)
H11_2 H 0.0702 0.4590 0.2173
C22_2 C 0.0949(8) 0.5543(6) 0.2075(6)
C23_2 C 0.0435(7) 0.5981(6) 0.1628(6)
H12_2 H 0.0135 0.5770 0.1485
C24_2 C 0.2426(8) 0.4264(8) 0.3548(7)
O9 O 0.2540(5) 0.4660(5) 0.3884(4)
O10 O 0.2575(6) 0.3591(5) 0.3664(4)
Zn16 Zn 0.30982(6) 0.42072(5) 0.45933(5)
C2_2 C 0.0119(5) 0.9874(5) 0.8457(5)
C3_2 C 0.0463(6) 0.9831(5) 0.7776(5)
H1_2 H 0.0412 0.9466 0.7606
H2_2 H 0.1276 0.9960 0.6414
C38_2 C 0.0229(5) 0.6223(5) 0.8461(5)
C39_2 C 0.0501(5) 0.6465(5) 0.7765(5)
H19_2 H 0.0339 0.6977 0.7567
C40_2 C 0.1016(6) 0.5979(4) 0.7326(4)
C41_2 C 0.1271(6) 0.6210(4) 0.6604(5)
H20_2 H 0.1091 0.6717 0.6397
C42_2 C 0.1771(6) 0.5731(4) 0.6184(5)
H21_2 H 0.1986 0.5907 0.5700
C43_2 C 0.1962(5) 0.4973(4) 0.6481(5)
C44_2 C 0.1713(5) 0.4727(4) 0.7175(4)
H22_2 H 0.1879 0.4215 0.7369
C45_2 C 0.1213(5) 0.5211(4) 0.7619(4)
C46_2 C 0.0905(6) 0.4981(4) 0.8329(5)
H23_2 H 0.1036 0.4469 0.8529
C47_2 C 0.0420(6) 0.5456(5) 0.8759(4)
H24_2 H 0.0217 0.5276 0.9244
C48_2 C 0.2414(6) 0.4440(5) 0.6030(5)
O17 O 0.2629(4) 0.4715(3) 0.5368(3)
O18 O 0.2575(3) 0.3764(3) 0.6312(3)
Zn5 Zn 0.45755(6) 0.27499(5) 0.45868(5)
H6_2 H 0.9872 0.0435 0.9193
C50_2 C 0.6456(6) 0.0155(5) 0.8551(4)
C51_2 C 0.6813(6) 0.0283(5) 0.7853(5)
H25_2 H 0.7380 0.0046 0.7679
C52_2 C 0.6315(5) 0.0786(5) 0.7375(4)
C53_2 C 0.6660(7) 0.0940(7) 0.6626(5)
H26_2 H 0.7233 0.0739 0.6436
C54_2 C 0.6177(6) 0.1360(6) 0.6208(5)
H27_2 H 0.6391 0.1429 0.5716
C55_2 C 0.5342(6) 0.1704(5) 0.6494(5)
C56_2 C 0.5003(6) 0.1612(4) 0.7184(4)
H28_2 H 0.4440 0.1862 0.7358
C57_2 C 0.5481(5) 0.1149(4) 0.7643(4)
C58_2 C 0.5141(5) 0.0975(4) 0.8394(4)
H29_2 H 0.4583 0.1216 0.8591
C59_2 C 0.5612(6) 0.0476(5) 0.8813(4)
H30_2 H 0.5366 0.0338 0.9297
C60_2 C 0.4787(6) 0.2151(5) 0.5990(5)
O21_2 O 0.5137(4) 0.2233(3) 0.5345(3)
O22_2 O 0.4047(4) 0.2411(3) 0.6263(3)
O23_2 O 0.3405(3) 0.3150(2) 0.4884(3)
O24_2 O 0.4909(4) 0.2053(3) 0.4012(4)
O25_2 O 0.3679(4) 0.2033(3) 0.3976(3)
C61_2 C 0.4462(8) 0.1859(5) 0.3797(5)
C62_2 C 0.4895(7) 0.1341(5) 0.3301(5)
C63_2 C 0.5706(7) 0.1223(5) 0.3027(5)
H31_2 H 0.5994 0.1471 0.3137
C64_2 C 0.6152(7) 0.0728(5) 0.2568(5)
C65_2 C 0.6994(6) 0.0616(5) 0.2237(6)
H32_2 H 0.7296 0.0869 0.2324
C66_2 C 0.7385(6) 0.0155(5) 0.1794(5)
H33_2 H 0.7958 0.0083 0.1574
C69_2 C 0.5654(7) 0.0375(5) 0.2421(5)
C70_2 C 0.4854(7) 0.0498(6) 0.2734(6)
H35_2 H 0.4538 0.0255 0.2651
C71_2 C 0.4469(7) 0.0985(6) 0.3185(6)
H36_2 H 0.3897 0.1062 0.3411
O29_2 O 0.1873(6) 0.2454(5) 0.4241(5)
N2_2 N 0.1405(8) 0.1592(7) 0.4054(7)
C76_2 C 0.1943(9) 0.1805(8) 0.4209(8)
H44_2 H 0.2427 0.1434 0.4305
C77_2 C 0.1581(8) 0.0837(7) 0.4005(7)
H45_2 H 0.1866 0.0502 0.4361
H46_2 H 0.1062 0.0730 0.4080
H47_2 H 0.1933 0.0773 0.3542
C78_2 C 0.0734(8) 0.2189(7) 0.3812(7)
H48_2 H 0.0963 0.2555 0.3433
H49_2 H 0.0425 0.1994 0.3642
H50_2 H 0.0363 0.2421 0.4199
O30_2 O 0.1643(6) 0.3509(5) 0.5131(5)
N3_2 N 0.0252(7) 0.3797(6) 0.5711(7)
C79_2 C 0.0932(9) 0.3504(8) 0.5176(8)
H51_2 H 0.0842 0.3308 0.4857
C81_2 C 0.0467(8) 0.4154(7) 0.6131(7)
H55_2 H 0.0640 0.4586 0.5828
H57_2 H 0.0920 0.3804 0.6332
O35 O 0.5183(4) 0.3459(3) 0.3984(3)
O36 O 0.4125(4) 0.4488(3) 0.4114(3)
Zn2 Zn 0.89105(6) 0.85860(5) 0.02352(5)
Zn3_2 Zn 0.86905(6) 0.71152(5) 0.01707(5)
Zn4 Zn 0.71952(6) 0.85165(5) 0.02233(5)
O7_2 O 0.9712(4) 0.7856(3) 0.0728(3)
O8_2 O 0.9401(4) 0.6835(3) 0.0810(4)
C13_2 C 0.9773(6) 0.7190(6) 0.0958(5)
O11_2 O 0.7773(4) 0.6733(3) 0.0744(3)
O12_2 O 0.6665(3) 0.7741(3) 0.0732(3)
C25_2 C 0.7038(6) 0.7055(5) 0.0939(5)
C26_2 C 0.6466(6) 0.6601(6) 0.1444(5)
C27_2 C 0.6818(6) 0.5845(5) 0.1740(5)
H13_2 H 0.7396 0.5631 0.1583
C28_2 C 0.6356(6) 0.5424(5) 0.2234(4)
C29_2 C 0.6713(6) 0.4683(5) 0.2478(5)
H14_2 H 0.7282 0.4457 0.2297
C30_2 C 0.6222(6) 0.4295(5) 0.2983(6)
H15_2 H 0.6458 0.3785 0.3145
C31_2 C 0.5385(6) 0.4604(5) 0.3279(5)
C32_2 C 0.5043(6) 0.5324(5) 0.3046(5)
H16_2 H 0.4483 0.5547 0.3258
C33_2 C 0.5496(6) 0.5746(5) 0.2501(5)
C34_2 C 0.5165(6) 0.6494(5) 0.2221(6)
H17_2 H 0.4592 0.6707 0.2395
C35_2 C 0.5593(6) 0.6924(6) 0.1731(6)
H18_2 H 0.5335 0.7429 0.1572
C36_2 C 0.4843(7) 0.4166(5) 0.3836(5)
O39 O 0.8137(4) 0.9171(3) 0.0920(3)
O40 O 0.6907(4) 0.9025(3) 0.0995(3)
Zn1_2 Zn 0.86657(6) 0.84052(5) 0.88164(5)
O1_2 O 0.8379(3) 0.8165(3) 0.9865(3)
O2_2 O 0.8926(5) 0.8649(5) 0.7715(5)
O3_2 O 0.9580(4) 0.8883(4) 0.8648(4)
O4_2 O 0.9461(4) 0.9291(3) 0.9586(4)
C1_2 C 0.9673(5) 0.9327(5) 0.8933(6)
O15_2 O 0.9576(4) 0.7408(3) 0.8658(3)
O16_2 O 0.9327(3) 0.6468(3) 0.9556(3)
C37_2 C 0.9664(6) 0.6740(5) 0.8927(5)
O19_2 O 0.7736(4) 0.9412(3) 0.8781(3)
O20_2 O 0.6569(4) 0.9275(3) 0.9615(3)
C49_2 C 0.7000(7) 0.9580(5) 0.8995(5)
C67_2 C 0.6930(7) 0.9780(5) 0.1661(5)
C68_2 C 0.6084(7) 0.9895(5) 0.1930(5)
H34_2 H 0.5793 0.9668 0.1798
C72_2 C 0.7367(7) 0.9273(5) 0.1153(5)
O28_2 O 0.7716(6) 0.7929(5) 0.8932(5)
N1_2 N 0.7058(8) 0.7601(6) 0.8378(7)
C73_2 C 0.7696(10) 0.7732(8) 0.8458(9)
H37_2 H 0.8190 0.7661 0.8096
C74_2 C 0.7018(8) 0.7376(7) 0.7788(7)
H38_2 H 0.7385 0.6879 0.7772
H39_2 H 0.6450 0.7384 0.7846
H40_2 H 0.7194 0.7717 0.7353
C75_2 C 0.6251(8) 0.7925(7) 0.8836(7)
H41_2 H 0.6191 0.8441 0.8798
H42_2 H 0.5801 0.7891 0.8691
H43_2 H 0.6227 0.7655 0.9321
H58_2 H 0.898561 0.820873 0.75575
H59_2 H 0.944817 0.879268 0.751138
C80_2 C 0.9395(8) 0.3772(7) 0.5684(7)
H52_2 H 0.9093 0.3576 0.6154
H53_2 H 0.9071 0.4270 0.5508
H54_2 H 0.9487 0.3456 0.5373
H56_2 H 0.9983 0.4303 0.6506
loop_
_geom_bond_atom_site_label_1
_geom_bond_atom_site_label_2
_geom_bond_site_symmetry_1
_geom_bond_site_symmetry_2
H52 C80 1_555 1_555
H53 C80 1_555 1_555
H54 C80 1_555 1_555
Zn1 O1 1_555 1_555
O2 Zn1 1_555 1_555
O3 Zn1 1_555 1_555
C1 O3 1_555 1_555
O15 Zn1 1_555 1_555
C37 O15 1_555 1_555
O19 Zn1 1_555 1_555
C49 O19 1_555 1_555
C68 C67 1_555 1_555
H34 C68 1_555 1_555
C72 C67 1_555 1_555
O26 C72 1_555 1_555
O27 C72 1_555 1_555
O28 Zn1 1_555 1_555
N1 C73 1_555 1_555
C73 O28 1_555 1_555
H37 C73 1_555 1_555
C74 N1 1_555 1_555
H38 C74 1_555 1_555
H39 C74 1_555 1_555
H40 C74 1_555 1_555
C75 N1 1_555 1_555
H41 C75 1_555 1_555
H42 C75 1_555 1_555
H43 C75 1_555 1_555
Zn9 O26 1_555 1_555
Zn10 O27 1_555 1_555
O4 C1 1_555 1_555
O16 C37 1_555 1_555
O20 C49 1_555 1_555
O2 H58 1_555 1_555
O2 H59 1_555 1_555
O7 Zn9 1_555 1_555
O8 Zn3 1_555 1_555
C13 O7 1_555 1_555
O11 Zn3 1_555 1_555
O12 Zn10 1_555 1_555
C25 O11 1_555 1_555
C26 C25 1_555 1_555
C27 C26 1_555 1_555
H13 C27 1_555 1_555
C28 C27 1_555 1_555
C29 C28 1_555 1_555
H14 C29 1_555 1_555
C30 C29 1_555 1_555
H15 C30 1_555 1_555
C31 C30 1_555 1_555
C32 C31 1_555 1_555
H16 C32 1_555 1_555
C33 C28 1_555 1_555
C34 C33 1_555 1_555
H17 C34 1_555 1_555
C35 C26 1_555 1_555
H18 C35 1_555 1_555
C36 C31 1_555 1_555
O13 C36 1_555 1_555
O14 C36 1_555 1_555
Zn11 O13 1_555 1_555
Zn18 O14 1_555 1_555
O8 C13 1_555 1_555
O12 C25 1_555 1_555
C32 C33 1_555 1_555
C34 C35 1_555 1_555
Zn11 O21 1_555 1_555
Zn6 O22 1_555 1_555
Zn7 O23 1_555 1_555
Zn18 O23 1_555 1_555
C51 C50 1_555 1_555
H25 C51 1_555 1_555
C52 C51 1_555 1_555
C53 C52 1_555 1_555
H26 C53 1_555 1_555
C54 C53 1_555 1_555
H27 C54 1_555 1_555
C55 C54 1_555 1_555
C56 C55 1_555 1_555
H28 C56 1_555 1_555
C57 C52 1_555 1_555
C58 C57 1_555 1_555
H29 C58 1_555 1_555
C59 C50 1_555 1_555
H30 C59 1_555 1_555
C60 C55 1_555 1_555
O21 C60 1_555 1_555
O22 C60 1_555 1_555
O23 Zn11 1_555 1_555
O24 Zn11 1_555 1_555
O25 Zn7 1_555 1_555
C61 O24 1_555 1_555
C62 C61 1_555 1_555
C63 C62 1_555 1_555
H31 C63 1_555 1_555
C64 C63 1_555 1_555
C65 C64 1_555 1_555
H32 C65 1_555 1_555
C66 C65 1_555 1_555
H33 C66 1_555 1_555
C69 C64 1_555 1_555
C70 C69 1_555 1_555
H35 C70 1_555 1_555
C71 C62 1_555 1_555
H36 C71 1_555 1_555
O29 Zn7 1_555 1_555
N2 C76 1_555 1_555
C76 O29 1_555 1_555
H44 C76 1_555 1_555
C77 N2 1_555 1_555
H45 C77 1_555 1_555
H46 C77 1_555 1_555
H47 C77 1_555 1_555
C78 N2 1_555 1_555
H48 C78 1_555 1_555
H49 C78 1_555 1_555
H50 C78 1_555 1_555
O30 Zn7 1_555 1_555
N3 C79 1_555 1_555
C79 O30 1_555 1_555
H51 C79 1_555 1_555
C81 N3 1_555 1_555
H55 C81 1_555 1_555
H57 C81 1_555 1_555
O31 Zn7 1_555 1_555
O32 Zn6 1_555 1_555
O33 Zn18 1_555 1_555
O34 Zn7 1_555 1_555
O37 Zn18 1_555 1_555
O38 Zn6 1_555 1_555
Zn6 O23 1_555 1_555
C56 C57 1_555 1_555
C58 C59 1_555 1_555
O25 C61 1_555 1_555
C70 C71 1_555 1_555
C3 C2 1_555 1_555
H1 C3 1_555 1_555
C39 C38 1_555 1_555
H19 C39 1_555 1_555
C40 C39 1_555 1_555
C41 C40 1_555 1_555
H20 C41 1_555 1_555
C42 C41 1_555 1_555
H21 C42 1_555 1_555
C43 C42 1_555 1_555
C44 C43 1_555 1_555
H22 C44 1_555 1_555
C45 C40 1_555 1_555
C46 C45 1_555 1_555
H23 C46 1_555 1_555
C47 C38 1_555 1_555
H24 C47 1_555 1_555
C48 C43 1_555 1_555
O37 C48 1_555 1_555
O38 C48 1_555 1_555
C44 C45 1_555 1_555
C46 C47 1_555 1_555
C15 C14 1_555 1_555
H7 C15 1_555 1_555
C16 C15 1_555 1_555
H8 C16 1_555 1_555
C17 C16 1_555 1_555
C18 C17 1_555 1_555
H9 C18 1_555 1_555
C19 C18 1_555 1_555
C20 C19 1_555 1_555
H10 C20 1_555 1_555
C21 C20 1_555 1_555
H11 C21 1_555 1_555
C22 C17 1_555 1_555
C23 C14 1_555 1_555
H12 C23 1_555 1_555
C24 C19 1_555 1_555
O33 C24 1_555 1_555
O34 C24 1_555 1_555
C21 C22 1_555 1_555
C22 C23 1_555 1_555
C5 C4 1_555 1_555
C6 C5 1_555 1_555
H3 C6 1_555 1_555
C7 C6 1_555 1_555
C8 C7 1_555 1_555
H4 C8 1_555 1_555
C9 C4 1_555 1_555
C10 C9 1_555 1_555
H5 C10 1_555 1_555
C12 C7 1_555 1_555
O31 C12 1_555 1_555
O32 C12 1_555 1_555
C8 C9 1_555 1_555
C10 C11 1_555 1_555
C5_2 C4_2 1_555 1_555
C6_2 C5_2 1_555 1_555
H3_2 C6_2 1_555 1_555
C7_2 C6_2 1_555 1_555
C8_2 C7_2 1_555 1_555
H4_2 C8_2 1_555 1_555
C9_2 C4_2 1_555 1_555
C10_2 C9_2 1_555 1_555
H5_2 C10_2 1_555 1_555
C12_2 C7_2 1_555 1_555
O5 C12_2 1_555 1_555
O6 C12_2 1_555 1_555
Zn12 O6 1_555 1_555
Zn14 O5 1_555 1_555
C8_2 C9_2 1_555 1_555
C10_2 C11_2 1_555 1_555
C15_2 C14_2 1_555 1_555
H7_2 C15_2 1_555 1_555
C16_2 C15_2 1_555 1_555
H8_2 C16_2 1_555 1_555
C17_2 C16_2 1_555 1_555
C18_2 C17_2 1_555 1_555
H9_2 C18_2 1_555 1_555
C19_2 C18_2 1_555 1_555
C20_2 C19_2 1_555 1_555
H10_2 C20_2 1_555 1_555
C21_2 C20_2 1_555 1_555
H11_2 C21_2 1_555 1_555
C22_2 C17_2 1_555 1_555
C23_2 C14_2 1_555 1_555
H12_2 C23_2 1_555 1_555
C24_2 C19_2 1_555 1_555
O9 C24_2 1_555 1_555
O10 C24_2 1_555 1_555
Zn14 O10 1_555 1_555
Zn16 O9 1_555 1_555
C21_2 C22_2 1_555 1_555
C22_2 C23_2 1_555 1_555
C3_2 C2_2 1_555 1_555
H1_2 C3_2 1_555 1_555
C39_2 C38_2 1_555 1_555
H19_2 C39_2 1_555 1_555
C40_2 C39_2 1_555 1_555
C41_2 C40_2 1_555 1_555
H20_2 C41_2 1_555 1_555
C42_2 C41_2 1_555 1_555
H21_2 C42_2 1_555 1_555
C43_2 C42_2 1_555 1_555
C44_2 C43_2 1_555 1_555
H22_2 C44_2 1_555 1_555
C45_2 C40_2 1_555 1_555
C46_2 C45_2 1_555 1_555
H23_2 C46_2 1_555 1_555
C47_2 C38_2 1_555 1_555
H24_2 C47_2 1_555 1_555
C48_2 C43_2 1_555 1_555
O17 C48_2 1_555 1_555
O18 C48_2 1_555 1_555
Zn12 O18 1_555 1_555
Zn16 O17 1_555 1_555
C44_2 C45_2 1_555 1_555
C46_2 C47_2 1_555 1_555
Zn5 O21_2 1_555 1_555
Zn12 O22_2 1_555 1_555
Zn14 O23_2 1_555 1_555
Zn16 O23_2 1_555 1_555
C51_2 C50_2 1_555 1_555
H25_2 C51_2 1_555 1_555
C52_2 C51_2 1_555 1_555
C53_2 C52_2 1_555 1_555
H26_2 C53_2 1_555 1_555
C54_2 C53_2 1_555 1_555
H27_2 C54_2 1_555 1_555
C55_2 C54_2 1_555 1_555
C56_2 C55_2 1_555 1_555
H28_2 C56_2 1_555 1_555
C57_2 C52_2 1_555 1_555
C58_2 C57_2 1_555 1_555
H29_2 C58_2 1_555 1_555
C59_2 C50_2 1_555 1_555
H30_2 C59_2 1_555 1_555
C60_2 C55_2 1_555 1_555
O21_2 C60_2 1_555 1_555
O22_2 C60_2 1_555 1_555
O23_2 Zn5 1_555 1_555
O24_2 Zn5 1_555 1_555
O25_2 Zn14 1_555 1_555
C61_2 O24_2 1_555 1_555
C62_2 C61_2 1_555 1_555
C63_2 C62_2 1_555 1_555
H31_2 C63_2 1_555 1_555
C64_2 C63_2 1_555 1_555
C65_2 C64_2 1_555 1_555
H32_2 C65_2 1_555 1_555
C66_2 C65_2 1_555 1_555
H33_2 C66_2 1_555 1_555
C69_2 C64_2 1_555 1_555
C70_2 C69_2 1_555 1_555
H35_2 C70_2 1_555 1_555
C71_2 C62_2 1_555 1_555
H36_2 C71_2 1_555 1_555
O29_2 Zn14 1_555 1_555
N2_2 C76_2 1_555 1_555
C76_2 O29_2 1_555 1_555
H44_2 C76_2 1_555 1_555
C77_2 N2_2 1_555 1_555
H45_2 C77_2 1_555 1_555
H46_2 C77_2 1_555 1_555
H47_2 C77_2 1_555 1_555
C78_2 N2_2 1_555 1_555
H48_2 C78_2 1_555 1_555
H49_2 C78_2 1_555 1_555
H50_2 C78_2 1_555 1_555
O30_2 Zn14 1_555 1_555
N3_2 C79_2 1_555 1_555
C79_2 O30_2 1_555 1_555
H51_2 C79_2 1_555 1_555
C81_2 N3_2 1_555 1_555
H55_2 C81_2 1_555 1_555
H57_2 C81_2 1_555 1_555
O35 Zn5 1_555 1_555
O36 Zn16 1_555 1_555
Zn12 O23_2 1_555 1_555
C56_2 C57_2 1_555 1_555
C58_2 C59_2 1_555 1_555
O25_2 C61_2 1_555 1_555
C70_2 C71_2 1_555 1_555
O7_2 Zn2 1_555 1_555
O8_2 Zn3_2 1_555 1_555
C13_2 O7_2 1_555 1_555
O11_2 Zn3_2 1_555 1_555
O12_2 Zn4 1_555 1_555
C25_2 O11_2 1_555 1_555
C26_2 C25_2 1_555 1_555
C27_2 C26_2 1_555 1_555
H13_2 C27_2 1_555 1_555
C28_2 C27_2 1_555 1_555
C29_2 C28_2 1_555 1_555
H14_2 C29_2 1_555 1_555
C30_2 C29_2 1_555 1_555
H15_2 C30_2 1_555 1_555
C31_2 C30_2 1_555 1_555
C32_2 C31_2 1_555 1_555
H16_2 C32_2 1_555 1_555
C33_2 C28_2 1_555 1_555
C34_2 C33_2 1_555 1_555
H17_2 C34_2 1_555 1_555
C35_2 C26_2 1_555 1_555
H18_2 C35_2 1_555 1_555
C36_2 C31_2 1_555 1_555
O35 C36_2 1_555 1_555
O36 C36_2 1_555 1_555
O39 Zn2 1_555 1_555
O40 Zn4 1_555 1_555
O8_2 C13_2 1_555 1_555
O12_2 C25_2 1_555 1_555
C32_2 C33_2 1_555 1_555
C34_2 C35_2 1_555 1_555
Zn1_2 O1_2 1_555 1_555
O2_2 Zn1_2 1_555 1_555
O3_2 Zn1_2 1_555 1_555
C1_2 O3_2 1_555 1_555
O15_2 Zn1_2 1_555 1_555
C37_2 O15_2 1_555 1_555
O19_2 Zn1_2 1_555 1_555
C49_2 O19_2 1_555 1_555
C68_2 C67_2 1_555 1_555
H34_2 C68_2 1_555 1_555
C72_2 C67_2 1_555 1_555
O39 C72_2 1_555 1_555
O40 C72_2 1_555 1_555
O28_2 Zn1_2 1_555 1_555
N1_2 C73_2 1_555 1_555
C73_2 O28_2 1_555 1_555
H37_2 C73_2 1_555 1_555
C74_2 N1_2 1_555 1_555
H38_2 C74_2 1_555 1_555
H39_2 C74_2 1_555 1_555
H40_2 C74_2 1_555 1_555
C75_2 N1_2 1_555 1_555
H41_2 C75_2 1_555 1_555
H42_2 C75_2 1_555 1_555
H43_2 C75_2 1_555 1_555
O4_2 C1_2 1_555 1_555
O16_2 C37_2 1_555 1_555
O20_2 C49_2 1_555 1_555
O2_2 H58_2 1_555 1_555
O2_2 H59_2 1_555 1_555
H52_2 C80_2 1_555 1_555
H53_2 C80_2 1_555 1_555
H54_2 C80_2 1_555 1_555

#END
