
###############################################################################
#
# This file contains modified crystal structure data generated from the
# MOF subset of the Cambridge Structural Database (CSD) v543 
# hosted by the Cambridge Crystallographic Data Centre (CCDC).
#
# This work is licensed under the Creative Commons
# Attribution-NonCommercial-ShareAlike 4.0 International License.
# To view a copy of this license, visit
# http://creativecommons.org/licenses/by-nc-sa/4.0/
# or send a letter to
# Creative Commons, PO Box 1866, Mountain View, CA 94042, USA.
#
# CIF created using the CSD Python API on 29 September 2022
# The structure has been converted into the P1 space group
# The structure has a 3D framework
# The original CSD entry WORNEY is in the tetragonal crystal system
# The framework has been calculated to contain at least 10.0% void space
# The void calculation uses a probe of radius 1.32A, grid spacing 0.4
#
###############################################################################

data_WORNEY
_chemical_formula_moiety         '(C192 H112 F32 N32 Ni16 O64)n'
_symmetry_cell_setting           triclinic
_symmetry_space_group_name_H-M   'P 1'
_symmetry_Int_Tables_number      1
_space_group_name_Hall           'P 1'
loop_
_symmetry_equiv_pos_site_id
_symmetry_equiv_pos_as_xyz
1 x,y,z
_cell_length_a                   20.5004(7)
_cell_length_b                   20.5004(7)
_cell_length_c                   13.9201(6)
_cell_angle_alpha                90
_cell_angle_beta                 90
_cell_angle_gamma                90
_cell_volume                     5850.15
loop_
_atom_site_label
_atom_site_type_symbol
_atom_site_fract_x
_atom_site_fract_y
_atom_site_fract_z
Ni1 Ni 0.382486(17) 0.536016(17) 0.34268(2)
O1 O 0.51639(10) 0.46488(9) 0.65165(13)
O2 O 0.47685(10) 0.37537(9) 0.72505(13)
O3 O 0.19501(11) 0.60321(14) 0.60637(15)
O4 O 0.09636(10) 0.60685(10) 0.53823(14)
O5 O 0.38316(9) 0.61684(9) 0.2500
H1 H 0.3524 0.6165 0.2066
N1 N 0.38726(11) 0.45434(11) 0.43215(16)
N2 N 0.28002(12) 0.54061(12) 0.35404(16)
F1 F 0.34591(12) 0.28514(9) 0.44093(18)
F2 F 0.13870(10) 0.51007(15) 0.21133(15)
C1 C 0.47890(13) 0.41719(14) 0.65825(18)
C2 C 0.43315(13) 0.40725(14) 0.57457(19)
C3 C 0.42250(13) 0.45878(14) 0.51288(19)
H2 H 0.4408 0.4989 0.5282
C4 C 0.36210(16) 0.39586(15) 0.4095(2)
H3 H 0.3379 0.3912 0.3534
C5 C 0.37162(17) 0.34324(15) 0.4678(2)
C6 C 0.40619(16) 0.34736(15) 0.5520(2)
H4 H 0.4113 0.3114 0.5920
C7 C 0.15676(14) 0.59596(14) 0.5376(2)
C8 C 0.18478(14) 0.56946(14) 0.4447(2)
C9 C 0.25174(15) 0.56279(14) 0.4345(2)
H5 H 0.2783 0.5742 0.4860
C10 C 0.24160(15) 0.52350(16) 0.2808(2)
H6 H 0.2602 0.5079 0.2244
C11 C 0.17500(15) 0.52866(18) 0.2876(2)
C12 C 0.14487(15) 0.55162(17) 0.3692(2)
H7 H 0.0997 0.5550 0.3733
H8 H 0.3835 0.6476 0.2934
Ni2 Ni 0.463984(17) 0.617514(17) 0.15732(2)
N3 N 0.54566(11) 0.61274(11) 0.06785(16)
N4 N 0.45939(12) 0.71998(12) 0.14596(16)
F3 F 0.71486(9) 0.65409(12) 0.05907(18)
F4 F 0.48993(15) 0.86130(10) 0.28867(15)
C16 C 0.60414(15) 0.63790(16) 0.0905(2)
H10 H 0.6088 0.6621 0.1466
C17 C 0.65676(15) 0.62838(17) 0.0322(2)
C20 C 0.43054(14) 0.81522(14) 0.0553(2)
C21 C 0.43721(14) 0.74826(15) 0.0655(2)
H12 H 0.4258 0.7217 0.0140
C22 C 0.47650(16) 0.75840(15) 0.2192(2)
H13 H 0.4921 0.7398 0.2756
C23 C 0.47134(18) 0.82500(15) 0.2124(2)
C24 C 0.44838(17) 0.85513(15) 0.1308(2)
H14 H 0.4450 0.9003 0.1267
Ni4 Ni 0.617514(17) 0.463984(17) 0.65732(2)
Ni5 Ni 0.036016(17) 0.617514(17) 0.65732(2)
Ni7 Ni 0.536016(17) 0.382486(17) 0.84268(2)
O10 O 0.48361(10) 0.53512(9) 0.34835(13)
O11 O 0.46488(9) 0.51639(10) 0.15165(13)
O12 O 0.52315(10) 0.62463(9) 0.27495(13)
O13 O 0.37537(9) 0.47685(10) 0.22505(13)
O14 O 0.40364(10) 0.60685(10) 0.03823(14)
O15 O 0.39315(10) 0.59636(10) 0.46177(14)
O6 O 0.53512(9) 0.48361(10) 0.84835(13)
O7 O 0.62463(9) 0.52315(10) 0.77495(13)
O8 O 0.39679(14) 0.80499(11) 0.89363(15)
O9 O 0.39315(10) 0.90364(10) 0.96177(14)
C13 C 0.58281(14) 0.52110(13) 0.84175(18)
C14 C 0.59275(14) 0.56685(13) 0.92543(19)
C15 C 0.54122(14) 0.57750(13) 0.98712(19)
H9 H 0.5011 0.5592 0.9718
C18 C 0.65264(15) 0.59381(16) 0.9480(2)
H11 H 0.6886 0.5887 0.9080
C19 C 0.40404(14) 0.84324(14) 0.9624(2)
Ni8 Ni 0.382486(17) 0.963984(17) 0.84268(2)
O1_2 O 0.03512(9) 0.51639(10) 0.65165(13)
O2_2 O 0.12463(9) 0.47685(10) 0.72505(13)
N1_2 N 0.04566(11) 0.38726(11) 0.43215(16)
F1_2 F 0.21486(9) 0.34591(12) 0.44093(18)
C1_2 C 0.08281(14) 0.47890(13) 0.65825(18)
C2_2 C 0.09275(14) 0.43315(13) 0.57457(19)
C3_2 C 0.04122(14) 0.42250(13) 0.51288(19)
H2_2 H 0.0011 0.4408 0.5282
C4_2 C 0.10414(15) 0.36210(16) 0.4095(2)
H3_2 H 0.1088 0.3379 0.3534
C5_2 C 0.15676(15) 0.37162(17) 0.4678(2)
C6_2 C 0.15264(15) 0.40619(16) 0.5520(2)
H4_2 H 0.1886 0.4113 0.5920
Ni7_2 Ni 0.117514(17) 0.536016(17) 0.84268(2)
O13_2 O 0.02315(10) 0.37537(9) 0.22505(13)
O6_2 O 0.01639(10) 0.53512(9) 0.84835(13)
Ni1_2 Ni 0.963984(17) 0.382486(17) 0.34268(2)
O3_2 O 0.89679(14) 0.19501(11) 0.60637(15)
O4_2 O 0.89315(10) 0.09636(10) 0.53823(14)
O5_2 O 0.88316(9) 0.38316(9) 0.2500
H1_2 H 0.8835 0.3524 0.2066
N2_2 N 0.95939(12) 0.28002(12) 0.35404(16)
F2_2 F 0.98993(15) 0.13870(10) 0.21133(15)
C7_2 C 0.90404(14) 0.15676(14) 0.5376(2)
C8_2 C 0.93054(14) 0.18478(14) 0.4447(2)
C9_2 C 0.93721(14) 0.25174(15) 0.4345(2)
H5_2 H 0.9258 0.2783 0.4860
C10_2 C 0.97650(16) 0.24160(15) 0.2808(2)
H6_2 H 0.9921 0.2602 0.2244
C11_2 C 0.97134(18) 0.17500(15) 0.2876(2)
C12_2 C 0.94838(17) 0.14487(15) 0.3692(2)
H7_2 H 0.9450 0.0997 0.3733
H8_2 H 0.8524 0.3835 0.2934
Ni2_2 Ni 0.882486(17) 0.463984(17) 0.15732(2)
N3_2 N 0.88726(11) 0.54566(11) 0.06785(16)
N4_2 N 0.78002(12) 0.45939(12) 0.14596(16)
F3_2 F 0.84591(12) 0.71486(9) 0.05907(18)
F4_2 F 0.63870(10) 0.48993(15) 0.28867(15)
C16_2 C 0.86210(16) 0.60414(15) 0.0905(2)
H10_2 H 0.8379 0.6088 0.1466
C17_2 C 0.87162(17) 0.65676(15) 0.0322(2)
C20_2 C 0.68478(14) 0.43054(14) 0.0553(2)
C21_2 C 0.75174(15) 0.43721(14) 0.0655(2)
H12_2 H 0.7783 0.4258 0.0140
C22_2 C 0.74160(15) 0.47650(16) 0.2192(2)
H13_2 H 0.7602 0.4921 0.2756
C23_2 C 0.67500(15) 0.47134(18) 0.2124(2)
C24_2 C 0.64487(15) 0.44838(17) 0.1308(2)
H14_2 H 0.5997 0.4450 0.1267
Ni5_2 Ni 0.882486(17) 0.036016(17) 0.65732(2)
O10_2 O 0.96488(9) 0.48361(10) 0.34835(13)
O11_2 O 0.98361(10) 0.46488(9) 0.15165(13)
O12_2 O 0.87537(9) 0.52315(10) 0.27495(13)
O14_2 O 0.89315(10) 0.40364(10) 0.03823(14)
O15_2 O 0.90364(10) 0.39315(10) 0.46177(14)
O7_2 O 0.97685(10) 0.62463(9) 0.77495(13)
O8_2 O 0.69501(11) 0.39679(14) 0.89363(15)
O9_2 O 0.59636(10) 0.39315(10) 0.96177(14)
C13_2 C 0.97890(13) 0.58281(14) 0.84175(18)
C14_2 C 0.93315(13) 0.59275(14) 0.92543(19)
C15_2 C 0.92250(13) 0.54122(14) 0.98712(19)
H9_2 H 0.9408 0.5011 0.9718
C18_2 C 0.90619(16) 0.65264(15) 0.9480(2)
H11_2 H 0.9113 0.6886 0.9080
C19_2 C 0.65676(14) 0.40404(14) 0.9624(2)
Ni1_3 Ni 0.117514(17) 0.963984(17) 0.34268(2)
O3_3 O 0.30499(11) 0.89679(14) 0.60637(15)
O4_3 O 0.40364(10) 0.89315(10) 0.53823(14)
O5_3 O 0.11684(9) 0.88316(9) 0.2500
H1_3 H 0.1476 0.8835 0.2066
N2_3 N 0.21998(12) 0.95939(12) 0.35404(16)
F2_3 F 0.36130(10) 0.98993(15) 0.21133(15)
C7_3 C 0.34324(14) 0.90404(14) 0.5376(2)
C8_3 C 0.31522(14) 0.93054(14) 0.4447(2)
C9_3 C 0.24826(15) 0.93721(14) 0.4345(2)
H5_3 H 0.2217 0.9258 0.4860
C10_3 C 0.25840(15) 0.97650(16) 0.2808(2)
H6_3 H 0.2398 0.9921 0.2244
C11_3 C 0.32500(15) 0.97134(18) 0.2876(2)
C12_3 C 0.35513(15) 0.94838(17) 0.3692(2)
H7_3 H 0.4003 0.9450 0.3733
H8_3 H 0.1165 0.8524 0.2934
Ni2_3 Ni 0.036016(17) 0.882486(17) 0.15732(2)
N4_3 N 0.04061(12) 0.78002(12) 0.14596(16)
F4_3 F 0.01007(15) 0.63870(10) 0.28867(15)
C20_3 C 0.06946(14) 0.68478(14) 0.0553(2)
C21_3 C 0.06279(14) 0.75174(15) 0.0655(2)
H12_3 H 0.0742 0.7783 0.0140
C22_3 C 0.02350(16) 0.74160(15) 0.2192(2)
H13_3 H 0.0079 0.7602 0.2756
C23_3 C 0.02866(18) 0.67500(15) 0.2124(2)
C24_3 C 0.05162(17) 0.64487(15) 0.1308(2)
H14_3 H 0.0550 0.5997 0.1267
Ni5_3 Ni 0.463984(17) 0.882486(17) 0.65732(2)
O10_3 O 0.01639(10) 0.96488(9) 0.34835(13)
O11_3 O 0.03512(9) 0.98361(10) 0.15165(13)
O14_3 O 0.09636(10) 0.89315(10) 0.03823(14)
O15_3 O 0.10685(10) 0.90364(10) 0.46177(14)
O8_3 O 0.10321(14) 0.69501(11) 0.89363(15)
O9_3 O 0.10685(10) 0.59636(10) 0.96177(14)
C19_3 C 0.09596(14) 0.65676(14) 0.9624(2)
O1_3 O 0.98361(10) 0.03512(9) 0.65165(13)
Ni7_3 Ni 0.963984(17) 0.117514(17) 0.84268(2)
O6_3 O 0.96488(9) 0.01639(10) 0.84835(13)
Ni1_4 Ni 0.536016(17) 0.117514(17) 0.34268(2)
O2_3 O 0.37537(9) 0.02315(10) 0.72505(13)
O3_4 O 0.60321(14) 0.30499(11) 0.60637(15)
O4_4 O 0.60685(10) 0.40364(10) 0.53823(14)
O5_4 O 0.61684(9) 0.11684(9) 0.2500
H1_4 H 0.6165 0.1476 0.2066
N1_3 N 0.45434(11) 0.11274(11) 0.43215(16)
N2_4 N 0.54061(12) 0.21998(12) 0.35404(16)
F1_3 F 0.28514(9) 0.15409(12) 0.44093(18)
F2_4 F 0.51007(15) 0.36130(10) 0.21133(15)
C1_3 C 0.41719(14) 0.02110(13) 0.65825(18)
C2_3 C 0.40725(14) 0.06685(13) 0.57457(19)
C3_3 C 0.45878(14) 0.07750(13) 0.51288(19)
H2_3 H 0.4989 0.0592 0.5282
C4_3 C 0.39586(15) 0.13790(16) 0.4095(2)
H3_3 H 0.3912 0.1621 0.3534
C5_3 C 0.34324(15) 0.12838(17) 0.4678(2)
C6_3 C 0.34736(15) 0.09381(16) 0.5520(2)
H4_3 H 0.3114 0.0887 0.5920
C7_4 C 0.59596(14) 0.34324(14) 0.5376(2)
C8_4 C 0.56946(14) 0.31522(14) 0.4447(2)
C9_4 C 0.56279(14) 0.24826(15) 0.4345(2)
H5_4 H 0.5742 0.2217 0.4860
C10_4 C 0.52350(16) 0.25840(15) 0.2808(2)
H6_4 H 0.5079 0.2398 0.2244
C11_4 C 0.52866(18) 0.32500(15) 0.2876(2)
C12_4 C 0.55162(17) 0.35513(15) 0.3692(2)
H7_4 H 0.5550 0.4003 0.3733
H8_4 H 0.6476 0.1165 0.2934
Ni2_4 Ni 0.617514(17) 0.036016(17) 0.15732(2)
N4_4 N 0.71998(12) 0.04061(12) 0.14596(16)
F4_4 F 0.86130(10) 0.01007(15) 0.28867(15)
C20_4 C 0.81522(14) 0.06946(14) 0.0553(2)
C21_4 C 0.74826(15) 0.06279(14) 0.0655(2)
H12_4 H 0.7217 0.0742 0.0140
C22_4 C 0.75840(15) 0.02350(16) 0.2192(2)
H13_4 H 0.7398 0.0079 0.2756
C23_4 C 0.82500(15) 0.02866(18) 0.2124(2)
C24_4 C 0.85513(15) 0.05162(17) 0.1308(2)
H14_4 H 0.9003 0.0550 0.1267
O10_4 O 0.53512(9) 0.01639(10) 0.34835(13)
O11_4 O 0.51639(10) 0.03512(9) 0.15165(13)
O13_3 O 0.47685(10) 0.12463(9) 0.22505(13)
O14_4 O 0.60685(10) 0.09636(10) 0.03823(14)
O15_4 O 0.59636(10) 0.10685(10) 0.46177(14)
O8_4 O 0.80499(11) 0.10321(14) 0.89363(15)
O9_4 O 0.90364(10) 0.10685(10) 0.96177(14)
C19_4 C 0.84324(14) 0.09596(14) 0.9624(2)
O1_4 O 0.46488(9) 0.98361(10) 0.65165(13)
N3_3 N 0.61274(11) 0.95434(11) 0.06785(16)
F3_3 F 0.65409(12) 0.78514(9) 0.05907(18)
C16_3 C 0.63790(16) 0.89586(15) 0.0905(2)
H10_3 H 0.6621 0.8912 0.1466
C17_3 C 0.62838(17) 0.84324(15) 0.0322(2)
O12_3 O 0.62463(9) 0.97685(10) 0.27495(13)
O6_4 O 0.48361(10) 0.96488(9) 0.84835(13)
O7_3 O 0.52315(10) 0.87537(9) 0.77495(13)
C13_3 C 0.52110(13) 0.91719(14) 0.84175(18)
C14_3 C 0.56685(13) 0.90725(14) 0.92543(19)
C15_3 C 0.57750(13) 0.95878(14) 0.98712(19)
H9_3 H 0.5592 0.9989 0.9718
C18_3 C 0.59381(16) 0.84736(15) 0.9480(2)
H11_3 H 0.5887 0.8114 0.9080
O8_5 O 0.60321(14) 0.19501(11) 0.10637(15)
C13_4 C 0.41719(14) 0.47890(13) 0.15825(18)
C14_4 C 0.40725(14) 0.43315(13) 0.07457(19)
C15_4 C 0.45878(14) 0.42250(13) 0.01288(19)
H9_4 H 0.4989 0.4408 0.0282
C18_4 C 0.34736(15) 0.40619(16) 0.0520(2)
H11_4 H 0.3114 0.4113 0.0920
C19_5 C 0.59596(14) 0.15676(14) 0.0376(2)
O3_5 O 0.80499(11) 0.39679(14) 0.39363(15)
O5_5 O 0.61684(9) 0.38316(9) 0.7500
H1_5 H 0.6476 0.3835 0.7934
N1_4 N 0.61274(11) 0.54566(11) 0.56785(16)
N2_5 N 0.71998(12) 0.45939(12) 0.64596(16)
F1_4 F 0.65409(12) 0.71486(9) 0.55907(18)
F2_5 F 0.86130(10) 0.48993(15) 0.78867(15)
C1_4 C 0.52110(13) 0.58281(14) 0.34175(18)
C2_4 C 0.56685(13) 0.59275(14) 0.42543(19)
C3_4 C 0.57750(13) 0.54122(14) 0.48712(19)
H2_4 H 0.5592 0.5011 0.4718
C4_4 C 0.63790(16) 0.60414(15) 0.5905(2)
H3_4 H 0.6621 0.6088 0.6466
C5_4 C 0.62838(17) 0.65676(15) 0.5322(2)
C6_4 C 0.59381(16) 0.65264(15) 0.4480(2)
H4_4 H 0.5887 0.6886 0.4080
C7_5 C 0.84324(14) 0.40404(14) 0.4624(2)
C8_5 C 0.81522(14) 0.43054(14) 0.5553(2)
C9_5 C 0.74826(15) 0.43721(14) 0.5655(2)
H5_5 H 0.7217 0.4258 0.5140
C10_5 C 0.75840(15) 0.47650(16) 0.7192(2)
H6_5 H 0.7398 0.4921 0.7756
C11_5 C 0.82500(15) 0.47134(18) 0.7124(2)
C12_5 C 0.85513(15) 0.44838(17) 0.6308(2)
H7_5 H 0.9003 0.4450 0.6267
H8_5 H 0.6165 0.3524 0.7066
N3_4 N 0.45434(11) 0.38726(11) 0.93215(16)
N4_5 N 0.54061(12) 0.28002(12) 0.85404(16)
F3_4 F 0.28514(9) 0.34591(12) 0.94093(18)
F4_5 F 0.51007(15) 0.13870(10) 0.71133(15)
C16_4 C 0.39586(15) 0.36210(16) 0.9095(2)
H10_4 H 0.3912 0.3379 0.8534
C17_4 C 0.34324(15) 0.37162(17) 0.9678(2)
C20_5 C 0.56946(14) 0.18478(14) 0.9447(2)
C21_5 C 0.56279(14) 0.25174(15) 0.9345(2)
H12_5 H 0.5742 0.2783 0.9860
C22_5 C 0.52350(16) 0.24160(15) 0.7808(2)
H13_5 H 0.5079 0.2602 0.7244
C23_5 C 0.52866(18) 0.17500(15) 0.7876(2)
C24_5 C 0.55162(17) 0.14487(15) 0.8692(2)
H14_5 H 0.5550 0.0997 0.8733
O8_6 O 0.30499(11) 0.60321(14) 0.10637(15)
C13_5 C 0.02110(13) 0.41719(14) 0.15825(18)
C14_5 C 0.06685(13) 0.40725(14) 0.07457(19)
C15_5 C 0.07750(13) 0.45878(14) 0.01288(19)
H9_5 H 0.0592 0.4989 0.0282
C18_5 C 0.09381(16) 0.34736(15) 0.0520(2)
H11_5 H 0.0887 0.3114 0.0920
C19_6 C 0.34324(14) 0.59596(14) 0.0376(2)
O3_6 O 0.10321(14) 0.80499(11) 0.39363(15)
O5_6 O 0.11684(9) 0.61684(9) 0.7500
H1_6 H 0.1165 0.6476 0.7934
N2_6 N 0.04061(12) 0.71998(12) 0.64596(16)
F2_6 F 0.01007(15) 0.86130(10) 0.78867(15)
C7_6 C 0.09596(14) 0.84324(14) 0.4624(2)
C8_6 C 0.06946(14) 0.81522(14) 0.5553(2)
C9_6 C 0.06279(14) 0.74826(15) 0.5655(2)
H5_6 H 0.0742 0.7217 0.5140
C10_6 C 0.02350(16) 0.75840(15) 0.7192(2)
H6_6 H 0.0079 0.7398 0.7756
C11_6 C 0.02866(18) 0.82500(15) 0.7124(2)
C12_6 C 0.05162(17) 0.85513(15) 0.6308(2)
H7_6 H 0.0550 0.9003 0.6267
H8_6 H 0.1476 0.6165 0.7066
N3_5 N 0.11274(11) 0.45434(11) 0.93215(16)
N4_6 N 0.21998(12) 0.54061(12) 0.85404(16)
F3_5 F 0.15409(12) 0.28514(9) 0.94093(18)
F4_6 F 0.36130(10) 0.51007(15) 0.71133(15)
C16_5 C 0.13790(16) 0.39586(15) 0.9095(2)
H10_5 H 0.1621 0.3912 0.8534
C17_5 C 0.12838(17) 0.34324(15) 0.9678(2)
C20_6 C 0.31522(14) 0.56946(14) 0.9447(2)
C21_6 C 0.24826(15) 0.56279(14) 0.9345(2)
H12_6 H 0.2217 0.5742 0.9860
C22_6 C 0.25840(15) 0.52350(16) 0.7808(2)
H13_6 H 0.2398 0.5079 0.7244
C23_6 C 0.32500(15) 0.52866(18) 0.7876(2)
C24_6 C 0.35513(15) 0.55162(17) 0.8692(2)
H14_6 H 0.4003 0.5550 0.8733
N1_5 N 0.95434(11) 0.61274(11) 0.56785(16)
F1_5 F 0.78514(9) 0.65409(12) 0.55907(18)
C1_5 C 0.91719(14) 0.52110(13) 0.34175(18)
C2_5 C 0.90725(14) 0.56685(13) 0.42543(19)
C3_5 C 0.95878(14) 0.57750(13) 0.48712(19)
H2_5 H 0.9989 0.5592 0.4718
C4_5 C 0.89586(15) 0.63790(16) 0.5905(2)
H3_5 H 0.8912 0.6621 0.6466
C5_5 C 0.84324(15) 0.62838(17) 0.5322(2)
C6_5 C 0.84736(15) 0.59381(16) 0.4480(2)
H4_5 H 0.8114 0.5887 0.4080
O8_7 O 0.89679(14) 0.30499(11) 0.10637(15)
C19_7 C 0.90404(14) 0.34324(14) 0.0376(2)
O3_7 O 0.69501(11) 0.10321(14) 0.39363(15)
O5_7 O 0.88316(9) 0.11684(9) 0.7500
H1_7 H 0.8524 0.1165 0.7934
N2_7 N 0.78002(12) 0.04061(12) 0.64596(16)
F2_7 F 0.63870(10) 0.01007(15) 0.78867(15)
C7_7 C 0.65676(14) 0.09596(14) 0.4624(2)
C8_7 C 0.68478(14) 0.06946(14) 0.5553(2)
C9_7 C 0.75174(15) 0.06279(14) 0.5655(2)
H5_7 H 0.7783 0.0742 0.5140
C10_7 C 0.74160(15) 0.02350(16) 0.7192(2)
H6_7 H 0.7602 0.0079 0.7756
C11_7 C 0.67500(15) 0.02866(18) 0.7124(2)
C12_7 C 0.64487(15) 0.05162(17) 0.6308(2)
H7_7 H 0.5997 0.0550 0.6267
H8_7 H 0.8835 0.1476 0.7066
N4_7 N 0.95939(12) 0.21998(12) 0.85404(16)
F4_7 F 0.98993(15) 0.36130(10) 0.71133(15)
C20_7 C 0.93054(14) 0.31522(14) 0.9447(2)
C21_7 C 0.93721(14) 0.24826(15) 0.9345(2)
H12_7 H 0.9258 0.2217 0.9860
C22_7 C 0.97650(16) 0.25840(15) 0.7808(2)
H13_7 H 0.9921 0.2398 0.7244
C23_7 C 0.97134(18) 0.32500(15) 0.7876(2)
C24_7 C 0.94838(17) 0.35513(15) 0.8692(2)
H14_7 H 0.9450 0.4003 0.8733
C13_6 C 0.47890(13) 0.08281(14) 0.15825(18)
C14_6 C 0.43315(13) 0.09275(14) 0.07457(19)
C15_6 C 0.42250(13) 0.04122(14) 0.01288(19)
H9_6 H 0.4408 0.0011 0.0282
C18_6 C 0.40619(16) 0.15264(15) 0.0520(2)
H11_6 H 0.4113 0.1886 0.0920
N3_6 N 0.38726(11) 0.04566(11) 0.93215(16)
F3_6 F 0.34591(12) 0.21486(9) 0.94093(18)
C16_6 C 0.36210(16) 0.10414(15) 0.9095(2)
H10_6 H 0.3379 0.1088 0.8534
C17_6 C 0.37162(17) 0.15676(15) 0.9678(2)
O8_8 O 0.19501(11) 0.89679(14) 0.10637(15)
C19_8 C 0.15676(14) 0.90404(14) 0.0376(2)
O3_8 O 0.39679(14) 0.69501(11) 0.39363(15)
O5_8 O 0.38316(9) 0.88316(9) 0.7500
H1_8 H 0.3835 0.8524 0.7934
N1_6 N 0.54566(11) 0.88726(11) 0.56785(16)
N2_8 N 0.45939(12) 0.78002(12) 0.64596(16)
F1_6 F 0.71486(9) 0.84591(12) 0.55907(18)
F2_8 F 0.48993(15) 0.63870(10) 0.78867(15)
C1_6 C 0.58281(14) 0.97890(13) 0.34175(18)
C2_6 C 0.59275(14) 0.93315(13) 0.42543(19)
C3_6 C 0.54122(14) 0.92250(13) 0.48712(19)
H2_6 H 0.5011 0.9408 0.4718
C4_6 C 0.60414(15) 0.86210(16) 0.5905(2)
H3_6 H 0.6088 0.8379 0.6466
C5_6 C 0.65676(15) 0.87162(17) 0.5322(2)
C6_6 C 0.65264(15) 0.90619(16) 0.4480(2)
H4_6 H 0.6886 0.9113 0.4080
C7_8 C 0.40404(14) 0.65676(14) 0.4624(2)
C8_8 C 0.43054(14) 0.68478(14) 0.5553(2)
C9_8 C 0.43721(14) 0.75174(15) 0.5655(2)
H5_8 H 0.4258 0.7783 0.5140
C10_8 C 0.47650(16) 0.74160(15) 0.7192(2)
H6_8 H 0.4921 0.7602 0.7756
C11_8 C 0.47134(18) 0.67500(15) 0.7124(2)
C12_8 C 0.44838(17) 0.64487(15) 0.6308(2)
H7_8 H 0.4450 0.5997 0.6267
H8_8 H 0.3524 0.8835 0.7066
N4_8 N 0.28002(12) 0.95939(12) 0.85404(16)
F4_8 F 0.13870(10) 0.98993(15) 0.71133(15)
C20_8 C 0.18478(14) 0.93054(14) 0.9447(2)
C21_8 C 0.25174(15) 0.93721(14) 0.9345(2)
H12_8 H 0.2783 0.9258 0.9860
C22_8 C 0.24160(15) 0.97650(16) 0.7808(2)
H13_8 H 0.2602 0.9921 0.7244
C23_8 C 0.17500(15) 0.97134(18) 0.7876(2)
C24_8 C 0.14487(15) 0.94838(17) 0.8692(2)
H14_8 H 0.0997 0.9450 0.8733
O2_4 O 0.02315(10) 0.12463(9) 0.72505(13)
N1_7 N 0.11274(11) 0.04566(11) 0.43215(16)
F1_7 F 0.15409(12) 0.21486(9) 0.44093(18)
C1_7 C 0.02110(13) 0.08281(14) 0.65825(18)
C2_7 C 0.06685(13) 0.09275(14) 0.57457(19)
C3_7 C 0.07750(13) 0.04122(14) 0.51288(19)
H2_7 H 0.0592 0.0011 0.5282
C4_7 C 0.13790(16) 0.10414(15) 0.4095(2)
H3_7 H 0.1621 0.1088 0.3534
C5_7 C 0.12838(17) 0.15676(15) 0.4678(2)
C6_7 C 0.09381(16) 0.15264(15) 0.5520(2)
H4_7 H 0.0887 0.1886 0.5920
O13_4 O 0.12463(9) 0.02315(10) 0.22505(13)
C13_7 C 0.08281(14) 0.02110(13) 0.15825(18)
C14_7 C 0.09275(14) 0.06685(13) 0.07457(19)
C15_7 C 0.04122(14) 0.07750(13) 0.01288(19)
H9_7 H 0.0011 0.0592 0.0282
C18_7 C 0.15264(15) 0.09381(16) 0.0520(2)
H11_7 H 0.1886 0.0887 0.0920
N3_7 N 0.04566(11) 0.11274(11) 0.93215(16)
F3_7 F 0.21486(9) 0.15409(12) 0.94093(18)
C16_7 C 0.10414(15) 0.13790(16) 0.9095(2)
H10_7 H 0.1088 0.1621 0.8534
C17_7 C 0.15676(15) 0.12838(17) 0.9678(2)
N3_8 N 0.95434(11) 0.88726(11) 0.06785(16)
F3_8 F 0.78514(9) 0.84591(12) 0.05907(18)
C16_8 C 0.89586(15) 0.86210(16) 0.0905(2)
H10_8 H 0.8912 0.8379 0.1466
C17_8 C 0.84324(15) 0.87162(17) 0.0322(2)
O12_4 O 0.97685(10) 0.87537(9) 0.27495(13)
O7_4 O 0.87537(9) 0.97685(10) 0.77495(13)
C13_8 C 0.91719(14) 0.97890(13) 0.84175(18)
C14_8 C 0.90725(14) 0.93315(13) 0.92543(19)
C15_8 C 0.95878(14) 0.92250(13) 0.98712(19)
H9_8 H 0.9989 0.9408 0.9718
C18_8 C 0.84736(15) 0.90619(16) 0.9480(2)
H11_8 H 0.8114 0.9113 0.9080
N1_8 N 0.88726(11) 0.95434(11) 0.56785(16)
F1_8 F 0.84591(12) 0.78514(9) 0.55907(18)
C1_8 C 0.97890(13) 0.91719(14) 0.34175(18)
C2_8 C 0.93315(13) 0.90725(14) 0.42543(19)
C3_8 C 0.92250(13) 0.95878(14) 0.48712(19)
H2_8 H 0.9408 0.9989 0.4718
C4_8 C 0.86210(16) 0.89586(15) 0.5905(2)
H3_8 H 0.8379 0.8912 0.6466
C5_8 C 0.87162(17) 0.84324(15) 0.5322(2)
C6_8 C 0.90619(16) 0.84736(15) 0.4480(2)
H4_8 H 0.9113 0.8114 0.4080
loop_
_geom_bond_atom_site_label_1
_geom_bond_atom_site_label_2
_geom_bond_site_symmetry_1
_geom_bond_site_symmetry_2
Ni1 O5 1_555 1_555
O1 C1 1_555 1_555
O2 C1 1_555 1_555
O3 C7 1_555 1_555
O4 C7 1_555 1_555
O5 H1 1_555 1_555
N1 Ni1 1_555 1_555
N2 Ni1 1_555 1_555
F1 C5 1_555 1_555
F2 C11 1_555 1_555
C1 C2 1_555 1_555
C2 C3 1_555 1_555
C3 N1 1_555 1_555
H2 C3 1_555 1_555
C4 N1 1_555 1_555
H3 C4 1_555 1_555
C5 C4 1_555 1_555
C6 C2 1_555 1_555
H4 C6 1_555 1_555
C7 C8 1_555 1_555
C8 C9 1_555 1_555
C9 N2 1_555 1_555
H5 C9 1_555 1_555
C10 N2 1_555 1_555
H6 C10 1_555 1_555
C11 C10 1_555 1_555
C12 C8 1_555 1_555
H7 C12 1_555 1_555
H8 O5 1_555 1_555
Ni2 O5 1_555 1_555
N3 Ni2 1_555 1_555
N4 Ni2 1_555 1_555
F3 C17 1_555 1_555
F4 C23 1_555 1_555
C16 N3 1_555 1_555
H10 C16 1_555 1_555
C17 C16 1_555 1_555
C20 C21 1_555 1_555
C21 N4 1_555 1_555
H12 C21 1_555 1_555
C22 N4 1_555 1_555
H13 C22 1_555 1_555
C23 C22 1_555 1_555
C24 C20 1_555 1_555
H14 C24 1_555 1_555
Ni4 O1 1_555 1_555
Ni5 O4 1_555 1_555
Ni7 O2 1_555 1_555
O10 Ni1 1_555 1_555
O11 Ni2 1_555 1_555
O12 Ni2 1_555 1_555
O13 Ni1 1_555 1_555
O14 Ni2 1_555 1_555
O15 Ni1 1_555 1_555
C5 C6 1_555 1_555
C11 C12 1_555 1_555
C23 C24 1_555 1_555
O6 C13 1_555 1_555
O7 C13 1_555 1_555
O8 C19 1_555 1_555
O9 C19 1_555 1_555
C13 C14 1_555 1_555
C14 C15 1_555 1_555
H9 C15 1_555 1_555
C18 C14 1_555 1_555
H11 C18 1_555 1_555
Ni4 O7 1_555 1_555
Ni7 O6 1_555 1_555
Ni8 O9 1_555 1_555
O1_2 C1_2 1_555 1_555
O2_2 C1_2 1_555 1_555
F1_2 C5_2 1_555 1_555
C1_2 C2_2 1_555 1_555
C2_2 C3_2 1_555 1_555
C3_2 N1_2 1_555 1_555
H2_2 C3_2 1_555 1_555
C4_2 N1_2 1_555 1_555
H3_2 C4_2 1_555 1_555
C5_2 C4_2 1_555 1_555
C6_2 C2_2 1_555 1_555
H4_2 C6_2 1_555 1_555
Ni5 O1_2 1_555 1_555
Ni7_2 O2_2 1_555 1_555
C5_2 C6_2 1_555 1_555
Ni7_2 O6_2 1_555 1_555
Ni1_2 O5_2 1_555 1_555
O3_2 C7_2 1_555 1_555
O4_2 C7_2 1_555 1_555
O5_2 H1_2 1_555 1_555
N2_2 Ni1_2 1_555 1_555
F2_2 C11_2 1_555 1_555
C7_2 C8_2 1_555 1_555
C8_2 C9_2 1_555 1_555
C9_2 N2_2 1_555 1_555
H5_2 C9_2 1_555 1_555
C10_2 N2_2 1_555 1_555
H6_2 C10_2 1_555 1_555
C11_2 C10_2 1_555 1_555
C12_2 C8_2 1_555 1_555
H7_2 C12_2 1_555 1_555
H8_2 O5_2 1_555 1_555
Ni2_2 O5_2 1_555 1_555
N3_2 Ni2_2 1_555 1_555
N4_2 Ni2_2 1_555 1_555
F3_2 C17_2 1_555 1_555
F4_2 C23_2 1_555 1_555
C16_2 N3_2 1_555 1_555
H10_2 C16_2 1_555 1_555
C17_2 C16_2 1_555 1_555
C20_2 C21_2 1_555 1_555
C21_2 N4_2 1_555 1_555
H12_2 C21_2 1_555 1_555
C22_2 N4_2 1_555 1_555
H13_2 C22_2 1_555 1_555
C23_2 C22_2 1_555 1_555
C24_2 C20_2 1_555 1_555
H14_2 C24_2 1_555 1_555
Ni5_2 O4_2 1_555 1_555
O10_2 Ni1_2 1_555 1_555
O11_2 Ni2_2 1_555 1_555
O12_2 Ni2_2 1_555 1_555
O14_2 Ni2_2 1_555 1_555
O15_2 Ni1_2 1_555 1_555
C11_2 C12_2 1_555 1_555
C23_2 C24_2 1_555 1_555
O7_2 C13_2 1_555 1_555
O8_2 C19_2 1_555 1_555
O9_2 C19_2 1_555 1_555
C13_2 C14_2 1_555 1_555
C14_2 C15_2 1_555 1_555
H9_2 C15_2 1_555 1_555
C18_2 C14_2 1_555 1_555
H11_2 C18_2 1_555 1_555
Ni7 O9_2 1_555 1_555
Ni1_3 O5_3 1_555 1_555
O3_3 C7_3 1_555 1_555
O4_3 C7_3 1_555 1_555
O5_3 H1_3 1_555 1_555
N2_3 Ni1_3 1_555 1_555
F2_3 C11_3 1_555 1_555
C7_3 C8_3 1_555 1_555
C8_3 C9_3 1_555 1_555
C9_3 N2_3 1_555 1_555
H5_3 C9_3 1_555 1_555
C10_3 N2_3 1_555 1_555
H6_3 C10_3 1_555 1_555
C11_3 C10_3 1_555 1_555
C12_3 C8_3 1_555 1_555
H7_3 C12_3 1_555 1_555
H8_3 O5_3 1_555 1_555
Ni2_3 O5_3 1_555 1_555
N4_3 Ni2_3 1_555 1_555
F4_3 C23_3 1_555 1_555
C20_3 C21_3 1_555 1_555
C21_3 N4_3 1_555 1_555
H12_3 C21_3 1_555 1_555
C22_3 N4_3 1_555 1_555
H13_3 C22_3 1_555 1_555
C23_3 C22_3 1_555 1_555
C24_3 C20_3 1_555 1_555
H14_3 C24_3 1_555 1_555
Ni5_3 O4_3 1_555 1_555
O10_3 Ni1_3 1_555 1_555
O11_3 Ni2_3 1_555 1_555
O14_3 Ni2_3 1_555 1_555
O15_3 Ni1_3 1_555 1_555
C11_3 C12_3 1_555 1_555
C23_3 C24_3 1_555 1_555
O8_3 C19_3 1_555 1_555
O9_3 C19_3 1_555 1_555
Ni7_2 O9_3 1_555 1_555
Ni5_2 O1_3 1_555 1_555
Ni7_3 O6_3 1_555 1_555
Ni1_4 O5_4 1_555 1_555
O2_3 C1_3 1_555 1_555
O3_4 C7_4 1_555 1_555
O4_4 C7_4 1_555 1_555
O5_4 H1_4 1_555 1_555
N1_3 Ni1_4 1_555 1_555
N2_4 Ni1_4 1_555 1_555
F1_3 C5_3 1_555 1_555
F2_4 C11_4 1_555 1_555
C1_3 C2_3 1_555 1_555
C2_3 C3_3 1_555 1_555
C3_3 N1_3 1_555 1_555
H2_3 C3_3 1_555 1_555
C4_3 N1_3 1_555 1_555
H3_3 C4_3 1_555 1_555
C5_3 C4_3 1_555 1_555
C6_3 C2_3 1_555 1_555
H4_3 C6_3 1_555 1_555
C7_4 C8_4 1_555 1_555
C8_4 C9_4 1_555 1_555
C9_4 N2_4 1_555 1_555
H5_4 C9_4 1_555 1_555
C10_4 N2_4 1_555 1_555
H6_4 C10_4 1_555 1_555
C11_4 C10_4 1_555 1_555
C12_4 C8_4 1_555 1_555
H7_4 C12_4 1_555 1_555
H8_4 O5_4 1_555 1_555
Ni2_4 O5_4 1_555 1_555
N4_4 Ni2_4 1_555 1_555
F4_4 C23_4 1_555 1_555
C20_4 C21_4 1_555 1_555
C21_4 N4_4 1_555 1_555
H12_4 C21_4 1_555 1_555
C22_4 N4_4 1_555 1_555
H13_4 C22_4 1_555 1_555
C23_4 C22_4 1_555 1_555
C24_4 C20_4 1_555 1_555
H14_4 C24_4 1_555 1_555
Ni4 O4_4 1_555 1_555
O10_4 Ni1_4 1_555 1_555
O11_4 Ni2_4 1_555 1_555
O13_3 Ni1_4 1_555 1_555
O14_4 Ni2_4 1_555 1_555
O15_4 Ni1_4 1_555 1_555
C5_3 C6_3 1_555 1_555
C11_4 C12_4 1_555 1_555
C23_4 C24_4 1_555 1_555
O8_4 C19_4 1_555 1_555
O9_4 C19_4 1_555 1_555
Ni7_3 O9_4 1_555 1_555
F3_3 C17_3 1_555 1_555
C16_3 N3_3 1_555 1_555
H10_3 C16_3 1_555 1_555
C17_3 C16_3 1_555 1_555
Ni5_3 O1_4 1_555 1_555
O6_4 C13_3 1_555 1_555
O7_3 C13_3 1_555 1_555
C13_3 C14_3 1_555 1_555
C14_3 C15_3 1_555 1_555
H9_3 C15_3 1_555 1_555
C18_3 C14_3 1_555 1_555
H11_3 C18_3 1_555 1_555
Ni5_3 O7_3 1_555 1_555
Ni8 O6_4 1_555 1_555
O11 C13_4 1_555 1_555
O13 C13_4 1_555 1_555
O8_5 C19_5 1_555 1_555
O14_4 C19_5 1_555 1_555
C13_4 C14_4 1_555 1_555
C14_4 C15_4 1_555 1_555
H9_4 C15_4 1_555 1_555
C18_4 C14_4 1_555 1_555
H11_4 C18_4 1_555 1_555
Ni4 O5_5 1_555 1_555
O10 C1_4 1_555 1_555
O12 C1_4 1_555 1_555
O3_5 C7_5 1_555 1_555
O15_2 C7_5 1_555 1_555
O5_5 H1_5 1_555 1_555
N1_4 Ni4 1_555 1_555
N2_5 Ni4 1_555 1_555
F1_4 C5_4 1_555 1_555
F2_5 C11_5 1_555 1_555
C1_4 C2_4 1_555 1_555
C2_4 C3_4 1_555 1_555
C3_4 N1_4 1_555 1_555
H2_4 C3_4 1_555 1_555
C4_4 N1_4 1_555 1_555
H3_4 C4_4 1_555 1_555
C5_4 C4_4 1_555 1_555
C6_4 C2_4 1_555 1_555
H4_4 C6_4 1_555 1_555
C7_5 C8_5 1_555 1_555
C8_5 C9_5 1_555 1_555
C9_5 N2_5 1_555 1_555
H5_5 C9_5 1_555 1_555
C10_5 N2_5 1_555 1_555
H6_5 C10_5 1_555 1_555
C11_5 C10_5 1_555 1_555
C12_5 C8_5 1_555 1_555
H7_5 C12_5 1_555 1_555
H8_5 O5_5 1_555 1_555
Ni7 O5_5 1_555 1_555
N3_4 Ni7 1_555 1_555
N4_5 Ni7 1_555 1_555
F3_4 C17_4 1_555 1_555
F4_5 C23_5 1_555 1_555
C16_4 N3_4 1_555 1_555
H10_4 C16_4 1_555 1_555
C17_4 C16_4 1_555 1_555
C20_5 C21_5 1_555 1_555
C21_5 N4_5 1_555 1_555
H12_5 C21_5 1_555 1_555
C22_5 N4_5 1_555 1_555
H13_5 C22_5 1_555 1_555
C23_5 C22_5 1_555 1_555
C24_5 C20_5 1_555 1_555
H14_5 C24_5 1_555 1_555
C5_4 C6_4 1_555 1_555
C11_5 C12_5 1_555 1_555
C23_5 C24_5 1_555 1_555
O13_2 C13_5 1_555 1_555
O8_6 C19_6 1_555 1_555
O14 C19_6 1_555 1_555
C13_5 C14_5 1_555 1_555
C14_5 C15_5 1_555 1_555
H9_5 C15_5 1_555 1_555
C18_5 C14_5 1_555 1_555
H11_5 C18_5 1_555 1_555
Ni5 O5_6 1_555 1_555
O3_6 C7_6 1_555 1_555
O15_3 C7_6 1_555 1_555
O5_6 H1_6 1_555 1_555
N2_6 Ni5 1_555 1_555
F2_6 C11_6 1_555 1_555
C7_6 C8_6 1_555 1_555
C8_6 C9_6 1_555 1_555
C9_6 N2_6 1_555 1_555
H5_6 C9_6 1_555 1_555
C10_6 N2_6 1_555 1_555
H6_6 C10_6 1_555 1_555
C11_6 C10_6 1_555 1_555
C12_6 C8_6 1_555 1_555
H7_6 C12_6 1_555 1_555
H8_6 O5_6 1_555 1_555
Ni7_2 O5_6 1_555 1_555
N3_5 Ni7_2 1_555 1_555
N4_6 Ni7_2 1_555 1_555
F3_5 C17_5 1_555 1_555
F4_6 C23_6 1_555 1_555
C16_5 N3_5 1_555 1_555
H10_5 C16_5 1_555 1_555
C17_5 C16_5 1_555 1_555
C20_6 C21_6 1_555 1_555
C21_6 N4_6 1_555 1_555
H12_6 C21_6 1_555 1_555
C22_6 N4_6 1_555 1_555
H13_6 C22_6 1_555 1_555
C23_6 C22_6 1_555 1_555
C24_6 C20_6 1_555 1_555
H14_6 C24_6 1_555 1_555
C11_6 C12_6 1_555 1_555
C23_6 C24_6 1_555 1_555
O10_2 C1_5 1_555 1_555
O12_2 C1_5 1_555 1_555
F1_5 C5_5 1_555 1_555
C1_5 C2_5 1_555 1_555
C2_5 C3_5 1_555 1_555
C3_5 N1_5 1_555 1_555
H2_5 C3_5 1_555 1_555
C4_5 N1_5 1_555 1_555
H3_5 C4_5 1_555 1_555
C5_5 C4_5 1_555 1_555
C6_5 C2_5 1_555 1_555
H4_5 C6_5 1_555 1_555
C5_5 C6_5 1_555 1_555
O8_7 C19_7 1_555 1_555
O14_2 C19_7 1_555 1_555
Ni5_2 O5_7 1_555 1_555
O3_7 C7_7 1_555 1_555
O15_4 C7_7 1_555 1_555
O5_7 H1_7 1_555 1_555
N2_7 Ni5_2 1_555 1_555
F2_7 C11_7 1_555 1_555
C7_7 C8_7 1_555 1_555
C8_7 C9_7 1_555 1_555
C9_7 N2_7 1_555 1_555
H5_7 C9_7 1_555 1_555
C10_7 N2_7 1_555 1_555
H6_7 C10_7 1_555 1_555
C11_7 C10_7 1_555 1_555
C12_7 C8_7 1_555 1_555
H7_7 C12_7 1_555 1_555
H8_7 O5_7 1_555 1_555
Ni7_3 O5_7 1_555 1_555
N4_7 Ni7_3 1_555 1_555
F4_7 C23_7 1_555 1_555
C20_7 C21_7 1_555 1_555
C21_7 N4_7 1_555 1_555
H12_7 C21_7 1_555 1_555
C22_7 N4_7 1_555 1_555
H13_7 C22_7 1_555 1_555
C23_7 C22_7 1_555 1_555
C24_7 C20_7 1_555 1_555
H14_7 C24_7 1_555 1_555
C11_7 C12_7 1_555 1_555
C23_7 C24_7 1_555 1_555
O11_4 C13_6 1_555 1_555
O13_3 C13_6 1_555 1_555
C13_6 C14_6 1_555 1_555
C14_6 C15_6 1_555 1_555
H9_6 C15_6 1_555 1_555
C18_6 C14_6 1_555 1_555
H11_6 C18_6 1_555 1_555
F3_6 C17_6 1_555 1_555
C16_6 N3_6 1_555 1_555
H10_6 C16_6 1_555 1_555
C17_6 C16_6 1_555 1_555
O8_8 C19_8 1_555 1_555
O14_3 C19_8 1_555 1_555
Ni5_3 O5_8 1_555 1_555
O12_3 C1_6 1_555 1_555
O3_8 C7_8 1_555 1_555
O15 C7_8 1_555 1_555
O5_8 H1_8 1_555 1_555
N1_6 Ni5_3 1_555 1_555
N2_8 Ni5_3 1_555 1_555
F1_6 C5_6 1_555 1_555
F2_8 C11_8 1_555 1_555
C1_6 C2_6 1_555 1_555
C2_6 C3_6 1_555 1_555
C3_6 N1_6 1_555 1_555
H2_6 C3_6 1_555 1_555
C4_6 N1_6 1_555 1_555
H3_6 C4_6 1_555 1_555
C5_6 C4_6 1_555 1_555
C6_6 C2_6 1_555 1_555
H4_6 C6_6 1_555 1_555
C7_8 C8_8 1_555 1_555
C8_8 C9_8 1_555 1_555
C9_8 N2_8 1_555 1_555
H5_8 C9_8 1_555 1_555
C10_8 N2_8 1_555 1_555
H6_8 C10_8 1_555 1_555
C11_8 C10_8 1_555 1_555
C12_8 C8_8 1_555 1_555
H7_8 C12_8 1_555 1_555
H8_8 O5_8 1_555 1_555
Ni8 O5_8 1_555 1_555
N4_8 Ni8 1_555 1_555
F4_8 C23_8 1_555 1_555
C20_8 C21_8 1_555 1_555
C21_8 N4_8 1_555 1_555
H12_8 C21_8 1_555 1_555
C22_8 N4_8 1_555 1_555
H13_8 C22_8 1_555 1_555
C23_8 C22_8 1_555 1_555
C24_8 C20_8 1_555 1_555
H14_8 C24_8 1_555 1_555
C5_6 C6_6 1_555 1_555
C11_8 C12_8 1_555 1_555
C23_8 C24_8 1_555 1_555
O2_4 C1_7 1_555 1_555
F1_7 C5_7 1_555 1_555
C1_7 C2_7 1_555 1_555
C2_7 C3_7 1_555 1_555
C3_7 N1_7 1_555 1_555
H2_7 C3_7 1_555 1_555
C4_7 N1_7 1_555 1_555
H3_7 C4_7 1_555 1_555
C5_7 C4_7 1_555 1_555
C6_7 C2_7 1_555 1_555
H4_7 C6_7 1_555 1_555
C5_7 C6_7 1_555 1_555
O13_4 C13_7 1_555 1_555
C13_7 C14_7 1_555 1_555
C14_7 C15_7 1_555 1_555
H9_7 C15_7 1_555 1_555
C18_7 C14_7 1_555 1_555
H11_7 C18_7 1_555 1_555
F3_7 C17_7 1_555 1_555
C16_7 N3_7 1_555 1_555
H10_7 C16_7 1_555 1_555
C17_7 C16_7 1_555 1_555
F3_8 C17_8 1_555 1_555
C16_8 N3_8 1_555 1_555
H10_8 C16_8 1_555 1_555
C17_8 C16_8 1_555 1_555
O7_4 C13_8 1_555 1_555
C13_8 C14_8 1_555 1_555
C14_8 C15_8 1_555 1_555
H9_8 C15_8 1_555 1_555
C18_8 C14_8 1_555 1_555
H11_8 C18_8 1_555 1_555
O12_4 C1_8 1_555 1_555
F1_8 C5_8 1_555 1_555
C1_8 C2_8 1_555 1_555
C2_8 C3_8 1_555 1_555
C3_8 N1_8 1_555 1_555
H2_8 C3_8 1_555 1_555
C4_8 N1_8 1_555 1_555
H3_8 C4_8 1_555 1_555
C5_8 C4_8 1_555 1_555
C6_8 C2_8 1_555 1_555
H4_8 C6_8 1_555 1_555
C5_8 C6_8 1_555 1_555

#END
