
###############################################################################
#
# This file contains modified crystal structure data generated from the
# MOF subset of the Cambridge Structural Database (CSD) v543 
# hosted by the Cambridge Crystallographic Data Centre (CCDC).
#
# This work is licensed under the Creative Commons
# Attribution-NonCommercial-ShareAlike 4.0 International License.
# To view a copy of this license, visit
# http://creativecommons.org/licenses/by-nc-sa/4.0/
# or send a letter to
# Creative Commons, PO Box 1866, Mountain View, CA 94042, USA.
#
# CIF created using the CSD Python API on 29 September 2022
# The structure has been converted into the P1 space group
# The structure has a 3D framework
# The original CSD entry WORREC is in the orthorhombic crystal system
# The framework has been calculated to contain at least 10.0% void space
# The void calculation uses a probe of radius 1.32A, grid spacing 0.4
#
###############################################################################

data_WORREC
_chemical_formula_moiety         '(C82 H66 Cu6 O40)n'
_symmetry_cell_setting           triclinic
_symmetry_space_group_name_H-M   'P 1'
_symmetry_Int_Tables_number      1
_space_group_name_Hall           'P 1'
loop_
_symmetry_equiv_pos_site_id
_symmetry_equiv_pos_as_xyz
1 x,y,z
_cell_length_a                   18.8261(10)
_cell_length_b                   22.1934(9)
_cell_length_c                   10.0062(8)
_cell_angle_alpha                90
_cell_angle_beta                 90
_cell_angle_gamma                90
_cell_volume                     4180.74
loop_
_atom_site_label
_atom_site_type_symbol
_atom_site_fract_x
_atom_site_fract_y
_atom_site_fract_z
Cu1 Cu 0.29546(4) 0.2500 0.15013(9)
O1 O 0.15621(15) 0.31186(12) 0.2455(4)
O2 O 0.23412(15) 0.31294(12) 0.0773(3)
C1 C 0.1785(2) 0.33097(19) 0.1385(6)
C2 C 0.1398(2) 0.38204(18) 0.0716(5)
C3 C 0.0770(2) 0.40094(18) 0.1181(5)
H4 H 0.0576 0.3811 0.1914
C4 C 0.0364(2) 0.45217(16) 0.0589(5)
C5 C 0.0722(3) 0.5000 0.0000
H5 H 0.1216 0.5000 0.0000
H6 H 0.1597 0.5993 0.0028
Cu7 Cu 0.20454(4) 0.2500 0.34987(9)
O11 O 0.34379(15) 0.31186(12) 0.2545(4)
O13 O 0.34379(15) 0.18814(12) 0.2545(4)
O16 O 0.23412(15) 0.18706(12) 0.0773(3)
O3 O 0.3702(3) 0.2500 0.9899(7)
H1 H 0.3485 0.2500 0.9151
H2 H 0.4149 0.2500 0.9753
H3 H 0.1597 0.4007 0.9972
C5_2 C 0.0722(3) 0.5000 1.0000
H5_2 H 0.1216 0.5000 1.0000
O4 O 0.15621(15) 0.68814(12) 0.7545(4)
O5 O 0.23412(15) 0.68706(12) 0.9227(3)
C6 C 0.1785(2) 0.66903(19) 0.8615(6)
C7 C 0.1398(2) 0.61796(18) 0.9284(5)
C8 C 0.0770(2) 0.59906(18) 0.8819(5)
H7 H 0.0576 0.6189 0.8086
C9 C 0.0364(2) 0.54783(16) 0.9411(5)
Cu4 Cu 0.29546(4) 0.7500 0.84987(9)
Cu6 Cu 0.20454(4) 0.7500 0.65013(9)
H8 H 0.8403 0.5993 0.0028
C14 C 0.9278(3) 0.5000 0.0000
H10 H 0.8784 0.5000 0.0000
O8 O 0.84379(15) 0.31186(12) 0.2455(4)
O9 O 0.76588(15) 0.31294(12) 0.0773(3)
C15 C 0.8215(2) 0.33097(19) 0.1385(6)
C16 C 0.8602(2) 0.38204(18) 0.0716(5)
C17 C 0.9230(2) 0.40094(18) 0.1181(5)
H12 H 0.9424 0.3811 0.1914
C18 C 0.9636(2) 0.45217(16) 0.0589(5)
Cu2 Cu 0.70454(4) 0.2500 0.15013(9)
Cu8 Cu 0.79546(4) 0.2500 0.34987(9)
O12 O 0.65621(15) 0.18814(12) 0.2545(4)
O14 O 0.65621(15) 0.31186(12) 0.2545(4)
O15 O 0.76588(15) 0.18706(12) 0.0773(3)
O6 O 0.84379(15) 0.68814(12) 0.7545(4)
O7 O 0.76588(15) 0.68706(12) 0.9227(3)
C10 C 0.8215(2) 0.66903(19) 0.8615(6)
C11 C 0.8602(2) 0.61796(18) 0.9284(5)
C12 C 0.9230(2) 0.59906(18) 0.8819(5)
H9 H 0.9424 0.6189 0.8086
C13 C 0.9636(2) 0.54783(16) 0.9411(5)
C14_2 C 0.9278(3) 0.5000 1.0000
H10_2 H 0.8784 0.5000 1.0000
H11 H 0.8403 0.4007 0.9972
O10 O 0.6298(3) 0.2500 0.9899(7)
H13 H 0.6515 0.2500 0.9151
H14 H 0.5851 0.2500 0.9753
Cu3 Cu 0.70454(4) 0.7500 0.84987(9)
Cu5 Cu 0.79546(4) 0.7500 0.65013(9)
C14_3 C 0.0722(3) 0.0000 0.0000
H10_3 H 0.1216 0.0000 0.0000
O8_2 O 0.15621(15) 0.18814(12) 0.2455(4)
C15_2 C 0.1785(2) 0.16903(19) 0.1385(6)
C16_2 C 0.1398(2) 0.11796(18) 0.0716(5)
C17_2 C 0.0770(2) 0.09906(18) 0.1181(5)
H12_2 H 0.0576 0.1189 0.1914
C18_2 C 0.0364(2) 0.04783(16) 0.0589(5)
C14_4 C 0.0722(3) 0.0000 1.0000
H10_4 H 0.1216 0.0000 1.0000
H11_2 H 0.1597 0.0993 0.9972
H8_2 H 0.1597 0.9007 0.0028
C14_5 C 0.0722(3) 1.0000 0.0000
H10_5 H 0.1216 1.0000 0.0000
O6_2 O 0.15621(15) 0.81186(12) 0.7545(4)
O7_2 O 0.23412(15) 0.81294(12) 0.9227(3)
C10_2 C 0.1785(2) 0.83097(19) 0.8615(6)
C11_2 C 0.1398(2) 0.88204(18) 0.9284(5)
C12_2 C 0.0770(2) 0.90094(18) 0.8819(5)
H9_2 H 0.0576 0.8811 0.8086
C13_2 C 0.0364(2) 0.95217(16) 0.9411(5)
C14_6 C 0.0722(3) 1.0000 1.0000
H10_6 H 0.1216 1.0000 1.0000
O1_2 O 0.84379(15) 0.18814(12) 0.2455(4)
C1_2 C 0.8215(2) 0.16903(19) 0.1385(6)
C2_2 C 0.8602(2) 0.11796(18) 0.0716(5)
C3_2 C 0.9230(2) 0.09906(18) 0.1181(5)
H4_2 H 0.9424 0.1189 0.1914
C4_2 C 0.9636(2) 0.04783(16) 0.0589(5)
C5_3 C 0.9278(3) 0.0000 0.0000
H5_3 H 0.8784 0.0000 0.0000
H3_2 H 0.8403 0.0993 0.9972
C5_4 C 0.9278(3) 0.0000 1.0000
H5_4 H 0.8784 0.0000 1.0000
C5_5 C 0.9278(3) 1.0000 0.0000
H5_5 H 0.8784 1.0000 0.0000
H6_2 H 0.8403 0.9007 0.0028
C5_6 C 0.9278(3) 1.0000 1.0000
H5_6 H 0.8784 1.0000 1.0000
O4_2 O 0.84379(15) 0.81186(12) 0.7545(4)
O5_2 O 0.76588(15) 0.81294(12) 0.9227(3)
C6_2 C 0.8215(2) 0.83097(19) 0.8615(6)
C7_2 C 0.8602(2) 0.88204(18) 0.9284(5)
C8_2 C 0.9230(2) 0.90094(18) 0.8819(5)
H7_2 H 0.9424 0.8811 0.8086
C9_2 C 0.9636(2) 0.95217(16) 0.9411(5)
O10_2 O 0.3702(3) 0.7500 0.0101(7)
H13_2 H 0.3485 0.7500 0.0849
H14_2 H 0.4149 0.7500 0.0247
O12_2 O 0.34379(15) 0.68814(12) 0.7455(4)
O14_2 O 0.34379(15) 0.81186(12) 0.7455(4)
O3_2 O 0.6298(3) 0.7500 0.0101(7)
H1_2 H 0.6515 0.7500 0.0849
H2_2 H 0.5851 0.7500 0.0247
O11_2 O 0.65621(15) 0.81186(12) 0.7455(4)
O13_2 O 0.65621(15) 0.68814(12) 0.7455(4)
C5_7 C 0.5722(3) 0.0000 0.5000
H5_7 H 0.6216 0.0000 0.5000
O5_3 O 0.73412(15) 0.18706(12) 0.4227(3)
C6_3 C 0.6785(2) 0.16903(19) 0.3615(6)
C7_3 C 0.6398(2) 0.11796(18) 0.4284(5)
H6_3 H 0.6597 0.0993 0.5028
C8_3 C 0.5770(2) 0.09906(18) 0.3819(5)
H7_3 H 0.5576 0.1189 0.3086
C9_3 C 0.5364(2) 0.04783(16) 0.4411(5)
O7_3 O 0.26588(15) 0.18706(12) 0.4227(3)
C10_3 C 0.3215(2) 0.16903(19) 0.3615(6)
C11_3 C 0.3602(2) 0.11796(18) 0.4284(5)
H8_3 H 0.3403 0.0993 0.5028
C12_3 C 0.4230(2) 0.09906(18) 0.3819(5)
H9_3 H 0.4424 0.1189 0.3086
C13_3 C 0.4636(2) 0.04783(16) 0.4411(5)
C14_7 C 0.4278(3) 0.0000 0.5000
H10_7 H 0.3784 0.0000 0.5000
O2_2 O 0.73412(15) 0.81294(12) 0.5773(3)
O3_3 O 0.8702(3) 0.7500 0.4899(7)
H1_3 H 0.8485 0.7500 0.4151
H2_3 H 0.9149 0.7500 0.4753
C1_3 C 0.6785(2) 0.83097(19) 0.6385(6)
C2_3 C 0.6398(2) 0.88204(18) 0.5716(5)
H3_3 H 0.6597 0.9007 0.4972
C3_3 C 0.5770(2) 0.90094(18) 0.6181(5)
H4_3 H 0.5576 0.8811 0.6914
C4_3 C 0.5364(2) 0.95217(16) 0.5589(5)
C5_8 C 0.5722(3) 1.0000 0.5000
H5_8 H 0.6216 1.0000 0.5000
C14_8 C 0.4278(3) 1.0000 0.5000
H10_8 H 0.3784 1.0000 0.5000
O9_2 O 0.26588(15) 0.81294(12) 0.5773(3)
C15_3 C 0.3215(2) 0.83097(19) 0.6385(6)
C16_3 C 0.3602(2) 0.88204(18) 0.5716(5)
H11_3 H 0.3403 0.9007 0.4972
C17_3 C 0.4230(2) 0.90094(18) 0.6181(5)
H12_3 H 0.4424 0.8811 0.6914
C18_3 C 0.4636(2) 0.95217(16) 0.5589(5)
O10_3 O 0.1298(3) 0.7500 0.4899(7)
H13_3 H 0.1515 0.7500 0.4151
H14_3 H 0.0851 0.7500 0.4753
O15_2 O 0.26588(15) 0.68706(12) 0.5773(3)
O16_2 O 0.73412(15) 0.68706(12) 0.5773(3)
C1_4 C 0.3215(2) 0.66903(19) 0.6385(6)
C2_4 C 0.3602(2) 0.61796(18) 0.5716(5)
H3_4 H 0.3403 0.5993 0.4972
C3_4 C 0.4230(2) 0.59906(18) 0.6181(5)
H4_4 H 0.4424 0.6189 0.6914
C4_4 C 0.4636(2) 0.54783(16) 0.5589(5)
C5_9 C 0.4278(3) 0.5000 0.5000
H5_9 H 0.3784 0.5000 0.5000
O5_4 O 0.26588(15) 0.31294(12) 0.4227(3)
C6_4 C 0.3215(2) 0.33097(19) 0.3615(6)
C7_4 C 0.3602(2) 0.38204(18) 0.4284(5)
H6_4 H 0.3403 0.4007 0.5028
C8_4 C 0.4230(2) 0.40094(18) 0.3819(5)
H7_4 H 0.4424 0.3811 0.3086
C9_4 C 0.4636(2) 0.45217(16) 0.4411(5)
O7_4 O 0.73412(15) 0.31294(12) 0.4227(3)
C10_4 C 0.6785(2) 0.33097(19) 0.3615(6)
C11_4 C 0.6398(2) 0.38204(18) 0.4284(5)
H8_4 H 0.6597 0.4007 0.5028
C12_4 C 0.5770(2) 0.40094(18) 0.3819(5)
H9_4 H 0.5576 0.3811 0.3086
C13_4 C 0.5364(2) 0.45217(16) 0.4411(5)
C14_9 C 0.5722(3) 0.5000 0.5000
H10_9 H 0.6216 0.5000 0.5000
C15_4 C 0.6785(2) 0.66903(19) 0.6385(6)
C16_4 C 0.6398(2) 0.61796(18) 0.5716(5)
H11_4 H 0.6597 0.5993 0.4972
C17_4 C 0.5770(2) 0.59906(18) 0.6181(5)
H12_4 H 0.5576 0.6189 0.6914
C18_4 C 0.5364(2) 0.54783(16) 0.5589(5)
O3_4 O 0.1298(3) 0.2500 0.5101(7)
H1_4 H 0.1515 0.2500 0.5849
H2_4 H 0.0851 0.2500 0.5247
O10_4 O 0.8702(3) 0.2500 0.5101(7)
H13_4 H 0.8485 0.2500 0.5849
H14_4 H 0.9149 0.2500 0.5247
loop_
_geom_bond_atom_site_label_1
_geom_bond_atom_site_label_2
_geom_bond_site_symmetry_1
_geom_bond_site_symmetry_2
Cu1 O2 1_555 1_555
O1 C1 1_555 1_555
O2 C1 1_555 1_555
C1 C2 1_555 1_555
C3 C2 1_555 1_555
H4 C3 1_555 1_555
C4 C3 1_555 1_555
C5 C4 1_555 1_555
H5 C5 1_555 1_555
Cu7 Cu1 1_555 1_555
O11 Cu1 1_555 1_555
O13 Cu1 1_555 1_555
O16 Cu1 1_555 1_555
O1 Cu7 1_555 1_555
H1 O3 1_555 1_555
H2 O3 1_555 1_555
H5_2 C5_2 1_555 1_555
O4 C6 1_555 1_555
O5 C6 1_555 1_555
C6 C7 1_555 1_555
C8 C7 1_555 1_555
H7 C8 1_555 1_555
C9 C5_2 1_555 1_555
Cu4 O5 1_555 1_555
Cu6 O4 1_555 1_555
C8 C9 1_555 1_555
Cu4 Cu6 1_555 1_555
H10 C14 1_555 1_555
O8 C15 1_555 1_555
O9 C15 1_555 1_555
C15 C16 1_555 1_555
C17 C16 1_555 1_555
H12 C17 1_555 1_555
Cu2 O9 1_555 1_555
Cu8 O8 1_555 1_555
O12 Cu2 1_555 1_555
O14 Cu2 1_555 1_555
O15 Cu2 1_555 1_555
C14 C18 1_555 1_555
C17 C18 1_555 1_555
Cu2 Cu8 1_555 1_555
O6 C10 1_555 1_555
O7 C10 1_555 1_555
C10 C11 1_555 1_555
C12 C11 1_555 1_555
H9 C12 1_555 1_555
C14_2 C13 1_555 1_555
H10_2 C14_2 1_555 1_555
H13 O10 1_555 1_555
H14 O10 1_555 1_555
Cu3 O7 1_555 1_555
Cu5 O6 1_555 1_555
C12 C13 1_555 1_555
Cu3 Cu5 1_555 1_555
H10_3 C14_3 1_555 1_555
O8_2 C15_2 1_555 1_555
O16 C15_2 1_555 1_555
C15_2 C16_2 1_555 1_555
C17_2 C16_2 1_555 1_555
H12_2 C17_2 1_555 1_555
Cu7 O8_2 1_555 1_555
C14_3 C18_2 1_555 1_555
C17_2 C18_2 1_555 1_555
H10_4 C14_4 1_555 1_555
H10_5 C14_5 1_555 1_555
O6_2 C10_2 1_555 1_555
O7_2 C10_2 1_555 1_555
C10_2 C11_2 1_555 1_555
C12_2 C11_2 1_555 1_555
H9_2 C12_2 1_555 1_555
C14_6 C13_2 1_555 1_555
H10_6 C14_6 1_555 1_555
Cu4 O7_2 1_555 1_555
Cu6 O6_2 1_555 1_555
C12_2 C13_2 1_555 1_555
O1_2 C1_2 1_555 1_555
O15 C1_2 1_555 1_555
C1_2 C2_2 1_555 1_555
C3_2 C2_2 1_555 1_555
H4_2 C3_2 1_555 1_555
C4_2 C3_2 1_555 1_555
C5_3 C4_2 1_555 1_555
H5_3 C5_3 1_555 1_555
O1_2 Cu8 1_555 1_555
H5_4 C5_4 1_555 1_555
H5_5 C5_5 1_555 1_555
H5_6 C5_6 1_555 1_555
O4_2 C6_2 1_555 1_555
O5_2 C6_2 1_555 1_555
C6_2 C7_2 1_555 1_555
C8_2 C7_2 1_555 1_555
H7_2 C8_2 1_555 1_555
C9_2 C5_6 1_555 1_555
Cu3 O5_2 1_555 1_555
Cu5 O4_2 1_555 1_555
C8_2 C9_2 1_555 1_555
H13_2 O10_2 1_555 1_555
H14_2 O10_2 1_555 1_555
O12_2 Cu4 1_555 1_555
O14_2 Cu4 1_555 1_555
H1_2 O3_2 1_555 1_555
H2_2 O3_2 1_555 1_555
O11_2 Cu3 1_555 1_555
O13_2 Cu3 1_555 1_555
H5_7 C5_7 1_555 1_555
O12 C6_3 1_555 1_555
O5_3 C6_3 1_555 1_555
C6_3 C7_3 1_555 1_555
C7_3 H6_3 1_555 1_555
C8_3 C7_3 1_555 1_555
H7_3 C8_3 1_555 1_555
C9_3 C5_7 1_555 1_555
O13 C10_3 1_555 1_555
O7_3 C10_3 1_555 1_555
C10_3 C11_3 1_555 1_555
C11_3 H8_3 1_555 1_555
C12_3 C11_3 1_555 1_555
H9_3 C12_3 1_555 1_555
C13_3 C9_3 1_555 1_555
C14_7 C13_3 1_555 1_555
H10_7 C14_7 1_555 1_555
Cu7 O7_3 1_555 1_555
Cu8 O5_3 1_555 1_555
C8_3 C9_3 1_555 1_555
C12_3 C13_3 1_555 1_555
Cu5 O2_2 1_555 1_555
O11_2 C1_3 1_555 1_555
O2_2 C1_3 1_555 1_555
O3_3 Cu5 1_555 1_555
H1_3 O3_3 1_555 1_555
H2_3 O3_3 1_555 1_555
C1_3 C2_3 1_555 1_555
C2_3 H3_3 1_555 1_555
C3_3 C2_3 1_555 1_555
H4_3 C3_3 1_555 1_555
C4_3 C3_3 1_555 1_555
C5_8 C4_3 1_555 1_555
H5_8 C5_8 1_555 1_555
H10_8 C14_8 1_555 1_555
O14_2 C15_3 1_555 1_555
O9_2 C15_3 1_555 1_555
C15_3 C16_3 1_555 1_555
C16_3 H11_3 1_555 1_555
C17_3 C16_3 1_555 1_555
H12_3 C17_3 1_555 1_555
C18_3 C4_3 1_555 1_555
Cu6 O9_2 1_555 1_555
O10_3 Cu6 1_555 1_555
H13_3 O10_3 1_555 1_555
H14_3 O10_3 1_555 1_555
O15_2 Cu6 1_555 1_555
O16_2 Cu5 1_555 1_555
C14_8 C18_3 1_555 1_555
C17_3 C18_3 1_555 1_555
O12_2 C1_4 1_555 1_555
O15_2 C1_4 1_555 1_555
C1_4 C2_4 1_555 1_555
C2_4 H3_4 1_555 1_555
C3_4 C2_4 1_555 1_555
H4_4 C3_4 1_555 1_555
C4_4 C3_4 1_555 1_555
C5_9 C4_4 1_555 1_555
H5_9 C5_9 1_555 1_555
O11 C6_4 1_555 1_555
O5_4 C6_4 1_555 1_555
C6_4 C7_4 1_555 1_555
C7_4 H6_4 1_555 1_555
C8_4 C7_4 1_555 1_555
H7_4 C8_4 1_555 1_555
C9_4 C5_9 1_555 1_555
O14 C10_4 1_555 1_555
O7_4 C10_4 1_555 1_555
C10_4 C11_4 1_555 1_555
C11_4 H8_4 1_555 1_555
C12_4 C11_4 1_555 1_555
H9_4 C12_4 1_555 1_555
C13_4 C9_4 1_555 1_555
C14_9 C13_4 1_555 1_555
H10_9 C14_9 1_555 1_555
O13_2 C15_4 1_555 1_555
O16_2 C15_4 1_555 1_555
C15_4 C16_4 1_555 1_555
C16_4 H11_4 1_555 1_555
C17_4 C16_4 1_555 1_555
H12_4 C17_4 1_555 1_555
C18_4 C4_4 1_555 1_555
Cu8 O7_4 1_555 1_555
Cu7 O5_4 1_555 1_555
C8_4 C9_4 1_555 1_555
C12_4 C13_4 1_555 1_555
C14_9 C18_4 1_555 1_555
C17_4 C18_4 1_555 1_555
O3_4 Cu7 1_555 1_555
H1_4 O3_4 1_555 1_555
H2_4 O3_4 1_555 1_555
O10_4 Cu8 1_555 1_555
H13_4 O10_4 1_555 1_555
H14_4 O10_4 1_555 1_555

#END
