
###############################################################################
#
# This file contains modified crystal structure data generated from the
# MOF subset of the Cambridge Structural Database (CSD) v543 
# hosted by the Cambridge Crystallographic Data Centre (CCDC).
#
# This work is licensed under the Creative Commons
# Attribution-NonCommercial-ShareAlike 4.0 International License.
# To view a copy of this license, visit
# http://creativecommons.org/licenses/by-nc-sa/4.0/
# or send a letter to
# Creative Commons, PO Box 1866, Mountain View, CA 94042, USA.
#
# CIF created using the CSD Python API on 29 September 2022
# The structure has been converted into the P1 space group
# The structure has a 3D framework
# The original CSD entry WORTAA is in the monoclinic crystal system
# The framework has been calculated to contain at least 10.0% void space
# The void calculation uses a probe of radius 1.32A, grid spacing 0.4
#
###############################################################################

data_WORTAA
_chemical_formula_moiety         '(C216 H184 B8 Cd8 F16 N24 O32)n'
_symmetry_cell_setting           triclinic
_symmetry_space_group_name_H-M   'P 1'
_symmetry_Int_Tables_number      1
_space_group_name_Hall           'P 1'
loop_
_symmetry_equiv_pos_site_id
_symmetry_equiv_pos_as_xyz
1 x,y,z
_cell_length_a                   21.466(4)
_cell_length_b                   21.361(4)
_cell_length_c                   16.675(3)
_cell_angle_alpha                90
_cell_angle_beta                 97.83(3)
_cell_angle_gamma                90
_cell_volume                     7574.79
loop_
_atom_site_label
_atom_site_type_symbol
_atom_site_fract_x
_atom_site_fract_y
_atom_site_fract_z
F1 F 0.2737(4) 0.1277(3) 0.9272(4)
F2 F 0.1955(4) 0.1948(3) 0.8733(5)
O3 O 0.4353(3) 0.3031(3) 0.8245(3)
O4 O 0.4186(3) 0.3094(3) 0.6907(3)
N2 N 0.2849(3) 0.1792(3) 0.8026(4)
N3 N 0.2062(3) 0.0943(3) 0.8096(3)
C8 C 0.1430(4) 0.0653(4) 0.9180(5)
H7 H 0.1646 0.0352 0.9545
H8 H 0.0985 0.0587 0.9144
H9 H 0.1531 0.1068 0.9376
C9 C 0.1633(3) 0.0574(3) 0.8343(4)
C10 C 0.1419(3) 0.0133(3) 0.7743(4)
C11 C 0.1739(4) 0.0243(3) 0.7105(4)
H12 H 0.1549 0.0148 0.5856
C13 C 0.2141(3) 0.0765(4) 0.7317(4)
C14 C 0.2528(4) 0.1115(4) 0.6862(6)
C15 C 0.2552(5) 0.0950(6) 0.5998(6)
C16 C 0.3013(6) 0.0535(7) 0.5820(7)
H13 H 0.3302 0.0363 0.6227
C17 C 0.3026(7) 0.0383(7) 0.4983(8)
H14 H 0.3330 0.0113 0.4835
C18 C 0.2584(8) 0.0640(8) 0.4403(8)
H15 H 0.2587 0.0520 0.3868
C19 C 0.2109(8) 0.1091(8) 0.4580(8)
H16 H 0.1829 0.1278 0.4176
C20 C 0.2106(7) 0.1218(6) 0.5391(7)
H17 H 0.1803 0.1488 0.5544
C21 C 0.2888(4) 0.1617(4) 0.7219(4)
C22 C 0.3316(4) 0.2021(4) 0.6930(5)
C23 C 0.3508(6) 0.2023(6) 0.6061(6)
H18 H 0.3776 0.2376 0.6002
H19 H 0.3137 0.2052 0.5669
H20 H 0.3729 0.1643 0.5975
C24 C 0.3550(4) 0.2401(4) 0.7562(5)
C25 C 0.3242(4) 0.2258(4) 0.8218(5)
C26 C 0.3338(6) 0.2562(6) 0.9042(6)
H21 H 0.2948 0.2737 0.9156
H22 H 0.3646 0.2889 0.9050
H23 H 0.3481 0.2255 0.9445
C27 C 0.4078(4) 0.2881(4) 0.7572(5)
B1 B 0.2399(6) 0.1496(7) 0.8570(6)
Cd6 Cd 0.491163(19) 0.375157(19) 0.65815(2)
Cd8 Cd 0.508837(19) 0.375157(19) 0.84185(2)
O1 O 0.0768(2) 0.9530(2) 0.8482(3)
O2 O 0.0671(2) 0.9433(2) 0.7131(3)
H4 H 0.0037 0.7777 0.5210
C7 C 0.0913(3) 0.9661(3) 0.7779(4)
C12 C 0.1699(4) 0.9876(4) 0.6298(5)
H10 H 0.1415 0.9530 0.6309
H11 H 0.2109 0.9722 0.6230
C28 C 0.0304(5) 0.8487(7) 0.2363(5)
H24 H 0.0521 0.8101 0.2533
H25 H 0.0551 0.8832 0.2614
C29 C 0.0259(5) 0.8545(6) 0.1454(5)
C30 C 0.0106(6) 0.8049(5) 0.0956(5)
H26 H 0.0027 0.7660 0.1173
C31 C 0.0067(5) 0.8123(4) 0.0120(4)
C32 C 0.0307(4) 0.9139(4) 0.0265(5)
H28 H 0.0371 0.9527 0.0038
C33 C 0.0357(5) 0.9093(5) 0.1087(5)
H29 H 0.0461 0.9447 0.1401
Cd4 Cd 0.008837(19) 0.875157(19) 0.84185(2)
O12 O 0.0647(3) 0.8031(3) 0.6755(3)
N4 N 0.0170(3) 0.8656(2) 0.9779(4)
O14 O 0.0814(3) 0.8094(3) 0.8093(3)
F3 F 0.7263(4) 0.1277(3) 0.5728(4)
F4 F 0.8045(4) 0.1948(3) 0.6267(5)
O7 O 0.5647(3) 0.3031(3) 0.6755(3)
O8 O 0.5814(3) 0.3094(3) 0.8093(3)
N5 N 0.7151(3) 0.1792(3) 0.6974(4)
N6 N 0.7938(3) 0.0943(3) 0.6904(3)
C35 C 0.8570(4) 0.0653(4) 0.5820(5)
H30 H 0.8354 0.0352 0.5455
H31 H 0.9015 0.0587 0.5856
H32 H 0.8469 0.1068 0.5624
C36 C 0.8367(3) 0.0574(3) 0.6657(4)
C37 C 0.8581(3) 0.0133(3) 0.7257(4)
C38 C 0.8261(4) 0.0243(3) 0.7895(4)
H35 H 0.8451 0.0148 0.9144
C40 C 0.7859(3) 0.0765(4) 0.7683(4)
C41 C 0.7472(4) 0.1115(4) 0.8138(6)
C42 C 0.7448(5) 0.0950(6) 0.9002(6)
C43 C 0.6987(6) 0.0535(7) 0.9180(7)
H36 H 0.6698 0.0363 0.8773
C47 C 0.7894(7) 0.1218(6) 0.9609(7)
H40 H 0.8197 0.1488 0.9456
C48 C 0.7112(4) 0.1617(4) 0.7781(4)
C49 C 0.6684(4) 0.2021(4) 0.8070(5)
C50 C 0.6492(6) 0.2023(6) 0.8939(6)
H41 H 0.6224 0.2376 0.8998
H42 H 0.6863 0.2052 0.9331
H43 H 0.6271 0.1643 0.9025
C51 C 0.6450(4) 0.2401(4) 0.7438(5)
C52 C 0.6758(4) 0.2258(4) 0.6782(5)
C53 C 0.6662(6) 0.2562(6) 0.5958(6)
H44 H 0.7052 0.2737 0.5844
H45 H 0.6354 0.2889 0.5950
H46 H 0.6519 0.2255 0.5555
C54 C 0.5922(4) 0.2881(4) 0.7428(5)
B2 B 0.7601(6) 0.1496(7) 0.6430(6)
Cd1 Cd 0.991163(19) 0.875157(19) 0.65815(2)
N1 N 0.9830(3) 0.8656(2) 0.5221(4)
C1 C 0.9696(5) 0.8487(7) 0.2637(5)
H1 H 0.9479 0.8101 0.2467
H2 H 0.9449 0.8832 0.2386
C2 C 0.9741(5) 0.8545(6) 0.3546(5)
C3 C 0.9894(6) 0.8049(5) 0.4044(5)
H3 H 0.9973 0.7660 0.3827
C4 C 0.9933(5) 0.8123(4) 0.4880(4)
C5 C 0.9693(4) 0.9139(4) 0.4735(5)
H5 H 0.9629 0.9527 0.4962
C6 C 0.9643(5) 0.9093(5) 0.3913(5)
H6 H 0.9539 0.9447 0.3599
O10 O 0.9232(2) 0.9530(2) 0.6518(3)
O13 O 0.9186(3) 0.8094(3) 0.6907(3)
H27 H 0.9963 0.7777 0.9790
O6 O 0.9329(2) 0.9433(2) 0.7869(3)
C34 C 0.9087(3) 0.9661(3) 0.7221(4)
C39 C 0.8301(4) 0.9876(4) 0.8702(5)
H33 H 0.8585 0.9530 0.8691
H34 H 0.7891 0.9722 0.8770
O11 O 0.9353(3) 0.8031(3) 0.8245(3)
F1_2 F 0.7737(4) 0.6277(3) 0.9272(4)
F2_2 F 0.6955(4) 0.6948(3) 0.8733(5)
O1_2 O 0.5768(2) 0.4530(2) 0.8482(3)
O2_2 O 0.5671(2) 0.4433(2) 0.7131(3)
N1_2 N 0.4830(3) 0.3656(2) 0.5221(4)
N2_2 N 0.7849(3) 0.6792(3) 0.8026(4)
N3_2 N 0.7062(3) 0.5943(3) 0.8096(3)
C1_2 C 0.4696(5) 0.3487(7) 0.2637(5)
H1_2 H 0.4479 0.3101 0.2467
H2_2 H 0.4449 0.3832 0.2386
C2_2 C 0.4741(5) 0.3545(6) 0.3546(5)
C3_2 C 0.4894(6) 0.3049(5) 0.4044(5)
H3_2 H 0.4973 0.2660 0.3827
C4_2 C 0.4933(5) 0.3123(4) 0.4880(4)
H4_2 H 0.5037 0.2777 0.5210
C5_2 C 0.4693(4) 0.4139(4) 0.4735(5)
H5_2 H 0.4629 0.4527 0.4962
C6_2 C 0.4643(5) 0.4093(5) 0.3913(5)
H6_2 H 0.4539 0.4447 0.3599
C7_2 C 0.5913(3) 0.4661(3) 0.7779(4)
C8_2 C 0.6430(4) 0.5653(4) 0.9180(5)
H7_2 H 0.6646 0.5352 0.9545
H8_2 H 0.5985 0.5587 0.9144
H9_2 H 0.6531 0.6068 0.9376
C9_2 C 0.6633(3) 0.5574(3) 0.8343(4)
C10_2 C 0.6419(3) 0.5133(3) 0.7743(4)
C11_2 C 0.6739(4) 0.5243(3) 0.7105(4)
C12_2 C 0.6699(4) 0.4876(4) 0.6298(5)
H10_2 H 0.6415 0.4530 0.6309
H11_2 H 0.7109 0.4722 0.6230
H12_2 H 0.6549 0.5148 0.5856
C13_2 C 0.7141(3) 0.5765(4) 0.7317(4)
C14_2 C 0.7528(4) 0.6115(4) 0.6862(6)
C15_2 C 0.7552(5) 0.5950(6) 0.5998(6)
C16_2 C 0.8013(6) 0.5535(7) 0.5820(7)
H13_2 H 0.8302 0.5363 0.6227
C17_2 C 0.8026(7) 0.5383(7) 0.4983(8)
H14_2 H 0.8330 0.5113 0.4835
C18_2 C 0.7584(8) 0.5640(8) 0.4403(8)
H15_2 H 0.7587 0.5520 0.3868
C19_2 C 0.7109(8) 0.6091(8) 0.4580(8)
H16_2 H 0.6829 0.6278 0.4176
C20_2 C 0.7106(7) 0.6218(6) 0.5391(7)
H17_2 H 0.6803 0.6488 0.5544
C21_2 C 0.7888(4) 0.6617(4) 0.7219(4)
C22_2 C 0.8316(4) 0.7021(4) 0.6930(5)
C23_2 C 0.8508(6) 0.7023(6) 0.6061(6)
H18_2 H 0.8776 0.7376 0.6002
H19_2 H 0.8137 0.7052 0.5669
H20_2 H 0.8729 0.6643 0.5975
C24_2 C 0.8550(4) 0.7401(4) 0.7562(5)
C25_2 C 0.8242(4) 0.7258(4) 0.8218(5)
C26_2 C 0.8338(6) 0.7562(6) 0.9042(6)
H21_2 H 0.7948 0.7737 0.9156
H22_2 H 0.8646 0.7889 0.9050
H23_2 H 0.8481 0.7255 0.9445
C27_2 C 0.9078(4) 0.7881(4) 0.7572(5)
B1_2 B 0.7399(6) 0.6496(7) 0.8570(6)
C28_2 C 0.5304(5) 0.3487(7) 0.2363(5)
H24_2 H 0.5521 0.3101 0.2533
H25_2 H 0.5551 0.3832 0.2614
C29_2 C 0.5259(5) 0.3545(6) 0.1454(5)
C30_2 C 0.5106(6) 0.3049(5) 0.0956(5)
H26_2 H 0.5027 0.2660 0.1173
C31_2 C 0.5067(5) 0.3123(4) 0.0120(4)
C32_2 C 0.5307(4) 0.4139(4) 0.0265(5)
H28_2 H 0.5371 0.4527 0.0038
C33_2 C 0.5357(5) 0.4093(5) 0.1087(5)
H29_2 H 0.5461 0.4447 0.1401
C44 C 0.1974(7) 0.5383(7) 0.0017(8)
H37 H 0.1670 0.5113 0.0165
C45 C 0.2416(8) 0.5640(8) 0.0597(8)
H38 H 0.2413 0.5520 0.1132
C46 C 0.2891(8) 0.6091(8) 0.0420(8)
H39 H 0.3171 0.6278 0.0824
O10_2 O 0.4232(2) 0.4530(2) 0.6518(3)
N4_2 N 0.5170(3) 0.3656(2) 0.9779(4)
H27_2 H 0.4963 0.2777 0.9790
F3_2 F 0.2263(4) 0.6277(3) 0.5728(4)
F4_2 F 0.3045(4) 0.6948(3) 0.6267(5)
O6_2 O 0.4329(2) 0.4433(2) 0.7869(3)
N5_2 N 0.2151(3) 0.6792(3) 0.6974(4)
N6_2 N 0.2938(3) 0.5943(3) 0.6904(3)
C34_2 C 0.4087(3) 0.4661(3) 0.7221(4)
C35_2 C 0.3570(4) 0.5653(4) 0.5820(5)
H30_2 H 0.3354 0.5352 0.5455
H31_2 H 0.4015 0.5587 0.5856
H32_2 H 0.3469 0.6068 0.5624
C36_2 C 0.3367(3) 0.5574(3) 0.6657(4)
C37_2 C 0.3581(3) 0.5133(3) 0.7257(4)
C38_2 C 0.3261(4) 0.5243(3) 0.7895(4)
C39_2 C 0.3301(4) 0.4876(4) 0.8702(5)
H33_2 H 0.3585 0.4530 0.8691
H34_2 H 0.2891 0.4722 0.8770
H35_2 H 0.3451 0.5148 0.9144
C40_2 C 0.2859(3) 0.5765(4) 0.7683(4)
C41_2 C 0.2472(4) 0.6115(4) 0.8138(6)
C42_2 C 0.2448(5) 0.5950(6) 0.9002(6)
C43_2 C 0.1987(6) 0.5535(7) 0.9180(7)
H36_2 H 0.1698 0.5363 0.8773
C47_2 C 0.2894(7) 0.6218(6) 0.9609(7)
H40_2 H 0.3197 0.6488 0.9456
C48_2 C 0.2112(4) 0.6617(4) 0.7781(4)
C49_2 C 0.1684(4) 0.7021(4) 0.8070(5)
C50_2 C 0.1492(6) 0.7023(6) 0.8939(6)
H41_2 H 0.1224 0.7376 0.8998
H42_2 H 0.1863 0.7052 0.9331
H43_2 H 0.1271 0.6643 0.9025
C51_2 C 0.1450(4) 0.7401(4) 0.7438(5)
C52_2 C 0.1758(4) 0.7258(4) 0.6782(5)
C53_2 C 0.1662(6) 0.7562(6) 0.5958(6)
H44_2 H 0.2052 0.7737 0.5844
H45_2 H 0.1354 0.7889 0.5950
H46_2 H 0.1519 0.7255 0.5555
C54_2 C 0.0922(4) 0.7881(4) 0.7428(5)
B2_2 B 0.2601(6) 0.6496(7) 0.6430(6)
C44_2 C 0.6974(7) 0.0383(7) 0.0017(8)
H37_2 H 0.6670 0.0113 0.0165
C45_2 C 0.7416(8) 0.0640(8) 0.0597(8)
H38_2 H 0.7413 0.0520 0.1132
C46_2 C 0.7891(8) 0.1091(8) 0.0420(8)
H39_2 H 0.8171 0.1278 0.0824
H27_3 H 0.0037 0.2223 0.0210
O5 O 0.0768(2) 0.0470(2) 0.3482(3)
O6_3 O 0.0671(2) 0.0567(2) 0.2131(3)
C34_3 C 0.0913(3) 0.0339(3) 0.2779(4)
C39_3 C 0.1699(4) 0.0124(4) 0.1298(5)
H33_3 H 0.1415 0.0470 0.1309
H34_3 H 0.2109 0.0278 0.1230
Cd3 Cd 0.008837(19) 0.124843(19) 0.34185(2)
O11_2 O 0.0647(3) 0.1969(3) 0.1755(3)
N1_3 N 0.0170(3) 0.1344(2) 0.4779(4)
C1_3 C 0.0304(5) 0.1513(7) 0.7363(5)
H1_3 H 0.0521 0.1899 0.7533
H2_3 H 0.0551 0.1168 0.7614
C2_3 C 0.0259(5) 0.1455(6) 0.6454(5)
C3_3 C 0.0106(6) 0.1951(5) 0.5956(5)
H3_3 H 0.0027 0.2340 0.6173
C4_3 C 0.0067(5) 0.1877(4) 0.5120(4)
C5_3 C 0.0307(4) 0.0861(4) 0.5265(5)
H5_3 H 0.0371 0.0473 0.5038
C6_3 C 0.0357(5) 0.0907(5) 0.6087(5)
H6_3 H 0.0461 0.0553 0.6401
O13_2 O 0.0814(3) 0.1906(3) 0.3093(3)
F3_3 F 0.2737(4) 0.8723(3) 0.4272(4)
F4_3 F 0.1955(4) 0.8052(3) 0.3733(5)
O7_2 O 0.4353(3) 0.6969(3) 0.3245(3)
O8_2 O 0.4186(3) 0.6906(3) 0.1907(3)
N5_3 N 0.2849(3) 0.8208(3) 0.3026(4)
N6_3 N 0.2062(3) 0.9057(3) 0.3096(3)
C35_3 C 0.1430(4) 0.9347(4) 0.4180(5)
H30_3 H 0.1646 0.9648 0.4545
H31_3 H 0.0985 0.9413 0.4144
H32_3 H 0.1531 0.8932 0.4376
C36_3 C 0.1633(3) 0.9426(3) 0.3343(4)
C37_3 C 0.1419(3) 0.9867(3) 0.2743(4)
C38_3 C 0.1739(4) 0.9757(3) 0.2105(4)
H35_3 H 0.1549 0.9852 0.0856
C40_3 C 0.2141(3) 0.9235(4) 0.2317(4)
C41_3 C 0.2528(4) 0.8885(4) 0.1862(6)
C42_3 C 0.2552(5) 0.9050(6) 0.0998(6)
C43_3 C 0.3013(6) 0.9465(7) 0.0820(7)
H36_3 H 0.3302 0.9637 0.1227
C47_3 C 0.2106(7) 0.8782(6) 0.0391(7)
H40_3 H 0.1803 0.8512 0.0544
C48_3 C 0.2888(4) 0.8383(4) 0.2219(4)
C49_3 C 0.3316(4) 0.7979(4) 0.1930(5)
C50_3 C 0.3508(6) 0.7977(6) 0.1061(6)
H41_3 H 0.3776 0.7624 0.1002
H42_3 H 0.3137 0.7948 0.0669
H43_3 H 0.3729 0.8357 0.0975
C51_3 C 0.3550(4) 0.7599(4) 0.2562(5)
C52_3 C 0.3242(4) 0.7742(4) 0.3218(5)
C53_3 C 0.3338(6) 0.7438(6) 0.4042(6)
H44_3 H 0.2948 0.7263 0.4156
H45_3 H 0.3646 0.7111 0.4050
H46_3 H 0.3481 0.7745 0.4445
C54_3 C 0.4078(4) 0.7119(4) 0.2572(5)
B2_3 B 0.2399(6) 0.8504(7) 0.3570(6)
Cd5 Cd 0.508837(19) 0.624843(19) 0.34185(2)
Cd7 Cd 0.491163(19) 0.624843(19) 0.15815(2)
N4_3 N 0.9830(3) 0.1344(2) 0.0221(4)
Cd2 Cd 0.991163(19) 0.124843(19) 0.15815(2)
O9 O 0.9232(2) 0.0470(2) 0.1518(3)
O14_2 O 0.9186(3) 0.1906(3) 0.1907(3)
O2_3 O 0.9329(2) 0.0567(2) 0.2869(3)
H4_3 H 0.9963 0.2223 0.4790
C7_3 C 0.9087(3) 0.0339(3) 0.2221(4)
C12_3 C 0.8301(4) 0.0124(4) 0.3702(5)
H10_3 H 0.8585 0.0470 0.3691
H11_3 H 0.7891 0.0278 0.3770
C28_3 C 0.9696(5) 0.1513(7) 0.7637(5)
H24_3 H 0.9479 0.1899 0.7467
H25_3 H 0.9449 0.1168 0.7386
C29_3 C 0.9741(5) 0.1455(6) 0.8546(5)
C30_3 C 0.9894(6) 0.1951(5) 0.9044(5)
H26_3 H 0.9973 0.2340 0.8827
C31_3 C 0.9933(5) 0.1877(4) 0.9880(4)
C32_3 C 0.9693(4) 0.0861(4) 0.9735(5)
H28_3 H 0.9629 0.0473 0.9962
C33_3 C 0.9643(5) 0.0907(5) 0.8913(5)
H29_3 H 0.9539 0.0553 0.8599
O12_2 O 0.9353(3) 0.1969(3) 0.3245(3)
F1_3 F 0.7263(4) 0.8723(3) 0.0728(4)
F2_3 F 0.8045(4) 0.8052(3) 0.1267(5)
O3_2 O 0.5647(3) 0.6969(3) 0.1755(3)
O4_2 O 0.5814(3) 0.6906(3) 0.3093(3)
N2_3 N 0.7151(3) 0.8208(3) 0.1974(4)
N3_3 N 0.7938(3) 0.9057(3) 0.1904(3)
C8_3 C 0.8570(4) 0.9347(4) 0.0820(5)
H7_3 H 0.8354 0.9648 0.0455
H8_3 H 0.9015 0.9413 0.0856
H9_3 H 0.8469 0.8932 0.0624
C9_3 C 0.8367(3) 0.9426(3) 0.1657(4)
C10_3 C 0.8581(3) 0.9867(3) 0.2257(4)
C11_3 C 0.8261(4) 0.9757(3) 0.2895(4)
H12_3 H 0.8451 0.9852 0.4144
C13_3 C 0.7859(3) 0.9235(4) 0.2683(4)
C14_3 C 0.7472(4) 0.8885(4) 0.3138(6)
C15_3 C 0.7448(5) 0.9050(6) 0.4002(6)
C16_3 C 0.6987(6) 0.9465(7) 0.4180(7)
H13_3 H 0.6698 0.9637 0.3773
C17_3 C 0.6974(7) 0.9617(7) 0.5017(8)
H14_3 H 0.6670 0.9887 0.5165
C18_3 C 0.7416(8) 0.9360(8) 0.5597(8)
H15_3 H 0.7413 0.9480 0.6132
C19_3 C 0.7891(8) 0.8909(8) 0.5420(8)
H16_3 H 0.8171 0.8722 0.5824
C20_3 C 0.7894(7) 0.8782(6) 0.4609(7)
H17_3 H 0.8197 0.8512 0.4456
C21_3 C 0.7112(4) 0.8383(4) 0.2781(4)
C22_3 C 0.6684(4) 0.7979(4) 0.3070(5)
C23_3 C 0.6492(6) 0.7977(6) 0.3939(6)
H18_3 H 0.6224 0.7624 0.3998
H19_3 H 0.6863 0.7948 0.4331
H20_3 H 0.6271 0.8357 0.4025
C24_3 C 0.6450(4) 0.7599(4) 0.2438(5)
C25_3 C 0.6758(4) 0.7742(4) 0.1782(5)
C26_3 C 0.6662(6) 0.7438(6) 0.0958(6)
H21_3 H 0.7052 0.7263 0.0844
H22_3 H 0.6354 0.7111 0.0950
H23_3 H 0.6519 0.7745 0.0555
C27_3 C 0.5922(4) 0.7119(4) 0.2428(5)
B1_3 B 0.7601(6) 0.8504(7) 0.1430(6)
N4_4 N 0.4830(3) 0.6344(2) 0.0221(4)
H27_4 H 0.5037 0.7223 0.0210
F3_4 F 0.7737(4) 0.3723(3) 0.4272(4)
F4_4 F 0.6955(4) 0.3052(3) 0.3733(5)
O5_2 O 0.5768(2) 0.5470(2) 0.3482(3)
O6_4 O 0.5671(2) 0.5567(2) 0.2131(3)
N5_4 N 0.7849(3) 0.3208(3) 0.3026(4)
N6_4 N 0.7062(3) 0.4057(3) 0.3096(3)
C34_4 C 0.5913(3) 0.5339(3) 0.2779(4)
C35_4 C 0.6430(4) 0.4347(4) 0.4180(5)
H30_4 H 0.6646 0.4648 0.4545
H31_4 H 0.5985 0.4413 0.4144
H32_4 H 0.6531 0.3932 0.4376
C36_4 C 0.6633(3) 0.4426(3) 0.3343(4)
C37_4 C 0.6419(3) 0.4867(3) 0.2743(4)
C38_4 C 0.6739(4) 0.4757(3) 0.2105(4)
C39_4 C 0.6699(4) 0.5124(4) 0.1298(5)
H33_4 H 0.6415 0.5470 0.1309
H34_4 H 0.7109 0.5278 0.1230
H35_4 H 0.6549 0.4852 0.0856
C40_4 C 0.7141(3) 0.4235(4) 0.2317(4)
C41_4 C 0.7528(4) 0.3885(4) 0.1862(6)
C42_4 C 0.7552(5) 0.4050(6) 0.0998(6)
C43_4 C 0.8013(6) 0.4465(7) 0.0820(7)
H36_4 H 0.8302 0.4637 0.1227
C47_4 C 0.7106(7) 0.3782(6) 0.0391(7)
H40_4 H 0.6803 0.3512 0.0544
C48_4 C 0.7888(4) 0.3383(4) 0.2219(4)
C49_4 C 0.8316(4) 0.2979(4) 0.1930(5)
C50_4 C 0.8508(6) 0.2977(6) 0.1061(6)
H41_4 H 0.8776 0.2624 0.1002
H42_4 H 0.8137 0.2948 0.0669
H43_4 H 0.8729 0.3357 0.0975
C51_4 C 0.8550(4) 0.2599(4) 0.2562(5)
C52_4 C 0.8242(4) 0.2742(4) 0.3218(5)
C53_4 C 0.8338(6) 0.2438(6) 0.4042(6)
H44_4 H 0.7948 0.2263 0.4156
H45_4 H 0.8646 0.2111 0.4050
H46_4 H 0.8481 0.2745 0.4445
C54_4 C 0.9078(4) 0.2119(4) 0.2572(5)
B2_4 B 0.7399(6) 0.3504(7) 0.3570(6)
O9_2 O 0.4232(2) 0.5470(2) 0.1518(3)
F1_4 F 0.2263(4) 0.3723(3) 0.0728(4)
F2_4 F 0.3045(4) 0.3052(3) 0.1267(5)
O2_4 O 0.4329(2) 0.5567(2) 0.2869(3)
N1_4 N 0.5170(3) 0.6344(2) 0.4779(4)
N2_4 N 0.2151(3) 0.3208(3) 0.1974(4)
N3_4 N 0.2938(3) 0.4057(3) 0.1904(3)
C1_4 C 0.5304(5) 0.6513(7) 0.7363(5)
H1_4 H 0.5521 0.6899 0.7533
H2_4 H 0.5551 0.6168 0.7614
C2_4 C 0.5259(5) 0.6455(6) 0.6454(5)
C3_4 C 0.5106(6) 0.6951(5) 0.5956(5)
H3_4 H 0.5027 0.7340 0.6173
C4_4 C 0.5067(5) 0.6877(4) 0.5120(4)
H4_4 H 0.4963 0.7223 0.4790
C5_4 C 0.5307(4) 0.5861(4) 0.5265(5)
H5_4 H 0.5371 0.5473 0.5038
C6_4 C 0.5357(5) 0.5907(5) 0.6087(5)
H6_4 H 0.5461 0.5553 0.6401
C7_4 C 0.4087(3) 0.5339(3) 0.2221(4)
C8_4 C 0.3570(4) 0.4347(4) 0.0820(5)
H7_4 H 0.3354 0.4648 0.0455
H8_4 H 0.4015 0.4413 0.0856
H9_4 H 0.3469 0.3932 0.0624
C9_4 C 0.3367(3) 0.4426(3) 0.1657(4)
C10_4 C 0.3581(3) 0.4867(3) 0.2257(4)
C11_4 C 0.3261(4) 0.4757(3) 0.2895(4)
C12_4 C 0.3301(4) 0.5124(4) 0.3702(5)
H10_4 H 0.3585 0.5470 0.3691
H11_4 H 0.2891 0.5278 0.3770
H12_4 H 0.3451 0.4852 0.4144
C13_4 C 0.2859(3) 0.4235(4) 0.2683(4)
C14_4 C 0.2472(4) 0.3885(4) 0.3138(6)
C15_4 C 0.2448(5) 0.4050(6) 0.4002(6)
C16_4 C 0.1987(6) 0.4465(7) 0.4180(7)
H13_4 H 0.1698 0.4637 0.3773
C17_4 C 0.1974(7) 0.4617(7) 0.5017(8)
H14_4 H 0.1670 0.4887 0.5165
C18_4 C 0.2416(8) 0.4360(8) 0.5597(8)
H15_4 H 0.2413 0.4480 0.6132
C19_4 C 0.2891(8) 0.3909(8) 0.5420(8)
H16_4 H 0.3171 0.3722 0.5824
C20_4 C 0.2894(7) 0.3782(6) 0.4609(7)
H17_4 H 0.3197 0.3512 0.4456
C21_4 C 0.2112(4) 0.3383(4) 0.2781(4)
C22_4 C 0.1684(4) 0.2979(4) 0.3070(5)
C23_4 C 0.1492(6) 0.2977(6) 0.3939(6)
H18_4 H 0.1224 0.2624 0.3998
H19_4 H 0.1863 0.2948 0.4331
H20_4 H 0.1271 0.3357 0.4025
C24_4 C 0.1450(4) 0.2599(4) 0.2438(5)
C25_4 C 0.1758(4) 0.2742(4) 0.1782(5)
C26_4 C 0.1662(6) 0.2438(6) 0.0958(6)
H21_4 H 0.2052 0.2263 0.0844
H22_4 H 0.1354 0.2111 0.0950
H23_4 H 0.1519 0.2745 0.0555
C27_4 C 0.0922(4) 0.2119(4) 0.2428(5)
B1_4 B 0.2601(6) 0.3504(7) 0.1430(6)
C28_4 C 0.4696(5) 0.6513(7) 0.7637(5)
H24_4 H 0.4479 0.6899 0.7467
H25_4 H 0.4449 0.6168 0.7386
C29_4 C 0.4741(5) 0.6455(6) 0.8546(5)
C30_4 C 0.4894(6) 0.6951(5) 0.9044(5)
H26_4 H 0.4973 0.7340 0.8827
C31_4 C 0.4933(5) 0.6877(4) 0.9880(4)
C32_4 C 0.4693(4) 0.5861(4) 0.9735(5)
H28_4 H 0.4629 0.5473 0.9962
C33_4 C 0.4643(5) 0.5907(5) 0.8913(5)
H29_4 H 0.4539 0.5553 0.8599
C44_3 C 0.8026(7) 0.4617(7) 0.9983(8)
H37_3 H 0.8330 0.4887 0.9835
C45_3 C 0.7584(8) 0.4360(8) 0.9403(8)
H38_3 H 0.7587 0.4480 0.8868
C46_3 C 0.7109(8) 0.3909(8) 0.9580(8)
H39_3 H 0.6829 0.3722 0.9176
C44_4 C 0.3026(7) 0.9617(7) 0.9983(8)
H37_4 H 0.3330 0.9887 0.9835
C45_4 C 0.2584(8) 0.9360(8) 0.9403(8)
H38_4 H 0.2587 0.9480 0.8868
C46_4 C 0.2109(8) 0.8909(8) 0.9580(8)
H39_4 H 0.1829 0.8722 0.9176
loop_
_geom_bond_atom_site_label_1
_geom_bond_atom_site_label_2
_geom_bond_site_symmetry_1
_geom_bond_site_symmetry_2
F1 B1 1_555 1_555
F2 B1 1_555 1_555
O3 C27 1_555 1_555
O4 C27 1_555 1_555
N2 C21 1_555 1_555
N3 C9 1_555 1_555
C8 H7 1_555 1_555
H8 C8 1_555 1_555
H9 C8 1_555 1_555
C9 C8 1_555 1_555
C10 C9 1_555 1_555
C11 C10 1_555 1_555
C13 N3 1_555 1_555
C14 C13 1_555 1_555
C15 C14 1_555 1_555
C16 C15 1_555 1_555
H13 C16 1_555 1_555
C17 C16 1_555 1_555
H14 C17 1_555 1_555
C18 C17 1_555 1_555
H15 C18 1_555 1_555
C19 C18 1_555 1_555
H16 C19 1_555 1_555
C20 C15 1_555 1_555
H17 C20 1_555 1_555
C21 C14 1_555 1_555
C22 C21 1_555 1_555
C23 C22 1_555 1_555
H18 C23 1_555 1_555
H19 C23 1_555 1_555
H20 C23 1_555 1_555
C24 C22 1_555 1_555
C25 N2 1_555 1_555
C26 C25 1_555 1_555
H21 C26 1_555 1_555
H22 C26 1_555 1_555
H23 C26 1_555 1_555
C27 C24 1_555 1_555
B1 N2 1_555 1_555
Cd6 O4 1_555 1_555
Cd8 O3 1_555 1_555
N3 B1 1_555 1_555
C11 C13 1_555 1_555
C19 C20 1_555 1_555
C24 C25 1_555 1_555
O1 C7 1_555 1_555
O2 C7 1_555 1_555
H10 C12 1_555 1_555
H11 C12 1_555 1_555
H24 C28 1_555 1_555
H25 C28 1_555 1_555
C29 C28 1_555 1_555
C30 C29 1_555 1_555
H26 C30 1_555 1_555
C31 C30 1_555 1_555
H28 C32 1_555 1_555
C33 C29 1_555 1_555
H29 C33 1_555 1_555
Cd4 O1 1_555 1_555
C32 C33 1_555 1_555
Cd4 N4 1_555 1_555
O14 Cd4 1_555 1_555
F3 B2 1_555 1_555
F4 B2 1_555 1_555
O7 C54 1_555 1_555
O8 C54 1_555 1_555
N5 C48 1_555 1_555
N6 C36 1_555 1_555
C35 H30 1_555 1_555
H31 C35 1_555 1_555
H32 C35 1_555 1_555
C36 C35 1_555 1_555
C38 C37 1_555 1_555
C40 N6 1_555 1_555
C41 C40 1_555 1_555
C42 C41 1_555 1_555
C43 C42 1_555 1_555
H36 C43 1_555 1_555
C47 C42 1_555 1_555
H40 C47 1_555 1_555
C48 C41 1_555 1_555
C49 C48 1_555 1_555
C50 C49 1_555 1_555
H41 C50 1_555 1_555
H42 C50 1_555 1_555
H43 C50 1_555 1_555
C51 C49 1_555 1_555
C52 N5 1_555 1_555
C53 C52 1_555 1_555
H44 C53 1_555 1_555
H45 C53 1_555 1_555
H46 C53 1_555 1_555
C54 C51 1_555 1_555
B2 N5 1_555 1_555
Cd6 O7 1_555 1_555
Cd8 O8 1_555 1_555
N6 B2 1_555 1_555
C36 C37 1_555 1_555
C38 C40 1_555 1_555
C51 C52 1_555 1_555
N1 Cd1 1_555 1_555
C1 H1 1_555 1_555
H2 C1 1_555 1_555
C2 C1 1_555 1_555
C3 C2 1_555 1_555
H3 C3 1_555 1_555
C4 N1 1_555 1_555
C5 N1 1_555 1_555
H5 C5 1_555 1_555
C6 C2 1_555 1_555
H6 C6 1_555 1_555
O10 Cd1 1_555 1_555
O13 Cd1 1_555 1_555
C3 C4 1_555 1_555
C5 C6 1_555 1_555
O10 C34 1_555 1_555
C34 O6 1_555 1_555
H33 C39 1_555 1_555
H34 C39 1_555 1_555
Cd6 O2_2 1_555 1_555
F1_2 B1_2 1_555 1_555
F2_2 B1_2 1_555 1_555
O1_2 C7_2 1_555 1_555
O2_2 C7_2 1_555 1_555
O11 C27_2 1_555 1_555
O13 C27_2 1_555 1_555
N1_2 Cd6 1_555 1_555
N2_2 C21_2 1_555 1_555
N3_2 C9_2 1_555 1_555
C1_2 H1_2 1_555 1_555
H2_2 C1_2 1_555 1_555
C2_2 C1_2 1_555 1_555
C3_2 C2_2 1_555 1_555
H3_2 C3_2 1_555 1_555
C4_2 N1_2 1_555 1_555
H4_2 C4_2 1_555 1_555
C5_2 N1_2 1_555 1_555
H5_2 C5_2 1_555 1_555
C6_2 C2_2 1_555 1_555
H6_2 C6_2 1_555 1_555
C7_2 C10_2 1_555 1_555
C8_2 H7_2 1_555 1_555
H8_2 C8_2 1_555 1_555
H9_2 C8_2 1_555 1_555
C9_2 C8_2 1_555 1_555
C10_2 C9_2 1_555 1_555
C11_2 C10_2 1_555 1_555
C12_2 C11_2 1_555 1_555
H10_2 C12_2 1_555 1_555
H11_2 C12_2 1_555 1_555
H12_2 C12_2 1_555 1_555
C13_2 N3_2 1_555 1_555
C14_2 C13_2 1_555 1_555
C15_2 C14_2 1_555 1_555
C16_2 C15_2 1_555 1_555
H13_2 C16_2 1_555 1_555
C17_2 C16_2 1_555 1_555
H14_2 C17_2 1_555 1_555
C18_2 C17_2 1_555 1_555
H15_2 C18_2 1_555 1_555
C19_2 C18_2 1_555 1_555
H16_2 C19_2 1_555 1_555
C20_2 C15_2 1_555 1_555
H17_2 C20_2 1_555 1_555
C21_2 C14_2 1_555 1_555
C22_2 C21_2 1_555 1_555
C23_2 C22_2 1_555 1_555
H18_2 C23_2 1_555 1_555
H19_2 C23_2 1_555 1_555
H20_2 C23_2 1_555 1_555
C24_2 C22_2 1_555 1_555
C25_2 N2_2 1_555 1_555
C26_2 C25_2 1_555 1_555
H21_2 C26_2 1_555 1_555
H22_2 C26_2 1_555 1_555
H23_2 C26_2 1_555 1_555
C27_2 C24_2 1_555 1_555
B1_2 N2_2 1_555 1_555
C28_2 C1_2 1_555 1_555
H24_2 C28_2 1_555 1_555
H25_2 C28_2 1_555 1_555
C29_2 C28_2 1_555 1_555
C30_2 C29_2 1_555 1_555
H26_2 C30_2 1_555 1_555
C31_2 C30_2 1_555 1_555
H28_2 C32_2 1_555 1_555
C33_2 C29_2 1_555 1_555
H29_2 C33_2 1_555 1_555
H37 C44 1_555 1_555
C45 C44 1_555 1_555
H38 C45 1_555 1_555
C46 C45 1_555 1_555
H39 C46 1_555 1_555
Cd8 O1_2 1_555 1_555
O10_2 Cd6 1_555 1_555
N3_2 B1_2 1_555 1_555
C3_2 C4_2 1_555 1_555
C5_2 C6_2 1_555 1_555
C11_2 C13_2 1_555 1_555
C19_2 C20_2 1_555 1_555
C24_2 C25_2 1_555 1_555
C32_2 C33_2 1_555 1_555
Cd8 N4_2 1_555 1_555
F3_2 B2_2 1_555 1_555
F4_2 B2_2 1_555 1_555
O10_2 C34_2 1_555 1_555
O6_2 Cd8 1_555 1_555
O12 C54_2 1_555 1_555
O14 C54_2 1_555 1_555
N5_2 C48_2 1_555 1_555
N6_2 C36_2 1_555 1_555
C34_2 O6_2 1_555 1_555
C35_2 H30_2 1_555 1_555
H31_2 C35_2 1_555 1_555
H32_2 C35_2 1_555 1_555
C36_2 C35_2 1_555 1_555
C37_2 C34_2 1_555 1_555
C38_2 C37_2 1_555 1_555
C39_2 C38_2 1_555 1_555
H33_2 C39_2 1_555 1_555
H34_2 C39_2 1_555 1_555
H35_2 C39_2 1_555 1_555
C40_2 N6_2 1_555 1_555
C41_2 C40_2 1_555 1_555
C42_2 C41_2 1_555 1_555
C43_2 C42_2 1_555 1_555
H36_2 C43_2 1_555 1_555
C47_2 C42_2 1_555 1_555
H40_2 C47_2 1_555 1_555
C48_2 C41_2 1_555 1_555
C49_2 C48_2 1_555 1_555
C50_2 C49_2 1_555 1_555
H41_2 C50_2 1_555 1_555
H42_2 C50_2 1_555 1_555
H43_2 C50_2 1_555 1_555
C51_2 C49_2 1_555 1_555
C52_2 N5_2 1_555 1_555
C53_2 C52_2 1_555 1_555
H44_2 C53_2 1_555 1_555
H45_2 C53_2 1_555 1_555
H46_2 C53_2 1_555 1_555
C54_2 C51_2 1_555 1_555
B2_2 N5_2 1_555 1_555
N6_2 B2_2 1_555 1_555
C36_2 C37_2 1_555 1_555
C38_2 C40_2 1_555 1_555
C51_2 C52_2 1_555 1_555
H37_2 C44_2 1_555 1_555
C45_2 C44_2 1_555 1_555
H38_2 C45_2 1_555 1_555
C46_2 C45_2 1_555 1_555
H39_2 C46_2 1_555 1_555
O5 C34_3 1_555 1_555
C34_3 O6_3 1_555 1_555
H33_3 C39_3 1_555 1_555
H34_3 C39_3 1_555 1_555
Cd3 O5 1_555 1_555
N1_3 Cd3 1_555 1_555
C1_3 H1_3 1_555 1_555
H2_3 C1_3 1_555 1_555
C2_3 C1_3 1_555 1_555
C3_3 C2_3 1_555 1_555
H3_3 C3_3 1_555 1_555
C4_3 N1_3 1_555 1_555
C5_3 N1_3 1_555 1_555
H5_3 C5_3 1_555 1_555
C6_3 C2_3 1_555 1_555
H6_3 C6_3 1_555 1_555
O13_2 Cd3 1_555 1_555
C3_3 C4_3 1_555 1_555
C5_3 C6_3 1_555 1_555
F3_3 B2_3 1_555 1_555
F4_3 B2_3 1_555 1_555
O7_2 C54_3 1_555 1_555
O8_2 C54_3 1_555 1_555
N5_3 C48_3 1_555 1_555
N6_3 C36_3 1_555 1_555
C35_3 H30_3 1_555 1_555
H31_3 C35_3 1_555 1_555
H32_3 C35_3 1_555 1_555
C36_3 C35_3 1_555 1_555
C38_3 C37_3 1_555 1_555
C40_3 N6_3 1_555 1_555
C41_3 C40_3 1_555 1_555
C42_3 C41_3 1_555 1_555
C43_3 C42_3 1_555 1_555
H36_3 C43_3 1_555 1_555
C47_3 C42_3 1_555 1_555
H40_3 C47_3 1_555 1_555
C48_3 C41_3 1_555 1_555
C49_3 C48_3 1_555 1_555
C50_3 C49_3 1_555 1_555
H41_3 C50_3 1_555 1_555
H42_3 C50_3 1_555 1_555
H43_3 C50_3 1_555 1_555
C51_3 C49_3 1_555 1_555
C52_3 N5_3 1_555 1_555
C53_3 C52_3 1_555 1_555
H44_3 C53_3 1_555 1_555
H45_3 C53_3 1_555 1_555
H46_3 C53_3 1_555 1_555
C54_3 C51_3 1_555 1_555
B2_3 N5_3 1_555 1_555
Cd5 O7_2 1_555 1_555
Cd7 O8_2 1_555 1_555
N6_3 B2_3 1_555 1_555
C36_3 C37_3 1_555 1_555
C38_3 C40_3 1_555 1_555
C51_3 C52_3 1_555 1_555
Cd2 N4_3 1_555 1_555
O9 Cd2 1_555 1_555
O14_2 Cd2 1_555 1_555
O9 C7_3 1_555 1_555
O2_3 C7_3 1_555 1_555
H10_3 C12_3 1_555 1_555
H11_3 C12_3 1_555 1_555
H24_3 C28_3 1_555 1_555
H25_3 C28_3 1_555 1_555
C29_3 C28_3 1_555 1_555
C30_3 C29_3 1_555 1_555
H26_3 C30_3 1_555 1_555
C31_3 C30_3 1_555 1_555
H28_3 C32_3 1_555 1_555
C33_3 C29_3 1_555 1_555
H29_3 C33_3 1_555 1_555
C32_3 C33_3 1_555 1_555
F1_3 B1_3 1_555 1_555
F2_3 B1_3 1_555 1_555
O3_2 C27_3 1_555 1_555
O4_2 C27_3 1_555 1_555
N2_3 C21_3 1_555 1_555
N3_3 C9_3 1_555 1_555
C8_3 H7_3 1_555 1_555
H8_3 C8_3 1_555 1_555
H9_3 C8_3 1_555 1_555
C9_3 C8_3 1_555 1_555
C10_3 C9_3 1_555 1_555
C11_3 C10_3 1_555 1_555
C13_3 N3_3 1_555 1_555
C14_3 C13_3 1_555 1_555
C15_3 C14_3 1_555 1_555
C16_3 C15_3 1_555 1_555
H13_3 C16_3 1_555 1_555
C17_3 C16_3 1_555 1_555
H14_3 C17_3 1_555 1_555
C18_3 C17_3 1_555 1_555
H15_3 C18_3 1_555 1_555
C19_3 C18_3 1_555 1_555
H16_3 C19_3 1_555 1_555
C20_3 C15_3 1_555 1_555
H17_3 C20_3 1_555 1_555
C21_3 C14_3 1_555 1_555
C22_3 C21_3 1_555 1_555
C23_3 C22_3 1_555 1_555
H18_3 C23_3 1_555 1_555
H19_3 C23_3 1_555 1_555
H20_3 C23_3 1_555 1_555
C24_3 C22_3 1_555 1_555
C25_3 N2_3 1_555 1_555
C26_3 C25_3 1_555 1_555
H21_3 C26_3 1_555 1_555
H22_3 C26_3 1_555 1_555
H23_3 C26_3 1_555 1_555
C27_3 C24_3 1_555 1_555
B1_3 N2_3 1_555 1_555
Cd5 O4_2 1_555 1_555
Cd7 O3_2 1_555 1_555
N3_3 B1_3 1_555 1_555
C11_3 C13_3 1_555 1_555
C19_3 C20_3 1_555 1_555
C24_3 C25_3 1_555 1_555
Cd7 N4_4 1_555 1_555
F3_4 B2_4 1_555 1_555
F4_4 B2_4 1_555 1_555
O5_2 C34_4 1_555 1_555
O6_4 Cd7 1_555 1_555
O12_2 C54_4 1_555 1_555
O14_2 C54_4 1_555 1_555
N5_4 C48_4 1_555 1_555
N6_4 C36_4 1_555 1_555
C34_4 O6_4 1_555 1_555
C35_4 H30_4 1_555 1_555
H31_4 C35_4 1_555 1_555
H32_4 C35_4 1_555 1_555
C36_4 C35_4 1_555 1_555
C37_4 C34_4 1_555 1_555
C38_4 C37_4 1_555 1_555
C39_4 C38_4 1_555 1_555
H33_4 C39_4 1_555 1_555
H34_4 C39_4 1_555 1_555
H35_4 C39_4 1_555 1_555
C40_4 N6_4 1_555 1_555
C41_4 C40_4 1_555 1_555
C42_4 C41_4 1_555 1_555
C43_4 C42_4 1_555 1_555
H36_4 C43_4 1_555 1_555
C47_4 C42_4 1_555 1_555
H40_4 C47_4 1_555 1_555
C48_4 C41_4 1_555 1_555
C49_4 C48_4 1_555 1_555
C50_4 C49_4 1_555 1_555
H41_4 C50_4 1_555 1_555
H42_4 C50_4 1_555 1_555
H43_4 C50_4 1_555 1_555
C51_4 C49_4 1_555 1_555
C52_4 N5_4 1_555 1_555
C53_4 C52_4 1_555 1_555
H44_4 C53_4 1_555 1_555
H45_4 C53_4 1_555 1_555
H46_4 C53_4 1_555 1_555
C54_4 C51_4 1_555 1_555
B2_4 N5_4 1_555 1_555
Cd5 O5_2 1_555 1_555
O9_2 Cd7 1_555 1_555
N6_4 B2_4 1_555 1_555
C36_4 C37_4 1_555 1_555
C38_4 C40_4 1_555 1_555
C51_4 C52_4 1_555 1_555
Cd5 O2_4 1_555 1_555
F1_4 B1_4 1_555 1_555
F2_4 B1_4 1_555 1_555
O9_2 C7_4 1_555 1_555
O2_4 C7_4 1_555 1_555
O11_2 C27_4 1_555 1_555
O13_2 C27_4 1_555 1_555
N1_4 Cd5 1_555 1_555
N2_4 C21_4 1_555 1_555
N3_4 C9_4 1_555 1_555
C1_4 H1_4 1_555 1_555
H2_4 C1_4 1_555 1_555
C2_4 C1_4 1_555 1_555
C3_4 C2_4 1_555 1_555
H3_4 C3_4 1_555 1_555
C4_4 N1_4 1_555 1_555
H4_4 C4_4 1_555 1_555
C5_4 N1_4 1_555 1_555
H5_4 C5_4 1_555 1_555
C6_4 C2_4 1_555 1_555
H6_4 C6_4 1_555 1_555
C7_4 C10_4 1_555 1_555
C8_4 H7_4 1_555 1_555
H8_4 C8_4 1_555 1_555
H9_4 C8_4 1_555 1_555
C9_4 C8_4 1_555 1_555
C10_4 C9_4 1_555 1_555
C11_4 C10_4 1_555 1_555
C12_4 C11_4 1_555 1_555
H10_4 C12_4 1_555 1_555
H11_4 C12_4 1_555 1_555
H12_4 C12_4 1_555 1_555
C13_4 N3_4 1_555 1_555
C14_4 C13_4 1_555 1_555
C15_4 C14_4 1_555 1_555
C16_4 C15_4 1_555 1_555
H13_4 C16_4 1_555 1_555
C17_4 C16_4 1_555 1_555
H14_4 C17_4 1_555 1_555
C18_4 C17_4 1_555 1_555
H15_4 C18_4 1_555 1_555
C19_4 C18_4 1_555 1_555
H16_4 C19_4 1_555 1_555
C20_4 C15_4 1_555 1_555
H17_4 C20_4 1_555 1_555
C21_4 C14_4 1_555 1_555
C22_4 C21_4 1_555 1_555
C23_4 C22_4 1_555 1_555
H18_4 C23_4 1_555 1_555
H19_4 C23_4 1_555 1_555
H20_4 C23_4 1_555 1_555
C24_4 C22_4 1_555 1_555
C25_4 N2_4 1_555 1_555
C26_4 C25_4 1_555 1_555
H21_4 C26_4 1_555 1_555
H22_4 C26_4 1_555 1_555
H23_4 C26_4 1_555 1_555
C27_4 C24_4 1_555 1_555
B1_4 N2_4 1_555 1_555
C28_4 C1_4 1_555 1_555
H24_4 C28_4 1_555 1_555
H25_4 C28_4 1_555 1_555
C29_4 C28_4 1_555 1_555
C30_4 C29_4 1_555 1_555
H26_4 C30_4 1_555 1_555
C31_4 C30_4 1_555 1_555
H28_4 C32_4 1_555 1_555
C33_4 C29_4 1_555 1_555
H29_4 C33_4 1_555 1_555
H37_3 C44_3 1_555 1_555
C45_3 C44_3 1_555 1_555
H38_3 C45_3 1_555 1_555
C46_3 C45_3 1_555 1_555
H39_3 C46_3 1_555 1_555
N3_4 B1_4 1_555 1_555
C3_4 C4_4 1_555 1_555
C5_4 C6_4 1_555 1_555
C11_4 C13_4 1_555 1_555
C19_4 C20_4 1_555 1_555
C24_4 C25_4 1_555 1_555
C32_4 C33_4 1_555 1_555
H37_4 C44_4 1_555 1_555
C45_4 C44_4 1_555 1_555
H38_4 C45_4 1_555 1_555
C46_4 C45_4 1_555 1_555
H39_4 C46_4 1_555 1_555

#END
