
###############################################################################
#
# This file contains modified crystal structure data generated from the
# MOF subset of the Cambridge Structural Database (CSD) v543 
# hosted by the Cambridge Crystallographic Data Centre (CCDC).
#
# This work is licensed under the Creative Commons
# Attribution-NonCommercial-ShareAlike 4.0 International License.
# To view a copy of this license, visit
# http://creativecommons.org/licenses/by-nc-sa/4.0/
# or send a letter to
# Creative Commons, PO Box 1866, Mountain View, CA 94042, USA.
#
# CIF created using the CSD Python API on 29 September 2022
# The structure has been converted into the P1 space group
# The structure has a 3D framework
# The original CSD entry WOSHET is in the triclinic crystal system
# The framework has been calculated to contain at least 10.0% void space
# The void calculation uses a probe of radius 1.32A, grid spacing 0.4
# H atom positions have been added when not included in the experimental data
#
###############################################################################

data_WOSHET
_chemical_formula_moiety         '(C78 H44 Cu8 N38)n'
_symmetry_cell_setting           triclinic
_symmetry_space_group_name_H-M   'P 1'
_symmetry_Int_Tables_number      1
_space_group_name_Hall           'P 1'
loop_
_symmetry_equiv_pos_site_id
_symmetry_equiv_pos_as_xyz
1 x,y,z
_cell_length_a                   11.446(10)
_cell_length_b                   13.434(14)
_cell_length_c                   15.352(15)
_cell_angle_alpha                79.59(3)
_cell_angle_beta                 76.45(3)
_cell_angle_gamma                79.82(4)
_cell_volume                     2234.72
loop_
_atom_site_label
_atom_site_type_symbol
_atom_site_fract_x
_atom_site_fract_y
_atom_site_fract_z
Cu1 Cu 0.20021(9) 0.63781(7) 0.47923(7)
Cu3 Cu 0.32764(10) 0.62898(8) 0.26946(7)
Cu4 Cu 0.19201(10) 0.51428(9) 0.21743(7)
C3 C 0.0006(7) 0.3170(6) 0.6791(6)
C7 C 0.0116(7) 0.4250(6) 0.6388(6)
N6 N 0.3414(5) 0.5201(5) 0.4466(4)
N7 N 0.0797(6) 0.5580(5) 0.5627(5)
N8 N 0.1008(6) 0.4557(5) 0.5731(4)
N9 N 0.3645(6) 0.5154(5) 0.3562(4)
N10 N 0.4511(6) 0.3666(5) 0.4208(4)
N11 N 0.3898(6) 0.4316(5) 0.1961(4)
C8 C 0.3942(6) 0.4298(5) 0.4832(4)
C9 C 0.4204(7) 0.4099(6) 0.1100(5)
C10 C 0.5753(8) 0.3328(7) 0.2257(5)
H1 H 0.6273 0.3084 0.2656
C11 C 0.4282(6) 0.4255(5) 0.3434(4)
C12 C 0.4655(6) 0.3930(6) 0.2530(4)
N12 N 0.3871(6) 0.3483(6) 0.7693(4)
N15 N 0.2324(5) 0.5159(5) 0.0866(4)
C13 C 0.3902(7) 0.3999(6) 0.5824(5)
C14 C 0.3294(7) 0.4387(7) 0.7349(5)
H2 H 0.2854 0.4828 0.7750
C15 C 0.3322(7) 0.4693(6) 0.6431(5)
H3 H 0.2966 0.5343 0.6221
C16 C 0.4455(7) 0.3083(6) 0.6156(5)
H4 H 0.4840 0.2606 0.5773
C17 C 0.4442(8) 0.2865(6) 0.7077(5)
H5 H 0.4861 0.2242 0.7285
C18 C 0.3330(7) 0.4525(7) 0.0544(5)
C19 C 0.5312(7) 0.3482(6) 0.0808(5)
H6 H 0.5524 0.3340 0.0216
C20 C 0.6065(8) 0.3098(7) 0.1378(6)
H7 H 0.6787 0.2682 0.1186
C22 C 0.1770(7) 0.5417(7) 0.0118(6)
H11 H 0.0170 0.6379 0.1392
C27 C 0.0655(8) 0.6112(8) 0.0090(7)
C29 C 0.0859(10) 0.1428(9) 0.7028(12)
H13 H 0.1487 0.0896 0.6908
C31 C 0.0991(9) 0.2400(7) 0.6587(8)
H15 H 0.1699 0.2543 0.6174
H16 H 0.0627 0.7595 0.6256
N19 N 0.2314(7) 0.7684(6) 0.4218(6)
C39 C 0.2567(8) 0.8474(6) 0.3819(6)
Cu7 Cu 0.42746(9) 0.33448(8) 0.89380(6)
Cu11 Cu 0.30141(14) 0.97051(9) 0.31503(10)
N20 N 0.0690(6) 0.4966(5) 0.3270(4)
N21 N 0.1031(6) 0.7003(5) 0.2623(4)
N22 N 0.3283(6) 0.7415(5) 0.1743(5)
N13 N 0.2373(6) 0.4936(6) 0.9423(4)
N14 N 0.3376(6) 0.4361(6) 0.9692(4)
C34 C 0.0216(11) 0.6391(10) 0.9274(8)
H17 H 0.0656 0.6136 0.8751
Cu5 Cu 0.69859(14) 0.02949(9) 0.68497(10)
C40 C 0.7433(8) 0.1526(6) 0.6181(6)
C4 C 0.5468(7) 0.1049(6) 0.0288(5)
C23 C 0.3572(9) 0.0824(7) 0.1301(7)
H8 H 0.2730 0.0969 0.1410
C24 C 0.6004(9) 0.0367(7) 0.0949(6)
H9 H 0.6842 0.0183 0.0840
C28 C 0.4214(8) 0.1273(8) 0.0488(6)
H12 H 0.3809 0.1719 0.0082
N16 N 0.4079(7) 0.0184(6) 0.1957(5)
N1 N 0.9310(6) 0.5034(5) 0.6730(4)
N2 N 0.5739(6) 0.2326(5) 0.8927(4)
N3 N 0.8969(6) 0.2997(5) 0.7377(4)
N4 N 0.6717(6) 0.2585(5) 0.8257(5)
N5 N 0.7417(6) 0.1231(5) 0.9172(5)
C1 C 0.6203(7) 0.1512(6) 0.9465(5)
C2 C 0.9780(7) 0.5878(6) 0.6205(5)
C5 C 0.7661(7) 0.1943(6) 0.8410(6)
C6 C 0.8859(7) 0.2032(6) 0.7817(6)
C21 C 0.9206(8) 0.6918(7) 0.6297(6)
C26 C 0.9941(9) 0.6537(10) 0.0835(8)
C30 C 0.7972(10) 0.7146(8) 0.6422(10)
H14 H 0.7510 0.6632 0.6454
C32 C 0.9770(10) 0.1221(8) 0.7666(10)
C33 C 0.9790(11) 0.7706(9) 0.6305(10)
C35 C 0.8900(11) 0.7190(11) 0.0743(10)
H18 H 0.8459 0.7478 0.1249
C37 C 0.9159(12) 0.8683(8) 0.6388(10)
H20 H 0.9605 0.9210 0.6349
C38 C 0.7406(11) 0.8123(9) 0.6503(12)
H21 H 0.6569 0.8248 0.6551
N18 N 0.7968(8) 0.8906(6) 0.6516(7)
Cu8 Cu 0.67236(10) 0.37102(8) 0.73054(7)
Cu9 Cu 0.80799(10) 0.48572(9) 0.78257(7)
N25 N 0.5921(7) 0.9816(6) 0.8043(5)
H22 H 0.966314 0.0452676 0.801949
C25 C 0.5301(9) 0.9972(7) 0.1750(7)
H10 H 0.5688 0.9535 0.2171
C25_2 C 0.4699(9) 0.0028(7) 0.8250(7)
H10_2 H 0.4312 0.0465 0.7829
Cu2 Cu 0.57254(9) 0.66552(8) 0.10620(6)
N2_2 N 0.4261(6) 0.7674(5) 0.1073(4)
N5_2 N 0.2583(6) 0.8769(5) 0.0828(5)
C1_2 C 0.3797(7) 0.8488(6) 0.0535(5)
C2_2 C 0.0220(7) 0.4122(6) 0.3795(5)
C5_2 C 0.2339(7) 0.8057(6) 0.1590(6)
C6_2 C 0.1141(7) 0.7968(6) 0.2183(6)
C21_2 C 0.0794(8) 0.3082(7) 0.3703(6)
C26_2 C 0.0059(9) 0.3463(10) 0.9165(8)
C30_2 C 0.2028(10) 0.2854(8) 0.3578(10)
H14_2 H 0.2490 0.3368 0.3546
C32_2 C 0.0230(10) 0.8779(8) 0.2334(10)
C33_2 C 0.0210(11) 0.2294(9) 0.3695(10)
C35_2 C 0.1100(11) 0.2810(11) 0.9257(10)
H18_2 H 0.1541 0.2522 0.8751
C37_2 C 0.0841(12) 0.1317(8) 0.3612(10)
H20_2 H 0.0395 0.0790 0.3651
C38_2 C 0.2594(11) 0.1877(9) 0.3497(12)
H21_2 H 0.3431 0.1752 0.3449
N18_2 N 0.2032(8) 0.1094(6) 0.3484(7)
N23 N 0.6129(6) 0.6517(6) 0.2307(4)
N24 N 0.6624(6) 0.5639(6) 0.0308(4)
H22_2 H 0.0336856 0.954732 0.198051
C4_2 C 0.4532(7) 0.8951(6) 0.9712(5)
C23_2 C 0.6428(9) 0.9176(7) 0.8699(7)
H8_2 H 0.7270 0.9031 0.8590
C24_2 C 0.3996(9) 0.9633(7) 0.9051(6)
H9_2 H 0.3158 0.9817 0.9160
C28_2 C 0.5786(8) 0.8727(8) 0.9512(6)
H12_2 H 0.6191 0.8281 0.9918
N13_2 N 0.7627(6) 0.5064(6) 0.0577(4)
C34_2 C 0.9784(11) 0.3609(10) 0.0726(8)
H17_2 H 0.9344 0.3864 0.1249
Cu1_2 Cu 0.79979(9) 0.36219(7) 0.52077(7)
C3_2 C 0.9994(7) 0.6830(6) 0.3209(6)
C7_2 C 0.9884(7) 0.5750(6) 0.3612(6)
N6_2 N 0.6586(5) 0.4799(5) 0.5534(4)
N7_2 N 0.9203(6) 0.4420(5) 0.4373(5)
N8_2 N 0.8992(6) 0.5443(5) 0.4269(4)
N9_2 N 0.6355(6) 0.4846(5) 0.6438(4)
N10_2 N 0.5489(6) 0.6334(5) 0.5792(4)
N11_2 N 0.6102(6) 0.5684(5) 0.8039(4)
C8_2 C 0.6058(6) 0.5702(5) 0.5168(4)
C9_2 C 0.5796(7) 0.5901(6) 0.8900(5)
C10_2 C 0.4247(8) 0.6672(7) 0.7743(5)
H1_2 H 0.3727 0.6916 0.7344
C11_2 C 0.5718(6) 0.5745(5) 0.6566(4)
C12_2 C 0.5345(6) 0.6070(6) 0.7470(4)
N15_2 N 0.7676(5) 0.4841(5) 0.9134(4)
C13_2 C 0.6098(7) 0.6001(6) 0.4176(5)
C14_2 C 0.6706(7) 0.5613(7) 0.2651(5)
H2_2 H 0.7146 0.5172 0.2250
C15_2 C 0.6678(7) 0.5307(6) 0.3569(5)
H3_2 H 0.7034 0.4657 0.3779
C16_2 C 0.5545(7) 0.6917(6) 0.3844(5)
H4_2 H 0.5160 0.7394 0.4227
C17_2 C 0.5558(8) 0.7135(6) 0.2923(5)
H5_2 H 0.5139 0.7758 0.2715
C18_2 C 0.6670(7) 0.5475(7) 0.9456(5)
C19_2 C 0.4688(7) 0.6518(6) 0.9192(5)
H6_2 H 0.4476 0.6660 0.9784
C20_2 C 0.3935(8) 0.6902(7) 0.8622(6)
H7_2 H 0.3213 0.7318 0.8814
C22_2 C 0.8230(7) 0.4583(7) 0.9882(6)
H11_2 H 0.9830 0.3621 0.8608
C27_2 C 0.9345(8) 0.3888(8) 0.9910(7)
C29_2 C 0.9141(10) 0.8572(9) 0.2972(12)
H13_2 H 0.8513 0.9104 0.3092
C31_2 C 0.9009(9) 0.7600(7) 0.3413(8)
H15_2 H 0.8301 0.7457 0.3826
H16_2 H 0.9373 0.2405 0.3744
N19_2 N 0.7686(7) 0.2316(6) 0.5782(6)
N17 N 0.8469(9) 0.7447(9) 0.9989(9)
C36 C 0.9147(13) 0.7035(11) 0.9254(10)
H19 H 0.8874 0.7196 0.8713
N17_2 N 0.1531(9) 0.2553(9) 0.0011(9)
C36_2 C 0.0853(13) 0.2965(11) 0.0746(10)
H19_2 H 0.1126 0.2804 0.1287
loop_
_geom_bond_atom_site_label_1
_geom_bond_atom_site_label_2
_geom_bond_site_symmetry_1
_geom_bond_site_symmetry_2
Cu1 N6 1_555 1_555
Cu3 N9 1_555 1_555
Cu4 N11 1_555 1_555
C3 C7 1_555 1_555
N6 N9 1_555 1_555
N7 Cu1 1_555 1_555
N8 C7 1_555 1_555
N9 C11 1_555 1_555
N10 C8 1_555 1_555
N11 C9 1_555 1_555
C8 N6 1_555 1_555
C9 C18 1_555 1_555
C10 H1 1_555 1_555
C11 N10 1_555 1_555
C12 N11 1_555 1_555
N12 C14 1_555 1_555
N15 Cu4 1_555 1_555
C13 C8 1_555 1_555
C14 H2 1_555 1_555
C15 C13 1_555 1_555
H3 C15 1_555 1_555
C16 C13 1_555 1_555
H4 C16 1_555 1_555
C17 N12 1_555 1_555
H5 C17 1_555 1_555
C18 N15 1_555 1_555
C19 C9 1_555 1_555
H6 C19 1_555 1_555
C20 C10 1_555 1_555
H7 C20 1_555 1_555
C27 C22 1_555 1_555
C29 H13 1_555 1_555
C31 C3 1_555 1_555
H15 C31 1_555 1_555
N19 Cu1 1_555 1_555
C39 N19 1_555 1_555
Cu7 N12 1_555 1_555
Cu11 C39 1_555 1_555
N20 Cu4 1_555 1_555
N21 Cu3 1_555 1_555
N22 Cu3 1_555 1_555
Cu4 N21 1_555 1_555
N7 N8 1_555 1_555
C10 C12 1_555 1_555
C11 C12 1_555 1_555
N15 C22 1_555 1_555
C14 C15 1_555 1_555
C16 C17 1_555 1_555
C19 C20 1_555 1_555
C29 C31 1_555 1_555
N13 N14 1_555 1_555
H17 C34 1_555 1_555
Cu7 N14 1_555 1_555
C40 Cu5 1_555 1_555
C23 H8 1_555 1_555
C24 C4 1_555 1_555
H9 C24 1_555 1_555
C28 C4 1_555 1_555
H12 C28 1_555 1_555
N16 C23 1_555 1_555
C23 C28 1_555 1_555
Cu7 N2 1_555 1_555
N1 C2 1_555 1_555
N2 N4 1_555 1_555
N4 C5 1_555 1_555
N5 C1 1_555 1_555
C1 N2 1_555 1_555
C5 N5 1_555 1_555
C6 N3 1_555 1_555
C21 C2 1_555 1_555
C30 C21 1_555 1_555
H14 C30 1_555 1_555
C32 C6 1_555 1_555
C33 C21 1_555 1_555
C35 C26 1_555 1_555
H18 C35 1_555 1_555
C37 C33 1_555 1_555
H20 C37 1_555 1_555
C38 C30 1_555 1_555
H21 C38 1_555 1_555
N18 C37 1_555 1_555
Cu8 N3 1_555 1_555
Cu9 N1 1_555 1_555
N3 Cu9 1_555 1_555
N4 Cu8 1_555 1_555
C5 C6 1_555 1_555
C38 N18 1_555 1_555
C32 H22 1_555 1_555
H10 C25 1_555 1_555
H10_2 C25_2 1_555 1_555
Cu2 N2_2 1_555 1_555
N20 C2_2 1_555 1_555
N2_2 N22 1_555 1_555
N22 C5_2 1_555 1_555
N5_2 C1_2 1_555 1_555
C1_2 N2_2 1_555 1_555
C5_2 N5_2 1_555 1_555
C6_2 N21 1_555 1_555
C21_2 C2_2 1_555 1_555
C30_2 C21_2 1_555 1_555
H14_2 C30_2 1_555 1_555
C32_2 C6_2 1_555 1_555
C33_2 C21_2 1_555 1_555
C35_2 C26_2 1_555 1_555
H18_2 C35_2 1_555 1_555
C37_2 C33_2 1_555 1_555
H20_2 C37_2 1_555 1_555
C38_2 C30_2 1_555 1_555
H21_2 C38_2 1_555 1_555
N18_2 C37_2 1_555 1_555
N23 Cu2 1_555 1_555
N24 Cu2 1_555 1_555
C5_2 C6_2 1_555 1_555
C38_2 N18_2 1_555 1_555
C32_2 H22_2 1_555 1_555
C23_2 H8_2 1_555 1_555
C24_2 C4_2 1_555 1_555
H9_2 C24_2 1_555 1_555
C28_2 C4_2 1_555 1_555
H12_2 C28_2 1_555 1_555
N25 C23_2 1_555 1_555
C23_2 C28_2 1_555 1_555
N13_2 N24 1_555 1_555
H17_2 C34_2 1_555 1_555
Cu1_2 N6_2 1_555 1_555
Cu8 N9_2 1_555 1_555
Cu9 N11_2 1_555 1_555
C3_2 C7_2 1_555 1_555
N6_2 N9_2 1_555 1_555
N7_2 Cu1_2 1_555 1_555
N8_2 C7_2 1_555 1_555
N9_2 C11_2 1_555 1_555
N10_2 C8_2 1_555 1_555
N11_2 C9_2 1_555 1_555
C8_2 N6_2 1_555 1_555
C9_2 C18_2 1_555 1_555
C10_2 H1_2 1_555 1_555
C11_2 N10_2 1_555 1_555
C12_2 N11_2 1_555 1_555
N23 C14_2 1_555 1_555
N15_2 Cu9 1_555 1_555
C13_2 C8_2 1_555 1_555
C14_2 H2_2 1_555 1_555
C15_2 C13_2 1_555 1_555
H3_2 C15_2 1_555 1_555
C16_2 C13_2 1_555 1_555
H4_2 C16_2 1_555 1_555
C17_2 N23 1_555 1_555
H5_2 C17_2 1_555 1_555
C18_2 N15_2 1_555 1_555
C19_2 C9_2 1_555 1_555
H6_2 C19_2 1_555 1_555
C20_2 C10_2 1_555 1_555
H7_2 C20_2 1_555 1_555
C27_2 C22_2 1_555 1_555
C29_2 H13_2 1_555 1_555
C31_2 C3_2 1_555 1_555
H15_2 C31_2 1_555 1_555
N19_2 Cu1_2 1_555 1_555
C40 N19_2 1_555 1_555
N7_2 N8_2 1_555 1_555
C10_2 C12_2 1_555 1_555
C11_2 C12_2 1_555 1_555
N15_2 C22_2 1_555 1_555
C14_2 C15_2 1_555 1_555
C16_2 C17_2 1_555 1_555
C19_2 C20_2 1_555 1_555
C29_2 C31_2 1_555 1_555
H19 C36 1_555 1_555
N17 C36 1_555 1_555
H19_2 C36_2 1_555 1_555
N17_2 C36_2 1_555 1_555

#END
