
###############################################################################
#
# This file contains modified crystal structure data generated from the
# MOF subset of the Cambridge Structural Database (CSD) v543 
# hosted by the Cambridge Crystallographic Data Centre (CCDC).
#
# This work is licensed under the Creative Commons
# Attribution-NonCommercial-ShareAlike 4.0 International License.
# To view a copy of this license, visit
# http://creativecommons.org/licenses/by-nc-sa/4.0/
# or send a letter to
# Creative Commons, PO Box 1866, Mountain View, CA 94042, USA.
#
# CIF created using the CSD Python API on 29 September 2022
# The structure has been converted into the P1 space group
# The structure has a 3D framework
# The original CSD entry WOSZEL is in the monoclinic crystal system
# The framework has been calculated to contain at least 10.0% void space
# The void calculation uses a probe of radius 1.32A, grid spacing 0.4
#
###############################################################################

data_WOSZEL
_chemical_formula_moiety         '(C128 H120 N8 O28 Zn4)n'
_symmetry_cell_setting           triclinic
_symmetry_space_group_name_H-M   'P 1'
_symmetry_Int_Tables_number      1
_space_group_name_Hall           'P 1'
loop_
_symmetry_equiv_pos_site_id
_symmetry_equiv_pos_as_xyz
1 x,y,z
_cell_length_a                   14.0797(7)
_cell_length_b                   9.0269(3)
_cell_length_c                   27.4319(12)
_cell_angle_alpha                90
_cell_angle_beta                 91.187(5)
_cell_angle_gamma                90
_cell_volume                     3485.74
loop_
_atom_site_label
_atom_site_type_symbol
_atom_site_fract_x
_atom_site_fract_y
_atom_site_fract_z
O3 O 0.4135(3) 0.0465(4) 0.59453(17)
O4 O 0.3086(2) 0.1884(3) 0.62937(12)
C16 C 0.1573(3) 0.0313(4) 0.58672(16)
H9 H 0.1430 0.1090 0.6076
C20 C 0.3315(4) 0.0815(5) 0.60224(18)
Zn3 Zn 0.41945(4) 0.27891(5) 0.661902(18)
Zn1 Zn 0.91945(4) 0.22109(5) 0.161902(18)
O1 O 0.9384(3) 0.3275(4) 0.22304(12)
C2 C 0.9910(3) 0.4779(5) 0.28765(15)
C5 C 0.9697(3) 0.5843(4) 0.38318(15)
O5 O 0.5405(2) 0.3370(3) 0.63402(12)
C6 C 0.9204(4) 0.4602(5) 0.36649(16)
H3 H 0.8802 0.4098 0.3873
O6 O 0.4471(3) 0.4828(5) 0.58903(14)
C7 C 0.9307(4) 0.4112(5) 0.31898(17)
H4 H 0.8953 0.3302 0.3082
O7 O 0.8667(2) 0.0467(3) 0.19957(12)
C8 C 0.9602(3) 0.6372(4) 0.43452(14)
C11 C 0.9392(3) 0.7248(4) 0.53146(15)
H6 H 0.9322 0.7542 0.5637
C12 C 0.8646(3) 0.6511(4) 0.50697(15)
C13 C 0.8759(3) 0.6119(4) 0.45857(15)
H7 H 0.8255 0.5672 0.4417
C21 C 0.7762(3) 0.6079(4) 0.53261(15)
C22 C 0.7825(3) 0.5404(5) 0.57827(16)
H12 H 0.8411 0.5343 0.5945
C23 C 0.7022(3) 0.4821(5) 0.59979(17)
H13 H 0.7079 0.4340 0.6297
C24 C 0.6147(3) 0.4946(5) 0.57754(17)
C25 C 0.6068(4) 0.5676(5) 0.53319(17)
H14 H 0.5472 0.5815 0.5186
C26 C 0.6874(3) 0.6201(5) 0.51041(16)
H15 H 0.6816 0.6640 0.4798
C27 C 0.5265(4) 0.4360(5) 0.60085(17)
O8 O 0.8086(2) 0.3116(3) 0.12937(12)
C1 C 0.5002(4) 0.0794(5) 0.73561(17)
N1 N 0.3236(3) 0.6876(4) 0.71332(17)
O1_2 O 0.4384(3) 0.1725(4) 0.72304(12)
O2 O 0.5646(3) 0.0329(5) 0.71090(14)
C2_2 C 0.4910(3) 0.0221(5) 0.78765(15)
C6_2 C 0.4204(4) 0.0398(5) 0.86649(16)
H3_2 H 0.3802 0.0902 0.8873
C7_2 C 0.4307(4) 0.0888(5) 0.81898(17)
H4_2 H 0.3953 0.1698 0.8082
O7_2 O 0.3667(2) 0.4533(3) 0.69957(12)
C28 C 0.2988(5) 0.8327(6) 0.6922(3)
H16 H 0.3047 0.8288 0.6575
H17 H 0.2345 0.8571 0.7001
H18 H 0.3409 0.9068 0.7054
C29 C 0.3197(5) 0.6761(6) 0.7654(2)
H19 H 0.3369 0.5774 0.7752
H20 H 0.3632 0.7456 0.7800
H21 H 0.2564 0.6973 0.7757
C30 C 0.3457(3) 0.5756(6) 0.6846(2)
H22 H 0.3451 0.5915 0.6511
O3_2 O 0.9135(3) 0.4535(4) 0.09453(17)
C10 C 0.5236(3) 0.7458(4) 0.00774(15)
C11_2 C 0.4392(3) 0.7752(4) 0.03146(15)
H6_2 H 0.4322 0.7458 0.0637
C12_2 C 0.3646(3) 0.8489(4) 0.00697(15)
C14 C 0.6025(3) 0.6653(4) 0.03342(15)
C15 C 0.5845(3) 0.5467(4) 0.06409(16)
H8 H 0.5219 0.5191 0.0695
C16_2 C 0.6573(3) 0.4687(4) 0.08672(16)
H9_2 H 0.6430 0.3910 0.1076
C17 C 0.7509(3) 0.5044(4) 0.07883(16)
C18 C 0.7697(3) 0.6266(5) 0.04966(17)
H10 H 0.8323 0.6562 0.0455
C19 C 0.6967(3) 0.7052(5) 0.02669(17)
H11 H 0.7110 0.7851 0.0067
C20_2 C 0.8315(4) 0.4185(5) 0.10224(18)
C21_2 C 0.2762(3) 0.8921(4) 0.03261(15)
C22_2 C 0.2825(3) 0.9596(5) 0.07827(16)
H12_2 H 0.3411 0.9657 0.0945
C25_2 C 0.1068(4) 0.9324(5) 0.03319(17)
H14_2 H 0.0472 0.9185 0.0186
C26_2 C 0.1874(3) 0.8799(5) 0.01041(16)
O6_2 O 0.9471(3) 0.0172(5) 0.08903(14)
C1_2 C 0.0002(4) 0.4206(5) 0.23561(17)
O2_2 O 0.0646(3) 0.4671(5) 0.21090(14)
C3 C 0.0426(4) 0.5982(5) 0.30412(16)
H1 H 0.0849 0.6448 0.2835
C4 C 0.0318(3) 0.6504(5) 0.35130(16)
H2 H 0.0672 0.7318 0.3618
C9 C 0.0335(3) 0.7083(4) 0.45979(15)
H5 H 0.0905 0.7256 0.4442
C10_2 C 0.0236(3) 0.7542(4) 0.50774(15)
C14_2 C 0.1025(3) 0.8347(4) 0.53342(15)
C15_2 C 0.0845(3) 0.9533(4) 0.56409(16)
H8_2 H 0.0219 0.9809 0.5695
C17_2 C 0.2509(3) 0.9956(4) 0.57883(16)
C18_2 C 0.2697(3) 0.8734(5) 0.54966(17)
H10_2 H 0.3323 0.8438 0.5455
C19_2 C 0.1967(3) 0.7948(5) 0.52669(17)
H11_2 H 0.2110 0.7149 0.5067
O9 O 0.0405(2) 0.1630(3) 0.13402(12)
C23_2 C 0.2022(3) 0.0179(5) 0.09979(17)
H13_2 H 0.2079 0.0660 0.1297
C24_2 C 0.1147(3) 0.0054(5) 0.07754(17)
C27_2 C 0.0265(4) 0.0640(5) 0.10085(17)
N1_2 N 0.8236(3) 0.8124(4) 0.21332(17)
C28_2 C 0.7988(5) 0.6673(6) 0.1922(3)
H16_2 H 0.8047 0.6712 0.1575
H17_2 H 0.7345 0.6429 0.2001
H18_2 H 0.8409 0.5932 0.2054
C29_2 C 0.8197(5) 0.8239(6) 0.2654(2)
H19_2 H 0.8369 0.9226 0.2752
H20_2 H 0.8632 0.7544 0.2800
H21_2 H 0.7564 0.8027 0.2757
C30_2 C 0.8457(3) 0.9244(6) 0.1846(2)
H22_2 H 0.8451 0.9085 0.1511
O6_3 O 0.0529(3) 0.9828(5) 0.91097(14)
Zn2 Zn 0.08055(4) 0.77891(5) 0.838098(18)
O3_3 O 0.0865(3) 0.5465(4) 0.90547(17)
O4_2 O 0.1914(2) 0.6884(3) 0.87063(12)
C10_3 C 0.4764(3) 0.2542(4) 0.99226(15)
C11_3 C 0.5608(3) 0.2248(4) 0.96854(15)
H6_3 H 0.5678 0.2542 0.9363
C12_3 C 0.6354(3) 0.1511(4) 0.99303(15)
C14_3 C 0.3975(3) 0.3347(4) 0.96658(15)
C15_3 C 0.4155(3) 0.4533(4) 0.93591(16)
H8_3 H 0.4781 0.4809 0.9305
C16_3 C 0.3427(3) 0.5313(4) 0.91328(16)
H9_3 H 0.3570 0.6090 0.8924
C17_3 C 0.2491(3) 0.4956(4) 0.92117(16)
C18_3 C 0.2303(3) 0.3734(5) 0.95034(17)
H10_3 H 0.1677 0.3438 0.9545
C19_3 C 0.3033(3) 0.2948(5) 0.97331(17)
H11_3 H 0.2890 0.2149 0.9933
C20_3 C 0.1685(4) 0.5815(5) 0.89776(18)
C21_3 C 0.7238(3) 0.1079(4) 0.96739(15)
C22_3 C 0.7175(3) 0.0404(5) 0.92173(16)
H12_3 H 0.6589 0.0343 0.9055
C25_3 C 0.8932(4) 0.0676(5) 0.96681(17)
H14_3 H 0.9528 0.0815 0.9814
C26_3 C 0.8126(3) 0.1201(5) 0.98959(16)
Zn1_2 Zn 0.58055(4) 0.72109(5) 0.338098(18)
C1_3 C 0.4998(4) 0.9206(5) 0.26439(17)
N1_3 N 0.6764(3) 0.3124(4) 0.28668(17)
O1_3 O 0.5616(3) 0.8275(4) 0.27696(12)
O2_3 O 0.4354(3) 0.9671(5) 0.28910(14)
C2_3 C 0.5090(3) 0.9779(5) 0.21235(15)
C6_3 C 0.5796(4) 0.9602(5) 0.13351(16)
H3_3 H 0.6198 0.9098 0.1127
C7_3 C 0.5693(4) 0.9112(5) 0.18102(17)
H4_3 H 0.6047 0.8302 0.1918
O7_3 O 0.6333(2) 0.5467(3) 0.30043(12)
C28_3 C 0.7012(5) 0.1673(6) 0.3078(3)
H16_3 H 0.6953 0.1712 0.3425
H17_3 H 0.7655 0.1429 0.2999
H18_3 H 0.6591 0.0932 0.2946
C29_3 C 0.6803(5) 0.3239(6) 0.2346(2)
H19_3 H 0.6631 0.4226 0.2248
H20_3 H 0.6368 0.2544 0.2200
H21_3 H 0.7436 0.3027 0.2243
C30_3 C 0.6543(3) 0.4244(6) 0.3154(2)
H22_3 H 0.6549 0.4085 0.3489
O8_2 O 0.6914(2) 0.8116(3) 0.37063(12)
O9_2 O 0.4595(2) 0.6630(3) 0.36598(12)
O1_4 O 0.0616(3) 0.6725(4) 0.77696(12)
C2_4 C 0.0090(3) 0.5221(5) 0.71235(15)
C5_2 C 0.0303(3) 0.4157(4) 0.61682(15)
C6_4 C 0.0796(4) 0.5398(5) 0.63351(16)
H3_4 H 0.1198 0.5902 0.6127
O6_4 O 0.5529(3) 0.5172(5) 0.41097(14)
C7_4 C 0.0693(4) 0.5888(5) 0.68102(17)
H4_4 H 0.1047 0.6698 0.6918
O7_4 O 0.1333(2) 0.9533(3) 0.80043(12)
C8_2 C 0.0398(3) 0.3628(4) 0.56548(14)
C11_4 C 0.0608(3) 0.2752(4) 0.46854(15)
H6_4 H 0.0678 0.2458 0.4363
C12_4 C 0.1354(3) 0.3489(4) 0.49303(15)
C13_2 C 0.1241(3) 0.3881(4) 0.54143(15)
H7_2 H 0.1745 0.4328 0.5583
C21_4 C 0.2238(3) 0.3921(4) 0.46739(15)
C22_4 C 0.2175(3) 0.4596(5) 0.42173(16)
H12_4 H 0.1589 0.4657 0.4055
C23_3 C 0.2978(3) 0.5179(5) 0.40021(17)
H13_3 H 0.2921 0.5660 0.3703
C24_3 C 0.3853(3) 0.5054(5) 0.42246(17)
C25_4 C 0.3932(4) 0.4324(5) 0.46681(17)
H14_4 H 0.4528 0.4185 0.4814
C26_4 C 0.3126(3) 0.3799(5) 0.48959(16)
H15_2 H 0.3184 0.3360 0.5202
C27_3 C 0.4735(4) 0.5640(5) 0.39915(17)
O3_4 O 0.5865(3) 0.9535(4) 0.40547(17)
C16_4 C 0.8427(3) 0.9687(4) 0.41328(16)
H9_4 H 0.8570 0.8910 0.3924
C20_4 C 0.6685(4) 0.9185(5) 0.39776(18)
C3_2 C 0.4574(4) 0.0982(5) 0.19588(16)
H1_2 H 0.4151 0.1448 0.2165
C4_2 C 0.4682(3) 0.1504(5) 0.14870(16)
H2_2 H 0.4328 0.2318 0.1382
C5_3 C 0.5303(3) 0.0843(4) 0.11682(15)
C8_3 C 0.5398(3) 0.1372(4) 0.06548(14)
C9_2 C 0.4665(3) 0.2083(4) 0.04021(15)
H5_2 H 0.4095 0.2256 0.0558
C13_3 C 0.6241(3) 0.1119(4) 0.04143(15)
H7_3 H 0.6745 0.0672 0.0583
H15_3 H 0.8184 0.1640 0.0202
O5_2 O 0.9595(2) 0.8370(3) 0.86598(12)
C23_4 C 0.7978(3) 0.9821(5) 0.90021(17)
H13_4 H 0.7921 0.9340 0.8703
C24_4 C 0.8853(3) 0.9946(5) 0.92246(17)
C27_4 C 0.9735(4) 0.9360(5) 0.89915(17)
C1_4 C 0.9998(4) 0.5794(5) 0.76439(17)
O2_4 O 0.9354(3) 0.5329(5) 0.78910(14)
C3_3 C 0.9574(4) 0.4018(5) 0.69588(16)
H1_3 H 0.9151 0.3552 0.7165
C4_3 C 0.9682(3) 0.3496(5) 0.64870(16)
H2_3 H 0.9328 0.2682 0.6382
C9_3 C 0.9665(3) 0.2917(4) 0.54021(15)
H5_3 H 0.9095 0.2744 0.5558
C10_4 C 0.9764(3) 0.2458(4) 0.49226(15)
C14_4 C 0.8975(3) 0.1653(4) 0.46658(15)
C15_4 C 0.9155(3) 0.0467(4) 0.43591(16)
H8_4 H 0.9781 0.0191 0.4305
C17_4 C 0.7491(3) 0.0044(4) 0.42117(16)
C18_4 C 0.7303(3) 0.1266(5) 0.45034(17)
H10_4 H 0.6677 0.1562 0.4545
C19_4 C 0.8033(3) 0.2052(5) 0.47331(17)
H11_4 H 0.7890 0.2851 0.4933
N1_4 N 0.1764(3) 0.1876(4) 0.78668(17)
C28_4 C 0.2012(5) 0.3327(6) 0.8078(3)
H16_4 H 0.1953 0.3288 0.8425
H17_4 H 0.2655 0.3571 0.7999
H18_4 H 0.1591 0.4068 0.7946
C29_4 C 0.1803(5) 0.1761(6) 0.7346(2)
H19_4 H 0.1631 0.0774 0.7248
H20_4 H 0.1368 0.2456 0.7200
H21_4 H 0.2436 0.1973 0.7243
C30_4 C 0.1543(3) 0.0756(6) 0.8154(2)
H22_4 H 0.1549 0.0915 0.8489
C3_4 C 0.5426(4) 0.9018(5) 0.80412(16)
H1_4 H 0.5849 0.8552 0.7835
C4_4 C 0.5318(3) 0.8496(5) 0.85130(16)
H2_4 H 0.5672 0.7682 0.8618
C5_4 C 0.4697(3) 0.9157(4) 0.88318(15)
C8_4 C 0.4602(3) 0.8628(4) 0.93452(14)
C9_4 C 0.5335(3) 0.7917(4) 0.95979(15)
H5_4 H 0.5905 0.7744 0.9442
C13_4 C 0.3759(3) 0.8881(4) 0.95857(15)
H7_4 H 0.3255 0.9328 0.9417
H15_4 H 0.1816 0.8360 0.9798
N2 N 0.6042(3) 0.0153(4) 0.60844(16)
H23 H 0.5452 0.0507 0.6128
H24 H 0.6428 0.0582 0.6308
C31 C 0.6347(6) 0.0582(9) 0.5604(3)
H25 H 0.6333 0.1642 0.5576
H26 H 0.5929 0.0156 0.5362
H27 H 0.6983 0.0234 0.5556
C32 C 0.6034(6) 0.8571(7) 0.6172(3)
H28 H 0.5828 0.8381 0.6497
H29 H 0.6662 0.8181 0.6133
H30 H 0.5606 0.8102 0.5943
N2_2 N 0.8958(3) 0.5153(4) 0.89156(16)
H23_2 H 0.9548 0.5507 0.8872
H24_2 H 0.8572 0.5582 0.8692
C31_2 C 0.8653(6) 0.5582(9) 0.9396(3)
H25_2 H 0.8667 0.6642 0.9424
H26_2 H 0.9071 0.5156 0.9638
H27_2 H 0.8017 0.5234 0.9444
C32_2 C 0.8966(6) 0.3571(7) 0.8828(3)
H28_2 H 0.9172 0.3381 0.8503
H29_2 H 0.8338 0.3181 0.8867
H30_2 H 0.9394 0.3102 0.9057
C32_3 C 0.3966(6) 0.1429(7) 0.3828(3)
H28_3 H 0.4172 0.1619 0.3503
H29_3 H 0.3338 0.1819 0.3867
H30_3 H 0.4394 0.1898 0.4057
N2_3 N 0.3958(3) 0.9847(4) 0.39156(16)
H23_3 H 0.4548 0.9493 0.3872
H24_3 H 0.3572 0.9418 0.3692
C31_3 C 0.3653(6) 0.9418(9) 0.4396(3)
H25_3 H 0.3667 0.8358 0.4424
H26_3 H 0.4071 0.9844 0.4638
H27_3 H 0.3017 0.9766 0.4444
N2_4 N 0.1042(3) 0.4847(4) 0.10844(16)
H23_4 H 0.0452 0.4493 0.1128
H24_4 H 0.1428 0.4418 0.1308
C31_4 C 0.1347(6) 0.4418(9) 0.0604(3)
H25_4 H 0.1333 0.3358 0.0576
H26_4 H 0.0929 0.4844 0.0362
H27_4 H 0.1983 0.4766 0.0556
C32_4 C 0.1034(6) 0.6429(7) 0.1172(3)
H28_4 H 0.0828 0.6619 0.1497
H29_4 H 0.1662 0.6819 0.1133
H30_4 H 0.0606 0.6898 0.0943
loop_
_geom_bond_atom_site_label_1
_geom_bond_atom_site_label_2
_geom_bond_site_symmetry_1
_geom_bond_site_symmetry_2
O3 C20 1_555 1_555
O4 C20 1_555 1_555
H9 C16 1_555 1_555
Zn3 O4 1_555 1_555
Zn1 O1 1_555 1_555
O5 C27 1_555 1_555
C6 C5 1_555 1_555
H3 C6 1_555 1_555
O6 C27 1_555 1_555
C7 C2 1_555 1_555
H4 C7 1_555 1_555
O7 Zn1 1_555 1_555
C8 C5 1_555 1_555
H6 C11 1_555 1_555
C12 C11 1_555 1_555
C13 C8 1_555 1_555
H7 C13 1_555 1_555
C21 C12 1_555 1_555
C22 C21 1_555 1_555
H12 C22 1_555 1_555
C23 C22 1_555 1_555
H13 C23 1_555 1_555
C24 C23 1_555 1_555
C25 C24 1_555 1_555
H14 C25 1_555 1_555
C26 C21 1_555 1_555
H15 C26 1_555 1_555
C27 C24 1_555 1_555
Zn3 O5 1_555 1_555
O8 Zn1 1_555 1_555
C6 C7 1_555 1_555
C12 C13 1_555 1_555
C25 C26 1_555 1_555
Zn3 O1_2 1_555 1_555
C1 O1_2 1_555 1_555
N1 C28 1_555 1_555
O2 C1 1_555 1_555
C2_2 C1 1_555 1_555
H3_2 C6_2 1_555 1_555
C7_2 C2_2 1_555 1_555
H4_2 C7_2 1_555 1_555
O7_2 Zn3 1_555 1_555
C28 H16 1_555 1_555
H17 C28 1_555 1_555
H18 C28 1_555 1_555
C29 N1 1_555 1_555
H19 C29 1_555 1_555
H20 C29 1_555 1_555
H21 C29 1_555 1_555
C30 N1 1_555 1_555
H22 C30 1_555 1_555
C6_2 C7_2 1_555 1_555
O7_2 C30 1_555 1_555
O3_2 C20_2 1_555 1_555
O8 C20_2 1_555 1_555
C11_2 C10 1_555 1_555
H6_2 C11_2 1_555 1_555
C12_2 C11_2 1_555 1_555
C14 C10 1_555 1_555
C15 C14 1_555 1_555
H8 C15 1_555 1_555
C16_2 C15 1_555 1_555
H9_2 C16_2 1_555 1_555
C17 C16_2 1_555 1_555
C18 C17 1_555 1_555
H10 C18 1_555 1_555
C19 C14 1_555 1_555
H11 C19 1_555 1_555
C20_2 C17 1_555 1_555
C21_2 C12_2 1_555 1_555
C22_2 C21_2 1_555 1_555
H12_2 C22_2 1_555 1_555
H14_2 C25_2 1_555 1_555
C26_2 C21_2 1_555 1_555
C18 C19 1_555 1_555
C25_2 C26_2 1_555 1_555
O2_2 C1_2 1_555 1_555
H1 C3 1_555 1_555
C4 C3 1_555 1_555
H2 C4 1_555 1_555
H5 C9 1_555 1_555
C10_2 C9 1_555 1_555
C14_2 C10_2 1_555 1_555
C15_2 C14_2 1_555 1_555
H8_2 C15_2 1_555 1_555
C18_2 C17_2 1_555 1_555
H10_2 C18_2 1_555 1_555
C19_2 C14_2 1_555 1_555
H11_2 C19_2 1_555 1_555
C18_2 C19_2 1_555 1_555
O9 C27_2 1_555 1_555
H13_2 C23_2 1_555 1_555
C24_2 C23_2 1_555 1_555
C27_2 C24_2 1_555 1_555
N1_2 C28_2 1_555 1_555
C28_2 H16_2 1_555 1_555
H17_2 C28_2 1_555 1_555
H18_2 C28_2 1_555 1_555
C29_2 N1_2 1_555 1_555
H19_2 C29_2 1_555 1_555
H20_2 C29_2 1_555 1_555
H21_2 C29_2 1_555 1_555
C30_2 N1_2 1_555 1_555
H22_2 C30_2 1_555 1_555
O3_3 C20_3 1_555 1_555
O4_2 C20_3 1_555 1_555
C11_3 C10_3 1_555 1_555
H6_3 C11_3 1_555 1_555
C12_3 C11_3 1_555 1_555
C14_3 C10_3 1_555 1_555
C15_3 C14_3 1_555 1_555
H8_3 C15_3 1_555 1_555
C16_3 C15_3 1_555 1_555
H9_3 C16_3 1_555 1_555
C17_3 C16_3 1_555 1_555
C18_3 C17_3 1_555 1_555
H10_3 C18_3 1_555 1_555
C19_3 C14_3 1_555 1_555
H11_3 C19_3 1_555 1_555
C20_3 C17_3 1_555 1_555
C21_3 C12_3 1_555 1_555
C22_3 C21_3 1_555 1_555
H12_3 C22_3 1_555 1_555
H14_3 C25_3 1_555 1_555
C26_3 C21_3 1_555 1_555
Zn2 O4_2 1_555 1_555
C18_3 C19_3 1_555 1_555
C25_3 C26_3 1_555 1_555
Zn1_2 O1_3 1_555 1_555
C1_3 O1_3 1_555 1_555
N1_3 C28_3 1_555 1_555
O2_3 C1_3 1_555 1_555
C2_3 C1_3 1_555 1_555
H3_3 C6_3 1_555 1_555
C7_3 C2_3 1_555 1_555
H4_3 C7_3 1_555 1_555
O7_3 Zn1_2 1_555 1_555
C28_3 H16_3 1_555 1_555
H17_3 C28_3 1_555 1_555
H18_3 C28_3 1_555 1_555
C29_3 N1_3 1_555 1_555
H19_3 C29_3 1_555 1_555
H20_3 C29_3 1_555 1_555
H21_3 C29_3 1_555 1_555
C30_3 N1_3 1_555 1_555
H22_3 C30_3 1_555 1_555
O8_2 Zn1_2 1_555 1_555
O9_2 Zn1_2 1_555 1_555
C6_3 C7_3 1_555 1_555
O7_3 C30_3 1_555 1_555
Zn2 O1_4 1_555 1_555
O9_2 C27_3 1_555 1_555
C6_4 C5_2 1_555 1_555
H3_4 C6_4 1_555 1_555
O6_4 C27_3 1_555 1_555
C7_4 C2_4 1_555 1_555
H4_4 C7_4 1_555 1_555
O7_4 Zn2 1_555 1_555
C8_2 C5_2 1_555 1_555
H6_4 C11_4 1_555 1_555
C12_4 C11_4 1_555 1_555
C13_2 C8_2 1_555 1_555
H7_2 C13_2 1_555 1_555
C21_4 C12_4 1_555 1_555
C22_4 C21_4 1_555 1_555
H12_4 C22_4 1_555 1_555
C23_3 C22_4 1_555 1_555
H13_3 C23_3 1_555 1_555
C24_3 C23_3 1_555 1_555
C25_4 C24_3 1_555 1_555
H14_4 C25_4 1_555 1_555
C26_4 C21_4 1_555 1_555
H15_2 C26_4 1_555 1_555
C27_3 C24_3 1_555 1_555
C6_4 C7_4 1_555 1_555
C12_4 C13_2 1_555 1_555
C25_4 C26_4 1_555 1_555
O3_4 C20_4 1_555 1_555
O8_2 C20_4 1_555 1_555
H9_4 C16_4 1_555 1_555
H1_2 C3_2 1_555 1_555
C4_2 C3_2 1_555 1_555
H2_2 C4_2 1_555 1_555
C5_3 C4_2 1_555 1_555
C8_3 C5_3 1_555 1_555
C9_2 C8_3 1_555 1_555
H5_2 C9_2 1_555 1_555
C13_3 C8_3 1_555 1_555
H7_3 C13_3 1_555 1_555
O5_2 C27_4 1_555 1_555
H13_4 C23_4 1_555 1_555
C24_4 C23_4 1_555 1_555
C27_4 C24_4 1_555 1_555
O2_4 C1_4 1_555 1_555
H1_3 C3_3 1_555 1_555
C4_3 C3_3 1_555 1_555
H2_3 C4_3 1_555 1_555
H5_3 C9_3 1_555 1_555
C10_4 C9_3 1_555 1_555
C14_4 C10_4 1_555 1_555
C15_4 C14_4 1_555 1_555
H8_4 C15_4 1_555 1_555
C18_4 C17_4 1_555 1_555
H10_4 C18_4 1_555 1_555
C19_4 C14_4 1_555 1_555
H11_4 C19_4 1_555 1_555
C18_4 C19_4 1_555 1_555
N1_4 C28_4 1_555 1_555
C28_4 H16_4 1_555 1_555
H17_4 C28_4 1_555 1_555
H18_4 C28_4 1_555 1_555
C29_4 N1_4 1_555 1_555
H19_4 C29_4 1_555 1_555
H20_4 C29_4 1_555 1_555
H21_4 C29_4 1_555 1_555
C30_4 N1_4 1_555 1_555
H22_4 C30_4 1_555 1_555
H1_4 C3_4 1_555 1_555
C4_4 C3_4 1_555 1_555
H2_4 C4_4 1_555 1_555
C5_4 C4_4 1_555 1_555
C8_4 C5_4 1_555 1_555
C9_4 C8_4 1_555 1_555
H5_4 C9_4 1_555 1_555
C13_4 C8_4 1_555 1_555
H7_4 C13_4 1_555 1_555
N2 H23 1_555 1_555
H24 N2 1_555 1_555
C31 N2 1_555 1_555
H25 C31 1_555 1_555
H26 C31 1_555 1_555
H27 C31 1_555 1_555
H28 C32 1_555 1_555
H29 C32 1_555 1_555
H30 C32 1_555 1_555
N2_2 H23_2 1_555 1_555
H24_2 N2_2 1_555 1_555
C31_2 N2_2 1_555 1_555
H25_2 C31_2 1_555 1_555
H26_2 C31_2 1_555 1_555
H27_2 C31_2 1_555 1_555
C32_2 N2_2 1_555 1_555
H28_2 C32_2 1_555 1_555
H29_2 C32_2 1_555 1_555
H30_2 C32_2 1_555 1_555
H28_3 C32_3 1_555 1_555
H29_3 C32_3 1_555 1_555
H30_3 C32_3 1_555 1_555
N2_3 H23_3 1_555 1_555
H24_3 N2_3 1_555 1_555
C31_3 N2_3 1_555 1_555
H25_3 C31_3 1_555 1_555
H26_3 C31_3 1_555 1_555
H27_3 C31_3 1_555 1_555
N2_4 H23_4 1_555 1_555
H24_4 N2_4 1_555 1_555
C31_4 N2_4 1_555 1_555
H25_4 C31_4 1_555 1_555
H26_4 C31_4 1_555 1_555
H27_4 C31_4 1_555 1_555
C32_4 N2_4 1_555 1_555
H28_4 C32_4 1_555 1_555
H29_4 C32_4 1_555 1_555
H30_4 C32_4 1_555 1_555

#END
