
###############################################################################
#
# This file contains modified crystal structure data generated from the
# MOF subset of the Cambridge Structural Database (CSD) v543 
# hosted by the Cambridge Crystallographic Data Centre (CCDC).
#
# This work is licensed under the Creative Commons
# Attribution-NonCommercial-ShareAlike 4.0 International License.
# To view a copy of this license, visit
# http://creativecommons.org/licenses/by-nc-sa/4.0/
# or send a letter to
# Creative Commons, PO Box 1866, Mountain View, CA 94042, USA.
#
# CIF created using the CSD Python API on 29 September 2022
# The structure has been converted into the P1 space group
# The structure has a 3D framework
# The original CSD entry WOTCUG is in the monoclinic crystal system
# The framework has been calculated to contain at least 10.0% void space
# The void calculation uses a probe of radius 1.32A, grid spacing 0.4
# The framework is charged, counterions have been retained in the structure
#
###############################################################################

data_WOTCUG
_chemical_formula_moiety         '(C64 H40 Ca2 Cd4 N2 O36 1-)n'
_symmetry_cell_setting           triclinic
_symmetry_space_group_name_H-M   'P 1'
_symmetry_Int_Tables_number      1
_space_group_name_Hall           'P 1'
loop_
_symmetry_equiv_pos_site_id
_symmetry_equiv_pos_as_xyz
1 x,y,z
_cell_length_a                   9.8650(5)
_cell_length_b                   13.2131(3)
_cell_length_c                   14.5137(8)
_cell_angle_alpha                90
_cell_angle_beta                 109.873(4)
_cell_angle_gamma                90
_cell_volume                     1779.16
loop_
_atom_site_label
_atom_site_type_symbol
_atom_site_fract_x
_atom_site_fract_y
_atom_site_fract_z
Ca1 Ca 0.0000 0.5000 0.0000
O1 O 0.0025(15) 0.2083(8) 0.0055(8)
C2 C 0.0120(18) 0.2025(11) 0.1696(10)
C4 C 0.0000 0.0456(16) 0.2500
C5 C 0.0130(19) 0.0987(11) 0.1699(11)
H2 H 0.0224 0.0636 0.1169
O4 O 0.0292(14) 0.3537(8) 0.0856(8)
C7 C 0.0000 0.2557(16) 0.2500
H3 H 0.0000 0.3261 0.2500
C14 C 0.0130(18) 0.2593(10) 0.0810(11)
Cd5 Cd 0.05692(11) 0.26984(7) 0.64596(7)
Ca5 Ca -0.0000 0.5000 0.5000
O20 O 0.1823(10) 0.5905(8) 0.1182(8)
Ca1_2 Ca 0.0000 0.5000 1.0000
O22 O 0.1182(13) 0.4275(9) 0.9061(9)
O25 O 0.1555(10) 0.3030(7) 0.8178(7)
C1 C -0.0000 0.9307(14) 0.2500
O7 O 0.0410(14) 0.8898(8) 0.1867(8)
Cd6 Cd 0.05692(11) 0.73016(7) 0.14596(7)
Ca1_3 Ca 1.0000 0.5000 0.0000
C4_2 C 1.0000 0.0456(16) 0.2500
C7_2 C 1.0000 0.2557(16) 0.2500
H3_2 H 1.0000 0.3261 0.2500
O10 O 0.9975(15) 0.2083(8) 0.4945(8)
C16 C 0.9880(18) 0.2025(11) 0.3304(10)
C17 C 0.9870(19) 0.0987(11) 0.3301(11)
H7 H 0.9776 0.0636 0.3831
O11 O 0.9708(14) 0.3537(8) 0.4144(8)
C18 C 0.9870(18) 0.2593(10) 0.4190(11)
Ca5_2 Ca 1.0000 0.5000 0.5000
O24 O 0.8818(13) 0.5725(9) 0.0939(9)
Cd1 Cd 0.94308(11) 0.26984(7) 0.85404(7)
Ca1_4 Ca 1.0000 0.5000 1.0000
O2 O 0.6853(11) 0.2715(8) 0.8446(8)
C3 C 0.4421(18) 0.3796(11) 0.8615(12)
H1 H 0.4325 0.3098 0.8538
O3 O 0.8177(10) 0.4095(8) 0.8818(8)
C6 C 0.485(2) 0.7001(14) 0.9001(17)
C8 C 0.3271(16) 0.4370(11) 0.8664(11)
C9 C 0.5728(15) 0.4262(11) 0.8682(9)
C10 C 0.5832(16) 0.5290(11) 0.8772(11)
H4 H 0.6689 0.5610 0.8809
C11 C 0.3421(17) 0.5424(12) 0.8767(11)
H5 H 0.2660 0.5818 0.8805
C12 C 0.4673(17) 0.5861(12) 0.8809(12)
O8 O 0.6117(18) 0.7317(13) 0.9082(19)
H6 H 0.6166 0.7928 0.9183
O9 O 0.3910(19) 0.7506(11) 0.9087(16)
C13 C 0.7003(14) 0.3631(10) 0.8656(10)
C15 C 0.1891(16) 0.3892(11) 0.8614(10)
O13 O 0.3147(11) 0.2715(8) 0.6554(8)
C19 C 0.5579(18) 0.3796(11) 0.6385(12)
H8 H 0.5675 0.3098 0.6462
O14 O 0.1823(10) 0.4095(8) 0.6182(8)
C20 C 0.515(2) 0.7001(14) 0.5999(17)
O15 O 0.8818(13) 0.4275(9) 0.5939(9)
O16 O 0.8445(10) 0.3030(7) 0.6822(7)
C21 C 0.6729(16) 0.4370(11) 0.6336(11)
C22 C 0.4272(15) 0.4262(11) 0.6318(9)
C23 C 0.4168(16) 0.5290(11) 0.6228(11)
H9 H 0.3311 0.5610 0.6191
C24 C 0.6579(17) 0.5424(12) 0.6233(11)
H10 H 0.7340 0.5818 0.6195
C25 C 0.5327(17) 0.5861(12) 0.6191(12)
O17 O 0.3883(18) 0.7317(13) 0.5918(19)
H11 H 0.3834 0.7928 0.5817
O18 O 0.6090(19) 0.7506(11) 0.5913(16)
C26 C 0.2997(14) 0.3631(10) 0.6344(10)
C27 C 0.8109(16) 0.3892(11) 0.6386(10)
O21 O 0.9708(14) 0.6463(8) 0.9144(8)
O27 O 0.9590(14) 0.1102(8) 0.8133(8)
O28 O 0.0410(14) 0.1102(8) 0.6867(8)
C1_2 C 1.0000 0.9307(14) 0.2500
O12 O 0.9590(14) 0.8898(8) 0.3133(8)
Cd7 Cd 0.94308(11) 0.73016(7) 0.35404(7)
O21_2 O 0.0292(14) 0.6463(8) 0.5856(8)
O24_2 O 0.1182(13) 0.5725(9) 0.4061(9)
O20_2 O 0.8177(10) 0.5905(8) 0.3818(8)
O19 O 0.0025(15) 0.7917(8) 0.5055(8)
O26 O 0.1555(10) 0.6970(7) 0.3178(7)
C1_3 C -0.0000 0.0693(14) 0.7500
O2_2 O 0.3147(11) 0.7285(8) 0.1554(8)
C3_2 C 0.5579(18) 0.6204(11) 0.1385(12)
H1_2 H 0.5675 0.6902 0.1462
C6_2 C 0.515(2) 0.2999(14) 0.0999(17)
O6 O 0.8445(10) 0.6970(7) 0.1822(7)
C8_2 C 0.6729(16) 0.5630(11) 0.1336(11)
C9_2 C 0.4272(15) 0.5738(11) 0.1318(9)
C10_2 C 0.4168(16) 0.4710(11) 0.1228(11)
H4_2 H 0.3311 0.4390 0.1191
C11_2 C 0.6579(17) 0.4576(12) 0.1233(11)
H5_2 H 0.7340 0.4182 0.1195
C12_2 C 0.5327(17) 0.4139(12) 0.1191(12)
O8_2 O 0.3883(18) 0.2683(13) 0.0918(19)
H6_2 H 0.3834 0.2072 0.0817
O9_2 O 0.6090(19) 0.2494(11) 0.0913(16)
C13_2 C 0.2997(14) 0.6369(10) 0.1344(10)
C15_2 C 0.8109(16) 0.6108(11) 0.1386(10)
O13_2 O 0.6853(11) 0.7285(8) 0.3446(8)
C19_2 C 0.4421(18) 0.6204(11) 0.3615(12)
H8_2 H 0.4325 0.6902 0.3538
C20_2 C 0.485(2) 0.2999(14) 0.4001(17)
C21_2 C 0.3271(16) 0.5630(11) 0.3664(11)
C22_2 C 0.5728(15) 0.5738(11) 0.3682(9)
C23_2 C 0.5832(16) 0.4710(11) 0.3772(11)
H9_2 H 0.6689 0.4390 0.3809
C24_2 C 0.3421(17) 0.4576(12) 0.3767(11)
H10_2 H 0.2660 0.4182 0.3805
C25_2 C 0.4673(17) 0.4139(12) 0.3809(12)
O17_2 O 0.6117(18) 0.2683(13) 0.4082(19)
H11_2 H 0.6166 0.2072 0.4183
O18_2 O 0.3910(19) 0.2494(11) 0.4087(16)
C26_2 C 0.7003(14) 0.6369(10) 0.3656(10)
C27_2 C 0.1891(16) 0.6108(11) 0.3614(10)
C4_3 C 0.0000 0.9544(16) 0.7500
C7_3 C -0.0000 0.7443(16) 0.7500
H3_3 H -0.0000 0.6739 0.7500
C16_2 C 0.0120(18) 0.7975(11) 0.6696(10)
C17_2 C 0.0130(19) 0.9013(11) 0.6699(11)
H7_2 H 0.0224 0.9364 0.6169
C18_2 C 0.0130(18) 0.7407(10) 0.5810(11)
C1_4 C 1.0000 0.0693(14) 0.7500
O1_2 O 0.9975(15) 0.7917(8) 0.9945(8)
C2_2 C 0.9880(18) 0.7975(11) 0.8304(10)
C4_4 C 1.0000 0.9544(16) 0.7500
C5_2 C 0.9870(19) 0.9013(11) 0.8301(11)
H2_2 H 0.9776 0.9364 0.8831
C7_4 C 1.0000 0.7443(16) 0.7500
H3_4 H 1.0000 0.6739 0.7500
C14_2 C 0.9870(18) 0.7407(10) 0.9190(11)
N1 N 0.5000 0.104(3) 0.7500
H12 H 0.47(2) 0.153(12) 0.713(13)
C28 C 0.612(4) 0.044(4) 0.717(3)
H13 H 0.6700 0.0022 0.7700
H14 H 0.6735 0.0909 0.6991
H15 H 0.5628 0.0022 0.6617
H16 H 0.53(2) 0.153(12) 0.787(13)
C29 C 0.388(4) 0.044(4) 0.783(3)
H17 H 0.3300 0.0022 0.7300
H18 H 0.3265 0.0909 0.8009
H19 H 0.4372 0.0022 0.8383
N1_2 N 0.5000 0.896(3) 0.2500
H12_2 H 0.53(2) 0.847(12) 0.287(13)
C28_2 C 0.388(4) 0.956(4) 0.283(3)
H13_2 H 0.3300 0.9978 0.2300
H14_2 H 0.3265 0.9091 0.3009
H15_2 H 0.4372 0.9978 0.3383
H16_2 H 0.47(2) 0.847(12) 0.213(13)
C29_2 C 0.612(4) 0.956(4) 0.217(3)
H17_2 H 0.6700 0.9978 0.2700
H18_2 H 0.6735 0.9091 0.1991
H19_2 H 0.5628 0.9978 0.1617
loop_
_geom_bond_atom_site_label_1
_geom_bond_atom_site_label_2
_geom_bond_site_symmetry_1
_geom_bond_site_symmetry_2
O1 C14 1_555 1_555
C2 C5 1_555 1_555
C4 C5 1_555 1_555
C5 H2 1_555 1_555
O4 Ca1 1_555 1_555
C7 C2 1_555 1_555
H3 C7 1_555 1_555
C14 C2 1_555 1_555
O20 Ca1 1_555 1_555
O4 C14 1_555 1_555
Ca1_2 O22 1_555 1_555
Cd5 O25 1_555 1_555
O7 C1 1_555 1_555
Cd6 O7 1_555 1_555
H3_2 C7_2 1_555 1_555
O10 C18 1_555 1_555
C16 C7_2 1_555 1_555
C17 C4_2 1_555 1_555
H7 C17 1_555 1_555
O11 C18 1_555 1_555
C18 C16 1_555 1_555
Ca5_2 O11 1_555 1_555
O24 Ca1_3 1_555 1_555
C16 C17 1_555 1_555
Ca1_4 O3 1_555 1_555
O2 Cd1 1_555 1_555
C3 H1 1_555 1_555
O3 Cd1 1_555 1_555
C6 C12 1_555 1_555
O22 C15 1_555 1_555
O25 C15 1_555 1_555
C8 C3 1_555 1_555
C9 C3 1_555 1_555
C10 C9 1_555 1_555
H4 C10 1_555 1_555
C11 C8 1_555 1_555
H5 C11 1_555 1_555
C12 C10 1_555 1_555
O8 C6 1_555 1_555
H6 O8 1_555 1_555
O9 C6 1_555 1_555
C13 O2 1_555 1_555
C15 C8 1_555 1_555
O13 Cd5 1_555 1_555
C19 H8 1_555 1_555
O14 Cd5 1_555 1_555
C20 C25 1_555 1_555
O15 C27 1_555 1_555
O16 Cd1 1_555 1_555
C21 C19 1_555 1_555
C22 C19 1_555 1_555
C23 C22 1_555 1_555
H9 C23 1_555 1_555
C24 C21 1_555 1_555
H10 C24 1_555 1_555
C25 C23 1_555 1_555
O17 C20 1_555 1_555
H11 O17 1_555 1_555
O18 C20 1_555 1_555
C26 O13 1_555 1_555
C27 O16 1_555 1_555
Ca5 O14 1_555 1_555
Ca5_2 O15 1_555 1_555
O21 Ca1_4 1_555 1_555
O27 Cd1 1_555 1_555
O28 Cd5 1_555 1_555
O3 C13 1_555 1_555
C9 C13 1_555 1_555
C11 C12 1_555 1_555
O14 C26 1_555 1_555
C21 C27 1_555 1_555
C22 C26 1_555 1_555
C24 C25 1_555 1_555
O12 C1_2 1_555 1_555
Cd7 O12 1_555 1_555
O21_2 Ca5 1_555 1_555
O24_2 Ca5 1_555 1_555
O20_2 Ca5_2 1_555 1_555
Cd6 O26 1_555 1_555
O28 C1_3 1_555 1_555
O2_2 Cd6 1_555 1_555
C3_2 H1_2 1_555 1_555
O20 Cd6 1_555 1_555
C6_2 C12_2 1_555 1_555
O24 C15_2 1_555 1_555
O6 C15_2 1_555 1_555
C8_2 C3_2 1_555 1_555
C9_2 C3_2 1_555 1_555
C10_2 C9_2 1_555 1_555
H4_2 C10_2 1_555 1_555
C11_2 C8_2 1_555 1_555
H5_2 C11_2 1_555 1_555
C12_2 C10_2 1_555 1_555
O8_2 C6_2 1_555 1_555
H6_2 O8_2 1_555 1_555
O9_2 C6_2 1_555 1_555
C13_2 O2_2 1_555 1_555
C15_2 C8_2 1_555 1_555
Cd7 O6 1_555 1_555
O13_2 Cd7 1_555 1_555
C19_2 H8_2 1_555 1_555
O20_2 Cd7 1_555 1_555
C20_2 C25_2 1_555 1_555
O24_2 C27_2 1_555 1_555
C21_2 C19_2 1_555 1_555
C22_2 C19_2 1_555 1_555
C23_2 C22_2 1_555 1_555
H9_2 C23_2 1_555 1_555
C24_2 C21_2 1_555 1_555
H10_2 C24_2 1_555 1_555
C25_2 C23_2 1_555 1_555
O17_2 C20_2 1_555 1_555
H11_2 O17_2 1_555 1_555
O18_2 C20_2 1_555 1_555
C26_2 O13_2 1_555 1_555
C27_2 O26 1_555 1_555
O20 C13_2 1_555 1_555
C9_2 C13_2 1_555 1_555
C11_2 C12_2 1_555 1_555
O20_2 C26_2 1_555 1_555
C21_2 C27_2 1_555 1_555
C22_2 C26_2 1_555 1_555
C24_2 C25_2 1_555 1_555
H3_3 C7_3 1_555 1_555
O19 C18_2 1_555 1_555
C16_2 C7_3 1_555 1_555
C17_2 C4_3 1_555 1_555
H7_2 C17_2 1_555 1_555
O21_2 C18_2 1_555 1_555
C18_2 C16_2 1_555 1_555
C16_2 C17_2 1_555 1_555
O27 C1_4 1_555 1_555
O1_2 C14_2 1_555 1_555
C2_2 C5_2 1_555 1_555
C4_4 C5_2 1_555 1_555
C5_2 H2_2 1_555 1_555
C7_4 C2_2 1_555 1_555
H3_4 C7_4 1_555 1_555
C14_2 C2_2 1_555 1_555
O21 C14_2 1_555 1_555
N1 H12 1_555 1_555
C28 N1 1_555 1_555
H13 C28 1_555 1_555
H14 C28 1_555 1_555
H15 C28 1_555 1_555
H16 N1 1_555 1_555
C29 N1 1_555 1_555
H17 C29 1_555 1_555
H18 C29 1_555 1_555
H19 C29 1_555 1_555
N1_2 H12_2 1_555 1_555
C28_2 N1_2 1_555 1_555
H13_2 C28_2 1_555 1_555
H14_2 C28_2 1_555 1_555
H15_2 C28_2 1_555 1_555
H16_2 N1_2 1_555 1_555
C29_2 N1_2 1_555 1_555
H17_2 C29_2 1_555 1_555
H18_2 C29_2 1_555 1_555
H19_2 C29_2 1_555 1_555

#END
