
###############################################################################
#
# This file contains modified crystal structure data generated from the
# MOF subset of the Cambridge Structural Database (CSD) v543 
# hosted by the Cambridge Crystallographic Data Centre (CCDC).
#
# This work is licensed under the Creative Commons
# Attribution-NonCommercial-ShareAlike 4.0 International License.
# To view a copy of this license, visit
# http://creativecommons.org/licenses/by-nc-sa/4.0/
# or send a letter to
# Creative Commons, PO Box 1866, Mountain View, CA 94042, USA.
#
# CIF created using the CSD Python API on 29 September 2022
# The structure has been converted into the P1 space group
# The structure has a 3D framework
# The original CSD entry WOTLOI is in the triclinic crystal system
# The framework has been calculated to contain at least 10.0% void space
# The void calculation uses a probe of radius 1.32A, grid spacing 0.4
# The framework is charged, counterions have been retained in the structure
#
###############################################################################

data_WOTLOI
_chemical_formula_moiety         '(C60 H60 Cl1 Cu4 N30 6+)n'
_symmetry_cell_setting           triclinic
_symmetry_space_group_name_H-M   'P 1'
_symmetry_Int_Tables_number      1
_space_group_name_Hall           'P 1'
loop_
_symmetry_equiv_pos_site_id
_symmetry_equiv_pos_as_xyz
1 x,y,z
_cell_length_a                   11.3945(5)
_cell_length_b                   14.8843(8)
_cell_length_c                   15.8690(7)
_cell_angle_alpha                64.690(5)
_cell_angle_beta                 89.747(4)
_cell_angle_gamma                89.661(4)
_cell_volume                     2432.97
loop_
_atom_site_label
_atom_site_type_symbol
_atom_site_fract_x
_atom_site_fract_y
_atom_site_fract_z
H25 H 0.0063 0.0347 0.2771
H26 H 0.1391 0.0203 0.3063
C31 C 0.0257(11) 0.1546(10) 0.6870(11)
H31 H 0.0932 0.1243 0.7198
N16 N 0.0010(9) 0.2493(9) 0.6568(8)
Cu7 Cu 0.10625(14) 0.36241(13) 0.64246(13)
Cl1 Cl 0.0000 0.5000 0.5000
C21 C 0.1603(11) 0.6730(11) 0.0653(10)
H19 H 0.2230 0.6297 0.0629
H20 H 0.1949 0.7356 0.0571
C22 C 0.0505(12) 0.6732(10) 0.2011(11)
H21 H 0.0532 0.7410 0.1848
C23 C 0.0160(15) 0.5248(12) 0.2656(14)
C25 C 0.1422(11) 0.8276(10) 0.3812(11)
H24 H 0.2121 0.8406 0.4038
C26 C 0.0608(12) 0.9939(10) 0.3252(11)
C27 C 0.0296(11) 0.9979(10) 0.4153(11)
C29 C 0.1134(12) 0.9880(12) 0.4813(13)
H28 H 0.1920 0.9825 0.4680
N10 N 0.1030(9) 0.6279(8) 0.1547(9)
N11 N 0.0793(14) 0.5318(10) 0.1960(12)
N14 N 0.1026(12) 0.7407(11) 0.3868(13)
N15 N 0.0567(9) 0.8909(8) 0.3352(8)
C35 C 0.0839(12) 0.9859(11) 0.5654(12)
H35 H 0.1416 0.9734 0.6103
C28 C 0.9161(12) 0.0141(11) 0.4346(12)
H27 H 0.8584 0.0266 0.3897
C32 C 0.8578(11) 0.1724(10) 0.6188(11)
H32 H 0.7879 0.1594 0.5962
C33 C 0.9392(12) 0.0061(10) 0.6748(11)
C34 C 0.9704(11) 0.0021(10) 0.5847(11)
C36 C 0.8866(12) 0.0120(12) 0.5187(13)
H36 H 0.8080 0.0175 0.5320
N17 N 0.8974(12) 0.2593(11) 0.6132(13)
N18 N 0.9433(9) 0.1091(8) 0.6648(8)
Cu1 Cu 0.5000 0.5000 0.0000
Cu2 Cu 0.89375(14) 0.63759(13) 0.35754(13)
Cl1_2 Cl 1.0000 0.5000 0.5000
H22 H 0.9869 0.4642 0.3085
C24 C 0.9743(11) 0.8454(10) 0.3130(11)
H23 H 0.9068 0.8757 0.2802
N12 N 0.9944(9) 0.6080(7) 0.2731(8)
N13 N 0.9990(9) 0.7507(9) 0.3432(8)
H33 H 0.9937 0.9653 0.7229
H34 H 0.8609 0.9797 0.6937
C37 C 0.6606(10) 0.3606(9) 0.1417(9)
H37 H 0.6348 0.3079 0.1300
C38 C 0.6897(12) 0.5019(10) 0.1367(10)
H38 H 0.6870 0.5702 0.1180
C39 C 0.7709(12) 0.2596(11) 0.2880(10)
H39 H 0.8421 0.2718 0.3147
H40 H 0.7884 0.2103 0.2650
C40 C 0.6788(12) 0.2218(10) 0.3604(11)
C41 C 0.6778(15) 0.2418(15) 0.4359(13)
H41 H 0.7403 0.2769 0.4443
C42 C 0.5909(16) 0.2135(15) 0.4994(14)
H42 H 0.5935 0.2311 0.5490
C43 C 0.4986(13) 0.1589(11) 0.4917(11)
C44 C 0.4986(15) 0.1369(12) 0.4202(13)
H43 H 0.4369 0.0996 0.4139
C45 C 0.5879(16) 0.1672(12) 0.3527(14)
H44 H 0.5848 0.1500 0.3029
C46 C 0.2986(13) 0.2480(14) 0.6019(14)
H45 H 0.3390 0.2336 0.6570
C47 C 0.1863(15) 0.3054(14) 0.4932(13)
H46 H 0.1282 0.3447 0.4532
C48 C 0.3088(12) 0.3723(10) 0.1132(11)
H47 H 0.2871 0.3545 0.0659
C49 C 0.3897(15) 0.4393(13) 0.1884(13)
H48 H 0.4406 0.4781 0.2045
C50 C 0.1677(12) 0.2626(11) 0.2344(12)
H49 H 0.2005 0.1960 0.2599
H50 H 0.1279 0.2719 0.2843
C51 C 0.0771(13) 0.2150(11) 0.1138(11)
H51 H 0.1294 0.1618 0.1322
C52 C 0.0810(10) 0.2754(10) 0.1579(11)
C53 C 0.0040(12) 0.3585(11) 0.1252(11)
H52 H 0.0048 0.4027 0.1525
C60 C 0.4003(14) 0.1264(13) 0.5601(12)
H59 H 0.4325 0.0998 0.6226
H60 H 0.3580 0.0735 0.5535
N19 N 0.6318(8) 0.4570(7) 0.0917(8)
N20 N 0.7499(10) 0.4420(9) 0.2085(9)
N21 N 0.7310(9) 0.3532(8) 0.2098(8)
N22 N 0.3198(11) 0.2052(11) 0.5488(10)
N23 N 0.2441(14) 0.2391(13) 0.4757(12)
N24 N 0.2141(12) 0.3142(11) 0.5709(10)
N25 N 0.3898(9) 0.4365(8) 0.1056(8)
N26 N 0.2626(9) 0.3365(8) 0.1957(8)
N27 N 0.3104(13) 0.3817(12) 0.2442(10)
N31 N 0.7859(12) 0.6858(11) 0.4291(10)
Cu1_2 Cu 0.5000 0.5000 1.0000
C1 C 0.3394(10) 0.6394(9) 0.8583(9)
H1 H 0.3652 0.6921 0.8700
C2 C 0.3103(12) 0.4981(10) 0.8633(10)
H2 H 0.3130 0.4298 0.8820
C3 C 0.2291(12) 0.7404(11) 0.7120(10)
H3 H 0.1579 0.7282 0.6853
H4 H 0.2116 0.7897 0.7350
C4 C 0.3212(12) 0.7782(10) 0.6396(11)
C5 C 0.3222(15) 0.7582(15) 0.5641(13)
H5 H 0.2597 0.7231 0.5557
C6 C 0.4091(16) 0.7865(15) 0.5006(14)
H6 H 0.4065 0.7689 0.4510
C7 C 0.5014(13) 0.8411(11) 0.5083(11)
C8 C 0.5014(15) 0.8631(12) 0.5798(13)
H7 H 0.5631 0.9004 0.5861
C9 C 0.4121(16) 0.8328(12) 0.6473(14)
H8 H 0.4152 0.8500 0.6971
C10 C 0.7014(13) 0.7520(14) 0.3981(14)
H9 H 0.6610 0.7664 0.3430
C11 C 0.8137(15) 0.6946(14) 0.5068(13)
H10 H 0.8718 0.6553 0.5468
C12 C 0.6912(12) 0.6277(10) 0.8868(11)
H11 H 0.7129 0.6455 0.9341
C13 C 0.6103(15) 0.5607(13) 0.8116(13)
H12 H 0.5594 0.5219 0.7955
C14 C 0.8323(12) 0.7374(11) 0.7656(12)
H13 H 0.7995 0.8040 0.7401
H14 H 0.8721 0.7281 0.7157
C15 C 0.9229(13) 0.7850(11) 0.8862(11)
H15 H 0.8706 0.8382 0.8678
C16 C 0.9190(10) 0.7246(10) 0.8421(11)
C17 C 0.9960(12) 0.6415(11) 0.8748(11)
H16 H 0.9952 0.5973 0.8475
C30 C 0.5997(14) 0.8736(13) 0.4399(12)
H29 H 0.5675 0.9002 0.3774
H30 H 0.6420 0.9265 0.4465
N1 N 0.3682(8) 0.5430(7) 0.9083(8)
N2 N 0.2501(10) 0.5580(9) 0.7915(9)
N3 N 0.2690(9) 0.6468(8) 0.7902(8)
N4 N 0.6802(11) 0.7948(11) 0.4512(10)
N5 N 0.7559(14) 0.7609(13) 0.5243(12)
N7 N 0.6102(9) 0.5635(8) 0.8944(8)
N8 N 0.7374(9) 0.6635(8) 0.8043(8)
N9 N 0.6896(13) 0.6183(12) 0.7558(10)
H58 H 0.0131 0.5358 0.6915
N30 N 0.0056(9) 0.3920(7) 0.7269(8)
C57 C 0.8397(11) 0.3270(11) 0.9347(10)
H55 H 0.7770 0.3703 0.9371
H56 H 0.8051 0.2644 0.9429
C58 C 0.9495(12) 0.3268(10) 0.7989(11)
H57 H 0.9468 0.2590 0.8152
C59 C 0.9840(15) 0.4752(12) 0.7344(14)
N28 N 0.8970(9) 0.3721(8) 0.8453(9)
N29 N 0.9207(14) 0.4682(10) 0.8040(12)
C18 C 0.0710(11) 0.6265(10) 0.9463(11)
H17 H 0.1205 0.5714 0.9674
C19 C 0.0759(11) 0.6909(11) 0.9884(11)
C20 C 0.0004(12) 0.7716(11) 0.9569(12)
H18 H 0.0020 0.8166 0.9834
C54 C 0.9290(11) 0.3735(10) 0.0537(11)
H53 H 0.8795 0.4286 0.0326
C55 C 0.9241(11) 0.3091(11) 0.0116(11)
C56 C 0.9996(12) 0.2284(11) 0.0431(12)
H54 H 0.9980 0.1834 0.0166
loop_
_geom_bond_atom_site_label_1
_geom_bond_atom_site_label_2
_geom_bond_site_symmetry_1
_geom_bond_site_symmetry_2
C31 H31 1_555 1_555
N16 C31 1_555 1_555
Cu7 N16 1_555 1_555
Cl1 Cu7 1_555 1_555
H19 C21 1_555 1_555
H20 C21 1_555 1_555
C22 H21 1_555 1_555
C25 H24 1_555 1_555
C27 C26 1_555 1_555
C29 C27 1_555 1_555
H28 C29 1_555 1_555
N10 C21 1_555 1_555
N11 C23 1_555 1_555
N14 C25 1_555 1_555
C35 C29 1_555 1_555
H35 C35 1_555 1_555
C22 N10 1_555 1_555
C25 N15 1_555 1_555
C26 N15 1_555 1_555
N10 N11 1_555 1_555
H27 C28 1_555 1_555
C32 H32 1_555 1_555
C34 C33 1_555 1_555
C36 C28 1_555 1_555
H36 C36 1_555 1_555
N17 C32 1_555 1_555
C32 N18 1_555 1_555
C33 N18 1_555 1_555
C34 C36 1_555 1_555
Cu2 Cl1_2 1_555 1_555
C24 H23 1_555 1_555
N12 Cu2 1_555 1_555
N13 Cu2 1_555 1_555
C37 H37 1_555 1_555
C38 H38 1_555 1_555
C39 H39 1_555 1_555
H40 C39 1_555 1_555
C40 C39 1_555 1_555
C41 C40 1_555 1_555
H41 C41 1_555 1_555
C42 C41 1_555 1_555
H42 C42 1_555 1_555
C43 C42 1_555 1_555
C44 C43 1_555 1_555
H43 C44 1_555 1_555
C45 C40 1_555 1_555
H44 C45 1_555 1_555
C46 H45 1_555 1_555
C47 H46 1_555 1_555
C48 H47 1_555 1_555
C49 H48 1_555 1_555
C50 H49 1_555 1_555
H50 C50 1_555 1_555
C51 H51 1_555 1_555
C52 C50 1_555 1_555
C53 C52 1_555 1_555
H52 C53 1_555 1_555
C60 C43 1_555 1_555
H59 C60 1_555 1_555
H60 C60 1_555 1_555
N19 Cu1 1_555 1_555
N20 C38 1_555 1_555
N21 C37 1_555 1_555
N22 C46 1_555 1_555
N23 C47 1_555 1_555
N24 C46 1_555 1_555
N25 Cu1 1_555 1_555
N26 C48 1_555 1_555
N27 C49 1_555 1_555
Cu7 N24 1_555 1_555
N31 Cu2 1_555 1_555
C24 N13 1_555 1_555
C37 N19 1_555 1_555
C38 N19 1_555 1_555
C39 N21 1_555 1_555
C44 C45 1_555 1_555
C47 N24 1_555 1_555
C48 N25 1_555 1_555
C49 N25 1_555 1_555
C50 N26 1_555 1_555
C51 C52 1_555 1_555
C60 N22 1_555 1_555
N20 N21 1_555 1_555
N22 N23 1_555 1_555
N26 N27 1_555 1_555
Cu1_2 N1 1_555 1_555
C1 H1 1_555 1_555
C2 H2 1_555 1_555
C3 H3 1_555 1_555
H4 C3 1_555 1_555
C4 C3 1_555 1_555
C5 C4 1_555 1_555
H5 C5 1_555 1_555
C6 C5 1_555 1_555
H6 C6 1_555 1_555
C7 C6 1_555 1_555
C8 C7 1_555 1_555
H7 C8 1_555 1_555
C9 C4 1_555 1_555
H8 C9 1_555 1_555
C10 H9 1_555 1_555
C11 H10 1_555 1_555
C12 H11 1_555 1_555
C13 H12 1_555 1_555
C14 H13 1_555 1_555
H14 C14 1_555 1_555
C15 H15 1_555 1_555
C16 C14 1_555 1_555
C17 C16 1_555 1_555
H16 C17 1_555 1_555
C30 C7 1_555 1_555
H29 C30 1_555 1_555
H30 C30 1_555 1_555
N1 C1 1_555 1_555
N2 C2 1_555 1_555
N3 C1 1_555 1_555
N4 C10 1_555 1_555
N5 C11 1_555 1_555
N31 C10 1_555 1_555
N7 Cu1_2 1_555 1_555
N8 C12 1_555 1_555
N9 C13 1_555 1_555
Cu7 N30 1_555 1_555
C2 N1 1_555 1_555
C3 N3 1_555 1_555
C8 C9 1_555 1_555
C11 N31 1_555 1_555
C12 N7 1_555 1_555
C13 N7 1_555 1_555
C14 N8 1_555 1_555
C15 C16 1_555 1_555
C30 N4 1_555 1_555
N2 N3 1_555 1_555
N4 N5 1_555 1_555
N8 N9 1_555 1_555
H55 C57 1_555 1_555
H56 C57 1_555 1_555
C58 H57 1_555 1_555
N28 C57 1_555 1_555
N29 C59 1_555 1_555
C58 N28 1_555 1_555
N28 N29 1_555 1_555
H17 C18 1_555 1_555
C19 C18 1_555 1_555
H18 C20 1_555 1_555
C19 C20 1_555 1_555
H53 C54 1_555 1_555
C55 C54 1_555 1_555
H54 C56 1_555 1_555
C55 C56 1_555 1_555

#END
