
###############################################################################
#
# This file contains modified crystal structure data generated from the
# MOF subset of the Cambridge Structural Database (CSD) v543 
# hosted by the Cambridge Crystallographic Data Centre (CCDC).
#
# This work is licensed under the Creative Commons
# Attribution-NonCommercial-ShareAlike 4.0 International License.
# To view a copy of this license, visit
# http://creativecommons.org/licenses/by-nc-sa/4.0/
# or send a letter to
# Creative Commons, PO Box 1866, Mountain View, CA 94042, USA.
#
# CIF created using the CSD Python API on 29 September 2022
# The structure has been converted into the P1 space group
# The structure has a 3D framework
# The original CSD entry WOTSEF is in the orthorhombic crystal system
# The original CSD entry WOTSEF is in a Sohncke space group
# The framework has been calculated to contain at least 10.0% void space
# The void calculation uses a probe of radius 1.32A, grid spacing 0.4
#
###############################################################################

data_WOTSEF
_chemical_formula_moiety         '(C56 H52 Cd4 N20 O12)n'
_symmetry_cell_setting           triclinic
_symmetry_space_group_name_H-M   'P 1'
_symmetry_Int_Tables_number      1
_space_group_name_Hall           'P 1'
loop_
_symmetry_equiv_pos_site_id
_symmetry_equiv_pos_as_xyz
1 x,y,z
_cell_length_a                   10.4215(4)
_cell_length_b                   10.5323(4)
_cell_length_c                   22.2477(10)
_cell_angle_alpha                90
_cell_angle_beta                 90
_cell_angle_gamma                90
_cell_volume                     2441.96
loop_
_atom_site_label
_atom_site_type_symbol
_atom_site_fract_x
_atom_site_fract_y
_atom_site_fract_z
C3 C 0.2489(3) 0.1118(3) 0.01124(13)
H1 H 0.2780 0.0329 0.0241
C4 C 0.1614(3) 0.1765(3) 0.04589(14)
H2 H 0.1338 0.1409 0.0819
N3 N 0.1151(2) 0.2889(2) 0.02908(10)
O3 O 0.0155(2) 0.0690(2) 0.48151(9)
N6 N 0.1290(2) 0.0638(2) 0.34246(10)
C1 C 0.0718(3) 0.1066(3) 0.29278(12)
C2 C 0.1216(3) 0.2044(3) 0.25812(11)
C9 C 0.0562(2) 0.2505(3) 0.20251(11)
C10 C 0.2365(3) 0.2593(3) 0.27669(13)
H7 H 0.2725 0.3260 0.2551
C11 C 0.2958(3) 0.2131(3) 0.32753(15)
H8 H 0.3731 0.2476 0.3405
C12 C 0.2399(3) 0.1163(3) 0.35869(14)
H9 H 0.2811 0.0855 0.3928
C13 C 0.1311(6) 0.7391(5) 0.0063(2)
H12 H 0.2225 0.7318 0.0022
H13 H 0.1109 0.8147 0.0284
C14 C 0.0801(4) 0.6247(3) 0.03950(14)
O1 O 0.10245(19) 0.34690(19) 0.17648(9)
O2 O 0.1364(2) 0.5872(2) 0.08576(10)
N1 N 0.6290(2) 0.4362(2) 0.65754(10)
C1_2 C 0.5718(3) 0.3934(3) 0.70722(12)
C2_2 C 0.6216(3) 0.2956(3) 0.74188(11)
Cd1 Cd 0.479411(17) 0.080513(17) 0.903263(7)
C5 C 0.1579(3) 0.3350(3) 0.97698(13)
H3 H 0.1255 0.4121 0.9633
C6 C 0.2492(3) 0.2723(3) 0.94224(12)
C7 C 0.3022(3) 0.3281(3) 0.88675(12)
C8 C 0.2483(4) 0.4483(4) 0.86119(18)
H4 H 0.2820 0.5197 0.8829
H5 H 0.1565 0.4472 0.8647
H6 H 0.2719 0.4551 0.8196
C9_2 C 0.5562(2) 0.2495(3) 0.79749(11)
C10_2 C 0.7365(3) 0.2407(3) 0.72331(13)
H7_2 H 0.7725 0.1740 0.7449
C11_2 C 0.7958(3) 0.2869(3) 0.67247(15)
H8_2 H 0.8731 0.2524 0.6595
C12_2 C 0.7399(3) 0.3837(3) 0.64131(14)
H9_2 H 0.7811 0.4145 0.6072
H10 H 0.4950 0.4308 0.7191
N2 N 0.2931(2) 0.1595(2) 0.95971(10)
N4 N 0.3990(2) 0.2693(2) 0.86398(9)
N5 N 0.4550(2) 0.3183(2) 0.81351(10)
O1_2 O 0.60245(19) 0.15310(19) 0.82352(9)
Cd2 Cd 0.520589(17) 0.580513(17) 0.596737(7)
N7 N 0.6151(2) 0.2111(2) 0.97092(10)
C13_2 C 0.6311(6) 0.7609(5) 0.9937(2)
H12_2 H 0.7225 0.7682 0.9978
H13_2 H 0.6109 0.6853 0.9716
C14_2 C 0.5801(4) 0.8753(3) 0.96050(14)
O2_2 O 0.6364(2) 0.9128(2) 0.91424(10)
O3_2 O 0.4845(2) 0.9310(2) 0.98151(9)
N6_2 N 0.3710(2) 0.9362(2) 0.84246(10)
Cd3 Cd 0.979411(17) 0.419487(17) 0.096737(7)
Cd1_2 Cd 0.020589(17) 0.919487(17) 0.403263(7)
C3_2 C 0.2511(3) 0.8882(3) 0.51124(13)
H1_2 H 0.2220 0.9671 0.5241
C4_2 C 0.3386(3) 0.8235(3) 0.54589(14)
H2_2 H 0.3662 0.8591 0.5819
C5_2 C 0.3421(3) 0.6650(3) 0.47698(13)
H3_2 H 0.3745 0.5879 0.4633
C6_2 C 0.2508(3) 0.7277(3) 0.44224(12)
C7_2 C 0.1978(3) 0.6719(3) 0.38675(12)
C8_2 C 0.2517(4) 0.5517(4) 0.36119(18)
H4_2 H 0.2180 0.4803 0.3829
H5_2 H 0.3435 0.5528 0.3647
H6_2 H 0.2281 0.5449 0.3196
H10_2 H 0.0050 0.5692 0.2191
N2_2 N 0.2069(2) 0.8405(2) 0.45971(10)
N3_2 N 0.3849(2) 0.7111(2) 0.52908(10)
N4_2 N 0.1010(2) 0.7307(2) 0.36398(9)
N5_2 N 0.0450(2) 0.6817(2) 0.31351(10)
N1_2 N 0.8710(2) 0.5638(2) 0.15754(10)
C1_3 C 0.9282(3) 0.6066(3) 0.20722(12)
C2_3 C 0.8784(3) 0.7044(3) 0.24188(11)
C9_3 C 0.9438(2) 0.7505(3) 0.29749(11)
C10_3 C 0.7635(3) 0.7593(3) 0.22331(13)
H7_3 H 0.7275 0.8260 0.2449
C11_3 C 0.7042(3) 0.7131(3) 0.17247(15)
H8_3 H 0.6269 0.7476 0.1595
C12_3 C 0.7601(3) 0.6163(3) 0.14131(14)
H9_3 H 0.7189 0.5855 0.1072
O1_3 O 0.89755(19) 0.84690(19) 0.32352(9)
N7_2 N 0.8849(2) 0.7889(2) 0.47092(10)
H4_3 H 0.7180 0.0197 0.6171
C1_4 C 0.4282(3) 0.8934(3) 0.79278(12)
C2_4 C 0.3784(3) 0.7956(3) 0.75812(11)
C3_3 C 0.7511(3) 0.6118(3) 0.48876(13)
H1_3 H 0.7220 0.5329 0.4759
C4_3 C 0.8386(3) 0.6765(3) 0.45411(14)
H2_3 H 0.8662 0.6409 0.4181
C5_3 C 0.8421(3) 0.8350(3) 0.52302(13)
H3_3 H 0.8745 0.9121 0.5367
C6_3 C 0.7508(3) 0.7723(3) 0.55776(12)
C7_3 C 0.6978(3) 0.8281(3) 0.61325(12)
C8_3 C 0.7517(4) 0.9483(4) 0.63881(18)
H5_3 H 0.8435 0.9472 0.6353
H6_3 H 0.7281 0.9551 0.6804
C9_4 C 0.4438(2) 0.7495(3) 0.70251(11)
C10_4 C 0.2635(3) 0.7407(3) 0.77669(13)
H7_4 H 0.2275 0.6740 0.7551
C11_4 C 0.2042(3) 0.7869(3) 0.82753(15)
H8_4 H 0.1269 0.7524 0.8405
C12_4 C 0.2601(3) 0.8837(3) 0.85869(14)
H9_4 H 0.2189 0.9145 0.8928
H10_3 H 0.5050 0.9308 0.7809
C13_3 C 0.3689(6) 0.2609(5) 0.5063(2)
H11 H 0.4075 0.2566 0.4672
H12_3 H 0.2775 0.2682 0.5022
H13_3 H 0.3891 0.1853 0.5284
C14_3 C 0.4199(4) 0.3753(3) 0.53950(14)
N2_3 N 0.7069(2) 0.6595(2) 0.54029(10)
N4_3 N 0.6010(2) 0.7693(2) 0.63602(9)
N5_3 N 0.5450(2) 0.8183(2) 0.68649(10)
O1_4 O 0.39755(19) 0.65310(19) 0.67648(9)
O2_3 O 0.3636(2) 0.4128(2) 0.58576(10)
O3_3 O 0.5155(2) 0.4310(2) 0.51849(9)
C5_4 C 0.6579(3) 0.1650(3) 0.02302(13)
H3_4 H 0.6255 0.0879 0.0367
C6_4 C 0.7492(3) 0.2277(3) 0.05776(12)
C7_4 C 0.8022(3) 0.1719(3) 0.11325(12)
C8_4 C 0.7483(4) 0.0517(4) 0.13881(18)
H5_4 H 0.6565 0.0528 0.1353
H6_4 H 0.7719 0.0449 0.1804
H10_4 H 0.9950 0.0692 0.2809
N2_4 N 0.7931(2) 0.3405(2) 0.04029(10)
N4_4 N 0.8990(2) 0.2307(2) 0.13602(9)
N5_4 N 0.9550(2) 0.1817(2) 0.18649(10)
O3_4 O 0.9845(2) 0.5690(2) 0.01849(9)
C3_4 C 0.7489(3) 0.3882(3) 0.98876(13)
H1_4 H 0.7780 0.4671 0.9759
C4_4 C 0.6614(3) 0.3235(3) 0.95411(14)
H2_4 H 0.6338 0.3591 0.9181
H11_2 H 0.5925 0.7566 0.0328
C13_4 C 0.8689(6) 0.2391(5) 0.4937(2)
H11_3 H 0.9075 0.2434 0.5328
H12_4 H 0.7775 0.2318 0.4978
H13_4 H 0.8891 0.3147 0.4716
C14_4 C 0.9199(4) 0.1247(3) 0.46050(14)
O2_4 O 0.8636(2) 0.0872(2) 0.41424(10)
H11_4 H 0.0925 0.7434 0.9672
H4_4 H 0.7820 0.9803 0.1171
loop_
_geom_bond_atom_site_label_1
_geom_bond_atom_site_label_2
_geom_bond_site_symmetry_1
_geom_bond_site_symmetry_2
C3 H1 1_555 1_555
C4 C3 1_555 1_555
H2 C4 1_555 1_555
N3 C4 1_555 1_555
N6 C1 1_555 1_555
C1 C2 1_555 1_555
C2 C9 1_555 1_555
C10 C2 1_555 1_555
H7 C10 1_555 1_555
C11 C10 1_555 1_555
H8 C11 1_555 1_555
C12 N6 1_555 1_555
H9 C12 1_555 1_555
H12 C13 1_555 1_555
H13 C13 1_555 1_555
C14 C13 1_555 1_555
C9 O1 1_555 1_555
C11 C12 1_555 1_555
C14 O2 1_555 1_555
N1 C1_2 1_555 1_555
C1_2 C2_2 1_555 1_555
C2_2 C9_2 1_555 1_555
Cd1 N2 1_555 1_555
C5 H3 1_555 1_555
C6 C5 1_555 1_555
C7 C6 1_555 1_555
C8 C7 1_555 1_555
H4 C8 1_555 1_555
H5 C8 1_555 1_555
H6 C8 1_555 1_555
C9_2 N5 1_555 1_555
C10_2 C2_2 1_555 1_555
H7_2 C10_2 1_555 1_555
C11_2 C10_2 1_555 1_555
H8_2 C11_2 1_555 1_555
C12_2 N1 1_555 1_555
H9_2 C12_2 1_555 1_555
H10 C1_2 1_555 1_555
N4 Cd1 1_555 1_555
N5 N4 1_555 1_555
O1_2 Cd1 1_555 1_555
Cd2 N1 1_555 1_555
N7 Cd1 1_555 1_555
C6 N2 1_555 1_555
C7 N4 1_555 1_555
C9_2 O1_2 1_555 1_555
C11_2 C12_2 1_555 1_555
H12_2 C13_2 1_555 1_555
H13_2 C13_2 1_555 1_555
C14_2 C13_2 1_555 1_555
C14_2 O2_2 1_555 1_555
C14_2 O3_2 1_555 1_555
Cd1_2 N2_2 1_555 1_555
C3_2 H1_2 1_555 1_555
C4_2 C3_2 1_555 1_555
H2_2 C4_2 1_555 1_555
C5_2 H3_2 1_555 1_555
C6_2 C5_2 1_555 1_555
C7_2 C6_2 1_555 1_555
C8_2 C7_2 1_555 1_555
H4_2 C8_2 1_555 1_555
H5_2 C8_2 1_555 1_555
H6_2 C8_2 1_555 1_555
N2_2 C3_2 1_555 1_555
N3_2 C4_2 1_555 1_555
N4_2 Cd1_2 1_555 1_555
N5_2 N4_2 1_555 1_555
Cd2 N3_2 1_555 1_555
C5_2 N3_2 1_555 1_555
C6_2 N2_2 1_555 1_555
C7_2 N4_2 1_555 1_555
N1_2 C1_3 1_555 1_555
C1_3 C2_3 1_555 1_555
C2_3 C9_3 1_555 1_555
C10_3 C2_3 1_555 1_555
H7_3 C10_3 1_555 1_555
C11_3 C10_3 1_555 1_555
H8_3 C11_3 1_555 1_555
C12_3 N1_2 1_555 1_555
H9_3 C12_3 1_555 1_555
Cd3 N1_2 1_555 1_555
C9_3 O1_3 1_555 1_555
C11_3 C12_3 1_555 1_555
N6_2 C1_4 1_555 1_555
C1_4 C2_4 1_555 1_555
C2_4 C9_4 1_555 1_555
Cd2 N2_3 1_555 1_555
C3_3 H1_3 1_555 1_555
C4_3 C3_3 1_555 1_555
H2_3 C4_3 1_555 1_555
C5_3 H3_3 1_555 1_555
C6_3 C5_3 1_555 1_555
C7_3 C6_3 1_555 1_555
C8_3 C7_3 1_555 1_555
H5_3 C8_3 1_555 1_555
H6_3 C8_3 1_555 1_555
C9_4 N5_3 1_555 1_555
C10_4 C2_4 1_555 1_555
H7_4 C10_4 1_555 1_555
C11_4 C10_4 1_555 1_555
H8_4 C11_4 1_555 1_555
C12_4 N6_2 1_555 1_555
H9_4 C12_4 1_555 1_555
H10_3 C1_4 1_555 1_555
C13_3 H11 1_555 1_555
H12_3 C13_3 1_555 1_555
H13_3 C13_3 1_555 1_555
C14_3 C13_3 1_555 1_555
N2_3 C3_3 1_555 1_555
N7_2 C4_3 1_555 1_555
N4_3 Cd2 1_555 1_555
N5_3 N4_3 1_555 1_555
O1_4 Cd2 1_555 1_555
O2_3 Cd2 1_555 1_555
O3_3 Cd2 1_555 1_555
C5_3 N7_2 1_555 1_555
C6_3 N2_3 1_555 1_555
C7_3 N4_3 1_555 1_555
C9_4 O1_4 1_555 1_555
C11_4 C12_4 1_555 1_555
C14_3 O2_3 1_555 1_555
C14_3 O3_3 1_555 1_555
Cd3 N2_4 1_555 1_555
C5_4 H3_4 1_555 1_555
C6_4 C5_4 1_555 1_555
C7_4 C6_4 1_555 1_555
C8_4 C7_4 1_555 1_555
H5_4 C8_4 1_555 1_555
H6_4 C8_4 1_555 1_555
N4_4 Cd3 1_555 1_555
N5_4 N4_4 1_555 1_555
O3_4 Cd3 1_555 1_555
C6_4 N2_4 1_555 1_555
C7_4 N4_4 1_555 1_555
C3_4 H1_4 1_555 1_555
C4_4 C3_4 1_555 1_555
H2_4 C4_4 1_555 1_555
N7 C4_4 1_555 1_555
C13_4 H11_3 1_555 1_555
H12_4 C13_4 1_555 1_555
H13_4 C13_4 1_555 1_555
C14_4 C13_4 1_555 1_555
C14_4 O2_4 1_555 1_555

#END
