
###############################################################################
#
# This file contains modified crystal structure data generated from the
# MOF subset of the Cambridge Structural Database (CSD) v543 
# hosted by the Cambridge Crystallographic Data Centre (CCDC).
#
# This work is licensed under the Creative Commons
# Attribution-NonCommercial-ShareAlike 4.0 International License.
# To view a copy of this license, visit
# http://creativecommons.org/licenses/by-nc-sa/4.0/
# or send a letter to
# Creative Commons, PO Box 1866, Mountain View, CA 94042, USA.
#
# CIF created using the CSD Python API on 29 September 2022
# The structure has been converted into the P1 space group
# The structure has a 3D framework
# The original CSD entry WOWBIV is in the tetragonal crystal system
# The framework has been calculated to contain at least 10.0% void space
# The void calculation uses a probe of radius 1.32A, grid spacing 0.4
#
###############################################################################

data_WOWBIV
_chemical_formula_moiety         '(C176 H112 Cd16 O72)n'
_symmetry_cell_setting           triclinic
_symmetry_space_group_name_H-M   'P 1'
_symmetry_Int_Tables_number      1
_space_group_name_Hall           'P 1'
loop_
_symmetry_equiv_pos_site_id
_symmetry_equiv_pos_as_xyz
1 x,y,z
_cell_length_a                   18.1586(14)
_cell_length_b                   18.1586(14)
_cell_length_c                   14.416(2)
_cell_angle_alpha                90
_cell_angle_beta                 90
_cell_angle_gamma                90
_cell_volume                     4753.46
loop_
_atom_site_label
_atom_site_type_symbol
_atom_site_fract_x
_atom_site_fract_y
_atom_site_fract_z
Cd1 Cd 0.204553(15) 0.015159(15) 0.047679(19)
O5 O 0.1003(2) 0.0098(3) 0.1328(3)
H1 H 0.1126 0.0129 0.1874
H2 H 0.0659 0.0384 0.1246
O11 O 0.24779(17) 0.10437(15) 0.1466(2)
O1 O 0.13401(19) 0.10414(19) 0.9673(2)
C1 C 0.1173(2) 0.0623(2) 0.9019(3)
C2 C 0.0615(2) 0.0853(2) 0.8310(3)
C3 C 0.0155(3) 0.1451(3) 0.8481(3)
H3 H 0.0209 0.1724 0.9023
C6 C 0.0013(2) 0.0669(2) 0.6842(3)
C7 C 0.0538(2) 0.0451(2) 0.7491(3)
H6 H 0.0834 0.0043 0.7380
C11 C 0.0644(2) 0.0201(2) 0.5424(3)
H7 H 0.1083 0.0332 0.5713
O9 O 0.14278(19) 0.0212(2) 0.3216(2)
Cd5 Cd 0.265159(15) 0.045447(15) 0.297679(19)
O15 O 0.30262(17) 0.0182(2) 0.9475(3)
O16 O 0.2682(2) 0.94738(17) 0.1975(3)
O18 O 0.2288(2) 0.89278(19) 0.0716(2)
O2 O 0.14563(15) 0.99779(17) 0.8966(2)
C15 C 0.0380(3) 0.8361(3) 0.2153(4)
H9 H 0.0703 0.7976 0.2024
C16 C 0.0440(3) 0.8744(3) 0.2989(3)
H10 H 0.0787 0.8602 0.3429
C19 C 0.0013(2) 0.9717(2) 0.4084(3)
C20 C 0.0671(2) 0.9930(2) 0.4519(3)
C21 C 0.1403(2) 0.9980(2) 0.4031(3)
O8 O 0.19738(17) 0.9818(2) 0.4475(3)
Cd3 Cd 0.295447(15) 0.984841(15) 0.547679(19)
Cd4 Cd 0.234841(15) 0.954553(15) 0.797679(19)
O3 O 0.80262(17) 0.0182(2) 0.5525(3)
C4 C 0.9620(3) 0.1639(3) 0.7847(4)
H4 H 0.9297 0.2024 0.7976
C5 C 0.9560(3) 0.1256(3) 0.7011(3)
H5 H 0.9213 0.1398 0.6571
C8 C 0.9987(2) 0.0283(2) 0.5916(3)
C9 C 0.9329(2) 0.0070(2) 0.5481(3)
C10 C 0.8597(2) 0.0020(2) 0.5969(3)
O7 O 0.85437(15) 0.00221(17) 0.1034(2)
Cd6 Cd 0.704553(15) 0.015159(15) 0.452321(19)
Cd7 Cd 0.765159(15) 0.045447(15) 0.202321(19)
O14 O 0.7318(2) 0.05262(17) 0.8025(3)
O17 O 0.7712(2) 0.10722(19) 0.9284(2)
O4 O 0.85722(19) 0.9788(2) 0.6784(2)
O6 O 0.86599(19) 0.89586(19) 0.0327(2)
C12 C 0.8827(2) 0.9377(2) 0.0981(3)
C13 C 0.9385(2) 0.9147(2) 0.1690(3)
C14 C 0.9845(3) 0.8549(3) 0.1519(3)
H8 H 0.9791 0.8276 0.0977
C17 C 0.9987(2) 0.9331(2) 0.3158(3)
C18 C 0.9462(2) 0.9549(2) 0.2509(3)
H11 H 0.9166 0.9957 0.2620
C22 C 0.9356(2) 0.9799(2) 0.4576(3)
H12 H 0.8917 0.9668 0.4287
Cd8 Cd 0.734841(15) 0.954553(15) 0.702321(19)
O13 O 0.69738(17) 0.9818(2) 0.0525(3)
Cd2 Cd 0.795447(15) 0.984841(15) 0.952321(19)
O10 O 0.8997(2) 0.9902(3) 0.8672(3)
H13 H 0.8874 0.9871 0.8126
H14 H 0.9341 0.9616 0.8754
O12 O 0.75221(17) 0.89563(15) 0.8534(2)
O2_2 O 0.35437(15) 0.00221(17) 0.3966(2)
O4_2 O 0.64278(19) 0.0212(2) 0.1784(2)
O16_2 O 0.2318(2) 0.05262(17) 0.6975(3)
O18_2 O 0.2712(2) 0.10722(19) 0.5716(2)
O6_2 O 0.63401(19) 0.10414(19) 0.5327(2)
C12_2 C 0.6173(2) 0.0623(2) 0.5981(3)
C13_2 C 0.5615(2) 0.0853(2) 0.6690(3)
C14_2 C 0.5155(3) 0.1451(3) 0.6519(3)
H8_2 H 0.5209 0.1724 0.5977
C15_2 C 0.4620(3) 0.1639(3) 0.7153(4)
H9_2 H 0.4297 0.2024 0.7024
C16_2 C 0.4560(3) 0.1256(3) 0.7989(3)
H10_2 H 0.4213 0.1398 0.8429
C17_2 C 0.5013(2) 0.0669(2) 0.8158(3)
C18_2 C 0.5538(2) 0.0451(2) 0.7509(3)
H11_2 H 0.5834 0.0043 0.7620
C19_2 C 0.4987(2) 0.0283(2) 0.9084(3)
C20_2 C 0.4329(2) 0.0070(2) 0.9519(3)
C21_2 C 0.3597(2) 0.0020(2) 0.9031(3)
C22_2 C 0.5644(2) 0.0201(2) 0.9576(3)
H12_2 H 0.6083 0.0332 0.9287
O10_2 O 0.6003(2) 0.0098(3) 0.3672(3)
H13_2 H 0.6126 0.0129 0.3126
H14_2 H 0.5659 0.0384 0.3754
O12_2 O 0.74779(17) 0.10437(15) 0.3534(2)
O1_2 O 0.36599(19) 0.89586(19) 0.4673(2)
O5_2 O 0.3997(2) 0.9902(3) 0.6328(3)
H1_2 H 0.3874 0.9871 0.6874
H2_2 H 0.4341 0.9616 0.6246
C1_2 C 0.3827(2) 0.9377(2) 0.4019(3)
C2_2 C 0.4385(2) 0.9147(2) 0.3310(3)
C3_2 C 0.4845(3) 0.8549(3) 0.3481(3)
H3_2 H 0.4791 0.8276 0.4023
C4_2 C 0.5380(3) 0.8361(3) 0.2847(4)
H4_2 H 0.5703 0.7976 0.2976
C5_2 C 0.5440(3) 0.8744(3) 0.2011(3)
H5_2 H 0.5787 0.8602 0.1571
C6_2 C 0.4987(2) 0.9331(2) 0.1842(3)
C7_2 C 0.4462(2) 0.9549(2) 0.2491(3)
H6_2 H 0.4166 0.9957 0.2380
C8_2 C 0.5013(2) 0.9717(2) 0.0916(3)
C9_2 C 0.5671(2) 0.9930(2) 0.0481(3)
C10_2 C 0.6403(2) 0.9980(2) 0.0969(3)
C11_2 C 0.4356(2) 0.9799(2) 0.0424(3)
H7_2 H 0.3917 0.9668 0.0713
O11_2 O 0.25221(17) 0.89563(15) 0.6466(2)
O7_2 O 0.64563(15) 0.99779(17) 0.6034(2)
O9_2 O 0.35722(19) 0.9788(2) 0.8216(2)
O14_2 O 0.7682(2) 0.94738(17) 0.3025(3)
O17_2 O 0.7288(2) 0.89278(19) 0.4284(2)
Cd1_2 Cd 0.734841(15) 0.454553(15) 0.297679(19)
O1_3 O 0.64586(19) 0.38401(19) 0.2173(2)
O2_3 O 0.75221(17) 0.39563(15) 0.1466(2)
O5_3 O 0.7402(3) 0.3503(2) 0.3828(3)
H1_3 H 0.7371 0.3626 0.4374
H2_3 H 0.7116 0.3159 0.3746
C1_3 C 0.6877(2) 0.3673(2) 0.1519(3)
C2_3 C 0.6647(2) 0.3115(2) 0.0810(3)
C3_3 C 0.6049(3) 0.2655(3) 0.0981(3)
H3_3 H 0.5776 0.2709 0.1523
C4_3 C 0.5861(3) 0.2120(3) 0.0347(4)
H4_3 H 0.5476 0.1797 0.0476
Cd4_2 Cd 0.795447(15) 0.484841(15) 0.047679(19)
O11_3 O 0.64563(15) 0.49779(17) 0.3966(2)
O15_2 O 0.7318(2) 0.55262(17) 0.1975(3)
O16_3 O 0.80262(17) 0.5182(2) 0.4475(3)
O18_3 O 0.85722(19) 0.4788(2) 0.3216(2)
C5_3 C 0.6244(3) 0.2060(3) 0.9511(3)
H5_3 H 0.6102 0.1713 0.9071
C6_3 C 0.6831(2) 0.2513(2) 0.9342(3)
C7_3 C 0.7049(2) 0.3038(2) 0.9991(3)
H6_3 H 0.7457 0.3334 0.9880
C8_3 C 0.7217(2) 0.2487(2) 0.8416(3)
C9_3 C 0.7430(2) 0.1829(2) 0.7981(3)
C10_3 C 0.7480(2) 0.1097(2) 0.8469(3)
C11_3 C 0.7299(2) 0.3144(2) 0.7924(3)
H7_3 H 0.7168 0.3583 0.8213
O6_3 O 0.85414(19) 0.11599(19) 0.2827(2)
C12_3 C 0.8123(2) 0.1327(2) 0.3481(3)
C13_3 C 0.8353(2) 0.1885(2) 0.4190(3)
C14_3 C 0.8951(3) 0.2345(3) 0.4019(3)
H8_3 H 0.9224 0.2291 0.3477
C15_3 C 0.9139(3) 0.2880(3) 0.4653(4)
H9_3 H 0.9524 0.3203 0.4524
C16_3 C 0.8756(3) 0.2940(3) 0.5489(3)
H10_3 H 0.8898 0.3287 0.5929
C17_3 C 0.8169(2) 0.2487(2) 0.5658(3)
C18_3 C 0.7951(2) 0.1962(2) 0.5009(3)
H11_3 H 0.7543 0.1666 0.5120
C19_3 C 0.7783(2) 0.2513(2) 0.6584(3)
C20_3 C 0.7570(2) 0.3171(2) 0.7019(3)
C21_3 C 0.7520(2) 0.3903(2) 0.6531(3)
C22_3 C 0.7701(2) 0.1856(2) 0.7076(3)
H12_3 H 0.7832 0.1417 0.6787
O8_2 O 0.7682(2) 0.44738(17) 0.6975(3)
O9_3 O 0.7288(2) 0.39278(19) 0.5716(2)
O10_3 O 0.7598(3) 0.1497(2) 0.1172(3)
H13_3 H 0.7629 0.1374 0.0626
H14_3 H 0.7884 0.1841 0.1254
Cd3_2 Cd 0.765159(15) 0.545447(15) 0.797679(19)
Cd5_2 Cd 0.704553(15) 0.515159(15) 0.547679(19)
O1_4 O 0.85414(19) 0.61599(19) 0.7173(2)
O2_4 O 0.74779(17) 0.60437(15) 0.6466(2)
O5_4 O 0.7598(3) 0.6497(2) 0.8828(3)
H1_4 H 0.7629 0.6374 0.9374
H2_4 H 0.7884 0.6841 0.8746
C1_4 C 0.8123(2) 0.6327(2) 0.6519(3)
C2_4 C 0.8353(2) 0.6885(2) 0.5810(3)
C3_4 C 0.8951(3) 0.7345(3) 0.5981(3)
H3_4 H 0.9224 0.7291 0.6523
C4_4 C 0.9139(3) 0.7880(3) 0.5347(4)
H4_4 H 0.9524 0.8203 0.5476
C5_4 C 0.8756(3) 0.7940(3) 0.4511(3)
H5_4 H 0.8898 0.8287 0.4071
C6_4 C 0.8169(2) 0.7487(2) 0.4342(3)
C7_4 C 0.7951(2) 0.6962(2) 0.4991(3)
H6_4 H 0.7543 0.6666 0.4880
C8_4 C 0.7783(2) 0.7513(2) 0.3416(3)
C9_4 C 0.7570(2) 0.8171(2) 0.2981(3)
C10_4 C 0.7520(2) 0.8903(2) 0.3469(3)
C11_4 C 0.7701(2) 0.6856(2) 0.2924(3)
H7_4 H 0.7832 0.6417 0.3213
C16_4 C 0.6244(3) 0.7060(3) 0.0489(3)
H10_4 H 0.6102 0.6713 0.0929
C17_4 C 0.6831(2) 0.7513(2) 0.0658(3)
C18_4 C 0.7049(2) 0.8038(2) 0.0009(3)
H11_4 H 0.7457 0.8334 0.0120
C19_4 C 0.7217(2) 0.7487(2) 0.1584(3)
C20_4 C 0.7430(2) 0.6829(2) 0.2019(3)
C21_4 C 0.7480(2) 0.6097(2) 0.1531(3)
C22_4 C 0.7299(2) 0.8144(2) 0.2076(3)
H12_4 H 0.7168 0.8583 0.1787
O9_4 O 0.7712(2) 0.60722(19) 0.0716(2)
O11_4 O 0.85437(15) 0.50221(17) 0.8966(2)
O16_4 O 0.69738(17) 0.4818(2) 0.9475(3)
O18_4 O 0.64278(19) 0.5212(2) 0.8216(2)
O6_4 O 0.64586(19) 0.88401(19) 0.7827(2)
C12_4 C 0.6877(2) 0.8673(2) 0.8481(3)
C13_4 C 0.6647(2) 0.8115(2) 0.9190(3)
C14_4 C 0.6049(3) 0.7655(3) 0.9019(3)
H8_4 H 0.5776 0.7709 0.8477
C15_4 C 0.5861(3) 0.7120(3) 0.9653(4)
H9_4 H 0.5476 0.6797 0.9524
O10_4 O 0.7402(3) 0.8503(2) 0.6172(3)
H13_4 H 0.7371 0.8626 0.5626
H14_4 H 0.7116 0.8159 0.6254
O1_5 O 0.63401(19) 0.60414(19) 0.4673(2)
O3_2 O 0.30262(17) 0.5182(2) 0.0525(3)
O4_3 O 0.35722(19) 0.4788(2) 0.1784(2)
O5_5 O 0.6003(2) 0.5098(3) 0.6328(3)
H1_5 H 0.6126 0.5129 0.6874
H2_5 H 0.5659 0.5384 0.6246
C1_5 C 0.6173(2) 0.5623(2) 0.4019(3)
C2_5 C 0.5615(2) 0.5853(2) 0.3310(3)
C3_5 C 0.5155(3) 0.6451(3) 0.3481(3)
H3_5 H 0.5209 0.6724 0.4023
C4_5 C 0.4620(3) 0.6639(3) 0.2847(4)
H4_5 H 0.4297 0.7024 0.2976
C5_5 C 0.4560(3) 0.6256(3) 0.2011(3)
H5_5 H 0.4213 0.6398 0.1571
C6_5 C 0.5013(2) 0.5669(2) 0.1842(3)
C7_5 C 0.5538(2) 0.5451(2) 0.2491(3)
H6_5 H 0.5834 0.5043 0.2380
C8_5 C 0.4987(2) 0.5283(2) 0.0916(3)
C9_5 C 0.4329(2) 0.5070(2) 0.0481(3)
C10_5 C 0.3597(2) 0.5020(2) 0.0969(3)
C11_5 C 0.5644(2) 0.5201(2) 0.0424(3)
H7_5 H 0.6083 0.5332 0.0713
Cd8_2 Cd 0.234841(15) 0.454553(15) 0.202321(19)
O6_5 O 0.36599(19) 0.39586(19) 0.5327(2)
O7_3 O 0.35437(15) 0.50221(17) 0.6034(2)
C12_5 C 0.3827(2) 0.4377(2) 0.5981(3)
C13_5 C 0.4385(2) 0.4147(2) 0.6690(3)
C14_5 C 0.4845(3) 0.3549(3) 0.6519(3)
H8_5 H 0.4791 0.3276 0.5977
C15_5 C 0.5380(3) 0.3361(3) 0.7153(4)
H9_5 H 0.5703 0.2976 0.7024
C16_5 C 0.5440(3) 0.3744(3) 0.7989(3)
H10_5 H 0.5787 0.3602 0.8429
C17_5 C 0.4987(2) 0.4331(2) 0.8158(3)
C18_5 C 0.4462(2) 0.4549(2) 0.7509(3)
H11_5 H 0.4166 0.4957 0.7620
C19_5 C 0.5013(2) 0.4717(2) 0.9084(3)
C20_5 C 0.5671(2) 0.4930(2) 0.9519(3)
C21_5 C 0.6403(2) 0.4980(2) 0.9031(3)
C22_5 C 0.4356(2) 0.4799(2) 0.9576(3)
H12_5 H 0.3917 0.4668 0.9287
Cd2_2 Cd 0.295447(15) 0.484841(15) 0.452321(19)
O10_5 O 0.3997(2) 0.4902(3) 0.3672(3)
H13_5 H 0.3874 0.4871 0.3126
H14_5 H 0.4341 0.4616 0.3754
Cd6_2 Cd 0.204553(15) 0.515159(15) 0.952321(19)
Cd7_2 Cd 0.265159(15) 0.545447(15) 0.702321(19)
O12_3 O 0.25221(17) 0.39563(15) 0.3534(2)
O13_2 O 0.19738(17) 0.4818(2) 0.5525(3)
O14_3 O 0.2318(2) 0.55262(17) 0.3025(3)
O17_3 O 0.2712(2) 0.60722(19) 0.4284(2)
O4_4 O 0.14278(19) 0.5212(2) 0.6784(2)
C4_6 C 0.0380(3) 0.3361(3) 0.7847(4)
H4_6 H 0.0703 0.2976 0.7976
C5_6 C 0.0440(3) 0.3744(3) 0.7011(3)
H5_6 H 0.0787 0.3602 0.6571
C8_6 C 0.0013(2) 0.4717(2) 0.5916(3)
C9_6 C 0.0671(2) 0.4930(2) 0.5481(3)
C10_6 C 0.1403(2) 0.4980(2) 0.5969(3)
O6_6 O 0.13401(19) 0.60414(19) 0.0327(2)
O7_4 O 0.14563(15) 0.49779(17) 0.1034(2)
C12_6 C 0.1173(2) 0.5623(2) 0.0981(3)
C13_6 C 0.0615(2) 0.5853(2) 0.1690(3)
C14_6 C 0.0155(3) 0.6451(3) 0.1519(3)
H8_6 H 0.0209 0.6724 0.0977
C17_6 C 0.0013(2) 0.5669(2) 0.3158(3)
C18_6 C 0.0538(2) 0.5451(2) 0.2509(3)
H11_6 H 0.0834 0.5043 0.2620
C22_6 C 0.0644(2) 0.5201(2) 0.4576(3)
H12_6 H 0.1083 0.5332 0.4287
O10_6 O 0.1003(2) 0.5098(3) 0.8672(3)
H13_6 H 0.1126 0.5129 0.8126
H14_6 H 0.0659 0.5384 0.8754
O12_4 O 0.24779(17) 0.60437(15) 0.8534(2)
O14_4 O 0.2682(2) 0.44738(17) 0.8025(3)
O17_4 O 0.2288(2) 0.39278(19) 0.9284(2)
O5_6 O 0.8997(2) 0.4902(3) 0.1328(3)
H1_6 H 0.8874 0.4871 0.1874
H2_6 H 0.9341 0.4616 0.1246
O1_6 O 0.86599(19) 0.39586(19) 0.9673(2)
C1_6 C 0.8827(2) 0.4377(2) 0.9019(3)
C2_6 C 0.9385(2) 0.4147(2) 0.8310(3)
C3_6 C 0.9845(3) 0.3549(3) 0.8481(3)
H3_6 H 0.9791 0.3276 0.9023
C6_6 C 0.9987(2) 0.4331(2) 0.6842(3)
C7_6 C 0.9462(2) 0.4549(2) 0.7491(3)
H6_6 H 0.9166 0.4957 0.7380
C11_6 C 0.9356(2) 0.4799(2) 0.5424(3)
H7_6 H 0.8917 0.4668 0.5713
C15_6 C 0.9620(3) 0.6639(3) 0.2153(4)
H9_6 H 0.9297 0.7024 0.2024
C16_6 C 0.9560(3) 0.6256(3) 0.2989(3)
H10_6 H 0.9213 0.6398 0.3429
C19_6 C 0.9987(2) 0.5283(2) 0.4084(3)
C20_6 C 0.9329(2) 0.5070(2) 0.4519(3)
C21_6 C 0.8597(2) 0.5020(2) 0.4031(3)
O1_7 O 0.14586(19) 0.88401(19) 0.7173(2)
O5_7 O 0.2402(3) 0.8503(2) 0.8828(3)
H1_7 H 0.2371 0.8626 0.9374
H2_7 H 0.2116 0.8159 0.8746
C1_7 C 0.1877(2) 0.8673(2) 0.6519(3)
C2_7 C 0.1647(2) 0.8115(2) 0.5810(3)
C3_7 C 0.1049(3) 0.7655(3) 0.5981(3)
H3_7 H 0.0776 0.7709 0.6523
C4_7 C 0.0861(3) 0.7120(3) 0.5347(4)
H4_7 H 0.0476 0.6797 0.5476
C5_7 C 0.1244(3) 0.7060(3) 0.4511(3)
H5_7 H 0.1102 0.6713 0.4071
C6_7 C 0.1831(2) 0.7513(2) 0.4342(3)
C7_7 C 0.2049(2) 0.8038(2) 0.4991(3)
H6_7 H 0.2457 0.8334 0.4880
C8_7 C 0.2217(2) 0.7487(2) 0.3416(3)
C9_7 C 0.2430(2) 0.6829(2) 0.2981(3)
C10_7 C 0.2480(2) 0.6097(2) 0.3469(3)
C11_7 C 0.2299(2) 0.8144(2) 0.2924(3)
H7_7 H 0.2168 0.8583 0.3213
C16_7 C 0.3756(3) 0.7940(3) 0.0489(3)
H10_7 H 0.3898 0.8287 0.0929
C17_7 C 0.3169(2) 0.7487(2) 0.0658(3)
C18_7 C 0.2951(2) 0.6962(2) 0.0009(3)
H11_7 H 0.2543 0.6666 0.0120
C19_7 C 0.2783(2) 0.7513(2) 0.1584(3)
C20_7 C 0.2570(2) 0.8171(2) 0.2019(3)
C21_7 C 0.2520(2) 0.8903(2) 0.1531(3)
C22_7 C 0.2701(2) 0.6856(2) 0.2076(3)
H12_7 H 0.2832 0.6417 0.1787
O6_7 O 0.35414(19) 0.61599(19) 0.7827(2)
C12_7 C 0.3123(2) 0.6327(2) 0.8481(3)
C13_7 C 0.3353(2) 0.6885(2) 0.9190(3)
C14_7 C 0.3951(3) 0.7345(3) 0.9019(3)
H8_7 H 0.4224 0.7291 0.8477
C15_7 C 0.4139(3) 0.7880(3) 0.9653(4)
H9_7 H 0.4524 0.8203 0.9524
O10_7 O 0.2598(3) 0.6497(2) 0.6172(3)
H13_7 H 0.2629 0.6374 0.5626
H14_7 H 0.2884 0.6841 0.6254
O1_8 O 0.35414(19) 0.11599(19) 0.2173(2)
O5_8 O 0.2598(3) 0.1497(2) 0.3828(3)
H1_8 H 0.2629 0.1374 0.4374
H2_8 H 0.2884 0.1841 0.3746
C1_8 C 0.3123(2) 0.1327(2) 0.1519(3)
C2_8 C 0.3353(2) 0.1885(2) 0.0810(3)
C3_8 C 0.3951(3) 0.2345(3) 0.0981(3)
H3_8 H 0.4224 0.2291 0.1523
C4_8 C 0.4139(3) 0.2880(3) 0.0347(4)
H4_8 H 0.4524 0.3203 0.0476
C5_8 C 0.3756(3) 0.2940(3) 0.9511(3)
H5_8 H 0.3898 0.3287 0.9071
C6_8 C 0.3169(2) 0.2487(2) 0.9342(3)
C7_8 C 0.2951(2) 0.1962(2) 0.9991(3)
H6_8 H 0.2543 0.1666 0.9880
C8_8 C 0.2783(2) 0.2513(2) 0.8416(3)
C9_8 C 0.2570(2) 0.3171(2) 0.7981(3)
C10_8 C 0.2520(2) 0.3903(2) 0.8469(3)
C11_8 C 0.2701(2) 0.1856(2) 0.7924(3)
H7_8 H 0.2832 0.1417 0.8213
O6_8 O 0.14586(19) 0.38401(19) 0.2827(2)
C12_8 C 0.1877(2) 0.3673(2) 0.3481(3)
C13_8 C 0.1647(2) 0.3115(2) 0.4190(3)
C14_8 C 0.1049(3) 0.2655(3) 0.4019(3)
H8_8 H 0.0776 0.2709 0.3477
C15_8 C 0.0861(3) 0.2120(3) 0.4653(4)
H9_8 H 0.0476 0.1797 0.4524
C16_8 C 0.1244(3) 0.2060(3) 0.5489(3)
H10_8 H 0.1102 0.1713 0.5929
C17_8 C 0.1831(2) 0.2513(2) 0.5658(3)
C18_8 C 0.2049(2) 0.3038(2) 0.5009(3)
H11_8 H 0.2457 0.3334 0.5120
C19_8 C 0.2217(2) 0.2487(2) 0.6584(3)
C20_8 C 0.2430(2) 0.1829(2) 0.7019(3)
C21_8 C 0.2480(2) 0.1097(2) 0.6531(3)
C22_8 C 0.2299(2) 0.3144(2) 0.7076(3)
H12_8 H 0.2168 0.3583 0.6787
O10_8 O 0.2402(3) 0.3503(2) 0.1172(3)
H13_8 H 0.2371 0.3626 0.0626
H14_8 H 0.2116 0.3159 0.1254
loop_
_geom_bond_atom_site_label_1
_geom_bond_atom_site_label_2
_geom_bond_site_symmetry_1
_geom_bond_site_symmetry_2
O5 Cd1 1_555 1_555
H1 O5 1_555 1_555
H2 O5 1_555 1_555
O11 Cd1 1_555 1_555
O1 C1 1_555 1_555
C2 C1 1_555 1_555
C3 C2 1_555 1_555
H3 C3 1_555 1_555
C7 C2 1_555 1_555
H6 C7 1_555 1_555
H7 C11 1_555 1_555
C6 C7 1_555 1_555
O9 Cd5 1_555 1_555
H9 C15 1_555 1_555
C16 C15 1_555 1_555
H10 C16 1_555 1_555
C21 C20 1_555 1_555
O8 C21 1_555 1_555
Cd3 O8 1_555 1_555
Cd4 O2 1_555 1_555
C19 C20 1_555 1_555
O3 C10 1_555 1_555
H4 C4 1_555 1_555
C5 C4 1_555 1_555
H5 C5 1_555 1_555
C9 C8 1_555 1_555
C10 C9 1_555 1_555
Cd6 O3 1_555 1_555
Cd7 O7 1_555 1_555
O6 C12 1_555 1_555
C12 C13 1_555 1_555
C13 C14 1_555 1_555
C14 H8 1_555 1_555
C18 C13 1_555 1_555
H11 C18 1_555 1_555
H12 C22 1_555 1_555
O4 Cd8 1_555 1_555
C17 C18 1_555 1_555
O10 Cd2 1_555 1_555
H13 O10 1_555 1_555
H14 O10 1_555 1_555
O12 Cd2 1_555 1_555
Cd5 O2_2 1_555 1_555
O4_2 Cd7 1_555 1_555
O6_2 C12_2 1_555 1_555
C12_2 C13_2 1_555 1_555
C13_2 C14_2 1_555 1_555
C14_2 H8_2 1_555 1_555
C15_2 C14_2 1_555 1_555
H9_2 C15_2 1_555 1_555
C16_2 C15_2 1_555 1_555
H10_2 C16_2 1_555 1_555
C17_2 C16_2 1_555 1_555
C18_2 C13_2 1_555 1_555
H11_2 C18_2 1_555 1_555
C19_2 C17_2 1_555 1_555
C21_2 C20_2 1_555 1_555
H12_2 C22_2 1_555 1_555
O15 C21_2 1_555 1_555
Cd6 O6_2 1_555 1_555
O10_2 Cd6 1_555 1_555
H13_2 O10_2 1_555 1_555
H14_2 O10_2 1_555 1_555
O12_2 Cd6 1_555 1_555
C17_2 C18_2 1_555 1_555
C19_2 C20_2 1_555 1_555
C19_2 C22_2 1_555 1_555
Cd3 O1_2 1_555 1_555
O1_2 C1_2 1_555 1_555
O13 C10_2 1_555 1_555
O5_2 Cd3 1_555 1_555
H1_2 O5_2 1_555 1_555
H2_2 O5_2 1_555 1_555
C2_2 C1_2 1_555 1_555
C3_2 C2_2 1_555 1_555
H3_2 C3_2 1_555 1_555
C4_2 C3_2 1_555 1_555
H4_2 C4_2 1_555 1_555
C5_2 C4_2 1_555 1_555
H5_2 C5_2 1_555 1_555
C6_2 C5_2 1_555 1_555
C7_2 C2_2 1_555 1_555
H6_2 C7_2 1_555 1_555
C8_2 C6_2 1_555 1_555
C9_2 C8_2 1_555 1_555
C10_2 C9_2 1_555 1_555
C11_2 C8_2 1_555 1_555
H7_2 C11_2 1_555 1_555
O11_2 Cd3 1_555 1_555
C6_2 C7_2 1_555 1_555
Cd8 O7_2 1_555 1_555
O9_2 Cd4 1_555 1_555
Cd1_2 O1_3 1_555 1_555
O1_3 C1_3 1_555 1_555
O2_3 Cd1_2 1_555 1_555
O5_3 Cd1_2 1_555 1_555
H1_3 O5_3 1_555 1_555
H2_3 O5_3 1_555 1_555
C1_3 O2_3 1_555 1_555
C2_3 C1_3 1_555 1_555
C3_3 C2_3 1_555 1_555
H3_3 C3_3 1_555 1_555
C4_3 C3_3 1_555 1_555
H4_3 C4_3 1_555 1_555
Cd4_2 O2_3 1_555 1_555
O11_3 Cd1_2 1_555 1_555
O15_2 Cd1_2 1_555 1_555
O16_3 Cd1_2 1_555 1_555
O18_3 Cd1_2 1_555 1_555
Cd4_2 O15_2 1_555 1_555
O14 C10_3 1_555 1_555
O17 C10_3 1_555 1_555
H5_3 C5_3 1_555 1_555
C6_3 C5_3 1_555 1_555
H6_3 C7_3 1_555 1_555
C8_3 C6_3 1_555 1_555
C9_3 C8_3 1_555 1_555
C10_3 C9_3 1_555 1_555
C11_3 C8_3 1_555 1_555
H7_3 C11_3 1_555 1_555
O6_3 C12_3 1_555 1_555
O12_2 C12_3 1_555 1_555
C12_3 C13_3 1_555 1_555
C13_3 C14_3 1_555 1_555
C14_3 H8_3 1_555 1_555
C15_3 C14_3 1_555 1_555
H9_3 C15_3 1_555 1_555
C16_3 C15_3 1_555 1_555
H10_3 C16_3 1_555 1_555
C17_3 C16_3 1_555 1_555
C18_3 C13_3 1_555 1_555
H11_3 C18_3 1_555 1_555
C19_3 C17_3 1_555 1_555
C20_3 C11_3 1_555 1_555
C21_3 C20_3 1_555 1_555
C22_3 C9_3 1_555 1_555
H12_3 C22_3 1_555 1_555
O8_2 C21_3 1_555 1_555
O9_3 C21_3 1_555 1_555
Cd7 O6_3 1_555 1_555
O10_3 Cd7 1_555 1_555
H13_3 O10_3 1_555 1_555
H14_3 O10_3 1_555 1_555
Cd3_2 O8_2 1_555 1_555
Cd5_2 O8_2 1_555 1_555
C6_3 C7_3 1_555 1_555
O12_2 Cd7 1_555 1_555
C17_3 C18_3 1_555 1_555
C19_3 C20_3 1_555 1_555
C19_3 C22_3 1_555 1_555
O9_3 Cd5_2 1_555 1_555
Cd3_2 O1_4 1_555 1_555
O1_4 C1_4 1_555 1_555
O2_4 Cd3_2 1_555 1_555
O14_2 C10_4 1_555 1_555
O17_2 C10_4 1_555 1_555
O5_4 Cd3_2 1_555 1_555
H1_4 O5_4 1_555 1_555
H2_4 O5_4 1_555 1_555
C1_4 O2_4 1_555 1_555
C2_4 C1_4 1_555 1_555
C3_4 C2_4 1_555 1_555
H3_4 C3_4 1_555 1_555
C4_4 C3_4 1_555 1_555
H4_4 C4_4 1_555 1_555
C5_4 C4_4 1_555 1_555
H5_4 C5_4 1_555 1_555
C6_4 C5_4 1_555 1_555
C7_4 C2_4 1_555 1_555
H6_4 C7_4 1_555 1_555
C8_4 C6_4 1_555 1_555
C9_4 C8_4 1_555 1_555
C10_4 C9_4 1_555 1_555
C11_4 C8_4 1_555 1_555
H7_4 C11_4 1_555 1_555
H10_4 C16_4 1_555 1_555
C17_4 C16_4 1_555 1_555
H11_4 C18_4 1_555 1_555
C19_4 C17_4 1_555 1_555
C20_4 C11_4 1_555 1_555
C21_4 C20_4 1_555 1_555
C22_4 C9_4 1_555 1_555
H12_4 C22_4 1_555 1_555
O15_2 C21_4 1_555 1_555
O9_4 C21_4 1_555 1_555
Cd5_2 O2_4 1_555 1_555
O11_4 Cd3_2 1_555 1_555
O16_4 Cd3_2 1_555 1_555
O18_4 Cd3_2 1_555 1_555
C6_4 C7_4 1_555 1_555
C17_4 C18_4 1_555 1_555
C19_4 C20_4 1_555 1_555
C19_4 C22_4 1_555 1_555
O9_4 Cd4_2 1_555 1_555
O6_4 C12_4 1_555 1_555
O12 C12_4 1_555 1_555
C12_4 C13_4 1_555 1_555
C13_4 C14_4 1_555 1_555
C14_4 H8_4 1_555 1_555
C15_4 C14_4 1_555 1_555
H9_4 C15_4 1_555 1_555
Cd8 O6_4 1_555 1_555
O10_4 Cd8 1_555 1_555
H13_4 O10_4 1_555 1_555
H14_4 O10_4 1_555 1_555
O12 Cd8 1_555 1_555
Cd5_2 O1_5 1_555 1_555
O1_5 C1_5 1_555 1_555
O11_3 Cd5_2 1_555 1_555
O3_2 C10_5 1_555 1_555
O4_3 C10_5 1_555 1_555
O5_5 Cd5_2 1_555 1_555
H1_5 O5_5 1_555 1_555
H2_5 O5_5 1_555 1_555
C1_5 O11_3 1_555 1_555
C2_5 C1_5 1_555 1_555
C3_5 C2_5 1_555 1_555
H3_5 C3_5 1_555 1_555
C4_5 C3_5 1_555 1_555
H4_5 C4_5 1_555 1_555
C5_5 C4_5 1_555 1_555
H5_5 C5_5 1_555 1_555
C6_5 C5_5 1_555 1_555
C7_5 C2_5 1_555 1_555
H6_5 C7_5 1_555 1_555
C8_5 C6_5 1_555 1_555
C9_5 C8_5 1_555 1_555
C10_5 C9_5 1_555 1_555
C11_5 C8_5 1_555 1_555
H7_5 C11_5 1_555 1_555
Cd8_2 O3_2 1_555 1_555
O16_3 Cd5_2 1_555 1_555
O4_3 Cd8_2 1_555 1_555
C6_5 C7_5 1_555 1_555
O6_5 C12_5 1_555 1_555
O7_3 C12_5 1_555 1_555
C12_5 C13_5 1_555 1_555
C13_5 C14_5 1_555 1_555
C14_5 H8_5 1_555 1_555
C15_5 C14_5 1_555 1_555
H9_5 C15_5 1_555 1_555
C16_5 C15_5 1_555 1_555
H10_5 C16_5 1_555 1_555
C17_5 C16_5 1_555 1_555
C18_5 C13_5 1_555 1_555
H11_5 C18_5 1_555 1_555
C19_5 C17_5 1_555 1_555
C21_5 C20_5 1_555 1_555
H12_5 C22_5 1_555 1_555
O16_4 C21_5 1_555 1_555
O18_4 C21_5 1_555 1_555
Cd2_2 O6_5 1_555 1_555
O10_5 Cd2_2 1_555 1_555
H13_5 O10_5 1_555 1_555
H14_5 O10_5 1_555 1_555
Cd7_2 O7_3 1_555 1_555
O12_3 Cd2_2 1_555 1_555
O13_2 Cd2_2 1_555 1_555
O14_3 Cd2_2 1_555 1_555
O17_3 Cd2_2 1_555 1_555
O7_3 Cd2_2 1_555 1_555
C17_5 C18_5 1_555 1_555
C19_5 C20_5 1_555 1_555
C19_5 C22_5 1_555 1_555
Cd7_2 O13_2 1_555 1_555
O13_2 C10_6 1_555 1_555
O4_4 C10_6 1_555 1_555
H4_6 C4_6 1_555 1_555
C5_6 C4_6 1_555 1_555
H5_6 C5_6 1_555 1_555
C9_6 C8_6 1_555 1_555
C10_6 C9_6 1_555 1_555
O6_6 C12_6 1_555 1_555
O7_4 C12_6 1_555 1_555
C12_6 C13_6 1_555 1_555
C13_6 C14_6 1_555 1_555
C14_6 H8_6 1_555 1_555
C18_6 C13_6 1_555 1_555
H11_6 C18_6 1_555 1_555
C22_6 C9_6 1_555 1_555
H12_6 C22_6 1_555 1_555
Cd8_2 O7_4 1_555 1_555
O4_4 Cd7_2 1_555 1_555
C17_6 C18_6 1_555 1_555
O10_6 Cd6_2 1_555 1_555
H13_6 O10_6 1_555 1_555
H14_6 O10_6 1_555 1_555
O12_4 Cd6_2 1_555 1_555
O14_4 Cd6_2 1_555 1_555
O17_4 Cd6_2 1_555 1_555
O5_6 Cd4_2 1_555 1_555
H1_6 O5_6 1_555 1_555
H2_6 O5_6 1_555 1_555
O1_6 C1_6 1_555 1_555
C1_6 O11_4 1_555 1_555
C2_6 C1_6 1_555 1_555
C3_6 C2_6 1_555 1_555
H3_6 C3_6 1_555 1_555
C7_6 C2_6 1_555 1_555
H6_6 C7_6 1_555 1_555
H7_6 C11_6 1_555 1_555
H9_6 C15_6 1_555 1_555
C16_6 C15_6 1_555 1_555
H10_6 C16_6 1_555 1_555
C20_6 C11_6 1_555 1_555
C21_6 C20_6 1_555 1_555
O16_3 C21_6 1_555 1_555
O18_3 C21_6 1_555 1_555
C6_6 C7_6 1_555 1_555
C19_6 C20_6 1_555 1_555
Cd4 O1_7 1_555 1_555
O1_7 C1_7 1_555 1_555
O11_2 Cd4 1_555 1_555
O14_3 C10_7 1_555 1_555
O17_3 C10_7 1_555 1_555
O5_7 Cd4 1_555 1_555
H1_7 O5_7 1_555 1_555
H2_7 O5_7 1_555 1_555
C1_7 O11_2 1_555 1_555
C2_7 C1_7 1_555 1_555
C3_7 C2_7 1_555 1_555
H3_7 C3_7 1_555 1_555
C4_7 C3_7 1_555 1_555
H4_7 C4_7 1_555 1_555
C5_7 C4_7 1_555 1_555
H5_7 C5_7 1_555 1_555
C6_7 C5_7 1_555 1_555
C7_7 C2_7 1_555 1_555
H6_7 C7_7 1_555 1_555
C8_7 C6_7 1_555 1_555
C9_7 C8_7 1_555 1_555
C10_7 C9_7 1_555 1_555
C11_7 C8_7 1_555 1_555
H7_7 C11_7 1_555 1_555
H10_7 C16_7 1_555 1_555
C17_7 C16_7 1_555 1_555
H11_7 C18_7 1_555 1_555
C19_7 C17_7 1_555 1_555
C20_7 C11_7 1_555 1_555
C21_7 C20_7 1_555 1_555
C22_7 C9_7 1_555 1_555
H12_7 C22_7 1_555 1_555
O16 C21_7 1_555 1_555
O18 C21_7 1_555 1_555
Cd8_2 O14_3 1_555 1_555
C6_7 C7_7 1_555 1_555
C17_7 C18_7 1_555 1_555
C19_7 C20_7 1_555 1_555
C19_7 C22_7 1_555 1_555
O6_7 C12_7 1_555 1_555
O12_4 C12_7 1_555 1_555
C12_7 C13_7 1_555 1_555
C13_7 C14_7 1_555 1_555
C14_7 H8_7 1_555 1_555
C15_7 C14_7 1_555 1_555
H9_7 C15_7 1_555 1_555
Cd7_2 O6_7 1_555 1_555
O10_7 Cd7_2 1_555 1_555
H13_7 O10_7 1_555 1_555
H14_7 O10_7 1_555 1_555
O14_4 Cd7_2 1_555 1_555
O12_4 Cd7_2 1_555 1_555
Cd5 O1_8 1_555 1_555
O1_8 C1_8 1_555 1_555
O11 Cd5 1_555 1_555
O5_8 Cd5 1_555 1_555
H1_8 O5_8 1_555 1_555
H2_8 O5_8 1_555 1_555
C1_8 O11 1_555 1_555
C2_8 C1_8 1_555 1_555
C3_8 C2_8 1_555 1_555
H3_8 C3_8 1_555 1_555
C4_8 C3_8 1_555 1_555
H4_8 C4_8 1_555 1_555
O14_4 C10_8 1_555 1_555
O17_4 C10_8 1_555 1_555
H5_8 C5_8 1_555 1_555
C6_8 C5_8 1_555 1_555
H6_8 C7_8 1_555 1_555
C8_8 C6_8 1_555 1_555
C9_8 C8_8 1_555 1_555
C10_8 C9_8 1_555 1_555
C11_8 C8_8 1_555 1_555
H7_8 C11_8 1_555 1_555
O6_8 C12_8 1_555 1_555
O12_3 C12_8 1_555 1_555
C12_8 C13_8 1_555 1_555
C13_8 C14_8 1_555 1_555
C14_8 H8_8 1_555 1_555
C15_8 C14_8 1_555 1_555
H9_8 C15_8 1_555 1_555
C16_8 C15_8 1_555 1_555
H10_8 C16_8 1_555 1_555
C17_8 C16_8 1_555 1_555
C18_8 C13_8 1_555 1_555
H11_8 C18_8 1_555 1_555
C19_8 C17_8 1_555 1_555
C20_8 C11_8 1_555 1_555
C21_8 C20_8 1_555 1_555
C22_8 C9_8 1_555 1_555
H12_8 C22_8 1_555 1_555
O16_2 C21_8 1_555 1_555
O18_2 C21_8 1_555 1_555
Cd8_2 O6_8 1_555 1_555
O10_8 Cd8_2 1_555 1_555
H13_8 O10_8 1_555 1_555
H14_8 O10_8 1_555 1_555
C6_8 C7_8 1_555 1_555
O12_3 Cd8_2 1_555 1_555
C17_8 C18_8 1_555 1_555
C19_8 C20_8 1_555 1_555
C19_8 C22_8 1_555 1_555

#END
