
###############################################################################
#
# This file contains modified crystal structure data generated from the
# MOF subset of the Cambridge Structural Database (CSD) v543 
# hosted by the Cambridge Crystallographic Data Centre (CCDC).
#
# This work is licensed under the Creative Commons
# Attribution-NonCommercial-ShareAlike 4.0 International License.
# To view a copy of this license, visit
# http://creativecommons.org/licenses/by-nc-sa/4.0/
# or send a letter to
# Creative Commons, PO Box 1866, Mountain View, CA 94042, USA.
#
# CIF created using the CSD Python API on 29 September 2022
# The structure has been converted into the P1 space group
# The structure has a 3D framework
# The original CSD entry WOWMEC is in the monoclinic crystal system
# The framework has been calculated to contain at least 10.0% void space
# The void calculation uses a probe of radius 1.32A, grid spacing 0.4
#
###############################################################################

data_WOWMEC
_chemical_formula_moiety         '(C56 H48 N8 Ni8 O46)n'
_symmetry_cell_setting           triclinic
_symmetry_space_group_name_H-M   'P 1'
_symmetry_Int_Tables_number      1
_space_group_name_Hall           'P 1'
loop_
_symmetry_equiv_pos_site_id
_symmetry_equiv_pos_as_xyz
1 x,y,z
_cell_length_a                   17.826(4)
_cell_length_b                   13.247(3)
_cell_length_c                   11.046(3)
_cell_angle_alpha                90
_cell_angle_beta                 125.771(3)
_cell_angle_gamma                90
_cell_volume                     2116.36
loop_
_atom_site_label
_atom_site_type_symbol
_atom_site_fract_x
_atom_site_fract_y
_atom_site_fract_z
Ni1 Ni 0.429270(12) 0.226238(14) 0.05148(2)
O5 O 0.5000 0.31502(12) 0.2500
H4 H 0.4573(13) 0.3527(16) 0.231(3)
H7 H 0.5427(13) 0.3527(16) 0.269(3)
Ni2 Ni 0.570730(12) 0.226238(14) 0.44852(2)
N2 N 0.64921(9) 0.13662(10) 0.64097(14)
C8 C 0.74163(11) 0.14400(12) 0.73291(18)
H8 H 0.7703 0.1967 0.7191
C9 C 0.79591(11) 0.07620(12) 0.84751(18)
H9 H 0.8595 0.0858 0.9123
C14 C 0.61008(10) 0.05810(12) 0.66043(17)
H10 H 0.5459 0.0533 0.5988
O11 O 0.49773(10) 0.29417(12) 0.52143(17)
H11 H 0.5342(18) 0.324(2) 0.604(2)
H12 H 0.464(2) 0.252(2) 0.526(4)
O12 O 0.52806(8) 0.11885(9) 0.14596(13)
O13 O 0.47194(8) 0.11885(9) 0.35404(13)
O14 O 0.64415(7) 0.15817(9) 0.38260(12)
O15 O 0.35585(7) 0.15817(9) 0.11740(12)
O16 O 0.66580(8) 0.33933(8) 0.56370(12)
N1 N 0.35079(9) 0.13662(10) 0.85903(14)
C1 C 0.25837(11) 0.14400(12) 0.76709(18)
H1 H 0.2297 0.1967 0.7809
C2 C 0.20409(11) 0.07620(12) 0.65249(18)
H2 H 0.1405 0.0858 0.5877
C7 C 0.38992(10) 0.05810(12) 0.83957(17)
H3 H 0.4541 0.0533 0.9012
O6 O 0.50227(10) 0.29417(12) 0.97857(17)
H5 H 0.4658(18) 0.324(2) 0.896(2)
H6 H 0.536(2) 0.252(2) 0.974(4)
O17 O 0.33420(8) 0.33933(8) 0.93630(12)
O9 O 0.85614(8) 0.93968(9) 0.11759(12)
Ni3 Ni 0.929270(12) 0.726238(14) 0.05148(2)
O7 O 0.52806(8) 0.88115(9) 0.64596(13)
O8 O 0.64415(7) 0.84183(9) 0.88260(12)
O10 O 0.83420(8) 0.83933(8) 0.93630(12)
C10 C 0.75511(10) 0.99355(11) 0.86558(16)
C11 C 0.81879(10) 0.91722(11) 0.98419(17)
C12 C 0.65944(10) 0.98313(11) 0.76731(16)
C13 C 0.60639(10) 0.89392(11) 0.76650(17)
Ni6 Ni 0.570730(12) 0.773762(14) 0.94852(2)
Ni8 Ni 0.429270(12) 0.773762(14) 0.55148(2)
O1 O 0.47194(8) 0.88115(9) 0.85404(13)
O2 O 0.35585(7) 0.84183(9) 0.61740(12)
O3 O 0.14386(8) 0.93968(9) 0.38241(12)
O4 O 0.16580(8) 0.83933(8) 0.56370(12)
C3 C 0.24489(10) 0.99355(11) 0.63442(16)
C4 C 0.18121(10) 0.91722(11) 0.51581(17)
C5 C 0.34056(10) 0.98313(11) 0.73269(16)
C6 C 0.39361(10) 0.89392(11) 0.73350(17)
Ni4 Ni 0.070730(12) 0.726238(14) 0.44852(2)
O9_2 O 0.35614(8) 0.43968(9) 0.11759(12)
O5_2 O 0.0000 0.81502(12) 0.2500
H7_2 H 0.0427(13) 0.8527(16) 0.269(3)
O7_2 O 0.02806(8) 0.38115(9) 0.64596(13)
O8_2 O 0.14415(7) 0.34183(9) 0.88260(12)
N2_2 N 0.14921(9) 0.63662(10) 0.64097(14)
C8_2 C 0.24163(11) 0.64400(12) 0.73291(18)
H8_2 H 0.2703 0.6967 0.7191
C9_2 C 0.29591(11) 0.57620(12) 0.84751(18)
H9_2 H 0.3595 0.5858 0.9123
C10_2 C 0.25511(10) 0.49355(11) 0.86558(16)
C11_2 C 0.31879(10) 0.41722(11) 0.98419(17)
C12_2 C 0.15944(10) 0.48313(11) 0.76731(16)
C13_2 C 0.10639(10) 0.39392(11) 0.76650(17)
C14_2 C 0.11008(10) 0.55810(12) 0.66043(17)
H10_2 H 0.0459 0.5533 0.5988
H11_2 H 0.0342(18) 0.824(2) 0.604(2)
Ni6_2 Ni 0.070730(12) 0.273762(14) 0.94852(2)
O12_2 O 0.02806(8) 0.61885(9) 0.14596(13)
O14_2 O 0.14415(7) 0.65817(9) 0.38260(12)
O6_2 O 0.00227(10) 0.79417(12) 0.97857(17)
H6_2 H 0.036(2) 0.752(2) 0.974(4)
O5_3 O 1.0000 0.81502(12) 0.2500
H4_2 H 0.9573(13) 0.8527(16) 0.231(3)
O11_2 O 0.99773(10) 0.79417(12) 0.52143(17)
H12_2 H 0.964(2) 0.752(2) 0.526(4)
Ni8_2 Ni 0.929270(12) 0.273762(14) 0.55148(2)
O13_2 O 0.97194(8) 0.61885(9) 0.35404(13)
O15_2 O 0.85585(7) 0.65817(9) 0.11740(12)
O1_2 O 0.97194(8) 0.38115(9) 0.85404(13)
O2_2 O 0.85585(7) 0.34183(9) 0.61740(12)
O3_2 O 0.64386(8) 0.43968(9) 0.38241(12)
N1_2 N 0.85079(9) 0.63662(10) 0.85903(14)
C1_2 C 0.75837(11) 0.64400(12) 0.76709(18)
H1_2 H 0.7297 0.6967 0.7809
C2_2 C 0.70409(11) 0.57620(12) 0.65249(18)
H2_2 H 0.6405 0.5858 0.5877
C3_2 C 0.74489(10) 0.49355(11) 0.63442(16)
C4_2 C 0.68121(10) 0.41722(11) 0.51581(17)
C5_2 C 0.84056(10) 0.48313(11) 0.73269(16)
C6_2 C 0.89361(10) 0.39392(11) 0.73350(17)
C7_2 C 0.88992(10) 0.55810(12) 0.83957(17)
H3_2 H 0.9541 0.5533 0.9012
H5_2 H 0.9658(18) 0.824(2) 0.896(2)
O3_3 O 0.85614(8) 0.06032(9) 0.61759(12)
O4_2 O 0.83420(8) 0.16067(8) 0.43630(12)
C3_3 C 0.75511(10) 0.00645(11) 0.36558(16)
C4_3 C 0.81879(10) 0.08278(11) 0.48419(17)
C5_3 C 0.65944(10) 0.01687(11) 0.26731(16)
C6_3 C 0.60639(10) 0.10608(11) 0.26650(17)
O10_2 O 0.16580(8) 0.16067(8) 0.06370(12)
C10_3 C 0.24489(10) 0.00645(11) 0.13442(16)
C11_3 C 0.18121(10) 0.08278(11) 0.01581(17)
C12_3 C 0.34056(10) 0.01687(11) 0.23269(16)
C13_3 C 0.39361(10) 0.10608(11) 0.23350(17)
O9_3 O 0.14386(8) 0.06032(9) 0.88241(12)
N1_3 N 0.64921(9) 0.86338(10) 0.14097(14)
C1_3 C 0.74163(11) 0.85600(12) 0.23291(18)
H1_3 H 0.7703 0.8033 0.2191
C2_3 C 0.79591(11) 0.92380(12) 0.34751(18)
H2_3 H 0.8595 0.9142 0.4123
C7_3 C 0.61008(10) 0.94190(12) 0.16043(17)
H3_3 H 0.5459 0.9467 0.0988
O6_3 O 0.49773(10) 0.70583(12) 0.02143(17)
H5_3 H 0.5342(18) 0.676(2) 0.104(2)
H6_3 H 0.464(2) 0.748(2) 0.026(4)
O17_2 O 0.66580(8) 0.66067(8) 0.06370(12)
O5_4 O 0.5000 0.68498(12) 0.7500
H4_3 H 0.5427(13) 0.6473(16) 0.769(3)
H7_3 H 0.4573(13) 0.6473(16) 0.731(3)
N2_3 N 0.35079(9) 0.86338(10) 0.35903(14)
C8_3 C 0.25837(11) 0.85600(12) 0.26709(18)
H8_3 H 0.2297 0.8033 0.2809
C9_3 C 0.20409(11) 0.92380(12) 0.15249(18)
H9_3 H 0.1405 0.9142 0.0877
C14_3 C 0.38992(10) 0.94190(12) 0.33957(17)
H10_3 H 0.4541 0.9467 0.4012
O11_3 O 0.50227(10) 0.70583(12) 0.47857(17)
H11_3 H 0.4658(18) 0.676(2) 0.396(2)
H12_3 H 0.536(2) 0.748(2) 0.474(4)
O16_2 O 0.33420(8) 0.66067(8) 0.43630(12)
O3_4 O 0.35614(8) 0.56032(9) 0.61759(12)
N1_4 N 0.14921(9) 0.36338(10) 0.14097(14)
C1_4 C 0.24163(11) 0.35600(12) 0.23291(18)
H1_4 H 0.2703 0.3033 0.2191
C2_4 C 0.29591(11) 0.42380(12) 0.34751(18)
H2_4 H 0.3595 0.4142 0.4123
C3_4 C 0.25511(10) 0.50645(11) 0.36558(16)
C4_4 C 0.31879(10) 0.58278(11) 0.48419(17)
C5_4 C 0.15944(10) 0.51687(11) 0.26731(16)
C6_4 C 0.10639(10) 0.60608(11) 0.26650(17)
C7_4 C 0.11008(10) 0.44190(12) 0.16043(17)
H3_4 H 0.0459 0.4467 0.0988
H5_4 H 0.0342(18) 0.176(2) 0.104(2)
O5_5 O 0.0000 0.18498(12) 0.7500
H4_4 H 0.0427(13) 0.1473(16) 0.769(3)
O11_4 O 0.00227(10) 0.20583(12) 0.47857(17)
H12_4 H 0.036(2) 0.248(2) 0.474(4)
O6_4 O 0.99773(10) 0.20583(12) 0.02143(17)
H6_4 H 0.964(2) 0.248(2) 0.026(4)
O5_6 O 1.0000 0.18498(12) 0.7500
H7_4 H 0.9573(13) 0.1473(16) 0.731(3)
N2_4 N 0.85079(9) 0.36338(10) 0.35903(14)
C8_4 C 0.75837(11) 0.35600(12) 0.26709(18)
H8_4 H 0.7297 0.3033 0.2809
C9_4 C 0.70409(11) 0.42380(12) 0.15249(18)
H9_4 H 0.6405 0.4142 0.0877
C10_4 C 0.74489(10) 0.50645(11) 0.13442(16)
C11_4 C 0.68121(10) 0.58278(11) 0.01581(17)
C12_4 C 0.84056(10) 0.51687(11) 0.23269(16)
C13_4 C 0.89361(10) 0.60608(11) 0.23350(17)
C14_4 C 0.88992(10) 0.44190(12) 0.33957(17)
H10_4 H 0.9541 0.4467 0.4012
H11_4 H 0.9658(18) 0.176(2) 0.396(2)
O9_4 O 0.64386(8) 0.56032(9) 0.88241(12)
loop_
_geom_bond_atom_site_label_1
_geom_bond_atom_site_label_2
_geom_bond_site_symmetry_1
_geom_bond_site_symmetry_2
O5 Ni1 1_555 1_555
H4 O5 1_555 1_555
H7 O5 1_555 1_555
Ni2 O5 1_555 1_555
N2 Ni2 1_555 1_555
C8 N2 1_555 1_555
H8 C8 1_555 1_555
C9 C8 1_555 1_555
H9 C9 1_555 1_555
C14 N2 1_555 1_555
H10 C14 1_555 1_555
O11 Ni2 1_555 1_555
H11 O11 1_555 1_555
H12 O11 1_555 1_555
O12 Ni1 1_555 1_555
O13 Ni2 1_555 1_555
O14 Ni2 1_555 1_555
O15 Ni1 1_555 1_555
O16 Ni2 1_555 1_555
N1 C1 1_555 1_555
C1 H1 1_555 1_555
C2 C1 1_555 1_555
H2 C2 1_555 1_555
C7 N1 1_555 1_555
H3 C7 1_555 1_555
H5 O6 1_555 1_555
H6 O6 1_555 1_555
O7 C13 1_555 1_555
O8 C13 1_555 1_555
O10 C11 1_555 1_555
C11 C10 1_555 1_555
C12 C10 1_555 1_555
C13 C12 1_555 1_555
Ni6 O8 1_555 1_555
Ni8 O7 1_555 1_555
O1 C6 1_555 1_555
O2 C6 1_555 1_555
O3 C4 1_555 1_555
O4 C4 1_555 1_555
C4 C3 1_555 1_555
C5 C3 1_555 1_555
C6 C5 1_555 1_555
Ni4 O4 1_555 1_555
Ni6 O1 1_555 1_555
Ni8 O2 1_555 1_555
H7_2 O5_2 1_555 1_555
Ni4 O5_2 1_555 1_555
O7_2 C13_2 1_555 1_555
O8_2 C13_2 1_555 1_555
O17 C11_2 1_555 1_555
N2_2 Ni4 1_555 1_555
C8_2 N2_2 1_555 1_555
H8_2 C8_2 1_555 1_555
C9_2 C8_2 1_555 1_555
H9_2 C9_2 1_555 1_555
C10_2 C9_2 1_555 1_555
C11_2 C10_2 1_555 1_555
C12_2 C10_2 1_555 1_555
C13_2 C12_2 1_555 1_555
C14_2 N2_2 1_555 1_555
H10_2 C14_2 1_555 1_555
Ni6_2 O8_2 1_555 1_555
O14_2 Ni4 1_555 1_555
C12_2 C14_2 1_555 1_555
H6_2 O6_2 1_555 1_555
O5_3 Ni3 1_555 1_555
H4_2 O5_3 1_555 1_555
H12_2 O11_2 1_555 1_555
O15_2 Ni3 1_555 1_555
O1_2 C6_2 1_555 1_555
O2_2 C6_2 1_555 1_555
O3_2 C4_2 1_555 1_555
O16 C4_2 1_555 1_555
N1_2 C1_2 1_555 1_555
C1_2 H1_2 1_555 1_555
C2_2 C1_2 1_555 1_555
H2_2 C2_2 1_555 1_555
C3_2 C2_2 1_555 1_555
C4_2 C3_2 1_555 1_555
C5_2 C3_2 1_555 1_555
C6_2 C5_2 1_555 1_555
C7_2 N1_2 1_555 1_555
H3_2 C7_2 1_555 1_555
Ni8_2 O2_2 1_555 1_555
C5_2 C7_2 1_555 1_555
O12 C6_3 1_555 1_555
O14 C6_3 1_555 1_555
O3_3 C4_3 1_555 1_555
O4_2 C4_3 1_555 1_555
C4_3 C3_3 1_555 1_555
C5_3 C3_3 1_555 1_555
C6_3 C5_3 1_555 1_555
Ni8_2 O4_2 1_555 1_555
O13 C13_3 1_555 1_555
O15 C13_3 1_555 1_555
O10_2 C11_3 1_555 1_555
C11_3 C10_3 1_555 1_555
C12_3 C10_3 1_555 1_555
C13_3 C12_3 1_555 1_555
N1_3 C1_3 1_555 1_555
C1_3 H1_3 1_555 1_555
C2_3 C1_3 1_555 1_555
H2_3 C2_3 1_555 1_555
C7_3 N1_3 1_555 1_555
H3_3 C7_3 1_555 1_555
H5_3 O6_3 1_555 1_555
H6_3 O6_3 1_555 1_555
O5_4 Ni6 1_555 1_555
H4_3 O5_4 1_555 1_555
H7_3 O5_4 1_555 1_555
Ni8 O5_4 1_555 1_555
N2_3 Ni8 1_555 1_555
C8_3 N2_3 1_555 1_555
H8_3 C8_3 1_555 1_555
C9_3 C8_3 1_555 1_555
H9_3 C9_3 1_555 1_555
C14_3 N2_3 1_555 1_555
H10_3 C14_3 1_555 1_555
O11_3 Ni8 1_555 1_555
H11_3 O11_3 1_555 1_555
H12_3 O11_3 1_555 1_555
O16_2 Ni8 1_555 1_555
O12_2 C6_4 1_555 1_555
O14_2 C6_4 1_555 1_555
O3_4 C4_4 1_555 1_555
O16_2 C4_4 1_555 1_555
N1_4 C1_4 1_555 1_555
C1_4 H1_4 1_555 1_555
C2_4 C1_4 1_555 1_555
H2_4 C2_4 1_555 1_555
C3_4 C2_4 1_555 1_555
C4_4 C3_4 1_555 1_555
C5_4 C3_4 1_555 1_555
C6_4 C5_4 1_555 1_555
C7_4 N1_4 1_555 1_555
H3_4 C7_4 1_555 1_555
C5_4 C7_4 1_555 1_555
O5_5 Ni6_2 1_555 1_555
H4_4 O5_5 1_555 1_555
H12_4 O11_4 1_555 1_555
H6_4 O6_4 1_555 1_555
H7_4 O5_6 1_555 1_555
Ni8_2 O5_6 1_555 1_555
O13_2 C13_4 1_555 1_555
O15_2 C13_4 1_555 1_555
O17_2 C11_4 1_555 1_555
N2_4 Ni8_2 1_555 1_555
C8_4 N2_4 1_555 1_555
H8_4 C8_4 1_555 1_555
C9_4 C8_4 1_555 1_555
H9_4 C9_4 1_555 1_555
C10_4 C9_4 1_555 1_555
C11_4 C10_4 1_555 1_555
C12_4 C10_4 1_555 1_555
C13_4 C12_4 1_555 1_555
C14_4 N2_4 1_555 1_555
H10_4 C14_4 1_555 1_555
C12_4 C14_4 1_555 1_555

#END
