
###############################################################################
#
# This file contains modified crystal structure data generated from the
# MOF subset of the Cambridge Structural Database (CSD) v543 
# hosted by the Cambridge Crystallographic Data Centre (CCDC).
#
# This work is licensed under the Creative Commons
# Attribution-NonCommercial-ShareAlike 4.0 International License.
# To view a copy of this license, visit
# http://creativecommons.org/licenses/by-nc-sa/4.0/
# or send a letter to
# Creative Commons, PO Box 1866, Mountain View, CA 94042, USA.
#
# CIF created using the CSD Python API on 29 September 2022
# The structure has been converted into the P1 space group
# The structure has a 3D framework
# The original CSD entry WOWNED is in the monoclinic crystal system
# The framework has been calculated to contain at least 10.0% void space
# The void calculation uses a probe of radius 1.32A, grid spacing 0.4
#
###############################################################################

data_WOWNED
_chemical_formula_moiety         '(C136 H88 N40 Ni6 O32 S8)n'
_symmetry_cell_setting           triclinic
_symmetry_space_group_name_H-M   'P 1'
_symmetry_Int_Tables_number      1
_space_group_name_Hall           'P 1'
loop_
_symmetry_equiv_pos_site_id
_symmetry_equiv_pos_as_xyz
1 x,y,z
_cell_length_a                   24.6326(16)
_cell_length_b                   13.8299(6)
_cell_length_c                   12.7662(8)
_cell_angle_alpha                90
_cell_angle_beta                 107.784(4)
_cell_angle_gamma                90
_cell_volume                     4141.2
loop_
_atom_site_label
_atom_site_type_symbol
_atom_site_fract_x
_atom_site_fract_y
_atom_site_fract_z
S1 S 0.01152(3) 0.18302(4) 0.61515(5)
N4 N 0.12485(8) 0.22357(15) 0.69054(15)
N5 N 0.19506(8) 0.32060(14) 0.77878(15)
C11 C 0.03738(9) 0.00310(17) 0.65089(18)
C12 C 0.08988(10) 0.05418(18) 0.68383(18)
H7 H 0.1253 0.0246 0.7117
C13 C 0.08253(10) 0.15031(18) 0.67004(17)
C14 C 0.16100(10) 0.25072(17) 0.78923(17)
H8 H 0.1616 0.2233 0.8561
C15 C 0.17989(14) 0.3390(2) 0.6677(2)
H9 H 0.1970 0.3851 0.6350
C16 C 0.13650(14) 0.2804(3) 0.6127(2)
H10 H 0.1183 0.2791 0.5372
Ni4 Ni 0.265777(11) 0.384509(18) 0.89511(2)
Ni1 Ni 0.765777(11) 0.115491(18) 0.39511(2)
N2 N 0.84092(8) 0.05368(13) 0.50052(15)
N3 N 0.93389(7) 0.03790(13) 0.57499(14)
C10 C 0.99228(9) 0.06274(16) 0.61277(17)
C17 C 0.89062(10) 0.09748(16) 0.52281(18)
H11 H 0.8953 0.1614 0.5049
O5 O 0.81019(7) 0.12814(11) 0.27932(13)
O6 O 0.80040(6) 0.24834(10) 0.45758(11)
O7 O 0.73066(7) 0.10302(10) 0.52508(12)
N6 N 0.69506(8) 0.17940(14) 0.27878(15)
O1 O 0.68981(7) 0.62814(11) 0.22068(13)
O2 O 0.60668(8) 0.70414(14) 0.19299(19)
O3 O 0.69960(6) 0.74834(10) 0.04242(11)
O4 O 0.73066(7) 0.89698(10) 0.02508(12)
N1 N 0.73642(8) 0.97761(13) 0.33679(14)
C1 C 0.71545(9) 0.83164(14) 0.07824(16)
C2 C 0.71460(9) 0.85703(15) 0.19308(16)
C3 C 0.73860(9) 0.94431(15) 0.23966(17)
H1 H 0.7573 0.9817 0.2008
C4 C 0.71095(12) 0.92108(17) 0.39314(19)
H2 H 0.7084 0.9432 0.4603
C5 C 0.68856(12) 0.83261(18) 0.3564(2)
H3 H 0.6727 0.7950 0.3999
C6 C 0.68921(10) 0.79819(15) 0.25421(18)
C7 C 0.65947(10) 0.70205(16) 0.21751(18)
C8 C 0.85301(10) 0.96133(17) 0.54104(19)
H4 H 0.8260 0.9134 0.5373
C9 C 0.90994(10) 0.95026(17) 0.58715(19)
H5 H 0.9290 0.8948 0.6203
Ni2 Ni 0.734223(11) 0.615491(18) 0.10489(2)
Ni3 Ni 0.765777(11) 0.884509(18) 0.89511(2)
Ni1_2 Ni 0.234223(11) 0.115491(18) 0.10489(2)
O5_2 O 0.18981(7) 0.12814(11) 0.22068(13)
O6_2 O 0.19960(6) 0.24834(10) 0.04242(11)
N6_2 N 0.30494(8) 0.17940(14) 0.22122(15)
N2_2 N 0.15908(8) 0.05368(13) 0.99948(15)
N3_2 N 0.06611(7) 0.03790(13) 0.92501(14)
C10_2 C 0.00772(9) 0.06274(16) 0.88723(17)
C17_2 C 0.10938(10) 0.09748(16) 0.97719(18)
H11_2 H 0.1047 0.1614 0.9951
O7_2 O 0.26934(7) 0.10302(10) 0.97492(12)
O1_2 O 0.31019(7) 0.62814(11) 0.27932(13)
O2_2 O 0.39332(8) 0.70414(14) 0.30701(19)
O3_2 O 0.30040(6) 0.74834(10) 0.45758(11)
O4_2 O 0.26934(7) 0.89698(10) 0.47492(12)
N1_2 N 0.26358(8) 0.97761(13) 0.16321(14)
C1_2 C 0.28455(9) 0.83164(14) 0.42176(16)
C2_2 C 0.28540(9) 0.85703(15) 0.30692(16)
C3_2 C 0.26140(9) 0.94431(15) 0.26034(17)
H1_2 H 0.2427 0.9817 0.2992
C4_2 C 0.28905(12) 0.92108(17) 0.10686(19)
H2_2 H 0.2916 0.9432 0.0397
C5_2 C 0.31144(12) 0.83261(18) 0.1436(2)
H3_2 H 0.3273 0.7950 0.1001
C6_2 C 0.31079(10) 0.79819(15) 0.24579(18)
C7_2 C 0.34053(10) 0.70205(16) 0.28249(18)
Ni2_2 Ni 0.265777(11) 0.615491(18) 0.39511(2)
Ni3_2 Ni 0.234223(11) 0.884509(18) 0.60489(2)
S1_2 S 0.98848(3) 0.18302(4) 0.88485(5)
N4_2 N 0.87515(8) 0.22357(15) 0.80946(15)
N5_2 N 0.80494(8) 0.32060(14) 0.72122(15)
C11_2 C 0.96262(9) 0.00310(17) 0.84911(18)
C12_2 C 0.91012(10) 0.05418(18) 0.81617(18)
H7_2 H 0.8747 0.0246 0.7883
C13_2 C 0.91747(10) 0.15031(18) 0.82996(17)
C14_2 C 0.83900(10) 0.25072(17) 0.71077(17)
H8_2 H 0.8384 0.2233 0.6439
C15_2 C 0.82011(14) 0.3390(2) 0.8323(2)
H9_2 H 0.8030 0.3851 0.8650
C16_2 C 0.86350(14) 0.2804(3) 0.8873(2)
H10_2 H 0.8817 0.2791 0.9628
Ni4_2 Ni 0.734223(11) 0.384509(18) 0.60489(2)
S1_3 S 0.51152(3) 0.68302(4) 0.61515(5)
O2_3 O 0.10668(8) 0.20414(14) 0.19299(19)
O4_3 O 0.23066(7) 0.39698(10) 0.02508(12)
N1_3 N 0.23642(8) 0.47761(13) 0.33679(14)
N2_3 N 0.34092(8) 0.55368(13) 0.50052(15)
N3_3 N 0.43389(7) 0.53790(13) 0.57499(14)
N4_3 N 0.62485(8) 0.72357(15) 0.69054(15)
N5_3 N 0.69506(8) 0.82060(14) 0.77878(15)
C1_3 C 0.21545(9) 0.33164(14) 0.07824(16)
C2_3 C 0.21460(9) 0.35703(15) 0.19308(16)
C3_3 C 0.23860(9) 0.44431(15) 0.23966(17)
H1_3 H 0.2573 0.4817 0.2008
C4_3 C 0.21095(12) 0.42108(17) 0.39314(19)
H2_3 H 0.2084 0.4432 0.4603
C5_3 C 0.18856(12) 0.33261(18) 0.3564(2)
H3_3 H 0.1727 0.2950 0.3999
C6_3 C 0.18921(10) 0.29819(15) 0.25421(18)
C7_3 C 0.15947(10) 0.20205(16) 0.21751(18)
C8_2 C 0.35301(10) 0.46133(17) 0.54104(19)
H4_2 H 0.3260 0.4134 0.5373
C9_2 C 0.40994(10) 0.45026(17) 0.58715(19)
H5_2 H 0.4290 0.3948 0.6203
C10_3 C 0.49228(9) 0.56274(16) 0.61277(17)
C11_3 C 0.53738(9) 0.50310(17) 0.65089(18)
H6 H 0.5344 0.4363 0.6551
C12_3 C 0.58988(10) 0.55418(18) 0.68383(18)
H7_3 H 0.6253 0.5246 0.7117
C13_3 C 0.58253(10) 0.65031(18) 0.67004(17)
C14_3 C 0.66100(10) 0.75072(17) 0.78923(17)
H8_3 H 0.6616 0.7233 0.8561
C15_3 C 0.67989(14) 0.8390(2) 0.6677(2)
H9_3 H 0.6970 0.8851 0.6350
C16_3 C 0.63650(14) 0.7804(3) 0.6127(2)
H10_3 H 0.6183 0.7791 0.5372
C17_3 C 0.39062(10) 0.59748(16) 0.52281(18)
H11_3 H 0.3953 0.6614 0.5049
O7_3 O 0.23066(7) 0.60302(10) 0.52508(12)
N6_3 N 0.19506(8) 0.67940(14) 0.27878(15)
O2_4 O 0.89332(8) 0.20414(14) 0.30701(19)
O4_4 O 0.76934(7) 0.39698(10) 0.47492(12)
N1_4 N 0.76358(8) 0.47761(13) 0.16321(14)
C1_4 C 0.78455(9) 0.33164(14) 0.42176(16)
C2_4 C 0.78540(9) 0.35703(15) 0.30692(16)
C3_4 C 0.76140(9) 0.44431(15) 0.26034(17)
H1_4 H 0.7427 0.4817 0.2992
C4_4 C 0.78905(12) 0.42108(17) 0.10686(19)
H2_4 H 0.7916 0.4432 0.0397
C5_4 C 0.81144(12) 0.33261(18) 0.1436(2)
H3_4 H 0.8273 0.2950 0.1001
C6_4 C 0.81079(10) 0.29819(15) 0.24579(18)
C7_4 C 0.84053(10) 0.20205(16) 0.28249(18)
N6_4 N 0.80494(8) 0.67940(14) 0.22122(15)
S1_4 S 0.48848(3) 0.68302(4) 0.88485(5)
N2_4 N 0.65908(8) 0.55368(13) 0.99948(15)
N3_4 N 0.56611(7) 0.53790(13) 0.92501(14)
N4_4 N 0.37515(8) 0.72357(15) 0.80946(15)
N5_4 N 0.30494(8) 0.82060(14) 0.72122(15)
C8_3 C 0.64699(10) 0.46133(17) 0.95896(19)
H4_3 H 0.6740 0.4134 0.9627
C9_3 C 0.59006(10) 0.45026(17) 0.91285(19)
H5_3 H 0.5710 0.3948 0.8797
C10_4 C 0.50772(9) 0.56274(16) 0.88723(17)
C11_4 C 0.46262(9) 0.50310(17) 0.84911(18)
H6_2 H 0.4656 0.4363 0.8449
C12_4 C 0.41012(10) 0.55418(18) 0.81617(18)
H7_4 H 0.3747 0.5246 0.7883
C13_4 C 0.41747(10) 0.65031(18) 0.82996(17)
C14_4 C 0.33900(10) 0.75072(17) 0.71077(17)
H8_4 H 0.3384 0.7233 0.6439
C15_4 C 0.32011(14) 0.8390(2) 0.8323(2)
H9_4 H 0.3030 0.8851 0.8650
C16_4 C 0.36350(14) 0.7804(3) 0.8873(2)
H10_4 H 0.3817 0.7791 0.9628
C17_4 C 0.60938(10) 0.59748(16) 0.97719(18)
H11_4 H 0.6047 0.6614 0.9951
O7_4 O 0.76934(7) 0.60302(10) 0.97492(12)
O1_3 O 0.31019(7) 0.37186(11) 0.77932(13)
O2_5 O 0.39332(8) 0.29586(14) 0.80701(19)
O3_3 O 0.30040(6) 0.25166(10) 0.95758(11)
N1_5 N 0.26358(8) 0.02239(13) 0.66321(14)
C1_5 C 0.28455(9) 0.16836(14) 0.92176(16)
C2_5 C 0.28540(9) 0.14297(15) 0.80692(16)
C3_5 C 0.26140(9) 0.05569(15) 0.76034(17)
H1_5 H 0.2427 0.0183 0.7992
C4_5 C 0.28905(12) 0.07892(17) 0.60686(19)
H2_5 H 0.2916 0.0568 0.5397
C5_5 C 0.31144(12) 0.16739(18) 0.6436(2)
H3_5 H 0.3273 0.2050 0.6001
C6_5 C 0.31079(10) 0.20181(15) 0.74579(18)
C7_5 C 0.34053(10) 0.29795(16) 0.78249(18)
C8_4 C 0.14699(10) 0.03867(17) 0.45896(19)
H4_4 H 0.1740 0.0866 0.4627
C9_4 C 0.09006(10) 0.04974(17) 0.41285(19)
H5_4 H 0.0710 0.1052 0.3797
N2_5 N 0.15908(8) 0.94632(13) 0.49948(15)
N3_5 N 0.06611(7) 0.96210(13) 0.42501(14)
C10_5 C 0.00772(9) 0.93726(16) 0.38723(17)
C17_5 C 0.10938(10) 0.90252(16) 0.47719(18)
H11_5 H 0.1047 0.8386 0.4951
O5_3 O 0.18981(7) 0.87186(11) 0.72068(13)
O6_3 O 0.19960(6) 0.75166(10) 0.54242(11)
S1_5 S 0.98848(3) 0.81698(4) 0.38485(5)
N4_5 N 0.87515(8) 0.77643(15) 0.30946(15)
C11_5 C 0.96262(9) 0.99690(17) 0.34911(18)
C12_5 C 0.91012(10) 0.94582(18) 0.31617(18)
H7_5 H 0.8747 0.9754 0.2883
C13_5 C 0.91747(10) 0.84969(18) 0.32996(17)
C14_5 C 0.83900(10) 0.74928(17) 0.21077(17)
H8_5 H 0.8384 0.7767 0.1439
C15_5 C 0.82011(14) 0.6610(2) 0.3323(2)
H9_5 H 0.8030 0.6149 0.3650
C16_5 C 0.86350(14) 0.7196(3) 0.3873(2)
H10_5 H 0.8817 0.7209 0.4628
S1_6 S 0.01152(3) 0.81698(4) 0.11515(5)
N4_6 N 0.12485(8) 0.77643(15) 0.19054(15)
C11_6 C 0.03738(9) 0.99690(17) 0.15089(18)
C12_6 C 0.08988(10) 0.94582(18) 0.18383(18)
H7_6 H 0.1253 0.9754 0.2117
C13_6 C 0.08253(10) 0.84969(18) 0.17004(17)
C14_6 C 0.16100(10) 0.74928(17) 0.28923(17)
H8_6 H 0.1616 0.7767 0.3561
C15_6 C 0.17989(14) 0.6610(2) 0.1677(2)
H9_6 H 0.1970 0.6149 0.1350
C16_6 C 0.13650(14) 0.7196(3) 0.1127(2)
H10_6 H 0.1183 0.7209 0.0372
O1_4 O 0.68981(7) 0.37186(11) 0.72068(13)
O2_6 O 0.60668(8) 0.29586(14) 0.69299(19)
O3_4 O 0.69960(6) 0.25166(10) 0.54242(11)
N1_6 N 0.73642(8) 0.02239(13) 0.83679(14)
C1_6 C 0.71545(9) 0.16836(14) 0.57824(16)
C2_6 C 0.71460(9) 0.14297(15) 0.69308(16)
C3_6 C 0.73860(9) 0.05569(15) 0.73966(17)
H1_6 H 0.7573 0.0183 0.7008
C4_6 C 0.71095(12) 0.07892(17) 0.89314(19)
H2_6 H 0.7084 0.0568 0.9603
C5_6 C 0.68856(12) 0.16739(18) 0.8564(2)
H3_6 H 0.6727 0.2050 0.8999
C6_6 C 0.68921(10) 0.20181(15) 0.75421(18)
C7_6 C 0.65947(10) 0.29795(16) 0.71751(18)
N2_6 N 0.84092(8) 0.94632(13) 0.00052(15)
N3_6 N 0.93389(7) 0.96210(13) 0.07499(14)
C10_6 C 0.99228(9) 0.93726(16) 0.11277(17)
C17_6 C 0.89062(10) 0.90252(16) 0.02281(18)
H11_6 H 0.8953 0.8386 0.0049
O5_4 O 0.81019(7) 0.87186(11) 0.77932(13)
O6_4 O 0.80040(6) 0.75166(10) 0.95758(11)
S1_7 S 0.48848(3) 0.31698(4) 0.38485(5)
O2_7 O 0.89332(8) 0.79586(14) 0.80701(19)
N1_7 N 0.76358(8) 0.52239(13) 0.66321(14)
N2_7 N 0.65908(8) 0.44632(13) 0.49948(15)
N3_7 N 0.56611(7) 0.46210(13) 0.42501(14)
N4_7 N 0.37515(8) 0.27643(15) 0.30946(15)
C1_7 C 0.78455(9) 0.66836(14) 0.92176(16)
C2_7 C 0.78540(9) 0.64297(15) 0.80692(16)
C3_7 C 0.76140(9) 0.55569(15) 0.76034(17)
H1_7 H 0.7427 0.5183 0.7992
C4_7 C 0.78905(12) 0.57892(17) 0.60686(19)
H2_7 H 0.7916 0.5568 0.5397
C5_7 C 0.81144(12) 0.66739(18) 0.6436(2)
H3_7 H 0.8273 0.7050 0.6001
C6_7 C 0.81079(10) 0.70181(15) 0.74579(18)
C7_7 C 0.84053(10) 0.79795(16) 0.78249(18)
C8_5 C 0.64699(10) 0.53867(17) 0.45896(19)
H4_5 H 0.6740 0.5866 0.4627
C9_5 C 0.59006(10) 0.54974(17) 0.41285(19)
H5_5 H 0.5710 0.6052 0.3797
C10_7 C 0.50772(9) 0.43726(16) 0.38723(17)
C11_7 C 0.46262(9) 0.49690(17) 0.34911(18)
H6_3 H 0.4656 0.5637 0.3449
C12_7 C 0.41012(10) 0.44582(18) 0.31617(18)
H7_7 H 0.3747 0.4754 0.2883
C13_7 C 0.41747(10) 0.34969(18) 0.32996(17)
C14_7 C 0.33900(10) 0.24928(17) 0.21077(17)
H8_7 H 0.3384 0.2767 0.1439
C15_7 C 0.32011(14) 0.1610(2) 0.3323(2)
H9_7 H 0.3030 0.1149 0.3650
C16_7 C 0.36350(14) 0.2196(3) 0.3873(2)
H10_7 H 0.3817 0.2209 0.4628
C17_7 C 0.60938(10) 0.40252(16) 0.47719(18)
H11_7 H 0.6047 0.3386 0.4951
S1_8 S 0.51152(3) 0.31698(4) 0.11515(5)
N2_8 N 0.34092(8) 0.44632(13) 0.00052(15)
N3_8 N 0.43389(7) 0.46210(13) 0.07499(14)
N4_8 N 0.62485(8) 0.27643(15) 0.19054(15)
C8_6 C 0.35301(10) 0.53867(17) 0.04104(19)
H4_6 H 0.3260 0.5866 0.0373
C9_6 C 0.40994(10) 0.54974(17) 0.08715(19)
H5_6 H 0.4290 0.6052 0.1203
C10_8 C 0.49228(9) 0.43726(16) 0.11277(17)
C11_8 C 0.53738(9) 0.49690(17) 0.15089(18)
H6_4 H 0.5344 0.5637 0.1551
C12_8 C 0.58988(10) 0.44582(18) 0.18383(18)
H7_8 H 0.6253 0.4754 0.2117
C13_8 C 0.58253(10) 0.34969(18) 0.17004(17)
C14_8 C 0.66100(10) 0.24928(17) 0.28923(17)
H8_8 H 0.6616 0.2767 0.3561
C15_8 C 0.67989(14) 0.1610(2) 0.1677(2)
H9_8 H 0.6970 0.1149 0.1350
C16_8 C 0.63650(14) 0.2196(3) 0.1127(2)
H10_8 H 0.6183 0.2209 0.0372
C17_8 C 0.39062(10) 0.40252(16) 0.02281(18)
H11_8 H 0.3953 0.3386 0.0049
O2_8 O 0.10668(8) 0.79586(14) 0.69299(19)
N1_8 N 0.23642(8) 0.52239(13) 0.83679(14)
C1_8 C 0.21545(9) 0.66836(14) 0.57824(16)
C2_8 C 0.21460(9) 0.64297(15) 0.69308(16)
C3_8 C 0.23860(9) 0.55569(15) 0.73966(17)
H1_8 H 0.2573 0.5183 0.7008
C4_8 C 0.21095(12) 0.57892(17) 0.89314(19)
H2_8 H 0.2084 0.5568 0.9603
C5_8 C 0.18856(12) 0.66739(18) 0.8564(2)
H3_8 H 0.1727 0.7050 0.8999
C6_8 C 0.18921(10) 0.70181(15) 0.75421(18)
C7_8 C 0.15947(10) 0.79795(16) 0.71751(18)
H6_5 H 0.0344 0.9363 0.6551
C8_7 C 0.14699(10) 0.96133(17) 0.95896(19)
H4_7 H 0.1740 0.9134 0.9627
C9_7 C 0.09006(10) 0.95026(17) 0.91285(19)
H5_7 H 0.0710 0.8948 0.8797
H6_6 H 0.9656 0.9363 0.8449
H6_7 H 0.9656 0.0637 0.3449
H6_8 H 0.0344 0.0637 0.1551
C8_8 C 0.85301(10) 0.03867(17) 0.04104(19)
H4_8 H 0.8260 0.0866 0.0373
C9_8 C 0.90994(10) 0.04974(17) 0.08715(19)
H5_8 H 0.9290 0.1052 0.1203
loop_
_geom_bond_atom_site_label_1
_geom_bond_atom_site_label_2
_geom_bond_site_symmetry_1
_geom_bond_site_symmetry_2
N4 C13 1_555 1_555
N5 C14 1_555 1_555
C12 C11 1_555 1_555
H7 C12 1_555 1_555
C13 S1 1_555 1_555
C14 N4 1_555 1_555
H8 C14 1_555 1_555
C15 N5 1_555 1_555
H9 C15 1_555 1_555
C16 N4 1_555 1_555
H10 C16 1_555 1_555
Ni4 N5 1_555 1_555
C12 C13 1_555 1_555
C15 C16 1_555 1_555
N2 Ni1 1_555 1_555
C10 N3 1_555 1_555
C17 N2 1_555 1_555
H11 C17 1_555 1_555
O5 Ni1 1_555 1_555
O6 Ni1 1_555 1_555
O7 Ni1 1_555 1_555
N6 Ni1 1_555 1_555
N3 C17 1_555 1_555
O1 C7 1_555 1_555
O2 C7 1_555 1_555
O3 C1 1_555 1_555
O4 C1 1_555 1_555
N1 C3 1_555 1_555
C1 C2 1_555 1_555
C2 C3 1_555 1_555
C3 H1 1_555 1_555
C4 N1 1_555 1_555
H2 C4 1_555 1_555
C5 C4 1_555 1_555
H3 C5 1_555 1_555
C6 C2 1_555 1_555
C7 C6 1_555 1_555
H4 C8 1_555 1_555
C9 C8 1_555 1_555
H5 C9 1_555 1_555
Ni2 O1 1_555 1_555
O3 Ni2 1_555 1_555
C5 C6 1_555 1_555
O5_2 Ni1_2 1_555 1_555
O6_2 Ni1_2 1_555 1_555
N6_2 Ni1_2 1_555 1_555
C10_2 N3_2 1_555 1_555
C17_2 N2_2 1_555 1_555
H11_2 C17_2 1_555 1_555
N3_2 C17_2 1_555 1_555
O1_2 C7_2 1_555 1_555
O2_2 C7_2 1_555 1_555
O3_2 C1_2 1_555 1_555
O4_2 C1_2 1_555 1_555
N1_2 C3_2 1_555 1_555
C1_2 C2_2 1_555 1_555
C2_2 C3_2 1_555 1_555
C3_2 H1_2 1_555 1_555
C4_2 N1_2 1_555 1_555
H2_2 C4_2 1_555 1_555
C5_2 C4_2 1_555 1_555
H3_2 C5_2 1_555 1_555
C6_2 C2_2 1_555 1_555
C7_2 C6_2 1_555 1_555
Ni2_2 O1_2 1_555 1_555
Ni3_2 O4_2 1_555 1_555
O3_2 Ni2_2 1_555 1_555
C5_2 C6_2 1_555 1_555
N4_2 C13_2 1_555 1_555
N5_2 C14_2 1_555 1_555
C12_2 C11_2 1_555 1_555
H7_2 C12_2 1_555 1_555
C13_2 S1_2 1_555 1_555
C14_2 N4_2 1_555 1_555
H8_2 C14_2 1_555 1_555
C15_2 N5_2 1_555 1_555
H9_2 C15_2 1_555 1_555
C16_2 N4_2 1_555 1_555
H10_2 C16_2 1_555 1_555
Ni4_2 N5_2 1_555 1_555
C12_2 C13_2 1_555 1_555
C15_2 C16_2 1_555 1_555
Ni2_2 N1_3 1_555 1_555
S1_3 C10_3 1_555 1_555
O5_2 C7_3 1_555 1_555
O2_3 C7_3 1_555 1_555
O6_2 C1_3 1_555 1_555
O4_3 C1_3 1_555 1_555
N1_3 C3_3 1_555 1_555
N2_3 Ni2_2 1_555 1_555
N3_3 C9_2 1_555 1_555
N4_3 C13_3 1_555 1_555
N5_3 C14_3 1_555 1_555
C1_3 C2_3 1_555 1_555
C2_3 C3_3 1_555 1_555
C3_3 H1_3 1_555 1_555
C4_3 N1_3 1_555 1_555
H2_3 C4_3 1_555 1_555
C5_3 C4_3 1_555 1_555
H3_3 C5_3 1_555 1_555
C6_3 C2_3 1_555 1_555
C7_3 C6_3 1_555 1_555
C8_2 N2_3 1_555 1_555
H4_2 C8_2 1_555 1_555
C9_2 C8_2 1_555 1_555
H5_2 C9_2 1_555 1_555
C10_3 N3_3 1_555 1_555
C11_3 C10_3 1_555 1_555
H6 C11_3 1_555 1_555
C12_3 C11_3 1_555 1_555
H7_3 C12_3 1_555 1_555
C13_3 S1_3 1_555 1_555
C14_3 N4_3 1_555 1_555
H8_3 C14_3 1_555 1_555
C15_3 N5_3 1_555 1_555
H9_3 C15_3 1_555 1_555
C16_3 N4_3 1_555 1_555
H10_3 C16_3 1_555 1_555
C17_3 N2_3 1_555 1_555
H11_3 C17_3 1_555 1_555
Ni3 N5_3 1_555 1_555
O7_3 Ni2_2 1_555 1_555
N6_3 Ni2_2 1_555 1_555
N3_3 C17_3 1_555 1_555
C5_3 C6_3 1_555 1_555
C12_3 C13_3 1_555 1_555
C15_3 C16_3 1_555 1_555
Ni2 N1_4 1_555 1_555
O5 C7_4 1_555 1_555
O2_4 C7_4 1_555 1_555
O6 C1_4 1_555 1_555
O4_4 C1_4 1_555 1_555
N1_4 C3_4 1_555 1_555
C1_4 C2_4 1_555 1_555
C2_4 C3_4 1_555 1_555
C3_4 H1_4 1_555 1_555
C4_4 N1_4 1_555 1_555
H2_4 C4_4 1_555 1_555
C5_4 C4_4 1_555 1_555
H3_4 C5_4 1_555 1_555
C6_4 C2_4 1_555 1_555
C7_4 C6_4 1_555 1_555
Ni4_2 O4_4 1_555 1_555
N6_4 Ni2 1_555 1_555
C5_4 C6_4 1_555 1_555
S1_4 C10_4 1_555 1_555
N3_4 C9_3 1_555 1_555
N4_4 C13_4 1_555 1_555
N5_4 C14_4 1_555 1_555
C8_3 N2_4 1_555 1_555
H4_3 C8_3 1_555 1_555
C9_3 C8_3 1_555 1_555
H5_3 C9_3 1_555 1_555
C10_4 N3_4 1_555 1_555
C11_4 C10_4 1_555 1_555
H6_2 C11_4 1_555 1_555
C12_4 C11_4 1_555 1_555
H7_4 C12_4 1_555 1_555
C13_4 S1_4 1_555 1_555
C14_4 N4_4 1_555 1_555
H8_4 C14_4 1_555 1_555
C15_4 N5_4 1_555 1_555
H9_4 C15_4 1_555 1_555
C16_4 N4_4 1_555 1_555
H10_4 C16_4 1_555 1_555
C17_4 N2_4 1_555 1_555
H11_4 C17_4 1_555 1_555
Ni3_2 N5_4 1_555 1_555
N3_4 C17_4 1_555 1_555
C12_4 C13_4 1_555 1_555
C15_4 C16_4 1_555 1_555
O1_3 C7_5 1_555 1_555
O2_5 C7_5 1_555 1_555
O3_3 C1_5 1_555 1_555
O7_2 C1_5 1_555 1_555
N1_5 C3_5 1_555 1_555
C1_5 C2_5 1_555 1_555
C2_5 C3_5 1_555 1_555
C3_5 H1_5 1_555 1_555
C4_5 N1_5 1_555 1_555
H2_5 C4_5 1_555 1_555
C5_5 C4_5 1_555 1_555
H3_5 C5_5 1_555 1_555
C6_5 C2_5 1_555 1_555
C7_5 C6_5 1_555 1_555
H4_4 C8_4 1_555 1_555
C9_4 C8_4 1_555 1_555
H5_4 C9_4 1_555 1_555
Ni4 O1_3 1_555 1_555
O3_3 Ni4 1_555 1_555
C5_5 C6_5 1_555 1_555
N2_5 Ni3_2 1_555 1_555
C10_5 N3_5 1_555 1_555
C17_5 N2_5 1_555 1_555
H11_5 C17_5 1_555 1_555
O5_3 Ni3_2 1_555 1_555
O6_3 Ni3_2 1_555 1_555
N3_5 C17_5 1_555 1_555
N4_5 C13_5 1_555 1_555
N6_4 C14_5 1_555 1_555
C12_5 C11_5 1_555 1_555
H7_5 C12_5 1_555 1_555
C13_5 S1_5 1_555 1_555
C14_5 N4_5 1_555 1_555
H8_5 C14_5 1_555 1_555
C15_5 N6_4 1_555 1_555
H9_5 C15_5 1_555 1_555
C16_5 N4_5 1_555 1_555
H10_5 C16_5 1_555 1_555
C12_5 C13_5 1_555 1_555
C15_5 C16_5 1_555 1_555
N4_6 C13_6 1_555 1_555
N6_3 C14_6 1_555 1_555
C12_6 C11_6 1_555 1_555
H7_6 C12_6 1_555 1_555
C13_6 S1_6 1_555 1_555
C14_6 N4_6 1_555 1_555
H8_6 C14_6 1_555 1_555
C15_6 N6_3 1_555 1_555
H9_6 C15_6 1_555 1_555
C16_6 N4_6 1_555 1_555
H10_6 C16_6 1_555 1_555
C12_6 C13_6 1_555 1_555
C15_6 C16_6 1_555 1_555
O1_4 C7_6 1_555 1_555
O2_6 C7_6 1_555 1_555
O3_4 C1_6 1_555 1_555
O7 C1_6 1_555 1_555
N1_6 C3_6 1_555 1_555
C1_6 C2_6 1_555 1_555
C2_6 C3_6 1_555 1_555
C3_6 H1_6 1_555 1_555
C4_6 N1_6 1_555 1_555
H2_6 C4_6 1_555 1_555
C5_6 C4_6 1_555 1_555
H3_6 C5_6 1_555 1_555
C6_6 C2_6 1_555 1_555
C7_6 C6_6 1_555 1_555
Ni4_2 O1_4 1_555 1_555
O3_4 Ni4_2 1_555 1_555
C5_6 C6_6 1_555 1_555
C10_6 N3_6 1_555 1_555
C17_6 N2_6 1_555 1_555
H11_6 C17_6 1_555 1_555
N3_6 C17_6 1_555 1_555
O5_4 Ni3 1_555 1_555
O6_4 Ni3 1_555 1_555
Ni4_2 N1_7 1_555 1_555
S1_7 C10_7 1_555 1_555
O5_4 C7_7 1_555 1_555
O2_7 C7_7 1_555 1_555
O6_4 C1_7 1_555 1_555
O7_4 C1_7 1_555 1_555
N1_7 C3_7 1_555 1_555
N2_7 Ni4_2 1_555 1_555
N3_7 C9_5 1_555 1_555
N4_7 C13_7 1_555 1_555
N6_2 C14_7 1_555 1_555
C1_7 C2_7 1_555 1_555
C2_7 C3_7 1_555 1_555
C3_7 H1_7 1_555 1_555
C4_7 N1_7 1_555 1_555
H2_7 C4_7 1_555 1_555
C5_7 C4_7 1_555 1_555
H3_7 C5_7 1_555 1_555
C6_7 C2_7 1_555 1_555
C7_7 C6_7 1_555 1_555
C8_5 N2_7 1_555 1_555
H4_5 C8_5 1_555 1_555
C9_5 C8_5 1_555 1_555
H5_5 C9_5 1_555 1_555
C10_7 N3_7 1_555 1_555
C11_7 C10_7 1_555 1_555
H6_3 C11_7 1_555 1_555
C12_7 C11_7 1_555 1_555
H7_7 C12_7 1_555 1_555
C13_7 S1_7 1_555 1_555
C14_7 N4_7 1_555 1_555
H8_7 C14_7 1_555 1_555
C15_7 N6_2 1_555 1_555
H9_7 C15_7 1_555 1_555
C16_7 N4_7 1_555 1_555
H10_7 C16_7 1_555 1_555
C17_7 N2_7 1_555 1_555
H11_7 C17_7 1_555 1_555
N3_7 C17_7 1_555 1_555
C5_7 C6_7 1_555 1_555
C12_7 C13_7 1_555 1_555
C15_7 C16_7 1_555 1_555
S1_8 C10_8 1_555 1_555
N3_8 C9_6 1_555 1_555
N4_8 C13_8 1_555 1_555
N6 C14_8 1_555 1_555
C8_6 N2_8 1_555 1_555
H4_6 C8_6 1_555 1_555
C9_6 C8_6 1_555 1_555
H5_6 C9_6 1_555 1_555
C10_8 N3_8 1_555 1_555
C11_8 C10_8 1_555 1_555
H6_4 C11_8 1_555 1_555
C12_8 C11_8 1_555 1_555
H7_8 C12_8 1_555 1_555
C13_8 S1_8 1_555 1_555
C14_8 N4_8 1_555 1_555
H8_8 C14_8 1_555 1_555
C15_8 N6 1_555 1_555
H9_8 C15_8 1_555 1_555
C16_8 N4_8 1_555 1_555
H10_8 C16_8 1_555 1_555
C17_8 N2_8 1_555 1_555
H11_8 C17_8 1_555 1_555
N3_8 C17_8 1_555 1_555
C12_8 C13_8 1_555 1_555
C15_8 C16_8 1_555 1_555
Ni4 N1_8 1_555 1_555
O5_3 C7_8 1_555 1_555
O2_8 C7_8 1_555 1_555
O6_3 C1_8 1_555 1_555
O7_3 C1_8 1_555 1_555
N1_8 C3_8 1_555 1_555
C1_8 C2_8 1_555 1_555
C2_8 C3_8 1_555 1_555
C3_8 H1_8 1_555 1_555
C4_8 N1_8 1_555 1_555
H2_8 C4_8 1_555 1_555
C5_8 C4_8 1_555 1_555
H3_8 C5_8 1_555 1_555
C6_8 C2_8 1_555 1_555
C7_8 C6_8 1_555 1_555
C5_8 C6_8 1_555 1_555
H4_7 C8_7 1_555 1_555
C9_7 C8_7 1_555 1_555
H5_7 C9_7 1_555 1_555
H4_8 C8_8 1_555 1_555
C9_8 C8_8 1_555 1_555
H5_8 C9_8 1_555 1_555

#END
