
###############################################################################
#
# This file contains modified crystal structure data generated from the
# MOF subset of the Cambridge Structural Database (CSD) v543 
# hosted by the Cambridge Crystallographic Data Centre (CCDC).
#
# This work is licensed under the Creative Commons
# Attribution-NonCommercial-ShareAlike 4.0 International License.
# To view a copy of this license, visit
# http://creativecommons.org/licenses/by-nc-sa/4.0/
# or send a letter to
# Creative Commons, PO Box 1866, Mountain View, CA 94042, USA.
#
# CIF created using the CSD Python API on 29 September 2022
# The structure has been converted into the P1 space group
# The structure has a 3D framework
# The original CSD entry WOXPAA is in the monoclinic crystal system
# The original CSD entry WOXPAA is in a Sohncke space group
# The framework has been calculated to contain at least 10.0% void space
# The void calculation uses a probe of radius 1.32A, grid spacing 0.4
# H atom positions have been added when not included in the experimental data
#
###############################################################################

data_WOXPAA
_chemical_formula_moiety         '(C160 H120 Ag35 As48 O276)n'
_symmetry_cell_setting           triclinic
_symmetry_space_group_name_H-M   'P 1'
_symmetry_Int_Tables_number      1
_space_group_name_Hall           'P 1'
loop_
_symmetry_equiv_pos_site_id
_symmetry_equiv_pos_as_xyz
1 x,y,z
_cell_length_a                   28.13(1)
_cell_length_b                   14.767(2)
_cell_length_c                   20.838(9)
_cell_angle_alpha                90
_cell_angle_beta                 99.78(2)
_cell_angle_gamma                90
_cell_volume                     8530.22
loop_
_atom_site_label
_atom_site_type_symbol
_atom_site_fract_x
_atom_site_fract_y
_atom_site_fract_z
Ag4 Ag 0.2528(1) 0.3686(3) 0.1531(1)
Ag5 Ag 0.2925(2) 0.6441(3) 0.1841(2)
Ag7 Ag 0.6518(1) 0.0795(2) 0.1088(1)
C13 C 0.2674(9) 0.5074(19) 0.0521(12)
O19 O 0.3009(6) 0.4428(13) 0.0545(8)
O20 O 0.2370(7) 0.5109(16) 0.0876(10)
C15 C 0.2703(8) 0.6674(17) 0.0222(11)
O22 O 0.3076(6) 0.6765(13) 0.0755(8)
O31 O 0.5865(6) 0.1975(12) 0.0006(8)
C37 C 0.4235(9) 0.6430(2) 0.1336(12)
O55 O 0.3897(6) 0.6915(13) 0.1458(8)
O56 O 0.4528(6) 0.5982(12) 0.1700(8)
C38 C 0.4273(8) 0.6476(17) 0.0577(11)
O57 O 0.3945(6) 0.7043(12) 0.0245(8)
C39 C 0.4266(8) 0.5549(15) 0.0343(10)
O58 O 0.3858(6) 0.5091(12) 0.0512(8)
As10 As 0.3539(1) 0.7600(2) 0.0716(1)
O62 O 0.1709(10) 0.3160(2) 0.1687(14)
H8 H 0.2397 0.6812 0.0366
H19 H 0.4592 0.6723 0.0547
H20 H 0.4560 0.5243 0.0556
C57 C 0.8293(8) 0.4694(17) 0.2199(11)
O99 O 0.7971(5) 0.4856(12) 0.1684(8)
O100 O 0.8532(7) 0.5279(15) 0.2490(10)
C58 C 0.8328(8) 0.3702(16) 0.2406(10)
O101 O 0.7968(6) 0.3168(13) 0.2025(8)
C59 C 0.8302(8) 0.3692(17) 0.3138(11)
O102 O 0.7904(5) 0.4201(11) 0.3270(7)
C60 C 0.8229(9) 0.2677(19) 0.3365(12)
O103 O 0.7870(6) 0.2509(12) 0.3608(8)
O104 O 0.8514(7) 0.2142(16) 0.3269(10)
C61 C 0.6798(8) 0.2739(16) 0.1599(11)
O105 O 0.7158(6) 0.2572(12) 0.1358(8)
O106 O 0.6479(6) 0.2174(13) 0.1630(9)
C62 C 0.6721(9) 0.3685(19) 0.1851(12)
O107 O 0.7136(5) 0.4230(12) 0.1753(7)
C63 C 0.6687(9) 0.3634(18) 0.2565(12)
O108 O 0.7073(6) 0.3136(13) 0.2940(8)
C64 C 0.6705(8) 0.4631(18) 0.2821(12)
O109 O 0.7042(6) 0.4758(14) 0.3339(8)
O110 O 0.6458(7) 0.5208(16) 0.2533(10)
As19 As 0.7588(1) 0.3767(2) 0.1359(1)
As20 As 0.7432(1) 0.3672(2) 0.3622(1)
H29 H 0.8645 0.3472 0.2348
H30 H 0.8601 0.3939 0.3385
H31 H 0.6425 0.3947 0.1606
H32 H 0.6378 0.3358 0.2616
O139 O 0.2519(6) 0.2388(13) 0.0822(8)
O140 O 0.2968(6) 0.8168(13) 0.2025(8)
O141 O 0.3192(8) 0.4979(17) 0.2164(11)
O142 O 0.2383(11) 0.6250(3) 0.2608(14)
Ag29 Ag 0.7925(2) 0.1441(3) 0.1841(2)
Ag30 Ag 0.8012(2) 0.5838(4) 0.3458(2)
Ag31 Ag 0.8556(1) 0.0770(2) 0.3943(1)
H44 H 0.150662 0.304684 0.125567
H45 H 0.174047 0.259169 0.194548
C5 C 0.4732(8) 0.3453(16) 0.8587(11)
O7 O 0.5100(5) 0.3817(12) 0.8900(7)
O8 O 0.4432(6) 0.3789(13) 0.8180(8)
C6 C 0.4676(7) 0.2471(15) 0.8747(10)
O9 O 0.5063(6) 0.2156(12) 0.9233(8)
C7 C 0.4656(8) 0.1856(17) 0.8143(11)
O10 O 0.5071(6) 0.2110(12) 0.7843(8)
C8 C 0.4683(9) 0.0873(19) 0.8310(12)
O11 O 0.5062(6) 0.0439(12) 0.8158(8)
O12 O 0.4377(8) 0.0506(17) 0.8586(11)
Ag1 Ag 0.5515(1) 0.0360(2) 0.6704(1)
Ag3 Ag 0.4511(1) 0.5354(2) 0.8301(1)
Ag8 Ag 0.6988(2) 0.0838(4) 0.6542(2)
C14 C 0.2680(8) 0.5708(17) 0.9959(11)
O21 O 0.3043(5) 0.5506(11) 0.9598(7)
C16 C 0.2775(8) 0.7340(17) 0.9703(11)
O23 O 0.3123(6) 0.7879(14) 0.9818(9)
O24 O 0.2481(6) 0.7388(13) 0.9178(8)
C17 C 0.5762(8) 0.0480(17) 0.5408(11)
O25 O 0.6118(6) 0.0029(12) 0.5708(8)
O26 O 0.5462(6) 0.0891(13) 0.5663(8)
C18 C 0.5730(9) 0.0477(18) 0.4658(12)
C19 C 0.5741(8) 0.1431(18) 0.4373(11)
O28 O 0.6093(6) 0.1938(13) 0.4698(8)
C20 C 0.5766(9) 0.1340(2) 0.3645(13)
O29 O 0.6106(6) 0.1700(13) 0.3485(8)
O30 O 0.5427(6) 0.0937(13) 0.3297(8)
C21 C 0.6247(8) 0.1800(17) 0.9755(11)
O32 O 0.6546(6) 0.1229(14) 0.9969(9)
C22 C 0.6303(7) 0.2365(15) 0.9173(9)
O33 O 0.5935(5) 0.2993(11) 0.9024(7)
C23 C 0.6286(8) 0.1732(16) 0.8573(10)
O34 O 0.5891(6) 0.1158(12) 0.8515(8)
C24 C 0.6316(8) 0.2258(17) 0.7982(11)
O35 O 0.5929(5) 0.2241(11) 0.7552(7)
O36 O 0.6668(6) 0.2731(13) 0.7921(8)
C26 C 0.7334(9) 0.0429(19) 0.5002(13)
O39 O 0.6955(5) 0.0316(12) 0.5384(8)
C27 C 0.7318(8) 0.1363(17) 0.4664(11)
O40 O 0.6941(6) 0.1438(13) 0.4201(8)
C28 C 0.7273(10) 0.2060(2) 0.5239(13)
O41 O 0.6957(6) 0.2610(13) 0.5106(8)
O42 O 0.7556(7) 0.2019(14) 0.5765(9)
O44 O 0.6468(7) 0.0279(15) 0.7510(10)
O54 O 0.8542(7) 0.0208(16) 0.7467(10)
C40 C 0.4235(8) 0.5473(18) 0.9610(11)
O59 O 0.3880(6) 0.5061(13) 0.9309(8)
O60 O 0.4554(7) 0.5859(15) 0.9351(9)
As3 As 0.6517(1) 0.2371(2) 0.4192(1)
As7 As 0.5500(1) 0.3019(2) 0.9581(1)
As8 As 0.5486(1) 0.1214(2) 0.7745(1)
As9 As 0.3428(1) 0.4568 0.9887(1)
O64 O 0.7423(9) 0.1820(3) 0.7440(12)
H3 H 0.4373 0.2399 0.8916
H4 H 0.4358 0.1977 0.7837
H7 H 0.2370 0.5642 0.9666
H9 H 0.5426 0.0186 0.4463
H10 H 0.5434 0.1725 0.4408
H11 H 0.6614 0.2680 0.9257
H12 H 0.6575 0.1350 0.8658
H13 H 0.7642 0.0390 0.5302
H14 H 0.7616 0.1472 0.4491
Ag12 Ag 0.7539(1) 0.3121(3) 0.6514(1)
As18 As 0.2987(2) 0.0238(6) 0.7118(3)
O98 O 0.2617(11) 0.1250(3) 0.7392(14)
Ag13 Ag 0.4485(1) 0.0360(2) 0.3296(1)
As25 As 0.4514(1) 0.6214(2) 0.7268(1)
Ag19 Ag 0.2472(1) 0.8686(3) 0.8469(1)
O145 O 0.8368(6) 0.2787(13) 0.7037(8)
O146 O 0.7469(8) 0.4447(19) 0.7291(12)
Ag26 Ag 0.1444(1) 0.0770(2) 0.6057(1)
Ag27 Ag 0.2075(2) 0.1441(3) 0.8159(2)
Ag28 Ag 0.3482(1) 0.0795(2) 0.8912(1)
O147 O 0.4538(6) 0.0891(13) 0.4337(8)
As27 As 0.4514(1) 0.1214(2) 0.2255(1)
H46 H 0.740849 0.246129 0.729462
H47 H 0.726712 0.176088 0.783125
O63 O 0.6254(10) 0.9340(2) 0.0681(14)
O143 O 0.6751(10) 0.9820(2) 0.2041(15)
H42 H 0.650304 0.906609 0.045589
H43 H 0.620188 0.894497 0.10484
C1 C 0.5366(10) 0.5890(2) 0.6729(14)
O1 O 0.4953(5) 0.5420(12) 0.6861(8)
O2 O 0.5654(7) 0.5510(14) 0.6506(9)
C2 C 0.5353(8) 0.6849(16) 0.6875(11)
O3 O 0.4928(6) 0.7135(13) 0.7164(8)
C3 C 0.5320(8) 0.7431(16) 0.6273(11)
O4 O 0.4958(6) 0.7126(12) 0.5770(8)
C4 C 0.5288(9) 0.8429(17) 0.6414(12)
O5 O 0.4907(5) 0.8791(12) 0.6094(7)
O6 O 0.5575(6) 0.8787(13) 0.6811(8)
Ag2 Ag 0.6444(1) 0.5770(2) 0.6057(1)
Ag6 Ag 0.2539(1) 0.8121(3) 0.6514(1)
Ag9 Ag 0.5604(3) 0.3829(7) 0.6787(5)
C9 C 0.3708(9) 0.7276(19) 0.7007(12)
O13 O 0.4081(5) 0.7195(11) 0.7441(7)
O14 O 0.3368(6) 0.7787(13) 0.7037(8)
C10 C 0.3723(8) 0.6693(16) 0.6420(11)
O15 O 0.4117(6) 0.6142(12) 0.6491(8)
C11 C 0.3714(8) 0.7283(16) 0.5845(10)
O16 O 0.4081(5) 0.7940(11) 0.5953(7)
C12 C 0.3767(8) 0.6739(17) 0.5214(11)
O17 O 0.3462(7) 0.6165(14) 0.5001(9)
O18 O 0.4133(6) 0.6914(13) 0.4985(8)
O27 O 0.6118(6) 0.9981(12) 0.4472(8)
C25 C 0.7332(10) 0.9700(2) 0.4507(13)
O37 O 0.6945(6) 0.9190(13) 0.4427(8)
O38 O 0.7651(8) 0.9610(17) 0.4170(11)
C29 C 0.6707(8) 0.9694(17) 0.7801(11)
O43 O 0.7029(5) 0.9856(12) 0.8316(8)
C30 C 0.6672(8) 0.8702(16) 0.7594(10)
O45 O 0.7032(6) 0.8168(13) 0.7975(8)
C31 C 0.6698(8) 0.8692(17) 0.6862(11)
O46 O 0.7096(5) 0.9201(11) 0.6730(7)
C32 C 0.6771(9) 0.7677(19) 0.6635(12)
O47 O 0.7130(6) 0.7509(12) 0.6392(8)
O48 O 0.6486(7) 0.7142(16) 0.6731(10)
C33 C 0.8202(8) 0.7739(16) 0.8401(11)
O49 O 0.7842(6) 0.7572(12) 0.8642(8)
O50 O 0.8521(6) 0.7174(13) 0.8370(9)
C34 C 0.8279(9) 0.8685(19) 0.8149(12)
O51 O 0.7864(5) 0.9230(12) 0.8247(7)
C35 C 0.8313(9) 0.8634(18) 0.7435(12)
O52 O 0.7927(6) 0.8136(13) 0.7060(8)
C36 C 0.8295(8) 0.9631(18) 0.7179(12)
O53 O 0.7958(6) 0.9758(14) 0.6661(8)
As1 As 0.6531(1) 0.9412(2) 0.5092(1)
As2 As 0.7412(1) 0.8767(2) 0.8641(1)
As4 As 0.7568(1) 0.8672(2) 0.6378(1)
As5 As 0.4517(1) 0.7974(2) 0.5415(1)
As11 As 0.6870(1) 0.4766(3) 0.7018(2)
As12 As 0.7987(2) 0.5238(6) 0.7118(3)
O61 O 0.4760(2) 0.3290(5) 0.6560(3)
O65 O 0.6808(8) 0.4979(17) 0.7836(11)
O66 O 0.6639(10) 0.3610(2) 0.6868(14)
O68 O 0.8249(10) 0.4820(2) 0.7959(15)
O69 O 0.7617(11) 0.6250(3) 0.7392(14)
H1 H 0.5647 0.7010 0.7177
H2 H 0.5626 0.7347 0.6114
H5 H 0.3433 0.6312 0.6349
H6 H 0.3402 0.7597 0.5765
H15 H 0.6355 0.8472 0.7652
H16 H 0.6399 0.8939 0.6615
H17 H 0.8575 0.8947 0.8394
H18 H 0.8622 0.8358 0.7384
Ag10 Ag 0.3556(1) 0.5770(2) 0.3943(1)
C41 C 0.4634(10) 0.5890(2) 0.3271(14)
O70 O 0.5047(5) 0.5420(12) 0.3139(8)
O71 O 0.4346(7) 0.5510(14) 0.3494(9)
C42 C 0.4647(8) 0.6849(16) 0.3125(11)
O72 O 0.5072(6) 0.7135(13) 0.2836(8)
C43 C 0.4680(8) 0.7431(16) 0.3727(11)
O73 O 0.5042(6) 0.7126(12) 0.4230(8)
C44 C 0.4712(9) 0.8429(17) 0.3586(12)
O74 O 0.5093(5) 0.8791(12) 0.3906(7)
O75 O 0.4425(6) 0.8787(13) 0.3189(8)
C45 C 0.6292(9) 0.7276(19) 0.2993(12)
O76 O 0.5919(5) 0.7195(11) 0.2559(7)
O77 O 0.6632(6) 0.7787(13) 0.2963(8)
C46 C 0.6277(8) 0.6693(16) 0.3580(11)
O78 O 0.5883(6) 0.6142(12) 0.3509(8)
C47 C 0.6286(8) 0.7283(16) 0.4155(10)
O79 O 0.5919(5) 0.7940(11) 0.4047(7)
C48 C 0.6233(8) 0.6739(17) 0.4786(11)
O80 O 0.6538(7) 0.6165(14) 0.4999(9)
O81 O 0.5867(6) 0.6914(13) 0.5015(8)
As13 As 0.5483(1) 0.7974(2) 0.4585(1)
As14 As 0.5486(1) 0.6214(2) 0.2732(1)
H21 H 0.4353 0.7010 0.2823
H22 H 0.4374 0.7347 0.3886
H23 H 0.6567 0.6312 0.3651
H24 H 0.6598 0.7597 0.4235
C49 C 0.0762(8) 0.5480(17) 0.5408(11)
O82 O 0.1118(6) 0.5029(12) 0.5708(8)
O83 O 0.0462(6) 0.5891(13) 0.5663(8)
C50 C 0.0730(9) 0.5477(18) 0.4658(12)
O84 O 0.1118(6) 0.4981(12) 0.4472(8)
C51 C 0.0741(8) 0.6431(18) 0.4373(11)
O85 O 0.1093(6) 0.6938(13) 0.4698(8)
C52 C 0.0766(9) 0.6340(2) 0.3645(13)
O86 O 0.1106(6) 0.6700(13) 0.3485(8)
O87 O 0.0427(6) 0.5937(13) 0.3297(8)
C53 C 0.2332(10) 0.4700(2) 0.4507(13)
O88 O 0.1945(6) 0.4190(13) 0.4427(8)
O89 O 0.2651(8) 0.4610(17) 0.4170(11)
C54 C 0.2334(9) 0.5429(19) 0.5002(13)
O90 O 0.1955(5) 0.5316(12) 0.5384(8)
C55 C 0.2318(8) 0.6363(17) 0.4664(11)
O91 O 0.1941(6) 0.6438(13) 0.4201(8)
C56 C 0.2273(10) 0.7060(2) 0.5239(13)
O92 O 0.1957(6) 0.7610(13) 0.5106(8)
O93 O 0.2556(7) 0.7019(14) 0.5765(9)
As15 As 0.1531(1) 0.4412(2) 0.5092(1)
As16 As 0.1517(1) 0.7371(2) 0.4192(1)
H25 H 0.0426 0.5186 0.4463
H26 H 0.0434 0.6725 0.4408
H27 H 0.2642 0.5390 0.5302
H28 H 0.2616 0.6472 0.4491
As17 As 0.1870(1) 0.9766(3) 0.7018(2)
O94 O 0.1808(8) 0.9979(17) 0.7836(11)
O95 O 0.1639(10) 0.8610(2) 0.6868(14)
O96 O 0.2469(8) 0.9447(19) 0.7291(12)
O97 O 0.3249(10) 0.9820(2) 0.7959(15)
Ag17 Ag 0.1988(2) 0.5838(4) 0.6542(2)
Ag18 Ag 0.4396(3) 0.3829(7) 0.3213(5)
O137 O 0.2423(9) 0.6820(3) 0.7440(12)
O138 O 0.5240(2) 0.3290(5) 0.3440(3)
Ag20 Ag 0.7075(2) 0.6441(3) 0.8159(2)
Ag21 Ag 0.8482(1) 0.5795(2) 0.8912(1)
O144 O 0.3514(7) 0.7142(16) 0.3269(10)
As26 As 0.3130(1) 0.4766(3) 0.2982(2)
Ag23 Ag 0.7461(1) 0.8121(3) 0.3486(1)
Ag24 Ag 0.5489(1) 0.5354(2) 0.1699(1)
Ag25 Ag 0.0515(1) 0.5360(2) 0.6704(1)
O154 O 0.2096(5) 0.4201(11) 0.6730(7)
H41 H 0.671451 0.33893 0.644653
H48 H 0.462833 0.33746 0.609071
H49 H 0.474947 0.263768 0.667244
H50 H 0.129728 0.858605 0.693156
H51 H 0.240849 0.746129 0.729462
H52 H 0.226712 0.676088 0.783125
H55 H 0.537167 0.33746 0.390929
H56 H 0.525053 0.263768 0.332756
C5_2 C 0.5268(8) 0.3453(16) 0.1413(11)
O7_2 O 0.4900(5) 0.3817(12) 0.1100(7)
O8_2 O 0.5568(6) 0.3789(13) 0.1820(8)
C6_2 C 0.5324(7) 0.2471(15) 0.1253(10)
O9_2 O 0.4937(6) 0.2156(12) 0.0767(8)
C7_2 C 0.5344(8) 0.1856(17) 0.1857(11)
O10_2 O 0.4929(6) 0.2110(12) 0.2157(8)
C8_2 C 0.5317(9) 0.0873(19) 0.1690(12)
O11_2 O 0.4938(6) 0.0439(12) 0.1842(8)
O12_2 O 0.5623(8) 0.0506(17) 0.1414(11)
Ag8_2 Ag 0.3012(2) 0.0838(4) 0.3458(2)
C14_2 C 0.7320(8) 0.5708(17) 0.0041(11)
O21_2 O 0.6957(5) 0.5506(11) 0.0402(7)
C16_2 C 0.7225(8) 0.7340(17) 0.0297(11)
O23_2 O 0.6877(6) 0.7879(14) 0.0182(9)
O24_2 O 0.7519(6) 0.7388(13) 0.0822(8)
C17_2 C 0.4238(8) 0.0480(17) 0.4592(11)
O25_2 O 0.3882(6) 0.0029(12) 0.4292(8)
C18_2 C 0.4270(9) 0.0477(18) 0.5342(12)
C19_2 C 0.4259(8) 0.1431(18) 0.5627(11)
O28_2 O 0.3907(6) 0.1938(13) 0.5302(8)
C20_2 C 0.4234(9) 0.1340(2) 0.6355(13)
O29_2 O 0.3894(6) 0.1700(13) 0.6515(8)
O30_2 O 0.4573(6) 0.0937(13) 0.6703(8)
C21_2 C 0.3753(8) 0.1800(17) 0.0245(11)
O32_2 O 0.3454(6) 0.1229(14) 0.0031(9)
C22_2 C 0.3697(7) 0.2365(15) 0.0827(9)
O33_2 O 0.4065(5) 0.2993(11) 0.0976(7)
C23_2 C 0.3714(8) 0.1732(16) 0.1427(10)
O34_2 O 0.4109(6) 0.1158(12) 0.1485(8)
C24_2 C 0.3684(8) 0.2258(17) 0.2018(11)
O35_2 O 0.4071(5) 0.2241(11) 0.2448(7)
O36_2 O 0.3332(6) 0.2731(13) 0.2079(8)
C26_2 C 0.2666(9) 0.0429(19) 0.4998(13)
O39_2 O 0.3045(5) 0.0316(12) 0.4616(8)
C27_2 C 0.2682(8) 0.1363(17) 0.5336(11)
O40_2 O 0.3059(6) 0.1438(13) 0.5799(8)
C28_2 C 0.2727(10) 0.2060(2) 0.4761(13)
O41_2 O 0.3043(6) 0.2610(13) 0.4894(8)
O42_2 O 0.2444(7) 0.2019(14) 0.4235(9)
O44_2 O 0.3532(7) 0.0279(15) 0.2490(10)
O54_2 O 0.1458(7) 0.0208(16) 0.2533(10)
C40_2 C 0.5765(8) 0.5473(18) 0.0390(11)
O59_2 O 0.6120(6) 0.5061(13) 0.0691(8)
O60_2 O 0.5446(7) 0.5859(15) 0.0649(9)
As3_2 As 0.3483(1) 0.2371(2) 0.5808(1)
As7_2 As 0.4500(1) 0.3019(2) 0.0419(1)
As9_2 As 0.6572(1) 0.4568 0.0113(1)
O64_2 O 0.2577(9) 0.1820(3) 0.2560(12)
H3_2 H 0.5627 0.2399 0.1084
H4_2 H 0.5642 0.1977 0.2163
H7_2 H 0.7630 0.5642 0.0334
H9_2 H 0.4574 0.0186 0.5537
H10_2 H 0.4566 0.1725 0.5592
H11_2 H 0.3386 0.2680 0.0743
H12_2 H 0.3425 0.1350 0.1342
H13_2 H 0.2358 0.0390 0.4698
H14_2 H 0.2384 0.1472 0.5509
Ag12_2 Ag 0.2461(1) 0.3121(3) 0.3486(1)
As18_2 As 0.7013(2) 0.0238(6) 0.2882(3)
O98_2 O 0.7383(11) 0.1250(3) 0.2608(14)
Ag19_2 Ag 0.7528(1) 0.8686(3) 0.1531(1)
O145_2 O 0.1632(6) 0.2787(13) 0.2963(8)
O146_2 O 0.2531(8) 0.4447(19) 0.2709(12)
H46_2 H 0.259151 0.246129 0.270538
H47_2 H 0.273288 0.176088 0.216875
Ag4_2 Ag 0.7472(1) 0.3686(3) 0.8469(1)
C13_2 C 0.7326(9) 0.5074(19) 0.9479(12)
O19_2 O 0.6991(6) 0.4428(13) 0.9455(8)
O20_2 O 0.7630(7) 0.5109(16) 0.9124(10)
C15_2 C 0.7297(8) 0.6674(17) 0.9778(11)
O22_2 O 0.6924(6) 0.6765(13) 0.9245(8)
O31_2 O 0.4135(6) 0.1975(12) 0.9994(8)
C37_2 C 0.5765(9) 0.6430(2) 0.8664(12)
O55_2 O 0.6103(6) 0.6915(13) 0.8542(8)
O56_2 O 0.5472(6) 0.5982(12) 0.8300(8)
C38_2 C 0.5727(8) 0.6476(17) 0.9423(11)
O57_2 O 0.6055(6) 0.7043(12) 0.9755(8)
C39_2 C 0.5734(8) 0.5549(15) 0.9657(10)
O58_2 O 0.6142(6) 0.5091(12) 0.9488(8)
As10_2 As 0.6461(1) 0.7600(2) 0.9284(1)
O62_2 O 0.8291(10) 0.3160(2) 0.8313(14)
H8_2 H 0.7603 0.6812 0.9634
H19_2 H 0.5408 0.6723 0.9453
H20_2 H 0.5440 0.5243 0.9444
C57_2 C 0.1707(8) 0.4694(17) 0.7801(11)
O99_2 O 0.2029(5) 0.4856(12) 0.8316(8)
O100_2 O 0.1468(7) 0.5279(15) 0.7510(10)
C58_2 C 0.1672(8) 0.3702(16) 0.7594(10)
O101_2 O 0.2032(6) 0.3168(13) 0.7975(8)
C59_2 C 0.1698(8) 0.3692(17) 0.6862(11)
C60_2 C 0.1771(9) 0.2677(19) 0.6635(12)
O103_2 O 0.2130(6) 0.2509(12) 0.6392(8)
O104_2 O 0.1486(7) 0.2142(16) 0.6731(10)
C61_2 C 0.3202(8) 0.2739(16) 0.8401(11)
O105_2 O 0.2842(6) 0.2572(12) 0.8642(8)
O106_2 O 0.3521(6) 0.2174(13) 0.8370(9)
C62_2 C 0.3279(9) 0.3685(19) 0.8149(12)
O107_2 O 0.2864(5) 0.4230(12) 0.8247(7)
C63_2 C 0.3313(9) 0.3634(18) 0.7435(12)
O108_2 O 0.2927(6) 0.3136(13) 0.7060(8)
C64_2 C 0.3295(8) 0.4631(18) 0.7179(12)
O109_2 O 0.2958(6) 0.4758(14) 0.6661(8)
O110_2 O 0.3542(7) 0.5208(16) 0.7467(10)
As19_2 As 0.2412(1) 0.3767(2) 0.8641(1)
As20_2 As 0.2568(1) 0.3672(2) 0.6378(1)
H29_2 H 0.1355 0.3472 0.7652
H30_2 H 0.1399 0.3939 0.6615
H31_2 H 0.3575 0.3947 0.8394
H32_2 H 0.3622 0.3358 0.7384
O139_2 O 0.7481(6) 0.2388(13) 0.9178(8)
H44_2 H 0.849338 0.304684 0.874433
H45_2 H 0.825953 0.259169 0.805452
O27_2 O 0.3882(6) 0.9981(12) 0.5528(8)
C25_2 C 0.2668(10) 0.9700(2) 0.5493(13)
O37_2 O 0.3055(6) 0.9190(13) 0.5573(8)
O38_2 O 0.2349(8) 0.9610(17) 0.5830(11)
C29_2 C 0.3293(8) 0.9694(17) 0.2199(11)
O43_2 O 0.2971(5) 0.9856(12) 0.1684(8)
C30_2 C 0.3328(8) 0.8702(16) 0.2406(10)
C31_2 C 0.3302(8) 0.8692(17) 0.3138(11)
O46_2 O 0.2904(5) 0.9201(11) 0.3270(7)
C32_2 C 0.3229(9) 0.7677(19) 0.3365(12)
O47_2 O 0.2870(6) 0.7509(12) 0.3608(8)
C33_2 C 0.1798(8) 0.7739(16) 0.1599(11)
O49_2 O 0.2158(6) 0.7572(12) 0.1358(8)
O50_2 O 0.1479(6) 0.7174(13) 0.1630(9)
C34_2 C 0.1721(9) 0.8685(19) 0.1851(12)
O51_2 O 0.2136(5) 0.9230(12) 0.1753(7)
C35_2 C 0.1687(9) 0.8634(18) 0.2565(12)
O52_2 O 0.2073(6) 0.8136(13) 0.2940(8)
C36_2 C 0.1705(8) 0.9631(18) 0.2821(12)
O53_2 O 0.2042(6) 0.9758(14) 0.3339(8)
As1_2 As 0.3469(1) 0.9412(2) 0.4908(1)
As2_2 As 0.2588(1) 0.8767(2) 0.1359(1)
As4_2 As 0.2432(1) 0.8672(2) 0.3622(1)
As12_2 As 0.2013(2) 0.5238(6) 0.2882(3)
O66_2 O 0.3361(10) 0.3610(2) 0.3132(14)
O68_2 O 0.1751(10) 0.4820(2) 0.2041(15)
H15_2 H 0.3645 0.8472 0.2348
H16_2 H 0.3601 0.8939 0.3385
H17_2 H 0.1425 0.8947 0.1606
H18_2 H 0.1378 0.8358 0.2616
C49_2 C 0.9238(8) 0.5480(17) 0.4592(11)
O82_2 O 0.8882(6) 0.5029(12) 0.4292(8)
O83_2 O 0.9538(6) 0.5891(13) 0.4337(8)
C50_2 C 0.9270(9) 0.5477(18) 0.5342(12)
O84_2 O 0.8882(6) 0.4981(12) 0.5528(8)
C51_2 C 0.9259(8) 0.6431(18) 0.5627(11)
O85_2 O 0.8907(6) 0.6938(13) 0.5302(8)
C52_2 C 0.9234(9) 0.6340(2) 0.6355(13)
O86_2 O 0.8894(6) 0.6700(13) 0.6515(8)
O87_2 O 0.9573(6) 0.5937(13) 0.6703(8)
C53_2 C 0.7668(10) 0.4700(2) 0.5493(13)
O88_2 O 0.8055(6) 0.4190(13) 0.5573(8)
O89_2 O 0.7349(8) 0.4610(17) 0.5830(11)
C54_2 C 0.7666(9) 0.5429(19) 0.4998(13)
O90_2 O 0.8045(5) 0.5316(12) 0.4616(8)
C55_2 C 0.7682(8) 0.6363(17) 0.5336(11)
O91_2 O 0.8059(6) 0.6438(13) 0.5799(8)
C56_2 C 0.7727(10) 0.7060(2) 0.4761(13)
O92_2 O 0.8043(6) 0.7610(13) 0.4894(8)
O93_2 O 0.7444(7) 0.7019(14) 0.4235(9)
As15_2 As 0.8469(1) 0.4412(2) 0.4908(1)
As16_2 As 0.8483(1) 0.7371(2) 0.5808(1)
H25_2 H 0.9574 0.5186 0.5537
H26_2 H 0.9566 0.6725 0.5592
H27_2 H 0.7358 0.5390 0.4698
H28_2 H 0.7384 0.6472 0.5509
As17_2 As 0.8130(1) 0.9766(3) 0.2982(2)
O94_2 O 0.8192(8) 0.9979(17) 0.2164(11)
O95_2 O 0.8361(10) 0.8610(2) 0.3132(14)
O96_2 O 0.7531(8) 0.9447(19) 0.2709(12)
O137_2 O 0.7577(9) 0.6820(3) 0.2560(12)
Ag21_2 Ag 0.1518(1) 0.5795(2) 0.1088(1)
Ag25_2 Ag 0.9485(1) 0.5360(2) 0.3296(1)
H41_2 H 0.328549 0.33893 0.355347
H50_2 H 0.870272 0.858605 0.306844
H51_2 H 0.759151 0.746129 0.270538
H52_2 H 0.773288 0.676088 0.216875
O63_2 O 0.3746(10) 0.9340(2) 0.9319(14)
H42_2 H 0.349696 0.906609 0.954411
H43_2 H 0.379812 0.894497 0.89516
O31_3 O 0.0865(6) 0.6975(12) 0.0006(8)
O63_3 O 0.1254(10) 0.4340(2) 0.0681(14)
H42_3 H 0.150304 0.406609 0.045589
H43_3 H 0.120188 0.394497 0.10484
C1_2 C 0.0366(10) 0.0890(2) 0.6729(14)
O2_2 O 0.0654(7) 0.0510(14) 0.6506(9)
C2_2 C 0.0353(8) 0.1849(16) 0.6875(11)
C3_2 C 0.0320(8) 0.2431(16) 0.6273(11)
C4_2 C 0.0288(9) 0.3429(17) 0.6414(12)
O6_2 O 0.0575(6) 0.3787(13) 0.6811(8)
O7_3 O 0.0100(5) 0.8817(12) 0.8900(7)
O9_3 O 0.0063(6) 0.7156(12) 0.9233(8)
O10_3 O 0.0071(6) 0.7110(12) 0.7843(8)
O11_3 O 0.0062(6) 0.5439(12) 0.8158(8)
C21_3 C 0.1247(8) 0.6800(17) 0.9755(11)
O32_3 O 0.1546(6) 0.6229(14) 0.9969(9)
C22_3 C 0.1303(7) 0.7365(15) 0.9173(9)
O33_3 O 0.0935(5) 0.7993(11) 0.9024(7)
C23_3 C 0.1286(8) 0.6732(16) 0.8573(10)
O34_3 O 0.0891(6) 0.6158(12) 0.8515(8)
C24_3 C 0.1316(8) 0.7258(17) 0.7982(11)
O35_3 O 0.0929(5) 0.7241(11) 0.7552(7)
O36_3 O 0.1668(6) 0.7731(13) 0.7921(8)
As7_3 As 0.0500(1) 0.8019(2) 0.9581(1)
As8_2 As 0.0486(1) 0.6214(2) 0.7745(1)
H1_2 H 0.0647 0.2010 0.7177
H2_2 H 0.0626 0.2347 0.6114
H11_3 H 0.1614 0.7680 0.9257
H12_3 H 0.1575 0.6350 0.8658
O70_2 O 0.0047(5) 0.0420(12) 0.3139(8)
O72_2 O 0.0072(6) 0.2135(13) 0.2836(8)
O73_2 O 0.0042(6) 0.2126(12) 0.4230(8)
O74_2 O 0.0093(5) 0.3791(12) 0.3906(7)
C45_2 C 0.1292(9) 0.2276(19) 0.2993(12)
O76_2 O 0.0919(5) 0.2195(11) 0.2559(7)
C46_2 C 0.1277(8) 0.1693(16) 0.3580(11)
O78_2 O 0.0883(6) 0.1142(12) 0.3509(8)
C47_2 C 0.1286(8) 0.2283(16) 0.4155(10)
O79_2 O 0.0919(5) 0.2940(11) 0.4047(7)
C48_2 C 0.1233(8) 0.1739(17) 0.4786(11)
O80_2 O 0.1538(7) 0.1165(14) 0.4999(9)
O81_2 O 0.0867(6) 0.1914(13) 0.5015(8)
As13_2 As 0.0483(1) 0.2974(2) 0.4585(1)
As14_2 As 0.0486(1) 0.1214(2) 0.2732(1)
H23_2 H 0.1567 0.1312 0.3651
H24_2 H 0.1598 0.2597 0.4235
Ag24_2 Ag 0.0489(1) 0.0354(2) 0.1699(1)
Ag9_2 Ag 0.0604(3) 0.8829(7) 0.6787(5)
O138_2 O 0.0240(2) 0.8290(5) 0.3440(3)
H41_3 H 0.171451 0.83893 0.644653
H55_2 H 0.0371668 0.83746 0.390929
H56_2 H 0.0250533 0.763768 0.332756
C13_3 C 0.7674(9) 0.0074(19) 0.0521(12)
O20_3 O 0.7370(7) 0.0109(16) 0.0876(10)
C15_3 C 0.7703(8) 0.1674(17) 0.0222(11)
O22_3 O 0.8076(6) 0.1765(13) 0.0755(8)
C37_3 C 0.9235(9) 0.1430(2) 0.1336(12)
O55_3 O 0.8897(6) 0.1915(13) 0.1458(8)
O56_3 O 0.9528(6) 0.0982(12) 0.1700(8)
C38_3 C 0.9273(8) 0.1476(17) 0.0577(11)
O57_3 O 0.8945(6) 0.2043(12) 0.0245(8)
C39_3 C 0.9266(8) 0.0549(15) 0.0343(10)
O58_3 O 0.8858(6) 0.0091(12) 0.0512(8)
As10_3 As 0.8539(1) 0.2600(2) 0.0716(1)
H8_3 H 0.7397 0.1812 0.0366
H19_3 H 0.9592 0.1723 0.0547
H20_3 H 0.9560 0.0243 0.0556
Ag3_2 Ag 0.9511(1) 0.0354(2) 0.8301(1)
C14_3 C 0.7680(8) 0.0708(17) 0.9959(11)
O21_3 O 0.8043(5) 0.0506(11) 0.9598(7)
C16_3 C 0.7775(8) 0.2340(17) 0.9703(11)
O23_3 O 0.8123(6) 0.2879(14) 0.9818(9)
C40_3 C 0.9235(8) 0.0473(18) 0.9610(11)
O59_3 O 0.8880(6) 0.0061(13) 0.9309(8)
O60_3 O 0.9554(7) 0.0859(15) 0.9351(9)
H7_3 H 0.7370 0.0642 0.9666
As25_2 As 0.9514(1) 0.1214(2) 0.7268(1)
O19_3 O 0.8009(6) 0.9428(13) 0.0545(8)
O62_3 O 0.6709(10) 0.8160(2) 0.1687(14)
H44_3 H 0.650662 0.804684 0.125567
H45_3 H 0.674047 0.759169 0.194548
O1_2 O 0.9953(5) 0.0420(12) 0.6861(8)
O3_2 O 0.9928(6) 0.2135(13) 0.7164(8)
O4_2 O 0.9958(6) 0.2126(12) 0.5770(8)
O5_2 O 0.9907(5) 0.3791(12) 0.6094(7)
C5_3 C 0.9732(8) 0.8453(16) 0.8587(11)
O8_3 O 0.9432(6) 0.8789(13) 0.8180(8)
C6_3 C 0.9676(7) 0.7471(15) 0.8747(10)
C7_3 C 0.9656(8) 0.6856(17) 0.8143(11)
C8_3 C 0.9683(9) 0.5873(19) 0.8310(12)
O12_3 O 0.9377(8) 0.5506(17) 0.8586(11)
C9_2 C 0.8708(9) 0.2276(19) 0.7007(12)
O13_2 O 0.9081(5) 0.2195(11) 0.7441(7)
C10_2 C 0.8723(8) 0.1693(16) 0.6420(11)
O15_2 O 0.9117(6) 0.1142(12) 0.6491(8)
C11_2 C 0.8714(8) 0.2283(16) 0.5845(10)
O16_2 O 0.9081(5) 0.2940(11) 0.5953(7)
C12_2 C 0.8767(8) 0.1739(17) 0.5214(11)
O17_2 O 0.8462(7) 0.1165(14) 0.5001(9)
O18_2 O 0.9133(6) 0.1914(13) 0.4985(8)
As5_2 As 0.9517(1) 0.2974(2) 0.5415(1)
As9_3 As 0.8428(1) 0.9568 0.9887(1)
H3_3 H 0.9373 0.7399 0.8916
H4_3 H 0.9358 0.6977 0.7837
H5_2 H 0.8433 0.1312 0.6349
H6_2 H 0.8402 0.2597 0.5765
C41_2 C 0.9634(10) 0.0890(2) 0.3271(14)
O71_2 O 0.9346(7) 0.0510(14) 0.3494(9)
C42_2 C 0.9647(8) 0.1849(16) 0.3125(11)
C43_2 C 0.9680(8) 0.2431(16) 0.3727(11)
C44_2 C 0.9712(9) 0.3429(17) 0.3586(12)
O75_2 O 0.9425(6) 0.3787(13) 0.3189(8)
H21_2 H 0.9353 0.2010 0.2823
H22_2 H 0.9374 0.2347 0.3886
As27_2 As 0.9514(1) 0.6214(2) 0.2255(1)
H50_3 H 0.629728 0.358605 0.693156
O61_2 O 0.9760(2) 0.8290(5) 0.6560(3)
Ag18_2 Ag 0.9396(3) 0.8829(7) 0.3213(5)
H48_2 H 0.962833 0.83746 0.609071
H49_2 H 0.974947 0.763768 0.667244
C14_4 C 0.2320(8) 0.0708(17) 0.0041(11)
O21_4 O 0.1957(5) 0.0506(11) 0.0402(7)
C16_4 C 0.2225(8) 0.2340(17) 0.0297(11)
O23_4 O 0.1877(6) 0.2879(14) 0.0182(9)
C40_4 C 0.0765(8) 0.0473(18) 0.0390(11)
O59_4 O 0.1120(6) 0.0061(13) 0.0691(8)
O60_4 O 0.0446(7) 0.0859(15) 0.0649(9)
H7_4 H 0.2630 0.0642 0.0334
C13_4 C 0.2326(9) 0.0074(19) 0.9479(12)
O20_4 O 0.2630(7) 0.0109(16) 0.9124(10)
C15_4 C 0.2297(8) 0.1674(17) 0.9778(11)
O22_4 O 0.1924(6) 0.1765(13) 0.9245(8)
C37_4 C 0.0765(9) 0.1430(2) 0.8664(12)
O55_4 O 0.1103(6) 0.1915(13) 0.8542(8)
O56_4 O 0.0472(6) 0.0982(12) 0.8300(8)
C38_4 C 0.0727(8) 0.1476(17) 0.9423(11)
O57_4 O 0.1055(6) 0.2043(12) 0.9755(8)
C39_4 C 0.0734(8) 0.0549(15) 0.9657(10)
O58_4 O 0.1142(6) 0.0091(12) 0.9488(8)
As10_4 As 0.1461(1) 0.2600(2) 0.9284(1)
H8_4 H 0.2603 0.1812 0.9634
H19_4 H 0.0408 0.1723 0.9453
H20_4 H 0.0440 0.0243 0.9444
C5_4 C 0.0268(8) 0.8453(16) 0.1413(11)
O8_4 O 0.0568(6) 0.8789(13) 0.1820(8)
C6_4 C 0.0324(7) 0.7471(15) 0.1253(10)
C7_4 C 0.0344(8) 0.6856(17) 0.1857(11)
C8_4 C 0.0317(9) 0.5873(19) 0.1690(12)
O12_4 O 0.0623(8) 0.5506(17) 0.1414(11)
As9_4 As 0.1572(1) 0.9568 0.0113(1)
H3_4 H 0.0627 0.7399 0.1084
H4_4 H 0.0642 0.6977 0.2163
H50_4 H 0.370272 0.358605 0.306844
O19_4 O 0.1991(6) 0.9428(13) 0.9455(8)
O62_4 O 0.3291(10) 0.8160(2) 0.8313(14)
H44_4 H 0.349338 0.804684 0.874433
H45_4 H 0.325953 0.759169 0.805452
O7_4 O 0.9900(5) 0.8817(12) 0.1100(7)
O9_4 O 0.9937(6) 0.7156(12) 0.0767(8)
O10_4 O 0.9929(6) 0.7110(12) 0.2157(8)
O11_4 O 0.9938(6) 0.5439(12) 0.1842(8)
C21_4 C 0.8753(8) 0.6800(17) 0.0245(11)
O32_4 O 0.8454(6) 0.6229(14) 0.0031(9)
C22_4 C 0.8697(7) 0.7365(15) 0.0827(9)
O33_4 O 0.9065(5) 0.7993(11) 0.0976(7)
C23_4 C 0.8714(8) 0.6732(16) 0.1427(10)
O34_4 O 0.9109(6) 0.6158(12) 0.1485(8)
C24_4 C 0.8684(8) 0.7258(17) 0.2018(11)
O35_4 O 0.9071(5) 0.7241(11) 0.2448(7)
O36_4 O 0.8332(6) 0.7731(13) 0.2079(8)
As7_4 As 0.9500(1) 0.8019(2) 0.0419(1)
H11_4 H 0.8386 0.7680 0.0743
H12_4 H 0.8425 0.6350 0.1342
O31_4 O 0.9135(6) 0.6975(12) 0.9994(8)
O63_4 O 0.8746(10) 0.4340(2) 0.9319(14)
H42_4 H 0.849696 0.406609 0.954411
H43_4 H 0.879812 0.394497 0.89516
H41_4 H 0.828549 0.83893 0.355347
loop_
_geom_bond_atom_site_label_1
_geom_bond_atom_site_label_2
_geom_bond_site_symmetry_1
_geom_bond_site_symmetry_2
Ag4 O20 1_555 1_555
Ag5 O22 1_555 1_555
C13 O19 1_555 1_555
O20 C13 1_555 1_555
O22 C15 1_555 1_555
C37 O55 1_555 1_555
O55 As10 1_555 1_555
O56 C37 1_555 1_555
C38 C37 1_555 1_555
O57 C38 1_555 1_555
C39 C38 1_555 1_555
O58 C39 1_555 1_555
As10 O22 1_555 1_555
O62 Ag4 1_555 1_555
H8 C15 1_555 1_555
H19 C38 1_555 1_555
H20 C39 1_555 1_555
C57 O99 1_555 1_555
O99 As19 1_555 1_555
O100 C57 1_555 1_555
C58 C57 1_555 1_555
O101 C58 1_555 1_555
C59 C58 1_555 1_555
O102 C59 1_555 1_555
C60 C59 1_555 1_555
O103 C60 1_555 1_555
O104 C60 1_555 1_555
C61 O105 1_555 1_555
O105 As19 1_555 1_555
O106 Ag7 1_555 1_555
C62 C61 1_555 1_555
O107 C62 1_555 1_555
C63 C62 1_555 1_555
O108 C63 1_555 1_555
C64 C63 1_555 1_555
O109 C64 1_555 1_555
O110 C64 1_555 1_555
As19 O101 1_555 1_555
As20 O102 1_555 1_555
H29 C58 1_555 1_555
H30 C59 1_555 1_555
H31 C62 1_555 1_555
H32 C63 1_555 1_555
O139 Ag4 1_555 1_555
O140 Ag5 1_555 1_555
O141 Ag5 1_555 1_555
O142 Ag5 1_555 1_555
Ag29 O101 1_555 1_555
Ag30 O102 1_555 1_555
Ag31 O104 1_555 1_555
O57 As10 1_555 1_555
O103 As20 1_555 1_555
C61 O106 1_555 1_555
O107 As19 1_555 1_555
O108 As20 1_555 1_555
O109 As20 1_555 1_555
O62 H44 1_555 1_555
O62 H45 1_555 1_555
C5 O7 1_555 1_555
O7 As7 1_555 1_555
O8 C5 1_555 1_555
C6 C5 1_555 1_555
O9 C6 1_555 1_555
C7 C6 1_555 1_555
O10 C7 1_555 1_555
C8 C7 1_555 1_555
O11 C8 1_555 1_555
O12 C8 1_555 1_555
Ag3 O8 1_555 1_555
Ag8 O39 1_555 1_555
O21 C14 1_555 1_555
O23 C16 1_555 1_555
O24 C16 1_555 1_555
C17 O25 1_555 1_555
O26 Ag1 1_555 1_555
C18 C17 1_555 1_555
C19 C18 1_555 1_555
O28 C19 1_555 1_555
C20 C19 1_555 1_555
O29 C20 1_555 1_555
O30 C20 1_555 1_555
O32 C21 1_555 1_555
C22 C21 1_555 1_555
O33 C22 1_555 1_555
C23 C22 1_555 1_555
O34 C23 1_555 1_555
C24 C23 1_555 1_555
O35 C24 1_555 1_555
O36 C24 1_555 1_555
O39 C26 1_555 1_555
C27 C26 1_555 1_555
O40 C27 1_555 1_555
C28 C27 1_555 1_555
O41 C28 1_555 1_555
O42 C28 1_555 1_555
O59 C40 1_555 1_555
O60 Ag3 1_555 1_555
As3 O28 1_555 1_555
As7 O9 1_555 1_555
As8 O10 1_555 1_555
As9 O21 1_555 1_555
O64 Ag8 1_555 1_555
H3 C6 1_555 1_555
H4 C7 1_555 1_555
H7 C14 1_555 1_555
H9 C18 1_555 1_555
H10 C19 1_555 1_555
H11 C22 1_555 1_555
H12 C23 1_555 1_555
H13 C26 1_555 1_555
H14 C27 1_555 1_555
Ag12 O42 1_555 1_555
O98 As18 1_555 1_555
As25 Ag3 1_555 1_555
Ag19 O24 1_555 1_555
O145 Ag12 1_555 1_555
O146 Ag12 1_555 1_555
Ag27 O98 1_555 1_555
O147 Ag13 1_555 1_555
As27 Ag13 1_555 1_555
O11 As8 1_555 1_555
Ag1 As8 1_555 1_555
C17 O26 1_555 1_555
O29 As3 1_555 1_555
O33 As7 1_555 1_555
O34 As8 1_555 1_555
O35 As8 1_555 1_555
O40 As3 1_555 1_555
O41 As3 1_555 1_555
C40 O60 1_555 1_555
O59 As9 1_555 1_555
O64 H46 1_555 1_555
O64 H47 1_555 1_555
O63 H42 1_555 1_555
O63 H43 1_555 1_555
C1 O1 1_555 1_555
O1 As25 1_555 1_555
O2 C1 1_555 1_555
C2 C1 1_555 1_555
O3 C2 1_555 1_555
C3 C2 1_555 1_555
O4 C3 1_555 1_555
C4 C3 1_555 1_555
O5 C4 1_555 1_555
O6 C4 1_555 1_555
Ag2 O2 1_555 1_555
Ag6 O14 1_555 1_555
Ag9 O2 1_555 1_555
C9 O13 1_555 1_555
O13 As25 1_555 1_555
O14 C9 1_555 1_555
C10 C9 1_555 1_555
O15 C10 1_555 1_555
C11 C10 1_555 1_555
O16 C11 1_555 1_555
C12 C11 1_555 1_555
O17 C12 1_555 1_555
O18 C12 1_555 1_555
C25 O37 1_555 1_555
O37 As1 1_555 1_555
O38 C25 1_555 1_555
C29 O43 1_555 1_555
O43 As2 1_555 1_555
C30 C29 1_555 1_555
O45 C30 1_555 1_555
C31 C30 1_555 1_555
C32 C31 1_555 1_555
O47 C32 1_555 1_555
O48 Ag2 1_555 1_555
C33 O49 1_555 1_555
O49 As2 1_555 1_555
O50 C33 1_555 1_555
C34 C33 1_555 1_555
O51 C34 1_555 1_555
C35 C34 1_555 1_555
O52 C35 1_555 1_555
C36 C35 1_555 1_555
O53 C36 1_555 1_555
As1 O27 1_555 1_555
As2 O45 1_555 1_555
As4 O46 1_555 1_555
As5 O4 1_555 1_555
As25 O3 1_555 1_555
As11 Ag2 1_555 1_555
As12 O146 1_555 1_555
O61 Ag9 1_555 1_555
O65 As11 1_555 1_555
O66 As11 1_555 1_555
O146 As11 1_555 1_555
O68 As12 1_555 1_555
O69 As12 1_555 1_555
H1 C2 1_555 1_555
H2 C3 1_555 1_555
H5 C10 1_555 1_555
H6 C11 1_555 1_555
H15 C30 1_555 1_555
H16 C31 1_555 1_555
H17 C34 1_555 1_555
H18 C35 1_555 1_555
Ag10 O17 1_555 1_555
C41 O70 1_555 1_555
O70 As14 1_555 1_555
O71 Ag10 1_555 1_555
C42 C41 1_555 1_555
O72 C42 1_555 1_555
C43 C42 1_555 1_555
O73 C43 1_555 1_555
C44 C43 1_555 1_555
O74 C44 1_555 1_555
O75 C44 1_555 1_555
C45 O76 1_555 1_555
O76 As14 1_555 1_555
O77 C45 1_555 1_555
C46 C45 1_555 1_555
O78 C46 1_555 1_555
C47 C46 1_555 1_555
O79 C47 1_555 1_555
C48 C47 1_555 1_555
O80 Ag2 1_555 1_555
O81 C48 1_555 1_555
As13 O73 1_555 1_555
As14 O72 1_555 1_555
H21 C42 1_555 1_555
H22 C43 1_555 1_555
H23 C46 1_555 1_555
H24 C47 1_555 1_555
C49 O82 1_555 1_555
O82 As15 1_555 1_555
O83 C49 1_555 1_555
C50 C49 1_555 1_555
O84 C50 1_555 1_555
C51 C50 1_555 1_555
O85 C51 1_555 1_555
C52 C51 1_555 1_555
O86 C52 1_555 1_555
O87 C52 1_555 1_555
C53 O88 1_555 1_555
O88 As15 1_555 1_555
O89 C53 1_555 1_555
C54 C53 1_555 1_555
O90 C54 1_555 1_555
C55 C54 1_555 1_555
O91 C55 1_555 1_555
C56 C55 1_555 1_555
O92 C56 1_555 1_555
O93 Ag6 1_555 1_555
As15 O84 1_555 1_555
As16 O85 1_555 1_555
H25 C50 1_555 1_555
H26 C51 1_555 1_555
H27 C54 1_555 1_555
H28 C55 1_555 1_555
As17 O94 1_555 1_555
O95 As17 1_555 1_555
O96 Ag6 1_555 1_555
Ag17 O90 1_555 1_555
Ag18 O71 1_555 1_555
O137 Ag17 1_555 1_555
O138 Ag18 1_555 1_555
Ag20 O45 1_555 1_555
Ag21 O50 1_555 1_555
O144 Ag10 1_555 1_555
As26 Ag10 1_555 1_555
Ag23 O77 1_555 1_555
Ag24 As14 1_555 1_555
Ag25 O83 1_555 1_555
O154 Ag17 1_555 1_555
O5 As5 1_555 1_555
O15 As25 1_555 1_555
O16 As5 1_555 1_555
O18 As5 1_555 1_555
C31 O46 1_555 1_555
C32 O48 1_555 1_555
O47 As4 1_555 1_555
O51 As2 1_555 1_555
O52 As4 1_555 1_555
O53 As4 1_555 1_555
O65 Ag20 1_555 1_555
O68 Ag21 1_555 1_555
O69 Ag20 1_555 1_555
C41 O71 1_555 1_555
O74 As13 1_555 1_555
O78 As14 1_555 1_555
O79 As13 1_555 1_555
C48 O80 1_555 1_555
O81 As13 1_555 1_555
O86 As16 1_555 1_555
O90 As15 1_555 1_555
O91 As16 1_555 1_555
C56 O93 1_555 1_555
O92 As16 1_555 1_555
As17 O96 1_555 1_555
O66 H41 1_555 1_555
O61 H48 1_555 1_555
O61 H49 1_555 1_555
O95 H50 1_555 1_555
O137 H51 1_555 1_555
O137 H52 1_555 1_555
O138 H55 1_555 1_555
O138 H56 1_555 1_555
C5_2 O7_2 1_555 1_555
O7_2 As7_2 1_555 1_555
O8_2 C5_2 1_555 1_555
C6_2 C5_2 1_555 1_555
O9_2 C6_2 1_555 1_555
C7_2 C6_2 1_555 1_555
O10_2 C7_2 1_555 1_555
C8_2 C7_2 1_555 1_555
O11_2 C8_2 1_555 1_555
O12_2 C8_2 1_555 1_555
Ag24 O8_2 1_555 1_555
Ag8_2 O39_2 1_555 1_555
O21_2 C14_2 1_555 1_555
O23_2 C16_2 1_555 1_555
O24_2 C16_2 1_555 1_555
C17_2 O25_2 1_555 1_555
C18_2 C17_2 1_555 1_555
C19_2 C18_2 1_555 1_555
O28_2 C19_2 1_555 1_555
C20_2 C19_2 1_555 1_555
O29_2 C20_2 1_555 1_555
O30_2 C20_2 1_555 1_555
O32_2 C21_2 1_555 1_555
C22_2 C21_2 1_555 1_555
O33_2 C22_2 1_555 1_555
C23_2 C22_2 1_555 1_555
O34_2 C23_2 1_555 1_555
C24_2 C23_2 1_555 1_555
O35_2 C24_2 1_555 1_555
O36_2 C24_2 1_555 1_555
O39_2 C26_2 1_555 1_555
C27_2 C26_2 1_555 1_555
O40_2 C27_2 1_555 1_555
C28_2 C27_2 1_555 1_555
O41_2 C28_2 1_555 1_555
O42_2 C28_2 1_555 1_555
O59_2 C40_2 1_555 1_555
O60_2 Ag24 1_555 1_555
As3_2 O28_2 1_555 1_555
As7_2 O9_2 1_555 1_555
As27 O10_2 1_555 1_555
As9_2 O21_2 1_555 1_555
O64_2 Ag8_2 1_555 1_555
H3_2 C6_2 1_555 1_555
H4_2 C7_2 1_555 1_555
H7_2 C14_2 1_555 1_555
H9_2 C18_2 1_555 1_555
H10_2 C19_2 1_555 1_555
H11_2 C22_2 1_555 1_555
H12_2 C23_2 1_555 1_555
H13_2 C26_2 1_555 1_555
H14_2 C27_2 1_555 1_555
Ag12_2 O42_2 1_555 1_555
O98_2 As18_2 1_555 1_555
Ag19_2 O24_2 1_555 1_555
O145_2 Ag12_2 1_555 1_555
O146_2 Ag12_2 1_555 1_555
Ag29 O98_2 1_555 1_555
O11_2 As27 1_555 1_555
C17_2 O147 1_555 1_555
O29_2 As3_2 1_555 1_555
O33_2 As7_2 1_555 1_555
O34_2 As27 1_555 1_555
O35_2 As27 1_555 1_555
O40_2 As3_2 1_555 1_555
O41_2 As3_2 1_555 1_555
C40_2 O60_2 1_555 1_555
O59_2 As9_2 1_555 1_555
O64_2 H46_2 1_555 1_555
O64_2 H47_2 1_555 1_555
Ag4_2 O20_2 1_555 1_555
Ag20 O22_2 1_555 1_555
C13_2 O19_2 1_555 1_555
O20_2 C13_2 1_555 1_555
O22_2 C15_2 1_555 1_555
C37_2 O55_2 1_555 1_555
O55_2 As10_2 1_555 1_555
O56_2 C37_2 1_555 1_555
C38_2 C37_2 1_555 1_555
O57_2 C38_2 1_555 1_555
C39_2 C38_2 1_555 1_555
O58_2 C39_2 1_555 1_555
As10_2 O22_2 1_555 1_555
O62_2 Ag4_2 1_555 1_555
H8_2 C15_2 1_555 1_555
H19_2 C38_2 1_555 1_555
H20_2 C39_2 1_555 1_555
C57_2 O99_2 1_555 1_555
O99_2 As19_2 1_555 1_555
O100_2 C57_2 1_555 1_555
C58_2 C57_2 1_555 1_555
O101_2 C58_2 1_555 1_555
C59_2 C58_2 1_555 1_555
O154 C59_2 1_555 1_555
C60_2 C59_2 1_555 1_555
O103_2 C60_2 1_555 1_555
O104_2 C60_2 1_555 1_555
C61_2 O105_2 1_555 1_555
O105_2 As19_2 1_555 1_555
O106_2 Ag28 1_555 1_555
C62_2 C61_2 1_555 1_555
O107_2 C62_2 1_555 1_555
C63_2 C62_2 1_555 1_555
O108_2 C63_2 1_555 1_555
C64_2 C63_2 1_555 1_555
O109_2 C64_2 1_555 1_555
O110_2 C64_2 1_555 1_555
As19_2 O101_2 1_555 1_555
As20_2 O154 1_555 1_555
H29_2 C58_2 1_555 1_555
H30_2 C59_2 1_555 1_555
H31_2 C62_2 1_555 1_555
H32_2 C63_2 1_555 1_555
O139_2 Ag4_2 1_555 1_555
Ag27 O101_2 1_555 1_555
Ag26 O104_2 1_555 1_555
O57_2 As10_2 1_555 1_555
O103_2 As20_2 1_555 1_555
C61_2 O106_2 1_555 1_555
O107_2 As19_2 1_555 1_555
O108_2 As20_2 1_555 1_555
O109_2 As20_2 1_555 1_555
O62_2 H44_2 1_555 1_555
O62_2 H45_2 1_555 1_555
C25_2 O37_2 1_555 1_555
O37_2 As1_2 1_555 1_555
O38_2 C25_2 1_555 1_555
C29_2 O43_2 1_555 1_555
O43_2 As2_2 1_555 1_555
C30_2 C29_2 1_555 1_555
O140 C30_2 1_555 1_555
C31_2 C30_2 1_555 1_555
C32_2 C31_2 1_555 1_555
O47_2 C32_2 1_555 1_555
C33_2 O49_2 1_555 1_555
O49_2 As2_2 1_555 1_555
O50_2 C33_2 1_555 1_555
C34_2 C33_2 1_555 1_555
O51_2 C34_2 1_555 1_555
C35_2 C34_2 1_555 1_555
O52_2 C35_2 1_555 1_555
C36_2 C35_2 1_555 1_555
O53_2 C36_2 1_555 1_555
As1_2 O27_2 1_555 1_555
As2_2 O140 1_555 1_555
As4_2 O46_2 1_555 1_555
As12_2 O146_2 1_555 1_555
O141 As26 1_555 1_555
O66_2 As26 1_555 1_555
O146_2 As26 1_555 1_555
O68_2 As12_2 1_555 1_555
O142 As12_2 1_555 1_555
H15_2 C30_2 1_555 1_555
H16_2 C31_2 1_555 1_555
H17_2 C34_2 1_555 1_555
H18_2 C35_2 1_555 1_555
C49_2 O82_2 1_555 1_555
O82_2 As15_2 1_555 1_555
O83_2 C49_2 1_555 1_555
C50_2 C49_2 1_555 1_555
O84_2 C50_2 1_555 1_555
C51_2 C50_2 1_555 1_555
O85_2 C51_2 1_555 1_555
C52_2 C51_2 1_555 1_555
O86_2 C52_2 1_555 1_555
O87_2 C52_2 1_555 1_555
C53_2 O88_2 1_555 1_555
O88_2 As15_2 1_555 1_555
O89_2 C53_2 1_555 1_555
C54_2 C53_2 1_555 1_555
O90_2 C54_2 1_555 1_555
C55_2 C54_2 1_555 1_555
O91_2 C55_2 1_555 1_555
C56_2 C55_2 1_555 1_555
O92_2 C56_2 1_555 1_555
O93_2 Ag23 1_555 1_555
As15_2 O84_2 1_555 1_555
As16_2 O85_2 1_555 1_555
H25_2 C50_2 1_555 1_555
H26_2 C51_2 1_555 1_555
H27_2 C54_2 1_555 1_555
H28_2 C55_2 1_555 1_555
As17_2 O94_2 1_555 1_555
O95_2 As17_2 1_555 1_555
O96_2 Ag23 1_555 1_555
Ag30 O90_2 1_555 1_555
O137_2 Ag30 1_555 1_555
Ag21_2 O50_2 1_555 1_555
Ag25_2 O83_2 1_555 1_555
C31_2 O46_2 1_555 1_555
C32_2 O144 1_555 1_555
O47_2 As4_2 1_555 1_555
O51_2 As2_2 1_555 1_555
O52_2 As4_2 1_555 1_555
O53_2 As4_2 1_555 1_555
O68_2 Ag21_2 1_555 1_555
O86_2 As16_2 1_555 1_555
O90_2 As15_2 1_555 1_555
O91_2 As16_2 1_555 1_555
C56_2 O93_2 1_555 1_555
O92_2 As16_2 1_555 1_555
As17_2 O96_2 1_555 1_555
O66_2 H41_2 1_555 1_555
O95_2 H50_2 1_555 1_555
O137_2 H51_2 1_555 1_555
O137_2 H52_2 1_555 1_555
O63_2 H42_2 1_555 1_555
O63_2 H43_2 1_555 1_555
O63_3 Ag21_2 1_555 1_555
O63_3 H42_3 1_555 1_555
O63_3 H43_3 1_555 1_555
O2_2 C1_2 1_555 1_555
C2_2 C1_2 1_555 1_555
C3_2 C2_2 1_555 1_555
C4_2 C3_2 1_555 1_555
O6_2 C4_2 1_555 1_555
O7_3 As7_3 1_555 1_555
Ag25 O6_2 1_555 1_555
Ag26 O2_2 1_555 1_555
O32_3 C21_3 1_555 1_555
C22_3 C21_3 1_555 1_555
O33_3 C22_3 1_555 1_555
C23_3 C22_3 1_555 1_555
O34_3 C23_3 1_555 1_555
C24_3 C23_3 1_555 1_555
O35_3 C24_3 1_555 1_555
O36_3 C24_3 1_555 1_555
As7_3 O9_3 1_555 1_555
As8_2 O10_3 1_555 1_555
H1_2 C2_2 1_555 1_555
H2_2 C3_2 1_555 1_555
H11_3 C22_3 1_555 1_555
H12_3 C23_3 1_555 1_555
O70_2 As14_2 1_555 1_555
C45_2 O76_2 1_555 1_555
O76_2 As14_2 1_555 1_555
O145_2 C45_2 1_555 1_555
C46_2 C45_2 1_555 1_555
O78_2 C46_2 1_555 1_555
C47_2 C46_2 1_555 1_555
O79_2 C47_2 1_555 1_555
C48_2 C47_2 1_555 1_555
O80_2 Ag26 1_555 1_555
O81_2 C48_2 1_555 1_555
As13_2 O73_2 1_555 1_555
As14_2 O72_2 1_555 1_555
H23_2 C46_2 1_555 1_555
H24_2 C47_2 1_555 1_555
Ag24_2 As14_2 1_555 1_555
O11_3 As8_2 1_555 1_555
Ag25 As8_2 1_555 1_555
O33_3 As7_3 1_555 1_555
O34_3 As8_2 1_555 1_555
O35_3 As8_2 1_555 1_555
O74_2 As13_2 1_555 1_555
O78_2 As14_2 1_555 1_555
O79_2 As13_2 1_555 1_555
C48_2 O80_2 1_555 1_555
O81_2 As13_2 1_555 1_555
O95 H41_3 1_555 1_555
O138_2 H55_2 1_555 1_555
O138_2 H56_2 1_555 1_555
Ag29 O22_3 1_555 1_555
O20_3 C13_3 1_555 1_555
O22_3 C15_3 1_555 1_555
C37_3 O55_3 1_555 1_555
O55_3 As10_3 1_555 1_555
O56_3 C37_3 1_555 1_555
C38_3 C37_3 1_555 1_555
O57_3 C38_3 1_555 1_555
C39_3 C38_3 1_555 1_555
O58_3 C39_3 1_555 1_555
As10_3 O22_3 1_555 1_555
H8_3 C15_3 1_555 1_555
H19_3 C38_3 1_555 1_555
H20_3 C39_3 1_555 1_555
O57_3 As10_3 1_555 1_555
O21_3 C14_3 1_555 1_555
O23_3 C16_3 1_555 1_555
O139_2 C16_3 1_555 1_555
O59_3 C40_3 1_555 1_555
O60_3 Ag3_2 1_555 1_555
H7_3 C14_3 1_555 1_555
As25_2 Ag3_2 1_555 1_555
C40_3 O60_3 1_555 1_555
O62_3 Ag19_2 1_555 1_555
O62_3 H44_3 1_555 1_555
O62_3 H45_3 1_555 1_555
O1_2 As25_2 1_555 1_555
O8_3 C5_3 1_555 1_555
C6_3 C5_3 1_555 1_555
C7_3 C6_3 1_555 1_555
C8_3 C7_3 1_555 1_555
O12_3 C8_3 1_555 1_555
C9_2 O13_2 1_555 1_555
O13_2 As25_2 1_555 1_555
O145 C9_2 1_555 1_555
C10_2 C9_2 1_555 1_555
O15_2 C10_2 1_555 1_555
C11_2 C10_2 1_555 1_555
O16_2 C11_2 1_555 1_555
C12_2 C11_2 1_555 1_555
O17_2 C12_2 1_555 1_555
O18_2 C12_2 1_555 1_555
As5_2 O4_2 1_555 1_555
As25_2 O3_2 1_555 1_555
H3_3 C6_3 1_555 1_555
H4_3 C7_3 1_555 1_555
H5_2 C10_2 1_555 1_555
H6_2 C11_2 1_555 1_555
Ag31 O17_2 1_555 1_555
O71_2 Ag31 1_555 1_555
C42_2 C41_2 1_555 1_555
C43_2 C42_2 1_555 1_555
C44_2 C43_2 1_555 1_555
O75_2 C44_2 1_555 1_555
H21_2 C42_2 1_555 1_555
H22_2 C43_2 1_555 1_555
Ag25_2 O75_2 1_555 1_555
As27_2 Ag25_2 1_555 1_555
O5_2 As5_2 1_555 1_555
O15_2 As25_2 1_555 1_555
O16_2 As5_2 1_555 1_555
O18_2 As5_2 1_555 1_555
C41_2 O71_2 1_555 1_555
O66 H50_3 1_555 1_555
O61_2 H48_2 1_555 1_555
O61_2 H49_2 1_555 1_555
O21_4 C14_4 1_555 1_555
O23_4 C16_4 1_555 1_555
O139 C16_4 1_555 1_555
O59_4 C40_4 1_555 1_555
O60_4 Ag24_2 1_555 1_555
H7_4 C14_4 1_555 1_555
C40_4 O60_4 1_555 1_555
Ag27 O22_4 1_555 1_555
O20_4 C13_4 1_555 1_555
O22_4 C15_4 1_555 1_555
C37_4 O55_4 1_555 1_555
O55_4 As10_4 1_555 1_555
O56_4 C37_4 1_555 1_555
C38_4 C37_4 1_555 1_555
O57_4 C38_4 1_555 1_555
C39_4 C38_4 1_555 1_555
O58_4 C39_4 1_555 1_555
As10_4 O22_4 1_555 1_555
H8_4 C15_4 1_555 1_555
H19_4 C38_4 1_555 1_555
H20_4 C39_4 1_555 1_555
O57_4 As10_4 1_555 1_555
O8_4 C5_4 1_555 1_555
C6_4 C5_4 1_555 1_555
C7_4 C6_4 1_555 1_555
C8_4 C7_4 1_555 1_555
O12_4 C8_4 1_555 1_555
H3_4 C6_4 1_555 1_555
H4_4 C7_4 1_555 1_555
O66_2 H50_4 1_555 1_555
O62_4 Ag19 1_555 1_555
O62_4 H44_4 1_555 1_555
O62_4 H45_4 1_555 1_555
O7_4 As7_4 1_555 1_555
O32_4 C21_4 1_555 1_555
C22_4 C21_4 1_555 1_555
O33_4 C22_4 1_555 1_555
C23_4 C22_4 1_555 1_555
O34_4 C23_4 1_555 1_555
C24_4 C23_4 1_555 1_555
O35_4 C24_4 1_555 1_555
O36_4 C24_4 1_555 1_555
As7_4 O9_4 1_555 1_555
As27_2 O10_4 1_555 1_555
H11_4 C22_4 1_555 1_555
H12_4 C23_4 1_555 1_555
O11_4 As27_2 1_555 1_555
O33_4 As7_4 1_555 1_555
O34_4 As27_2 1_555 1_555
O35_4 As27_2 1_555 1_555
O63_4 Ag21 1_555 1_555
O63_4 H42_4 1_555 1_555
O63_4 H43_4 1_555 1_555
O95_2 H41_4 1_555 1_555

#END
