
###############################################################################
#
# This file contains modified crystal structure data generated from the
# MOF subset of the Cambridge Structural Database (CSD) v543 
# hosted by the Cambridge Crystallographic Data Centre (CCDC).
#
# This work is licensed under the Creative Commons
# Attribution-NonCommercial-ShareAlike 4.0 International License.
# To view a copy of this license, visit
# http://creativecommons.org/licenses/by-nc-sa/4.0/
# or send a letter to
# Creative Commons, PO Box 1866, Mountain View, CA 94042, USA.
#
# CIF created using the CSD Python API on 29 September 2022
# The structure has been converted into the P1 space group
# The structure has a 3D framework
# The original CSD entry WOYBAQ is in the triclinic crystal system
# The framework has been calculated to contain at least 10.0% void space
# The void calculation uses a probe of radius 1.32A, grid spacing 0.4
#
###############################################################################

data_WOYBAQ
_chemical_formula_moiety         '(C10 H12 Gd2 O14)n'
_symmetry_cell_setting           triclinic
_symmetry_space_group_name_H-M   'P 1'
_symmetry_Int_Tables_number      1
_space_group_name_Hall           'P 1'
loop_
_symmetry_equiv_pos_site_id
_symmetry_equiv_pos_as_xyz
1 x,y,z
_cell_length_a                   6.0605(4)
_cell_length_b                   7.7412(5)
_cell_length_c                   10.4334(7)
_cell_angle_alpha                96.583(2)
_cell_angle_beta                 97.241(2)
_cell_angle_gamma                95.907(2)
_cell_volume                     478.95
loop_
_atom_site_label
_atom_site_type_symbol
_atom_site_fract_x
_atom_site_fract_y
_atom_site_fract_z
_atom_site_U_iso_or_equiv
_atom_site_thermal_displace_type
O13 O 0.1326(3) 0.2489(3) 0.1920(2) 0.0223 Uani
Gd8 Gd 0.46824(2) 0.43977(2) 0.19402(2) 0.0132 Uani
O1 O 0.3847(4) 0.3429(3) 0.9628(2) 0.0218 Uani
O2 O 0.3239(4) 0.2645(3) 0.7534(2) 0.0231 Uani
C1 C 0.3075(5) 0.2302(4) 0.8661(3) 0.0154 Uani
C5 C 0.1920(5) 0.0577(4) 0.8903(3) 0.0217 Uani
H5 H 0.033096 0.066644 0.888008 0.0260 Uiso
H6 H 0.249318 0.034640 0.976982 0.0260 Uiso
Gd5 Gd 0.53176(2) 0.56023(2) 0.80598(2) 0.0132 Uani
O20 O 0.6153(4) 0.6571(3) 0.0372(2) 0.0218 Uani
O3 O 0.3163(4) 0.5711(4) 0.3814(2) 0.0332 Uani
O5 O 0.1650(3) 0.6102(3) 0.8430(2) 0.0200 Uani
O6 O 0.4504(3) 0.8681(3) 0.8098(2) 0.0205 Uani
H1 H 0.520(3) 0.942(3) 0.768(3) 0.0310 Uiso
O7 O 0.3330(4) 0.6080(4) 0.5979(2) 0.0331 Uani
O8 O 0.8177(4) 0.3731(3) 0.8689(3) 0.0325 Uani
H2 H 0.794142 0.274632 0.818718 0.0490 Uiso
H3 H 0.803985 0.344146 0.945165 0.0490 Uiso
C2 C 0.0726(5) 0.7430(4) 0.8161(3) 0.0159 Uani
C3 C 0.2225(5) 0.9049(4) 0.7929(3) 0.0172 Uani
H4 H 0.181023 0.931851 0.704212 0.0210 Uiso
C4 C 0.3985(6) 0.5510(4) 0.4938(3) 0.0248 Uani
O9 O 0.6837(4) 0.4289(4) 0.6186(2) 0.0332 Uani
O10 O 0.6670(4) 0.3920(4) 0.4021(2) 0.0331 Uani
C6 C 0.6015(6) 0.4490(4) 0.5062(3) 0.0248 Uani
O14 O 0.8350(3) 0.3898(3) 0.1570(2) 0.0200 Uani
O15 O 0.5496(3) 0.1319(3) 0.1902(2) 0.0205 Uani
H7 H 0.480(3) 0.058(3) 0.232(3) 0.0310 Uiso
O16 O 0.1823(4) 0.6269(3) 0.1311(3) 0.0325 Uani
H8 H 0.205858 0.725368 0.181282 0.0490 Uiso
H9 H 0.196015 0.655854 0.054835 0.0490 Uiso
C8 C 0.9274(5) 0.2570(4) 0.1839(3) 0.0159 Uani
C9 C 0.7775(5) 0.0951(4) 0.2071(3) 0.0172 Uani
H10 H 0.818977 0.068149 0.295788 0.0210 Uiso
O22 O 0.6761(4) 0.7355(3) 0.2466(2) 0.0231 Uani
O23 O 0.8674(3) 0.7511(3) 0.8080(2) 0.0223 Uani
C7 C 0.6925(5) 0.7698(4) 0.1339(3) 0.0154 Uani
C10 C 0.8080(5) 0.9423(4) 0.1097(3) 0.0217 Uani
H11 H 0.966904 0.933356 0.111992 0.0260 Uiso
H12 H 0.750682 0.965360 0.023018 0.0260 Uiso
loop_
_atom_site_aniso_label
_atom_site_aniso_U_11
_atom_site_aniso_U_22
_atom_site_aniso_U_33
_atom_site_aniso_U_23
_atom_site_aniso_U_13
_atom_site_aniso_U_12
O13 0.0115 0.0164 0.0389 0.0031 0.0041 0.0008
Gd8 0.01108 0.01259 0.01581 0.00086 0.00225 0.00089
O1 0.0255 0.0197 0.0181 -0.0011 0.0006 -0.0001
O2 0.0299 0.0206 0.0172 0.0021 0.0029 -0.003
C1 0.0131 0.0114 0.0225 0.003 0.0047 0.002
C5 0.0242 0.0138 0.0279 0.0019 0.0109 -0.0015
Gd5 0.01108 0.01259 0.01581 0.00086 0.00225 0.00089
O20 0.0255 0.0197 0.0181 -0.0011 0.0006 -0.0001
O3 0.0337 0.048 0.0199 0.0031 0.003 0.0165
O5 0.013 0.0168 0.0327 0.0108 0.0055 0.0025
O6 0.0119 0.0158 0.0347 0.005 0.0062 0.0007
O7 0.0388 0.043 0.0201 0.0001 0.0073 0.0179
O8 0.0254 0.0344 0.0432 0.02 0.0093 0.0078
C2 0.0148 0.0136 0.0184 -0.002 0.0038 0.0002
C3 0.0133 0.0164 0.0211 0.0023 0.001 0.0002
C4 0.0291 0.0255 0.0195 0.0023 0.0052 0.0005
O9 0.0337 0.048 0.0199 0.0031 0.003 0.0165
O10 0.0388 0.043 0.0201 0.0001 0.0073 0.0179
C6 0.0291 0.0255 0.0195 0.0023 0.0052 0.0005
O14 0.013 0.0168 0.0327 0.0108 0.0055 0.0025
O15 0.0119 0.0158 0.0347 0.005 0.0062 0.0007
O16 0.0254 0.0344 0.0432 0.02 0.0093 0.0078
C8 0.0148 0.0136 0.0184 -0.002 0.0038 0.0002
C9 0.0133 0.0164 0.0211 0.0023 0.001 0.0002
O22 0.0299 0.0206 0.0172 0.0021 0.0029 -0.003
O23 0.0115 0.0164 0.0389 0.0031 0.0041 0.0008
C7 0.0131 0.0114 0.0225 0.003 0.0047 0.002
C10 0.0242 0.0138 0.0279 0.0019 0.0109 -0.0015
loop_
_geom_bond_atom_site_label_1
_geom_bond_atom_site_label_2
_geom_bond_site_symmetry_1
_geom_bond_site_symmetry_2
Gd8 O13 1_555 1_555
O1 C1 1_555 1_555
O2 C1 1_555 1_555
C1 C5 1_555 1_555
H5 C5 1_555 1_555
H6 C5 1_555 1_555
Gd5 O1 1_555 1_555
O2 Gd5 1_555 1_555
O3 C4 1_555 1_555
Gd5 O5 1_555 1_555
O5 C2 1_555 1_555
O6 Gd5 1_555 1_555
H1 O6 1_555 1_555
O7 Gd5 1_555 1_555
O8 Gd5 1_555 1_555
H2 O8 1_555 1_555
H3 O8 1_555 1_555
C2 C3 1_555 1_555
C3 O6 1_555 1_555
H4 C3 1_555 1_555
C4 O7 1_555 1_555
O9 Gd5 1_555 1_555
O10 C6 1_555 1_555
C6 C4 1_555 1_555
Gd8 O3 1_555 1_555
O14 Gd8 1_555 1_555
O15 Gd8 1_555 1_555
H7 O15 1_555 1_555
O16 Gd8 1_555 1_555
H8 O16 1_555 1_555
H9 O16 1_555 1_555
C8 O14 1_555 1_555
C9 O15 1_555 1_555
H10 C9 1_555 1_555
O20 Gd8 1_555 1_555
O22 Gd8 1_555 1_555
O23 Gd5 1_555 1_555
O9 C6 1_555 1_555
O10 Gd8 1_555 1_555
C8 C9 1_555 1_555
O20 C7 1_555 1_555
O22 C7 1_555 1_555
C7 C10 1_555 1_555
H11 C10 1_555 1_555
H12 C10 1_555 1_555

#END
