
###############################################################################
#
# This file contains modified crystal structure data generated from the
# MOF subset of the Cambridge Structural Database (CSD) v543 
# hosted by the Cambridge Crystallographic Data Centre (CCDC).
#
# This work is licensed under the Creative Commons
# Attribution-NonCommercial-ShareAlike 4.0 International License.
# To view a copy of this license, visit
# http://creativecommons.org/licenses/by-nc-sa/4.0/
# or send a letter to
# Creative Commons, PO Box 1866, Mountain View, CA 94042, USA.
#
# CIF created using the CSD Python API on 29 September 2022
# The structure has been converted into the P1 space group
# The structure has a 3D framework
# The original CSD entry WOYHUP is in the tetragonal crystal system
# The framework has been calculated to contain at least 10.0% void space
# The void calculation uses a probe of radius 1.32A, grid spacing 0.4
# The framework is charged, counterions have been retained in the structure
# H atom positions have been added when not included in the experimental data
# Generated hydrogen atom positions removed from atoms on special positions
#
###############################################################################

data_WOYHUP
_chemical_formula_moiety         '(C152 H136 N16 O78 Zn16 8+)n'
_symmetry_cell_setting           triclinic
_symmetry_space_group_name_H-M   'P 1'
_symmetry_Int_Tables_number      1
_space_group_name_Hall           'P 1'
loop_
_symmetry_equiv_pos_site_id
_symmetry_equiv_pos_as_xyz
1 x,y,z
_cell_length_a                   17.7349(6)
_cell_length_b                   17.7349(6)
_cell_length_c                   28.1732(10)
_cell_angle_alpha                90
_cell_angle_beta                 90
_cell_angle_gamma                90
_cell_volume                     8861.22
loop_
_atom_site_label
_atom_site_type_symbol
_atom_site_fract_x
_atom_site_fract_y
_atom_site_fract_z
Zn4 Zn 0.04554(2) 0.54554(2) 0.03503(2)
C1 C 0.4636(2) 0.1851(2) 0.07981(15)
C2 C 0.4148(2) 0.1862(2) 0.11809(14)
H1 H 0.3876 0.1418 0.1260
C3 C 0.4445(3) 0.3160(3) 0.13324(15)
H2 H 0.4383 0.3609 0.1512
C4 C 0.5918(3) 0.4082(3) 0.1035(3)
H3 H 0.6120 0.3880 0.1320
C5 C 0.4918(2) 0.3138(2) 0.09561(15)
C6 C 0.5023(3) 0.2500(2) 0.06850(16)
H4 H 0.5360 0.2508 0.0423
C7 C 0.5355(5) 0.4124(5) 0.0392(3)
H5 H 0.5039 0.3993 0.0133
C8 C 0.3503(2) 0.2508(3) 0.18547(16)
C9 C 0.4747(3) 0.1156(3) 0.05055(16)
C10 C 0.4048(2) 0.2503(2) 0.14510(14)
N1 N 0.5348(2) 0.3806(2) 0.08287(14)
O2 O 0.5120(2) 0.12238(18) 0.01354(11)
O3 O 0.44496(19) 0.05594(17) 0.06626(11)
O4 O 0.31736(17) 0.18975(17) 0.19427(9)
O5 O 0.33925(17) 0.31238(17) 0.20667(10)
Zn2 Zn 0.2500 0.16545(3) 0.2500
O6 O 0.2500 0.0495(4) 0.2500
C11 C 0.8149(2) 0.5364(2) 0.07981(15)
C12 C 0.8138(2) 0.5852(2) 0.11809(14)
H6 H 0.8582 0.6124 0.1260
C13 C 0.6840(3) 0.5555(3) 0.13324(15)
H7 H 0.6391 0.5617 0.1512
C14 C 0.6862(2) 0.5082(2) 0.09561(15)
C15 C 0.7500(2) 0.4977(3) 0.06850(16)
H8 H 0.7492 0.4640 0.0423
C16 C 0.5876(5) 0.4645(5) 0.0392(3)
H9 H 0.6007 0.4961 0.0133
C17 C 0.7492(3) 0.6497(2) 0.18547(16)
C18 C 0.8844(3) 0.5253(3) 0.05055(16)
C19 C 0.7497(2) 0.5952(2) 0.14510(14)
N2 N 0.6194(2) 0.4652(2) 0.08287(14)
O7 O 0.87762(18) 0.4880(2) 0.01354(11)
O8 O 0.94406(17) 0.55504(19) 0.06626(11)
O9 O 0.81025(17) 0.68264(17) 0.19427(9)
O10 O 0.68762(17) 0.66075(17) 0.20667(10)
O11 O 0.62238(18) 0.0120(2) 0.01354(11)
O14 O 0.18264(17) 0.18975(17) 0.30573(9)
O15 O 0.16075(17) 0.18762(17) 0.20667(10)
O16 O 0.33925(17) 0.18762(17) 0.29333(10)
Zn6 Zn 0.2500 0.33455(3) 0.2500
Zn7 Zn 0.66545(3) 0.7500 0.2500
Zn8 Zn 0.83455(3) 0.7500 0.2500
O1 O 0.6124(2) 0.1124(2) 0.9245(2)
Zn1 Zn 0.54554(2) 0.04554(2) 0.96497(2)
O12 O 0.44406(17) 0.05504(19) 0.93374(11)
Zn3 Zn 0.95446(2) 0.45446(2) 0.96497(2)
Zn5 Zn 0.45446(2) 0.95446(2) 0.03503(2)
O13 O 0.55504(19) 0.94406(17) 0.93374(11)
C1_2 C 0.3149(2) 0.4636(2) 0.57981(15)
C2_2 C 0.3138(2) 0.4148(2) 0.61809(14)
H1_2 H 0.3582 0.3876 0.6260
C3_2 C 0.1840(3) 0.4445(3) 0.63324(15)
H2_2 H 0.1391 0.4383 0.6512
C4_2 C 0.0918(3) 0.5918(3) 0.6035(3)
H3_2 H 0.1120 0.6120 0.6320
C5_2 C 0.1862(2) 0.4918(2) 0.59561(15)
C6_2 C 0.2500(2) 0.5023(3) 0.56850(16)
H4_2 H 0.2492 0.5360 0.5423
C7_2 C 0.0876(5) 0.5355(5) 0.5392(3)
H5_2 H 0.1007 0.5039 0.5133
C8_2 C 0.2492(3) 0.3503(2) 0.68547(16)
C9_2 C 0.3844(3) 0.4747(3) 0.55055(16)
C10_2 C 0.2497(2) 0.4048(2) 0.64510(14)
O1_2 O 0.3876(2) 0.6124(2) 0.4245(2)
N1_2 N 0.1194(2) 0.5348(2) 0.58287(14)
O2_2 O 0.37762(18) 0.5120(2) 0.51354(11)
O3_2 O 0.44406(17) 0.44496(19) 0.56626(11)
O4_2 O 0.31025(17) 0.31736(17) 0.69427(9)
O5_2 O 0.18762(17) 0.33925(17) 0.70667(10)
Zn1_2 Zn 0.45446(2) 0.54554(2) 0.46497(2)
Zn2_2 Zn 0.33455(3) 0.2500 0.7500
O6_2 O 0.4505(4) 0.2500 0.7500
C15_2 C 0.0023(3) 0.7500(2) 0.56850(16)
H8_2 H 0.0360 0.7492 0.5423
C16_2 C 0.0355(5) 0.5876(5) 0.5392(3)
H9_2 H 0.0039 0.6007 0.5133
N2_2 N 0.0348(2) 0.6194(2) 0.58287(14)
O7_2 O 0.0120(2) 0.87762(18) 0.51354(11)
O11_2 O 0.4880(2) 0.62238(18) 0.51354(11)
O12_2 O 0.44496(19) 0.44406(17) 0.43374(11)
O13_2 O 0.55594(17) 0.55504(19) 0.43374(11)
O14_2 O 0.31025(17) 0.18264(17) 0.80573(9)
O15_2 O 0.31238(17) 0.16075(17) 0.70667(10)
O16_2 O 0.31238(17) 0.33925(17) 0.79333(10)
Zn3_2 Zn 0.04554(2) 0.95446(2) 0.46497(2)
Zn5_2 Zn 0.54554(2) 0.45446(2) 0.53503(2)
Zn6_2 Zn 0.16545(3) 0.2500 0.7500
Zn4_2 Zn 0.95446(2) 0.04554(2) 0.53503(2)
C11_2 C 0.9636(2) 0.8149(2) 0.57981(15)
C12_2 C 0.9148(2) 0.8138(2) 0.61809(14)
H6_2 H 0.8876 0.8582 0.6260
C13_2 C 0.9445(3) 0.6840(3) 0.63324(15)
H7_2 H 0.9383 0.6391 0.6512
C14_2 C 0.9918(2) 0.6862(2) 0.59561(15)
C17_2 C 0.8503(2) 0.7492(3) 0.68547(16)
C18_2 C 0.9747(3) 0.8844(3) 0.55055(16)
C19_2 C 0.9048(2) 0.7497(2) 0.64510(14)
O8_2 O 0.94496(19) 0.94406(17) 0.56626(11)
O9_2 O 0.81736(17) 0.81025(17) 0.69427(9)
O10_2 O 0.83925(17) 0.68762(17) 0.70667(10)
Zn7_2 Zn 0.7500 0.66545(3) 0.7500
Zn8_2 Zn 0.7500 0.83455(3) 0.7500
C1_3 C 0.0364(2) 0.3149(2) 0.07981(15)
C2_3 C 0.0852(2) 0.3138(2) 0.11809(14)
H1_3 H 0.1124 0.3582 0.1260
C3_3 C 0.0555(3) 0.1840(3) 0.13324(15)
H2_3 H 0.0617 0.1391 0.1512
C5_3 C 0.0082(2) 0.1862(2) 0.09561(15)
C8_3 C 0.1497(2) 0.2492(3) 0.18547(16)
C9_3 C 0.0253(3) 0.3844(3) 0.05055(16)
C10_3 C 0.0952(2) 0.2497(2) 0.14510(14)
O3_3 O 0.05504(19) 0.44406(17) 0.06626(11)
O4_3 O 0.18264(17) 0.31025(17) 0.19427(9)
O6_3 O 0.2500 0.4505(4) 0.2500
O14_3 O 0.31736(17) 0.31025(17) 0.30573(9)
O16_3 O 0.16075(17) 0.31238(17) 0.29333(10)
O12_3 O 0.05594(17) 0.44496(19) 0.93374(11)
C4_3 C 0.9082(3) 0.0918(3) 0.1035(3)
H3_3 H 0.8880 0.1120 0.1320
C6_3 C 0.9977(3) 0.2500(2) 0.06850(16)
H4_3 H 0.9640 0.2492 0.0423
C7_3 C 0.9645(5) 0.0876(5) 0.0392(3)
H5_3 H 0.9961 0.1007 0.0133
N1_3 N 0.9652(2) 0.1194(2) 0.08287(14)
O2_3 O 0.9880(2) 0.37762(18) 0.01354(11)
C15_3 C 0.7500(2) 0.0023(3) 0.06850(16)
H8_3 H 0.7508 0.0360 0.0423
C16_3 C 0.9124(5) 0.0355(5) 0.0392(3)
H9_3 H 0.8993 0.0039 0.0133
N2_3 N 0.8806(2) 0.0348(2) 0.08287(14)
O1_3 O 0.8876(2) 0.3876(2) 0.9245(2)
O13_3 O 0.94496(19) 0.55594(17) 0.93374(11)
C11_3 C 0.6851(2) 0.9636(2) 0.07981(15)
C12_3 C 0.6862(2) 0.9148(2) 0.11809(14)
H6_3 H 0.6418 0.8876 0.1260
C13_3 C 0.8160(3) 0.9445(3) 0.13324(15)
H7_3 H 0.8609 0.9383 0.1512
C14_3 C 0.8138(2) 0.9918(2) 0.09561(15)
C17_3 C 0.7508(3) 0.8503(2) 0.18547(16)
C18_3 C 0.6156(3) 0.9747(3) 0.05055(16)
C19_3 C 0.7503(2) 0.9048(2) 0.14510(14)
O8_3 O 0.55594(17) 0.94496(19) 0.06626(11)
O9_3 O 0.68975(17) 0.81736(17) 0.19427(9)
O10_3 O 0.81238(17) 0.83925(17) 0.20667(10)
C1_4 C 0.1851(2) 0.0364(2) 0.57981(15)
C2_4 C 0.1862(2) 0.0852(2) 0.61809(14)
H1_4 H 0.1418 0.1124 0.6260
C3_4 C 0.3160(3) 0.0555(3) 0.63324(15)
H2_4 H 0.3609 0.0617 0.6512
C5_4 C 0.3138(2) 0.0082(2) 0.59561(15)
C8_4 C 0.2508(3) 0.1497(2) 0.68547(16)
C9_4 C 0.1156(3) 0.0253(3) 0.55055(16)
C10_4 C 0.2503(2) 0.0952(2) 0.64510(14)
O3_4 O 0.05594(17) 0.05504(19) 0.56626(11)
O4_4 O 0.18975(17) 0.18264(17) 0.69427(9)
O6_4 O 0.0495(4) 0.2500 0.7500
O12_4 O 0.05504(19) 0.05594(17) 0.43374(11)
O14_4 O 0.18975(17) 0.31736(17) 0.80573(9)
O16_4 O 0.18762(17) 0.16075(17) 0.79333(10)
C4_4 C 0.4082(3) 0.9082(3) 0.6035(3)
H3_4 H 0.3880 0.8880 0.6320
C6_4 C 0.2500(2) 0.9977(3) 0.56850(16)
H4_4 H 0.2508 0.9640 0.5423
C7_4 C 0.4124(5) 0.9645(5) 0.5392(3)
H5_4 H 0.3993 0.9961 0.5133
O1_4 O 0.1124(2) 0.8876(2) 0.4245(2)
N1_4 N 0.3806(2) 0.9652(2) 0.58287(14)
O2_4 O 0.12238(18) 0.9880(2) 0.51354(11)
C11_4 C 0.5364(2) 0.6851(2) 0.57981(15)
C12_4 C 0.5852(2) 0.6862(2) 0.61809(14)
H6_4 H 0.6124 0.6418 0.6260
C13_4 C 0.5555(3) 0.8160(3) 0.63324(15)
H7_4 H 0.5617 0.8609 0.6512
C14_4 C 0.5082(2) 0.8138(2) 0.59561(15)
C15_4 C 0.4977(3) 0.7500(2) 0.56850(16)
H8_4 H 0.4640 0.7508 0.5423
C16_4 C 0.4645(5) 0.9124(5) 0.5392(3)
H9_4 H 0.4961 0.8993 0.5133
C17_4 C 0.6497(2) 0.7508(3) 0.68547(16)
C18_4 C 0.5253(3) 0.6156(3) 0.55055(16)
C19_4 C 0.5952(2) 0.7503(2) 0.64510(14)
N2_4 N 0.4652(2) 0.8806(2) 0.58287(14)
O8_4 O 0.55504(19) 0.55594(17) 0.56626(11)
O9_4 O 0.68264(17) 0.68975(17) 0.69427(9)
O10_4 O 0.66075(17) 0.81238(17) 0.70667(10)
O13_4 O 0.94406(17) 0.94496(19) 0.43374(11)
C1_5 C 0.4636(2) 0.3149(2) 0.42019(15)
C2_5 C 0.4148(2) 0.3138(2) 0.38191(14)
H1_5 H 0.3876 0.3582 0.3740
C3_5 C 0.4445(3) 0.1840(3) 0.36676(15)
H2_5 H 0.4383 0.1391 0.3488
C4_5 C 0.5918(3) 0.0918(3) 0.3965(3)
H3_5 H 0.6120 0.1120 0.3680
C5_5 C 0.4918(2) 0.1862(2) 0.40439(15)
C6_5 C 0.5023(3) 0.2500(2) 0.43150(16)
H4_5 H 0.5360 0.2492 0.4577
C7_5 C 0.5355(5) 0.0876(5) 0.4608(3)
H5_5 H 0.5039 0.1007 0.4867
C8_5 C 0.3503(2) 0.2492(3) 0.31453(16)
C9_5 C 0.4747(3) 0.3844(3) 0.44945(16)
C10_5 C 0.4048(2) 0.2497(2) 0.35490(14)
O1_5 O 0.6124(2) 0.3876(2) 0.5755(2)
N1_5 N 0.5348(2) 0.1194(2) 0.41713(14)
O2_5 O 0.5120(2) 0.37762(18) 0.48646(11)
C15_5 C 0.7500(2) 0.0023(3) 0.43150(16)
H8_5 H 0.7492 0.0360 0.4577
C16_5 C 0.5876(5) 0.0355(5) 0.4608(3)
H9_5 H 0.6007 0.0039 0.4867
N2_5 N 0.6194(2) 0.0348(2) 0.41713(14)
O7_3 O 0.87762(18) 0.0120(2) 0.48646(11)
O11_3 O 0.62238(18) 0.4880(2) 0.48646(11)
C11_5 C 0.8149(2) 0.9636(2) 0.42019(15)
C12_5 C 0.8138(2) 0.9148(2) 0.38191(14)
H6_5 H 0.8582 0.8876 0.3740
C13_5 C 0.6840(3) 0.9445(3) 0.36676(15)
H7_5 H 0.6391 0.9383 0.3488
C14_5 C 0.6862(2) 0.9918(2) 0.40439(15)
C17_5 C 0.7492(3) 0.8503(2) 0.31453(16)
C18_5 C 0.8844(3) 0.9747(3) 0.44945(16)
C19_5 C 0.7497(2) 0.9048(2) 0.35490(14)
O9_5 O 0.81025(17) 0.81736(17) 0.30573(9)
O10_5 O 0.68762(17) 0.83925(17) 0.29333(10)
C1_6 C 0.0364(2) 0.1851(2) 0.42019(15)
C2_6 C 0.0852(2) 0.1862(2) 0.38191(14)
H1_6 H 0.1124 0.1418 0.3740
C3_6 C 0.0555(3) 0.3160(3) 0.36676(15)
H2_6 H 0.0617 0.3609 0.3488
C5_6 C 0.0082(2) 0.3138(2) 0.40439(15)
C8_6 C 0.1497(2) 0.2508(3) 0.31453(16)
C9_6 C 0.0253(3) 0.1156(3) 0.44945(16)
C10_6 C 0.0952(2) 0.2503(2) 0.35490(14)
C4_6 C 0.9082(3) 0.4082(3) 0.3965(3)
H3_6 H 0.8880 0.3880 0.3680
C6_6 C 0.9977(3) 0.2500(2) 0.43150(16)
H4_6 H 0.9640 0.2508 0.4577
C7_6 C 0.9645(5) 0.4124(5) 0.4608(3)
H5_6 H 0.9961 0.3993 0.4867
O1_6 O 0.8876(2) 0.1124(2) 0.5755(2)
N1_6 N 0.9652(2) 0.3806(2) 0.41713(14)
O2_6 O 0.9880(2) 0.12238(18) 0.48646(11)
C11_6 C 0.6851(2) 0.5364(2) 0.42019(15)
C12_6 C 0.6862(2) 0.5852(2) 0.38191(14)
H6_6 H 0.6418 0.6124 0.3740
C13_6 C 0.8160(3) 0.5555(3) 0.36676(15)
H7_6 H 0.8609 0.5617 0.3488
C14_6 C 0.8138(2) 0.5082(2) 0.40439(15)
C15_6 C 0.7500(2) 0.4977(3) 0.43150(16)
H8_6 H 0.7508 0.4640 0.4577
C16_6 C 0.9124(5) 0.4645(5) 0.4608(3)
H9_6 H 0.8993 0.4961 0.4867
C17_6 C 0.7508(3) 0.6497(2) 0.31453(16)
C18_6 C 0.6156(3) 0.5253(3) 0.44945(16)
C19_6 C 0.7503(2) 0.5952(2) 0.35490(14)
N2_6 N 0.8806(2) 0.4652(2) 0.41713(14)
O9_6 O 0.68975(17) 0.68264(17) 0.30573(9)
O10_6 O 0.81238(17) 0.66075(17) 0.29333(10)
O1_7 O 0.1124(2) 0.6124(2) 0.0755(2)
C1_7 C 0.1851(2) 0.4636(2) 0.92019(15)
C2_7 C 0.1862(2) 0.4148(2) 0.88191(14)
H1_7 H 0.1418 0.3876 0.8740
C3_7 C 0.3160(3) 0.4445(3) 0.86676(15)
H2_7 H 0.3609 0.4383 0.8488
C4_7 C 0.4082(3) 0.5918(3) 0.8965(3)
H3_7 H 0.3880 0.6120 0.8680
C5_7 C 0.3138(2) 0.4918(2) 0.90439(15)
C6_7 C 0.2500(2) 0.5023(3) 0.93150(16)
H4_7 H 0.2508 0.5360 0.9577
C7_7 C 0.4124(5) 0.5355(5) 0.9608(3)
H5_7 H 0.3993 0.5039 0.9867
C8_7 C 0.2508(3) 0.3503(2) 0.81453(16)
C9_7 C 0.1156(3) 0.4747(3) 0.94945(16)
C10_7 C 0.2503(2) 0.4048(2) 0.85490(14)
N1_7 N 0.3806(2) 0.5348(2) 0.91713(14)
O2_7 O 0.12238(18) 0.5120(2) 0.98646(11)
C11_7 C 0.5364(2) 0.8149(2) 0.92019(15)
C12_7 C 0.5852(2) 0.8138(2) 0.88191(14)
H6_7 H 0.6124 0.8582 0.8740
C13_7 C 0.5555(3) 0.6840(3) 0.86676(15)
H7_7 H 0.5617 0.6391 0.8488
C14_7 C 0.5082(2) 0.6862(2) 0.90439(15)
C15_7 C 0.4977(3) 0.7500(2) 0.93150(16)
H8_7 H 0.4640 0.7492 0.9577
C16_7 C 0.4645(5) 0.5876(5) 0.9608(3)
H9_7 H 0.4961 0.6007 0.9867
C17_7 C 0.6497(2) 0.7492(3) 0.81453(16)
C18_7 C 0.5253(3) 0.8844(3) 0.94945(16)
C19_7 C 0.5952(2) 0.7497(2) 0.85490(14)
N2_7 N 0.4652(2) 0.6194(2) 0.91713(14)
O7_4 O 0.4880(2) 0.87762(18) 0.98646(11)
O9_7 O 0.68264(17) 0.81025(17) 0.80573(9)
O10_7 O 0.66075(17) 0.68762(17) 0.79333(10)
O11_4 O 0.0120(2) 0.62238(18) 0.98646(11)
C1_8 C 0.3149(2) 0.0364(2) 0.92019(15)
C2_8 C 0.3138(2) 0.0852(2) 0.88191(14)
H1_8 H 0.3582 0.1124 0.8740
C3_8 C 0.1840(3) 0.0555(3) 0.86676(15)
H2_8 H 0.1391 0.0617 0.8488
C5_8 C 0.1862(2) 0.0082(2) 0.90439(15)
C8_8 C 0.2492(3) 0.1497(2) 0.81453(16)
C9_8 C 0.3844(3) 0.0253(3) 0.94945(16)
C10_8 C 0.2497(2) 0.0952(2) 0.85490(14)
O1_8 O 0.3876(2) 0.8876(2) 0.0755(2)
C4_8 C 0.0918(3) 0.9082(3) 0.8965(3)
H3_8 H 0.1120 0.8880 0.8680
C6_8 C 0.2500(2) 0.9977(3) 0.93150(16)
H4_8 H 0.2492 0.9640 0.9577
C7_8 C 0.0876(5) 0.9645(5) 0.9608(3)
H5_8 H 0.1007 0.9961 0.9867
N1_8 N 0.1194(2) 0.9652(2) 0.91713(14)
O2_8 O 0.37762(18) 0.9880(2) 0.98646(11)
C15_8 C 0.0023(3) 0.7500(2) 0.93150(16)
H8_8 H 0.0360 0.7508 0.9577
C16_8 C 0.0355(5) 0.9124(5) 0.9608(3)
H9_8 H 0.0039 0.8993 0.9867
N2_8 N 0.0348(2) 0.8806(2) 0.91713(14)
C11_8 C 0.9636(2) 0.6851(2) 0.92019(15)
C12_8 C 0.9148(2) 0.6862(2) 0.88191(14)
H6_8 H 0.8876 0.6418 0.8740
C13_8 C 0.9445(3) 0.8160(3) 0.86676(15)
H7_8 H 0.9383 0.8609 0.8488
C14_8 C 0.9918(2) 0.8138(2) 0.90439(15)
C17_8 C 0.8503(2) 0.7508(3) 0.81453(16)
C18_8 C 0.9747(3) 0.6156(3) 0.94945(16)
C19_8 C 0.9048(2) 0.7503(2) 0.85490(14)
O9_8 O 0.81736(17) 0.68975(17) 0.80573(9)
O10_8 O 0.83925(17) 0.81238(17) 0.79333(10)
O6_5 O 0.7500 0.9505(4) 0.7500
O6_6 O 0.5495(4) 0.7500 0.2500
O6_7 O 0.7500 0.5495(4) 0.7500
O6_8 O 0.9505(4) 0.7500 0.2500
loop_
_geom_bond_atom_site_label_1
_geom_bond_atom_site_label_2
_geom_bond_site_symmetry_1
_geom_bond_site_symmetry_2
C1 C2 1_555 1_555
C2 H1 1_555 1_555
C3 H2 1_555 1_555
C4 H3 1_555 1_555
C5 C3 1_555 1_555
C6 C1 1_555 1_555
H4 C6 1_555 1_555
C7 H5 1_555 1_555
C8 C10 1_555 1_555
C9 C1 1_555 1_555
C10 C2 1_555 1_555
N1 C4 1_555 1_555
O2 C9 1_555 1_555
O3 C9 1_555 1_555
O4 C8 1_555 1_555
O5 C8 1_555 1_555
Zn2 O4 1_555 1_555
O6 Zn2 1_555 1_555
C11 C12 1_555 1_555
C12 H6 1_555 1_555
C13 H7 1_555 1_555
C14 C13 1_555 1_555
C15 C11 1_555 1_555
H8 C15 1_555 1_555
C16 C7 1_555 1_555
H9 C16 1_555 1_555
C17 C19 1_555 1_555
C18 C11 1_555 1_555
C19 C12 1_555 1_555
N2 C4 1_555 1_555
O7 C18 1_555 1_555
O8 C18 1_555 1_555
O9 C17 1_555 1_555
O10 C17 1_555 1_555
O14 Zn2 1_555 1_555
O15 Zn2 1_555 1_555
O16 Zn2 1_555 1_555
Zn6 O5 1_555 1_555
Zn7 O10 1_555 1_555
Zn8 O9 1_555 1_555
C3 C10 1_555 1_555
C5 C6 1_555 1_555
C5 N1 1_555 1_555
C7 N1 1_555 1_555
C13 C19 1_555 1_555
C14 C15 1_555 1_555
C14 N2 1_555 1_555
C16 N2 1_555 1_555
O1 Zn1 1_555 1_555
O12 Zn1 1_555 1_555
C1_2 C2_2 1_555 1_555
C2_2 H1_2 1_555 1_555
C3_2 H2_2 1_555 1_555
C4_2 H3_2 1_555 1_555
C5_2 C3_2 1_555 1_555
C6_2 C1_2 1_555 1_555
H4_2 C6_2 1_555 1_555
C7_2 H5_2 1_555 1_555
C8_2 C10_2 1_555 1_555
C9_2 C1_2 1_555 1_555
C10_2 C2_2 1_555 1_555
O1_2 Zn1_2 1_555 1_555
N1_2 C4_2 1_555 1_555
O2_2 C9_2 1_555 1_555
O3_2 C9_2 1_555 1_555
O4_2 C8_2 1_555 1_555
O5_2 C8_2 1_555 1_555
Zn1_2 O2_2 1_555 1_555
Zn2_2 O4_2 1_555 1_555
O6_2 Zn2_2 1_555 1_555
H8_2 C15_2 1_555 1_555
C16_2 C7_2 1_555 1_555
H9_2 C16_2 1_555 1_555
N2_2 C4_2 1_555 1_555
O11_2 Zn1_2 1_555 1_555
O12_2 Zn1_2 1_555 1_555
O13_2 Zn1_2 1_555 1_555
O14_2 Zn2_2 1_555 1_555
O15_2 Zn2_2 1_555 1_555
O16_2 Zn2_2 1_555 1_555
Zn3_2 O7_2 1_555 1_555
Zn5_2 O3_2 1_555 1_555
Zn6_2 O5_2 1_555 1_555
C3_2 C10_2 1_555 1_555
C5_2 C6_2 1_555 1_555
C5_2 N1_2 1_555 1_555
C7_2 N1_2 1_555 1_555
C16_2 N2_2 1_555 1_555
C11_2 C12_2 1_555 1_555
C12_2 H6_2 1_555 1_555
C13_2 H7_2 1_555 1_555
C14_2 C13_2 1_555 1_555
C17_2 C19_2 1_555 1_555
C18_2 C11_2 1_555 1_555
C19_2 C12_2 1_555 1_555
O8_2 C18_2 1_555 1_555
O9_2 C17_2 1_555 1_555
O10_2 C17_2 1_555 1_555
Zn7_2 O10_2 1_555 1_555
Zn8_2 O9_2 1_555 1_555
C13_2 C19_2 1_555 1_555
C1_3 C2_3 1_555 1_555
C2_3 H1_3 1_555 1_555
C3_3 H2_3 1_555 1_555
C5_3 C3_3 1_555 1_555
C8_3 C10_3 1_555 1_555
C9_3 C1_3 1_555 1_555
C10_3 C2_3 1_555 1_555
O3_3 C9_3 1_555 1_555
O4_3 C8_3 1_555 1_555
O15 C8_3 1_555 1_555
Zn6 O4_3 1_555 1_555
O6_3 Zn6 1_555 1_555
O14_3 Zn6 1_555 1_555
O16_3 Zn6 1_555 1_555
Zn4 O3_3 1_555 1_555
C3_3 C10_3 1_555 1_555
C4_3 H3_3 1_555 1_555
H4_3 C6_3 1_555 1_555
C7_3 H5_3 1_555 1_555
N1_3 C4_3 1_555 1_555
H8_3 C15_3 1_555 1_555
C16_3 C7_3 1_555 1_555
H9_3 C16_3 1_555 1_555
N2_3 C4_3 1_555 1_555
C7_3 N1_3 1_555 1_555
C16_3 N2_3 1_555 1_555
O1_3 Zn3 1_555 1_555
O13_3 Zn3 1_555 1_555
C11_3 C12_3 1_555 1_555
C12_3 H6_3 1_555 1_555
C13_3 H7_3 1_555 1_555
C14_3 C13_3 1_555 1_555
C17_3 C19_3 1_555 1_555
C18_3 C11_3 1_555 1_555
C19_3 C12_3 1_555 1_555
O8_3 C18_3 1_555 1_555
O9_3 C17_3 1_555 1_555
O10_3 C17_3 1_555 1_555
Zn5 O8_3 1_555 1_555
Zn8 O10_3 1_555 1_555
Zn7 O9_3 1_555 1_555
C13_3 C19_3 1_555 1_555
C1_4 C2_4 1_555 1_555
C2_4 H1_4 1_555 1_555
C3_4 H2_4 1_555 1_555
C5_4 C3_4 1_555 1_555
C8_4 C10_4 1_555 1_555
C9_4 C1_4 1_555 1_555
C10_4 C2_4 1_555 1_555
O3_4 C9_4 1_555 1_555
O4_4 C8_4 1_555 1_555
O15_2 C8_4 1_555 1_555
Zn6_2 O4_4 1_555 1_555
O6_4 Zn6_2 1_555 1_555
O14_4 Zn6_2 1_555 1_555
O16_4 Zn6_2 1_555 1_555
C3_4 C10_4 1_555 1_555
C4_4 H3_4 1_555 1_555
H4_4 C6_4 1_555 1_555
C7_4 H5_4 1_555 1_555
O1_4 Zn3_2 1_555 1_555
N1_4 C4_4 1_555 1_555
Zn3_2 O2_4 1_555 1_555
C11_4 C12_4 1_555 1_555
C12_4 H6_4 1_555 1_555
C13_4 H7_4 1_555 1_555
C14_4 C13_4 1_555 1_555
C15_4 C11_4 1_555 1_555
H8_4 C15_4 1_555 1_555
C16_4 C7_4 1_555 1_555
H9_4 C16_4 1_555 1_555
C17_4 C19_4 1_555 1_555
C18_4 C11_4 1_555 1_555
C19_4 C12_4 1_555 1_555
N2_4 C4_4 1_555 1_555
O11_2 C18_4 1_555 1_555
O8_4 C18_4 1_555 1_555
O9_4 C17_4 1_555 1_555
O10_4 C17_4 1_555 1_555
Zn5_2 O8_4 1_555 1_555
Zn8_2 O10_4 1_555 1_555
Zn7_2 O9_4 1_555 1_555
C7_4 N1_4 1_555 1_555
C13_4 C19_4 1_555 1_555
C14_4 C15_4 1_555 1_555
C14_4 N2_4 1_555 1_555
C16_4 N2_4 1_555 1_555
C1_5 C2_5 1_555 1_555
C2_5 H1_5 1_555 1_555
C3_5 H2_5 1_555 1_555
C4_5 H3_5 1_555 1_555
C5_5 C3_5 1_555 1_555
C6_5 C1_5 1_555 1_555
H4_5 C6_5 1_555 1_555
C7_5 H5_5 1_555 1_555
C8_5 C10_5 1_555 1_555
C9_5 C1_5 1_555 1_555
C10_5 C2_5 1_555 1_555
O1_5 Zn5_2 1_555 1_555
N1_5 C4_5 1_555 1_555
O2_5 C9_5 1_555 1_555
O12_2 C9_5 1_555 1_555
O14_3 C8_5 1_555 1_555
O16 C8_5 1_555 1_555
Zn5_2 O2_5 1_555 1_555
H8_5 C15_5 1_555 1_555
C16_5 C7_5 1_555 1_555
H9_5 C16_5 1_555 1_555
N2_5 C4_5 1_555 1_555
O11_3 Zn5_2 1_555 1_555
Zn4_2 O7_3 1_555 1_555
C3_5 C10_5 1_555 1_555
C5_5 C6_5 1_555 1_555
C5_5 N1_5 1_555 1_555
C7_5 N1_5 1_555 1_555
C16_5 N2_5 1_555 1_555
C11_5 C12_5 1_555 1_555
C12_5 H6_5 1_555 1_555
C13_5 H7_5 1_555 1_555
C14_5 C13_5 1_555 1_555
C17_5 C19_5 1_555 1_555
C18_5 C11_5 1_555 1_555
C19_5 C12_5 1_555 1_555
O13_4 C18_5 1_555 1_555
O9_5 C17_5 1_555 1_555
O10_5 C17_5 1_555 1_555
Zn7 O10_5 1_555 1_555
Zn8 O9_5 1_555 1_555
C13_5 C19_5 1_555 1_555
C1_6 C2_6 1_555 1_555
C2_6 H1_6 1_555 1_555
C3_6 H2_6 1_555 1_555
C5_6 C3_6 1_555 1_555
C8_6 C10_6 1_555 1_555
C9_6 C1_6 1_555 1_555
C10_6 C2_6 1_555 1_555
O12_4 C9_6 1_555 1_555
O14 C8_6 1_555 1_555
O16_3 C8_6 1_555 1_555
C3_6 C10_6 1_555 1_555
C4_6 H3_6 1_555 1_555
H4_6 C6_6 1_555 1_555
C7_6 H5_6 1_555 1_555
O1_6 Zn4_2 1_555 1_555
N1_6 C4_6 1_555 1_555
Zn4_2 O2_6 1_555 1_555
C11_6 C12_6 1_555 1_555
C12_6 H6_6 1_555 1_555
C13_6 H7_6 1_555 1_555
C14_6 C13_6 1_555 1_555
C15_6 C11_6 1_555 1_555
H8_6 C15_6 1_555 1_555
C16_6 C7_6 1_555 1_555
H9_6 C16_6 1_555 1_555
C17_6 C19_6 1_555 1_555
C18_6 C11_6 1_555 1_555
C19_6 C12_6 1_555 1_555
N2_6 C4_6 1_555 1_555
O11_3 C18_6 1_555 1_555
O13_2 C18_6 1_555 1_555
O9_6 C17_6 1_555 1_555
O10_6 C17_6 1_555 1_555
Zn8 O10_6 1_555 1_555
Zn7 O9_6 1_555 1_555
C7_6 N1_6 1_555 1_555
C13_6 C19_6 1_555 1_555
C14_6 C15_6 1_555 1_555
C14_6 N2_6 1_555 1_555
C16_6 N2_6 1_555 1_555
O1_7 Zn4 1_555 1_555
C1_7 C2_7 1_555 1_555
C2_7 H1_7 1_555 1_555
C3_7 H2_7 1_555 1_555
C4_7 H3_7 1_555 1_555
C5_7 C3_7 1_555 1_555
C6_7 C1_7 1_555 1_555
H4_7 C6_7 1_555 1_555
C7_7 H5_7 1_555 1_555
C8_7 C10_7 1_555 1_555
C9_7 C1_7 1_555 1_555
C10_7 C2_7 1_555 1_555
N1_7 C4_7 1_555 1_555
O2_7 C9_7 1_555 1_555
O12_3 C9_7 1_555 1_555
O14_4 C8_7 1_555 1_555
O16_2 C8_7 1_555 1_555
C11_7 C12_7 1_555 1_555
C12_7 H6_7 1_555 1_555
C13_7 H7_7 1_555 1_555
C14_7 C13_7 1_555 1_555
C15_7 C11_7 1_555 1_555
H8_7 C15_7 1_555 1_555
C16_7 C7_7 1_555 1_555
H9_7 C16_7 1_555 1_555
C17_7 C19_7 1_555 1_555
C18_7 C11_7 1_555 1_555
C19_7 C12_7 1_555 1_555
N2_7 C4_7 1_555 1_555
O7_4 C18_7 1_555 1_555
O13 C18_7 1_555 1_555
O9_7 C17_7 1_555 1_555
O10_7 C17_7 1_555 1_555
Zn7_2 O10_7 1_555 1_555
Zn8_2 O9_7 1_555 1_555
C3_7 C10_7 1_555 1_555
C5_7 C6_7 1_555 1_555
C5_7 N1_7 1_555 1_555
C7_7 N1_7 1_555 1_555
C13_7 C19_7 1_555 1_555
C14_7 C15_7 1_555 1_555
C14_7 N2_7 1_555 1_555
C16_7 N2_7 1_555 1_555
C1_8 C2_8 1_555 1_555
C2_8 H1_8 1_555 1_555
C3_8 H2_8 1_555 1_555
C5_8 C3_8 1_555 1_555
C8_8 C10_8 1_555 1_555
C9_8 C1_8 1_555 1_555
C10_8 C2_8 1_555 1_555
O12 C9_8 1_555 1_555
O14_2 C8_8 1_555 1_555
O16_4 C8_8 1_555 1_555
C3_8 C10_8 1_555 1_555
O1_8 Zn5 1_555 1_555
C4_8 H3_8 1_555 1_555
H4_8 C6_8 1_555 1_555
C7_8 H5_8 1_555 1_555
N1_8 C4_8 1_555 1_555
H8_8 C15_8 1_555 1_555
C16_8 C7_8 1_555 1_555
H9_8 C16_8 1_555 1_555
N2_8 C4_8 1_555 1_555
C7_8 N1_8 1_555 1_555
C16_8 N2_8 1_555 1_555
C11_8 C12_8 1_555 1_555
C12_8 H6_8 1_555 1_555
C13_8 H7_8 1_555 1_555
C14_8 C13_8 1_555 1_555
C17_8 C19_8 1_555 1_555
C18_8 C11_8 1_555 1_555
C19_8 C12_8 1_555 1_555
O13_3 C18_8 1_555 1_555
O9_8 C17_8 1_555 1_555
O10_8 C17_8 1_555 1_555
Zn8_2 O10_8 1_555 1_555
Zn7_2 O9_8 1_555 1_555
C13_8 C19_8 1_555 1_555
O6_5 Zn8_2 1_555 1_555
O6_6 Zn7 1_555 1_555
O6_7 Zn7_2 1_555 1_555
O6_8 Zn8 1_555 1_555

#END
