
###############################################################################
#
# This file contains modified crystal structure data generated from the
# MOF subset of the Cambridge Structural Database (CSD) v543 
# hosted by the Cambridge Crystallographic Data Centre (CCDC).
#
# This work is licensed under the Creative Commons
# Attribution-NonCommercial-ShareAlike 4.0 International License.
# To view a copy of this license, visit
# http://creativecommons.org/licenses/by-nc-sa/4.0/
# or send a letter to
# Creative Commons, PO Box 1866, Mountain View, CA 94042, USA.
#
# CIF created using the CSD Python API on 29 September 2022
# The structure has been converted into the P1 space group
# The structure has a 3D framework
# The original CSD entry WOYJOL is in the tetragonal crystal system
# The framework has been calculated to contain at least 10.0% void space
# The void calculation uses a probe of radius 1.32A, grid spacing 0.4
# The framework is charged, counterions have been retained in the structure
# H atom positions have been added when not included in the experimental data
# Generated hydrogen atom positions removed from atoms on special positions
#
###############################################################################

data_WOYJOL
_chemical_formula_moiety         '(C616 H540 Cu72 N64 O312 32+)n'
_symmetry_cell_setting           triclinic
_symmetry_space_group_name_H-M   'P 1'
_symmetry_Int_Tables_number      1
_space_group_name_Hall           'P 1'
loop_
_symmetry_equiv_pos_site_id
_symmetry_equiv_pos_as_xyz
1 x,y,z
_cell_length_a                   25.4117(14)
_cell_length_b                   25.4117(14)
_cell_length_c                   52.162(6)
_cell_angle_alpha                90
_cell_angle_beta                 90
_cell_angle_gamma                90
_cell_volume                     33683.8
loop_
_atom_site_label
_atom_site_type_symbol
_atom_site_fract_x
_atom_site_fract_y
_atom_site_fract_z
O12 O 0.20018(12) 0.00121(11) 0.15465(5)
Cu8 Cu 0.223377(19) 0.048315(19) 0.126140(9)
Cu14 Cu -0.0000 0.02847(3) 0.225360(12)
Cu1 Cu 0.223377(19) 0.451685(19) 0.126140(9)
Cu2 Cu -0.0000 0.54479(3) 0.261831(12)
Cu3 Cu -0.0000 0.47153(3) 0.225360(12)
O1 O 0.20018(12) 0.49879(11) 0.15465(5)
O2 O 0.05403(11) 0.58012(10) 0.24114(5)
O3 O 0.05402(11) 0.51681(11) 0.21126(5)
O4 O 0.05347(13) 0.43708(11) 0.24605(6)
O5 O 0.05413(12) 0.49874(11) 0.27633(5)
C1 C 0.21653(16) 0.54418(16) 0.15877(8)
C2 C 0.16658(16) 0.41510(15) 0.31700(8)
C3 C 0.18853(16) 0.57593(15) 0.17816(8)
C4 C 0.14349(16) 0.55620(15) 0.18993(8)
H1 H 0.1308 0.5226 0.1849
C5 C 0.11711(16) 0.58301(15) 0.20826(8)
C6 C 0.07128(17) 0.55852(16) 0.22131(8)
O6 O -0.0000 0.4128(2) 0.19599(10)
C7 C 0.06913(18) 0.45581(17) 0.26663(8)
C8 C 0.10810(16) 0.42441(15) 0.28153(7)
C9 C 0.12057(17) 0.37507(16) 0.27385(8)
H2 H 0.1046 0.3602 0.2591
C10 C 0.15722(17) 0.34639(15) 0.28806(8)
C11 C 0.17941(17) 0.36608(15) 0.30939(8)
H3 H 0.2038 0.3457 0.3190
C12 C 0.13054(16) 0.44431(15) 0.30337(7)
H4 H 0.1211 0.4785 0.3091
N1 N 0.16684(15) 0.29248(13) 0.28025(7)
C13 C 0.1808(2) 0.27626(17) 0.25538(9)
H5 H 0.1887 0.2985 0.2413
C14 C 0.1560(3) 0.2500 0.29551(12)
H6 H 0.1438 0.2500 0.3127
O7 O -0.0000 0.6025(2) 0.29284(10)
C15 C 0.13381(15) 0.63391(15) 0.21470(8)
H7 H 0.1161 0.6538 0.2275
C16 C 0.17648(17) 0.65415(15) 0.20197(8)
C17 C 0.20424(17) 0.62647(15) 0.18410(8)
H8 H 0.2339 0.6417 0.1759
N2 N 0.19322(13) 0.70835(12) 0.20725(7)
C18 C 0.24211(19) 0.72347(16) 0.21478(9)
H9 H 0.2707 0.7011 0.2192
C19 C 0.1649(3) 0.7500 0.20184(12)
H10 H 0.1301 0.7500 0.1952
C20 C 0.19313(18) 0.44037(16) 0.33990(7)
O8 O 0.23126(11) 0.41611(10) 0.34956(5)
O9 O 0.17518(12) 0.48385(11) 0.34728(5)
O10 O 0.25538(12) 0.56588(10) 0.14783(5)
O11 O 0.16255(16) 0.39402(16) 0.12823(7)
O13 O 0.05403(11) 0.91988(10) 0.24114(5)
O14 O 0.05402(11) 0.98319(11) 0.21126(5)
C21 C 0.21653(16) 0.95582(16) 0.15877(8)
C22 C 0.18853(16) 0.92407(15) 0.17816(8)
C23 C 0.14349(16) 0.94380(15) 0.18993(8)
H11 H 0.1308 0.9774 0.1849
C24 C 0.11711(16) 0.91699(15) 0.20826(8)
C25 C 0.07128(17) 0.94148(16) 0.22131(8)
C26 C 0.13381(15) 0.86609(15) 0.21470(8)
H12 H 0.1161 0.8462 0.2275
C27 C 0.17648(17) 0.84585(15) 0.20197(8)
C28 C 0.20424(17) 0.87353(15) 0.18410(8)
H13 H 0.2339 0.8583 0.1759
N3 N 0.19322(13) 0.79165(12) 0.20725(7)
C29 C 0.24211(19) 0.77653(16) 0.21478(9)
H14 H 0.2707 0.7989 0.2192
O15 O 0.25538(12) 0.93412(10) 0.14783(5)
O16 O 0.05347(13) 0.06292(11) 0.24605(6)
O17 O 0.05413(12) 0.00126(11) 0.27633(5)
C30 C 0.16658(16) 0.08490(15) 0.31700(8)
C31 C 0.06913(18) 0.04419(17) 0.26663(8)
C32 C 0.10810(16) 0.07559(15) 0.28153(7)
C33 C 0.12057(17) 0.12493(16) 0.27385(8)
H15 H 0.1046 0.1398 0.2591
C34 C 0.15722(17) 0.15361(15) 0.28806(8)
C35 C 0.17941(17) 0.13392(15) 0.30939(8)
H16 H 0.2038 0.1543 0.3190
C36 C 0.13054(16) 0.05569(15) 0.30337(7)
H17 H 0.1211 0.0215 0.3091
N4 N 0.16684(15) 0.20752(13) 0.28025(7)
C37 C 0.1808(2) 0.22374(17) 0.25538(9)
H18 H 0.1887 0.2015 0.2413
C38 C 0.19313(18) 0.05963(16) 0.33990(7)
O18 O 0.23126(11) 0.08389(10) 0.34956(5)
O19 O 0.17518(12) 0.01615(11) 0.34728(5)
Cu4 Cu 0.298315(19) 0.526623(19) 0.123860(9)
O20 O 0.35598(16) 0.58745(16) 0.12177(7)
Cu5 Cu 0.201685(19) 0.526623(19) 0.376140(9)
Cu6 Cu 0.276623(19) 0.451685(19) 0.373860(9)
Cu7 Cu 0.298315(19) 0.973377(19) 0.123860(9)
Cu10 Cu 0.276623(19) 0.048315(19) 0.373860(9)
Cu12 Cu 0.0000 0.95521(3) 0.261831(12)
O21 O 0.25121(11) 0.54982(12) 0.09535(5)
O26 O 0.33389(10) 0.48126(11) 0.09956(5)
O27 O 0.26874(11) 0.41611(10) 0.15044(5)
O28 O 0.26615(11) 0.42518(12) 0.09728(5)
O29 O 0.32482(12) 0.48385(11) 0.15272(5)
O30 O 0.18412(10) 0.49462(12) 0.10217(5)
H19 H 0.035459 0.396549 0.194844
H23 H 0.0319058 0.597602 0.303569
H24 H 4.5118e-18 0.638543 0.285486
Cu9 Cu 0.201685(19) 0.973377(19) 0.376140(9)
Cu14_2 Cu 1.0000 0.02847(3) 0.225360(12)
Cu2_2 Cu 1.0000 0.54479(3) 0.261831(12)
Cu3_2 Cu 1.0000 0.47153(3) 0.225360(12)
O6_2 O 1.0000 0.4128(2) 0.19599(10)
O7_2 O 1.0000 0.6025(2) 0.29284(10)
Cu12_2 Cu 1.0000 0.95521(3) 0.261831(12)
O22 O 0.94597(11) 0.58012(10) 0.24114(5)
O23 O 0.94598(11) 0.51681(11) 0.21126(5)
O24 O 0.94653(13) 0.43708(11) 0.24605(6)
O25 O 0.94587(12) 0.49874(11) 0.27633(5)
H20 H 0.973612 0.385295 0.200184
H24_2 H 1 0.638543 0.285486
Cu10_2 Cu 0.201685(19) 0.026623(19) 0.623860(9)
C14_2 C 0.0000 0.9060(3) 0.54551(12)
H6_2 H 0.0000 0.8938 0.5627
O16_2 O 0.18708(11) 0.80347(13) 0.49605(6)
O17_2 O 0.24874(11) 0.80413(12) 0.52633(5)
C30_2 C 0.16510(15) 0.91658(16) 0.56700(8)
C31_2 C 0.20581(17) 0.81913(18) 0.51663(8)
C32_2 C 0.17441(15) 0.85810(16) 0.53153(7)
C33_2 C 0.12507(16) 0.87057(17) 0.52385(8)
H15_2 H 0.1102 0.8546 0.5091
C34_2 C 0.09639(15) 0.90722(17) 0.53806(8)
C35_2 C 0.11608(15) 0.92941(17) 0.55939(8)
H16_2 H 0.0957 0.9538 0.5690
C36_2 C 0.19431(15) 0.88054(16) 0.55337(7)
H17_2 H 0.2285 0.8711 0.5591
N4_2 N 0.04248(13) 0.91684(15) 0.53025(7)
C37_2 C 0.02626(17) 0.9308(2) 0.50538(9)
H18_2 H 0.0485 0.9387 0.4913
C38_2 C 0.19037(16) 0.94313(18) 0.58990(7)
O18_2 O 0.16611(10) 0.98126(11) 0.59956(5)
O19_2 O 0.23385(11) 0.92518(12) 0.59728(5)
Cu9_2 Cu 0.276623(19) 0.951685(19) 0.626140(9)
Cu11 Cu 0.29479(3) 0.7500 0.511831(12)
Cu13 Cu 0.22153(3) 0.7500 0.475360(12)
H9_2 H 0.5489 0.0207 0.4692
O10_2 O 0.68412(10) 0.00538(12) 0.39783(5)
H14_2 H 0.4511 0.0207 0.4692
O15_2 O 0.31588(10) 0.00538(12) 0.39783(5)
Cu4_2 Cu 0.723377(19) 0.048315(19) 0.373860(9)
O20_2 O 0.66255(16) 0.10598(16) 0.37177(7)
Cu6_2 Cu 0.798315(19) 0.026623(19) 0.623860(9)
O21_2 O 0.70018(12) 0.00121(11) 0.34535(5)
O26_2 O 0.76874(11) 0.08389(10) 0.34956(5)
O27_2 O 0.83389(10) 0.01874(11) 0.40044(5)
O28_2 O 0.82482(12) 0.01615(11) 0.34728(5)
O29_2 O 0.76615(11) 0.07482(12) 0.40272(5)
Cu1_2 Cu 0.798315(19) 0.973377(19) 0.376140(9)
Cu2_3 Cu 0.70521(3) 0.7500 0.511831(12)
Cu3_3 Cu 0.77847(3) 0.7500 0.475360(12)
O1_2 O 0.75121(11) 0.95018(12) 0.40465(5)
O2_2 O 0.66988(10) 0.80403(11) 0.49114(5)
O3_2 O 0.73319(11) 0.80402(11) 0.46126(5)
O4_2 O 0.81292(11) 0.80347(13) 0.49605(6)
O5_2 O 0.75126(11) 0.80413(12) 0.52633(5)
C1_2 C 0.70582(16) 0.96653(16) 0.40877(8)
C2_2 C 0.83490(15) 0.91658(16) 0.56700(8)
C3_2 C 0.67407(15) 0.93853(16) 0.42816(8)
C4_2 C 0.69380(15) 0.89349(16) 0.43993(8)
H1_2 H 0.7274 0.8808 0.4349
C5_2 C 0.66699(15) 0.86711(16) 0.45826(8)
C6_2 C 0.69148(16) 0.82128(17) 0.47131(8)
O6_3 O 0.8372(2) 0.7500 0.44599(10)
C7_2 C 0.79419(17) 0.81913(18) 0.51663(8)
C8_2 C 0.82559(15) 0.85810(16) 0.53153(7)
C9_2 C 0.87493(16) 0.87057(17) 0.52385(8)
H2_2 H 0.8898 0.8546 0.5091
C10_2 C 0.90361(15) 0.90722(17) 0.53806(8)
C11_2 C 0.88392(15) 0.92941(17) 0.55939(8)
H3_2 H 0.9043 0.9538 0.5690
C12_2 C 0.80569(15) 0.88054(16) 0.55337(7)
H4_2 H 0.7715 0.8711 0.5591
N1_2 N 0.95752(13) 0.91684(15) 0.53025(7)
C13_2 C 0.97374(17) 0.9308(2) 0.50538(9)
H5_2 H 0.9515 0.9387 0.4913
C14_3 C 1.0000 0.9060(3) 0.54551(12)
H6_3 H 1.0000 0.8938 0.5627
O7_3 O 0.6475(2) 0.7500 0.54284(10)
C15_2 C 0.61609(15) 0.88381(15) 0.46470(8)
H7_2 H 0.5962 0.8661 0.4775
C16_2 C 0.59585(15) 0.92648(17) 0.45197(8)
C17_2 C 0.62353(15) 0.95424(17) 0.43410(8)
H8_2 H 0.6083 0.9839 0.4259
N2_2 N 0.54165(12) 0.94322(13) 0.45725(7)
C18_2 C 0.52653(16) 0.99211(19) 0.46478(9)
C19_2 C 0.5000 0.9149(3) 0.45184(12)
H10_2 H 0.5000 0.8801 0.4452
C20_2 C 0.80963(16) 0.94313(18) 0.58990(7)
O8_2 O 0.83389(10) 0.98126(11) 0.59956(5)
O9_2 O 0.76615(11) 0.92518(12) 0.59728(5)
O11_2 O 0.85598(16) 0.91255(16) 0.37823(7)
O12_2 O 0.24879(11) 0.95018(12) 0.40465(5)
O13_2 O 0.33012(10) 0.80403(11) 0.49114(5)
O14_2 O 0.26681(11) 0.80402(11) 0.46126(5)
C21_2 C 0.29418(16) 0.96653(16) 0.40877(8)
C22_2 C 0.32593(15) 0.93853(16) 0.42816(8)
C23_2 C 0.30620(15) 0.89349(16) 0.43993(8)
H11_2 H 0.2726 0.8808 0.4349
C24_2 C 0.33301(15) 0.86711(16) 0.45826(8)
C25_2 C 0.30852(16) 0.82128(17) 0.47131(8)
C26_2 C 0.38391(15) 0.88381(15) 0.46470(8)
H12_2 H 0.4038 0.8661 0.4775
C27_2 C 0.40415(15) 0.92648(17) 0.45197(8)
C28_2 C 0.37647(15) 0.95424(17) 0.43410(8)
H13_2 H 0.3917 0.9839 0.4259
N3_2 N 0.45835(12) 0.94322(13) 0.45725(7)
C29_2 C 0.47347(16) 0.99211(19) 0.46478(9)
Cu5_2 Cu 0.723377(19) 0.951685(19) 0.626140(9)
O22_2 O 0.66988(10) 0.69597(11) 0.49114(5)
O23_2 O 0.73319(11) 0.69598(11) 0.46126(5)
O24_2 O 0.81292(11) 0.69653(13) 0.49605(6)
O25_2 O 0.75126(11) 0.69587(12) 0.52633(5)
O30_2 O 0.75538(12) 0.93412(10) 0.35217(5)
O6_4 O -0.0000 0.0872(2) 0.19599(10)
H20_2 H 0.0263883 0.114705 0.200184
O7_4 O -0.0000 0.8975(2) 0.29284(10)
H24_3 H -4.5118e-18 0.861457 0.285486
Cu1_3 Cu 0.776623(19) 0.048315(19) 0.126140(9)
O1_3 O 0.79982(12) 0.00121(11) 0.15465(5)
O4_3 O 0.94653(13) 0.06292(11) 0.24605(6)
O5_3 O 0.94587(12) 0.00126(11) 0.27633(5)
C2_3 C 0.83342(16) 0.08490(15) 0.31700(8)
O6_5 O 1.0000 0.0872(2) 0.19599(10)
C7_3 C 0.93087(18) 0.04419(17) 0.26663(8)
C8_3 C 0.89190(16) 0.07559(15) 0.28153(7)
C9_3 C 0.87943(17) 0.12493(16) 0.27385(8)
H2_3 H 0.8954 0.1398 0.2591
C10_3 C 0.84278(17) 0.15361(15) 0.28806(8)
C11_3 C 0.82059(17) 0.13392(15) 0.30939(8)
H3_3 H 0.7962 0.1543 0.3190
C12_3 C 0.86946(16) 0.05569(15) 0.30337(7)
H4_3 H 0.8789 0.0215 0.3091
N1_3 N 0.83316(15) 0.20752(13) 0.28025(7)
C13_3 C 0.8192(2) 0.22374(17) 0.25538(9)
H5_3 H 0.8113 0.2015 0.2413
C14_4 C 0.8440(3) 0.2500 0.29551(12)
H6_4 H 0.8562 0.2500 0.3127
C20_3 C 0.80687(18) 0.05963(16) 0.33990(7)
O11_3 O 0.83745(16) 0.10598(16) 0.12823(7)
C30_3 C 0.83342(16) 0.41510(15) 0.31700(8)
C31_3 C 0.93087(18) 0.45581(17) 0.26663(8)
C32_3 C 0.89190(16) 0.42441(15) 0.28153(7)
C33_3 C 0.87943(17) 0.37507(16) 0.27385(8)
H15_3 H 0.8954 0.3602 0.2591
C34_3 C 0.84278(17) 0.34639(15) 0.28806(8)
C35_3 C 0.82059(17) 0.36608(15) 0.30939(8)
H16_3 H 0.7962 0.3457 0.3190
C36_3 C 0.86946(16) 0.44431(15) 0.30337(7)
H17_3 H 0.8789 0.4785 0.3091
N4_3 N 0.83316(15) 0.29248(13) 0.28025(7)
C37_3 C 0.8192(2) 0.27626(17) 0.25538(9)
H18_3 H 0.8113 0.2985 0.2413
C38_3 C 0.80687(18) 0.44037(16) 0.33990(7)
O18_3 O 0.76874(11) 0.41611(10) 0.34956(5)
O19_3 O 0.82482(12) 0.48385(11) 0.34728(5)
Cu9_3 Cu 0.798315(19) 0.526623(19) 0.376140(9)
Cu10_3 Cu 0.723377(19) 0.451685(19) 0.373860(9)
O26_3 O 0.66611(10) 0.01874(11) 0.09956(5)
O27_3 O 0.73126(11) 0.08389(10) 0.15044(5)
O28_3 O 0.73385(11) 0.07482(12) 0.09728(5)
O29_3 O 0.67518(12) 0.01615(11) 0.15272(5)
O30_3 O 0.81588(10) 0.00538(12) 0.10217(5)
H19_2 H 0.964541 0.103451 0.194844
O2_3 O 0.94597(11) 0.91988(10) 0.24114(5)
O3_3 O 0.94598(11) 0.98319(11) 0.21126(5)
C1_3 C 0.78347(16) 0.95582(16) 0.15877(8)
C3_3 C 0.81147(16) 0.92407(15) 0.17816(8)
C4_3 C 0.85651(16) 0.94380(15) 0.18993(8)
H1_3 H 0.8692 0.9774 0.1849
C5_3 C 0.88289(16) 0.91699(15) 0.20826(8)
C6_3 C 0.92872(17) 0.94148(16) 0.22131(8)
O7_5 O 1.0000 0.8975(2) 0.29284(10)
C15_3 C 0.86619(15) 0.86609(15) 0.21470(8)
H7_3 H 0.8839 0.8462 0.2275
C16_3 C 0.82352(17) 0.84585(15) 0.20197(8)
C17_3 C 0.79576(17) 0.87353(15) 0.18410(8)
H8_3 H 0.7661 0.8583 0.1759
N2_3 N 0.80678(13) 0.79165(12) 0.20725(7)
C18_3 C 0.75789(19) 0.77653(16) 0.21478(9)
H9_3 H 0.7293 0.7989 0.2192
C19_3 C 0.8351(3) 0.7500 0.20184(12)
H10_3 H 0.8699 0.7500 0.1952
O10_3 O 0.74462(12) 0.93412(10) 0.14783(5)
O12_3 O 0.79982(12) 0.49879(11) 0.15465(5)
C21_3 C 0.78347(16) 0.54418(16) 0.15877(8)
C22_3 C 0.81147(16) 0.57593(15) 0.17816(8)
C23_3 C 0.85651(16) 0.55620(15) 0.18993(8)
H11_3 H 0.8692 0.5226 0.1849
C24_3 C 0.88289(16) 0.58301(15) 0.20826(8)
C25_3 C 0.92872(17) 0.55852(16) 0.22131(8)
C26_3 C 0.86619(15) 0.63391(15) 0.21470(8)
H12_3 H 0.8839 0.6538 0.2275
C27_3 C 0.82352(17) 0.65415(15) 0.20197(8)
C28_3 C 0.79576(17) 0.62647(15) 0.18410(8)
H13_3 H 0.7661 0.6417 0.1759
N3_3 N 0.80678(13) 0.70835(12) 0.20725(7)
C29_3 C 0.75789(19) 0.72347(16) 0.21478(9)
H14_3 H 0.7293 0.7011 0.2192
O15_3 O 0.74462(12) 0.56588(10) 0.14783(5)
Cu4_3 Cu 0.701685(19) 0.973377(19) 0.123860(9)
O20_3 O 0.64402(16) 0.91255(16) 0.12177(7)
Cu7_2 Cu 0.701685(19) 0.526623(19) 0.123860(9)
Cu8_2 Cu 0.776623(19) 0.451685(19) 0.126140(9)
O21_3 O 0.74879(11) 0.95018(12) 0.09535(5)
H23_2 H 0.968094 0.902398 0.303569
H24_4 H 1 0.861457 0.285486
Cu12_3 Cu 0.20521(3) 0.2500 0.011831(12)
C19_4 C -0.0000 0.0851(3) 0.95184(12)
H10_4 H -0.0000 0.1199 0.9452
O12_4 O 0.25121(11) 0.04982(12) 0.90465(5)
O13_3 O 0.16988(10) 0.19597(11) 0.99114(5)
O14_3 O 0.23319(11) 0.19598(11) 0.96126(5)
C21_4 C 0.20582(16) 0.03347(16) 0.90877(8)
C22_4 C 0.17407(15) 0.06147(16) 0.92816(8)
C23_4 C 0.19380(15) 0.10651(16) 0.93993(8)
H11_4 H 0.2274 0.1192 0.9349
C24_4 C 0.16699(15) 0.13289(16) 0.95826(8)
C25_4 C 0.19148(16) 0.17872(17) 0.97131(8)
C26_4 C 0.11609(15) 0.11619(15) 0.96470(8)
H12_4 H 0.0962 0.1339 0.9775
C27_4 C 0.09585(15) 0.07352(17) 0.95197(8)
C28_4 C 0.12353(15) 0.04576(17) 0.93410(8)
H13_4 H 0.1083 0.0161 0.9259
N3_4 N 0.04165(12) 0.05678(13) 0.95725(7)
C29_4 C 0.02653(16) 0.00789(19) 0.96478(9)
Cu8_3 Cu 0.298315(19) 0.026623(19) 0.876140(9)
Cu14_3 Cu 0.27847(3) 0.2500 0.975360(12)
H14_4 H 0.0489 0.9793 0.9692
O15_4 O 0.18412(10) 0.99462(12) 0.89783(5)
Cu7_3 Cu 0.223377(19) 0.951685(19) 0.873860(9)
Cu2_4 Cu 0.79479(3) 0.2500 0.011831(12)
O5_4 O 0.74874(11) 0.19587(12) 0.02633(5)
C2_4 C 0.66510(15) 0.08342(16) 0.06700(8)
C7_4 C 0.70581(17) 0.18087(18) 0.01663(8)
C8_4 C 0.67441(15) 0.14190(16) 0.03153(7)
C9_4 C 0.62507(16) 0.12943(17) 0.02385(8)
H2_4 H 0.6102 0.1454 0.0091
C10_4 C 0.59639(15) 0.09278(17) 0.03806(8)
C11_4 C 0.61608(15) 0.07059(17) 0.05939(8)
H3_4 H 0.5957 0.0462 0.0690
C12_4 C 0.69431(15) 0.11946(16) 0.05337(7)
H4_4 H 0.7285 0.1289 0.0591
N1_4 N 0.54248(13) 0.08316(15) 0.03025(7)
C13_4 C 0.52626(17) 0.0692(2) 0.00538(9)
C14_5 C 0.5000 0.0940(3) 0.04551(12)
H6_5 H 0.5000 0.1062 0.0627
O7_6 O 0.8525(2) 0.2500 0.04284(10)
C20_4 C 0.69037(16) 0.05687(18) 0.08990(7)
O17_3 O 0.25126(11) 0.19587(12) 0.02633(5)
C30_4 C 0.33490(15) 0.08342(16) 0.06700(8)
C31_4 C 0.29419(17) 0.18087(18) 0.01663(8)
C32_4 C 0.32559(15) 0.14190(16) 0.03153(7)
C33_4 C 0.37493(16) 0.12943(17) 0.02385(8)
H15_4 H 0.3898 0.1454 0.0091
C34_4 C 0.40361(15) 0.09278(17) 0.03806(8)
C35_4 C 0.38392(15) 0.07059(17) 0.05939(8)
H16_4 H 0.4043 0.0462 0.0690
C36_4 C 0.30569(15) 0.11946(16) 0.05337(7)
H17_4 H 0.2715 0.1289 0.0591
N4_4 N 0.45752(13) 0.08316(15) 0.03025(7)
C37_4 C 0.47374(17) 0.0692(2) 0.00538(9)
C38_4 C 0.30963(16) 0.05687(18) 0.08990(7)
O18_4 O 0.33389(10) 0.01874(11) 0.09956(5)
O19_4 O 0.26615(11) 0.07482(12) 0.09728(5)
O25_3 O 0.74874(11) 0.30413(12) 0.02633(5)
Cu1_4 Cu 0.701685(19) 0.026623(19) 0.876140(9)
Cu3_4 Cu 0.72153(3) 0.2500 0.975360(12)
O1_4 O 0.74879(11) 0.04982(12) 0.90465(5)
O2_4 O 0.83012(10) 0.19597(11) 0.99114(5)
O3_4 O 0.76681(11) 0.19598(11) 0.96126(5)
O4_4 O 0.68708(11) 0.19653(13) 0.99605(6)
C1_4 C 0.79418(16) 0.03347(16) 0.90877(8)
C3_4 C 0.82593(15) 0.06147(16) 0.92816(8)
C4_4 C 0.80620(15) 0.10651(16) 0.93993(8)
H1_4 H 0.7726 0.1192 0.9349
C5_4 C 0.83301(15) 0.13289(16) 0.95826(8)
C6_4 C 0.80852(16) 0.17872(17) 0.97131(8)
O6_6 O 0.6628(2) 0.2500 0.94599(10)
H5_4 H 0.5485 0.0613 0.9913
C15_4 C 0.88391(15) 0.11619(15) 0.96470(8)
H7_4 H 0.9038 0.1339 0.9775
C16_4 C 0.90415(15) 0.07352(17) 0.95197(8)
C17_4 C 0.87647(15) 0.04576(17) 0.93410(8)
H8_4 H 0.8917 0.0161 0.9259
N2_4 N 0.95835(12) 0.05678(13) 0.95725(7)
C18_4 C 0.97347(16) 0.00789(19) 0.96478(9)
C19_5 C 1.0000 0.0851(3) 0.95184(12)
H10_5 H 1.0000 0.1199 0.9452
O11_4 O 0.64402(16) 0.08745(16) 0.87823(7)
O16_3 O 0.31292(11) 0.19653(13) 0.99605(6)
H18_4 H 0.4515 0.0613 0.9913
O22_3 O 0.83012(10) 0.30403(11) 0.99114(5)
O23_3 O 0.76681(11) 0.30402(11) 0.96126(5)
O24_3 O 0.68708(11) 0.30347(13) 0.99605(6)
O30_4 O 0.74462(12) 0.06588(10) 0.85217(5)
H9_4 H 0.9511 0.9793 0.9692
O10_4 O 0.81588(10) 0.99462(12) 0.89783(5)
Cu4_4 Cu 0.776623(19) 0.951685(19) 0.873860(9)
O20_4 O 0.83745(16) 0.89402(16) 0.87177(7)
O21_4 O 0.79982(12) 0.99879(11) 0.84535(5)
O26_4 O 0.73126(11) 0.91611(10) 0.84956(5)
O27_4 O 0.66611(10) 0.98126(11) 0.90044(5)
O28_4 O 0.67518(12) 0.98385(11) 0.84728(5)
O29_4 O 0.73385(11) 0.92518(12) 0.90272(5)
Cu11_2 Cu -0.0000 0.04479(3) 0.738169(12)
Cu1_5 Cu 0.223377(19) 0.548315(19) 0.873860(9)
Cu2_5 Cu -0.0000 0.45521(3) 0.738169(12)
Cu3_5 Cu -0.0000 0.52847(3) 0.774640(12)
O1_5 O 0.20018(12) 0.50121(11) 0.84535(5)
O2_5 O 0.05403(11) 0.41988(10) 0.75886(5)
O3_5 O 0.05402(11) 0.48319(11) 0.78874(5)
O4_5 O 0.05347(13) 0.56292(11) 0.75395(6)
O5_5 O 0.05413(12) 0.50126(11) 0.72367(5)
C1_5 C 0.21653(16) 0.45582(16) 0.84123(8)
C2_5 C 0.16658(16) 0.58490(15) 0.68300(8)
C3_5 C 0.18853(16) 0.42407(15) 0.82184(8)
C4_5 C 0.14349(16) 0.44380(15) 0.81007(8)
H1_5 H 0.1308 0.4774 0.8151
C5_5 C 0.11711(16) 0.41699(15) 0.79174(8)
C6_5 C 0.07128(17) 0.44148(16) 0.77869(8)
O6_7 O -0.0000 0.5872(2) 0.80401(10)
C7_5 C 0.06913(18) 0.54419(17) 0.73337(8)
C8_5 C 0.10810(16) 0.57559(15) 0.71847(7)
C9_5 C 0.12057(17) 0.62493(16) 0.72615(8)
H2_5 H 0.1046 0.6398 0.7409
C10_5 C 0.15722(17) 0.65361(15) 0.71194(8)
C11_5 C 0.17941(17) 0.63392(15) 0.69061(8)
H3_5 H 0.2038 0.6543 0.6810
C12_5 C 0.13054(16) 0.55569(15) 0.69663(7)
H4_5 H 0.1211 0.5215 0.6909
N1_5 N 0.16684(15) 0.70752(13) 0.71975(7)
C13_5 C 0.1808(2) 0.72374(17) 0.74462(9)
H5_5 H 0.1887 0.7015 0.7587
C14_6 C 0.1560(3) 0.7500 0.70449(12)
H6_6 H 0.1438 0.7500 0.6873
O7_7 O -0.0000 0.3975(2) 0.70716(10)
C15_5 C 0.13381(15) 0.36609(15) 0.78530(8)
H7_5 H 0.1161 0.3462 0.7725
C16_5 C 0.17648(17) 0.34585(15) 0.79803(8)
C17_5 C 0.20424(17) 0.37353(15) 0.81590(8)
H8_5 H 0.2339 0.3583 0.8241
N2_5 N 0.19322(13) 0.29165(12) 0.79275(7)
C18_5 C 0.24211(19) 0.27653(16) 0.78522(9)
H9_5 H 0.2707 0.2989 0.7808
C19_6 C 0.1649(3) 0.2500 0.79816(12)
H10_6 H 0.1301 0.2500 0.8048
C20_5 C 0.19313(18) 0.55963(16) 0.66010(7)
O8_3 O 0.23126(11) 0.58389(10) 0.65044(5)
O9_3 O 0.17518(12) 0.51615(11) 0.65272(5)
O10_5 O 0.25538(12) 0.43412(10) 0.85217(5)
O11_5 O 0.16255(16) 0.60598(16) 0.87177(7)
O13_4 O 0.05403(11) 0.08012(10) 0.75886(5)
O14_4 O 0.05402(11) 0.01681(11) 0.78874(5)
C21_5 C 0.21653(16) 0.04418(16) 0.84123(8)
C22_5 C 0.18853(16) 0.07593(15) 0.82184(8)
C23_5 C 0.14349(16) 0.05620(15) 0.81007(8)
H11_5 H 0.1308 0.0226 0.8151
C24_5 C 0.11711(16) 0.08301(15) 0.79174(8)
C25_5 C 0.07128(17) 0.05852(16) 0.77869(8)
C26_5 C 0.13381(15) 0.13391(15) 0.78530(8)
H12_5 H 0.1161 0.1538 0.7725
C27_5 C 0.17648(17) 0.15415(15) 0.79803(8)
C28_5 C 0.20424(17) 0.12647(15) 0.81590(8)
H13_5 H 0.2339 0.1417 0.8241
N3_5 N 0.19322(13) 0.20835(12) 0.79275(7)
C29_5 C 0.24211(19) 0.22347(16) 0.78522(9)
H14_5 H 0.2707 0.2011 0.7808
O15_5 O 0.25538(12) 0.06588(10) 0.85217(5)
O16_4 O 0.05347(13) 0.93708(11) 0.75395(6)
O17_4 O 0.05413(12) 0.99874(11) 0.72367(5)
C30_5 C 0.16658(16) 0.91510(15) 0.68300(8)
C31_5 C 0.06913(18) 0.95581(17) 0.73337(8)
C32_5 C 0.10810(16) 0.92441(15) 0.71847(7)
C33_5 C 0.12057(17) 0.87507(16) 0.72615(8)
H15_5 H 0.1046 0.8602 0.7409
C34_5 C 0.15722(17) 0.84639(15) 0.71194(8)
C35_5 C 0.17941(17) 0.86608(15) 0.69061(8)
H16_5 H 0.2038 0.8457 0.6810
C36_5 C 0.13054(16) 0.94431(15) 0.69663(7)
H17_5 H 0.1211 0.9785 0.6909
N4_5 N 0.16684(15) 0.79248(13) 0.71975(7)
C37_5 C 0.1808(2) 0.77626(17) 0.74462(9)
H18_5 H 0.1887 0.7985 0.7587
C38_5 C 0.19313(18) 0.94037(16) 0.66010(7)
O18_5 O 0.23126(11) 0.91611(10) 0.65044(5)
O19_5 O 0.17518(12) 0.98385(11) 0.65272(5)
Cu4_5 Cu 0.298315(19) 0.473377(19) 0.876140(9)
O20_5 O 0.35598(16) 0.41255(16) 0.87823(7)
Cu5_3 Cu 0.201685(19) 0.473377(19) 0.623860(9)
Cu6_3 Cu 0.276623(19) 0.548315(19) 0.626140(9)
Cu13_2 Cu 0.0000 0.97153(3) 0.774640(12)
O21_5 O 0.25121(11) 0.45018(12) 0.90465(5)
O26_5 O 0.33389(10) 0.51874(11) 0.90044(5)
O27_5 O 0.26874(11) 0.58389(10) 0.84956(5)
O28_5 O 0.26615(11) 0.57482(12) 0.90272(5)
O29_5 O 0.32482(12) 0.51615(11) 0.84728(5)
O30_5 O 0.18412(10) 0.50538(12) 0.89783(5)
H19_3 H 0.035459 0.603451 0.805156
H23_3 H 0.0319058 0.402398 0.696431
H24_5 H 4.5118e-18 0.361457 0.714514
O12_5 O 0.20018(12) 0.99879(11) 0.84535(5)
Cu11_3 Cu 1.0000 0.04479(3) 0.738169(12)
Cu2_6 Cu 1.0000 0.45521(3) 0.738169(12)
Cu3_6 Cu 1.0000 0.52847(3) 0.774640(12)
O6_8 O 1.0000 0.5872(2) 0.80401(10)
O7_8 O 1.0000 0.3975(2) 0.70716(10)
Cu13_3 Cu 1.0000 0.97153(3) 0.774640(12)
O22_4 O 0.94597(11) 0.41988(10) 0.75886(5)
O23_4 O 0.94598(11) 0.48319(11) 0.78874(5)
O24_4 O 0.94653(13) 0.56292(11) 0.75395(6)
O25_4 O 0.94587(12) 0.50126(11) 0.72367(5)
H20_3 H 0.973612 0.614705 0.799816
H24_6 H 1 0.361457 0.714514
O7_9 O 0.0000 0.1025(2) 0.70716(10)
H24_7 H -4.5118e-18 0.138543 0.714514
O6_9 O -0.0000 0.9128(2) 0.80401(10)
H20_4 H 0.0263883 0.885295 0.799816
O2_6 O 0.94597(11) 0.08012(10) 0.75886(5)
O3_6 O 0.94598(11) 0.01681(11) 0.78874(5)
C1_6 C 0.78347(16) 0.04418(16) 0.84123(8)
C3_6 C 0.81147(16) 0.07593(15) 0.82184(8)
C4_6 C 0.85651(16) 0.05620(15) 0.81007(8)
H1_6 H 0.8692 0.0226 0.8151
C5_6 C 0.88289(16) 0.08301(15) 0.79174(8)
C6_6 C 0.92872(17) 0.05852(16) 0.77869(8)
O7_10 O 1.0000 0.1025(2) 0.70716(10)
C15_6 C 0.86619(15) 0.13391(15) 0.78530(8)
H7_6 H 0.8839 0.1538 0.7725
C16_6 C 0.82352(17) 0.15415(15) 0.79803(8)
C17_6 C 0.79576(17) 0.12647(15) 0.81590(8)
H8_6 H 0.7661 0.1417 0.8241
N2_6 N 0.80678(13) 0.20835(12) 0.79275(7)
C18_6 C 0.75789(19) 0.22347(16) 0.78522(9)
H9_6 H 0.7293 0.2011 0.7808
C19_7 C 0.8351(3) 0.2500 0.79816(12)
H10_7 H 0.8699 0.2500 0.8048
O12_6 O 0.79982(12) 0.50121(11) 0.84535(5)
C21_6 C 0.78347(16) 0.45582(16) 0.84123(8)
C22_6 C 0.81147(16) 0.42407(15) 0.82184(8)
C23_6 C 0.85651(16) 0.44380(15) 0.81007(8)
H11_6 H 0.8692 0.4774 0.8151
C24_6 C 0.88289(16) 0.41699(15) 0.79174(8)
C25_6 C 0.92872(17) 0.44148(16) 0.77869(8)
C26_6 C 0.86619(15) 0.36609(15) 0.78530(8)
H12_6 H 0.8839 0.3462 0.7725
C27_6 C 0.82352(17) 0.34585(15) 0.79803(8)
C28_6 C 0.79576(17) 0.37353(15) 0.81590(8)
H13_6 H 0.7661 0.3583 0.8241
N3_6 N 0.80678(13) 0.29165(12) 0.79275(7)
C29_6 C 0.75789(19) 0.27653(16) 0.78522(9)
H14_6 H 0.7293 0.2989 0.7808
O15_6 O 0.74462(12) 0.43412(10) 0.85217(5)
Cu7_4 Cu 0.701685(19) 0.473377(19) 0.876140(9)
Cu8_4 Cu 0.776623(19) 0.548315(19) 0.873860(9)
H23_4 H 0.968094 0.0976022 0.696431
H24_8 H 1 0.138543 0.714514
O4_6 O 0.94653(13) 0.93708(11) 0.75395(6)
O5_6 O 0.94587(12) 0.99874(11) 0.72367(5)
C2_6 C 0.83342(16) 0.91510(15) 0.68300(8)
O6_10 O 1.0000 0.9128(2) 0.80401(10)
C7_6 C 0.93087(18) 0.95581(17) 0.73337(8)
C8_6 C 0.89190(16) 0.92441(15) 0.71847(7)
C9_6 C 0.87943(17) 0.87507(16) 0.72615(8)
H2_6 H 0.8954 0.8602 0.7409
C10_6 C 0.84278(17) 0.84639(15) 0.71194(8)
C11_6 C 0.82059(17) 0.86608(15) 0.69061(8)
H3_6 H 0.7962 0.8457 0.6810
C12_6 C 0.86946(16) 0.94431(15) 0.69663(7)
H4_6 H 0.8789 0.9785 0.6909
N1_6 N 0.83316(15) 0.79248(13) 0.71975(7)
C13_6 C 0.8192(2) 0.77626(17) 0.74462(9)
H5_6 H 0.8113 0.7985 0.7587
C14_7 C 0.8440(3) 0.7500 0.70449(12)
H6_7 H 0.8562 0.7500 0.6873
C20_6 C 0.80687(18) 0.94037(16) 0.66010(7)
O8_4 O 0.76874(11) 0.91611(10) 0.65044(5)
O9_4 O 0.82482(12) 0.98385(11) 0.65272(5)
C30_6 C 0.83342(16) 0.58490(15) 0.68300(8)
C31_6 C 0.93087(18) 0.54419(17) 0.73337(8)
C32_6 C 0.89190(16) 0.57559(15) 0.71847(7)
C33_6 C 0.87943(17) 0.62493(16) 0.72615(8)
H15_6 H 0.8954 0.6398 0.7409
C34_6 C 0.84278(17) 0.65361(15) 0.71194(8)
C35_6 C 0.82059(17) 0.63392(15) 0.69061(8)
H16_6 H 0.7962 0.6543 0.6810
C36_6 C 0.86946(16) 0.55569(15) 0.69663(7)
H17_6 H 0.8789 0.5215 0.6909
N4_6 N 0.83316(15) 0.70752(13) 0.71975(7)
C37_6 C 0.8192(2) 0.72374(17) 0.74462(9)
H18_6 H 0.8113 0.7015 0.7587
C38_6 C 0.80687(18) 0.55963(16) 0.66010(7)
O18_6 O 0.76874(11) 0.58389(10) 0.65044(5)
O19_6 O 0.82482(12) 0.51615(11) 0.65272(5)
Cu9_4 Cu 0.798315(19) 0.473377(19) 0.623860(9)
Cu10_4 Cu 0.723377(19) 0.548315(19) 0.626140(9)
H19_4 H 0.964541 0.896549 0.805156
H14_7 H 0.0489 0.0207 0.0308
O15_7 O 0.18412(10) 0.00538(12) 0.10217(5)
C19_8 C 0.0000 0.9149(3) 0.04816(12)
H10_8 H -0.0000 0.8801 0.0548
O12_7 O 0.25121(11) 0.95018(12) 0.09535(5)
O13_5 O 0.16988(10) 0.80403(11) 0.00886(5)
O14_5 O 0.23319(11) 0.80402(11) 0.03874(5)
C21_7 C 0.20582(16) 0.96653(16) 0.09123(8)
C22_7 C 0.17407(15) 0.93853(16) 0.07184(8)
C23_7 C 0.19380(15) 0.89349(16) 0.06007(8)
H11_7 H 0.2274 0.8808 0.0651
C24_7 C 0.16699(15) 0.86711(16) 0.04174(8)
C25_7 C 0.19148(16) 0.82128(17) 0.02869(8)
C26_7 C 0.11609(15) 0.88381(15) 0.03530(8)
H12_7 H 0.0962 0.8661 0.0225
C27_7 C 0.09585(15) 0.92648(17) 0.04803(8)
C28_7 C 0.12353(15) 0.95424(17) 0.06590(8)
H13_7 H 0.1083 0.9839 0.0741
N3_7 N 0.04165(12) 0.94322(13) 0.04275(7)
C29_7 C 0.02653(16) 0.99211(19) 0.03522(9)
Cu14_4 Cu 0.27847(3) 0.7500 0.024640(12)
Cu12_4 Cu 0.20521(3) 0.7500 0.988169(12)
H9_7 H 0.9511 0.0207 0.0308
Cu3_7 Cu 0.72153(3) 0.7500 0.024640(12)
O2_7 O 0.83012(10) 0.80403(11) 0.00886(5)
O3_7 O 0.76681(11) 0.80402(11) 0.03874(5)
O4_7 O 0.68708(11) 0.80347(13) 0.00395(6)
C1_7 C 0.79418(16) 0.96653(16) 0.09123(8)
C3_7 C 0.82593(15) 0.93853(16) 0.07184(8)
C4_7 C 0.80620(15) 0.89349(16) 0.06007(8)
H1_7 H 0.7726 0.8808 0.0651
C5_7 C 0.83301(15) 0.86711(16) 0.04174(8)
C6_7 C 0.80852(16) 0.82128(17) 0.02869(8)
O6_11 O 0.6628(2) 0.7500 0.05401(10)
H5_7 H 0.5485 0.9387 0.0087
C15_7 C 0.88391(15) 0.88381(15) 0.03530(8)
H7_7 H 0.9038 0.8661 0.0225
C16_7 C 0.90415(15) 0.92648(17) 0.04803(8)
C17_7 C 0.87647(15) 0.95424(17) 0.06590(8)
H8_7 H 0.8917 0.9839 0.0741
N2_7 N 0.95835(12) 0.94322(13) 0.04275(7)
C18_7 C 0.97347(16) 0.99211(19) 0.03522(9)
C19_9 C 1.0000 0.9149(3) 0.04816(12)
H10_9 H 1.0000 0.8801 0.0548
O16_5 O 0.31292(11) 0.80347(13) 0.00395(6)
H18_7 H 0.4515 0.9387 0.0087
O22_5 O 0.83012(10) 0.69597(11) 0.00886(5)
O23_5 O 0.76681(11) 0.69598(11) 0.03874(5)
O24_5 O 0.68708(11) 0.69653(13) 0.00395(6)
Cu2_7 Cu 0.79479(3) 0.7500 0.988169(12)
O5_7 O 0.74874(11) 0.80413(12) 0.97367(5)
C2_7 C 0.66510(15) 0.91658(16) 0.93300(8)
C7_7 C 0.70581(17) 0.81913(18) 0.98337(8)
C8_7 C 0.67441(15) 0.85810(16) 0.96847(7)
C9_7 C 0.62507(16) 0.87057(17) 0.97615(8)
H2_7 H 0.6102 0.8546 0.9909
C10_7 C 0.59639(15) 0.90722(17) 0.96194(8)
C11_7 C 0.61608(15) 0.92941(17) 0.94061(8)
H3_7 H 0.5957 0.9538 0.9310
C12_7 C 0.69431(15) 0.88054(16) 0.94663(7)
H4_7 H 0.7285 0.8711 0.9409
N1_7 N 0.54248(13) 0.91684(15) 0.96975(7)
C13_7 C 0.52626(17) 0.9308(2) 0.99462(9)
C14_8 C 0.5000 0.9060(3) 0.95449(12)
H6_8 H 0.5000 0.8938 0.9373
O7_11 O 0.8525(2) 0.7500 0.95716(10)
C20_7 C 0.69037(16) 0.94313(18) 0.91010(7)
O17_5 O 0.25126(11) 0.80413(12) 0.97367(5)
C30_7 C 0.33490(15) 0.91658(16) 0.93300(8)
C31_7 C 0.29419(17) 0.81913(18) 0.98337(8)
C32_7 C 0.32559(15) 0.85810(16) 0.96847(7)
C33_7 C 0.37493(16) 0.87057(17) 0.97615(8)
H15_7 H 0.3898 0.8546 0.9909
C34_7 C 0.40361(15) 0.90722(17) 0.96194(8)
C35_7 C 0.38392(15) 0.92941(17) 0.94061(8)
H16_7 H 0.4043 0.9538 0.9310
C36_7 C 0.30569(15) 0.88054(16) 0.94663(7)
H17_7 H 0.2715 0.8711 0.9409
N4_7 N 0.45752(13) 0.91684(15) 0.96975(7)
C37_7 C 0.47374(17) 0.9308(2) 0.99462(9)
C38_7 C 0.30963(16) 0.94313(18) 0.91010(7)
O18_7 O 0.33389(10) 0.98126(11) 0.90044(5)
O19_7 O 0.26615(11) 0.92518(12) 0.90272(5)
O25_5 O 0.74874(11) 0.69587(12) 0.97367(5)
C14_9 C 0.0000 0.0940(3) 0.45449(12)
H6_9 H 0.0000 0.1062 0.4373
O16_6 O 0.18708(11) 0.19653(13) 0.50395(6)
O17_6 O 0.24874(11) 0.19587(12) 0.47367(5)
C30_8 C 0.16510(15) 0.08342(16) 0.43300(8)
C31_8 C 0.20581(17) 0.18087(18) 0.48337(8)
C32_8 C 0.17441(15) 0.14190(16) 0.46847(7)
C33_8 C 0.12507(16) 0.12943(17) 0.47615(8)
H15_8 H 0.1102 0.1454 0.4909
C34_8 C 0.09639(15) 0.09278(17) 0.46194(8)
C35_8 C 0.11608(15) 0.07059(17) 0.44061(8)
H16_8 H 0.0957 0.0462 0.4310
C36_8 C 0.19431(15) 0.11946(16) 0.44663(7)
H17_8 H 0.2285 0.1289 0.4409
N4_8 N 0.04248(13) 0.08316(15) 0.46975(7)
C37_8 C 0.02626(17) 0.0692(2) 0.49462(9)
H18_8 H 0.0485 0.0613 0.5087
C38_8 C 0.19037(16) 0.05687(18) 0.41010(7)
O18_8 O 0.16611(10) 0.01874(11) 0.40044(5)
O19_8 O 0.23385(11) 0.07482(12) 0.40272(5)
Cu11_4 Cu 0.29479(3) 0.2500 0.488169(12)
Cu13_4 Cu 0.22153(3) 0.2500 0.524640(12)
Cu2_8 Cu 0.70521(3) 0.2500 0.488169(12)
Cu3_8 Cu 0.77847(3) 0.2500 0.524640(12)
O1_6 O 0.75121(11) 0.04982(12) 0.59535(5)
O2_8 O 0.66988(10) 0.19597(11) 0.50886(5)
O3_8 O 0.73319(11) 0.19598(11) 0.53874(5)
O4_8 O 0.81292(11) 0.19653(13) 0.50395(6)
O5_8 O 0.75126(11) 0.19587(12) 0.47367(5)
C1_8 C 0.70582(16) 0.03347(16) 0.59123(8)
C2_8 C 0.83490(15) 0.08342(16) 0.43300(8)
C3_8 C 0.67407(15) 0.06147(16) 0.57184(8)
C4_8 C 0.69380(15) 0.10651(16) 0.56007(8)
H1_8 H 0.7274 0.1192 0.5651
C5_8 C 0.66699(15) 0.13289(16) 0.54174(8)
C6_8 C 0.69148(16) 0.17872(17) 0.52869(8)
O6_12 O 0.8372(2) 0.2500 0.55401(10)
C7_8 C 0.79419(17) 0.18087(18) 0.48337(8)
C8_8 C 0.82559(15) 0.14190(16) 0.46847(7)
C9_8 C 0.87493(16) 0.12943(17) 0.47615(8)
H2_8 H 0.8898 0.1454 0.4909
C10_8 C 0.90361(15) 0.09278(17) 0.46194(8)
C11_8 C 0.88392(15) 0.07059(17) 0.44061(8)
H3_8 H 0.9043 0.0462 0.4310
C12_8 C 0.80569(15) 0.11946(16) 0.44663(7)
H4_8 H 0.7715 0.1289 0.4409
N1_8 N 0.95752(13) 0.08316(15) 0.46975(7)
C13_8 C 0.97374(17) 0.0692(2) 0.49462(9)
H5_8 H 0.9515 0.0613 0.5087
C14_10 C 1.0000 0.0940(3) 0.45449(12)
H6_10 H 1.0000 0.1062 0.4373
O7_12 O 0.6475(2) 0.2500 0.45716(10)
C15_8 C 0.61609(15) 0.11619(15) 0.53530(8)
H7_8 H 0.5962 0.1339 0.5225
C16_8 C 0.59585(15) 0.07352(17) 0.54803(8)
C17_8 C 0.62353(15) 0.04576(17) 0.56590(8)
H8_8 H 0.6083 0.0161 0.5741
N2_8 N 0.54165(12) 0.05678(13) 0.54275(7)
C18_8 C 0.52653(16) 0.00789(19) 0.53522(9)
C19_10 C 0.5000 0.0851(3) 0.54816(12)
H10_10 H 0.5000 0.1199 0.5548
C20_8 C 0.80963(16) 0.05687(18) 0.41010(7)
O11_6 O 0.85598(16) 0.08745(16) 0.62177(7)
O12_8 O 0.24879(11) 0.04982(12) 0.59535(5)
O13_6 O 0.33012(10) 0.19597(11) 0.50886(5)
O14_6 O 0.26681(11) 0.19598(11) 0.53874(5)
C21_8 C 0.29418(16) 0.03347(16) 0.59123(8)
C22_8 C 0.32593(15) 0.06147(16) 0.57184(8)
C23_8 C 0.30620(15) 0.10651(16) 0.56007(8)
H11_8 H 0.2726 0.1192 0.5651
C24_8 C 0.33301(15) 0.13289(16) 0.54174(8)
C25_8 C 0.30852(16) 0.17872(17) 0.52869(8)
C26_8 C 0.38391(15) 0.11619(15) 0.53530(8)
H12_8 H 0.4038 0.1339 0.5225
C27_8 C 0.40415(15) 0.07352(17) 0.54803(8)
C28_8 C 0.37647(15) 0.04576(17) 0.56590(8)
H13_8 H 0.3917 0.0161 0.5741
N3_8 N 0.45835(12) 0.05678(13) 0.54275(7)
C29_8 C 0.47347(16) 0.00789(19) 0.53522(9)
O22_6 O 0.66988(10) 0.30403(11) 0.50886(5)
O23_6 O 0.73319(11) 0.30402(11) 0.53874(5)
O24_6 O 0.81292(11) 0.30347(13) 0.50395(6)
O25_6 O 0.75126(11) 0.30413(12) 0.47367(5)
O30_6 O 0.75538(12) 0.06588(10) 0.64783(5)
H9_8 H 0.5489 0.9793 0.5308
O10_6 O 0.68412(10) 0.99462(12) 0.60217(5)
H14_8 H 0.4511 0.9793 0.5308
O15_8 O 0.31588(10) 0.99462(12) 0.60217(5)
O20_6 O 0.66255(16) 0.89402(16) 0.62823(7)
O21_6 O 0.70018(12) 0.99879(11) 0.65465(5)
Cu2_9 Cu 0.5000 0.04479(3) 0.761831(12)
O2_9 O 0.55403(11) 0.08012(10) 0.74114(5)
O3_9 O 0.55402(11) 0.01681(11) 0.71126(5)
C1_9 C 0.71653(16) 0.04418(16) 0.65877(8)
C3_9 C 0.68853(16) 0.07593(15) 0.67816(8)
C4_9 C 0.64349(16) 0.05620(15) 0.68993(8)
H1_9 H 0.6308 0.0226 0.6849
C5_9 C 0.61711(16) 0.08301(15) 0.70826(8)
C6_9 C 0.57128(17) 0.05852(16) 0.72131(8)
O7_13 O 0.5000 0.1025(2) 0.79284(10)
C15_9 C 0.63381(15) 0.13391(15) 0.71470(8)
H7_9 H 0.6161 0.1538 0.7275
C16_9 C 0.67648(17) 0.15415(15) 0.70197(8)
C17_9 C 0.70424(17) 0.12647(15) 0.68410(8)
H8_9 H 0.7339 0.1417 0.6759
N2_9 N 0.69322(13) 0.20835(12) 0.70725(7)
C18_9 C 0.74211(19) 0.22347(16) 0.71478(9)
H9_9 H 0.7707 0.2011 0.7192
C19_11 C 0.6649(3) 0.2500 0.70184(12)
H10_11 H 0.6301 0.2500 0.6952
O12_9 O 0.70018(12) 0.50121(11) 0.65465(5)
O13_7 O 0.55403(11) 0.41988(10) 0.74114(5)
O14_7 O 0.55402(11) 0.48319(11) 0.71126(5)
C21_9 C 0.71653(16) 0.45582(16) 0.65877(8)
C22_9 C 0.68853(16) 0.42407(15) 0.67816(8)
C23_9 C 0.64349(16) 0.44380(15) 0.68993(8)
H11_9 H 0.6308 0.4774 0.6849
C24_9 C 0.61711(16) 0.41699(15) 0.70826(8)
C25_9 C 0.57128(17) 0.44148(16) 0.72131(8)
C26_9 C 0.63381(15) 0.36609(15) 0.71470(8)
H12_9 H 0.6161 0.3462 0.7275
C27_9 C 0.67648(17) 0.34585(15) 0.70197(8)
C28_9 C 0.70424(17) 0.37353(15) 0.68410(8)
H13_9 H 0.7339 0.3583 0.6759
N3_9 N 0.69322(13) 0.29165(12) 0.70725(7)
C29_9 C 0.74211(19) 0.27653(16) 0.71478(9)
H14_9 H 0.7707 0.2989 0.7192
O15_9 O 0.75538(12) 0.43412(10) 0.64783(5)
Cu12_5 Cu 0.5000 0.45521(3) 0.761831(12)
Cu14_5 Cu 0.5000 0.52847(3) 0.725360(12)
O22_7 O 0.44597(11) 0.08012(10) 0.74114(5)
O23_7 O 0.44598(11) 0.01681(11) 0.71126(5)
Cu3_9 Cu 0.5000 0.97153(3) 0.725360(12)
O4_9 O 0.55347(13) 0.93708(11) 0.74605(6)
O5_9 O 0.55413(12) 0.99874(11) 0.77633(5)
C2_9 C 0.66658(16) 0.91510(15) 0.81700(8)
O6_13 O 0.5000 0.9128(2) 0.69599(10)
C7_9 C 0.56913(18) 0.95581(17) 0.76663(8)
C8_9 C 0.60810(16) 0.92441(15) 0.78153(7)
C9_9 C 0.62057(17) 0.87507(16) 0.77385(8)
H2_9 H 0.6046 0.8602 0.7591
C10_9 C 0.65722(17) 0.84639(15) 0.78806(8)
C11_9 C 0.67941(17) 0.86608(15) 0.80939(8)
H3_9 H 0.7038 0.8457 0.8190
C12_9 C 0.63054(16) 0.94431(15) 0.80337(7)
H4_9 H 0.6211 0.9785 0.8091
N1_9 N 0.66684(15) 0.79248(13) 0.78025(7)
C13_9 C 0.6808(2) 0.77626(17) 0.75538(9)
H5_9 H 0.6887 0.7985 0.7413
C14_11 C 0.6560(3) 0.7500 0.79551(12)
H6_11 H 0.6438 0.7500 0.8127
C20_9 C 0.69313(18) 0.94037(16) 0.83990(7)
O16_7 O 0.55347(13) 0.56292(11) 0.74605(6)
O17_7 O 0.55413(12) 0.50126(11) 0.77633(5)
C30_9 C 0.66658(16) 0.58490(15) 0.81700(8)
C31_9 C 0.56913(18) 0.54419(17) 0.76663(8)
C32_9 C 0.60810(16) 0.57559(15) 0.78153(7)
C33_9 C 0.62057(17) 0.62493(16) 0.77385(8)
H15_9 H 0.6046 0.6398 0.7591
C34_9 C 0.65722(17) 0.65361(15) 0.78806(8)
C35_9 C 0.67941(17) 0.63392(15) 0.80939(8)
H16_9 H 0.7038 0.6543 0.8190
C36_9 C 0.63054(16) 0.55569(15) 0.80337(7)
H17_9 H 0.6211 0.5215 0.8091
N4_9 N 0.66684(15) 0.70752(13) 0.78025(7)
C37_9 C 0.6808(2) 0.72374(17) 0.75538(9)
H18_9 H 0.6887 0.7015 0.7413
C38_9 C 0.69313(18) 0.55963(16) 0.83990(7)
O18_9 O 0.73126(11) 0.58389(10) 0.84956(5)
O19_9 O 0.67518(12) 0.51615(11) 0.84728(5)
O24_7 O 0.44653(13) 0.93708(11) 0.74605(6)
O25_7 O 0.44587(12) 0.99874(11) 0.77633(5)
O5_10 O 0.25126(11) 0.30413(12) 0.02633(5)
C2_10 C 0.33490(15) 0.41658(16) 0.06700(8)
C7_10 C 0.29419(17) 0.31913(18) 0.01663(8)
C8_10 C 0.32559(15) 0.35810(16) 0.03153(7)
C9_10 C 0.37493(16) 0.37057(17) 0.02385(8)
H2_10 H 0.3898 0.3546 0.0091
C10_10 C 0.40361(15) 0.40722(17) 0.03806(8)
C11_10 C 0.38392(15) 0.42941(17) 0.05939(8)
H3_10 H 0.4043 0.4538 0.0690
C12_10 C 0.30569(15) 0.38054(16) 0.05337(7)
H4_10 H 0.2715 0.3711 0.0591
N1_10 N 0.45752(13) 0.41684(15) 0.03025(7)
C13_10 C 0.47374(17) 0.4308(2) 0.00538(9)
C14_12 C 0.5000 0.4060(3) 0.04551(12)
H6_12 H 0.5000 0.3938 0.0627
O7_14 O 0.1475(2) 0.2500 0.04284(10)
C20_10 C 0.30963(16) 0.44313(18) 0.08990(7)
C30_10 C 0.66510(15) 0.41658(16) 0.06700(8)
C31_10 C 0.70581(17) 0.31913(18) 0.01663(8)
C32_10 C 0.67441(15) 0.35810(16) 0.03153(7)
C33_10 C 0.62507(16) 0.37057(17) 0.02385(8)
H15_10 H 0.6102 0.3546 0.0091
C34_10 C 0.59639(15) 0.40722(17) 0.03806(8)
C35_10 C 0.61608(15) 0.42941(17) 0.05939(8)
H16_10 H 0.5957 0.4538 0.0690
C36_10 C 0.69431(15) 0.38054(16) 0.05337(7)
H17_10 H 0.7285 0.3711 0.0591
N4_10 N 0.54248(13) 0.41684(15) 0.03025(7)
C37_10 C 0.52626(17) 0.4308(2) 0.00538(9)
C38_10 C 0.69037(16) 0.44313(18) 0.08990(7)
O18_10 O 0.66611(10) 0.48126(11) 0.09956(5)
O19_10 O 0.73385(11) 0.42518(12) 0.09728(5)
O2_10 O 0.16988(10) 0.30403(11) 0.99114(5)
O3_10 O 0.23319(11) 0.30402(11) 0.96126(5)
O4_10 O 0.31292(11) 0.30347(13) 0.99605(6)
C1_10 C 0.20582(16) 0.46653(16) 0.90877(8)
C3_10 C 0.17407(15) 0.43853(16) 0.92816(8)
C4_10 C 0.19380(15) 0.39349(16) 0.93993(8)
H1_10 H 0.2274 0.3808 0.9349
C5_10 C 0.16699(15) 0.36711(16) 0.95826(8)
C6_10 C 0.19148(16) 0.32128(17) 0.97131(8)
O6_14 O 0.3372(2) 0.2500 0.94599(10)
H5_10 H 0.4515 0.4387 0.9913
C15_10 C 0.11609(15) 0.38381(15) 0.96470(8)
H7_10 H 0.0962 0.3661 0.9775
C16_10 C 0.09585(15) 0.42648(17) 0.95197(8)
C17_10 C 0.12353(15) 0.45424(17) 0.93410(8)
H8_10 H 0.1083 0.4839 0.9259
N2_10 N 0.04165(12) 0.44322(13) 0.95725(7)
C18_10 C 0.02653(16) 0.49211(19) 0.96478(9)
H9_10 H 0.0489 0.5207 0.9692
C19_12 C -0.0000 0.4149(3) 0.95184(12)
H10_12 H 0.0000 0.3801 0.9452
H18_10 H 0.5485 0.4387 0.9913
C19_13 C 1.0000 0.4149(3) 0.95184(12)
H10_13 H 1.0000 0.3801 0.9452
O12_10 O 0.74879(11) 0.45018(12) 0.90465(5)
C21_10 C 0.79418(16) 0.46653(16) 0.90877(8)
C22_10 C 0.82593(15) 0.43853(16) 0.92816(8)
C23_10 C 0.80620(15) 0.39349(16) 0.93993(8)
H11_10 H 0.7726 0.3808 0.9349
C24_10 C 0.83301(15) 0.36711(16) 0.95826(8)
C25_10 C 0.80852(16) 0.32128(17) 0.97131(8)
C26_10 C 0.88391(15) 0.38381(15) 0.96470(8)
H12_10 H 0.9038 0.3661 0.9775
C27_10 C 0.90415(15) 0.42648(17) 0.95197(8)
C28_10 C 0.87647(15) 0.45424(17) 0.93410(8)
H13_10 H 0.8917 0.4839 0.9259
N3_10 N 0.95835(12) 0.44322(13) 0.95725(7)
C29_10 C 0.97347(16) 0.49211(19) 0.96478(9)
H14_10 H 0.9511 0.5207 0.9692
O15_10 O 0.81588(10) 0.50538(12) 0.89783(5)
O1_7 O 0.29982(12) 0.50121(11) 0.65465(5)
O2_11 O 0.44597(11) 0.41988(10) 0.74114(5)
O3_11 O 0.44598(11) 0.48319(11) 0.71126(5)
O4_11 O 0.44653(13) 0.56292(11) 0.74605(6)
O5_11 O 0.44587(12) 0.50126(11) 0.77633(5)
C1_11 C 0.28347(16) 0.45582(16) 0.65877(8)
C2_11 C 0.33342(16) 0.58490(15) 0.81700(8)
C3_11 C 0.31147(16) 0.42407(15) 0.67816(8)
C4_11 C 0.35651(16) 0.44380(15) 0.68993(8)
H1_11 H 0.3692 0.4774 0.6849
C5_11 C 0.38289(16) 0.41699(15) 0.70826(8)
C6_11 C 0.42872(17) 0.44148(16) 0.72131(8)
O6_15 O 0.5000 0.5872(2) 0.69599(10)
C7_11 C 0.43087(18) 0.54419(17) 0.76663(8)
C8_11 C 0.39190(16) 0.57559(15) 0.78153(7)
C9_11 C 0.37943(17) 0.62493(16) 0.77385(8)
H2_11 H 0.3954 0.6398 0.7591
C10_11 C 0.34278(17) 0.65361(15) 0.78806(8)
C11_11 C 0.32059(17) 0.63392(15) 0.80939(8)
H3_11 H 0.2962 0.6543 0.8190
C12_11 C 0.36946(16) 0.55569(15) 0.80337(7)
H4_11 H 0.3789 0.5215 0.8091
N1_11 N 0.33316(15) 0.70752(13) 0.78025(7)
C13_11 C 0.3192(2) 0.72374(17) 0.75538(9)
H5_11 H 0.3113 0.7015 0.7413
C14_13 C 0.3440(3) 0.7500 0.79551(12)
H6_13 H 0.3562 0.7500 0.8127
O7_15 O 0.5000 0.3975(2) 0.79284(10)
C15_11 C 0.36619(15) 0.36609(15) 0.71470(8)
H7_11 H 0.3839 0.3462 0.7275
C16_11 C 0.32352(17) 0.34585(15) 0.70197(8)
C17_11 C 0.29576(17) 0.37353(15) 0.68410(8)
H8_11 H 0.2661 0.3583 0.6759
N2_11 N 0.30678(13) 0.29165(12) 0.70725(7)
C18_11 C 0.25789(19) 0.27653(16) 0.71478(9)
H9_11 H 0.2293 0.2989 0.7192
C19_14 C 0.3351(3) 0.2500 0.70184(12)
H10_14 H 0.3699 0.2500 0.6952
C20_11 C 0.30687(18) 0.55963(16) 0.83990(7)
O10_7 O 0.24462(12) 0.43412(10) 0.64783(5)
O11_7 O 0.33745(16) 0.60598(16) 0.62823(7)
C21_11 C 0.28347(16) 0.04418(16) 0.65877(8)
C22_11 C 0.31147(16) 0.07593(15) 0.67816(8)
C23_11 C 0.35651(16) 0.05620(15) 0.68993(8)
H11_11 H 0.3692 0.0226 0.6849
C24_11 C 0.38289(16) 0.08301(15) 0.70826(8)
C25_11 C 0.42872(17) 0.05852(16) 0.72131(8)
C26_11 C 0.36619(15) 0.13391(15) 0.71470(8)
H12_11 H 0.3839 0.1538 0.7275
C27_11 C 0.32352(17) 0.15415(15) 0.70197(8)
C28_11 C 0.29576(17) 0.12647(15) 0.68410(8)
H13_11 H 0.2661 0.1417 0.6759
N3_11 N 0.30678(13) 0.20835(12) 0.70725(7)
C29_11 C 0.25789(19) 0.22347(16) 0.71478(9)
H14_11 H 0.2293 0.2011 0.7192
O15_11 O 0.24462(12) 0.06588(10) 0.64783(5)
C30_11 C 0.33342(16) 0.91510(15) 0.81700(8)
C31_11 C 0.43087(18) 0.95581(17) 0.76663(8)
C32_11 C 0.39190(16) 0.92441(15) 0.78153(7)
C33_11 C 0.37943(17) 0.87507(16) 0.77385(8)
H15_11 H 0.3954 0.8602 0.7591
C34_11 C 0.34278(17) 0.84639(15) 0.78806(8)
C35_11 C 0.32059(17) 0.86608(15) 0.80939(8)
H16_11 H 0.2962 0.8457 0.8190
C36_11 C 0.36946(16) 0.94431(15) 0.80337(7)
H17_11 H 0.3789 0.9785 0.8091
N4_11 N 0.33316(15) 0.79248(13) 0.78025(7)
C37_11 C 0.3192(2) 0.77626(17) 0.75538(9)
H18_11 H 0.3113 0.7985 0.7413
C38_11 C 0.30687(18) 0.94037(16) 0.83990(7)
O18_11 O 0.26874(11) 0.91611(10) 0.84956(5)
O19_11 O 0.32482(12) 0.98385(11) 0.84728(5)
O20_7 O 0.14402(16) 0.41255(16) 0.62177(7)
O21_7 O 0.24879(11) 0.45018(12) 0.59535(5)
O26_6 O 0.16611(10) 0.51874(11) 0.59956(5)
O28_6 O 0.23385(11) 0.57482(12) 0.59728(5)
O30_7 O 0.31588(10) 0.50538(12) 0.60217(5)
O12_11 O 0.29982(12) 0.99879(11) 0.65465(5)
O1_8 O 0.24879(11) 0.54982(12) 0.40465(5)
O2_12 O 0.33012(10) 0.69597(11) 0.49114(5)
O3_12 O 0.26681(11) 0.69598(11) 0.46126(5)
O4_12 O 0.18708(11) 0.69653(13) 0.49605(6)
O5_12 O 0.24874(11) 0.69587(12) 0.52633(5)
C1_12 C 0.29418(16) 0.53347(16) 0.40877(8)
C2_12 C 0.16510(15) 0.58342(16) 0.56700(8)
C3_12 C 0.32593(15) 0.56147(16) 0.42816(8)
C4_12 C 0.30620(15) 0.60651(16) 0.43993(8)
H1_12 H 0.2726 0.6192 0.4349
C5_12 C 0.33301(15) 0.63289(16) 0.45826(8)
C6_12 C 0.30852(16) 0.67872(17) 0.47131(8)
O6_16 O 0.1628(2) 0.7500 0.44599(10)
C7_12 C 0.20581(17) 0.68087(18) 0.51663(8)
C8_12 C 0.17441(15) 0.64190(16) 0.53153(7)
C9_12 C 0.12507(16) 0.62943(17) 0.52385(8)
H2_12 H 0.1102 0.6454 0.5091
C10_12 C 0.09639(15) 0.59278(17) 0.53806(8)
C11_12 C 0.11608(15) 0.57059(17) 0.55939(8)
H3_12 H 0.0957 0.5462 0.5690
C12_12 C 0.19431(15) 0.61946(16) 0.55337(7)
H4_12 H 0.2285 0.6289 0.5591
N1_12 N 0.04248(13) 0.58316(15) 0.53025(7)
C13_12 C 0.02626(17) 0.5692(2) 0.50538(9)
H5_12 H 0.0485 0.5613 0.4913
C14_14 C -0.0000 0.5940(3) 0.54551(12)
H6_14 H -0.0000 0.6062 0.5627
O7_16 O 0.3525(2) 0.7500 0.54284(10)
C15_12 C 0.38391(15) 0.61619(15) 0.46470(8)
H7_12 H 0.4038 0.6339 0.4775
C16_12 C 0.40415(15) 0.57352(17) 0.45197(8)
C17_12 C 0.37647(15) 0.54576(17) 0.43410(8)
H8_12 H 0.3917 0.5161 0.4259
N2_12 N 0.45835(12) 0.55678(13) 0.45725(7)
C18_12 C 0.47347(16) 0.50789(19) 0.46478(9)
H9_12 H 0.4511 0.4793 0.4692
C19_15 C 0.5000 0.5851(3) 0.45184(12)
H10_15 H 0.5000 0.6199 0.4452
C20_12 C 0.19037(16) 0.55687(18) 0.58990(7)
O10_8 O 0.31588(10) 0.49462(12) 0.39783(5)
O11_8 O 0.14402(16) 0.58745(16) 0.37823(7)
O12_12 O 0.75121(11) 0.54982(12) 0.40465(5)
C21_12 C 0.70582(16) 0.53347(16) 0.40877(8)
C22_12 C 0.67407(15) 0.56147(16) 0.42816(8)
C23_12 C 0.69380(15) 0.60651(16) 0.43993(8)
H11_12 H 0.7274 0.6192 0.4349
C24_12 C 0.66699(15) 0.63289(16) 0.45826(8)
C25_12 C 0.69148(16) 0.67872(17) 0.47131(8)
C26_12 C 0.61609(15) 0.61619(15) 0.46470(8)
H12_12 H 0.5962 0.6339 0.4775
C27_12 C 0.59585(15) 0.57352(17) 0.45197(8)
C28_12 C 0.62353(15) 0.54576(17) 0.43410(8)
H13_12 H 0.6083 0.5161 0.4259
N3_12 N 0.54165(12) 0.55678(13) 0.45725(7)
C29_12 C 0.52653(16) 0.50789(19) 0.46478(9)
H14_12 H 0.5489 0.4793 0.4692
O15_12 O 0.68412(10) 0.49462(12) 0.39783(5)
O20_8 O 0.33745(16) 0.39402(16) 0.37177(7)
O21_8 O 0.29982(12) 0.49879(11) 0.34535(5)
O27_6 O 0.16611(10) 0.48126(11) 0.40044(5)
O29_6 O 0.23385(11) 0.42518(12) 0.40272(5)
O30_8 O 0.24462(12) 0.56588(10) 0.35217(5)
C14_15 C 1.0000 0.5940(3) 0.54551(12)
H6_15 H 1.0000 0.6062 0.5627
C30_12 C 0.83490(15) 0.58342(16) 0.56700(8)
C31_12 C 0.79419(17) 0.68087(18) 0.51663(8)
C32_12 C 0.82559(15) 0.64190(16) 0.53153(7)
C33_12 C 0.87493(16) 0.62943(17) 0.52385(8)
H15_12 H 0.8898 0.6454 0.5091
C34_12 C 0.90361(15) 0.59278(17) 0.53806(8)
C35_12 C 0.88392(15) 0.57059(17) 0.55939(8)
H16_12 H 0.9043 0.5462 0.5690
C36_12 C 0.80569(15) 0.61946(16) 0.55337(7)
H17_12 H 0.7715 0.6289 0.5591
N4_12 N 0.95752(13) 0.58316(15) 0.53025(7)
C37_12 C 0.97374(17) 0.5692(2) 0.50538(9)
H18_12 H 0.9515 0.5613 0.4913
C38_12 C 0.80963(16) 0.55687(18) 0.58990(7)
O18_12 O 0.83389(10) 0.51874(11) 0.59956(5)
O19_12 O 0.76615(11) 0.57482(12) 0.59728(5)
Cu3_10 Cu 0.5000 0.02847(3) 0.274640(12)
O4_13 O 0.55347(13) 0.06292(11) 0.25395(6)
O5_13 O 0.55413(12) 0.00126(11) 0.22367(5)
C2_13 C 0.66658(16) 0.08490(15) 0.18300(8)
O6_17 O 0.5000 0.0872(2) 0.30401(10)
C7_13 C 0.56913(18) 0.04419(17) 0.23337(8)
C8_13 C 0.60810(16) 0.07559(15) 0.21847(7)
C9_13 C 0.62057(17) 0.12493(16) 0.22615(8)
H2_13 H 0.6046 0.1398 0.2409
C10_13 C 0.65722(17) 0.15361(15) 0.21194(8)
C11_13 C 0.67941(17) 0.13392(15) 0.19061(8)
H3_13 H 0.7038 0.1543 0.1810
C12_13 C 0.63054(16) 0.05569(15) 0.19663(7)
H4_13 H 0.6211 0.0215 0.1909
N1_13 N 0.66684(15) 0.20752(13) 0.21975(7)
C13_13 C 0.6808(2) 0.22374(17) 0.24462(9)
H5_13 H 0.6887 0.2015 0.2587
C14_16 C 0.6560(3) 0.2500 0.20449(12)
H6_16 H 0.6438 0.2500 0.1873
C20_13 C 0.69313(18) 0.05963(16) 0.16010(7)
O16_8 O 0.55347(13) 0.43708(11) 0.25395(6)
O17_8 O 0.55413(12) 0.49874(11) 0.22367(5)
C30_13 C 0.66658(16) 0.41510(15) 0.18300(8)
C31_13 C 0.56913(18) 0.45581(17) 0.23337(8)
C32_13 C 0.60810(16) 0.42441(15) 0.21847(7)
C33_13 C 0.62057(17) 0.37507(16) 0.22615(8)
H15_13 H 0.6046 0.3602 0.2409
C34_13 C 0.65722(17) 0.34639(15) 0.21194(8)
C35_13 C 0.67941(17) 0.36608(15) 0.19061(8)
H16_13 H 0.7038 0.3457 0.1810
C36_13 C 0.63054(16) 0.44431(15) 0.19663(7)
H17_13 H 0.6211 0.4785 0.1909
N4_13 N 0.66684(15) 0.29248(13) 0.21975(7)
C37_13 C 0.6808(2) 0.27626(17) 0.24462(9)
H18_13 H 0.6887 0.2985 0.2587
C38_13 C 0.69313(18) 0.44037(16) 0.16010(7)
O18_13 O 0.73126(11) 0.41611(10) 0.15044(5)
O19_13 O 0.67518(12) 0.48385(11) 0.15272(5)
Cu11_5 Cu 0.5000 0.54479(3) 0.238169(12)
Cu13_5 Cu 0.5000 0.47153(3) 0.274640(12)
O24_8 O 0.44653(13) 0.06292(11) 0.25395(6)
O25_8 O 0.44587(12) 0.00126(11) 0.22367(5)
Cu2_10 Cu 0.5000 0.95521(3) 0.238169(12)
O2_13 O 0.55403(11) 0.91988(10) 0.25886(5)
O3_13 O 0.55402(11) 0.98319(11) 0.28874(5)
C1_13 C 0.71653(16) 0.95582(16) 0.34123(8)
C3_13 C 0.68853(16) 0.92407(15) 0.32184(8)
C4_13 C 0.64349(16) 0.94380(15) 0.31007(8)
H1_13 H 0.6308 0.9774 0.3151
C5_13 C 0.61711(16) 0.91699(15) 0.29174(8)
C6_13 C 0.57128(17) 0.94148(16) 0.27869(8)
O7_17 O 0.5000 0.8975(2) 0.20716(10)
C15_13 C 0.63381(15) 0.86609(15) 0.28530(8)
H7_13 H 0.6161 0.8462 0.2725
C16_13 C 0.67648(17) 0.84585(15) 0.29803(8)
C17_13 C 0.70424(17) 0.87353(15) 0.31590(8)
H8_13 H 0.7339 0.8583 0.3241
N2_13 N 0.69322(13) 0.79165(12) 0.29275(7)
C18_13 C 0.74211(19) 0.77653(16) 0.28522(9)
H9_13 H 0.7707 0.7989 0.2808
C19_16 C 0.6649(3) 0.7500 0.29816(12)
H10_16 H 0.6301 0.7500 0.3048
O12_13 O 0.70018(12) 0.49879(11) 0.34535(5)
O13_8 O 0.55403(11) 0.58012(10) 0.25886(5)
O14_8 O 0.55402(11) 0.51681(11) 0.28874(5)
C21_13 C 0.71653(16) 0.54418(16) 0.34123(8)
C22_13 C 0.68853(16) 0.57593(15) 0.32184(8)
C23_13 C 0.64349(16) 0.55620(15) 0.31007(8)
H11_13 H 0.6308 0.5226 0.3151
C24_13 C 0.61711(16) 0.58301(15) 0.29174(8)
C25_13 C 0.57128(17) 0.55852(16) 0.27869(8)
C26_13 C 0.63381(15) 0.63391(15) 0.28530(8)
H12_13 H 0.6161 0.6538 0.2725
C27_13 C 0.67648(17) 0.65415(15) 0.29803(8)
C28_13 C 0.70424(17) 0.62647(15) 0.31590(8)
H13_13 H 0.7339 0.6417 0.3241
N3_13 N 0.69322(13) 0.70835(12) 0.29275(7)
C29_13 C 0.74211(19) 0.72347(16) 0.28522(9)
H14_13 H 0.7707 0.7011 0.2808
O15_13 O 0.75538(12) 0.56588(10) 0.35217(5)
O22_8 O 0.44597(11) 0.91988(10) 0.25886(5)
O23_8 O 0.44598(11) 0.98319(11) 0.28874(5)
O12_14 O 0.29982(12) 0.00121(11) 0.34535(5)
O2_14 O 0.44597(11) 0.58012(10) 0.25886(5)
O3_14 O 0.44598(11) 0.51681(11) 0.28874(5)
O4_14 O 0.44653(13) 0.43708(11) 0.25395(6)
O5_14 O 0.44587(12) 0.49874(11) 0.22367(5)
C1_14 C 0.28347(16) 0.54418(16) 0.34123(8)
C2_14 C 0.33342(16) 0.41510(15) 0.18300(8)
C3_14 C 0.31147(16) 0.57593(15) 0.32184(8)
C4_14 C 0.35651(16) 0.55620(15) 0.31007(8)
H1_14 H 0.3692 0.5226 0.3151
C5_14 C 0.38289(16) 0.58301(15) 0.29174(8)
C6_14 C 0.42872(17) 0.55852(16) 0.27869(8)
O6_18 O 0.5000 0.4128(2) 0.30401(10)
C7_14 C 0.43087(18) 0.45581(17) 0.23337(8)
C8_14 C 0.39190(16) 0.42441(15) 0.21847(7)
C9_14 C 0.37943(17) 0.37507(16) 0.22615(8)
H2_14 H 0.3954 0.3602 0.2409
C10_14 C 0.34278(17) 0.34639(15) 0.21194(8)
C11_14 C 0.32059(17) 0.36608(15) 0.19061(8)
H3_14 H 0.2962 0.3457 0.1810
C12_14 C 0.36946(16) 0.44431(15) 0.19663(7)
H4_14 H 0.3789 0.4785 0.1909
N1_14 N 0.33316(15) 0.29248(13) 0.21975(7)
C13_14 C 0.3192(2) 0.27626(17) 0.24462(9)
H5_14 H 0.3113 0.2985 0.2587
C14_17 C 0.3440(3) 0.2500 0.20449(12)
H6_17 H 0.3562 0.2500 0.1873
O7_18 O 0.5000 0.6025(2) 0.20716(10)
C15_14 C 0.36619(15) 0.63391(15) 0.28530(8)
H7_14 H 0.3839 0.6538 0.2725
C16_14 C 0.32352(17) 0.65415(15) 0.29803(8)
C17_14 C 0.29576(17) 0.62647(15) 0.31590(8)
H8_14 H 0.2661 0.6417 0.3241
N2_14 N 0.30678(13) 0.70835(12) 0.29275(7)
C18_14 C 0.25789(19) 0.72347(16) 0.28522(9)
H9_14 H 0.2293 0.7011 0.2808
C19_17 C 0.3351(3) 0.7500 0.29816(12)
H10_17 H 0.3699 0.7500 0.3048
C20_14 C 0.30687(18) 0.44037(16) 0.16010(7)
C21_14 C 0.28347(16) 0.95582(16) 0.34123(8)
C22_14 C 0.31147(16) 0.92407(15) 0.32184(8)
C23_14 C 0.35651(16) 0.94380(15) 0.31007(8)
H11_14 H 0.3692 0.9774 0.3151
C24_14 C 0.38289(16) 0.91699(15) 0.29174(8)
C25_14 C 0.42872(17) 0.94148(16) 0.27869(8)
C26_14 C 0.36619(15) 0.86609(15) 0.28530(8)
H12_14 H 0.3839 0.8462 0.2725
C27_14 C 0.32352(17) 0.84585(15) 0.29803(8)
C28_14 C 0.29576(17) 0.87353(15) 0.31590(8)
H13_14 H 0.2661 0.8583 0.3241
N3_14 N 0.30678(13) 0.79165(12) 0.29275(7)
C29_14 C 0.25789(19) 0.77653(16) 0.28522(9)
H14_14 H 0.2293 0.7989 0.2808
O15_14 O 0.24462(12) 0.93412(10) 0.35217(5)
C30_14 C 0.33342(16) 0.08490(15) 0.18300(8)
C31_14 C 0.43087(18) 0.04419(17) 0.23337(8)
C32_14 C 0.39190(16) 0.07559(15) 0.21847(7)
C33_14 C 0.37943(17) 0.12493(16) 0.22615(8)
H15_14 H 0.3954 0.1398 0.2409
C34_14 C 0.34278(17) 0.15361(15) 0.21194(8)
C35_14 C 0.32059(17) 0.13392(15) 0.19061(8)
H16_14 H 0.2962 0.1543 0.1810
C36_14 C 0.36946(16) 0.05569(15) 0.19663(7)
H17_14 H 0.3789 0.0215 0.1909
N4_14 N 0.33316(15) 0.20752(13) 0.21975(7)
C37_14 C 0.3192(2) 0.22374(17) 0.24462(9)
H18_14 H 0.3113 0.2015 0.2587
C38_14 C 0.30687(18) 0.05963(16) 0.16010(7)
O18_14 O 0.26874(11) 0.08389(10) 0.15044(5)
O19_14 O 0.32482(12) 0.01615(11) 0.15272(5)
O2_15 O 0.33012(10) 0.30403(11) 0.50886(5)
O3_15 O 0.26681(11) 0.30402(11) 0.53874(5)
O4_15 O 0.18708(11) 0.30347(13) 0.50395(6)
O5_15 O 0.24874(11) 0.30413(12) 0.47367(5)
C1_15 C 0.29418(16) 0.46653(16) 0.59123(8)
C2_15 C 0.16510(15) 0.41658(16) 0.43300(8)
C3_15 C 0.32593(15) 0.43853(16) 0.57184(8)
C4_15 C 0.30620(15) 0.39349(16) 0.56007(8)
H1_15 H 0.2726 0.3808 0.5651
C5_15 C 0.33301(15) 0.36711(16) 0.54174(8)
C6_15 C 0.30852(16) 0.32128(17) 0.52869(8)
O6_19 O 0.1628(2) 0.2500 0.55401(10)
C7_15 C 0.20581(17) 0.31913(18) 0.48337(8)
C8_15 C 0.17441(15) 0.35810(16) 0.46847(7)
C9_15 C 0.12507(16) 0.37057(17) 0.47615(8)
H2_15 H 0.1102 0.3546 0.4909
C10_15 C 0.09639(15) 0.40722(17) 0.46194(8)
C11_15 C 0.11608(15) 0.42941(17) 0.44061(8)
H3_15 H 0.0957 0.4538 0.4310
C12_15 C 0.19431(15) 0.38054(16) 0.44663(7)
H4_15 H 0.2285 0.3711 0.4409
N1_15 N 0.04248(13) 0.41684(15) 0.46975(7)
C13_15 C 0.02626(17) 0.4308(2) 0.49462(9)
H5_15 H 0.0485 0.4387 0.5087
C14_18 C -0.0000 0.4060(3) 0.45449(12)
H6_18 H -0.0000 0.3938 0.4373
O7_19 O 0.3525(2) 0.2500 0.45716(10)
C15_15 C 0.38391(15) 0.38381(15) 0.53530(8)
H7_15 H 0.4038 0.3661 0.5225
C16_15 C 0.40415(15) 0.42648(17) 0.54803(8)
C17_15 C 0.37647(15) 0.45424(17) 0.56590(8)
H8_15 H 0.3917 0.4839 0.5741
N2_15 N 0.45835(12) 0.44322(13) 0.54275(7)
C18_15 C 0.47347(16) 0.49211(19) 0.53522(9)
H9_15 H 0.4511 0.5207 0.5308
C19_18 C 0.5000 0.4149(3) 0.54816(12)
H10_18 H 0.5000 0.3801 0.5548
C20_15 C 0.19037(16) 0.44313(18) 0.41010(7)
O12_15 O 0.75121(11) 0.45018(12) 0.59535(5)
C21_15 C 0.70582(16) 0.46653(16) 0.59123(8)
C22_15 C 0.67407(15) 0.43853(16) 0.57184(8)
C23_15 C 0.69380(15) 0.39349(16) 0.56007(8)
H11_15 H 0.7274 0.3808 0.5651
C24_15 C 0.66699(15) 0.36711(16) 0.54174(8)
C25_15 C 0.69148(16) 0.32128(17) 0.52869(8)
C26_15 C 0.61609(15) 0.38381(15) 0.53530(8)
H12_15 H 0.5962 0.3661 0.5225
C27_15 C 0.59585(15) 0.42648(17) 0.54803(8)
C28_15 C 0.62353(15) 0.45424(17) 0.56590(8)
H13_15 H 0.6083 0.4839 0.5741
N3_15 N 0.54165(12) 0.44322(13) 0.54275(7)
C29_15 C 0.52653(16) 0.49211(19) 0.53522(9)
H14_15 H 0.5489 0.5207 0.5308
O15_15 O 0.68412(10) 0.50538(12) 0.60217(5)
C14_19 C 1.0000 0.4060(3) 0.45449(12)
H6_19 H 1.0000 0.3938 0.4373
C30_15 C 0.83490(15) 0.41658(16) 0.43300(8)
C31_15 C 0.79419(17) 0.31913(18) 0.48337(8)
C32_15 C 0.82559(15) 0.35810(16) 0.46847(7)
C33_15 C 0.87493(16) 0.37057(17) 0.47615(8)
H15_15 H 0.8898 0.3546 0.4909
C34_15 C 0.90361(15) 0.40722(17) 0.46194(8)
C35_15 C 0.88392(15) 0.42941(17) 0.44061(8)
H16_15 H 0.9043 0.4538 0.4310
C36_15 C 0.80569(15) 0.38054(16) 0.44663(7)
H17_15 H 0.7715 0.3711 0.4409
N4_15 N 0.95752(13) 0.41684(15) 0.46975(7)
C37_15 C 0.97374(17) 0.4308(2) 0.49462(9)
H18_15 H 0.9515 0.4387 0.5087
C38_15 C 0.80963(16) 0.44313(18) 0.41010(7)
O18_15 O 0.83389(10) 0.48126(11) 0.40044(5)
O19_15 O 0.76615(11) 0.42518(12) 0.40272(5)
O2_16 O 0.16988(10) 0.69597(11) 0.00886(5)
O3_16 O 0.23319(11) 0.69598(11) 0.03874(5)
O4_16 O 0.31292(11) 0.69653(13) 0.00395(6)
C1_16 C 0.20582(16) 0.53347(16) 0.09123(8)
C3_16 C 0.17407(15) 0.56147(16) 0.07184(8)
C4_16 C 0.19380(15) 0.60651(16) 0.06007(8)
H1_16 H 0.2274 0.6192 0.0651
C5_16 C 0.16699(15) 0.63289(16) 0.04174(8)
C6_16 C 0.19148(16) 0.67872(17) 0.02869(8)
O6_20 O 0.3372(2) 0.7500 0.05401(10)
H5_16 H 0.4515 0.5613 0.0087
C15_16 C 0.11609(15) 0.61619(15) 0.03530(8)
H7_16 H 0.0962 0.6339 0.0225
C16_16 C 0.09585(15) 0.57352(17) 0.04803(8)
C17_16 C 0.12353(15) 0.54576(17) 0.06590(8)
H8_16 H 0.1083 0.5161 0.0741
N2_16 N 0.04165(12) 0.55678(13) 0.04275(7)
C18_16 C 0.02653(16) 0.50789(19) 0.03522(9)
H9_16 H 0.0489 0.4793 0.0308
C19_19 C -0.0000 0.5851(3) 0.04816(12)
H10_19 H 0.0000 0.6199 0.0548
H18_16 H 0.5485 0.5613 0.0087
O5_16 O 0.25126(11) 0.69587(12) 0.97367(5)
C2_16 C 0.33490(15) 0.58342(16) 0.93300(8)
C7_16 C 0.29419(17) 0.68087(18) 0.98337(8)
C8_16 C 0.32559(15) 0.64190(16) 0.96847(7)
C9_16 C 0.37493(16) 0.62943(17) 0.97615(8)
H2_16 H 0.3898 0.6454 0.9909
C10_16 C 0.40361(15) 0.59278(17) 0.96194(8)
C11_16 C 0.38392(15) 0.57059(17) 0.94061(8)
H3_16 H 0.4043 0.5462 0.9310
C12_16 C 0.30569(15) 0.61946(16) 0.94663(7)
H4_16 H 0.2715 0.6289 0.9409
N1_16 N 0.45752(13) 0.58316(15) 0.96975(7)
C13_16 C 0.47374(17) 0.5692(2) 0.99462(9)
C14_20 C 0.5000 0.5940(3) 0.95449(12)
H6_20 H 0.5000 0.6062 0.9373
O7_20 O 0.1475(2) 0.7500 0.95716(10)
C20_16 C 0.30963(16) 0.55687(18) 0.91010(7)
C30_16 C 0.66510(15) 0.58342(16) 0.93300(8)
C31_16 C 0.70581(17) 0.68087(18) 0.98337(8)
C32_16 C 0.67441(15) 0.64190(16) 0.96847(7)
C33_16 C 0.62507(16) 0.62943(17) 0.97615(8)
H15_16 H 0.6102 0.6454 0.9909
C34_16 C 0.59639(15) 0.59278(17) 0.96194(8)
C35_16 C 0.61608(15) 0.57059(17) 0.94061(8)
H16_16 H 0.5957 0.5462 0.9310
C36_16 C 0.69431(15) 0.61946(16) 0.94663(7)
H17_16 H 0.7285 0.6289 0.9409
N4_16 N 0.54248(13) 0.58316(15) 0.96975(7)
C37_16 C 0.52626(17) 0.5692(2) 0.99462(9)
C38_16 C 0.69037(16) 0.55687(18) 0.91010(7)
O18_16 O 0.66611(10) 0.51874(11) 0.90044(5)
O19_16 O 0.73385(11) 0.57482(12) 0.90272(5)
C19_20 C 1.0000 0.5851(3) 0.04816(12)
H10_20 H 1.0000 0.6199 0.0548
O12_16 O 0.74879(11) 0.54982(12) 0.09535(5)
C21_16 C 0.79418(16) 0.53347(16) 0.09123(8)
C22_16 C 0.82593(15) 0.56147(16) 0.07184(8)
C23_16 C 0.80620(15) 0.60651(16) 0.06007(8)
H11_16 H 0.7726 0.6192 0.0651
C24_16 C 0.83301(15) 0.63289(16) 0.04174(8)
C25_16 C 0.80852(16) 0.67872(17) 0.02869(8)
C26_16 C 0.88391(15) 0.61619(15) 0.03530(8)
H12_16 H 0.9038 0.6339 0.0225
C27_16 C 0.90415(15) 0.57352(17) 0.04803(8)
C28_16 C 0.87647(15) 0.54576(17) 0.06590(8)
H13_16 H 0.8917 0.5161 0.0741
N3_16 N 0.95835(12) 0.55678(13) 0.04275(7)
C29_16 C 0.97347(16) 0.50789(19) 0.03522(9)
H14_16 H 0.9511 0.4793 0.0308
O15_16 O 0.81588(10) 0.49462(12) 0.10217(5)
H20_5 H 0.0263883 0.614705 0.799816
O11_9 O 0.83745(16) 0.60598(16) 0.87177(7)
O20_9 O 0.64402(16) 0.41255(16) 0.87823(7)
H19_5 H 0.964541 0.603451 0.805156
H23_5 H 0.968094 0.402398 0.696431
O11_10 O 0.14402(16) 0.08745(16) 0.62177(7)
O20_10 O 0.33745(16) 0.89402(16) 0.62823(7)
O20_11 O 0.35598(16) 0.08745(16) 0.87823(7)
H23_6 H 0.0319058 0.0976022 0.696431
O11_11 O 0.16255(16) 0.89402(16) 0.87177(7)
H19_6 H 0.035459 0.896549 0.805156
H20_6 H 0.973612 0.885295 0.799816
O20_12 O 0.16255(16) 0.10598(16) 0.12823(7)
O11_12 O 0.35598(16) 0.91255(16) 0.12177(7)
H20_7 H 0.0263883 0.385295 0.200184
O11_13 O 0.83745(16) 0.39402(16) 0.12823(7)
O20_13 O 0.64402(16) 0.58745(16) 0.12177(7)
H19_7 H 0.964541 0.396549 0.194844
H23_7 H 0.968094 0.597602 0.303569
H19_8 H 0.035459 0.103451 0.194844
H23_8 H 0.0319058 0.902398 0.303569
H20_8 H 0.973612 0.114705 0.200184
O20_14 O 0.33745(16) 0.10598(16) 0.37177(7)
O11_14 O 0.14402(16) 0.91255(16) 0.37823(7)
O11_15 O 0.66255(16) 0.39402(16) 0.37177(7)
O20_15 O 0.85598(16) 0.58745(16) 0.37823(7)
O11_16 O 0.85598(16) 0.41255(16) 0.62177(7)
O20_16 O 0.66255(16) 0.60598(16) 0.62823(7)
loop_
_geom_bond_atom_site_label_1
_geom_bond_atom_site_label_2
_geom_bond_site_symmetry_1
_geom_bond_site_symmetry_2
Cu8 O12 1_555 1_555
Cu1 O1 1_555 1_555
Cu2 Cu3 1_555 1_555
Cu3 O3 1_555 1_555
O1 C1 1_555 1_555
O2 Cu2 1_555 1_555
O3 C6 1_555 1_555
O4 Cu3 1_555 1_555
O5 Cu2 1_555 1_555
C1 C3 1_555 1_555
C2 C11 1_555 1_555
C3 C4 1_555 1_555
C4 H1 1_555 1_555
C5 C4 1_555 1_555
C6 O2 1_555 1_555
O6 Cu3 1_555 1_555
C7 O4 1_555 1_555
C8 C7 1_555 1_555
C9 C8 1_555 1_555
H2 C9 1_555 1_555
C10 C9 1_555 1_555
C11 C10 1_555 1_555
H3 C11 1_555 1_555
C12 C2 1_555 1_555
H4 C12 1_555 1_555
N1 C10 1_555 1_555
C13 N1 1_555 1_555
H5 C13 1_555 1_555
C14 N1 1_555 1_555
H6 C14 1_555 1_555
O7 Cu2 1_555 1_555
C15 C5 1_555 1_555
H7 C15 1_555 1_555
C16 C15 1_555 1_555
C17 C3 1_555 1_555
H8 C17 1_555 1_555
N2 C16 1_555 1_555
C18 N2 1_555 1_555
H9 C18 1_555 1_555
C19 N2 1_555 1_555
H10 C19 1_555 1_555
C20 C2 1_555 1_555
O8 C20 1_555 1_555
O9 C20 1_555 1_555
O10 C1 1_555 1_555
O11 Cu1 1_555 1_555
O13 C25 1_555 1_555
O14 C25 1_555 1_555
C21 C22 1_555 1_555
C22 C23 1_555 1_555
C23 H11 1_555 1_555
C24 C23 1_555 1_555
C25 C24 1_555 1_555
C26 C24 1_555 1_555
H12 C26 1_555 1_555
C27 C26 1_555 1_555
C28 C22 1_555 1_555
H13 C28 1_555 1_555
N3 C19 1_555 1_555
C29 C18 1_555 1_555
H14 C29 1_555 1_555
O15 C21 1_555 1_555
O16 C31 1_555 1_555
O17 C31 1_555 1_555
C30 C35 1_555 1_555
C31 C32 1_555 1_555
C32 C33 1_555 1_555
C33 H15 1_555 1_555
C34 C33 1_555 1_555
C35 C34 1_555 1_555
H16 C35 1_555 1_555
C36 C30 1_555 1_555
H17 C36 1_555 1_555
N4 C14 1_555 1_555
C37 C13 1_555 1_555
H18 C37 1_555 1_555
C38 C30 1_555 1_555
O18 C38 1_555 1_555
O19 C38 1_555 1_555
Cu4 Cu1 1_555 1_555
O20 Cu4 1_555 1_555
Cu5 O9 1_555 1_555
Cu6 O8 1_555 1_555
Cu7 O15 1_555 1_555
Cu10 O18 1_555 1_555
Cu12 O13 1_555 1_555
Cu14 O16 1_555 1_555
O21 Cu4 1_555 1_555
O26 Cu4 1_555 1_555
O27 Cu1 1_555 1_555
O28 Cu1 1_555 1_555
O29 Cu4 1_555 1_555
O30 Cu1 1_555 1_555
O5 C7 1_555 1_555
C5 C6 1_555 1_555
C8 C12 1_555 1_555
C16 C17 1_555 1_555
O10 Cu4 1_555 1_555
C27 C28 1_555 1_555
C27 N3 1_555 1_555
N3 C29 1_555 1_555
C32 C36 1_555 1_555
C34 N4 1_555 1_555
N4 C37 1_555 1_555
Cu5 Cu6 1_555 1_555
O6 H19 1_555 1_555
O7 H23 1_555 1_555
O7 H24 1_555 1_555
Cu2_2 Cu3_2 1_555 1_555
O6_2 Cu3_2 1_555 1_555
O7_2 Cu2_2 1_555 1_555
O22 Cu2_2 1_555 1_555
O23 Cu3_2 1_555 1_555
O24 Cu3_2 1_555 1_555
O25 Cu2_2 1_555 1_555
O6_2 H20 1_555 1_555
O7_2 H24_2 1_555 1_555
H6_2 C14_2 1_555 1_555
O16_2 C31_2 1_555 1_555
O17_2 C31_2 1_555 1_555
C30_2 C35_2 1_555 1_555
C31_2 C32_2 1_555 1_555
C32_2 C33_2 1_555 1_555
C33_2 H15_2 1_555 1_555
C34_2 C33_2 1_555 1_555
C35_2 C34_2 1_555 1_555
H16_2 C35_2 1_555 1_555
C36_2 C30_2 1_555 1_555
H17_2 C36_2 1_555 1_555
N4_2 C14_2 1_555 1_555
H18_2 C37_2 1_555 1_555
C38_2 C30_2 1_555 1_555
O18_2 C38_2 1_555 1_555
O19_2 C38_2 1_555 1_555
Cu9_2 O19_2 1_555 1_555
Cu11 O17_2 1_555 1_555
Cu13 O16_2 1_555 1_555
C32_2 C36_2 1_555 1_555
C34_2 N4_2 1_555 1_555
N4_2 C37_2 1_555 1_555
Cu11 Cu13 1_555 1_555
O20_2 Cu4_2 1_555 1_555
Cu10 O15_2 1_555 1_555
O21_2 Cu4_2 1_555 1_555
O26_2 Cu4_2 1_555 1_555
O29_2 Cu4_2 1_555 1_555
O10_2 Cu4_2 1_555 1_555
Cu1_2 O1_2 1_555 1_555
Cu2_3 Cu3_3 1_555 1_555
Cu3_3 O3_2 1_555 1_555
O1_2 C1_2 1_555 1_555
O2_2 Cu2_3 1_555 1_555
O3_2 C6_2 1_555 1_555
O4_2 Cu3_3 1_555 1_555
O5_2 Cu2_3 1_555 1_555
C1_2 C3_2 1_555 1_555
C2_2 C11_2 1_555 1_555
C3_2 C4_2 1_555 1_555
C4_2 H1_2 1_555 1_555
C5_2 C4_2 1_555 1_555
C6_2 O2_2 1_555 1_555
O6_3 Cu3_3 1_555 1_555
C7_2 O4_2 1_555 1_555
C8_2 C7_2 1_555 1_555
C9_2 C8_2 1_555 1_555
H2_2 C9_2 1_555 1_555
C10_2 C9_2 1_555 1_555
C11_2 C10_2 1_555 1_555
H3_2 C11_2 1_555 1_555
C12_2 C2_2 1_555 1_555
H4_2 C12_2 1_555 1_555
N1_2 C10_2 1_555 1_555
C13_2 N1_2 1_555 1_555
H5_2 C13_2 1_555 1_555
C14_3 N1_2 1_555 1_555
H6_3 C14_3 1_555 1_555
O7_3 Cu2_3 1_555 1_555
C15_2 C5_2 1_555 1_555
H7_2 C15_2 1_555 1_555
C16_2 C15_2 1_555 1_555
C17_2 C3_2 1_555 1_555
H8_2 C17_2 1_555 1_555
N2_2 C16_2 1_555 1_555
C18_2 N2_2 1_555 1_555
C19_2 N2_2 1_555 1_555
H10_2 C19_2 1_555 1_555
C20_2 C2_2 1_555 1_555
O8_2 C20_2 1_555 1_555
O9_2 C20_2 1_555 1_555
O11_2 Cu1_2 1_555 1_555
O12_2 C21_2 1_555 1_555
O13_2 C25_2 1_555 1_555
O14_2 C25_2 1_555 1_555
C21_2 C22_2 1_555 1_555
C22_2 C23_2 1_555 1_555
C23_2 H11_2 1_555 1_555
C24_2 C23_2 1_555 1_555
C25_2 C24_2 1_555 1_555
C26_2 C24_2 1_555 1_555
H12_2 C26_2 1_555 1_555
C27_2 C26_2 1_555 1_555
C28_2 C22_2 1_555 1_555
H13_2 C28_2 1_555 1_555
N3_2 C19_2 1_555 1_555
C29_2 C18_2 1_555 1_555
Cu5_2 O9_2 1_555 1_555
Cu9 O12_2 1_555 1_555
Cu11 O13_2 1_555 1_555
Cu13 O14_2 1_555 1_555
O22_2 Cu2_3 1_555 1_555
O23_2 Cu3_3 1_555 1_555
O24_2 Cu3_3 1_555 1_555
O25_2 Cu2_3 1_555 1_555
O30_2 Cu1_2 1_555 1_555
O5_2 C7_2 1_555 1_555
C5_2 C6_2 1_555 1_555
C8_2 C12_2 1_555 1_555
C16_2 C17_2 1_555 1_555
C27_2 C28_2 1_555 1_555
C27_2 N3_2 1_555 1_555
N3_2 C29_2 1_555 1_555
O6_4 Cu14 1_555 1_555
O6_4 H20_2 1_555 1_555
O7_4 Cu12 1_555 1_555
O7_4 H24_3 1_555 1_555
Cu1_3 O1_3 1_555 1_555
O4_3 Cu14_2 1_555 1_555
C2_3 C11_3 1_555 1_555
O6_5 Cu14_2 1_555 1_555
C7_3 O4_3 1_555 1_555
C8_3 C7_3 1_555 1_555
C9_3 C8_3 1_555 1_555
H2_3 C9_3 1_555 1_555
C10_3 C9_3 1_555 1_555
C11_3 C10_3 1_555 1_555
H3_3 C11_3 1_555 1_555
C12_3 C2_3 1_555 1_555
H4_3 C12_3 1_555 1_555
N1_3 C10_3 1_555 1_555
C13_3 N1_3 1_555 1_555
H5_3 C13_3 1_555 1_555
C14_4 N1_3 1_555 1_555
H6_4 C14_4 1_555 1_555
C20_3 C2_3 1_555 1_555
O26_2 C20_3 1_555 1_555
O28_2 C20_3 1_555 1_555
O11_3 Cu1_3 1_555 1_555
O24 C31_3 1_555 1_555
O25 C31_3 1_555 1_555
C30_3 C35_3 1_555 1_555
C31_3 C32_3 1_555 1_555
C32_3 C33_3 1_555 1_555
C33_3 H15_3 1_555 1_555
C34_3 C33_3 1_555 1_555
C35_3 C34_3 1_555 1_555
H16_3 C35_3 1_555 1_555
C36_3 C30_3 1_555 1_555
H17_3 C36_3 1_555 1_555
N4_3 C14_4 1_555 1_555
C37_3 C13_3 1_555 1_555
H18_3 C37_3 1_555 1_555
C38_3 C30_3 1_555 1_555
O18_3 C38_3 1_555 1_555
O19_3 C38_3 1_555 1_555
Cu9_3 O19_3 1_555 1_555
Cu10_3 O18_3 1_555 1_555
O27_3 Cu1_3 1_555 1_555
O28_3 Cu1_3 1_555 1_555
O30_3 Cu1_3 1_555 1_555
O5_3 C7_3 1_555 1_555
C8_3 C12_3 1_555 1_555
C32_3 C36_3 1_555 1_555
C34_3 N4_3 1_555 1_555
N4_3 C37_3 1_555 1_555
Cu9_3 Cu10_3 1_555 1_555
O6_5 H19_2 1_555 1_555
O2_3 Cu12_2 1_555 1_555
O3_3 C6_3 1_555 1_555
C1_3 C3_3 1_555 1_555
C3_3 C4_3 1_555 1_555
C4_3 H1_3 1_555 1_555
C5_3 C4_3 1_555 1_555
C6_3 O2_3 1_555 1_555
O7_5 Cu12_2 1_555 1_555
C15_3 C5_3 1_555 1_555
H7_3 C15_3 1_555 1_555
C16_3 C15_3 1_555 1_555
C17_3 C3_3 1_555 1_555
H8_3 C17_3 1_555 1_555
N2_3 C16_3 1_555 1_555
C18_3 N2_3 1_555 1_555
H9_3 C18_3 1_555 1_555
C19_3 N2_3 1_555 1_555
H10_3 C19_3 1_555 1_555
O10_3 C1_3 1_555 1_555
O12_3 C21_3 1_555 1_555
O22 C25_3 1_555 1_555
O23 C25_3 1_555 1_555
C21_3 C22_3 1_555 1_555
C22_3 C23_3 1_555 1_555
C23_3 H11_3 1_555 1_555
C24_3 C23_3 1_555 1_555
C25_3 C24_3 1_555 1_555
C26_3 C24_3 1_555 1_555
H12_3 C26_3 1_555 1_555
C27_3 C26_3 1_555 1_555
C28_3 C22_3 1_555 1_555
H13_3 C28_3 1_555 1_555
N3_3 C19_3 1_555 1_555
C29_3 C18_3 1_555 1_555
H14_3 C29_3 1_555 1_555
O15_3 C21_3 1_555 1_555
O20_3 Cu4_3 1_555 1_555
Cu7_2 O15_3 1_555 1_555
Cu8_2 O12_3 1_555 1_555
O21_3 Cu4_3 1_555 1_555
C5_3 C6_3 1_555 1_555
C16_3 C17_3 1_555 1_555
O10_3 Cu4_3 1_555 1_555
C27_3 C28_3 1_555 1_555
C27_3 N3_3 1_555 1_555
N3_3 C29_3 1_555 1_555
Cu7_2 Cu8_2 1_555 1_555
O7_5 H23_2 1_555 1_555
O7_5 H24_4 1_555 1_555
H10_4 C19_4 1_555 1_555
O12_4 C21_4 1_555 1_555
O13_3 C25_4 1_555 1_555
O14_3 C25_4 1_555 1_555
C21_4 C22_4 1_555 1_555
C22_4 C23_4 1_555 1_555
C23_4 H11_4 1_555 1_555
C24_4 C23_4 1_555 1_555
C25_4 C24_4 1_555 1_555
C26_4 C24_4 1_555 1_555
H12_4 C26_4 1_555 1_555
C27_4 C26_4 1_555 1_555
C28_4 C22_4 1_555 1_555
H13_4 C28_4 1_555 1_555
N3_4 C19_4 1_555 1_555
Cu8_3 O12_4 1_555 1_555
Cu14_3 O14_3 1_555 1_555
C27_4 C28_4 1_555 1_555
C27_4 N3_4 1_555 1_555
N3_4 C29_4 1_555 1_555
Cu7_3 O15_4 1_555 1_555
O5_4 Cu2_4 1_555 1_555
C2_4 C11_4 1_555 1_555
C8_4 C7_4 1_555 1_555
C9_4 C8_4 1_555 1_555
H2_4 C9_4 1_555 1_555
C10_4 C9_4 1_555 1_555
C11_4 C10_4 1_555 1_555
H3_4 C11_4 1_555 1_555
C12_4 C2_4 1_555 1_555
H4_4 C12_4 1_555 1_555
N1_4 C10_4 1_555 1_555
C13_4 N1_4 1_555 1_555
C14_5 N1_4 1_555 1_555
H6_5 C14_5 1_555 1_555
O7_6 Cu2_4 1_555 1_555
C20_4 C2_4 1_555 1_555
O26_3 C20_4 1_555 1_555
O28_3 C20_4 1_555 1_555
O17_3 C31_4 1_555 1_555
C30_4 C35_4 1_555 1_555
C31_4 C32_4 1_555 1_555
C32_4 C33_4 1_555 1_555
C33_4 H15_4 1_555 1_555
C34_4 C33_4 1_555 1_555
C35_4 C34_4 1_555 1_555
H16_4 C35_4 1_555 1_555
C36_4 C30_4 1_555 1_555
H17_4 C36_4 1_555 1_555
N4_4 C14_5 1_555 1_555
C37_4 C13_4 1_555 1_555
C38_4 C30_4 1_555 1_555
O18_4 C38_4 1_555 1_555
O19_4 C38_4 1_555 1_555
Cu8 O19_4 1_555 1_555
Cu12_3 O17_3 1_555 1_555
O25_3 Cu2_4 1_555 1_555
O5_4 C7_4 1_555 1_555
C8_4 C12_4 1_555 1_555
C32_4 C36_4 1_555 1_555
C34_4 N4_4 1_555 1_555
N4_4 C37_4 1_555 1_555
Cu1_4 O1_4 1_555 1_555
Cu3_4 O3_4 1_555 1_555
O1_4 C1_4 1_555 1_555
O3_4 C6_4 1_555 1_555
O4_4 Cu3_4 1_555 1_555
C1_4 C3_4 1_555 1_555
C3_4 C4_4 1_555 1_555
C4_4 H1_4 1_555 1_555
C5_4 C4_4 1_555 1_555
C6_4 O2_4 1_555 1_555
O6_6 Cu3_4 1_555 1_555
C15_4 C5_4 1_555 1_555
H7_4 C15_4 1_555 1_555
C16_4 C15_4 1_555 1_555
C17_4 C3_4 1_555 1_555
H8_4 C17_4 1_555 1_555
N2_4 C16_4 1_555 1_555
C18_4 N2_4 1_555 1_555
C19_5 N2_4 1_555 1_555
H10_5 C19_5 1_555 1_555
O11_4 Cu1_4 1_555 1_555
Cu14_3 O16_3 1_555 1_555
O23_3 Cu3_4 1_555 1_555
O24_3 Cu3_4 1_555 1_555
O30_4 Cu1_4 1_555 1_555
C5_4 C6_4 1_555 1_555
C16_4 C17_4 1_555 1_555
O20_4 Cu4_4 1_555 1_555
O21_4 Cu4_4 1_555 1_555
O26_4 Cu4_4 1_555 1_555
O29_4 Cu4_4 1_555 1_555
O10_4 Cu4_4 1_555 1_555
Cu1_5 O1_5 1_555 1_555
Cu2_5 Cu3_5 1_555 1_555
Cu3_5 O3_5 1_555 1_555
O1_5 C1_5 1_555 1_555
O2_5 Cu2_5 1_555 1_555
O3_5 C6_5 1_555 1_555
O4_5 Cu3_5 1_555 1_555
O5_5 Cu2_5 1_555 1_555
C1_5 C3_5 1_555 1_555
C2_5 C11_5 1_555 1_555
C3_5 C4_5 1_555 1_555
C4_5 H1_5 1_555 1_555
C5_5 C4_5 1_555 1_555
C6_5 O2_5 1_555 1_555
O6_7 Cu3_5 1_555 1_555
C7_5 O4_5 1_555 1_555
C8_5 C7_5 1_555 1_555
C9_5 C8_5 1_555 1_555
H2_5 C9_5 1_555 1_555
C10_5 C9_5 1_555 1_555
C11_5 C10_5 1_555 1_555
H3_5 C11_5 1_555 1_555
C12_5 C2_5 1_555 1_555
H4_5 C12_5 1_555 1_555
N1_5 C10_5 1_555 1_555
C13_5 N1_5 1_555 1_555
H5_5 C13_5 1_555 1_555
C14_6 N1_5 1_555 1_555
H6_6 C14_6 1_555 1_555
O7_7 Cu2_5 1_555 1_555
C15_5 C5_5 1_555 1_555
H7_5 C15_5 1_555 1_555
C16_5 C15_5 1_555 1_555
C17_5 C3_5 1_555 1_555
H8_5 C17_5 1_555 1_555
N2_5 C16_5 1_555 1_555
C18_5 N2_5 1_555 1_555
H9_5 C18_5 1_555 1_555
C19_6 N2_5 1_555 1_555
H10_6 C19_6 1_555 1_555
C20_5 C2_5 1_555 1_555
O8_3 C20_5 1_555 1_555
O9_3 C20_5 1_555 1_555
O10_5 C1_5 1_555 1_555
O11_5 Cu1_5 1_555 1_555
O13_4 C25_5 1_555 1_555
O14_4 C25_5 1_555 1_555
C21_5 C22_5 1_555 1_555
C22_5 C23_5 1_555 1_555
C23_5 H11_5 1_555 1_555
C24_5 C23_5 1_555 1_555
C25_5 C24_5 1_555 1_555
C26_5 C24_5 1_555 1_555
H12_5 C26_5 1_555 1_555
C27_5 C26_5 1_555 1_555
C28_5 C22_5 1_555 1_555
H13_5 C28_5 1_555 1_555
N3_5 C19_6 1_555 1_555
C29_5 C18_5 1_555 1_555
H14_5 C29_5 1_555 1_555
O15_5 C21_5 1_555 1_555
O16_4 C31_5 1_555 1_555
O17_4 C31_5 1_555 1_555
C30_5 C35_5 1_555 1_555
C31_5 C32_5 1_555 1_555
C32_5 C33_5 1_555 1_555
C33_5 H15_5 1_555 1_555
C34_5 C33_5 1_555 1_555
C35_5 C34_5 1_555 1_555
H16_5 C35_5 1_555 1_555
C36_5 C30_5 1_555 1_555
H17_5 C36_5 1_555 1_555
N4_5 C14_6 1_555 1_555
C37_5 C13_5 1_555 1_555
H18_5 C37_5 1_555 1_555
C38_5 C30_5 1_555 1_555
O18_5 C38_5 1_555 1_555
O19_5 C38_5 1_555 1_555
Cu4_5 Cu1_5 1_555 1_555
O20_5 Cu4_5 1_555 1_555
Cu5_3 O9_3 1_555 1_555
Cu6_3 O8_3 1_555 1_555
Cu8_3 O15_5 1_555 1_555
Cu9_2 O18_5 1_555 1_555
Cu11_2 O13_4 1_555 1_555
Cu13_2 O16_4 1_555 1_555
O21_5 Cu4_5 1_555 1_555
O26_5 Cu4_5 1_555 1_555
O27_5 Cu1_5 1_555 1_555
O28_5 Cu1_5 1_555 1_555
O29_5 Cu4_5 1_555 1_555
O30_5 Cu1_5 1_555 1_555
O5_5 C7_5 1_555 1_555
C5_5 C6_5 1_555 1_555
C8_5 C12_5 1_555 1_555
C16_5 C17_5 1_555 1_555
O10_5 Cu4_5 1_555 1_555
C27_5 C28_5 1_555 1_555
C27_5 N3_5 1_555 1_555
N3_5 C29_5 1_555 1_555
C32_5 C36_5 1_555 1_555
C34_5 N4_5 1_555 1_555
N4_5 C37_5 1_555 1_555
Cu5_3 Cu6_3 1_555 1_555
O6_7 H19_3 1_555 1_555
O7_7 H23_3 1_555 1_555
O7_7 H24_5 1_555 1_555
Cu7_3 O12_5 1_555 1_555
Cu2_6 Cu3_6 1_555 1_555
O6_8 Cu3_6 1_555 1_555
O7_8 Cu2_6 1_555 1_555
O22_4 Cu2_6 1_555 1_555
O23_4 Cu3_6 1_555 1_555
O24_4 Cu3_6 1_555 1_555
O25_4 Cu2_6 1_555 1_555
O6_8 H20_3 1_555 1_555
O7_8 H24_6 1_555 1_555
O7_9 Cu11_2 1_555 1_555
O7_9 H24_7 1_555 1_555
O6_9 Cu13_2 1_555 1_555
O6_9 H20_4 1_555 1_555
O2_6 Cu11_3 1_555 1_555
O3_6 C6_6 1_555 1_555
C1_6 C3_6 1_555 1_555
C3_6 C4_6 1_555 1_555
C4_6 H1_6 1_555 1_555
C5_6 C4_6 1_555 1_555
C6_6 O2_6 1_555 1_555
O7_10 Cu11_3 1_555 1_555
C15_6 C5_6 1_555 1_555
H7_6 C15_6 1_555 1_555
C16_6 C15_6 1_555 1_555
C17_6 C3_6 1_555 1_555
H8_6 C17_6 1_555 1_555
N2_6 C16_6 1_555 1_555
C18_6 N2_6 1_555 1_555
H9_6 C18_6 1_555 1_555
C19_7 N2_6 1_555 1_555
H10_7 C19_7 1_555 1_555
O30_4 C1_6 1_555 1_555
O12_6 C21_6 1_555 1_555
O22_4 C25_6 1_555 1_555
O23_4 C25_6 1_555 1_555
C21_6 C22_6 1_555 1_555
C22_6 C23_6 1_555 1_555
C23_6 H11_6 1_555 1_555
C24_6 C23_6 1_555 1_555
C25_6 C24_6 1_555 1_555
C26_6 C24_6 1_555 1_555
H12_6 C26_6 1_555 1_555
C27_6 C26_6 1_555 1_555
C28_6 C22_6 1_555 1_555
H13_6 C28_6 1_555 1_555
N3_6 C19_7 1_555 1_555
C29_6 C18_6 1_555 1_555
H14_6 C29_6 1_555 1_555
O15_6 C21_6 1_555 1_555
Cu7_4 O15_6 1_555 1_555
Cu8_4 O12_6 1_555 1_555
C5_6 C6_6 1_555 1_555
C16_6 C17_6 1_555 1_555
C27_6 C28_6 1_555 1_555
C27_6 N3_6 1_555 1_555
N3_6 C29_6 1_555 1_555
Cu7_4 Cu8_4 1_555 1_555
O7_10 H23_4 1_555 1_555
O7_10 H24_8 1_555 1_555
O4_6 Cu13_3 1_555 1_555
C2_6 C11_6 1_555 1_555
O6_10 Cu13_3 1_555 1_555
C7_6 O4_6 1_555 1_555
C8_6 C7_6 1_555 1_555
C9_6 C8_6 1_555 1_555
H2_6 C9_6 1_555 1_555
C10_6 C9_6 1_555 1_555
C11_6 C10_6 1_555 1_555
H3_6 C11_6 1_555 1_555
C12_6 C2_6 1_555 1_555
H4_6 C12_6 1_555 1_555
N1_6 C10_6 1_555 1_555
C13_6 N1_6 1_555 1_555
H5_6 C13_6 1_555 1_555
C14_7 N1_6 1_555 1_555
H6_7 C14_7 1_555 1_555
C20_6 C2_6 1_555 1_555
O8_4 C20_6 1_555 1_555
O9_4 C20_6 1_555 1_555
O24_4 C31_6 1_555 1_555
O25_4 C31_6 1_555 1_555
C30_6 C35_6 1_555 1_555
C31_6 C32_6 1_555 1_555
C32_6 C33_6 1_555 1_555
C33_6 H15_6 1_555 1_555
C34_6 C33_6 1_555 1_555
C35_6 C34_6 1_555 1_555
H16_6 C35_6 1_555 1_555
C36_6 C30_6 1_555 1_555
H17_6 C36_6 1_555 1_555
N4_6 C14_7 1_555 1_555
C37_6 C13_6 1_555 1_555
H18_6 C37_6 1_555 1_555
C38_6 C30_6 1_555 1_555
O18_6 C38_6 1_555 1_555
O19_6 C38_6 1_555 1_555
Cu5_2 O8_4 1_555 1_555
Cu9_4 O19_6 1_555 1_555
Cu10_4 O18_6 1_555 1_555
O5_6 C7_6 1_555 1_555
C8_6 C12_6 1_555 1_555
C32_6 C36_6 1_555 1_555
C34_6 N4_6 1_555 1_555
N4_6 C37_6 1_555 1_555
Cu9_4 Cu10_4 1_555 1_555
O6_10 H19_4 1_555 1_555
Cu8 O15_7 1_555 1_555
H10_8 C19_8 1_555 1_555
O12_7 C21_7 1_555 1_555
O13_5 C25_7 1_555 1_555
O14_5 C25_7 1_555 1_555
C21_7 C22_7 1_555 1_555
C22_7 C23_7 1_555 1_555
C23_7 H11_7 1_555 1_555
C24_7 C23_7 1_555 1_555
C25_7 C24_7 1_555 1_555
C26_7 C24_7 1_555 1_555
H12_7 C26_7 1_555 1_555
C27_7 C26_7 1_555 1_555
C28_7 C22_7 1_555 1_555
H13_7 C28_7 1_555 1_555
N3_7 C19_8 1_555 1_555
Cu7 O12_7 1_555 1_555
Cu14_4 O14_5 1_555 1_555
C27_7 C28_7 1_555 1_555
C27_7 N3_7 1_555 1_555
N3_7 C29_7 1_555 1_555
Cu3_7 O3_7 1_555 1_555
O21_3 C1_7 1_555 1_555
O3_7 C6_7 1_555 1_555
O4_7 Cu3_7 1_555 1_555
C1_7 C3_7 1_555 1_555
C3_7 C4_7 1_555 1_555
C4_7 H1_7 1_555 1_555
C5_7 C4_7 1_555 1_555
C6_7 O2_7 1_555 1_555
O6_11 Cu3_7 1_555 1_555
C15_7 C5_7 1_555 1_555
H7_7 C15_7 1_555 1_555
C16_7 C15_7 1_555 1_555
C17_7 C3_7 1_555 1_555
H8_7 C17_7 1_555 1_555
N2_7 C16_7 1_555 1_555
C18_7 N2_7 1_555 1_555
C19_9 N2_7 1_555 1_555
H10_9 C19_9 1_555 1_555
Cu14_4 O16_5 1_555 1_555
O23_5 Cu3_7 1_555 1_555
O24_5 Cu3_7 1_555 1_555
C5_7 C6_7 1_555 1_555
C16_7 C17_7 1_555 1_555
O5_7 Cu2_7 1_555 1_555
C2_7 C11_7 1_555 1_555
C8_7 C7_7 1_555 1_555
C9_7 C8_7 1_555 1_555
H2_7 C9_7 1_555 1_555
C10_7 C9_7 1_555 1_555
C11_7 C10_7 1_555 1_555
H3_7 C11_7 1_555 1_555
C12_7 C2_7 1_555 1_555
H4_7 C12_7 1_555 1_555
N1_7 C10_7 1_555 1_555
C13_7 N1_7 1_555 1_555
C14_8 N1_7 1_555 1_555
H6_8 C14_8 1_555 1_555
O7_11 Cu2_7 1_555 1_555
C20_7 C2_7 1_555 1_555
O27_4 C20_7 1_555 1_555
O29_4 C20_7 1_555 1_555
O17_5 C31_7 1_555 1_555
C30_7 C35_7 1_555 1_555
C31_7 C32_7 1_555 1_555
C32_7 C33_7 1_555 1_555
C33_7 H15_7 1_555 1_555
C34_7 C33_7 1_555 1_555
C35_7 C34_7 1_555 1_555
H16_7 C35_7 1_555 1_555
C36_7 C30_7 1_555 1_555
H17_7 C36_7 1_555 1_555
N4_7 C14_8 1_555 1_555
C37_7 C13_7 1_555 1_555
C38_7 C30_7 1_555 1_555
O18_7 C38_7 1_555 1_555
O19_7 C38_7 1_555 1_555
Cu7_3 O19_7 1_555 1_555
Cu12_4 O17_5 1_555 1_555
O25_5 Cu2_7 1_555 1_555
O5_7 C7_7 1_555 1_555
C8_7 C12_7 1_555 1_555
C32_7 C36_7 1_555 1_555
C34_7 N4_7 1_555 1_555
N4_7 C37_7 1_555 1_555
H6_9 C14_9 1_555 1_555
O16_6 C31_8 1_555 1_555
O17_6 C31_8 1_555 1_555
C30_8 C35_8 1_555 1_555
C31_8 C32_8 1_555 1_555
C32_8 C33_8 1_555 1_555
C33_8 H15_8 1_555 1_555
C34_8 C33_8 1_555 1_555
C35_8 C34_8 1_555 1_555
H16_8 C35_8 1_555 1_555
C36_8 C30_8 1_555 1_555
H17_8 C36_8 1_555 1_555
N4_8 C14_9 1_555 1_555
H18_8 C37_8 1_555 1_555
C38_8 C30_8 1_555 1_555
O18_8 C38_8 1_555 1_555
O19_8 C38_8 1_555 1_555
Cu10 O19_8 1_555 1_555
Cu11_4 O17_6 1_555 1_555
Cu13_4 O16_6 1_555 1_555
C32_8 C36_8 1_555 1_555
C34_8 N4_8 1_555 1_555
N4_8 C37_8 1_555 1_555
Cu11_4 Cu13_4 1_555 1_555
Cu6_2 O1_6 1_555 1_555
Cu2_8 Cu3_8 1_555 1_555
Cu3_8 O3_8 1_555 1_555
O1_6 C1_8 1_555 1_555
O2_8 Cu2_8 1_555 1_555
O3_8 C6_8 1_555 1_555
O4_8 Cu3_8 1_555 1_555
O5_8 Cu2_8 1_555 1_555
C1_8 C3_8 1_555 1_555
C2_8 C11_8 1_555 1_555
C3_8 C4_8 1_555 1_555
C4_8 H1_8 1_555 1_555
C5_8 C4_8 1_555 1_555
C6_8 O2_8 1_555 1_555
O6_12 Cu3_8 1_555 1_555
C7_8 O4_8 1_555 1_555
C8_8 C7_8 1_555 1_555
C9_8 C8_8 1_555 1_555
H2_8 C9_8 1_555 1_555
C10_8 C9_8 1_555 1_555
C11_8 C10_8 1_555 1_555
H3_8 C11_8 1_555 1_555
C12_8 C2_8 1_555 1_555
H4_8 C12_8 1_555 1_555
N1_8 C10_8 1_555 1_555
C13_8 N1_8 1_555 1_555
H5_8 C13_8 1_555 1_555
C14_10 N1_8 1_555 1_555
H6_10 C14_10 1_555 1_555
O7_12 Cu2_8 1_555 1_555
C15_8 C5_8 1_555 1_555
H7_8 C15_8 1_555 1_555
C16_8 C15_8 1_555 1_555
C17_8 C3_8 1_555 1_555
H8_8 C17_8 1_555 1_555
N2_8 C16_8 1_555 1_555
C18_8 N2_8 1_555 1_555
C19_10 N2_8 1_555 1_555
H10_10 C19_10 1_555 1_555
C20_8 C2_8 1_555 1_555
O27_2 C20_8 1_555 1_555
O29_2 C20_8 1_555 1_555
O11_6 Cu6_2 1_555 1_555
O12_8 C21_8 1_555 1_555
O13_6 C25_8 1_555 1_555
O14_6 C25_8 1_555 1_555
C21_8 C22_8 1_555 1_555
C22_8 C23_8 1_555 1_555
C23_8 H11_8 1_555 1_555
C24_8 C23_8 1_555 1_555
C25_8 C24_8 1_555 1_555
C26_8 C24_8 1_555 1_555
H12_8 C26_8 1_555 1_555
C27_8 C26_8 1_555 1_555
C28_8 C22_8 1_555 1_555
H13_8 C28_8 1_555 1_555
N3_8 C19_10 1_555 1_555
C29_8 C18_8 1_555 1_555
Cu10_2 O12_8 1_555 1_555
Cu11_4 O13_6 1_555 1_555
Cu13_4 O14_6 1_555 1_555
O22_6 Cu2_8 1_555 1_555
O23_6 Cu3_8 1_555 1_555
O24_6 Cu3_8 1_555 1_555
O25_6 Cu2_8 1_555 1_555
O30_6 Cu6_2 1_555 1_555
O5_8 C7_8 1_555 1_555
C5_8 C6_8 1_555 1_555
C8_8 C12_8 1_555 1_555
C16_8 C17_8 1_555 1_555
C27_8 C28_8 1_555 1_555
C27_8 N3_8 1_555 1_555
N3_8 C29_8 1_555 1_555
O20_6 Cu5_2 1_555 1_555
Cu9_2 O15_8 1_555 1_555
O21_6 Cu5_2 1_555 1_555
O10_6 Cu5_2 1_555 1_555
O2_9 Cu2_9 1_555 1_555
O3_9 C6_9 1_555 1_555
C1_9 C3_9 1_555 1_555
C3_9 C4_9 1_555 1_555
C4_9 H1_9 1_555 1_555
C5_9 C4_9 1_555 1_555
C6_9 O2_9 1_555 1_555
O7_13 Cu2_9 1_555 1_555
C15_9 C5_9 1_555 1_555
H7_9 C15_9 1_555 1_555
C16_9 C15_9 1_555 1_555
C17_9 C3_9 1_555 1_555
H8_9 C17_9 1_555 1_555
N2_9 C16_9 1_555 1_555
C18_9 N2_9 1_555 1_555
H9_9 C18_9 1_555 1_555
C19_11 N2_9 1_555 1_555
H10_11 C19_11 1_555 1_555
O30_6 C1_9 1_555 1_555
O12_9 C21_9 1_555 1_555
O13_7 C25_9 1_555 1_555
O14_7 C25_9 1_555 1_555
C21_9 C22_9 1_555 1_555
C22_9 C23_9 1_555 1_555
C23_9 H11_9 1_555 1_555
C24_9 C23_9 1_555 1_555
C25_9 C24_9 1_555 1_555
C26_9 C24_9 1_555 1_555
H12_9 C26_9 1_555 1_555
C27_9 C26_9 1_555 1_555
C28_9 C22_9 1_555 1_555
H13_9 C28_9 1_555 1_555
N3_9 C19_11 1_555 1_555
C29_9 C18_9 1_555 1_555
H14_9 C29_9 1_555 1_555
O15_9 C21_9 1_555 1_555
Cu9_4 O15_9 1_555 1_555
Cu10_4 O12_9 1_555 1_555
Cu12_5 O13_7 1_555 1_555
Cu14_5 O14_7 1_555 1_555
O22_7 Cu2_9 1_555 1_555
C5_9 C6_9 1_555 1_555
C16_9 C17_9 1_555 1_555
C27_9 C28_9 1_555 1_555
C27_9 N3_9 1_555 1_555
N3_9 C29_9 1_555 1_555
Cu12_5 Cu14_5 1_555 1_555
O4_9 Cu3_9 1_555 1_555
C2_9 C11_9 1_555 1_555
O6_13 Cu3_9 1_555 1_555
C7_9 O4_9 1_555 1_555
C8_9 C7_9 1_555 1_555
C9_9 C8_9 1_555 1_555
H2_9 C9_9 1_555 1_555
C10_9 C9_9 1_555 1_555
C11_9 C10_9 1_555 1_555
H3_9 C11_9 1_555 1_555
C12_9 C2_9 1_555 1_555
H4_9 C12_9 1_555 1_555
N1_9 C10_9 1_555 1_555
C13_9 N1_9 1_555 1_555
H5_9 C13_9 1_555 1_555
C14_11 N1_9 1_555 1_555
H6_11 C14_11 1_555 1_555
C20_9 C2_9 1_555 1_555
O26_4 C20_9 1_555 1_555
O28_4 C20_9 1_555 1_555
O16_7 C31_9 1_555 1_555
O17_7 C31_9 1_555 1_555
C30_9 C35_9 1_555 1_555
C31_9 C32_9 1_555 1_555
C32_9 C33_9 1_555 1_555
C33_9 H15_9 1_555 1_555
C34_9 C33_9 1_555 1_555
C35_9 C34_9 1_555 1_555
H16_9 C35_9 1_555 1_555
C36_9 C30_9 1_555 1_555
H17_9 C36_9 1_555 1_555
N4_9 C14_11 1_555 1_555
C37_9 C13_9 1_555 1_555
H18_9 C37_9 1_555 1_555
C38_9 C30_9 1_555 1_555
O18_9 C38_9 1_555 1_555
O19_9 C38_9 1_555 1_555
Cu7_4 O19_9 1_555 1_555
Cu8_4 O18_9 1_555 1_555
Cu12_5 O17_7 1_555 1_555
Cu14_5 O16_7 1_555 1_555
O24_7 Cu3_9 1_555 1_555
O5_9 C7_9 1_555 1_555
C8_9 C12_9 1_555 1_555
C32_9 C36_9 1_555 1_555
C34_9 N4_9 1_555 1_555
N4_9 C37_9 1_555 1_555
O5_10 Cu12_3 1_555 1_555
C2_10 C11_10 1_555 1_555
C8_10 C7_10 1_555 1_555
C9_10 C8_10 1_555 1_555
H2_10 C9_10 1_555 1_555
C10_10 C9_10 1_555 1_555
C11_10 C10_10 1_555 1_555
H3_10 C11_10 1_555 1_555
C12_10 C2_10 1_555 1_555
H4_10 C12_10 1_555 1_555
N1_10 C10_10 1_555 1_555
C13_10 N1_10 1_555 1_555
C14_12 N1_10 1_555 1_555
H6_12 C14_12 1_555 1_555
O7_14 Cu12_3 1_555 1_555
C20_10 C2_10 1_555 1_555
O26 C20_10 1_555 1_555
O28 C20_10 1_555 1_555
O25_3 C31_10 1_555 1_555
C30_10 C35_10 1_555 1_555
C31_10 C32_10 1_555 1_555
C32_10 C33_10 1_555 1_555
C33_10 H15_10 1_555 1_555
C34_10 C33_10 1_555 1_555
C35_10 C34_10 1_555 1_555
H16_10 C35_10 1_555 1_555
C36_10 C30_10 1_555 1_555
H17_10 C36_10 1_555 1_555
N4_10 C14_12 1_555 1_555
C37_10 C13_10 1_555 1_555
C38_10 C30_10 1_555 1_555
O18_10 C38_10 1_555 1_555
O19_10 C38_10 1_555 1_555
Cu8_2 O19_10 1_555 1_555
Cu7_2 O18_10 1_555 1_555
O5_10 C7_10 1_555 1_555
C8_10 C12_10 1_555 1_555
C32_10 C36_10 1_555 1_555
C34_10 N4_10 1_555 1_555
N4_10 C37_10 1_555 1_555
Cu14_3 O3_10 1_555 1_555
O21_5 C1_10 1_555 1_555
O3_10 C6_10 1_555 1_555
O4_10 Cu14_3 1_555 1_555
C1_10 C3_10 1_555 1_555
C3_10 C4_10 1_555 1_555
C4_10 H1_10 1_555 1_555
C5_10 C4_10 1_555 1_555
C6_10 O2_10 1_555 1_555
O6_14 Cu14_3 1_555 1_555
C15_10 C5_10 1_555 1_555
H7_10 C15_10 1_555 1_555
C16_10 C15_10 1_555 1_555
C17_10 C3_10 1_555 1_555
H8_10 C17_10 1_555 1_555
N2_10 C16_10 1_555 1_555
C18_10 N2_10 1_555 1_555
H9_10 C18_10 1_555 1_555
C19_12 N2_10 1_555 1_555
H10_12 C19_12 1_555 1_555
O30_5 C1_10 1_555 1_555
C5_10 C6_10 1_555 1_555
C16_10 C17_10 1_555 1_555
H10_13 C19_13 1_555 1_555
O12_10 C21_10 1_555 1_555
O22_3 C25_10 1_555 1_555
O23_3 C25_10 1_555 1_555
C21_10 C22_10 1_555 1_555
C22_10 C23_10 1_555 1_555
C23_10 H11_10 1_555 1_555
C24_10 C23_10 1_555 1_555
C25_10 C24_10 1_555 1_555
C26_10 C24_10 1_555 1_555
H12_10 C26_10 1_555 1_555
C27_10 C26_10 1_555 1_555
C28_10 C22_10 1_555 1_555
H13_10 C28_10 1_555 1_555
N3_10 C19_13 1_555 1_555
H14_10 C29_10 1_555 1_555
O15_10 C21_10 1_555 1_555
Cu8_4 O15_10 1_555 1_555
Cu7_4 O12_10 1_555 1_555
C27_10 C28_10 1_555 1_555
C27_10 N3_10 1_555 1_555
N3_10 C29_10 1_555 1_555
Cu6_3 O1_7 1_555 1_555
Cu14_5 O3_11 1_555 1_555
O1_7 C1_11 1_555 1_555
O2_11 Cu12_5 1_555 1_555
O3_11 C6_11 1_555 1_555
O4_11 Cu14_5 1_555 1_555
O5_11 Cu12_5 1_555 1_555
C1_11 C3_11 1_555 1_555
C2_11 C11_11 1_555 1_555
C3_11 C4_11 1_555 1_555
C4_11 H1_11 1_555 1_555
C5_11 C4_11 1_555 1_555
C6_11 O2_11 1_555 1_555
O6_15 Cu14_5 1_555 1_555
C7_11 O4_11 1_555 1_555
C8_11 C7_11 1_555 1_555
C9_11 C8_11 1_555 1_555
H2_11 C9_11 1_555 1_555
C10_11 C9_11 1_555 1_555
C11_11 C10_11 1_555 1_555
H3_11 C11_11 1_555 1_555
C12_11 C2_11 1_555 1_555
H4_11 C12_11 1_555 1_555
N1_11 C10_11 1_555 1_555
C13_11 N1_11 1_555 1_555
H5_11 C13_11 1_555 1_555
C14_13 N1_11 1_555 1_555
H6_13 C14_13 1_555 1_555
O7_15 Cu12_5 1_555 1_555
C15_11 C5_11 1_555 1_555
H7_11 C15_11 1_555 1_555
C16_11 C15_11 1_555 1_555
C17_11 C3_11 1_555 1_555
H8_11 C17_11 1_555 1_555
N2_11 C16_11 1_555 1_555
C18_11 N2_11 1_555 1_555
H9_11 C18_11 1_555 1_555
C19_14 N2_11 1_555 1_555
H10_14 C19_14 1_555 1_555
C20_11 C2_11 1_555 1_555
O27_5 C20_11 1_555 1_555
O29_5 C20_11 1_555 1_555
O10_7 C1_11 1_555 1_555
O11_7 Cu6_3 1_555 1_555
O22_7 C25_11 1_555 1_555
O23_7 C25_11 1_555 1_555
C21_11 C22_11 1_555 1_555
C22_11 C23_11 1_555 1_555
C23_11 H11_11 1_555 1_555
C24_11 C23_11 1_555 1_555
C25_11 C24_11 1_555 1_555
C26_11 C24_11 1_555 1_555
H12_11 C26_11 1_555 1_555
C27_11 C26_11 1_555 1_555
C28_11 C22_11 1_555 1_555
H13_11 C28_11 1_555 1_555
N3_11 C19_14 1_555 1_555
C29_11 C18_11 1_555 1_555
H14_11 C29_11 1_555 1_555
O15_11 C21_11 1_555 1_555
O24_7 C31_11 1_555 1_555
O25_7 C31_11 1_555 1_555
C30_11 C35_11 1_555 1_555
C31_11 C32_11 1_555 1_555
C32_11 C33_11 1_555 1_555
C33_11 H15_11 1_555 1_555
C34_11 C33_11 1_555 1_555
C35_11 C34_11 1_555 1_555
H16_11 C35_11 1_555 1_555
C36_11 C30_11 1_555 1_555
H17_11 C36_11 1_555 1_555
N4_11 C14_13 1_555 1_555
C37_11 C13_11 1_555 1_555
H18_11 C37_11 1_555 1_555
C38_11 C30_11 1_555 1_555
O18_11 C38_11 1_555 1_555
O19_11 C38_11 1_555 1_555
O20_7 Cu5_3 1_555 1_555
Cu10_2 O15_11 1_555 1_555
Cu7_3 O18_11 1_555 1_555
O21_7 Cu5_3 1_555 1_555
O26_6 Cu5_3 1_555 1_555
O28_6 Cu6_3 1_555 1_555
O30_7 Cu6_3 1_555 1_555
O5_11 C7_11 1_555 1_555
C5_11 C6_11 1_555 1_555
C8_11 C12_11 1_555 1_555
C16_11 C17_11 1_555 1_555
O10_7 Cu5_3 1_555 1_555
C27_11 C28_11 1_555 1_555
C27_11 N3_11 1_555 1_555
N3_11 C29_11 1_555 1_555
C32_11 C36_11 1_555 1_555
C34_11 N4_11 1_555 1_555
N4_11 C37_11 1_555 1_555
Cu9_2 O12_11 1_555 1_555
Cu5 O1_8 1_555 1_555
Cu13 O3_12 1_555 1_555
O1_8 C1_12 1_555 1_555
O2_12 Cu11 1_555 1_555
O3_12 C6_12 1_555 1_555
O4_12 Cu13 1_555 1_555
O5_12 Cu11 1_555 1_555
C1_12 C3_12 1_555 1_555
C2_12 C11_12 1_555 1_555
C3_12 C4_12 1_555 1_555
C4_12 H1_12 1_555 1_555
C5_12 C4_12 1_555 1_555
C6_12 O2_12 1_555 1_555
O6_16 Cu13 1_555 1_555
C7_12 O4_12 1_555 1_555
C8_12 C7_12 1_555 1_555
C9_12 C8_12 1_555 1_555
H2_12 C9_12 1_555 1_555
C10_12 C9_12 1_555 1_555
C11_12 C10_12 1_555 1_555
H3_12 C11_12 1_555 1_555
C12_12 C2_12 1_555 1_555
H4_12 C12_12 1_555 1_555
N1_12 C10_12 1_555 1_555
C13_12 N1_12 1_555 1_555
H5_12 C13_12 1_555 1_555
C14_14 N1_12 1_555 1_555
H6_14 C14_14 1_555 1_555
O7_16 Cu11 1_555 1_555
C15_12 C5_12 1_555 1_555
H7_12 C15_12 1_555 1_555
C16_12 C15_12 1_555 1_555
C17_12 C3_12 1_555 1_555
H8_12 C17_12 1_555 1_555
N2_12 C16_12 1_555 1_555
C18_12 N2_12 1_555 1_555
H9_12 C18_12 1_555 1_555
C19_15 N2_12 1_555 1_555
H10_15 C19_15 1_555 1_555
C20_12 C2_12 1_555 1_555
O26_6 C20_12 1_555 1_555
O28_6 C20_12 1_555 1_555
O10_8 C1_12 1_555 1_555
O11_8 Cu5 1_555 1_555
O12_12 C21_12 1_555 1_555
O22_2 C25_12 1_555 1_555
O23_2 C25_12 1_555 1_555
C21_12 C22_12 1_555 1_555
C22_12 C23_12 1_555 1_555
C23_12 H11_12 1_555 1_555
C24_12 C23_12 1_555 1_555
C25_12 C24_12 1_555 1_555
C26_12 C24_12 1_555 1_555
H12_12 C26_12 1_555 1_555
C27_12 C26_12 1_555 1_555
C28_12 C22_12 1_555 1_555
H13_12 C28_12 1_555 1_555
N3_12 C19_15 1_555 1_555
C29_12 C18_12 1_555 1_555
H14_12 C29_12 1_555 1_555
O15_12 C21_12 1_555 1_555
O20_8 Cu6 1_555 1_555
Cu10_3 O15_12 1_555 1_555
Cu9_3 O12_12 1_555 1_555
O21_8 Cu6 1_555 1_555
O27_6 Cu5 1_555 1_555
O29_6 Cu6 1_555 1_555
O30_8 Cu5 1_555 1_555
O5_12 C7_12 1_555 1_555
C5_12 C6_12 1_555 1_555
C8_12 C12_12 1_555 1_555
C16_12 C17_12 1_555 1_555
O10_8 Cu6 1_555 1_555
C27_12 C28_12 1_555 1_555
C27_12 N3_12 1_555 1_555
N3_12 C29_12 1_555 1_555
H6_15 C14_15 1_555 1_555
O24_2 C31_12 1_555 1_555
O25_2 C31_12 1_555 1_555
C30_12 C35_12 1_555 1_555
C31_12 C32_12 1_555 1_555
C32_12 C33_12 1_555 1_555
C33_12 H15_12 1_555 1_555
C34_12 C33_12 1_555 1_555
C35_12 C34_12 1_555 1_555
H16_12 C35_12 1_555 1_555
C36_12 C30_12 1_555 1_555
H17_12 C36_12 1_555 1_555
N4_12 C14_15 1_555 1_555
H18_12 C37_12 1_555 1_555
C38_12 C30_12 1_555 1_555
O18_12 C38_12 1_555 1_555
O19_12 C38_12 1_555 1_555
Cu10_4 O19_12 1_555 1_555
Cu9_4 O18_12 1_555 1_555
C32_12 C36_12 1_555 1_555
C34_12 N4_12 1_555 1_555
N4_12 C37_12 1_555 1_555
O4_13 Cu3_10 1_555 1_555
C2_13 C11_13 1_555 1_555
O6_17 Cu3_10 1_555 1_555
C7_13 O4_13 1_555 1_555
C8_13 C7_13 1_555 1_555
C9_13 C8_13 1_555 1_555
H2_13 C9_13 1_555 1_555
C10_13 C9_13 1_555 1_555
C11_13 C10_13 1_555 1_555
H3_13 C11_13 1_555 1_555
C12_13 C2_13 1_555 1_555
H4_13 C12_13 1_555 1_555
N1_13 C10_13 1_555 1_555
C13_13 N1_13 1_555 1_555
H5_13 C13_13 1_555 1_555
C14_16 N1_13 1_555 1_555
H6_16 C14_16 1_555 1_555
C20_13 C2_13 1_555 1_555
O27_3 C20_13 1_555 1_555
O29_3 C20_13 1_555 1_555
O16_8 C31_13 1_555 1_555
O17_8 C31_13 1_555 1_555
C30_13 C35_13 1_555 1_555
C31_13 C32_13 1_555 1_555
C32_13 C33_13 1_555 1_555
C33_13 H15_13 1_555 1_555
C34_13 C33_13 1_555 1_555
C35_13 C34_13 1_555 1_555
H16_13 C35_13 1_555 1_555
C36_13 C30_13 1_555 1_555
H17_13 C36_13 1_555 1_555
N4_13 C14_16 1_555 1_555
C37_13 C13_13 1_555 1_555
H18_13 C37_13 1_555 1_555
C38_13 C30_13 1_555 1_555
O18_13 C38_13 1_555 1_555
O19_13 C38_13 1_555 1_555
Cu7_2 O19_13 1_555 1_555
Cu8_2 O18_13 1_555 1_555
Cu11_5 O17_8 1_555 1_555
Cu13_5 O16_8 1_555 1_555
O24_8 Cu3_10 1_555 1_555
O5_13 C7_13 1_555 1_555
C8_13 C12_13 1_555 1_555
C32_13 C36_13 1_555 1_555
C34_13 N4_13 1_555 1_555
N4_13 C37_13 1_555 1_555
Cu11_5 Cu13_5 1_555 1_555
O2_13 Cu2_10 1_555 1_555
O3_13 C6_13 1_555 1_555
C1_13 C3_13 1_555 1_555
C3_13 C4_13 1_555 1_555
C4_13 H1_13 1_555 1_555
C5_13 C4_13 1_555 1_555
C6_13 O2_13 1_555 1_555
O7_17 Cu2_10 1_555 1_555
C15_13 C5_13 1_555 1_555
H7_13 C15_13 1_555 1_555
C16_13 C15_13 1_555 1_555
C17_13 C3_13 1_555 1_555
H8_13 C17_13 1_555 1_555
N2_13 C16_13 1_555 1_555
C18_13 N2_13 1_555 1_555
H9_13 C18_13 1_555 1_555
C19_16 N2_13 1_555 1_555
H10_16 C19_16 1_555 1_555
O30_2 C1_13 1_555 1_555
O12_13 C21_13 1_555 1_555
O13_8 C25_13 1_555 1_555
O14_8 C25_13 1_555 1_555
C21_13 C22_13 1_555 1_555
C22_13 C23_13 1_555 1_555
C23_13 H11_13 1_555 1_555
C24_13 C23_13 1_555 1_555
C25_13 C24_13 1_555 1_555
C26_13 C24_13 1_555 1_555
H12_13 C26_13 1_555 1_555
C27_13 C26_13 1_555 1_555
C28_13 C22_13 1_555 1_555
H13_13 C28_13 1_555 1_555
N3_13 C19_16 1_555 1_555
C29_13 C18_13 1_555 1_555
H14_13 C29_13 1_555 1_555
O15_13 C21_13 1_555 1_555
Cu9_3 O15_13 1_555 1_555
Cu10_3 O12_13 1_555 1_555
Cu11_5 O13_8 1_555 1_555
Cu13_5 O14_8 1_555 1_555
O22_8 Cu2_10 1_555 1_555
C5_13 C6_13 1_555 1_555
C16_13 C17_13 1_555 1_555
C27_13 C28_13 1_555 1_555
C27_13 N3_13 1_555 1_555
N3_13 C29_13 1_555 1_555
Cu10 O12_14 1_555 1_555
Cu13_5 O3_14 1_555 1_555
O21_8 C1_14 1_555 1_555
O2_14 Cu11_5 1_555 1_555
O3_14 C6_14 1_555 1_555
O4_14 Cu13_5 1_555 1_555
O5_14 Cu11_5 1_555 1_555
C1_14 C3_14 1_555 1_555
C2_14 C11_14 1_555 1_555
C3_14 C4_14 1_555 1_555
C4_14 H1_14 1_555 1_555
C5_14 C4_14 1_555 1_555
C6_14 O2_14 1_555 1_555
O6_18 Cu13_5 1_555 1_555
C7_14 O4_14 1_555 1_555
C8_14 C7_14 1_555 1_555
C9_14 C8_14 1_555 1_555
H2_14 C9_14 1_555 1_555
C10_14 C9_14 1_555 1_555
C11_14 C10_14 1_555 1_555
H3_14 C11_14 1_555 1_555
C12_14 C2_14 1_555 1_555
H4_14 C12_14 1_555 1_555
N1_14 C10_14 1_555 1_555
C13_14 N1_14 1_555 1_555
H5_14 C13_14 1_555 1_555
C14_17 N1_14 1_555 1_555
H6_17 C14_17 1_555 1_555
O7_18 Cu11_5 1_555 1_555
C15_14 C5_14 1_555 1_555
H7_14 C15_14 1_555 1_555
C16_14 C15_14 1_555 1_555
C17_14 C3_14 1_555 1_555
H8_14 C17_14 1_555 1_555
N2_14 C16_14 1_555 1_555
C18_14 N2_14 1_555 1_555
H9_14 C18_14 1_555 1_555
C19_17 N2_14 1_555 1_555
H10_17 C19_17 1_555 1_555
C20_14 C2_14 1_555 1_555
O27 C20_14 1_555 1_555
O29 C20_14 1_555 1_555
O30_8 C1_14 1_555 1_555
O22_8 C25_14 1_555 1_555
O23_8 C25_14 1_555 1_555
C21_14 C22_14 1_555 1_555
C22_14 C23_14 1_555 1_555
C23_14 H11_14 1_555 1_555
C24_14 C23_14 1_555 1_555
C25_14 C24_14 1_555 1_555
C26_14 C24_14 1_555 1_555
H12_14 C26_14 1_555 1_555
C27_14 C26_14 1_555 1_555
C28_14 C22_14 1_555 1_555
H13_14 C28_14 1_555 1_555
N3_14 C19_17 1_555 1_555
C29_14 C18_14 1_555 1_555
H14_14 C29_14 1_555 1_555
O15_14 C21_14 1_555 1_555
O24_8 C31_14 1_555 1_555
O25_8 C31_14 1_555 1_555
C30_14 C35_14 1_555 1_555
C31_14 C32_14 1_555 1_555
C32_14 C33_14 1_555 1_555
C33_14 H15_14 1_555 1_555
C34_14 C33_14 1_555 1_555
C35_14 C34_14 1_555 1_555
H16_14 C35_14 1_555 1_555
C36_14 C30_14 1_555 1_555
H17_14 C36_14 1_555 1_555
N4_14 C14_17 1_555 1_555
C37_14 C13_14 1_555 1_555
H18_14 C37_14 1_555 1_555
C38_14 C30_14 1_555 1_555
O18_14 C38_14 1_555 1_555
O19_14 C38_14 1_555 1_555
Cu9 O15_14 1_555 1_555
Cu8 O18_14 1_555 1_555
O5_14 C7_14 1_555 1_555
C5_14 C6_14 1_555 1_555
C8_14 C12_14 1_555 1_555
C16_14 C17_14 1_555 1_555
C27_14 C28_14 1_555 1_555
C27_14 N3_14 1_555 1_555
N3_14 C29_14 1_555 1_555
C32_14 C36_14 1_555 1_555
C34_14 N4_14 1_555 1_555
N4_14 C37_14 1_555 1_555
Cu13_4 O3_15 1_555 1_555
O21_7 C1_15 1_555 1_555
O2_15 Cu11_4 1_555 1_555
O3_15 C6_15 1_555 1_555
O4_15 Cu13_4 1_555 1_555
O5_15 Cu11_4 1_555 1_555
C1_15 C3_15 1_555 1_555
C2_15 C11_15 1_555 1_555
C3_15 C4_15 1_555 1_555
C4_15 H1_15 1_555 1_555
C5_15 C4_15 1_555 1_555
C6_15 O2_15 1_555 1_555
O6_19 Cu13_4 1_555 1_555
C7_15 O4_15 1_555 1_555
C8_15 C7_15 1_555 1_555
C9_15 C8_15 1_555 1_555
H2_15 C9_15 1_555 1_555
C10_15 C9_15 1_555 1_555
C11_15 C10_15 1_555 1_555
H3_15 C11_15 1_555 1_555
C12_15 C2_15 1_555 1_555
H4_15 C12_15 1_555 1_555
N1_15 C10_15 1_555 1_555
C13_15 N1_15 1_555 1_555
H5_15 C13_15 1_555 1_555
C14_18 N1_15 1_555 1_555
H6_18 C14_18 1_555 1_555
O7_19 Cu11_4 1_555 1_555
C15_15 C5_15 1_555 1_555
H7_15 C15_15 1_555 1_555
C16_15 C15_15 1_555 1_555
C17_15 C3_15 1_555 1_555
H8_15 C17_15 1_555 1_555
N2_15 C16_15 1_555 1_555
C18_15 N2_15 1_555 1_555
H9_15 C18_15 1_555 1_555
C19_18 N2_15 1_555 1_555
H10_18 C19_18 1_555 1_555
C20_15 C2_15 1_555 1_555
O27_6 C20_15 1_555 1_555
O29_6 C20_15 1_555 1_555
O30_7 C1_15 1_555 1_555
O12_15 C21_15 1_555 1_555
O22_6 C25_15 1_555 1_555
O23_6 C25_15 1_555 1_555
C21_15 C22_15 1_555 1_555
C22_15 C23_15 1_555 1_555
C23_15 H11_15 1_555 1_555
C24_15 C23_15 1_555 1_555
C25_15 C24_15 1_555 1_555
C26_15 C24_15 1_555 1_555
H12_15 C26_15 1_555 1_555
C27_15 C26_15 1_555 1_555
C28_15 C22_15 1_555 1_555
H13_15 C28_15 1_555 1_555
N3_15 C19_18 1_555 1_555
C29_15 C18_15 1_555 1_555
H14_15 C29_15 1_555 1_555
O15_15 C21_15 1_555 1_555
Cu10_4 O15_15 1_555 1_555
Cu9_4 O12_15 1_555 1_555
O5_15 C7_15 1_555 1_555
C5_15 C6_15 1_555 1_555
C8_15 C12_15 1_555 1_555
C16_15 C17_15 1_555 1_555
C27_15 C28_15 1_555 1_555
C27_15 N3_15 1_555 1_555
N3_15 C29_15 1_555 1_555
H6_19 C14_19 1_555 1_555
O24_6 C31_15 1_555 1_555
O25_6 C31_15 1_555 1_555
C30_15 C35_15 1_555 1_555
C31_15 C32_15 1_555 1_555
C32_15 C33_15 1_555 1_555
C33_15 H15_15 1_555 1_555
C34_15 C33_15 1_555 1_555
C35_15 C34_15 1_555 1_555
H16_15 C35_15 1_555 1_555
C36_15 C30_15 1_555 1_555
H17_15 C36_15 1_555 1_555
N4_15 C14_19 1_555 1_555
H18_15 C37_15 1_555 1_555
C38_15 C30_15 1_555 1_555
O18_15 C38_15 1_555 1_555
O19_15 C38_15 1_555 1_555
Cu10_3 O19_15 1_555 1_555
Cu9_3 O18_15 1_555 1_555
C32_15 C36_15 1_555 1_555
C34_15 N4_15 1_555 1_555
N4_15 C37_15 1_555 1_555
Cu14_4 O3_16 1_555 1_555
O21 C1_16 1_555 1_555
O3_16 C6_16 1_555 1_555
O4_16 Cu14_4 1_555 1_555
C1_16 C3_16 1_555 1_555
C3_16 C4_16 1_555 1_555
C4_16 H1_16 1_555 1_555
C5_16 C4_16 1_555 1_555
C6_16 O2_16 1_555 1_555
O6_20 Cu14_4 1_555 1_555
C15_16 C5_16 1_555 1_555
H7_16 C15_16 1_555 1_555
C16_16 C15_16 1_555 1_555
C17_16 C3_16 1_555 1_555
H8_16 C17_16 1_555 1_555
N2_16 C16_16 1_555 1_555
C18_16 N2_16 1_555 1_555
H9_16 C18_16 1_555 1_555
C19_19 N2_16 1_555 1_555
H10_19 C19_19 1_555 1_555
O30 C1_16 1_555 1_555
C5_16 C6_16 1_555 1_555
C16_16 C17_16 1_555 1_555
O5_16 Cu12_4 1_555 1_555
C2_16 C11_16 1_555 1_555
C8_16 C7_16 1_555 1_555
C9_16 C8_16 1_555 1_555
H2_16 C9_16 1_555 1_555
C10_16 C9_16 1_555 1_555
C11_16 C10_16 1_555 1_555
H3_16 C11_16 1_555 1_555
C12_16 C2_16 1_555 1_555
H4_16 C12_16 1_555 1_555
N1_16 C10_16 1_555 1_555
C13_16 N1_16 1_555 1_555
C14_20 N1_16 1_555 1_555
H6_20 C14_20 1_555 1_555
O7_20 Cu12_4 1_555 1_555
C20_16 C2_16 1_555 1_555
O26_5 C20_16 1_555 1_555
O28_5 C20_16 1_555 1_555
O25_5 C31_16 1_555 1_555
C30_16 C35_16 1_555 1_555
C31_16 C32_16 1_555 1_555
C32_16 C33_16 1_555 1_555
C33_16 H15_16 1_555 1_555
C34_16 C33_16 1_555 1_555
C35_16 C34_16 1_555 1_555
H16_16 C35_16 1_555 1_555
C36_16 C30_16 1_555 1_555
H17_16 C36_16 1_555 1_555
N4_16 C14_20 1_555 1_555
C37_16 C13_16 1_555 1_555
C38_16 C30_16 1_555 1_555
O18_16 C38_16 1_555 1_555
O19_16 C38_16 1_555 1_555
Cu8_4 O19_16 1_555 1_555
Cu7_4 O18_16 1_555 1_555
O5_16 C7_16 1_555 1_555
C8_16 C12_16 1_555 1_555
C32_16 C36_16 1_555 1_555
C34_16 N4_16 1_555 1_555
N4_16 C37_16 1_555 1_555
H10_20 C19_20 1_555 1_555
O12_16 C21_16 1_555 1_555
O22_5 C25_16 1_555 1_555
O23_5 C25_16 1_555 1_555
C21_16 C22_16 1_555 1_555
C22_16 C23_16 1_555 1_555
C23_16 H11_16 1_555 1_555
C24_16 C23_16 1_555 1_555
C25_16 C24_16 1_555 1_555
C26_16 C24_16 1_555 1_555
H12_16 C26_16 1_555 1_555
C27_16 C26_16 1_555 1_555
C28_16 C22_16 1_555 1_555
H13_16 C28_16 1_555 1_555
N3_16 C19_20 1_555 1_555
H14_16 C29_16 1_555 1_555
O15_16 C21_16 1_555 1_555
Cu8_2 O15_16 1_555 1_555
Cu7_2 O12_16 1_555 1_555
C27_16 C28_16 1_555 1_555
C27_16 N3_16 1_555 1_555
N3_16 C29_16 1_555 1_555
O6_7 H20_5 1_555 1_555
O11_9 Cu8_4 1_555 1_555
O20_9 Cu7_4 1_555 1_555
O6_8 H19_5 1_555 1_555
O7_8 H23_5 1_555 1_555
O11_10 Cu10_2 1_555 1_555
O20_10 Cu9_2 1_555 1_555
O20_11 Cu8_3 1_555 1_555
O7_9 H23_6 1_555 1_555
O11_11 Cu7_3 1_555 1_555
O6_9 H19_6 1_555 1_555
O6_10 H20_6 1_555 1_555
O20_12 Cu8 1_555 1_555
O11_12 Cu7 1_555 1_555
O6 H20_7 1_555 1_555
O11_13 Cu8_2 1_555 1_555
O20_13 Cu7_2 1_555 1_555
O6_2 H19_7 1_555 1_555
O7_2 H23_7 1_555 1_555
O6_4 H19_8 1_555 1_555
O7_4 H23_8 1_555 1_555
O6_5 H20_8 1_555 1_555
O20_14 Cu10 1_555 1_555
O11_14 Cu9 1_555 1_555
O11_15 Cu10_3 1_555 1_555
O20_15 Cu9_3 1_555 1_555
O11_16 Cu9_4 1_555 1_555
O20_16 Cu10_4 1_555 1_555

#END
