
###############################################################################
#
# This file contains modified crystal structure data generated from the
# MOF subset of the Cambridge Structural Database (CSD) v543 
# hosted by the Cambridge Crystallographic Data Centre (CCDC).
#
# This work is licensed under the Creative Commons
# Attribution-NonCommercial-ShareAlike 4.0 International License.
# To view a copy of this license, visit
# http://creativecommons.org/licenses/by-nc-sa/4.0/
# or send a letter to
# Creative Commons, PO Box 1866, Mountain View, CA 94042, USA.
#
# CIF created using the CSD Python API on 29 September 2022
# The structure has been converted into the P1 space group
# The structure has a 3D framework
# The original CSD entry WOYJIF is in the tetragonal crystal system
# The framework has been calculated to contain at least 10.0% void space
# The void calculation uses a probe of radius 1.32A, grid spacing 0.4
# The framework is charged, counterions have been retained in the structure
# H atom positions have been added when not included in the experimental data
# Generated hydrogen atom positions removed from atoms on special positions
#
###############################################################################

data_WOYJIF
_chemical_formula_moiety         '(C152 H136 Cu16 N16 O76 8+)n'
_symmetry_cell_setting           triclinic
_symmetry_space_group_name_H-M   'P 1'
_symmetry_Int_Tables_number      1
_space_group_name_Hall           'P 1'
loop_
_symmetry_equiv_pos_site_id
_symmetry_equiv_pos_as_xyz
1 x,y,z
_cell_length_a                   17.7179(7)
_cell_length_b                   17.7179(7)
_cell_length_c                   27.5566(13)
_cell_angle_alpha                90
_cell_angle_beta                 90
_cell_angle_gamma                90
_cell_volume                     8650.68
loop_
_atom_site_label
_atom_site_type_symbol
_atom_site_fract_x
_atom_site_fract_y
_atom_site_fract_z
Cu1 Cu 0.03972(3) 0.53972(3) 0.53215(3)
Cu2 Cu 0.2500 0.32483(5) 0.7500
C1 C 0.1542(3) 0.2476(3) 0.68498(19)
C2 C 0.0368(3) 0.3139(3) 0.5773(2)
C3 C 0.0853(3) 0.3128(3) 0.61668(18)
H1 H 0.1104 0.3581 0.6257
C4 C 0.0986(3) 0.2473(3) 0.6436(2)
C5 C 0.0109(3) 0.1821(3) 0.5926(2)
C6 C 0.0004(4) 0.2441(4) 0.5661(2)
C7 C 0.0580(3) 0.1811(3) 0.6307(2)
H3 H 0.0643 0.1361 0.6490
O1 O 0.1822(2) 0.3106(2) 0.69464(12)
O2 O 0.1648(2) 0.1862(2) 0.70539(13)
C8 C 0.0245(3) 0.3840(3) 0.5476(2)
O3 O 0.0539(2) 0.44193(19) 0.56428(12)
O5 O 0.2500 0.4463(4) 0.7500
O6 O 0.1053(2) 0.6053(2) 0.5812(2)
Cu6 Cu 0.2500 0.17517(5) 0.7500
O11 O 0.3178(2) 0.3106(2) 0.80536(12)
O12 O 0.3352(2) 0.3138(2) 0.70539(13)
O13 O 0.1648(2) 0.3138(2) 0.79461(13)
O15 O 0.1244(2) 0.5149(2) 0.48954(13)
O16 O 0.0149(2) 0.6244(2) 0.48954(13)
H2 H 0.9676 0.2418 0.5389
N1 N 0.9698(3) 0.1165(3) 0.5807(2)
O4 O 0.9851(2) 0.3756(2) 0.51046(13)
C9 C 0.9124(4) 0.0876(4) 0.5993(3)
H4 H 0.8907 0.1093 0.6276
C10 C 0.9671(6) 0.0942(7) 0.5312(6)
H5 H 0.9960 0.1126 0.5047
H7 H 0.7582 0.0324 0.5389
N2 N 0.8835(3) 0.0302(3) 0.5807(2)
O10 O 0.6244(2) 0.0149(2) 0.51046(13)
C19 C 0.9058(7) 0.0329(6) 0.5312(6)
H9 H 0.8874 0.0040 0.5047
Cu4 Cu 0.53972(3) 0.03972(3) 0.46785(3)
Cu5 Cu 0.96028(3) 0.46028(3) 0.46785(3)
O14 O 0.94193(19) 0.5539(2) 0.56428(12)
C11 C 0.7524(3) 0.8458(3) 0.68498(19)
C12 C 0.6861(3) 0.9632(3) 0.5773(2)
C13 C 0.6872(3) 0.9147(3) 0.61668(18)
H6 H 0.6419 0.8896 0.6257
C14 C 0.7527(3) 0.9014(3) 0.6436(2)
C15 C 0.8179(3) 0.9891(3) 0.5926(2)
C16 C 0.7559(4) 0.9996(4) 0.5661(2)
C17 C 0.8189(3) 0.9420(3) 0.6307(2)
H8 H 0.8639 0.9357 0.6490
O7 O 0.6894(2) 0.8178(2) 0.69464(12)
O8 O 0.8138(2) 0.8352(2) 0.70539(13)
C18 C 0.6160(3) 0.9755(3) 0.5476(2)
O9 O 0.55807(19) 0.9461(2) 0.56428(12)
Cu3 Cu 0.46028(3) 0.96028(3) 0.53215(3)
Cu7 Cu 0.82483(5) 0.7500 0.7500
Cu8 Cu 0.67517(5) 0.7500 0.7500
Cu2_2 Cu 0.17517(5) 0.2500 0.2500
C1_2 C 0.2524(3) 0.1542(3) 0.18498(19)
C2_2 C 0.1861(3) 0.0368(3) 0.0773(2)
C3_2 C 0.1872(3) 0.0853(3) 0.11668(18)
H1_2 H 0.1419 0.1104 0.1257
C4_2 C 0.2527(3) 0.0986(3) 0.1436(2)
C5_2 C 0.3179(3) 0.0109(3) 0.0926(2)
C6_2 C 0.2559(4) 0.0004(4) 0.0661(2)
C7_2 C 0.3189(3) 0.0580(3) 0.1307(2)
H3_2 H 0.3639 0.0643 0.1490
O1_2 O 0.1894(2) 0.1822(2) 0.19464(12)
O2_2 O 0.3138(2) 0.1648(2) 0.20539(13)
C8_2 C 0.1160(3) 0.0245(3) 0.0476(2)
O3_2 O 0.05807(19) 0.0539(2) 0.06428(12)
O5_2 O 0.0537(4) 0.2500 0.2500
Cu6_2 Cu 0.32483(5) 0.2500 0.2500
O11_2 O 0.1894(2) 0.3178(2) 0.30536(12)
O12_2 O 0.1862(2) 0.3352(2) 0.20539(13)
O13_2 O 0.1862(2) 0.1648(2) 0.29461(13)
H2_2 H 0.2582 0.9676 0.0389
N1_2 N 0.3835(3) 0.9698(3) 0.0807(2)
O4_2 O 0.1244(2) 0.9851(2) 0.01046(13)
C9_2 C 0.4124(4) 0.9124(4) 0.0993(3)
H4_2 H 0.3907 0.8907 0.1276
C10_2 C 0.4058(7) 0.9671(6) 0.0312(6)
H5_2 H 0.3874 0.9960 0.0047
C11_2 C 0.6542(3) 0.7524(3) 0.18498(19)
C12_2 C 0.5368(3) 0.6861(3) 0.0773(2)
C13_2 C 0.5853(3) 0.6872(3) 0.11668(18)
H6_2 H 0.6104 0.6419 0.1257
C14_2 C 0.5986(3) 0.7527(3) 0.1436(2)
C15_2 C 0.5109(3) 0.8179(3) 0.0926(2)
C16_2 C 0.5004(4) 0.7559(4) 0.0661(2)
H7_2 H 0.4676 0.7582 0.0389
C17_2 C 0.5580(3) 0.8189(3) 0.1307(2)
H8_2 H 0.5643 0.8639 0.1490
O7_2 O 0.6822(2) 0.6894(2) 0.19464(12)
O8_2 O 0.6648(2) 0.8138(2) 0.20539(13)
N2_2 N 0.4698(3) 0.8835(3) 0.0807(2)
C18_2 C 0.5245(3) 0.6160(3) 0.0476(2)
O9_2 O 0.5539(2) 0.55807(19) 0.06428(12)
O10_2 O 0.4851(2) 0.6244(2) 0.01046(13)
C19_2 C 0.4671(6) 0.9058(7) 0.0312(6)
H9_2 H 0.4960 0.8874 0.0047
Cu3_2 Cu 0.53972(3) 0.46028(3) 0.03215(3)
Cu7_2 Cu 0.7500 0.82483(5) 0.2500
Cu8_2 Cu 0.7500 0.67517(5) 0.2500
Cu4_2 Cu 0.46028(3) 0.53972(3) 0.96785(3)
Cu5_2 Cu 0.03972(3) 0.96028(3) 0.96785(3)
Cu1_2 Cu 0.96028(3) 0.03972(3) 0.03215(3)
O6_2 O 0.8947(2) 0.1053(2) 0.0812(2)
O15_2 O 0.9851(2) 0.1244(2) 0.98954(13)
O16_2 O 0.8756(2) 0.0149(2) 0.98954(13)
O14_2 O 0.9461(2) 0.94193(19) 0.06428(12)
C1_3 C 0.3458(3) 0.2524(3) 0.68498(19)
C2_3 C 0.4632(3) 0.1861(3) 0.5773(2)
C3_3 C 0.4147(3) 0.1872(3) 0.61668(18)
H1_3 H 0.3896 0.1419 0.6257
C4_3 C 0.4014(3) 0.2527(3) 0.6436(2)
C5_3 C 0.4891(3) 0.3179(3) 0.5926(2)
C6_3 C 0.4996(4) 0.2559(4) 0.5661(2)
H2_3 H 0.5324 0.2582 0.5389
C7_3 C 0.4420(3) 0.3189(3) 0.6307(2)
H3_3 H 0.4357 0.3639 0.6490
O1_3 O 0.3178(2) 0.1894(2) 0.69464(12)
N1_3 N 0.5302(3) 0.3835(3) 0.5807(2)
C8_3 C 0.4755(3) 0.1160(3) 0.5476(2)
O3_3 O 0.4461(2) 0.05807(19) 0.56428(12)
O4_3 O 0.5149(2) 0.1244(2) 0.51046(13)
C9_3 C 0.5876(4) 0.4124(4) 0.5993(3)
H4_3 H 0.6093 0.3907 0.6276
C10_3 C 0.5329(6) 0.4058(7) 0.5312(6)
H5_3 H 0.5040 0.3874 0.5047
O5_3 O 0.2500 0.0537(4) 0.7500
C11_3 C 0.7476(3) 0.6542(3) 0.68498(19)
C12_3 C 0.8139(3) 0.5368(3) 0.5773(2)
C13_3 C 0.8128(3) 0.5853(3) 0.61668(18)
H6_3 H 0.8581 0.6104 0.6257
C14_3 C 0.7473(3) 0.5986(3) 0.6436(2)
C15_3 C 0.6821(3) 0.5109(3) 0.5926(2)
C16_3 C 0.7441(4) 0.5004(4) 0.5661(2)
H7_3 H 0.7418 0.4676 0.5389
C17_3 C 0.6811(3) 0.5580(3) 0.6307(2)
H8_3 H 0.6361 0.5643 0.6490
O7_3 O 0.8106(2) 0.6822(2) 0.69464(12)
O8_3 O 0.6862(2) 0.6648(2) 0.70539(13)
N2_3 N 0.6165(3) 0.4698(3) 0.5807(2)
C18_3 C 0.8840(3) 0.5245(3) 0.5476(2)
O10_3 O 0.8756(2) 0.4851(2) 0.51046(13)
C19_3 C 0.5942(7) 0.4671(6) 0.5312(6)
H9_3 H 0.6126 0.4960 0.5047
O11_3 O 0.1822(2) 0.1894(2) 0.80536(12)
O13_3 O 0.3352(2) 0.1862(2) 0.79461(13)
O6_3 O 0.3947(2) 0.8947(2) 0.5812(2)
O15_3 O 0.3756(2) 0.9851(2) 0.48954(13)
O16_3 O 0.4851(2) 0.8756(2) 0.48954(13)
C1_4 C 0.2476(3) 0.3458(3) 0.18498(19)
C2_4 C 0.3139(3) 0.4632(3) 0.0773(2)
C3_4 C 0.3128(3) 0.4147(3) 0.11668(18)
H1_4 H 0.3581 0.3896 0.1257
C4_4 C 0.2473(3) 0.4014(3) 0.1436(2)
C5_4 C 0.1821(3) 0.4891(3) 0.0926(2)
C6_4 C 0.2441(4) 0.4996(4) 0.0661(2)
H2_4 H 0.2418 0.5324 0.0389
C7_4 C 0.1811(3) 0.4420(3) 0.1307(2)
H3_4 H 0.1361 0.4357 0.1490
O1_4 O 0.3106(2) 0.3178(2) 0.19464(12)
N1_4 N 0.1165(3) 0.5302(3) 0.0807(2)
C8_4 C 0.3840(3) 0.4755(3) 0.0476(2)
O3_4 O 0.44193(19) 0.4461(2) 0.06428(12)
O4_4 O 0.3756(2) 0.5149(2) 0.01046(13)
C9_4 C 0.0876(4) 0.5876(4) 0.0993(3)
H4_4 H 0.1093 0.6093 0.1276
C10_4 C 0.0942(7) 0.5329(6) 0.0312(6)
H5_4 H 0.1126 0.5040 0.0047
O5_4 O 0.4463(4) 0.2500 0.2500
O6_4 O 0.6053(2) 0.3947(2) 0.0812(2)
H7_4 H 0.0324 0.7418 0.0389
N2_4 N 0.0302(3) 0.6165(3) 0.0807(2)
O10_4 O 0.0149(2) 0.8756(2) 0.01046(13)
C19_4 C 0.0329(6) 0.5942(7) 0.0312(6)
H9_4 H 0.0040 0.6126 0.0047
O11_4 O 0.3106(2) 0.1822(2) 0.30536(12)
O13_4 O 0.3138(2) 0.3352(2) 0.29461(13)
O15_4 O 0.5149(2) 0.3756(2) 0.98954(13)
O16_4 O 0.6244(2) 0.4851(2) 0.98954(13)
C11_4 C 0.8458(3) 0.7476(3) 0.18498(19)
C12_4 C 0.9632(3) 0.8139(3) 0.0773(2)
C13_4 C 0.9147(3) 0.8128(3) 0.11668(18)
H6_4 H 0.8896 0.8581 0.1257
C14_4 C 0.9014(3) 0.7473(3) 0.1436(2)
C15_4 C 0.9891(3) 0.6821(3) 0.0926(2)
C16_4 C 0.9996(4) 0.7441(4) 0.0661(2)
C17_4 C 0.9420(3) 0.6811(3) 0.1307(2)
H8_4 H 0.9357 0.6361 0.1490
O7_4 O 0.8178(2) 0.8106(2) 0.19464(12)
O8_4 O 0.8352(2) 0.6862(2) 0.20539(13)
C18_4 C 0.9755(3) 0.8840(3) 0.0476(2)
C1_5 C 0.1542(3) 0.2524(3) 0.81502(19)
C2_5 C 0.0368(3) 0.1861(3) 0.9227(2)
C3_5 C 0.0853(3) 0.1872(3) 0.88332(18)
H1_5 H 0.1104 0.1419 0.8743
C4_5 C 0.0986(3) 0.2527(3) 0.8564(2)
C5_5 C 0.0109(3) 0.3179(3) 0.9074(2)
C6_5 C 0.0004(4) 0.2559(4) 0.9339(2)
C7_5 C 0.0580(3) 0.3189(3) 0.8693(2)
H3_5 H 0.0643 0.3639 0.8510
C8_5 C 0.0245(3) 0.1160(3) 0.9524(2)
O3_5 O 0.0539(2) 0.05807(19) 0.93572(12)
O6_5 O 0.1053(2) 0.8947(2) 0.9188(2)
H2_5 H 0.9676 0.2582 0.9611
N1_5 N 0.9698(3) 0.3835(3) 0.9193(2)
C9_5 C 0.9124(4) 0.4124(4) 0.9007(3)
H4_5 H 0.8907 0.3907 0.8724
C10_5 C 0.9671(6) 0.4058(7) 0.9688(6)
H5_5 H 0.9960 0.3874 0.9953
C11_5 C 0.7524(3) 0.6542(3) 0.81502(19)
C12_5 C 0.6861(3) 0.5368(3) 0.9227(2)
C13_5 C 0.6872(3) 0.5853(3) 0.88332(18)
H6_5 H 0.6419 0.6104 0.8743
C14_5 C 0.7527(3) 0.5986(3) 0.8564(2)
C15_5 C 0.8179(3) 0.5109(3) 0.9074(2)
C16_5 C 0.7559(4) 0.5004(4) 0.9339(2)
H7_5 H 0.7582 0.4676 0.9611
C17_5 C 0.8189(3) 0.5580(3) 0.8693(2)
H8_5 H 0.8639 0.5643 0.8510
O7_5 O 0.6894(2) 0.6822(2) 0.80536(12)
O8_5 O 0.8138(2) 0.6648(2) 0.79461(13)
N2_5 N 0.8835(3) 0.4698(3) 0.9193(2)
C18_5 C 0.6160(3) 0.5245(3) 0.9524(2)
O9_3 O 0.55807(19) 0.5539(2) 0.93572(12)
C19_5 C 0.9058(7) 0.4671(6) 0.9688(6)
H9_5 H 0.8874 0.4960 0.9953
O14_3 O 0.94193(19) 0.9461(2) 0.93572(12)
C1_6 C 0.3458(3) 0.2476(3) 0.81502(19)
C2_6 C 0.4632(3) 0.3139(3) 0.9227(2)
C3_6 C 0.4147(3) 0.3128(3) 0.88332(18)
H1_6 H 0.3896 0.3581 0.8743
C4_6 C 0.4014(3) 0.2473(3) 0.8564(2)
C5_6 C 0.4891(3) 0.1821(3) 0.9074(2)
C6_6 C 0.4996(4) 0.2441(4) 0.9339(2)
H2_6 H 0.5324 0.2418 0.9611
C7_6 C 0.4420(3) 0.1811(3) 0.8693(2)
H3_6 H 0.4357 0.1361 0.8510
N1_6 N 0.5302(3) 0.1165(3) 0.9193(2)
C8_6 C 0.4755(3) 0.3840(3) 0.9524(2)
O3_6 O 0.4461(2) 0.44193(19) 0.93572(12)
C9_6 C 0.5876(4) 0.0876(4) 0.9007(3)
H4_6 H 0.6093 0.1093 0.8724
C10_6 C 0.5329(6) 0.0942(7) 0.9688(6)
H5_6 H 0.5040 0.1126 0.9953
O6_6 O 0.3947(2) 0.6053(2) 0.9188(2)
H7_6 H 0.7418 0.0324 0.9611
N2_6 N 0.6165(3) 0.0302(3) 0.9193(2)
C19_6 C 0.5942(7) 0.0329(6) 0.9688(6)
H9_6 H 0.6126 0.0040 0.9953
C11_6 C 0.7476(3) 0.8458(3) 0.81502(19)
C12_6 C 0.8139(3) 0.9632(3) 0.9227(2)
C13_6 C 0.8128(3) 0.9147(3) 0.88332(18)
H6_6 H 0.8581 0.8896 0.8743
C14_6 C 0.7473(3) 0.9014(3) 0.8564(2)
C15_6 C 0.6821(3) 0.9891(3) 0.9074(2)
C16_6 C 0.7441(4) 0.9996(4) 0.9339(2)
C17_6 C 0.6811(3) 0.9420(3) 0.8693(2)
H8_6 H 0.6361 0.9357 0.8510
O7_6 O 0.8106(2) 0.8178(2) 0.80536(12)
O8_6 O 0.6862(2) 0.8352(2) 0.79461(13)
C18_6 C 0.8840(3) 0.9755(3) 0.9524(2)
C1_7 C 0.2476(3) 0.1542(3) 0.31502(19)
C2_7 C 0.3139(3) 0.0368(3) 0.4227(2)
C3_7 C 0.3128(3) 0.0853(3) 0.38332(18)
H1_7 H 0.3581 0.1104 0.3743
C4_7 C 0.2473(3) 0.0986(3) 0.3564(2)
C5_7 C 0.1821(3) 0.0109(3) 0.4074(2)
C6_7 C 0.2441(4) 0.0004(4) 0.4339(2)
C7_7 C 0.1811(3) 0.0580(3) 0.3693(2)
H3_7 H 0.1361 0.0643 0.3510
C8_7 C 0.3840(3) 0.0245(3) 0.4524(2)
O3_7 O 0.44193(19) 0.0539(2) 0.43572(12)
O6_7 O 0.6053(2) 0.1053(2) 0.4188(2)
H2_7 H 0.2418 0.9676 0.4611
N1_7 N 0.1165(3) 0.9698(3) 0.4193(2)
C9_7 C 0.0876(4) 0.9124(4) 0.4007(3)
H4_7 H 0.1093 0.8907 0.3724
C10_7 C 0.0942(7) 0.9671(6) 0.4688(6)
H5_7 H 0.1126 0.9960 0.4953
H7_7 H 0.0324 0.7582 0.4611
N2_7 N 0.0302(3) 0.8835(3) 0.4193(2)
C19_7 C 0.0329(6) 0.9058(7) 0.4688(6)
H9_7 H 0.0040 0.8874 0.4953
O14_4 O 0.5539(2) 0.94193(19) 0.43572(12)
C11_7 C 0.8458(3) 0.7524(3) 0.31502(19)
C12_7 C 0.9632(3) 0.6861(3) 0.4227(2)
C13_7 C 0.9147(3) 0.6872(3) 0.38332(18)
H6_7 H 0.8896 0.6419 0.3743
C14_7 C 0.9014(3) 0.7527(3) 0.3564(2)
C15_7 C 0.9891(3) 0.8179(3) 0.4074(2)
C16_7 C 0.9996(4) 0.7559(4) 0.4339(2)
C17_7 C 0.9420(3) 0.8189(3) 0.3693(2)
H8_7 H 0.9357 0.8639 0.3510
O7_7 O 0.8178(2) 0.6894(2) 0.30536(12)
O8_7 O 0.8352(2) 0.8138(2) 0.29461(13)
C18_7 C 0.9755(3) 0.6160(3) 0.4524(2)
O9_4 O 0.9461(2) 0.55807(19) 0.43572(12)
C1_8 C 0.2524(3) 0.3458(3) 0.31502(19)
C2_8 C 0.1861(3) 0.4632(3) 0.4227(2)
C3_8 C 0.1872(3) 0.4147(3) 0.38332(18)
H1_8 H 0.1419 0.3896 0.3743
C4_8 C 0.2527(3) 0.4014(3) 0.3564(2)
C5_8 C 0.3179(3) 0.4891(3) 0.4074(2)
C6_8 C 0.2559(4) 0.4996(4) 0.4339(2)
H2_8 H 0.2582 0.5324 0.4611
C7_8 C 0.3189(3) 0.4420(3) 0.3693(2)
H3_8 H 0.3639 0.4357 0.3510
N1_8 N 0.3835(3) 0.5302(3) 0.4193(2)
C8_8 C 0.1160(3) 0.4755(3) 0.4524(2)
O3_8 O 0.05807(19) 0.4461(2) 0.43572(12)
C9_8 C 0.4124(4) 0.5876(4) 0.4007(3)
H4_8 H 0.3907 0.6093 0.3724
C10_8 C 0.4058(7) 0.5329(6) 0.4688(6)
H5_8 H 0.3874 0.5040 0.4953
C11_8 C 0.6542(3) 0.7476(3) 0.31502(19)
C12_8 C 0.5368(3) 0.8139(3) 0.4227(2)
C13_8 C 0.5853(3) 0.8128(3) 0.38332(18)
H6_8 H 0.6104 0.8581 0.3743
C14_8 C 0.5986(3) 0.7473(3) 0.3564(2)
C15_8 C 0.5109(3) 0.6821(3) 0.4074(2)
C16_8 C 0.5004(4) 0.7441(4) 0.4339(2)
H7_8 H 0.4676 0.7418 0.4611
C17_8 C 0.5580(3) 0.6811(3) 0.3693(2)
H8_8 H 0.5643 0.6361 0.3510
O7_8 O 0.6822(2) 0.8106(2) 0.30536(12)
O8_8 O 0.6648(2) 0.6862(2) 0.29461(13)
N2_8 N 0.4698(3) 0.6165(3) 0.4193(2)
C18_8 C 0.5245(3) 0.8840(3) 0.4524(2)
C19_8 C 0.4671(6) 0.5942(7) 0.4688(6)
H9_8 H 0.4960 0.6126 0.4953
O6_8 O 0.8947(2) 0.3947(2) 0.4188(2)
O5_5 O 0.7500 0.5537(4) 0.2500
O5_6 O 0.9463(4) 0.7500 0.7500
O5_7 O 0.7500 0.9463(4) 0.2500
O5_8 O 0.5537(4) 0.7500 0.7500
loop_
_geom_bond_atom_site_label_1
_geom_bond_atom_site_label_2
_geom_bond_site_symmetry_1
_geom_bond_site_symmetry_2
Cu1 O3 1_555 1_555
Cu2 O1 1_555 1_555
C1 C4 1_555 1_555
C2 C3 1_555 1_555
C3 H1 1_555 1_555
C4 C3 1_555 1_555
C5 C6 1_555 1_555
C6 C2 1_555 1_555
C7 C4 1_555 1_555
H3 C7 1_555 1_555
O1 C1 1_555 1_555
O2 C1 1_555 1_555
C8 C2 1_555 1_555
O3 C8 1_555 1_555
O5 Cu2 1_555 1_555
O6 Cu1 1_555 1_555
Cu6 Cu2 1_555 1_555
O11 Cu2 1_555 1_555
O12 Cu2 1_555 1_555
O13 Cu2 1_555 1_555
O15 Cu1 1_555 1_555
O16 Cu1 1_555 1_555
C5 C7 1_555 1_555
O2 Cu6 1_555 1_555
C9 N1 1_555 1_555
H4 C9 1_555 1_555
C10 N1 1_555 1_555
H5 C10 1_555 1_555
N2 C9 1_555 1_555
C19 C10 1_555 1_555
H9 C19 1_555 1_555
Cu4 O10 1_555 1_555
O4 Cu5 1_555 1_555
N2 C19 1_555 1_555
C11 C14 1_555 1_555
C12 C13 1_555 1_555
C13 H6 1_555 1_555
C14 C13 1_555 1_555
C15 C16 1_555 1_555
C16 C12 1_555 1_555
C17 C14 1_555 1_555
H8 C17 1_555 1_555
O7 C11 1_555 1_555
O8 C11 1_555 1_555
C18 C12 1_555 1_555
O9 C18 1_555 1_555
Cu3 O9 1_555 1_555
Cu7 O8 1_555 1_555
Cu8 O7 1_555 1_555
C15 C17 1_555 1_555
Cu7 Cu8 1_555 1_555
Cu2_2 O1_2 1_555 1_555
C1_2 C4_2 1_555 1_555
C2_2 C3_2 1_555 1_555
C3_2 H1_2 1_555 1_555
C4_2 C3_2 1_555 1_555
C5_2 C6_2 1_555 1_555
C6_2 C2_2 1_555 1_555
C7_2 C4_2 1_555 1_555
H3_2 C7_2 1_555 1_555
O1_2 C1_2 1_555 1_555
O2_2 C1_2 1_555 1_555
C8_2 C2_2 1_555 1_555
O3_2 C8_2 1_555 1_555
O5_2 Cu2_2 1_555 1_555
Cu6_2 Cu2_2 1_555 1_555
O11_2 Cu2_2 1_555 1_555
O12_2 Cu2_2 1_555 1_555
O13_2 Cu2_2 1_555 1_555
C5_2 C7_2 1_555 1_555
O2_2 Cu6_2 1_555 1_555
C9_2 N1_2 1_555 1_555
H4_2 C9_2 1_555 1_555
C10_2 N1_2 1_555 1_555
H5_2 C10_2 1_555 1_555
C11_2 C14_2 1_555 1_555
C12_2 C13_2 1_555 1_555
C13_2 H6_2 1_555 1_555
C14_2 C13_2 1_555 1_555
C15_2 C16_2 1_555 1_555
C16_2 C12_2 1_555 1_555
H7_2 C16_2 1_555 1_555
C17_2 C14_2 1_555 1_555
H8_2 C17_2 1_555 1_555
O7_2 C11_2 1_555 1_555
O8_2 C11_2 1_555 1_555
N2_2 C9_2 1_555 1_555
C18_2 C12_2 1_555 1_555
O9_2 C18_2 1_555 1_555
O10_2 C18_2 1_555 1_555
C19_2 C10_2 1_555 1_555
H9_2 C19_2 1_555 1_555
Cu3_2 O9_2 1_555 1_555
Cu7_2 O8_2 1_555 1_555
Cu8_2 O7_2 1_555 1_555
C15_2 C17_2 1_555 1_555
C15_2 N2_2 1_555 1_555
N2_2 C19_2 1_555 1_555
Cu7_2 Cu8_2 1_555 1_555
O6_2 Cu1_2 1_555 1_555
Cu6 O1_3 1_555 1_555
C1_3 C4_3 1_555 1_555
C2_3 C3_3 1_555 1_555
C3_3 H1_3 1_555 1_555
C4_3 C3_3 1_555 1_555
C5_3 C6_3 1_555 1_555
C6_3 C2_3 1_555 1_555
H2_3 C6_3 1_555 1_555
C7_3 C4_3 1_555 1_555
H3_3 C7_3 1_555 1_555
O1_3 C1_3 1_555 1_555
O12 C1_3 1_555 1_555
N1_3 C5_3 1_555 1_555
C8_3 C2_3 1_555 1_555
O3_3 C8_3 1_555 1_555
O4_3 C8_3 1_555 1_555
C9_3 N1_3 1_555 1_555
H4_3 C9_3 1_555 1_555
C10_3 N1_3 1_555 1_555
H5_3 C10_3 1_555 1_555
O5_3 Cu6 1_555 1_555
C11_3 C14_3 1_555 1_555
C12_3 C13_3 1_555 1_555
C13_3 H6_3 1_555 1_555
C14_3 C13_3 1_555 1_555
C15_3 C16_3 1_555 1_555
C16_3 C12_3 1_555 1_555
H7_3 C16_3 1_555 1_555
C17_3 C14_3 1_555 1_555
H8_3 C17_3 1_555 1_555
O7_3 C11_3 1_555 1_555
O8_3 C11_3 1_555 1_555
N2_3 C9_3 1_555 1_555
C18_3 C12_3 1_555 1_555
O14 C18_3 1_555 1_555
O10_3 C18_3 1_555 1_555
C19_3 C10_3 1_555 1_555
H9_3 C19_3 1_555 1_555
Cu5 O10_3 1_555 1_555
Cu8 O8_3 1_555 1_555
Cu7 O7_3 1_555 1_555
O11_3 Cu6 1_555 1_555
O13_3 Cu6 1_555 1_555
C5_3 C7_3 1_555 1_555
O4_3 Cu4 1_555 1_555
C15_3 C17_3 1_555 1_555
C15_3 N2_3 1_555 1_555
N2_3 C19_3 1_555 1_555
O6_3 Cu3 1_555 1_555
O15_3 Cu3 1_555 1_555
O16_3 Cu3 1_555 1_555
Cu3_2 O3_4 1_555 1_555
Cu6_2 O1_4 1_555 1_555
C1_4 C4_4 1_555 1_555
C2_4 C3_4 1_555 1_555
C3_4 H1_4 1_555 1_555
C4_4 C3_4 1_555 1_555
C5_4 C6_4 1_555 1_555
C6_4 C2_4 1_555 1_555
H2_4 C6_4 1_555 1_555
C7_4 C4_4 1_555 1_555
H3_4 C7_4 1_555 1_555
O1_4 C1_4 1_555 1_555
O12_2 C1_4 1_555 1_555
N1_4 C5_4 1_555 1_555
C8_4 C2_4 1_555 1_555
O3_4 C8_4 1_555 1_555
O4_4 C8_4 1_555 1_555
C9_4 N1_4 1_555 1_555
H4_4 C9_4 1_555 1_555
C10_4 N1_4 1_555 1_555
H5_4 C10_4 1_555 1_555
O5_4 Cu6_2 1_555 1_555
O6_4 Cu3_2 1_555 1_555
N2_4 C9_4 1_555 1_555
C19_4 C10_4 1_555 1_555
H9_4 C19_4 1_555 1_555
O11_4 Cu6_2 1_555 1_555
O13_4 Cu6_2 1_555 1_555
C5_4 C7_4 1_555 1_555
N2_4 C19_4 1_555 1_555
C11_4 C14_4 1_555 1_555
C12_4 C13_4 1_555 1_555
C13_4 H6_4 1_555 1_555
C14_4 C13_4 1_555 1_555
C15_4 C16_4 1_555 1_555
C16_4 C12_4 1_555 1_555
C17_4 C14_4 1_555 1_555
H8_4 C17_4 1_555 1_555
O7_4 C11_4 1_555 1_555
O8_4 C11_4 1_555 1_555
C18_4 C12_4 1_555 1_555
O14_2 C18_4 1_555 1_555
Cu8_2 O8_4 1_555 1_555
Cu7_2 O7_4 1_555 1_555
C15_4 C17_4 1_555 1_555
C1_5 C4_5 1_555 1_555
C2_5 C3_5 1_555 1_555
C3_5 H1_5 1_555 1_555
C4_5 C3_5 1_555 1_555
C5_5 C6_5 1_555 1_555
C6_5 C2_5 1_555 1_555
C7_5 C4_5 1_555 1_555
H3_5 C7_5 1_555 1_555
O11_3 C1_5 1_555 1_555
O13 C1_5 1_555 1_555
C8_5 C2_5 1_555 1_555
O3_5 C8_5 1_555 1_555
C5_5 C7_5 1_555 1_555
O6_5 Cu5_2 1_555 1_555
C9_5 N1_5 1_555 1_555
H4_5 C9_5 1_555 1_555
C10_5 N1_5 1_555 1_555
H5_5 C10_5 1_555 1_555
C11_5 C14_5 1_555 1_555
C12_5 C13_5 1_555 1_555
C13_5 H6_5 1_555 1_555
C14_5 C13_5 1_555 1_555
C15_5 C16_5 1_555 1_555
C16_5 C12_5 1_555 1_555
H7_5 C16_5 1_555 1_555
C17_5 C14_5 1_555 1_555
H8_5 C17_5 1_555 1_555
O7_5 C11_5 1_555 1_555
O8_5 C11_5 1_555 1_555
N2_5 C9_5 1_555 1_555
C18_5 C12_5 1_555 1_555
O9_3 C18_5 1_555 1_555
O16_4 C18_5 1_555 1_555
C19_5 C10_5 1_555 1_555
H9_5 C19_5 1_555 1_555
Cu4_2 O9_3 1_555 1_555
Cu7 O8_5 1_555 1_555
Cu8 O7_5 1_555 1_555
C15_5 C17_5 1_555 1_555
C15_5 N2_5 1_555 1_555
N2_5 C19_5 1_555 1_555
Cu4_2 O3_6 1_555 1_555
C1_6 C4_6 1_555 1_555
C2_6 C3_6 1_555 1_555
C3_6 H1_6 1_555 1_555
C4_6 C3_6 1_555 1_555
C5_6 C6_6 1_555 1_555
C6_6 C2_6 1_555 1_555
H2_6 C6_6 1_555 1_555
C7_6 C4_6 1_555 1_555
H3_6 C7_6 1_555 1_555
O11 C1_6 1_555 1_555
O13_3 C1_6 1_555 1_555
N1_6 C5_6 1_555 1_555
C8_6 C2_6 1_555 1_555
O3_6 C8_6 1_555 1_555
O15_4 C8_6 1_555 1_555
C9_6 N1_6 1_555 1_555
H4_6 C9_6 1_555 1_555
C10_6 N1_6 1_555 1_555
H5_6 C10_6 1_555 1_555
O6_6 Cu4_2 1_555 1_555
N2_6 C9_6 1_555 1_555
C19_6 C10_6 1_555 1_555
H9_6 C19_6 1_555 1_555
C5_6 C7_6 1_555 1_555
N2_6 C19_6 1_555 1_555
C11_6 C14_6 1_555 1_555
C12_6 C13_6 1_555 1_555
C13_6 H6_6 1_555 1_555
C14_6 C13_6 1_555 1_555
C15_6 C16_6 1_555 1_555
C16_6 C12_6 1_555 1_555
C17_6 C14_6 1_555 1_555
H8_6 C17_6 1_555 1_555
O7_6 C11_6 1_555 1_555
O8_6 C11_6 1_555 1_555
C18_6 C12_6 1_555 1_555
O14_3 C18_6 1_555 1_555
Cu8 O8_6 1_555 1_555
Cu7 O7_6 1_555 1_555
C15_6 C17_6 1_555 1_555
Cu4 O3_7 1_555 1_555
C1_7 C4_7 1_555 1_555
C2_7 C3_7 1_555 1_555
C3_7 H1_7 1_555 1_555
C4_7 C3_7 1_555 1_555
C5_7 C6_7 1_555 1_555
C6_7 C2_7 1_555 1_555
C7_7 C4_7 1_555 1_555
H3_7 C7_7 1_555 1_555
O11_4 C1_7 1_555 1_555
O13_2 C1_7 1_555 1_555
C8_7 C2_7 1_555 1_555
O3_7 C8_7 1_555 1_555
O6_7 Cu4 1_555 1_555
C5_7 C7_7 1_555 1_555
C9_7 N1_7 1_555 1_555
H4_7 C9_7 1_555 1_555
C10_7 N1_7 1_555 1_555
H5_7 C10_7 1_555 1_555
N2_7 C9_7 1_555 1_555
C19_7 C10_7 1_555 1_555
H9_7 C19_7 1_555 1_555
N2_7 C19_7 1_555 1_555
C11_7 C14_7 1_555 1_555
C12_7 C13_7 1_555 1_555
C13_7 H6_7 1_555 1_555
C14_7 C13_7 1_555 1_555
C15_7 C16_7 1_555 1_555
C16_7 C12_7 1_555 1_555
C17_7 C14_7 1_555 1_555
H8_7 C17_7 1_555 1_555
O7_7 C11_7 1_555 1_555
O8_7 C11_7 1_555 1_555
C18_7 C12_7 1_555 1_555
O9_4 C18_7 1_555 1_555
Cu5 O9_4 1_555 1_555
Cu7_2 O8_7 1_555 1_555
Cu8_2 O7_7 1_555 1_555
C15_7 C17_7 1_555 1_555
C1_8 C4_8 1_555 1_555
C2_8 C3_8 1_555 1_555
C3_8 H1_8 1_555 1_555
C4_8 C3_8 1_555 1_555
C5_8 C6_8 1_555 1_555
C6_8 C2_8 1_555 1_555
H2_8 C6_8 1_555 1_555
C7_8 C4_8 1_555 1_555
H3_8 C7_8 1_555 1_555
O11_2 C1_8 1_555 1_555
O13_4 C1_8 1_555 1_555
N1_8 C5_8 1_555 1_555
C8_8 C2_8 1_555 1_555
O3_8 C8_8 1_555 1_555
O15 C8_8 1_555 1_555
C9_8 N1_8 1_555 1_555
H4_8 C9_8 1_555 1_555
C10_8 N1_8 1_555 1_555
H5_8 C10_8 1_555 1_555
C11_8 C14_8 1_555 1_555
C12_8 C13_8 1_555 1_555
C13_8 H6_8 1_555 1_555
C14_8 C13_8 1_555 1_555
C15_8 C16_8 1_555 1_555
C16_8 C12_8 1_555 1_555
H7_8 C16_8 1_555 1_555
C17_8 C14_8 1_555 1_555
H8_8 C17_8 1_555 1_555
O7_8 C11_8 1_555 1_555
O8_8 C11_8 1_555 1_555
N2_8 C9_8 1_555 1_555
C18_8 C12_8 1_555 1_555
O14_4 C18_8 1_555 1_555
O16_3 C18_8 1_555 1_555
C19_8 C10_8 1_555 1_555
H9_8 C19_8 1_555 1_555
Cu8_2 O8_8 1_555 1_555
Cu7_2 O7_8 1_555 1_555
C5_8 C7_8 1_555 1_555
C15_8 C17_8 1_555 1_555
C15_8 N2_8 1_555 1_555
N2_8 C19_8 1_555 1_555
O6_8 Cu5 1_555 1_555
O5_5 Cu8_2 1_555 1_555
O5_6 Cu7 1_555 1_555
O5_7 Cu7_2 1_555 1_555
O5_8 Cu8 1_555 1_555

#END
