
###############################################################################
#
# This file contains modified crystal structure data generated from the
# MOF subset of the Cambridge Structural Database (CSD) v543 
# hosted by the Cambridge Crystallographic Data Centre (CCDC).
#
# This work is licensed under the Creative Commons
# Attribution-NonCommercial-ShareAlike 4.0 International License.
# To view a copy of this license, visit
# http://creativecommons.org/licenses/by-nc-sa/4.0/
# or send a letter to
# Creative Commons, PO Box 1866, Mountain View, CA 94042, USA.
#
# CIF created using the CSD Python API on 29 September 2022
# The structure has been converted into the P1 space group
# The structure has a 3D framework
# The original CSD entry WOYJEB is in the tetragonal crystal system
# The framework has been calculated to contain at least 10.0% void space
# The void calculation uses a probe of radius 1.32A, grid spacing 0.4
# The framework is charged, counterions have been retained in the structure
# H atom positions have been added when not included in the experimental data
# Generated hydrogen atom positions removed from atoms on special positions
#
###############################################################################

data_WOYJEB
_chemical_formula_moiety         '(C616 H552 N64 O300 Zn72 63+)n'
_symmetry_cell_setting           triclinic
_symmetry_space_group_name_H-M   'P 1'
_symmetry_Int_Tables_number      1
_space_group_name_Hall           'P 1'
loop_
_symmetry_equiv_pos_site_id
_symmetry_equiv_pos_as_xyz
1 x,y,z
_cell_length_a                   25.4440(14)
_cell_length_b                   25.4440(14)
_cell_length_c                   53.616(3)
_cell_angle_alpha                90
_cell_angle_beta                 90
_cell_angle_gamma                90
_cell_volume                     34710.8
loop_
_atom_site_label
_atom_site_type_symbol
_atom_site_fract_x
_atom_site_fract_y
_atom_site_fract_z
Zn1 Zn 0.28215(3) 0.7500 0.027474(14)
Zn3 Zn 0.22329(2) 0.44460(2) 0.126796(10)
O1 O 0.27730(14) 0.41182(12) 0.14975(6)
C1 C 0.3129(2) 0.4387(2) 0.16016(10)
O2 O 0.44400(14) 0.50263(14) 0.22583(6)
O3 O 0.32897(14) 0.48403(12) 0.15272(6)
C2 C 0.1891(2) 0.6767(2) 0.03065(11)
O4 O 0.16653(13) 0.69525(14) 0.01205(7)
N1 N 0.04220(15) 0.55683(17) 0.04645(9)
O5 O 0.25417(14) 0.54599(16) 0.09491(7)
O6 O 0.16546(17) 0.39097(17) 0.13121(9)
C3 C 0.20750(19) 0.5321(2) 0.09201(10)
O7 O 0.23206(15) 0.69538(16) 0.03973(8)
C4 C 0.3717(2) 0.44697(18) 0.19756(9)
H1 H 0.3785 0.4824 0.1930
N2 N 0.3401(2) 0.29140(15) 0.21826(8)
C5 C 0.3827(2) 0.37508(18) 0.22577(10)
H2 H 0.3977 0.3606 0.2405
C6 C 0.12510(18) 0.54398(18) 0.06778(9)
H3 H 0.1113 0.5132 0.0753
C7 C 0.11566(18) 0.61477(19) 0.03818(10)
H4 H 0.0952 0.6322 0.0259
C8 C 0.4302(2) 0.4603(2) 0.23359(10)
C9 C 0.3277(2) 0.36447(19) 0.18936(9)
H5 H 0.3058 0.3427 0.1793
C10 C 0.16665(19) 0.63151(19) 0.04368(10)
C11 C 0.3382(2) 0.41568(18) 0.18218(8)
O8 O 0.44673(18) 0.43919(16) 0.25394(9)
C12 C 0.19668(19) 0.60365(19) 0.06190(10)
H6 H 0.2313 0.6148 0.0659
C13 C 0.3491(3) 0.2500 0.20462(12)
H7 H 0.3603 0.2500 0.1877
C14 C 0.3491(2) 0.34525(18) 0.21111(10)
C15 C 0.17573(18) 0.5613(2) 0.07354(10)
C16 C 0.09582(17) 0.5721(2) 0.05113(10)
C17 C 0.3234(4) 0.2771(2) 0.24354(11)
H8 H 0.3146 0.3000 0.2569
C18 C 0.0302(3) 0.5077(3) 0.03989(18)
H9 H 0.0534 0.4796 0.0361
C19 C -0.0000 0.5835(3) 0.04957(16)
H10 H -0.0000 0.6198 0.0538
C20 C 0.3942(2) 0.42710(19) 0.21865(9)
O10 O 0.3338(2) 0.7500 0.05399(11)
O11 O 0.18501(13) 0.49495(17) 0.10366(7)
O12 O 0.27730(14) 0.08818(12) 0.14975(6)
C21 C 0.3129(2) 0.0613(2) 0.16016(10)
C22 C 0.3717(2) 0.05303(18) 0.19756(9)
H11 H 0.3785 0.0176 0.1930
N3 N 0.3401(2) 0.20860(15) 0.21826(8)
C23 C 0.3827(2) 0.12492(18) 0.22577(10)
H12 H 0.3977 0.1394 0.2405
C24 C 0.3277(2) 0.13553(19) 0.18936(9)
H13 H 0.3058 0.1573 0.1793
C25 C 0.3382(2) 0.08432(18) 0.18218(8)
C26 C 0.3491(2) 0.15475(18) 0.21111(10)
C27 C 0.3234(4) 0.2229(2) 0.24354(11)
H14 H 0.3146 0.2000 0.2569
C28 C 0.3942(2) 0.07290(19) 0.21865(9)
C29 C 0.4302(2) 0.0397(2) 0.23359(10)
O14 O 0.32897(14) 0.01597(12) 0.15272(6)
O15 O 0.44673(18) 0.06081(16) 0.25394(9)
Zn4 Zn 0.30540(2) 0.52671(2) 0.123204(10)
O20 O 0.35903(17) 0.58454(17) 0.11879(9)
Zn5 Zn 0.5000 0.03215(3) 0.277474(14)
Zn7 Zn 0.5000 0.46785(3) 0.277474(14)
Zn10 Zn 0.5000 0.55320(3) 0.239084(13)
Zn13 Zn 0.22329(2) 0.05540(2) 0.126796(10)
O21 O 0.33818(12) 0.47270(14) 0.10025(6)
O24 O 0.26597(12) 0.42103(14) 0.09728(6)
O25 O 0.16653(13) 0.80475(14) 0.01205(7)
O26 O 0.20401(16) 0.49583(14) 0.15509(7)
O27 O 0.23206(15) 0.80462(16) 0.03973(8)
O28 O 0.31081(16) 0.69673(18) 0.00394(9)
O29 O 0.31081(16) 0.80327(18) 0.00394(9)
O30 O 0.25505(17) 0.56499(13) 0.14634(7)
Zn2 Zn 0.19680(3) 0.7500 0.989084(13)
O9 O 0.1428(2) 0.7500 0.96222(12)
O22 O 0.24737(14) 0.69400(14) 0.97583(6)
O23 O 0.24737(14) 0.80600(14) 0.97583(6)
O13 O 0.44400(14) 0.99737(14) 0.22583(6)
Zn8 Zn 0.5000 0.94680(3) 0.239084(13)
Zn11 Zn 0.30540(2) 0.97329(2) 0.123204(10)
C19_2 C 1.0000 0.5835(3) 0.04957(16)
H10_2 H 1.0000 0.6198 0.0538
C30 C 0.8109(2) 0.6767(2) 0.03065(11)
O16 O 0.83347(13) 0.69525(14) 0.01205(7)
N4 N 0.95780(15) 0.55683(17) 0.04645(9)
C31 C 0.79250(19) 0.5321(2) 0.09201(10)
O17 O 0.76794(15) 0.69538(16) 0.03973(8)
C32 C 0.87490(18) 0.54398(18) 0.06778(9)
H15 H 0.8887 0.5132 0.0753
C33 C 0.88434(18) 0.61477(19) 0.03818(10)
H16 H 0.9048 0.6322 0.0259
C34 C 0.83335(19) 0.63151(19) 0.04368(10)
C35 C 0.80332(19) 0.60365(19) 0.06190(10)
H17 H 0.7687 0.6148 0.0659
C36 C 0.82427(18) 0.5613(2) 0.07354(10)
C37 C 0.90418(17) 0.5721(2) 0.05113(10)
C38 C 0.9698(3) 0.5077(3) 0.03989(18)
H18 H 0.9466 0.4796 0.0361
O18 O 0.81499(13) 0.49495(17) 0.10366(7)
O19 O 0.74583(14) 0.54599(16) 0.09491(7)
Zn6 Zn 0.71785(3) 0.7500 0.027474(14)
Zn12 Zn 0.77671(2) 0.44460(2) 0.126796(10)
Zn14 Zn 0.69460(2) 0.52671(2) 0.123204(10)
Zn9 Zn 0.80320(3) 0.7500 0.989084(13)
C13_2 C -0.0000 0.0991(3) 0.45462(12)
H7_2 H -0.0000 0.1103 0.4377
O12_2 O 0.16182(12) 0.02730(14) 0.39975(6)
C21_2 C 0.1887(2) 0.0629(2) 0.41016(10)
C22_2 C 0.19697(18) 0.1217(2) 0.44756(9)
H11_2 H 0.2324 0.1285 0.4430
N3_2 N 0.04140(15) 0.0901(2) 0.46826(8)
C23_2 C 0.12508(18) 0.1327(2) 0.47577(10)
H12_2 H 0.1106 0.1477 0.4905
C24_2 C 0.11447(19) 0.0777(2) 0.43936(9)
H13_2 H 0.0927 0.0558 0.4293
C25_2 C 0.16568(18) 0.0882(2) 0.43218(8)
C26_2 C 0.09525(18) 0.0991(2) 0.46111(10)
C27_2 C 0.0271(2) 0.0734(4) 0.49354(11)
H14_2 H 0.0500 0.0646 0.5069
C28_2 C 0.17710(19) 0.1442(2) 0.46865(9)
O13_2 O 0.25263(14) 0.19400(14) 0.47583(6)
C29_2 C 0.2103(2) 0.1802(2) 0.48359(10)
O14_2 O 0.23403(12) 0.07897(14) 0.40272(6)
O15_2 O 0.18919(16) 0.19673(18) 0.50394(9)
Zn5_2 Zn 0.21785(3) 0.2500 0.527474(14)
Zn8_2 Zn 0.30320(3) 0.2500 0.489084(13)
Zn11_2 Zn 0.27671(2) 0.05540(2) 0.373204(10)
Zn13_2 Zn 0.19460(2) 0.97329(2) 0.376796(10)
O1_2 O 0.83818(12) 0.02730(14) 0.39975(6)
C1_2 C 0.8113(2) 0.0629(2) 0.41016(10)
O2_2 O 0.74737(14) 0.19400(14) 0.47583(6)
O3_2 O 0.76597(12) 0.07897(14) 0.40272(6)
O5_2 O 0.70401(16) 0.00417(14) 0.34491(7)
C4_2 C 0.80303(18) 0.1217(2) 0.44756(9)
H1_2 H 0.7676 0.1285 0.4430
N2_2 N 0.95860(15) 0.0901(2) 0.46826(8)
C5_2 C 0.87492(18) 0.1327(2) 0.47577(10)
H2_2 H 0.8894 0.1477 0.4905
C8_2 C 0.7897(2) 0.1802(2) 0.48359(10)
C9_2 C 0.88553(19) 0.0777(2) 0.43936(9)
H5_2 H 0.9073 0.0558 0.4293
C11_2 C 0.83432(18) 0.0882(2) 0.43218(8)
O8_2 O 0.81081(16) 0.19673(18) 0.50394(9)
C13_3 C 1.0000 0.0991(3) 0.45462(12)
H7_3 H 1.0000 0.1103 0.4377
C14_2 C 0.90475(18) 0.0991(2) 0.46111(10)
C17_2 C 0.9729(2) 0.0734(4) 0.49354(11)
H8_2 H 0.9500 0.0646 0.5069
C20_2 C 0.82290(19) 0.1442(2) 0.46865(9)
O10_2 O 0.5000 0.0838(2) 0.30399(11)
Zn4_2 Zn 0.72329(2) 0.05540(2) 0.373204(10)
O20_2 O 0.66546(17) 0.10903(17) 0.36879(9)
Zn7_2 Zn 0.78215(3) 0.2500 0.527474(14)
Zn10_2 Zn 0.69680(3) 0.2500 0.489084(13)
O21_2 O 0.77730(14) 0.08818(12) 0.35025(6)
O24_2 O 0.82897(14) 0.01597(12) 0.34728(6)
O28_2 O 0.55327(18) 0.06081(16) 0.25394(9)
O30_2 O 0.68501(13) 0.00505(17) 0.39634(7)
Zn3_2 Zn 0.80540(2) 0.97329(2) 0.376796(10)
C2_2 C 0.5733(2) 0.9391(2) 0.28065(11)
O4_2 O 0.55475(14) 0.91653(13) 0.26205(7)
N1_2 N 0.69317(17) 0.79220(15) 0.29645(9)
O6_2 O 0.85903(17) 0.91546(17) 0.38121(9)
C3_2 C 0.7179(2) 0.95750(19) 0.34201(10)
O7_2 O 0.55462(16) 0.98206(15) 0.28973(8)
C6_2 C 0.70602(18) 0.87510(18) 0.31778(9)
H3_2 H 0.7368 0.8613 0.3253
C7_2 C 0.63523(19) 0.86566(18) 0.28818(10)
H4_2 H 0.6178 0.8452 0.2759
C10_2 C 0.61849(19) 0.91665(19) 0.29368(10)
C12_2 C 0.64635(19) 0.94668(19) 0.31190(10)
H6_2 H 0.6352 0.9813 0.3159
C15_2 C 0.6887(2) 0.92573(18) 0.32354(10)
C16_2 C 0.6779(2) 0.84582(17) 0.30113(10)
C18_2 C 0.7423(3) 0.7802(3) 0.28989(18)
H9_2 H 0.7704 0.8034 0.2861
C19_3 C 0.6665(3) 0.7500 0.29957(16)
H10_3 H 0.6302 0.7500 0.3038
O9_2 O 0.5000 0.8928(2) 0.21222(12)
O11_2 O 0.75505(17) 0.93501(13) 0.35366(7)
C30_2 C 0.5733(2) 0.5609(2) 0.28065(11)
O16_2 O 0.55475(14) 0.58347(13) 0.26205(7)
N4_2 N 0.69317(17) 0.70780(15) 0.29645(9)
C31_2 C 0.7179(2) 0.54250(19) 0.34201(10)
O17_2 O 0.55462(16) 0.51794(15) 0.28973(8)
C32_2 C 0.70602(18) 0.62490(18) 0.31778(9)
H15_2 H 0.7368 0.6387 0.3253
C33_2 C 0.63523(19) 0.63434(18) 0.28818(10)
H16_2 H 0.6178 0.6548 0.2759
C34_2 C 0.61849(19) 0.58335(19) 0.29368(10)
C35_2 C 0.64635(19) 0.55332(19) 0.31190(10)
H17_2 H 0.6352 0.5187 0.3159
C36_2 C 0.6887(2) 0.57427(18) 0.32354(10)
C37_2 C 0.6779(2) 0.65418(17) 0.30113(10)
C38_2 C 0.7423(3) 0.7198(3) 0.28989(18)
H18_2 H 0.7704 0.6966 0.2861
O18_2 O 0.75505(17) 0.56499(13) 0.35366(7)
O19_2 O 0.70401(16) 0.49583(14) 0.34491(7)
Zn12_2 Zn 0.80540(2) 0.52671(2) 0.376796(10)
Zn14_2 Zn 0.72329(2) 0.44460(2) 0.373204(10)
O22_2 O 0.55600(14) 0.99737(14) 0.22583(6)
O25_2 O 0.44525(14) 0.91653(13) 0.26205(7)
O26_2 O 0.75417(14) 0.95401(16) 0.40509(7)
O27_2 O 0.44538(16) 0.98206(15) 0.28973(8)
H18_3 H 0.0534 0.0204 0.0361
O18_3 O 0.18501(13) 0.00505(17) 0.10366(7)
C19_4 C -0.0000 0.9165(3) 0.04957(16)
H10_4 H 0.0000 0.8802 0.0538
C30_3 C 0.1891(2) 0.8233(2) 0.03065(11)
N4_3 N 0.04220(15) 0.94317(17) 0.04645(9)
C31_3 C 0.20750(19) 0.9679(2) 0.09201(10)
C32_3 C 0.12510(18) 0.95602(18) 0.06778(9)
H15_3 H 0.1113 0.9868 0.0753
C33_3 C 0.11566(18) 0.88523(19) 0.03818(10)
H16_3 H 0.0952 0.8678 0.0259
C34_3 C 0.16665(19) 0.86849(19) 0.04368(10)
C35_3 C 0.19668(19) 0.89635(19) 0.06190(10)
H17_3 H 0.2313 0.8852 0.0659
C36_3 C 0.17573(18) 0.9387(2) 0.07354(10)
C37_3 C 0.09582(17) 0.9279(2) 0.05113(10)
C38_3 C 0.0302(3) 0.9923(3) 0.03989(18)
O19_3 O 0.25417(14) 0.95401(16) 0.09491(7)
Zn3_3 Zn 0.77671(2) 0.05540(2) 0.126796(10)
O1_3 O 0.72270(14) 0.08818(12) 0.14975(6)
C1_3 C 0.6871(2) 0.0613(2) 0.16016(10)
O3_3 O 0.67103(14) 0.01597(12) 0.15272(6)
O6_3 O 0.83454(17) 0.10903(17) 0.13121(9)
C4_3 C 0.6283(2) 0.05303(18) 0.19756(9)
H1_3 H 0.6215 0.0176 0.1930
N2_3 N 0.6599(2) 0.20860(15) 0.21826(8)
C5_3 C 0.6173(2) 0.12492(18) 0.22577(10)
H2_3 H 0.6023 0.1394 0.2405
C8_3 C 0.5698(2) 0.0397(2) 0.23359(10)
C9_3 C 0.6723(2) 0.13553(19) 0.18936(9)
H5_3 H 0.6942 0.1573 0.1793
C11_3 C 0.6618(2) 0.08432(18) 0.18218(8)
C13_4 C 0.6509(3) 0.2500 0.20462(12)
H7_4 H 0.6397 0.2500 0.1877
C14_3 C 0.6509(2) 0.15475(18) 0.21111(10)
C17_3 C 0.6766(4) 0.2229(2) 0.24354(11)
H8_3 H 0.6854 0.2000 0.2569
H9_3 H 0.9466 0.0204 0.0361
C20_3 C 0.6058(2) 0.07290(19) 0.21865(9)
O11_3 O 0.81499(13) 0.00505(17) 0.10366(7)
O12_3 O 0.72270(14) 0.41182(12) 0.14975(6)
C21_3 C 0.6871(2) 0.4387(2) 0.16016(10)
C22_3 C 0.6283(2) 0.44697(18) 0.19756(9)
H11_3 H 0.6215 0.4824 0.1930
N3_3 N 0.6599(2) 0.29140(15) 0.21826(8)
C23_3 C 0.6173(2) 0.37508(18) 0.22577(10)
H12_3 H 0.6023 0.3606 0.2405
C24_3 C 0.6723(2) 0.36447(19) 0.18936(9)
H13_3 H 0.6942 0.3427 0.1793
C25_3 C 0.6618(2) 0.41568(18) 0.18218(8)
C26_3 C 0.6509(2) 0.34525(18) 0.21111(10)
C27_3 C 0.6766(4) 0.2771(2) 0.24354(11)
H14_3 H 0.6854 0.3000 0.2569
C28_3 C 0.6058(2) 0.42710(19) 0.21865(9)
O13_3 O 0.55600(14) 0.50263(14) 0.22583(6)
C29_3 C 0.5698(2) 0.4603(2) 0.23359(10)
O14_3 O 0.67103(14) 0.48403(12) 0.15272(6)
O15_3 O 0.55327(18) 0.43919(16) 0.25394(9)
O21_3 O 0.66182(12) 0.02730(14) 0.10025(6)
O24_3 O 0.73403(12) 0.07897(14) 0.09728(6)
O26_3 O 0.79599(16) 0.00417(14) 0.15509(7)
C2_3 C 0.8109(2) 0.8233(2) 0.03065(11)
O4_3 O 0.83347(13) 0.80475(14) 0.01205(7)
N1_3 N 0.95780(15) 0.94317(17) 0.04645(9)
O5_3 O 0.74583(14) 0.95401(16) 0.09491(7)
C3_3 C 0.79250(19) 0.9679(2) 0.09201(10)
O7_3 O 0.76794(15) 0.80462(16) 0.03973(8)
C6_3 C 0.87490(18) 0.95602(18) 0.06778(9)
H3_3 H 0.8887 0.9868 0.0753
C7_3 C 0.88434(18) 0.88523(19) 0.03818(10)
H4_3 H 0.9048 0.8678 0.0259
C10_3 C 0.83335(19) 0.86849(19) 0.04368(10)
C12_3 C 0.80332(19) 0.89635(19) 0.06190(10)
H6_3 H 0.7687 0.8852 0.0659
C15_3 C 0.82427(18) 0.9387(2) 0.07354(10)
C16_3 C 0.90418(17) 0.9279(2) 0.05113(10)
C18_3 C 0.9698(3) 0.9923(3) 0.03989(18)
C19_5 C 1.0000 0.9165(3) 0.04957(16)
H10_5 H 1.0000 0.8802 0.0538
O10_3 O 0.6662(2) 0.7500 0.05399(11)
Zn4_3 Zn 0.69460(2) 0.97329(2) 0.123204(10)
O20_3 O 0.64097(17) 0.91546(17) 0.11879(9)
O28_3 O 0.68919(16) 0.80327(18) 0.00394(9)
O29_2 O 0.68919(16) 0.69673(18) 0.00394(9)
O30_3 O 0.74495(17) 0.93501(13) 0.14634(7)
O9_3 O 0.8572(2) 0.7500 0.96222(12)
O22_3 O 0.75263(14) 0.80600(14) 0.97583(6)
O23_2 O 0.75263(14) 0.69400(14) 0.97583(6)
Zn2_2 Zn -0.0000 0.05320(3) 0.739084(13)
O9_4 O 0.0000 0.1072(2) 0.71222(12)
Zn6_2 Zn -0.0000 0.53215(3) 0.777474(14)
Zn9_2 Zn -0.0000 0.44680(3) 0.739084(13)
O23_3 O 0.05600(14) 0.00263(14) 0.72583(6)
O25_3 O 0.05475(14) 0.08347(13) 0.76205(7)
O27_3 O 0.05462(16) 0.01794(15) 0.78973(8)
H21 H 0.00970281 0.141861 0.719379
H22 H 0.025886 0.0972583 0.699188
Zn1_2 Zn -0.0000 0.96785(3) 0.777474(14)
O10_4 O -0.0000 0.9162(2) 0.80399(11)
O29_3 O 0.05327(18) 0.93919(16) 0.75394(9)
H24 H 0.0260911 0.888318 0.800166
Zn2_3 Zn 1.0000 0.05320(3) 0.739084(13)
Zn3_4 Zn 0.69460(2) 0.02671(2) 0.876796(10)
C2_4 C 0.9267(2) 0.0609(2) 0.78065(11)
O4_4 O 0.94525(14) 0.08347(13) 0.76205(7)
N1_4 N 0.80683(17) 0.20780(15) 0.79645(9)
O6_4 O 0.64097(17) 0.08454(17) 0.88121(9)
C3_4 C 0.7821(2) 0.04250(19) 0.84201(10)
O7_4 O 0.94538(16) 0.01794(15) 0.78973(8)
C6_4 C 0.79398(18) 0.12490(18) 0.81778(9)
H3_4 H 0.7632 0.1387 0.8253
C7_4 C 0.86477(19) 0.13434(18) 0.78818(10)
H4_4 H 0.8822 0.1548 0.7759
C10_4 C 0.88151(19) 0.08335(19) 0.79368(10)
C12_4 C 0.85365(19) 0.05332(19) 0.81190(10)
H6_4 H 0.8648 0.0187 0.8159
C15_4 C 0.8113(2) 0.07427(18) 0.82354(10)
C16_4 C 0.8221(2) 0.15418(17) 0.80113(10)
C18_4 C 0.7577(3) 0.2198(3) 0.78989(18)
H9_4 H 0.7296 0.1966 0.7861
C19_6 C 0.8335(3) 0.2500 0.79957(16)
H10_6 H 0.8698 0.2500 0.8038
O9_5 O 1.0000 0.1072(2) 0.71222(12)
O11_4 O 0.74495(17) 0.06499(13) 0.85366(7)
C30_4 C 0.9267(2) 0.4391(2) 0.78065(11)
O16_3 O 0.94525(14) 0.41653(13) 0.76205(7)
N4_4 N 0.80683(17) 0.29220(15) 0.79645(9)
C31_4 C 0.7821(2) 0.45750(19) 0.84201(10)
O17_3 O 0.94538(16) 0.48206(15) 0.78973(8)
C32_4 C 0.79398(18) 0.37510(18) 0.81778(9)
H15_4 H 0.7632 0.3613 0.8253
C33_4 C 0.86477(19) 0.36566(18) 0.78818(10)
H16_4 H 0.8822 0.3452 0.7759
C34_4 C 0.88151(19) 0.41665(19) 0.79368(10)
C35_4 C 0.85365(19) 0.44668(19) 0.81190(10)
H17_4 H 0.8648 0.4813 0.8159
C36_4 C 0.8113(2) 0.42573(18) 0.82354(10)
C37_4 C 0.8221(2) 0.34582(17) 0.80113(10)
C38_4 C 0.7577(3) 0.2802(3) 0.78989(18)
H18_4 H 0.7296 0.3034 0.7861
O18_4 O 0.74495(17) 0.43501(13) 0.85366(7)
O19_4 O 0.79599(16) 0.50417(14) 0.84491(7)
Zn6_3 Zn 1.0000 0.53215(3) 0.777474(14)
Zn9_3 Zn 1.0000 0.44680(3) 0.739084(13)
Zn12_3 Zn 0.69460(2) 0.47329(2) 0.876796(10)
Zn13_3 Zn 0.30540(2) 0.02671(2) 0.876796(10)
Zn14_3 Zn 0.77671(2) 0.55540(2) 0.873204(10)
O22_4 O 0.94400(14) 0.00263(14) 0.72583(6)
O26_4 O 0.74583(14) 0.04599(16) 0.90509(7)
H8_4 H 0.5500 0.9354 0.0069
H14_4 H 0.4500 0.9354 0.0069
Zn1_3 Zn 1.0000 0.96785(3) 0.777474(14)
O1_4 O 0.66182(12) 0.97270(14) 0.89975(6)
C1_4 C 0.6887(2) 0.9371(2) 0.91016(10)
O3_4 O 0.73403(12) 0.92103(14) 0.90272(6)
O5_4 O 0.79599(16) 0.99583(14) 0.84491(7)
C4_4 C 0.69697(18) 0.8783(2) 0.94756(9)
H1_4 H 0.7324 0.8715 0.9430
N2_4 N 0.54140(15) 0.9099(2) 0.96826(8)
C5_4 C 0.62508(18) 0.8673(2) 0.97577(10)
H2_4 H 0.6106 0.8523 0.9905
C8_4 C 0.7103(2) 0.8198(2) 0.98359(10)
C9_4 C 0.61447(19) 0.9223(2) 0.93936(9)
H5_4 H 0.5927 0.9442 0.9293
C11_4 C 0.66568(18) 0.9118(2) 0.93218(8)
C13_5 C 0.5000 0.9009(3) 0.95462(12)
H7_5 H 0.5000 0.8897 0.9377
C14_4 C 0.59525(18) 0.9009(2) 0.96111(10)
C17_4 C 0.5271(2) 0.9266(4) 0.99354(11)
C20_4 C 0.67710(19) 0.8558(2) 0.96865(9)
O10_5 O 1.0000 0.9162(2) 0.80399(11)
O12_4 O 0.33818(12) 0.97270(14) 0.89975(6)
C21_4 C 0.3113(2) 0.9371(2) 0.91016(10)
C22_4 C 0.30303(18) 0.8783(2) 0.94756(9)
H11_4 H 0.2676 0.8715 0.9430
N3_4 N 0.45860(15) 0.9099(2) 0.96826(8)
C23_4 C 0.37492(18) 0.8673(2) 0.97577(10)
H12_4 H 0.3894 0.8523 0.9905
C24_4 C 0.38553(19) 0.9223(2) 0.93936(9)
H13_4 H 0.4073 0.9442 0.9293
C25_4 C 0.33432(18) 0.9118(2) 0.93218(8)
C26_4 C 0.40475(18) 0.9009(2) 0.96111(10)
C27_4 C 0.4729(2) 0.9266(4) 0.99354(11)
C28_4 C 0.32290(19) 0.8558(2) 0.96865(9)
C29_4 C 0.2897(2) 0.8198(2) 0.98359(10)
O14_4 O 0.26597(12) 0.92103(14) 0.90272(6)
Zn4_4 Zn 0.77671(2) 0.94460(2) 0.873204(10)
O20_4 O 0.83454(17) 0.89097(17) 0.86879(9)
Zn11_3 Zn 0.22329(2) 0.94460(2) 0.873204(10)
O21_4 O 0.72270(14) 0.91182(12) 0.85025(6)
O24_4 O 0.67103(14) 0.98403(12) 0.84728(6)
O28_4 O 0.94673(18) 0.93919(16) 0.75394(9)
O30_4 O 0.81499(13) 0.99495(17) 0.89634(7)
H23 H 0.964486 0.900303 0.805423
O13_4 O 0.44400(14) 0.00263(14) 0.77417(6)
Zn8_3 Zn 0.5000 0.05320(3) 0.760916(13)
Zn2_4 Zn 0.19680(3) 0.2500 0.010916(13)
O9_6 O 0.1428(2) 0.2500 0.03778(12)
O22_5 O 0.24737(14) 0.30600(14) 0.02417(6)
O23_4 O 0.24737(14) 0.19400(14) 0.02417(6)
Zn1_4 Zn 0.28215(3) 0.2500 0.972526(14)
Zn3_5 Zn 0.22329(2) 0.55540(2) 0.873204(10)
O1_5 O 0.27730(14) 0.58818(12) 0.85025(6)
C1_5 C 0.3129(2) 0.5613(2) 0.83984(10)
O2_3 O 0.44400(14) 0.49737(14) 0.77417(6)
O3_5 O 0.32897(14) 0.51597(12) 0.84728(6)
C2_5 C 0.1891(2) 0.3233(2) 0.96935(11)
O4_5 O 0.16653(13) 0.30475(14) 0.98795(7)
N1_5 N 0.04220(15) 0.44317(17) 0.95355(9)
O5_5 O 0.25417(14) 0.45401(16) 0.90509(7)
O6_5 O 0.16546(17) 0.60903(17) 0.86879(9)
C3_5 C 0.20750(19) 0.4679(2) 0.90799(10)
O7_5 O 0.23206(15) 0.30462(16) 0.96027(8)
C4_5 C 0.3717(2) 0.55303(18) 0.80244(9)
H1_5 H 0.3785 0.5176 0.8070
N2_5 N 0.3401(2) 0.70860(15) 0.78174(8)
C5_5 C 0.3827(2) 0.62492(18) 0.77423(10)
H2_5 H 0.3977 0.6394 0.7595
C6_5 C 0.12510(18) 0.45602(18) 0.93222(9)
H3_5 H 0.1113 0.4868 0.9247
C7_5 C 0.11566(18) 0.38523(19) 0.96182(10)
H4_5 H 0.0952 0.3678 0.9741
C8_5 C 0.4302(2) 0.5397(2) 0.76641(10)
C9_5 C 0.3277(2) 0.63553(19) 0.81064(9)
H5_5 H 0.3058 0.6573 0.8207
C10_5 C 0.16665(19) 0.36849(19) 0.95632(10)
C11_5 C 0.3382(2) 0.58432(18) 0.81782(8)
O8_3 O 0.44673(18) 0.56081(16) 0.74606(9)
C12_5 C 0.19668(19) 0.39635(19) 0.93810(10)
H6_5 H 0.2313 0.3852 0.9341
C13_6 C 0.3491(3) 0.7500 0.79538(12)
H7_6 H 0.3603 0.7500 0.8123
C14_5 C 0.3491(2) 0.65475(18) 0.78889(10)
C15_5 C 0.17573(18) 0.4387(2) 0.92646(10)
C16_5 C 0.09582(17) 0.4279(2) 0.94887(10)
C17_5 C 0.3234(4) 0.7229(2) 0.75646(11)
H8_5 H 0.3146 0.7000 0.7431
C18_5 C 0.0302(3) 0.4923(3) 0.96011(18)
H9_5 H 0.0534 0.5204 0.9639
C19_7 C -0.0000 0.4165(3) 0.95043(16)
H10_7 H -0.0000 0.3802 0.9462
C20_5 C 0.3942(2) 0.57290(19) 0.78135(9)
O10_6 O 0.3338(2) 0.2500 0.94601(11)
O11_5 O 0.18501(13) 0.50505(17) 0.89634(7)
O12_5 O 0.27730(14) 0.91182(12) 0.85025(6)
C21_5 C 0.3129(2) 0.9387(2) 0.83984(10)
C22_5 C 0.3717(2) 0.94697(18) 0.80244(9)
H11_5 H 0.3785 0.9824 0.8070
N3_5 N 0.3401(2) 0.79140(15) 0.78174(8)
C23_5 C 0.3827(2) 0.87508(18) 0.77423(10)
H12_5 H 0.3977 0.8606 0.7595
C24_5 C 0.3277(2) 0.86447(19) 0.81064(9)
H13_5 H 0.3058 0.8427 0.8207
C25_5 C 0.3382(2) 0.91568(18) 0.81782(8)
C26_5 C 0.3491(2) 0.84525(18) 0.78889(10)
C27_5 C 0.3234(4) 0.7771(2) 0.75646(11)
H14_5 H 0.3146 0.8000 0.7431
C28_5 C 0.3942(2) 0.92710(19) 0.78135(9)
C29_5 C 0.4302(2) 0.9603(2) 0.76641(10)
O14_5 O 0.32897(14) 0.98403(12) 0.84728(6)
O15_4 O 0.44673(18) 0.93919(16) 0.74606(9)
Zn4_5 Zn 0.30540(2) 0.47329(2) 0.876796(10)
O20_5 O 0.35903(17) 0.41546(17) 0.88121(9)
Zn5_3 Zn 0.5000 0.96785(3) 0.722526(14)
Zn7_3 Zn 0.5000 0.53215(3) 0.722526(14)
Zn10_3 Zn 0.5000 0.44680(3) 0.760916(13)
O21_5 O 0.33818(12) 0.52730(14) 0.89975(6)
O24_5 O 0.26597(12) 0.57897(14) 0.90272(6)
O25_4 O 0.16653(13) 0.19525(14) 0.98795(7)
O26_5 O 0.20401(16) 0.50417(14) 0.84491(7)
O27_4 O 0.23206(15) 0.19538(16) 0.96027(8)
O28_5 O 0.31081(16) 0.30327(18) 0.99606(9)
O29_4 O 0.31081(16) 0.19673(18) 0.99606(9)
O30_5 O 0.25505(17) 0.43501(13) 0.85366(7)
Zn9_4 Zn 0.80320(3) 0.2500 0.010916(13)
C19_8 C 1.0000 0.4165(3) 0.95043(16)
H10_8 H 1.0000 0.3802 0.9462
C30_5 C 0.8109(2) 0.3233(2) 0.96935(11)
O16_4 O 0.83347(13) 0.30475(14) 0.98795(7)
N4_5 N 0.95780(15) 0.44317(17) 0.95355(9)
C31_5 C 0.79250(19) 0.4679(2) 0.90799(10)
O17_4 O 0.76794(15) 0.30462(16) 0.96027(8)
C32_5 C 0.87490(18) 0.45602(18) 0.93222(9)
H15_5 H 0.8887 0.4868 0.9247
C33_5 C 0.88434(18) 0.38523(19) 0.96182(10)
H16_5 H 0.9048 0.3678 0.9741
C34_5 C 0.83335(19) 0.36849(19) 0.95632(10)
C35_5 C 0.80332(19) 0.39635(19) 0.93810(10)
H17_5 H 0.7687 0.3852 0.9341
C36_5 C 0.82427(18) 0.4387(2) 0.92646(10)
C37_5 C 0.90418(17) 0.4279(2) 0.94887(10)
C38_5 C 0.9698(3) 0.4923(3) 0.96011(18)
H18_5 H 0.9466 0.5204 0.9639
O18_5 O 0.81499(13) 0.50505(17) 0.89634(7)
O19_5 O 0.74583(14) 0.45401(16) 0.90509(7)
Zn6_4 Zn 0.71785(3) 0.2500 0.972526(14)
C19_9 C -0.0000 0.0835(3) 0.95043(16)
H10_9 H -0.0000 0.1198 0.9462
C30_6 C 0.1891(2) 0.1767(2) 0.96935(11)
N4_6 N 0.04220(15) 0.05683(17) 0.95355(9)
C31_6 C 0.20750(19) 0.0321(2) 0.90799(10)
C32_6 C 0.12510(18) 0.04398(18) 0.93222(9)
H15_6 H 0.1113 0.0132 0.9247
C33_6 C 0.11566(18) 0.11477(19) 0.96182(10)
H16_6 H 0.0952 0.1322 0.9741
C34_6 C 0.16665(19) 0.13151(19) 0.95632(10)
C35_6 C 0.19668(19) 0.10365(19) 0.93810(10)
H17_6 H 0.2313 0.1148 0.9341
C36_6 C 0.17573(18) 0.0613(2) 0.92646(10)
C37_6 C 0.09582(17) 0.0721(2) 0.94887(10)
C38_6 C 0.0302(3) 0.0077(3) 0.96011(18)
O19_6 O 0.25417(14) 0.04599(16) 0.90509(7)
H18_6 H 0.0534 0.9796 0.9639
O18_6 O 0.18501(13) 0.99495(17) 0.89634(7)
O9_7 O 0.8572(2) 0.2500 0.03778(12)
O22_6 O 0.75263(14) 0.19400(14) 0.02417(6)
O23_5 O 0.75263(14) 0.30600(14) 0.02417(6)
O2_4 O 0.55600(14) 0.00263(14) 0.77417(6)
C2_6 C 0.8109(2) 0.1767(2) 0.96935(11)
O4_6 O 0.83347(13) 0.19525(14) 0.98795(7)
N1_6 N 0.95780(15) 0.05683(17) 0.95355(9)
C3_6 C 0.79250(19) 0.0321(2) 0.90799(10)
O7_6 O 0.76794(15) 0.19538(16) 0.96027(8)
C6_6 C 0.87490(18) 0.04398(18) 0.93222(9)
H3_6 H 0.8887 0.0132 0.9247
C7_6 C 0.88434(18) 0.11477(19) 0.96182(10)
H4_6 H 0.9048 0.1322 0.9741
C10_6 C 0.83335(19) 0.13151(19) 0.95632(10)
C12_6 C 0.80332(19) 0.10365(19) 0.93810(10)
H6_6 H 0.7687 0.1148 0.9341
C15_6 C 0.82427(18) 0.0613(2) 0.92646(10)
C16_6 C 0.90418(17) 0.0721(2) 0.94887(10)
C18_6 C 0.9698(3) 0.0077(3) 0.96011(18)
C19_10 C 1.0000 0.0835(3) 0.95043(16)
H10_10 H 1.0000 0.1198 0.9462
O10_7 O 0.6662(2) 0.2500 0.94601(11)
O28_6 O 0.68919(16) 0.19673(18) 0.99606(9)
O29_5 O 0.68919(16) 0.30327(18) 0.99606(9)
C1_6 C 0.6871(2) 0.9387(2) 0.83984(10)
C4_6 C 0.6283(2) 0.94697(18) 0.80244(9)
H1_6 H 0.6215 0.9824 0.8070
N2_6 N 0.6599(2) 0.79140(15) 0.78174(8)
C5_6 C 0.6173(2) 0.87508(18) 0.77423(10)
H2_6 H 0.6023 0.8606 0.7595
C8_6 C 0.5698(2) 0.9603(2) 0.76641(10)
C9_6 C 0.6723(2) 0.86447(19) 0.81064(9)
H5_6 H 0.6942 0.8427 0.8207
C11_6 C 0.6618(2) 0.91568(18) 0.81782(8)
O8_4 O 0.55327(18) 0.93919(16) 0.74606(9)
C13_7 C 0.6509(3) 0.7500 0.79538(12)
H7_7 H 0.6397 0.7500 0.8123
C14_6 C 0.6509(2) 0.84525(18) 0.78889(10)
C17_6 C 0.6766(4) 0.7771(2) 0.75646(11)
H8_6 H 0.6854 0.8000 0.7431
H9_6 H 0.9466 0.9796 0.9639
C20_6 C 0.6058(2) 0.92710(19) 0.78135(9)
O12_6 O 0.72270(14) 0.58818(12) 0.85025(6)
C21_6 C 0.6871(2) 0.5613(2) 0.83984(10)
C22_6 C 0.6283(2) 0.55303(18) 0.80244(9)
H11_6 H 0.6215 0.5176 0.8070
N3_6 N 0.6599(2) 0.70860(15) 0.78174(8)
C23_6 C 0.6173(2) 0.62492(18) 0.77423(10)
H12_6 H 0.6023 0.6394 0.7595
C24_6 C 0.6723(2) 0.63553(19) 0.81064(9)
H13_6 H 0.6942 0.6573 0.8207
C25_6 C 0.6618(2) 0.58432(18) 0.81782(8)
C26_6 C 0.6509(2) 0.65475(18) 0.78889(10)
C27_6 C 0.6766(4) 0.7229(2) 0.75646(11)
H14_6 H 0.6854 0.7000 0.7431
C28_6 C 0.6058(2) 0.57290(19) 0.78135(9)
O13_5 O 0.55600(14) 0.49737(14) 0.77417(6)
C29_6 C 0.5698(2) 0.5397(2) 0.76641(10)
O14_6 O 0.67103(14) 0.51597(12) 0.84728(6)
O15_5 O 0.55327(18) 0.56081(16) 0.74606(9)
Zn1_5 Zn -0.0000 0.03215(3) 0.222526(14)
O10_8 O -0.0000 0.0838(2) 0.19601(11)
O29_6 O 0.05327(18) 0.06081(16) 0.24606(9)
H24_2 H 0.0260911 0.111682 0.199834
Zn2_5 Zn -0.0000 0.94680(3) 0.260916(13)
O9_8 O 0.0000 0.8928(2) 0.28778(12)
Zn6_5 Zn -0.0000 0.46785(3) 0.222526(14)
Zn9_5 Zn -0.0000 0.55320(3) 0.260916(13)
O23_6 O 0.05600(14) 0.99737(14) 0.27417(6)
O25_5 O 0.05475(14) 0.91653(13) 0.23795(7)
O27_5 O 0.05462(16) 0.98206(15) 0.21027(8)
H21_2 H 0.00970281 0.858139 0.280621
H22_2 H 0.025886 0.902742 0.300812
Zn1_6 Zn 1.0000 0.03215(3) 0.222526(14)
C1_7 C 0.6887(2) 0.0629(2) 0.08984(10)
C4_7 C 0.69697(18) 0.1217(2) 0.05244(9)
H1_7 H 0.7324 0.1285 0.0570
N2_7 N 0.54140(15) 0.0901(2) 0.03174(8)
C5_7 C 0.62508(18) 0.1327(2) 0.02423(10)
H2_7 H 0.6106 0.1477 0.0095
C8_7 C 0.7103(2) 0.1802(2) 0.01641(10)
C9_7 C 0.61447(19) 0.0777(2) 0.06064(9)
H5_7 H 0.5927 0.0558 0.0707
C11_7 C 0.66568(18) 0.0882(2) 0.06782(8)
C13_8 C 0.5000 0.0991(3) 0.04538(12)
H7_8 H 0.5000 0.1103 0.0623
C14_7 C 0.59525(18) 0.0991(2) 0.03889(10)
C17_7 C 0.5271(2) 0.0734(4) 0.00646(11)
C20_7 C 0.67710(19) 0.1442(2) 0.03135(9)
O10_9 O 1.0000 0.0838(2) 0.19601(11)
O12_7 O 0.33818(12) 0.02730(14) 0.10025(6)
C21_7 C 0.3113(2) 0.0629(2) 0.08984(10)
C22_7 C 0.30303(18) 0.1217(2) 0.05244(9)
H11_7 H 0.2676 0.1285 0.0570
N3_7 N 0.45860(15) 0.0901(2) 0.03174(8)
C23_7 C 0.37492(18) 0.1327(2) 0.02423(10)
H12_7 H 0.3894 0.1477 0.0095
C24_7 C 0.38553(19) 0.0777(2) 0.06064(9)
H13_7 H 0.4073 0.0558 0.0707
C25_7 C 0.33432(18) 0.0882(2) 0.06782(8)
C26_7 C 0.40475(18) 0.0991(2) 0.03889(10)
C27_7 C 0.4729(2) 0.0734(4) 0.00646(11)
C28_7 C 0.32290(19) 0.1442(2) 0.03135(9)
C29_7 C 0.2897(2) 0.1802(2) 0.01641(10)
O14_7 O 0.26597(12) 0.07897(14) 0.09728(6)
O28_7 O 0.94673(18) 0.06081(16) 0.24606(9)
H23_2 H 0.964486 0.0996971 0.194577
H8_7 H 0.5500 0.0646 0.9931
H14_7 H 0.4500 0.0646 0.9931
Zn2_6 Zn 1.0000 0.94680(3) 0.260916(13)
C2_7 C 0.9267(2) 0.9391(2) 0.21935(11)
O4_7 O 0.94525(14) 0.91653(13) 0.23795(7)
N1_7 N 0.80683(17) 0.79220(15) 0.20355(9)
C3_7 C 0.7821(2) 0.95750(19) 0.15799(10)
O7_7 O 0.94538(16) 0.98206(15) 0.21027(8)
C6_7 C 0.79398(18) 0.87510(18) 0.18222(9)
H3_7 H 0.7632 0.8613 0.1747
C7_7 C 0.86477(19) 0.86566(18) 0.21182(10)
H4_7 H 0.8822 0.8452 0.2241
C10_7 C 0.88151(19) 0.91665(19) 0.20632(10)
C12_7 C 0.85365(19) 0.94668(19) 0.18810(10)
H6_7 H 0.8648 0.9813 0.1841
C15_7 C 0.8113(2) 0.92573(18) 0.17646(10)
C16_7 C 0.8221(2) 0.84582(17) 0.19887(10)
C18_7 C 0.7577(3) 0.7802(3) 0.21011(18)
H9_7 H 0.7296 0.8034 0.2139
C19_11 C 0.8335(3) 0.7500 0.20043(16)
H10_11 H 0.8698 0.7500 0.1962
O9_9 O 1.0000 0.8928(2) 0.28778(12)
C30_7 C 0.9267(2) 0.5609(2) 0.21935(11)
O16_5 O 0.94525(14) 0.58347(13) 0.23795(7)
N4_7 N 0.80683(17) 0.70780(15) 0.20355(9)
C31_7 C 0.7821(2) 0.54250(19) 0.15799(10)
O17_5 O 0.94538(16) 0.51794(15) 0.21027(8)
C32_7 C 0.79398(18) 0.62490(18) 0.18222(9)
H15_7 H 0.7632 0.6387 0.1747
C33_7 C 0.86477(19) 0.63434(18) 0.21182(10)
H16_7 H 0.8822 0.6548 0.2241
C34_7 C 0.88151(19) 0.58335(19) 0.20632(10)
C35_7 C 0.85365(19) 0.55332(19) 0.18810(10)
H17_7 H 0.8648 0.5187 0.1841
C36_7 C 0.8113(2) 0.57427(18) 0.17646(10)
C37_7 C 0.8221(2) 0.65418(17) 0.19887(10)
C38_7 C 0.7577(3) 0.7198(3) 0.21011(18)
H18_7 H 0.7296 0.6966 0.2139
O18_7 O 0.74495(17) 0.56499(13) 0.14634(7)
O19_7 O 0.79599(16) 0.49583(14) 0.15509(7)
Zn6_6 Zn 1.0000 0.46785(3) 0.222526(14)
Zn9_6 Zn 1.0000 0.55320(3) 0.260916(13)
O22_7 O 0.94400(14) 0.99737(14) 0.27417(6)
Zn13_4 Zn 0.19460(2) 0.02671(2) 0.623204(10)
C13_9 C -0.0000 0.9009(3) 0.54538(12)
H7_9 H -0.0000 0.8897 0.5623
O12_8 O 0.16182(12) 0.97270(14) 0.60025(6)
C21_8 C 0.1887(2) 0.9371(2) 0.58984(10)
C22_8 C 0.19697(18) 0.8783(2) 0.55244(9)
H11_8 H 0.2324 0.8715 0.5570
N3_8 N 0.04140(15) 0.9099(2) 0.53174(8)
C23_8 C 0.12508(18) 0.8673(2) 0.52423(10)
H12_8 H 0.1106 0.8523 0.5095
C24_8 C 0.11447(19) 0.9223(2) 0.56064(9)
H13_8 H 0.0927 0.9442 0.5707
C25_8 C 0.16568(18) 0.9118(2) 0.56782(8)
C26_8 C 0.09525(18) 0.9009(2) 0.53889(10)
C27_8 C 0.0271(2) 0.9266(4) 0.50646(11)
H14_8 H 0.0500 0.9354 0.4931
C28_8 C 0.17710(19) 0.8558(2) 0.53135(9)
O13_6 O 0.25263(14) 0.80600(14) 0.52417(6)
C29_8 C 0.2103(2) 0.8198(2) 0.51641(10)
O14_8 O 0.23403(12) 0.92103(14) 0.59728(6)
O15_6 O 0.18919(16) 0.80327(18) 0.49606(9)
Zn5_4 Zn 0.21785(3) 0.7500 0.472526(14)
Zn8_4 Zn 0.30320(3) 0.7500 0.510916(13)
Zn11_4 Zn 0.27671(2) 0.94460(2) 0.626796(10)
Zn3_6 Zn 0.80540(2) 0.02671(2) 0.623204(10)
C2_8 C 0.5733(2) 0.0609(2) 0.71935(11)
O4_8 O 0.55475(14) 0.08347(13) 0.73795(7)
N1_8 N 0.69317(17) 0.20780(15) 0.70355(9)
O6_6 O 0.85903(17) 0.08454(17) 0.61879(9)
C3_8 C 0.7179(2) 0.04250(19) 0.65799(10)
O7_8 O 0.55462(16) 0.01794(15) 0.71027(8)
C6_8 C 0.70602(18) 0.12490(18) 0.68222(9)
H3_8 H 0.7368 0.1387 0.6747
C7_8 C 0.63523(19) 0.13434(18) 0.71182(10)
H4_8 H 0.6178 0.1548 0.7241
C10_8 C 0.61849(19) 0.08335(19) 0.70632(10)
C12_8 C 0.64635(19) 0.05332(19) 0.68810(10)
H6_8 H 0.6352 0.0187 0.6841
C15_8 C 0.6887(2) 0.07427(18) 0.67646(10)
C16_8 C 0.6779(2) 0.15418(17) 0.69887(10)
C18_8 C 0.7423(3) 0.2198(3) 0.71011(18)
H9_8 H 0.7704 0.1966 0.7139
C19_12 C 0.6665(3) 0.2500 0.70043(16)
H10_12 H 0.6302 0.2500 0.6962
O9_10 O 0.5000 0.1072(2) 0.78778(12)
O11_6 O 0.75505(17) 0.06499(13) 0.64634(7)
C30_8 C 0.5733(2) 0.4391(2) 0.71935(11)
O16_6 O 0.55475(14) 0.41653(13) 0.73795(7)
N4_8 N 0.69317(17) 0.29220(15) 0.70355(9)
C31_8 C 0.7179(2) 0.45750(19) 0.65799(10)
O17_6 O 0.55462(16) 0.48206(15) 0.71027(8)
C32_8 C 0.70602(18) 0.37510(18) 0.68222(9)
H15_8 H 0.7368 0.3613 0.6747
C33_8 C 0.63523(19) 0.36566(18) 0.71182(10)
H16_8 H 0.6178 0.3452 0.7241
C34_8 C 0.61849(19) 0.41665(19) 0.70632(10)
C35_8 C 0.64635(19) 0.44668(19) 0.68810(10)
H17_8 H 0.6352 0.4813 0.6841
C36_8 C 0.6887(2) 0.42573(18) 0.67646(10)
C37_8 C 0.6779(2) 0.34582(17) 0.69887(10)
C38_8 C 0.7423(3) 0.2802(3) 0.71011(18)
H18_8 H 0.7704 0.3034 0.7139
O18_8 O 0.75505(17) 0.43501(13) 0.64634(7)
O19_8 O 0.70401(16) 0.50417(14) 0.65509(7)
Zn12_4 Zn 0.80540(2) 0.47329(2) 0.623204(10)
Zn14_4 Zn 0.72329(2) 0.55540(2) 0.626796(10)
O25_6 O 0.44525(14) 0.08347(13) 0.73795(7)
O26_6 O 0.75417(14) 0.04599(16) 0.59491(7)
O27_6 O 0.44538(16) 0.01794(15) 0.71027(8)
O1_6 O 0.83818(12) 0.97270(14) 0.60025(6)
C1_8 C 0.8113(2) 0.9371(2) 0.58984(10)
O2_5 O 0.74737(14) 0.80600(14) 0.52417(6)
O3_6 O 0.76597(12) 0.92103(14) 0.59728(6)
O5_6 O 0.70401(16) 0.99583(14) 0.65509(7)
C4_8 C 0.80303(18) 0.8783(2) 0.55244(9)
H1_8 H 0.7676 0.8715 0.5570
N2_8 N 0.95860(15) 0.9099(2) 0.53174(8)
C5_8 C 0.87492(18) 0.8673(2) 0.52423(10)
H2_8 H 0.8894 0.8523 0.5095
C8_8 C 0.7897(2) 0.8198(2) 0.51641(10)
C9_8 C 0.88553(19) 0.9223(2) 0.56064(9)
H5_8 H 0.9073 0.9442 0.5707
C11_8 C 0.83432(18) 0.9118(2) 0.56782(8)
O8_5 O 0.81081(16) 0.80327(18) 0.49606(9)
C13_10 C 1.0000 0.9009(3) 0.54538(12)
H7_10 H 1.0000 0.8897 0.5623
C14_8 C 0.90475(18) 0.9009(2) 0.53889(10)
C17_8 C 0.9729(2) 0.9266(4) 0.50646(11)
H8_8 H 0.9500 0.9354 0.4931
C20_8 C 0.82290(19) 0.8558(2) 0.53135(9)
O10_10 O 0.5000 0.9162(2) 0.69601(11)
Zn4_6 Zn 0.72329(2) 0.94460(2) 0.626796(10)
O20_6 O 0.66546(17) 0.89097(17) 0.63121(9)
Zn7_4 Zn 0.78215(3) 0.7500 0.472526(14)
Zn10_4 Zn 0.69680(3) 0.7500 0.510916(13)
O21_6 O 0.77730(14) 0.91182(12) 0.64975(6)
O24_6 O 0.82897(14) 0.98403(12) 0.65272(6)
O30_6 O 0.68501(13) 0.99495(17) 0.60366(7)
C2_9 C 0.6891(2) 0.1767(2) 0.53065(11)
O4_9 O 0.66653(13) 0.19525(14) 0.51205(7)
N1_9 N 0.54220(15) 0.05683(17) 0.54645(9)
C3_9 C 0.70750(19) 0.0321(2) 0.59201(10)
O7_9 O 0.73206(15) 0.19538(16) 0.53973(8)
C6_9 C 0.62510(18) 0.04398(18) 0.56778(9)
H3_9 H 0.6113 0.0132 0.5753
C7_9 C 0.61566(18) 0.11477(19) 0.53818(10)
H4_9 H 0.5952 0.1322 0.5259
C10_9 C 0.66665(19) 0.13151(19) 0.54368(10)
C12_9 C 0.69668(19) 0.10365(19) 0.56190(10)
H6_9 H 0.7313 0.1148 0.5659
C15_9 C 0.67573(18) 0.0613(2) 0.57354(10)
C16_9 C 0.59582(17) 0.0721(2) 0.55113(10)
C18_9 C 0.5302(3) 0.0077(3) 0.53989(18)
C19_13 C 0.5000 0.0835(3) 0.54957(16)
H10_13 H 0.5000 0.1198 0.5538
O9_11 O 0.6428(2) 0.2500 0.46222(12)
O10_11 O 0.8338(2) 0.2500 0.55399(11)
C30_9 C 0.3109(2) 0.1767(2) 0.53065(11)
O16_7 O 0.33347(13) 0.19525(14) 0.51205(7)
N4_9 N 0.45780(15) 0.05683(17) 0.54645(9)
C31_9 C 0.29250(19) 0.0321(2) 0.59201(10)
O17_7 O 0.26794(15) 0.19538(16) 0.53973(8)
C32_9 C 0.37490(18) 0.04398(18) 0.56778(9)
H15_9 H 0.3887 0.0132 0.5753
C33_9 C 0.38434(18) 0.11477(19) 0.53818(10)
H16_9 H 0.4048 0.1322 0.5259
C34_9 C 0.33335(19) 0.13151(19) 0.54368(10)
C35_9 C 0.30332(19) 0.10365(19) 0.56190(10)
H17_9 H 0.2687 0.1148 0.5659
C36_9 C 0.32427(18) 0.0613(2) 0.57354(10)
C37_9 C 0.40418(17) 0.0721(2) 0.55113(10)
C38_9 C 0.4698(3) 0.0077(3) 0.53989(18)
O19_9 O 0.24583(14) 0.04599(16) 0.59491(7)
O23_7 O 0.74737(14) 0.30600(14) 0.47583(6)
O25_7 O 0.66653(13) 0.30475(14) 0.51205(7)
O27_7 O 0.73206(15) 0.30462(16) 0.53973(8)
O29_7 O 0.81081(16) 0.30327(18) 0.50394(9)
C1_9 C 0.8129(2) 0.9387(2) 0.66016(10)
C4_9 C 0.8717(2) 0.94697(18) 0.69756(9)
H1_9 H 0.8785 0.9824 0.6930
N2_9 N 0.8401(2) 0.79140(15) 0.71826(8)
C5_9 C 0.8827(2) 0.87508(18) 0.72577(10)
H2_9 H 0.8977 0.8606 0.7405
C8_9 C 0.9302(2) 0.9603(2) 0.73359(10)
C9_9 C 0.8277(2) 0.86447(19) 0.68936(9)
H5_9 H 0.8058 0.8427 0.6793
C11_9 C 0.8382(2) 0.91568(18) 0.68218(8)
C13_11 C 0.8491(3) 0.7500 0.70462(12)
H7_11 H 0.8603 0.7500 0.6877
C14_9 C 0.8491(2) 0.84525(18) 0.71111(10)
C17_9 C 0.8234(4) 0.7771(2) 0.74354(11)
H8_9 H 0.8146 0.8000 0.7569
H9_9 H 0.5534 0.9796 0.5361
C20_9 C 0.8942(2) 0.92710(19) 0.71865(9)
O12_9 O 0.77730(14) 0.58818(12) 0.64975(6)
C21_9 C 0.8129(2) 0.5613(2) 0.66016(10)
C22_9 C 0.8717(2) 0.55303(18) 0.69756(9)
H11_9 H 0.8785 0.5176 0.6930
N3_9 N 0.8401(2) 0.70860(15) 0.71826(8)
C23_9 C 0.8827(2) 0.62492(18) 0.72577(10)
H12_9 H 0.8977 0.6394 0.7405
C24_9 C 0.8277(2) 0.63553(19) 0.68936(9)
H13_9 H 0.8058 0.6573 0.6793
C25_9 C 0.8382(2) 0.58432(18) 0.68218(8)
C26_9 C 0.8491(2) 0.65475(18) 0.71111(10)
C27_9 C 0.8234(4) 0.7229(2) 0.74354(11)
H14_9 H 0.8146 0.7000 0.7569
C28_9 C 0.8942(2) 0.57290(19) 0.71865(9)
O13_7 O 0.94400(14) 0.49737(14) 0.72583(6)
C29_9 C 0.9302(2) 0.5397(2) 0.73359(10)
O14_9 O 0.82897(14) 0.51597(12) 0.65272(6)
O15_7 O 0.94673(18) 0.56081(16) 0.75394(9)
H18_9 H 0.4466 0.9796 0.5361
O18_9 O 0.31499(13) 0.99495(17) 0.60366(7)
H8_10 H 0.4500 0.5646 0.0069
H14_10 H 0.5500 0.5646 0.0069
C1_10 C 0.3113(2) 0.5629(2) 0.91016(10)
C2_10 C 0.0733(2) 0.4391(2) 0.78065(11)
O4_10 O 0.05475(14) 0.41653(13) 0.76205(7)
N1_10 N 0.19317(17) 0.29220(15) 0.79645(9)
C3_10 C 0.2179(2) 0.45750(19) 0.84201(10)
O7_10 O 0.05462(16) 0.48206(15) 0.78973(8)
C4_10 C 0.30303(18) 0.6217(2) 0.94756(9)
H1_10 H 0.2676 0.6285 0.9430
N2_10 N 0.45860(15) 0.5901(2) 0.96826(8)
C5_10 C 0.37492(18) 0.6327(2) 0.97577(10)
H2_10 H 0.3894 0.6477 0.9905
C6_10 C 0.20602(18) 0.37510(18) 0.81778(9)
H3_10 H 0.2368 0.3613 0.8253
C7_10 C 0.13523(19) 0.36566(18) 0.78818(10)
H4_10 H 0.1178 0.3452 0.7759
C8_10 C 0.2897(2) 0.6802(2) 0.98359(10)
C9_10 C 0.38553(19) 0.5777(2) 0.93936(9)
H5_10 H 0.4073 0.5558 0.9293
C10_10 C 0.11849(19) 0.41665(19) 0.79368(10)
C11_10 C 0.33432(18) 0.5882(2) 0.93218(8)
C12_10 C 0.14635(19) 0.44668(19) 0.81190(10)
H6_10 H 0.1352 0.4813 0.8159
C13_12 C 0.5000 0.5991(3) 0.95462(12)
H7_12 H 0.5000 0.6103 0.9377
C14_10 C 0.40475(18) 0.5991(2) 0.96111(10)
C15_10 C 0.1887(2) 0.42573(18) 0.82354(10)
C16_10 C 0.1779(2) 0.34582(17) 0.80113(10)
C17_10 C 0.4729(2) 0.5734(4) 0.99354(11)
C18_10 C 0.2423(3) 0.2802(3) 0.78989(18)
H9_10 H 0.2704 0.3034 0.7861
C19_14 C 0.1665(3) 0.2500 0.79957(16)
H10_14 H 0.1302 0.2500 0.8038
O9_12 O 0.0000 0.3928(2) 0.71222(12)
C20_10 C 0.32290(19) 0.6442(2) 0.96865(9)
O10_12 O -0.0000 0.5838(2) 0.80399(11)
O12_10 O 0.66182(12) 0.52730(14) 0.89975(6)
C21_10 C 0.6887(2) 0.5629(2) 0.91016(10)
C22_10 C 0.69697(18) 0.6217(2) 0.94756(9)
H11_10 H 0.7324 0.6285 0.9430
N3_10 N 0.54140(15) 0.5901(2) 0.96826(8)
C23_10 C 0.62508(18) 0.6327(2) 0.97577(10)
H12_10 H 0.6106 0.6477 0.9905
C24_10 C 0.61447(19) 0.5777(2) 0.93936(9)
H13_10 H 0.5927 0.5558 0.9293
C25_10 C 0.66568(18) 0.5882(2) 0.93218(8)
C26_10 C 0.59525(18) 0.5991(2) 0.96111(10)
C27_10 C 0.5271(2) 0.5734(4) 0.99354(11)
C28_10 C 0.67710(19) 0.6442(2) 0.96865(9)
C29_10 C 0.7103(2) 0.6802(2) 0.98359(10)
O14_10 O 0.73403(12) 0.57897(14) 0.90272(6)
C30_10 C 0.0733(2) 0.0609(2) 0.78065(11)
N4_10 N 0.19317(17) 0.20780(15) 0.79645(9)
C31_10 C 0.2179(2) 0.04250(19) 0.84201(10)
C32_10 C 0.20602(18) 0.12490(18) 0.81778(9)
H15_10 H 0.2368 0.1387 0.8253
C33_10 C 0.13523(19) 0.13434(18) 0.78818(10)
H16_10 H 0.1178 0.1548 0.7759
C34_10 C 0.11849(19) 0.08335(19) 0.79368(10)
C35_10 C 0.14635(19) 0.05332(19) 0.81190(10)
H17_10 H 0.1352 0.0187 0.8159
C36_10 C 0.1887(2) 0.07427(18) 0.82354(10)
C37_10 C 0.1779(2) 0.15418(17) 0.80113(10)
C38_10 C 0.2423(3) 0.2198(3) 0.78989(18)
H18_10 H 0.2704 0.1966 0.7861
O18_10 O 0.25505(17) 0.06499(13) 0.85366(7)
O22_8 O 0.05600(14) 0.49737(14) 0.72583(6)
O28_8 O 0.05327(18) 0.56081(16) 0.75394(9)
H23_3 H 0.0355142 0.599697 0.805423
O19_10 O 0.20401(16) 0.99583(14) 0.84491(7)
O9_13 O 1.0000 0.3928(2) 0.71222(12)
O10_13 O 1.0000 0.5838(2) 0.80399(11)
H21_3 H 0.990297 0.358139 0.719379
H22_3 H 0.974114 0.402742 0.699188
H24_3 H 0.973909 0.611682 0.800166
Zn3_7 Zn 0.27671(2) 0.55540(2) 0.626796(10)
O1_7 O 0.22270(14) 0.58818(12) 0.64975(6)
C1_11 C 0.1871(2) 0.5613(2) 0.66016(10)
O3_7 O 0.17103(14) 0.51597(12) 0.65272(6)
C2_11 C 0.3109(2) 0.3233(2) 0.53065(11)
O4_11 O 0.33347(13) 0.30475(14) 0.51205(7)
N1_11 N 0.45780(15) 0.44317(17) 0.54645(9)
O5_7 O 0.24583(14) 0.45401(16) 0.59491(7)
O6_7 O 0.33454(17) 0.60903(17) 0.63121(9)
C3_11 C 0.29250(19) 0.4679(2) 0.59201(10)
O7_11 O 0.26794(15) 0.30462(16) 0.53973(8)
C4_11 C 0.1283(2) 0.55303(18) 0.69756(9)
H1_11 H 0.1215 0.5176 0.6930
N2_11 N 0.1599(2) 0.70860(15) 0.71826(8)
C5_11 C 0.1173(2) 0.62492(18) 0.72577(10)
H2_11 H 0.1023 0.6394 0.7405
C6_11 C 0.37490(18) 0.45602(18) 0.56778(9)
H3_11 H 0.3887 0.4868 0.5753
C7_11 C 0.38434(18) 0.38523(19) 0.53818(10)
H4_11 H 0.4048 0.3678 0.5259
C8_11 C 0.0698(2) 0.5397(2) 0.73359(10)
C9_11 C 0.1723(2) 0.63553(19) 0.68936(9)
H5_11 H 0.1942 0.6573 0.6793
C10_11 C 0.33335(19) 0.36849(19) 0.54368(10)
C11_11 C 0.1618(2) 0.58432(18) 0.68218(8)
C12_11 C 0.30332(19) 0.39635(19) 0.56190(10)
H6_11 H 0.2687 0.3852 0.5659
C13_13 C 0.1509(3) 0.7500 0.70462(12)
H7_13 H 0.1397 0.7500 0.6877
C14_11 C 0.1509(2) 0.65475(18) 0.71111(10)
C15_11 C 0.32427(18) 0.4387(2) 0.57354(10)
C16_11 C 0.40418(17) 0.4279(2) 0.55113(10)
C17_11 C 0.1766(4) 0.7229(2) 0.74354(11)
H8_11 H 0.1854 0.7000 0.7569
C18_11 C 0.4698(3) 0.4923(3) 0.53989(18)
H9_11 H 0.4466 0.5204 0.5361
C19_15 C 0.5000 0.4165(3) 0.54957(16)
H10_15 H 0.5000 0.3802 0.5538
O9_14 O 0.3572(2) 0.2500 0.46222(12)
C20_11 C 0.1058(2) 0.57290(19) 0.71865(9)
O10_14 O 0.1662(2) 0.2500 0.55399(11)
O11_7 O 0.31499(13) 0.50505(17) 0.60366(7)
O12_11 O 0.22270(14) 0.91182(12) 0.64975(6)
C21_11 C 0.1871(2) 0.9387(2) 0.66016(10)
C22_11 C 0.1283(2) 0.94697(18) 0.69756(9)
H11_11 H 0.1215 0.9824 0.6930
N3_11 N 0.1599(2) 0.79140(15) 0.71826(8)
C23_11 C 0.1173(2) 0.87508(18) 0.72577(10)
H12_11 H 0.1023 0.8606 0.7405
C24_11 C 0.1723(2) 0.86447(19) 0.68936(9)
H13_11 H 0.1942 0.8427 0.6793
C25_11 C 0.1618(2) 0.91568(18) 0.68218(8)
C26_11 C 0.1509(2) 0.84525(18) 0.71111(10)
C27_11 C 0.1766(4) 0.7771(2) 0.74354(11)
H14_11 H 0.1854 0.8000 0.7569
C28_11 C 0.1058(2) 0.92710(19) 0.71865(9)
C29_11 C 0.0698(2) 0.9603(2) 0.73359(10)
O14_11 O 0.17103(14) 0.98403(12) 0.65272(6)
C30_11 C 0.6891(2) 0.3233(2) 0.53065(11)
N4_11 N 0.54220(15) 0.44317(17) 0.54645(9)
C31_11 C 0.70750(19) 0.4679(2) 0.59201(10)
C32_11 C 0.62510(18) 0.45602(18) 0.56778(9)
H15_11 H 0.6113 0.4868 0.5753
C33_11 C 0.61566(18) 0.38523(19) 0.53818(10)
H16_11 H 0.5952 0.3678 0.5259
C34_11 C 0.66665(19) 0.36849(19) 0.54368(10)
C35_11 C 0.69668(19) 0.39635(19) 0.56190(10)
H17_11 H 0.7313 0.3852 0.5659
C36_11 C 0.67573(18) 0.4387(2) 0.57354(10)
C37_11 C 0.59582(17) 0.4279(2) 0.55113(10)
C38_11 C 0.5302(3) 0.4923(3) 0.53989(18)
H18_11 H 0.5534 0.5204 0.5361
O18_11 O 0.68501(13) 0.50505(17) 0.60366(7)
O19_11 O 0.75417(14) 0.45401(16) 0.59491(7)
Zn4_7 Zn 0.19460(2) 0.47329(2) 0.623204(10)
O20_7 O 0.14097(17) 0.41546(17) 0.61879(9)
O21_7 O 0.16182(12) 0.52730(14) 0.60025(6)
O22_9 O 0.25263(14) 0.30600(14) 0.47583(6)
O24_7 O 0.23403(12) 0.57897(14) 0.59728(6)
O26_7 O 0.29599(16) 0.50417(14) 0.65509(7)
O28_9 O 0.18919(16) 0.30327(18) 0.50394(9)
O30_7 O 0.24495(17) 0.43501(13) 0.64634(7)
O19_12 O 0.29599(16) 0.00417(14) 0.34491(7)
Zn3_8 Zn 0.19460(2) 0.52671(2) 0.376796(10)
O1_8 O 0.16182(12) 0.47270(14) 0.39975(6)
C1_12 C 0.1887(2) 0.4371(2) 0.41016(10)
O3_8 O 0.23403(12) 0.42103(14) 0.40272(6)
C2_12 C 0.4267(2) 0.5609(2) 0.28065(11)
O4_12 O 0.44525(14) 0.58347(13) 0.26205(7)
N1_12 N 0.30683(17) 0.70780(15) 0.29645(9)
O5_8 O 0.29599(16) 0.49583(14) 0.34491(7)
O6_8 O 0.14097(17) 0.58454(17) 0.38121(9)
C3_12 C 0.2821(2) 0.54250(19) 0.34201(10)
O7_12 O 0.44538(16) 0.51794(15) 0.28973(8)
C4_12 C 0.19697(18) 0.3783(2) 0.44756(9)
H1_12 H 0.2324 0.3715 0.4430
N2_12 N 0.04140(15) 0.4099(2) 0.46826(8)
C5_12 C 0.12508(18) 0.3673(2) 0.47577(10)
H2_12 H 0.1106 0.3523 0.4905
C6_12 C 0.29398(18) 0.62490(18) 0.31778(9)
H3_12 H 0.2632 0.6387 0.3253
C7_12 C 0.36477(19) 0.63434(18) 0.28818(10)
H4_12 H 0.3822 0.6548 0.2759
C8_12 C 0.2103(2) 0.3198(2) 0.48359(10)
C9_12 C 0.11447(19) 0.4223(2) 0.43936(9)
H5_12 H 0.0927 0.4442 0.4293
C10_12 C 0.38151(19) 0.58335(19) 0.29368(10)
C11_12 C 0.16568(18) 0.4118(2) 0.43218(8)
C12_12 C 0.35365(19) 0.55332(19) 0.31190(10)
H6_12 H 0.3648 0.5187 0.3159
C13_14 C 0.0000 0.4009(3) 0.45462(12)
H7_14 H 0.0000 0.3897 0.4377
C14_12 C 0.09525(18) 0.4009(2) 0.46111(10)
C15_12 C 0.3113(2) 0.57427(18) 0.32354(10)
C16_12 C 0.3221(2) 0.65418(17) 0.30113(10)
C17_12 C 0.0271(2) 0.4266(4) 0.49354(11)
H8_12 H 0.0500 0.4354 0.5069
C18_12 C 0.2577(3) 0.7198(3) 0.28989(18)
H9_12 H 0.2296 0.6966 0.2861
C19_16 C 0.3335(3) 0.7500 0.29957(16)
H10_16 H 0.3698 0.7500 0.3038
O9_15 O 0.5000 0.6072(2) 0.21222(12)
C20_12 C 0.17710(19) 0.3558(2) 0.46865(9)
O10_15 O 0.5000 0.4162(2) 0.30399(11)
O11_8 O 0.24495(17) 0.56499(13) 0.35366(7)
C30_12 C 0.4267(2) 0.9391(2) 0.28065(11)
N4_12 N 0.30683(17) 0.79220(15) 0.29645(9)
C31_12 C 0.2821(2) 0.95750(19) 0.34201(10)
C32_12 C 0.29398(18) 0.87510(18) 0.31778(9)
H15_12 H 0.2632 0.8613 0.3253
C33_12 C 0.36477(19) 0.86566(18) 0.28818(10)
H16_12 H 0.3822 0.8452 0.2759
C34_12 C 0.38151(19) 0.91665(19) 0.29368(10)
C35_12 C 0.35365(19) 0.94668(19) 0.31190(10)
H17_12 H 0.3648 0.9813 0.3159
C36_12 C 0.3113(2) 0.92573(18) 0.32354(10)
C37_12 C 0.3221(2) 0.84582(17) 0.30113(10)
C38_12 C 0.2577(3) 0.7802(3) 0.28989(18)
H18_12 H 0.2296 0.8034 0.2861
O18_12 O 0.24495(17) 0.93501(13) 0.35366(7)
Zn4_8 Zn 0.27671(2) 0.44460(2) 0.373204(10)
O20_8 O 0.33454(17) 0.39097(17) 0.36879(9)
O21_8 O 0.22270(14) 0.41182(12) 0.35025(6)
O24_8 O 0.17103(14) 0.48403(12) 0.34728(6)
O26_8 O 0.24583(14) 0.54599(16) 0.40509(7)
O30_8 O 0.31499(13) 0.49495(17) 0.39634(7)
C13_15 C 1.0000 0.4009(3) 0.45462(12)
H7_15 H 1.0000 0.3897 0.4377
O12_12 O 0.83818(12) 0.47270(14) 0.39975(6)
C21_12 C 0.8113(2) 0.4371(2) 0.41016(10)
C22_12 C 0.80303(18) 0.3783(2) 0.44756(9)
H11_12 H 0.7676 0.3715 0.4430
N3_12 N 0.95860(15) 0.4099(2) 0.46826(8)
C23_12 C 0.87492(18) 0.3673(2) 0.47577(10)
H12_12 H 0.8894 0.3523 0.4905
C24_12 C 0.88553(19) 0.4223(2) 0.43936(9)
H13_12 H 0.9073 0.4442 0.4293
C25_12 C 0.83432(18) 0.4118(2) 0.43218(8)
C26_12 C 0.90475(18) 0.4009(2) 0.46111(10)
C27_12 C 0.9729(2) 0.4266(4) 0.49354(11)
H14_12 H 0.9500 0.4354 0.5069
C28_12 C 0.82290(19) 0.3558(2) 0.46865(9)
C29_12 C 0.7897(2) 0.3198(2) 0.48359(10)
O14_12 O 0.76597(12) 0.42103(14) 0.40272(6)
C1_13 C 0.8129(2) 0.0613(2) 0.33984(10)
C4_13 C 0.8717(2) 0.05303(18) 0.30244(9)
H1_13 H 0.8785 0.0176 0.3070
N2_13 N 0.8401(2) 0.20860(15) 0.28174(8)
C5_13 C 0.8827(2) 0.12492(18) 0.27423(10)
H2_13 H 0.8977 0.1394 0.2595
C8_13 C 0.9302(2) 0.0397(2) 0.26641(10)
C9_13 C 0.8277(2) 0.13553(19) 0.31064(9)
H5_13 H 0.8058 0.1573 0.3207
C11_13 C 0.8382(2) 0.08432(18) 0.31782(8)
C13_16 C 0.8491(3) 0.2500 0.29538(12)
H7_16 H 0.8603 0.2500 0.3123
C14_13 C 0.8491(2) 0.15475(18) 0.28889(10)
C17_13 C 0.8234(4) 0.2229(2) 0.25646(11)
H8_13 H 0.8146 0.2000 0.2431
H9_13 H 0.5534 0.0204 0.4639
C20_13 C 0.8942(2) 0.07290(19) 0.28135(9)
O12_13 O 0.77730(14) 0.41182(12) 0.35025(6)
C21_13 C 0.8129(2) 0.4387(2) 0.33984(10)
C22_13 C 0.8717(2) 0.44697(18) 0.30244(9)
H11_13 H 0.8785 0.4824 0.3070
N3_13 N 0.8401(2) 0.29140(15) 0.28174(8)
C23_13 C 0.8827(2) 0.37508(18) 0.27423(10)
H12_13 H 0.8977 0.3606 0.2595
C24_13 C 0.8277(2) 0.36447(19) 0.31064(9)
H13_13 H 0.8058 0.3427 0.3207
C25_13 C 0.8382(2) 0.41568(18) 0.31782(8)
C26_13 C 0.8491(2) 0.34525(18) 0.28889(10)
C27_13 C 0.8234(4) 0.2771(2) 0.25646(11)
H14_13 H 0.8146 0.3000 0.2431
C28_13 C 0.8942(2) 0.42710(19) 0.28135(9)
O13_8 O 0.94400(14) 0.50263(14) 0.27417(6)
C29_13 C 0.9302(2) 0.4603(2) 0.26641(10)
O14_13 O 0.82897(14) 0.48403(12) 0.34728(6)
O15_8 O 0.94673(18) 0.43919(16) 0.24606(9)
H18_13 H 0.4466 0.0204 0.4639
O18_13 O 0.31499(13) 0.00505(17) 0.39634(7)
C2_13 C 0.6891(2) 0.8233(2) 0.46935(11)
O4_13 O 0.66653(13) 0.80475(14) 0.48795(7)
N1_13 N 0.54220(15) 0.94317(17) 0.45355(9)
C3_13 C 0.70750(19) 0.9679(2) 0.40799(10)
O7_13 O 0.73206(15) 0.80462(16) 0.46027(8)
C6_13 C 0.62510(18) 0.95602(18) 0.43222(9)
H3_13 H 0.6113 0.9868 0.4247
C7_13 C 0.61566(18) 0.88523(19) 0.46182(10)
H4_13 H 0.5952 0.8678 0.4741
C10_13 C 0.66665(19) 0.86849(19) 0.45632(10)
C12_13 C 0.69668(19) 0.89635(19) 0.43810(10)
H6_13 H 0.7313 0.8852 0.4341
C15_13 C 0.67573(18) 0.9387(2) 0.42646(10)
C16_13 C 0.59582(17) 0.9279(2) 0.44887(10)
C18_13 C 0.5302(3) 0.9923(3) 0.46011(18)
C19_17 C 0.5000 0.9165(3) 0.45043(16)
H10_17 H 0.5000 0.8802 0.4462
O9_16 O 0.6428(2) 0.7500 0.53778(12)
O10_16 O 0.8338(2) 0.7500 0.44601(11)
C30_13 C 0.3109(2) 0.8233(2) 0.46935(11)
O16_8 O 0.33347(13) 0.80475(14) 0.48795(7)
N4_13 N 0.45780(15) 0.94317(17) 0.45355(9)
C31_13 C 0.29250(19) 0.9679(2) 0.40799(10)
O17_8 O 0.26794(15) 0.80462(16) 0.46027(8)
C32_13 C 0.37490(18) 0.95602(18) 0.43222(9)
H15_13 H 0.3887 0.9868 0.4247
C33_13 C 0.38434(18) 0.88523(19) 0.46182(10)
H16_13 H 0.4048 0.8678 0.4741
C34_13 C 0.33335(19) 0.86849(19) 0.45632(10)
C35_13 C 0.30332(19) 0.89635(19) 0.43810(10)
H17_13 H 0.2687 0.8852 0.4341
C36_13 C 0.32427(18) 0.9387(2) 0.42646(10)
C37_13 C 0.40418(17) 0.9279(2) 0.44887(10)
C38_13 C 0.4698(3) 0.9923(3) 0.46011(18)
O19_13 O 0.24583(14) 0.95401(16) 0.40509(7)
O23_8 O 0.74737(14) 0.69400(14) 0.52417(6)
O25_8 O 0.66653(13) 0.69525(14) 0.48795(7)
O27_8 O 0.73206(15) 0.69538(16) 0.46027(8)
O29_8 O 0.81081(16) 0.69673(18) 0.49606(9)
C1_14 C 0.1871(2) 0.4387(2) 0.33984(10)
O2_6 O 0.05600(14) 0.50263(14) 0.27417(6)
C2_14 C 0.3109(2) 0.6767(2) 0.46935(11)
O4_14 O 0.33347(13) 0.69525(14) 0.48795(7)
N1_14 N 0.45780(15) 0.55683(17) 0.45355(9)
C3_14 C 0.29250(19) 0.5321(2) 0.40799(10)
O7_14 O 0.26794(15) 0.69538(16) 0.46027(8)
C4_14 C 0.1283(2) 0.44697(18) 0.30244(9)
H1_14 H 0.1215 0.4824 0.3070
N2_14 N 0.1599(2) 0.29140(15) 0.28174(8)
C5_14 C 0.1173(2) 0.37508(18) 0.27423(10)
H2_14 H 0.1023 0.3606 0.2595
C6_14 C 0.37490(18) 0.54398(18) 0.43222(9)
H3_14 H 0.3887 0.5132 0.4247
C7_14 C 0.38434(18) 0.61477(19) 0.46182(10)
H4_14 H 0.4048 0.6322 0.4741
C8_14 C 0.0698(2) 0.4603(2) 0.26641(10)
C9_14 C 0.1723(2) 0.36447(19) 0.31064(9)
H5_14 H 0.1942 0.3427 0.3207
C10_14 C 0.33335(19) 0.63151(19) 0.45632(10)
C11_14 C 0.1618(2) 0.41568(18) 0.31782(8)
O8_6 O 0.05327(18) 0.43919(16) 0.24606(9)
C12_14 C 0.30332(19) 0.60365(19) 0.43810(10)
H6_14 H 0.2687 0.6148 0.4341
C13_17 C 0.1509(3) 0.2500 0.29538(12)
H7_17 H 0.1397 0.2500 0.3123
C14_14 C 0.1509(2) 0.34525(18) 0.28889(10)
C15_14 C 0.32427(18) 0.5613(2) 0.42646(10)
C16_14 C 0.40418(17) 0.5721(2) 0.44887(10)
C17_14 C 0.1766(4) 0.2771(2) 0.25646(11)
H8_14 H 0.1854 0.3000 0.2431
C18_14 C 0.4698(3) 0.5077(3) 0.46011(18)
H9_14 H 0.4466 0.4796 0.4639
C19_18 C 0.5000 0.5835(3) 0.45043(16)
H10_18 H 0.5000 0.6198 0.4462
O9_17 O 0.3572(2) 0.7500 0.53778(12)
C20_14 C 0.1058(2) 0.42710(19) 0.28135(9)
O10_17 O 0.1662(2) 0.7500 0.44601(11)
O12_14 O 0.22270(14) 0.08818(12) 0.35025(6)
C21_14 C 0.1871(2) 0.0613(2) 0.33984(10)
C22_14 C 0.1283(2) 0.05303(18) 0.30244(9)
H11_14 H 0.1215 0.0176 0.3070
N3_14 N 0.1599(2) 0.20860(15) 0.28174(8)
C23_14 C 0.1173(2) 0.12492(18) 0.27423(10)
H12_14 H 0.1023 0.1394 0.2595
C24_14 C 0.1723(2) 0.13553(19) 0.31064(9)
H13_14 H 0.1942 0.1573 0.3207
C25_14 C 0.1618(2) 0.08432(18) 0.31782(8)
C26_14 C 0.1509(2) 0.15475(18) 0.28889(10)
C27_14 C 0.1766(4) 0.2229(2) 0.25646(11)
H14_14 H 0.1854 0.2000 0.2431
C28_14 C 0.1058(2) 0.07290(19) 0.28135(9)
C29_14 C 0.0698(2) 0.0397(2) 0.26641(10)
O14_14 O 0.17103(14) 0.01597(12) 0.34728(6)
C30_14 C 0.6891(2) 0.6767(2) 0.46935(11)
N4_14 N 0.54220(15) 0.55683(17) 0.45355(9)
C31_14 C 0.70750(19) 0.5321(2) 0.40799(10)
C32_14 C 0.62510(18) 0.54398(18) 0.43222(9)
H15_14 H 0.6113 0.5132 0.4247
C33_14 C 0.61566(18) 0.61477(19) 0.46182(10)
H16_14 H 0.5952 0.6322 0.4741
C34_14 C 0.66665(19) 0.63151(19) 0.45632(10)
C35_14 C 0.69668(19) 0.60365(19) 0.43810(10)
H17_14 H 0.7313 0.6148 0.4341
C36_14 C 0.67573(18) 0.5613(2) 0.42646(10)
C37_14 C 0.59582(17) 0.5721(2) 0.44887(10)
C38_14 C 0.5302(3) 0.5077(3) 0.46011(18)
H18_14 H 0.5534 0.4796 0.4639
O18_14 O 0.68501(13) 0.49495(17) 0.39634(7)
O19_14 O 0.75417(14) 0.54599(16) 0.40509(7)
O22_10 O 0.25263(14) 0.69400(14) 0.52417(6)
O28_10 O 0.18919(16) 0.69673(18) 0.49606(9)
C1_15 C 0.1887(2) 0.5629(2) 0.58984(10)
C2_15 C 0.4267(2) 0.4391(2) 0.71935(11)
O4_15 O 0.44525(14) 0.41653(13) 0.73795(7)
N1_15 N 0.30683(17) 0.29220(15) 0.70355(9)
C3_15 C 0.2821(2) 0.45750(19) 0.65799(10)
O7_15 O 0.44538(16) 0.48206(15) 0.71027(8)
C4_15 C 0.19697(18) 0.6217(2) 0.55244(9)
H1_15 H 0.2324 0.6285 0.5570
N2_15 N 0.04140(15) 0.5901(2) 0.53174(8)
C5_15 C 0.12508(18) 0.6327(2) 0.52423(10)
H2_15 H 0.1106 0.6477 0.5095
C6_15 C 0.29398(18) 0.37510(18) 0.68222(9)
H3_15 H 0.2632 0.3613 0.6747
C7_15 C 0.36477(19) 0.36566(18) 0.71182(10)
H4_15 H 0.3822 0.3452 0.7241
C8_15 C 0.2103(2) 0.6802(2) 0.51641(10)
C9_15 C 0.11447(19) 0.5777(2) 0.56064(9)
H5_15 H 0.0927 0.5558 0.5707
C10_15 C 0.38151(19) 0.41665(19) 0.70632(10)
C11_15 C 0.16568(18) 0.5882(2) 0.56782(8)
C12_15 C 0.35365(19) 0.44668(19) 0.68810(10)
H6_15 H 0.3648 0.4813 0.6841
C13_18 C 0.0000 0.5991(3) 0.54538(12)
H7_18 H 0.0000 0.6103 0.5623
C14_15 C 0.09525(18) 0.5991(2) 0.53889(10)
C15_15 C 0.3113(2) 0.42573(18) 0.67646(10)
C16_15 C 0.3221(2) 0.34582(17) 0.69887(10)
C17_15 C 0.0271(2) 0.5734(4) 0.50646(11)
H8_15 H 0.0500 0.5646 0.4931
C18_15 C 0.2577(3) 0.2802(3) 0.71011(18)
H9_15 H 0.2296 0.3034 0.7139
C19_19 C 0.3335(3) 0.2500 0.70043(16)
H10_19 H 0.3698 0.2500 0.6962
O9_18 O 0.5000 0.3928(2) 0.78778(12)
C20_15 C 0.17710(19) 0.6442(2) 0.53135(9)
O10_18 O 0.5000 0.5838(2) 0.69601(11)
C30_15 C 0.4267(2) 0.0609(2) 0.71935(11)
N4_15 N 0.30683(17) 0.20780(15) 0.70355(9)
C31_15 C 0.2821(2) 0.04250(19) 0.65799(10)
C32_15 C 0.29398(18) 0.12490(18) 0.68222(9)
H15_15 H 0.2632 0.1387 0.6747
C33_15 C 0.36477(19) 0.13434(18) 0.71182(10)
H16_15 H 0.3822 0.1548 0.7241
C34_15 C 0.38151(19) 0.08335(19) 0.70632(10)
C35_15 C 0.35365(19) 0.05332(19) 0.68810(10)
H17_15 H 0.3648 0.0187 0.6841
C36_15 C 0.3113(2) 0.07427(18) 0.67646(10)
C37_15 C 0.3221(2) 0.15418(17) 0.69887(10)
C38_15 C 0.2577(3) 0.2198(3) 0.71011(18)
H18_15 H 0.2296 0.1966 0.7139
O18_15 O 0.24495(17) 0.06499(13) 0.64634(7)
O19_15 O 0.29599(16) 0.99583(14) 0.65509(7)
C13_19 C 1.0000 0.5991(3) 0.54538(12)
H7_19 H 1.0000 0.6103 0.5623
O12_15 O 0.83818(12) 0.52730(14) 0.60025(6)
C21_15 C 0.8113(2) 0.5629(2) 0.58984(10)
C22_15 C 0.80303(18) 0.6217(2) 0.55244(9)
H11_15 H 0.7676 0.6285 0.5570
N3_15 N 0.95860(15) 0.5901(2) 0.53174(8)
C23_15 C 0.87492(18) 0.6327(2) 0.52423(10)
H12_15 H 0.8894 0.6477 0.5095
C24_15 C 0.88553(19) 0.5777(2) 0.56064(9)
H13_15 H 0.9073 0.5558 0.5707
C25_15 C 0.83432(18) 0.5882(2) 0.56782(8)
C26_15 C 0.90475(18) 0.5991(2) 0.53889(10)
C27_15 C 0.9729(2) 0.5734(4) 0.50646(11)
H14_15 H 0.9500 0.5646 0.4931
C28_15 C 0.82290(19) 0.6442(2) 0.53135(9)
C29_15 C 0.7897(2) 0.6802(2) 0.51641(10)
O14_15 O 0.76597(12) 0.57897(14) 0.59728(6)
O19_16 O 0.20401(16) 0.00417(14) 0.15509(7)
C1_16 C 0.3113(2) 0.4371(2) 0.08984(10)
C2_16 C 0.0733(2) 0.5609(2) 0.21935(11)
O4_16 O 0.05475(14) 0.58347(13) 0.23795(7)
N1_16 N 0.19317(17) 0.70780(15) 0.20355(9)
C3_16 C 0.2179(2) 0.54250(19) 0.15799(10)
O7_16 O 0.05462(16) 0.51794(15) 0.21027(8)
C4_16 C 0.30303(18) 0.3783(2) 0.05244(9)
H1_16 H 0.2676 0.3715 0.0570
N2_16 N 0.45860(15) 0.4099(2) 0.03174(8)
C5_16 C 0.37492(18) 0.3673(2) 0.02423(10)
H2_16 H 0.3894 0.3523 0.0095
C6_16 C 0.20602(18) 0.62490(18) 0.18222(9)
H3_16 H 0.2368 0.6387 0.1747
C7_16 C 0.13523(19) 0.63434(18) 0.21182(10)
H4_16 H 0.1178 0.6548 0.2241
C8_16 C 0.2897(2) 0.3198(2) 0.01641(10)
C9_16 C 0.38553(19) 0.4223(2) 0.06064(9)
H5_16 H 0.4073 0.4442 0.0707
C10_16 C 0.11849(19) 0.58335(19) 0.20632(10)
C11_16 C 0.33432(18) 0.4118(2) 0.06782(8)
C12_16 C 0.14635(19) 0.55332(19) 0.18810(10)
H6_16 H 0.1352 0.5187 0.1841
C13_20 C 0.5000 0.4009(3) 0.04538(12)
H7_20 H 0.5000 0.3897 0.0623
C14_16 C 0.40475(18) 0.4009(2) 0.03889(10)
C15_16 C 0.1887(2) 0.57427(18) 0.17646(10)
C16_16 C 0.1779(2) 0.65418(17) 0.19887(10)
C17_16 C 0.4729(2) 0.4266(4) 0.00646(11)
C18_16 C 0.2423(3) 0.7198(3) 0.21011(18)
H9_16 H 0.2704 0.6966 0.2139
C19_20 C 0.1665(3) 0.7500 0.20043(16)
H10_20 H 0.1302 0.7500 0.1962
O9_19 O -0.0000 0.6072(2) 0.28778(12)
C20_16 C 0.32290(19) 0.3558(2) 0.03135(9)
O10_19 O -0.0000 0.4162(2) 0.19601(11)
O12_16 O 0.66182(12) 0.47270(14) 0.10025(6)
C21_16 C 0.6887(2) 0.4371(2) 0.08984(10)
C22_16 C 0.69697(18) 0.3783(2) 0.05244(9)
H11_16 H 0.7324 0.3715 0.0570
N3_16 N 0.54140(15) 0.4099(2) 0.03174(8)
C23_16 C 0.62508(18) 0.3673(2) 0.02423(10)
H12_16 H 0.6106 0.3523 0.0095
C24_16 C 0.61447(19) 0.4223(2) 0.06064(9)
H13_16 H 0.5927 0.4442 0.0707
C25_16 C 0.66568(18) 0.4118(2) 0.06782(8)
C26_16 C 0.59525(18) 0.4009(2) 0.03889(10)
C27_16 C 0.5271(2) 0.4266(4) 0.00646(11)
C28_16 C 0.67710(19) 0.3558(2) 0.03135(9)
C29_16 C 0.7103(2) 0.3198(2) 0.01641(10)
O14_16 O 0.73403(12) 0.42103(14) 0.09728(6)
C30_16 C 0.0733(2) 0.9391(2) 0.21935(11)
N4_16 N 0.19317(17) 0.79220(15) 0.20355(9)
C31_16 C 0.2179(2) 0.95750(19) 0.15799(10)
C32_16 C 0.20602(18) 0.87510(18) 0.18222(9)
H15_16 H 0.2368 0.8613 0.1747
C33_16 C 0.13523(19) 0.86566(18) 0.21182(10)
H16_16 H 0.1178 0.8452 0.2241
C34_16 C 0.11849(19) 0.91665(19) 0.20632(10)
C35_16 C 0.14635(19) 0.94668(19) 0.18810(10)
H17_16 H 0.1352 0.9813 0.1841
C36_16 C 0.1887(2) 0.92573(18) 0.17646(10)
C37_16 C 0.1779(2) 0.84582(17) 0.19887(10)
C38_16 C 0.2423(3) 0.7802(3) 0.21011(18)
H18_16 H 0.2704 0.8034 0.2139
O18_16 O 0.25505(17) 0.93501(13) 0.14634(7)
H23_4 H 0.0355142 0.400303 0.194577
H8_16 H 0.4500 0.4354 0.9931
H14_16 H 0.5500 0.4354 0.9931
O9_20 O 1.0000 0.6072(2) 0.28778(12)
O10_20 O 1.0000 0.4162(2) 0.19601(11)
H21_4 H 0.990297 0.641861 0.280621
H22_4 H 0.974114 0.597258 0.300812
H24_4 H 0.973909 0.388318 0.199834
O6_9 O 0.83454(17) 0.60903(17) 0.86879(9)
O20_9 O 0.64097(17) 0.41546(17) 0.88121(9)
O6_10 O 0.14097(17) 0.08454(17) 0.61879(9)
O20_10 O 0.33454(17) 0.89097(17) 0.63121(9)
O20_11 O 0.35903(17) 0.08454(17) 0.88121(9)
O6_11 O 0.16546(17) 0.89097(17) 0.86879(9)
O20_12 O 0.16546(17) 0.10903(17) 0.13121(9)
H23_5 H 0.0355142 0.0996971 0.194577
O6_12 O 0.35903(17) 0.91546(17) 0.11879(9)
H24_5 H 0.973909 0.111682 0.199834
H21_5 H 0.990297 0.858139 0.280621
H22_5 H 0.974114 0.902742 0.300812
O6_13 O 0.83454(17) 0.39097(17) 0.13121(9)
O20_13 O 0.64097(17) 0.58454(17) 0.11879(9)
H23_6 H 0.0355142 0.900303 0.805423
H21_6 H 0.990297 0.141861 0.719379
H22_6 H 0.974114 0.0972583 0.699188
H24_6 H 0.973909 0.888318 0.800166
O20_14 O 0.33454(17) 0.10903(17) 0.36879(9)
O6_14 O 0.14097(17) 0.91546(17) 0.38121(9)
H21_7 H 0.00970281 0.641861 0.280621
H22_7 H 0.025886 0.597258 0.300812
H24_7 H 0.0260911 0.388318 0.199834
H23_7 H 0.964486 0.400303 0.194577
O6_15 O 0.66546(17) 0.39097(17) 0.36879(9)
O20_15 O 0.85903(17) 0.58454(17) 0.38121(9)
O6_16 O 0.85903(17) 0.41546(17) 0.61879(9)
O20_16 O 0.66546(17) 0.60903(17) 0.63121(9)
H21_8 H 0.00970281 0.358139 0.719379
H22_8 H 0.025886 0.402742 0.699188
H24_8 H 0.0260911 0.611682 0.800166
H23_8 H 0.964486 0.599697 0.805423
loop_
_geom_bond_atom_site_label_1
_geom_bond_atom_site_label_2
_geom_bond_site_symmetry_1
_geom_bond_site_symmetry_2
Zn1 O7 1_555 1_555
Zn3 O1 1_555 1_555
O1 C1 1_555 1_555
C1 O3 1_555 1_555
O2 C8 1_555 1_555
O3 Zn4 1_555 1_555
C2 O4 1_555 1_555
N1 C16 1_555 1_555
O5 C3 1_555 1_555
O6 Zn3 1_555 1_555
C3 C15 1_555 1_555
O7 C2 1_555 1_555
C4 H1 1_555 1_555
N2 C13 1_555 1_555
C5 H2 1_555 1_555
C6 H3 1_555 1_555
C7 H4 1_555 1_555
C8 O8 1_555 1_555
C9 H5 1_555 1_555
C10 C2 1_555 1_555
C11 C1 1_555 1_555
O8 Zn7 1_555 1_555
C12 C10 1_555 1_555
H6 C12 1_555 1_555
C13 H7 1_555 1_555
C14 N2 1_555 1_555
C15 C6 1_555 1_555
C16 C6 1_555 1_555
C17 N2 1_555 1_555
H8 C17 1_555 1_555
C18 N1 1_555 1_555
H9 C18 1_555 1_555
C19 N1 1_555 1_555
H10 C19 1_555 1_555
C20 C4 1_555 1_555
O10 Zn1 1_555 1_555
O11 Zn3 1_555 1_555
O12 C21 1_555 1_555
C21 C25 1_555 1_555
C22 H11 1_555 1_555
N3 C13 1_555 1_555
C23 H12 1_555 1_555
C24 H13 1_555 1_555
C25 C22 1_555 1_555
C26 N3 1_555 1_555
C27 C17 1_555 1_555
H14 C27 1_555 1_555
C28 C22 1_555 1_555
C29 C28 1_555 1_555
O14 C21 1_555 1_555
O15 C29 1_555 1_555
Zn4 O5 1_555 1_555
O20 Zn4 1_555 1_555
Zn5 O15 1_555 1_555
Zn10 O2 1_555 1_555
Zn13 O12 1_555 1_555
O21 Zn4 1_555 1_555
O24 Zn3 1_555 1_555
O26 Zn3 1_555 1_555
O27 Zn1 1_555 1_555
O28 Zn1 1_555 1_555
O29 Zn1 1_555 1_555
O30 Zn4 1_555 1_555
C3 O11 1_555 1_555
C4 C11 1_555 1_555
C5 C14 1_555 1_555
C5 C20 1_555 1_555
C7 C10 1_555 1_555
C7 C16 1_555 1_555
C8 C20 1_555 1_555
C9 C11 1_555 1_555
C9 C14 1_555 1_555
C12 C15 1_555 1_555
N3 C27 1_555 1_555
C23 C26 1_555 1_555
C23 C28 1_555 1_555
C24 C25 1_555 1_555
C24 C26 1_555 1_555
O9 Zn2 1_555 1_555
O22 Zn2 1_555 1_555
O23 Zn2 1_555 1_555
Zn8 O13 1_555 1_555
H10_2 C19_2 1_555 1_555
C30 O16 1_555 1_555
N4 C19_2 1_555 1_555
C31 C36 1_555 1_555
O17 C30 1_555 1_555
C32 H15 1_555 1_555
C33 H16 1_555 1_555
C34 C30 1_555 1_555
C35 C34 1_555 1_555
H17 C35 1_555 1_555
C36 C32 1_555 1_555
C37 N4 1_555 1_555
H18 C38 1_555 1_555
O18 C31 1_555 1_555
O19 C31 1_555 1_555
Zn6 O17 1_555 1_555
Zn12 O18 1_555 1_555
Zn14 O19 1_555 1_555
N4 C38 1_555 1_555
C32 C37 1_555 1_555
C33 C34 1_555 1_555
C33 C37 1_555 1_555
C35 C36 1_555 1_555
C13_2 H7_2 1_555 1_555
O12_2 C21_2 1_555 1_555
C21_2 C25_2 1_555 1_555
C22_2 H11_2 1_555 1_555
N3_2 C13_2 1_555 1_555
C23_2 H12_2 1_555 1_555
C24_2 H13_2 1_555 1_555
C25_2 C22_2 1_555 1_555
C26_2 N3_2 1_555 1_555
H14_2 C27_2 1_555 1_555
C28_2 C22_2 1_555 1_555
O13_2 C29_2 1_555 1_555
C29_2 C28_2 1_555 1_555
O14_2 C21_2 1_555 1_555
O15_2 C29_2 1_555 1_555
Zn5_2 O15_2 1_555 1_555
Zn8_2 O13_2 1_555 1_555
Zn11_2 O14_2 1_555 1_555
N3_2 C27_2 1_555 1_555
C23_2 C26_2 1_555 1_555
C23_2 C28_2 1_555 1_555
C24_2 C25_2 1_555 1_555
C24_2 C26_2 1_555 1_555
O1_2 C1_2 1_555 1_555
C1_2 O3_2 1_555 1_555
O2_2 C8_2 1_555 1_555
O3_2 Zn4_2 1_555 1_555
C4_2 H1_2 1_555 1_555
N2_2 C13_3 1_555 1_555
C5_2 H2_2 1_555 1_555
C8_2 O8_2 1_555 1_555
C9_2 H5_2 1_555 1_555
C11_2 C1_2 1_555 1_555
O8_2 Zn7_2 1_555 1_555
C13_3 H7_3 1_555 1_555
C14_2 N2_2 1_555 1_555
C17_2 N2_2 1_555 1_555
H8_2 C17_2 1_555 1_555
C20_2 C4_2 1_555 1_555
O10_2 Zn5 1_555 1_555
Zn4_2 O5_2 1_555 1_555
O20_2 Zn4_2 1_555 1_555
Zn10_2 O2_2 1_555 1_555
O21_2 Zn4_2 1_555 1_555
O28_2 Zn5 1_555 1_555
O30_2 Zn4_2 1_555 1_555
C4_2 C11_2 1_555 1_555
C5_2 C14_2 1_555 1_555
C5_2 C20_2 1_555 1_555
C8_2 C20_2 1_555 1_555
C9_2 C11_2 1_555 1_555
C9_2 C14_2 1_555 1_555
Zn8 O4_2 1_555 1_555
C2_2 O4_2 1_555 1_555
N1_2 C16_2 1_555 1_555
O6_2 Zn3_2 1_555 1_555
C3_2 C15_2 1_555 1_555
O7_2 C2_2 1_555 1_555
C6_2 H3_2 1_555 1_555
C7_2 H4_2 1_555 1_555
C10_2 C2_2 1_555 1_555
C12_2 C10_2 1_555 1_555
H6_2 C12_2 1_555 1_555
C15_2 C6_2 1_555 1_555
C16_2 C6_2 1_555 1_555
C18_2 N1_2 1_555 1_555
H9_2 C18_2 1_555 1_555
C19_3 N1_2 1_555 1_555
H10_3 C19_3 1_555 1_555
O9_2 Zn8 1_555 1_555
O11_2 Zn3_2 1_555 1_555
C30_2 O16_2 1_555 1_555
O16_2 Zn10 1_555 1_555
N4_2 C19_3 1_555 1_555
C31_2 C36_2 1_555 1_555
O17_2 C30_2 1_555 1_555
C32_2 H15_2 1_555 1_555
C33_2 H16_2 1_555 1_555
C34_2 C30_2 1_555 1_555
C35_2 C34_2 1_555 1_555
H17_2 C35_2 1_555 1_555
C36_2 C32_2 1_555 1_555
C37_2 N4_2 1_555 1_555
C38_2 C18_2 1_555 1_555
H18_2 C38_2 1_555 1_555
O18_2 C31_2 1_555 1_555
O19_2 C31_2 1_555 1_555
Zn7 O17_2 1_555 1_555
Zn12_2 O18_2 1_555 1_555
Zn14_2 O19_2 1_555 1_555
O22_2 Zn8 1_555 1_555
O25_2 Zn8 1_555 1_555
O26_2 Zn3_2 1_555 1_555
C3_2 O11_2 1_555 1_555
C7_2 C10_2 1_555 1_555
C7_2 C16_2 1_555 1_555
C12_2 C15_2 1_555 1_555
N4_2 C38_2 1_555 1_555
C32_2 C37_2 1_555 1_555
C33_2 C34_2 1_555 1_555
C33_2 C37_2 1_555 1_555
C35_2 C36_2 1_555 1_555
Zn13 O18_3 1_555 1_555
H10_4 C19_4 1_555 1_555
C30_3 O25 1_555 1_555
N4_3 C19_4 1_555 1_555
C31_3 C36_3 1_555 1_555
O27 C30_3 1_555 1_555
C32_3 H15_3 1_555 1_555
C33_3 H16_3 1_555 1_555
C34_3 C30_3 1_555 1_555
C35_3 C34_3 1_555 1_555
H17_3 C35_3 1_555 1_555
C36_3 C32_3 1_555 1_555
C37_3 N4_3 1_555 1_555
O19_3 C31_3 1_555 1_555
Zn11 O19_3 1_555 1_555
N4_3 C38_3 1_555 1_555
C32_3 C37_3 1_555 1_555
C33_3 C34_3 1_555 1_555
C33_3 C37_3 1_555 1_555
C35_3 C36_3 1_555 1_555
Zn3_3 O1_3 1_555 1_555
O1_3 C1_3 1_555 1_555
C1_3 O3_3 1_555 1_555
O6_3 Zn3_3 1_555 1_555
C4_3 H1_3 1_555 1_555
N2_3 C13_4 1_555 1_555
C5_3 H2_3 1_555 1_555
C8_3 O28_2 1_555 1_555
C9_3 H5_3 1_555 1_555
C11_3 C1_3 1_555 1_555
C13_4 H7_4 1_555 1_555
C14_3 N2_3 1_555 1_555
C17_3 N2_3 1_555 1_555
H8_3 C17_3 1_555 1_555
C20_3 C4_3 1_555 1_555
O11_3 Zn3_3 1_555 1_555
O12_3 C21_3 1_555 1_555
C21_3 C25_3 1_555 1_555
C22_3 H11_3 1_555 1_555
N3_3 C13_4 1_555 1_555
C23_3 H12_3 1_555 1_555
C24_3 H13_3 1_555 1_555
C25_3 C22_3 1_555 1_555
C26_3 N3_3 1_555 1_555
C27_3 C17_3 1_555 1_555
H14_3 C27_3 1_555 1_555
C28_3 C22_3 1_555 1_555
O13_3 C29_3 1_555 1_555
C29_3 C28_3 1_555 1_555
O14_3 C21_3 1_555 1_555
O15_3 C29_3 1_555 1_555
Zn7 O15_3 1_555 1_555
Zn10 O13_3 1_555 1_555
Zn14 O14_3 1_555 1_555
Zn12 O12_3 1_555 1_555
O24_3 Zn3_3 1_555 1_555
O26_3 Zn3_3 1_555 1_555
C4_3 C11_3 1_555 1_555
C5_3 C14_3 1_555 1_555
C5_3 C20_3 1_555 1_555
C8_3 C20_3 1_555 1_555
C9_3 C11_3 1_555 1_555
C9_3 C14_3 1_555 1_555
N3_3 C27_3 1_555 1_555
C23_3 C26_3 1_555 1_555
C23_3 C28_3 1_555 1_555
C24_3 C25_3 1_555 1_555
C24_3 C26_3 1_555 1_555
Zn6 O7_3 1_555 1_555
C2_3 O4_3 1_555 1_555
N1_3 C16_3 1_555 1_555
O5_3 C3_3 1_555 1_555
C3_3 C15_3 1_555 1_555
O7_3 C2_3 1_555 1_555
C6_3 H3_3 1_555 1_555
C7_3 H4_3 1_555 1_555
C10_3 C2_3 1_555 1_555
C12_3 C10_3 1_555 1_555
H6_3 C12_3 1_555 1_555
C15_3 C6_3 1_555 1_555
C16_3 C6_3 1_555 1_555
C18_3 N1_3 1_555 1_555
C19_5 N1_3 1_555 1_555
H10_5 C19_5 1_555 1_555
O10_3 Zn6 1_555 1_555
Zn4_3 O5_3 1_555 1_555
O20_3 Zn4_3 1_555 1_555
O28_3 Zn6 1_555 1_555
O29_2 Zn6 1_555 1_555
O30_3 Zn4_3 1_555 1_555
C7_3 C10_3 1_555 1_555
C7_3 C16_3 1_555 1_555
C12_3 C15_3 1_555 1_555
O9_3 Zn9 1_555 1_555
O22_3 Zn9 1_555 1_555
O23_2 Zn9 1_555 1_555
O9_4 Zn2_2 1_555 1_555
O23_3 Zn2_2 1_555 1_555
O25_3 Zn2_2 1_555 1_555
O9_4 H21 1_555 1_555
O9_4 H22 1_555 1_555
O10_4 Zn1_2 1_555 1_555
O29_3 Zn1_2 1_555 1_555
O10_4 H24 1_555 1_555
Zn2_3 O4_4 1_555 1_555
C2_4 O4_4 1_555 1_555
N1_4 C16_4 1_555 1_555
O6_4 Zn3_4 1_555 1_555
C3_4 C15_4 1_555 1_555
O7_4 C2_4 1_555 1_555
C6_4 H3_4 1_555 1_555
C7_4 H4_4 1_555 1_555
C10_4 C2_4 1_555 1_555
C12_4 C10_4 1_555 1_555
H6_4 C12_4 1_555 1_555
C15_4 C6_4 1_555 1_555
C16_4 C6_4 1_555 1_555
C18_4 N1_4 1_555 1_555
H9_4 C18_4 1_555 1_555
C19_6 N1_4 1_555 1_555
H10_6 C19_6 1_555 1_555
O9_5 Zn2_3 1_555 1_555
O11_4 Zn3_4 1_555 1_555
C30_4 O16_3 1_555 1_555
O16_3 Zn9_3 1_555 1_555
N4_4 C19_6 1_555 1_555
C31_4 C36_4 1_555 1_555
O17_3 C30_4 1_555 1_555
C32_4 H15_4 1_555 1_555
C33_4 H16_4 1_555 1_555
C34_4 C30_4 1_555 1_555
C35_4 C34_4 1_555 1_555
H17_4 C35_4 1_555 1_555
C36_4 C32_4 1_555 1_555
C37_4 N4_4 1_555 1_555
C38_4 C18_4 1_555 1_555
H18_4 C38_4 1_555 1_555
O18_4 C31_4 1_555 1_555
O19_4 C31_4 1_555 1_555
Zn6_3 O17_3 1_555 1_555
Zn12_3 O18_4 1_555 1_555
Zn14_3 O19_4 1_555 1_555
O22_4 Zn2_3 1_555 1_555
O26_4 Zn3_4 1_555 1_555
C3_4 O11_4 1_555 1_555
C7_4 C10_4 1_555 1_555
C7_4 C16_4 1_555 1_555
C12_4 C15_4 1_555 1_555
N4_4 C38_4 1_555 1_555
C32_4 C37_4 1_555 1_555
C33_4 C34_4 1_555 1_555
C33_4 C37_4 1_555 1_555
C35_4 C36_4 1_555 1_555
O1_4 C1_4 1_555 1_555
C1_4 O3_4 1_555 1_555
O22_3 C8_4 1_555 1_555
O3_4 Zn4_4 1_555 1_555
C4_4 H1_4 1_555 1_555
N2_4 C13_5 1_555 1_555
C5_4 H2_4 1_555 1_555
C9_4 H5_4 1_555 1_555
C11_4 C1_4 1_555 1_555
C13_5 H7_5 1_555 1_555
C14_4 N2_4 1_555 1_555
C17_4 N2_4 1_555 1_555
C20_4 C4_4 1_555 1_555
O10_5 Zn1_3 1_555 1_555
O12_4 C21_4 1_555 1_555
C21_4 C25_4 1_555 1_555
C22_4 H11_4 1_555 1_555
N3_4 C13_5 1_555 1_555
C23_4 H12_4 1_555 1_555
C24_4 H13_4 1_555 1_555
C25_4 C22_4 1_555 1_555
C26_4 N3_4 1_555 1_555
C27_4 C17_4 1_555 1_555
C28_4 C22_4 1_555 1_555
O23 C29_4 1_555 1_555
C29_4 C28_4 1_555 1_555
O14_4 C21_4 1_555 1_555
Zn4_4 O5_4 1_555 1_555
O20_4 Zn4_4 1_555 1_555
Zn11_3 O14_4 1_555 1_555
O21_4 Zn4_4 1_555 1_555
O28_4 Zn1_3 1_555 1_555
O30_4 Zn4_4 1_555 1_555
C4_4 C11_4 1_555 1_555
C5_4 C14_4 1_555 1_555
C5_4 C20_4 1_555 1_555
C8_4 C20_4 1_555 1_555
C9_4 C11_4 1_555 1_555
C9_4 C14_4 1_555 1_555
N3_4 C27_4 1_555 1_555
C23_4 C26_4 1_555 1_555
C23_4 C28_4 1_555 1_555
C24_4 C25_4 1_555 1_555
C24_4 C26_4 1_555 1_555
O10_5 H23 1_555 1_555
Zn8_3 O13_4 1_555 1_555
O9_6 Zn2_4 1_555 1_555
O22_5 Zn2_4 1_555 1_555
O23_4 Zn2_4 1_555 1_555
Zn1_4 O7_5 1_555 1_555
Zn3_5 O1_5 1_555 1_555
O1_5 C1_5 1_555 1_555
C1_5 O3_5 1_555 1_555
O2_3 C8_5 1_555 1_555
O3_5 Zn4_5 1_555 1_555
C2_5 O4_5 1_555 1_555
N1_5 C16_5 1_555 1_555
O5_5 C3_5 1_555 1_555
O6_5 Zn3_5 1_555 1_555
C3_5 C15_5 1_555 1_555
O7_5 C2_5 1_555 1_555
C4_5 H1_5 1_555 1_555
N2_5 C13_6 1_555 1_555
C5_5 H2_5 1_555 1_555
C6_5 H3_5 1_555 1_555
C7_5 H4_5 1_555 1_555
C8_5 O8_3 1_555 1_555
C9_5 H5_5 1_555 1_555
C10_5 C2_5 1_555 1_555
C11_5 C1_5 1_555 1_555
O8_3 Zn7_3 1_555 1_555
C12_5 C10_5 1_555 1_555
H6_5 C12_5 1_555 1_555
C13_6 H7_6 1_555 1_555
C14_5 N2_5 1_555 1_555
C15_5 C6_5 1_555 1_555
C16_5 C6_5 1_555 1_555
C17_5 N2_5 1_555 1_555
H8_5 C17_5 1_555 1_555
C18_5 N1_5 1_555 1_555
H9_5 C18_5 1_555 1_555
C19_7 N1_5 1_555 1_555
H10_7 C19_7 1_555 1_555
C20_5 C4_5 1_555 1_555
O10_6 Zn1_4 1_555 1_555
O11_5 Zn3_5 1_555 1_555
O12_5 C21_5 1_555 1_555
C21_5 C25_5 1_555 1_555
C22_5 H11_5 1_555 1_555
N3_5 C13_6 1_555 1_555
C23_5 H12_5 1_555 1_555
C24_5 H13_5 1_555 1_555
C25_5 C22_5 1_555 1_555
C26_5 N3_5 1_555 1_555
C27_5 C17_5 1_555 1_555
H14_5 C27_5 1_555 1_555
C28_5 C22_5 1_555 1_555
C29_5 C28_5 1_555 1_555
O14_5 C21_5 1_555 1_555
O15_4 C29_5 1_555 1_555
Zn4_5 O5_5 1_555 1_555
O20_5 Zn4_5 1_555 1_555
Zn5_3 O15_4 1_555 1_555
Zn10_3 O2_3 1_555 1_555
Zn11_3 O12_5 1_555 1_555
O21_5 Zn4_5 1_555 1_555
O24_5 Zn3_5 1_555 1_555
O26_5 Zn3_5 1_555 1_555
O27_4 Zn1_4 1_555 1_555
O28_5 Zn1_4 1_555 1_555
O29_4 Zn1_4 1_555 1_555
O30_5 Zn4_5 1_555 1_555
C3_5 O11_5 1_555 1_555
C4_5 C11_5 1_555 1_555
C5_5 C14_5 1_555 1_555
C5_5 C20_5 1_555 1_555
C7_5 C10_5 1_555 1_555
C7_5 C16_5 1_555 1_555
C8_5 C20_5 1_555 1_555
C9_5 C11_5 1_555 1_555
C9_5 C14_5 1_555 1_555
C12_5 C15_5 1_555 1_555
N3_5 C27_5 1_555 1_555
C23_5 C26_5 1_555 1_555
C23_5 C28_5 1_555 1_555
C24_5 C25_5 1_555 1_555
C24_5 C26_5 1_555 1_555
H10_8 C19_8 1_555 1_555
C30_5 O16_4 1_555 1_555
N4_5 C19_8 1_555 1_555
C31_5 C36_5 1_555 1_555
O17_4 C30_5 1_555 1_555
C32_5 H15_5 1_555 1_555
C33_5 H16_5 1_555 1_555
C34_5 C30_5 1_555 1_555
C35_5 C34_5 1_555 1_555
H17_5 C35_5 1_555 1_555
C36_5 C32_5 1_555 1_555
C37_5 N4_5 1_555 1_555
H18_5 C38_5 1_555 1_555
O18_5 C31_5 1_555 1_555
O19_5 C31_5 1_555 1_555
Zn6_4 O17_4 1_555 1_555
Zn14_3 O18_5 1_555 1_555
Zn12_3 O19_5 1_555 1_555
N4_5 C38_5 1_555 1_555
C32_5 C37_5 1_555 1_555
C33_5 C34_5 1_555 1_555
C33_5 C37_5 1_555 1_555
C35_5 C36_5 1_555 1_555
H10_9 C19_9 1_555 1_555
C30_6 O25_4 1_555 1_555
N4_6 C19_9 1_555 1_555
C31_6 C36_6 1_555 1_555
O27_4 C30_6 1_555 1_555
C32_6 H15_6 1_555 1_555
C33_6 H16_6 1_555 1_555
C34_6 C30_6 1_555 1_555
C35_6 C34_6 1_555 1_555
H17_6 C35_6 1_555 1_555
C36_6 C32_6 1_555 1_555
C37_6 N4_6 1_555 1_555
O19_6 C31_6 1_555 1_555
Zn13_3 O19_6 1_555 1_555
N4_6 C38_6 1_555 1_555
C32_6 C37_6 1_555 1_555
C33_6 C34_6 1_555 1_555
C33_6 C37_6 1_555 1_555
C35_6 C36_6 1_555 1_555
Zn11_3 O18_6 1_555 1_555
O9_7 Zn9_4 1_555 1_555
O22_6 Zn9_4 1_555 1_555
O23_5 Zn9_4 1_555 1_555
Zn6_4 O7_6 1_555 1_555
C2_6 O4_6 1_555 1_555
N1_6 C16_6 1_555 1_555
O26_4 C3_6 1_555 1_555
C3_6 C15_6 1_555 1_555
O7_6 C2_6 1_555 1_555
C6_6 H3_6 1_555 1_555
C7_6 H4_6 1_555 1_555
C10_6 C2_6 1_555 1_555
C12_6 C10_6 1_555 1_555
H6_6 C12_6 1_555 1_555
C15_6 C6_6 1_555 1_555
C16_6 C6_6 1_555 1_555
C18_6 N1_6 1_555 1_555
C19_10 N1_6 1_555 1_555
H10_10 C19_10 1_555 1_555
O10_7 Zn6_4 1_555 1_555
Zn8_3 O2_4 1_555 1_555
O28_6 Zn6_4 1_555 1_555
O29_5 Zn6_4 1_555 1_555
C7_6 C10_6 1_555 1_555
C7_6 C16_6 1_555 1_555
C12_6 C15_6 1_555 1_555
O21_4 C1_6 1_555 1_555
C1_6 O24_4 1_555 1_555
C4_6 H1_6 1_555 1_555
N2_6 C13_7 1_555 1_555
C5_6 H2_6 1_555 1_555
C8_6 O8_4 1_555 1_555
C9_6 H5_6 1_555 1_555
C11_6 C1_6 1_555 1_555
O8_4 Zn5_3 1_555 1_555
C13_7 H7_7 1_555 1_555
C14_6 N2_6 1_555 1_555
C17_6 N2_6 1_555 1_555
H8_6 C17_6 1_555 1_555
C20_6 C4_6 1_555 1_555
O12_6 C21_6 1_555 1_555
C21_6 C25_6 1_555 1_555
C22_6 H11_6 1_555 1_555
N3_6 C13_7 1_555 1_555
C23_6 H12_6 1_555 1_555
C24_6 H13_6 1_555 1_555
C25_6 C22_6 1_555 1_555
C26_6 N3_6 1_555 1_555
C27_6 C17_6 1_555 1_555
H14_6 C27_6 1_555 1_555
C28_6 C22_6 1_555 1_555
O13_5 C29_6 1_555 1_555
C29_6 C28_6 1_555 1_555
O14_6 C21_6 1_555 1_555
O15_5 C29_6 1_555 1_555
Zn7_3 O15_5 1_555 1_555
Zn10_3 O13_5 1_555 1_555
Zn12_3 O14_6 1_555 1_555
Zn14_3 O12_6 1_555 1_555
C4_6 C11_6 1_555 1_555
C5_6 C14_6 1_555 1_555
C5_6 C20_6 1_555 1_555
C8_6 C20_6 1_555 1_555
C9_6 C11_6 1_555 1_555
C9_6 C14_6 1_555 1_555
N3_6 C27_6 1_555 1_555
C23_6 C26_6 1_555 1_555
C23_6 C28_6 1_555 1_555
C24_6 C25_6 1_555 1_555
C24_6 C26_6 1_555 1_555
O10_8 Zn1_5 1_555 1_555
O29_6 Zn1_5 1_555 1_555
O10_8 H24_2 1_555 1_555
O9_8 Zn2_5 1_555 1_555
O23_6 Zn2_5 1_555 1_555
O25_5 Zn2_5 1_555 1_555
O9_8 H21_2 1_555 1_555
O9_8 H22_2 1_555 1_555
O21_3 C1_7 1_555 1_555
C1_7 O24_3 1_555 1_555
O22_6 C8_7 1_555 1_555
C4_7 H1_7 1_555 1_555
N2_7 C13_8 1_555 1_555
C5_7 H2_7 1_555 1_555
C9_7 H5_7 1_555 1_555
C11_7 C1_7 1_555 1_555
C13_8 H7_8 1_555 1_555
C14_7 N2_7 1_555 1_555
C17_7 N2_7 1_555 1_555
C20_7 C4_7 1_555 1_555
O10_9 Zn1_6 1_555 1_555
O12_7 C21_7 1_555 1_555
C21_7 C25_7 1_555 1_555
C22_7 H11_7 1_555 1_555
N3_7 C13_8 1_555 1_555
C23_7 H12_7 1_555 1_555
C24_7 H13_7 1_555 1_555
C25_7 C22_7 1_555 1_555
C26_7 N3_7 1_555 1_555
C27_7 C17_7 1_555 1_555
C28_7 C22_7 1_555 1_555
O23_4 C29_7 1_555 1_555
C29_7 C28_7 1_555 1_555
O14_7 C21_7 1_555 1_555
Zn13 O14_7 1_555 1_555
O28_7 Zn1_6 1_555 1_555
C4_7 C11_7 1_555 1_555
C5_7 C14_7 1_555 1_555
C5_7 C20_7 1_555 1_555
C8_7 C20_7 1_555 1_555
C9_7 C11_7 1_555 1_555
C9_7 C14_7 1_555 1_555
N3_7 C27_7 1_555 1_555
C23_7 C26_7 1_555 1_555
C23_7 C28_7 1_555 1_555
C24_7 C25_7 1_555 1_555
C24_7 C26_7 1_555 1_555
O10_9 H23_2 1_555 1_555
Zn2_6 O4_7 1_555 1_555
C2_7 O4_7 1_555 1_555
N1_7 C16_7 1_555 1_555
C3_7 C15_7 1_555 1_555
O7_7 C2_7 1_555 1_555
C6_7 H3_7 1_555 1_555
C7_7 H4_7 1_555 1_555
C10_7 C2_7 1_555 1_555
C12_7 C10_7 1_555 1_555
H6_7 C12_7 1_555 1_555
C15_7 C6_7 1_555 1_555
C16_7 C6_7 1_555 1_555
C18_7 N1_7 1_555 1_555
H9_7 C18_7 1_555 1_555
C19_11 N1_7 1_555 1_555
H10_11 C19_11 1_555 1_555
O9_9 Zn2_6 1_555 1_555
C30_7 O16_5 1_555 1_555
O16_5 Zn9_6 1_555 1_555
N4_7 C19_11 1_555 1_555
C31_7 C36_7 1_555 1_555
O17_5 C30_7 1_555 1_555
C32_7 H15_7 1_555 1_555
C33_7 H16_7 1_555 1_555
C34_7 C30_7 1_555 1_555
C35_7 C34_7 1_555 1_555
H17_7 C35_7 1_555 1_555
C36_7 C32_7 1_555 1_555
C37_7 N4_7 1_555 1_555
C38_7 C18_7 1_555 1_555
H18_7 C38_7 1_555 1_555
O18_7 C31_7 1_555 1_555
O19_7 C31_7 1_555 1_555
Zn6_6 O17_5 1_555 1_555
Zn14 O18_7 1_555 1_555
Zn12 O19_7 1_555 1_555
O22_7 Zn2_6 1_555 1_555
C3_7 O30_3 1_555 1_555
C7_7 C10_7 1_555 1_555
C7_7 C16_7 1_555 1_555
C12_7 C15_7 1_555 1_555
N4_7 C38_7 1_555 1_555
C32_7 C37_7 1_555 1_555
C33_7 C34_7 1_555 1_555
C33_7 C37_7 1_555 1_555
C35_7 C36_7 1_555 1_555
C13_9 H7_9 1_555 1_555
O12_8 C21_8 1_555 1_555
C21_8 C25_8 1_555 1_555
C22_8 H11_8 1_555 1_555
N3_8 C13_9 1_555 1_555
C23_8 H12_8 1_555 1_555
C24_8 H13_8 1_555 1_555
C25_8 C22_8 1_555 1_555
C26_8 N3_8 1_555 1_555
H14_8 C27_8 1_555 1_555
C28_8 C22_8 1_555 1_555
O13_6 C29_8 1_555 1_555
C29_8 C28_8 1_555 1_555
O14_8 C21_8 1_555 1_555
O15_6 C29_8 1_555 1_555
Zn5_4 O15_6 1_555 1_555
Zn8_4 O13_6 1_555 1_555
Zn11_4 O14_8 1_555 1_555
N3_8 C27_8 1_555 1_555
C23_8 C26_8 1_555 1_555
C23_8 C28_8 1_555 1_555
C24_8 C25_8 1_555 1_555
C24_8 C26_8 1_555 1_555
Zn8_3 O4_8 1_555 1_555
C2_8 O4_8 1_555 1_555
N1_8 C16_8 1_555 1_555
O6_6 Zn3_6 1_555 1_555
C3_8 C15_8 1_555 1_555
O7_8 C2_8 1_555 1_555
C6_8 H3_8 1_555 1_555
C7_8 H4_8 1_555 1_555
C10_8 C2_8 1_555 1_555
C12_8 C10_8 1_555 1_555
H6_8 C12_8 1_555 1_555
C15_8 C6_8 1_555 1_555
C16_8 C6_8 1_555 1_555
C18_8 N1_8 1_555 1_555
H9_8 C18_8 1_555 1_555
C19_12 N1_8 1_555 1_555
H10_12 C19_12 1_555 1_555
O9_10 Zn8_3 1_555 1_555
O11_6 Zn3_6 1_555 1_555
C30_8 O16_6 1_555 1_555
O16_6 Zn10_3 1_555 1_555
N4_8 C19_12 1_555 1_555
C31_8 C36_8 1_555 1_555
O17_6 C30_8 1_555 1_555
C32_8 H15_8 1_555 1_555
C33_8 H16_8 1_555 1_555
C34_8 C30_8 1_555 1_555
C35_8 C34_8 1_555 1_555
H17_8 C35_8 1_555 1_555
C36_8 C32_8 1_555 1_555
C37_8 N4_8 1_555 1_555
C38_8 C18_8 1_555 1_555
H18_8 C38_8 1_555 1_555
O18_8 C31_8 1_555 1_555
O19_8 C31_8 1_555 1_555
Zn7_3 O17_6 1_555 1_555
Zn12_4 O18_8 1_555 1_555
Zn14_4 O19_8 1_555 1_555
O25_6 Zn8_3 1_555 1_555
O26_6 Zn3_6 1_555 1_555
C3_8 O11_6 1_555 1_555
C7_8 C10_8 1_555 1_555
C7_8 C16_8 1_555 1_555
C12_8 C15_8 1_555 1_555
N4_8 C38_8 1_555 1_555
C32_8 C37_8 1_555 1_555
C33_8 C34_8 1_555 1_555
C33_8 C37_8 1_555 1_555
C35_8 C36_8 1_555 1_555
O1_6 C1_8 1_555 1_555
C1_8 O3_6 1_555 1_555
O2_5 C8_8 1_555 1_555
O3_6 Zn4_6 1_555 1_555
C4_8 H1_8 1_555 1_555
N2_8 C13_10 1_555 1_555
C5_8 H2_8 1_555 1_555
C8_8 O8_5 1_555 1_555
C9_8 H5_8 1_555 1_555
C11_8 C1_8 1_555 1_555
O8_5 Zn7_4 1_555 1_555
C13_10 H7_10 1_555 1_555
C14_8 N2_8 1_555 1_555
C17_8 N2_8 1_555 1_555
H8_8 C17_8 1_555 1_555
C20_8 C4_8 1_555 1_555
O10_10 Zn5_3 1_555 1_555
Zn4_6 O5_6 1_555 1_555
O20_6 Zn4_6 1_555 1_555
Zn10_4 O2_5 1_555 1_555
O21_6 Zn4_6 1_555 1_555
O30_6 Zn4_6 1_555 1_555
C4_8 C11_8 1_555 1_555
C5_8 C14_8 1_555 1_555
C5_8 C20_8 1_555 1_555
C8_8 C20_8 1_555 1_555
C9_8 C11_8 1_555 1_555
C9_8 C14_8 1_555 1_555
Zn7_2 O7_9 1_555 1_555
Zn10_2 O4_9 1_555 1_555
C2_9 O4_9 1_555 1_555
N1_9 C16_9 1_555 1_555
O26_6 C3_9 1_555 1_555
C3_9 C15_9 1_555 1_555
O7_9 C2_9 1_555 1_555
C6_9 H3_9 1_555 1_555
C7_9 H4_9 1_555 1_555
C10_9 C2_9 1_555 1_555
C12_9 C10_9 1_555 1_555
H6_9 C12_9 1_555 1_555
C15_9 C6_9 1_555 1_555
C16_9 C6_9 1_555 1_555
C18_9 N1_9 1_555 1_555
C19_13 N1_9 1_555 1_555
H10_13 C19_13 1_555 1_555
O9_11 Zn10_2 1_555 1_555
O10_11 Zn7_2 1_555 1_555
C30_9 O16_7 1_555 1_555
O16_7 Zn8_2 1_555 1_555
N4_9 C19_13 1_555 1_555
C31_9 C36_9 1_555 1_555
O17_7 C30_9 1_555 1_555
C32_9 H15_9 1_555 1_555
C33_9 H16_9 1_555 1_555
C34_9 C30_9 1_555 1_555
C35_9 C34_9 1_555 1_555
H17_9 C35_9 1_555 1_555
C36_9 C32_9 1_555 1_555
C37_9 N4_9 1_555 1_555
C38_9 C18_9 1_555 1_555
O19_9 C31_9 1_555 1_555
Zn5_2 O17_7 1_555 1_555
Zn13_4 O19_9 1_555 1_555
O23_7 Zn10_2 1_555 1_555
O25_7 Zn10_2 1_555 1_555
O27_7 Zn7_2 1_555 1_555
O29_7 Zn7_2 1_555 1_555
C7_9 C10_9 1_555 1_555
C7_9 C16_9 1_555 1_555
C12_9 C15_9 1_555 1_555
N4_9 C38_9 1_555 1_555
C32_9 C37_9 1_555 1_555
C33_9 C34_9 1_555 1_555
C33_9 C37_9 1_555 1_555
C35_9 C36_9 1_555 1_555
O21_6 C1_9 1_555 1_555
C1_9 O24_6 1_555 1_555
C4_9 H1_9 1_555 1_555
N2_9 C13_11 1_555 1_555
C5_9 H2_9 1_555 1_555
C8_9 O28_4 1_555 1_555
C9_9 H5_9 1_555 1_555
C11_9 C1_9 1_555 1_555
C13_11 H7_11 1_555 1_555
C14_9 N2_9 1_555 1_555
C17_9 N2_9 1_555 1_555
H8_9 C17_9 1_555 1_555
C20_9 C4_9 1_555 1_555
O12_9 C21_9 1_555 1_555
C21_9 C25_9 1_555 1_555
C22_9 H11_9 1_555 1_555
N3_9 C13_11 1_555 1_555
C23_9 H12_9 1_555 1_555
C24_9 H13_9 1_555 1_555
C25_9 C22_9 1_555 1_555
C26_9 N3_9 1_555 1_555
C27_9 C17_9 1_555 1_555
H14_9 C27_9 1_555 1_555
C28_9 C22_9 1_555 1_555
O13_7 C29_9 1_555 1_555
C29_9 C28_9 1_555 1_555
O14_9 C21_9 1_555 1_555
O15_7 C29_9 1_555 1_555
Zn6_3 O15_7 1_555 1_555
Zn9_3 O13_7 1_555 1_555
Zn12_4 O14_9 1_555 1_555
Zn11_4 O18_9 1_555 1_555
Zn14_4 O12_9 1_555 1_555
C4_9 C11_9 1_555 1_555
C5_9 C14_9 1_555 1_555
C5_9 C20_9 1_555 1_555
C8_9 C20_9 1_555 1_555
C9_9 C11_9 1_555 1_555
C9_9 C14_9 1_555 1_555
N3_9 C27_9 1_555 1_555
C23_9 C26_9 1_555 1_555
C23_9 C28_9 1_555 1_555
C24_9 C25_9 1_555 1_555
C24_9 C26_9 1_555 1_555
Zn6_2 O7_10 1_555 1_555
Zn9_2 O4_10 1_555 1_555
O21_5 C1_10 1_555 1_555
C1_10 O24_5 1_555 1_555
O22 C8_10 1_555 1_555
C2_10 O4_10 1_555 1_555
N1_10 C16_10 1_555 1_555
O26_5 C3_10 1_555 1_555
C3_10 C15_10 1_555 1_555
O7_10 C2_10 1_555 1_555
C4_10 H1_10 1_555 1_555
N2_10 C13_12 1_555 1_555
C5_10 H2_10 1_555 1_555
C6_10 H3_10 1_555 1_555
C7_10 H4_10 1_555 1_555
C9_10 H5_10 1_555 1_555
C10_10 C2_10 1_555 1_555
C11_10 C1_10 1_555 1_555
C12_10 C10_10 1_555 1_555
H6_10 C12_10 1_555 1_555
C13_12 H7_12 1_555 1_555
C14_10 N2_10 1_555 1_555
C15_10 C6_10 1_555 1_555
C16_10 C6_10 1_555 1_555
C17_10 N2_10 1_555 1_555
C18_10 N1_10 1_555 1_555
H9_10 C18_10 1_555 1_555
C19_14 N1_10 1_555 1_555
H10_14 C19_14 1_555 1_555
O9_12 Zn9_2 1_555 1_555
C20_10 C4_10 1_555 1_555
O10_12 Zn6_2 1_555 1_555
O12_10 C21_10 1_555 1_555
C21_10 C25_10 1_555 1_555
C22_10 H11_10 1_555 1_555
N3_10 C13_12 1_555 1_555
C23_10 H12_10 1_555 1_555
C24_10 H13_10 1_555 1_555
C25_10 C22_10 1_555 1_555
C26_10 N3_10 1_555 1_555
C27_10 C17_10 1_555 1_555
C28_10 C22_10 1_555 1_555
O23_2 C29_10 1_555 1_555
C29_10 C28_10 1_555 1_555
O14_10 C21_10 1_555 1_555
C30_10 O25_3 1_555 1_555
N4_10 C19_14 1_555 1_555
C31_10 C36_10 1_555 1_555
O27_3 C30_10 1_555 1_555
C32_10 H15_10 1_555 1_555
C33_10 H16_10 1_555 1_555
C34_10 C30_10 1_555 1_555
C35_10 C34_10 1_555 1_555
H17_10 C35_10 1_555 1_555
C36_10 C32_10 1_555 1_555
C37_10 N4_10 1_555 1_555
C38_10 C18_10 1_555 1_555
H18_10 C38_10 1_555 1_555
O18_10 C31_10 1_555 1_555
Zn14_3 O14_10 1_555 1_555
Zn13_3 O18_10 1_555 1_555
Zn12_3 O12_10 1_555 1_555
O22_8 Zn9_2 1_555 1_555
O28_8 Zn6_2 1_555 1_555
C3_10 O30_5 1_555 1_555
C4_10 C11_10 1_555 1_555
C5_10 C14_10 1_555 1_555
C5_10 C20_10 1_555 1_555
C7_10 C10_10 1_555 1_555
C7_10 C16_10 1_555 1_555
C8_10 C20_10 1_555 1_555
C9_10 C11_10 1_555 1_555
C9_10 C14_10 1_555 1_555
C12_10 C15_10 1_555 1_555
N3_10 C27_10 1_555 1_555
C23_10 C26_10 1_555 1_555
C23_10 C28_10 1_555 1_555
C24_10 C25_10 1_555 1_555
C24_10 C26_10 1_555 1_555
N4_10 C38_10 1_555 1_555
C32_10 C37_10 1_555 1_555
C33_10 C34_10 1_555 1_555
C33_10 C37_10 1_555 1_555
C35_10 C36_10 1_555 1_555
O10_12 H23_3 1_555 1_555
Zn11_3 O19_10 1_555 1_555
O9_13 Zn9_3 1_555 1_555
O10_13 Zn6_3 1_555 1_555
O9_13 H21_3 1_555 1_555
O9_13 H22_3 1_555 1_555
O10_13 H24_3 1_555 1_555
Zn5_2 O7_11 1_555 1_555
Zn8_2 O4_11 1_555 1_555
Zn3_7 O1_7 1_555 1_555
O1_7 C1_11 1_555 1_555
C1_11 O3_7 1_555 1_555
O22_8 C8_11 1_555 1_555
O3_7 Zn4_7 1_555 1_555
C2_11 O4_11 1_555 1_555
N1_11 C16_11 1_555 1_555
O5_7 C3_11 1_555 1_555
O6_7 Zn3_7 1_555 1_555
C3_11 C15_11 1_555 1_555
O7_11 C2_11 1_555 1_555
C4_11 H1_11 1_555 1_555
N2_11 C13_13 1_555 1_555
C5_11 H2_11 1_555 1_555
C6_11 H3_11 1_555 1_555
C7_11 H4_11 1_555 1_555
C8_11 O28_8 1_555 1_555
C9_11 H5_11 1_555 1_555
C10_11 C2_11 1_555 1_555
C11_11 C1_11 1_555 1_555
C12_11 C10_11 1_555 1_555
H6_11 C12_11 1_555 1_555
C13_13 H7_13 1_555 1_555
C14_11 N2_11 1_555 1_555
C15_11 C6_11 1_555 1_555
C16_11 C6_11 1_555 1_555
C17_11 N2_11 1_555 1_555
H8_11 C17_11 1_555 1_555
C18_11 N1_11 1_555 1_555
H9_11 C18_11 1_555 1_555
C19_15 N1_11 1_555 1_555
H10_15 C19_15 1_555 1_555
O9_14 Zn8_2 1_555 1_555
C20_11 C4_11 1_555 1_555
O10_14 Zn5_2 1_555 1_555
O11_7 Zn3_7 1_555 1_555
O12_11 C21_11 1_555 1_555
C21_11 C25_11 1_555 1_555
C22_11 H11_11 1_555 1_555
N3_11 C13_13 1_555 1_555
C23_11 H12_11 1_555 1_555
C24_11 H13_11 1_555 1_555
C25_11 C22_11 1_555 1_555
C26_11 N3_11 1_555 1_555
C27_11 C17_11 1_555 1_555
H14_11 C27_11 1_555 1_555
C28_11 C22_11 1_555 1_555
C29_11 C28_11 1_555 1_555
O14_11 C21_11 1_555 1_555
O29_3 C29_11 1_555 1_555
C30_11 O25_7 1_555 1_555
N4_11 C19_15 1_555 1_555
C31_11 C36_11 1_555 1_555
O27_7 C30_11 1_555 1_555
C32_11 H15_11 1_555 1_555
C33_11 H16_11 1_555 1_555
C34_11 C30_11 1_555 1_555
C35_11 C34_11 1_555 1_555
H17_11 C35_11 1_555 1_555
C36_11 C32_11 1_555 1_555
C37_11 N4_11 1_555 1_555
C38_11 C18_11 1_555 1_555
H18_11 C38_11 1_555 1_555
O18_11 C31_11 1_555 1_555
O19_11 C31_11 1_555 1_555
Zn4_7 O5_7 1_555 1_555
O20_7 Zn4_7 1_555 1_555
Zn14_4 O18_11 1_555 1_555
Zn11_4 O12_11 1_555 1_555
Zn12_4 O19_11 1_555 1_555
O21_7 Zn4_7 1_555 1_555
O22_9 Zn8_2 1_555 1_555
O24_7 Zn3_7 1_555 1_555
O26_7 Zn3_7 1_555 1_555
O28_9 Zn5_2 1_555 1_555
O30_7 Zn4_7 1_555 1_555
C3_11 O11_7 1_555 1_555
C4_11 C11_11 1_555 1_555
C5_11 C14_11 1_555 1_555
C5_11 C20_11 1_555 1_555
C7_11 C10_11 1_555 1_555
C7_11 C16_11 1_555 1_555
C8_11 C20_11 1_555 1_555
C9_11 C11_11 1_555 1_555
C9_11 C14_11 1_555 1_555
C12_11 C15_11 1_555 1_555
N3_11 C27_11 1_555 1_555
C23_11 C26_11 1_555 1_555
C23_11 C28_11 1_555 1_555
C24_11 C25_11 1_555 1_555
C24_11 C26_11 1_555 1_555
N4_11 C38_11 1_555 1_555
C32_11 C37_11 1_555 1_555
C33_11 C34_11 1_555 1_555
C33_11 C37_11 1_555 1_555
C35_11 C36_11 1_555 1_555
Zn11_2 O19_12 1_555 1_555
Zn7 O7_12 1_555 1_555
Zn10 O4_12 1_555 1_555
Zn3_8 O1_8 1_555 1_555
O1_8 C1_12 1_555 1_555
C1_12 O3_8 1_555 1_555
O22_9 C8_12 1_555 1_555
O3_8 Zn4_8 1_555 1_555
C2_12 O4_12 1_555 1_555
N1_12 C16_12 1_555 1_555
O5_8 C3_12 1_555 1_555
O6_8 Zn3_8 1_555 1_555
C3_12 C15_12 1_555 1_555
O7_12 C2_12 1_555 1_555
C4_12 H1_12 1_555 1_555
N2_12 C13_14 1_555 1_555
C5_12 H2_12 1_555 1_555
C6_12 H3_12 1_555 1_555
C7_12 H4_12 1_555 1_555
C8_12 O28_9 1_555 1_555
C9_12 H5_12 1_555 1_555
C10_12 C2_12 1_555 1_555
C11_12 C1_12 1_555 1_555
C12_12 C10_12 1_555 1_555
H6_12 C12_12 1_555 1_555
C13_14 H7_14 1_555 1_555
C14_12 N2_12 1_555 1_555
C15_12 C6_12 1_555 1_555
C16_12 C6_12 1_555 1_555
C17_12 N2_12 1_555 1_555
H8_12 C17_12 1_555 1_555
C18_12 N1_12 1_555 1_555
H9_12 C18_12 1_555 1_555
C19_16 N1_12 1_555 1_555
H10_16 C19_16 1_555 1_555
O9_15 Zn10 1_555 1_555
C20_12 C4_12 1_555 1_555
O10_15 Zn7 1_555 1_555
O11_8 Zn3_8 1_555 1_555
C30_12 O25_2 1_555 1_555
N4_12 C19_16 1_555 1_555
C31_12 C36_12 1_555 1_555
O27_2 C30_12 1_555 1_555
C32_12 H15_12 1_555 1_555
C33_12 H16_12 1_555 1_555
C34_12 C30_12 1_555 1_555
C35_12 C34_12 1_555 1_555
H17_12 C35_12 1_555 1_555
C36_12 C32_12 1_555 1_555
C37_12 N4_12 1_555 1_555
C38_12 C18_12 1_555 1_555
H18_12 C38_12 1_555 1_555
O18_12 C31_12 1_555 1_555
Zn4_8 O5_8 1_555 1_555
O20_8 Zn4_8 1_555 1_555
Zn13_2 O18_12 1_555 1_555
O21_8 Zn4_8 1_555 1_555
O24_8 Zn3_8 1_555 1_555
O26_8 Zn3_8 1_555 1_555
O30_8 Zn4_8 1_555 1_555
C3_12 O11_8 1_555 1_555
C4_12 C11_12 1_555 1_555
C5_12 C14_12 1_555 1_555
C5_12 C20_12 1_555 1_555
C7_12 C10_12 1_555 1_555
C7_12 C16_12 1_555 1_555
C8_12 C20_12 1_555 1_555
C9_12 C11_12 1_555 1_555
C9_12 C14_12 1_555 1_555
C12_12 C15_12 1_555 1_555
N4_12 C38_12 1_555 1_555
C32_12 C37_12 1_555 1_555
C33_12 C34_12 1_555 1_555
C33_12 C37_12 1_555 1_555
C35_12 C36_12 1_555 1_555
C13_15 H7_15 1_555 1_555
O12_12 C21_12 1_555 1_555
C21_12 C25_12 1_555 1_555
C22_12 H11_12 1_555 1_555
N3_12 C13_15 1_555 1_555
C23_12 H12_12 1_555 1_555
C24_12 H13_12 1_555 1_555
C25_12 C22_12 1_555 1_555
C26_12 N3_12 1_555 1_555
H14_12 C27_12 1_555 1_555
C28_12 C22_12 1_555 1_555
O23_7 C29_12 1_555 1_555
C29_12 C28_12 1_555 1_555
O14_12 C21_12 1_555 1_555
O29_7 C29_12 1_555 1_555
Zn14_2 O14_12 1_555 1_555
Zn12_2 O12_12 1_555 1_555
N3_12 C27_12 1_555 1_555
C23_12 C26_12 1_555 1_555
C23_12 C28_12 1_555 1_555
C24_12 C25_12 1_555 1_555
C24_12 C26_12 1_555 1_555
O21_2 C1_13 1_555 1_555
C1_13 O24_2 1_555 1_555
C4_13 H1_13 1_555 1_555
N2_13 C13_16 1_555 1_555
C5_13 H2_13 1_555 1_555
C8_13 O28_7 1_555 1_555
C9_13 H5_13 1_555 1_555
C11_13 C1_13 1_555 1_555
C13_16 H7_16 1_555 1_555
C14_13 N2_13 1_555 1_555
C17_13 N2_13 1_555 1_555
H8_13 C17_13 1_555 1_555
C20_13 C4_13 1_555 1_555
O12_13 C21_13 1_555 1_555
C21_13 C25_13 1_555 1_555
C22_13 H11_13 1_555 1_555
N3_13 C13_16 1_555 1_555
C23_13 H12_13 1_555 1_555
C24_13 H13_13 1_555 1_555
C25_13 C22_13 1_555 1_555
C26_13 N3_13 1_555 1_555
C27_13 C17_13 1_555 1_555
H14_13 C27_13 1_555 1_555
C28_13 C22_13 1_555 1_555
O13_8 C29_13 1_555 1_555
C29_13 C28_13 1_555 1_555
O14_13 C21_13 1_555 1_555
O15_8 C29_13 1_555 1_555
Zn6_6 O15_8 1_555 1_555
Zn9_6 O13_8 1_555 1_555
Zn12_2 O14_13 1_555 1_555
Zn11_2 O18_13 1_555 1_555
Zn14_2 O12_13 1_555 1_555
C4_13 C11_13 1_555 1_555
C5_13 C14_13 1_555 1_555
C5_13 C20_13 1_555 1_555
C8_13 C20_13 1_555 1_555
C9_13 C11_13 1_555 1_555
C9_13 C14_13 1_555 1_555
N3_13 C27_13 1_555 1_555
C23_13 C26_13 1_555 1_555
C23_13 C28_13 1_555 1_555
C24_13 C25_13 1_555 1_555
C24_13 C26_13 1_555 1_555
Zn7_4 O7_13 1_555 1_555
Zn10_4 O4_13 1_555 1_555
C2_13 O4_13 1_555 1_555
N1_13 C16_13 1_555 1_555
O26_2 C3_13 1_555 1_555
C3_13 C15_13 1_555 1_555
O7_13 C2_13 1_555 1_555
C6_13 H3_13 1_555 1_555
C7_13 H4_13 1_555 1_555
C10_13 C2_13 1_555 1_555
C12_13 C10_13 1_555 1_555
H6_13 C12_13 1_555 1_555
C15_13 C6_13 1_555 1_555
C16_13 C6_13 1_555 1_555
C18_13 N1_13 1_555 1_555
C19_17 N1_13 1_555 1_555
H10_17 C19_17 1_555 1_555
O9_16 Zn10_4 1_555 1_555
O10_16 Zn7_4 1_555 1_555
C30_13 O16_8 1_555 1_555
O16_8 Zn8_4 1_555 1_555
N4_13 C19_17 1_555 1_555
C31_13 C36_13 1_555 1_555
O17_8 C30_13 1_555 1_555
C32_13 H15_13 1_555 1_555
C33_13 H16_13 1_555 1_555
C34_13 C30_13 1_555 1_555
C35_13 C34_13 1_555 1_555
H17_13 C35_13 1_555 1_555
C36_13 C32_13 1_555 1_555
C37_13 N4_13 1_555 1_555
C38_13 C18_13 1_555 1_555
O19_13 C31_13 1_555 1_555
Zn5_4 O17_8 1_555 1_555
Zn13_2 O19_13 1_555 1_555
O23_8 Zn10_4 1_555 1_555
O25_8 Zn10_4 1_555 1_555
O27_8 Zn7_4 1_555 1_555
O29_8 Zn7_4 1_555 1_555
C7_13 C10_13 1_555 1_555
C7_13 C16_13 1_555 1_555
C12_13 C15_13 1_555 1_555
N4_13 C38_13 1_555 1_555
C32_13 C37_13 1_555 1_555
C33_13 C34_13 1_555 1_555
C33_13 C37_13 1_555 1_555
C35_13 C36_13 1_555 1_555
Zn5_4 O7_14 1_555 1_555
Zn8_4 O4_14 1_555 1_555
O21_8 C1_14 1_555 1_555
C1_14 O24_8 1_555 1_555
O2_6 C8_14 1_555 1_555
C2_14 O4_14 1_555 1_555
N1_14 C16_14 1_555 1_555
O26_8 C3_14 1_555 1_555
C3_14 C15_14 1_555 1_555
O7_14 C2_14 1_555 1_555
C4_14 H1_14 1_555 1_555
N2_14 C13_17 1_555 1_555
C5_14 H2_14 1_555 1_555
C6_14 H3_14 1_555 1_555
C7_14 H4_14 1_555 1_555
C8_14 O8_6 1_555 1_555
C9_14 H5_14 1_555 1_555
C10_14 C2_14 1_555 1_555
C11_14 C1_14 1_555 1_555
O8_6 Zn6_5 1_555 1_555
C12_14 C10_14 1_555 1_555
H6_14 C12_14 1_555 1_555
C13_17 H7_17 1_555 1_555
C14_14 N2_14 1_555 1_555
C15_14 C6_14 1_555 1_555
C16_14 C6_14 1_555 1_555
C17_14 N2_14 1_555 1_555
H8_14 C17_14 1_555 1_555
C18_14 N1_14 1_555 1_555
H9_14 C18_14 1_555 1_555
C19_18 N1_14 1_555 1_555
H10_18 C19_18 1_555 1_555
O9_17 Zn8_4 1_555 1_555
C20_14 C4_14 1_555 1_555
O10_17 Zn5_4 1_555 1_555
O12_14 C21_14 1_555 1_555
C21_14 C25_14 1_555 1_555
C22_14 H11_14 1_555 1_555
N3_14 C13_17 1_555 1_555
C23_14 H12_14 1_555 1_555
C24_14 H13_14 1_555 1_555
C25_14 C22_14 1_555 1_555
C26_14 N3_14 1_555 1_555
C27_14 C17_14 1_555 1_555
H14_14 C27_14 1_555 1_555
C28_14 C22_14 1_555 1_555
C29_14 C28_14 1_555 1_555
O14_14 C21_14 1_555 1_555
O29_6 C29_14 1_555 1_555
C30_14 O25_8 1_555 1_555
N4_14 C19_18 1_555 1_555
C31_14 C36_14 1_555 1_555
O27_8 C30_14 1_555 1_555
C32_14 H15_14 1_555 1_555
C33_14 H16_14 1_555 1_555
C34_14 C30_14 1_555 1_555
C35_14 C34_14 1_555 1_555
H17_14 C35_14 1_555 1_555
C36_14 C32_14 1_555 1_555
C37_14 N4_14 1_555 1_555
C38_14 C18_14 1_555 1_555
H18_14 C38_14 1_555 1_555
O18_14 C31_14 1_555 1_555
O19_14 C31_14 1_555 1_555
Zn9_5 O2_6 1_555 1_555
Zn14_2 O18_14 1_555 1_555
Zn11_2 O12_14 1_555 1_555
Zn12_2 O19_14 1_555 1_555
O22_10 Zn8_4 1_555 1_555
O28_10 Zn5_4 1_555 1_555
C3_14 O30_8 1_555 1_555
C4_14 C11_14 1_555 1_555
C5_14 C14_14 1_555 1_555
C5_14 C20_14 1_555 1_555
C7_14 C10_14 1_555 1_555
C7_14 C16_14 1_555 1_555
C8_14 C20_14 1_555 1_555
C9_14 C11_14 1_555 1_555
C9_14 C14_14 1_555 1_555
C12_14 C15_14 1_555 1_555
N3_14 C27_14 1_555 1_555
C23_14 C26_14 1_555 1_555
C23_14 C28_14 1_555 1_555
C24_14 C25_14 1_555 1_555
C24_14 C26_14 1_555 1_555
N4_14 C38_14 1_555 1_555
C32_14 C37_14 1_555 1_555
C33_14 C34_14 1_555 1_555
C33_14 C37_14 1_555 1_555
C35_14 C36_14 1_555 1_555
Zn7_3 O7_15 1_555 1_555
Zn10_3 O4_15 1_555 1_555
O21_7 C1_15 1_555 1_555
C1_15 O24_7 1_555 1_555
O22_10 C8_15 1_555 1_555
C2_15 O4_15 1_555 1_555
N1_15 C16_15 1_555 1_555
O26_7 C3_15 1_555 1_555
C3_15 C15_15 1_555 1_555
O7_15 C2_15 1_555 1_555
C4_15 H1_15 1_555 1_555
N2_15 C13_18 1_555 1_555
C5_15 H2_15 1_555 1_555
C6_15 H3_15 1_555 1_555
C7_15 H4_15 1_555 1_555
C8_15 O28_10 1_555 1_555
C9_15 H5_15 1_555 1_555
C10_15 C2_15 1_555 1_555
C11_15 C1_15 1_555 1_555
C12_15 C10_15 1_555 1_555
H6_15 C12_15 1_555 1_555
C13_18 H7_18 1_555 1_555
C14_15 N2_15 1_555 1_555
C15_15 C6_15 1_555 1_555
C16_15 C6_15 1_555 1_555
C17_15 N2_15 1_555 1_555
H8_15 C17_15 1_555 1_555
C18_15 N1_15 1_555 1_555
H9_15 C18_15 1_555 1_555
C19_19 N1_15 1_555 1_555
H10_19 C19_19 1_555 1_555
O9_18 Zn10_3 1_555 1_555
C20_15 C4_15 1_555 1_555
O10_18 Zn7_3 1_555 1_555
C30_15 O25_6 1_555 1_555
N4_15 C19_19 1_555 1_555
C31_15 C36_15 1_555 1_555
O27_6 C30_15 1_555 1_555
C32_15 H15_15 1_555 1_555
C33_15 H16_15 1_555 1_555
C34_15 C30_15 1_555 1_555
C35_15 C34_15 1_555 1_555
H17_15 C35_15 1_555 1_555
C36_15 C32_15 1_555 1_555
C37_15 N4_15 1_555 1_555
C38_15 C18_15 1_555 1_555
H18_15 C38_15 1_555 1_555
O18_15 C31_15 1_555 1_555
Zn13_4 O18_15 1_555 1_555
C3_15 O30_7 1_555 1_555
C4_15 C11_15 1_555 1_555
C5_15 C14_15 1_555 1_555
C5_15 C20_15 1_555 1_555
C7_15 C10_15 1_555 1_555
C7_15 C16_15 1_555 1_555
C8_15 C20_15 1_555 1_555
C9_15 C11_15 1_555 1_555
C9_15 C14_15 1_555 1_555
C12_15 C15_15 1_555 1_555
N4_15 C38_15 1_555 1_555
C32_15 C37_15 1_555 1_555
C33_15 C34_15 1_555 1_555
C33_15 C37_15 1_555 1_555
C35_15 C36_15 1_555 1_555
Zn11_4 O19_15 1_555 1_555
C13_19 H7_19 1_555 1_555
O12_15 C21_15 1_555 1_555
C21_15 C25_15 1_555 1_555
C22_15 H11_15 1_555 1_555
N3_15 C13_19 1_555 1_555
C23_15 H12_15 1_555 1_555
C24_15 H13_15 1_555 1_555
C25_15 C22_15 1_555 1_555
C26_15 N3_15 1_555 1_555
H14_15 C27_15 1_555 1_555
C28_15 C22_15 1_555 1_555
O23_8 C29_15 1_555 1_555
C29_15 C28_15 1_555 1_555
O14_15 C21_15 1_555 1_555
O29_8 C29_15 1_555 1_555
Zn14_4 O14_15 1_555 1_555
Zn12_4 O12_15 1_555 1_555
N3_15 C27_15 1_555 1_555
C23_15 C26_15 1_555 1_555
C23_15 C28_15 1_555 1_555
C24_15 C25_15 1_555 1_555
C24_15 C26_15 1_555 1_555
Zn13 O19_16 1_555 1_555
Zn6_5 O7_16 1_555 1_555
Zn9_5 O4_16 1_555 1_555
O21 C1_16 1_555 1_555
C1_16 O24 1_555 1_555
O22_5 C8_16 1_555 1_555
C2_16 O4_16 1_555 1_555
N1_16 C16_16 1_555 1_555
O26 C3_16 1_555 1_555
C3_16 C15_16 1_555 1_555
O7_16 C2_16 1_555 1_555
C4_16 H1_16 1_555 1_555
N2_16 C13_20 1_555 1_555
C5_16 H2_16 1_555 1_555
C6_16 H3_16 1_555 1_555
C7_16 H4_16 1_555 1_555
C9_16 H5_16 1_555 1_555
C10_16 C2_16 1_555 1_555
C11_16 C1_16 1_555 1_555
C12_16 C10_16 1_555 1_555
H6_16 C12_16 1_555 1_555
C13_20 H7_20 1_555 1_555
C14_16 N2_16 1_555 1_555
C15_16 C6_16 1_555 1_555
C16_16 C6_16 1_555 1_555
C17_16 N2_16 1_555 1_555
C18_16 N1_16 1_555 1_555
H9_16 C18_16 1_555 1_555
C19_20 N1_16 1_555 1_555
H10_20 C19_20 1_555 1_555
O9_19 Zn9_5 1_555 1_555
C20_16 C4_16 1_555 1_555
O10_19 Zn6_5 1_555 1_555
O12_16 C21_16 1_555 1_555
C21_16 C25_16 1_555 1_555
C22_16 H11_16 1_555 1_555
N3_16 C13_20 1_555 1_555
C23_16 H12_16 1_555 1_555
C24_16 H13_16 1_555 1_555
C25_16 C22_16 1_555 1_555
C26_16 N3_16 1_555 1_555
C27_16 C17_16 1_555 1_555
C28_16 C22_16 1_555 1_555
O23_5 C29_16 1_555 1_555
C29_16 C28_16 1_555 1_555
O14_16 C21_16 1_555 1_555
C30_16 O25_5 1_555 1_555
N4_16 C19_20 1_555 1_555
C31_16 C36_16 1_555 1_555
O27_5 C30_16 1_555 1_555
C32_16 H15_16 1_555 1_555
C33_16 H16_16 1_555 1_555
C34_16 C30_16 1_555 1_555
C35_16 C34_16 1_555 1_555
H17_16 C35_16 1_555 1_555
C36_16 C32_16 1_555 1_555
C37_16 N4_16 1_555 1_555
C38_16 C18_16 1_555 1_555
H18_16 C38_16 1_555 1_555
O18_16 C31_16 1_555 1_555
Zn12 O14_16 1_555 1_555
Zn11 O18_16 1_555 1_555
Zn14 O12_16 1_555 1_555
C3_16 O30 1_555 1_555
C4_16 C11_16 1_555 1_555
C5_16 C14_16 1_555 1_555
C5_16 C20_16 1_555 1_555
C7_16 C10_16 1_555 1_555
C7_16 C16_16 1_555 1_555
C8_16 C20_16 1_555 1_555
C9_16 C11_16 1_555 1_555
C9_16 C14_16 1_555 1_555
C12_16 C15_16 1_555 1_555
N3_16 C27_16 1_555 1_555
C23_16 C26_16 1_555 1_555
C23_16 C28_16 1_555 1_555
C24_16 C25_16 1_555 1_555
C24_16 C26_16 1_555 1_555
N4_16 C38_16 1_555 1_555
C32_16 C37_16 1_555 1_555
C33_16 C34_16 1_555 1_555
C33_16 C37_16 1_555 1_555
C35_16 C36_16 1_555 1_555
O10_19 H23_4 1_555 1_555
O9_20 Zn9_6 1_555 1_555
O10_20 Zn6_6 1_555 1_555
O9_20 H21_4 1_555 1_555
O9_20 H22_4 1_555 1_555
O10_20 H24_4 1_555 1_555
O6_9 Zn14_3 1_555 1_555
O20_9 Zn12_3 1_555 1_555
O6_10 Zn13_4 1_555 1_555
O20_10 Zn11_4 1_555 1_555
O20_11 Zn13_3 1_555 1_555
O6_11 Zn11_3 1_555 1_555
O20_12 Zn13 1_555 1_555
O10_8 H23_5 1_555 1_555
O6_12 Zn11 1_555 1_555
O10_9 H24_5 1_555 1_555
O9_9 H21_5 1_555 1_555
O9_9 H22_5 1_555 1_555
O6_13 Zn12 1_555 1_555
O20_13 Zn14 1_555 1_555
O10_4 H23_6 1_555 1_555
O9_5 H21_6 1_555 1_555
O9_5 H22_6 1_555 1_555
O10_5 H24_6 1_555 1_555
O20_14 Zn11_2 1_555 1_555
O6_14 Zn13_2 1_555 1_555
O9_19 H21_7 1_555 1_555
O9_19 H22_7 1_555 1_555
O10_19 H24_7 1_555 1_555
O10_20 H23_7 1_555 1_555
O6_15 Zn14_2 1_555 1_555
O20_15 Zn12_2 1_555 1_555
O6_16 Zn12_4 1_555 1_555
O20_16 Zn14_4 1_555 1_555
O9_12 H21_8 1_555 1_555
O9_12 H22_8 1_555 1_555
O10_12 H24_8 1_555 1_555
O10_13 H23_8 1_555 1_555

#END
