
###############################################################################
#
# This file contains modified crystal structure data generated from the
# MOF subset of the Cambridge Structural Database (CSD) v543 
# hosted by the Cambridge Crystallographic Data Centre (CCDC).
#
# This work is licensed under the Creative Commons
# Attribution-NonCommercial-ShareAlike 4.0 International License.
# To view a copy of this license, visit
# http://creativecommons.org/licenses/by-nc-sa/4.0/
# or send a letter to
# Creative Commons, PO Box 1866, Mountain View, CA 94042, USA.
#
# CIF created using the CSD Python API on 29 September 2022
# The structure has been converted into the P1 space group
# The structure has a 3D framework
# The original CSD entry WOYJAX is in the tetragonal crystal system
# The framework has been calculated to contain at least 10.0% void space
# The void calculation uses a probe of radius 1.32A, grid spacing 0.4
# The framework is charged, counterions have been retained in the structure
# H atom positions have been added when not included in the experimental data
# Generated hydrogen atom positions removed from atoms on special positions
#
###############################################################################

data_WOYJAX
_chemical_formula_moiety         '(C616 H552 N64 O308 Zn72 63+)n'
_symmetry_cell_setting           triclinic
_symmetry_space_group_name_H-M   'P 1'
_symmetry_Int_Tables_number      1
_space_group_name_Hall           'P 1'
loop_
_symmetry_equiv_pos_site_id
_symmetry_equiv_pos_as_xyz
1 x,y,z
_cell_length_a                   25.5552(11)
_cell_length_b                   25.5552(11)
_cell_length_c                   51.403(2)
_cell_angle_alpha                90
_cell_angle_beta                 90
_cell_angle_gamma                90
_cell_volume                     33569.7
loop_
_atom_site_label
_atom_site_type_symbol
_atom_site_fract_x
_atom_site_fract_y
_atom_site_fract_z
Zn1 Zn 0.22712(4) 0.43927(4) 0.126642(19)
Zn2 Zn 0.27900(4) 0.7500 0.03325(2)
O1 O 0.2769(2) 0.4079(2) 0.15229(11)
C1 C 0.1882(3) 0.6766(3) 0.03323(18)
O2 O 0.1864(2) 0.4822(2) 0.10150(12)
N1 N 0.0414(3) 0.5515(3) 0.04470(13)
O3 O 0.3329(2) 0.4758(2) 0.15331(11)
O4 O 0.1659(2) 0.6950(3) 0.01370(12)
O5 O 0.2276(3) 0.6941(3) 0.04406(13)
C2 C 0.1644(3) 0.6286(4) 0.04539(16)
C3 C 0.1941(3) 0.5991(3) 0.06231(15)
H1 H 0.2286 0.6102 0.0664
C4 C 0.3384(4) 0.4127(3) 0.18622(18)
C5 C 0.3144(3) 0.4337(3) 0.16215(16)
C6 C 0.2079(3) 0.5224(4) 0.09172(17)
C7 C 0.3727(4) 0.4414(3) 0.19991(17)
H2 H 0.3831 0.4745 0.1933
C8 C 0.1146(3) 0.6128(3) 0.03893(17)
H3 H 0.0941 0.6325 0.0270
C9 C 0.1747(3) 0.5539(3) 0.07334(17)
C10 C 0.3445(6) 0.2500 0.2115(2)
H4 H 0.3561 0.2500 0.1940
C11 C 0.0948(3) 0.5673(4) 0.05025(18)
C12 C 0.1242(3) 0.5371(4) 0.06710(16)
H5 H 0.1105 0.5057 0.0742
N2 N 0.3350(4) 0.2919(3) 0.22588(16)
C13 C -0.0000 0.5794(5) 0.0504(2)
H6 H 0.0000 0.6137 0.0575
O6 O 0.1727(3) 0.3822(3) 0.13019(17)
O7 O 0.3287(4) 0.7500 0.06228(18)
C14 C 0.3189(6) 0.2752(4) 0.2512(2)
H7 H 0.3099 0.2972 0.2654
C15 C 0.3802(4) 0.3747(4) 0.23237(19)
H8 H 0.3940 0.3618 0.2483
C16 C 0.0262(3) 0.5034(4) 0.03566(18)
H9 H 0.0485 0.4755 0.0304
C17 C 0.3936(4) 0.4243(3) 0.22359(18)
C18 C 0.3247(4) 0.3626(3) 0.19513(18)
H10 H 0.3004 0.3420 0.1856
C19 C 0.3460(5) 0.3437(3) 0.21739(18)
O9 O 0.4447(3) 0.4995(3) 0.22899(13)
O10 O 0.2523(2) 0.5375(3) 0.09564(12)
O11 O 0.4470(4) 0.4379(3) 0.26018(15)
C20 C 0.4309(4) 0.4579(4) 0.2382(2)
O12 O 0.2769(2) 0.0921(2) 0.15229(11)
C21 C 0.3384(4) 0.0873(3) 0.18622(18)
C22 C 0.3144(3) 0.0663(3) 0.16215(16)
C23 C 0.3727(4) 0.0586(3) 0.19991(17)
H11 H 0.3831 0.0255 0.1933
N3 N 0.3350(4) 0.2081(3) 0.22588(16)
C24 C 0.3189(6) 0.2248(4) 0.2512(2)
H12 H 0.3099 0.2028 0.2654
C25 C 0.3802(4) 0.1253(4) 0.23237(19)
H13 H 0.3940 0.1382 0.2483
C26 C 0.3936(4) 0.0757(3) 0.22359(18)
C27 C 0.3247(4) 0.1374(3) 0.19513(18)
H14 H 0.3004 0.1580 0.1856
C28 C 0.3460(5) 0.1563(3) 0.21739(18)
C29 C 0.4309(4) 0.0421(4) 0.2382(2)
O13 O 0.3329(2) 0.0242(2) 0.15331(11)
O14 O 0.4447(3) 0.0005(3) 0.22899(13)
O15 O 0.4470(4) 0.0621(3) 0.26018(15)
Zn4 Zn 0.31073(4) 0.52288(4) 0.123358(19)
O20 O 0.3678(3) 0.5773(3) 0.11981(17)
Zn7 Zn 0.22712(4) 0.06073(4) 0.126642(19)
Zn9 Zn 0.5000 0.02900(4) 0.28325(2)
Zn11 Zn 0.5000 0.47100(4) 0.28325(2)
Zn14 Zn 0.5000 0.55216(5) 0.24077(2)
O21 O 0.3421(2) 0.4731(2) 0.09771(11)
O22 O 0.2678(2) 0.5636(2) 0.14850(12)
O23 O 0.2742(2) 0.4171(2) 0.09669(11)
O24 O 0.1659(2) 0.8050(3) 0.01370(12)
O25 O 0.2276(3) 0.8059(3) 0.04406(13)
O28 O 0.2125(3) 0.4977(2) 0.15436(12)
O29 O 0.3121(3) 0.6970(4) 0.01018(15)
O30 O 0.3121(3) 0.8030(4) 0.01018(15)
Zn3 Zn 0.19784(5) 0.7500 0.99077(2)
O8 O 0.1489(6) 0.7500 0.9601(2)
O26 O 0.2505(3) 0.6947(3) 0.97899(13)
O27 O 0.2505(3) 0.8053(3) 0.97899(13)
Zn5 Zn 0.31073(4) 0.97712(4) 0.123358(19)
Zn12 Zn 0.5000 0.94784(5) 0.24077(2)
C13_2 C 1.0000 0.5794(5) 0.0504(2)
H6_2 H 1.0000 0.6137 0.0575
C30 C 0.8118(3) 0.6766(3) 0.03323(18)
O16 O 0.8136(2) 0.4822(2) 0.10150(12)
N4 N 0.9586(3) 0.5515(3) 0.04470(13)
O17 O 0.8341(2) 0.6950(3) 0.01370(12)
O18 O 0.7724(3) 0.6941(3) 0.04406(13)
C31 C 0.8356(3) 0.6286(4) 0.04539(16)
C32 C 0.8059(3) 0.5991(3) 0.06231(15)
H15 H 0.7714 0.6102 0.0664
C33 C 0.7921(3) 0.5224(4) 0.09172(17)
C34 C 0.8854(3) 0.6128(3) 0.03893(17)
H16 H 0.9059 0.6325 0.0270
C35 C 0.8253(3) 0.5539(3) 0.07334(17)
C36 C 0.9052(3) 0.5673(4) 0.05025(18)
C37 C 0.8758(3) 0.5371(4) 0.06710(16)
H17 H 0.8895 0.5057 0.0742
C38 C 0.9738(3) 0.5034(4) 0.03566(18)
H18 H 0.9515 0.4755 0.0304
O19 O 0.7477(2) 0.5375(3) 0.09564(12)
Zn6 Zn 0.77288(4) 0.43927(4) 0.126642(19)
Zn8 Zn 0.68927(4) 0.52288(4) 0.123358(19)
Zn10 Zn 0.72100(4) 0.7500 0.03325(2)
Zn13 Zn 0.80216(5) 0.7500 0.99077(2)
C10_2 C -0.0000 0.0945(6) 0.4615(2)
H4_2 H -0.0000 0.1061 0.4440
O12_2 O 0.1579(2) 0.0269(2) 0.40229(11)
C21_2 C 0.1627(3) 0.0884(4) 0.43622(18)
C22_2 C 0.1837(3) 0.0644(3) 0.41215(16)
C23_2 C 0.1914(3) 0.1227(4) 0.44991(17)
H11_2 H 0.2245 0.1331 0.4433
N3_2 N 0.0419(3) 0.0850(4) 0.47588(16)
C24_2 C 0.0252(4) 0.0689(6) 0.5012(2)
H12_2 H 0.0472 0.0599 0.5154
C25_2 C 0.1247(4) 0.1302(4) 0.48237(19)
H13_2 H 0.1118 0.1440 0.4983
C26_2 C 0.1743(3) 0.1436(4) 0.47359(18)
C27_2 C 0.1126(3) 0.0747(4) 0.44513(18)
H14_2 H 0.0920 0.0504 0.4356
C28_2 C 0.0937(3) 0.0960(5) 0.46739(18)
C29_2 C 0.2079(4) 0.1809(4) 0.4882(2)
O13_2 O 0.2258(2) 0.0829(2) 0.40331(11)
O14_2 O 0.2495(3) 0.1947(3) 0.47899(13)
O15_2 O 0.1879(3) 0.1970(4) 0.51018(15)
Zn5_2 Zn 0.27288(4) 0.06073(4) 0.373358(19)
Zn9_2 Zn 0.22100(4) 0.2500 0.53325(2)
Zn12_2 Zn 0.30216(5) 0.2500 0.49077(2)
Zn7_2 Zn 0.18927(4) 0.97712(4) 0.376642(19)
O1_2 O 0.8421(2) 0.0269(2) 0.40229(11)
O3_2 O 0.7742(2) 0.0829(2) 0.40331(11)
C4_2 C 0.8373(3) 0.0884(4) 0.43622(18)
C5_2 C 0.8163(3) 0.0644(3) 0.41215(16)
C7_2 C 0.8086(3) 0.1227(4) 0.44991(17)
H2_2 H 0.7755 0.1331 0.4433
C10_3 C 1.0000 0.0945(6) 0.4615(2)
H4_3 H 1.0000 0.1061 0.4440
N2_2 N 0.9581(3) 0.0850(4) 0.47588(16)
O7_2 O 0.5000 0.0787(4) 0.31228(18)
C14_2 C 0.9748(4) 0.0689(6) 0.5012(2)
H7_2 H 0.9528 0.0599 0.5154
C15_2 C 0.8753(4) 0.1302(4) 0.48237(19)
H8_2 H 0.8882 0.1440 0.4983
C17_2 C 0.8257(3) 0.1436(4) 0.47359(18)
C18_2 C 0.8874(3) 0.0747(4) 0.44513(18)
H10_2 H 0.9080 0.0504 0.4356
C19_2 C 0.9063(3) 0.0960(5) 0.46739(18)
O9_2 O 0.7505(3) 0.1947(3) 0.47899(13)
O10_2 O 0.7125(3) 0.0023(2) 0.34564(12)
O11_2 O 0.8121(3) 0.1970(4) 0.51018(15)
C20_2 C 0.7921(4) 0.1809(4) 0.4882(2)
Zn4_2 Zn 0.72712(4) 0.06073(4) 0.373358(19)
O20_2 O 0.6727(3) 0.1178(3) 0.36981(17)
Zn11_2 Zn 0.77900(4) 0.2500 0.53325(2)
Zn14_2 Zn 0.69784(5) 0.2500 0.49077(2)
O21_2 O 0.7769(2) 0.0921(2) 0.34771(11)
O22_2 O 0.6864(2) 0.0178(2) 0.39850(12)
O23_2 O 0.8329(2) 0.0242(2) 0.34669(11)
O26_2 O 0.5553(3) 0.0005(3) 0.22899(13)
O29_2 O 0.5530(4) 0.0621(3) 0.26018(15)
Zn1_2 Zn 0.81073(4) 0.97712(4) 0.376642(19)
C1_2 C 0.5734(3) 0.9382(3) 0.28323(18)
O2_2 O 0.7678(2) 0.9364(2) 0.35150(12)
N1_2 N 0.6985(3) 0.7914(3) 0.29470(13)
O4_2 O 0.5550(3) 0.9159(2) 0.26370(12)
O5_2 O 0.5559(3) 0.9776(3) 0.29406(13)
C2_2 C 0.6214(4) 0.9144(3) 0.29539(16)
C3_2 C 0.6509(3) 0.9441(3) 0.31231(15)
H1_2 H 0.6398 0.9786 0.3164
C6_2 C 0.7276(4) 0.9579(3) 0.34172(17)
C8_2 C 0.6372(3) 0.8646(3) 0.28893(17)
H3_2 H 0.6175 0.8441 0.2770
C9_2 C 0.6961(3) 0.9247(3) 0.32334(17)
C11_2 C 0.6827(4) 0.8448(3) 0.30025(18)
C12_2 C 0.7129(4) 0.8742(3) 0.31710(16)
H5_2 H 0.7443 0.8605 0.3242
C13_3 C 0.6706(5) 0.7500 0.3004(2)
H6_3 H 0.6363 0.7500 0.3075
O6_2 O 0.8678(3) 0.9227(3) 0.38019(17)
C16_2 C 0.7466(4) 0.7762(3) 0.28566(18)
H9_2 H 0.7745 0.7985 0.2804
O8_2 O 0.5000 0.8989(6) 0.2101(2)
C30_2 C 0.5734(3) 0.5618(3) 0.28323(18)
O16_2 O 0.7678(2) 0.5636(2) 0.35150(12)
N4_2 N 0.6985(3) 0.7086(3) 0.29470(13)
O17_2 O 0.5550(3) 0.5841(2) 0.26370(12)
O18_2 O 0.5559(3) 0.5224(3) 0.29406(13)
C31_2 C 0.6214(4) 0.5856(3) 0.29539(16)
C32_2 C 0.6509(3) 0.5559(3) 0.31231(15)
H15_2 H 0.6398 0.5214 0.3164
C33_2 C 0.7276(4) 0.5421(3) 0.34172(17)
C34_2 C 0.6372(3) 0.6354(3) 0.28893(17)
H16_2 H 0.6175 0.6559 0.2770
C35_2 C 0.6961(3) 0.5753(3) 0.32334(17)
C36_2 C 0.6827(4) 0.6552(3) 0.30025(18)
C37_2 C 0.7129(4) 0.6258(3) 0.31710(16)
H17_2 H 0.7443 0.6395 0.3242
C38_2 C 0.7466(4) 0.7238(3) 0.28566(18)
H18_2 H 0.7745 0.7015 0.2804
O19_2 O 0.7125(3) 0.4977(2) 0.34564(12)
Zn6_2 Zn 0.81073(4) 0.52288(4) 0.376642(19)
Zn8_2 Zn 0.72712(4) 0.43927(4) 0.373358(19)
O24_2 O 0.4450(3) 0.9159(2) 0.26370(12)
O25_2 O 0.4441(3) 0.9776(3) 0.29406(13)
O28_2 O 0.7523(2) 0.9625(3) 0.40436(12)
O16_3 O 0.1864(2) 0.0178(2) 0.10150(12)
H18_3 H 0.0485 0.0245 0.0304
C13_4 C 0.0000 0.9206(5) 0.0504(2)
H6_4 H -0.0000 0.8863 0.0575
C30_3 C 0.1882(3) 0.8234(3) 0.03323(18)
N4_3 N 0.0414(3) 0.9485(3) 0.04470(13)
C31_3 C 0.1644(3) 0.8714(4) 0.04539(16)
C32_3 C 0.1941(3) 0.9009(3) 0.06231(15)
H15_3 H 0.2286 0.8898 0.0664
C33_3 C 0.2079(3) 0.9776(4) 0.09172(17)
C34_3 C 0.1146(3) 0.8872(3) 0.03893(17)
H16_3 H 0.0941 0.8675 0.0270
C35_3 C 0.1747(3) 0.9461(3) 0.07334(17)
C36_3 C 0.0948(3) 0.9327(4) 0.05025(18)
C37_3 C 0.1242(3) 0.9629(4) 0.06710(16)
H17_3 H 0.1105 0.9943 0.0742
C38_3 C 0.0262(3) 0.9966(4) 0.03566(18)
O19_3 O 0.2523(2) 0.9625(3) 0.09564(12)
Zn1_3 Zn 0.77288(4) 0.06073(4) 0.126642(19)
O1_3 O 0.7231(2) 0.0921(2) 0.15229(11)
O2_3 O 0.8136(2) 0.0178(2) 0.10150(12)
O3_3 O 0.6671(2) 0.0242(2) 0.15331(11)
C4_3 C 0.6616(4) 0.0873(3) 0.18622(18)
C5_3 C 0.6856(3) 0.0663(3) 0.16215(16)
C7_3 C 0.6273(4) 0.0586(3) 0.19991(17)
H2_3 H 0.6169 0.0255 0.1933
C10_4 C 0.6555(6) 0.2500 0.2115(2)
H4_4 H 0.6439 0.2500 0.1940
N2_3 N 0.6650(4) 0.2081(3) 0.22588(16)
O6_3 O 0.8273(3) 0.1178(3) 0.13019(17)
C14_3 C 0.6811(6) 0.2248(4) 0.2512(2)
H7_3 H 0.6901 0.2028 0.2654
C15_3 C 0.6198(4) 0.1253(4) 0.23237(19)
H8_3 H 0.6060 0.1382 0.2483
H9_3 H 0.9515 0.0245 0.0304
C17_3 C 0.6064(4) 0.0757(3) 0.22359(18)
C18_3 C 0.6753(4) 0.1374(3) 0.19513(18)
H10_3 H 0.6996 0.1580 0.1856
C19_3 C 0.6540(5) 0.1563(3) 0.21739(18)
C20_3 C 0.5691(4) 0.0421(4) 0.2382(2)
O12_3 O 0.7231(2) 0.4079(2) 0.15229(11)
C21_3 C 0.6616(4) 0.4127(3) 0.18622(18)
C22_3 C 0.6856(3) 0.4337(3) 0.16215(16)
C23_3 C 0.6273(4) 0.4414(3) 0.19991(17)
H11_3 H 0.6169 0.4745 0.1933
N3_3 N 0.6650(4) 0.2919(3) 0.22588(16)
C24_3 C 0.6811(6) 0.2752(4) 0.2512(2)
H12_3 H 0.6901 0.2972 0.2654
C25_3 C 0.6198(4) 0.3747(4) 0.23237(19)
H13_3 H 0.6060 0.3618 0.2483
C26_3 C 0.6064(4) 0.4243(3) 0.22359(18)
C27_3 C 0.6753(4) 0.3626(3) 0.19513(18)
H14_3 H 0.6996 0.3420 0.1856
C28_3 C 0.6540(5) 0.3437(3) 0.21739(18)
C29_3 C 0.5691(4) 0.4579(4) 0.2382(2)
O13_3 O 0.6671(2) 0.4758(2) 0.15331(11)
O14_3 O 0.5553(3) 0.4995(3) 0.22899(13)
O15_3 O 0.5530(4) 0.4379(3) 0.26018(15)
O21_3 O 0.6579(2) 0.0269(2) 0.09771(11)
O23_3 O 0.7258(2) 0.0829(2) 0.09669(11)
O28_3 O 0.7875(3) 0.0023(2) 0.15436(12)
C1_3 C 0.8118(3) 0.8234(3) 0.03323(18)
N1_3 N 0.9586(3) 0.9485(3) 0.04470(13)
O4_3 O 0.8341(2) 0.8050(3) 0.01370(12)
O5_3 O 0.7724(3) 0.8059(3) 0.04406(13)
C2_3 C 0.8356(3) 0.8714(4) 0.04539(16)
C3_3 C 0.8059(3) 0.9009(3) 0.06231(15)
H1_3 H 0.7714 0.8898 0.0664
C6_3 C 0.7921(3) 0.9776(4) 0.09172(17)
C8_3 C 0.8854(3) 0.8872(3) 0.03893(17)
H3_3 H 0.9059 0.8675 0.0270
C9_3 C 0.8253(3) 0.9461(3) 0.07334(17)
C11_3 C 0.9052(3) 0.9327(4) 0.05025(18)
C12_3 C 0.8758(3) 0.9629(4) 0.06710(16)
H5_3 H 0.8895 0.9943 0.0742
C13_5 C 1.0000 0.9206(5) 0.0504(2)
H6_5 H 1.0000 0.8863 0.0575
O7_3 O 0.6713(4) 0.7500 0.06228(18)
C16_3 C 0.9738(3) 0.9966(4) 0.03566(18)
O10_3 O 0.7477(2) 0.9625(3) 0.09564(12)
Zn4_3 Zn 0.68927(4) 0.97712(4) 0.123358(19)
O20_3 O 0.6322(3) 0.9227(3) 0.11981(17)
O22_3 O 0.7322(2) 0.9364(2) 0.14850(12)
O29_3 O 0.6879(3) 0.8030(4) 0.01018(15)
O30_2 O 0.6879(3) 0.6970(4) 0.01018(15)
O8_3 O 0.8511(6) 0.7500 0.9601(2)
O26_3 O 0.7495(3) 0.8053(3) 0.97899(13)
O27_2 O 0.7495(3) 0.6947(3) 0.97899(13)
Zn3_2 Zn 0.0000 0.05216(5) 0.74077(2)
O8_4 O 0.0000 0.1011(6) 0.7101(2)
Zn10_2 Zn 0.0000 0.52900(4) 0.78325(2)
Zn13_2 Zn 0.0000 0.44784(5) 0.74077(2)
O24_3 O 0.0550(3) 0.0841(2) 0.76370(12)
O25_3 O 0.0559(3) 0.0224(3) 0.79406(13)
H21 H 0.00905371 0.13696 0.716024
H22 H 0.0262157 0.0891021 0.697149
Zn2_2 Zn 0.0000 0.97100(4) 0.78325(2)
O7_4 O 0.0000 0.9213(4) 0.81228(18)
O27_3 O 0.0553(3) 0.9995(3) 0.72899(13)
O30_3 O 0.0530(4) 0.9379(3) 0.76018(15)
H20 H 0.0265294 0.893666 0.809043
Zn1_4 Zn 0.68927(4) 0.02288(4) 0.876642(19)
Zn3_3 Zn 1.0000 0.05216(5) 0.74077(2)
C1_4 C 0.9266(3) 0.0618(3) 0.78323(18)
O2_4 O 0.7322(2) 0.0636(2) 0.85150(12)
N1_4 N 0.8015(3) 0.2086(3) 0.79470(13)
O4_4 O 0.9450(3) 0.0841(2) 0.76370(12)
O5_4 O 0.9441(3) 0.0224(3) 0.79406(13)
C2_4 C 0.8786(4) 0.0856(3) 0.79539(16)
C3_4 C 0.8491(3) 0.0559(3) 0.81231(15)
H1_4 H 0.8602 0.0214 0.8164
C6_4 C 0.7724(4) 0.0421(3) 0.84172(17)
C8_4 C 0.8628(3) 0.1354(3) 0.78893(17)
H3_4 H 0.8825 0.1559 0.7770
C9_4 C 0.8039(3) 0.0753(3) 0.82334(17)
C11_4 C 0.8173(4) 0.1552(3) 0.80025(18)
C12_4 C 0.7871(4) 0.1258(3) 0.81710(16)
H5_4 H 0.7557 0.1395 0.8242
C13_6 C 0.8294(5) 0.2500 0.8004(2)
H6_6 H 0.8637 0.2500 0.8075
O6_4 O 0.6322(3) 0.0773(3) 0.88019(17)
C16_4 C 0.7534(4) 0.2238(3) 0.78566(18)
H9_4 H 0.7255 0.2015 0.7804
O8_5 O 1.0000 0.1011(6) 0.7101(2)
C30_4 C 0.9266(3) 0.4382(3) 0.78323(18)
O16_4 O 0.7322(2) 0.4364(2) 0.85150(12)
N4_4 N 0.8015(3) 0.2914(3) 0.79470(13)
O17_3 O 0.9450(3) 0.4159(2) 0.76370(12)
O18_3 O 0.9441(3) 0.4776(3) 0.79406(13)
C31_4 C 0.8786(4) 0.4144(3) 0.79539(16)
C32_4 C 0.8491(3) 0.4441(3) 0.81231(15)
H15_4 H 0.8602 0.4786 0.8164
C33_4 C 0.7724(4) 0.4579(3) 0.84172(17)
C34_4 C 0.8628(3) 0.3646(3) 0.78893(17)
H16_4 H 0.8825 0.3441 0.7770
C35_4 C 0.8039(3) 0.4247(3) 0.82334(17)
C36_4 C 0.8173(4) 0.3448(3) 0.80025(18)
C37_4 C 0.7871(4) 0.3742(3) 0.81710(16)
H17_4 H 0.7557 0.3605 0.8242
C38_4 C 0.7534(4) 0.2762(3) 0.78566(18)
H18_4 H 0.7255 0.2985 0.7804
O19_4 O 0.7875(3) 0.5023(2) 0.84564(12)
Zn6_3 Zn 0.68927(4) 0.47712(4) 0.876642(19)
Zn7_3 Zn 0.31073(4) 0.02288(4) 0.876642(19)
Zn8_3 Zn 0.77288(4) 0.56073(4) 0.873358(19)
Zn10_3 Zn 1.0000 0.52900(4) 0.78325(2)
Zn13_3 Zn 1.0000 0.44784(5) 0.74077(2)
O28_4 O 0.7477(2) 0.0375(3) 0.90436(12)
C14_4 C 0.5252(4) 0.9311(6) 0.0012(2)
H7_4 H 0.5472 0.9401 0.0154
C24_4 C 0.4748(4) 0.9311(6) 0.0012(2)
H12_4 H 0.4528 0.9401 0.0154
Zn2_3 Zn 1.0000 0.97100(4) 0.78325(2)
O1_4 O 0.6579(2) 0.9731(2) 0.90229(11)
O3_4 O 0.7258(2) 0.9171(2) 0.90331(11)
C4_4 C 0.6627(3) 0.9116(4) 0.93622(18)
C5_4 C 0.6837(3) 0.9356(3) 0.91215(16)
C7_4 C 0.6914(3) 0.8773(4) 0.94991(17)
H2_4 H 0.7245 0.8669 0.9433
C10_5 C 0.5000 0.9055(6) 0.9615(2)
H4_5 H 0.5000 0.8939 0.9440
N2_4 N 0.5419(3) 0.9150(4) 0.97588(16)
O7_5 O 1.0000 0.9213(4) 0.81228(18)
C15_4 C 0.6247(4) 0.8698(4) 0.98237(19)
H8_4 H 0.6118 0.8560 0.9983
C17_4 C 0.6743(3) 0.8564(4) 0.97359(18)
C18_4 C 0.6126(3) 0.9253(4) 0.94513(18)
H10_4 H 0.5920 0.9496 0.9356
C19_4 C 0.5937(3) 0.9040(5) 0.96739(18)
O10_4 O 0.7875(3) 0.9977(2) 0.84564(12)
C20_4 C 0.7079(4) 0.8191(4) 0.9882(2)
O12_4 O 0.3421(2) 0.9731(2) 0.90229(11)
C21_4 C 0.3373(3) 0.9116(4) 0.93622(18)
C22_4 C 0.3163(3) 0.9356(3) 0.91215(16)
C23_4 C 0.3086(3) 0.8773(4) 0.94991(17)
H11_4 H 0.2755 0.8669 0.9433
N3_4 N 0.4581(3) 0.9150(4) 0.97588(16)
C25_4 C 0.3753(4) 0.8698(4) 0.98237(19)
H13_4 H 0.3882 0.8560 0.9983
C26_4 C 0.3257(3) 0.8564(4) 0.97359(18)
C27_4 C 0.3874(3) 0.9253(4) 0.94513(18)
H14_4 H 0.4080 0.9496 0.9356
C28_4 C 0.4063(3) 0.9040(5) 0.96739(18)
C29_4 C 0.2921(4) 0.8191(4) 0.9882(2)
O13_4 O 0.2742(2) 0.9171(2) 0.90331(11)
Zn4_4 Zn 0.77288(4) 0.93927(4) 0.873358(19)
O20_4 O 0.8273(3) 0.8822(3) 0.86981(17)
Zn5_3 Zn 0.22712(4) 0.93927(4) 0.873358(19)
O21_4 O 0.7231(2) 0.9079(2) 0.84771(11)
O22_4 O 0.8136(2) 0.9822(2) 0.89850(12)
O23_4 O 0.6671(2) 0.9758(2) 0.84669(11)
O26_4 O 0.9447(3) 0.9995(3) 0.72899(13)
O29_4 O 0.9470(4) 0.9379(3) 0.76018(15)
H19 H 0.964856 0.905029 0.813851
Zn12_3 Zn 0.5000 0.05216(5) 0.75923(2)
Zn3_4 Zn 0.19784(5) 0.2500 0.00923(2)
O8_6 O 0.1489(6) 0.2500 0.0399(2)
O26_5 O 0.2505(3) 0.3053(3) 0.02101(13)
O27_4 O 0.2505(3) 0.1947(3) 0.02101(13)
Zn1_5 Zn 0.22712(4) 0.56073(4) 0.873358(19)
Zn2_4 Zn 0.27900(4) 0.2500 0.96675(2)
O1_5 O 0.2769(2) 0.5921(2) 0.84771(11)
C1_5 C 0.1882(3) 0.3234(3) 0.96677(18)
O2_5 O 0.1864(2) 0.5178(2) 0.89850(12)
N1_5 N 0.0414(3) 0.4485(3) 0.95530(13)
O3_5 O 0.3329(2) 0.5242(2) 0.84669(11)
O4_5 O 0.1659(2) 0.3050(3) 0.98630(12)
O5_5 O 0.2276(3) 0.3059(3) 0.95594(13)
C2_5 C 0.1644(3) 0.3714(4) 0.95461(16)
C3_5 C 0.1941(3) 0.4009(3) 0.93769(15)
H1_5 H 0.2286 0.3898 0.9336
C4_5 C 0.3384(4) 0.5873(3) 0.81378(18)
C5_5 C 0.3144(3) 0.5663(3) 0.83785(16)
C6_5 C 0.2079(3) 0.4776(4) 0.90828(17)
C7_5 C 0.3727(4) 0.5586(3) 0.80009(17)
H2_5 H 0.3831 0.5255 0.8067
C8_5 C 0.1146(3) 0.3872(3) 0.96107(17)
H3_5 H 0.0941 0.3675 0.9730
C9_5 C 0.1747(3) 0.4461(3) 0.92666(17)
C10_6 C 0.3445(6) 0.7500 0.7885(2)
H4_6 H 0.3561 0.7500 0.8060
C11_5 C 0.0948(3) 0.4327(4) 0.94975(18)
C12_5 C 0.1242(3) 0.4629(4) 0.93290(16)
H5_5 H 0.1105 0.4943 0.9258
N2_5 N 0.3350(4) 0.7081(3) 0.77412(16)
C13_7 C 0.0000 0.4206(5) 0.9496(2)
H6_7 H 0.0000 0.3863 0.9425
O6_5 O 0.1727(3) 0.6178(3) 0.86981(17)
O7_6 O 0.3287(4) 0.2500 0.93772(18)
C14_5 C 0.3189(6) 0.7248(4) 0.7488(2)
H7_5 H 0.3099 0.7028 0.7346
C15_5 C 0.3802(4) 0.6253(4) 0.76763(19)
H8_5 H 0.3940 0.6382 0.7517
C16_5 C 0.0262(3) 0.4966(4) 0.96434(18)
H9_5 H 0.0485 0.5245 0.9696
C17_5 C 0.3936(4) 0.5757(3) 0.77641(18)
C18_5 C 0.3247(4) 0.6374(3) 0.80487(18)
H10_5 H 0.3004 0.6580 0.8144
C19_5 C 0.3460(5) 0.6563(3) 0.78261(18)
O9_3 O 0.4447(3) 0.5005(3) 0.77101(13)
O10_5 O 0.2523(2) 0.4625(3) 0.90436(12)
O11_3 O 0.4470(4) 0.5621(3) 0.73982(15)
C20_5 C 0.4309(4) 0.5421(4) 0.7618(2)
O12_5 O 0.2769(2) 0.9079(2) 0.84771(11)
C21_5 C 0.3384(4) 0.9127(3) 0.81378(18)
C22_5 C 0.3144(3) 0.9337(3) 0.83785(16)
C23_5 C 0.3727(4) 0.9414(3) 0.80009(17)
H11_5 H 0.3831 0.9745 0.8067
N3_5 N 0.3350(4) 0.7919(3) 0.77412(16)
C24_5 C 0.3189(6) 0.7752(4) 0.7488(2)
H12_5 H 0.3099 0.7972 0.7346
C25_5 C 0.3802(4) 0.8747(4) 0.76763(19)
H13_5 H 0.3940 0.8618 0.7517
C26_5 C 0.3936(4) 0.9243(3) 0.77641(18)
C27_5 C 0.3247(4) 0.8626(3) 0.80487(18)
H14_5 H 0.3004 0.8420 0.8144
C28_5 C 0.3460(5) 0.8437(3) 0.78261(18)
C29_5 C 0.4309(4) 0.9579(4) 0.7618(2)
O13_5 O 0.3329(2) 0.9758(2) 0.84669(11)
O14_4 O 0.4447(3) 0.9995(3) 0.77101(13)
O15_4 O 0.4470(4) 0.9379(3) 0.73982(15)
Zn4_5 Zn 0.31073(4) 0.47712(4) 0.876642(19)
O20_5 O 0.3678(3) 0.4227(3) 0.88019(17)
Zn9_3 Zn 0.5000 0.97100(4) 0.71675(2)
Zn11_3 Zn 0.5000 0.52900(4) 0.71675(2)
Zn14_3 Zn 0.5000 0.44784(5) 0.75923(2)
O21_5 O 0.3421(2) 0.5269(2) 0.90229(11)
O22_5 O 0.2678(2) 0.4364(2) 0.85150(12)
O23_5 O 0.2742(2) 0.5829(2) 0.90331(11)
O24_4 O 0.1659(2) 0.1950(3) 0.98630(12)
O25_4 O 0.2276(3) 0.1941(3) 0.95594(13)
O28_5 O 0.2125(3) 0.5023(2) 0.84564(12)
O29_5 O 0.3121(3) 0.3030(4) 0.98982(15)
O30_4 O 0.3121(3) 0.1970(4) 0.98982(15)
Zn13_4 Zn 0.80216(5) 0.2500 0.00923(2)
C13_8 C 1.0000 0.4206(5) 0.9496(2)
H6_8 H 1.0000 0.3863 0.9425
C30_5 C 0.8118(3) 0.3234(3) 0.96677(18)
O16_5 O 0.8136(2) 0.5178(2) 0.89850(12)
N4_5 N 0.9586(3) 0.4485(3) 0.95530(13)
O17_4 O 0.8341(2) 0.3050(3) 0.98630(12)
O18_4 O 0.7724(3) 0.3059(3) 0.95594(13)
C31_5 C 0.8356(3) 0.3714(4) 0.95461(16)
C32_5 C 0.8059(3) 0.4009(3) 0.93769(15)
H15_5 H 0.7714 0.3898 0.9336
C33_5 C 0.7921(3) 0.4776(4) 0.90828(17)
C34_5 C 0.8854(3) 0.3872(3) 0.96107(17)
H16_5 H 0.9059 0.3675 0.9730
C35_5 C 0.8253(3) 0.4461(3) 0.92666(17)
C36_5 C 0.9052(3) 0.4327(4) 0.94975(18)
C37_5 C 0.8758(3) 0.4629(4) 0.93290(16)
H17_5 H 0.8895 0.4943 0.9258
C38_5 C 0.9738(3) 0.4966(4) 0.96434(18)
H18_5 H 0.9515 0.5245 0.9696
O19_5 O 0.7477(2) 0.4625(3) 0.90436(12)
Zn10_4 Zn 0.72100(4) 0.2500 0.96675(2)
C13_9 C -0.0000 0.0794(5) 0.9496(2)
H6_9 H -0.0000 0.1137 0.9425
C30_6 C 0.1882(3) 0.1766(3) 0.96677(18)
N4_6 N 0.0414(3) 0.0515(3) 0.95530(13)
C31_6 C 0.1644(3) 0.1286(4) 0.95461(16)
C32_6 C 0.1941(3) 0.0991(3) 0.93769(15)
H15_6 H 0.2286 0.1102 0.9336
C33_6 C 0.2079(3) 0.0224(4) 0.90828(17)
C34_6 C 0.1146(3) 0.1128(3) 0.96107(17)
H16_6 H 0.0941 0.1325 0.9730
C35_6 C 0.1747(3) 0.0539(3) 0.92666(17)
C36_6 C 0.0948(3) 0.0673(4) 0.94975(18)
C37_6 C 0.1242(3) 0.0371(4) 0.93290(16)
H17_6 H 0.1105 0.0057 0.9258
C38_6 C 0.0262(3) 0.0034(4) 0.96434(18)
O19_6 O 0.2523(2) 0.0375(3) 0.90436(12)
O16_6 O 0.1864(2) 0.9822(2) 0.89850(12)
H18_6 H 0.0485 0.9755 0.9696
O8_7 O 0.8511(6) 0.2500 0.0399(2)
O26_6 O 0.7495(3) 0.1947(3) 0.02101(13)
O27_5 O 0.7495(3) 0.3053(3) 0.02101(13)
C1_6 C 0.8118(3) 0.1766(3) 0.96677(18)
N1_6 N 0.9586(3) 0.0515(3) 0.95530(13)
O4_6 O 0.8341(2) 0.1950(3) 0.98630(12)
O5_6 O 0.7724(3) 0.1941(3) 0.95594(13)
C2_6 C 0.8356(3) 0.1286(4) 0.95461(16)
C3_6 C 0.8059(3) 0.0991(3) 0.93769(15)
H1_6 H 0.7714 0.1102 0.9336
C6_6 C 0.7921(3) 0.0224(4) 0.90828(17)
C8_6 C 0.8854(3) 0.1128(3) 0.96107(17)
H3_6 H 0.9059 0.1325 0.9730
C9_6 C 0.8253(3) 0.0539(3) 0.92666(17)
C11_6 C 0.9052(3) 0.0673(4) 0.94975(18)
C12_6 C 0.8758(3) 0.0371(4) 0.93290(16)
H5_6 H 0.8895 0.0057 0.9258
C13_10 C 1.0000 0.0794(5) 0.9496(2)
H6_10 H 1.0000 0.1137 0.9425
O7_7 O 0.6713(4) 0.2500 0.93772(18)
C16_6 C 0.9738(3) 0.0034(4) 0.96434(18)
O29_6 O 0.6879(3) 0.1970(4) 0.98982(15)
O30_5 O 0.6879(3) 0.3030(4) 0.98982(15)
C4_6 C 0.6616(4) 0.9127(3) 0.81378(18)
C5_6 C 0.6856(3) 0.9337(3) 0.83785(16)
C7_6 C 0.6273(4) 0.9414(3) 0.80009(17)
H2_6 H 0.6169 0.9745 0.8067
C10_7 C 0.6555(6) 0.7500 0.7885(2)
H4_7 H 0.6439 0.7500 0.8060
N2_6 N 0.6650(4) 0.7919(3) 0.77412(16)
C14_6 C 0.6811(6) 0.7752(4) 0.7488(2)
H7_6 H 0.6901 0.7972 0.7346
C15_6 C 0.6198(4) 0.8747(4) 0.76763(19)
H8_6 H 0.6060 0.8618 0.7517
H9_6 H 0.9515 0.9755 0.9696
C17_6 C 0.6064(4) 0.9243(3) 0.77641(18)
C18_6 C 0.6753(4) 0.8626(3) 0.80487(18)
H10_6 H 0.6996 0.8420 0.8144
C19_6 C 0.6540(5) 0.8437(3) 0.78261(18)
O9_4 O 0.5553(3) 0.9995(3) 0.77101(13)
O11_4 O 0.5530(4) 0.9379(3) 0.73982(15)
C20_6 C 0.5691(4) 0.9579(4) 0.7618(2)
O12_6 O 0.7231(2) 0.5921(2) 0.84771(11)
C21_6 C 0.6616(4) 0.5873(3) 0.81378(18)
C22_6 C 0.6856(3) 0.5663(3) 0.83785(16)
C23_6 C 0.6273(4) 0.5586(3) 0.80009(17)
H11_6 H 0.6169 0.5255 0.8067
N3_6 N 0.6650(4) 0.7081(3) 0.77412(16)
C24_6 C 0.6811(6) 0.7248(4) 0.7488(2)
H12_6 H 0.6901 0.7028 0.7346
C25_6 C 0.6198(4) 0.6253(4) 0.76763(19)
H13_6 H 0.6060 0.6382 0.7517
C26_6 C 0.6064(4) 0.5757(3) 0.77641(18)
C27_6 C 0.6753(4) 0.6374(3) 0.80487(18)
H14_6 H 0.6996 0.6580 0.8144
C28_6 C 0.6540(5) 0.6563(3) 0.78261(18)
C29_6 C 0.5691(4) 0.5421(4) 0.7618(2)
O13_6 O 0.6671(2) 0.5242(2) 0.84669(11)
O14_5 O 0.5553(3) 0.5005(3) 0.77101(13)
O15_5 O 0.5530(4) 0.5621(3) 0.73982(15)
Zn2_5 Zn 0.0000 0.02900(4) 0.21675(2)
O7_8 O 0.0000 0.0787(4) 0.18772(18)
O27_6 O 0.0553(3) 0.0005(3) 0.27101(13)
O30_6 O 0.0530(4) 0.0621(3) 0.23982(15)
H20_2 H 0.0265294 0.106334 0.190957
Zn3_5 Zn 0.0000 0.94784(5) 0.25923(2)
O8_8 O 0.0000 0.8989(6) 0.2899(2)
Zn10_5 Zn 0.0000 0.47100(4) 0.21675(2)
Zn13_5 Zn 0.0000 0.55216(5) 0.25923(2)
O24_5 O 0.0550(3) 0.9159(2) 0.23630(12)
O25_5 O 0.0559(3) 0.9776(3) 0.20594(13)
H21_2 H 0.00905371 0.86304 0.283976
H22_2 H 0.0262157 0.910898 0.302851
Zn2_6 Zn 1.0000 0.02900(4) 0.21675(2)
C4_7 C 0.6627(3) 0.0884(4) 0.06378(18)
C5_7 C 0.6837(3) 0.0644(3) 0.08785(16)
C7_7 C 0.6914(3) 0.1227(4) 0.05009(17)
H2_7 H 0.7245 0.1331 0.0567
C10_8 C 0.5000 0.0945(6) 0.0385(2)
H4_8 H 0.5000 0.1061 0.0560
N2_7 N 0.5419(3) 0.0850(4) 0.02412(16)
O7_9 O 1.0000 0.0787(4) 0.18772(18)
C15_7 C 0.6247(4) 0.1302(4) 0.01763(19)
H8_7 H 0.6118 0.1440 0.0017
C17_7 C 0.6743(3) 0.1436(4) 0.02641(18)
C18_7 C 0.6126(3) 0.0747(4) 0.05487(18)
H10_7 H 0.5920 0.0504 0.0644
C19_7 C 0.5937(3) 0.0960(5) 0.03261(18)
C20_7 C 0.7079(4) 0.1809(4) 0.0118(2)
O12_7 O 0.3421(2) 0.0269(2) 0.09771(11)
C21_7 C 0.3373(3) 0.0884(4) 0.06378(18)
C22_7 C 0.3163(3) 0.0644(3) 0.08785(16)
C23_7 C 0.3086(3) 0.1227(4) 0.05009(17)
H11_7 H 0.2755 0.1331 0.0567
N3_7 N 0.4581(3) 0.0850(4) 0.02412(16)
C25_7 C 0.3753(4) 0.1302(4) 0.01763(19)
H13_7 H 0.3882 0.1440 0.0017
C26_7 C 0.3257(3) 0.1436(4) 0.02641(18)
C27_7 C 0.3874(3) 0.0747(4) 0.05487(18)
H14_7 H 0.4080 0.0504 0.0644
C28_7 C 0.4063(3) 0.0960(5) 0.03261(18)
C29_7 C 0.2921(4) 0.1809(4) 0.0118(2)
O13_7 O 0.2742(2) 0.0829(2) 0.09669(11)
O26_7 O 0.9447(3) 0.0005(3) 0.27101(13)
O29_7 O 0.9470(4) 0.0621(3) 0.23982(15)
H19_2 H 0.964856 0.0949713 0.186149
C14_7 C 0.5252(4) 0.0689(6) 0.9988(2)
H7_7 H 0.5472 0.0599 0.9846
C24_7 C 0.4748(4) 0.0689(6) 0.9988(2)
H12_7 H 0.4528 0.0599 0.9846
Zn3_6 Zn 1.0000 0.94784(5) 0.25923(2)
C1_7 C 0.9266(3) 0.9382(3) 0.21677(18)
N1_7 N 0.8015(3) 0.7914(3) 0.20530(13)
O4_7 O 0.9450(3) 0.9159(2) 0.23630(12)
O5_7 O 0.9441(3) 0.9776(3) 0.20594(13)
C2_7 C 0.8786(4) 0.9144(3) 0.20461(16)
C3_7 C 0.8491(3) 0.9441(3) 0.18769(15)
H1_7 H 0.8602 0.9786 0.1836
C6_7 C 0.7724(4) 0.9579(3) 0.15828(17)
C8_7 C 0.8628(3) 0.8646(3) 0.21107(17)
H3_7 H 0.8825 0.8441 0.2230
C9_7 C 0.8039(3) 0.9247(3) 0.17666(17)
C11_7 C 0.8173(4) 0.8448(3) 0.19975(18)
C12_7 C 0.7871(4) 0.8742(3) 0.18290(16)
H5_7 H 0.7557 0.8605 0.1758
C13_11 C 0.8294(5) 0.7500 0.1996(2)
H6_11 H 0.8637 0.7500 0.1925
C16_7 C 0.7534(4) 0.7762(3) 0.21434(18)
H9_7 H 0.7255 0.7985 0.2196
O8_9 O 1.0000 0.8989(6) 0.2899(2)
C30_7 C 0.9266(3) 0.5618(3) 0.21677(18)
O16_7 O 0.7322(2) 0.5636(2) 0.14850(12)
N4_7 N 0.8015(3) 0.7086(3) 0.20530(13)
O17_5 O 0.9450(3) 0.5841(2) 0.23630(12)
O18_5 O 0.9441(3) 0.5224(3) 0.20594(13)
C31_7 C 0.8786(4) 0.5856(3) 0.20461(16)
C32_7 C 0.8491(3) 0.5559(3) 0.18769(15)
H15_7 H 0.8602 0.5214 0.1836
C33_7 C 0.7724(4) 0.5421(3) 0.15828(17)
C34_7 C 0.8628(3) 0.6354(3) 0.21107(17)
H16_7 H 0.8825 0.6559 0.2230
C35_7 C 0.8039(3) 0.5753(3) 0.17666(17)
C36_7 C 0.8173(4) 0.6552(3) 0.19975(18)
C37_7 C 0.7871(4) 0.6258(3) 0.18290(16)
H17_7 H 0.7557 0.6395 0.1758
C38_7 C 0.7534(4) 0.7238(3) 0.21434(18)
H18_7 H 0.7255 0.7015 0.2196
O19_7 O 0.7875(3) 0.4977(2) 0.15436(12)
Zn10_6 Zn 1.0000 0.47100(4) 0.21675(2)
Zn13_6 Zn 1.0000 0.55216(5) 0.25923(2)
Zn7_4 Zn 0.18927(4) 0.02288(4) 0.623358(19)
C10_9 C -0.0000 0.9055(6) 0.5385(2)
H4_9 H -0.0000 0.8939 0.5560
O12_8 O 0.1579(2) 0.9731(2) 0.59771(11)
C21_8 C 0.1627(3) 0.9116(4) 0.56378(18)
C22_8 C 0.1837(3) 0.9356(3) 0.58785(16)
C23_8 C 0.1914(3) 0.8773(4) 0.55009(17)
H11_8 H 0.2245 0.8669 0.5567
N3_8 N 0.0419(3) 0.9150(4) 0.52412(16)
C24_8 C 0.0252(4) 0.9311(6) 0.4988(2)
H12_8 H 0.0472 0.9401 0.4846
C25_8 C 0.1247(4) 0.8698(4) 0.51763(19)
H13_8 H 0.1118 0.8560 0.5017
C26_8 C 0.1743(3) 0.8564(4) 0.52641(18)
C27_8 C 0.1126(3) 0.9253(4) 0.55487(18)
H14_8 H 0.0920 0.9496 0.5644
C28_8 C 0.0937(3) 0.9040(5) 0.53261(18)
C29_8 C 0.2079(4) 0.8191(4) 0.5118(2)
O13_8 O 0.2258(2) 0.9171(2) 0.59669(11)
O14_6 O 0.2495(3) 0.8053(3) 0.52101(13)
O15_6 O 0.1879(3) 0.8030(4) 0.48982(15)
Zn5_4 Zn 0.27288(4) 0.93927(4) 0.626642(19)
Zn9_4 Zn 0.22100(4) 0.7500 0.46675(2)
Zn12_4 Zn 0.30216(5) 0.7500 0.50923(2)
Zn1_6 Zn 0.81073(4) 0.02288(4) 0.623358(19)
C1_8 C 0.5734(3) 0.0618(3) 0.71677(18)
O2_6 O 0.7678(2) 0.0636(2) 0.64850(12)
N1_8 N 0.6985(3) 0.2086(3) 0.70530(13)
O4_8 O 0.5550(3) 0.0841(2) 0.73630(12)
O5_8 O 0.5559(3) 0.0224(3) 0.70594(13)
C2_8 C 0.6214(4) 0.0856(3) 0.70461(16)
C3_8 C 0.6509(3) 0.0559(3) 0.68769(15)
H1_8 H 0.6398 0.0214 0.6836
C6_8 C 0.7276(4) 0.0421(3) 0.65828(17)
C8_8 C 0.6372(3) 0.1354(3) 0.71107(17)
H3_8 H 0.6175 0.1559 0.7230
C9_8 C 0.6961(3) 0.0753(3) 0.67666(17)
C11_8 C 0.6827(4) 0.1552(3) 0.69975(18)
C12_8 C 0.7129(4) 0.1258(3) 0.68290(16)
H5_8 H 0.7443 0.1395 0.6758
C13_12 C 0.6706(5) 0.2500 0.6996(2)
H6_12 H 0.6363 0.2500 0.6925
O6_6 O 0.8678(3) 0.0773(3) 0.61981(17)
C16_8 C 0.7466(4) 0.2238(3) 0.71434(18)
H9_8 H 0.7745 0.2015 0.7196
O8_10 O 0.5000 0.1011(6) 0.7899(2)
C30_8 C 0.5734(3) 0.4382(3) 0.71677(18)
O16_8 O 0.7678(2) 0.4364(2) 0.64850(12)
N4_8 N 0.6985(3) 0.2914(3) 0.70530(13)
O17_6 O 0.5550(3) 0.4159(2) 0.73630(12)
O18_6 O 0.5559(3) 0.4776(3) 0.70594(13)
C31_8 C 0.6214(4) 0.4144(3) 0.70461(16)
C32_8 C 0.6509(3) 0.4441(3) 0.68769(15)
H15_8 H 0.6398 0.4786 0.6836
C33_8 C 0.7276(4) 0.4579(3) 0.65828(17)
C34_8 C 0.6372(3) 0.3646(3) 0.71107(17)
H16_8 H 0.6175 0.3441 0.7230
C35_8 C 0.6961(3) 0.4247(3) 0.67666(17)
C36_8 C 0.6827(4) 0.3448(3) 0.69975(18)
C37_8 C 0.7129(4) 0.3742(3) 0.68290(16)
H17_8 H 0.7443 0.3605 0.6758
C38_8 C 0.7466(4) 0.2762(3) 0.71434(18)
H18_8 H 0.7745 0.2985 0.7196
O19_8 O 0.7125(3) 0.5023(2) 0.65436(12)
Zn6_4 Zn 0.81073(4) 0.47712(4) 0.623358(19)
Zn8_4 Zn 0.72712(4) 0.56073(4) 0.626642(19)
O24_6 O 0.4450(3) 0.0841(2) 0.73630(12)
O25_6 O 0.4441(3) 0.0224(3) 0.70594(13)
O28_6 O 0.7523(2) 0.0375(3) 0.59564(12)
O1_6 O 0.8421(2) 0.9731(2) 0.59771(11)
O3_6 O 0.7742(2) 0.9171(2) 0.59669(11)
C4_8 C 0.8373(3) 0.9116(4) 0.56378(18)
C5_8 C 0.8163(3) 0.9356(3) 0.58785(16)
C7_8 C 0.8086(3) 0.8773(4) 0.55009(17)
H2_8 H 0.7755 0.8669 0.5567
C10_10 C 1.0000 0.9055(6) 0.5385(2)
H4_10 H 1.0000 0.8939 0.5560
N2_8 N 0.9581(3) 0.9150(4) 0.52412(16)
O7_10 O 0.5000 0.9213(4) 0.68772(18)
C14_8 C 0.9748(4) 0.9311(6) 0.4988(2)
H7_8 H 0.9528 0.9401 0.4846
C15_8 C 0.8753(4) 0.8698(4) 0.51763(19)
H8_8 H 0.8882 0.8560 0.5017
C17_8 C 0.8257(3) 0.8564(4) 0.52641(18)
C18_8 C 0.8874(3) 0.9253(4) 0.55487(18)
H10_8 H 0.9080 0.9496 0.5644
C19_8 C 0.9063(3) 0.9040(5) 0.53261(18)
O9_5 O 0.7505(3) 0.8053(3) 0.52101(13)
O10_6 O 0.7125(3) 0.9977(2) 0.65436(12)
O11_5 O 0.8121(3) 0.8030(4) 0.48982(15)
C20_8 C 0.7921(4) 0.8191(4) 0.5118(2)
Zn4_6 Zn 0.72712(4) 0.93927(4) 0.626642(19)
O20_6 O 0.6727(3) 0.8822(3) 0.63019(17)
Zn11_4 Zn 0.77900(4) 0.7500 0.46675(2)
Zn14_4 Zn 0.69784(5) 0.7500 0.50923(2)
O21_6 O 0.7769(2) 0.9079(2) 0.65229(11)
O22_6 O 0.6864(2) 0.9822(2) 0.60150(12)
O23_6 O 0.8329(2) 0.9758(2) 0.65331(11)
C1_9 C 0.6882(3) 0.1766(3) 0.53323(18)
N1_9 N 0.5414(3) 0.0515(3) 0.54470(13)
O4_9 O 0.6659(2) 0.1950(3) 0.51370(12)
O5_9 O 0.7276(3) 0.1941(3) 0.54406(13)
C2_9 C 0.6644(3) 0.1286(4) 0.54539(16)
C3_9 C 0.6941(3) 0.0991(3) 0.56231(15)
H1_9 H 0.7286 0.1102 0.5664
C6_9 C 0.7079(3) 0.0224(4) 0.59172(17)
C8_9 C 0.6146(3) 0.1128(3) 0.53893(17)
H3_9 H 0.5941 0.1325 0.5270
C9_9 C 0.6747(3) 0.0539(3) 0.57334(17)
C11_9 C 0.5948(3) 0.0673(4) 0.55025(18)
C12_9 C 0.6242(3) 0.0371(4) 0.56710(16)
H5_9 H 0.6105 0.0057 0.5742
C13_13 C 0.5000 0.0794(5) 0.5504(2)
H6_13 H 0.5000 0.1137 0.5575
O7_11 O 0.8287(4) 0.2500 0.56228(18)
C16_9 C 0.5262(3) 0.0034(4) 0.53566(18)
O8_11 O 0.6489(6) 0.2500 0.4601(2)
C30_9 C 0.3118(3) 0.1766(3) 0.53323(18)
N4_9 N 0.4586(3) 0.0515(3) 0.54470(13)
O17_7 O 0.3341(2) 0.1950(3) 0.51370(12)
O18_7 O 0.2724(3) 0.1941(3) 0.54406(13)
C31_9 C 0.3356(3) 0.1286(4) 0.54539(16)
C32_9 C 0.3059(3) 0.0991(3) 0.56231(15)
H15_9 H 0.2714 0.1102 0.5664
C33_9 C 0.2921(3) 0.0224(4) 0.59172(17)
C34_9 C 0.3854(3) 0.1128(3) 0.53893(17)
H16_9 H 0.4059 0.1325 0.5270
C35_9 C 0.3253(3) 0.0539(3) 0.57334(17)
C36_9 C 0.4052(3) 0.0673(4) 0.55025(18)
C37_9 C 0.3758(3) 0.0371(4) 0.56710(16)
H17_9 H 0.3895 0.0057 0.5742
C38_9 C 0.4738(3) 0.0034(4) 0.53566(18)
O19_9 O 0.2477(2) 0.0375(3) 0.59564(12)
O24_7 O 0.6659(2) 0.3050(3) 0.51370(12)
O25_7 O 0.7276(3) 0.3059(3) 0.54406(13)
O27_7 O 0.7505(3) 0.3053(3) 0.47899(13)
O30_7 O 0.8121(3) 0.3030(4) 0.51018(15)
C4_9 C 0.8384(4) 0.9127(3) 0.68622(18)
C5_9 C 0.8144(3) 0.9337(3) 0.66215(16)
C7_9 C 0.8727(4) 0.9414(3) 0.69991(17)
H2_9 H 0.8831 0.9745 0.6933
C10_11 C 0.8445(6) 0.7500 0.7115(2)
H4_11 H 0.8561 0.7500 0.6940
N2_9 N 0.8350(4) 0.7919(3) 0.72588(16)
C14_9 C 0.8189(6) 0.7752(4) 0.7512(2)
H7_9 H 0.8099 0.7972 0.7654
C15_9 C 0.8802(4) 0.8747(4) 0.73237(19)
H8_9 H 0.8940 0.8618 0.7483
H9_9 H 0.5485 0.9755 0.5304
C17_9 C 0.8936(4) 0.9243(3) 0.72359(18)
C18_9 C 0.8247(4) 0.8626(3) 0.69513(18)
H10_9 H 0.8004 0.8420 0.6856
C19_9 C 0.8460(5) 0.8437(3) 0.71739(18)
C20_9 C 0.9309(4) 0.9579(4) 0.7382(2)
O12_9 O 0.7769(2) 0.5921(2) 0.65229(11)
C21_9 C 0.8384(4) 0.5873(3) 0.68622(18)
C22_9 C 0.8144(3) 0.5663(3) 0.66215(16)
C23_9 C 0.8727(4) 0.5586(3) 0.69991(17)
H11_9 H 0.8831 0.5255 0.6933
N3_9 N 0.8350(4) 0.7081(3) 0.72588(16)
C24_9 C 0.8189(6) 0.7248(4) 0.7512(2)
H12_9 H 0.8099 0.7028 0.7654
C25_9 C 0.8802(4) 0.6253(4) 0.73237(19)
H13_9 H 0.8940 0.6382 0.7483
C26_9 C 0.8936(4) 0.5757(3) 0.72359(18)
C27_9 C 0.8247(4) 0.6374(3) 0.69513(18)
H14_9 H 0.8004 0.6580 0.6856
C28_9 C 0.8460(5) 0.6563(3) 0.71739(18)
C29_9 C 0.9309(4) 0.5421(4) 0.7382(2)
O13_9 O 0.8329(2) 0.5242(2) 0.65331(11)
O14_7 O 0.9447(3) 0.5005(3) 0.72899(13)
O15_7 O 0.9470(4) 0.5621(3) 0.76018(15)
O16_9 O 0.3136(2) 0.9822(2) 0.60150(12)
H18_9 H 0.4515 0.9755 0.5304
C14_10 C 0.4748(4) 0.5689(6) 0.0012(2)
H7_10 H 0.4528 0.5599 0.0154
C24_10 C 0.5252(4) 0.5689(6) 0.0012(2)
H12_10 H 0.5472 0.5599 0.0154
C1_10 C 0.0734(3) 0.4382(3) 0.78323(18)
N1_10 N 0.1985(3) 0.2914(3) 0.79470(13)
O4_10 O 0.0550(3) 0.4159(2) 0.76370(12)
O5_10 O 0.0559(3) 0.4776(3) 0.79406(13)
C2_10 C 0.1214(4) 0.4144(3) 0.79539(16)
C3_10 C 0.1509(3) 0.4441(3) 0.81231(15)
H1_10 H 0.1398 0.4786 0.8164
C4_10 C 0.3373(3) 0.5884(4) 0.93622(18)
C5_10 C 0.3163(3) 0.5644(3) 0.91215(16)
C6_10 C 0.2276(4) 0.4579(3) 0.84172(17)
C7_10 C 0.3086(3) 0.6227(4) 0.94991(17)
H2_10 H 0.2755 0.6331 0.9433
C8_10 C 0.1372(3) 0.3646(3) 0.78893(17)
H3_10 H 0.1175 0.3441 0.7770
C9_10 C 0.1961(3) 0.4247(3) 0.82334(17)
C10_12 C 0.5000 0.5945(6) 0.9615(2)
H4_12 H 0.5000 0.6061 0.9440
C11_10 C 0.1827(4) 0.3448(3) 0.80025(18)
C12_10 C 0.2129(4) 0.3742(3) 0.81710(16)
H5_10 H 0.2443 0.3605 0.8242
N2_10 N 0.4581(3) 0.5850(4) 0.97588(16)
C13_14 C 0.1706(5) 0.2500 0.8004(2)
H6_14 H 0.1363 0.2500 0.8075
O7_12 O -0.0000 0.5787(4) 0.81228(18)
C15_10 C 0.3753(4) 0.6302(4) 0.98237(19)
H8_10 H 0.3882 0.6440 0.9983
C16_10 C 0.2466(4) 0.2762(3) 0.78566(18)
H9_10 H 0.2745 0.2985 0.7804
C17_10 C 0.3257(3) 0.6436(4) 0.97359(18)
C18_10 C 0.3874(3) 0.5747(4) 0.94513(18)
H10_10 H 0.4080 0.5504 0.9356
C19_10 C 0.4063(3) 0.5960(5) 0.96739(18)
O8_12 O -0.0000 0.3989(6) 0.7101(2)
C20_10 C 0.2921(4) 0.6809(4) 0.9882(2)
O12_10 O 0.6579(2) 0.5269(2) 0.90229(11)
C21_10 C 0.6627(3) 0.5884(4) 0.93622(18)
C22_10 C 0.6837(3) 0.5644(3) 0.91215(16)
C23_10 C 0.6914(3) 0.6227(4) 0.94991(17)
H11_10 H 0.7245 0.6331 0.9433
N3_10 N 0.5419(3) 0.5850(4) 0.97588(16)
C25_10 C 0.6247(4) 0.6302(4) 0.98237(19)
H13_10 H 0.6118 0.6440 0.9983
C26_10 C 0.6743(3) 0.6436(4) 0.97359(18)
C27_10 C 0.6126(3) 0.5747(4) 0.94513(18)
H14_10 H 0.5920 0.5504 0.9356
C28_10 C 0.5937(3) 0.5960(5) 0.96739(18)
C29_10 C 0.7079(4) 0.6809(4) 0.9882(2)
O13_10 O 0.7258(2) 0.5829(2) 0.90331(11)
C30_10 C 0.0734(3) 0.0618(3) 0.78323(18)
O16_10 O 0.2678(2) 0.0636(2) 0.85150(12)
N4_10 N 0.1985(3) 0.2086(3) 0.79470(13)
C31_10 C 0.1214(4) 0.0856(3) 0.79539(16)
C32_10 C 0.1509(3) 0.0559(3) 0.81231(15)
H15_10 H 0.1398 0.0214 0.8164
C33_10 C 0.2276(4) 0.0421(3) 0.84172(17)
C34_10 C 0.1372(3) 0.1354(3) 0.78893(17)
H16_10 H 0.1175 0.1559 0.7770
C35_10 C 0.1961(3) 0.0753(3) 0.82334(17)
C36_10 C 0.1827(4) 0.1552(3) 0.80025(18)
C37_10 C 0.2129(4) 0.1258(3) 0.81710(16)
H17_10 H 0.2443 0.1395 0.8242
C38_10 C 0.2466(4) 0.2238(3) 0.78566(18)
H18_10 H 0.2745 0.2015 0.7804
O26_8 O 0.0553(3) 0.5005(3) 0.72899(13)
O29_8 O 0.0530(4) 0.5621(3) 0.76018(15)
H19_3 H 0.0351445 0.594971 0.813851
O19_10 O 0.2125(3) 0.9977(2) 0.84564(12)
O7_13 O 1.0000 0.5787(4) 0.81228(18)
O8_13 O 1.0000 0.3989(6) 0.7101(2)
H20_3 H 0.973471 0.606334 0.809043
H21_3 H 0.990946 0.36304 0.716024
H22_3 H 0.973784 0.410898 0.697149
Zn1_7 Zn 0.27288(4) 0.56073(4) 0.626642(19)
O1_7 O 0.2231(2) 0.5921(2) 0.65229(11)
C1_11 C 0.3118(3) 0.3234(3) 0.53323(18)
O2_7 O 0.3136(2) 0.5178(2) 0.60150(12)
N1_11 N 0.4586(3) 0.4485(3) 0.54470(13)
O3_7 O 0.1671(2) 0.5242(2) 0.65331(11)
O4_11 O 0.3341(2) 0.3050(3) 0.51370(12)
O5_11 O 0.2724(3) 0.3059(3) 0.54406(13)
C2_11 C 0.3356(3) 0.3714(4) 0.54539(16)
C3_11 C 0.3059(3) 0.4009(3) 0.56231(15)
H1_11 H 0.2714 0.3898 0.5664
C4_11 C 0.1616(4) 0.5873(3) 0.68622(18)
C5_11 C 0.1856(3) 0.5663(3) 0.66215(16)
C6_11 C 0.2921(3) 0.4776(4) 0.59172(17)
C7_11 C 0.1273(4) 0.5586(3) 0.69991(17)
H2_11 H 0.1169 0.5255 0.6933
C8_11 C 0.3854(3) 0.3872(3) 0.53893(17)
H3_11 H 0.4059 0.3675 0.5270
C9_11 C 0.3253(3) 0.4461(3) 0.57334(17)
C10_13 C 0.1555(6) 0.7500 0.7115(2)
H4_13 H 0.1439 0.7500 0.6940
C11_11 C 0.4052(3) 0.4327(4) 0.55025(18)
C12_11 C 0.3758(3) 0.4629(4) 0.56710(16)
H5_11 H 0.3895 0.4943 0.5742
N2_11 N 0.1650(4) 0.7081(3) 0.72588(16)
C13_15 C 0.5000 0.4206(5) 0.5504(2)
H6_15 H 0.5000 0.3863 0.5575
O6_7 O 0.3273(3) 0.6178(3) 0.63019(17)
O7_14 O 0.1713(4) 0.2500 0.56228(18)
C14_11 C 0.1811(6) 0.7248(4) 0.7512(2)
H7_11 H 0.1901 0.7028 0.7654
C15_11 C 0.1198(4) 0.6253(4) 0.73237(19)
H8_11 H 0.1060 0.6382 0.7483
C16_11 C 0.4738(3) 0.4966(4) 0.53566(18)
H9_11 H 0.4515 0.5245 0.5304
C17_11 C 0.1064(4) 0.5757(3) 0.72359(18)
C18_11 C 0.1753(4) 0.6374(3) 0.69513(18)
H10_11 H 0.1996 0.6580 0.6856
C19_11 C 0.1540(5) 0.6563(3) 0.71739(18)
O8_14 O 0.3511(6) 0.2500 0.4601(2)
O10_7 O 0.2477(2) 0.4625(3) 0.59564(12)
C20_11 C 0.0691(4) 0.5421(4) 0.7382(2)
O12_11 O 0.2231(2) 0.9079(2) 0.65229(11)
C21_11 C 0.1616(4) 0.9127(3) 0.68622(18)
C22_11 C 0.1856(3) 0.9337(3) 0.66215(16)
C23_11 C 0.1273(4) 0.9414(3) 0.69991(17)
H11_11 H 0.1169 0.9745 0.6933
N3_11 N 0.1650(4) 0.7919(3) 0.72588(16)
C24_11 C 0.1811(6) 0.7752(4) 0.7512(2)
H12_11 H 0.1901 0.7972 0.7654
C25_11 C 0.1198(4) 0.8747(4) 0.73237(19)
H13_11 H 0.1060 0.8618 0.7483
C26_11 C 0.1064(4) 0.9243(3) 0.72359(18)
C27_11 C 0.1753(4) 0.8626(3) 0.69513(18)
H14_11 H 0.1996 0.8420 0.6856
C28_11 C 0.1540(5) 0.8437(3) 0.71739(18)
C29_11 C 0.0691(4) 0.9579(4) 0.7382(2)
O13_11 O 0.1671(2) 0.9758(2) 0.65331(11)
C30_11 C 0.6882(3) 0.3234(3) 0.53323(18)
O16_11 O 0.6864(2) 0.5178(2) 0.60150(12)
N4_11 N 0.5414(3) 0.4485(3) 0.54470(13)
C31_11 C 0.6644(3) 0.3714(4) 0.54539(16)
C32_11 C 0.6941(3) 0.4009(3) 0.56231(15)
H15_11 H 0.7286 0.3898 0.5664
C33_11 C 0.7079(3) 0.4776(4) 0.59172(17)
C34_11 C 0.6146(3) 0.3872(3) 0.53893(17)
H16_11 H 0.5941 0.3675 0.5270
C35_11 C 0.6747(3) 0.4461(3) 0.57334(17)
C36_11 C 0.5948(3) 0.4327(4) 0.55025(18)
C37_11 C 0.6242(3) 0.4629(4) 0.56710(16)
H17_11 H 0.6105 0.4943 0.5742
C38_11 C 0.5262(3) 0.4966(4) 0.53566(18)
H18_11 H 0.5485 0.5245 0.5304
O19_11 O 0.7523(2) 0.4625(3) 0.59564(12)
Zn4_7 Zn 0.18927(4) 0.47712(4) 0.623358(19)
O20_7 O 0.1322(3) 0.4227(3) 0.61981(17)
O21_7 O 0.1579(2) 0.5269(2) 0.59771(11)
O22_7 O 0.2322(2) 0.4364(2) 0.64850(12)
O23_7 O 0.2258(2) 0.5829(2) 0.59669(11)
O26_9 O 0.2495(3) 0.3053(3) 0.47899(13)
O28_7 O 0.2875(3) 0.5023(2) 0.65436(12)
O29_9 O 0.1879(3) 0.3030(4) 0.51018(15)
O19_12 O 0.2875(3) 0.0023(2) 0.34564(12)
Zn1_8 Zn 0.18927(4) 0.52288(4) 0.376642(19)
O1_8 O 0.1579(2) 0.4731(2) 0.40229(11)
C1_12 C 0.4266(3) 0.5618(3) 0.28323(18)
O2_8 O 0.2322(2) 0.5636(2) 0.35150(12)
N1_12 N 0.3015(3) 0.7086(3) 0.29470(13)
O3_8 O 0.2258(2) 0.4171(2) 0.40331(11)
O4_12 O 0.4450(3) 0.5841(2) 0.26370(12)
O5_12 O 0.4441(3) 0.5224(3) 0.29406(13)
C2_12 C 0.3786(4) 0.5856(3) 0.29539(16)
C3_12 C 0.3491(3) 0.5559(3) 0.31231(15)
H1_12 H 0.3602 0.5214 0.3164
C4_12 C 0.1627(3) 0.4116(4) 0.43622(18)
C5_12 C 0.1837(3) 0.4356(3) 0.41215(16)
C6_12 C 0.2724(4) 0.5421(3) 0.34172(17)
C7_12 C 0.1914(3) 0.3773(4) 0.44991(17)
H2_12 H 0.2245 0.3669 0.4433
C8_12 C 0.3628(3) 0.6354(3) 0.28893(17)
H3_12 H 0.3825 0.6559 0.2770
C9_12 C 0.3039(3) 0.5753(3) 0.32334(17)
C10_14 C 0.0000 0.4055(6) 0.4615(2)
H4_14 H 0.0000 0.3939 0.4440
C11_12 C 0.3173(4) 0.6552(3) 0.30025(18)
C12_12 C 0.2871(4) 0.6258(3) 0.31710(16)
H5_12 H 0.2557 0.6395 0.3242
N2_12 N 0.0419(3) 0.4150(4) 0.47588(16)
C13_16 C 0.3294(5) 0.7500 0.3004(2)
H6_16 H 0.3637 0.7500 0.3075
O6_8 O 0.1322(3) 0.5773(3) 0.38019(17)
O7_15 O 0.5000 0.4213(4) 0.31228(18)
C14_12 C 0.0252(4) 0.4311(6) 0.5012(2)
H7_12 H 0.0472 0.4401 0.5154
C15_12 C 0.1247(4) 0.3698(4) 0.48237(19)
H8_12 H 0.1118 0.3560 0.4983
C16_12 C 0.2534(4) 0.7238(3) 0.28566(18)
H9_12 H 0.2255 0.7015 0.2804
C17_12 C 0.1743(3) 0.3564(4) 0.47359(18)
C18_12 C 0.1126(3) 0.4253(4) 0.44513(18)
H10_12 H 0.0920 0.4496 0.4356
C19_12 C 0.0937(3) 0.4040(5) 0.46739(18)
O8_15 O 0.5000 0.6011(6) 0.2101(2)
O10_8 O 0.2875(3) 0.4977(2) 0.34564(12)
C20_12 C 0.2079(4) 0.3191(4) 0.4882(2)
C30_12 C 0.4266(3) 0.9382(3) 0.28323(18)
O16_12 O 0.2322(2) 0.9364(2) 0.35150(12)
N4_12 N 0.3015(3) 0.7914(3) 0.29470(13)
C31_12 C 0.3786(4) 0.9144(3) 0.29539(16)
C32_12 C 0.3491(3) 0.9441(3) 0.31231(15)
H15_12 H 0.3602 0.9786 0.3164
C33_12 C 0.2724(4) 0.9579(3) 0.34172(17)
C34_12 C 0.3628(3) 0.8646(3) 0.28893(17)
H16_12 H 0.3825 0.8441 0.2770
C35_12 C 0.3039(3) 0.9247(3) 0.32334(17)
C36_12 C 0.3173(4) 0.8448(3) 0.30025(18)
C37_12 C 0.2871(4) 0.8742(3) 0.31710(16)
H17_12 H 0.2557 0.8605 0.3242
C38_12 C 0.2534(4) 0.7762(3) 0.28566(18)
H18_12 H 0.2255 0.7985 0.2804
Zn4_8 Zn 0.27288(4) 0.43927(4) 0.373358(19)
O20_8 O 0.3273(3) 0.3822(3) 0.36981(17)
O21_8 O 0.2231(2) 0.4079(2) 0.34771(11)
O22_8 O 0.3136(2) 0.4822(2) 0.39850(12)
O23_8 O 0.1671(2) 0.4758(2) 0.34669(11)
O28_8 O 0.2477(2) 0.5375(3) 0.40436(12)
C10_15 C 1.0000 0.4055(6) 0.4615(2)
H4_15 H 1.0000 0.3939 0.4440
O12_12 O 0.8421(2) 0.4731(2) 0.40229(11)
C21_12 C 0.8373(3) 0.4116(4) 0.43622(18)
C22_12 C 0.8163(3) 0.4356(3) 0.41215(16)
C23_12 C 0.8086(3) 0.3773(4) 0.44991(17)
H11_12 H 0.7755 0.3669 0.4433
N3_12 N 0.9581(3) 0.4150(4) 0.47588(16)
C24_12 C 0.9748(4) 0.4311(6) 0.5012(2)
H12_12 H 0.9528 0.4401 0.5154
C25_12 C 0.8753(4) 0.3698(4) 0.48237(19)
H13_12 H 0.8882 0.3560 0.4983
C26_12 C 0.8257(3) 0.3564(4) 0.47359(18)
C27_12 C 0.8874(3) 0.4253(4) 0.44513(18)
H14_12 H 0.9080 0.4496 0.4356
C28_12 C 0.9063(3) 0.4040(5) 0.46739(18)
C29_12 C 0.7921(4) 0.3191(4) 0.4882(2)
O13_12 O 0.7742(2) 0.4171(2) 0.40331(11)
C4_13 C 0.8384(4) 0.0873(3) 0.31378(18)
C5_13 C 0.8144(3) 0.0663(3) 0.33785(16)
C7_13 C 0.8727(4) 0.0586(3) 0.30009(17)
H2_13 H 0.8831 0.0255 0.3067
C10_16 C 0.8445(6) 0.2500 0.2885(2)
H4_16 H 0.8561 0.2500 0.3060
N2_13 N 0.8350(4) 0.2081(3) 0.27412(16)
C14_13 C 0.8189(6) 0.2248(4) 0.2488(2)
H7_13 H 0.8099 0.2028 0.2346
C15_13 C 0.8802(4) 0.1253(4) 0.26763(19)
H8_13 H 0.8940 0.1382 0.2517
H9_13 H 0.5485 0.0245 0.4696
C17_13 C 0.8936(4) 0.0757(3) 0.27641(18)
C18_13 C 0.8247(4) 0.1374(3) 0.30487(18)
H10_13 H 0.8004 0.1580 0.3144
C19_13 C 0.8460(5) 0.1563(3) 0.28261(18)
C20_13 C 0.9309(4) 0.0421(4) 0.2618(2)
O12_13 O 0.7769(2) 0.4079(2) 0.34771(11)
C21_13 C 0.8384(4) 0.4127(3) 0.31378(18)
C22_13 C 0.8144(3) 0.4337(3) 0.33785(16)
C23_13 C 0.8727(4) 0.4414(3) 0.30009(17)
H11_13 H 0.8831 0.4745 0.3067
N3_13 N 0.8350(4) 0.2919(3) 0.27412(16)
C24_13 C 0.8189(6) 0.2752(4) 0.2488(2)
H12_13 H 0.8099 0.2972 0.2346
C25_13 C 0.8802(4) 0.3747(4) 0.26763(19)
H13_13 H 0.8940 0.3618 0.2517
C26_13 C 0.8936(4) 0.4243(3) 0.27641(18)
C27_13 C 0.8247(4) 0.3626(3) 0.30487(18)
H14_13 H 0.8004 0.3420 0.3144
C28_13 C 0.8460(5) 0.3437(3) 0.28261(18)
C29_13 C 0.9309(4) 0.4579(4) 0.2618(2)
O13_13 O 0.8329(2) 0.4758(2) 0.34669(11)
O14_8 O 0.9447(3) 0.4995(3) 0.27101(13)
O15_8 O 0.9470(4) 0.4379(3) 0.23982(15)
O16_13 O 0.3136(2) 0.0178(2) 0.39850(12)
H18_13 H 0.4515 0.0245 0.4696
C1_13 C 0.6882(3) 0.8234(3) 0.46677(18)
N1_13 N 0.5414(3) 0.9485(3) 0.45530(13)
O4_13 O 0.6659(2) 0.8050(3) 0.48630(12)
O5_13 O 0.7276(3) 0.8059(3) 0.45594(13)
C2_13 C 0.6644(3) 0.8714(4) 0.45461(16)
C3_13 C 0.6941(3) 0.9009(3) 0.43769(15)
H1_13 H 0.7286 0.8898 0.4336
C6_13 C 0.7079(3) 0.9776(4) 0.40828(17)
C8_13 C 0.6146(3) 0.8872(3) 0.46107(17)
H3_13 H 0.5941 0.8675 0.4730
C9_13 C 0.6747(3) 0.9461(3) 0.42666(17)
C11_13 C 0.5948(3) 0.9327(4) 0.44975(18)
C12_13 C 0.6242(3) 0.9629(4) 0.43290(16)
H5_13 H 0.6105 0.9943 0.4258
C13_17 C 0.5000 0.9206(5) 0.4496(2)
H6_17 H 0.5000 0.8863 0.4425
O7_16 O 0.8287(4) 0.7500 0.43772(18)
C16_13 C 0.5262(3) 0.9966(4) 0.46434(18)
O8_16 O 0.6489(6) 0.7500 0.5399(2)
C30_13 C 0.3118(3) 0.8234(3) 0.46677(18)
N4_13 N 0.4586(3) 0.9485(3) 0.45530(13)
O17_8 O 0.3341(2) 0.8050(3) 0.48630(12)
O18_8 O 0.2724(3) 0.8059(3) 0.45594(13)
C31_13 C 0.3356(3) 0.8714(4) 0.45461(16)
C32_13 C 0.3059(3) 0.9009(3) 0.43769(15)
H15_13 H 0.2714 0.8898 0.4336
C33_13 C 0.2921(3) 0.9776(4) 0.40828(17)
C34_13 C 0.3854(3) 0.8872(3) 0.46107(17)
H16_13 H 0.4059 0.8675 0.4730
C35_13 C 0.3253(3) 0.9461(3) 0.42666(17)
C36_13 C 0.4052(3) 0.9327(4) 0.44975(18)
C37_13 C 0.3758(3) 0.9629(4) 0.43290(16)
H17_13 H 0.3895 0.9943 0.4258
C38_13 C 0.4738(3) 0.9966(4) 0.46434(18)
O19_13 O 0.2477(2) 0.9625(3) 0.40436(12)
O24_8 O 0.6659(2) 0.6950(3) 0.48630(12)
O25_8 O 0.7276(3) 0.6941(3) 0.45594(13)
O27_8 O 0.7505(3) 0.6947(3) 0.52101(13)
O30_8 O 0.8121(3) 0.6970(4) 0.48982(15)
C1_14 C 0.3118(3) 0.6766(3) 0.46677(18)
N1_14 N 0.4586(3) 0.5515(3) 0.45530(13)
O4_14 O 0.3341(2) 0.6950(3) 0.48630(12)
O5_14 O 0.2724(3) 0.6941(3) 0.45594(13)
C2_14 C 0.3356(3) 0.6286(4) 0.45461(16)
C3_14 C 0.3059(3) 0.5991(3) 0.43769(15)
H1_14 H 0.2714 0.6102 0.4336
C4_14 C 0.1616(4) 0.4127(3) 0.31378(18)
C5_14 C 0.1856(3) 0.4337(3) 0.33785(16)
C6_14 C 0.2921(3) 0.5224(4) 0.40828(17)
C7_14 C 0.1273(4) 0.4414(3) 0.30009(17)
H2_14 H 0.1169 0.4745 0.3067
C8_14 C 0.3854(3) 0.6128(3) 0.46107(17)
H3_14 H 0.4059 0.6325 0.4730
C9_14 C 0.3253(3) 0.5539(3) 0.42666(17)
C10_17 C 0.1555(6) 0.2500 0.2885(2)
H4_17 H 0.1439 0.2500 0.3060
C11_14 C 0.4052(3) 0.5673(4) 0.44975(18)
C12_14 C 0.3758(3) 0.5371(4) 0.43290(16)
H5_14 H 0.3895 0.5057 0.4258
N2_14 N 0.1650(4) 0.2919(3) 0.27412(16)
C13_18 C 0.5000 0.5794(5) 0.4496(2)
H6_18 H 0.5000 0.6137 0.4425
O7_17 O 0.1713(4) 0.7500 0.43772(18)
C14_14 C 0.1811(6) 0.2752(4) 0.2488(2)
H7_14 H 0.1901 0.2972 0.2346
C15_14 C 0.1198(4) 0.3747(4) 0.26763(19)
H8_14 H 0.1060 0.3618 0.2517
C16_14 C 0.4738(3) 0.5034(4) 0.46434(18)
H9_14 H 0.4515 0.4755 0.4696
C17_14 C 0.1064(4) 0.4243(3) 0.27641(18)
C18_14 C 0.1753(4) 0.3626(3) 0.30487(18)
H10_14 H 0.1996 0.3420 0.3144
C19_14 C 0.1540(5) 0.3437(3) 0.28261(18)
O8_17 O 0.3511(6) 0.7500 0.5399(2)
O9_6 O 0.0553(3) 0.4995(3) 0.27101(13)
O11_6 O 0.0530(4) 0.4379(3) 0.23982(15)
C20_14 C 0.0691(4) 0.4579(4) 0.2618(2)
O12_14 O 0.2231(2) 0.0921(2) 0.34771(11)
C21_14 C 0.1616(4) 0.0873(3) 0.31378(18)
C22_14 C 0.1856(3) 0.0663(3) 0.33785(16)
C23_14 C 0.1273(4) 0.0586(3) 0.30009(17)
H11_14 H 0.1169 0.0255 0.3067
N3_14 N 0.1650(4) 0.2081(3) 0.27412(16)
C24_14 C 0.1811(6) 0.2248(4) 0.2488(2)
H12_14 H 0.1901 0.2028 0.2346
C25_14 C 0.1198(4) 0.1253(4) 0.26763(19)
H13_14 H 0.1060 0.1382 0.2517
C26_14 C 0.1064(4) 0.0757(3) 0.27641(18)
C27_14 C 0.1753(4) 0.1374(3) 0.30487(18)
H14_14 H 0.1996 0.1580 0.3144
C28_14 C 0.1540(5) 0.1563(3) 0.28261(18)
C29_14 C 0.0691(4) 0.0421(4) 0.2618(2)
O13_14 O 0.1671(2) 0.0242(2) 0.34669(11)
C30_14 C 0.6882(3) 0.6766(3) 0.46677(18)
O16_14 O 0.6864(2) 0.4822(2) 0.39850(12)
N4_14 N 0.5414(3) 0.5515(3) 0.45530(13)
C31_14 C 0.6644(3) 0.6286(4) 0.45461(16)
C32_14 C 0.6941(3) 0.5991(3) 0.43769(15)
H15_14 H 0.7286 0.6102 0.4336
C33_14 C 0.7079(3) 0.5224(4) 0.40828(17)
C34_14 C 0.6146(3) 0.6128(3) 0.46107(17)
H16_14 H 0.5941 0.6325 0.4730
C35_14 C 0.6747(3) 0.5539(3) 0.42666(17)
C36_14 C 0.5948(3) 0.5673(4) 0.44975(18)
C37_14 C 0.6242(3) 0.5371(4) 0.43290(16)
H17_14 H 0.6105 0.5057 0.4258
C38_14 C 0.5262(3) 0.5034(4) 0.46434(18)
H18_14 H 0.5485 0.4755 0.4696
O19_14 O 0.7523(2) 0.5375(3) 0.40436(12)
O26_10 O 0.2495(3) 0.6947(3) 0.52101(13)
O29_10 O 0.1879(3) 0.6970(4) 0.48982(15)
C1_15 C 0.4266(3) 0.4382(3) 0.71677(18)
N1_15 N 0.3015(3) 0.2914(3) 0.70530(13)
O4_15 O 0.4450(3) 0.4159(2) 0.73630(12)
O5_15 O 0.4441(3) 0.4776(3) 0.70594(13)
C2_15 C 0.3786(4) 0.4144(3) 0.70461(16)
C3_15 C 0.3491(3) 0.4441(3) 0.68769(15)
H1_15 H 0.3602 0.4786 0.6836
C4_15 C 0.1627(3) 0.5884(4) 0.56378(18)
C5_15 C 0.1837(3) 0.5644(3) 0.58785(16)
C6_15 C 0.2724(4) 0.4579(3) 0.65828(17)
C7_15 C 0.1914(3) 0.6227(4) 0.55009(17)
H2_15 H 0.2245 0.6331 0.5567
C8_15 C 0.3628(3) 0.3646(3) 0.71107(17)
H3_15 H 0.3825 0.3441 0.7230
C9_15 C 0.3039(3) 0.4247(3) 0.67666(17)
C10_18 C 0.0000 0.5945(6) 0.5385(2)
H4_18 H 0.0000 0.6061 0.5560
C11_15 C 0.3173(4) 0.3448(3) 0.69975(18)
C12_15 C 0.2871(4) 0.3742(3) 0.68290(16)
H5_15 H 0.2557 0.3605 0.6758
N2_15 N 0.0419(3) 0.5850(4) 0.52412(16)
C13_19 C 0.3294(5) 0.2500 0.6996(2)
H6_19 H 0.3637 0.2500 0.6925
O7_18 O 0.5000 0.5787(4) 0.68772(18)
C14_15 C 0.0252(4) 0.5689(6) 0.4988(2)
H7_15 H 0.0472 0.5599 0.4846
C15_15 C 0.1247(4) 0.6302(4) 0.51763(19)
H8_15 H 0.1118 0.6440 0.5017
C16_15 C 0.2534(4) 0.2762(3) 0.71434(18)
H9_15 H 0.2255 0.2985 0.7196
C17_15 C 0.1743(3) 0.6436(4) 0.52641(18)
C18_15 C 0.1126(3) 0.5747(4) 0.55487(18)
H10_15 H 0.0920 0.5504 0.5644
C19_15 C 0.0937(3) 0.5960(5) 0.53261(18)
O8_18 O 0.5000 0.3989(6) 0.7899(2)
C20_15 C 0.2079(4) 0.6809(4) 0.5118(2)
C30_15 C 0.4266(3) 0.0618(3) 0.71677(18)
O16_15 O 0.2322(2) 0.0636(2) 0.64850(12)
N4_15 N 0.3015(3) 0.2086(3) 0.70530(13)
C31_15 C 0.3786(4) 0.0856(3) 0.70461(16)
C32_15 C 0.3491(3) 0.0559(3) 0.68769(15)
H15_15 H 0.3602 0.0214 0.6836
C33_15 C 0.2724(4) 0.0421(3) 0.65828(17)
C34_15 C 0.3628(3) 0.1354(3) 0.71107(17)
H16_15 H 0.3825 0.1559 0.7230
C35_15 C 0.3039(3) 0.0753(3) 0.67666(17)
C36_15 C 0.3173(4) 0.1552(3) 0.69975(18)
C37_15 C 0.2871(4) 0.1258(3) 0.68290(16)
H17_15 H 0.2557 0.1395 0.6758
C38_15 C 0.2534(4) 0.2238(3) 0.71434(18)
H18_15 H 0.2255 0.2015 0.7196
O19_15 O 0.2875(3) 0.9977(2) 0.65436(12)
C10_19 C 1.0000 0.5945(6) 0.5385(2)
H4_19 H 1.0000 0.6061 0.5560
O12_15 O 0.8421(2) 0.5269(2) 0.59771(11)
C21_15 C 0.8373(3) 0.5884(4) 0.56378(18)
C22_15 C 0.8163(3) 0.5644(3) 0.58785(16)
C23_15 C 0.8086(3) 0.6227(4) 0.55009(17)
H11_15 H 0.7755 0.6331 0.5567
N3_15 N 0.9581(3) 0.5850(4) 0.52412(16)
C24_15 C 0.9748(4) 0.5689(6) 0.4988(2)
H12_15 H 0.9528 0.5599 0.4846
C25_15 C 0.8753(4) 0.6302(4) 0.51763(19)
H13_15 H 0.8882 0.6440 0.5017
C26_15 C 0.8257(3) 0.6436(4) 0.52641(18)
C27_15 C 0.8874(3) 0.5747(4) 0.55487(18)
H14_15 H 0.9080 0.5504 0.5644
C28_15 C 0.9063(3) 0.5960(5) 0.53261(18)
C29_15 C 0.7921(4) 0.6809(4) 0.5118(2)
O13_15 O 0.7742(2) 0.5829(2) 0.59669(11)
O19_16 O 0.2125(3) 0.0023(2) 0.15436(12)
C1_16 C 0.0734(3) 0.5618(3) 0.21677(18)
N1_16 N 0.1985(3) 0.7086(3) 0.20530(13)
O4_16 O 0.0550(3) 0.5841(2) 0.23630(12)
O5_16 O 0.0559(3) 0.5224(3) 0.20594(13)
C2_16 C 0.1214(4) 0.5856(3) 0.20461(16)
C3_16 C 0.1509(3) 0.5559(3) 0.18769(15)
H1_16 H 0.1398 0.5214 0.1836
C4_16 C 0.3373(3) 0.4116(4) 0.06378(18)
C5_16 C 0.3163(3) 0.4356(3) 0.08785(16)
C6_16 C 0.2276(4) 0.5421(3) 0.15828(17)
C7_16 C 0.3086(3) 0.3773(4) 0.05009(17)
H2_16 H 0.2755 0.3669 0.0567
C8_16 C 0.1372(3) 0.6354(3) 0.21107(17)
H3_16 H 0.1175 0.6559 0.2230
C9_16 C 0.1961(3) 0.5753(3) 0.17666(17)
C10_20 C 0.5000 0.4055(6) 0.0385(2)
H4_20 H 0.5000 0.3939 0.0560
C11_16 C 0.1827(4) 0.6552(3) 0.19975(18)
C12_16 C 0.2129(4) 0.6258(3) 0.18290(16)
H5_16 H 0.2443 0.6395 0.1758
N2_16 N 0.4581(3) 0.4150(4) 0.02412(16)
C13_20 C 0.1706(5) 0.7500 0.1996(2)
H6_20 H 0.1363 0.7500 0.1925
O7_19 O -0.0000 0.4213(4) 0.18772(18)
C15_16 C 0.3753(4) 0.3698(4) 0.01763(19)
H8_16 H 0.3882 0.3560 0.0017
C16_16 C 0.2466(4) 0.7238(3) 0.21434(18)
H9_16 H 0.2745 0.7015 0.2196
C17_16 C 0.3257(3) 0.3564(4) 0.02641(18)
C18_16 C 0.3874(3) 0.4253(4) 0.05487(18)
H10_16 H 0.4080 0.4496 0.0644
C19_16 C 0.4063(3) 0.4040(5) 0.03261(18)
O8_19 O -0.0000 0.6011(6) 0.2899(2)
C20_16 C 0.2921(4) 0.3191(4) 0.0118(2)
O12_16 O 0.6579(2) 0.4731(2) 0.09771(11)
C21_16 C 0.6627(3) 0.4116(4) 0.06378(18)
C22_16 C 0.6837(3) 0.4356(3) 0.08785(16)
C23_16 C 0.6914(3) 0.3773(4) 0.05009(17)
H11_16 H 0.7245 0.3669 0.0567
N3_16 N 0.5419(3) 0.4150(4) 0.02412(16)
C25_16 C 0.6247(4) 0.3698(4) 0.01763(19)
H13_16 H 0.6118 0.3560 0.0017
C26_16 C 0.6743(3) 0.3564(4) 0.02641(18)
C27_16 C 0.6126(3) 0.4253(4) 0.05487(18)
H14_16 H 0.5920 0.4496 0.0644
C28_16 C 0.5937(3) 0.4040(5) 0.03261(18)
C29_16 C 0.7079(4) 0.3191(4) 0.0118(2)
O13_16 O 0.7258(2) 0.4171(2) 0.09669(11)
C30_16 C 0.0734(3) 0.9382(3) 0.21677(18)
O16_16 O 0.2678(2) 0.9364(2) 0.14850(12)
N4_16 N 0.1985(3) 0.7914(3) 0.20530(13)
C31_16 C 0.1214(4) 0.9144(3) 0.20461(16)
C32_16 C 0.1509(3) 0.9441(3) 0.18769(15)
H15_16 H 0.1398 0.9786 0.1836
C33_16 C 0.2276(4) 0.9579(3) 0.15828(17)
C34_16 C 0.1372(3) 0.8646(3) 0.21107(17)
H16_16 H 0.1175 0.8441 0.2230
C35_16 C 0.1961(3) 0.9247(3) 0.17666(17)
C36_16 C 0.1827(4) 0.8448(3) 0.19975(18)
C37_16 C 0.2129(4) 0.8742(3) 0.18290(16)
H17_16 H 0.2443 0.8605 0.1758
C38_16 C 0.2466(4) 0.7762(3) 0.21434(18)
H18_16 H 0.2745 0.7985 0.2196
H19_4 H 0.0351445 0.405029 0.186149
C14_16 C 0.4748(4) 0.4311(6) 0.9988(2)
H7_16 H 0.4528 0.4401 0.9846
C24_16 C 0.5252(4) 0.4311(6) 0.9988(2)
H12_16 H 0.5472 0.4401 0.9846
O7_20 O 1.0000 0.4213(4) 0.18772(18)
O8_20 O 1.0000 0.6011(6) 0.2899(2)
H20_4 H 0.973471 0.393666 0.190957
H21_4 H 0.990946 0.63696 0.283976
H22_4 H 0.973784 0.589102 0.302851
O6_9 O 0.8273(3) 0.6178(3) 0.86981(17)
O20_9 O 0.6322(3) 0.4227(3) 0.88019(17)
O6_10 O 0.1322(3) 0.0773(3) 0.61981(17)
O20_10 O 0.3273(3) 0.8822(3) 0.63019(17)
O20_11 O 0.3678(3) 0.0773(3) 0.88019(17)
O6_11 O 0.1727(3) 0.8822(3) 0.86981(17)
O20_12 O 0.1727(3) 0.1178(3) 0.13019(17)
H19_5 H 0.0351445 0.0949713 0.186149
O6_12 O 0.3678(3) 0.9227(3) 0.11981(17)
H20_5 H 0.973471 0.106334 0.190957
H21_5 H 0.990946 0.86304 0.283976
H22_5 H 0.973784 0.910898 0.302851
O6_13 O 0.8273(3) 0.3822(3) 0.13019(17)
O20_13 O 0.6322(3) 0.5773(3) 0.11981(17)
H19_6 H 0.0351445 0.905029 0.813851
H21_6 H 0.990946 0.13696 0.716024
H22_6 H 0.973784 0.0891021 0.697149
H20_6 H 0.973471 0.893666 0.809043
O20_14 O 0.3273(3) 0.1178(3) 0.36981(17)
O6_14 O 0.1322(3) 0.9227(3) 0.38019(17)
H20_7 H 0.0265294 0.393666 0.190957
H21_7 H 0.00905371 0.63696 0.283976
H22_7 H 0.0262157 0.589102 0.302851
H19_7 H 0.964856 0.405029 0.186149
O6_15 O 0.6727(3) 0.3822(3) 0.36981(17)
O20_15 O 0.8678(3) 0.5773(3) 0.38019(17)
O6_16 O 0.8678(3) 0.4227(3) 0.61981(17)
O20_16 O 0.6727(3) 0.6178(3) 0.63019(17)
H20_8 H 0.0265294 0.606334 0.809043
H21_8 H 0.00905371 0.36304 0.716024
H22_8 H 0.0262157 0.410898 0.697149
H19_8 H 0.964856 0.594971 0.813851
loop_
_geom_bond_atom_site_label_1
_geom_bond_atom_site_label_2
_geom_bond_site_symmetry_1
_geom_bond_site_symmetry_2
Zn1 O1 1_555 1_555
Zn2 O5 1_555 1_555
O1 C5 1_555 1_555
C1 O4 1_555 1_555
O2 Zn1 1_555 1_555
N1 C11 1_555 1_555
O3 C5 1_555 1_555
O5 C1 1_555 1_555
C2 C1 1_555 1_555
C3 C2 1_555 1_555
H1 C3 1_555 1_555
C4 C5 1_555 1_555
C6 O2 1_555 1_555
C7 C4 1_555 1_555
H2 C7 1_555 1_555
C8 C2 1_555 1_555
H3 C8 1_555 1_555
C9 C3 1_555 1_555
C10 H4 1_555 1_555
C11 C8 1_555 1_555
C12 C9 1_555 1_555
H5 C12 1_555 1_555
N2 C10 1_555 1_555
C13 N1 1_555 1_555
H6 C13 1_555 1_555
O6 Zn1 1_555 1_555
O7 Zn2 1_555 1_555
C14 N2 1_555 1_555
H7 C14 1_555 1_555
C15 H8 1_555 1_555
C16 N1 1_555 1_555
H9 C16 1_555 1_555
C17 C7 1_555 1_555
C18 C4 1_555 1_555
H10 C18 1_555 1_555
C19 N2 1_555 1_555
O9 C20 1_555 1_555
O10 C6 1_555 1_555
O11 C20 1_555 1_555
C20 C17 1_555 1_555
O12 C22 1_555 1_555
C21 C22 1_555 1_555
C22 O13 1_555 1_555
C23 C21 1_555 1_555
H11 C23 1_555 1_555
N3 C10 1_555 1_555
C24 C14 1_555 1_555
H12 C24 1_555 1_555
C25 H13 1_555 1_555
C26 C23 1_555 1_555
C27 C21 1_555 1_555
H14 C27 1_555 1_555
C28 N3 1_555 1_555
C29 C26 1_555 1_555
O14 C29 1_555 1_555
O15 C29 1_555 1_555
Zn4 O3 1_555 1_555
O20 Zn4 1_555 1_555
Zn7 O12 1_555 1_555
Zn9 O15 1_555 1_555
Zn11 O11 1_555 1_555
Zn14 O9 1_555 1_555
O21 Zn4 1_555 1_555
O22 Zn4 1_555 1_555
O23 Zn1 1_555 1_555
O25 Zn2 1_555 1_555
O28 Zn1 1_555 1_555
O29 Zn2 1_555 1_555
O30 Zn2 1_555 1_555
C6 C9 1_555 1_555
C11 C12 1_555 1_555
C15 C17 1_555 1_555
C15 C19 1_555 1_555
C18 C19 1_555 1_555
O10 Zn4 1_555 1_555
N3 C24 1_555 1_555
C25 C26 1_555 1_555
C25 C28 1_555 1_555
C27 C28 1_555 1_555
O8 Zn3 1_555 1_555
O26 Zn3 1_555 1_555
O27 Zn3 1_555 1_555
H6_2 C13_2 1_555 1_555
C30 O17 1_555 1_555
O16 C33 1_555 1_555
N4 C13_2 1_555 1_555
O18 C30 1_555 1_555
C31 C30 1_555 1_555
C32 C31 1_555 1_555
H15 C32 1_555 1_555
C33 C35 1_555 1_555
C34 C31 1_555 1_555
H16 C34 1_555 1_555
C35 C32 1_555 1_555
C36 N4 1_555 1_555
C37 C35 1_555 1_555
H17 C37 1_555 1_555
H18 C38 1_555 1_555
O19 C33 1_555 1_555
Zn6 O16 1_555 1_555
Zn8 O19 1_555 1_555
Zn10 O18 1_555 1_555
N4 C38 1_555 1_555
C34 C36 1_555 1_555
C36 C37 1_555 1_555
C10_2 H4_2 1_555 1_555
O12_2 C22_2 1_555 1_555
C21_2 C22_2 1_555 1_555
C22_2 O13_2 1_555 1_555
C23_2 C21_2 1_555 1_555
H11_2 C23_2 1_555 1_555
N3_2 C10_2 1_555 1_555
H12_2 C24_2 1_555 1_555
C25_2 H13_2 1_555 1_555
C26_2 C23_2 1_555 1_555
C27_2 C21_2 1_555 1_555
H14_2 C27_2 1_555 1_555
C28_2 N3_2 1_555 1_555
C29_2 C26_2 1_555 1_555
O13_2 Zn5_2 1_555 1_555
O14_2 C29_2 1_555 1_555
O15_2 C29_2 1_555 1_555
Zn9_2 O15_2 1_555 1_555
Zn12_2 O14_2 1_555 1_555
N3_2 C24_2 1_555 1_555
C25_2 C26_2 1_555 1_555
C25_2 C28_2 1_555 1_555
C27_2 C28_2 1_555 1_555
O1_2 C5_2 1_555 1_555
O3_2 C5_2 1_555 1_555
C4_2 C5_2 1_555 1_555
C7_2 C4_2 1_555 1_555
H2_2 C7_2 1_555 1_555
C10_3 H4_3 1_555 1_555
N2_2 C10_3 1_555 1_555
O7_2 Zn9 1_555 1_555
C14_2 N2_2 1_555 1_555
H7_2 C14_2 1_555 1_555
C15_2 H8_2 1_555 1_555
C17_2 C7_2 1_555 1_555
C18_2 C4_2 1_555 1_555
H10_2 C18_2 1_555 1_555
C19_2 N2_2 1_555 1_555
O9_2 C20_2 1_555 1_555
O11_2 C20_2 1_555 1_555
C20_2 C17_2 1_555 1_555
Zn4_2 O3_2 1_555 1_555
O20_2 Zn4_2 1_555 1_555
Zn11_2 O11_2 1_555 1_555
Zn14_2 O9_2 1_555 1_555
O21_2 Zn4_2 1_555 1_555
O22_2 Zn4_2 1_555 1_555
O29_2 Zn9 1_555 1_555
C15_2 C17_2 1_555 1_555
C15_2 C19_2 1_555 1_555
C18_2 C19_2 1_555 1_555
O10_2 Zn4_2 1_555 1_555
Zn12 O4_2 1_555 1_555
C1_2 O4_2 1_555 1_555
O2_2 Zn1_2 1_555 1_555
N1_2 C11_2 1_555 1_555
O5_2 C1_2 1_555 1_555
C2_2 C1_2 1_555 1_555
C3_2 C2_2 1_555 1_555
H1_2 C3_2 1_555 1_555
C6_2 O2_2 1_555 1_555
C8_2 C2_2 1_555 1_555
H3_2 C8_2 1_555 1_555
C9_2 C3_2 1_555 1_555
C11_2 C8_2 1_555 1_555
C12_2 C9_2 1_555 1_555
H5_2 C12_2 1_555 1_555
C13_3 N1_2 1_555 1_555
H6_3 C13_3 1_555 1_555
O6_2 Zn1_2 1_555 1_555
C16_2 N1_2 1_555 1_555
H9_2 C16_2 1_555 1_555
O8_2 Zn12 1_555 1_555
C30_2 O17_2 1_555 1_555
O16_2 C33_2 1_555 1_555
N4_2 C13_3 1_555 1_555
O17_2 Zn14 1_555 1_555
O18_2 C30_2 1_555 1_555
C31_2 C30_2 1_555 1_555
C32_2 C31_2 1_555 1_555
H15_2 C32_2 1_555 1_555
C33_2 C35_2 1_555 1_555
C34_2 C31_2 1_555 1_555
H16_2 C34_2 1_555 1_555
C35_2 C32_2 1_555 1_555
C36_2 N4_2 1_555 1_555
C37_2 C35_2 1_555 1_555
H17_2 C37_2 1_555 1_555
C38_2 C16_2 1_555 1_555
H18_2 C38_2 1_555 1_555
O19_2 C33_2 1_555 1_555
Zn6_2 O16_2 1_555 1_555
Zn8_2 O19_2 1_555 1_555
Zn11 O18_2 1_555 1_555
O24_2 Zn12 1_555 1_555
O28_2 Zn1_2 1_555 1_555
C6_2 C9_2 1_555 1_555
C11_2 C12_2 1_555 1_555
N4_2 C38_2 1_555 1_555
C34_2 C36_2 1_555 1_555
C36_2 C37_2 1_555 1_555
Zn7 O16_3 1_555 1_555
H6_4 C13_4 1_555 1_555
C30_3 O24 1_555 1_555
N4_3 C13_4 1_555 1_555
O25 C30_3 1_555 1_555
C31_3 C30_3 1_555 1_555
C32_3 C31_3 1_555 1_555
H15_3 C32_3 1_555 1_555
C33_3 C35_3 1_555 1_555
C34_3 C31_3 1_555 1_555
H16_3 C34_3 1_555 1_555
C35_3 C32_3 1_555 1_555
C36_3 N4_3 1_555 1_555
C37_3 C35_3 1_555 1_555
H17_3 C37_3 1_555 1_555
O19_3 C33_3 1_555 1_555
Zn5 O19_3 1_555 1_555
N4_3 C38_3 1_555 1_555
C34_3 C36_3 1_555 1_555
C36_3 C37_3 1_555 1_555
Zn1_3 O1_3 1_555 1_555
O1_3 C5_3 1_555 1_555
O2_3 Zn1_3 1_555 1_555
O3_3 C5_3 1_555 1_555
C4_3 C5_3 1_555 1_555
C7_3 C4_3 1_555 1_555
H2_3 C7_3 1_555 1_555
C10_4 H4_4 1_555 1_555
N2_3 C10_4 1_555 1_555
O6_3 Zn1_3 1_555 1_555
C14_3 N2_3 1_555 1_555
H7_3 C14_3 1_555 1_555
C15_3 H8_3 1_555 1_555
C17_3 C7_3 1_555 1_555
C18_3 C4_3 1_555 1_555
H10_3 C18_3 1_555 1_555
C19_3 N2_3 1_555 1_555
O26_2 C20_3 1_555 1_555
O29_2 C20_3 1_555 1_555
C20_3 C17_3 1_555 1_555
O12_3 C22_3 1_555 1_555
C21_3 C22_3 1_555 1_555
C22_3 O13_3 1_555 1_555
C23_3 C21_3 1_555 1_555
H11_3 C23_3 1_555 1_555
N3_3 C10_4 1_555 1_555
C24_3 C14_3 1_555 1_555
H12_3 C24_3 1_555 1_555
C25_3 H13_3 1_555 1_555
C26_3 C23_3 1_555 1_555
C27_3 C21_3 1_555 1_555
H14_3 C27_3 1_555 1_555
C28_3 N3_3 1_555 1_555
C29_3 C26_3 1_555 1_555
O13_3 Zn8 1_555 1_555
O14_3 C29_3 1_555 1_555
O15_3 C29_3 1_555 1_555
Zn6 O12_3 1_555 1_555
Zn11 O15_3 1_555 1_555
Zn14 O14_3 1_555 1_555
O23_3 Zn1_3 1_555 1_555
O28_3 Zn1_3 1_555 1_555
C15_3 C17_3 1_555 1_555
C15_3 C19_3 1_555 1_555
C18_3 C19_3 1_555 1_555
N3_3 C24_3 1_555 1_555
C25_3 C26_3 1_555 1_555
C25_3 C28_3 1_555 1_555
C27_3 C28_3 1_555 1_555
Zn10 O5_3 1_555 1_555
C1_3 O4_3 1_555 1_555
N1_3 C11_3 1_555 1_555
O5_3 C1_3 1_555 1_555
C2_3 C1_3 1_555 1_555
C3_3 C2_3 1_555 1_555
H1_3 C3_3 1_555 1_555
C8_3 C2_3 1_555 1_555
H3_3 C8_3 1_555 1_555
C9_3 C3_3 1_555 1_555
C11_3 C8_3 1_555 1_555
C12_3 C9_3 1_555 1_555
H5_3 C12_3 1_555 1_555
C13_5 N1_3 1_555 1_555
H6_5 C13_5 1_555 1_555
O7_3 Zn10 1_555 1_555
C16_3 N1_3 1_555 1_555
O10_3 C6_3 1_555 1_555
O20_3 Zn4_3 1_555 1_555
O22_3 Zn4_3 1_555 1_555
O29_3 Zn10 1_555 1_555
O30_2 Zn10 1_555 1_555
C6_3 C9_3 1_555 1_555
C11_3 C12_3 1_555 1_555
O10_3 Zn4_3 1_555 1_555
O8_3 Zn13 1_555 1_555
O26_3 Zn13 1_555 1_555
O27_2 Zn13 1_555 1_555
O8_4 Zn3_2 1_555 1_555
O24_3 Zn3_2 1_555 1_555
O8_4 H21 1_555 1_555
O8_4 H22 1_555 1_555
O7_4 Zn2_2 1_555 1_555
O30_3 Zn2_2 1_555 1_555
O7_4 H20 1_555 1_555
Zn3_3 O4_4 1_555 1_555
C1_4 O4_4 1_555 1_555
O2_4 Zn1_4 1_555 1_555
N1_4 C11_4 1_555 1_555
O5_4 C1_4 1_555 1_555
C2_4 C1_4 1_555 1_555
C3_4 C2_4 1_555 1_555
H1_4 C3_4 1_555 1_555
C6_4 O2_4 1_555 1_555
C8_4 C2_4 1_555 1_555
H3_4 C8_4 1_555 1_555
C9_4 C3_4 1_555 1_555
C11_4 C8_4 1_555 1_555
C12_4 C9_4 1_555 1_555
H5_4 C12_4 1_555 1_555
C13_6 N1_4 1_555 1_555
H6_6 C13_6 1_555 1_555
O6_4 Zn1_4 1_555 1_555
C16_4 N1_4 1_555 1_555
H9_4 C16_4 1_555 1_555
O8_5 Zn3_3 1_555 1_555
C30_4 O17_3 1_555 1_555
O16_4 C33_4 1_555 1_555
N4_4 C13_6 1_555 1_555
O17_3 Zn13_3 1_555 1_555
O18_3 C30_4 1_555 1_555
C31_4 C30_4 1_555 1_555
C32_4 C31_4 1_555 1_555
H15_4 C32_4 1_555 1_555
C33_4 C35_4 1_555 1_555
C34_4 C31_4 1_555 1_555
H16_4 C34_4 1_555 1_555
C35_4 C32_4 1_555 1_555
C36_4 N4_4 1_555 1_555
C37_4 C35_4 1_555 1_555
H17_4 C37_4 1_555 1_555
C38_4 C16_4 1_555 1_555
H18_4 C38_4 1_555 1_555
O19_4 C33_4 1_555 1_555
Zn6_3 O16_4 1_555 1_555
Zn8_3 O19_4 1_555 1_555
Zn10_3 O18_3 1_555 1_555
O28_4 Zn1_4 1_555 1_555
C6_4 C9_4 1_555 1_555
C11_4 C12_4 1_555 1_555
N4_4 C38_4 1_555 1_555
C34_4 C36_4 1_555 1_555
C36_4 C37_4 1_555 1_555
H7_4 C14_4 1_555 1_555
C24_4 C14_4 1_555 1_555
H12_4 C24_4 1_555 1_555
O1_4 C5_4 1_555 1_555
O3_4 C5_4 1_555 1_555
C4_4 C5_4 1_555 1_555
C7_4 C4_4 1_555 1_555
H2_4 C7_4 1_555 1_555
C10_5 H4_5 1_555 1_555
N2_4 C10_5 1_555 1_555
O7_5 Zn2_3 1_555 1_555
C15_4 H8_4 1_555 1_555
C17_4 C7_4 1_555 1_555
C18_4 C4_4 1_555 1_555
H10_4 C18_4 1_555 1_555
C19_4 N2_4 1_555 1_555
O26_3 C20_4 1_555 1_555
C20_4 C17_4 1_555 1_555
O12_4 C22_4 1_555 1_555
C21_4 C22_4 1_555 1_555
C22_4 O13_4 1_555 1_555
C23_4 C21_4 1_555 1_555
H11_4 C23_4 1_555 1_555
N3_4 C10_5 1_555 1_555
C25_4 H13_4 1_555 1_555
C26_4 C23_4 1_555 1_555
C27_4 C21_4 1_555 1_555
H14_4 C27_4 1_555 1_555
C28_4 N3_4 1_555 1_555
C29_4 C26_4 1_555 1_555
O13_4 Zn5_3 1_555 1_555
O27 C29_4 1_555 1_555
Zn4_4 O3_4 1_555 1_555
O20_4 Zn4_4 1_555 1_555
O21_4 Zn4_4 1_555 1_555
O22_4 Zn4_4 1_555 1_555
O29_4 Zn2_3 1_555 1_555
C15_4 C17_4 1_555 1_555
C15_4 C19_4 1_555 1_555
C18_4 C19_4 1_555 1_555
O10_4 Zn4_4 1_555 1_555
C25_4 C26_4 1_555 1_555
C25_4 C28_4 1_555 1_555
C27_4 C28_4 1_555 1_555
O7_5 H19 1_555 1_555
O8_6 Zn3_4 1_555 1_555
O26_5 Zn3_4 1_555 1_555
O27_4 Zn3_4 1_555 1_555
Zn1_5 O1_5 1_555 1_555
Zn2_4 O5_5 1_555 1_555
O1_5 C5_5 1_555 1_555
C1_5 O4_5 1_555 1_555
O2_5 Zn1_5 1_555 1_555
N1_5 C11_5 1_555 1_555
O3_5 C5_5 1_555 1_555
O5_5 C1_5 1_555 1_555
C2_5 C1_5 1_555 1_555
C3_5 C2_5 1_555 1_555
H1_5 C3_5 1_555 1_555
C4_5 C5_5 1_555 1_555
C6_5 O2_5 1_555 1_555
C7_5 C4_5 1_555 1_555
H2_5 C7_5 1_555 1_555
C8_5 C2_5 1_555 1_555
H3_5 C8_5 1_555 1_555
C9_5 C3_5 1_555 1_555
C10_6 H4_6 1_555 1_555
C11_5 C8_5 1_555 1_555
C12_5 C9_5 1_555 1_555
H5_5 C12_5 1_555 1_555
N2_5 C10_6 1_555 1_555
C13_7 N1_5 1_555 1_555
H6_7 C13_7 1_555 1_555
O6_5 Zn1_5 1_555 1_555
O7_6 Zn2_4 1_555 1_555
C14_5 N2_5 1_555 1_555
H7_5 C14_5 1_555 1_555
C15_5 H8_5 1_555 1_555
C16_5 N1_5 1_555 1_555
H9_5 C16_5 1_555 1_555
C17_5 C7_5 1_555 1_555
C18_5 C4_5 1_555 1_555
H10_5 C18_5 1_555 1_555
C19_5 N2_5 1_555 1_555
O9_3 C20_5 1_555 1_555
O10_5 C6_5 1_555 1_555
O11_3 C20_5 1_555 1_555
C20_5 C17_5 1_555 1_555
O12_5 C22_5 1_555 1_555
C21_5 C22_5 1_555 1_555
C22_5 O13_5 1_555 1_555
C23_5 C21_5 1_555 1_555
H11_5 C23_5 1_555 1_555
N3_5 C10_6 1_555 1_555
C24_5 C14_5 1_555 1_555
H12_5 C24_5 1_555 1_555
C25_5 H13_5 1_555 1_555
C26_5 C23_5 1_555 1_555
C27_5 C21_5 1_555 1_555
H14_5 C27_5 1_555 1_555
C28_5 N3_5 1_555 1_555
C29_5 C26_5 1_555 1_555
O14_4 C29_5 1_555 1_555
O15_4 C29_5 1_555 1_555
Zn4_5 O3_5 1_555 1_555
O20_5 Zn4_5 1_555 1_555
Zn5_3 O12_5 1_555 1_555
Zn9_3 O15_4 1_555 1_555
Zn11_3 O11_3 1_555 1_555
Zn14_3 O9_3 1_555 1_555
O21_5 Zn4_5 1_555 1_555
O22_5 Zn4_5 1_555 1_555
O23_5 Zn1_5 1_555 1_555
O25_4 Zn2_4 1_555 1_555
O28_5 Zn1_5 1_555 1_555
O29_5 Zn2_4 1_555 1_555
O30_4 Zn2_4 1_555 1_555
C6_5 C9_5 1_555 1_555
C11_5 C12_5 1_555 1_555
C15_5 C17_5 1_555 1_555
C15_5 C19_5 1_555 1_555
C18_5 C19_5 1_555 1_555
O10_5 Zn4_5 1_555 1_555
N3_5 C24_5 1_555 1_555
C25_5 C26_5 1_555 1_555
C25_5 C28_5 1_555 1_555
C27_5 C28_5 1_555 1_555
H6_8 C13_8 1_555 1_555
C30_5 O17_4 1_555 1_555
O16_5 C33_5 1_555 1_555
N4_5 C13_8 1_555 1_555
O18_4 C30_5 1_555 1_555
C31_5 C30_5 1_555 1_555
C32_5 C31_5 1_555 1_555
H15_5 C32_5 1_555 1_555
C33_5 C35_5 1_555 1_555
C34_5 C31_5 1_555 1_555
H16_5 C34_5 1_555 1_555
C35_5 C32_5 1_555 1_555
C36_5 N4_5 1_555 1_555
C37_5 C35_5 1_555 1_555
H17_5 C37_5 1_555 1_555
H18_5 C38_5 1_555 1_555
O19_5 C33_5 1_555 1_555
Zn8_3 O16_5 1_555 1_555
Zn6_3 O19_5 1_555 1_555
Zn10_4 O18_4 1_555 1_555
N4_5 C38_5 1_555 1_555
C34_5 C36_5 1_555 1_555
C36_5 C37_5 1_555 1_555
H6_9 C13_9 1_555 1_555
C30_6 O24_4 1_555 1_555
N4_6 C13_9 1_555 1_555
O25_4 C30_6 1_555 1_555
C31_6 C30_6 1_555 1_555
C32_6 C31_6 1_555 1_555
H15_6 C32_6 1_555 1_555
C33_6 C35_6 1_555 1_555
C34_6 C31_6 1_555 1_555
H16_6 C34_6 1_555 1_555
C35_6 C32_6 1_555 1_555
C36_6 N4_6 1_555 1_555
C37_6 C35_6 1_555 1_555
H17_6 C37_6 1_555 1_555
O19_6 C33_6 1_555 1_555
Zn7_3 O19_6 1_555 1_555
N4_6 C38_6 1_555 1_555
C34_6 C36_6 1_555 1_555
C36_6 C37_6 1_555 1_555
Zn5_3 O16_6 1_555 1_555
O8_7 Zn13_4 1_555 1_555
O26_6 Zn13_4 1_555 1_555
O27_5 Zn13_4 1_555 1_555
Zn10_4 O5_6 1_555 1_555
C1_6 O4_6 1_555 1_555
N1_6 C11_6 1_555 1_555
O5_6 C1_6 1_555 1_555
C2_6 C1_6 1_555 1_555
C3_6 C2_6 1_555 1_555
H1_6 C3_6 1_555 1_555
C8_6 C2_6 1_555 1_555
H3_6 C8_6 1_555 1_555
C9_6 C3_6 1_555 1_555
C11_6 C8_6 1_555 1_555
C12_6 C9_6 1_555 1_555
H5_6 C12_6 1_555 1_555
C13_10 N1_6 1_555 1_555
H6_10 C13_10 1_555 1_555
O7_7 Zn10_4 1_555 1_555
C16_6 N1_6 1_555 1_555
O28_4 C6_6 1_555 1_555
O29_6 Zn10_4 1_555 1_555
O30_5 Zn10_4 1_555 1_555
C6_6 C9_6 1_555 1_555
C11_6 C12_6 1_555 1_555
O21_4 C5_6 1_555 1_555
O23_4 C5_6 1_555 1_555
C4_6 C5_6 1_555 1_555
C7_6 C4_6 1_555 1_555
H2_6 C7_6 1_555 1_555
C10_7 H4_7 1_555 1_555
N2_6 C10_7 1_555 1_555
C14_6 N2_6 1_555 1_555
H7_6 C14_6 1_555 1_555
C15_6 H8_6 1_555 1_555
C17_6 C7_6 1_555 1_555
C18_6 C4_6 1_555 1_555
H10_6 C18_6 1_555 1_555
C19_6 N2_6 1_555 1_555
O9_4 C20_6 1_555 1_555
O11_4 C20_6 1_555 1_555
C20_6 C17_6 1_555 1_555
O12_6 C22_6 1_555 1_555
C21_6 C22_6 1_555 1_555
C22_6 O13_6 1_555 1_555
C23_6 C21_6 1_555 1_555
H11_6 C23_6 1_555 1_555
N3_6 C10_7 1_555 1_555
C24_6 C14_6 1_555 1_555
H12_6 C24_6 1_555 1_555
C25_6 H13_6 1_555 1_555
C26_6 C23_6 1_555 1_555
C27_6 C21_6 1_555 1_555
H14_6 C27_6 1_555 1_555
C28_6 N3_6 1_555 1_555
C29_6 C26_6 1_555 1_555
O13_6 Zn6_3 1_555 1_555
O14_5 C29_6 1_555 1_555
O15_5 C29_6 1_555 1_555
Zn8_3 O12_6 1_555 1_555
Zn11_3 O15_5 1_555 1_555
Zn9_3 O11_4 1_555 1_555
Zn14_3 O14_5 1_555 1_555
C15_6 C17_6 1_555 1_555
C15_6 C19_6 1_555 1_555
C18_6 C19_6 1_555 1_555
N3_6 C24_6 1_555 1_555
C25_6 C26_6 1_555 1_555
C25_6 C28_6 1_555 1_555
C27_6 C28_6 1_555 1_555
O7_8 Zn2_5 1_555 1_555
O30_6 Zn2_5 1_555 1_555
O7_8 H20_2 1_555 1_555
O8_8 Zn3_5 1_555 1_555
O24_5 Zn3_5 1_555 1_555
O8_8 H21_2 1_555 1_555
O8_8 H22_2 1_555 1_555
O21_3 C5_7 1_555 1_555
O23_3 C5_7 1_555 1_555
C4_7 C5_7 1_555 1_555
C7_7 C4_7 1_555 1_555
H2_7 C7_7 1_555 1_555
C10_8 H4_8 1_555 1_555
N2_7 C10_8 1_555 1_555
O7_9 Zn2_6 1_555 1_555
C15_7 H8_7 1_555 1_555
C17_7 C7_7 1_555 1_555
C18_7 C4_7 1_555 1_555
H10_7 C18_7 1_555 1_555
C19_7 N2_7 1_555 1_555
O26_6 C20_7 1_555 1_555
C20_7 C17_7 1_555 1_555
O12_7 C22_7 1_555 1_555
C21_7 C22_7 1_555 1_555
C22_7 O13_7 1_555 1_555
C23_7 C21_7 1_555 1_555
H11_7 C23_7 1_555 1_555
N3_7 C10_8 1_555 1_555
C25_7 H13_7 1_555 1_555
C26_7 C23_7 1_555 1_555
C27_7 C21_7 1_555 1_555
H14_7 C27_7 1_555 1_555
C28_7 N3_7 1_555 1_555
C29_7 C26_7 1_555 1_555
O13_7 Zn7 1_555 1_555
O27_4 C29_7 1_555 1_555
O29_7 Zn2_6 1_555 1_555
C15_7 C17_7 1_555 1_555
C15_7 C19_7 1_555 1_555
C18_7 C19_7 1_555 1_555
C25_7 C26_7 1_555 1_555
C25_7 C28_7 1_555 1_555
C27_7 C28_7 1_555 1_555
O7_9 H19_2 1_555 1_555
H7_7 C14_7 1_555 1_555
C24_7 C14_7 1_555 1_555
H12_7 C24_7 1_555 1_555
Zn3_6 O4_7 1_555 1_555
C1_7 O4_7 1_555 1_555
N1_7 C11_7 1_555 1_555
O5_7 C1_7 1_555 1_555
C2_7 C1_7 1_555 1_555
C3_7 C2_7 1_555 1_555
H1_7 C3_7 1_555 1_555
C6_7 O22_3 1_555 1_555
C8_7 C2_7 1_555 1_555
H3_7 C8_7 1_555 1_555
C9_7 C3_7 1_555 1_555
C11_7 C8_7 1_555 1_555
C12_7 C9_7 1_555 1_555
H5_7 C12_7 1_555 1_555
C13_11 N1_7 1_555 1_555
H6_11 C13_11 1_555 1_555
C16_7 N1_7 1_555 1_555
H9_7 C16_7 1_555 1_555
O8_9 Zn3_6 1_555 1_555
C30_7 O17_5 1_555 1_555
O16_7 C33_7 1_555 1_555
N4_7 C13_11 1_555 1_555
O17_5 Zn13_6 1_555 1_555
O18_5 C30_7 1_555 1_555
C31_7 C30_7 1_555 1_555
C32_7 C31_7 1_555 1_555
H15_7 C32_7 1_555 1_555
C33_7 C35_7 1_555 1_555
C34_7 C31_7 1_555 1_555
H16_7 C34_7 1_555 1_555
C35_7 C32_7 1_555 1_555
C36_7 N4_7 1_555 1_555
C37_7 C35_7 1_555 1_555
H17_7 C37_7 1_555 1_555
C38_7 C16_7 1_555 1_555
H18_7 C38_7 1_555 1_555
O19_7 C33_7 1_555 1_555
Zn8 O16_7 1_555 1_555
Zn6 O19_7 1_555 1_555
Zn10_6 O18_5 1_555 1_555
C6_7 C9_7 1_555 1_555
C11_7 C12_7 1_555 1_555
N4_7 C38_7 1_555 1_555
C34_7 C36_7 1_555 1_555
C36_7 C37_7 1_555 1_555
C10_9 H4_9 1_555 1_555
O12_8 C22_8 1_555 1_555
C21_8 C22_8 1_555 1_555
C22_8 O13_8 1_555 1_555
C23_8 C21_8 1_555 1_555
H11_8 C23_8 1_555 1_555
N3_8 C10_9 1_555 1_555
H12_8 C24_8 1_555 1_555
C25_8 H13_8 1_555 1_555
C26_8 C23_8 1_555 1_555
C27_8 C21_8 1_555 1_555
H14_8 C27_8 1_555 1_555
C28_8 N3_8 1_555 1_555
C29_8 C26_8 1_555 1_555
O13_8 Zn5_4 1_555 1_555
O14_6 C29_8 1_555 1_555
O15_6 C29_8 1_555 1_555
Zn9_4 O15_6 1_555 1_555
Zn12_4 O14_6 1_555 1_555
N3_8 C24_8 1_555 1_555
C25_8 C26_8 1_555 1_555
C25_8 C28_8 1_555 1_555
C27_8 C28_8 1_555 1_555
Zn12_3 O4_8 1_555 1_555
C1_8 O4_8 1_555 1_555
O2_6 Zn1_6 1_555 1_555
N1_8 C11_8 1_555 1_555
O5_8 C1_8 1_555 1_555
C2_8 C1_8 1_555 1_555
C3_8 C2_8 1_555 1_555
H1_8 C3_8 1_555 1_555
C6_8 O2_6 1_555 1_555
C8_8 C2_8 1_555 1_555
H3_8 C8_8 1_555 1_555
C9_8 C3_8 1_555 1_555
C11_8 C8_8 1_555 1_555
C12_8 C9_8 1_555 1_555
H5_8 C12_8 1_555 1_555
C13_12 N1_8 1_555 1_555
H6_12 C13_12 1_555 1_555
O6_6 Zn1_6 1_555 1_555
C16_8 N1_8 1_555 1_555
H9_8 C16_8 1_555 1_555
O8_10 Zn12_3 1_555 1_555
C30_8 O17_6 1_555 1_555
O16_8 C33_8 1_555 1_555
N4_8 C13_12 1_555 1_555
O17_6 Zn14_3 1_555 1_555
O18_6 C30_8 1_555 1_555
C31_8 C30_8 1_555 1_555
C32_8 C31_8 1_555 1_555
H15_8 C32_8 1_555 1_555
C33_8 C35_8 1_555 1_555
C34_8 C31_8 1_555 1_555
H16_8 C34_8 1_555 1_555
C35_8 C32_8 1_555 1_555
C36_8 N4_8 1_555 1_555
C37_8 C35_8 1_555 1_555
H17_8 C37_8 1_555 1_555
C38_8 C16_8 1_555 1_555
H18_8 C38_8 1_555 1_555
O19_8 C33_8 1_555 1_555
Zn6_4 O16_8 1_555 1_555
Zn8_4 O19_8 1_555 1_555
Zn11_3 O18_6 1_555 1_555
O24_6 Zn12_3 1_555 1_555
O28_6 Zn1_6 1_555 1_555
C6_8 C9_8 1_555 1_555
C11_8 C12_8 1_555 1_555
N4_8 C38_8 1_555 1_555
C34_8 C36_8 1_555 1_555
C36_8 C37_8 1_555 1_555
O1_6 C5_8 1_555 1_555
O3_6 C5_8 1_555 1_555
C4_8 C5_8 1_555 1_555
C7_8 C4_8 1_555 1_555
H2_8 C7_8 1_555 1_555
C10_10 H4_10 1_555 1_555
N2_8 C10_10 1_555 1_555
O7_10 Zn9_3 1_555 1_555
C14_8 N2_8 1_555 1_555
H7_8 C14_8 1_555 1_555
C15_8 H8_8 1_555 1_555
C17_8 C7_8 1_555 1_555
C18_8 C4_8 1_555 1_555
H10_8 C18_8 1_555 1_555
C19_8 N2_8 1_555 1_555
O9_5 C20_8 1_555 1_555
O11_5 C20_8 1_555 1_555
C20_8 C17_8 1_555 1_555
Zn4_6 O3_6 1_555 1_555
O20_6 Zn4_6 1_555 1_555
Zn11_4 O11_5 1_555 1_555
Zn14_4 O9_5 1_555 1_555
O21_6 Zn4_6 1_555 1_555
O22_6 Zn4_6 1_555 1_555
C15_8 C17_8 1_555 1_555
C15_8 C19_8 1_555 1_555
C18_8 C19_8 1_555 1_555
O10_6 Zn4_6 1_555 1_555
Zn11_2 O5_9 1_555 1_555
Zn14_2 O4_9 1_555 1_555
C1_9 O4_9 1_555 1_555
N1_9 C11_9 1_555 1_555
O5_9 C1_9 1_555 1_555
C2_9 C1_9 1_555 1_555
C3_9 C2_9 1_555 1_555
H1_9 C3_9 1_555 1_555
C8_9 C2_9 1_555 1_555
H3_9 C8_9 1_555 1_555
C9_9 C3_9 1_555 1_555
C11_9 C8_9 1_555 1_555
C12_9 C9_9 1_555 1_555
H5_9 C12_9 1_555 1_555
C13_13 N1_9 1_555 1_555
H6_13 C13_13 1_555 1_555
O7_11 Zn11_2 1_555 1_555
C16_9 N1_9 1_555 1_555
O8_11 Zn14_2 1_555 1_555
O28_6 C6_9 1_555 1_555
C30_9 O17_7 1_555 1_555
N4_9 C13_13 1_555 1_555
O17_7 Zn12_2 1_555 1_555
O18_7 C30_9 1_555 1_555
C31_9 C30_9 1_555 1_555
C32_9 C31_9 1_555 1_555
H15_9 C32_9 1_555 1_555
C33_9 C35_9 1_555 1_555
C34_9 C31_9 1_555 1_555
H16_9 C34_9 1_555 1_555
C35_9 C32_9 1_555 1_555
C36_9 N4_9 1_555 1_555
C37_9 C35_9 1_555 1_555
H17_9 C37_9 1_555 1_555
C38_9 C16_9 1_555 1_555
O19_9 C33_9 1_555 1_555
Zn7_4 O19_9 1_555 1_555
Zn9_2 O18_7 1_555 1_555
O24_7 Zn14_2 1_555 1_555
O25_7 Zn11_2 1_555 1_555
O27_7 Zn14_2 1_555 1_555
O30_7 Zn11_2 1_555 1_555
C6_9 C9_9 1_555 1_555
C11_9 C12_9 1_555 1_555
N4_9 C38_9 1_555 1_555
C34_9 C36_9 1_555 1_555
C36_9 C37_9 1_555 1_555
O21_6 C5_9 1_555 1_555
O23_6 C5_9 1_555 1_555
C4_9 C5_9 1_555 1_555
C7_9 C4_9 1_555 1_555
H2_9 C7_9 1_555 1_555
C10_11 H4_11 1_555 1_555
N2_9 C10_11 1_555 1_555
C14_9 N2_9 1_555 1_555
H7_9 C14_9 1_555 1_555
C15_9 H8_9 1_555 1_555
C17_9 C7_9 1_555 1_555
C18_9 C4_9 1_555 1_555
H10_9 C18_9 1_555 1_555
C19_9 N2_9 1_555 1_555
O26_4 C20_9 1_555 1_555
O29_4 C20_9 1_555 1_555
C20_9 C17_9 1_555 1_555
O12_9 C22_9 1_555 1_555
C21_9 C22_9 1_555 1_555
C22_9 O13_9 1_555 1_555
C23_9 C21_9 1_555 1_555
H11_9 C23_9 1_555 1_555
N3_9 C10_11 1_555 1_555
C24_9 C14_9 1_555 1_555
H12_9 C24_9 1_555 1_555
C25_9 H13_9 1_555 1_555
C26_9 C23_9 1_555 1_555
C27_9 C21_9 1_555 1_555
H14_9 C27_9 1_555 1_555
C28_9 N3_9 1_555 1_555
C29_9 C26_9 1_555 1_555
O13_9 Zn6_4 1_555 1_555
O14_7 C29_9 1_555 1_555
O15_7 C29_9 1_555 1_555
Zn5_4 O16_9 1_555 1_555
Zn8_4 O12_9 1_555 1_555
Zn10_3 O15_7 1_555 1_555
Zn13_3 O14_7 1_555 1_555
C15_9 C17_9 1_555 1_555
C15_9 C19_9 1_555 1_555
C18_9 C19_9 1_555 1_555
N3_9 C24_9 1_555 1_555
C25_9 C26_9 1_555 1_555
C25_9 C28_9 1_555 1_555
C27_9 C28_9 1_555 1_555
H7_10 C14_10 1_555 1_555
C24_10 C14_10 1_555 1_555
H12_10 C24_10 1_555 1_555
Zn10_2 O5_10 1_555 1_555
Zn13_2 O4_10 1_555 1_555
O21_5 C5_10 1_555 1_555
C1_10 O4_10 1_555 1_555
N1_10 C11_10 1_555 1_555
O23_5 C5_10 1_555 1_555
O5_10 C1_10 1_555 1_555
C2_10 C1_10 1_555 1_555
C3_10 C2_10 1_555 1_555
H1_10 C3_10 1_555 1_555
C4_10 C5_10 1_555 1_555
C6_10 O22_5 1_555 1_555
C7_10 C4_10 1_555 1_555
H2_10 C7_10 1_555 1_555
C8_10 C2_10 1_555 1_555
H3_10 C8_10 1_555 1_555
C9_10 C3_10 1_555 1_555
C10_12 H4_12 1_555 1_555
C11_10 C8_10 1_555 1_555
C12_10 C9_10 1_555 1_555
H5_10 C12_10 1_555 1_555
N2_10 C10_12 1_555 1_555
C13_14 N1_10 1_555 1_555
H6_14 C13_14 1_555 1_555
O7_12 Zn10_2 1_555 1_555
C15_10 H8_10 1_555 1_555
C16_10 N1_10 1_555 1_555
H9_10 C16_10 1_555 1_555
C17_10 C7_10 1_555 1_555
C18_10 C4_10 1_555 1_555
H10_10 C18_10 1_555 1_555
C19_10 N2_10 1_555 1_555
O8_12 Zn13_2 1_555 1_555
O26 C20_10 1_555 1_555
O28_5 C6_10 1_555 1_555
C20_10 C17_10 1_555 1_555
O12_10 C22_10 1_555 1_555
C21_10 C22_10 1_555 1_555
C22_10 O13_10 1_555 1_555
C23_10 C21_10 1_555 1_555
H11_10 C23_10 1_555 1_555
N3_10 C10_12 1_555 1_555
C25_10 H13_10 1_555 1_555
C26_10 C23_10 1_555 1_555
C27_10 C21_10 1_555 1_555
H14_10 C27_10 1_555 1_555
C28_10 N3_10 1_555 1_555
C29_10 C26_10 1_555 1_555
O13_10 Zn8_3 1_555 1_555
O27_2 C29_10 1_555 1_555
C30_10 O24_3 1_555 1_555
O16_10 C33_10 1_555 1_555
N4_10 C13_14 1_555 1_555
O25_3 C30_10 1_555 1_555
C31_10 C30_10 1_555 1_555
C32_10 C31_10 1_555 1_555
H15_10 C32_10 1_555 1_555
C33_10 C35_10 1_555 1_555
C34_10 C31_10 1_555 1_555
H16_10 C34_10 1_555 1_555
C35_10 C32_10 1_555 1_555
C36_10 N4_10 1_555 1_555
C37_10 C35_10 1_555 1_555
H17_10 C37_10 1_555 1_555
C38_10 C16_10 1_555 1_555
H18_10 C38_10 1_555 1_555
Zn7_3 O16_10 1_555 1_555
Zn6_3 O12_10 1_555 1_555
O26_8 Zn13_2 1_555 1_555
O29_8 Zn10_2 1_555 1_555
C6_10 C9_10 1_555 1_555
C11_10 C12_10 1_555 1_555
C15_10 C17_10 1_555 1_555
C15_10 C19_10 1_555 1_555
C18_10 C19_10 1_555 1_555
C25_10 C26_10 1_555 1_555
C25_10 C28_10 1_555 1_555
C27_10 C28_10 1_555 1_555
N4_10 C38_10 1_555 1_555
C34_10 C36_10 1_555 1_555
C36_10 C37_10 1_555 1_555
O7_12 H19_3 1_555 1_555
Zn5_3 O19_10 1_555 1_555
O7_13 Zn10_3 1_555 1_555
O8_13 Zn13_3 1_555 1_555
O7_13 H20_3 1_555 1_555
O8_13 H21_3 1_555 1_555
O8_13 H22_3 1_555 1_555
Zn1_7 O1_7 1_555 1_555
Zn9_2 O5_11 1_555 1_555
Zn12_2 O4_11 1_555 1_555
O1_7 C5_11 1_555 1_555
C1_11 O4_11 1_555 1_555
O2_7 Zn1_7 1_555 1_555
N1_11 C11_11 1_555 1_555
O3_7 C5_11 1_555 1_555
O5_11 C1_11 1_555 1_555
C2_11 C1_11 1_555 1_555
C3_11 C2_11 1_555 1_555
H1_11 C3_11 1_555 1_555
C4_11 C5_11 1_555 1_555
C6_11 O2_7 1_555 1_555
C7_11 C4_11 1_555 1_555
H2_11 C7_11 1_555 1_555
C8_11 C2_11 1_555 1_555
H3_11 C8_11 1_555 1_555
C9_11 C3_11 1_555 1_555
C10_13 H4_13 1_555 1_555
C11_11 C8_11 1_555 1_555
C12_11 C9_11 1_555 1_555
H5_11 C12_11 1_555 1_555
N2_11 C10_13 1_555 1_555
C13_15 N1_11 1_555 1_555
H6_15 C13_15 1_555 1_555
O6_7 Zn1_7 1_555 1_555
O7_14 Zn9_2 1_555 1_555
C14_11 N2_11 1_555 1_555
H7_11 C14_11 1_555 1_555
C15_11 H8_11 1_555 1_555
C16_11 N1_11 1_555 1_555
H9_11 C16_11 1_555 1_555
C17_11 C7_11 1_555 1_555
C18_11 C4_11 1_555 1_555
H10_11 C18_11 1_555 1_555
C19_11 N2_11 1_555 1_555
O8_14 Zn12_2 1_555 1_555
O26_8 C20_11 1_555 1_555
O10_7 C6_11 1_555 1_555
O29_8 C20_11 1_555 1_555
C20_11 C17_11 1_555 1_555
O12_11 C22_11 1_555 1_555
C21_11 C22_11 1_555 1_555
C22_11 O13_11 1_555 1_555
C23_11 C21_11 1_555 1_555
H11_11 C23_11 1_555 1_555
N3_11 C10_13 1_555 1_555
C24_11 C14_11 1_555 1_555
H12_11 C24_11 1_555 1_555
C25_11 H13_11 1_555 1_555
C26_11 C23_11 1_555 1_555
C27_11 C21_11 1_555 1_555
H14_11 C27_11 1_555 1_555
C28_11 N3_11 1_555 1_555
C29_11 C26_11 1_555 1_555
O27_3 C29_11 1_555 1_555
O30_3 C29_11 1_555 1_555
C30_11 O24_7 1_555 1_555
O16_11 C33_11 1_555 1_555
N4_11 C13_15 1_555 1_555
O25_7 C30_11 1_555 1_555
C31_11 C30_11 1_555 1_555
C32_11 C31_11 1_555 1_555
H15_11 C32_11 1_555 1_555
C33_11 C35_11 1_555 1_555
C34_11 C31_11 1_555 1_555
H16_11 C34_11 1_555 1_555
C35_11 C32_11 1_555 1_555
C36_11 N4_11 1_555 1_555
C37_11 C35_11 1_555 1_555
H17_11 C37_11 1_555 1_555
C38_11 C16_11 1_555 1_555
H18_11 C38_11 1_555 1_555
O19_11 C33_11 1_555 1_555
Zn4_7 O3_7 1_555 1_555
O20_7 Zn4_7 1_555 1_555
Zn8_4 O16_11 1_555 1_555
Zn5_4 O12_11 1_555 1_555
Zn6_4 O19_11 1_555 1_555
O21_7 Zn4_7 1_555 1_555
O22_7 Zn4_7 1_555 1_555
O23_7 Zn1_7 1_555 1_555
O26_9 Zn12_2 1_555 1_555
O28_7 Zn1_7 1_555 1_555
O29_9 Zn9_2 1_555 1_555
C6_11 C9_11 1_555 1_555
C11_11 C12_11 1_555 1_555
C15_11 C17_11 1_555 1_555
C15_11 C19_11 1_555 1_555
C18_11 C19_11 1_555 1_555
O10_7 Zn4_7 1_555 1_555
N3_11 C24_11 1_555 1_555
C25_11 C26_11 1_555 1_555
C25_11 C28_11 1_555 1_555
C27_11 C28_11 1_555 1_555
N4_11 C38_11 1_555 1_555
C34_11 C36_11 1_555 1_555
C36_11 C37_11 1_555 1_555
Zn5_2 O19_12 1_555 1_555
Zn1_8 O1_8 1_555 1_555
Zn11 O5_12 1_555 1_555
Zn14 O4_12 1_555 1_555
O1_8 C5_12 1_555 1_555
C1_12 O4_12 1_555 1_555
O2_8 Zn1_8 1_555 1_555
N1_12 C11_12 1_555 1_555
O3_8 C5_12 1_555 1_555
O5_12 C1_12 1_555 1_555
C2_12 C1_12 1_555 1_555
C3_12 C2_12 1_555 1_555
H1_12 C3_12 1_555 1_555
C4_12 C5_12 1_555 1_555
C6_12 O2_8 1_555 1_555
C7_12 C4_12 1_555 1_555
H2_12 C7_12 1_555 1_555
C8_12 C2_12 1_555 1_555
H3_12 C8_12 1_555 1_555
C9_12 C3_12 1_555 1_555
C10_14 H4_14 1_555 1_555
C11_12 C8_12 1_555 1_555
C12_12 C9_12 1_555 1_555
H5_12 C12_12 1_555 1_555
N2_12 C10_14 1_555 1_555
C13_16 N1_12 1_555 1_555
H6_16 C13_16 1_555 1_555
O6_8 Zn1_8 1_555 1_555
O7_15 Zn11 1_555 1_555
C14_12 N2_12 1_555 1_555
H7_12 C14_12 1_555 1_555
C15_12 H8_12 1_555 1_555
C16_12 N1_12 1_555 1_555
H9_12 C16_12 1_555 1_555
C17_12 C7_12 1_555 1_555
C18_12 C4_12 1_555 1_555
H10_12 C18_12 1_555 1_555
C19_12 N2_12 1_555 1_555
O8_15 Zn14 1_555 1_555
O26_9 C20_12 1_555 1_555
O10_8 C6_12 1_555 1_555
O29_9 C20_12 1_555 1_555
C20_12 C17_12 1_555 1_555
C30_12 O24_2 1_555 1_555
O16_12 C33_12 1_555 1_555
N4_12 C13_16 1_555 1_555
O25_2 C30_12 1_555 1_555
C31_12 C30_12 1_555 1_555
C32_12 C31_12 1_555 1_555
H15_12 C32_12 1_555 1_555
C33_12 C35_12 1_555 1_555
C34_12 C31_12 1_555 1_555
H16_12 C34_12 1_555 1_555
C35_12 C32_12 1_555 1_555
C36_12 N4_12 1_555 1_555
C37_12 C35_12 1_555 1_555
H17_12 C37_12 1_555 1_555
C38_12 C16_12 1_555 1_555
H18_12 C38_12 1_555 1_555
Zn4_8 O3_8 1_555 1_555
O20_8 Zn4_8 1_555 1_555
Zn7_2 O16_12 1_555 1_555
O21_8 Zn4_8 1_555 1_555
O22_8 Zn4_8 1_555 1_555
O23_8 Zn1_8 1_555 1_555
O28_8 Zn1_8 1_555 1_555
C6_12 C9_12 1_555 1_555
C11_12 C12_12 1_555 1_555
C15_12 C17_12 1_555 1_555
C15_12 C19_12 1_555 1_555
C18_12 C19_12 1_555 1_555
O10_8 Zn4_8 1_555 1_555
N4_12 C38_12 1_555 1_555
C34_12 C36_12 1_555 1_555
C36_12 C37_12 1_555 1_555
C10_15 H4_15 1_555 1_555
O12_12 C22_12 1_555 1_555
C21_12 C22_12 1_555 1_555
C22_12 O13_12 1_555 1_555
C23_12 C21_12 1_555 1_555
H11_12 C23_12 1_555 1_555
N3_12 C10_15 1_555 1_555
H12_12 C24_12 1_555 1_555
C25_12 H13_12 1_555 1_555
C26_12 C23_12 1_555 1_555
C27_12 C21_12 1_555 1_555
H14_12 C27_12 1_555 1_555
C28_12 N3_12 1_555 1_555
C29_12 C26_12 1_555 1_555
O13_12 Zn8_2 1_555 1_555
O27_7 C29_12 1_555 1_555
O30_7 C29_12 1_555 1_555
Zn6_2 O12_12 1_555 1_555
N3_12 C24_12 1_555 1_555
C25_12 C26_12 1_555 1_555
C25_12 C28_12 1_555 1_555
C27_12 C28_12 1_555 1_555
O21_2 C5_13 1_555 1_555
O23_2 C5_13 1_555 1_555
C4_13 C5_13 1_555 1_555
C7_13 C4_13 1_555 1_555
H2_13 C7_13 1_555 1_555
C10_16 H4_16 1_555 1_555
N2_13 C10_16 1_555 1_555
C14_13 N2_13 1_555 1_555
H7_13 C14_13 1_555 1_555
C15_13 H8_13 1_555 1_555
C17_13 C7_13 1_555 1_555
C18_13 C4_13 1_555 1_555
H10_13 C18_13 1_555 1_555
C19_13 N2_13 1_555 1_555
O26_7 C20_13 1_555 1_555
O29_7 C20_13 1_555 1_555
C20_13 C17_13 1_555 1_555
O12_13 C22_13 1_555 1_555
C21_13 C22_13 1_555 1_555
C22_13 O13_13 1_555 1_555
C23_13 C21_13 1_555 1_555
H11_13 C23_13 1_555 1_555
N3_13 C10_16 1_555 1_555
C24_13 C14_13 1_555 1_555
H12_13 C24_13 1_555 1_555
C25_13 H13_13 1_555 1_555
C26_13 C23_13 1_555 1_555
C27_13 C21_13 1_555 1_555
H14_13 C27_13 1_555 1_555
C28_13 N3_13 1_555 1_555
C29_13 C26_13 1_555 1_555
O13_13 Zn6_2 1_555 1_555
O14_8 C29_13 1_555 1_555
O15_8 C29_13 1_555 1_555
Zn5_2 O16_13 1_555 1_555
Zn8_2 O12_13 1_555 1_555
Zn10_6 O15_8 1_555 1_555
Zn13_6 O14_8 1_555 1_555
C15_13 C17_13 1_555 1_555
C15_13 C19_13 1_555 1_555
C18_13 C19_13 1_555 1_555
N3_13 C24_13 1_555 1_555
C25_13 C26_13 1_555 1_555
C25_13 C28_13 1_555 1_555
C27_13 C28_13 1_555 1_555
Zn11_4 O5_13 1_555 1_555
Zn14_4 O4_13 1_555 1_555
C1_13 O4_13 1_555 1_555
N1_13 C11_13 1_555 1_555
O5_13 C1_13 1_555 1_555
C2_13 C1_13 1_555 1_555
C3_13 C2_13 1_555 1_555
H1_13 C3_13 1_555 1_555
C8_13 C2_13 1_555 1_555
H3_13 C8_13 1_555 1_555
C9_13 C3_13 1_555 1_555
C11_13 C8_13 1_555 1_555
C12_13 C9_13 1_555 1_555
H5_13 C12_13 1_555 1_555
C13_17 N1_13 1_555 1_555
H6_17 C13_17 1_555 1_555
O7_16 Zn11_4 1_555 1_555
C16_13 N1_13 1_555 1_555
O8_16 Zn14_4 1_555 1_555
O28_2 C6_13 1_555 1_555
C30_13 O17_8 1_555 1_555
N4_13 C13_17 1_555 1_555
O17_8 Zn12_4 1_555 1_555
O18_8 C30_13 1_555 1_555
C31_13 C30_13 1_555 1_555
C32_13 C31_13 1_555 1_555
H15_13 C32_13 1_555 1_555
C33_13 C35_13 1_555 1_555
C34_13 C31_13 1_555 1_555
H16_13 C34_13 1_555 1_555
C35_13 C32_13 1_555 1_555
C36_13 N4_13 1_555 1_555
C37_13 C35_13 1_555 1_555
H17_13 C37_13 1_555 1_555
C38_13 C16_13 1_555 1_555
O19_13 C33_13 1_555 1_555
Zn7_2 O19_13 1_555 1_555
Zn9_4 O18_8 1_555 1_555
O24_8 Zn14_4 1_555 1_555
O25_8 Zn11_4 1_555 1_555
O27_8 Zn14_4 1_555 1_555
O30_8 Zn11_4 1_555 1_555
C6_13 C9_13 1_555 1_555
C11_13 C12_13 1_555 1_555
N4_13 C38_13 1_555 1_555
C34_13 C36_13 1_555 1_555
C36_13 C37_13 1_555 1_555
Zn9_4 O5_14 1_555 1_555
Zn12_4 O4_14 1_555 1_555
O21_8 C5_14 1_555 1_555
C1_14 O4_14 1_555 1_555
N1_14 C11_14 1_555 1_555
O23_8 C5_14 1_555 1_555
O5_14 C1_14 1_555 1_555
C2_14 C1_14 1_555 1_555
C3_14 C2_14 1_555 1_555
H1_14 C3_14 1_555 1_555
C4_14 C5_14 1_555 1_555
C6_14 O22_8 1_555 1_555
C7_14 C4_14 1_555 1_555
H2_14 C7_14 1_555 1_555
C8_14 C2_14 1_555 1_555
H3_14 C8_14 1_555 1_555
C9_14 C3_14 1_555 1_555
C10_17 H4_17 1_555 1_555
C11_14 C8_14 1_555 1_555
C12_14 C9_14 1_555 1_555
H5_14 C12_14 1_555 1_555
N2_14 C10_17 1_555 1_555
C13_18 N1_14 1_555 1_555
H6_18 C13_18 1_555 1_555
O7_17 Zn9_4 1_555 1_555
C14_14 N2_14 1_555 1_555
H7_14 C14_14 1_555 1_555
C15_14 H8_14 1_555 1_555
C16_14 N1_14 1_555 1_555
H9_14 C16_14 1_555 1_555
C17_14 C7_14 1_555 1_555
C18_14 C4_14 1_555 1_555
H10_14 C18_14 1_555 1_555
C19_14 N2_14 1_555 1_555
O8_17 Zn12_4 1_555 1_555
O9_6 C20_14 1_555 1_555
O28_8 C6_14 1_555 1_555
O11_6 C20_14 1_555 1_555
C20_14 C17_14 1_555 1_555
O12_14 C22_14 1_555 1_555
C21_14 C22_14 1_555 1_555
C22_14 O13_14 1_555 1_555
C23_14 C21_14 1_555 1_555
H11_14 C23_14 1_555 1_555
N3_14 C10_17 1_555 1_555
C24_14 C14_14 1_555 1_555
H12_14 C24_14 1_555 1_555
C25_14 H13_14 1_555 1_555
C26_14 C23_14 1_555 1_555
C27_14 C21_14 1_555 1_555
H14_14 C27_14 1_555 1_555
C28_14 N3_14 1_555 1_555
C29_14 C26_14 1_555 1_555
O27_6 C29_14 1_555 1_555
O30_6 C29_14 1_555 1_555
C30_14 O24_8 1_555 1_555
O16_14 C33_14 1_555 1_555
N4_14 C13_18 1_555 1_555
O25_8 C30_14 1_555 1_555
C31_14 C30_14 1_555 1_555
C32_14 C31_14 1_555 1_555
H15_14 C32_14 1_555 1_555
C33_14 C35_14 1_555 1_555
C34_14 C31_14 1_555 1_555
H16_14 C34_14 1_555 1_555
C35_14 C32_14 1_555 1_555
C36_14 N4_14 1_555 1_555
C37_14 C35_14 1_555 1_555
H17_14 C37_14 1_555 1_555
C38_14 C16_14 1_555 1_555
H18_14 C38_14 1_555 1_555
O19_14 C33_14 1_555 1_555
Zn8_2 O16_14 1_555 1_555
Zn5_2 O12_14 1_555 1_555
Zn6_2 O19_14 1_555 1_555
Zn10_5 O11_6 1_555 1_555
Zn13_5 O9_6 1_555 1_555
O26_10 Zn12_4 1_555 1_555
O29_10 Zn9_4 1_555 1_555
C6_14 C9_14 1_555 1_555
C11_14 C12_14 1_555 1_555
C15_14 C17_14 1_555 1_555
C15_14 C19_14 1_555 1_555
C18_14 C19_14 1_555 1_555
N3_14 C24_14 1_555 1_555
C25_14 C26_14 1_555 1_555
C25_14 C28_14 1_555 1_555
C27_14 C28_14 1_555 1_555
N4_14 C38_14 1_555 1_555
C34_14 C36_14 1_555 1_555
C36_14 C37_14 1_555 1_555
Zn11_3 O5_15 1_555 1_555
Zn14_3 O4_15 1_555 1_555
O21_7 C5_15 1_555 1_555
C1_15 O4_15 1_555 1_555
N1_15 C11_15 1_555 1_555
O23_7 C5_15 1_555 1_555
O5_15 C1_15 1_555 1_555
C2_15 C1_15 1_555 1_555
C3_15 C2_15 1_555 1_555
H1_15 C3_15 1_555 1_555
C4_15 C5_15 1_555 1_555
C6_15 O22_7 1_555 1_555
C7_15 C4_15 1_555 1_555
H2_15 C7_15 1_555 1_555
C8_15 C2_15 1_555 1_555
H3_15 C8_15 1_555 1_555
C9_15 C3_15 1_555 1_555
C10_18 H4_18 1_555 1_555
C11_15 C8_15 1_555 1_555
C12_15 C9_15 1_555 1_555
H5_15 C12_15 1_555 1_555
N2_15 C10_18 1_555 1_555
C13_19 N1_15 1_555 1_555
H6_19 C13_19 1_555 1_555
O7_18 Zn11_3 1_555 1_555
C14_15 N2_15 1_555 1_555
H7_15 C14_15 1_555 1_555
C15_15 H8_15 1_555 1_555
C16_15 N1_15 1_555 1_555
H9_15 C16_15 1_555 1_555
C17_15 C7_15 1_555 1_555
C18_15 C4_15 1_555 1_555
H10_15 C18_15 1_555 1_555
C19_15 N2_15 1_555 1_555
O8_18 Zn14_3 1_555 1_555
O26_10 C20_15 1_555 1_555
O28_7 C6_15 1_555 1_555
O29_10 C20_15 1_555 1_555
C20_15 C17_15 1_555 1_555
C30_15 O24_6 1_555 1_555
O16_15 C33_15 1_555 1_555
N4_15 C13_19 1_555 1_555
O25_6 C30_15 1_555 1_555
C31_15 C30_15 1_555 1_555
C32_15 C31_15 1_555 1_555
H15_15 C32_15 1_555 1_555
C33_15 C35_15 1_555 1_555
C34_15 C31_15 1_555 1_555
H16_15 C34_15 1_555 1_555
C35_15 C32_15 1_555 1_555
C36_15 N4_15 1_555 1_555
C37_15 C35_15 1_555 1_555
H17_15 C37_15 1_555 1_555
C38_15 C16_15 1_555 1_555
H18_15 C38_15 1_555 1_555
Zn7_4 O16_15 1_555 1_555
C6_15 C9_15 1_555 1_555
C11_15 C12_15 1_555 1_555
C15_15 C17_15 1_555 1_555
C15_15 C19_15 1_555 1_555
C18_15 C19_15 1_555 1_555
N4_15 C38_15 1_555 1_555
C34_15 C36_15 1_555 1_555
C36_15 C37_15 1_555 1_555
Zn5_4 O19_15 1_555 1_555
C10_19 H4_19 1_555 1_555
O12_15 C22_15 1_555 1_555
C21_15 C22_15 1_555 1_555
C22_15 O13_15 1_555 1_555
C23_15 C21_15 1_555 1_555
H11_15 C23_15 1_555 1_555
N3_15 C10_19 1_555 1_555
H12_15 C24_15 1_555 1_555
C25_15 H13_15 1_555 1_555
C26_15 C23_15 1_555 1_555
C27_15 C21_15 1_555 1_555
H14_15 C27_15 1_555 1_555
C28_15 N3_15 1_555 1_555
C29_15 C26_15 1_555 1_555
O13_15 Zn8_4 1_555 1_555
O27_8 C29_15 1_555 1_555
O30_8 C29_15 1_555 1_555
Zn6_4 O12_15 1_555 1_555
N3_15 C24_15 1_555 1_555
C25_15 C26_15 1_555 1_555
C25_15 C28_15 1_555 1_555
C27_15 C28_15 1_555 1_555
Zn7 O19_16 1_555 1_555
Zn10_5 O5_16 1_555 1_555
Zn13_5 O4_16 1_555 1_555
O21 C5_16 1_555 1_555
C1_16 O4_16 1_555 1_555
N1_16 C11_16 1_555 1_555
O23 C5_16 1_555 1_555
O5_16 C1_16 1_555 1_555
C2_16 C1_16 1_555 1_555
C3_16 C2_16 1_555 1_555
H1_16 C3_16 1_555 1_555
C4_16 C5_16 1_555 1_555
C6_16 O22 1_555 1_555
C7_16 C4_16 1_555 1_555
H2_16 C7_16 1_555 1_555
C8_16 C2_16 1_555 1_555
H3_16 C8_16 1_555 1_555
C9_16 C3_16 1_555 1_555
C10_20 H4_20 1_555 1_555
C11_16 C8_16 1_555 1_555
C12_16 C9_16 1_555 1_555
H5_16 C12_16 1_555 1_555
N2_16 C10_20 1_555 1_555
C13_20 N1_16 1_555 1_555
H6_20 C13_20 1_555 1_555
O7_19 Zn10_5 1_555 1_555
C15_16 H8_16 1_555 1_555
C16_16 N1_16 1_555 1_555
H9_16 C16_16 1_555 1_555
C17_16 C7_16 1_555 1_555
C18_16 C4_16 1_555 1_555
H10_16 C18_16 1_555 1_555
C19_16 N2_16 1_555 1_555
O8_19 Zn13_5 1_555 1_555
O26_5 C20_16 1_555 1_555
O28 C6_16 1_555 1_555
C20_16 C17_16 1_555 1_555
O12_16 C22_16 1_555 1_555
C21_16 C22_16 1_555 1_555
C22_16 O13_16 1_555 1_555
C23_16 C21_16 1_555 1_555
H11_16 C23_16 1_555 1_555
N3_16 C10_20 1_555 1_555
C25_16 H13_16 1_555 1_555
C26_16 C23_16 1_555 1_555
C27_16 C21_16 1_555 1_555
H14_16 C27_16 1_555 1_555
C28_16 N3_16 1_555 1_555
C29_16 C26_16 1_555 1_555
O13_16 Zn6 1_555 1_555
O27_5 C29_16 1_555 1_555
C30_16 O24_5 1_555 1_555
O16_16 C33_16 1_555 1_555
N4_16 C13_20 1_555 1_555
O25_5 C30_16 1_555 1_555
C31_16 C30_16 1_555 1_555
C32_16 C31_16 1_555 1_555
H15_16 C32_16 1_555 1_555
C33_16 C35_16 1_555 1_555
C34_16 C31_16 1_555 1_555
H16_16 C34_16 1_555 1_555
C35_16 C32_16 1_555 1_555
C36_16 N4_16 1_555 1_555
C37_16 C35_16 1_555 1_555
H17_16 C37_16 1_555 1_555
C38_16 C16_16 1_555 1_555
H18_16 C38_16 1_555 1_555
Zn5 O16_16 1_555 1_555
Zn8 O12_16 1_555 1_555
C6_16 C9_16 1_555 1_555
C11_16 C12_16 1_555 1_555
C15_16 C17_16 1_555 1_555
C15_16 C19_16 1_555 1_555
C18_16 C19_16 1_555 1_555
C25_16 C26_16 1_555 1_555
C25_16 C28_16 1_555 1_555
C27_16 C28_16 1_555 1_555
N4_16 C38_16 1_555 1_555
C34_16 C36_16 1_555 1_555
C36_16 C37_16 1_555 1_555
O7_19 H19_4 1_555 1_555
H7_16 C14_16 1_555 1_555
C24_16 C14_16 1_555 1_555
H12_16 C24_16 1_555 1_555
O7_20 Zn10_6 1_555 1_555
O8_20 Zn13_6 1_555 1_555
O7_20 H20_4 1_555 1_555
O8_20 H21_4 1_555 1_555
O8_20 H22_4 1_555 1_555
O6_9 Zn8_3 1_555 1_555
O20_9 Zn6_3 1_555 1_555
O6_10 Zn7_4 1_555 1_555
O20_10 Zn5_4 1_555 1_555
O20_11 Zn7_3 1_555 1_555
O6_11 Zn5_3 1_555 1_555
O20_12 Zn7 1_555 1_555
O7_8 H19_5 1_555 1_555
O6_12 Zn5 1_555 1_555
O7_9 H20_5 1_555 1_555
O8_9 H21_5 1_555 1_555
O8_9 H22_5 1_555 1_555
O6_13 Zn6 1_555 1_555
O20_13 Zn8 1_555 1_555
O7_4 H19_6 1_555 1_555
O8_5 H21_6 1_555 1_555
O8_5 H22_6 1_555 1_555
O7_5 H20_6 1_555 1_555
O20_14 Zn5_2 1_555 1_555
O6_14 Zn7_2 1_555 1_555
O7_19 H20_7 1_555 1_555
O8_19 H21_7 1_555 1_555
O8_19 H22_7 1_555 1_555
O7_20 H19_7 1_555 1_555
O6_15 Zn8_2 1_555 1_555
O20_15 Zn6_2 1_555 1_555
O6_16 Zn6_4 1_555 1_555
O20_16 Zn8_4 1_555 1_555
O7_12 H20_8 1_555 1_555
O8_12 H21_8 1_555 1_555
O8_12 H22_8 1_555 1_555
O7_13 H19_8 1_555 1_555

#END
