
###############################################################################
#
# This file contains modified crystal structure data generated from the
# MOF subset of the Cambridge Structural Database (CSD) v543 
# hosted by the Cambridge Crystallographic Data Centre (CCDC).
#
# This work is licensed under the Creative Commons
# Attribution-NonCommercial-ShareAlike 4.0 International License.
# To view a copy of this license, visit
# http://creativecommons.org/licenses/by-nc-sa/4.0/
# or send a letter to
# Creative Commons, PO Box 1866, Mountain View, CA 94042, USA.
#
# CIF created using the CSD Python API on 29 September 2022
# The structure has been converted into the P1 space group
# The structure has a 3D framework
# The original CSD entry WOYWIS is in the monoclinic crystal system
# The framework has been calculated to contain at least 10.0% void space
# The void calculation uses a probe of radius 1.32A, grid spacing 0.4
# The framework is charged, counterions have been retained in the structure
# H atom positions have been added when not included in the experimental data
# Generated hydrogen atom positions removed from atoms on special positions
#
###############################################################################

data_WOYWIS
_chemical_formula_moiety         '(C308 H332 Cl24 Mn22 N52 O56 2-)n'
_symmetry_cell_setting           triclinic
_symmetry_space_group_name_H-M   'P 1'
_symmetry_Int_Tables_number      1
_space_group_name_Hall           'P 1'
loop_
_symmetry_equiv_pos_site_id
_symmetry_equiv_pos_as_xyz
1 x,y,z
_cell_length_a                   12.338(3)
_cell_length_b                   33.330(7)
_cell_length_c                   25.857(5)
_cell_angle_alpha                90
_cell_angle_beta                 97.45(3)
_cell_angle_gamma                90
_cell_volume                     10543.3
loop_
_atom_site_label
_atom_site_type_symbol
_atom_site_fract_x
_atom_site_fract_y
_atom_site_fract_z
Cl1 Cl 0.29767(18) 0.2500 0.40340(9)
O1 O 0.1122(4) 0.29236(12) 0.29819(18)
Mn1 Mn 0.10686(11) 0.2500 0.36408(6)
N1 N 0.0662(6) 0.3035(2) 0.4109(3)
C1 C 0.0098(7) 0.3269(2) 0.4284(3)
O3 O 0.1122(4) 0.20764(12) 0.29819(18)
N2 N 0.0662(6) 0.1965(2) 0.4109(3)
C3 C 0.0098(7) 0.1731(2) 0.4284(3)
O2 O 0.9263(6) 0.2500 0.3509(3)
C2 C 0.9418(6) 0.3562(2) 0.4510(3)
H1 H 0.9196 0.3454 0.4833
H2 H 0.8767 0.3619 0.4262
H3 H 0.9835 0.3810 0.4588
C4 C 0.9418(6) 0.1438(2) 0.4510(3)
H4 H 0.9196 0.1546 0.4833
H5 H 0.8767 0.1381 0.4262
H6 H 0.9835 0.1190 0.4588
O2_2 O 0.0737(6) 0.7500 0.6491(3)
C2_2 C 0.0582(6) 0.8562(2) 0.5490(3)
H1_2 H 0.0804 0.8454 0.5167
H2_2 H 0.1233 0.8619 0.5738
H3_2 H 0.0165 0.8810 0.5412
C4_2 C 0.0582(6) 0.6438(2) 0.5490(3)
H4_2 H 0.0804 0.6546 0.5167
H5_2 H 0.1233 0.6381 0.5738
H6_2 H 0.0165 0.6190 0.5412
Cl1_2 Cl 0.70233(18) 0.7500 0.59660(9)
O1_2 O 0.8878(4) 0.79236(12) 0.70181(18)
Mn1_2 Mn 0.89314(11) 0.7500 0.63592(6)
N1_2 N 0.9338(6) 0.8035(2) 0.5891(3)
C1_2 C 0.9902(7) 0.8269(2) 0.5716(3)
O3_2 O 0.8878(4) 0.70764(12) 0.70181(18)
N2_2 N 0.9338(6) 0.6965(2) 0.5891(3)
C3_2 C 0.9902(7) 0.6731(2) 0.5716(3)
Mn2 Mn 0.0992(3) 0.2500 0.9073(2)
Cl2 Cl 0.0564(7) 0.2011(3) 0.9689(3)
Cl3 Cl 0.0285(7) 0.1857(3) 0.9066(4)
Cl4 Cl 0.0564(7) 0.2989(3) 0.9689(3)
Cl5 Cl 0.0285(7) 0.3143(3) 0.9066(4)
Mn2_2 Mn 0.9008(3) 0.7500 0.0927(2)
Cl2_2 Cl 0.9436(7) 0.7011(3) 0.0311(3)
Cl3_2 Cl 0.9715(7) 0.6857(3) 0.0934(4)
Cl4_2 Cl 0.9436(7) 0.7989(3) 0.0311(3)
Cl5_2 Cl 0.9715(7) 0.8143(3) 0.0934(4)
Cl6 Cl 0.0814(11) 0.3066(3) 0.7552(4)
Cl6_2 Cl 0.9186(11) 0.8066(3) 0.2448(4)
Cl6_3 Cl 0.9186(11) 0.6934(3) 0.2448(4)
Cl6_4 Cl 0.0814(11) 0.1934(3) 0.7552(4)
Cl8 Cl 0.09466(14) 0.69093(6) 0.41265(8)
Cl9 Cl 0.1769(2) 0.7500 0.54051(11)
Mn7 Mn 0.06499(11) 0.7500 0.45945(6)
C76 C 0.0114(4) 0.40201(15) 0.3003(2)
O18 O 0.0754(3) 0.37295(11) 0.29478(16)
O19 O 0.0436(3) 0.43840(11) 0.29812(14)
Cl11 Cl 0.09466(14) 0.80907(6) 0.41265(8)
Mn19 Mn 0.00924(5) 0.49630(2) 0.25322(3)
Mn25 Mn 0.21946(6) 0.42849(2) 0.30270(3)
O24 O 0.0419(3) 0.38253(12) 0.79163(18)
O25 O 0.0116(3) 0.44762(11) 0.79495(13)
Mn15 Mn 0.18573(5) 0.43275(2) 0.80050(3)
O23 O 0.2854(3) 0.01514(10) 0.32082(14)
Mn24 Mn 0.00924(5) 0.00370(2) 0.25322(3)
Mn27 Mn 0.21946(6) 0.07151(2) 0.30270(3)
Cl7 Cl 0.86812(16) 0.7500 0.45824(8)
O4 O 0.6714(10) 0.7500 0.2836(4)
O5 O 0.8667(4) 0.70377(13) 0.3439(2)
C7 C 0.5807(6) 0.7500 0.4506(3)
H11 H 0.5331 0.7500 0.4786
H12 H 0.6577 0.7500 0.4672
Mn6 Mn 0.75630(10) 0.7500 0.36381(5)
C8 C 0.3067(4) 0.34920(13) 0.37219(18)
H13 H 0.3290 0.3242 0.3914
H14 H 0.2475 0.3424 0.3440
N9 N 0.6290(4) 0.70496(14) 0.3835(2)
N10 N 0.5599(4) 0.71427(12) 0.41891(18)
C41 C 0.4754(4) 0.68775(15) 0.4185(2)
C42 C 0.4940(5) 0.65927(15) 0.3811(2)
C43 C 0.5887(5) 0.67146(16) 0.3598(2)
C44 C 0.3888(5) 0.69075(19) 0.4524(3)
H41 H 0.4216 0.6964 0.4882
H42 H 0.3486 0.6654 0.4515
H43 H 0.3385 0.7125 0.4399
C45 C 0.6354(5) 0.65281(19) 0.3152(3)
H44 H 0.5864 0.6578 0.2829
H45 H 0.6431 0.6238 0.3210
H46 H 0.7072 0.6646 0.3124
C46 C 0.4266(5) 0.62318(16) 0.3666(2)
C47 C 0.3162(5) 0.62607(17) 0.3473(3)
H47 H 0.2826 0.6518 0.3446
C48 C 0.2538(5) 0.59255(16) 0.3319(3)
H48 H 0.1783 0.5953 0.3194
C49 C 0.3030(4) 0.55463(15) 0.3351(2)
C50 C 0.4143(5) 0.55119(15) 0.3554(2)
H49 H 0.4479 0.5255 0.3591
C51 C 0.4746(5) 0.58551(17) 0.3700(3)
H50 H 0.5502 0.5831 0.3826
C52 C 0.2381(4) 0.51846(14) 0.31735(19)
O14 O 0.1399(3) 0.52394(11) 0.30061(15)
O15 O 0.2854(3) 0.48486(10) 0.32082(14)
N11 N 0.2136(4) 0.41125(12) 0.38742(16)
N12 N 0.2653(3) 0.37730(11) 0.40749(15)
C53 C 0.2646(4) 0.37433(15) 0.45923(19)
C54 C 0.2108(5) 0.40802(15) 0.47456(19)
C55 C 0.1805(5) 0.43010(15) 0.42810(19)
C56 C 0.3193(5) 0.34045(16) 0.49080(19)
H51 H 0.2678 0.3181 0.4914
H52 H 0.3424 0.3496 0.5265
H53 H 0.3833 0.3315 0.4751
C57 C 0.1212(6) 0.46906(17) 0.4206(2)
H54 H 0.1737 0.4912 0.4261
H55 H 0.0684 0.4712 0.4458
H56 H 0.0824 0.4704 0.3851
C58 C 0.1894(5) 0.41833(15) 0.52753(19)
C59 C 0.1616(5) 0.38878(16) 0.56252(19)
H57 H 0.1524 0.3617 0.5514
C60 C 0.1476(5) 0.39914(16) 0.61299(19)
H58 H 0.1332 0.3787 0.6368
C61 C 0.1541(4) 0.43889(15) 0.62976(18)
C62 C 0.1780(5) 0.46857(16) 0.5946(2)
H59 H 0.1810 0.4959 0.6051
C63 C 0.1971(5) 0.45835(16) 0.5450(2)
H60 H 0.2159 0.4787 0.5221
C64 C 0.1400(4) 0.44969(14) 0.68456(18)
O16 O 0.1759(4) 0.42513(14) 0.71963(14)
O17 O 0.0932(4) 0.48203(11) 0.69215(16)
N13 N 0.3791(4) 0.39695(12) 0.31642(16)
N14 N 0.3985(4) 0.36494(12) 0.34951(15)
C65 C 0.5052(4) 0.35526(15) 0.3574(2)
C66 C 0.5606(4) 0.38186(15) 0.3290(2)
C67 C 0.4775(5) 0.40752(16) 0.3040(2)
C68 C 0.5478(5) 0.3214(2) 0.3925(3)
H61 H 0.5235 0.3249 0.4268
H62 H 0.6279 0.3212 0.3963
H63 H 0.5199 0.2959 0.3773
C69 C 0.4868(6) 0.44147(19) 0.2674(3)
H64 H 0.4226 0.4418 0.2408
H65 H 0.5530 0.4381 0.2506
H66 H 0.4910 0.4668 0.2868
C70 C 0.6774(5) 0.38516(17) 0.3252(2)
C71 C 0.7413(5) 0.35240(16) 0.3140(3)
H67 H 0.7095 0.3264 0.3113
C72 C 0.8505(5) 0.35697(17) 0.3068(2)
H68 H 0.8922 0.3344 0.2987
C73 C 0.8981(5) 0.39514(16) 0.3115(2)
C74 C 0.8366(5) 0.42751(16) 0.3249(3)
H69 H 0.8690 0.4534 0.3293
C75 C 0.7291(5) 0.42222(17) 0.3320(3)
H70 H 0.6887 0.4446 0.3418
N17 N 0.6290(4) 0.79504(14) 0.3835(2)
N18 N 0.5599(4) 0.78573(12) 0.41891(18)
C93 C 0.4754(4) 0.81225(15) 0.4185(2)
C94 C 0.4940(5) 0.84073(15) 0.3811(2)
C95 C 0.5887(5) 0.82854(16) 0.3598(2)
C96 C 0.3888(5) 0.80925(19) 0.4524(3)
H85 H 0.4216 0.8036 0.4882
H86 H 0.3486 0.8346 0.4515
H87 H 0.3385 0.7875 0.4399
C97 C 0.6354(5) 0.84719(19) 0.3152(3)
H88 H 0.5864 0.8422 0.2829
H89 H 0.6431 0.8762 0.3210
H90 H 0.7072 0.8354 0.3124
C98 C 0.4266(5) 0.87682(16) 0.3666(2)
C99 C 0.3162(5) 0.87393(17) 0.3473(3)
H91 H 0.2826 0.8482 0.3446
C100 C 0.2538(5) 0.90745(16) 0.3319(3)
H92 H 0.1783 0.9047 0.3194
C101 C 0.3030(4) 0.94537(15) 0.3351(2)
C102 C 0.4143(5) 0.94881(15) 0.3554(2)
H93 H 0.4479 0.9745 0.3591
C103 C 0.4746(5) 0.91449(17) 0.3700(3)
H94 H 0.5502 0.9169 0.3826
C104 C 0.2381(4) 0.98154(14) 0.31735(19)
O22 O 0.1399(3) 0.97606(11) 0.30061(15)
H110 H 0.3270 0.3514 0.0223
C124 C 0.1900(5) 0.4200(2) 0.0273(2)
C125 C 0.1739(5) 0.43718(16) 0.13214(19)
C126 C 0.1652(4) 0.44580(15) 0.18814(18)
O26 O 0.2159(5) 0.42357(16) 0.22215(15)
O27 O 0.1087(4) 0.47457(14) 0.19842(17)
C151 C 0.1723(9) 0.3900(3) 0.0622(3)
H135 H 0.1653 0.3631 0.0500
C152 C 0.1644(10) 0.3977(3) 0.1147(3)
H136 H 0.1529 0.3765 0.1379
C153 C 0.1892(8) 0.4680(3) 0.0991(3)
H137 H 0.1933 0.4949 0.1115
C154 C 0.1988(9) 0.4598(3) 0.0471(4)
H138 H 0.2115 0.4813 0.0245
O32 O 0.8667(4) 0.79623(13) 0.3439(2)
C105 C 0.2777(4) 0.35186(15) 0.86548(19)
H95 H 0.3013 0.3265 0.8833
H96 H 0.2146 0.3459 0.8389
N19 N 0.3425(3) 0.40079(13) 0.80856(16)
N20 N 0.3670(3) 0.36810(13) 0.84012(16)
C107 C 0.4745(4) 0.35899(16) 0.8453(2)
C108 C 0.5238(4) 0.38715(16) 0.8169(2)
C109 C 0.4385(4) 0.41295(16) 0.7944(2)
C110 C 0.5214(5) 0.3242(2) 0.8762(3)
H99 H 0.4731 0.3009 0.8692
H100 H 0.5936 0.3178 0.8663
H101 H 0.5287 0.3308 0.9134
C111 C 0.4442(5) 0.4477(2) 0.7597(3)
H102 H 0.4488 0.4724 0.7804
H103 H 0.5090 0.4454 0.7417
H104 H 0.3785 0.4485 0.7340
C112 C 0.6397(4) 0.39179(17) 0.8116(2)
C113 C 0.7049(4) 0.35997(18) 0.7992(3)
H105 H 0.6740 0.3339 0.7946
C114 C 0.8152(4) 0.36559(18) 0.7934(3)
H106 H 0.8586 0.3436 0.7851
C115 C 0.8606(4) 0.40407(16) 0.8002(2)
C116 C 0.7962(4) 0.43575(17) 0.8118(2)
H107 H 0.8267 0.4619 0.8154
C117 C 0.6884(4) 0.42998(18) 0.8183(2)
H108 H 0.6461 0.4521 0.8274
C118 C 0.9765(4) 0.41138(15) 0.7944(2)
N21 N 0.1888(4) 0.41332(13) 0.88498(16)
N22 N 0.2452(3) 0.37980(13) 0.90272(16)
C119 C 0.2546(5) 0.37724(19) 0.9555(2)
C120 C 0.2028(5) 0.41036(18) 0.97289(19)
C121 C 0.1629(5) 0.43212(17) 0.9273(2)
C122 C 0.3126(7) 0.3440(2) 0.9854(2)
H109 H 0.3820 0.3388 0.9720
H111 H 0.2673 0.3198 0.9816
C123 C 0.1028(6) 0.4710(2) 0.9221(2)
H112 H 0.0370 0.4691 0.9395
H113 H 0.1500 0.4924 0.9383
H114 H 0.0819 0.4771 0.8851
Mn22 Mn 0.99076(5) 0.50370(2) 0.74678(3)
O38 O 0.2572(4) 0.48861(12) 0.82149(17)
O39 O 0.1254(3) 0.53143(13) 0.79229(18)
Mn3 Mn 0.81427(5) 0.56725(2) 0.19950(3)
C5 C 0.7223(4) 0.64814(15) 0.13452(19)
H7 H 0.6987 0.6735 0.1167
H8 H 0.7854 0.6541 0.1611
C6 C 0.4103(7) 0.2500 0.0539(3)
H9 H 0.3328 0.2500 0.0382
H10 H 0.4565 0.2500 0.0253
O6 O 0.1600(8) 0.2500 0.0638(5)
O7 O 0.1137(10) 0.2993(3) 0.1588(4)
Cl10 Cl 0.2996(2) 0.2500 0.24110(13)
Mn8 Mn 0.24668(11) 0.2500 0.14620(8)
N3 N 0.6575(3) 0.59921(13) 0.19144(16)
N4 N 0.6330(3) 0.63190(13) 0.15988(16)
C9 C 0.5255(4) 0.64101(16) 0.1547(2)
C10 C 0.4762(4) 0.61285(16) 0.1831(2)
C11 C 0.5615(4) 0.58705(16) 0.2056(2)
C12 C 0.4786(5) 0.6758(2) 0.1238(3)
H15 H 0.5269 0.6991 0.1308
H16 H 0.4064 0.6822 0.1337
H17 H 0.4713 0.6692 0.0866
C13 C 0.5558(5) 0.5523(2) 0.2403(3)
H18 H 0.5512 0.5276 0.2196
H19 H 0.4910 0.5546 0.2583
H20 H 0.6215 0.5515 0.2660
C14 C 0.3603(4) 0.60821(17) 0.1884(2)
C15 C 0.2951(4) 0.64003(18) 0.2008(3)
H21 H 0.3260 0.6661 0.2054
C16 C 0.1848(4) 0.63441(18) 0.2066(3)
H22 H 0.1414 0.6564 0.2149
C17 C 0.1394(4) 0.59593(16) 0.1998(2)
C18 C 0.2038(4) 0.56425(17) 0.1882(2)
H23 H 0.1733 0.5381 0.1846
C19 C 0.3116(4) 0.57002(18) 0.1817(2)
H24 H 0.3539 0.5479 0.1726
C20 C 0.0235(4) 0.58862(15) 0.2056(2)
N5 N 0.8112(4) 0.58668(13) 0.11502(16)
N6 N 0.7548(3) 0.62020(13) 0.09728(16)
C21 C 0.7454(5) 0.62276(19) 0.0445(2)
C22 C 0.7972(5) 0.58964(18) 0.02711(19)
C23 C 0.8371(5) 0.56788(17) 0.0727(2)
C24 C 0.6874(7) 0.6560(2) 0.0146(2)
H25 H 0.6180 0.6612 0.0280
H27 H 0.7327 0.6802 0.0184
C25 C 0.8972(6) 0.5290(2) 0.0779(2)
H28 H 0.9630 0.5309 0.0605
H29 H 0.8500 0.5076 0.0617
H30 H 0.9181 0.5229 0.1149
N7 N 0.3711(4) 0.29448(14) 0.1239(2)
N8 N 0.4330(4) 0.28598(13) 0.08593(18)
C29 C 0.5157(4) 0.31296(15) 0.0840(2)
C30 C 0.5054(5) 0.34078(16) 0.1227(2)
C31 C 0.4155(5) 0.32763(17) 0.1472(3)
C32 C 0.5962(5) 0.31105(19) 0.0459(2)
H31 H 0.6373 0.2859 0.0506
H32 H 0.6468 0.3338 0.0516
H33 H 0.5575 0.3123 0.0103
C33 C 0.3729(6) 0.3454(2) 0.1934(3)
H34 H 0.2930 0.3430 0.1892
H35 H 0.3936 0.3737 0.1965
H36 H 0.4040 0.3310 0.2250
C34 C 0.5764(5) 0.37571(17) 0.1373(2)
C35 C 0.5396(9) 0.4143(3) 0.1268(4)
H37 H 0.4676 0.4184 0.1097
C36 C 0.6060(8) 0.4477(2) 0.1407(4)
H38 H 0.5807 0.4740 0.1315
C37 C 0.7112(5) 0.44180(16) 0.1687(2)
C38 C 0.7358(6) 0.4041(2) 0.1847(4)
H39 H 0.8017 0.3996 0.2074
C39 C 0.6705(6) 0.3722(2) 0.1700(4)
H40 H 0.6920 0.3464 0.1831
C40 C 0.7827(4) 0.47686(15) 0.18633(18)
O12 O 0.7428(4) 0.51139(12) 0.17851(17)
O13 O 0.8746(3) 0.46857(13) 0.20771(18)
N15 N 0.3711(4) 0.20552(14) 0.1239(2)
N16 N 0.4330(4) 0.21402(13) 0.08593(18)
C81 C 0.5157(4) 0.18704(15) 0.0840(2)
C82 C 0.5054(5) 0.15922(16) 0.1227(2)
C83 C 0.4155(5) 0.17237(17) 0.1472(3)
C84 C 0.5962(5) 0.18895(19) 0.0459(2)
H75 H 0.6373 0.2141 0.0506
H76 H 0.6468 0.1662 0.0516
H77 H 0.5575 0.1877 0.0103
C85 C 0.3729(6) 0.1546(2) 0.1934(3)
H78 H 0.2930 0.1570 0.1892
H79 H 0.3936 0.1263 0.1965
H80 H 0.4040 0.1690 0.2250
C86 C 0.5764(5) 0.12429(17) 0.1373(2)
C87 C 0.5396(9) 0.0857(3) 0.1268(4)
H81 H 0.4676 0.0816 0.1097
C88 C 0.6060(8) 0.0523(2) 0.1407(4)
H82 H 0.5807 0.0260 0.1315
C89 C 0.7112(5) 0.05820(16) 0.1687(2)
C90 C 0.7358(6) 0.0959(2) 0.1847(4)
H83 H 0.8017 0.1004 0.2074
C91 C 0.6705(6) 0.1278(2) 0.1700(4)
H84 H 0.6920 0.1536 0.1831
C92 C 0.7827(4) 0.02314(15) 0.18633(18)
O21 O 0.8746(3) 0.03143(13) 0.20771(18)
O33 O 0.1137(10) 0.2007(3) 0.1588(4)
O34 O 0.9581(3) 0.61747(12) 0.20837(18)
O36 O 0.9884(3) 0.55238(11) 0.20505(13)
O43 O 0.8241(4) 0.57487(14) 0.28037(14)
O45 O 0.9068(4) 0.51797(11) 0.30785(16)
H26 H 0.6730 0.6486 0.9777
C26 C 0.8100(5) 0.5800(2) 0.9727(2)
C27 C 0.8261(5) 0.56282(16) 0.86786(19)
C28 C 0.8348(4) 0.55420(15) 0.81186(18)
O10 O 0.7841(5) 0.57643(16) 0.77785(15)
O11 O 0.8913(4) 0.52543(14) 0.80158(17)
C77 C 0.8277(9) 0.6100(3) 0.9378(3)
H71 H 0.8347 0.6369 0.9500
C78 C 0.8356(10) 0.6023(3) 0.8853(3)
H72 H 0.8471 0.6235 0.8621
C79 C 0.8108(8) 0.5320(3) 0.9009(3)
H73 H 0.8067 0.5051 0.8885
C80 C 0.8012(9) 0.5402(3) 0.9529(4)
H74 H 0.7885 0.5187 0.9755
Mn11 Mn 0.78054(6) 0.57151(2) 0.69730(3)
C106 C 0.6933(4) 0.65080(13) 0.62781(18)
H97 H 0.6710 0.6758 0.6086
H98 H 0.7525 0.6576 0.6560
N23 N 0.7864(4) 0.58875(12) 0.61258(16)
N24 N 0.7347(3) 0.62270(11) 0.59251(15)
C127 C 0.7354(4) 0.62567(15) 0.54077(19)
C128 C 0.7892(5) 0.59198(15) 0.52544(19)
C129 C 0.8195(5) 0.56990(15) 0.57190(19)
C130 C 0.6807(5) 0.65955(16) 0.50920(19)
H115 H 0.7322 0.6819 0.5086
H116 H 0.6576 0.6504 0.4735
H117 H 0.6167 0.6685 0.5249
C131 C 0.8788(6) 0.53094(17) 0.5794(2)
H118 H 0.8263 0.5088 0.5739
H119 H 0.9316 0.5288 0.5542
H120 H 0.9176 0.5296 0.6149
C132 C 0.8106(5) 0.58167(15) 0.47247(19)
C133 C 0.8384(5) 0.61122(16) 0.43748(19)
H121 H 0.8476 0.6383 0.4486
C134 C 0.8524(5) 0.60086(16) 0.38701(19)
H122 H 0.8668 0.6213 0.3632
C135 C 0.8459(4) 0.56111(15) 0.37024(18)
C136 C 0.8220(5) 0.53143(16) 0.4054(2)
H123 H 0.8190 0.5041 0.3949
C137 C 0.8029(5) 0.54165(16) 0.4550(2)
H124 H 0.7841 0.5213 0.4779
C138 C 0.8600(4) 0.55031(14) 0.31544(18)
N25 N 0.6209(4) 0.60305(12) 0.68358(16)
N26 N 0.6015(4) 0.63506(12) 0.65049(15)
C139 C 0.4948(4) 0.64474(15) 0.6426(2)
C140 C 0.4394(4) 0.61814(15) 0.6710(2)
C141 C 0.5225(5) 0.59248(16) 0.6960(2)
C142 C 0.4522(5) 0.6786(2) 0.6075(3)
H125 H 0.4765 0.6751 0.5732
H126 H 0.3721 0.6788 0.6037
H127 H 0.4801 0.7041 0.6227
C143 C 0.5132(6) 0.55853(19) 0.7326(3)
H128 H 0.5774 0.5582 0.7592
H129 H 0.4470 0.5619 0.7494
H130 H 0.5090 0.5332 0.7132
C144 C 0.3226(5) 0.61484(17) 0.6748(2)
C145 C 0.2587(5) 0.64760(16) 0.6860(3)
H131 H 0.2905 0.6736 0.6887
C146 C 0.1495(5) 0.64303(17) 0.6932(2)
H132 H 0.1078 0.6656 0.7013
C147 C 0.1019(5) 0.60486(16) 0.6885(2)
C148 C 0.1634(5) 0.57249(16) 0.6751(3)
H133 H 0.1310 0.5466 0.6707
C149 C 0.2709(5) 0.57778(17) 0.6680(3)
H134 H 0.3113 0.5554 0.6582
O40 O 0.8601(3) 0.47606(11) 0.69939(15)
O41 O 0.7146(3) 0.51514(10) 0.67918(14)
O47 O 0.9564(3) 0.56160(11) 0.70188(14)
O20 O 0.7428(4) 0.98861(12) 0.17851(17)
Mn16 Mn 0.81427(5) 0.93275(2) 0.19950(3)
C150 C 0.9886(4) 0.59799(15) 0.6997(2)
O30 O 0.9246(3) 0.62705(11) 0.70522(16)
C150_2 C 0.0114(4) 0.09799(15) 0.3003(2)
O30_2 O 0.0754(3) 0.12705(11) 0.29478(16)
O31 O 0.0436(3) 0.06160(11) 0.29812(14)
O8 O 0.0419(3) 0.11747(12) 0.79163(18)
O9 O 0.0116(3) 0.05238(11) 0.79495(13)
Mn12 Mn 0.18573(5) 0.06725(2) 0.80050(3)
H26_2 H 0.3270 0.1486 0.0223
C26_2 C 0.1900(5) 0.0800(2) 0.0273(2)
C27_2 C 0.1739(5) 0.06282(16) 0.13214(19)
C28_2 C 0.1652(4) 0.05420(15) 0.18814(18)
O10_2 O 0.2159(5) 0.07643(16) 0.22215(15)
O11_2 O 0.1087(4) 0.02543(14) 0.19842(17)
C77_2 C 0.1723(9) 0.1100(3) 0.0622(3)
H71_2 H 0.1653 0.1369 0.0500
C78_2 C 0.1644(10) 0.1023(3) 0.1147(3)
H72_2 H 0.1529 0.1235 0.1379
C79_2 C 0.1892(8) 0.0320(3) 0.0991(3)
H73_2 H 0.1933 0.0051 0.1115
C80_2 C 0.1988(9) 0.0402(3) 0.0471(4)
H74_2 H 0.2115 0.0187 0.0245
C106_2 C 0.3067(4) 0.15080(13) 0.37219(18)
H97_2 H 0.3290 0.1758 0.3914
H98_2 H 0.2475 0.1576 0.3440
N23_2 N 0.2136(4) 0.08875(12) 0.38742(16)
N24_2 N 0.2653(3) 0.12270(11) 0.40749(15)
C127_2 C 0.2646(4) 0.12567(15) 0.45923(19)
C128_2 C 0.2108(5) 0.09198(15) 0.47456(19)
C129_2 C 0.1805(5) 0.06990(15) 0.42810(19)
C130_2 C 0.3193(5) 0.15955(16) 0.49080(19)
H115_2 H 0.2678 0.1819 0.4914
H116_2 H 0.3424 0.1504 0.5265
H117_2 H 0.3833 0.1685 0.4751
C131_2 C 0.1212(6) 0.03094(17) 0.4206(2)
H118_2 H 0.1737 0.0088 0.4261
H119_2 H 0.0684 0.0288 0.4458
H120_2 H 0.0824 0.0296 0.3851
C132_2 C 0.1894(5) 0.08167(15) 0.52753(19)
C133_2 C 0.1616(5) 0.11122(16) 0.56252(19)
H121_2 H 0.1524 0.1383 0.5514
C134_2 C 0.1476(5) 0.10086(16) 0.61299(19)
H122_2 H 0.1332 0.1213 0.6368
C135_2 C 0.1541(4) 0.06111(15) 0.62976(18)
C136_2 C 0.1780(5) 0.03143(16) 0.5946(2)
H123_2 H 0.1810 0.0041 0.6051
C137_2 C 0.1971(5) 0.04165(16) 0.5450(2)
H124_2 H 0.2159 0.0213 0.5221
C138_2 C 0.1400(4) 0.05031(14) 0.68456(18)
O28 O 0.1759(4) 0.07487(14) 0.71963(14)
O29 O 0.0932(4) 0.01797(11) 0.69215(16)
N25_2 N 0.3791(4) 0.10305(12) 0.31642(16)
N26_2 N 0.3985(4) 0.13506(12) 0.34951(15)
C139_2 C 0.5052(4) 0.14474(15) 0.3574(2)
C140_2 C 0.5606(4) 0.11814(15) 0.3290(2)
C141_2 C 0.4775(5) 0.09248(16) 0.3040(2)
C142_2 C 0.5478(5) 0.1786(2) 0.3925(3)
H125_2 H 0.5235 0.1751 0.4268
H126_2 H 0.6279 0.1788 0.3963
H127_2 H 0.5199 0.2041 0.3773
C143_2 C 0.4868(6) 0.05853(19) 0.2674(3)
H128_2 H 0.4226 0.0582 0.2408
H129_2 H 0.5530 0.0619 0.2506
H130_2 H 0.4910 0.0332 0.2868
C144_2 C 0.6774(5) 0.11484(17) 0.3252(2)
C145_2 C 0.7413(5) 0.14760(16) 0.3140(3)
H131_2 H 0.7095 0.1736 0.3113
C146_2 C 0.8505(5) 0.14303(17) 0.3068(2)
H132_2 H 0.8922 0.1656 0.2987
C147_2 C 0.8981(5) 0.10486(16) 0.3115(2)
C148_2 C 0.8366(5) 0.07249(16) 0.3249(3)
H133_2 H 0.8690 0.0466 0.3293
C149_2 C 0.7291(5) 0.07778(17) 0.3320(3)
H134_2 H 0.6887 0.0554 0.3418
C5_2 C 0.2777(4) 0.14814(15) 0.86548(19)
H7_2 H 0.3013 0.1735 0.8833
H8_2 H 0.2146 0.1541 0.8389
N3_2 N 0.3425(3) 0.09921(13) 0.80856(16)
N4_2 N 0.3670(3) 0.13190(13) 0.84012(16)
C9_2 C 0.4745(4) 0.14101(16) 0.8453(2)
C10_2 C 0.5238(4) 0.11285(16) 0.8169(2)
C11_2 C 0.4385(4) 0.08705(16) 0.7944(2)
C12_2 C 0.5214(5) 0.1758(2) 0.8762(3)
H15_2 H 0.4731 0.1991 0.8692
H16_2 H 0.5936 0.1822 0.8663
H17_2 H 0.5287 0.1692 0.9134
C13_2 C 0.4442(5) 0.0523(2) 0.7597(3)
H18_2 H 0.4488 0.0276 0.7804
H19_2 H 0.5090 0.0546 0.7417
H20_2 H 0.3785 0.0515 0.7340
C14_2 C 0.6397(4) 0.10821(17) 0.8116(2)
C15_2 C 0.7049(4) 0.14003(18) 0.7992(3)
H21_2 H 0.6740 0.1661 0.7946
C16_2 C 0.8152(4) 0.13441(18) 0.7934(3)
H22_2 H 0.8586 0.1564 0.7851
C17_2 C 0.8606(4) 0.09593(16) 0.8002(2)
C18_2 C 0.7962(4) 0.06425(17) 0.8118(2)
H23_2 H 0.8267 0.0381 0.8154
C19_2 C 0.6884(4) 0.07002(18) 0.8183(2)
H24_2 H 0.6461 0.0479 0.8274
C20_2 C 0.9765(4) 0.08862(15) 0.7944(2)
N5_2 N 0.1888(4) 0.08668(13) 0.88498(16)
N6_2 N 0.2452(3) 0.12020(13) 0.90272(16)
C21_2 C 0.2546(5) 0.12276(19) 0.9555(2)
C22_2 C 0.2028(5) 0.08964(18) 0.97289(19)
C23_2 C 0.1629(5) 0.06788(17) 0.9273(2)
C24_2 C 0.3126(7) 0.1560(2) 0.9854(2)
H25_2 H 0.3820 0.1612 0.9720
H27_2 H 0.2673 0.1802 0.9816
C25_2 C 0.1028(6) 0.0290(2) 0.9221(2)
H28_2 H 0.0370 0.0309 0.9395
H29_2 H 0.1500 0.0076 0.9383
H30_2 H 0.0819 0.0229 0.8851
O12_2 O 0.2572(4) 0.01139(12) 0.82149(17)
C6_2 C 0.5897(7) 0.7500 0.9461(3)
H9_2 H 0.6672 0.7500 0.9618
H10_2 H 0.5435 0.7500 0.9747
O6_2 O 0.8400(8) 0.7500 0.9362(5)
O7_2 O 0.8863(10) 0.7993(3) 0.8412(4)
Cl10_2 Cl 0.7004(2) 0.7500 0.75890(13)
Mn8_2 Mn 0.75332(11) 0.7500 0.85380(8)
N7_2 N 0.6289(4) 0.79448(14) 0.8761(2)
N8_2 N 0.5670(4) 0.78598(13) 0.91407(18)
C29_2 C 0.4843(4) 0.81296(15) 0.9160(2)
C30_2 C 0.4946(5) 0.84078(16) 0.8773(2)
C31_2 C 0.5845(5) 0.82763(17) 0.8528(3)
C32_2 C 0.4038(5) 0.81105(19) 0.9541(2)
H31_2 H 0.3627 0.7859 0.9494
H32_2 H 0.3532 0.8338 0.9484
H33_2 H 0.4425 0.8123 0.9897
C33_2 C 0.6271(6) 0.8454(2) 0.8066(3)
H34_2 H 0.7070 0.8430 0.8108
H35_2 H 0.6064 0.8737 0.8035
H36_2 H 0.5960 0.8310 0.7750
C34_2 C 0.4236(5) 0.87571(17) 0.8627(2)
C35_2 C 0.4604(9) 0.9143(3) 0.8732(4)
H37_2 H 0.5324 0.9184 0.8903
C36_2 C 0.3940(8) 0.9477(2) 0.8593(4)
H38_2 H 0.4193 0.9740 0.8685
C37_2 C 0.2888(5) 0.94180(16) 0.8313(2)
C38_2 C 0.2642(6) 0.9041(2) 0.8153(4)
H39_2 H 0.1983 0.8996 0.7926
C39_2 C 0.3295(6) 0.8722(2) 0.8300(4)
H40_2 H 0.3080 0.8464 0.8169
C40_2 C 0.2173(4) 0.97686(15) 0.81367(18)
O13_2 O 0.1254(3) 0.96857(13) 0.79229(18)
N15_2 N 0.6289(4) 0.70552(14) 0.8761(2)
N16_2 N 0.5670(4) 0.71402(13) 0.91407(18)
C81_2 C 0.4843(4) 0.68704(15) 0.9160(2)
C82_2 C 0.4946(5) 0.65922(16) 0.8773(2)
C83_2 C 0.5845(5) 0.67237(17) 0.8528(3)
C84_2 C 0.4038(5) 0.68895(19) 0.9541(2)
H75_2 H 0.3627 0.7141 0.9494
H76_2 H 0.3532 0.6662 0.9484
H77_2 H 0.4425 0.6877 0.9897
C85_2 C 0.6271(6) 0.6546(2) 0.8066(3)
H78_2 H 0.7070 0.6570 0.8108
H79_2 H 0.6064 0.6263 0.8035
H80_2 H 0.5960 0.6690 0.7750
C86_2 C 0.4236(5) 0.62429(17) 0.8627(2)
C87_2 C 0.4604(9) 0.5857(3) 0.8732(4)
H81_2 H 0.5324 0.5816 0.8903
C88_2 C 0.3940(8) 0.5523(2) 0.8593(4)
H82_2 H 0.4193 0.5260 0.8685
C89_2 C 0.2888(5) 0.55820(16) 0.8313(2)
C90_2 C 0.2642(6) 0.5959(2) 0.8153(4)
H83_2 H 0.1983 0.6004 0.7926
C91_2 C 0.3295(6) 0.6278(2) 0.8300(4)
H84_2 H 0.3080 0.6536 0.8169
C92_2 C 0.2173(4) 0.52314(15) 0.81367(18)
O33_2 O 0.8863(10) 0.7007(3) 0.8412(4)
Mn17 Mn 0.99076(5) 0.99630(2) 0.74678(3)
Cl7_2 Cl 0.13188(16) 0.2500 0.54176(8)
O4_2 O 0.3286(10) 0.2500 0.7164(4)
O5_2 O 0.1333(4) 0.20377(13) 0.6561(2)
C7_2 C 0.4193(6) 0.2500 0.5494(3)
H11_2 H 0.4669 0.2500 0.5214
H12_2 H 0.3423 0.2500 0.5328
Mn6_2 Mn 0.24370(10) 0.2500 0.63619(5)
N9_2 N 0.3710(4) 0.20496(14) 0.6165(2)
N10_2 N 0.4401(4) 0.21427(12) 0.58109(18)
C41_2 C 0.5246(4) 0.18775(15) 0.5815(2)
C42_2 C 0.5060(5) 0.15927(15) 0.6189(2)
C43_2 C 0.4113(5) 0.17146(16) 0.6402(2)
C44_2 C 0.6112(5) 0.19075(19) 0.5476(3)
H41_2 H 0.5784 0.1964 0.5118
H42_2 H 0.6514 0.1654 0.5485
H43_2 H 0.6615 0.2125 0.5601
C45_2 C 0.3646(5) 0.15281(19) 0.6848(3)
H44_2 H 0.4136 0.1578 0.7171
H45_2 H 0.3569 0.1238 0.6790
H46_2 H 0.2928 0.1646 0.6876
C46_2 C 0.5734(5) 0.12318(16) 0.6334(2)
C47_2 C 0.6838(5) 0.12607(17) 0.6527(3)
H47_2 H 0.7174 0.1518 0.6554
C48_2 C 0.7462(5) 0.09255(16) 0.6681(3)
H48_2 H 0.8217 0.0953 0.6806
C49_2 C 0.6970(4) 0.05463(15) 0.6649(2)
C50_2 C 0.5857(5) 0.05119(15) 0.6446(2)
H49_2 H 0.5521 0.0255 0.6409
C51_2 C 0.5254(5) 0.08551(17) 0.6300(3)
H50_2 H 0.4498 0.0831 0.6174
C52_2 C 0.7619(4) 0.01846(14) 0.68265(19)
O14_2 O 0.8601(3) 0.02394(11) 0.69939(15)
N17_2 N 0.3710(4) 0.29504(14) 0.6165(2)
N18_2 N 0.4401(4) 0.28573(12) 0.58109(18)
C93_2 C 0.5246(4) 0.31225(15) 0.5815(2)
C94_2 C 0.5060(5) 0.34073(15) 0.6189(2)
C95_2 C 0.4113(5) 0.32854(16) 0.6402(2)
C96_2 C 0.6112(5) 0.30925(19) 0.5476(3)
H85_2 H 0.5784 0.3036 0.5118
H86_2 H 0.6514 0.3346 0.5485
H87_2 H 0.6615 0.2875 0.5601
C97_2 C 0.3646(5) 0.34719(19) 0.6848(3)
H88_2 H 0.4136 0.3422 0.7171
H89_2 H 0.3569 0.3762 0.6790
H90_2 H 0.2928 0.3354 0.6876
C98_2 C 0.5734(5) 0.37682(16) 0.6334(2)
C99_2 C 0.6838(5) 0.37393(17) 0.6527(3)
H91_2 H 0.7174 0.3482 0.6554
C100_2 C 0.7462(5) 0.40745(16) 0.6681(3)
H92_2 H 0.8217 0.4047 0.6806
C101_2 C 0.6970(4) 0.44537(15) 0.6649(2)
C102_2 C 0.5857(5) 0.44881(15) 0.6446(2)
H93_2 H 0.5521 0.4745 0.6409
C103_2 C 0.5254(5) 0.41449(17) 0.6300(3)
H94_2 H 0.4498 0.4169 0.6174
C104_2 C 0.7619(4) 0.48154(14) 0.68265(19)
O32_2 O 0.1333(4) 0.29623(13) 0.6561(2)
C105_2 C 0.7223(4) 0.85186(15) 0.13452(19)
H95_2 H 0.6987 0.8265 0.1167
H96_2 H 0.7854 0.8459 0.1611
N19_2 N 0.6575(3) 0.90079(13) 0.19144(16)
N20_2 N 0.6330(3) 0.86810(13) 0.15988(16)
C107_2 C 0.5255(4) 0.85899(16) 0.1547(2)
C108_2 C 0.4762(4) 0.88715(16) 0.1831(2)
C109_2 C 0.5615(4) 0.91295(16) 0.2056(2)
C110_2 C 0.4786(5) 0.8242(2) 0.1238(3)
H99_2 H 0.5269 0.8009 0.1308
H100_2 H 0.4064 0.8178 0.1337
H101_2 H 0.4713 0.8308 0.0866
C111_2 C 0.5558(5) 0.9477(2) 0.2403(3)
H102_2 H 0.5512 0.9724 0.2196
H103_2 H 0.4910 0.9454 0.2583
H104_2 H 0.6215 0.9485 0.2660
C112_2 C 0.3603(4) 0.89179(17) 0.1884(2)
C113_2 C 0.2951(4) 0.85997(18) 0.2008(3)
H105_2 H 0.3260 0.8339 0.2054
C114_2 C 0.1848(4) 0.86559(18) 0.2066(3)
H106_2 H 0.1414 0.8436 0.2149
C115_2 C 0.1394(4) 0.90407(16) 0.1998(2)
C116_2 C 0.2038(4) 0.93575(17) 0.1882(2)
H107_2 H 0.1733 0.9619 0.1846
C117_2 C 0.3116(4) 0.92998(18) 0.1817(2)
H108_2 H 0.3539 0.9521 0.1726
C118_2 C 0.0235(4) 0.91138(15) 0.2056(2)
N21_2 N 0.8112(4) 0.91332(13) 0.11502(16)
N22_2 N 0.7548(3) 0.87980(13) 0.09728(16)
C119_2 C 0.7454(5) 0.87724(19) 0.0445(2)
C120_2 C 0.7972(5) 0.91036(18) 0.02711(19)
C121_2 C 0.8371(5) 0.93212(17) 0.0727(2)
C122_2 C 0.6874(7) 0.8440(2) 0.0146(2)
H109_2 H 0.6180 0.8388 0.0280
H111_2 H 0.7327 0.8198 0.0184
C123_2 C 0.8972(6) 0.9710(2) 0.0779(2)
H112_2 H 0.9630 0.9691 0.0605
H113_2 H 0.8500 0.9924 0.0617
H114_2 H 0.9181 0.9771 0.1149
O35 O 0.9581(3) 0.88253(12) 0.20837(18)
O37 O 0.9884(3) 0.94762(11) 0.20505(13)
O42 O 0.8241(4) 0.92513(14) 0.28037(14)
O44 O 0.9068(4) 0.98203(11) 0.30785(16)
Mn5 Mn 0.78054(6) 0.92849(2) 0.69730(3)
C8_2 C 0.6933(4) 0.84920(13) 0.62781(18)
H13_2 H 0.6710 0.8242 0.6086
H14_2 H 0.7525 0.8424 0.6560
O15_2 O 0.7146(3) 0.98486(10) 0.67918(14)
N11_2 N 0.7864(4) 0.91125(12) 0.61258(16)
N12_2 N 0.7347(3) 0.87730(11) 0.59251(15)
C53_2 C 0.7354(4) 0.87433(15) 0.54077(19)
C54_2 C 0.7892(5) 0.90802(15) 0.52544(19)
C55_2 C 0.8195(5) 0.93010(15) 0.57190(19)
C56_2 C 0.6807(5) 0.84045(16) 0.50920(19)
H51_2 H 0.7322 0.8181 0.5086
H52_2 H 0.6576 0.8496 0.4735
H53_2 H 0.6167 0.8315 0.5249
C57_2 C 0.8788(6) 0.96906(17) 0.5794(2)
H54_2 H 0.8263 0.9912 0.5739
H55_2 H 0.9316 0.9712 0.5542
H56_2 H 0.9176 0.9704 0.6149
C58_2 C 0.8106(5) 0.91833(15) 0.47247(19)
C59_2 C 0.8384(5) 0.88878(16) 0.43748(19)
H57_2 H 0.8476 0.8617 0.4486
C60_2 C 0.8524(5) 0.89914(16) 0.38701(19)
H58_2 H 0.8668 0.8787 0.3632
C61_2 C 0.8459(4) 0.93889(15) 0.37024(18)
C62_2 C 0.8220(5) 0.96857(16) 0.4054(2)
H59_2 H 0.8190 0.9959 0.3949
C63_2 C 0.8029(5) 0.95835(16) 0.4550(2)
H60_2 H 0.7841 0.9787 0.4779
C64_2 C 0.8600(4) 0.94969(14) 0.31544(18)
N13_2 N 0.6209(4) 0.89695(12) 0.68358(16)
N14_2 N 0.6015(4) 0.86494(12) 0.65049(15)
C65_2 C 0.4948(4) 0.85526(15) 0.6426(2)
C66_2 C 0.4394(4) 0.88186(15) 0.6710(2)
C67_2 C 0.5225(5) 0.90752(16) 0.6960(2)
C68_2 C 0.4522(5) 0.8214(2) 0.6075(3)
H61_2 H 0.4765 0.8249 0.5732
H62_2 H 0.3721 0.8212 0.6037
H63_2 H 0.4801 0.7959 0.6227
C69_2 C 0.5132(6) 0.94147(19) 0.7326(3)
H64_2 H 0.5774 0.9418 0.7592
H65_2 H 0.4470 0.9381 0.7494
H66_2 H 0.5090 0.9668 0.7132
C70_2 C 0.3226(5) 0.88516(17) 0.6748(2)
C71_2 C 0.2587(5) 0.85240(16) 0.6860(3)
H67_2 H 0.2905 0.8264 0.6887
C72_2 C 0.1495(5) 0.85697(17) 0.6932(2)
H68_2 H 0.1078 0.8344 0.7013
C73_2 C 0.1019(5) 0.89514(16) 0.6885(2)
C74_2 C 0.1634(5) 0.92751(16) 0.6751(3)
H69_2 H 0.1310 0.9534 0.6707
C75_2 C 0.2709(5) 0.92222(17) 0.6680(3)
H70_2 H 0.3113 0.9446 0.6582
H110_2 H 0.6730 0.8514 0.9777
C124_2 C 0.8100(5) 0.9200(2) 0.9727(2)
C125_2 C 0.8261(5) 0.93718(16) 0.86786(19)
C126_2 C 0.8348(4) 0.94580(15) 0.81186(18)
O26_2 O 0.7841(5) 0.92357(16) 0.77785(15)
O27_2 O 0.8913(4) 0.97457(14) 0.80158(17)
C151_2 C 0.8277(9) 0.8900(3) 0.9378(3)
H135_2 H 0.8347 0.8631 0.9500
C152_2 C 0.8356(10) 0.8977(3) 0.8853(3)
H136_2 H 0.8471 0.8765 0.8621
C153_2 C 0.8108(8) 0.9680(3) 0.9009(3)
H137_2 H 0.8067 0.9949 0.8885
C154_2 C 0.8012(9) 0.9598(3) 0.9529(4)
H138_2 H 0.7885 0.9813 0.9755
O46 O 0.9564(3) 0.93840(11) 0.70188(14)
Cl8_2 Cl 0.90534(14) 0.19093(6) 0.58735(8)
Cl9_2 Cl 0.8231(2) 0.2500 0.45949(11)
Mn7_2 Mn 0.93501(11) 0.2500 0.54055(6)
Cl11_2 Cl 0.90534(14) 0.30907(6) 0.58735(8)
C76_2 C 0.9886(4) 0.90201(15) 0.6997(2)
O18_2 O 0.9246(3) 0.87295(11) 0.70522(16)
loop_
_geom_bond_atom_site_label_1
_geom_bond_atom_site_label_2
_geom_bond_site_symmetry_1
_geom_bond_site_symmetry_2
Cl1 Mn1 1_555 1_555
O1 Mn1 1_555 1_555
Mn1 N1 1_555 1_555
N1 C1 1_555 1_555
O3 Mn1 1_555 1_555
N2 Mn1 1_555 1_555
C3 N2 1_555 1_555
C2 H1 1_555 1_555
H2 C2 1_555 1_555
H3 C2 1_555 1_555
H4 C4 1_555 1_555
H5 C4 1_555 1_555
H6 C4 1_555 1_555
C2_2 H1_2 1_555 1_555
H2_2 C2_2 1_555 1_555
H3_2 C2_2 1_555 1_555
H4_2 C4_2 1_555 1_555
H5_2 C4_2 1_555 1_555
H6_2 C4_2 1_555 1_555
Cl1_2 Mn1_2 1_555 1_555
O1_2 Mn1_2 1_555 1_555
Mn1_2 N1_2 1_555 1_555
N1_2 C1_2 1_555 1_555
O3_2 Mn1_2 1_555 1_555
N2_2 Mn1_2 1_555 1_555
C3_2 N2_2 1_555 1_555
Mn2 Cl2 1_555 1_555
Cl3 Mn2 1_555 1_555
Cl4 Mn2 1_555 1_555
Cl5 Mn2 1_555 1_555
Mn2_2 Cl2_2 1_555 1_555
Cl3_2 Mn2_2 1_555 1_555
Cl4_2 Mn2_2 1_555 1_555
Cl5_2 Mn2_2 1_555 1_555
Cl8 Mn7 1_555 1_555
Cl9 Mn7 1_555 1_555
O18 C76 1_555 1_555
O19 C76 1_555 1_555
Cl11 Mn7 1_555 1_555
Mn19 O19 1_555 1_555
Mn25 O19 1_555 1_555
Mn15 O24 1_555 1_555
O25 Mn15 1_555 1_555
Mn27 O23 1_555 1_555
Cl7 Mn6 1_555 1_555
O4 Mn6 1_555 1_555
O5 Mn6 1_555 1_555
Mn25 O15 1_555 1_555
C7 H11 1_555 1_555
H12 C7 1_555 1_555
Mn6 N9 1_555 1_555
C8 H13 1_555 1_555
H14 C8 1_555 1_555
N9 N10 1_555 1_555
N10 C7 1_555 1_555
C41 N10 1_555 1_555
C42 C41 1_555 1_555
C43 N9 1_555 1_555
C44 C41 1_555 1_555
H41 C44 1_555 1_555
H42 C44 1_555 1_555
H43 C44 1_555 1_555
C45 C43 1_555 1_555
H44 C45 1_555 1_555
H45 C45 1_555 1_555
H46 C45 1_555 1_555
C46 C42 1_555 1_555
C47 C46 1_555 1_555
H47 C47 1_555 1_555
C48 C47 1_555 1_555
H48 C48 1_555 1_555
C49 C48 1_555 1_555
C50 C49 1_555 1_555
H49 C50 1_555 1_555
C51 C46 1_555 1_555
H50 C51 1_555 1_555
C52 C49 1_555 1_555
O14 Mn19 1_555 1_555
O15 C52 1_555 1_555
N11 Mn25 1_555 1_555
N12 C8 1_555 1_555
C53 N12 1_555 1_555
C54 C53 1_555 1_555
C55 N11 1_555 1_555
C56 C53 1_555 1_555
H51 C56 1_555 1_555
H52 C56 1_555 1_555
H53 C56 1_555 1_555
C57 C55 1_555 1_555
H54 C57 1_555 1_555
H55 C57 1_555 1_555
H56 C57 1_555 1_555
C58 C54 1_555 1_555
C59 C58 1_555 1_555
H57 C59 1_555 1_555
C60 C59 1_555 1_555
H58 C60 1_555 1_555
C61 C60 1_555 1_555
C62 C61 1_555 1_555
H59 C62 1_555 1_555
C63 C58 1_555 1_555
H60 C63 1_555 1_555
C64 C61 1_555 1_555
O16 C64 1_555 1_555
O17 C64 1_555 1_555
N13 Mn25 1_555 1_555
N14 C8 1_555 1_555
C65 N14 1_555 1_555
C66 C65 1_555 1_555
C67 N13 1_555 1_555
C68 C65 1_555 1_555
H61 C68 1_555 1_555
H62 C68 1_555 1_555
H63 C68 1_555 1_555
C69 C67 1_555 1_555
H64 C69 1_555 1_555
H65 C69 1_555 1_555
H66 C69 1_555 1_555
C70 C66 1_555 1_555
C71 C70 1_555 1_555
H67 C71 1_555 1_555
C72 C71 1_555 1_555
H68 C72 1_555 1_555
C73 C72 1_555 1_555
C74 C73 1_555 1_555
H69 C74 1_555 1_555
C75 C70 1_555 1_555
H70 C75 1_555 1_555
N17 Mn6 1_555 1_555
N18 C7 1_555 1_555
C93 N18 1_555 1_555
C94 C93 1_555 1_555
C95 N17 1_555 1_555
C96 C93 1_555 1_555
H85 C96 1_555 1_555
H86 C96 1_555 1_555
H87 C96 1_555 1_555
C97 C95 1_555 1_555
H88 C97 1_555 1_555
H89 C97 1_555 1_555
H90 C97 1_555 1_555
C98 C94 1_555 1_555
C99 C98 1_555 1_555
H91 C99 1_555 1_555
C100 C99 1_555 1_555
H92 C100 1_555 1_555
C101 C100 1_555 1_555
C102 C101 1_555 1_555
H93 C102 1_555 1_555
C103 C98 1_555 1_555
H94 C103 1_555 1_555
C104 C101 1_555 1_555
O22 C104 1_555 1_555
C125 C126 1_555 1_555
C126 O26 1_555 1_555
O26 Mn25 1_555 1_555
O27 Mn19 1_555 1_555
C151 C124 1_555 1_555
H135 C151 1_555 1_555
C152 C125 1_555 1_555
H136 C152 1_555 1_555
C153 C125 1_555 1_555
H137 C153 1_555 1_555
C154 C124 1_555 1_555
H138 C154 1_555 1_555
O32 Mn6 1_555 1_555
Mn15 O16 1_555 1_555
C42 C43 1_555 1_555
C50 C51 1_555 1_555
C52 O14 1_555 1_555
N11 N12 1_555 1_555
C54 C55 1_555 1_555
C62 C63 1_555 1_555
N13 N14 1_555 1_555
C66 C67 1_555 1_555
C74 C75 1_555 1_555
N17 N18 1_555 1_555
C94 C95 1_555 1_555
C102 C103 1_555 1_555
C126 O27 1_555 1_555
C151 C152 1_555 1_555
C153 C154 1_555 1_555
Mn15 N19 1_555 1_555
C105 H95 1_555 1_555
H96 C105 1_555 1_555
N19 N20 1_555 1_555
N20 C105 1_555 1_555
C107 N20 1_555 1_555
C108 C107 1_555 1_555
C109 N19 1_555 1_555
C110 C107 1_555 1_555
H99 C110 1_555 1_555
H100 C110 1_555 1_555
H101 C110 1_555 1_555
C111 C109 1_555 1_555
H102 C111 1_555 1_555
H103 C111 1_555 1_555
H104 C111 1_555 1_555
C112 C108 1_555 1_555
C113 C112 1_555 1_555
H105 C113 1_555 1_555
C114 C113 1_555 1_555
H106 C114 1_555 1_555
C115 C114 1_555 1_555
C116 C115 1_555 1_555
H107 C116 1_555 1_555
C117 C112 1_555 1_555
H108 C117 1_555 1_555
C118 C115 1_555 1_555
N21 Mn15 1_555 1_555
N22 C105 1_555 1_555
C119 N22 1_555 1_555
C120 C119 1_555 1_555
C121 N21 1_555 1_555
C122 C119 1_555 1_555
H109 C122 1_555 1_555
H111 C122 1_555 1_555
C123 C121 1_555 1_555
H112 C123 1_555 1_555
H113 C123 1_555 1_555
H114 C123 1_555 1_555
O38 Mn15 1_555 1_555
C108 C109 1_555 1_555
C116 C117 1_555 1_555
N21 N22 1_555 1_555
C120 C121 1_555 1_555
Mn3 N3 1_555 1_555
C5 H7 1_555 1_555
H8 C5 1_555 1_555
C6 H9 1_555 1_555
H10 C6 1_555 1_555
O6 Mn8 1_555 1_555
O7 Mn8 1_555 1_555
Cl10 Mn8 1_555 1_555
Mn8 N7 1_555 1_555
N3 N4 1_555 1_555
N4 C5 1_555 1_555
C9 N4 1_555 1_555
C10 C9 1_555 1_555
C11 N3 1_555 1_555
C12 C9 1_555 1_555
H15 C12 1_555 1_555
H16 C12 1_555 1_555
H17 C12 1_555 1_555
C13 C11 1_555 1_555
H18 C13 1_555 1_555
H19 C13 1_555 1_555
H20 C13 1_555 1_555
C14 C10 1_555 1_555
C15 C14 1_555 1_555
H21 C15 1_555 1_555
C16 C15 1_555 1_555
H22 C16 1_555 1_555
C17 C16 1_555 1_555
C18 C17 1_555 1_555
H23 C18 1_555 1_555
C19 C14 1_555 1_555
H24 C19 1_555 1_555
C20 C17 1_555 1_555
N5 Mn3 1_555 1_555
N6 C5 1_555 1_555
C21 N6 1_555 1_555
C22 C21 1_555 1_555
C23 N5 1_555 1_555
C24 C21 1_555 1_555
H25 C24 1_555 1_555
H27 C24 1_555 1_555
C25 C23 1_555 1_555
H28 C25 1_555 1_555
H29 C25 1_555 1_555
H30 C25 1_555 1_555
N7 N8 1_555 1_555
N8 C6 1_555 1_555
C29 N8 1_555 1_555
C30 C29 1_555 1_555
C31 N7 1_555 1_555
C32 C29 1_555 1_555
H31 C32 1_555 1_555
H32 C32 1_555 1_555
H33 C32 1_555 1_555
C33 C31 1_555 1_555
H34 C33 1_555 1_555
H35 C33 1_555 1_555
H36 C33 1_555 1_555
C34 C30 1_555 1_555
C35 C34 1_555 1_555
H37 C35 1_555 1_555
C36 C35 1_555 1_555
H38 C36 1_555 1_555
C37 C36 1_555 1_555
C38 C37 1_555 1_555
H39 C38 1_555 1_555
C39 C34 1_555 1_555
H40 C39 1_555 1_555
C40 C37 1_555 1_555
O12 Mn3 1_555 1_555
O13 C40 1_555 1_555
N15 Mn8 1_555 1_555
N16 C6 1_555 1_555
C81 N16 1_555 1_555
C82 C81 1_555 1_555
C83 N15 1_555 1_555
C84 C81 1_555 1_555
H75 C84 1_555 1_555
H76 C84 1_555 1_555
H77 C84 1_555 1_555
C85 C83 1_555 1_555
H78 C85 1_555 1_555
H79 C85 1_555 1_555
H80 C85 1_555 1_555
C86 C82 1_555 1_555
C87 C86 1_555 1_555
H81 C87 1_555 1_555
C88 C87 1_555 1_555
H82 C88 1_555 1_555
C89 C88 1_555 1_555
C90 C89 1_555 1_555
H83 C90 1_555 1_555
C91 C86 1_555 1_555
H84 C91 1_555 1_555
C92 C89 1_555 1_555
O21 C92 1_555 1_555
O33 Mn8 1_555 1_555
O34 Mn3 1_555 1_555
O36 Mn3 1_555 1_555
O43 Mn3 1_555 1_555
C10 C11 1_555 1_555
C18 C19 1_555 1_555
N5 N6 1_555 1_555
C22 C23 1_555 1_555
C30 C31 1_555 1_555
C38 C39 1_555 1_555
C40 O12 1_555 1_555
N15 N16 1_555 1_555
C82 C83 1_555 1_555
C90 C91 1_555 1_555
C27 C28 1_555 1_555
C28 O10 1_555 1_555
O10 Mn11 1_555 1_555
O11 C28 1_555 1_555
C77 C26 1_555 1_555
H71 C77 1_555 1_555
C78 C27 1_555 1_555
H72 C78 1_555 1_555
C79 C27 1_555 1_555
H73 C79 1_555 1_555
C80 C26 1_555 1_555
H74 C80 1_555 1_555
Mn22 O11 1_555 1_555
Mn11 N23 1_555 1_555
C106 H97 1_555 1_555
H98 C106 1_555 1_555
N23 N24 1_555 1_555
N24 C106 1_555 1_555
C127 N24 1_555 1_555
C128 C127 1_555 1_555
C129 N23 1_555 1_555
C130 C127 1_555 1_555
H115 C130 1_555 1_555
H116 C130 1_555 1_555
H117 C130 1_555 1_555
C131 C129 1_555 1_555
H118 C131 1_555 1_555
H119 C131 1_555 1_555
H120 C131 1_555 1_555
C132 C128 1_555 1_555
C133 C132 1_555 1_555
H121 C133 1_555 1_555
C134 C133 1_555 1_555
H122 C134 1_555 1_555
C135 C134 1_555 1_555
C136 C135 1_555 1_555
H123 C136 1_555 1_555
C137 C132 1_555 1_555
H124 C137 1_555 1_555
C138 C135 1_555 1_555
O43 C138 1_555 1_555
O45 C138 1_555 1_555
N25 Mn11 1_555 1_555
N26 C106 1_555 1_555
C139 N26 1_555 1_555
C140 C139 1_555 1_555
C141 N25 1_555 1_555
C142 C139 1_555 1_555
H125 C142 1_555 1_555
H126 C142 1_555 1_555
H127 C142 1_555 1_555
C143 C141 1_555 1_555
H128 C143 1_555 1_555
H129 C143 1_555 1_555
H130 C143 1_555 1_555
C144 C140 1_555 1_555
C145 C144 1_555 1_555
H131 C145 1_555 1_555
C146 C145 1_555 1_555
H132 C146 1_555 1_555
C147 C146 1_555 1_555
C148 C147 1_555 1_555
H133 C148 1_555 1_555
C149 C144 1_555 1_555
H134 C149 1_555 1_555
O40 Mn22 1_555 1_555
O41 Mn11 1_555 1_555
O47 Mn22 1_555 1_555
C77 C78 1_555 1_555
C79 C80 1_555 1_555
Mn11 O47 1_555 1_555
C128 C129 1_555 1_555
C136 C137 1_555 1_555
N25 N26 1_555 1_555
C140 C141 1_555 1_555
C148 C149 1_555 1_555
Mn16 O20 1_555 1_555
O30 C150 1_555 1_555
O47 C150 1_555 1_555
O30_2 C150_2 1_555 1_555
O31 C150_2 1_555 1_555
Mn24 O31 1_555 1_555
Mn27 O31 1_555 1_555
Mn12 O8 1_555 1_555
O9 Mn12 1_555 1_555
C27_2 C28_2 1_555 1_555
C28_2 O10_2 1_555 1_555
O10_2 Mn27 1_555 1_555
O11_2 C28_2 1_555 1_555
C77_2 C26_2 1_555 1_555
H71_2 C77_2 1_555 1_555
C78_2 C27_2 1_555 1_555
H72_2 C78_2 1_555 1_555
C79_2 C27_2 1_555 1_555
H73_2 C79_2 1_555 1_555
C80_2 C26_2 1_555 1_555
H74_2 C80_2 1_555 1_555
Mn24 O11_2 1_555 1_555
Mn27 N23_2 1_555 1_555
C106_2 H97_2 1_555 1_555
H98_2 C106_2 1_555 1_555
N23_2 N24_2 1_555 1_555
N24_2 C106_2 1_555 1_555
C127_2 N24_2 1_555 1_555
C128_2 C127_2 1_555 1_555
C129_2 N23_2 1_555 1_555
C130_2 C127_2 1_555 1_555
H115_2 C130_2 1_555 1_555
H116_2 C130_2 1_555 1_555
H117_2 C130_2 1_555 1_555
C131_2 C129_2 1_555 1_555
H118_2 C131_2 1_555 1_555
H119_2 C131_2 1_555 1_555
H120_2 C131_2 1_555 1_555
C132_2 C128_2 1_555 1_555
C133_2 C132_2 1_555 1_555
H121_2 C133_2 1_555 1_555
C134_2 C133_2 1_555 1_555
H122_2 C134_2 1_555 1_555
C135_2 C134_2 1_555 1_555
C136_2 C135_2 1_555 1_555
H123_2 C136_2 1_555 1_555
C137_2 C132_2 1_555 1_555
H124_2 C137_2 1_555 1_555
C138_2 C135_2 1_555 1_555
O28 C138_2 1_555 1_555
O29 C138_2 1_555 1_555
N25_2 Mn27 1_555 1_555
N26_2 C106_2 1_555 1_555
C139_2 N26_2 1_555 1_555
C140_2 C139_2 1_555 1_555
C141_2 N25_2 1_555 1_555
C142_2 C139_2 1_555 1_555
H125_2 C142_2 1_555 1_555
H126_2 C142_2 1_555 1_555
H127_2 C142_2 1_555 1_555
C143_2 C141_2 1_555 1_555
H128_2 C143_2 1_555 1_555
H129_2 C143_2 1_555 1_555
H130_2 C143_2 1_555 1_555
C144_2 C140_2 1_555 1_555
C145_2 C144_2 1_555 1_555
H131_2 C145_2 1_555 1_555
C146_2 C145_2 1_555 1_555
H132_2 C146_2 1_555 1_555
C147_2 C146_2 1_555 1_555
C148_2 C147_2 1_555 1_555
H133_2 C148_2 1_555 1_555
C149_2 C144_2 1_555 1_555
H134_2 C149_2 1_555 1_555
Mn12 O28 1_555 1_555
C77_2 C78_2 1_555 1_555
C79_2 C80_2 1_555 1_555
C128_2 C129_2 1_555 1_555
C136_2 C137_2 1_555 1_555
N25_2 N26_2 1_555 1_555
C140_2 C141_2 1_555 1_555
C148_2 C149_2 1_555 1_555
Mn12 N3_2 1_555 1_555
C5_2 H7_2 1_555 1_555
H8_2 C5_2 1_555 1_555
N3_2 N4_2 1_555 1_555
N4_2 C5_2 1_555 1_555
C9_2 N4_2 1_555 1_555
C10_2 C9_2 1_555 1_555
C11_2 N3_2 1_555 1_555
C12_2 C9_2 1_555 1_555
H15_2 C12_2 1_555 1_555
H16_2 C12_2 1_555 1_555
H17_2 C12_2 1_555 1_555
C13_2 C11_2 1_555 1_555
H18_2 C13_2 1_555 1_555
H19_2 C13_2 1_555 1_555
H20_2 C13_2 1_555 1_555
C14_2 C10_2 1_555 1_555
C15_2 C14_2 1_555 1_555
H21_2 C15_2 1_555 1_555
C16_2 C15_2 1_555 1_555
H22_2 C16_2 1_555 1_555
C17_2 C16_2 1_555 1_555
C18_2 C17_2 1_555 1_555
H23_2 C18_2 1_555 1_555
C19_2 C14_2 1_555 1_555
H24_2 C19_2 1_555 1_555
C20_2 C17_2 1_555 1_555
N5_2 Mn12 1_555 1_555
N6_2 C5_2 1_555 1_555
C21_2 N6_2 1_555 1_555
C22_2 C21_2 1_555 1_555
C23_2 N5_2 1_555 1_555
C24_2 C21_2 1_555 1_555
H25_2 C24_2 1_555 1_555
H27_2 C24_2 1_555 1_555
C25_2 C23_2 1_555 1_555
H28_2 C25_2 1_555 1_555
H29_2 C25_2 1_555 1_555
H30_2 C25_2 1_555 1_555
O12_2 Mn12 1_555 1_555
C10_2 C11_2 1_555 1_555
C18_2 C19_2 1_555 1_555
N5_2 N6_2 1_555 1_555
C22_2 C23_2 1_555 1_555
C6_2 H9_2 1_555 1_555
H10_2 C6_2 1_555 1_555
O6_2 Mn8_2 1_555 1_555
O7_2 Mn8_2 1_555 1_555
Cl10_2 Mn8_2 1_555 1_555
Mn8_2 N7_2 1_555 1_555
N7_2 N8_2 1_555 1_555
N8_2 C6_2 1_555 1_555
C29_2 N8_2 1_555 1_555
C30_2 C29_2 1_555 1_555
C31_2 N7_2 1_555 1_555
C32_2 C29_2 1_555 1_555
H31_2 C32_2 1_555 1_555
H32_2 C32_2 1_555 1_555
H33_2 C32_2 1_555 1_555
C33_2 C31_2 1_555 1_555
H34_2 C33_2 1_555 1_555
H35_2 C33_2 1_555 1_555
H36_2 C33_2 1_555 1_555
C34_2 C30_2 1_555 1_555
C35_2 C34_2 1_555 1_555
H37_2 C35_2 1_555 1_555
C36_2 C35_2 1_555 1_555
H38_2 C36_2 1_555 1_555
C37_2 C36_2 1_555 1_555
C38_2 C37_2 1_555 1_555
H39_2 C38_2 1_555 1_555
C39_2 C34_2 1_555 1_555
H40_2 C39_2 1_555 1_555
C40_2 C37_2 1_555 1_555
O13_2 C40_2 1_555 1_555
N15_2 Mn8_2 1_555 1_555
N16_2 C6_2 1_555 1_555
C81_2 N16_2 1_555 1_555
C82_2 C81_2 1_555 1_555
C83_2 N15_2 1_555 1_555
C84_2 C81_2 1_555 1_555
H75_2 C84_2 1_555 1_555
H76_2 C84_2 1_555 1_555
H77_2 C84_2 1_555 1_555
C85_2 C83_2 1_555 1_555
H78_2 C85_2 1_555 1_555
H79_2 C85_2 1_555 1_555
H80_2 C85_2 1_555 1_555
C86_2 C82_2 1_555 1_555
C87_2 C86_2 1_555 1_555
H81_2 C87_2 1_555 1_555
C88_2 C87_2 1_555 1_555
H82_2 C88_2 1_555 1_555
C89_2 C88_2 1_555 1_555
C90_2 C89_2 1_555 1_555
H83_2 C90_2 1_555 1_555
C91_2 C86_2 1_555 1_555
H84_2 C91_2 1_555 1_555
C92_2 C89_2 1_555 1_555
O38 C92_2 1_555 1_555
O39 C92_2 1_555 1_555
O33_2 Mn8_2 1_555 1_555
C30_2 C31_2 1_555 1_555
C38_2 C39_2 1_555 1_555
N15_2 N16_2 1_555 1_555
C82_2 C83_2 1_555 1_555
C90_2 C91_2 1_555 1_555
Cl7_2 Mn6_2 1_555 1_555
O4_2 Mn6_2 1_555 1_555
O5_2 Mn6_2 1_555 1_555
C7_2 H11_2 1_555 1_555
H12_2 C7_2 1_555 1_555
Mn6_2 N9_2 1_555 1_555
N9_2 N10_2 1_555 1_555
N10_2 C7_2 1_555 1_555
C41_2 N10_2 1_555 1_555
C42_2 C41_2 1_555 1_555
C43_2 N9_2 1_555 1_555
C44_2 C41_2 1_555 1_555
H41_2 C44_2 1_555 1_555
H42_2 C44_2 1_555 1_555
H43_2 C44_2 1_555 1_555
C45_2 C43_2 1_555 1_555
H44_2 C45_2 1_555 1_555
H45_2 C45_2 1_555 1_555
H46_2 C45_2 1_555 1_555
C46_2 C42_2 1_555 1_555
C47_2 C46_2 1_555 1_555
H47_2 C47_2 1_555 1_555
C48_2 C47_2 1_555 1_555
H48_2 C48_2 1_555 1_555
C49_2 C48_2 1_555 1_555
C50_2 C49_2 1_555 1_555
H49_2 C50_2 1_555 1_555
C51_2 C46_2 1_555 1_555
H50_2 C51_2 1_555 1_555
C52_2 C49_2 1_555 1_555
N17_2 Mn6_2 1_555 1_555
N18_2 C7_2 1_555 1_555
C93_2 N18_2 1_555 1_555
C94_2 C93_2 1_555 1_555
C95_2 N17_2 1_555 1_555
C96_2 C93_2 1_555 1_555
H85_2 C96_2 1_555 1_555
H86_2 C96_2 1_555 1_555
H87_2 C96_2 1_555 1_555
C97_2 C95_2 1_555 1_555
H88_2 C97_2 1_555 1_555
H89_2 C97_2 1_555 1_555
H90_2 C97_2 1_555 1_555
C98_2 C94_2 1_555 1_555
C99_2 C98_2 1_555 1_555
H91_2 C99_2 1_555 1_555
C100_2 C99_2 1_555 1_555
H92_2 C100_2 1_555 1_555
C101_2 C100_2 1_555 1_555
C102_2 C101_2 1_555 1_555
H93_2 C102_2 1_555 1_555
C103_2 C98_2 1_555 1_555
H94_2 C103_2 1_555 1_555
C104_2 C101_2 1_555 1_555
O40 C104_2 1_555 1_555
O41 C104_2 1_555 1_555
O32_2 Mn6_2 1_555 1_555
C42_2 C43_2 1_555 1_555
C50_2 C51_2 1_555 1_555
C52_2 O14_2 1_555 1_555
N17_2 N18_2 1_555 1_555
C94_2 C95_2 1_555 1_555
C102_2 C103_2 1_555 1_555
Mn16 N19_2 1_555 1_555
C105_2 H95_2 1_555 1_555
H96_2 C105_2 1_555 1_555
N19_2 N20_2 1_555 1_555
N20_2 C105_2 1_555 1_555
C107_2 N20_2 1_555 1_555
C108_2 C107_2 1_555 1_555
C109_2 N19_2 1_555 1_555
C110_2 C107_2 1_555 1_555
H99_2 C110_2 1_555 1_555
H100_2 C110_2 1_555 1_555
H101_2 C110_2 1_555 1_555
C111_2 C109_2 1_555 1_555
H102_2 C111_2 1_555 1_555
H103_2 C111_2 1_555 1_555
H104_2 C111_2 1_555 1_555
C112_2 C108_2 1_555 1_555
C113_2 C112_2 1_555 1_555
H105_2 C113_2 1_555 1_555
C114_2 C113_2 1_555 1_555
H106_2 C114_2 1_555 1_555
C115_2 C114_2 1_555 1_555
C116_2 C115_2 1_555 1_555
H107_2 C116_2 1_555 1_555
C117_2 C112_2 1_555 1_555
H108_2 C117_2 1_555 1_555
C118_2 C115_2 1_555 1_555
N21_2 Mn16 1_555 1_555
N22_2 C105_2 1_555 1_555
C119_2 N22_2 1_555 1_555
C120_2 C119_2 1_555 1_555
C121_2 N21_2 1_555 1_555
C122_2 C119_2 1_555 1_555
H109_2 C122_2 1_555 1_555
H111_2 C122_2 1_555 1_555
C123_2 C121_2 1_555 1_555
H112_2 C123_2 1_555 1_555
H113_2 C123_2 1_555 1_555
H114_2 C123_2 1_555 1_555
O35 Mn16 1_555 1_555
O37 Mn16 1_555 1_555
O42 Mn16 1_555 1_555
C108_2 C109_2 1_555 1_555
C116_2 C117_2 1_555 1_555
N21_2 N22_2 1_555 1_555
C120_2 C121_2 1_555 1_555
Mn5 O15_2 1_555 1_555
C8_2 H13_2 1_555 1_555
H14_2 C8_2 1_555 1_555
N11_2 Mn5 1_555 1_555
N12_2 C8_2 1_555 1_555
C53_2 N12_2 1_555 1_555
C54_2 C53_2 1_555 1_555
C55_2 N11_2 1_555 1_555
C56_2 C53_2 1_555 1_555
H51_2 C56_2 1_555 1_555
H52_2 C56_2 1_555 1_555
H53_2 C56_2 1_555 1_555
C57_2 C55_2 1_555 1_555
H54_2 C57_2 1_555 1_555
H55_2 C57_2 1_555 1_555
H56_2 C57_2 1_555 1_555
C58_2 C54_2 1_555 1_555
C59_2 C58_2 1_555 1_555
H57_2 C59_2 1_555 1_555
C60_2 C59_2 1_555 1_555
H58_2 C60_2 1_555 1_555
C61_2 C60_2 1_555 1_555
C62_2 C61_2 1_555 1_555
H59_2 C62_2 1_555 1_555
C63_2 C58_2 1_555 1_555
H60_2 C63_2 1_555 1_555
C64_2 C61_2 1_555 1_555
O42 C64_2 1_555 1_555
O44 C64_2 1_555 1_555
N13_2 Mn5 1_555 1_555
N14_2 C8_2 1_555 1_555
C65_2 N14_2 1_555 1_555
C66_2 C65_2 1_555 1_555
C67_2 N13_2 1_555 1_555
C68_2 C65_2 1_555 1_555
H61_2 C68_2 1_555 1_555
H62_2 C68_2 1_555 1_555
H63_2 C68_2 1_555 1_555
C69_2 C67_2 1_555 1_555
H64_2 C69_2 1_555 1_555
H65_2 C69_2 1_555 1_555
H66_2 C69_2 1_555 1_555
C70_2 C66_2 1_555 1_555
C71_2 C70_2 1_555 1_555
H67_2 C71_2 1_555 1_555
C72_2 C71_2 1_555 1_555
H68_2 C72_2 1_555 1_555
C73_2 C72_2 1_555 1_555
C74_2 C73_2 1_555 1_555
H69_2 C74_2 1_555 1_555
C75_2 C70_2 1_555 1_555
H70_2 C75_2 1_555 1_555
C125_2 C126_2 1_555 1_555
C126_2 O26_2 1_555 1_555
O26_2 Mn5 1_555 1_555
O27_2 Mn17 1_555 1_555
C151_2 C124_2 1_555 1_555
H135_2 C151_2 1_555 1_555
C152_2 C125_2 1_555 1_555
H136_2 C152_2 1_555 1_555
C153_2 C125_2 1_555 1_555
H137_2 C153_2 1_555 1_555
C154_2 C124_2 1_555 1_555
H138_2 C154_2 1_555 1_555
O46 Mn17 1_555 1_555
Mn5 O46 1_555 1_555
N11_2 N12_2 1_555 1_555
C54_2 C55_2 1_555 1_555
C62_2 C63_2 1_555 1_555
N13_2 N14_2 1_555 1_555
C66_2 C67_2 1_555 1_555
C74_2 C75_2 1_555 1_555
C126_2 O27_2 1_555 1_555
C151_2 C152_2 1_555 1_555
C153_2 C154_2 1_555 1_555
Cl8_2 Mn7_2 1_555 1_555
Cl9_2 Mn7_2 1_555 1_555
Cl11_2 Mn7_2 1_555 1_555
O18_2 C76_2 1_555 1_555
O46 C76_2 1_555 1_555

#END
