
###############################################################################
#
# This file contains modified crystal structure data generated from the
# MOF subset of the Cambridge Structural Database (CSD) v543 
# hosted by the Cambridge Crystallographic Data Centre (CCDC).
#
# This work is licensed under the Creative Commons
# Attribution-NonCommercial-ShareAlike 4.0 International License.
# To view a copy of this license, visit
# http://creativecommons.org/licenses/by-nc-sa/4.0/
# or send a letter to
# Creative Commons, PO Box 1866, Mountain View, CA 94042, USA.
#
# CIF created using the CSD Python API on 29 September 2022
# The structure has been converted into the P1 space group
# The structure has a 3D framework
# The original CSD entry WOYWOY is in the monoclinic crystal system
# The framework has been calculated to contain at least 10.0% void space
# The void calculation uses a probe of radius 1.32A, grid spacing 0.4
# H atom positions have been added when not included in the experimental data
# Generated hydrogen atom positions removed from atoms on special positions
#
###############################################################################

data_WOYWOY
_chemical_formula_moiety         '(C154 H156 Cl4 Mn9 N24 O29)n'
_symmetry_cell_setting           triclinic
_symmetry_space_group_name_H-M   'P 1'
_symmetry_Int_Tables_number      1
_space_group_name_Hall           'P 1'
loop_
_symmetry_equiv_pos_site_id
_symmetry_equiv_pos_as_xyz
1 x,y,z
_cell_length_a                   12.355(3)
_cell_length_b                   33.452(7)
_cell_length_c                   12.952(3)
_cell_angle_alpha                90
_cell_angle_beta                 97.63(3)
_cell_angle_gamma                90
_cell_volume                     5305.66
loop_
_atom_site_label
_atom_site_type_symbol
_atom_site_fract_x
_atom_site_fract_y
_atom_site_fract_z
Cl1 Cl 0.3527(3) 0.7500 0.8283(2)
Cl1_2 Cl 0.6473(3) 0.2500 0.1717(2)
Mn2 Mn 0.0000 0.0000 0.5000
O23 O 0.1443(3) 0.02580(10) 0.5762(3)
Mn2_2 Mn 0.0000 1.0000 0.5000
O11 O 0.0336(2) 0.94490(7) 0.5971(2)
O14 O 0.0620(2) 0.88051(8) 0.5874(3)
C53 C 0.0000(3) 0.90912(11) 0.5984(3)
Mn8 Mn 0.20770(4) 0.93205(2) 0.60248(4)
Mn13 Mn 0.0000 0.5000 0.5000
O20 O 0.0794(3) 0.97376(10) 0.3822(2)
Mn1 Mn 0.79230(4) 0.06795(2) 0.39752(4)
Mn2_3 Mn 1.0000 0.0000 0.5000
N1 N 0.6109(2) 0.13092(8) 0.3078(2)
O2 O 0.7211(2) 0.01273(8) 0.3487(3)
N2 N 0.7929(3) 0.08652(8) 0.2279(2)
N3 N 0.6345(2) 0.10029(9) 0.3763(2)
N4 N 0.7406(3) 0.12017(8) 0.1894(2)
C1 C 0.8231(4) 0.06754(10) 0.1451(3)
C2 C 0.7014(3) 0.14795(9) 0.2608(3)
H1 H 0.6770 0.1728 0.2232
H2 H 0.7616 0.1549 0.3162
C4 C 0.0000(3) 0.09088(11) 0.4016(3)
C5 C 0.2853(3) 0.07079(11) 0.3436(4)
H3 H 0.3261 0.0485 0.3245
C6 C 0.5375(3) 0.08850(12) 0.4014(3)
C7 C 0.5030(3) 0.13858(11) 0.2893(3)
C9 C 0.4526(3) 0.11209(11) 0.3488(3)
C10 C 0.7887(4) 0.08900(12) 0.0536(3)
C11 C 0.3362(3) 0.10776(12) 0.3574(4)
C13 C 0.7361(3) 0.12286(11) 0.0843(3)
C14 C 0.1164(3) 0.09769(11) 0.3846(4)
C17 C 0.1634(3) 0.13518(12) 0.3966(5)
H4 H 0.1215 0.1575 0.4134
C18 C 0.8827(5) 0.02849(13) 0.1574(3)
H5 H 0.9321 0.0263 0.1044
H6 H 0.8300 0.0065 0.1489
H7 H 0.9251 0.0271 0.2268
C19 C 0.6817(4) 0.15645(14) 0.0221(4)
H8 H 0.7188 0.1816 0.0437
H9 H 0.6051 0.1581 0.0338
C21 C 0.2727(3) 0.13997(13) 0.3837(5)
H11 H 0.3050 0.1657 0.3929
C23 C 0.5307(4) 0.05402(16) 0.4733(4)
H12 H 0.5261 0.0291 0.4333
H13 H 0.4655 0.0568 0.5084
H14 H 0.5959 0.0535 0.5253
C28 C 0.4560(4) 0.16865(14) 0.2125(5)
H18 H 0.4907 0.1946 0.2291
H19 H 0.3773 0.1709 0.2149
H20 H 0.4687 0.1604 0.1425
C33 C 0.1770(3) 0.06535(11) 0.3569(4)
H29 H 0.1443 0.0397 0.3471
O16 O 0.9664(2) 0.05510(7) 0.4029(2)
O19 O 0.9206(3) 0.02624(10) 0.6178(2)
O21 O 0.7953(3) 0.06960(14) 0.5591(2)
C8 C 0.8347(4) 0.06039(12) 0.7410(3)
C15 C 0.8531(3) 0.05111(12) 0.6293(3)
C16 C 0.8055(4) 0.07887(12) 0.9460(3)
H10 H 0.6856 0.1518 0.9480
C27 C 0.7331(8) 0.0700(3) 0.7663(5)
H17 H 0.6712 0.0695 0.7143
C30 C 0.9213(6) 0.0549(2) 0.8220(5)
H22 H 0.9888 0.0441 0.8075
C34 C 0.9077(6) 0.06530(19) 0.9232(5)
H30 H 0.9675 0.0633 0.9772
C35 C 0.7215(8) 0.0804(4) 0.8681(6)
H31 H 0.6520 0.0889 0.8834
O13 O 0.2047(3) 0.93040(14) 0.4409(2)
C57 C 0.1653(4) 0.93961(12) 0.2590(3)
C63 C 0.1469(3) 0.94889(12) 0.3707(3)
C64 C 0.1945(4) 0.92113(12) 0.0540(3)
H54 H 0.3144 0.8482 0.0520
C70 C 0.2669(8) 0.9300(3) 0.2337(5)
H59 H 0.3288 0.9305 0.2857
C72 C 0.0787(6) 0.9451(2) 0.1780(5)
H63 H 0.0112 0.9559 0.1925
C74 C 0.0923(6) 0.93470(19) 0.0768(5)
H65 H 0.0325 0.9367 0.0228
C75 C 0.2785(8) 0.9196(4) 0.1319(6)
H66 H 0.3480 0.9111 0.1166
Mn2_4 Mn 1.0000 1.0000 0.5000
C3 C 0.7643(3) 0.97961(11) 0.3716(3)
C12 C 0.7032(4) 0.94259(11) 0.3342(3)
N5 N 0.4373(5) 0.78493(10) 0.1729(4)
C20 C 0.5044(5) 0.83902(14) 0.2487(5)
C22 C 0.5768(5) 0.87473(14) 0.2752(4)
N6 N 0.3686(4) 0.79405(12) 0.2475(4)
C24 C 0.4140(5) 0.82623(14) 0.2930(5)
C25 C 0.5177(4) 0.81177(12) 0.1720(4)
C26 C 0.4123(8) 0.7500 0.1060(7)
H15 H 0.3344 0.7500 0.0759
H16 H 0.4576 0.7500 0.0484
C29 C 0.5836(15) 0.9024(5) 0.2106(16)
H21 H 0.5465 0.8999 0.1418
C31 C 0.3693(7) 0.84505(19) 0.3844(6)
H23 H 0.3718 0.8742 0.3783
H24 H 0.4134 0.8367 0.4493
H25 H 0.2935 0.8365 0.3849
C32 C 0.6065(5) 0.80933(15) 0.1000(5)
H26 H 0.6668 0.7927 0.1326
H27 H 0.6336 0.8362 0.0882
H28 H 0.5757 0.7975 0.0333
Mn3 Mn 0.23316(15) 0.7500 0.28068(14)
Cl2 Cl 0.1340(3) 0.7500 0.0983(4)
O6 O 0.1177(5) 0.79681(15) 0.3226(6)
O7 O 0.8557(3) 0.97420(10) 0.4238(3)
O8 O 0.2979(14) 0.7500 0.4553(10)
C36 C 0.7105(17) 0.9075(5) 0.3972(16)
H32 H 0.7673 0.9055 0.4540
C37 C 0.6312(16) 0.8738(5) 0.3764(18)
H33 H 0.6194 0.8541 0.4264
C38 C 0.6448(17) 0.9367(5) 0.2385(18)
H34 H 0.6458 0.9572 0.1878
O9 O 0.7211(2) 0.48727(8) 0.3487(3)
C39 C 0.7643(3) 0.52039(11) 0.3716(3)
C40 C 0.7032(4) 0.55741(11) 0.3342(3)
N7 N 0.4373(5) 0.71507(10) 0.1729(4)
C41 C 0.5044(5) 0.66098(14) 0.2487(5)
C42 C 0.5768(5) 0.62527(14) 0.2752(4)
N8 N 0.3686(4) 0.70595(12) 0.2475(4)
C43 C 0.4140(5) 0.67377(14) 0.2930(5)
C44 C 0.5177(4) 0.68823(12) 0.1720(4)
C45 C 0.5836(15) 0.5976(5) 0.2106(16)
H35 H 0.5465 0.6001 0.1418
C46 C 0.3693(7) 0.65495(19) 0.3844(6)
H36 H 0.3718 0.6258 0.3783
H37 H 0.4134 0.6633 0.4493
H38 H 0.2935 0.6635 0.3849
C47 C 0.6065(5) 0.69067(15) 0.1000(5)
H39 H 0.6668 0.7073 0.1326
H40 H 0.6336 0.6638 0.0882
H41 H 0.5757 0.7025 0.0333
O10 O 0.8557(3) 0.52580(10) 0.4238(3)
C48 C 0.7105(17) 0.5925(5) 0.3972(16)
H42 H 0.7673 0.5945 0.4540
C49 C 0.6312(16) 0.6262(5) 0.3764(18)
H43 H 0.6194 0.6459 0.4264
C50 C 0.6448(17) 0.5633(5) 0.2385(18)
H44 H 0.6458 0.5428 0.1878
N9 N 0.3891(2) 0.86908(8) 0.6922(2)
N10 N 0.2071(3) 0.91348(8) 0.7721(2)
N11 N 0.3655(2) 0.89971(9) 0.6237(2)
N12 N 0.2594(3) 0.87983(8) 0.8106(2)
C51 C 0.1769(4) 0.93246(10) 0.8549(3)
C52 C 0.2986(3) 0.85205(9) 0.7392(3)
H45 H 0.3230 0.8272 0.7768
H46 H 0.2384 0.8451 0.6838
C53_2 C 1.0000(3) 0.90912(11) 0.5984(3)
C54 C 0.7147(3) 0.92921(11) 0.6564(4)
H47 H 0.6739 0.9515 0.6755
C55 C 0.4625(3) 0.91150(12) 0.5986(3)
C56 C 0.4970(3) 0.86142(11) 0.7107(3)
C58 C 0.5474(3) 0.88791(11) 0.6512(3)
C59 C 0.2113(4) 0.91100(12) 0.9464(3)
C60 C 0.6638(3) 0.89224(12) 0.6426(4)
C61 C 0.2639(3) 0.87714(11) 0.9157(3)
C62 C 0.8836(3) 0.90231(11) 0.6154(4)
C65 C 0.8366(3) 0.86482(12) 0.6034(5)
H48 H 0.8785 0.8425 0.5866
C66 C 0.1173(5) 0.97151(13) 0.8426(3)
H49 H 0.0679 0.9737 0.8956
H50 H 0.1700 0.9935 0.8511
H51 H 0.0749 0.9729 0.7732
C67 C 0.3183(4) 0.84355(14) 0.9779(4)
H52 H 0.2812 0.8184 0.9563
H53 H 0.3949 0.8419 0.9662
C68 C 0.7273(3) 0.86003(13) 0.6163(5)
H55 H 0.6950 0.8343 0.6071
C69 C 0.4693(4) 0.94598(16) 0.5267(4)
H56 H 0.4739 0.9709 0.5667
H57 H 0.5345 0.9432 0.4916
H58 H 0.4041 0.9465 0.4747
C71 C 0.5440(4) 0.83135(14) 0.7875(5)
H60 H 0.5093 0.8054 0.7709
H61 H 0.6227 0.8291 0.7851
H62 H 0.5313 0.8396 0.8575
C73 C 0.8230(3) 0.93465(11) 0.6431(4)
H64 H 0.8557 0.9603 0.6529
O15 O 0.1177(5) 0.70319(15) 0.3226(6)
Mn9 Mn 0.79230(4) 0.43205(2) 0.39752(4)
Mn13_2 Mn 1.0000 0.5000 0.5000
O18 O 0.2789(2) 0.98727(8) 0.6513(3)
O5 O 0.9380(2) 0.11949(8) 0.4126(3)
C4_2 C 1.0000(3) 0.09088(11) 0.4016(3)
O1 O 0.0336(2) 0.55510(7) 0.5971(2)
O5_2 O 0.0620(2) 0.61949(8) 0.5874(3)
C4_3 C -0.0000(3) 0.59088(11) 0.5984(3)
Mn5 Mn 0.20770(4) 0.56795(2) 0.60248(4)
O3 O 0.0794(3) 0.52624(10) 0.3822(2)
O4 O 0.2047(3) 0.56960(14) 0.4409(2)
C8_2 C 0.1653(4) 0.56039(12) 0.2590(3)
C15_2 C 0.1469(3) 0.55111(12) 0.3707(3)
C16_2 C 0.1945(4) 0.57887(12) 0.0540(3)
H10_2 H 0.3144 0.6518 0.0520
C27_2 C 0.2669(8) 0.5700(3) 0.2337(5)
H17_2 H 0.3288 0.5695 0.2857
C30_2 C 0.0787(6) 0.5549(2) 0.1780(5)
H22_2 H 0.0112 0.5441 0.1925
C34_2 C 0.0923(6) 0.56530(19) 0.0768(5)
H30_2 H 0.0325 0.5633 0.0228
C35_2 C 0.2785(8) 0.5804(4) 0.1319(6)
H31_2 H 0.3480 0.5889 0.1166
N1_2 N 0.3891(2) 0.63092(8) 0.6922(2)
O2_2 O 0.2789(2) 0.51273(8) 0.6513(3)
N2_2 N 0.2071(3) 0.58652(8) 0.7721(2)
N3_2 N 0.3655(2) 0.60029(9) 0.6237(2)
N4_2 N 0.2594(3) 0.62017(8) 0.8106(2)
C1_2 C 0.1769(4) 0.56754(10) 0.8549(3)
C2_2 C 0.2986(3) 0.64795(9) 0.7392(3)
H1_2 H 0.3230 0.6728 0.7768
H2_2 H 0.2384 0.6549 0.6838
C3_2 C 0.2357(3) 0.47961(11) 0.6284(3)
C4_4 C 1.0000(3) 0.59088(11) 0.5984(3)
C5_2 C 0.7147(3) 0.57079(11) 0.6564(4)
H3_2 H 0.6739 0.5485 0.6755
C6_2 C 0.4625(3) 0.58850(12) 0.5986(3)
C7_2 C 0.4970(3) 0.63858(11) 0.7107(3)
C9_2 C 0.5474(3) 0.61209(11) 0.6512(3)
C10_2 C 0.2113(4) 0.58900(12) 0.9464(3)
C11_2 C 0.6638(3) 0.60776(12) 0.6426(4)
C12_2 C 0.2968(4) 0.44259(11) 0.6658(3)
C13_2 C 0.2639(3) 0.62286(11) 0.9157(3)
C14_2 C 0.8836(3) 0.59769(11) 0.6154(4)
C17_2 C 0.8366(3) 0.63518(12) 0.6034(5)
H4_2 H 0.8785 0.6575 0.5866
N5_2 N 0.5627(5) 0.28493(10) 0.8271(4)
C18_2 C 0.1173(5) 0.52849(13) 0.8426(3)
H5_2 H 0.0679 0.5263 0.8956
H6_2 H 0.1700 0.5065 0.8511
H7_2 H 0.0749 0.5271 0.7732
C19_2 C 0.3183(4) 0.65645(14) 0.9779(4)
H8_2 H 0.2812 0.6816 0.9563
H9_2 H 0.3949 0.6581 0.9662
C20_2 C 0.4956(5) 0.33902(14) 0.7513(5)
C21_2 C 0.7273(3) 0.63997(13) 0.6163(5)
H11_2 H 0.6950 0.6657 0.6071
C22_2 C 0.4232(5) 0.37473(14) 0.7248(4)
C23_2 C 0.4693(4) 0.55402(16) 0.5267(4)
H12_2 H 0.4739 0.5291 0.5667
H13_2 H 0.5345 0.5568 0.4916
H14_2 H 0.4041 0.5535 0.4747
N6_2 N 0.6314(4) 0.29405(12) 0.7525(4)
C24_2 C 0.5860(5) 0.32623(14) 0.7070(5)
C25_2 C 0.4823(4) 0.31177(12) 0.8280(4)
C26_2 C 0.5877(8) 0.2500 0.8940(7)
H15_2 H 0.6656 0.2500 0.9241
H16_2 H 0.5424 0.2500 0.9516
C28_2 C 0.5440(4) 0.66865(14) 0.7875(5)
H18_2 H 0.5093 0.6946 0.7709
H19_2 H 0.6227 0.6709 0.7851
H20_2 H 0.5313 0.6604 0.8575
C29_2 C 0.4164(15) 0.4024(5) 0.7894(16)
H21_2 H 0.4535 0.3999 0.8582
C31_2 C 0.6307(7) 0.34505(19) 0.6156(6)
H23_2 H 0.6282 0.3742 0.6217
H24_2 H 0.5866 0.3367 0.5507
H25_2 H 0.7065 0.3365 0.6151
C32_2 C 0.3935(5) 0.30933(15) 0.9000(5)
H26_2 H 0.3332 0.2927 0.8674
H27_2 H 0.3664 0.3362 0.9118
H28_2 H 0.4243 0.2975 0.9667
Mn3_2 Mn 0.76684(15) 0.2500 0.71932(14)
Cl2_2 Cl 0.8660(3) 0.2500 0.9017(4)
C33_2 C 0.8230(3) 0.56535(11) 0.6431(4)
H29_2 H 0.8557 0.5397 0.6529
O6_2 O 0.8823(5) 0.29681(15) 0.6774(6)
O7_2 O 0.1443(3) 0.47420(10) 0.5762(3)
O8_2 O 0.7021(14) 0.2500 0.5447(10)
C36_2 C 0.2895(17) 0.4075(5) 0.6028(16)
H32_2 H 0.2327 0.4055 0.5460
C37_2 C 0.3688(16) 0.3738(5) 0.6236(18)
H33_2 H 0.3806 0.3541 0.5736
C38_2 C 0.3552(17) 0.4367(5) 0.7615(18)
H34_2 H 0.3542 0.4572 0.8122
C39_2 C 0.2357(3) 0.02039(11) 0.6284(3)
C40_2 C 0.2968(4) 0.05741(11) 0.6658(3)
N7_2 N 0.5627(5) 0.21507(10) 0.8271(4)
C41_2 C 0.4956(5) 0.16098(14) 0.7513(5)
C42_2 C 0.4232(5) 0.12527(14) 0.7248(4)
N8_2 N 0.6314(4) 0.20595(12) 0.7525(4)
C43_2 C 0.5860(5) 0.17377(14) 0.7070(5)
C44_2 C 0.4823(4) 0.18823(12) 0.8280(4)
C45_2 C 0.4164(15) 0.0976(5) 0.7894(16)
H35_2 H 0.4535 0.1001 0.8582
C46_2 C 0.6307(7) 0.15495(19) 0.6156(6)
H36_2 H 0.6282 0.1258 0.6217
H37_2 H 0.5866 0.1633 0.5507
H38_2 H 0.7065 0.1635 0.6151
C47_2 C 0.3935(5) 0.19067(15) 0.9000(5)
H39_2 H 0.3332 0.2073 0.8674
H40_2 H 0.3664 0.1638 0.9118
H41_2 H 0.4243 0.2025 0.9667
C48_2 C 0.2895(17) 0.0925(5) 0.6028(16)
H42_2 H 0.2327 0.0945 0.5460
C49_2 C 0.3688(16) 0.1262(5) 0.6236(18)
H43_2 H 0.3806 0.1459 0.5736
C50_2 C 0.3552(17) 0.0633(5) 0.7615(18)
H44_2 H 0.3542 0.0428 0.8122
N9_2 N 0.6109(2) 0.36908(8) 0.3078(2)
N10_2 N 0.7929(3) 0.41348(8) 0.2279(2)
N11_2 N 0.6345(2) 0.39971(9) 0.3763(2)
N12_2 N 0.7406(3) 0.37983(8) 0.1894(2)
C51_2 C 0.8231(4) 0.43246(10) 0.1451(3)
C52_2 C 0.7014(3) 0.35205(9) 0.2608(3)
H45_2 H 0.6770 0.3272 0.2232
H46_2 H 0.7616 0.3451 0.3162
C53_3 C -0.0000(3) 0.40912(11) 0.4016(3)
C54_2 C 0.2853(3) 0.42921(11) 0.3436(4)
H47_2 H 0.3261 0.4515 0.3245
C55_2 C 0.5375(3) 0.41150(12) 0.4014(3)
C56_2 C 0.5030(3) 0.36142(11) 0.2893(3)
C58_2 C 0.4526(3) 0.38791(11) 0.3488(3)
C59_2 C 0.7887(4) 0.41100(12) 0.0536(3)
C60_2 C 0.3362(3) 0.39224(12) 0.3574(4)
C61_2 C 0.7361(3) 0.37714(11) 0.0843(3)
C62_2 C 0.1164(3) 0.40231(11) 0.3846(4)
C65_2 C 0.1634(3) 0.36482(12) 0.3966(5)
H48_2 H 0.1215 0.3425 0.4134
C66_2 C 0.8827(5) 0.47151(13) 0.1574(3)
H49_2 H 0.9321 0.4737 0.1044
H50_2 H 0.8300 0.4935 0.1489
H51_2 H 0.9251 0.4729 0.2268
C67_2 C 0.6817(4) 0.34355(14) 0.0221(4)
H52_2 H 0.7188 0.3184 0.0437
H53_2 H 0.6051 0.3419 0.0338
C68_2 C 0.2727(3) 0.36003(13) 0.3837(5)
H55_2 H 0.3050 0.3343 0.3929
C69_2 C 0.5307(4) 0.44598(16) 0.4733(4)
H56_2 H 0.5261 0.4709 0.4333
H57_2 H 0.4655 0.4432 0.5084
H58_2 H 0.5959 0.4465 0.5253
C71_2 C 0.4560(4) 0.33135(14) 0.2125(5)
H60_2 H 0.4907 0.3054 0.2291
H61_2 H 0.3773 0.3291 0.2149
H62_2 H 0.4687 0.3396 0.1425
C73_2 C 0.1770(3) 0.43465(11) 0.3569(4)
H64_2 H 0.1443 0.4603 0.3471
O15_2 O 0.8823(5) 0.20319(15) 0.6774(6)
O17 O 0.9664(2) 0.44490(7) 0.4029(2)
O22 O 0.7953(3) 0.43040(14) 0.5591(2)
O12 O 0.9206(3) 0.47376(10) 0.6178(2)
C57_2 C 0.8347(4) 0.43961(12) 0.7410(3)
C63_2 C 0.8531(3) 0.44889(12) 0.6293(3)
C64_2 C 0.8055(4) 0.42113(12) 0.9460(3)
H54_2 H 0.6856 0.3482 0.9480
C70_2 C 0.7331(8) 0.4300(3) 0.7663(5)
H59_2 H 0.6712 0.4305 0.7143
C72_2 C 0.9213(6) 0.4451(2) 0.8220(5)
H63_2 H 0.9888 0.4559 0.8075
C74_2 C 0.9077(6) 0.43470(19) 0.9232(5)
H65_2 H 0.9675 0.4367 0.9772
C75_2 C 0.7215(8) 0.4196(4) 0.8681(6)
H66_2 H 0.6520 0.4111 0.8834
O14_2 O 0.9380(2) 0.38051(8) 0.4126(3)
C53_4 C 1.0000(3) 0.40912(11) 0.4016(3)
loop_
_geom_bond_atom_site_label_1
_geom_bond_atom_site_label_2
_geom_bond_site_symmetry_1
_geom_bond_site_symmetry_2
O23 Mn2 1_555 1_555
O11 Mn2_2 1_555 1_555
O14 C53 1_555 1_555
C53 O11 1_555 1_555
Mn8 O11 1_555 1_555
O20 Mn2_2 1_555 1_555
Mn1 O2 1_555 1_555
N1 N3 1_555 1_555
N2 Mn1 1_555 1_555
N3 Mn1 1_555 1_555
N4 N2 1_555 1_555
C1 N2 1_555 1_555
C2 N1 1_555 1_555
H1 C2 1_555 1_555
H2 C2 1_555 1_555
C4 C14 1_555 1_555
C5 H3 1_555 1_555
C6 N3 1_555 1_555
C7 N1 1_555 1_555
C9 C6 1_555 1_555
C10 C1 1_555 1_555
C11 C5 1_555 1_555
C13 N4 1_555 1_555
C14 C17 1_555 1_555
C17 H4 1_555 1_555
C18 C1 1_555 1_555
H5 C18 1_555 1_555
H6 C18 1_555 1_555
H7 C18 1_555 1_555
C19 C13 1_555 1_555
H8 C19 1_555 1_555
H9 C19 1_555 1_555
C21 C11 1_555 1_555
H11 C21 1_555 1_555
C23 C6 1_555 1_555
H12 C23 1_555 1_555
H13 C23 1_555 1_555
H14 C23 1_555 1_555
C28 C7 1_555 1_555
H18 C28 1_555 1_555
H19 C28 1_555 1_555
H20 C28 1_555 1_555
C33 C5 1_555 1_555
H29 C33 1_555 1_555
O16 Mn1 1_555 1_555
O19 Mn2_3 1_555 1_555
O21 Mn1 1_555 1_555
Mn2_3 O16 1_555 1_555
N4 C2 1_555 1_555
C7 C9 1_555 1_555
C9 C11 1_555 1_555
C10 C13 1_555 1_555
C14 C33 1_555 1_555
C17 C21 1_555 1_555
O19 C15 1_555 1_555
O21 C15 1_555 1_555
C8 C15 1_555 1_555
C27 C8 1_555 1_555
H17 C27 1_555 1_555
C30 C8 1_555 1_555
H22 C30 1_555 1_555
C34 C16 1_555 1_555
H30 C34 1_555 1_555
C35 C16 1_555 1_555
H31 C35 1_555 1_555
C27 C35 1_555 1_555
C30 C34 1_555 1_555
O20 C63 1_555 1_555
O13 C63 1_555 1_555
C57 C63 1_555 1_555
C70 C57 1_555 1_555
H59 C70 1_555 1_555
C72 C57 1_555 1_555
H63 C72 1_555 1_555
C74 C64 1_555 1_555
H65 C74 1_555 1_555
C75 C64 1_555 1_555
H66 C75 1_555 1_555
Mn8 O13 1_555 1_555
C70 C75 1_555 1_555
C72 C74 1_555 1_555
Mn2_4 O7 1_555 1_555
C3 C12 1_555 1_555
C12 C36 1_555 1_555
N5 N6 1_555 1_555
C20 C22 1_555 1_555
C22 C29 1_555 1_555
N6 C24 1_555 1_555
C24 C20 1_555 1_555
C25 N5 1_555 1_555
C26 N5 1_555 1_555
H15 C26 1_555 1_555
H16 C26 1_555 1_555
C29 H21 1_555 1_555
C31 C24 1_555 1_555
H23 C31 1_555 1_555
H24 C31 1_555 1_555
H25 C31 1_555 1_555
C32 C25 1_555 1_555
H26 C32 1_555 1_555
H27 C32 1_555 1_555
H28 C32 1_555 1_555
Mn3 N6 1_555 1_555
Cl2 Mn3 1_555 1_555
O6 Mn3 1_555 1_555
O7 C3 1_555 1_555
O8 Mn3 1_555 1_555
C36 H32 1_555 1_555
C37 C22 1_555 1_555
H33 C37 1_555 1_555
C38 C12 1_555 1_555
H34 C38 1_555 1_555
O9 C39 1_555 1_555
C39 C40 1_555 1_555
C40 C48 1_555 1_555
N7 C26 1_555 1_555
C41 C42 1_555 1_555
C42 C45 1_555 1_555
N8 Mn3 1_555 1_555
C43 C41 1_555 1_555
C44 N7 1_555 1_555
C45 H35 1_555 1_555
C46 C43 1_555 1_555
H36 C46 1_555 1_555
H37 C46 1_555 1_555
H38 C46 1_555 1_555
C47 C44 1_555 1_555
H39 C47 1_555 1_555
H40 C47 1_555 1_555
H41 C47 1_555 1_555
O10 C39 1_555 1_555
C48 H42 1_555 1_555
C49 C42 1_555 1_555
H43 C49 1_555 1_555
C50 C40 1_555 1_555
H44 C50 1_555 1_555
Mn8 N10 1_555 1_555
N9 N11 1_555 1_555
N10 N12 1_555 1_555
N11 Mn8 1_555 1_555
N12 C52 1_555 1_555
C51 N10 1_555 1_555
C52 N9 1_555 1_555
H45 C52 1_555 1_555
H46 C52 1_555 1_555
C54 H47 1_555 1_555
C55 N11 1_555 1_555
C56 N9 1_555 1_555
C58 C55 1_555 1_555
C59 C51 1_555 1_555
C60 C54 1_555 1_555
C61 N12 1_555 1_555
C62 C53_2 1_555 1_555
C65 C62 1_555 1_555
H48 C65 1_555 1_555
C66 C51 1_555 1_555
H49 C66 1_555 1_555
H50 C66 1_555 1_555
H51 C66 1_555 1_555
C67 C61 1_555 1_555
H52 C67 1_555 1_555
H53 C67 1_555 1_555
C68 C60 1_555 1_555
H55 C68 1_555 1_555
C69 C55 1_555 1_555
H56 C69 1_555 1_555
H57 C69 1_555 1_555
H58 C69 1_555 1_555
C71 C56 1_555 1_555
H60 C71 1_555 1_555
H61 C71 1_555 1_555
H62 C71 1_555 1_555
C73 C54 1_555 1_555
H64 C73 1_555 1_555
O15 Mn3 1_555 1_555
Mn9 O9 1_555 1_555
Mn13_2 O10 1_555 1_555
O18 Mn8 1_555 1_555
C20 C25 1_555 1_555
C29 C38 1_555 1_555
C36 C37 1_555 1_555
N7 N8 1_555 1_555
C41 C44 1_555 1_555
N8 C43 1_555 1_555
C45 C50 1_555 1_555
C48 C49 1_555 1_555
C56 C58 1_555 1_555
C58 C60 1_555 1_555
C59 C61 1_555 1_555
C62 C73 1_555 1_555
C65 C68 1_555 1_555
O16 C4_2 1_555 1_555
O5 C4_2 1_555 1_555
O1 C4_3 1_555 1_555
O5_2 C4_3 1_555 1_555
Mn5 O1 1_555 1_555
Mn13 O1 1_555 1_555
O3 C15_2 1_555 1_555
O4 C15_2 1_555 1_555
C8_2 C15_2 1_555 1_555
C27_2 C8_2 1_555 1_555
H17_2 C27_2 1_555 1_555
C30_2 C8_2 1_555 1_555
H22_2 C30_2 1_555 1_555
C34_2 C16_2 1_555 1_555
H30_2 C34_2 1_555 1_555
C35_2 C16_2 1_555 1_555
H31_2 C35_2 1_555 1_555
Mn5 O4 1_555 1_555
Mn13 O3 1_555 1_555
C27_2 C35_2 1_555 1_555
C30_2 C34_2 1_555 1_555
Mn5 O2_2 1_555 1_555
Mn13 O7_2 1_555 1_555
N1_2 N3_2 1_555 1_555
O2_2 C3_2 1_555 1_555
N2_2 Mn5 1_555 1_555
N3_2 Mn5 1_555 1_555
N4_2 N2_2 1_555 1_555
C1_2 N2_2 1_555 1_555
C2_2 N1_2 1_555 1_555
H1_2 C2_2 1_555 1_555
H2_2 C2_2 1_555 1_555
C3_2 C12_2 1_555 1_555
C4_4 C14_2 1_555 1_555
C5_2 H3_2 1_555 1_555
C6_2 N3_2 1_555 1_555
C7_2 N1_2 1_555 1_555
C9_2 C6_2 1_555 1_555
C10_2 C1_2 1_555 1_555
C11_2 C5_2 1_555 1_555
C12_2 C36_2 1_555 1_555
C13_2 N4_2 1_555 1_555
C14_2 C17_2 1_555 1_555
C17_2 H4_2 1_555 1_555
N5_2 N6_2 1_555 1_555
C18_2 C1_2 1_555 1_555
H5_2 C18_2 1_555 1_555
H6_2 C18_2 1_555 1_555
H7_2 C18_2 1_555 1_555
C19_2 C13_2 1_555 1_555
H8_2 C19_2 1_555 1_555
H9_2 C19_2 1_555 1_555
C20_2 C22_2 1_555 1_555
C21_2 C11_2 1_555 1_555
H11_2 C21_2 1_555 1_555
C22_2 C29_2 1_555 1_555
C23_2 C6_2 1_555 1_555
H12_2 C23_2 1_555 1_555
H13_2 C23_2 1_555 1_555
H14_2 C23_2 1_555 1_555
N6_2 C24_2 1_555 1_555
C24_2 C20_2 1_555 1_555
C25_2 N5_2 1_555 1_555
C26_2 N5_2 1_555 1_555
H15_2 C26_2 1_555 1_555
H16_2 C26_2 1_555 1_555
C28_2 C7_2 1_555 1_555
H18_2 C28_2 1_555 1_555
H19_2 C28_2 1_555 1_555
H20_2 C28_2 1_555 1_555
C29_2 H21_2 1_555 1_555
C31_2 C24_2 1_555 1_555
H23_2 C31_2 1_555 1_555
H24_2 C31_2 1_555 1_555
H25_2 C31_2 1_555 1_555
C32_2 C25_2 1_555 1_555
H26_2 C32_2 1_555 1_555
H27_2 C32_2 1_555 1_555
H28_2 C32_2 1_555 1_555
Mn3_2 N6_2 1_555 1_555
Cl2_2 Mn3_2 1_555 1_555
C33_2 C5_2 1_555 1_555
H29_2 C33_2 1_555 1_555
O6_2 Mn3_2 1_555 1_555
O7_2 C3_2 1_555 1_555
O8_2 Mn3_2 1_555 1_555
C36_2 H32_2 1_555 1_555
C37_2 C22_2 1_555 1_555
H33_2 C37_2 1_555 1_555
C38_2 C12_2 1_555 1_555
H34_2 C38_2 1_555 1_555
C39_2 C40_2 1_555 1_555
C40_2 C48_2 1_555 1_555
N7_2 C26_2 1_555 1_555
C41_2 C42_2 1_555 1_555
C42_2 C45_2 1_555 1_555
N8_2 Mn3_2 1_555 1_555
C43_2 C41_2 1_555 1_555
C44_2 N7_2 1_555 1_555
C45_2 H35_2 1_555 1_555
C46_2 C43_2 1_555 1_555
H36_2 C46_2 1_555 1_555
H37_2 C46_2 1_555 1_555
H38_2 C46_2 1_555 1_555
C47_2 C44_2 1_555 1_555
H39_2 C47_2 1_555 1_555
H40_2 C47_2 1_555 1_555
H41_2 C47_2 1_555 1_555
O23 C39_2 1_555 1_555
C48_2 H42_2 1_555 1_555
C49_2 C42_2 1_555 1_555
H43_2 C49_2 1_555 1_555
C50_2 C40_2 1_555 1_555
H44_2 C50_2 1_555 1_555
Mn9 N10_2 1_555 1_555
N9_2 N11_2 1_555 1_555
N10_2 N12_2 1_555 1_555
N11_2 Mn9 1_555 1_555
N12_2 C52_2 1_555 1_555
C51_2 N10_2 1_555 1_555
C52_2 N9_2 1_555 1_555
H45_2 C52_2 1_555 1_555
H46_2 C52_2 1_555 1_555
C54_2 H47_2 1_555 1_555
C55_2 N11_2 1_555 1_555
C56_2 N9_2 1_555 1_555
C58_2 C55_2 1_555 1_555
C59_2 C51_2 1_555 1_555
C60_2 C54_2 1_555 1_555
C61_2 N12_2 1_555 1_555
C62_2 C53_3 1_555 1_555
C65_2 C62_2 1_555 1_555
H48_2 C65_2 1_555 1_555
C66_2 C51_2 1_555 1_555
H49_2 C66_2 1_555 1_555
H50_2 C66_2 1_555 1_555
H51_2 C66_2 1_555 1_555
C67_2 C61_2 1_555 1_555
H52_2 C67_2 1_555 1_555
H53_2 C67_2 1_555 1_555
C68_2 C60_2 1_555 1_555
H55_2 C68_2 1_555 1_555
C69_2 C55_2 1_555 1_555
H56_2 C69_2 1_555 1_555
H57_2 C69_2 1_555 1_555
H58_2 C69_2 1_555 1_555
C71_2 C56_2 1_555 1_555
H60_2 C71_2 1_555 1_555
H61_2 C71_2 1_555 1_555
H62_2 C71_2 1_555 1_555
C73_2 C54_2 1_555 1_555
H64_2 C73_2 1_555 1_555
O15_2 Mn3_2 1_555 1_555
O17 Mn9 1_555 1_555
O22 Mn9 1_555 1_555
N4_2 C2_2 1_555 1_555
C7_2 C9_2 1_555 1_555
C9_2 C11_2 1_555 1_555
C10_2 C13_2 1_555 1_555
C14_2 C33_2 1_555 1_555
C17_2 C21_2 1_555 1_555
C20_2 C25_2 1_555 1_555
C29_2 C38_2 1_555 1_555
C36_2 C37_2 1_555 1_555
N7_2 N8_2 1_555 1_555
C41_2 C44_2 1_555 1_555
N8_2 C43_2 1_555 1_555
C45_2 C50_2 1_555 1_555
C48_2 C49_2 1_555 1_555
C56_2 C58_2 1_555 1_555
C58_2 C60_2 1_555 1_555
C59_2 C61_2 1_555 1_555
C62_2 C73_2 1_555 1_555
C65_2 C68_2 1_555 1_555
Mn13_2 O17 1_555 1_555
O12 C63_2 1_555 1_555
O22 C63_2 1_555 1_555
C57_2 C63_2 1_555 1_555
C70_2 C57_2 1_555 1_555
H59_2 C70_2 1_555 1_555
C72_2 C57_2 1_555 1_555
H63_2 C72_2 1_555 1_555
C74_2 C64_2 1_555 1_555
H65_2 C74_2 1_555 1_555
C75_2 C64_2 1_555 1_555
H66_2 C75_2 1_555 1_555
Mn13_2 O12 1_555 1_555
C70_2 C75_2 1_555 1_555
C72_2 C74_2 1_555 1_555
O14_2 C53_4 1_555 1_555
C53_4 O17 1_555 1_555

#END
