
###############################################################################
#
# This file contains modified crystal structure data generated from the
# MOF subset of the Cambridge Structural Database (CSD) v543 
# hosted by the Cambridge Crystallographic Data Centre (CCDC).
#
# This work is licensed under the Creative Commons
# Attribution-NonCommercial-ShareAlike 4.0 International License.
# To view a copy of this license, visit
# http://creativecommons.org/licenses/by-nc-sa/4.0/
# or send a letter to
# Creative Commons, PO Box 1866, Mountain View, CA 94042, USA.
#
# CIF created using the CSD Python API on 29 September 2022
# The structure has been converted into the P1 space group
# The structure has a 3D framework
# The original CSD entry WOZGUP is in the monoclinic crystal system
# The framework has been calculated to contain at least 10.0% void space
# The void calculation uses a probe of radius 1.32A, grid spacing 0.4
# The framework is charged, counterions have been retained in the structure
#
###############################################################################

data_WOZGUP
_chemical_formula_moiety         '(C216 H192 Co6 Mo48 N72 O160 P6 4+)n'
_symmetry_cell_setting           triclinic
_symmetry_space_group_name_H-M   'P 1'
_symmetry_Int_Tables_number      1
_space_group_name_Hall           'P 1'
loop_
_symmetry_equiv_pos_site_id
_symmetry_equiv_pos_as_xyz
1 x,y,z
_cell_length_a                   20.429(2)
_cell_length_b                   22.744(2)
_cell_length_c                   21.792(2)
_cell_angle_alpha                90
_cell_angle_beta                 108.783(2)
_cell_angle_gamma                90
_cell_volume                     9586.14
loop_
_atom_site_label
_atom_site_type_symbol
_atom_site_fract_x
_atom_site_fract_y
_atom_site_fract_z
Mo7 Mo 0.09895(5) 0.05654(4) 0.34319(5)
Mo10 Mo 0.08849(6) 0.04424(4) 0.18401(5)
O23 O 0.1692(4) 0.0045(3) 0.2241(4)
O28 O 0.0072(4) 0.0712(3) 0.3250(3)
O29 O 0.1155(4) 0.0960(3) 0.1440(4)
O31 O 0.1820(4) 0.0075(3) 0.3480(3)
O35 O 0.1361(4) 0.1083(3) 0.3977(4)
O38 O 0.1081(4) 0.0891(3) 0.2686(3)
P1 P 0.0000 0.94023(17) 0.2500
O21 O 0.0074(3) 0.9021(3) 0.3097(3)
O22 O 0.0632(4) 0.9788(3) 0.2625(3)
Mo8 Mo 0.08154(5) 0.83637(4) 0.17627(5)
Mo9 Mo 0.18329(5) 0.94472(4) 0.29528(5)
Mo11 Mo 0.03151(6) 0.93544(4) 0.42010(5)
Mo12 Mo 0.09240(5) 0.82340(4) 0.34941(5)
O24 O 0.0456(4) 0.8765(3) 0.0995(4)
O25 O 0.0892(4) 0.8720(3) 0.4238(3)
O26 O 0.2684(4) 0.9332(3) 0.3111(4)
O27 O 0.0838(4) 0.9904(3) 0.3996(3)
O30 O 0.1433(4) 0.8922(3) 0.2190(3)
O32 O 0.1499(4) 0.7722(3) 0.3874(4)
O33 O 0.0089(4) 0.7928(3) 0.3490(3)
O34 O 0.0418(5) 0.9481(3) 0.4978(4)
O36 O 0.0481(4) 0.9885(3) 0.1239(3)
O37 O 0.1307(4) 0.7864(3) 0.1560(4)
O39 O 0.1561(4) 0.8891(3) 0.3421(3)
O40 O 0.0827(4) 0.8099(3) 0.2632(3)
Mo1 Mo 0.90105(5) 0.05654(4) 0.15681(5)
Mo4 Mo 0.91151(6) 0.04424(4) 0.31599(5)
O2 O 0.8308(4) 0.0045(3) 0.2759(4)
O7 O 0.9928(4) 0.0712(3) 0.1750(3)
O8 O 0.8845(4) 0.0960(3) 0.3560(4)
O10 O 0.8180(4) 0.0075(3) 0.1520(3)
O15 O 0.8639(4) 0.1083(3) 0.1023(4)
O18 O 0.8919(4) 0.0891(3) 0.2314(3)
Mo2 Mo 0.91846(5) 0.83637(4) 0.32373(5)
Mo3 Mo 0.81671(5) 0.94472(4) 0.20472(5)
Mo5 Mo 0.96849(6) 0.93544(4) 0.07990(5)
Mo6 Mo 0.90760(5) 0.82340(4) 0.15059(5)
P1_2 P 1.0000 0.94023(17) 0.2500
O1 O 0.9926(3) 0.9021(3) 0.1903(3)
O3 O 0.9544(4) 0.8765(3) 0.4005(4)
O4 O 0.9108(4) 0.8720(3) 0.0762(3)
O5 O 0.7316(4) 0.9332(3) 0.1889(4)
O6 O 0.9162(4) 0.9904(3) 0.1004(3)
O9 O 0.8567(4) 0.8922(3) 0.2810(3)
O11 O 0.8501(4) 0.7722(3) 0.1126(4)
O12 O 0.9911(4) 0.7928(3) 0.1510(3)
O13 O 0.9368(4) 0.9788(3) 0.2375(3)
O14 O 0.9582(5) 0.9481(3) 0.0022(4)
O16 O 0.9519(4) 0.9885(3) 0.3761(3)
O17 O 0.8693(4) 0.7864(3) 0.3440(4)
O19 O 0.8439(4) 0.8891(3) 0.1579(3)
O20 O 0.9173(4) 0.8099(3) 0.2368(3)
Mo1_2 Mo 0.40105(5) 0.55654(4) 0.15681(5)
Mo2_2 Mo 0.41846(5) 0.33637(4) 0.32373(5)
Mo3_2 Mo 0.31671(5) 0.44472(4) 0.20472(5)
Mo4_2 Mo 0.41151(6) 0.54424(4) 0.31599(5)
Mo5_2 Mo 0.46849(6) 0.43544(4) 0.07990(5)
Mo6_2 Mo 0.40760(5) 0.32340(4) 0.15059(5)
P1_3 P 0.5000 0.44023(17) 0.2500
O1_2 O 0.4926(3) 0.4021(3) 0.1903(3)
O2_2 O 0.3308(4) 0.5045(3) 0.2759(4)
O3_2 O 0.4544(4) 0.3765(3) 0.4005(4)
O4_2 O 0.4108(4) 0.3720(3) 0.0762(3)
O5_2 O 0.2316(4) 0.4332(3) 0.1889(4)
O6_2 O 0.4162(4) 0.4904(3) 0.1004(3)
O7_2 O 0.4928(4) 0.5712(3) 0.1750(3)
O8_2 O 0.3845(4) 0.5960(3) 0.3560(4)
O9_2 O 0.3567(4) 0.3922(3) 0.2810(3)
O10_2 O 0.3180(4) 0.5075(3) 0.1520(3)
O11_2 O 0.3501(4) 0.2722(3) 0.1126(4)
O12_2 O 0.4911(4) 0.2928(3) 0.1510(3)
O13_2 O 0.4368(4) 0.4788(3) 0.2375(3)
O14_2 O 0.4582(5) 0.4481(3) 0.0022(4)
O15_2 O 0.3639(4) 0.6083(3) 0.1023(4)
O16_2 O 0.4519(4) 0.4885(3) 0.3761(3)
O17_2 O 0.3693(4) 0.2864(3) 0.3440(4)
O18_2 O 0.3919(4) 0.5891(3) 0.2314(3)
O19_2 O 0.3439(4) 0.3891(3) 0.1579(3)
O20_2 O 0.4173(4) 0.3099(3) 0.2368(3)
O21_2 O 0.5074(3) 0.4021(3) 0.3097(3)
O22_2 O 0.5632(4) 0.4788(3) 0.2625(3)
Mo7_2 Mo 0.59895(5) 0.55654(4) 0.34319(5)
Mo8_2 Mo 0.58154(5) 0.33637(4) 0.17627(5)
Mo9_2 Mo 0.68329(5) 0.44472(4) 0.29528(5)
Mo10_2 Mo 0.58849(6) 0.54424(4) 0.18401(5)
Mo11_2 Mo 0.53151(6) 0.43544(4) 0.42010(5)
Mo12_2 Mo 0.59240(5) 0.32340(4) 0.34941(5)
O23_2 O 0.6692(4) 0.5045(3) 0.2241(4)
O24_2 O 0.5456(4) 0.3765(3) 0.0995(4)
O25_2 O 0.5892(4) 0.3720(3) 0.4238(3)
O26_2 O 0.7684(4) 0.4332(3) 0.3111(4)
O27_2 O 0.5838(4) 0.4904(3) 0.3996(3)
O28_2 O 0.5072(4) 0.5712(3) 0.3250(3)
O29_2 O 0.6155(4) 0.5960(3) 0.1440(4)
O30_2 O 0.6433(4) 0.3922(3) 0.2190(3)
O31_2 O 0.6820(4) 0.5075(3) 0.3480(3)
O32_2 O 0.6499(4) 0.2722(3) 0.3874(4)
O33_2 O 0.5089(4) 0.2928(3) 0.3490(3)
O34_2 O 0.5418(5) 0.4481(3) 0.4978(4)
O35_2 O 0.6361(4) 0.6083(3) 0.3977(4)
O36_2 O 0.5481(4) 0.4885(3) 0.1239(3)
O37_2 O 0.6307(4) 0.2864(3) 0.1560(4)
O38_2 O 0.6081(4) 0.5891(3) 0.2686(3)
O39_2 O 0.6561(4) 0.3891(3) 0.3421(3)
O40_2 O 0.5827(4) 0.3099(3) 0.2632(3)
Mo2_3 Mo 0.08154(5) 0.16363(4) 0.67627(5)
Mo3_3 Mo 0.18329(5) 0.05528(4) 0.79528(5)
Mo5_3 Mo 0.03151(6) 0.06456(4) 0.92010(5)
Mo6_3 Mo 0.09240(5) 0.17660(4) 0.84941(5)
P1_4 P -0.0000 0.05977(17) 0.7500
O1_3 O 0.0074(3) 0.0979(3) 0.8097(3)
O3_3 O 0.0456(4) 0.1235(3) 0.5995(4)
O4_3 O 0.0892(4) 0.1280(3) 0.9238(3)
O5_3 O 0.2684(4) 0.0668(3) 0.8111(4)
O6_3 O 0.0838(4) 0.0096(3) 0.8996(3)
O9_3 O 0.1433(4) 0.1078(3) 0.7190(3)
O11_3 O 0.1499(4) 0.2278(3) 0.8874(4)
O12_3 O 0.0089(4) 0.2072(3) 0.8490(3)
O13_3 O 0.0632(4) 0.0212(3) 0.7625(3)
O14_3 O 0.0418(5) 0.0519(3) 0.9978(4)
O16_3 O 0.0481(4) 0.0115(3) 0.6239(3)
O17_3 O 0.1307(4) 0.2136(3) 0.6560(4)
O19_3 O 0.1561(4) 0.1109(3) 0.8421(3)
O20_3 O 0.0827(4) 0.1901(3) 0.7632(3)
Mo1_3 Mo 0.09895(5) 0.94346(4) 0.84319(5)
Mo4_3 Mo 0.08849(6) 0.95576(4) 0.68401(5)
O2_3 O 0.1692(4) 0.9955(3) 0.7241(4)
O7_3 O 0.0072(4) 0.9288(3) 0.8250(3)
O8_3 O 0.1155(4) 0.9040(3) 0.6440(4)
O10_3 O 0.1820(4) 0.9925(3) 0.8480(3)
O15_3 O 0.1361(4) 0.8917(3) 0.8977(4)
O18_3 O 0.1081(4) 0.9109(3) 0.7686(3)
P1_5 P 1.0000 0.05977(17) 0.7500
O21_3 O 0.9926(3) 0.0979(3) 0.6903(3)
O22_3 O 0.9368(4) 0.0212(3) 0.7375(3)
Mo8_3 Mo 0.91846(5) 0.16363(4) 0.82373(5)
Mo9_3 Mo 0.81671(5) 0.05528(4) 0.70472(5)
Mo11_3 Mo 0.96849(6) 0.06456(4) 0.57990(5)
Mo12_3 Mo 0.90760(5) 0.17660(4) 0.65059(5)
O24_3 O 0.9544(4) 0.1235(3) 0.9005(4)
O25_3 O 0.9108(4) 0.1280(3) 0.5762(3)
O26_3 O 0.7316(4) 0.0668(3) 0.6889(4)
O27_3 O 0.9162(4) 0.0096(3) 0.6004(3)
O30_3 O 0.8567(4) 0.1078(3) 0.7810(3)
O32_3 O 0.8501(4) 0.2278(3) 0.6126(4)
O33_3 O 0.9911(4) 0.2072(3) 0.6510(3)
O34_3 O 0.9582(5) 0.0519(3) 0.5022(4)
O36_3 O 0.9519(4) 0.0115(3) 0.8761(3)
O37_3 O 0.8693(4) 0.2136(3) 0.8440(4)
O39_3 O 0.8439(4) 0.1109(3) 0.6579(3)
O40_3 O 0.9173(4) 0.1901(3) 0.7368(3)
Mo7_3 Mo 0.90105(5) 0.94346(4) 0.65681(5)
Mo10_3 Mo 0.91151(6) 0.95576(4) 0.81599(5)
O23_3 O 0.8308(4) 0.9955(3) 0.7759(4)
O28_3 O 0.9928(4) 0.9288(3) 0.6750(3)
O29_3 O 0.8845(4) 0.9040(3) 0.8560(4)
O31_3 O 0.8180(4) 0.9925(3) 0.6520(3)
O35_3 O 0.8639(4) 0.8917(3) 0.6023(4)
O38_3 O 0.8919(4) 0.9109(3) 0.7314(3)
Mo1_4 Mo 0.59895(5) 0.44346(4) 0.84319(5)
Mo2_4 Mo 0.58154(5) 0.66363(4) 0.67627(5)
Mo3_4 Mo 0.68329(5) 0.55528(4) 0.79528(5)
Mo4_4 Mo 0.58849(6) 0.45576(4) 0.68401(5)
Mo5_4 Mo 0.53151(6) 0.56456(4) 0.92010(5)
Mo6_4 Mo 0.59240(5) 0.67660(4) 0.84941(5)
P1_6 P 0.5000 0.55977(17) 0.7500
O1_4 O 0.5074(3) 0.5979(3) 0.8097(3)
O2_4 O 0.6692(4) 0.4955(3) 0.7241(4)
O3_4 O 0.5456(4) 0.6235(3) 0.5995(4)
O4_4 O 0.5892(4) 0.6280(3) 0.9238(3)
O5_4 O 0.7684(4) 0.5668(3) 0.8111(4)
O6_4 O 0.5838(4) 0.5096(3) 0.8996(3)
O7_4 O 0.5072(4) 0.4288(3) 0.8250(3)
O8_4 O 0.6155(4) 0.4040(3) 0.6440(4)
O9_4 O 0.6433(4) 0.6078(3) 0.7190(3)
O10_4 O 0.6820(4) 0.4925(3) 0.8480(3)
O11_4 O 0.6499(4) 0.7278(3) 0.8874(4)
O12_4 O 0.5089(4) 0.7072(3) 0.8490(3)
O13_4 O 0.5632(4) 0.5212(3) 0.7625(3)
O14_4 O 0.5418(5) 0.5519(3) 0.9978(4)
O15_4 O 0.6361(4) 0.3917(3) 0.8977(4)
O16_4 O 0.5481(4) 0.5115(3) 0.6239(3)
O17_4 O 0.6307(4) 0.7136(3) 0.6560(4)
O18_4 O 0.6081(4) 0.4109(3) 0.7686(3)
O19_4 O 0.6561(4) 0.6109(3) 0.8421(3)
O20_4 O 0.5827(4) 0.6901(3) 0.7632(3)
O21_4 O 0.4926(3) 0.5979(3) 0.6903(3)
O22_4 O 0.4368(4) 0.5212(3) 0.7375(3)
Mo7_4 Mo 0.40105(5) 0.44346(4) 0.65681(5)
Mo8_4 Mo 0.41846(5) 0.66363(4) 0.82373(5)
Mo9_4 Mo 0.31671(5) 0.55528(4) 0.70472(5)
Mo10_4 Mo 0.41151(6) 0.45576(4) 0.81599(5)
Mo11_4 Mo 0.46849(6) 0.56456(4) 0.57990(5)
Mo12_4 Mo 0.40760(5) 0.67660(4) 0.65059(5)
O23_4 O 0.3308(4) 0.4955(3) 0.7759(4)
O24_4 O 0.4544(4) 0.6235(3) 0.9005(4)
O25_4 O 0.4108(4) 0.6280(3) 0.5762(3)
O26_4 O 0.2316(4) 0.5668(3) 0.6889(4)
O27_4 O 0.4162(4) 0.5096(3) 0.6004(3)
O28_4 O 0.4928(4) 0.4288(3) 0.6750(3)
O29_4 O 0.3845(4) 0.4040(3) 0.8560(4)
O30_4 O 0.3567(4) 0.6078(3) 0.7810(3)
O31_4 O 0.3180(4) 0.4925(3) 0.6520(3)
O32_4 O 0.3501(4) 0.7278(3) 0.6126(4)
O33_4 O 0.4911(4) 0.7072(3) 0.6510(3)
O34_4 O 0.4582(5) 0.5519(3) 0.5022(4)
O35_4 O 0.3639(4) 0.3917(3) 0.6023(4)
O36_4 O 0.4519(4) 0.5115(3) 0.8761(3)
O37_4 O 0.3693(4) 0.7136(3) 0.8440(4)
O38_4 O 0.3919(4) 0.4109(3) 0.7314(3)
O39_4 O 0.3439(4) 0.6109(3) 0.6579(3)
O40_4 O 0.4173(4) 0.6901(3) 0.7368(3)
C39 C 0.0313(6) 0.2084(6) 0.0347(7)
H35 H 0.0640 0.1871 0.0716
C40 C 0.0682(5) 0.2624(4) 0.0189(5)
C41 C 0.1374(5) 0.2723(5) 0.0544(5)
H37 H 0.1601 0.2479 0.0903
C42 C 0.1734(5) 0.3181(5) 0.0370(5)
H38 H 0.2206 0.3248 0.0612
H41 H 0.3142 0.6201 0.0010
C53 C 0.2199(7) 0.4399(5) 0.0101(5)
H47 H 0.2207 0.4372 0.0538
H48 H 0.2867 0.5089 0.0239
Co4 Co 0.2500 0.7500 0.0000
N10 N 0.2278(4) 0.3113(3) 0.5649(4)
C28 C 0.2515(4) 0.3129(4) 0.6298(4)
H25 H 0.2817 0.2851 0.6573
N11 N 0.2251(4) 0.3607(4) 0.6491(4)
N12 N 0.1851(5) 0.3886(3) 0.5961(5)
C29 C 0.1868(5) 0.3581(4) 0.5441(4)
H26 H 0.1630 0.3678 0.5001
C30 C 0.2311(8) 0.3846(7) 0.7124(8)
H27 H 0.2512 0.4246 0.7165
H28 H 0.2626 0.3596 0.7465
C31 C 0.1614(5) 0.3872(5) 0.7220(5)
C32 C 0.1358(6) 0.3360(5) 0.7404(6)
H29 H 0.1618 0.3006 0.7460
C33 C 0.0722(6) 0.3365(4) 0.7508(6)
H30 H 0.0547 0.3015 0.7634
C34 C 0.0343(6) 0.3882(5) 0.7427(6)
C35 C 0.0599(6) 0.4394(4) 0.7242(6)
H31 H 0.0339 0.4747 0.7187
C36 C 0.1234(6) 0.4389(4) 0.7139(6)
H32 H 0.1410 0.4739 0.7012
H36 H 0.0186 0.1816 0.9969
C43 C 0.1402(5) 0.3539(4) 0.9843(5)
C44 C 0.0710(5) 0.3440(4) 0.9488(5)
H39 H 0.0483 0.3684 0.9129
C45 C 0.0350(5) 0.2982(4) 0.9662(5)
N16 N 0.2501(4) 0.6775(3) 0.9353(4)
C46 C 0.2860(4) 0.6274(4) 0.9576(4)
N17 N 0.2745(4) 0.5896(3) 0.9070(4)
N18 N 0.2316(5) 0.6163(4) 0.8534(4)
C47 C 0.2165(4) 0.6706(4) 0.8709(4)
H42 H 0.1875 0.6989 0.8430
C48 C 0.3021(7) 0.5320(6) 0.9091(7)
H43 H 0.3494 0.5311 0.9406
H44 H 0.3051 0.5218 0.8659
C49 C 0.2578(6) 0.4865(5) 0.9285(6)
C50 C 0.2175(7) 0.4479(5) 0.8823(6)
H45 H 0.2167 0.4507 0.8386
C51 C 0.1783(6) 0.4054(5) 0.9001(6)
H46 H 0.1507 0.3790 0.8685
C52 C 0.1795(6) 0.4014(5) 0.9639(6)
C54 C 0.2590(6) 0.4825(5) 0.9923(6)
Co2 Co 0.2500 0.2500 0.5000
Co4_2 Co 0.2500 0.7500 1.0000
Co1 Co 0.7500 0.2500 0.0000
H9 H 0.6100 0.2783 0.0358
H12 H 0.4814 0.3184 0.0031
C16 C 0.3598(5) 0.1461(4) 0.0157(5)
C17 C 0.4290(5) 0.1560(4) 0.0512(5)
H15 H 0.4517 0.1316 0.0871
C18 C 0.4650(5) 0.2018(4) 0.0338(5)
H16 H 0.5122 0.2085 0.0580
C22 C 0.2422(6) 0.0135(5) 0.0715(6)
C23 C 0.2825(7) 0.0521(5) 0.1177(6)
H21 H 0.2833 0.0493 0.1614
C24 C 0.3217(6) 0.0946(5) 0.0999(6)
H22 H 0.3493 0.1210 0.1315
C25 C 0.3205(6) 0.0986(5) 0.0361(6)
C27 C 0.2410(6) 0.0175(5) 0.0077(6)
N13 N 0.8629(4) 0.2403(3) 0.0454(4)
C37 C 0.9044(4) 0.2269(3) 0.0099(4)
N14 N 0.9699(4) 0.2222(3) 0.0509(4)
N15 N 0.9690(4) 0.2326(3) 0.1118(4)
C38 C 0.9028(4) 0.2438(4) 0.1084(4)
H34 H 0.8871 0.2526 0.1439
N19 N 0.7278(4) 0.1887(3) 0.0649(4)
N20 N 0.7499(4) 0.3225(3) 0.0647(4)
Co1_2 Co 0.7500 0.2500 1.0000
N1 N 0.7722(4) 0.3113(3) 0.9351(4)
C1 C 0.7485(4) 0.3129(4) 0.8702(4)
H1 H 0.7183 0.2851 0.8427
N2 N 0.7749(4) 0.3607(4) 0.8509(4)
N3 N 0.8149(5) 0.3886(3) 0.9039(5)
C2 C 0.8132(5) 0.3581(4) 0.9559(4)
H2 H 0.8370 0.3678 0.9999
C3 C 0.7689(8) 0.3846(7) 0.7876(8)
H3 H 0.7488 0.4246 0.7835
H4 H 0.7374 0.3596 0.7535
C4 C 0.8386(5) 0.3872(5) 0.7780(5)
C5 C 0.8642(6) 0.3360(5) 0.7596(6)
H5 H 0.8382 0.3006 0.7540
C6 C 0.9278(6) 0.3365(4) 0.7492(6)
H6 H 0.9453 0.3015 0.7366
C7 C 0.9657(6) 0.3882(5) 0.7573(6)
C8 C 0.9401(6) 0.4394(4) 0.7758(6)
H7 H 0.9661 0.4747 0.7813
C9 C 0.8766(6) 0.4389(4) 0.7861(6)
H8 H 0.8590 0.4739 0.7988
N4 N 0.6371(4) 0.2597(3) 0.9546(4)
C10 C 0.5956(4) 0.2731(3) 0.9901(4)
N5 N 0.5301(4) 0.2778(3) 0.9491(4)
N6 N 0.5310(4) 0.2674(3) 0.8882(4)
C11 C 0.5972(4) 0.2562(4) 0.8916(4)
H10 H 0.6129 0.2474 0.8561
C12 C 0.4687(6) 0.2916(6) 0.9653(7)
H11 H 0.4360 0.3129 0.9284
C13 C 0.4318(5) 0.2376(4) 0.9811(5)
C14 C 0.3626(5) 0.2277(5) 0.9456(5)
H13 H 0.3399 0.2521 0.9097
C15 C 0.3266(5) 0.1819(5) 0.9630(5)
H14 H 0.2794 0.1752 0.9388
C26 C 0.2801(7) 0.0601(5) 0.9899(5)
H23 H 0.2793 0.0628 0.9462
H33 H 0.8900 0.2217 0.9642
H40 H 0.9878 0.2915 0.9420
N21 N 0.7501(4) 0.1775(3) 0.9353(4)
N7 N 0.2499(4) 0.8225(3) 0.0647(4)
C19 C 0.2140(4) 0.8726(4) 0.0424(4)
N8 N 0.2255(4) 0.9104(3) 0.0930(4)
N9 N 0.2684(5) 0.8837(4) 0.1466(4)
C20 C 0.2835(4) 0.8294(4) 0.1291(4)
H18 H 0.3125 0.8011 0.1570
C21 C 0.1979(7) 0.9680(6) 0.0909(7)
H19 H 0.1506 0.9689 0.0594
H20 H 0.1949 0.9782 0.1341
H17 H 0.1858 0.8799 0.9990
H24 H 0.2133 0.9911 0.9761
N4_2 N 0.3629(4) 0.2597(3) 0.5454(4)
C10_2 C 0.4044(4) 0.2731(3) 0.5099(4)
H9_2 H 0.3900 0.2783 0.4642
N5_2 N 0.4699(4) 0.2778(3) 0.5509(4)
N6_2 N 0.4690(4) 0.2674(3) 0.6118(4)
C11_2 C 0.4028(4) 0.2562(4) 0.6084(4)
H10_2 H 0.3871 0.2474 0.6439
C12_2 C 0.5313(6) 0.2916(6) 0.5347(7)
H11_2 H 0.5640 0.3129 0.5716
H12_2 H 0.5186 0.3184 0.4969
C13_2 C 0.5682(5) 0.2376(4) 0.5189(5)
C14_2 C 0.6374(5) 0.2277(5) 0.5544(5)
H13_2 H 0.6601 0.2521 0.5903
C15_2 C 0.6734(5) 0.1819(5) 0.5370(5)
H14_2 H 0.7206 0.1752 0.5612
C16_2 C 0.6402(5) 0.1461(4) 0.4843(5)
C17_2 C 0.5710(5) 0.1560(4) 0.4488(5)
H15_2 H 0.5483 0.1316 0.4129
C18_2 C 0.5350(5) 0.2018(4) 0.4662(5)
H16_2 H 0.4878 0.2085 0.4420
C22_2 C 0.7578(6) 0.0135(5) 0.4285(6)
C23_2 C 0.7175(7) 0.0521(5) 0.3823(6)
H21_2 H 0.7167 0.0493 0.3386
C24_2 C 0.6783(6) 0.0946(5) 0.4001(6)
H22_2 H 0.6507 0.1210 0.3685
C25_2 C 0.6795(6) 0.0986(5) 0.4639(6)
C26_2 C 0.7199(7) 0.0601(5) 0.5101(5)
H23_2 H 0.7207 0.0628 0.5538
C27_2 C 0.7590(6) 0.0175(5) 0.4923(6)
N13_2 N 0.1371(4) 0.2403(3) 0.4546(4)
C37_2 C 0.0956(4) 0.2269(3) 0.4901(4)
H33_2 H 0.1100 0.2217 0.5358
N14_2 N 0.0301(4) 0.2222(3) 0.4491(4)
N15_2 N 0.0310(4) 0.2326(3) 0.3882(4)
C38_2 C 0.0972(4) 0.2438(4) 0.3916(4)
H34_2 H 0.1129 0.2526 0.3561
H40_2 H 0.0122 0.2915 0.5580
N19_2 N 0.2722(4) 0.1887(3) 0.4351(4)
N20_2 N 0.2501(4) 0.3225(3) 0.4353(4)
N21_2 N 0.2499(4) 0.1775(3) 0.5647(4)
N7_2 N 0.7501(4) 0.8225(3) 0.4353(4)
C19_2 C 0.7860(4) 0.8726(4) 0.4576(4)
H17_2 H 0.8142 0.8799 0.5010
N8_2 N 0.7745(4) 0.9104(3) 0.4070(4)
N9_2 N 0.7316(5) 0.8837(4) 0.3534(4)
C20_2 C 0.7165(4) 0.8294(4) 0.3709(4)
H18_2 H 0.6875 0.8011 0.3430
C21_2 C 0.8021(7) 0.9680(6) 0.4091(7)
H19_2 H 0.8494 0.9689 0.4406
H20_2 H 0.8051 0.9782 0.3659
H24_2 H 0.7867 0.9911 0.5239
Co3 Co 0.7500 0.7500 0.5000
C39_2 C 0.9687(6) 0.2084(6) 0.4653(7)
H35_2 H 0.9360 0.1871 0.4284
H36_2 H 0.9814 0.1816 0.5031
C40_2 C 0.9318(5) 0.2624(4) 0.4811(5)
C41_2 C 0.8626(5) 0.2723(5) 0.4456(5)
H37_2 H 0.8399 0.2479 0.4097
C42_2 C 0.8266(5) 0.3181(5) 0.4630(5)
H38_2 H 0.7794 0.3248 0.4388
C43_2 C 0.8598(5) 0.3539(4) 0.5157(5)
C44_2 C 0.9290(5) 0.3440(4) 0.5512(5)
H39_2 H 0.9517 0.3684 0.5871
C45_2 C 0.9650(5) 0.2982(4) 0.5338(5)
N16_2 N 0.7499(4) 0.6775(3) 0.5647(4)
C46_2 C 0.7140(4) 0.6274(4) 0.5424(4)
H41_2 H 0.6858 0.6201 0.4990
N17_2 N 0.7255(4) 0.5896(3) 0.5930(4)
N18_2 N 0.7684(5) 0.6163(4) 0.6466(4)
C47_2 C 0.7835(4) 0.6706(4) 0.6291(4)
H42_2 H 0.8125 0.6989 0.6570
C48_2 C 0.6979(7) 0.5320(6) 0.5909(7)
H43_2 H 0.6506 0.5311 0.5594
H44_2 H 0.6949 0.5218 0.6341
C49_2 C 0.7422(6) 0.4865(5) 0.5715(6)
C50_2 C 0.7825(7) 0.4479(5) 0.6177(6)
H45_2 H 0.7833 0.4507 0.6614
C51_2 C 0.8217(6) 0.4054(5) 0.5999(6)
H46_2 H 0.8493 0.3790 0.6315
C52_2 C 0.8205(6) 0.4014(5) 0.5361(6)
C53_2 C 0.7801(7) 0.4399(5) 0.4899(5)
H47_2 H 0.7793 0.4372 0.4462
C54_2 C 0.7410(6) 0.4825(5) 0.5077(6)
H48_2 H 0.7133 0.5089 0.4761
H41_3 H 0.8142 0.1201 0.0010
H48_3 H 0.7867 0.0089 0.0239
C46_3 C 0.7860(4) 0.1274(4) 0.9576(4)
N17_3 N 0.7745(4) 0.0896(3) 0.9070(4)
N18_3 N 0.7316(5) 0.1163(4) 0.8534(4)
C47_3 C 0.7165(4) 0.1706(4) 0.8709(4)
H42_3 H 0.6875 0.1989 0.8430
C48_3 C 0.8021(7) 0.0320(6) 0.9091(7)
H43_3 H 0.8494 0.0311 0.9406
H44_3 H 0.8051 0.0218 0.8659
H9_3 H 0.1100 0.7783 0.0358
H16_3 H 0.0122 0.7085 0.0580
N13_3 N 0.3629(4) 0.7403(3) 0.0454(4)
C37_3 C 0.4044(4) 0.7269(3) 0.0099(4)
N14_3 N 0.4699(4) 0.7222(3) 0.0509(4)
N15_3 N 0.4690(4) 0.7326(3) 0.1118(4)
C38_3 C 0.4028(4) 0.7438(4) 0.1084(4)
H34_3 H 0.3871 0.7526 0.1439
C39_3 C 0.5313(6) 0.7084(6) 0.0347(7)
H35_3 H 0.5640 0.6871 0.0716
C40_3 C 0.5682(5) 0.7624(4) 0.0189(5)
C41_3 C 0.6374(5) 0.7723(5) 0.0544(5)
H37_3 H 0.6601 0.7479 0.0903
C42_3 C 0.6734(5) 0.8181(5) 0.0370(5)
H38_3 H 0.7206 0.8248 0.0612
C53_3 C 0.7199(7) 0.9399(5) 0.0101(5)
H47_3 H 0.7207 0.9372 0.0538
N19_3 N 0.2278(4) 0.6887(3) 0.0649(4)
N1_2 N 0.2722(4) 0.8113(3) 0.9351(4)
C1_2 C 0.2485(4) 0.8129(4) 0.8702(4)
H1_2 H 0.2183 0.7851 0.8427
N2_2 N 0.2749(4) 0.8607(4) 0.8509(4)
N3_2 N 0.3149(5) 0.8886(3) 0.9039(5)
C2_2 C 0.3132(5) 0.8581(4) 0.9559(4)
H2_2 H 0.3370 0.8678 0.9999
C3_2 C 0.2689(8) 0.8846(7) 0.7876(8)
H3_2 H 0.2488 0.9246 0.7835
H4_2 H 0.2374 0.8596 0.7535
C4_2 C 0.3386(5) 0.8872(5) 0.7780(5)
C5_2 C 0.3642(6) 0.8360(5) 0.7596(6)
H5_2 H 0.3382 0.8006 0.7540
C6_2 C 0.4278(6) 0.8365(4) 0.7492(6)
H6_2 H 0.4453 0.8015 0.7366
C7_2 C 0.4657(6) 0.8882(5) 0.7573(6)
C8_2 C 0.4401(6) 0.9394(4) 0.7758(6)
H7_2 H 0.4661 0.9747 0.7813
C9_2 C 0.3766(6) 0.9389(4) 0.7861(6)
H8_2 H 0.3590 0.9739 0.7988
N4_3 N 0.1371(4) 0.7597(3) 0.9546(4)
C10_3 C 0.0956(4) 0.7731(3) 0.9901(4)
N5_3 N 0.0301(4) 0.7778(3) 0.9491(4)
N6_3 N 0.0310(4) 0.7674(3) 0.8882(4)
C11_3 C 0.0972(4) 0.7562(4) 0.8916(4)
H10_3 H 0.1129 0.7474 0.8561
N10_2 N 0.7278(4) 0.8113(3) 0.5649(4)
C28_2 C 0.7515(4) 0.8129(4) 0.6298(4)
H25_2 H 0.7817 0.7851 0.6573
N11_2 N 0.7251(4) 0.8607(4) 0.6491(4)
N12_2 N 0.6851(5) 0.8886(3) 0.5961(5)
C29_2 C 0.6868(5) 0.8581(4) 0.5441(4)
H26_2 H 0.6630 0.8678 0.5001
C30_2 C 0.7311(8) 0.8846(7) 0.7124(8)
H27_2 H 0.7512 0.9246 0.7165
H28_2 H 0.7626 0.8596 0.7465
C31_2 C 0.6614(5) 0.8872(5) 0.7220(5)
C32_2 C 0.6358(6) 0.8360(5) 0.7404(6)
H29_2 H 0.6618 0.8006 0.7460
C33_2 C 0.5722(6) 0.8365(4) 0.7508(6)
H30_2 H 0.5547 0.8015 0.7634
C34_2 C 0.5343(6) 0.8882(5) 0.7427(6)
C35_2 C 0.5599(6) 0.9394(4) 0.7242(6)
H31_2 H 0.5339 0.9747 0.7187
C36_2 C 0.6234(6) 0.9389(4) 0.7139(6)
H32_2 H 0.6410 0.9739 0.7012
H33_3 H 0.3900 0.7217 0.9642
H36_3 H 0.5186 0.6816 0.9969
C43_3 C 0.6402(5) 0.8539(4) 0.9843(5)
C44_3 C 0.5710(5) 0.8440(4) 0.9488(5)
H39_3 H 0.5483 0.8684 0.9129
C45_3 C 0.5350(5) 0.7982(4) 0.9662(5)
H40_3 H 0.4878 0.7915 0.9420
C49_3 C 0.7578(6) 0.9865(5) 0.9285(6)
C50_3 C 0.7175(7) 0.9479(5) 0.8823(6)
H45_3 H 0.7167 0.9507 0.8386
C51_3 C 0.6783(6) 0.9054(5) 0.9001(6)
H46_3 H 0.6507 0.8790 0.8685
C52_3 C 0.6795(6) 0.9014(5) 0.9639(6)
C54_3 C 0.7590(6) 0.9825(5) 0.9923(6)
H12_3 H 0.9814 0.8184 0.0031
C16_3 C 0.8598(5) 0.6461(4) 0.0157(5)
C17_3 C 0.9290(5) 0.6560(4) 0.0512(5)
H15_3 H 0.9517 0.6316 0.0871
C18_3 C 0.9650(5) 0.7018(4) 0.0338(5)
C19_3 C 0.7140(4) 0.3726(4) 0.0424(4)
N8_3 N 0.7255(4) 0.4104(3) 0.0930(4)
N9_3 N 0.7684(5) 0.3837(4) 0.1466(4)
C20_3 C 0.7835(4) 0.3294(4) 0.1291(4)
H18_3 H 0.8125 0.3011 0.1570
C21_3 C 0.6979(7) 0.4680(6) 0.0909(7)
H19_3 H 0.6506 0.4689 0.0594
H20_3 H 0.6949 0.4782 0.1341
C22_3 C 0.7422(6) 0.5135(5) 0.0715(6)
C23_3 C 0.7825(7) 0.5521(5) 0.1177(6)
H21_3 H 0.7833 0.5493 0.1614
C24_3 C 0.8217(6) 0.5946(5) 0.0999(6)
H22_3 H 0.8493 0.6210 0.1315
C25_3 C 0.8205(6) 0.5986(5) 0.0361(6)
C27_3 C 0.7410(6) 0.5175(5) 0.0077(6)
C12_3 C 0.9687(6) 0.7916(6) 0.9653(7)
H11_3 H 0.9360 0.8129 0.9284
C13_3 C 0.9318(5) 0.7376(4) 0.9811(5)
C14_3 C 0.8626(5) 0.7277(5) 0.9456(5)
H13_3 H 0.8399 0.7521 0.9097
C15_3 C 0.8266(5) 0.6819(5) 0.9630(5)
H14_3 H 0.7794 0.6752 0.9388
H17_3 H 0.6858 0.3799 0.9990
C26_3 C 0.7801(7) 0.5601(5) 0.9899(5)
H23_3 H 0.7793 0.5628 0.9462
H24_3 H 0.7133 0.4911 0.9761
C12_4 C 0.0313(6) 0.7916(6) 0.5347(7)
H11_4 H 0.0640 0.8129 0.5716
H12_4 H 0.0186 0.8184 0.4969
C13_4 C 0.0682(5) 0.7376(4) 0.5189(5)
C14_4 C 0.1374(5) 0.7277(5) 0.5544(5)
H13_4 H 0.1601 0.7521 0.5903
C15_4 C 0.1734(5) 0.6819(5) 0.5370(5)
H14_4 H 0.2206 0.6752 0.5612
C16_4 C 0.1402(5) 0.6461(4) 0.4843(5)
C17_4 C 0.0710(5) 0.6560(4) 0.4488(5)
H15_4 H 0.0483 0.6316 0.4129
C18_4 C 0.0350(5) 0.7018(4) 0.4662(5)
C19_4 C 0.2860(4) 0.3726(4) 0.4576(4)
H17_4 H 0.3142 0.3799 0.5010
N8_4 N 0.2745(4) 0.4104(3) 0.4070(4)
N9_4 N 0.2316(5) 0.3837(4) 0.3534(4)
C20_4 C 0.2165(4) 0.3294(4) 0.3709(4)
H18_4 H 0.1875 0.3011 0.3430
C21_4 C 0.3021(7) 0.4680(6) 0.4091(7)
H19_4 H 0.3494 0.4689 0.4406
H20_4 H 0.3051 0.4782 0.3659
C22_4 C 0.2578(6) 0.5135(5) 0.4285(6)
C23_4 C 0.2175(7) 0.5521(5) 0.3823(6)
H21_4 H 0.2167 0.5493 0.3386
C24_4 C 0.1783(6) 0.5946(5) 0.4001(6)
H22_4 H 0.1507 0.6210 0.3685
C25_4 C 0.1795(6) 0.5986(5) 0.4639(6)
C26_4 C 0.2199(7) 0.5601(5) 0.5101(5)
H23_4 H 0.2207 0.5628 0.5538
C27_4 C 0.2590(6) 0.5175(5) 0.4923(6)
H24_4 H 0.2867 0.4911 0.5239
C46_4 C 0.2140(4) 0.1274(4) 0.5424(4)
H41_4 H 0.1858 0.1201 0.4990
N17_4 N 0.2255(4) 0.0896(3) 0.5930(4)
N18_4 N 0.2684(5) 0.1163(4) 0.6466(4)
C47_4 C 0.2835(4) 0.1706(4) 0.6291(4)
H42_4 H 0.3125 0.1989 0.6570
C48_4 C 0.1979(7) 0.0320(6) 0.5909(7)
H43_4 H 0.1506 0.0311 0.5594
H44_4 H 0.1949 0.0218 0.6341
H48_4 H 0.2133 0.0089 0.4761
N4_4 N 0.8629(4) 0.7597(3) 0.5454(4)
C10_4 C 0.9044(4) 0.7731(3) 0.5099(4)
H9_4 H 0.8900 0.7783 0.4642
N5_4 N 0.9699(4) 0.7778(3) 0.5509(4)
N6_4 N 0.9690(4) 0.7674(3) 0.6118(4)
C11_4 C 0.9028(4) 0.7562(4) 0.6084(4)
H10_4 H 0.8871 0.7474 0.6439
H16_4 H 0.9878 0.7085 0.4420
N13_4 N 0.6371(4) 0.7403(3) 0.4546(4)
C37_4 C 0.5956(4) 0.7269(3) 0.4901(4)
H33_4 H 0.6100 0.7217 0.5358
N14_4 N 0.5301(4) 0.7222(3) 0.4491(4)
N15_4 N 0.5310(4) 0.7326(3) 0.3882(4)
C38_4 C 0.5972(4) 0.7438(4) 0.3916(4)
H34_4 H 0.6129 0.7526 0.3561
C39_4 C 0.4687(6) 0.7084(6) 0.4653(7)
H35_4 H 0.4360 0.6871 0.4284
H36_4 H 0.4814 0.6816 0.5031
C40_4 C 0.4318(5) 0.7624(4) 0.4811(5)
C41_4 C 0.3626(5) 0.7723(5) 0.4456(5)
H37_4 H 0.3399 0.7479 0.4097
C42_4 C 0.3266(5) 0.8181(5) 0.4630(5)
H38_4 H 0.2794 0.8248 0.4388
C43_4 C 0.3598(5) 0.8539(4) 0.5157(5)
C44_4 C 0.4290(5) 0.8440(4) 0.5512(5)
H39_4 H 0.4517 0.8684 0.5871
C45_4 C 0.4650(5) 0.7982(4) 0.5338(5)
H40_4 H 0.5122 0.7915 0.5580
C49_4 C 0.2422(6) 0.9865(5) 0.5715(6)
C50_4 C 0.2825(7) 0.9479(5) 0.6177(6)
H45_4 H 0.2833 0.9507 0.6614
C51_4 C 0.3217(6) 0.9054(5) 0.5999(6)
H46_4 H 0.3493 0.8790 0.6315
C52_4 C 0.3205(6) 0.9014(5) 0.5361(6)
C53_4 C 0.2801(7) 0.9399(5) 0.4899(5)
H47_4 H 0.2793 0.9372 0.4462
C54_4 C 0.2410(6) 0.9825(5) 0.5077(6)
N19_4 N 0.7722(4) 0.6887(3) 0.4351(4)
C1_3 C 0.2515(4) 0.6871(4) 0.1298(4)
H1_3 H 0.2817 0.7149 0.1573
N2_3 N 0.2251(4) 0.6393(4) 0.1491(4)
N3_3 N 0.1851(5) 0.6114(3) 0.0961(5)
C2_3 C 0.1868(5) 0.6419(4) 0.0441(4)
H2_3 H 0.1630 0.6322 0.0001
C3_3 C 0.2311(8) 0.6154(7) 0.2124(8)
H3_3 H 0.2512 0.5754 0.2165
H4_3 H 0.2626 0.6404 0.2465
C4_3 C 0.1614(5) 0.6128(5) 0.2220(5)
C5_3 C 0.1358(6) 0.6640(5) 0.2404(6)
H5_3 H 0.1618 0.6994 0.2460
C6_3 C 0.0722(6) 0.6635(4) 0.2508(6)
H6_3 H 0.0547 0.6985 0.2634
C7_3 C 0.0343(6) 0.6118(5) 0.2427(6)
C8_3 C 0.0599(6) 0.5606(4) 0.2242(6)
H7_3 H 0.0339 0.5253 0.2187
C9_3 C 0.1234(6) 0.5611(4) 0.2139(6)
H8_3 H 0.1410 0.5261 0.2012
C28_3 C 0.7485(4) 0.6871(4) 0.3702(4)
H25_3 H 0.7183 0.7149 0.3427
N11_3 N 0.7749(4) 0.6393(4) 0.3509(4)
N12_3 N 0.8149(5) 0.6114(3) 0.4039(5)
C29_3 C 0.8132(5) 0.6419(4) 0.4559(4)
H26_3 H 0.8370 0.6322 0.4999
C30_3 C 0.7689(8) 0.6154(7) 0.2876(8)
H27_3 H 0.7488 0.5754 0.2835
H28_3 H 0.7374 0.6404 0.2535
C31_3 C 0.8386(5) 0.6128(5) 0.2780(5)
C32_3 C 0.8642(6) 0.6640(5) 0.2596(6)
H29_3 H 0.8382 0.6994 0.2540
C33_3 C 0.9278(6) 0.6635(4) 0.2492(6)
H30_3 H 0.9453 0.6985 0.2366
C34_3 C 0.9657(6) 0.6118(5) 0.2573(6)
C35_3 C 0.9401(6) 0.5606(4) 0.2758(6)
H31_3 H 0.9661 0.5253 0.2813
C36_3 C 0.8766(6) 0.5611(4) 0.2861(6)
H32_3 H 0.8590 0.5261 0.2988
C1_4 C 0.7515(4) 0.1871(4) 0.1298(4)
H1_4 H 0.7817 0.2149 0.1573
N2_4 N 0.7251(4) 0.1393(4) 0.1491(4)
N3_4 N 0.6851(5) 0.1114(3) 0.0961(5)
C2_4 C 0.6868(5) 0.1419(4) 0.0441(4)
H2_4 H 0.6630 0.1322 0.0001
C3_4 C 0.7311(8) 0.1154(7) 0.2124(8)
H3_4 H 0.7512 0.0754 0.2165
H4_4 H 0.7626 0.1404 0.2465
C4_4 C 0.6614(5) 0.1128(5) 0.2220(5)
C5_4 C 0.6358(6) 0.1640(5) 0.2404(6)
H5_4 H 0.6618 0.1994 0.2460
C6_4 C 0.5722(6) 0.1635(4) 0.2508(6)
H6_4 H 0.5547 0.1985 0.2634
C7_4 C 0.5343(6) 0.1118(5) 0.2427(6)
C8_4 C 0.5599(6) 0.0606(4) 0.2242(6)
H7_4 H 0.5339 0.0253 0.2187
C9_4 C 0.6234(6) 0.0611(4) 0.2139(6)
H8_4 H 0.6410 0.0261 0.2012
C28_4 C 0.2485(4) 0.1871(4) 0.3702(4)
H25_4 H 0.2183 0.2149 0.3427
N11_4 N 0.2749(4) 0.1393(4) 0.3509(4)
N12_4 N 0.3149(5) 0.1114(3) 0.4039(5)
C29_4 C 0.3132(5) 0.1419(4) 0.4559(4)
H26_4 H 0.3370 0.1322 0.4999
C30_4 C 0.2689(8) 0.1154(7) 0.2876(8)
H27_4 H 0.2488 0.0754 0.2835
H28_4 H 0.2374 0.1404 0.2535
C31_4 C 0.3386(5) 0.1128(5) 0.2780(5)
C32_4 C 0.3642(6) 0.1640(5) 0.2596(6)
H29_4 H 0.3382 0.1994 0.2540
C33_4 C 0.4278(6) 0.1635(4) 0.2492(6)
H30_4 H 0.4453 0.1985 0.2366
C34_4 C 0.4657(6) 0.1118(5) 0.2573(6)
C35_4 C 0.4401(6) 0.0606(4) 0.2758(6)
H31_4 H 0.4661 0.0253 0.2813
C36_4 C 0.3766(6) 0.0611(4) 0.2861(6)
H32_4 H 0.3590 0.0261 0.2988
loop_
_geom_bond_atom_site_label_1
_geom_bond_atom_site_label_2
_geom_bond_site_symmetry_1
_geom_bond_site_symmetry_2
O29 Mo10 1_555 1_555
O31 Mo7 1_555 1_555
O35 Mo7 1_555 1_555
O38 Mo7 1_555 1_555
Mo7 O28 1_555 1_555
Mo10 O23 1_555 1_555
Mo10 O38 1_555 1_555
O22 P1 1_555 1_555
Mo9 O22 1_555 1_555
Mo12 O21 1_555 1_555
O25 Mo11 1_555 1_555
O26 Mo9 1_555 1_555
O30 Mo8 1_555 1_555
O32 Mo12 1_555 1_555
O34 Mo11 1_555 1_555
O37 Mo8 1_555 1_555
O39 Mo9 1_555 1_555
O40 Mo8 1_555 1_555
P1 O21 1_555 1_555
O21 Mo11 1_555 1_555
Mo8 O24 1_555 1_555
Mo9 O30 1_555 1_555
Mo11 O27 1_555 1_555
Mo12 O25 1_555 1_555
Mo12 O33 1_555 1_555
Mo12 O39 1_555 1_555
Mo12 O40 1_555 1_555
Mo4 O2 1_555 1_555
O7 Mo1 1_555 1_555
O8 Mo4 1_555 1_555
O10 Mo1 1_555 1_555
O15 Mo1 1_555 1_555
O18 Mo1 1_555 1_555
Mo4 O18 1_555 1_555
Mo2 O3 1_555 1_555
Mo5 O1 1_555 1_555
Mo6 O1 1_555 1_555
P1_2 O1 1_555 1_555
O4 Mo5 1_555 1_555
O5 Mo3 1_555 1_555
O6 Mo5 1_555 1_555
O9 Mo2 1_555 1_555
O11 Mo6 1_555 1_555
O12 Mo6 1_555 1_555
O14 Mo5 1_555 1_555
O17 Mo2 1_555 1_555
O19 Mo3 1_555 1_555
O20 Mo2 1_555 1_555
Mo3 O9 1_555 1_555
Mo3 O13 1_555 1_555
Mo6 O4 1_555 1_555
Mo6 O19 1_555 1_555
Mo6 O20 1_555 1_555
P1_2 O13 1_555 1_555
Mo1_2 O6_2 1_555 1_555
Mo2_2 O3_2 1_555 1_555
Mo3_2 O2_2 1_555 1_555
Mo4_2 O2_2 1_555 1_555
Mo5_2 O1_2 1_555 1_555
Mo6_2 O1_2 1_555 1_555
P1_3 O1_2 1_555 1_555
O1_2 Mo8_2 1_555 1_555
O3_2 Mo11_2 1_555 1_555
O4_2 Mo5_2 1_555 1_555
O5_2 Mo3_2 1_555 1_555
O6_2 Mo5_2 1_555 1_555
O7_2 Mo1_2 1_555 1_555
O8_2 Mo4_2 1_555 1_555
O9_2 Mo2_2 1_555 1_555
O10_2 Mo1_2 1_555 1_555
O11_2 Mo6_2 1_555 1_555
O12_2 Mo6_2 1_555 1_555
O13_2 Mo1_2 1_555 1_555
O14_2 Mo5_2 1_555 1_555
O15_2 Mo1_2 1_555 1_555
O16_2 Mo4_2 1_555 1_555
O17_2 Mo2_2 1_555 1_555
O18_2 Mo1_2 1_555 1_555
O19_2 Mo3_2 1_555 1_555
O20_2 Mo2_2 1_555 1_555
O21_2 Mo2_2 1_555 1_555
O22_2 P1_3 1_555 1_555
Mo7_2 O22_2 1_555 1_555
Mo8_2 O12_2 1_555 1_555
Mo9_2 O22_2 1_555 1_555
Mo10_2 O7_2 1_555 1_555
Mo11_2 O16_2 1_555 1_555
Mo12_2 O21_2 1_555 1_555
O23_2 Mo9_2 1_555 1_555
O24_2 Mo5_2 1_555 1_555
O25_2 Mo11_2 1_555 1_555
O26_2 Mo9_2 1_555 1_555
O27_2 Mo7_2 1_555 1_555
O28_2 Mo4_2 1_555 1_555
O29_2 Mo10_2 1_555 1_555
O30_2 Mo8_2 1_555 1_555
O31_2 Mo7_2 1_555 1_555
O32_2 Mo12_2 1_555 1_555
O33_2 Mo2_2 1_555 1_555
O34_2 Mo11_2 1_555 1_555
O35_2 Mo7_2 1_555 1_555
O36_2 Mo5_2 1_555 1_555
O37_2 Mo8_2 1_555 1_555
O38_2 Mo7_2 1_555 1_555
O39_2 Mo9_2 1_555 1_555
O40_2 Mo8_2 1_555 1_555
Mo3_2 O9_2 1_555 1_555
Mo3_2 O10_2 1_555 1_555
Mo3_2 O13_2 1_555 1_555
Mo4_2 O13_2 1_555 1_555
Mo4_2 O18_2 1_555 1_555
Mo6_2 O4_2 1_555 1_555
Mo6_2 O19_2 1_555 1_555
Mo6_2 O20_2 1_555 1_555
P1_3 O13_2 1_555 1_555
P1_3 O21_2 1_555 1_555
O21_2 Mo11_2 1_555 1_555
O22_2 Mo10_2 1_555 1_555
Mo7_2 O28_2 1_555 1_555
Mo8_2 O24_2 1_555 1_555
Mo9_2 O30_2 1_555 1_555
Mo9_2 O31_2 1_555 1_555
Mo10_2 O23_2 1_555 1_555
Mo10_2 O36_2 1_555 1_555
Mo10_2 O38_2 1_555 1_555
Mo11_2 O27_2 1_555 1_555
Mo12_2 O25_2 1_555 1_555
Mo12_2 O33_2 1_555 1_555
Mo12_2 O39_2 1_555 1_555
Mo12_2 O40_2 1_555 1_555
Mo2_3 O3_3 1_555 1_555
Mo5_3 O1_3 1_555 1_555
Mo6_3 O1_3 1_555 1_555
P1_4 O1_3 1_555 1_555
O4_3 Mo5_3 1_555 1_555
O5_3 Mo3_3 1_555 1_555
O6_3 Mo5_3 1_555 1_555
O9_3 Mo2_3 1_555 1_555
O11_3 Mo6_3 1_555 1_555
O12_3 Mo6_3 1_555 1_555
O14_3 Mo5_3 1_555 1_555
O17_3 Mo2_3 1_555 1_555
O19_3 Mo3_3 1_555 1_555
O20_3 Mo2_3 1_555 1_555
Mo3_3 O9_3 1_555 1_555
Mo3_3 O13_3 1_555 1_555
Mo6_3 O4_3 1_555 1_555
Mo6_3 O19_3 1_555 1_555
Mo6_3 O20_3 1_555 1_555
P1_4 O13_3 1_555 1_555
Mo4_3 O2_3 1_555 1_555
O7_3 Mo1_3 1_555 1_555
O8_3 Mo4_3 1_555 1_555
O10_3 Mo1_3 1_555 1_555
O15_3 Mo1_3 1_555 1_555
O18_3 Mo1_3 1_555 1_555
Mo4_3 O18_3 1_555 1_555
O22_3 P1_5 1_555 1_555
Mo9_3 O22_3 1_555 1_555
Mo12_3 O21_3 1_555 1_555
O25_3 Mo11_3 1_555 1_555
O26_3 Mo9_3 1_555 1_555
O30_3 Mo8_3 1_555 1_555
O32_3 Mo12_3 1_555 1_555
O34_3 Mo11_3 1_555 1_555
O37_3 Mo8_3 1_555 1_555
O39_3 Mo9_3 1_555 1_555
O40_3 Mo8_3 1_555 1_555
P1_5 O21_3 1_555 1_555
O21_3 Mo11_3 1_555 1_555
Mo8_3 O24_3 1_555 1_555
Mo9_3 O30_3 1_555 1_555
Mo11_3 O27_3 1_555 1_555
Mo12_3 O25_3 1_555 1_555
Mo12_3 O33_3 1_555 1_555
Mo12_3 O39_3 1_555 1_555
Mo12_3 O40_3 1_555 1_555
O29_3 Mo10_3 1_555 1_555
O31_3 Mo7_3 1_555 1_555
O35_3 Mo7_3 1_555 1_555
O38_3 Mo7_3 1_555 1_555
Mo7_3 O28_3 1_555 1_555
Mo10_3 O23_3 1_555 1_555
Mo10_3 O38_3 1_555 1_555
Mo1_4 O6_4 1_555 1_555
Mo2_4 O3_4 1_555 1_555
Mo3_4 O2_4 1_555 1_555
Mo4_4 O2_4 1_555 1_555
Mo5_4 O1_4 1_555 1_555
Mo6_4 O1_4 1_555 1_555
P1_6 O1_4 1_555 1_555
O1_4 Mo8_4 1_555 1_555
O3_4 Mo11_4 1_555 1_555
O4_4 Mo5_4 1_555 1_555
O5_4 Mo3_4 1_555 1_555
O6_4 Mo5_4 1_555 1_555
O7_4 Mo1_4 1_555 1_555
O8_4 Mo4_4 1_555 1_555
O9_4 Mo2_4 1_555 1_555
O10_4 Mo1_4 1_555 1_555
O11_4 Mo6_4 1_555 1_555
O12_4 Mo6_4 1_555 1_555
O13_4 Mo1_4 1_555 1_555
O14_4 Mo5_4 1_555 1_555
O15_4 Mo1_4 1_555 1_555
O16_4 Mo4_4 1_555 1_555
O17_4 Mo2_4 1_555 1_555
O18_4 Mo1_4 1_555 1_555
O19_4 Mo3_4 1_555 1_555
O20_4 Mo2_4 1_555 1_555
O21_4 Mo2_4 1_555 1_555
O22_4 P1_6 1_555 1_555
Mo7_4 O22_4 1_555 1_555
Mo8_4 O12_4 1_555 1_555
Mo9_4 O22_4 1_555 1_555
Mo10_4 O7_4 1_555 1_555
Mo11_4 O16_4 1_555 1_555
Mo12_4 O21_4 1_555 1_555
O23_4 Mo9_4 1_555 1_555
O24_4 Mo5_4 1_555 1_555
O25_4 Mo11_4 1_555 1_555
O26_4 Mo9_4 1_555 1_555
O27_4 Mo7_4 1_555 1_555
O28_4 Mo4_4 1_555 1_555
O29_4 Mo10_4 1_555 1_555
O30_4 Mo8_4 1_555 1_555
O31_4 Mo7_4 1_555 1_555
O32_4 Mo12_4 1_555 1_555
O33_4 Mo2_4 1_555 1_555
O34_4 Mo11_4 1_555 1_555
O35_4 Mo7_4 1_555 1_555
O36_4 Mo5_4 1_555 1_555
O37_4 Mo8_4 1_555 1_555
O38_4 Mo7_4 1_555 1_555
O39_4 Mo9_4 1_555 1_555
O40_4 Mo8_4 1_555 1_555
Mo3_4 O9_4 1_555 1_555
Mo3_4 O10_4 1_555 1_555
Mo3_4 O13_4 1_555 1_555
Mo4_4 O13_4 1_555 1_555
Mo4_4 O18_4 1_555 1_555
Mo6_4 O4_4 1_555 1_555
Mo6_4 O19_4 1_555 1_555
Mo6_4 O20_4 1_555 1_555
P1_6 O13_4 1_555 1_555
P1_6 O21_4 1_555 1_555
O21_4 Mo11_4 1_555 1_555
O22_4 Mo10_4 1_555 1_555
Mo7_4 O28_4 1_555 1_555
Mo8_4 O24_4 1_555 1_555
Mo9_4 O30_4 1_555 1_555
Mo9_4 O31_4 1_555 1_555
Mo10_4 O23_4 1_555 1_555
Mo10_4 O36_4 1_555 1_555
Mo10_4 O38_4 1_555 1_555
Mo11_4 O27_4 1_555 1_555
Mo12_4 O25_4 1_555 1_555
Mo12_4 O33_4 1_555 1_555
Mo12_4 O39_4 1_555 1_555
Mo12_4 O40_4 1_555 1_555
H35 C39 1_555 1_555
C40 C39 1_555 1_555
C41 C40 1_555 1_555
H37 C41 1_555 1_555
C42 C41 1_555 1_555
H38 C42 1_555 1_555
H47 C53 1_555 1_555
N10 C28 1_555 1_555
C28 H25 1_555 1_555
N11 C28 1_555 1_555
N12 N11 1_555 1_555
C29 N10 1_555 1_555
H26 C29 1_555 1_555
C30 N11 1_555 1_555
H27 C30 1_555 1_555
H28 C30 1_555 1_555
C31 C30 1_555 1_555
C32 C31 1_555 1_555
H29 C32 1_555 1_555
C33 C32 1_555 1_555
H30 C33 1_555 1_555
C35 C34 1_555 1_555
H31 C35 1_555 1_555
C36 C31 1_555 1_555
H32 C36 1_555 1_555
C44 C43 1_555 1_555
H39 C44 1_555 1_555
N16 C46 1_555 1_555
N17 C46 1_555 1_555
N18 N17 1_555 1_555
C47 N16 1_555 1_555
H42 C47 1_555 1_555
C48 N17 1_555 1_555
H43 C48 1_555 1_555
H44 C48 1_555 1_555
C49 C48 1_555 1_555
C50 C49 1_555 1_555
H45 C50 1_555 1_555
C51 C50 1_555 1_555
H46 C51 1_555 1_555
C52 C43 1_555 1_555
C54 C49 1_555 1_555
Co2 N10 1_555 1_555
Co4_2 N16 1_555 1_555
N12 C29 1_555 1_555
C33 C34 1_555 1_555
C35 C36 1_555 1_555
C44 C45 1_555 1_555
N18 C47 1_555 1_555
C51 C52 1_555 1_555
C17 C16 1_555 1_555
H15 C17 1_555 1_555
H16 C18 1_555 1_555
C23 C22 1_555 1_555
H21 C23 1_555 1_555
C24 C23 1_555 1_555
H22 C24 1_555 1_555
C25 C16 1_555 1_555
C27 C22 1_555 1_555
N13 Co1 1_555 1_555
C37 N13 1_555 1_555
N14 C37 1_555 1_555
N15 N14 1_555 1_555
C38 N13 1_555 1_555
H34 C38 1_555 1_555
N19 Co1 1_555 1_555
N20 Co1 1_555 1_555
C17 C18 1_555 1_555
C24 C25 1_555 1_555
N15 C38 1_555 1_555
Co1_2 N1 1_555 1_555
N1 C1 1_555 1_555
C1 H1 1_555 1_555
N2 C1 1_555 1_555
N3 N2 1_555 1_555
C2 N1 1_555 1_555
H2 C2 1_555 1_555
C3 N2 1_555 1_555
H3 C3 1_555 1_555
H4 C3 1_555 1_555
C4 C3 1_555 1_555
C5 C4 1_555 1_555
H5 C5 1_555 1_555
C6 C5 1_555 1_555
H6 C6 1_555 1_555
C7 C6 1_555 1_555
C8 C7 1_555 1_555
H7 C8 1_555 1_555
C9 C4 1_555 1_555
H8 C9 1_555 1_555
N4 Co1_2 1_555 1_555
C10 N4 1_555 1_555
N5 C10 1_555 1_555
N6 N5 1_555 1_555
C11 N4 1_555 1_555
H10 C11 1_555 1_555
C12 N5 1_555 1_555
H11 C12 1_555 1_555
C13 C12 1_555 1_555
C14 C13 1_555 1_555
H13 C14 1_555 1_555
C15 C14 1_555 1_555
H14 C15 1_555 1_555
H23 C26 1_555 1_555
N21 Co1_2 1_555 1_555
N3 C2 1_555 1_555
C8 C9 1_555 1_555
N6 C11 1_555 1_555
N7 C19 1_555 1_555
N8 C19 1_555 1_555
N9 N8 1_555 1_555
C20 N7 1_555 1_555
H18 C20 1_555 1_555
C21 N8 1_555 1_555
H19 C21 1_555 1_555
H20 C21 1_555 1_555
Co4 N7 1_555 1_555
N9 C20 1_555 1_555
N4_2 Co2 1_555 1_555
C10_2 N4_2 1_555 1_555
H9_2 C10_2 1_555 1_555
N5_2 C10_2 1_555 1_555
N6_2 N5_2 1_555 1_555
C11_2 N4_2 1_555 1_555
H10_2 C11_2 1_555 1_555
C12_2 N5_2 1_555 1_555
H11_2 C12_2 1_555 1_555
H12_2 C12_2 1_555 1_555
C13_2 C12_2 1_555 1_555
C14_2 C13_2 1_555 1_555
H13_2 C14_2 1_555 1_555
C15_2 C14_2 1_555 1_555
H14_2 C15_2 1_555 1_555
C16_2 C15_2 1_555 1_555
C17_2 C16_2 1_555 1_555
H15_2 C17_2 1_555 1_555
C18_2 C13_2 1_555 1_555
H16_2 C18_2 1_555 1_555
C23_2 C22_2 1_555 1_555
H21_2 C23_2 1_555 1_555
C24_2 C23_2 1_555 1_555
H22_2 C24_2 1_555 1_555
C25_2 C16_2 1_555 1_555
C26_2 C25_2 1_555 1_555
H23_2 C26_2 1_555 1_555
C27_2 C22_2 1_555 1_555
N13_2 Co2 1_555 1_555
C37_2 N13_2 1_555 1_555
H33_2 C37_2 1_555 1_555
N14_2 C37_2 1_555 1_555
N15_2 N14_2 1_555 1_555
C38_2 N13_2 1_555 1_555
H34_2 C38_2 1_555 1_555
N19_2 Co2 1_555 1_555
N20_2 Co2 1_555 1_555
N21_2 Co2 1_555 1_555
N6_2 C11_2 1_555 1_555
C17_2 C18_2 1_555 1_555
C24_2 C25_2 1_555 1_555
C26_2 C27_2 1_555 1_555
N15_2 C38_2 1_555 1_555
N7_2 C19_2 1_555 1_555
C19_2 H17_2 1_555 1_555
N8_2 C19_2 1_555 1_555
N9_2 N8_2 1_555 1_555
C20_2 N7_2 1_555 1_555
H18_2 C20_2 1_555 1_555
C21_2 N8_2 1_555 1_555
H19_2 C21_2 1_555 1_555
H20_2 C21_2 1_555 1_555
Co3 N7_2 1_555 1_555
N9_2 C20_2 1_555 1_555
H35_2 C39_2 1_555 1_555
H36_2 C39_2 1_555 1_555
C40_2 C39_2 1_555 1_555
C41_2 C40_2 1_555 1_555
H37_2 C41_2 1_555 1_555
C42_2 C41_2 1_555 1_555
H38_2 C42_2 1_555 1_555
C43_2 C42_2 1_555 1_555
C44_2 C43_2 1_555 1_555
H39_2 C44_2 1_555 1_555
C45_2 C40_2 1_555 1_555
N16_2 C46_2 1_555 1_555
C46_2 H41_2 1_555 1_555
N17_2 C46_2 1_555 1_555
N18_2 N17_2 1_555 1_555
C47_2 N16_2 1_555 1_555
H42_2 C47_2 1_555 1_555
C48_2 N17_2 1_555 1_555
H43_2 C48_2 1_555 1_555
H44_2 C48_2 1_555 1_555
C49_2 C48_2 1_555 1_555
C50_2 C49_2 1_555 1_555
H45_2 C50_2 1_555 1_555
C51_2 C50_2 1_555 1_555
H46_2 C51_2 1_555 1_555
C52_2 C43_2 1_555 1_555
C53_2 C52_2 1_555 1_555
H47_2 C53_2 1_555 1_555
C54_2 C49_2 1_555 1_555
H48_2 C54_2 1_555 1_555
Co3 N16_2 1_555 1_555
C44_2 C45_2 1_555 1_555
N18_2 C47_2 1_555 1_555
C51_2 C52_2 1_555 1_555
C53_2 C54_2 1_555 1_555
N21 C46_3 1_555 1_555
N17_3 C46_3 1_555 1_555
N18_3 N17_3 1_555 1_555
C47_3 N21 1_555 1_555
H42_3 C47_3 1_555 1_555
C48_3 N17_3 1_555 1_555
H43_3 C48_3 1_555 1_555
H44_3 C48_3 1_555 1_555
N18_3 C47_3 1_555 1_555
N13_3 Co4 1_555 1_555
C37_3 N13_3 1_555 1_555
N14_3 C37_3 1_555 1_555
N15_3 N14_3 1_555 1_555
C38_3 N13_3 1_555 1_555
H34_3 C38_3 1_555 1_555
C39_3 N14_3 1_555 1_555
H35_3 C39_3 1_555 1_555
C40_3 C39_3 1_555 1_555
C41_3 C40_3 1_555 1_555
H37_3 C41_3 1_555 1_555
C42_3 C41_3 1_555 1_555
H38_3 C42_3 1_555 1_555
H47_3 C53_3 1_555 1_555
N19_3 Co4 1_555 1_555
N15_3 C38_3 1_555 1_555
Co4_2 N1_2 1_555 1_555
N1_2 C1_2 1_555 1_555
C1_2 H1_2 1_555 1_555
N2_2 C1_2 1_555 1_555
N3_2 N2_2 1_555 1_555
C2_2 N1_2 1_555 1_555
H2_2 C2_2 1_555 1_555
C3_2 N2_2 1_555 1_555
H3_2 C3_2 1_555 1_555
H4_2 C3_2 1_555 1_555
C4_2 C3_2 1_555 1_555
C5_2 C4_2 1_555 1_555
H5_2 C5_2 1_555 1_555
C6_2 C5_2 1_555 1_555
H6_2 C6_2 1_555 1_555
C7_2 C6_2 1_555 1_555
C8_2 C7_2 1_555 1_555
H7_2 C8_2 1_555 1_555
C9_2 C4_2 1_555 1_555
H8_2 C9_2 1_555 1_555
N4_3 Co4_2 1_555 1_555
C10_3 N4_3 1_555 1_555
N5_3 C10_3 1_555 1_555
N6_3 N5_3 1_555 1_555
C11_3 N4_3 1_555 1_555
H10_3 C11_3 1_555 1_555
N10_2 C28_2 1_555 1_555
C28_2 H25_2 1_555 1_555
N11_2 C28_2 1_555 1_555
N12_2 N11_2 1_555 1_555
C29_2 N10_2 1_555 1_555
H26_2 C29_2 1_555 1_555
C30_2 N11_2 1_555 1_555
H27_2 C30_2 1_555 1_555
H28_2 C30_2 1_555 1_555
C31_2 C30_2 1_555 1_555
C32_2 C31_2 1_555 1_555
H29_2 C32_2 1_555 1_555
C33_2 C32_2 1_555 1_555
H30_2 C33_2 1_555 1_555
C34_2 C7_2 1_555 1_555
C35_2 C34_2 1_555 1_555
H31_2 C35_2 1_555 1_555
C36_2 C31_2 1_555 1_555
H32_2 C36_2 1_555 1_555
C44_3 C43_3 1_555 1_555
H39_3 C44_3 1_555 1_555
H40_3 C45_3 1_555 1_555
C50_3 C49_3 1_555 1_555
H45_3 C50_3 1_555 1_555
C51_3 C50_3 1_555 1_555
H46_3 C51_3 1_555 1_555
C52_3 C43_3 1_555 1_555
C54_3 C49_3 1_555 1_555
Co3 N10_2 1_555 1_555
N3_2 C2_2 1_555 1_555
C8_2 C9_2 1_555 1_555
N6_3 C11_3 1_555 1_555
N12_2 C29_2 1_555 1_555
C33_2 C34_2 1_555 1_555
C35_2 C36_2 1_555 1_555
C44_3 C45_3 1_555 1_555
C51_3 C52_3 1_555 1_555
C17_3 C16_3 1_555 1_555
H15_3 C17_3 1_555 1_555
N20 C19_3 1_555 1_555
N8_3 C19_3 1_555 1_555
N9_3 N8_3 1_555 1_555
C20_3 N20 1_555 1_555
H18_3 C20_3 1_555 1_555
C21_3 N8_3 1_555 1_555
H19_3 C21_3 1_555 1_555
H20_3 C21_3 1_555 1_555
C22_3 C21_3 1_555 1_555
C23_3 C22_3 1_555 1_555
H21_3 C23_3 1_555 1_555
C24_3 C23_3 1_555 1_555
H22_3 C24_3 1_555 1_555
C25_3 C16_3 1_555 1_555
C27_3 C22_3 1_555 1_555
C17_3 C18_3 1_555 1_555
N9_3 C20_3 1_555 1_555
C24_3 C25_3 1_555 1_555
H11_3 C12_3 1_555 1_555
C13_3 C12_3 1_555 1_555
C14_3 C13_3 1_555 1_555
H13_3 C14_3 1_555 1_555
C15_3 C14_3 1_555 1_555
H14_3 C15_3 1_555 1_555
H23_3 C26_3 1_555 1_555
H11_4 C12_4 1_555 1_555
H12_4 C12_4 1_555 1_555
C13_4 C12_4 1_555 1_555
C14_4 C13_4 1_555 1_555
H13_4 C14_4 1_555 1_555
C15_4 C14_4 1_555 1_555
H14_4 C15_4 1_555 1_555
C16_4 C15_4 1_555 1_555
C17_4 C16_4 1_555 1_555
H15_4 C17_4 1_555 1_555
C18_4 C13_4 1_555 1_555
N20_2 C19_4 1_555 1_555
C19_4 H17_4 1_555 1_555
N8_4 C19_4 1_555 1_555
N9_4 N8_4 1_555 1_555
C20_4 N20_2 1_555 1_555
H18_4 C20_4 1_555 1_555
C21_4 N8_4 1_555 1_555
H19_4 C21_4 1_555 1_555
H20_4 C21_4 1_555 1_555
C22_4 C21_4 1_555 1_555
C23_4 C22_4 1_555 1_555
H21_4 C23_4 1_555 1_555
C24_4 C23_4 1_555 1_555
H22_4 C24_4 1_555 1_555
C25_4 C16_4 1_555 1_555
C26_4 C25_4 1_555 1_555
H23_4 C26_4 1_555 1_555
C27_4 C22_4 1_555 1_555
H24_4 C27_4 1_555 1_555
C17_4 C18_4 1_555 1_555
N9_4 C20_4 1_555 1_555
C24_4 C25_4 1_555 1_555
C26_4 C27_4 1_555 1_555
N21_2 C46_4 1_555 1_555
C46_4 H41_4 1_555 1_555
N17_4 C46_4 1_555 1_555
N18_4 N17_4 1_555 1_555
C47_4 N21_2 1_555 1_555
H42_4 C47_4 1_555 1_555
C48_4 N17_4 1_555 1_555
H43_4 C48_4 1_555 1_555
H44_4 C48_4 1_555 1_555
N18_4 C47_4 1_555 1_555
N4_4 Co3 1_555 1_555
C10_4 N4_4 1_555 1_555
H9_4 C10_4 1_555 1_555
N5_4 C10_4 1_555 1_555
N6_4 N5_4 1_555 1_555
C11_4 N4_4 1_555 1_555
H10_4 C11_4 1_555 1_555
N13_4 Co3 1_555 1_555
C37_4 N13_4 1_555 1_555
H33_4 C37_4 1_555 1_555
N14_4 C37_4 1_555 1_555
N15_4 N14_4 1_555 1_555
C38_4 N13_4 1_555 1_555
H34_4 C38_4 1_555 1_555
C39_4 N14_4 1_555 1_555
H35_4 C39_4 1_555 1_555
H36_4 C39_4 1_555 1_555
C40_4 C39_4 1_555 1_555
C41_4 C40_4 1_555 1_555
H37_4 C41_4 1_555 1_555
C42_4 C41_4 1_555 1_555
H38_4 C42_4 1_555 1_555
C43_4 C42_4 1_555 1_555
C44_4 C43_4 1_555 1_555
H39_4 C44_4 1_555 1_555
C45_4 C40_4 1_555 1_555
H40_4 C45_4 1_555 1_555
C50_4 C49_4 1_555 1_555
H45_4 C50_4 1_555 1_555
C51_4 C50_4 1_555 1_555
H46_4 C51_4 1_555 1_555
C52_4 C43_4 1_555 1_555
C53_4 C52_4 1_555 1_555
H47_4 C53_4 1_555 1_555
C54_4 C49_4 1_555 1_555
N19_4 Co3 1_555 1_555
N6_4 C11_4 1_555 1_555
N15_4 C38_4 1_555 1_555
C44_4 C45_4 1_555 1_555
C51_4 C52_4 1_555 1_555
C53_4 C54_4 1_555 1_555
N19_3 C1_3 1_555 1_555
C1_3 H1_3 1_555 1_555
N2_3 C1_3 1_555 1_555
N3_3 N2_3 1_555 1_555
C2_3 N19_3 1_555 1_555
H2_3 C2_3 1_555 1_555
C3_3 N2_3 1_555 1_555
H3_3 C3_3 1_555 1_555
H4_3 C3_3 1_555 1_555
C4_3 C3_3 1_555 1_555
C5_3 C4_3 1_555 1_555
H5_3 C5_3 1_555 1_555
C6_3 C5_3 1_555 1_555
H6_3 C6_3 1_555 1_555
C7_3 C6_3 1_555 1_555
C8_3 C7_3 1_555 1_555
H7_3 C8_3 1_555 1_555
C9_3 C4_3 1_555 1_555
H8_3 C9_3 1_555 1_555
N3_3 C2_3 1_555 1_555
C8_3 C9_3 1_555 1_555
N19_4 C28_3 1_555 1_555
C28_3 H25_3 1_555 1_555
N11_3 C28_3 1_555 1_555
N12_3 N11_3 1_555 1_555
C29_3 N19_4 1_555 1_555
H26_3 C29_3 1_555 1_555
C30_3 N11_3 1_555 1_555
H27_3 C30_3 1_555 1_555
H28_3 C30_3 1_555 1_555
C31_3 C30_3 1_555 1_555
C32_3 C31_3 1_555 1_555
H29_3 C32_3 1_555 1_555
C33_3 C32_3 1_555 1_555
H30_3 C33_3 1_555 1_555
C35_3 C34_3 1_555 1_555
H31_3 C35_3 1_555 1_555
C36_3 C31_3 1_555 1_555
H32_3 C36_3 1_555 1_555
N12_3 C29_3 1_555 1_555
C33_3 C34_3 1_555 1_555
C35_3 C36_3 1_555 1_555
N19 C1_4 1_555 1_555
C1_4 H1_4 1_555 1_555
N2_4 C1_4 1_555 1_555
N3_4 N2_4 1_555 1_555
C2_4 N19 1_555 1_555
H2_4 C2_4 1_555 1_555
C3_4 N2_4 1_555 1_555
H3_4 C3_4 1_555 1_555
H4_4 C3_4 1_555 1_555
C4_4 C3_4 1_555 1_555
C5_4 C4_4 1_555 1_555
H5_4 C5_4 1_555 1_555
C6_4 C5_4 1_555 1_555
H6_4 C6_4 1_555 1_555
C7_4 C6_4 1_555 1_555
C8_4 C7_4 1_555 1_555
H7_4 C8_4 1_555 1_555
C9_4 C4_4 1_555 1_555
H8_4 C9_4 1_555 1_555
N19_2 C28_4 1_555 1_555
C28_4 H25_4 1_555 1_555
N11_4 C28_4 1_555 1_555
N12_4 N11_4 1_555 1_555
C29_4 N19_2 1_555 1_555
H26_4 C29_4 1_555 1_555
C30_4 N11_4 1_555 1_555
H27_4 C30_4 1_555 1_555
H28_4 C30_4 1_555 1_555
C31_4 C30_4 1_555 1_555
C32_4 C31_4 1_555 1_555
H29_4 C32_4 1_555 1_555
C33_4 C32_4 1_555 1_555
H30_4 C33_4 1_555 1_555
C34_4 C7_4 1_555 1_555
C35_4 C34_4 1_555 1_555
H31_4 C35_4 1_555 1_555
C36_4 C31_4 1_555 1_555
H32_4 C36_4 1_555 1_555
N3_4 C2_4 1_555 1_555
C8_4 C9_4 1_555 1_555
N12_4 C29_4 1_555 1_555
C33_4 C34_4 1_555 1_555
C35_4 C36_4 1_555 1_555

#END
