
###############################################################################
#
# This file contains modified crystal structure data generated from the
# MOF subset of the Cambridge Structural Database (CSD) v543 
# hosted by the Cambridge Crystallographic Data Centre (CCDC).
#
# This work is licensed under the Creative Commons
# Attribution-NonCommercial-ShareAlike 4.0 International License.
# To view a copy of this license, visit
# http://creativecommons.org/licenses/by-nc-sa/4.0/
# or send a letter to
# Creative Commons, PO Box 1866, Mountain View, CA 94042, USA.
#
# CIF created using the CSD Python API on 29 September 2022
# The structure has been converted into the P1 space group
# The structure has a 3D framework
# The original CSD entry WOZWEP is in the tetragonal crystal system
# The framework has been calculated to contain at least 10.0% void space
# The void calculation uses a probe of radius 1.32A, grid spacing 0.4
# The framework is charged, counterions have been retained in the structure
# H atom positions have been added when not included in the experimental data
# Generated hydrogen atom positions removed from atoms on special positions
#
###############################################################################

data_WOZWEP
_chemical_formula_moiety         '(C168 H128 In12 O88 P12)n'
_symmetry_cell_setting           triclinic
_symmetry_space_group_name_H-M   'P 1'
_symmetry_Int_Tables_number      1
_space_group_name_Hall           'P 1'
loop_
_symmetry_equiv_pos_site_id
_symmetry_equiv_pos_as_xyz
1 x,y,z
_cell_length_a                   23.474(3)
_cell_length_b                   23.474(3)
_cell_length_c                   6.6926(9)
_cell_angle_alpha                90
_cell_angle_beta                 90
_cell_angle_gamma                90
_cell_volume                     3687.81
loop_
_atom_site_label
_atom_site_type_symbol
_atom_site_fract_x
_atom_site_fract_y
_atom_site_fract_z
In1 In 0.12300(3) 0.27548(3) 0.0000
P1 P 0.60476(10) 0.20059(11) 0.0000
C1 C 0.5150(5) 0.1237(5) 0.0000
H1 H 0.5430 0.0957 0.0000
O1 O 0.6391(3) 0.1454(3) 0.0000
O2 O 0.2182(3) 0.2519(3) 0.0000
O3 O 0.1542(3) 0.1847(3) 0.0000
C2 C 0.5301(4) 0.1797(4) 0.0000
C3 C 0.2057(5) 0.1999(4) 0.0000
C4 C 0.4138(4) 0.1477(4) 0.0000
C5 C 0.3085(4) 0.1714(4) 0.0000
H2 H 0.3178 0.2099 0.0000
C6 C 0.2796(4) 0.0582(4) 0.0000
C7 C 0.3524(4) 0.1320(4) 0.0000
C8 C 0.2374(4) 0.0986(4) 0.0000
H3 H 0.1993 0.0876 0.0000
C9 C 0.2521(4) 0.1562(4) 0.0000
C10 C 0.4308(4) 0.2035(4) 0.0000
H4 H 0.4033 0.2320 0.0000
C12 C 0.4887(5) 0.2189(4) 0.0000
H5 H 0.4984 0.2573 0.0000
C13 C 0.3365(4) 0.0743(4) 0.0000
H6 H 0.3646 0.0464 0.0000
C14 C 0.4560(5) 0.1079(5) 0.0000
H7 H 0.4463 0.0695 0.0000
O7 O 0.61465(19) 0.23751(19) 0.1847(7)
In2 In 0.72452(3) 0.12300(3) 0.0000
In5 In 0.62300(3) 0.22452(3) 0.5000
O8 O 0.1454(3) 0.3609(3) 0.0000
O9 O 0.0383(3) 0.3067(4) 0.0000
O11 O 0.11465(19) 0.26249(19) 0.3153(7)
In1_2 In 0.12300(3) 0.27548(3) 1.0000
P1_2 P 0.60476(10) 0.20059(11) 1.0000
C1_2 C 0.5150(5) 0.1237(5) 1.0000
H1_2 H 0.5430 0.0957 1.0000
O1_2 O 0.6391(3) 0.1454(3) 1.0000
O2_2 O 0.2182(3) 0.2519(3) 1.0000
O3_2 O 0.1542(3) 0.1847(3) 1.0000
C2_2 C 0.5301(4) 0.1797(4) 1.0000
C3_2 C 0.2057(5) 0.1999(4) 1.0000
C4_2 C 0.4138(4) 0.1477(4) 1.0000
C5_2 C 0.3085(4) 0.1714(4) 1.0000
H2_2 H 0.3178 0.2099 1.0000
C6_2 C 0.2796(4) 0.0582(4) 1.0000
C7_2 C 0.3524(4) 0.1320(4) 1.0000
C8_2 C 0.2374(4) 0.0986(4) 1.0000
H3_2 H 0.1993 0.0876 1.0000
C9_2 C 0.2521(4) 0.1562(4) 1.0000
C10_2 C 0.4308(4) 0.2035(4) 1.0000
H4_2 H 0.4033 0.2320 1.0000
C12_2 C 0.4887(5) 0.2189(4) 1.0000
H5_2 H 0.4984 0.2573 1.0000
C13_2 C 0.3365(4) 0.0743(4) 1.0000
H6_2 H 0.3646 0.0464 1.0000
C14_2 C 0.4560(5) 0.1079(5) 1.0000
H7_2 H 0.4463 0.0695 1.0000
O6 O 0.61465(19) 0.23751(19) 0.8153(7)
In2_2 In 0.72452(3) 0.12300(3) 1.0000
O8_2 O 0.1454(3) 0.3609(3) 1.0000
O9_2 O 0.0383(3) 0.3067(4) 1.0000
O10 O 0.11465(19) 0.26249(19) 0.6847(7)
O4 O 0.2155(4) 0.9790(3) 0.0000
O5 O 0.3067(4) 0.9617(3) 0.0000
C11 C 0.2657(6) 0.9963(5) 0.0000
In3 In 0.27548(3) 0.87700(3) 0.0000
O4_2 O 0.2155(4) 0.9790(3) 1.0000
O5_2 O 0.3067(4) 0.9617(3) 1.0000
C11_2 C 0.2657(6) 0.9963(5) 1.0000
In3_2 In 0.27548(3) 0.87700(3) 1.0000
O4_3 O 0.7845(4) 0.0210(3) 0.0000
O5_3 O 0.6933(4) 0.0383(3) 0.0000
C11_3 C 0.7343(6) 0.0037(5) 0.0000
O4_4 O 0.7845(4) 0.0210(3) 1.0000
O5_4 O 0.6933(4) 0.0383(3) 1.0000
C11_4 C 0.7343(6) 0.0037(5) 1.0000
In1_3 In 0.87700(3) 0.72452(3) 0.0000
P1_3 P 0.39524(10) 0.79941(11) 0.0000
C1_3 C 0.4850(5) 0.8763(5) 0.0000
H1_3 H 0.4570 0.9043 0.0000
O1_3 O 0.3609(3) 0.8546(3) 0.0000
O2_3 O 0.7818(3) 0.7481(3) 0.0000
O3_3 O 0.8458(3) 0.8153(3) 0.0000
C2_3 C 0.4699(4) 0.8203(4) 0.0000
C3_3 C 0.7943(5) 0.8001(4) 0.0000
C4_3 C 0.5862(4) 0.8523(4) 0.0000
C5_3 C 0.6915(4) 0.8286(4) 0.0000
H2_3 H 0.6822 0.7901 0.0000
C6_3 C 0.7204(4) 0.9418(4) 0.0000
C7_3 C 0.6476(4) 0.8680(4) 0.0000
C8_3 C 0.7626(4) 0.9014(4) 0.0000
H3_3 H 0.8007 0.9124 0.0000
C9_3 C 0.7479(4) 0.8438(4) 0.0000
C10_3 C 0.5692(4) 0.7965(4) 0.0000
H4_3 H 0.5967 0.7680 0.0000
C12_3 C 0.5113(5) 0.7811(4) 0.0000
H5_3 H 0.5016 0.7427 0.0000
C13_3 C 0.6635(4) 0.9257(4) 0.0000
H6_3 H 0.6354 0.9536 0.0000
C14_3 C 0.5440(5) 0.8921(5) 0.0000
H7_3 H 0.5537 0.9305 0.0000
O7_2 O 0.38535(19) 0.76249(19) 0.1847(7)
In5_2 In 0.37700(3) 0.77548(3) 0.5000
O8_3 O 0.8546(3) 0.6391(3) 0.0000
O9_3 O 0.9617(3) 0.6933(4) 0.0000
O11_2 O 0.88535(19) 0.73751(19) 0.3153(7)
In1_4 In 0.87700(3) 0.72452(3) 1.0000
P1_4 P 0.39524(10) 0.79941(11) 1.0000
C1_4 C 0.4850(5) 0.8763(5) 1.0000
H1_4 H 0.4570 0.9043 1.0000
O1_4 O 0.3609(3) 0.8546(3) 1.0000
O2_4 O 0.7818(3) 0.7481(3) 1.0000
O3_4 O 0.8458(3) 0.8153(3) 1.0000
C2_4 C 0.4699(4) 0.8203(4) 1.0000
C3_4 C 0.7943(5) 0.8001(4) 1.0000
C4_4 C 0.5862(4) 0.8523(4) 1.0000
C5_4 C 0.6915(4) 0.8286(4) 1.0000
H2_4 H 0.6822 0.7901 1.0000
C6_4 C 0.7204(4) 0.9418(4) 1.0000
C7_4 C 0.6476(4) 0.8680(4) 1.0000
C8_4 C 0.7626(4) 0.9014(4) 1.0000
H3_4 H 0.8007 0.9124 1.0000
C9_4 C 0.7479(4) 0.8438(4) 1.0000
C10_4 C 0.5692(4) 0.7965(4) 1.0000
H4_4 H 0.5967 0.7680 1.0000
C12_4 C 0.5113(5) 0.7811(4) 1.0000
H5_4 H 0.5016 0.7427 1.0000
C13_4 C 0.6635(4) 0.9257(4) 1.0000
H6_4 H 0.6354 0.9536 1.0000
C14_4 C 0.5440(5) 0.8921(5) 1.0000
H7_4 H 0.5537 0.9305 1.0000
O6_2 O 0.38535(19) 0.76249(19) 0.8153(7)
O8_4 O 0.8546(3) 0.6391(3) 1.0000
O9_4 O 0.9617(3) 0.6933(4) 1.0000
O10_2 O 0.88535(19) 0.73751(19) 0.6847(7)
O4_5 O 0.0210(3) 0.2155(4) 0.0000
C11_5 C 0.0037(5) 0.2657(6) 0.0000
O4_6 O 0.0210(3) 0.2155(4) 1.0000
C11_6 C 0.0037(5) 0.2657(6) 1.0000
P1_5 P 0.79941(11) 0.60476(10) 0.0000
C1_5 C 0.8763(5) 0.5150(5) 0.0000
H1_5 H 0.9043 0.5430 0.0000
O2_5 O 0.7481(3) 0.2182(3) 0.0000
O3_5 O 0.8153(3) 0.1542(3) 0.0000
C2_5 C 0.8203(4) 0.5301(4) 0.0000
C3_5 C 0.8001(4) 0.2057(5) 0.0000
C4_5 C 0.8523(4) 0.4138(4) 0.0000
C5_5 C 0.8286(4) 0.3085(4) 0.0000
H2_5 H 0.7901 0.3178 0.0000
C6_5 C 0.9418(4) 0.2796(4) 0.0000
C7_5 C 0.8680(4) 0.3524(4) 0.0000
C8_5 C 0.9014(4) 0.2374(4) 0.0000
H3_5 H 0.9124 0.1993 0.0000
C9_5 C 0.8438(4) 0.2521(4) 0.0000
C10_5 C 0.7965(4) 0.4308(4) 0.0000
H4_5 H 0.7680 0.4033 0.0000
C12_5 C 0.7811(4) 0.4887(5) 0.0000
H5_5 H 0.7427 0.4984 0.0000
C13_5 C 0.9257(4) 0.3365(4) 0.0000
H6_5 H 0.9536 0.3646 0.0000
C14_5 C 0.8921(5) 0.4560(5) 0.0000
H7_5 H 0.9305 0.4463 0.0000
O7_3 O 0.76249(19) 0.61465(19) 0.1847(7)
In5_3 In 0.77548(3) 0.62300(3) 0.5000
O11_3 O 0.73751(19) 0.11465(19) 0.3153(7)
P1_6 P 0.79941(11) 0.60476(10) 1.0000
C1_6 C 0.8763(5) 0.5150(5) 1.0000
H1_6 H 0.9043 0.5430 1.0000
O2_6 O 0.7481(3) 0.2182(3) 1.0000
O3_6 O 0.8153(3) 0.1542(3) 1.0000
C2_6 C 0.8203(4) 0.5301(4) 1.0000
C3_6 C 0.8001(4) 0.2057(5) 1.0000
C4_6 C 0.8523(4) 0.4138(4) 1.0000
C5_6 C 0.8286(4) 0.3085(4) 1.0000
H2_6 H 0.7901 0.3178 1.0000
C6_6 C 0.9418(4) 0.2796(4) 1.0000
C7_6 C 0.8680(4) 0.3524(4) 1.0000
C8_6 C 0.9014(4) 0.2374(4) 1.0000
H3_6 H 0.9124 0.1993 1.0000
C9_6 C 0.8438(4) 0.2521(4) 1.0000
C10_6 C 0.7965(4) 0.4308(4) 1.0000
H4_6 H 0.7680 0.4033 1.0000
C12_6 C 0.7811(4) 0.4887(5) 1.0000
H5_6 H 0.7427 0.4984 1.0000
C13_6 C 0.9257(4) 0.3365(4) 1.0000
H6_6 H 0.9536 0.3646 1.0000
C14_6 C 0.8921(5) 0.4560(5) 1.0000
H7_6 H 0.9305 0.4463 1.0000
O6_3 O 0.76249(19) 0.61465(19) 0.8153(7)
O10_3 O 0.73751(19) 0.11465(19) 0.6847(7)
P1_7 P 0.20059(11) 0.39524(10) 0.0000
C1_7 C 0.1237(5) 0.4850(5) 0.0000
H1_7 H 0.0957 0.4570 0.0000
O2_7 O 0.2519(3) 0.7818(3) 0.0000
O3_7 O 0.1847(3) 0.8458(3) 0.0000
C2_7 C 0.1797(4) 0.4699(4) 0.0000
C3_7 C 0.1999(4) 0.7943(5) 0.0000
C4_7 C 0.1477(4) 0.5862(4) 0.0000
C5_7 C 0.1714(4) 0.6915(4) 0.0000
H2_7 H 0.2099 0.6822 0.0000
C6_7 C 0.0582(4) 0.7204(4) 0.0000
C7_7 C 0.1320(4) 0.6476(4) 0.0000
C8_7 C 0.0986(4) 0.7626(4) 0.0000
H3_7 H 0.0876 0.8007 0.0000
C9_7 C 0.1562(4) 0.7479(4) 0.0000
C10_7 C 0.2035(4) 0.5692(4) 0.0000
H4_7 H 0.2320 0.5967 0.0000
C12_7 C 0.2189(4) 0.5113(5) 0.0000
H5_7 H 0.2573 0.5016 0.0000
C13_7 C 0.0743(4) 0.6635(4) 0.0000
H6_7 H 0.0464 0.6354 0.0000
C14_7 C 0.1079(5) 0.5440(5) 0.0000
H7_7 H 0.0695 0.5537 0.0000
O7_4 O 0.23751(19) 0.38535(19) 0.1847(7)
In5_4 In 0.22452(3) 0.37700(3) 0.5000
O11_4 O 0.26249(19) 0.88535(19) 0.3153(7)
P1_8 P 0.20059(11) 0.39524(10) 1.0000
C1_8 C 0.1237(5) 0.4850(5) 1.0000
H1_8 H 0.0957 0.4570 1.0000
O2_8 O 0.2519(3) 0.7818(3) 1.0000
O3_8 O 0.1847(3) 0.8458(3) 1.0000
C2_8 C 0.1797(4) 0.4699(4) 1.0000
C3_8 C 0.1999(4) 0.7943(5) 1.0000
C4_8 C 0.1477(4) 0.5862(4) 1.0000
C5_8 C 0.1714(4) 0.6915(4) 1.0000
H2_8 H 0.2099 0.6822 1.0000
C6_8 C 0.0582(4) 0.7204(4) 1.0000
C7_8 C 0.1320(4) 0.6476(4) 1.0000
C8_8 C 0.0986(4) 0.7626(4) 1.0000
H3_8 H 0.0876 0.8007 1.0000
C9_8 C 0.1562(4) 0.7479(4) 1.0000
C10_8 C 0.2035(4) 0.5692(4) 1.0000
H4_8 H 0.2320 0.5967 1.0000
C12_8 C 0.2189(4) 0.5113(5) 1.0000
H5_8 H 0.2573 0.5016 1.0000
C13_8 C 0.0743(4) 0.6635(4) 1.0000
H6_8 H 0.0464 0.6354 1.0000
C14_8 C 0.1079(5) 0.5440(5) 1.0000
H7_8 H 0.0695 0.5537 1.0000
O6_4 O 0.23751(19) 0.38535(19) 0.8153(7)
O10_4 O 0.26249(19) 0.88535(19) 0.6847(7)
O4_7 O 0.9790(3) 0.7845(4) 0.0000
C11_7 C 0.9963(5) 0.7343(6) 0.0000
O4_8 O 0.9790(3) 0.7845(4) 1.0000
C11_8 C 0.9963(5) 0.7343(6) 1.0000
O2_9 O 0.2818(3) 0.7519(3) 0.5000
O3_9 O 0.3458(3) 0.6847(3) 0.5000
C3_9 C 0.2943(5) 0.6999(4) 0.5000
O4_9 O 0.2845(4) 0.4790(3) 0.5000
O5_5 O 0.1933(4) 0.4617(3) 0.5000
C4_9 C 0.0862(4) 0.6477(4) 0.5000
C5_9 C 0.1915(4) 0.6714(4) 0.5000
H2_9 H 0.1822 0.7099 0.5000
C6_9 C 0.2204(4) 0.5582(4) 0.5000
C7_9 C 0.1476(4) 0.6320(4) 0.5000
C8_9 C 0.2626(4) 0.5986(4) 0.5000
H3_9 H 0.3007 0.5876 0.5000
C9_9 C 0.2479(4) 0.6562(4) 0.5000
C10_9 C 0.0692(4) 0.7035(4) 0.5000
H4_9 H 0.0967 0.7320 0.5000
C11_9 C 0.2343(6) 0.4963(5) 0.5000
C12_9 C 0.0113(5) 0.7189(4) 0.5000
H5_9 H 0.0016 0.7573 0.5000
C13_9 C 0.1635(4) 0.5743(4) 0.5000
H6_9 H 0.1354 0.5464 0.5000
C14_9 C 0.0440(5) 0.6079(5) 0.5000
H7_9 H 0.0537 0.5695 0.5000
O8_5 O 0.3546(3) 0.8609(3) 0.5000
O9_5 O 0.4617(3) 0.8067(4) 0.5000
P1_9 P 0.89524(10) 0.70059(11) 0.5000
C1_9 C 0.9850(5) 0.6237(5) 0.5000
H1_9 H 0.9570 0.5957 0.5000
O1_5 O 0.8609(3) 0.6454(3) 0.5000
C2_9 C 0.9699(4) 0.6797(4) 0.5000
P1_10 P 0.10476(10) 0.29941(11) 0.5000
C1_10 C 0.0150(5) 0.3763(5) 0.5000
H1_10 H 0.0430 0.4043 0.5000
O1_6 O 0.1391(3) 0.3546(3) 0.5000
C2_10 C 0.0301(4) 0.3203(4) 0.5000
O2_10 O 0.7182(3) 0.2481(3) 0.5000
O3_10 O 0.6542(3) 0.3153(3) 0.5000
C3_10 C 0.7057(5) 0.3001(4) 0.5000
O4_10 O 0.7155(4) 0.5210(3) 0.5000
O5_6 O 0.8067(4) 0.5383(3) 0.5000
C4_10 C 0.9138(4) 0.3523(4) 0.5000
C5_10 C 0.8085(4) 0.3286(4) 0.5000
H2_10 H 0.8178 0.2901 0.5000
C6_10 C 0.7796(4) 0.4418(4) 0.5000
C7_10 C 0.8524(4) 0.3680(4) 0.5000
C8_10 C 0.7374(4) 0.4014(4) 0.5000
H3_10 H 0.6993 0.4124 0.5000
C9_10 C 0.7521(4) 0.3438(4) 0.5000
C10_10 C 0.9308(4) 0.2965(4) 0.5000
H4_10 H 0.9033 0.2680 0.5000
C11_10 C 0.7657(6) 0.5037(5) 0.5000
C12_10 C 0.9887(5) 0.2811(4) 0.5000
H5_10 H 0.9984 0.2427 0.5000
C13_10 C 0.8365(4) 0.4257(4) 0.5000
H6_10 H 0.8646 0.4536 0.5000
C14_10 C 0.9560(5) 0.3921(5) 0.5000
H7_10 H 0.9463 0.4305 0.5000
O8_6 O 0.6454(3) 0.1391(3) 0.5000
O9_6 O 0.5383(3) 0.1933(4) 0.5000
P1_11 P 0.70059(11) 0.10476(10) 0.5000
C1_11 C 0.6237(5) 0.0150(5) 0.5000
H1_11 H 0.5957 0.0430 0.5000
C2_11 C 0.6797(4) 0.0301(4) 0.5000
O2_11 O 0.7519(3) 0.7182(3) 0.5000
O3_11 O 0.6847(3) 0.6542(3) 0.5000
C3_11 C 0.6999(4) 0.7057(5) 0.5000
O4_11 O 0.4790(3) 0.7155(4) 0.5000
C4_11 C 0.6477(4) 0.9138(4) 0.5000
C5_11 C 0.6714(4) 0.8085(4) 0.5000
H2_11 H 0.7099 0.8178 0.5000
C6_11 C 0.5582(4) 0.7796(4) 0.5000
C7_11 C 0.6320(4) 0.8524(4) 0.5000
C8_11 C 0.5986(4) 0.7374(4) 0.5000
H3_11 H 0.5876 0.6993 0.5000
C9_11 C 0.6562(4) 0.7521(4) 0.5000
C10_11 C 0.7035(4) 0.9308(4) 0.5000
H4_11 H 0.7320 0.9033 0.5000
C11_11 C 0.4963(5) 0.7657(6) 0.5000
C12_11 C 0.7189(4) 0.9887(5) 0.5000
H5_11 H 0.7573 0.9984 0.5000
C13_11 C 0.5743(4) 0.8365(4) 0.5000
H6_11 H 0.5464 0.8646 0.5000
C14_11 C 0.6079(5) 0.9560(5) 0.5000
H7_11 H 0.5695 0.9463 0.5000
O2_12 O 0.2481(3) 0.2818(3) 0.5000
O3_12 O 0.3153(3) 0.3458(3) 0.5000
C3_12 C 0.3001(4) 0.2943(5) 0.5000
O4_12 O 0.5210(3) 0.2845(4) 0.5000
C4_12 C 0.3523(4) 0.0862(4) 0.5000
C5_12 C 0.3286(4) 0.1915(4) 0.5000
H2_12 H 0.2901 0.1822 0.5000
C6_12 C 0.4418(4) 0.2204(4) 0.5000
C7_12 C 0.3680(4) 0.1476(4) 0.5000
C8_12 C 0.4014(4) 0.2626(4) 0.5000
H3_12 H 0.4124 0.3007 0.5000
C9_12 C 0.3438(4) 0.2479(4) 0.5000
C10_12 C 0.2965(4) 0.0692(4) 0.5000
H4_12 H 0.2680 0.0967 0.5000
C11_12 C 0.5037(5) 0.2343(6) 0.5000
C12_12 C 0.2811(4) 0.0113(5) 0.5000
H5_12 H 0.2427 0.0016 0.5000
C13_12 C 0.4257(4) 0.1635(4) 0.5000
H6_12 H 0.4536 0.1354 0.5000
C14_12 C 0.3921(5) 0.0440(5) 0.5000
H7_12 H 0.4305 0.0537 0.5000
P1_12 P 0.29941(11) 0.89524(10) 0.5000
C1_12 C 0.3763(5) 0.9850(5) 0.5000
H1_12 H 0.4043 0.9570 0.5000
C2_12 C 0.3203(4) 0.9699(4) 0.5000
O12 O 0.3608(11) 0.3381(9) 0.0000
O12_2 O 0.3608(11) 0.3381(9) 1.0000
O12_3 O 0.6392(11) 0.6619(9) 0.0000
O12_4 O 0.6392(11) 0.6619(9) 1.0000
O12_5 O 0.6619(9) 0.3608(11) 0.0000
O12_6 O 0.6619(9) 0.3608(11) 1.0000
O12_7 O 0.3381(9) 0.6392(11) 0.0000
O12_8 O 0.3381(9) 0.6392(11) 1.0000
O12_9 O 0.1392(11) 0.8381(9) 0.5000
O12_10 O 0.8608(11) 0.1619(9) 0.5000
O12_11 O 0.8381(9) 0.8608(11) 0.5000
O12_12 O 0.1619(9) 0.1392(11) 0.5000
loop_
_geom_bond_atom_site_label_1
_geom_bond_atom_site_label_2
_geom_bond_site_symmetry_1
_geom_bond_site_symmetry_2
In1 O2 1_555 1_555
P1 O1 1_555 1_555
C1 H1 1_555 1_555
O1 In2 1_555 1_555
O2 C3 1_555 1_555
O3 In1 1_555 1_555
C2 P1 1_555 1_555
C3 O3 1_555 1_555
C4 C7 1_555 1_555
C5 H2 1_555 1_555
C6 C8 1_555 1_555
C7 C5 1_555 1_555
C8 H3 1_555 1_555
C9 C3 1_555 1_555
C10 C4 1_555 1_555
H4 C10 1_555 1_555
C12 C2 1_555 1_555
H5 C12 1_555 1_555
C13 C6 1_555 1_555
H6 C13 1_555 1_555
C14 C1 1_555 1_555
H7 C14 1_555 1_555
O7 P1 1_555 1_555
In5 O7 1_555 1_555
O8 In1 1_555 1_555
O9 In1 1_555 1_555
O11 In1 1_555 1_555
C1 C2 1_555 1_555
C4 C14 1_555 1_555
C5 C9 1_555 1_555
C7 C13 1_555 1_555
C8 C9 1_555 1_555
C10 C12 1_555 1_555
In1_2 O2_2 1_555 1_555
P1_2 O1_2 1_555 1_555
C1_2 H1_2 1_555 1_555
O1_2 In2_2 1_555 1_555
O2_2 C3_2 1_555 1_555
O3_2 In1_2 1_555 1_555
C2_2 P1_2 1_555 1_555
C3_2 O3_2 1_555 1_555
C4_2 C7_2 1_555 1_555
C5_2 H2_2 1_555 1_555
C6_2 C8_2 1_555 1_555
C7_2 C5_2 1_555 1_555
C8_2 H3_2 1_555 1_555
C9_2 C3_2 1_555 1_555
C10_2 C4_2 1_555 1_555
H4_2 C10_2 1_555 1_555
C12_2 C2_2 1_555 1_555
H5_2 C12_2 1_555 1_555
C13_2 C6_2 1_555 1_555
H6_2 C13_2 1_555 1_555
C14_2 C1_2 1_555 1_555
H7_2 C14_2 1_555 1_555
O6 P1_2 1_555 1_555
In5 O6 1_555 1_555
O8_2 In1_2 1_555 1_555
O9_2 In1_2 1_555 1_555
O10 In1_2 1_555 1_555
C1_2 C2_2 1_555 1_555
C4_2 C14_2 1_555 1_555
C5_2 C9_2 1_555 1_555
C7_2 C13_2 1_555 1_555
C8_2 C9_2 1_555 1_555
C10_2 C12_2 1_555 1_555
O4 C11 1_555 1_555
O5 C11 1_555 1_555
In3 O5 1_555 1_555
O4_2 C11_2 1_555 1_555
O5_2 C11_2 1_555 1_555
In3_2 O5_2 1_555 1_555
O4_3 C11_3 1_555 1_555
O5_3 C11_3 1_555 1_555
In2 O5_3 1_555 1_555
O4_4 C11_4 1_555 1_555
O5_4 C11_4 1_555 1_555
In2_2 O5_4 1_555 1_555
In1_3 O2_3 1_555 1_555
P1_3 O1_3 1_555 1_555
C1_3 H1_3 1_555 1_555
O1_3 In3 1_555 1_555
O2_3 C3_3 1_555 1_555
O3_3 In1_3 1_555 1_555
C2_3 P1_3 1_555 1_555
C3_3 O3_3 1_555 1_555
C4_3 C7_3 1_555 1_555
C5_3 H2_3 1_555 1_555
C6_3 C8_3 1_555 1_555
C7_3 C5_3 1_555 1_555
C8_3 H3_3 1_555 1_555
C9_3 C3_3 1_555 1_555
C10_3 C4_3 1_555 1_555
H4_3 C10_3 1_555 1_555
C12_3 C2_3 1_555 1_555
H5_3 C12_3 1_555 1_555
C13_3 C6_3 1_555 1_555
H6_3 C13_3 1_555 1_555
C14_3 C1_3 1_555 1_555
H7_3 C14_3 1_555 1_555
O7_2 P1_3 1_555 1_555
In5_2 O7_2 1_555 1_555
O8_3 In1_3 1_555 1_555
O9_3 In1_3 1_555 1_555
O11_2 In1_3 1_555 1_555
C1_3 C2_3 1_555 1_555
C4_3 C14_3 1_555 1_555
C5_3 C9_3 1_555 1_555
C7_3 C13_3 1_555 1_555
C8_3 C9_3 1_555 1_555
C10_3 C12_3 1_555 1_555
In1_4 O2_4 1_555 1_555
P1_4 O1_4 1_555 1_555
C1_4 H1_4 1_555 1_555
O1_4 In3_2 1_555 1_555
O2_4 C3_4 1_555 1_555
O3_4 In1_4 1_555 1_555
C2_4 P1_4 1_555 1_555
C3_4 O3_4 1_555 1_555
C4_4 C7_4 1_555 1_555
C5_4 H2_4 1_555 1_555
C6_4 C8_4 1_555 1_555
C7_4 C5_4 1_555 1_555
C8_4 H3_4 1_555 1_555
C9_4 C3_4 1_555 1_555
C10_4 C4_4 1_555 1_555
H4_4 C10_4 1_555 1_555
C12_4 C2_4 1_555 1_555
H5_4 C12_4 1_555 1_555
C13_4 C6_4 1_555 1_555
H6_4 C13_4 1_555 1_555
C14_4 C1_4 1_555 1_555
H7_4 C14_4 1_555 1_555
O6_2 P1_4 1_555 1_555
In5_2 O6_2 1_555 1_555
O8_4 In1_4 1_555 1_555
O9_4 In1_4 1_555 1_555
O10_2 In1_4 1_555 1_555
C1_4 C2_4 1_555 1_555
C4_4 C14_4 1_555 1_555
C5_4 C9_4 1_555 1_555
C7_4 C13_4 1_555 1_555
C8_4 C9_4 1_555 1_555
C10_4 C12_4 1_555 1_555
O4_5 C11_5 1_555 1_555
O9 C11_5 1_555 1_555
O4_6 C11_6 1_555 1_555
O9_2 C11_6 1_555 1_555
In2 O2_5 1_555 1_555
P1_5 O8_3 1_555 1_555
C1_5 H1_5 1_555 1_555
O2_5 C3_5 1_555 1_555
O3_5 In2 1_555 1_555
C2_5 P1_5 1_555 1_555
C3_5 O3_5 1_555 1_555
C4_5 C7_5 1_555 1_555
C5_5 H2_5 1_555 1_555
C6_5 C8_5 1_555 1_555
C7_5 C5_5 1_555 1_555
C8_5 H3_5 1_555 1_555
C9_5 C3_5 1_555 1_555
C10_5 C4_5 1_555 1_555
H4_5 C10_5 1_555 1_555
C12_5 C2_5 1_555 1_555
H5_5 C12_5 1_555 1_555
C13_5 C6_5 1_555 1_555
H6_5 C13_5 1_555 1_555
C14_5 C1_5 1_555 1_555
H7_5 C14_5 1_555 1_555
O7_3 P1_5 1_555 1_555
In5_3 O7_3 1_555 1_555
O11_3 In2 1_555 1_555
C1_5 C2_5 1_555 1_555
C4_5 C14_5 1_555 1_555
C5_5 C9_5 1_555 1_555
C7_5 C13_5 1_555 1_555
C8_5 C9_5 1_555 1_555
C10_5 C12_5 1_555 1_555
In2_2 O2_6 1_555 1_555
P1_6 O8_4 1_555 1_555
C1_6 H1_6 1_555 1_555
O2_6 C3_6 1_555 1_555
O3_6 In2_2 1_555 1_555
C2_6 P1_6 1_555 1_555
C3_6 O3_6 1_555 1_555
C4_6 C7_6 1_555 1_555
C5_6 H2_6 1_555 1_555
C6_6 C8_6 1_555 1_555
C7_6 C5_6 1_555 1_555
C8_6 H3_6 1_555 1_555
C9_6 C3_6 1_555 1_555
C10_6 C4_6 1_555 1_555
H4_6 C10_6 1_555 1_555
C12_6 C2_6 1_555 1_555
H5_6 C12_6 1_555 1_555
C13_6 C6_6 1_555 1_555
H6_6 C13_6 1_555 1_555
C14_6 C1_6 1_555 1_555
H7_6 C14_6 1_555 1_555
O6_3 P1_6 1_555 1_555
In5_3 O6_3 1_555 1_555
O10_3 In2_2 1_555 1_555
C1_6 C2_6 1_555 1_555
C4_6 C14_6 1_555 1_555
C5_6 C9_6 1_555 1_555
C7_6 C13_6 1_555 1_555
C8_6 C9_6 1_555 1_555
C10_6 C12_6 1_555 1_555
In3 O2_7 1_555 1_555
P1_7 O8 1_555 1_555
C1_7 H1_7 1_555 1_555
O2_7 C3_7 1_555 1_555
O3_7 In3 1_555 1_555
C2_7 P1_7 1_555 1_555
C3_7 O3_7 1_555 1_555
C4_7 C7_7 1_555 1_555
C5_7 H2_7 1_555 1_555
C6_7 C8_7 1_555 1_555
C7_7 C5_7 1_555 1_555
C8_7 H3_7 1_555 1_555
C9_7 C3_7 1_555 1_555
C10_7 C4_7 1_555 1_555
H4_7 C10_7 1_555 1_555
C12_7 C2_7 1_555 1_555
H5_7 C12_7 1_555 1_555
C13_7 C6_7 1_555 1_555
H6_7 C13_7 1_555 1_555
C14_7 C1_7 1_555 1_555
H7_7 C14_7 1_555 1_555
O7_4 P1_7 1_555 1_555
In5_4 O7_4 1_555 1_555
O11_4 In3 1_555 1_555
C1_7 C2_7 1_555 1_555
C4_7 C14_7 1_555 1_555
C5_7 C9_7 1_555 1_555
C7_7 C13_7 1_555 1_555
C8_7 C9_7 1_555 1_555
C10_7 C12_7 1_555 1_555
In3_2 O2_8 1_555 1_555
P1_8 O8_2 1_555 1_555
C1_8 H1_8 1_555 1_555
O2_8 C3_8 1_555 1_555
O3_8 In3_2 1_555 1_555
C2_8 P1_8 1_555 1_555
C3_8 O3_8 1_555 1_555
C4_8 C7_8 1_555 1_555
C5_8 H2_8 1_555 1_555
C6_8 C8_8 1_555 1_555
C7_8 C5_8 1_555 1_555
C8_8 H3_8 1_555 1_555
C9_8 C3_8 1_555 1_555
C10_8 C4_8 1_555 1_555
H4_8 C10_8 1_555 1_555
C12_8 C2_8 1_555 1_555
H5_8 C12_8 1_555 1_555
C13_8 C6_8 1_555 1_555
H6_8 C13_8 1_555 1_555
C14_8 C1_8 1_555 1_555
H7_8 C14_8 1_555 1_555
O6_4 P1_8 1_555 1_555
In5_4 O6_4 1_555 1_555
O10_4 In3_2 1_555 1_555
C1_8 C2_8 1_555 1_555
C4_8 C14_8 1_555 1_555
C5_8 C9_8 1_555 1_555
C7_8 C13_8 1_555 1_555
C8_8 C9_8 1_555 1_555
C10_8 C12_8 1_555 1_555
O4_7 C11_7 1_555 1_555
O9_3 C11_7 1_555 1_555
O4_8 C11_8 1_555 1_555
O9_4 C11_8 1_555 1_555
In5_2 O2_9 1_555 1_555
O2_9 C3_9 1_555 1_555
O3_9 In5_2 1_555 1_555
C3_9 O3_9 1_555 1_555
O4_9 C11_9 1_555 1_555
O5_5 C11_9 1_555 1_555
C4_9 C7_9 1_555 1_555
C5_9 H2_9 1_555 1_555
C6_9 C8_9 1_555 1_555
C7_9 C5_9 1_555 1_555
C8_9 H3_9 1_555 1_555
C9_9 C3_9 1_555 1_555
C10_9 C4_9 1_555 1_555
H4_9 C10_9 1_555 1_555
C11_9 C6_9 1_555 1_555
H5_9 C12_9 1_555 1_555
C13_9 C6_9 1_555 1_555
H6_9 C13_9 1_555 1_555
H7_9 C14_9 1_555 1_555
In5_4 O5_5 1_555 1_555
O8_5 In5_2 1_555 1_555
O9_5 In5_2 1_555 1_555
C4_9 C14_9 1_555 1_555
C5_9 C9_9 1_555 1_555
C7_9 C13_9 1_555 1_555
C8_9 C9_9 1_555 1_555
C10_9 C12_9 1_555 1_555
P1_9 O1_5 1_555 1_555
C1_9 H1_9 1_555 1_555
O1_5 In5_3 1_555 1_555
C2_9 P1_9 1_555 1_555
O10_2 P1_9 1_555 1_555
O11_2 P1_9 1_555 1_555
C1_9 C2_9 1_555 1_555
P1_10 O1_6 1_555 1_555
C1_10 H1_10 1_555 1_555
O1_6 In5_4 1_555 1_555
C2_10 P1_10 1_555 1_555
O10 P1_10 1_555 1_555
O11 P1_10 1_555 1_555
C1_10 C2_10 1_555 1_555
In5 O2_10 1_555 1_555
O2_10 C3_10 1_555 1_555
O3_10 In5 1_555 1_555
C3_10 O3_10 1_555 1_555
O4_10 C11_10 1_555 1_555
O5_6 C11_10 1_555 1_555
C4_10 C7_10 1_555 1_555
C5_10 H2_10 1_555 1_555
C6_10 C8_10 1_555 1_555
C7_10 C5_10 1_555 1_555
C8_10 H3_10 1_555 1_555
C9_10 C3_10 1_555 1_555
C10_10 C4_10 1_555 1_555
H4_10 C10_10 1_555 1_555
C11_10 C6_10 1_555 1_555
H5_10 C12_10 1_555 1_555
C13_10 C6_10 1_555 1_555
H6_10 C13_10 1_555 1_555
H7_10 C14_10 1_555 1_555
In5_3 O5_6 1_555 1_555
O8_6 In5 1_555 1_555
O9_6 In5 1_555 1_555
C4_10 C14_10 1_555 1_555
C5_10 C9_10 1_555 1_555
C7_10 C13_10 1_555 1_555
C8_10 C9_10 1_555 1_555
C10_10 C12_10 1_555 1_555
P1_11 O8_6 1_555 1_555
C1_11 H1_11 1_555 1_555
C2_11 P1_11 1_555 1_555
O10_3 P1_11 1_555 1_555
O11_3 P1_11 1_555 1_555
C1_11 C2_11 1_555 1_555
In5_3 O2_11 1_555 1_555
O2_11 C3_11 1_555 1_555
O3_11 In5_3 1_555 1_555
C3_11 O3_11 1_555 1_555
O4_11 C11_11 1_555 1_555
O9_5 C11_11 1_555 1_555
C4_11 C7_11 1_555 1_555
C5_11 H2_11 1_555 1_555
C6_11 C8_11 1_555 1_555
C7_11 C5_11 1_555 1_555
C8_11 H3_11 1_555 1_555
C9_11 C3_11 1_555 1_555
C10_11 C4_11 1_555 1_555
H4_11 C10_11 1_555 1_555
C11_11 C6_11 1_555 1_555
H5_11 C12_11 1_555 1_555
C13_11 C6_11 1_555 1_555
H6_11 C13_11 1_555 1_555
H7_11 C14_11 1_555 1_555
C4_11 C14_11 1_555 1_555
C5_11 C9_11 1_555 1_555
C7_11 C13_11 1_555 1_555
C8_11 C9_11 1_555 1_555
C10_11 C12_11 1_555 1_555
In5_4 O2_12 1_555 1_555
O2_12 C3_12 1_555 1_555
O3_12 In5_4 1_555 1_555
C3_12 O3_12 1_555 1_555
O4_12 C11_12 1_555 1_555
O9_6 C11_12 1_555 1_555
C4_12 C7_12 1_555 1_555
C5_12 H2_12 1_555 1_555
C6_12 C8_12 1_555 1_555
C7_12 C5_12 1_555 1_555
C8_12 H3_12 1_555 1_555
C9_12 C3_12 1_555 1_555
C10_12 C4_12 1_555 1_555
H4_12 C10_12 1_555 1_555
C11_12 C6_12 1_555 1_555
H5_12 C12_12 1_555 1_555
C13_12 C6_12 1_555 1_555
H6_12 C13_12 1_555 1_555
H7_12 C14_12 1_555 1_555
C4_12 C14_12 1_555 1_555
C5_12 C9_12 1_555 1_555
C7_12 C13_12 1_555 1_555
C8_12 C9_12 1_555 1_555
C10_12 C12_12 1_555 1_555
P1_12 O8_5 1_555 1_555
C1_12 H1_12 1_555 1_555
C2_12 P1_12 1_555 1_555
O10_4 P1_12 1_555 1_555
O11_4 P1_12 1_555 1_555
C1_12 C2_12 1_555 1_555

#END
