
###############################################################################
#
# This file contains modified crystal structure data generated from the
# MOF subset of the Cambridge Structural Database (CSD) v543 
# hosted by the Cambridge Crystallographic Data Centre (CCDC).
#
# This work is licensed under the Creative Commons
# Attribution-NonCommercial-ShareAlike 4.0 International License.
# To view a copy of this license, visit
# http://creativecommons.org/licenses/by-nc-sa/4.0/
# or send a letter to
# Creative Commons, PO Box 1866, Mountain View, CA 94042, USA.
#
# CIF created using the CSD Python API on 29 September 2022
# The structure has been converted into the P1 space group
# The structure has a 3D framework
# The original CSD entry WUBMIS is in the rhombohedral crystal system
# The framework has been calculated to contain at least 10.0% void space
# The void calculation uses a probe of radius 1.32A, grid spacing 0.4
#
###############################################################################

data_WUBMIS
_chemical_formula_moiety         '(C90 H27 Co8 O44)n'
_symmetry_cell_setting           triclinic
_symmetry_space_group_name_H-M   'P 1'
_symmetry_Int_Tables_number      1
_space_group_name_Hall           'P 1'
loop_
_symmetry_equiv_pos_site_id
_symmetry_equiv_pos_as_xyz
1 x,y,z
_cell_length_a                   26.089(3)
_cell_length_b                   26.089(3)
_cell_length_c                   6.8483(8)
_cell_angle_alpha                90
_cell_angle_beta                 90
_cell_angle_gamma                120
_cell_volume                     4036.72
loop_
_atom_site_label
_atom_site_type_symbol
_atom_site_fract_x
_atom_site_fract_y
_atom_site_fract_z
_atom_site_U_iso_or_equiv
_atom_site_thermal_displace_type
O1 O 0.336(3) 0.259(3) 0.087(16) 0.0038 Uiso
O2 O 0.315(6) 0.292(4) 0.437(17) 0.0038 Uiso
O3 O 0.277(3) 0.229(3) 0.671(3) 0.0038 Uiso
C1 C 0.320(5) 0.206(5) 0.175(20) 0.0038 Uiso
C2 C 0.337(10) 0.169(1) 0.08(4) 0.0038 Uiso
C3 C 0.305(5) 0.198(5) 0.37(3) 0.0038 Uiso
C4 C 0.300(5) 0.242(4) 0.483(17) 0.0038 Uiso
C5 C 0.295(5) 0.148(3) 0.48(4) 0.0038 Uiso
H2 H 0.283701 0.141778 0.651623 0.0016 Uiso
O4 O 0.336(3) 0.077(4) 0.087(16) 0.0038 Uiso
O5 O 0.315(6) 0.023(7) 0.437(17) 0.0038 Uiso
O6 O 0.277(3) 0.048(4) 0.671(3) 0.0038 Uiso
C6 C 0.320(5) 0.114(7) 0.175(20) 0.0038 Uiso
C7 C 0.305(5) 0.107(7) 0.37(3) 0.0038 Uiso
C8 C 0.300(5) 0.058(6) 0.483(17) 0.0038 Uiso
Co3 Co 0.2956(9) 0.2859(13) 0.881(16) 0.0001 Uiso
Co4 Co 0.2956(9) 0.0097(16) 0.881(16) 0.0001 Uiso
Co5 Co 0.3808(13) 0.0377(9) 0.214(16) 0.0001 Uiso
Co6 Co 0.3808(13) 0.3430(16) 0.214(16) 0.0001 Uiso
Co7 Co 0.3236(16) 0.3711(9) 0.548(16) 0.0001 Uiso
O11 O 0.310(7) 0.352(6) 0.104(17) 0.0038 Uiso
H1 H 0.360364 0.180464 0.939862 0.0038 Uiso
O7 O 0.256(4) 0.331(3) 0.754(16) 0.0038 Uiso
O9 O 0.375(4) 0.018(6) 0.770(17) 0.0038 Uiso
O10 O 0.375(4) 0.356(7) 0.770(17) 0.0038 Uiso
Co8 Co 0.3236(16) 0.9526(13) 0.548(16) 0.0001 Uiso
O12 O 0.310(7) 0.959(4) 0.104(17) 0.0038 Uiso
O8 O 0.256(4) 0.926(3) 0.754(16) 0.0038 Uiso
Co7_2 Co 0.0474(18) 0.6764(16) 0.548(16) 0.0001 Uiso
O11_2 O 0.041(9) 0.690(7) 0.104(17) 0.0038 Uiso
O7_2 O 0.074(5) 0.744(4) 0.754(16) 0.0038 Uiso
O1_2 O 0.923(4) 0.664(3) 0.087(16) 0.0038 Uiso
O2_2 O 0.977(7) 0.685(6) 0.437(17) 0.0038 Uiso
O3_2 O 0.952(4) 0.723(3) 0.671(3) 0.0038 Uiso
C1_2 C 0.886(7) 0.680(5) 0.175(20) 0.0038 Uiso
C2_2 C 0.832(10) 0.663(10) 0.08(4) 0.0038 Uiso
C3_2 C 0.893(7) 0.695(5) 0.37(3) 0.0038 Uiso
C4_2 C 0.942(6) 0.700(5) 0.483(17) 0.0038 Uiso
C5_2 C 0.853(6) 0.705(5) 0.48(4) 0.0038 Uiso
H2_2 H 0.858077 0.716299 0.651623 0.0016 Uiso
O4_2 O 0.741(5) 0.664(3) 0.087(16) 0.0038 Uiso
O5_2 O 0.708(9) 0.685(6) 0.437(17) 0.0038 Uiso
O6_2 O 0.771(5) 0.723(3) 0.671(3) 0.0038 Uiso
C6_2 C 0.794(9) 0.680(5) 0.175(20) 0.0038 Uiso
C7_2 C 0.802(9) 0.695(5) 0.37(3) 0.0038 Uiso
C8_2 C 0.758(8) 0.700(5) 0.483(17) 0.0038 Uiso
Co3_2 Co 0.9903(16) 0.7044(9) 0.881(16) 0.0001 Uiso
Co4_2 Co 0.7141(18) 0.7044(9) 0.881(16) 0.0001 Uiso
Co5_2 Co 0.6570(16) 0.6192(13) 0.214(16) 0.0001 Uiso
Co6_2 Co 0.9623(21) 0.6192(13) 0.214(16) 0.0001 Uiso
Co8_2 Co 0.6289(21) 0.6764(16) 0.548(16) 0.0001 Uiso
O12_2 O 0.648(8) 0.690(7) 0.104(17) 0.0038 Uiso
H1_2 H 0.820100 0.639636 0.939862 0.0038 Uiso
O8_2 O 0.669(5) 0.744(4) 0.754(16) 0.0038 Uiso
O9_2 O 0.644(7) 0.625(4) 0.770(17) 0.0038 Uiso
O10_2 O 0.982(8) 0.625(4) 0.770(17) 0.0038 Uiso
Co7_3 Co 0.0474(18) 0.3711(9) 0.548(16) 0.0001 Uiso
O11_3 O 0.041(9) 0.352(6) 0.104(17) 0.0038 Uiso
O7_3 O 0.074(5) 0.331(3) 0.754(16) 0.0038 Uiso
O1_3 O 0.923(4) 0.259(3) 0.087(16) 0.0038 Uiso
O2_3 O 0.977(7) 0.292(4) 0.437(17) 0.0038 Uiso
O3_3 O 0.952(4) 0.229(3) 0.671(3) 0.0038 Uiso
C1_3 C 0.886(7) 0.206(5) 0.175(20) 0.0038 Uiso
C2_3 C 0.832(10) 0.169(1) 0.08(4) 0.0038 Uiso
C3_3 C 0.893(7) 0.198(5) 0.37(3) 0.0038 Uiso
C4_3 C 0.942(6) 0.242(4) 0.483(17) 0.0038 Uiso
C5_3 C 0.853(6) 0.148(3) 0.48(4) 0.0038 Uiso
H2_3 H 0.858077 0.141778 0.651623 0.0016 Uiso
O4_3 O 0.741(5) 0.077(4) 0.087(16) 0.0038 Uiso
O5_3 O 0.708(9) 0.023(7) 0.437(17) 0.0038 Uiso
O6_3 O 0.771(5) 0.048(4) 0.671(3) 0.0038 Uiso
C6_3 C 0.794(9) 0.114(7) 0.175(20) 0.0038 Uiso
C7_3 C 0.802(9) 0.107(7) 0.37(3) 0.0038 Uiso
C8_3 C 0.758(8) 0.058(6) 0.483(17) 0.0038 Uiso
Co3_3 Co 0.9903(16) 0.2859(13) 0.881(16) 0.0001 Uiso
Co4_3 Co 0.7141(18) 0.0097(16) 0.881(16) 0.0001 Uiso
Co5_3 Co 0.6570(16) 0.0377(9) 0.214(16) 0.0001 Uiso
Co6_3 Co 0.9623(21) 0.3430(16) 0.214(16) 0.0001 Uiso
H1_3 H 0.820100 0.180464 0.939862 0.0038 Uiso
O9_3 O 0.644(7) 0.018(6) 0.770(17) 0.0038 Uiso
O10_3 O 0.982(8) 0.356(7) 0.770(17) 0.0038 Uiso
Co8_3 Co 0.6289(21) 0.9526(13) 0.548(16) 0.0001 Uiso
O12_3 O 0.648(8) 0.959(4) 0.104(17) 0.0038 Uiso
O8_3 O 0.669(5) 0.926(3) 0.754(16) 0.0038 Uiso
C2_4 C 0.831(1) 0.663(10) 0.08(4) 0.0038 Uiso
C5_4 C 0.852(3) 0.705(5) 0.48(4) 0.0038 Uiso
H1_4 H 0.819536 0.639636 0.939862 0.0038 Uiso
C2_5 C 0.831(1) 0.168(10) 0.08(4) 0.0038 Uiso
C5_5 C 0.852(3) 0.147(6) 0.48(4) 0.0038 Uiso
H1_5 H 0.819536 0.179900 0.939862 0.0038 Uiso
C2_6 C 0.337(10) 0.168(10) 0.08(4) 0.0038 Uiso
C5_6 C 0.295(5) 0.147(6) 0.48(4) 0.0038 Uiso
H1_6 H 0.360364 0.179900 0.939862 0.0038 Uiso
O3_4 O 0.619(4) 0.056(3) 0.004(3) 0.0038 Uiso
O6_4 O 0.438(5) 0.056(3) 0.004(3) 0.0038 Uiso
C1_4 C 0.553(7) 0.013(5) 0.508(20) 0.0038 Uiso
C3_4 C 0.560(7) 0.028(5) 0.70(3) 0.0038 Uiso
C4_4 C 0.609(6) 0.033(5) 0.816(17) 0.0038 Uiso
C5_7 C 0.520(6) 0.038(5) 0.81(4) 0.0038 Uiso
H2_4 H 0.524744 0.049632 0.984956 0.0016 Uiso
C6_4 C 0.461(9) 0.013(5) 0.508(20) 0.0038 Uiso
C7_4 C 0.469(9) 0.028(5) 0.70(3) 0.0038 Uiso
C8_4 C 0.425(8) 0.033(5) 0.816(17) 0.0038 Uiso
O1_4 O 0.590(4) 0.997(3) 0.420(16) 0.0038 Uiso
C2_7 C 0.499(10) 0.996(10) 0.41(4) 0.0038 Uiso
H1_7 H 0.486767 0.972969 0.273195 0.0038 Uiso
O4_4 O 0.408(5) 0.997(3) 0.420(16) 0.0038 Uiso
O3_5 O 0.619(4) 0.562(3) 0.004(3) 0.0038 Uiso
O6_5 O 0.438(5) 0.381(4) 0.004(3) 0.0038 Uiso
O1_5 O 0.590(4) 0.592(3) 0.420(16) 0.0038 Uiso
C1_5 C 0.553(7) 0.539(5) 0.508(20) 0.0038 Uiso
C2_8 C 0.499(10) 0.502(1) 0.41(4) 0.0038 Uiso
C3_5 C 0.560(7) 0.531(5) 0.70(3) 0.0038 Uiso
H1_8 H 0.486767 0.513797 0.273195 0.0038 Uiso
C4_5 C 0.609(6) 0.575(4) 0.816(17) 0.0038 Uiso
C5_8 C 0.520(6) 0.481(3) 0.81(4) 0.0038 Uiso
H2_5 H 0.524744 0.475111 0.984956 0.0016 Uiso
O4_5 O 0.408(5) 0.410(4) 0.420(16) 0.0038 Uiso
C6_5 C 0.461(9) 0.447(7) 0.508(20) 0.0038 Uiso
C7_5 C 0.469(9) 0.440(7) 0.70(3) 0.0038 Uiso
C8_5 C 0.425(8) 0.391(6) 0.816(17) 0.0038 Uiso
C5_9 C 0.519(3) 0.038(5) 0.81(4) 0.0038 Uiso
C2_9 C 0.498(1) 0.996(10) 0.41(4) 0.0038 Uiso
H1_9 H 0.486203 0.972969 0.273195 0.0038 Uiso
C2_10 C 0.498(1) 0.501(10) 0.41(4) 0.0038 Uiso
H1_10 H 0.486203 0.513233 0.273195 0.0038 Uiso
C5_10 C 0.519(3) 0.480(6) 0.81(4) 0.0038 Uiso
O1_6 O 0.003(3) 0.592(3) 0.420(16) 0.0038 Uiso
C2_11 C 0.004(10) 0.502(1) 0.41(4) 0.0038 Uiso
H1_11 H 0.027031 0.513797 0.273195 0.0038 Uiso
O4_6 O 0.003(3) 0.410(4) 0.420(16) 0.0038 Uiso
O3_6 O 0.944(3) 0.562(3) 0.004(3) 0.0038 Uiso
O6_6 O 0.944(3) 0.381(4) 0.004(3) 0.0038 Uiso
C1_6 C 0.987(5) 0.539(5) 0.508(20) 0.0038 Uiso
C3_6 C 0.972(5) 0.531(5) 0.70(3) 0.0038 Uiso
C4_6 C 0.967(5) 0.575(4) 0.816(17) 0.0038 Uiso
C5_11 C 0.962(5) 0.481(3) 0.81(4) 0.0038 Uiso
H2_6 H 0.950368 0.475111 0.984956 0.0016 Uiso
C6_6 C 0.987(5) 0.447(7) 0.508(20) 0.0038 Uiso
C7_6 C 0.972(5) 0.440(7) 0.70(3) 0.0038 Uiso
C8_6 C 0.967(5) 0.391(6) 0.816(17) 0.0038 Uiso
C2_12 C 0.004(10) 0.501(10) 0.41(4) 0.0038 Uiso
H1_12 H 0.027031 0.513233 0.273195 0.0038 Uiso
C5_12 C 0.962(5) 0.480(6) 0.81(4) 0.0038 Uiso
O3_7 O 0.285(4) 0.390(3) 0.338(3) 0.0038 Uiso
C3_7 C 0.226(7) 0.362(5) 0.04(3) 0.0038 Uiso
C4_7 C 0.275(6) 0.367(5) 0.150(17) 0.0038 Uiso
C5_13 C 0.186(6) 0.372(5) 0.15(4) 0.0038 Uiso
H2_7 H 0.191410 0.382966 0.318290 0.0016 Uiso
O6_7 O 0.104(5) 0.390(3) 0.338(3) 0.0038 Uiso
C7_7 C 0.135(9) 0.362(5) 0.04(3) 0.0038 Uiso
C8_7 C 0.091(8) 0.367(5) 0.150(17) 0.0038 Uiso
C1_7 C 0.219(7) 0.347(5) 0.842(20) 0.0038 Uiso
C2_13 C 0.165(10) 0.330(10) 0.75(4) 0.0038 Uiso
H1_13 H 0.153433 0.306303 0.606529 0.0038 Uiso
C6_7 C 0.127(9) 0.347(5) 0.842(20) 0.0038 Uiso
O3_8 O 0.285(4) 0.896(3) 0.338(3) 0.0038 Uiso
C3_8 C 0.226(7) 0.865(5) 0.04(3) 0.0038 Uiso
C4_8 C 0.275(6) 0.909(4) 0.150(17) 0.0038 Uiso
C5_14 C 0.186(6) 0.815(3) 0.15(4) 0.0038 Uiso
H2_8 H 0.191410 0.808445 0.318290 0.0016 Uiso
O6_8 O 0.104(5) 0.715(4) 0.338(3) 0.0038 Uiso
C7_8 C 0.135(9) 0.774(7) 0.04(3) 0.0038 Uiso
C8_8 C 0.091(8) 0.725(6) 0.150(17) 0.0038 Uiso
C1_8 C 0.219(7) 0.873(5) 0.842(20) 0.0038 Uiso
C2_14 C 0.165(10) 0.836(1) 0.75(4) 0.0038 Uiso
H1_14 H 0.153433 0.847131 0.606529 0.0038 Uiso
C6_8 C 0.127(9) 0.781(7) 0.842(20) 0.0038 Uiso
C5_15 C 0.185(3) 0.372(5) 0.15(4) 0.0038 Uiso
C2_15 C 0.164(1) 0.330(10) 0.75(4) 0.0038 Uiso
H1_15 H 0.152869 0.306303 0.606529 0.0038 Uiso
C5_16 C 0.185(3) 0.814(6) 0.15(4) 0.0038 Uiso
C2_16 C 0.164(1) 0.835(10) 0.75(4) 0.0038 Uiso
H1_16 H 0.152869 0.846567 0.606529 0.0038 Uiso
O3_9 O 0.610(3) 0.896(3) 0.338(3) 0.0038 Uiso
C3_9 C 0.638(5) 0.865(5) 0.04(3) 0.0038 Uiso
C4_9 C 0.633(5) 0.909(4) 0.150(17) 0.0038 Uiso
C5_17 C 0.628(5) 0.815(3) 0.15(4) 0.0038 Uiso
H2_9 H 0.617034 0.808445 0.318290 0.0016 Uiso
O6_9 O 0.610(3) 0.715(4) 0.338(3) 0.0038 Uiso
C7_9 C 0.638(5) 0.774(7) 0.04(3) 0.0038 Uiso
C8_9 C 0.633(5) 0.725(6) 0.150(17) 0.0038 Uiso
C1_9 C 0.653(5) 0.873(5) 0.842(20) 0.0038 Uiso
C2_17 C 0.670(10) 0.836(1) 0.75(4) 0.0038 Uiso
H1_17 H 0.693697 0.847131 0.606529 0.0038 Uiso
C6_9 C 0.653(5) 0.781(7) 0.842(20) 0.0038 Uiso
C5_18 C 0.628(5) 0.814(6) 0.15(4) 0.0038 Uiso
C2_18 C 0.670(10) 0.835(10) 0.75(4) 0.0038 Uiso
H1_18 H 0.693697 0.846567 0.606529 0.0038 Uiso
loop_
_geom_bond_atom_site_label_1
_geom_bond_atom_site_label_2
_geom_bond_site_symmetry_1
_geom_bond_site_symmetry_2
O1 C1 1_555 1_555
O2 C4 1_555 1_555
O3 C4 1_555 1_555
C1 C2 1_555 1_555
C3 C1 1_555 1_555
C4 C3 1_555 1_555
C5 C3 1_555 1_555
H2 C5 1_555 1_555
O4 C6 1_555 1_555
O5 C8 1_555 1_555
O6 C8 1_555 1_555
C6 C2 1_555 1_555
C7 C5 1_555 1_555
C8 C7 1_555 1_555
Co3 O3 1_555 1_555
Co4 O6 1_555 1_555
Co5 O4 1_555 1_555
Co6 O1 1_555 1_555
Co7 O2 1_555 1_555
O2 Co6 1_555 1_555
O5 Co5 1_555 1_555
C6 C7 1_555 1_555
Co6 O11 1_555 1_555
O7 Co3 1_555 1_555
O9 Co4 1_555 1_555
O10 Co3 1_555 1_555
O1_2 C1_2 1_555 1_555
O2_2 C4_2 1_555 1_555
O3_2 C4_2 1_555 1_555
C1_2 C2_2 1_555 1_555
C3_2 C1_2 1_555 1_555
C4_2 C3_2 1_555 1_555
C5_2 C3_2 1_555 1_555
H2_2 C5_2 1_555 1_555
O4_2 C6_2 1_555 1_555
O5_2 C8_2 1_555 1_555
O6_2 C8_2 1_555 1_555
C6_2 C2_2 1_555 1_555
C7_2 C5_2 1_555 1_555
C8_2 C7_2 1_555 1_555
Co3_2 O3_2 1_555 1_555
Co4_2 O6_2 1_555 1_555
Co5_2 O4_2 1_555 1_555
Co6_2 O1_2 1_555 1_555
Co8_2 O5_2 1_555 1_555
O2_2 Co6_2 1_555 1_555
O5_2 Co5_2 1_555 1_555
C6_2 C7_2 1_555 1_555
Co5_2 O12_2 1_555 1_555
O8_2 Co4_2 1_555 1_555
O9_2 Co4_2 1_555 1_555
O10_2 Co3_2 1_555 1_555
O1_3 C1_3 1_555 1_555
O2_3 C4_3 1_555 1_555
O3_3 C4_3 1_555 1_555
C1_3 C2_3 1_555 1_555
C3_3 C1_3 1_555 1_555
C4_3 C3_3 1_555 1_555
C5_3 C3_3 1_555 1_555
H2_3 C5_3 1_555 1_555
O4_3 C6_3 1_555 1_555
O5_3 C8_3 1_555 1_555
O6_3 C8_3 1_555 1_555
C6_3 C2_3 1_555 1_555
C7_3 C5_3 1_555 1_555
C8_3 C7_3 1_555 1_555
Co3_3 O3_3 1_555 1_555
Co4_3 O6_3 1_555 1_555
Co5_3 O4_3 1_555 1_555
Co6_3 O1_3 1_555 1_555
O2_3 Co6_3 1_555 1_555
O5_3 Co5_3 1_555 1_555
C6_3 C7_3 1_555 1_555
O9_3 Co4_3 1_555 1_555
O10_3 Co3_3 1_555 1_555
C6_2 C2_4 1_555 1_555
C5_4 C7_2 1_555 1_555
H2_2 C5_4 1_555 1_555
C1_2 C2_4 1_555 1_555
C3_2 C5_4 1_555 1_555
C6_3 C2_5 1_555 1_555
C5_5 C7_3 1_555 1_555
H2_3 C5_5 1_555 1_555
C1_3 C2_5 1_555 1_555
C3_3 C5_5 1_555 1_555
C6 C2_6 1_555 1_555
C5_6 C7 1_555 1_555
H2 C5_6 1_555 1_555
C1 C2_6 1_555 1_555
C3 C5_6 1_555 1_555
Co5_3 O3_4 1_555 1_555
Co5 O6_4 1_555 1_555
O9_3 C4_4 1_555 1_555
C3_4 C1_4 1_555 1_555
C4_4 C3_4 1_555 1_555
C5_7 C3_4 1_555 1_555
H2_4 C5_7 1_555 1_555
O9 C8_4 1_555 1_555
C7_4 C5_7 1_555 1_555
C8_4 C7_4 1_555 1_555
C6_4 C7_4 1_555 1_555
C2_7 H1_7 1_555 1_555
Co8 O4_4 1_555 1_555
Co8_3 O1_4 1_555 1_555
Co5_2 O3_5 1_555 1_555
Co6 O6_5 1_555 1_555
Co5_2 O1_5 1_555 1_555
O1_5 C1_5 1_555 1_555
O9_2 C4_5 1_555 1_555
C1_5 C2_8 1_555 1_555
C2_8 H1_8 1_555 1_555
C3_5 C1_5 1_555 1_555
C4_5 C3_5 1_555 1_555
C5_8 C3_5 1_555 1_555
H2_5 C5_8 1_555 1_555
O4_5 C6_5 1_555 1_555
O10 C8_5 1_555 1_555
C6_5 C2_8 1_555 1_555
C7_5 C5_8 1_555 1_555
C8_5 C7_5 1_555 1_555
Co6 O4_5 1_555 1_555
Co7 O4_5 1_555 1_555
Co8_2 O1_5 1_555 1_555
O9_2 Co8_2 1_555 1_555
O10 Co7 1_555 1_555
C6_5 C7_5 1_555 1_555
C5_9 C7_4 1_555 1_555
H2_4 C5_9 1_555 1_555
C3_4 C5_9 1_555 1_555
C2_9 H1_9 1_555 1_555
C6_5 C2_10 1_555 1_555
C2_10 H1_10 1_555 1_555
C5_10 C7_5 1_555 1_555
H2_5 C5_10 1_555 1_555
C1_5 C2_10 1_555 1_555
C3_5 C5_10 1_555 1_555
C2_11 H1_11 1_555 1_555
Co7_3 O4_6 1_555 1_555
Co7_2 O1_6 1_555 1_555
Co6_2 O3_6 1_555 1_555
Co6_3 O6_6 1_555 1_555
O10_2 C4_6 1_555 1_555
C3_6 C1_6 1_555 1_555
C4_6 C3_6 1_555 1_555
C5_11 C3_6 1_555 1_555
H2_6 C5_11 1_555 1_555
O10_3 C8_6 1_555 1_555
C7_6 C5_11 1_555 1_555
C8_6 C7_6 1_555 1_555
C6_6 C7_6 1_555 1_555
C2_12 H1_12 1_555 1_555
C5_12 C7_6 1_555 1_555
H2_6 C5_12 1_555 1_555
C3_6 C5_12 1_555 1_555
O11 C4_7 1_555 1_555
O3_7 C4_7 1_555 1_555
C4_7 C3_7 1_555 1_555
C5_13 C3_7 1_555 1_555
H2_7 C5_13 1_555 1_555
O11_3 C8_7 1_555 1_555
O6_7 C8_7 1_555 1_555
C7_7 C5_13 1_555 1_555
C8_7 C7_7 1_555 1_555
Co7 O3_7 1_555 1_555
Co7_3 O6_7 1_555 1_555
Co7 O7 1_555 1_555
O7 C1_7 1_555 1_555
C1_7 C2_13 1_555 1_555
C2_13 H1_13 1_555 1_555
O7_3 C6_7 1_555 1_555
C6_7 C2_13 1_555 1_555
Co7_3 O7_3 1_555 1_555
O12 C4_8 1_555 1_555
O3_8 C4_8 1_555 1_555
C4_8 C3_8 1_555 1_555
C5_14 C3_8 1_555 1_555
H2_8 C5_14 1_555 1_555
O11_2 C8_8 1_555 1_555
O6_8 C8_8 1_555 1_555
C7_8 C5_14 1_555 1_555
C8_8 C7_8 1_555 1_555
Co8 O3_8 1_555 1_555
Co7_2 O6_8 1_555 1_555
Co8 O8 1_555 1_555
O8 C1_8 1_555 1_555
C1_8 C2_14 1_555 1_555
C2_14 H1_14 1_555 1_555
O7_2 C6_8 1_555 1_555
C6_8 C2_14 1_555 1_555
Co7_2 O7_2 1_555 1_555
C5_15 C7_7 1_555 1_555
H2_7 C5_15 1_555 1_555
C3_7 C5_15 1_555 1_555
C6_7 C2_15 1_555 1_555
C2_15 H1_15 1_555 1_555
C1_7 C2_15 1_555 1_555
C5_16 C7_8 1_555 1_555
H2_8 C5_16 1_555 1_555
C3_8 C5_16 1_555 1_555
C6_8 C2_16 1_555 1_555
C2_16 H1_16 1_555 1_555
C1_8 C2_16 1_555 1_555
O12_3 C4_9 1_555 1_555
O3_9 C4_9 1_555 1_555
C4_9 C3_9 1_555 1_555
C5_17 C3_9 1_555 1_555
H2_9 C5_17 1_555 1_555
O12_2 C8_9 1_555 1_555
O6_9 C8_9 1_555 1_555
C7_9 C5_17 1_555 1_555
C8_9 C7_9 1_555 1_555
Co8_3 O3_9 1_555 1_555
Co8_2 O6_9 1_555 1_555
Co8_3 O8_3 1_555 1_555
O8_3 C1_9 1_555 1_555
C1_9 C2_17 1_555 1_555
C2_17 H1_17 1_555 1_555
O8_2 C6_9 1_555 1_555
C6_9 C2_17 1_555 1_555
Co8_2 O8_2 1_555 1_555
C5_18 C7_9 1_555 1_555
H2_9 C5_18 1_555 1_555
C3_9 C5_18 1_555 1_555
C6_9 C2_18 1_555 1_555
C2_18 H1_18 1_555 1_555
C1_9 C2_18 1_555 1_555

#END
