
###############################################################################
#
# This file contains modified crystal structure data generated from the
# MOF subset of the Cambridge Structural Database (CSD) v543 
# hosted by the Cambridge Crystallographic Data Centre (CCDC).
#
# This work is licensed under the Creative Commons
# Attribution-NonCommercial-ShareAlike 4.0 International License.
# To view a copy of this license, visit
# http://creativecommons.org/licenses/by-nc-sa/4.0/
# or send a letter to
# Creative Commons, PO Box 1866, Mountain View, CA 94042, USA.
#
# CIF created using the CSD Python API on 29 September 2022
# The structure has been converted into the P1 space group
# The structure has a 3D framework
# The original CSD entry WUCWIC is in the tetragonal crystal system
# The framework has been calculated to contain at least 10.0% void space
# The void calculation uses a probe of radius 1.32A, grid spacing 0.4
#
###############################################################################

data_WUCWIC
_chemical_formula_moiety         '(C208 H122 N16 O66 Tb16)n'
_symmetry_cell_setting           triclinic
_symmetry_space_group_name_H-M   'P 1'
_symmetry_Int_Tables_number      1
_space_group_name_Hall           'P 1'
loop_
_symmetry_equiv_pos_site_id
_symmetry_equiv_pos_as_xyz
1 x,y,z
_cell_length_a                   30.2710(4)
_cell_length_b                   30.2710(4)
_cell_length_c                   8.2855(3)
_cell_angle_alpha                90
_cell_angle_beta                 90
_cell_angle_gamma                90
_cell_volume                     7592.28
loop_
_atom_site_label
_atom_site_type_symbol
_atom_site_fract_x
_atom_site_fract_y
_atom_site_fract_z
O3 O 0.06032(10) 0.14894(9) 0.2100(4)
C8 C 0.0791(2) 0.01819(16) 0.3710(8)
H5 H 0.1027 0.0109 0.4379
C9 C 0.0726(2) 0.06184(17) 0.3287(7)
H6 H 0.0921 0.0833 0.3660
C10 C 0.03787(17) 0.07390(15) 0.2326(6)
C11 C 0.00752(18) 0.04129(16) 0.1898(6)
C13 C 0.03162(16) 0.12067(14) 0.1725(5)
Tb3 Tb 0.056925(6) 0.224228(6) 0.28945(2)
Tb1 Tb 0.025772(6) 0.806925(6) 0.03945(2)
O1 O 0.05893(10) 0.77687(9) 0.2727(3)
O2 O 0.08155(9) 0.78225(9) 0.5292(3)
N1 N 0.05714(11) 0.86418(11) 0.2388(4)
C1 C 0.07062(13) 0.79847(13) 0.3959(5)
C2 C 0.06973(14) 0.84826(13) 0.3820(5)
C3 C 0.07918(18) 0.87558(15) 0.5092(6)
H2 H 0.0895 0.8637 0.6056
C4 C 0.0735(2) 0.92056(15) 0.4951(6)
H3 H 0.0790 0.9391 0.5824
C5 C 0.05936(17) 0.93796(15) 0.3470(6)
C6 C 0.05256(16) 0.90745(14) 0.2237(6)
H4 H 0.0442 0.9183 0.1232
C7 C 0.05172(18) 0.98546(15) 0.3170(6)
C12 C 0.01414(19) 0.99789(16) 0.2329(7)
Tb5 Tb 0.056925(6) 0.724228(6) 0.71055(2)
O7 O 0.10106(9) 0.81032(10) 0.9600(4)
O8 O 0.00198(10) 0.87223(9) 0.9136(3)
O9 O 0.04030(9) 0.73137(8) 0.9904(3)
O10 O 0.01863(8) 0.79030(9) 0.7596(3)
O4 O 0.99802(10) 0.12777(9) 0.0864(3)
H7 H 0.9824 0.0490 0.1314
Tb4 Tb 0.974228(6) 0.193075(6) 0.96055(2)
H1 H 0.9387 0.7782 0.0492
H8 H 0.9932 0.9767 0.2053
Tb2 Tb 0.974228(6) 0.693075(6) 0.03945(2)
O6 O 0.96775(9) 0.83155(9) 0.2208(3)
O5 O 0.95970(9) 0.76863(8) 0.9904(3)
Tb6 Tb 0.943075(6) 0.775772(6) 0.71055(2)
O2_2 O 0.41845(9) 0.21775(9) 0.0292(3)
C3_2 C 0.42082(18) 0.12442(15) 0.0092(6)
H2_2 H 0.4105 0.1363 0.1056
H3_2 H 0.4210 0.0609 0.0824
Tb5_2 Tb 0.443075(6) 0.275772(6) 0.21055(2)
Tb1_2 Tb 0.474228(6) 0.193075(6) 0.53945(2)
O1_2 O 0.44107(10) 0.22313(9) 0.7727(3)
O5_2 O 0.54030(9) 0.23137(8) 0.4904(3)
H1_2 H 0.5613 0.2218 0.5492
N1_2 N 0.44286(11) 0.13582(11) 0.7388(4)
C1_2 C 0.42938(13) 0.20153(13) 0.8959(5)
C2_2 C 0.43027(14) 0.15174(13) 0.8820(5)
C4_2 C 0.4265(2) 0.07944(15) 0.9951(6)
C5_2 C 0.44064(17) 0.06204(15) 0.8470(6)
C6_2 C 0.44744(16) 0.09255(14) 0.7237(6)
H4_2 H 0.4558 0.0817 0.6232
C7_2 C 0.44828(18) 0.01454(15) 0.8170(6)
C12_2 C 0.48586(19) 0.00211(16) 0.7329(7)
H8_2 H 0.5068 0.0233 0.7053
Tb2_2 Tb 0.525772(6) 0.306925(6) 0.53945(2)
Tb6_2 Tb 0.556925(6) 0.224228(6) 0.21055(2)
O6_2 O 0.53225(9) 0.16845(9) 0.7208(3)
O7_2 O 0.39894(9) 0.18968(10) 0.4600(4)
O8_2 O 0.49802(10) 0.12777(9) 0.4136(3)
O9_2 O 0.45970(9) 0.26863(8) 0.4904(3)
O10_2 O 0.48137(8) 0.20970(9) 0.2596(3)
O3_2 O 0.43968(10) 0.85106(9) 0.7100(4)
O4_2 O 0.50198(10) 0.87223(9) 0.5864(3)
C8_2 C 0.4209(2) 0.98181(16) 0.8710(8)
H5_2 H 0.3973 0.9891 0.9379
C9_2 C 0.4274(2) 0.93816(17) 0.8287(7)
H6_2 H 0.4079 0.9167 0.8660
C10_2 C 0.46213(17) 0.92610(15) 0.7326(6)
C11_2 C 0.49248(18) 0.95871(16) 0.6898(6)
H7_2 H 0.5176 0.9510 0.6314
C13_2 C 0.46838(16) 0.87933(14) 0.6725(5)
Tb3_2 Tb 0.443075(6) 0.775772(6) 0.78945(2)
Tb4_2 Tb 0.525772(6) 0.806925(6) 0.46055(2)
Tb5_3 Tb 0.025772(6) 0.306925(6) 0.96055(2)
O9_3 O 0.01863(8) 0.29030(9) 0.2404(3)
Tb1_3 Tb 0.943075(6) 0.275772(6) 0.28945(2)
O1_3 O 0.97313(9) 0.30893(10) 0.5227(3)
O2_3 O 0.96775(9) 0.33155(9) 0.7792(3)
O3_3 O 0.60106(9) 0.31032(10) 0.4600(4)
O4_3 O 0.62223(9) 0.24802(10) 0.3364(3)
O5_3 O 0.98137(8) 0.20970(9) 0.2404(3)
H1_3 H 0.9718 0.1887 0.2992
N1_3 N 0.88582(11) 0.30714(11) 0.4888(4)
C1_3 C 0.95153(13) 0.32062(13) 0.6459(5)
C2_3 C 0.90174(13) 0.31973(14) 0.6320(5)
C3_3 C 0.87442(15) 0.32918(18) 0.7592(6)
H2_3 H 0.8863 0.3395 0.8556
C4_3 C 0.82944(15) 0.3235(2) 0.7451(6)
H3_3 H 0.8109 0.3290 0.8324
C5_3 C 0.81204(15) 0.30936(17) 0.5970(6)
C6_3 C 0.84255(14) 0.30256(16) 0.4737(6)
H4_3 H 0.8317 0.2942 0.3732
C7_3 C 0.76454(15) 0.30172(18) 0.5670(6)
C8_3 C 0.73181(16) 0.3291(2) 0.6210(8)
H5_3 H 0.7391 0.3527 0.6879
C9_3 C 0.68816(17) 0.3226(2) 0.5787(7)
H6_3 H 0.6667 0.3421 0.6160
C10_3 C 0.67610(15) 0.28787(17) 0.4826(6)
C11_3 C 0.70871(16) 0.25752(18) 0.4398(6)
H7_3 H 0.7010 0.2324 0.3814
C12_3 C 0.75211(16) 0.26414(19) 0.4829(7)
H8_3 H 0.7733 0.2432 0.4553
C13_3 C 0.62933(14) 0.28162(16) 0.4225(5)
O6_3 O 0.91845(9) 0.21775(9) 0.4708(3)
O7_3 O 0.93968(10) 0.35106(9) 0.2100(4)
O8_3 O 0.87777(9) 0.25198(10) 0.1636(3)
O10_3 O 0.95970(9) 0.26863(8) 0.0096(3)
O1_4 O 0.52687(9) 0.69107(10) 0.0227(3)
O2_4 O 0.53225(9) 0.66845(9) 0.2792(3)
C1_4 C 0.54847(13) 0.67938(13) 0.1459(5)
C2_4 C 0.59826(13) 0.68027(14) 0.1320(5)
C3_4 C 0.62558(15) 0.67082(18) 0.2592(6)
H2_4 H 0.6137 0.6605 0.3556
C4_4 C 0.67056(15) 0.6765(2) 0.2451(6)
H3_4 H 0.6891 0.6710 0.3324
C5_4 C 0.68796(15) 0.69064(17) 0.0970(6)
C7_4 C 0.73546(15) 0.69828(18) 0.0670(6)
C8_4 C 0.76819(16) 0.6709(2) 0.1210(8)
H5_4 H 0.7609 0.6473 0.1879
C9_4 C 0.81184(17) 0.6774(2) 0.0787(7)
H6_4 H 0.8333 0.6579 0.1160
Tb5_4 Tb 0.474228(6) 0.693075(6) 0.46055(2)
Tb1_4 Tb 0.556925(6) 0.724228(6) 0.78945(2)
O3_4 O 0.89894(9) 0.68968(10) 0.9600(4)
O4_4 O 0.87777(9) 0.75198(10) 0.8364(3)
O5_4 O 0.51863(8) 0.79030(9) 0.7404(3)
H1_4 H 0.5282 0.8113 0.7992
N1_4 N 0.61418(11) 0.69286(11) 0.9888(4)
C6_4 C 0.65745(14) 0.69744(16) 0.9737(6)
H4_4 H 0.6683 0.7058 0.8732
C10_4 C 0.82390(15) 0.71213(17) 0.9826(6)
C11_4 C 0.79129(16) 0.74248(18) 0.9398(6)
H7_4 H 0.7990 0.7676 0.8814
C12_4 C 0.74789(16) 0.73586(19) 0.9829(7)
H8_4 H 0.7267 0.7568 0.9553
C13_4 C 0.87067(14) 0.71838(16) 0.9225(5)
O6_4 O 0.58155(9) 0.78225(9) 0.9708(3)
O7_4 O 0.56032(10) 0.64894(9) 0.7100(4)
O8_4 O 0.62223(9) 0.74802(10) 0.6636(3)
O9_4 O 0.48137(8) 0.70970(9) 0.7404(3)
O10_4 O 0.54030(9) 0.73137(8) 0.5096(3)
O2_5 O 0.58155(9) 0.28225(9) 0.0292(3)
C3_5 C 0.57918(18) 0.37558(15) 0.0092(6)
H2_5 H 0.5895 0.3637 0.1056
H3_5 H 0.5790 0.4391 0.0824
O1_5 O 0.55893(10) 0.27687(9) 0.7727(3)
O4_5 O 0.49802(10) 0.62777(9) 0.5864(3)
H1_5 H 0.4387 0.2782 0.5492
N1_5 N 0.55714(11) 0.36418(11) 0.7388(4)
C1_5 C 0.57062(13) 0.29847(13) 0.8959(5)
C2_5 C 0.56973(14) 0.34826(13) 0.8820(5)
C4_5 C 0.5735(2) 0.42056(15) 0.9951(6)
C5_5 C 0.55936(17) 0.43796(15) 0.8470(6)
C6_5 C 0.55256(16) 0.40745(14) 0.7237(6)
H4_5 H 0.5442 0.4183 0.6232
C7_5 C 0.55172(18) 0.48546(15) 0.8170(6)
C8_5 C 0.5791(2) 0.51819(16) 0.8710(8)
H5_5 H 0.6027 0.5109 0.9379
C9_5 C 0.5726(2) 0.56184(17) 0.8287(7)
H6_5 H 0.5921 0.5833 0.8660
C10_5 C 0.53787(17) 0.57390(15) 0.7326(6)
C11_5 C 0.50752(18) 0.54129(16) 0.6898(6)
H7_5 H 0.4824 0.5490 0.6314
C12_5 C 0.51414(19) 0.49789(16) 0.7329(7)
H8_5 H 0.4932 0.4767 0.7053
C13_5 C 0.53162(16) 0.62067(14) 0.6725(5)
O6_5 O 0.46775(9) 0.33155(9) 0.7208(3)
O8_5 O 0.50198(10) 0.37223(9) 0.4136(3)
O10_5 O 0.51863(8) 0.29030(9) 0.2596(3)
O4_6 O 0.00198(10) 0.37223(9) 0.0864(3)
H1_6 H 0.0613 0.7218 0.0492
H7_6 H 0.0176 0.4510 0.1314
H8_6 H 0.0068 0.5233 0.2053
O6_6 O 0.03225(9) 0.66845(9) 0.2208(3)
O1_6 O 0.94107(10) 0.72313(9) 0.2727(3)
O2_6 O 0.91845(9) 0.71775(9) 0.5292(3)
N1_6 N 0.94286(11) 0.63582(11) 0.2388(4)
C1_6 C 0.92938(13) 0.70153(13) 0.3959(5)
C2_6 C 0.93027(14) 0.65174(13) 0.3820(5)
C3_6 C 0.92082(18) 0.62442(15) 0.5092(6)
H2_6 H 0.9105 0.6363 0.6056
C4_6 C 0.9265(2) 0.57944(15) 0.4951(6)
H3_6 H 0.9210 0.5609 0.5824
C5_6 C 0.94064(17) 0.56204(15) 0.3470(6)
C6_6 C 0.94744(16) 0.59255(14) 0.2237(6)
H4_6 H 0.9558 0.5817 0.1232
C7_6 C 0.94828(18) 0.51454(15) 0.3170(6)
C8_6 C 0.9209(2) 0.48181(16) 0.3710(8)
H5_6 H 0.8973 0.4891 0.4379
C9_6 C 0.9274(2) 0.43816(17) 0.3287(7)
H6_6 H 0.9079 0.4167 0.3660
C10_6 C 0.96213(17) 0.42610(15) 0.2326(6)
C11_6 C 0.99248(18) 0.45871(16) 0.1898(6)
C12_6 C 0.98586(19) 0.50211(16) 0.2329(7)
C13_6 C 0.96838(16) 0.37933(14) 0.1725(5)
O8_6 O 0.99802(10) 0.62777(9) 0.9136(3)
O10_6 O 0.98137(8) 0.70970(9) 0.7596(3)
O1_7 O 0.47313(9) 0.80893(10) 0.0227(3)
O2_7 O 0.46775(9) 0.83155(9) 0.2792(3)
C1_7 C 0.45153(13) 0.82062(13) 0.1459(5)
C2_7 C 0.40174(13) 0.81973(14) 0.1320(5)
C3_7 C 0.37442(15) 0.82918(18) 0.2592(6)
H2_7 H 0.3863 0.8395 0.3556
C4_7 C 0.32944(15) 0.8235(2) 0.2451(6)
H3_7 H 0.3109 0.8290 0.3324
C5_7 C 0.31204(15) 0.80936(17) 0.0970(6)
C7_7 C 0.26454(15) 0.80172(18) 0.0670(6)
C8_7 C 0.23181(16) 0.8291(2) 0.1210(8)
H5_7 H 0.2391 0.8527 0.1879
C9_7 C 0.18816(17) 0.8226(2) 0.0787(7)
H6_7 H 0.1667 0.8421 0.1160
O4_7 O 0.12223(9) 0.74802(10) 0.8364(3)
H1_7 H 0.4718 0.6887 0.7992
N1_7 N 0.38582(11) 0.80714(11) 0.9888(4)
C6_7 C 0.34255(14) 0.80256(16) 0.9737(6)
H4_7 H 0.3317 0.7942 0.8732
C10_7 C 0.17610(15) 0.78787(17) 0.9826(6)
C11_7 C 0.20871(16) 0.75752(18) 0.9398(6)
H7_7 H 0.2010 0.7324 0.8814
C12_7 C 0.25211(16) 0.76414(19) 0.9829(7)
H8_7 H 0.2733 0.7432 0.9553
C13_7 C 0.12933(14) 0.78162(16) 0.9225(5)
O6_7 O 0.41845(9) 0.71775(9) 0.9708(3)
O8_7 O 0.37777(9) 0.75198(10) 0.6636(3)
O10_7 O 0.45970(9) 0.76863(8) 0.5096(3)
O1_8 O 0.02687(9) 0.19107(10) 0.5227(3)
O2_8 O 0.03225(9) 0.16845(9) 0.7792(3)
O4_8 O 0.37777(9) 0.25198(10) 0.3364(3)
H1_8 H 0.0282 0.3113 0.2992
N1_8 N 0.11418(11) 0.19286(11) 0.4888(4)
C1_8 C 0.04847(13) 0.17938(13) 0.6459(5)
C2_8 C 0.09826(13) 0.18027(14) 0.6320(5)
C3_8 C 0.12558(15) 0.17082(18) 0.7592(6)
H2_8 H 0.1137 0.1605 0.8556
C4_8 C 0.17056(15) 0.1765(2) 0.7451(6)
H3_8 H 0.1891 0.1710 0.8324
C5_8 C 0.18796(15) 0.19064(17) 0.5970(6)
C6_8 C 0.15745(14) 0.19744(16) 0.4737(6)
H4_8 H 0.1683 0.2058 0.3732
C7_8 C 0.23546(15) 0.19828(18) 0.5670(6)
C8_8 C 0.26819(16) 0.1709(2) 0.6210(8)
H5_8 H 0.2609 0.1473 0.6879
C9_8 C 0.31184(17) 0.1774(2) 0.5787(7)
H6_8 H 0.3333 0.1579 0.6160
C10_8 C 0.32390(15) 0.21213(17) 0.4826(6)
C11_8 C 0.29129(16) 0.24248(18) 0.4398(6)
H7_8 H 0.2990 0.2676 0.3814
C12_8 C 0.24789(16) 0.23586(19) 0.4829(7)
H8_8 H 0.2267 0.2568 0.4553
C13_8 C 0.37067(14) 0.21838(16) 0.4225(5)
O6_8 O 0.08155(9) 0.28225(9) 0.4708(3)
O8_8 O 0.12223(9) 0.24802(10) 0.1636(3)
O10_8 O 0.04030(9) 0.23137(8) 0.0096(3)
H1_9 H 0.0613 0.2218 0.9508
H8_9 H 0.0068 0.0233 0.7947
H7_9 H 0.0176 0.9510 0.8686
O7_5 O 0.89894(9) 0.18968(10) 0.0400(4)
O1_9 O 0.94107(10) 0.22313(9) 0.7273(3)
N1_9 N 0.94286(11) 0.13582(11) 0.7612(4)
C1_9 C 0.92938(13) 0.20153(13) 0.6041(5)
C2_9 C 0.93027(14) 0.15174(13) 0.6180(5)
C3_9 C 0.92082(18) 0.12442(15) 0.4908(6)
H2_9 H 0.9105 0.1363 0.3944
C4_9 C 0.9265(2) 0.07944(15) 0.5049(6)
H3_9 H 0.9210 0.0609 0.4176
C5_9 C 0.94064(17) 0.06204(15) 0.6530(6)
C6_9 C 0.94744(16) 0.09255(14) 0.7763(6)
H4_9 H 0.9558 0.0817 0.8768
C7_9 C 0.94828(18) 0.01454(15) 0.6830(6)
C12_9 C 0.98586(19) 0.00211(16) 0.7671(7)
O3_5 O 0.93968(10) 0.85106(9) 0.7900(4)
C8_9 C 0.9209(2) 0.98181(16) 0.6290(8)
H5_9 H 0.8973 0.9891 0.5621
C9_9 C 0.9274(2) 0.93816(17) 0.6713(7)
H6_9 H 0.9079 0.9167 0.6340
C10_9 C 0.96213(17) 0.92610(15) 0.7674(6)
C11_9 C 0.99248(18) 0.95871(16) 0.8102(6)
C13_9 C 0.96838(16) 0.87933(14) 0.8275(5)
O3_6 O 0.56032(10) 0.14894(9) 0.2900(4)
C8_10 C 0.5791(2) 0.01819(16) 0.1290(8)
H5_10 H 0.6027 0.0109 0.0621
C9_10 C 0.5726(2) 0.06184(17) 0.1713(7)
H6_10 H 0.5921 0.0833 0.1340
C10_10 C 0.53787(17) 0.07390(15) 0.2674(6)
C11_10 C 0.50752(18) 0.04129(16) 0.3102(6)
H7_10 H 0.4824 0.0490 0.3686
C13_10 C 0.53162(16) 0.12067(14) 0.3275(5)
O1_10 O 0.55893(10) 0.77687(9) 0.2273(3)
H1_10 H 0.4387 0.7782 0.4508
N1_10 N 0.55714(11) 0.86418(11) 0.2612(4)
C1_10 C 0.57062(13) 0.79847(13) 0.1041(5)
C2_10 C 0.56973(14) 0.84826(13) 0.1180(5)
C4_10 C 0.5735(2) 0.92056(15) 0.0049(6)
C5_10 C 0.55936(17) 0.93796(15) 0.1530(6)
C6_10 C 0.55256(16) 0.90745(14) 0.2763(6)
H4_10 H 0.5442 0.9183 0.3768
C7_10 C 0.55172(18) 0.98546(15) 0.1830(6)
C12_10 C 0.51414(19) 0.99789(16) 0.2671(7)
H8_10 H 0.4932 0.9767 0.2947
O7_6 O 0.60106(9) 0.81032(10) 0.5400(4)
C3_10 C 0.57918(18) 0.87558(15) 0.9908(6)
H2_10 H 0.5895 0.8637 0.8944
H3_10 H 0.5790 0.9391 0.9176
O1_11 O 0.02687(9) 0.69107(10) 0.4773(3)
O3_7 O 0.39894(9) 0.68968(10) 0.5400(4)
H1_11 H 0.0282 0.8113 0.7008
N1_11 N 0.11418(11) 0.69286(11) 0.5112(4)
C1_11 C 0.04847(13) 0.67938(13) 0.3541(5)
C2_11 C 0.09826(13) 0.68027(14) 0.3680(5)
C3_11 C 0.12558(15) 0.67082(18) 0.2408(6)
H2_11 H 0.1137 0.6605 0.1444
C4_11 C 0.17056(15) 0.6765(2) 0.2549(6)
H3_11 H 0.1891 0.6710 0.1676
C5_11 C 0.18796(15) 0.69064(17) 0.4030(6)
C6_11 C 0.15745(14) 0.69744(16) 0.5263(6)
H4_11 H 0.1683 0.7058 0.6268
C7_11 C 0.23546(15) 0.69828(18) 0.4330(6)
C8_11 C 0.26819(16) 0.6709(2) 0.3790(8)
H5_11 H 0.2609 0.6473 0.3121
C9_11 C 0.31184(17) 0.6774(2) 0.4213(7)
H6_11 H 0.3333 0.6579 0.3840
C10_11 C 0.32390(15) 0.71213(17) 0.5174(6)
C11_11 C 0.29129(16) 0.74248(18) 0.5602(6)
H7_11 H 0.2990 0.7676 0.6186
C12_11 C 0.24789(16) 0.73586(19) 0.5171(7)
H8_11 H 0.2267 0.7568 0.5447
C13_11 C 0.37067(14) 0.71838(16) 0.5775(5)
O7_7 O 0.06032(10) 0.64894(9) 0.7900(4)
O3_8 O 0.10106(9) 0.31032(10) 0.0400(4)
H1_12 H 0.4718 0.1887 0.2008
N1_12 N 0.38582(11) 0.30714(11) 0.0112(4)
C6_12 C 0.34255(14) 0.30256(16) 0.0263(6)
H4_12 H 0.3317 0.2942 0.1268
C10_12 C 0.17610(15) 0.28787(17) 0.0174(6)
C11_12 C 0.20871(16) 0.25752(18) 0.0602(6)
H7_12 H 0.2010 0.2324 0.1186
C12_12 C 0.25211(16) 0.26414(19) 0.0171(7)
H8_12 H 0.2733 0.2432 0.0447
C13_12 C 0.12933(14) 0.28162(16) 0.0775(5)
O7_8 O 0.43968(10) 0.35106(9) 0.2900(4)
O1_12 O 0.47313(9) 0.30893(10) 0.9773(3)
C1_12 C 0.45153(13) 0.32062(13) 0.8541(5)
C2_12 C 0.40174(13) 0.31973(14) 0.8680(5)
C3_12 C 0.37442(15) 0.32918(18) 0.7408(6)
H2_12 H 0.3863 0.3395 0.6444
C4_12 C 0.32944(15) 0.3235(2) 0.7549(6)
H3_12 H 0.3109 0.3290 0.6676
C5_12 C 0.31204(15) 0.30936(17) 0.9030(6)
C7_12 C 0.26454(15) 0.30172(18) 0.9330(6)
C8_12 C 0.23181(16) 0.3291(2) 0.8790(8)
H5_12 H 0.2391 0.3527 0.8121
C9_12 C 0.18816(17) 0.3226(2) 0.9213(7)
H6_12 H 0.1667 0.3421 0.8840
O1_13 O 0.44107(10) 0.72313(9) 0.2273(3)
H1_13 H 0.5613 0.7218 0.4508
N1_13 N 0.44286(11) 0.63582(11) 0.2612(4)
C1_13 C 0.42938(13) 0.70153(13) 0.1041(5)
C2_13 C 0.43027(14) 0.65174(13) 0.1180(5)
C4_13 C 0.4265(2) 0.57944(15) 0.0049(6)
C5_13 C 0.44064(17) 0.56204(15) 0.1530(6)
C6_13 C 0.44744(16) 0.59255(14) 0.2763(6)
H4_13 H 0.4558 0.5817 0.3768
C7_13 C 0.44828(18) 0.51454(15) 0.1830(6)
C8_13 C 0.4209(2) 0.48181(16) 0.1290(8)
H5_13 H 0.3973 0.4891 0.0621
C9_13 C 0.4274(2) 0.43816(17) 0.1713(7)
H6_13 H 0.4079 0.4167 0.1340
C10_13 C 0.46213(17) 0.42610(15) 0.2674(6)
C11_13 C 0.49248(18) 0.45871(16) 0.3102(6)
H7_13 H 0.5176 0.4510 0.3686
C12_13 C 0.48586(19) 0.50211(16) 0.2671(7)
H8_13 H 0.5068 0.5233 0.2947
C13_13 C 0.46838(16) 0.37933(14) 0.3275(5)
C3_13 C 0.42082(18) 0.62442(15) 0.9908(6)
H2_13 H 0.4105 0.6363 0.8944
H3_13 H 0.4210 0.5609 0.9176
O1_14 O 0.05893(10) 0.27687(9) 0.7273(3)
N1_14 N 0.05714(11) 0.36418(11) 0.7612(4)
C1_14 C 0.07062(13) 0.29847(13) 0.6041(5)
C2_14 C 0.06973(14) 0.34826(13) 0.6180(5)
C3_14 C 0.07918(18) 0.37558(15) 0.4908(6)
H2_14 H 0.0895 0.3637 0.3944
C4_14 C 0.0735(2) 0.42056(15) 0.5049(6)
H3_14 H 0.0790 0.4391 0.4176
C5_14 C 0.05936(17) 0.43796(15) 0.6530(6)
C6_14 C 0.05256(16) 0.40745(14) 0.7763(6)
H4_14 H 0.0442 0.4183 0.8768
C7_14 C 0.05172(18) 0.48546(15) 0.6830(6)
C8_14 C 0.0791(2) 0.51819(16) 0.6290(8)
H5_14 H 0.1027 0.5109 0.5621
C9_14 C 0.0726(2) 0.56184(17) 0.6713(7)
H6_14 H 0.0921 0.5833 0.6340
C10_14 C 0.03787(17) 0.57390(15) 0.7674(6)
C11_14 C 0.00752(18) 0.54129(16) 0.8102(6)
C12_14 C 0.01414(19) 0.49789(16) 0.7671(7)
C13_14 C 0.03162(16) 0.62067(14) 0.8275(5)
H1_14 H 0.9387 0.2782 0.9508
H7_14 H 0.9824 0.5490 0.8686
H8_14 H 0.9932 0.4767 0.7947
H1_15 H 0.5282 0.3113 0.2008
N1_15 N 0.61418(11) 0.19286(11) 0.0112(4)
C6_15 C 0.65745(14) 0.19744(16) 0.0263(6)
H4_15 H 0.6683 0.2058 0.1268
C10_15 C 0.82390(15) 0.21213(17) 0.0174(6)
C11_15 C 0.79129(16) 0.24248(18) 0.0602(6)
H7_15 H 0.7990 0.2676 0.1186
C12_15 C 0.74789(16) 0.23586(19) 0.0171(7)
H8_15 H 0.7267 0.2568 0.0447
C13_15 C 0.87067(14) 0.21838(16) 0.0775(5)
O1_15 O 0.52687(9) 0.19107(10) 0.9773(3)
C1_15 C 0.54847(13) 0.17938(13) 0.8541(5)
C2_15 C 0.59826(13) 0.18027(14) 0.8680(5)
C3_15 C 0.62558(15) 0.17082(18) 0.7408(6)
H2_15 H 0.6137 0.1605 0.6444
C4_15 C 0.67056(15) 0.1765(2) 0.7549(6)
H3_15 H 0.6891 0.1710 0.6676
C5_15 C 0.68796(15) 0.19064(17) 0.9030(6)
C7_15 C 0.73546(15) 0.19828(18) 0.9330(6)
C8_15 C 0.76819(16) 0.1709(2) 0.8790(8)
H5_15 H 0.7609 0.1473 0.8121
C9_15 C 0.81184(17) 0.1774(2) 0.9213(7)
H6_15 H 0.8333 0.1579 0.8840
O1_16 O 0.97313(9) 0.80893(10) 0.4773(3)
H1_16 H 0.9718 0.6887 0.7008
N1_16 N 0.88582(11) 0.80714(11) 0.5112(4)
C1_16 C 0.95153(13) 0.82062(13) 0.3541(5)
C2_16 C 0.90174(13) 0.81973(14) 0.3680(5)
C3_16 C 0.87442(15) 0.82918(18) 0.2408(6)
H2_16 H 0.8863 0.8395 0.1444
C4_16 C 0.82944(15) 0.8235(2) 0.2549(6)
H3_16 H 0.8109 0.8290 0.1676
C5_16 C 0.81204(15) 0.80936(17) 0.4030(6)
C6_16 C 0.84255(14) 0.80256(16) 0.5263(6)
H4_16 H 0.8317 0.7942 0.6268
C7_16 C 0.76454(15) 0.80172(18) 0.4330(6)
C8_16 C 0.73181(16) 0.8291(2) 0.3790(8)
H5_16 H 0.7391 0.8527 0.3121
C9_16 C 0.68816(17) 0.8226(2) 0.4213(7)
H6_16 H 0.6667 0.8421 0.3840
C10_16 C 0.67610(15) 0.78787(17) 0.5174(6)
C11_16 C 0.70871(16) 0.75752(18) 0.5602(6)
H7_16 H 0.7010 0.7324 0.6186
C12_16 C 0.75211(16) 0.76414(19) 0.5171(7)
H8_16 H 0.7733 0.7432 0.5447
C13_16 C 0.62933(14) 0.78162(16) 0.5775(5)
loop_
_geom_bond_atom_site_label_1
_geom_bond_atom_site_label_2
_geom_bond_site_symmetry_1
_geom_bond_site_symmetry_2
O3 C13 1_555 1_555
H5 C8 1_555 1_555
C9 C8 1_555 1_555
H6 C9 1_555 1_555
C10 C9 1_555 1_555
C11 C10 1_555 1_555
C13 C10 1_555 1_555
Tb3 O3 1_555 1_555
Tb1 O1 1_555 1_555
O1 C1 1_555 1_555
O2 C1 1_555 1_555
N1 Tb1 1_555 1_555
C1 C2 1_555 1_555
C2 N1 1_555 1_555
C3 C2 1_555 1_555
H2 C3 1_555 1_555
C4 C3 1_555 1_555
H3 C4 1_555 1_555
C5 C4 1_555 1_555
C6 N1 1_555 1_555
H4 C6 1_555 1_555
C7 C5 1_555 1_555
C12 C7 1_555 1_555
Tb5 O2 1_555 1_555
C5 C6 1_555 1_555
Tb6 O5 1_555 1_555
H2_2 C3_2 1_555 1_555
Tb5_2 O2_2 1_555 1_555
Tb1_2 O1_2 1_555 1_555
O1_2 C1_2 1_555 1_555
O5_2 Tb1_2 1_555 1_555
H1_2 O5_2 1_555 1_555
N1_2 Tb1_2 1_555 1_555
C1_2 C2_2 1_555 1_555
C2_2 N1_2 1_555 1_555
C5_2 C4_2 1_555 1_555
C6_2 N1_2 1_555 1_555
H4_2 C6_2 1_555 1_555
C7_2 C5_2 1_555 1_555
C12_2 C7_2 1_555 1_555
H8_2 C12_2 1_555 1_555
Tb2_2 O5_2 1_555 1_555
Tb6_2 O5_2 1_555 1_555
O6_2 Tb1_2 1_555 1_555
O7_2 Tb1_2 1_555 1_555
O8_2 Tb1_2 1_555 1_555
O9_2 Tb1_2 1_555 1_555
O10_2 Tb1_2 1_555 1_555
C5_2 C6_2 1_555 1_555
Tb2_2 O9_2 1_555 1_555
Tb6_2 O10_2 1_555 1_555
O3_2 C13_2 1_555 1_555
O4_2 C13_2 1_555 1_555
H5_2 C8_2 1_555 1_555
C9_2 C8_2 1_555 1_555
H6_2 C9_2 1_555 1_555
C10_2 C9_2 1_555 1_555
C11_2 C10_2 1_555 1_555
H7_2 C11_2 1_555 1_555
C13_2 C10_2 1_555 1_555
Tb3_2 O3_2 1_555 1_555
Tb4_2 O4_2 1_555 1_555
Tb3 O9_3 1_555 1_555
Tb1_3 O1_3 1_555 1_555
O1_3 C1_3 1_555 1_555
O2_3 C1_3 1_555 1_555
O3_3 C13_3 1_555 1_555
O4_3 C13_3 1_555 1_555
O5_3 Tb1_3 1_555 1_555
H1_3 O5_3 1_555 1_555
N1_3 Tb1_3 1_555 1_555
C1_3 C2_3 1_555 1_555
C2_3 N1_3 1_555 1_555
C3_3 C2_3 1_555 1_555
H2_3 C3_3 1_555 1_555
C4_3 C3_3 1_555 1_555
H3_3 C4_3 1_555 1_555
C5_3 C4_3 1_555 1_555
C6_3 N1_3 1_555 1_555
H4_3 C6_3 1_555 1_555
C7_3 C5_3 1_555 1_555
C8_3 C7_3 1_555 1_555
H5_3 C8_3 1_555 1_555
C9_3 C8_3 1_555 1_555
H6_3 C9_3 1_555 1_555
C10_3 C9_3 1_555 1_555
C11_3 C10_3 1_555 1_555
H7_3 C11_3 1_555 1_555
C12_3 C7_3 1_555 1_555
H8_3 C12_3 1_555 1_555
C13_3 C10_3 1_555 1_555
Tb2_2 O3_3 1_555 1_555
Tb6_2 O4_3 1_555 1_555
O6_3 Tb1_3 1_555 1_555
O7_3 Tb1_3 1_555 1_555
O8_3 Tb1_3 1_555 1_555
O10_3 Tb1_3 1_555 1_555
C5_3 C6_3 1_555 1_555
C11_3 C12_3 1_555 1_555
O1_4 C1_4 1_555 1_555
O2_4 C1_4 1_555 1_555
C1_4 C2_4 1_555 1_555
C3_4 C2_4 1_555 1_555
H2_4 C3_4 1_555 1_555
C4_4 C3_4 1_555 1_555
H3_4 C4_4 1_555 1_555
C5_4 C4_4 1_555 1_555
C7_4 C5_4 1_555 1_555
C8_4 C7_4 1_555 1_555
H5_4 C8_4 1_555 1_555
C9_4 C8_4 1_555 1_555
H6_4 C9_4 1_555 1_555
Tb5_4 O2_4 1_555 1_555
O3_4 C13_4 1_555 1_555
O4_4 C13_4 1_555 1_555
O5_4 Tb1_4 1_555 1_555
H1_4 O5_4 1_555 1_555
N1_4 Tb1_4 1_555 1_555
C6_4 N1_4 1_555 1_555
H4_4 C6_4 1_555 1_555
C11_4 C10_4 1_555 1_555
H7_4 C11_4 1_555 1_555
H8_4 C12_4 1_555 1_555
C13_4 C10_4 1_555 1_555
Tb3_2 O5_4 1_555 1_555
Tb6 O4_4 1_555 1_555
Tb4_2 O5_4 1_555 1_555
O6_4 Tb1_4 1_555 1_555
O7_4 Tb1_4 1_555 1_555
O8_4 Tb1_4 1_555 1_555
O9_4 Tb1_4 1_555 1_555
O10_4 Tb1_4 1_555 1_555
C11_4 C12_4 1_555 1_555
Tb3_2 O9_4 1_555 1_555
Tb4_2 O10_4 1_555 1_555
H2_5 C3_5 1_555 1_555
Tb6_2 O2_5 1_555 1_555
Tb2_2 O1_5 1_555 1_555
O1_5 C1_5 1_555 1_555
O7_4 C13_5 1_555 1_555
O4_5 C13_5 1_555 1_555
H1_5 O9_2 1_555 1_555
N1_5 Tb2_2 1_555 1_555
C1_5 C2_5 1_555 1_555
C2_5 N1_5 1_555 1_555
C5_5 C4_5 1_555 1_555
C6_5 N1_5 1_555 1_555
H4_5 C6_5 1_555 1_555
C7_5 C5_5 1_555 1_555
C8_5 C7_5 1_555 1_555
H5_5 C8_5 1_555 1_555
C9_5 C8_5 1_555 1_555
H6_5 C9_5 1_555 1_555
C10_5 C9_5 1_555 1_555
C11_5 C10_5 1_555 1_555
H7_5 C11_5 1_555 1_555
C12_5 C7_5 1_555 1_555
H8_5 C12_5 1_555 1_555
C13_5 C10_5 1_555 1_555
Tb5_4 O4_5 1_555 1_555
Tb5_2 O9_2 1_555 1_555
O6_5 Tb2_2 1_555 1_555
O8_5 Tb2_2 1_555 1_555
O10_5 Tb2_2 1_555 1_555
C5_5 C6_5 1_555 1_555
C11_5 C12_5 1_555 1_555
Tb5_2 O10_5 1_555 1_555
Tb5 O9 1_555 1_555
Tb2 O1_6 1_555 1_555
O1_6 C1_6 1_555 1_555
O2_6 C1_6 1_555 1_555
O7_3 C13_6 1_555 1_555
N1_6 Tb2 1_555 1_555
C1_6 C2_6 1_555 1_555
C2_6 N1_6 1_555 1_555
C3_6 C2_6 1_555 1_555
H2_6 C3_6 1_555 1_555
C4_6 C3_6 1_555 1_555
H3_6 C4_6 1_555 1_555
C5_6 C4_6 1_555 1_555
C6_6 N1_6 1_555 1_555
H4_6 C6_6 1_555 1_555
C7_6 C5_6 1_555 1_555
C8_6 C7_6 1_555 1_555
H5_6 C8_6 1_555 1_555
C9_6 C8_6 1_555 1_555
H6_6 C9_6 1_555 1_555
C10_6 C9_6 1_555 1_555
C11_6 C10_6 1_555 1_555
C12_6 C7_6 1_555 1_555
C13_6 C10_6 1_555 1_555
Tb6 O2_6 1_555 1_555
C5_6 C6_6 1_555 1_555
C11_6 C12_6 1_555 1_555
O1_7 C1_7 1_555 1_555
O2_7 C1_7 1_555 1_555
C1_7 C2_7 1_555 1_555
C3_7 C2_7 1_555 1_555
H2_7 C3_7 1_555 1_555
C4_7 C3_7 1_555 1_555
H3_7 C4_7 1_555 1_555
C5_7 C4_7 1_555 1_555
C7_7 C5_7 1_555 1_555
C8_7 C7_7 1_555 1_555
H5_7 C8_7 1_555 1_555
C9_7 C8_7 1_555 1_555
H6_7 C9_7 1_555 1_555
Tb4_2 O2_7 1_555 1_555
O7 C13_7 1_555 1_555
O4_7 C13_7 1_555 1_555
H1_7 O9_4 1_555 1_555
N1_7 Tb3_2 1_555 1_555
C6_7 N1_7 1_555 1_555
H4_7 C6_7 1_555 1_555
C11_7 C10_7 1_555 1_555
H7_7 C11_7 1_555 1_555
H8_7 C12_7 1_555 1_555
C13_7 C10_7 1_555 1_555
Tb5 O4_7 1_555 1_555
Tb5_4 O9_4 1_555 1_555
O6_7 Tb3_2 1_555 1_555
O8_7 Tb3_2 1_555 1_555
O10_7 Tb3_2 1_555 1_555
C11_7 C12_7 1_555 1_555
Tb5_4 O10_7 1_555 1_555
Tb3 O1_8 1_555 1_555
O1_8 C1_8 1_555 1_555
O2_8 C1_8 1_555 1_555
O7_2 C13_8 1_555 1_555
O4_8 C13_8 1_555 1_555
H1_8 O9_3 1_555 1_555
N1_8 Tb3 1_555 1_555
C1_8 C2_8 1_555 1_555
C2_8 N1_8 1_555 1_555
C3_8 C2_8 1_555 1_555
H2_8 C3_8 1_555 1_555
C4_8 C3_8 1_555 1_555
H3_8 C4_8 1_555 1_555
C5_8 C4_8 1_555 1_555
C6_8 N1_8 1_555 1_555
H4_8 C6_8 1_555 1_555
C7_8 C5_8 1_555 1_555
C8_8 C7_8 1_555 1_555
H5_8 C8_8 1_555 1_555
C9_8 C8_8 1_555 1_555
H6_8 C9_8 1_555 1_555
C10_8 C9_8 1_555 1_555
C11_8 C10_8 1_555 1_555
H7_8 C11_8 1_555 1_555
C12_8 C7_8 1_555 1_555
H8_8 C12_8 1_555 1_555
C13_8 C10_8 1_555 1_555
Tb5_2 O4_8 1_555 1_555
O6_8 Tb3 1_555 1_555
O8_8 Tb3 1_555 1_555
O10_8 Tb3 1_555 1_555
C5_8 C6_8 1_555 1_555
C11_8 C12_8 1_555 1_555
Tb4 O1_9 1_555 1_555
O1_9 C1_9 1_555 1_555
O6_3 C1_9 1_555 1_555
N1_9 Tb4 1_555 1_555
C1_9 C2_9 1_555 1_555
C2_9 N1_9 1_555 1_555
C3_9 C2_9 1_555 1_555
H2_9 C3_9 1_555 1_555
C4_9 C3_9 1_555 1_555
H3_9 C4_9 1_555 1_555
C5_9 C4_9 1_555 1_555
C6_9 N1_9 1_555 1_555
H4_9 C6_9 1_555 1_555
C7_9 C5_9 1_555 1_555
C12_9 C7_9 1_555 1_555
C5_9 C6_9 1_555 1_555
O3_5 C13_9 1_555 1_555
H5_9 C8_9 1_555 1_555
C9_9 C8_9 1_555 1_555
H6_9 C9_9 1_555 1_555
C10_9 C9_9 1_555 1_555
C11_9 C10_9 1_555 1_555
C13_9 C10_9 1_555 1_555
Tb6 O3_5 1_555 1_555
O3_6 C13_10 1_555 1_555
O8_2 C13_10 1_555 1_555
H5_10 C8_10 1_555 1_555
C9_10 C8_10 1_555 1_555
H6_10 C9_10 1_555 1_555
C10_10 C9_10 1_555 1_555
C11_10 C10_10 1_555 1_555
H7_10 C11_10 1_555 1_555
C13_10 C10_10 1_555 1_555
Tb6_2 O3_6 1_555 1_555
Tb4_2 O1_10 1_555 1_555
O1_10 C1_10 1_555 1_555
O10_7 Tb4_2 1_555 1_555
H1_10 O10_7 1_555 1_555
N1_10 Tb4_2 1_555 1_555
C1_10 C2_10 1_555 1_555
C2_10 N1_10 1_555 1_555
C5_10 C4_10 1_555 1_555
C6_10 N1_10 1_555 1_555
H4_10 C6_10 1_555 1_555
C7_10 C5_10 1_555 1_555
C12_10 C7_10 1_555 1_555
H8_10 C12_10 1_555 1_555
O7_6 Tb4_2 1_555 1_555
C5_10 C6_10 1_555 1_555
Tb5_4 O10_4 1_555 1_555
H2_10 C3_10 1_555 1_555
Tb5 O1_11 1_555 1_555
O1_11 C1_11 1_555 1_555
O6_6 C1_11 1_555 1_555
O3_7 C13_11 1_555 1_555
O8_7 C13_11 1_555 1_555
O10 Tb5 1_555 1_555
H1_11 O10 1_555 1_555
N1_11 Tb5 1_555 1_555
C1_11 C2_11 1_555 1_555
C2_11 N1_11 1_555 1_555
C3_11 C2_11 1_555 1_555
H2_11 C3_11 1_555 1_555
C4_11 C3_11 1_555 1_555
H3_11 C4_11 1_555 1_555
C5_11 C4_11 1_555 1_555
C6_11 N1_11 1_555 1_555
H4_11 C6_11 1_555 1_555
C7_11 C5_11 1_555 1_555
C8_11 C7_11 1_555 1_555
H5_11 C8_11 1_555 1_555
C9_11 C8_11 1_555 1_555
H6_11 C9_11 1_555 1_555
C10_11 C9_11 1_555 1_555
C11_11 C10_11 1_555 1_555
H7_11 C11_11 1_555 1_555
C12_11 C7_11 1_555 1_555
H8_11 C12_11 1_555 1_555
C13_11 C10_11 1_555 1_555
Tb5_4 O3_7 1_555 1_555
O7_7 Tb5 1_555 1_555
C5_11 C6_11 1_555 1_555
C11_11 C12_11 1_555 1_555
Tb6 O10_6 1_555 1_555
O3_8 C13_12 1_555 1_555
O8_8 C13_12 1_555 1_555
O10_2 Tb5_2 1_555 1_555
H1_12 O10_2 1_555 1_555
N1_12 Tb5_2 1_555 1_555
C6_12 N1_12 1_555 1_555
H4_12 C6_12 1_555 1_555
C11_12 C10_12 1_555 1_555
H7_12 C11_12 1_555 1_555
H8_12 C12_12 1_555 1_555
C13_12 C10_12 1_555 1_555
O7_8 Tb5_2 1_555 1_555
C11_12 C12_12 1_555 1_555
Tb6_2 O10_5 1_555 1_555
O1_12 C1_12 1_555 1_555
O6_5 C1_12 1_555 1_555
C1_12 C2_12 1_555 1_555
C3_12 C2_12 1_555 1_555
H2_12 C3_12 1_555 1_555
C4_12 C3_12 1_555 1_555
H3_12 C4_12 1_555 1_555
C5_12 C4_12 1_555 1_555
C7_12 C5_12 1_555 1_555
C8_12 C7_12 1_555 1_555
H5_12 C8_12 1_555 1_555
C9_12 C8_12 1_555 1_555
H6_12 C9_12 1_555 1_555
Tb5_4 O1_13 1_555 1_555
O1_13 C1_13 1_555 1_555
O7_8 C13_13 1_555 1_555
O8_5 C13_13 1_555 1_555
H1_13 O10_4 1_555 1_555
N1_13 Tb5_4 1_555 1_555
C1_13 C2_13 1_555 1_555
C2_13 N1_13 1_555 1_555
C5_13 C4_13 1_555 1_555
C6_13 N1_13 1_555 1_555
H4_13 C6_13 1_555 1_555
C7_13 C5_13 1_555 1_555
C8_13 C7_13 1_555 1_555
H5_13 C8_13 1_555 1_555
C9_13 C8_13 1_555 1_555
H6_13 C9_13 1_555 1_555
C10_13 C9_13 1_555 1_555
C11_13 C10_13 1_555 1_555
H7_13 C11_13 1_555 1_555
C12_13 C7_13 1_555 1_555
H8_13 C12_13 1_555 1_555
C13_13 C10_13 1_555 1_555
C5_13 C6_13 1_555 1_555
C11_13 C12_13 1_555 1_555
H2_13 C3_13 1_555 1_555
Tb5_3 O1_14 1_555 1_555
O1_14 C1_14 1_555 1_555
O6_8 C1_14 1_555 1_555
O7_7 C13_14 1_555 1_555
N1_14 Tb5_3 1_555 1_555
C1_14 C2_14 1_555 1_555
C2_14 N1_14 1_555 1_555
C3_14 C2_14 1_555 1_555
H2_14 C3_14 1_555 1_555
C4_14 C3_14 1_555 1_555
H3_14 C4_14 1_555 1_555
C5_14 C4_14 1_555 1_555
C6_14 N1_14 1_555 1_555
H4_14 C6_14 1_555 1_555
C7_14 C5_14 1_555 1_555
C8_14 C7_14 1_555 1_555
H5_14 C8_14 1_555 1_555
C9_14 C8_14 1_555 1_555
H6_14 C9_14 1_555 1_555
C10_14 C9_14 1_555 1_555
C11_14 C10_14 1_555 1_555
C12_14 C7_14 1_555 1_555
C13_14 C10_14 1_555 1_555
C5_14 C6_14 1_555 1_555
C11_14 C12_14 1_555 1_555
O7_5 C13_15 1_555 1_555
O8_3 C13_15 1_555 1_555
H1_15 O10_5 1_555 1_555
N1_15 Tb6_2 1_555 1_555
C6_15 N1_15 1_555 1_555
H4_15 C6_15 1_555 1_555
C11_15 C10_15 1_555 1_555
H7_15 C11_15 1_555 1_555
H8_15 C12_15 1_555 1_555
C13_15 C10_15 1_555 1_555
C11_15 C12_15 1_555 1_555
O1_15 C1_15 1_555 1_555
O6_2 C1_15 1_555 1_555
C1_15 C2_15 1_555 1_555
C3_15 C2_15 1_555 1_555
H2_15 C3_15 1_555 1_555
C4_15 C3_15 1_555 1_555
H3_15 C4_15 1_555 1_555
C5_15 C4_15 1_555 1_555
C7_15 C5_15 1_555 1_555
C8_15 C7_15 1_555 1_555
H5_15 C8_15 1_555 1_555
C9_15 C8_15 1_555 1_555
H6_15 C9_15 1_555 1_555
Tb6 O1_16 1_555 1_555
O1_16 C1_16 1_555 1_555
O6 C1_16 1_555 1_555
O7_6 C13_16 1_555 1_555
O8_4 C13_16 1_555 1_555
H1_16 O10_6 1_555 1_555
N1_16 Tb6 1_555 1_555
C1_16 C2_16 1_555 1_555
C2_16 N1_16 1_555 1_555
C3_16 C2_16 1_555 1_555
H2_16 C3_16 1_555 1_555
C4_16 C3_16 1_555 1_555
H3_16 C4_16 1_555 1_555
C5_16 C4_16 1_555 1_555
C6_16 N1_16 1_555 1_555
H4_16 C6_16 1_555 1_555
C7_16 C5_16 1_555 1_555
C8_16 C7_16 1_555 1_555
H5_16 C8_16 1_555 1_555
C9_16 C8_16 1_555 1_555
H6_16 C9_16 1_555 1_555
C10_16 C9_16 1_555 1_555
C11_16 C10_16 1_555 1_555
H7_16 C11_16 1_555 1_555
C12_16 C7_16 1_555 1_555
H8_16 C12_16 1_555 1_555
C13_16 C10_16 1_555 1_555
C5_16 C6_16 1_555 1_555
C11_16 C12_16 1_555 1_555

#END
