
###############################################################################
#
# This file contains modified crystal structure data generated from the
# MOF subset of the Cambridge Structural Database (CSD) v543 
# hosted by the Cambridge Crystallographic Data Centre (CCDC).
#
# This work is licensed under the Creative Commons
# Attribution-NonCommercial-ShareAlike 4.0 International License.
# To view a copy of this license, visit
# http://creativecommons.org/licenses/by-nc-sa/4.0/
# or send a letter to
# Creative Commons, PO Box 1866, Mountain View, CA 94042, USA.
#
# CIF created using the CSD Python API on 29 September 2022
# The structure has been converted into the P1 space group
# The structure has a 3D framework
# The original CSD entry WUDVEY is in the orthorhombic crystal system
# The framework has been calculated to contain at least 10.0% void space
# The void calculation uses a probe of radius 1.32A, grid spacing 0.4
# H atom positions have been added when not included in the experimental data
# Generated hydrogen atom positions removed from atoms on special positions
#
###############################################################################

data_WUDVEY
_chemical_formula_moiety         '(C264 H264 O54 Yb8)n'
_symmetry_cell_setting           triclinic
_symmetry_space_group_name_H-M   'P 1'
_symmetry_Int_Tables_number      1
_space_group_name_Hall           'P 1'
loop_
_symmetry_equiv_pos_site_id
_symmetry_equiv_pos_as_xyz
1 x,y,z
_cell_length_a                   32.7626(14)
_cell_length_b                   34.950(2)
_cell_length_c                   5.7721(4)
_cell_angle_alpha                90
_cell_angle_beta                 90
_cell_angle_gamma                90
_cell_volume                     6609.36
loop_
_atom_site_label
_atom_site_type_symbol
_atom_site_fract_x
_atom_site_fract_y
_atom_site_fract_z
O12 O 0.7647(4) 0.7047(3) 0.044(2)
C46 C 0.6017(5) 0.3676(4) 0.085(3)
H32 H 0.5907 0.3506 0.1919
C47 C 0.6003(5) 0.4064(4) 0.129(3)
H33 H 0.5871 0.4154 0.2606
C48 C 0.6200(6) 0.4749(4) 0.035(3)
H34 H 0.6430 0.4792 0.1378
H35 H 0.5954 0.4815 0.1193
H44 H 0.7176 0.6459 0.0185
H47 H 0.6942 0.4896 0.0151
Yb5 Yb 0.45629(4) 0.7500 0.1199(6)
O22 O 0.5181(5) 0.2933(5) 0.166(4)
O23 O 0.5181(5) 0.2067(5) 0.166(4)
Yb7 Yb 0.81885(4) 0.7500 0.0537(2)
Yb1 Yb 0.54371(4) 0.2500 0.8801(6)
O1 O 0.3521(5) 0.7004(3) 0.289(2)
O2 O 0.1920(3) 0.2958(3) 0.2376(19)
O4 O 0.4055(4) 0.7096(3) 0.067(3)
C1 C 0.3650(4) 0.5822(3) 0.222(3)
H1 H 0.3543 0.5652 0.3300
C2 C 0.3634(4) 0.6212(3) 0.269(3)
H2 H 0.3507 0.6301 0.4024
C3 C 0.2949(4) 0.4469(5) 0.525(4)
H3 H 0.2977 0.4426 0.6905
H4 H 0.2756 0.4677 0.5043
C4 C 0.3807(4) 0.6466(3) 0.115(3)
C5 C 0.3816(5) 0.5680(3) 0.024(3)
C6 C 0.3365(3) 0.4597(4) 0.430(3)
C7 C 0.4089(3) 0.4619(3) 0.465(3)
C8 C 0.4120(3) 0.4870(3) 0.284(3)
C9 C 0.3380(4) 0.4849(4) 0.250(3)
C10 C 0.2773(4) 0.4116(4) 0.418(3)
C11 C 0.2221(5) 0.3109(4) 0.132(4)
C12 C 0.3720(4) 0.4468(4) 0.540(3)
C16 C 0.4467(4) 0.4498(4) 0.608(3)
H9 H 0.4667 0.4703 0.6000
H10 H 0.4385 0.4472 0.7686
C17 C 0.2411(5) 0.3462(3) 0.232(3)
C18 C 0.3762(4) 0.4988(3) 0.165(3)
C19 C 0.4533(4) 0.5028(4) 0.218(3)
H11 H 0.4590 0.5253 0.3082
H12 H 0.4533 0.5093 0.0564
H13 H 0.4739 0.4839 0.2472
C20 C 0.3804(6) 0.6885(4) 0.166(4)
C21 C 0.2449(4) 0.3935(4) 0.533(4)
H14 H 0.2351 0.4035 0.6710
C22 C 0.4578(6) 0.3941(5) 0.340(4)
H15 H 0.4382 0.4038 0.2403
C23 C 0.2905(5) 0.3957(5) 0.221(4)
H16 H 0.3128 0.4068 0.1462
C24 C 0.4665(5) 0.4137(4) 0.533(4)
C25 C 0.2728(5) 0.3637(5) 0.122(3)
C26 C 0.5052(5) 0.3433(5) 0.427(6)
C27 C 0.2274(5) 0.3605(4) 0.441(3)
H18 H 0.2065 0.3481 0.5203
C28 C 0.2989(5) 0.4987(5) 0.130(5)
H19 H 0.2812 0.4773 0.1031
H21 H 0.2853 0.5170 0.2271
C29 C 0.3699(6) 0.4177(5) 0.729(3)
H22 H 0.3720 0.4302 0.8763
H23 H 0.3919 0.3998 0.7114
H24 H 0.3443 0.4043 0.7200
C30 C 0.4956(6) 0.3969(5) 0.679(5)
H25 H 0.5023 0.4089 0.8183
C31 C 0.4770(7) 0.3597(5) 0.282(4)
H26 H 0.4705 0.3477 0.1426
C32 C 0.5145(6) 0.3627(6) 0.620(7)
H27 H 0.5345 0.3529 0.7185
C33 C 0.5274(8) 0.3050(5) 0.386(6)
O6 O 0.5450(7) 0.2913(5) 0.549(6)
O7 O 0.4782(17) 0.2500 0.691(11)
Yb2 Yb 0.31885(4) 0.7500 0.4463(2)
O8 O 0.2909(6) 0.7500 0.087(3)
O9 O 0.3787(5) 0.7500 0.640(3)
O10 O 0.6479(5) 0.2996(3) 0.711(2)
O11 O 0.8080(3) 0.7042(3) 0.7624(19)
O13 O 0.5945(4) 0.2904(3) 0.933(3)
C34 C 0.6350(4) 0.4178(3) 0.778(3)
H28 H 0.6457 0.4348 0.6700
C35 C 0.6366(4) 0.3788(3) 0.731(3)
H29 H 0.6493 0.3699 0.5976
O14 O 0.4819(5) 0.7067(5) 0.834(4)
C36 C 0.7051(4) 0.5531(5) 0.475(4)
H30 H 0.7023 0.5574 0.3095
H31 H 0.7244 0.5323 0.4957
C37 C 0.6193(4) 0.3534(3) 0.885(3)
C38 C 0.6184(5) 0.4320(3) 0.976(3)
C39 C 0.6635(3) 0.5403(4) 0.570(3)
C40 C 0.5911(3) 0.5381(3) 0.535(3)
C41 C 0.5880(3) 0.5130(3) 0.716(3)
C42 C 0.6620(4) 0.5151(4) 0.750(3)
C43 C 0.7227(4) 0.5884(4) 0.582(3)
C44 C 0.7779(5) 0.6891(4) 0.868(4)
C45 C 0.6280(4) 0.5532(4) 0.460(3)
C49 C 0.5533(4) 0.5502(4) 0.392(3)
H36 H 0.5333 0.5297 0.4000
H37 H 0.5615 0.5528 0.2314
C50 C 0.7589(5) 0.6538(3) 0.768(3)
C51 C 0.6238(4) 0.5012(3) 0.835(3)
C52 C 0.5467(4) 0.4972(4) 0.782(3)
H38 H 0.5410 0.4747 0.6918
H39 H 0.5467 0.4907 0.9436
H40 H 0.5261 0.5161 0.7528
C53 C 0.6196(6) 0.3115(4) 0.834(4)
C54 C 0.7551(4) 0.6065(4) 0.467(4)
H41 H 0.7649 0.5965 0.3290
C55 C 0.5422(6) 0.6059(5) 0.660(4)
H42 H 0.5618 0.5962 0.7597
C56 C 0.7095(5) 0.6043(5) 0.779(4)
H43 H 0.6872 0.5932 0.8538
C57 C 0.5335(5) 0.5863(4) 0.467(4)
C58 C 0.7272(5) 0.6363(5) 0.878(3)
C59 C 0.4948(5) 0.6567(5) 0.573(6)
C60 C 0.7726(5) 0.6395(4) 0.559(3)
H45 H 0.7935 0.6519 0.4797
C61 C 0.7011(5) 0.5013(5) 0.870(5)
H46 H 0.7188 0.5227 0.8969
H48 H 0.7147 0.4830 0.7729
C62 C 0.6301(6) 0.5823(5) 0.271(3)
H49 H 0.6280 0.5698 0.1237
H50 H 0.6081 0.6002 0.2886
H51 H 0.6557 0.5957 0.2800
C63 C 0.5044(6) 0.6031(5) 0.321(5)
H52 H 0.4977 0.5911 0.1817
C64 C 0.5230(7) 0.6403(5) 0.718(4)
H53 H 0.5295 0.6523 0.8574
C65 C 0.4855(6) 0.6373(6) 0.380(7)
H54 H 0.4655 0.6471 0.2815
C66 C 0.4726(8) 0.6950(5) 0.614(6)
O15 O 0.4550(7) 0.7087(5) 0.451(6)
O16 O 0.3521(5) 0.7996(3) 0.289(2)
O17 O 0.3080(3) 0.7042(3) 0.7376(19)
O18 O 0.3080(3) 0.7958(3) 0.7376(19)
O19 O 0.2647(4) 0.7047(3) 0.456(2)
O20 O 0.2647(4) 0.7953(3) 0.456(2)
O21 O 0.5945(4) 0.2096(3) 0.933(3)
O24 O 0.5450(7) 0.2087(5) 0.549(6)
Yb8 Yb 0.68115(4) 0.2500 0.5537(2)
O3 O 0.2353(4) 0.2953(3) 0.956(2)
C13 C 0.3983(5) 0.6324(4) 0.915(3)
H5 H 0.4093 0.6494 0.8081
C14 C 0.3997(5) 0.5936(4) 0.871(3)
H6 H 0.4129 0.5846 0.7394
C15 C 0.3800(6) 0.5251(4) 0.965(3)
H7 H 0.3570 0.5208 0.8622
H8 H 0.4046 0.5185 0.8807
H17 H 0.2824 0.3541 0.9815
H20 H 0.3058 0.5104 0.9849
Yb6 Yb 0.18115(4) 0.2500 0.9463(2)
C3_2 C 0.2051(4) 0.5531(5) 0.025(4)
H3_2 H 0.2023 0.5574 0.1905
H4_2 H 0.2244 0.5323 0.0043
C12_2 C 0.1280(4) 0.5532(4) 0.040(3)
C16_2 C 0.0533(4) 0.5502(4) 0.108(3)
H9_2 H 0.0333 0.5297 0.1000
H10_2 H 0.0615 0.5528 0.2686
C21_2 C 0.2551(4) 0.6065(4) 0.033(4)
H14_2 H 0.2649 0.5965 0.1710
C24_2 C 0.0335(5) 0.5863(4) 0.033(4)
H18_2 H 0.2935 0.6519 0.0203
C29_2 C 0.1301(6) 0.5823(5) 0.229(3)
H22_2 H 0.1280 0.5698 0.3763
H23_2 H 0.1081 0.6002 0.2114
H24_2 H 0.1557 0.5957 0.2200
C30_2 C 0.0044(6) 0.6031(5) 0.179(5)
O7_2 O 0.0218(17) 0.7500 0.191(11)
O9_2 O 0.1213(5) 0.2500 0.140(3)
O14_2 O 0.0181(5) 0.2933(5) 0.334(4)
C59_2 C 0.0052(5) 0.3433(5) 0.073(6)
C66_2 C 0.0274(8) 0.3050(5) 0.114(6)
Yb5_2 Yb 0.04371(4) 0.2500 0.6199(6)
O18_2 O 0.1920(3) 0.2042(3) 0.2376(19)
O1_2 O 0.1479(5) 0.2996(3) 0.789(2)
O4_2 O 0.0945(4) 0.2904(3) 0.567(3)
C1_2 C 0.1350(4) 0.4178(3) 0.722(3)
H1_2 H 0.1457 0.4348 0.8300
C2_2 C 0.1366(4) 0.3788(3) 0.769(3)
H2_2 H 0.1493 0.3699 0.9024
C4_2 C 0.1193(4) 0.3534(3) 0.615(3)
C5_2 C 0.1184(5) 0.4320(3) 0.524(3)
C6_2 C 0.1635(3) 0.5403(4) 0.930(3)
C7_2 C 0.0911(3) 0.5381(3) 0.965(3)
C8_2 C 0.0880(3) 0.5130(3) 0.784(3)
C9_2 C 0.1620(4) 0.5151(4) 0.750(3)
C10_2 C 0.2227(4) 0.5884(4) 0.918(3)
C11_2 C 0.2779(5) 0.6891(4) 0.632(4)
C13_2 C 0.1017(5) 0.3676(4) 0.415(3)
H5_2 H 0.0907 0.3506 0.3081
C14_2 C 0.1003(5) 0.4064(4) 0.371(3)
H6_2 H 0.0871 0.4154 0.2394
C15_2 C 0.1200(6) 0.4749(4) 0.465(3)
H7_2 H 0.1430 0.4792 0.3622
H8_2 H 0.0954 0.4815 0.3807
C17_2 C 0.2589(5) 0.6538(3) 0.732(3)
C18_2 C 0.1238(4) 0.5012(3) 0.665(3)
C19_2 C 0.0467(4) 0.4972(4) 0.718(3)
H11_2 H 0.0410 0.4747 0.8082
H12_2 H 0.0467 0.4907 0.5564
H13_2 H 0.0261 0.5161 0.7472
C20_2 C 0.1196(6) 0.3115(4) 0.666(4)
C22_2 C 0.0422(6) 0.6059(5) 0.840(4)
H15_2 H 0.0618 0.5962 0.7403
C23_2 C 0.2095(5) 0.6043(5) 0.721(4)
H16_2 H 0.1872 0.5932 0.6462
C25_2 C 0.2272(5) 0.6363(5) 0.622(3)
H17_2 H 0.2176 0.6459 0.4815
C27_2 C 0.2726(5) 0.6395(4) 0.941(3)
C28_2 C 0.2011(5) 0.5013(5) 0.630(5)
H19_2 H 0.2188 0.5227 0.6031
H20_2 H 0.1942 0.4896 0.4849
H21_2 H 0.2147 0.4830 0.7271
C31_2 C 0.0230(7) 0.6403(5) 0.782(4)
H26_2 H 0.0295 0.6523 0.6426
O8_2 O 0.2091(6) 0.2500 0.587(3)
H52_2 H 0.0023 0.4089 0.6817
C65_2 C 0.0145(6) 0.3627(6) 0.880(7)
H54_2 H 0.0345 0.3529 0.7815
O15_2 O 0.0450(7) 0.2913(5) 0.951(6)
O16_2 O 0.1479(5) 0.2004(3) 0.789(2)
O20_2 O 0.2353(4) 0.2047(3) 0.956(2)
Yb1_2 Yb 0.95629(4) 0.7500 0.3801(6)
H25_2 H 0.9977 0.5911 0.3183
C32_2 C 0.9855(6) 0.6373(6) 0.120(7)
H27_2 H 0.9655 0.6471 0.2185
O6_2 O 0.9550(7) 0.7087(5) 0.049(6)
O10_2 O 0.8521(5) 0.7004(3) 0.211(2)
O11_2 O 0.6920(3) 0.2958(3) 0.2624(19)
O12_2 O 0.7353(4) 0.2953(3) 0.544(2)
O13_2 O 0.9055(4) 0.7096(3) 0.433(3)
C34_2 C 0.8650(4) 0.5822(3) 0.278(3)
H28_2 H 0.8543 0.5652 0.1700
C35_2 C 0.8634(4) 0.6212(3) 0.231(3)
H29_2 H 0.8507 0.6301 0.0976
C37_2 C 0.8807(4) 0.6466(3) 0.385(3)
C38_2 C 0.8816(5) 0.5680(3) 0.476(3)
C39_2 C 0.8365(3) 0.4597(4) 0.070(3)
C40_2 C 0.9089(3) 0.4619(3) 0.035(3)
C41_2 C 0.9120(3) 0.4870(3) 0.216(3)
C42_2 C 0.8380(4) 0.4849(4) 0.250(3)
C43_2 C 0.7773(4) 0.4116(4) 0.082(3)
C44_2 C 0.7221(5) 0.3109(4) 0.368(4)
C46_2 C 0.8983(5) 0.6324(4) 0.585(3)
H32_2 H 0.9093 0.6494 0.6919
C47_2 C 0.8997(5) 0.5936(4) 0.629(3)
H33_2 H 0.9129 0.5846 0.7606
C48_2 C 0.8800(6) 0.5251(4) 0.535(3)
H34_2 H 0.8570 0.5208 0.6378
H35_2 H 0.9046 0.5185 0.6193
C50_2 C 0.7411(5) 0.3462(3) 0.268(3)
C51_2 C 0.8762(4) 0.4988(3) 0.335(3)
C52_2 C 0.9533(4) 0.5028(4) 0.282(3)
H38_2 H 0.9590 0.5253 0.1918
H39_2 H 0.9533 0.5093 0.4436
H40_2 H 0.9739 0.4839 0.2528
C53_2 C 0.8804(6) 0.6885(4) 0.334(4)
C55_2 C 0.9578(6) 0.3941(5) 0.160(4)
H42_2 H 0.9382 0.4038 0.2597
C56_2 C 0.7905(5) 0.3957(5) 0.279(4)
H43_2 H 0.8128 0.4068 0.3538
C58_2 C 0.7728(5) 0.3637(5) 0.378(3)
H44_2 H 0.7824 0.3541 0.5185
C60_2 C 0.7274(5) 0.3605(4) 0.059(3)
C61_2 C 0.7989(5) 0.4987(5) 0.370(5)
H46_2 H 0.7812 0.4773 0.3969
H47_2 H 0.8058 0.5104 0.5151
H48_2 H 0.7853 0.5170 0.2729
C64_2 C 0.9770(7) 0.3597(5) 0.218(4)
H53_2 H 0.9705 0.3477 0.3574
O21_2 O 0.9055(4) 0.7904(3) 0.433(3)
O22_2 O 0.9819(5) 0.7067(5) 0.666(4)
O23_2 O 0.9819(5) 0.7933(5) 0.666(4)
O24_2 O 0.9550(7) 0.7913(5) 0.049(6)
C26_2 C 0.9948(5) 0.6567(5) 0.927(6)
C33_2 C 0.9726(8) 0.6950(5) 0.886(6)
C36_2 C 0.7949(4) 0.4469(5) 0.975(4)
H30_2 H 0.7977 0.4426 0.8095
H31_2 H 0.7756 0.4677 0.9957
C45_2 C 0.8720(4) 0.4468(4) 0.960(3)
C49_2 C 0.9467(4) 0.4498(4) 0.892(3)
H36_2 H 0.9667 0.4703 0.9000
H37_2 H 0.9385 0.4472 0.7314
C54_2 C 0.7449(4) 0.3935(4) 0.967(4)
H41_2 H 0.7351 0.4035 0.8290
C57_2 C 0.9665(5) 0.4137(4) 0.967(4)
H45_2 H 0.7065 0.3481 0.9797
C62_2 C 0.8699(6) 0.4177(5) 0.771(3)
H49_2 H 0.8720 0.4302 0.6237
H50_2 H 0.8919 0.3998 0.7886
H51_2 H 0.8443 0.4043 0.7800
C63_2 C 0.9956(6) 0.3969(5) 0.821(5)
O5 O 0.0181(5) 0.2067(5) 0.334(4)
C26_3 C 0.0052(5) 0.1567(5) 0.073(6)
C33_3 C 0.0274(8) 0.1950(5) 0.114(6)
H25_3 H 0.0023 0.0911 0.6817
C32_3 C 0.0145(6) 0.1373(6) 0.880(7)
H27_3 H 0.0345 0.1471 0.7815
O6_3 O 0.0450(7) 0.2087(5) 0.951(6)
O13_3 O 0.0945(4) 0.2096(3) 0.567(3)
C34_3 C 0.1350(4) 0.0822(3) 0.722(3)
H28_3 H 0.1457 0.0652 0.8300
C35_3 C 0.1366(4) 0.1212(3) 0.769(3)
H29_3 H 0.1493 0.1301 0.9024
C37_3 C 0.1193(4) 0.1466(3) 0.615(3)
C38_3 C 0.1184(5) 0.0680(3) 0.524(3)
C46_3 C 0.1017(5) 0.1324(4) 0.415(3)
H32_3 H 0.0907 0.1494 0.3081
C47_3 C 0.1003(5) 0.0936(4) 0.371(3)
H33_3 H 0.0871 0.0846 0.2394
C48_3 C 0.1200(6) 0.0251(4) 0.465(3)
H34_3 H 0.1430 0.0208 0.3622
H35_3 H 0.0954 0.0185 0.3807
C52_3 C 0.0467(4) 0.0028(4) 0.718(3)
H38_3 H 0.0410 0.0253 0.8082
H39_3 H 0.0467 0.0093 0.5564
C53_3 C 0.1196(6) 0.1885(4) 0.666(4)
H47_3 H 0.1942 0.0104 0.4849
H48_3 H 0.2147 0.0170 0.7271
C36_3 C 0.2051(4) 0.9469(5) 0.025(4)
H30_3 H 0.2023 0.9426 0.1905
H31_3 H 0.2244 0.9677 0.0043
C45_3 C 0.1280(4) 0.9468(4) 0.040(3)
C49_3 C 0.0533(4) 0.9498(4) 0.108(3)
H36_3 H 0.0333 0.9703 0.1000
H37_3 H 0.0615 0.9472 0.2686
C54_3 C 0.2551(4) 0.8935(4) 0.033(4)
H41_3 H 0.2649 0.9035 0.1710
C57_3 C 0.0335(5) 0.9137(4) 0.033(4)
H45_3 H 0.2935 0.8481 0.0203
C62_3 C 0.1301(6) 0.9177(5) 0.229(3)
H49_3 H 0.1280 0.9302 0.3763
H50_3 H 0.1081 0.8998 0.2114
H51_3 H 0.1557 0.9043 0.2200
C63_3 C 0.0044(6) 0.8969(5) 0.179(5)
C39_3 C 0.1635(3) 0.9597(4) 0.930(3)
C40_3 C 0.0911(3) 0.9619(3) 0.965(3)
C41_3 C 0.0880(3) 0.9870(3) 0.784(3)
C42_3 C 0.1620(4) 0.9849(4) 0.750(3)
C43_3 C 0.2227(4) 0.9116(4) 0.918(3)
C44_3 C 0.2779(5) 0.8109(4) 0.632(4)
C50_3 C 0.2589(5) 0.8462(3) 0.732(3)
C51_3 C 0.1238(4) 0.9988(3) 0.665(3)
H40_3 H 0.0261 0.9839 0.7472
C55_3 C 0.0422(6) 0.8941(5) 0.840(4)
H42_3 H 0.0618 0.9038 0.7403
C56_3 C 0.2095(5) 0.8957(5) 0.721(4)
H43_3 H 0.1872 0.9068 0.6462
C58_3 C 0.2272(5) 0.8637(5) 0.622(3)
H44_3 H 0.2176 0.8541 0.4815
C60_3 C 0.2726(5) 0.8605(4) 0.941(3)
C61_3 C 0.2011(5) 0.9987(5) 0.630(5)
H46_3 H 0.2188 0.9773 0.6031
C64_3 C 0.0230(7) 0.8597(5) 0.782(4)
H53_3 H 0.0295 0.8477 0.6426
O2_2 O 0.6920(3) 0.2042(3) 0.2624(19)
O3_2 O 0.7353(4) 0.2047(3) 0.544(2)
C6_3 C 0.8365(3) 0.0403(4) 0.070(3)
C7_3 C 0.9089(3) 0.0381(3) 0.035(3)
C8_3 C 0.9120(3) 0.0130(3) 0.216(3)
C9_3 C 0.8380(4) 0.0151(4) 0.250(3)
C10_3 C 0.7773(4) 0.0884(4) 0.082(3)
C11_3 C 0.7221(5) 0.1891(4) 0.368(4)
C17_3 C 0.7411(5) 0.1538(3) 0.268(3)
C18_3 C 0.8762(4) 0.0012(3) 0.335(3)
H13_3 H 0.9739 0.0161 0.2528
C22_3 C 0.9578(6) 0.1059(5) 0.160(4)
H15_3 H 0.9382 0.0962 0.2597
C23_3 C 0.7905(5) 0.1043(5) 0.279(4)
H16_3 H 0.8128 0.0932 0.3538
C25_3 C 0.7728(5) 0.1363(5) 0.378(3)
H17_3 H 0.7824 0.1459 0.5185
C27_3 C 0.7274(5) 0.1395(4) 0.059(3)
C28_3 C 0.7989(5) 0.0013(5) 0.370(5)
H19_3 H 0.7812 0.0227 0.3969
C31_3 C 0.9770(7) 0.1403(5) 0.218(4)
H26_3 H 0.9705 0.1523 0.3574
C3_3 C 0.7949(4) 0.0531(5) 0.975(4)
H3_3 H 0.7977 0.0574 0.8095
H4_3 H 0.7756 0.0323 0.9957
C12_3 C 0.8720(4) 0.0532(4) 0.960(3)
C16_3 C 0.9467(4) 0.0502(4) 0.892(3)
H9_3 H 0.9667 0.0297 0.9000
H10_3 H 0.9385 0.0528 0.7314
C21_3 C 0.7449(4) 0.1065(4) 0.967(4)
H14_3 H 0.7351 0.0965 0.8290
C24_3 C 0.9665(5) 0.0863(4) 0.967(4)
H18_3 H 0.7065 0.1519 0.9797
C29_3 C 0.8699(6) 0.0823(5) 0.771(3)
H22_3 H 0.8720 0.0698 0.6237
H23_3 H 0.8919 0.1002 0.7886
H24_3 H 0.8443 0.0957 0.7800
C30_3 C 0.9956(6) 0.1031(5) 0.821(5)
O7_3 O 0.9782(17) 0.2500 0.809(11)
O1_3 O 0.8521(5) 0.7996(3) 0.211(2)
C1_3 C 0.8650(4) 0.9178(3) 0.278(3)
H1_3 H 0.8543 0.9348 0.1700
C2_3 C 0.8634(4) 0.8788(3) 0.231(3)
H2_3 H 0.8507 0.8699 0.0976
C4_3 C 0.8807(4) 0.8534(3) 0.385(3)
C5_3 C 0.8816(5) 0.9320(3) 0.476(3)
C13_3 C 0.8983(5) 0.8676(4) 0.585(3)
H5_3 H 0.9093 0.8506 0.6919
C14_3 C 0.8997(5) 0.9064(4) 0.629(3)
H6_3 H 0.9129 0.9154 0.7606
C15_3 C 0.8800(6) 0.9749(4) 0.535(3)
H7_3 H 0.8570 0.9792 0.6378
H8_3 H 0.9046 0.9815 0.6193
C19_3 C 0.9533(4) 0.9972(4) 0.282(3)
H11_3 H 0.9590 0.9747 0.1918
H12_3 H 0.9533 0.9907 0.4436
C20_3 C 0.8804(6) 0.8115(4) 0.334(4)
H20_3 H 0.8058 0.9896 0.5151
H21_3 H 0.7853 0.9830 0.2729
O8_3 O 0.7909(6) 0.7500 0.413(3)
H52_3 H 0.9977 0.9089 0.3183
C65_3 C 0.9855(6) 0.8627(6) 0.120(7)
H54_3 H 0.9655 0.8529 0.2185
O19_2 O 0.7647(4) 0.7953(3) 0.044(2)
O9_3 O 0.8787(5) 0.7500 0.860(3)
C59_3 C 0.9948(5) 0.8433(5) 0.927(6)
C66_3 C 0.9726(8) 0.8050(5) 0.886(6)
O17_2 O 0.8080(3) 0.7958(3) 0.7624(19)
C13_4 C 0.6017(5) 0.1324(4) 0.085(3)
H5_4 H 0.5907 0.1494 0.1919
C14_4 C 0.6003(5) 0.0936(4) 0.129(3)
H6_4 H 0.5871 0.0846 0.2606
C15_4 C 0.6200(6) 0.0251(4) 0.035(3)
H7_4 H 0.6430 0.0208 0.1378
H8_4 H 0.5954 0.0185 0.1193
H20_4 H 0.6942 0.0104 0.0151
O1_4 O 0.6479(5) 0.2004(3) 0.711(2)
C1_4 C 0.6350(4) 0.0822(3) 0.778(3)
H1_4 H 0.6457 0.0652 0.6700
C2_4 C 0.6366(4) 0.1212(3) 0.731(3)
H2_4 H 0.6493 0.1301 0.5976
C4_4 C 0.6193(4) 0.1466(3) 0.885(3)
C5_4 C 0.6184(5) 0.0680(3) 0.976(3)
C19_4 C 0.5467(4) 0.0028(4) 0.782(3)
H11_4 H 0.5410 0.0253 0.6918
H12_4 H 0.5467 0.0093 0.9436
C20_4 C 0.6196(6) 0.1885(4) 0.834(4)
H21_4 H 0.7147 0.0170 0.7729
O8_4 O 0.7091(6) 0.2500 0.913(3)
O9_4 O 0.6213(5) 0.2500 0.360(3)
C36_4 C 0.2949(4) 0.0531(5) 0.525(4)
H30_4 H 0.2977 0.0574 0.6905
H31_4 H 0.2756 0.0323 0.5043
C39_4 C 0.3365(3) 0.0403(4) 0.430(3)
C40_4 C 0.4089(3) 0.0381(3) 0.465(3)
C41_4 C 0.4120(3) 0.0130(3) 0.284(3)
C42_4 C 0.3380(4) 0.0151(4) 0.250(3)
C43_4 C 0.2773(4) 0.0884(4) 0.418(3)
C44_4 C 0.2221(5) 0.1891(4) 0.132(4)
C45_4 C 0.3720(4) 0.0532(4) 0.540(3)
C49_4 C 0.4467(4) 0.0502(4) 0.608(3)
H36_4 H 0.4667 0.0297 0.6000
H37_4 H 0.4385 0.0528 0.7686
C50_4 C 0.2411(5) 0.1538(3) 0.232(3)
C51_4 C 0.3762(4) 0.0012(3) 0.165(3)
H40_4 H 0.4739 0.0161 0.2472
C54_4 C 0.2449(4) 0.1065(4) 0.533(4)
H41_4 H 0.2351 0.0965 0.6710
C55_4 C 0.4578(6) 0.1059(5) 0.340(4)
H42_4 H 0.4382 0.0962 0.2403
C56_4 C 0.2905(5) 0.1043(5) 0.221(4)
H43_4 H 0.3128 0.0932 0.1462
C57_4 C 0.4665(5) 0.0863(4) 0.533(4)
C58_4 C 0.2728(5) 0.1363(5) 0.122(3)
C59_4 C 0.5052(5) 0.1567(5) 0.427(6)
C60_4 C 0.2274(5) 0.1395(4) 0.441(3)
H45_4 H 0.2065 0.1519 0.5203
C61_4 C 0.2989(5) 0.0013(5) 0.130(5)
H46_4 H 0.2812 0.0227 0.1031
C62_4 C 0.3699(6) 0.0823(5) 0.729(3)
H49_4 H 0.3720 0.0698 0.8763
H50_4 H 0.3919 0.1002 0.7114
H51_4 H 0.3443 0.0957 0.7200
C63_4 C 0.4956(6) 0.1031(5) 0.679(5)
H52_4 H 0.5023 0.0911 0.8183
C64_4 C 0.4770(7) 0.1403(5) 0.282(4)
H53_4 H 0.4705 0.1523 0.1426
C65_4 C 0.5145(6) 0.1373(6) 0.620(7)
H54_4 H 0.5345 0.1471 0.7185
C66_4 C 0.5274(8) 0.1950(5) 0.386(6)
H44_4 H 0.2824 0.1459 0.9815
H17_4 H 0.7176 0.8541 0.0185
O5_2 O 0.4819(5) 0.7933(5) 0.834(4)
C3_4 C 0.7051(4) 0.9469(5) 0.475(4)
H3_4 H 0.7023 0.9426 0.3095
H4_4 H 0.7244 0.9677 0.4957
C6_4 C 0.6635(3) 0.9597(4) 0.570(3)
C7_4 C 0.5911(3) 0.9619(3) 0.535(3)
C8_4 C 0.5880(3) 0.9870(3) 0.716(3)
C9_4 C 0.6620(4) 0.9849(4) 0.750(3)
C10_4 C 0.7227(4) 0.9116(4) 0.582(3)
C11_4 C 0.7779(5) 0.8109(4) 0.868(4)
C12_4 C 0.6280(4) 0.9468(4) 0.460(3)
C16_4 C 0.5533(4) 0.9498(4) 0.392(3)
H9_4 H 0.5333 0.9703 0.4000
H10_4 H 0.5615 0.9472 0.2314
C17_4 C 0.7589(5) 0.8462(3) 0.768(3)
C18_4 C 0.6238(4) 0.9988(3) 0.835(3)
H13_4 H 0.5261 0.9839 0.7528
C21_4 C 0.7551(4) 0.8935(4) 0.467(4)
H14_4 H 0.7649 0.9035 0.3290
C22_4 C 0.5422(6) 0.8941(5) 0.660(4)
H15_4 H 0.5618 0.9038 0.7597
C23_4 C 0.7095(5) 0.8957(5) 0.779(4)
H16_4 H 0.6872 0.9068 0.8538
C24_4 C 0.5335(5) 0.9137(4) 0.467(4)
C25_4 C 0.7272(5) 0.8637(5) 0.878(3)
C26_4 C 0.4948(5) 0.8433(5) 0.573(6)
C27_4 C 0.7726(5) 0.8605(4) 0.559(3)
H18_4 H 0.7935 0.8481 0.4797
C28_4 C 0.7011(5) 0.9987(5) 0.870(5)
H19_4 H 0.7188 0.9773 0.8969
C29_4 C 0.6301(6) 0.9177(5) 0.271(3)
H22_4 H 0.6280 0.9302 0.1237
H23_4 H 0.6081 0.8998 0.2886
H24_4 H 0.6557 0.9043 0.2800
C30_4 C 0.5044(6) 0.8969(5) 0.321(5)
H25_4 H 0.4977 0.9089 0.1817
C31_4 C 0.5230(7) 0.8597(5) 0.718(4)
H26_4 H 0.5295 0.8477 0.8574
C32_4 C 0.4855(6) 0.8627(6) 0.380(7)
H27_4 H 0.4655 0.8529 0.2815
C33_4 C 0.4726(8) 0.8050(5) 0.614(6)
O6_4 O 0.4550(7) 0.7913(5) 0.451(6)
O7_4 O 0.5218(17) 0.7500 0.309(11)
O13_4 O 0.4055(4) 0.7904(3) 0.067(3)
C34_4 C 0.3650(4) 0.9178(3) 0.222(3)
H28_4 H 0.3543 0.9348 0.3300
C35_4 C 0.3634(4) 0.8788(3) 0.269(3)
H29_4 H 0.3507 0.8699 0.4024
C37_4 C 0.3807(4) 0.8534(3) 0.115(3)
C38_4 C 0.3816(5) 0.9320(3) 0.024(3)
C52_4 C 0.4533(4) 0.9972(4) 0.218(3)
H38_4 H 0.4590 0.9747 0.3082
H39_4 H 0.4533 0.9907 0.0564
C53_4 C 0.3804(6) 0.8115(4) 0.166(4)
H48_4 H 0.2853 0.9830 0.2271
C46_4 C 0.3983(5) 0.8676(4) 0.915(3)
H32_4 H 0.4093 0.8506 0.8081
C47_4 C 0.3997(5) 0.9064(4) 0.871(3)
H33_4 H 0.4129 0.9154 0.7394
C48_4 C 0.3800(6) 0.9749(4) 0.965(3)
H34_4 H 0.3570 0.9792 0.8622
H35_4 H 0.4046 0.9815 0.8807
H47_4 H 0.3058 0.9896 0.9849
loop_
_geom_bond_atom_site_label_1
_geom_bond_atom_site_label_2
_geom_bond_site_symmetry_1
_geom_bond_site_symmetry_2
H32 C46 1_555 1_555
H33 C47 1_555 1_555
H34 C48 1_555 1_555
H35 C48 1_555 1_555
O12 Yb7 1_555 1_555
C46 C47 1_555 1_555
Yb1 O6 1_555 1_555
O1 C20 1_555 1_555
O2 C11 1_555 1_555
O4 C20 1_555 1_555
C1 H1 1_555 1_555
C2 C1 1_555 1_555
H2 C2 1_555 1_555
O22 C33 1_555 1_555
C3 H3 1_555 1_555
H4 C3 1_555 1_555
C4 C2 1_555 1_555
C5 C1 1_555 1_555
C6 C3 1_555 1_555
C7 C8 1_555 1_555
C8 C18 1_555 1_555
C9 C6 1_555 1_555
C10 C3 1_555 1_555
C11 C17 1_555 1_555
C12 C6 1_555 1_555
C16 C7 1_555 1_555
H9 C16 1_555 1_555
H10 C16 1_555 1_555
C17 C25 1_555 1_555
C18 C9 1_555 1_555
C19 C8 1_555 1_555
H11 C19 1_555 1_555
H12 C19 1_555 1_555
H13 C19 1_555 1_555
C20 C4 1_555 1_555
C21 C10 1_555 1_555
H14 C21 1_555 1_555
C22 H15 1_555 1_555
C23 C10 1_555 1_555
H16 C23 1_555 1_555
C24 C16 1_555 1_555
C25 C23 1_555 1_555
C26 C31 1_555 1_555
C27 C17 1_555 1_555
H18 C27 1_555 1_555
C28 C9 1_555 1_555
H19 C28 1_555 1_555
H21 C28 1_555 1_555
C29 C12 1_555 1_555
H22 C29 1_555 1_555
H23 C29 1_555 1_555
H24 C29 1_555 1_555
C30 C24 1_555 1_555
H25 C30 1_555 1_555
C31 C22 1_555 1_555
H26 C31 1_555 1_555
C32 C26 1_555 1_555
H27 C32 1_555 1_555
C33 C26 1_555 1_555
O6 C33 1_555 1_555
O7 Yb1 1_555 1_555
Yb2 O1 1_555 1_555
O8 Yb2 1_555 1_555
O9 Yb2 1_555 1_555
O10 C53 1_555 1_555
O11 C44 1_555 1_555
O13 Yb1 1_555 1_555
C34 H28 1_555 1_555
C35 C34 1_555 1_555
H29 C35 1_555 1_555
O14 C66 1_555 1_555
C36 H30 1_555 1_555
H31 C36 1_555 1_555
C37 C35 1_555 1_555
C38 C34 1_555 1_555
C39 C36 1_555 1_555
C40 C41 1_555 1_555
C41 C51 1_555 1_555
C42 C39 1_555 1_555
C43 C36 1_555 1_555
C44 C50 1_555 1_555
C45 C39 1_555 1_555
C49 C40 1_555 1_555
H36 C49 1_555 1_555
H37 C49 1_555 1_555
C50 C58 1_555 1_555
C51 C42 1_555 1_555
C52 C41 1_555 1_555
H38 C52 1_555 1_555
H39 C52 1_555 1_555
H40 C52 1_555 1_555
C53 O13 1_555 1_555
C54 C43 1_555 1_555
H41 C54 1_555 1_555
C55 H42 1_555 1_555
C56 C43 1_555 1_555
H43 C56 1_555 1_555
C57 C49 1_555 1_555
C58 C56 1_555 1_555
C59 C64 1_555 1_555
C60 C50 1_555 1_555
H45 C60 1_555 1_555
C61 C42 1_555 1_555
H46 C61 1_555 1_555
H48 C61 1_555 1_555
C62 C45 1_555 1_555
H49 C62 1_555 1_555
H50 C62 1_555 1_555
H51 C62 1_555 1_555
C63 C57 1_555 1_555
H52 C63 1_555 1_555
C64 C55 1_555 1_555
H53 C64 1_555 1_555
C65 C59 1_555 1_555
H54 C65 1_555 1_555
C66 C59 1_555 1_555
O15 C66 1_555 1_555
Yb5 O4 1_555 1_555
O16 Yb2 1_555 1_555
O17 Yb2 1_555 1_555
O18 Yb2 1_555 1_555
O19 Yb2 1_555 1_555
O20 Yb2 1_555 1_555
O21 Yb1 1_555 1_555
O24 Yb1 1_555 1_555
Yb8 O10 1_555 1_555
C7 C12 1_555 1_555
C21 C27 1_555 1_555
C22 C24 1_555 1_555
C30 C32 1_555 1_555
C37 C53 1_555 1_555
C40 C45 1_555 1_555
C54 C60 1_555 1_555
C55 C57 1_555 1_555
C63 C65 1_555 1_555
O15 Yb5 1_555 1_555
H5 C13 1_555 1_555
H6 C14 1_555 1_555
H7 C15 1_555 1_555
H8 C15 1_555 1_555
O3 Yb6 1_555 1_555
C13 C14 1_555 1_555
C3_2 H3_2 1_555 1_555
H4_2 C3_2 1_555 1_555
H9_2 C16_2 1_555 1_555
H10_2 C16_2 1_555 1_555
H14_2 C21_2 1_555 1_555
C24_2 C16_2 1_555 1_555
C29_2 C12_2 1_555 1_555
H22_2 C29_2 1_555 1_555
H23_2 C29_2 1_555 1_555
H24_2 C29_2 1_555 1_555
C30_2 C24_2 1_555 1_555
O14_2 C66_2 1_555 1_555
C66_2 C59_2 1_555 1_555
Yb5_2 O14_2 1_555 1_555
O1_2 C20_2 1_555 1_555
O17 C11_2 1_555 1_555
O19 C11_2 1_555 1_555
O4_2 C20_2 1_555 1_555
C1_2 H1_2 1_555 1_555
C2_2 C1_2 1_555 1_555
H2_2 C2_2 1_555 1_555
C4_2 C2_2 1_555 1_555
C5_2 C1_2 1_555 1_555
C7_2 C8_2 1_555 1_555
C8_2 C18_2 1_555 1_555
C9_2 C6_2 1_555 1_555
C11_2 C17_2 1_555 1_555
C13_2 C4_2 1_555 1_555
H5_2 C13_2 1_555 1_555
C14_2 C5_2 1_555 1_555
H6_2 C14_2 1_555 1_555
C15_2 C5_2 1_555 1_555
H7_2 C15_2 1_555 1_555
H8_2 C15_2 1_555 1_555
C17_2 C25_2 1_555 1_555
C18_2 C9_2 1_555 1_555
C19_2 C8_2 1_555 1_555
H11_2 C19_2 1_555 1_555
H12_2 C19_2 1_555 1_555
H13_2 C19_2 1_555 1_555
C20_2 C4_2 1_555 1_555
C22_2 H15_2 1_555 1_555
C23_2 C10_2 1_555 1_555
H16_2 C23_2 1_555 1_555
C25_2 C23_2 1_555 1_555
H17_2 C25_2 1_555 1_555
C27_2 C17_2 1_555 1_555
C28_2 C9_2 1_555 1_555
H19_2 C28_2 1_555 1_555
H20_2 C28_2 1_555 1_555
H21_2 C28_2 1_555 1_555
C31_2 C22_2 1_555 1_555
H26_2 C31_2 1_555 1_555
Yb6 O1_2 1_555 1_555
O8_2 Yb6 1_555 1_555
H54_2 C65_2 1_555 1_555
Yb5_2 O4_2 1_555 1_555
O16_2 Yb6 1_555 1_555
O20_2 Yb6 1_555 1_555
C13_2 C14_2 1_555 1_555
C15_2 C18_2 1_555 1_555
O15_2 Yb5_2 1_555 1_555
Yb1_2 O6_2 1_555 1_555
H27_2 C32_2 1_555 1_555
O10_2 C53_2 1_555 1_555
O11_2 C44_2 1_555 1_555
O12_2 C44_2 1_555 1_555
O13_2 Yb1_2 1_555 1_555
C34_2 H28_2 1_555 1_555
C35_2 C34_2 1_555 1_555
H29_2 C35_2 1_555 1_555
C37_2 C35_2 1_555 1_555
C38_2 C34_2 1_555 1_555
C40_2 C41_2 1_555 1_555
C41_2 C51_2 1_555 1_555
C42_2 C39_2 1_555 1_555
C44_2 C50_2 1_555 1_555
C46_2 C37_2 1_555 1_555
H32_2 C46_2 1_555 1_555
C47_2 C38_2 1_555 1_555
H33_2 C47_2 1_555 1_555
C48_2 C38_2 1_555 1_555
H34_2 C48_2 1_555 1_555
H35_2 C48_2 1_555 1_555
C50_2 C58_2 1_555 1_555
C51_2 C42_2 1_555 1_555
C52_2 C41_2 1_555 1_555
H38_2 C52_2 1_555 1_555
H39_2 C52_2 1_555 1_555
H40_2 C52_2 1_555 1_555
C53_2 O13_2 1_555 1_555
C55_2 H42_2 1_555 1_555
C56_2 C43_2 1_555 1_555
H43_2 C56_2 1_555 1_555
C58_2 C56_2 1_555 1_555
H44_2 C58_2 1_555 1_555
C60_2 C50_2 1_555 1_555
C61_2 C42_2 1_555 1_555
H46_2 C61_2 1_555 1_555
H47_2 C61_2 1_555 1_555
H48_2 C61_2 1_555 1_555
C64_2 C55_2 1_555 1_555
H53_2 C64_2 1_555 1_555
O21_2 Yb1_2 1_555 1_555
O22_2 Yb1_2 1_555 1_555
O23_2 Yb1_2 1_555 1_555
O24_2 Yb1_2 1_555 1_555
Yb8 O11_2 1_555 1_555
Yb7 O10_2 1_555 1_555
O12_2 Yb8 1_555 1_555
C37_2 C53_2 1_555 1_555
C46_2 C47_2 1_555 1_555
C48_2 C51_2 1_555 1_555
O22_2 C33_2 1_555 1_555
C33_2 C26_2 1_555 1_555
C36_2 H30_2 1_555 1_555
H31_2 C36_2 1_555 1_555
H36_2 C49_2 1_555 1_555
H37_2 C49_2 1_555 1_555
H41_2 C54_2 1_555 1_555
C57_2 C49_2 1_555 1_555
C62_2 C45_2 1_555 1_555
H49_2 C62_2 1_555 1_555
H50_2 C62_2 1_555 1_555
H51_2 C62_2 1_555 1_555
C63_2 C57_2 1_555 1_555
O5 C33_3 1_555 1_555
C33_3 C26_3 1_555 1_555
Yb5_2 O5 1_555 1_555
Yb5_2 O6_3 1_555 1_555
H27_3 C32_3 1_555 1_555
O16_2 C53_3 1_555 1_555
O13_3 Yb5_2 1_555 1_555
C34_3 H28_3 1_555 1_555
C35_3 C34_3 1_555 1_555
H29_3 C35_3 1_555 1_555
C37_3 C35_3 1_555 1_555
C38_3 C34_3 1_555 1_555
C46_3 C37_3 1_555 1_555
H32_3 C46_3 1_555 1_555
C47_3 C38_3 1_555 1_555
H33_3 C47_3 1_555 1_555
C48_3 C38_3 1_555 1_555
H34_3 C48_3 1_555 1_555
H35_3 C48_3 1_555 1_555
H38_3 C52_3 1_555 1_555
H39_3 C52_3 1_555 1_555
C53_3 O13_3 1_555 1_555
C37_3 C53_3 1_555 1_555
C46_3 C47_3 1_555 1_555
C36_3 H30_3 1_555 1_555
H31_3 C36_3 1_555 1_555
H36_3 C49_3 1_555 1_555
H37_3 C49_3 1_555 1_555
H41_3 C54_3 1_555 1_555
C57_3 C49_3 1_555 1_555
C62_3 C45_3 1_555 1_555
H49_3 C62_3 1_555 1_555
H50_3 C62_3 1_555 1_555
H51_3 C62_3 1_555 1_555
C63_3 C57_3 1_555 1_555
O18 C44_3 1_555 1_555
O20 C44_3 1_555 1_555
C40_3 C41_3 1_555 1_555
C41_3 C51_3 1_555 1_555
C42_3 C39_3 1_555 1_555
C44_3 C50_3 1_555 1_555
C50_3 C58_3 1_555 1_555
C51_3 C42_3 1_555 1_555
C55_3 H42_3 1_555 1_555
C56_3 C43_3 1_555 1_555
H43_3 C56_3 1_555 1_555
C58_3 C56_3 1_555 1_555
H44_3 C58_3 1_555 1_555
C60_3 C50_3 1_555 1_555
C61_3 C42_3 1_555 1_555
H46_3 C61_3 1_555 1_555
C64_3 C55_3 1_555 1_555
H53_3 C64_3 1_555 1_555
O2_2 C11_3 1_555 1_555
O3_2 C11_3 1_555 1_555
C7_3 C8_3 1_555 1_555
C8_3 C18_3 1_555 1_555
C9_3 C6_3 1_555 1_555
C11_3 C17_3 1_555 1_555
C17_3 C25_3 1_555 1_555
C18_3 C9_3 1_555 1_555
C22_3 H15_3 1_555 1_555
C23_3 C10_3 1_555 1_555
H16_3 C23_3 1_555 1_555
C25_3 C23_3 1_555 1_555
H17_3 C25_3 1_555 1_555
C27_3 C17_3 1_555 1_555
C28_3 C9_3 1_555 1_555
H19_3 C28_3 1_555 1_555
C31_3 C22_3 1_555 1_555
H26_3 C31_3 1_555 1_555
Yb8 O2_2 1_555 1_555
O3_2 Yb8 1_555 1_555
C3_3 H3_3 1_555 1_555
H4_3 C3_3 1_555 1_555
H9_3 C16_3 1_555 1_555
H10_3 C16_3 1_555 1_555
H14_3 C21_3 1_555 1_555
C24_3 C16_3 1_555 1_555
C29_3 C12_3 1_555 1_555
H22_3 C29_3 1_555 1_555
H23_3 C29_3 1_555 1_555
H24_3 C29_3 1_555 1_555
C30_3 C24_3 1_555 1_555
O1_3 C20_3 1_555 1_555
O21_2 C20_3 1_555 1_555
C1_3 H1_3 1_555 1_555
C2_3 C1_3 1_555 1_555
H2_3 C2_3 1_555 1_555
C4_3 C2_3 1_555 1_555
C5_3 C1_3 1_555 1_555
C13_3 C4_3 1_555 1_555
H5_3 C13_3 1_555 1_555
C14_3 C5_3 1_555 1_555
H6_3 C14_3 1_555 1_555
C15_3 C5_3 1_555 1_555
H7_3 C15_3 1_555 1_555
H8_3 C15_3 1_555 1_555
H11_3 C19_3 1_555 1_555
H12_3 C19_3 1_555 1_555
C20_3 C4_3 1_555 1_555
Yb7 O1_3 1_555 1_555
O8_3 Yb7 1_555 1_555
H54_3 C65_3 1_555 1_555
O19_2 Yb7 1_555 1_555
C13_3 C14_3 1_555 1_555
O23_2 C66_3 1_555 1_555
C66_3 C59_3 1_555 1_555
H5_4 C13_4 1_555 1_555
H6_4 C14_4 1_555 1_555
H7_4 C15_4 1_555 1_555
H8_4 C15_4 1_555 1_555
C13_4 C14_4 1_555 1_555
O1_4 C20_4 1_555 1_555
O21 C20_4 1_555 1_555
C1_4 H1_4 1_555 1_555
C2_4 C1_4 1_555 1_555
H2_4 C2_4 1_555 1_555
C4_4 C2_4 1_555 1_555
C5_4 C1_4 1_555 1_555
H11_4 C19_4 1_555 1_555
H12_4 C19_4 1_555 1_555
C20_4 C4_4 1_555 1_555
Yb8 O1_4 1_555 1_555
O8_4 Yb8 1_555 1_555
O9_4 Yb8 1_555 1_555
O18_2 C44_4 1_555 1_555
O23 C66_4 1_555 1_555
C36_4 H30_4 1_555 1_555
H31_4 C36_4 1_555 1_555
C39_4 C36_4 1_555 1_555
C40_4 C41_4 1_555 1_555
C41_4 C51_4 1_555 1_555
C42_4 C39_4 1_555 1_555
C43_4 C36_4 1_555 1_555
C44_4 C50_4 1_555 1_555
C45_4 C39_4 1_555 1_555
C49_4 C40_4 1_555 1_555
H36_4 C49_4 1_555 1_555
H37_4 C49_4 1_555 1_555
C50_4 C58_4 1_555 1_555
C51_4 C42_4 1_555 1_555
C54_4 C43_4 1_555 1_555
H41_4 C54_4 1_555 1_555
C55_4 H42_4 1_555 1_555
C56_4 C43_4 1_555 1_555
H43_4 C56_4 1_555 1_555
C57_4 C49_4 1_555 1_555
C58_4 C56_4 1_555 1_555
C59_4 C64_4 1_555 1_555
C60_4 C50_4 1_555 1_555
H45_4 C60_4 1_555 1_555
C61_4 C42_4 1_555 1_555
H46_4 C61_4 1_555 1_555
C62_4 C45_4 1_555 1_555
H49_4 C62_4 1_555 1_555
H50_4 C62_4 1_555 1_555
H51_4 C62_4 1_555 1_555
C63_4 C57_4 1_555 1_555
H52_4 C63_4 1_555 1_555
C64_4 C55_4 1_555 1_555
H53_4 C64_4 1_555 1_555
C65_4 C59_4 1_555 1_555
H54_4 C65_4 1_555 1_555
C66_4 C59_4 1_555 1_555
O24 C66_4 1_555 1_555
C40_4 C45_4 1_555 1_555
C54_4 C60_4 1_555 1_555
C55_4 C57_4 1_555 1_555
C63_4 C65_4 1_555 1_555
Yb5 O6_4 1_555 1_555
O17_2 C11_4 1_555 1_555
O5_2 C33_4 1_555 1_555
C3_4 H3_4 1_555 1_555
H4_4 C3_4 1_555 1_555
C6_4 C3_4 1_555 1_555
C7_4 C8_4 1_555 1_555
C8_4 C18_4 1_555 1_555
C9_4 C6_4 1_555 1_555
C10_4 C3_4 1_555 1_555
C11_4 C17_4 1_555 1_555
C12_4 C6_4 1_555 1_555
C16_4 C7_4 1_555 1_555
H9_4 C16_4 1_555 1_555
H10_4 C16_4 1_555 1_555
C17_4 C25_4 1_555 1_555
C18_4 C9_4 1_555 1_555
C21_4 C10_4 1_555 1_555
H14_4 C21_4 1_555 1_555
C22_4 H15_4 1_555 1_555
C23_4 C10_4 1_555 1_555
H16_4 C23_4 1_555 1_555
C24_4 C16_4 1_555 1_555
C25_4 C23_4 1_555 1_555
C26_4 C31_4 1_555 1_555
C27_4 C17_4 1_555 1_555
H18_4 C27_4 1_555 1_555
C28_4 C9_4 1_555 1_555
H19_4 C28_4 1_555 1_555
C29_4 C12_4 1_555 1_555
H22_4 C29_4 1_555 1_555
H23_4 C29_4 1_555 1_555
H24_4 C29_4 1_555 1_555
C30_4 C24_4 1_555 1_555
H25_4 C30_4 1_555 1_555
C31_4 C22_4 1_555 1_555
H26_4 C31_4 1_555 1_555
C32_4 C26_4 1_555 1_555
H27_4 C32_4 1_555 1_555
C33_4 C26_4 1_555 1_555
O6_4 C33_4 1_555 1_555
O7_4 Yb5 1_555 1_555
O16 C53_4 1_555 1_555
O13_4 Yb5 1_555 1_555
C34_4 H28_4 1_555 1_555
C35_4 C34_4 1_555 1_555
H29_4 C35_4 1_555 1_555
C37_4 C35_4 1_555 1_555
C38_4 C34_4 1_555 1_555
H38_4 C52_4 1_555 1_555
H39_4 C52_4 1_555 1_555
C53_4 O13_4 1_555 1_555
C7_4 C12_4 1_555 1_555
C21_4 C27_4 1_555 1_555
C22_4 C24_4 1_555 1_555
C30_4 C32_4 1_555 1_555
C37_4 C53_4 1_555 1_555
H32_4 C46_4 1_555 1_555
H33_4 C47_4 1_555 1_555
H34_4 C48_4 1_555 1_555
H35_4 C48_4 1_555 1_555
C46_4 C47_4 1_555 1_555

#END
