
###############################################################################
#
# This file contains modified crystal structure data generated from the
# MOF subset of the Cambridge Structural Database (CSD) v543 
# hosted by the Cambridge Crystallographic Data Centre (CCDC).
#
# This work is licensed under the Creative Commons
# Attribution-NonCommercial-ShareAlike 4.0 International License.
# To view a copy of this license, visit
# http://creativecommons.org/licenses/by-nc-sa/4.0/
# or send a letter to
# Creative Commons, PO Box 1866, Mountain View, CA 94042, USA.
#
# CIF created using the CSD Python API on 29 September 2022
# The structure has been converted into the P1 space group
# The structure has a 3D framework
# The original CSD entry WUFLOZ is in the orthorhombic crystal system
# The original CSD entry WUFLOZ is in a Sohncke space group
# The framework has been calculated to contain at least 10.0% void space
# The void calculation uses a probe of radius 1.32A, grid spacing 0.4
# The framework is charged, counterions have been retained in the structure
#
###############################################################################

data_WUFLOZ
_chemical_formula_moiety         '(C224 H200 Co12 N32 O80 S8)n'
_symmetry_cell_setting           triclinic
_symmetry_space_group_name_H-M   'P 1'
_symmetry_Int_Tables_number      1
_space_group_name_Hall           'P 1'
loop_
_symmetry_equiv_pos_site_id
_symmetry_equiv_pos_as_xyz
1 x,y,z
_cell_length_a                   11.395(2)
_cell_length_b                   19.395(4)
_cell_length_c                   30.675(6)
_cell_angle_alpha                90
_cell_angle_beta                 90
_cell_angle_gamma                90
_cell_volume                     6779.36
loop_
_atom_site_label
_atom_site_type_symbol
_atom_site_fract_x
_atom_site_fract_y
_atom_site_fract_z
O21 O 0.3317(2) 0.22219(12) 0.00850(7)
Co1 Co 0.18449(4) 0.20643(2) 0.577922(13)
Co2 Co 0.09845(3) 0.07018(2) 0.229330(13)
Co3 Co 0.32918(3) 0.21065(2) 0.942200(12)
S1 S 0.11895(9) 0.37002(5) 0.37068(3)
S2 S 0.37045(9) 0.39534(5) 0.18220(3)
O2 O 0.1851(4) 0.3812(2) 0.33264(15)
O3 O 0.1600(4) 0.40690(18) 0.40866(14)
O4 O 0.2435(4) 0.11316(18) 0.48787(9)
O5 O 0.1590(2) 0.20987(13) 0.51069(7)
O6 O 0.1695(3) 0.04939(14) 0.33239(9)
O7 O 0.1000(2) 0.12866(12) 0.28679(7)
O8 O 0.4656(4) 0.4299(2) 0.16022(13)
O9 O 0.2677(4) 0.4356(2) 0.18556(16)
O10 O 0.4083(4) 0.3659(2) 0.22250(10)
O11 O 0.11799(19) 0.16007(12) 0.19197(7)
O12 O 0.0867(3) 0.12930(17) 0.12327(9)
O14 O 0.4733(2) 0.29727(18) 0.02314(8)
O15 O 0.3483(2) 0.15863(16) 0.56758(8)
H1 H 0.388(3) 0.177(2) 0.5475(10)
H2 H 0.393(3) 0.136(2) 0.5848(10)
O16 O 0.0205(3) 0.25817(13) 0.58370(10)
H3 H 0.005(4) 0.2722(18) 0.6093(5)
O18 O 0.1063(2) 0.00938(14) 0.16933(9)
H8 H 0.1807(9) 0.0077(18) 0.1684(15)
O19 O 0.1793(2) 0.14735(13) 0.95105(9)
H9 H 0.1147(19) 0.1666(16) 0.9565(14)
H10 H 0.180(3) 0.1057(8) 0.9586(14)
O20 O 0.4812(2) 0.27602(14) 0.93829(8)
H11 H 0.512(3) 0.3086(15) 0.9244(9)
H12 H 0.491(4) 0.2802(19) 0.9655(4)
N1 N 0.2147(3) 0.20533(16) 0.64684(8)
N2 N 0.3201(3) 0.19791(16) 0.87326(8)
N3 N 0.2654(3) 0.30537(15) 0.57339(10)
N4 N 0.5565(3) 0.62544(14) 0.55420(10)
N8 N 0.0990(3) 0.10879(14) 0.58412(9)
C1 C 0.1329(3) 0.28118(18) 0.38308(11)
C2 C 0.1533(3) 0.26043(19) 0.42563(11)
H13 H 0.1561 0.2930 0.4479
C3 C 0.1696(3) 0.19121(18) 0.43501(10)
C4 C 0.1656(3) 0.14284(19) 0.40211(10)
H14 H 0.1782 0.0966 0.4087
C5 C 0.1429(3) 0.16221(18) 0.35907(10)
C6 C 0.1265(3) 0.23250(18) 0.34959(10)
H15 H 0.1115 0.2465 0.3211
C7 C 0.1922(3) 0.1688(2) 0.48155(10)
C8 C 0.1368(3) 0.10905(18) 0.32347(10)
C9 C 0.3310(3) 0.32410(17) 0.14848(10)
C10 C 0.2524(3) 0.27434(18) 0.16377(10)
H16 H 0.2239 0.2769 0.1921
C11 C 0.2174(3) 0.22151(18) 0.13674(9)
C12 C 0.2614(3) 0.21853(18) 0.09407(10)
H17 H 0.2370 0.1835 0.0755
C13 C 0.3405(3) 0.26715(18) 0.07946(9)
C14 C 0.3770(3) 0.32007(18) 0.10669(10)
H18 H 0.4315 0.3524 0.0971
C15 C 0.1355(3) 0.16531(19) 0.15176(10)
C16 C 0.3876(3) 0.26178(18) 0.03369(9)
C17 C 0.3192(3) 0.2235(2) 0.66298(11)
H19 H 0.3770 0.2387 0.6438
C18 C 0.3447(3) 0.2207(2) 0.70706(11)
H20 H 0.4183 0.2342 0.7170
C19 C 0.1343(3) 0.18247(19) 0.67517(10)
H21 H 0.0619 0.1683 0.6644
C20 C 0.1534(3) 0.1788(2) 0.71936(11)
H22 H 0.0943 0.1636 0.7379
C21 C 0.3577(4) 0.2438(2) 0.80243(12)
H23 H 0.3970 0.2760 0.7854
C22 C 0.3712(4) 0.2437(2) 0.84710(12)
H24 H 0.4184 0.2774 0.8596
C23 C 0.2313(4) 0.1479(2) 0.81027(12)
H25 H 0.1821 0.1146 0.7984
C24 C 0.2508(4) 0.1500(2) 0.85470(12)
H26 H 0.2149 0.1173 0.8724
C25 C 0.2617(3) 0.1982(2) 0.73598(10)
C26 C 0.2856(3) 0.1959(2) 0.78338(10)
C27 C 0.3427(4) 0.3176(2) 0.54157(12)
H27 H 0.3600 0.2824 0.5220
C28 C 0.3973(4) 0.37987(19) 0.53659(13)
H28 H 0.4509 0.3861 0.5141
C29 C 0.2411(4) 0.3575(2) 0.60051(14)
H29 H 0.1866 0.3500 0.6226
C30 C 0.2921(4) 0.4213(2) 0.59759(13)
H30 H 0.2725 0.4558 0.6173
C31 C 0.5283(4) 0.5086(2) 0.53238(13)
H31 H 0.5521 0.4718 0.5151
C32 C 0.5862(3) 0.5703(2) 0.52991(12)
H32 H 0.6488 0.5744 0.5106
C33 C 0.4017(4) 0.5587(2) 0.58447(17)
H33 H 0.3387 0.5567 0.6037
C34 C 0.4634(4) 0.6188(2) 0.57945(17)
H34 H 0.4380 0.6574 0.5948
C35 C 0.3734(3) 0.43376(18) 0.56488(11)
C36 C 0.4337(3) 0.50072(18) 0.56079(12)
C54 C 0.1548(4) 0.0496(2) 0.58924(15)
H50 H 0.2353 0.0509 0.5941
N9 N 0.2884(2) 0.06919(15) 0.22954(10)
N10 N 0.4435(3) 0.12544(14) 0.94580(10)
N11 N 0.2158(3) 0.29763(15) 0.93447(10)
Co5 Co 0.67082(3) 0.71065(2) 0.557800(12)
O1 O 0.9948(3) 0.38329(16) 0.36423(12)
H4 H 0.998(4) 0.2896(16) 0.5658(9)
N5 N 0.9081(2) 0.07227(14) 0.22822(9)
C37 C 0.8466(3) 0.0949(3) 0.26173(13)
H35 H 0.8874 0.1099 0.2862
C38 C 0.7257(3) 0.0976(3) 0.26273(13)
H36 H 0.6872 0.1171 0.2864
C39 C 0.8462(3) 0.0469(3) 0.19517(14)
H37 H 0.8867 0.0293 0.1713
C40 C 0.7255(3) 0.0452(3) 0.19430(16)
H38 H 0.6869 0.0262 0.1704
C41 C 0.4691(3) 0.1291(2) 0.23815(13)
H39 H 0.5079 0.1702 0.2442
C42 C 0.3479(3) 0.12685(19) 0.23860(12)
H40 H 0.3064 0.1667 0.2454
C43 C 0.4699(3) 0.0111(2) 0.21888(15)
C44 C 0.3491(3) 0.0131(2) 0.22076(14)
C45 C 0.6623(3) 0.07107(19) 0.22819(12)
C46 C 0.5328(3) 0.0702(2) 0.22866(12)
C51 C 0.9212(3) 0.0453(2) 0.57883(16)
H47 H 0.8399 0.0459 0.5760
C52 C 0.9825(3) 0.10574(19) 0.58009(14)
H48 H 0.9410 0.1469 0.5780
N7 N 0.7842(3) 0.79763(15) 0.56553(10)
H41 H 0.5085 0.9707 0.2112
H42 H 0.3081 0.9725 0.2155
C47 C 0.7600(4) 0.8557(2) 0.54284(14)
H43 H 0.6980 0.8548 0.5231
C48 C 0.8221(5) 0.9156(2) 0.54741(16)
H44 H 0.8024 0.9543 0.5311
C49 C 0.8737(3) 0.80001(18) 0.59305(13)
H45 H 0.8927 0.7604 0.6086
C50 C 0.9402(3) 0.8588(2) 0.59973(14)
C55 C 0.9159(3) 0.91788(18) 0.57701(13)
C56 C 0.9796(3) 0.98368(18) 0.58180(12)
O1_2 O 0.0052(3) 0.88329(16) 0.13577(12)
N5_2 N 0.0919(2) 0.57227(14) 0.27178(9)
N6 N 0.7116(2) 0.56919(15) 0.27046(10)
C37_2 C 0.1534(3) 0.5949(3) 0.23827(13)
H35_2 H 0.1126 0.6099 0.2138
C38_2 C 0.2743(3) 0.5976(3) 0.23727(13)
H36_2 H 0.3128 0.6171 0.2136
C39_2 C 0.1538(3) 0.5469(3) 0.30483(14)
H37_2 H 0.1133 0.5293 0.3287
C40_2 C 0.2745(3) 0.5452(3) 0.30570(16)
H38_2 H 0.3131 0.5262 0.3296
C41_2 C 0.5309(3) 0.6291(2) 0.26185(13)
H39_2 H 0.4921 0.6702 0.2558
C42_2 C 0.6521(3) 0.62685(19) 0.26140(12)
H40_2 H 0.6936 0.6667 0.2546
C43_2 C 0.5301(3) 0.5111(2) 0.28112(15)
H41_2 H 0.4915 0.4707 0.2888
C44_2 C 0.6509(3) 0.5131(2) 0.27924(14)
H42_2 H 0.6919 0.4725 0.2845
C45_2 C 0.3377(3) 0.57107(19) 0.27181(12)
C46_2 C 0.4672(3) 0.5702(2) 0.27134(12)
Co6 Co 0.90155(3) 0.57018(2) 0.270670(13)
H4_2 H 0.002(4) 0.7896(16) 0.9342(9)
C47_2 C 0.2400(4) 0.3557(2) 0.95716(14)
H43_2 H 0.3020 0.3548 0.9769
C48_2 C 0.1779(5) 0.4156(2) 0.95259(16)
H44_2 H 0.1976 0.4543 0.9689
C49_2 C 0.1263(3) 0.30001(18) 0.90695(13)
H45_2 H 0.1073 0.2604 0.8914
C50_2 C 0.0598(3) 0.3588(2) 0.90027(14)
C51_2 C 0.0788(3) 0.5453(2) 0.92117(16)
H47_2 H 0.1601 0.5459 0.9240
C52_2 C 0.0175(3) 0.60574(19) 0.91991(14)
H48_2 H 0.0590 0.6469 0.9220
C55_2 C 0.0841(3) 0.41788(18) 0.92299(13)
C56_2 C 0.0204(3) 0.48368(18) 0.91820(12)
C31_2 C 0.4717(4) 0.0086(2) 0.96762(13)
C32_2 C 0.4138(3) 0.0703(2) 0.97009(12)
H32_2 H 0.3512 0.0744 0.9894
C33_2 C 0.5983(4) 0.0587(2) 0.91553(17)
H33_2 H 0.6613 0.0567 0.8963
C34_2 C 0.5366(4) 0.1188(2) 0.92055(17)
H34_2 H 0.5620 0.1574 0.9052
C36_2 C 0.5663(3) 0.00072(18) 0.93921(12)
S1_2 S 0.88105(9) 0.87002(5) 0.12932(3)
S2_2 S 0.62955(9) 0.89534(5) 0.31780(3)
O2_2 O 0.8149(4) 0.8812(2) 0.16736(15)
O3_2 O 0.8400(4) 0.90690(18) 0.09134(14)
O4_2 O 0.7565(4) 0.61316(18) 0.01213(9)
O6_2 O 0.8305(3) 0.54939(14) 0.16761(9)
O7_2 O 0.9000(2) 0.62866(12) 0.21321(7)
O8_2 O 0.5344(4) 0.9299(2) 0.33978(13)
O9_2 O 0.7323(4) 0.9356(2) 0.31444(16)
O10_2 O 0.5917(4) 0.8659(2) 0.27750(10)
O11_2 O 0.88201(19) 0.66007(12) 0.30803(7)
O12_2 O 0.9133(3) 0.62930(17) 0.37673(9)
O13 O 0.6683(2) 0.72219(12) 0.49150(7)
O14_2 O 0.5267(2) 0.79727(18) 0.47686(8)
O17 O 0.8969(2) 0.47685(13) 0.23758(8)
H5 H 0.957(2) 0.4509(18) 0.2378(11)
H6 H 0.886(3) 0.494(2) 0.2124(6)
O18_2 O 0.8937(2) 0.50938(14) 0.33067(9)
H7 H 0.923(3) 0.4695(10) 0.3349(15)
H8_2 H 0.8193(9) 0.5077(18) 0.3316(15)
C1_2 C 0.8671(3) 0.78118(18) 0.11692(11)
C2_2 C 0.8467(3) 0.76043(19) 0.07437(11)
H13_2 H 0.8439 0.7930 0.0521
C3_2 C 0.8304(3) 0.69121(18) 0.06499(10)
C4_2 C 0.8344(3) 0.64284(19) 0.09789(10)
H14_2 H 0.8218 0.5966 0.0913
C5_2 C 0.8571(3) 0.66221(18) 0.14093(10)
C6_2 C 0.8735(3) 0.73250(18) 0.15041(10)
H15_2 H 0.8885 0.7465 0.1789
C7_2 C 0.8078(3) 0.6688(2) 0.01845(10)
C8_2 C 0.8632(3) 0.60905(18) 0.17653(10)
C9_2 C 0.6690(3) 0.82410(17) 0.35152(10)
C10_2 C 0.7476(3) 0.77434(18) 0.33623(10)
H16_2 H 0.7761 0.7769 0.3079
C11_2 C 0.7826(3) 0.72151(18) 0.36326(9)
C12_2 C 0.7386(3) 0.71853(18) 0.40593(10)
H17_2 H 0.7630 0.6835 0.4245
C13_2 C 0.6595(3) 0.76715(18) 0.42054(9)
C14_2 C 0.6230(3) 0.82007(18) 0.39331(10)
H18_2 H 0.5685 0.8524 0.4029
C15_2 C 0.8645(3) 0.66531(19) 0.34824(10)
C16_2 C 0.6124(3) 0.76178(18) 0.46631(9)
Co1_2 Co 0.81551(4) 0.70643(2) 0.922078(13)
O5_2 O 0.8410(2) 0.70987(13) 0.98931(7)
O15_2 O 0.6517(2) 0.65863(16) 0.93242(8)
H1_2 H 0.612(3) 0.677(2) 0.9525(10)
H2_2 H 0.607(3) 0.636(2) 0.9152(10)
O16_2 O 0.9795(3) 0.75817(13) 0.91630(10)
H3_2 H 0.995(4) 0.7722(18) 0.8907(5)
O19_2 O 0.8207(2) 0.64735(13) 0.54895(9)
H9_2 H 0.8853(19) 0.6666(16) 0.5435(14)
H10_2 H 0.820(3) 0.6057(8) 0.5414(14)
O20_2 O 0.5188(2) 0.77602(14) 0.56171(8)
H11_2 H 0.488(3) 0.8086(15) 0.5756(9)
H12_2 H 0.509(4) 0.7802(19) 0.5345(4)
N1_2 N 0.7853(3) 0.70533(16) 0.85316(8)
N2_2 N 0.6799(3) 0.69791(16) 0.62674(8)
N3_2 N 0.7346(3) 0.80537(15) 0.92661(10)
N8_2 N 0.9010(3) 0.60879(14) 0.91588(9)
C17_2 C 0.6808(3) 0.7235(2) 0.83702(11)
H19_2 H 0.6230 0.7387 0.8562
C18_2 C 0.6553(3) 0.7207(2) 0.79294(11)
H20_2 H 0.5817 0.7342 0.7830
C19_2 C 0.8657(3) 0.68247(19) 0.82483(10)
H21_2 H 0.9381 0.6683 0.8356
C20_2 C 0.8466(3) 0.6788(2) 0.78064(11)
H22_2 H 0.9057 0.6636 0.7621
C21_2 C 0.6423(4) 0.7438(2) 0.69757(12)
H23_2 H 0.6030 0.7760 0.7146
C22_2 C 0.6288(4) 0.7437(2) 0.65290(12)
H24_2 H 0.5816 0.7774 0.6404
C23_2 C 0.7687(4) 0.6479(2) 0.68973(12)
H25_2 H 0.8179 0.6146 0.7016
C24_2 C 0.7492(4) 0.6500(2) 0.64530(12)
H26_2 H 0.7851 0.6173 0.6276
C25_2 C 0.7383(3) 0.6982(2) 0.76402(10)
C26_2 C 0.7144(3) 0.6959(2) 0.71662(10)
C27_2 C 0.6573(4) 0.8176(2) 0.95843(12)
H27_2 H 0.6400 0.7824 0.9780
C28_2 C 0.6027(4) 0.87987(19) 0.96341(13)
H28_2 H 0.5491 0.8861 0.9859
C29_2 C 0.7589(4) 0.8575(2) 0.89949(14)
H29_2 H 0.8134 0.8500 0.8774
C30_2 C 0.7079(4) 0.9213(2) 0.90241(13)
H30_2 H 0.7275 0.9558 0.8827
H31_2 H 0.4479 0.9718 0.9849
C35_2 C 0.6266(3) 0.93376(18) 0.93512(11)
H46 H 0.9985 0.3582 0.8803
C53 C 0.8997(4) 0.4854(2) 0.91216(15)
H49 H 0.8566 0.4449 0.9092
C54_2 C 0.8452(4) 0.5496(2) 0.91076(15)
H50_2 H 0.7647 0.5509 0.9059
O17_2 O 0.1031(2) 0.97685(13) 0.26242(8)
H5_2 H 0.043(2) 0.9509(18) 0.2622(11)
H6_2 H 0.114(3) 0.994(2) 0.2876(6)
H7_2 H 0.077(3) 0.9695(10) 0.1651(15)
H46_2 H 0.0015 0.8582 0.6197
C53_2 C 0.1003(4) 0.9854(2) 0.58784(15)
H49_2 H 0.1434 0.9449 0.5908
H42_3 H 0.1919 0.0275 0.7155
N6_2 N 0.2116(2) 0.93081(15) 0.72954(10)
C41_3 C 0.0309(3) 0.8709(2) 0.73815(13)
C42_3 C 0.1521(3) 0.87315(19) 0.73860(12)
H40_3 H 0.1936 0.8333 0.7454
C43_3 C 0.0301(3) 0.9889(2) 0.71888(15)
C44_3 C 0.1509(3) 0.9869(2) 0.72076(14)
Co6_2 Co 0.40155(3) 0.92982(2) 0.729330(13)
N7_2 N 0.7158(3) 0.20237(15) 0.06553(10)
C47_3 C 0.7400(4) 0.1443(2) 0.04284(14)
H43_3 H 0.8020 0.1452 0.0231
C48_3 C 0.6779(5) 0.0844(2) 0.04741(16)
H44_3 H 0.6976 0.0457 0.0311
C49_3 C 0.6263(3) 0.19999(18) 0.09305(13)
H45_3 H 0.6073 0.2396 0.1086
C50_3 C 0.5598(3) 0.1412(2) 0.09973(14)
H46_3 H 0.4985 0.1418 0.1197
C53_3 C 0.3997(4) 0.0146(2) 0.08784(15)
H49_3 H 0.3566 0.0551 0.0908
C55_3 C 0.5841(3) 0.08212(18) 0.07701(13)
C56_3 C 0.5204(3) 0.01632(18) 0.08180(12)
Co7 Co 0.82918(3) 0.28935(2) 0.057800(12)
Co1_3 Co 0.31551(4) 0.79357(2) 0.077922(13)
Co3_2 Co 0.17082(3) 0.78935(2) 0.442200(12)
O5_3 O 0.3410(2) 0.79013(13) 0.01069(7)
O15_3 O 0.1517(2) 0.84137(16) 0.06758(8)
H1_3 H 0.112(3) 0.823(2) 0.0475(10)
H2_3 H 0.107(3) 0.864(2) 0.0848(10)
O16_3 O 0.4795(3) 0.74183(13) 0.08370(10)
H3_3 H 0.495(4) 0.7278(18) 0.1093(5)
H4_3 H 0.502(4) 0.7104(16) 0.0658(9)
O19_3 O 0.3207(2) 0.85265(13) 0.45105(9)
H9_3 H 0.3853(19) 0.8334(16) 0.4565(14)
H10_3 H 0.320(3) 0.8943(8) 0.4586(14)
O20_3 O 0.0188(2) 0.72398(14) 0.43829(8)
H12_3 H 0.009(4) 0.7198(19) 0.4655(4)
N1_3 N 0.2853(3) 0.79467(16) 0.14684(8)
N2_3 N 0.1799(3) 0.80209(16) 0.37326(8)
N3_3 N 0.2346(3) 0.69463(15) 0.07339(10)
N8_3 N 0.4010(3) 0.89121(14) 0.08412(9)
C17_3 C 0.1808(3) 0.7765(2) 0.16298(11)
H19_3 H 0.1230 0.7613 0.1438
C18_3 C 0.1553(3) 0.7793(2) 0.20706(11)
H20_3 H 0.0817 0.7658 0.2170
C19_3 C 0.3657(3) 0.81753(19) 0.17517(10)
H21_3 H 0.4381 0.8317 0.1644
C20_3 C 0.3466(3) 0.8212(2) 0.21936(11)
H22_3 H 0.4057 0.8364 0.2379
C21_3 C 0.1423(4) 0.7562(2) 0.30243(12)
H23_3 H 0.1030 0.7240 0.2854
C22_3 C 0.1288(4) 0.7563(2) 0.34710(12)
H24_3 H 0.0816 0.7226 0.3596
C23_3 C 0.2687(4) 0.8521(2) 0.31027(12)
H25_3 H 0.3179 0.8854 0.2984
C24_3 C 0.2492(4) 0.8500(2) 0.35470(12)
H26_3 H 0.2851 0.8827 0.3724
C25_3 C 0.2383(3) 0.8018(2) 0.23598(10)
C26_3 C 0.2144(3) 0.8041(2) 0.28338(10)
C27_3 C 0.1573(4) 0.6824(2) 0.04157(12)
H27_3 H 0.1400 0.7176 0.0220
C28_3 C 0.1027(4) 0.62013(19) 0.03659(13)
H28_3 H 0.0491 0.6139 0.0141
C29_3 C 0.2589(4) 0.6425(2) 0.10051(14)
H29_3 H 0.3134 0.6500 0.1226
C30_3 C 0.2079(4) 0.5787(2) 0.09759(13)
H30_3 H 0.2275 0.5442 0.1173
C33_3 C 0.0983(4) 0.4413(2) 0.08447(17)
H33_3 H 0.1613 0.4433 0.1037
C34_3 C 0.0366(4) 0.3812(2) 0.07945(17)
H34_3 H 0.0620 0.3426 0.0948
C35_3 C 0.1266(3) 0.56624(18) 0.06488(11)
C36_3 C 0.0663(3) 0.49928(18) 0.06079(12)
C51_3 C 0.5788(3) 0.9547(2) 0.07883(16)
H47_3 H 0.6601 0.9541 0.0760
C52_3 C 0.5175(3) 0.89426(19) 0.08009(14)
H48_3 H 0.5590 0.8531 0.0780
C54_3 C 0.3452(4) 0.9504(2) 0.08924(15)
H50_3 H 0.2647 0.9491 0.0941
O21_2 O 0.1683(2) 0.77781(12) 0.50850(7)
N10_2 N 0.0565(3) 0.87456(14) 0.44580(10)
N11_2 N 0.2842(3) 0.70237(15) 0.43447(10)
S1_3 S 0.38105(9) 0.62998(5) 0.87068(3)
S2_3 S 0.12955(9) 0.60466(5) 0.68220(3)
O1_3 O 0.5052(3) 0.61671(16) 0.86423(12)
O2_3 O 0.3149(4) 0.6188(2) 0.83264(15)
O3_3 O 0.3400(4) 0.59310(18) 0.90866(14)
O4_3 O 0.2565(4) 0.88684(18) 0.98787(9)
O6_3 O 0.3305(3) 0.95061(14) 0.83239(9)
O7_3 O 0.4000(2) 0.87134(12) 0.78679(7)
O8_3 O 0.0344(4) 0.5701(2) 0.66022(13)
O9_3 O 0.2323(4) 0.5644(2) 0.68556(16)
O10_3 O 0.0917(4) 0.6341(2) 0.72250(10)
O11_3 O 0.38201(19) 0.83993(12) 0.69197(7)
O12_3 O 0.4133(3) 0.87070(17) 0.62327(9)
O14_3 O 0.0267(2) 0.70273(18) 0.52314(8)
O18_3 O 0.3937(2) 0.99062(14) 0.66933(9)
H8_3 H 0.3193(9) 0.9923(18) 0.6684(15)
N5_3 N 0.5919(2) 0.92773(14) 0.72822(9)
C1_3 C 0.3671(3) 0.71882(18) 0.88308(11)
C2_3 C 0.3467(3) 0.73957(19) 0.92563(11)
H13_3 H 0.3439 0.7070 0.9479
C3_3 C 0.3304(3) 0.80879(18) 0.93501(10)
C4_3 C 0.3344(3) 0.85716(19) 0.90211(10)
H14_3 H 0.3218 0.9034 0.9087
C5_3 C 0.3571(3) 0.83779(18) 0.85907(10)
C6_3 C 0.3735(3) 0.76750(18) 0.84959(10)
H15_3 H 0.3885 0.7535 0.8211
C7_3 C 0.3078(3) 0.8312(2) 0.98155(10)
C8_3 C 0.3632(3) 0.89095(18) 0.82347(10)
C9_3 C 0.1690(3) 0.67590(17) 0.64848(10)
C10_3 C 0.2476(3) 0.72566(18) 0.66377(10)
H16_3 H 0.2761 0.7231 0.6921
C11_3 C 0.2826(3) 0.77849(18) 0.63674(9)
C12_3 C 0.2386(3) 0.78147(18) 0.59407(10)
H17_3 H 0.2630 0.8165 0.5755
C13_3 C 0.1595(3) 0.73285(18) 0.57946(9)
C14_3 C 0.1230(3) 0.67993(18) 0.60669(10)
H18_3 H 0.0685 0.6476 0.5971
C15_3 C 0.3645(3) 0.83469(19) 0.65176(10)
C16_3 C 0.1124(3) 0.73822(18) 0.53369(9)
C37_3 C 0.6534(3) 0.9051(3) 0.76173(13)
H35_3 H 0.6126 0.8901 0.7862
C38_3 C 0.7743(3) 0.9024(3) 0.76273(13)
H36_3 H 0.8128 0.8829 0.7864
C39_3 C 0.6538(3) 0.9531(3) 0.69517(14)
H37_3 H 0.6133 0.9707 0.6713
C40_3 C 0.7745(3) 0.9548(3) 0.69430(16)
H38_3 H 0.8131 0.9738 0.6704
H39_3 H 0.9921 0.8298 0.7442
C45_3 C 0.8377(3) 0.92893(19) 0.72819(12)
C46_3 C 0.9672(3) 0.9298(2) 0.72866(12)
H11_3 H 0.988(3) 0.6914(15) 0.4244(9)
N4_2 N 0.9435(3) 0.37456(14) 0.05420(10)
C31_3 C 0.9717(4) 0.4914(2) 0.03238(13)
H31_3 H 0.9479 0.5282 0.0151
C32_3 C 0.9138(3) 0.4297(2) 0.02991(12)
H32_3 H 0.8512 0.4256 0.0106
C31_4 C 0.0283(4) 0.9914(2) 0.46762(13)
C32_4 C 0.0862(3) 0.9297(2) 0.47009(12)
H32_4 H 0.1488 0.9256 0.4894
Co1_4 Co 0.68449(4) 0.29357(2) 0.422078(13)
Co2_2 Co 0.59845(3) 0.42982(2) 0.770670(13)
S1_4 S 0.61895(9) 0.12998(5) 0.62932(3)
S2_4 S 0.87045(9) 0.10466(5) 0.81780(3)
O1_4 O 0.4948(3) 0.11671(16) 0.63577(12)
O2_4 O 0.6851(4) 0.1188(2) 0.66736(15)
O3_4 O 0.6600(4) 0.09310(18) 0.59134(14)
O4_4 O 0.7435(4) 0.38684(18) 0.51213(9)
O5_4 O 0.6590(2) 0.29013(13) 0.48931(7)
O6_4 O 0.6695(3) 0.45061(14) 0.66761(9)
O7_4 O 0.6000(2) 0.37134(12) 0.71321(7)
O8_4 O 0.9656(4) 0.0701(2) 0.83978(13)
O9_4 O 0.7677(4) 0.0644(2) 0.81444(16)
O10_4 O 0.9083(4) 0.1341(2) 0.77750(10)
O11_4 O 0.61799(19) 0.33993(12) 0.80803(7)
O12_4 O 0.5867(3) 0.37070(17) 0.87673(9)
O13_2 O 0.8317(2) 0.27781(12) 0.99150(7)
O14_4 O 0.9733(2) 0.20273(18) 0.97686(8)
O15_4 O 0.8483(2) 0.34137(16) 0.43242(8)
H1_4 H 0.888(3) 0.323(2) 0.4525(10)
H2_4 H 0.893(3) 0.364(2) 0.4152(10)
O16_4 O 0.5205(3) 0.24183(13) 0.41630(10)
H3_4 H 0.505(4) 0.2278(18) 0.3907(5)
H4_4 H 0.498(4) 0.2104(16) 0.4342(9)
O17_3 O 0.6031(2) 0.52315(13) 0.73758(8)
H5_3 H 0.543(2) 0.5491(18) 0.7378(11)
H6_3 H 0.614(3) 0.506(2) 0.7124(6)
O18_4 O 0.6063(2) 0.49062(14) 0.83067(9)
H7_3 H 0.577(3) 0.5305(10) 0.8349(15)
H8_4 H 0.6807(9) 0.4923(18) 0.8316(15)
O19_4 O 0.6793(2) 0.35265(13) 0.04895(9)
H9_4 H 0.6147(19) 0.3334(16) 0.0435(14)
H10_4 H 0.680(3) 0.3943(8) 0.0414(14)
O20_4 O 0.9812(2) 0.22398(14) 0.06171(8)
H12_4 H 0.991(4) 0.2198(19) 0.0345(4)
N1_4 N 0.7147(3) 0.29467(16) 0.35316(8)
N2_4 N 0.8201(3) 0.30209(16) 0.12674(8)
N3_4 N 0.7654(3) 0.19463(15) 0.42661(10)
N5_4 N 0.4081(2) 0.42773(14) 0.77178(9)
N8_4 N 0.5990(3) 0.39121(14) 0.41588(9)
C1_4 C 0.6329(3) 0.21882(18) 0.61692(11)
C2_4 C 0.6533(3) 0.23957(19) 0.57437(11)
H13_4 H 0.6561 0.2070 0.5521
C3_4 C 0.6696(3) 0.30879(18) 0.56499(10)
C4_4 C 0.6656(3) 0.35716(19) 0.59789(10)
H14_4 H 0.6782 0.4034 0.5913
C5_4 C 0.6429(3) 0.33779(18) 0.64093(10)
C6_4 C 0.6265(3) 0.26750(18) 0.65041(10)
H15_4 H 0.6115 0.2535 0.6789
C7_4 C 0.6922(3) 0.3312(2) 0.51845(10)
C8_4 C 0.6368(3) 0.39095(18) 0.67653(10)
C9_4 C 0.8310(3) 0.17590(17) 0.85152(10)
C10_4 C 0.7524(3) 0.22566(18) 0.83623(10)
H16_4 H 0.7239 0.2231 0.8079
C11_4 C 0.7174(3) 0.27849(18) 0.86326(9)
C12_4 C 0.7614(3) 0.28147(18) 0.90593(10)
H17_4 H 0.7370 0.3165 0.9245
C13_4 C 0.8405(3) 0.23285(18) 0.92054(9)
C14_4 C 0.8770(3) 0.17993(18) 0.89331(10)
H18_4 H 0.9315 0.1476 0.9029
C15_4 C 0.6355(3) 0.33469(19) 0.84824(10)
C16_4 C 0.8876(3) 0.23822(18) 0.96631(9)
C17_4 C 0.8192(3) 0.2765(2) 0.33702(11)
H19_4 H 0.8770 0.2613 0.3562
C18_4 C 0.8447(3) 0.2793(2) 0.29294(11)
H20_4 H 0.9183 0.2658 0.2830
C19_4 C 0.6343(3) 0.31753(19) 0.32483(10)
H21_4 H 0.5619 0.3317 0.3356
C20_4 C 0.6534(3) 0.3212(2) 0.28064(11)
H22_4 H 0.5943 0.3364 0.2621
C21_4 C 0.8577(4) 0.2562(2) 0.19757(12)
H23_4 H 0.8970 0.2240 0.2146
C22_4 C 0.8712(4) 0.2563(2) 0.15290(12)
H24_4 H 0.9184 0.2226 0.1404
C23_4 C 0.7313(4) 0.3521(2) 0.18973(12)
H25_4 H 0.6821 0.3854 0.2016
C24_4 C 0.7508(4) 0.3500(2) 0.14530(12)
H26_4 H 0.7149 0.3827 0.1276
C25_4 C 0.7617(3) 0.3018(2) 0.26402(10)
C26_4 C 0.7856(3) 0.3041(2) 0.21662(10)
C27_4 C 0.8427(4) 0.1824(2) 0.45843(12)
H27_4 H 0.8600 0.2176 0.4780
C28_4 C 0.8973(4) 0.12013(19) 0.46341(13)
H28_4 H 0.9509 0.1139 0.4859
C29_4 C 0.7411(4) 0.1425(2) 0.39949(14)
H29_4 H 0.6866 0.1500 0.3774
C30_4 C 0.7921(4) 0.0787(2) 0.40241(13)
H30_4 H 0.7725 0.0442 0.3827
C35_4 C 0.8734(3) 0.06624(18) 0.43512(11)
C37_4 C 0.3466(3) 0.4051(3) 0.73827(13)
H35_4 H 0.3874 0.3901 0.7138
C38_4 C 0.2257(3) 0.4024(3) 0.73727(13)
H36_4 H 0.1872 0.3829 0.7136
C39_4 C 0.3462(3) 0.4531(3) 0.80483(14)
H37_4 H 0.3867 0.4707 0.8287
C40_4 C 0.2255(3) 0.4548(3) 0.80570(16)
H38_4 H 0.1869 0.4738 0.8296
H39_4 H 0.0079 0.3298 0.7558
H41_3 H 0.0085 0.5293 0.7888
C45_4 C 0.1623(3) 0.42893(19) 0.77181(12)
C46_4 C 0.0328(3) 0.4298(2) 0.77134(12)
C47_4 C 0.2600(4) 0.6443(2) 0.45716(14)
H43_4 H 0.1980 0.6452 0.4769
C48_4 C 0.3221(5) 0.5844(2) 0.45259(16)
H44_4 H 0.3024 0.5457 0.4689
C49_4 C 0.3737(3) 0.69999(18) 0.40695(13)
H45_4 H 0.3927 0.7396 0.3914
C50_4 C 0.4402(3) 0.6412(2) 0.40027(14)
H46_4 H 0.5015 0.6418 0.3803
C51_4 C 0.4212(3) 0.4547(2) 0.42117(16)
H47_4 H 0.3399 0.4541 0.4240
C52_4 C 0.4825(3) 0.39426(19) 0.41991(14)
H48_4 H 0.4410 0.3531 0.4220
C53_4 C 0.6003(4) 0.5146(2) 0.41216(15)
H49_4 H 0.6434 0.5551 0.4092
C54_4 C 0.6548(4) 0.4504(2) 0.41076(15)
H50_4 H 0.7353 0.4491 0.4059
C55_4 C 0.4159(3) 0.58212(18) 0.42299(13)
C56_4 C 0.4796(3) 0.51632(18) 0.41820(12)
N9_2 N 0.7884(2) 0.43081(15) 0.77046(10)
C41_4 C 0.9691(3) 0.3709(2) 0.76185(13)
C42_4 C 0.8479(3) 0.37315(19) 0.76140(12)
H40_4 H 0.8064 0.3333 0.7546
C43_4 C 0.9699(3) 0.4889(2) 0.78112(15)
C44_4 C 0.8491(3) 0.4869(2) 0.77924(14)
H42_4 H 0.8081 0.5275 0.7845
O17_4 O 0.3969(2) 0.02315(13) 0.76242(8)
H5_4 H 0.457(2) 0.0491(18) 0.7622(11)
H6_4 H 0.386(3) 0.006(2) 0.7876(6)
H7_4 H 0.423(3) 0.0305(10) 0.6651(15)
H41_4 H 0.9915 0.0293 0.7112
H11_4 H 0.012(3) 0.1914(15) 0.0756(9)
H31_4 H 0.0521 0.0282 0.4849
C33_4 C 0.9017(4) 0.9413(2) 0.41553(17)
H33_4 H 0.8387 0.9433 0.3963
C34_4 C 0.9634(4) 0.8812(2) 0.42055(17)
H34_4 H 0.9380 0.8426 0.4052
C36_4 C 0.9337(3) 0.99928(18) 0.43921(12)
loop_
_geom_bond_atom_site_label_1
_geom_bond_atom_site_label_2
_geom_bond_site_symmetry_1
_geom_bond_site_symmetry_2
Co1 O5 1_555 1_555
Co2 O7 1_555 1_555
Co3 O19 1_555 1_555
S2 O8 1_555 1_555
O2 S1 1_555 1_555
O3 S1 1_555 1_555
O4 C7 1_555 1_555
O5 C7 1_555 1_555
O6 C8 1_555 1_555
O7 C8 1_555 1_555
O9 S2 1_555 1_555
O10 S2 1_555 1_555
O11 Co2 1_555 1_555
O12 C15 1_555 1_555
O21 C16 1_555 1_555
O14 C16 1_555 1_555
O15 Co1 1_555 1_555
H1 O15 1_555 1_555
H2 O15 1_555 1_555
O16 Co1 1_555 1_555
H3 O16 1_555 1_555
O18 Co2 1_555 1_555
H8 O18 1_555 1_555
O19 H9 1_555 1_555
H10 O19 1_555 1_555
O20 Co3 1_555 1_555
H11 O20 1_555 1_555
H12 O20 1_555 1_555
N1 Co1 1_555 1_555
N2 Co3 1_555 1_555
N3 Co1 1_555 1_555
N4 C32 1_555 1_555
N8 Co1 1_555 1_555
C1 S1 1_555 1_555
C2 C1 1_555 1_555
H13 C2 1_555 1_555
C3 C2 1_555 1_555
C4 C3 1_555 1_555
H14 C4 1_555 1_555
C5 C4 1_555 1_555
C6 C1 1_555 1_555
H15 C6 1_555 1_555
C7 C3 1_555 1_555
C8 C5 1_555 1_555
C9 S2 1_555 1_555
C10 C9 1_555 1_555
H16 C10 1_555 1_555
C11 C10 1_555 1_555
C12 C11 1_555 1_555
H17 C12 1_555 1_555
C13 C12 1_555 1_555
C14 C9 1_555 1_555
H18 C14 1_555 1_555
C15 O11 1_555 1_555
C16 C13 1_555 1_555
C17 N1 1_555 1_555
H19 C17 1_555 1_555
C18 C17 1_555 1_555
H20 C18 1_555 1_555
C19 N1 1_555 1_555
H21 C19 1_555 1_555
C20 C19 1_555 1_555
H22 C20 1_555 1_555
C21 H23 1_555 1_555
C22 N2 1_555 1_555
H24 C22 1_555 1_555
C23 H25 1_555 1_555
C24 N2 1_555 1_555
H26 C24 1_555 1_555
C25 C18 1_555 1_555
C26 C21 1_555 1_555
C27 N3 1_555 1_555
H27 C27 1_555 1_555
C28 C27 1_555 1_555
H28 C28 1_555 1_555
C29 N3 1_555 1_555
H29 C29 1_555 1_555
C30 C29 1_555 1_555
H30 C30 1_555 1_555
C31 H31 1_555 1_555
C32 C31 1_555 1_555
H32 C32 1_555 1_555
C33 H33 1_555 1_555
C34 N4 1_555 1_555
H34 C34 1_555 1_555
C35 C28 1_555 1_555
C36 C31 1_555 1_555
C54 N8 1_555 1_555
H50 C54 1_555 1_555
N9 Co2 1_555 1_555
N10 Co3 1_555 1_555
N11 Co3 1_555 1_555
Co5 N4 1_555 1_555
C5 C6 1_555 1_555
C11 C15 1_555 1_555
C13 C14 1_555 1_555
C20 C25 1_555 1_555
C21 C22 1_555 1_555
C23 C24 1_555 1_555
C23 C26 1_555 1_555
C25 C26 1_555 1_555
C30 C35 1_555 1_555
C33 C34 1_555 1_555
C33 C36 1_555 1_555
C35 C36 1_555 1_555
N9 C42 1_555 1_555
C37 N5 1_555 1_555
H35 C37 1_555 1_555
C38 C37 1_555 1_555
H36 C38 1_555 1_555
C39 N5 1_555 1_555
H37 C39 1_555 1_555
C40 C39 1_555 1_555
H38 C40 1_555 1_555
C41 H39 1_555 1_555
C42 C41 1_555 1_555
H40 C42 1_555 1_555
C44 N9 1_555 1_555
C45 C38 1_555 1_555
C46 C41 1_555 1_555
C51 H47 1_555 1_555
H48 C52 1_555 1_555
C40 C45 1_555 1_555
C43 C44 1_555 1_555
C43 C46 1_555 1_555
C45 C46 1_555 1_555
C51 C52 1_555 1_555
N7 C47 1_555 1_555
C47 H43 1_555 1_555
C48 C47 1_555 1_555
H44 C48 1_555 1_555
C49 N7 1_555 1_555
H45 C49 1_555 1_555
C50 C49 1_555 1_555
C55 C48 1_555 1_555
Co5 N7 1_555 1_555
C50 C55 1_555 1_555
C55 C56 1_555 1_555
N6 C42_2 1_555 1_555
C37_2 N5_2 1_555 1_555
H35_2 C37_2 1_555 1_555
C38_2 C37_2 1_555 1_555
H36_2 C38_2 1_555 1_555
C39_2 N5_2 1_555 1_555
H37_2 C39_2 1_555 1_555
C40_2 C39_2 1_555 1_555
H38_2 C40_2 1_555 1_555
C41_2 H39_2 1_555 1_555
C42_2 C41_2 1_555 1_555
H40_2 C42_2 1_555 1_555
C43_2 H41_2 1_555 1_555
C44_2 N6 1_555 1_555
H42_2 C44_2 1_555 1_555
C45_2 C38_2 1_555 1_555
C46_2 C41_2 1_555 1_555
Co6 N6 1_555 1_555
C40_2 C45_2 1_555 1_555
C43_2 C44_2 1_555 1_555
C43_2 C46_2 1_555 1_555
C45_2 C46_2 1_555 1_555
N11 C47_2 1_555 1_555
C47_2 H43_2 1_555 1_555
C48_2 C47_2 1_555 1_555
H44_2 C48_2 1_555 1_555
C49_2 N11 1_555 1_555
H45_2 C49_2 1_555 1_555
C50_2 C49_2 1_555 1_555
C51_2 H47_2 1_555 1_555
H48_2 C52_2 1_555 1_555
C55_2 C48_2 1_555 1_555
C56_2 C51_2 1_555 1_555
C50_2 C55_2 1_555 1_555
C51_2 C52_2 1_555 1_555
C55_2 C56_2 1_555 1_555
N10 C32_2 1_555 1_555
C32_2 C31_2 1_555 1_555
H32_2 C32_2 1_555 1_555
C33_2 H33_2 1_555 1_555
C34_2 N10 1_555 1_555
H34_2 C34_2 1_555 1_555
C36_2 C31_2 1_555 1_555
C33_2 C34_2 1_555 1_555
C33_2 C36_2 1_555 1_555
Co6 O7_2 1_555 1_555
S2_2 O8_2 1_555 1_555
O2_2 S1_2 1_555 1_555
O3_2 S1_2 1_555 1_555
O4_2 C7_2 1_555 1_555
O6_2 C8_2 1_555 1_555
O7_2 C8_2 1_555 1_555
O9_2 S2_2 1_555 1_555
O10_2 S2_2 1_555 1_555
O11_2 Co6 1_555 1_555
O12_2 C15_2 1_555 1_555
O13 C16_2 1_555 1_555
O14_2 C16_2 1_555 1_555
O17 Co6 1_555 1_555
H5 O17 1_555 1_555
H6 O17 1_555 1_555
O18_2 Co6 1_555 1_555
H7 O18_2 1_555 1_555
H8_2 O18_2 1_555 1_555
C1_2 S1_2 1_555 1_555
C2_2 C1_2 1_555 1_555
H13_2 C2_2 1_555 1_555
C3_2 C2_2 1_555 1_555
C4_2 C3_2 1_555 1_555
H14_2 C4_2 1_555 1_555
C5_2 C4_2 1_555 1_555
C6_2 C1_2 1_555 1_555
H15_2 C6_2 1_555 1_555
C7_2 C3_2 1_555 1_555
C8_2 C5_2 1_555 1_555
C9_2 S2_2 1_555 1_555
C10_2 C9_2 1_555 1_555
H16_2 C10_2 1_555 1_555
C11_2 C10_2 1_555 1_555
C12_2 C11_2 1_555 1_555
H17_2 C12_2 1_555 1_555
C13_2 C12_2 1_555 1_555
C14_2 C9_2 1_555 1_555
H18_2 C14_2 1_555 1_555
C15_2 O11_2 1_555 1_555
C16_2 C13_2 1_555 1_555
Co5 O13 1_555 1_555
C5_2 C6_2 1_555 1_555
C11_2 C15_2 1_555 1_555
C13_2 C14_2 1_555 1_555
Co1_2 O5_2 1_555 1_555
Co5 O19_2 1_555 1_555
O15_2 Co1_2 1_555 1_555
H1_2 O15_2 1_555 1_555
H2_2 O15_2 1_555 1_555
O16_2 Co1_2 1_555 1_555
H3_2 O16_2 1_555 1_555
O19_2 H9_2 1_555 1_555
H10_2 O19_2 1_555 1_555
O20_2 Co5 1_555 1_555
H11_2 O20_2 1_555 1_555
H12_2 O20_2 1_555 1_555
N1_2 Co1_2 1_555 1_555
N2_2 Co5 1_555 1_555
N3_2 Co1_2 1_555 1_555
N8_2 Co1_2 1_555 1_555
C17_2 N1_2 1_555 1_555
H19_2 C17_2 1_555 1_555
C18_2 C17_2 1_555 1_555
H20_2 C18_2 1_555 1_555
C19_2 N1_2 1_555 1_555
H21_2 C19_2 1_555 1_555
C20_2 C19_2 1_555 1_555
H22_2 C20_2 1_555 1_555
C21_2 H23_2 1_555 1_555
C22_2 N2_2 1_555 1_555
H24_2 C22_2 1_555 1_555
C23_2 H25_2 1_555 1_555
C24_2 N2_2 1_555 1_555
H26_2 C24_2 1_555 1_555
C25_2 C18_2 1_555 1_555
C26_2 C21_2 1_555 1_555
C27_2 N3_2 1_555 1_555
H27_2 C27_2 1_555 1_555
C28_2 C27_2 1_555 1_555
H28_2 C28_2 1_555 1_555
C29_2 N3_2 1_555 1_555
H29_2 C29_2 1_555 1_555
C30_2 C29_2 1_555 1_555
H30_2 C30_2 1_555 1_555
C35_2 C28_2 1_555 1_555
C53 H49 1_555 1_555
C54_2 N8_2 1_555 1_555
H50_2 C54_2 1_555 1_555
C20_2 C25_2 1_555 1_555
C21_2 C22_2 1_555 1_555
C23_2 C24_2 1_555 1_555
C23_2 C26_2 1_555 1_555
C25_2 C26_2 1_555 1_555
C30_2 C35_2 1_555 1_555
C53 C54_2 1_555 1_555
H5_2 O17_2 1_555 1_555
H6_2 O17_2 1_555 1_555
C53_2 H49_2 1_555 1_555
N6_2 C42_3 1_555 1_555
C42_3 C41_3 1_555 1_555
H40_3 C42_3 1_555 1_555
C44_3 N6_2 1_555 1_555
Co6_2 N6_2 1_555 1_555
C43_3 C44_3 1_555 1_555
N7_2 C47_3 1_555 1_555
C47_3 H43_3 1_555 1_555
C48_3 C47_3 1_555 1_555
H44_3 C48_3 1_555 1_555
C49_3 N7_2 1_555 1_555
H45_3 C49_3 1_555 1_555
C50_3 C49_3 1_555 1_555
H46_3 C50_3 1_555 1_555
C53_3 H49_3 1_555 1_555
C55_3 C48_3 1_555 1_555
Co7 N7_2 1_555 1_555
C50_3 C55_3 1_555 1_555
C53_3 C56_3 1_555 1_555
C55_3 C56_3 1_555 1_555
Co1_3 O5_3 1_555 1_555
Co3_2 O19_3 1_555 1_555
O15_3 Co1_3 1_555 1_555
H1_3 O15_3 1_555 1_555
H2_3 O15_3 1_555 1_555
O16_3 Co1_3 1_555 1_555
H3_3 O16_3 1_555 1_555
H4_3 O16_3 1_555 1_555
O19_3 H9_3 1_555 1_555
H10_3 O19_3 1_555 1_555
O20_3 Co3_2 1_555 1_555
H12_3 O20_3 1_555 1_555
N1_3 Co1_3 1_555 1_555
N2_3 Co3_2 1_555 1_555
N3_3 Co1_3 1_555 1_555
N8_3 Co1_3 1_555 1_555
C17_3 N1_3 1_555 1_555
H19_3 C17_3 1_555 1_555
C18_3 C17_3 1_555 1_555
H20_3 C18_3 1_555 1_555
C19_3 N1_3 1_555 1_555
H21_3 C19_3 1_555 1_555
C20_3 C19_3 1_555 1_555
H22_3 C20_3 1_555 1_555
C21_3 H23_3 1_555 1_555
C22_3 N2_3 1_555 1_555
H24_3 C22_3 1_555 1_555
C23_3 H25_3 1_555 1_555
C24_3 N2_3 1_555 1_555
H26_3 C24_3 1_555 1_555
C25_3 C18_3 1_555 1_555
C26_3 C21_3 1_555 1_555
C27_3 N3_3 1_555 1_555
H27_3 C27_3 1_555 1_555
C28_3 C27_3 1_555 1_555
H28_3 C28_3 1_555 1_555
C29_3 N3_3 1_555 1_555
H29_3 C29_3 1_555 1_555
C30_3 C29_3 1_555 1_555
H30_3 C30_3 1_555 1_555
C33_3 H33_3 1_555 1_555
H34_3 C34_3 1_555 1_555
C35_3 C28_3 1_555 1_555
C51_3 H47_3 1_555 1_555
C52_3 N8_3 1_555 1_555
H48_3 C52_3 1_555 1_555
C54_3 N8_3 1_555 1_555
H50_3 C54_3 1_555 1_555
O21_2 Co3_2 1_555 1_555
N10_2 Co3_2 1_555 1_555
N11_2 Co3_2 1_555 1_555
C20_3 C25_3 1_555 1_555
C21_3 C22_3 1_555 1_555
C23_3 C24_3 1_555 1_555
C23_3 C26_3 1_555 1_555
C25_3 C26_3 1_555 1_555
C30_3 C35_3 1_555 1_555
C33_3 C34_3 1_555 1_555
C33_3 C36_3 1_555 1_555
C35_3 C36_3 1_555 1_555
C51_3 C52_3 1_555 1_555
Co6_2 O7_3 1_555 1_555
S1_3 O1_3 1_555 1_555
S2_3 O8_3 1_555 1_555
O2_3 S1_3 1_555 1_555
O3_3 S1_3 1_555 1_555
O4_3 C7_3 1_555 1_555
O6_3 C8_3 1_555 1_555
O7_3 C8_3 1_555 1_555
O9_3 S2_3 1_555 1_555
O10_3 S2_3 1_555 1_555
O11_3 Co6_2 1_555 1_555
O12_3 C15_3 1_555 1_555
O21_2 C16_3 1_555 1_555
O14_3 C16_3 1_555 1_555
O18_3 Co6_2 1_555 1_555
H8_3 O18_3 1_555 1_555
N5_3 Co6_2 1_555 1_555
C1_3 S1_3 1_555 1_555
C2_3 C1_3 1_555 1_555
H13_3 C2_3 1_555 1_555
C3_3 C2_3 1_555 1_555
C4_3 C3_3 1_555 1_555
H14_3 C4_3 1_555 1_555
C5_3 C4_3 1_555 1_555
C6_3 C1_3 1_555 1_555
H15_3 C6_3 1_555 1_555
C7_3 C3_3 1_555 1_555
C8_3 C5_3 1_555 1_555
C9_3 S2_3 1_555 1_555
C10_3 C9_3 1_555 1_555
H16_3 C10_3 1_555 1_555
C11_3 C10_3 1_555 1_555
C12_3 C11_3 1_555 1_555
H17_3 C12_3 1_555 1_555
C13_3 C12_3 1_555 1_555
C14_3 C9_3 1_555 1_555
H18_3 C14_3 1_555 1_555
C15_3 O11_3 1_555 1_555
C16_3 C13_3 1_555 1_555
C37_3 N5_3 1_555 1_555
H35_3 C37_3 1_555 1_555
C38_3 C37_3 1_555 1_555
H36_3 C38_3 1_555 1_555
C39_3 N5_3 1_555 1_555
H37_3 C39_3 1_555 1_555
C40_3 C39_3 1_555 1_555
H38_3 C40_3 1_555 1_555
C45_3 C38_3 1_555 1_555
C5_3 C6_3 1_555 1_555
C11_3 C15_3 1_555 1_555
C13_3 C14_3 1_555 1_555
C40_3 C45_3 1_555 1_555
C45_3 C46_3 1_555 1_555
N4_2 C32_3 1_555 1_555
C31_3 H31_3 1_555 1_555
C32_3 C31_3 1_555 1_555
H32_3 C32_3 1_555 1_555
Co7 N4_2 1_555 1_555
N10_2 C32_4 1_555 1_555
C32_4 C31_4 1_555 1_555
H32_4 C32_4 1_555 1_555
Co1_4 O5_4 1_555 1_555
Co2_2 O7_4 1_555 1_555
Co7 O19_4 1_555 1_555
S1_4 O1_4 1_555 1_555
S2_4 O8_4 1_555 1_555
O2_4 S1_4 1_555 1_555
O3_4 S1_4 1_555 1_555
O4_4 C7_4 1_555 1_555
O5_4 C7_4 1_555 1_555
O6_4 C8_4 1_555 1_555
O7_4 C8_4 1_555 1_555
O9_4 S2_4 1_555 1_555
O10_4 S2_4 1_555 1_555
O11_4 Co2_2 1_555 1_555
O12_4 C15_4 1_555 1_555
O13_2 C16_4 1_555 1_555
O14_4 C16_4 1_555 1_555
O15_4 Co1_4 1_555 1_555
H1_4 O15_4 1_555 1_555
H2_4 O15_4 1_555 1_555
O16_4 Co1_4 1_555 1_555
H3_4 O16_4 1_555 1_555
H4_4 O16_4 1_555 1_555
O17_3 Co2_2 1_555 1_555
H5_3 O17_3 1_555 1_555
H6_3 O17_3 1_555 1_555
O18_4 Co2_2 1_555 1_555
H7_3 O18_4 1_555 1_555
H8_4 O18_4 1_555 1_555
O19_4 H9_4 1_555 1_555
H10_4 O19_4 1_555 1_555
O20_4 Co7 1_555 1_555
H12_4 O20_4 1_555 1_555
N1_4 Co1_4 1_555 1_555
N2_4 Co7 1_555 1_555
N3_4 Co1_4 1_555 1_555
N5_4 Co2_2 1_555 1_555
N11_2 C47_4 1_555 1_555
N8_4 Co1_4 1_555 1_555
C1_4 S1_4 1_555 1_555
C2_4 C1_4 1_555 1_555
H13_4 C2_4 1_555 1_555
C3_4 C2_4 1_555 1_555
C4_4 C3_4 1_555 1_555
H14_4 C4_4 1_555 1_555
C5_4 C4_4 1_555 1_555
C6_4 C1_4 1_555 1_555
H15_4 C6_4 1_555 1_555
C7_4 C3_4 1_555 1_555
C8_4 C5_4 1_555 1_555
C9_4 S2_4 1_555 1_555
C10_4 C9_4 1_555 1_555
H16_4 C10_4 1_555 1_555
C11_4 C10_4 1_555 1_555
C12_4 C11_4 1_555 1_555
H17_4 C12_4 1_555 1_555
C13_4 C12_4 1_555 1_555
C14_4 C9_4 1_555 1_555
H18_4 C14_4 1_555 1_555
C15_4 O11_4 1_555 1_555
C16_4 C13_4 1_555 1_555
C17_4 N1_4 1_555 1_555
H19_4 C17_4 1_555 1_555
C18_4 C17_4 1_555 1_555
H20_4 C18_4 1_555 1_555
C19_4 N1_4 1_555 1_555
H21_4 C19_4 1_555 1_555
C20_4 C19_4 1_555 1_555
H22_4 C20_4 1_555 1_555
C21_4 H23_4 1_555 1_555
C22_4 N2_4 1_555 1_555
H24_4 C22_4 1_555 1_555
C23_4 H25_4 1_555 1_555
C24_4 N2_4 1_555 1_555
H26_4 C24_4 1_555 1_555
C25_4 C18_4 1_555 1_555
C26_4 C21_4 1_555 1_555
C27_4 N3_4 1_555 1_555
H27_4 C27_4 1_555 1_555
C28_4 C27_4 1_555 1_555
H28_4 C28_4 1_555 1_555
C29_4 N3_4 1_555 1_555
H29_4 C29_4 1_555 1_555
C30_4 C29_4 1_555 1_555
H30_4 C30_4 1_555 1_555
C35_4 C28_4 1_555 1_555
C37_4 N5_4 1_555 1_555
H35_4 C37_4 1_555 1_555
C38_4 C37_4 1_555 1_555
H36_4 C38_4 1_555 1_555
C39_4 N5_4 1_555 1_555
H37_4 C39_4 1_555 1_555
C40_4 C39_4 1_555 1_555
H38_4 C40_4 1_555 1_555
C45_4 C38_4 1_555 1_555
C47_4 H43_4 1_555 1_555
C48_4 C47_4 1_555 1_555
H44_4 C48_4 1_555 1_555
C49_4 N11_2 1_555 1_555
H45_4 C49_4 1_555 1_555
C50_4 C49_4 1_555 1_555
H46_4 C50_4 1_555 1_555
C51_4 H47_4 1_555 1_555
C52_4 N8_4 1_555 1_555
H48_4 C52_4 1_555 1_555
C53_4 H49_4 1_555 1_555
C54_4 N8_4 1_555 1_555
H50_4 C54_4 1_555 1_555
C55_4 C48_4 1_555 1_555
C56_4 C51_4 1_555 1_555
N9_2 Co2_2 1_555 1_555
C5_4 C6_4 1_555 1_555
C11_4 C15_4 1_555 1_555
C13_4 C14_4 1_555 1_555
C20_4 C25_4 1_555 1_555
C21_4 C22_4 1_555 1_555
C23_4 C24_4 1_555 1_555
C23_4 C26_4 1_555 1_555
C25_4 C26_4 1_555 1_555
C30_4 C35_4 1_555 1_555
C40_4 C45_4 1_555 1_555
C45_4 C46_4 1_555 1_555
C50_4 C55_4 1_555 1_555
C51_4 C52_4 1_555 1_555
C53_4 C54_4 1_555 1_555
C53_4 C56_4 1_555 1_555
C55_4 C56_4 1_555 1_555
N9_2 C42_4 1_555 1_555
C42_4 C41_4 1_555 1_555
H40_4 C42_4 1_555 1_555
C44_4 N9_2 1_555 1_555
H42_4 C44_4 1_555 1_555
C43_4 C44_4 1_555 1_555
H5_4 O17_4 1_555 1_555
H6_4 O17_4 1_555 1_555
C33_4 H33_4 1_555 1_555
H34_4 C34_4 1_555 1_555
C33_4 C34_4 1_555 1_555
C33_4 C36_4 1_555 1_555

#END
