
###############################################################################
#
# This file contains modified crystal structure data generated from the
# MOF subset of the Cambridge Structural Database (CSD) v543 
# hosted by the Cambridge Crystallographic Data Centre (CCDC).
#
# This work is licensed under the Creative Commons
# Attribution-NonCommercial-ShareAlike 4.0 International License.
# To view a copy of this license, visit
# http://creativecommons.org/licenses/by-nc-sa/4.0/
# or send a letter to
# Creative Commons, PO Box 1866, Mountain View, CA 94042, USA.
#
# CIF created using the CSD Python API on 29 September 2022
# The structure has been converted into the P1 space group
# The structure has a 3D framework
# The original CSD entry WUFSAT is in the tetragonal crystal system
# The original CSD entry WUFSAT is in a Sohncke space group
# The framework has been calculated to contain at least 10.0% void space
# The void calculation uses a probe of radius 1.32A, grid spacing 0.4
#
###############################################################################

data_WUFSAT
_chemical_formula_moiety         '(C40 H72 Ca5 O40)n'
_symmetry_cell_setting           triclinic
_symmetry_space_group_name_H-M   'P 1'
_symmetry_Int_Tables_number      1
_space_group_name_Hall           'P 1'
loop_
_symmetry_equiv_pos_site_id
_symmetry_equiv_pos_as_xyz
1 x,y,z
_cell_length_a                   12.7900(18)
_cell_length_b                   12.7900(18)
_cell_length_c                   11.191(2)
_cell_angle_alpha                90
_cell_angle_beta                 90
_cell_angle_gamma                90
_cell_volume                     1830.67
loop_
_atom_site_label
_atom_site_type_symbol
_atom_site_fract_x
_atom_site_fract_y
_atom_site_fract_z
H11 H 0.0663 0.8172 0.1645
C8 C 0.0100(3) 0.7070(3) 0.2233(4)
C9 C 0.0218(3) 0.7174(3) 0.3574(3)
H13 H 0.0144 0.6505 0.3955
O8 O 0.1023(2) 0.6609(2) 0.1762(3)
H18 H 0.0987 0.6079 0.1195
O9 O 0.1238(2) 0.7591(2) 0.3773(2)
Ca3 Ca 0.27380(5) 0.72620(5) 0.2500
H2 H 0.8172 0.0663 0.8355
C3 C 0.7070(3) 0.0100(3) 0.7767(4)
C4 C 0.7174(3) 0.0218(3) 0.6426(3)
H4 H 0.6505 0.0144 0.6045
O3 O 0.6609(2) 0.1023(2) 0.8238(3)
H9 H 0.6079 0.0987 0.8805
O4 O 0.7591(2) 0.1238(2) 0.6227(2)
Ca2 Ca 0.72620(5) 0.27380(5) 0.7500
Ca1 Ca 0.77380(5) 0.77380(5) 0.0000
C6 C 0.9113(3) 0.8796(3) 0.2261(3)
H10 H 0.9155 0.9501 0.1923
C7 C 0.9915(3) 0.8105(3) 0.1632(3)
H12 H 0.9508 0.6636 0.2052
C10 C 0.9365(3) 0.7850(4) 0.4067(4)
H14 H 0.8699 0.7500 0.3963
H15 H 0.9477 0.7949 0.4917
O6 O 0.8109(2) 0.8384(2) 0.2017(2)
H16 H 0.7600 0.8360 0.2610
O7 O 0.9574(2) 0.7940(3) 0.0429(2)
O10 O 0.9327(3) 0.8855(3) 0.3490(3)
O11 O 0.6023(2) 0.8391(2) 0.0738(3)
O14 O 0.7409(2) 0.6238(2) 0.1273(2)
C1 C 0.8796(3) 0.9113(3) 0.7739(3)
H1 H 0.9501 0.9155 0.8077
C2 C 0.8105(3) 0.9915(3) 0.8368(3)
H3 H 0.6636 0.9508 0.7948
C5 C 0.7850(4) 0.9365(3) 0.5933(4)
H5 H 0.7500 0.8699 0.6037
H6 H 0.7949 0.9477 0.5083
Ca1_2 Ca 0.77380(5) 0.77380(5) 1.0000
O1 O 0.8384(2) 0.8109(2) 0.7983(2)
H7 H 0.8360 0.7600 0.7390
O2 O 0.7940(3) 0.9574(2) 0.9571(2)
O5 O 0.8855(3) 0.9327(3) 0.6510(3)
O12 O 0.8391(2) 0.6023(2) 0.9262(3)
O13 O 0.6238(2) 0.7409(2) 0.8727(2)
C1_2 C 0.1204(3) 0.0887(3) 0.2739(3)
H1_2 H 0.0499 0.0845 0.3077
C2_2 C 0.1895(3) 0.0085(3) 0.3368(3)
H3_2 H 0.3364 0.0492 0.2948
C5_2 C 0.2150(4) 0.0635(3) 0.0933(4)
H5_2 H 0.2500 0.1301 0.1037
H6_2 H 0.2051 0.0523 0.0083
Ca1_3 Ca 0.22620(5) 0.22620(5) 0.5000
O1_2 O 0.1616(2) 0.1891(2) 0.2983(2)
H7_2 H 0.1640 0.2400 0.2390
O2_2 O 0.2060(3) 0.0426(2) 0.4571(2)
O5_2 O 0.1145(3) 0.0673(3) 0.1510(3)
C6_2 C 0.0887(3) 0.1204(3) 0.7261(3)
H10_2 H 0.0845 0.0499 0.6923
C7_2 C 0.0085(3) 0.1895(3) 0.6632(3)
H12_2 H 0.0492 0.3364 0.7052
C10_2 C 0.0635(3) 0.2150(4) 0.9067(4)
H14_2 H 0.1301 0.2500 0.8963
H15_2 H 0.0523 0.2051 0.9917
O6_2 O 0.1891(2) 0.1616(2) 0.7017(2)
H16_2 H 0.2400 0.1640 0.7610
O7_2 O 0.0426(2) 0.2060(3) 0.5429(2)
O10_2 O 0.0673(3) 0.1145(3) 0.8490(3)
O11_2 O 0.3977(2) 0.1609(2) 0.5738(3)
O12_2 O 0.1609(2) 0.3977(2) 0.4262(3)
O13_2 O 0.3762(2) 0.2591(2) 0.3727(2)
O14_2 O 0.2591(2) 0.3762(2) 0.6273(2)
H2_2 H 0.1828 0.9337 0.3355
C3_2 C 0.2930(3) 0.9900(3) 0.2767(4)
C4_2 C 0.2826(3) 0.9782(3) 0.1426(3)
H4_2 H 0.3495 0.9856 0.1045
H8 H 0.2086 0.9955 0.5167
O3_2 O 0.3391(2) 0.8977(2) 0.3238(3)
H9_2 H 0.3921 0.9013 0.3805
O4_2 O 0.2409(2) 0.8762(2) 0.1227(2)
H11_2 H 0.9337 0.1828 0.6645
C8_2 C 0.9900(3) 0.2930(3) 0.7233(4)
C9_2 C 0.9782(3) 0.2826(3) 0.8574(3)
H13_2 H 0.9856 0.3495 0.8955
H17 H 0.9955 0.2086 0.4833
O8_2 O 0.8977(2) 0.3391(2) 0.6762(3)
H18_2 H 0.9013 0.3921 0.6195
O9_2 O 0.8762(2) 0.2409(2) 0.8773(2)
C9_3 C 0.7826(3) 0.5218(3) 0.1074(3)
H13_3 H 0.8495 0.5144 0.1455
C10_3 C 0.7150(4) 0.4365(3) 0.1567(4)
H14_3 H 0.7500 0.3699 0.1463
H15_3 H 0.7051 0.4477 0.2417
H16_3 H 0.6640 0.2600 0.0110
O10_3 O 0.6145(3) 0.4327(3) 0.0990(3)
C1_3 C 0.5887(3) 0.3796(3) 0.5239(3)
H1_3 H 0.5845 0.4501 0.5577
C2_3 C 0.5085(3) 0.3105(3) 0.5868(3)
H2_3 H 0.4337 0.3172 0.5855
C3_3 C 0.4900(3) 0.2070(3) 0.5267(4)
H3_3 H 0.5492 0.1636 0.5448
C4_3 C 0.4782(3) 0.2174(3) 0.3926(3)
H4_3 H 0.4856 0.1505 0.3545
C5_3 C 0.5635(3) 0.2850(4) 0.3433(4)
H5_3 H 0.6301 0.2500 0.3537
H6_3 H 0.5523 0.2949 0.2583
O1_3 O 0.6891(2) 0.3384(2) 0.5483(2)
H7_3 H 0.7400 0.3360 0.4890
O2_3 O 0.5426(2) 0.2940(3) 0.7071(2)
H8_2 H 0.4955 0.2914 0.7667
H9_3 H 0.4013 0.1079 0.6305
O5_3 O 0.5673(3) 0.3855(3) 0.4010(3)
C6_3 C 0.6204(3) 0.4113(3) 0.9761(3)
H10_3 H 0.5499 0.4155 0.9423
C7_3 C 0.6895(3) 0.4915(3) 0.9132(3)
H11_3 H 0.6828 0.5663 0.9145
C8_3 C 0.7930(3) 0.5100(3) 0.9733(4)
H12_3 H 0.8364 0.4508 0.9552
O6_3 O 0.6616(2) 0.3109(2) 0.9517(2)
O7_3 O 0.7060(3) 0.4574(2) 0.7929(2)
H17_2 H 0.7086 0.5045 0.7333
H18_3 H 0.8921 0.5987 0.8695
C1_4 C 0.4113(3) 0.6204(3) 0.0239(3)
H1_4 H 0.4155 0.5499 0.0577
C2_4 C 0.4915(3) 0.6895(3) 0.0868(3)
H2_4 H 0.5663 0.6828 0.0855
C3_4 C 0.5100(3) 0.7930(3) 0.0267(4)
H3_4 H 0.4508 0.8364 0.0448
O1_4 O 0.3109(2) 0.6616(2) 0.0483(2)
O2_4 O 0.4574(2) 0.7060(3) 0.2071(2)
H8_3 H 0.5045 0.7086 0.2667
H9_4 H 0.5987 0.8921 0.1305
C6_4 C 0.3796(3) 0.5887(3) 0.4761(3)
H10_4 H 0.4501 0.5845 0.4423
C7_4 C 0.3105(3) 0.5085(3) 0.4132(3)
H11_4 H 0.3172 0.4337 0.4145
C8_4 C 0.2070(3) 0.4900(3) 0.4733(4)
H12_4 H 0.1636 0.5492 0.4552
C9_4 C 0.2174(3) 0.4782(3) 0.6074(3)
H13_4 H 0.1505 0.4856 0.6455
C10_4 C 0.2850(4) 0.5635(3) 0.6567(4)
H14_4 H 0.2500 0.6301 0.6463
H15_4 H 0.2949 0.5523 0.7417
O6_4 O 0.3384(2) 0.6891(2) 0.4517(2)
H16_4 H 0.3360 0.7400 0.5110
O7_4 O 0.2940(3) 0.5426(2) 0.2929(2)
H17_3 H 0.2914 0.4955 0.2333
H18_4 H 0.1079 0.4013 0.3695
O10_4 O 0.3855(3) 0.5673(3) 0.5990(3)
C4_4 C 0.5218(3) 0.7826(3) 0.8926(3)
H4_4 H 0.5144 0.8495 0.8545
C5_4 C 0.4365(3) 0.7150(4) 0.8433(4)
H5_4 H 0.3699 0.7500 0.8537
H6_4 H 0.4477 0.7051 0.7583
H7_4 H 0.2600 0.6640 0.9890
O5_4 O 0.4327(3) 0.6145(3) 0.9010(3)
H17_4 H 0.0045 0.7914 0.9833
H8_4 H 0.7914 0.0045 0.0167
loop_
_geom_bond_atom_site_label_1
_geom_bond_atom_site_label_2
_geom_bond_site_symmetry_1
_geom_bond_site_symmetry_2
C9 C8 1_555 1_555
H13 C9 1_555 1_555
O8 C8 1_555 1_555
H18 O8 1_555 1_555
O9 C9 1_555 1_555
Ca3 O8 1_555 1_555
O9 Ca3 1_555 1_555
C4 C3 1_555 1_555
H4 C4 1_555 1_555
O3 C3 1_555 1_555
H9 O3 1_555 1_555
O4 C4 1_555 1_555
Ca2 O3 1_555 1_555
O4 Ca2 1_555 1_555
C6 H10 1_555 1_555
C7 C6 1_555 1_555
H14 C10 1_555 1_555
H15 C10 1_555 1_555
O6 Ca1 1_555 1_555
H16 O6 1_555 1_555
O7 Ca1 1_555 1_555
O10 C6 1_555 1_555
O11 Ca1 1_555 1_555
O14 Ca1 1_555 1_555
C6 O6 1_555 1_555
C7 O7 1_555 1_555
C10 O10 1_555 1_555
C1 H1 1_555 1_555
C2 C1 1_555 1_555
H5 C5 1_555 1_555
H6 C5 1_555 1_555
Ca1_2 O1 1_555 1_555
O1 C1 1_555 1_555
H7 O1 1_555 1_555
O2 C2 1_555 1_555
O5 C1 1_555 1_555
O12 Ca1_2 1_555 1_555
O13 Ca1_2 1_555 1_555
C5 O5 1_555 1_555
Ca1_2 O2 1_555 1_555
C1_2 H1_2 1_555 1_555
C2_2 C1_2 1_555 1_555
H5_2 C5_2 1_555 1_555
H6_2 C5_2 1_555 1_555
Ca1_3 O1_2 1_555 1_555
O1_2 C1_2 1_555 1_555
H7_2 O1_2 1_555 1_555
O2_2 C2_2 1_555 1_555
O5_2 C1_2 1_555 1_555
C6_2 H10_2 1_555 1_555
C7_2 C6_2 1_555 1_555
H14_2 C10_2 1_555 1_555
H15_2 C10_2 1_555 1_555
O6_2 Ca1_3 1_555 1_555
H16_2 O6_2 1_555 1_555
O7_2 Ca1_3 1_555 1_555
O10_2 C6_2 1_555 1_555
O11_2 Ca1_3 1_555 1_555
O12_2 Ca1_3 1_555 1_555
O13_2 Ca1_3 1_555 1_555
O14_2 Ca1_3 1_555 1_555
C5_2 O5_2 1_555 1_555
Ca1_3 O2_2 1_555 1_555
C6_2 O6_2 1_555 1_555
C7_2 O7_2 1_555 1_555
C10_2 O10_2 1_555 1_555
C4_2 C3_2 1_555 1_555
H4_2 C4_2 1_555 1_555
O3_2 C3_2 1_555 1_555
H9_2 O3_2 1_555 1_555
O4_2 C4_2 1_555 1_555
Ca3 O3_2 1_555 1_555
O4_2 Ca3 1_555 1_555
C9_2 C8_2 1_555 1_555
H13_2 C9_2 1_555 1_555
O8_2 C8_2 1_555 1_555
H18_2 O8_2 1_555 1_555
O9_2 C9_2 1_555 1_555
Ca2 O8_2 1_555 1_555
O9_2 Ca2 1_555 1_555
H13_3 C9_3 1_555 1_555
C10_3 C9_3 1_555 1_555
H14_3 C10_3 1_555 1_555
H15_3 C10_3 1_555 1_555
O14 C9_3 1_555 1_555
C10_3 O10_3 1_555 1_555
C1_3 H1_3 1_555 1_555
C2_3 C1_3 1_555 1_555
H2_3 C2_3 1_555 1_555
C3_3 C2_3 1_555 1_555
H3_3 C3_3 1_555 1_555
C4_3 C3_3 1_555 1_555
H4_3 C4_3 1_555 1_555
C5_3 C4_3 1_555 1_555
H5_3 C5_3 1_555 1_555
H6_3 C5_3 1_555 1_555
Ca2 O1_3 1_555 1_555
O1_3 C1_3 1_555 1_555
H7_3 O1_3 1_555 1_555
O2_3 C2_3 1_555 1_555
H8_2 O2_3 1_555 1_555
O11_2 C3_3 1_555 1_555
H9_3 O11_2 1_555 1_555
O13_2 C4_3 1_555 1_555
O5_3 C1_3 1_555 1_555
C6_3 H10_3 1_555 1_555
C7_3 C6_3 1_555 1_555
H11_3 C7_3 1_555 1_555
C8_3 C7_3 1_555 1_555
H12_3 C8_3 1_555 1_555
O6_3 Ca2 1_555 1_555
O7_3 Ca2 1_555 1_555
H17_2 O7_3 1_555 1_555
O12 C8_3 1_555 1_555
H18_3 O12 1_555 1_555
C5_3 O5_3 1_555 1_555
Ca2 O2_3 1_555 1_555
C6_3 O6_3 1_555 1_555
C7_3 O7_3 1_555 1_555
C1_4 H1_4 1_555 1_555
C2_4 C1_4 1_555 1_555
H2_4 C2_4 1_555 1_555
C3_4 C2_4 1_555 1_555
H3_4 C3_4 1_555 1_555
Ca3 O1_4 1_555 1_555
O1_4 C1_4 1_555 1_555
O2_4 C2_4 1_555 1_555
H8_3 O2_4 1_555 1_555
O11 C3_4 1_555 1_555
H9_4 O11 1_555 1_555
C6_4 H10_4 1_555 1_555
C7_4 C6_4 1_555 1_555
H11_4 C7_4 1_555 1_555
C8_4 C7_4 1_555 1_555
H12_4 C8_4 1_555 1_555
C9_4 C8_4 1_555 1_555
H13_4 C9_4 1_555 1_555
C10_4 C9_4 1_555 1_555
H14_4 C10_4 1_555 1_555
H15_4 C10_4 1_555 1_555
O6_4 Ca3 1_555 1_555
H16_4 O6_4 1_555 1_555
O7_4 Ca3 1_555 1_555
H17_3 O7_4 1_555 1_555
O12_2 C8_4 1_555 1_555
H18_4 O12_2 1_555 1_555
O14_2 C9_4 1_555 1_555
O10_4 C6_4 1_555 1_555
Ca3 O2_4 1_555 1_555
C6_4 O6_4 1_555 1_555
C7_4 O7_4 1_555 1_555
C10_4 O10_4 1_555 1_555
H4_4 C4_4 1_555 1_555
C5_4 C4_4 1_555 1_555
H5_4 C5_4 1_555 1_555
H6_4 C5_4 1_555 1_555
O13 C4_4 1_555 1_555
C5_4 O5_4 1_555 1_555

#END
