
###############################################################################
#
# This file contains modified crystal structure data generated from the
# MOF subset of the Cambridge Structural Database (CSD) v543 
# hosted by the Cambridge Crystallographic Data Centre (CCDC).
#
# This work is licensed under the Creative Commons
# Attribution-NonCommercial-ShareAlike 4.0 International License.
# To view a copy of this license, visit
# http://creativecommons.org/licenses/by-nc-sa/4.0/
# or send a letter to
# Creative Commons, PO Box 1866, Mountain View, CA 94042, USA.
#
# CIF created using the CSD Python API on 29 September 2022
# The structure has been converted into the P1 space group
# The structure has a 3D framework
# The original CSD entry WUFSOI is in the monoclinic crystal system
# The framework has been calculated to contain at least 10.0% void space
# The void calculation uses a probe of radius 1.32A, grid spacing 0.4
#
###############################################################################

data_WUFSOI
_chemical_formula_moiety         '(C136 H168 Mn8 N24 O42)n'
_symmetry_cell_setting           triclinic
_symmetry_space_group_name_H-M   'P 1'
_symmetry_Int_Tables_number      1
_space_group_name_Hall           'P 1'
loop_
_symmetry_equiv_pos_site_id
_symmetry_equiv_pos_as_xyz
1 x,y,z
_cell_length_a                   12.6107(4)
_cell_length_b                   18.3490(9)
_cell_length_c                   17.6001(7)
_cell_angle_alpha                90
_cell_angle_beta                 98.701(4)
_cell_angle_gamma                90
_cell_volume                     4025.68
loop_
_atom_site_label
_atom_site_type_symbol
_atom_site_fract_x
_atom_site_fract_y
_atom_site_fract_z
Mn3 Mn 0.04289(5) 0.20535(4) 0.19564(4)
C1 C 0.2713(3) 0.3882(3) 0.2308(3)
C2 C 0.2919(4) 0.4590(3) 0.2564(3)
H1 H 0.2394 0.4853 0.2764
C3 C 0.3913(4) 0.4910(3) 0.2522(3)
C4 C 0.4696(4) 0.4511(3) 0.2230(3)
H2 H 0.5366 0.4718 0.2217
C5 C 0.4493(3) 0.3807(3) 0.1956(3)
C6 C 0.3493(3) 0.3502(3) 0.1993(3)
H3 H 0.3343 0.3034 0.1803
C7 C 0.1678(3) 0.3504(3) 0.2396(3)
C8 C 0.4139(4) 0.5682(3) 0.2769(3)
C9 C 0.5323(3) 0.3369(3) 0.1627(3)
C10 C 0.5039(4) 0.2963(3) 0.0960(3)
H4 H 0.4333 0.2969 0.0714
C11 C 0.5796(4) 0.2546(3) 0.0656(3)
C12 C 0.6838(3) 0.2525(3) 0.1039(3)
H5 H 0.7346 0.2241 0.0845
C13 C 0.7139(4) 0.2922(3) 0.1711(3)
C14 C 0.6380(3) 0.3346(3) 0.1997(3)
H6 H 0.6579 0.3618 0.2442
C16 C 0.8275(4) 0.2877(3) 0.2133(3)
C17 C 0.0894(5) 0.1706(3) 0.3717(3)
C18 C 0.2688(5) 0.2111(4) 0.3708(5)
H7 H 0.2311 0.2496 0.3412
H8 H 0.3123 0.1852 0.3396
H9 H 0.3136 0.2313 0.4146
C20 C 0.2300(8) 0.0972(6) 0.4429(5)
H13 H 0.2624 0.0636 0.4105
H14 H 0.2860 0.1128 0.4836
C21 C 0.0461(9) 0.0664(4) 0.4501(4)
H15 H 0.0110 0.0732 0.4950
H16 H 0.0209 0.0206 0.4262
C22 C 0.1576(12) 0.0619(8) 0.4739(10)
H17 H 0.1695 0.0748 0.5279
H18 H 0.1758 0.0107 0.4713
C25 C 0.1426(6) 0.5070(4) 0.4361(5)
H22 H 0.1196 0.4586 0.4466
H23 H 0.1438 0.5367 0.4812
H24 H 0.2133 0.5050 0.4222
C26 C 0.0896(7) 0.6115(4) 0.3460(6)
H25 H 0.1662 0.6170 0.3462
H26 H 0.0679 0.6470 0.3815
C27 C 0.0337(7) 0.6271(4) 0.2687(6)
H27 H 0.0622 0.5973 0.2311
H28 H 0.0425 0.6780 0.2560
C29 C 0.0567(6) 0.1722(5) 0.0223(4)
C30 C 0.2109(8) 0.2370(7) 0.0144(7)
H31 H 0.1923 0.2558 0.0616
H33 H 0.2827 0.2182 0.0234
O1 O 0.1483(3) 0.2936(2) 0.2000(2)
O2 O 0.1103(3) 0.37776(18) 0.2839(2)
O3 O 0.5096(3) 0.58993(19) 0.2870(2)
O4 O 0.3375(3) 0.6102(2) 0.2862(3)
O5 O 0.8500(2) 0.3199(2) 0.2756(2)
O6 O 0.8899(3) 0.2500(2) 0.1810(2)
O9 O 0.0560(3) 0.22078(18) 0.32409(19)
O11 O 0.0370(3) 0.2045(3) 0.0754(2)
N1 N 0.1921(4) 0.1615(3) 0.3964(3)
N2 N 0.0158(5) 0.1253(3) 0.3964(3)
N4 N 0.0685(4) 0.5383(3) 0.3730(4)
Mn4 Mn 0.45711(5) 0.70535(4) 0.30436(4)
Mn5 Mn 0.99812(5) 0.33505(4) 0.35136(4)
O13 O 0.1625(3) 0.1102(2) 0.2138(3)
O16 O 0.1199(3) 0.3187(2) 0.4624(2)
C15 C 0.5485(4) 0.2131(3) 0.9914(3)
H32 H 0.2064 0.2754 0.9770
C32 C 0.1678(11) 0.1528(9) 0.9204(7)
H37 H 0.2451 0.1479 0.9246
H38 H 0.1416 0.1831 0.8763
C33 C 0.1091(10) 0.0746(9) 0.9154(7)
H39 H 0.1172 0.0520 0.8668
H40 H 0.1450 0.0438 0.9562
O7 O 0.6199(3) 0.1813(2) 0.9624(2)
O8 O 0.4525(3) 0.2142(2) 0.9592(2)
N6 N 0.1381(5) 0.1798(5) 0.9864(4)
Mn6 Mn 0.49812(5) 0.16495(4) 0.85136(4)
C19 C 0.9006(5) 0.1368(4) 0.3682(4)
H10 H 0.8923 0.1773 0.3332
H11 H 0.8636 0.1468 0.4108
H12 H 0.8711 0.0937 0.3421
C23 C 0.9736(4) 0.5042(3) 0.3490(4)
C24 C 0.7939(5) 0.5055(5) 0.2787(5)
H19 H 0.7940 0.4578 0.3012
H20 H 0.7750 0.5018 0.2240
H21 H 0.7426 0.5357 0.2989
C28 C 0.9199(7) 0.6105(4) 0.2687(5)
H29 H 0.8901 0.6462 0.3003
H30 H 0.8820 0.6150 0.2167
C31 C 0.8758(7) 0.1174(6) 0.0169(7)
H34 H 0.8770 0.1467 0.0623
H35 H 0.8584 0.0680 0.0282
O10 O 0.9544(3) 0.4431(2) 0.3755(2)
N3 N 0.9015(4) 0.5379(3) 0.2974(3)
O12 O 0.9904(3) 0.08993(19) 0.2130(2)
O17 O 0.9525(3) 0.2858(2) 0.4592(2)
C8_2 C 0.0861(4) 0.0682(3) 0.2231(3)
C23_2 C 0.5264(4) 0.0042(3) 0.1510(4)
C24_2 C 0.7061(5) 0.0055(5) 0.2213(5)
H20_2 H 0.7250 0.0018 0.2760
H21_2 H 0.7574 0.0357 0.2011
C25_2 C 0.3574(6) 0.0070(4) 0.0639(5)
H23_2 H 0.3562 0.0367 0.0188
H24_2 H 0.2867 0.0050 0.0778
C26_2 C 0.4104(7) 0.1115(4) 0.1540(6)
H25_2 H 0.3338 0.1170 0.1538
H26_2 H 0.4321 0.1470 0.1185
C27_2 C 0.4663(7) 0.1271(4) 0.2313(6)
H27_2 H 0.4378 0.0973 0.2689
H28_2 H 0.4575 0.1780 0.2440
C28_2 C 0.5801(7) 0.1105(4) 0.2313(5)
H29_2 H 0.6099 0.1462 0.1997
H30_2 H 0.6180 0.1150 0.2833
N3_2 N 0.5985(4) 0.0379(3) 0.2026(3)
N4_2 N 0.4315(4) 0.0383(3) 0.1270(4)
Mn2 Mn 0.50188(5) 0.83505(4) 0.14864(4)
C1_2 C 0.2287(3) 0.8882(3) 0.2692(3)
C2_2 C 0.2081(4) 0.9590(3) 0.2436(3)
H1_2 H 0.2606 0.9853 0.2236
C3_2 C 0.1087(4) 0.9910(3) 0.2478(3)
C4_2 C 0.0304(4) 0.9511(3) 0.2770(3)
C5_2 C 0.0507(3) 0.8807(3) 0.3044(3)
C6_2 C 0.1507(3) 0.8502(3) 0.3007(3)
H3_2 H 0.1657 0.8034 0.3197
C7_2 C 0.3322(3) 0.8504(3) 0.2604(3)
H4_2 H 0.0667 0.7969 0.4286
C17_2 C 0.4106(5) 0.6706(3) 0.1283(3)
C18_2 C 0.2312(5) 0.7111(4) 0.1292(5)
H7_2 H 0.2689 0.7496 0.1588
H8_2 H 0.1877 0.6852 0.1604
H9_2 H 0.1864 0.7313 0.0854
C19_2 C 0.5994(5) 0.6368(4) 0.1318(4)
H10_2 H 0.6077 0.6773 0.1668
H11_2 H 0.6364 0.6468 0.0892
H12_2 H 0.6289 0.5937 0.1579
C20_2 C 0.2700(8) 0.5972(6) 0.0571(5)
H13_2 H 0.2376 0.5636 0.0895
H14_2 H 0.2140 0.6128 0.0164
C21_2 C 0.4539(9) 0.5664(4) 0.0499(4)
H15_2 H 0.4890 0.5732 0.0050
H16_2 H 0.4791 0.5206 0.0738
C22_2 C 0.3424(12) 0.5619(8) 0.0261(10)
H18_2 H 0.3242 0.5107 0.0287
H19_2 H 0.7060 0.9578 0.1988
H22_2 H 0.3804 0.9586 0.0534
C29_2 C 0.4433(6) 0.6722(5) 0.4777(4)
C30_2 C 0.2891(8) 0.7370(7) 0.4856(7)
H31_2 H 0.3077 0.7558 0.4384
H32_2 H 0.2936 0.7754 0.5230
H33_2 H 0.2173 0.7182 0.4766
C31_2 C 0.6242(7) 0.6174(6) 0.4831(7)
H34_2 H 0.6230 0.6467 0.4377
H35_2 H 0.6416 0.5680 0.4718
H36 H 0.6772 0.6361 0.5232
C32_2 C 0.3322(11) 0.6528(9) 0.5796(7)
H37_2 H 0.2549 0.6479 0.5754
H38_2 H 0.3584 0.6831 0.6237
C33_2 C 0.3909(10) 0.5746(9) 0.5846(7)
H39_2 H 0.3828 0.5520 0.6332
H40_2 H 0.3550 0.5438 0.5438
C34 C 0.5106(8) 0.5779(9) 0.5778(7)
H41 H 0.5504 0.6018 0.6224
H42 H 0.5392 0.5291 0.5741
O1_2 O 0.3517(3) 0.7936(2) 0.3000(2)
O2_2 O 0.3897(3) 0.87776(18) 0.2161(2)
O8_2 O 0.0475(3) 0.7142(2) 0.5408(2)
O9_2 O 0.4440(3) 0.72078(18) 0.17591(19)
O10_2 O 0.5456(3) 0.9431(2) 0.1245(2)
O11_2 O 0.4630(3) 0.7045(3) 0.4246(2)
N1_2 N 0.3079(4) 0.6615(3) 0.1036(3)
N2_2 N 0.4842(5) 0.6253(3) 0.1036(3)
N5 N 0.5189(5) 0.6195(5) 0.5080(4)
N6_2 N 0.3619(5) 0.6798(5) 0.5136(4)
Mn6_2 Mn 0.00188(5) 0.66495(4) 0.64864(4)
O14 O 0.6500(2) 0.8199(2) 0.2244(2)
O15 O 0.6101(3) 0.7500(2) 0.3190(2)
O16_2 O 0.3801(3) 0.8187(2) 0.0376(2)
O17_2 O 0.5475(3) 0.7858(2) 0.0408(2)
H2_2 H 0.9634 0.9718 0.2783
C9_2 C 0.9677(3) 0.8369(3) 0.3373(3)
C10_2 C 0.9961(4) 0.7963(3) 0.4040(3)
C11_2 C 0.9204(4) 0.7546(3) 0.4344(3)
C12_2 C 0.8162(3) 0.7525(3) 0.3961(3)
H5_2 H 0.7654 0.7241 0.4155
C13_2 C 0.7861(4) 0.7922(3) 0.3289(3)
C14_2 C 0.8620(3) 0.8346(3) 0.3003(3)
H6_2 H 0.8421 0.8618 0.2558
C15_2 C 0.9515(4) 0.7131(3) 0.5086(3)
C16_2 C 0.6725(4) 0.7877(3) 0.2867(3)
O7_2 O 0.8801(3) 0.6813(2) 0.5376(2)
C19_3 C 0.0994(5) 0.8632(4) 0.6318(4)
H10_3 H 0.1077 0.8227 0.6668
H11_3 H 0.1364 0.8532 0.5892
H12_3 H 0.1289 0.9063 0.6579
C23_3 C 0.0264(4) 0.4958(3) 0.6510(4)
C24_3 C 0.2061(5) 0.4945(5) 0.7213(5)
H19_3 H 0.2060 0.5422 0.6988
H20_3 H 0.2250 0.4982 0.7760
H21_3 H 0.2574 0.4643 0.7011
C28_3 C 0.0801(7) 0.3895(4) 0.7313(5)
H29_3 H 0.1099 0.3538 0.6997
H30_3 H 0.1180 0.3850 0.7833
C31_3 C 0.1242(7) 0.8826(6) 0.9831(7)
H34_3 H 0.1230 0.8533 0.9377
H35_3 H 0.1416 0.9320 0.9718
O10_3 O 0.0456(3) 0.5569(2) 0.6245(2)
N3_3 N 0.0985(4) 0.4621(3) 0.7026(3)
O12_2 O 0.0096(3) 0.91007(19) 0.7870(2)
O14_2 O 0.1500(2) 0.6801(2) 0.7244(2)
O15_2 O 0.1101(3) 0.7500(2) 0.8190(2)
C15_3 C 0.4515(4) 0.7869(3) 0.0086(3)
H32_3 H 0.7936 0.7246 0.0230
C32_3 C 0.8322(11) 0.8472(9) 0.0796(7)
H37_3 H 0.7549 0.8521 0.0754
H38_3 H 0.8584 0.8169 0.1237
C33_3 C 0.8909(10) 0.9254(9) 0.0846(7)
H39_3 H 0.8828 0.9480 0.1332
H40_3 H 0.8550 0.9562 0.0438
N6_3 N 0.8619(5) 0.8202(5) 0.0136(4)
Mn1 Mn 0.95711(5) 0.79465(4) 0.80436(4)
C1_3 C 0.7287(3) 0.6118(3) 0.7692(3)
C2_3 C 0.7081(4) 0.5410(3) 0.7436(3)
H1_3 H 0.7606 0.5147 0.7236
C3_3 C 0.6087(4) 0.5090(3) 0.7478(3)
C4_3 C 0.5304(4) 0.5489(3) 0.7770(3)
H2_3 H 0.4634 0.5282 0.7783
C5_3 C 0.5507(3) 0.6193(3) 0.8044(3)
C6_3 C 0.6507(3) 0.6498(3) 0.8007(3)
H3_3 H 0.6657 0.6966 0.8197
C7_3 C 0.8322(3) 0.6496(3) 0.7604(3)
C8_3 C 0.5861(4) 0.4318(3) 0.7231(3)
C9_3 C 0.4677(3) 0.6631(3) 0.8373(3)
C10_3 C 0.4961(4) 0.7037(3) 0.9040(3)
H4_3 H 0.5667 0.7031 0.9286
C11_3 C 0.4204(4) 0.7454(3) 0.9344(3)
C12_3 C 0.3162(3) 0.7475(3) 0.8961(3)
H5_3 H 0.2654 0.7759 0.9155
C13_3 C 0.2861(4) 0.7078(3) 0.8289(3)
C14_3 C 0.3620(3) 0.6654(3) 0.8003(3)
H6_3 H 0.3421 0.6382 0.7558
C16_3 C 0.1725(4) 0.7123(3) 0.7867(3)
C17_3 C 0.9106(5) 0.8294(3) 0.6283(3)
C18_3 C 0.7312(5) 0.7889(4) 0.6292(5)
H7_3 H 0.7689 0.7504 0.6588
H8_3 H 0.6877 0.8148 0.6604
H9_3 H 0.6864 0.7687 0.5854
C20_3 C 0.7700(8) 0.9028(6) 0.5571(5)
H13_3 H 0.7376 0.9364 0.5895
H14_3 H 0.7140 0.8872 0.5164
C21_3 C 0.9539(9) 0.9336(4) 0.5499(4)
H15_3 H 0.9890 0.9268 0.5050
H16_3 H 0.9791 0.9794 0.5738
C22_3 C 0.8424(12) 0.9381(8) 0.5261(10)
H17_2 H 0.8305 0.9252 0.4721
H18_3 H 0.8242 0.9893 0.5287
C25_3 C 0.8574(6) 0.4930(4) 0.5639(5)
H22_3 H 0.8804 0.5414 0.5534
H23_3 H 0.8562 0.4633 0.5188
H24_3 H 0.7867 0.4950 0.5778
C26_3 C 0.9104(7) 0.3885(4) 0.6540(6)
H25_3 H 0.8338 0.3830 0.6538
H26_3 H 0.9321 0.3530 0.6185
C27_3 C 0.9663(7) 0.3729(4) 0.7313(6)
H27_3 H 0.9378 0.4027 0.7689
H28_3 H 0.9575 0.3220 0.7440
C29_3 C 0.9433(6) 0.8278(5) 0.9777(4)
C30_3 C 0.7891(8) 0.7630(7) 0.9856(7)
H31_3 H 0.8077 0.7442 0.9384
H33_3 H 0.7173 0.7818 0.9766
O1_3 O 0.8517(3) 0.7064(2) 0.8000(2)
O2_3 O 0.8897(3) 0.62224(18) 0.7161(2)
O3_2 O 0.4904(3) 0.41007(19) 0.7130(2)
O4_2 O 0.6625(3) 0.3898(2) 0.7138(3)
O9_3 O 0.9440(3) 0.77922(18) 0.67591(19)
O11_3 O 0.9630(3) 0.7955(3) 0.9246(2)
N1_3 N 0.8079(4) 0.8385(3) 0.6036(3)
N2_3 N 0.9842(5) 0.8747(3) 0.6036(3)
N4_3 N 0.9315(4) 0.4617(3) 0.6270(4)
Mn4_2 Mn 0.54289(5) 0.29465(4) 0.69564(4)
O13_2 O 0.8375(3) 0.8898(2) 0.7862(3)
H2_4 H 0.0366 0.0282 0.7217
C9_4 C 0.0323(3) 0.1631(3) 0.6627(3)
C10_4 C 0.0039(4) 0.2037(3) 0.5960(3)
C11_4 C 0.0796(4) 0.2454(3) 0.5656(3)
C12_4 C 0.1838(3) 0.2475(3) 0.6039(3)
H5_4 H 0.2346 0.2759 0.5845
C13_4 C 0.2139(4) 0.2078(3) 0.6711(3)
C14_4 C 0.1380(3) 0.1654(3) 0.6997(3)
H6_4 H 0.1579 0.1382 0.7442
C15_4 C 0.0485(4) 0.2869(3) 0.4914(3)
C16_4 C 0.3275(4) 0.2123(3) 0.7133(3)
O5_2 O 0.3500(2) 0.1801(2) 0.7756(2)
O6_2 O 0.3899(3) 0.2500(2) 0.6810(2)
C1_4 C 0.7713(3) 0.1118(3) 0.7308(3)
C2_4 C 0.7919(4) 0.0410(3) 0.7564(3)
H1_4 H 0.7394 0.0147 0.7764
C3_4 C 0.8913(4) 0.0090(3) 0.7522(3)
C4_4 C 0.9696(4) 0.0489(3) 0.7230(3)
C5_4 C 0.9493(3) 0.1193(3) 0.6956(3)
C6_4 C 0.8493(3) 0.1498(3) 0.6993(3)
H3_4 H 0.8343 0.1966 0.6803
C7_4 C 0.6678(3) 0.1496(3) 0.7396(3)
H4_4 H 0.9333 0.2031 0.5714
C17_4 C 0.5894(5) 0.3294(3) 0.8717(3)
C18_4 C 0.7688(5) 0.2889(4) 0.8708(5)
H7_4 H 0.7311 0.2504 0.8412
H8_4 H 0.8123 0.3148 0.8396
H9_4 H 0.8136 0.2687 0.9146
C19_4 C 0.4006(5) 0.3632(4) 0.8682(4)
H10_4 H 0.3923 0.3227 0.8332
H11_4 H 0.3636 0.3532 0.9108
H12_4 H 0.3711 0.4063 0.8421
C20_4 C 0.7300(8) 0.4028(6) 0.9429(5)
H13_4 H 0.7624 0.4364 0.9105
H14_4 H 0.7860 0.3872 0.9836
C21_4 C 0.5461(9) 0.4336(4) 0.9501(4)
H15_4 H 0.5110 0.4268 0.9950
H16_4 H 0.5209 0.4794 0.9262
C22_4 C 0.6576(12) 0.4381(8) 0.9739(10)
H18_4 H 0.6758 0.4893 0.9713
H19_4 H 0.2940 0.0422 0.8012
H22_4 H 0.6196 0.0414 0.9466
C29_4 C 0.5567(6) 0.3278(5) 0.5223(4)
C30_4 C 0.7109(8) 0.2630(7) 0.5144(7)
H31_4 H 0.6923 0.2442 0.5616
H32_4 H 0.7064 0.2246 0.4770
H33_4 H 0.7827 0.2818 0.5234
C31_4 C 0.3758(7) 0.3826(6) 0.5169(7)
H34_4 H 0.3770 0.3533 0.5623
H35_4 H 0.3584 0.4320 0.5282
H36_2 H 0.3228 0.3639 0.4768
C32_4 C 0.6678(11) 0.3472(9) 0.4204(7)
H37_4 H 0.7451 0.3521 0.4246
H38_4 H 0.6416 0.3169 0.3763
C33_4 C 0.6091(10) 0.4254(9) 0.4154(7)
H39_4 H 0.6172 0.4480 0.3668
H40_4 H 0.6450 0.4562 0.4562
C34_2 C 0.4894(8) 0.4221(9) 0.4222(7)
H41_2 H 0.4496 0.3982 0.3776
H42_2 H 0.4608 0.4709 0.4259
O1_4 O 0.6483(3) 0.2064(2) 0.7000(2)
O2_4 O 0.6103(3) 0.12224(18) 0.7839(2)
O9_4 O 0.5560(3) 0.27922(18) 0.82409(19)
O10_4 O 0.4544(3) 0.0569(2) 0.8755(2)
O11_4 O 0.5370(3) 0.2955(3) 0.5754(2)
N1_4 N 0.6921(4) 0.3385(3) 0.8964(3)
N2_4 N 0.5158(5) 0.3747(3) 0.8964(3)
N5_2 N 0.4811(5) 0.3805(5) 0.4920(4)
N6_4 N 0.6381(5) 0.3202(5) 0.4864(4)
C8_4 C 0.9139(4) 0.9318(3) 0.7769(3)
C23_4 C 0.4736(4) 0.9958(3) 0.8490(4)
C24_4 C 0.2939(5) 0.9945(5) 0.7787(5)
H20_4 H 0.2750 0.9982 0.7240
H21_4 H 0.2426 0.9643 0.7989
C25_4 C 0.6426(6) 0.9930(4) 0.9361(5)
H23_4 H 0.6438 0.9633 0.9812
H24_4 H 0.7133 0.9950 0.9222
C26_4 C 0.5896(7) 0.8885(4) 0.8460(6)
H25_4 H 0.6662 0.8830 0.8462
H26_4 H 0.5679 0.8530 0.8815
C27_4 C 0.5337(7) 0.8729(4) 0.7687(6)
H27_4 H 0.5622 0.9027 0.7311
H28_4 H 0.5425 0.8220 0.7560
C28_4 C 0.4199(7) 0.8895(4) 0.7687(5)
H29_4 H 0.3901 0.8538 0.8003
H30_4 H 0.3820 0.8850 0.7167
N3_4 N 0.4015(4) 0.9621(3) 0.7974(3)
N4_4 N 0.5685(4) 0.9617(3) 0.8730(4)
H36_3 H 0.8228 0.1361 0.9768
C34_3 C 0.9894(8) 0.0779(9) 0.9222(7)
H41_3 H 0.9496 0.1018 0.8776
H42_3 H 0.9608 0.0291 0.9259
N5_3 N 0.9811(5) 0.1195(5) 0.9920(4)
H17_3 H 0.3305 0.5748 0.9721
H36_4 H 0.1772 0.8639 0.0232
C34_4 C 0.0106(8) 0.9221(9) 0.0778(7)
H41_4 H 0.0504 0.8982 0.1224
H42_4 H 0.0392 0.9709 0.0741
N5_4 N 0.0189(5) 0.8805(5) 0.0080(4)
H17_4 H 0.6695 0.4252 0.0279
loop_
_geom_bond_atom_site_label_1
_geom_bond_atom_site_label_2
_geom_bond_site_symmetry_1
_geom_bond_site_symmetry_2
Mn3 O1 1_555 1_555
C1 C2 1_555 1_555
C2 H1 1_555 1_555
C3 C2 1_555 1_555
C4 C3 1_555 1_555
H2 C4 1_555 1_555
C5 C4 1_555 1_555
C6 C1 1_555 1_555
H3 C6 1_555 1_555
C7 C1 1_555 1_555
C8 C3 1_555 1_555
C9 C5 1_555 1_555
C10 C9 1_555 1_555
H4 C10 1_555 1_555
C11 C10 1_555 1_555
C12 C11 1_555 1_555
H5 C12 1_555 1_555
C13 C12 1_555 1_555
C14 C9 1_555 1_555
H6 C14 1_555 1_555
C16 C13 1_555 1_555
C17 O9 1_555 1_555
C18 H7 1_555 1_555
H8 C18 1_555 1_555
H9 C18 1_555 1_555
C20 H13 1_555 1_555
H14 C20 1_555 1_555
C21 H15 1_555 1_555
H16 C21 1_555 1_555
C22 C20 1_555 1_555
H17 C22 1_555 1_555
H18 C22 1_555 1_555
C25 H22 1_555 1_555
H23 C25 1_555 1_555
H24 C25 1_555 1_555
C26 H25 1_555 1_555
H26 C26 1_555 1_555
C27 C26 1_555 1_555
H27 C27 1_555 1_555
H28 C27 1_555 1_555
C29 O11 1_555 1_555
C30 H31 1_555 1_555
H33 C30 1_555 1_555
O1 C7 1_555 1_555
O2 C7 1_555 1_555
O3 C8 1_555 1_555
O4 C8 1_555 1_555
O5 C16 1_555 1_555
O6 C16 1_555 1_555
O9 Mn3 1_555 1_555
O11 Mn3 1_555 1_555
N1 C17 1_555 1_555
N2 C17 1_555 1_555
Mn4 O3 1_555 1_555
Mn5 O5 1_555 1_555
O13 Mn3 1_555 1_555
C5 C6 1_555 1_555
C13 C14 1_555 1_555
C18 N1 1_555 1_555
C20 N1 1_555 1_555
C21 C22 1_555 1_555
C21 N2 1_555 1_555
C25 N4 1_555 1_555
C26 N4 1_555 1_555
O4 Mn4 1_555 1_555
C32 H37 1_555 1_555
H38 C32 1_555 1_555
C33 C32 1_555 1_555
H39 C33 1_555 1_555
H40 C33 1_555 1_555
O7 C15 1_555 1_555
O8 C15 1_555 1_555
Mn6 O7 1_555 1_555
C32 N6 1_555 1_555
O8 Mn6 1_555 1_555
C19 H10 1_555 1_555
H11 C19 1_555 1_555
H12 C19 1_555 1_555
C23 O10 1_555 1_555
C24 H19 1_555 1_555
H20 C24 1_555 1_555
H21 C24 1_555 1_555
H29 C28 1_555 1_555
H30 C28 1_555 1_555
C31 H34 1_555 1_555
H35 C31 1_555 1_555
O10 Mn5 1_555 1_555
N3 C23 1_555 1_555
O17 Mn5 1_555 1_555
C24 N3 1_555 1_555
C28 N3 1_555 1_555
H20_2 C24_2 1_555 1_555
H21_2 C24_2 1_555 1_555
H23_2 C25_2 1_555 1_555
H24_2 C25_2 1_555 1_555
C26_2 H25_2 1_555 1_555
H26_2 C26_2 1_555 1_555
C27_2 C26_2 1_555 1_555
H27_2 C27_2 1_555 1_555
H28_2 C27_2 1_555 1_555
C28_2 C27_2 1_555 1_555
H29_2 C28_2 1_555 1_555
H30_2 C28_2 1_555 1_555
O13 C8_2 1_555 1_555
N3_2 C23_2 1_555 1_555
N4_2 C23_2 1_555 1_555
C24_2 N3_2 1_555 1_555
C25_2 N4_2 1_555 1_555
C26_2 N4_2 1_555 1_555
C28_2 N3_2 1_555 1_555
Mn4 O1_2 1_555 1_555
Mn2 O2_2 1_555 1_555
C1_2 C2_2 1_555 1_555
C2_2 H1_2 1_555 1_555
C3_2 C2_2 1_555 1_555
C4_2 C3_2 1_555 1_555
C5_2 C4_2 1_555 1_555
C6_2 C1_2 1_555 1_555
H3_2 C6_2 1_555 1_555
C7_2 C1_2 1_555 1_555
C17_2 O9_2 1_555 1_555
C18_2 H7_2 1_555 1_555
H8_2 C18_2 1_555 1_555
H9_2 C18_2 1_555 1_555
C19_2 H10_2 1_555 1_555
H11_2 C19_2 1_555 1_555
H12_2 C19_2 1_555 1_555
C20_2 H13_2 1_555 1_555
H14_2 C20_2 1_555 1_555
C21_2 H15_2 1_555 1_555
H16_2 C21_2 1_555 1_555
C22_2 C20_2 1_555 1_555
H18_2 C22_2 1_555 1_555
C29_2 O11_2 1_555 1_555
C30_2 H31_2 1_555 1_555
H32_2 C30_2 1_555 1_555
H33_2 C30_2 1_555 1_555
C31_2 H34_2 1_555 1_555
H35_2 C31_2 1_555 1_555
H36 C31_2 1_555 1_555
C32_2 H37_2 1_555 1_555
H38_2 C32_2 1_555 1_555
C33_2 C32_2 1_555 1_555
H39_2 C33_2 1_555 1_555
H40_2 C33_2 1_555 1_555
C34 C33_2 1_555 1_555
H41 C34 1_555 1_555
H42 C34 1_555 1_555
O1_2 C7_2 1_555 1_555
O2_2 C7_2 1_555 1_555
O9_2 Mn4 1_555 1_555
O10_2 Mn2 1_555 1_555
O11_2 Mn4 1_555 1_555
N1_2 C17_2 1_555 1_555
N2_2 C17_2 1_555 1_555
N5 C29_2 1_555 1_555
N6_2 C29_2 1_555 1_555
O14 Mn2 1_555 1_555
O15 Mn4 1_555 1_555
O16_2 Mn2 1_555 1_555
O17_2 Mn2 1_555 1_555
Mn2 O9_2 1_555 1_555
C5_2 C6_2 1_555 1_555
C18_2 N1_2 1_555 1_555
C19_2 N2_2 1_555 1_555
C20_2 N1_2 1_555 1_555
C21_2 C22_2 1_555 1_555
C21_2 N2_2 1_555 1_555
C30_2 N6_2 1_555 1_555
C31_2 N5 1_555 1_555
C32_2 N6_2 1_555 1_555
C34 N5 1_555 1_555
O8_2 Mn6_2 1_555 1_555
C10_2 C9_2 1_555 1_555
C11_2 C10_2 1_555 1_555
C12_2 C11_2 1_555 1_555
H5_2 C12_2 1_555 1_555
C13_2 C12_2 1_555 1_555
C14_2 C9_2 1_555 1_555
H6_2 C14_2 1_555 1_555
C15_2 C11_2 1_555 1_555
C16_2 C13_2 1_555 1_555
O14 C16_2 1_555 1_555
O15 C16_2 1_555 1_555
O7_2 C15_2 1_555 1_555
C13_2 C14_2 1_555 1_555
C19_3 H10_3 1_555 1_555
H11_3 C19_3 1_555 1_555
H12_3 C19_3 1_555 1_555
C23_3 O10_3 1_555 1_555
C24_3 H19_3 1_555 1_555
H20_3 C24_3 1_555 1_555
H21_3 C24_3 1_555 1_555
H29_3 C28_3 1_555 1_555
H30_3 C28_3 1_555 1_555
C31_3 H34_3 1_555 1_555
H35_3 C31_3 1_555 1_555
O10_3 Mn6_2 1_555 1_555
N3_3 C23_3 1_555 1_555
O14_2 Mn6_2 1_555 1_555
C24_3 N3_3 1_555 1_555
C28_3 N3_3 1_555 1_555
C32_3 H37_3 1_555 1_555
H38_3 C32_3 1_555 1_555
C33_3 C32_3 1_555 1_555
H39_3 C33_3 1_555 1_555
H40_3 C33_3 1_555 1_555
O16_2 C15_3 1_555 1_555
O17_2 C15_3 1_555 1_555
C32_3 N6_3 1_555 1_555
Mn1 O1_3 1_555 1_555
C1_3 C2_3 1_555 1_555
C2_3 H1_3 1_555 1_555
C3_3 C2_3 1_555 1_555
C4_3 C3_3 1_555 1_555
H2_3 C4_3 1_555 1_555
C5_3 C4_3 1_555 1_555
C6_3 C1_3 1_555 1_555
H3_3 C6_3 1_555 1_555
C7_3 C1_3 1_555 1_555
C8_3 C3_3 1_555 1_555
C9_3 C5_3 1_555 1_555
C10_3 C9_3 1_555 1_555
H4_3 C10_3 1_555 1_555
C11_3 C10_3 1_555 1_555
C12_3 C11_3 1_555 1_555
H5_3 C12_3 1_555 1_555
C13_3 C12_3 1_555 1_555
C14_3 C9_3 1_555 1_555
H6_3 C14_3 1_555 1_555
C16_3 C13_3 1_555 1_555
C17_3 O9_3 1_555 1_555
C18_3 H7_3 1_555 1_555
H8_3 C18_3 1_555 1_555
H9_3 C18_3 1_555 1_555
C20_3 H13_3 1_555 1_555
H14_3 C20_3 1_555 1_555
C21_3 H15_3 1_555 1_555
H16_3 C21_3 1_555 1_555
C22_3 C20_3 1_555 1_555
H17_2 C22_3 1_555 1_555
H18_3 C22_3 1_555 1_555
C25_3 H22_3 1_555 1_555
H23_3 C25_3 1_555 1_555
H24_3 C25_3 1_555 1_555
C26_3 H25_3 1_555 1_555
H26_3 C26_3 1_555 1_555
C27_3 C26_3 1_555 1_555
H27_3 C27_3 1_555 1_555
H28_3 C27_3 1_555 1_555
C29_3 O11_3 1_555 1_555
C30_3 H31_3 1_555 1_555
H33_3 C30_3 1_555 1_555
O1_3 C7_3 1_555 1_555
O2_3 C7_3 1_555 1_555
O3_2 C8_3 1_555 1_555
O4_2 C8_3 1_555 1_555
O14_2 C16_3 1_555 1_555
O15_2 C16_3 1_555 1_555
O9_3 Mn1 1_555 1_555
O11_3 Mn1 1_555 1_555
N1_3 C17_3 1_555 1_555
N2_3 C17_3 1_555 1_555
Mn4_2 O3_2 1_555 1_555
O13_2 Mn1 1_555 1_555
C5_3 C6_3 1_555 1_555
C13_3 C14_3 1_555 1_555
C18_3 N1_3 1_555 1_555
C20_3 N1_3 1_555 1_555
C21_3 C22_3 1_555 1_555
C21_3 N2_3 1_555 1_555
C25_3 N4_3 1_555 1_555
C26_3 N4_3 1_555 1_555
O4_2 Mn4_2 1_555 1_555
C10_4 C9_4 1_555 1_555
C11_4 C10_4 1_555 1_555
C12_4 C11_4 1_555 1_555
H5_4 C12_4 1_555 1_555
C13_4 C12_4 1_555 1_555
C14_4 C9_4 1_555 1_555
H6_4 C14_4 1_555 1_555
C15_4 C11_4 1_555 1_555
C16_4 C13_4 1_555 1_555
O5_2 C16_4 1_555 1_555
O6_2 C16_4 1_555 1_555
O16 C15_4 1_555 1_555
Mn4_2 O6_2 1_555 1_555
Mn6 O5_2 1_555 1_555
C13_4 C14_4 1_555 1_555
Mn4_2 O1_4 1_555 1_555
Mn6 O2_4 1_555 1_555
C1_4 C2_4 1_555 1_555
C2_4 H1_4 1_555 1_555
C3_4 C2_4 1_555 1_555
C4_4 C3_4 1_555 1_555
C5_4 C4_4 1_555 1_555
C6_4 C1_4 1_555 1_555
H3_4 C6_4 1_555 1_555
C7_4 C1_4 1_555 1_555
C17_4 O9_4 1_555 1_555
C18_4 H7_4 1_555 1_555
H8_4 C18_4 1_555 1_555
H9_4 C18_4 1_555 1_555
C19_4 H10_4 1_555 1_555
H11_4 C19_4 1_555 1_555
H12_4 C19_4 1_555 1_555
C20_4 H13_4 1_555 1_555
H14_4 C20_4 1_555 1_555
C21_4 H15_4 1_555 1_555
H16_4 C21_4 1_555 1_555
C22_4 C20_4 1_555 1_555
H18_4 C22_4 1_555 1_555
C29_4 O11_4 1_555 1_555
C30_4 H31_4 1_555 1_555
H32_4 C30_4 1_555 1_555
H33_4 C30_4 1_555 1_555
C31_4 H34_4 1_555 1_555
H35_4 C31_4 1_555 1_555
H36_2 C31_4 1_555 1_555
C32_4 H37_4 1_555 1_555
H38_4 C32_4 1_555 1_555
C33_4 C32_4 1_555 1_555
H39_4 C33_4 1_555 1_555
H40_4 C33_4 1_555 1_555
C34_2 C33_4 1_555 1_555
H41_2 C34_2 1_555 1_555
H42_2 C34_2 1_555 1_555
O1_4 C7_4 1_555 1_555
O2_4 C7_4 1_555 1_555
O9_4 Mn4_2 1_555 1_555
O10_4 Mn6 1_555 1_555
O11_4 Mn4_2 1_555 1_555
N1_4 C17_4 1_555 1_555
N2_4 C17_4 1_555 1_555
N5_2 C29_4 1_555 1_555
N6_4 C29_4 1_555 1_555
Mn6 O9_4 1_555 1_555
C5_4 C6_4 1_555 1_555
C18_4 N1_4 1_555 1_555
C19_4 N2_4 1_555 1_555
C20_4 N1_4 1_555 1_555
C21_4 C22_4 1_555 1_555
C21_4 N2_4 1_555 1_555
C30_4 N6_4 1_555 1_555
C31_4 N5_2 1_555 1_555
C32_4 N6_4 1_555 1_555
C34_2 N5_2 1_555 1_555
H20_4 C24_4 1_555 1_555
H21_4 C24_4 1_555 1_555
H23_4 C25_4 1_555 1_555
H24_4 C25_4 1_555 1_555
C26_4 H25_4 1_555 1_555
H26_4 C26_4 1_555 1_555
C27_4 C26_4 1_555 1_555
H27_4 C27_4 1_555 1_555
H28_4 C27_4 1_555 1_555
C28_4 C27_4 1_555 1_555
H29_4 C28_4 1_555 1_555
H30_4 C28_4 1_555 1_555
O13_2 C8_4 1_555 1_555
N3_4 C23_4 1_555 1_555
N4_4 C23_4 1_555 1_555
C24_4 N3_4 1_555 1_555
C25_4 N4_4 1_555 1_555
C26_4 N4_4 1_555 1_555
C28_4 N3_4 1_555 1_555
H41_3 C34_3 1_555 1_555
H42_3 C34_3 1_555 1_555
C34_3 N5_3 1_555 1_555
H41_4 C34_4 1_555 1_555
H42_4 C34_4 1_555 1_555
C34_4 N5_4 1_555 1_555

#END
