
###############################################################################
#
# This file contains modified crystal structure data generated from the
# MOF subset of the Cambridge Structural Database (CSD) v543 
# hosted by the Cambridge Crystallographic Data Centre (CCDC).
#
# This work is licensed under the Creative Commons
# Attribution-NonCommercial-ShareAlike 4.0 International License.
# To view a copy of this license, visit
# http://creativecommons.org/licenses/by-nc-sa/4.0/
# or send a letter to
# Creative Commons, PO Box 1866, Mountain View, CA 94042, USA.
#
# CIF created using the CSD Python API on 29 September 2022
# The structure has been converted into the P1 space group
# The structure has a 3D framework
# The original CSD entry WUGMOB is in the orthorhombic crystal system
# The framework has been calculated to contain at least 10.0% void space
# The void calculation uses a probe of radius 1.32A, grid spacing 0.4
#
###############################################################################

data_WUGMOB
_chemical_formula_moiety         '(C288 H176 Cu16 N32 O77)n'
_symmetry_cell_setting           triclinic
_symmetry_space_group_name_H-M   'P 1'
_symmetry_Int_Tables_number      1
_space_group_name_Hall           'P 1'
loop_
_symmetry_equiv_pos_site_id
_symmetry_equiv_pos_as_xyz
1 x,y,z
_cell_length_a                   23.597(5)
_cell_length_b                   26.869(5)
_cell_length_c                   11.428(2)
_cell_angle_alpha                90
_cell_angle_beta                 90
_cell_angle_gamma                90
_cell_volume                     7245.67
loop_
_atom_site_label
_atom_site_type_symbol
_atom_site_fract_x
_atom_site_fract_y
_atom_site_fract_z
Cu5 Cu 0.173109(12) 0.506706(10) 0.00633(4)
Cu1 Cu 0.173109(12) 0.006706(10) 0.50633(4)
O1 O 0.18210(9) 0.06486(7) 0.6089(2)
O2 O 0.27205(9) 0.04120(7) 0.6149(2)
O3 O 0.23980(10) 0.04199(7) 0.9027(2)
O4 O 0.33292(9) 0.05194(7) 0.9049(2)
O5 O 0.2500 0.2500 0.6487(3)
C11 C 0.23873(12) 0.16339(9) 0.6543(3)
H9 H 0.2191 0.1657 0.5839
C12 C 0.24873(11) 0.11715(9) 0.7060(3)
C13 C 0.27696(12) 0.11433(9) 0.8137(3)
C14 C 0.29648(12) 0.15773(9) 0.8658(3)
H10 H 0.3158 0.1560 0.9366
C15 C 0.28759(13) 0.20362(10) 0.8138(3)
H11 H 0.3011 0.2325 0.8488
C16 C 0.25858(13) 0.20585(9) 0.7099(3)
C17 C 0.23387(13) 0.07069(8) 0.6388(2)
C18 C 0.28260(13) 0.06559(9) 0.8775(3)
Cu2 Cu 0.326891(12) 0.493294(10) 0.50633(4)
O6 O 0.31790(9) 0.43514(7) 0.6089(2)
O7 O 0.22795(9) 0.45880(7) 0.6149(2)
O8 O 0.26020(10) 0.45801(7) 0.9027(2)
O9 O 0.16708(9) 0.44806(7) 0.9049(2)
O11 O 0.33292(9) 0.55194(7) 0.4049(2)
N4 N 0.34613(12) 0.53879(9) 0.6425(2)
N5 N 0.16168(12) 0.05351(9) 0.3694(2)
N6 N 0.33832(12) 0.44649(9) 0.3694(2)
H12 H 0.0550 0.2484 0.0114
C20 C 0.0890(2) 0.19058(14) 0.0947(4)
H13 H 0.0739 0.1980 0.1678
C21 C 0.12374(14) 0.14910(11) 0.0799(3)
C24 C 0.14326(13) 0.10016(10) 0.3870(3)
H16 H 0.1384 0.1115 0.4632
C25 C 0.13137(14) 0.13185(11) 0.2949(3)
H17 H 0.1188 0.1640 0.3102
C26 C 0.13797(14) 0.11623(11) 0.1804(3)
C27 C 0.1578(2) 0.06861(13) 0.1635(3)
H18 H 0.1638 0.0567 0.0881
C28 C 0.16856(18) 0.03863(12) 0.2588(4)
H19 H 0.1813 0.0064 0.2454
C29 C 0.26127(12) 0.33661(9) 0.6543(3)
H20 H 0.2809 0.3343 0.5839
C30 C 0.25127(11) 0.38285(9) 0.7060(3)
C31 C 0.22304(12) 0.38567(9) 0.8137(3)
C32 C 0.20352(12) 0.34227(9) 0.8658(3)
H21 H 0.1842 0.3440 0.9366
C33 C 0.21241(13) 0.29638(10) 0.8138(3)
H22 H 0.1989 0.2675 0.8488
C34 C 0.24142(13) 0.29415(9) 0.7099(3)
C35 C 0.26613(13) 0.42931(8) 0.6388(2)
C36 C 0.21740(13) 0.43441(9) 0.8775(3)
Cu6 Cu 0.076891(12) 0.256706(10) 0.75633(4)
N3 N 0.09613(12) 0.21121(9) 0.8925(2)
C19 C 0.07730(17) 0.22033(13) 0.9998(4)
C22 C 0.14330(14) 0.13954(11) 0.9690(3)
H14 H 0.1666 0.1123 0.9554
C23 C 0.12815(13) 0.17072(10) 0.8772(3)
H15 H 0.1408 0.1631 0.8022
N2 N 0.08832(12) 0.80351(9) 0.1194(2)
C6 C 0.10674(13) 0.85016(10) 0.1370(3)
H5 H 0.1116 0.8615 0.2132
C7 C 0.11863(14) 0.88185(11) 0.0449(3)
H6 H 0.1312 0.9140 0.0602
C10 C 0.08144(18) 0.78863(12) 0.0088(4)
Cu3 Cu 0.326891(12) 0.993294(10) 0.00633(4)
Cu4 Cu 0.076891(12) 0.756706(10) 0.25633(4)
N1 N 0.15387(12) 0.96121(9) 0.6425(2)
C1 C 0.17270(17) 0.97033(13) 0.7498(4)
H1 H 0.1950 0.9984 0.7614
C2 C 0.1610(2) 0.94058(14) 0.8447(4)
H2 H 0.1761 0.9480 0.9178
C3 C 0.12626(14) 0.89910(11) 0.8299(3)
C4 C 0.10670(14) 0.88954(11) 0.7190(3)
H3 H 0.0834 0.8623 0.7054
C5 C 0.12185(13) 0.92072(10) 0.6272(3)
H4 H 0.1092 0.9131 0.5522
C8 C 0.11203(14) 0.86623(11) 0.9304(3)
C9 C 0.0922(2) 0.81861(13) 0.9135(3)
H7 H 0.0862 0.8067 0.8381
H8 H 0.0687 0.7564 0.9954
O10 O 0.16708(9) 0.94806(7) 0.4049(2)
N2_2 N 0.91168(12) 0.19649(9) 0.1194(2)
C6_2 C 0.89326(13) 0.14984(10) 0.1370(3)
H5_2 H 0.8884 0.1385 0.2132
C7_2 C 0.88137(14) 0.11815(11) 0.0449(3)
H6_2 H 0.8688 0.0860 0.0602
C10_2 C 0.91856(18) 0.21137(12) 0.0088(4)
Cu3_2 Cu 0.673109(12) 0.006706(10) 0.00633(4)
Cu4_2 Cu 0.923109(12) 0.243294(10) 0.25633(4)
N1_2 N 0.84613(12) 0.03879(9) 0.6425(2)
C1_2 C 0.82730(17) 0.02967(13) 0.7498(4)
H1_2 H 0.8050 0.0016 0.7614
C2_2 C 0.8390(2) 0.05942(14) 0.8447(4)
H2_2 H 0.8239 0.0520 0.9178
C3_2 C 0.87374(14) 0.10090(11) 0.8299(3)
C4_2 C 0.89330(14) 0.11046(11) 0.7190(3)
H3_2 H 0.9166 0.1377 0.7054
C5_2 C 0.87815(13) 0.07928(10) 0.6272(3)
H4_2 H 0.8908 0.0869 0.5522
C8_2 C 0.88797(14) 0.13377(11) 0.9304(3)
C9_2 C 0.9078(2) 0.18139(13) 0.9135(3)
H7_2 H 0.9138 0.1933 0.8381
H8_2 H 0.9313 0.2436 0.9954
O10_2 O 0.83292(9) 0.05194(7) 0.4049(2)
Cu5_2 Cu 0.826891(12) 0.493294(10) 0.00633(4)
Cu1_2 Cu 0.826891(12) 0.993294(10) 0.50633(4)
O1_2 O 0.81790(9) 0.93514(7) 0.6089(2)
O2_2 O 0.72795(9) 0.95880(7) 0.6149(2)
O3_2 O 0.76020(10) 0.95801(7) 0.9027(2)
O4_2 O 0.66708(9) 0.94806(7) 0.9049(2)
O5_2 O 0.7500 0.7500 0.6487(3)
C11_2 C 0.76127(12) 0.83661(9) 0.6543(3)
H9_2 H 0.7809 0.8343 0.5839
C12_2 C 0.75127(11) 0.88285(9) 0.7060(3)
C13_2 C 0.72304(12) 0.88567(9) 0.8137(3)
C14_2 C 0.70352(12) 0.84227(9) 0.8658(3)
H10_2 H 0.6842 0.8440 0.9366
C15_2 C 0.71241(13) 0.79638(10) 0.8138(3)
H11_2 H 0.6989 0.7675 0.8488
C16_2 C 0.74142(13) 0.79415(9) 0.7099(3)
C17_2 C 0.76613(13) 0.92931(8) 0.6388(2)
C18_2 C 0.71740(13) 0.93441(9) 0.8775(3)
Cu2_2 Cu 0.673109(12) 0.506706(10) 0.50633(4)
O6_2 O 0.68210(9) 0.56486(7) 0.6089(2)
O7_2 O 0.77205(9) 0.54120(7) 0.6149(2)
O8_2 O 0.73980(10) 0.54199(7) 0.9027(2)
O9_2 O 0.83292(9) 0.55194(7) 0.9049(2)
O11_2 O 0.66708(9) 0.44806(7) 0.4049(2)
N4_2 N 0.65387(12) 0.46121(9) 0.6425(2)
N5_2 N 0.83832(12) 0.94649(9) 0.3694(2)
N6_2 N 0.66168(12) 0.55351(9) 0.3694(2)
H12_2 H 0.9450 0.7516 0.0114
C20_2 C 0.9110(2) 0.80942(14) 0.0947(4)
H13_2 H 0.9261 0.8020 0.1678
C21_2 C 0.87626(14) 0.85090(11) 0.0799(3)
C24_2 C 0.85674(13) 0.89984(10) 0.3870(3)
H16_2 H 0.8616 0.8885 0.4632
C25_2 C 0.86863(14) 0.86815(11) 0.2949(3)
H17_2 H 0.8812 0.8360 0.3102
C26_2 C 0.86203(14) 0.88377(11) 0.1804(3)
C27_2 C 0.8422(2) 0.93139(13) 0.1635(3)
H18_2 H 0.8362 0.9433 0.0881
C28_2 C 0.83144(18) 0.96137(12) 0.2588(4)
H19_2 H 0.8187 0.9936 0.2454
C29_2 C 0.73873(12) 0.66339(9) 0.6543(3)
H20_2 H 0.7191 0.6657 0.5839
C30_2 C 0.74873(11) 0.61715(9) 0.7060(3)
C31_2 C 0.77696(12) 0.61433(9) 0.8137(3)
C32_2 C 0.79648(12) 0.65773(9) 0.8658(3)
H21_2 H 0.8158 0.6560 0.9366
C33_2 C 0.78759(13) 0.70362(10) 0.8138(3)
H22_2 H 0.8011 0.7325 0.8488
C34_2 C 0.75858(13) 0.70585(9) 0.7099(3)
C35_2 C 0.73387(13) 0.57069(8) 0.6388(2)
C36_2 C 0.78260(13) 0.56559(9) 0.8775(3)
Cu6_2 Cu 0.923109(12) 0.743294(10) 0.75633(4)
N3_2 N 0.90387(12) 0.78879(9) 0.8925(2)
C19_2 C 0.92270(17) 0.77967(13) 0.9998(4)
C22_2 C 0.85670(14) 0.86046(11) 0.9690(3)
H14_2 H 0.8334 0.8877 0.9554
C23_2 C 0.87185(13) 0.82928(10) 0.8772(3)
H15_2 H 0.8592 0.8369 0.8022
O3_3 O 0.48980(10) 0.20801(7) 0.1527(2)
O4_3 O 0.58292(9) 0.19806(7) 0.1549(2)
H1_3 H 0.4450 0.2516 0.0114
C2_3 C 0.4110(2) 0.30942(14) 0.0947(4)
H2_3 H 0.4261 0.3020 0.1678
C3_3 C 0.37626(14) 0.35090(11) 0.0799(3)
C6_3 C 0.35674(13) 0.39984(10) 0.3870(3)
H5_3 H 0.3616 0.3885 0.4632
C7_3 C 0.36863(14) 0.36815(11) 0.2949(3)
H6_3 H 0.3812 0.3360 0.3102
C8_3 C 0.36203(14) 0.38377(11) 0.1804(3)
C9_3 C 0.3422(2) 0.43139(13) 0.1635(3)
H7_3 H 0.3362 0.4433 0.0881
C10_3 C 0.33144(18) 0.46137(12) 0.2588(4)
H8_3 H 0.3187 0.4936 0.2454
C13_3 C 0.52696(12) 0.13567(9) 0.0637(3)
C14_3 C 0.54648(12) 0.09227(9) 0.1158(3)
H10_3 H 0.5658 0.0940 0.1866
C15_3 C 0.53759(13) 0.04638(10) 0.0638(3)
H11_3 H 0.5511 0.0175 0.0988
C18_3 C 0.53260(13) 0.18441(9) 0.1275(3)
Cu3_3 Cu 0.576891(12) 0.256706(10) 0.25633(4)
Cu1_3 Cu 0.423109(12) 0.243294(10) 0.75633(4)
O1_3 O 0.43210(9) 0.18514(7) 0.8589(2)
O2_3 O 0.52205(9) 0.20880(7) 0.8649(2)
O5_3 O 0.5000 -0.0000 0.8987(3)
N1_3 N 0.40387(12) 0.28879(9) 0.8925(2)
C1_3 C 0.42270(17) 0.27967(13) 0.9998(4)
C4_3 C 0.35670(14) 0.36046(11) 0.9690(3)
H3_3 H 0.3334 0.3877 0.9554
C5_3 C 0.37185(13) 0.32928(10) 0.8772(3)
H4_3 H 0.3592 0.3369 0.8022
C11_3 C 0.48873(12) 0.08661(9) 0.9043(3)
H9_3 H 0.4691 0.0843 0.8339
C12_3 C 0.49873(11) 0.13285(9) 0.9560(3)
C16_3 C 0.50858(13) 0.04415(9) 0.9599(3)
C17_3 C 0.48387(13) 0.17931(8) 0.8888(2)
O10_3 O 0.41708(9) 0.30194(7) 0.6549(2)
N3_3 N 0.34613(12) 0.03879(9) 0.1425(2)
N5_3 N 0.41168(12) 0.19649(9) 0.6194(2)
C19_3 C 0.32730(17) 0.02967(13) 0.2498(4)
H12_3 H 0.3050 0.0016 0.2614
C20_3 C 0.3390(2) 0.05942(14) 0.3447(4)
H13_3 H 0.3239 0.0520 0.4178
C21_3 C 0.37374(14) 0.10090(11) 0.3299(3)
C22_3 C 0.39330(14) 0.11046(11) 0.2190(3)
H14_3 H 0.4166 0.1377 0.2054
C23_3 C 0.37815(13) 0.07928(10) 0.1272(3)
H15_3 H 0.3908 0.0869 0.0522
C24_3 C 0.39326(13) 0.14984(10) 0.6370(3)
H16_3 H 0.3884 0.1385 0.7132
C25_3 C 0.38137(14) 0.11815(11) 0.5449(3)
H17_3 H 0.3688 0.0860 0.5602
C26_3 C 0.38797(14) 0.13377(11) 0.4304(3)
C27_3 C 0.4078(2) 0.18139(13) 0.4135(3)
H18_3 H 0.4138 0.1933 0.3381
C28_3 C 0.41856(18) 0.21137(12) 0.5088(4)
H19_3 H 0.4313 0.2436 0.4954
Cu5_3 Cu 0.423109(12) 0.743294(10) 0.25633(4)
O8_3 O 0.51020(10) 0.79199(7) 0.1527(2)
O9_3 O 0.41708(9) 0.80194(7) 0.1549(2)
C31_3 C 0.47304(12) 0.86433(9) 0.0637(3)
C32_3 C 0.45352(12) 0.90773(9) 0.1158(3)
H21_3 H 0.4342 0.9060 0.1866
C33_3 C 0.46241(13) 0.95362(10) 0.0638(3)
H22_3 H 0.4489 0.9825 0.0988
C36_3 C 0.46740(13) 0.81559(9) 0.1275(3)
O5_4 O 0.5000 1.0000 0.8987(3)
Cu2_3 Cu 0.576891(12) 0.756706(10) 0.75633(4)
O6_3 O 0.56790(9) 0.81486(7) 0.8589(2)
O7_3 O 0.47795(9) 0.79120(7) 0.8649(2)
O11_3 O 0.58292(9) 0.69806(7) 0.6549(2)
N4_3 N 0.59613(12) 0.71121(9) 0.8925(2)
N6_3 N 0.58832(12) 0.80351(9) 0.6194(2)
C29_3 C 0.51127(12) 0.91339(9) 0.9043(3)
H20_3 H 0.5309 0.9157 0.8339
C30_3 C 0.50127(11) 0.86715(9) 0.9560(3)
C34_3 C 0.49142(13) 0.95585(9) 0.9599(3)
C35_3 C 0.51613(13) 0.82069(8) 0.8888(2)
O3_4 O 0.01020(10) 0.29199(7) 0.1527(2)
O9_4 O 0.08292(9) 0.69806(7) 0.1549(2)
C31_4 C 0.02696(12) 0.63567(9) 0.0637(3)
C32_4 C 0.04648(12) 0.59227(9) 0.1158(3)
H21_4 H 0.0658 0.5940 0.1866
C33_4 C 0.03759(13) 0.54638(10) 0.0638(3)
H22_4 H 0.0511 0.5175 0.0988
C36_4 C 0.03260(13) 0.68441(9) 0.1275(3)
O1_4 O 0.06790(9) 0.31486(7) 0.8589(2)
O5_5 O -0.0000 0.5000 0.8987(3)
C11_4 C 0.01127(12) 0.41339(9) 0.9043(3)
H9_4 H 0.0309 0.4157 0.8339
C12_4 C 0.00127(11) 0.36715(9) 0.9560(3)
C17_4 C 0.01613(13) 0.32069(8) 0.8888(2)
O7_4 O 0.02205(9) 0.70880(7) 0.8649(2)
O10_4 O 0.08292(9) 0.19806(7) 0.6549(2)
N3_4 N 0.15387(12) 0.46121(9) 0.1425(2)
N5_4 N 0.08832(12) 0.30351(9) 0.6194(2)
C19_4 C 0.17270(17) 0.47033(13) 0.2498(4)
H12_4 H 0.1950 0.4984 0.2614
C20_4 C 0.1610(2) 0.44058(14) 0.3447(4)
H13_4 H 0.1761 0.4480 0.4178
C21_4 C 0.12626(14) 0.39910(11) 0.3299(3)
C22_4 C 0.10670(14) 0.38954(11) 0.2190(3)
H14_4 H 0.0834 0.3623 0.2054
C23_4 C 0.12185(13) 0.42072(10) 0.1272(3)
H15_4 H 0.1092 0.4131 0.0522
C24_4 C 0.10674(13) 0.35016(10) 0.6370(3)
H16_4 H 0.1116 0.3615 0.7132
C25_4 C 0.11863(14) 0.38185(11) 0.5449(3)
H17_4 H 0.1312 0.4140 0.5602
C26_4 C 0.11203(14) 0.36623(11) 0.4304(3)
C27_4 C 0.0922(2) 0.31861(13) 0.4135(3)
H18_4 H 0.0862 0.3067 0.3381
C28_4 C 0.08144(18) 0.28863(12) 0.5088(4)
H19_4 H 0.0687 0.2564 0.4954
C34_4 C 0.00858(13) 0.54415(9) 0.9599(3)
O4_4 O 0.91708(9) 0.30194(7) 0.1549(2)
C13_4 C 0.97304(12) 0.36433(9) 0.0637(3)
C14_4 C 0.95352(12) 0.40773(9) 0.1158(3)
H10_4 H 0.9342 0.4060 0.1866
C15_4 C 0.96241(13) 0.45362(10) 0.0638(3)
H11_4 H 0.9489 0.4825 0.0988
C18_4 C 0.96740(13) 0.31559(9) 0.1275(3)
O8_4 O 0.98980(10) 0.70801(7) 0.1527(2)
O2_4 O 0.97795(9) 0.29120(7) 0.8649(2)
O5_6 O 1.0000 0.5000 0.8987(3)
C16_4 C 0.99142(13) 0.45585(9) 0.9599(3)
O6_4 O 0.93210(9) 0.68514(7) 0.8589(2)
O11_4 O 0.91708(9) 0.80194(7) 0.6549(2)
N6_4 N 0.91168(12) 0.69649(9) 0.6194(2)
C29_4 C 0.98873(12) 0.58661(9) 0.9043(3)
H20_4 H 0.9691 0.5843 0.8339
C30_4 C 0.99873(11) 0.63285(9) 0.9560(3)
C35_4 C 0.98387(13) 0.67931(8) 0.8888(2)
O1_5 O 0.18210(9) 0.56486(7) 0.1089(2)
O2_5 O 0.27205(9) 0.54120(7) 0.1149(2)
O3_5 O 0.23980(10) 0.54199(7) 0.4027(2)
O5_7 O 0.2500 0.7500 0.1487(3)
C11_5 C 0.23873(12) 0.66339(9) 0.1543(3)
H9_5 H 0.2191 0.6657 0.0839
C12_5 C 0.24873(11) 0.61715(9) 0.2060(3)
C13_5 C 0.27696(12) 0.61433(9) 0.3137(3)
C14_5 C 0.29648(12) 0.65773(9) 0.3658(3)
H10_5 H 0.3158 0.6560 0.4366
C15_5 C 0.28759(13) 0.70362(10) 0.3138(3)
H11_5 H 0.3011 0.7325 0.3488
C16_5 C 0.25858(13) 0.70585(9) 0.2099(3)
C17_5 C 0.23387(13) 0.57069(8) 0.1388(2)
C18_5 C 0.28260(13) 0.56559(9) 0.3775(3)
O6_5 O 0.31790(9) 0.93514(7) 0.1089(2)
O7_5 O 0.22795(9) 0.95880(7) 0.1149(2)
O8_5 O 0.26020(10) 0.95801(7) 0.4027(2)
C29_5 C 0.26127(12) 0.83661(9) 0.1543(3)
H20_5 H 0.2809 0.8343 0.0839
C30_5 C 0.25127(11) 0.88285(9) 0.2060(3)
C31_5 C 0.22304(12) 0.88567(9) 0.3137(3)
C32_5 C 0.20352(12) 0.84227(9) 0.3658(3)
H21_5 H 0.1842 0.8440 0.4366
C33_5 C 0.21241(13) 0.79638(10) 0.3138(3)
H22_5 H 0.1989 0.7675 0.3488
C34_5 C 0.24142(13) 0.79415(9) 0.2099(3)
C35_5 C 0.26613(13) 0.92931(8) 0.1388(2)
C36_5 C 0.21740(13) 0.93441(9) 0.3775(3)
N3_5 N 0.09613(12) 0.71121(9) 0.3925(2)
N5_5 N 0.16168(12) 0.55351(9) 0.8694(2)
N6_5 N 0.33832(12) 0.94649(9) 0.8694(2)
C19_5 C 0.07730(17) 0.72033(13) 0.4998(4)
H12_5 H 0.0550 0.7484 0.5114
C20_5 C 0.0890(2) 0.69058(14) 0.5947(4)
H13_5 H 0.0739 0.6980 0.6678
C21_5 C 0.12374(14) 0.64910(11) 0.5799(3)
C22_5 C 0.14330(14) 0.63954(11) 0.4690(3)
H14_5 H 0.1666 0.6123 0.4554
C23_5 C 0.12815(13) 0.67072(10) 0.3772(3)
H15_5 H 0.1408 0.6631 0.3022
C24_5 C 0.14326(13) 0.60016(10) 0.8870(3)
H16_5 H 0.1384 0.6115 0.9632
C25_5 C 0.13137(14) 0.63185(11) 0.7949(3)
H17_5 H 0.1188 0.6640 0.8102
C26_5 C 0.13797(14) 0.61623(11) 0.6804(3)
C27_5 C 0.1578(2) 0.56861(13) 0.6635(3)
H18_5 H 0.1638 0.5567 0.5881
C28_5 C 0.16856(18) 0.53863(12) 0.7588(4)
H19_5 H 0.1813 0.5064 0.7454
O1_6 O 0.81790(9) 0.43514(7) 0.1089(2)
O2_6 O 0.72795(9) 0.45880(7) 0.1149(2)
O3_6 O 0.76020(10) 0.45801(7) 0.4027(2)
O5_8 O 0.7500 0.2500 0.1487(3)
N1_4 N 0.84613(12) 0.53879(9) 0.1425(2)
C1_4 C 0.82730(17) 0.52967(13) 0.2498(4)
H1_4 H 0.8050 0.5016 0.2614
C2_4 C 0.8390(2) 0.55942(14) 0.3447(4)
H2_4 H 0.8239 0.5520 0.4178
C3_4 C 0.87374(14) 0.60090(11) 0.3299(3)
C4_4 C 0.89330(14) 0.61046(11) 0.2190(3)
H3_4 H 0.9166 0.6377 0.2054
C5_4 C 0.87815(13) 0.57928(10) 0.1272(3)
H4_4 H 0.8908 0.5869 0.0522
C6_4 C 0.89326(13) 0.64984(10) 0.6370(3)
H5_4 H 0.8884 0.6385 0.7132
C7_4 C 0.88137(14) 0.61815(11) 0.5449(3)
H6_4 H 0.8688 0.5860 0.5602
C8_4 C 0.88797(14) 0.63377(11) 0.4304(3)
C9_4 C 0.9078(2) 0.68139(13) 0.4135(3)
H7_4 H 0.9138 0.6933 0.3381
C10_4 C 0.91856(18) 0.71137(12) 0.5088(4)
H8_4 H 0.9313 0.7436 0.4954
C11_6 C 0.76127(12) 0.33661(9) 0.1543(3)
H9_6 H 0.7809 0.3343 0.0839
C12_6 C 0.75127(11) 0.38285(9) 0.2060(3)
C13_6 C 0.72304(12) 0.38567(9) 0.3137(3)
C14_6 C 0.70352(12) 0.34227(9) 0.3658(3)
H10_6 H 0.6842 0.3440 0.4366
C15_6 C 0.71241(13) 0.29638(10) 0.3138(3)
H11_6 H 0.6989 0.2675 0.3488
C16_6 C 0.74142(13) 0.29415(9) 0.2099(3)
C17_6 C 0.76613(13) 0.42931(8) 0.1388(2)
C18_6 C 0.71740(13) 0.43441(9) 0.3775(3)
O6_6 O 0.68210(9) 0.06486(7) 0.1089(2)
O7_6 O 0.77205(9) 0.04120(7) 0.1149(2)
O8_6 O 0.73980(10) 0.04199(7) 0.4027(2)
C29_6 C 0.73873(12) 0.16339(9) 0.1543(3)
H20_6 H 0.7191 0.1657 0.0839
C30_6 C 0.74873(11) 0.11715(9) 0.2060(3)
C31_6 C 0.77696(12) 0.11433(9) 0.3137(3)
C32_6 C 0.79648(12) 0.15773(9) 0.3658(3)
H21_6 H 0.8158 0.1560 0.4366
C33_6 C 0.78759(13) 0.20362(10) 0.3138(3)
H22_6 H 0.8011 0.2325 0.3488
C34_6 C 0.75858(13) 0.20585(9) 0.2099(3)
C35_6 C 0.73387(13) 0.07069(8) 0.1388(2)
C36_6 C 0.78260(13) 0.06559(9) 0.3775(3)
N3_6 N 0.90387(12) 0.28879(9) 0.3925(2)
N5_6 N 0.83832(12) 0.44649(9) 0.8694(2)
N6_6 N 0.66168(12) 0.05351(9) 0.8694(2)
C19_6 C 0.92270(17) 0.27967(13) 0.4998(4)
H12_6 H 0.9450 0.2516 0.5114
C20_6 C 0.9110(2) 0.30942(14) 0.5947(4)
H13_6 H 0.9261 0.3020 0.6678
C21_6 C 0.87626(14) 0.35090(11) 0.5799(3)
C22_6 C 0.85670(14) 0.36046(11) 0.4690(3)
H14_6 H 0.8334 0.3877 0.4554
C23_6 C 0.87185(13) 0.32928(10) 0.3772(3)
H15_6 H 0.8592 0.3369 0.3022
C24_6 C 0.85674(13) 0.39984(10) 0.8870(3)
H16_6 H 0.8616 0.3885 0.9632
C25_6 C 0.86863(14) 0.36815(11) 0.7949(3)
H17_6 H 0.8812 0.3360 0.8102
C26_6 C 0.86203(14) 0.38377(11) 0.6804(3)
C27_6 C 0.8422(2) 0.43139(13) 0.6635(3)
H18_6 H 0.8362 0.4433 0.5881
C28_6 C 0.83144(18) 0.46137(12) 0.7588(4)
H19_6 H 0.8187 0.4936 0.7454
N4_4 N 0.65387(12) 0.96121(9) 0.1425(2)
O1_7 O 0.43210(9) 0.68514(7) 0.3589(2)
O2_7 O 0.52205(9) 0.70880(7) 0.3649(2)
O3_7 O 0.48980(10) 0.70801(7) 0.6527(2)
O5_9 O 0.5000 0.5000 0.3987(3)
N1_5 N 0.40387(12) 0.78879(9) 0.3925(2)
C1_5 C 0.42270(17) 0.77967(13) 0.4998(4)
H1_5 H 0.4450 0.7516 0.5114
C2_5 C 0.4110(2) 0.80942(14) 0.5947(4)
H2_5 H 0.4261 0.8020 0.6678
C3_5 C 0.37626(14) 0.85090(11) 0.5799(3)
C4_5 C 0.35670(14) 0.86046(11) 0.4690(3)
H3_5 H 0.3334 0.8877 0.4554
C5_5 C 0.37185(13) 0.82928(10) 0.3772(3)
H4_5 H 0.3592 0.8369 0.3022
C6_5 C 0.35674(13) 0.89984(10) 0.8870(3)
H5_5 H 0.3616 0.8885 0.9632
C7_5 C 0.36863(14) 0.86815(11) 0.7949(3)
H6_5 H 0.3812 0.8360 0.8102
C8_5 C 0.36203(14) 0.88377(11) 0.6804(3)
C9_5 C 0.3422(2) 0.93139(13) 0.6635(3)
H7_5 H 0.3362 0.9433 0.5881
C10_5 C 0.33144(18) 0.96137(12) 0.7588(4)
H8_5 H 0.3187 0.9936 0.7454
C11_7 C 0.48873(12) 0.58661(9) 0.4043(3)
H9_7 H 0.4691 0.5843 0.3339
C12_7 C 0.49873(11) 0.63285(9) 0.4560(3)
C13_7 C 0.52696(12) 0.63567(9) 0.5637(3)
C14_7 C 0.54648(12) 0.59227(9) 0.6158(3)
H10_7 H 0.5658 0.5940 0.6866
C15_7 C 0.53759(13) 0.54638(10) 0.5638(3)
H11_7 H 0.5511 0.5175 0.5988
C16_7 C 0.50858(13) 0.54415(9) 0.4599(3)
C17_7 C 0.48387(13) 0.67931(8) 0.3888(2)
C18_7 C 0.53260(13) 0.68441(9) 0.6275(3)
O6_7 O 0.56790(9) 0.31486(7) 0.3589(2)
O7_7 O 0.47795(9) 0.29120(7) 0.3649(2)
O8_7 O 0.51020(10) 0.29199(7) 0.6527(2)
N4_5 N 0.59613(12) 0.21121(9) 0.3925(2)
N5_7 N 0.41168(12) 0.69649(9) 0.1194(2)
N6_7 N 0.58832(12) 0.30351(9) 0.1194(2)
C24_7 C 0.39326(13) 0.64984(10) 0.1370(3)
H16_7 H 0.3884 0.6385 0.2132
C25_7 C 0.38137(14) 0.61815(11) 0.0449(3)
H17_7 H 0.3688 0.5860 0.0602
C28_7 C 0.41856(18) 0.71137(12) 0.0088(4)
C29_7 C 0.51127(12) 0.41339(9) 0.4043(3)
H20_7 H 0.5309 0.4157 0.3339
C30_7 C 0.50127(11) 0.36715(9) 0.4560(3)
C31_7 C 0.47304(12) 0.36433(9) 0.5637(3)
C32_7 C 0.45352(12) 0.40773(9) 0.6158(3)
H21_7 H 0.4342 0.4060 0.6866
C33_7 C 0.46241(13) 0.45362(10) 0.5638(3)
H22_7 H 0.4489 0.4825 0.5988
C34_7 C 0.49142(13) 0.45585(9) 0.4599(3)
C35_7 C 0.51613(13) 0.32069(8) 0.3888(2)
C36_7 C 0.46740(13) 0.31559(9) 0.6275(3)
C19_7 C 0.32730(17) 0.52967(13) 0.7498(4)
H12_7 H 0.3050 0.5016 0.7614
C20_7 C 0.3390(2) 0.55942(14) 0.8447(4)
H13_7 H 0.3239 0.5520 0.9178
C21_7 C 0.37374(14) 0.60090(11) 0.8299(3)
C22_7 C 0.39330(14) 0.61046(11) 0.7190(3)
H14_7 H 0.4166 0.6377 0.7054
C23_7 C 0.37815(13) 0.57928(10) 0.6272(3)
H15_7 H 0.3908 0.5869 0.5522
C26_7 C 0.38797(14) 0.63377(11) 0.9304(3)
C27_7 C 0.4078(2) 0.68139(13) 0.9135(3)
H18_7 H 0.4138 0.6933 0.8381
H19_7 H 0.4313 0.7436 0.9954
O5_10 O -0.0000 0.0000 0.3987(3)
O7_8 O 0.02205(9) 0.20880(7) 0.3649(2)
C31_8 C 0.02696(12) 0.13567(9) 0.5637(3)
C32_8 C 0.04648(12) 0.09227(9) 0.6158(3)
H21_8 H 0.0658 0.0940 0.6866
C33_8 C 0.03759(13) 0.04638(10) 0.5638(3)
H22_8 H 0.0511 0.0175 0.5988
C34_8 C 0.00858(13) 0.04415(9) 0.4599(3)
C36_8 C 0.03260(13) 0.18441(9) 0.6275(3)
O1_8 O 0.06790(9) 0.81486(7) 0.3589(2)
O3_8 O 0.01020(10) 0.79199(7) 0.6527(2)
O5_11 O -0.0000 1.0000 0.3987(3)
C11_8 C 0.01127(12) 0.91339(9) 0.4043(3)
H9_8 H 0.0309 0.9157 0.3339
C12_8 C 0.00127(11) 0.86715(9) 0.4560(3)
C17_8 C 0.01613(13) 0.82069(8) 0.3888(2)
O5_12 O 1.0000 0.0000 0.3987(3)
O6_8 O 0.93210(9) 0.18514(7) 0.3589(2)
O8_8 O 0.98980(10) 0.20801(7) 0.6527(2)
C29_8 C 0.98873(12) 0.08661(9) 0.4043(3)
H20_8 H 0.9691 0.0843 0.3339
C30_8 C 0.99873(11) 0.13285(9) 0.4560(3)
C35_8 C 0.98387(13) 0.17931(8) 0.3888(2)
O2_8 O 0.97795(9) 0.79120(7) 0.3649(2)
O5_13 O 1.0000 1.0000 0.3987(3)
C13_8 C 0.97304(12) 0.86433(9) 0.5637(3)
C14_8 C 0.95352(12) 0.90773(9) 0.6158(3)
H10_8 H 0.9342 0.9060 0.6866
C15_8 C 0.96241(13) 0.95362(10) 0.5638(3)
H11_8 H 0.9489 0.9825 0.5988
C16_8 C 0.99142(13) 0.95585(9) 0.4599(3)
C18_8 C 0.96740(13) 0.81559(9) 0.6275(3)
C19_8 C 0.57730(17) 0.22033(13) 0.4998(4)
H12_8 H 0.5550 0.2484 0.5114
C20_8 C 0.5890(2) 0.19058(14) 0.5947(4)
H13_8 H 0.5739 0.1980 0.6678
C21_8 C 0.62374(14) 0.14910(11) 0.5799(3)
C22_8 C 0.64330(14) 0.13954(11) 0.4690(3)
H14_8 H 0.6666 0.1123 0.4554
C23_8 C 0.62815(13) 0.17072(10) 0.3772(3)
H15_8 H 0.6408 0.1631 0.3022
C24_8 C 0.64326(13) 0.10016(10) 0.8870(3)
H16_8 H 0.6384 0.1115 0.9632
C25_8 C 0.63137(14) 0.13185(11) 0.7949(3)
H17_8 H 0.6188 0.1640 0.8102
C26_8 C 0.63797(14) 0.11623(11) 0.6804(3)
C27_8 C 0.6578(2) 0.06861(13) 0.6635(3)
H18_8 H 0.6638 0.0567 0.5881
C28_8 C 0.66856(18) 0.03863(12) 0.7588(4)
H19_8 H 0.6813 0.0064 0.7454
C1_6 C 0.67270(17) 0.97033(13) 0.2498(4)
H1_6 H 0.6950 0.9984 0.2614
C2_6 C 0.6610(2) 0.94058(14) 0.3447(4)
H2_6 H 0.6761 0.9480 0.4178
C3_6 C 0.62626(14) 0.89910(11) 0.3299(3)
C4_6 C 0.60670(14) 0.88954(11) 0.2190(3)
H3_6 H 0.5834 0.8623 0.2054
C5_6 C 0.62185(13) 0.92072(10) 0.1272(3)
H4_6 H 0.6092 0.9131 0.0522
C6_6 C 0.60674(13) 0.85016(10) 0.6370(3)
H5_6 H 0.6116 0.8615 0.7132
C7_6 C 0.61863(14) 0.88185(11) 0.5449(3)
H6_6 H 0.6312 0.9140 0.5602
C8_6 C 0.61203(14) 0.86623(11) 0.4304(3)
C9_6 C 0.5922(2) 0.81861(13) 0.4135(3)
H7_6 H 0.5862 0.8067 0.3381
C10_6 C 0.58144(18) 0.78863(12) 0.5088(4)
H8_6 H 0.5687 0.7564 0.4954
C24_9 C 0.60674(13) 0.35016(10) 0.1370(3)
H16_9 H 0.6116 0.3615 0.2132
C25_9 C 0.61863(14) 0.38185(11) 0.0449(3)
H17_9 H 0.6312 0.4140 0.0602
C28_9 C 0.58144(18) 0.28863(12) 0.0088(4)
C19_9 C 0.67270(17) 0.47033(13) 0.7498(4)
H12_9 H 0.6950 0.4984 0.7614
C20_9 C 0.6610(2) 0.44058(14) 0.8447(4)
H13_9 H 0.6761 0.4480 0.9178
C21_9 C 0.62626(14) 0.39910(11) 0.8299(3)
C22_9 C 0.60670(14) 0.38954(11) 0.7190(3)
H14_9 H 0.5834 0.3623 0.7054
C23_9 C 0.62185(13) 0.42072(10) 0.6272(3)
H15_9 H 0.6092 0.4131 0.5522
C26_9 C 0.61203(14) 0.36623(11) 0.9304(3)
C27_9 C 0.5922(2) 0.31861(13) 0.9135(3)
H18_9 H 0.5862 0.3067 0.8381
H19_9 H 0.5687 0.2564 0.9954
H12_10 H 0.5550 0.7484 0.0114
C20_10 C 0.5890(2) 0.69058(14) 0.0947(4)
H13_10 H 0.5739 0.6980 0.1678
C21_10 C 0.62374(14) 0.64910(11) 0.0799(3)
C24_10 C 0.64326(13) 0.60016(10) 0.3870(3)
H16_10 H 0.6384 0.6115 0.4632
C25_10 C 0.63137(14) 0.63185(11) 0.2949(3)
H17_10 H 0.6188 0.6640 0.3102
C26_10 C 0.63797(14) 0.61623(11) 0.1804(3)
C27_10 C 0.6578(2) 0.56861(13) 0.1635(3)
H18_10 H 0.6638 0.5567 0.0881
C28_10 C 0.66856(18) 0.53863(12) 0.2588(4)
H19_10 H 0.6813 0.5064 0.2454
C19_10 C 0.57730(17) 0.72033(13) 0.9998(4)
C22_10 C 0.64330(14) 0.63954(11) 0.9690(3)
H14_10 H 0.6666 0.6123 0.9554
C23_10 C 0.62815(13) 0.67072(10) 0.8772(3)
H15_10 H 0.6408 0.6631 0.8022
loop_
_geom_bond_atom_site_label_1
_geom_bond_atom_site_label_2
_geom_bond_site_symmetry_1
_geom_bond_site_symmetry_2
Cu1 O1 1_555 1_555
O1 C17 1_555 1_555
O2 C17 1_555 1_555
O3 C18 1_555 1_555
O4 C18 1_555 1_555
O5 C16 1_555 1_555
C11 H9 1_555 1_555
C12 C11 1_555 1_555
C13 C12 1_555 1_555
C14 C13 1_555 1_555
H10 C14 1_555 1_555
C15 C14 1_555 1_555
H11 C15 1_555 1_555
C16 C11 1_555 1_555
C17 C12 1_555 1_555
C18 C13 1_555 1_555
Cu2 O6 1_555 1_555
O6 C35 1_555 1_555
O7 C35 1_555 1_555
O8 C36 1_555 1_555
O9 C36 1_555 1_555
O11 Cu2 1_555 1_555
N4 Cu2 1_555 1_555
N5 Cu1 1_555 1_555
N6 Cu2 1_555 1_555
H13 C20 1_555 1_555
C21 C20 1_555 1_555
C24 N5 1_555 1_555
H16 C24 1_555 1_555
C25 C24 1_555 1_555
H17 C25 1_555 1_555
C26 C21 1_555 1_555
C27 C26 1_555 1_555
H18 C27 1_555 1_555
C28 N5 1_555 1_555
H19 C28 1_555 1_555
C29 H20 1_555 1_555
C30 C29 1_555 1_555
C31 C30 1_555 1_555
C32 C31 1_555 1_555
H21 C32 1_555 1_555
C33 C32 1_555 1_555
H22 C33 1_555 1_555
C34 O5 1_555 1_555
C35 C30 1_555 1_555
C36 C31 1_555 1_555
C15 C16 1_555 1_555
C25 C26 1_555 1_555
C27 C28 1_555 1_555
C29 C34 1_555 1_555
C33 C34 1_555 1_555
Cu6 N3 1_555 1_555
N3 C19 1_555 1_555
H14 C22 1_555 1_555
C23 N3 1_555 1_555
H15 C23 1_555 1_555
C22 C23 1_555 1_555
N2 C6 1_555 1_555
C6 H5 1_555 1_555
C7 C6 1_555 1_555
H6 C7 1_555 1_555
C10 N2 1_555 1_555
Cu4 N2 1_555 1_555
C1 N1 1_555 1_555
H1 C1 1_555 1_555
C2 C1 1_555 1_555
H2 C2 1_555 1_555
C3 C2 1_555 1_555
C4 C3 1_555 1_555
H3 C4 1_555 1_555
C5 N1 1_555 1_555
H4 C5 1_555 1_555
C8 C3 1_555 1_555
C9 C8 1_555 1_555
H7 C9 1_555 1_555
C4 C5 1_555 1_555
N2_2 C6_2 1_555 1_555
C6_2 H5_2 1_555 1_555
C7_2 C6_2 1_555 1_555
H6_2 C7_2 1_555 1_555
C10_2 N2_2 1_555 1_555
Cu4_2 N2_2 1_555 1_555
C1_2 N1_2 1_555 1_555
H1_2 C1_2 1_555 1_555
C2_2 C1_2 1_555 1_555
H2_2 C2_2 1_555 1_555
C3_2 C2_2 1_555 1_555
C4_2 C3_2 1_555 1_555
H3_2 C4_2 1_555 1_555
C5_2 N1_2 1_555 1_555
H4_2 C5_2 1_555 1_555
C8_2 C3_2 1_555 1_555
C9_2 C8_2 1_555 1_555
H7_2 C9_2 1_555 1_555
C4_2 C5_2 1_555 1_555
Cu1_2 O1_2 1_555 1_555
O1_2 C17_2 1_555 1_555
O2_2 C17_2 1_555 1_555
O3_2 C18_2 1_555 1_555
O4_2 C18_2 1_555 1_555
O5_2 C16_2 1_555 1_555
C11_2 H9_2 1_555 1_555
C12_2 C11_2 1_555 1_555
C13_2 C12_2 1_555 1_555
C14_2 C13_2 1_555 1_555
H10_2 C14_2 1_555 1_555
C15_2 C14_2 1_555 1_555
H11_2 C15_2 1_555 1_555
C16_2 C11_2 1_555 1_555
C17_2 C12_2 1_555 1_555
C18_2 C13_2 1_555 1_555
Cu2_2 O6_2 1_555 1_555
O6_2 C35_2 1_555 1_555
O7_2 C35_2 1_555 1_555
O8_2 C36_2 1_555 1_555
O9_2 C36_2 1_555 1_555
O11_2 Cu2_2 1_555 1_555
N4_2 Cu2_2 1_555 1_555
N5_2 Cu1_2 1_555 1_555
N6_2 Cu2_2 1_555 1_555
H13_2 C20_2 1_555 1_555
C21_2 C20_2 1_555 1_555
C24_2 N5_2 1_555 1_555
H16_2 C24_2 1_555 1_555
C25_2 C24_2 1_555 1_555
H17_2 C25_2 1_555 1_555
C26_2 C21_2 1_555 1_555
C27_2 C26_2 1_555 1_555
H18_2 C27_2 1_555 1_555
C28_2 N5_2 1_555 1_555
H19_2 C28_2 1_555 1_555
C29_2 H20_2 1_555 1_555
C30_2 C29_2 1_555 1_555
C31_2 C30_2 1_555 1_555
C32_2 C31_2 1_555 1_555
H21_2 C32_2 1_555 1_555
C33_2 C32_2 1_555 1_555
H22_2 C33_2 1_555 1_555
C34_2 O5_2 1_555 1_555
C35_2 C30_2 1_555 1_555
C36_2 C31_2 1_555 1_555
C15_2 C16_2 1_555 1_555
C25_2 C26_2 1_555 1_555
C27_2 C28_2 1_555 1_555
C29_2 C34_2 1_555 1_555
C33_2 C34_2 1_555 1_555
Cu6_2 N3_2 1_555 1_555
N3_2 C19_2 1_555 1_555
H14_2 C22_2 1_555 1_555
C23_2 N3_2 1_555 1_555
H15_2 C23_2 1_555 1_555
C22_2 C23_2 1_555 1_555
O3_3 C18_3 1_555 1_555
O4_3 C18_3 1_555 1_555
N6 C6_3 1_555 1_555
H2_3 C2_3 1_555 1_555
C3_3 C2_3 1_555 1_555
C6_3 H5_3 1_555 1_555
C7_3 C6_3 1_555 1_555
H6_3 C7_3 1_555 1_555
C8_3 C3_3 1_555 1_555
C9_3 C8_3 1_555 1_555
H7_3 C9_3 1_555 1_555
C10_3 N6 1_555 1_555
H8_3 C10_3 1_555 1_555
C14_3 C13_3 1_555 1_555
H10_3 C14_3 1_555 1_555
C15_3 C14_3 1_555 1_555
H11_3 C15_3 1_555 1_555
C18_3 C13_3 1_555 1_555
Cu3_3 O4_3 1_555 1_555
C7_3 C8_3 1_555 1_555
C9_3 C10_3 1_555 1_555
Cu1_3 O1_3 1_555 1_555
O1_3 C17_3 1_555 1_555
O2_3 C17_3 1_555 1_555
O5_3 C16_3 1_555 1_555
N1_3 Cu1_3 1_555 1_555
C1_3 N1_3 1_555 1_555
H3_3 C4_3 1_555 1_555
C5_3 N1_3 1_555 1_555
H4_3 C5_3 1_555 1_555
C11_3 H9_3 1_555 1_555
C12_3 C11_3 1_555 1_555
C16_3 C11_3 1_555 1_555
C17_3 C12_3 1_555 1_555
O10_3 Cu1_3 1_555 1_555
N3_3 C19_3 1_555 1_555
N5_3 Cu1_3 1_555 1_555
C19_3 H12_3 1_555 1_555
C20_3 C19_3 1_555 1_555
H13_3 C20_3 1_555 1_555
C21_3 C20_3 1_555 1_555
C22_3 C21_3 1_555 1_555
H14_3 C22_3 1_555 1_555
C23_3 N3_3 1_555 1_555
H15_3 C23_3 1_555 1_555
C24_3 N5_3 1_555 1_555
H16_3 C24_3 1_555 1_555
C25_3 C24_3 1_555 1_555
H17_3 C25_3 1_555 1_555
C26_3 C21_3 1_555 1_555
C27_3 C26_3 1_555 1_555
H18_3 C27_3 1_555 1_555
C28_3 N5_3 1_555 1_555
H19_3 C28_3 1_555 1_555
C4_3 C5_3 1_555 1_555
C22_3 C23_3 1_555 1_555
C25_3 C26_3 1_555 1_555
C27_3 C28_3 1_555 1_555
Cu5_3 O9_3 1_555 1_555
O8_3 C36_3 1_555 1_555
O9_3 C36_3 1_555 1_555
C32_3 C31_3 1_555 1_555
H21_3 C32_3 1_555 1_555
C33_3 C32_3 1_555 1_555
H22_3 C33_3 1_555 1_555
C36_3 C31_3 1_555 1_555
Cu2_3 O6_3 1_555 1_555
O6_3 C35_3 1_555 1_555
O7_3 C35_3 1_555 1_555
O11_3 Cu2_3 1_555 1_555
N4_3 Cu2_3 1_555 1_555
N6_3 Cu2_3 1_555 1_555
C29_3 H20_3 1_555 1_555
C30_3 C29_3 1_555 1_555
C34_3 O5_4 1_555 1_555
C35_3 C30_3 1_555 1_555
C29_3 C34_3 1_555 1_555
Cu4 O9_4 1_555 1_555
O9_4 C36_4 1_555 1_555
C32_4 C31_4 1_555 1_555
H21_4 C32_4 1_555 1_555
C33_4 C32_4 1_555 1_555
H22_4 C33_4 1_555 1_555
C36_4 C31_4 1_555 1_555
Cu6 O1_4 1_555 1_555
O1_4 C17_4 1_555 1_555
C11_4 H9_4 1_555 1_555
C12_4 C11_4 1_555 1_555
C17_4 C12_4 1_555 1_555
Cu5 N3_4 1_555 1_555
O10_4 Cu6 1_555 1_555
N3_4 C19_4 1_555 1_555
N5_4 Cu6 1_555 1_555
C19_4 H12_4 1_555 1_555
C20_4 C19_4 1_555 1_555
H13_4 C20_4 1_555 1_555
C21_4 C20_4 1_555 1_555
C22_4 C21_4 1_555 1_555
H14_4 C22_4 1_555 1_555
C23_4 N3_4 1_555 1_555
H15_4 C23_4 1_555 1_555
C24_4 N5_4 1_555 1_555
H16_4 C24_4 1_555 1_555
C25_4 C24_4 1_555 1_555
H17_4 C25_4 1_555 1_555
C26_4 C21_4 1_555 1_555
C27_4 C26_4 1_555 1_555
H18_4 C27_4 1_555 1_555
C28_4 N5_4 1_555 1_555
H19_4 C28_4 1_555 1_555
C34_4 O5_5 1_555 1_555
C22_4 C23_4 1_555 1_555
C25_4 C26_4 1_555 1_555
C27_4 C28_4 1_555 1_555
O4_4 C18_4 1_555 1_555
C14_4 C13_4 1_555 1_555
H10_4 C14_4 1_555 1_555
C15_4 C14_4 1_555 1_555
H11_4 C15_4 1_555 1_555
C18_4 C13_4 1_555 1_555
Cu4_2 O4_4 1_555 1_555
O5_6 C16_4 1_555 1_555
Cu6_2 O6_4 1_555 1_555
O6_4 C35_4 1_555 1_555
O11_4 Cu6_2 1_555 1_555
N6_4 Cu6_2 1_555 1_555
C29_4 H20_4 1_555 1_555
C30_4 C29_4 1_555 1_555
C35_4 C30_4 1_555 1_555
Cu5 O1_5 1_555 1_555
O1_5 C17_5 1_555 1_555
O2_5 C17_5 1_555 1_555
O3_5 C18_5 1_555 1_555
O11 C18_5 1_555 1_555
O5_7 C16_5 1_555 1_555
C11_5 H9_5 1_555 1_555
C12_5 C11_5 1_555 1_555
C13_5 C12_5 1_555 1_555
C14_5 C13_5 1_555 1_555
H10_5 C14_5 1_555 1_555
C15_5 C14_5 1_555 1_555
H11_5 C15_5 1_555 1_555
C16_5 C11_5 1_555 1_555
C17_5 C12_5 1_555 1_555
C18_5 C13_5 1_555 1_555
Cu3 O6_5 1_555 1_555
O6_5 C35_5 1_555 1_555
O7_5 C35_5 1_555 1_555
O8_5 C36_5 1_555 1_555
O10 C36_5 1_555 1_555
C29_5 H20_5 1_555 1_555
C30_5 C29_5 1_555 1_555
C31_5 C30_5 1_555 1_555
C32_5 C31_5 1_555 1_555
H21_5 C32_5 1_555 1_555
C33_5 C32_5 1_555 1_555
H22_5 C33_5 1_555 1_555
C34_5 O5_7 1_555 1_555
C35_5 C30_5 1_555 1_555
C36_5 C31_5 1_555 1_555
C15_5 C16_5 1_555 1_555
C29_5 C34_5 1_555 1_555
C33_5 C34_5 1_555 1_555
Cu4 N3_5 1_555 1_555
N3_5 C19_5 1_555 1_555
C19_5 H12_5 1_555 1_555
C20_5 C19_5 1_555 1_555
H13_5 C20_5 1_555 1_555
C21_5 C20_5 1_555 1_555
C22_5 C21_5 1_555 1_555
H14_5 C22_5 1_555 1_555
C23_5 N3_5 1_555 1_555
H15_5 C23_5 1_555 1_555
C24_5 N5_5 1_555 1_555
H16_5 C24_5 1_555 1_555
C25_5 C24_5 1_555 1_555
H17_5 C25_5 1_555 1_555
C26_5 C21_5 1_555 1_555
C27_5 C26_5 1_555 1_555
H18_5 C27_5 1_555 1_555
C28_5 N5_5 1_555 1_555
H19_5 C28_5 1_555 1_555
C22_5 C23_5 1_555 1_555
C25_5 C26_5 1_555 1_555
C27_5 C28_5 1_555 1_555
Cu5_2 O1_6 1_555 1_555
O1_6 C17_6 1_555 1_555
O2_6 C17_6 1_555 1_555
O3_6 C18_6 1_555 1_555
O11_2 C18_6 1_555 1_555
O5_8 C16_6 1_555 1_555
N1_4 Cu5_2 1_555 1_555
N6_4 C6_4 1_555 1_555
C1_4 N1_4 1_555 1_555
H1_4 C1_4 1_555 1_555
C2_4 C1_4 1_555 1_555
H2_4 C2_4 1_555 1_555
C3_4 C2_4 1_555 1_555
C4_4 C3_4 1_555 1_555
H3_4 C4_4 1_555 1_555
C5_4 N1_4 1_555 1_555
H4_4 C5_4 1_555 1_555
C6_4 H5_4 1_555 1_555
C7_4 C6_4 1_555 1_555
H6_4 C7_4 1_555 1_555
C8_4 C3_4 1_555 1_555
C9_4 C8_4 1_555 1_555
H7_4 C9_4 1_555 1_555
C10_4 N6_4 1_555 1_555
H8_4 C10_4 1_555 1_555
C11_6 H9_6 1_555 1_555
C12_6 C11_6 1_555 1_555
C13_6 C12_6 1_555 1_555
C14_6 C13_6 1_555 1_555
H10_6 C14_6 1_555 1_555
C15_6 C14_6 1_555 1_555
H11_6 C15_6 1_555 1_555
C16_6 C11_6 1_555 1_555
C17_6 C12_6 1_555 1_555
C18_6 C13_6 1_555 1_555
Cu3_2 O6_6 1_555 1_555
O6_6 C35_6 1_555 1_555
O7_6 C35_6 1_555 1_555
O8_6 C36_6 1_555 1_555
O10_2 C36_6 1_555 1_555
C29_6 H20_6 1_555 1_555
C30_6 C29_6 1_555 1_555
C31_6 C30_6 1_555 1_555
C32_6 C31_6 1_555 1_555
H21_6 C32_6 1_555 1_555
C33_6 C32_6 1_555 1_555
H22_6 C33_6 1_555 1_555
C34_6 O5_8 1_555 1_555
C35_6 C30_6 1_555 1_555
C36_6 C31_6 1_555 1_555
C4_4 C5_4 1_555 1_555
C7_4 C8_4 1_555 1_555
C9_4 C10_4 1_555 1_555
C15_6 C16_6 1_555 1_555
C29_6 C34_6 1_555 1_555
C33_6 C34_6 1_555 1_555
Cu4_2 N3_6 1_555 1_555
N3_6 C19_6 1_555 1_555
C19_6 H12_6 1_555 1_555
C20_6 C19_6 1_555 1_555
H13_6 C20_6 1_555 1_555
C21_6 C20_6 1_555 1_555
C22_6 C21_6 1_555 1_555
H14_6 C22_6 1_555 1_555
C23_6 N3_6 1_555 1_555
H15_6 C23_6 1_555 1_555
C24_6 N5_6 1_555 1_555
H16_6 C24_6 1_555 1_555
C25_6 C24_6 1_555 1_555
H17_6 C25_6 1_555 1_555
C26_6 C21_6 1_555 1_555
C27_6 C26_6 1_555 1_555
H18_6 C27_6 1_555 1_555
C28_6 N5_6 1_555 1_555
H19_6 C28_6 1_555 1_555
C22_6 C23_6 1_555 1_555
C25_6 C26_6 1_555 1_555
C27_6 C28_6 1_555 1_555
Cu5_3 O1_7 1_555 1_555
O1_7 C17_7 1_555 1_555
O2_7 C17_7 1_555 1_555
O3_7 C18_7 1_555 1_555
O11_3 C18_7 1_555 1_555
O5_9 C16_7 1_555 1_555
N1_5 Cu5_3 1_555 1_555
N6_5 C6_5 1_555 1_555
C1_5 N1_5 1_555 1_555
H1_5 C1_5 1_555 1_555
C2_5 C1_5 1_555 1_555
H2_5 C2_5 1_555 1_555
C3_5 C2_5 1_555 1_555
C4_5 C3_5 1_555 1_555
H3_5 C4_5 1_555 1_555
C5_5 N1_5 1_555 1_555
H4_5 C5_5 1_555 1_555
C6_5 H5_5 1_555 1_555
C7_5 C6_5 1_555 1_555
H6_5 C7_5 1_555 1_555
C8_5 C3_5 1_555 1_555
C9_5 C8_5 1_555 1_555
H7_5 C9_5 1_555 1_555
C10_5 N6_5 1_555 1_555
H8_5 C10_5 1_555 1_555
C11_7 H9_7 1_555 1_555
C12_7 C11_7 1_555 1_555
C13_7 C12_7 1_555 1_555
C14_7 C13_7 1_555 1_555
H10_7 C14_7 1_555 1_555
C15_7 C14_7 1_555 1_555
H11_7 C15_7 1_555 1_555
C16_7 C11_7 1_555 1_555
C17_7 C12_7 1_555 1_555
C18_7 C13_7 1_555 1_555
Cu3_3 O6_7 1_555 1_555
O6_7 C35_7 1_555 1_555
O7_7 C35_7 1_555 1_555
O8_7 C36_7 1_555 1_555
O10_3 C36_7 1_555 1_555
N4_5 Cu3_3 1_555 1_555
N5_7 Cu5_3 1_555 1_555
N6_7 Cu3_3 1_555 1_555
C24_7 N5_7 1_555 1_555
H16_7 C24_7 1_555 1_555
C25_7 C24_7 1_555 1_555
H17_7 C25_7 1_555 1_555
C28_7 N5_7 1_555 1_555
C29_7 H20_7 1_555 1_555
C30_7 C29_7 1_555 1_555
C31_7 C30_7 1_555 1_555
C32_7 C31_7 1_555 1_555
H21_7 C32_7 1_555 1_555
C33_7 C32_7 1_555 1_555
H22_7 C33_7 1_555 1_555
C34_7 O5_9 1_555 1_555
C35_7 C30_7 1_555 1_555
C36_7 C31_7 1_555 1_555
C4_5 C5_5 1_555 1_555
C7_5 C8_5 1_555 1_555
C9_5 C10_5 1_555 1_555
C15_7 C16_7 1_555 1_555
C29_7 C34_7 1_555 1_555
C33_7 C34_7 1_555 1_555
N4 C19_7 1_555 1_555
C19_7 H12_7 1_555 1_555
C20_7 C19_7 1_555 1_555
H13_7 C20_7 1_555 1_555
C21_7 C20_7 1_555 1_555
C22_7 C21_7 1_555 1_555
H14_7 C22_7 1_555 1_555
C23_7 N4 1_555 1_555
H15_7 C23_7 1_555 1_555
C26_7 C21_7 1_555 1_555
C27_7 C26_7 1_555 1_555
H18_7 C27_7 1_555 1_555
C22_7 C23_7 1_555 1_555
O10_4 C36_8 1_555 1_555
C32_8 C31_8 1_555 1_555
H21_8 C32_8 1_555 1_555
C33_8 C32_8 1_555 1_555
H22_8 C33_8 1_555 1_555
C34_8 O5_10 1_555 1_555
C36_8 C31_8 1_555 1_555
C33_8 C34_8 1_555 1_555
Cu4 O1_8 1_555 1_555
O1_8 C17_8 1_555 1_555
C11_8 H9_8 1_555 1_555
C12_8 C11_8 1_555 1_555
C17_8 C12_8 1_555 1_555
Cu4_2 O6_8 1_555 1_555
O6_8 C35_8 1_555 1_555
C29_8 H20_8 1_555 1_555
C30_8 C29_8 1_555 1_555
C35_8 C30_8 1_555 1_555
O11_4 C18_8 1_555 1_555
O5_13 C16_8 1_555 1_555
C14_8 C13_8 1_555 1_555
H10_8 C14_8 1_555 1_555
C15_8 C14_8 1_555 1_555
H11_8 C15_8 1_555 1_555
C18_8 C13_8 1_555 1_555
C15_8 C16_8 1_555 1_555
N4_5 C19_8 1_555 1_555
C19_8 H12_8 1_555 1_555
C20_8 C19_8 1_555 1_555
H13_8 C20_8 1_555 1_555
C21_8 C20_8 1_555 1_555
C22_8 C21_8 1_555 1_555
H14_8 C22_8 1_555 1_555
C23_8 N4_5 1_555 1_555
H15_8 C23_8 1_555 1_555
C24_8 N6_6 1_555 1_555
H16_8 C24_8 1_555 1_555
C25_8 C24_8 1_555 1_555
H17_8 C25_8 1_555 1_555
C26_8 C21_8 1_555 1_555
C27_8 C26_8 1_555 1_555
H18_8 C27_8 1_555 1_555
C28_8 N6_6 1_555 1_555
H19_8 C28_8 1_555 1_555
C22_8 C23_8 1_555 1_555
C25_8 C26_8 1_555 1_555
C27_8 C28_8 1_555 1_555
N6_3 C6_6 1_555 1_555
C1_6 N4_4 1_555 1_555
H1_6 C1_6 1_555 1_555
C2_6 C1_6 1_555 1_555
H2_6 C2_6 1_555 1_555
C3_6 C2_6 1_555 1_555
C4_6 C3_6 1_555 1_555
H3_6 C4_6 1_555 1_555
C5_6 N4_4 1_555 1_555
H4_6 C5_6 1_555 1_555
C6_6 H5_6 1_555 1_555
C7_6 C6_6 1_555 1_555
H6_6 C7_6 1_555 1_555
C8_6 C3_6 1_555 1_555
C9_6 C8_6 1_555 1_555
H7_6 C9_6 1_555 1_555
C10_6 N6_3 1_555 1_555
H8_6 C10_6 1_555 1_555
C4_6 C5_6 1_555 1_555
C7_6 C8_6 1_555 1_555
C9_6 C10_6 1_555 1_555
C24_9 N6_7 1_555 1_555
H16_9 C24_9 1_555 1_555
C25_9 C24_9 1_555 1_555
H17_9 C25_9 1_555 1_555
C28_9 N6_7 1_555 1_555
N4_2 C19_9 1_555 1_555
C19_9 H12_9 1_555 1_555
C20_9 C19_9 1_555 1_555
H13_9 C20_9 1_555 1_555
C21_9 C20_9 1_555 1_555
C22_9 C21_9 1_555 1_555
H14_9 C22_9 1_555 1_555
C23_9 N4_2 1_555 1_555
H15_9 C23_9 1_555 1_555
C26_9 C21_9 1_555 1_555
C27_9 C26_9 1_555 1_555
H18_9 C27_9 1_555 1_555
C22_9 C23_9 1_555 1_555
H13_10 C20_10 1_555 1_555
C21_10 C20_10 1_555 1_555
C24_10 N6_2 1_555 1_555
H16_10 C24_10 1_555 1_555
C25_10 C24_10 1_555 1_555
H17_10 C25_10 1_555 1_555
C26_10 C21_10 1_555 1_555
C27_10 C26_10 1_555 1_555
H18_10 C27_10 1_555 1_555
C28_10 N6_2 1_555 1_555
H19_10 C28_10 1_555 1_555
C25_10 C26_10 1_555 1_555
C27_10 C28_10 1_555 1_555
N4_3 C19_10 1_555 1_555
H14_10 C22_10 1_555 1_555
C23_10 N4_3 1_555 1_555
H15_10 C23_10 1_555 1_555
C22_10 C23_10 1_555 1_555

#END
