
###############################################################################
#
# This file contains modified crystal structure data generated from the
# MOF subset of the Cambridge Structural Database (CSD) v543 
# hosted by the Cambridge Crystallographic Data Centre (CCDC).
#
# This work is licensed under the Creative Commons
# Attribution-NonCommercial-ShareAlike 4.0 International License.
# To view a copy of this license, visit
# http://creativecommons.org/licenses/by-nc-sa/4.0/
# or send a letter to
# Creative Commons, PO Box 1866, Mountain View, CA 94042, USA.
#
# CIF created using the CSD Python API on 29 September 2022
# The structure has been converted into the P1 space group
# The structure has a 3D framework
# The original CSD entry WUHCEJ is in the cubic crystal system
# The framework has been calculated to contain at least 10.0% void space
# The void calculation uses a probe of radius 1.32A, grid spacing 0.4
#
###############################################################################

data_WUHCEJ
_chemical_formula_moiety         '(C240 H102 O101 S48 Zr15)n'
_symmetry_cell_setting           triclinic
_symmetry_space_group_name_H-M   'P 1'
_symmetry_Int_Tables_number      1
_space_group_name_Hall           'P 1'
loop_
_symmetry_equiv_pos_site_id
_symmetry_equiv_pos_as_xyz
1 x,y,z
_cell_length_a                   25.224(3)
_cell_length_b                   25.224(3)
_cell_length_c                   25.224(3)
_cell_angle_alpha                90
_cell_angle_beta                 90
_cell_angle_gamma                90
_cell_volume                     16048.8
loop_
_atom_site_label
_atom_site_type_symbol
_atom_site_fract_x
_atom_site_fract_y
_atom_site_fract_z
Zr10 Zr 0.51135(2) 0.01248(2) 0.09658(2)
Zr1 Zr 0.51135(2) 0.48752(2) 0.40342(2)
O1 O 0.4521(2) 0.4521(2) 0.4521(2)
H1 H 0.4331(3) 0.4331(3) 0.4331(3)
O2 O 0.54755(18) 0.44015(19) 0.46388(17)
S1 S 0.28968(6) 0.50090(8) 0.32591(6)
O3 O 0.44160(13) 0.49062(14) 0.35078(13)
O4 O 0.37097(14) 0.50619(15) 0.40601(13)
C1 C 0.3927(2) 0.4977(2) 0.3609(2)
C2 C 0.3567(2) 0.4959(3) 0.3155(2)
C3 C 0.3683(3) 0.4908(5) 0.2631(3)
H2 H 0.4033 0.4882 0.2497
C4 C 0.3230(3) 0.4899(5) 0.2311(3)
H3 H 0.3241 0.4863 0.1936
C5 C 0.2772(3) 0.4946(4) 0.2594(2)
S2 S 0.67345(6) 0.46848(8) 0.28918(6)
O5 O 0.59131(14) 0.47361(14) 0.36988(15)
O6 O 0.64897(14) 0.47431(15) 0.44263(14)
C6 C 0.6373(2) 0.4720(2) 0.3924(2)
C7 C 0.6832(3) 0.4672(3) 0.3564(2)
C8 C 0.7355(3) 0.4637(5) 0.3687(3)
H4 H 0.7487 0.4625 0.4040
C9 C 0.7677(4) 0.4619(6) 0.3235(3)
H5 H 0.8053 0.4603 0.3251
C10 C 0.7400(3) 0.4627(4) 0.2772(3)
S3 S 0.21032(6) 0.50090(8) 0.17409(6)
O7 O 0.05840(13) 0.49062(14) 0.14922(13)
O8 O 0.12903(14) 0.50619(15) 0.09399(13)
C11 C 0.1073(2) 0.4977(2) 0.1391(2)
C12 C 0.1433(2) 0.4959(3) 0.1845(2)
C13 C 0.1317(3) 0.4908(5) 0.2369(3)
H6 H 0.0967 0.4882 0.2503
C14 C 0.1770(3) 0.4899(5) 0.2689(3)
H7 H 0.1759 0.4863 0.3064
C15 C 0.2228(3) 0.4946(4) 0.2406(2)
S4 S 0.82655(6) 0.46848(8) 0.21082(6)
O9 O 0.90869(14) 0.47361(14) 0.13012(15)
O10 O 0.85103(14) 0.47431(15) 0.05737(14)
C16 C 0.8627(2) 0.4720(2) 0.1076(2)
C17 C 0.8168(3) 0.4672(3) 0.1436(2)
C18 C 0.7645(3) 0.4637(5) 0.1313(3)
H8 H 0.7513 0.4625 0.0960
C19 C 0.7323(4) 0.4619(6) 0.1765(3)
H9 H 0.6947 0.4603 0.1749
C20 C 0.7600(3) 0.4627(4) 0.2228(3)
O11 O 0.0479(2) 0.4521(2) 0.0479(2)
H10 H 0.0669(3) 0.4331(3) 0.0669(3)
Zr3 Zr 0.40342(2) 0.51135(2) 0.48752(2)
O17 O 0.46388(17) 0.54755(18) 0.44015(19)
S7 S 0.32591(6) 0.28968(6) 0.50090(8)
O18 O 0.35078(13) 0.44160(13) 0.49062(14)
O19 O 0.40601(13) 0.37097(14) 0.50619(15)
C31 C 0.3609(2) 0.3927(2) 0.4977(2)
C32 C 0.3155(2) 0.3567(2) 0.4959(3)
C33 C 0.2631(3) 0.3683(3) 0.4908(5)
H15 H 0.2497 0.4033 0.4882
C34 C 0.2311(3) 0.3230(3) 0.4899(5)
H16 H 0.1936 0.3241 0.4863
C35 C 0.2594(2) 0.2772(3) 0.4946(4)
S8 S 0.17409(6) 0.21032(6) 0.50090(8)
O20 O 0.14922(13) 0.05840(13) 0.49062(14)
O21 O 0.09399(13) 0.12903(14) 0.50619(15)
C36 C 0.1391(2) 0.1073(2) 0.4977(2)
C37 C 0.1845(2) 0.1433(2) 0.4959(3)
C38 C 0.2369(3) 0.1317(3) 0.4908(5)
H17 H 0.2503 0.0967 0.4882
C39 C 0.2689(3) 0.1770(3) 0.4899(5)
H18 H 0.3064 0.1759 0.4863
C40 C 0.2406(2) 0.2228(3) 0.4946(4)
Zr5 Zr 0.09658(2) 0.51135(2) 0.01248(2)
O23 O 0.03612(17) 0.54755(18) 0.05985(19)
O24 O 0.14922(13) 0.44160(13) 0.00938(14)
C41 C 0.1391(2) 0.3927(2) 0.0023(2)
C42 C 0.1845(2) 0.3567(2) 0.0041(3)
C43 C 0.2369(3) 0.3683(3) 0.0092(5)
H19 H 0.2503 0.4033 0.0118
C44 C 0.2689(3) 0.3230(3) 0.0101(5)
H20 H 0.3064 0.3241 0.0137
C45 C 0.2406(2) 0.2772(3) 0.0054(4)
O26 O 0.35078(13) 0.05840(13) 0.00938(14)
C46 C 0.3609(2) 0.1073(2) 0.0023(2)
C47 C 0.3155(2) 0.1433(2) 0.0041(3)
C48 C 0.2631(3) 0.1317(3) 0.0092(5)
H21 H 0.2497 0.0967 0.0118
C49 C 0.2311(3) 0.1770(3) 0.0101(5)
H22 H 0.1936 0.1759 0.0137
C50 C 0.2594(2) 0.2228(3) 0.0054(4)
Zr6 Zr 0.48752(2) 0.40342(2) 0.51135(2)
O28 O 0.44015(19) 0.46388(17) 0.54755(18)
S11 S 0.53152(8) 0.71082(6) 0.32655(6)
O29 O 0.52639(14) 0.63012(15) 0.40869(14)
O30 O 0.52569(15) 0.55737(14) 0.35103(14)
C51 C 0.5280(2) 0.6076(2) 0.3627(2)
C52 C 0.5328(3) 0.6436(2) 0.3168(3)
C53 C 0.5363(5) 0.6313(3) 0.2645(3)
H23 H 0.5375 0.5960 0.2513
C54 C 0.5381(6) 0.6765(3) 0.2323(4)
H24 H 0.5397 0.6749 0.1947
C55 C 0.5373(4) 0.7228(3) 0.2600(3)
S12 S 0.53152(8) 0.78918(6) 0.17345(6)
O31 O 0.52639(14) 0.86988(15) 0.09131(14)
O32 O 0.52569(15) 0.94263(14) 0.14897(14)
C56 C 0.5280(2) 0.8924(2) 0.1373(2)
C57 C 0.5328(3) 0.8564(2) 0.1832(3)
C58 C 0.5363(5) 0.8687(3) 0.2355(3)
H25 H 0.5375 0.9040 0.2487
C59 C 0.5381(6) 0.8235(3) 0.2677(4)
H26 H 0.5397 0.8251 0.3053
C60 C 0.5373(4) 0.7772(3) 0.2400(3)
Zr9 Zr 0.98865(2) 0.48752(2) 0.09658(2)
Zr14 Zr 0.01248(2) 0.09658(2) 0.51135(2)
Zr15 Zr 0.48865(2) 0.51248(2) 0.59658(2)
Zr17 Zr 0.59658(2) 0.48865(2) 0.51248(2)
Zr20 Zr 0.51248(2) 0.59658(2) 0.48865(2)
Zr22 Zr 0.51248(2) 0.90342(2) 0.01135(2)
O33 O 0.0479(2) 0.0479(2) 0.4521(2)
O35 O 0.05985(19) 0.03612(17) 0.54755(18)
O36 O 0.45245(18) 0.55985(19) 0.53612(17)
O39 O 0.53612(17) 0.45245(18) 0.55985(19)
O40 O 0.55985(19) 0.53612(17) 0.45245(18)
O42 O 0.49062(14) 0.35078(13) 0.44160(13)
O44 O 0.50619(15) 0.40601(13) 0.37097(14)
O46 O 0.36988(15) 0.59131(14) 0.47361(14)
O48 O 0.13012(15) 0.59131(14) 0.02639(14)
O49 O 0.47361(14) 0.36988(15) 0.59131(14)
O50 O 0.35103(14) 0.52569(15) 0.55737(14)
O53 O 0.55737(14) 0.35103(14) 0.52569(15)
S9 S 0.17409(6) 0.28968(6) 0.99910(8)
O25 O 0.09399(13) 0.37097(14) 0.99381(15)
S10 S 0.32591(6) 0.21032(6) 0.99910(8)
O27 O 0.40601(13) 0.12903(14) 0.99381(15)
Zr12 Zr 0.01248(2) 0.40342(2) 0.98865(2)
Zr13 Zr 0.48752(2) 0.09658(2) 0.98865(2)
Zr19 Zr 0.90342(2) 0.48865(2) 0.98752(2)
O34 O 0.05985(19) 0.46388(17) 0.95245(18)
O38 O 0.04755(18) 0.55985(19) 0.96388(17)
O52 O 0.14897(14) 0.52569(15) 0.94263(14)
Zr4 Zr 0.09658(2) 0.98865(2) 0.48752(2)
O22 O 0.03612(17) 0.95245(18) 0.44015(19)
Zr11 Zr 0.40342(2) 0.98865(2) 0.01248(2)
O37 O 0.04755(18) 0.94015(19) 0.53612(17)
O43 O 0.12903(14) 0.99381(15) 0.40601(13)
O47 O 0.13012(15) 0.90869(14) 0.47361(14)
O51 O 0.14897(14) 0.97431(15) 0.55737(14)
O12 O 0.95245(18) 0.44015(19) 0.03612(17)
Zr8 Zr 0.98865(2) 0.01248(2) 0.40342(2)
Zr21 Zr 0.98752(2) 0.59658(2) 0.01135(2)
O41 O 0.94015(19) 0.53612(17) 0.04755(18)
O45 O 0.99381(15) 0.40601(13) 0.12903(14)
O54 O 0.97431(15) 0.55737(14) 0.14897(14)
Zr23 Zr 0.98752(2) 0.90342(2) 0.48865(2)
H1_2 H 0.0669(3) 0.0669(3) 0.4331(3)
O3_2 O 0.05840(13) 0.00938(14) 0.35078(13)
C1_2 C 0.1073(2) 0.0023(2) 0.3609(2)
C2_2 C 0.1433(2) 0.0041(3) 0.3155(2)
C3_2 C 0.1317(3) 0.0092(5) 0.2631(3)
H2_2 H 0.0967 0.0118 0.2497
C4_2 C 0.1770(3) 0.0101(5) 0.2311(3)
H3_2 H 0.1759 0.0137 0.1936
C5_2 C 0.2228(3) 0.0054(4) 0.2594(2)
O7_2 O 0.44160(13) 0.00938(14) 0.14922(13)
C11_2 C 0.3927(2) 0.0023(2) 0.1391(2)
C12_2 C 0.3567(2) 0.0041(3) 0.1845(2)
C13_2 C 0.3683(3) 0.0092(5) 0.2369(3)
H6_2 H 0.4033 0.0118 0.2503
C14_2 C 0.3230(3) 0.0101(5) 0.2689(3)
H7_2 H 0.3241 0.0137 0.3064
C15_2 C 0.2772(3) 0.0054(4) 0.2406(2)
O11_2 O 0.4521(2) 0.0479(2) 0.0479(2)
H10_2 H 0.4331(3) 0.0669(3) 0.0669(3)
O12_2 O 0.54755(18) 0.05985(19) 0.03612(17)
S5 S 0.67345(6) 0.03152(8) 0.21082(6)
O13 O 0.59131(14) 0.02639(14) 0.13012(15)
O14 O 0.64897(14) 0.02569(15) 0.05737(14)
C21 C 0.6373(2) 0.0280(2) 0.1076(2)
C22 C 0.6832(3) 0.0328(3) 0.1436(2)
C23 C 0.7355(3) 0.0363(5) 0.1313(3)
H11 H 0.7487 0.0375 0.0960
C24 C 0.7677(4) 0.0381(6) 0.1765(3)
H12 H 0.8053 0.0397 0.1749
C25 C 0.7400(3) 0.0373(4) 0.2228(3)
S6 S 0.82655(6) 0.03152(8) 0.28918(6)
O15 O 0.90869(14) 0.02639(14) 0.36988(15)
O16 O 0.85103(14) 0.02569(15) 0.44263(14)
C26 C 0.8627(2) 0.0280(2) 0.3924(2)
C27 C 0.8168(3) 0.0328(3) 0.3564(2)
C28 C 0.7645(3) 0.0363(5) 0.3687(3)
H13 H 0.7513 0.0375 0.4040
C29 C 0.7323(4) 0.0381(6) 0.3235(3)
H14 H 0.6947 0.0397 0.3251
C30 C 0.7600(3) 0.0373(4) 0.2772(3)
Zr16 Zr 0.90342(2) 0.01135(2) 0.51248(2)
O42_2 O 0.00938(14) 0.14922(13) 0.44160(13)
O45_2 O 0.50619(15) 0.09399(13) 0.12903(14)
O49_2 O 0.02639(14) 0.13012(15) 0.59131(14)
Zr18 Zr 0.59658(2) 0.01135(2) 0.98752(2)
O34_2 O 0.44015(19) 0.03612(17) 0.95245(18)
S1_2 S 0.21032(6) 0.99910(8) 0.32591(6)
S3_2 S 0.28968(6) 0.99910(8) 0.17409(6)
O8_2 O 0.37097(14) 0.99381(15) 0.09399(13)
O23_2 O 0.46388(17) 0.95245(18) 0.05985(19)
Zr15_2 Zr 0.01135(2) 0.98752(2) 0.59658(2)
O41_2 O 0.55985(19) 0.96388(17) 0.04755(18)
O48_2 O 0.36988(15) 0.90869(14) 0.02639(14)
O38_2 O 0.45245(18) 0.94015(19) 0.96388(17)
O52_2 O 0.35103(14) 0.97431(15) 0.94263(14)
O2_2 O 0.95245(18) 0.05985(19) 0.46388(17)
O39_2 O 0.96388(17) 0.04755(18) 0.55985(19)
O44_2 O 0.99381(15) 0.09399(13) 0.37097(14)
O53_2 O 0.94263(14) 0.14897(14) 0.52569(15)
S11_2 S 0.96848(8) 0.78918(6) 0.32655(6)
O29_2 O 0.97361(14) 0.86988(15) 0.40869(14)
O30_2 O 0.97431(15) 0.94263(14) 0.35103(14)
C51_2 C 0.9720(2) 0.8924(2) 0.3627(2)
C52_2 C 0.9672(3) 0.8564(2) 0.3168(3)
C53_2 C 0.9637(5) 0.8687(3) 0.2645(3)
H23_2 H 0.9625 0.9040 0.2513
C54_2 C 0.9619(6) 0.8235(3) 0.2323(4)
H24_2 H 0.9603 0.8251 0.1947
C55_2 C 0.9627(4) 0.7772(3) 0.2600(3)
S12_2 S 0.96848(8) 0.71082(6) 0.17345(6)
O31_2 O 0.97361(14) 0.63012(15) 0.09131(14)
C56_2 C 0.9720(2) 0.6076(2) 0.1373(2)
C57_2 C 0.9672(3) 0.6436(2) 0.1832(3)
C58_2 C 0.9637(5) 0.6313(3) 0.2355(3)
H25_2 H 0.9625 0.5960 0.2487
C59_2 C 0.9619(6) 0.6765(3) 0.2677(4)
H26_2 H 0.9603 0.6749 0.3053
C60_2 C 0.9627(4) 0.7228(3) 0.2400(3)
O40_2 O 0.94015(19) 0.96388(17) 0.45245(18)
O42_3 O 0.00938(14) 0.35078(13) 0.05840(13)
Zr15_3 Zr 0.01135(2) 0.51248(2) 0.90342(2)
O49_3 O 0.02639(14) 0.36988(15) 0.90869(14)
O39_3 O 0.96388(17) 0.45245(18) 0.94015(19)
O53_3 O 0.94263(14) 0.35103(14) 0.97431(15)
O42_4 O 0.49062(14) 0.14922(13) 0.05840(13)
O39_4 O 0.53612(17) 0.04755(18) 0.94015(19)
O49_4 O 0.47361(14) 0.13012(15) 0.90869(14)
O53_4 O 0.55737(14) 0.14897(14) 0.97431(15)
Zr15_4 Zr 0.48865(2) 0.98752(2) 0.90342(2)
S2_2 S 0.28918(6) 0.67345(6) 0.46848(8)
O6_2 O 0.44263(14) 0.64897(14) 0.47431(15)
C6_2 C 0.3924(2) 0.6373(2) 0.4720(2)
C7_2 C 0.3564(2) 0.6832(3) 0.4672(3)
C8_2 C 0.3687(3) 0.7355(3) 0.4637(5)
H4_2 H 0.4040 0.7487 0.4625
C9_2 C 0.3235(3) 0.7677(4) 0.4619(6)
H5_2 H 0.3251 0.8053 0.4603
C10_2 C 0.2772(3) 0.7400(3) 0.4627(4)
S4_2 S 0.21082(6) 0.82655(6) 0.46848(8)
O10_2 O 0.05737(14) 0.85103(14) 0.47431(15)
C16_2 C 0.1076(2) 0.8627(2) 0.4720(2)
C17_2 C 0.1436(2) 0.8168(3) 0.4672(3)
C18_2 C 0.1313(3) 0.7645(3) 0.4637(5)
H8_2 H 0.0960 0.7513 0.4625
C19_2 C 0.1765(3) 0.7323(4) 0.4619(6)
H9_2 H 0.1749 0.6947 0.4603
C20_2 C 0.2228(3) 0.7600(3) 0.4627(4)
S7_2 S 0.50090(8) 0.32591(6) 0.28968(6)
C31_2 C 0.4977(2) 0.3609(2) 0.3927(2)
C32_2 C 0.4959(3) 0.3155(2) 0.3567(2)
C33_2 C 0.4908(5) 0.2631(3) 0.3683(3)
H15_2 H 0.4882 0.2497 0.4033
C34_2 C 0.4899(5) 0.2311(3) 0.3230(3)
H16_2 H 0.4863 0.1936 0.3241
C35_2 C 0.4946(4) 0.2594(2) 0.2772(3)
S8_2 S 0.50090(8) 0.17409(6) 0.21032(6)
C36_2 C 0.4977(2) 0.1391(2) 0.1073(2)
C37_2 C 0.4959(3) 0.1845(2) 0.1433(2)
C38_2 C 0.4908(5) 0.2369(3) 0.1317(3)
H17_2 H 0.4882 0.2503 0.0967
C39_2 C 0.4899(5) 0.2689(3) 0.1770(3)
H18_2 H 0.4863 0.3064 0.1759
C40_2 C 0.4946(4) 0.2406(2) 0.2228(3)
C41_2 C 0.0023(2) 0.1391(2) 0.3927(2)
C42_2 C 0.0041(3) 0.1845(2) 0.3567(2)
C43_2 C 0.0092(5) 0.2369(3) 0.3683(3)
H19_2 H 0.0118 0.2503 0.4033
C44_2 C 0.0101(5) 0.2689(3) 0.3230(3)
H20_2 H 0.0137 0.3064 0.3241
C45_2 C 0.0054(4) 0.2406(2) 0.2772(3)
C46_2 C 0.0023(2) 0.3609(2) 0.1073(2)
C47_2 C 0.0041(3) 0.3155(2) 0.1433(2)
C48_2 C 0.0092(5) 0.2631(3) 0.1317(3)
H21_2 H 0.0118 0.2497 0.0967
C49_2 C 0.0101(5) 0.2311(3) 0.1770(3)
H22_2 H 0.0137 0.1936 0.1759
C50_2 C 0.0054(4) 0.2594(2) 0.2228(3)
S11_3 S 0.32655(6) 0.53152(8) 0.71082(6)
O29_3 O 0.40869(14) 0.52639(14) 0.63012(15)
C51_3 C 0.3627(2) 0.5280(2) 0.6076(2)
C52_3 C 0.3168(3) 0.5328(3) 0.6436(2)
C53_3 C 0.2645(3) 0.5363(5) 0.6313(3)
H23_3 H 0.2513 0.5375 0.5960
C54_3 C 0.2323(4) 0.5381(6) 0.6765(3)
H24_3 H 0.1947 0.5397 0.6749
C55_3 C 0.2600(3) 0.5373(4) 0.7228(3)
S12_3 S 0.17345(6) 0.53152(8) 0.78918(6)
O31_3 O 0.09131(14) 0.52639(14) 0.86988(15)
C56_3 C 0.1373(2) 0.5280(2) 0.8924(2)
C57_3 C 0.1832(3) 0.5328(3) 0.8564(2)
C58_3 C 0.2355(3) 0.5363(5) 0.8687(3)
H25_3 H 0.2487 0.5375 0.9040
C59_3 C 0.2677(4) 0.5381(6) 0.8235(3)
H26_3 H 0.3053 0.5397 0.8251
C60_3 C 0.2400(3) 0.5373(4) 0.7772(3)
S9_2 S 0.99910(8) 0.17409(6) 0.28968(6)
S10_2 S 0.99910(8) 0.32591(6) 0.21032(6)
S5_2 S 0.21082(6) 0.67345(6) 0.03152(8)
O14_2 O 0.05737(14) 0.64897(14) 0.02569(15)
C21_2 C 0.1076(2) 0.6373(2) 0.0280(2)
C22_2 C 0.1436(2) 0.6832(3) 0.0328(3)
C23_2 C 0.1313(3) 0.7355(3) 0.0363(5)
H11_2 H 0.0960 0.7487 0.0375
C24_2 C 0.1765(3) 0.7677(4) 0.0381(6)
H12_2 H 0.1749 0.8053 0.0397
C25_2 C 0.2228(3) 0.7400(3) 0.0373(4)
S6_2 S 0.28918(6) 0.82655(6) 0.03152(8)
O16_2 O 0.44263(14) 0.85103(14) 0.02569(15)
C26_2 C 0.3924(2) 0.8627(2) 0.0280(2)
C27_2 C 0.3564(2) 0.8168(3) 0.0328(3)
C28_2 C 0.3687(3) 0.7645(3) 0.0363(5)
H13_2 H 0.4040 0.7513 0.0375
C29_2 C 0.3235(3) 0.7323(4) 0.0381(6)
H14_2 H 0.3251 0.6947 0.0397
C30_2 C 0.2772(3) 0.7600(3) 0.0373(4)
S11_4 S 0.32655(6) 0.96848(8) 0.78918(6)
O29_4 O 0.40869(14) 0.97361(14) 0.86988(15)
C51_4 C 0.3627(2) 0.9720(2) 0.8924(2)
C52_4 C 0.3168(3) 0.9672(3) 0.8564(2)
C53_4 C 0.2645(3) 0.9637(5) 0.8687(3)
H23_4 H 0.2513 0.9625 0.9040
C54_4 C 0.2323(4) 0.9619(6) 0.8235(3)
H24_4 H 0.1947 0.9603 0.8251
C55_4 C 0.2600(3) 0.9627(4) 0.7772(3)
S12_4 S 0.17345(6) 0.96848(8) 0.71082(6)
O31_4 O 0.09131(14) 0.97361(14) 0.63012(15)
C56_4 C 0.1373(2) 0.9720(2) 0.6076(2)
C57_4 C 0.1832(3) 0.9672(3) 0.6436(2)
C58_4 C 0.2355(3) 0.9637(5) 0.6313(3)
H25_4 H 0.2487 0.9625 0.5960
C59_4 C 0.2677(4) 0.9619(6) 0.6765(3)
H26_4 H 0.3053 0.9603 0.6749
C60_4 C 0.2400(3) 0.9627(4) 0.7228(3)
S2_3 S 0.46848(8) 0.28918(6) 0.67345(6)
O6_3 O 0.47431(15) 0.44263(14) 0.64897(14)
C6_3 C 0.4720(2) 0.3924(2) 0.6373(2)
C7_3 C 0.4672(3) 0.3564(2) 0.6832(3)
C8_3 C 0.4637(5) 0.3687(3) 0.7355(3)
H4_3 H 0.4625 0.4040 0.7487
C9_3 C 0.4619(6) 0.3235(3) 0.7677(4)
H5_3 H 0.4603 0.3251 0.8053
C10_3 C 0.4627(4) 0.2772(3) 0.7400(3)
S4_3 S 0.46848(8) 0.21082(6) 0.82655(6)
O10_3 O 0.47431(15) 0.05737(14) 0.85103(14)
C16_3 C 0.4720(2) 0.1076(2) 0.8627(2)
C17_3 C 0.4672(3) 0.1436(2) 0.8168(3)
C18_3 C 0.4637(5) 0.1313(3) 0.7645(3)
H8_3 H 0.4625 0.0960 0.7513
C19_3 C 0.4619(6) 0.1765(3) 0.7323(4)
H9_3 H 0.4603 0.1749 0.6947
C20_3 C 0.4627(4) 0.2228(3) 0.7600(3)
S11_5 S 0.71082(6) 0.32655(6) 0.53152(8)
O29_5 O 0.63012(15) 0.40869(14) 0.52639(14)
C51_5 C 0.6076(2) 0.3627(2) 0.5280(2)
C52_5 C 0.6436(2) 0.3168(3) 0.5328(3)
C53_5 C 0.6313(3) 0.2645(3) 0.5363(5)
H23_5 H 0.5960 0.2513 0.5375
C54_5 C 0.6765(3) 0.2323(4) 0.5381(6)
H24_5 H 0.6749 0.1947 0.5397
C55_5 C 0.7228(3) 0.2600(3) 0.5373(4)
S12_5 S 0.78918(6) 0.17345(6) 0.53152(8)
O31_5 O 0.86988(15) 0.09131(14) 0.52639(14)
C56_5 C 0.8924(2) 0.1373(2) 0.5280(2)
C57_5 C 0.8564(2) 0.1832(3) 0.5328(3)
C58_5 C 0.8687(3) 0.2355(3) 0.5363(5)
H25_5 H 0.9040 0.2487 0.5375
C59_5 C 0.8235(3) 0.2677(4) 0.5381(6)
H26_5 H 0.8251 0.3053 0.5397
C60_5 C 0.7772(3) 0.2400(3) 0.5373(4)
S5_3 S 0.03152(8) 0.21082(6) 0.67345(6)
O14_3 O 0.02569(15) 0.05737(14) 0.64897(14)
C21_3 C 0.0280(2) 0.1076(2) 0.6373(2)
C22_3 C 0.0328(3) 0.1436(2) 0.6832(3)
C23_3 C 0.0363(5) 0.1313(3) 0.7355(3)
H11_3 H 0.0375 0.0960 0.7487
C24_3 C 0.0381(6) 0.1765(3) 0.7677(4)
H12_3 H 0.0397 0.1749 0.8053
C25_3 C 0.0373(4) 0.2228(3) 0.7400(3)
S6_3 S 0.03152(8) 0.28918(6) 0.82655(6)
O16_3 O 0.02569(15) 0.44263(14) 0.85103(14)
C26_3 C 0.0280(2) 0.3924(2) 0.8627(2)
C27_3 C 0.0328(3) 0.3564(2) 0.8168(3)
C28_3 C 0.0363(5) 0.3687(3) 0.7645(3)
H13_3 H 0.0375 0.4040 0.7513
C29_3 C 0.0381(6) 0.3235(3) 0.7323(4)
H14_3 H 0.0397 0.3251 0.6947
C30_3 C 0.0373(4) 0.2772(3) 0.7600(3)
S11_6 S 0.78918(6) 0.32655(6) 0.96848(8)
O29_6 O 0.86988(15) 0.40869(14) 0.97361(14)
C51_6 C 0.8924(2) 0.3627(2) 0.9720(2)
C52_6 C 0.8564(2) 0.3168(3) 0.9672(3)
C53_6 C 0.8687(3) 0.2645(3) 0.9637(5)
H23_6 H 0.9040 0.2513 0.9625
C54_6 C 0.8235(3) 0.2323(4) 0.9619(6)
H24_6 H 0.8251 0.1947 0.9603
C55_6 C 0.7772(3) 0.2600(3) 0.9627(4)
S12_6 S 0.71082(6) 0.17345(6) 0.96848(8)
O31_6 O 0.63012(15) 0.09131(14) 0.97361(14)
C56_6 C 0.6076(2) 0.1373(2) 0.9720(2)
C57_6 C 0.6436(2) 0.1832(3) 0.9672(3)
C58_6 C 0.6313(3) 0.2355(3) 0.9637(5)
H25_6 H 0.5960 0.2487 0.9625
C59_6 C 0.6765(3) 0.2677(4) 0.9619(6)
H26_6 H 0.6749 0.3053 0.9603
C60_6 C 0.7228(3) 0.2400(3) 0.9627(4)
O45_3 O 0.00619(15) 0.59399(13) 0.87097(14)
O43_2 O 0.87097(14) 0.00619(15) 0.59399(13)
S9_3 S 0.82591(6) 0.71032(6) 0.00090(8)
O25_2 O 0.90601(13) 0.62903(14) 0.00619(15)
S10_3 S 0.67409(6) 0.78968(6) 0.00090(8)
O27_2 O 0.59399(13) 0.87097(14) 0.00619(15)
O1_2 O 0.5479(2) 0.5479(2) 0.5479(2)
H1_3 H 0.5669(3) 0.5669(3) 0.5669(3)
S1_3 S 0.71032(6) 0.49910(8) 0.67409(6)
O3_3 O 0.55840(13) 0.50938(14) 0.64922(13)
O4_2 O 0.62903(14) 0.49381(15) 0.59399(13)
C1_3 C 0.6073(2) 0.5023(2) 0.6391(2)
C2_3 C 0.6433(2) 0.5041(3) 0.6845(2)
C3_3 C 0.6317(3) 0.5092(5) 0.7369(3)
H2_3 H 0.5967 0.5118 0.7503
C4_3 C 0.6770(3) 0.5101(5) 0.7689(3)
H3_3 H 0.6759 0.5137 0.8064
C5_3 C 0.7228(3) 0.5054(4) 0.7406(2)
S3_3 S 0.78968(6) 0.49910(8) 0.82591(6)
O7_3 O 0.94160(13) 0.50938(14) 0.85078(13)
O8_3 O 0.87097(14) 0.49381(15) 0.90601(13)
C11_3 C 0.8927(2) 0.5023(2) 0.8609(2)
C12_3 C 0.8567(2) 0.5041(3) 0.8155(2)
C13_3 C 0.8683(3) 0.5092(5) 0.7631(3)
H6_3 H 0.9033 0.5118 0.7497
C14_3 C 0.8230(3) 0.5101(5) 0.7311(3)
H7_3 H 0.8241 0.5137 0.6936
C15_3 C 0.7772(3) 0.5054(4) 0.7594(2)
O11_3 O 0.9521(2) 0.5479(2) 0.9521(2)
H10_3 H 0.9331(3) 0.5669(3) 0.9331(3)
S7_3 S 0.67409(6) 0.71032(6) 0.49910(8)
O18_2 O 0.64922(13) 0.55840(13) 0.50938(14)
O19_2 O 0.59399(13) 0.62903(14) 0.49381(15)
C31_3 C 0.6391(2) 0.6073(2) 0.5023(2)
C32_3 C 0.6845(2) 0.6433(2) 0.5041(3)
C33_3 C 0.7369(3) 0.6317(3) 0.5092(5)
H15_3 H 0.7503 0.5967 0.5118
C34_3 C 0.7689(3) 0.6770(3) 0.5101(5)
H16_3 H 0.8064 0.6759 0.5137
C35_3 C 0.7406(2) 0.7228(3) 0.5054(4)
S8_3 S 0.82591(6) 0.78968(6) 0.49910(8)
O20_2 O 0.85078(13) 0.94160(13) 0.50938(14)
O21_2 O 0.90601(13) 0.87097(14) 0.49381(15)
C36_3 C 0.8609(2) 0.8927(2) 0.5023(2)
C37_3 C 0.8155(2) 0.8567(2) 0.5041(3)
C38_3 C 0.7631(3) 0.8683(3) 0.5092(5)
H17_3 H 0.7497 0.9033 0.5118
C39_3 C 0.7311(3) 0.8230(3) 0.5101(5)
H18_3 H 0.6936 0.8241 0.5137
C40_3 C 0.7594(2) 0.7772(3) 0.5054(4)
O24_2 O 0.85078(13) 0.55840(13) 0.99062(14)
C41_3 C 0.8609(2) 0.6073(2) 0.9977(2)
C42_3 C 0.8155(2) 0.6433(2) 0.9959(3)
C43_3 C 0.7631(3) 0.6317(3) 0.9908(5)
H19_3 H 0.7497 0.5967 0.9882
C44_3 C 0.7311(3) 0.6770(3) 0.9899(5)
H20_3 H 0.6936 0.6759 0.9863
C45_3 C 0.7594(2) 0.7228(3) 0.9946(4)
O26_2 O 0.64922(13) 0.94160(13) 0.99062(14)
C46_3 C 0.6391(2) 0.8927(2) 0.9977(2)
C47_3 C 0.6845(2) 0.8567(2) 0.9959(3)
C48_3 C 0.7369(3) 0.8683(3) 0.9908(5)
H21_3 H 0.7503 0.9033 0.9882
C49_3 C 0.7689(3) 0.8230(3) 0.9899(5)
H22_3 H 0.8064 0.8241 0.9863
C50_3 C 0.7406(2) 0.7772(3) 0.9946(4)
O33_2 O 0.9521(2) 0.9521(2) 0.5479(2)
O42_5 O 0.50938(14) 0.64922(13) 0.55840(13)
O44_3 O 0.49381(15) 0.59399(13) 0.62903(14)
O44_4 O 0.00619(15) 0.90601(13) 0.62903(14)
S1_4 S 0.78968(6) 0.00090(8) 0.67409(6)
S3_4 S 0.71032(6) 0.00090(8) 0.82591(6)
O8_4 O 0.62903(14) 0.00619(15) 0.90601(13)
H1_4 H 0.9331(3) 0.9331(3) 0.5669(3)
O3_4 O 0.94160(13) 0.99062(14) 0.64922(13)
C1_4 C 0.8927(2) 0.9977(2) 0.6391(2)
C2_4 C 0.8567(2) 0.9959(3) 0.6845(2)
C3_4 C 0.8683(3) 0.9908(5) 0.7369(3)
H2_4 H 0.9033 0.9882 0.7503
C4_4 C 0.8230(3) 0.9899(5) 0.7689(3)
H3_4 H 0.8241 0.9863 0.8064
C5_4 C 0.7772(3) 0.9946(4) 0.7406(2)
O7_4 O 0.55840(13) 0.99062(14) 0.85078(13)
C11_4 C 0.6073(2) 0.9977(2) 0.8609(2)
C12_4 C 0.6433(2) 0.9959(3) 0.8155(2)
C13_4 C 0.6317(3) 0.9908(5) 0.7631(3)
H6_4 H 0.5967 0.9882 0.7497
C14_4 C 0.6770(3) 0.9899(5) 0.7311(3)
H7_4 H 0.6759 0.9863 0.6936
C15_4 C 0.7228(3) 0.9946(4) 0.7594(2)
O11_4 O 0.5479(2) 0.9521(2) 0.9521(2)
H10_4 H 0.5669(3) 0.9331(3) 0.9331(3)
O42_6 O 0.99062(14) 0.85078(13) 0.55840(13)
O45_4 O 0.49381(15) 0.90601(13) 0.87097(14)
O42_7 O 0.99062(14) 0.64922(13) 0.94160(13)
O42_8 O 0.50938(14) 0.85078(13) 0.94160(13)
S9_4 S 0.00090(8) 0.82591(6) 0.71032(6)
S10_4 S 0.00090(8) 0.67409(6) 0.78968(6)
S7_4 S 0.49910(8) 0.67409(6) 0.71032(6)
C31_4 C 0.5023(2) 0.6391(2) 0.6073(2)
C32_4 C 0.5041(3) 0.6845(2) 0.6433(2)
C33_4 C 0.5092(5) 0.7369(3) 0.6317(3)
H15_4 H 0.5118 0.7503 0.5967
C34_4 C 0.5101(5) 0.7689(3) 0.6770(3)
H16_4 H 0.5137 0.8064 0.6759
C35_4 C 0.5054(4) 0.7406(2) 0.7228(3)
S8_4 S 0.49910(8) 0.82591(6) 0.78968(6)
C36_4 C 0.5023(2) 0.8609(2) 0.8927(2)
C37_4 C 0.5041(3) 0.8155(2) 0.8567(2)
C38_4 C 0.5092(5) 0.7631(3) 0.8683(3)
H17_4 H 0.5118 0.7497 0.9033
C39_4 C 0.5101(5) 0.7311(3) 0.8230(3)
H18_4 H 0.5137 0.6936 0.8241
C40_4 C 0.5054(4) 0.7594(2) 0.7772(3)
C41_4 C 0.9977(2) 0.8609(2) 0.6073(2)
C42_4 C 0.9959(3) 0.8155(2) 0.6433(2)
C43_4 C 0.9908(5) 0.7631(3) 0.6317(3)
H19_4 H 0.9882 0.7497 0.5967
C44_4 C 0.9899(5) 0.7311(3) 0.6770(3)
H20_4 H 0.9863 0.6936 0.6759
C45_4 C 0.9946(4) 0.7594(2) 0.7228(3)
C46_4 C 0.9977(2) 0.6391(2) 0.8927(2)
C47_4 C 0.9959(3) 0.6845(2) 0.8567(2)
C48_4 C 0.9908(5) 0.7369(3) 0.8683(3)
H21_4 H 0.9882 0.7503 0.9033
C49_4 C 0.9899(5) 0.7689(3) 0.8230(3)
H22_4 H 0.9863 0.8064 0.8241
C50_4 C 0.9946(4) 0.7406(2) 0.7772(3)
loop_
_geom_bond_atom_site_label_1
_geom_bond_atom_site_label_2
_geom_bond_site_symmetry_1
_geom_bond_site_symmetry_2
Zr1 O1 1_555 1_555
O1 H1 1_555 1_555
O2 Zr1 1_555 1_555
S1 C2 1_555 1_555
O3 Zr1 1_555 1_555
O4 C1 1_555 1_555
C1 O3 1_555 1_555
C2 C1 1_555 1_555
C3 C2 1_555 1_555
H2 C3 1_555 1_555
C4 C3 1_555 1_555
H3 C4 1_555 1_555
C5 S1 1_555 1_555
S2 C7 1_555 1_555
O5 Zr1 1_555 1_555
O6 C6 1_555 1_555
C6 O5 1_555 1_555
C7 C6 1_555 1_555
C8 C7 1_555 1_555
H4 C8 1_555 1_555
C9 C8 1_555 1_555
H5 C9 1_555 1_555
C10 S2 1_555 1_555
S3 C12 1_555 1_555
O7 C11 1_555 1_555
O8 C11 1_555 1_555
C11 C12 1_555 1_555
C12 C13 1_555 1_555
C13 H6 1_555 1_555
C14 C13 1_555 1_555
H7 C14 1_555 1_555
C15 C5 1_555 1_555
S4 C17 1_555 1_555
O9 C16 1_555 1_555
O10 C16 1_555 1_555
C16 C17 1_555 1_555
C17 C18 1_555 1_555
C18 H8 1_555 1_555
C19 C18 1_555 1_555
H9 C19 1_555 1_555
C20 C10 1_555 1_555
H10 O11 1_555 1_555
Zr3 O1 1_555 1_555
O17 Zr1 1_555 1_555
S7 C32 1_555 1_555
O18 Zr3 1_555 1_555
O19 C31 1_555 1_555
C31 O18 1_555 1_555
C32 C31 1_555 1_555
C33 C32 1_555 1_555
H15 C33 1_555 1_555
C34 C33 1_555 1_555
H16 C34 1_555 1_555
C35 S7 1_555 1_555
S8 C37 1_555 1_555
O20 C36 1_555 1_555
O21 C36 1_555 1_555
C36 C37 1_555 1_555
C37 C38 1_555 1_555
C38 H17 1_555 1_555
C39 C38 1_555 1_555
H18 C39 1_555 1_555
C40 C35 1_555 1_555
Zr5 O8 1_555 1_555
O24 Zr5 1_555 1_555
C41 O24 1_555 1_555
C42 C41 1_555 1_555
C43 C42 1_555 1_555
H19 C43 1_555 1_555
C44 C43 1_555 1_555
H20 C44 1_555 1_555
O26 C46 1_555 1_555
C46 C47 1_555 1_555
C47 C48 1_555 1_555
C48 H21 1_555 1_555
C49 C48 1_555 1_555
H22 C49 1_555 1_555
C50 C45 1_555 1_555
Zr6 O1 1_555 1_555
O28 Zr3 1_555 1_555
S11 C52 1_555 1_555
O29 C51 1_555 1_555
O30 Zr1 1_555 1_555
C51 O30 1_555 1_555
C52 C51 1_555 1_555
C53 C52 1_555 1_555
H23 C53 1_555 1_555
C54 C53 1_555 1_555
H24 C54 1_555 1_555
C55 S11 1_555 1_555
S12 C57 1_555 1_555
O31 C56 1_555 1_555
O32 C56 1_555 1_555
C56 C57 1_555 1_555
C57 C58 1_555 1_555
C58 H25 1_555 1_555
C59 C58 1_555 1_555
H26 C59 1_555 1_555
C60 C55 1_555 1_555
Zr9 O9 1_555 1_555
Zr14 O21 1_555 1_555
Zr15 O28 1_555 1_555
Zr17 O2 1_555 1_555
Zr20 O17 1_555 1_555
Zr22 O31 1_555 1_555
O36 Zr3 1_555 1_555
O39 Zr6 1_555 1_555
O40 Zr1 1_555 1_555
O42 Zr6 1_555 1_555
O44 Zr1 1_555 1_555
O46 Zr3 1_555 1_555
O48 Zr5 1_555 1_555
O49 Zr6 1_555 1_555
O50 Zr3 1_555 1_555
O53 Zr6 1_555 1_555
O2 Zr6 1_555 1_555
O4 Zr3 1_555 1_555
C4 C5 1_555 1_555
O6 Zr17 1_555 1_555
C9 C10 1_555 1_555
S3 C15 1_555 1_555
C14 C15 1_555 1_555
S4 C20 1_555 1_555
C19 C20 1_555 1_555
O11 Zr5 1_555 1_555
Zr3 O17 1_555 1_555
O19 Zr6 1_555 1_555
C34 C35 1_555 1_555
S8 C40 1_555 1_555
C39 C40 1_555 1_555
Zr5 O23 1_555 1_555
C44 C45 1_555 1_555
C49 C50 1_555 1_555
Zr6 O28 1_555 1_555
O29 Zr20 1_555 1_555
C54 C55 1_555 1_555
S12 C60 1_555 1_555
C59 C60 1_555 1_555
Zr14 O33 1_555 1_555
Zr14 O35 1_555 1_555
Zr15 O36 1_555 1_555
Zr15 O39 1_555 1_555
Zr17 O39 1_555 1_555
Zr17 O40 1_555 1_555
Zr20 O36 1_555 1_555
Zr20 O40 1_555 1_555
Zr13 O27 1_555 1_555
O25 Zr12 1_555 1_555
Zr12 O34 1_555 1_555
O22 Zr4 1_555 1_555
O37 Zr4 1_555 1_555
O43 Zr4 1_555 1_555
O47 Zr4 1_555 1_555
O51 Zr4 1_555 1_555
O12 Zr9 1_555 1_555
O41 Zr9 1_555 1_555
O45 Zr9 1_555 1_555
O54 Zr9 1_555 1_555
Zr21 O41 1_555 1_555
O33 H1_2 1_555 1_555
C1_2 O3_2 1_555 1_555
C2_2 C1_2 1_555 1_555
C3_2 C2_2 1_555 1_555
H2_2 C3_2 1_555 1_555
C4_2 C3_2 1_555 1_555
H3_2 C4_2 1_555 1_555
O7_2 C11_2 1_555 1_555
C11_2 C12_2 1_555 1_555
C12_2 C13_2 1_555 1_555
C13_2 H6_2 1_555 1_555
C14_2 C13_2 1_555 1_555
H7_2 C14_2 1_555 1_555
C15_2 C5_2 1_555 1_555
Zr10 O7_2 1_555 1_555
O11_2 Zr10 1_555 1_555
H10_2 O11_2 1_555 1_555
O12_2 Zr10 1_555 1_555
S5 C22 1_555 1_555
O13 Zr10 1_555 1_555
O14 C21 1_555 1_555
C21 O13 1_555 1_555
C22 C21 1_555 1_555
C23 C22 1_555 1_555
H11 C23 1_555 1_555
C24 C23 1_555 1_555
H12 C24 1_555 1_555
C25 S5 1_555 1_555
S6 C27 1_555 1_555
O15 C26 1_555 1_555
O16 C26 1_555 1_555
C26 C27 1_555 1_555
C27 C28 1_555 1_555
C28 H13 1_555 1_555
C29 C28 1_555 1_555
H14 C29 1_555 1_555
C30 C25 1_555 1_555
Zr8 O15 1_555 1_555
Zr16 O16 1_555 1_555
O42_2 Zr14 1_555 1_555
O45_2 Zr10 1_555 1_555
O49_2 Zr14 1_555 1_555
C4_2 C5_2 1_555 1_555
C14_2 C15_2 1_555 1_555
C24 C25 1_555 1_555
S6 C30 1_555 1_555
C29 C30 1_555 1_555
Zr13 O34_2 1_555 1_555
Zr11 O8_2 1_555 1_555
Zr22 O23_2 1_555 1_555
O48_2 Zr11 1_555 1_555
Zr11 O23_2 1_555 1_555
Zr15_2 O37 1_555 1_555
Zr22 O41_2 1_555 1_555
O2_2 Zr8 1_555 1_555
Zr16 O2_2 1_555 1_555
O44_2 Zr8 1_555 1_555
Zr16 O39_2 1_555 1_555
S11_2 C52_2 1_555 1_555
O29_2 C51_2 1_555 1_555
C51_2 O30_2 1_555 1_555
C52_2 C51_2 1_555 1_555
C53_2 C52_2 1_555 1_555
H23_2 C53_2 1_555 1_555
C54_2 C53_2 1_555 1_555
H24_2 C54_2 1_555 1_555
C55_2 S11_2 1_555 1_555
S12_2 C57_2 1_555 1_555
O31_2 C56_2 1_555 1_555
O54 C56_2 1_555 1_555
C56_2 C57_2 1_555 1_555
C57_2 C58_2 1_555 1_555
C58_2 H25_2 1_555 1_555
C59_2 C58_2 1_555 1_555
H26_2 C59_2 1_555 1_555
C60_2 C55_2 1_555 1_555
Zr21 O31_2 1_555 1_555
O29_2 Zr23 1_555 1_555
C54_2 C55_2 1_555 1_555
S12_2 C60_2 1_555 1_555
C59_2 C60_2 1_555 1_555
Zr23 O40_2 1_555 1_555
Zr15_3 O34 1_555 1_555
O49_3 Zr12 1_555 1_555
Zr15_3 O38 1_555 1_555
Zr19 O39_3 1_555 1_555
O39_4 Zr13 1_555 1_555
O49_4 Zr13 1_555 1_555
O53_4 Zr13 1_555 1_555
Zr18 O39_4 1_555 1_555
Zr15_4 O38_2 1_555 1_555
S2_2 C7_2 1_555 1_555
O6_2 C6_2 1_555 1_555
C6_2 O46 1_555 1_555
C7_2 C6_2 1_555 1_555
C8_2 C7_2 1_555 1_555
H4_2 C8_2 1_555 1_555
C9_2 C8_2 1_555 1_555
H5_2 C9_2 1_555 1_555
C10_2 S2_2 1_555 1_555
S4_2 C17_2 1_555 1_555
O47 C16_2 1_555 1_555
O10_2 C16_2 1_555 1_555
C16_2 C17_2 1_555 1_555
C17_2 C18_2 1_555 1_555
C18_2 H8_2 1_555 1_555
C19_2 C18_2 1_555 1_555
H9_2 C19_2 1_555 1_555
C20_2 C10_2 1_555 1_555
S7_2 C32_2 1_555 1_555
O44 C31_2 1_555 1_555
C31_2 O42 1_555 1_555
C32_2 C31_2 1_555 1_555
C33_2 C32_2 1_555 1_555
H15_2 C33_2 1_555 1_555
C34_2 C33_2 1_555 1_555
H16_2 C34_2 1_555 1_555
C35_2 S7_2 1_555 1_555
S8_2 C37_2 1_555 1_555
O42_4 C36_2 1_555 1_555
O45_2 C36_2 1_555 1_555
C36_2 C37_2 1_555 1_555
C37_2 C38_2 1_555 1_555
C38_2 H17_2 1_555 1_555
C39_2 C38_2 1_555 1_555
H18_2 C39_2 1_555 1_555
C40_2 C35_2 1_555 1_555
C41_2 O42_2 1_555 1_555
C42_2 C41_2 1_555 1_555
C43_2 C42_2 1_555 1_555
H19_2 C43_2 1_555 1_555
C44_2 C43_2 1_555 1_555
H20_2 C44_2 1_555 1_555
O42_3 C46_2 1_555 1_555
C46_2 C47_2 1_555 1_555
C47_2 C48_2 1_555 1_555
C48_2 H21_2 1_555 1_555
C49_2 C48_2 1_555 1_555
H22_2 C49_2 1_555 1_555
C50_2 C45_2 1_555 1_555
S11_3 C52_3 1_555 1_555
O29_3 C51_3 1_555 1_555
C51_3 O50 1_555 1_555
C52_3 C51_3 1_555 1_555
C53_3 C52_3 1_555 1_555
H23_3 C53_3 1_555 1_555
C54_3 C53_3 1_555 1_555
H24_3 C54_3 1_555 1_555
C55_3 S11_3 1_555 1_555
S12_3 C57_3 1_555 1_555
O31_3 C56_3 1_555 1_555
O52 C56_3 1_555 1_555
C56_3 C57_3 1_555 1_555
C57_3 C58_3 1_555 1_555
C58_3 H25_3 1_555 1_555
C59_3 C58_3 1_555 1_555
H26_3 C59_3 1_555 1_555
C60_3 C55_3 1_555 1_555
Zr15_3 O31_3 1_555 1_555
O6_2 Zr20 1_555 1_555
C9_2 C10_2 1_555 1_555
S4_2 C20_2 1_555 1_555
C19_2 C20_2 1_555 1_555
C34_2 C35_2 1_555 1_555
S8_2 C40_2 1_555 1_555
C39_2 C40_2 1_555 1_555
C44_2 C45_2 1_555 1_555
C49_2 C50_2 1_555 1_555
O29_3 Zr15 1_555 1_555
C54_3 C55_3 1_555 1_555
S12_3 C60_3 1_555 1_555
C59_3 C60_3 1_555 1_555
S5_2 C22_2 1_555 1_555
O14_2 C21_2 1_555 1_555
C21_2 O48 1_555 1_555
C22_2 C21_2 1_555 1_555
C23_2 C22_2 1_555 1_555
H11_2 C23_2 1_555 1_555
C24_2 C23_2 1_555 1_555
H12_2 C24_2 1_555 1_555
C25_2 S5_2 1_555 1_555
S6_2 C27_2 1_555 1_555
O48_2 C26_2 1_555 1_555
O16_2 C26_2 1_555 1_555
C26_2 C27_2 1_555 1_555
C27_2 C28_2 1_555 1_555
C28_2 H13_2 1_555 1_555
C29_2 C28_2 1_555 1_555
H14_2 C29_2 1_555 1_555
C30_2 C25_2 1_555 1_555
Zr22 O16_2 1_555 1_555
C24_2 C25_2 1_555 1_555
S6_2 C30_2 1_555 1_555
C29_2 C30_2 1_555 1_555
S11_4 C52_4 1_555 1_555
O29_4 C51_4 1_555 1_555
C51_4 O52_2 1_555 1_555
C52_4 C51_4 1_555 1_555
C53_4 C52_4 1_555 1_555
H23_4 C53_4 1_555 1_555
C54_4 C53_4 1_555 1_555
H24_4 C54_4 1_555 1_555
C55_4 S11_4 1_555 1_555
S12_4 C57_4 1_555 1_555
O31_4 C56_4 1_555 1_555
O51 C56_4 1_555 1_555
C56_4 C57_4 1_555 1_555
C57_4 C58_4 1_555 1_555
C58_4 H25_4 1_555 1_555
C59_4 C58_4 1_555 1_555
H26_4 C59_4 1_555 1_555
C60_4 C55_4 1_555 1_555
Zr15_2 O31_4 1_555 1_555
O29_4 Zr15_4 1_555 1_555
C54_4 C55_4 1_555 1_555
S12_4 C60_4 1_555 1_555
C59_4 C60_4 1_555 1_555
S2_3 C7_3 1_555 1_555
O6_3 C6_3 1_555 1_555
C6_3 O49 1_555 1_555
C7_3 C6_3 1_555 1_555
C8_3 C7_3 1_555 1_555
H4_3 C8_3 1_555 1_555
C9_3 C8_3 1_555 1_555
H5_3 C9_3 1_555 1_555
C10_3 S2_3 1_555 1_555
S4_3 C17_3 1_555 1_555
O49_4 C16_3 1_555 1_555
O10_3 C16_3 1_555 1_555
C16_3 C17_3 1_555 1_555
C17_3 C18_3 1_555 1_555
C18_3 H8_3 1_555 1_555
C19_3 C18_3 1_555 1_555
H9_3 C19_3 1_555 1_555
C20_3 C10_3 1_555 1_555
S11_5 C52_5 1_555 1_555
O29_5 C51_5 1_555 1_555
C51_5 O53 1_555 1_555
C52_5 C51_5 1_555 1_555
C53_5 C52_5 1_555 1_555
H23_5 C53_5 1_555 1_555
C54_5 C53_5 1_555 1_555
H24_5 C54_5 1_555 1_555
C55_5 S11_5 1_555 1_555
S12_5 C57_5 1_555 1_555
O31_5 C56_5 1_555 1_555
O53_2 C56_5 1_555 1_555
C56_5 C57_5 1_555 1_555
C57_5 C58_5 1_555 1_555
C58_5 H25_5 1_555 1_555
C59_5 C58_5 1_555 1_555
H26_5 C59_5 1_555 1_555
C60_5 C55_5 1_555 1_555
Zr16 O31_5 1_555 1_555
O6_3 Zr15 1_555 1_555
C9_3 C10_3 1_555 1_555
S4_3 C20_3 1_555 1_555
C19_3 C20_3 1_555 1_555
O29_5 Zr17 1_555 1_555
C54_5 C55_5 1_555 1_555
S12_5 C60_5 1_555 1_555
C59_5 C60_5 1_555 1_555
S5_3 C22_3 1_555 1_555
O14_3 C21_3 1_555 1_555
C21_3 O49_2 1_555 1_555
C22_3 C21_3 1_555 1_555
C23_3 C22_3 1_555 1_555
H11_3 C23_3 1_555 1_555
C24_3 C23_3 1_555 1_555
H12_3 C24_3 1_555 1_555
C25_3 S5_3 1_555 1_555
S6_3 C27_3 1_555 1_555
O49_3 C26_3 1_555 1_555
O16_3 C26_3 1_555 1_555
C26_3 C27_3 1_555 1_555
C27_3 C28_3 1_555 1_555
C28_3 H13_3 1_555 1_555
C29_3 C28_3 1_555 1_555
H14_3 C29_3 1_555 1_555
C30_3 C25_3 1_555 1_555
Zr15_3 O16_3 1_555 1_555
C24_3 C25_3 1_555 1_555
S6_3 C30_3 1_555 1_555
C29_3 C30_3 1_555 1_555
S11_6 C52_6 1_555 1_555
O29_6 C51_6 1_555 1_555
C51_6 O53_3 1_555 1_555
C52_6 C51_6 1_555 1_555
C53_6 C52_6 1_555 1_555
H23_6 C53_6 1_555 1_555
C54_6 C53_6 1_555 1_555
H24_6 C54_6 1_555 1_555
C55_6 S11_6 1_555 1_555
S12_6 C57_6 1_555 1_555
O31_6 C56_6 1_555 1_555
O53_4 C56_6 1_555 1_555
C56_6 C57_6 1_555 1_555
C57_6 C58_6 1_555 1_555
C58_6 H25_6 1_555 1_555
C59_6 C58_6 1_555 1_555
H26_6 C59_6 1_555 1_555
C60_6 C55_6 1_555 1_555
Zr18 O31_6 1_555 1_555
O29_6 Zr19 1_555 1_555
C54_6 C55_6 1_555 1_555
S12_6 C60_6 1_555 1_555
C59_6 C60_6 1_555 1_555
O45_3 Zr15_3 1_555 1_555
O43_2 Zr16 1_555 1_555
Zr22 O27_2 1_555 1_555
O25_2 Zr21 1_555 1_555
Zr15 O1_2 1_555 1_555
O1_2 H1_3 1_555 1_555
S1_3 C2_3 1_555 1_555
O3_3 Zr15 1_555 1_555
O4_2 C1_3 1_555 1_555
C1_3 O3_3 1_555 1_555
C2_3 C1_3 1_555 1_555
C3_3 C2_3 1_555 1_555
H2_3 C3_3 1_555 1_555
C4_3 C3_3 1_555 1_555
H3_3 C4_3 1_555 1_555
C5_3 S1_3 1_555 1_555
S3_3 C12_3 1_555 1_555
O7_3 C11_3 1_555 1_555
O8_3 C11_3 1_555 1_555
C11_3 C12_3 1_555 1_555
C12_3 C13_3 1_555 1_555
C13_3 H6_3 1_555 1_555
C14_3 C13_3 1_555 1_555
H7_3 C14_3 1_555 1_555
C15_3 C5_3 1_555 1_555
H10_3 O11_3 1_555 1_555
Zr17 O1_2 1_555 1_555
S7_3 C32_3 1_555 1_555
O18_2 Zr17 1_555 1_555
O19_2 C31_3 1_555 1_555
C31_3 O18_2 1_555 1_555
C32_3 C31_3 1_555 1_555
C33_3 C32_3 1_555 1_555
H15_3 C33_3 1_555 1_555
C34_3 C33_3 1_555 1_555
H16_3 C34_3 1_555 1_555
C35_3 S7_3 1_555 1_555
S8_3 C37_3 1_555 1_555
O20_2 C36_3 1_555 1_555
O21_2 C36_3 1_555 1_555
C36_3 C37_3 1_555 1_555
C37_3 C38_3 1_555 1_555
C38_3 H17_3 1_555 1_555
C39_3 C38_3 1_555 1_555
H18_3 C39_3 1_555 1_555
C40_3 C35_3 1_555 1_555
Zr19 O8_3 1_555 1_555
O24_2 Zr19 1_555 1_555
C41_3 O24_2 1_555 1_555
C42_3 C41_3 1_555 1_555
C43_3 C42_3 1_555 1_555
H19_3 C43_3 1_555 1_555
C44_3 C43_3 1_555 1_555
H20_3 C44_3 1_555 1_555
O26_2 C46_3 1_555 1_555
C46_3 C47_3 1_555 1_555
C47_3 C48_3 1_555 1_555
C48_3 H21_3 1_555 1_555
C49_3 C48_3 1_555 1_555
H22_3 C49_3 1_555 1_555
C50_3 C45_3 1_555 1_555
Zr20 O1_2 1_555 1_555
Zr23 O21_2 1_555 1_555
O42_5 Zr20 1_555 1_555
O44_3 Zr15 1_555 1_555
O4_2 Zr17 1_555 1_555
C4_3 C5_3 1_555 1_555
S3_3 C15_3 1_555 1_555
C14_3 C15_3 1_555 1_555
O11_3 Zr19 1_555 1_555
O19_2 Zr20 1_555 1_555
C34_3 C35_3 1_555 1_555
S8_3 C40_3 1_555 1_555
C39_3 C40_3 1_555 1_555
C44_3 C45_3 1_555 1_555
C49_3 C50_3 1_555 1_555
Zr23 O33_2 1_555 1_555
O44_4 Zr15_2 1_555 1_555
Zr18 O8_4 1_555 1_555
O33_2 H1_4 1_555 1_555
C1_4 O3_4 1_555 1_555
C2_4 C1_4 1_555 1_555
C3_4 C2_4 1_555 1_555
H2_4 C3_4 1_555 1_555
C4_4 C3_4 1_555 1_555
H3_4 C4_4 1_555 1_555
O7_4 C11_4 1_555 1_555
C11_4 C12_4 1_555 1_555
C12_4 C13_4 1_555 1_555
C13_4 H6_4 1_555 1_555
C14_4 C13_4 1_555 1_555
H7_4 C14_4 1_555 1_555
C15_4 C5_4 1_555 1_555
Zr15_4 O7_4 1_555 1_555
O11_4 Zr15_4 1_555 1_555
H10_4 O11_4 1_555 1_555
O42_6 Zr23 1_555 1_555
O45_4 Zr15_4 1_555 1_555
C4_4 C5_4 1_555 1_555
C14_4 C15_4 1_555 1_555
S7_4 C32_4 1_555 1_555
O44_3 C31_4 1_555 1_555
C31_4 O42_5 1_555 1_555
C32_4 C31_4 1_555 1_555
C33_4 C32_4 1_555 1_555
H15_4 C33_4 1_555 1_555
C34_4 C33_4 1_555 1_555
H16_4 C34_4 1_555 1_555
C35_4 S7_4 1_555 1_555
S8_4 C37_4 1_555 1_555
O42_8 C36_4 1_555 1_555
O45_4 C36_4 1_555 1_555
C36_4 C37_4 1_555 1_555
C37_4 C38_4 1_555 1_555
C38_4 H17_4 1_555 1_555
C39_4 C38_4 1_555 1_555
H18_4 C39_4 1_555 1_555
C40_4 C35_4 1_555 1_555
C41_4 O42_6 1_555 1_555
C42_4 C41_4 1_555 1_555
C43_4 C42_4 1_555 1_555
H19_4 C43_4 1_555 1_555
C44_4 C43_4 1_555 1_555
H20_4 C44_4 1_555 1_555
O42_7 C46_4 1_555 1_555
C46_4 C47_4 1_555 1_555
C47_4 C48_4 1_555 1_555
C48_4 H21_4 1_555 1_555
C49_4 C48_4 1_555 1_555
H22_4 C49_4 1_555 1_555
C50_4 C45_4 1_555 1_555
C34_4 C35_4 1_555 1_555
S8_4 C40_4 1_555 1_555
C39_4 C40_4 1_555 1_555
C44_4 C45_4 1_555 1_555
C49_4 C50_4 1_555 1_555

#END
