
###############################################################################
#
# This file contains modified crystal structure data generated from the
# MOF subset of the Cambridge Structural Database (CSD) v543 
# hosted by the Cambridge Crystallographic Data Centre (CCDC).
#
# This work is licensed under the Creative Commons
# Attribution-NonCommercial-ShareAlike 4.0 International License.
# To view a copy of this license, visit
# http://creativecommons.org/licenses/by-nc-sa/4.0/
# or send a letter to
# Creative Commons, PO Box 1866, Mountain View, CA 94042, USA.
#
# CIF created using the CSD Python API on 29 September 2022
# The structure has been converted into the P1 space group
# The structure has a 3D framework
# The original CSD entry WUHHEN is in the cubic crystal system
# The framework has been calculated to contain at least 10.0% void space
# The void calculation uses a probe of radius 1.32A, grid spacing 0.4
# H atom positions have been added when not included in the experimental data
# Generated hydrogen atom positions removed from atoms on special positions
#
###############################################################################

data_WUHHEN
_chemical_formula_moiety         '(C168 H360 N48 O73 Zn30)n'
_symmetry_cell_setting           triclinic
_symmetry_space_group_name_H-M   'P 1'
_symmetry_Int_Tables_number      1
_space_group_name_Hall           'P 1'
loop_
_symmetry_equiv_pos_site_id
_symmetry_equiv_pos_as_xyz
1 x,y,z
_cell_length_a                   19.0203(12)
_cell_length_b                   19.0203(12)
_cell_length_c                   19.0203(12)
_cell_angle_alpha                90
_cell_angle_beta                 90
_cell_angle_gamma                90
_cell_volume                     6881.01
loop_
_atom_site_label
_atom_site_type_symbol
_atom_site_fract_x
_atom_site_fract_y
_atom_site_fract_z
Zn8 Zn 0.07743(10) 0.5000 0.5000
C7 C 0.0070(17) 0.5948(6) 0.4052(6)
O20 O 0.0593(6) 0.5762(5) 0.4238(5)
H105 H 0.0427539 0.670811 0.329189
C13 C 0.0070(17) 0.4052(6) 0.5948(6)
O26 O 0.0593(6) 0.4238(5) 0.5762(5)
H106 H 0.0427539 0.329189 0.670811
Zn7 Zn 0.5000 0.07743(10) 0.5000
C6 C 0.5948(6) 0.0070(17) 0.4052(6)
O19 O 0.5762(5) 0.0593(6) 0.4238(5)
H102 H 0.670811 0.0427539 0.329189
C9 C 0.4052(6) 0.0070(17) 0.5948(6)
O22 O 0.4238(5) 0.0593(6) 0.5762(5)
H108 H 0.329189 0.0427539 0.670811
Zn1 Zn 0.5000 0.5000 0.07743(10)
N1 N 0.7412(6) 0.7412(6) 0.0853(8)
N2 N 0.7440(7) 0.8292(5) 0.1708(5)
C2 C 0.6532(5) 0.6532(5) 0.0088(9)
C3 C 0.6272(6) 0.7175(6) 0.0442(6)
H1 H 0.5879 0.7360 0.0175
H2 H 0.6098 0.7048 0.0904
C4 C 0.6779(6) 0.7708(7) 0.0517(6)
H3 H 0.6591 0.8086 0.0804
H4 H 0.6899 0.7899 0.0060
C5 C 0.7744(6) 0.7744(6) 0.1474(8)
O1 O 0.5684(6) 0.5684(6) 0.0576(8)
O3 O 0.5000 0.5000 0.1861(8)
Zn2 Zn 0.5000 0.92257(10) 0.5000
Zn3 Zn 0.92257(10) 0.5000 0.5000
N3 N 0.7412(6) 0.9147(8) 0.2588(6)
N4 N 0.9147(8) 0.7412(6) 0.2588(6)
N11 N 0.2588(6) 0.2588(6) 0.0853(8)
N12 N 0.2588(6) 0.0853(8) 0.2588(6)
N13 N 0.0853(8) 0.2588(6) 0.2588(6)
N14 N 0.8292(5) 0.8292(5) 0.2560(7)
N15 N 0.8292(5) 0.7440(7) 0.1708(5)
N22 N 0.2560(7) 0.1708(5) 0.1708(5)
N23 N 0.1708(5) 0.1708(5) 0.2560(7)
N24 N 0.1708(5) 0.2560(7) 0.1708(5)
C8 C 0.4052(6) 0.5948(6) 0.0070(17)
C11 C 0.5948(6) 0.4052(6) 0.0070(17)
C17 C 0.6532(5) 0.9912(9) 0.3468(5)
C18 C 0.9912(9) 0.6532(5) 0.3468(5)
C25 C 0.3468(5) 0.3468(5) 0.0088(9)
C26 C 0.3468(5) 0.0088(9) 0.3468(5)
C27 C 0.0088(9) 0.3468(5) 0.3468(5)
C28 C 0.7175(6) 0.6272(6) 0.0442(6)
C29 C 0.7175(6) 0.9558(6) 0.3728(6)
C30 C 0.6272(6) 0.9558(6) 0.2825(6)
C31 C 0.9558(6) 0.6272(6) 0.2825(6)
C32 C 0.9558(6) 0.7175(6) 0.3728(6)
C45 C 0.3728(6) 0.2825(6) 0.0442(6)
C46 C 0.2825(6) 0.3728(6) 0.0442(6)
C47 C 0.2825(6) 0.0442(6) 0.3728(6)
C48 C 0.3728(6) 0.0442(6) 0.2825(6)
C49 C 0.0442(6) 0.3728(6) 0.2825(6)
C50 C 0.0442(6) 0.2825(6) 0.3728(6)
H5 H 0.5879 0.9825 0.2640
H6 H 0.7360 0.9825 0.4121
H7 H 0.9825 0.7360 0.4121
H8 H 0.9825 0.5879 0.2640
H9 H 0.7360 0.5879 0.0175
H22 H 0.4121 0.2640 0.0175
H23 H 0.4121 0.0175 0.2640
H24 H 0.2640 0.0175 0.4121
H25 H 0.0175 0.2640 0.4121
H26 H 0.0175 0.4121 0.2640
H27 H 0.2640 0.4121 0.0175
H28 H 0.6098 0.9096 0.2952
H29 H 0.7048 0.9096 0.3902
H30 H 0.9096 0.7048 0.3902
H31 H 0.9096 0.6098 0.2952
H32 H 0.7048 0.6098 0.0904
H45 H 0.3902 0.2952 0.0904
H46 H 0.3902 0.0904 0.2952
H47 H 0.2952 0.0904 0.3902
H48 H 0.0904 0.2952 0.3902
H49 H 0.0904 0.3902 0.2952
H50 H 0.2952 0.3902 0.0904
C51 C 0.7708(7) 0.6779(6) 0.0517(6)
C52 C 0.7708(7) 0.9483(6) 0.3221(6)
C53 C 0.6779(6) 0.9483(6) 0.2292(7)
C54 C 0.9483(6) 0.6779(6) 0.2292(7)
C55 C 0.9483(6) 0.7708(7) 0.3221(6)
C68 C 0.3221(6) 0.2292(7) 0.0517(6)
C69 C 0.2292(7) 0.3221(6) 0.0517(6)
C70 C 0.2292(7) 0.0517(6) 0.3221(6)
C71 C 0.3221(6) 0.0517(6) 0.2292(7)
C72 C 0.0517(6) 0.3221(6) 0.2292(7)
C73 C 0.0517(6) 0.2292(7) 0.3221(6)
H51 H 0.6591 0.9196 0.1914
H52 H 0.8086 0.9196 0.3409
H53 H 0.9196 0.8086 0.3409
H54 H 0.9196 0.6591 0.1914
H55 H 0.8086 0.6591 0.0804
H68 H 0.3409 0.1914 0.0804
H69 H 0.3409 0.0804 0.1914
H70 H 0.1914 0.0804 0.3409
H71 H 0.0804 0.1914 0.3409
H72 H 0.0804 0.3409 0.1914
H73 H 0.1914 0.3409 0.0804
H74 H 0.6899 0.9940 0.2101
H75 H 0.7899 0.9940 0.3101
H76 H 0.9940 0.7899 0.3101
H77 H 0.9940 0.6899 0.2101
H78 H 0.7899 0.6899 0.0060
H91 H 0.3101 0.2101 0.0060
H92 H 0.3101 0.0060 0.2101
H93 H 0.2101 0.0060 0.3101
H94 H 0.0060 0.2101 0.3101
H95 H 0.0060 0.3101 0.2101
H96 H 0.2101 0.3101 0.0060
C74 C 0.7744(6) 0.8526(8) 0.2256(6)
C75 C 0.8526(8) 0.7744(6) 0.2256(6)
C82 C 0.2256(6) 0.2256(6) 0.1474(8)
C83 C 0.2256(6) 0.1474(8) 0.2256(6)
C84 C 0.1474(8) 0.2256(6) 0.2256(6)
O4 O 0.5684(6) 0.9424(8) 0.4316(6)
O5 O 0.9424(8) 0.5684(6) 0.4316(6)
O12 O 0.4316(6) 0.4316(6) 0.0576(8)
O13 O 0.4316(6) 0.0576(8) 0.4316(6)
O14 O 0.0576(8) 0.4316(6) 0.4316(6)
O15 O 0.4316(6) 0.9424(8) 0.5684(6)
O16 O 0.9424(8) 0.4316(6) 0.5684(6)
O21 O 0.4238(5) 0.5762(5) 0.0593(6)
O24 O 0.5762(5) 0.4238(5) 0.0593(6)
O30 O 0.5762(5) 0.9407(6) 0.5762(5)
O31 O 0.4238(5) 0.9407(6) 0.4238(5)
O32 O 0.9407(6) 0.4238(5) 0.4238(5)
O33 O 0.9407(6) 0.5762(5) 0.5762(5)
O38 O 0.5000 0.8139(8) 0.5000
O39 O 0.8139(8) 0.5000 0.5000
H103 H 0.670811 0.329189 0.0427539
H107 H 0.329189 0.670811 0.0427539
C1 C 0.5948(6) 0.5948(6) 0.9930(17)
O2 O 0.5762(5) 0.5762(5) 0.9407(6)
Zn4 Zn 0.5000 0.5000 0.92257(10)
N5 N 0.2588(6) 0.7412(6) 0.9147(8)
N6 N 0.2588(6) 0.9147(8) 0.7412(6)
N7 N 0.0853(8) 0.7412(6) 0.7412(6)
N8 N 0.7412(6) 0.2588(6) 0.9147(8)
N9 N 0.7412(6) 0.0853(8) 0.7412(6)
N10 N 0.9147(8) 0.2588(6) 0.7412(6)
N16 N 0.2560(7) 0.8292(5) 0.8292(5)
N17 N 0.1708(5) 0.8292(5) 0.7440(7)
N18 N 0.1708(5) 0.7440(7) 0.8292(5)
N19 N 0.7440(7) 0.1708(5) 0.8292(5)
N20 N 0.8292(5) 0.1708(5) 0.7440(7)
N21 N 0.8292(5) 0.2560(7) 0.8292(5)
C14 C 0.4052(6) 0.4052(6) 0.9930(17)
C19 C 0.3468(5) 0.6532(5) 0.9912(9)
C20 C 0.3468(5) 0.9912(9) 0.6532(5)
C21 C 0.0088(9) 0.6532(5) 0.6532(5)
C22 C 0.6532(5) 0.3468(5) 0.9912(9)
C23 C 0.6532(5) 0.0088(9) 0.6532(5)
C24 C 0.9912(9) 0.3468(5) 0.6532(5)
C33 C 0.3728(6) 0.7175(6) 0.9558(6)
C34 C 0.2825(6) 0.6272(6) 0.9558(6)
C35 C 0.2825(6) 0.9558(6) 0.6272(6)
C36 C 0.3728(6) 0.9558(6) 0.7175(6)
C37 C 0.0442(6) 0.6272(6) 0.7175(6)
C38 C 0.0442(6) 0.7175(6) 0.6272(6)
C39 C 0.6272(6) 0.2825(6) 0.9558(6)
C40 C 0.7175(6) 0.3728(6) 0.9558(6)
C41 C 0.7175(6) 0.0442(6) 0.6272(6)
C42 C 0.6272(6) 0.0442(6) 0.7175(6)
C43 C 0.9558(6) 0.3728(6) 0.7175(6)
C44 C 0.9558(6) 0.2825(6) 0.6272(6)
H10 H 0.4121 0.7360 0.9825
H11 H 0.4121 0.9825 0.7360
H12 H 0.2640 0.9825 0.5879
H13 H 0.0175 0.7360 0.5879
H14 H 0.0175 0.5879 0.7360
H15 H 0.2640 0.5879 0.9825
H16 H 0.5879 0.2640 0.9825
H17 H 0.5879 0.0175 0.7360
H18 H 0.7360 0.0175 0.5879
H19 H 0.9825 0.2640 0.5879
H20 H 0.9825 0.4121 0.7360
H21 H 0.7360 0.4121 0.9825
H33 H 0.3902 0.7048 0.9096
H34 H 0.3902 0.9096 0.7048
H35 H 0.2952 0.9096 0.6098
H36 H 0.0904 0.7048 0.6098
H37 H 0.0904 0.6098 0.7048
H38 H 0.2952 0.6098 0.9096
H39 H 0.6098 0.2952 0.9096
H40 H 0.6098 0.0904 0.7048
H41 H 0.7048 0.0904 0.6098
H42 H 0.9096 0.2952 0.6098
H43 H 0.9096 0.3902 0.7048
H44 H 0.7048 0.3902 0.9096
C56 C 0.3221(6) 0.7708(7) 0.9483(6)
C57 C 0.2292(7) 0.6779(6) 0.9483(6)
C58 C 0.2292(7) 0.9483(6) 0.6779(6)
C59 C 0.3221(6) 0.9483(6) 0.7708(7)
C60 C 0.0517(6) 0.6779(6) 0.7708(7)
C61 C 0.0517(6) 0.7708(7) 0.6779(6)
C62 C 0.6779(6) 0.2292(7) 0.9483(6)
C63 C 0.7708(7) 0.3221(6) 0.9483(6)
C64 C 0.7708(7) 0.0517(6) 0.6779(6)
C65 C 0.6779(6) 0.0517(6) 0.7708(7)
C66 C 0.9483(6) 0.3221(6) 0.7708(7)
C67 C 0.9483(6) 0.2292(7) 0.6779(6)
H56 H 0.3409 0.8086 0.9196
H57 H 0.3409 0.9196 0.8086
H58 H 0.1914 0.9196 0.6591
H59 H 0.0804 0.8086 0.6591
H60 H 0.0804 0.6591 0.8086
H61 H 0.1914 0.6591 0.9196
H62 H 0.6591 0.1914 0.9196
H63 H 0.6591 0.0804 0.8086
H64 H 0.8086 0.0804 0.6591
H65 H 0.9196 0.1914 0.6591
H66 H 0.9196 0.3409 0.8086
H67 H 0.8086 0.3409 0.9196
H79 H 0.3101 0.7899 0.9940
H80 H 0.3101 0.9940 0.7899
H81 H 0.2101 0.9940 0.6899
H82 H 0.0060 0.7899 0.6899
H83 H 0.0060 0.6899 0.7899
H84 H 0.2101 0.6899 0.9940
H85 H 0.6899 0.2101 0.9940
H86 H 0.6899 0.0060 0.7899
H87 H 0.7899 0.0060 0.6899
H88 H 0.9940 0.2101 0.6899
H89 H 0.9940 0.3101 0.7899
H90 H 0.7899 0.3101 0.9940
C76 C 0.2256(6) 0.7744(6) 0.8526(8)
C77 C 0.2256(6) 0.8526(8) 0.7744(6)
C78 C 0.1474(8) 0.7744(6) 0.7744(6)
C79 C 0.7744(6) 0.2256(6) 0.8526(8)
C80 C 0.7744(6) 0.1474(8) 0.7744(6)
C81 C 0.8526(8) 0.2256(6) 0.7744(6)
O6 O 0.4316(6) 0.5684(6) 0.9424(8)
O8 O 0.0576(8) 0.5684(6) 0.5684(6)
O9 O 0.5684(6) 0.4316(6) 0.9424(8)
O10 O 0.5684(6) 0.0576(8) 0.5684(6)
O27 O 0.4238(5) 0.4238(5) 0.9407(6)
O40 O 0.5000 0.5000 0.8139(8)
O42 O 0.1861(8) 0.5000 0.5000
H97 H 0.670811 0.670811 0.957246
H101 H 0.329189 0.329189 0.957246
C15 C 0.4052(6) 0.9930(17) 0.4052(6)
H110 H 0.329189 0.957246 0.329189
C12 C 0.5948(6) 0.9930(17) 0.5948(6)
H104 H 0.670811 0.957246 0.670811
C16 C 0.9930(17) 0.4052(6) 0.4052(6)
H109 H 0.957246 0.329189 0.329189
C10 C 0.9930(17) 0.5948(6) 0.5948(6)
H100 H 0.957246 0.670811 0.670811
O38_2 O 0.5000 0.1861(8) 0.5000
Zn2_2 Zn -0.0000 0.42257(10) -0.0000
Zn3_2 Zn 0.42257(10) -0.0000 -0.0000
Zn7_2 Zn -0.0000 0.57743(10) -0.0000
Zn8_2 Zn 0.57743(10) -0.0000 -0.0000
O30_2 O 0.0762(5) 0.4407(6) 0.0762(5)
O33_2 O 0.4407(6) 0.0762(5) 0.0762(5)
O38_3 O 0.0000 0.3139(8) -0.0000
O39_2 O 0.3139(8) -0.0000 -0.0000
Zn1_2 Zn -0.0000 -0.0000 0.57743(10)
N1_2 N 0.2412(6) 0.2412(6) 0.5853(8)
N2_2 N 0.2440(7) 0.3292(5) 0.6708(5)
C1_2 C 0.0948(6) 0.0948(6) 0.4930(17)
C2_2 C 0.1532(5) 0.1532(5) 0.5088(9)
C3_2 C 0.1272(6) 0.2175(6) 0.5442(6)
H1_2 H 0.0879 0.2360 0.5175
H2_2 H 0.1098 0.2048 0.5904
C4_2 C 0.1779(6) 0.2708(7) 0.5517(6)
H3_2 H 0.1591 0.3086 0.5804
H4_2 H 0.1899 0.2899 0.5060
C5_2 C 0.2744(6) 0.2744(6) 0.6474(8)
O1_2 O 0.0684(6) 0.0684(6) 0.5576(8)
O2_2 O 0.0762(5) 0.0762(5) 0.4407(6)
O3_2 O -0.0000 -0.0000 0.6861(8)
Zn2_3 Zn -0.0000 0.42257(10) 1.0000
Zn3_3 Zn 0.42257(10) -0.0000 1.0000
Zn4_2 Zn -0.0000 -0.0000 0.42257(10)
Zn7_3 Zn -0.0000 0.57743(10) 1.0000
Zn8_3 Zn 0.57743(10) -0.0000 1.0000
N3_2 N 0.2412(6) 0.4147(8) 0.7588(6)
N4_2 N 0.4147(8) 0.2412(6) 0.7588(6)
N14_2 N 0.3292(5) 0.3292(5) 0.7560(7)
N15_2 N 0.3292(5) 0.2440(7) 0.6708(5)
C6_2 C 0.0948(6) 0.5070(17) 0.9052(6)
C7_2 C 0.5070(17) 0.0948(6) 0.9052(6)
C17_2 C 0.1532(5) 0.4912(9) 0.8468(5)
C18_2 C 0.4912(9) 0.1532(5) 0.8468(5)
C28_2 C 0.2175(6) 0.1272(6) 0.5442(6)
C29_2 C 0.2175(6) 0.4558(6) 0.8728(6)
C30_2 C 0.1272(6) 0.4558(6) 0.7825(6)
C31_2 C 0.4558(6) 0.1272(6) 0.7825(6)
C32_2 C 0.4558(6) 0.2175(6) 0.8728(6)
H5_2 H 0.0879 0.4825 0.7640
H6_2 H 0.2360 0.4825 0.9121
H7_2 H 0.4825 0.2360 0.9121
H8_2 H 0.4825 0.0879 0.7640
H9_2 H 0.2360 0.0879 0.5175
H28_2 H 0.1098 0.4096 0.7952
H29_2 H 0.2048 0.4096 0.8902
H30_2 H 0.4096 0.2048 0.8902
H31_2 H 0.4096 0.1098 0.7952
H32_2 H 0.2048 0.1098 0.5904
C51_2 C 0.2708(7) 0.1779(6) 0.5517(6)
C52_2 C 0.2708(7) 0.4483(6) 0.8221(6)
C53_2 C 0.1779(6) 0.4483(6) 0.7292(7)
C54_2 C 0.4483(6) 0.1779(6) 0.7292(7)
C55_2 C 0.4483(6) 0.2708(7) 0.8221(6)
H51_2 H 0.1591 0.4196 0.6914
H52_2 H 0.3086 0.4196 0.8409
H53_2 H 0.4196 0.3086 0.8409
H54_2 H 0.4196 0.1591 0.6914
H55_2 H 0.3086 0.1591 0.5804
H74_2 H 0.1899 0.4940 0.7101
H75_2 H 0.2899 0.4940 0.8101
H76_2 H 0.4940 0.2899 0.8101
H77_2 H 0.4940 0.1899 0.7101
H78_2 H 0.2899 0.1899 0.5060
C74_2 C 0.2744(6) 0.3526(8) 0.7256(6)
C75_2 C 0.3526(8) 0.2744(6) 0.7256(6)
O4_2 O 0.0684(6) 0.4424(8) 0.9316(6)
O5_2 O 0.4424(8) 0.0684(6) 0.9316(6)
O19_2 O 0.0762(5) 0.5593(6) 0.9238(5)
O20_2 O 0.5593(6) 0.0762(5) 0.9238(5)
O38_4 O 0.0000 0.3139(8) 1.0000
O39_3 O 0.3139(8) -0.0000 1.0000
O40_2 O -0.0000 -0.0000 0.3139(8)
H97_2 H 0.170811 0.170811 0.457246
H102_2 H 0.170811 0.542754 0.829189
H105_2 H 0.542754 0.170811 0.829189
Zn3_4 Zn 0.42257(10) 1.0000 -0.0000
Zn8_4 Zn 0.57743(10) 1.0000 -0.0000
O16_2 O 0.4424(8) 0.9316(6) 0.0684(6)
O39_4 O 0.3139(8) 1.0000 -0.0000
Zn1_3 Zn -0.0000 1.0000 0.57743(10)
O3_3 O -0.0000 1.0000 0.6861(8)
Zn3_5 Zn 0.42257(10) 1.0000 1.0000
Zn4_3 Zn -0.0000 1.0000 0.42257(10)
Zn8_5 Zn 0.57743(10) 1.0000 1.0000
N8_2 N 0.2412(6) 0.7588(6) 0.4147(8)
N9_2 N 0.2412(6) 0.5853(8) 0.2412(6)
N10_2 N 0.4147(8) 0.7588(6) 0.2412(6)
N19_2 N 0.2440(7) 0.6708(5) 0.3292(5)
N20_2 N 0.3292(5) 0.6708(5) 0.2440(7)
N21_2 N 0.3292(5) 0.7560(7) 0.3292(5)
C11_2 C 0.0948(6) 0.9052(6) 0.5070(17)
C12_2 C 0.0948(6) 0.4930(17) 0.0948(6)
C13_2 C 0.5070(17) 0.9052(6) 0.0948(6)
C22_2 C 0.1532(5) 0.8468(5) 0.4912(9)
C23_2 C 0.1532(5) 0.5088(9) 0.1532(5)
C24_2 C 0.4912(9) 0.8468(5) 0.1532(5)
C39_2 C 0.1272(6) 0.7825(6) 0.4558(6)
C40_2 C 0.2175(6) 0.8728(6) 0.4558(6)
C41_2 C 0.2175(6) 0.5442(6) 0.1272(6)
C42_2 C 0.1272(6) 0.5442(6) 0.2175(6)
C43_2 C 0.4558(6) 0.8728(6) 0.2175(6)
C44_2 C 0.4558(6) 0.7825(6) 0.1272(6)
H16_2 H 0.0879 0.7640 0.4825
H17_2 H 0.0879 0.5175 0.2360
H18_2 H 0.2360 0.5175 0.0879
H19_2 H 0.4825 0.7640 0.0879
H20_2 H 0.4825 0.9121 0.2360
H21_2 H 0.2360 0.9121 0.4825
H39_2 H 0.1098 0.7952 0.4096
H40_2 H 0.1098 0.5904 0.2048
H41_2 H 0.2048 0.5904 0.1098
H42_2 H 0.4096 0.7952 0.1098
H43_2 H 0.4096 0.8902 0.2048
H44_2 H 0.2048 0.8902 0.4096
C62_2 C 0.1779(6) 0.7292(7) 0.4483(6)
C63_2 C 0.2708(7) 0.8221(6) 0.4483(6)
C64_2 C 0.2708(7) 0.5517(6) 0.1779(6)
C65_2 C 0.1779(6) 0.5517(6) 0.2708(7)
C66_2 C 0.4483(6) 0.8221(6) 0.2708(7)
C67_2 C 0.4483(6) 0.7292(7) 0.1779(6)
H62_2 H 0.1591 0.6914 0.4196
H63_2 H 0.1591 0.5804 0.3086
H64_2 H 0.3086 0.5804 0.1591
H65_2 H 0.4196 0.6914 0.1591
H66_2 H 0.4196 0.8409 0.3086
H67_2 H 0.3086 0.8409 0.4196
H85_2 H 0.1899 0.7101 0.4940
H86_2 H 0.1899 0.5060 0.2899
H87_2 H 0.2899 0.5060 0.1899
H88_2 H 0.4940 0.7101 0.1899
H89_2 H 0.4940 0.8101 0.2899
H90_2 H 0.2899 0.8101 0.4940
C79_2 C 0.2744(6) 0.7256(6) 0.3526(8)
C80_2 C 0.2744(6) 0.6474(8) 0.2744(6)
C81_2 C 0.3526(8) 0.7256(6) 0.2744(6)
O9_2 O 0.0684(6) 0.9316(6) 0.4424(8)
O10_2 O 0.0684(6) 0.5576(8) 0.0684(6)
O24_2 O 0.0762(5) 0.9238(5) 0.5593(6)
O26_2 O 0.5593(6) 0.9238(5) 0.0762(5)
O32_2 O 0.4407(6) 0.9238(5) 0.9238(5)
O39_5 O 0.3139(8) 1.0000 1.0000
O40_3 O -0.0000 1.0000 0.3139(8)
H103_2 H 0.170811 0.829189 0.542754
H104_2 H 0.170811 0.457246 0.170811
H106_2 H 0.542754 0.829189 0.170811
Zn2_4 Zn 1.0000 0.42257(10) -0.0000
Zn7_4 Zn 1.0000 0.57743(10) -0.0000
O15_2 O 0.9316(6) 0.4424(8) 0.0684(6)
O38_5 O 1.0000 0.3139(8) -0.0000
Zn1_4 Zn 1.0000 -0.0000 0.57743(10)
O3_4 O 1.0000 -0.0000 0.6861(8)
Zn2_5 Zn 1.0000 0.42257(10) 1.0000
Zn4_4 Zn 1.0000 -0.0000 0.42257(10)
Zn7_5 Zn 1.0000 0.57743(10) 1.0000
N5_2 N 0.7588(6) 0.2412(6) 0.4147(8)
N6_2 N 0.7588(6) 0.4147(8) 0.2412(6)
N7_2 N 0.5853(8) 0.2412(6) 0.2412(6)
N16_2 N 0.7560(7) 0.3292(5) 0.3292(5)
N17_2 N 0.6708(5) 0.3292(5) 0.2440(7)
N18_2 N 0.6708(5) 0.2440(7) 0.3292(5)
C8_2 C 0.9052(6) 0.0948(6) 0.5070(17)
C9_2 C 0.9052(6) 0.5070(17) 0.0948(6)
C10_2 C 0.4930(17) 0.0948(6) 0.0948(6)
C19_2 C 0.8468(5) 0.1532(5) 0.4912(9)
C20_2 C 0.8468(5) 0.4912(9) 0.1532(5)
C21_2 C 0.5088(9) 0.1532(5) 0.1532(5)
C33_2 C 0.8728(6) 0.2175(6) 0.4558(6)
C34_2 C 0.7825(6) 0.1272(6) 0.4558(6)
C35_2 C 0.7825(6) 0.4558(6) 0.1272(6)
C36_2 C 0.8728(6) 0.4558(6) 0.2175(6)
C37_2 C 0.5442(6) 0.1272(6) 0.2175(6)
C38_2 C 0.5442(6) 0.2175(6) 0.1272(6)
H10_2 H 0.9121 0.2360 0.4825
H11_2 H 0.9121 0.4825 0.2360
H12_2 H 0.7640 0.4825 0.0879
H13_2 H 0.5175 0.2360 0.0879
H14_2 H 0.5175 0.0879 0.2360
H15_2 H 0.7640 0.0879 0.4825
H33_2 H 0.8902 0.2048 0.4096
H34_2 H 0.8902 0.4096 0.2048
H35_2 H 0.7952 0.4096 0.1098
H36_2 H 0.5904 0.2048 0.1098
H37_2 H 0.5904 0.1098 0.2048
H38_2 H 0.7952 0.1098 0.4096
C56_2 C 0.8221(6) 0.2708(7) 0.4483(6)
C57_2 C 0.7292(7) 0.1779(6) 0.4483(6)
C58_2 C 0.7292(7) 0.4483(6) 0.1779(6)
C59_2 C 0.8221(6) 0.4483(6) 0.2708(7)
C60_2 C 0.5517(6) 0.1779(6) 0.2708(7)
C61_2 C 0.5517(6) 0.2708(7) 0.1779(6)
H56_2 H 0.8409 0.3086 0.4196
H57_2 H 0.8409 0.4196 0.3086
H58_2 H 0.6914 0.4196 0.1591
H59_2 H 0.5804 0.3086 0.1591
H60_2 H 0.5804 0.1591 0.3086
H61_2 H 0.6914 0.1591 0.4196
H79_2 H 0.8101 0.2899 0.4940
H80_2 H 0.8101 0.4940 0.2899
H81_2 H 0.7101 0.4940 0.1899
H82_2 H 0.5060 0.2899 0.1899
H83_2 H 0.5060 0.1899 0.2899
H84_2 H 0.7101 0.1899 0.4940
C76_2 C 0.7256(6) 0.2744(6) 0.3526(8)
C77_2 C 0.7256(6) 0.3526(8) 0.2744(6)
C78_2 C 0.6474(8) 0.2744(6) 0.2744(6)
O6_2 O 0.9316(6) 0.0684(6) 0.4424(8)
O8_2 O 0.5576(8) 0.0684(6) 0.0684(6)
O21_2 O 0.9238(5) 0.0762(5) 0.5593(6)
O22_2 O 0.9238(5) 0.5593(6) 0.0762(5)
O31_2 O 0.9238(5) 0.4407(6) 0.9238(5)
O38_6 O 1.0000 0.3139(8) 1.0000
O40_4 O 1.0000 -0.0000 0.3139(8)
O42_2 O 0.6861(8) -0.0000 0.0000
H100_2 H 0.457246 0.170811 0.170811
H107_2 H 0.829189 0.170811 0.542754
H108_2 H 0.829189 0.542754 0.170811
O42_3 O 0.6861(8) -0.0000 1.0000
Zn1_5 Zn 1.0000 1.0000 0.57743(10)
O3_5 O 1.0000 1.0000 0.6861(8)
Zn4_5 Zn 1.0000 1.0000 0.42257(10)
N11_2 N 0.7588(6) 0.7588(6) 0.5853(8)
N12_2 N 0.7588(6) 0.5853(8) 0.7588(6)
N13_2 N 0.5853(8) 0.7588(6) 0.7588(6)
N22_2 N 0.7560(7) 0.6708(5) 0.6708(5)
N23_2 N 0.6708(5) 0.6708(5) 0.7560(7)
N24_2 N 0.6708(5) 0.7560(7) 0.6708(5)
C14_2 C 0.9052(6) 0.9052(6) 0.4930(17)
C15_2 C 0.9052(6) 0.4930(17) 0.9052(6)
C16_2 C 0.4930(17) 0.9052(6) 0.9052(6)
C25_2 C 0.8468(5) 0.8468(5) 0.5088(9)
C26_2 C 0.8468(5) 0.5088(9) 0.8468(5)
C27_2 C 0.5088(9) 0.8468(5) 0.8468(5)
C45_2 C 0.8728(6) 0.7825(6) 0.5442(6)
C46_2 C 0.7825(6) 0.8728(6) 0.5442(6)
C47_2 C 0.7825(6) 0.5442(6) 0.8728(6)
C48_2 C 0.8728(6) 0.5442(6) 0.7825(6)
C49_2 C 0.5442(6) 0.8728(6) 0.7825(6)
C50_2 C 0.5442(6) 0.7825(6) 0.8728(6)
H22_2 H 0.9121 0.7640 0.5175
H23_2 H 0.9121 0.5175 0.7640
H24_2 H 0.7640 0.5175 0.9121
H25_2 H 0.5175 0.7640 0.9121
H26_2 H 0.5175 0.9121 0.7640
H27_2 H 0.7640 0.9121 0.5175
H45_2 H 0.8902 0.7952 0.5904
H46_2 H 0.8902 0.5904 0.7952
H47_2 H 0.7952 0.5904 0.8902
H48_2 H 0.5904 0.7952 0.8902
H49_2 H 0.5904 0.8902 0.7952
H50_2 H 0.7952 0.8902 0.5904
C68_2 C 0.8221(6) 0.7292(7) 0.5517(6)
C69_2 C 0.7292(7) 0.8221(6) 0.5517(6)
C70_2 C 0.7292(7) 0.5517(6) 0.8221(6)
C71_2 C 0.8221(6) 0.5517(6) 0.7292(7)
C72_2 C 0.5517(6) 0.8221(6) 0.7292(7)
C73_2 C 0.5517(6) 0.7292(7) 0.8221(6)
H68_2 H 0.8409 0.6914 0.5804
H69_2 H 0.8409 0.5804 0.6914
H70_2 H 0.6914 0.5804 0.8409
H71_2 H 0.5804 0.6914 0.8409
H72_2 H 0.5804 0.8409 0.6914
H73_2 H 0.6914 0.8409 0.5804
H91_2 H 0.8101 0.7101 0.5060
H92_2 H 0.8101 0.5060 0.7101
H93_2 H 0.7101 0.5060 0.8101
H94_2 H 0.5060 0.7101 0.8101
H95_2 H 0.5060 0.8101 0.7101
H96_2 H 0.7101 0.8101 0.5060
C82_2 C 0.7256(6) 0.7256(6) 0.6474(8)
C83_2 C 0.7256(6) 0.6474(8) 0.7256(6)
C84_2 C 0.6474(8) 0.7256(6) 0.7256(6)
O12_2 O 0.9316(6) 0.9316(6) 0.5576(8)
O13_2 O 0.9316(6) 0.5576(8) 0.9316(6)
O14_2 O 0.5576(8) 0.9316(6) 0.9316(6)
O27_2 O 0.9238(5) 0.9238(5) 0.4407(6)
O40_5 O 1.0000 1.0000 0.3139(8)
O42_4 O 0.6861(8) 1.0000 0.0000
H101_2 H 0.829189 0.829189 0.457246
H109_2 H 0.457246 0.829189 0.829189
H110_2 H 0.829189 0.457246 0.829189
O42_5 O 0.6861(8) 1.0000 1.0000
O38_7 O -0.0000 0.6861(8) -0.0000
O38_8 O -0.0000 0.6861(8) 1.0000
O38_9 O 1.0000 0.6861(8) -0.0000
O38_10 O 1.0000 0.6861(8) 1.0000
loop_
_geom_bond_atom_site_label_1
_geom_bond_atom_site_label_2
_geom_bond_site_symmetry_1
_geom_bond_site_symmetry_2
Zn8 O20 1_555 1_555
O20 C7 1_555 1_555
Zn8 O26 1_555 1_555
O26 C13 1_555 1_555
Zn7 O19 1_555 1_555
O19 C6 1_555 1_555
Zn7 O22 1_555 1_555
O22 C9 1_555 1_555
Zn1 O1 1_555 1_555
N1 C4 1_555 1_555
N2 C5 1_555 1_555
C2 C3 1_555 1_555
C3 H1 1_555 1_555
H2 C3 1_555 1_555
C4 C3 1_555 1_555
H3 C4 1_555 1_555
H4 C4 1_555 1_555
C5 N1 1_555 1_555
O3 Zn1 1_555 1_555
Zn2 O4 1_555 1_555
Zn3 O5 1_555 1_555
Zn7 O13 1_555 1_555
Zn8 O14 1_555 1_555
N3 C52 1_555 1_555
N4 C54 1_555 1_555
N11 C68 1_555 1_555
N12 C70 1_555 1_555
N13 C72 1_555 1_555
N14 C74 1_555 1_555
N15 C5 1_555 1_555
N22 C82 1_555 1_555
N23 C83 1_555 1_555
N24 C82 1_555 1_555
C17 C29 1_555 1_555
C18 C31 1_555 1_555
C25 C45 1_555 1_555
C26 C47 1_555 1_555
C27 C49 1_555 1_555
C28 C2 1_555 1_555
C29 H6 1_555 1_555
C30 C17 1_555 1_555
C31 H8 1_555 1_555
C32 C18 1_555 1_555
C45 H22 1_555 1_555
C46 C25 1_555 1_555
C47 H24 1_555 1_555
C48 C26 1_555 1_555
C49 H26 1_555 1_555
C50 C27 1_555 1_555
H5 C30 1_555 1_555
H7 C32 1_555 1_555
H9 C28 1_555 1_555
H23 C48 1_555 1_555
H25 C50 1_555 1_555
H27 C46 1_555 1_555
H28 C30 1_555 1_555
H29 C29 1_555 1_555
H30 C32 1_555 1_555
H31 C31 1_555 1_555
H32 C28 1_555 1_555
H45 C45 1_555 1_555
H46 C48 1_555 1_555
H47 C47 1_555 1_555
H48 C50 1_555 1_555
H49 C49 1_555 1_555
H50 C46 1_555 1_555
C51 N1 1_555 1_555
C52 C29 1_555 1_555
C53 N3 1_555 1_555
C54 C31 1_555 1_555
C55 N4 1_555 1_555
C68 C45 1_555 1_555
C69 N11 1_555 1_555
C70 C47 1_555 1_555
C71 N12 1_555 1_555
C72 C49 1_555 1_555
C73 N13 1_555 1_555
H51 C53 1_555 1_555
H52 C52 1_555 1_555
H53 C55 1_555 1_555
H54 C54 1_555 1_555
H55 C51 1_555 1_555
H68 C68 1_555 1_555
H69 C71 1_555 1_555
H70 C70 1_555 1_555
H71 C73 1_555 1_555
H72 C72 1_555 1_555
H73 C69 1_555 1_555
H74 C53 1_555 1_555
H75 C52 1_555 1_555
H76 C55 1_555 1_555
H77 C54 1_555 1_555
H78 C51 1_555 1_555
H91 C68 1_555 1_555
H92 C71 1_555 1_555
H93 C70 1_555 1_555
H94 C73 1_555 1_555
H95 C72 1_555 1_555
H96 C69 1_555 1_555
C74 N2 1_555 1_555
C75 N4 1_555 1_555
C82 N11 1_555 1_555
C83 N12 1_555 1_555
C84 N13 1_555 1_555
O12 Zn1 1_555 1_555
O15 Zn2 1_555 1_555
O16 Zn3 1_555 1_555
O21 Zn1 1_555 1_555
O24 Zn1 1_555 1_555
O30 Zn2 1_555 1_555
O31 Zn2 1_555 1_555
O32 Zn3 1_555 1_555
O33 Zn3 1_555 1_555
O38 Zn2 1_555 1_555
O39 Zn3 1_555 1_555
N3 C74 1_555 1_555
N14 C75 1_555 1_555
N15 C75 1_555 1_555
N22 C83 1_555 1_555
N23 C84 1_555 1_555
N24 C84 1_555 1_555
C8 O21 1_555 1_555
C11 O24 1_555 1_555
C28 C51 1_555 1_555
C30 C53 1_555 1_555
C32 C55 1_555 1_555
C46 C69 1_555 1_555
C48 C71 1_555 1_555
C50 C73 1_555 1_555
O2 C1 1_555 1_555
Zn4 O2 1_555 1_555
Zn8 O8 1_555 1_555
Zn7 O10 1_555 1_555
N5 C56 1_555 1_555
N6 C58 1_555 1_555
N7 C60 1_555 1_555
N8 C62 1_555 1_555
N9 C64 1_555 1_555
N10 C66 1_555 1_555
N16 C76 1_555 1_555
N17 C77 1_555 1_555
N18 C76 1_555 1_555
N19 C79 1_555 1_555
N20 C80 1_555 1_555
N21 C79 1_555 1_555
C19 C33 1_555 1_555
C20 C35 1_555 1_555
C21 C37 1_555 1_555
C22 C39 1_555 1_555
C23 C41 1_555 1_555
C24 C43 1_555 1_555
C33 H10 1_555 1_555
C34 C19 1_555 1_555
C35 H12 1_555 1_555
C36 C20 1_555 1_555
C37 H14 1_555 1_555
C38 C21 1_555 1_555
C39 H16 1_555 1_555
C40 C22 1_555 1_555
C41 H18 1_555 1_555
C42 C23 1_555 1_555
C43 H20 1_555 1_555
C44 C24 1_555 1_555
H11 C36 1_555 1_555
H13 C38 1_555 1_555
H15 C34 1_555 1_555
H17 C42 1_555 1_555
H19 C44 1_555 1_555
H21 C40 1_555 1_555
H33 C33 1_555 1_555
H34 C36 1_555 1_555
H35 C35 1_555 1_555
H36 C38 1_555 1_555
H37 C37 1_555 1_555
H38 C34 1_555 1_555
H39 C39 1_555 1_555
H40 C42 1_555 1_555
H41 C41 1_555 1_555
H42 C44 1_555 1_555
H43 C43 1_555 1_555
H44 C40 1_555 1_555
C56 C33 1_555 1_555
C57 N5 1_555 1_555
C58 C35 1_555 1_555
C59 N6 1_555 1_555
C60 C37 1_555 1_555
C61 N7 1_555 1_555
C62 C39 1_555 1_555
C63 N8 1_555 1_555
C64 C41 1_555 1_555
C65 N9 1_555 1_555
C66 C43 1_555 1_555
C67 N10 1_555 1_555
H56 C56 1_555 1_555
H57 C59 1_555 1_555
H58 C58 1_555 1_555
H59 C61 1_555 1_555
H60 C60 1_555 1_555
H61 C57 1_555 1_555
H62 C62 1_555 1_555
H63 C65 1_555 1_555
H64 C64 1_555 1_555
H65 C67 1_555 1_555
H66 C66 1_555 1_555
H67 C63 1_555 1_555
H79 C56 1_555 1_555
H80 C59 1_555 1_555
H81 C58 1_555 1_555
H82 C61 1_555 1_555
H83 C60 1_555 1_555
H84 C57 1_555 1_555
H85 C62 1_555 1_555
H86 C65 1_555 1_555
H87 C64 1_555 1_555
H88 C67 1_555 1_555
H89 C66 1_555 1_555
H90 C63 1_555 1_555
C76 N5 1_555 1_555
C77 N6 1_555 1_555
C78 N7 1_555 1_555
C79 N8 1_555 1_555
C80 N9 1_555 1_555
C81 N10 1_555 1_555
O6 Zn4 1_555 1_555
O9 Zn4 1_555 1_555
O27 Zn4 1_555 1_555
O40 Zn4 1_555 1_555
O42 Zn8 1_555 1_555
N16 C77 1_555 1_555
N17 C78 1_555 1_555
N18 C78 1_555 1_555
N19 C80 1_555 1_555
N20 C81 1_555 1_555
N21 C81 1_555 1_555
C14 O27 1_555 1_555
C34 C57 1_555 1_555
C36 C59 1_555 1_555
C38 C61 1_555 1_555
C40 C63 1_555 1_555
C42 C65 1_555 1_555
C44 C67 1_555 1_555
O31 C15 1_555 1_555
O30 C12 1_555 1_555
O32 C16 1_555 1_555
O33 C10 1_555 1_555
O38_2 Zn7 1_555 1_555
O30_2 Zn2_2 1_555 1_555
O33_2 Zn3_2 1_555 1_555
O38_3 Zn2_2 1_555 1_555
O39_2 Zn3_2 1_555 1_555
Zn1_2 O1_2 1_555 1_555
N1_2 C4_2 1_555 1_555
N2_2 C5_2 1_555 1_555
C1_2 C2_2 1_555 1_555
C2_2 C3_2 1_555 1_555
C3_2 H1_2 1_555 1_555
H2_2 C3_2 1_555 1_555
C4_2 C3_2 1_555 1_555
H3_2 C4_2 1_555 1_555
H4_2 C4_2 1_555 1_555
C5_2 N1_2 1_555 1_555
O1_2 C1_2 1_555 1_555
O2_2 C1_2 1_555 1_555
O3_2 Zn1_2 1_555 1_555
Zn2_3 O4_2 1_555 1_555
Zn3_3 O5_2 1_555 1_555
Zn4_2 O2_2 1_555 1_555
Zn7_3 O19_2 1_555 1_555
Zn8_3 O20_2 1_555 1_555
N3_2 C52_2 1_555 1_555
N4_2 C54_2 1_555 1_555
N14_2 C74_2 1_555 1_555
N15_2 C5_2 1_555 1_555
C6_2 C17_2 1_555 1_555
C7_2 C18_2 1_555 1_555
C17_2 C29_2 1_555 1_555
C18_2 C31_2 1_555 1_555
C28_2 C2_2 1_555 1_555
C29_2 H6_2 1_555 1_555
C30_2 C17_2 1_555 1_555
C31_2 H8_2 1_555 1_555
C32_2 C18_2 1_555 1_555
H5_2 C30_2 1_555 1_555
H7_2 C32_2 1_555 1_555
H9_2 C28_2 1_555 1_555
H28_2 C30_2 1_555 1_555
H29_2 C29_2 1_555 1_555
H30_2 C32_2 1_555 1_555
H31_2 C31_2 1_555 1_555
H32_2 C28_2 1_555 1_555
C51_2 N1_2 1_555 1_555
C52_2 C29_2 1_555 1_555
C53_2 N3_2 1_555 1_555
C54_2 C31_2 1_555 1_555
C55_2 N4_2 1_555 1_555
H51_2 C53_2 1_555 1_555
H52_2 C52_2 1_555 1_555
H53_2 C55_2 1_555 1_555
H54_2 C54_2 1_555 1_555
H55_2 C51_2 1_555 1_555
H74_2 C53_2 1_555 1_555
H75_2 C52_2 1_555 1_555
H76_2 C55_2 1_555 1_555
H77_2 C54_2 1_555 1_555
H78_2 C51_2 1_555 1_555
C74_2 N2_2 1_555 1_555
C75_2 N4_2 1_555 1_555
O4_2 C6_2 1_555 1_555
O5_2 C7_2 1_555 1_555
O19_2 C6_2 1_555 1_555
O20_2 C7_2 1_555 1_555
O38_4 Zn2_3 1_555 1_555
O39_3 Zn3_3 1_555 1_555
O40_2 Zn4_2 1_555 1_555
N3_2 C74_2 1_555 1_555
N14_2 C75_2 1_555 1_555
N15_2 C75_2 1_555 1_555
C28_2 C51_2 1_555 1_555
C30_2 C53_2 1_555 1_555
C32_2 C55_2 1_555 1_555
C2_2 H97_2 1_555 1_555
C17_2 H102_2 1_555 1_555
C18_2 H105_2 1_555 1_555
O16_2 Zn3_4 1_555 1_555
O39_4 Zn3_4 1_555 1_555
O3_3 Zn1_3 1_555 1_555
Zn7_2 O10_2 1_555 1_555
Zn8_4 O26_2 1_555 1_555
N8_2 C62_2 1_555 1_555
N9_2 C64_2 1_555 1_555
N10_2 C66_2 1_555 1_555
N19_2 C79_2 1_555 1_555
N20_2 C80_2 1_555 1_555
N21_2 C79_2 1_555 1_555
C11_2 C22_2 1_555 1_555
C12_2 C23_2 1_555 1_555
C13_2 C24_2 1_555 1_555
C22_2 C39_2 1_555 1_555
C23_2 C41_2 1_555 1_555
C24_2 C43_2 1_555 1_555
C39_2 H16_2 1_555 1_555
C40_2 C22_2 1_555 1_555
C41_2 H18_2 1_555 1_555
C42_2 C23_2 1_555 1_555
C43_2 H20_2 1_555 1_555
C44_2 C24_2 1_555 1_555
H17_2 C42_2 1_555 1_555
H19_2 C44_2 1_555 1_555
H21_2 C40_2 1_555 1_555
H39_2 C39_2 1_555 1_555
H40_2 C42_2 1_555 1_555
H41_2 C41_2 1_555 1_555
H42_2 C44_2 1_555 1_555
H43_2 C43_2 1_555 1_555
H44_2 C40_2 1_555 1_555
C62_2 C39_2 1_555 1_555
C63_2 N8_2 1_555 1_555
C64_2 C41_2 1_555 1_555
C65_2 N9_2 1_555 1_555
C66_2 C43_2 1_555 1_555
C67_2 N10_2 1_555 1_555
H62_2 C62_2 1_555 1_555
H63_2 C65_2 1_555 1_555
H64_2 C64_2 1_555 1_555
H65_2 C67_2 1_555 1_555
H66_2 C66_2 1_555 1_555
H67_2 C63_2 1_555 1_555
H85_2 C62_2 1_555 1_555
H86_2 C65_2 1_555 1_555
H87_2 C64_2 1_555 1_555
H88_2 C67_2 1_555 1_555
H89_2 C66_2 1_555 1_555
H90_2 C63_2 1_555 1_555
C79_2 N8_2 1_555 1_555
C80_2 N9_2 1_555 1_555
C81_2 N10_2 1_555 1_555
O9_2 Zn4_3 1_555 1_555
O10_2 C12_2 1_555 1_555
O16_2 C13_2 1_555 1_555
O24_2 Zn1_3 1_555 1_555
O30_2 C12_2 1_555 1_555
O26_2 C13_2 1_555 1_555
O32_2 Zn3_5 1_555 1_555
O39_5 Zn3_5 1_555 1_555
O40_3 Zn4_3 1_555 1_555
N19_2 C80_2 1_555 1_555
N20_2 C81_2 1_555 1_555
N21_2 C81_2 1_555 1_555
C11_2 O9_2 1_555 1_555
C11_2 O24_2 1_555 1_555
C40_2 C63_2 1_555 1_555
C42_2 C65_2 1_555 1_555
C44_2 C67_2 1_555 1_555
C22_2 H103_2 1_555 1_555
C23_2 H104_2 1_555 1_555
C24_2 H106_2 1_555 1_555
O15_2 Zn2_4 1_555 1_555
O38_5 Zn2_4 1_555 1_555
O3_4 Zn1_4 1_555 1_555
Zn8_2 O8_2 1_555 1_555
Zn7_4 O22_2 1_555 1_555
N5_2 C56_2 1_555 1_555
N6_2 C58_2 1_555 1_555
N7_2 C60_2 1_555 1_555
N16_2 C76_2 1_555 1_555
N17_2 C77_2 1_555 1_555
N18_2 C76_2 1_555 1_555
C8_2 C19_2 1_555 1_555
C9_2 C20_2 1_555 1_555
C10_2 C21_2 1_555 1_555
C19_2 C33_2 1_555 1_555
C20_2 C35_2 1_555 1_555
C21_2 C37_2 1_555 1_555
C33_2 H10_2 1_555 1_555
C34_2 C19_2 1_555 1_555
C35_2 H12_2 1_555 1_555
C36_2 C20_2 1_555 1_555
C37_2 H14_2 1_555 1_555
C38_2 C21_2 1_555 1_555
H11_2 C36_2 1_555 1_555
H13_2 C38_2 1_555 1_555
H15_2 C34_2 1_555 1_555
H33_2 C33_2 1_555 1_555
H34_2 C36_2 1_555 1_555
H35_2 C35_2 1_555 1_555
H36_2 C38_2 1_555 1_555
H37_2 C37_2 1_555 1_555
H38_2 C34_2 1_555 1_555
C56_2 C33_2 1_555 1_555
C57_2 N5_2 1_555 1_555
C58_2 C35_2 1_555 1_555
C59_2 N6_2 1_555 1_555
C60_2 C37_2 1_555 1_555
C61_2 N7_2 1_555 1_555
H56_2 C56_2 1_555 1_555
H57_2 C59_2 1_555 1_555
H58_2 C58_2 1_555 1_555
H59_2 C61_2 1_555 1_555
H60_2 C60_2 1_555 1_555
H61_2 C57_2 1_555 1_555
H79_2 C56_2 1_555 1_555
H80_2 C59_2 1_555 1_555
H81_2 C58_2 1_555 1_555
H82_2 C61_2 1_555 1_555
H83_2 C60_2 1_555 1_555
H84_2 C57_2 1_555 1_555
C76_2 N5_2 1_555 1_555
C77_2 N6_2 1_555 1_555
C78_2 N7_2 1_555 1_555
O6_2 Zn4_4 1_555 1_555
O15_2 C9_2 1_555 1_555
O8_2 C10_2 1_555 1_555
O21_2 Zn1_4 1_555 1_555
O22_2 C9_2 1_555 1_555
O33_2 C10_2 1_555 1_555
O31_2 Zn2_5 1_555 1_555
O38_6 Zn2_5 1_555 1_555
O40_4 Zn4_4 1_555 1_555
O42_2 Zn8_2 1_555 1_555
N16_2 C77_2 1_555 1_555
N17_2 C78_2 1_555 1_555
N18_2 C78_2 1_555 1_555
C8_2 O6_2 1_555 1_555
C8_2 O21_2 1_555 1_555
C34_2 C57_2 1_555 1_555
C36_2 C59_2 1_555 1_555
C38_2 C61_2 1_555 1_555
C21_2 H100_2 1_555 1_555
C19_2 H107_2 1_555 1_555
C20_2 H108_2 1_555 1_555
O42_3 Zn8_3 1_555 1_555
O3_5 Zn1_5 1_555 1_555
Zn7_5 O13_2 1_555 1_555
Zn8_5 O14_2 1_555 1_555
N11_2 C68_2 1_555 1_555
N12_2 C70_2 1_555 1_555
N13_2 C72_2 1_555 1_555
N22_2 C82_2 1_555 1_555
N23_2 C83_2 1_555 1_555
N24_2 C82_2 1_555 1_555
C14_2 C25_2 1_555 1_555
C15_2 C26_2 1_555 1_555
C16_2 C27_2 1_555 1_555
C25_2 C45_2 1_555 1_555
C26_2 C47_2 1_555 1_555
C27_2 C49_2 1_555 1_555
C45_2 H22_2 1_555 1_555
C46_2 C25_2 1_555 1_555
C47_2 H24_2 1_555 1_555
C48_2 C26_2 1_555 1_555
C49_2 H26_2 1_555 1_555
C50_2 C27_2 1_555 1_555
H23_2 C48_2 1_555 1_555
H25_2 C50_2 1_555 1_555
H27_2 C46_2 1_555 1_555
H45_2 C45_2 1_555 1_555
H46_2 C48_2 1_555 1_555
H47_2 C47_2 1_555 1_555
H48_2 C50_2 1_555 1_555
H49_2 C49_2 1_555 1_555
H50_2 C46_2 1_555 1_555
C68_2 C45_2 1_555 1_555
C69_2 N11_2 1_555 1_555
C70_2 C47_2 1_555 1_555
C71_2 N12_2 1_555 1_555
C72_2 C49_2 1_555 1_555
C73_2 N13_2 1_555 1_555
H68_2 C68_2 1_555 1_555
H69_2 C71_2 1_555 1_555
H70_2 C70_2 1_555 1_555
H71_2 C73_2 1_555 1_555
H72_2 C72_2 1_555 1_555
H73_2 C69_2 1_555 1_555
H91_2 C68_2 1_555 1_555
H92_2 C71_2 1_555 1_555
H93_2 C70_2 1_555 1_555
H94_2 C73_2 1_555 1_555
H95_2 C72_2 1_555 1_555
H96_2 C69_2 1_555 1_555
C82_2 N11_2 1_555 1_555
C83_2 N12_2 1_555 1_555
C84_2 N13_2 1_555 1_555
O12_2 Zn1_5 1_555 1_555
O13_2 C15_2 1_555 1_555
O14_2 C16_2 1_555 1_555
O27_2 Zn4_5 1_555 1_555
O31_2 C15_2 1_555 1_555
O32_2 C16_2 1_555 1_555
O40_5 Zn4_5 1_555 1_555
O42_4 Zn8_4 1_555 1_555
N22_2 C83_2 1_555 1_555
N23_2 C84_2 1_555 1_555
N24_2 C84_2 1_555 1_555
C14_2 O12_2 1_555 1_555
C14_2 O27_2 1_555 1_555
C46_2 C69_2 1_555 1_555
C48_2 C71_2 1_555 1_555
C50_2 C73_2 1_555 1_555
C25_2 H101_2 1_555 1_555
C27_2 H109_2 1_555 1_555
C26_2 H110_2 1_555 1_555
O42_5 Zn8_5 1_555 1_555
O38_7 Zn7_2 1_555 1_555
O38_8 Zn7_3 1_555 1_555
O38_9 Zn7_4 1_555 1_555
O38_10 Zn7_5 1_555 1_555

#END
