
###############################################################################
#
# This file contains modified crystal structure data generated from the
# MOF subset of the Cambridge Structural Database (CSD) v543 
# hosted by the Cambridge Crystallographic Data Centre (CCDC).
#
# This work is licensed under the Creative Commons
# Attribution-NonCommercial-ShareAlike 4.0 International License.
# To view a copy of this license, visit
# http://creativecommons.org/licenses/by-nc-sa/4.0/
# or send a letter to
# Creative Commons, PO Box 1866, Mountain View, CA 94042, USA.
#
# CIF created using the CSD Python API on 29 September 2022
# The structure has been converted into the P1 space group
# The structure has a 3D framework
# The original CSD entry WUHJIT is in the rhombohedral crystal system
# The framework has been calculated to contain at least 10.0% void space
# The void calculation uses a probe of radius 1.32A, grid spacing 0.4
#
###############################################################################

data_WUHJIT
_chemical_formula_moiety         '(C270 H198 Mg30 O144)n'
_symmetry_cell_setting           triclinic
_symmetry_space_group_name_H-M   'P 1'
_symmetry_Int_Tables_number      1
_space_group_name_Hall           'P 1'
loop_
_symmetry_equiv_pos_site_id
_symmetry_equiv_pos_as_xyz
1 x,y,z
_cell_length_a                   31.642(5)
_cell_length_b                   31.642(5)
_cell_length_c                   14.873(3)
_cell_angle_alpha                90
_cell_angle_beta                 90
_cell_angle_gamma                120
_cell_volume                     12896.1
loop_
_atom_site_label
_atom_site_type_symbol
_atom_site_fract_x
_atom_site_fract_y
_atom_site_fract_z
Mg1 Mg 0.5000 0.5000 0.0000
Mg2 Mg 0.54448(2) 0.41473(2) 0.03098(4)
O1 O 0.56267(4) 0.49149(4) 0.01819(7)
O5 O 0.68052(5) 0.79802(4) 0.22992(8)
O6 O 0.75904(6) 0.82035(7) 0.22642(13)
O7 O 0.58534(9) 0.42845(9) 0.14515(12)
O8 O 0.54557(10) 0.35121(8) 0.01447(16)
C9 C 0.69127(7) 0.67822(6) 0.02269(13)
C10 C 0.73747(8) 0.71161(9) 0.0512(2)
C11 C 0.74500(8) 0.74911(9) 0.1084(2)
C12 C 0.70653(7) 0.75439(7) 0.13766(13)
C13 C 0.66066(7) 0.72220(7) 0.10635(13)
C14 C 0.65292(7) 0.68448(7) 0.04895(13)
C15 C 0.71549(7) 0.79410(7) 0.20337(13)
H3 H 0.6193(11) 0.5834(10) 0.0318(19)
H4 H 0.5841(10) 0.4424(10) 0.208(2)
H5 H 0.6064(10) 0.4133(10) 0.186(2)
H7 H 0.5061(11) 0.3196(11) 0.004(2)
H8 H 0.7605(11) 0.7109(11) 0.0218(19)
H9 H 0.7709(11) 0.7644(11) 0.134(2)
H10 H 0.6324(11) 0.7244(10) 0.1285(19)
H11 H 0.6311(11) 0.6698(11) 0.029(2)
Mg4 Mg 0.6667 0.8333 0.3333
Mg5 Mg 0.1667 0.3333 0.3333
Mg9 Mg 0.79642(3) 0.87781(2) 0.30235(4)
Mg10 Mg 0.25194(2) 0.46308(3) 0.36431(4)
O10 O 0.39219(5) 0.53720(5) 0.03680(10)
O11 O 0.22161(4) 0.35832(4) 0.23652(8)
O12 O 0.52996(6) 0.55494(4) 0.09681(8)
O14 O 0.26655(6) 0.43965(5) 0.25012(11)
O16 O 0.49357(8) 0.59988(6) 0.08321(11)
O19 O 0.46469(4) 0.45083(6) 0.10341(8)
O21 O 0.48702(7) 0.39464(9) 0.10691(13)
C16 C 0.36023(6) 0.45224(6) 0.04948(11)
C17 C 0.32704(6) 0.44786(6) 0.11476(12)
C18 C 0.28928(6) 0.40238(6) 0.13992(11)
C19 C 0.28374(6) 0.36126(6) 0.09609(12)
C20 C 0.31660(6) 0.36522(6) 0.02939(12)
C21 C 0.35595(6) 0.41093(6) 0.00867(12)
C22 C 0.39943(6) 0.50209(6) 0.02245(11)
C23 C 0.25612(6) 0.39933(7) 0.21514(12)
H12 H 0.3332(11) 0.4761(11) 0.141(2)
H13 H 0.2553(10) 0.3282(11) 0.1160(18)
H17 H 0.4494(11) 0.6703(11) 0.033(2)
Mg1_2 Mg 0.5000 0.5000 1.0000
O2 O 0.60781(5) 0.46280(5) 0.96320(10)
O3 O 0.77839(4) 0.64168(4) 0.76348(8)
O4 O 0.73345(6) 0.56035(5) 0.74988(11)
C1 C 0.63977(6) 0.54776(6) 0.95052(11)
C2 C 0.67296(6) 0.55214(6) 0.88524(12)
C3 C 0.71072(6) 0.59762(6) 0.86008(11)
C4 C 0.71626(6) 0.63874(6) 0.90391(12)
C5 C 0.68340(6) 0.63478(6) 0.97061(12)
C6 C 0.64405(6) 0.58907(6) 0.99133(12)
C7 C 0.60057(6) 0.49791(6) 0.97755(11)
C8 C 0.74388(6) 0.60067(7) 0.78486(12)
H1 H 0.6668(11) 0.5239(11) 0.859(2)
H2 H 0.7447(10) 0.6718(11) 0.8840(18)
H6 H 0.5506(11) 0.3297(11) 0.967(2)
Mg3 Mg 0.8333 0.6667 0.6667
Mg6 Mg 0.3333 0.1667 0.6667
Mg7 Mg 0.45552(2) 0.58527(2) 0.96902(4)
Mg8 Mg 0.74806(2) 0.53692(3) 0.63569(4)
Mg11 Mg 0.20358(3) 0.12219(2) 0.69765(4)
O9 O 0.43733(4) 0.50851(4) 0.98181(7)
O13 O 0.47004(6) 0.44506(4) 0.90319(8)
O15 O 0.50643(8) 0.40012(6) 0.91679(11)
O17 O 0.31948(5) 0.20198(4) 0.77008(8)
O18 O 0.53531(4) 0.54917(6) 0.89659(8)
O20 O 0.24096(6) 0.17965(7) 0.77358(13)
O22 O 0.51298(7) 0.60536(9) 0.89309(13)
O23 O 0.41466(9) 0.57155(9) 0.85485(12)
O24 O 0.45443(10) 0.64879(8) 0.98553(16)
C24 C 0.30873(7) 0.32178(6) 0.97731(13)
C25 C 0.26253(8) 0.28839(9) 0.9488(2)
C26 C 0.25500(8) 0.25089(9) 0.8916(2)
C27 C 0.29347(7) 0.24561(7) 0.86234(13)
C28 C 0.33934(7) 0.27780(7) 0.89365(13)
C29 C 0.34708(7) 0.31552(7) 0.95105(13)
C30 C 0.28451(7) 0.20590(7) 0.79663(13)
H14 H 0.3807(11) 0.4166(10) 0.9682(19)
H15 H 0.4159(10) 0.5576(10) 0.792(2)
H16 H 0.3936(10) 0.5867(10) 0.814(2)
H18 H 0.4939(11) 0.6804(11) 0.996(2)
H19 H 0.2395(11) 0.2891(11) 0.9782(19)
H20 H 0.2291(11) 0.2356(11) 0.866(2)
H21 H 0.3676(11) 0.2756(10) 0.8715(19)
H22 H 0.3689(11) 0.3302(11) 0.971(2)
Mg1_3 Mg 0.5000 0.0000 0.0000
Mg2_2 Mg 0.58527(2) 0.12975(3) 0.03098(4)
O1_2 O 0.50851(4) 0.07118(6) 0.01819(7)
O7_2 O 0.57155(9) 0.15689(13) 0.14515(12)
O8_2 O 0.64879(8) 0.19436(13) 0.01447(16)
C9_2 C 0.32178(6) 0.01305(9) 0.02269(13)
C10_2 C 0.28839(9) 0.02586(12) 0.0512(2)
H3_2 H 0.4166(10) 0.0359(15) 0.0318(19)
H4_2 H 0.5576(10) 0.1417(14) 0.208(2)
H5_2 H 0.5867(10) 0.1931(14) 0.186(2)
H7_2 H 0.6804(11) 0.1865(16) 0.004(2)
H8_2 H 0.2891(11) 0.0496(16) 0.0218(19)
H9_2 H 0.2356(11) 0.0065(16) 0.134(2)
O19_2 O 0.54917(6) 0.01385(7) 0.10341(8)
O21_2 O 0.60536(9) 0.09237(11) 0.10691(13)
Mg1_4 Mg 0.5000 0.0000 1.0000
O2_2 O 0.53720(5) 0.14501(7) 0.96320(10)
O3_2 O 0.35832(4) 0.13671(6) 0.76348(8)
O4_2 O 0.43965(5) 0.17310(8) 0.74988(11)
C1_2 C 0.45224(6) 0.09201(8) 0.95052(11)
C2_2 C 0.44786(6) 0.12082(8) 0.88524(12)
C3_2 C 0.40238(6) 0.11310(8) 0.86008(11)
C4_2 C 0.36126(6) 0.07752(8) 0.90391(12)
C5_2 C 0.36522(6) 0.04862(8) 0.97061(12)
C6_2 C 0.41093(6) 0.05498(8) 0.99133(12)
C7_2 C 0.50209(6) 0.10266(8) 0.97755(11)
C8_2 C 0.39933(7) 0.14321(9) 0.78486(12)
H1_2 H 0.4761(11) 0.1429(16) 0.859(2)
H2_2 H 0.3282(11) 0.0729(15) 0.8840(18)
H6_2 H 0.6703(11) 0.2209(16) 0.967(2)
Mg6_2 Mg 0.8333 0.1667 0.6667
Mg8_2 Mg 0.46308(3) 0.21115(4) 0.63569(4)
Mg11_2 Mg 0.87781(2) 0.08140(4) 0.69765(4)
O13_2 O 0.55494(4) 0.02499(7) 0.90319(8)
O15_2 O 0.59988(6) 0.10632(10) 0.91679(11)
O17_2 O 0.79802(4) 0.11750(6) 0.77008(8)
O20_2 O 0.82035(7) 0.06131(9) 0.77358(13)
C26_2 C 0.74911(9) 0.00411(12) 0.8916(2)
C27_2 C 0.75439(7) 0.04786(10) 0.86234(13)
C28_2 C 0.72220(7) 0.06154(10) 0.89365(13)
C29_2 C 0.68448(7) 0.03156(10) 0.95105(13)
C30_2 C 0.79410(7) 0.07861(10) 0.79663(13)
H21_2 H 0.7244(10) 0.0920(15) 0.8715(19)
H22_2 H 0.6698(11) 0.0387(16) 0.971(2)
Mg1_5 Mg 0.5000 1.0000 0.0000
O5_2 O 0.20198(4) 0.88250(6) 0.22992(8)
O6_2 O 0.17965(7) 0.93869(9) 0.22642(13)
C11_2 C 0.25089(9) 0.99589(12) 0.1084(2)
C12_2 C 0.24561(7) 0.95214(10) 0.13766(13)
C13_2 C 0.27780(7) 0.93846(10) 0.10635(13)
C14_2 C 0.31552(7) 0.96844(10) 0.04895(13)
C15_2 C 0.20590(7) 0.92139(10) 0.20337(13)
H10_2 H 0.2756(10) 0.9080(15) 0.1285(19)
H11_2 H 0.3302(11) 0.9613(16) 0.029(2)
Mg4_2 Mg 0.1667 0.8333 0.3333
Mg9_2 Mg 0.12219(2) 0.91860(4) 0.30235(4)
Mg10_2 Mg 0.53692(3) 0.78885(4) 0.36431(4)
O10_2 O 0.46280(5) 0.85499(7) 0.03680(10)
O11_2 O 0.64168(4) 0.86329(6) 0.23652(8)
O12_2 O 0.44506(4) 0.97501(7) 0.09681(8)
O14_2 O 0.56035(5) 0.82690(8) 0.25012(11)
O16_2 O 0.40012(6) 0.89368(10) 0.08321(11)
C16_2 C 0.54776(6) 0.90799(8) 0.04948(11)
C17_2 C 0.55214(6) 0.87918(8) 0.11476(12)
C18_2 C 0.59762(6) 0.88690(8) 0.13992(11)
C19_2 C 0.63874(6) 0.92248(8) 0.09609(12)
C20_2 C 0.63478(6) 0.95138(8) 0.02939(12)
C21_2 C 0.58907(6) 0.94502(8) 0.00867(12)
C22_2 C 0.49791(6) 0.89734(8) 0.02245(11)
C23_2 C 0.60067(7) 0.85679(9) 0.21514(12)
H12_2 H 0.5239(11) 0.8571(16) 0.141(2)
H13_2 H 0.6718(11) 0.9271(15) 0.1160(18)
H17_2 H 0.3297(11) 0.7791(16) 0.033(2)
Mg1_6 Mg 0.5000 1.0000 1.0000
Mg7_2 Mg 0.41473(2) 0.87025(3) 0.96902(4)
O9_2 O 0.49149(4) 0.92882(6) 0.98181(7)
O18_2 O 0.45083(6) 0.98615(7) 0.89659(8)
O22_2 O 0.39464(9) 0.90763(11) 0.89309(13)
O23_2 O 0.42845(9) 0.84311(13) 0.85485(12)
O24_2 O 0.35121(8) 0.80564(13) 0.98553(16)
C24_2 C 0.67822(6) 0.98695(9) 0.97731(13)
C25_2 C 0.71161(9) 0.97414(12) 0.9488(2)
H14_2 H 0.5834(10) 0.9641(15) 0.9682(19)
H15_2 H 0.4424(10) 0.8583(14) 0.792(2)
H16_2 H 0.4133(10) 0.8069(14) 0.814(2)
H18_2 H 0.3196(11) 0.8135(16) 0.996(2)
H19_2 H 0.7109(11) 0.9504(16) 0.9782(19)
H20_2 H 0.7644(11) 0.9935(16) 0.866(2)
Mg1_7 Mg -0.0000 0.5000 0.0000
O5_3 O 0.11750(6) 0.31948(5) 0.22992(8)
O6_3 O 0.06131(9) 0.24096(6) 0.22642(13)
C11_3 C 0.00411(12) 0.25500(8) 0.1084(2)
C12_3 C 0.04786(10) 0.29347(7) 0.13766(13)
C13_3 C 0.06154(10) 0.33934(7) 0.10635(13)
C14_3 C 0.03156(10) 0.34708(7) 0.04895(13)
C15_3 C 0.07861(10) 0.28451(7) 0.20337(13)
H10_3 H 0.0920(15) 0.3676(11) 0.1285(19)
H11_3 H 0.0387(16) 0.3689(11) 0.029(2)
Mg9_3 Mg 0.08140(4) 0.20358(3) 0.30235(4)
Mg10_3 Mg 0.21115(4) 0.74806(2) 0.36431(4)
O10_3 O 0.14501(7) 0.60781(5) 0.03680(10)
O11_3 O 0.13671(6) 0.77839(4) 0.23652(8)
O12_3 O 0.02499(7) 0.47004(6) 0.09681(8)
O14_3 O 0.17310(8) 0.73345(6) 0.25012(11)
O16_3 O 0.10632(10) 0.50643(8) 0.08321(11)
C16_3 C 0.09201(8) 0.63977(6) 0.04948(11)
C17_3 C 0.12082(8) 0.67296(6) 0.11476(12)
C18_3 C 0.11310(8) 0.71072(6) 0.13992(11)
C19_3 C 0.07752(8) 0.71626(6) 0.09609(12)
C20_3 C 0.04862(8) 0.68340(6) 0.02939(12)
C21_3 C 0.05498(8) 0.64405(6) 0.00867(12)
C22_3 C 0.10266(8) 0.60057(6) 0.02245(11)
C23_3 C 0.14321(9) 0.74388(6) 0.21514(12)
H12_3 H 0.1429(16) 0.6668(11) 0.141(2)
H13_3 H 0.0729(15) 0.7447(10) 0.1160(18)
H17_3 H 0.2209(16) 0.5506(11) 0.033(2)
Mg1_8 Mg -0.0000 0.5000 1.0000
Mg7_3 Mg 0.12975(3) 0.54448(2) 0.96902(4)
O9_3 O 0.07118(6) 0.56267(4) 0.98181(7)
O18_3 O 0.01385(7) 0.46469(4) 0.89659(8)
O22_3 O 0.09237(11) 0.48702(7) 0.89309(13)
O23_3 O 0.15689(13) 0.58534(9) 0.85485(12)
O24_3 O 0.19436(13) 0.54557(10) 0.98553(16)
C24_3 C 0.01305(9) 0.69127(7) 0.97731(13)
C25_3 C 0.02586(12) 0.73747(8) 0.9488(2)
H14_3 H 0.0359(15) 0.6193(11) 0.9682(19)
H15_3 H 0.1417(14) 0.5841(10) 0.792(2)
H16_3 H 0.1931(14) 0.6064(10) 0.814(2)
H18_3 H 0.1865(16) 0.5061(11) 0.996(2)
H19_3 H 0.0496(16) 0.7605(11) 0.9782(19)
H20_3 H 0.0065(16) 0.7709(11) 0.866(2)
Mg1_9 Mg 1.0000 0.5000 0.0000
Mg2_3 Mg 0.87025(3) 0.45552(2) 0.03098(4)
O1_3 O 0.92882(6) 0.43733(4) 0.01819(7)
O7_3 O 0.84311(13) 0.41466(9) 0.14515(12)
O8_3 O 0.80564(13) 0.45443(10) 0.01447(16)
C9_3 C 0.98695(9) 0.30873(7) 0.02269(13)
C10_3 C 0.97414(12) 0.26253(8) 0.0512(2)
H3_3 H 0.9641(15) 0.3807(11) 0.0318(19)
H4_3 H 0.8583(14) 0.4159(10) 0.208(2)
H5_3 H 0.8069(14) 0.3936(10) 0.186(2)
H7_3 H 0.8135(16) 0.4939(11) 0.004(2)
H8_3 H 0.9504(16) 0.2395(11) 0.0218(19)
H9_3 H 0.9935(16) 0.2291(11) 0.134(2)
O19_3 O 0.98615(7) 0.53531(4) 0.10341(8)
O21_3 O 0.90763(11) 0.51298(7) 0.10691(13)
Mg1_10 Mg 1.0000 0.5000 1.0000
O2_3 O 0.85499(7) 0.39219(5) 0.96320(10)
O3_3 O 0.86329(6) 0.22161(4) 0.76348(8)
O4_3 O 0.82690(8) 0.26655(6) 0.74988(11)
C1_3 C 0.90799(8) 0.36023(6) 0.95052(11)
C2_3 C 0.87918(8) 0.32704(6) 0.88524(12)
C3_3 C 0.88690(8) 0.28928(6) 0.86008(11)
C4_3 C 0.92248(8) 0.28374(6) 0.90391(12)
C5_3 C 0.95138(8) 0.31660(6) 0.97061(12)
C6_3 C 0.94502(8) 0.35595(6) 0.99133(12)
C7_3 C 0.89734(8) 0.39943(6) 0.97755(11)
C8_3 C 0.85679(9) 0.25612(6) 0.78486(12)
H1_3 H 0.8571(16) 0.3332(11) 0.859(2)
H2_3 H 0.9271(15) 0.2553(10) 0.8840(18)
H6_3 H 0.7791(16) 0.4494(11) 0.967(2)
Mg8_3 Mg 0.78885(4) 0.25194(2) 0.63569(4)
Mg11_3 Mg 0.91860(4) 0.79642(3) 0.69765(4)
O13_3 O 0.97501(7) 0.52996(6) 0.90319(8)
O15_3 O 0.89368(10) 0.49357(8) 0.91679(11)
O17_3 O 0.88250(6) 0.68052(5) 0.77008(8)
O20_3 O 0.93869(9) 0.75904(6) 0.77358(13)
C26_3 C 0.99589(12) 0.74500(8) 0.8916(2)
C27_3 C 0.95214(10) 0.70653(7) 0.86234(13)
C28_3 C 0.93846(10) 0.66066(7) 0.89365(13)
C29_3 C 0.96844(10) 0.65292(7) 0.95105(13)
C30_3 C 0.92139(10) 0.71549(7) 0.79663(13)
H21_3 H 0.9080(15) 0.6324(11) 0.8715(19)
H22_3 H 0.9613(16) 0.6311(11) 0.971(2)
O5_4 O 0.34719(5) 0.13135(4) 0.56325(8)
O6_4 O 0.42571(6) 0.15368(7) 0.55975(13)
C9_4 C 0.35794(7) 0.01155(6) 0.35602(13)
C10_4 C 0.40414(8) 0.04494(9) 0.3845(2)
C11_4 C 0.41167(8) 0.08244(9) 0.4417(2)
C12_4 C 0.37320(7) 0.08772(7) 0.47099(13)
C13_4 C 0.32733(7) 0.05553(7) 0.43968(13)
C14_4 C 0.31959(7) 0.01781(7) 0.38228(13)
C15_4 C 0.38216(7) 0.12743(7) 0.53670(13)
H2_4 H 0.4114(10) 0.0051(11) 0.2173(18)
H8_4 H 0.4272(11) 0.0442(11) 0.3551(19)
H9_4 H 0.4376(11) 0.0977(11) 0.467(2)
H10_4 H 0.2991(11) 0.0577(10) 0.4618(19)
H11_4 H 0.2978(11) 0.0031(11) 0.362(2)
H17_4 H 0.1161(11) 0.0036(11) 0.366(2)
H18_4 H 0.1606(11) 0.0137(11) 0.329(2)
O1_4 O 0.22934(4) 0.82482(4) 0.35152(7)
O2_4 O 0.27448(5) 0.79613(5) 0.29653(10)
O7_4 O 0.25201(9) 0.76178(9) 0.47848(12)
O8_4 O 0.21224(10) 0.68454(8) 0.34780(16)
C1_4 C 0.30644(6) 0.88109(6) 0.28385(11)
C2_4 C 0.33963(6) 0.88547(6) 0.21857(12)
C3_4 C 0.37739(6) 0.93095(6) 0.19341(11)
C4_4 C 0.38293(6) 0.97207(6) 0.23724(12)
C5_4 C 0.35007(6) 0.96811(6) 0.30394(12)
C6_4 C 0.31072(6) 0.92240(6) 0.32466(12)
C7_4 C 0.26724(6) 0.83124(6) 0.31088(11)
C8_4 C 0.41055(6) 0.93400(7) 0.11819(12)
H1_4 H 0.3335(11) 0.8572(11) 0.192(2)
H3_4 H 0.2860(11) 0.9167(10) 0.3651(19)
H4_4 H 0.2508(10) 0.7757(10) 0.541(2)
H5_4 H 0.2731(10) 0.7466(10) 0.519(2)
H6_4 H 0.2173(11) 0.6630(11) 0.300(2)
H7_4 H 0.1728(11) 0.6529(11) 0.337(2)
O9_4 O 0.10400(4) 0.84184(4) 0.31514(7)
O10_4 O 0.05886(5) 0.87053(5) 0.37013(10)
O12_4 O 0.19662(6) 0.88828(4) 0.43015(8)
O16_4 O 0.16023(8) 0.93322(6) 0.41655(11)
O19_4 O 0.13135(4) 0.78417(6) 0.43675(8)
O21_4 O 0.15368(7) 0.72798(9) 0.44025(13)
O23_4 O 0.08133(9) 0.90488(9) 0.18818(12)
O24_4 O 0.12110(10) 0.98212(8) 0.31886(16)
C16_4 C 0.02690(6) 0.78557(6) 0.38281(11)
C21_4 C 0.02262(6) 0.74426(6) 0.34200(12)
C22_4 C 0.06610(6) 0.83542(6) 0.35578(11)
C28_4 C 0.00601(7) 0.61113(7) 0.22698(13)
C29_4 C 0.01375(7) 0.64885(7) 0.28438(13)
H14_4 H 0.0474(11) 0.7499(10) 0.3015(19)
H15_4 H 0.0826(10) 0.8909(10) 0.125(2)
H16_4 H 0.0603(10) 0.9200(10) 0.147(2)
H21_4 H 0.0343(11) 0.6089(10) 0.2048(19)
H22_4 H 0.0356(11) 0.6635(11) 0.304(2)
O11_4 O 0.88828(4) 0.69165(4) 0.56985(8)
O14_4 O 0.93322(6) 0.77298(5) 0.58345(11)
C17_4 C 0.99371(6) 0.78119(6) 0.44809(12)
C18_4 C 0.95595(6) 0.73571(6) 0.47325(11)
C19_4 C 0.95041(6) 0.69459(6) 0.42942(12)
C20_4 C 0.98327(6) 0.69855(6) 0.36272(12)
C23_4 C 0.92279(6) 0.73266(7) 0.54847(12)
C24_4 C 0.97540(7) 0.65511(6) 0.31064(13)
C25_4 C 0.92920(8) 0.62172(9) 0.2821(2)
C26_4 C 0.92167(8) 0.58422(9) 0.2249(2)
C27_4 C 0.96014(7) 0.57894(7) 0.19567(13)
C30_4 C 0.95118(7) 0.53923(7) 0.12996(13)
H12_4 H 0.9999(11) 0.8094(11) 0.474(2)
H13_4 H 0.9220(10) 0.6615(11) 0.4493(18)
H19_4 H 0.9062(11) 0.6224(11) 0.3115(19)
H20_4 H 0.8958(11) 0.5689(11) 0.199(2)
O1_5 O 0.17518(4) 0.40451(6) 0.35152(7)
O2_5 O 0.20387(5) 0.47834(7) 0.29653(10)
O7_5 O 0.23822(9) 0.49022(13) 0.47848(12)
O8_5 O 0.31546(8) 0.52769(13) 0.34780(16)
C1_5 C 0.11891(6) 0.42534(8) 0.28385(11)
C2_5 C 0.11453(6) 0.45415(8) 0.21857(12)
C3_5 C 0.06905(6) 0.44643(8) 0.19341(11)
C4_5 C 0.02793(6) 0.41085(8) 0.23724(12)
C5_5 C 0.03189(6) 0.38195(8) 0.30394(12)
C6_5 C 0.07760(6) 0.38831(8) 0.32466(12)
C7_5 C 0.16876(6) 0.43599(8) 0.31088(11)
C8_5 C 0.06600(7) 0.47654(9) 0.11819(12)
H1_5 H 0.1428(11) 0.4762(16) 0.192(2)
H3_5 H 0.0833(10) 0.3692(15) 0.3651(19)
H4_5 H 0.2243(10) 0.4750(14) 0.541(2)
H5_5 H 0.2534(10) 0.5264(14) 0.519(2)
H6_5 H 0.3370(11) 0.5542(16) 0.300(2)
H7_5 H 0.3471(11) 0.5198(16) 0.337(2)
O9_5 O 0.15816(4) 0.26215(6) 0.31514(7)
O10_5 O 0.12947(5) 0.18832(7) 0.37013(10)
O11_5 O 0.30835(4) 0.19662(6) 0.56985(8)
O12_5 O 0.11172(4) 0.30835(7) 0.43015(8)
O14_5 O 0.22702(5) 0.16023(8) 0.58345(11)
O16_5 O 0.06678(6) 0.22702(10) 0.41655(11)
O19_5 O 0.21583(6) 0.34719(7) 0.43675(8)
O21_5 O 0.27202(9) 0.42571(11) 0.44025(13)
O23_5 O 0.09512(9) 0.17644(13) 0.18818(12)
O24_5 O 0.01788(8) 0.13897(13) 0.31886(16)
C16_5 C 0.21443(6) 0.24132(8) 0.38281(11)
C17_5 C 0.21881(6) 0.21251(8) 0.44809(12)
C18_5 C 0.26429(6) 0.22023(8) 0.47325(11)
C19_5 C 0.30541(6) 0.25581(8) 0.42942(12)
C20_5 C 0.30145(6) 0.28471(8) 0.36272(12)
C21_5 C 0.25574(6) 0.27835(8) 0.34200(12)
C22_5 C 0.16458(6) 0.23067(8) 0.35578(11)
C23_5 C 0.26734(7) 0.19012(9) 0.54847(12)
C24_5 C 0.34489(6) 0.32028(9) 0.31064(13)
C25_5 C 0.37828(9) 0.30747(12) 0.2821(2)
C26_5 C 0.41578(9) 0.33744(12) 0.2249(2)
C27_5 C 0.42106(7) 0.38119(10) 0.19567(13)
C28_5 C 0.38887(7) 0.39487(10) 0.22698(13)
C29_5 C 0.35115(7) 0.36489(10) 0.28438(13)
C30_5 C 0.46077(7) 0.41194(10) 0.12996(13)
H12_5 H 0.1906(11) 0.1904(16) 0.474(2)
H13_5 H 0.3385(11) 0.2604(15) 0.4493(18)
H14_5 H 0.2501(10) 0.2974(15) 0.3015(19)
H15_5 H 0.1091(10) 0.1916(14) 0.125(2)
H16_5 H 0.0800(10) 0.1402(14) 0.147(2)
H19_5 H 0.3776(11) 0.2837(16) 0.3115(19)
H20_5 H 0.4311(11) 0.3268(16) 0.199(2)
H21_5 H 0.3911(10) 0.4253(15) 0.2048(19)
H22_5 H 0.3365(11) 0.3720(16) 0.304(2)
O5_5 O 0.86865(4) 0.21583(6) 0.56325(8)
O6_5 O 0.84632(7) 0.27202(9) 0.55975(13)
C9_5 C 0.98845(6) 0.34638(9) 0.35602(13)
C10_5 C 0.95506(9) 0.35919(12) 0.3845(2)
C11_5 C 0.91756(9) 0.32922(12) 0.4417(2)
C12_5 C 0.91228(7) 0.28547(10) 0.47099(13)
C13_5 C 0.94447(7) 0.27179(10) 0.43968(13)
C14_5 C 0.98219(7) 0.30177(10) 0.38228(13)
C15_5 C 0.87257(7) 0.25472(10) 0.53670(13)
H2_5 H 0.9949(11) 0.4062(15) 0.2173(18)
H8_5 H 0.9558(11) 0.3829(16) 0.3551(19)
H9_5 H 0.9023(11) 0.3398(16) 0.467(2)
H10_5 H 0.9423(10) 0.2413(15) 0.4618(19)
H11_5 H 0.9969(11) 0.2946(16) 0.362(2)
H17_5 H 0.9964(11) 0.1124(16) 0.366(2)
H18_5 H 0.9863(11) 0.1468(16) 0.329(2)
O11_6 O 0.80338(6) 0.11172(4) 0.56985(8)
O14_6 O 0.83977(8) 0.06678(6) 0.58345(11)
C17_6 C 0.78749(8) 0.00629(6) 0.44809(12)
C18_6 C 0.77977(8) 0.04405(6) 0.47325(11)
C19_6 C 0.74419(8) 0.04959(6) 0.42942(12)
C20_6 C 0.71529(8) 0.01673(6) 0.36272(12)
C23_6 C 0.80988(9) 0.07721(6) 0.54847(12)
C24_6 C 0.67972(9) 0.02460(7) 0.31064(13)
C25_6 C 0.69253(12) 0.07080(8) 0.2821(2)
C26_6 C 0.66256(12) 0.07833(8) 0.2249(2)
C27_6 C 0.61881(10) 0.03986(7) 0.19567(13)
C30_6 C 0.58806(10) 0.04882(7) 0.12996(13)
H12_6 H 0.8096(16) 0.0001(11) 0.474(2)
H13_6 H 0.7396(15) 0.0780(10) 0.4493(18)
H19_6 H 0.7163(16) 0.0938(11) 0.3115(19)
H20_6 H 0.6732(16) 0.1042(11) 0.199(2)
O1_6 O 0.59549(6) 0.77066(4) 0.35152(7)
O2_6 O 0.52166(7) 0.72552(5) 0.29653(10)
O5_6 O 0.78417(6) 0.65281(5) 0.56325(8)
O6_6 O 0.72798(9) 0.57429(6) 0.55975(13)
O7_6 O 0.50978(13) 0.74799(9) 0.47848(12)
O8_6 O 0.47231(13) 0.78776(10) 0.34780(16)
C1_6 C 0.57466(8) 0.69356(6) 0.28385(11)
C2_6 C 0.54585(8) 0.66037(6) 0.21857(12)
C3_6 C 0.55357(8) 0.62261(6) 0.19341(11)
C4_6 C 0.58915(8) 0.61707(6) 0.23724(12)
C5_6 C 0.61805(8) 0.64993(6) 0.30394(12)
C6_6 C 0.61169(8) 0.68928(6) 0.32466(12)
C7_6 C 0.56401(8) 0.73276(6) 0.31088(11)
C8_6 C 0.52346(9) 0.58945(6) 0.11819(12)
C9_6 C 0.65362(9) 0.64206(7) 0.35602(13)
C10_6 C 0.64081(12) 0.59586(8) 0.3845(2)
C11_6 C 0.67078(12) 0.58833(8) 0.4417(2)
C12_6 C 0.71453(10) 0.62680(7) 0.47099(13)
C13_6 C 0.72821(10) 0.67267(7) 0.43968(13)
C14_6 C 0.69823(10) 0.68041(7) 0.38228(13)
C15_6 C 0.74528(10) 0.61784(7) 0.53670(13)
H1_6 H 0.5238(16) 0.6665(11) 0.192(2)
H2_6 H 0.5938(15) 0.5886(10) 0.2173(18)
H3_6 H 0.6308(15) 0.7140(11) 0.3651(19)
H4_6 H 0.5250(14) 0.7492(10) 0.541(2)
H5_6 H 0.4736(14) 0.7269(10) 0.519(2)
H6_6 H 0.4458(16) 0.7827(11) 0.300(2)
H7_6 H 0.4802(16) 0.8272(11) 0.337(2)
H8_6 H 0.6171(16) 0.5728(11) 0.3551(19)
H9_6 H 0.6602(16) 0.5624(11) 0.467(2)
H10_6 H 0.7587(15) 0.7009(11) 0.4618(19)
H11_6 H 0.7054(16) 0.7022(11) 0.362(2)
O9_6 O 0.73785(6) 0.89600(4) 0.31514(7)
O10_6 O 0.81168(7) 0.94114(5) 0.37013(10)
O12_6 O 0.69165(7) 0.80338(6) 0.43015(8)
O16_6 O 0.77298(10) 0.83977(8) 0.41655(11)
O19_6 O 0.65281(7) 0.86865(4) 0.43675(8)
O21_6 O 0.57429(11) 0.84632(7) 0.44025(13)
O23_6 O 0.82356(13) 0.91867(9) 0.18818(12)
O24_6 O 0.86103(13) 0.87890(10) 0.31886(16)
C16_6 C 0.75868(8) 0.97310(6) 0.38281(11)
C21_6 C 0.72165(8) 0.97738(6) 0.34200(12)
C22_6 C 0.76933(8) 0.93390(6) 0.35578(11)
C28_6 C 0.60513(10) 0.99399(7) 0.22698(13)
C29_6 C 0.63511(10) 0.98625(7) 0.28438(13)
H14_6 H 0.7026(15) 0.9526(11) 0.3015(19)
H15_6 H 0.8084(14) 0.9174(10) 0.125(2)
H16_6 H 0.8598(14) 0.9397(10) 0.147(2)
H17_6 H 0.8876(16) 0.8839(11) 0.366(2)
H18_6 H 0.8532(16) 0.8394(11) 0.329(2)
H21_6 H 0.5747(15) 0.9657(11) 0.2048(19)
H22_6 H 0.6280(16) 0.9644(11) 0.304(2)
C2_7 C 0.00629(6) 0.21881(6) 0.55191(12)
C3_7 C 0.04405(6) 0.26429(6) 0.52675(11)
C4_7 C 0.04959(6) 0.30541(6) 0.57058(12)
C5_7 C 0.01673(6) 0.30145(6) 0.63728(12)
C8_7 C 0.07721(6) 0.26734(7) 0.45153(12)
C9_7 C 0.02460(7) 0.34489(6) 0.68936(13)
C10_7 C 0.07080(8) 0.37828(9) 0.7179(2)
C11_7 C 0.07833(8) 0.41578(9) 0.7751(2)
C12_7 C 0.03986(7) 0.42106(7) 0.80433(13)
C15_7 C 0.04882(7) 0.46077(7) 0.87004(13)
H1_7 H 0.0001(11) 0.1906(11) 0.526(2)
H2_7 H 0.0780(10) 0.3385(11) 0.5507(18)
H8_7 H 0.0938(11) 0.3776(11) 0.6885(19)
H9_7 H 0.1042(11) 0.4311(11) 0.801(2)
O1_7 O 0.89600(4) 0.15816(4) 0.68486(7)
O2_7 O 0.94114(5) 0.12947(5) 0.62987(10)
O7_7 O 0.91867(9) 0.09512(9) 0.81182(12)
O8_7 O 0.87890(10) 0.01788(8) 0.68114(16)
C1_7 C 0.97310(6) 0.21443(6) 0.61719(11)
C6_7 C 0.97738(6) 0.25574(6) 0.65800(12)
C7_7 C 0.93390(6) 0.16458(6) 0.64422(11)
C13_7 C 0.99399(7) 0.38887(7) 0.77302(13)
C14_7 C 0.98625(7) 0.35115(7) 0.71562(13)
H3_7 H 0.9526(11) 0.2501(10) 0.6985(19)
H4_7 H 0.9174(10) 0.1091(10) 0.875(2)
H5_7 H 0.9397(10) 0.0800(10) 0.853(2)
H10_7 H 0.9657(11) 0.3911(10) 0.7952(19)
H11_7 H 0.9644(11) 0.3365(11) 0.696(2)
O9_7 O 0.77066(4) 0.17518(4) 0.64848(7)
O10_7 O 0.72552(5) 0.20387(5) 0.70347(10)
O23_7 O 0.74799(9) 0.23822(9) 0.52152(12)
O24_7 O 0.78776(10) 0.31546(8) 0.65220(16)
C16_7 C 0.69356(6) 0.11891(6) 0.71615(11)
C17_7 C 0.66037(6) 0.11453(6) 0.78143(12)
C18_7 C 0.62261(6) 0.06905(6) 0.80659(11)
C19_7 C 0.61707(6) 0.02793(6) 0.76276(12)
C20_7 C 0.64993(6) 0.03189(6) 0.69606(12)
C21_7 C 0.68928(6) 0.07760(6) 0.67534(12)
C22_7 C 0.73276(6) 0.16876(6) 0.68912(11)
C23_7 C 0.58945(6) 0.06600(7) 0.88181(12)
H12_7 H 0.6665(11) 0.1428(11) 0.808(2)
H14_7 H 0.7140(11) 0.0833(10) 0.6349(19)
H15_7 H 0.7492(10) 0.2243(10) 0.459(2)
H16_7 H 0.7269(10) 0.2534(10) 0.481(2)
H17_7 H 0.7827(11) 0.3370(11) 0.700(2)
H18_7 H 0.8272(11) 0.3471(11) 0.663(2)
H6_7 H 0.8839(11) 0.9964(11) 0.634(2)
H7_7 H 0.8394(11) 0.9863(11) 0.671(2)
C24_7 C 0.64206(7) 0.98845(6) 0.64398(13)
C25_7 C 0.59586(8) 0.95506(9) 0.6155(2)
C26_7 C 0.58833(8) 0.91756(9) 0.5583(2)
C27_7 C 0.62680(7) 0.91228(7) 0.52901(13)
C28_7 C 0.67267(7) 0.94447(7) 0.56032(13)
C29_7 C 0.68041(7) 0.98219(7) 0.61772(13)
C30_7 C 0.61784(7) 0.87257(7) 0.46330(13)
H13_7 H 0.5886(10) 0.9949(11) 0.7827(18)
H19_7 H 0.5728(11) 0.9558(11) 0.6449(19)
H20_7 H 0.5624(11) 0.9023(11) 0.533(2)
H21_7 H 0.7009(11) 0.9423(10) 0.5382(19)
H22_7 H 0.7022(11) 0.9969(11) 0.638(2)
H6_8 H 0.0036(11) 0.8876(16) 0.634(2)
H7_8 H 0.0137(11) 0.8532(16) 0.671(2)
C24_8 C 0.01155(6) 0.65362(9) 0.64398(13)
C25_8 C 0.04494(9) 0.64081(12) 0.6155(2)
C26_8 C 0.08244(9) 0.67078(12) 0.5583(2)
C27_8 C 0.08772(7) 0.71453(10) 0.52901(13)
C28_8 C 0.05553(7) 0.72821(10) 0.56032(13)
C29_8 C 0.01781(7) 0.69823(10) 0.61772(13)
C30_8 C 0.12743(7) 0.74528(10) 0.46330(13)
H13_8 H 0.0051(11) 0.5938(15) 0.7827(18)
H19_8 H 0.0442(11) 0.6171(16) 0.6449(19)
H20_8 H 0.0977(11) 0.6602(16) 0.533(2)
H21_8 H 0.0577(10) 0.7587(15) 0.5382(19)
H22_8 H 0.0031(11) 0.7054(16) 0.638(2)
O1_8 O 0.84184(4) 0.73785(6) 0.68486(7)
O2_8 O 0.87053(5) 0.81168(7) 0.62987(10)
O7_8 O 0.90488(9) 0.82356(13) 0.81182(12)
O8_8 O 0.98212(8) 0.86103(13) 0.68114(16)
C1_8 C 0.78557(6) 0.75868(8) 0.61719(11)
C2_8 C 0.78119(6) 0.78749(8) 0.55191(12)
C3_8 C 0.73571(6) 0.77977(8) 0.52675(11)
C4_8 C 0.69459(6) 0.74419(8) 0.57058(12)
C5_8 C 0.69855(6) 0.71529(8) 0.63728(12)
C6_8 C 0.74426(6) 0.72165(8) 0.65800(12)
C7_8 C 0.83542(6) 0.76933(8) 0.64422(11)
C8_8 C 0.73266(7) 0.80988(9) 0.45153(12)
C9_8 C 0.65511(6) 0.67972(9) 0.68936(13)
C10_8 C 0.62172(9) 0.69253(12) 0.7179(2)
C11_8 C 0.58422(9) 0.66256(12) 0.7751(2)
C12_8 C 0.57894(7) 0.61881(10) 0.80433(13)
C13_8 C 0.61113(7) 0.60513(10) 0.77302(13)
C14_8 C 0.64885(7) 0.63511(10) 0.71562(13)
C15_8 C 0.53923(7) 0.58806(10) 0.87004(13)
H1_8 H 0.8094(11) 0.8096(16) 0.526(2)
H2_8 H 0.6615(11) 0.7396(15) 0.5507(18)
H3_8 H 0.7499(10) 0.7026(15) 0.6985(19)
H4_8 H 0.8909(10) 0.8084(14) 0.875(2)
H5_8 H 0.9200(10) 0.8598(14) 0.853(2)
H8_8 H 0.6224(11) 0.7163(16) 0.6885(19)
H9_8 H 0.5689(11) 0.6732(16) 0.801(2)
H10_8 H 0.6089(10) 0.5747(15) 0.7952(19)
H11_8 H 0.6635(11) 0.6280(16) 0.696(2)
O9_8 O 0.82482(4) 0.59549(6) 0.64848(7)
O10_8 O 0.79613(5) 0.52166(7) 0.70347(10)
O23_8 O 0.76178(9) 0.50978(13) 0.52152(12)
O24_8 O 0.68454(8) 0.47231(13) 0.65220(16)
C16_8 C 0.88109(6) 0.57466(8) 0.71615(11)
C17_8 C 0.88547(6) 0.54585(8) 0.78143(12)
C18_8 C 0.93095(6) 0.55357(8) 0.80659(11)
C19_8 C 0.97207(6) 0.58915(8) 0.76276(12)
C20_8 C 0.96811(6) 0.61805(8) 0.69606(12)
C21_8 C 0.92240(6) 0.61169(8) 0.67534(12)
C22_8 C 0.83124(6) 0.56401(8) 0.68912(11)
C23_8 C 0.93400(7) 0.52346(9) 0.88181(12)
H12_8 H 0.8572(11) 0.5238(16) 0.808(2)
H14_8 H 0.9167(10) 0.6308(15) 0.6349(19)
H15_8 H 0.7757(10) 0.5250(14) 0.459(2)
H16_8 H 0.7466(10) 0.4736(14) 0.481(2)
H17_8 H 0.6630(11) 0.4458(16) 0.700(2)
H18_8 H 0.6529(11) 0.4802(16) 0.663(2)
O1_9 O 0.26215(6) 0.10400(4) 0.68486(7)
O2_9 O 0.18832(7) 0.05886(5) 0.62987(10)
O7_9 O 0.17644(13) 0.08133(9) 0.81182(12)
O8_9 O 0.13897(13) 0.12110(10) 0.68114(16)
C1_9 C 0.24132(8) 0.02690(6) 0.61719(11)
C6_9 C 0.27835(8) 0.02262(6) 0.65800(12)
C7_9 C 0.23067(8) 0.06610(6) 0.64422(11)
C13_9 C 0.39487(10) 0.00601(7) 0.77302(13)
C14_9 C 0.36489(10) 0.01375(7) 0.71562(13)
H3_9 H 0.2974(15) 0.0474(11) 0.6985(19)
H4_9 H 0.1916(14) 0.0826(10) 0.875(2)
H5_9 H 0.1402(14) 0.0603(10) 0.853(2)
H6_9 H 0.1124(16) 0.1161(11) 0.634(2)
H7_9 H 0.1468(16) 0.1606(11) 0.671(2)
H10_9 H 0.4253(15) 0.0343(11) 0.7952(19)
H11_9 H 0.3720(16) 0.0356(11) 0.696(2)
O9_9 O 0.40451(6) 0.22934(4) 0.64848(7)
O10_9 O 0.47834(7) 0.27448(5) 0.70347(10)
O23_9 O 0.49022(13) 0.25201(9) 0.52152(12)
O24_9 O 0.52769(13) 0.21224(10) 0.65220(16)
C16_9 C 0.42534(8) 0.30644(6) 0.71615(11)
C17_9 C 0.45415(8) 0.33963(6) 0.78143(12)
C18_9 C 0.44643(8) 0.37739(6) 0.80659(11)
C19_9 C 0.41085(8) 0.38293(6) 0.76276(12)
C20_9 C 0.38195(8) 0.35007(6) 0.69606(12)
C21_9 C 0.38831(8) 0.31072(6) 0.67534(12)
C22_9 C 0.43599(8) 0.26724(6) 0.68912(11)
C23_9 C 0.47654(9) 0.41055(6) 0.88181(12)
C24_9 C 0.34638(9) 0.35794(7) 0.64398(13)
C25_9 C 0.35919(12) 0.40414(8) 0.6155(2)
C26_9 C 0.32922(12) 0.41167(8) 0.5583(2)
C27_9 C 0.28547(10) 0.37320(7) 0.52901(13)
C28_9 C 0.27179(10) 0.32733(7) 0.56032(13)
C29_9 C 0.30177(10) 0.31959(7) 0.61772(13)
C30_9 C 0.25472(10) 0.38216(7) 0.46330(13)
H12_9 H 0.4762(16) 0.3335(11) 0.808(2)
H13_9 H 0.4062(15) 0.4114(10) 0.7827(18)
H14_9 H 0.3692(15) 0.2860(11) 0.6349(19)
H15_9 H 0.4750(14) 0.2508(10) 0.459(2)
H16_9 H 0.5264(14) 0.2731(10) 0.481(2)
H17_9 H 0.5542(16) 0.2173(11) 0.700(2)
H18_9 H 0.5198(16) 0.1728(11) 0.663(2)
H19_9 H 0.3829(16) 0.4272(11) 0.6449(19)
H20_9 H 0.3398(16) 0.4376(11) 0.533(2)
H21_9 H 0.2413(15) 0.2991(11) 0.5382(19)
H22_9 H 0.2946(16) 0.2978(11) 0.638(2)
C2_9 C 0.21251(8) 0.99371(6) 0.55191(12)
C3_9 C 0.22023(8) 0.95595(6) 0.52675(11)
C4_9 C 0.25581(8) 0.95041(6) 0.57058(12)
C5_9 C 0.28471(8) 0.98327(6) 0.63728(12)
C8_9 C 0.19012(9) 0.92279(6) 0.45153(12)
C9_9 C 0.32028(9) 0.97540(7) 0.68936(13)
C10_9 C 0.30747(12) 0.92920(8) 0.7179(2)
C11_9 C 0.33744(12) 0.92167(8) 0.7751(2)
C12_9 C 0.38119(10) 0.96014(7) 0.80433(13)
C15_9 C 0.41194(10) 0.95118(7) 0.87004(13)
H1_9 H 0.1904(16) 0.9999(11) 0.526(2)
H2_9 H 0.2604(15) 0.9220(10) 0.5507(18)
H8_9 H 0.2837(16) 0.9062(11) 0.6885(19)
H9_9 H 0.3268(16) 0.8958(11) 0.801(2)
loop_
_geom_bond_atom_site_label_1
_geom_bond_atom_site_label_2
_geom_bond_site_symmetry_1
_geom_bond_site_symmetry_2
Mg1 O1 1_555 1_555
Mg2 O1 1_555 1_555
O5 C15 1_555 1_555
O6 C15 1_555 1_555
O7 Mg2 1_555 1_555
O8 Mg2 1_555 1_555
C10 C9 1_555 1_555
C11 C10 1_555 1_555
C12 C11 1_555 1_555
C13 C12 1_555 1_555
C14 C9 1_555 1_555
C15 C12 1_555 1_555
H4 O7 1_555 1_555
H5 O7 1_555 1_555
H7 O8 1_555 1_555
H8 C10 1_555 1_555
H9 C11 1_555 1_555
H10 C13 1_555 1_555
H11 C14 1_555 1_555
Mg4 O5 1_555 1_555
Mg5 O11 1_555 1_555
Mg9 O6 1_555 1_555
Mg10 O14 1_555 1_555
O11 C23 1_555 1_555
O12 Mg1 1_555 1_555
O14 C23 1_555 1_555
O19 Mg1 1_555 1_555
O21 Mg2 1_555 1_555
C16 C17 1_555 1_555
C17 C18 1_555 1_555
C18 C19 1_555 1_555
C19 C20 1_555 1_555
C20 C21 1_555 1_555
C21 C16 1_555 1_555
C23 C18 1_555 1_555
H12 C17 1_555 1_555
H13 C19 1_555 1_555
C13 C14 1_555 1_555
O10 C22 1_555 1_555
C16 C22 1_555 1_555
O3 C8 1_555 1_555
O4 C8 1_555 1_555
C1 C2 1_555 1_555
C2 C3 1_555 1_555
C3 C4 1_555 1_555
C4 C5 1_555 1_555
C5 C6 1_555 1_555
C6 C1 1_555 1_555
C7 O2 1_555 1_555
C8 C3 1_555 1_555
H1 C2 1_555 1_555
H2 C4 1_555 1_555
Mg3 O3 1_555 1_555
Mg6 O17 1_555 1_555
Mg7 O9 1_555 1_555
Mg8 O4 1_555 1_555
Mg11 O20 1_555 1_555
O9 Mg1_2 1_555 1_555
O13 Mg1_2 1_555 1_555
O17 C30 1_555 1_555
O18 Mg1_2 1_555 1_555
O20 C30 1_555 1_555
O22 Mg7 1_555 1_555
O23 Mg7 1_555 1_555
O24 Mg7 1_555 1_555
C25 C24 1_555 1_555
C26 C25 1_555 1_555
C27 C26 1_555 1_555
C28 C27 1_555 1_555
C29 C24 1_555 1_555
C30 C27 1_555 1_555
H15 O23 1_555 1_555
H16 O23 1_555 1_555
H18 O24 1_555 1_555
H19 C25 1_555 1_555
H20 C26 1_555 1_555
H21 C28 1_555 1_555
H22 C29 1_555 1_555
C1 C7 1_555 1_555
C28 C29 1_555 1_555
Mg1_3 O1_2 1_555 1_555
Mg2_2 O1_2 1_555 1_555
O7_2 Mg2_2 1_555 1_555
O8_2 Mg2_2 1_555 1_555
C10_2 C9_2 1_555 1_555
H4_2 O7_2 1_555 1_555
H5_2 O7_2 1_555 1_555
H7_2 O8_2 1_555 1_555
H8_2 C10_2 1_555 1_555
O19_2 Mg1_3 1_555 1_555
O21_2 Mg2_2 1_555 1_555
O3_2 C8_2 1_555 1_555
O4_2 C8_2 1_555 1_555
C1_2 C2_2 1_555 1_555
C2_2 C3_2 1_555 1_555
C3_2 C4_2 1_555 1_555
C4_2 C5_2 1_555 1_555
C5_2 C6_2 1_555 1_555
C6_2 C1_2 1_555 1_555
C7_2 O2_2 1_555 1_555
C8_2 C3_2 1_555 1_555
H1_2 C2_2 1_555 1_555
H2_2 C4_2 1_555 1_555
Mg6 O3_2 1_555 1_555
Mg6_2 O17_2 1_555 1_555
Mg8_2 O4_2 1_555 1_555
Mg11_2 O20_2 1_555 1_555
O13_2 Mg1_4 1_555 1_555
O17_2 C30_2 1_555 1_555
O20_2 C30_2 1_555 1_555
C27_2 C26_2 1_555 1_555
C28_2 C27_2 1_555 1_555
C30_2 C27_2 1_555 1_555
H21_2 C28_2 1_555 1_555
H22_2 C29_2 1_555 1_555
C1_2 C7_2 1_555 1_555
C28_2 C29_2 1_555 1_555
O5_2 C15_2 1_555 1_555
O6_2 C15_2 1_555 1_555
C12_2 C11_2 1_555 1_555
C13_2 C12_2 1_555 1_555
C15_2 C12_2 1_555 1_555
H10_2 C13_2 1_555 1_555
H11_2 C14_2 1_555 1_555
Mg4_2 O5_2 1_555 1_555
Mg4 O11_2 1_555 1_555
Mg9_2 O6_2 1_555 1_555
Mg10_2 O14_2 1_555 1_555
O11_2 C23_2 1_555 1_555
O12_2 Mg1_5 1_555 1_555
O14_2 C23_2 1_555 1_555
C16_2 C17_2 1_555 1_555
C17_2 C18_2 1_555 1_555
C18_2 C19_2 1_555 1_555
C19_2 C20_2 1_555 1_555
C20_2 C21_2 1_555 1_555
C21_2 C16_2 1_555 1_555
C23_2 C18_2 1_555 1_555
H12_2 C17_2 1_555 1_555
H13_2 C19_2 1_555 1_555
C13_2 C14_2 1_555 1_555
O10_2 C22_2 1_555 1_555
C16_2 C22_2 1_555 1_555
Mg7_2 O9_2 1_555 1_555
O9_2 Mg1_6 1_555 1_555
O18_2 Mg1_6 1_555 1_555
O22_2 Mg7_2 1_555 1_555
O23_2 Mg7_2 1_555 1_555
O24_2 Mg7_2 1_555 1_555
C25_2 C24_2 1_555 1_555
H15_2 O23_2 1_555 1_555
H16_2 O23_2 1_555 1_555
H18_2 O24_2 1_555 1_555
H19_2 C25_2 1_555 1_555
O5_3 C15_3 1_555 1_555
O6_3 C15_3 1_555 1_555
C12_3 C11_3 1_555 1_555
C13_3 C12_3 1_555 1_555
C15_3 C12_3 1_555 1_555
H10_3 C13_3 1_555 1_555
H11_3 C14_3 1_555 1_555
Mg5 O5_3 1_555 1_555
Mg4_2 O11_3 1_555 1_555
Mg9_3 O6_3 1_555 1_555
Mg10_3 O14_3 1_555 1_555
O11_3 C23_3 1_555 1_555
O12_3 Mg1_7 1_555 1_555
O14_3 C23_3 1_555 1_555
C16_3 C17_3 1_555 1_555
C17_3 C18_3 1_555 1_555
C18_3 C19_3 1_555 1_555
C19_3 C20_3 1_555 1_555
C20_3 C21_3 1_555 1_555
C21_3 C16_3 1_555 1_555
C23_3 C18_3 1_555 1_555
H12_3 C17_3 1_555 1_555
H13_3 C19_3 1_555 1_555
C13_3 C14_3 1_555 1_555
O10_3 C22_3 1_555 1_555
C16_3 C22_3 1_555 1_555
Mg7_3 O9_3 1_555 1_555
O9_3 Mg1_8 1_555 1_555
O18_3 Mg1_8 1_555 1_555
O22_3 Mg7_3 1_555 1_555
O23_3 Mg7_3 1_555 1_555
O24_3 Mg7_3 1_555 1_555
C25_3 C24_3 1_555 1_555
H15_3 O23_3 1_555 1_555
H16_3 O23_3 1_555 1_555
H18_3 O24_3 1_555 1_555
H19_3 C25_3 1_555 1_555
Mg1_9 O1_3 1_555 1_555
Mg2_3 O1_3 1_555 1_555
O7_3 Mg2_3 1_555 1_555
O8_3 Mg2_3 1_555 1_555
C10_3 C9_3 1_555 1_555
H4_3 O7_3 1_555 1_555
H5_3 O7_3 1_555 1_555
H7_3 O8_3 1_555 1_555
H8_3 C10_3 1_555 1_555
O19_3 Mg1_9 1_555 1_555
O21_3 Mg2_3 1_555 1_555
O3_3 C8_3 1_555 1_555
O4_3 C8_3 1_555 1_555
C1_3 C2_3 1_555 1_555
C2_3 C3_3 1_555 1_555
C3_3 C4_3 1_555 1_555
C4_3 C5_3 1_555 1_555
C5_3 C6_3 1_555 1_555
C6_3 C1_3 1_555 1_555
C7_3 O2_3 1_555 1_555
C8_3 C3_3 1_555 1_555
H1_3 C2_3 1_555 1_555
H2_3 C4_3 1_555 1_555
Mg6_2 O3_3 1_555 1_555
Mg3 O17_3 1_555 1_555
Mg8_3 O4_3 1_555 1_555
Mg11_3 O20_3 1_555 1_555
O13_3 Mg1_10 1_555 1_555
O17_3 C30_3 1_555 1_555
O20_3 C30_3 1_555 1_555
C27_3 C26_3 1_555 1_555
C28_3 C27_3 1_555 1_555
C30_3 C27_3 1_555 1_555
H21_3 C28_3 1_555 1_555
H22_3 C29_3 1_555 1_555
C1_3 C7_3 1_555 1_555
C28_3 C29_3 1_555 1_555
O5_4 C15_4 1_555 1_555
O6_4 C15_4 1_555 1_555
C10_4 C9_4 1_555 1_555
C11_4 C10_4 1_555 1_555
C12_4 C11_4 1_555 1_555
C13_4 C12_4 1_555 1_555
C14_4 C9_4 1_555 1_555
C15_4 C12_4 1_555 1_555
H8_4 C10_4 1_555 1_555
H9_4 C11_4 1_555 1_555
H10_4 C13_4 1_555 1_555
H11_4 C14_4 1_555 1_555
Mg6 O5_4 1_555 1_555
Mg8_2 O6_4 1_555 1_555
C13_4 C14_4 1_555 1_555
Mg4_2 O1_4 1_555 1_555
Mg10_3 O1_4 1_555 1_555
O1_4 C7_4 1_555 1_555
O2_4 Mg10_3 1_555 1_555
O12_2 C8_4 1_555 1_555
O16_2 C8_4 1_555 1_555
O7_4 Mg10_3 1_555 1_555
O8_4 Mg10_3 1_555 1_555
C1_4 C2_4 1_555 1_555
C2_4 C3_4 1_555 1_555
C3_4 C4_4 1_555 1_555
C4_4 C5_4 1_555 1_555
C5_4 C6_4 1_555 1_555
C6_4 C1_4 1_555 1_555
C7_4 O2_4 1_555 1_555
C8_4 C3_4 1_555 1_555
H1_4 C2_4 1_555 1_555
H3_4 C6_4 1_555 1_555
H4_4 O7_4 1_555 1_555
H5_4 O7_4 1_555 1_555
H6_4 O8_4 1_555 1_555
H7_4 O8_4 1_555 1_555
Mg9_2 O9_4 1_555 1_555
O9_4 Mg4_2 1_555 1_555
O10_4 Mg9_2 1_555 1_555
O12_4 Mg4_2 1_555 1_555
O16_4 Mg9_2 1_555 1_555
O19_4 Mg4_2 1_555 1_555
O21_4 Mg10_3 1_555 1_555
O23_4 Mg9_2 1_555 1_555
O24_4 Mg9_2 1_555 1_555
C21_4 C16_4 1_555 1_555
C22_4 O9_4 1_555 1_555
H14_4 C21_4 1_555 1_555
H15_4 O23_4 1_555 1_555
H16_4 O23_4 1_555 1_555
H21_4 C28_4 1_555 1_555
H22_4 C29_4 1_555 1_555
C1_4 C7_4 1_555 1_555
O10_4 C22_4 1_555 1_555
C16_4 C22_4 1_555 1_555
C28_4 C29_4 1_555 1_555
Mg3 O11_4 1_555 1_555
Mg11_3 O14_4 1_555 1_555
O11_4 C23_4 1_555 1_555
O14_4 C23_4 1_555 1_555
O19_3 C30_4 1_555 1_555
O21_3 C30_4 1_555 1_555
C17_4 C18_4 1_555 1_555
C18_4 C19_4 1_555 1_555
C19_4 C20_4 1_555 1_555
C23_4 C18_4 1_555 1_555
C24_4 C20_4 1_555 1_555
C25_4 C24_4 1_555 1_555
C26_4 C25_4 1_555 1_555
C27_4 C26_4 1_555 1_555
C30_4 C27_4 1_555 1_555
H12_4 C17_4 1_555 1_555
H13_4 C19_4 1_555 1_555
H19_4 C25_4 1_555 1_555
H20_4 C26_4 1_555 1_555
Mg5 O1_5 1_555 1_555
Mg10 O1_5 1_555 1_555
O1_5 C7_5 1_555 1_555
O2_5 Mg10 1_555 1_555
O12_3 C8_5 1_555 1_555
O16_3 C8_5 1_555 1_555
O7_5 Mg10 1_555 1_555
O8_5 Mg10 1_555 1_555
C1_5 C2_5 1_555 1_555
C2_5 C3_5 1_555 1_555
C3_5 C4_5 1_555 1_555
C4_5 C5_5 1_555 1_555
C5_5 C6_5 1_555 1_555
C6_5 C1_5 1_555 1_555
C7_5 O2_5 1_555 1_555
C8_5 C3_5 1_555 1_555
H1_5 C2_5 1_555 1_555
H3_5 C6_5 1_555 1_555
H4_5 O7_5 1_555 1_555
H5_5 O7_5 1_555 1_555
H6_5 O8_5 1_555 1_555
H7_5 O8_5 1_555 1_555
Mg6 O11_5 1_555 1_555
Mg9_3 O9_5 1_555 1_555
Mg11 O14_5 1_555 1_555
O9_5 Mg5 1_555 1_555
O10_5 Mg9_3 1_555 1_555
O11_5 C23_5 1_555 1_555
O12_5 Mg5 1_555 1_555
O14_5 C23_5 1_555 1_555
O16_5 Mg9_3 1_555 1_555
O19 C30_5 1_555 1_555
O19_5 Mg5 1_555 1_555
O21 C30_5 1_555 1_555
O21_5 Mg10 1_555 1_555
O23_5 Mg9_3 1_555 1_555
O24_5 Mg9_3 1_555 1_555
C16_5 C17_5 1_555 1_555
C17_5 C18_5 1_555 1_555
C18_5 C19_5 1_555 1_555
C19_5 C20_5 1_555 1_555
C20_5 C21_5 1_555 1_555
C21_5 C16_5 1_555 1_555
C22_5 O9_5 1_555 1_555
C23_5 C18_5 1_555 1_555
C24_5 C20_5 1_555 1_555
C25_5 C24_5 1_555 1_555
C26_5 C25_5 1_555 1_555
C27_5 C26_5 1_555 1_555
C28_5 C27_5 1_555 1_555
C29_5 C24_5 1_555 1_555
C30_5 C27_5 1_555 1_555
H12_5 C17_5 1_555 1_555
H13_5 C19_5 1_555 1_555
H14_5 C21_5 1_555 1_555
H15_5 O23_5 1_555 1_555
H16_5 O23_5 1_555 1_555
H19_5 C25_5 1_555 1_555
H20_5 C26_5 1_555 1_555
H21_5 C28_5 1_555 1_555
H22_5 C29_5 1_555 1_555
C1_5 C7_5 1_555 1_555
O10_5 C22_5 1_555 1_555
C16_5 C22_5 1_555 1_555
C28_5 C29_5 1_555 1_555
O5_5 C15_5 1_555 1_555
O6_5 C15_5 1_555 1_555
C10_5 C9_5 1_555 1_555
C11_5 C10_5 1_555 1_555
C12_5 C11_5 1_555 1_555
C13_5 C12_5 1_555 1_555
C14_5 C9_5 1_555 1_555
C15_5 C12_5 1_555 1_555
H8_5 C10_5 1_555 1_555
H9_5 C11_5 1_555 1_555
H10_5 C13_5 1_555 1_555
H11_5 C14_5 1_555 1_555
Mg6_2 O5_5 1_555 1_555
Mg8_3 O6_5 1_555 1_555
C13_5 C14_5 1_555 1_555
Mg6_2 O11_6 1_555 1_555
Mg11_2 O14_6 1_555 1_555
O11_6 C23_6 1_555 1_555
O14_6 C23_6 1_555 1_555
O19_2 C30_6 1_555 1_555
O21_2 C30_6 1_555 1_555
C17_6 C18_6 1_555 1_555
C18_6 C19_6 1_555 1_555
C19_6 C20_6 1_555 1_555
C23_6 C18_6 1_555 1_555
C24_6 C20_6 1_555 1_555
C25_6 C24_6 1_555 1_555
C26_6 C25_6 1_555 1_555
C27_6 C26_6 1_555 1_555
C30_6 C27_6 1_555 1_555
H12_6 C17_6 1_555 1_555
H13_6 C19_6 1_555 1_555
H19_6 C25_6 1_555 1_555
H20_6 C26_6 1_555 1_555
Mg4 O1_6 1_555 1_555
Mg10_2 O1_6 1_555 1_555
O1_6 C7_6 1_555 1_555
O2_6 Mg10_2 1_555 1_555
O12 C8_6 1_555 1_555
O16 C8_6 1_555 1_555
O5_6 C15_6 1_555 1_555
O6_6 C15_6 1_555 1_555
O7_6 Mg10_2 1_555 1_555
O8_6 Mg10_2 1_555 1_555
C1_6 C2_6 1_555 1_555
C2_6 C3_6 1_555 1_555
C3_6 C4_6 1_555 1_555
C4_6 C5_6 1_555 1_555
C5_6 C6_6 1_555 1_555
C6_6 C1_6 1_555 1_555
C7_6 O2_6 1_555 1_555
C8_6 C3_6 1_555 1_555
C9_6 C5_6 1_555 1_555
C10_6 C9_6 1_555 1_555
C11_6 C10_6 1_555 1_555
C12_6 C11_6 1_555 1_555
C13_6 C12_6 1_555 1_555
C14_6 C9_6 1_555 1_555
C15_6 C12_6 1_555 1_555
H1_6 C2_6 1_555 1_555
H2_6 C4_6 1_555 1_555
H3_6 C6_6 1_555 1_555
H4_6 O7_6 1_555 1_555
H5_6 O7_6 1_555 1_555
H6_6 O8_6 1_555 1_555
H7_6 O8_6 1_555 1_555
H8_6 C10_6 1_555 1_555
H9_6 C11_6 1_555 1_555
H10_6 C13_6 1_555 1_555
H11_6 C14_6 1_555 1_555
Mg3 O5_6 1_555 1_555
Mg9 O9_6 1_555 1_555
Mg8 O6_6 1_555 1_555
O9_6 Mg4 1_555 1_555
O10_6 Mg9 1_555 1_555
O12_6 Mg4 1_555 1_555
O16_6 Mg9 1_555 1_555
O19_6 Mg4 1_555 1_555
O21_6 Mg10_2 1_555 1_555
O23_6 Mg9 1_555 1_555
O24_6 Mg9 1_555 1_555
C21_6 C16_6 1_555 1_555
C22_6 O9_6 1_555 1_555
H14_6 C21_6 1_555 1_555
H15_6 O23_6 1_555 1_555
H16_6 O23_6 1_555 1_555
H17_6 O24_6 1_555 1_555
H18_6 O24_6 1_555 1_555
H21_6 C28_6 1_555 1_555
H22_6 C29_6 1_555 1_555
C1_6 C7_6 1_555 1_555
C13_6 C14_6 1_555 1_555
O10_6 C22_6 1_555 1_555
C16_6 C22_6 1_555 1_555
C28_6 C29_6 1_555 1_555
O12_5 C8_7 1_555 1_555
O16_5 C8_7 1_555 1_555
O18_3 C15_7 1_555 1_555
O22_3 C15_7 1_555 1_555
C2_7 C3_7 1_555 1_555
C3_7 C4_7 1_555 1_555
C4_7 C5_7 1_555 1_555
C8_7 C3_7 1_555 1_555
C9_7 C5_7 1_555 1_555
C10_7 C9_7 1_555 1_555
C11_7 C10_7 1_555 1_555
C12_7 C11_7 1_555 1_555
C15_7 C12_7 1_555 1_555
H1_7 C2_7 1_555 1_555
H2_7 C4_7 1_555 1_555
H8_7 C10_7 1_555 1_555
H9_7 C11_7 1_555 1_555
Mg6_2 O1_7 1_555 1_555
Mg11_2 O1_7 1_555 1_555
O1_7 C7_7 1_555 1_555
O2_7 Mg11_2 1_555 1_555
O7_7 Mg11_2 1_555 1_555
O8_7 Mg11_2 1_555 1_555
C6_7 C1_7 1_555 1_555
C7_7 O2_7 1_555 1_555
H3_7 C6_7 1_555 1_555
H4_7 O7_7 1_555 1_555
H5_7 O7_7 1_555 1_555
H10_7 C13_7 1_555 1_555
H11_7 C14_7 1_555 1_555
Mg8_3 O9_7 1_555 1_555
O9_7 Mg6_2 1_555 1_555
O10_7 Mg8_3 1_555 1_555
O13_2 C23_7 1_555 1_555
O15_2 C23_7 1_555 1_555
O23_7 Mg8_3 1_555 1_555
O24_7 Mg8_3 1_555 1_555
C16_7 C17_7 1_555 1_555
C17_7 C18_7 1_555 1_555
C18_7 C19_7 1_555 1_555
C19_7 C20_7 1_555 1_555
C20_7 C21_7 1_555 1_555
C21_7 C16_7 1_555 1_555
C22_7 O9_7 1_555 1_555
C23_7 C18_7 1_555 1_555
H12_7 C17_7 1_555 1_555
H14_7 C21_7 1_555 1_555
H15_7 O23_7 1_555 1_555
H16_7 O23_7 1_555 1_555
H17_7 O24_7 1_555 1_555
H18_7 O24_7 1_555 1_555
C1_7 C7_7 1_555 1_555
C13_7 C14_7 1_555 1_555
O10_7 C22_7 1_555 1_555
C16_7 C22_7 1_555 1_555
O19_6 C30_7 1_555 1_555
O21_6 C30_7 1_555 1_555
C25_7 C24_7 1_555 1_555
C26_7 C25_7 1_555 1_555
C27_7 C26_7 1_555 1_555
C28_7 C27_7 1_555 1_555
C29_7 C24_7 1_555 1_555
C30_7 C27_7 1_555 1_555
H19_7 C25_7 1_555 1_555
H20_7 C26_7 1_555 1_555
H21_7 C28_7 1_555 1_555
H22_7 C29_7 1_555 1_555
C28_7 C29_7 1_555 1_555
O19_4 C30_8 1_555 1_555
O21_4 C30_8 1_555 1_555
C25_8 C24_8 1_555 1_555
C26_8 C25_8 1_555 1_555
C27_8 C26_8 1_555 1_555
C28_8 C27_8 1_555 1_555
C29_8 C24_8 1_555 1_555
C30_8 C27_8 1_555 1_555
H19_8 C25_8 1_555 1_555
H20_8 C26_8 1_555 1_555
H21_8 C28_8 1_555 1_555
H22_8 C29_8 1_555 1_555
C28_8 C29_8 1_555 1_555
Mg3 O1_8 1_555 1_555
Mg11_3 O1_8 1_555 1_555
O1_8 C7_8 1_555 1_555
O2_8 Mg11_3 1_555 1_555
O12_6 C8_8 1_555 1_555
O16_6 C8_8 1_555 1_555
O18 C15_8 1_555 1_555
O22 C15_8 1_555 1_555
O7_8 Mg11_3 1_555 1_555
O8_8 Mg11_3 1_555 1_555
C1_8 C2_8 1_555 1_555
C2_8 C3_8 1_555 1_555
C3_8 C4_8 1_555 1_555
C4_8 C5_8 1_555 1_555
C5_8 C6_8 1_555 1_555
C6_8 C1_8 1_555 1_555
C7_8 O2_8 1_555 1_555
C8_8 C3_8 1_555 1_555
C9_8 C5_8 1_555 1_555
C10_8 C9_8 1_555 1_555
C11_8 C10_8 1_555 1_555
C12_8 C11_8 1_555 1_555
C13_8 C12_8 1_555 1_555
C14_8 C9_8 1_555 1_555
C15_8 C12_8 1_555 1_555
H1_8 C2_8 1_555 1_555
H2_8 C4_8 1_555 1_555
H3_8 C6_8 1_555 1_555
H4_8 O7_8 1_555 1_555
H5_8 O7_8 1_555 1_555
H8_8 C10_8 1_555 1_555
H9_8 C11_8 1_555 1_555
H10_8 C13_8 1_555 1_555
H11_8 C14_8 1_555 1_555
Mg8 O9_8 1_555 1_555
O9_8 Mg3 1_555 1_555
O10_8 Mg8 1_555 1_555
O13_3 C23_8 1_555 1_555
O15_3 C23_8 1_555 1_555
O23_8 Mg8 1_555 1_555
O24_8 Mg8 1_555 1_555
C16_8 C17_8 1_555 1_555
C17_8 C18_8 1_555 1_555
C18_8 C19_8 1_555 1_555
C19_8 C20_8 1_555 1_555
C20_8 C21_8 1_555 1_555
C21_8 C16_8 1_555 1_555
C22_8 O9_8 1_555 1_555
C23_8 C18_8 1_555 1_555
H12_8 C17_8 1_555 1_555
H14_8 C21_8 1_555 1_555
H15_8 O23_8 1_555 1_555
H16_8 O23_8 1_555 1_555
H17_8 O24_8 1_555 1_555
H18_8 O24_8 1_555 1_555
C1_8 C7_8 1_555 1_555
C13_8 C14_8 1_555 1_555
O10_8 C22_8 1_555 1_555
C16_8 C22_8 1_555 1_555
Mg6 O1_9 1_555 1_555
Mg11 O1_9 1_555 1_555
O1_9 C7_9 1_555 1_555
O2_9 Mg11 1_555 1_555
O7_9 Mg11 1_555 1_555
O8_9 Mg11 1_555 1_555
C6_9 C1_9 1_555 1_555
C7_9 O2_9 1_555 1_555
H3_9 C6_9 1_555 1_555
H4_9 O7_9 1_555 1_555
H5_9 O7_9 1_555 1_555
H6_9 O8_9 1_555 1_555
H7_9 O8_9 1_555 1_555
H10_9 C13_9 1_555 1_555
H11_9 C14_9 1_555 1_555
Mg8_2 O9_9 1_555 1_555
O9_9 Mg6 1_555 1_555
O10_9 Mg8_2 1_555 1_555
O13 C23_9 1_555 1_555
O15 C23_9 1_555 1_555
O19_5 C30_9 1_555 1_555
O21_5 C30_9 1_555 1_555
O23_9 Mg8_2 1_555 1_555
O24_9 Mg8_2 1_555 1_555
C16_9 C17_9 1_555 1_555
C17_9 C18_9 1_555 1_555
C18_9 C19_9 1_555 1_555
C19_9 C20_9 1_555 1_555
C20_9 C21_9 1_555 1_555
C21_9 C16_9 1_555 1_555
C22_9 O9_9 1_555 1_555
C23_9 C18_9 1_555 1_555
C24_9 C20_9 1_555 1_555
C25_9 C24_9 1_555 1_555
C26_9 C25_9 1_555 1_555
C27_9 C26_9 1_555 1_555
C28_9 C27_9 1_555 1_555
C29_9 C24_9 1_555 1_555
C30_9 C27_9 1_555 1_555
H12_9 C17_9 1_555 1_555
H13_9 C19_9 1_555 1_555
H14_9 C21_9 1_555 1_555
H15_9 O23_9 1_555 1_555
H16_9 O23_9 1_555 1_555
H17_9 O24_9 1_555 1_555
H18_9 O24_9 1_555 1_555
H19_9 C25_9 1_555 1_555
H20_9 C26_9 1_555 1_555
H21_9 C28_9 1_555 1_555
H22_9 C29_9 1_555 1_555
C1_9 C7_9 1_555 1_555
C13_9 C14_9 1_555 1_555
O10_9 C22_9 1_555 1_555
C16_9 C22_9 1_555 1_555
C28_9 C29_9 1_555 1_555
O12_4 C8_9 1_555 1_555
O16_4 C8_9 1_555 1_555
O18_2 C15_9 1_555 1_555
O22_2 C15_9 1_555 1_555
C2_9 C3_9 1_555 1_555
C3_9 C4_9 1_555 1_555
C4_9 C5_9 1_555 1_555
C8_9 C3_9 1_555 1_555
C9_9 C5_9 1_555 1_555
C10_9 C9_9 1_555 1_555
C11_9 C10_9 1_555 1_555
C12_9 C11_9 1_555 1_555
C15_9 C12_9 1_555 1_555
H1_9 C2_9 1_555 1_555
H2_9 C4_9 1_555 1_555
H8_9 C10_9 1_555 1_555
H9_9 C11_9 1_555 1_555

#END
