
###############################################################################
#
# This file contains modified crystal structure data generated from the
# MOF subset of the Cambridge Structural Database (CSD) v543 
# hosted by the Cambridge Crystallographic Data Centre (CCDC).
#
# This work is licensed under the Creative Commons
# Attribution-NonCommercial-ShareAlike 4.0 International License.
# To view a copy of this license, visit
# http://creativecommons.org/licenses/by-nc-sa/4.0/
# or send a letter to
# Creative Commons, PO Box 1866, Mountain View, CA 94042, USA.
#
# CIF created using the CSD Python API on 29 September 2022
# The structure has been converted into the P1 space group
# The structure has a 3D framework
# The original CSD entry WUHMAP is in the rhombohedral crystal system
# The framework has been calculated to contain at least 10.0% void space
# The void calculation uses a probe of radius 1.32A, grid spacing 0.4
# H atom positions have been added when not included in the experimental data
# Generated hydrogen atom positions removed from atoms on special positions
#
###############################################################################

data_WUHMAP
_chemical_formula_moiety         '(C54 H162 Cd18 N18 O67 P18)n'
_symmetry_cell_setting           triclinic
_symmetry_space_group_name_H-M   'P 1'
_symmetry_Int_Tables_number      1
_space_group_name_Hall           'P 1'
loop_
_symmetry_equiv_pos_site_id
_symmetry_equiv_pos_as_xyz
1 x,y,z
_cell_length_a                   27.4100(8)
_cell_length_b                   27.4100(8)
_cell_length_c                   6.7279(2)
_cell_angle_alpha                90
_cell_angle_beta                 90
_cell_angle_gamma                120
_cell_volume                     4377.52
loop_
_atom_site_label
_atom_site_type_symbol
_atom_site_fract_x
_atom_site_fract_y
_atom_site_fract_z
_atom_site_U_iso_or_equiv
_atom_site_thermal_displace_type
C4 C 0.5594(14) 0.0141(16) 0.344(5) 0.0117 Uiso
C5 C 0.5490(15) 0.0538(15) 0.052(5) 0.0117 Uiso
Cd4 Cd 0.39889(20) 0.02949(14) 0.0131(6) 0.0117 Uiso
Cd5 Cd 0.70273(14) 0.06555(20) 0.6535(6) 0.0117 Uiso
O13 O 0.3259(10) 0.0494(15) 0.022(4) 0.0117 Uiso
O14 O 0.7160(15) 0.0568(11) 0.312(4) 0.0117 Uiso
H3 H 0.528385 0.0694167 0.150764 . .
H4 H 0.593724 0.0847029 0.0425742 . .
H5 H 0.810422 0.0311273 0.201495 . .
H15 H 0.597989 0.0548724 0.346402 . .
H16 H 0.526424 0.0170093 0.424115 . .
Cd1 Cd 0.30384(14) 0.03606(14) 0.6798(6) 0.0117 Uiso
P1 P 0.4273(4) 0.0388(6) 0.530(2) 0.0117 Uiso
O1 O 0.4815(9) 0.0864(11) 0.462(4) 0.0117 Uiso
O2 O 0.3962(10) 0.0554(10) 0.678(4) 0.0117 Uiso
O3 O 0.3901(11) 0.0074(10) 0.355(4) 0.0117 Uiso
O4 O 0.2104(15) 0.0094(13) 0.762(4) 0.0608 Uiso
N1 N 0.4590(14) 0.0020(13) 0.870(4) 0.0117 Uiso
C3 C 0.5223(15) 0.0428(19) 0.845(5) 0.0117 Uiso
O10 O 0.2779(10) 0.0075(14) 0.345(4) 0.0117 Uiso
N4 N 0.3313(13) 0.1237(19) 0.537(4) 0.0117 Uiso
H9 H 0.529314 0.0821441 0.779654 . .
H10 H 0.540634 0.0240998 0.749473 . .
H13 H 0.210258 0.0322707 0.876228 . .
H14 H 0.1919 0.0157968 0.645984 . .
P2 P 0.5727(4) 0.9612(6) 0.470(2) 0.0117 Uiso
O5 O 0.5185(9) 0.9136(11) 0.538(4) 0.0117 Uiso
O6 O 0.6038(10) 0.9446(10) 0.322(4) 0.0117 Uiso
O7 O 0.6099(11) 0.9926(10) 0.645(4) 0.0117 Uiso
N2 N 0.5410(14) 0.9980(13) 0.130(4) 0.0117 Uiso
C6 C 0.4777(15) 0.9572(19) 0.155(5) 0.0117 Uiso
Cd2 Cd 0.69616(14) 0.96394(14) 0.3202(6) 0.0117 Uiso
O8 O 0.7896(15) 0.9906(13) 0.238(4) 0.0608 Uiso
Cd8 Cd 0.60111(20) 0.97051(14) 0.9869(6) 0.0117 Uiso
O9 O 0.7221(10) 0.9925(14) 0.655(4) 0.0117 Uiso
N3 N 0.6687(13) 0.8763(19) 0.463(4) 0.0117 Uiso
H6 H 0.8081 0.984203 0.354016 . .
H11 H 0.470686 0.917856 0.220346 . .
H12 H 0.459366 0.9759 0.250527 . .
C1 C 0.4406(14) 0.9859(16) 0.656(5) 0.0117 Uiso
C2 C 0.4510(15) 0.9462(15) 0.948(5) 0.0117 Uiso
Cd6 Cd 0.29727(14) 0.93445(20) 0.3465(6) 0.0117 Uiso
O11 O 0.2840(15) 0.9432(11) 0.688(4) 0.0117 Uiso
O12 O 0.6741(10) 0.9506(15) 0.978(4) 0.0117 Uiso
H1 H 0.473576 0.982991 0.575885 . .
H2 H 0.402011 0.945128 0.653598 . .
H7 H 0.471615 0.930583 0.849236 . .
H8 H 0.406276 0.915297 0.957426 . .
P2_2 P 0.3885(7) 0.4273(4) 0.470(2) 0.0117 Uiso
O5_2 O 0.3951(14) 0.4815(9) 0.538(4) 0.0117 Uiso
O6_2 O 0.3408(14) 0.3962(10) 0.322(4) 0.0117 Uiso
O7_2 O 0.3827(15) 0.3901(11) 0.645(4) 0.0117 Uiso
N2_2 N 0.4570(19) 0.4590(14) 0.130(4) 0.0117 Uiso
C4_2 C 0.4547(21) 0.4406(14) 0.344(5) 0.0117 Uiso
C5_2 C 0.5048(21) 0.4510(15) 0.052(5) 0.0117 Uiso
C6_2 C 0.4795(24) 0.5223(15) 0.155(5) 0.0117 Uiso
Cd2_2 Cd 0.26778(20) 0.30384(14) 0.3202(6) 0.0117 Uiso
O8_2 O 0.2010(20) 0.2104(15) 0.238(4) 0.0608 Uiso
Cd4_2 Cd 0.63061(24) 0.60111(20) 0.0131(6) 0.0117 Uiso
Cd5_2 Cd 0.36283(24) 0.29727(14) 0.6535(6) 0.0117 Uiso
Cd8_2 Cd 0.36939(24) 0.39889(20) 0.9869(6) 0.0117 Uiso
O9_2 O 0.2705(17) 0.2779(10) 0.655(4) 0.0117 Uiso
O13_2 O 0.7234(18) 0.6741(10) 0.022(4) 0.0117 Uiso
O14_2 O 0.3407(19) 0.2840(15) 0.312(4) 0.0117 Uiso
N3_2 N 0.2077(23) 0.3313(13) 0.463(4) 0.0117 Uiso
H3_2 H 0.541032 0.471615 0.150764 . .
H4_2 H 0.490979 0.406276 0.0425742 . .
H11_2 H 0.447169 0.529314 0.220346 . .
H12_2 H 0.516534 0.540634 0.250527 . .
H15_2 H 0.456884 0.402011 0.346402 . .
H16_2 H 0.490585 0.473576 0.424115 . .
Cd1_2 Cd 0.73222(20) 0.69616(14) 0.6798(6) 0.0117 Uiso
P1_2 P 0.6115(7) 0.5727(4) 0.530(2) 0.0117 Uiso
O1_2 O 0.6049(14) 0.5185(9) 0.462(4) 0.0117 Uiso
O2_2 O 0.6592(14) 0.6038(10) 0.678(4) 0.0117 Uiso
O3_2 O 0.6173(15) 0.6099(11) 0.355(4) 0.0117 Uiso
O4_2 O 0.7990(20) 0.7896(15) 0.762(4) 0.0608 Uiso
N1_2 N 0.5430(19) 0.5410(14) 0.870(4) 0.0117 Uiso
C1_2 C 0.5453(21) 0.5594(14) 0.656(5) 0.0117 Uiso
C2_2 C 0.4952(21) 0.5490(15) 0.948(5) 0.0117 Uiso
C3_2 C 0.5205(24) 0.4777(15) 0.845(5) 0.0117 Uiso
Cd6_2 Cd 0.63717(24) 0.70273(14) 0.3465(6) 0.0117 Uiso
O10_2 O 0.7295(17) 0.7221(10) 0.345(4) 0.0117 Uiso
O11_2 O 0.6593(19) 0.7160(15) 0.688(4) 0.0117 Uiso
O12_2 O 0.2766(18) 0.3259(10) 0.978(4) 0.0117 Uiso
N4_2 N 0.7923(23) 0.6687(13) 0.537(4) 0.0117 Uiso
H1_2 H 0.509415 0.526424 0.575885 . .
H2_2 H 0.543116 0.597989 0.653598 . .
H7_2 H 0.458968 0.528385 0.849236 . .
H8_2 H 0.509021 0.593724 0.957426 . .
H9_2 H 0.552831 0.470686 0.779654 . .
H10_2 H 0.483466 0.459366 0.749473 . .
P2_3 P 0.0388(6) 0.6115(7) 0.470(2) 0.0117 Uiso
O5_3 O 0.0864(11) 0.6049(14) 0.538(4) 0.0117 Uiso
O6_3 O 0.0554(10) 0.6592(14) 0.322(4) 0.0117 Uiso
O7_3 O 0.0074(10) 0.6173(15) 0.645(4) 0.0117 Uiso
N2_3 N 0.0020(13) 0.5430(19) 0.130(4) 0.0117 Uiso
C6_3 C 0.0428(19) 0.5205(24) 0.155(5) 0.0117 Uiso
Cd2_3 Cd 0.03606(14) 0.73222(20) 0.3202(6) 0.0117 Uiso
O8_3 O 0.0094(13) 0.7990(20) 0.238(4) 0.0608 Uiso
Cd8_3 Cd 0.02949(14) 0.63061(24) 0.9869(6) 0.0117 Uiso
O9_3 O 0.0075(14) 0.7295(17) 0.655(4) 0.0117 Uiso
N3_3 N 0.1237(19) 0.7923(23) 0.463(4) 0.0117 Uiso
H6_2 H 0.0157968 0.823897 0.354016 . .
H11_3 H 0.0821441 0.552831 0.220346 . .
H12_3 H 0.0240998 0.483466 0.250527 . .
C1_3 C 0.0141(16) 0.4547(21) 0.656(5) 0.0117 Uiso
C2_3 C 0.0538(15) 0.5048(21) 0.948(5) 0.0117 Uiso
Cd6_3 Cd 0.06555(20) 0.36283(24) 0.3465(6) 0.0117 Uiso
O11_3 O 0.0568(11) 0.3407(19) 0.688(4) 0.0117 Uiso
O12_3 O 0.0494(15) 0.7234(18) 0.978(4) 0.0117 Uiso
H1_3 H 0.0170093 0.490585 0.575885 . .
H2_3 H 0.0548724 0.456884 0.653598 . .
H7_3 H 0.0694167 0.541032 0.849236 . .
H8_3 H 0.0847029 0.490979 0.957426 . .
C4_3 C 0.9859(16) 0.5453(21) 0.344(5) 0.0117 Uiso
C5_3 C 0.9462(15) 0.4952(21) 0.052(5) 0.0117 Uiso
Cd4_3 Cd 0.97051(14) 0.36939(24) 0.0131(6) 0.0117 Uiso
Cd5_3 Cd 0.93445(20) 0.63717(24) 0.6535(6) 0.0117 Uiso
O13_3 O 0.9506(15) 0.2766(18) 0.022(4) 0.0117 Uiso
O14_3 O 0.9432(11) 0.6593(19) 0.312(4) 0.0117 Uiso
H3_3 H 0.930583 0.458968 0.150764 . .
H4_3 H 0.915297 0.509021 0.0425742 . .
H5_2 H 0.968873 0.779294 0.201495 . .
H15_3 H 0.945128 0.543116 0.346402 . .
H16_3 H 0.982991 0.509415 0.424115 . .
Cd1_3 Cd 0.96394(14) 0.26778(20) 0.6798(6) 0.0117 Uiso
P1_3 P 0.9612(6) 0.3885(7) 0.530(2) 0.0117 Uiso
O1_3 O 0.9136(11) 0.3951(14) 0.462(4) 0.0117 Uiso
O2_3 O 0.9446(10) 0.3408(14) 0.678(4) 0.0117 Uiso
O3_3 O 0.9926(10) 0.3827(15) 0.355(4) 0.0117 Uiso
O4_3 O 0.9906(13) 0.2010(20) 0.762(4) 0.0608 Uiso
N1_3 N 0.9980(13) 0.4570(19) 0.870(4) 0.0117 Uiso
C3_3 C 0.9572(19) 0.4795(24) 0.845(5) 0.0117 Uiso
O10_3 O 0.9925(14) 0.2705(17) 0.345(4) 0.0117 Uiso
N4_3 N 0.8763(19) 0.2077(23) 0.537(4) 0.0117 Uiso
H9_3 H 0.917856 0.447169 0.779654 . .
H10_3 H 0.9759 0.516534 0.749473 . .
H13_2 H 0.967729 0.177988 0.876228 . .
H14_2 H 0.984203 0.176103 0.645984 . .
O2_4 O 0.0629(10) 0.3887(10) 0.011(4) 0.0117 Uiso
N1_4 N 0.1257(14) 0.3353(13) 0.203(4) 0.0117 Uiso
C2_4 C 0.1177(15) 0.2795(15) 0.281(5) 0.0117 Uiso
C3_4 C 0.1890(15) 0.3761(19) 0.178(5) 0.0117 Uiso
P2_4 P 0.2394(4) 0.2945(6) 0.803(2) 0.0117 Uiso
O5_4 O 0.1852(9) 0.2469(11) 0.871(4) 0.0117 Uiso
C4_4 C 0.2261(14) 0.3474(16) 0.677(5) 0.0117 Uiso
C5_4 C 0.2157(15) 0.3871(15) 0.385(5) 0.0117 Uiso
C6_4 C 0.1444(15) 0.2905(19) 0.488(5) 0.0117 Uiso
O8_4 O 0.4563(15) 0.3239(13) 0.571(4) 0.0608 Uiso
O9_4 O 0.3887(10) 0.3259(14) 0.989(4) 0.0117 Uiso
N3_4 N 0.3353(13) 0.2097(19) 0.797(4) 0.0117 Uiso
H3_4 H 0.195052 0.40275 0.484097 . .
H4_4 H 0.260391 0.418036 0.375908 . .
H7_4 H 0.138282 0.263917 0.182569 . .
H8_4 H 0.0729427 0.24863 0.290759 . .
H9_4 H 0.19598 0.415477 0.112987 . .
H10_4 H 0.207301 0.357433 0.0828059 . .
H11_4 H 0.137353 0.251189 0.55368 . .
H12_4 H 0.126033 0.309234 0.583861 . .
H15_4 H 0.264655 0.388206 0.679736 . .
H16_4 H 0.193091 0.350343 0.757448 . .
P1_4 P 0.0940(4) 0.3721(6) 0.863(2) 0.0117 Uiso
O1_4 O 0.1482(9) 0.4197(11) 0.795(4) 0.0117 Uiso
C1_4 C 0.1073(14) 0.3192(16) 0.989(5) 0.0117 Uiso
H1_4 H 0.140242 0.316324 0.909219 . .
H2_4 H 0.0686779 0.278461 0.986931 . .
O4_4 O 0.8771(15) 0.3427(13) 0.095(4) 0.0608 Uiso
H13_3 H 0.876925 0.365604 0.209561 . .
H14_3 H 0.858566 0.34913 0.979318 . .
O4_5 O 0.4657(20) 0.1229(15) 0.095(4) 0.0608 Uiso
H13_4 H 0.488679 0.123075 0.209561 . .
H14_4 H 0.490564 0.141434 0.979318 . .
O2_5 O 0.3259(14) 0.9371(10) 0.011(4) 0.0117 Uiso
N1_5 N 0.2097(19) 0.8743(14) 0.203(4) 0.0117 Uiso
C2_5 C 0.1619(21) 0.8823(15) 0.281(5) 0.0117 Uiso
C3_5 C 0.1872(24) 0.8110(15) 0.178(5) 0.0117 Uiso
P2_5 P 0.0552(7) 0.7606(4) 0.803(2) 0.0117 Uiso
O5_5 O 0.0618(14) 0.8148(9) 0.871(4) 0.0117 Uiso
C4_5 C 0.1214(21) 0.7739(14) 0.677(5) 0.0117 Uiso
C5_5 C 0.1715(21) 0.7843(15) 0.385(5) 0.0117 Uiso
C6_5 C 0.1462(24) 0.8556(15) 0.488(5) 0.0117 Uiso
H3_5 H 0.207698 0.804948 0.484097 . .
H4_5 H 0.157646 0.739609 0.375908 . .
H7_5 H 0.125635 0.861718 0.182569 . .
H8_5 H 0.175688 0.927057 0.290759 . .
H9_5 H 0.219497 0.80402 0.112987 . .
H10_5 H 0.150132 0.792699 0.0828059 . .
H11_5 H 0.113836 0.862647 0.55368 . .
H12_5 H 0.183201 0.873967 0.583861 . .
H15_5 H 0.12355 0.735345 0.679736 . .
H16_5 H 0.157251 0.806909 0.757448 . .
P1_5 P 0.2782(7) 0.9060(4) 0.863(2) 0.0117 Uiso
O1_5 O 0.2716(14) 0.8518(9) 0.795(4) 0.0117 Uiso
C1_5 C 0.2120(21) 0.8927(14) 0.989(5) 0.0117 Uiso
H1_5 H 0.176082 0.859758 0.909219 . .
H2_5 H 0.209783 0.931322 0.986931 . .
O8_5 O 0.8677(20) 0.5437(15) 0.571(4) 0.0608 Uiso
O9_5 O 0.9371(17) 0.6113(10) 0.989(4) 0.0117 Uiso
N3_5 N 0.8743(23) 0.6647(13) 0.797(4) 0.0117 Uiso
O8_6 O 0.6761(13) 0.1323(20) 0.571(4) 0.0608 Uiso
O9_6 O 0.6741(14) 0.0629(17) 0.989(4) 0.0117 Uiso
N3_6 N 0.7903(19) 0.1257(23) 0.797(4) 0.0117 Uiso
O2_6 O 0.6113(10) 0.6741(14) 0.011(4) 0.0117 Uiso
O4_6 O 0.6573(13) 0.5343(20) 0.095(4) 0.0608 Uiso
N1_6 N 0.6647(13) 0.7903(19) 0.203(4) 0.0117 Uiso
C2_6 C 0.7205(15) 0.8381(21) 0.281(5) 0.0117 Uiso
C3_6 C 0.6239(19) 0.8128(24) 0.178(5) 0.0117 Uiso
P2_6 P 0.7055(6) 0.9448(7) 0.803(2) 0.0117 Uiso
O5_6 O 0.7531(11) 0.9382(14) 0.871(4) 0.0117 Uiso
C4_6 C 0.6526(16) 0.8786(21) 0.677(5) 0.0117 Uiso
C5_6 C 0.6129(15) 0.8285(21) 0.385(5) 0.0117 Uiso
C6_6 C 0.7095(19) 0.8538(24) 0.488(5) 0.0117 Uiso
H3_6 H 0.59725 0.792302 0.484097 . .
H4_6 H 0.581964 0.842354 0.375908 . .
H7_6 H 0.736083 0.874365 0.182569 . .
H8_6 H 0.75137 0.824312 0.290759 . .
H9_6 H 0.584523 0.780503 0.112987 . .
H10_6 H 0.642567 0.849868 0.0828059 . .
H11_6 H 0.748811 0.886164 0.55368 . .
H12_6 H 0.690766 0.816799 0.583861 . .
H13_5 H 0.634396 0.511321 0.209561 . .
H15_6 H 0.611794 0.87645 0.679736 . .
H16_6 H 0.649657 0.842749 0.757448 . .
P1_6 P 0.6279(6) 0.7218(7) 0.863(2) 0.0117 Uiso
O1_6 O 0.5803(11) 0.7284(14) 0.795(4) 0.0117 Uiso
C1_6 C 0.6808(16) 0.7880(21) 0.989(5) 0.0117 Uiso
H1_6 H 0.683676 0.823918 0.909219 . .
H2_6 H 0.721539 0.790217 0.986931 . .
H14_5 H 0.65087 0.509436 0.979318 . .
H6_3 H 0.141434 0.65087 0.0206823 . .
O8_7 O 0.1229(15) 0.6573(13) 0.905(4) 0.0608 Uiso
H5_3 H 0.143755 0.697794 0.868162 . .
P2_7 P 0.9060(4) 0.6279(6) 0.137(2) 0.0117 Uiso
O5_7 O 0.8518(9) 0.5803(11) 0.205(4) 0.0117 Uiso
C4_7 C 0.8927(14) 0.6808(16) 0.011(5) 0.0117 Uiso
H15_7 H 0.931322 0.721539 0.0130691 . .
H16_7 H 0.859758 0.683676 0.0907814 . .
P1_7 P 0.7606(4) 0.7055(6) 0.197(2) 0.0117 Uiso
O1_7 O 0.8148(9) 0.7531(11) 0.129(4) 0.0117 Uiso
O4_7 O 0.5437(15) 0.6761(13) 0.429(4) 0.0608 Uiso
C1_7 C 0.7739(14) 0.6526(16) 0.323(5) 0.0117 Uiso
C2_7 C 0.7843(15) 0.6129(15) 0.615(5) 0.0117 Uiso
C3_7 C 0.8556(15) 0.7095(19) 0.512(5) 0.0117 Uiso
C5_7 C 0.8823(15) 0.7205(15) 0.719(5) 0.0117 Uiso
C6_7 C 0.8110(15) 0.6239(19) 0.822(5) 0.0117 Uiso
H1_7 H 0.806909 0.649657 0.242552 . .
H2_7 H 0.735345 0.611794 0.320264 . .
H3_7 H 0.861718 0.736083 0.817431 . .
H4_7 H 0.927057 0.75137 0.709241 . .
H7_7 H 0.804948 0.59725 0.515903 . .
H8_7 H 0.739609 0.581964 0.624092 . .
H9_7 H 0.862647 0.748811 0.44632 . .
H10_7 H 0.873967 0.690766 0.416139 . .
H11_7 H 0.80402 0.584523 0.887013 . .
H12_7 H 0.792699 0.642567 0.917194 . .
O4_8 O 0.1323(20) 0.4563(15) 0.429(4) 0.0608 Uiso
P2_8 P 0.7218(7) 0.0940(4) 0.137(2) 0.0117 Uiso
O5_8 O 0.7284(14) 0.1482(9) 0.205(4) 0.0117 Uiso
C4_8 C 0.7880(21) 0.1073(14) 0.011(5) 0.0117 Uiso
H15_8 H 0.790217 0.0686779 0.0130691 . .
H16_8 H 0.823918 0.140242 0.0907814 . .
P1_8 P 0.9448(7) 0.2394(4) 0.197(2) 0.0117 Uiso
O1_8 O 0.9382(14) 0.1852(9) 0.129(4) 0.0117 Uiso
C1_8 C 0.8786(21) 0.2261(14) 0.323(5) 0.0117 Uiso
C2_8 C 0.8285(21) 0.2157(15) 0.615(5) 0.0117 Uiso
C3_8 C 0.8538(24) 0.1444(15) 0.512(5) 0.0117 Uiso
C5_8 C 0.8381(21) 0.1177(15) 0.719(5) 0.0117 Uiso
C6_8 C 0.8128(24) 0.1890(15) 0.822(5) 0.0117 Uiso
H1_8 H 0.842749 0.193091 0.242552 . .
H2_8 H 0.87645 0.264655 0.320264 . .
H3_8 H 0.874365 0.138282 0.817431 . .
H4_8 H 0.824312 0.0729427 0.709241 . .
H7_8 H 0.792302 0.195052 0.515903 . .
H8_8 H 0.842354 0.260391 0.624092 . .
H9_8 H 0.886164 0.137353 0.44632 . .
H10_8 H 0.816799 0.126033 0.416139 . .
H11_8 H 0.780503 0.19598 0.887013 . .
H12_8 H 0.849868 0.207301 0.917194 . .
H6_4 H 0.509436 0.858566 0.0206823 . .
O8_8 O 0.5343(20) 0.8771(15) 0.905(4) 0.0608 Uiso
H5_4 H 0.554039 0.856245 0.868162 . .
P2_9 P 0.3721(6) 0.2782(7) 0.137(2) 0.0117 Uiso
O5_9 O 0.4197(11) 0.2716(14) 0.205(4) 0.0117 Uiso
C4_9 C 0.3192(16) 0.2120(21) 0.011(5) 0.0117 Uiso
H6_5 H 0.34913 0.490564 0.0206823 . .
H15_9 H 0.278461 0.209783 0.0130691 . .
H16_9 H 0.316324 0.176082 0.0907814 . .
P1_9 P 0.2945(6) 0.0552(7) 0.197(2) 0.0117 Uiso
O1_9 O 0.2469(11) 0.0618(14) 0.129(4) 0.0117 Uiso
C1_9 C 0.3474(16) 0.1214(21) 0.323(5) 0.0117 Uiso
C2_9 C 0.3871(15) 0.1715(21) 0.615(5) 0.0117 Uiso
C3_9 C 0.2905(19) 0.1462(24) 0.512(5) 0.0117 Uiso
C5_9 C 0.2795(15) 0.1619(21) 0.719(5) 0.0117 Uiso
C6_9 C 0.3761(19) 0.1872(24) 0.822(5) 0.0117 Uiso
O8_9 O 0.3427(13) 0.4657(20) 0.905(4) 0.0608 Uiso
H1_9 H 0.350343 0.157251 0.242552 . .
H2_9 H 0.388206 0.12355 0.320264 . .
H3_9 H 0.263917 0.125635 0.817431 . .
H4_9 H 0.24863 0.175688 0.709241 . .
H5_5 H 0.302206 0.445961 0.868162 . .
H7_9 H 0.40275 0.207698 0.515903 . .
H8_9 H 0.418036 0.157646 0.624092 . .
H9_9 H 0.251189 0.113836 0.44632 . .
H10_9 H 0.309234 0.183201 0.416139 . .
H11_9 H 0.415477 0.219497 0.887013 . .
H12_9 H 0.357433 0.150132 0.917194 . .
O4_9 O 0.3239(13) 0.8677(20) 0.429(4) 0.0608 Uiso
H13_6 H 0.789742 0.967729 0.123772 . .
H5_6 H 0.189578 0.968873 0.798505 . .
H13_7 H 0.0322707 0.822012 0.123772 . .
H5_7 H 0.0311273 0.220706 0.798505 . .
H13_8 H 0.123075 0.634396 0.790439 . .
H13_9 H 0.511321 0.876925 0.790439 . .
H13_10 H 0.365604 0.488679 0.790439 . .
H5_8 H 0.856245 0.302206 0.131838 . .
H5_9 H 0.445961 0.143755 0.131838 . .
H5_10 H 0.697794 0.554039 0.131838 . .
loop_
_geom_bond_atom_site_label_1
_geom_bond_atom_site_label_2
_geom_bond_site_symmetry_1
_geom_bond_site_symmetry_2
Cd4 O13 1_555 1_555
Cd5 O14 1_555 1_555
C5 H3 1_555 1_555
C5 H4 1_555 1_555
C4 H15 1_555 1_555
C4 H16 1_555 1_555
Cd1 O2 1_555 1_555
P1 O1 1_555 1_555
O2 P1 1_555 1_555
O3 P1 1_555 1_555
O4 Cd1 1_555 1_555
C3 N1 1_555 1_555
Cd4 O3 1_555 1_555
O10 Cd1 1_555 1_555
N4 Cd1 1_555 1_555
C3 H9 1_555 1_555
C3 H10 1_555 1_555
O4 H13 1_555 1_555
O4 H14 1_555 1_555
P2 O5 1_555 1_555
O6 P2 1_555 1_555
O7 P2 1_555 1_555
Cd2 O6 1_555 1_555
O8 Cd2 1_555 1_555
Cd8 O7 1_555 1_555
O9 Cd2 1_555 1_555
N3 Cd2 1_555 1_555
N2 C6 1_555 1_555
O8 H6 1_555 1_555
C6 H11 1_555 1_555
C6 H12 1_555 1_555
Cd6 O11 1_555 1_555
Cd8 O12 1_555 1_555
C1 H1 1_555 1_555
C1 H2 1_555 1_555
C2 H7 1_555 1_555
C2 H8 1_555 1_555
P2_2 O5_2 1_555 1_555
O6_2 P2_2 1_555 1_555
O7_2 P2_2 1_555 1_555
N2_2 C4_2 1_555 1_555
C4_2 P2_2 1_555 1_555
Cd2_2 O6_2 1_555 1_555
O8_2 Cd2_2 1_555 1_555
Cd5_2 O7_2 1_555 1_555
Cd8_2 O7_2 1_555 1_555
O9_2 Cd2_2 1_555 1_555
O14_2 Cd2_2 1_555 1_555
N3_2 Cd2_2 1_555 1_555
N2_2 C5_2 1_555 1_555
N2_2 C6_2 1_555 1_555
Cd4_2 O13_2 1_555 1_555
Cd5_2 O9_2 1_555 1_555
Cd5_2 O14_2 1_555 1_555
C5_2 H3_2 1_555 1_555
C5_2 H4_2 1_555 1_555
C6_2 H11_2 1_555 1_555
C6_2 H12_2 1_555 1_555
C4_2 H15_2 1_555 1_555
C4_2 H16_2 1_555 1_555
Cd1_2 O2_2 1_555 1_555
P1_2 O1_2 1_555 1_555
O2_2 P1_2 1_555 1_555
O3_2 P1_2 1_555 1_555
O4_2 Cd1_2 1_555 1_555
N1_2 C1_2 1_555 1_555
C1_2 P1_2 1_555 1_555
C2_2 N1_2 1_555 1_555
C3_2 N1_2 1_555 1_555
Cd4_2 O3_2 1_555 1_555
Cd6_2 O3_2 1_555 1_555
O10_2 Cd1_2 1_555 1_555
O11_2 Cd1_2 1_555 1_555
N4_2 Cd1_2 1_555 1_555
Cd6_2 O10_2 1_555 1_555
Cd6_2 O11_2 1_555 1_555
Cd8_2 O12_2 1_555 1_555
C1_2 H1_2 1_555 1_555
C1_2 H2_2 1_555 1_555
C2_2 H7_2 1_555 1_555
C2_2 H8_2 1_555 1_555
C3_2 H9_2 1_555 1_555
C3_2 H10_2 1_555 1_555
P2_3 O5_3 1_555 1_555
O6_3 P2_3 1_555 1_555
O7_3 P2_3 1_555 1_555
Cd2_3 O6_3 1_555 1_555
O8_3 Cd2_3 1_555 1_555
Cd8_3 O7_3 1_555 1_555
O9_3 Cd2_3 1_555 1_555
N3_3 Cd2_3 1_555 1_555
N2_3 C6_3 1_555 1_555
O8_3 H6_2 1_555 1_555
C6_3 H11_3 1_555 1_555
C6_3 H12_3 1_555 1_555
Cd6_3 O11_3 1_555 1_555
Cd8_3 O12_3 1_555 1_555
C1_3 H1_3 1_555 1_555
C1_3 H2_3 1_555 1_555
C2_3 H7_3 1_555 1_555
C2_3 H8_3 1_555 1_555
Cd4_3 O13_3 1_555 1_555
Cd5_3 O14_3 1_555 1_555
C5_3 H3_3 1_555 1_555
C5_3 H4_3 1_555 1_555
C4_3 H15_3 1_555 1_555
C4_3 H16_3 1_555 1_555
Cd1_3 O2_3 1_555 1_555
P1_3 O1_3 1_555 1_555
O2_3 P1_3 1_555 1_555
O3_3 P1_3 1_555 1_555
O4_3 Cd1_3 1_555 1_555
C3_3 N1_3 1_555 1_555
Cd4_3 O3_3 1_555 1_555
O10_3 Cd1_3 1_555 1_555
N4_3 Cd1_3 1_555 1_555
C3_3 H9_3 1_555 1_555
C3_3 H10_3 1_555 1_555
O4_3 H13_2 1_555 1_555
O4_3 H14_2 1_555 1_555
C2_4 N1_4 1_555 1_555
C3_4 N1_4 1_555 1_555
P2_4 O5_4 1_555 1_555
O9_2 P2_4 1_555 1_555
O12_2 P2_4 1_555 1_555
N3_2 C4_4 1_555 1_555
C4_4 P2_4 1_555 1_555
C5_4 C3_4 1_555 1_555
C6_4 C2_4 1_555 1_555
O8_4 Cd5_2 1_555 1_555
Cd6_3 O2_4 1_555 1_555
O9_4 Cd5_2 1_555 1_555
N3_4 Cd5_2 1_555 1_555
N1_4 Cd6_3 1_555 1_555
N3_2 C5_4 1_555 1_555
N3_2 C6_4 1_555 1_555
Cd8_2 O9_4 1_555 1_555
C5_4 H3_4 1_555 1_555
C5_4 H4_4 1_555 1_555
C2_4 H7_4 1_555 1_555
C2_4 H8_4 1_555 1_555
C3_4 H9_4 1_555 1_555
C3_4 H10_4 1_555 1_555
C6_4 H11_4 1_555 1_555
C6_4 H12_4 1_555 1_555
C4_4 H15_4 1_555 1_555
C4_4 H16_4 1_555 1_555
P1_4 O1_4 1_555 1_555
O11_3 P1_4 1_555 1_555
C1_4 P1_4 1_555 1_555
C1_4 H1_4 1_555 1_555
C1_4 H2_4 1_555 1_555
O4_4 Cd4_3 1_555 1_555
O4_4 H13_3 1_555 1_555
O4_5 Cd4 1_555 1_555
O4_5 H13_4 1_555 1_555
C2_5 N1_5 1_555 1_555
C3_5 N1_5 1_555 1_555
P2_5 O5_5 1_555 1_555
O9_3 P2_5 1_555 1_555
O12_3 P2_5 1_555 1_555
N3_3 C4_5 1_555 1_555
C4_5 P2_5 1_555 1_555
C5_5 C3_5 1_555 1_555
C6_5 C2_5 1_555 1_555
Cd6 O2_5 1_555 1_555
N1_5 Cd6 1_555 1_555
N3_3 C5_5 1_555 1_555
N3_3 C6_5 1_555 1_555
C5_5 H3_5 1_555 1_555
C5_5 H4_5 1_555 1_555
C2_5 H7_5 1_555 1_555
C2_5 H8_5 1_555 1_555
C3_5 H9_5 1_555 1_555
C3_5 H10_5 1_555 1_555
C6_5 H11_5 1_555 1_555
C6_5 H12_5 1_555 1_555
C4_5 H15_5 1_555 1_555
C4_5 H16_5 1_555 1_555
P1_5 O1_5 1_555 1_555
O11 P1_5 1_555 1_555
C1_5 P1_5 1_555 1_555
C1_5 H1_5 1_555 1_555
C1_5 H2_5 1_555 1_555
O8_5 Cd5_3 1_555 1_555
O9_5 Cd5_3 1_555 1_555
N3_5 Cd5_3 1_555 1_555
O8_6 Cd5 1_555 1_555
O9_6 Cd5 1_555 1_555
N3_6 Cd5 1_555 1_555
Cd4_2 O2_6 1_555 1_555
O4_6 Cd4_2 1_555 1_555
C2_6 N1_6 1_555 1_555
C3_6 N1_6 1_555 1_555
P2_6 O5_6 1_555 1_555
O9 P2_6 1_555 1_555
O12 P2_6 1_555 1_555
N3 C4_6 1_555 1_555
C4_6 P2_6 1_555 1_555
C5_6 C3_6 1_555 1_555
C6_6 C2_6 1_555 1_555
Cd6_2 O2_6 1_555 1_555
N1_6 Cd6_2 1_555 1_555
N3 C5_6 1_555 1_555
N3 C6_6 1_555 1_555
C5_6 H3_6 1_555 1_555
C5_6 H4_6 1_555 1_555
C2_6 H7_6 1_555 1_555
C2_6 H8_6 1_555 1_555
C3_6 H9_6 1_555 1_555
C3_6 H10_6 1_555 1_555
C6_6 H11_6 1_555 1_555
C6_6 H12_6 1_555 1_555
O4_6 H13_5 1_555 1_555
C4_6 H15_6 1_555 1_555
C4_6 H16_6 1_555 1_555
P1_6 O1_6 1_555 1_555
O11_2 P1_6 1_555 1_555
C1_6 P1_6 1_555 1_555
C1_6 H1_6 1_555 1_555
C1_6 H2_6 1_555 1_555
O8_7 Cd8_3 1_555 1_555
O8_7 H5_3 1_555 1_555
P2_7 O5_7 1_555 1_555
O14_3 P2_7 1_555 1_555
C4_7 P2_7 1_555 1_555
C4_7 H15_7 1_555 1_555
C4_7 H16_7 1_555 1_555
P1_7 O1_7 1_555 1_555
O10_2 P1_7 1_555 1_555
O13_2 P1_7 1_555 1_555
O4_7 Cd6_2 1_555 1_555
N4_2 C1_7 1_555 1_555
C1_7 P1_7 1_555 1_555
C2_7 N4_2 1_555 1_555
C3_7 N4_2 1_555 1_555
C5_7 C3_7 1_555 1_555
C6_7 C2_7 1_555 1_555
N3_5 C5_7 1_555 1_555
N3_5 C6_7 1_555 1_555
C1_7 H1_7 1_555 1_555
C1_7 H2_7 1_555 1_555
C5_7 H3_7 1_555 1_555
C5_7 H4_7 1_555 1_555
C2_7 H7_7 1_555 1_555
C2_7 H8_7 1_555 1_555
C3_7 H9_7 1_555 1_555
C3_7 H10_7 1_555 1_555
C6_7 H11_7 1_555 1_555
C6_7 H12_7 1_555 1_555
O4_8 Cd6_3 1_555 1_555
P2_8 O5_8 1_555 1_555
O14 P2_8 1_555 1_555
C4_8 P2_8 1_555 1_555
C4_8 H15_8 1_555 1_555
C4_8 H16_8 1_555 1_555
P1_8 O1_8 1_555 1_555
O10_3 P1_8 1_555 1_555
O13_3 P1_8 1_555 1_555
N4_3 C1_8 1_555 1_555
C1_8 P1_8 1_555 1_555
C2_8 N4_3 1_555 1_555
C3_8 N4_3 1_555 1_555
C5_8 C3_8 1_555 1_555
C6_8 C2_8 1_555 1_555
N3_6 C5_8 1_555 1_555
N3_6 C6_8 1_555 1_555
C1_8 H1_8 1_555 1_555
C1_8 H2_8 1_555 1_555
C5_8 H3_8 1_555 1_555
C5_8 H4_8 1_555 1_555
C2_8 H7_8 1_555 1_555
C2_8 H8_8 1_555 1_555
C3_8 H9_8 1_555 1_555
C3_8 H10_8 1_555 1_555
C6_8 H11_8 1_555 1_555
C6_8 H12_8 1_555 1_555
O8_8 Cd8 1_555 1_555
O8_8 H5_4 1_555 1_555
P2_9 O5_9 1_555 1_555
O14_2 P2_9 1_555 1_555
C4_9 P2_9 1_555 1_555
C4_9 H15_9 1_555 1_555
C4_9 H16_9 1_555 1_555
P1_9 O1_9 1_555 1_555
O10 P1_9 1_555 1_555
O13 P1_9 1_555 1_555
N4 C1_9 1_555 1_555
C1_9 P1_9 1_555 1_555
C2_9 N4 1_555 1_555
C3_9 N4 1_555 1_555
C5_9 C3_9 1_555 1_555
C6_9 C2_9 1_555 1_555
O8_9 Cd8_2 1_555 1_555
N3_4 C5_9 1_555 1_555
N3_4 C6_9 1_555 1_555
C1_9 H1_9 1_555 1_555
C1_9 H2_9 1_555 1_555
C5_9 H3_9 1_555 1_555
C5_9 H4_9 1_555 1_555
O8_9 H5_5 1_555 1_555
C2_9 H7_9 1_555 1_555
C2_9 H8_9 1_555 1_555
C3_9 H9_9 1_555 1_555
C3_9 H10_9 1_555 1_555
C6_9 H11_9 1_555 1_555
C6_9 H12_9 1_555 1_555
O4_9 Cd6 1_555 1_555
O8 H13_6 1_555 1_555
O8_3 H13_7 1_555 1_555
O8_7 H13_8 1_555 1_555
O8_8 H13_9 1_555 1_555
O8_9 H13_10 1_555 1_555
O4_4 H5_8 1_555 1_555
O4_5 H5_9 1_555 1_555
O4_6 H5_10 1_555 1_555

#END
