
###############################################################################
#
# This file contains modified crystal structure data generated from the
# MOF subset of the Cambridge Structural Database (CSD) v543 
# hosted by the Cambridge Crystallographic Data Centre (CCDC).
#
# This work is licensed under the Creative Commons
# Attribution-NonCommercial-ShareAlike 4.0 International License.
# To view a copy of this license, visit
# http://creativecommons.org/licenses/by-nc-sa/4.0/
# or send a letter to
# Creative Commons, PO Box 1866, Mountain View, CA 94042, USA.
#
# CIF created using the CSD Python API on 29 September 2022
# The structure has been converted into the P1 space group
# The structure has a 3D framework
# The original CSD entry WUJFOX is in the orthorhombic crystal system
# The original CSD entry WUJFOX is in a Sohncke space group
# The framework has been calculated to contain at least 10.0% void space
# The void calculation uses a probe of radius 1.32A, grid spacing 0.4
# The framework is charged, counterions have been retained in the structure
#
###############################################################################

data_WUJFOX
_chemical_formula_moiety         '(C168 H96 Cd8 O42 7-)n'
_symmetry_cell_setting           triclinic
_symmetry_space_group_name_H-M   'P 1'
_symmetry_Int_Tables_number      1
_space_group_name_Hall           'P 1'
loop_
_symmetry_equiv_pos_site_id
_symmetry_equiv_pos_as_xyz
1 x,y,z
_cell_length_a                   8.207(5)
_cell_length_b                   27.618(5)
_cell_length_c                   28.692(5)
_cell_angle_alpha                90
_cell_angle_beta                 90
_cell_angle_gamma                90
_cell_volume                     6503.36
loop_
_atom_site_label
_atom_site_type_symbol
_atom_site_fract_x
_atom_site_fract_y
_atom_site_fract_z
Cd5 Cd 0.41404(3) 0.969817(8) 0.309395(9)
O7 O 0.3280(4) 0.97881(18) 0.38777(12)
O9 O 0.1474(4) 0.96309(12) 0.33435(10)
C22 C 0.1850(5) 0.9712(2) 0.37547(14)
C24 C 0.0521(3) 0.97252(19) 0.41182(8)
H15 H 0.0070 0.9801 0.5240
C29 C 0.0960(3) 0.9781(2) 0.45830(10)
H16 H 0.2046 0.9831 0.4662
Cd5_2 Cd 0.58596(3) 0.530183(8) 0.309395(9)
O7_2 O 0.6720(4) 0.52119(18) 0.38777(12)
O9_2 O 0.8526(4) 0.53691(12) 0.33435(10)
C22_2 C 0.8150(5) 0.5288(2) 0.37547(14)
C24_2 C 0.9479(3) 0.52748(19) 0.41182(8)
H15_2 H 0.9930 0.5199 0.5240
C29_2 C 0.9040(3) 0.5219(2) 0.45830(10)
H16_2 H 0.7954 0.5169 0.4662
Cd5_3 Cd 0.41404(3) 0.030183(8) 0.190605(9)
O7_3 O 0.3280(4) 0.02119(18) 0.11223(12)
O9_3 O 0.1474(4) 0.03691(12) 0.16565(10)
C22_3 C 0.1850(5) 0.0288(2) 0.12453(14)
C24_3 C 0.0521(3) 0.02748(19) 0.08818(8)
C29_3 C 0.0960(3) 0.0219(2) 0.04170(10)
H16_3 H 0.2046 0.0169 0.0338
C18 C 0.0004(2) 0.81809(9) 0.31378(13)
H10 H 0.1116 0.8232 0.3099
O11 O 0.3398(4) 0.56786(10) 0.30390(12)
O12 O 0.5382(4) 0.61572(12) 0.32744(15)
O15 O 0.6427(4) 0.54740(10) 0.23001(11)
O16 O 0.6427(4) 0.45260(10) 0.26999(11)
O18 O 0.4361(6) 0.45563(11) 0.32009(13)
C31 C 0.5322(6) 0.43248(14) 0.29502(17)
C38 C 0.3931(5) 0.60927(14) 0.31703(15)
C39 C 0.2726(3) 0.65049(8) 0.31915(11)
C40 C 0.1065(3) 0.64286(7) 0.31330(12)
H21 H 0.0668 0.6116 0.3091
C42 C 0.0589(3) 0.72859(7) 0.32012(12)
C43 C 0.2251(3) 0.73622(7) 0.32597(13)
H23 H 0.2647 0.7675 0.3302
C44 C 0.3319(2) 0.69718(9) 0.32548(14)
H24 H 0.4431 0.7023 0.3294
O5 O 0.3573(4) 0.04740(10) 0.26999(11)
O6 O 0.5639(6) 0.04437(11) 0.32009(13)
C8 C 0.4678(6) 0.06752(14) 0.29502(17)
C9 C 0.4789(4) 0.12206(6) 0.29343(13)
C10 C 0.6191(3) 0.14519(9) 0.30901(14)
H5 H 0.7070 0.1270 0.3197
C11 C 0.6280(4) 0.19545(9) 0.30866(14)
H6 H 0.7218 0.2109 0.3191
C12 C 0.4967(4) 0.22257(6) 0.29273(14)
C13 C 0.3565(4) 0.19944(9) 0.27715(14)
H7 H 0.2686 0.2176 0.2665
C14 C 0.3476(3) 0.14919(9) 0.27749(13)
H8 H 0.2538 0.1337 0.2671
Cd6 Cd 0.58596(3) 0.469817(8) 0.190605(9)
C32 C 0.5211(4) 0.37794(6) 0.29343(13)
C33 C 0.3809(3) 0.35481(9) 0.30901(14)
H17 H 0.2930 0.3730 0.3197
C34 C 0.3720(4) 0.30455(9) 0.30866(14)
H18 H 0.2782 0.2891 0.3191
C35 C 0.5033(4) 0.27743(6) 0.29273(14)
C36 C 0.6435(4) 0.30056(9) 0.27715(14)
H19 H 0.7314 0.2824 0.2665
C37 C 0.6524(3) 0.35081(9) 0.27749(13)
H20 H 0.7462 0.3663 0.2671
O3 O 0.6602(4) 0.93214(10) 0.30390(12)
O4 O 0.4618(4) 0.88428(12) 0.32744(15)
C15 C 0.6069(5) 0.89073(14) 0.31703(15)
C16 C 0.7274(3) 0.84951(8) 0.31915(11)
C17 C 0.8935(3) 0.85714(7) 0.31330(12)
H9 H 0.9332 0.8884 0.3091
C19 C 0.9411(3) 0.77141(7) 0.32012(12)
C20 C 0.7749(3) 0.76378(7) 0.32597(13)
H11 H 0.7353 0.7325 0.3302
C21 C 0.6681(2) 0.80282(9) 0.32548(14)
H12 H 0.5569 0.7977 0.3294
O14 O 0.3573(4) 0.95260(10) 0.23001(11)
C41 C 0.9996(2) 0.68191(9) 0.31378(13)
H22 H 0.8884 0.6768 0.3099
O1 O 0.6720(4) 0.47881(18) 0.11223(12)
O2 O 0.8526(4) 0.46309(12) 0.16565(10)
O3_2 O 0.3398(4) 0.43214(10) 0.19610(12)
O4_2 O 0.5382(4) 0.38428(12) 0.17256(15)
O6_2 O 0.4361(6) 0.54437(11) 0.17991(13)
C1 C 0.8150(5) 0.4712(2) 0.12453(14)
C2 C 0.9479(3) 0.47252(19) 0.08818(8)
C7 C 0.9040(3) 0.4781(2) 0.04170(10)
H4 H 0.7954 0.4831 0.0338
C8_2 C 0.5322(6) 0.56752(14) 0.20498(17)
C9_2 C 0.5211(4) 0.62206(6) 0.20657(13)
C10_2 C 0.3809(3) 0.64519(9) 0.19099(14)
H5_2 H 0.2930 0.6270 0.1803
C11_2 C 0.3720(4) 0.69545(9) 0.19134(14)
H6_2 H 0.2782 0.7109 0.1809
C12_2 C 0.5033(4) 0.72257(6) 0.20727(14)
C13_2 C 0.6435(4) 0.69944(9) 0.22285(14)
H7_2 H 0.7314 0.7176 0.2335
C14_2 C 0.6524(3) 0.64919(9) 0.22251(13)
H8_2 H 0.7462 0.6337 0.2329
C15_2 C 0.3931(5) 0.39073(14) 0.18297(15)
C16_2 C 0.2726(3) 0.34951(8) 0.18085(11)
C17_2 C 0.1065(3) 0.35714(7) 0.18670(12)
H9_2 H 0.0668 0.3884 0.1909
C19_2 C 0.0589(3) 0.27141(7) 0.17988(12)
C20_2 C 0.2251(3) 0.26378(7) 0.17403(13)
H11_2 H 0.2647 0.2325 0.1698
C21_2 C 0.3319(2) 0.30282(9) 0.17452(14)
H12_2 H 0.4431 0.2977 0.1706
O17 O 0.5639(6) 0.95563(11) 0.17991(13)
C30 C 0.4678(6) 0.93248(14) 0.20498(17)
C32_2 C 0.4789(4) 0.87794(6) 0.20657(13)
C33_2 C 0.6191(3) 0.85481(9) 0.19099(14)
H17_2 H 0.7070 0.8730 0.1803
C34_2 C 0.6280(4) 0.80455(9) 0.19134(14)
H18_2 H 0.7218 0.7891 0.1809
C35_2 C 0.4967(4) 0.77743(6) 0.20727(14)
C36_2 C 0.3565(4) 0.80056(9) 0.22285(14)
H19_2 H 0.2686 0.7824 0.2335
C37_2 C 0.3476(3) 0.85081(9) 0.22251(13)
H20_2 H 0.2538 0.8663 0.2329
C41_2 C 0.0004(2) 0.18191(9) 0.18622(13)
H22_2 H 0.1116 0.1768 0.1901
C18_2 C 0.9996(2) 0.31809(9) 0.18622(13)
H10_2 H 0.8884 0.3232 0.1901
O11_2 O 0.6602(4) 0.06786(10) 0.19610(12)
O12_2 O 0.4618(4) 0.11572(12) 0.17256(15)
C38_2 C 0.6069(5) 0.10927(14) 0.18297(15)
C39_2 C 0.7274(3) 0.15049(8) 0.18085(11)
C40_2 C 0.8935(3) 0.14286(7) 0.18670(12)
H21_2 H 0.9332 0.1116 0.1909
C42_2 C 0.9411(3) 0.22859(7) 0.17988(12)
C43_2 C 0.7749(3) 0.23622(7) 0.17403(13)
H23_2 H 0.7353 0.2675 0.1698
C44_2 C 0.6681(2) 0.19718(9) 0.17452(14)
H24_2 H 0.5569 0.2023 0.1706
O5_2 O 0.1427(4) 0.04740(10) 0.73001(11)
C8_3 C 0.0322(6) 0.06752(14) 0.70498(17)
C9_3 C 0.0211(4) 0.12206(6) 0.70657(13)
C12_3 C 0.0033(4) 0.22257(6) 0.70727(14)
C13_3 C 0.1435(4) 0.19944(9) 0.72285(14)
H7_3 H 0.2314 0.2176 0.7335
C14_3 C 0.1524(3) 0.14919(9) 0.72251(13)
H8_3 H 0.2462 0.1337 0.7329
Cd4 Cd 0.08596(3) 0.030183(8) 0.809395(9)
O17_2 O 0.0639(6) 0.45563(11) 0.67991(13)
C33_3 C 0.1191(3) 0.35481(9) 0.69099(14)
H17_3 H 0.2070 0.3730 0.6803
C34_3 C 0.1280(4) 0.30455(9) 0.69134(14)
H18_3 H 0.2218 0.2891 0.6809
O3_3 O 0.8398(4) 0.93214(10) 0.69610(12)
C15_3 C 0.8931(5) 0.89073(14) 0.68297(15)
C16_3 C 0.7726(3) 0.84951(8) 0.68085(11)
C17_3 C 0.6065(3) 0.85714(7) 0.68670(12)
H9_3 H 0.5668 0.8884 0.6909
C18_3 C 0.4996(2) 0.81809(9) 0.68622(13)
H10_3 H 0.3884 0.8232 0.6901
C19_3 C 0.5589(3) 0.77141(7) 0.67988(12)
C20_3 C 0.7251(3) 0.76378(7) 0.67403(13)
H11_3 H 0.7647 0.7325 0.6698
C21_3 C 0.8319(2) 0.80282(9) 0.67452(14)
H12_3 H 0.9431 0.7977 0.6706
O11_3 O 0.1602(4) 0.56786(10) 0.69610(12)
C38_3 C 0.1069(5) 0.60927(14) 0.68297(15)
C39_3 C 0.2274(3) 0.65049(8) 0.68085(11)
C40_3 C 0.3935(3) 0.64286(7) 0.68670(12)
H21_3 H 0.4332 0.6116 0.6909
C41_3 C 0.5004(2) 0.68191(9) 0.68622(13)
H22_3 H 0.6116 0.6768 0.6901
C42_3 C 0.4411(3) 0.72859(7) 0.67988(12)
C43_3 C 0.2749(3) 0.73622(7) 0.67403(13)
H23_3 H 0.2353 0.7675 0.6698
C44_3 C 0.1681(2) 0.69718(9) 0.67452(14)
H24_3 H 0.0569 0.7023 0.6706
O1_2 O 0.1720(4) 0.02119(18) 0.88777(12)
O2_2 O 0.3526(4) 0.03691(12) 0.83435(10)
O4_3 O 0.0382(4) 0.11572(12) 0.82744(15)
C1_2 C 0.3150(5) 0.0288(2) 0.87547(14)
C2_2 C 0.4479(3) 0.02748(19) 0.91182(8)
C3 C 0.6102(3) 0.03488(17) 0.89994(7)
H1 H 0.6395 0.0386 0.8688
C4 C 0.7286(2) 0.03666(17) 0.93454(10)
H2 H 0.8372 0.0416 0.9266
C5 C 0.6847(3) 0.03103(19) 0.98102(8)
C6 C 0.5224(4) 0.0236(2) 0.99290(7)
C7_2 C 0.4040(3) 0.0219(2) 0.95830(10)
H4_2 H 0.2954 0.0169 0.9662
Cd1 Cd 0.08596(3) 0.969817(8) 0.690605(9)
O1_3 O 0.1720(4) 0.97881(18) 0.61223(12)
O2_3 O 0.3526(4) 0.96309(12) 0.66565(10)
O4_4 O 0.0382(4) 0.88428(12) 0.67256(15)
C1_3 C 0.3150(5) 0.9712(2) 0.62453(14)
C2_3 C 0.4479(3) 0.97252(19) 0.58818(8)
C3_2 C 0.6102(3) 0.96512(17) 0.60006(7)
H1_2 H 0.6395 0.9614 0.6312
C4_2 C 0.7286(2) 0.96334(17) 0.56546(10)
H2_2 H 0.8372 0.9584 0.5734
C5_2 C 0.6847(3) 0.96897(19) 0.51898(8)
C6_2 C 0.5224(4) 0.9764(2) 0.50710(7)
H3 H 0.4930 0.9801 0.4760
C7_3 C 0.4040(3) 0.9781(2) 0.54170(10)
H4_3 H 0.2954 0.9831 0.5338
O14_2 O 0.1427(4) 0.95260(10) 0.76999(11)
C25 C 0.8898(3) 0.96512(17) 0.39994(7)
H13 H 0.8605 0.9614 0.3688
C26 C 0.7714(2) 0.96334(17) 0.43454(10)
H14 H 0.6628 0.9584 0.4266
C27 C 0.8153(3) 0.96897(19) 0.48102(8)
C28 C 0.9776(4) 0.9764(2) 0.49290(7)
C8_4 C 0.0322(6) 0.93248(14) 0.79502(17)
C9_4 C 0.0211(4) 0.87794(6) 0.79343(13)
C12_4 C 0.0033(4) 0.77743(6) 0.79273(14)
C13_4 C 0.1435(4) 0.80056(9) 0.77715(14)
H7_4 H 0.2314 0.7824 0.7665
C14_4 C 0.1524(3) 0.85081(9) 0.77749(13)
H8_4 H 0.2462 0.8663 0.7671
O17_3 O 0.0639(6) 0.54437(11) 0.82009(13)
C33_4 C 0.1191(3) 0.64519(9) 0.80901(14)
H17_4 H 0.2070 0.6270 0.8197
C34_4 C 0.1280(4) 0.69545(9) 0.80866(14)
H18_4 H 0.2218 0.7109 0.8191
O3_4 O 0.8398(4) 0.06786(10) 0.80390(12)
C15_4 C 0.8931(5) 0.10927(14) 0.81703(15)
C16_4 C 0.7726(3) 0.15049(8) 0.81915(11)
C17_4 C 0.6065(3) 0.14286(7) 0.81330(12)
H9_4 H 0.5668 0.1116 0.8091
C18_4 C 0.4996(2) 0.18191(9) 0.81378(13)
H10_4 H 0.3884 0.1768 0.8099
C19_4 C 0.5589(3) 0.22859(7) 0.82012(12)
C20_4 C 0.7251(3) 0.23622(7) 0.82597(13)
H11_4 H 0.7647 0.2675 0.8302
C21_4 C 0.8319(2) 0.19718(9) 0.82548(14)
H12_4 H 0.9431 0.2023 0.8294
O11_4 O 0.1602(4) 0.43214(10) 0.80390(12)
C38_4 C 0.1069(5) 0.39073(14) 0.81703(15)
C39_4 C 0.2274(3) 0.34951(8) 0.81915(11)
C40_4 C 0.3935(3) 0.35714(7) 0.81330(12)
H21_4 H 0.4332 0.3884 0.8091
C41_4 C 0.5004(2) 0.31809(9) 0.81378(13)
H22_4 H 0.6116 0.3232 0.8099
C42_4 C 0.4411(3) 0.27141(7) 0.82012(12)
C43_4 C 0.2749(3) 0.26378(7) 0.82597(13)
H23_4 H 0.2353 0.2325 0.8302
C44_4 C 0.1681(2) 0.30282(9) 0.82548(14)
H24_4 H 0.0569 0.2977 0.8294
O6_3 O 0.9361(6) 0.04437(11) 0.67991(13)
C10_3 C 0.8809(3) 0.14519(9) 0.69099(14)
H5_3 H 0.7930 0.1270 0.6803
C11_3 C 0.8720(4) 0.19545(9) 0.69134(14)
H6_3 H 0.7782 0.2109 0.6809
Cd3 Cd 0.91404(3) 0.530183(8) 0.690605(9)
Cd6_2 Cd 0.91404(3) 0.469817(8) 0.809395(9)
O13 O 0.8573(4) 0.45260(10) 0.73001(11)
C30_2 C 0.9678(6) 0.43248(14) 0.70498(17)
C32_3 C 0.9789(4) 0.37794(6) 0.70657(13)
C35_3 C 0.9967(4) 0.27743(6) 0.70727(14)
C36_3 C 0.8565(4) 0.30056(9) 0.72285(14)
H19_3 H 0.7686 0.2824 0.7335
C37_3 C 0.8476(3) 0.35081(9) 0.72251(13)
H20_3 H 0.7538 0.3663 0.7329
O8 O 0.8280(4) 0.52119(18) 0.61223(12)
O10 O 0.6474(4) 0.53691(12) 0.66565(10)
O12_3 O 0.9618(4) 0.61572(12) 0.67256(15)
O15_2 O 0.8573(4) 0.54740(10) 0.76999(11)
C23 C 0.6850(5) 0.5288(2) 0.62453(14)
C2_4 C 0.5521(3) 0.52748(19) 0.58818(8)
C3_3 C 0.3898(3) 0.53488(17) 0.60006(7)
H1_3 H 0.3605 0.5386 0.6312
C4_3 C 0.2714(2) 0.53666(17) 0.56546(10)
H2_3 H 0.1628 0.5416 0.5734
C5_3 C 0.3153(3) 0.53103(19) 0.51898(8)
C6_3 C 0.4776(4) 0.5236(2) 0.50710(7)
H3_2 H 0.5070 0.5199 0.4760
C7_4 C 0.5960(3) 0.5219(2) 0.54170(10)
H4_4 H 0.7046 0.5169 0.5338
C25_2 C 0.1102(3) 0.53488(17) 0.39994(7)
H13_2 H 0.1395 0.5386 0.3688
C26_2 C 0.2286(2) 0.53666(17) 0.43454(10)
H14_2 H 0.3372 0.5416 0.4266
C27_2 C 0.1847(3) 0.53103(19) 0.48102(8)
C28_2 C 0.0224(4) 0.5236(2) 0.49290(7)
O6_4 O 0.9361(6) 0.95563(11) 0.82009(13)
C10_4 C 0.8809(3) 0.85481(9) 0.80901(14)
H5_4 H 0.7930 0.8730 0.8197
C11_4 C 0.8720(4) 0.80455(9) 0.80866(14)
H6_4 H 0.7782 0.7891 0.8191
C30_3 C 0.9678(6) 0.56752(14) 0.79502(17)
C32_4 C 0.9789(4) 0.62206(6) 0.79343(13)
C35_4 C 0.9967(4) 0.72257(6) 0.79273(14)
C36_4 C 0.8565(4) 0.69944(9) 0.77715(14)
H19_4 H 0.7686 0.7176 0.7665
C37_4 C 0.8476(3) 0.64919(9) 0.77749(13)
H20_4 H 0.7538 0.6337 0.7671
O8_2 O 0.8280(4) 0.47881(18) 0.88777(12)
O10_2 O 0.6474(4) 0.46309(12) 0.83435(10)
O12_4 O 0.9618(4) 0.38428(12) 0.82744(15)
C23_2 C 0.6850(5) 0.4712(2) 0.87547(14)
C24_4 C 0.5521(3) 0.47252(19) 0.91182(8)
C25_3 C 0.3898(3) 0.46512(17) 0.89994(7)
H13_3 H 0.3605 0.4614 0.8688
C26_3 C 0.2714(2) 0.46334(17) 0.93454(10)
H14_3 H 0.1628 0.4584 0.9266
C27_3 C 0.3153(3) 0.46897(19) 0.98102(8)
C28_3 C 0.4776(4) 0.4764(2) 0.99290(7)
C29_4 C 0.5960(3) 0.4781(2) 0.95830(10)
H16_4 H 0.7046 0.4831 0.9662
H15_3 H 0.0070 0.0199 0.9760
H3_3 H 0.4930 0.0199 0.0240
C25_4 C 0.8898(3) 0.03488(17) 0.10006(7)
H13_4 H 0.8605 0.0386 0.1312
C26_4 C 0.7714(2) 0.03666(17) 0.06546(10)
H14_4 H 0.6628 0.0416 0.0734
C27_4 C 0.8153(3) 0.03103(19) 0.01898(8)
C28_4 C 0.9776(4) 0.0236(2) 0.00710(7)
C3_4 C 0.1102(3) 0.46512(17) 0.10006(7)
H1_4 H 0.1395 0.4614 0.1312
C4_4 C 0.2286(2) 0.46334(17) 0.06546(10)
H2_4 H 0.3372 0.4584 0.0734
C5_4 C 0.1847(3) 0.46897(19) 0.01898(8)
C6_4 C 0.0224(4) 0.4764(2) 0.00710(7)
H15_4 H 0.5070 0.4801 0.0240
H3_4 H 0.9930 0.4801 0.9760
loop_
_geom_bond_atom_site_label_1
_geom_bond_atom_site_label_2
_geom_bond_site_symmetry_1
_geom_bond_site_symmetry_2
Cd5 O7 1_555 1_555
O7 C22 1_555 1_555
O9 Cd5 1_555 1_555
C22 O9 1_555 1_555
C24 C22 1_555 1_555
C29 C24 1_555 1_555
H16 C29 1_555 1_555
Cd5_2 O7_2 1_555 1_555
O7_2 C22_2 1_555 1_555
O9_2 Cd5_2 1_555 1_555
C22_2 O9_2 1_555 1_555
C24_2 C22_2 1_555 1_555
C29_2 C24_2 1_555 1_555
H16_2 C29_2 1_555 1_555
Cd5_3 O7_3 1_555 1_555
O7_3 C22_3 1_555 1_555
O9_3 Cd5_3 1_555 1_555
C22_3 O9_3 1_555 1_555
C24_3 C22_3 1_555 1_555
C29_3 C24_3 1_555 1_555
H16_3 C29_3 1_555 1_555
H10 C18 1_555 1_555
O11 Cd5_2 1_555 1_555
O12 Cd5_2 1_555 1_555
O15 Cd5_2 1_555 1_555
O16 Cd5_2 1_555 1_555
O18 Cd5_2 1_555 1_555
C31 O16 1_555 1_555
C38 O11 1_555 1_555
C39 C38 1_555 1_555
C40 C39 1_555 1_555
H21 C40 1_555 1_555
C43 C42 1_555 1_555
H23 C43 1_555 1_555
C44 C39 1_555 1_555
H24 C44 1_555 1_555
O12 C38 1_555 1_555
O18 C31 1_555 1_555
C43 C44 1_555 1_555
C8 O5 1_555 1_555
C9 C8 1_555 1_555
C10 C9 1_555 1_555
H5 C10 1_555 1_555
C11 C10 1_555 1_555
H6 C11 1_555 1_555
C12 C11 1_555 1_555
C13 C12 1_555 1_555
H7 C13 1_555 1_555
C14 C9 1_555 1_555
H8 C14 1_555 1_555
Cd5_3 O5 1_555 1_555
Cd6 O16 1_555 1_555
C32 C31 1_555 1_555
C33 C32 1_555 1_555
H17 C33 1_555 1_555
C34 C33 1_555 1_555
H18 C34 1_555 1_555
C35 C12 1_555 1_555
C36 C35 1_555 1_555
H19 C36 1_555 1_555
C37 C32 1_555 1_555
H20 C37 1_555 1_555
O6 C8 1_555 1_555
C13 C14 1_555 1_555
C34 C35 1_555 1_555
C36 C37 1_555 1_555
O3 Cd5 1_555 1_555
O4 Cd5 1_555 1_555
C15 O3 1_555 1_555
C16 C15 1_555 1_555
C17 C16 1_555 1_555
H9 C17 1_555 1_555
C20 C19 1_555 1_555
H11 C20 1_555 1_555
C21 C16 1_555 1_555
H12 C21 1_555 1_555
O14 Cd5 1_555 1_555
H22 C41 1_555 1_555
O4 C15 1_555 1_555
C20 C21 1_555 1_555
Cd6 O1 1_555 1_555
O1 C1 1_555 1_555
O2 Cd6 1_555 1_555
O3_2 Cd6 1_555 1_555
O4_2 Cd6 1_555 1_555
O15 Cd6 1_555 1_555
O6_2 Cd6 1_555 1_555
C1 O2 1_555 1_555
C2 C1 1_555 1_555
C7 C2 1_555 1_555
H4 C7 1_555 1_555
C8_2 O15 1_555 1_555
C9_2 C8_2 1_555 1_555
C10_2 C9_2 1_555 1_555
H5_2 C10_2 1_555 1_555
C11_2 C10_2 1_555 1_555
H6_2 C11_2 1_555 1_555
C12_2 C11_2 1_555 1_555
C13_2 C12_2 1_555 1_555
H7_2 C13_2 1_555 1_555
C14_2 C9_2 1_555 1_555
H8_2 C14_2 1_555 1_555
C15_2 O3_2 1_555 1_555
C16_2 C15_2 1_555 1_555
C17_2 C16_2 1_555 1_555
H9_2 C17_2 1_555 1_555
C20_2 C19_2 1_555 1_555
H11_2 C20_2 1_555 1_555
C21_2 C16_2 1_555 1_555
H12_2 C21_2 1_555 1_555
O14 C30 1_555 1_555
C30 O17 1_555 1_555
C32_2 C30 1_555 1_555
C33_2 C32_2 1_555 1_555
H17_2 C33_2 1_555 1_555
C34_2 C33_2 1_555 1_555
H18_2 C34_2 1_555 1_555
C35_2 C12_2 1_555 1_555
C36_2 C35_2 1_555 1_555
H19_2 C36_2 1_555 1_555
C37_2 C32_2 1_555 1_555
H20_2 C37_2 1_555 1_555
H22_2 C41_2 1_555 1_555
O4_2 C15_2 1_555 1_555
O6_2 C8_2 1_555 1_555
C13_2 C14_2 1_555 1_555
C20_2 C21_2 1_555 1_555
C34_2 C35_2 1_555 1_555
C36_2 C37_2 1_555 1_555
H10_2 C18_2 1_555 1_555
O11_2 Cd5_3 1_555 1_555
O12_2 Cd5_3 1_555 1_555
C38_2 O11_2 1_555 1_555
C39_2 C38_2 1_555 1_555
C40_2 C39_2 1_555 1_555
H21_2 C40_2 1_555 1_555
C43_2 C42_2 1_555 1_555
H23_2 C43_2 1_555 1_555
C44_2 C39_2 1_555 1_555
H24_2 C44_2 1_555 1_555
O12_2 C38_2 1_555 1_555
C43_2 C44_2 1_555 1_555
C8_3 O5_2 1_555 1_555
C9_3 C8_3 1_555 1_555
C13_3 C12_3 1_555 1_555
H7_3 C13_3 1_555 1_555
C14_3 C9_3 1_555 1_555
H8_3 C14_3 1_555 1_555
Cd4 O5_2 1_555 1_555
H17_3 C33_3 1_555 1_555
C34_3 C33_3 1_555 1_555
H18_3 C34_3 1_555 1_555
C13_3 C14_3 1_555 1_555
C15_3 O3_3 1_555 1_555
C16_3 C15_3 1_555 1_555
C17_3 C16_3 1_555 1_555
H9_3 C17_3 1_555 1_555
C18_3 C17_3 1_555 1_555
H10_3 C18_3 1_555 1_555
C19_3 C18_3 1_555 1_555
C20_3 C19_3 1_555 1_555
H11_3 C20_3 1_555 1_555
C21_3 C16_3 1_555 1_555
H12_3 C21_3 1_555 1_555
C38_3 O11_3 1_555 1_555
C39_3 C38_3 1_555 1_555
C40_3 C39_3 1_555 1_555
H21_3 C40_3 1_555 1_555
C41_3 C40_3 1_555 1_555
H22_3 C41_3 1_555 1_555
C42_3 C19_3 1_555 1_555
C43_3 C42_3 1_555 1_555
H23_3 C43_3 1_555 1_555
C44_3 C39_3 1_555 1_555
H24_3 C44_3 1_555 1_555
C20_3 C21_3 1_555 1_555
C41_3 C42_3 1_555 1_555
C43_3 C44_3 1_555 1_555
Cd4 O1_2 1_555 1_555
O1_2 C1_2 1_555 1_555
O2_2 Cd4 1_555 1_555
O4_3 Cd4 1_555 1_555
C1_2 O2_2 1_555 1_555
C2_2 C1_2 1_555 1_555
C3 C2_2 1_555 1_555
H1 C3 1_555 1_555
C4 C3 1_555 1_555
H2 C4 1_555 1_555
C5 C4 1_555 1_555
C6 C5 1_555 1_555
C7_2 C2_2 1_555 1_555
H4_2 C7_2 1_555 1_555
C6 C7_2 1_555 1_555
Cd1 O1_3 1_555 1_555
O1_3 C1_3 1_555 1_555
O2_3 Cd1 1_555 1_555
O4_4 Cd1 1_555 1_555
C1_3 O2_3 1_555 1_555
C2_3 C1_3 1_555 1_555
C3_2 C2_3 1_555 1_555
H1_2 C3_2 1_555 1_555
C4_2 C3_2 1_555 1_555
H2_2 C4_2 1_555 1_555
C5_2 C4_2 1_555 1_555
C6_2 C5_2 1_555 1_555
H3 C6_2 1_555 1_555
C7_3 C2_3 1_555 1_555
H4_3 C7_3 1_555 1_555
O14_2 Cd1 1_555 1_555
H13 C25 1_555 1_555
C26 C25 1_555 1_555
H14 C26 1_555 1_555
C27 C5_2 1_555 1_555
C28 C27 1_555 1_555
C6_2 C7_3 1_555 1_555
C26 C27 1_555 1_555
C8_4 O14_2 1_555 1_555
C9_4 C8_4 1_555 1_555
C13_4 C12_4 1_555 1_555
H7_4 C13_4 1_555 1_555
C14_4 C9_4 1_555 1_555
H8_4 C14_4 1_555 1_555
H17_4 C33_4 1_555 1_555
C34_4 C33_4 1_555 1_555
H18_4 C34_4 1_555 1_555
C13_4 C14_4 1_555 1_555
C15_4 O3_4 1_555 1_555
C16_4 C15_4 1_555 1_555
C17_4 C16_4 1_555 1_555
H9_4 C17_4 1_555 1_555
C18_4 C17_4 1_555 1_555
H10_4 C18_4 1_555 1_555
C19_4 C18_4 1_555 1_555
C20_4 C19_4 1_555 1_555
H11_4 C20_4 1_555 1_555
C21_4 C16_4 1_555 1_555
H12_4 C21_4 1_555 1_555
C38_4 O11_4 1_555 1_555
C39_4 C38_4 1_555 1_555
C40_4 C39_4 1_555 1_555
H21_4 C40_4 1_555 1_555
C41_4 C40_4 1_555 1_555
H22_4 C41_4 1_555 1_555
C42_4 C19_4 1_555 1_555
C43_4 C42_4 1_555 1_555
H23_4 C43_4 1_555 1_555
C44_4 C39_4 1_555 1_555
H24_4 C44_4 1_555 1_555
C20_4 C21_4 1_555 1_555
C41_4 C42_4 1_555 1_555
C43_4 C44_4 1_555 1_555
H5_3 C10_3 1_555 1_555
C11_3 C10_3 1_555 1_555
H6_3 C11_3 1_555 1_555
Cd3 O13 1_555 1_555
Cd6_2 O13 1_555 1_555
O13 C30_2 1_555 1_555
C32_3 C30_2 1_555 1_555
C36_3 C35_3 1_555 1_555
H19_3 C36_3 1_555 1_555
C37_3 C32_3 1_555 1_555
H20_3 C37_3 1_555 1_555
C36_3 C37_3 1_555 1_555
Cd3 O8 1_555 1_555
O8 C23 1_555 1_555
O10 Cd3 1_555 1_555
O12_3 Cd3 1_555 1_555
O15_2 Cd3 1_555 1_555
C23 O10 1_555 1_555
C2_4 C23 1_555 1_555
C3_3 C2_4 1_555 1_555
H1_3 C3_3 1_555 1_555
C4_3 C3_3 1_555 1_555
H2_3 C4_3 1_555 1_555
C5_3 C4_3 1_555 1_555
C6_3 C5_3 1_555 1_555
H3_2 C6_3 1_555 1_555
C7_4 C2_4 1_555 1_555
H4_4 C7_4 1_555 1_555
H13_2 C25_2 1_555 1_555
C26_2 C25_2 1_555 1_555
H14_2 C26_2 1_555 1_555
C27_2 C5_3 1_555 1_555
C28_2 C27_2 1_555 1_555
C6_3 C7_4 1_555 1_555
Cd6_2 O15_2 1_555 1_555
C26_2 C27_2 1_555 1_555
H5_4 C10_4 1_555 1_555
C11_4 C10_4 1_555 1_555
H6_4 C11_4 1_555 1_555
O15_2 C30_3 1_555 1_555
C32_4 C30_3 1_555 1_555
C36_4 C35_4 1_555 1_555
H19_4 C36_4 1_555 1_555
C37_4 C32_4 1_555 1_555
H20_4 C37_4 1_555 1_555
C36_4 C37_4 1_555 1_555
Cd6_2 O8_2 1_555 1_555
O8_2 C23_2 1_555 1_555
O10_2 Cd6_2 1_555 1_555
O12_4 Cd6_2 1_555 1_555
C23_2 O10_2 1_555 1_555
C24_4 C23_2 1_555 1_555
C25_3 C24_4 1_555 1_555
H13_3 C25_3 1_555 1_555
C26_3 C25_3 1_555 1_555
H14_3 C26_3 1_555 1_555
C28_3 C27_3 1_555 1_555
C29_4 C24_4 1_555 1_555
H16_4 C29_4 1_555 1_555
C26_3 C27_3 1_555 1_555
C28_3 C29_4 1_555 1_555
H13_4 C25_4 1_555 1_555
C26_4 C25_4 1_555 1_555
H14_4 C26_4 1_555 1_555
C28_4 C27_4 1_555 1_555
C26_4 C27_4 1_555 1_555
H1_4 C3_4 1_555 1_555
C4_4 C3_4 1_555 1_555
H2_4 C4_4 1_555 1_555
C5_4 C4_4 1_555 1_555
C6_4 C5_4 1_555 1_555

#END
