
###############################################################################
#
# This file contains modified crystal structure data generated from the
# MOF subset of the Cambridge Structural Database (CSD) v543 
# hosted by the Cambridge Crystallographic Data Centre (CCDC).
#
# This work is licensed under the Creative Commons
# Attribution-NonCommercial-ShareAlike 4.0 International License.
# To view a copy of this license, visit
# http://creativecommons.org/licenses/by-nc-sa/4.0/
# or send a letter to
# Creative Commons, PO Box 1866, Mountain View, CA 94042, USA.
#
# CIF created using the CSD Python API on 29 September 2022
# The structure has been converted into the P1 space group
# The structure has a 3D framework
# The original CSD entry WUJRUQ is in the triclinic crystal system
# The framework has been calculated to contain at least 10.0% void space
# The void calculation uses a probe of radius 1.32A, grid spacing 0.4
# H atom positions have been added when not included in the experimental data
# Generated hydrogen atom positions removed from atoms on special positions
#
###############################################################################

data_WUJRUQ
_chemical_formula_moiety         '(C88 H72 Cd4 N8 O20 S8)n'
_symmetry_cell_setting           triclinic
_symmetry_space_group_name_H-M   'P 1'
_symmetry_Int_Tables_number      1
_space_group_name_Hall           'P 1'
loop_
_symmetry_equiv_pos_site_id
_symmetry_equiv_pos_as_xyz
1 x,y,z
_cell_length_a                   12.219(5)
_cell_length_b                   12.815(6)
_cell_length_c                   20.585(8)
_cell_angle_alpha                95.187(6)
_cell_angle_beta                 92.184(6)
_cell_angle_gamma                105.724(5)
_cell_volume                     3083.41
loop_
_atom_site_label
_atom_site_type_symbol
_atom_site_fract_x
_atom_site_fract_y
_atom_site_fract_z
_atom_site_U_iso_or_equiv
_atom_site_thermal_displace_type
O17 O 0.2053(5) 0.2706(4) 0.6752(3) 0.0643 Uani
O18 O 0.1145(4) 0.3463(4) 0.6125(3) 0.0694 Uani
C63 C 0.1359(6) 0.2657(5) 0.6262(3) 0.0470 Uani
C64 C 0.0977(5) 0.1579(5) 0.5837(3) 0.0406 Uani
C65 C 0.1264(6) 0.0648(5) 0.6045(3) 0.0501 Uani
H33 H 0.1701 0.0714 0.6434 0.0600 Uiso
C66 C 0.0405(8) 0.1517(5) 0.5279(3) 0.0671 Uani
H34 H 0.0339 0.2156 0.5120 0.0810 Uiso
Cd7 Cd 0.22317(4) 0.45573(4) 0.71015(2) 0.0409 Uani
C29 C 0.1224(4) 0.6312(4) 0.9992(3) 0.0318 Uani
O15 O 0.2381(3) 0.5765(3) 0.81288(19) 0.0349 Uani
O16 O 0.1312(6) 0.4031(4) 0.8017(3) 0.0779 Uani
C57 C 0.1234(5) 0.5145(5) 0.9014(3) 0.0371 Uani
C58 C 0.0220(4) 0.4338(4) 0.9203(3) 0.0306 Uani
C61 C 0.1645(4) 0.6147(4) 0.9409(2) 0.0269 Uani
C62 C 0.1676(6) 0.4982(5) 0.8351(3) 0.0468 Uani
H53 H 0.231272 0.679599 0.923927 . .
C48 C 0.3949(5) 0.9643(4) 0.9306(3) 0.0339 Uani
H27 H 0.3263 0.9127 0.9174 0.0410 Uiso
C49 C 0.4416(4) 0.9606(4) 0.9912(3) 0.0332 Uani
N4 N 0.0474(5) 0.8516(4) 0.1686(3) 0.0533 Uani
C17 C 0.1185(7) 0.9168(6) 0.1304(3) 0.0527 Uani
H12 H 0.1889 0.9049 0.1228 0.0630 Uiso
S5 S 0.45649(15) 0.82554(13) 0.49888(8) 0.0467 Uani
S6 S 0.62790(15) 0.88551(14) 0.51965(9) 0.0498 Uani
N5 N 0.3110(4) 0.5816(4) 0.6432(2) 0.0388 Uani
O19 O 0.4038(4) 0.4588(3) 0.7550(2) 0.0454 Uani
C69 C 0.2901(5) 0.6734(5) 0.5485(3) 0.0410 Uani
H35 H 0.2443 0.6858 0.5146 0.0490 Uiso
C70 C 0.4058(5) 0.7312(4) 0.5568(3) 0.0360 Uani
C71 C 0.4767(5) 0.7114(4) 0.6067(3) 0.0315 Uani
H36 H 0.5547 0.7448 0.6123 0.0380 Uiso
C72 C 0.4159(4) 0.6338(4) 0.6487(2) 0.0289 Uani
H37 H 0.4586 0.6205 0.6838 0.0340 Uiso
C73 C 0.2468(6) 0.6015(5) 0.5889(3) 0.0441 Uani
H38 H 0.1707 0.5618 0.5817 0.0530 Uiso
H46 H 0.4759 0.9586 0.6142 0.0480 Uiso
C85 C 0.6405(6) 0.9965(4) 0.5832(3) 0.0401 Uani
H18 H 0.0106 0.6292 0.1076 0.0370 Uiso
C28 C 0.0277(5) 0.5487(4) 0.0184(2) 0.0342 Uani
C42 C 0.0137(6) 0.9534(5) 0.5105(4) 0.0543 Uani
C67 C 0.0902(6) 0.9657(6) 0.5677(3) 0.0476 Uani
C82 C 0.0871(6) 0.0479(6) 0.8553(4) 0.0576 Uani
H45 H 0.1602 0.0409 0.8503 0.0690 Uiso
C87 C 0.0515(8) 0.1269(7) 0.8245(5) 0.0730 Uani
H49 H 0.1011 0.1673 0.7970 0.0880 Uiso
H58 H 0.118835 0.896849 0.581446 . .
H64 H 0.159544 0.705895 0.0312887 . .
C41 C 0.9098(6) 0.0343(6) 0.4323(3) 0.0476 Uani
C68 C 0.9863(6) 0.0466(5) 0.4895(4) 0.0543 Uani
H51 H 0.881165 0.103151 0.418554 . .
O11 O 0.5386(4) 0.2075(4) 0.8084(2) 0.0471 Uani
O12 O 0.7047(3) 0.2294(3) 0.86002(19) 0.0370 Uani
C45 C 0.6053(5) 0.1886(4) 0.8546(3) 0.0345 Uani
C46 C 0.5486(5) 0.1079(4) 0.9038(2) 0.0311 Uani
C47 C 0.4386(4) 0.0352(4) 0.8885(3) 0.0349 Uani
H26 H 0.3977 0.0369 0.8498 0.0420 Uiso
C50 C 0.6053(5) 0.1112(4) 0.9627(3) 0.0356 Uani
H28 H 0.6759 0.1616 0.9726 0.0430 Uiso
H32 H 0.9894 0.3708 0.8924 0.0370 Uiso
C59 C 0.9723(5) 0.4513(4) 0.9816(2) 0.0342 Uani
Cd5 Cd 0.70892(3) 0.31769(3) 0.763707(17) 0.0263 Uani
H52 H 0.840456 0.294105 0.968711 . .
Cd1 Cd 0.29108(3) 0.68231(3) 0.236293(17) 0.0263 Uani
S4 S 0.06972(12) 0.20991(12) 0.02796(7) 0.0380 Uani
O1 O 0.4614(4) 0.7925(4) 0.1916(2) 0.0471 Uani
O2 O 0.2953(3) 0.7706(3) 0.13998(19) 0.0370 Uani
O3 O 0.2590(4) 0.5736(4) 0.3329(2) 0.0542 Uani
O4 O 0.4322(4) 0.6316(4) 0.2995(2) 0.0442 Uani
N2 N 0.3233(4) 0.8292(4) 0.3178(2) 0.0368 Uani
N3 N 0.2252(5) 0.5189(4) 0.1704(2) 0.0436 Uani
O10 O 0.1043(3) 0.6955(3) 0.23915(19) 0.0379 Uani
C6 C 0.3947(5) 0.8114(4) 0.1454(3) 0.0345 Uani
C7 C 0.4514(5) 0.8921(4) 0.0962(2) 0.0311 Uani
C8 C 0.5614(4) 0.9648(4) 0.1115(3) 0.0349 Uani
H5 H 0.6023 0.9631 0.1502 0.0420 Uiso
C11 C 0.3947(5) 0.8888(4) 0.0373(3) 0.0356 Uani
H7 H 0.3241 0.8384 0.0274 0.0430 Uiso
C12 C 0.2660(5) 0.5006(4) 0.1103(3) 0.0362 Uani
H8 H 0.3246 0.5561 0.0972 0.0430 Uiso
C13 C 0.2265(5) 0.4049(5) 0.0672(3) 0.0381 Uani
H9 H 0.2610 0.3938 0.0286 0.0460 Uiso
C14 C 0.1322(5) 0.3279(5) 0.0861(3) 0.0414 Uani
C15 C 0.0874(6) 0.3451(5) 0.1475(3) 0.0471 Uani
H10 H 0.0272 0.2919 0.1613 0.0570 Uiso
C16 C 0.1331(6) 0.4391(5) 0.1857(3) 0.0467 Uani
H11 H 0.1000 0.4505 0.2247 0.0560 Uiso
C18 C 0.0879(5) 0.0028(5) 0.1018(3) 0.0391 Uani
H13 H 0.1400 0.0496 0.0784 0.0470 Uiso
C21 C 0.3655(7) 0.5862(5) 0.3357(4) 0.0541 Uani
C22 C 0.4518(5) 0.9928(5) 0.3789(3) 0.0401 Uani
C23 C 0.4260(4) 0.9037(4) 0.3302(2) 0.0301 Uani
H16 H 0.4844 0.8952 0.3044 0.0360 Uiso
C25 C 0.2581(5) 0.9309(5) 0.4095(3) 0.0422 Uani
H17 H 0.1998 0.9361 0.4363 0.0510 Uiso
C32 C 0.4024(9) 0.5434(7) 0.4019(3) 0.0728 Uani
C38 C 0.2426(5) 0.8422(5) 0.3572(3) 0.0384 Uani
H22 H 0.1716 0.7913 0.3509 0.0460 Uiso
C39 C 0.5401(6) 0.5362(5) 0.4896(3) 0.0503 Uani
C40 C 0.6479(9) 0.5849(9) 0.5122(5) 0.0892 Uani
H23 H 0.6991 0.6408 0.4942 0.1070 Uiso
C43 C 0.3302(11) 0.4644(9) 0.4315(4) 0.0927 Uani
H24 H 0.2564 0.4392 0.4123 0.1120 Uiso
C44 C 0.5309(13) 0.5939(11) 0.4231(5) 0.1336 Uani
H25 H 0.5868 0.6433 0.4033 0.1610 Uiso
O13 O 0.7410(4) 0.4264(4) 0.6671(2) 0.0542 Uani
O14 O 0.5678(4) 0.3684(4) 0.7005(2) 0.0442 Uani
C51 C 0.6345(7) 0.4138(5) 0.6643(4) 0.0541 Uani
C52 C 0.5976(9) 0.4566(7) 0.5981(3) 0.0728 Uani
C53 C 0.4599(6) 0.4638(5) 0.5104(3) 0.0503 Uani
C54 C 0.3521(9) 0.4151(9) 0.4878(5) 0.0892 Uani
H29 H 0.3009 0.3592 0.5058 0.1070 Uiso
C55 C 0.6698(11) 0.5356(9) 0.5685(4) 0.0927 Uani
H30 H 0.7436 0.5608 0.5877 0.1120 Uiso
C56 C 0.4691(13) 0.4061(11) 0.5769(5) 0.1336 Uani
H31 H 0.4132 0.3567 0.5967 0.1610 Uiso
S8 S 0.93028(12) 0.79009(12) 0.97204(7) 0.0380 Uani
N6 N 0.6767(4) 0.1708(4) 0.6822(2) 0.0368 Uani
N7 N 0.7748(5) 0.4811(4) 0.8296(2) 0.0436 Uani
O20 O 0.8957(3) 0.3045(3) 0.76085(19) 0.0379 Uani
C74 C 0.7340(5) 0.4994(4) 0.8897(3) 0.0362 Uani
H39 H 0.6754 0.4439 0.9028 0.0430 Uiso
C75 C 0.7735(5) 0.5951(5) 0.9328(3) 0.0381 Uani
H40 H 0.7390 0.6062 0.9714 0.0460 Uiso
C76 C 0.8678(5) 0.6721(5) 0.9139(3) 0.0414 Uani
C77 C 0.9126(6) 0.6549(5) 0.8525(3) 0.0471 Uani
H41 H 0.9728 0.7081 0.8387 0.0570 Uiso
C78 C 0.8669(6) 0.5609(5) 0.8143(3) 0.0467 Uani
H42 H 0.9000 0.5495 0.7753 0.0560 Uiso
C80 C 0.9121(5) 0.9972(5) 0.8982(3) 0.0391 Uani
H44 H 0.8600 0.9504 0.9216 0.0470 Uiso
C83 C 0.5482(5) 0.0072(5) 0.6211(3) 0.0401 Uani
C84 C 0.5740(4) 0.0963(4) 0.6698(2) 0.0301 Uani
H47 H 0.5156 0.1048 0.6956 0.0360 Uiso
C86 C 0.7419(5) 0.0691(5) 0.5905(3) 0.0422 Uani
H48 H 0.8002 0.0639 0.5637 0.0510 Uiso
C88 C 0.7574(5) 0.1578(5) 0.6428(3) 0.0384 Uani
H50 H 0.8284 0.2087 0.6491 0.0460 Uiso
C20 C 0.9129(6) 0.9521(6) 0.1447(4) 0.0576 Uani
H14 H 0.8398 0.9591 0.1497 0.0690 Uiso
C37 C 0.9485(8) 0.8731(7) 0.1755(5) 0.0730 Uani
H21 H 0.8989 0.8327 0.2030 0.0880 Uiso
S7 S 0.06677(12) 0.88286(12) 0.92976(7) 0.0386 Uani
C81 C 0.0183(4) 0.9837(4) 0.8912(3) 0.0319 Uani
Cd2 Cd 0.77683(4) 0.54427(4) 0.28985(2) 0.0409 Uani
S1 S 0.54351(15) 0.17446(13) 0.50112(8) 0.0467 Uani
S2 S 0.37210(15) 0.11449(14) 0.48035(9) 0.0498 Uani
O5 O 0.7619(3) 0.4235(3) 0.18712(19) 0.0349 Uani
O6 O 0.8688(6) 0.5969(4) 0.1983(3) 0.0779 Uani
O7 O 0.7947(5) 0.7294(4) 0.3248(3) 0.0643 Uani
O8 O 0.8855(4) 0.6537(4) 0.3875(3) 0.0694 Uani
N1 N 0.6890(4) 0.4184(4) 0.3568(2) 0.0388 Uani
O9 O 0.5962(4) 0.5412(3) 0.2450(2) 0.0454 Uani
C1 C 0.7099(5) 0.3266(5) 0.4515(3) 0.0410 Uani
H1 H 0.7557 0.3142 0.4854 0.0490 Uiso
C2 C 0.5942(5) 0.2688(4) 0.4432(3) 0.0360 Uani
C3 C 0.5233(5) 0.2886(4) 0.3933(3) 0.0315 Uani
H2 H 0.4453 0.2552 0.3877 0.0380 Uiso
C4 C 0.5841(4) 0.3662(4) 0.3513(2) 0.0289 Uani
H3 H 0.5414 0.3795 0.3162 0.0340 Uiso
C5 C 0.7532(6) 0.3985(5) 0.4111(3) 0.0441 Uani
H4 H 0.8293 0.4382 0.4183 0.0530 Uiso
C9 C 0.6051(5) 0.0357(4) 0.0694(3) 0.0339 Uani
H6 H 0.6737 0.0873 0.0826 0.0410 Uiso
C10 C 0.5584(4) 0.0394(4) 0.0088(3) 0.0332 Uani
H15 H 0.5241 0.0414 0.3858 0.0480 Uiso
C24 C 0.3595(6) 0.0035(4) 0.4168(3) 0.0401 Uani
C26 C 0.8766(5) 0.4855(5) 0.0986(3) 0.0371 Uani
C27 C 0.9780(4) 0.5662(4) 0.0797(3) 0.0306 Uani
C30 C 0.8355(4) 0.3853(4) 0.0591(2) 0.0269 Uani
C31 C 0.8324(6) 0.5018(5) 0.1649(3) 0.0468 Uani
C33 C 0.8641(6) 0.7343(5) 0.3738(3) 0.0470 Uani
C34 C 0.9023(5) 0.8421(5) 0.4163(3) 0.0406 Uani
C35 C 0.8736(6) 0.9352(5) 0.3955(3) 0.0501 Uani
H19 H 0.8299 0.9286 0.3566 0.0600 Uiso
C36 C 0.9595(8) 0.8483(5) 0.4721(3) 0.0671 Uani
H20 H 0.9661 0.7844 0.4880 0.0810 Uiso
C60 C 0.8776(4) 0.3688(4) 0.0008(3) 0.0318 Uani
N8 N 0.9526(5) 0.1484(4) 0.8314(3) 0.0533 Uani
C79 C 0.8815(7) 0.0832(6) 0.8696(3) 0.0527 Uani
H43 H 0.8111 0.0951 0.8772 0.0630 Uiso
H63 H 0.768728 0.320401 0.076073 . .
S3 S 0.93323(12) 0.11714(12) 0.07024(7) 0.0386 Uani
C19 C 0.9817(4) 0.0163(4) 0.1088(3) 0.0319 Uani
loop_
_atom_site_aniso_label
_atom_site_aniso_U_11
_atom_site_aniso_U_22
_atom_site_aniso_U_33
_atom_site_aniso_U_23
_atom_site_aniso_U_13
_atom_site_aniso_U_12
O17 0.07 0.061 0.065 -0.001 -0.006 0.027
O18 0.056 0.039 0.105 0.016 -0.035 0.002
C63 0.055 0.039 0.049 0.004 0.007 0.016
C64 0.039 0.042 0.039 0.002 0 0.009
C65 0.059 0.046 0.036 0.001 0.002 0
C66 0.127 0.035 0.035 0.005 0.001 0.015
Cd7 0.0406 0.0412 0.0407 0.00413 0.00281 0.0111
C29 0.03 0.036 0.032 0.005 0.003 0.013
O15 0.0304 0.036 0.038 0.0038 0.0005 0.009
O16 0.138 0.036 0.054 0 0.042 0.011
C57 0.034 0.036 0.042 0.002 -0.003 0.012
C58 0.032 0.022 0.035 0.0026 -0.006 0.0041
C61 0.027 0.028 0.025 0.0035 0.0018 0.006
C62 0.066 0.033 0.038 0.002 0.006 0.008
C48 0.029 0.033 0.037 0.002 0 0.005
C49 0.029 0.035 0.037 0.002 0.006 0.011
N4 0.04 0.042 0.077 0.008 -0.01 0.011
C17 0.069 0.055 0.043 0.005 0.004 0.032
S5 0.0533 0.0412 0.0439 0.0044 -0.0022 0.0109
S6 0.0505 0.0467 0.0521 0.0048 0.008 0.0125
N5 0.047 0.034 0.034 0.0039 0 0.009
O19 0.048 0.044 0.044 0.005 0.0017 0.0124
C69 0.049 0.037 0.034 0.007 -0.001 0.006
C70 0.041 0.028 0.037 0.003 -0.003 0.007
C71 0.032 0.03 0.032 -0.001 -0.004 0.01
C72 0.021 0.039 0.027 0.011 0.0007 0.0063
C73 0.046 0.054 0.038 0 -0.004 0.026
C85 0.066 0.031 0.026 0.004 0.006 0.017
C28 0.043 0.029 0.024 0.001 0.005 -0.001
C42 0.052 0.043 0.067 0.013 -0.009 0.011
C67 0.046 0.052 0.047 -0.002 0.001 0.02
C82 0.036 0.045 0.09 0.015 -0.007 0.007
C87 0.074 0.063 0.08 0.016 0.004 0.013
C41 0.046 0.052 0.047 -0.002 0.001 0.02
C68 0.052 0.043 0.067 0.013 -0.009 0.011
O11 0.052 0.045 0.046 0.0061 0.01 0.015
O12 0.035 0.039 0.035 0.0059 -0.0007 0.0067
C45 0.032 0.032 0.038 0 0.007 0.007
C46 0.04 0.026 0.027 0.0039 0.004 0.008
C47 0.026 0.037 0.039 0.015 -0.003 0.001
C50 0.043 0.021 0.039 0.001 -0.019 0.006
C59 0.043 0.029 0.024 0.001 0.005 -0.001
Cd5 0.02589 0.02665 0.02626 0.00288 0.0017 0.00725
Cd1 0.02589 0.02665 0.02626 0.00288 0.0017 0.00725
S4 0.0363 0.0378 0.0394 0.0031 0.0025 0.0096
O1 0.052 0.045 0.046 0.0061 0.01 0.015
O2 0.035 0.039 0.035 0.0059 -0.0007 0.0067
O3 0.067 0.055 0.047 0.009 0.008 0.026
O4 0.042 0.047 0.046 0.0064 0.0011 0.0161
N2 0.038 0.044 0.032 0.0076 0.0033 0.016
N3 0.073 0.027 0.029 0.003 0.001 0.011
O10 0.041 0.036 0.034 0.003 0.0024 0.0064
C6 0.032 0.032 0.038 0 0.007 0.007
C7 0.04 0.026 0.027 0.0039 0.004 0.008
C8 0.026 0.037 0.039 0.015 -0.003 0.001
C11 0.043 0.021 0.039 0.001 -0.019 0.006
C12 0.036 0.03 0.041 0.004 0.005 0.006
C13 0.042 0.038 0.035 0 0.005 0.013
C14 0.041 0.033 0.05 -0.011 -0.021 0.018
C15 0.054 0.047 0.043 0.006 0.004 0.018
C16 0.047 0.048 0.049 0.013 0.013 0.016
C18 0.033 0.052 0.033 0.001 0.003 0.014
C21 0.069 0.041 0.051 -0.004 -0.019 0.019
C22 0.038 0.039 0.043 0.004 0.01 0.009
C23 0.033 0.03 0.028 0.0023 0.003 0.01
C25 0.046 0.034 0.047 0.008 0.02 0.008
C32 0.138 0.09 0.028 0.017 0.018 0.09
C38 0.032 0.034 0.044 0.009 -0.009 0
C39 0.047 0.045 0.056 -0.002 -0.011 0.012
C40 0.094 0.094 0.077 0.014 0.018 0.018
C43 0.163 0.129 0.032 0.006 0.005 0.119
C44 0.211 0.161 0.072 -0.061 -0.07 0.159
O13 0.067 0.055 0.047 0.009 0.008 0.026
O14 0.042 0.047 0.046 0.0064 0.0011 0.0161
C51 0.069 0.041 0.051 -0.004 -0.019 0.019
C52 0.138 0.09 0.028 0.017 0.018 0.09
C53 0.047 0.045 0.056 -0.002 -0.011 0.012
C54 0.094 0.094 0.077 0.014 0.018 0.018
C55 0.163 0.129 0.032 0.006 0.005 0.119
C56 0.211 0.161 0.072 -0.061 -0.07 0.159
S8 0.0363 0.0378 0.0394 0.0031 0.0025 0.0096
N6 0.038 0.044 0.032 0.0076 0.0033 0.016
N7 0.073 0.027 0.029 0.003 0.001 0.011
O20 0.041 0.036 0.034 0.003 0.0024 0.0064
C74 0.036 0.03 0.041 0.004 0.005 0.006
C75 0.042 0.038 0.035 0 0.005 0.013
C76 0.041 0.033 0.05 -0.011 -0.021 0.018
C77 0.054 0.047 0.043 0.006 0.004 0.018
C78 0.047 0.048 0.049 0.013 0.013 0.016
C80 0.033 0.052 0.033 0.001 0.003 0.014
C83 0.038 0.039 0.043 0.004 0.01 0.009
C84 0.033 0.03 0.028 0.0023 0.003 0.01
C86 0.046 0.034 0.047 0.008 0.02 0.008
C88 0.032 0.034 0.044 0.009 -0.009 0
C20 0.036 0.045 0.09 0.015 -0.007 0.007
C37 0.074 0.063 0.08 0.016 0.004 0.013
S7 0.0382 0.0371 0.0415 0.0051 0.0051 0.0113
C81 0.031 0.035 0.032 -0.006 -0.005 0.017
Cd2 0.0406 0.0412 0.0407 0.00413 0.00281 0.0111
S1 0.0533 0.0412 0.0439 0.0044 -0.0022 0.0109
S2 0.0505 0.0467 0.0521 0.0048 0.008 0.0125
O5 0.0304 0.036 0.038 0.0038 0.0005 0.009
O6 0.138 0.036 0.054 0 0.042 0.011
O7 0.07 0.061 0.065 -0.001 -0.006 0.027
O8 0.056 0.039 0.105 0.016 -0.035 0.002
N1 0.047 0.034 0.034 0.0039 0 0.009
O9 0.048 0.044 0.044 0.005 0.0017 0.0124
C1 0.049 0.037 0.034 0.007 -0.001 0.006
C2 0.041 0.028 0.037 0.003 -0.003 0.007
C3 0.032 0.03 0.032 -0.001 -0.004 0.01
C4 0.021 0.039 0.027 0.011 0.0007 0.0063
C5 0.046 0.054 0.038 0 -0.004 0.026
C9 0.029 0.033 0.037 0.002 0 0.005
C10 0.029 0.035 0.037 0.002 0.006 0.011
C24 0.066 0.031 0.026 0.004 0.006 0.017
C26 0.034 0.036 0.042 0.002 -0.003 0.012
C27 0.032 0.022 0.035 0.0026 -0.006 0.0041
C30 0.027 0.028 0.025 0.0035 0.0018 0.006
C31 0.066 0.033 0.038 0.002 0.006 0.008
C33 0.055 0.039 0.049 0.004 0.007 0.016
C34 0.039 0.042 0.039 0.002 0 0.009
C35 0.059 0.046 0.036 0.001 0.002 0
C36 0.127 0.035 0.035 0.005 0.001 0.015
C60 0.03 0.036 0.032 0.005 0.003 0.013
N8 0.04 0.042 0.077 0.008 -0.01 0.011
C79 0.069 0.055 0.043 0.005 0.004 0.032
S3 0.0382 0.0371 0.0415 0.0051 0.0051 0.0113
C19 0.031 0.035 0.032 -0.006 -0.005 0.017
loop_
_geom_bond_atom_site_label_1
_geom_bond_atom_site_label_2
_geom_bond_site_symmetry_1
_geom_bond_site_symmetry_2
O17 C63 1_555 1_555
O18 C63 1_555 1_555
C63 C64 1_555 1_555
C64 C65 1_555 1_555
C65 H33 1_555 1_555
C66 C64 1_555 1_555
H34 C66 1_555 1_555
Cd7 O17 1_555 1_555
O18 Cd7 1_555 1_555
O15 C62 1_555 1_555
O16 C62 1_555 1_555
C57 C58 1_555 1_555
C61 C29 1_555 1_555
C62 C57 1_555 1_555
Cd7 O15 1_555 1_555
O16 Cd7 1_555 1_555
C57 C61 1_555 1_555
C61 H53 1_555 1_555
H27 C48 1_555 1_555
C48 C49 1_555 1_555
N4 C17 1_555 1_555
C17 H12 1_555 1_555
Cd7 N5 1_555 1_555
S5 S6 1_555 1_555
S6 C85 1_555 1_555
N5 C72 1_555 1_555
O19 Cd7 1_555 1_555
C69 H35 1_555 1_555
C70 S5 1_555 1_555
C71 C70 1_555 1_555
H36 C71 1_555 1_555
C72 C71 1_555 1_555
H37 C72 1_555 1_555
C73 N5 1_555 1_555
H38 C73 1_555 1_555
C69 C70 1_555 1_555
C69 C73 1_555 1_555
C67 C42 1_555 1_555
H45 C82 1_555 1_555
H49 C87 1_555 1_555
C82 C87 1_555 1_555
C67 H58 1_555 1_555
C68 C41 1_555 1_555
C41 H51 1_555 1_555
O11 C45 1_555 1_555
O12 C45 1_555 1_555
C45 C46 1_555 1_555
C46 C47 1_555 1_555
C47 H26 1_555 1_555
H28 C50 1_555 1_555
Cd5 O11 1_555 1_555
O12 Cd5 1_555 1_555
C46 C50 1_555 1_555
Cd1 O1 1_555 1_555
S4 C14 1_555 1_555
O1 C6 1_555 1_555
O2 Cd1 1_555 1_555
O3 Cd1 1_555 1_555
O4 Cd1 1_555 1_555
N2 Cd1 1_555 1_555
N3 Cd1 1_555 1_555
O10 Cd1 1_555 1_555
C6 O2 1_555 1_555
C7 C6 1_555 1_555
C8 C7 1_555 1_555
H5 C8 1_555 1_555
C11 C7 1_555 1_555
H7 C11 1_555 1_555
C12 N3 1_555 1_555
H8 C12 1_555 1_555
C13 C12 1_555 1_555
H9 C13 1_555 1_555
C14 C13 1_555 1_555
C15 C14 1_555 1_555
H10 C15 1_555 1_555
C16 N3 1_555 1_555
H11 C16 1_555 1_555
H13 C18 1_555 1_555
C21 O3 1_555 1_555
C23 N2 1_555 1_555
H16 C23 1_555 1_555
H17 C25 1_555 1_555
C32 C21 1_555 1_555
C38 N2 1_555 1_555
H22 C38 1_555 1_555
C39 C40 1_555 1_555
C40 H23 1_555 1_555
C43 C32 1_555 1_555
H24 C43 1_555 1_555
C44 C32 1_555 1_555
H25 C44 1_555 1_555
O13 C51 1_555 1_555
O14 C51 1_555 1_555
C51 C52 1_555 1_555
C52 C55 1_555 1_555
C53 C39 1_555 1_555
C54 C43 1_555 1_555
H29 C54 1_555 1_555
C55 C40 1_555 1_555
H30 C55 1_555 1_555
C56 C52 1_555 1_555
H31 C56 1_555 1_555
Cd5 O13 1_555 1_555
S8 C76 1_555 1_555
N6 Cd5 1_555 1_555
N7 Cd5 1_555 1_555
O20 Cd5 1_555 1_555
C74 N7 1_555 1_555
H39 C74 1_555 1_555
C75 C74 1_555 1_555
H40 C75 1_555 1_555
C76 C75 1_555 1_555
C77 C76 1_555 1_555
H41 C77 1_555 1_555
C78 N7 1_555 1_555
H42 C78 1_555 1_555
H44 C80 1_555 1_555
C84 N6 1_555 1_555
H47 C84 1_555 1_555
H48 C86 1_555 1_555
C88 N6 1_555 1_555
H50 C88 1_555 1_555
O4 C21 1_555 1_555
C15 C16 1_555 1_555
C22 C23 1_555 1_555
C25 C38 1_555 1_555
C39 C44 1_555 1_555
O14 Cd5 1_555 1_555
C53 C54 1_555 1_555
C53 C56 1_555 1_555
C77 C78 1_555 1_555
C83 C84 1_555 1_555
C86 C88 1_555 1_555
H14 C20 1_555 1_555
H21 C37 1_555 1_555
C20 C37 1_555 1_555
C81 S7 1_555 1_555
Cd2 O5 1_555 1_555
S1 S2 1_555 1_555
S2 C24 1_555 1_555
O5 C31 1_555 1_555
O6 Cd2 1_555 1_555
O7 Cd2 1_555 1_555
O8 Cd2 1_555 1_555
N1 Cd2 1_555 1_555
O9 Cd2 1_555 1_555
C1 H1 1_555 1_555
C2 S1 1_555 1_555
C3 C2 1_555 1_555
H2 C3 1_555 1_555
C4 N1 1_555 1_555
H3 C4 1_555 1_555
C5 N1 1_555 1_555
H4 C5 1_555 1_555
H6 C9 1_555 1_555
C10 C9 1_555 1_555
C26 C27 1_555 1_555
C30 C26 1_555 1_555
C31 O6 1_555 1_555
C33 O7 1_555 1_555
C34 C33 1_555 1_555
C35 C34 1_555 1_555
H19 C35 1_555 1_555
C36 C34 1_555 1_555
H20 C36 1_555 1_555
C60 C30 1_555 1_555
N8 C79 1_555 1_555
C79 H43 1_555 1_555
O8 C33 1_555 1_555
C1 C2 1_555 1_555
C1 C5 1_555 1_555
C3 C4 1_555 1_555
C26 C31 1_555 1_555
C30 H63 1_555 1_555
C19 S3 1_555 1_555

#END
