
###############################################################################
#
# This file contains modified crystal structure data generated from the
# MOF subset of the Cambridge Structural Database (CSD) v543 
# hosted by the Cambridge Crystallographic Data Centre (CCDC).
#
# This work is licensed under the Creative Commons
# Attribution-NonCommercial-ShareAlike 4.0 International License.
# To view a copy of this license, visit
# http://creativecommons.org/licenses/by-nc-sa/4.0/
# or send a letter to
# Creative Commons, PO Box 1866, Mountain View, CA 94042, USA.
#
# CIF created using the CSD Python API on 29 September 2022
# The structure has been converted into the P1 space group
# The structure has a 3D framework
# The original CSD entry WUJWIK is in the monoclinic crystal system
# The framework has been calculated to contain at least 10.0% void space
# The void calculation uses a probe of radius 1.32A, grid spacing 0.4
#
###############################################################################

data_WUJWIK
_chemical_formula_moiety         '(C160 H104 N16 O48 Zn8)n'
_symmetry_cell_setting           triclinic
_symmetry_space_group_name_H-M   'P 1'
_symmetry_Int_Tables_number      1
_space_group_name_Hall           'P 1'
loop_
_symmetry_equiv_pos_site_id
_symmetry_equiv_pos_as_xyz
1 x,y,z
_cell_length_a                   12.258(3)
_cell_length_b                   26.661(5)
_cell_length_c                   15.684(3)
_cell_angle_alpha                90
_cell_angle_beta                 96.19(3)
_cell_angle_gamma                90
_cell_volume                     5095.81
loop_
_atom_site_label
_atom_site_type_symbol
_atom_site_fract_x
_atom_site_fract_y
_atom_site_fract_z
O1 O 0.1667(5) 0.2012(3) 0.1011(4)
C1 C 0.0874(8) 0.1716(4) 0.1194(5)
C2 C 0.1101(8) 0.1176(4) 0.1186(6)
C3 C 0.2017(9) 0.0987(4) 0.0833(8)
H3 H 0.2528 0.1215 0.0631
C4 C 0.2199(9) 0.0479(4) 0.0769(8)
H4 H 0.2829 0.0358 0.0529
C5 C 0.1445(8) 0.0144(4) 0.1061(7)
C6 C 0.0537(8) 0.0327(4) 0.1436(7)
H5 H 0.0034 0.0100 0.1649
C7 C 0.0374(8) 0.0830(4) 0.1495(7)
Zn3 Zn 0.11707(9) 0.27007(4) 0.09011(7)
N4 N 0.6316(6) 0.7662(3) 0.1073(5)
C38 C 0.6711(7) 0.7844(3) 0.0407(5)
H24 H 0.7464 0.7935 0.0441
C39 C 0.5287(7) 0.7526(3) 0.1081(6)
H25 H 0.5038 0.7394 0.1589
C40 C 0.4555(7) 0.7579(3) 0.0329(5)
H26 H 0.3806 0.7483 0.0308
Zn4 Zn 0.73228(9) 0.74716(4) 0.22181(7)
O2 O 0.9959(5) 0.1879(3) 0.1336(4)
O6 O 0.2410(6) 0.1766(2) 0.2903(4)
O7 O 0.4065(6) 0.1694(3) 0.2425(5)
H6 H 0.9757 0.0950 0.1751
C15 C 0.3284(8) 0.1508(4) 0.2752(6)
C16 C 0.3276(8) 0.0973(4) 0.3030(6)
C17 C 0.2404(9) 0.0772(4) 0.3426(7)
H11 H 0.1776 0.0974 0.3479
C18 C 0.2433(9) 0.0290(4) 0.3741(7)
H12 H 0.1833 0.0159 0.4007
C19 C 0.3355(10) 0.0001(5) 0.3664(8)
C20 C 0.4232(11) 0.0189(5) 0.3264(8)
C21 C 0.4176(10) 0.0667(4) 0.2952(8)
H14 H 0.4769 0.0794 0.2673
Zn5 Zn 0.26772(9) 0.24716(4) 0.27819(7)
Zn1 Zn 0.88293(9) 0.77007(4) 0.40989(7)
O4 O 0.8587(5) 0.7887(2) 0.2019(4)
O5 O 0.9574(6) 0.8070(3) 0.3262(5)
O8 O 0.3307(8) 0.9528(3) 0.4002(7)
O9 O 0.6547(5) 0.7827(2) 0.3068(4)
O10 O 0.7566(6) 0.8144(3) 0.4220(5)
N1 N 0.9766(6) 0.7781(3) 0.5203(5)
C11 C 0.9965(8) 0.8525(3) 0.2053(6)
C12 C 0.9787(9) 0.8602(4) 0.1183(7)
H9 H 0.9290 0.8394 0.0838
C14 C 0.9339(8) 0.8129(4) 0.2474(6)
H13 H 0.4859 0.9987 0.3209
C22 C 0.4161(10) 0.9187(4) 0.3893(8)
C23 C 0.4013(11) 0.8828(5) 0.3260(9)
H15 H 0.3357 0.8816 0.2879
C24 C 0.4869(10) 0.8477(4) 0.3194(7)
H16 H 0.4817 0.8238 0.2743
C25 C 0.5790(8) 0.8489(4) 0.3801(6)
C26 C 0.5890(10) 0.8840(4) 0.4438(8)
H17 H 0.6529 0.8846 0.4839
C27 C 0.5063(10) 0.9188(5) 0.4505(9)
H18 H 0.5115 0.9423 0.4962
C28 C 0.6691(9) 0.8121(4) 0.3694(6)
H21 H 0.9821 0.8284 0.7097
C33 C 0.9431(8) 0.8046(4) 0.5877(6)
H22 H 0.8735 0.8206 0.5806
O13 O 0.8333(5) 0.7012(3) 0.3989(4)
O14 O 0.7590(6) 0.6766(2) 0.2097(4)
O2_2 O 0.0041(5) 0.6879(3) 0.3664(4)
O4_2 O 0.1413(5) 0.2887(2) 0.2981(4)
O5_2 O 0.0426(6) 0.3070(3) 0.1738(5)
O7_2 O 0.5935(6) 0.6694(3) 0.2575(5)
O8_2 O 0.6693(8) 0.4528(3) 0.0998(7)
O9_2 O 0.3453(5) 0.2827(2) 0.1932(4)
O10_2 O 0.2434(6) 0.3144(3) 0.0780(5)
H6_2 H 0.0243 0.5950 0.3249
C11_2 C 0.0035(8) 0.3525(3) 0.2947(6)
C12_2 C 0.0213(9) 0.3602(4) 0.3817(7)
H9_2 H 0.0710 0.3394 0.4162
C14_2 C 0.0661(8) 0.3129(4) 0.2526(6)
C15_2 C 0.6716(8) 0.6508(4) 0.2248(6)
C16_2 C 0.6724(8) 0.5973(4) 0.1970(6)
C17_2 C 0.7596(9) 0.5772(4) 0.1574(7)
H11_2 H 0.8224 0.5974 0.1521
C18_2 C 0.7567(9) 0.5290(4) 0.1259(7)
H12_2 H 0.8167 0.5159 0.0993
C19_2 C 0.6645(10) 0.5001(5) 0.1336(8)
C20_2 C 0.5768(11) 0.5189(5) 0.1736(8)
H13_2 H 0.5141 0.4987 0.1791
C21_2 C 0.5824(10) 0.5667(4) 0.2048(8)
H14_2 H 0.5231 0.5794 0.2327
C22_2 C 0.5839(10) 0.4187(4) 0.1107(8)
C23_2 C 0.5987(11) 0.3828(5) 0.1740(9)
H15_2 H 0.6643 0.3816 0.2121
C24_2 C 0.5131(10) 0.3477(4) 0.1806(7)
H16_2 H 0.5183 0.3238 0.2257
C25_2 C 0.4210(8) 0.3489(4) 0.1199(6)
C26_2 C 0.4110(10) 0.3840(4) 0.0562(8)
H17_2 H 0.3471 0.3846 0.0161
C27_2 C 0.4937(10) 0.4188(5) 0.0495(9)
H18_2 H 0.4885 0.4423 0.0038
C28_2 C 0.3309(9) 0.3121(4) 0.1306(6)
N5 N 0.3684(6) 0.2662(3) 0.3927(5)
O3 O 0.8355(7) 0.4642(3) 0.4082(5)
C1_2 C 0.9126(8) 0.6716(4) 0.3806(5)
C2_2 C 0.8899(8) 0.6176(4) 0.3814(6)
C3_2 C 0.7983(9) 0.5987(4) 0.4167(8)
H3_2 H 0.7472 0.6215 0.4369
C4_2 C 0.7801(9) 0.5479(4) 0.4231(8)
H4_2 H 0.7171 0.5358 0.4471
C5_2 C 0.8555(8) 0.5144(4) 0.3939(7)
C6_2 C 0.9463(8) 0.5327(4) 0.3564(7)
H5_2 H 0.9966 0.5100 0.3351
C7_2 C 0.9626(8) 0.5830(4) 0.3505(7)
C8 C 0.8955(9) 0.4283(4) 0.3683(7)
C9 C 0.8768(10) 0.4221(4) 0.2801(7)
H7 H 0.8283 0.4436 0.2459
C10 C 0.9313(9) 0.3836(4) 0.2437(7)
H8 H 0.9196 0.3782 0.1835
C13 C 0.9658(10) 0.3991(5) 0.4195(7)
H10 H 0.9772 0.4048 0.4796
H19 H 0.8996 0.2373 0.0129
O11 O 0.6591(6) 0.2699(4) 0.7804(5)
O12 O 0.7405(6) 0.2738(3) 0.5776(5)
N2 N 0.8290(6) 0.2862(3) 0.7414(5)
H1 H 0.8642 0.2932 0.6969
N3 N 0.5675(7) 0.2824(3) 0.6194(6)
H2 H 0.5329 0.2883 0.6648
C29 C 0.9242(8) 0.2556(4) 0.9666(7)
C30 C 0.8567(8) 0.2573(5) 0.8909(7)
H20 H 0.7877 0.2407 0.8852
C31 C 0.8916(7) 0.2839(4) 0.8229(6)
C32 C 0.9934(8) 0.3088(4) 0.8351(6)
C34 C 0.7195(8) 0.2784(5) 0.7268(7)
C35 C 0.6775(9) 0.2784(4) 0.6314(6)
C36 C 0.5019(9) 0.2777(4) 0.5371(8)
C37 C 0.3940(8) 0.2905(4) 0.5342(6)
H23 H 0.3650 0.3035 0.5834
C38_2 C 0.3289(7) 0.2844(3) 0.4593(5)
H24_2 H 0.2536 0.2935 0.4559
C39_2 C 0.4713(7) 0.2526(3) 0.3919(6)
H25_2 H 0.4962 0.2394 0.3411
C40_2 C 0.5445(7) 0.2579(3) 0.4671(5)
H26_2 H 0.6194 0.2483 0.4692
O3_2 O 0.1645(7) 0.9642(3) 0.0918(5)
O11_2 O 0.3409(6) 0.7699(4) 0.7196(5)
O12_2 O 0.2595(6) 0.7738(3) 0.9224(5)
N2_2 N 0.1710(6) 0.7862(3) 0.7586(5)
H1_2 H 0.1358 0.7932 0.8031
N3_2 N 0.4325(7) 0.7824(3) 0.8806(6)
H2_2 H 0.4671 0.7883 0.8352
C8_2 C 0.1045(9) 0.9283(4) 0.1317(7)
C9_2 C 0.1232(10) 0.9221(4) 0.2199(7)
H7_2 H 0.1717 0.9436 0.2541
C10_2 C 0.0687(9) 0.8836(4) 0.2563(7)
H8_2 H 0.0804 0.8782 0.3165
C13_2 C 0.0342(10) 0.8991(5) 0.0805(7)
H10_2 H 0.0228 0.9048 0.0204
C29_2 C 0.0758(8) 0.7556(4) 0.5334(7)
H19_2 H 0.1004 0.7373 0.4871
C30_2 C 0.1433(8) 0.7573(5) 0.6091(7)
H20_2 H 0.2123 0.7407 0.6148
C31_2 C 0.1084(7) 0.7839(4) 0.6771(6)
C32_2 C 0.0066(8) 0.8088(4) 0.6649(6)
C34_2 C 0.2805(8) 0.7784(5) 0.7732(7)
C35_2 C 0.3225(9) 0.7784(4) 0.8686(6)
C36_2 C 0.4981(9) 0.7777(4) 0.9629(8)
C37_2 C 0.6060(8) 0.7905(4) 0.9658(6)
H23_2 H 0.6350 0.8035 0.9166
N1_2 N 0.0234(6) 0.2781(3) 0.9797(5)
H21_2 H 0.0179 0.3284 0.7903
C33_2 C 0.0569(8) 0.3046(4) 0.9123(6)
H22_2 H 0.1265 0.3206 0.9194
Zn1_2 Zn 0.11707(9) 0.22993(4) 0.59011(7)
Zn2 Zn 0.26772(9) 0.25284(4) 0.77819(7)
O4_3 O 0.1413(5) 0.2113(2) 0.7981(4)
O5_3 O 0.0426(6) 0.1930(3) 0.6738(5)
O8_3 O 0.6693(8) 0.0472(3) 0.5998(7)
O9_3 O 0.3453(5) 0.2173(2) 0.6932(4)
O10_3 O 0.2434(6) 0.1856(3) 0.5780(5)
N1_3 N 0.0234(6) 0.2219(3) 0.4797(5)
C11_3 C 0.0035(8) 0.1475(3) 0.7947(6)
C12_3 C 0.0213(9) 0.1398(4) 0.8817(7)
H9_3 H 0.0710 0.1606 0.9162
C14_3 C 0.0661(8) 0.1871(4) 0.7526(6)
H13_3 H 0.5141 0.0013 0.6791
C22_3 C 0.5839(10) 0.0813(4) 0.6107(8)
C23_3 C 0.5987(11) 0.1172(5) 0.6740(9)
H15_3 H 0.6643 0.1184 0.7121
C24_3 C 0.5131(10) 0.1523(4) 0.6806(7)
H16_3 H 0.5183 0.1762 0.7257
C25_3 C 0.4210(8) 0.1511(4) 0.6199(6)
C26_3 C 0.4110(10) 0.1160(4) 0.5562(8)
H17_3 H 0.3471 0.1154 0.5161
C27_3 C 0.4937(10) 0.0812(5) 0.5495(9)
H18_3 H 0.4885 0.0577 0.5038
C28_3 C 0.3309(9) 0.1879(4) 0.6306(6)
H21_3 H 0.0179 0.1716 0.2903
C33_3 C 0.0569(8) 0.1954(4) 0.4123(6)
H22_3 H 0.1265 0.1794 0.4194
O13_2 O 0.1667(5) 0.2988(3) 0.6011(4)
O14_2 O 0.2410(6) 0.3234(2) 0.7903(4)
N5_2 N 0.3684(6) 0.2338(3) 0.8927(5)
O2_3 O 0.0041(5) 0.8121(3) 0.8664(4)
O6_2 O 0.7590(6) 0.8234(2) 0.7097(4)
O7_3 O 0.5935(6) 0.8306(3) 0.7575(5)
H6_3 H 0.0243 0.9050 0.8249
C15_3 C 0.6716(8) 0.8492(4) 0.7248(6)
C16_3 C 0.6724(8) 0.9027(4) 0.6970(6)
C17_3 C 0.7596(9) 0.9228(4) 0.6574(7)
H11_3 H 0.8224 0.9026 0.6521
C18_3 C 0.7567(9) 0.9710(4) 0.6259(7)
H12_3 H 0.8167 0.9841 0.5993
C19_3 C 0.6645(10) 0.9999(5) 0.6336(8)
C20_3 C 0.5768(11) 0.9811(5) 0.6736(8)
C21_3 C 0.5824(10) 0.9333(4) 0.7048(8)
H14_3 H 0.5231 0.9206 0.7327
Zn5_2 Zn 0.73228(9) 0.75284(4) 0.72181(7)
C38_3 C 0.3289(7) 0.2156(3) 0.9593(5)
H24_3 H 0.2536 0.2065 0.9559
C39_3 C 0.4713(7) 0.2474(3) 0.8919(6)
H25_3 H 0.4962 0.2606 0.8411
C40_3 C 0.5445(7) 0.2421(3) 0.9671(5)
H26_3 H 0.6194 0.2517 0.9692
O1_2 O 0.8333(5) 0.7988(3) 0.8989(4)
C1_3 C 0.9126(8) 0.8284(4) 0.8806(5)
C2_3 C 0.8899(8) 0.8824(4) 0.8814(6)
C3_3 C 0.7983(9) 0.9013(4) 0.9167(8)
H3_3 H 0.7472 0.8785 0.9369
C4_3 C 0.7801(9) 0.9521(4) 0.9231(8)
H4_3 H 0.7171 0.9642 0.9471
C5_3 C 0.8555(8) 0.9856(4) 0.8939(7)
C6_3 C 0.9463(8) 0.9673(4) 0.8564(7)
H5_3 H 0.9966 0.9900 0.8351
C7_3 C 0.9626(8) 0.9170(4) 0.8505(7)
Zn3_2 Zn 0.88293(9) 0.72993(4) 0.90989(7)
O11_3 O 0.3409(6) 0.7301(4) 0.2196(5)
O12_3 O 0.2595(6) 0.7262(3) 0.4224(5)
N2_3 N 0.1710(6) 0.7138(3) 0.2586(5)
H1_3 H 0.1358 0.7068 0.3031
N3_3 N 0.4325(7) 0.7176(3) 0.3806(6)
H2_3 H 0.4671 0.7117 0.3352
N4_2 N 0.6316(6) 0.7338(3) 0.6073(5)
C29_3 C 0.0758(8) 0.7444(4) 0.0334(7)
C30_3 C 0.1433(8) 0.7427(5) 0.1091(7)
H20_3 H 0.2123 0.7593 0.1148
C31_3 C 0.1084(7) 0.7161(4) 0.1771(6)
C32_3 C 0.0066(8) 0.6912(4) 0.1649(6)
C34_3 C 0.2805(8) 0.7216(5) 0.2732(7)
C35_3 C 0.3225(9) 0.7216(4) 0.3686(6)
C36_3 C 0.4981(9) 0.7223(4) 0.4629(8)
C37_3 C 0.6060(8) 0.7095(4) 0.4658(6)
H23_3 H 0.6350 0.6965 0.4166
C38_4 C 0.6711(7) 0.7156(3) 0.5407(5)
H24_4 H 0.7464 0.7065 0.5441
C39_4 C 0.5287(7) 0.7474(3) 0.6081(6)
H25_4 H 0.5038 0.7606 0.6589
C40_4 C 0.4555(7) 0.7421(3) 0.5329(5)
H26_4 H 0.3806 0.7517 0.5308
O3_3 O 0.1645(7) 0.5358(3) 0.5918(5)
C1_4 C 0.0874(8) 0.3284(4) 0.6194(5)
C2_4 C 0.1101(8) 0.3824(4) 0.6186(6)
C3_4 C 0.2017(9) 0.4013(4) 0.5833(8)
H3_4 H 0.2528 0.3785 0.5631
C4_4 C 0.2199(9) 0.4521(4) 0.5769(8)
H4_4 H 0.2829 0.4642 0.5529
C5_4 C 0.1445(8) 0.4856(4) 0.6061(7)
C6_4 C 0.0537(8) 0.4673(4) 0.6436(7)
H5_4 H 0.0034 0.4900 0.6649
C7_4 C 0.0374(8) 0.4170(4) 0.6495(7)
C8_3 C 0.1045(9) 0.5717(4) 0.6317(7)
C9_3 C 0.1232(10) 0.5779(4) 0.7199(7)
H7_3 H 0.1717 0.5564 0.7541
C10_3 C 0.0687(9) 0.6164(4) 0.7563(7)
H8_3 H 0.0804 0.6218 0.8165
C13_3 C 0.0342(10) 0.6009(5) 0.5805(7)
H10_3 H 0.0228 0.5952 0.5204
H19_3 H 0.1004 0.7627 0.9871
O2_4 O 0.9959(5) 0.3121(3) 0.6336(4)
O4_4 O 0.8587(5) 0.7113(2) 0.7019(4)
O5_4 O 0.9574(6) 0.6930(3) 0.8262(5)
O7_4 O 0.4065(6) 0.3306(3) 0.7425(5)
O8_4 O 0.3307(8) 0.5472(3) 0.9002(7)
O9_4 O 0.6547(5) 0.7173(2) 0.8068(4)
O10_4 O 0.7566(6) 0.6856(3) 0.9220(5)
H6_4 H 0.9757 0.4050 0.6751
C11_4 C 0.9965(8) 0.6475(3) 0.7053(6)
C12_4 C 0.9787(9) 0.6398(4) 0.6183(7)
H9_4 H 0.9290 0.6606 0.5838
C14_4 C 0.9339(8) 0.6871(4) 0.7474(6)
C15_4 C 0.3284(8) 0.3492(4) 0.7752(6)
C16_4 C 0.3276(8) 0.4027(4) 0.8030(6)
C17_4 C 0.2404(9) 0.4228(4) 0.8426(7)
H11_4 H 0.1776 0.4026 0.8479
C18_4 C 0.2433(9) 0.4710(4) 0.8741(7)
H12_4 H 0.1833 0.4841 0.9007
C19_4 C 0.3355(10) 0.4999(5) 0.8664(8)
C20_4 C 0.4232(11) 0.4811(5) 0.8264(8)
H13_4 H 0.4859 0.5013 0.8209
C21_4 C 0.4176(10) 0.4333(4) 0.7952(8)
H14_4 H 0.4769 0.4206 0.7673
C22_4 C 0.4161(10) 0.5813(4) 0.8893(8)
C23_4 C 0.4013(11) 0.6172(5) 0.8260(9)
H15_4 H 0.3357 0.6184 0.7879
C24_4 C 0.4869(10) 0.6523(4) 0.8194(7)
H16_4 H 0.4817 0.6762 0.7743
C25_4 C 0.5790(8) 0.6511(4) 0.8801(6)
C26_4 C 0.5890(10) 0.6160(4) 0.9438(8)
H17_4 H 0.6529 0.6154 0.9839
C27_4 C 0.5063(10) 0.5812(5) 0.9505(9)
H18_4 H 0.5115 0.5577 0.9962
C28_4 C 0.6691(9) 0.6879(4) 0.8694(6)
O3_4 O 0.8355(7) 0.0358(3) 0.9082(5)
O11_4 O 0.6591(6) 0.2301(4) 0.2804(5)
O12_4 O 0.7405(6) 0.2262(3) 0.0776(5)
N2_4 N 0.8290(6) 0.2138(3) 0.2414(5)
H1_4 H 0.8642 0.2068 0.1969
N3_4 N 0.5675(7) 0.2176(3) 0.1194(6)
H2_4 H 0.5329 0.2117 0.1648
C8_4 C 0.8955(9) 0.0717(4) 0.8683(7)
C9_4 C 0.8768(10) 0.0779(4) 0.7801(7)
H7_4 H 0.8283 0.0564 0.7459
C10_4 C 0.9313(9) 0.1164(4) 0.7437(7)
H8_4 H 0.9196 0.1218 0.6835
C13_4 C 0.9658(10) 0.1009(5) 0.9195(7)
H10_4 H 0.9772 0.0952 0.9796
C29_4 C 0.9242(8) 0.2444(4) 0.4666(7)
H19_4 H 0.8996 0.2627 0.5129
C30_4 C 0.8567(8) 0.2427(5) 0.3909(7)
H20_4 H 0.7877 0.2593 0.3852
C31_4 C 0.8916(7) 0.2161(4) 0.3229(6)
C32_4 C 0.9934(8) 0.1912(4) 0.3351(6)
C34_4 C 0.7195(8) 0.2216(5) 0.2268(7)
C35_4 C 0.6775(9) 0.2216(4) 0.1314(6)
C36_4 C 0.5019(9) 0.2223(4) 0.0371(8)
C37_4 C 0.3940(8) 0.2095(4) 0.0342(6)
H23_4 H 0.3650 0.1965 0.0834
N1_4 N 0.9766(6) 0.7219(3) 0.0203(5)
H21_4 H 0.9821 0.6716 0.2097
C33_4 C 0.9431(8) 0.6954(4) 0.0877(6)
H22_4 H 0.8735 0.6794 0.0806
loop_
_geom_bond_atom_site_label_1
_geom_bond_atom_site_label_2
_geom_bond_site_symmetry_1
_geom_bond_site_symmetry_2
O1 C1 1_555 1_555
C1 C2 1_555 1_555
C2 C3 1_555 1_555
C3 H3 1_555 1_555
C4 C3 1_555 1_555
H4 C4 1_555 1_555
C5 C4 1_555 1_555
C6 C5 1_555 1_555
H5 C6 1_555 1_555
C7 C2 1_555 1_555
Zn3 O1 1_555 1_555
C6 C7 1_555 1_555
N4 C38 1_555 1_555
H24 C38 1_555 1_555
C39 N4 1_555 1_555
H25 C39 1_555 1_555
H26 C40 1_555 1_555
Zn4 N4 1_555 1_555
C39 C40 1_555 1_555
O6 C15 1_555 1_555
O7 C15 1_555 1_555
C15 C16 1_555 1_555
C16 C17 1_555 1_555
C17 H11 1_555 1_555
C18 C17 1_555 1_555
H12 C18 1_555 1_555
C19 C18 1_555 1_555
C20 C19 1_555 1_555
C21 C16 1_555 1_555
H14 C21 1_555 1_555
Zn5 O6 1_555 1_555
C20 C21 1_555 1_555
Zn1 O5 1_555 1_555
Zn4 O4 1_555 1_555
O4 C14 1_555 1_555
O5 C14 1_555 1_555
O9 Zn4 1_555 1_555
O10 Zn1 1_555 1_555
N1 Zn1 1_555 1_555
C12 C11 1_555 1_555
H9 C12 1_555 1_555
C14 C11 1_555 1_555
C22 O8 1_555 1_555
C23 C22 1_555 1_555
H15 C23 1_555 1_555
C24 C23 1_555 1_555
H16 C24 1_555 1_555
C25 C24 1_555 1_555
C26 C25 1_555 1_555
H17 C26 1_555 1_555
C27 C22 1_555 1_555
H18 C27 1_555 1_555
C28 O9 1_555 1_555
C33 N1 1_555 1_555
H22 C33 1_555 1_555
O13 Zn1 1_555 1_555
O14 Zn4 1_555 1_555
O10 C28 1_555 1_555
C25 C28 1_555 1_555
C26 C27 1_555 1_555
Zn3 O5_2 1_555 1_555
Zn5 O4_2 1_555 1_555
O4_2 C14_2 1_555 1_555
O5_2 C14_2 1_555 1_555
O14 C15_2 1_555 1_555
O7_2 C15_2 1_555 1_555
O8_2 C19_2 1_555 1_555
O9_2 Zn5 1_555 1_555
O10_2 Zn3 1_555 1_555
C12_2 C11_2 1_555 1_555
H9_2 C12_2 1_555 1_555
C14_2 C11_2 1_555 1_555
C15_2 C16_2 1_555 1_555
C16_2 C17_2 1_555 1_555
C17_2 H11_2 1_555 1_555
C18_2 C17_2 1_555 1_555
H12_2 C18_2 1_555 1_555
C19_2 C18_2 1_555 1_555
C20_2 C19_2 1_555 1_555
H13_2 C20_2 1_555 1_555
C21_2 C16_2 1_555 1_555
H14_2 C21_2 1_555 1_555
C22_2 O8_2 1_555 1_555
C23_2 C22_2 1_555 1_555
H15_2 C23_2 1_555 1_555
C24_2 C23_2 1_555 1_555
H16_2 C24_2 1_555 1_555
C25_2 C24_2 1_555 1_555
C26_2 C25_2 1_555 1_555
H17_2 C26_2 1_555 1_555
C27_2 C22_2 1_555 1_555
H18_2 C27_2 1_555 1_555
C28_2 O9_2 1_555 1_555
N5 Zn5 1_555 1_555
O10_2 C28_2 1_555 1_555
C20_2 C21_2 1_555 1_555
C25_2 C28_2 1_555 1_555
C26_2 C27_2 1_555 1_555
O13 C1_2 1_555 1_555
O3 C5_2 1_555 1_555
C1_2 C2_2 1_555 1_555
C2_2 C3_2 1_555 1_555
C3_2 H3_2 1_555 1_555
C4_2 C3_2 1_555 1_555
H4_2 C4_2 1_555 1_555
C5_2 C4_2 1_555 1_555
C6_2 C5_2 1_555 1_555
H5_2 C6_2 1_555 1_555
C7_2 C2_2 1_555 1_555
C8 O3 1_555 1_555
C9 C8 1_555 1_555
H7 C9 1_555 1_555
C10 C9 1_555 1_555
H8 C10 1_555 1_555
C13 C8 1_555 1_555
H10 C13 1_555 1_555
C6_2 C7_2 1_555 1_555
O11 C34 1_555 1_555
O12 C35 1_555 1_555
N2 H1 1_555 1_555
N3 H2 1_555 1_555
N5 C38_2 1_555 1_555
C30 C29 1_555 1_555
H20 C30 1_555 1_555
C31 N2 1_555 1_555
C32 C31 1_555 1_555
C34 N2 1_555 1_555
C35 N3 1_555 1_555
C36 N3 1_555 1_555
C37 C36 1_555 1_555
H23 C37 1_555 1_555
C38_2 C37 1_555 1_555
H24_2 C38_2 1_555 1_555
C39_2 N5 1_555 1_555
H25_2 C39_2 1_555 1_555
C40_2 C36 1_555 1_555
H26_2 C40_2 1_555 1_555
C30 C31 1_555 1_555
C34 C35 1_555 1_555
C39_2 C40_2 1_555 1_555
O11_2 C34_2 1_555 1_555
O12_2 C35_2 1_555 1_555
N2_2 H1_2 1_555 1_555
N3_2 H2_2 1_555 1_555
C8_2 O3_2 1_555 1_555
C9_2 C8_2 1_555 1_555
H7_2 C9_2 1_555 1_555
C10_2 C9_2 1_555 1_555
H8_2 C10_2 1_555 1_555
C13_2 C8_2 1_555 1_555
H10_2 C13_2 1_555 1_555
H19_2 C29_2 1_555 1_555
C30_2 C29_2 1_555 1_555
H20_2 C30_2 1_555 1_555
C31_2 N2_2 1_555 1_555
C32_2 C31_2 1_555 1_555
C34_2 N2_2 1_555 1_555
C35_2 N3_2 1_555 1_555
C36_2 N3_2 1_555 1_555
C37_2 C36_2 1_555 1_555
H23_2 C37_2 1_555 1_555
C30_2 C31_2 1_555 1_555
C34_2 C35_2 1_555 1_555
C33_2 N1_2 1_555 1_555
H22_2 C33_2 1_555 1_555
Zn1_2 O5_3 1_555 1_555
Zn2 O4_3 1_555 1_555
O4_3 C14_3 1_555 1_555
O5_3 C14_3 1_555 1_555
O9_3 Zn2 1_555 1_555
O10_3 Zn1_2 1_555 1_555
N1_3 Zn1_2 1_555 1_555
C12_3 C11_3 1_555 1_555
H9_3 C12_3 1_555 1_555
C14_3 C11_3 1_555 1_555
C22_3 O8_3 1_555 1_555
C23_3 C22_3 1_555 1_555
H15_3 C23_3 1_555 1_555
C24_3 C23_3 1_555 1_555
H16_3 C24_3 1_555 1_555
C25_3 C24_3 1_555 1_555
C26_3 C25_3 1_555 1_555
H17_3 C26_3 1_555 1_555
C27_3 C22_3 1_555 1_555
H18_3 C27_3 1_555 1_555
C28_3 O9_3 1_555 1_555
C33_3 N1_3 1_555 1_555
H22_3 C33_3 1_555 1_555
O13_2 Zn1_2 1_555 1_555
O14_2 Zn2 1_555 1_555
N5_2 Zn2 1_555 1_555
O10_3 C28_3 1_555 1_555
C25_3 C28_3 1_555 1_555
C26_3 C27_3 1_555 1_555
O6_2 C15_3 1_555 1_555
O7_3 C15_3 1_555 1_555
C15_3 C16_3 1_555 1_555
C16_3 C17_3 1_555 1_555
C17_3 H11_3 1_555 1_555
C18_3 C17_3 1_555 1_555
H12_3 C18_3 1_555 1_555
C19_3 C18_3 1_555 1_555
C20_3 C19_3 1_555 1_555
C21_3 C16_3 1_555 1_555
H14_3 C21_3 1_555 1_555
Zn5_2 O6_2 1_555 1_555
C20_3 C21_3 1_555 1_555
N5_2 C38_3 1_555 1_555
H24_3 C38_3 1_555 1_555
C39_3 N5_2 1_555 1_555
H25_3 C39_3 1_555 1_555
H26_3 C40_3 1_555 1_555
C39_3 C40_3 1_555 1_555
O1_2 C1_3 1_555 1_555
C1_3 C2_3 1_555 1_555
C2_3 C3_3 1_555 1_555
C3_3 H3_3 1_555 1_555
C4_3 C3_3 1_555 1_555
H4_3 C4_3 1_555 1_555
C5_3 C4_3 1_555 1_555
C6_3 C5_3 1_555 1_555
H5_3 C6_3 1_555 1_555
C7_3 C2_3 1_555 1_555
Zn3_2 O1_2 1_555 1_555
C6_3 C7_3 1_555 1_555
O11_3 C34_3 1_555 1_555
O12_3 C35_3 1_555 1_555
N2_3 H1_3 1_555 1_555
N3_3 H2_3 1_555 1_555
N4_2 C38_4 1_555 1_555
C30_3 C29_3 1_555 1_555
H20_3 C30_3 1_555 1_555
C31_3 N2_3 1_555 1_555
C32_3 C31_3 1_555 1_555
C34_3 N2_3 1_555 1_555
C35_3 N3_3 1_555 1_555
C36_3 N3_3 1_555 1_555
C37_3 C36_3 1_555 1_555
H23_3 C37_3 1_555 1_555
C38_4 C37_3 1_555 1_555
H24_4 C38_4 1_555 1_555
C39_4 N4_2 1_555 1_555
H25_4 C39_4 1_555 1_555
C40_4 C36_3 1_555 1_555
H26_4 C40_4 1_555 1_555
Zn5_2 N4_2 1_555 1_555
C30_3 C31_3 1_555 1_555
C34_3 C35_3 1_555 1_555
C39_4 C40_4 1_555 1_555
O13_2 C1_4 1_555 1_555
O3_3 C5_4 1_555 1_555
C1_4 C2_4 1_555 1_555
C2_4 C3_4 1_555 1_555
C3_4 H3_4 1_555 1_555
C4_4 C3_4 1_555 1_555
H4_4 C4_4 1_555 1_555
C5_4 C4_4 1_555 1_555
C6_4 C5_4 1_555 1_555
H5_4 C6_4 1_555 1_555
C7_4 C2_4 1_555 1_555
C8_3 O3_3 1_555 1_555
C9_3 C8_3 1_555 1_555
H7_3 C9_3 1_555 1_555
C10_3 C9_3 1_555 1_555
H8_3 C10_3 1_555 1_555
C13_3 C8_3 1_555 1_555
H10_3 C13_3 1_555 1_555
C6_4 C7_4 1_555 1_555
Zn3_2 O5_4 1_555 1_555
Zn5_2 O4_4 1_555 1_555
O4_4 C14_4 1_555 1_555
O5_4 C14_4 1_555 1_555
O14_2 C15_4 1_555 1_555
O7_4 C15_4 1_555 1_555
O8_4 C19_4 1_555 1_555
O9_4 Zn5_2 1_555 1_555
O10_4 Zn3_2 1_555 1_555
C12_4 C11_4 1_555 1_555
H9_4 C12_4 1_555 1_555
C14_4 C11_4 1_555 1_555
C15_4 C16_4 1_555 1_555
C16_4 C17_4 1_555 1_555
C17_4 H11_4 1_555 1_555
C18_4 C17_4 1_555 1_555
H12_4 C18_4 1_555 1_555
C19_4 C18_4 1_555 1_555
C20_4 C19_4 1_555 1_555
H13_4 C20_4 1_555 1_555
C21_4 C16_4 1_555 1_555
H14_4 C21_4 1_555 1_555
C22_4 O8_4 1_555 1_555
C23_4 C22_4 1_555 1_555
H15_4 C23_4 1_555 1_555
C24_4 C23_4 1_555 1_555
H16_4 C24_4 1_555 1_555
C25_4 C24_4 1_555 1_555
C26_4 C25_4 1_555 1_555
H17_4 C26_4 1_555 1_555
C27_4 C22_4 1_555 1_555
H18_4 C27_4 1_555 1_555
C28_4 O9_4 1_555 1_555
O10_4 C28_4 1_555 1_555
C20_4 C21_4 1_555 1_555
C25_4 C28_4 1_555 1_555
C26_4 C27_4 1_555 1_555
O11_4 C34_4 1_555 1_555
O12_4 C35_4 1_555 1_555
N2_4 H1_4 1_555 1_555
N3_4 H2_4 1_555 1_555
C8_4 O3_4 1_555 1_555
C9_4 C8_4 1_555 1_555
H7_4 C9_4 1_555 1_555
C10_4 C9_4 1_555 1_555
H8_4 C10_4 1_555 1_555
C13_4 C8_4 1_555 1_555
H10_4 C13_4 1_555 1_555
H19_4 C29_4 1_555 1_555
C30_4 C29_4 1_555 1_555
H20_4 C30_4 1_555 1_555
C31_4 N2_4 1_555 1_555
C32_4 C31_4 1_555 1_555
C34_4 N2_4 1_555 1_555
C35_4 N3_4 1_555 1_555
C36_4 N3_4 1_555 1_555
C37_4 C36_4 1_555 1_555
H23_4 C37_4 1_555 1_555
C30_4 C31_4 1_555 1_555
C34_4 C35_4 1_555 1_555
C33_4 N1_4 1_555 1_555
H22_4 C33_4 1_555 1_555

#END
