
###############################################################################
#
# This file contains modified crystal structure data generated from the
# MOF subset of the Cambridge Structural Database (CSD) v543 
# hosted by the Cambridge Crystallographic Data Centre (CCDC).
#
# This work is licensed under the Creative Commons
# Attribution-NonCommercial-ShareAlike 4.0 International License.
# To view a copy of this license, visit
# http://creativecommons.org/licenses/by-nc-sa/4.0/
# or send a letter to
# Creative Commons, PO Box 1866, Mountain View, CA 94042, USA.
#
# CIF created using the CSD Python API on 29 September 2022
# The structure has been converted into the P1 space group
# The structure has a 3D framework
# The original CSD entry WULJAR is in the triclinic crystal system
# The framework has been calculated to contain at least 10.0% void space
# The void calculation uses a probe of radius 1.32A, grid spacing 0.4
#
###############################################################################

data_WULJAR
_chemical_formula_moiety         '(C84 H44 N12 O60 U6)n'
_symmetry_cell_setting           triclinic
_symmetry_space_group_name_H-M   'P 1'
_symmetry_Int_Tables_number      1
_space_group_name_Hall           'P 1'
loop_
_symmetry_equiv_pos_site_id
_symmetry_equiv_pos_as_xyz
1 x,y,z
_cell_length_a                   10.782(2)
_cell_length_b                   13.293(3)
_cell_length_c                   21.143(4)
_cell_angle_alpha                88.87(3)
_cell_angle_beta                 76.44(3)
_cell_angle_gamma                69.46(3)
_cell_volume                     2752.06
loop_
_atom_site_label
_atom_site_type_symbol
_atom_site_fract_x
_atom_site_fract_y
_atom_site_fract_z
O19 O 0.090(2) 0.2487(17) 0.6778(9)
C4 C 0.023(2) 0.2067(17) 0.7830(10)
C5 C 0.155(2) 0.1355(17) 0.7831(10)
H2 H 0.228431 0.129503 0.748118
C6 C 0.173(2) 0.0749(15) 0.8357(9)
C7 C 0.0640(17) 0.0827(15) 0.8870(10)
H3 H 0.077314 0.040127 0.922046
O5 O 0.3201(14) 0.9235(13) 0.8759(7)
O13 O 0.4124(15) 0.9992(12) 0.7942(7)
C8 C 0.3121(19) 0.9940(17) 0.8337(9)
U5 U 0.41468(7) 0.83117(6) 0.95762(4)
U6 U 0.61836(7) 0.96077(6) 0.71534(4)
O1 O 0.4142(17) 0.7132(13) 0.9237(7)
O2 O 0.4031(17) 0.9516(13) 0.9907(8)
O6 O 0.6105(14) 0.8154(11) 0.8751(7)
O8 O 0.5509(16) 0.9095(11) 0.6654(7)
O10 O 0.7608(14) 0.9888(10) 0.6106(7)
O11 O 0.8483(15) 0.8414(13) 0.6580(7)
O12 O 0.6707(14) 0.7975(11) 0.7670(7)
O21 O 0.852(2) 0.5059(17) 0.9883(9)
O27 O 0.9482(17) 0.9851(14) 0.3724(8)
N2 N 0.9278(19) 0.4595(17) 0.9368(9)
C9 C 0.688(2) 0.7665(16) 0.8225(10)
C10 C 0.8076(18) 0.6704(15) 0.8235(10)
C11 C 0.9122(18) 0.6317(15) 0.7676(10)
H4 H 0.907483 0.667883 0.729677
C14 C 0.927(2) 0.5238(18) 0.8781(11)
C15 C 0.812(2) 0.6169(14) 0.8799(10)
H6 H 0.742730 0.641554 0.917641
C25 C 0.851(2) 0.8966(18) 0.6087(11)
C26 C 0.962(2) 0.8517(15) 0.5484(10)
C27 C 0.952(2) 0.8986(15) 0.4893(10)
H10 H 0.876989 0.958889 0.486340
U1 U 0.58532(7) 0.16883(6) 0.04238(4)
U2 U 0.38164(7) 0.03923(6) 0.28466(4)
O1_2 O 0.5858(17) 0.2868(13) 0.0763(7)
O2_2 O 0.5969(17) 0.0484(13) 0.0093(8)
O6_2 O 0.3895(14) 0.1846(11) 0.1249(7)
O8_2 O 0.4491(16) 0.0905(11) 0.3346(7)
O10_2 O 0.2392(14) 0.0112(10) 0.3894(7)
O11_2 O 0.1517(15) 0.1586(13) 0.3420(7)
O12_2 O 0.3293(14) 0.2025(11) 0.2330(7)
O21_2 O 0.148(2) 0.4941(17) 0.0117(9)
O27_2 O 0.0518(17) 0.0149(14) 0.6276(8)
N2_2 N 0.0722(19) 0.5405(17) 0.0632(9)
C9_2 C 0.312(2) 0.2335(16) 0.1775(10)
C10_2 C 0.1924(18) 0.3296(15) 0.1765(10)
C11_2 C 0.0878(18) 0.3683(15) 0.2324(10)
H4_2 H 0.092517 0.332117 0.270323
C14_2 C 0.073(2) 0.4762(18) 0.1219(11)
C15_2 C 0.188(2) 0.3831(14) 0.1201(10)
H6_2 H 0.257270 0.358446 0.082359
C25_2 C 0.149(2) 0.1034(18) 0.3913(11)
C26_2 C 0.038(2) 0.1483(15) 0.4516(10)
C27_2 C 0.048(2) 0.1014(15) 0.5107(10)
H10_2 H 0.123011 0.041111 0.513660
O31 O 0.6799(14) 0.0765(13) 0.1241(7)
O33 O 0.5876(15) 0.0008(12) 0.2058(7)
C8_2 C 0.6879(19) 0.0060(17) 0.1663(9)
O3 O 0.6967(14) 0.2068(14) 0.9364(7)
O4 O 0.8348(15) 0.1152(12) 0.9948(7)
O18 O 0.893(2) 0.3480(15) 0.7346(10)
N1 N 0.999(2) 0.2743(16) 0.7288(8)
C1 C 0.817(2) 0.1568(19) 0.9421(12)
C2 C 0.9369(18) 0.1524(16) 0.8868(9)
C3 C 0.912(2) 0.2147(18) 0.8338(11)
H1 H 0.823971 0.259428 0.832777
O32 O 0.4087(14) 0.2540(12) 0.9936(7)
U3 U 0.61189(8) 0.54555(6) 0.38386(4)
O7 O 0.5913(14) 0.7460(12) 0.0064(7)
O9 O 0.3121(16) 0.9892(11) 0.2355(6)
O14 O 0.4983(13) 0.8613(10) 0.3056(6)
O15 O 0.6480(17) 0.6119(13) 0.4356(8)
O16 O 0.5726(15) 0.4743(11) 0.3338(6)
O17 O 0.4834(12) 0.7133(9) 0.3485(6)
O28 O 0.382(2) 0.4655(17) 0.2100(11)
O29 O 0.363(2) 0.5147(16) 0.1134(11)
O30 O 0.7031(17) 0.8147(12) 0.0577(7)
N3 N 0.397(2) 0.5214(16) 0.1641(12)
C17 C 0.4963(15) 0.7697(12) 0.3030(8)
C18 C 0.509(2) 0.7196(15) 0.2351(10)
C19 C 0.4531(16) 0.6410(14) 0.2317(10)
H7 H 0.413213 0.615115 0.269228
C20 C 0.459(2) 0.6022(16) 0.1696(12)
C21 C 0.514(2) 0.6401(18) 0.1137(11)
H8 H 0.511608 0.615311 0.073257
C22 C 0.572(2) 0.7163(17) 0.1182(11)
C23 C 0.5657(19) 0.7582(15) 0.1799(10)
H9 H 0.600190 0.812493 0.183131
C24 C 0.630(2) 0.7625(18) 0.0572(10)
O34 O 0.8508(14) 0.4410(13) 0.3375(8)
O35 O 0.7596(16) 0.5861(13) 0.2891(7)
O36 O 0.6718(16) 0.3917(12) 0.4427(8)
O37 O 0.3907(15) 0.5850(12) 0.4481(8)
O20 O 0.993(2) 0.6321(16) 0.0683(9)
O25 O 0.6093(15) 0.4150(12) 0.5519(8)
O26 O 0.8629(18) 0.1456(14) 0.6766(7)
N4 N 0.956(2) 0.0988(17) 0.6277(9)
C12 C 0.975(2) 0.4614(16) 0.2319(10)
C13 C 0.968(2) 0.5173(16) 0.1764(11)
H5 H 0.894835 0.580344 0.175926
C16 C 0.860(2) 0.4969(18) 0.2904(12)
C28 C 0.942(2) 0.1487(17) 0.5649(9)
C29 C 0.829(2) 0.2312(17) 0.5617(10)
H11 H 0.760030 0.258379 0.599330
C30 C 0.814(2) 0.2773(17) 0.5030(9)
C31 C 0.923(2) 0.2344(17) 0.4480(10)
H12 H 0.916568 0.264501 0.408253
C32 C 0.690(2) 0.3681(19) 0.4984(12)
U8 U 0.38811(8) 0.45445(6) 0.61614(4)
O20_2 O 0.007(2) 0.3679(16) 0.9317(9)
O22 O 0.1492(14) 0.5590(13) 0.6625(8)
O23 O 0.2404(16) 0.4139(13) 0.7109(7)
O24 O 0.3282(16) 0.6083(12) 0.5573(8)
O26_2 O 0.1371(18) 0.8544(14) 0.3234(7)
N4_2 N 0.044(2) 0.9012(17) 0.3723(9)
C12_2 C 0.025(2) 0.5386(16) 0.7681(10)
C13_2 C 0.032(2) 0.4827(16) 0.8236(11)
H5_2 H 0.105165 0.419656 0.824074
C16_2 C 0.140(2) 0.5031(18) 0.7096(12)
C28_2 C 0.058(2) 0.8513(17) 0.4351(9)
C29_2 C 0.171(2) 0.7688(17) 0.4383(10)
H11_2 H 0.239970 0.741621 0.400670
C30_2 C 0.186(2) 0.7227(17) 0.4970(9)
C31_2 C 0.077(2) 0.7656(17) 0.5520(10)
H12_2 H 0.083432 0.735499 0.591747
C32_2 C 0.310(2) 0.6319(19) 0.5016(12)
O9_2 O 0.6879(16) 0.0108(11) 0.7645(6)
O14_2 O 0.5017(13) 0.1387(10) 0.6944(6)
O15_2 O 0.3520(17) 0.3881(13) 0.5644(8)
O16_2 O 0.4274(15) 0.5257(11) 0.6662(6)
O17_2 O 0.5166(12) 0.2867(9) 0.6515(6)
O28_2 O 0.618(2) 0.5345(17) 0.7900(11)
O29_2 O 0.637(2) 0.4853(16) 0.8866(11)
O30_2 O 0.2969(17) 0.1853(12) 0.9423(7)
N3_2 N 0.603(2) 0.4786(16) 0.8359(12)
C17_2 C 0.5037(15) 0.2303(12) 0.6970(8)
C18_2 C 0.491(2) 0.2804(15) 0.7649(10)
C19_2 C 0.5469(16) 0.3590(14) 0.7683(10)
H7_2 H 0.586787 0.384885 0.730772
C20_2 C 0.541(2) 0.3978(16) 0.8304(12)
C21_2 C 0.486(2) 0.3599(18) 0.8863(11)
H8_2 H 0.488392 0.384689 0.926743
C22_2 C 0.428(2) 0.2837(17) 0.8818(11)
C23_2 C 0.4343(19) 0.2418(15) 0.8201(10)
H9_2 H 0.399810 0.187507 0.816869
C24_2 C 0.370(2) 0.2375(18) 0.9428(10)
O3_2 O 0.3033(14) 0.7932(14) 0.0636(7)
O4_2 O 0.1652(15) 0.8848(12) 0.0052(7)
O18_2 O 0.107(2) 0.6520(15) 0.2654(10)
N1_2 N 0.001(2) 0.7257(16) 0.2712(8)
C1_2 C 0.183(2) 0.8432(19) 0.0579(12)
C2_2 C 0.0631(18) 0.8476(16) 0.1132(9)
C3_2 C 0.088(2) 0.7853(18) 0.1662(11)
H1_2 H 0.176029 0.740572 0.167223
O19_2 O 0.910(2) 0.7513(17) 0.3222(9)
C4_2 C 0.977(2) 0.7933(17) 0.2170(10)
C5_2 C 0.845(2) 0.8645(17) 0.2169(10)
H2_2 H 0.771569 0.870497 0.251882
C6_2 C 0.827(2) 0.9251(15) 0.1643(9)
C7_2 C 0.9360(17) 0.9173(15) 0.1130(10)
H3_2 H 0.922686 0.959873 0.077954
N6 N 0.153(2) 0.1534(17) 0.0588(10)
H14 H 0.222563 0.143786 0.026441
C39 C 0.064(2) 0.1087(18) 0.1624(10)
H19 H 0.078213 0.067589 0.197984
C40 C 0.167(2) 0.092(2) 0.1092(11)
H20 H 0.249309 0.035596 0.107280
C41 C 0.035(3) 0.229(3) 0.0580(13)
H21 H 0.026332 0.267463 0.021141
N5 N 0.598(2) 0.2399(17) 0.3252(12)
H13 H 0.528838 0.247354 0.357079
C33 C 0.724(3) 0.197(2) 0.3347(11)
H15 H 0.735799 0.178990 0.376080
C34 C 0.834(3) 0.1804(19) 0.2835(11)
H16 H 0.921555 0.148118 0.290162
C35 C 0.820(2) 0.2099(16) 0.2232(11)
C36 C 0.686(2) 0.2561(17) 0.2139(12)
H17 H 0.670645 0.275725 0.173125
C37 C 0.579(3) 0.271(2) 0.2681(16)
H18 H 0.490507 0.303679 0.263683
C38 C 0.934(2) 0.1898(16) 0.1650(10)
C42 C 0.925(3) 0.252(2) 0.1117(12)
H22 H 0.844030 0.308377 0.111843
N5_2 N 0.402(2) 0.7601(17) 0.6748(12)
H13_2 H 0.471162 0.752646 0.642921
C33_2 C 0.276(3) 0.803(2) 0.6653(11)
H15_2 H 0.264201 0.821010 0.623920
C34_2 C 0.166(3) 0.8196(19) 0.7165(11)
H16_2 H 0.078445 0.851882 0.709838
C35_2 C 0.180(2) 0.7901(16) 0.7768(11)
C36_2 C 0.314(2) 0.7439(17) 0.7861(12)
H17_2 H 0.329355 0.724275 0.826875
C37_2 C 0.421(3) 0.729(2) 0.7319(16)
H18_2 H 0.509493 0.696321 0.736317
C38_2 C 0.066(2) 0.8102(16) 0.8350(10)
C42_2 C 0.075(3) 0.748(2) 0.8883(12)
H22_2 H 0.155970 0.691623 0.888157
N6_2 N 0.847(2) 0.8466(17) 0.9412(10)
H14_2 H 0.777437 0.856214 0.973559
C39_2 C 0.936(2) 0.8913(18) 0.8376(10)
H19_2 H 0.921787 0.932411 0.802016
C40_2 C 0.833(2) 0.908(2) 0.8908(11)
H20_2 H 0.750691 0.964404 0.892720
C41_2 C 0.965(3) 0.771(3) 0.9420(13)
H21_2 H 0.973668 0.732537 0.978859
loop_
_geom_bond_atom_site_label_1
_geom_bond_atom_site_label_2
_geom_bond_site_symmetry_1
_geom_bond_site_symmetry_2
C5 C4 1_555 1_555
H2 C5 1_555 1_555
C6 C5 1_555 1_555
H3 C7 1_555 1_555
C6 C7 1_555 1_555
O5 C8 1_555 1_555
O13 C8 1_555 1_555
U5 O5 1_555 1_555
U6 O13 1_555 1_555
U5 O1 1_555 1_555
U6 O8 1_555 1_555
O2 U5 1_555 1_555
O6 U5 1_555 1_555
O10 U6 1_555 1_555
O11 U6 1_555 1_555
O12 U6 1_555 1_555
O21 N2 1_555 1_555
N2 C14 1_555 1_555
C9 O6 1_555 1_555
C10 C9 1_555 1_555
C11 C10 1_555 1_555
H4 C11 1_555 1_555
C15 C10 1_555 1_555
H6 C15 1_555 1_555
C25 O10 1_555 1_555
C26 C25 1_555 1_555
C27 C26 1_555 1_555
H10 C27 1_555 1_555
O11 C25 1_555 1_555
O12 C9 1_555 1_555
C14 C15 1_555 1_555
U1 O1_2 1_555 1_555
U2 O8_2 1_555 1_555
O2_2 U1 1_555 1_555
O6_2 U1 1_555 1_555
O10_2 U2 1_555 1_555
O11_2 U2 1_555 1_555
O12_2 U2 1_555 1_555
O21_2 N2_2 1_555 1_555
N2_2 C14_2 1_555 1_555
C9_2 O6_2 1_555 1_555
C10_2 C9_2 1_555 1_555
C11_2 C10_2 1_555 1_555
H4_2 C11_2 1_555 1_555
C15_2 C10_2 1_555 1_555
H6_2 C15_2 1_555 1_555
C25_2 O10_2 1_555 1_555
C26_2 C25_2 1_555 1_555
C27_2 C26_2 1_555 1_555
H10_2 C27_2 1_555 1_555
O31 U1 1_555 1_555
O33 U2 1_555 1_555
O11_2 C25_2 1_555 1_555
O12_2 C9_2 1_555 1_555
C14_2 C15_2 1_555 1_555
O31 C8_2 1_555 1_555
O33 C8_2 1_555 1_555
O18 N1 1_555 1_555
C1 O3 1_555 1_555
C2 C1 1_555 1_555
C3 C2 1_555 1_555
H1 C3 1_555 1_555
O4 C1 1_555 1_555
U3 O15 1_555 1_555
O7 C24 1_555 1_555
O16 U3 1_555 1_555
O17 U3 1_555 1_555
O28 N3 1_555 1_555
O29 N3 1_555 1_555
O30 C24 1_555 1_555
N3 C20 1_555 1_555
C17 O14 1_555 1_555
C18 C17 1_555 1_555
C19 C18 1_555 1_555
H7 C19 1_555 1_555
C20 C19 1_555 1_555
C21 C20 1_555 1_555
H8 C21 1_555 1_555
C22 C21 1_555 1_555
C23 C18 1_555 1_555
H9 C23 1_555 1_555
C24 C22 1_555 1_555
O34 U3 1_555 1_555
O35 U3 1_555 1_555
O36 U3 1_555 1_555
O37 U3 1_555 1_555
O17 C17 1_555 1_555
C22 C23 1_555 1_555
O34 C16 1_555 1_555
O35 C16 1_555 1_555
O36 C32 1_555 1_555
O25 C32 1_555 1_555
O26 N4 1_555 1_555
N4 C28 1_555 1_555
C13 C12 1_555 1_555
H5 C13 1_555 1_555
C16 C12 1_555 1_555
C29 C28 1_555 1_555
H11 C29 1_555 1_555
C30 C29 1_555 1_555
H12 C31 1_555 1_555
C32 C30 1_555 1_555
U8 O25 1_555 1_555
C30 C31 1_555 1_555
O22 C16_2 1_555 1_555
O23 C16_2 1_555 1_555
O24 C32_2 1_555 1_555
O37 C32_2 1_555 1_555
O26_2 N4_2 1_555 1_555
N4_2 C28_2 1_555 1_555
C13_2 C12_2 1_555 1_555
H5_2 C13_2 1_555 1_555
C16_2 C12_2 1_555 1_555
C29_2 C28_2 1_555 1_555
H11_2 C29_2 1_555 1_555
C30_2 C29_2 1_555 1_555
H12_2 C31_2 1_555 1_555
C32_2 C30_2 1_555 1_555
U8 O22 1_555 1_555
O23 U8 1_555 1_555
O24 U8 1_555 1_555
C30_2 C31_2 1_555 1_555
U8 O15_2 1_555 1_555
O32 C24_2 1_555 1_555
O16_2 U8 1_555 1_555
O17_2 U8 1_555 1_555
O28_2 N3_2 1_555 1_555
O29_2 N3_2 1_555 1_555
O30_2 C24_2 1_555 1_555
N3_2 C20_2 1_555 1_555
C17_2 O14_2 1_555 1_555
C18_2 C17_2 1_555 1_555
C19_2 C18_2 1_555 1_555
H7_2 C19_2 1_555 1_555
C20_2 C19_2 1_555 1_555
C21_2 C20_2 1_555 1_555
H8_2 C21_2 1_555 1_555
C22_2 C21_2 1_555 1_555
C23_2 C18_2 1_555 1_555
H9_2 C23_2 1_555 1_555
C24_2 C22_2 1_555 1_555
O17_2 C17_2 1_555 1_555
C22_2 C23_2 1_555 1_555
O18_2 N1_2 1_555 1_555
C1_2 O3_2 1_555 1_555
C2_2 C1_2 1_555 1_555
C3_2 C2_2 1_555 1_555
H1_2 C3_2 1_555 1_555
O4_2 C1_2 1_555 1_555
C5_2 C4_2 1_555 1_555
H2_2 C5_2 1_555 1_555
C6_2 C5_2 1_555 1_555
H3_2 C7_2 1_555 1_555
C6_2 C7_2 1_555 1_555
N6 H14 1_555 1_555
H19 C39 1_555 1_555
C40 N6 1_555 1_555
H20 C40 1_555 1_555
C41 N6 1_555 1_555
H21 C41 1_555 1_555
C39 C40 1_555 1_555
N5 H13 1_555 1_555
C33 N5 1_555 1_555
H15 C33 1_555 1_555
C34 C33 1_555 1_555
H16 C34 1_555 1_555
C35 C34 1_555 1_555
C36 C35 1_555 1_555
H17 C36 1_555 1_555
C37 N5 1_555 1_555
H18 C37 1_555 1_555
C38 C35 1_555 1_555
C42 C38 1_555 1_555
H22 C42 1_555 1_555
C36 C37 1_555 1_555
N5_2 H13_2 1_555 1_555
C33_2 N5_2 1_555 1_555
H15_2 C33_2 1_555 1_555
C34_2 C33_2 1_555 1_555
H16_2 C34_2 1_555 1_555
C35_2 C34_2 1_555 1_555
C36_2 C35_2 1_555 1_555
H17_2 C36_2 1_555 1_555
C37_2 N5_2 1_555 1_555
H18_2 C37_2 1_555 1_555
C38_2 C35_2 1_555 1_555
C42_2 C38_2 1_555 1_555
H22_2 C42_2 1_555 1_555
C36_2 C37_2 1_555 1_555
N6_2 H14_2 1_555 1_555
H19_2 C39_2 1_555 1_555
C40_2 N6_2 1_555 1_555
H20_2 C40_2 1_555 1_555
C41_2 N6_2 1_555 1_555
H21_2 C41_2 1_555 1_555
C39_2 C40_2 1_555 1_555

#END
