
###############################################################################
#
# This file contains modified crystal structure data generated from the
# MOF subset of the Cambridge Structural Database (CSD) v543 
# hosted by the Cambridge Crystallographic Data Centre (CCDC).
#
# This work is licensed under the Creative Commons
# Attribution-NonCommercial-ShareAlike 4.0 International License.
# To view a copy of this license, visit
# http://creativecommons.org/licenses/by-nc-sa/4.0/
# or send a letter to
# Creative Commons, PO Box 1866, Mountain View, CA 94042, USA.
#
# CIF created using the CSD Python API on 29 September 2022
# The structure has been converted into the P1 space group
# The structure has a 3D framework
# The original CSD entry WULQUR is in the monoclinic crystal system
# The framework has been calculated to contain at least 10.0% void space
# The void calculation uses a probe of radius 1.32A, grid spacing 0.4
#
###############################################################################

data_WULQUR
_chemical_formula_moiety         '(C44 H44 N4 O24 Zn2)n'
_symmetry_cell_setting           triclinic
_symmetry_space_group_name_H-M   'P 1'
_symmetry_Int_Tables_number      1
_space_group_name_Hall           'P 1'
loop_
_symmetry_equiv_pos_site_id
_symmetry_equiv_pos_as_xyz
1 x,y,z
_cell_length_a                   9.437(7)
_cell_length_b                   15.378(11)
_cell_length_c                   13.319(10)
_cell_angle_alpha                90
_cell_angle_beta                 106.383(15)
_cell_angle_gamma                90
_cell_volume                     1854.4
loop_
_atom_site_label
_atom_site_type_symbol
_atom_site_fract_x
_atom_site_fract_y
_atom_site_fract_z
C1 C 0.0636(6) 0.1891(4) 0.1357(4)
C2 C 0.0624(5) 0.2559(3) 0.2182(4)
C6 C 0.0518(5) 0.3801(3) 0.3676(4)
H2 H 0.0475 0.4228 0.4162
C7 C 0.1800(5) 0.3695(3) 0.3373(4)
C8 C 0.1839(5) 0.3081(3) 0.2625(4)
H3 H 0.2693 0.3016 0.2415
C9 C 0.3128(5) 0.4239(3) 0.3882(4)
O2 O 0.1682(4) 0.1922(2) 0.0936(3)
O3 O 0.4363(3) 0.3965(2) 0.3822(2)
O4 O 0.2914(3) 0.4904(2) 0.4356(3)
Zn2 Zn 0.37383(6) 0.59632(4) 0.51132(4)
Zn4 Zn 0.62617(6) 0.40368(4) 0.48868(4)
Zn1 Zn 0.12617(6) 0.09632(4) 0.98868(4)
O9 O 0.2855(3) 0.1006(2) 0.9200(3)
O8 O 0.2086(3) 0.9904(2) 0.0644(3)
C3 C 0.9359(5) 0.2649(3) 0.2516(4)
H1 H 0.8549 0.2291 0.2240
C4 C 0.9304(5) 0.3275(3) 0.3262(4)
C5 C 0.7922(5) 0.3344(4) 0.3635(4)
O1 O 0.9646(4) 0.1336(3) 0.1118(3)
O5 O 0.7855(3) 0.3994(2) 0.4200(3)
O6 O 0.6952(4) 0.2784(2) 0.3365(3)
O7 O 0.9363(3) 0.1035(2) 0.8822(2)
C1_2 C 0.4364(6) 0.6891(4) 0.3643(4)
C2_2 C 0.4376(5) 0.7559(3) 0.2818(4)
C3_2 C 0.5641(5) 0.7649(3) 0.2484(4)
H1_2 H 0.6451 0.7291 0.2760
C4_2 C 0.5696(5) 0.8275(3) 0.1738(4)
C5_2 C 0.7078(5) 0.8344(4) 0.1365(4)
C6_2 C 0.4482(5) 0.8801(3) 0.1324(4)
H2_2 H 0.4525 0.9228 0.0838
C7_2 C 0.3200(5) 0.8695(3) 0.1627(4)
C8_2 C 0.3161(5) 0.8081(3) 0.2375(4)
H3_2 H 0.2307 0.8016 0.2585
C9_2 C 0.1872(5) 0.9239(3) 0.1118(4)
O1_2 O 0.5354(4) 0.6336(3) 0.3882(3)
O2_2 O 0.3318(4) 0.6922(2) 0.4064(3)
O3_2 O 0.0637(3) 0.8965(2) 0.1178(2)
O5_2 O 0.7145(3) 0.8994(2) 0.0800(3)
O6_2 O 0.8048(4) 0.7784(2) 0.1635(3)
O7_2 O 0.5637(3) 0.6035(2) 0.6178(2)
O9_2 O 0.2145(3) 0.6006(2) 0.5800(3)
Zn3 Zn 0.87383(6) 0.90368(4) 0.01132(4)
C3_3 C 0.0641(5) 0.7351(3) 0.7484(4)
H1_3 H 0.1451 0.7709 0.7760
C4_3 C 0.0696(5) 0.6725(3) 0.6738(4)
C5_3 C 0.2078(5) 0.6656(4) 0.6365(4)
O1_3 O 0.0354(4) 0.8664(3) 0.8882(3)
O6_3 O 0.3048(4) 0.7216(2) 0.6635(3)
O8_2 O 0.7914(3) 0.0096(2) 0.9356(3)
C1_3 C 0.9364(6) 0.8109(4) 0.8643(4)
C2_3 C 0.9376(5) 0.7441(3) 0.7818(4)
C6_3 C 0.9482(5) 0.6199(3) 0.6324(4)
H2_3 H 0.9525 0.5772 0.5838
C7_3 C 0.8200(5) 0.6305(3) 0.6627(4)
C8_3 C 0.8161(5) 0.6919(3) 0.7375(4)
H3_3 H 0.7307 0.6984 0.7585
C9_3 C 0.6872(5) 0.5761(3) 0.6118(4)
O2_3 O 0.8318(4) 0.8078(2) 0.9064(3)
O4_2 O 0.7086(3) 0.5096(2) 0.5644(3)
C1_4 C 0.5636(6) 0.3109(4) 0.6357(4)
C2_4 C 0.5624(5) 0.2441(3) 0.7182(4)
C3_4 C 0.4359(5) 0.2351(3) 0.7516(4)
H1_4 H 0.3549 0.2709 0.7240
C4_4 C 0.4304(5) 0.1725(3) 0.8262(4)
C5_4 C 0.2922(5) 0.1656(4) 0.8635(4)
C6_4 C 0.5518(5) 0.1199(3) 0.8676(4)
H2_4 H 0.5475 0.0772 0.9162
C7_4 C 0.6800(5) 0.1305(3) 0.8373(4)
C8_4 C 0.6839(5) 0.1919(3) 0.7625(4)
H3_4 H 0.7693 0.1984 0.7415
C9_4 C 0.8128(5) 0.0761(3) 0.8882(4)
O1_4 O 0.4646(4) 0.3664(3) 0.6118(3)
O2_4 O 0.6682(4) 0.3078(2) 0.5936(3)
O6_4 O 0.1952(4) 0.2216(2) 0.8365(3)
N1 N 0.5768(8) 0.1173(5) 0.3453(7)
H4 H 0.6237 0.1687 0.3269
H5 H 0.6472 0.0698 0.3562
C10 C 0.4494(10) 0.0958(10) 0.2606(10)
H6 H 0.4009 0.0461 0.2795
H7 H 0.4796 0.0826 0.1993
H8 H 0.3825 0.1442 0.2465
C11 C 0.5380(12) 0.1336(8) 0.4420(9)
H9 H 0.6235 0.1538 0.4947
H10 H 0.5031 0.0807 0.4652
H11 H 0.4618 0.1769 0.4299
C10_2 C 0.0506(10) 0.5958(10) 0.2394(10)
H6_2 H 0.0991 0.5461 0.2205
H7_2 H 0.0204 0.5826 0.3007
H8_2 H 0.1175 0.6442 0.2535
H11_2 H 0.0382 0.6769 0.0701
N1_2 N 0.9232(8) 0.6173(5) 0.1547(7)
H4_2 H 0.8763 0.6687 0.1731
H5_2 H 0.8528 0.5698 0.1438
C11_2 C 0.9620(12) 0.6336(8) 0.0580(9)
H9_2 H 0.8765 0.6538 0.0053
H10_2 H 0.9969 0.5807 0.0348
N1_3 N 0.4232(8) 0.8827(5) 0.6547(7)
H4_3 H 0.3763 0.8313 0.6731
H5_3 H 0.3528 0.9302 0.6438
C10_3 C 0.5506(10) 0.9042(10) 0.7394(10)
H6_3 H 0.5991 0.9539 0.7205
H7_3 H 0.5204 0.9174 0.8007
H8_3 H 0.6175 0.8558 0.7535
C11_3 C 0.4620(12) 0.8664(8) 0.5580(9)
H9_3 H 0.3765 0.8462 0.5053
H10_3 H 0.4969 0.9193 0.5348
H11_3 H 0.5382 0.8231 0.5701
N1_4 N 0.0768(8) 0.3827(5) 0.8453(7)
H4_4 H 0.1237 0.3313 0.8269
H5_4 H 0.1472 0.4302 0.8562
C11_4 C 0.0380(12) 0.3664(8) 0.9420(9)
H9_4 H 0.1235 0.3462 0.9947
H10_4 H 0.0031 0.4193 0.9652
C10_4 C 0.9494(10) 0.4042(10) 0.7606(10)
H6_4 H 0.9009 0.4539 0.7795
H7_4 H 0.9796 0.4174 0.6993
H8_4 H 0.8825 0.3558 0.7465
H11_4 H 0.9618 0.3231 0.9299
loop_
_geom_bond_atom_site_label_1
_geom_bond_atom_site_label_2
_geom_bond_site_symmetry_1
_geom_bond_site_symmetry_2
C1 C2 1_555 1_555
H2 C6 1_555 1_555
C7 C6 1_555 1_555
C8 C2 1_555 1_555
H3 C8 1_555 1_555
C9 C7 1_555 1_555
O2 C1 1_555 1_555
O3 C9 1_555 1_555
O4 C9 1_555 1_555
Zn2 O4 1_555 1_555
Zn4 O3 1_555 1_555
C7 C8 1_555 1_555
O9 Zn1 1_555 1_555
C3 H1 1_555 1_555
C4 C3 1_555 1_555
C5 C4 1_555 1_555
O5 C5 1_555 1_555
O6 C5 1_555 1_555
Zn4 O5 1_555 1_555
C1_2 C2_2 1_555 1_555
C2_2 C3_2 1_555 1_555
C3_2 H1_2 1_555 1_555
C4_2 C3_2 1_555 1_555
C5_2 C4_2 1_555 1_555
C6_2 C4_2 1_555 1_555
H2_2 C6_2 1_555 1_555
C7_2 C6_2 1_555 1_555
C8_2 C2_2 1_555 1_555
H3_2 C8_2 1_555 1_555
C9_2 C7_2 1_555 1_555
O1_2 C1_2 1_555 1_555
O2_2 C1_2 1_555 1_555
O3_2 C9_2 1_555 1_555
O8 C9_2 1_555 1_555
O5_2 C5_2 1_555 1_555
O6_2 C5_2 1_555 1_555
Zn2 O2_2 1_555 1_555
O7_2 Zn2 1_555 1_555
O9_2 Zn2 1_555 1_555
Zn3 O5_2 1_555 1_555
C7_2 C8_2 1_555 1_555
C3_3 H1_3 1_555 1_555
C4_3 C3_3 1_555 1_555
C5_3 C4_3 1_555 1_555
O9_2 C5_3 1_555 1_555
O6_3 C5_3 1_555 1_555
C1_3 C2_3 1_555 1_555
H2_3 C6_3 1_555 1_555
C7_3 C6_3 1_555 1_555
C8_3 C2_3 1_555 1_555
H3_3 C8_3 1_555 1_555
C9_3 C7_3 1_555 1_555
O2_3 C1_3 1_555 1_555
O7_2 C9_3 1_555 1_555
O4_2 C9_3 1_555 1_555
Zn4 O4_2 1_555 1_555
C7_3 C8_3 1_555 1_555
C1_4 C2_4 1_555 1_555
C2_4 C3_4 1_555 1_555
C3_4 H1_4 1_555 1_555
C4_4 C3_4 1_555 1_555
C5_4 C4_4 1_555 1_555
C6_4 C4_4 1_555 1_555
H2_4 C6_4 1_555 1_555
C7_4 C6_4 1_555 1_555
C8_4 C2_4 1_555 1_555
H3_4 C8_4 1_555 1_555
C9_4 C7_4 1_555 1_555
O1_4 C1_4 1_555 1_555
O2_4 C1_4 1_555 1_555
O7 C9_4 1_555 1_555
O8_2 C9_4 1_555 1_555
O9 C5_4 1_555 1_555
O6_4 C5_4 1_555 1_555
Zn4 O2_4 1_555 1_555
C7_4 C8_4 1_555 1_555
N1 H4 1_555 1_555
H5 N1 1_555 1_555
C10 N1 1_555 1_555
H6 C10 1_555 1_555
H7 C10 1_555 1_555
H8 C10 1_555 1_555
C11 N1 1_555 1_555
H9 C11 1_555 1_555
H10 C11 1_555 1_555
H11 C11 1_555 1_555
H6_2 C10_2 1_555 1_555
H7_2 C10_2 1_555 1_555
H8_2 C10_2 1_555 1_555
N1_2 H4_2 1_555 1_555
H5_2 N1_2 1_555 1_555
C11_2 N1_2 1_555 1_555
H9_2 C11_2 1_555 1_555
H10_2 C11_2 1_555 1_555
N1_3 H4_3 1_555 1_555
H5_3 N1_3 1_555 1_555
C10_3 N1_3 1_555 1_555
H6_3 C10_3 1_555 1_555
H7_3 C10_3 1_555 1_555
H8_3 C10_3 1_555 1_555
C11_3 N1_3 1_555 1_555
H9_3 C11_3 1_555 1_555
H10_3 C11_3 1_555 1_555
H11_3 C11_3 1_555 1_555
N1_4 H4_4 1_555 1_555
H5_4 N1_4 1_555 1_555
C11_4 N1_4 1_555 1_555
H9_4 C11_4 1_555 1_555
H10_4 C11_4 1_555 1_555
H6_4 C10_4 1_555 1_555
H7_4 C10_4 1_555 1_555
H8_4 C10_4 1_555 1_555

#END
