
###############################################################################
#
# This file contains modified crystal structure data generated from the
# MOF subset of the Cambridge Structural Database (CSD) v543 
# hosted by the Cambridge Crystallographic Data Centre (CCDC).
#
# This work is licensed under the Creative Commons
# Attribution-NonCommercial-ShareAlike 4.0 International License.
# To view a copy of this license, visit
# http://creativecommons.org/licenses/by-nc-sa/4.0/
# or send a letter to
# Creative Commons, PO Box 1866, Mountain View, CA 94042, USA.
#
# CIF created using the CSD Python API on 29 September 2022
# The structure has been converted into the P1 space group
# The structure has a 3D framework
# The original CSD entry WULWOS is in the monoclinic crystal system
# The framework has been calculated to contain at least 10.0% void space
# The void calculation uses a probe of radius 1.32A, grid spacing 0.4
# H atom positions have been added when not included in the experimental data
#
###############################################################################

data_WULWOS
_chemical_formula_moiety         '(C696 H600 N264 O240 Sr16 4-)n'
_symmetry_cell_setting           triclinic
_symmetry_space_group_name_H-M   'P 1'
_symmetry_Int_Tables_number      1
_space_group_name_Hall           'P 1'
loop_
_symmetry_equiv_pos_site_id
_symmetry_equiv_pos_as_xyz
1 x,y,z
_cell_length_a                   19.6883(15)
_cell_length_b                   35.353(3)
_cell_length_c                   32.890(2)
_cell_angle_alpha                90
_cell_angle_beta                 101.374(3)
_cell_angle_gamma                90
_cell_volume                     22443.2
loop_
_atom_site_label
_atom_site_type_symbol
_atom_site_fract_x
_atom_site_fract_y
_atom_site_fract_z
C1 C 0.0811(3) 0.42162(14) 0.50656(15)
H1 H 0.076524 0.415299 0.478076
C2 C 0.0717(3) 0.39414(13) 0.53435(14)
C3 C 0.1001(3) 0.46800(13) 0.56063(14)
H2 H 0.110126 0.493255 0.569716
C4 C 0.0972(3) 0.45876(14) 0.51943(14)
C5 C 0.0757(3) 0.40345(13) 0.57625(14)
H3 H 0.069867 0.384496 0.595733
C6 C 0.0884(3) 0.44065(13) 0.58885(14)
C7 C 0.0582(3) 0.35451(14) 0.51867(15)
C8 C 0.1782(4) 0.27399(19) 0.5403(2)
H4 H 0.213407 0.288556 0.557103
C9 C 0.1174(4) 0.29028(18) 0.5250(2)
C10 C 0.0805(5) 0.2321(2) 0.4917(2)
H5 H 0.045395 0.217236 0.475127
C11 C 0.1916(5) 0.2363(2) 0.5323(2)
H6 H 0.234987 0.225080 0.543935
C12 C 0.1419(5) 0.2161(2) 0.5078(2)
C13 C 0.0675(5) 0.2693(2) 0.4984(2)
H7 H 0.025069 0.280682 0.485272
C14 C 0.1575(6) 0.1743(3) 0.4984(3)
C15 C 0.0871(3) 0.45362(13) 0.63194(14)
C16 C 0.1223(4) 0.43685(14) 0.70507(16)
C17 C 0.1843(4) 0.42787(16) 0.73172(18)
H8 H 0.221882 0.417556 0.721120
C18 C 0.0675(4) 0.45087(17) 0.72073(18)
H9 H 0.024862 0.456596 0.702678
C19 C 0.1907(5) 0.4342(2) 0.7742(2)
H10 H 0.233201 0.428566 0.792543
C20 C 0.1381(5) 0.4480(2) 0.7894(2)
C21 C 0.0752(5) 0.4566(2) 0.7633(2)
H11 H 0.037768 0.466253 0.774514
C22 C 0.1459(8) 0.4560(3) 0.8364(3)
C23 C 0.1114(3) 0.48677(14) 0.48794(14)
C24 C 0.1007(3) 0.55405(14) 0.46910(15)
C25 C 0.0935(3) 0.55111(15) 0.42619(15)
H12 H 0.081039 0.527634 0.412718
C26 C 0.1243(3) 0.61631(15) 0.42192(17)
C27 C 0.1047(3) 0.58254(15) 0.40333(16)
H13 H 0.098699 0.580518 0.374030
C28 C 0.1297(3) 0.61951(15) 0.46424(17)
H14 H 0.142325 0.643059 0.477489
C29 C 0.1167(3) 0.58857(15) 0.48766(16)
H15 H 0.119009 0.591314 0.516628
C30 C 0.1442(4) 0.64968(17) 0.3967(2)
N1 N 0.1066(3) 0.32915(13) 0.53613(15)
H16 H 0.136337 0.337608 0.557761
N2 N 0.1177(2) 0.43007(11) 0.66247(12)
H17 H 0.135953 0.409028 0.655197
N3 N 0.0907(2) 0.52262(11) 0.49358(12)
H18 H 0.069321 0.526602 0.514283
O1 O 0.0107(2) 0.34747(12) 0.49043(14)
O2 O 0.2204(4) 0.16449(19) 0.5016(2)
O3 O 0.1037(5) 0.15474(18) 0.4855(2)
O4 O 0.2050(7) 0.4492(4) 0.8576(3)
O5 O 0.0969(7) 0.4658(3) 0.8492(2)
O6 O 0.1400(2) 0.47688(11) 0.45967(11)
O7 O 0.1473(3) 0.64415(13) 0.35988(14)
O8 O 0.1584(3) 0.68067(12) 0.41492(15)
O9 O 0.0603(2) 0.48397(10) 0.63800(10)
C24_2 C 0.3993(3) 0.05405(14) 0.03090(15)
C25_2 C 0.4065(3) 0.05111(15) 0.07381(15)
H12_2 H 0.418961 0.027634 0.087282
C26_2 C 0.3757(3) 0.11631(15) 0.07808(17)
C27_2 C 0.3953(3) 0.08254(15) 0.09667(16)
H13_2 H 0.401301 0.080518 0.125970
C28_2 C 0.3703(3) 0.11951(15) 0.03576(17)
H14_2 H 0.357675 0.143059 0.022511
C29_2 C 0.3833(3) 0.08857(15) 0.01234(16)
C30_2 C 0.3558(4) 0.14968(17) 0.1033(2)
N3_2 N 0.4093(2) 0.02262(11) 0.00642(12)
O7_2 O 0.3527(3) 0.14415(13) 0.14012(14)
O8_2 O 0.3416(3) 0.18067(12) 0.08508(15)
H15_2 H 0.380991 0.091314 0.983372
H18_2 H 0.430679 0.026602 0.985717
H1_2 H 0.423476 0.915299 0.021924
C10_2 C 0.4195(5) 0.7321(2) 0.0083(2)
H5_2 H 0.454605 0.717236 0.024873
C13_2 C 0.4325(5) 0.7693(2) 0.0016(2)
H7_2 H 0.474931 0.780682 0.014728
C14_2 C 0.3425(6) 0.6743(3) 0.0016(3)
C23_2 C 0.3886(3) 0.98677(14) 0.01206(14)
O1_2 O 0.4893(2) 0.84747(12) 0.00957(14)
O3_2 O 0.3963(5) 0.65474(18) 0.0145(2)
O6_2 O 0.3600(2) 0.97688(11) 0.04033(11)
C1_2 C 0.4189(3) 0.92162(14) 0.99344(15)
C2_2 C 0.4283(3) 0.89414(13) 0.96565(14)
C3_2 C 0.3999(3) 0.96800(13) 0.93937(14)
H2_2 H 0.389874 0.993255 0.930284
C4_2 C 0.4028(3) 0.95876(14) 0.98057(14)
C5_2 C 0.4243(3) 0.90345(13) 0.92375(14)
H3_2 H 0.430133 0.884496 0.904267
C6_2 C 0.4116(3) 0.94065(13) 0.91115(14)
C7_2 C 0.4418(3) 0.85451(14) 0.98133(15)
C8_2 C 0.3218(4) 0.77399(19) 0.9597(2)
H4_2 H 0.286593 0.788556 0.942897
C9_2 C 0.3826(4) 0.79028(18) 0.9750(2)
C11_2 C 0.3084(5) 0.7363(2) 0.9677(2)
H6_2 H 0.265013 0.725080 0.956065
C12_2 C 0.3581(5) 0.7161(2) 0.9922(2)
C15_2 C 0.4129(3) 0.95362(13) 0.86806(14)
C16_2 C 0.3777(4) 0.93685(14) 0.79493(16)
C17_2 C 0.3157(4) 0.92787(16) 0.76828(18)
H8_2 H 0.278118 0.917556 0.778880
C18_2 C 0.4325(4) 0.95087(17) 0.77927(18)
H9_2 H 0.475138 0.956596 0.797322
C19_2 C 0.3093(5) 0.9342(2) 0.7258(2)
H10_2 H 0.266799 0.928566 0.707457
C20_2 C 0.3619(5) 0.9480(2) 0.7106(2)
C21_2 C 0.4248(5) 0.9566(2) 0.7367(2)
H11_2 H 0.462232 0.966253 0.725486
C22_2 C 0.3541(8) 0.9560(3) 0.6636(3)
N1_2 N 0.3934(3) 0.82915(13) 0.96387(15)
H16_2 H 0.363663 0.837608 0.942239
N2_2 N 0.3823(2) 0.93007(11) 0.83753(12)
H17_2 H 0.364047 0.909028 0.844803
O2_2 O 0.2796(4) 0.66449(19) 0.9984(2)
O4_2 O 0.2950(7) 0.9492(4) 0.6424(3)
O5_2 O 0.4031(7) 0.9658(3) 0.6508(2)
O9_2 O 0.4397(2) 0.98397(10) 0.86200(10)
C1_3 C 0.9189(3) 0.57838(14) 0.49344(15)
H1_3 H 0.923476 0.584701 0.521924
C2_3 C 0.9283(3) 0.60586(13) 0.46565(14)
C3_3 C 0.8999(3) 0.53200(13) 0.43937(14)
H2_3 H 0.889874 0.506745 0.430284
C4_3 C 0.9028(3) 0.54124(14) 0.48057(14)
C5_3 C 0.9243(3) 0.59655(13) 0.42375(14)
H3_3 H 0.930133 0.615504 0.404267
C6_3 C 0.9116(3) 0.55935(13) 0.41115(14)
C7_3 C 0.9418(3) 0.64549(14) 0.48133(15)
C8_3 C 0.8218(4) 0.72601(19) 0.4597(2)
H4_3 H 0.786593 0.711444 0.442897
C9_3 C 0.8826(4) 0.70972(18) 0.4750(2)
C10_3 C 0.9195(5) 0.7679(2) 0.5083(2)
H5_3 H 0.954605 0.782764 0.524873
C11_3 C 0.8084(5) 0.7637(2) 0.4677(2)
H6_3 H 0.765013 0.774920 0.456065
C12_3 C 0.8581(5) 0.7839(2) 0.4922(2)
C13_3 C 0.9325(5) 0.7307(2) 0.5016(2)
H7_3 H 0.974931 0.719318 0.514728
C14_3 C 0.8425(6) 0.8257(3) 0.5016(3)
C15_3 C 0.9129(3) 0.54638(13) 0.36806(14)
C16_3 C 0.8777(4) 0.56315(14) 0.29493(16)
C17_3 C 0.8157(4) 0.57213(16) 0.26828(18)
H8_3 H 0.778118 0.582444 0.278880
C18_3 C 0.9325(4) 0.54913(17) 0.27927(18)
H9_3 H 0.975138 0.543404 0.297322
C19_3 C 0.8093(5) 0.5658(2) 0.2258(2)
H10_3 H 0.766799 0.571434 0.207457
C20_3 C 0.8619(5) 0.5520(2) 0.2106(2)
C21_3 C 0.9248(5) 0.5434(2) 0.2367(2)
H11_3 H 0.962232 0.533747 0.225486
C22_3 C 0.8541(8) 0.5440(3) 0.1636(3)
C23_3 C 0.8886(3) 0.51323(14) 0.51206(14)
C24_3 C 0.8993(3) 0.44595(14) 0.53090(15)
C25_3 C 0.9065(3) 0.44889(15) 0.57381(15)
H12_3 H 0.918961 0.472366 0.587282
C26_3 C 0.8757(3) 0.38369(15) 0.57808(17)
C27_3 C 0.8953(3) 0.41746(15) 0.59667(16)
H13_3 H 0.901301 0.419482 0.625970
C28_3 C 0.8703(3) 0.38049(15) 0.53576(17)
H14_3 H 0.857675 0.356941 0.522511
C29_3 C 0.8833(3) 0.41143(15) 0.51234(16)
H15_3 H 0.880991 0.408686 0.483372
C30_3 C 0.8558(4) 0.35032(17) 0.6033(2)
N1_3 N 0.8934(3) 0.67085(13) 0.46387(15)
H16_3 H 0.863663 0.662392 0.442239
N2_3 N 0.8823(2) 0.56993(11) 0.33753(12)
H17_3 H 0.864047 0.590972 0.344803
N3_3 N 0.9093(2) 0.47738(11) 0.50642(12)
H18_3 H 0.930679 0.473398 0.485717
O1_3 O 0.9893(2) 0.65253(12) 0.50957(14)
O2_3 O 0.7796(4) 0.83551(19) 0.4984(2)
O3_3 O 0.8963(5) 0.84526(18) 0.5145(2)
O4_3 O 0.7950(7) 0.5508(4) 0.1424(3)
O5_3 O 0.9031(7) 0.5342(3) 0.1508(2)
O6_3 O 0.8600(2) 0.52312(11) 0.54033(11)
O7_3 O 0.8527(3) 0.35585(13) 0.64012(14)
O8_3 O 0.8416(3) 0.31933(12) 0.58508(15)
O9_3 O 0.9397(2) 0.51603(10) 0.36200(10)
C1_4 C 0.5811(3) 0.07838(14) 0.00656(15)
C2_4 C 0.5717(3) 0.10586(13) 0.03435(14)
C3_4 C 0.6001(3) 0.03200(13) 0.06063(14)
H2_4 H 0.610126 0.006745 0.069716
C4_4 C 0.5972(3) 0.04124(14) 0.01943(14)
C5_4 C 0.5757(3) 0.09655(13) 0.07625(14)
H3_4 H 0.569867 0.115504 0.095733
C6_4 C 0.5884(3) 0.05935(13) 0.08885(14)
C7_4 C 0.5582(3) 0.14549(14) 0.01867(15)
C8_4 C 0.6782(4) 0.22601(19) 0.0403(2)
H4_4 H 0.713407 0.211444 0.057103
C9_4 C 0.6174(4) 0.20972(18) 0.0250(2)
C11_4 C 0.6916(5) 0.2637(2) 0.0323(2)
H6_4 H 0.734987 0.274920 0.043935
C12_4 C 0.6419(5) 0.2839(2) 0.0078(2)
C15_4 C 0.5871(3) 0.04638(13) 0.13194(14)
C16_4 C 0.6223(4) 0.06315(14) 0.20507(16)
C17_4 C 0.6843(4) 0.07213(16) 0.23172(18)
H8_4 H 0.721882 0.082444 0.221120
C18_4 C 0.5675(4) 0.04913(17) 0.22073(18)
H9_4 H 0.524862 0.043404 0.202678
C19_4 C 0.6907(5) 0.0658(2) 0.2742(2)
H10_4 H 0.733201 0.071434 0.292543
C20_4 C 0.6381(5) 0.0520(2) 0.2894(2)
C21_4 C 0.5752(5) 0.0434(2) 0.2633(2)
H11_4 H 0.537768 0.033747 0.274514
C22_4 C 0.6459(8) 0.0440(3) 0.3364(3)
N1_4 N 0.6066(3) 0.17085(13) 0.03613(15)
H16_4 H 0.636337 0.162392 0.057761
N2_4 N 0.6177(2) 0.06993(11) 0.16247(12)
H17_4 H 0.635953 0.090972 0.155197
O2_4 O 0.7204(4) 0.33551(19) 0.0016(2)
O4_4 O 0.7050(7) 0.0508(4) 0.3576(3)
O5_4 O 0.5969(7) 0.0342(3) 0.3492(2)
O9_4 O 0.5603(2) 0.01603(10) 0.13800(10)
H1_4 H 0.576524 0.084701 0.978076
C10_4 C 0.5805(5) 0.2679(2) 0.9917(2)
H5_4 H 0.545395 0.282764 0.975127
C13_4 C 0.5675(5) 0.2307(2) 0.9984(2)
H7_4 H 0.525069 0.219318 0.985272
C14_4 C 0.6575(6) 0.3257(3) 0.9984(3)
C23_4 C 0.6114(3) 0.01323(14) 0.98794(14)
O1_4 O 0.5107(2) 0.15253(12) 0.99043(14)
O3_4 O 0.6037(5) 0.34526(18) 0.9855(2)
O6_4 O 0.6400(2) 0.02312(11) 0.95967(11)
H15_4 H 0.619009 0.908686 0.016628
H18_4 H 0.569321 0.973398 0.014283
C24_4 C 0.6007(3) 0.94595(14) 0.96910(15)
C25_4 C 0.5935(3) 0.94889(15) 0.92619(15)
H12_4 H 0.581039 0.972366 0.912718
C26_4 C 0.6243(3) 0.88369(15) 0.92192(17)
C27_4 C 0.6047(3) 0.91746(15) 0.90333(16)
H13_4 H 0.598699 0.919482 0.874030
C28_4 C 0.6297(3) 0.88049(15) 0.96424(17)
H14_4 H 0.642325 0.856941 0.977489
C29_4 C 0.6167(3) 0.91143(15) 0.98766(16)
C30_4 C 0.6442(4) 0.85032(17) 0.8967(2)
N3_4 N 0.5907(2) 0.97738(11) 0.99358(12)
O7_4 O 0.6473(3) 0.85585(13) 0.85988(14)
O8_4 O 0.6584(3) 0.81933(12) 0.91492(15)
N4 N 0.3477(4) 0.51361(16) 0.04011(17)
H19 H 0.315162 0.530995 0.030317
H20 H 0.388749 0.525164 0.048635
H21 H 0.351089 0.496981 0.019898
H22 H 0.335719 0.501301 0.061594
N4_2 N 0.1523(4) 0.01361(16) 0.45989(17)
H19_2 H 0.184838 0.030995 0.469683
H20_2 H 0.111251 0.025164 0.451365
H22_2 H 0.164281 0.001301 0.438406
H21_2 H 0.148911 0.996981 0.480102
N4_3 N 0.6523(4) 0.48639(16) 0.95989(17)
H19_3 H 0.684838 0.469005 0.969683
H20_3 H 0.611251 0.474836 0.951365
H21_3 H 0.648911 0.503019 0.980102
H22_3 H 0.664281 0.498699 0.938406
H21_4 H 0.851089 0.003019 0.519898
N4_4 N 0.8477(4) 0.98639(16) 0.54011(17)
H19_4 H 0.815162 0.969005 0.530317
H20_4 H 0.888749 0.974836 0.548635
H22_4 H 0.835719 0.998699 0.561594
Sr1 Sr 0.43162(2) 0.26765(2) 0.76556(2)
O10 O 0.54881(19) 0.27740(11) 0.81970(12)
O11 O 0.50757(18) 0.28764(11) 0.71617(12)
O12 O 0.35771(19) 0.29141(11) 0.81271(11)
O13 O 0.44305(18) 0.21503(10) 0.81992(11)
O14 O 0.34175(19) 0.22289(10) 0.72405(11)
O15 O 0.4945(2) 0.20721(11) 0.73903(12)
O16 O 0.43631(19) 0.34194(10) 0.77043(11)
O17 O 0.36670(18) 0.32218(10) 0.71274(11)
C31 C 0.6086(3) 0.28900(16) 0.82984(19)
C32 C 0.5621(3) 0.29997(16) 0.70822(19)
C33 C 0.3311(3) 0.29376(15) 0.84317(17)
C34 C 0.4291(3) 0.20007(14) 0.85082(16)
Sr2 Sr 0.39689(3) 0.17213(2) 0.68655(2)
C35 C 0.2773(3) 0.22740(14) 0.72016(17)
Sr3 Sr 0.25586(2) 0.31033(2) 0.66266(2)
N5 N 0.6372(2) 0.31594(13) 0.80871(16)
N6 N 0.6579(2) 0.27803(14) 0.86374(15)
N7 N 0.5820(2) 0.29499(14) 0.67123(15)
N8 N 0.6101(2) 0.32042(14) 0.73396(16)
N9 N 0.2718(2) 0.31334(12) 0.84471(13)
N10 N 0.3559(2) 0.27862(12) 0.88094(13)
N11 N 0.4150(2) 0.21856(12) 0.88484(13)
N12 N 0.4254(2) 0.16205(11) 0.85728(13)
O18 O 0.4687(2) 0.21009(12) 0.64510(13)
O19 O 0.4725(2) 0.11833(12) 0.67081(14)
O20 O 0.4123(2) 0.13128(10) 0.74742(11)
O21 O 0.2997(2) 0.12230(11) 0.66337(12)
O22 O 0.3156(3) 0.19182(15) 0.62223(16)
C36 C 0.2393(3) 0.20278(14) 0.74584(16)
O23 O 0.2425(2) 0.25066(12) 0.69556(13)
O24 O 0.1255(2) 0.29430(11) 0.63896(12)
O25 O 0.20985(19) 0.33275(11) 0.72781(12)
O26 O 0.2272(2) 0.34948(10) 0.59282(11)
O27 O 0.2242(2) 0.38276(10) 0.64912(11)
O28 O 0.3425(2) 0.29641(14) 0.61609(14)
C37 C 0.7085(3) 0.32410(17) 0.8287(2)
C38 C 0.6009(3) 0.33540(16) 0.7738(2)
C39 C 0.6406(3) 0.25870(18) 0.89879(19)
C40 C 0.7188(3) 0.30204(17) 0.86889(19)
C41 C 0.6489(3) 0.31304(18) 0.6717(2)
C42 C 0.5354(3) 0.28115(18) 0.63492(19)
C43 C 0.6692(3) 0.33080(17) 0.71471(19)
C44 C 0.2495(3) 0.34409(15) 0.81588(17)
C45 C 0.2565(3) 0.31265(15) 0.88668(16)
C46 C 0.3097(3) 0.28420(14) 0.90927(16)
C47 C 0.4203(3) 0.25870(14) 0.89014(17)
C48 C 0.3984(3) 0.19256(14) 0.91557(16)
C49 C 0.4120(3) 0.15347(14) 0.89808(16)
C50 C 0.4582(3) 0.13589(15) 0.83434(17)
C51 C 0.5144(3) 0.21296(19) 0.62513(18)
C52 C 0.5157(4) 0.10425(19) 0.6534(2)
C53 C 0.3976(3) 0.10642(14) 0.77058(17)
C54 C 0.2635(3) 0.09507(15) 0.66887(17)
C55 C 0.1671(3) 0.20437(17) 0.74022(19)
C56 C 0.2758(3) 0.17894(15) 0.77500(17)
C57 C 0.0706(3) 0.28685(15) 0.64907(17)
C58 C 0.1673(3) 0.33635(14) 0.74937(17)
C59 C 0.2340(3) 0.38015(14) 0.61227(16)
H23 H 0.715708 0.351809 0.833980
N13 N 0.7605(2) 0.30858(14) 0.80754(16)
H24 H 0.615856 0.362184 0.775723
H25 H 0.550878 0.334887 0.774583
H26 H 0.589870 0.254648 0.893405
H27 H 0.652499 0.275384 0.923335
N14 N 0.6743(3) 0.22275(17) 0.90877(16)
H28 H 0.721974 0.319184 0.893383
N15 N 0.7828(2) 0.28243(15) 0.86942(15)
H29 H 0.645423 0.332608 0.649449
N16 N 0.7044(2) 0.28665(16) 0.67003(17)
H30 H 0.488077 0.280178 0.640958
H31 H 0.534607 0.299520 0.612117
N17 N 0.5519(2) 0.24453(16) 0.62077(15)
H32 H 0.674373 0.358867 0.713029
N18 N 0.7333(2) 0.31300(15) 0.73236(16)
H33 H 0.251501 0.368026 0.831695
H34 H 0.282488 0.346280 0.796826
N19 N 0.1807(2) 0.33953(12) 0.79168(14)
H35 H 0.262128 0.338165 0.900047
N20 N 0.1916(2) 0.29583(13) 0.88912(14)
H36 H 0.334427 0.293913 0.936787
N21 N 0.2666(2) 0.25129(12) 0.91340(13)
H37 H 0.442805 0.264127 0.919217
H38 H 0.450944 0.268649 0.872101
H39 H 0.428198 0.196983 0.943518
N22 N 0.3259(2) 0.19094(12) 0.91754(13)
H40 H 0.452578 0.140638 0.915834
N23 N 0.3487(2) 0.13301(11) 0.89781(13)
H41 H 0.495635 0.122667 0.853617
H42 H 0.479638 0.150027 0.814147
N24 N 0.4108(2) 0.10810(11) 0.81232(13)
N25 N 0.5360(3) 0.18418(16) 0.60275(15)
N26 N 0.5336(3) 0.11779(17) 0.61802(18)
N27 N 0.5537(3) 0.07251(17) 0.6659(2)
N28 N 0.3652(2) 0.07326(12) 0.75776(13)
N29 N 0.2844(3) 0.06496(13) 0.69396(14)
N30 N 0.1960(3) 0.09030(13) 0.65133(14)
C60 C 0.1325(3) 0.18180(17) 0.76446(19)
H43 H 0.141546 0.220794 0.719928
C61 C 0.2415(3) 0.15681(16) 0.79912(18)
H44 H 0.324776 0.177629 0.778659
N31 N 0.0306(2) 0.25521(13) 0.63733(14)
N32 N 0.0368(2) 0.30892(13) 0.67273(15)
N33 N 0.0971(2) 0.33914(13) 0.73588(14)
C62 C 0.2550(3) 0.41415(13) 0.59097(15)
C63 C 0.8062(3) 0.28591(17) 0.83359(19)
C64 C 0.7773(3) 0.32516(18) 0.7708(2)
C65 C 0.6382(3) 0.1899(2) 0.9094(2)
C66 C 0.7441(3) 0.2210(2) 0.9361(2)
C67 C 0.8221(3) 0.26537(19) 0.9061(2)
C68 C 0.7545(3) 0.28777(18) 0.7057(2)
C69 C 0.7163(3) 0.2693(2) 0.6328(2)
C70 C 0.6043(3) 0.23780(19) 0.59647(18)
C71 C 0.1188(3) 0.34777(15) 0.80790(17)
C72 C 0.1264(3) 0.31476(17) 0.87798(17)
C73 C 0.1981(3) 0.25903(15) 0.90228(16)
C74 C 0.2912(3) 0.21835(15) 0.93839(16)
C75 C 0.2981(3) 0.15502(14) 0.90842(15)
C76 C 0.3420(3) 0.09238(14) 0.89347(16)
C77 C 0.3909(3) 0.07325(14) 0.83050(16)
C78 C 0.5907(3) 0.1968(2) 0.58143(19)
C79 C 0.4990(4) 0.1492(2) 0.5944(2)
C80 C 0.5845(4) 0.0942(2) 0.6046(3)
C81 C 0.5947(4) 0.0614(2) 0.6358(3)
C82 C 0.5316(4) 0.0456(2) 0.6943(3)
C83 C 0.3592(3) 0.04895(14) 0.79239(16)
C84 C 0.3544(3) 0.06073(15) 0.71560(16)
C85 C 0.2291(3) 0.03849(15) 0.69516(16)
C86 C 0.1681(3) 0.05483(16) 0.66344(18)
C87 C 0.1642(3) 0.11039(17) 0.61416(18)
C88 C 0.1696(3) 0.15872(13) 0.79445(16)
H45 H 0.083409 0.182390 0.760223
H46 H 0.267156 0.140124 0.819075
C90 C 0.0437(3) 0.23032(16) 0.60548(18)
C92 C 0.0662(3) 0.34329(15) 0.69248(17)
C93 C 0.0606(3) 0.34675(14) 0.76930(17)
C94 C 0.2603(3) 0.44956(14) 0.61016(15)
C95 C 0.2704(3) 0.41116(15) 0.55266(16)
O29 O 0.86001(19) 0.27230(12) 0.82590(13)
H47 H 0.825911 0.318848 0.769874
H48 H 0.774040 0.353017 0.772909
N34 N 0.6823(3) 0.16373(18) 0.93121(18)
O30 O 0.5772(2) 0.18513(14) 0.89424(13)
H49 H 0.747638 0.236308 0.961967
C96 C 0.7511(3) 0.1779(2) 0.9445(2)
N35 N 0.8000(3) 0.22815(18) 0.91441(17)
H50 H 0.871293 0.264247 0.903474
H51 H 0.819274 0.281775 0.930081
O31 O 0.8081(2) 0.27019(13) 0.71261(14)
H52 H 0.765786 0.262125 0.636870
H53 H 0.707149 0.288165 0.610184
N36 N 0.6746(2) 0.23604(16) 0.61994(15)
H54 H 0.600036 0.255877 0.572710
H55 H 0.121855 0.372907 0.822089
N37 N 0.0997(2) 0.31761(13) 0.83395(15)
H56 H 0.131297 0.340597 0.889806
H57 H 0.092013 0.301188 0.890839
O32 O 0.1510(2) 0.23732(12) 0.90456(12)
H58 H 0.323414 0.226835 0.963772
H59 H 0.251246 0.206018 0.947085
O33 O 0.2400(2) 0.14530(10) 0.91068(12)
H60 H 0.383591 0.080478 0.910462
H61 H 0.301470 0.084234 0.904947
N38 N 0.3337(2) 0.07825(12) 0.85150(13)
H62 H 0.431363 0.060537 0.848487
H63 H 0.575689 0.195412 0.550598
N39 N 0.6567(3) 0.17821(18) 0.59564(17)
H64 H 0.493072 0.143408 0.564463
H65 H 0.452297 0.152230 0.600912
H66 H 0.568293 0.085093 0.575495
N40 N 0.6537(3) 0.11114(19) 0.6105(2)
H67 H 0.578189 0.036862 0.622117
N41 N 0.6680(4) 0.0608(2) 0.6519(2)
H68 H 0.488645 0.055095 0.702150
H69 H 0.520599 0.021158 0.679797
N42 N 0.5837(4) 0.0393(2) 0.7318(3)
H70 H 0.384736 0.024574 0.791682
N43 N 0.2891(2) 0.04296(11) 0.79748(13)
H71 H 0.385112 0.075289 0.700890
H72 H 0.367660 0.033746 0.715123
H73 H 0.241335 0.012348 0.687504
N44 N 0.2040(2) 0.03893(12) 0.73385(14)
H74 H 0.153938 0.037548 0.639184
N45 N 0.1138(3) 0.05889(14) 0.68707(15)
H75 H 0.200526 0.124324 0.603395
H76 H 0.143339 0.091796 0.592814
N46 N 0.1113(3) 0.13681(14) 0.62062(15)
N47 N 0.1380(2) 0.13435(11) 0.81995(13)
H78 H 0.083888 0.240006 0.594657
H79 H 0.003045 0.230468 0.582353
N49 N 0.0578(3) 0.19156(13) 0.61951(15)
H81 H 0.029422 0.362733 0.689664
H82 H 0.102057 0.352610 0.677630
H83 H 0.035387 0.371446 0.765098
N51 N 0.0163(2) 0.31717(13) 0.77772(15)
C97 C 0.2772(3) 0.48175(13) 0.59024(15)
H84 H 0.252015 0.451645 0.637578
H85 H 0.267734 0.387120 0.539525
C98 C 0.2898(3) 0.44249(14) 0.53228(17)
Sr4 Sr 0.94234(2) 0.21217(2) 0.82619(2)
C99 C 0.6608(4) 0.1253(2) 0.9377(3)
H86 H 0.769231 0.172404 0.974465
N52 N 0.7999(3) 0.16544(19) 0.9185(2)
C100 C 0.8278(3) 0.1961(2) 0.9022(2)
C101 C 0.7039(3) 0.2013(2) 0.61759(19)
C102 C 0.0415(3) 0.29985(16) 0.81521(18)
C103 C 0.2749(3) 0.06127(13) 0.83170(15)
C104 C 0.6720(4) 0.1403(2) 0.5840(2)
C105 C 0.7017(5) 0.0898(3) 0.6353(3)
C106 C 0.7056(5) 0.0299(3) 0.6752(3)
C107 C 0.5685(4) 0.0427(2) 0.7713(3)
C108 C 0.6419(5) 0.0125(3) 0.7326(3)
C109 C 0.2381(3) 0.02021(14) 0.77074(17)
C110 C 0.1344(3) 0.04865(14) 0.72757(18)
C111 C 0.0432(3) 0.06890(17) 0.6691(2)
C112 C 0.1201(3) 0.17503(16) 0.61753(17)
C113 C 0.0410(3) 0.12623(17) 0.62200(18)
C114 C 0.0844(3) 0.14294(13) 0.83752(16)
H87 H 0.155483 0.111486 0.824496
C117 C 0.0036(3) 0.16412(16) 0.62232(18)
H88 H 0.279305 0.505728 0.603458
C119 C 0.2912(3) 0.47832(14) 0.55042(16)
H89 H 0.302256 0.439589 0.505973
O34 O 0.8732(2) 0.19404(15) 0.88128(16)
H90 H 0.684131 0.117179 0.965751
H91 H 0.610308 0.125498 0.937111
N53 N 0.6744(3) 0.09803(19) 0.9087(2)
C120 C 0.8330(4) 0.1305(2) 0.9224(3)
O35 O 0.7640(2) 0.19308(16) 0.63318(15)
O36 O 0.0136(2) 0.27324(11) 0.83009(13)
O37 O 0.21853(18) 0.06154(10) 0.84194(11)
H92 H 0.722250 0.138537 0.584115
H93 H 0.646985 0.135598 0.555256
O38 O 0.7652(3) 0.09545(19) 0.6425(2)
H94 H 0.687867 0.005788 0.661857
H95 H 0.754995 0.031967 0.673336
N54 N 0.7011(4) 0.0282(2) 0.7179(3)
N55 N 0.6172(3) 0.02386(19) 0.7987(3)
O39 O 0.5173(3) 0.05815(16) 0.7783(2)
C121 C 0.6711(4) 0.0085(2) 0.7794(3)
H98 H 0.202758 0.012028 0.786539
O40 O 0.0983(2) 0.04752(11) 0.75397(13)
H99 H 0.028585 0.054585 0.643011
H100 H 0.013011 0.060975 0.688392
N56 N 0.0325(3) 0.10849(14) 0.66049(15)
O41 O 0.1725(2) 0.19121(12) 0.61285(13)
H101 H 0.019912 0.110588 0.597406
C122 C 0.0638(2) 0.11195(13) 0.86403(15)
O42 O 0.05315(19) 0.17337(10) 0.83284(13)
N58 N 0.3065(2) 0.50857(11) 0.52683(13)
C123 C 0.6246(4) 0.0768(2) 0.8869(3)
C124 C 0.7436(4) 0.0791(2) 0.9134(3)
H107 H 0.843320 0.123422 0.952123
H108 H 0.877830 0.133135 0.913312
N59 N 0.7946(3) 0.1006(2) 0.8994(3)
C125 C 0.7521(5) 0.0401(3) 0.7482(4)
C126 C 0.6146(4) 0.0204(2) 0.8411(3)
N60 N 0.7354(4) 0.0290(2) 0.7861(3)
C128 C 0.0398(3) 0.12180(14) 0.89931(15)
C129 C 0.0691(3) 0.07410(13) 0.85366(16)
C130 C 0.2870(3) 0.54448(14) 0.53079(16)
H110 H 0.330959 0.503787 0.507735
N61 N 0.6539(3) 0.04870(19) 0.8676(2)
O44 O 0.5617(2) 0.08078(15) 0.88419(19)
H111 H 0.760249 0.069944 0.942422
C131 C 0.7283(4) 0.0464(2) 0.8830(3)
C132 C 0.8118(4) 0.0852(3) 0.8659(3)
O45 O 0.0140(2) 0.21893(14) 0.90195(14)
O48 O 0.8067(3) 0.0533(2) 0.7437(3)
H113 H 0.565618 0.021812 0.844122
C133 C 0.7865(5) 0.0284(3) 0.8239(3)
C134 C 0.0220(3) 0.09365(13) 0.92485(15)
H114 H 0.035519 0.147686 0.906121
C135 C 0.0501(3) 0.04590(13) 0.87862(16)
H115 H 0.085692 0.067499 0.829386
C136 C 0.2958(3) 0.57130(14) 0.49709(16)
O50 O 0.2617(3) 0.55543(12) 0.55921(14)
H116 H 0.741645 0.021579 0.897006
N62 N 0.7717(4) 0.0555(2) 0.8539(3)
O51 O 0.8590(3) 0.09676(19) 0.8483(2)
H117 H 0.832610 0.033959 0.817599
H118 H 0.788384 0.002684 0.836137
C137 C 0.0276(3) 0.05618(13) 0.91433(16)
C139 C 0.0528(3) 0.00450(15) 0.86961(17)
C140 C 0.2843(3) 0.56013(14) 0.45590(16)
C141 C 0.3092(3) 0.60882(14) 0.50718(16)
H119 H 0.015821 0.037030 0.931974
N63 N 0.0010(3) 0.13746(13) 0.97716(15)
H120 H 0.273905 0.534433 0.448792
C142 C 0.2878(3) 0.58638(15) 0.42503(16)
H121 H 0.316210 0.616644 0.535334
C143 C 0.3124(3) 0.63504(14) 0.47647(16)
H122 H 0.031844 0.151153 0.967745
H123 H 0.077235 0.013006 0.816762
C146 C 0.3018(3) 0.62370(15) 0.43557(17)
C147 C 0.2756(3) 0.57240(15) 0.38121(17)
C148 C 0.3287(3) 0.67569(14) 0.48979(17)
H124 H 0.304219 0.641759 0.414506
N65 N 0.3227(4) 0.58567(18) 0.35891(19)
O54 O 0.2398(4) 0.54744(16) 0.36964(15)
N66 N 0.2835(3) 0.70136(12) 0.46910(14)
O55 O 0.3768(2) 0.68321(11) 0.51800(14)
C157 C 0.3160(5) 0.5767(2) 0.3161(2)
H129 H 0.357495 0.599857 0.371233
C158 C 0.2830(4) 0.74072(15) 0.47778(18)
H130 H 0.251641 0.692893 0.448489
C161 C 0.2532(5) 0.5788(2) 0.2895(2)
C162 C 0.3759(6) 0.5674(3) 0.3009(3)
C163 C 0.3395(4) 0.75960(16) 0.50160(18)
C164 C 0.2232(4) 0.76028(18) 0.4616(2)
H135 H 0.213493 0.584901 0.300570
C167 C 0.2445(6) 0.5723(2) 0.2466(3)
C168 C 0.3643(6) 0.5609(3) 0.2565(3)
H136 H 0.420384 0.565391 0.318389
H137 H 0.381626 0.746692 0.511988
C169 C 0.3321(5) 0.79825(18) 0.5098(2)
H138 H 0.185651 0.747741 0.444229
C170 C 0.2179(5) 0.79875(19) 0.4709(2)
H139 H 0.199716 0.572936 0.229429
C171 C 0.2992(6) 0.5653(3) 0.2309(3)
H140 H 0.402306 0.553514 0.244496
H141 H 0.370072 0.811386 0.525990
C172 C 0.2717(5) 0.81771(18) 0.4950(2)
H142 H 0.176109 0.811894 0.460255
C173 C 0.2887(8) 0.5618(3) 0.1844(3)
C174 C 0.2655(6) 0.8587(2) 0.5061(3)
O57 O 0.2225(6) 0.5675(3) 0.1610(2)
O58 O 0.3365(6) 0.5523(3) 0.1693(3)
O59 O 0.2088(5) 0.87560(18) 0.4868(3)
O60 O 0.3156(5) 0.87395(18) 0.5285(2)
H143 H 0.000889676 0.242787 0.914358
H144 H 0.00404948 0.197114 0.918873
H149 H 0.323584 0.218847 0.616417
H150 H 0.323614 0.176072 0.598623
H96 H 0.626391 0.987790 0.719108
H97 H 0.261021 0.997199 0.762814
H109 H 0.679408 0.981271 0.787083
H112 H 0.632268 0.995039 0.850835
N64 N 0.0697(3) 0.99442(12) 0.83310(14)
O53 O 0.0422(3) 0.98081(11) 0.89479(14)
C145 C 0.0765(3) 0.95713(15) 0.81832(18)
C151 C 0.0865(3) 0.92542(14) 0.84374(17)
C152 C 0.0754(4) 0.95300(16) 0.77633(19)
C155 C 0.0952(3) 0.89014(14) 0.82656(17)
H127 H 0.087384 0.927766 0.872620
C156 C 0.0827(4) 0.91801(16) 0.75933(19)
H128 H 0.069525 0.974697 0.758950
H133 H 0.102938 0.868533 0.844038
C160 C 0.0927(3) 0.88606(14) 0.78424(17)
H134 H 0.080892 0.915743 0.730358
C166 C 0.0979(3) 0.84788(14) 0.76596(17)
O64 O 0.06369(19) 0.84194(10) 0.72957(11)
O65 O 0.13330(18) 0.82218(10) 0.78726(11)
Sr7 Sr 0.06838(2) 0.76765(2) 0.73444(2)
Sr8 Sr 0.24414(2) 0.81033(2) 0.83734(2)
C144 C 0.9668(3) 0.15590(17) 0.0058(2)
C149 C 0.9293(4) 0.13792(19) 0.0317(2)
C150 C 0.9691(4) 0.19483(18) 0.0060(2)
H125 H 0.926646 0.111089 0.031610
C153 C 0.8955(4) 0.15860(19) 0.0578(2)
C154 C 0.9350(4) 0.21527(18) 0.0326(2)
C159 C 0.8979(3) 0.19670(18) 0.0582(2)
H131 H 0.870597 0.145698 0.075544
H132 H 0.937384 0.242114 0.032994
C165 C 0.8603(4) 0.2199(2) 0.0858(2)
O56 O 0.8511(3) 0.25384(16) 0.07618(16)
O63 O 0.8425(2) 0.20359(14) 0.11609(14)
Sr6 Sr 0.75586(2) 0.18967(2) 0.16266(2)
C89 C 0.9655(3) 0.25624(16) 0.65092(18)
C91 C 0.9703(3) 0.29331(16) 0.67691(18)
H77 H 0.925516 0.256958 0.626883
N48 N 0.9559(2) 0.22723(13) 0.68097(15)
H80 H 0.931252 0.311001 0.666139
N50 N 0.9680(2) 0.27987(13) 0.71840(15)
C115 C 0.9576(3) 0.24168(16) 0.71895(18)
C116 C 0.9299(3) 0.18965(17) 0.6695(2)
C118 C 0.9549(3) 0.30414(16) 0.75046(18)
O43 O 0.9504(2) 0.22356(11) 0.74992(13)
H102 H 0.909031 0.179265 0.692100
H103 H 0.892848 0.191512 0.644385
N57 N 0.9814(3) 0.16397(14) 0.66133(15)
H104 H 0.963549 0.166389 0.598456
H105 H 0.925812 0.290480 0.766982
H106 H 0.928291 0.326328 0.737695
C127 C 0.9944(3) 0.13041(17) 0.68209(19)
O46 O 0.9157(3) 0.14440(15) 0.79434(19)
O47 O 0.8179(2) 0.20745(15) 0.77263(17)
O49 O 0.9750(2) 0.12134(13) 0.71409(14)
C138 C 0.9927(3) 0.10242(14) 0.96269(16)
O52 O 0.9610(2) 0.07838(11) 0.97824(12)
H126 H 0.993703 0.207827 0.988127
H145 H 0.958041 0.12853 0.801103
H146 H 0.878067 0.132603 0.806114
H147 H 0.824829 0.211264 0.743814
H148 H 0.797285 0.18211 0.775021
O12_2 O 0.14229(19) 0.79141(11) 0.68729(11)
O13_2 O 0.05695(18) 0.71503(10) 0.68008(11)
O14_2 O 0.15825(19) 0.72289(10) 0.77595(11)
O15_2 O 0.0055(2) 0.70721(11) 0.76097(12)
C33_2 C 0.1689(3) 0.79376(15) 0.65683(17)
C34_2 C 0.0709(3) 0.70007(14) 0.64918(16)
Sr2_2 Sr 0.10311(3) 0.67213(2) 0.81345(2)
C35_2 C 0.2227(3) 0.72740(14) 0.77984(17)
N9_2 N 0.2282(2) 0.81334(12) 0.65529(13)
N10_2 N 0.1441(2) 0.77862(12) 0.61906(13)
N11_2 N 0.0850(2) 0.71856(12) 0.61516(13)
N12_2 N 0.0746(2) 0.66205(11) 0.64272(13)
O18_2 O 0.0313(2) 0.71009(12) 0.85490(13)
O19_2 O 0.0275(2) 0.61833(12) 0.82919(14)
O20_2 O 0.0877(2) 0.63128(10) 0.75258(11)
O21_2 O 0.2003(2) 0.62230(11) 0.83663(12)
O22_2 O 0.1844(3) 0.69182(15) 0.87777(16)
C36_2 C 0.2607(3) 0.70278(14) 0.75416(16)
O23_2 O 0.2575(2) 0.75066(12) 0.80444(13)
O24_2 O 0.3745(2) 0.79430(11) 0.86104(12)
O25_2 O 0.29015(19) 0.83275(11) 0.77219(12)
O26_2 O 0.2728(2) 0.84948(10) 0.90718(11)
O27_2 O 0.2758(2) 0.88276(10) 0.85088(11)
O28_2 O 0.1575(2) 0.79641(14) 0.88391(14)
C44_2 C 0.2505(3) 0.84409(15) 0.68412(17)
C45_2 C 0.2435(3) 0.81265(15) 0.61332(16)
C46_2 C 0.1903(3) 0.78420(14) 0.59073(16)
C47_2 C 0.0797(3) 0.75870(14) 0.60986(17)
C48_2 C 0.1016(3) 0.69256(14) 0.58443(16)
C49_2 C 0.0880(3) 0.65347(14) 0.60192(16)
C50_2 C 0.0418(3) 0.63589(15) 0.66566(17)
C53_2 C 0.1024(3) 0.60642(14) 0.72942(17)
C54_2 C 0.2365(3) 0.59507(15) 0.83113(17)
C55_2 C 0.3329(3) 0.70437(17) 0.75978(19)
C56_2 C 0.2242(3) 0.67894(15) 0.72500(17)
C57_2 C 0.4294(3) 0.78685(15) 0.85093(17)
C58_2 C 0.3327(3) 0.83635(14) 0.75063(17)
C59_2 C 0.2660(3) 0.88015(14) 0.88773(16)
H30_2 H 0.011923 0.780178 0.859042
H33_2 H 0.248499 0.868026 0.668305
H34_2 H 0.217512 0.846280 0.703174
N19_2 N 0.3193(2) 0.83953(12) 0.70832(14)
H35_2 H 0.237872 0.838165 0.599953
N20_2 N 0.3084(2) 0.79583(13) 0.61088(14)
H36_2 H 0.165573 0.793913 0.563213
N21_2 N 0.2334(2) 0.75129(12) 0.58660(13)
H37_2 H 0.057195 0.764127 0.580783
H38_2 H 0.049056 0.768649 0.627899
H39_2 H 0.071802 0.696983 0.556482
N22_2 N 0.1741(2) 0.69094(12) 0.58246(13)
H40_2 H 0.047422 0.640638 0.584166
N23_2 N 0.1513(2) 0.63301(11) 0.60219(13)
H41_2 H 0.004365 0.622667 0.646383
H42_2 H 0.020362 0.650027 0.685853
N24_2 N 0.0892(2) 0.60810(11) 0.68768(13)
N28_2 N 0.1348(2) 0.57326(12) 0.74224(13)
N29_2 N 0.2156(3) 0.56496(13) 0.80604(14)
N30_2 N 0.3040(3) 0.59030(13) 0.84867(14)
C60_2 C 0.3675(3) 0.68180(17) 0.73554(19)
H43_2 H 0.358454 0.720794 0.780072
C61_2 C 0.2585(3) 0.65681(16) 0.70088(18)
H44_2 H 0.175224 0.677629 0.721341
N31_2 N 0.4694(2) 0.75521(13) 0.86267(14)
N32_2 N 0.4632(2) 0.80892(13) 0.82727(15)
N33_2 N 0.4029(2) 0.83914(13) 0.76412(14)
C62_2 C 0.2450(3) 0.91415(13) 0.90903(15)
C71_2 C 0.3812(3) 0.84777(15) 0.69210(17)
C72_2 C 0.3736(3) 0.81476(17) 0.62202(17)
C73_2 C 0.3019(3) 0.75903(15) 0.59772(16)
C74_2 C 0.2088(3) 0.71835(15) 0.56161(16)
C75_2 C 0.2019(3) 0.65502(14) 0.59158(15)
C76_2 C 0.1580(3) 0.59238(14) 0.60653(16)
C77_2 C 0.1091(3) 0.57325(14) 0.66950(16)
C79_2 C 0.0010(4) 0.6492(2) 0.9056(2)
C83_2 C 0.1408(3) 0.54895(14) 0.70761(16)
C84_2 C 0.1456(3) 0.56073(15) 0.78440(16)
C85_2 C 0.2709(3) 0.53849(15) 0.80484(16)
C86_2 C 0.3319(3) 0.55483(16) 0.83656(18)
C87_2 C 0.3358(3) 0.61039(17) 0.88584(18)
C88_2 C 0.3304(3) 0.65872(13) 0.70555(16)
H45_2 H 0.416591 0.682390 0.739777
H46_2 H 0.232844 0.640124 0.680925
C89_2 C 0.5345(3) 0.75624(16) 0.84908(18)
C90_2 C 0.4563(3) 0.73032(16) 0.89452(18)
C91_2 C 0.5297(3) 0.79331(16) 0.82309(18)
C92_2 C 0.4338(3) 0.84329(15) 0.80752(17)
C93_2 C 0.4394(3) 0.84675(14) 0.73070(17)
C94_2 C 0.2397(3) 0.94956(14) 0.88984(15)
C95_2 C 0.2296(3) 0.91116(15) 0.94734(16)
H55_2 H 0.378145 0.872907 0.677911
N37_2 N 0.4003(2) 0.81761(13) 0.66605(15)
H56_2 H 0.368703 0.840597 0.610194
H57_2 H 0.407987 0.801188 0.609161
O32_2 O 0.3490(2) 0.73732(12) 0.59544(12)
H58_2 H 0.176586 0.726835 0.536228
H59_2 H 0.248754 0.706018 0.552915
O33_2 O 0.2600(2) 0.64530(10) 0.58932(12)
H60_2 H 0.116409 0.580478 0.589538
H61_2 H 0.198530 0.584234 0.595053
N38_2 N 0.1663(2) 0.57825(12) 0.64850(13)
H62_2 H 0.068637 0.560537 0.651513
H64_2 H 0.006928 0.643408 0.935537
H65_2 H 0.047703 0.652230 0.899088
H68_2 H 0.011355 0.555095 0.797850
H70_2 H 0.115264 0.524574 0.708318
N43_2 N 0.2109(2) 0.54296(11) 0.70252(13)
H71_2 H 0.114888 0.575289 0.799110
H72_2 H 0.132340 0.533746 0.784877
H73_2 H 0.258665 0.512348 0.812496
N44_2 N 0.2960(2) 0.53893(12) 0.76615(14)
H74_2 H 0.346062 0.537548 0.860816
N45_2 N 0.3862(3) 0.55889(14) 0.81293(15)
H75_2 H 0.299474 0.624324 0.896605
H76_2 H 0.356661 0.591796 0.907186
N46_2 N 0.3887(3) 0.63681(14) 0.87938(15)
N47_2 N 0.3620(2) 0.63435(11) 0.68005(13)
H77_2 H 0.574484 0.756958 0.873117
N48_2 N 0.5441(2) 0.72723(13) 0.81903(15)
H78_2 H 0.416112 0.740006 0.905343
H79_2 H 0.496955 0.730468 0.917647
N49_2 N 0.4422(3) 0.69156(13) 0.88049(15)
H80_2 H 0.568748 0.811001 0.833861
N50_2 N 0.5320(2) 0.77987(13) 0.78160(15)
H81_2 H 0.470578 0.862733 0.810336
H82_2 H 0.397943 0.852610 0.822370
H83_2 H 0.464613 0.871446 0.734902
N51_2 N 0.4837(2) 0.81717(13) 0.72228(15)
C97_2 C 0.2228(3) 0.98175(13) 0.90976(15)
H84_2 H 0.247985 0.951645 0.862422
H85_2 H 0.232266 0.887120 0.960475
C98_2 C 0.2102(3) 0.94249(14) 0.96772(17)
C102_2 C 0.4585(3) 0.79985(16) 0.68479(18)
C103_2 C 0.2251(3) 0.56127(13) 0.66830(15)
C109_2 C 0.2619(3) 0.52021(14) 0.72926(17)
C110_2 C 0.3656(3) 0.54865(14) 0.77243(18)
C111_2 C 0.4568(3) 0.56890(17) 0.8309(2)
C112_2 C 0.3799(3) 0.67503(16) 0.88247(17)
C113_2 C 0.4590(3) 0.62623(17) 0.87800(18)
C114_2 C 0.4156(3) 0.64294(13) 0.66248(16)
H87_2 H 0.344517 0.611486 0.675504
C115_2 C 0.5424(3) 0.74168(16) 0.78105(18)
C116_2 C 0.5701(3) 0.68965(17) 0.8305(2)
C117_2 C 0.4964(3) 0.66412(16) 0.87768(18)
C118_2 C 0.5451(3) 0.80414(16) 0.74954(18)
C119_2 C 0.2088(3) 0.97832(14) 0.94958(16)
H89_2 H 0.197744 0.939589 0.994027
O36_2 O 0.4864(2) 0.77324(11) 0.66991(13)
O37_2 O 0.28147(18) 0.56154(10) 0.65806(11)
H97_2 H 0.238979 0.497199 0.737186
H98_2 H 0.297242 0.512028 0.713461
O40_2 O 0.4017(2) 0.54752(11) 0.74603(13)
H99_2 H 0.471415 0.554585 0.856989
H100_2 H 0.486989 0.560975 0.811608
N56_2 N 0.4675(3) 0.60849(14) 0.83951(15)
O41_2 O 0.3275(2) 0.69121(12) 0.88715(13)
H101_2 H 0.480088 0.610588 0.902594
C122_2 C 0.4362(2) 0.61195(13) 0.63597(15)
O42_2 O 0.44685(19) 0.67337(10) 0.66716(13)
O43_2 O 0.5496(2) 0.72356(11) 0.75008(13)
H102_2 H 0.590969 0.679265 0.807900
H103_2 H 0.607152 0.691512 0.855615
N57_2 N 0.5186(3) 0.66397(14) 0.83867(15)
H104_2 H 0.536451 0.666389 0.901544
H105_2 H 0.574188 0.790480 0.733018
H106_2 H 0.571709 0.826328 0.762305
C127_2 C 0.5056(3) 0.63041(17) 0.81791(19)
C128_2 C 0.4602(3) 0.62180(14) 0.60069(15)
C129_2 C 0.4309(3) 0.57410(13) 0.64634(16)
O45_2 O 0.4860(2) 0.71893(14) 0.59805(14)
O46_2 O 0.5843(3) 0.64440(15) 0.70566(19)
O47_2 O 0.6821(2) 0.70745(15) 0.72737(17)
O49_2 O 0.5250(2) 0.62134(13) 0.78591(14)
C134_2 C 0.4780(3) 0.59365(13) 0.57515(15)
H114_2 H 0.464481 0.647686 0.593879
C135_2 C 0.4499(3) 0.54590(13) 0.62138(16)
H115_2 H 0.414308 0.567499 0.670614
C137_2 C 0.4724(3) 0.55618(13) 0.58567(16)
C138_2 C 0.5073(3) 0.60242(14) 0.53731(16)
C139_2 C 0.4472(3) 0.50450(15) 0.63039(17)
H119_2 H 0.484179 0.537030 0.568026
N63_2 N 0.4990(3) 0.63746(13) 0.52284(15)
O52_2 O 0.5390(2) 0.57838(11) 0.52176(12)
N64_2 N 0.4303(3) 0.49442(12) 0.66690(14)
O53_2 O 0.4578(3) 0.48081(11) 0.60521(14)
C144_2 C 0.5332(3) 0.65590(17) 0.4942(2)
H122_2 H 0.468156 0.651153 0.532255
C145_2 C 0.4235(3) 0.45713(15) 0.68168(18)
H123_2 H 0.422765 0.513006 0.683238
C149_2 C 0.5707(4) 0.63792(19) 0.4683(2)
C150_2 C 0.5309(4) 0.69483(18) 0.4940(2)
C151_2 C 0.4135(3) 0.42542(14) 0.65626(17)
C152_2 C 0.4246(4) 0.45300(16) 0.72367(19)
H125_2 H 0.573354 0.611089 0.468390
C153_2 C 0.6045(4) 0.65860(19) 0.4422(2)
C154_2 C 0.5650(4) 0.71527(18) 0.4674(2)
H126_2 H 0.506297 0.707827 0.511873
C155_2 C 0.4048(3) 0.39014(14) 0.67344(17)
H127_2 H 0.412616 0.427766 0.627380
C156_2 C 0.4173(4) 0.41801(16) 0.74067(19)
H128_2 H 0.430475 0.474697 0.741050
C159_2 C 0.6021(3) 0.69670(18) 0.4418(2)
H131_2 H 0.629403 0.645698 0.424456
H132_2 H 0.562616 0.742114 0.467006
H133_2 H 0.397062 0.368533 0.655962
C160_2 C 0.4073(3) 0.38606(14) 0.71576(17)
H134_2 H 0.419108 0.415743 0.769642
C165_2 C 0.6397(4) 0.7199(2) 0.4142(2)
C166_2 C 0.4021(3) 0.34788(14) 0.73404(17)
O56_2 O 0.6489(3) 0.75384(16) 0.42382(16)
Sr5 Sr 0.55766(2) 0.71217(2) 0.67381(2)
O61 O 0.6268(2) 0.69404(15) 0.61872(16)
O62 O 0.63999(19) 0.77230(12) 0.67410(13)
O63_2 O 0.6575(2) 0.70359(14) 0.38391(14)
Sr6_2 Sr 0.74414(2) 0.68967(2) 0.33734(2)
H143_2 H 0.49911 0.742787 0.585642
H144_2 H 0.495951 0.697114 0.581127
H145_2 H 0.541959 0.62853 0.698897
H146_2 H 0.621933 0.632603 0.693886
H147_2 H 0.675171 0.711264 0.756186
H148_2 H 0.702715 0.68211 0.724979
H149_2 H 0.176416 0.718847 0.883583
H150_2 H 0.176386 0.676072 0.901377
O10_2 O 0.95119(19) 0.77740(11) 0.68030(12)
O11_2 O 0.99243(18) 0.78764(11) 0.78383(12)
C31_2 C 0.8914(3) 0.78900(16) 0.67016(19)
C32_2 C 0.9379(3) 0.79997(16) 0.79178(19)
N5_2 N 0.8628(2) 0.81594(13) 0.69129(16)
N6_2 N 0.8421(2) 0.77803(14) 0.63626(15)
N7_2 N 0.9180(2) 0.79499(14) 0.82877(15)
N8_2 N 0.8899(2) 0.82042(14) 0.76604(16)
C37_2 C 0.7915(3) 0.82410(17) 0.6713(2)
C38_2 C 0.8991(3) 0.83540(16) 0.7262(2)
C39_2 C 0.8594(3) 0.75870(18) 0.60121(19)
C40_2 C 0.7812(3) 0.80204(17) 0.63111(19)
C41_2 C 0.8511(3) 0.81304(18) 0.8283(2)
C42_2 C 0.9646(3) 0.78115(18) 0.86508(19)
C43_2 C 0.8308(3) 0.83080(17) 0.78529(19)
C51_2 C 0.9856(3) 0.71296(19) 0.87487(18)
C52_2 C 0.9843(4) 0.60425(19) 0.8466(2)
H23_2 H 0.784292 0.851809 0.666020
N13_2 N 0.7395(2) 0.80858(14) 0.69246(16)
H24_2 H 0.884144 0.862184 0.724277
H25_2 H 0.949122 0.834887 0.725417
H26_2 H 0.910130 0.754648 0.606595
H27_2 H 0.847501 0.775384 0.576665
N14_2 N 0.8257(3) 0.72275(17) 0.59123(16)
H28_2 H 0.778026 0.819184 0.606617
N15_2 N 0.7172(2) 0.78243(15) 0.63058(15)
H29_2 H 0.854577 0.832608 0.850551
N16_2 N 0.7956(2) 0.78665(16) 0.82997(17)
H31_2 H 0.965393 0.799520 0.887883
N17_2 N 0.9481(2) 0.74453(16) 0.87923(15)
H32_2 H 0.825627 0.858867 0.786971
N18_2 N 0.7667(2) 0.81300(15) 0.76764(16)
N25_2 N 0.9640(3) 0.68418(16) 0.89725(15)
N26_2 N 0.9664(3) 0.61779(17) 0.88198(18)
N27_2 N 0.9463(3) 0.57251(17) 0.8341(2)
C63_2 C 0.6938(3) 0.78591(17) 0.66641(19)
C64_2 C 0.7227(3) 0.82516(18) 0.7292(2)
C65_2 C 0.8618(3) 0.6899(2) 0.5906(2)
C66_2 C 0.7559(3) 0.7210(2) 0.5639(2)
C67_2 C 0.6779(3) 0.76537(19) 0.5939(2)
C68_2 C 0.7455(3) 0.78777(18) 0.7943(2)
C69_2 C 0.7837(3) 0.7693(2) 0.8672(2)
C70_2 C 0.8957(3) 0.73780(19) 0.90353(18)
C78_2 C 0.9093(3) 0.6968(2) 0.91857(19)
C80_2 C 0.9155(4) 0.5942(2) 0.8954(3)
C81_2 C 0.9053(4) 0.5614(2) 0.8642(3)
C82_2 C 0.9684(4) 0.5456(2) 0.8057(3)
H47_2 H 0.674089 0.818848 0.730126
H48_2 H 0.725960 0.853017 0.727091
N34_2 N 0.8177(3) 0.66373(18) 0.56879(18)
O30_2 O 0.9228(2) 0.68513(14) 0.60576(13)
H49_2 H 0.752362 0.736308 0.538033
C96_2 C 0.7489(3) 0.6779(2) 0.5555(2)
N35_2 N 0.7000(3) 0.72815(18) 0.58559(17)
H50_2 H 0.628707 0.764247 0.596526
H51_2 H 0.680726 0.781775 0.569919
O31_2 O 0.6919(2) 0.77019(13) 0.78739(14)
H52_2 H 0.734214 0.762125 0.863130
H53_2 H 0.792851 0.788165 0.889816
N36_2 N 0.8254(2) 0.73604(16) 0.88006(15)
H54_2 H 0.899964 0.755877 0.927290
H63_2 H 0.924311 0.695412 0.949402
N39_2 N 0.8433(3) 0.67821(18) 0.90436(17)
H66_2 H 0.931707 0.585093 0.924505
N40_2 N 0.8463(3) 0.61114(19) 0.8895(2)
H67_2 H 0.921811 0.536862 0.877883
N41_2 N 0.8320(4) 0.5608(2) 0.8481(2)
H69_2 H 0.979401 0.521158 0.820203
N42_2 N 0.9163(4) 0.5393(2) 0.7682(3)
C99_2 C 0.8392(4) 0.6253(2) 0.5623(3)
H86_2 H 0.730769 0.672404 0.525535
N52_2 N 0.7001(3) 0.66544(19) 0.5815(2)
C100_2 C 0.6722(3) 0.6961(2) 0.5978(2)
C101_2 C 0.7961(3) 0.7013(2) 0.88241(19)
C104_2 C 0.8280(4) 0.6403(2) 0.9160(2)
C105_2 C 0.7983(5) 0.5898(3) 0.8647(3)
C106_2 C 0.7944(5) 0.5299(3) 0.8248(3)
C107_2 C 0.9315(4) 0.5427(2) 0.7287(3)
C108_2 C 0.8581(5) 0.5125(3) 0.7674(3)
H90_2 H 0.815869 0.617179 0.534249
H91_2 H 0.889692 0.625498 0.562889
N53_2 N 0.8256(3) 0.59803(19) 0.5913(2)
C120_2 C 0.6670(4) 0.6305(2) 0.5776(3)
O35_2 O 0.7360(2) 0.69308(16) 0.86682(15)
H92_2 H 0.777750 0.638537 0.915885
H93_2 H 0.853015 0.635598 0.944744
O38_2 O 0.7348(3) 0.59545(19) 0.8575(2)
H94_2 H 0.812133 0.505788 0.838143
H95_2 H 0.745005 0.531967 0.826664
N54_2 N 0.7989(4) 0.5282(2) 0.7821(3)
N55_2 N 0.8828(3) 0.52386(19) 0.7013(3)
O39_2 O 0.9827(3) 0.55815(16) 0.7217(2)
C121_2 C 0.8289(4) 0.5085(2) 0.7206(3)
H96_2 H 0.873609 0.487790 0.780892
C123_2 C 0.8754(4) 0.5768(2) 0.6131(3)
C124_2 C 0.7564(4) 0.5791(2) 0.5866(3)
H107_2 H 0.656680 0.623422 0.547877
H108_2 H 0.622170 0.633135 0.586688
N59_2 N 0.7054(3) 0.6006(2) 0.6006(3)
C125_2 C 0.7479(5) 0.5401(3) 0.7518(4)
C126_2 C 0.8854(4) 0.5204(2) 0.6589(3)
H109_2 H 0.820592 0.481271 0.712917
N60_2 N 0.7646(4) 0.5290(2) 0.7139(3)
N61_2 N 0.8461(3) 0.54870(19) 0.6324(2)
O44_2 O 0.9383(2) 0.58078(15) 0.61581(19)
H111_2 H 0.739751 0.569944 0.557578
C131_2 C 0.7717(4) 0.5464(2) 0.6170(3)
C132_2 C 0.6882(4) 0.5852(3) 0.6341(3)
O48_2 O 0.6933(3) 0.5533(2) 0.7563(3)
H112_2 H 0.867732 0.495039 0.649165
H113_2 H 0.934382 0.521812 0.655878
C133_2 C 0.7135(5) 0.5284(3) 0.6761(3)
H116_2 H 0.758355 0.521579 0.602994
N62_2 N 0.7283(4) 0.5555(2) 0.6461(3)
O51_2 O 0.6410(3) 0.59676(19) 0.6517(2)
H117_2 H 0.667390 0.533959 0.682401
H118_2 H 0.711616 0.502684 0.663863
C89_3 C 0.0345(3) 0.74376(16) 0.34908(18)
C91_3 C 0.0297(3) 0.70669(16) 0.32309(18)
H77_3 H 0.074484 0.743042 0.373117
N48_3 N 0.0441(2) 0.77277(13) 0.31903(15)
H80_3 H 0.068748 0.688999 0.333861
N50_3 N 0.0320(2) 0.72013(13) 0.28160(15)
C115_3 C 0.0424(3) 0.75832(16) 0.28105(18)
C116_3 C 0.0701(3) 0.81035(17) 0.3305(2)
C118_3 C 0.0451(3) 0.69586(16) 0.24954(18)
O43_3 O 0.0496(2) 0.77644(11) 0.25008(13)
H102_3 H 0.090969 0.820735 0.307900
H103_3 H 0.107152 0.808488 0.355615
N57_3 N 0.0186(3) 0.83603(14) 0.33867(15)
H104_3 H 0.036451 0.833611 0.401544
H105_3 H 0.074188 0.709520 0.233018
H106_3 H 0.071709 0.673672 0.262305
C127_3 C 0.0056(3) 0.86959(17) 0.31791(19)
O46_3 O 0.0843(3) 0.85560(15) 0.20566(19)
O47_3 O 0.1821(2) 0.79255(15) 0.22737(17)
O49_3 O 0.0250(2) 0.87866(13) 0.28591(14)
C138_3 C 0.0073(3) 0.89758(14) 0.03731(16)
O52_3 O 0.0390(2) 0.92162(11) 0.02176(12)
H126_3 H 0.006297 0.792173 0.011873
Sr5_2 Sr 0.05766(2) 0.78783(2) 0.17381(2)
O61_2 O 0.1268(2) 0.80596(15) 0.11872(16)
O62_2 O 0.13999(19) 0.72770(12) 0.17410(13)
H145_3 H 0.0419591 0.87147 0.198897
H146_3 H 0.121933 0.867397 0.193886
H147_3 H 0.175171 0.788736 0.256186
H148_3 H 0.202715 0.81789 0.224979
C144_3 C 0.0332(3) 0.84410(17) 0.9942(2)
C149_3 C 0.0707(4) 0.86208(19) 0.9683(2)
C150_3 C 0.0309(4) 0.80517(18) 0.9940(2)
H125_3 H 0.073354 0.888911 0.968390
C153_3 C 0.1045(4) 0.84140(19) 0.9422(2)
C154_3 C 0.0650(4) 0.78473(18) 0.9674(2)
C159_3 C 0.1021(3) 0.80330(18) 0.9418(2)
H131_3 H 0.129403 0.854302 0.924456
H132_3 H 0.062616 0.757886 0.967006
C165_3 C 0.1397(4) 0.7801(2) 0.9142(2)
O56_3 O 0.1489(3) 0.74616(16) 0.92382(16)
H96_3 H 0.373609 0.012210 0.280892
H97_3 H 0.738979 0.002801 0.237186
H109_3 H 0.320592 0.018729 0.212917
H112_3 H 0.367732 0.004961 0.149165
N64_3 N 0.9303(3) 0.00558(12) 0.16690(14)
O53_3 O 0.9578(3) 0.01919(11) 0.10521(14)
C145_3 C 0.9235(3) 0.04287(15) 0.18168(18)
C151_3 C 0.9135(3) 0.07458(14) 0.15626(17)
C152_3 C 0.9246(4) 0.04700(16) 0.22367(19)
C155_3 C 0.9048(3) 0.10986(14) 0.17344(17)
H127_3 H 0.912616 0.072234 0.127380
C156_3 C 0.9173(4) 0.08199(16) 0.24067(19)
H128_3 H 0.930475 0.025303 0.241050
H133_3 H 0.897062 0.131467 0.155962
C160_3 C 0.9073(3) 0.11394(14) 0.21576(17)
H134_3 H 0.919108 0.084257 0.269642
C166_3 C 0.9021(3) 0.15212(14) 0.23404(17)
O64_2 O 0.93631(19) 0.15806(10) 0.27043(11)
O65_2 O 0.86670(18) 0.17782(10) 0.21274(11)
Sr7_2 Sr 0.93162(2) 0.23235(2) 0.26556(2)
Sr1_2 Sr 0.56838(2) 0.73235(2) 0.23444(2)
O10_3 O 0.45119(19) 0.72260(11) 0.18030(12)
O11_3 O 0.49243(18) 0.71236(11) 0.28383(12)
O12_3 O 0.64229(19) 0.70859(11) 0.18729(11)
O13_3 O 0.55695(18) 0.78497(10) 0.18008(11)
O14_3 O 0.65825(19) 0.77711(10) 0.27595(11)
O15_3 O 0.5055(2) 0.79279(11) 0.26097(12)
O16_2 O 0.56369(19) 0.65806(10) 0.22957(11)
O17_2 O 0.63330(18) 0.67782(10) 0.28726(11)
C31_3 C 0.3914(3) 0.71100(16) 0.17016(19)
C32_3 C 0.4379(3) 0.70003(16) 0.29178(19)
C33_3 C 0.6689(3) 0.70624(15) 0.15683(17)
C34_3 C 0.5709(3) 0.79993(14) 0.14918(16)
Sr2_3 Sr 0.60311(3) 0.82787(2) 0.31345(2)
C35_3 C 0.7227(3) 0.77260(14) 0.27984(17)
N5_3 N 0.3628(2) 0.68406(13) 0.19129(16)
N6_3 N 0.3421(2) 0.72197(14) 0.13626(15)
N7_3 N 0.4180(2) 0.70501(14) 0.32877(15)
N8_3 N 0.3899(2) 0.67958(14) 0.26604(16)
N9_3 N 0.7282(2) 0.68666(12) 0.15529(13)
N10_3 N 0.6441(2) 0.72138(12) 0.11906(13)
N11_3 N 0.5850(2) 0.78144(12) 0.11516(13)
N12_3 N 0.5746(2) 0.83795(11) 0.14272(13)
O18_3 O 0.5313(2) 0.78991(12) 0.35490(13)
O19_3 O 0.5275(2) 0.88167(12) 0.32919(14)
O20_3 O 0.5877(2) 0.86872(10) 0.25258(11)
O21_3 O 0.7003(2) 0.87770(11) 0.33663(12)
O22_3 O 0.6844(3) 0.80818(15) 0.37777(16)
C36_3 C 0.7607(3) 0.79722(14) 0.25416(16)
O23_3 O 0.7575(2) 0.74934(12) 0.30444(13)
O24_3 O 0.8745(2) 0.70570(11) 0.36104(12)
O25_3 O 0.79015(19) 0.66725(11) 0.27219(12)
O26_3 O 0.7728(2) 0.65052(10) 0.40718(11)
O27_3 O 0.7758(2) 0.61724(10) 0.35088(11)
C37_3 C 0.2915(3) 0.67590(17) 0.1713(2)
C38_3 C 0.3991(3) 0.66460(16) 0.2262(2)
C39_3 C 0.3594(3) 0.74130(18) 0.10121(19)
C40_3 C 0.2812(3) 0.69796(17) 0.13111(19)
C41_3 C 0.3511(3) 0.68696(18) 0.3283(2)
C42_3 C 0.4646(3) 0.71885(18) 0.36508(19)
C43_3 C 0.3308(3) 0.66920(17) 0.28529(19)
C44_3 C 0.7505(3) 0.65591(15) 0.18412(17)
C45_3 C 0.7435(3) 0.68735(15) 0.11332(16)
C46_3 C 0.6903(3) 0.71580(14) 0.09073(16)
C47_3 C 0.5797(3) 0.74130(14) 0.10986(17)
C48_3 C 0.6016(3) 0.80744(14) 0.08443(16)
C49_3 C 0.5880(3) 0.84653(14) 0.10192(16)
C50_3 C 0.5418(3) 0.86411(15) 0.16566(17)
C51_3 C 0.4856(3) 0.78704(19) 0.37487(18)
C52_3 C 0.4843(4) 0.89575(19) 0.3466(2)
C53_3 C 0.6024(3) 0.89358(14) 0.22942(17)
C54_3 C 0.7365(3) 0.90493(15) 0.33113(17)
C55_3 C 0.8329(3) 0.79563(17) 0.25978(19)
C56_3 C 0.7242(3) 0.82106(15) 0.22500(17)
C57_3 C 0.9294(3) 0.71315(15) 0.35093(17)
C58_3 C 0.8327(3) 0.66365(14) 0.25063(17)
C59_3 C 0.7660(3) 0.61985(14) 0.38773(16)
H23_3 H 0.284292 0.648191 0.166020
N13_3 N 0.2395(2) 0.69142(14) 0.19246(16)
H24_3 H 0.384144 0.637816 0.224277
H25_3 H 0.449122 0.665113 0.225417
H26_3 H 0.410130 0.745352 0.106595
H27_3 H 0.347501 0.724616 0.076665
N14_3 N 0.3257(3) 0.77725(17) 0.09123(16)
H28_3 H 0.278026 0.680816 0.106617
N15_3 N 0.2172(2) 0.71757(15) 0.13058(15)
H29_3 H 0.354577 0.667392 0.350551
N16_3 N 0.2956(2) 0.71335(16) 0.32997(17)
H30_3 H 0.511923 0.719822 0.359042
H31_3 H 0.465393 0.700480 0.387883
N17_3 N 0.4481(2) 0.75547(16) 0.37923(15)
H32_3 H 0.325627 0.641133 0.286971
N18_3 N 0.2667(2) 0.68700(15) 0.26764(16)
H33_3 H 0.748499 0.631974 0.168305
H34_3 H 0.717512 0.653720 0.203174
N19_3 N 0.8193(2) 0.66047(12) 0.20832(14)
H35_3 H 0.737872 0.661835 0.099953
N20_3 N 0.8084(2) 0.70417(13) 0.11088(14)
H36_3 H 0.665573 0.706087 0.063213
N21_3 N 0.7334(2) 0.74871(12) 0.08660(13)
H37_3 H 0.557195 0.735873 0.080783
H38_3 H 0.549056 0.731351 0.127899
H39_3 H 0.571802 0.803017 0.056482
N22_3 N 0.6741(2) 0.80906(12) 0.08246(13)
H40_3 H 0.547422 0.859362 0.084166
N23_3 N 0.6513(2) 0.86699(11) 0.10219(13)
H41_3 H 0.504365 0.877333 0.146383
H42_3 H 0.520362 0.849973 0.185853
N24_3 N 0.5892(2) 0.89190(11) 0.18768(13)
N25_3 N 0.4640(3) 0.81582(16) 0.39725(15)
N26_3 N 0.4664(3) 0.88221(17) 0.38198(18)
N27_3 N 0.4463(3) 0.92749(17) 0.3341(2)
N28_3 N 0.6348(2) 0.92674(12) 0.24224(13)
N29_3 N 0.7156(3) 0.93504(13) 0.30604(14)
N30_3 N 0.8040(3) 0.90970(13) 0.34867(14)
C60_3 C 0.8675(3) 0.81820(17) 0.23554(19)
H43_3 H 0.858454 0.779206 0.280072
C61_3 C 0.7585(3) 0.84319(16) 0.20088(18)
H44_3 H 0.675224 0.822371 0.221341
N31_3 N 0.9694(2) 0.74479(13) 0.36267(14)
N32_3 N 0.9632(2) 0.69108(13) 0.32727(15)
N33_3 N 0.9029(2) 0.66086(13) 0.26412(14)
C62_3 C 0.7450(3) 0.58585(13) 0.40903(15)
C63_3 C 0.1938(3) 0.71409(17) 0.16641(19)
C64_3 C 0.2227(3) 0.67484(18) 0.2292(2)
C65_3 C 0.3618(3) 0.8101(2) 0.0906(2)
C66_3 C 0.2559(3) 0.7790(2) 0.0639(2)
C67_3 C 0.1779(3) 0.73463(19) 0.0939(2)
C68_3 C 0.2455(3) 0.71223(18) 0.2943(2)
C69_3 C 0.2837(3) 0.7307(2) 0.3672(2)
C70_3 C 0.3957(3) 0.76220(19) 0.40353(18)
C71_3 C 0.8812(3) 0.65223(15) 0.19210(17)
C72_3 C 0.8736(3) 0.68524(17) 0.12202(17)
C73_3 C 0.8019(3) 0.74097(15) 0.09772(16)
C74_3 C 0.7088(3) 0.78165(15) 0.06161(16)
C75_3 C 0.7019(3) 0.84498(14) 0.09158(15)
C76_3 C 0.6580(3) 0.90762(14) 0.10653(16)
C77_3 C 0.6091(3) 0.92675(14) 0.16950(16)
C78_3 C 0.4093(3) 0.8032(2) 0.41857(19)
C79_3 C 0.5010(4) 0.8508(2) 0.4056(2)
C80_3 C 0.4155(4) 0.9058(2) 0.3954(3)
C81_3 C 0.4053(4) 0.9386(2) 0.3642(3)
C82_3 C 0.4684(4) 0.9544(2) 0.3057(3)
C83_3 C 0.6408(3) 0.95105(14) 0.20761(16)
C84_3 C 0.6456(3) 0.93927(15) 0.28440(16)
C85_3 C 0.7709(3) 0.96151(15) 0.30484(16)
C86_3 C 0.8319(3) 0.94517(16) 0.33656(18)
C87_3 C 0.8358(3) 0.88961(17) 0.38584(18)
C88_3 C 0.8304(3) 0.84128(13) 0.20555(16)
H45_3 H 0.916591 0.817610 0.239777
H46_3 H 0.732844 0.859876 0.180925
C90_3 C 0.9563(3) 0.76968(16) 0.39452(18)
C92_3 C 0.9338(3) 0.65671(15) 0.30752(17)
C93_3 C 0.9394(3) 0.65325(14) 0.23070(17)
C94_3 C 0.7397(3) 0.55044(14) 0.38984(15)
C95_3 C 0.7296(3) 0.58884(15) 0.44734(16)
H47_3 H 0.174089 0.681152 0.230126
H48_3 H 0.225960 0.646983 0.227091
N34_3 N 0.3177(3) 0.83627(18) 0.06879(18)
O30_3 O 0.4228(2) 0.81487(14) 0.10576(13)
H49_3 H 0.252362 0.763692 0.038033
C96_3 C 0.2489(3) 0.8221(2) 0.0555(2)
N35_3 N 0.2000(3) 0.77185(18) 0.08559(17)
H50_3 H 0.128707 0.735753 0.096526
H51_3 H 0.180726 0.718225 0.069919
O31_3 O 0.1919(2) 0.72981(13) 0.28739(14)
H52_3 H 0.234214 0.737875 0.363130
H53_3 H 0.292851 0.711835 0.389816
N36_3 N 0.3254(2) 0.76396(16) 0.38006(15)
H54_3 H 0.399964 0.744123 0.427290
H55_3 H 0.878145 0.627093 0.177911
N37_3 N 0.9003(2) 0.68239(13) 0.16605(15)
H56_3 H 0.868703 0.659403 0.110194
H57_3 H 0.907987 0.698812 0.109161
O32_3 O 0.8490(2) 0.76268(12) 0.09544(12)
H58_3 H 0.676586 0.773165 0.036228
H59_3 H 0.748754 0.793982 0.052915
O33_3 O 0.7600(2) 0.85470(10) 0.08932(12)
H60_3 H 0.616409 0.919522 0.089538
H61_3 H 0.698530 0.915766 0.095053
N38_3 N 0.6663(2) 0.92175(12) 0.14850(13)
H62_3 H 0.568637 0.939463 0.151513
H63_3 H 0.424311 0.804588 0.449402
N39_3 N 0.3433(3) 0.82179(18) 0.40436(17)
H64_3 H 0.506928 0.856592 0.435537
H65_3 H 0.547703 0.847770 0.399088
H66_3 H 0.431707 0.914907 0.424505
N40_3 N 0.3463(3) 0.88886(19) 0.3895(2)
H67_3 H 0.421811 0.963138 0.377883
N41_3 N 0.3320(4) 0.9392(2) 0.3481(2)
H68_3 H 0.511355 0.944905 0.297850
H69_3 H 0.479401 0.978842 0.320203
N42_3 N 0.4163(4) 0.9607(2) 0.2682(3)
H70_3 H 0.615264 0.975426 0.208318
N43_3 N 0.7109(2) 0.95704(11) 0.20252(13)
H71_3 H 0.614888 0.924711 0.299110
H72_3 H 0.632340 0.966254 0.284877
H73_3 H 0.758665 0.987652 0.312496
N44_3 N 0.7960(2) 0.96107(12) 0.26615(14)
H74_3 H 0.846062 0.962452 0.360816
N45_3 N 0.8862(3) 0.94111(14) 0.31293(15)
H75_3 H 0.799474 0.875676 0.396605
H76_3 H 0.856661 0.908204 0.407186
N46_3 N 0.8887(3) 0.86319(14) 0.37938(15)
N47_3 N 0.8620(2) 0.86565(11) 0.18005(13)
H78_3 H 0.916112 0.759994 0.405343
H79_3 H 0.996955 0.769532 0.417647
N49_3 N 0.9422(3) 0.80844(13) 0.38049(15)
H81_3 H 0.970578 0.637267 0.310336
H82_3 H 0.897943 0.647390 0.322370
H83_3 H 0.964613 0.628554 0.234902
N51_3 N 0.9837(2) 0.68283(13) 0.22228(15)
C97_3 C 0.7228(3) 0.51825(13) 0.40976(15)
H84_3 H 0.747985 0.548355 0.362422
H85_3 H 0.732266 0.612880 0.460475
C98_3 C 0.7102(3) 0.55751(14) 0.46772(17)
C99_3 C 0.3392(4) 0.8747(2) 0.0623(3)
H86_3 H 0.230769 0.827596 0.025535
N52_3 N 0.2001(3) 0.83456(19) 0.0815(2)
C100_3 C 0.1722(3) 0.8039(2) 0.0978(2)
C101_3 C 0.2961(3) 0.7987(2) 0.38241(19)
C102_3 C 0.9585(3) 0.70015(16) 0.18479(18)
C103_3 C 0.7251(3) 0.93873(13) 0.16830(15)
C104_3 C 0.3280(4) 0.8597(2) 0.4160(2)
C105_3 C 0.2983(5) 0.9102(3) 0.3647(3)
C106_3 C 0.2944(5) 0.9701(3) 0.3248(3)
C107_3 C 0.4315(4) 0.9573(2) 0.2287(3)
C108_3 C 0.3581(5) 0.9875(3) 0.2674(3)
C109_3 C 0.7619(3) 0.97979(14) 0.22926(17)
C110_3 C 0.8656(3) 0.95135(14) 0.27243(18)
C111_3 C 0.9568(3) 0.93110(17) 0.3309(2)
C112_3 C 0.8799(3) 0.82497(16) 0.38247(17)
C113_3 C 0.9590(3) 0.87377(17) 0.37800(18)
C114_3 C 0.9156(3) 0.85706(13) 0.16248(16)
H87_3 H 0.844517 0.888514 0.175504
C117_3 C 0.9964(3) 0.83588(16) 0.37768(18)
H88_2 H 0.720695 0.494272 0.396542
C119_3 C 0.7088(3) 0.52168(14) 0.44958(16)
H89_3 H 0.697744 0.560411 0.494027
H90_3 H 0.315869 0.882821 0.034249
H91_3 H 0.389692 0.874502 0.062889
N53_3 N 0.3256(3) 0.90197(19) 0.0913(2)
C120_3 C 0.1670(4) 0.8695(2) 0.0776(3)
O35_3 O 0.2360(2) 0.80692(16) 0.36682(15)
O36_3 O 0.9864(2) 0.72676(11) 0.16991(13)
O37_3 O 0.78147(18) 0.93846(10) 0.15806(11)
H92_3 H 0.277750 0.861463 0.415885
H93_3 H 0.353015 0.864402 0.444744
O38_3 O 0.2348(3) 0.90455(19) 0.3575(2)
H94_3 H 0.312133 0.994212 0.338143
H95_3 H 0.245005 0.968033 0.326664
N54_3 N 0.2989(4) 0.9718(2) 0.2821(3)
N55_3 N 0.3828(3) 0.97614(19) 0.2013(3)
O39_3 O 0.4827(3) 0.94185(16) 0.2217(2)
C121_3 C 0.3289(4) 0.9915(2) 0.2206(3)
H98_3 H 0.797242 0.987972 0.213461
O40_3 O 0.9017(2) 0.95248(11) 0.24603(13)
H99_3 H 0.971415 0.945415 0.356989
H100_3 H 0.986989 0.939025 0.311608
N56_3 N 0.9675(3) 0.89151(14) 0.33951(15)
O41_3 O 0.8275(2) 0.80879(12) 0.38715(13)
H101_3 H 0.980088 0.889412 0.402594
C122_3 C 0.9362(2) 0.88805(13) 0.13597(15)
O42_3 O 0.94685(19) 0.82663(10) 0.16716(13)
N58_2 N 0.6935(2) 0.49143(11) 0.47317(13)
C123_3 C 0.3754(4) 0.9232(2) 0.1131(3)
C124_3 C 0.2564(4) 0.9209(2) 0.0866(3)
H107_3 H 0.156680 0.876578 0.047877
H108_3 H 0.122170 0.866865 0.086688
N59_3 N 0.2054(3) 0.8994(2) 0.1006(3)
C125_3 C 0.2479(5) 0.9599(3) 0.2518(4)
C126_3 C 0.3854(4) 0.9796(2) 0.1589(3)
N60_3 N 0.2646(4) 0.9710(2) 0.2139(3)
C128_3 C 0.9602(3) 0.87820(14) 0.10069(15)
C129_3 C 0.9309(3) 0.92590(13) 0.14634(16)
C130_2 C 0.7130(3) 0.45552(14) 0.46921(16)
H110_2 H 0.669041 0.496213 0.492265
N61_3 N 0.3461(3) 0.95130(19) 0.1324(2)
O44_3 O 0.4383(2) 0.91922(15) 0.11581(19)
H111_3 H 0.239751 0.930056 0.057578
C131_3 C 0.2717(4) 0.9536(2) 0.1170(3)
C132_3 C 0.1882(4) 0.9148(3) 0.1341(3)
O45_3 O 0.9860(2) 0.78107(14) 0.09805(14)
O48_3 O 0.1933(3) 0.9467(2) 0.2563(3)
H113_3 H 0.434382 0.978188 0.155878
C133_3 C 0.2135(5) 0.9716(3) 0.1761(3)
C134_3 C 0.9780(3) 0.90635(13) 0.07515(15)
H114_3 H 0.964481 0.852314 0.093879
C135_3 C 0.9499(3) 0.95410(13) 0.12138(16)
H115_3 H 0.914308 0.932501 0.170614
C136_2 C 0.7042(3) 0.42870(14) 0.50291(16)
O50_2 O 0.7383(3) 0.44457(12) 0.44079(14)
H116_3 H 0.258355 0.978421 0.102994
N62_3 N 0.2283(4) 0.9445(2) 0.1461(3)
O51_3 O 0.1410(3) 0.90324(19) 0.1517(2)
H117_3 H 0.167390 0.966041 0.182401
H118_3 H 0.211616 0.997316 0.163863
C137_3 C 0.9724(3) 0.94382(13) 0.08567(16)
C139_3 C 0.9472(3) 0.99550(15) 0.13039(17)
C140_2 C 0.7157(3) 0.43987(14) 0.54410(16)
C141_2 C 0.6908(3) 0.39118(14) 0.49282(16)
H119_3 H 0.984179 0.962970 0.068026
N63_3 N 0.9990(3) 0.86254(13) 0.02284(15)
H120_2 H 0.726095 0.465567 0.551208
C142_2 C 0.7122(3) 0.41362(15) 0.57497(16)
H121_2 H 0.683790 0.383356 0.464666
C143_2 C 0.6876(3) 0.36496(14) 0.52353(16)
H122_3 H 0.968156 0.848847 0.032255
H123_3 H 0.922765 0.986994 0.183238
C146_2 C 0.6982(3) 0.37630(15) 0.56443(17)
C147_2 C 0.7244(3) 0.42760(15) 0.61879(17)
C148_2 C 0.6713(3) 0.32431(14) 0.51021(17)
H124_2 H 0.695781 0.358241 0.585494
N65_2 N 0.6773(4) 0.41433(18) 0.64109(19)
O54_2 O 0.7602(4) 0.45256(16) 0.63036(15)
N66_2 N 0.7165(3) 0.29864(12) 0.53090(14)
O55_2 O 0.6232(2) 0.31679(11) 0.48200(14)
C157_2 C 0.6840(5) 0.4233(2) 0.6839(2)
H129_2 H 0.642505 0.400143 0.628767
C158_2 C 0.7170(4) 0.25928(15) 0.52222(18)
H130_2 H 0.748359 0.307107 0.551511
C161_2 C 0.7468(5) 0.4212(2) 0.7105(2)
C162_2 C 0.6241(6) 0.4326(3) 0.6991(3)
C163_2 C 0.6605(4) 0.24040(16) 0.49840(18)
C164_2 C 0.7768(4) 0.23972(18) 0.5384(2)
H135_2 H 0.786507 0.415099 0.699430
C167_2 C 0.7555(6) 0.4277(2) 0.7534(3)
C168_2 C 0.6357(6) 0.4391(3) 0.7435(3)
H136_2 H 0.579616 0.434609 0.681611
H137_2 H 0.618374 0.253308 0.488012
C169_2 C 0.6679(5) 0.20175(18) 0.4902(2)
H138_2 H 0.814349 0.252259 0.555771
C170_2 C 0.7821(5) 0.20125(19) 0.5291(2)
H139_2 H 0.800284 0.427064 0.770571
C171_2 C 0.7008(6) 0.4347(3) 0.7691(3)
H140_2 H 0.597694 0.446486 0.755504
H141_2 H 0.629928 0.188614 0.474010
C172_2 C 0.7283(5) 0.18229(18) 0.5050(2)
H142_2 H 0.823891 0.188106 0.539745
C173_2 C 0.7113(8) 0.4382(3) 0.8156(3)
C174_2 C 0.7345(6) 0.1413(2) 0.4939(3)
O57_2 O 0.7775(6) 0.4325(3) 0.8390(2)
O58_2 O 0.6635(6) 0.4477(3) 0.8307(3)
O59_2 O 0.7912(5) 0.12440(18) 0.5132(3)
O60_2 O 0.6844(5) 0.12605(18) 0.4715(2)
H143_3 H 0.99911 0.757213 0.085642
H144_3 H 0.995951 0.802886 0.0811272
H149_3 H 0.676416 0.781153 0.383583
H150_3 H 0.676386 0.823928 0.401377
O10_4 O 0.04881(19) 0.22260(11) 0.31970(12)
O11_4 O 0.00757(18) 0.21236(11) 0.21617(12)
C31_4 C 0.1086(3) 0.21100(16) 0.32984(19)
C32_4 C 0.0621(3) 0.20003(16) 0.20822(19)
N5_4 N 0.1372(2) 0.18406(13) 0.30871(16)
N6_4 N 0.1579(2) 0.22197(14) 0.36374(15)
N7_4 N 0.0820(2) 0.20501(14) 0.17123(15)
N8_4 N 0.1101(2) 0.17958(14) 0.23396(16)
C37_4 C 0.2085(3) 0.17590(17) 0.3287(2)
C38_4 C 0.1009(3) 0.16460(16) 0.2738(2)
C39_4 C 0.1406(3) 0.24130(18) 0.39879(19)
C40_4 C 0.2188(3) 0.19796(17) 0.36889(19)
C41_4 C 0.1489(3) 0.18696(18) 0.1717(2)
C42_4 C 0.0354(3) 0.21885(18) 0.13492(19)
C43_4 C 0.1692(3) 0.16920(17) 0.21471(19)
C51_4 C 0.0144(3) 0.28704(19) 0.12513(18)
C52_4 C 0.0157(4) 0.39575(19) 0.1534(2)
H23_4 H 0.215708 0.148191 0.333980
N13_4 N 0.2605(2) 0.19142(14) 0.30754(16)
H24_4 H 0.115856 0.137816 0.275723
H25_4 H 0.050878 0.165113 0.274583
H26_4 H 0.089870 0.245352 0.393405
H27_4 H 0.152499 0.224616 0.423335
N14_4 N 0.1743(3) 0.27725(17) 0.40877(16)
H28_4 H 0.221974 0.180816 0.393383
N15_4 N 0.2828(2) 0.21757(15) 0.36942(15)
H29_4 H 0.145423 0.167392 0.149449
N16_4 N 0.2044(2) 0.21335(16) 0.17003(17)
H31_4 H 0.034607 0.200480 0.112117
N17_4 N 0.0519(2) 0.25547(16) 0.12077(15)
H32_4 H 0.174373 0.141133 0.213029
N18_4 N 0.2333(2) 0.18700(15) 0.23236(16)
N25_4 N 0.0360(3) 0.31582(16) 0.10275(15)
N26_4 N 0.0336(3) 0.38221(17) 0.11802(18)
N27_4 N 0.0537(3) 0.42749(17) 0.1659(2)
C63_4 C 0.3062(3) 0.21409(17) 0.33359(19)
C64_4 C 0.2773(3) 0.17484(18) 0.2708(2)
C65_4 C 0.1382(3) 0.3101(2) 0.4094(2)
C66_4 C 0.2441(3) 0.2790(2) 0.4361(2)
C67_4 C 0.3221(3) 0.23463(19) 0.4061(2)
C68_4 C 0.2545(3) 0.21223(18) 0.2057(2)
C69_4 C 0.2163(3) 0.2307(2) 0.1328(2)
C70_4 C 0.1043(3) 0.26220(19) 0.09647(18)
C78_4 C 0.0907(3) 0.3032(2) 0.08143(19)
C80_4 C 0.0845(4) 0.4058(2) 0.1046(3)
C81_4 C 0.0947(4) 0.4386(2) 0.1358(3)
C82_4 C 0.0316(4) 0.4544(2) 0.1943(3)
O29_2 O 0.36001(19) 0.22770(12) 0.32590(13)
H47_4 H 0.325911 0.181152 0.269874
H48_4 H 0.274040 0.146983 0.272909
N34_4 N 0.1823(3) 0.33627(18) 0.43121(18)
O30_4 O 0.0772(2) 0.31487(14) 0.39424(13)
H49_4 H 0.247638 0.263692 0.461967
C96_4 C 0.2511(3) 0.3221(2) 0.4445(2)
N35_4 N 0.3000(3) 0.27185(18) 0.41441(17)
H50_4 H 0.371293 0.235753 0.403474
H51_4 H 0.319274 0.218225 0.430081
O31_4 O 0.3081(2) 0.22981(13) 0.21261(14)
H52_4 H 0.265786 0.237875 0.136870
H53_4 H 0.207149 0.211835 0.110184
N36_4 N 0.1746(2) 0.26396(16) 0.11994(15)
H54_4 H 0.100036 0.244123 0.072710
H63_4 H 0.075689 0.304588 0.050598
N39_4 N 0.1567(3) 0.32179(18) 0.09564(17)
H66_4 H 0.068293 0.414907 0.075495
N40_4 N 0.1537(3) 0.38886(19) 0.1105(2)
H67_4 H 0.078189 0.463138 0.122117
N41_4 N 0.1680(4) 0.4392(2) 0.1519(2)
H69_4 H 0.020599 0.478842 0.179797
N42_4 N 0.0837(4) 0.4607(2) 0.2318(3)
Sr4_2 Sr 0.44234(2) 0.28783(2) 0.32619(2)
C99_4 C 0.1608(4) 0.3747(2) 0.4377(3)
H86_4 H 0.269231 0.327596 0.474465
N52_4 N 0.2999(3) 0.33456(19) 0.4185(2)
C100_4 C 0.3278(3) 0.3039(2) 0.4022(2)
C101_4 C 0.2039(3) 0.2987(2) 0.11759(19)
C104_4 C 0.1720(4) 0.3597(2) 0.0840(2)
C105_4 C 0.2017(5) 0.4102(3) 0.1353(3)
C106_4 C 0.2056(5) 0.4701(3) 0.1752(3)
C107_4 C 0.0685(4) 0.4573(2) 0.2713(3)
C108_4 C 0.1419(5) 0.4875(3) 0.2326(3)
O34_2 O 0.3732(2) 0.30596(15) 0.38128(16)
H90_4 H 0.184131 0.382821 0.465751
H91_4 H 0.110308 0.374502 0.437111
N53_4 N 0.1744(3) 0.40197(19) 0.4087(2)
C120_4 C 0.3330(4) 0.3695(2) 0.4224(3)
O35_4 O 0.2640(2) 0.30692(16) 0.13318(15)
H92_4 H 0.222250 0.361463 0.084115
H93_4 H 0.146985 0.364402 0.055256
O38_4 O 0.2652(3) 0.40455(19) 0.1425(2)
H94_4 H 0.187867 0.494212 0.161857
H95_4 H 0.254995 0.468033 0.173336
N54_4 N 0.2011(4) 0.4718(2) 0.2179(3)
N55_4 N 0.1172(3) 0.47614(19) 0.2987(3)
O39_4 O 0.0173(3) 0.44185(16) 0.2783(2)
C121_4 C 0.1711(4) 0.4915(2) 0.2794(3)
H96_4 H 0.126391 0.512210 0.219108
C123_4 C 0.1246(4) 0.4232(2) 0.3869(3)
C124_4 C 0.2436(4) 0.4209(2) 0.4134(3)
H107_4 H 0.343320 0.376578 0.452123
H108_4 H 0.377830 0.366865 0.413312
N59_4 N 0.2946(3) 0.3994(2) 0.3994(3)
C125_4 C 0.2521(5) 0.4599(3) 0.2482(4)
C126_4 C 0.1146(4) 0.4796(2) 0.3411(3)
H109_4 H 0.179408 0.518729 0.287083
N60_4 N 0.2354(4) 0.4710(2) 0.2861(3)
N61_4 N 0.1539(3) 0.45130(19) 0.3676(2)
O44_4 O 0.0617(2) 0.41922(15) 0.38419(19)
H111_4 H 0.260249 0.430056 0.442422
C131_4 C 0.2283(4) 0.4536(2) 0.3830(3)
C132_4 C 0.3118(4) 0.4148(3) 0.3659(3)
O48_4 O 0.3067(3) 0.4467(2) 0.2437(3)
H112_4 H 0.132268 0.504961 0.350835
H113_4 H 0.065618 0.478188 0.344122
C133_4 C 0.2865(5) 0.4716(3) 0.3239(3)
H116_4 H 0.241645 0.478421 0.397006
N62_4 N 0.2717(4) 0.4445(2) 0.3539(3)
O51_4 O 0.3590(3) 0.40324(19) 0.3483(2)
H117_4 H 0.332610 0.466041 0.317599
H118_4 H 0.288384 0.497316 0.336137
O12_4 O 0.85771(19) 0.20859(11) 0.31271(11)
O13_4 O 0.94305(18) 0.28497(10) 0.31992(11)
O14_4 O 0.84175(19) 0.27711(10) 0.22405(11)
O15_4 O 0.9945(2) 0.29279(11) 0.23903(12)
C33_4 C 0.8311(3) 0.20624(15) 0.34317(17)
C34_4 C 0.9291(3) 0.29993(14) 0.35082(16)
Sr2_4 Sr 0.89689(3) 0.32787(2) 0.18655(2)
C35_4 C 0.7773(3) 0.27260(14) 0.22016(17)
N9_4 N 0.7718(2) 0.18666(12) 0.34471(13)
N10_4 N 0.8559(2) 0.22138(12) 0.38094(13)
N11_4 N 0.9150(2) 0.28144(12) 0.38484(13)
N12_4 N 0.9254(2) 0.33795(11) 0.35728(13)
O18_4 O 0.9687(2) 0.28991(12) 0.14510(13)
O19_4 O 0.9725(2) 0.38167(12) 0.17081(14)
O20_4 O 0.9123(2) 0.36872(10) 0.24742(11)
O21_4 O 0.7997(2) 0.37770(11) 0.16337(12)
O22_4 O 0.8156(3) 0.30818(15) 0.12223(16)
C36_4 C 0.7393(3) 0.29722(14) 0.24584(16)
O23_4 O 0.7425(2) 0.24934(12) 0.19556(13)
O24_4 O 0.6255(2) 0.20570(11) 0.13896(12)
O25_4 O 0.70985(19) 0.16725(11) 0.22781(12)
O26_4 O 0.7272(2) 0.15052(10) 0.09282(11)
O27_4 O 0.7242(2) 0.11724(10) 0.14912(11)
C44_4 C 0.7495(3) 0.15591(15) 0.31588(17)
C45_4 C 0.7565(3) 0.18735(15) 0.38668(16)
C46_4 C 0.8097(3) 0.21580(14) 0.40927(16)
C47_4 C 0.9203(3) 0.24130(14) 0.39014(17)
C48_4 C 0.8984(3) 0.30744(14) 0.41557(16)
C49_4 C 0.9120(3) 0.34653(14) 0.39808(16)
C50_4 C 0.9582(3) 0.36411(15) 0.33434(17)
C53_4 C 0.8976(3) 0.39358(14) 0.27058(17)
C54_4 C 0.7635(3) 0.40493(15) 0.16887(17)
C55_4 C 0.6671(3) 0.29563(17) 0.24022(19)
C56_4 C 0.7758(3) 0.32106(15) 0.27500(17)
C57_4 C 0.5706(3) 0.21315(15) 0.14907(17)
C58_4 C 0.6673(3) 0.16365(14) 0.24937(17)
C59_4 C 0.7340(3) 0.11985(14) 0.11227(16)
H30_4 H 0.988077 0.219822 0.140958
H33_4 H 0.751501 0.131974 0.331695
H34_4 H 0.782488 0.153720 0.296826
N19_4 N 0.6807(2) 0.16047(12) 0.29168(14)
H35_4 H 0.762128 0.161835 0.400047
N20_4 N 0.6916(2) 0.20417(13) 0.38912(14)
H36_4 H 0.834427 0.206087 0.436787
N21_4 N 0.7666(2) 0.24871(12) 0.41340(13)
H37_4 H 0.942805 0.235873 0.419217
H38_4 H 0.950944 0.231351 0.372101
H39_4 H 0.928198 0.303017 0.443518
N22_4 N 0.8259(2) 0.30906(12) 0.41754(13)
H40_4 H 0.952578 0.359362 0.415834
N23_4 N 0.8487(2) 0.36699(11) 0.39781(13)
H41_4 H 0.995635 0.377333 0.353617
H42_4 H 0.979638 0.349973 0.314147
N24_4 N 0.9108(2) 0.39190(11) 0.31232(13)
N28_4 N 0.8652(2) 0.42674(12) 0.25776(13)
N29_4 N 0.7844(3) 0.43504(13) 0.19396(14)
N30_4 N 0.6960(3) 0.40970(13) 0.15133(14)
C60_4 C 0.6325(3) 0.31820(17) 0.26446(19)
H43_4 H 0.641546 0.279206 0.219928
C61_4 C 0.7415(3) 0.34319(16) 0.29912(18)
H44_4 H 0.824776 0.322371 0.278659
N31_4 N 0.5306(2) 0.24479(13) 0.13733(14)
N32_4 N 0.5368(2) 0.19108(13) 0.17273(15)
N33_4 N 0.5971(2) 0.16086(13) 0.23588(14)
C62_4 C 0.7550(3) 0.08585(13) 0.09097(15)
C71_4 C 0.6188(3) 0.15223(15) 0.30790(17)
C72_4 C 0.6264(3) 0.18524(17) 0.37798(17)
C73_4 C 0.6981(3) 0.24097(15) 0.40228(16)
C74_4 C 0.7912(3) 0.28165(15) 0.43839(16)
C75_4 C 0.7981(3) 0.34498(14) 0.40842(15)
C76_4 C 0.8420(3) 0.40762(14) 0.39347(16)
C77_4 C 0.8909(3) 0.42675(14) 0.33050(16)
C79_4 C 0.9990(4) 0.3508(2) 0.0944(2)
C83_4 C 0.8592(3) 0.45105(14) 0.29239(16)
C84_4 C 0.8544(3) 0.43927(15) 0.21560(16)
C85_4 C 0.7291(3) 0.46151(15) 0.19516(16)
C86_4 C 0.6681(3) 0.44517(16) 0.16344(18)
C87_4 C 0.6642(3) 0.38961(17) 0.11416(18)
C88_4 C 0.6696(3) 0.34128(13) 0.29445(16)
H45_4 H 0.583409 0.317610 0.260223
H46_4 H 0.767156 0.359876 0.319075
C89_4 C 0.4655(3) 0.24376(16) 0.15092(18)
C90_4 C 0.5437(3) 0.26968(16) 0.10548(18)
C91_4 C 0.4703(3) 0.20669(16) 0.17691(18)
C92_4 C 0.5662(3) 0.15671(15) 0.19248(17)
C93_4 C 0.5606(3) 0.15325(14) 0.26930(17)
C94_4 C 0.7603(3) 0.05044(14) 0.11016(15)
C95_4 C 0.7704(3) 0.08884(15) 0.05266(16)
H55_4 H 0.621855 0.127093 0.322089
N37_4 N 0.5997(2) 0.18239(13) 0.33395(15)
H56_4 H 0.631297 0.159403 0.389806
H57_4 H 0.592013 0.198812 0.390839
O32_4 O 0.6510(2) 0.26268(12) 0.40456(12)
H58_4 H 0.823414 0.273165 0.463772
H59_4 H 0.751246 0.293982 0.447085
O33_4 O 0.7400(2) 0.35470(10) 0.41068(12)
H60_4 H 0.883591 0.419522 0.410462
H61_4 H 0.801470 0.415766 0.404947
N38_4 N 0.8337(2) 0.42175(12) 0.35150(13)
H62_4 H 0.931363 0.439463 0.348487
H64_4 H 0.993072 0.356592 0.064463
H65_4 H 0.952297 0.347770 0.100912
H68_4 H 0.988645 0.444905 0.202150
H70_4 H 0.884736 0.475426 0.291682
N43_4 N 0.7891(2) 0.45704(11) 0.29748(13)
H71_4 H 0.885112 0.424711 0.200890
H72_4 H 0.867660 0.466254 0.215123
H73_4 H 0.741335 0.487652 0.187504
N44_4 N 0.7040(2) 0.46107(12) 0.23385(14)
H74_4 H 0.653938 0.462452 0.139184
N45_4 N 0.6138(3) 0.44111(14) 0.18707(15)
H75_4 H 0.700526 0.375676 0.103395
H76_4 H 0.643339 0.408204 0.092814
N46_4 N 0.6113(3) 0.36319(14) 0.12062(15)
N47_4 N 0.6380(2) 0.36565(11) 0.31995(13)
H77_4 H 0.425516 0.243042 0.126883
N48_4 N 0.4559(2) 0.27277(13) 0.18097(15)
H78_4 H 0.583888 0.259994 0.094657
H79_4 H 0.503045 0.269532 0.082353
N49_4 N 0.5578(3) 0.30844(13) 0.11951(15)
H80_4 H 0.431252 0.188999 0.166139
N50_4 N 0.4680(2) 0.22013(13) 0.21840(15)
H81_4 H 0.529422 0.137267 0.189664
H82_4 H 0.602057 0.147390 0.177630
H83_4 H 0.535387 0.128554 0.265098
N51_4 N 0.5163(2) 0.18283(13) 0.27772(15)
C97_4 C 0.7772(3) 0.01825(13) 0.09024(15)
H84_4 H 0.752015 0.048355 0.137578
H85_4 H 0.767734 0.112880 0.039525
C98_4 C 0.7898(3) 0.05751(14) 0.03228(17)
C102_4 C 0.5415(3) 0.20015(16) 0.31521(18)
C103_4 C 0.7749(3) 0.43873(13) 0.33170(15)
C109_4 C 0.7381(3) 0.47979(14) 0.27074(17)
C110_4 C 0.6344(3) 0.45135(14) 0.22757(18)
C111_4 C 0.5432(3) 0.43110(17) 0.1691(2)
C112_4 C 0.6201(3) 0.32497(16) 0.11753(17)
C113_4 C 0.5410(3) 0.37377(17) 0.12200(18)
C114_4 C 0.5844(3) 0.35706(13) 0.33752(16)
H87_4 H 0.655483 0.388514 0.324496
C115_4 C 0.4576(3) 0.25832(16) 0.21895(18)
C116_4 C 0.4299(3) 0.31035(17) 0.1695(2)
C117_4 C 0.5036(3) 0.33588(16) 0.12232(18)
C118_4 C 0.4549(3) 0.19586(16) 0.25046(18)
C119_4 C 0.7912(3) 0.02168(14) 0.05042(16)
H89_4 H 0.802256 0.060411 0.005973
O36_4 O 0.5136(2) 0.22676(11) 0.33009(13)
O37_4 O 0.71853(18) 0.43846(10) 0.34194(11)
H97_4 H 0.761021 0.502801 0.262814
H98_4 H 0.702758 0.487972 0.286539
O40_4 O 0.5983(2) 0.45248(11) 0.25397(13)
H99_4 H 0.528585 0.445415 0.143011
H100_4 H 0.513011 0.439025 0.188392
N56_4 N 0.5325(3) 0.39151(14) 0.16049(15)
O41_4 O 0.6725(2) 0.30879(12) 0.11285(13)
H101_4 H 0.519912 0.389412 0.097406
C122_4 C 0.5638(2) 0.38805(13) 0.36403(15)
O42_4 O 0.55315(19) 0.32663(10) 0.33284(13)
O43_4 O 0.4504(2) 0.27644(11) 0.24992(13)
H102_4 H 0.409031 0.320735 0.192100
H103_4 H 0.392848 0.308488 0.144385
N57_4 N 0.4814(3) 0.33603(14) 0.16133(15)
H104_4 H 0.463549 0.333611 0.098456
H105_4 H 0.425812 0.209520 0.266982
H106_4 H 0.428291 0.173672 0.237695
C127_4 C 0.4944(3) 0.36959(17) 0.18209(19)
C128_4 C 0.5398(3) 0.37820(14) 0.39931(15)
C129_4 C 0.5691(3) 0.42590(13) 0.35366(16)
O45_4 O 0.5140(2) 0.28107(14) 0.40195(14)
O46_4 O 0.4157(3) 0.35560(15) 0.29434(19)
O47_4 O 0.3179(2) 0.29255(15) 0.27263(17)
O49_4 O 0.4750(2) 0.37866(13) 0.21409(14)
C134_4 C 0.5220(3) 0.40635(13) 0.42485(15)
H114_4 H 0.535519 0.352314 0.406121
C135_4 C 0.5501(3) 0.45410(13) 0.37862(16)
H115_4 H 0.585692 0.432501 0.329386
C137_4 C 0.5276(3) 0.44382(13) 0.41433(16)
C138_4 C 0.4927(3) 0.39758(14) 0.46269(16)
C139_4 C 0.5528(3) 0.49550(15) 0.36961(17)
H119_4 H 0.515821 0.462970 0.431974
N63_4 N 0.5010(3) 0.36254(13) 0.47716(15)
O52_4 O 0.4610(2) 0.42162(11) 0.47824(12)
N64_4 N 0.5697(3) 0.50558(12) 0.33310(14)
O53_4 O 0.5422(3) 0.51919(11) 0.39479(14)
C144_4 C 0.4668(3) 0.34410(17) 0.5058(2)
H122_4 H 0.531844 0.348847 0.467745
C145_4 C 0.5765(3) 0.54287(15) 0.31832(18)
H123_4 H 0.577235 0.486994 0.316762
C149_4 C 0.4293(4) 0.36208(19) 0.5317(2)
C150_4 C 0.4691(4) 0.30517(18) 0.5060(2)
C151_4 C 0.5865(3) 0.57458(14) 0.34374(17)
C152_4 C 0.5754(4) 0.54700(16) 0.27633(19)
H125_4 H 0.426646 0.388911 0.531610
C153_4 C 0.3955(4) 0.34140(19) 0.5578(2)
C154_4 C 0.4350(4) 0.28473(18) 0.5326(2)
H126_4 H 0.493703 0.292173 0.488127
C155_4 C 0.5952(3) 0.60986(14) 0.32656(17)
H127_4 H 0.587384 0.572234 0.372620
C156_4 C 0.5827(4) 0.58199(16) 0.25933(19)
H128_4 H 0.569525 0.525303 0.258950
C159_4 C 0.3979(3) 0.30330(18) 0.5582(2)
H131_4 H 0.370597 0.354302 0.575544
H132_4 H 0.437384 0.257886 0.532994
H133_4 H 0.602938 0.631467 0.344038
C160_4 C 0.5927(3) 0.61394(14) 0.28424(17)
H134_4 H 0.580892 0.584257 0.230358
C165_4 C 0.3603(4) 0.2801(2) 0.5858(2)
C166_4 C 0.5979(3) 0.65212(14) 0.26596(17)
O56_4 O 0.3511(3) 0.24616(16) 0.57618(16)
H143_4 H 0.50089 0.257213 0.414358
H144_4 H 0.504049 0.302886 0.418873
H145_4 H 0.458041 0.37147 0.301103
H146_4 H 0.378067 0.367397 0.306114
H147_4 H 0.324829 0.288736 0.243814
H148_4 H 0.297285 0.31789 0.275021
H149_4 H 0.823584 0.281153 0.116417
H150_4 H 0.823614 0.323928 0.0986227
C136_3 C 0.2042(3) 0.07130(14) 0.00291(16)
C140_3 C 0.2157(3) 0.06013(14) 0.04410(16)
H120_3 H 0.226095 0.034433 0.051208
C142_3 C 0.2122(3) 0.08638(15) 0.07497(16)
C143_3 C 0.1876(3) 0.13504(14) 0.02353(16)
C146_3 C 0.1982(3) 0.12370(15) 0.06443(17)
C147_3 C 0.2244(3) 0.07240(15) 0.11879(17)
C148_3 C 0.1713(3) 0.17569(14) 0.01021(17)
H124_3 H 0.195781 0.141759 0.085494
N65_3 N 0.1773(4) 0.08567(18) 0.14109(19)
O54_3 O 0.2602(4) 0.04744(16) 0.13036(15)
N66_3 N 0.2165(3) 0.20136(12) 0.03090(14)
C157_3 C 0.1840(5) 0.0767(2) 0.1839(2)
H129_3 H 0.142505 0.099857 0.128767
C158_3 C 0.2170(4) 0.24072(15) 0.02222(18)
H130_3 H 0.248359 0.192893 0.051511
C161_3 C 0.2468(5) 0.0788(2) 0.2105(2)
C162_3 C 0.1241(6) 0.0674(3) 0.1991(3)
C164_3 C 0.2768(4) 0.26028(18) 0.0384(2)
H135_3 H 0.286507 0.084901 0.199430
C167_3 C 0.2555(6) 0.0723(2) 0.2534(3)
C168_3 C 0.1357(6) 0.0609(3) 0.2435(3)
H136_3 H 0.079616 0.065391 0.181611
H138_3 H 0.314349 0.247741 0.055771
C170_3 C 0.2821(5) 0.29875(19) 0.0291(2)
H139_3 H 0.300284 0.072936 0.270571
C171_3 C 0.2008(6) 0.0653(3) 0.2691(3)
H140_3 H 0.097694 0.053514 0.255504
C172_3 C 0.2283(5) 0.31771(18) 0.0050(2)
H142_3 H 0.323891 0.311894 0.039745
C173_3 C 0.2113(8) 0.0618(3) 0.3156(3)
O57_3 O 0.2775(6) 0.0675(3) 0.3390(2)
O58_3 O 0.1635(6) 0.0523(3) 0.3307(3)
O59_3 O 0.2912(5) 0.37560(18) 0.0132(3)
H88_3 H 0.220695 0.005728 0.896542
N58_3 N 0.1935(2) 0.00857(11) 0.97317(13)
C130_3 C 0.2130(3) 0.04448(14) 0.96921(16)
H110_3 H 0.169041 0.003787 0.992265
O50_3 O 0.2383(3) 0.05543(12) 0.94079(14)
C141_3 C 0.1908(3) 0.10882(14) 0.99282(16)
H121_3 H 0.183790 0.116644 0.964666
O55_3 O 0.1232(2) 0.18321(11) 0.98200(14)
C163_3 C 0.1605(4) 0.25960(16) 0.99840(18)
H137_3 H 0.118374 0.246692 0.988012
C169_3 C 0.1679(5) 0.29825(18) 0.9902(2)
H141_3 H 0.129928 0.311386 0.974010
C174_3 C 0.2345(6) 0.3587(2) 0.9939(3)
O60_3 O 0.1844(5) 0.37395(18) 0.9715(2)
H88_4 H 0.779305 0.994272 0.103458
N58_4 N 0.8065(2) 0.99143(11) 0.02683(13)
C130_4 C 0.7870(3) 0.95552(14) 0.03079(16)
H110_4 H 0.830959 0.996213 0.007735
O50_4 O 0.7617(3) 0.94457(12) 0.05921(14)
C141_4 C 0.8092(3) 0.89118(14) 0.00718(16)
H121_4 H 0.816210 0.883356 0.035334
O55_4 O 0.8768(2) 0.81679(11) 0.01800(14)
C163_4 C 0.8395(4) 0.74040(16) 0.00160(18)
H137_4 H 0.881626 0.753308 0.011988
C169_4 C 0.8321(5) 0.70175(18) 0.0098(2)
H141_4 H 0.870072 0.688614 0.025990
C174_4 C 0.7655(6) 0.6413(2) 0.0061(3)
O60_4 O 0.8156(5) 0.62605(18) 0.0285(2)
C136_4 C 0.7958(3) 0.92870(14) 0.99709(16)
C140_4 C 0.7843(3) 0.93987(14) 0.95590(16)
H120_4 H 0.773905 0.965567 0.948792
C142_4 C 0.7878(3) 0.91362(15) 0.92503(16)
C143_4 C 0.8124(3) 0.86496(14) 0.97647(16)
C146_4 C 0.8018(3) 0.87630(15) 0.93557(17)
C147_4 C 0.7756(3) 0.92760(15) 0.88121(17)
C148_4 C 0.8287(3) 0.82431(14) 0.98979(17)
H124_4 H 0.804219 0.858241 0.914506
N65_4 N 0.8227(4) 0.91433(18) 0.85891(19)
O54_4 O 0.7398(4) 0.95256(16) 0.86964(15)
N66_4 N 0.7835(3) 0.79864(12) 0.96910(14)
C157_4 C 0.8160(5) 0.9233(2) 0.8161(2)
H129_4 H 0.857495 0.900143 0.871233
C158_4 C 0.7830(4) 0.75928(15) 0.97778(18)
H130_4 H 0.751641 0.807107 0.948489
C161_4 C 0.7532(5) 0.9212(2) 0.7895(2)
C162_4 C 0.8759(6) 0.9326(3) 0.8009(3)
C164_4 C 0.7232(4) 0.73972(18) 0.9616(2)
H135_4 H 0.713493 0.915099 0.800570
C167_4 C 0.7445(6) 0.9277(2) 0.7466(3)
C168_4 C 0.8643(6) 0.9391(3) 0.7565(3)
H136_4 H 0.920384 0.934609 0.818389
H138_4 H 0.685651 0.752259 0.944229
C170_4 C 0.7179(5) 0.70125(19) 0.9709(2)
H139_4 H 0.699716 0.927064 0.729429
C171_4 C 0.7992(6) 0.9347(3) 0.7309(3)
H140_4 H 0.902306 0.946486 0.744496
C172_4 C 0.7717(5) 0.68229(18) 0.9950(2)
H142_4 H 0.676109 0.688106 0.960255
C173_4 C 0.7887(8) 0.9382(3) 0.6844(3)
O57_4 O 0.7225(6) 0.9325(3) 0.6610(2)
O58_4 O 0.8365(6) 0.9477(3) 0.6693(3)
O59_4 O 0.7088(5) 0.62440(18) 0.9868(3)
loop_
_geom_bond_atom_site_label_1
_geom_bond_atom_site_label_2
_geom_bond_site_symmetry_1
_geom_bond_site_symmetry_2
C1 H1 1_555 1_555
C2 C1 1_555 1_555
C3 H2 1_555 1_555
C4 C1 1_555 1_555
C5 C2 1_555 1_555
H3 C5 1_555 1_555
C6 C3 1_555 1_555
C7 C2 1_555 1_555
C8 H4 1_555 1_555
C9 C8 1_555 1_555
C10 H5 1_555 1_555
C11 C8 1_555 1_555
H6 C11 1_555 1_555
C12 C10 1_555 1_555
C13 C9 1_555 1_555
H7 C13 1_555 1_555
C14 C12 1_555 1_555
C15 C6 1_555 1_555
C16 C17 1_555 1_555
C17 H8 1_555 1_555
C18 C16 1_555 1_555
H9 C18 1_555 1_555
C19 C17 1_555 1_555
H10 C19 1_555 1_555
C20 C19 1_555 1_555
C21 C18 1_555 1_555
H11 C21 1_555 1_555
C22 C20 1_555 1_555
C23 C4 1_555 1_555
C24 C25 1_555 1_555
C25 H12 1_555 1_555
C26 C27 1_555 1_555
C27 C25 1_555 1_555
H13 C27 1_555 1_555
C28 C26 1_555 1_555
H14 C28 1_555 1_555
C29 C24 1_555 1_555
H15 C29 1_555 1_555
C30 C26 1_555 1_555
N1 C7 1_555 1_555
H16 N1 1_555 1_555
N2 C15 1_555 1_555
H17 N2 1_555 1_555
N3 C23 1_555 1_555
H18 N3 1_555 1_555
O1 C7 1_555 1_555
O2 C14 1_555 1_555
O3 C14 1_555 1_555
O4 C22 1_555 1_555
O5 C22 1_555 1_555
O6 C23 1_555 1_555
O7 C30 1_555 1_555
O8 C30 1_555 1_555
O9 C15 1_555 1_555
C3 C4 1_555 1_555
C5 C6 1_555 1_555
C9 N1 1_555 1_555
C10 C13 1_555 1_555
C11 C12 1_555 1_555
C16 N2 1_555 1_555
C20 C21 1_555 1_555
C24 N3 1_555 1_555
C28 C29 1_555 1_555
C24_2 C25_2 1_555 1_555
C25_2 H12_2 1_555 1_555
C26_2 C27_2 1_555 1_555
C27_2 C25_2 1_555 1_555
H13_2 C27_2 1_555 1_555
C28_2 C26_2 1_555 1_555
H14_2 C28_2 1_555 1_555
C29_2 C24_2 1_555 1_555
C30_2 C26_2 1_555 1_555
O7_2 C30_2 1_555 1_555
O8_2 C30_2 1_555 1_555
C24_2 N3_2 1_555 1_555
C28_2 C29_2 1_555 1_555
C10_2 H5_2 1_555 1_555
H7_2 C13_2 1_555 1_555
O3_2 C14_2 1_555 1_555
O6_2 C23_2 1_555 1_555
C10_2 C13_2 1_555 1_555
C2_2 C1_2 1_555 1_555
C3_2 H2_2 1_555 1_555
C4_2 C1_2 1_555 1_555
C5_2 C2_2 1_555 1_555
H3_2 C5_2 1_555 1_555
C6_2 C3_2 1_555 1_555
C7_2 C2_2 1_555 1_555
C8_2 H4_2 1_555 1_555
C9_2 C8_2 1_555 1_555
C11_2 C8_2 1_555 1_555
H6_2 C11_2 1_555 1_555
C15_2 C6_2 1_555 1_555
C16_2 C17_2 1_555 1_555
C17_2 H8_2 1_555 1_555
C18_2 C16_2 1_555 1_555
H9_2 C18_2 1_555 1_555
C19_2 C17_2 1_555 1_555
H10_2 C19_2 1_555 1_555
C20_2 C19_2 1_555 1_555
C21_2 C18_2 1_555 1_555
H11_2 C21_2 1_555 1_555
C22_2 C20_2 1_555 1_555
N1_2 C7_2 1_555 1_555
H16_2 N1_2 1_555 1_555
N2_2 C15_2 1_555 1_555
H17_2 N2_2 1_555 1_555
O4_2 C22_2 1_555 1_555
O5_2 C22_2 1_555 1_555
O9_2 C15_2 1_555 1_555
C3_2 C4_2 1_555 1_555
C5_2 C6_2 1_555 1_555
C9_2 N1_2 1_555 1_555
C11_2 C12_2 1_555 1_555
C16_2 N2_2 1_555 1_555
C20_2 C21_2 1_555 1_555
C1_3 H1_3 1_555 1_555
C2_3 C1_3 1_555 1_555
C3_3 H2_3 1_555 1_555
C4_3 C1_3 1_555 1_555
C5_3 C2_3 1_555 1_555
H3_3 C5_3 1_555 1_555
C6_3 C3_3 1_555 1_555
C7_3 C2_3 1_555 1_555
C8_3 H4_3 1_555 1_555
C9_3 C8_3 1_555 1_555
C10_3 H5_3 1_555 1_555
C11_3 C8_3 1_555 1_555
H6_3 C11_3 1_555 1_555
C12_3 C10_3 1_555 1_555
C13_3 C9_3 1_555 1_555
H7_3 C13_3 1_555 1_555
C14_3 C12_3 1_555 1_555
C15_3 C6_3 1_555 1_555
C16_3 C17_3 1_555 1_555
C17_3 H8_3 1_555 1_555
C18_3 C16_3 1_555 1_555
H9_3 C18_3 1_555 1_555
C19_3 C17_3 1_555 1_555
H10_3 C19_3 1_555 1_555
C20_3 C19_3 1_555 1_555
C21_3 C18_3 1_555 1_555
H11_3 C21_3 1_555 1_555
C22_3 C20_3 1_555 1_555
C23_3 C4_3 1_555 1_555
C24_3 C25_3 1_555 1_555
C25_3 H12_3 1_555 1_555
C26_3 C27_3 1_555 1_555
C27_3 C25_3 1_555 1_555
H13_3 C27_3 1_555 1_555
C28_3 C26_3 1_555 1_555
H14_3 C28_3 1_555 1_555
C29_3 C24_3 1_555 1_555
H15_3 C29_3 1_555 1_555
C30_3 C26_3 1_555 1_555
N1_3 C7_3 1_555 1_555
H16_3 N1_3 1_555 1_555
N2_3 C15_3 1_555 1_555
H17_3 N2_3 1_555 1_555
N3_3 C23_3 1_555 1_555
H18_3 N3_3 1_555 1_555
O1_3 C7_3 1_555 1_555
O2_3 C14_3 1_555 1_555
O3_3 C14_3 1_555 1_555
O4_3 C22_3 1_555 1_555
O5_3 C22_3 1_555 1_555
O6_3 C23_3 1_555 1_555
O7_3 C30_3 1_555 1_555
O8_3 C30_3 1_555 1_555
O9_3 C15_3 1_555 1_555
C3_3 C4_3 1_555 1_555
C5_3 C6_3 1_555 1_555
C9_3 N1_3 1_555 1_555
C10_3 C13_3 1_555 1_555
C11_3 C12_3 1_555 1_555
C16_3 N2_3 1_555 1_555
C20_3 C21_3 1_555 1_555
C24_3 N3_3 1_555 1_555
C28_3 C29_3 1_555 1_555
C2_4 C1_4 1_555 1_555
C3_4 H2_4 1_555 1_555
C4_4 C1_4 1_555 1_555
C5_4 C2_4 1_555 1_555
H3_4 C5_4 1_555 1_555
C6_4 C3_4 1_555 1_555
C7_4 C2_4 1_555 1_555
C8_4 H4_4 1_555 1_555
C9_4 C8_4 1_555 1_555
C11_4 C8_4 1_555 1_555
H6_4 C11_4 1_555 1_555
C15_4 C6_4 1_555 1_555
C16_4 C17_4 1_555 1_555
C17_4 H8_4 1_555 1_555
C18_4 C16_4 1_555 1_555
H9_4 C18_4 1_555 1_555
C19_4 C17_4 1_555 1_555
H10_4 C19_4 1_555 1_555
C20_4 C19_4 1_555 1_555
C21_4 C18_4 1_555 1_555
H11_4 C21_4 1_555 1_555
C22_4 C20_4 1_555 1_555
N1_4 C7_4 1_555 1_555
H16_4 N1_4 1_555 1_555
N2_4 C15_4 1_555 1_555
H17_4 N2_4 1_555 1_555
O4_4 C22_4 1_555 1_555
O5_4 C22_4 1_555 1_555
O9_4 C15_4 1_555 1_555
C3_4 C4_4 1_555 1_555
C5_4 C6_4 1_555 1_555
C9_4 N1_4 1_555 1_555
C11_4 C12_4 1_555 1_555
C16_4 N2_4 1_555 1_555
C20_4 C21_4 1_555 1_555
C10_4 H5_4 1_555 1_555
H7_4 C13_4 1_555 1_555
O3_4 C14_4 1_555 1_555
O6_4 C23_4 1_555 1_555
C10_4 C13_4 1_555 1_555
C24_4 C25_4 1_555 1_555
C25_4 H12_4 1_555 1_555
C26_4 C27_4 1_555 1_555
C27_4 C25_4 1_555 1_555
H13_4 C27_4 1_555 1_555
C28_4 C26_4 1_555 1_555
H14_4 C28_4 1_555 1_555
C29_4 C24_4 1_555 1_555
C30_4 C26_4 1_555 1_555
O7_4 C30_4 1_555 1_555
O8_4 C30_4 1_555 1_555
C24_4 N3_4 1_555 1_555
C28_4 C29_4 1_555 1_555
N4 H19 1_555 1_555
H20 N4 1_555 1_555
H21 N4 1_555 1_555
H22 N4 1_555 1_555
N4_2 H19_2 1_555 1_555
H20_2 N4_2 1_555 1_555
H22_2 N4_2 1_555 1_555
N4_3 H19_3 1_555 1_555
H20_3 N4_3 1_555 1_555
H21_3 N4_3 1_555 1_555
H22_3 N4_3 1_555 1_555
N4_4 H19_4 1_555 1_555
H20_4 N4_4 1_555 1_555
H22_4 N4_4 1_555 1_555
Sr1 O10 1_555 1_555
O10 C31 1_555 1_555
O11 Sr1 1_555 1_555
O12 Sr1 1_555 1_555
O13 Sr1 1_555 1_555
O14 Sr1 1_555 1_555
O15 Sr1 1_555 1_555
O16 Sr1 1_555 1_555
O17 Sr1 1_555 1_555
C31 N5 1_555 1_555
C32 O11 1_555 1_555
C33 O12 1_555 1_555
C34 O13 1_555 1_555
Sr2 O14 1_555 1_555
C35 O14 1_555 1_555
Sr3 O17 1_555 1_555
N5 C37 1_555 1_555
N6 C31 1_555 1_555
N7 C32 1_555 1_555
N8 C32 1_555 1_555
N9 C33 1_555 1_555
N10 C33 1_555 1_555
N11 C34 1_555 1_555
N12 C34 1_555 1_555
O18 Sr2 1_555 1_555
O19 Sr2 1_555 1_555
O20 Sr2 1_555 1_555
O21 Sr2 1_555 1_555
O22 Sr2 1_555 1_555
C36 C35 1_555 1_555
O23 C35 1_555 1_555
O24 Sr3 1_555 1_555
O25 Sr3 1_555 1_555
O26 Sr3 1_555 1_555
O27 Sr3 1_555 1_555
O28 Sr3 1_555 1_555
C37 C40 1_555 1_555
C38 N5 1_555 1_555
C39 N6 1_555 1_555
C40 N6 1_555 1_555
C41 N7 1_555 1_555
C42 N7 1_555 1_555
C43 N8 1_555 1_555
C44 N9 1_555 1_555
C45 N9 1_555 1_555
C46 N10 1_555 1_555
C47 N10 1_555 1_555
C48 N11 1_555 1_555
C49 N12 1_555 1_555
C50 N12 1_555 1_555
C51 O18 1_555 1_555
C52 O19 1_555 1_555
C53 O20 1_555 1_555
C54 O21 1_555 1_555
C55 C36 1_555 1_555
C56 C36 1_555 1_555
C57 O24 1_555 1_555
C58 O25 1_555 1_555
C59 O26 1_555 1_555
H23 C37 1_555 1_555
N13 C37 1_555 1_555
H24 C38 1_555 1_555
H25 C38 1_555 1_555
H26 C39 1_555 1_555
H27 C39 1_555 1_555
N14 C39 1_555 1_555
H28 C40 1_555 1_555
N15 C40 1_555 1_555
H29 C41 1_555 1_555
N16 C41 1_555 1_555
H30 C42 1_555 1_555
H31 C42 1_555 1_555
N17 C42 1_555 1_555
H32 C43 1_555 1_555
N18 C43 1_555 1_555
H33 C44 1_555 1_555
H34 C44 1_555 1_555
N19 C44 1_555 1_555
H35 C45 1_555 1_555
N20 C45 1_555 1_555
H36 C46 1_555 1_555
N21 C46 1_555 1_555
H37 C47 1_555 1_555
H38 C47 1_555 1_555
H39 C48 1_555 1_555
N22 C48 1_555 1_555
H40 C49 1_555 1_555
N23 C49 1_555 1_555
H41 C50 1_555 1_555
H42 C50 1_555 1_555
N24 C50 1_555 1_555
N25 C51 1_555 1_555
N26 C52 1_555 1_555
N27 C52 1_555 1_555
N28 C53 1_555 1_555
N29 C54 1_555 1_555
N30 C54 1_555 1_555
C60 C55 1_555 1_555
H43 C55 1_555 1_555
C61 C56 1_555 1_555
H44 C56 1_555 1_555
N31 C57 1_555 1_555
N32 C57 1_555 1_555
N33 C58 1_555 1_555
C62 C59 1_555 1_555
C63 N13 1_555 1_555
C64 N13 1_555 1_555
C65 N14 1_555 1_555
C66 N14 1_555 1_555
C67 N15 1_555 1_555
C68 N16 1_555 1_555
C69 N16 1_555 1_555
C70 N17 1_555 1_555
C71 N19 1_555 1_555
C72 N20 1_555 1_555
C73 N20 1_555 1_555
C74 N21 1_555 1_555
C75 N22 1_555 1_555
C76 N23 1_555 1_555
C77 N24 1_555 1_555
C78 N25 1_555 1_555
C79 N25 1_555 1_555
C80 N26 1_555 1_555
C81 N27 1_555 1_555
C82 N27 1_555 1_555
C83 N28 1_555 1_555
C84 N28 1_555 1_555
C85 N29 1_555 1_555
C86 N30 1_555 1_555
C87 N30 1_555 1_555
C88 C60 1_555 1_555
H45 C60 1_555 1_555
H46 C61 1_555 1_555
C90 N31 1_555 1_555
C92 N32 1_555 1_555
C93 N33 1_555 1_555
C94 C62 1_555 1_555
C95 C62 1_555 1_555
O29 C63 1_555 1_555
H47 C64 1_555 1_555
H48 C64 1_555 1_555
N34 C65 1_555 1_555
O30 C65 1_555 1_555
H49 C66 1_555 1_555
C96 C66 1_555 1_555
N35 C66 1_555 1_555
H50 C67 1_555 1_555
H51 C67 1_555 1_555
O31 C68 1_555 1_555
H52 C69 1_555 1_555
H53 C69 1_555 1_555
N36 C69 1_555 1_555
H54 C70 1_555 1_555
H55 C71 1_555 1_555
N37 C71 1_555 1_555
H56 C72 1_555 1_555
H57 C72 1_555 1_555
O32 C73 1_555 1_555
H58 C74 1_555 1_555
H59 C74 1_555 1_555
O33 C75 1_555 1_555
H60 C76 1_555 1_555
H61 C76 1_555 1_555
N38 C76 1_555 1_555
H62 C77 1_555 1_555
H63 C78 1_555 1_555
N39 C78 1_555 1_555
H64 C79 1_555 1_555
H65 C79 1_555 1_555
H66 C80 1_555 1_555
N40 C80 1_555 1_555
H67 C81 1_555 1_555
N41 C81 1_555 1_555
H68 C82 1_555 1_555
H69 C82 1_555 1_555
N42 C82 1_555 1_555
H70 C83 1_555 1_555
N43 C83 1_555 1_555
H71 C84 1_555 1_555
H72 C84 1_555 1_555
H73 C85 1_555 1_555
N44 C85 1_555 1_555
H74 C86 1_555 1_555
N45 C86 1_555 1_555
H75 C87 1_555 1_555
H76 C87 1_555 1_555
N46 C87 1_555 1_555
N47 C88 1_555 1_555
H78 C90 1_555 1_555
H79 C90 1_555 1_555
N49 C90 1_555 1_555
H81 C92 1_555 1_555
H82 C92 1_555 1_555
H83 C93 1_555 1_555
N51 C93 1_555 1_555
C97 C94 1_555 1_555
H84 C94 1_555 1_555
H85 C95 1_555 1_555
C98 C95 1_555 1_555
Sr4 O29 1_555 1_555
C99 N34 1_555 1_555
H86 C96 1_555 1_555
N52 C96 1_555 1_555
C100 N35 1_555 1_555
C101 N36 1_555 1_555
C102 N37 1_555 1_555
C103 N38 1_555 1_555
C104 N39 1_555 1_555
C105 N40 1_555 1_555
C106 N41 1_555 1_555
C107 N42 1_555 1_555
C108 N42 1_555 1_555
C109 N43 1_555 1_555
C110 N44 1_555 1_555
C111 N45 1_555 1_555
C112 N46 1_555 1_555
C113 N46 1_555 1_555
C114 N47 1_555 1_555
H87 N47 1_555 1_555
C117 N49 1_555 1_555
H88 C97 1_555 1_555
C119 C97 1_555 1_555
H89 C98 1_555 1_555
O34 Sr4 1_555 1_555
H90 C99 1_555 1_555
H91 C99 1_555 1_555
N53 C99 1_555 1_555
C120 N52 1_555 1_555
O35 C101 1_555 1_555
O36 C102 1_555 1_555
O37 C103 1_555 1_555
H92 C104 1_555 1_555
H93 C104 1_555 1_555
O38 C105 1_555 1_555
H94 C106 1_555 1_555
H95 C106 1_555 1_555
N54 C106 1_555 1_555
N55 C107 1_555 1_555
O39 C107 1_555 1_555
C121 C108 1_555 1_555
H98 C109 1_555 1_555
O40 C110 1_555 1_555
H99 C111 1_555 1_555
H100 C111 1_555 1_555
N56 C111 1_555 1_555
O41 C112 1_555 1_555
H101 C113 1_555 1_555
C122 C114 1_555 1_555
O42 C114 1_555 1_555
N58 C119 1_555 1_555
C123 N53 1_555 1_555
C124 N53 1_555 1_555
H107 C120 1_555 1_555
H108 C120 1_555 1_555
N59 C120 1_555 1_555
C125 N54 1_555 1_555
C126 N55 1_555 1_555
N60 C121 1_555 1_555
C128 C122 1_555 1_555
C129 C122 1_555 1_555
C130 N58 1_555 1_555
H110 N58 1_555 1_555
N61 C123 1_555 1_555
O44 C123 1_555 1_555
H111 C124 1_555 1_555
C131 C124 1_555 1_555
C132 N59 1_555 1_555
O48 C125 1_555 1_555
H113 C126 1_555 1_555
C133 N60 1_555 1_555
C134 C128 1_555 1_555
H114 C128 1_555 1_555
C135 C129 1_555 1_555
H115 C129 1_555 1_555
C136 C130 1_555 1_555
O50 C130 1_555 1_555
H116 C131 1_555 1_555
N62 C131 1_555 1_555
O51 C132 1_555 1_555
H117 C133 1_555 1_555
H118 C133 1_555 1_555
C137 C134 1_555 1_555
C139 C135 1_555 1_555
C140 C136 1_555 1_555
C141 C136 1_555 1_555
H119 C137 1_555 1_555
H120 C140 1_555 1_555
C142 C140 1_555 1_555
H121 C141 1_555 1_555
C143 C141 1_555 1_555
H122 N63 1_555 1_555
C146 C142 1_555 1_555
C147 C142 1_555 1_555
C148 C143 1_555 1_555
H124 C146 1_555 1_555
N65 C147 1_555 1_555
O54 C147 1_555 1_555
N66 C148 1_555 1_555
O55 C148 1_555 1_555
C157 N65 1_555 1_555
H129 N65 1_555 1_555
C158 N66 1_555 1_555
H130 N66 1_555 1_555
C161 C157 1_555 1_555
C162 C157 1_555 1_555
C163 C158 1_555 1_555
C164 C158 1_555 1_555
H135 C161 1_555 1_555
C167 C161 1_555 1_555
C168 C162 1_555 1_555
H136 C162 1_555 1_555
H137 C163 1_555 1_555
C169 C163 1_555 1_555
H138 C164 1_555 1_555
C170 C164 1_555 1_555
H139 C167 1_555 1_555
C171 C167 1_555 1_555
H140 C168 1_555 1_555
H141 C169 1_555 1_555
C172 C169 1_555 1_555
H142 C170 1_555 1_555
C173 C171 1_555 1_555
C174 C172 1_555 1_555
O57 C173 1_555 1_555
O58 C173 1_555 1_555
O59 C174 1_555 1_555
O60 C174 1_555 1_555
O15 Sr2 1_555 1_555
Sr3 O23 1_555 1_555
N8 C38 1_555 1_555
N11 C47 1_555 1_555
O27 C59 1_555 1_555
C41 C43 1_555 1_555
C45 C46 1_555 1_555
C48 C49 1_555 1_555
C51 N17 1_555 1_555
C53 N24 1_555 1_555
C58 N19 1_555 1_555
N15 C63 1_555 1_555
N18 C64 1_555 1_555
N18 C68 1_555 1_555
N21 C73 1_555 1_555
N22 C74 1_555 1_555
N23 C75 1_555 1_555
N26 C79 1_555 1_555
N29 C84 1_555 1_555
C61 C88 1_555 1_555
N33 C92 1_555 1_555
C67 N35 1_555 1_555
C70 C78 1_555 1_555
C70 N36 1_555 1_555
C71 C93 1_555 1_555
C72 N37 1_555 1_555
C77 C83 1_555 1_555
C77 N38 1_555 1_555
C80 C81 1_555 1_555
C85 C86 1_555 1_555
N34 C96 1_555 1_555
N39 C101 1_555 1_555
N40 C104 1_555 1_555
N41 C105 1_555 1_555
N43 C103 1_555 1_555
N44 C109 1_555 1_555
N45 C110 1_555 1_555
N49 C112 1_555 1_555
N51 C102 1_555 1_555
C98 C119 1_555 1_555
N52 C100 1_555 1_555
C100 O34 1_555 1_555
C108 N54 1_555 1_555
C113 C117 1_555 1_555
C113 N56 1_555 1_555
N55 C121 1_555 1_555
C124 N59 1_555 1_555
C125 N60 1_555 1_555
C126 N61 1_555 1_555
N61 C131 1_555 1_555
C132 N62 1_555 1_555
C133 N62 1_555 1_555
C135 C137 1_555 1_555
C143 C146 1_555 1_555
C168 C171 1_555 1_555
C170 C172 1_555 1_555
O45 H143 1_555 1_555
O45 H144 1_555 1_555
O22 H149 1_555 1_555
O22 H150 1_555 1_555
C145 N64 1_555 1_555
C151 C145 1_555 1_555
C152 C145 1_555 1_555
C155 C151 1_555 1_555
H127 C151 1_555 1_555
C156 C152 1_555 1_555
H128 C152 1_555 1_555
H133 C155 1_555 1_555
C160 C155 1_555 1_555
H134 C156 1_555 1_555
C166 C160 1_555 1_555
O64 C166 1_555 1_555
O65 C166 1_555 1_555
Sr7 O64 1_555 1_555
Sr8 O65 1_555 1_555
C156 C160 1_555 1_555
O65 Sr7 1_555 1_555
C149 C144 1_555 1_555
C150 C144 1_555 1_555
H125 C149 1_555 1_555
C153 C149 1_555 1_555
C154 C150 1_555 1_555
C159 C153 1_555 1_555
H131 C153 1_555 1_555
H132 C154 1_555 1_555
C165 C159 1_555 1_555
O56 C165 1_555 1_555
O63 C165 1_555 1_555
Sr6 O63 1_555 1_555
C154 C159 1_555 1_555
H77 C89 1_555 1_555
N48 C89 1_555 1_555
H80 C91 1_555 1_555
N50 C91 1_555 1_555
C115 N48 1_555 1_555
C116 N48 1_555 1_555
C118 N50 1_555 1_555
O43 C115 1_555 1_555
H102 C116 1_555 1_555
H103 C116 1_555 1_555
N57 C116 1_555 1_555
H105 C118 1_555 1_555
H106 C118 1_555 1_555
O46 Sr4 1_555 1_555
O47 Sr4 1_555 1_555
O49 C127 1_555 1_555
O52 C138 1_555 1_555
C89 C91 1_555 1_555
N50 C115 1_555 1_555
O43 Sr4 1_555 1_555
N57 C127 1_555 1_555
O46 H145 1_555 1_555
O46 H146 1_555 1_555
O47 H147 1_555 1_555
O47 H148 1_555 1_555
O12_2 Sr7 1_555 1_555
O13_2 Sr7 1_555 1_555
O14_2 Sr7 1_555 1_555
O15_2 Sr7 1_555 1_555
C33_2 O12_2 1_555 1_555
C34_2 O13_2 1_555 1_555
Sr2_2 O14_2 1_555 1_555
C35_2 O14_2 1_555 1_555
N9_2 C33_2 1_555 1_555
N10_2 C33_2 1_555 1_555
N11_2 C34_2 1_555 1_555
N12_2 C34_2 1_555 1_555
O18_2 Sr2_2 1_555 1_555
O19_2 Sr2_2 1_555 1_555
O20_2 Sr2_2 1_555 1_555
O21_2 Sr2_2 1_555 1_555
O22_2 Sr2_2 1_555 1_555
C36_2 C35_2 1_555 1_555
O23_2 C35_2 1_555 1_555
O24_2 Sr8 1_555 1_555
O25_2 Sr8 1_555 1_555
O26_2 Sr8 1_555 1_555
O27_2 Sr8 1_555 1_555
O28_2 Sr8 1_555 1_555
C44_2 N9_2 1_555 1_555
C45_2 N9_2 1_555 1_555
C46_2 N10_2 1_555 1_555
C47_2 N10_2 1_555 1_555
C48_2 N11_2 1_555 1_555
C49_2 N12_2 1_555 1_555
C50_2 N12_2 1_555 1_555
C53_2 O20_2 1_555 1_555
C54_2 O21_2 1_555 1_555
C55_2 C36_2 1_555 1_555
C56_2 C36_2 1_555 1_555
C57_2 O24_2 1_555 1_555
C58_2 O25_2 1_555 1_555
C59_2 O26_2 1_555 1_555
H33_2 C44_2 1_555 1_555
H34_2 C44_2 1_555 1_555
N19_2 C44_2 1_555 1_555
H35_2 C45_2 1_555 1_555
N20_2 C45_2 1_555 1_555
H36_2 C46_2 1_555 1_555
N21_2 C46_2 1_555 1_555
H37_2 C47_2 1_555 1_555
H38_2 C47_2 1_555 1_555
H39_2 C48_2 1_555 1_555
N22_2 C48_2 1_555 1_555
H40_2 C49_2 1_555 1_555
N23_2 C49_2 1_555 1_555
H41_2 C50_2 1_555 1_555
H42_2 C50_2 1_555 1_555
N24_2 C50_2 1_555 1_555
N28_2 C53_2 1_555 1_555
N29_2 C54_2 1_555 1_555
N30_2 C54_2 1_555 1_555
C60_2 C55_2 1_555 1_555
H43_2 C55_2 1_555 1_555
C61_2 C56_2 1_555 1_555
H44_2 C56_2 1_555 1_555
N31_2 C57_2 1_555 1_555
N32_2 C57_2 1_555 1_555
N33_2 C58_2 1_555 1_555
C62_2 C59_2 1_555 1_555
C71_2 N19_2 1_555 1_555
C72_2 N20_2 1_555 1_555
C73_2 N20_2 1_555 1_555
C74_2 N21_2 1_555 1_555
C75_2 N22_2 1_555 1_555
C76_2 N23_2 1_555 1_555
C77_2 N24_2 1_555 1_555
C83_2 N28_2 1_555 1_555
C84_2 N28_2 1_555 1_555
C85_2 N29_2 1_555 1_555
C86_2 N30_2 1_555 1_555
C87_2 N30_2 1_555 1_555
C88_2 C60_2 1_555 1_555
H45_2 C60_2 1_555 1_555
H46_2 C61_2 1_555 1_555
C89_2 N31_2 1_555 1_555
C90_2 N31_2 1_555 1_555
C91_2 N32_2 1_555 1_555
C92_2 N32_2 1_555 1_555
C93_2 N33_2 1_555 1_555
C94_2 C62_2 1_555 1_555
C95_2 C62_2 1_555 1_555
H55_2 C71_2 1_555 1_555
N37_2 C71_2 1_555 1_555
H56_2 C72_2 1_555 1_555
H57_2 C72_2 1_555 1_555
O32_2 C73_2 1_555 1_555
H58_2 C74_2 1_555 1_555
H59_2 C74_2 1_555 1_555
O33_2 C75_2 1_555 1_555
H60_2 C76_2 1_555 1_555
H61_2 C76_2 1_555 1_555
N38_2 C76_2 1_555 1_555
H62_2 C77_2 1_555 1_555
H64_2 C79_2 1_555 1_555
H65_2 C79_2 1_555 1_555
H70_2 C83_2 1_555 1_555
N43_2 C83_2 1_555 1_555
H71_2 C84_2 1_555 1_555
H72_2 C84_2 1_555 1_555
H73_2 C85_2 1_555 1_555
N44_2 C85_2 1_555 1_555
H74_2 C86_2 1_555 1_555
N45_2 C86_2 1_555 1_555
H75_2 C87_2 1_555 1_555
H76_2 C87_2 1_555 1_555
N46_2 C87_2 1_555 1_555
N47_2 C88_2 1_555 1_555
H77_2 C89_2 1_555 1_555
N48_2 C89_2 1_555 1_555
H78_2 C90_2 1_555 1_555
H79_2 C90_2 1_555 1_555
N49_2 C90_2 1_555 1_555
H80_2 C91_2 1_555 1_555
N50_2 C91_2 1_555 1_555
H81_2 C92_2 1_555 1_555
H82_2 C92_2 1_555 1_555
H83_2 C93_2 1_555 1_555
N51_2 C93_2 1_555 1_555
C97_2 C94_2 1_555 1_555
H84_2 C94_2 1_555 1_555
H85_2 C95_2 1_555 1_555
C98_2 C95_2 1_555 1_555
C102_2 N37_2 1_555 1_555
C103_2 N38_2 1_555 1_555
C109_2 N43_2 1_555 1_555
C110_2 N44_2 1_555 1_555
C111_2 N45_2 1_555 1_555
C112_2 N46_2 1_555 1_555
C113_2 N46_2 1_555 1_555
C114_2 N47_2 1_555 1_555
H87_2 N47_2 1_555 1_555
C115_2 N48_2 1_555 1_555
C116_2 N48_2 1_555 1_555
C117_2 N49_2 1_555 1_555
C118_2 N50_2 1_555 1_555
C119_2 C97_2 1_555 1_555
H89_2 C98_2 1_555 1_555
O36_2 C102_2 1_555 1_555
O37_2 C103_2 1_555 1_555
H97_2 C109_2 1_555 1_555
H98_2 C109_2 1_555 1_555
O40_2 C110_2 1_555 1_555
H99_2 C111_2 1_555 1_555
H100_2 C111_2 1_555 1_555
N56_2 C111_2 1_555 1_555
O41_2 C112_2 1_555 1_555
H101_2 C113_2 1_555 1_555
C122_2 C114_2 1_555 1_555
O42_2 C114_2 1_555 1_555
O43_2 C115_2 1_555 1_555
H102_2 C116_2 1_555 1_555
H103_2 C116_2 1_555 1_555
N57_2 C116_2 1_555 1_555
H104_2 C117_2 1_555 1_555
H105_2 C118_2 1_555 1_555
H106_2 C118_2 1_555 1_555
C127_2 N56_2 1_555 1_555
C128_2 C122_2 1_555 1_555
C129_2 C122_2 1_555 1_555
O45_2 Sr5 1_555 1_555
O46_2 Sr5 1_555 1_555
O47_2 Sr5 1_555 1_555
O49_2 C127_2 1_555 1_555
C134_2 C128_2 1_555 1_555
H114_2 C128_2 1_555 1_555
C135_2 C129_2 1_555 1_555
H115_2 C129_2 1_555 1_555
C137_2 C134_2 1_555 1_555
C138_2 C134_2 1_555 1_555
C139_2 C135_2 1_555 1_555
H119_2 C137_2 1_555 1_555
N63_2 C138_2 1_555 1_555
O52_2 C138_2 1_555 1_555
N64_2 C139_2 1_555 1_555
O53_2 C139_2 1_555 1_555
C144_2 N63_2 1_555 1_555
H122_2 N63_2 1_555 1_555
C145_2 N64_2 1_555 1_555
H123_2 N64_2 1_555 1_555
C149_2 C144_2 1_555 1_555
C150_2 C144_2 1_555 1_555
C151_2 C145_2 1_555 1_555
C152_2 C145_2 1_555 1_555
H125_2 C149_2 1_555 1_555
C153_2 C149_2 1_555 1_555
C154_2 C150_2 1_555 1_555
H126_2 C150_2 1_555 1_555
C155_2 C151_2 1_555 1_555
H127_2 C151_2 1_555 1_555
C156_2 C152_2 1_555 1_555
H128_2 C152_2 1_555 1_555
C159_2 C153_2 1_555 1_555
H131_2 C153_2 1_555 1_555
H132_2 C154_2 1_555 1_555
H133_2 C155_2 1_555 1_555
C160_2 C155_2 1_555 1_555
H134_2 C156_2 1_555 1_555
C165_2 C159_2 1_555 1_555
C166_2 C160_2 1_555 1_555
O56_2 C165_2 1_555 1_555
Sr5 O36_2 1_555 1_555
O61 Sr5 1_555 1_555
O62 Sr5 1_555 1_555
O63_2 C165_2 1_555 1_555
O16 C166_2 1_555 1_555
O17 C166_2 1_555 1_555
Sr6_2 O63_2 1_555 1_555
O15_2 Sr2_2 1_555 1_555
Sr8 O23_2 1_555 1_555
N11_2 C47_2 1_555 1_555
O27_2 C59_2 1_555 1_555
C45_2 C46_2 1_555 1_555
C48_2 C49_2 1_555 1_555
C53_2 N24_2 1_555 1_555
C58_2 N19_2 1_555 1_555
N21_2 C73_2 1_555 1_555
N22_2 C74_2 1_555 1_555
N23_2 C75_2 1_555 1_555
N29_2 C84_2 1_555 1_555
C61_2 C88_2 1_555 1_555
N33_2 C92_2 1_555 1_555
C71_2 C93_2 1_555 1_555
C72_2 N37_2 1_555 1_555
C77_2 C83_2 1_555 1_555
C77_2 N38_2 1_555 1_555
C85_2 C86_2 1_555 1_555
C89_2 C91_2 1_555 1_555
N43_2 C103_2 1_555 1_555
N44_2 C109_2 1_555 1_555
N45_2 C110_2 1_555 1_555
N49_2 C112_2 1_555 1_555
N50_2 C115_2 1_555 1_555
N51_2 C102_2 1_555 1_555
N51_2 C118_2 1_555 1_555
C98_2 C119_2 1_555 1_555
C113_2 C117_2 1_555 1_555
C113_2 N56_2 1_555 1_555
C117_2 N57_2 1_555 1_555
O42_2 Sr5 1_555 1_555
O43_2 Sr5 1_555 1_555
N57_2 C127_2 1_555 1_555
C135_2 C137_2 1_555 1_555
C154_2 C159_2 1_555 1_555
C156_2 C160_2 1_555 1_555
O45_2 H143_2 1_555 1_555
O45_2 H144_2 1_555 1_555
O46_2 H145_2 1_555 1_555
O46_2 H146_2 1_555 1_555
O47_2 H147_2 1_555 1_555
O47_2 H148_2 1_555 1_555
O22_2 H149_2 1_555 1_555
O22_2 H150_2 1_555 1_555
O10_2 C31_2 1_555 1_555
C31_2 N5_2 1_555 1_555
C32_2 O11_2 1_555 1_555
N5_2 C37_2 1_555 1_555
N6_2 C31_2 1_555 1_555
N7_2 C32_2 1_555 1_555
N8_2 C32_2 1_555 1_555
C37_2 C40_2 1_555 1_555
C38_2 N5_2 1_555 1_555
C39_2 N6_2 1_555 1_555
C40_2 N6_2 1_555 1_555
C41_2 N7_2 1_555 1_555
C42_2 N7_2 1_555 1_555
C43_2 N8_2 1_555 1_555
H23_2 C37_2 1_555 1_555
N13_2 C37_2 1_555 1_555
H24_2 C38_2 1_555 1_555
H25_2 C38_2 1_555 1_555
H26_2 C39_2 1_555 1_555
H27_2 C39_2 1_555 1_555
N14_2 C39_2 1_555 1_555
H28_2 C40_2 1_555 1_555
N15_2 C40_2 1_555 1_555
H29_2 C41_2 1_555 1_555
N16_2 C41_2 1_555 1_555
H31_2 C42_2 1_555 1_555
N17_2 C42_2 1_555 1_555
H32_2 C43_2 1_555 1_555
N18_2 C43_2 1_555 1_555
N25_2 C51_2 1_555 1_555
N26_2 C52_2 1_555 1_555
N27_2 C52_2 1_555 1_555
C63_2 N13_2 1_555 1_555
C64_2 N13_2 1_555 1_555
C65_2 N14_2 1_555 1_555
C66_2 N14_2 1_555 1_555
C67_2 N15_2 1_555 1_555
C68_2 N16_2 1_555 1_555
C69_2 N16_2 1_555 1_555
C70_2 N17_2 1_555 1_555
C78_2 N25_2 1_555 1_555
C80_2 N26_2 1_555 1_555
C81_2 N27_2 1_555 1_555
C82_2 N27_2 1_555 1_555
O62 C63_2 1_555 1_555
H47_2 C64_2 1_555 1_555
H48_2 C64_2 1_555 1_555
N34_2 C65_2 1_555 1_555
O30_2 C65_2 1_555 1_555
H49_2 C66_2 1_555 1_555
C96_2 C66_2 1_555 1_555
N35_2 C66_2 1_555 1_555
H50_2 C67_2 1_555 1_555
H51_2 C67_2 1_555 1_555
O31_2 C68_2 1_555 1_555
H52_2 C69_2 1_555 1_555
H53_2 C69_2 1_555 1_555
N36_2 C69_2 1_555 1_555
H54_2 C70_2 1_555 1_555
H63_2 C78_2 1_555 1_555
N39_2 C78_2 1_555 1_555
H66_2 C80_2 1_555 1_555
N40_2 C80_2 1_555 1_555
H67_2 C81_2 1_555 1_555
N41_2 C81_2 1_555 1_555
H69_2 C82_2 1_555 1_555
N42_2 C82_2 1_555 1_555
C99_2 N34_2 1_555 1_555
H86_2 C96_2 1_555 1_555
N52_2 C96_2 1_555 1_555
C100_2 N35_2 1_555 1_555
C101_2 N36_2 1_555 1_555
C104_2 N39_2 1_555 1_555
C105_2 N40_2 1_555 1_555
C106_2 N41_2 1_555 1_555
C107_2 N42_2 1_555 1_555
C108_2 N42_2 1_555 1_555
H90_2 C99_2 1_555 1_555
H91_2 C99_2 1_555 1_555
N53_2 C99_2 1_555 1_555
C120_2 N52_2 1_555 1_555
O35_2 C101_2 1_555 1_555
H92_2 C104_2 1_555 1_555
H93_2 C104_2 1_555 1_555
O38_2 C105_2 1_555 1_555
H94_2 C106_2 1_555 1_555
H95_2 C106_2 1_555 1_555
N54_2 C106_2 1_555 1_555
N55_2 C107_2 1_555 1_555
O39_2 C107_2 1_555 1_555
C121_2 C108_2 1_555 1_555
H96_2 C108_2 1_555 1_555
C123_2 N53_2 1_555 1_555
C124_2 N53_2 1_555 1_555
H107_2 C120_2 1_555 1_555
H108_2 C120_2 1_555 1_555
N59_2 C120_2 1_555 1_555
C125_2 N54_2 1_555 1_555
C126_2 N55_2 1_555 1_555
H109_2 C121_2 1_555 1_555
N60_2 C121_2 1_555 1_555
N61_2 C123_2 1_555 1_555
O44_2 C123_2 1_555 1_555
H111_2 C124_2 1_555 1_555
C131_2 C124_2 1_555 1_555
C132_2 N59_2 1_555 1_555
O48_2 C125_2 1_555 1_555
H112_2 C126_2 1_555 1_555
H113_2 C126_2 1_555 1_555
C133_2 N60_2 1_555 1_555
H116_2 C131_2 1_555 1_555
N62_2 C131_2 1_555 1_555
O51_2 C132_2 1_555 1_555
H117_2 C133_2 1_555 1_555
H118_2 C133_2 1_555 1_555
N8_2 C38_2 1_555 1_555
C41_2 C43_2 1_555 1_555
C51_2 N17_2 1_555 1_555
N15_2 C63_2 1_555 1_555
N18_2 C64_2 1_555 1_555
N18_2 C68_2 1_555 1_555
C67_2 N35_2 1_555 1_555
C70_2 C78_2 1_555 1_555
C70_2 N36_2 1_555 1_555
C80_2 C81_2 1_555 1_555
N34_2 C96_2 1_555 1_555
N39_2 C101_2 1_555 1_555
N40_2 C104_2 1_555 1_555
N41_2 C105_2 1_555 1_555
N52_2 C100_2 1_555 1_555
C100_2 O61 1_555 1_555
C108_2 N54_2 1_555 1_555
N55_2 C121_2 1_555 1_555
C124_2 N59_2 1_555 1_555
C125_2 N60_2 1_555 1_555
C126_2 N61_2 1_555 1_555
N61_2 C131_2 1_555 1_555
C132_2 N62_2 1_555 1_555
C133_2 N62_2 1_555 1_555
H77_3 C89_3 1_555 1_555
N48_3 C89_3 1_555 1_555
H80_3 C91_3 1_555 1_555
N50_3 C91_3 1_555 1_555
C115_3 N48_3 1_555 1_555
C116_3 N48_3 1_555 1_555
C118_3 N50_3 1_555 1_555
O43_3 C115_3 1_555 1_555
H102_3 C116_3 1_555 1_555
H103_3 C116_3 1_555 1_555
N57_3 C116_3 1_555 1_555
H105_3 C118_3 1_555 1_555
H106_3 C118_3 1_555 1_555
O46_3 Sr5_2 1_555 1_555
O47_3 Sr5_2 1_555 1_555
O49_3 C127_3 1_555 1_555
O52_3 C138_3 1_555 1_555
O61_2 Sr5_2 1_555 1_555
O62_2 Sr5_2 1_555 1_555
C89_3 C91_3 1_555 1_555
N50_3 C115_3 1_555 1_555
O43_3 Sr5_2 1_555 1_555
N57_3 C127_3 1_555 1_555
O46_3 H145_3 1_555 1_555
O46_3 H146_3 1_555 1_555
O47_3 H147_3 1_555 1_555
O47_3 H148_3 1_555 1_555
C149_3 C144_3 1_555 1_555
C150_3 C144_3 1_555 1_555
H125_3 C149_3 1_555 1_555
C153_3 C149_3 1_555 1_555
C154_3 C150_3 1_555 1_555
C159_3 C153_3 1_555 1_555
H131_3 C153_3 1_555 1_555
H132_3 C154_3 1_555 1_555
C165_3 C159_3 1_555 1_555
O56_3 C165_3 1_555 1_555
O28_2 C165_3 1_555 1_555
C154_3 C159_3 1_555 1_555
C145_3 N64_3 1_555 1_555
C151_3 C145_3 1_555 1_555
C152_3 C145_3 1_555 1_555
C155_3 C151_3 1_555 1_555
H127_3 C151_3 1_555 1_555
C156_3 C152_3 1_555 1_555
H128_3 C152_3 1_555 1_555
H133_3 C155_3 1_555 1_555
C160_3 C155_3 1_555 1_555
H134_3 C156_3 1_555 1_555
C166_3 C160_3 1_555 1_555
O64_2 C166_3 1_555 1_555
O65_2 C166_3 1_555 1_555
Sr7_2 O64_2 1_555 1_555
Sr6 O65_2 1_555 1_555
C156_3 C160_3 1_555 1_555
O65_2 Sr7_2 1_555 1_555
Sr1_2 O10_3 1_555 1_555
O10_3 C31_3 1_555 1_555
O11_3 Sr1_2 1_555 1_555
O12_3 Sr1_2 1_555 1_555
O13_3 Sr1_2 1_555 1_555
O14_3 Sr1_2 1_555 1_555
O15_3 Sr1_2 1_555 1_555
O16_2 Sr1_2 1_555 1_555
O17_2 Sr1_2 1_555 1_555
C31_3 N5_3 1_555 1_555
C32_3 O11_3 1_555 1_555
C33_3 O12_3 1_555 1_555
C34_3 O13_3 1_555 1_555
Sr2_3 O14_3 1_555 1_555
C35_3 O14_3 1_555 1_555
Sr6_2 O17_2 1_555 1_555
N5_3 C37_3 1_555 1_555
N6_3 C31_3 1_555 1_555
N7_3 C32_3 1_555 1_555
N8_3 C32_3 1_555 1_555
N9_3 C33_3 1_555 1_555
N10_3 C33_3 1_555 1_555
N11_3 C34_3 1_555 1_555
N12_3 C34_3 1_555 1_555
O18_3 Sr2_3 1_555 1_555
O19_3 Sr2_3 1_555 1_555
O20_3 Sr2_3 1_555 1_555
O21_3 Sr2_3 1_555 1_555
O22_3 Sr2_3 1_555 1_555
C36_3 C35_3 1_555 1_555
O23_3 C35_3 1_555 1_555
O24_3 Sr6_2 1_555 1_555
O25_3 Sr6_2 1_555 1_555
O26_3 Sr6_2 1_555 1_555
O27_3 Sr6_2 1_555 1_555
C37_3 C40_3 1_555 1_555
C38_3 N5_3 1_555 1_555
C39_3 N6_3 1_555 1_555
C40_3 N6_3 1_555 1_555
C41_3 N7_3 1_555 1_555
C42_3 N7_3 1_555 1_555
C43_3 N8_3 1_555 1_555
C44_3 N9_3 1_555 1_555
C45_3 N9_3 1_555 1_555
C46_3 N10_3 1_555 1_555
C47_3 N10_3 1_555 1_555
C48_3 N11_3 1_555 1_555
C49_3 N12_3 1_555 1_555
C50_3 N12_3 1_555 1_555
C51_3 O18_3 1_555 1_555
C52_3 O19_3 1_555 1_555
C53_3 O20_3 1_555 1_555
C54_3 O21_3 1_555 1_555
C55_3 C36_3 1_555 1_555
C56_3 C36_3 1_555 1_555
C57_3 O24_3 1_555 1_555
C58_3 O25_3 1_555 1_555
C59_3 O26_3 1_555 1_555
H23_3 C37_3 1_555 1_555
N13_3 C37_3 1_555 1_555
H24_3 C38_3 1_555 1_555
H25_3 C38_3 1_555 1_555
H26_3 C39_3 1_555 1_555
H27_3 C39_3 1_555 1_555
N14_3 C39_3 1_555 1_555
H28_3 C40_3 1_555 1_555
N15_3 C40_3 1_555 1_555
H29_3 C41_3 1_555 1_555
N16_3 C41_3 1_555 1_555
H30_3 C42_3 1_555 1_555
H31_3 C42_3 1_555 1_555
N17_3 C42_3 1_555 1_555
H32_3 C43_3 1_555 1_555
N18_3 C43_3 1_555 1_555
H33_3 C44_3 1_555 1_555
H34_3 C44_3 1_555 1_555
N19_3 C44_3 1_555 1_555
H35_3 C45_3 1_555 1_555
N20_3 C45_3 1_555 1_555
H36_3 C46_3 1_555 1_555
N21_3 C46_3 1_555 1_555
H37_3 C47_3 1_555 1_555
H38_3 C47_3 1_555 1_555
H39_3 C48_3 1_555 1_555
N22_3 C48_3 1_555 1_555
H40_3 C49_3 1_555 1_555
N23_3 C49_3 1_555 1_555
H41_3 C50_3 1_555 1_555
H42_3 C50_3 1_555 1_555
N24_3 C50_3 1_555 1_555
N25_3 C51_3 1_555 1_555
N26_3 C52_3 1_555 1_555
N27_3 C52_3 1_555 1_555
N28_3 C53_3 1_555 1_555
N29_3 C54_3 1_555 1_555
N30_3 C54_3 1_555 1_555
C60_3 C55_3 1_555 1_555
H43_3 C55_3 1_555 1_555
C61_3 C56_3 1_555 1_555
H44_3 C56_3 1_555 1_555
N31_3 C57_3 1_555 1_555
N32_3 C57_3 1_555 1_555
N33_3 C58_3 1_555 1_555
C62_3 C59_3 1_555 1_555
C63_3 N13_3 1_555 1_555
C64_3 N13_3 1_555 1_555
C65_3 N14_3 1_555 1_555
C66_3 N14_3 1_555 1_555
C67_3 N15_3 1_555 1_555
C68_3 N16_3 1_555 1_555
C69_3 N16_3 1_555 1_555
C70_3 N17_3 1_555 1_555
C71_3 N19_3 1_555 1_555
C72_3 N20_3 1_555 1_555
C73_3 N20_3 1_555 1_555
C74_3 N21_3 1_555 1_555
C75_3 N22_3 1_555 1_555
C76_3 N23_3 1_555 1_555
C77_3 N24_3 1_555 1_555
C78_3 N25_3 1_555 1_555
C79_3 N25_3 1_555 1_555
C80_3 N26_3 1_555 1_555
C81_3 N27_3 1_555 1_555
C82_3 N27_3 1_555 1_555
C83_3 N28_3 1_555 1_555
C84_3 N28_3 1_555 1_555
C85_3 N29_3 1_555 1_555
C86_3 N30_3 1_555 1_555
C87_3 N30_3 1_555 1_555
C88_3 C60_3 1_555 1_555
H45_3 C60_3 1_555 1_555
H46_3 C61_3 1_555 1_555
C90_3 N31_3 1_555 1_555
C92_3 N32_3 1_555 1_555
C93_3 N33_3 1_555 1_555
C94_3 C62_3 1_555 1_555
C95_3 C62_3 1_555 1_555
O62_2 C63_3 1_555 1_555
H47_3 C64_3 1_555 1_555
H48_3 C64_3 1_555 1_555
N34_3 C65_3 1_555 1_555
O30_3 C65_3 1_555 1_555
H49_3 C66_3 1_555 1_555
C96_3 C66_3 1_555 1_555
N35_3 C66_3 1_555 1_555
H50_3 C67_3 1_555 1_555
H51_3 C67_3 1_555 1_555
O31_3 C68_3 1_555 1_555
H52_3 C69_3 1_555 1_555
H53_3 C69_3 1_555 1_555
N36_3 C69_3 1_555 1_555
H54_3 C70_3 1_555 1_555
H55_3 C71_3 1_555 1_555
N37_3 C71_3 1_555 1_555
H56_3 C72_3 1_555 1_555
H57_3 C72_3 1_555 1_555
O32_3 C73_3 1_555 1_555
H58_3 C74_3 1_555 1_555
H59_3 C74_3 1_555 1_555
O33_3 C75_3 1_555 1_555
H60_3 C76_3 1_555 1_555
H61_3 C76_3 1_555 1_555
N38_3 C76_3 1_555 1_555
H62_3 C77_3 1_555 1_555
H63_3 C78_3 1_555 1_555
N39_3 C78_3 1_555 1_555
H64_3 C79_3 1_555 1_555
H65_3 C79_3 1_555 1_555
H66_3 C80_3 1_555 1_555
N40_3 C80_3 1_555 1_555
H67_3 C81_3 1_555 1_555
N41_3 C81_3 1_555 1_555
H68_3 C82_3 1_555 1_555
H69_3 C82_3 1_555 1_555
N42_3 C82_3 1_555 1_555
H70_3 C83_3 1_555 1_555
N43_3 C83_3 1_555 1_555
H71_3 C84_3 1_555 1_555
H72_3 C84_3 1_555 1_555
H73_3 C85_3 1_555 1_555
N44_3 C85_3 1_555 1_555
H74_3 C86_3 1_555 1_555
N45_3 C86_3 1_555 1_555
H75_3 C87_3 1_555 1_555
H76_3 C87_3 1_555 1_555
N46_3 C87_3 1_555 1_555
N47_3 C88_3 1_555 1_555
H78_3 C90_3 1_555 1_555
H79_3 C90_3 1_555 1_555
N49_3 C90_3 1_555 1_555
H81_3 C92_3 1_555 1_555
H82_3 C92_3 1_555 1_555
H83_3 C93_3 1_555 1_555
N51_3 C93_3 1_555 1_555
C97_3 C94_3 1_555 1_555
H84_3 C94_3 1_555 1_555
H85_3 C95_3 1_555 1_555
C98_3 C95_3 1_555 1_555
C99_3 N34_3 1_555 1_555
H86_3 C96_3 1_555 1_555
N52_3 C96_3 1_555 1_555
C100_3 N35_3 1_555 1_555
C101_3 N36_3 1_555 1_555
C102_3 N37_3 1_555 1_555
C103_3 N38_3 1_555 1_555
C104_3 N39_3 1_555 1_555
C105_3 N40_3 1_555 1_555
C106_3 N41_3 1_555 1_555
C107_3 N42_3 1_555 1_555
C108_3 N42_3 1_555 1_555
C109_3 N43_3 1_555 1_555
C110_3 N44_3 1_555 1_555
C111_3 N45_3 1_555 1_555
C112_3 N46_3 1_555 1_555
C113_3 N46_3 1_555 1_555
C114_3 N47_3 1_555 1_555
H87_3 N47_3 1_555 1_555
C117_3 N49_3 1_555 1_555
H88_2 C97_3 1_555 1_555
C119_3 C97_3 1_555 1_555
H89_3 C98_3 1_555 1_555
H90_3 C99_3 1_555 1_555
H91_3 C99_3 1_555 1_555
N53_3 C99_3 1_555 1_555
C120_3 N52_3 1_555 1_555
O35_3 C101_3 1_555 1_555
O36_3 C102_3 1_555 1_555
O37_3 C103_3 1_555 1_555
H92_3 C104_3 1_555 1_555
H93_3 C104_3 1_555 1_555
O38_3 C105_3 1_555 1_555
H94_3 C106_3 1_555 1_555
H95_3 C106_3 1_555 1_555
N54_3 C106_3 1_555 1_555
N55_3 C107_3 1_555 1_555
O39_3 C107_3 1_555 1_555
C121_3 C108_3 1_555 1_555
H98_3 C109_3 1_555 1_555
O40_3 C110_3 1_555 1_555
H99_3 C111_3 1_555 1_555
H100_3 C111_3 1_555 1_555
N56_3 C111_3 1_555 1_555
O41_3 C112_3 1_555 1_555
H101_3 C113_3 1_555 1_555
C122_3 C114_3 1_555 1_555
O42_3 C114_3 1_555 1_555
N58_2 C119_3 1_555 1_555
C123_3 N53_3 1_555 1_555
C124_3 N53_3 1_555 1_555
H107_3 C120_3 1_555 1_555
H108_3 C120_3 1_555 1_555
N59_3 C120_3 1_555 1_555
C125_3 N54_3 1_555 1_555
C126_3 N55_3 1_555 1_555
N60_3 C121_3 1_555 1_555
C128_3 C122_3 1_555 1_555
C129_3 C122_3 1_555 1_555
C130_2 N58_2 1_555 1_555
H110_2 N58_2 1_555 1_555
N61_3 C123_3 1_555 1_555
O44_3 C123_3 1_555 1_555
H111_3 C124_3 1_555 1_555
C131_3 C124_3 1_555 1_555
C132_3 N59_3 1_555 1_555
O48_3 C125_3 1_555 1_555
H113_3 C126_3 1_555 1_555
C133_3 N60_3 1_555 1_555
C134_3 C128_3 1_555 1_555
H114_3 C128_3 1_555 1_555
C135_3 C129_3 1_555 1_555
H115_3 C129_3 1_555 1_555
C136_2 C130_2 1_555 1_555
O50_2 C130_2 1_555 1_555
H116_3 C131_3 1_555 1_555
N62_3 C131_3 1_555 1_555
O51_3 C132_3 1_555 1_555
H117_3 C133_3 1_555 1_555
H118_3 C133_3 1_555 1_555
C137_3 C134_3 1_555 1_555
C139_3 C135_3 1_555 1_555
C140_2 C136_2 1_555 1_555
C141_2 C136_2 1_555 1_555
H119_3 C137_3 1_555 1_555
H120_2 C140_2 1_555 1_555
C142_2 C140_2 1_555 1_555
H121_2 C141_2 1_555 1_555
C143_2 C141_2 1_555 1_555
H122_3 N63_3 1_555 1_555
C146_2 C142_2 1_555 1_555
C147_2 C142_2 1_555 1_555
C148_2 C143_2 1_555 1_555
H124_2 C146_2 1_555 1_555
N65_2 C147_2 1_555 1_555
O54_2 C147_2 1_555 1_555
N66_2 C148_2 1_555 1_555
O55_2 C148_2 1_555 1_555
C157_2 N65_2 1_555 1_555
H129_2 N65_2 1_555 1_555
C158_2 N66_2 1_555 1_555
H130_2 N66_2 1_555 1_555
C161_2 C157_2 1_555 1_555
C162_2 C157_2 1_555 1_555
C163_2 C158_2 1_555 1_555
C164_2 C158_2 1_555 1_555
H135_2 C161_2 1_555 1_555
C167_2 C161_2 1_555 1_555
C168_2 C162_2 1_555 1_555
H136_2 C162_2 1_555 1_555
H137_2 C163_2 1_555 1_555
C169_2 C163_2 1_555 1_555
H138_2 C164_2 1_555 1_555
C170_2 C164_2 1_555 1_555
H139_2 C167_2 1_555 1_555
C171_2 C167_2 1_555 1_555
H140_2 C168_2 1_555 1_555
H141_2 C169_2 1_555 1_555
C172_2 C169_2 1_555 1_555
H142_2 C170_2 1_555 1_555
C173_2 C171_2 1_555 1_555
C174_2 C172_2 1_555 1_555
O57_2 C173_2 1_555 1_555
O58_2 C173_2 1_555 1_555
O59_2 C174_2 1_555 1_555
O60_2 C174_2 1_555 1_555
O15_3 Sr2_3 1_555 1_555
Sr6_2 O23_3 1_555 1_555
N8_3 C38_3 1_555 1_555
N11_3 C47_3 1_555 1_555
O27_3 C59_3 1_555 1_555
C41_3 C43_3 1_555 1_555
C45_3 C46_3 1_555 1_555
C48_3 C49_3 1_555 1_555
C51_3 N17_3 1_555 1_555
C53_3 N24_3 1_555 1_555
C58_3 N19_3 1_555 1_555
N15_3 C63_3 1_555 1_555
N18_3 C64_3 1_555 1_555
N18_3 C68_3 1_555 1_555
N21_3 C73_3 1_555 1_555
N22_3 C74_3 1_555 1_555
N23_3 C75_3 1_555 1_555
N26_3 C79_3 1_555 1_555
N29_3 C84_3 1_555 1_555
C61_3 C88_3 1_555 1_555
N33_3 C92_3 1_555 1_555
C67_3 N35_3 1_555 1_555
C70_3 C78_3 1_555 1_555
C70_3 N36_3 1_555 1_555
C71_3 C93_3 1_555 1_555
C72_3 N37_3 1_555 1_555
C77_3 C83_3 1_555 1_555
C77_3 N38_3 1_555 1_555
C80_3 C81_3 1_555 1_555
C85_3 C86_3 1_555 1_555
N34_3 C96_3 1_555 1_555
N39_3 C101_3 1_555 1_555
N40_3 C104_3 1_555 1_555
N41_3 C105_3 1_555 1_555
N43_3 C103_3 1_555 1_555
N44_3 C109_3 1_555 1_555
N45_3 C110_3 1_555 1_555
N49_3 C112_3 1_555 1_555
N51_3 C102_3 1_555 1_555
C98_3 C119_3 1_555 1_555
N52_3 C100_3 1_555 1_555
C100_3 O61_2 1_555 1_555
C108_3 N54_3 1_555 1_555
C113_3 C117_3 1_555 1_555
C113_3 N56_3 1_555 1_555
N55_3 C121_3 1_555 1_555
C124_3 N59_3 1_555 1_555
C125_3 N60_3 1_555 1_555
C126_3 N61_3 1_555 1_555
N61_3 C131_3 1_555 1_555
C132_3 N62_3 1_555 1_555
C133_3 N62_3 1_555 1_555
C135_3 C137_3 1_555 1_555
C143_2 C146_2 1_555 1_555
C168_2 C171_2 1_555 1_555
C170_2 C172_2 1_555 1_555
O45_3 H143_3 1_555 1_555
O45_3 H144_3 1_555 1_555
O22_3 H149_3 1_555 1_555
O22_3 H150_3 1_555 1_555
O10_4 C31_4 1_555 1_555
C31_4 N5_4 1_555 1_555
C32_4 O11_4 1_555 1_555
N5_4 C37_4 1_555 1_555
N6_4 C31_4 1_555 1_555
N7_4 C32_4 1_555 1_555
N8_4 C32_4 1_555 1_555
C37_4 C40_4 1_555 1_555
C38_4 N5_4 1_555 1_555
C39_4 N6_4 1_555 1_555
C40_4 N6_4 1_555 1_555
C41_4 N7_4 1_555 1_555
C42_4 N7_4 1_555 1_555
C43_4 N8_4 1_555 1_555
H23_4 C37_4 1_555 1_555
N13_4 C37_4 1_555 1_555
H24_4 C38_4 1_555 1_555
H25_4 C38_4 1_555 1_555
H26_4 C39_4 1_555 1_555
H27_4 C39_4 1_555 1_555
N14_4 C39_4 1_555 1_555
H28_4 C40_4 1_555 1_555
N15_4 C40_4 1_555 1_555
H29_4 C41_4 1_555 1_555
N16_4 C41_4 1_555 1_555
H31_4 C42_4 1_555 1_555
N17_4 C42_4 1_555 1_555
H32_4 C43_4 1_555 1_555
N18_4 C43_4 1_555 1_555
N25_4 C51_4 1_555 1_555
N26_4 C52_4 1_555 1_555
N27_4 C52_4 1_555 1_555
C63_4 N13_4 1_555 1_555
C64_4 N13_4 1_555 1_555
C65_4 N14_4 1_555 1_555
C66_4 N14_4 1_555 1_555
C67_4 N15_4 1_555 1_555
C68_4 N16_4 1_555 1_555
C69_4 N16_4 1_555 1_555
C70_4 N17_4 1_555 1_555
C78_4 N25_4 1_555 1_555
C80_4 N26_4 1_555 1_555
C81_4 N27_4 1_555 1_555
C82_4 N27_4 1_555 1_555
O29_2 C63_4 1_555 1_555
H47_4 C64_4 1_555 1_555
H48_4 C64_4 1_555 1_555
N34_4 C65_4 1_555 1_555
O30_4 C65_4 1_555 1_555
H49_4 C66_4 1_555 1_555
C96_4 C66_4 1_555 1_555
N35_4 C66_4 1_555 1_555
H50_4 C67_4 1_555 1_555
H51_4 C67_4 1_555 1_555
O31_4 C68_4 1_555 1_555
H52_4 C69_4 1_555 1_555
H53_4 C69_4 1_555 1_555
N36_4 C69_4 1_555 1_555
H54_4 C70_4 1_555 1_555
H63_4 C78_4 1_555 1_555
N39_4 C78_4 1_555 1_555
H66_4 C80_4 1_555 1_555
N40_4 C80_4 1_555 1_555
H67_4 C81_4 1_555 1_555
N41_4 C81_4 1_555 1_555
H69_4 C82_4 1_555 1_555
N42_4 C82_4 1_555 1_555
Sr4_2 O29_2 1_555 1_555
C99_4 N34_4 1_555 1_555
H86_4 C96_4 1_555 1_555
N52_4 C96_4 1_555 1_555
C100_4 N35_4 1_555 1_555
C101_4 N36_4 1_555 1_555
C104_4 N39_4 1_555 1_555
C105_4 N40_4 1_555 1_555
C106_4 N41_4 1_555 1_555
C107_4 N42_4 1_555 1_555
C108_4 N42_4 1_555 1_555
O34_2 Sr4_2 1_555 1_555
H90_4 C99_4 1_555 1_555
H91_4 C99_4 1_555 1_555
N53_4 C99_4 1_555 1_555
C120_4 N52_4 1_555 1_555
O35_4 C101_4 1_555 1_555
H92_4 C104_4 1_555 1_555
H93_4 C104_4 1_555 1_555
O38_4 C105_4 1_555 1_555
H94_4 C106_4 1_555 1_555
H95_4 C106_4 1_555 1_555
N54_4 C106_4 1_555 1_555
N55_4 C107_4 1_555 1_555
O39_4 C107_4 1_555 1_555
C121_4 C108_4 1_555 1_555
H96_4 C108_4 1_555 1_555
C123_4 N53_4 1_555 1_555
C124_4 N53_4 1_555 1_555
H107_4 C120_4 1_555 1_555
H108_4 C120_4 1_555 1_555
N59_4 C120_4 1_555 1_555
C125_4 N54_4 1_555 1_555
C126_4 N55_4 1_555 1_555
H109_4 C121_4 1_555 1_555
N60_4 C121_4 1_555 1_555
N61_4 C123_4 1_555 1_555
O44_4 C123_4 1_555 1_555
H111_4 C124_4 1_555 1_555
C131_4 C124_4 1_555 1_555
C132_4 N59_4 1_555 1_555
O48_4 C125_4 1_555 1_555
H112_4 C126_4 1_555 1_555
H113_4 C126_4 1_555 1_555
C133_4 N60_4 1_555 1_555
H116_4 C131_4 1_555 1_555
N62_4 C131_4 1_555 1_555
O51_4 C132_4 1_555 1_555
H117_4 C133_4 1_555 1_555
H118_4 C133_4 1_555 1_555
N8_4 C38_4 1_555 1_555
C41_4 C43_4 1_555 1_555
C51_4 N17_4 1_555 1_555
N15_4 C63_4 1_555 1_555
N18_4 C64_4 1_555 1_555
N18_4 C68_4 1_555 1_555
C67_4 N35_4 1_555 1_555
C70_4 C78_4 1_555 1_555
C70_4 N36_4 1_555 1_555
C80_4 C81_4 1_555 1_555
N34_4 C96_4 1_555 1_555
N39_4 C101_4 1_555 1_555
N40_4 C104_4 1_555 1_555
N41_4 C105_4 1_555 1_555
N52_4 C100_4 1_555 1_555
C100_4 O34_2 1_555 1_555
C108_4 N54_4 1_555 1_555
N55_4 C121_4 1_555 1_555
C124_4 N59_4 1_555 1_555
C125_4 N60_4 1_555 1_555
C126_4 N61_4 1_555 1_555
N61_4 C131_4 1_555 1_555
C132_4 N62_4 1_555 1_555
C133_4 N62_4 1_555 1_555
O12_4 Sr7_2 1_555 1_555
O13_4 Sr7_2 1_555 1_555
O14_4 Sr7_2 1_555 1_555
O15_4 Sr7_2 1_555 1_555
C33_4 O12_4 1_555 1_555
C34_4 O13_4 1_555 1_555
Sr2_4 O14_4 1_555 1_555
C35_4 O14_4 1_555 1_555
N9_4 C33_4 1_555 1_555
N10_4 C33_4 1_555 1_555
N11_4 C34_4 1_555 1_555
N12_4 C34_4 1_555 1_555
O18_4 Sr2_4 1_555 1_555
O19_4 Sr2_4 1_555 1_555
O20_4 Sr2_4 1_555 1_555
O21_4 Sr2_4 1_555 1_555
O22_4 Sr2_4 1_555 1_555
C36_4 C35_4 1_555 1_555
O23_4 C35_4 1_555 1_555
O24_4 Sr6 1_555 1_555
O25_4 Sr6 1_555 1_555
O26_4 Sr6 1_555 1_555
O27_4 Sr6 1_555 1_555
C44_4 N9_4 1_555 1_555
C45_4 N9_4 1_555 1_555
C46_4 N10_4 1_555 1_555
C47_4 N10_4 1_555 1_555
C48_4 N11_4 1_555 1_555
C49_4 N12_4 1_555 1_555
C50_4 N12_4 1_555 1_555
C53_4 O20_4 1_555 1_555
C54_4 O21_4 1_555 1_555
C55_4 C36_4 1_555 1_555
C56_4 C36_4 1_555 1_555
C57_4 O24_4 1_555 1_555
C58_4 O25_4 1_555 1_555
C59_4 O26_4 1_555 1_555
H33_4 C44_4 1_555 1_555
H34_4 C44_4 1_555 1_555
N19_4 C44_4 1_555 1_555
H35_4 C45_4 1_555 1_555
N20_4 C45_4 1_555 1_555
H36_4 C46_4 1_555 1_555
N21_4 C46_4 1_555 1_555
H37_4 C47_4 1_555 1_555
H38_4 C47_4 1_555 1_555
H39_4 C48_4 1_555 1_555
N22_4 C48_4 1_555 1_555
H40_4 C49_4 1_555 1_555
N23_4 C49_4 1_555 1_555
H41_4 C50_4 1_555 1_555
H42_4 C50_4 1_555 1_555
N24_4 C50_4 1_555 1_555
N28_4 C53_4 1_555 1_555
N29_4 C54_4 1_555 1_555
N30_4 C54_4 1_555 1_555
C60_4 C55_4 1_555 1_555
H43_4 C55_4 1_555 1_555
C61_4 C56_4 1_555 1_555
H44_4 C56_4 1_555 1_555
N31_4 C57_4 1_555 1_555
N32_4 C57_4 1_555 1_555
N33_4 C58_4 1_555 1_555
C62_4 C59_4 1_555 1_555
C71_4 N19_4 1_555 1_555
C72_4 N20_4 1_555 1_555
C73_4 N20_4 1_555 1_555
C74_4 N21_4 1_555 1_555
C75_4 N22_4 1_555 1_555
C76_4 N23_4 1_555 1_555
C77_4 N24_4 1_555 1_555
C83_4 N28_4 1_555 1_555
C84_4 N28_4 1_555 1_555
C85_4 N29_4 1_555 1_555
C86_4 N30_4 1_555 1_555
C87_4 N30_4 1_555 1_555
C88_4 C60_4 1_555 1_555
H45_4 C60_4 1_555 1_555
H46_4 C61_4 1_555 1_555
C89_4 N31_4 1_555 1_555
C90_4 N31_4 1_555 1_555
C91_4 N32_4 1_555 1_555
C92_4 N32_4 1_555 1_555
C93_4 N33_4 1_555 1_555
C94_4 C62_4 1_555 1_555
C95_4 C62_4 1_555 1_555
H55_4 C71_4 1_555 1_555
N37_4 C71_4 1_555 1_555
H56_4 C72_4 1_555 1_555
H57_4 C72_4 1_555 1_555
O32_4 C73_4 1_555 1_555
H58_4 C74_4 1_555 1_555
H59_4 C74_4 1_555 1_555
O33_4 C75_4 1_555 1_555
H60_4 C76_4 1_555 1_555
H61_4 C76_4 1_555 1_555
N38_4 C76_4 1_555 1_555
H62_4 C77_4 1_555 1_555
H64_4 C79_4 1_555 1_555
H65_4 C79_4 1_555 1_555
H70_4 C83_4 1_555 1_555
N43_4 C83_4 1_555 1_555
H71_4 C84_4 1_555 1_555
H72_4 C84_4 1_555 1_555
H73_4 C85_4 1_555 1_555
N44_4 C85_4 1_555 1_555
H74_4 C86_4 1_555 1_555
N45_4 C86_4 1_555 1_555
H75_4 C87_4 1_555 1_555
H76_4 C87_4 1_555 1_555
N46_4 C87_4 1_555 1_555
N47_4 C88_4 1_555 1_555
H77_4 C89_4 1_555 1_555
N48_4 C89_4 1_555 1_555
H78_4 C90_4 1_555 1_555
H79_4 C90_4 1_555 1_555
N49_4 C90_4 1_555 1_555
H80_4 C91_4 1_555 1_555
N50_4 C91_4 1_555 1_555
H81_4 C92_4 1_555 1_555
H82_4 C92_4 1_555 1_555
H83_4 C93_4 1_555 1_555
N51_4 C93_4 1_555 1_555
C97_4 C94_4 1_555 1_555
H84_4 C94_4 1_555 1_555
H85_4 C95_4 1_555 1_555
C98_4 C95_4 1_555 1_555
C102_4 N37_4 1_555 1_555
C103_4 N38_4 1_555 1_555
C109_4 N43_4 1_555 1_555
C110_4 N44_4 1_555 1_555
C111_4 N45_4 1_555 1_555
C112_4 N46_4 1_555 1_555
C113_4 N46_4 1_555 1_555
C114_4 N47_4 1_555 1_555
H87_4 N47_4 1_555 1_555
C115_4 N48_4 1_555 1_555
C116_4 N48_4 1_555 1_555
C117_4 N49_4 1_555 1_555
C118_4 N50_4 1_555 1_555
C119_4 C97_4 1_555 1_555
H89_4 C98_4 1_555 1_555
O36_4 C102_4 1_555 1_555
O37_4 C103_4 1_555 1_555
H97_4 C109_4 1_555 1_555
H98_4 C109_4 1_555 1_555
O40_4 C110_4 1_555 1_555
H99_4 C111_4 1_555 1_555
H100_4 C111_4 1_555 1_555
N56_4 C111_4 1_555 1_555
O41_4 C112_4 1_555 1_555
H101_4 C113_4 1_555 1_555
C122_4 C114_4 1_555 1_555
O42_4 C114_4 1_555 1_555
O43_4 C115_4 1_555 1_555
H102_4 C116_4 1_555 1_555
H103_4 C116_4 1_555 1_555
N57_4 C116_4 1_555 1_555
H104_4 C117_4 1_555 1_555
H105_4 C118_4 1_555 1_555
H106_4 C118_4 1_555 1_555
C127_4 N56_4 1_555 1_555
C128_4 C122_4 1_555 1_555
C129_4 C122_4 1_555 1_555
O45_4 Sr4_2 1_555 1_555
O46_4 Sr4_2 1_555 1_555
O47_4 Sr4_2 1_555 1_555
O49_4 C127_4 1_555 1_555
C134_4 C128_4 1_555 1_555
H114_4 C128_4 1_555 1_555
C135_4 C129_4 1_555 1_555
H115_4 C129_4 1_555 1_555
C137_4 C134_4 1_555 1_555
C138_4 C134_4 1_555 1_555
C139_4 C135_4 1_555 1_555
H119_4 C137_4 1_555 1_555
N63_4 C138_4 1_555 1_555
O52_4 C138_4 1_555 1_555
N64_4 C139_4 1_555 1_555
O53_4 C139_4 1_555 1_555
C144_4 N63_4 1_555 1_555
H122_4 N63_4 1_555 1_555
C145_4 N64_4 1_555 1_555
H123_4 N64_4 1_555 1_555
C149_4 C144_4 1_555 1_555
C150_4 C144_4 1_555 1_555
C151_4 C145_4 1_555 1_555
C152_4 C145_4 1_555 1_555
H125_4 C149_4 1_555 1_555
C153_4 C149_4 1_555 1_555
C154_4 C150_4 1_555 1_555
H126_4 C150_4 1_555 1_555
C155_4 C151_4 1_555 1_555
H127_4 C151_4 1_555 1_555
C156_4 C152_4 1_555 1_555
H128_4 C152_4 1_555 1_555
C159_4 C153_4 1_555 1_555
H131_4 C153_4 1_555 1_555
H132_4 C154_4 1_555 1_555
H133_4 C155_4 1_555 1_555
C160_4 C155_4 1_555 1_555
H134_4 C156_4 1_555 1_555
C165_4 C159_4 1_555 1_555
C166_4 C160_4 1_555 1_555
O56_4 C165_4 1_555 1_555
Sr4_2 O36_4 1_555 1_555
O28 C165_4 1_555 1_555
O16_2 C166_4 1_555 1_555
O17_2 C166_4 1_555 1_555
O15_4 Sr2_4 1_555 1_555
Sr6 O23_4 1_555 1_555
N11_4 C47_4 1_555 1_555
O27_4 C59_4 1_555 1_555
C45_4 C46_4 1_555 1_555
C48_4 C49_4 1_555 1_555
C53_4 N24_4 1_555 1_555
C58_4 N19_4 1_555 1_555
N21_4 C73_4 1_555 1_555
N22_4 C74_4 1_555 1_555
N23_4 C75_4 1_555 1_555
N29_4 C84_4 1_555 1_555
C61_4 C88_4 1_555 1_555
N33_4 C92_4 1_555 1_555
C71_4 C93_4 1_555 1_555
C72_4 N37_4 1_555 1_555
C77_4 C83_4 1_555 1_555
C77_4 N38_4 1_555 1_555
C85_4 C86_4 1_555 1_555
C89_4 C91_4 1_555 1_555
N43_4 C103_4 1_555 1_555
N44_4 C109_4 1_555 1_555
N45_4 C110_4 1_555 1_555
N49_4 C112_4 1_555 1_555
N50_4 C115_4 1_555 1_555
N51_4 C102_4 1_555 1_555
N51_4 C118_4 1_555 1_555
C98_4 C119_4 1_555 1_555
C113_4 C117_4 1_555 1_555
C113_4 N56_4 1_555 1_555
C117_4 N57_4 1_555 1_555
O42_4 Sr4_2 1_555 1_555
O43_4 Sr4_2 1_555 1_555
N57_4 C127_4 1_555 1_555
C135_4 C137_4 1_555 1_555
C154_4 C159_4 1_555 1_555
C156_4 C160_4 1_555 1_555
O45_4 H143_4 1_555 1_555
O45_4 H144_4 1_555 1_555
O46_4 H145_4 1_555 1_555
O46_4 H146_4 1_555 1_555
O47_4 H147_4 1_555 1_555
O47_4 H148_4 1_555 1_555
O22_4 H149_4 1_555 1_555
O22_4 H150_4 1_555 1_555
C140_3 C136_3 1_555 1_555
H120_3 C140_3 1_555 1_555
C142_3 C140_3 1_555 1_555
C146_3 C142_3 1_555 1_555
C147_3 C142_3 1_555 1_555
C148_3 C143_3 1_555 1_555
H124_3 C146_3 1_555 1_555
N65_3 C147_3 1_555 1_555
O54_3 C147_3 1_555 1_555
N66_3 C148_3 1_555 1_555
C157_3 N65_3 1_555 1_555
H129_3 N65_3 1_555 1_555
C158_3 N66_3 1_555 1_555
H130_3 N66_3 1_555 1_555
C161_3 C157_3 1_555 1_555
C162_3 C157_3 1_555 1_555
C164_3 C158_3 1_555 1_555
H135_3 C161_3 1_555 1_555
C167_3 C161_3 1_555 1_555
C168_3 C162_3 1_555 1_555
H136_3 C162_3 1_555 1_555
H138_3 C164_3 1_555 1_555
C170_3 C164_3 1_555 1_555
H139_3 C167_3 1_555 1_555
C171_3 C167_3 1_555 1_555
H140_3 C168_3 1_555 1_555
H142_3 C170_3 1_555 1_555
C173_3 C171_3 1_555 1_555
O57_3 C173_3 1_555 1_555
O58_3 C173_3 1_555 1_555
C143_3 C146_3 1_555 1_555
C168_3 C171_3 1_555 1_555
C170_3 C172_3 1_555 1_555
C130_3 N58_3 1_555 1_555
H110_3 N58_3 1_555 1_555
O50_3 C130_3 1_555 1_555
H121_3 C141_3 1_555 1_555
H137_3 C163_3 1_555 1_555
C169_3 C163_3 1_555 1_555
H141_3 C169_3 1_555 1_555
O60_3 C174_3 1_555 1_555
C130_4 N58_4 1_555 1_555
H110_4 N58_4 1_555 1_555
O50_4 C130_4 1_555 1_555
H121_4 C141_4 1_555 1_555
H137_4 C163_4 1_555 1_555
C169_4 C163_4 1_555 1_555
H141_4 C169_4 1_555 1_555
O60_4 C174_4 1_555 1_555
C140_4 C136_4 1_555 1_555
H120_4 C140_4 1_555 1_555
C142_4 C140_4 1_555 1_555
C146_4 C142_4 1_555 1_555
C147_4 C142_4 1_555 1_555
C148_4 C143_4 1_555 1_555
H124_4 C146_4 1_555 1_555
N65_4 C147_4 1_555 1_555
O54_4 C147_4 1_555 1_555
N66_4 C148_4 1_555 1_555
C157_4 N65_4 1_555 1_555
H129_4 N65_4 1_555 1_555
C158_4 N66_4 1_555 1_555
H130_4 N66_4 1_555 1_555
C161_4 C157_4 1_555 1_555
C162_4 C157_4 1_555 1_555
C164_4 C158_4 1_555 1_555
H135_4 C161_4 1_555 1_555
C167_4 C161_4 1_555 1_555
C168_4 C162_4 1_555 1_555
H136_4 C162_4 1_555 1_555
H138_4 C164_4 1_555 1_555
C170_4 C164_4 1_555 1_555
H139_4 C167_4 1_555 1_555
C171_4 C167_4 1_555 1_555
H140_4 C168_4 1_555 1_555
H142_4 C170_4 1_555 1_555
C173_4 C171_4 1_555 1_555
O57_4 C173_4 1_555 1_555
O58_4 C173_4 1_555 1_555
C143_4 C146_4 1_555 1_555
C168_4 C171_4 1_555 1_555
C170_4 C172_4 1_555 1_555

#END
