
###############################################################################
#
# This file contains modified crystal structure data generated from the
# MOF subset of the Cambridge Structural Database (CSD) v543 
# hosted by the Cambridge Crystallographic Data Centre (CCDC).
#
# This work is licensed under the Creative Commons
# Attribution-NonCommercial-ShareAlike 4.0 International License.
# To view a copy of this license, visit
# http://creativecommons.org/licenses/by-nc-sa/4.0/
# or send a letter to
# Creative Commons, PO Box 1866, Mountain View, CA 94042, USA.
#
# CIF created using the CSD Python API on 29 September 2022
# The structure has been converted into the P1 space group
# The structure has a 3D framework
# The original CSD entry WULWUY is in the monoclinic crystal system
# The framework has been calculated to contain at least 10.0% void space
# The void calculation uses a probe of radius 1.32A, grid spacing 0.4
# H atom positions have been added when not included in the experimental data
#
###############################################################################

data_WULWUY
_chemical_formula_moiety         '(C696 H624 N264 O246 Sr16)n'
_symmetry_cell_setting           triclinic
_symmetry_space_group_name_H-M   'P 1'
_symmetry_Int_Tables_number      1
_space_group_name_Hall           'P 1'
loop_
_symmetry_equiv_pos_site_id
_symmetry_equiv_pos_as_xyz
1 x,y,z
_cell_length_a                   19.5045(9)
_cell_length_b                   34.0092(17)
_cell_length_c                   33.7953(15)
_cell_angle_alpha                90
_cell_angle_beta                 103.296(2)
_cell_angle_gamma                90
_cell_volume                     21816.6
loop_
_atom_site_label
_atom_site_type_symbol
_atom_site_fract_x
_atom_site_fract_y
_atom_site_fract_z
C1 C 0.5456(5) 0.3325(3) 0.0007(3)
C2 C 0.5543(4) 0.2899(2) 0.0111(2)
C3 C 0.6189(4) 0.2715(2) 0.0149(2)
H1 H 0.658522 0.285995 0.011183
C4 C 0.6252(4) 0.2320(2) 0.0242(2)
H2 H 0.669278 0.219272 0.026242
C5 C 0.5688(4) 0.2107(2) 0.0307(2)
C6 C 0.5042(4) 0.2291(2) 0.0273(2)
H3 H 0.464789 0.214593 0.031424
C7 C 0.4978(4) 0.2682(2) 0.0181(2)
H4 H 0.453829 0.280933 0.016464
C8 C 0.5382(4) 0.1416(2) 0.0165(2)
C9 C 0.5602(3) 0.1008(2) 0.0313(2)
C10 C 0.5679(3) 0.0890(2) 0.0714(2)
H5 H 0.561282 0.107460 0.091285
C11 C 0.5850(3) 0.0504(2) 0.0826(2)
C12 C 0.5975(3) 0.0237(2) 0.0538(2)
C13 C 0.5918(3) 0.0360(2) 0.0131(2)
C14 C 0.5716(3) 0.0744(2) 0.0026(2)
C23 C 0.5885(4) 0.0351(2) 0.1243(2)
C24 C 0.6282(4) 0.0506(2) 0.1963(2)
C25 C 0.6911(4) 0.0604(2) 0.2219(2)
H12 H 0.726327 0.073263 0.211359
C26 C 0.7036(5) 0.0517(2) 0.2624(2)
H13 H 0.748197 0.057323 0.279713
C27 C 0.6502(5) 0.0343(2) 0.2784(2)
C28 C 0.5864(5) 0.0252(2) 0.2528(3)
H14 H 0.549956 0.013595 0.263343
C29 C 0.5758(5) 0.0329(2) 0.2119(2)
H15 H 0.532211 0.026047 0.194161
C30 C 0.6632(7) 0.0252(3) 0.3234(3)
N1 N 0.5775(3) 0.16983(18) 0.04040(19)
H16 H 0.608900 0.162616 0.062297
N3 N 0.6166(3) 0.06034(17) 0.15473(18)
H18 H 0.628147 0.084073 0.148188
O1 O 0.5996(4) 0.35318(19) 0.0090(2)
O7 O 0.5691(3) 0.00178(16) 0.12996(15)
O8 O 0.6106(5) 0.0178(2) 0.3371(2)
O9 O 0.7252(5) 0.0275(2) 0.3440(2)
H7 H 0.565514 0.082626 0.975116
C15 C 0.6061(3) 0.0097(2) 0.9813(2)
O2 O 0.4846(4) 0.34557(18) 0.9867(2)
O3 O 0.4925(3) 0.14815(14) 0.98686(15)
O4 O 0.6296(3) 0.02275(15) 0.95332(17)
H6 H 0.609831 0.997294 0.061356
H8 H 0.618934 0.898293 0.002835
H17 H 0.575055 0.964198 0.005986
C16 C 0.6022(3) 0.9399(2) 0.9584(2)
C17 C 0.6164(3) 0.9028(2) 0.9748(2)
C18 C 0.6269(4) 0.8726(2) 0.9498(2)
H9 H 0.634376 0.846803 0.960801
C19 C 0.6268(4) 0.8781(2) 0.9095(2)
C20 C 0.6100(4) 0.9150(2) 0.8935(2)
H10 H 0.607591 0.919322 0.865433
C21 C 0.5966(4) 0.9462(2) 0.9173(2)
H11 H 0.583768 0.971356 0.905594
C22 C 0.6506(4) 0.8459(3) 0.8846(2)
N2 N 0.5921(3) 0.97092(17) 0.98500(18)
O5 O 0.6548(3) 0.81145(16) 0.89894(17)
O6 O 0.6681(3) 0.85536(18) 0.85287(17)
H3_2 H 0.035211 0.714593 0.468576
C7_2 C 0.0022(4) 0.7682(2) 0.4819(2)
H4_2 H 0.046171 0.780933 0.483536
O2_2 O 0.0154(4) 0.84557(18) 0.5133(2)
O3_2 O 0.0075(3) 0.64815(14) 0.51314(15)
C1_2 C 0.9544(5) 0.8325(3) 0.4993(3)
C2_2 C 0.9457(4) 0.7899(2) 0.4889(2)
C3_2 C 0.8811(4) 0.7715(2) 0.4851(2)
H1_2 H 0.841478 0.785995 0.488817
C4_2 C 0.8748(4) 0.7320(2) 0.4758(2)
H2_2 H 0.830722 0.719272 0.473758
C5_2 C 0.9312(4) 0.7107(2) 0.4693(2)
C6_2 C 0.9958(4) 0.7291(2) 0.4727(2)
C8_2 C 0.9618(4) 0.6416(2) 0.4835(2)
C9_2 C 0.9398(3) 0.6008(2) 0.4687(2)
C10_2 C 0.9321(3) 0.5890(2) 0.4286(2)
H5_2 H 0.938718 0.607460 0.408715
C11_2 C 0.9150(3) 0.5504(2) 0.4174(2)
C12_2 C 0.9025(3) 0.5237(2) 0.4462(2)
H6_2 H 0.890169 0.497294 0.438644
C13_2 C 0.9082(3) 0.5360(2) 0.4869(2)
C14_2 C 0.9284(3) 0.5744(2) 0.4974(2)
H7_2 H 0.934486 0.582626 0.524884
C15_2 C 0.8939(3) 0.5097(2) 0.5187(2)
C16_2 C 0.8978(3) 0.4399(2) 0.5416(2)
C17_2 C 0.8836(3) 0.4028(2) 0.5252(2)
H8_2 H 0.881066 0.398293 0.497165
C18_2 C 0.8731(4) 0.3726(2) 0.5502(2)
H9_2 H 0.865624 0.346803 0.539199
C19_2 C 0.8732(4) 0.3781(2) 0.5905(2)
C20_2 C 0.8900(4) 0.4150(2) 0.6065(2)
H10_2 H 0.892409 0.419322 0.634567
C21_2 C 0.9034(4) 0.4462(2) 0.5827(2)
H11_2 H 0.916232 0.471356 0.594406
C22_2 C 0.8494(4) 0.3459(3) 0.6154(2)
C23_2 C 0.9115(4) 0.5351(2) 0.3757(2)
C24_2 C 0.8718(4) 0.5506(2) 0.3037(2)
C25_2 C 0.8089(4) 0.5604(2) 0.2781(2)
H12_2 H 0.773673 0.573263 0.288641
C26_2 C 0.7964(5) 0.5517(2) 0.2376(2)
H13_2 H 0.751803 0.557323 0.220287
C27_2 C 0.8498(5) 0.5343(2) 0.2216(2)
C28_2 C 0.9136(5) 0.5252(2) 0.2472(3)
H14_2 H 0.950044 0.513595 0.236657
C29_2 C 0.9242(5) 0.5329(2) 0.2881(2)
H15_2 H 0.967789 0.526047 0.305839
C30_2 C 0.8368(7) 0.5252(3) 0.1766(3)
N1_2 N 0.9225(3) 0.66983(18) 0.45960(19)
H16_2 H 0.891100 0.662616 0.437703
N2_2 N 0.9079(3) 0.47092(17) 0.51500(18)
H17_2 H 0.924945 0.464198 0.494014
N3_2 N 0.8834(3) 0.56034(17) 0.34527(18)
H18_2 H 0.871853 0.584073 0.351812
O1_2 O 0.9004(4) 0.85318(19) 0.4910(2)
O4_2 O 0.8704(3) 0.52275(15) 0.54668(17)
O5_2 O 0.8452(3) 0.31145(16) 0.60106(17)
O6_2 O 0.8319(3) 0.35536(18) 0.64713(17)
O7_2 O 0.9309(3) 0.50178(16) 0.37004(15)
O8_2 O 0.8894(5) 0.5178(2) 0.1629(2)
O9_2 O 0.7748(5) 0.5275(2) 0.1560(2)
C16_3 C 0.3978(3) 0.0601(2) 0.0416(2)
C17_3 C 0.3836(3) 0.0972(2) 0.0252(2)
C18_3 C 0.3731(4) 0.1274(2) 0.0502(2)
H9_3 H 0.365624 0.153197 0.039199
C19_3 C 0.3732(4) 0.1219(2) 0.0905(2)
C20_3 C 0.3900(4) 0.0850(2) 0.1065(2)
H10_3 H 0.392409 0.080678 0.134567
C21_3 C 0.4034(4) 0.0538(2) 0.0827(2)
H11_3 H 0.416232 0.028644 0.094406
C22_3 C 0.3494(4) 0.1541(3) 0.1154(2)
N2_3 N 0.4079(3) 0.02908(17) 0.01500(18)
O5_3 O 0.3452(3) 0.18855(16) 0.10106(17)
O6_3 O 0.3319(3) 0.14464(18) 0.14713(17)
H6_3 H 0.390169 0.002706 0.938644
H8_3 H 0.381066 0.101707 0.997165
H17_3 H 0.424945 0.035802 0.994014
H7_3 H 0.434486 0.917374 0.024884
C15_3 C 0.3939(3) 0.9903(2) 0.0187(2)
O2_3 O 0.5154(4) 0.65443(18) 0.0133(2)
O3_3 O 0.5075(3) 0.85185(14) 0.01314(15)
O4_3 O 0.3704(3) 0.97725(15) 0.04668(17)
C1_3 C 0.4544(5) 0.6675(3) 0.9993(3)
C2_3 C 0.4457(4) 0.7101(2) 0.9889(2)
C3_3 C 0.3811(4) 0.7285(2) 0.9851(2)
H1_3 H 0.341478 0.714005 0.988817
C4_3 C 0.3748(4) 0.7680(2) 0.9758(2)
H2_3 H 0.330722 0.780728 0.973758
C5_3 C 0.4312(4) 0.7893(2) 0.9693(2)
C6_3 C 0.4958(4) 0.7709(2) 0.9727(2)
H3_3 H 0.535211 0.785407 0.968576
C7_3 C 0.5022(4) 0.7318(2) 0.9819(2)
H4_3 H 0.546171 0.719067 0.983536
C8_3 C 0.4618(4) 0.8584(2) 0.9835(2)
C9_3 C 0.4398(3) 0.8992(2) 0.9687(2)
C10_3 C 0.4321(3) 0.9110(2) 0.9286(2)
H5_3 H 0.438718 0.892540 0.908715
C11_3 C 0.4150(3) 0.9496(2) 0.9174(2)
C12_3 C 0.4025(3) 0.9763(2) 0.9462(2)
C13_3 C 0.4082(3) 0.9640(2) 0.9869(2)
C14_3 C 0.4284(3) 0.9256(2) 0.9974(2)
C23_3 C 0.4115(4) 0.9649(2) 0.8757(2)
C24_3 C 0.3718(4) 0.9494(2) 0.8037(2)
C25_3 C 0.3089(4) 0.9396(2) 0.7781(2)
H12_3 H 0.273673 0.926737 0.788641
C26_3 C 0.2964(5) 0.9483(2) 0.7376(2)
H13_3 H 0.251803 0.942677 0.720287
C27_3 C 0.3498(5) 0.9657(2) 0.7216(2)
C28_3 C 0.4136(5) 0.9748(2) 0.7472(3)
H14_3 H 0.450044 0.986405 0.736657
C29_3 C 0.4242(5) 0.9671(2) 0.7881(2)
H15_3 H 0.467789 0.973953 0.805839
C30_3 C 0.3368(7) 0.9748(3) 0.6766(3)
N1_3 N 0.4225(3) 0.83017(18) 0.95960(19)
H16_3 H 0.391100 0.837384 0.937703
N3_3 N 0.3834(3) 0.93966(17) 0.84527(18)
H18_3 H 0.371853 0.915927 0.851812
O1_3 O 0.4004(4) 0.64682(19) 0.9910(2)
O7_3 O 0.4309(3) 0.99822(16) 0.87004(15)
O8_3 O 0.3894(5) 0.9822(2) 0.6629(2)
O9_3 O 0.2748(5) 0.9725(2) 0.6560(2)
C1_4 C 0.0456(5) 0.1675(3) 0.5007(3)
C2_4 C 0.0543(4) 0.2101(2) 0.5111(2)
C3_4 C 0.1189(4) 0.2285(2) 0.5149(2)
H1_4 H 0.158522 0.214005 0.511183
C4_4 C 0.1252(4) 0.2680(2) 0.5242(2)
H2_4 H 0.169278 0.280728 0.526242
C5_4 C 0.0688(4) 0.2893(2) 0.5307(2)
C6_4 C 0.0042(4) 0.2709(2) 0.5273(2)
C8_4 C 0.0382(4) 0.3584(2) 0.5165(2)
C9_4 C 0.0602(3) 0.3992(2) 0.5313(2)
C10_4 C 0.0679(3) 0.4110(2) 0.5714(2)
H5_4 H 0.061282 0.392540 0.591285
C11_4 C 0.0850(3) 0.4496(2) 0.5826(2)
C12_4 C 0.0975(3) 0.4763(2) 0.5538(2)
H6_4 H 0.109831 0.502706 0.561356
C13_4 C 0.0918(3) 0.4640(2) 0.5131(2)
C14_4 C 0.0716(3) 0.4256(2) 0.5026(2)
H7_4 H 0.065514 0.417374 0.475116
C15_4 C 0.1061(3) 0.4903(2) 0.4813(2)
C16_4 C 0.1022(3) 0.5601(2) 0.4584(2)
C17_4 C 0.1164(3) 0.5972(2) 0.4748(2)
H8_4 H 0.118934 0.601707 0.502835
C18_4 C 0.1269(4) 0.6274(2) 0.4498(2)
H9_4 H 0.134376 0.653197 0.460801
C19_4 C 0.1268(4) 0.6219(2) 0.4095(2)
C20_4 C 0.1100(4) 0.5850(2) 0.3935(2)
H10_4 H 0.107591 0.580678 0.365433
C21_4 C 0.0966(4) 0.5538(2) 0.4173(2)
H11_4 H 0.083768 0.528644 0.405594
C22_4 C 0.1506(4) 0.6541(3) 0.3846(2)
C23_4 C 0.0885(4) 0.4649(2) 0.6243(2)
C24_4 C 0.1282(4) 0.4494(2) 0.6963(2)
C25_4 C 0.1911(4) 0.4396(2) 0.7219(2)
H12_4 H 0.226327 0.426737 0.711359
C26_4 C 0.2036(5) 0.4483(2) 0.7624(2)
H13_4 H 0.248197 0.442677 0.779713
C27_4 C 0.1502(5) 0.4657(2) 0.7784(2)
C28_4 C 0.0864(5) 0.4748(2) 0.7528(3)
H14_4 H 0.049956 0.486405 0.763343
C29_4 C 0.0758(5) 0.4671(2) 0.7119(2)
H15_4 H 0.032211 0.473953 0.694161
C30_4 C 0.1632(7) 0.4748(3) 0.8234(3)
N1_4 N 0.0775(3) 0.33017(18) 0.54040(19)
H16_4 H 0.108900 0.337384 0.562297
N2_4 N 0.0921(3) 0.52908(17) 0.48500(18)
H17_4 H 0.075055 0.535802 0.505986
N3_4 N 0.1166(3) 0.43966(17) 0.65473(18)
H18_4 H 0.128147 0.415927 0.648188
O1_4 O 0.0996(4) 0.14682(19) 0.5090(2)
O4_4 O 0.1296(3) 0.47725(15) 0.45332(17)
O5_4 O 0.1548(3) 0.68855(16) 0.39894(17)
O6_4 O 0.1681(3) 0.64464(18) 0.35287(17)
O7_4 O 0.0691(3) 0.49822(16) 0.62996(15)
O8_4 O 0.1106(5) 0.4822(2) 0.8371(2)
O9_4 O 0.2252(5) 0.4725(2) 0.8440(2)
H3_4 H 0.964789 0.285407 0.531424
C7_4 C 0.9978(4) 0.2318(2) 0.5181(2)
H4_4 H 0.953829 0.219067 0.516464
O2_4 O 0.9846(4) 0.15443(18) 0.4867(2)
O3_4 O 0.9925(3) 0.35185(14) 0.48686(15)
N4 N 0.5433(5) 0.3988(3) 0.6012(4)
H19 H 0.549405 0.421660 0.589019
H20 H 0.561774 0.400773 0.628095
H21 H 0.565081 0.379346 0.590818
H22 H 0.497006 0.393448 0.596857
H22_2 H 0.002994 0.893448 0.903143
N4_2 N 0.9567(5) 0.8988(3) 0.8988(4)
H19_2 H 0.950595 0.921660 0.910981
H20_2 H 0.938226 0.900773 0.871905
H21_2 H 0.934919 0.879346 0.909182
N4_3 N 0.4567(5) 0.6012(3) 0.3988(4)
H19_3 H 0.450595 0.578340 0.410981
H20_3 H 0.438226 0.599227 0.371905
H21_3 H 0.434919 0.620654 0.409182
H22_3 H 0.502994 0.606552 0.403143
N4_4 N 0.0433(5) 0.1012(3) 0.1012(4)
H19_4 H 0.049405 0.078340 0.089019
H20_4 H 0.061774 0.099227 0.128095
H21_4 H 0.065081 0.120654 0.090818
H22_4 H 0.997006 0.106552 0.096857
O66 O 0.04154(19) 0.20037(12) 0.32940(12)
Sr1 Sr 0.45772(3) 0.26892(2) 0.35878(2)
O10 O 0.8392(3) 0.2052(2) 0.15676(17)
O11 O 0.8429(2) 0.31402(12) 0.16414(15)
O12 O 0.7217(3) 0.33506(17) 0.06994(16)
O13 O 0.9416(3) 0.26951(15) 0.23646(15)
Sr2 Sr 0.92184(3) 0.20742(2) 0.27617(2)
Sr3 Sr 0.74281(3) 0.18149(2) 0.19164(2)
Sr4 Sr 0.72357(3) 0.28817(2) 0.13060(2)
C31 C 0.7283(3) 0.1246(2) 0.1094(2)
C32 C 0.7548(3) 0.08837(18) 0.09226(19)
C33 C 0.7587(3) 0.05150(19) 0.1117(2)
H23 H 0.748430 0.049698 0.137791
C34 C 0.7772(3) 0.01807(19) 0.09371(19)
C35 C 0.7929(3) 0.02139(17) 0.05564(18)
C36 C 0.7946(3) 0.05780(19) 0.0377(2)
H25 H 0.809796 0.060070 0.013005
C37 C 0.7742(3) 0.09094(19) 0.0558(2)
H26 H 0.773709 0.115774 0.042915
O16 O 0.7150(2) 0.12253(13) 0.14410(14)
O17 O 0.7180(2) 0.15493(13) 0.08619(15)
C61 C 0.7531(3) 0.2563(2) 0.2378(2)
C62 C 0.7254(3) 0.2824(2) 0.26588(19)
C63 C 0.7246(4) 0.2698(2) 0.3047(2)
H41 H 0.745264 0.245177 0.314009
C64 C 0.6941(4) 0.2925(2) 0.3303(2)
H42 H 0.692881 0.283509 0.356721
C65 C 0.6654(3) 0.32884(19) 0.31620(19)
C66 C 0.6672(4) 0.3414(2) 0.2784(2)
H43 H 0.649567 0.366771 0.269731
C67 C 0.6941(4) 0.3182(2) 0.2525(2)
H44 H 0.691386 0.326555 0.225377
C68 C 0.5877(3) 0.34395(18) 0.36268(18)
C69 C 0.5633(3) 0.37620(18) 0.38614(18)
C70 C 0.5391(3) 0.36581(19) 0.42054(18)
H45 H 0.537936 0.338901 0.427889
C71 C 0.5166(3) 0.39449(19) 0.44421(18)
C72 C 0.5153(3) 0.43319(19) 0.43210(19)
H46 H 0.499874 0.452827 0.448050
C73 C 0.5364(3) 0.44417(19) 0.39685(19)
C74 C 0.5609(3) 0.41465(18) 0.37428(19)
H47 H 0.576072 0.421618 0.350433
C75 C 0.4864(3) 0.3840(2) 0.4799(2)
C76 C 0.4593(3) 0.3226(2) 0.5156(2)
C77 C 0.4167(3) 0.3365(2) 0.5395(2)
H48 H 0.414968 0.363860 0.545042
C78 C 0.3761(4) 0.3099(2) 0.5555(2)
H49 H 0.347050 0.319346 0.572444
C79 C 0.3766(4) 0.2696(2) 0.5473(2)
C80 C 0.4217(3) 0.2561(2) 0.5241(2)
H50 H 0.424026 0.228776 0.518666
C81 C 0.4632(4) 0.2822(2) 0.5087(2)
H51 H 0.494806 0.272594 0.493351
C82 C 0.3264(4) 0.2411(2) 0.5612(2)
C83 C 0.5338(3) 0.4861(2) 0.3849(2)
C84 C 0.5428(4) 0.5284(2) 0.3258(2)
C85 C 0.5269(4) 0.5279(2) 0.2831(2)
H52 H 0.504043 0.505687 0.268816
C86 C 0.5446(4) 0.5597(2) 0.2617(2)
H53 H 0.533043 0.559454 0.232852
C87 C 0.5796(3) 0.59249(19) 0.28272(19)
C88 C 0.5925(3) 0.5929(2) 0.3248(2)
H54 H 0.614785 0.615041 0.339410
C89 C 0.5731(3) 0.56102(19) 0.3462(2)
H55 H 0.581166 0.562097 0.374967
C90 C 0.5980(3) 0.62641(19) 0.2598(2)
N8 N 0.6356(3) 0.35424(15) 0.34179(15)
H56 H 0.650176 0.378806 0.343963
N9 N 0.4998(3) 0.34743(18) 0.49409(16)
H57 H 0.538586 0.336808 0.489852
N10 N 0.5279(3) 0.49312(16) 0.34508(17)
H58 H 0.512928 0.473252 0.328696
O23 O 0.7946(2) 0.22857(13) 0.25201(13)
O24 O 0.7282(2) 0.25943(14) 0.19992(13)
O25 O 0.5648(2) 0.31017(13) 0.36334(13)
O26 O 0.4468(3) 0.40678(15) 0.49228(15)
O27 O 0.3136(3) 0.20964(19) 0.54118(19)
O28 O 0.2992(3) 0.25027(15) 0.58926(14)
O29 O 0.5390(3) 0.51249(14) 0.41019(15)
O30 O 0.6431(2) 0.65048(14) 0.27720(14)
O31 O 0.5655(2) 0.63112(13) 0.22357(13)
C91 C 0.1941(4) 0.2848(3) 0.1242(2)
C92 C 0.0743(4) 0.2904(2) 0.0911(2)
H59 H 0.057463 0.293147 0.060922
C93 C 0.0902(3) 0.2480(2) 0.10348(19)
H60 H 0.082998 0.230403 0.079175
C94 C 0.0016(3) 0.2702(2) 0.1329(2)
C95 C 0.1558(4) 0.3498(2) 0.0954(2)
H61 H 0.129642 0.355158 0.067174
H62 H 0.206725 0.351882 0.096230
C97 C 0.1855(4) 0.4021(3) 0.1471(2)
C98 C 0.0670(4) 0.3946(2) 0.1161(2)
H65 H 0.048714 0.403570 0.087406
C99 C 0.0767(4) 0.4298(3) 0.1462(2)
H66 H 0.059861 0.455130 0.132319
C101 C 0.1869(4) 0.4623(3) 0.1876(2)
H67 H 0.237173 0.462138 0.186546
H68 H 0.166136 0.487397 0.175671
C102 C 0.0120(4) 0.4461(2) 0.2017(2)
H70 H 0.003009 0.471760 0.187488
C103 C 0.2359(4) 0.4491(2) 0.2601(2)
C104 C 0.1223(4) 0.4773(2) 0.2434(2)
H71 H 0.108271 0.503725 0.231117
C105 C 0.1526(4) 0.4794(2) 0.2900(2)
H72 H 0.161573 0.507241 0.299434
C106 C 0.0454(4) 0.4455(2) 0.2766(2)
C107 C 0.2698(4) 0.4579(2) 0.3338(2)
H73 H 0.272487 0.484854 0.345099
H74 H 0.316238 0.451584 0.328250
C108 C 0.0931(4) 0.4635(2) 0.3485(2)
H75 H 0.108510 0.489867 0.359285
H76 H 0.043387 0.460067 0.349976
C109 C 0.2996(3) 0.3997(2) 0.3782(2)
C110 C 0.2106(3) 0.4394(2) 0.3910(2)
H77 H 0.220761 0.466056 0.403449
C111 C 0.2271(3) 0.40683(19) 0.4235(2)
H78 H 0.244925 0.418122 0.451243
C112 C 0.1068(3) 0.40668(19) 0.39394(19)
C113 C 0.3250(3) 0.35638(19) 0.4369(2)
H79 H 0.332333 0.365801 0.465320
H80 H 0.371540 0.355650 0.429934
C114 C 0.1486(3) 0.35676(19) 0.44753(19)
H81 H 0.097388 0.355074 0.446091
H82 H 0.172053 0.364534 0.475603
C115 C 0.3293(3) 0.2857(2) 0.42164(19)
C116 C 0.2439(3) 0.30407(19) 0.45592(19)
H83 H 0.259293 0.309345 0.485759
C117 C 0.2388(3) 0.25948(19) 0.44691(18)
H84 H 0.241537 0.243680 0.472180
C118 C 0.1302(3) 0.28966(19) 0.41800(18)
C119 C 0.3204(3) 0.21321(19) 0.41975(18)
H85 H 0.371043 0.213966 0.419627
H86 H 0.314560 0.194799 0.441443
C120 C 0.1352(3) 0.21872(19) 0.40709(18)
H87 H 0.147451 0.200456 0.430470
H88 H 0.083571 0.222810 0.400933
C121 C 0.3036(3) 0.20151(19) 0.34617(18)
C122 C 0.2177(3) 0.17650(18) 0.37612(17)
H89 H 0.221115 0.155565 0.397258
C123 C 0.2079(3) 0.15902(18) 0.33322(17)
H90 H 0.220124 0.130428 0.334054
C124 C 0.1036(3) 0.19032(17) 0.33785(17)
C125 C 0.2754(3) 0.1717(2) 0.27865(18)
H91 H 0.320195 0.185071 0.277810
H92 H 0.284176 0.143040 0.278886
C126 C 0.0963(3) 0.14549(18) 0.27927(18)
H93 H 0.112785 0.117893 0.280566
H94 H 0.045729 0.145078 0.279785
C127 C 0.2437(3) 0.2037(2) 0.2128(2)
C128 C 0.1647(3) 0.1563(2) 0.22475(18)
H95 H 0.179002 0.128000 0.225938
C129 C 0.1417(3) 0.1706(2) 0.18092(19)
H96 H 0.139058 0.148457 0.161201
C130 C 0.0511(3) 0.18159(19) 0.21449(18)
C131 C 0.2049(3) 0.2147(2) 0.1387(2)
H97 H 0.255318 0.221350 0.141958
H98 H 0.193022 0.194215 0.117421
C132 C 0.0263(3) 0.1995(2) 0.1420(2)
H100 H 0.030061 0.180308 0.120602
N11 N 0.1638(3) 0.2489(2) 0.12508(17)
N12 N 0.1407(3) 0.3107(2) 0.10599(17)
N13 N 0.0411(3) 0.23878(19) 0.12845(16)
N14 N 0.0200(3) 0.30131(19) 0.11199(17)
N15 N 0.1372(3) 0.3792(2) 0.12209(18)
N16 N 0.1513(3) 0.4300(2) 0.16319(19)
N17 N 0.0164(3) 0.37018(19) 0.12955(18)
N18 N 0.0351(3) 0.41805(19) 0.17523(18)
N19 N 0.1819(3) 0.46030(19) 0.22947(19)
N20 N 0.2177(3) 0.45700(17) 0.29647(18)
N21 N 0.0637(3) 0.45159(17) 0.24012(18)
N22 N 0.0972(3) 0.46160(17) 0.30626(17)
N23 N 0.2560(3) 0.43058(17) 0.36416(17)
N24 N 0.2967(3) 0.31677(16) 0.43459(16)
N25 N 0.1356(3) 0.43414(16) 0.37392(16)
N26 N 0.1604(3) 0.38712(16) 0.42010(16)
N27 N 0.2812(3) 0.38364(16) 0.41090(17)
N28 N 0.2984(2) 0.25229(15) 0.42936(15)
N29 N 0.1737(2) 0.31816(15) 0.43959(15)
N30 N 0.1696(2) 0.25585(15) 0.41864(15)
N31 N 0.2816(2) 0.19836(15) 0.38125(14)
N32 N 0.2563(2) 0.18236(16) 0.31624(15)
N33 N 0.1537(2) 0.20065(14) 0.37243(14)
N34 N 0.1344(2) 0.16575(15) 0.31487(14)
N35 N 0.2238(2) 0.18141(17) 0.24208(15)
N36 N 0.1949(3) 0.19837(18) 0.17706(16)
N37 N 0.1030(2) 0.16215(16) 0.24129(15)
N38 N 0.0720(3) 0.18732(17) 0.17943(15)
O32 O 0.2553(3) 0.29322(19) 0.13597(16)
O34 O 0.2501(3) 0.39703(19) 0.15439(17)
O36 O 0.2922(3) 0.43594(18) 0.25669(17)
O38 O 0.3486(2) 0.38819(15) 0.36360(16)
O39 O 0.0440(2) 0.39997(13) 0.39084(13)
O40 O 0.3805(2) 0.28827(13) 0.40572(13)
O41 O 0.0685(2) 0.29357(14) 0.40238(13)
O42 O 0.3565(2) 0.21833(13) 0.34225(13)
O44 O 0.2968(2) 0.22349(16) 0.21750(14)
C133 C 0.6883(4) 0.3880(2) 0.1671(2)
C134 C 0.6761(4) 0.4476(2) 0.1989(2)
H101 H 0.693059 0.472941 0.189501
C135 C 0.6051(4) 0.4346(2) 0.1723(2)
H102 H 0.584117 0.455431 0.152176
C136 C 0.5961(4) 0.4380(2) 0.2402(2)
C137 C 0.7968(4) 0.4156(2) 0.2090(2)
H103 H 0.813208 0.442511 0.204856
H104 H 0.818092 0.397552 0.192165
C138 C 0.7095(4) 0.4677(2) 0.2740(2)
H105 H 0.733328 0.490590 0.264883
H106 H 0.681752 0.477601 0.292998
C139 C 0.8597(3) 0.3713(2) 0.2634(2)
C140 C 0.8275(4) 0.4329(2) 0.2839(2)
H107 H 0.851830 0.457579 0.278684
C141 C 0.8714(3) 0.41020(19) 0.3218(2)
H108 H 0.915461 0.424494 0.335072
C142 C 0.7588(4) 0.42606(19) 0.3325(2)
C143 C 0.9410(3) 0.34761(19) 0.32560(19)
H109 H 0.981511 0.363777 0.339723
H110 H 0.957004 0.331150 0.305282
C144 C 0.8429(4) 0.39637(19) 0.3909(2)
H111 H 0.806704 0.405724 0.404924
H112 H 0.887491 0.410124 0.403111
C145 C 0.9245(3) 0.28247(19) 0.35258(18)
C146 C 0.9176(3) 0.33458(19) 0.39564(18)
H113 H 0.960448 0.350022 0.408747
C147 C 0.9127(3) 0.29521(18) 0.41819(18)
H114 H 0.950672 0.292787 0.443588
C148 C 0.8110(3) 0.33289(19) 0.41649(18)
C149 C 0.9370(3) 0.22617(18) 0.39878(19)
H115 H 0.966409 0.225518 0.426874
H116 H 0.966112 0.216077 0.380557
C150 C 0.8154(3) 0.26834(19) 0.44933(18)
H117 H 0.775662 0.280211 0.458839
H118 H 0.852176 0.261307 0.473721
C151 C 0.8494(3) 0.18056(18) 0.36144(18)
C152 C 0.8343(3) 0.19799(18) 0.42586(18)
H119 H 0.862346 0.190874 0.453585
C153 C 0.7810(3) 0.1657(2) 0.40806(18)
H120 H 0.791313 0.140346 0.423315
C154 C 0.7206(3) 0.2215(2) 0.42044(18)
C155 C 0.7607(3) 0.13036(19) 0.33885(19)
H121 H 0.790845 0.126662 0.319219
H122 H 0.762952 0.105857 0.354917
C156 C 0.6499(3) 0.1616(2) 0.40394(19)
H123 H 0.617602 0.175174 0.418216
H124 H 0.658492 0.134914 0.415644
C157 C 0.5525(3) 0.1765(2) 0.34589(19)
C158 C 0.6297(3) 0.1275(2) 0.33534(19)
H125 H 0.634290 0.101078 0.348707
C159 C 0.5666(3) 0.12960(19) 0.29810(19)
H126 H 0.540865 0.103981 0.293312
C160 C 0.6690(3) 0.14338(18) 0.27672(19)
C161 C 0.4525(3) 0.1696(2) 0.2878(2)
H127 H 0.427020 0.145095 0.277813
H128 H 0.427620 0.182312 0.306897
C162 C 0.5593(3) 0.13842(19) 0.22303(19)
H129 H 0.525350 0.116370 0.219698
H130 H 0.593213 0.132567 0.206052
C163 C 0.4428(3) 0.2355(2) 0.25599(19)
C164 C 0.4508(3) 0.1834(2) 0.21304(19)
H131 H 0.416312 0.161745 0.203461
C165 C 0.4323(3) 0.2203(2) 0.18825(19)
H132 H 0.384688 0.218470 0.169403
C166 C 0.5408(3) 0.1966(2) 0.17952(19)
C167 C 0.3968(4) 0.2879(2) 0.2082(2)
H133 H 0.351792 0.282293 0.188477
H134 H 0.385359 0.298831 0.233048
C168 C 0.4804(4) 0.2486(2) 0.1309(2)
H135 H 0.433074 0.244359 0.113134
H136 H 0.515543 0.240224 0.115599
C169 C 0.4542(4) 0.3522(2) 0.2096(2)
C170 C 0.4380(4) 0.3169(2) 0.1490(2)
H137 H 0.390403 0.312395 0.130815
C171 C 0.4655(4) 0.3574(2) 0.1431(2)
H138 H 0.431755 0.372132 0.121435
C172 C 0.5427(4) 0.3105(2) 0.1292(2)
C173 C 0.5740(4) 0.3788(2) 0.1191(2)
H139 H 0.543175 0.398422 0.102046
H140 H 0.602491 0.366098 0.101869
C174 C 0.4868(4) 0.4175(2) 0.1890(2)
H141 H 0.463455 0.426285 0.210630
H142 H 0.465194 0.432142 0.163933
N39 N 0.6215(3) 0.39931(18) 0.15220(18)
N40 N 0.7217(3) 0.41434(18) 0.19461(17)
N41 N 0.5625(3) 0.42760(18) 0.20126(18)
N42 N 0.6610(3) 0.45087(17) 0.23863(18)
N43 N 0.8229(3) 0.40507(17) 0.25138(16)
N44 N 0.8858(3) 0.37315(16) 0.30491(16)
N45 N 0.7623(3) 0.44131(16) 0.29562(18)
N46 N 0.8217(3) 0.40699(16) 0.34870(17)
N47 N 0.9194(2) 0.32208(15) 0.35513(14)
N48 N 0.9192(2) 0.26573(15) 0.38829(14)
N49 N 0.8531(3) 0.35468(15) 0.39805(15)
N50 N 0.8437(3) 0.29755(15) 0.42670(15)
N51 N 0.7902(2) 0.23200(15) 0.42703(15)
N52 N 0.7154(2) 0.18253(16) 0.41191(15)
N53 N 0.8785(2) 0.20018(15) 0.39650(14)
N54 N 0.7891(2) 0.16220(15) 0.36596(14)
N55 N 0.6152(2) 0.15807(16) 0.36159(15)
N56 N 0.5235(3) 0.16002(17) 0.30929(16)
N57 N 0.6890(2) 0.13638(15) 0.31654(15)
N58 N 0.5970(3) 0.13983(16) 0.26467(15)
N59 N 0.4514(3) 0.19546(17) 0.25413(15)
N60 N 0.4354(3) 0.25125(17) 0.21840(16)
N61 N 0.5217(3) 0.17356(16) 0.20789(15)
N62 N 0.4877(3) 0.22395(17) 0.16637(15)
N63 N 0.4351(3) 0.31622(17) 0.19132(17)
N64 N 0.4737(3) 0.37636(18) 0.18195(18)
N65 N 0.4896(3) 0.29038(17) 0.13966(17)
N66 N 0.5313(3) 0.34998(18) 0.13124(18)
O46 O 0.7152(3) 0.35737(15) 0.15693(15)
O47 O 0.5715(3) 0.43687(14) 0.26963(15)
O48 O 0.8668(2) 0.34385(14) 0.24112(13)
O49 O 0.7099(2) 0.42919(13) 0.34901(14)
O50 O 0.9327(2) 0.26431(12) 0.32261(12)
O51 O 0.7540(2) 0.34241(13) 0.42333(14)
O52 O 0.8729(2) 0.17903(13) 0.33181(12)
O53 O 0.6729(2) 0.24373(14) 0.42286(13)
O54 O 0.7073(2) 0.15065(13) 0.25327(13)
O55 O 0.5252(2) 0.20318(14) 0.36220(14)
O56 O 0.5937(2) 0.19280(14) 0.16648(13)
O57 O 0.4414(2) 0.25440(14) 0.28632(14)
O58 O 0.5936(2) 0.29538(14) 0.11811(14)
O59 O 0.4529(3) 0.36092(15) 0.24459(15)
O60 O 0.6825(2) 0.21678(14) 0.12229(14)
O61 O 0.4086(3) 0.33287(16) 0.32119(16)
O62 O 0.5313(2) 0.25597(14) 0.43035(13)
Sr6 Sr 0.57816(3) 0.70742(2) 0.22383(2)
Sr7 Sr 0.75719(3) 0.68149(2) 0.30836(2)
Sr8 Sr 0.22357(3) 0.21183(2) 0.63060(2)
O63 O 0.7992(3) 0.24973(15) 0.08926(14)
O64 O 0.8569(2) 0.15048(14) 0.22280(14)
O65 O 0.9345(2) 0.13112(13) 0.27643(13)
O67 O 0.9936(2) 0.19151(13) 0.22093(13)
H143 H 0.818141 0.210532 0.127609
H144 H 0.860797 0.229666 0.170115
H145 H 0.839889 0.342767 0.168598
H146 H 0.860051 0.300643 0.190693
H147 H 0.761905 0.328826 0.0575551
H148 H 0.676799 0.33164 0.0493011
H149 H 0.923192 0.292851 0.248325
H150 H 0.992778 0.272943 0.238239
H153 H 0.430328 0.336986 0.297669
H154 H 0.356701 0.330633 0.311374
H155 H 0.53891 0.28105 0.445786
H156 H 0.506113 0.237124 0.44443
C96 C 0.9818(4) 0.3384(2) 0.1054(2)
H63 H 0.974281 0.345639 0.076372
H64 H 0.934874 0.334582 0.111415
C100 C 0.9959(4) 0.3845(2) 0.1620(2)
H69 H 0.967055 0.436963 0.207380
H99 H 0.977148 0.198865 0.145248
O33 O 0.9554(2) 0.27024(16) 0.15258(14)
O35 O 0.9498(3) 0.37172(17) 0.17696(16)
O37 O 0.9914(2) 0.42995(14) 0.28179(15)
Sr1_2 Sr 0.04228(3) 0.76892(2) 0.14122(2)
H46_2 H 0.000126 0.952827 0.051950
C75_2 C 0.0136(3) 0.8840(2) 0.0201(2)
H51_2 H 0.005194 0.772594 0.006649
N9_2 N 0.0002(3) 0.84743(18) 0.00591(16)
O26_2 O 0.0532(3) 0.90678(15) 0.00772(15)
C91_2 C 0.3059(4) 0.7848(3) 0.3758(2)
C92_2 C 0.4257(4) 0.7904(2) 0.4089(2)
H59_2 H 0.442537 0.793147 0.439078
C93_2 C 0.4098(3) 0.7480(2) 0.39652(19)
H60_2 H 0.417002 0.730403 0.420825
C94_2 C 0.4984(3) 0.7702(2) 0.3671(2)
C95_2 C 0.3442(4) 0.8498(2) 0.4046(2)
H61_2 H 0.370358 0.855158 0.432826
H62_2 H 0.293275 0.851882 0.403770
C96_2 C 0.5182(4) 0.8384(2) 0.3946(2)
H63_2 H 0.525719 0.845639 0.423628
H64_2 H 0.565126 0.834582 0.388585
C97_2 C 0.3145(4) 0.9021(3) 0.3529(2)
C98_2 C 0.4330(4) 0.8946(2) 0.3839(2)
H65_2 H 0.451286 0.903570 0.412594
C99_2 C 0.4233(4) 0.9298(3) 0.3538(2)
H66_2 H 0.440139 0.955130 0.367681
C100_2 C 0.5041(4) 0.8845(2) 0.3380(2)
C101_2 C 0.3131(4) 0.9623(3) 0.3124(2)
H67_2 H 0.262827 0.962138 0.313454
H68_2 H 0.333864 0.987397 0.324329
C102_2 C 0.4880(4) 0.9461(2) 0.2983(2)
H69_2 H 0.532945 0.936963 0.292620
H70_2 H 0.496991 0.971760 0.312512
C103_2 C 0.2641(4) 0.9491(2) 0.2399(2)
C104_2 C 0.3777(4) 0.9773(2) 0.2566(2)
C105_2 C 0.3474(4) 0.9794(2) 0.2100(2)
C106_2 C 0.4546(4) 0.9455(2) 0.2234(2)
C107_2 C 0.2302(4) 0.9579(2) 0.1662(2)
H73_2 H 0.227513 0.984854 0.154901
H74_2 H 0.183762 0.951584 0.171750
C108_2 C 0.4069(4) 0.9635(2) 0.1515(2)
H75_2 H 0.391490 0.989867 0.140715
H76_2 H 0.456613 0.960067 0.150024
C109_2 C 0.2004(3) 0.8997(2) 0.1218(2)
C110_2 C 0.2894(3) 0.9394(2) 0.1090(2)
H77_2 H 0.279239 0.966056 0.096551
C111_2 C 0.2729(3) 0.90683(19) 0.0765(2)
H78_2 H 0.255075 0.918122 0.048757
C112_2 C 0.3932(3) 0.90668(19) 0.10606(19)
C113_2 C 0.1750(3) 0.85638(19) 0.0631(2)
H79_2 H 0.167667 0.865801 0.034680
H80_2 H 0.128460 0.855650 0.070066
C114_2 C 0.3514(3) 0.85676(19) 0.05247(19)
H81_2 H 0.402612 0.855074 0.053909
H82_2 H 0.327947 0.864534 0.024397
C115_2 C 0.1707(3) 0.7857(2) 0.07836(19)
C116_2 C 0.2561(3) 0.80407(19) 0.04408(19)
H83_2 H 0.240707 0.809345 0.014241
C117_2 C 0.2612(3) 0.75948(19) 0.05309(18)
H84_2 H 0.258463 0.743680 0.027820
C118_2 C 0.3698(3) 0.78966(19) 0.08200(18)
C119_2 C 0.1796(3) 0.71321(19) 0.08025(18)
H85_2 H 0.128957 0.713966 0.080373
H86_2 H 0.185440 0.694799 0.058557
C120_2 C 0.3648(3) 0.71872(19) 0.09291(18)
H87_2 H 0.352549 0.700456 0.069530
H88_2 H 0.416429 0.722810 0.099067
C121_2 C 0.1964(3) 0.70151(19) 0.15383(18)
C122_2 C 0.2823(3) 0.67650(18) 0.12388(17)
H89_2 H 0.278885 0.655565 0.102742
C123_2 C 0.2921(3) 0.65902(18) 0.16678(17)
H90_2 H 0.279876 0.630428 0.165946
C124_2 C 0.3964(3) 0.69032(17) 0.16215(17)
C125_2 C 0.2246(3) 0.6717(2) 0.22135(18)
H91_2 H 0.179805 0.685071 0.222190
H92_2 H 0.215824 0.643040 0.221114
C126_2 C 0.4037(3) 0.64549(18) 0.22073(18)
H93_2 H 0.387215 0.617893 0.219434
H94_2 H 0.454271 0.645078 0.220215
C127_2 C 0.2563(3) 0.7037(2) 0.2872(2)
C128_2 C 0.3353(3) 0.6563(2) 0.27525(18)
H95_2 H 0.320998 0.628000 0.274062
C129_2 C 0.3583(3) 0.6706(2) 0.31908(19)
H96_2 H 0.360942 0.648457 0.338799
C130_2 C 0.4489(3) 0.68159(19) 0.28551(18)
C131_2 C 0.2951(3) 0.7147(2) 0.3613(2)
H97_2 H 0.244682 0.721350 0.358042
H98_2 H 0.306978 0.694215 0.382579
C132_2 C 0.4737(3) 0.6995(2) 0.3580(2)
H99_2 H 0.522852 0.698865 0.354752
H100_2 H 0.469939 0.680308 0.379398
N11_2 N 0.3362(3) 0.7489(2) 0.37492(17)
N12_2 N 0.3593(3) 0.8107(2) 0.39401(17)
N13_2 N 0.4589(3) 0.73878(19) 0.37155(16)
N14_2 N 0.4800(3) 0.80131(19) 0.38801(17)
N15_2 N 0.3628(3) 0.8792(2) 0.37791(18)
N16_2 N 0.3487(3) 0.9300(2) 0.33681(19)
N17_2 N 0.4836(3) 0.87018(19) 0.37045(18)
N18_2 N 0.4649(3) 0.91805(19) 0.32477(18)
N19_2 N 0.3181(3) 0.96030(19) 0.27053(19)
N20_2 N 0.2823(3) 0.95700(17) 0.20353(18)
N21_2 N 0.4363(3) 0.95159(17) 0.25988(18)
N22_2 N 0.4028(3) 0.96160(17) 0.19374(17)
N23_2 N 0.2440(3) 0.93058(17) 0.13584(17)
N24_2 N 0.2033(3) 0.81677(16) 0.06541(16)
N25_2 N 0.3644(3) 0.93414(16) 0.12608(16)
N26_2 N 0.3396(3) 0.88712(16) 0.07990(16)
N27_2 N 0.2188(3) 0.88364(16) 0.08910(17)
N28_2 N 0.2016(2) 0.75229(15) 0.07064(15)
N29_2 N 0.3263(2) 0.81816(15) 0.06041(15)
N30_2 N 0.3304(2) 0.75585(15) 0.08136(15)
N31_2 N 0.2184(2) 0.69836(15) 0.11875(14)
N32_2 N 0.2437(2) 0.68236(16) 0.18376(15)
N33_2 N 0.3463(2) 0.70065(14) 0.12757(14)
N34_2 N 0.3656(2) 0.66575(15) 0.18513(14)
N35_2 N 0.2762(2) 0.68141(17) 0.25792(15)
N36_2 N 0.3051(3) 0.69837(18) 0.32294(16)
N37_2 N 0.3970(2) 0.66215(16) 0.25871(15)
N38_2 N 0.4280(3) 0.68732(17) 0.32057(15)
O32_2 O 0.2447(3) 0.79322(19) 0.36403(16)
O33_2 O 0.5446(2) 0.77024(16) 0.34742(14)
O34_2 O 0.2499(3) 0.89703(19) 0.34561(17)
O35_2 O 0.5502(3) 0.87172(17) 0.32304(16)
O36_2 O 0.2078(3) 0.93594(18) 0.24331(17)
O37_2 O 0.5086(2) 0.92995(14) 0.21821(15)
O38_2 O 0.1514(2) 0.88819(15) 0.13640(16)
O39_2 O 0.4560(2) 0.89997(13) 0.10916(13)
O40_2 O 0.1195(2) 0.78827(13) 0.09428(13)
O41_2 O 0.4315(2) 0.79357(14) 0.09762(13)
O42_2 O 0.1435(2) 0.71833(13) 0.15775(13)
O43 O 0.45846(19) 0.70037(12) 0.17060(12)
O44_2 O 0.2032(2) 0.72349(16) 0.28250(14)
O45 O 0.5064(2) 0.69151(13) 0.27907(13)
C161_2 C 0.0475(3) 0.6696(2) 0.2122(2)
H127_2 H 0.072980 0.645095 0.222187
H128_2 H 0.072380 0.682312 0.193103
C163_2 C 0.0572(3) 0.7355(2) 0.24401(19)
C164_2 C 0.0492(3) 0.6834(2) 0.28696(19)
H131_2 H 0.083688 0.661745 0.296539
C165_2 C 0.0677(3) 0.7203(2) 0.31175(19)
H132_2 H 0.115312 0.718470 0.330597
C167_2 C 0.1032(4) 0.7879(2) 0.2918(2)
H133_2 H 0.148208 0.782293 0.311523
H134_2 H 0.114641 0.798831 0.266952
C168_2 C 0.0196(4) 0.7486(2) 0.3691(2)
H135_2 H 0.066926 0.744359 0.386866
C169_2 C 0.0458(4) 0.8522(2) 0.2904(2)
C170_2 C 0.0620(4) 0.8169(2) 0.3510(2)
H137_2 H 0.109597 0.812395 0.369185
C171_2 C 0.0345(4) 0.8574(2) 0.3569(2)
H138_2 H 0.068245 0.872132 0.378565
C174_2 C 0.0132(4) 0.9175(2) 0.3110(2)
H141_2 H 0.036545 0.926285 0.289370
H142_2 H 0.034806 0.932142 0.336067
N59_2 N 0.0486(3) 0.69546(17) 0.24587(15)
N60_2 N 0.0646(3) 0.75125(17) 0.28160(16)
N62_2 N 0.0123(3) 0.72395(17) 0.33363(15)
N63_2 N 0.0649(3) 0.81622(17) 0.30868(17)
N64_2 N 0.0263(3) 0.87636(18) 0.31805(18)
N65_2 N 0.0104(3) 0.79038(17) 0.36034(17)
O57_2 O 0.0586(2) 0.75440(14) 0.21368(14)
O59_2 O 0.0471(3) 0.86092(15) 0.25541(15)
O61_2 O 0.0914(3) 0.83287(16) 0.17881(16)
H153_2 H 0.0696715 0.836986 0.202331
H154_2 H 0.143299 0.830633 0.188626
C76_2 C 0.0407(3) 0.8226(2) 0.9844(2)
C77_2 C 0.0833(3) 0.8365(2) 0.9605(2)
H48_2 H 0.085032 0.863860 0.954958
C78_2 C 0.1239(4) 0.8099(2) 0.9445(2)
H49_2 H 0.152950 0.819346 0.927556
C79_2 C 0.1234(4) 0.7696(2) 0.9527(2)
C80_2 C 0.0783(3) 0.7561(2) 0.9759(2)
H50_2 H 0.075974 0.728776 0.981334
C81_2 C 0.0368(4) 0.7822(2) 0.9913(2)
C82_2 C 0.1736(4) 0.7411(2) 0.9388(2)
O27_2 O 0.1864(3) 0.70964(19) 0.95882(19)
O28_2 O 0.2008(3) 0.75027(15) 0.91074(14)
Sr8_2 Sr 0.27643(3) 0.71183(2) 0.86940(2)
C84_2 C 0.9572(4) 0.0284(2) 0.1742(2)
C85_2 C 0.9731(4) 0.0279(2) 0.2169(2)
H52_2 H 0.995957 0.005687 0.231184
C86_2 C 0.9554(4) 0.0597(2) 0.2383(2)
H53_2 H 0.966957 0.059454 0.267148
C87_2 C 0.9204(3) 0.09249(19) 0.21728(19)
C88_2 C 0.9075(3) 0.0929(2) 0.1752(2)
H54_2 H 0.885215 0.115041 0.160590
C89_2 C 0.9269(3) 0.06102(19) 0.1538(2)
H55_2 H 0.918834 0.062097 0.125033
C90_2 C 0.9020(3) 0.12641(19) 0.2402(2)
O29_2 O 0.9610(3) 0.01249(14) 0.08981(15)
O10_2 O 0.6608(3) 0.7052(2) 0.34324(17)
O11_2 O 0.6571(2) 0.81402(12) 0.33586(15)
O12_2 O 0.7783(3) 0.83506(17) 0.43006(16)
O13_2 O 0.5584(3) 0.76951(15) 0.26354(15)
Sr4_2 Sr 0.77643(3) 0.78817(2) 0.36940(2)
C31_2 C 0.7717(3) 0.6246(2) 0.3906(2)
C32_2 C 0.7452(3) 0.58837(18) 0.40774(19)
C33_2 C 0.7413(3) 0.55150(19) 0.3883(2)
H23_2 H 0.751570 0.549698 0.362209
C34_2 C 0.7228(3) 0.51807(19) 0.40629(19)
H24 H 0.720832 0.493304 0.393076
C35_2 C 0.7071(3) 0.52139(17) 0.44436(18)
C36_2 C 0.7054(3) 0.55780(19) 0.4623(2)
H25_2 H 0.690204 0.560070 0.486995
C37_2 C 0.7258(3) 0.59094(19) 0.4442(2)
H26_2 H 0.726291 0.615774 0.457085
C38 C 0.7229(3) 0.45336(18) 0.46812(18)
C39 C 0.7096(3) 0.42618(17) 0.50077(18)
C40 C 0.7000(3) 0.38603(17) 0.49335(18)
H27 H 0.698688 0.375557 0.467123
C41 C 0.6925(3) 0.36146(18) 0.52519(19)
C42 C 0.6941(4) 0.37660(19) 0.56314(19)
H28 H 0.689130 0.359590 0.584591
C43 C 0.7032(4) 0.41717(19) 0.57022(19)
C44 C 0.7107(3) 0.44152(19) 0.53864(19)
H29 H 0.716653 0.469014 0.543135
C45 C 0.6799(3) 0.31831(18) 0.51635(19)
C46 C 0.7308(4) 0.25192(19) 0.53228(19)
C47 C 0.6723(4) 0.22938(19) 0.5146(2)
H30 H 0.627335 0.241338 0.506043
C48 C 0.6801(4) 0.1896(2) 0.5095(2)
H31 H 0.640086 0.174293 0.497334
C49 C 0.7455(5) 0.1712(2) 0.5219(2)
C50 C 0.8017(4) 0.1929(2) 0.5391(2)
H32 H 0.846240 0.180374 0.547468
C51 C 0.7969(4) 0.2339(2) 0.5451(2)
H33 H 0.837303 0.248794 0.557563
C52 C 0.7519(6) 0.1263(3) 0.5157(3)
C53 C 0.7009(5) 0.4356(2) 0.6096(2)
C54 C 0.7289(6) 0.4283(3) 0.6835(3)
C55 C 0.6712(7) 0.4460(3) 0.6925(3)
H34 H 0.631312 0.452660 0.671650
C56 C 0.6727(7) 0.4542(3) 0.7341(3)
H35 H 0.632242 0.466177 0.740050
C57 C 0.7261(8) 0.4464(3) 0.7648(3)
C58 C 0.7852(7) 0.4307(3) 0.7547(3)
H36 H 0.826298 0.426289 0.775619
C59 C 0.7862(7) 0.4209(3) 0.7141(3)
H37 H 0.826897 0.409133 0.708235
C60 C 0.7246(10) 0.4513(4) 0.8090(3)
O14 O 0.6713(8) 0.4637(4) 0.8155(3)
O15 O 0.7757(7) 0.4439(3) 0.8336(3)
N5 N 0.6919(3) 0.48846(14) 0.46613(15)
H38 H 0.658704 0.491327 0.479691
N6 N 0.7289(3) 0.29318(15) 0.53783(16)
H39 H 0.762544 0.303490 0.556917
N7 N 0.7295(4) 0.4157(2) 0.64337(17)
H40 H 0.750258 0.393159 0.640691
O16_2 O 0.7850(2) 0.62253(13) 0.35590(14)
O17_2 O 0.7820(2) 0.65493(13) 0.41381(15)
O18 O 0.7638(3) 0.44362(14) 0.44730(15)
O19 O 0.6288(2) 0.30754(13) 0.49046(15)
O20 O 0.6968(5) 0.1092(2) 0.4974(3)
O21 O 0.8086(4) 0.1114(2) 0.5324(3)
O22 O 0.6729(4) 0.46793(17) 0.61009(17)
C61_2 C 0.7469(3) 0.7563(2) 0.2622(2)
C62_2 C 0.7746(3) 0.7824(2) 0.23412(19)
C63_2 C 0.7754(4) 0.7698(2) 0.1953(2)
H41_2 H 0.754736 0.745177 0.185991
C64_2 C 0.8059(4) 0.7925(2) 0.1697(2)
H42_2 H 0.807119 0.783509 0.143279
C65_2 C 0.8346(3) 0.82884(19) 0.18380(19)
C66_2 C 0.8328(4) 0.8414(2) 0.2216(2)
H43_2 H 0.850433 0.866771 0.230269
C67_2 C 0.8059(4) 0.8182(2) 0.2475(2)
H44_2 H 0.808614 0.826555 0.274623
C68_2 C 0.9123(3) 0.84395(18) 0.13732(18)
C69_2 C 0.9367(3) 0.87620(18) 0.11386(18)
C70_2 C 0.9609(3) 0.86581(19) 0.07946(18)
H45_2 H 0.962064 0.838901 0.072111
C71_2 C 0.9834(3) 0.89449(19) 0.05579(18)
C72_2 C 0.9847(3) 0.93319(19) 0.06790(19)
C73_2 C 0.9636(3) 0.94417(19) 0.10315(19)
C74_2 C 0.9391(3) 0.91465(18) 0.12572(19)
H47_2 H 0.923928 0.921618 0.149567
C83_2 C 0.9662(3) 0.9861(2) 0.1151(2)
N8_2 N 0.8644(3) 0.85424(15) 0.15821(15)
H56_2 H 0.849824 0.878806 0.156037
H57_2 H 0.961414 0.836808 0.010148
N10_2 N 0.9721(3) 0.99312(16) 0.15492(17)
H58_2 H 0.987072 0.973252 0.171304
O23_2 O 0.7054(2) 0.72857(13) 0.24799(13)
O24_2 O 0.7718(2) 0.75943(14) 0.30008(13)
O25_2 O 0.9352(2) 0.81017(13) 0.13666(13)
C133_2 C 0.8117(4) 0.8880(2) 0.3329(2)
C134_2 C 0.8239(4) 0.9476(2) 0.3011(2)
H101_2 H 0.806941 0.972941 0.310499
C135_2 C 0.8949(4) 0.9346(2) 0.3277(2)
H102_2 H 0.915883 0.955431 0.347824
C136_2 C 0.9039(4) 0.9380(2) 0.2598(2)
C137_2 C 0.7032(4) 0.9156(2) 0.2910(2)
H103_2 H 0.686792 0.942511 0.295144
H104_2 H 0.681908 0.897552 0.307835
C138_2 C 0.7905(4) 0.9677(2) 0.2260(2)
H105_2 H 0.766672 0.990590 0.235117
H106_2 H 0.818248 0.977601 0.207002
C139_2 C 0.6403(3) 0.8713(2) 0.2366(2)
C140_2 C 0.6725(4) 0.9329(2) 0.2161(2)
H107_2 H 0.648170 0.957579 0.221316
C141_2 C 0.6286(3) 0.91020(19) 0.1782(2)
H108_2 H 0.584539 0.924494 0.164928
C142_2 C 0.7412(4) 0.92606(19) 0.1675(2)
C143_2 C 0.5590(3) 0.84761(19) 0.17440(19)
H109_2 H 0.518489 0.863777 0.160277
H110_2 H 0.542996 0.831150 0.194718
C144_2 C 0.6571(4) 0.89637(19) 0.1091(2)
H111_2 H 0.693296 0.905724 0.095076
H112_2 H 0.612509 0.910124 0.096889
C145_2 C 0.5755(3) 0.78247(19) 0.14742(18)
C146_2 C 0.5824(3) 0.83458(19) 0.10436(18)
H113_2 H 0.539552 0.850022 0.091253
C147_2 C 0.5873(3) 0.79521(18) 0.08181(18)
H114_2 H 0.549328 0.792787 0.056412
C148_2 C 0.6890(3) 0.83289(19) 0.08351(18)
C149_2 C 0.5630(3) 0.72617(18) 0.10122(19)
H115_2 H 0.533591 0.725518 0.073126
H116_2 H 0.533888 0.716077 0.119443
C150_2 C 0.6846(3) 0.76834(19) 0.05067(18)
H117_2 H 0.724338 0.780211 0.041161
H118_2 H 0.647824 0.761307 0.026279
C151_2 C 0.6506(3) 0.68056(18) 0.13856(18)
C152_2 C 0.6657(3) 0.69799(18) 0.07414(18)
H119_2 H 0.637654 0.690874 0.046415
C153_2 C 0.7190(3) 0.6657(2) 0.09194(18)
H120_2 H 0.708687 0.640346 0.076685
C154_2 C 0.7794(3) 0.7215(2) 0.07956(18)
C155_2 C 0.7393(3) 0.63036(19) 0.16115(19)
H121_2 H 0.709155 0.626662 0.180781
H122_2 H 0.737048 0.605857 0.145083
C156_2 C 0.8501(3) 0.6616(2) 0.09606(19)
H123_2 H 0.882398 0.675174 0.081784
H124_2 H 0.841508 0.634914 0.084356
C157_2 C 0.9475(3) 0.6765(2) 0.15411(19)
C158_2 C 0.8703(3) 0.6275(2) 0.16466(19)
H125_2 H 0.865710 0.601078 0.151293
C159_2 C 0.9334(3) 0.62960(19) 0.20190(19)
H126_2 H 0.959135 0.603981 0.206688
C160_2 C 0.8310(3) 0.64338(18) 0.22328(19)
C162_2 C 0.9407(3) 0.63842(19) 0.27697(19)
H129_2 H 0.974650 0.616370 0.280302
H130_2 H 0.906787 0.632567 0.293948
C166_2 C 0.9592(3) 0.6966(2) 0.32048(19)
H136_2 H 0.984457 0.740224 0.384401
C172_2 C 0.9573(4) 0.8105(2) 0.3708(2)
C173_2 C 0.9260(4) 0.8788(2) 0.3809(2)
H139_2 H 0.956825 0.898422 0.397954
H140_2 H 0.897509 0.866098 0.398131
N39_2 N 0.8785(3) 0.89931(18) 0.34780(18)
N40_2 N 0.7783(3) 0.91434(18) 0.30539(17)
N41_2 N 0.9375(3) 0.92760(18) 0.29874(18)
N42_2 N 0.8390(3) 0.95087(17) 0.26137(18)
N43_2 N 0.6771(3) 0.90507(17) 0.24862(16)
N44_2 N 0.6142(3) 0.87315(16) 0.19509(16)
N45_2 N 0.7377(3) 0.94131(16) 0.20438(18)
N46_2 N 0.6783(3) 0.90699(16) 0.15130(17)
N47_2 N 0.5806(2) 0.82208(15) 0.14487(14)
N48_2 N 0.5808(2) 0.76573(15) 0.11171(14)
N49_2 N 0.6469(3) 0.85468(15) 0.10195(15)
N50_2 N 0.6563(3) 0.79755(15) 0.07330(15)
N51_2 N 0.7098(2) 0.73200(15) 0.07297(15)
N52_2 N 0.7846(2) 0.68253(16) 0.08809(15)
N53_2 N 0.6215(2) 0.70018(15) 0.10350(14)
N54_2 N 0.7109(2) 0.66220(15) 0.13404(14)
N55_2 N 0.8848(2) 0.65807(16) 0.13841(15)
N56_2 N 0.9765(3) 0.66002(17) 0.19071(16)
N57_2 N 0.8110(2) 0.63638(15) 0.18346(15)
N58_2 N 0.9030(3) 0.63983(16) 0.23533(15)
N61_2 N 0.9783(3) 0.67356(16) 0.29211(15)
N66_2 N 0.9687(3) 0.84998(18) 0.36876(18)
O46_2 O 0.7848(3) 0.85737(15) 0.34307(15)
O47_2 O 0.9285(3) 0.93687(14) 0.23037(15)
O48_2 O 0.6332(2) 0.84385(14) 0.25888(13)
O49_2 O 0.7901(2) 0.92919(13) 0.15099(14)
O50_2 O 0.5673(2) 0.76431(12) 0.17739(12)
O51_2 O 0.7460(2) 0.84241(13) 0.07667(14)
O52_2 O 0.6271(2) 0.67903(13) 0.16819(12)
O53_2 O 0.8271(2) 0.74373(14) 0.07714(13)
O54_2 O 0.7927(2) 0.65065(13) 0.24673(13)
O55_2 O 0.9748(2) 0.70318(14) 0.13780(14)
O56_2 O 0.9063(2) 0.69280(14) 0.33352(13)
O58_2 O 0.9064(2) 0.79538(14) 0.38189(14)
O60_2 O 0.8175(2) 0.71678(14) 0.37771(14)
O62_2 O 0.9687(2) 0.75597(14) 0.06965(13)
O63_2 O 0.7008(3) 0.74973(15) 0.41074(14)
H143_2 H 0.681859 0.710532 0.372391
H144_2 H 0.639203 0.729666 0.329885
H145_2 H 0.660111 0.842767 0.331402
H146_2 H 0.639949 0.800643 0.309307
H147_2 H 0.738095 0.828826 0.442445
H148_2 H 0.823201 0.83164 0.450699
H149_2 H 0.576808 0.792851 0.251675
H150_2 H 0.507222 0.772943 0.261761
H151 H 0.631974 0.445594 0.803686
H152 H 0.680561 0.120668 0.469809
H155_2 H 0.96109 0.78105 0.0542144
H156_2 H 0.993887 0.737124 0.0555704
C96_3 C 0.0182(4) 0.6616(2) 0.8946(2)
H63_3 H 0.025719 0.654361 0.923628
H64_3 H 0.065126 0.665418 0.888585
C100_3 C 0.0041(4) 0.6155(2) 0.8380(2)
H69_3 H 0.032945 0.563037 0.792620
H99_3 H 0.022852 0.801135 0.854752
O33_3 O 0.0446(2) 0.72976(16) 0.84742(14)
O35_3 O 0.0502(3) 0.62828(17) 0.82304(16)
O37_3 O 0.0086(2) 0.57005(14) 0.71821(15)
O45_2 O 0.0064(2) 0.80849(13) 0.77907(13)
Sr5 Sr 0.07816(3) 0.79258(2) 0.72383(2)
Sr1_3 Sr 0.54228(3) 0.73108(2) 0.64122(2)
O10_3 O 0.1608(3) 0.7948(2) 0.84324(17)
O11_3 O 0.1571(2) 0.68598(12) 0.83586(15)
O12_3 O 0.2783(3) 0.66494(17) 0.93006(16)
O13_3 O 0.0584(3) 0.73049(15) 0.76354(15)
Sr3_2 Sr 0.25719(3) 0.81851(2) 0.80836(2)
C31_3 C 0.2717(3) 0.8754(2) 0.8906(2)
C32_3 C 0.2452(3) 0.91163(18) 0.90774(19)
C33_3 C 0.2413(3) 0.94850(19) 0.8883(2)
H23_3 H 0.251570 0.950302 0.862209
C34_3 C 0.2228(3) 0.98193(19) 0.90629(19)
C35_3 C 0.2071(3) 0.97861(17) 0.94436(18)
C36_3 C 0.2054(3) 0.94220(19) 0.9623(2)
H25_3 H 0.190204 0.939930 0.986995
C37_3 C 0.2258(3) 0.90906(19) 0.9442(2)
H26_3 H 0.226291 0.884226 0.957085
O16_3 O 0.2850(2) 0.87747(13) 0.85590(14)
O17_3 O 0.2820(2) 0.84507(13) 0.91381(15)
C61_3 C 0.2469(3) 0.7437(2) 0.7622(2)
C62_3 C 0.2746(3) 0.7176(2) 0.73412(19)
C63_3 C 0.2754(4) 0.7302(2) 0.6953(2)
H41_3 H 0.254736 0.754823 0.685991
C64_3 C 0.3059(4) 0.7075(2) 0.6697(2)
H42_3 H 0.307119 0.716491 0.643279
C65_3 C 0.3346(3) 0.67116(19) 0.68380(19)
C66_3 C 0.3328(4) 0.6586(2) 0.7216(2)
H43_3 H 0.350433 0.633229 0.730269
C67_3 C 0.3059(4) 0.6818(2) 0.7475(2)
H44_3 H 0.308614 0.673445 0.774623
C68_3 C 0.4123(3) 0.65605(18) 0.63732(18)
C69_3 C 0.4367(3) 0.62380(18) 0.61386(18)
C70_3 C 0.4609(3) 0.63419(19) 0.57946(18)
H45_3 H 0.462064 0.661099 0.572111
C71_3 C 0.4834(3) 0.60551(19) 0.55579(18)
C72_3 C 0.4847(3) 0.56681(19) 0.56790(19)
H46_3 H 0.500126 0.547173 0.551950
C73_3 C 0.4636(3) 0.55583(19) 0.60315(19)
C74_3 C 0.4391(3) 0.58535(18) 0.62572(19)
H47_3 H 0.423928 0.578382 0.649567
C75_3 C 0.5136(3) 0.6160(2) 0.5201(2)
C76_3 C 0.5407(3) 0.6774(2) 0.4844(2)
C77_3 C 0.5833(3) 0.6635(2) 0.4605(2)
H48_3 H 0.585032 0.636140 0.454958
C78_3 C 0.6239(4) 0.6901(2) 0.4445(2)
H49_3 H 0.652950 0.680654 0.427556
C79_3 C 0.6234(4) 0.7304(2) 0.4527(2)
C80_3 C 0.5783(3) 0.7439(2) 0.4759(2)
H50_3 H 0.575974 0.771224 0.481334
C81_3 C 0.5368(4) 0.7178(2) 0.4913(2)
H51_3 H 0.505194 0.727406 0.506649
C82_3 C 0.6736(4) 0.7589(2) 0.4388(2)
C83_3 C 0.4662(3) 0.5139(2) 0.6151(2)
C84_3 C 0.4572(4) 0.4716(2) 0.6742(2)
C85_3 C 0.4731(4) 0.4721(2) 0.7169(2)
H52_3 H 0.495957 0.494313 0.731184
C86_3 C 0.4554(4) 0.4403(2) 0.7383(2)
H53_3 H 0.466957 0.440546 0.767148
C87_3 C 0.4204(3) 0.40751(19) 0.71728(19)
C88_3 C 0.4075(3) 0.4071(2) 0.6752(2)
H54_3 H 0.385215 0.384959 0.660590
C89_3 C 0.4269(3) 0.43898(19) 0.6538(2)
H55_3 H 0.418834 0.437903 0.625033
C90_3 C 0.4020(3) 0.37359(19) 0.7402(2)
N8_3 N 0.3644(3) 0.64576(15) 0.65821(15)
H56_3 H 0.349824 0.621194 0.656037
N9_3 N 0.5002(3) 0.65257(18) 0.50591(16)
H57_3 H 0.461414 0.663192 0.510148
N10_3 N 0.4721(3) 0.50688(16) 0.65492(17)
H58_3 H 0.487072 0.526748 0.671304
O23_3 O 0.2054(2) 0.77143(13) 0.74799(13)
O24_3 O 0.2718(2) 0.74057(14) 0.80008(13)
O25_3 O 0.4352(2) 0.68983(13) 0.63666(13)
O26_3 O 0.5532(3) 0.59322(15) 0.50772(15)
O27_3 O 0.6864(3) 0.79036(19) 0.45882(19)
O29_3 O 0.4610(3) 0.48751(14) 0.58981(15)
O30_2 O 0.3569(2) 0.34952(14) 0.72280(14)
O31_2 O 0.4345(2) 0.36888(13) 0.77643(13)
C91_3 C 0.8059(4) 0.7152(3) 0.8758(2)
C92_3 C 0.9257(4) 0.7096(2) 0.9089(2)
H59_3 H 0.942537 0.706853 0.939078
C93_3 C 0.9098(3) 0.7520(2) 0.89652(19)
H60_3 H 0.917002 0.769597 0.920825
C94_3 C 0.9984(3) 0.7298(2) 0.8671(2)
C95_3 C 0.8442(4) 0.6502(2) 0.9046(2)
H61_3 H 0.870358 0.644842 0.932826
H62_3 H 0.793275 0.648118 0.903770
C97_3 C 0.8145(4) 0.5979(3) 0.8529(2)
C98_3 C 0.9330(4) 0.6054(2) 0.8839(2)
H65_3 H 0.951286 0.596430 0.912594
C99_3 C 0.9233(4) 0.5702(3) 0.8538(2)
H66_3 H 0.940139 0.544870 0.867681
C101_3 C 0.8131(4) 0.5377(3) 0.8124(2)
H67_3 H 0.762827 0.537862 0.813454
H68_3 H 0.833864 0.512603 0.824329
C102_3 C 0.9880(4) 0.5539(2) 0.7983(2)
H70_3 H 0.996991 0.528240 0.812512
C103_3 C 0.7641(4) 0.5509(2) 0.7399(2)
C104_3 C 0.8777(4) 0.5227(2) 0.7566(2)
H71_2 H 0.891729 0.496275 0.768883
C105_3 C 0.8474(4) 0.5206(2) 0.7100(2)
H72_2 H 0.838427 0.492759 0.700566
C106_3 C 0.9546(4) 0.5545(2) 0.7234(2)
C107_3 C 0.7302(4) 0.5421(2) 0.6662(2)
H73_3 H 0.727513 0.515146 0.654901
H74_3 H 0.683762 0.548416 0.671750
C108_3 C 0.9069(4) 0.5365(2) 0.6515(2)
H75_3 H 0.891490 0.510133 0.640715
H76_3 H 0.956613 0.539933 0.650024
C109_3 C 0.7004(3) 0.6003(2) 0.6218(2)
C110_3 C 0.7894(3) 0.5606(2) 0.6090(2)
H77_3 H 0.779239 0.533944 0.596551
C111_3 C 0.7729(3) 0.59317(19) 0.5765(2)
H78_3 H 0.755075 0.581878 0.548757
C112_3 C 0.8932(3) 0.59332(19) 0.60606(19)
C113_3 C 0.6750(3) 0.64362(19) 0.5631(2)
H79_3 H 0.667667 0.634199 0.534680
H80_3 H 0.628460 0.644350 0.570066
C114_3 C 0.8514(3) 0.64324(19) 0.55247(19)
H81_3 H 0.902612 0.644926 0.553909
H82_3 H 0.827947 0.635466 0.524397
C115_3 C 0.6707(3) 0.7143(2) 0.57836(19)
C116_3 C 0.7561(3) 0.69593(19) 0.54408(19)
H83_3 H 0.740707 0.690655 0.514241
C117_3 C 0.7612(3) 0.74052(19) 0.55309(18)
H84_3 H 0.758463 0.756320 0.527820
C118_3 C 0.8698(3) 0.71034(19) 0.58200(18)
C119_3 C 0.6796(3) 0.78679(19) 0.58025(18)
H85_3 H 0.628957 0.786034 0.580373
H86_3 H 0.685440 0.805201 0.558557
C120_3 C 0.8648(3) 0.78128(19) 0.59291(18)
H87_3 H 0.852549 0.799544 0.569530
H88_3 H 0.916429 0.777190 0.599067
C121_3 C 0.6964(3) 0.79849(19) 0.65383(18)
C122_3 C 0.7823(3) 0.82350(18) 0.62388(17)
H89_3 H 0.778885 0.844435 0.602742
C123_3 C 0.7921(3) 0.84098(18) 0.66678(17)
H90_3 H 0.779876 0.869572 0.665946
C124_3 C 0.8964(3) 0.80968(17) 0.66215(17)
C125_3 C 0.7246(3) 0.8283(2) 0.72135(18)
H91_3 H 0.679805 0.814929 0.722190
H92_3 H 0.715824 0.856960 0.721114
C126_3 C 0.9037(3) 0.85451(18) 0.72073(18)
H93_3 H 0.887215 0.882107 0.719434
H94_3 H 0.954271 0.854922 0.720215
C127_3 C 0.7563(3) 0.7963(2) 0.7872(2)
C128_3 C 0.8353(3) 0.8437(2) 0.77525(18)
H95_3 H 0.820998 0.872000 0.774062
C129_3 C 0.8583(3) 0.8294(2) 0.81908(19)
H96_3 H 0.860942 0.851543 0.838799
C130_3 C 0.9489(3) 0.81841(19) 0.78551(18)
C131_3 C 0.7951(3) 0.7853(2) 0.8613(2)
H97_3 H 0.744682 0.778650 0.858042
H98_3 H 0.806978 0.805785 0.882579
C132_3 C 0.9737(3) 0.8005(2) 0.8580(2)
H100_3 H 0.969939 0.819692 0.879398
N11_3 N 0.8362(3) 0.7511(2) 0.87492(17)
N12_3 N 0.8593(3) 0.6893(2) 0.89401(17)
N13_3 N 0.9589(3) 0.76122(19) 0.87155(16)
N14_3 N 0.9800(3) 0.69869(19) 0.88801(17)
N15_3 N 0.8628(3) 0.6208(2) 0.87791(18)
N16_3 N 0.8487(3) 0.5700(2) 0.83681(19)
N17_3 N 0.9836(3) 0.62982(19) 0.87045(18)
N18_3 N 0.9649(3) 0.58195(19) 0.82477(18)
N19_3 N 0.8181(3) 0.53970(19) 0.77053(19)
N20_3 N 0.7823(3) 0.54300(17) 0.70353(18)
N21_3 N 0.9363(3) 0.54841(17) 0.75988(18)
N22_3 N 0.9028(3) 0.53840(17) 0.69374(17)
N23_3 N 0.7440(3) 0.56942(17) 0.63584(17)
N24_3 N 0.7033(3) 0.68323(16) 0.56541(16)
N25_3 N 0.8644(3) 0.56586(16) 0.62608(16)
N26_3 N 0.8396(3) 0.61288(16) 0.57990(16)
N27_3 N 0.7188(3) 0.61636(16) 0.58910(17)
N28_3 N 0.7016(2) 0.74771(15) 0.57064(15)
N29_3 N 0.8263(2) 0.68184(15) 0.56041(15)
N30_3 N 0.8304(2) 0.74415(15) 0.58136(15)
N31_3 N 0.7184(2) 0.80164(15) 0.61875(14)
N32_3 N 0.7437(2) 0.81764(16) 0.68376(15)
N33_3 N 0.8463(2) 0.79935(14) 0.62757(14)
N34_3 N 0.8656(2) 0.83425(15) 0.68513(14)
N35_3 N 0.7762(2) 0.81859(17) 0.75792(15)
N36_3 N 0.8051(3) 0.80163(18) 0.82294(16)
N37_3 N 0.8970(2) 0.83785(16) 0.75871(15)
N38_3 N 0.9280(3) 0.81268(17) 0.82057(15)
O32_3 O 0.7447(3) 0.70678(19) 0.86403(16)
O34_3 O 0.7499(3) 0.60297(19) 0.84561(17)
O36_3 O 0.7078(3) 0.56406(18) 0.74331(17)
O38_3 O 0.6514(2) 0.61181(15) 0.63640(16)
O39_3 O 0.9560(2) 0.60003(13) 0.60916(13)
O40_3 O 0.6195(2) 0.71173(13) 0.59428(13)
O41_3 O 0.9315(2) 0.70643(14) 0.59762(13)
O42_3 O 0.6435(2) 0.78167(13) 0.65775(13)
O43_2 O 0.95846(19) 0.79963(12) 0.67060(12)
O44_3 O 0.7032(2) 0.77651(16) 0.78250(14)
C133_3 C 0.3117(4) 0.6120(2) 0.8329(2)
C134_3 C 0.3239(4) 0.5524(2) 0.8011(2)
H101_3 H 0.306941 0.527059 0.810499
C135_3 C 0.3949(4) 0.5654(2) 0.8277(2)
H102_3 H 0.415883 0.544569 0.847824
C136_3 C 0.4039(4) 0.5620(2) 0.7598(2)
C137_3 C 0.2032(4) 0.5844(2) 0.7910(2)
H103_3 H 0.186792 0.557489 0.795144
H104_3 H 0.181908 0.602448 0.807835
C138_3 C 0.2905(4) 0.5323(2) 0.7260(2)
H105_3 H 0.266672 0.509410 0.735117
H106_3 H 0.318248 0.522399 0.707002
C139_3 C 0.1403(3) 0.6287(2) 0.7366(2)
C140_3 C 0.1725(4) 0.5671(2) 0.7161(2)
H107_3 H 0.148170 0.542421 0.721316
C141_3 C 0.1286(3) 0.58980(19) 0.6782(2)
H108_3 H 0.084539 0.575506 0.664928
C142_3 C 0.2412(4) 0.57394(19) 0.6675(2)
C143_3 C 0.0590(3) 0.65239(19) 0.67440(19)
H109_3 H 0.018489 0.636223 0.660277
H110_3 H 0.042996 0.668850 0.694718
C144_3 C 0.1571(4) 0.60363(19) 0.6091(2)
H111_3 H 0.193296 0.594276 0.595076
H112_3 H 0.112509 0.589876 0.596889
C145_3 C 0.0755(3) 0.71753(19) 0.64742(18)
C146_3 C 0.0824(3) 0.66542(19) 0.60436(18)
H113_3 H 0.039552 0.649978 0.591253
C147_3 C 0.0873(3) 0.70479(18) 0.58181(18)
H114_3 H 0.049328 0.707213 0.556412
C148_3 C 0.1890(3) 0.66711(19) 0.58351(18)
C149_3 C 0.0630(3) 0.77383(18) 0.60122(19)
H115_3 H 0.033591 0.774482 0.573126
H116_3 H 0.033888 0.783923 0.619443
C150_3 C 0.1846(3) 0.73166(19) 0.55067(18)
H117_3 H 0.224338 0.719789 0.541161
H118_3 H 0.147824 0.738693 0.526279
C151_3 C 0.1506(3) 0.81944(18) 0.63856(18)
C152_3 C 0.1657(3) 0.80201(18) 0.57414(18)
H119_3 H 0.137654 0.809126 0.546415
C153_3 C 0.2190(3) 0.8343(2) 0.59194(18)
H120_3 H 0.208687 0.859654 0.576685
C154_3 C 0.2794(3) 0.7785(2) 0.57956(18)
C155_3 C 0.2393(3) 0.86964(19) 0.66115(19)
H121_3 H 0.209155 0.873338 0.680781
H122_3 H 0.237048 0.894143 0.645083
C156_3 C 0.3501(3) 0.8384(2) 0.59606(19)
H123_3 H 0.382398 0.824826 0.581784
H124_3 H 0.341508 0.865086 0.584356
C157_3 C 0.4475(3) 0.8235(2) 0.65411(19)
C158_3 C 0.3703(3) 0.8725(2) 0.66466(19)
H125_3 H 0.365710 0.898922 0.651293
C159_3 C 0.4334(3) 0.87040(19) 0.70190(19)
H126_3 H 0.459135 0.896019 0.706688
C160_3 C 0.3310(3) 0.85662(18) 0.72328(19)
C161_3 C 0.5475(3) 0.8304(2) 0.7122(2)
H127_3 H 0.572980 0.854905 0.722187
H128_3 H 0.572380 0.817688 0.693103
C162_3 C 0.4407(3) 0.86158(19) 0.77697(19)
H129_3 H 0.474650 0.883630 0.780302
H130_3 H 0.406787 0.867433 0.793948
C163_3 C 0.5572(3) 0.7645(2) 0.74401(19)
C164_3 C 0.5492(3) 0.8166(2) 0.78696(19)
H131_3 H 0.583688 0.838255 0.796539
C165_3 C 0.5677(3) 0.7797(2) 0.81175(19)
H132_3 H 0.615312 0.781530 0.830597
C166_3 C 0.4592(3) 0.8034(2) 0.82048(19)
C167_3 C 0.6032(4) 0.7121(2) 0.7918(2)
H133_3 H 0.648208 0.717707 0.811523
H134_3 H 0.614641 0.701169 0.766952
C168_3 C 0.5196(4) 0.7514(2) 0.8691(2)
H135_3 H 0.566926 0.755641 0.886866
H136_3 H 0.484457 0.759776 0.884401
C169_3 C 0.5458(4) 0.6478(2) 0.7904(2)
C170_3 C 0.5620(4) 0.6831(2) 0.8510(2)
H137_3 H 0.609597 0.687605 0.869185
C171_3 C 0.5345(4) 0.6426(2) 0.8569(2)
H138_3 H 0.568245 0.627868 0.878565
C172_3 C 0.4573(4) 0.6895(2) 0.8708(2)
C173_3 C 0.4260(4) 0.6212(2) 0.8809(2)
H139_3 H 0.456825 0.601578 0.897954
H140_3 H 0.397509 0.633902 0.898131
C174_3 C 0.5132(4) 0.5825(2) 0.8110(2)
H141_3 H 0.536545 0.573715 0.789370
H142_3 H 0.534806 0.567858 0.836067
N39_3 N 0.3785(3) 0.60069(18) 0.84780(18)
N40_3 N 0.2783(3) 0.58566(18) 0.80539(17)
N41_3 N 0.4375(3) 0.57240(18) 0.79874(18)
N42_3 N 0.3390(3) 0.54913(17) 0.76137(18)
N43_3 N 0.1771(3) 0.59493(17) 0.74862(16)
N44_3 N 0.1142(3) 0.62685(16) 0.69509(16)
N45_3 N 0.2377(3) 0.55869(16) 0.70438(18)
N46_3 N 0.1783(3) 0.59301(16) 0.65130(17)
N47_3 N 0.0806(2) 0.67792(15) 0.64487(14)
N48_3 N 0.0808(2) 0.73427(15) 0.61171(14)
N49_3 N 0.1469(3) 0.64532(15) 0.60195(15)
N50_3 N 0.1563(3) 0.70245(15) 0.57330(15)
N51_3 N 0.2098(2) 0.76800(15) 0.57297(15)
N52_3 N 0.2846(2) 0.81747(16) 0.58809(15)
N53_3 N 0.1215(2) 0.79982(15) 0.60350(14)
N54_3 N 0.2109(2) 0.83780(15) 0.63404(14)
N55_3 N 0.3848(2) 0.84193(16) 0.63841(15)
N56_3 N 0.4765(3) 0.83998(17) 0.69071(16)
N57_3 N 0.3110(2) 0.86362(15) 0.68346(15)
N58_3 N 0.4030(3) 0.86017(16) 0.73533(15)
N59_3 N 0.5486(3) 0.80454(17) 0.74587(15)
N60_3 N 0.5646(3) 0.74875(17) 0.78160(16)
N61_3 N 0.4783(3) 0.82644(16) 0.79211(15)
N62_3 N 0.5123(3) 0.77605(17) 0.83363(15)
N63_3 N 0.5649(3) 0.68378(17) 0.80868(17)
N64_3 N 0.5263(3) 0.62364(18) 0.81805(18)
N65_3 N 0.5104(3) 0.70962(17) 0.86034(17)
N66_3 N 0.4687(3) 0.65002(18) 0.86876(18)
O46_3 O 0.2848(3) 0.64263(15) 0.84307(15)
O47_3 O 0.4285(3) 0.56313(14) 0.73037(15)
O48_3 O 0.1332(2) 0.65615(14) 0.75888(13)
O49_3 O 0.2901(2) 0.57081(13) 0.65099(14)
O50_3 O 0.0673(2) 0.73569(12) 0.67739(12)
O51_3 O 0.2460(2) 0.65759(13) 0.57667(14)
O52_3 O 0.1271(2) 0.82097(13) 0.66819(12)
O53_3 O 0.3271(2) 0.75627(14) 0.57714(13)
O54_3 O 0.2927(2) 0.84935(13) 0.74673(13)
O55_3 O 0.4748(2) 0.79682(14) 0.63780(14)
O56_3 O 0.4063(2) 0.80720(14) 0.83352(13)
O57_3 O 0.5586(2) 0.74560(14) 0.71368(14)
O58_3 O 0.4064(2) 0.70462(14) 0.88189(14)
O59_3 O 0.5471(3) 0.63908(15) 0.75541(15)
O60_3 O 0.3175(2) 0.78322(14) 0.87771(14)
O61_3 O 0.5914(3) 0.66713(16) 0.67881(16)
O62_3 O 0.4687(2) 0.74403(14) 0.56965(13)
Sr6_2 Sr 0.42184(3) 0.29258(2) 0.77617(2)
Sr7_2 Sr 0.24281(3) 0.31851(2) 0.69164(2)
O64_2 O 0.1431(2) 0.84952(14) 0.77720(14)
O65_2 O 0.0655(2) 0.86888(13) 0.72357(13)
H143_3 H 0.181859 0.789468 0.872391
H144_3 H 0.139203 0.770334 0.829885
H145_3 H 0.160111 0.657233 0.831402
H146_3 H 0.139949 0.699357 0.809307
H147_3 H 0.238095 0.671174 0.942445
H148_3 H 0.323201 0.66836 0.950699
H149_3 H 0.0768083 0.707149 0.751675
H150_3 H 0.00722194 0.727057 0.761761
H153_3 H 0.569672 0.663014 0.702331
H154_3 H 0.643299 0.669367 0.688626
H155_3 H 0.46109 0.71895 0.554214
H156_3 H 0.493887 0.762876 0.55557
O10_4 O 0.3392(3) 0.2948(2) 0.65676(17)
O11_4 O 0.3429(2) 0.18598(12) 0.66414(15)
O12_4 O 0.2217(3) 0.16494(17) 0.56994(16)
O13_4 O 0.4416(3) 0.23049(15) 0.73646(15)
C31_4 C 0.2283(3) 0.3754(2) 0.6094(2)
C32_4 C 0.2548(3) 0.41163(18) 0.59226(19)
C33_4 C 0.2587(3) 0.44850(19) 0.6117(2)
H23_4 H 0.248430 0.450302 0.637791
C34_4 C 0.2772(3) 0.48193(19) 0.59371(19)
H24_2 H 0.279168 0.506696 0.606924
C35_4 C 0.2929(3) 0.47861(17) 0.55564(18)
C36_4 C 0.2946(3) 0.44220(19) 0.5377(2)
H25_4 H 0.309796 0.439930 0.513005
C37_4 C 0.2742(3) 0.40906(19) 0.5558(2)
H26_4 H 0.273709 0.384226 0.542915
C38_2 C 0.2771(3) 0.54664(18) 0.53188(18)
C39_2 C 0.2904(3) 0.57382(17) 0.49923(18)
C40_2 C 0.3000(3) 0.61397(17) 0.50665(18)
H27_2 H 0.301312 0.624443 0.532877
C41_2 C 0.3075(3) 0.63854(18) 0.47481(19)
C42_2 C 0.3059(4) 0.62340(19) 0.43686(19)
H28_2 H 0.310870 0.640410 0.415409
C43_2 C 0.2968(4) 0.58283(19) 0.42978(19)
C44_2 C 0.2893(3) 0.55848(19) 0.46136(19)
H29_2 H 0.283347 0.530986 0.456865
C45_2 C 0.3201(3) 0.68169(18) 0.48365(19)
C46_2 C 0.2692(4) 0.74808(19) 0.46772(19)
C47_2 C 0.3277(4) 0.77062(19) 0.4854(2)
H30_2 H 0.372665 0.758662 0.493957
C48_2 C 0.3199(4) 0.8104(2) 0.4905(2)
H31_2 H 0.359914 0.825707 0.502666
C49_2 C 0.2545(5) 0.8288(2) 0.4781(2)
C50_2 C 0.1983(4) 0.8071(2) 0.4609(2)
H32_2 H 0.153760 0.819626 0.452532
C51_2 C 0.2031(4) 0.7661(2) 0.4549(2)
H33_2 H 0.162697 0.751206 0.442437
C52_2 C 0.2481(6) 0.8737(3) 0.4843(3)
C53_2 C 0.2991(5) 0.5644(2) 0.3904(2)
C54_2 C 0.2711(6) 0.5717(3) 0.3165(3)
C55_2 C 0.3288(7) 0.5540(3) 0.3075(3)
H34_2 H 0.368688 0.547340 0.328350
C56_2 C 0.3273(7) 0.5458(3) 0.2659(3)
H35_2 H 0.367758 0.533823 0.259950
C57_2 C 0.2739(8) 0.5536(3) 0.2352(3)
C58_2 C 0.2148(7) 0.5693(3) 0.2453(3)
H36_2 H 0.173702 0.573711 0.224381
C59_2 C 0.2138(7) 0.5791(3) 0.2859(3)
H37_2 H 0.173103 0.590867 0.291765
C60_2 C 0.2754(10) 0.5487(4) 0.1910(3)
O14_2 O 0.3287(8) 0.5363(4) 0.1845(3)
O15_2 O 0.2243(7) 0.5561(3) 0.1664(3)
N5_2 N 0.3081(3) 0.51154(14) 0.53387(15)
H38_2 H 0.341296 0.508673 0.520309
N6_2 N 0.2711(3) 0.70682(15) 0.46217(16)
H39_2 H 0.237456 0.696510 0.443083
N7_2 N 0.2705(4) 0.5843(2) 0.35663(17)
H40_2 H 0.249742 0.606841 0.359309
O16_4 O 0.2150(2) 0.37747(13) 0.64410(14)
O17_4 O 0.2180(2) 0.34507(13) 0.58619(15)
O18_2 O 0.2362(3) 0.55638(14) 0.55270(15)
O19_2 O 0.3712(2) 0.69246(13) 0.50954(15)
O20_2 O 0.3032(5) 0.8908(2) 0.5026(3)
O21_2 O 0.1914(4) 0.8886(2) 0.4676(3)
O22_2 O 0.3271(4) 0.53207(17) 0.38991(17)
C61_4 C 0.2531(3) 0.2437(2) 0.7378(2)
C62_4 C 0.2254(3) 0.2176(2) 0.76588(19)
C63_4 C 0.2246(4) 0.2302(2) 0.8047(2)
H41_4 H 0.245264 0.254823 0.814009
C64_4 C 0.1941(4) 0.2075(2) 0.8303(2)
H42_4 H 0.192881 0.216491 0.856721
C65_4 C 0.1654(3) 0.17116(19) 0.81620(19)
C66_4 C 0.1672(4) 0.1586(2) 0.7784(2)
H43_4 H 0.149567 0.133229 0.769731
C67_4 C 0.1941(4) 0.1818(2) 0.7525(2)
H44_4 H 0.191386 0.173445 0.725377
C68_4 C 0.0877(3) 0.15605(18) 0.86268(18)
C69_4 C 0.0633(3) 0.12380(18) 0.88614(18)
C70_4 C 0.0391(3) 0.13419(19) 0.92054(18)
H45_4 H 0.037936 0.161099 0.927889
C71_4 C 0.0166(3) 0.10551(19) 0.94421(18)
C72_4 C 0.0153(3) 0.06681(19) 0.93210(19)
C73_4 C 0.0364(3) 0.05583(19) 0.89685(19)
C74_4 C 0.0609(3) 0.08535(18) 0.87428(19)
H47_4 H 0.076072 0.078382 0.850433
C83_4 C 0.0338(3) 0.0139(2) 0.8849(2)
N8_4 N 0.1356(3) 0.14576(15) 0.84179(15)
H56_4 H 0.150176 0.121194 0.843963
H57_4 H 0.038586 0.163192 0.989852
N10_4 N 0.0279(3) 0.00688(16) 0.84508(17)
H58_4 H 0.012928 0.026748 0.828696
O23_4 O 0.2946(2) 0.27143(13) 0.75201(13)
O24_4 O 0.2282(2) 0.24057(14) 0.69992(13)
O25_4 O 0.0648(2) 0.18983(13) 0.86334(13)
C133_4 C 0.1883(4) 0.1120(2) 0.6671(2)
C134_4 C 0.1761(4) 0.0524(2) 0.6989(2)
H101_4 H 0.193059 0.027059 0.689501
C135_4 C 0.1051(4) 0.0654(2) 0.6723(2)
H102_4 H 0.084117 0.044569 0.652176
C136_4 C 0.0961(4) 0.0620(2) 0.7402(2)
C137_4 C 0.2968(4) 0.0844(2) 0.7090(2)
H103_4 H 0.313208 0.057489 0.704856
H104_4 H 0.318092 0.102448 0.692165
C138_4 C 0.2095(4) 0.0323(2) 0.7740(2)
H105_4 H 0.233328 0.009410 0.764883
H106_4 H 0.181752 0.022399 0.792998
C139_4 C 0.3597(3) 0.1287(2) 0.7634(2)
C140_4 C 0.3275(4) 0.0671(2) 0.7839(2)
H107_4 H 0.351830 0.042421 0.778684
C141_4 C 0.3714(3) 0.08980(19) 0.8218(2)
H108_4 H 0.415461 0.075506 0.835072
C142_4 C 0.2588(4) 0.07394(19) 0.8325(2)
C143_4 C 0.4410(3) 0.15239(19) 0.82560(19)
H109_4 H 0.481511 0.136223 0.839723
H110_4 H 0.457004 0.168850 0.805282
C144_4 C 0.3429(4) 0.10363(19) 0.8909(2)
H111_4 H 0.306704 0.094276 0.904924
H112_4 H 0.387491 0.089876 0.903111
C145_4 C 0.4245(3) 0.21753(19) 0.85258(18)
C146_4 C 0.4176(3) 0.16542(19) 0.89564(18)
H113_4 H 0.460448 0.149978 0.908747
C147_4 C 0.4127(3) 0.20479(18) 0.91819(18)
H114_4 H 0.450672 0.207213 0.943588
C148_4 C 0.3110(3) 0.16711(19) 0.91649(18)
C149_4 C 0.4370(3) 0.27383(18) 0.89878(19)
H115_4 H 0.466409 0.274482 0.926874
H116_4 H 0.466112 0.283923 0.880557
C150_4 C 0.3154(3) 0.23166(19) 0.94933(18)
H117_4 H 0.275662 0.219789 0.958839
H118_4 H 0.352176 0.238693 0.973721
C151_4 C 0.3494(3) 0.31944(18) 0.86144(18)
C152_4 C 0.3343(3) 0.30201(18) 0.92586(18)
H119_4 H 0.362346 0.309126 0.953585
C153_4 C 0.2810(3) 0.3343(2) 0.90806(18)
H120_4 H 0.291313 0.359654 0.923315
C154_4 C 0.2206(3) 0.2785(2) 0.92044(18)
C155_4 C 0.2607(3) 0.36964(19) 0.83885(19)
H121_4 H 0.290845 0.373338 0.819219
H122_4 H 0.262952 0.394143 0.854917
C156_4 C 0.1499(3) 0.3384(2) 0.90394(19)
H123_4 H 0.117602 0.324826 0.918216
H124_4 H 0.158492 0.365086 0.915644
C157_4 C 0.0525(3) 0.3235(2) 0.84589(19)
C158_4 C 0.1297(3) 0.3725(2) 0.83534(19)
H125_4 H 0.134290 0.398922 0.848707
C159_4 C 0.0666(3) 0.37040(19) 0.79810(19)
H126_4 H 0.040865 0.396019 0.793312
C160_4 C 0.1690(3) 0.35662(18) 0.77672(19)
C162_4 C 0.0593(3) 0.36158(19) 0.72303(19)
H129_4 H 0.025350 0.383630 0.719698
H130_4 H 0.093213 0.367433 0.706052
C166_4 C 0.0408(3) 0.3034(2) 0.67952(19)
H136_4 H 0.015543 0.259776 0.615599
C172_4 C 0.0427(4) 0.1895(2) 0.6292(2)
C173_4 C 0.0740(4) 0.1212(2) 0.6191(2)
H139_4 H 0.043175 0.101578 0.602046
H140_4 H 0.102491 0.133902 0.601869
N39_4 N 0.1215(3) 0.10069(18) 0.65220(18)
N40_4 N 0.2217(3) 0.08566(18) 0.69461(17)
N41_4 N 0.0625(3) 0.07240(18) 0.70126(18)
N42_4 N 0.1610(3) 0.04913(17) 0.73863(18)
N43_4 N 0.3229(3) 0.09493(17) 0.75138(16)
N44_4 N 0.3858(3) 0.12685(16) 0.80491(16)
N45_4 N 0.2623(3) 0.05869(16) 0.79562(18)
N46_4 N 0.3217(3) 0.09301(16) 0.84870(17)
N47_4 N 0.4194(2) 0.17792(15) 0.85513(14)
N48_4 N 0.4192(2) 0.23427(15) 0.88829(14)
N49_4 N 0.3531(3) 0.14532(15) 0.89805(15)
N50_4 N 0.3437(3) 0.20245(15) 0.92670(15)
N51_4 N 0.2902(2) 0.26800(15) 0.92703(15)
N52_4 N 0.2154(2) 0.31747(16) 0.91191(15)
N53_4 N 0.3785(2) 0.29982(15) 0.89650(14)
N54_4 N 0.2891(2) 0.33780(15) 0.86596(14)
N55_4 N 0.1152(2) 0.34193(16) 0.86159(15)
N56_4 N 0.0235(3) 0.33998(17) 0.80929(16)
N57_4 N 0.1890(2) 0.36362(15) 0.81654(15)
N58_4 N 0.0970(3) 0.36017(16) 0.76467(15)
N61_4 N 0.0217(3) 0.32644(16) 0.70789(15)
N66_4 N 0.0313(3) 0.15002(18) 0.63124(18)
O46_4 O 0.2152(3) 0.14263(15) 0.65693(15)
O47_4 O 0.0715(3) 0.06313(14) 0.76963(15)
O48_4 O 0.3668(2) 0.15615(14) 0.74112(13)
O49_4 O 0.2099(2) 0.07081(13) 0.84901(14)
O50_4 O 0.4327(2) 0.23569(12) 0.82261(12)
O51_4 O 0.2540(2) 0.15759(13) 0.92333(14)
O52_4 O 0.3729(2) 0.32097(13) 0.83181(12)
O53_4 O 0.1729(2) 0.25627(14) 0.92286(13)
O54_4 O 0.2073(2) 0.34935(13) 0.75327(13)
O55_4 O 0.0252(2) 0.29682(14) 0.86220(14)
O56_4 O 0.0937(2) 0.30720(14) 0.66648(13)
O58_4 O 0.0936(2) 0.20462(14) 0.61811(14)
O60_4 O 0.1825(2) 0.28322(14) 0.62229(14)
O62_4 O 0.0313(2) 0.24403(14) 0.93035(13)
O66_2 O 0.54154(19) 0.29963(12) 0.82940(12)
O67_2 O 0.4936(2) 0.30849(13) 0.72093(13)
H143_4 H 0.318141 0.289468 0.627609
H144_4 H 0.360797 0.270334 0.670115
H145_4 H 0.339889 0.157233 0.668598
H146_4 H 0.360051 0.199357 0.690693
H147_4 H 0.261905 0.171174 0.557555
H148_4 H 0.176799 0.16836 0.549301
H149_4 H 0.423192 0.207149 0.748325
H150_4 H 0.492778 0.227057 0.738239
H151_2 H 0.368026 0.554406 0.196314
H152_2 H 0.319439 0.879332 0.530191
H155_4 H 0.03891 0.21895 0.945786
H156_4 H 0.00611288 0.262876 0.94443
C84_4 C 0.0428(4) 0.9716(2) 0.8258(2)
C85_4 C 0.0269(4) 0.9721(2) 0.7831(2)
H52_4 H 0.004043 0.994313 0.768816
C86_4 C 0.0446(4) 0.9403(2) 0.7617(2)
H53_4 H 0.033043 0.940546 0.732852
C87_4 C 0.0796(3) 0.90751(19) 0.78272(19)
C88_4 C 0.0925(3) 0.9071(2) 0.8248(2)
H54_4 H 0.114785 0.884959 0.839410
C89_4 C 0.0731(3) 0.93898(19) 0.8462(2)
H55_4 H 0.081166 0.937903 0.874967
C90_4 C 0.0980(3) 0.87359(19) 0.7598(2)
O29_4 O 0.0390(3) 0.98751(14) 0.91019(15)
C76_4 C 0.9593(3) 0.1774(2) 0.0156(2)
C77_4 C 0.9167(3) 0.1635(2) 0.0395(2)
H48_4 H 0.914968 0.136140 0.045042
C78_4 C 0.8761(4) 0.1901(2) 0.0555(2)
H49_4 H 0.847050 0.180654 0.072444
C79_4 C 0.8766(4) 0.2304(2) 0.0473(2)
C80_4 C 0.9217(3) 0.2439(2) 0.0241(2)
H50_4 H 0.924026 0.271224 0.018666
C81_4 C 0.9632(4) 0.2178(2) 0.0087(2)
C82_4 C 0.8264(4) 0.2589(2) 0.0612(2)
O27_4 O 0.8136(3) 0.29036(19) 0.04118(19)
Sr1_4 Sr 0.95772(3) 0.23108(2) 0.85878(2)
H46_4 H 0.999874 0.047173 0.948050
C75_4 C 0.9864(3) 0.1160(2) 0.9799(2)
H51_4 H 0.994806 0.227406 0.993351
N9_4 N 0.9998(3) 0.15257(18) 0.99409(16)
O26_4 O 0.9468(3) 0.09322(15) 0.99228(15)
C91_4 C 0.6941(4) 0.2152(3) 0.6242(2)
C92_4 C 0.5743(4) 0.2096(2) 0.5911(2)
H59_4 H 0.557463 0.206853 0.560922
C93_4 C 0.5902(3) 0.2520(2) 0.60348(19)
H60_4 H 0.582998 0.269597 0.579175
C94_4 C 0.5016(3) 0.2298(2) 0.6329(2)
C95_4 C 0.6558(4) 0.1502(2) 0.5954(2)
H61_4 H 0.629642 0.144842 0.567174
H62_4 H 0.706725 0.148118 0.596230
C96_4 C 0.4818(4) 0.1616(2) 0.6054(2)
H63_4 H 0.474281 0.154361 0.576372
H64_4 H 0.434874 0.165418 0.611415
C97_4 C 0.6855(4) 0.0979(3) 0.6471(2)
C98_4 C 0.5670(4) 0.1054(2) 0.6161(2)
H65_4 H 0.548714 0.096430 0.587406
C99_4 C 0.5767(4) 0.0702(3) 0.6462(2)
H66_4 H 0.559861 0.044870 0.632319
C100_4 C 0.4959(4) 0.1155(2) 0.6620(2)
C101_4 C 0.6869(4) 0.0377(3) 0.6876(2)
H67_4 H 0.737173 0.037862 0.686546
H68_4 H 0.666136 0.012603 0.675671
C102_4 C 0.5120(4) 0.0539(2) 0.7017(2)
H69_4 H 0.467055 0.063037 0.707380
H70_4 H 0.503009 0.028240 0.687488
C103_4 C 0.7359(4) 0.0509(2) 0.7601(2)
C104_4 C 0.6223(4) 0.0227(2) 0.7434(2)
C105_4 C 0.6526(4) 0.0206(2) 0.7900(2)
C106_4 C 0.5454(4) 0.0545(2) 0.7766(2)
C107_4 C 0.7698(4) 0.0421(2) 0.8338(2)
H73_4 H 0.772487 0.015146 0.845099
H74_4 H 0.816238 0.048416 0.828250
C108_4 C 0.5931(4) 0.0365(2) 0.8485(2)
H75_4 H 0.608510 0.010133 0.859285
H76_4 H 0.543387 0.039933 0.849976
C109_4 C 0.7996(3) 0.1003(2) 0.8782(2)
C110_4 C 0.7106(3) 0.0606(2) 0.8910(2)
H77_4 H 0.720761 0.033944 0.903449
C111_4 C 0.7271(3) 0.09317(19) 0.9235(2)
H78_4 H 0.744925 0.081878 0.951243
C112_4 C 0.6068(3) 0.09332(19) 0.89394(19)
C113_4 C 0.8250(3) 0.14362(19) 0.9369(2)
H79_4 H 0.832333 0.134199 0.965320
H80_4 H 0.871540 0.144350 0.929934
C114_4 C 0.6486(3) 0.14324(19) 0.94753(19)
H81_4 H 0.597388 0.144926 0.946091
H82_4 H 0.672053 0.135466 0.975603
C115_4 C 0.8293(3) 0.2143(2) 0.92164(19)
C116_4 C 0.7439(3) 0.19593(19) 0.95592(19)
H83_4 H 0.759293 0.190655 0.985759
C117_4 C 0.7388(3) 0.24052(19) 0.94691(18)
H84_4 H 0.741537 0.256320 0.972180
C118_4 C 0.6302(3) 0.21034(19) 0.91800(18)
C119_4 C 0.8204(3) 0.28679(19) 0.91975(18)
H85_4 H 0.871043 0.286034 0.919627
H86_4 H 0.814560 0.305201 0.941443
C120_4 C 0.6352(3) 0.28128(19) 0.90709(18)
H87_4 H 0.647451 0.299544 0.930470
H88_4 H 0.583571 0.277190 0.900933
C121_4 C 0.8036(3) 0.29849(19) 0.84617(18)
C122_4 C 0.7177(3) 0.32350(18) 0.87612(17)
H89_4 H 0.721115 0.344435 0.897258
C123_4 C 0.7079(3) 0.34098(18) 0.83322(17)
H90_4 H 0.720124 0.369572 0.834054
C124_4 C 0.6036(3) 0.30968(17) 0.83785(17)
C125_4 C 0.7754(3) 0.3283(2) 0.77865(18)
H91_4 H 0.820195 0.314929 0.777810
H92_4 H 0.784176 0.356960 0.778886
C126_4 C 0.5963(3) 0.35451(18) 0.77927(18)
H93_4 H 0.612785 0.382107 0.780566
H94_4 H 0.545729 0.354922 0.779785
C127_4 C 0.7437(3) 0.2963(2) 0.7128(2)
C128_4 C 0.6647(3) 0.3437(2) 0.72475(18)
H95_4 H 0.679002 0.372000 0.725938
C129_4 C 0.6417(3) 0.3294(2) 0.68092(19)
H96_4 H 0.639058 0.351543 0.661201
C130_4 C 0.5511(3) 0.31841(19) 0.71449(18)
C131_4 C 0.7049(3) 0.2853(2) 0.6387(2)
H97_4 H 0.755318 0.278650 0.641958
H98_4 H 0.693022 0.305785 0.617421
C132_4 C 0.5263(3) 0.3005(2) 0.6420(2)
H99_4 H 0.477148 0.301135 0.645248
H100_4 H 0.530061 0.319692 0.620602
N11_4 N 0.6638(3) 0.2511(2) 0.62508(17)
N12_4 N 0.6407(3) 0.1893(2) 0.60599(17)
N13_4 N 0.5411(3) 0.26122(19) 0.62845(16)
N14_4 N 0.5200(3) 0.19869(19) 0.61199(17)
N15_4 N 0.6372(3) 0.1208(2) 0.62209(18)
N16_4 N 0.6513(3) 0.0700(2) 0.66319(19)
N17_4 N 0.5164(3) 0.12982(19) 0.62955(18)
N18_4 N 0.5351(3) 0.08195(19) 0.67523(18)
N19_4 N 0.6819(3) 0.03970(19) 0.72947(19)
N20_4 N 0.7177(3) 0.04300(17) 0.79647(18)
N21_4 N 0.5637(3) 0.04841(17) 0.74012(18)
N22_4 N 0.5972(3) 0.03840(17) 0.80626(17)
N23_4 N 0.7560(3) 0.06942(17) 0.86416(17)
N24_4 N 0.7967(3) 0.18323(16) 0.93459(16)
N25_4 N 0.6356(3) 0.06586(16) 0.87392(16)
N26_4 N 0.6604(3) 0.11288(16) 0.92010(16)
N27_4 N 0.7812(3) 0.11636(16) 0.91090(17)
N28_4 N 0.7984(2) 0.24771(15) 0.92936(15)
N29_4 N 0.6737(2) 0.18184(15) 0.93959(15)
N30_4 N 0.6696(2) 0.24415(15) 0.91864(15)
N31_4 N 0.7816(2) 0.30164(15) 0.88125(14)
N32_4 N 0.7563(2) 0.31764(16) 0.81624(15)
N33_4 N 0.6537(2) 0.29935(14) 0.87243(14)
N34_4 N 0.6344(2) 0.33425(15) 0.81487(14)
N35_4 N 0.7238(2) 0.31859(17) 0.74208(15)
N36_4 N 0.6949(3) 0.30163(18) 0.67706(16)
N37_4 N 0.6030(2) 0.33785(16) 0.74129(15)
N38_4 N 0.5720(3) 0.31268(17) 0.67943(15)
O32_4 O 0.7553(3) 0.20678(19) 0.63597(16)
O33_4 O 0.4554(2) 0.22976(16) 0.65258(14)
O34_4 O 0.7501(3) 0.10297(19) 0.65439(17)
O35_4 O 0.4498(3) 0.12828(17) 0.67696(16)
O36_4 O 0.7922(3) 0.06406(18) 0.75669(17)
O37_4 O 0.4914(2) 0.07005(14) 0.78179(15)
O38_4 O 0.8486(2) 0.11181(15) 0.86360(16)
O39_4 O 0.5440(2) 0.10003(13) 0.89084(13)
O40_4 O 0.8805(2) 0.21173(13) 0.90572(13)
O41_4 O 0.5685(2) 0.20643(14) 0.90238(13)
O42_4 O 0.8565(2) 0.28167(13) 0.84225(13)
O44_4 O 0.7968(2) 0.27651(16) 0.71750(14)
C161_4 C 0.9525(3) 0.3304(2) 0.7878(2)
H127_4 H 0.927020 0.354905 0.777813
H128_4 H 0.927620 0.317688 0.806897
C163_4 C 0.9428(3) 0.2645(2) 0.75599(19)
C164_4 C 0.9508(3) 0.3166(2) 0.71304(19)
H131_4 H 0.916312 0.338255 0.703461
C165_4 C 0.9323(3) 0.2797(2) 0.68825(19)
H132_4 H 0.884688 0.281530 0.669403
C167_4 C 0.8968(4) 0.2121(2) 0.7082(2)
H133_4 H 0.851792 0.217707 0.688477
H134_4 H 0.885359 0.201169 0.733048
C168_4 C 0.9804(4) 0.2514(2) 0.6309(2)
H135_4 H 0.933074 0.255641 0.613134
C169_4 C 0.9542(4) 0.1478(2) 0.7096(2)
C170_4 C 0.9380(4) 0.1831(2) 0.6490(2)
H137_4 H 0.890403 0.187605 0.630815
C171_4 C 0.9655(4) 0.1426(2) 0.6431(2)
H138_4 H 0.931755 0.127868 0.621435
C174_4 C 0.9868(4) 0.0825(2) 0.6890(2)
H141_4 H 0.963455 0.073715 0.710630
H142_4 H 0.965194 0.067858 0.663933
N59_4 N 0.9514(3) 0.30454(17) 0.75413(15)
N60_4 N 0.9354(3) 0.24875(17) 0.71840(16)
N62_4 N 0.9877(3) 0.27605(17) 0.66637(15)
N63_4 N 0.9351(3) 0.18378(17) 0.69132(17)
N64_4 N 0.9737(3) 0.12364(18) 0.68195(18)
N65_4 N 0.9896(3) 0.20962(17) 0.63966(17)
O57_4 O 0.9414(2) 0.24560(14) 0.78632(14)
O59_4 O 0.9529(3) 0.13908(15) 0.74459(15)
O61_4 O 0.9086(3) 0.16713(16) 0.82119(16)
H153_4 H 0.930328 0.163014 0.797669
H154_4 H 0.856701 0.169367 0.811374
H24_3 H 0.779168 0.993304 0.106924
C38_3 C 0.7771(3) 0.95336(18) 0.03188(18)
C40_3 C 0.8000(3) 0.88603(17) 0.00665(18)
H27_3 H 0.801312 0.875557 0.032877
H31_3 H 0.859914 0.674293 0.002666
N5_3 N 0.8081(3) 0.98846(14) 0.03387(15)
H38_3 H 0.841296 0.991327 0.020309
O18_3 O 0.7362(3) 0.94362(14) 0.05270(15)
O19_3 O 0.8712(2) 0.80754(13) 0.00954(15)
O20_3 O 0.8032(5) 0.6092(2) 0.0026(3)
H152_3 H 0.819439 0.620668 0.0301911
C39_3 C 0.7904(3) 0.92618(17) 0.99923(18)
C41_3 C 0.8075(3) 0.86146(18) 0.97481(19)
C42_3 C 0.8059(4) 0.87660(19) 0.93686(19)
H28_3 H 0.810870 0.859590 0.915409
C43_3 C 0.7968(4) 0.91717(19) 0.92978(19)
C44_3 C 0.7893(3) 0.94152(19) 0.96136(19)
H29_3 H 0.783347 0.969014 0.956865
C45_3 C 0.8201(3) 0.81831(18) 0.98365(19)
C46_3 C 0.7692(4) 0.75192(19) 0.96772(19)
C47_3 C 0.8277(4) 0.72938(19) 0.9854(2)
H30_3 H 0.872665 0.741338 0.993957
C48_3 C 0.8199(4) 0.6896(2) 0.9905(2)
C49_3 C 0.7545(5) 0.6712(2) 0.9781(2)
C50_3 C 0.6983(4) 0.6929(2) 0.9609(2)
H32_3 H 0.653760 0.680374 0.952532
C51_3 C 0.7031(4) 0.7339(2) 0.9549(2)
H33_3 H 0.662697 0.748794 0.942437
C52_3 C 0.7481(6) 0.6263(3) 0.9843(3)
C53_3 C 0.7991(5) 0.9356(2) 0.8904(2)
C54_3 C 0.7711(6) 0.9283(3) 0.8165(3)
C55_3 C 0.8288(7) 0.9460(3) 0.8075(3)
H34_3 H 0.868688 0.952660 0.828350
C56_3 C 0.8273(7) 0.9542(3) 0.7659(3)
H35_3 H 0.867758 0.966177 0.759950
C57_3 C 0.7739(8) 0.9464(3) 0.7352(3)
C58_3 C 0.7148(7) 0.9307(3) 0.7453(3)
H36_3 H 0.673702 0.926289 0.724381
C59_3 C 0.7138(7) 0.9209(3) 0.7859(3)
H37_3 H 0.673103 0.909133 0.791765
C60_3 C 0.7754(10) 0.9513(4) 0.6910(3)
O14_3 O 0.8287(8) 0.9637(4) 0.6845(3)
O15_3 O 0.7243(7) 0.9439(3) 0.6664(3)
N6_3 N 0.7711(3) 0.79318(15) 0.96217(16)
H39_3 H 0.737456 0.803490 0.943083
N7_3 N 0.7705(4) 0.9157(2) 0.85663(17)
H40_3 H 0.749742 0.893159 0.859309
O21_3 O 0.6914(4) 0.6114(2) 0.9676(3)
O22_3 O 0.8271(4) 0.96793(17) 0.88991(17)
H151_3 H 0.868026 0.945594 0.696314
H71_3 H 0.391729 0.003725 0.268883
H72_3 H 0.338427 0.007241 0.200566
C39_4 C 0.2096(3) 0.07382(17) 0.00077(18)
C41_4 C 0.1925(3) 0.13854(18) 0.02519(19)
C42_4 C 0.1941(4) 0.12340(19) 0.06314(19)
H28_4 H 0.189130 0.140410 0.084591
C43_4 C 0.2032(4) 0.08283(19) 0.07022(19)
C44_4 C 0.2107(3) 0.05848(19) 0.03864(19)
H29_4 H 0.216653 0.030986 0.043135
C45_4 C 0.1799(3) 0.18169(18) 0.01635(19)
C46_4 C 0.2308(4) 0.24808(19) 0.03228(19)
C47_4 C 0.1723(4) 0.27062(19) 0.0146(2)
H30_4 H 0.127335 0.258662 0.006043
C48_4 C 0.1801(4) 0.3104(2) 0.0095(2)
C49_4 C 0.2455(5) 0.3288(2) 0.0219(2)
C50_4 C 0.3017(4) 0.3071(2) 0.0391(2)
H32_4 H 0.346240 0.319626 0.047468
C51_4 C 0.2969(4) 0.2661(2) 0.0451(2)
H33_4 H 0.337303 0.251206 0.057563
C52_4 C 0.2519(6) 0.3737(3) 0.0157(3)
C53_4 C 0.2009(5) 0.0644(2) 0.1096(2)
C54_4 C 0.2289(6) 0.0717(3) 0.1835(3)
C55_4 C 0.1712(7) 0.0540(3) 0.1925(3)
H34_4 H 0.131312 0.047340 0.171650
C56_4 C 0.1727(7) 0.0458(3) 0.2341(3)
H35_4 H 0.132242 0.033823 0.240050
C57_4 C 0.2261(8) 0.0536(3) 0.2648(3)
C58_4 C 0.2852(7) 0.0693(3) 0.2547(3)
H36_4 H 0.326298 0.073711 0.275619
C59_4 C 0.2862(7) 0.0791(3) 0.2141(3)
H37_4 H 0.326897 0.090867 0.208235
C60_4 C 0.2246(10) 0.0487(4) 0.3090(3)
O14_4 O 0.1713(8) 0.0363(4) 0.3155(3)
O15_4 O 0.2757(7) 0.0561(3) 0.3336(3)
N6_4 N 0.2289(3) 0.20682(15) 0.03783(16)
H39_4 H 0.262544 0.196510 0.056917
N7_4 N 0.2295(4) 0.0843(2) 0.14337(17)
H40_4 H 0.250258 0.106841 0.140691
O21_4 O 0.3086(4) 0.3886(2) 0.0324(3)
O22_4 O 0.1729(4) 0.03207(17) 0.11009(17)
H151_4 H 0.131974 0.0544058 0.303686
H24_4 H 0.220832 0.006696 0.893076
C38_4 C 0.2229(3) 0.04664(18) 0.96812(18)
C40_4 C 0.2000(3) 0.11397(17) 0.99335(18)
H27_4 H 0.198688 0.124443 0.967123
H31_4 H 0.140086 0.325707 0.997334
N5_4 N 0.1919(3) 0.01154(14) 0.96613(15)
H38_4 H 0.158704 0.008673 0.979691
O18_4 O 0.2638(3) 0.05638(14) 0.94730(15)
O19_4 O 0.1288(2) 0.19246(13) 0.99046(15)
O20_4 O 0.1968(5) 0.3908(2) 0.9974(3)
H152_4 H 0.180561 0.379332 0.969809
H71_4 H 0.608271 0.996275 0.731117
H72_4 H 0.661573 0.992759 0.799434
loop_
_geom_bond_atom_site_label_1
_geom_bond_atom_site_label_2
_geom_bond_site_symmetry_1
_geom_bond_site_symmetry_2
C1 C2 1_555 1_555
C2 C3 1_555 1_555
C3 H1 1_555 1_555
C4 C3 1_555 1_555
H2 C4 1_555 1_555
C5 C4 1_555 1_555
C6 C5 1_555 1_555
H3 C6 1_555 1_555
C7 C2 1_555 1_555
H4 C7 1_555 1_555
C8 C9 1_555 1_555
C9 C10 1_555 1_555
C10 H5 1_555 1_555
C11 C10 1_555 1_555
C12 C11 1_555 1_555
C13 C12 1_555 1_555
C14 C9 1_555 1_555
C23 C11 1_555 1_555
C24 C25 1_555 1_555
C25 H12 1_555 1_555
C26 C25 1_555 1_555
H13 C26 1_555 1_555
C27 C26 1_555 1_555
C28 C27 1_555 1_555
H14 C28 1_555 1_555
C29 C24 1_555 1_555
H15 C29 1_555 1_555
C30 C27 1_555 1_555
N1 C5 1_555 1_555
H16 N1 1_555 1_555
N3 C23 1_555 1_555
H18 N3 1_555 1_555
O1 C1 1_555 1_555
O7 C23 1_555 1_555
O8 C30 1_555 1_555
O9 C30 1_555 1_555
C6 C7 1_555 1_555
C8 N1 1_555 1_555
C13 C14 1_555 1_555
C24 N3 1_555 1_555
C28 C29 1_555 1_555
O4 C15 1_555 1_555
C16 C17 1_555 1_555
C18 C17 1_555 1_555
H9 C18 1_555 1_555
C19 C18 1_555 1_555
C20 C19 1_555 1_555
H10 C20 1_555 1_555
C21 C16 1_555 1_555
H11 C21 1_555 1_555
C22 C19 1_555 1_555
O5 C22 1_555 1_555
O6 C22 1_555 1_555
C16 N2 1_555 1_555
C20 C21 1_555 1_555
H4_2 C7_2 1_555 1_555
C1_2 C2_2 1_555 1_555
C2_2 C3_2 1_555 1_555
C3_2 H1_2 1_555 1_555
C4_2 C3_2 1_555 1_555
H2_2 C4_2 1_555 1_555
C5_2 C4_2 1_555 1_555
C6_2 C5_2 1_555 1_555
C8_2 C9_2 1_555 1_555
C9_2 C10_2 1_555 1_555
C10_2 H5_2 1_555 1_555
C11_2 C10_2 1_555 1_555
C12_2 C11_2 1_555 1_555
H6_2 C12_2 1_555 1_555
C13_2 C12_2 1_555 1_555
C14_2 C9_2 1_555 1_555
H7_2 C14_2 1_555 1_555
C15_2 C13_2 1_555 1_555
C16_2 C17_2 1_555 1_555
C17_2 H8_2 1_555 1_555
C18_2 C17_2 1_555 1_555
H9_2 C18_2 1_555 1_555
C19_2 C18_2 1_555 1_555
C20_2 C19_2 1_555 1_555
H10_2 C20_2 1_555 1_555
C21_2 C16_2 1_555 1_555
H11_2 C21_2 1_555 1_555
C22_2 C19_2 1_555 1_555
C23_2 C11_2 1_555 1_555
C24_2 C25_2 1_555 1_555
C25_2 H12_2 1_555 1_555
C26_2 C25_2 1_555 1_555
H13_2 C26_2 1_555 1_555
C27_2 C26_2 1_555 1_555
C28_2 C27_2 1_555 1_555
H14_2 C28_2 1_555 1_555
C29_2 C24_2 1_555 1_555
H15_2 C29_2 1_555 1_555
C30_2 C27_2 1_555 1_555
N1_2 C5_2 1_555 1_555
H16_2 N1_2 1_555 1_555
N2_2 C15_2 1_555 1_555
H17_2 N2_2 1_555 1_555
N3_2 C23_2 1_555 1_555
H18_2 N3_2 1_555 1_555
O1_2 C1_2 1_555 1_555
O4_2 C15_2 1_555 1_555
O5_2 C22_2 1_555 1_555
O6_2 C22_2 1_555 1_555
O7_2 C23_2 1_555 1_555
O8_2 C30_2 1_555 1_555
O9_2 C30_2 1_555 1_555
C8_2 N1_2 1_555 1_555
C13_2 C14_2 1_555 1_555
C16_2 N2_2 1_555 1_555
C20_2 C21_2 1_555 1_555
C24_2 N3_2 1_555 1_555
C28_2 C29_2 1_555 1_555
C16_3 C17_3 1_555 1_555
C18_3 C17_3 1_555 1_555
H9_3 C18_3 1_555 1_555
C19_3 C18_3 1_555 1_555
C20_3 C19_3 1_555 1_555
H10_3 C20_3 1_555 1_555
C21_3 C16_3 1_555 1_555
H11_3 C21_3 1_555 1_555
C22_3 C19_3 1_555 1_555
O5_3 C22_3 1_555 1_555
O6_3 C22_3 1_555 1_555
C16_3 N2_3 1_555 1_555
C20_3 C21_3 1_555 1_555
O4_3 C15_3 1_555 1_555
C1_3 C2_3 1_555 1_555
C2_3 C3_3 1_555 1_555
C3_3 H1_3 1_555 1_555
C4_3 C3_3 1_555 1_555
H2_3 C4_3 1_555 1_555
C5_3 C4_3 1_555 1_555
C6_3 C5_3 1_555 1_555
H3_3 C6_3 1_555 1_555
C7_3 C2_3 1_555 1_555
H4_3 C7_3 1_555 1_555
C8_3 C9_3 1_555 1_555
C9_3 C10_3 1_555 1_555
C10_3 H5_3 1_555 1_555
C11_3 C10_3 1_555 1_555
C12_3 C11_3 1_555 1_555
C13_3 C12_3 1_555 1_555
C14_3 C9_3 1_555 1_555
C23_3 C11_3 1_555 1_555
C24_3 C25_3 1_555 1_555
C25_3 H12_3 1_555 1_555
C26_3 C25_3 1_555 1_555
H13_3 C26_3 1_555 1_555
C27_3 C26_3 1_555 1_555
C28_3 C27_3 1_555 1_555
H14_3 C28_3 1_555 1_555
C29_3 C24_3 1_555 1_555
H15_3 C29_3 1_555 1_555
C30_3 C27_3 1_555 1_555
N1_3 C5_3 1_555 1_555
H16_3 N1_3 1_555 1_555
N3_3 C23_3 1_555 1_555
H18_3 N3_3 1_555 1_555
O1_3 C1_3 1_555 1_555
O7_3 C23_3 1_555 1_555
O8_3 C30_3 1_555 1_555
O9_3 C30_3 1_555 1_555
C6_3 C7_3 1_555 1_555
C8_3 N1_3 1_555 1_555
C13_3 C14_3 1_555 1_555
C24_3 N3_3 1_555 1_555
C28_3 C29_3 1_555 1_555
C1_4 C2_4 1_555 1_555
C2_4 C3_4 1_555 1_555
C3_4 H1_4 1_555 1_555
C4_4 C3_4 1_555 1_555
H2_4 C4_4 1_555 1_555
C5_4 C4_4 1_555 1_555
C6_4 C5_4 1_555 1_555
C8_4 C9_4 1_555 1_555
C9_4 C10_4 1_555 1_555
C10_4 H5_4 1_555 1_555
C11_4 C10_4 1_555 1_555
C12_4 C11_4 1_555 1_555
H6_4 C12_4 1_555 1_555
C13_4 C12_4 1_555 1_555
C14_4 C9_4 1_555 1_555
H7_4 C14_4 1_555 1_555
C15_4 C13_4 1_555 1_555
C16_4 C17_4 1_555 1_555
C17_4 H8_4 1_555 1_555
C18_4 C17_4 1_555 1_555
H9_4 C18_4 1_555 1_555
C19_4 C18_4 1_555 1_555
C20_4 C19_4 1_555 1_555
H10_4 C20_4 1_555 1_555
C21_4 C16_4 1_555 1_555
H11_4 C21_4 1_555 1_555
C22_4 C19_4 1_555 1_555
C23_4 C11_4 1_555 1_555
C24_4 C25_4 1_555 1_555
C25_4 H12_4 1_555 1_555
C26_4 C25_4 1_555 1_555
H13_4 C26_4 1_555 1_555
C27_4 C26_4 1_555 1_555
C28_4 C27_4 1_555 1_555
H14_4 C28_4 1_555 1_555
C29_4 C24_4 1_555 1_555
H15_4 C29_4 1_555 1_555
C30_4 C27_4 1_555 1_555
N1_4 C5_4 1_555 1_555
H16_4 N1_4 1_555 1_555
N2_4 C15_4 1_555 1_555
H17_4 N2_4 1_555 1_555
N3_4 C23_4 1_555 1_555
H18_4 N3_4 1_555 1_555
O1_4 C1_4 1_555 1_555
O4_4 C15_4 1_555 1_555
O5_4 C22_4 1_555 1_555
O6_4 C22_4 1_555 1_555
O7_4 C23_4 1_555 1_555
O8_4 C30_4 1_555 1_555
O9_4 C30_4 1_555 1_555
C8_4 N1_4 1_555 1_555
C13_4 C14_4 1_555 1_555
C16_4 N2_4 1_555 1_555
C20_4 C21_4 1_555 1_555
C24_4 N3_4 1_555 1_555
C28_4 C29_4 1_555 1_555
H4_4 C7_4 1_555 1_555
N4 H19 1_555 1_555
H20 N4 1_555 1_555
H21 N4 1_555 1_555
H22 N4 1_555 1_555
N4_2 H19_2 1_555 1_555
H20_2 N4_2 1_555 1_555
H21_2 N4_2 1_555 1_555
N4_3 H19_3 1_555 1_555
H20_3 N4_3 1_555 1_555
H21_3 N4_3 1_555 1_555
H22_3 N4_3 1_555 1_555
N4_4 H19_4 1_555 1_555
H20_4 N4_4 1_555 1_555
H21_4 N4_4 1_555 1_555
Sr1 O25 1_555 1_555
O10 Sr3 1_555 1_555
O11 Sr4 1_555 1_555
O12 Sr4 1_555 1_555
O13 Sr2 1_555 1_555
Sr2 O23 1_555 1_555
Sr3 O16 1_555 1_555
Sr4 O24 1_555 1_555
C31 C32 1_555 1_555
C32 C33 1_555 1_555
C33 H23 1_555 1_555
C34 C33 1_555 1_555
C35 C34 1_555 1_555
C36 C35 1_555 1_555
H25 C36 1_555 1_555
C37 C32 1_555 1_555
H26 C37 1_555 1_555
O16 C31 1_555 1_555
O17 C31 1_555 1_555
C61 C62 1_555 1_555
C62 C63 1_555 1_555
C63 H41 1_555 1_555
C64 C63 1_555 1_555
H42 C64 1_555 1_555
C65 C64 1_555 1_555
C66 C65 1_555 1_555
H43 C66 1_555 1_555
C67 C62 1_555 1_555
H44 C67 1_555 1_555
C68 C69 1_555 1_555
C69 C70 1_555 1_555
C70 H45 1_555 1_555
C71 C70 1_555 1_555
C72 C71 1_555 1_555
H46 C72 1_555 1_555
C73 C72 1_555 1_555
C74 C69 1_555 1_555
H47 C74 1_555 1_555
C75 C71 1_555 1_555
C76 C77 1_555 1_555
C77 H48 1_555 1_555
C78 C77 1_555 1_555
H49 C78 1_555 1_555
C79 C78 1_555 1_555
C80 C79 1_555 1_555
H50 C80 1_555 1_555
C81 C76 1_555 1_555
H51 C81 1_555 1_555
C82 C79 1_555 1_555
C83 C73 1_555 1_555
C84 C85 1_555 1_555
C85 H52 1_555 1_555
C86 C85 1_555 1_555
H53 C86 1_555 1_555
C87 C86 1_555 1_555
C88 C87 1_555 1_555
H54 C88 1_555 1_555
C89 C84 1_555 1_555
H55 C89 1_555 1_555
C90 C87 1_555 1_555
N8 C65 1_555 1_555
H56 N8 1_555 1_555
N9 C75 1_555 1_555
H57 N9 1_555 1_555
N10 C83 1_555 1_555
H58 N10 1_555 1_555
O23 Sr3 1_555 1_555
O24 Sr3 1_555 1_555
O25 C68 1_555 1_555
O26 C75 1_555 1_555
O27 C82 1_555 1_555
O28 C82 1_555 1_555
O29 C83 1_555 1_555
O30 C90 1_555 1_555
O31 C90 1_555 1_555
C91 N11 1_555 1_555
C92 H59 1_555 1_555
C93 C92 1_555 1_555
H60 C93 1_555 1_555
C94 N13 1_555 1_555
C95 H61 1_555 1_555
H62 C95 1_555 1_555
C97 N15 1_555 1_555
C98 H65 1_555 1_555
C99 C98 1_555 1_555
H66 C99 1_555 1_555
C101 H67 1_555 1_555
H68 C101 1_555 1_555
H70 C102 1_555 1_555
C103 N19 1_555 1_555
C104 H71 1_555 1_555
C105 C104 1_555 1_555
H72 C105 1_555 1_555
C106 N21 1_555 1_555
C107 H73 1_555 1_555
H74 C107 1_555 1_555
C108 H75 1_555 1_555
H76 C108 1_555 1_555
C109 N23 1_555 1_555
C110 H77 1_555 1_555
C111 C110 1_555 1_555
H78 C111 1_555 1_555
C112 N25 1_555 1_555
C113 H79 1_555 1_555
H80 C113 1_555 1_555
C114 H81 1_555 1_555
H82 C114 1_555 1_555
C115 N24 1_555 1_555
C116 H83 1_555 1_555
C117 C116 1_555 1_555
H84 C117 1_555 1_555
C118 N29 1_555 1_555
C119 H85 1_555 1_555
H86 C119 1_555 1_555
C120 H87 1_555 1_555
H88 C120 1_555 1_555
C121 N31 1_555 1_555
C122 H89 1_555 1_555
C123 C122 1_555 1_555
H90 C123 1_555 1_555
C124 N33 1_555 1_555
C125 H91 1_555 1_555
H92 C125 1_555 1_555
C126 H93 1_555 1_555
H94 C126 1_555 1_555
C127 N35 1_555 1_555
C128 H95 1_555 1_555
C129 C128 1_555 1_555
H96 C129 1_555 1_555
C130 N37 1_555 1_555
C131 H97 1_555 1_555
H98 C131 1_555 1_555
H100 C132 1_555 1_555
N11 C93 1_555 1_555
N12 C91 1_555 1_555
N13 C93 1_555 1_555
N14 C92 1_555 1_555
N15 C95 1_555 1_555
N16 C97 1_555 1_555
N18 C99 1_555 1_555
N19 C101 1_555 1_555
N20 C103 1_555 1_555
N21 C102 1_555 1_555
N22 C105 1_555 1_555
N23 C107 1_555 1_555
N24 C113 1_555 1_555
N25 C108 1_555 1_555
N26 C111 1_555 1_555
N27 C109 1_555 1_555
N28 C115 1_555 1_555
N29 C114 1_555 1_555
N30 C117 1_555 1_555
N31 C119 1_555 1_555
N32 C121 1_555 1_555
N33 C120 1_555 1_555
N34 C123 1_555 1_555
N35 C125 1_555 1_555
N36 C127 1_555 1_555
N37 C126 1_555 1_555
N38 C129 1_555 1_555
O32 C91 1_555 1_555
O34 C97 1_555 1_555
O36 C103 1_555 1_555
O38 C109 1_555 1_555
O39 C112 1_555 1_555
O40 Sr1 1_555 1_555
O41 C118 1_555 1_555
O42 Sr1 1_555 1_555
O66 C124 1_555 1_555
O44 C127 1_555 1_555
C133 N39 1_555 1_555
C134 H101 1_555 1_555
C135 C134 1_555 1_555
H102 C135 1_555 1_555
C136 N41 1_555 1_555
C137 H103 1_555 1_555
H104 C137 1_555 1_555
C138 H105 1_555 1_555
H106 C138 1_555 1_555
C139 N43 1_555 1_555
C140 H107 1_555 1_555
C141 C140 1_555 1_555
H108 C141 1_555 1_555
C142 N45 1_555 1_555
C143 H109 1_555 1_555
H110 C143 1_555 1_555
C144 H111 1_555 1_555
H112 C144 1_555 1_555
C145 N47 1_555 1_555
C146 H113 1_555 1_555
C147 C146 1_555 1_555
H114 C147 1_555 1_555
C148 N49 1_555 1_555
C149 H115 1_555 1_555
H116 C149 1_555 1_555
C150 H117 1_555 1_555
H118 C150 1_555 1_555
C151 N53 1_555 1_555
C152 H119 1_555 1_555
C153 C152 1_555 1_555
H120 C153 1_555 1_555
C154 N51 1_555 1_555
C155 H121 1_555 1_555
H122 C155 1_555 1_555
C156 H123 1_555 1_555
H124 C156 1_555 1_555
C157 N55 1_555 1_555
C158 H125 1_555 1_555
C159 C158 1_555 1_555
H126 C159 1_555 1_555
C160 N57 1_555 1_555
C161 H127 1_555 1_555
H128 C161 1_555 1_555
C162 H129 1_555 1_555
H130 C162 1_555 1_555
C163 N59 1_555 1_555
C164 H131 1_555 1_555
C165 C164 1_555 1_555
H132 C165 1_555 1_555
C166 N61 1_555 1_555
C167 H133 1_555 1_555
H134 C167 1_555 1_555
C168 H135 1_555 1_555
H136 C168 1_555 1_555
C169 N63 1_555 1_555
C170 H137 1_555 1_555
C171 C170 1_555 1_555
H138 C171 1_555 1_555
C172 N65 1_555 1_555
C173 H139 1_555 1_555
H140 C173 1_555 1_555
C174 H141 1_555 1_555
H142 C174 1_555 1_555
N39 C135 1_555 1_555
N40 C133 1_555 1_555
N41 C135 1_555 1_555
N42 C134 1_555 1_555
N43 C137 1_555 1_555
N44 C139 1_555 1_555
N45 C138 1_555 1_555
N46 C141 1_555 1_555
N47 C143 1_555 1_555
N48 C145 1_555 1_555
N49 C144 1_555 1_555
N50 C147 1_555 1_555
N51 C150 1_555 1_555
N52 C153 1_555 1_555
N53 C149 1_555 1_555
N54 C151 1_555 1_555
N55 C156 1_555 1_555
N56 C157 1_555 1_555
N57 C155 1_555 1_555
N58 C159 1_555 1_555
N59 C161 1_555 1_555
N60 C163 1_555 1_555
N61 C162 1_555 1_555
N62 C165 1_555 1_555
N63 C167 1_555 1_555
N64 C169 1_555 1_555
N65 C168 1_555 1_555
N66 C171 1_555 1_555
O46 Sr4 1_555 1_555
O47 C136 1_555 1_555
O48 C139 1_555 1_555
O49 C142 1_555 1_555
O50 Sr2 1_555 1_555
O51 C148 1_555 1_555
O52 Sr2 1_555 1_555
O53 C154 1_555 1_555
O54 Sr3 1_555 1_555
O55 Sr1 1_555 1_555
O56 Sr3 1_555 1_555
O57 Sr1 1_555 1_555
O58 Sr4 1_555 1_555
O59 C169 1_555 1_555
O60 Sr3 1_555 1_555
O61 Sr1 1_555 1_555
O62 Sr1 1_555 1_555
Sr6 O30 1_555 1_555
Sr7 O30 1_555 1_555
Sr8 O28 1_555 1_555
O63 Sr4 1_555 1_555
O64 Sr2 1_555 1_555
O65 Sr2 1_555 1_555
O67 Sr2 1_555 1_555
Sr3 O64 1_555 1_555
Sr4 O60 1_555 1_555
C36 C37 1_555 1_555
C61 O23 1_555 1_555
C61 O24 1_555 1_555
C66 C67 1_555 1_555
C68 N8 1_555 1_555
C73 C74 1_555 1_555
C76 N9 1_555 1_555
C80 C81 1_555 1_555
C84 N10 1_555 1_555
C88 C89 1_555 1_555
O31 Sr6 1_555 1_555
C92 N12 1_555 1_555
C94 N14 1_555 1_555
C95 N12 1_555 1_555
C98 N15 1_555 1_555
C98 N17 1_555 1_555
C99 N16 1_555 1_555
C101 N16 1_555 1_555
C102 N18 1_555 1_555
C104 N19 1_555 1_555
C104 N21 1_555 1_555
C105 N20 1_555 1_555
C106 N22 1_555 1_555
C107 N20 1_555 1_555
C108 N22 1_555 1_555
C110 N23 1_555 1_555
C110 N25 1_555 1_555
C111 N27 1_555 1_555
C112 N26 1_555 1_555
C113 N27 1_555 1_555
C114 N26 1_555 1_555
C115 O40 1_555 1_555
C116 N24 1_555 1_555
C116 N29 1_555 1_555
C117 N28 1_555 1_555
C118 N30 1_555 1_555
C119 N28 1_555 1_555
C120 N30 1_555 1_555
C121 O42 1_555 1_555
C122 N31 1_555 1_555
C122 N33 1_555 1_555
C123 N32 1_555 1_555
C124 N34 1_555 1_555
C125 N32 1_555 1_555
C126 N34 1_555 1_555
C128 N35 1_555 1_555
C128 N37 1_555 1_555
C129 N36 1_555 1_555
C130 N38 1_555 1_555
C131 N11 1_555 1_555
C131 N36 1_555 1_555
C132 N13 1_555 1_555
C132 N38 1_555 1_555
C133 O46 1_555 1_555
C134 N40 1_555 1_555
C136 N42 1_555 1_555
C137 N40 1_555 1_555
C138 N42 1_555 1_555
C140 N43 1_555 1_555
C140 N45 1_555 1_555
C141 N44 1_555 1_555
C142 N46 1_555 1_555
C143 N44 1_555 1_555
C144 N46 1_555 1_555
C145 O50 1_555 1_555
C146 N47 1_555 1_555
C146 N49 1_555 1_555
C147 N48 1_555 1_555
C148 N50 1_555 1_555
C149 N48 1_555 1_555
C150 N50 1_555 1_555
C151 O52 1_555 1_555
C152 N51 1_555 1_555
C152 N53 1_555 1_555
C153 N54 1_555 1_555
C154 N52 1_555 1_555
C155 N54 1_555 1_555
C156 N52 1_555 1_555
C157 O55 1_555 1_555
C158 N55 1_555 1_555
C158 N57 1_555 1_555
C159 N56 1_555 1_555
C160 N58 1_555 1_555
C160 O54 1_555 1_555
C161 N56 1_555 1_555
C162 N58 1_555 1_555
C163 O57 1_555 1_555
C164 N59 1_555 1_555
C164 N61 1_555 1_555
C165 N60 1_555 1_555
C166 N62 1_555 1_555
C166 O56 1_555 1_555
C167 N60 1_555 1_555
C168 N62 1_555 1_555
C170 N63 1_555 1_555
C170 N65 1_555 1_555
C171 N64 1_555 1_555
C172 N66 1_555 1_555
C172 O58 1_555 1_555
C173 N39 1_555 1_555
C173 N66 1_555 1_555
C174 N41 1_555 1_555
C174 N64 1_555 1_555
O10 H143 1_555 1_555
O10 H144 1_555 1_555
O11 H145 1_555 1_555
O11 H146 1_555 1_555
O12 H147 1_555 1_555
O12 H148 1_555 1_555
O13 H149 1_555 1_555
O13 H150 1_555 1_555
O61 H153 1_555 1_555
O61 H154 1_555 1_555
O62 H155 1_555 1_555
O62 H156 1_555 1_555
C96 H63 1_555 1_555
H64 C96 1_555 1_555
O35 C100 1_555 1_555
N9_2 C75_2 1_555 1_555
O26_2 C75_2 1_555 1_555
C91_2 N11_2 1_555 1_555
C92_2 H59_2 1_555 1_555
C93_2 C92_2 1_555 1_555
H60_2 C93_2 1_555 1_555
C94_2 N13_2 1_555 1_555
C95_2 H61_2 1_555 1_555
H62_2 C95_2 1_555 1_555
C96_2 H63_2 1_555 1_555
H64_2 C96_2 1_555 1_555
C97_2 N15_2 1_555 1_555
C98_2 H65_2 1_555 1_555
C99_2 C98_2 1_555 1_555
H66_2 C99_2 1_555 1_555
C100_2 N17_2 1_555 1_555
C101_2 H67_2 1_555 1_555
H68_2 C101_2 1_555 1_555
C102_2 H69_2 1_555 1_555
H70_2 C102_2 1_555 1_555
C103_2 N19_2 1_555 1_555
C105_2 C104_2 1_555 1_555
C106_2 N21_2 1_555 1_555
C107_2 H73_2 1_555 1_555
H74_2 C107_2 1_555 1_555
C108_2 H75_2 1_555 1_555
H76_2 C108_2 1_555 1_555
C109_2 N23_2 1_555 1_555
C110_2 H77_2 1_555 1_555
C111_2 C110_2 1_555 1_555
H78_2 C111_2 1_555 1_555
C112_2 N25_2 1_555 1_555
C113_2 H79_2 1_555 1_555
H80_2 C113_2 1_555 1_555
C114_2 H81_2 1_555 1_555
H82_2 C114_2 1_555 1_555
C115_2 N24_2 1_555 1_555
C116_2 H83_2 1_555 1_555
C117_2 C116_2 1_555 1_555
H84_2 C117_2 1_555 1_555
C118_2 N29_2 1_555 1_555
C119_2 H85_2 1_555 1_555
H86_2 C119_2 1_555 1_555
C120_2 H87_2 1_555 1_555
H88_2 C120_2 1_555 1_555
C121_2 N31_2 1_555 1_555
C122_2 H89_2 1_555 1_555
C123_2 C122_2 1_555 1_555
H90_2 C123_2 1_555 1_555
C124_2 N33_2 1_555 1_555
C125_2 H91_2 1_555 1_555
H92_2 C125_2 1_555 1_555
C126_2 H93_2 1_555 1_555
H94_2 C126_2 1_555 1_555
C127_2 N35_2 1_555 1_555
C128_2 H95_2 1_555 1_555
C129_2 C128_2 1_555 1_555
H96_2 C129_2 1_555 1_555
C130_2 N37_2 1_555 1_555
C131_2 H97_2 1_555 1_555
H98_2 C131_2 1_555 1_555
C132_2 H99_2 1_555 1_555
H100_2 C132_2 1_555 1_555
N11_2 C93_2 1_555 1_555
N12_2 C91_2 1_555 1_555
N13_2 C93_2 1_555 1_555
N14_2 C92_2 1_555 1_555
N15_2 C95_2 1_555 1_555
N16_2 C97_2 1_555 1_555
N17_2 C96_2 1_555 1_555
N18_2 C99_2 1_555 1_555
N19_2 C101_2 1_555 1_555
N20_2 C103_2 1_555 1_555
N21_2 C102_2 1_555 1_555
N22_2 C105_2 1_555 1_555
N23_2 C107_2 1_555 1_555
N24_2 C113_2 1_555 1_555
N25_2 C108_2 1_555 1_555
N26_2 C111_2 1_555 1_555
N27_2 C109_2 1_555 1_555
N28_2 C115_2 1_555 1_555
N29_2 C114_2 1_555 1_555
N30_2 C117_2 1_555 1_555
N31_2 C119_2 1_555 1_555
N32_2 C121_2 1_555 1_555
N33_2 C120_2 1_555 1_555
N34_2 C123_2 1_555 1_555
N35_2 C125_2 1_555 1_555
N36_2 C127_2 1_555 1_555
N37_2 C126_2 1_555 1_555
N38_2 C129_2 1_555 1_555
O32_2 C91_2 1_555 1_555
O33_2 C94_2 1_555 1_555
O34_2 C97_2 1_555 1_555
O35_2 C100_2 1_555 1_555
O36_2 C103_2 1_555 1_555
O37_2 C106_2 1_555 1_555
O38_2 C109_2 1_555 1_555
O39_2 C112_2 1_555 1_555
O40_2 Sr1_2 1_555 1_555
O41_2 C118_2 1_555 1_555
O42_2 Sr1_2 1_555 1_555
O43 C124_2 1_555 1_555
O44_2 C127_2 1_555 1_555
O45 C130_2 1_555 1_555
C161_2 H127_2 1_555 1_555
H128_2 C161_2 1_555 1_555
C163_2 N59_2 1_555 1_555
C164_2 H131_2 1_555 1_555
C165_2 C164_2 1_555 1_555
H132_2 C165_2 1_555 1_555
C167_2 H133_2 1_555 1_555
H134_2 C167_2 1_555 1_555
C168_2 H135_2 1_555 1_555
C169_2 N63_2 1_555 1_555
C170_2 H137_2 1_555 1_555
C171_2 C170_2 1_555 1_555
H138_2 C171_2 1_555 1_555
C174_2 H141_2 1_555 1_555
H142_2 C174_2 1_555 1_555
N59_2 C161_2 1_555 1_555
N60_2 C163_2 1_555 1_555
N62_2 C165_2 1_555 1_555
N63_2 C167_2 1_555 1_555
N64_2 C169_2 1_555 1_555
N65_2 C168_2 1_555 1_555
O57_2 Sr1_2 1_555 1_555
O59_2 C169_2 1_555 1_555
O61_2 Sr1_2 1_555 1_555
Sr6 O43 1_555 1_555
C92_2 N12_2 1_555 1_555
C94_2 N14_2 1_555 1_555
C95_2 N12_2 1_555 1_555
C96_2 N14_2 1_555 1_555
C98_2 N15_2 1_555 1_555
C98_2 N17_2 1_555 1_555
C99_2 N16_2 1_555 1_555
C100_2 N18_2 1_555 1_555
C101_2 N16_2 1_555 1_555
C102_2 N18_2 1_555 1_555
C104_2 N19_2 1_555 1_555
C104_2 N21_2 1_555 1_555
C105_2 N20_2 1_555 1_555
C106_2 N22_2 1_555 1_555
C107_2 N20_2 1_555 1_555
C108_2 N22_2 1_555 1_555
C110_2 N23_2 1_555 1_555
C110_2 N25_2 1_555 1_555
C111_2 N27_2 1_555 1_555
C112_2 N26_2 1_555 1_555
C113_2 N27_2 1_555 1_555
C114_2 N26_2 1_555 1_555
C115_2 O40_2 1_555 1_555
C116_2 N24_2 1_555 1_555
C116_2 N29_2 1_555 1_555
C117_2 N28_2 1_555 1_555
C118_2 N30_2 1_555 1_555
C119_2 N28_2 1_555 1_555
C120_2 N30_2 1_555 1_555
C121_2 O42_2 1_555 1_555
C122_2 N31_2 1_555 1_555
C122_2 N33_2 1_555 1_555
C123_2 N32_2 1_555 1_555
C124_2 N34_2 1_555 1_555
C125_2 N32_2 1_555 1_555
C126_2 N34_2 1_555 1_555
C128_2 N35_2 1_555 1_555
C128_2 N37_2 1_555 1_555
C129_2 N36_2 1_555 1_555
C130_2 N38_2 1_555 1_555
C131_2 N11_2 1_555 1_555
C131_2 N36_2 1_555 1_555
C132_2 N13_2 1_555 1_555
C132_2 N38_2 1_555 1_555
O45 Sr6 1_555 1_555
C163_2 O57_2 1_555 1_555
C164_2 N59_2 1_555 1_555
C165_2 N60_2 1_555 1_555
C167_2 N60_2 1_555 1_555
C168_2 N62_2 1_555 1_555
C170_2 N63_2 1_555 1_555
C170_2 N65_2 1_555 1_555
C171_2 N64_2 1_555 1_555
C174_2 N64_2 1_555 1_555
O61_2 H153_2 1_555 1_555
O61_2 H154_2 1_555 1_555
C76_2 C77_2 1_555 1_555
C77_2 H48_2 1_555 1_555
C78_2 C77_2 1_555 1_555
H49_2 C78_2 1_555 1_555
C79_2 C78_2 1_555 1_555
C80_2 C79_2 1_555 1_555
H50_2 C80_2 1_555 1_555
C81_2 C76_2 1_555 1_555
C82_2 C79_2 1_555 1_555
O27_2 C82_2 1_555 1_555
O28_2 C82_2 1_555 1_555
Sr8_2 O28_2 1_555 1_555
C80_2 C81_2 1_555 1_555
C84_2 C85_2 1_555 1_555
C85_2 H52_2 1_555 1_555
C86_2 C85_2 1_555 1_555
H53_2 C86_2 1_555 1_555
C87_2 C86_2 1_555 1_555
C88_2 C87_2 1_555 1_555
H54_2 C88_2 1_555 1_555
C89_2 C84_2 1_555 1_555
H55_2 C89_2 1_555 1_555
C90_2 C87_2 1_555 1_555
O64 C90_2 1_555 1_555
O65 C90_2 1_555 1_555
C88_2 C89_2 1_555 1_555
O10_2 Sr7 1_555 1_555
O11_2 Sr4_2 1_555 1_555
O12_2 Sr4_2 1_555 1_555
O13_2 Sr6 1_555 1_555
Sr6 O23_2 1_555 1_555
Sr7 O16_2 1_555 1_555
Sr4_2 O24_2 1_555 1_555
C31_2 C32_2 1_555 1_555
C32_2 C33_2 1_555 1_555
C33_2 H23_2 1_555 1_555
C34_2 C33_2 1_555 1_555
H24 C34_2 1_555 1_555
C35_2 C34_2 1_555 1_555
C36_2 C35_2 1_555 1_555
H25_2 C36_2 1_555 1_555
C37_2 C32_2 1_555 1_555
H26_2 C37_2 1_555 1_555
C38 C39 1_555 1_555
C39 C40 1_555 1_555
C40 H27 1_555 1_555
C41 C40 1_555 1_555
C42 C41 1_555 1_555
H28 C42 1_555 1_555
C43 C42 1_555 1_555
C44 C39 1_555 1_555
H29 C44 1_555 1_555
C45 C41 1_555 1_555
C46 C47 1_555 1_555
C47 H30 1_555 1_555
C48 C47 1_555 1_555
H31 C48 1_555 1_555
C49 C48 1_555 1_555
C50 C49 1_555 1_555
H32 C50 1_555 1_555
C51 C46 1_555 1_555
H33 C51 1_555 1_555
C52 C49 1_555 1_555
C53 C43 1_555 1_555
C54 C55 1_555 1_555
C55 H34 1_555 1_555
C56 C55 1_555 1_555
H35 C56 1_555 1_555
C57 C56 1_555 1_555
C58 C57 1_555 1_555
H36 C58 1_555 1_555
C59 C54 1_555 1_555
H37 C59 1_555 1_555
C60 C57 1_555 1_555
O14 C60 1_555 1_555
O15 C60 1_555 1_555
N5 C35_2 1_555 1_555
H38 N5 1_555 1_555
N6 C45 1_555 1_555
H39 N6 1_555 1_555
N7 C53 1_555 1_555
H40 N7 1_555 1_555
O16_2 C31_2 1_555 1_555
O17_2 C31_2 1_555 1_555
O18 C38 1_555 1_555
O19 C45 1_555 1_555
O20 C52 1_555 1_555
O21 C52 1_555 1_555
O22 C53 1_555 1_555
C61_2 C62_2 1_555 1_555
C62_2 C63_2 1_555 1_555
C63_2 H41_2 1_555 1_555
C64_2 C63_2 1_555 1_555
H42_2 C64_2 1_555 1_555
C65_2 C64_2 1_555 1_555
C66_2 C65_2 1_555 1_555
H43_2 C66_2 1_555 1_555
C67_2 C62_2 1_555 1_555
H44_2 C67_2 1_555 1_555
C68_2 C69_2 1_555 1_555
C69_2 C70_2 1_555 1_555
C70_2 H45_2 1_555 1_555
C71_2 C70_2 1_555 1_555
C72_2 C71_2 1_555 1_555
C73_2 C72_2 1_555 1_555
C74_2 C69_2 1_555 1_555
H47_2 C74_2 1_555 1_555
C83_2 C73_2 1_555 1_555
N8_2 C65_2 1_555 1_555
H56_2 N8_2 1_555 1_555
N10_2 C83_2 1_555 1_555
H58_2 N10_2 1_555 1_555
O23_2 Sr7 1_555 1_555
O24_2 Sr7 1_555 1_555
O25_2 C68_2 1_555 1_555
C133_2 N39_2 1_555 1_555
C134_2 H101_2 1_555 1_555
C135_2 C134_2 1_555 1_555
H102_2 C135_2 1_555 1_555
C136_2 N41_2 1_555 1_555
C137_2 H103_2 1_555 1_555
H104_2 C137_2 1_555 1_555
C138_2 H105_2 1_555 1_555
H106_2 C138_2 1_555 1_555
C139_2 N43_2 1_555 1_555
C140_2 H107_2 1_555 1_555
C141_2 C140_2 1_555 1_555
H108_2 C141_2 1_555 1_555
C142_2 N45_2 1_555 1_555
C143_2 H109_2 1_555 1_555
H110_2 C143_2 1_555 1_555
C144_2 H111_2 1_555 1_555
H112_2 C144_2 1_555 1_555
C145_2 N47_2 1_555 1_555
C146_2 H113_2 1_555 1_555
C147_2 C146_2 1_555 1_555
H114_2 C147_2 1_555 1_555
C148_2 N49_2 1_555 1_555
C149_2 H115_2 1_555 1_555
H116_2 C149_2 1_555 1_555
C150_2 H117_2 1_555 1_555
H118_2 C150_2 1_555 1_555
C151_2 N53_2 1_555 1_555
C152_2 H119_2 1_555 1_555
C153_2 C152_2 1_555 1_555
H120_2 C153_2 1_555 1_555
C154_2 N51_2 1_555 1_555
C155_2 H121_2 1_555 1_555
H122_2 C155_2 1_555 1_555
C156_2 H123_2 1_555 1_555
H124_2 C156_2 1_555 1_555
C157_2 N55_2 1_555 1_555
C158_2 H125_2 1_555 1_555
C159_2 C158_2 1_555 1_555
H126_2 C159_2 1_555 1_555
C160_2 N57_2 1_555 1_555
C162_2 H129_2 1_555 1_555
H130_2 C162_2 1_555 1_555
C166_2 N61_2 1_555 1_555
C173_2 H139_2 1_555 1_555
H140_2 C173_2 1_555 1_555
N39_2 C135_2 1_555 1_555
N40_2 C133_2 1_555 1_555
N41_2 C135_2 1_555 1_555
N42_2 C134_2 1_555 1_555
N43_2 C137_2 1_555 1_555
N44_2 C139_2 1_555 1_555
N45_2 C138_2 1_555 1_555
N46_2 C141_2 1_555 1_555
N47_2 C143_2 1_555 1_555
N48_2 C145_2 1_555 1_555
N49_2 C144_2 1_555 1_555
N50_2 C147_2 1_555 1_555
N51_2 C150_2 1_555 1_555
N52_2 C153_2 1_555 1_555
N53_2 C149_2 1_555 1_555
N54_2 C151_2 1_555 1_555
N55_2 C156_2 1_555 1_555
N56_2 C157_2 1_555 1_555
N57_2 C155_2 1_555 1_555
N58_2 C159_2 1_555 1_555
N61_2 C162_2 1_555 1_555
O46_2 Sr4_2 1_555 1_555
O47_2 C136_2 1_555 1_555
O48_2 C139_2 1_555 1_555
O49_2 C142_2 1_555 1_555
O50_2 Sr6 1_555 1_555
O51_2 C148_2 1_555 1_555
O52_2 Sr6 1_555 1_555
O53_2 C154_2 1_555 1_555
O54_2 Sr7 1_555 1_555
O56_2 Sr7 1_555 1_555
O58_2 Sr4_2 1_555 1_555
O60_2 Sr7 1_555 1_555
O63_2 Sr4_2 1_555 1_555
Sr4_2 O60_2 1_555 1_555
C36_2 C37_2 1_555 1_555
C38 N5 1_555 1_555
C43 C44 1_555 1_555
C46 N6 1_555 1_555
C50 C51 1_555 1_555
C54 N7 1_555 1_555
C58 C59 1_555 1_555
C61_2 O23_2 1_555 1_555
C61_2 O24_2 1_555 1_555
C66_2 C67_2 1_555 1_555
C68_2 N8_2 1_555 1_555
C73_2 C74_2 1_555 1_555
C133_2 O46_2 1_555 1_555
C134_2 N40_2 1_555 1_555
C136_2 N42_2 1_555 1_555
C137_2 N40_2 1_555 1_555
C138_2 N42_2 1_555 1_555
C140_2 N43_2 1_555 1_555
C140_2 N45_2 1_555 1_555
C141_2 N44_2 1_555 1_555
C142_2 N46_2 1_555 1_555
C143_2 N44_2 1_555 1_555
C144_2 N46_2 1_555 1_555
C145_2 O50_2 1_555 1_555
C146_2 N47_2 1_555 1_555
C146_2 N49_2 1_555 1_555
C147_2 N48_2 1_555 1_555
C148_2 N50_2 1_555 1_555
C149_2 N48_2 1_555 1_555
C150_2 N50_2 1_555 1_555
C151_2 O52_2 1_555 1_555
C152_2 N51_2 1_555 1_555
C152_2 N53_2 1_555 1_555
C153_2 N54_2 1_555 1_555
C154_2 N52_2 1_555 1_555
C155_2 N54_2 1_555 1_555
C156_2 N52_2 1_555 1_555
C157_2 O55_2 1_555 1_555
C158_2 N55_2 1_555 1_555
C158_2 N57_2 1_555 1_555
C159_2 N56_2 1_555 1_555
C160_2 N58_2 1_555 1_555
C160_2 O54_2 1_555 1_555
C162_2 N58_2 1_555 1_555
C166_2 O56_2 1_555 1_555
C172_2 N66_2 1_555 1_555
C172_2 O58_2 1_555 1_555
C173_2 N39_2 1_555 1_555
C173_2 N66_2 1_555 1_555
O10_2 H143_2 1_555 1_555
O10_2 H144_2 1_555 1_555
O11_2 H145_2 1_555 1_555
O11_2 H146_2 1_555 1_555
O12_2 H147_2 1_555 1_555
O12_2 H148_2 1_555 1_555
O13_2 H149_2 1_555 1_555
O13_2 H150_2 1_555 1_555
O14 H151 1_555 1_555
O20 H152 1_555 1_555
O62_2 H155_2 1_555 1_555
O62_2 H156_2 1_555 1_555
C96_3 H63_3 1_555 1_555
H64_3 C96_3 1_555 1_555
O35_3 C100_3 1_555 1_555
O45_2 Sr5 1_555 1_555
Sr1_3 O25_3 1_555 1_555
O10_3 Sr3_2 1_555 1_555
O11_3 Sr8_2 1_555 1_555
O12_3 Sr8_2 1_555 1_555
O13_3 Sr5 1_555 1_555
Sr5 O23_3 1_555 1_555
Sr3_2 O16_3 1_555 1_555
Sr8_2 O24_3 1_555 1_555
C31_3 C32_3 1_555 1_555
C32_3 C33_3 1_555 1_555
C33_3 H23_3 1_555 1_555
C34_3 C33_3 1_555 1_555
C35_3 C34_3 1_555 1_555
C36_3 C35_3 1_555 1_555
H25_3 C36_3 1_555 1_555
C37_3 C32_3 1_555 1_555
H26_3 C37_3 1_555 1_555
O16_3 C31_3 1_555 1_555
O17_3 C31_3 1_555 1_555
C61_3 C62_3 1_555 1_555
C62_3 C63_3 1_555 1_555
C63_3 H41_3 1_555 1_555
C64_3 C63_3 1_555 1_555
H42_3 C64_3 1_555 1_555
C65_3 C64_3 1_555 1_555
C66_3 C65_3 1_555 1_555
H43_3 C66_3 1_555 1_555
C67_3 C62_3 1_555 1_555
H44_3 C67_3 1_555 1_555
C68_3 C69_3 1_555 1_555
C69_3 C70_3 1_555 1_555
C70_3 H45_3 1_555 1_555
C71_3 C70_3 1_555 1_555
C72_3 C71_3 1_555 1_555
H46_3 C72_3 1_555 1_555
C73_3 C72_3 1_555 1_555
C74_3 C69_3 1_555 1_555
H47_3 C74_3 1_555 1_555
C75_3 C71_3 1_555 1_555
C76_3 C77_3 1_555 1_555
C77_3 H48_3 1_555 1_555
C78_3 C77_3 1_555 1_555
H49_3 C78_3 1_555 1_555
C79_3 C78_3 1_555 1_555
C80_3 C79_3 1_555 1_555
H50_3 C80_3 1_555 1_555
C81_3 C76_3 1_555 1_555
H51_3 C81_3 1_555 1_555
C82_3 C79_3 1_555 1_555
C83_3 C73_3 1_555 1_555
C84_3 C85_3 1_555 1_555
C85_3 H52_3 1_555 1_555
C86_3 C85_3 1_555 1_555
H53_3 C86_3 1_555 1_555
C87_3 C86_3 1_555 1_555
C88_3 C87_3 1_555 1_555
H54_3 C88_3 1_555 1_555
C89_3 C84_3 1_555 1_555
H55_3 C89_3 1_555 1_555
C90_3 C87_3 1_555 1_555
N8_3 C65_3 1_555 1_555
H56_3 N8_3 1_555 1_555
N9_3 C75_3 1_555 1_555
H57_3 N9_3 1_555 1_555
N10_3 C83_3 1_555 1_555
H58_3 N10_3 1_555 1_555
O23_3 Sr3_2 1_555 1_555
O24_3 Sr3_2 1_555 1_555
O25_3 C68_3 1_555 1_555
O26_3 C75_3 1_555 1_555
O27_3 C82_3 1_555 1_555
O63_2 C82_3 1_555 1_555
O29_3 C83_3 1_555 1_555
O30_2 C90_3 1_555 1_555
O31_2 C90_3 1_555 1_555
C91_3 N11_3 1_555 1_555
C92_3 H59_3 1_555 1_555
C93_3 C92_3 1_555 1_555
H60_3 C93_3 1_555 1_555
C94_3 N13_3 1_555 1_555
C95_3 H61_3 1_555 1_555
H62_3 C95_3 1_555 1_555
C97_3 N15_3 1_555 1_555
C98_3 H65_3 1_555 1_555
C99_3 C98_3 1_555 1_555
H66_3 C99_3 1_555 1_555
C101_3 H67_3 1_555 1_555
H68_3 C101_3 1_555 1_555
H70_3 C102_3 1_555 1_555
C103_3 N19_3 1_555 1_555
C104_3 H71_2 1_555 1_555
C105_3 C104_3 1_555 1_555
H72_2 C105_3 1_555 1_555
C106_3 N21_3 1_555 1_555
C107_3 H73_3 1_555 1_555
H74_3 C107_3 1_555 1_555
C108_3 H75_3 1_555 1_555
H76_3 C108_3 1_555 1_555
C109_3 N23_3 1_555 1_555
C110_3 H77_3 1_555 1_555
C111_3 C110_3 1_555 1_555
H78_3 C111_3 1_555 1_555
C112_3 N25_3 1_555 1_555
C113_3 H79_3 1_555 1_555
H80_3 C113_3 1_555 1_555
C114_3 H81_3 1_555 1_555
H82_3 C114_3 1_555 1_555
C115_3 N24_3 1_555 1_555
C116_3 H83_3 1_555 1_555
C117_3 C116_3 1_555 1_555
H84_3 C117_3 1_555 1_555
C118_3 N29_3 1_555 1_555
C119_3 H85_3 1_555 1_555
H86_3 C119_3 1_555 1_555
C120_3 H87_3 1_555 1_555
H88_3 C120_3 1_555 1_555
C121_3 N31_3 1_555 1_555
C122_3 H89_3 1_555 1_555
C123_3 C122_3 1_555 1_555
H90_3 C123_3 1_555 1_555
C124_3 N33_3 1_555 1_555
C125_3 H91_3 1_555 1_555
H92_3 C125_3 1_555 1_555
C126_3 H93_3 1_555 1_555
H94_3 C126_3 1_555 1_555
C127_3 N35_3 1_555 1_555
C128_3 H95_3 1_555 1_555
C129_3 C128_3 1_555 1_555
H96_3 C129_3 1_555 1_555
C130_3 N37_3 1_555 1_555
C131_3 H97_3 1_555 1_555
H98_3 C131_3 1_555 1_555
H100_3 C132_3 1_555 1_555
N11_3 C93_3 1_555 1_555
N12_3 C91_3 1_555 1_555
N13_3 C93_3 1_555 1_555
N14_3 C92_3 1_555 1_555
N15_3 C95_3 1_555 1_555
N16_3 C97_3 1_555 1_555
N18_3 C99_3 1_555 1_555
N19_3 C101_3 1_555 1_555
N20_3 C103_3 1_555 1_555
N21_3 C102_3 1_555 1_555
N22_3 C105_3 1_555 1_555
N23_3 C107_3 1_555 1_555
N24_3 C113_3 1_555 1_555
N25_3 C108_3 1_555 1_555
N26_3 C111_3 1_555 1_555
N27_3 C109_3 1_555 1_555
N28_3 C115_3 1_555 1_555
N29_3 C114_3 1_555 1_555
N30_3 C117_3 1_555 1_555
N31_3 C119_3 1_555 1_555
N32_3 C121_3 1_555 1_555
N33_3 C120_3 1_555 1_555
N34_3 C123_3 1_555 1_555
N35_3 C125_3 1_555 1_555
N36_3 C127_3 1_555 1_555
N37_3 C126_3 1_555 1_555
N38_3 C129_3 1_555 1_555
O32_3 C91_3 1_555 1_555
O34_3 C97_3 1_555 1_555
O36_3 C103_3 1_555 1_555
O38_3 C109_3 1_555 1_555
O39_3 C112_3 1_555 1_555
O40_3 Sr1_3 1_555 1_555
O41_3 C118_3 1_555 1_555
O42_3 Sr1_3 1_555 1_555
O43_2 C124_3 1_555 1_555
O44_3 C127_3 1_555 1_555
C133_3 N39_3 1_555 1_555
C134_3 H101_3 1_555 1_555
C135_3 C134_3 1_555 1_555
H102_3 C135_3 1_555 1_555
C136_3 N41_3 1_555 1_555
C137_3 H103_3 1_555 1_555
H104_3 C137_3 1_555 1_555
C138_3 H105_3 1_555 1_555
H106_3 C138_3 1_555 1_555
C139_3 N43_3 1_555 1_555
C140_3 H107_3 1_555 1_555
C141_3 C140_3 1_555 1_555
H108_3 C141_3 1_555 1_555
C142_3 N45_3 1_555 1_555
C143_3 H109_3 1_555 1_555
H110_3 C143_3 1_555 1_555
C144_3 H111_3 1_555 1_555
H112_3 C144_3 1_555 1_555
C145_3 N47_3 1_555 1_555
C146_3 H113_3 1_555 1_555
C147_3 C146_3 1_555 1_555
H114_3 C147_3 1_555 1_555
C148_3 N49_3 1_555 1_555
C149_3 H115_3 1_555 1_555
H116_3 C149_3 1_555 1_555
C150_3 H117_3 1_555 1_555
H118_3 C150_3 1_555 1_555
C151_3 N53_3 1_555 1_555
C152_3 H119_3 1_555 1_555
C153_3 C152_3 1_555 1_555
H120_3 C153_3 1_555 1_555
C154_3 N51_3 1_555 1_555
C155_3 H121_3 1_555 1_555
H122_3 C155_3 1_555 1_555
C156_3 H123_3 1_555 1_555
H124_3 C156_3 1_555 1_555
C157_3 N55_3 1_555 1_555
C158_3 H125_3 1_555 1_555
C159_3 C158_3 1_555 1_555
H126_3 C159_3 1_555 1_555
C160_3 N57_3 1_555 1_555
C161_3 H127_3 1_555 1_555
H128_3 C161_3 1_555 1_555
C162_3 H129_3 1_555 1_555
H130_3 C162_3 1_555 1_555
C163_3 N59_3 1_555 1_555
C164_3 H131_3 1_555 1_555
C165_3 C164_3 1_555 1_555
H132_3 C165_3 1_555 1_555
C166_3 N61_3 1_555 1_555
C167_3 H133_3 1_555 1_555
H134_3 C167_3 1_555 1_555
C168_3 H135_3 1_555 1_555
H136_3 C168_3 1_555 1_555
C169_3 N63_3 1_555 1_555
C170_3 H137_3 1_555 1_555
C171_3 C170_3 1_555 1_555
H138_3 C171_3 1_555 1_555
C172_3 N65_3 1_555 1_555
C173_3 H139_3 1_555 1_555
H140_3 C173_3 1_555 1_555
C174_3 H141_3 1_555 1_555
H142_3 C174_3 1_555 1_555
N39_3 C135_3 1_555 1_555
N40_3 C133_3 1_555 1_555
N41_3 C135_3 1_555 1_555
N42_3 C134_3 1_555 1_555
N43_3 C137_3 1_555 1_555
N44_3 C139_3 1_555 1_555
N45_3 C138_3 1_555 1_555
N46_3 C141_3 1_555 1_555
N47_3 C143_3 1_555 1_555
N48_3 C145_3 1_555 1_555
N49_3 C144_3 1_555 1_555
N50_3 C147_3 1_555 1_555
N51_3 C150_3 1_555 1_555
N52_3 C153_3 1_555 1_555
N53_3 C149_3 1_555 1_555
N54_3 C151_3 1_555 1_555
N55_3 C156_3 1_555 1_555
N56_3 C157_3 1_555 1_555
N57_3 C155_3 1_555 1_555
N58_3 C159_3 1_555 1_555
N59_3 C161_3 1_555 1_555
N60_3 C163_3 1_555 1_555
N61_3 C162_3 1_555 1_555
N62_3 C165_3 1_555 1_555
N63_3 C167_3 1_555 1_555
N64_3 C169_3 1_555 1_555
N65_3 C168_3 1_555 1_555
N66_3 C171_3 1_555 1_555
O46_3 Sr8_2 1_555 1_555
O47_3 C136_3 1_555 1_555
O48_3 C139_3 1_555 1_555
O49_3 C142_3 1_555 1_555
O50_3 Sr5 1_555 1_555
O51_3 C148_3 1_555 1_555
O52_3 Sr5 1_555 1_555
O53_3 C154_3 1_555 1_555
O54_3 Sr3_2 1_555 1_555
O55_3 Sr1_3 1_555 1_555
O56_3 Sr3_2 1_555 1_555
O57_3 Sr1_3 1_555 1_555
O58_3 Sr8_2 1_555 1_555
O59_3 C169_3 1_555 1_555
O60_3 Sr3_2 1_555 1_555
O61_3 Sr1_3 1_555 1_555
O62_3 Sr1_3 1_555 1_555
Sr6_2 O30_2 1_555 1_555
Sr7_2 O30_2 1_555 1_555
O64_2 Sr5 1_555 1_555
O65_2 Sr5 1_555 1_555
Sr3_2 O64_2 1_555 1_555
Sr8_2 O60_3 1_555 1_555
C36_3 C37_3 1_555 1_555
C61_3 O23_3 1_555 1_555
C61_3 O24_3 1_555 1_555
C66_3 C67_3 1_555 1_555
C68_3 N8_3 1_555 1_555
C73_3 C74_3 1_555 1_555
C76_3 N9_3 1_555 1_555
C80_3 C81_3 1_555 1_555
C84_3 N10_3 1_555 1_555
C88_3 C89_3 1_555 1_555
O31_2 Sr6_2 1_555 1_555
C92_3 N12_3 1_555 1_555
C94_3 N14_3 1_555 1_555
C95_3 N12_3 1_555 1_555
C98_3 N15_3 1_555 1_555
C98_3 N17_3 1_555 1_555
C99_3 N16_3 1_555 1_555
C101_3 N16_3 1_555 1_555
C102_3 N18_3 1_555 1_555
C104_3 N19_3 1_555 1_555
C104_3 N21_3 1_555 1_555
C105_3 N20_3 1_555 1_555
C106_3 N22_3 1_555 1_555
C107_3 N20_3 1_555 1_555
C108_3 N22_3 1_555 1_555
C110_3 N23_3 1_555 1_555
C110_3 N25_3 1_555 1_555
C111_3 N27_3 1_555 1_555
C112_3 N26_3 1_555 1_555
C113_3 N27_3 1_555 1_555
C114_3 N26_3 1_555 1_555
C115_3 O40_3 1_555 1_555
C116_3 N24_3 1_555 1_555
C116_3 N29_3 1_555 1_555
C117_3 N28_3 1_555 1_555
C118_3 N30_3 1_555 1_555
C119_3 N28_3 1_555 1_555
C120_3 N30_3 1_555 1_555
C121_3 O42_3 1_555 1_555
C122_3 N31_3 1_555 1_555
C122_3 N33_3 1_555 1_555
C123_3 N32_3 1_555 1_555
C124_3 N34_3 1_555 1_555
C125_3 N32_3 1_555 1_555
C126_3 N34_3 1_555 1_555
C128_3 N35_3 1_555 1_555
C128_3 N37_3 1_555 1_555
C129_3 N36_3 1_555 1_555
C130_3 N38_3 1_555 1_555
C131_3 N11_3 1_555 1_555
C131_3 N36_3 1_555 1_555
C132_3 N13_3 1_555 1_555
C132_3 N38_3 1_555 1_555
C133_3 O46_3 1_555 1_555
C134_3 N40_3 1_555 1_555
C136_3 N42_3 1_555 1_555
C137_3 N40_3 1_555 1_555
C138_3 N42_3 1_555 1_555
C140_3 N43_3 1_555 1_555
C140_3 N45_3 1_555 1_555
C141_3 N44_3 1_555 1_555
C142_3 N46_3 1_555 1_555
C143_3 N44_3 1_555 1_555
C144_3 N46_3 1_555 1_555
C145_3 O50_3 1_555 1_555
C146_3 N47_3 1_555 1_555
C146_3 N49_3 1_555 1_555
C147_3 N48_3 1_555 1_555
C148_3 N50_3 1_555 1_555
C149_3 N48_3 1_555 1_555
C150_3 N50_3 1_555 1_555
C151_3 O52_3 1_555 1_555
C152_3 N51_3 1_555 1_555
C152_3 N53_3 1_555 1_555
C153_3 N54_3 1_555 1_555
C154_3 N52_3 1_555 1_555
C155_3 N54_3 1_555 1_555
C156_3 N52_3 1_555 1_555
C157_3 O55_3 1_555 1_555
C158_3 N55_3 1_555 1_555
C158_3 N57_3 1_555 1_555
C159_3 N56_3 1_555 1_555
C160_3 N58_3 1_555 1_555
C160_3 O54_3 1_555 1_555
C161_3 N56_3 1_555 1_555
C162_3 N58_3 1_555 1_555
C163_3 O57_3 1_555 1_555
C164_3 N59_3 1_555 1_555
C164_3 N61_3 1_555 1_555
C165_3 N60_3 1_555 1_555
C166_3 N62_3 1_555 1_555
C166_3 O56_3 1_555 1_555
C167_3 N60_3 1_555 1_555
C168_3 N62_3 1_555 1_555
C170_3 N63_3 1_555 1_555
C170_3 N65_3 1_555 1_555
C171_3 N64_3 1_555 1_555
C172_3 N66_3 1_555 1_555
C172_3 O58_3 1_555 1_555
C173_3 N39_3 1_555 1_555
C173_3 N66_3 1_555 1_555
C174_3 N41_3 1_555 1_555
C174_3 N64_3 1_555 1_555
O10_3 H143_3 1_555 1_555
O10_3 H144_3 1_555 1_555
O11_3 H145_3 1_555 1_555
O11_3 H146_3 1_555 1_555
O12_3 H147_3 1_555 1_555
O12_3 H148_3 1_555 1_555
O13_3 H149_3 1_555 1_555
O13_3 H150_3 1_555 1_555
O61_3 H153_3 1_555 1_555
O61_3 H154_3 1_555 1_555
O62_3 H155_3 1_555 1_555
O62_3 H156_3 1_555 1_555
O10_4 Sr7_2 1_555 1_555
O11_4 Sr8 1_555 1_555
O12_4 Sr8 1_555 1_555
O13_4 Sr6_2 1_555 1_555
Sr6_2 O23_4 1_555 1_555
Sr7_2 O16_4 1_555 1_555
Sr8 O24_4 1_555 1_555
C31_4 C32_4 1_555 1_555
C32_4 C33_4 1_555 1_555
C33_4 H23_4 1_555 1_555
C34_4 C33_4 1_555 1_555
H24_2 C34_4 1_555 1_555
C35_4 C34_4 1_555 1_555
C36_4 C35_4 1_555 1_555
H25_4 C36_4 1_555 1_555
C37_4 C32_4 1_555 1_555
H26_4 C37_4 1_555 1_555
C38_2 C39_2 1_555 1_555
C39_2 C40_2 1_555 1_555
C40_2 H27_2 1_555 1_555
C41_2 C40_2 1_555 1_555
C42_2 C41_2 1_555 1_555
H28_2 C42_2 1_555 1_555
C43_2 C42_2 1_555 1_555
C44_2 C39_2 1_555 1_555
H29_2 C44_2 1_555 1_555
C45_2 C41_2 1_555 1_555
C46_2 C47_2 1_555 1_555
C47_2 H30_2 1_555 1_555
C48_2 C47_2 1_555 1_555
H31_2 C48_2 1_555 1_555
C49_2 C48_2 1_555 1_555
C50_2 C49_2 1_555 1_555
H32_2 C50_2 1_555 1_555
C51_2 C46_2 1_555 1_555
H33_2 C51_2 1_555 1_555
C52_2 C49_2 1_555 1_555
C53_2 C43_2 1_555 1_555
C54_2 C55_2 1_555 1_555
C55_2 H34_2 1_555 1_555
C56_2 C55_2 1_555 1_555
H35_2 C56_2 1_555 1_555
C57_2 C56_2 1_555 1_555
C58_2 C57_2 1_555 1_555
H36_2 C58_2 1_555 1_555
C59_2 C54_2 1_555 1_555
H37_2 C59_2 1_555 1_555
C60_2 C57_2 1_555 1_555
O14_2 C60_2 1_555 1_555
O15_2 C60_2 1_555 1_555
N5_2 C35_4 1_555 1_555
H38_2 N5_2 1_555 1_555
N6_2 C45_2 1_555 1_555
H39_2 N6_2 1_555 1_555
N7_2 C53_2 1_555 1_555
H40_2 N7_2 1_555 1_555
O16_4 C31_4 1_555 1_555
O17_4 C31_4 1_555 1_555
O18_2 C38_2 1_555 1_555
O19_2 C45_2 1_555 1_555
O20_2 C52_2 1_555 1_555
O21_2 C52_2 1_555 1_555
O22_2 C53_2 1_555 1_555
C61_4 C62_4 1_555 1_555
C62_4 C63_4 1_555 1_555
C63_4 H41_4 1_555 1_555
C64_4 C63_4 1_555 1_555
H42_4 C64_4 1_555 1_555
C65_4 C64_4 1_555 1_555
C66_4 C65_4 1_555 1_555
H43_4 C66_4 1_555 1_555
C67_4 C62_4 1_555 1_555
H44_4 C67_4 1_555 1_555
C68_4 C69_4 1_555 1_555
C69_4 C70_4 1_555 1_555
C70_4 H45_4 1_555 1_555
C71_4 C70_4 1_555 1_555
C72_4 C71_4 1_555 1_555
C73_4 C72_4 1_555 1_555
C74_4 C69_4 1_555 1_555
H47_4 C74_4 1_555 1_555
C83_4 C73_4 1_555 1_555
N8_4 C65_4 1_555 1_555
H56_4 N8_4 1_555 1_555
N10_4 C83_4 1_555 1_555
H58_4 N10_4 1_555 1_555
O23_4 Sr7_2 1_555 1_555
O24_4 Sr7_2 1_555 1_555
O25_4 C68_4 1_555 1_555
C133_4 N39_4 1_555 1_555
C134_4 H101_4 1_555 1_555
C135_4 C134_4 1_555 1_555
H102_4 C135_4 1_555 1_555
C136_4 N41_4 1_555 1_555
C137_4 H103_4 1_555 1_555
H104_4 C137_4 1_555 1_555
C138_4 H105_4 1_555 1_555
H106_4 C138_4 1_555 1_555
C139_4 N43_4 1_555 1_555
C140_4 H107_4 1_555 1_555
C141_4 C140_4 1_555 1_555
H108_4 C141_4 1_555 1_555
C142_4 N45_4 1_555 1_555
C143_4 H109_4 1_555 1_555
H110_4 C143_4 1_555 1_555
C144_4 H111_4 1_555 1_555
H112_4 C144_4 1_555 1_555
C145_4 N47_4 1_555 1_555
C146_4 H113_4 1_555 1_555
C147_4 C146_4 1_555 1_555
H114_4 C147_4 1_555 1_555
C148_4 N49_4 1_555 1_555
C149_4 H115_4 1_555 1_555
H116_4 C149_4 1_555 1_555
C150_4 H117_4 1_555 1_555
H118_4 C150_4 1_555 1_555
C151_4 N53_4 1_555 1_555
C152_4 H119_4 1_555 1_555
C153_4 C152_4 1_555 1_555
H120_4 C153_4 1_555 1_555
C154_4 N51_4 1_555 1_555
C155_4 H121_4 1_555 1_555
H122_4 C155_4 1_555 1_555
C156_4 H123_4 1_555 1_555
H124_4 C156_4 1_555 1_555
C157_4 N55_4 1_555 1_555
C158_4 H125_4 1_555 1_555
C159_4 C158_4 1_555 1_555
H126_4 C159_4 1_555 1_555
C160_4 N57_4 1_555 1_555
C162_4 H129_4 1_555 1_555
H130_4 C162_4 1_555 1_555
C166_4 N61_4 1_555 1_555
C173_4 H139_4 1_555 1_555
H140_4 C173_4 1_555 1_555
N39_4 C135_4 1_555 1_555
N40_4 C133_4 1_555 1_555
N41_4 C135_4 1_555 1_555
N42_4 C134_4 1_555 1_555
N43_4 C137_4 1_555 1_555
N44_4 C139_4 1_555 1_555
N45_4 C138_4 1_555 1_555
N46_4 C141_4 1_555 1_555
N47_4 C143_4 1_555 1_555
N48_4 C145_4 1_555 1_555
N49_4 C144_4 1_555 1_555
N50_4 C147_4 1_555 1_555
N51_4 C150_4 1_555 1_555
N52_4 C153_4 1_555 1_555
N53_4 C149_4 1_555 1_555
N54_4 C151_4 1_555 1_555
N55_4 C156_4 1_555 1_555
N56_4 C157_4 1_555 1_555
N57_4 C155_4 1_555 1_555
N58_4 C159_4 1_555 1_555
N61_4 C162_4 1_555 1_555
O46_4 Sr8 1_555 1_555
O47_4 C136_4 1_555 1_555
O48_4 C139_4 1_555 1_555
O49_4 C142_4 1_555 1_555
O50_4 Sr6_2 1_555 1_555
O51_4 C148_4 1_555 1_555
O52_4 Sr6_2 1_555 1_555
O53_4 C154_4 1_555 1_555
O54_4 Sr7_2 1_555 1_555
O56_4 Sr7_2 1_555 1_555
O58_4 Sr8 1_555 1_555
O60_4 Sr7_2 1_555 1_555
O66_2 Sr6_2 1_555 1_555
O67_2 Sr6_2 1_555 1_555
Sr8 O60_4 1_555 1_555
C36_4 C37_4 1_555 1_555
C38_2 N5_2 1_555 1_555
C43_2 C44_2 1_555 1_555
C46_2 N6_2 1_555 1_555
C50_2 C51_2 1_555 1_555
C54_2 N7_2 1_555 1_555
C58_2 C59_2 1_555 1_555
C61_4 O23_4 1_555 1_555
C61_4 O24_4 1_555 1_555
C66_4 C67_4 1_555 1_555
C68_4 N8_4 1_555 1_555
C73_4 C74_4 1_555 1_555
C133_4 O46_4 1_555 1_555
C134_4 N40_4 1_555 1_555
C136_4 N42_4 1_555 1_555
C137_4 N40_4 1_555 1_555
C138_4 N42_4 1_555 1_555
C140_4 N43_4 1_555 1_555
C140_4 N45_4 1_555 1_555
C141_4 N44_4 1_555 1_555
C142_4 N46_4 1_555 1_555
C143_4 N44_4 1_555 1_555
C144_4 N46_4 1_555 1_555
C145_4 O50_4 1_555 1_555
C146_4 N47_4 1_555 1_555
C146_4 N49_4 1_555 1_555
C147_4 N48_4 1_555 1_555
C148_4 N50_4 1_555 1_555
C149_4 N48_4 1_555 1_555
C150_4 N50_4 1_555 1_555
C151_4 O52_4 1_555 1_555
C152_4 N51_4 1_555 1_555
C152_4 N53_4 1_555 1_555
C153_4 N54_4 1_555 1_555
C154_4 N52_4 1_555 1_555
C155_4 N54_4 1_555 1_555
C156_4 N52_4 1_555 1_555
C157_4 O55_4 1_555 1_555
C158_4 N55_4 1_555 1_555
C158_4 N57_4 1_555 1_555
C159_4 N56_4 1_555 1_555
C160_4 N58_4 1_555 1_555
C160_4 O54_4 1_555 1_555
C162_4 N58_4 1_555 1_555
C166_4 O56_4 1_555 1_555
C172_4 N66_4 1_555 1_555
C172_4 O58_4 1_555 1_555
C173_4 N39_4 1_555 1_555
C173_4 N66_4 1_555 1_555
O10_4 H143_4 1_555 1_555
O10_4 H144_4 1_555 1_555
O11_4 H145_4 1_555 1_555
O11_4 H146_4 1_555 1_555
O12_4 H147_4 1_555 1_555
O12_4 H148_4 1_555 1_555
O13_4 H149_4 1_555 1_555
O13_4 H150_4 1_555 1_555
O14_2 H151_2 1_555 1_555
O20_2 H152_2 1_555 1_555
O62_4 H155_4 1_555 1_555
O62_4 H156_4 1_555 1_555
C84_4 C85_4 1_555 1_555
C85_4 H52_4 1_555 1_555
C86_4 C85_4 1_555 1_555
H53_4 C86_4 1_555 1_555
C87_4 C86_4 1_555 1_555
C88_4 C87_4 1_555 1_555
H54_4 C88_4 1_555 1_555
C89_4 C84_4 1_555 1_555
H55_4 C89_4 1_555 1_555
C90_4 C87_4 1_555 1_555
O64_2 C90_4 1_555 1_555
O65_2 C90_4 1_555 1_555
C88_4 C89_4 1_555 1_555
C76_4 C77_4 1_555 1_555
C77_4 H48_4 1_555 1_555
C78_4 C77_4 1_555 1_555
H49_4 C78_4 1_555 1_555
C79_4 C78_4 1_555 1_555
C80_4 C79_4 1_555 1_555
H50_4 C80_4 1_555 1_555
C81_4 C76_4 1_555 1_555
C82_4 C79_4 1_555 1_555
O27_4 C82_4 1_555 1_555
O63 C82_4 1_555 1_555
C80_4 C81_4 1_555 1_555
N9_4 C75_4 1_555 1_555
O26_4 C75_4 1_555 1_555
C91_4 N11_4 1_555 1_555
C92_4 H59_4 1_555 1_555
C93_4 C92_4 1_555 1_555
H60_4 C93_4 1_555 1_555
C94_4 N13_4 1_555 1_555
C95_4 H61_4 1_555 1_555
H62_4 C95_4 1_555 1_555
C96_4 H63_4 1_555 1_555
H64_4 C96_4 1_555 1_555
C97_4 N15_4 1_555 1_555
C98_4 H65_4 1_555 1_555
C99_4 C98_4 1_555 1_555
H66_4 C99_4 1_555 1_555
C100_4 N17_4 1_555 1_555
C101_4 H67_4 1_555 1_555
H68_4 C101_4 1_555 1_555
C102_4 H69_4 1_555 1_555
H70_4 C102_4 1_555 1_555
C103_4 N19_4 1_555 1_555
C105_4 C104_4 1_555 1_555
C106_4 N21_4 1_555 1_555
C107_4 H73_4 1_555 1_555
H74_4 C107_4 1_555 1_555
C108_4 H75_4 1_555 1_555
H76_4 C108_4 1_555 1_555
C109_4 N23_4 1_555 1_555
C110_4 H77_4 1_555 1_555
C111_4 C110_4 1_555 1_555
H78_4 C111_4 1_555 1_555
C112_4 N25_4 1_555 1_555
C113_4 H79_4 1_555 1_555
H80_4 C113_4 1_555 1_555
C114_4 H81_4 1_555 1_555
H82_4 C114_4 1_555 1_555
C115_4 N24_4 1_555 1_555
C116_4 H83_4 1_555 1_555
C117_4 C116_4 1_555 1_555
H84_4 C117_4 1_555 1_555
C118_4 N29_4 1_555 1_555
C119_4 H85_4 1_555 1_555
H86_4 C119_4 1_555 1_555
C120_4 H87_4 1_555 1_555
H88_4 C120_4 1_555 1_555
C121_4 N31_4 1_555 1_555
C122_4 H89_4 1_555 1_555
C123_4 C122_4 1_555 1_555
H90_4 C123_4 1_555 1_555
C124_4 N33_4 1_555 1_555
C125_4 H91_4 1_555 1_555
H92_4 C125_4 1_555 1_555
C126_4 H93_4 1_555 1_555
H94_4 C126_4 1_555 1_555
C127_4 N35_4 1_555 1_555
C128_4 H95_4 1_555 1_555
C129_4 C128_4 1_555 1_555
H96_4 C129_4 1_555 1_555
C130_4 N37_4 1_555 1_555
C131_4 H97_4 1_555 1_555
H98_4 C131_4 1_555 1_555
C132_4 H99_4 1_555 1_555
H100_4 C132_4 1_555 1_555
N11_4 C93_4 1_555 1_555
N12_4 C91_4 1_555 1_555
N13_4 C93_4 1_555 1_555
N14_4 C92_4 1_555 1_555
N15_4 C95_4 1_555 1_555
N16_4 C97_4 1_555 1_555
N17_4 C96_4 1_555 1_555
N18_4 C99_4 1_555 1_555
N19_4 C101_4 1_555 1_555
N20_4 C103_4 1_555 1_555
N21_4 C102_4 1_555 1_555
N22_4 C105_4 1_555 1_555
N23_4 C107_4 1_555 1_555
N24_4 C113_4 1_555 1_555
N25_4 C108_4 1_555 1_555
N26_4 C111_4 1_555 1_555
N27_4 C109_4 1_555 1_555
N28_4 C115_4 1_555 1_555
N29_4 C114_4 1_555 1_555
N30_4 C117_4 1_555 1_555
N31_4 C119_4 1_555 1_555
N32_4 C121_4 1_555 1_555
N33_4 C120_4 1_555 1_555
N34_4 C123_4 1_555 1_555
N35_4 C125_4 1_555 1_555
N36_4 C127_4 1_555 1_555
N37_4 C126_4 1_555 1_555
N38_4 C129_4 1_555 1_555
O32_4 C91_4 1_555 1_555
O33_4 C94_4 1_555 1_555
O34_4 C97_4 1_555 1_555
O35_4 C100_4 1_555 1_555
O36_4 C103_4 1_555 1_555
O37_4 C106_4 1_555 1_555
O38_4 C109_4 1_555 1_555
O39_4 C112_4 1_555 1_555
O40_4 Sr1_4 1_555 1_555
O41_4 C118_4 1_555 1_555
O42_4 Sr1_4 1_555 1_555
O66_2 C124_4 1_555 1_555
O44_4 C127_4 1_555 1_555
O67_2 C130_4 1_555 1_555
C161_4 H127_4 1_555 1_555
H128_4 C161_4 1_555 1_555
C163_4 N59_4 1_555 1_555
C164_4 H131_4 1_555 1_555
C165_4 C164_4 1_555 1_555
H132_4 C165_4 1_555 1_555
C167_4 H133_4 1_555 1_555
H134_4 C167_4 1_555 1_555
C168_4 H135_4 1_555 1_555
C169_4 N63_4 1_555 1_555
C170_4 H137_4 1_555 1_555
C171_4 C170_4 1_555 1_555
H138_4 C171_4 1_555 1_555
C174_4 H141_4 1_555 1_555
H142_4 C174_4 1_555 1_555
N59_4 C161_4 1_555 1_555
N60_4 C163_4 1_555 1_555
N62_4 C165_4 1_555 1_555
N63_4 C167_4 1_555 1_555
N64_4 C169_4 1_555 1_555
N65_4 C168_4 1_555 1_555
O57_4 Sr1_4 1_555 1_555
O59_4 C169_4 1_555 1_555
O61_4 Sr1_4 1_555 1_555
C92_4 N12_4 1_555 1_555
C94_4 N14_4 1_555 1_555
C95_4 N12_4 1_555 1_555
C96_4 N14_4 1_555 1_555
C98_4 N15_4 1_555 1_555
C98_4 N17_4 1_555 1_555
C99_4 N16_4 1_555 1_555
C100_4 N18_4 1_555 1_555
C101_4 N16_4 1_555 1_555
C102_4 N18_4 1_555 1_555
C104_4 N19_4 1_555 1_555
C104_4 N21_4 1_555 1_555
C105_4 N20_4 1_555 1_555
C106_4 N22_4 1_555 1_555
C107_4 N20_4 1_555 1_555
C108_4 N22_4 1_555 1_555
C110_4 N23_4 1_555 1_555
C110_4 N25_4 1_555 1_555
C111_4 N27_4 1_555 1_555
C112_4 N26_4 1_555 1_555
C113_4 N27_4 1_555 1_555
C114_4 N26_4 1_555 1_555
C115_4 O40_4 1_555 1_555
C116_4 N24_4 1_555 1_555
C116_4 N29_4 1_555 1_555
C117_4 N28_4 1_555 1_555
C118_4 N30_4 1_555 1_555
C119_4 N28_4 1_555 1_555
C120_4 N30_4 1_555 1_555
C121_4 O42_4 1_555 1_555
C122_4 N31_4 1_555 1_555
C122_4 N33_4 1_555 1_555
C123_4 N32_4 1_555 1_555
C124_4 N34_4 1_555 1_555
C125_4 N32_4 1_555 1_555
C126_4 N34_4 1_555 1_555
C128_4 N35_4 1_555 1_555
C128_4 N37_4 1_555 1_555
C129_4 N36_4 1_555 1_555
C130_4 N38_4 1_555 1_555
C131_4 N11_4 1_555 1_555
C131_4 N36_4 1_555 1_555
C132_4 N13_4 1_555 1_555
C132_4 N38_4 1_555 1_555
C163_4 O57_4 1_555 1_555
C164_4 N59_4 1_555 1_555
C165_4 N60_4 1_555 1_555
C167_4 N60_4 1_555 1_555
C168_4 N62_4 1_555 1_555
C170_4 N63_4 1_555 1_555
C170_4 N65_4 1_555 1_555
C171_4 N64_4 1_555 1_555
C174_4 N64_4 1_555 1_555
O61_4 H153_4 1_555 1_555
O61_4 H154_4 1_555 1_555
C40_3 H27_3 1_555 1_555
H38_3 N5_3 1_555 1_555
O18_3 C38_3 1_555 1_555
C38_3 N5_3 1_555 1_555
O20_3 H152_3 1_555 1_555
C42_3 C41_3 1_555 1_555
H28_3 C42_3 1_555 1_555
C43_3 C42_3 1_555 1_555
C44_3 C39_3 1_555 1_555
H29_3 C44_3 1_555 1_555
C45_3 C41_3 1_555 1_555
C46_3 C47_3 1_555 1_555
C47_3 H30_3 1_555 1_555
C48_3 C47_3 1_555 1_555
C49_3 C48_3 1_555 1_555
C50_3 C49_3 1_555 1_555
H32_3 C50_3 1_555 1_555
C51_3 C46_3 1_555 1_555
H33_3 C51_3 1_555 1_555
C52_3 C49_3 1_555 1_555
C53_3 C43_3 1_555 1_555
C54_3 C55_3 1_555 1_555
C55_3 H34_3 1_555 1_555
C56_3 C55_3 1_555 1_555
H35_3 C56_3 1_555 1_555
C57_3 C56_3 1_555 1_555
C58_3 C57_3 1_555 1_555
H36_3 C58_3 1_555 1_555
C59_3 C54_3 1_555 1_555
H37_3 C59_3 1_555 1_555
C60_3 C57_3 1_555 1_555
O14_3 C60_3 1_555 1_555
O15_3 C60_3 1_555 1_555
N6_3 C45_3 1_555 1_555
H39_3 N6_3 1_555 1_555
N7_3 C53_3 1_555 1_555
H40_3 N7_3 1_555 1_555
O21_3 C52_3 1_555 1_555
O22_3 C53_3 1_555 1_555
C43_3 C44_3 1_555 1_555
C46_3 N6_3 1_555 1_555
C50_3 C51_3 1_555 1_555
C54_3 N7_3 1_555 1_555
C58_3 C59_3 1_555 1_555
O14_3 H151_3 1_555 1_555
C42_4 C41_4 1_555 1_555
H28_4 C42_4 1_555 1_555
C43_4 C42_4 1_555 1_555
C44_4 C39_4 1_555 1_555
H29_4 C44_4 1_555 1_555
C45_4 C41_4 1_555 1_555
C46_4 C47_4 1_555 1_555
C47_4 H30_4 1_555 1_555
C48_4 C47_4 1_555 1_555
C49_4 C48_4 1_555 1_555
C50_4 C49_4 1_555 1_555
H32_4 C50_4 1_555 1_555
C51_4 C46_4 1_555 1_555
H33_4 C51_4 1_555 1_555
C52_4 C49_4 1_555 1_555
C53_4 C43_4 1_555 1_555
C54_4 C55_4 1_555 1_555
C55_4 H34_4 1_555 1_555
C56_4 C55_4 1_555 1_555
H35_4 C56_4 1_555 1_555
C57_4 C56_4 1_555 1_555
C58_4 C57_4 1_555 1_555
H36_4 C58_4 1_555 1_555
C59_4 C54_4 1_555 1_555
H37_4 C59_4 1_555 1_555
C60_4 C57_4 1_555 1_555
O14_4 C60_4 1_555 1_555
O15_4 C60_4 1_555 1_555
N6_4 C45_4 1_555 1_555
H39_4 N6_4 1_555 1_555
N7_4 C53_4 1_555 1_555
H40_4 N7_4 1_555 1_555
O21_4 C52_4 1_555 1_555
O22_4 C53_4 1_555 1_555
C43_4 C44_4 1_555 1_555
C46_4 N6_4 1_555 1_555
C50_4 C51_4 1_555 1_555
C54_4 N7_4 1_555 1_555
C58_4 C59_4 1_555 1_555
O14_4 H151_4 1_555 1_555
C40_4 H27_4 1_555 1_555
H38_4 N5_4 1_555 1_555
O18_4 C38_4 1_555 1_555
C38_4 N5_4 1_555 1_555
O20_4 H152_4 1_555 1_555

#END
