
###############################################################################
#
# This file contains modified crystal structure data generated from the
# MOF subset of the Cambridge Structural Database (CSD) v543 
# hosted by the Cambridge Crystallographic Data Centre (CCDC).
#
# This work is licensed under the Creative Commons
# Attribution-NonCommercial-ShareAlike 4.0 International License.
# To view a copy of this license, visit
# http://creativecommons.org/licenses/by-nc-sa/4.0/
# or send a letter to
# Creative Commons, PO Box 1866, Mountain View, CA 94042, USA.
#
# CIF created using the CSD Python API on 29 September 2022
# The structure has been converted into the P1 space group
# The structure has a 3D framework
# The original CSD entry WUNSII is in the tetragonal crystal system
# The original CSD entry WUNSII is in a Sohncke space group
# The framework has been calculated to contain at least 10.0% void space
# The void calculation uses a probe of radius 1.32A, grid spacing 0.4
# The framework is charged, counterions have been retained in the structure
#
###############################################################################

data_WUNSII
_chemical_formula_moiety         '(C192 H144 Cd3 Cl10 N48 O32 2-)n'
_symmetry_cell_setting           triclinic
_symmetry_space_group_name_H-M   'P 1'
_symmetry_Int_Tables_number      1
_space_group_name_Hall           'P 1'
loop_
_symmetry_equiv_pos_site_id
_symmetry_equiv_pos_as_xyz
1 x,y,z
_cell_length_a                   15.916(3)
_cell_length_b                   15.916(3)
_cell_length_c                   21.495(7)
_cell_angle_alpha                90
_cell_angle_beta                 90
_cell_angle_gamma                90
_cell_volume                     5445.09
loop_
_atom_site_label
_atom_site_type_symbol
_atom_site_fract_x
_atom_site_fract_y
_atom_site_fract_z
C13 C 0.1278(4) 0.0051(4) 0.3194(3)
C14 C 0.1899(4) 0.0591(5) 0.2886(3)
C15 C 0.2211(5) 0.0415(5) 0.2298(3)
C16 C 0.2816(5) 0.0974(5) 0.2038(4)
H10 H 0.3014 0.0877 0.1628
C17 C 0.3117(5) 0.1645(5) 0.2364(3)
H11 H 0.3542 0.1991 0.2190
C18 C 0.2793(4) 0.1821(5) 0.2961(3)
C19 C 0.2181(4) 0.1292(5) 0.3207(3)
H12 H 0.1951 0.1414 0.3604
C20 C 0.3097(4) 0.2548(4) 0.3334(3)
C21 C 0.3850(4) 0.2972(5) 0.3201(3)
H13 H 0.4159 0.2839 0.2836
C22 C 0.4141(5) 0.3586(5) 0.3607(3)
H14 H 0.4648 0.3867 0.3503
C23 C 0.3005(5) 0.3442(5) 0.4234(4)
H15 H 0.2695 0.3617 0.4589
C24 C 0.2661(5) 0.2832(5) 0.3856(3)
H16 H 0.2125 0.2604 0.3952
N2 N 0.0449(3) 0.0075(3) 0.3162(3)
N5 N 0.3760(4) 0.3803(4) 0.4125(3)
C33 C 0.1636(5) 0.0041(5) 0.0386(4)
H25 H 0.1207 0.0453 0.0421
Cd2 Cd 0.44092(3) 0.44092(3) 0.5000
N15 N 0.0252(3) 0.1868(4) 0.2418(3)
C1 C 0.2551(5) 0.5362(5) 0.5347(4)
H1 H 0.2579 0.5029 0.5713
C2 C 0.1900(5) 0.5936(5) 0.5293(4)
H2 H 0.1500 0.5989 0.5619
C3 C 0.1832(5) 0.6428(5) 0.4770(3)
C4 C 0.2416(5) 0.6281(5) 0.4307(3)
H3 H 0.2384 0.6578 0.3924
C5 C 0.3051(4) 0.5695(5) 0.4404(3)
H4 H 0.3450 0.5609 0.4081
C6 C 0.1177(5) 0.7086(4) 0.4710(3)
C7 C 0.0440(5) 0.7076(5) 0.5081(4)
H5 H 0.0356 0.6638 0.5374
C10 C 0.0692(4) 0.8399(4) 0.4254(3)
C11 C 0.1282(4) 0.7760(4) 0.4301(3)
H8 H 0.1771 0.7781 0.4048
C12 C 0.0767(4) 0.9087(4) 0.3817(3)
H9 H 0.2026 0.9934 0.2074
N1 N 0.0130(3) 0.9459(4) 0.3552(2)
N3 N 0.1498(3) 0.9447(4) 0.3601(2)
N4 N 0.2308(4) 0.9257(5) 0.3811(3)
H17 H 0.2622 0.9078 0.3483
H18 H 0.2547 0.9725 0.3978
N6 N 0.3132(4) 0.5252(3) 0.4918(3)
C27 C 0.3572(5) 0.8168(5) 0.0230(3)
C28 C 0.3719(5) 0.7584(5) 0.0693(3)
H21 H 0.3422 0.7616 0.1076
C29 C 0.4305(5) 0.6949(4) 0.0596(3)
H22 H 0.4391 0.6550 0.0919
C30 C 0.2914(4) 0.8823(5) 0.0290(3)
C34 C 0.1601(4) 0.9308(4) 0.0746(3)
C35 C 0.2240(4) 0.8718(4) 0.0699(3)
H26 H 0.2219 0.8229 0.0952
C36 C 0.0913(4) 0.9233(4) 0.1183(3)
H27 H 0.0066 0.7974 0.2926
Cd5 Cd 0.55908(3) 0.55908(3) 0.0000
N7 N 0.0541(4) 0.9870(3) 0.1448(2)
N9 N 0.0553(4) 0.8502(3) 0.1399(2)
N10 N 0.0743(5) 0.7692(4) 0.1189(3)
H35 H 0.0922 0.7378 0.1517
H36 H 0.0275 0.7453 0.1022
N14 N 0.4748(3) 0.6868(4) 0.0082(3)
C25 C 0.4638(5) 0.7449(5) 0.9653(4)
H19 H 0.4971 0.7421 0.9287
C26 C 0.4064(5) 0.8100(5) 0.9707(4)
H20 H 0.4011 0.8500 0.9381
C31 C 0.2924(5) 0.9560(5) 0.9919(4)
H23 H 0.3362 0.9644 0.9626
Cd5_2 Cd 0.55908(3) 0.55908(3) 1.0000
Cd1 Cd 0.94092(3) 0.05908(3) 0.2500
N12 N 0.8803(4) 0.1240(4) 0.1625(3)
N13 N 0.8760(4) 0.1197(4) 0.3375(3)
C8 C 0.9839(5) 0.7708(5) 0.5017(5)
H6 H 0.9338 0.7683 0.5256
C9 C 0.9959(5) 0.8364(5) 0.4614(4)
H7 H 0.9547 0.8793 0.4579
C37 C 0.9949(4) 0.8722(4) 0.1806(3)
C38 C 0.9409(5) 0.8101(4) 0.2114(3)
C39 C 0.9585(5) 0.7789(5) 0.2702(3)
C40 C 0.9026(5) 0.7184(5) 0.2962(4)
H28 H 0.9123 0.6986 0.3372
C41 C 0.8355(5) 0.6883(5) 0.2636(3)
H29 H 0.8009 0.6458 0.2810
C42 C 0.8179(5) 0.7207(4) 0.2039(3)
C43 C 0.8708(5) 0.7819(4) 0.1793(3)
H30 H 0.8586 0.8049 0.1396
C44 C 0.7452(4) 0.6903(4) 0.1666(3)
C45 C 0.7028(5) 0.6150(4) 0.1799(3)
H31 H 0.7161 0.5841 0.2164
C46 C 0.6414(5) 0.5859(5) 0.1393(3)
H32 H 0.6133 0.5352 0.1497
C47 C 0.6558(5) 0.6995(5) 0.0766(4)
H33 H 0.6383 0.7305 0.0411
C48 C 0.7168(5) 0.7339(5) 0.1144(3)
H34 H 0.7396 0.7875 0.1048
N8 N 0.9925(3) 0.9551(3) 0.1838(3)
N11 N 0.6197(4) 0.6240(4) 0.0875(3)
N16 N 0.8132(4) 0.9748(3) 0.2582(3)
C9_2 C 0.0041(5) 0.1636(5) 0.9614(4)
H7_2 H 0.0453 0.1207 0.9579
C37_2 C 0.0051(4) 0.1278(4) 0.6806(3)
C38_2 C 0.0591(5) 0.1899(4) 0.7114(3)
C39_2 C 0.0415(5) 0.2211(5) 0.7702(3)
C40_2 C 0.0974(5) 0.2816(5) 0.7962(4)
H28_2 H 0.0877 0.3014 0.8372
C41_2 C 0.1645(5) 0.3117(5) 0.7636(3)
H29_2 H 0.1991 0.3542 0.7810
C42_2 C 0.1821(5) 0.2793(4) 0.7039(3)
C43_2 C 0.1292(5) 0.2181(4) 0.6793(3)
H30_2 H 0.1414 0.1951 0.6396
C44_2 C 0.2548(4) 0.3097(4) 0.6666(3)
C45_2 C 0.2972(5) 0.3850(4) 0.6799(3)
H31_2 H 0.2839 0.4159 0.7164
C46_2 C 0.3586(5) 0.4141(5) 0.6393(3)
H32_2 H 0.3867 0.4648 0.6497
C47_2 C 0.3442(5) 0.3005(5) 0.5766(4)
H33_2 H 0.3617 0.2695 0.5411
C48_2 C 0.2832(5) 0.2661(5) 0.6144(3)
H34_2 H 0.2604 0.2125 0.6048
N8_2 N 0.0075(3) 0.0449(3) 0.6838(3)
N11_2 N 0.3803(4) 0.3760(4) 0.5875(3)
N16_2 N 0.1868(4) 0.0252(3) 0.7582(3)
Cd1_2 Cd 0.05908(3) 0.94092(3) 0.7500
N12_2 N 0.1197(4) 0.8760(4) 0.6625(3)
N13_2 N 0.1240(4) 0.8803(4) 0.8375(3)
C1_2 C 0.7449(5) 0.4638(5) 0.0347(4)
H1_2 H 0.7421 0.4971 0.0713
C2_2 C 0.8100(5) 0.4064(5) 0.0293(4)
H2_2 H 0.8500 0.4011 0.0619
C7_2 C 0.9560(5) 0.2924(5) 0.0081(4)
H5_2 H 0.9644 0.3362 0.0374
C3_2 C 0.8168(5) 0.3572(5) 0.9770(3)
C4_2 C 0.7584(5) 0.3719(5) 0.9307(3)
H3_2 H 0.7616 0.3422 0.8924
C5_2 C 0.6949(4) 0.4305(5) 0.9404(3)
H4_2 H 0.6550 0.4391 0.9081
C6_2 C 0.8823(5) 0.2914(4) 0.9710(3)
C10_2 C 0.9308(4) 0.1601(4) 0.9254(3)
C11_2 C 0.8718(4) 0.2240(4) 0.9301(3)
H8_2 H 0.8229 0.2219 0.9048
C12_2 C 0.9233(4) 0.0913(4) 0.8817(3)
H9_2 H 0.7974 0.0066 0.7074
N1_2 N 0.9870(3) 0.0541(4) 0.8552(2)
N3_2 N 0.8502(3) 0.0553(4) 0.8601(2)
N4_2 N 0.7692(4) 0.0743(5) 0.8811(3)
H17_2 H 0.7378 0.0922 0.8483
H18_2 H 0.7453 0.0275 0.8978
N6_2 N 0.6868(4) 0.4748(3) 0.9918(3)
C25_2 C 0.5362(5) 0.2551(5) 0.4653(4)
H19_2 H 0.5029 0.2579 0.4287
C26_2 C 0.5936(5) 0.1900(5) 0.4707(4)
H20_2 H 0.5989 0.1500 0.4381
C27_2 C 0.6428(5) 0.1832(5) 0.5230(3)
C28_2 C 0.6281(5) 0.2416(5) 0.5693(3)
H21_2 H 0.6578 0.2384 0.6076
C29_2 C 0.5695(5) 0.3051(4) 0.5596(3)
H22_2 H 0.5609 0.3450 0.5919
C30_2 C 0.7086(4) 0.1177(5) 0.5290(3)
C31_2 C 0.7076(5) 0.0440(5) 0.4919(4)
H23_2 H 0.6638 0.0356 0.4626
C34_2 C 0.8399(4) 0.0692(4) 0.5746(3)
C35_2 C 0.7760(4) 0.1282(4) 0.5699(3)
H26_2 H 0.7781 0.1771 0.5952
C36_2 C 0.9087(4) 0.0767(4) 0.6183(3)
H27_2 H 0.9934 0.2026 0.7926
N7_2 N 0.9459(4) 0.0130(3) 0.6448(2)
N9_2 N 0.9447(4) 0.1498(3) 0.6399(2)
N10_2 N 0.9257(5) 0.2308(4) 0.6189(3)
H35_2 H 0.9078 0.2622 0.6517
H36_2 H 0.9725 0.2547 0.6022
N14_2 N 0.5252(3) 0.3132(4) 0.5082(3)
C13_2 C 0.8722(4) 0.9949(4) 0.8194(3)
C14_2 C 0.8101(4) 0.9409(5) 0.7886(3)
C15_2 C 0.7789(5) 0.9585(5) 0.7298(3)
C16_2 C 0.7184(5) 0.9026(5) 0.7038(4)
H10_2 H 0.6986 0.9123 0.6628
C17_2 C 0.6883(5) 0.8355(5) 0.7364(3)
H11_2 H 0.6458 0.8009 0.7190
C18_2 C 0.7207(4) 0.8179(5) 0.7961(3)
C19_2 C 0.7819(4) 0.8708(5) 0.8207(3)
H12_2 H 0.8049 0.8586 0.8604
C20_2 C 0.6903(4) 0.7452(4) 0.8334(3)
C21_2 C 0.6150(4) 0.7028(5) 0.8201(3)
H13_2 H 0.5841 0.7161 0.7836
C22_2 C 0.5859(5) 0.6414(5) 0.8607(3)
H14_2 H 0.5352 0.6133 0.8503
C23_2 C 0.6995(5) 0.6558(5) 0.9234(4)
H15_2 H 0.7305 0.6383 0.9589
C24_2 C 0.7339(5) 0.7168(5) 0.8856(3)
H16_2 H 0.7875 0.7396 0.8952
N2_2 N 0.9551(3) 0.9925(3) 0.8162(3)
N5_2 N 0.6240(4) 0.6197(4) 0.9125(3)
C32 C 0.7708(5) 0.9839(5) 0.4983(5)
H24 H 0.7683 0.9338 0.4744
C33_2 C 0.8364(5) 0.9959(5) 0.5386(4)
H25_2 H 0.8793 0.9547 0.5421
N15_2 N 0.9748(3) 0.8132(4) 0.7418(3)
C1_3 C 0.9638(5) 0.7551(5) 0.7847(4)
H1_3 H 0.9971 0.7579 0.8213
C2_3 C 0.9064(5) 0.6900(5) 0.7793(4)
H2_3 H 0.9011 0.6500 0.8119
C3_3 C 0.8572(5) 0.6832(5) 0.7270(3)
C4_3 C 0.8719(5) 0.7416(5) 0.6807(3)
H3_3 H 0.8422 0.7384 0.6424
C5_3 C 0.9305(5) 0.8051(4) 0.6904(3)
H4_3 H 0.9391 0.8450 0.6581
C6_3 C 0.7914(4) 0.6177(5) 0.7210(3)
C7_3 C 0.7924(5) 0.5440(5) 0.7581(4)
H5_3 H 0.8362 0.5356 0.7874
C8_2 C 0.7292(5) 0.4839(5) 0.7517(5)
H6_2 H 0.7317 0.4338 0.7756
C9_3 C 0.6636(5) 0.4959(5) 0.7114(4)
H7_3 H 0.6207 0.4547 0.7079
C10_3 C 0.6601(4) 0.5692(4) 0.6754(3)
C11_3 C 0.7240(4) 0.6282(4) 0.6801(3)
H8_3 H 0.7219 0.6771 0.6548
C12_3 C 0.5913(4) 0.5767(4) 0.6317(3)
C13_3 C 0.4949(4) 0.6278(4) 0.5694(3)
C14_3 C 0.4409(5) 0.6899(4) 0.5386(3)
C15_3 C 0.4585(5) 0.7211(5) 0.4798(3)
H9_3 H 0.5066 0.7026 0.4574
C16_3 C 0.4026(5) 0.7816(5) 0.4538(4)
H10_3 H 0.4123 0.8014 0.4128
C17_3 C 0.3355(5) 0.8117(5) 0.4864(3)
H11_3 H 0.3009 0.8542 0.4690
C18_3 C 0.3179(5) 0.7793(4) 0.5461(3)
C19_3 C 0.3708(5) 0.7181(4) 0.5707(3)
H12_3 H 0.3586 0.6951 0.6104
C20_3 C 0.2452(4) 0.8097(4) 0.5834(3)
C21_3 C 0.2028(5) 0.8850(4) 0.5701(3)
H13_3 H 0.2161 0.9159 0.5336
C22_3 C 0.1414(5) 0.9141(5) 0.6107(3)
H14_3 H 0.1133 0.9648 0.6003
C23_3 C 0.1558(5) 0.8005(5) 0.6734(4)
H15_3 H 0.1383 0.7695 0.7089
C24_3 C 0.2168(5) 0.7661(5) 0.6356(3)
H16_3 H 0.2396 0.7125 0.6452
N1_3 N 0.5541(4) 0.5130(3) 0.6052(2)
N2_3 N 0.4925(3) 0.5449(3) 0.5662(3)
N3_3 N 0.5553(4) 0.6498(3) 0.6101(2)
N4_3 N 0.5743(5) 0.7308(4) 0.6311(3)
H17_3 H 0.5922 0.7622 0.5983
H18_3 H 0.5275 0.7547 0.6478
C25_3 C 0.7551(5) 0.9638(5) 0.2153(4)
H19_3 H 0.7579 0.9971 0.1787
C26_3 C 0.6900(5) 0.9064(5) 0.2207(4)
H20_3 H 0.6500 0.9011 0.1881
C27_3 C 0.6832(5) 0.8572(5) 0.2730(3)
C28_3 C 0.7416(5) 0.8719(5) 0.3193(3)
H21_3 H 0.7384 0.8422 0.3576
C29_3 C 0.8051(4) 0.9305(5) 0.3096(3)
H22_3 H 0.8450 0.9391 0.3419
C30_3 C 0.6177(5) 0.7914(4) 0.2790(3)
C31_3 C 0.5440(5) 0.7924(5) 0.2419(4)
H23_3 H 0.5356 0.8362 0.2126
C32_2 C 0.4839(5) 0.7292(5) 0.2483(5)
H24_2 H 0.4338 0.7317 0.2244
C33_3 C 0.4959(5) 0.6636(5) 0.2886(4)
H25_3 H 0.4547 0.6207 0.2921
C34_3 C 0.5692(4) 0.6601(4) 0.3246(3)
C35_3 C 0.6282(4) 0.7240(4) 0.3199(3)
H26_3 H 0.6771 0.7219 0.3452
C36_3 C 0.5767(4) 0.5913(4) 0.3683(3)
C37_3 C 0.6278(4) 0.4949(4) 0.4306(3)
C38_3 C 0.6899(4) 0.4409(5) 0.4614(3)
C39_3 C 0.7211(5) 0.4585(5) 0.5202(3)
H27_3 H 0.7026 0.5066 0.5426
C40_3 C 0.7816(5) 0.4026(5) 0.5462(4)
H28_3 H 0.8014 0.4123 0.5872
C41_3 C 0.8117(5) 0.3355(5) 0.5136(3)
H29_3 H 0.8542 0.3009 0.5310
C42_3 C 0.7793(4) 0.3179(5) 0.4539(3)
C43_3 C 0.7181(4) 0.3708(5) 0.4293(3)
H30_3 H 0.6951 0.3586 0.3896
C44_3 C 0.8097(4) 0.2452(4) 0.4166(3)
C45_3 C 0.8850(4) 0.2028(5) 0.4299(3)
H31_3 H 0.9159 0.2161 0.4664
C46_3 C 0.9141(5) 0.1414(5) 0.3893(3)
H32_3 H 0.9648 0.1133 0.3997
C47_3 C 0.8005(5) 0.1558(5) 0.3266(4)
H33_3 H 0.7695 0.1383 0.2911
C48_3 C 0.7661(5) 0.2168(5) 0.3644(3)
H34_3 H 0.7125 0.2396 0.3548
N7_3 N 0.5130(3) 0.5541(4) 0.3948(2)
N8_3 N 0.5449(3) 0.4925(3) 0.4338(3)
N9_3 N 0.6498(3) 0.5553(4) 0.3899(2)
N10_3 N 0.7308(4) 0.5743(5) 0.3689(3)
H35_3 H 0.7622 0.5922 0.4017
H36_3 H 0.7547 0.5275 0.3522
C1_4 C 0.0362(5) 0.2449(5) 0.2847(4)
H1_4 H 0.0029 0.2421 0.3213
C2_4 C 0.0936(5) 0.3100(5) 0.2793(4)
H2_4 H 0.0989 0.3500 0.3119
C3_4 C 0.1428(5) 0.3168(5) 0.2270(3)
C4_4 C 0.1281(5) 0.2584(5) 0.1807(3)
H3_4 H 0.1578 0.2616 0.1424
C5_4 C 0.0695(5) 0.1949(4) 0.1904(3)
H4_4 H 0.0609 0.1550 0.1581
C6_4 C 0.2086(4) 0.3823(5) 0.2210(3)
C7_4 C 0.2076(5) 0.4560(5) 0.2581(4)
H5_4 H 0.1638 0.4644 0.2874
C8_3 C 0.2708(5) 0.5161(5) 0.2517(5)
H6_3 H 0.2683 0.5662 0.2756
C9_4 C 0.3364(5) 0.5041(5) 0.2114(4)
H7_4 H 0.3793 0.5453 0.2079
C10_4 C 0.3399(4) 0.4308(4) 0.1754(3)
C11_4 C 0.2760(4) 0.3718(4) 0.1801(3)
H8_4 H 0.2781 0.3229 0.1548
C12_4 C 0.4087(4) 0.4233(4) 0.1317(3)
C13_4 C 0.5051(4) 0.3722(4) 0.0694(3)
C14_4 C 0.5591(5) 0.3101(4) 0.0386(3)
C18_4 C 0.6821(5) 0.2207(4) 0.0461(3)
C19_4 C 0.6292(5) 0.2819(4) 0.0707(3)
H12_4 H 0.6414 0.3049 0.1104
C20_4 C 0.7548(4) 0.1903(4) 0.0834(3)
C21_4 C 0.7972(5) 0.1150(4) 0.0701(3)
H13_4 H 0.7839 0.0841 0.0336
C22_4 C 0.8586(5) 0.0859(5) 0.1107(3)
H14_4 H 0.8867 0.0352 0.1003
C23_4 C 0.8442(5) 0.1995(5) 0.1734(4)
H15_4 H 0.8617 0.2305 0.2089
C24_4 C 0.7832(5) 0.2339(5) 0.1356(3)
H16_4 H 0.7604 0.2875 0.1452
N1_4 N 0.4459(4) 0.4870(3) 0.1052(2)
N2_4 N 0.5075(3) 0.4551(3) 0.0662(3)
N3_4 N 0.4447(4) 0.3502(3) 0.1101(2)
N4_4 N 0.4257(5) 0.2692(4) 0.1311(3)
H17_4 H 0.4078 0.2378 0.0983
H18_4 H 0.4725 0.2453 0.1478
C39_4 C 0.2789(5) 0.5415(5) 0.0202(3)
H27_4 H 0.2974 0.4934 0.0426
C40_4 C 0.2184(5) 0.5974(5) 0.0462(4)
H28_4 H 0.1986 0.5877 0.0872
C41_4 C 0.1883(5) 0.6645(5) 0.0136(3)
H29_4 H 0.1458 0.6991 0.0310
C15_4 C 0.5415(5) 0.2789(5) 0.9798(3)
H9_4 H 0.4934 0.2974 0.9574
C16_4 C 0.5974(5) 0.2184(5) 0.9538(4)
H10_4 H 0.5877 0.1986 0.9128
C17_4 C 0.6645(5) 0.1883(5) 0.9864(3)
H11_4 H 0.6991 0.1458 0.9690
C25_4 C 0.2449(5) 0.0362(5) 0.7153(4)
H19_4 H 0.2421 0.0029 0.6787
C26_4 C 0.3100(5) 0.0936(5) 0.7207(4)
H20_4 H 0.3500 0.0989 0.6881
C27_4 C 0.3168(5) 0.1428(5) 0.7730(3)
C28_4 C 0.2584(5) 0.1281(5) 0.8193(3)
H21_4 H 0.2616 0.1578 0.8576
C29_4 C 0.1949(4) 0.0695(5) 0.8096(3)
H22_4 H 0.1550 0.0609 0.8419
C30_4 C 0.3823(5) 0.2086(4) 0.7790(3)
C31_4 C 0.4560(5) 0.2076(5) 0.7419(4)
H23_4 H 0.4644 0.1638 0.7126
C32_3 C 0.5161(5) 0.2708(5) 0.7483(5)
H24_3 H 0.5662 0.2683 0.7244
C33_4 C 0.5041(5) 0.3364(5) 0.7886(4)
H25_4 H 0.5453 0.3793 0.7921
C34_4 C 0.4308(4) 0.3399(4) 0.8246(3)
C35_4 C 0.3718(4) 0.2760(4) 0.8199(3)
H26_4 H 0.3229 0.2781 0.8452
C36_4 C 0.4233(4) 0.4087(4) 0.8683(3)
C37_4 C 0.3722(4) 0.5051(4) 0.9306(3)
C38_4 C 0.3101(4) 0.5591(5) 0.9614(3)
C42_4 C 0.2207(4) 0.6821(5) 0.9539(3)
C43_4 C 0.2819(4) 0.6292(5) 0.9293(3)
H30_4 H 0.3049 0.6414 0.8896
C44_4 C 0.1903(4) 0.7548(4) 0.9166(3)
C45_4 C 0.1150(4) 0.7972(5) 0.9299(3)
H31_4 H 0.0841 0.7839 0.9664
C46_4 C 0.0859(5) 0.8586(5) 0.8893(3)
H32_4 H 0.0352 0.8867 0.8997
C47_4 C 0.1995(5) 0.8442(5) 0.8266(4)
H33_4 H 0.2305 0.8617 0.7911
C48_4 C 0.2339(5) 0.7832(5) 0.8644(3)
H34_4 H 0.2875 0.7604 0.8548
N7_4 N 0.4870(3) 0.4459(4) 0.8948(2)
N8_4 N 0.4551(3) 0.5075(3) 0.9338(3)
N9_4 N 0.3502(3) 0.4447(4) 0.8899(2)
N10_4 N 0.2692(4) 0.4257(5) 0.8689(3)
H35_4 H 0.2378 0.4078 0.9017
H36_4 H 0.2453 0.4725 0.8522
C32_4 C 0.2292(5) 0.0161(5) 0.9983(5)
H24_4 H 0.2317 0.0662 0.9744
C8_4 C 0.0161(5) 0.2292(5) 0.0017(5)
H6_4 H 0.0662 0.2317 0.0256
Cl1 Cl 0.26780(15) 0.26780(15) 0.0000
O1 O 0.2213(15) 0.3450(11) 0.0199(9)
O4 O 0.2451(7) 0.2244(6) 0.0525(3)
Cl1_2 Cl 0.26780(15) 0.26780(15) 1.0000
O2 O 0.2244(6) 0.2451(7) 0.9475(3)
O3 O 0.3450(11) 0.2213(15) 0.9801(9)
Cl1_3 Cl 0.73220(15) 0.73220(15) 0.5000
O1_2 O 0.7787(15) 0.6550(11) 0.5199(9)
O2_2 O 0.7756(6) 0.7549(7) 0.4475(3)
O3_2 O 0.6550(11) 0.7787(15) 0.4801(9)
O4_2 O 0.7549(7) 0.7756(6) 0.5525(3)
Cl1_4 Cl 0.23220(15) 0.76780(15) 0.2500
O1_3 O 0.1550(11) 0.7213(15) 0.2699(9)
O2_3 O 0.2549(7) 0.7244(6) 0.1975(3)
O3_3 O 0.2787(15) 0.8450(11) 0.2301(9)
O4_3 O 0.2756(6) 0.7451(7) 0.3025(3)
Cl1_5 Cl 0.76780(15) 0.23220(15) 0.7500
O1_4 O 0.8450(11) 0.2787(15) 0.7699(9)
O2_4 O 0.7451(7) 0.2756(6) 0.6975(3)
O3_4 O 0.7213(15) 0.1550(11) 0.7301(9)
O4_4 O 0.7244(6) 0.2549(7) 0.8025(3)
Cl2 Cl 0.87736(16) 0.87736(16) 0.0000
O7 O 0.8206(10) 0.9022(9) 0.0511(7)
O8 O 0.9542(9) 0.8929(15) 0.0264(8)
Cl2_2 Cl 0.87736(16) 0.87736(16) 1.0000
O5 O 0.9022(9) 0.8206(10) 0.9489(7)
O6 O 0.8929(15) 0.9542(9) 0.9736(8)
Cl2_3 Cl 0.12264(16) 0.12264(16) 0.5000
O5_2 O 0.0978(9) 0.1794(10) 0.4489(7)
O6_2 O 0.1071(15) 0.0458(9) 0.4736(8)
O7_2 O 0.1794(10) 0.0978(9) 0.5511(7)
O8_2 O 0.0458(9) 0.1071(15) 0.5264(8)
Cl2_4 Cl 0.62264(16) 0.37736(16) 0.2500
O5_3 O 0.6794(10) 0.4022(9) 0.1989(7)
O6_3 O 0.5458(9) 0.3929(15) 0.2236(8)
O7_3 O 0.5978(9) 0.3206(10) 0.3011(7)
O8_3 O 0.6071(15) 0.4542(9) 0.2764(8)
Cl2_5 Cl 0.37736(16) 0.62264(16) 0.7500
O5_4 O 0.3206(10) 0.5978(9) 0.6989(7)
O6_4 O 0.4542(9) 0.6071(15) 0.7236(8)
O7_4 O 0.4022(9) 0.6794(10) 0.8011(7)
O8_4 O 0.3929(15) 0.5458(9) 0.7764(8)
loop_
_geom_bond_atom_site_label_1
_geom_bond_atom_site_label_2
_geom_bond_site_symmetry_1
_geom_bond_site_symmetry_2
C13 C14 1_555 1_555
C14 C15 1_555 1_555
C16 C15 1_555 1_555
H10 C16 1_555 1_555
C17 C16 1_555 1_555
H11 C17 1_555 1_555
C18 C17 1_555 1_555
C19 C14 1_555 1_555
H12 C19 1_555 1_555
C20 C18 1_555 1_555
C21 C20 1_555 1_555
H13 C21 1_555 1_555
C22 C21 1_555 1_555
H14 C22 1_555 1_555
C23 H15 1_555 1_555
C24 C20 1_555 1_555
H16 C24 1_555 1_555
N2 C13 1_555 1_555
N5 C22 1_555 1_555
H25 C33 1_555 1_555
Cd2 N5 1_555 1_555
C18 C19 1_555 1_555
C23 C24 1_555 1_555
C23 N5 1_555 1_555
C1 H1 1_555 1_555
C2 C1 1_555 1_555
H2 C2 1_555 1_555
C3 C2 1_555 1_555
C4 C3 1_555 1_555
H3 C4 1_555 1_555
C5 C4 1_555 1_555
H4 C5 1_555 1_555
C6 C3 1_555 1_555
C7 C6 1_555 1_555
H5 C7 1_555 1_555
C11 C6 1_555 1_555
H8 C11 1_555 1_555
C12 C10 1_555 1_555
N1 C12 1_555 1_555
N3 C12 1_555 1_555
N4 N3 1_555 1_555
H17 N4 1_555 1_555
H18 N4 1_555 1_555
N6 C1 1_555 1_555
C28 C27 1_555 1_555
H21 C28 1_555 1_555
C29 C28 1_555 1_555
H22 C29 1_555 1_555
C30 C27 1_555 1_555
C35 C30 1_555 1_555
H26 C35 1_555 1_555
C36 C34 1_555 1_555
Cd2 N6 1_555 1_555
Cd5 N14 1_555 1_555
N7 C36 1_555 1_555
N9 C36 1_555 1_555
N10 N9 1_555 1_555
H35 N10 1_555 1_555
H36 N10 1_555 1_555
C5 N6 1_555 1_555
C10 C11 1_555 1_555
C29 N14 1_555 1_555
C34 C35 1_555 1_555
C25 H19 1_555 1_555
C26 C25 1_555 1_555
H20 C26 1_555 1_555
H23 C31 1_555 1_555
N12 Cd1 1_555 1_555
N13 Cd1 1_555 1_555
H6 C8 1_555 1_555
C9 C8 1_555 1_555
H7 C9 1_555 1_555
C37 C38 1_555 1_555
C38 C39 1_555 1_555
C40 C39 1_555 1_555
H28 C40 1_555 1_555
C41 C40 1_555 1_555
H29 C41 1_555 1_555
C42 C41 1_555 1_555
C43 C38 1_555 1_555
H30 C43 1_555 1_555
C44 C42 1_555 1_555
C45 C44 1_555 1_555
H31 C45 1_555 1_555
C46 C45 1_555 1_555
H32 C46 1_555 1_555
C47 H33 1_555 1_555
C48 C44 1_555 1_555
H34 C48 1_555 1_555
Cd5 N11 1_555 1_555
N11 C46 1_555 1_555
C37 N8 1_555 1_555
C42 C43 1_555 1_555
C47 C48 1_555 1_555
C47 N11 1_555 1_555
H7_2 C9_2 1_555 1_555
C37_2 C38_2 1_555 1_555
C38_2 C39_2 1_555 1_555
C40_2 C39_2 1_555 1_555
H28_2 C40_2 1_555 1_555
C41_2 C40_2 1_555 1_555
H29_2 C41_2 1_555 1_555
C42_2 C41_2 1_555 1_555
C43_2 C38_2 1_555 1_555
H30_2 C43_2 1_555 1_555
C44_2 C42_2 1_555 1_555
C45_2 C44_2 1_555 1_555
H31_2 C45_2 1_555 1_555
C46_2 C45_2 1_555 1_555
H32_2 C46_2 1_555 1_555
C47_2 H33_2 1_555 1_555
C48_2 C44_2 1_555 1_555
H34_2 C48_2 1_555 1_555
Cd2 N11_2 1_555 1_555
N11_2 C46_2 1_555 1_555
C37_2 N8_2 1_555 1_555
C42_2 C43_2 1_555 1_555
C47_2 C48_2 1_555 1_555
C47_2 N11_2 1_555 1_555
N12_2 Cd1_2 1_555 1_555
N13_2 Cd1_2 1_555 1_555
C1_2 H1_2 1_555 1_555
C2_2 C1_2 1_555 1_555
H2_2 C2_2 1_555 1_555
H5_2 C7_2 1_555 1_555
C4_2 C3_2 1_555 1_555
H3_2 C4_2 1_555 1_555
C5_2 C4_2 1_555 1_555
H4_2 C5_2 1_555 1_555
C6_2 C3_2 1_555 1_555
C11_2 C6_2 1_555 1_555
H8_2 C11_2 1_555 1_555
C12_2 C10_2 1_555 1_555
N1_2 C12_2 1_555 1_555
N3_2 C12_2 1_555 1_555
N4_2 N3_2 1_555 1_555
H17_2 N4_2 1_555 1_555
H18_2 N4_2 1_555 1_555
C25_2 H19_2 1_555 1_555
C26_2 C25_2 1_555 1_555
H20_2 C26_2 1_555 1_555
C27_2 C26_2 1_555 1_555
C28_2 C27_2 1_555 1_555
H21_2 C28_2 1_555 1_555
C29_2 C28_2 1_555 1_555
H22_2 C29_2 1_555 1_555
C30_2 C27_2 1_555 1_555
C31_2 C30_2 1_555 1_555
H23_2 C31_2 1_555 1_555
C35_2 C30_2 1_555 1_555
H26_2 C35_2 1_555 1_555
C36_2 C34_2 1_555 1_555
Cd5_2 N6_2 1_555 1_555
Cd2 N14_2 1_555 1_555
N7_2 C36_2 1_555 1_555
N9_2 C36_2 1_555 1_555
N10_2 N9_2 1_555 1_555
H35_2 N10_2 1_555 1_555
H36_2 N10_2 1_555 1_555
N14_2 C25_2 1_555 1_555
C5_2 N6_2 1_555 1_555
C10_2 C11_2 1_555 1_555
C29_2 N14_2 1_555 1_555
C34_2 C35_2 1_555 1_555
C13_2 C14_2 1_555 1_555
C14_2 C15_2 1_555 1_555
C16_2 C15_2 1_555 1_555
H10_2 C16_2 1_555 1_555
C17_2 C16_2 1_555 1_555
H11_2 C17_2 1_555 1_555
C18_2 C17_2 1_555 1_555
C19_2 C14_2 1_555 1_555
H12_2 C19_2 1_555 1_555
C20_2 C18_2 1_555 1_555
C21_2 C20_2 1_555 1_555
H13_2 C21_2 1_555 1_555
C22_2 C21_2 1_555 1_555
H14_2 C22_2 1_555 1_555
C23_2 H15_2 1_555 1_555
C24_2 C20_2 1_555 1_555
H16_2 C24_2 1_555 1_555
N2_2 C13_2 1_555 1_555
N5_2 C22_2 1_555 1_555
H24 C32 1_555 1_555
C33_2 C32 1_555 1_555
H25_2 C33_2 1_555 1_555
Cd5_2 N5_2 1_555 1_555
C18_2 C19_2 1_555 1_555
C23_2 C24_2 1_555 1_555
C23_2 N5_2 1_555 1_555
C1_3 H1_3 1_555 1_555
C2_3 C1_3 1_555 1_555
H2_3 C2_3 1_555 1_555
C3_3 C2_3 1_555 1_555
C4_3 C3_3 1_555 1_555
H3_3 C4_3 1_555 1_555
C5_3 C4_3 1_555 1_555
H4_3 C5_3 1_555 1_555
C6_3 C3_3 1_555 1_555
C7_3 C6_3 1_555 1_555
H5_3 C7_3 1_555 1_555
C8_2 C7_3 1_555 1_555
H6_2 C8_2 1_555 1_555
C9_3 C8_2 1_555 1_555
H7_3 C9_3 1_555 1_555
C10_3 C9_3 1_555 1_555
C11_3 C6_3 1_555 1_555
H8_3 C11_3 1_555 1_555
C12_3 C10_3 1_555 1_555
C13_3 C14_3 1_555 1_555
C14_3 C15_3 1_555 1_555
C15_3 H9_3 1_555 1_555
C16_3 C15_3 1_555 1_555
H10_3 C16_3 1_555 1_555
C17_3 C16_3 1_555 1_555
H11_3 C17_3 1_555 1_555
C18_3 C17_3 1_555 1_555
C19_3 C14_3 1_555 1_555
H12_3 C19_3 1_555 1_555
C20_3 C18_3 1_555 1_555
C21_3 C20_3 1_555 1_555
H13_3 C21_3 1_555 1_555
C22_3 C21_3 1_555 1_555
H14_3 C22_3 1_555 1_555
C23_3 H15_3 1_555 1_555
C24_3 C20_3 1_555 1_555
H16_3 C24_3 1_555 1_555
Cd2 N2_3 1_555 1_555
N1_3 C12_3 1_555 1_555
N2_3 C13_3 1_555 1_555
N3_3 C12_3 1_555 1_555
N4_3 N3_3 1_555 1_555
H17_3 N4_3 1_555 1_555
H18_3 N4_3 1_555 1_555
N12_2 C22_3 1_555 1_555
N15_2 C1_3 1_555 1_555
C25_3 H19_3 1_555 1_555
C26_3 C25_3 1_555 1_555
H20_3 C26_3 1_555 1_555
C27_3 C26_3 1_555 1_555
C28_3 C27_3 1_555 1_555
H21_3 C28_3 1_555 1_555
C29_3 C28_3 1_555 1_555
H22_3 C29_3 1_555 1_555
C30_3 C27_3 1_555 1_555
C31_3 C30_3 1_555 1_555
H23_3 C31_3 1_555 1_555
C32_2 C31_3 1_555 1_555
H24_2 C32_2 1_555 1_555
C33_3 C32_2 1_555 1_555
H25_3 C33_3 1_555 1_555
C34_3 C33_3 1_555 1_555
C35_3 C30_3 1_555 1_555
H26_3 C35_3 1_555 1_555
C36_3 C34_3 1_555 1_555
C37_3 C38_3 1_555 1_555
C38_3 C39_3 1_555 1_555
C39_3 H27_3 1_555 1_555
C40_3 C39_3 1_555 1_555
H28_3 C40_3 1_555 1_555
C41_3 C40_3 1_555 1_555
H29_3 C41_3 1_555 1_555
C42_3 C41_3 1_555 1_555
C43_3 C38_3 1_555 1_555
H30_3 C43_3 1_555 1_555
C44_3 C42_3 1_555 1_555
C45_3 C44_3 1_555 1_555
H31_3 C45_3 1_555 1_555
C46_3 C45_3 1_555 1_555
H32_3 C46_3 1_555 1_555
C47_3 H33_3 1_555 1_555
C48_3 C44_3 1_555 1_555
H34_3 C48_3 1_555 1_555
N7_3 C36_3 1_555 1_555
N8_3 Cd2 1_555 1_555
N9_3 C36_3 1_555 1_555
N10_3 N9_3 1_555 1_555
H35_3 N10_3 1_555 1_555
H36_3 N10_3 1_555 1_555
N13 C46_3 1_555 1_555
N16 C25_3 1_555 1_555
C5_3 N15_2 1_555 1_555
C10_3 C11_3 1_555 1_555
C13_3 N3_3 1_555 1_555
C18_3 C19_3 1_555 1_555
C23_3 C24_3 1_555 1_555
C23_3 N12_2 1_555 1_555
N1_3 N2_3 1_555 1_555
C29_3 N16 1_555 1_555
C34_3 C35_3 1_555 1_555
C37_3 N8_3 1_555 1_555
C37_3 N9_3 1_555 1_555
C42_3 C43_3 1_555 1_555
C47_3 C48_3 1_555 1_555
C47_3 N13 1_555 1_555
N7_3 N8_3 1_555 1_555
C1_4 H1_4 1_555 1_555
C2_4 C1_4 1_555 1_555
H2_4 C2_4 1_555 1_555
C3_4 C2_4 1_555 1_555
C4_4 C3_4 1_555 1_555
H3_4 C4_4 1_555 1_555
C5_4 C4_4 1_555 1_555
H4_4 C5_4 1_555 1_555
C6_4 C3_4 1_555 1_555
C7_4 C6_4 1_555 1_555
H5_4 C7_4 1_555 1_555
C8_3 C7_4 1_555 1_555
H6_3 C8_3 1_555 1_555
C9_4 C8_3 1_555 1_555
H7_4 C9_4 1_555 1_555
C10_4 C9_4 1_555 1_555
C11_4 C6_4 1_555 1_555
H8_4 C11_4 1_555 1_555
C12_4 C10_4 1_555 1_555
C13_4 C14_4 1_555 1_555
C19_4 C14_4 1_555 1_555
H12_4 C19_4 1_555 1_555
C20_4 C18_4 1_555 1_555
C21_4 C20_4 1_555 1_555
H13_4 C21_4 1_555 1_555
C22_4 C21_4 1_555 1_555
H14_4 C22_4 1_555 1_555
C23_4 H15_4 1_555 1_555
C24_4 C20_4 1_555 1_555
H16_4 C24_4 1_555 1_555
Cd5 N2_4 1_555 1_555
N1_4 C12_4 1_555 1_555
N2_4 C13_4 1_555 1_555
N3_4 C12_4 1_555 1_555
N4_4 N3_4 1_555 1_555
H17_4 N4_4 1_555 1_555
H18_4 N4_4 1_555 1_555
N12 C22_4 1_555 1_555
N15 C1_4 1_555 1_555
C39_4 H27_4 1_555 1_555
C40_4 C39_4 1_555 1_555
H28_4 C40_4 1_555 1_555
C41_4 C40_4 1_555 1_555
H29_4 C41_4 1_555 1_555
C5_4 N15 1_555 1_555
C10_4 C11_4 1_555 1_555
C13_4 N3_4 1_555 1_555
C18_4 C19_4 1_555 1_555
C23_4 C24_4 1_555 1_555
C23_4 N12 1_555 1_555
N1_4 N2_4 1_555 1_555
C15_4 H9_4 1_555 1_555
C16_4 C15_4 1_555 1_555
H10_4 C16_4 1_555 1_555
C17_4 C16_4 1_555 1_555
H11_4 C17_4 1_555 1_555
C25_4 H19_4 1_555 1_555
C26_4 C25_4 1_555 1_555
H20_4 C26_4 1_555 1_555
C27_4 C26_4 1_555 1_555
C28_4 C27_4 1_555 1_555
H21_4 C28_4 1_555 1_555
C29_4 C28_4 1_555 1_555
H22_4 C29_4 1_555 1_555
C30_4 C27_4 1_555 1_555
C31_4 C30_4 1_555 1_555
H23_4 C31_4 1_555 1_555
C32_3 C31_4 1_555 1_555
H24_3 C32_3 1_555 1_555
C33_4 C32_3 1_555 1_555
H25_4 C33_4 1_555 1_555
C34_4 C33_4 1_555 1_555
C35_4 C30_4 1_555 1_555
H26_4 C35_4 1_555 1_555
C36_4 C34_4 1_555 1_555
C37_4 C38_4 1_555 1_555
C43_4 C38_4 1_555 1_555
H30_4 C43_4 1_555 1_555
C44_4 C42_4 1_555 1_555
C45_4 C44_4 1_555 1_555
H31_4 C45_4 1_555 1_555
C46_4 C45_4 1_555 1_555
H32_4 C46_4 1_555 1_555
C47_4 H33_4 1_555 1_555
C48_4 C44_4 1_555 1_555
H34_4 C48_4 1_555 1_555
N7_4 C36_4 1_555 1_555
N8_4 Cd5_2 1_555 1_555
N9_4 C36_4 1_555 1_555
N10_4 N9_4 1_555 1_555
H35_4 N10_4 1_555 1_555
H36_4 N10_4 1_555 1_555
N13_2 C46_4 1_555 1_555
N16_2 C25_4 1_555 1_555
C29_4 N16_2 1_555 1_555
C34_4 C35_4 1_555 1_555
C37_4 N8_4 1_555 1_555
C37_4 N9_4 1_555 1_555
C42_4 C43_4 1_555 1_555
C47_4 C48_4 1_555 1_555
C47_4 N13_2 1_555 1_555
N7_4 N8_4 1_555 1_555
H24_4 C32_4 1_555 1_555
H6_4 C8_4 1_555 1_555
Cl1 O1 1_555 1_555
O4 Cl1 1_555 1_555
O2 Cl1_2 1_555 1_555
O3 Cl1_2 1_555 1_555
Cl1_3 O1_2 1_555 1_555
O2_2 Cl1_3 1_555 1_555
O3_2 Cl1_3 1_555 1_555
O4_2 Cl1_3 1_555 1_555
Cl1_4 O1_3 1_555 1_555
O2_3 Cl1_4 1_555 1_555
O3_3 Cl1_4 1_555 1_555
O4_3 Cl1_4 1_555 1_555
Cl1_5 O1_4 1_555 1_555
O2_4 Cl1_5 1_555 1_555
O3_4 Cl1_5 1_555 1_555
O4_4 Cl1_5 1_555 1_555
O7 Cl2 1_555 1_555
O8 Cl2 1_555 1_555
Cl2_2 O5 1_555 1_555
O6 Cl2_2 1_555 1_555
Cl2_3 O5_2 1_555 1_555
O6_2 Cl2_3 1_555 1_555
O7_2 Cl2_3 1_555 1_555
O8_2 Cl2_3 1_555 1_555
Cl2_4 O5_3 1_555 1_555
O6_3 Cl2_4 1_555 1_555
O7_3 Cl2_4 1_555 1_555
O8_3 Cl2_4 1_555 1_555
Cl2_5 O5_4 1_555 1_555
O6_4 Cl2_5 1_555 1_555
O7_4 Cl2_5 1_555 1_555
O8_4 Cl2_5 1_555 1_555

#END
