
###############################################################################
#
# This file contains modified crystal structure data generated from the
# MOF subset of the Cambridge Structural Database (CSD) v543 
# hosted by the Cambridge Crystallographic Data Centre (CCDC).
#
# This work is licensed under the Creative Commons
# Attribution-NonCommercial-ShareAlike 4.0 International License.
# To view a copy of this license, visit
# http://creativecommons.org/licenses/by-nc-sa/4.0/
# or send a letter to
# Creative Commons, PO Box 1866, Mountain View, CA 94042, USA.
#
# CIF created using the CSD Python API on 29 September 2022
# The structure has been converted into the P1 space group
# The structure has a 3D framework
# The original CSD entry WUNSII02 is in the tetragonal crystal system
# The original CSD entry WUNSII02 is in a Sohncke space group
# The framework has been calculated to contain at least 10.0% void space
# The void calculation uses a probe of radius 1.32A, grid spacing 0.4
# The framework is charged, counterions have been retained in the structure
#
###############################################################################

data_WUNSII02
_chemical_formula_moiety         '(C192 H144 Cd3 Cl5 N48 O16 2+)n'
_symmetry_cell_setting           triclinic
_symmetry_space_group_name_H-M   'P 1'
_symmetry_Int_Tables_number      1
_space_group_name_Hall           'P 1'
loop_
_symmetry_equiv_pos_site_id
_symmetry_equiv_pos_as_xyz
1 x,y,z
_cell_length_a                   15.8955(14)
_cell_length_b                   15.8955(14)
_cell_length_c                   21.599(4)
_cell_angle_alpha                90
_cell_angle_beta                 90
_cell_angle_gamma                90
_cell_volume                     5457.35
loop_
_atom_site_label
_atom_site_type_symbol
_atom_site_fract_x
_atom_site_fract_y
_atom_site_fract_z
C39 C 0.0041(5) 0.1638(5) 0.0382(4)
H27 H 0.0448 0.1220 0.0415
Cd4 Cd 0.05853(2) 0.94147(2) 0.2500
C7 C 0.6642(5) 0.1897(5) 0.0119(3)
H5 H 0.6981 0.1480 0.0290
C8 C 0.5980(5) 0.2201(5) 0.0447(3)
H6 H 0.5888 0.2009 0.0848
C9 C 0.5430(5) 0.2804(5) 0.0190(3)
H7 H 0.4965 0.2994 0.0411
Cd1 Cd 0.55853(2) 0.55853(2) 0.0000
H25 H 0.7994 0.0035 0.2911
C37 C 0.9238(3) 0.0924(4) 0.1174(2)
C38 C 0.9318(4) 0.1605(4) 0.0743(3)
C42 C 0.8825(4) 0.2920(4) 0.0294(3)
C43 C 0.8718(4) 0.2248(4) 0.0694(3)
H30 H 0.8235 0.2222 0.0936
C44 C 0.8171(4) 0.3581(4) 0.0237(3)
C47 C 0.6948(4) 0.4301(4) 0.0598(3)
H33 H 0.6556 0.4377 0.0913
C48 C 0.7593(4) 0.3723(5) 0.0695(3)
H34 H 0.7630 0.3435 0.1069
N7 N 0.9875(3) 0.0550(3) 0.1452(2)
N9 N 0.4553(3) 0.5064(3) 0.0661(2)
N10 N 0.8515(3) 0.0563(3) 0.1385(2)
N11 N 0.7692(3) 0.0749(4) 0.1173(3)
H35 H 0.7500 0.0316 0.0954
H36 H 0.7357 0.0837 0.1497
N12 N 0.6860(3) 0.4750(3) 0.0084(2)
N15 N 0.6238(4) 0.6206(3) 0.0871(2)
C1 C 0.8595(4) 0.0874(4) 0.8888(3)
H1 H 0.8888 0.0391 0.9000
C2 C 0.7968(4) 0.1163(4) 0.9285(3)
H2 H 0.7833 0.0859 0.9639
C3 C 0.7543(4) 0.1908(4) 0.9151(3)
C4 C 0.7823(4) 0.2332(4) 0.8639(3)
H3 H 0.7598 0.2858 0.8549
C5 C 0.8434(4) 0.1996(4) 0.8252(3)
H4 H 0.8601 0.2297 0.7903
C6 C 0.6820(4) 0.2204(4) 0.9525(3)
C10 C 0.5600(4) 0.3108(3) 0.9597(2)
C11 C 0.6279(4) 0.2817(4) 0.9279(3)
H8 H 0.6388 0.3031 0.8887
C12 C 0.5044(4) 0.3735(4) 0.9298(3)
C13 C 0.4076(4) 0.4238(3) 0.8674(2)
C14 C 0.3395(4) 0.4318(4) 0.8243(3)
C15 C 0.3362(5) 0.5041(5) 0.7882(4)
H9 H 0.3780 0.5448 0.7915
C16 C 0.2705(5) 0.5148(5) 0.7476(4)
H10 H 0.2692 0.5626 0.7227
C17 C 0.2067(5) 0.4573(5) 0.7425(4)
H11 H 0.1626 0.4668 0.7151
C18 C 0.2080(4) 0.3825(4) 0.7794(3)
C19 C 0.2752(4) 0.3718(4) 0.8194(3)
H12 H 0.2778 0.3235 0.8436
C20 C 0.1419(4) 0.3171(4) 0.7737(3)
C21 C 0.0931(4) 0.3098(5) 0.7217(3)
H13 H 0.0976 0.3495 0.6902
C22 C 0.0372(5) 0.2438(5) 0.7158(3)
H14 H 0.0063 0.2399 0.6794
C23 C 0.0699(4) 0.1948(4) 0.8098(3)
H15 H 0.0623 0.1556 0.8413
C24 C 0.1277(5) 0.2593(4) 0.8195(3)
H16 H 0.1565 0.2630 0.8569
Cd1_2 Cd 0.55853(2) 0.55853(2) 1.0000
N1 N 0.4450(3) 0.4875(3) 0.8952(2)
N2 N 0.5064(3) 0.4553(3) 0.9339(2)
N3 N 0.4437(3) 0.3515(3) 0.8885(2)
N4 N 0.4251(4) 0.2692(3) 0.8673(3)
H17 H 0.4684 0.2500 0.8454
H18 H 0.4163 0.2357 0.8997
N5 N 0.0250(3) 0.1860(3) 0.7584(2)
N6 N 0.8794(3) 0.1238(4) 0.8371(2)
C41 C 0.9573(5) 0.2933(5) 0.9925(4)
H29 H 0.9668 0.3374 0.9651
C45 C 0.8098(5) 0.4069(4) 0.9717(3)
H31 H 0.8495 0.4024 0.9402
C46 C 0.7438(5) 0.4628(5) 0.9658(3)
H32 H 0.7399 0.4937 0.9294
Cd3 Cd 0.94147(2) 0.05853(2) 0.7500
N13 N 0.4750(3) 0.6860(3) 0.9916(2)
N16 N 0.6206(3) 0.6238(4) 0.9129(2)
C25 C 0.5874(4) 0.6405(4) 0.1388(3)
H19 H 0.5391 0.6112 0.1500
C26 C 0.6163(4) 0.7032(4) 0.1785(3)
H20 H 0.5859 0.7167 0.2139
C27 C 0.6908(4) 0.7457(4) 0.1651(3)
C28 C 0.7332(4) 0.7177(4) 0.1139(3)
H21 H 0.7858 0.7402 0.1049
C29 C 0.6996(4) 0.6566(4) 0.0752(3)
H22 H 0.7297 0.6399 0.0403
C30 C 0.7204(4) 0.8180(4) 0.2025(3)
C31 C 0.6897(5) 0.8358(5) 0.2619(3)
H23 H 0.6480 0.8019 0.2790
C32 C 0.7201(5) 0.9020(5) 0.2947(3)
H24 H 0.7009 0.9112 0.3348
C33 C 0.7804(5) 0.9570(5) 0.2690(3)
C34 C 0.8108(3) 0.9400(4) 0.2097(2)
C35 C 0.7817(4) 0.8721(4) 0.1779(3)
H26 H 0.8031 0.8612 0.1387
C36 C 0.8735(4) 0.9956(4) 0.1798(3)
N8 N 0.9553(3) 0.9936(3) 0.1839(2)
C25_2 C 0.4126(4) 0.3595(4) 0.6388(3)
H19_2 H 0.4609 0.3888 0.6500
C26_2 C 0.3837(4) 0.2968(4) 0.6785(3)
H20_2 H 0.4141 0.2833 0.7139
C27_2 C 0.3092(4) 0.2543(4) 0.6651(3)
C28_2 C 0.2668(4) 0.2823(4) 0.6139(3)
H21_2 H 0.2142 0.2598 0.6049
C29_2 C 0.3004(4) 0.3434(4) 0.5752(3)
H22_2 H 0.2703 0.3601 0.5403
C30_2 C 0.2796(4) 0.1820(4) 0.7025(3)
C31_2 C 0.3103(5) 0.1642(5) 0.7619(3)
H23_2 H 0.3520 0.1981 0.7790
C32_2 C 0.2799(5) 0.0980(5) 0.7947(3)
H24_2 H 0.2991 0.0888 0.8348
C33_2 C 0.2196(5) 0.0430(5) 0.7690(3)
C34_2 C 0.1892(3) 0.0600(4) 0.7097(2)
C35_2 C 0.2183(4) 0.1279(4) 0.6779(3)
H26_2 H 0.1969 0.1388 0.6387
C36_2 C 0.1265(4) 0.0044(4) 0.6798(3)
Cd5 Cd 0.44147(2) 0.44147(2) 0.5000
N8_2 N 0.0447(3) 0.0064(3) 0.6839(2)
N14 N 0.3762(4) 0.3794(3) 0.5871(2)
C1_2 C 0.1405(4) 0.9126(4) 0.3888(3)
H1_2 H 0.1112 0.9609 0.4000
C2_2 C 0.2032(4) 0.8837(4) 0.4285(3)
H2_2 H 0.2167 0.9141 0.4639
C3_2 C 0.2457(4) 0.8092(4) 0.4151(3)
C4_2 C 0.2177(4) 0.7668(4) 0.3639(3)
H3_2 H 0.2402 0.7142 0.3549
C5_2 C 0.1566(4) 0.8004(4) 0.3252(3)
H4_2 H 0.1399 0.7703 0.2903
C6_2 C 0.3180(4) 0.7796(4) 0.4525(3)
C7_2 C 0.3358(5) 0.8103(5) 0.5119(3)
H5_2 H 0.3019 0.8520 0.5290
C8_2 C 0.4020(5) 0.7799(5) 0.5447(3)
H6_2 H 0.4112 0.7991 0.5848
C9_2 C 0.4570(5) 0.7196(5) 0.5190(3)
H7_2 H 0.5035 0.7006 0.5411
C10_2 C 0.4400(4) 0.6892(3) 0.4597(2)
C11_2 C 0.3721(4) 0.7183(4) 0.4279(3)
H8_2 H 0.3612 0.6969 0.3887
C12_2 C 0.4956(4) 0.6265(4) 0.4298(3)
C13_2 C 0.5924(4) 0.5762(3) 0.3674(2)
C14_2 C 0.6605(4) 0.5682(4) 0.3243(3)
C15_2 C 0.6638(5) 0.4959(5) 0.2882(4)
H9_2 H 0.6220 0.4552 0.2915
C16_2 C 0.7295(5) 0.4852(5) 0.2476(4)
H10_2 H 0.7308 0.4374 0.2227
C17_2 C 0.7933(5) 0.5427(5) 0.2425(4)
H11_2 H 0.8374 0.5332 0.2151
C18_2 C 0.7920(4) 0.6175(4) 0.2794(3)
C19_2 C 0.7248(4) 0.6282(4) 0.3194(3)
H12_2 H 0.7222 0.6765 0.3436
C20_2 C 0.8581(4) 0.6829(4) 0.2737(3)
C21_2 C 0.9069(4) 0.6902(5) 0.2217(3)
H13_2 H 0.9024 0.6505 0.1902
C22_2 C 0.9628(5) 0.7562(5) 0.2158(3)
H14_2 H 0.9937 0.7601 0.1794
C23_2 C 0.9301(4) 0.8052(4) 0.3098(3)
H15_2 H 0.9377 0.8444 0.3413
C24_2 C 0.8723(5) 0.7407(4) 0.3195(3)
H16_2 H 0.8435 0.7370 0.3569
N1_2 N 0.5550(3) 0.5125(3) 0.3952(2)
N2_2 N 0.4936(3) 0.5447(3) 0.4339(2)
N3_2 N 0.5563(3) 0.6485(3) 0.3885(2)
N4_2 N 0.5749(4) 0.7308(3) 0.3673(3)
H17_2 H 0.5316 0.7500 0.3454
H18_2 H 0.5837 0.7643 0.3997
N5_2 N 0.9750(3) 0.8140(3) 0.2584(2)
N6_2 N 0.1206(3) 0.8762(4) 0.3371(2)
H25_2 H 0.2006 0.9965 0.7911
C37_2 C 0.0762(3) 0.9076(4) 0.6174(2)
C38_2 C 0.0682(4) 0.8395(4) 0.5743(3)
C41_2 C 0.0427(5) 0.7067(5) 0.4925(4)
H29_2 H 0.0332 0.6626 0.4651
C42_2 C 0.1175(4) 0.7080(4) 0.5294(3)
C43_2 C 0.1282(4) 0.7752(4) 0.5694(3)
H30_2 H 0.1765 0.7778 0.5936
C44_2 C 0.1829(4) 0.6419(4) 0.5237(3)
C45_2 C 0.1902(5) 0.5931(4) 0.4717(3)
H31_2 H 0.1505 0.5976 0.4402
C46_2 C 0.2562(5) 0.5372(5) 0.4658(3)
H32_2 H 0.2601 0.5063 0.4294
C47_2 C 0.3052(4) 0.5699(4) 0.5598(3)
H33_2 H 0.3444 0.5623 0.5913
C48_2 C 0.2407(4) 0.6277(5) 0.5695(3)
H34_2 H 0.2370 0.6565 0.6069
N7_2 N 0.0125(3) 0.9450(3) 0.6452(2)
N9_2 N 0.5447(3) 0.4936(3) 0.5661(2)
N10_2 N 0.1485(3) 0.9437(3) 0.6385(2)
N11_2 N 0.2308(3) 0.9251(4) 0.6173(3)
H35_2 H 0.2500 0.9684 0.5954
H36_2 H 0.2643 0.9163 0.6497
N12_2 N 0.3140(3) 0.5250(3) 0.5084(2)
N13_2 N 0.5250(3) 0.3140(3) 0.4916(2)
N16_2 N 0.3794(3) 0.3762(4) 0.4129(2)
C39_2 C 0.9959(5) 0.8362(5) 0.5382(4)
H27_2 H 0.9552 0.8780 0.5415
C40 C 0.9852(5) 0.7705(5) 0.4976(4)
H28 H 0.9374 0.7692 0.4727
N16_3 N 0.8762(4) 0.1206(3) 0.6629(2)
N9_3 N 0.9936(3) 0.9553(3) 0.8161(2)
N13_3 N 0.8140(3) 0.9750(3) 0.7416(2)
N9_4 N 0.0064(3) 0.0447(3) 0.3161(2)
N13_4 N 0.1860(3) 0.0250(3) 0.2416(2)
N16_4 N 0.1238(4) 0.8794(3) 0.1629(2)
C15_3 C 0.1638(5) 0.0041(5) 0.9618(4)
H9_3 H 0.1220 0.0448 0.9585
C17_3 C 0.2933(5) 0.9573(5) 0.0075(4)
H11_3 H 0.3374 0.9668 0.0349
C21_3 C 0.4069(4) 0.8098(5) 0.0283(3)
H13_3 H 0.4024 0.8495 0.0598
C22_3 C 0.4628(5) 0.7438(5) 0.0342(3)
H14_3 H 0.4937 0.7399 0.0706
H7_3 H 0.0035 0.7994 0.7089
C13_3 C 0.0924(4) 0.9238(3) 0.8826(2)
C14_3 C 0.1605(4) 0.9318(4) 0.9257(3)
C18_3 C 0.2920(4) 0.8825(4) 0.9706(3)
C19_3 C 0.2248(4) 0.8718(4) 0.9306(3)
H12_3 H 0.2222 0.8235 0.9064
C20_3 C 0.3581(4) 0.8171(4) 0.9763(3)
C23_3 C 0.4301(4) 0.6948(4) 0.9402(3)
H15_3 H 0.4377 0.6556 0.9087
C24_3 C 0.3723(5) 0.7593(4) 0.9305(3)
H16_3 H 0.3435 0.7630 0.8931
N1_3 N 0.0550(3) 0.9875(3) 0.8548(2)
N3_3 N 0.0563(3) 0.8515(3) 0.8615(2)
N4_3 N 0.0749(4) 0.7692(3) 0.8827(3)
H17_3 H 0.0316 0.7500 0.9046
H18_3 H 0.0837 0.7357 0.8503
C1_3 C 0.6405(4) 0.5874(4) 0.8612(3)
H1_3 H 0.6112 0.5391 0.8500
C2_3 C 0.7032(4) 0.6163(4) 0.8215(3)
H2_3 H 0.7167 0.5859 0.7861
C3_3 C 0.7457(4) 0.6908(4) 0.8349(3)
C4_3 C 0.7177(4) 0.7332(4) 0.8861(3)
H3_3 H 0.7402 0.7858 0.8951
C5_3 C 0.6566(4) 0.6996(4) 0.9248(3)
H4_3 H 0.6399 0.7297 0.9597
C6_3 C 0.8180(4) 0.7204(4) 0.7975(3)
C7_3 C 0.8358(5) 0.6897(5) 0.7381(3)
H5_3 H 0.8019 0.6480 0.7210
C8_3 C 0.9020(5) 0.7201(5) 0.7053(3)
H6_3 H 0.9112 0.7009 0.6652
C9_3 C 0.9570(5) 0.7804(5) 0.7310(3)
C10_3 C 0.9400(4) 0.8108(3) 0.7903(2)
C11_3 C 0.8721(4) 0.7817(4) 0.8221(3)
H8_3 H 0.8612 0.8031 0.8613
C12_3 C 0.9956(4) 0.8735(4) 0.8202(3)
C25_3 C 0.9126(4) 0.1405(4) 0.6112(3)
H19_3 H 0.9609 0.1112 0.6000
C26_3 C 0.8837(4) 0.2032(4) 0.5715(3)
H20_3 H 0.9141 0.2167 0.5361
C27_3 C 0.8092(4) 0.2457(4) 0.5849(3)
C28_3 C 0.7668(4) 0.2177(4) 0.6361(3)
H21_3 H 0.7142 0.2402 0.6451
C29_3 C 0.8004(4) 0.1566(4) 0.6748(3)
H22_3 H 0.7703 0.1399 0.7097
C30_3 C 0.7796(4) 0.3180(4) 0.5475(3)
C31_3 C 0.8103(5) 0.3358(5) 0.4881(3)
H23_3 H 0.8520 0.3019 0.4710
C32_3 C 0.7799(5) 0.4020(5) 0.4553(3)
H24_3 H 0.7991 0.4112 0.4152
C33_3 C 0.7196(5) 0.4570(5) 0.4810(3)
H25_3 H 0.7006 0.5035 0.4589
C34_3 C 0.6892(3) 0.4400(4) 0.5403(2)
C35_3 C 0.7183(4) 0.3721(4) 0.5721(3)
H26_3 H 0.6969 0.3612 0.6113
C36_3 C 0.6265(4) 0.4956(4) 0.5702(3)
C37_3 C 0.5762(3) 0.5924(4) 0.6326(2)
C38_3 C 0.5682(4) 0.6605(4) 0.6757(3)
C39_3 C 0.4959(5) 0.6638(5) 0.7118(4)
H27_3 H 0.4552 0.6220 0.7085
C40_2 C 0.4852(5) 0.7295(5) 0.7524(4)
H28_2 H 0.4374 0.7308 0.7773
C41_3 C 0.5427(5) 0.7933(5) 0.7575(4)
H29_3 H 0.5332 0.8374 0.7849
C42_3 C 0.6175(4) 0.7920(4) 0.7206(3)
C43_3 C 0.6282(4) 0.7248(4) 0.6806(3)
H30_3 H 0.6765 0.7222 0.6564
C44_3 C 0.6829(4) 0.8581(4) 0.7263(3)
C45_3 C 0.6902(5) 0.9069(4) 0.7783(3)
H31_3 H 0.6505 0.9024 0.8098
C46_3 C 0.7562(5) 0.9628(5) 0.7842(3)
H32_3 H 0.7601 0.9937 0.8206
C47_3 C 0.8052(4) 0.9301(4) 0.6902(3)
H33_3 H 0.8444 0.9377 0.6587
C48_3 C 0.7407(4) 0.8723(5) 0.6805(3)
H34_3 H 0.7370 0.8435 0.6431
N7_3 N 0.5125(3) 0.5550(3) 0.6048(2)
N10_3 N 0.6485(3) 0.5563(3) 0.6115(2)
N11_3 N 0.7308(3) 0.5749(4) 0.6327(3)
H35_3 H 0.7500 0.5316 0.6546
H36_3 H 0.7643 0.5837 0.6003
C1_4 C 0.3595(4) 0.4126(4) 0.3612(3)
H1_4 H 0.3888 0.4609 0.3500
C2_4 C 0.2968(4) 0.3837(4) 0.3215(3)
H2_4 H 0.2833 0.4141 0.2861
C3_4 C 0.2543(4) 0.3092(4) 0.3349(3)
C4_4 C 0.2823(4) 0.2668(4) 0.3861(3)
H3_4 H 0.2598 0.2142 0.3951
C5_4 C 0.3434(4) 0.3004(4) 0.4248(3)
H4_4 H 0.3601 0.2703 0.4597
C6_4 C 0.1820(4) 0.2796(4) 0.2975(3)
C7_4 C 0.1642(5) 0.3103(5) 0.2381(3)
H5_4 H 0.1981 0.3520 0.2210
C8_4 C 0.0980(5) 0.2799(5) 0.2053(3)
H6_4 H 0.0888 0.2991 0.1652
C9_4 C 0.0430(5) 0.2196(5) 0.2310(3)
C10_4 C 0.0600(4) 0.1892(3) 0.2903(2)
C11_4 C 0.1279(4) 0.2183(4) 0.3221(3)
H8_4 H 0.1388 0.1969 0.3613
C12_4 C 0.0044(4) 0.1265(4) 0.3202(3)
C25_4 C 0.0874(4) 0.8595(4) 0.1112(3)
H19_4 H 0.0391 0.8888 0.1000
C26_4 C 0.1163(4) 0.7968(4) 0.0715(3)
H20_4 H 0.0859 0.7833 0.0361
C27_4 C 0.1908(4) 0.7543(4) 0.0849(3)
C28_4 C 0.2332(4) 0.7823(4) 0.1361(3)
H21_4 H 0.2858 0.7598 0.1451
C29_4 C 0.1996(4) 0.8434(4) 0.1748(3)
H22_4 H 0.2297 0.8601 0.2097
C30_4 C 0.2204(4) 0.6820(4) 0.0475(3)
C34_4 C 0.3108(3) 0.5600(4) 0.0403(2)
C35_4 C 0.2817(4) 0.6279(4) 0.0721(3)
H26_4 H 0.3031 0.6388 0.1113
C36_4 C 0.3735(4) 0.5044(4) 0.0702(3)
C37_4 C 0.4238(3) 0.4076(4) 0.1326(2)
C38_4 C 0.4318(4) 0.3395(4) 0.1757(3)
C39_4 C 0.5041(5) 0.3362(5) 0.2118(4)
H27_4 H 0.5448 0.3780 0.2085
C40_3 C 0.5148(5) 0.2705(5) 0.2524(4)
H28_3 H 0.5626 0.2692 0.2773
C41_4 C 0.4573(5) 0.2067(5) 0.2575(4)
H29_4 H 0.4668 0.1626 0.2849
C42_4 C 0.3825(4) 0.2080(4) 0.2206(3)
C43_4 C 0.3718(4) 0.2752(4) 0.1806(3)
H30_4 H 0.3235 0.2778 0.1564
C44_4 C 0.3171(4) 0.1419(4) 0.2263(3)
C45_4 C 0.3098(5) 0.0931(4) 0.2783(3)
H31_4 H 0.3495 0.0976 0.3098
C46_4 C 0.2438(5) 0.0372(5) 0.2842(3)
H32_4 H 0.2399 0.0063 0.3206
C47_4 C 0.1948(4) 0.0699(4) 0.1902(3)
H33_4 H 0.1556 0.0623 0.1587
C48_4 C 0.2593(4) 0.1277(5) 0.1805(3)
H34_4 H 0.2630 0.1565 0.1431
N7_4 N 0.4875(3) 0.4450(3) 0.1048(2)
N10_4 N 0.3515(3) 0.4437(3) 0.1115(2)
N11_4 N 0.2692(3) 0.4251(4) 0.1327(3)
H35_4 H 0.2500 0.4684 0.1546
H36_4 H 0.2357 0.4163 0.1003
C31_4 C 0.1897(5) 0.6642(5) 0.9881(3)
H23_4 H 0.1480 0.6981 0.9710
C32_4 C 0.2201(5) 0.5980(5) 0.9553(3)
H24_4 H 0.2009 0.5888 0.9152
C33_4 C 0.2804(5) 0.5430(5) 0.9810(3)
H25_4 H 0.2994 0.4965 0.9589
H7_4 H 0.9965 0.2006 0.2089
C13_4 C 0.9076(4) 0.0762(3) 0.3826(2)
C14_4 C 0.8395(4) 0.0682(4) 0.4257(3)
C17_4 C 0.7067(5) 0.0427(5) 0.5075(4)
H11_4 H 0.6626 0.0332 0.5349
C18_4 C 0.7080(4) 0.1175(4) 0.4706(3)
C19_4 C 0.7752(4) 0.1282(4) 0.4306(3)
H12_4 H 0.7778 0.1765 0.4064
C20_4 C 0.6419(4) 0.1829(4) 0.4763(3)
C21_4 C 0.5931(4) 0.1902(5) 0.5283(3)
H13_4 H 0.5976 0.1505 0.5598
C22_4 C 0.5372(5) 0.2562(5) 0.5342(3)
H14_4 H 0.5063 0.2601 0.5706
C23_4 C 0.5699(4) 0.3052(4) 0.4402(3)
H15_4 H 0.5623 0.3444 0.4087
C24_4 C 0.6277(5) 0.2407(4) 0.4305(3)
H16_4 H 0.6565 0.2370 0.3931
N1_4 N 0.9450(3) 0.0125(3) 0.3548(2)
N3_4 N 0.9437(3) 0.1485(3) 0.3615(2)
N4_4 N 0.9251(4) 0.2308(3) 0.3827(3)
H17_4 H 0.9684 0.2500 0.4046
H18_4 H 0.9163 0.2643 0.3503
C15_4 C 0.8362(5) 0.9959(5) 0.4618(4)
H9_4 H 0.8780 0.9552 0.4585
C16_3 C 0.7705(5) 0.9852(5) 0.5024(4)
H10_3 H 0.7692 0.9374 0.5273
C40_4 C 0.0148(5) 0.2295(5) 0.9976(4)
H28_4 H 0.0626 0.2308 0.9727
C16_4 C 0.2295(5) 0.0148(5) 0.0024(4)
H10_4 H 0.2308 0.0626 0.0273
Cl1 Cl 0.26856(16) 0.26856(16) 0.0000
O2 O 0.339(2) 0.224(3) 0.0263(19)
O3 O 0.2250(6) 0.2435(8) 0.0534(4)
Cl1_2 Cl 0.26856(16) 0.26856(16) 1.0000
O1 O 0.2435(8) 0.2250(6) 0.9466(4)
O4 O 0.224(3) 0.339(2) 0.9737(19)
Cl1_3 Cl 0.73144(16) 0.73144(16) 0.5000
O1_2 O 0.7565(8) 0.7750(6) 0.4466(4)
O2_2 O 0.661(2) 0.776(3) 0.5263(19)
O3_2 O 0.7750(6) 0.7565(8) 0.5534(4)
O4_2 O 0.776(3) 0.661(2) 0.4737(19)
Cl1_4 Cl 0.23144(16) 0.76856(16) 0.7500
O1_3 O 0.2750(6) 0.7435(8) 0.6966(4)
O2_3 O 0.276(3) 0.839(2) 0.7763(19)
O3_3 O 0.2565(8) 0.7250(6) 0.8034(4)
O4_3 O 0.161(2) 0.724(3) 0.7237(19)
Cl1_5 Cl 0.76856(16) 0.23144(16) 0.2500
O1_4 O 0.7250(6) 0.2565(8) 0.1966(4)
O2_4 O 0.724(3) 0.161(2) 0.2763(19)
O3_4 O 0.7435(8) 0.2750(6) 0.3034(4)
O4_4 O 0.839(2) 0.276(3) 0.2237(19)
loop_
_geom_bond_atom_site_label_1
_geom_bond_atom_site_label_2
_geom_bond_site_symmetry_1
_geom_bond_site_symmetry_2
C39 H27 1_555 1_555
H5 C7 1_555 1_555
C8 C7 1_555 1_555
H6 C8 1_555 1_555
C9 C8 1_555 1_555
H7 C9 1_555 1_555
C37 C38 1_555 1_555
C43 C38 1_555 1_555
H30 C43 1_555 1_555
C44 C42 1_555 1_555
C47 H33 1_555 1_555
C48 C44 1_555 1_555
H34 C48 1_555 1_555
N7 C37 1_555 1_555
N9 Cd1 1_555 1_555
N11 N10 1_555 1_555
H35 N11 1_555 1_555
H36 N11 1_555 1_555
N12 Cd1 1_555 1_555
N15 Cd1 1_555 1_555
C37 N10 1_555 1_555
C42 C43 1_555 1_555
C47 C48 1_555 1_555
C47 N12 1_555 1_555
C1 H1 1_555 1_555
C2 C1 1_555 1_555
H2 C2 1_555 1_555
C3 C2 1_555 1_555
C4 C3 1_555 1_555
H3 C4 1_555 1_555
C5 C4 1_555 1_555
H4 C5 1_555 1_555
C6 C3 1_555 1_555
C11 C6 1_555 1_555
H8 C11 1_555 1_555
C12 C10 1_555 1_555
C13 C14 1_555 1_555
C14 C15 1_555 1_555
C15 H9 1_555 1_555
C16 C15 1_555 1_555
H10 C16 1_555 1_555
C17 C16 1_555 1_555
H11 C17 1_555 1_555
C18 C17 1_555 1_555
C19 C14 1_555 1_555
H12 C19 1_555 1_555
C20 C18 1_555 1_555
C21 C20 1_555 1_555
H13 C21 1_555 1_555
C22 C21 1_555 1_555
H14 C22 1_555 1_555
C23 H15 1_555 1_555
C24 C20 1_555 1_555
H16 C24 1_555 1_555
Cd1_2 N2 1_555 1_555
N1 C13 1_555 1_555
N2 C12 1_555 1_555
N3 C12 1_555 1_555
N4 N3 1_555 1_555
H17 N4 1_555 1_555
H18 N4 1_555 1_555
N5 C22 1_555 1_555
N6 C1 1_555 1_555
H29 C41 1_555 1_555
H31 C45 1_555 1_555
C46 C45 1_555 1_555
H32 C46 1_555 1_555
Cd3 N6 1_555 1_555
N13 Cd1_2 1_555 1_555
N16 Cd1_2 1_555 1_555
C5 N6 1_555 1_555
C10 C11 1_555 1_555
C13 N3 1_555 1_555
C18 C19 1_555 1_555
C23 C24 1_555 1_555
C23 N5 1_555 1_555
N1 N2 1_555 1_555
C25 H19 1_555 1_555
C26 C25 1_555 1_555
H20 C26 1_555 1_555
C27 C26 1_555 1_555
C28 C27 1_555 1_555
H21 C28 1_555 1_555
C29 C28 1_555 1_555
H22 C29 1_555 1_555
C30 C27 1_555 1_555
C31 C30 1_555 1_555
H23 C31 1_555 1_555
C32 C31 1_555 1_555
H24 C32 1_555 1_555
C33 C32 1_555 1_555
C34 C33 1_555 1_555
C35 C30 1_555 1_555
H26 C35 1_555 1_555
C36 C34 1_555 1_555
N8 C36 1_555 1_555
N15 C25 1_555 1_555
C29 N15 1_555 1_555
C34 C35 1_555 1_555
C25_2 H19_2 1_555 1_555
C26_2 C25_2 1_555 1_555
H20_2 C26_2 1_555 1_555
C27_2 C26_2 1_555 1_555
C28_2 C27_2 1_555 1_555
H21_2 C28_2 1_555 1_555
C29_2 C28_2 1_555 1_555
H22_2 C29_2 1_555 1_555
C30_2 C27_2 1_555 1_555
C31_2 C30_2 1_555 1_555
H23_2 C31_2 1_555 1_555
C32_2 C31_2 1_555 1_555
H24_2 C32_2 1_555 1_555
C33_2 C32_2 1_555 1_555
C34_2 C33_2 1_555 1_555
C35_2 C30_2 1_555 1_555
H26_2 C35_2 1_555 1_555
C36_2 C34_2 1_555 1_555
Cd5 N14 1_555 1_555
N8_2 C36_2 1_555 1_555
N14 C25_2 1_555 1_555
C29_2 N14 1_555 1_555
C34_2 C35_2 1_555 1_555
C1_2 H1_2 1_555 1_555
C2_2 C1_2 1_555 1_555
H2_2 C2_2 1_555 1_555
C3_2 C2_2 1_555 1_555
C4_2 C3_2 1_555 1_555
H3_2 C4_2 1_555 1_555
C5_2 C4_2 1_555 1_555
H4_2 C5_2 1_555 1_555
C6_2 C3_2 1_555 1_555
C7_2 C6_2 1_555 1_555
H5_2 C7_2 1_555 1_555
C8_2 C7_2 1_555 1_555
H6_2 C8_2 1_555 1_555
C9_2 C8_2 1_555 1_555
H7_2 C9_2 1_555 1_555
C10_2 C9_2 1_555 1_555
C11_2 C6_2 1_555 1_555
H8_2 C11_2 1_555 1_555
C12_2 C10_2 1_555 1_555
C13_2 C14_2 1_555 1_555
C14_2 C15_2 1_555 1_555
C15_2 H9_2 1_555 1_555
C16_2 C15_2 1_555 1_555
H10_2 C16_2 1_555 1_555
C17_2 C16_2 1_555 1_555
H11_2 C17_2 1_555 1_555
C18_2 C17_2 1_555 1_555
C19_2 C14_2 1_555 1_555
H12_2 C19_2 1_555 1_555
C20_2 C18_2 1_555 1_555
C21_2 C20_2 1_555 1_555
H13_2 C21_2 1_555 1_555
C22_2 C21_2 1_555 1_555
H14_2 C22_2 1_555 1_555
C23_2 H15_2 1_555 1_555
C24_2 C20_2 1_555 1_555
H16_2 C24_2 1_555 1_555
Cd5 N2_2 1_555 1_555
N1_2 C13_2 1_555 1_555
N2_2 C12_2 1_555 1_555
N3_2 C12_2 1_555 1_555
N4_2 N3_2 1_555 1_555
H17_2 N4_2 1_555 1_555
H18_2 N4_2 1_555 1_555
N5_2 C22_2 1_555 1_555
N6_2 C1_2 1_555 1_555
C37_2 C38_2 1_555 1_555
H29_2 C41_2 1_555 1_555
C42_2 C41_2 1_555 1_555
C43_2 C38_2 1_555 1_555
H30_2 C43_2 1_555 1_555
C44_2 C42_2 1_555 1_555
C45_2 C44_2 1_555 1_555
H31_2 C45_2 1_555 1_555
C46_2 C45_2 1_555 1_555
H32_2 C46_2 1_555 1_555
C47_2 H33_2 1_555 1_555
C48_2 C44_2 1_555 1_555
H34_2 C48_2 1_555 1_555
Cd4 N6_2 1_555 1_555
N7_2 C37_2 1_555 1_555
N9_2 Cd5 1_555 1_555
N11_2 N10_2 1_555 1_555
H35_2 N11_2 1_555 1_555
H36_2 N11_2 1_555 1_555
N12_2 Cd5 1_555 1_555
N13_2 Cd5 1_555 1_555
N16_2 Cd5 1_555 1_555
C5_2 N6_2 1_555 1_555
C10_2 C11_2 1_555 1_555
C13_2 N3_2 1_555 1_555
C18_2 C19_2 1_555 1_555
C23_2 C24_2 1_555 1_555
C23_2 N5_2 1_555 1_555
N1_2 N2_2 1_555 1_555
C37_2 N10_2 1_555 1_555
C42_2 C43_2 1_555 1_555
C46_2 N12_2 1_555 1_555
C47_2 C48_2 1_555 1_555
C47_2 N12_2 1_555 1_555
C39_2 H27_2 1_555 1_555
C40 C39_2 1_555 1_555
H28 C40 1_555 1_555
N16_3 Cd3 1_555 1_555
N16_4 Cd4 1_555 1_555
C15_3 H9_3 1_555 1_555
H11_3 C17_3 1_555 1_555
H13_3 C21_3 1_555 1_555
C22_3 C21_3 1_555 1_555
H14_3 C22_3 1_555 1_555
C13_3 C14_3 1_555 1_555
C19_3 C14_3 1_555 1_555
H12_3 C19_3 1_555 1_555
C20_3 C18_3 1_555 1_555
C23_3 H15_3 1_555 1_555
C24_3 C20_3 1_555 1_555
H16_3 C24_3 1_555 1_555
N1_3 C13_3 1_555 1_555
N4_3 N3_3 1_555 1_555
H17_3 N4_3 1_555 1_555
H18_3 N4_3 1_555 1_555
C13_3 N3_3 1_555 1_555
C18_3 C19_3 1_555 1_555
C23_3 C24_3 1_555 1_555
C23_3 N13 1_555 1_555
C1_3 H1_3 1_555 1_555
C2_3 C1_3 1_555 1_555
H2_3 C2_3 1_555 1_555
C3_3 C2_3 1_555 1_555
C4_3 C3_3 1_555 1_555
H3_3 C4_3 1_555 1_555
C5_3 C4_3 1_555 1_555
H4_3 C5_3 1_555 1_555
C6_3 C3_3 1_555 1_555
C7_3 C6_3 1_555 1_555
H5_3 C7_3 1_555 1_555
C8_3 C7_3 1_555 1_555
H6_3 C8_3 1_555 1_555
C9_3 C8_3 1_555 1_555
C10_3 C9_3 1_555 1_555
C11_3 C6_3 1_555 1_555
H8_3 C11_3 1_555 1_555
C12_3 C10_3 1_555 1_555
N9_3 C12_3 1_555 1_555
N16 C1_3 1_555 1_555
C25_3 H19_3 1_555 1_555
C26_3 C25_3 1_555 1_555
H20_3 C26_3 1_555 1_555
C27_3 C26_3 1_555 1_555
C28_3 C27_3 1_555 1_555
H21_3 C28_3 1_555 1_555
C29_3 C28_3 1_555 1_555
H22_3 C29_3 1_555 1_555
C30_3 C27_3 1_555 1_555
C31_3 C30_3 1_555 1_555
H23_3 C31_3 1_555 1_555
C32_3 C31_3 1_555 1_555
H24_3 C32_3 1_555 1_555
C33_3 C32_3 1_555 1_555
H25_3 C33_3 1_555 1_555
C34_3 C33_3 1_555 1_555
C35_3 C30_3 1_555 1_555
H26_3 C35_3 1_555 1_555
C36_3 C34_3 1_555 1_555
C37_3 C38_3 1_555 1_555
C38_3 C39_3 1_555 1_555
C39_3 H27_3 1_555 1_555
C40_2 C39_3 1_555 1_555
H28_2 C40_2 1_555 1_555
C41_3 C40_2 1_555 1_555
H29_3 C41_3 1_555 1_555
C42_3 C41_3 1_555 1_555
C43_3 C38_3 1_555 1_555
H30_3 C43_3 1_555 1_555
C44_3 C42_3 1_555 1_555
C45_3 C44_3 1_555 1_555
H31_3 C45_3 1_555 1_555
C46_3 C45_3 1_555 1_555
H32_3 C46_3 1_555 1_555
C47_3 H33_3 1_555 1_555
C48_3 C44_3 1_555 1_555
H34_3 C48_3 1_555 1_555
N7_3 C37_3 1_555 1_555
N9_2 C36_3 1_555 1_555
N10_3 C36_3 1_555 1_555
N11_3 N10_3 1_555 1_555
H35_3 N11_3 1_555 1_555
H36_3 N11_3 1_555 1_555
N16_3 C25_3 1_555 1_555
C5_3 N16 1_555 1_555
C10_3 C11_3 1_555 1_555
C29_3 N16_3 1_555 1_555
C34_3 C35_3 1_555 1_555
C37_3 N10_3 1_555 1_555
C42_3 C43_3 1_555 1_555
C46_3 N13_3 1_555 1_555
C47_3 C48_3 1_555 1_555
C47_3 N13_3 1_555 1_555
N7_3 N9_2 1_555 1_555
C1_4 H1_4 1_555 1_555
C2_4 C1_4 1_555 1_555
H2_4 C2_4 1_555 1_555
C3_4 C2_4 1_555 1_555
C4_4 C3_4 1_555 1_555
H3_4 C4_4 1_555 1_555
C5_4 C4_4 1_555 1_555
H4_4 C5_4 1_555 1_555
C6_4 C3_4 1_555 1_555
C7_4 C6_4 1_555 1_555
H5_4 C7_4 1_555 1_555
C8_4 C7_4 1_555 1_555
H6_4 C8_4 1_555 1_555
C9_4 C8_4 1_555 1_555
C10_4 C9_4 1_555 1_555
C11_4 C6_4 1_555 1_555
H8_4 C11_4 1_555 1_555
C12_4 C10_4 1_555 1_555
N9_4 C12_4 1_555 1_555
N16_2 C1_4 1_555 1_555
C25_4 H19_4 1_555 1_555
C26_4 C25_4 1_555 1_555
H20_4 C26_4 1_555 1_555
C27_4 C26_4 1_555 1_555
C28_4 C27_4 1_555 1_555
H21_4 C28_4 1_555 1_555
C29_4 C28_4 1_555 1_555
H22_4 C29_4 1_555 1_555
C30_4 C27_4 1_555 1_555
C35_4 C30_4 1_555 1_555
H26_4 C35_4 1_555 1_555
C36_4 C34_4 1_555 1_555
C37_4 C38_4 1_555 1_555
C38_4 C39_4 1_555 1_555
C39_4 H27_4 1_555 1_555
C40_3 C39_4 1_555 1_555
H28_3 C40_3 1_555 1_555
C41_4 C40_3 1_555 1_555
H29_4 C41_4 1_555 1_555
C42_4 C41_4 1_555 1_555
C43_4 C38_4 1_555 1_555
H30_4 C43_4 1_555 1_555
C44_4 C42_4 1_555 1_555
C45_4 C44_4 1_555 1_555
H31_4 C45_4 1_555 1_555
C46_4 C45_4 1_555 1_555
H32_4 C46_4 1_555 1_555
C47_4 H33_4 1_555 1_555
C48_4 C44_4 1_555 1_555
H34_4 C48_4 1_555 1_555
N7_4 C37_4 1_555 1_555
N9 C36_4 1_555 1_555
N10_4 C36_4 1_555 1_555
N11_4 N10_4 1_555 1_555
H35_4 N11_4 1_555 1_555
H36_4 N11_4 1_555 1_555
N16_4 C25_4 1_555 1_555
C5_4 N16_2 1_555 1_555
C10_4 C11_4 1_555 1_555
C29_4 N16_4 1_555 1_555
C34_4 C35_4 1_555 1_555
C37_4 N10_4 1_555 1_555
C42_4 C43_4 1_555 1_555
C46_4 N13_4 1_555 1_555
C47_4 C48_4 1_555 1_555
C47_4 N13_4 1_555 1_555
N7_4 N9 1_555 1_555
H23_4 C31_4 1_555 1_555
C32_4 C31_4 1_555 1_555
H24_4 C32_4 1_555 1_555
C33_4 C32_4 1_555 1_555
H25_4 C33_4 1_555 1_555
C13_4 C14_4 1_555 1_555
H11_4 C17_4 1_555 1_555
C18_4 C17_4 1_555 1_555
C19_4 C14_4 1_555 1_555
H12_4 C19_4 1_555 1_555
C20_4 C18_4 1_555 1_555
C21_4 C20_4 1_555 1_555
H13_4 C21_4 1_555 1_555
C22_4 C21_4 1_555 1_555
H14_4 C22_4 1_555 1_555
C23_4 H15_4 1_555 1_555
C24_4 C20_4 1_555 1_555
H16_4 C24_4 1_555 1_555
N1_4 C13_4 1_555 1_555
N4_4 N3_4 1_555 1_555
H17_4 N4_4 1_555 1_555
H18_4 N4_4 1_555 1_555
N13_2 C22_4 1_555 1_555
C13_4 N3_4 1_555 1_555
C18_4 C19_4 1_555 1_555
C23_4 C24_4 1_555 1_555
C23_4 N13_2 1_555 1_555
C15_4 H9_4 1_555 1_555
C16_3 C15_4 1_555 1_555
H10_3 C16_3 1_555 1_555
H28_4 C40_4 1_555 1_555
H10_4 C16_4 1_555 1_555
O2 Cl1 1_555 1_555
O3 Cl1 1_555 1_555
Cl1_2 O1 1_555 1_555
O4 Cl1_2 1_555 1_555
Cl1_3 O1_2 1_555 1_555
O2_2 Cl1_3 1_555 1_555
O3_2 Cl1_3 1_555 1_555
O4_2 Cl1_3 1_555 1_555
Cl1_4 O1_3 1_555 1_555
O2_3 Cl1_4 1_555 1_555
O3_3 Cl1_4 1_555 1_555
O4_3 Cl1_4 1_555 1_555
Cl1_5 O1_4 1_555 1_555
O2_4 Cl1_5 1_555 1_555
O3_4 Cl1_5 1_555 1_555
O4_4 Cl1_5 1_555 1_555

#END
