
###############################################################################
#
# This file contains modified crystal structure data generated from the
# MOF subset of the Cambridge Structural Database (CSD) v543 
# hosted by the Cambridge Crystallographic Data Centre (CCDC).
#
# This work is licensed under the Creative Commons
# Attribution-NonCommercial-ShareAlike 4.0 International License.
# To view a copy of this license, visit
# http://creativecommons.org/licenses/by-nc-sa/4.0/
# or send a letter to
# Creative Commons, PO Box 1866, Mountain View, CA 94042, USA.
#
# CIF created using the CSD Python API on 29 September 2022
# The structure has been converted into the P1 space group
# The structure has a 3D framework
# The original CSD entry WUNTIJ is in the tetragonal crystal system
# The original CSD entry WUNTIJ is in a Sohncke space group
# The framework has been calculated to contain at least 10.0% void space
# The void calculation uses a probe of radius 1.32A, grid spacing 0.4
# The framework is charged, counterions have been retained in the structure
#
###############################################################################

data_WUNTIJ
_chemical_formula_moiety         '(C192 H144 Cd3 Cl10 N48 O32 2-)n'
_symmetry_cell_setting           triclinic
_symmetry_space_group_name_H-M   'P 1'
_symmetry_Int_Tables_number      1
_space_group_name_Hall           'P 1'
loop_
_symmetry_equiv_pos_site_id
_symmetry_equiv_pos_as_xyz
1 x,y,z
_cell_length_a                   15.884(3)
_cell_length_b                   15.884(3)
_cell_length_c                   21.440(7)
_cell_angle_alpha                90
_cell_angle_beta                 90
_cell_angle_gamma                90
_cell_volume                     5409.34
loop_
_atom_site_label
_atom_site_type_symbol
_atom_site_fract_x
_atom_site_fract_y
_atom_site_fract_z
Cd2 Cd 0.05959(2) 0.94041(2) 0.7500
Cd4 Cd 0.94041(2) 0.05959(2) 0.2500
C15 C 0.4585(4) 0.7200(4) 0.0205(3)
H9 H 0.5064 0.7026 0.0418
C16 C 0.4036(4) 0.7783(4) 0.0469(3)
H10 H 0.4136 0.7982 0.0870
C17 C 0.3338(4) 0.8072(4) 0.0138(3)
H11 H 0.2981 0.8467 0.0319
Cd1 Cd 0.44041(2) 0.44041(2) 0.0000
C25 C 0.8026(4) 0.9317(4) 0.1901(3)
H19 H 0.8414 0.9397 0.1581
C26 C 0.7389(4) 0.8748(4) 0.1807(3)
H20 H 0.7351 0.8465 0.1428
C27 C 0.6802(4) 0.8590(4) 0.2271(3)
C28 C 0.6887(4) 0.9075(4) 0.2806(3)
H21 H 0.6498 0.9022 0.3128
C29 C 0.7553(4) 0.9641(4) 0.2861(3)
H22 H 0.7597 0.9951 0.3228
C30 C 0.6144(4) 0.7938(4) 0.2214(3)
C31 C 0.5427(4) 0.7926(4) 0.2588(3)
H23 H 0.5352 0.8346 0.2885
C32 C 0.4827(4) 0.7304(4) 0.2526(4)
H24 H 0.4334 0.7335 0.2758
C33 C 0.4951(4) 0.6638(4) 0.2126(3)
H25 H 0.4556 0.6207 0.2100
C34 C 0.5672(4) 0.6616(3) 0.1763(3)
C35 C 0.6258(4) 0.7258(4) 0.1806(3)
H26 H 0.6739 0.7237 0.1558
C36 C 0.5756(3) 0.5921(3) 0.1319(2)
C37 C 0.6257(4) 0.4952(3) 0.0690(2)
C38 C 0.6883(3) 0.4400(4) 0.0388(2)
C42 C 0.7784(4) 0.3170(4) 0.0450(3)
C43 C 0.7163(4) 0.3712(4) 0.0707(3)
H30 H 0.6943 0.3595 0.1099
C44 C 0.8088(4) 0.2455(4) 0.0829(3)
C45 C 0.8831(4) 0.2018(4) 0.0696(3)
H31 H 0.9128 0.2142 0.0333
C46 C 0.9129(4) 0.1408(4) 0.1094(3)
H32 H 0.9625 0.1129 0.0991
C47 C 0.7998(4) 0.1563(4) 0.1731(3)
H33 H 0.7698 0.1396 0.2083
C48 C 0.7653(4) 0.2166(4) 0.1359(3)
H34 H 0.7128 0.2389 0.1456
N7 N 0.5442(3) 0.4931(3) 0.0665(2)
N8 N 0.5114(3) 0.5535(3) 0.1059(2)
N9 N 0.6490(3) 0.5567(3) 0.1098(2)
N10 N 0.7305(3) 0.5773(3) 0.1300(3)
H35 H 0.7531 0.5330 0.1491
H36 H 0.7619 0.5911 0.0971
N11 N 0.8124(3) 0.9763(3) 0.2423(2)
N12 N 0.3124(3) 0.5237(3) 0.0077(2)
N14 N 0.8737(3) 0.1199(3) 0.1622(2)
N15 N 0.3737(3) 0.3801(3) 0.0878(2)
C1 C 0.9317(4) 0.8026(4) 0.8099(3)
H1 H 0.9397 0.8414 0.8419
C2 C 0.8748(4) 0.7389(4) 0.8193(3)
H2 H 0.8465 0.7351 0.8572
C3 C 0.8590(4) 0.6802(4) 0.7729(3)
C4 C 0.9075(4) 0.6887(4) 0.7194(3)
H3 H 0.9022 0.6498 0.6872
C5 C 0.9641(4) 0.7553(4) 0.7139(3)
H4 H 0.9951 0.7597 0.6772
C6 C 0.7938(4) 0.6144(4) 0.7786(3)
C7 C 0.7926(4) 0.5427(4) 0.7412(3)
H5 H 0.8346 0.5352 0.7115
C8 C 0.7304(4) 0.4827(4) 0.7474(4)
H6 H 0.7335 0.4334 0.7242
C9 C 0.6638(4) 0.4951(4) 0.7874(3)
H7 H 0.6207 0.4556 0.7900
C10 C 0.6616(3) 0.5672(4) 0.8237(3)
C11 C 0.7258(4) 0.6258(4) 0.8194(3)
H8 H 0.7237 0.6739 0.8442
C12 C 0.5921(3) 0.5756(3) 0.8681(2)
C13 C 0.4952(3) 0.6257(4) 0.9310(2)
C14 C 0.4400(4) 0.6883(3) 0.9612(2)
C18 C 0.3170(4) 0.7784(4) 0.9550(3)
C19 C 0.3712(4) 0.7163(4) 0.9293(3)
H12 H 0.3595 0.6943 0.8901
C20 C 0.2455(4) 0.8088(4) 0.9171(3)
C21 C 0.2018(4) 0.8831(4) 0.9304(3)
H13 H 0.2142 0.9128 0.9667
C22 C 0.1408(4) 0.9129(4) 0.8906(3)
H14 H 0.1129 0.9625 0.9009
C23 C 0.1563(4) 0.7998(4) 0.8269(3)
H15 H 0.1396 0.7698 0.7917
C24 C 0.2166(4) 0.7653(4) 0.8641(3)
H16 H 0.2389 0.7128 0.8544
Cd1_2 Cd 0.44041(2) 0.44041(2) 1.0000
N1 N 0.4931(3) 0.5442(3) 0.9335(2)
N2 N 0.5535(3) 0.5114(3) 0.8941(2)
N3 N 0.5567(3) 0.6490(3) 0.8902(2)
N4 N 0.5773(3) 0.7305(3) 0.8700(3)
H17 H 0.5330 0.7531 0.8509
H18 H 0.5911 0.7619 0.9029
N5 N 0.9763(3) 0.8124(3) 0.7577(2)
N6 N 0.1199(3) 0.8737(3) 0.8378(2)
C39 C 0.7200(4) 0.4585(4) 0.9795(3)
H27 H 0.7026 0.5064 0.9582
C40 C 0.7783(4) 0.4036(4) 0.9531(3)
H28 H 0.7982 0.4136 0.9130
C41 C 0.8072(4) 0.3338(4) 0.9862(3)
H29 H 0.8467 0.2981 0.9681
N13 N 0.5237(3) 0.3124(3) 0.9923(2)
N16 N 0.3801(3) 0.3737(3) 0.9122(2)
C1_2 C 0.0683(4) 0.1974(4) 0.3099(3)
H1_2 H 0.0603 0.1586 0.3419
C2_2 C 0.1252(4) 0.2611(4) 0.3193(3)
H2_2 H 0.1535 0.2649 0.3572
C3_2 C 0.1410(4) 0.3198(4) 0.2729(3)
C4_2 C 0.0925(4) 0.3113(4) 0.2194(3)
H3_2 H 0.0978 0.3502 0.1872
C5_2 C 0.0359(4) 0.2447(4) 0.2139(3)
H4_2 H 0.0049 0.2403 0.1772
C6_2 C 0.2062(4) 0.3856(4) 0.2786(3)
C7_2 C 0.2074(4) 0.4573(4) 0.2412(3)
H5_2 H 0.1654 0.4648 0.2115
C8_2 C 0.2696(4) 0.5173(4) 0.2474(4)
H6_2 H 0.2665 0.5666 0.2242
C9_2 C 0.3362(4) 0.5049(4) 0.2874(3)
H7_2 H 0.3793 0.5444 0.2900
C10_2 C 0.3384(3) 0.4328(4) 0.3237(3)
C11_2 C 0.2742(4) 0.3742(4) 0.3194(3)
H8_2 H 0.2763 0.3261 0.3442
C12_2 C 0.4079(3) 0.4244(3) 0.3681(2)
C13_2 C 0.5048(3) 0.3743(4) 0.4310(2)
C14_2 C 0.5600(4) 0.3117(3) 0.4612(2)
C15_2 C 0.5415(4) 0.2800(4) 0.5205(3)
H9_2 H 0.4936 0.2974 0.5418
C16_2 C 0.5964(4) 0.2217(4) 0.5469(3)
H10_2 H 0.5864 0.2018 0.5870
C17_2 C 0.6662(4) 0.1928(4) 0.5138(3)
H11_2 H 0.7019 0.1533 0.5319
C18_2 C 0.6830(4) 0.2216(4) 0.4550(3)
C19_2 C 0.6288(4) 0.2837(4) 0.4293(3)
H12_2 H 0.6405 0.3057 0.3901
C20_2 C 0.7545(4) 0.1912(4) 0.4171(3)
C21_2 C 0.7982(4) 0.1169(4) 0.4304(3)
H13_2 H 0.7858 0.0872 0.4667
C22_2 C 0.8592(4) 0.0871(4) 0.3906(3)
H14_2 H 0.8871 0.0375 0.4009
C23_2 C 0.8437(4) 0.2002(4) 0.3269(3)
H15_2 H 0.8604 0.2302 0.2917
C24_2 C 0.7834(4) 0.2347(4) 0.3641(3)
H16_2 H 0.7611 0.2872 0.3544
Cd1_3 Cd 0.55959(2) 0.55959(2) 0.5000
N1_2 N 0.5069(3) 0.4558(3) 0.4335(2)
N2_2 N 0.4465(3) 0.4886(3) 0.3941(2)
N3_2 N 0.4433(3) 0.3510(3) 0.3902(2)
N4_2 N 0.4227(3) 0.2695(3) 0.3700(3)
H17_2 H 0.4670 0.2469 0.3509
H18_2 H 0.4089 0.2381 0.4029
N5_2 N 0.0237(3) 0.1876(3) 0.2577(2)
N6_2 N 0.8801(3) 0.1263(3) 0.3378(2)
C25_2 C 0.1974(4) 0.0683(4) 0.6901(3)
H19_2 H 0.1586 0.0603 0.6581
C26_2 C 0.2611(4) 0.1252(4) 0.6807(3)
H20_2 H 0.2649 0.1535 0.6428
C27_2 C 0.3198(4) 0.1410(4) 0.7271(3)
C28_2 C 0.3113(4) 0.0925(4) 0.7806(3)
H21_2 H 0.3502 0.0978 0.8128
C29_2 C 0.2447(4) 0.0359(4) 0.7861(3)
H22_2 H 0.2403 0.0049 0.8228
C30_2 C 0.3856(4) 0.2062(4) 0.7214(3)
C31_2 C 0.4573(4) 0.2074(4) 0.7588(3)
H23_2 H 0.4648 0.1654 0.7885
C32_2 C 0.5173(4) 0.2696(4) 0.7526(4)
H24_2 H 0.5666 0.2665 0.7758
C33_2 C 0.5049(4) 0.3362(4) 0.7126(3)
H25_2 H 0.5444 0.3793 0.7100
C34_2 C 0.4328(4) 0.3384(3) 0.6763(3)
C35_2 C 0.3742(4) 0.2742(4) 0.6806(3)
H26_2 H 0.3261 0.2763 0.6558
C36_2 C 0.4244(3) 0.4079(3) 0.6319(2)
C37_2 C 0.3743(4) 0.5048(3) 0.5690(2)
C38_2 C 0.3117(3) 0.5600(4) 0.5388(2)
C39_2 C 0.2800(4) 0.5415(4) 0.4795(3)
H27_2 H 0.2974 0.4936 0.4582
C40_2 C 0.2217(4) 0.5964(4) 0.4531(3)
H28_2 H 0.2018 0.5864 0.4130
C41_2 C 0.1928(4) 0.6662(4) 0.4862(3)
H29_2 H 0.1533 0.7019 0.4681
C42_2 C 0.2216(4) 0.6830(4) 0.5450(3)
C43_2 C 0.2837(4) 0.6288(4) 0.5707(3)
H30_2 H 0.3057 0.6405 0.6099
C44_2 C 0.1912(4) 0.7545(4) 0.5829(3)
C45_2 C 0.1169(4) 0.7982(4) 0.5696(3)
H31_2 H 0.0872 0.7858 0.5333
C46_2 C 0.0871(4) 0.8592(4) 0.6094(3)
H32_2 H 0.0375 0.8871 0.5991
C47_2 C 0.2002(4) 0.8437(4) 0.6731(3)
H33_2 H 0.2302 0.8604 0.7083
C48_2 C 0.2347(4) 0.7834(4) 0.6359(3)
H34_2 H 0.2872 0.7611 0.6456
N7_2 N 0.4558(3) 0.5069(3) 0.5665(2)
N8_2 N 0.4886(3) 0.4465(3) 0.6059(2)
N9_2 N 0.3510(3) 0.4433(3) 0.6098(2)
N10_2 N 0.2695(3) 0.4227(3) 0.6300(3)
H35_2 H 0.2469 0.4670 0.6491
H36_2 H 0.2381 0.4089 0.5971
N11_2 N 0.1876(3) 0.0237(3) 0.7423(2)
N12_2 N 0.6876(3) 0.4763(3) 0.5077(2)
N13_2 N 0.4763(3) 0.6876(3) 0.4923(2)
N14_2 N 0.1263(3) 0.8801(3) 0.6622(2)
N15_2 N 0.6263(3) 0.6199(3) 0.5878(2)
N16_2 N 0.6199(3) 0.6263(3) 0.4122(2)
C8_3 C 0.0173(4) 0.2304(4) 0.4974(4)
H6_3 H 0.0666 0.2335 0.4742
C9_3 C 0.0049(4) 0.1638(4) 0.5374(3)
H7_3 H 0.0444 0.1207 0.5400
C37_3 C 0.0048(3) 0.1257(4) 0.8190(2)
C38_3 C 0.0600(4) 0.1883(3) 0.7888(2)
C39_3 C 0.0415(4) 0.2200(4) 0.7295(3)
C40_3 C 0.0964(4) 0.2783(4) 0.7031(3)
H28_3 H 0.0864 0.2982 0.6630
C41_3 C 0.1662(4) 0.3072(4) 0.7362(3)
H29_3 H 0.2019 0.3467 0.7181
C42_3 C 0.1830(4) 0.2784(4) 0.7950(3)
C43_3 C 0.1288(4) 0.2163(4) 0.8207(3)
H30_3 H 0.1405 0.1943 0.8599
C44_3 C 0.2545(4) 0.3088(4) 0.8329(3)
C45_3 C 0.2982(4) 0.3831(4) 0.8196(3)
H31_3 H 0.2858 0.4128 0.7833
C46_3 C 0.3592(4) 0.4129(4) 0.8594(3)
H32_3 H 0.3871 0.4625 0.8491
C47_3 C 0.3437(4) 0.2998(4) 0.9231(3)
H33_3 H 0.3604 0.2698 0.9583
C48_3 C 0.2834(4) 0.2653(4) 0.8859(3)
H34_3 H 0.2611 0.2128 0.8956
N7_3 N 0.0069(3) 0.0442(3) 0.8165(2)
C28_3 C 0.5925(4) 0.1887(4) 0.0306(3)
H21_3 H 0.5978 0.1498 0.0628
C29_3 C 0.5359(4) 0.2553(4) 0.0361(3)
H22_3 H 0.5049 0.2597 0.0728
C31_3 C 0.7074(4) 0.0427(4) 0.0088(3)
H23_3 H 0.6654 0.0352 0.0385
C1_3 C 0.6974(4) 0.4317(4) 0.5599(3)
H1_3 H 0.6586 0.4397 0.5919
C2_3 C 0.7611(4) 0.3748(4) 0.5693(3)
H2_3 H 0.7649 0.3465 0.6072
C3_3 C 0.8198(4) 0.3590(4) 0.5229(3)
C4_3 C 0.8113(4) 0.4075(4) 0.4694(3)
H3_3 H 0.8502 0.4022 0.4372
C5_3 C 0.7447(4) 0.4641(4) 0.4639(3)
H4_3 H 0.7403 0.4951 0.4272
C6_3 C 0.8856(4) 0.2938(4) 0.5286(3)
C7_3 C 0.9573(4) 0.2926(4) 0.4912(3)
H5_3 H 0.9648 0.3346 0.4615
C10_3 C 0.9328(4) 0.1616(3) 0.5737(3)
C11_3 C 0.8742(4) 0.2258(4) 0.5694(3)
H8_3 H 0.8261 0.2237 0.5942
C12_3 C 0.9244(3) 0.0921(3) 0.6181(2)
H9_3 H 0.7974 0.0064 0.7918
N2_3 N 0.9886(3) 0.0535(3) 0.6441(2)
N3_3 N 0.8510(3) 0.0567(3) 0.6402(2)
N4_3 N 0.7695(3) 0.0773(3) 0.6200(3)
H17_3 H 0.7469 0.0330 0.6009
H18_3 H 0.7381 0.0911 0.6529
C25_3 C 0.5683(4) 0.3026(4) 0.9401(3)
H19_3 H 0.5603 0.3414 0.9081
C26_3 C 0.6252(4) 0.2389(4) 0.9307(3)
H20_3 H 0.6535 0.2351 0.8928
C27_3 C 0.6410(4) 0.1802(4) 0.9771(3)
C30_3 C 0.7062(4) 0.1144(4) 0.9714(3)
C34_3 C 0.8384(3) 0.0672(4) 0.9263(3)
C35_3 C 0.7742(4) 0.1258(4) 0.9306(3)
H26_3 H 0.7763 0.1739 0.9058
C36_3 C 0.9079(3) 0.0756(3) 0.8819(2)
H27_3 H 0.9936 0.2026 0.7082
N8_3 N 0.9465(3) 0.0114(3) 0.8559(2)
N9_3 N 0.9433(3) 0.1490(3) 0.8598(2)
N10_3 N 0.9227(3) 0.2305(3) 0.8800(3)
H35_3 H 0.9670 0.2531 0.8991
H36_3 H 0.9089 0.2619 0.8471
C13_3 C 0.8743(4) 0.9952(3) 0.6810(2)
C14_3 C 0.8117(3) 0.9400(4) 0.7112(2)
C15_3 C 0.7800(4) 0.9585(4) 0.7705(3)
C16_3 C 0.7217(4) 0.9036(4) 0.7969(3)
H10_3 H 0.7018 0.9136 0.8370
C17_3 C 0.6928(4) 0.8338(4) 0.7638(3)
H11_3 H 0.6533 0.7981 0.7819
C18_3 C 0.7216(4) 0.8170(4) 0.7050(3)
C19_3 C 0.7837(4) 0.8712(4) 0.6793(3)
H12_3 H 0.8057 0.8595 0.6401
C20_3 C 0.6912(4) 0.7455(4) 0.6671(3)
C21_3 C 0.6169(4) 0.7018(4) 0.6804(3)
H13_3 H 0.5872 0.7142 0.7167
C22_3 C 0.5871(4) 0.6408(4) 0.6406(3)
H14_3 H 0.5375 0.6129 0.6509
C23_3 C 0.7002(4) 0.6563(4) 0.5769(3)
H15_3 H 0.7302 0.6396 0.5417
C24_3 C 0.7347(4) 0.7166(4) 0.6141(3)
H16_3 H 0.7872 0.7389 0.6044
N1_3 N 0.9558(3) 0.9931(3) 0.6835(2)
C33_3 C 0.8362(4) 0.9951(4) 0.9626(3)
H25_3 H 0.8793 0.9556 0.9600
C13_4 C 0.1257(4) 0.0048(3) 0.1810(2)
C14_4 C 0.1883(3) 0.0600(4) 0.2112(2)
C15_4 C 0.2200(4) 0.0415(4) 0.2705(3)
C16_4 C 0.2783(4) 0.0964(4) 0.2969(3)
H10_4 H 0.2982 0.0864 0.3370
C17_4 C 0.3072(4) 0.1662(4) 0.2638(3)
H11_4 H 0.3467 0.2019 0.2819
C18_4 C 0.2784(4) 0.1830(4) 0.2050(3)
C19_4 C 0.2163(4) 0.1288(4) 0.1793(3)
H12_4 H 0.1943 0.1405 0.1401
C20_4 C 0.3088(4) 0.2545(4) 0.1671(3)
C21_4 C 0.3831(4) 0.2982(4) 0.1804(3)
H13_4 H 0.4128 0.2858 0.2167
C22_4 C 0.4129(4) 0.3592(4) 0.1406(3)
H14_4 H 0.4625 0.3871 0.1509
C23_4 C 0.2998(4) 0.3437(4) 0.0769(3)
H15_4 H 0.2698 0.3604 0.0417
C24_4 C 0.2653(4) 0.2834(4) 0.1141(3)
H16_4 H 0.2128 0.2611 0.1044
N1_4 N 0.0442(3) 0.0069(3) 0.1835(2)
C32_3 C 0.2304(4) 0.0173(4) 0.5026(4)
H24_3 H 0.2335 0.0666 0.5258
C33_4 C 0.1638(4) 0.0049(4) 0.4626(3)
H25_4 H 0.1207 0.0444 0.4600
C1_4 C 0.3026(4) 0.5683(4) 0.0599(3)
H1_4 H 0.3414 0.5603 0.0919
C2_4 C 0.2389(4) 0.6252(4) 0.0693(3)
H2_4 H 0.2351 0.6535 0.1072
C3_4 C 0.1802(4) 0.6410(4) 0.0229(3)
C6_4 C 0.1144(4) 0.7062(4) 0.0286(3)
C10_4 C 0.0672(4) 0.8384(3) 0.0737(3)
C11_4 C 0.1258(4) 0.7742(4) 0.0694(3)
H8_4 H 0.1739 0.7763 0.0942
C12_4 C 0.0756(3) 0.9079(3) 0.1181(2)
H9_4 H 0.2026 0.9936 0.2918
N2_4 N 0.0114(3) 0.9465(3) 0.1441(2)
N3_4 N 0.1490(3) 0.9433(3) 0.1402(2)
N4_4 N 0.2305(3) 0.9227(3) 0.1200(3)
H17_4 H 0.2531 0.9670 0.1009
H18_4 H 0.2619 0.9089 0.1529
C25_4 C 0.4317(4) 0.6974(4) 0.4401(3)
H19_4 H 0.4397 0.6586 0.4081
C26_4 C 0.3748(4) 0.7611(4) 0.4307(3)
H20_4 H 0.3465 0.7649 0.3928
C27_4 C 0.3590(4) 0.8198(4) 0.4771(3)
C28_4 C 0.4075(4) 0.8113(4) 0.5306(3)
H21_4 H 0.4022 0.8502 0.5628
C29_4 C 0.4641(4) 0.7447(4) 0.5361(3)
H22_4 H 0.4951 0.7403 0.5728
C30_4 C 0.2938(4) 0.8856(4) 0.4714(3)
C31_4 C 0.2926(4) 0.9573(4) 0.5088(3)
H23_4 H 0.3346 0.9648 0.5385
C34_4 C 0.1616(3) 0.9328(4) 0.4263(3)
C35_4 C 0.2258(4) 0.8742(4) 0.4306(3)
H26_4 H 0.2237 0.8261 0.4058
C36_4 C 0.0921(3) 0.9244(3) 0.3819(2)
H27_4 H 0.0064 0.7974 0.2082
N8_4 N 0.0535(3) 0.9886(3) 0.3559(2)
N9_4 N 0.0567(3) 0.8510(3) 0.3598(2)
N10_4 N 0.0773(3) 0.7695(3) 0.3800(3)
H35_4 H 0.0330 0.7469 0.3991
H36_4 H 0.0911 0.7381 0.3471
C4_4 C 0.1887(4) 0.5925(4) 0.9694(3)
H3_4 H 0.1498 0.5978 0.9372
C5_4 C 0.2553(4) 0.5359(4) 0.9639(3)
H4_4 H 0.2597 0.5049 0.9272
C7_4 C 0.0427(4) 0.7074(4) 0.9912(3)
H5_4 H 0.0352 0.6654 0.9615
C9_4 C 0.9951(4) 0.8362(4) 0.0374(3)
H7_4 H 0.9556 0.8793 0.0400
C37_4 C 0.9952(3) 0.8743(4) 0.3190(2)
C38_4 C 0.9400(4) 0.8117(3) 0.2888(2)
C39_4 C 0.9585(4) 0.7800(4) 0.2295(3)
C40_4 C 0.9036(4) 0.7217(4) 0.2031(3)
H28_4 H 0.9136 0.7018 0.1630
C41_4 C 0.8338(4) 0.6928(4) 0.2362(3)
H29_4 H 0.7981 0.6533 0.2181
C42_4 C 0.8170(4) 0.7216(4) 0.2950(3)
C43_4 C 0.8712(4) 0.7837(4) 0.3207(3)
H30_4 H 0.8595 0.8057 0.3599
C44_4 C 0.7455(4) 0.6912(4) 0.3329(3)
C45_4 C 0.7018(4) 0.6169(4) 0.3196(3)
H31_4 H 0.7142 0.5872 0.2833
C46_4 C 0.6408(4) 0.5871(4) 0.3594(3)
H32_4 H 0.6129 0.5375 0.3491
C47_4 C 0.6563(4) 0.7002(4) 0.4231(3)
H33_4 H 0.6396 0.7302 0.4583
C48_4 C 0.7166(4) 0.7347(4) 0.3859(3)
H34_4 H 0.7389 0.7872 0.3956
N7_4 N 0.9931(3) 0.9558(3) 0.3165(2)
C32_4 C 0.7696(4) 0.9827(4) 0.0026(4)
H24_4 H 0.7665 0.9334 0.0258
C8_4 C 0.9827(4) 0.7696(4) 0.9974(4)
H6_4 H 0.9334 0.7665 0.9742
Cl1 Cl 0.73207(11) 0.73207(11) 0.0000
O2 O 0.6560(7) 0.7797(10) 0.0099(9)
O3 O 0.7717(5) 0.7609(6) 0.0532(2)
Cl1_2 Cl 0.73207(11) 0.73207(11) 1.0000
O1 O 0.7609(6) 0.7717(5) 0.9468(2)
O4 O 0.7797(10) 0.6560(7) 0.9901(9)
Cl1_3 Cl 0.26793(11) 0.26793(11) 0.5000
O1_2 O 0.2391(6) 0.2283(5) 0.4468(2)
O2_2 O 0.3440(7) 0.2203(10) 0.5099(9)
O3_2 O 0.2283(5) 0.2391(6) 0.5532(2)
O4_2 O 0.2203(10) 0.3440(7) 0.4901(9)
Cl1_4 Cl 0.76793(11) 0.23207(11) 0.7500
O1_3 O 0.7283(5) 0.2609(6) 0.6968(2)
O2_3 O 0.7203(10) 0.1560(7) 0.7599(9)
O3_3 O 0.7391(6) 0.2717(5) 0.8032(2)
O4_3 O 0.8440(7) 0.2797(10) 0.7401(9)
Cl1_5 Cl 0.23207(11) 0.76793(11) 0.2500
O1_4 O 0.2717(5) 0.7391(6) 0.1968(2)
O2_4 O 0.2797(10) 0.8440(7) 0.2599(9)
O3_4 O 0.2609(6) 0.7283(5) 0.3032(2)
O4_4 O 0.1560(7) 0.7203(10) 0.2401(9)
Cl2 Cl 0.62113(14) 0.37887(14) 0.2500
O5 O 0.6692(8) 0.4026(6) 0.3043(5)
O6 O 0.6497(13) 0.4408(9) 0.2098(6)
O7 O 0.5974(6) 0.3308(8) 0.1957(5)
O8 O 0.5592(9) 0.3503(13) 0.2902(6)
Cl2_2 Cl 0.37887(14) 0.62113(14) 0.7500
O5_2 O 0.3308(8) 0.5974(6) 0.8043(5)
O6_2 O 0.3503(13) 0.5592(9) 0.7098(6)
O7_2 O 0.4026(6) 0.6692(8) 0.6957(5)
O8_2 O 0.4408(9) 0.6497(13) 0.7902(6)
Cl2_3 Cl 0.12113(14) 0.12113(14) 0.0000
O5_3 O 0.0974(6) 0.1692(8) 0.0543(5)
O8_3 O 0.1497(13) 0.0592(9) 0.0402(6)
Cl2_4 Cl 0.12113(14) 0.12113(14) 1.0000
O6_3 O 0.0592(9) 0.1497(13) 0.9598(6)
O7_3 O 0.1692(8) 0.0974(6) 0.9457(5)
Cl2_5 Cl 0.87887(14) 0.87887(14) 0.5000
O5_4 O 0.9026(6) 0.8308(8) 0.5543(5)
O6_4 O 0.9408(9) 0.8503(13) 0.4598(6)
O7_4 O 0.8308(8) 0.9026(6) 0.4457(5)
O8_4 O 0.8503(13) 0.9408(9) 0.5402(6)
loop_
_geom_bond_atom_site_label_1
_geom_bond_atom_site_label_2
_geom_bond_site_symmetry_1
_geom_bond_site_symmetry_2
C15 H9 1_555 1_555
C16 C15 1_555 1_555
H10 C16 1_555 1_555
C17 C16 1_555 1_555
H11 C17 1_555 1_555
C25 H19 1_555 1_555
C26 C25 1_555 1_555
H20 C26 1_555 1_555
C27 C26 1_555 1_555
C28 C27 1_555 1_555
H21 C28 1_555 1_555
C29 C28 1_555 1_555
H22 C29 1_555 1_555
C30 C27 1_555 1_555
C31 C30 1_555 1_555
H23 C31 1_555 1_555
C32 C31 1_555 1_555
H24 C32 1_555 1_555
C33 C32 1_555 1_555
H25 C33 1_555 1_555
C34 C33 1_555 1_555
C35 C30 1_555 1_555
H26 C35 1_555 1_555
C36 C34 1_555 1_555
C37 C38 1_555 1_555
C43 C38 1_555 1_555
H30 C43 1_555 1_555
C44 C42 1_555 1_555
C45 C44 1_555 1_555
H31 C45 1_555 1_555
C46 C45 1_555 1_555
H32 C46 1_555 1_555
C47 H33 1_555 1_555
C48 C44 1_555 1_555
H34 C48 1_555 1_555
Cd4 N14 1_555 1_555
N7 Cd1 1_555 1_555
N8 C36 1_555 1_555
N9 C36 1_555 1_555
N10 N9 1_555 1_555
H35 N10 1_555 1_555
H36 N10 1_555 1_555
N11 C25 1_555 1_555
N12 Cd1 1_555 1_555
N14 C46 1_555 1_555
N15 Cd1 1_555 1_555
C29 N11 1_555 1_555
C34 C35 1_555 1_555
C37 N7 1_555 1_555
C37 N9 1_555 1_555
C42 C43 1_555 1_555
C47 C48 1_555 1_555
C47 N14 1_555 1_555
N7 N8 1_555 1_555
C1 H1 1_555 1_555
C2 C1 1_555 1_555
H2 C2 1_555 1_555
C3 C2 1_555 1_555
C4 C3 1_555 1_555
H3 C4 1_555 1_555
C5 C4 1_555 1_555
H4 C5 1_555 1_555
C6 C3 1_555 1_555
C7 C6 1_555 1_555
H5 C7 1_555 1_555
C8 C7 1_555 1_555
H6 C8 1_555 1_555
C9 C8 1_555 1_555
H7 C9 1_555 1_555
C10 C9 1_555 1_555
C11 C6 1_555 1_555
H8 C11 1_555 1_555
C12 C10 1_555 1_555
C13 C14 1_555 1_555
C19 C14 1_555 1_555
H12 C19 1_555 1_555
C20 C18 1_555 1_555
C21 C20 1_555 1_555
H13 C21 1_555 1_555
C22 C21 1_555 1_555
H14 C22 1_555 1_555
C23 H15 1_555 1_555
C24 C20 1_555 1_555
H16 C24 1_555 1_555
Cd1_2 N1 1_555 1_555
N1 C13 1_555 1_555
N2 C12 1_555 1_555
N3 C12 1_555 1_555
N4 N3 1_555 1_555
H17 N4 1_555 1_555
H18 N4 1_555 1_555
N5 C1 1_555 1_555
N6 C22 1_555 1_555
C39 H27 1_555 1_555
C40 C39 1_555 1_555
H28 C40 1_555 1_555
C41 C40 1_555 1_555
H29 C41 1_555 1_555
Cd2 N6 1_555 1_555
N13 Cd1_2 1_555 1_555
N16 Cd1_2 1_555 1_555
C5 N5 1_555 1_555
C10 C11 1_555 1_555
C13 N3 1_555 1_555
C18 C19 1_555 1_555
C23 C24 1_555 1_555
C23 N6 1_555 1_555
N1 N2 1_555 1_555
C1_2 H1_2 1_555 1_555
C2_2 C1_2 1_555 1_555
H2_2 C2_2 1_555 1_555
C3_2 C2_2 1_555 1_555
C4_2 C3_2 1_555 1_555
H3_2 C4_2 1_555 1_555
C5_2 C4_2 1_555 1_555
H4_2 C5_2 1_555 1_555
C6_2 C3_2 1_555 1_555
C7_2 C6_2 1_555 1_555
H5_2 C7_2 1_555 1_555
C8_2 C7_2 1_555 1_555
H6_2 C8_2 1_555 1_555
C9_2 C8_2 1_555 1_555
H7_2 C9_2 1_555 1_555
C10_2 C9_2 1_555 1_555
C11_2 C6_2 1_555 1_555
H8_2 C11_2 1_555 1_555
C12_2 C10_2 1_555 1_555
C13_2 C14_2 1_555 1_555
C14_2 C15_2 1_555 1_555
C15_2 H9_2 1_555 1_555
C16_2 C15_2 1_555 1_555
H10_2 C16_2 1_555 1_555
C17_2 C16_2 1_555 1_555
H11_2 C17_2 1_555 1_555
C18_2 C17_2 1_555 1_555
C19_2 C14_2 1_555 1_555
H12_2 C19_2 1_555 1_555
C20_2 C18_2 1_555 1_555
C21_2 C20_2 1_555 1_555
H13_2 C21_2 1_555 1_555
C22_2 C21_2 1_555 1_555
H14_2 C22_2 1_555 1_555
C23_2 H15_2 1_555 1_555
C24_2 C20_2 1_555 1_555
H16_2 C24_2 1_555 1_555
Cd1_3 N1_2 1_555 1_555
N1_2 C13_2 1_555 1_555
N2_2 C12_2 1_555 1_555
N3_2 C12_2 1_555 1_555
N4_2 N3_2 1_555 1_555
H17_2 N4_2 1_555 1_555
H18_2 N4_2 1_555 1_555
N5_2 C1_2 1_555 1_555
N6_2 C22_2 1_555 1_555
C25_2 H19_2 1_555 1_555
C26_2 C25_2 1_555 1_555
H20_2 C26_2 1_555 1_555
C27_2 C26_2 1_555 1_555
C28_2 C27_2 1_555 1_555
H21_2 C28_2 1_555 1_555
C29_2 C28_2 1_555 1_555
H22_2 C29_2 1_555 1_555
C30_2 C27_2 1_555 1_555
C31_2 C30_2 1_555 1_555
H23_2 C31_2 1_555 1_555
C32_2 C31_2 1_555 1_555
H24_2 C32_2 1_555 1_555
C33_2 C32_2 1_555 1_555
H25_2 C33_2 1_555 1_555
C34_2 C33_2 1_555 1_555
C35_2 C30_2 1_555 1_555
H26_2 C35_2 1_555 1_555
C36_2 C34_2 1_555 1_555
C37_2 C38_2 1_555 1_555
C38_2 C39_2 1_555 1_555
C39_2 H27_2 1_555 1_555
C40_2 C39_2 1_555 1_555
H28_2 C40_2 1_555 1_555
C41_2 C40_2 1_555 1_555
H29_2 C41_2 1_555 1_555
C42_2 C41_2 1_555 1_555
C43_2 C38_2 1_555 1_555
H30_2 C43_2 1_555 1_555
C44_2 C42_2 1_555 1_555
C45_2 C44_2 1_555 1_555
H31_2 C45_2 1_555 1_555
C46_2 C45_2 1_555 1_555
H32_2 C46_2 1_555 1_555
C47_2 H33_2 1_555 1_555
C48_2 C44_2 1_555 1_555
H34_2 C48_2 1_555 1_555
Cd4 N6_2 1_555 1_555
Cd2 N14_2 1_555 1_555
N7_2 Cd1_3 1_555 1_555
N8_2 C36_2 1_555 1_555
N9_2 C36_2 1_555 1_555
N10_2 N9_2 1_555 1_555
H35_2 N10_2 1_555 1_555
H36_2 N10_2 1_555 1_555
N11_2 C25_2 1_555 1_555
N12_2 Cd1_3 1_555 1_555
N13_2 Cd1_3 1_555 1_555
N14_2 C46_2 1_555 1_555
N15_2 Cd1_3 1_555 1_555
N16_2 Cd1_3 1_555 1_555
C5_2 N5_2 1_555 1_555
C10_2 C11_2 1_555 1_555
C13_2 N3_2 1_555 1_555
C18_2 C19_2 1_555 1_555
C23_2 C24_2 1_555 1_555
C23_2 N6_2 1_555 1_555
N1_2 N2_2 1_555 1_555
C29_2 N11_2 1_555 1_555
C34_2 C35_2 1_555 1_555
C37_2 N7_2 1_555 1_555
C37_2 N9_2 1_555 1_555
C42_2 C43_2 1_555 1_555
C47_2 C48_2 1_555 1_555
C47_2 N14_2 1_555 1_555
N7_2 N8_2 1_555 1_555
H6_3 C8_3 1_555 1_555
C9_3 C8_3 1_555 1_555
H7_3 C9_3 1_555 1_555
C37_3 C38_3 1_555 1_555
C38_3 C39_3 1_555 1_555
C40_3 C39_3 1_555 1_555
H28_3 C40_3 1_555 1_555
C41_3 C40_3 1_555 1_555
H29_3 C41_3 1_555 1_555
C42_3 C41_3 1_555 1_555
C43_3 C38_3 1_555 1_555
H30_3 C43_3 1_555 1_555
C44_3 C42_3 1_555 1_555
C45_3 C44_3 1_555 1_555
H31_3 C45_3 1_555 1_555
C46_3 C45_3 1_555 1_555
H32_3 C46_3 1_555 1_555
C47_3 H33_3 1_555 1_555
C48_3 C44_3 1_555 1_555
H34_3 C48_3 1_555 1_555
N16 C46_3 1_555 1_555
C37_3 N7_3 1_555 1_555
C42_3 C43_3 1_555 1_555
C47_3 C48_3 1_555 1_555
C47_3 N16 1_555 1_555
H21_3 C28_3 1_555 1_555
C29_3 C28_3 1_555 1_555
H22_3 C29_3 1_555 1_555
H23_3 C31_3 1_555 1_555
C1_3 H1_3 1_555 1_555
C2_3 C1_3 1_555 1_555
H2_3 C2_3 1_555 1_555
C3_3 C2_3 1_555 1_555
C4_3 C3_3 1_555 1_555
H3_3 C4_3 1_555 1_555
C5_3 C4_3 1_555 1_555
H4_3 C5_3 1_555 1_555
C6_3 C3_3 1_555 1_555
C7_3 C6_3 1_555 1_555
H5_3 C7_3 1_555 1_555
C11_3 C6_3 1_555 1_555
H8_3 C11_3 1_555 1_555
C12_3 C10_3 1_555 1_555
N2_3 C12_3 1_555 1_555
N3_3 C12_3 1_555 1_555
N4_3 N3_3 1_555 1_555
H17_3 N4_3 1_555 1_555
H18_3 N4_3 1_555 1_555
N12_2 C1_3 1_555 1_555
C25_3 H19_3 1_555 1_555
C26_3 C25_3 1_555 1_555
H20_3 C26_3 1_555 1_555
C27_3 C26_3 1_555 1_555
C30_3 C27_3 1_555 1_555
C35_3 C30_3 1_555 1_555
H26_3 C35_3 1_555 1_555
C36_3 C34_3 1_555 1_555
N8_3 C36_3 1_555 1_555
N9_3 C36_3 1_555 1_555
N10_3 N9_3 1_555 1_555
H35_3 N10_3 1_555 1_555
H36_3 N10_3 1_555 1_555
N13 C25_3 1_555 1_555
C5_3 N12_2 1_555 1_555
C10_3 C11_3 1_555 1_555
C34_3 C35_3 1_555 1_555
C13_3 C14_3 1_555 1_555
C14_3 C15_3 1_555 1_555
C16_3 C15_3 1_555 1_555
H10_3 C16_3 1_555 1_555
C17_3 C16_3 1_555 1_555
H11_3 C17_3 1_555 1_555
C18_3 C17_3 1_555 1_555
C19_3 C14_3 1_555 1_555
H12_3 C19_3 1_555 1_555
C20_3 C18_3 1_555 1_555
C21_3 C20_3 1_555 1_555
H13_3 C21_3 1_555 1_555
C22_3 C21_3 1_555 1_555
H14_3 C22_3 1_555 1_555
C23_3 H15_3 1_555 1_555
C24_3 C20_3 1_555 1_555
H16_3 C24_3 1_555 1_555
N1_3 C13_3 1_555 1_555
N15_2 C22_3 1_555 1_555
H25_3 C33_3 1_555 1_555
C18_3 C19_3 1_555 1_555
C23_3 C24_3 1_555 1_555
C23_3 N15_2 1_555 1_555
C13_4 C14_4 1_555 1_555
C14_4 C15_4 1_555 1_555
C16_4 C15_4 1_555 1_555
H10_4 C16_4 1_555 1_555
C17_4 C16_4 1_555 1_555
H11_4 C17_4 1_555 1_555
C18_4 C17_4 1_555 1_555
C19_4 C14_4 1_555 1_555
H12_4 C19_4 1_555 1_555
C20_4 C18_4 1_555 1_555
C21_4 C20_4 1_555 1_555
H13_4 C21_4 1_555 1_555
C22_4 C21_4 1_555 1_555
H14_4 C22_4 1_555 1_555
C23_4 H15_4 1_555 1_555
C24_4 C20_4 1_555 1_555
H16_4 C24_4 1_555 1_555
N1_4 C13_4 1_555 1_555
N15 C22_4 1_555 1_555
H24_3 C32_3 1_555 1_555
C33_4 C32_3 1_555 1_555
H25_4 C33_4 1_555 1_555
C18_4 C19_4 1_555 1_555
C23_4 C24_4 1_555 1_555
C23_4 N15 1_555 1_555
C1_4 H1_4 1_555 1_555
C2_4 C1_4 1_555 1_555
H2_4 C2_4 1_555 1_555
C3_4 C2_4 1_555 1_555
C6_4 C3_4 1_555 1_555
C11_4 C6_4 1_555 1_555
H8_4 C11_4 1_555 1_555
C12_4 C10_4 1_555 1_555
N2_4 C12_4 1_555 1_555
N3_4 C12_4 1_555 1_555
N4_4 N3_4 1_555 1_555
H17_4 N4_4 1_555 1_555
H18_4 N4_4 1_555 1_555
N12 C1_4 1_555 1_555
C25_4 H19_4 1_555 1_555
C26_4 C25_4 1_555 1_555
H20_4 C26_4 1_555 1_555
C27_4 C26_4 1_555 1_555
C28_4 C27_4 1_555 1_555
H21_4 C28_4 1_555 1_555
C29_4 C28_4 1_555 1_555
H22_4 C29_4 1_555 1_555
C30_4 C27_4 1_555 1_555
C31_4 C30_4 1_555 1_555
H23_4 C31_4 1_555 1_555
C35_4 C30_4 1_555 1_555
H26_4 C35_4 1_555 1_555
C36_4 C34_4 1_555 1_555
N8_4 C36_4 1_555 1_555
N9_4 C36_4 1_555 1_555
N10_4 N9_4 1_555 1_555
H35_4 N10_4 1_555 1_555
H36_4 N10_4 1_555 1_555
N13_2 C25_4 1_555 1_555
C10_4 C11_4 1_555 1_555
C29_4 N13_2 1_555 1_555
C34_4 C35_4 1_555 1_555
H3_4 C4_4 1_555 1_555
C5_4 C4_4 1_555 1_555
H4_4 C5_4 1_555 1_555
H5_4 C7_4 1_555 1_555
H7_4 C9_4 1_555 1_555
C37_4 C38_4 1_555 1_555
C38_4 C39_4 1_555 1_555
C40_4 C39_4 1_555 1_555
H28_4 C40_4 1_555 1_555
C41_4 C40_4 1_555 1_555
H29_4 C41_4 1_555 1_555
C42_4 C41_4 1_555 1_555
C43_4 C38_4 1_555 1_555
H30_4 C43_4 1_555 1_555
C44_4 C42_4 1_555 1_555
C45_4 C44_4 1_555 1_555
H31_4 C45_4 1_555 1_555
C46_4 C45_4 1_555 1_555
H32_4 C46_4 1_555 1_555
C47_4 H33_4 1_555 1_555
C48_4 C44_4 1_555 1_555
H34_4 C48_4 1_555 1_555
N16_2 C46_4 1_555 1_555
C37_4 N7_4 1_555 1_555
C42_4 C43_4 1_555 1_555
C47_4 C48_4 1_555 1_555
C47_4 N16_2 1_555 1_555
H24_4 C32_4 1_555 1_555
H6_4 C8_4 1_555 1_555
O2 Cl1 1_555 1_555
O3 Cl1 1_555 1_555
Cl1_2 O1 1_555 1_555
O4 Cl1_2 1_555 1_555
Cl1_3 O1_2 1_555 1_555
O2_2 Cl1_3 1_555 1_555
O3_2 Cl1_3 1_555 1_555
O4_2 Cl1_3 1_555 1_555
Cl1_4 O1_3 1_555 1_555
O2_3 Cl1_4 1_555 1_555
O3_3 Cl1_4 1_555 1_555
O4_3 Cl1_4 1_555 1_555
Cl1_5 O1_4 1_555 1_555
O2_4 Cl1_5 1_555 1_555
O3_4 Cl1_5 1_555 1_555
O4_4 Cl1_5 1_555 1_555
Cl2 O5 1_555 1_555
O6 Cl2 1_555 1_555
O7 Cl2 1_555 1_555
O8 Cl2 1_555 1_555
Cl2_2 O5_2 1_555 1_555
O6_2 Cl2_2 1_555 1_555
O7_2 Cl2_2 1_555 1_555
O8_2 Cl2_2 1_555 1_555
Cl2_3 O5_3 1_555 1_555
O8_3 Cl2_3 1_555 1_555
O6_3 Cl2_4 1_555 1_555
O7_3 Cl2_4 1_555 1_555
Cl2_5 O5_4 1_555 1_555
O6_4 Cl2_5 1_555 1_555
O7_4 Cl2_5 1_555 1_555
O8_4 Cl2_5 1_555 1_555

#END
