
###############################################################################
#
# This file contains modified crystal structure data generated from the
# MOF subset of the Cambridge Structural Database (CSD) v543 
# hosted by the Cambridge Crystallographic Data Centre (CCDC).
#
# This work is licensed under the Creative Commons
# Attribution-NonCommercial-ShareAlike 4.0 International License.
# To view a copy of this license, visit
# http://creativecommons.org/licenses/by-nc-sa/4.0/
# or send a letter to
# Creative Commons, PO Box 1866, Mountain View, CA 94042, USA.
#
# CIF created using the CSD Python API on 29 September 2022
# The structure has been converted into the P1 space group
# The structure has a 3D framework
# The original CSD entry WUNVOR is in the tetragonal crystal system
# The original CSD entry WUNVOR is in a Sohncke space group
# The framework has been calculated to contain at least 10.0% void space
# The void calculation uses a probe of radius 1.32A, grid spacing 0.4
# The framework is charged, counterions have been retained in the structure
#
###############################################################################

data_WUNVOR
_chemical_formula_moiety         '(C192 H144 Cd2 Cl10 N48 O32 4-)n'
_symmetry_cell_setting           triclinic
_symmetry_space_group_name_H-M   'P 1'
_symmetry_Int_Tables_number      1
_space_group_name_Hall           'P 1'
loop_
_symmetry_equiv_pos_site_id
_symmetry_equiv_pos_as_xyz
1 x,y,z
_cell_length_a                   15.9030(12)
_cell_length_b                   15.9030(12)
_cell_length_c                   21.615(2)
_cell_angle_alpha                90
_cell_angle_beta                 90
_cell_angle_gamma                90
_cell_volume                     5466.55
loop_
_atom_site_label
_atom_site_type_symbol
_atom_site_fract_x
_atom_site_fract_y
_atom_site_fract_z
Cd2 Cd 0.058968(14) 0.058968(14) 0.0000
Cd2_2 Cd 0.058968(14) 0.058968(14) 1.0000
C1 C 0.9624(3) 0.2447(3) 0.0351(2)
H1 H 0.9934 0.2405 0.0715
C2 C 0.9057(3) 0.3106(3) 0.0297(2)
H2 H 0.8999 0.3493 0.0617
C7 C 0.7914(3) 0.4557(3) 0.0077(2)
H5 H 0.8343 0.4636 0.0364
C8 C 0.7289(3) 0.5149(3) 0.0026(3)
H6 H 0.7309 0.5631 0.0269
C3 C 0.8579(2) 0.3187(3) 0.97672(18)
C4 C 0.8738(3) 0.2600(3) 0.92998(19)
H3 H 0.8454 0.2636 0.8925
C5 C 0.9314(3) 0.1970(2) 0.93950(19)
H4 H 0.9404 0.1589 0.9076
C6 C 0.7916(2) 0.3842(2) 0.97066(19)
C9 C 0.6631(3) 0.5035(3) 0.9618(2)
H7 H 0.6207 0.5436 0.9587
C10 C 0.6609(2) 0.4317(2) 0.92540(17)
C11 C 0.7251(2) 0.3721(2) 0.92928(18)
H8 H 0.7237 0.3244 0.9044
C12 C 0.5909(2) 0.4237(2) 0.88096(16)
C13 C 0.4948(2) 0.3727(2) 0.81911(16)
C14 C 0.4392(2) 0.3107(2) 0.78887(16)
C15 C 0.4563(3) 0.2805(3) 0.73017(18)
H9 H 0.5035 0.2986 0.7086
C16 C 0.4007(3) 0.2220(3) 0.7040(2)
H10 H 0.4100 0.2026 0.6640
C17 C 0.3326(3) 0.1931(3) 0.73690(18)
H11 H 0.2969 0.1536 0.7190
C18 C 0.3163(2) 0.2219(2) 0.79645(18)
C19 C 0.3702(2) 0.2818(2) 0.82144(18)
H12 H 0.3597 0.3028 0.8608
C20 C 0.2446(2) 0.1912(2) 0.83356(17)
C21 C 0.2017(2) 0.1162(2) 0.82003(18)
H13 H 0.2137 0.0868 0.7839
C22 C 0.1420(2) 0.0867(2) 0.86027(19)
H14 H 0.1150 0.0366 0.8504
C23 C 0.1570(2) 0.1995(3) 0.92333(19)
H15 H 0.1410 0.2293 0.9584
C24 C 0.2166(3) 0.2340(2) 0.88561(18)
H16 H 0.2386 0.2867 0.8949
Cd1 Cd 0.441032(14) 0.558968(14) 0.7500
N1 N 0.5538(2) 0.48733(18) 0.85469(14)
N2 N 0.49271(19) 0.45517(18) 0.81577(15)
N3 N 0.5557(2) 0.35061(17) 0.85993(14)
N4 N 0.5752(2) 0.2688(2) 0.88073(18)
N5 N 0.97525(19) 0.1871(2) 0.99143(16)
N6 N 0.1203(2) 0.1251(2) 0.91255(15)
H17 H 0.5996 0.2440 0.8477
H18 H 0.5239 0.2444 0.8867
C25 C 0.7553(3) 0.0376(3) 0.4649(2)
H19 H 0.7595 0.0066 0.4285
C26 C 0.6894(3) 0.0943(3) 0.4703(2)
H20 H 0.6507 0.1001 0.4383
C27 C 0.6813(3) 0.1421(2) 0.52328(18)
C28 C 0.7400(3) 0.1262(3) 0.57002(19)
H21 H 0.7364 0.1546 0.6075
C29 C 0.8030(2) 0.0686(3) 0.56050(19)
H22 H 0.8411 0.0596 0.5924
C30 C 0.6158(2) 0.2084(2) 0.52934(19)
C31 C 0.5443(3) 0.2086(3) 0.4923(2)
H23 H 0.5364 0.1657 0.4636
C32 C 0.4851(3) 0.2711(3) 0.4974(3)
H24 H 0.4369 0.2691 0.4731
C33 C 0.4965(3) 0.3369(3) 0.5382(2)
H25 H 0.4564 0.3793 0.5413
C34 C 0.5683(2) 0.3391(2) 0.57460(17)
C35 C 0.6279(2) 0.2749(2) 0.57072(18)
H26 H 0.6756 0.2763 0.5956
C36 C 0.5763(2) 0.4091(2) 0.61904(16)
C37 C 0.6273(2) 0.5052(2) 0.68089(16)
C38 C 0.6893(2) 0.5608(2) 0.71113(16)
C39 C 0.7195(3) 0.5437(3) 0.76983(18)
H27 H 0.7014 0.4965 0.7914
C40 C 0.7780(3) 0.5993(3) 0.7960(2)
H28 H 0.7974 0.5900 0.8360
C41 C 0.8069(3) 0.6674(3) 0.76310(18)
H29 H 0.8464 0.7031 0.7810
C42 C 0.7781(2) 0.6837(2) 0.70355(18)
C43 C 0.7182(2) 0.6298(2) 0.67856(18)
H30 H 0.6972 0.6403 0.6392
C44 C 0.8088(2) 0.7554(2) 0.66644(17)
C45 C 0.8838(2) 0.7983(2) 0.67997(18)
H31 H 0.9132 0.7863 0.7161
C46 C 0.9133(2) 0.8580(2) 0.63973(19)
H32 H 0.9634 0.8850 0.6496
C47 C 0.8005(3) 0.8430(2) 0.57667(19)
H33 H 0.7707 0.8590 0.5416
C48 C 0.7660(2) 0.7834(3) 0.61439(18)
H34 H 0.7133 0.7614 0.6051
Cd5 Cd 0.941032(14) 0.941032(14) 0.5000
N7 N 0.51267(18) 0.4462(2) 0.64531(14)
N8 N 0.54483(18) 0.50729(19) 0.68423(15)
N9 N 0.64939(17) 0.4443(2) 0.64007(14)
N10 N 0.7312(2) 0.4248(2) 0.61927(18)
N11 N 0.8129(2) 0.02475(19) 0.50857(16)
N12 N 0.3129(2) 0.47525(19) 0.74143(16)
N13 N 0.52475(19) 0.6871(2) 0.75857(16)
N14 N 0.8749(2) 0.8797(2) 0.58745(15)
N15 N 0.3749(2) 0.6203(2) 0.66255(15)
N16 N 0.3797(2) 0.6251(2) 0.83745(15)
H35 H 0.7560 0.4004 0.6523
H36 H 0.7556 0.4761 0.6133
C1_2 C 0.0376(3) 0.7553(3) 0.5351(2)
H1_2 H 0.0066 0.7595 0.5715
C2_2 C 0.0943(3) 0.6894(3) 0.5297(2)
H2_2 H 0.1001 0.6507 0.5617
C3_2 C 0.1421(2) 0.6813(3) 0.47672(18)
C4_2 C 0.1262(3) 0.7400(3) 0.42998(19)
H3_2 H 0.1546 0.7364 0.3925
C5_2 C 0.0686(3) 0.8030(2) 0.43950(19)
H4_2 H 0.0596 0.8411 0.4076
C6_2 C 0.2084(2) 0.6158(2) 0.47066(19)
C7_2 C 0.2086(3) 0.5443(3) 0.5077(2)
H5_2 H 0.1657 0.5364 0.5364
C8_2 C 0.2711(3) 0.4851(3) 0.5026(3)
H6_2 H 0.2691 0.4369 0.5269
C9_2 C 0.3369(3) 0.4965(3) 0.4618(2)
H7_2 H 0.3793 0.4564 0.4587
C10_2 C 0.3391(2) 0.5683(2) 0.42540(17)
C11_2 C 0.2749(2) 0.6279(2) 0.42928(18)
H8_2 H 0.2763 0.6756 0.4044
C12_2 C 0.4091(2) 0.5763(2) 0.38096(16)
C13_2 C 0.5052(2) 0.6273(2) 0.31911(16)
C14_2 C 0.5608(2) 0.6893(2) 0.28887(16)
C15_2 C 0.5437(3) 0.7195(3) 0.23017(18)
H9_2 H 0.4965 0.7014 0.2086
C16_2 C 0.5993(3) 0.7780(3) 0.2040(2)
H10_2 H 0.5900 0.7974 0.1640
C17_2 C 0.6674(3) 0.8069(3) 0.23690(18)
H11_2 H 0.7031 0.8464 0.2190
C18_2 C 0.6837(2) 0.7781(2) 0.29645(18)
C19_2 C 0.6298(2) 0.7182(2) 0.32144(18)
H12_2 H 0.6403 0.6972 0.3608
C20_2 C 0.7554(2) 0.8088(2) 0.33356(17)
C21_2 C 0.7983(2) 0.8838(2) 0.32003(18)
H13_2 H 0.7863 0.9132 0.2839
C22_2 C 0.8580(2) 0.9133(2) 0.36027(19)
H14_2 H 0.8850 0.9634 0.3504
C23_2 C 0.8430(2) 0.8005(3) 0.42333(19)
H15_2 H 0.8590 0.7707 0.4584
C24_2 C 0.7834(3) 0.7660(2) 0.38561(18)
H16_2 H 0.7614 0.7133 0.3949
Cd1_2 Cd 0.558968(14) 0.441032(14) 0.2500
N1_2 N 0.4462(2) 0.51267(18) 0.35469(14)
N2_2 N 0.50729(19) 0.54483(18) 0.31577(15)
N3_2 N 0.4443(2) 0.64939(17) 0.35993(14)
N4_2 N 0.4248(2) 0.7312(2) 0.38073(18)
N5_2 N 0.02475(19) 0.8129(2) 0.49143(16)
N6_2 N 0.8797(2) 0.8749(2) 0.41255(15)
H17_2 H 0.4004 0.7560 0.3477
H18_2 H 0.4761 0.7556 0.3867
C27_2 C 0.3187(3) 0.8579(2) 0.02328(18)
C28_2 C 0.2600(3) 0.8738(3) 0.07002(19)
H21_2 H 0.2636 0.8454 0.1075
C29_2 C 0.1970(2) 0.9314(3) 0.06050(19)
H22_2 H 0.1589 0.9404 0.0924
C30_2 C 0.3842(2) 0.7916(2) 0.02934(19)
C33_2 C 0.5035(3) 0.6631(3) 0.0382(2)
H25_2 H 0.5436 0.6207 0.0413
C34_2 C 0.4317(2) 0.6609(2) 0.07460(17)
C35_2 C 0.3721(2) 0.7251(2) 0.07072(18)
H26_2 H 0.3244 0.7237 0.0956
C36_2 C 0.4237(2) 0.5909(2) 0.11904(16)
C37_2 C 0.3727(2) 0.4948(2) 0.18089(16)
C38_2 C 0.3107(2) 0.4392(2) 0.21113(16)
C39_2 C 0.2805(3) 0.4563(3) 0.26983(18)
H27_2 H 0.2986 0.5035 0.2914
C40_2 C 0.2220(3) 0.4007(3) 0.2960(2)
H28_2 H 0.2026 0.4100 0.3360
C41_2 C 0.1931(3) 0.3326(3) 0.26310(18)
H29_2 H 0.1536 0.2969 0.2810
C42_2 C 0.2219(2) 0.3163(2) 0.20355(18)
C43_2 C 0.2818(2) 0.3702(2) 0.17856(18)
H30_2 H 0.3028 0.3597 0.1392
C44_2 C 0.1912(2) 0.2446(2) 0.16644(17)
C45_2 C 0.1162(2) 0.2017(2) 0.17997(18)
H31_2 H 0.0868 0.2137 0.2161
C46_2 C 0.0867(2) 0.1420(2) 0.13973(19)
H32_2 H 0.0366 0.1150 0.1496
C47_2 C 0.1995(3) 0.1570(2) 0.07667(19)
H33_2 H 0.2293 0.1410 0.0416
C48_2 C 0.2340(2) 0.2166(3) 0.11439(18)
H34_2 H 0.2867 0.2386 0.1051
N7_2 N 0.48733(18) 0.5538(2) 0.14531(14)
N8_2 N 0.45517(18) 0.49271(19) 0.18423(15)
N9_2 N 0.35061(17) 0.5557(2) 0.14007(14)
N10_2 N 0.2688(2) 0.5752(2) 0.11927(18)
N11_2 N 0.1871(2) 0.97525(19) 0.00857(16)
N12_2 N 0.6871(2) 0.52475(19) 0.24143(16)
N13_2 N 0.47525(19) 0.3129(2) 0.25857(16)
N14_2 N 0.1251(2) 0.1203(2) 0.08745(15)
N15_2 N 0.6251(2) 0.3797(2) 0.16255(15)
N16_2 N 0.6203(2) 0.3749(2) 0.33745(15)
H35_2 H 0.2440 0.5996 0.1523
H36_2 H 0.2444 0.5239 0.1133
C25_2 C 0.2447(3) 0.9624(3) 0.9649(2)
H19_2 H 0.2405 0.9934 0.9285
C26_2 C 0.3106(3) 0.9057(3) 0.9703(2)
H20_2 H 0.3493 0.8999 0.9383
C31_2 C 0.4557(3) 0.7914(3) 0.9923(2)
H23_2 H 0.4636 0.8343 0.9636
C32_2 C 0.5149(3) 0.7289(3) 0.9974(3)
H24_2 H 0.5631 0.7309 0.9731
C1_3 C 0.2553(3) 0.4624(3) 0.7851(2)
H1_3 H 0.2595 0.4934 0.8215
C2_3 C 0.1894(3) 0.4057(3) 0.7797(2)
H2_3 H 0.1507 0.3999 0.8117
C3_3 C 0.1813(3) 0.3579(2) 0.72672(18)
C4_3 C 0.2400(3) 0.3738(3) 0.67998(19)
H3_3 H 0.2364 0.3454 0.6425
C5_3 C 0.3030(2) 0.4314(3) 0.68950(19)
H4_3 H 0.3411 0.4404 0.6576
C6_3 C 0.1158(2) 0.2916(2) 0.72066(19)
C7_3 C 0.0443(3) 0.2914(3) 0.7577(2)
H5_3 H 0.0364 0.3343 0.7864
C10_3 C 0.0683(2) 0.1609(2) 0.67540(17)
C11_3 C 0.1279(2) 0.2251(2) 0.67928(18)
H8_3 H 0.1756 0.2237 0.6544
C12_3 C 0.0763(2) 0.0909(2) 0.63096(16)
H9_3 H 0.2014 0.0035 0.4586
N1_3 N 0.01267(18) 0.0538(2) 0.60469(14)
N3_3 N 0.14939(17) 0.0557(2) 0.60993(14)
N4_3 N 0.2312(2) 0.0752(2) 0.63073(18)
H17_3 H 0.2560 0.0996 0.5977
H18_3 H 0.2556 0.0239 0.6367
C25_3 C 0.4624(3) 0.2553(3) 0.2149(2)
H19_3 H 0.4934 0.2595 0.1785
C26_3 C 0.4057(3) 0.1894(3) 0.2203(2)
H20_3 H 0.3999 0.1507 0.1883
C27_3 C 0.3579(2) 0.1813(3) 0.27328(18)
C28_3 C 0.3738(3) 0.2400(3) 0.32002(19)
H21_3 H 0.3454 0.2364 0.3575
C29_3 C 0.4314(3) 0.3030(2) 0.31050(19)
H22_3 H 0.4404 0.3411 0.3424
C30_3 C 0.2916(2) 0.1158(2) 0.27934(19)
C31_3 C 0.2914(3) 0.0443(3) 0.2423(2)
H23_3 H 0.3343 0.0364 0.2136
C34_3 C 0.1609(2) 0.0683(2) 0.32460(17)
C35_3 C 0.2251(2) 0.1279(2) 0.32072(18)
H26_3 H 0.2237 0.1756 0.3456
C36_3 C 0.0909(2) 0.0763(2) 0.36904(16)
H27_3 H 0.0035 0.2014 0.5414
N7_3 N 0.0538(2) 0.01267(18) 0.39531(14)
N9_3 N 0.0557(2) 0.14939(17) 0.39007(14)
N10_3 N 0.0752(2) 0.2312(2) 0.36927(18)
H35_3 H 0.0996 0.2560 0.4023
H36_3 H 0.0239 0.2556 0.3633
C13_3 C 0.1273(2) 0.9948(2) 0.56911(16)
C14_3 C 0.1893(2) 0.9392(2) 0.53887(16)
C15_3 C 0.2195(3) 0.9563(3) 0.48017(18)
C16_3 C 0.2780(3) 0.9007(3) 0.4540(2)
H10_3 H 0.2974 0.9100 0.4140
C17_3 C 0.3069(3) 0.8326(3) 0.48690(18)
H11_3 H 0.3464 0.7969 0.4690
C18_3 C 0.2781(2) 0.8163(2) 0.54645(18)
C19_3 C 0.2182(2) 0.8702(2) 0.57144(18)
H12_3 H 0.1972 0.8597 0.6108
C20_3 C 0.3088(2) 0.7446(2) 0.58356(17)
C21_3 C 0.3838(2) 0.7017(2) 0.57003(18)
H13_3 H 0.4132 0.7137 0.5339
C22_3 C 0.4133(2) 0.6420(2) 0.61027(19)
H14_3 H 0.4634 0.6150 0.6004
C23_3 C 0.3005(3) 0.6570(2) 0.67333(19)
H15_3 H 0.2707 0.6410 0.7084
C24_3 C 0.2660(2) 0.7166(3) 0.63561(18)
H16_3 H 0.2133 0.7386 0.6449
N2_3 N 0.04483(18) 0.99271(19) 0.56577(15)
C32_3 C 0.2289(3) 0.9851(3) 0.2474(3)
H24_3 H 0.2309 0.9369 0.2231
C33_3 C 0.1631(3) 0.9965(3) 0.2882(2)
H25_3 H 0.1207 0.9564 0.2913
C8_3 C 0.9851(3) 0.2289(3) 0.7526(3)
H6_3 H 0.9369 0.2309 0.7769
C9_3 C 0.9965(3) 0.1631(3) 0.7118(2)
H7_3 H 0.9564 0.1207 0.7087
C37_3 C 0.9948(2) 0.1273(2) 0.43089(16)
C38_3 C 0.9392(2) 0.1893(2) 0.46113(16)
C39_3 C 0.9563(3) 0.2195(3) 0.51983(18)
C40_3 C 0.9007(3) 0.2780(3) 0.5460(2)
H28_3 H 0.9100 0.2974 0.5860
C41_3 C 0.8326(3) 0.3069(3) 0.51310(18)
H29_3 H 0.7969 0.3464 0.5310
C42_3 C 0.8163(2) 0.2781(2) 0.45355(18)
C43_3 C 0.8702(2) 0.2182(2) 0.42856(18)
H30_3 H 0.8597 0.1972 0.3892
C44_3 C 0.7446(2) 0.3088(2) 0.41644(17)
C45_3 C 0.7017(2) 0.3838(2) 0.42997(18)
H31_3 H 0.7137 0.4132 0.4661
C46_3 C 0.6420(2) 0.4133(2) 0.38973(19)
H32_3 H 0.6150 0.4634 0.3996
C47_3 C 0.6570(2) 0.3005(3) 0.32667(19)
H33_3 H 0.6410 0.2707 0.2916
C48_3 C 0.7166(3) 0.2660(2) 0.36439(18)
H34_3 H 0.7386 0.2133 0.3551
N8_3 N 0.99271(19) 0.04483(18) 0.43423(15)
C8_4 C 0.0149(3) 0.7711(3) 0.2526(3)
H6_4 H 0.0631 0.7691 0.2769
C9_4 C 0.0035(3) 0.8369(3) 0.2118(2)
H7_4 H 0.0436 0.8793 0.2087
C39_4 C 0.0437(3) 0.7805(3) 0.01983(18)
C40_4 C 0.0993(3) 0.7220(3) 0.0460(2)
H28_4 H 0.0900 0.7026 0.0860
C41_4 C 0.1674(3) 0.6931(3) 0.01310(18)
H29_4 H 0.2031 0.6536 0.0310
C37_4 C 0.0052(2) 0.8727(2) 0.93089(16)
C38_4 C 0.0608(2) 0.8107(2) 0.96113(16)
C42_4 C 0.1837(2) 0.7219(2) 0.95355(18)
C43_4 C 0.1298(2) 0.7818(2) 0.92856(18)
H30_4 H 0.1403 0.8028 0.8892
C44_4 C 0.2554(2) 0.6912(2) 0.91644(17)
C45_4 C 0.2983(2) 0.6162(2) 0.92997(18)
H31_4 H 0.2863 0.5868 0.9661
C46_4 C 0.3580(2) 0.5867(2) 0.88973(19)
H32_4 H 0.3850 0.5366 0.8996
C47_4 C 0.3430(2) 0.6995(3) 0.82667(19)
H33_4 H 0.3590 0.7293 0.7916
C48_4 C 0.2834(3) 0.7340(2) 0.86439(18)
H34_4 H 0.2614 0.7867 0.8551
N8_4 N 0.00729(19) 0.95517(18) 0.93423(15)
C13_4 C 0.8727(2) 0.0052(2) 0.06911(16)
C14_4 C 0.8107(2) 0.0608(2) 0.03887(16)
C18_4 C 0.7219(2) 0.1837(2) 0.04645(18)
C19_4 C 0.7818(2) 0.1298(2) 0.07144(18)
H12_4 H 0.8028 0.1403 0.1108
C20_4 C 0.6912(2) 0.2554(2) 0.08356(17)
C21_4 C 0.6162(2) 0.2983(2) 0.07003(18)
H13_4 H 0.5868 0.2863 0.0339
C22_4 C 0.5867(2) 0.3580(2) 0.11027(19)
H14_4 H 0.5366 0.3850 0.1004
C23_4 C 0.6995(3) 0.3430(2) 0.17333(19)
H15_4 H 0.7293 0.3590 0.2084
C24_4 C 0.7340(2) 0.2834(3) 0.13561(18)
H16_4 H 0.7867 0.2614 0.1449
N2_4 N 0.95517(18) 0.00729(19) 0.06577(15)
C15_4 C 0.7805(3) 0.0437(3) 0.98017(18)
C16_4 C 0.7220(3) 0.0993(3) 0.9540(2)
H10_4 H 0.7026 0.0900 0.9140
C17_4 C 0.6931(3) 0.1674(3) 0.98690(18)
H11_4 H 0.6536 0.2031 0.9690
C32_4 C 0.7711(3) 0.0149(3) 0.7474(3)
H24_4 H 0.7691 0.0631 0.7231
C33_4 C 0.8369(3) 0.0035(3) 0.7882(2)
H25_4 H 0.8793 0.0436 0.7913
C1_4 C 0.7447(3) 0.5376(3) 0.2851(2)
H1_4 H 0.7405 0.5066 0.3215
C2_4 C 0.8106(3) 0.5943(3) 0.2797(2)
H2_4 H 0.8493 0.6001 0.3117
C3_4 C 0.8187(3) 0.6421(2) 0.22672(18)
C4_4 C 0.7600(3) 0.6262(3) 0.17998(19)
H3_4 H 0.7636 0.6546 0.1425
C5_4 C 0.6970(2) 0.5686(3) 0.18950(19)
H4_4 H 0.6589 0.5596 0.1576
C6_4 C 0.8842(2) 0.7084(2) 0.22066(19)
C7_4 C 0.9557(3) 0.7086(3) 0.2577(2)
H5_4 H 0.9636 0.6657 0.2864
C10_4 C 0.9317(2) 0.8391(2) 0.17540(17)
C11_4 C 0.8721(2) 0.7749(2) 0.17928(18)
H8_4 H 0.8244 0.7763 0.1544
C12_4 C 0.9237(2) 0.9091(2) 0.13096(16)
N1_4 N 0.98733(18) 0.9462(2) 0.10469(14)
N3_4 N 0.85061(17) 0.9443(2) 0.10993(14)
N4_4 N 0.7688(2) 0.9248(2) 0.13073(18)
H17_4 H 0.7440 0.9004 0.0977
H18_4 H 0.7444 0.9761 0.1367
H27_4 H 0.9965 0.7986 0.0414
H9_4 H 0.7986 0.9965 0.9586
C25_4 C 0.5376(3) 0.7447(3) 0.7149(2)
H19_4 H 0.5066 0.7405 0.6785
C26_4 C 0.5943(3) 0.8106(3) 0.7203(2)
H20_4 H 0.6001 0.8493 0.6883
C27_4 C 0.6421(2) 0.8187(3) 0.77328(18)
C28_4 C 0.6262(3) 0.7600(3) 0.82002(19)
H21_4 H 0.6546 0.7636 0.8575
C29_4 C 0.5686(3) 0.6970(2) 0.81050(19)
H22_4 H 0.5596 0.6589 0.8424
C30_4 C 0.7084(2) 0.8842(2) 0.77934(19)
C31_4 C 0.7086(3) 0.9557(3) 0.7423(2)
H23_4 H 0.6657 0.9636 0.7136
C34_4 C 0.8391(2) 0.9317(2) 0.82460(17)
C35_4 C 0.7749(2) 0.8721(2) 0.82072(18)
H26_4 H 0.7763 0.8244 0.8456
C36_4 C 0.9091(2) 0.9237(2) 0.86904(16)
N7_4 N 0.9462(2) 0.98733(18) 0.89531(14)
N9_4 N 0.9443(2) 0.85061(17) 0.89007(14)
N10_4 N 0.9248(2) 0.7688(2) 0.86927(18)
H35_4 H 0.9004 0.7440 0.9023
H36_4 H 0.9761 0.7444 0.8633
Cl1 Cl 0.76826(8) 0.76826(8) 0.0000
O3 O 0.7277(4) 0.7423(5) 0.0529(2)
O4 O 0.8446(4) 0.7183(6) 0.0121(5)
Cl1_2 Cl 0.76826(8) 0.76826(8) 1.0000
O1 O 0.7423(5) 0.7277(4) 0.9471(2)
O2 O 0.7183(6) 0.8446(4) 0.9879(5)
Cl1_3 Cl 0.23174(8) 0.23174(8) 0.5000
O1_2 O 0.2577(5) 0.2723(4) 0.4471(2)
O2_2 O 0.2817(6) 0.1554(4) 0.4879(5)
O3_2 O 0.2723(4) 0.2577(5) 0.5529(2)
O4_2 O 0.1554(4) 0.2817(6) 0.5121(5)
Cl1_4 Cl 0.73174(8) 0.26826(8) 0.7500
O1_3 O 0.7723(4) 0.2423(5) 0.6971(2)
O2_3 O 0.6554(4) 0.2183(6) 0.7379(5)
O3_3 O 0.7577(5) 0.2277(4) 0.8029(2)
O4_3 O 0.7817(6) 0.3446(4) 0.7621(5)
Cl1_5 Cl 0.26826(8) 0.73174(8) 0.2500
O1_4 O 0.2277(4) 0.7577(5) 0.1971(2)
O2_4 O 0.3446(4) 0.7817(6) 0.2379(5)
O3_4 O 0.2423(5) 0.7723(4) 0.3029(2)
O4_4 O 0.2183(6) 0.6554(4) 0.2621(5)
Cl2 Cl 0.37918(9) 0.37918(9) 0.0000
O6 O 0.3548(11) 0.4294(8) 0.0459(5)
O7 O 0.4014(5) 0.3291(7) 0.0540(4)
Cl2_2 Cl 0.37918(9) 0.37918(9) 1.0000
O5 O 0.3291(7) 0.4014(5) 0.9460(4)
O8 O 0.4294(8) 0.3548(11) 0.9541(5)
Cl2_3 Cl 0.62082(9) 0.62082(9) 0.5000
O5_2 O 0.6709(7) 0.5986(5) 0.4460(4)
O6_2 O 0.6452(11) 0.5706(8) 0.5459(5)
O7_2 O 0.5986(5) 0.6709(7) 0.5540(4)
O8_2 O 0.5706(8) 0.6452(11) 0.4541(5)
Cl2_4 Cl 0.12082(9) 0.87918(9) 0.7500
O5_3 O 0.0986(5) 0.8291(7) 0.6960(4)
O6_3 O 0.0706(8) 0.8548(11) 0.7959(5)
O7_3 O 0.1709(7) 0.9014(5) 0.8040(4)
O8_3 O 0.1452(11) 0.9294(8) 0.7041(5)
Cl2_5 Cl 0.87918(9) 0.12082(9) 0.2500
O5_4 O 0.9014(5) 0.1709(7) 0.1960(4)
O6_4 O 0.9294(8) 0.1452(11) 0.2959(5)
O7_4 O 0.8291(7) 0.0986(5) 0.3040(4)
O8_4 O 0.8548(11) 0.0706(8) 0.2041(5)
loop_
_geom_bond_atom_site_label_1
_geom_bond_atom_site_label_2
_geom_bond_site_symmetry_1
_geom_bond_site_symmetry_2
C1 H1 1_555 1_555
C2 C1 1_555 1_555
H2 C2 1_555 1_555
H5 C7 1_555 1_555
C8 C7 1_555 1_555
H6 C8 1_555 1_555
C4 C3 1_555 1_555
H3 C4 1_555 1_555
C5 C4 1_555 1_555
H4 C5 1_555 1_555
C6 C3 1_555 1_555
H7 C9 1_555 1_555
C10 C9 1_555 1_555
C11 C6 1_555 1_555
H8 C11 1_555 1_555
C12 C10 1_555 1_555
C13 C14 1_555 1_555
C14 C15 1_555 1_555
C15 H9 1_555 1_555
C16 C15 1_555 1_555
H10 C16 1_555 1_555
C17 C16 1_555 1_555
H11 C17 1_555 1_555
C18 C17 1_555 1_555
C19 C14 1_555 1_555
H12 C19 1_555 1_555
C20 C18 1_555 1_555
C21 C20 1_555 1_555
H13 C21 1_555 1_555
C22 C21 1_555 1_555
H14 C22 1_555 1_555
C23 H15 1_555 1_555
C24 C20 1_555 1_555
H16 C24 1_555 1_555
Cd1 N2 1_555 1_555
N1 C12 1_555 1_555
N2 C13 1_555 1_555
N3 C12 1_555 1_555
N4 N3 1_555 1_555
N6 C22 1_555 1_555
H17 N4 1_555 1_555
H18 N4 1_555 1_555
C25 H19 1_555 1_555
C26 C25 1_555 1_555
H20 C26 1_555 1_555
C27 C26 1_555 1_555
C28 C27 1_555 1_555
H21 C28 1_555 1_555
C29 C28 1_555 1_555
H22 C29 1_555 1_555
C30 C27 1_555 1_555
C31 C30 1_555 1_555
H23 C31 1_555 1_555
C32 C31 1_555 1_555
H24 C32 1_555 1_555
C33 C32 1_555 1_555
H25 C33 1_555 1_555
C34 C33 1_555 1_555
C35 C30 1_555 1_555
H26 C35 1_555 1_555
C36 C34 1_555 1_555
C37 C38 1_555 1_555
C38 C39 1_555 1_555
C39 H27 1_555 1_555
C40 C39 1_555 1_555
H28 C40 1_555 1_555
C41 C40 1_555 1_555
H29 C41 1_555 1_555
C42 C41 1_555 1_555
C43 C38 1_555 1_555
H30 C43 1_555 1_555
C44 C42 1_555 1_555
C45 C44 1_555 1_555
H31 C45 1_555 1_555
C46 C45 1_555 1_555
H32 C46 1_555 1_555
C47 H33 1_555 1_555
C48 C44 1_555 1_555
H34 C48 1_555 1_555
Cd2_2 N6 1_555 1_555
Cd5 N14 1_555 1_555
N7 C36 1_555 1_555
N8 Cd1 1_555 1_555
N9 C36 1_555 1_555
N10 N9 1_555 1_555
N11 C25 1_555 1_555
N12 Cd1 1_555 1_555
N13 Cd1 1_555 1_555
N14 C46 1_555 1_555
N15 Cd1 1_555 1_555
N16 Cd1 1_555 1_555
H35 N10 1_555 1_555
H36 N10 1_555 1_555
C5 N5 1_555 1_555
C10 C11 1_555 1_555
C13 N3 1_555 1_555
C18 C19 1_555 1_555
C23 C24 1_555 1_555
C23 N6 1_555 1_555
N1 N2 1_555 1_555
C29 N11 1_555 1_555
C34 C35 1_555 1_555
C37 N8 1_555 1_555
C37 N9 1_555 1_555
C42 C43 1_555 1_555
C47 C48 1_555 1_555
C47 N14 1_555 1_555
N7 N8 1_555 1_555
C1_2 H1_2 1_555 1_555
C2_2 C1_2 1_555 1_555
H2_2 C2_2 1_555 1_555
C3_2 C2_2 1_555 1_555
C4_2 C3_2 1_555 1_555
H3_2 C4_2 1_555 1_555
C5_2 C4_2 1_555 1_555
H4_2 C5_2 1_555 1_555
C6_2 C3_2 1_555 1_555
C7_2 C6_2 1_555 1_555
H5_2 C7_2 1_555 1_555
C8_2 C7_2 1_555 1_555
H6_2 C8_2 1_555 1_555
C9_2 C8_2 1_555 1_555
H7_2 C9_2 1_555 1_555
C10_2 C9_2 1_555 1_555
C11_2 C6_2 1_555 1_555
H8_2 C11_2 1_555 1_555
C12_2 C10_2 1_555 1_555
C13_2 C14_2 1_555 1_555
C14_2 C15_2 1_555 1_555
C15_2 H9_2 1_555 1_555
C16_2 C15_2 1_555 1_555
H10_2 C16_2 1_555 1_555
C17_2 C16_2 1_555 1_555
H11_2 C17_2 1_555 1_555
C18_2 C17_2 1_555 1_555
C19_2 C14_2 1_555 1_555
H12_2 C19_2 1_555 1_555
C20_2 C18_2 1_555 1_555
C21_2 C20_2 1_555 1_555
H13_2 C21_2 1_555 1_555
C22_2 C21_2 1_555 1_555
H14_2 C22_2 1_555 1_555
C23_2 H15_2 1_555 1_555
C24_2 C20_2 1_555 1_555
H16_2 C24_2 1_555 1_555
Cd1_2 N2_2 1_555 1_555
N1_2 C12_2 1_555 1_555
N2_2 C13_2 1_555 1_555
N3_2 C12_2 1_555 1_555
N4_2 N3_2 1_555 1_555
N5_2 C1_2 1_555 1_555
N6_2 C22_2 1_555 1_555
H17_2 N4_2 1_555 1_555
H18_2 N4_2 1_555 1_555
C28_2 C27_2 1_555 1_555
H21_2 C28_2 1_555 1_555
C29_2 C28_2 1_555 1_555
H22_2 C29_2 1_555 1_555
C30_2 C27_2 1_555 1_555
H25_2 C33_2 1_555 1_555
C34_2 C33_2 1_555 1_555
C35_2 C30_2 1_555 1_555
H26_2 C35_2 1_555 1_555
C36_2 C34_2 1_555 1_555
C37_2 C38_2 1_555 1_555
C38_2 C39_2 1_555 1_555
C39_2 H27_2 1_555 1_555
C40_2 C39_2 1_555 1_555
H28_2 C40_2 1_555 1_555
C41_2 C40_2 1_555 1_555
H29_2 C41_2 1_555 1_555
C42_2 C41_2 1_555 1_555
C43_2 C38_2 1_555 1_555
H30_2 C43_2 1_555 1_555
C44_2 C42_2 1_555 1_555
C45_2 C44_2 1_555 1_555
H31_2 C45_2 1_555 1_555
C46_2 C45_2 1_555 1_555
H32_2 C46_2 1_555 1_555
C47_2 H33_2 1_555 1_555
C48_2 C44_2 1_555 1_555
H34_2 C48_2 1_555 1_555
Cd5 N6_2 1_555 1_555
Cd2 N14_2 1_555 1_555
N7_2 C36_2 1_555 1_555
N8_2 Cd1_2 1_555 1_555
N9_2 C36_2 1_555 1_555
N10_2 N9_2 1_555 1_555
N12_2 Cd1_2 1_555 1_555
N13_2 Cd1_2 1_555 1_555
N14_2 C46_2 1_555 1_555
N15_2 Cd1_2 1_555 1_555
N16_2 Cd1_2 1_555 1_555
H35_2 N10_2 1_555 1_555
H36_2 N10_2 1_555 1_555
C5_2 N5_2 1_555 1_555
C10_2 C11_2 1_555 1_555
C13_2 N3_2 1_555 1_555
C18_2 C19_2 1_555 1_555
C23_2 C24_2 1_555 1_555
C23_2 N6_2 1_555 1_555
N1_2 N2_2 1_555 1_555
C29_2 N11_2 1_555 1_555
C34_2 C35_2 1_555 1_555
C37_2 N8_2 1_555 1_555
C37_2 N9_2 1_555 1_555
C42_2 C43_2 1_555 1_555
C47_2 C48_2 1_555 1_555
C47_2 N14_2 1_555 1_555
N7_2 N8_2 1_555 1_555
C25_2 H19_2 1_555 1_555
C26_2 C25_2 1_555 1_555
H20_2 C26_2 1_555 1_555
H23_2 C31_2 1_555 1_555
C32_2 C31_2 1_555 1_555
H24_2 C32_2 1_555 1_555
C1_3 H1_3 1_555 1_555
C2_3 C1_3 1_555 1_555
H2_3 C2_3 1_555 1_555
C3_3 C2_3 1_555 1_555
C4_3 C3_3 1_555 1_555
H3_3 C4_3 1_555 1_555
C5_3 C4_3 1_555 1_555
H4_3 C5_3 1_555 1_555
C6_3 C3_3 1_555 1_555
C7_3 C6_3 1_555 1_555
H5_3 C7_3 1_555 1_555
C11_3 C6_3 1_555 1_555
H8_3 C11_3 1_555 1_555
C12_3 C10_3 1_555 1_555
N1_3 C12_3 1_555 1_555
N3_3 C12_3 1_555 1_555
N4_3 N3_3 1_555 1_555
N12 C1_3 1_555 1_555
H17_3 N4_3 1_555 1_555
H18_3 N4_3 1_555 1_555
C25_3 H19_3 1_555 1_555
C26_3 C25_3 1_555 1_555
H20_3 C26_3 1_555 1_555
C27_3 C26_3 1_555 1_555
C28_3 C27_3 1_555 1_555
H21_3 C28_3 1_555 1_555
C29_3 C28_3 1_555 1_555
H22_3 C29_3 1_555 1_555
C30_3 C27_3 1_555 1_555
C31_3 C30_3 1_555 1_555
H23_3 C31_3 1_555 1_555
C35_3 C30_3 1_555 1_555
H26_3 C35_3 1_555 1_555
C36_3 C34_3 1_555 1_555
N7_3 C36_3 1_555 1_555
N9_3 C36_3 1_555 1_555
N10_3 N9_3 1_555 1_555
N13_2 C25_3 1_555 1_555
H35_3 N10_3 1_555 1_555
H36_3 N10_3 1_555 1_555
C5_3 N12 1_555 1_555
C10_3 C11_3 1_555 1_555
C29_3 N13_2 1_555 1_555
C34_3 C35_3 1_555 1_555
C13_3 C14_3 1_555 1_555
C14_3 C15_3 1_555 1_555
C16_3 C15_3 1_555 1_555
H10_3 C16_3 1_555 1_555
C17_3 C16_3 1_555 1_555
H11_3 C17_3 1_555 1_555
C18_3 C17_3 1_555 1_555
C19_3 C14_3 1_555 1_555
H12_3 C19_3 1_555 1_555
C20_3 C18_3 1_555 1_555
C21_3 C20_3 1_555 1_555
H13_3 C21_3 1_555 1_555
C22_3 C21_3 1_555 1_555
H14_3 C22_3 1_555 1_555
C23_3 H15_3 1_555 1_555
C24_3 C20_3 1_555 1_555
H16_3 C24_3 1_555 1_555
N2_3 C13_3 1_555 1_555
N15 C22_3 1_555 1_555
H24_3 C32_3 1_555 1_555
C33_3 C32_3 1_555 1_555
H25_3 C33_3 1_555 1_555
C18_3 C19_3 1_555 1_555
C23_3 C24_3 1_555 1_555
C23_3 N15 1_555 1_555
H6_3 C8_3 1_555 1_555
C9_3 C8_3 1_555 1_555
H7_3 C9_3 1_555 1_555
C37_3 C38_3 1_555 1_555
C38_3 C39_3 1_555 1_555
C40_3 C39_3 1_555 1_555
H28_3 C40_3 1_555 1_555
C41_3 C40_3 1_555 1_555
H29_3 C41_3 1_555 1_555
C42_3 C41_3 1_555 1_555
C43_3 C38_3 1_555 1_555
H30_3 C43_3 1_555 1_555
C44_3 C42_3 1_555 1_555
C45_3 C44_3 1_555 1_555
H31_3 C45_3 1_555 1_555
C46_3 C45_3 1_555 1_555
H32_3 C46_3 1_555 1_555
C47_3 H33_3 1_555 1_555
C48_3 C44_3 1_555 1_555
H34_3 C48_3 1_555 1_555
N16_2 C46_3 1_555 1_555
C37_3 N8_3 1_555 1_555
C42_3 C43_3 1_555 1_555
C47_3 C48_3 1_555 1_555
C47_3 N16_2 1_555 1_555
H6_4 C8_4 1_555 1_555
C9_4 C8_4 1_555 1_555
H7_4 C9_4 1_555 1_555
C40_4 C39_4 1_555 1_555
H28_4 C40_4 1_555 1_555
C41_4 C40_4 1_555 1_555
H29_4 C41_4 1_555 1_555
C37_4 C38_4 1_555 1_555
C43_4 C38_4 1_555 1_555
H30_4 C43_4 1_555 1_555
C44_4 C42_4 1_555 1_555
C45_4 C44_4 1_555 1_555
H31_4 C45_4 1_555 1_555
C46_4 C45_4 1_555 1_555
H32_4 C46_4 1_555 1_555
C47_4 H33_4 1_555 1_555
C48_4 C44_4 1_555 1_555
H34_4 C48_4 1_555 1_555
N16 C46_4 1_555 1_555
C37_4 N8_4 1_555 1_555
C42_4 C43_4 1_555 1_555
C47_4 C48_4 1_555 1_555
C47_4 N16 1_555 1_555
C13_4 C14_4 1_555 1_555
C19_4 C14_4 1_555 1_555
H12_4 C19_4 1_555 1_555
C20_4 C18_4 1_555 1_555
C21_4 C20_4 1_555 1_555
H13_4 C21_4 1_555 1_555
C22_4 C21_4 1_555 1_555
H14_4 C22_4 1_555 1_555
C23_4 H15_4 1_555 1_555
C24_4 C20_4 1_555 1_555
H16_4 C24_4 1_555 1_555
N2_4 C13_4 1_555 1_555
N15_2 C22_4 1_555 1_555
C18_4 C19_4 1_555 1_555
C23_4 C24_4 1_555 1_555
C23_4 N15_2 1_555 1_555
C16_4 C15_4 1_555 1_555
H10_4 C16_4 1_555 1_555
C17_4 C16_4 1_555 1_555
H11_4 C17_4 1_555 1_555
H24_4 C32_4 1_555 1_555
C33_4 C32_4 1_555 1_555
H25_4 C33_4 1_555 1_555
C1_4 H1_4 1_555 1_555
C2_4 C1_4 1_555 1_555
H2_4 C2_4 1_555 1_555
C3_4 C2_4 1_555 1_555
C4_4 C3_4 1_555 1_555
H3_4 C4_4 1_555 1_555
C5_4 C4_4 1_555 1_555
H4_4 C5_4 1_555 1_555
C6_4 C3_4 1_555 1_555
C7_4 C6_4 1_555 1_555
H5_4 C7_4 1_555 1_555
C11_4 C6_4 1_555 1_555
H8_4 C11_4 1_555 1_555
C12_4 C10_4 1_555 1_555
N1_4 C12_4 1_555 1_555
N3_4 C12_4 1_555 1_555
N4_4 N3_4 1_555 1_555
N12_2 C1_4 1_555 1_555
H17_4 N4_4 1_555 1_555
H18_4 N4_4 1_555 1_555
C5_4 N12_2 1_555 1_555
C10_4 C11_4 1_555 1_555
C25_4 H19_4 1_555 1_555
C26_4 C25_4 1_555 1_555
H20_4 C26_4 1_555 1_555
C27_4 C26_4 1_555 1_555
C28_4 C27_4 1_555 1_555
H21_4 C28_4 1_555 1_555
C29_4 C28_4 1_555 1_555
H22_4 C29_4 1_555 1_555
C30_4 C27_4 1_555 1_555
C31_4 C30_4 1_555 1_555
H23_4 C31_4 1_555 1_555
C35_4 C30_4 1_555 1_555
H26_4 C35_4 1_555 1_555
C36_4 C34_4 1_555 1_555
N7_4 C36_4 1_555 1_555
N9_4 C36_4 1_555 1_555
N10_4 N9_4 1_555 1_555
N13 C25_4 1_555 1_555
H35_4 N10_4 1_555 1_555
H36_4 N10_4 1_555 1_555
C29_4 N13 1_555 1_555
C34_4 C35_4 1_555 1_555
O3 Cl1 1_555 1_555
O4 Cl1 1_555 1_555
Cl1_2 O1 1_555 1_555
O2 Cl1_2 1_555 1_555
Cl1_3 O1_2 1_555 1_555
O2_2 Cl1_3 1_555 1_555
O3_2 Cl1_3 1_555 1_555
O4_2 Cl1_3 1_555 1_555
Cl1_4 O1_3 1_555 1_555
O2_3 Cl1_4 1_555 1_555
O3_3 Cl1_4 1_555 1_555
O4_3 Cl1_4 1_555 1_555
Cl1_5 O1_4 1_555 1_555
O2_4 Cl1_5 1_555 1_555
O3_4 Cl1_5 1_555 1_555
O4_4 Cl1_5 1_555 1_555
O6 Cl2 1_555 1_555
O7 Cl2 1_555 1_555
Cl2_2 O5 1_555 1_555
O8 Cl2_2 1_555 1_555
Cl2_3 O5_2 1_555 1_555
O6_2 Cl2_3 1_555 1_555
O7_2 Cl2_3 1_555 1_555
O8_2 Cl2_3 1_555 1_555
Cl2_4 O5_3 1_555 1_555
O6_3 Cl2_4 1_555 1_555
O7_3 Cl2_4 1_555 1_555
O8_3 Cl2_4 1_555 1_555
Cl2_5 O5_4 1_555 1_555
O6_4 Cl2_5 1_555 1_555
O7_4 Cl2_5 1_555 1_555
O8_4 Cl2_5 1_555 1_555

#END
