
###############################################################################
#
# This file contains modified crystal structure data generated from the
# MOF subset of the Cambridge Structural Database (CSD) v543 
# hosted by the Cambridge Crystallographic Data Centre (CCDC).
#
# This work is licensed under the Creative Commons
# Attribution-NonCommercial-ShareAlike 4.0 International License.
# To view a copy of this license, visit
# http://creativecommons.org/licenses/by-nc-sa/4.0/
# or send a letter to
# Creative Commons, PO Box 1866, Mountain View, CA 94042, USA.
#
# CIF created using the CSD Python API on 29 September 2022
# The structure has been converted into the P1 space group
# The structure has a 3D framework
# The original CSD entry WUPMOL is in the monoclinic crystal system
# The framework has been calculated to contain at least 10.0% void space
# The void calculation uses a probe of radius 1.32A, grid spacing 0.4
#
###############################################################################

data_WUPMOL
_chemical_formula_moiety         '(C84 H52 Cd3 N12 O16 S4)n'
_symmetry_cell_setting           triclinic
_symmetry_space_group_name_H-M   'P 1'
_symmetry_Int_Tables_number      1
_space_group_name_Hall           'P 1'
loop_
_symmetry_equiv_pos_site_id
_symmetry_equiv_pos_as_xyz
1 x,y,z
_cell_length_a                   13.854(3)
_cell_length_b                   10.832(3)
_cell_length_c                   18.731(3)
_cell_angle_alpha                90
_cell_angle_beta                 130.624(10)
_cell_angle_gamma                90
_cell_volume                     2133.47
loop_
_atom_site_label
_atom_site_type_symbol
_atom_site_fract_x
_atom_site_fract_y
_atom_site_fract_z
C25 C 0.0772(4) 0.0151(4) 0.4464(3)
C26 C 0.0721(4) 0.0901(4) 0.3845(3)
H17 H 0.1266 0.0728 0.3730
Cd4 Cd -0.0000 0.32336(3) 0.2500
H12 H 0.8666 0.0511 0.5253
N4 N 0.9931(3) 0.1863(3) 0.3401(2)
C22 C 0.9146(4) 0.2073(4) 0.3573(3)
H14 H 0.8572 0.2723 0.3261
C23 C 0.9142(4) 0.1377(4) 0.4187(3)
H15 H 0.8581 0.1566 0.4285
C24 C 0.9983(3) 0.0387(3) 0.4663(2)
Cd4_2 Cd 1.0000 0.32336(3) 0.2500
Cd2 Cd 0.5000 0.94745(3) 0.7500
O11 O 0.3601(4) 0.8110(4) 0.6147(3)
O12 O 0.6399(4) 0.8110(4) 0.8853(3)
O13 O 0.5493(4) 0.8543(4) 0.6683(3)
O14 O 0.4507(4) 0.8543(4) 0.8317(3)
N4_2 N 0.0069(3) 0.1863(3) 0.1599(2)
C22_2 C 0.0854(4) 0.2073(4) 0.1427(3)
H14_2 H 0.1428 0.2723 0.1739
C23_2 C 0.0858(4) 0.1377(4) 0.0813(3)
H15_2 H 0.1419 0.1566 0.0715
C24_2 C 0.0017(3) 0.0387(3) 0.0337(2)
C25_2 C 0.9228(4) 0.0151(4) 0.0536(3)
C26_2 C 0.9279(4) 0.0901(4) 0.1155(3)
H17_2 H 0.8734 0.0728 0.1270
N1 N 0.6555(3) 0.9078(3) 0.3121(2)
N2 N 0.7613(3) 0.7372(3) 0.3923(3)
O1 O 0.1177(3) 0.4756(4) 0.3704(3)
O2 O 0.1877(3) 0.4106(3) 0.3004(2)
S1 S 0.60603(14) 0.83480(10) 0.42215(10)
C1 C 0.5767(6) 0.6748(4) 0.4257(5)
H1 H 0.6564 0.6329 0.4737
H2 H 0.5378 0.6366 0.3655
C2 C 0.4893(5) 0.6628(4) 0.4474(3)
C3 C 0.3872(4) 0.5824(4) 0.3949(3)
H3 H 0.3737 0.5359 0.3474
C4 C 0.3045(4) 0.5706(4) 0.4126(3)
C5 C 0.3223(4) 0.6433(4) 0.4817(3)
H4 H 0.2649 0.6385 0.4917
C6 C 0.4256(4) 0.7229(3) 0.5357(3)
C7 C 0.5101(4) 0.7311(4) 0.5193(3)
H5 H 0.5807 0.7824 0.5566
C8 C 0.1966(4) 0.4805(4) 0.3575(3)
C9 C 0.4458(4) 0.8003(3) 0.6105(3)
C10 C 0.6776(4) 0.8252(3) 0.3727(3)
C11 C 0.7301(3) 0.8715(4) 0.2899(3)
C12 C 0.7432(4) 0.9221(4) 0.2281(3)
H6 H 0.6999 0.9932 0.1937
C13 C 0.8236(6) 0.8615(5) 0.2208(5)
H7 H 0.8336 0.8917 0.1795
C14 C 0.8909(6) 0.7558(5) 0.2734(5)
H8 H 0.9456 0.7191 0.2671
C15 C 0.8790(5) 0.7054(5) 0.3332(4)
H9 H 0.9233 0.6348 0.3678
C16 C 0.7962(4) 0.7656(4) 0.3401(3)
N5 N 0.3445(3) 0.9078(3) 0.1879(2)
N6 N 0.2387(3) 0.7372(3) 0.1077(3)
O5 O 0.8823(3) 0.4756(4) 0.1296(3)
O6 O 0.8123(3) 0.4106(3) 0.1996(2)
S2 S 0.39397(14) 0.83480(10) 0.07785(10)
C27 C 0.4233(6) 0.6748(4) 0.0743(5)
H18 H 0.3436 0.6329 0.0263
H19 H 0.4622 0.6366 0.1345
C28 C 0.5107(5) 0.6628(4) 0.0526(3)
C29 C 0.6128(4) 0.5824(4) 0.1051(3)
H20 H 0.6263 0.5359 0.1526
C30 C 0.6955(4) 0.5706(4) 0.0874(3)
C31 C 0.6777(4) 0.6433(4) 0.0183(3)
H21 H 0.7351 0.6385 0.0083
C34 C 0.8034(4) 0.4805(4) 0.1425(3)
C36 C 0.3224(4) 0.8252(3) 0.1273(3)
C37 C 0.2699(3) 0.8715(4) 0.2101(3)
C38 C 0.2568(4) 0.9221(4) 0.2719(3)
H23 H 0.3001 0.9932 0.3063
C39 C 0.1764(6) 0.8615(5) 0.2792(5)
H24 H 0.1664 0.8917 0.3205
C40 C 0.1091(6) 0.7558(5) 0.2266(5)
H25 H 0.0544 0.7191 0.2329
C41 C 0.1210(5) 0.7054(5) 0.1668(4)
H26 H 0.0767 0.6348 0.1322
C42 C 0.2038(4) 0.7656(4) 0.1599(3)
C32 C 0.5744(4) 0.7229(3) 0.9643(3)
C33 C 0.4899(4) 0.7311(4) 0.9807(3)
H22 H 0.4193 0.7824 0.9434
C35 C 0.5542(4) 0.8003(3) 0.8895(3)
Cd1 Cd -0.0000 0.67664(3) 0.7500
N3 N 0.0069(3) 0.8137(3) 0.6599(2)
C17 C 0.0854(4) 0.7927(4) 0.6427(3)
H10 H 0.1428 0.7277 0.6739
C18 C 0.0858(4) 0.8623(4) 0.5813(3)
H11 H 0.1419 0.8434 0.5715
C19 C 0.0017(3) 0.9613(3) 0.5337(2)
H16 H 0.1334 0.9489 0.4747
O9 O 0.1177(3) 0.5244(4) 0.8704(3)
O10 O 0.1877(3) 0.5894(3) 0.8004(2)
O7 O 0.3601(4) 0.1890(4) 0.1147(3)
O8 O 0.5493(4) 0.1457(4) 0.1683(3)
C32_2 C 0.4256(4) 0.2771(3) 0.0357(3)
C33_2 C 0.5101(4) 0.2689(4) 0.0193(3)
H22_2 H 0.5807 0.2176 0.0566
C35_2 C 0.4458(4) 0.1997(3) 0.1105(3)
Cd6 Cd 0.5000 0.05255(3) 0.2500
Cd1_2 Cd 1.0000 0.67664(3) 0.7500
N1_2 N 0.3445(3) 0.0922(3) 0.6879(2)
N2_2 N 0.2387(3) 0.2628(3) 0.6077(3)
O1_2 O 0.8823(3) 0.5244(4) 0.6296(3)
O2_2 O 0.8123(3) 0.5894(3) 0.6996(2)
O3 O 0.6399(4) 0.1890(4) 0.3853(3)
O4 O 0.4507(4) 0.1457(4) 0.3317(3)
S1_2 S 0.39397(14) 0.16520(10) 0.57785(10)
C1_2 C 0.4233(6) 0.3252(4) 0.5743(5)
H1_2 H 0.3436 0.3671 0.5263
H2_2 H 0.4622 0.3634 0.6345
C2_2 C 0.5107(5) 0.3372(4) 0.5526(3)
C3_2 C 0.6128(4) 0.4176(4) 0.6051(3)
H3_2 H 0.6263 0.4641 0.6526
C4_2 C 0.6955(4) 0.4294(4) 0.5874(3)
C5_2 C 0.6777(4) 0.3567(4) 0.5183(3)
H4_2 H 0.7351 0.3615 0.5083
C6_2 C 0.5744(4) 0.2771(3) 0.4643(3)
C7_2 C 0.4899(4) 0.2689(4) 0.4807(3)
H5_2 H 0.4193 0.2176 0.4434
C8_2 C 0.8034(4) 0.5195(4) 0.6425(3)
C9_2 C 0.5542(4) 0.1997(3) 0.3895(3)
C10_2 C 0.3224(4) 0.1748(3) 0.6273(3)
C11_2 C 0.2699(3) 0.1285(4) 0.7101(3)
C12_2 C 0.2568(4) 0.0779(4) 0.7719(3)
H6_2 H 0.3001 0.0068 0.8063
C13_2 C 0.1764(6) 0.1385(5) 0.7792(5)
H7_2 H 0.1664 0.1083 0.8205
C14_2 C 0.1091(6) 0.2442(5) 0.7266(5)
H8_2 H 0.0544 0.2809 0.7329
C15_2 C 0.1210(5) 0.2946(5) 0.6668(4)
H9_2 H 0.0767 0.3652 0.6322
C16_2 C 0.2038(4) 0.2344(4) 0.6599(3)
C20 C 0.9228(4) 0.9849(4) 0.5536(3)
C21 C 0.9279(4) 0.9099(4) 0.6155(3)
H13 H 0.8734 0.9272 0.6270
N5_2 N 0.6555(3) 0.0922(3) 0.8121(2)
N6_2 N 0.7613(3) 0.2628(3) 0.8923(3)
S2_2 S 0.60603(14) 0.16520(10) 0.92215(10)
C27_2 C 0.5767(6) 0.3252(4) 0.9257(5)
H18_2 H 0.6564 0.3671 0.9737
H19_2 H 0.5378 0.3634 0.8655
C28_2 C 0.4893(5) 0.3372(4) 0.9474(3)
C29_2 C 0.3872(4) 0.4176(4) 0.8949(3)
H20_2 H 0.3737 0.4641 0.8474
C30_2 C 0.3045(4) 0.4294(4) 0.9126(3)
C31_2 C 0.3223(4) 0.3567(4) 0.9817(3)
H21_2 H 0.2649 0.3615 0.9917
C34_2 C 0.1966(4) 0.5195(4) 0.8575(3)
C36_2 C 0.6776(4) 0.1748(3) 0.8727(3)
C37_2 C 0.7301(3) 0.1285(4) 0.7899(3)
C38_2 C 0.7432(4) 0.0779(4) 0.7281(3)
H23_2 H 0.6999 0.0068 0.6937
C39_2 C 0.8236(6) 0.1385(5) 0.7208(5)
H24_2 H 0.8336 0.1083 0.6795
C40_2 C 0.8909(6) 0.2442(5) 0.7734(5)
H25_2 H 0.9456 0.2809 0.7671
C41_2 C 0.8790(5) 0.2946(5) 0.8332(4)
H26_2 H 0.9233 0.3652 0.8678
C42_2 C 0.7962(4) 0.2344(4) 0.8401(3)
N7 N 0.9931(3) 0.8137(3) 0.8401(2)
C20_2 C 0.0772(4) 0.9849(4) 0.9464(3)
C21_2 C 0.0721(4) 0.9099(4) 0.8845(3)
H13_2 H 0.1266 0.9272 0.8730
C17_2 C 0.9146(4) 0.7927(4) 0.8573(3)
H10_2 H 0.8572 0.7277 0.8261
C18_2 C 0.9142(4) 0.8623(4) 0.9187(3)
H11_2 H 0.8581 0.8434 0.9285
C19_2 C 0.9983(3) 0.9613(3) 0.9663(2)
H12_2 H 0.1334 0.0511 0.9747
H16_2 H 0.8666 0.9489 0.0253
loop_
_geom_bond_atom_site_label_1
_geom_bond_atom_site_label_2
_geom_bond_site_symmetry_1
_geom_bond_site_symmetry_2
H17 C26 1_555 1_555
C25 C26 1_555 1_555
N4 C22 1_555 1_555
C22 H14 1_555 1_555
C23 C22 1_555 1_555
H15 C23 1_555 1_555
Cd4_2 N4 1_555 1_555
C23 C24 1_555 1_555
O11 Cd2 1_555 1_555
O12 Cd2 1_555 1_555
O13 Cd2 1_555 1_555
O14 Cd2 1_555 1_555
N4_2 C22_2 1_555 1_555
C22_2 H14_2 1_555 1_555
C23_2 C22_2 1_555 1_555
H15_2 C23_2 1_555 1_555
Cd4 N4_2 1_555 1_555
C23_2 C24_2 1_555 1_555
H17_2 C26_2 1_555 1_555
C25_2 C26_2 1_555 1_555
N1 C10 1_555 1_555
N2 C10 1_555 1_555
O1 Cd4 1_555 1_555
O2 Cd4 1_555 1_555
O11 C9 1_555 1_555
O13 C9 1_555 1_555
S1 C1 1_555 1_555
C1 H1 1_555 1_555
H2 C1 1_555 1_555
C2 C1 1_555 1_555
C3 C2 1_555 1_555
H3 C3 1_555 1_555
C4 C3 1_555 1_555
C5 C4 1_555 1_555
H4 C5 1_555 1_555
C6 C5 1_555 1_555
C7 C2 1_555 1_555
H5 C7 1_555 1_555
C8 O1 1_555 1_555
C9 C6 1_555 1_555
C10 S1 1_555 1_555
C11 N1 1_555 1_555
C12 C11 1_555 1_555
H6 C12 1_555 1_555
C13 C12 1_555 1_555
H7 C13 1_555 1_555
C14 C13 1_555 1_555
H8 C14 1_555 1_555
C15 C14 1_555 1_555
H9 C15 1_555 1_555
C16 N2 1_555 1_555
N6 C36 1_555 1_555
O5 C34 1_555 1_555
O6 C34 1_555 1_555
S2 C27 1_555 1_555
C27 H18 1_555 1_555
H19 C27 1_555 1_555
C28 C27 1_555 1_555
C29 C28 1_555 1_555
H20 C29 1_555 1_555
C30 C29 1_555 1_555
C31 C30 1_555 1_555
H21 C31 1_555 1_555
C34 C30 1_555 1_555
C36 N5 1_555 1_555
C37 N5 1_555 1_555
C38 C37 1_555 1_555
H23 C38 1_555 1_555
C39 C38 1_555 1_555
H24 C39 1_555 1_555
C40 C39 1_555 1_555
H25 C40 1_555 1_555
C41 C40 1_555 1_555
H26 C41 1_555 1_555
C42 N6 1_555 1_555
Cd4_2 O5 1_555 1_555
O2 C8 1_555 1_555
C4 C8 1_555 1_555
C6 C7 1_555 1_555
C11 C16 1_555 1_555
C15 C16 1_555 1_555
O6 Cd4_2 1_555 1_555
S2 C36 1_555 1_555
C37 C42 1_555 1_555
C41 C42 1_555 1_555
O12 C35 1_555 1_555
O14 C35 1_555 1_555
H22 C33 1_555 1_555
C35 C32 1_555 1_555
C32 C33 1_555 1_555
Cd1 N3 1_555 1_555
N3 C17 1_555 1_555
C17 H10 1_555 1_555
C18 C17 1_555 1_555
H11 C18 1_555 1_555
C19 C18 1_555 1_555
O9 Cd1 1_555 1_555
O10 Cd1 1_555 1_555
O7 C35_2 1_555 1_555
O8 C35_2 1_555 1_555
H22_2 C33_2 1_555 1_555
C35_2 C32_2 1_555 1_555
Cd6 O7 1_555 1_555
O8 Cd6 1_555 1_555
C32_2 C33_2 1_555 1_555
N1_2 C10_2 1_555 1_555
N2_2 C10_2 1_555 1_555
O1_2 Cd1_2 1_555 1_555
O2_2 Cd1_2 1_555 1_555
O3 C9_2 1_555 1_555
O4 C9_2 1_555 1_555
S1_2 C1_2 1_555 1_555
C1_2 H1_2 1_555 1_555
H2_2 C1_2 1_555 1_555
C2_2 C1_2 1_555 1_555
C3_2 C2_2 1_555 1_555
H3_2 C3_2 1_555 1_555
C4_2 C3_2 1_555 1_555
C5_2 C4_2 1_555 1_555
H4_2 C5_2 1_555 1_555
C6_2 C5_2 1_555 1_555
C7_2 C2_2 1_555 1_555
H5_2 C7_2 1_555 1_555
C8_2 O1_2 1_555 1_555
C9_2 C6_2 1_555 1_555
C10_2 S1_2 1_555 1_555
C11_2 N1_2 1_555 1_555
C12_2 C11_2 1_555 1_555
H6_2 C12_2 1_555 1_555
C13_2 C12_2 1_555 1_555
H7_2 C13_2 1_555 1_555
C14_2 C13_2 1_555 1_555
H8_2 C14_2 1_555 1_555
C15_2 C14_2 1_555 1_555
H9_2 C15_2 1_555 1_555
C16_2 N2_2 1_555 1_555
H13 C21 1_555 1_555
N6_2 C36_2 1_555 1_555
O9 C34_2 1_555 1_555
O10 C34_2 1_555 1_555
S2_2 C27_2 1_555 1_555
C27_2 H18_2 1_555 1_555
H19_2 C27_2 1_555 1_555
C28_2 C27_2 1_555 1_555
C29_2 C28_2 1_555 1_555
H20_2 C29_2 1_555 1_555
C30_2 C29_2 1_555 1_555
C31_2 C30_2 1_555 1_555
H21_2 C31_2 1_555 1_555
C34_2 C30_2 1_555 1_555
C36_2 N5_2 1_555 1_555
C37_2 N5_2 1_555 1_555
C38_2 C37_2 1_555 1_555
H23_2 C38_2 1_555 1_555
C39_2 C38_2 1_555 1_555
H24_2 C39_2 1_555 1_555
C40_2 C39_2 1_555 1_555
H25_2 C40_2 1_555 1_555
C41_2 C40_2 1_555 1_555
H26_2 C41_2 1_555 1_555
C42_2 N6_2 1_555 1_555
Cd6 O3 1_555 1_555
N7 Cd1_2 1_555 1_555
O2_2 C8_2 1_555 1_555
O4 Cd6 1_555 1_555
C4_2 C8_2 1_555 1_555
C6_2 C7_2 1_555 1_555
C11_2 C16_2 1_555 1_555
C15_2 C16_2 1_555 1_555
C20 C21 1_555 1_555
S2_2 C36_2 1_555 1_555
C37_2 C42_2 1_555 1_555
C41_2 C42_2 1_555 1_555
H13_2 C21_2 1_555 1_555
C20_2 C21_2 1_555 1_555
N7 C17_2 1_555 1_555
C17_2 H10_2 1_555 1_555
C18_2 C17_2 1_555 1_555
H11_2 C18_2 1_555 1_555
C19_2 C18_2 1_555 1_555

#END
