
###############################################################################
#
# This file contains modified crystal structure data generated from the
# MOF subset of the Cambridge Structural Database (CSD) v543 
# hosted by the Cambridge Crystallographic Data Centre (CCDC).
#
# This work is licensed under the Creative Commons
# Attribution-NonCommercial-ShareAlike 4.0 International License.
# To view a copy of this license, visit
# http://creativecommons.org/licenses/by-nc-sa/4.0/
# or send a letter to
# Creative Commons, PO Box 1866, Mountain View, CA 94042, USA.
#
# CIF created using the CSD Python API on 29 September 2022
# The structure has been converted into the P1 space group
# The structure has a 3D framework
# The original CSD entry WUPSOS is in the rhombohedral crystal system
# The framework has been calculated to contain at least 10.0% void space
# The void calculation uses a probe of radius 1.32A, grid spacing 0.4
#
###############################################################################

data_WUPSOS
_chemical_formula_moiety         '(C216 H144 Co12 N36 O52)n'
_symmetry_cell_setting           triclinic
_symmetry_space_group_name_H-M   'P 1'
_symmetry_Int_Tables_number      1
_space_group_name_Hall           'P 1'
loop_
_symmetry_equiv_pos_site_id
_symmetry_equiv_pos_as_xyz
1 x,y,z
_cell_length_a                   18.3739(9)
_cell_length_b                   18.3739(9)
_cell_length_c                   20.0058(10)
_cell_angle_alpha                90
_cell_angle_beta                 90
_cell_angle_gamma                120
_cell_volume                     5849.1
loop_
_atom_site_label
_atom_site_type_symbol
_atom_site_fract_x
_atom_site_fract_y
_atom_site_fract_z
O15 O 0.21954(18) 0.04517(26) 0.67185(17)
O16 O 0.21977(18) 0.16501(26) 0.66023(17)
C67 C 0.1803(3) 0.0855(4) 0.6672(2)
C68 C 0.0873(3) 0.0414(4) 0.6702(2)
C72 C 0.0463(4) 0.0874(3) 0.6704(2)
H48 H 0.077072 0.145821 0.670580
Co7 Co 0.333333 0.166666 0.666667
Co1 Co 0.833333 0.666667 0.666667
O1 O 0.7012(3) 0.6269(3) 0.33079(19)
O2 O 0.84103(19) 0.55287(18) 0.66148(17)
O3 O 0.72142(19) 0.55310(18) 0.67310(17)
N1 N 0.8182(2) 0.6642(2) 0.56038(19)
N2 N 0.8374(3) 0.6718(3) 0.3065(2)
H1 H 0.886076 0.689367 0.324077
C1 C 0.8815(4) 0.6912(5) 0.5180(3)
H2 H 0.935456 0.713084 0.535303
C2 C 0.8722(4) 0.6889(5) 0.4495(3)
H3 H 0.918994 0.708893 0.421874
C3 C 0.7935(3) 0.6569(3) 0.4224(2)
C4 C 0.7287(4) 0.6294(5) 0.4668(3)
H4 H 0.674070 0.607794 0.451150
C5 C 0.7431(4) 0.6334(5) 0.5335(3)
H5 H 0.697019 0.613033 0.561980
C6 C 0.7729(4) 0.6500(3) 0.3492(2)
C7 C 0.8334(3) 0.6687(3) 0.2363(3)
C8 C 0.9039(4) 0.7253(4) 0.2004(3)
H6 H 0.951277 0.765460 0.223022
C9 C 0.7622(4) 0.6107(4) 0.2013(3)
H7 H 0.713911 0.573520 0.224611
C10 C 0.7614(3) 0.5136(3) 0.6661(2)
C11 C 0.7125(3) 0.4206(3) 0.6631(2)
C12 C 0.7541(3) 0.3745(3) 0.6629(2)
H8 H 0.812488 0.402083 0.662753
O4 O 0.9655(3) 0.7064(3) 0.00254(19)
N4 N 0.8293(3) 0.6615(3) 0.0268(2)
H9 H 0.780591 0.643966 0.009256
C19 C 0.8333(3) 0.6646(3) 0.0970(3)
C20 C 0.7628(4) 0.6080(4) 0.1329(3)
H14 H 0.715390 0.567873 0.110311
C21 C 0.9045(4) 0.7226(4) 0.1320(3)
H15 H 0.952756 0.759813 0.108722
O5 O 0.44713(18) 0.28816(26) 0.66148(17)
O6 O 0.44690(18) 0.16832(26) 0.67310(17)
C22 C 0.4864(3) 0.2478(4) 0.6661(2)
C23 C 0.5794(3) 0.2919(4) 0.6631(2)
C24 C 0.6255(3) 0.3796(4) 0.6629(2)
H16 H 0.597917 0.410405 0.662753
O7 O 0.71184(26) 0.15897(19) 0.66148(17)
O8 O 0.83168(26) 0.27858(19) 0.67310(17)
C25 C 0.7522(4) 0.2386(3) 0.6661(2)
C26 C 0.7081(4) 0.2875(3) 0.6631(2)
C27 C 0.6204(4) 0.2459(3) 0.6629(2)
H17 H 0.589595 0.187512 0.662753
O9 O 0.3731(3) 0.0743(4) 0.33079(19)
N5 N 0.3358(2) 0.1540(3) 0.56038(19)
N6 N 0.3282(3) 0.1656(4) 0.3065(2)
H18 H 0.310633 0.196709 0.324077
C28 C 0.3088(5) 0.1903(6) 0.5180(3)
H19 H 0.286916 0.222372 0.535303
C29 C 0.3111(5) 0.1833(6) 0.4495(3)
H20 H 0.291107 0.210101 0.421874
C30 C 0.3431(3) 0.1366(4) 0.4224(2)
C31 C 0.3706(5) 0.0993(6) 0.4668(3)
H21 H 0.392206 0.066276 0.451150
C32 C 0.3666(5) 0.1097(6) 0.5335(3)
H22 H 0.386967 0.083986 0.561980
C33 C 0.3500(3) 0.1229(5) 0.3492(2)
C34 C 0.3313(3) 0.1647(4) 0.2363(3)
C35 C 0.2747(4) 0.1786(6) 0.2004(3)
H23 H 0.234540 0.185817 0.223022
C36 C 0.3893(4) 0.1515(6) 0.2013(3)
H24 H 0.426480 0.140391 0.224611
O10 O 0.2936(3) 0.2590(4) 0.00254(19)
N8 N 0.3385(3) 0.1677(4) 0.0268(2)
H25 H 0.356034 0.136624 0.009256
C43 C 0.3354(3) 0.1686(4) 0.0970(3)
C44 C 0.3920(4) 0.1547(6) 0.1329(3)
H30 H 0.432127 0.147516 0.110311
C45 C 0.2774(4) 0.1818(6) 0.1320(3)
H31 H 0.240187 0.192942 0.108722
Co3 Co 0.833334 0.166667 0.666667
O11 O 0.9257(4) 0.2988(3) 0.33079(19)
N9 N 0.8460(3) 0.1818(2) 0.56038(19)
N10 N 0.8344(4) 0.1626(3) 0.3065(2)
H32 H 0.803291 0.113924 0.324077
C46 C 0.8097(6) 0.1185(4) 0.5180(3)
H33 H 0.777628 0.064544 0.535303
C47 C 0.8167(6) 0.1278(4) 0.4495(3)
H34 H 0.789899 0.081006 0.421874
C48 C 0.8634(4) 0.2065(3) 0.4224(2)
C49 C 0.9007(6) 0.2713(4) 0.4668(3)
H35 H 0.933724 0.325930 0.451150
C50 C 0.8903(6) 0.2569(4) 0.5335(3)
H36 H 0.916014 0.302981 0.561980
C51 C 0.8771(5) 0.2271(4) 0.3492(2)
C52 C 0.8353(4) 0.1666(3) 0.2363(3)
C53 C 0.8214(6) 0.0961(4) 0.2004(3)
H37 H 0.814183 0.048723 0.223022
C54 C 0.8485(6) 0.2378(4) 0.2013(3)
H38 H 0.859609 0.286089 0.224611
O12 O 0.7410(4) 0.0345(3) 0.00254(19)
N12 N 0.8323(4) 0.1707(3) 0.0268(2)
H39 H 0.863376 0.219409 0.009256
C61 C 0.8314(4) 0.1667(3) 0.0970(3)
C62 C 0.8453(6) 0.2372(4) 0.1329(3)
H44 H 0.852484 0.284610 0.110311
C63 C 0.8182(6) 0.0955(4) 0.1320(3)
H45 H 0.807058 0.047244 0.108722
O17 O 0.95483(26) 0.17436(19) 0.67185(17)
O18 O 0.83499(26) 0.05475(19) 0.66023(17)
C70 C 0.9145(4) 0.0947(3) 0.6672(2)
C71 C 0.9586(4) 0.0458(3) 0.6702(2)
O19 O 0.82564(19) 0.78046(18) 0.67185(17)
O21 O 0.94525(19) 0.78023(18) 0.66023(17)
N13 N 0.8485(2) 0.6691(2) 0.77295(19)
N14 N 0.3309(2) 0.1793(3) 0.77295(19)
N15 N 0.8207(3) 0.1515(2) 0.77295(19)
C13 C 0.7852(4) 0.6421(5) 0.8153(3)
H10 H 0.731211 0.620249 0.798030
C14 C 0.7945(4) 0.6444(5) 0.8838(3)
H11 H 0.747673 0.624440 0.911459
C15 C 0.8732(3) 0.6764(3) 0.9109(2)
C16 C 0.9380(4) 0.7039(5) 0.8665(3)
H12 H 0.992597 0.725539 0.882183
C17 C 0.9236(4) 0.6999(5) 0.7998(3)
H13 H 0.969648 0.720300 0.771353
C18 C 0.8938(4) 0.6833(3) 0.9841(2)
C37 C 0.3579(5) 0.1430(6) 0.8153(3)
H26 H 0.379751 0.110961 0.798030
C38 C 0.3556(5) 0.1500(6) 0.8838(3)
H27 H 0.375560 0.123232 0.911459
C39 C 0.3236(3) 0.1967(4) 0.9109(2)
C40 C 0.2961(5) 0.2340(6) 0.8665(3)
H28 H 0.274461 0.267057 0.882183
C41 C 0.3001(5) 0.2236(6) 0.7998(3)
H29 H 0.279700 0.249347 0.771353
C42 C 0.3167(3) 0.2104(5) 0.9841(2)
C55 C 0.8570(6) 0.2148(4) 0.8153(3)
H40 H 0.889039 0.268789 0.798030
C56 C 0.8500(6) 0.2055(4) 0.8838(3)
H41 H 0.876768 0.252327 0.911459
C57 C 0.8033(4) 0.1268(3) 0.9109(2)
C58 C 0.7660(6) 0.0620(4) 0.8665(3)
H42 H 0.732943 0.007403 0.882183
C59 C 0.7764(6) 0.0764(4) 0.7998(3)
H43 H 0.750653 0.030352 0.771353
C60 C 0.7896(5) 0.1062(4) 0.9841(2)
C64 C 0.9053(3) 0.8197(3) 0.6672(2)
C65 C 0.9542(3) 0.9127(3) 0.6702(2)
C66 C 0.9126(3) 0.9588(3) 0.6704(2)
H46 H 0.854179 0.931250 0.670580
C69 C 0.0412(3) 0.9537(4) 0.6704(2)
H47 H 0.068750 0.922928 0.670580
Co7_2 Co -0.000000 0.499999 0.000000
Co7_3 Co -0.000000 0.499999 1.000000
Co1_2 Co 0.500000 0.000000 0.000000
O19_2 O 0.49230(19) 0.11380(18) 0.00519(17)
N13_2 N 0.5151(2) 0.0025(2) 0.10629(19)
Co1_3 Co 0.500000 0.000000 1.000000
N2_2 N 0.5041(3) 0.0051(3) 0.6398(2)
H1_2 H 0.552743 0.022700 0.657410
C1_2 C 0.5482(4) 0.0245(5) 0.8513(3)
H2_2 H 0.602123 0.046417 0.868636
C2_2 C 0.5389(4) 0.0222(5) 0.7828(3)
H3_2 H 0.585661 0.042226 0.755207
C7_2 C 0.5001(3) 0.0020(3) 0.5696(3)
C8_2 C 0.5706(4) 0.0586(4) 0.5337(3)
H6_2 H 0.617944 0.098793 0.556355
O4_2 O 0.6321(3) 0.0398(3) 0.33588(19)
C15_2 C 0.5398(3) 0.0098(3) 0.2443(2)
C16_2 C 0.6046(4) 0.0373(5) 0.1999(3)
H12_2 H 0.659263 0.058873 0.215517
C17_2 C 0.5902(4) 0.0333(5) 0.1332(3)
H13_2 H 0.636314 0.053634 0.104687
C18_2 C 0.5604(4) 0.0167(3) 0.3175(2)
C21_2 C 0.5711(4) 0.0560(4) 0.4654(3)
H15_2 H 0.619422 0.093147 0.442056
O21_2 O 0.61191(19) 0.11357(18) 0.99357(17)
Co1_4 Co 0.500000 1.000000 0.000000
O3_2 O 0.38809(19) 0.88643(18) 0.00643(17)
O6_2 O 0.11357(18) 0.50165(26) 0.00643(17)
O8_2 O 0.49835(26) 0.61191(19) 0.00643(17)
Co3_2 Co 0.500001 0.500000 0.000000
C64_2 C 0.5719(3) 0.1531(3) 0.0006(2)
C65_2 C 0.6208(3) 0.2461(3) 0.0036(2)
C66_2 C 0.5792(3) 0.2922(3) 0.0038(2)
H46_2 H 0.520845 0.264584 0.003914
O15_2 O 0.88620(18) 0.37851(26) 0.00519(17)
C67_2 C 0.8469(3) 0.4189(4) 0.0006(2)
C68_2 C 0.7539(3) 0.3748(4) 0.0036(2)
C69_2 C 0.7078(3) 0.2871(4) 0.0038(2)
H47_2 H 0.735416 0.256262 0.003914
O17_2 O 0.62149(26) 0.50770(19) 0.00519(17)
C70_2 C 0.5811(4) 0.4281(3) 0.0006(2)
C71_2 C 0.6252(4) 0.3792(3) 0.0036(2)
C72_2 C 0.7129(4) 0.4208(3) 0.0038(2)
H48_2 H 0.743738 0.479155 0.003914
Co7_4 Co 1.000000 0.499999 0.000000
N15_2 N 0.4873(3) 0.4849(2) 0.10629(19)
Co1_5 Co 0.500000 1.000000 1.000000
O1_2 O 0.3679(3) 0.9602(3) 0.66412(19)
O2_2 O 0.50770(19) 0.88620(18) 0.99481(17)
N1_2 N 0.4849(2) 0.9975(2) 0.89371(19)
C3_2 C 0.4602(3) 0.9902(3) 0.7557(2)
C4_2 C 0.3954(4) 0.9627(5) 0.8001(3)
H4_2 H 0.340737 0.941127 0.784483
C5_2 C 0.4098(4) 0.9667(5) 0.8668(3)
H5_2 H 0.363686 0.946366 0.895313
C6_2 C 0.4396(4) 0.9833(3) 0.6825(2)
C9_2 C 0.4289(4) 0.9440(4) 0.5346(3)
H7_2 H 0.380578 0.906853 0.557944
C10_2 C 0.4281(3) 0.8469(3) 0.9994(2)
C11_2 C 0.3792(3) 0.7539(3) 0.9964(2)
C12_2 C 0.4208(3) 0.7078(3) 0.9962(2)
H8_2 H 0.479155 0.735416 0.996086
N4_2 N 0.4959(3) 0.9949(3) 0.3602(2)
H9_2 H 0.447257 0.977300 0.342590
C13_2 C 0.4518(4) 0.9755(5) 0.1487(3)
H10_2 H 0.397877 0.953583 0.131364
C14_2 C 0.4611(4) 0.9778(5) 0.2172(3)
H11_2 H 0.414339 0.957774 0.244793
C19_2 C 0.4999(3) 0.9980(3) 0.4304(3)
C20_2 C 0.4294(4) 0.9414(4) 0.4663(3)
H14_2 H 0.382056 0.901207 0.443645
O5_2 O 0.11380(18) 0.62149(26) 0.99481(17)
C22_2 C 0.1531(3) 0.5811(4) 0.9994(2)
C23_2 C 0.2461(3) 0.6252(4) 0.9964(2)
C24_2 C 0.2922(3) 0.7129(4) 0.9962(2)
H16_2 H 0.264584 0.743738 0.996086
O7_2 O 0.37851(26) 0.49230(19) 0.99481(17)
C25_2 C 0.4189(4) 0.5719(3) 0.9994(2)
C26_2 C 0.3748(4) 0.6208(3) 0.9964(2)
C27_2 C 0.2871(4) 0.5792(3) 0.9962(2)
H17_2 H 0.256262 0.520845 0.996086
O9_2 O 0.0398(3) 0.4076(4) 0.66412(19)
N5_2 N 0.0025(2) 0.4873(3) 0.89371(19)
C30_2 C 0.0098(3) 0.4699(4) 0.7557(2)
C31_2 C 0.0373(5) 0.4326(6) 0.8001(3)
H21_2 H 0.058873 0.399609 0.784483
C32_2 C 0.0333(5) 0.4430(6) 0.8668(3)
H22_2 H 0.053634 0.417319 0.895313
C33_2 C 0.0167(3) 0.4562(5) 0.6825(2)
C36_2 C 0.0560(4) 0.4848(6) 0.5346(3)
H24_2 H 0.093147 0.473724 0.557944
N8_2 N 0.0051(3) 0.5011(4) 0.3602(2)
H25_2 H 0.022700 0.469958 0.342590
C37_2 C 0.0245(5) 0.4764(6) 0.1487(3)
H26_2 H 0.046417 0.444295 0.131364
C38_2 C 0.0222(5) 0.4834(6) 0.2172(3)
H27_2 H 0.042226 0.456566 0.244793
C43_2 C 0.0020(3) 0.5020(4) 0.4304(3)
C44_2 C 0.0586(4) 0.4881(6) 0.4663(3)
H30_2 H 0.098793 0.480850 0.443645
Co3_3 Co 0.500001 0.500000 1.000000
O11_2 O 0.5924(4) 0.6321(3) 0.66412(19)
N9_2 N 0.5127(3) 0.5151(2) 0.89371(19)
N10_2 N 0.5011(4) 0.4959(3) 0.6398(2)
H32_2 H 0.469958 0.447257 0.657410
C46_2 C 0.4764(6) 0.4518(4) 0.8513(3)
H33_2 H 0.444295 0.397877 0.868636
C47_2 C 0.4834(6) 0.4611(4) 0.7828(3)
H34_2 H 0.456566 0.414339 0.755207
C48_2 C 0.5301(4) 0.5398(3) 0.7557(2)
C49_2 C 0.5674(6) 0.6046(4) 0.8001(3)
H35_2 H 0.600391 0.659263 0.784483
C50_2 C 0.5570(6) 0.5902(4) 0.8668(3)
H36_2 H 0.582681 0.636314 0.895313
C51_2 C 0.5438(5) 0.5604(4) 0.6825(2)
C52_2 C 0.5020(4) 0.4999(3) 0.5696(3)
C53_2 C 0.4881(6) 0.4294(4) 0.5337(3)
H37_2 H 0.480850 0.382056 0.556355
C54_2 C 0.5152(6) 0.5711(4) 0.5346(3)
H38_2 H 0.526276 0.619422 0.557944
O12_2 O 0.4076(4) 0.3679(3) 0.33588(19)
N12_2 N 0.4989(4) 0.5041(3) 0.3602(2)
H39_2 H 0.530042 0.552743 0.342590
C55_2 C 0.5236(6) 0.5482(4) 0.1487(3)
H40_2 H 0.555705 0.602123 0.131364
C56_2 C 0.5166(6) 0.5389(4) 0.2172(3)
H41_2 H 0.543434 0.585661 0.244793
C57_2 C 0.4699(4) 0.4602(3) 0.2443(2)
C58_2 C 0.4326(6) 0.3954(4) 0.1999(3)
H42_2 H 0.399609 0.340737 0.215517
C59_2 C 0.4430(6) 0.4098(4) 0.1332(3)
H43_2 H 0.417319 0.363686 0.104687
C60_2 C 0.4562(5) 0.4396(4) 0.3175(2)
C61_2 C 0.4980(4) 0.5001(3) 0.4304(3)
C62_2 C 0.5119(6) 0.5706(4) 0.4663(3)
H44_2 H 0.519150 0.617944 0.443645
C63_2 C 0.4848(6) 0.4289(4) 0.4654(3)
H45_2 H 0.473724 0.380578 0.442056
O16_2 O 0.88643(18) 0.49835(26) 0.99357(17)
O18_2 O 0.50165(26) 0.38809(19) 0.99357(17)
Co7_5 Co 1.000000 0.499999 1.000000
N14_2 N 0.9975(2) 0.5127(3) 0.10629(19)
N6_2 N 0.9949(3) 0.4989(4) 0.6398(2)
H18_2 H 0.977300 0.530042 0.657410
C28_2 C 0.9755(5) 0.5236(6) 0.8513(3)
H19_2 H 0.953583 0.555705 0.868636
C29_2 C 0.9778(5) 0.5166(6) 0.7828(3)
H20_2 H 0.957774 0.543434 0.755207
C34_2 C 0.9980(3) 0.4980(4) 0.5696(3)
C35_2 C 0.9414(4) 0.5119(6) 0.5337(3)
H23_2 H 0.901207 0.519150 0.556355
O10_2 O 0.9602(3) 0.5924(4) 0.33588(19)
C39_2 C 0.9902(3) 0.5301(4) 0.2443(2)
C40_2 C 0.9627(5) 0.5674(6) 0.1999(3)
H28_2 H 0.941127 0.600391 0.215517
C41_2 C 0.9667(5) 0.5570(6) 0.1332(3)
H29_2 H 0.946366 0.582681 0.104687
C42_2 C 0.9833(3) 0.5438(5) 0.3175(2)
C45_2 C 0.9440(4) 0.5152(6) 0.4654(3)
H31_2 H 0.906853 0.526276 0.442056
Co1_6 Co 0.166666 0.333334 0.333334
O2_3 O 0.17436(19) 0.21954(18) 0.32815(17)
O3_3 O 0.05475(19) 0.21977(18) 0.33977(17)
N1_3 N 0.1515(2) 0.3309(2) 0.22705(19)
C1_3 C 0.2148(4) 0.3579(5) 0.1847(3)
H2_3 H 0.268789 0.379751 0.201970
C2_3 C 0.2055(4) 0.3556(5) 0.1162(3)
H3_3 H 0.252327 0.375560 0.088541
C3_3 C 0.1268(3) 0.3236(3) 0.0891(2)
C4_3 C 0.0620(4) 0.2961(5) 0.1335(3)
H4_3 H 0.007403 0.274461 0.117817
C5_3 C 0.0764(4) 0.3001(5) 0.2002(3)
H5_3 H 0.030352 0.279700 0.228647
C6_3 C 0.1062(4) 0.3167(3) 0.0159(2)
C10_3 C 0.0947(3) 0.1803(3) 0.3328(2)
C11_3 C 0.0458(3) 0.0873(3) 0.3298(2)
C12_3 C 0.0874(3) 0.0412(3) 0.3296(2)
H8_3 H 0.145821 0.068750 0.329420
O19_3 O 0.15897(19) 0.44713(18) 0.33852(17)
O21_3 O 0.27858(19) 0.44690(18) 0.32690(17)
N13_3 N 0.1818(2) 0.3358(2) 0.43962(19)
O1_3 O 0.0345(3) 0.2936(3) 0.99746(19)
N2_3 N 0.1707(3) 0.3385(3) 0.9732(2)
H1_3 H 0.219409 0.356034 0.990744
C7_3 C 0.1667(3) 0.3354(3) 0.9030(3)
C8_3 C 0.2372(4) 0.3920(4) 0.8671(3)
H6_3 H 0.284610 0.432127 0.889689
C9_3 C 0.0955(4) 0.2774(4) 0.8680(3)
H7_3 H 0.047244 0.240187 0.891278
O4_3 O 0.2988(3) 0.3731(3) 0.66921(19)
N4_3 N 0.1626(3) 0.3282(3) 0.6935(2)
H9_3 H 0.113924 0.310633 0.675923
C13_3 C 0.1185(4) 0.3088(5) 0.4820(3)
H10_3 H 0.064544 0.286916 0.464697
C14_3 C 0.1278(4) 0.3111(5) 0.5505(3)
H11_3 H 0.081006 0.291107 0.578126
C15_3 C 0.2065(3) 0.3431(3) 0.5776(2)
C16_3 C 0.2713(4) 0.3706(5) 0.5332(3)
H12_3 H 0.325930 0.392206 0.548850
C17_3 C 0.2569(4) 0.3666(5) 0.4665(3)
H13_3 H 0.302981 0.386967 0.438020
C18_3 C 0.2271(4) 0.3500(3) 0.6508(2)
C19_3 C 0.1666(3) 0.3313(3) 0.7637(3)
C20_3 C 0.0961(4) 0.2747(4) 0.7996(3)
H14_3 H 0.048723 0.234540 0.776978
C21_3 C 0.2378(4) 0.3893(4) 0.7987(3)
H15_3 H 0.286089 0.426480 0.775389
O7_3 O 0.04517(26) 0.82564(19) 0.32815(17)
O8_3 O 0.16501(26) 0.94525(19) 0.33977(17)
C25_3 C 0.0855(4) 0.9053(3) 0.3328(2)
C26_3 C 0.0414(4) 0.9542(3) 0.3298(2)
Co3_4 Co 0.166667 0.833334 0.333334
N9_3 N 0.1793(3) 0.8485(2) 0.22705(19)
C46_3 C 0.1430(6) 0.7852(4) 0.1847(3)
H33_3 H 0.110961 0.731211 0.201970
C47_3 C 0.1500(6) 0.7945(4) 0.1162(3)
H34_3 H 0.123232 0.747673 0.088541
C48_3 C 0.1967(4) 0.8732(3) 0.0891(2)
C49_3 C 0.2340(6) 0.9380(4) 0.1335(3)
H35_3 H 0.267057 0.992597 0.117817
C50_3 C 0.2236(6) 0.9236(4) 0.2002(3)
H36_3 H 0.249347 0.969648 0.228647
C51_3 C 0.2104(5) 0.8938(4) 0.0159(2)
C64_3 C 0.2386(3) 0.4864(3) 0.3339(2)
C65_3 C 0.2875(3) 0.5794(3) 0.3369(2)
C66_3 C 0.2459(3) 0.6255(3) 0.3371(2)
H46_3 H 0.187512 0.597917 0.337247
O15_3 O 0.55287(18) 0.71184(26) 0.33852(17)
O16_3 O 0.55310(18) 0.83168(26) 0.32690(17)
C67_3 C 0.5136(3) 0.7522(4) 0.3339(2)
C68_3 C 0.4206(3) 0.7081(4) 0.3369(2)
C69_3 C 0.3745(3) 0.6204(4) 0.3371(2)
H47_3 H 0.402083 0.589595 0.337247
O17_3 O 0.28816(26) 0.84103(19) 0.33852(17)
O18_3 O 0.16832(26) 0.72142(19) 0.32690(17)
C70_3 C 0.2478(4) 0.7614(3) 0.3339(2)
C71_3 C 0.2919(4) 0.7125(3) 0.3369(2)
C72_3 C 0.3796(4) 0.7541(3) 0.3371(2)
H48_3 H 0.410405 0.812488 0.337247
Co7_6 Co 0.666666 0.833333 0.333334
N15_3 N 0.1540(3) 0.8182(2) 0.43962(19)
O11_3 O 0.2590(4) 0.9655(3) 0.99746(19)
N10_3 N 0.1677(4) 0.8293(3) 0.9732(2)
H32_3 H 0.136624 0.780591 0.990744
C52_3 C 0.1686(4) 0.8333(3) 0.9030(3)
C53_3 C 0.1547(6) 0.7628(4) 0.8671(3)
H37_3 H 0.147516 0.715390 0.889689
C54_3 C 0.1818(6) 0.9045(4) 0.8680(3)
H38_3 H 0.192942 0.952756 0.891278
O12_3 O 0.0743(4) 0.7012(3) 0.66921(19)
N12_3 N 0.1656(4) 0.8374(3) 0.6935(2)
H39_3 H 0.196709 0.886076 0.675923
C55_3 C 0.1903(6) 0.8815(4) 0.4820(3)
H40_3 H 0.222372 0.935456 0.464697
C56_3 C 0.1833(6) 0.8722(4) 0.5505(3)
H41_3 H 0.210101 0.918994 0.578126
C57_3 C 0.1366(4) 0.7935(3) 0.5776(2)
C58_3 C 0.0993(6) 0.7287(4) 0.5332(3)
H42_3 H 0.066276 0.674070 0.548850
C59_3 C 0.1097(6) 0.7431(4) 0.4665(3)
H43_3 H 0.083986 0.697019 0.438020
C60_3 C 0.1229(5) 0.7729(4) 0.6508(2)
C61_3 C 0.1647(4) 0.8334(3) 0.7637(3)
C62_3 C 0.1786(6) 0.9039(4) 0.7996(3)
H44_3 H 0.185817 0.951277 0.776978
C63_3 C 0.1515(6) 0.7622(4) 0.7987(3)
H45_3 H 0.140391 0.713911 0.775389
O5_3 O 0.78046(18) 0.95483(26) 0.32815(17)
O6_3 O 0.78023(18) 0.83499(26) 0.33977(17)
C22_3 C 0.8197(3) 0.9145(4) 0.3328(2)
C23_3 C 0.9127(3) 0.9586(4) 0.3298(2)
C27_3 C 0.9537(4) 0.9126(3) 0.3296(2)
H17_3 H 0.922928 0.854179 0.329420
N5_3 N 0.6691(2) 0.8207(3) 0.22705(19)
C28_3 C 0.6421(5) 0.8570(6) 0.1847(3)
H19_3 H 0.620249 0.889039 0.201970
C29_3 C 0.6444(5) 0.8500(6) 0.1162(3)
H20_3 H 0.624440 0.876768 0.088541
C30_3 C 0.6764(3) 0.8033(4) 0.0891(2)
C31_3 C 0.7039(5) 0.7660(6) 0.1335(3)
H21_3 H 0.725539 0.732943 0.117817
C32_3 C 0.6999(5) 0.7764(6) 0.2002(3)
H22_3 H 0.720300 0.750653 0.228647
C33_3 C 0.6833(3) 0.7896(5) 0.0159(2)
N14_3 N 0.6642(2) 0.8460(3) 0.43962(19)
O9_3 O 0.7064(3) 0.7410(4) 0.99746(19)
N6_3 N 0.6615(3) 0.8323(4) 0.9732(2)
H18_3 H 0.643966 0.863376 0.990744
C34_3 C 0.6646(3) 0.8314(4) 0.9030(3)
C35_3 C 0.6080(4) 0.8453(6) 0.8671(3)
H23_3 H 0.567873 0.852484 0.889689
C36_3 C 0.7226(4) 0.8182(6) 0.8680(3)
H24_3 H 0.759813 0.807058 0.891278
O10_3 O 0.6269(3) 0.9257(4) 0.66921(19)
N8_3 N 0.6718(3) 0.8344(4) 0.6935(2)
H25_3 H 0.689367 0.803291 0.675923
C37_3 C 0.6912(5) 0.8097(6) 0.4820(3)
H26_3 H 0.713084 0.777628 0.464697
C38_3 C 0.6889(5) 0.8167(6) 0.5505(3)
H27_3 H 0.708893 0.789899 0.578126
C39_3 C 0.6569(3) 0.8634(4) 0.5776(2)
C40_3 C 0.6294(5) 0.9007(6) 0.5332(3)
H28_3 H 0.607794 0.933724 0.548850
C41_3 C 0.6334(5) 0.8903(6) 0.4665(3)
H29_3 H 0.613033 0.916014 0.438020
C42_3 C 0.6500(3) 0.8771(5) 0.6508(2)
C43_3 C 0.6687(3) 0.8353(4) 0.7637(3)
C44_3 C 0.7253(4) 0.8214(6) 0.7996(3)
H30_3 H 0.765460 0.814183 0.776978
C45_3 C 0.6107(4) 0.8485(6) 0.7987(3)
H31_3 H 0.573520 0.859609 0.775389
C24_3 C 0.9588(3) 0.0463(4) 0.3296(2)
H16_3 H 0.931250 0.077072 0.329420
loop_
_geom_bond_atom_site_label_1
_geom_bond_atom_site_label_2
_geom_bond_site_symmetry_1
_geom_bond_site_symmetry_2
O15 C67 1_555 1_555
O16 C67 1_555 1_555
C67 C68 1_555 1_555
C72 C68 1_555 1_555
H48 C72 1_555 1_555
Co7 O15 1_555 1_555
O16 Co7 1_555 1_555
Co1 O2 1_555 1_555
O1 C6 1_555 1_555
O2 C10 1_555 1_555
O3 Co1 1_555 1_555
N1 Co1 1_555 1_555
N2 H1 1_555 1_555
C1 N1 1_555 1_555
H2 C1 1_555 1_555
C2 C1 1_555 1_555
H3 C2 1_555 1_555
C3 C2 1_555 1_555
C4 C3 1_555 1_555
H4 C4 1_555 1_555
C5 N1 1_555 1_555
H5 C5 1_555 1_555
C6 N2 1_555 1_555
C7 N2 1_555 1_555
C8 C7 1_555 1_555
H6 C8 1_555 1_555
C9 C7 1_555 1_555
H7 C9 1_555 1_555
C10 O3 1_555 1_555
C11 C10 1_555 1_555
C12 C11 1_555 1_555
H8 C12 1_555 1_555
N4 H9 1_555 1_555
C19 N4 1_555 1_555
C20 C9 1_555 1_555
H14 C20 1_555 1_555
C21 C8 1_555 1_555
H15 C21 1_555 1_555
O5 C22 1_555 1_555
O6 C22 1_555 1_555
C22 C23 1_555 1_555
C23 C24 1_555 1_555
C24 C11 1_555 1_555
H16 C24 1_555 1_555
O7 C25 1_555 1_555
O8 C25 1_555 1_555
C25 C26 1_555 1_555
C26 C12 1_555 1_555
C27 C23 1_555 1_555
H17 C27 1_555 1_555
Co7 O5 1_555 1_555
O9 C33 1_555 1_555
N5 Co7 1_555 1_555
N6 H18 1_555 1_555
C28 N5 1_555 1_555
H19 C28 1_555 1_555
C29 C28 1_555 1_555
H20 C29 1_555 1_555
C30 C29 1_555 1_555
C31 C30 1_555 1_555
H21 C31 1_555 1_555
C32 N5 1_555 1_555
H22 C32 1_555 1_555
C33 N6 1_555 1_555
C34 N6 1_555 1_555
C35 C34 1_555 1_555
H23 C35 1_555 1_555
C36 C34 1_555 1_555
H24 C36 1_555 1_555
N8 H25 1_555 1_555
C43 N8 1_555 1_555
C44 C36 1_555 1_555
H30 C44 1_555 1_555
C45 C35 1_555 1_555
H31 C45 1_555 1_555
Co3 O7 1_555 1_555
O11 C51 1_555 1_555
N9 Co3 1_555 1_555
N10 H32 1_555 1_555
C46 N9 1_555 1_555
H33 C46 1_555 1_555
C47 C46 1_555 1_555
H34 C47 1_555 1_555
C48 C47 1_555 1_555
C49 C48 1_555 1_555
H35 C49 1_555 1_555
C50 N9 1_555 1_555
H36 C50 1_555 1_555
C51 N10 1_555 1_555
C52 N10 1_555 1_555
C53 C52 1_555 1_555
H37 C53 1_555 1_555
C54 C52 1_555 1_555
H38 C54 1_555 1_555
N12 H39 1_555 1_555
C61 N12 1_555 1_555
C62 C54 1_555 1_555
H44 C62 1_555 1_555
C63 C53 1_555 1_555
H45 C63 1_555 1_555
O17 Co3 1_555 1_555
O18 Co3 1_555 1_555
C70 O17 1_555 1_555
O19 Co1 1_555 1_555
O21 Co1 1_555 1_555
N13 Co1 1_555 1_555
N14 Co7 1_555 1_555
N15 Co3 1_555 1_555
C3 C6 1_555 1_555
C4 C5 1_555 1_555
C19 C20 1_555 1_555
C19 C21 1_555 1_555
O6 Co7 1_555 1_555
O8 Co3 1_555 1_555
C26 C27 1_555 1_555
C30 C33 1_555 1_555
C31 C32 1_555 1_555
C43 C44 1_555 1_555
C43 C45 1_555 1_555
C48 C51 1_555 1_555
C49 C50 1_555 1_555
C61 C62 1_555 1_555
C61 C63 1_555 1_555
O18 C70 1_555 1_555
C70 C71 1_555 1_555
N13 C13 1_555 1_555
C13 H10 1_555 1_555
C14 C13 1_555 1_555
H11 C14 1_555 1_555
C15 C14 1_555 1_555
C16 C15 1_555 1_555
H12 C16 1_555 1_555
C17 N13 1_555 1_555
H13 C17 1_555 1_555
N14 C37 1_555 1_555
C37 H26 1_555 1_555
C38 C37 1_555 1_555
H27 C38 1_555 1_555
C39 C38 1_555 1_555
C40 C39 1_555 1_555
H28 C40 1_555 1_555
C41 N14 1_555 1_555
H29 C41 1_555 1_555
N15 C55 1_555 1_555
C55 H40 1_555 1_555
C56 C55 1_555 1_555
H41 C56 1_555 1_555
C57 C56 1_555 1_555
C58 C57 1_555 1_555
H42 C58 1_555 1_555
C59 N15 1_555 1_555
H43 C59 1_555 1_555
C15 C18 1_555 1_555
C16 C17 1_555 1_555
C39 C42 1_555 1_555
C40 C41 1_555 1_555
C57 C60 1_555 1_555
C58 C59 1_555 1_555
O19 C64 1_555 1_555
O21 C64 1_555 1_555
C64 C65 1_555 1_555
C65 C66 1_555 1_555
C66 H46 1_555 1_555
H47 C69 1_555 1_555
O19_2 Co1_2 1_555 1_555
N13_2 Co1_2 1_555 1_555
N2_2 H1_2 1_555 1_555
H2_2 C1_2 1_555 1_555
C2_2 C1_2 1_555 1_555
H3_2 C2_2 1_555 1_555
C7_2 N2_2 1_555 1_555
C8_2 C7_2 1_555 1_555
H6_2 C8_2 1_555 1_555
O4_2 C18_2 1_555 1_555
C16_2 C15_2 1_555 1_555
H12_2 C16_2 1_555 1_555
C17_2 N13_2 1_555 1_555
H13_2 C17_2 1_555 1_555
C21_2 C8_2 1_555 1_555
H15_2 C21_2 1_555 1_555
O21_2 Co1_3 1_555 1_555
C15_2 C18_2 1_555 1_555
C16_2 C17_2 1_555 1_555
O3_2 Co1_4 1_555 1_555
O19_2 C64_2 1_555 1_555
C64_2 C65_2 1_555 1_555
C65_2 C66_2 1_555 1_555
C66_2 H46_2 1_555 1_555
O15_2 C67_2 1_555 1_555
C67_2 C68_2 1_555 1_555
C68_2 C69_2 1_555 1_555
C69_2 C65_2 1_555 1_555
H47_2 C69_2 1_555 1_555
O17_2 Co3_2 1_555 1_555
C70_2 O17_2 1_555 1_555
C71_2 C66_2 1_555 1_555
C72_2 C68_2 1_555 1_555
H48_2 C72_2 1_555 1_555
Co7_4 O15_2 1_555 1_555
N15_2 Co3_2 1_555 1_555
O6_2 Co7_2 1_555 1_555
O8_2 Co3_2 1_555 1_555
C70_2 C71_2 1_555 1_555
C71_2 C72_2 1_555 1_555
Co1_5 O2_2 1_555 1_555
O1_2 C6_2 1_555 1_555
O2_2 C10_2 1_555 1_555
N1_2 Co1_5 1_555 1_555
C4_2 C3_2 1_555 1_555
H4_2 C4_2 1_555 1_555
C5_2 N1_2 1_555 1_555
H5_2 C5_2 1_555 1_555
H7_2 C9_2 1_555 1_555
C11_2 C10_2 1_555 1_555
C12_2 C11_2 1_555 1_555
H8_2 C12_2 1_555 1_555
N4_2 H9_2 1_555 1_555
C13_2 H10_2 1_555 1_555
C14_2 C13_2 1_555 1_555
H11_2 C14_2 1_555 1_555
C19_2 N4_2 1_555 1_555
C20_2 C9_2 1_555 1_555
H14_2 C20_2 1_555 1_555
O5_2 C22_2 1_555 1_555
C22_2 C23_2 1_555 1_555
C23_2 C24_2 1_555 1_555
C24_2 C11_2 1_555 1_555
H16_2 C24_2 1_555 1_555
O7_2 C25_2 1_555 1_555
C25_2 C26_2 1_555 1_555
C26_2 C12_2 1_555 1_555
C27_2 C23_2 1_555 1_555
H17_2 C27_2 1_555 1_555
Co7_3 O5_2 1_555 1_555
O9_2 C33_2 1_555 1_555
N5_2 Co7_3 1_555 1_555
C31_2 C30_2 1_555 1_555
H21_2 C31_2 1_555 1_555
C32_2 N5_2 1_555 1_555
H22_2 C32_2 1_555 1_555
H24_2 C36_2 1_555 1_555
N8_2 H25_2 1_555 1_555
C37_2 H26_2 1_555 1_555
C38_2 C37_2 1_555 1_555
H27_2 C38_2 1_555 1_555
C43_2 N8_2 1_555 1_555
C44_2 C36_2 1_555 1_555
H30_2 C44_2 1_555 1_555
Co3_3 O7_2 1_555 1_555
O11_2 C51_2 1_555 1_555
N9_2 Co3_3 1_555 1_555
N10_2 H32_2 1_555 1_555
C46_2 N9_2 1_555 1_555
H33_2 C46_2 1_555 1_555
C47_2 C46_2 1_555 1_555
H34_2 C47_2 1_555 1_555
C48_2 C47_2 1_555 1_555
C49_2 C48_2 1_555 1_555
H35_2 C49_2 1_555 1_555
C50_2 N9_2 1_555 1_555
H36_2 C50_2 1_555 1_555
C51_2 N10_2 1_555 1_555
C52_2 N10_2 1_555 1_555
C53_2 C52_2 1_555 1_555
H37_2 C53_2 1_555 1_555
C54_2 C52_2 1_555 1_555
H38_2 C54_2 1_555 1_555
O12_2 C60_2 1_555 1_555
N15_2 C55_2 1_555 1_555
N12_2 H39_2 1_555 1_555
C55_2 H40_2 1_555 1_555
C56_2 C55_2 1_555 1_555
H41_2 C56_2 1_555 1_555
C57_2 C56_2 1_555 1_555
C58_2 C57_2 1_555 1_555
H42_2 C58_2 1_555 1_555
C59_2 N15_2 1_555 1_555
H43_2 C59_2 1_555 1_555
C60_2 N12_2 1_555 1_555
C61_2 N12_2 1_555 1_555
C62_2 C54_2 1_555 1_555
H44_2 C62_2 1_555 1_555
C63_2 C53_2 1_555 1_555
H45_2 C63_2 1_555 1_555
O18_2 Co3_3 1_555 1_555
C3_2 C6_2 1_555 1_555
C4_2 C5_2 1_555 1_555
C19_2 C20_2 1_555 1_555
C26_2 C27_2 1_555 1_555
C30_2 C33_2 1_555 1_555
C31_2 C32_2 1_555 1_555
C43_2 C44_2 1_555 1_555
C48_2 C51_2 1_555 1_555
C49_2 C50_2 1_555 1_555
C57_2 C60_2 1_555 1_555
C58_2 C59_2 1_555 1_555
C61_2 C62_2 1_555 1_555
C61_2 C63_2 1_555 1_555
O16_2 Co7_5 1_555 1_555
N14_2 Co7_4 1_555 1_555
N6_2 H18_2 1_555 1_555
H19_2 C28_2 1_555 1_555
C29_2 C28_2 1_555 1_555
H20_2 C29_2 1_555 1_555
C34_2 N6_2 1_555 1_555
C35_2 C34_2 1_555 1_555
H23_2 C35_2 1_555 1_555
O10_2 C42_2 1_555 1_555
C40_2 C39_2 1_555 1_555
H28_2 C40_2 1_555 1_555
C41_2 N14_2 1_555 1_555
H29_2 C41_2 1_555 1_555
C45_2 C35_2 1_555 1_555
H31_2 C45_2 1_555 1_555
C39_2 C42_2 1_555 1_555
C40_2 C41_2 1_555 1_555
Co1_6 O2_3 1_555 1_555
O2_3 C10_3 1_555 1_555
O3_3 Co1_6 1_555 1_555
N1_3 Co1_6 1_555 1_555
C1_3 N1_3 1_555 1_555
H2_3 C1_3 1_555 1_555
C2_3 C1_3 1_555 1_555
H3_3 C2_3 1_555 1_555
C3_3 C2_3 1_555 1_555
C4_3 C3_3 1_555 1_555
H4_3 C4_3 1_555 1_555
C5_3 N1_3 1_555 1_555
H5_3 C5_3 1_555 1_555
C10_3 O3_3 1_555 1_555
C11_3 C10_3 1_555 1_555
C12_3 C11_3 1_555 1_555
H8_3 C12_3 1_555 1_555
O19_3 Co1_6 1_555 1_555
O21_3 Co1_6 1_555 1_555
N13_3 Co1_6 1_555 1_555
C3_3 C6_3 1_555 1_555
C4_3 C5_3 1_555 1_555
N2_3 H1_3 1_555 1_555
C7_3 N2_3 1_555 1_555
C8_3 C7_3 1_555 1_555
H6_3 C8_3 1_555 1_555
C9_3 C7_3 1_555 1_555
H7_3 C9_3 1_555 1_555
O4_3 C18_3 1_555 1_555
N13_3 C13_3 1_555 1_555
N4_3 H9_3 1_555 1_555
C13_3 H10_3 1_555 1_555
C14_3 C13_3 1_555 1_555
H11_3 C14_3 1_555 1_555
C15_3 C14_3 1_555 1_555
C16_3 C15_3 1_555 1_555
H12_3 C16_3 1_555 1_555
C17_3 N13_3 1_555 1_555
H13_3 C17_3 1_555 1_555
C18_3 N4_3 1_555 1_555
C19_3 N4_3 1_555 1_555
C20_3 C9_3 1_555 1_555
H14_3 C20_3 1_555 1_555
C21_3 C8_3 1_555 1_555
H15_3 C21_3 1_555 1_555
C15_3 C18_3 1_555 1_555
C16_3 C17_3 1_555 1_555
C19_3 C20_3 1_555 1_555
C19_3 C21_3 1_555 1_555
O7_3 C25_3 1_555 1_555
O8_3 C25_3 1_555 1_555
C25_3 C26_3 1_555 1_555
Co3_4 O7_3 1_555 1_555
N9_3 Co3_4 1_555 1_555
C46_3 N9_3 1_555 1_555
H33_3 C46_3 1_555 1_555
C47_3 C46_3 1_555 1_555
H34_3 C47_3 1_555 1_555
C48_3 C47_3 1_555 1_555
C49_3 C48_3 1_555 1_555
H35_3 C49_3 1_555 1_555
C50_3 N9_3 1_555 1_555
H36_3 C50_3 1_555 1_555
O19_3 C64_3 1_555 1_555
O21_3 C64_3 1_555 1_555
C64_3 C65_3 1_555 1_555
C65_3 C66_3 1_555 1_555
C66_3 H46_3 1_555 1_555
O15_3 C67_3 1_555 1_555
O16_3 C67_3 1_555 1_555
C67_3 C68_3 1_555 1_555
C68_3 C69_3 1_555 1_555
C69_3 C65_3 1_555 1_555
H47_3 C69_3 1_555 1_555
O17_3 Co3_4 1_555 1_555
O18_3 Co3_4 1_555 1_555
C70_3 O17_3 1_555 1_555
C71_3 C66_3 1_555 1_555
C72_3 C68_3 1_555 1_555
H48_3 C72_3 1_555 1_555
Co7_6 O15_3 1_555 1_555
N15_3 Co3_4 1_555 1_555
O8_3 Co3_4 1_555 1_555
C48_3 C51_3 1_555 1_555
C49_3 C50_3 1_555 1_555
O16_3 Co7_6 1_555 1_555
O18_3 C70_3 1_555 1_555
C70_3 C71_3 1_555 1_555
C71_3 C72_3 1_555 1_555
N10_3 H32_3 1_555 1_555
C52_3 N10_3 1_555 1_555
C53_3 C52_3 1_555 1_555
H37_3 C53_3 1_555 1_555
C54_3 C52_3 1_555 1_555
H38_3 C54_3 1_555 1_555
O12_3 C60_3 1_555 1_555
N15_3 C55_3 1_555 1_555
N12_3 H39_3 1_555 1_555
C55_3 H40_3 1_555 1_555
C56_3 C55_3 1_555 1_555
H41_3 C56_3 1_555 1_555
C57_3 C56_3 1_555 1_555
C58_3 C57_3 1_555 1_555
H42_3 C58_3 1_555 1_555
C59_3 N15_3 1_555 1_555
H43_3 C59_3 1_555 1_555
C60_3 N12_3 1_555 1_555
C61_3 N12_3 1_555 1_555
C62_3 C54_3 1_555 1_555
H44_3 C62_3 1_555 1_555
C63_3 C53_3 1_555 1_555
H45_3 C63_3 1_555 1_555
C57_3 C60_3 1_555 1_555
C58_3 C59_3 1_555 1_555
C61_3 C62_3 1_555 1_555
C61_3 C63_3 1_555 1_555
O5_3 C22_3 1_555 1_555
O6_3 C22_3 1_555 1_555
C22_3 C23_3 1_555 1_555
C27_3 C23_3 1_555 1_555
H17_3 C27_3 1_555 1_555
Co7_6 O5_3 1_555 1_555
N5_3 Co7_6 1_555 1_555
C28_3 N5_3 1_555 1_555
H19_3 C28_3 1_555 1_555
C29_3 C28_3 1_555 1_555
H20_3 C29_3 1_555 1_555
C30_3 C29_3 1_555 1_555
C31_3 C30_3 1_555 1_555
H21_3 C31_3 1_555 1_555
C32_3 N5_3 1_555 1_555
H22_3 C32_3 1_555 1_555
N14_3 Co7_6 1_555 1_555
O6_3 Co7_6 1_555 1_555
C30_3 C33_3 1_555 1_555
C31_3 C32_3 1_555 1_555
N6_3 H18_3 1_555 1_555
C34_3 N6_3 1_555 1_555
C35_3 C34_3 1_555 1_555
H23_3 C35_3 1_555 1_555
C36_3 C34_3 1_555 1_555
H24_3 C36_3 1_555 1_555
O10_3 C42_3 1_555 1_555
N14_3 C37_3 1_555 1_555
N8_3 H25_3 1_555 1_555
C37_3 H26_3 1_555 1_555
C38_3 C37_3 1_555 1_555
H27_3 C38_3 1_555 1_555
C39_3 C38_3 1_555 1_555
C40_3 C39_3 1_555 1_555
H28_3 C40_3 1_555 1_555
C41_3 N14_3 1_555 1_555
H29_3 C41_3 1_555 1_555
C42_3 N8_3 1_555 1_555
C43_3 N8_3 1_555 1_555
C44_3 C36_3 1_555 1_555
H30_3 C44_3 1_555 1_555
C45_3 C35_3 1_555 1_555
H31_3 C45_3 1_555 1_555
C39_3 C42_3 1_555 1_555
C40_3 C41_3 1_555 1_555
C43_3 C44_3 1_555 1_555
C43_3 C45_3 1_555 1_555
H16_3 C24_3 1_555 1_555

#END
