
###############################################################################
#
# This file contains modified crystal structure data generated from the
# MOF subset of the Cambridge Structural Database (CSD) v543 
# hosted by the Cambridge Crystallographic Data Centre (CCDC).
#
# This work is licensed under the Creative Commons
# Attribution-NonCommercial-ShareAlike 4.0 International License.
# To view a copy of this license, visit
# http://creativecommons.org/licenses/by-nc-sa/4.0/
# or send a letter to
# Creative Commons, PO Box 1866, Mountain View, CA 94042, USA.
#
# CIF created using the CSD Python API on 29 September 2022
# The structure has been converted into the P1 space group
# The structure has a 3D framework
# The original CSD entry WUPSEI is in the orthorhombic crystal system
# The framework has been calculated to contain at least 10.0% void space
# The void calculation uses a probe of radius 1.32A, grid spacing 0.4
# The framework is charged, counterions have been retained in the structure
#
###############################################################################

data_WUPSEI
_chemical_formula_moiety         '(C352 H176 Bi8 O60 8-)n'
_symmetry_cell_setting           triclinic
_symmetry_space_group_name_H-M   'P 1'
_symmetry_Int_Tables_number      1
_space_group_name_Hall           'P 1'
loop_
_symmetry_equiv_pos_site_id
_symmetry_equiv_pos_as_xyz
1 x,y,z
_cell_length_a                   22.875(7)
_cell_length_b                   11.704(4)
_cell_length_c                   38.764(11)
_cell_angle_alpha                90
_cell_angle_beta                 90
_cell_angle_gamma                90
_cell_volume                     10378.2
loop_
_atom_site_label
_atom_site_type_symbol
_atom_site_fract_x
_atom_site_fract_y
_atom_site_fract_z
Bi2 Bi 0.07875(2) 0.49080(5) 0.38009(2)
O5 O 0.5773(8) 0.0148(14) 0.1874(3)
O1 O 0.1765(7) 0.4382(13) 0.3887(4)
O2 O 0.1865(5) 0.6160(14) 0.3780(5)
O3 O 0.5706(4) 0.1620(10) 0.5859(2)
O4 O 0.5650(8) 0.0141(10) 0.5539(3)
O6 O 0.5896(3) 0.8538(10) 0.1595(2)
O7 O 0.9829(5) 0.6312(15) 0.3800(4)
O8 O 0.9783(4) 0.4527(12) 0.3722(4)
C1 C 0.2060(5) 0.5265(15) 0.3812(5)
C2 C 0.2723(7) 0.5101(19) 0.3844(4)
C3 C 0.3076(5) 0.6085(15) 0.3829(4)
H1 H 0.290524 0.679597 0.379364
C4 C 0.3678(5) 0.6001(15) 0.3865(4)
H2 H 0.391157 0.665158 0.386728
C5 C 0.3916(4) 0.4946(15) 0.3897(3)
C6 C 0.3551(6) 0.4000(14) 0.3923(4)
H3 H 0.371961 0.328426 0.395243
C7 C 0.2949(6) 0.4074(18) 0.3906(5)
H4 H 0.271274 0.343517 0.393770
C8 C 0.5649(8) 0.1149(16) 0.5563(4)
C9 C 0.5581(6) 0.1929(16) 0.5264(3)
C10 C 0.5638(8) 0.3065(16) 0.5281(4)
H5 H 0.571241 0.340563 0.549378
C11 C 0.5589(10) 0.3762(17) 0.4984(4)
H6 H 0.567356 0.453842 0.499682
C12 C 0.5417(6) 0.3283(15) 0.4678(4)
C13 C 0.5324(11) 0.2179(16) 0.4660(4)
H7 H 0.524170 0.184734 0.444788
C14 C 0.5345(10) 0.152(2) 0.4941(6)
H8 H 0.520363 0.077964 0.492794
C15 C 0.5876(8) 0.9187(17) 0.1874(4)
C16 C 0.5923(6) 0.8431(11) 0.2197(2)
C17 C 0.5781(6) 0.8942(9) 0.2509(3)
H9 H 0.560252 0.965582 0.251247
C18 C 0.5906(6) 0.8386(12) 0.2818(2)
H10 H 0.581156 0.872796 0.302675
C19 C 0.6173(6) 0.7319(11) 0.2813(2)
C20 C 0.6315(6) 0.6808(10) 0.2500(3)
H11 H 0.649303 0.609421 0.249712
C21 C 0.6189(6) 0.7364(11) 0.2192(2)
H12 H 0.628399 0.702206 0.198283
C22 C 0.9586(5) 0.5475(19) 0.3736(4)
C23 C 0.8910(3) 0.5565(9) 0.3702(3)
C24 C 0.8649(4) 0.6632(8) 0.3734(3)
H13 H 0.887438 0.726548 0.379180
C25 C 0.8051(4) 0.6753(8) 0.3680(3)
H14 H 0.787702 0.746735 0.370189
C26 C 0.7715(3) 0.5807(10) 0.3594(3)
C27 C 0.7975(4) 0.4740(8) 0.3562(3)
H15 H 0.775015 0.410634 0.350395
C28 C 0.8573(4) 0.4619(8) 0.3616(3)
H16 H 0.874752 0.390445 0.359386
C29 C 0.7064(6) 0.5926(15) 0.3516(4)
C30 C 0.6905(6) 0.6612(18) 0.3245(4)
H17 H 0.719099 0.700296 0.312201
C31 C 0.6337(6) 0.6729(15) 0.3154(4)
C32 C 0.5892(5) 0.6240(14) 0.3354(4)
C33 C 0.5293(6) 0.6347(14) 0.3258(4)
H18 H 0.519287 0.672801 0.305554
C34 C 0.4863(8) 0.5887(17) 0.3463(5)
H19 H 0.447144 0.597897 0.340410
C35 C 0.5021(7) 0.5260(17) 0.3771(4)
C36 C 0.4563(4) 0.4824(15) 0.3996(3)
C37 C 0.4735(6) 0.4167(15) 0.4273(4)
H20 H 0.444680 0.381709 0.440478
C38 C 0.5301(6) 0.4004(16) 0.4363(4)
C39 C 0.5767(3) 0.4496(10) 0.4161(2)
C40 C 0.6353(4) 0.4334(9) 0.4243(2)
H21 H 0.645575 0.391310 0.443678
C41 C 0.6786(3) 0.4803(10) 0.4034(2)
H22 H 0.717781 0.469473 0.408901
C42 C 0.6633(3) 0.5432(9) 0.3744(2)
C43 C 0.6047(3) 0.5593(9) 0.3662(2)
C44 C 0.5614(2) 0.5125(10) 0.3870(2)
Bi3 Bi 0.57875(2) 0.00920(5) 0.61991(2)
Bi4 Bi 0.57875(2) 0.99080(5) 0.11991(2)
O9 O 0.0706(4) 0.3380(10) 0.4141(2)
O10 O 0.0650(8) 0.4859(10) 0.4461(3)
O11 O 0.0773(8) 0.5148(14) 0.3126(3)
O12 O 0.0896(3) 0.3538(10) 0.3405(2)
O8_2 O 0.4783(4) 0.0473(12) 0.6278(4)
C8_2 C 0.0649(8) 0.3851(16) 0.4437(4)
C9_2 C 0.0581(6) 0.3071(16) 0.4736(3)
C10_2 C 0.0638(8) 0.1935(16) 0.4719(4)
H5_2 H 0.071241 0.159437 0.450622
C11_2 C 0.0589(10) 0.1238(17) 0.5016(4)
H6_2 H 0.067356 0.046158 0.500318
C12_2 C 0.0417(6) 0.1717(15) 0.5322(4)
C13_2 C 0.0324(11) 0.2821(16) 0.5340(4)
H7_2 H 0.024170 0.315266 0.555212
C14_2 C 0.0345(10) 0.348(2) 0.5059(6)
H8_2 H 0.020363 0.422036 0.507206
C27_2 C 0.2975(4) 0.0260(8) 0.6438(3)
H15_2 H 0.275015 0.089366 0.649605
C28_2 C 0.3573(4) 0.0381(8) 0.6384(3)
H16_2 H 0.374752 0.109555 0.640614
C38_2 C 0.0301(6) 0.0996(16) 0.5637(4)
C39_2 C 0.0767(3) 0.0504(10) 0.5839(2)
C40_2 C 0.1353(4) 0.0666(9) 0.5757(2)
H21_2 H 0.145575 0.108690 0.556322
C41_2 C 0.1786(3) 0.0197(10) 0.5966(2)
H22_2 H 0.217781 0.030527 0.591099
O5_2 O 0.0773(8) 0.4852(14) 0.8126(3)
O6_2 O 0.0896(3) 0.6462(10) 0.8405(2)
O7_2 O 0.4829(5) 0.8688(15) 0.6200(4)
C15_2 C 0.0876(8) 0.5813(17) 0.8126(4)
C16_2 C 0.0923(6) 0.6569(11) 0.7803(2)
C17_2 C 0.0781(6) 0.6058(9) 0.7491(3)
H9_2 H 0.060252 0.534418 0.748753
C18_2 C 0.0906(6) 0.6614(12) 0.7182(2)
H10_2 H 0.081156 0.627204 0.697325
C19_2 C 0.1173(6) 0.7681(11) 0.7187(2)
C20_2 C 0.1315(6) 0.8192(10) 0.7500(3)
H11_2 H 0.149303 0.890579 0.750288
C21_2 C 0.1189(6) 0.7636(11) 0.7808(2)
H12_2 H 0.128399 0.797794 0.801717
C22_2 C 0.4586(5) 0.9525(19) 0.6264(4)
C23_2 C 0.3910(3) 0.9435(9) 0.6298(3)
C24_2 C 0.3649(4) 0.8368(8) 0.6266(3)
H13_2 H 0.387438 0.773452 0.620820
C25_2 C 0.3051(4) 0.8247(8) 0.6320(3)
H14_2 H 0.287702 0.753265 0.629811
C26_2 C 0.2715(3) 0.9193(10) 0.6406(3)
C29_2 C 0.2064(6) 0.9074(15) 0.6484(4)
C30_2 C 0.1905(6) 0.8388(18) 0.6755(4)
H17_2 H 0.219099 0.799704 0.687799
C31_2 C 0.1337(6) 0.8271(15) 0.6846(4)
C32_2 C 0.0892(5) 0.8760(14) 0.6646(4)
C33_2 C 0.0293(6) 0.8653(14) 0.6742(4)
H18_2 H 0.019287 0.827199 0.694446
C35_2 C 0.0021(7) 0.9740(17) 0.6229(4)
C42_2 C 0.1633(3) 0.9568(9) 0.6256(2)
C43_2 C 0.1047(3) 0.9407(9) 0.6338(2)
C44_2 C 0.0614(2) 0.9875(10) 0.6130(2)
Bi4_2 Bi 0.07875(2) 0.50920(5) 0.88009(2)
O1_2 O 0.6765(7) 0.0618(13) 0.6113(4)
C5_2 C 0.8916(4) 0.0054(15) 0.6103(3)
C6_2 C 0.8551(6) 0.1000(14) 0.6077(4)
H3_2 H 0.871961 0.171574 0.604757
C7_2 C 0.7949(6) 0.0926(18) 0.6094(5)
H4_2 H 0.771274 0.156483 0.606230
C36_2 C 0.9563(4) 0.0176(15) 0.6004(3)
C37_2 C 0.9735(6) 0.0833(15) 0.5727(4)
H20_2 H 0.944680 0.118291 0.559522
O12_2 O 0.5896(3) 0.1462(10) 0.6595(2)
O2_2 O 0.6865(5) 0.8840(14) 0.6220(5)
C1_2 C 0.7060(5) 0.9735(15) 0.6188(5)
C2_2 C 0.7723(7) 0.9899(19) 0.6156(4)
C3_2 C 0.8076(5) 0.8915(15) 0.6171(4)
H1_2 H 0.790524 0.820403 0.620636
C4_2 C 0.8678(5) 0.8999(15) 0.6135(4)
H2_2 H 0.891157 0.834842 0.613272
C34_2 C 0.9863(8) 0.9113(17) 0.6537(5)
H19_2 H 0.947144 0.902103 0.659590
O11_2 O 0.5773(8) 0.9852(14) 0.6874(3)
O7_3 O 0.4829(5) 0.1312(15) 0.1200(4)
C15_3 C 0.0876(8) 0.4187(17) 0.3126(4)
C16_3 C 0.0923(6) 0.3431(11) 0.2803(2)
C17_3 C 0.0781(6) 0.3942(9) 0.2491(3)
H9_3 H 0.060252 0.465582 0.248753
C18_3 C 0.0906(6) 0.3386(12) 0.2182(2)
H10_3 H 0.081156 0.372796 0.197325
C19_3 C 0.1173(6) 0.2319(11) 0.2187(2)
C20_3 C 0.1315(6) 0.1808(10) 0.2500(3)
H11_3 H 0.149303 0.109421 0.250288
C21_3 C 0.1189(6) 0.2364(11) 0.2808(2)
H12_3 H 0.128399 0.202206 0.301717
C22_3 C 0.4586(5) 0.0475(19) 0.1264(4)
C23_3 C 0.3910(3) 0.0565(9) 0.1298(3)
C24_3 C 0.3649(4) 0.1632(8) 0.1266(3)
H13_3 H 0.387438 0.226548 0.120820
C25_3 C 0.3051(4) 0.1753(8) 0.1320(3)
H14_3 H 0.287702 0.246735 0.129811
C26_3 C 0.2715(3) 0.0807(10) 0.1406(3)
C29_3 C 0.2064(6) 0.0926(15) 0.1484(4)
C30_3 C 0.1905(6) 0.1612(18) 0.1755(4)
H17_3 H 0.219099 0.200296 0.187799
C31_3 C 0.1337(6) 0.1729(15) 0.1846(4)
C32_3 C 0.0892(5) 0.1240(14) 0.1646(4)
C33_3 C 0.0293(6) 0.1347(14) 0.1742(4)
H18_3 H 0.019287 0.172801 0.194446
C35_3 C 0.0021(7) 0.0260(17) 0.1229(4)
C42_3 C 0.1633(3) 0.0432(9) 0.1256(2)
C43_3 C 0.1047(3) 0.0593(9) 0.1338(2)
C44_3 C 0.0614(2) 0.0125(10) 0.1130(2)
O8_3 O 0.4783(4) 0.9527(12) 0.1278(4)
C11_3 C 0.0589(10) 0.8762(17) 0.0016(4)
H6_3 H 0.067356 0.953842 0.000318
C12_3 C 0.0417(6) 0.8283(15) 0.0322(4)
C13_3 C 0.0324(11) 0.7179(16) 0.0340(4)
H7_3 H 0.024170 0.684734 0.055212
C14_3 C 0.0345(10) 0.652(2) 0.0059(6)
H8_3 H 0.020363 0.577964 0.007206
C27_3 C 0.2975(4) 0.9740(8) 0.1438(3)
H15_3 H 0.275015 0.910634 0.149605
C28_3 C 0.3573(4) 0.9619(8) 0.1384(3)
H16_3 H 0.374752 0.890445 0.140614
C38_3 C 0.0301(6) 0.9004(16) 0.0637(4)
C39_3 C 0.0767(3) 0.9496(10) 0.0839(2)
C40_3 C 0.1353(4) 0.9334(9) 0.0757(2)
H21_3 H 0.145575 0.891310 0.056322
C41_3 C 0.1786(3) 0.9803(10) 0.0966(2)
H22_3 H 0.217781 0.969473 0.091099
O3_2 O 0.0706(4) 0.6620(10) 0.9141(2)
O4_2 O 0.0650(8) 0.5141(10) 0.9461(3)
C8_3 C 0.0649(8) 0.6149(16) 0.9437(4)
C9_3 C 0.0581(6) 0.6929(16) 0.9736(3)
C10_3 C 0.0638(8) 0.8065(16) 0.9719(4)
H5_3 H 0.071241 0.840563 0.950622
O2_3 O 0.6865(5) 0.1160(14) 0.1220(5)
C1_3 C 0.7060(5) 0.0265(15) 0.1188(5)
C2_3 C 0.7723(7) 0.0101(19) 0.1156(4)
C3_3 C 0.8076(5) 0.1085(15) 0.1171(4)
H1_3 H 0.790524 0.179597 0.120636
C4_3 C 0.8678(5) 0.1001(15) 0.1135(4)
H2_3 H 0.891157 0.165158 0.113272
C34_3 C 0.9863(8) 0.0887(17) 0.1537(5)
H19_3 H 0.947144 0.097897 0.159590
O1_3 O 0.6765(7) 0.9382(13) 0.1113(4)
C5_3 C 0.8916(4) 0.9946(15) 0.1103(3)
C6_3 C 0.8551(6) 0.9000(14) 0.1077(4)
H3_3 H 0.871961 0.828426 0.104757
C7_3 C 0.7949(6) 0.9074(18) 0.1094(5)
H4_3 H 0.771274 0.843517 0.106230
C36_3 C 0.9563(4) 0.9824(15) 0.1004(3)
C37_3 C 0.9735(6) 0.9167(15) 0.0727(4)
H20_3 H 0.944680 0.881709 0.059522
O9_2 O 0.5706(4) 0.8380(10) 0.0859(2)
O10_2 O 0.5650(8) 0.9859(10) 0.0539(3)
C8_4 C 0.5649(8) 0.8851(16) 0.0563(4)
C9_4 C 0.5581(6) 0.8071(16) 0.0264(3)
C10_4 C 0.5638(8) 0.6935(16) 0.0281(4)
H5_4 H 0.571241 0.659437 0.049378
O1_4 O 0.1765(7) 0.5618(13) 0.8887(4)
O2_4 O 0.1865(5) 0.3840(14) 0.8780(5)
O7_4 O 0.9829(5) 0.3688(15) 0.8800(4)
O8_4 O 0.9783(4) 0.5473(12) 0.8722(4)
C1_4 C 0.2060(5) 0.4735(15) 0.8812(5)
C2_4 C 0.2723(7) 0.4899(19) 0.8844(4)
C3_4 C 0.3076(5) 0.3915(15) 0.8829(4)
H1_4 H 0.290524 0.320403 0.879364
C4_4 C 0.3678(5) 0.3999(15) 0.8865(4)
H2_4 H 0.391157 0.334842 0.886728
C5_4 C 0.3916(4) 0.5054(15) 0.8897(3)
C6_4 C 0.3551(6) 0.6000(14) 0.8923(4)
H3_4 H 0.371961 0.671574 0.895243
C7_4 C 0.2949(6) 0.5926(18) 0.8906(5)
H4_4 H 0.271274 0.656483 0.893770
C11_4 C 0.5589(10) 0.6238(17) 0.9984(4)
H6_4 H 0.567356 0.546158 0.999682
C12_4 C 0.5417(6) 0.6717(15) 0.9678(4)
C13_4 C 0.5324(11) 0.7821(16) 0.9660(4)
H7_4 H 0.524170 0.815266 0.944788
C14_4 C 0.5345(10) 0.848(2) 0.9941(6)
H8_4 H 0.520363 0.922036 0.992794
C15_4 C 0.5876(8) 0.0813(17) 0.6874(4)
C16_4 C 0.5923(6) 0.1569(11) 0.7197(2)
C17_4 C 0.5781(6) 0.1058(9) 0.7509(3)
H9_4 H 0.560252 0.034418 0.751247
C18_4 C 0.5906(6) 0.1614(12) 0.7818(2)
H10_4 H 0.581156 0.127204 0.802675
C19_4 C 0.6173(6) 0.2681(11) 0.7813(2)
C20_4 C 0.6315(6) 0.3192(10) 0.7500(3)
H11_4 H 0.649303 0.390579 0.749712
C21_4 C 0.6189(6) 0.2636(11) 0.7192(2)
H12_4 H 0.628399 0.297794 0.698283
C22_4 C 0.9586(5) 0.4525(19) 0.8736(4)
C23_4 C 0.8910(3) 0.4435(9) 0.8702(3)
C24_4 C 0.8649(4) 0.3368(8) 0.8734(3)
H13_4 H 0.887438 0.273452 0.879180
C25_4 C 0.8051(4) 0.3247(8) 0.8680(3)
H14_4 H 0.787702 0.253265 0.870189
C26_4 C 0.7715(3) 0.4193(10) 0.8594(3)
C27_4 C 0.7975(4) 0.5260(8) 0.8562(3)
H15_4 H 0.775015 0.589366 0.850395
C28_4 C 0.8573(4) 0.5381(8) 0.8616(3)
H16_4 H 0.874752 0.609555 0.859386
C29_4 C 0.7064(6) 0.4074(15) 0.8516(4)
C30_4 C 0.6905(6) 0.3388(18) 0.8245(4)
H17_4 H 0.719099 0.299704 0.812201
C31_4 C 0.6337(6) 0.3271(15) 0.8154(4)
C32_4 C 0.5892(5) 0.3760(14) 0.8354(4)
C33_4 C 0.5293(6) 0.3653(14) 0.8258(4)
H18_4 H 0.519287 0.327199 0.805554
C34_4 C 0.4863(8) 0.4113(17) 0.8463(5)
H19_4 H 0.447144 0.402103 0.840410
C35_4 C 0.5021(7) 0.4740(17) 0.8771(4)
C36_4 C 0.4563(4) 0.5176(15) 0.8996(3)
C37_4 C 0.4735(6) 0.5833(15) 0.9273(4)
H20_4 H 0.444680 0.618291 0.940478
C38_4 C 0.5301(6) 0.5996(16) 0.9363(4)
C39_4 C 0.5767(3) 0.5504(10) 0.9161(2)
C40_4 C 0.6353(4) 0.5666(9) 0.9243(2)
H21_4 H 0.645575 0.608690 0.943678
C41_4 C 0.6786(3) 0.5197(10) 0.9034(2)
H22_4 H 0.717781 0.530527 0.908901
C42_4 C 0.6633(3) 0.4568(9) 0.8744(2)
C43_4 C 0.6047(3) 0.4407(9) 0.8662(2)
C44_4 C 0.5614(2) 0.4875(10) 0.8870(2)
Bi1 Bi 0.42125(2) 0.00920(5) 0.88009(2)
O1_5 O 0.3235(7) 0.0618(13) 0.8887(4)
C5_5 C 0.1084(4) 0.0054(15) 0.8897(3)
C6_5 C 0.1449(6) 0.1000(14) 0.8923(4)
H3_5 H 0.128039 0.171574 0.895243
C7_5 C 0.2051(6) 0.0926(18) 0.8906(5)
H4_5 H 0.228726 0.156483 0.893770
C36_5 C 0.0437(4) 0.0176(15) 0.8996(3)
C37_5 C 0.0265(6) 0.0833(15) 0.9273(4)
H20_5 H 0.055320 0.118291 0.940478
O9_3 O 0.4294(4) 0.1620(10) 0.9141(2)
O10_3 O 0.4350(8) 0.0141(10) 0.9461(3)
O12_3 O 0.4104(3) 0.1462(10) 0.8405(2)
O14 O 0.5217(4) 0.0473(12) 0.8722(4)
O2_5 O 0.3135(5) 0.8840(14) 0.8780(5)
C1_5 C 0.2940(5) 0.9735(15) 0.8812(5)
C2_5 C 0.2277(7) 0.9899(19) 0.8844(4)
C3_5 C 0.1924(5) 0.8915(15) 0.8829(4)
H1_5 H 0.209476 0.820403 0.879364
C4_5 C 0.1322(5) 0.8999(15) 0.8865(4)
H2_5 H 0.108843 0.834842 0.886728
C34_5 C 0.0137(8) 0.9113(17) 0.8463(5)
H19_5 H 0.052856 0.902103 0.840410
O11_3 O 0.4227(8) 0.9852(14) 0.8126(3)
O13 O 0.5171(5) 0.8688(15) 0.8800(4)
O3_3 O 0.9294(4) 0.3380(10) 0.0859(2)
O4_3 O 0.9350(8) 0.4859(10) 0.0539(3)
C8_5 C 0.9351(8) 0.3851(16) 0.0563(4)
C9_5 C 0.9419(6) 0.3071(16) 0.0264(3)
C10_5 C 0.9362(8) 0.1935(16) 0.0281(4)
H5_5 H 0.928759 0.159437 0.049378
Bi3_2 Bi 0.92125(2) 0.49080(5) 0.11991(2)
C11_5 C 0.9411(10) 0.1238(17) 0.9984(4)
H6_5 H 0.932644 0.046158 0.999682
C12_5 C 0.9583(6) 0.1717(15) 0.9678(4)
C13_5 C 0.9676(11) 0.2821(16) 0.9660(4)
H7_5 H 0.975830 0.315266 0.944788
C14_5 C 0.9655(10) 0.348(2) 0.9941(6)
H8_5 H 0.979637 0.422036 0.992794
C27_5 C 0.7025(4) 0.0260(8) 0.8562(3)
H15_5 H 0.724985 0.089366 0.850395
C28_5 C 0.6427(4) 0.0381(8) 0.8616(3)
H16_5 H 0.625248 0.109555 0.859386
C38_5 C 0.9699(6) 0.0996(16) 0.9363(4)
C39_5 C 0.9233(3) 0.0504(10) 0.9161(2)
C40_5 C 0.8647(4) 0.0666(9) 0.9243(2)
H21_5 H 0.854425 0.108690 0.943678
C41_5 C 0.8214(3) 0.0197(10) 0.9034(2)
H22_5 H 0.782219 0.030527 0.908901
O5_3 O 0.9227(8) 0.4852(14) 0.6874(3)
O6_3 O 0.9104(3) 0.6462(10) 0.6595(2)
C15_5 C 0.9124(8) 0.5813(17) 0.6874(4)
C16_5 C 0.9077(6) 0.6569(11) 0.7197(2)
C17_5 C 0.9219(6) 0.6058(9) 0.7509(3)
H9_5 H 0.939748 0.534418 0.751247
C18_5 C 0.9094(6) 0.6614(12) 0.7818(2)
H10_5 H 0.918844 0.627204 0.802675
C19_5 C 0.8827(6) 0.7681(11) 0.7813(2)
C20_5 C 0.8685(6) 0.8192(10) 0.7500(3)
H11_5 H 0.850697 0.890579 0.749712
C21_5 C 0.8811(6) 0.7636(11) 0.7192(2)
H12_5 H 0.871601 0.797794 0.698283
C22_5 C 0.5414(5) 0.9525(19) 0.8736(4)
C23_5 C 0.6090(3) 0.9435(9) 0.8702(3)
C24_5 C 0.6351(4) 0.8368(8) 0.8734(3)
H13_5 H 0.612562 0.773452 0.879180
C25_5 C 0.6949(4) 0.8247(8) 0.8680(3)
H14_5 H 0.712298 0.753265 0.870189
C26_5 C 0.7285(3) 0.9193(10) 0.8594(3)
C29_5 C 0.7936(6) 0.9074(15) 0.8516(4)
C30_5 C 0.8095(6) 0.8388(18) 0.8245(4)
H17_5 H 0.780901 0.799704 0.812201
C31_5 C 0.8663(6) 0.8271(15) 0.8154(4)
C32_5 C 0.9108(5) 0.8760(14) 0.8354(4)
C33_5 C 0.9707(6) 0.8653(14) 0.8258(4)
H18_5 H 0.980713 0.827199 0.805554
C35_5 C 0.9979(7) 0.9740(17) 0.8771(4)
C42_5 C 0.8367(3) 0.9568(9) 0.8744(2)
C43_5 C 0.8953(3) 0.9407(9) 0.8662(2)
C44_5 C 0.9386(2) 0.9875(10) 0.8870(2)
Bi4_3 Bi 0.92125(2) 0.50920(5) 0.61991(2)
O13_2 O 0.0171(5) 0.6312(15) 0.1200(4)
O14_2 O 0.0217(4) 0.4527(12) 0.1278(4)
O5_4 O 0.4227(8) 0.0148(14) 0.3126(3)
O1_6 O 0.8235(7) 0.4382(13) 0.1113(4)
O2_6 O 0.8135(5) 0.6160(14) 0.1220(5)
O6_4 O 0.4104(3) 0.8538(10) 0.3405(2)
C1_6 C 0.7940(5) 0.5265(15) 0.1188(5)
C2_6 C 0.7277(7) 0.5101(19) 0.1156(4)
C3_6 C 0.6924(5) 0.6085(15) 0.1171(4)
H1_6 H 0.709476 0.679597 0.120636
C4_6 C 0.6322(5) 0.6001(15) 0.1135(4)
H2_6 H 0.608843 0.665158 0.113272
C5_6 C 0.6084(4) 0.4946(15) 0.1103(3)
C6_6 C 0.6449(6) 0.4000(14) 0.1077(4)
H3_6 H 0.628039 0.328426 0.104757
C7_6 C 0.7051(6) 0.4074(18) 0.1094(5)
H4_6 H 0.728726 0.343517 0.106230
C11_6 C 0.4411(10) 0.3762(17) 0.0016(4)
H6_6 H 0.432644 0.453842 0.000318
C12_6 C 0.4583(6) 0.3283(15) 0.0322(4)
C13_6 C 0.4676(11) 0.2179(16) 0.0340(4)
H7_6 H 0.475830 0.184734 0.055212
C14_6 C 0.4655(10) 0.152(2) 0.0059(6)
H8_6 H 0.479637 0.077964 0.007206
C15_6 C 0.4124(8) 0.9187(17) 0.3126(4)
C16_6 C 0.4077(6) 0.8431(11) 0.2803(2)
C17_6 C 0.4219(6) 0.8942(9) 0.2491(3)
H9_6 H 0.439748 0.965582 0.248753
C18_6 C 0.4094(6) 0.8386(12) 0.2182(2)
H10_6 H 0.418844 0.872796 0.197325
C19_6 C 0.3827(6) 0.7319(11) 0.2187(2)
C20_6 C 0.3685(6) 0.6808(10) 0.2500(3)
H11_6 H 0.350697 0.609421 0.250288
C21_6 C 0.3811(6) 0.7364(11) 0.2808(2)
H12_6 H 0.371601 0.702206 0.301717
C22_6 C 0.0414(5) 0.5475(19) 0.1264(4)
C23_6 C 0.1090(3) 0.5565(9) 0.1298(3)
C24_6 C 0.1351(4) 0.6632(8) 0.1266(3)
H13_6 H 0.112562 0.726548 0.120820
C25_6 C 0.1949(4) 0.6753(8) 0.1320(3)
H14_6 H 0.212298 0.746735 0.129811
C26_6 C 0.2285(3) 0.5807(10) 0.1406(3)
C27_6 C 0.2025(4) 0.4740(8) 0.1438(3)
H15_6 H 0.224985 0.410634 0.149605
C28_6 C 0.1427(4) 0.4619(8) 0.1384(3)
H16_6 H 0.125248 0.390445 0.140614
C29_6 C 0.2936(6) 0.5926(15) 0.1484(4)
C30_6 C 0.3095(6) 0.6612(18) 0.1755(4)
H17_6 H 0.280901 0.700296 0.187799
C31_6 C 0.3663(6) 0.6729(15) 0.1846(4)
C32_6 C 0.4108(5) 0.6240(14) 0.1646(4)
C33_6 C 0.4707(6) 0.6347(14) 0.1742(4)
H18_6 H 0.480713 0.672801 0.194446
C34_6 C 0.5137(8) 0.5887(17) 0.1537(5)
H19_6 H 0.552856 0.597897 0.159590
C35_6 C 0.4979(7) 0.5260(17) 0.1229(4)
C36_6 C 0.5437(4) 0.4824(15) 0.1004(3)
C37_6 C 0.5265(6) 0.4167(15) 0.0727(4)
H20_6 H 0.555320 0.381709 0.059522
C38_6 C 0.4699(6) 0.4004(16) 0.0637(4)
C39_6 C 0.4233(3) 0.4496(10) 0.0839(2)
C40_6 C 0.3647(4) 0.4334(9) 0.0757(2)
H21_6 H 0.354425 0.391310 0.056322
C41_6 C 0.3214(3) 0.4803(10) 0.0966(2)
H22_6 H 0.282219 0.469473 0.091099
C42_6 C 0.3367(3) 0.5432(9) 0.1256(2)
C43_6 C 0.3953(3) 0.5593(9) 0.1338(2)
C44_6 C 0.4386(2) 0.5125(10) 0.1130(2)
Bi4_4 Bi 0.42125(2) 0.99080(5) 0.38009(2)
O11_4 O 0.9227(8) 0.5148(14) 0.1874(3)
O12_4 O 0.9104(3) 0.3538(10) 0.1595(2)
C8_6 C 0.4351(8) 0.1149(16) 0.9437(4)
C9_6 C 0.4419(6) 0.1929(16) 0.9736(3)
C10_6 C 0.4362(8) 0.3065(16) 0.9719(4)
H5_6 H 0.428759 0.340563 0.950622
O13_3 O 0.0171(5) 0.3688(15) 0.6200(4)
O14_3 O 0.0217(4) 0.5473(12) 0.6278(4)
O1_7 O 0.8235(7) 0.5618(13) 0.6113(4)
O2_7 O 0.8135(5) 0.3840(14) 0.6220(5)
O3_4 O 0.4294(4) 0.8380(10) 0.4141(2)
O4_4 O 0.4350(8) 0.9859(10) 0.4461(3)
C1_7 C 0.7940(5) 0.4735(15) 0.6188(5)
C2_7 C 0.7277(7) 0.4899(19) 0.6156(4)
C3_7 C 0.6924(5) 0.3915(15) 0.6171(4)
H1_7 H 0.709476 0.320403 0.620636
C4_7 C 0.6322(5) 0.3999(15) 0.6135(4)
H2_7 H 0.608843 0.334842 0.613272
C5_7 C 0.6084(4) 0.5054(15) 0.6103(3)
C6_7 C 0.6449(6) 0.6000(14) 0.6077(4)
H3_7 H 0.628039 0.671574 0.604757
C7_7 C 0.7051(6) 0.5926(18) 0.6094(5)
H4_7 H 0.728726 0.656483 0.606230
C8_7 C 0.4351(8) 0.8851(16) 0.4437(4)
C9_7 C 0.4419(6) 0.8071(16) 0.4736(3)
C10_7 C 0.4362(8) 0.6935(16) 0.4719(4)
H5_7 H 0.428759 0.659437 0.450622
C11_7 C 0.4411(10) 0.6238(17) 0.5016(4)
H6_7 H 0.432644 0.546158 0.500318
C12_7 C 0.4583(6) 0.6717(15) 0.5322(4)
C13_7 C 0.4676(11) 0.7821(16) 0.5340(4)
H7_7 H 0.475830 0.815266 0.555212
C14_7 C 0.4655(10) 0.848(2) 0.5059(6)
H8_7 H 0.479637 0.922036 0.507206
C15_7 C 0.4124(8) 0.0813(17) 0.8126(4)
C16_7 C 0.4077(6) 0.1569(11) 0.7803(2)
C17_7 C 0.4219(6) 0.1058(9) 0.7491(3)
H9_7 H 0.439748 0.034418 0.748753
C18_7 C 0.4094(6) 0.1614(12) 0.7182(2)
H10_7 H 0.418844 0.127204 0.697325
C19_7 C 0.3827(6) 0.2681(11) 0.7187(2)
C20_7 C 0.3685(6) 0.3192(10) 0.7500(3)
H11_7 H 0.350697 0.390579 0.750288
C21_7 C 0.3811(6) 0.2636(11) 0.7808(2)
H12_7 H 0.371601 0.297794 0.801717
C22_7 C 0.0414(5) 0.4525(19) 0.6264(4)
C23_7 C 0.1090(3) 0.4435(9) 0.6298(3)
C24_7 C 0.1351(4) 0.3368(8) 0.6266(3)
H13_7 H 0.112562 0.273452 0.620820
C25_7 C 0.1949(4) 0.3247(8) 0.6320(3)
H14_7 H 0.212298 0.253265 0.629811
C26_7 C 0.2285(3) 0.4193(10) 0.6406(3)
C27_7 C 0.2025(4) 0.5260(8) 0.6438(3)
H15_7 H 0.224985 0.589366 0.649605
C28_7 C 0.1427(4) 0.5381(8) 0.6384(3)
H16_7 H 0.125248 0.609555 0.640614
C29_7 C 0.2936(6) 0.4074(15) 0.6484(4)
C30_7 C 0.3095(6) 0.3388(18) 0.6755(4)
H17_7 H 0.280901 0.299704 0.687799
C31_7 C 0.3663(6) 0.3271(15) 0.6846(4)
C32_7 C 0.4108(5) 0.3760(14) 0.6646(4)
C33_7 C 0.4707(6) 0.3653(14) 0.6742(4)
H18_7 H 0.480713 0.327199 0.694446
C34_7 C 0.5137(8) 0.4113(17) 0.6537(5)
H19_7 H 0.552856 0.402103 0.659590
C35_7 C 0.4979(7) 0.4740(17) 0.6229(4)
C36_7 C 0.5437(4) 0.5176(15) 0.6004(3)
C37_7 C 0.5265(6) 0.5833(15) 0.5727(4)
H20_7 H 0.555320 0.618291 0.559522
C38_7 C 0.4699(6) 0.5996(16) 0.5637(4)
C39_7 C 0.4233(3) 0.5504(10) 0.5839(2)
C40_7 C 0.3647(4) 0.5666(9) 0.5757(2)
H21_7 H 0.354425 0.608690 0.556322
C41_7 C 0.3214(3) 0.5197(10) 0.5966(2)
H22_7 H 0.282219 0.530527 0.591099
C42_7 C 0.3367(3) 0.4568(9) 0.6256(2)
C43_7 C 0.3953(3) 0.4407(9) 0.6338(2)
C44_7 C 0.4386(2) 0.4875(10) 0.6130(2)
O9_4 O 0.9294(4) 0.6620(10) 0.5859(2)
O10_4 O 0.9350(8) 0.5141(10) 0.5539(3)
O2_8 O 0.3135(5) 0.1160(14) 0.3780(5)
C1_8 C 0.2940(5) 0.0265(15) 0.3812(5)
C2_8 C 0.2277(7) 0.0101(19) 0.3844(4)
C3_8 C 0.1924(5) 0.1085(15) 0.3829(4)
H1_8 H 0.209476 0.179597 0.379364
C4_8 C 0.1322(5) 0.1001(15) 0.3865(4)
H2_8 H 0.108843 0.165158 0.386728
C34_8 C 0.0137(8) 0.0887(17) 0.3463(5)
H19_8 H 0.052856 0.097897 0.340410
O13_4 O 0.5171(5) 0.1312(15) 0.3800(4)
O1_8 O 0.3235(7) 0.9382(13) 0.3887(4)
C5_8 C 0.1084(4) 0.9946(15) 0.3897(3)
C6_8 C 0.1449(6) 0.9000(14) 0.3923(4)
H3_8 H 0.128039 0.828426 0.395243
C7_8 C 0.2051(6) 0.9074(18) 0.3906(5)
H4_8 H 0.228726 0.843517 0.393770
C36_8 C 0.0437(4) 0.9824(15) 0.3996(3)
C37_8 C 0.0265(6) 0.9167(15) 0.4273(4)
H20_8 H 0.055320 0.881709 0.440478
O14_4 O 0.5217(4) 0.9527(12) 0.3722(4)
C15_8 C 0.9124(8) 0.4187(17) 0.1874(4)
C16_8 C 0.9077(6) 0.3431(11) 0.2197(2)
C17_8 C 0.9219(6) 0.3942(9) 0.2509(3)
H9_8 H 0.939748 0.465582 0.251247
C18_8 C 0.9094(6) 0.3386(12) 0.2818(2)
H10_8 H 0.918844 0.372796 0.302675
C19_8 C 0.8827(6) 0.2319(11) 0.2813(2)
C20_8 C 0.8685(6) 0.1808(10) 0.2500(3)
H11_8 H 0.850697 0.109421 0.249712
C21_8 C 0.8811(6) 0.2364(11) 0.2192(2)
H12_8 H 0.871601 0.202206 0.198283
C22_8 C 0.5414(5) 0.0475(19) 0.3736(4)
C23_8 C 0.6090(3) 0.0565(9) 0.3702(3)
C24_8 C 0.6351(4) 0.1632(8) 0.3734(3)
H13_8 H 0.612562 0.226548 0.379180
C25_8 C 0.6949(4) 0.1753(8) 0.3680(3)
H14_8 H 0.712298 0.246735 0.370189
C26_8 C 0.7285(3) 0.0807(10) 0.3594(3)
C29_8 C 0.7936(6) 0.0926(15) 0.3516(4)
C30_8 C 0.8095(6) 0.1612(18) 0.3245(4)
H17_8 H 0.780901 0.200296 0.312201
C31_8 C 0.8663(6) 0.1729(15) 0.3154(4)
C32_8 C 0.9108(5) 0.1240(14) 0.3354(4)
C33_8 C 0.9707(6) 0.1347(14) 0.3258(4)
H18_8 H 0.980713 0.172801 0.305554
C35_8 C 0.9979(7) 0.0260(17) 0.3771(4)
C42_8 C 0.8367(3) 0.0432(9) 0.3744(2)
C43_8 C 0.8953(3) 0.0593(9) 0.3662(2)
C44_8 C 0.9386(2) 0.0125(10) 0.3870(2)
C8_8 C 0.9351(8) 0.6149(16) 0.5563(4)
C9_8 C 0.9419(6) 0.6929(16) 0.5264(3)
C10_8 C 0.9362(8) 0.8065(16) 0.5281(4)
H5_8 H 0.928759 0.840563 0.549378
C11_8 C 0.9411(10) 0.8762(17) 0.4984(4)
H6_8 H 0.932644 0.953842 0.499682
C12_8 C 0.9583(6) 0.8283(15) 0.4678(4)
C13_8 C 0.9676(11) 0.7179(16) 0.4660(4)
H7_8 H 0.975830 0.684734 0.444788
C14_8 C 0.9655(10) 0.652(2) 0.4941(6)
H8_8 H 0.979637 0.577964 0.492794
C27_8 C 0.7025(4) 0.9740(8) 0.3562(3)
H15_8 H 0.724985 0.910634 0.350395
C28_8 C 0.6427(4) 0.9619(8) 0.3616(3)
H16_8 H 0.625248 0.890445 0.359386
C38_8 C 0.9699(6) 0.9004(16) 0.4363(4)
C39_8 C 0.9233(3) 0.9496(10) 0.4161(2)
C40_8 C 0.8647(4) 0.9334(9) 0.4243(2)
H21_8 H 0.854425 0.891310 0.443678
C41_8 C 0.8214(3) 0.9803(10) 0.4034(2)
H22_8 H 0.782219 0.969473 0.408901
loop_
_geom_bond_atom_site_label_1
_geom_bond_atom_site_label_2
_geom_bond_site_symmetry_1
_geom_bond_site_symmetry_2
Bi2 O1 1_555 1_555
O1 C1 1_555 1_555
O2 Bi2 1_555 1_555
O3 C8 1_555 1_555
O4 C8 1_555 1_555
O6 C15 1_555 1_555
O7 C22 1_555 1_555
O8 C22 1_555 1_555
C1 O2 1_555 1_555
C2 C1 1_555 1_555
C3 C2 1_555 1_555
H1 C3 1_555 1_555
C4 C3 1_555 1_555
H2 C4 1_555 1_555
C5 C4 1_555 1_555
C6 C5 1_555 1_555
H3 C6 1_555 1_555
C7 C2 1_555 1_555
H4 C7 1_555 1_555
C8 C9 1_555 1_555
C9 C10 1_555 1_555
C10 H5 1_555 1_555
C11 C10 1_555 1_555
H6 C11 1_555 1_555
C12 C11 1_555 1_555
C13 C12 1_555 1_555
H7 C13 1_555 1_555
C14 C9 1_555 1_555
H8 C14 1_555 1_555
C15 C16 1_555 1_555
C16 C17 1_555 1_555
C17 H9 1_555 1_555
C18 C17 1_555 1_555
H10 C18 1_555 1_555
C19 C18 1_555 1_555
C20 C19 1_555 1_555
H11 C20 1_555 1_555
C21 C16 1_555 1_555
H12 C21 1_555 1_555
C22 C23 1_555 1_555
C23 C24 1_555 1_555
C24 H13 1_555 1_555
C25 C24 1_555 1_555
H14 C25 1_555 1_555
C26 C25 1_555 1_555
C27 C26 1_555 1_555
H15 C27 1_555 1_555
C28 C23 1_555 1_555
H16 C28 1_555 1_555
C29 C26 1_555 1_555
C30 C29 1_555 1_555
H17 C30 1_555 1_555
C31 C19 1_555 1_555
C32 C31 1_555 1_555
C33 C32 1_555 1_555
H18 C33 1_555 1_555
C34 C33 1_555 1_555
H19 C34 1_555 1_555
C35 C34 1_555 1_555
C36 C5 1_555 1_555
C37 C36 1_555 1_555
H20 C37 1_555 1_555
C38 C12 1_555 1_555
C39 C38 1_555 1_555
C40 C39 1_555 1_555
H21 C40 1_555 1_555
C41 C40 1_555 1_555
H22 C41 1_555 1_555
C42 C29 1_555 1_555
C43 C32 1_555 1_555
C44 C35 1_555 1_555
Bi3 O3 1_555 1_555
O9 Bi2 1_555 1_555
O10 Bi2 1_555 1_555
O11 Bi2 1_555 1_555
O12 Bi2 1_555 1_555
O4 Bi3 1_555 1_555
O6 Bi4 1_555 1_555
C6 C7 1_555 1_555
C13 C14 1_555 1_555
C20 C21 1_555 1_555
C27 C28 1_555 1_555
C30 C31 1_555 1_555
C35 C36 1_555 1_555
C37 C38 1_555 1_555
C39 C44 1_555 1_555
C41 C42 1_555 1_555
C42 C43 1_555 1_555
C43 C44 1_555 1_555
O9 C8_2 1_555 1_555
O10 C8_2 1_555 1_555
C8_2 C9_2 1_555 1_555
C9_2 C10_2 1_555 1_555
C10_2 H5_2 1_555 1_555
C11_2 C10_2 1_555 1_555
H6_2 C11_2 1_555 1_555
C12_2 C11_2 1_555 1_555
C13_2 C12_2 1_555 1_555
H7_2 C13_2 1_555 1_555
C14_2 C9_2 1_555 1_555
H8_2 C14_2 1_555 1_555
H15_2 C27_2 1_555 1_555
H16_2 C28_2 1_555 1_555
C38_2 C12_2 1_555 1_555
C39_2 C38_2 1_555 1_555
C40_2 C39_2 1_555 1_555
H21_2 C40_2 1_555 1_555
C41_2 C40_2 1_555 1_555
H22_2 C41_2 1_555 1_555
O8_2 Bi3 1_555 1_555
C13_2 C14_2 1_555 1_555
C27_2 C28_2 1_555 1_555
O5_2 C15_2 1_555 1_555
O6_2 C15_2 1_555 1_555
O7_2 C22_2 1_555 1_555
C15_2 C16_2 1_555 1_555
C16_2 C17_2 1_555 1_555
C17_2 H9_2 1_555 1_555
C18_2 C17_2 1_555 1_555
H10_2 C18_2 1_555 1_555
C19_2 C18_2 1_555 1_555
C20_2 C19_2 1_555 1_555
H11_2 C20_2 1_555 1_555
C21_2 C16_2 1_555 1_555
H12_2 C21_2 1_555 1_555
C22_2 C23_2 1_555 1_555
C23_2 C24_2 1_555 1_555
C24_2 H13_2 1_555 1_555
C25_2 C24_2 1_555 1_555
H14_2 C25_2 1_555 1_555
C26_2 C25_2 1_555 1_555
C29_2 C26_2 1_555 1_555
C30_2 C29_2 1_555 1_555
H17_2 C30_2 1_555 1_555
C31_2 C19_2 1_555 1_555
C32_2 C31_2 1_555 1_555
C33_2 C32_2 1_555 1_555
H18_2 C33_2 1_555 1_555
C42_2 C29_2 1_555 1_555
C43_2 C32_2 1_555 1_555
C44_2 C35_2 1_555 1_555
Bi4_2 O5_2 1_555 1_555
O6_2 Bi4_2 1_555 1_555
C20_2 C21_2 1_555 1_555
C30_2 C31_2 1_555 1_555
C42_2 C43_2 1_555 1_555
C43_2 C44_2 1_555 1_555
Bi3 O1_2 1_555 1_555
C6_2 C5_2 1_555 1_555
H3_2 C6_2 1_555 1_555
H4_2 C7_2 1_555 1_555
C36_2 C5_2 1_555 1_555
C37_2 C36_2 1_555 1_555
H20_2 C37_2 1_555 1_555
O12_2 Bi3 1_555 1_555
C6_2 C7_2 1_555 1_555
C1_2 O2_2 1_555 1_555
C2_2 C1_2 1_555 1_555
C3_2 C2_2 1_555 1_555
H1_2 C3_2 1_555 1_555
C4_2 C3_2 1_555 1_555
H2_2 C4_2 1_555 1_555
H19_2 C34_2 1_555 1_555
O11 C15_3 1_555 1_555
O12 C15_3 1_555 1_555
O7_3 C22_3 1_555 1_555
C15_3 C16_3 1_555 1_555
C16_3 C17_3 1_555 1_555
C17_3 H9_3 1_555 1_555
C18_3 C17_3 1_555 1_555
H10_3 C18_3 1_555 1_555
C19_3 C18_3 1_555 1_555
C20_3 C19_3 1_555 1_555
H11_3 C20_3 1_555 1_555
C21_3 C16_3 1_555 1_555
H12_3 C21_3 1_555 1_555
C22_3 C23_3 1_555 1_555
C23_3 C24_3 1_555 1_555
C24_3 H13_3 1_555 1_555
C25_3 C24_3 1_555 1_555
H14_3 C25_3 1_555 1_555
C26_3 C25_3 1_555 1_555
C29_3 C26_3 1_555 1_555
C30_3 C29_3 1_555 1_555
H17_3 C30_3 1_555 1_555
C31_3 C19_3 1_555 1_555
C32_3 C31_3 1_555 1_555
C33_3 C32_3 1_555 1_555
H18_3 C33_3 1_555 1_555
C42_3 C29_3 1_555 1_555
C43_3 C32_3 1_555 1_555
C44_3 C35_3 1_555 1_555
C20_3 C21_3 1_555 1_555
C30_3 C31_3 1_555 1_555
C42_3 C43_3 1_555 1_555
C43_3 C44_3 1_555 1_555
H6_3 C11_3 1_555 1_555
C12_3 C11_3 1_555 1_555
C13_3 C12_3 1_555 1_555
H7_3 C13_3 1_555 1_555
H8_3 C14_3 1_555 1_555
H15_3 C27_3 1_555 1_555
H16_3 C28_3 1_555 1_555
C38_3 C12_3 1_555 1_555
C39_3 C38_3 1_555 1_555
C40_3 C39_3 1_555 1_555
H21_3 C40_3 1_555 1_555
C41_3 C40_3 1_555 1_555
H22_3 C41_3 1_555 1_555
O8_3 Bi4 1_555 1_555
C13_3 C14_3 1_555 1_555
C27_3 C28_3 1_555 1_555
O3_2 C8_3 1_555 1_555
O4_2 C8_3 1_555 1_555
C8_3 C9_3 1_555 1_555
C9_3 C10_3 1_555 1_555
C10_3 H5_3 1_555 1_555
Bi4_2 O3_2 1_555 1_555
O4_2 Bi4_2 1_555 1_555
C1_3 O2_3 1_555 1_555
C2_3 C1_3 1_555 1_555
C3_3 C2_3 1_555 1_555
H1_3 C3_3 1_555 1_555
C4_3 C3_3 1_555 1_555
H2_3 C4_3 1_555 1_555
H19_3 C34_3 1_555 1_555
Bi4 O1_3 1_555 1_555
C6_3 C5_3 1_555 1_555
H3_3 C6_3 1_555 1_555
H4_3 C7_3 1_555 1_555
C36_3 C5_3 1_555 1_555
C37_3 C36_3 1_555 1_555
H20_3 C37_3 1_555 1_555
O9_2 Bi4 1_555 1_555
O10_2 Bi4 1_555 1_555
C6_3 C7_3 1_555 1_555
O9_2 C8_4 1_555 1_555
O10_2 C8_4 1_555 1_555
C8_4 C9_4 1_555 1_555
C9_4 C10_4 1_555 1_555
C10_4 H5_4 1_555 1_555
Bi4_2 O1_4 1_555 1_555
O1_4 C1_4 1_555 1_555
O2_4 Bi4_2 1_555 1_555
O12_2 C15_4 1_555 1_555
O7_4 C22_4 1_555 1_555
O8_4 C22_4 1_555 1_555
C1_4 O2_4 1_555 1_555
C2_4 C1_4 1_555 1_555
C3_4 C2_4 1_555 1_555
H1_4 C3_4 1_555 1_555
C4_4 C3_4 1_555 1_555
H2_4 C4_4 1_555 1_555
C5_4 C4_4 1_555 1_555
C6_4 C5_4 1_555 1_555
H3_4 C6_4 1_555 1_555
C7_4 C2_4 1_555 1_555
H4_4 C7_4 1_555 1_555
H6_4 C11_4 1_555 1_555
C12_4 C11_4 1_555 1_555
C13_4 C12_4 1_555 1_555
H7_4 C13_4 1_555 1_555
H8_4 C14_4 1_555 1_555
C15_4 C16_4 1_555 1_555
C16_4 C17_4 1_555 1_555
C17_4 H9_4 1_555 1_555
C18_4 C17_4 1_555 1_555
H10_4 C18_4 1_555 1_555
C19_4 C18_4 1_555 1_555
C20_4 C19_4 1_555 1_555
H11_4 C20_4 1_555 1_555
C21_4 C16_4 1_555 1_555
H12_4 C21_4 1_555 1_555
C22_4 C23_4 1_555 1_555
C23_4 C24_4 1_555 1_555
C24_4 H13_4 1_555 1_555
C25_4 C24_4 1_555 1_555
H14_4 C25_4 1_555 1_555
C26_4 C25_4 1_555 1_555
C27_4 C26_4 1_555 1_555
H15_4 C27_4 1_555 1_555
C28_4 C23_4 1_555 1_555
H16_4 C28_4 1_555 1_555
C29_4 C26_4 1_555 1_555
C30_4 C29_4 1_555 1_555
H17_4 C30_4 1_555 1_555
C31_4 C19_4 1_555 1_555
C32_4 C31_4 1_555 1_555
C33_4 C32_4 1_555 1_555
H18_4 C33_4 1_555 1_555
C34_4 C33_4 1_555 1_555
H19_4 C34_4 1_555 1_555
C35_4 C34_4 1_555 1_555
C36_4 C5_4 1_555 1_555
C37_4 C36_4 1_555 1_555
H20_4 C37_4 1_555 1_555
C38_4 C12_4 1_555 1_555
C39_4 C38_4 1_555 1_555
C40_4 C39_4 1_555 1_555
H21_4 C40_4 1_555 1_555
C41_4 C40_4 1_555 1_555
H22_4 C41_4 1_555 1_555
C42_4 C29_4 1_555 1_555
C43_4 C32_4 1_555 1_555
C44_4 C35_4 1_555 1_555
C6_4 C7_4 1_555 1_555
C13_4 C14_4 1_555 1_555
C20_4 C21_4 1_555 1_555
C27_4 C28_4 1_555 1_555
C30_4 C31_4 1_555 1_555
C35_4 C36_4 1_555 1_555
C37_4 C38_4 1_555 1_555
C39_4 C44_4 1_555 1_555
C41_4 C42_4 1_555 1_555
C42_4 C43_4 1_555 1_555
C43_4 C44_4 1_555 1_555
Bi1 O1_5 1_555 1_555
C6_5 C5_5 1_555 1_555
H3_5 C6_5 1_555 1_555
H4_5 C7_5 1_555 1_555
C36_5 C5_5 1_555 1_555
C37_5 C36_5 1_555 1_555
H20_5 C37_5 1_555 1_555
O9_3 Bi1 1_555 1_555
O10_3 Bi1 1_555 1_555
O12_3 Bi1 1_555 1_555
O14 Bi1 1_555 1_555
C6_5 C7_5 1_555 1_555
C1_5 O2_5 1_555 1_555
C2_5 C1_5 1_555 1_555
C3_5 C2_5 1_555 1_555
H1_5 C3_5 1_555 1_555
C4_5 C3_5 1_555 1_555
H2_5 C4_5 1_555 1_555
H19_5 C34_5 1_555 1_555
O3_3 C8_5 1_555 1_555
O4_3 C8_5 1_555 1_555
C8_5 C9_5 1_555 1_555
C9_5 C10_5 1_555 1_555
C10_5 H5_5 1_555 1_555
Bi3_2 O3_3 1_555 1_555
O4_3 Bi3_2 1_555 1_555
H6_5 C11_5 1_555 1_555
C12_5 C11_5 1_555 1_555
C13_5 C12_5 1_555 1_555
H7_5 C13_5 1_555 1_555
H8_5 C14_5 1_555 1_555
H15_5 C27_5 1_555 1_555
H16_5 C28_5 1_555 1_555
C38_5 C12_5 1_555 1_555
C39_5 C38_5 1_555 1_555
C40_5 C39_5 1_555 1_555
H21_5 C40_5 1_555 1_555
C41_5 C40_5 1_555 1_555
H22_5 C41_5 1_555 1_555
C13_5 C14_5 1_555 1_555
C27_5 C28_5 1_555 1_555
O5_3 C15_5 1_555 1_555
O6_3 C15_5 1_555 1_555
O13 C22_5 1_555 1_555
C15_5 C16_5 1_555 1_555
C16_5 C17_5 1_555 1_555
C17_5 H9_5 1_555 1_555
C18_5 C17_5 1_555 1_555
H10_5 C18_5 1_555 1_555
C19_5 C18_5 1_555 1_555
C20_5 C19_5 1_555 1_555
H11_5 C20_5 1_555 1_555
C21_5 C16_5 1_555 1_555
H12_5 C21_5 1_555 1_555
C22_5 C23_5 1_555 1_555
C23_5 C24_5 1_555 1_555
C24_5 H13_5 1_555 1_555
C25_5 C24_5 1_555 1_555
H14_5 C25_5 1_555 1_555
C26_5 C25_5 1_555 1_555
C29_5 C26_5 1_555 1_555
C30_5 C29_5 1_555 1_555
H17_5 C30_5 1_555 1_555
C31_5 C19_5 1_555 1_555
C32_5 C31_5 1_555 1_555
C33_5 C32_5 1_555 1_555
H18_5 C33_5 1_555 1_555
C42_5 C29_5 1_555 1_555
C43_5 C32_5 1_555 1_555
C44_5 C35_5 1_555 1_555
Bi4_3 O5_3 1_555 1_555
O6_3 Bi4_3 1_555 1_555
C20_5 C21_5 1_555 1_555
C30_5 C31_5 1_555 1_555
C42_5 C43_5 1_555 1_555
C43_5 C44_5 1_555 1_555
Bi3_2 O1_6 1_555 1_555
O1_6 C1_6 1_555 1_555
O2_6 Bi3_2 1_555 1_555
O6_4 C15_6 1_555 1_555
O13_2 C22_6 1_555 1_555
O14_2 C22_6 1_555 1_555
C1_6 O2_6 1_555 1_555
C2_6 C1_6 1_555 1_555
C3_6 C2_6 1_555 1_555
H1_6 C3_6 1_555 1_555
C4_6 C3_6 1_555 1_555
H2_6 C4_6 1_555 1_555
C5_6 C4_6 1_555 1_555
C6_6 C5_6 1_555 1_555
H3_6 C6_6 1_555 1_555
C7_6 C2_6 1_555 1_555
H4_6 C7_6 1_555 1_555
H6_6 C11_6 1_555 1_555
C12_6 C11_6 1_555 1_555
C13_6 C12_6 1_555 1_555
H7_6 C13_6 1_555 1_555
H8_6 C14_6 1_555 1_555
C15_6 C16_6 1_555 1_555
C16_6 C17_6 1_555 1_555
C17_6 H9_6 1_555 1_555
C18_6 C17_6 1_555 1_555
H10_6 C18_6 1_555 1_555
C19_6 C18_6 1_555 1_555
C20_6 C19_6 1_555 1_555
H11_6 C20_6 1_555 1_555
C21_6 C16_6 1_555 1_555
H12_6 C21_6 1_555 1_555
C22_6 C23_6 1_555 1_555
C23_6 C24_6 1_555 1_555
C24_6 H13_6 1_555 1_555
C25_6 C24_6 1_555 1_555
H14_6 C25_6 1_555 1_555
C26_6 C25_6 1_555 1_555
C27_6 C26_6 1_555 1_555
H15_6 C27_6 1_555 1_555
C28_6 C23_6 1_555 1_555
H16_6 C28_6 1_555 1_555
C29_6 C26_6 1_555 1_555
C30_6 C29_6 1_555 1_555
H17_6 C30_6 1_555 1_555
C31_6 C19_6 1_555 1_555
C32_6 C31_6 1_555 1_555
C33_6 C32_6 1_555 1_555
H18_6 C33_6 1_555 1_555
C34_6 C33_6 1_555 1_555
H19_6 C34_6 1_555 1_555
C35_6 C34_6 1_555 1_555
C36_6 C5_6 1_555 1_555
C37_6 C36_6 1_555 1_555
H20_6 C37_6 1_555 1_555
C38_6 C12_6 1_555 1_555
C39_6 C38_6 1_555 1_555
C40_6 C39_6 1_555 1_555
H21_6 C40_6 1_555 1_555
C41_6 C40_6 1_555 1_555
H22_6 C41_6 1_555 1_555
C42_6 C29_6 1_555 1_555
C43_6 C32_6 1_555 1_555
C44_6 C35_6 1_555 1_555
O11_4 Bi3_2 1_555 1_555
O12_4 Bi3_2 1_555 1_555
O6_4 Bi4_4 1_555 1_555
C6_6 C7_6 1_555 1_555
C13_6 C14_6 1_555 1_555
C20_6 C21_6 1_555 1_555
C27_6 C28_6 1_555 1_555
C30_6 C31_6 1_555 1_555
C35_6 C36_6 1_555 1_555
C37_6 C38_6 1_555 1_555
C39_6 C44_6 1_555 1_555
C41_6 C42_6 1_555 1_555
C42_6 C43_6 1_555 1_555
C43_6 C44_6 1_555 1_555
O9_3 C8_6 1_555 1_555
O10_3 C8_6 1_555 1_555
C8_6 C9_6 1_555 1_555
C9_6 C10_6 1_555 1_555
C10_6 H5_6 1_555 1_555
Bi4_3 O1_7 1_555 1_555
O1_7 C1_7 1_555 1_555
O2_7 Bi4_3 1_555 1_555
O3_4 C8_7 1_555 1_555
O4_4 C8_7 1_555 1_555
O12_3 C15_7 1_555 1_555
O13_3 C22_7 1_555 1_555
O14_3 C22_7 1_555 1_555
C1_7 O2_7 1_555 1_555
C2_7 C1_7 1_555 1_555
C3_7 C2_7 1_555 1_555
H1_7 C3_7 1_555 1_555
C4_7 C3_7 1_555 1_555
H2_7 C4_7 1_555 1_555
C5_7 C4_7 1_555 1_555
C6_7 C5_7 1_555 1_555
H3_7 C6_7 1_555 1_555
C7_7 C2_7 1_555 1_555
H4_7 C7_7 1_555 1_555
C8_7 C9_7 1_555 1_555
C9_7 C10_7 1_555 1_555
C10_7 H5_7 1_555 1_555
C11_7 C10_7 1_555 1_555
H6_7 C11_7 1_555 1_555
C12_7 C11_7 1_555 1_555
C13_7 C12_7 1_555 1_555
H7_7 C13_7 1_555 1_555
C14_7 C9_7 1_555 1_555
H8_7 C14_7 1_555 1_555
C15_7 C16_7 1_555 1_555
C16_7 C17_7 1_555 1_555
C17_7 H9_7 1_555 1_555
C18_7 C17_7 1_555 1_555
H10_7 C18_7 1_555 1_555
C19_7 C18_7 1_555 1_555
C20_7 C19_7 1_555 1_555
H11_7 C20_7 1_555 1_555
C21_7 C16_7 1_555 1_555
H12_7 C21_7 1_555 1_555
C22_7 C23_7 1_555 1_555
C23_7 C24_7 1_555 1_555
C24_7 H13_7 1_555 1_555
C25_7 C24_7 1_555 1_555
H14_7 C25_7 1_555 1_555
C26_7 C25_7 1_555 1_555
C27_7 C26_7 1_555 1_555
H15_7 C27_7 1_555 1_555
C28_7 C23_7 1_555 1_555
H16_7 C28_7 1_555 1_555
C29_7 C26_7 1_555 1_555
C30_7 C29_7 1_555 1_555
H17_7 C30_7 1_555 1_555
C31_7 C19_7 1_555 1_555
C32_7 C31_7 1_555 1_555
C33_7 C32_7 1_555 1_555
H18_7 C33_7 1_555 1_555
C34_7 C33_7 1_555 1_555
H19_7 C34_7 1_555 1_555
C35_7 C34_7 1_555 1_555
C36_7 C5_7 1_555 1_555
C37_7 C36_7 1_555 1_555
H20_7 C37_7 1_555 1_555
C38_7 C12_7 1_555 1_555
C39_7 C38_7 1_555 1_555
C40_7 C39_7 1_555 1_555
H21_7 C40_7 1_555 1_555
C41_7 C40_7 1_555 1_555
H22_7 C41_7 1_555 1_555
C42_7 C29_7 1_555 1_555
C43_7 C32_7 1_555 1_555
C44_7 C35_7 1_555 1_555
Bi4_4 O3_4 1_555 1_555
O9_4 Bi4_3 1_555 1_555
O10_4 Bi4_3 1_555 1_555
O4_4 Bi4_4 1_555 1_555
C6_7 C7_7 1_555 1_555
C13_7 C14_7 1_555 1_555
C20_7 C21_7 1_555 1_555
C27_7 C28_7 1_555 1_555
C30_7 C31_7 1_555 1_555
C35_7 C36_7 1_555 1_555
C37_7 C38_7 1_555 1_555
C39_7 C44_7 1_555 1_555
C41_7 C42_7 1_555 1_555
C42_7 C43_7 1_555 1_555
C43_7 C44_7 1_555 1_555
C1_8 O2_8 1_555 1_555
C2_8 C1_8 1_555 1_555
C3_8 C2_8 1_555 1_555
H1_8 C3_8 1_555 1_555
C4_8 C3_8 1_555 1_555
H2_8 C4_8 1_555 1_555
H19_8 C34_8 1_555 1_555
Bi4_4 O1_8 1_555 1_555
C6_8 C5_8 1_555 1_555
H3_8 C6_8 1_555 1_555
H4_8 C7_8 1_555 1_555
C36_8 C5_8 1_555 1_555
C37_8 C36_8 1_555 1_555
H20_8 C37_8 1_555 1_555
O14_4 Bi4_4 1_555 1_555
C6_8 C7_8 1_555 1_555
O11_4 C15_8 1_555 1_555
O12_4 C15_8 1_555 1_555
O13_4 C22_8 1_555 1_555
C15_8 C16_8 1_555 1_555
C16_8 C17_8 1_555 1_555
C17_8 H9_8 1_555 1_555
C18_8 C17_8 1_555 1_555
H10_8 C18_8 1_555 1_555
C19_8 C18_8 1_555 1_555
C20_8 C19_8 1_555 1_555
H11_8 C20_8 1_555 1_555
C21_8 C16_8 1_555 1_555
H12_8 C21_8 1_555 1_555
C22_8 C23_8 1_555 1_555
C23_8 C24_8 1_555 1_555
C24_8 H13_8 1_555 1_555
C25_8 C24_8 1_555 1_555
H14_8 C25_8 1_555 1_555
C26_8 C25_8 1_555 1_555
C29_8 C26_8 1_555 1_555
C30_8 C29_8 1_555 1_555
H17_8 C30_8 1_555 1_555
C31_8 C19_8 1_555 1_555
C32_8 C31_8 1_555 1_555
C33_8 C32_8 1_555 1_555
H18_8 C33_8 1_555 1_555
C42_8 C29_8 1_555 1_555
C43_8 C32_8 1_555 1_555
C44_8 C35_8 1_555 1_555
C20_8 C21_8 1_555 1_555
C30_8 C31_8 1_555 1_555
C42_8 C43_8 1_555 1_555
C43_8 C44_8 1_555 1_555
O9_4 C8_8 1_555 1_555
O10_4 C8_8 1_555 1_555
C8_8 C9_8 1_555 1_555
C9_8 C10_8 1_555 1_555
C10_8 H5_8 1_555 1_555
C11_8 C10_8 1_555 1_555
H6_8 C11_8 1_555 1_555
C12_8 C11_8 1_555 1_555
C13_8 C12_8 1_555 1_555
H7_8 C13_8 1_555 1_555
C14_8 C9_8 1_555 1_555
H8_8 C14_8 1_555 1_555
H15_8 C27_8 1_555 1_555
H16_8 C28_8 1_555 1_555
C38_8 C12_8 1_555 1_555
C39_8 C38_8 1_555 1_555
C40_8 C39_8 1_555 1_555
H21_8 C40_8 1_555 1_555
C41_8 C40_8 1_555 1_555
H22_8 C41_8 1_555 1_555
C13_8 C14_8 1_555 1_555
C27_8 C28_8 1_555 1_555

#END
