
###############################################################################
#
# This file contains modified crystal structure data generated from the
# MOF subset of the Cambridge Structural Database (CSD) v543 
# hosted by the Cambridge Crystallographic Data Centre (CCDC).
#
# This work is licensed under the Creative Commons
# Attribution-NonCommercial-ShareAlike 4.0 International License.
# To view a copy of this license, visit
# http://creativecommons.org/licenses/by-nc-sa/4.0/
# or send a letter to
# Creative Commons, PO Box 1866, Mountain View, CA 94042, USA.
#
# CIF created using the CSD Python API on 29 September 2022
# The structure has been converted into the P1 space group
# The structure has a 3D framework
# The original CSD entry WUPTUY01 is in the cubic crystal system
# The framework has been calculated to contain at least 10.0% void space
# The void calculation uses a probe of radius 1.32A, grid spacing 0.4
#
###############################################################################

data_WUPTUY01
_chemical_formula_moiety         '(C1152 H576 O206 Zr32)n'
_symmetry_cell_setting           triclinic
_symmetry_space_group_name_H-M   'P 1'
_symmetry_Int_Tables_number      1
_space_group_name_Hall           'P 1'
loop_
_symmetry_equiv_pos_site_id
_symmetry_equiv_pos_as_xyz
1 x,y,z
_cell_length_a                   39.8116(7)
_cell_length_b                   39.8116(7)
_cell_length_c                   39.8116(7)
_cell_angle_alpha                90
_cell_angle_beta                 90
_cell_angle_gamma                90
_cell_volume                     63099.9
loop_
_atom_site_label
_atom_site_type_symbol
_atom_site_fract_x
_atom_site_fract_y
_atom_site_fract_z
Zr1 Zr 0.3750 0.3750 0.81293(2)
O1 O 0.42355(6) 0.37457(6) 0.78563(6)
O2 O 0.40832(13) 0.40832(13) 0.84168(13)
O3 O 0.34608(12) 0.40392(12) 0.84608(12)
C1 C 0.45365(8) 0.37169(12) 0.79634(8)
C2 C 0.48010(8) 0.36723(13) 0.76990(8)
C3 C 0.47054(11) 0.36450(14) 0.73651(11)
H1 H 0.4476 0.3665 0.7304
C4 C 0.49493(13) 0.35879(19) 0.71207(12)
H2 H 0.4884 0.3566 0.6892
C5 C 0.52914(12) 0.3562(3) 0.72086(12)
C6 C 0.55462(12) 0.3490(3) 0.69538(12)
C7 C 0.57487(13) 0.3450(3) 0.67513(13)
C8 C 0.59968(11) 0.3415(3) 0.65032(11)
C9 C 0.59147(17) 0.3413(2) 0.61595(15)
H3 H 0.5685 0.3411 0.6095
O4 O 0.78563(6) 0.37457(6) 0.42355(6)
C10 C 0.79635(8) 0.37169(12) 0.45366(8)
C11 C 0.76990(8) 0.36723(13) 0.48010(8)
C12 C 0.73651(11) 0.36450(14) 0.47054(11)
H4 H 0.7304 0.3665 0.4476
C13 C 0.71207(12) 0.35879(19) 0.49493(13)
H5 H 0.6892 0.3566 0.4884
C14 C 0.72086(12) 0.3562(3) 0.52914(12)
C15 C 0.69538(12) 0.3490(3) 0.55462(12)
C16 C 0.67513(13) 0.3450(3) 0.57487(13)
C17 C 0.65032(11) 0.3415(3) 0.59968(11)
C18 C 0.61595(15) 0.3413(2) 0.59147(17)
H6 H 0.6095 0.3411 0.5685
O5 O 0.46437(6) 0.37457(6) 0.82645(6)
C19 C 0.51349(11) 0.36450(14) 0.77946(11)
H7 H 0.5196 0.3665 0.8024
C20 C 0.53793(12) 0.35879(19) 0.75507(13)
H8 H 0.5608 0.3566 0.7616
C21 C 0.63405(15) 0.3413(2) 0.65853(17)
H9 H 0.6405 0.3411 0.6815
O6 O 0.82645(6) 0.37457(6) 0.46437(6)
C22 C 0.77946(11) 0.36450(14) 0.51349(11)
H10 H 0.8024 0.3665 0.5196
C23 C 0.75507(13) 0.35879(19) 0.53793(12)
H11 H 0.7616 0.3566 0.5608
C24 C 0.65853(17) 0.3413(2) 0.63405(15)
H12 H 0.6815 0.3411 0.6405
O7 O 0.84168(13) 0.40832(13) 0.40832(13)
Zr2 Zr 0.81293(2) 0.3750 0.3750
O8 O 0.78563(6) 0.42355(6) 0.37457(6)
C25 C 0.79634(8) 0.45365(8) 0.37169(12)
C26 C 0.76990(8) 0.48010(8) 0.36723(13)
C27 C 0.73651(11) 0.47054(11) 0.36450(14)
H13 H 0.7304 0.4476 0.3665
C28 C 0.71207(12) 0.49493(13) 0.35879(19)
H14 H 0.6892 0.4884 0.3566
C29 C 0.72086(12) 0.52914(12) 0.3562(3)
C30 C 0.69538(12) 0.55462(12) 0.3490(3)
C31 C 0.67513(13) 0.57487(13) 0.3450(3)
C32 C 0.65032(11) 0.59968(11) 0.3415(3)
C33 C 0.61595(15) 0.59147(17) 0.3413(2)
H15 H 0.6095 0.5685 0.3411
O9 O 0.42355(6) 0.78563(6) 0.37457(6)
C34 C 0.45366(8) 0.79635(8) 0.37169(12)
C35 C 0.48010(8) 0.76990(8) 0.36723(13)
C36 C 0.47054(11) 0.73651(11) 0.36450(14)
H16 H 0.4476 0.7304 0.3665
C37 C 0.49493(13) 0.71207(12) 0.35879(19)
H17 H 0.4884 0.6892 0.3566
C38 C 0.52914(12) 0.72086(12) 0.3562(3)
C39 C 0.55462(12) 0.69538(12) 0.3490(3)
C40 C 0.57487(13) 0.67513(13) 0.3450(3)
C41 C 0.59968(11) 0.65032(11) 0.3415(3)
C42 C 0.59147(17) 0.61595(15) 0.3413(2)
H18 H 0.5685 0.6095 0.3411
O10 O 0.82645(6) 0.46437(6) 0.37457(6)
C43 C 0.77946(11) 0.51349(11) 0.36450(14)
H19 H 0.8024 0.5196 0.3665
C44 C 0.75507(13) 0.53793(12) 0.35879(19)
H20 H 0.7616 0.5608 0.3566
C45 C 0.65853(17) 0.63405(15) 0.3413(2)
H21 H 0.6815 0.6405 0.3411
O11 O 0.46437(6) 0.82645(6) 0.37457(6)
C46 C 0.51349(11) 0.77946(11) 0.36450(14)
H22 H 0.5196 0.8024 0.3665
C47 C 0.53793(12) 0.75507(13) 0.35879(19)
H23 H 0.5608 0.7616 0.3566
C48 C 0.63405(15) 0.65853(17) 0.3413(2)
H24 H 0.6405 0.6815 0.3411
Zr3 Zr 0.3750 0.81293(2) 0.3750
O12 O 0.37457(6) 0.78563(6) 0.42355(6)
C49 C 0.37169(12) 0.79634(8) 0.45365(8)
C50 C 0.36723(13) 0.76990(8) 0.48010(8)
C51 C 0.36450(14) 0.73651(11) 0.47054(11)
H25 H 0.3665 0.7304 0.4476
C52 C 0.35879(19) 0.71207(12) 0.49493(13)
H26 H 0.3566 0.6892 0.4884
C53 C 0.3562(3) 0.72086(12) 0.52914(12)
C54 C 0.3490(3) 0.69538(12) 0.55462(12)
C55 C 0.3450(3) 0.67513(13) 0.57487(13)
C56 C 0.3415(3) 0.65032(11) 0.59968(11)
C57 C 0.3413(2) 0.61595(15) 0.59147(17)
H27 H 0.3411 0.6095 0.5685
O13 O 0.37457(6) 0.42355(6) 0.78563(6)
C58 C 0.37169(12) 0.45366(8) 0.79635(8)
C59 C 0.36723(13) 0.48010(8) 0.76990(8)
C60 C 0.36450(14) 0.47054(11) 0.73651(11)
H28 H 0.3665 0.4476 0.7304
C61 C 0.35879(19) 0.49493(13) 0.71207(12)
H29 H 0.3566 0.4884 0.6892
C62 C 0.3562(3) 0.52914(12) 0.72086(12)
C63 C 0.3490(3) 0.55462(12) 0.69538(12)
C64 C 0.3450(3) 0.57487(13) 0.67513(13)
C65 C 0.3415(3) 0.59968(11) 0.65032(11)
C66 C 0.3413(2) 0.59147(17) 0.61595(15)
H30 H 0.3411 0.5685 0.6095
O14 O 0.37457(6) 0.82645(6) 0.46437(6)
C67 C 0.36450(14) 0.77946(11) 0.51349(11)
H31 H 0.3665 0.8024 0.5196
C68 C 0.35879(19) 0.75507(13) 0.53793(12)
H32 H 0.3566 0.7616 0.5608
C69 C 0.3413(2) 0.65853(17) 0.63405(15)
H33 H 0.3411 0.6815 0.6405
O15 O 0.37457(6) 0.46437(6) 0.82645(6)
C70 C 0.36450(14) 0.51349(11) 0.77946(11)
H34 H 0.3665 0.5196 0.8024
C71 C 0.35879(19) 0.53793(12) 0.75507(13)
H35 H 0.3566 0.5608 0.7616
C72 C 0.3413(2) 0.63405(15) 0.65853(17)
H36 H 0.3411 0.6405 0.6815
O16 O 0.40392(12) 0.34608(12) 0.84608(12)
Zr4 Zr 0.3750 0.8750 0.43707(2)
Zr5 Zr 0.8750 0.3750 0.43707(2)
Zr6 Zr 0.8750 0.43707(2) 0.3750
Zr7 Zr 0.43707(2) 0.8750 0.3750
Zr8 Zr 0.43707(2) 0.3750 0.8750
Zr9 Zr 0.3750 0.43707(2) 0.8750
Zr10 Zr 0.3750 0.31293(2) 0.8750
Zr11 Zr 0.31293(2) 0.3750 0.8750
O17 O 0.78563(6) 0.32645(6) 0.37543(6)
O18 O 0.37543(6) 0.78563(6) 0.32645(6)
O19 O 0.32645(6) 0.37543(6) 0.78563(6)
O20 O 0.32645(6) 0.78563(6) 0.37543(6)
O21 O 0.78563(6) 0.37543(6) 0.32645(6)
O22 O 0.37543(6) 0.32645(6) 0.78563(6)
O23 O 0.40832(13) 0.84168(13) 0.40832(13)
O24 O 0.84168(13) 0.34168(13) 0.34168(13)
O25 O 0.34168(13) 0.84168(13) 0.34168(13)
O26 O 0.34168(13) 0.34168(13) 0.84168(13)
O27 O 0.34608(12) 0.84608(12) 0.40392(12)
O28 O 0.84608(12) 0.34608(12) 0.40392(12)
O29 O 0.40392(12) 0.84608(12) 0.34608(12)
O30 O 0.84608(12) 0.40392(12) 0.34608(12)
Zr1_2 Zr 0.8750 0.8750 0.81293(2)
O1_2 O 0.82645(6) 0.87543(6) 0.78563(6)
O2_2 O 0.84168(13) 0.84168(13) 0.84168(13)
O3_2 O 0.90392(12) 0.84608(12) 0.84608(12)
C1_2 C 0.79635(8) 0.87831(12) 0.79634(8)
C2_2 C 0.76990(8) 0.88277(13) 0.76990(8)
C3_2 C 0.77946(11) 0.88550(14) 0.73651(11)
H1_2 H 0.8024 0.8835 0.7304
C4_2 C 0.75507(13) 0.89121(19) 0.71207(12)
H2_2 H 0.7616 0.8934 0.6892
C5_2 C 0.72086(12) 0.8938(3) 0.72086(12)
C6_2 C 0.69538(12) 0.9010(3) 0.69538(12)
C7_2 C 0.67513(13) 0.9050(3) 0.67513(13)
C8_2 C 0.65032(11) 0.9085(3) 0.65032(11)
C9_2 C 0.65853(17) 0.9087(2) 0.61595(15)
H3_2 H 0.6815 0.9089 0.6095
O4_2 O 0.46437(6) 0.87543(6) 0.42355(6)
C10_2 C 0.45365(8) 0.87831(12) 0.45366(8)
C11_2 C 0.48010(8) 0.88277(13) 0.48010(8)
C12_2 C 0.51349(11) 0.88550(14) 0.47054(11)
H4_2 H 0.5196 0.8835 0.4476
C13_2 C 0.53793(12) 0.89121(19) 0.49493(13)
H5_2 H 0.5608 0.8934 0.4884
C14_2 C 0.52914(12) 0.8938(3) 0.52914(12)
C15_2 C 0.55462(12) 0.9010(3) 0.55462(12)
C16_2 C 0.57487(13) 0.9050(3) 0.57487(13)
C17_2 C 0.59968(11) 0.9085(3) 0.59968(11)
C18_2 C 0.63405(15) 0.9087(2) 0.59147(17)
H6_2 H 0.6405 0.9089 0.5685
O5_2 O 0.78563(6) 0.87543(6) 0.82645(6)
C19_2 C 0.73651(11) 0.88550(14) 0.77946(11)
H7_2 H 0.7304 0.8835 0.8024
C20_2 C 0.71207(12) 0.89121(19) 0.75507(13)
H8_2 H 0.6892 0.8934 0.7616
C21_2 C 0.61595(15) 0.9087(2) 0.65853(17)
H9_2 H 0.6095 0.9089 0.6815
O6_2 O 0.42355(6) 0.87543(6) 0.46437(6)
C22_2 C 0.47054(11) 0.88550(14) 0.51349(11)
H10_2 H 0.4476 0.8835 0.5196
C23_2 C 0.49493(13) 0.89121(19) 0.53793(12)
H11_2 H 0.4884 0.8934 0.5608
C24_2 C 0.59147(17) 0.9087(2) 0.63405(15)
H12_2 H 0.5685 0.9089 0.6405
O12_2 O 0.87543(6) 0.46437(6) 0.42355(6)
C49_2 C 0.87831(12) 0.45366(8) 0.45365(8)
C50_2 C 0.88277(13) 0.48010(8) 0.48010(8)
C51_2 C 0.88550(14) 0.51349(11) 0.47054(11)
H25_2 H 0.8835 0.5196 0.4476
C52_2 C 0.89121(19) 0.53793(12) 0.49493(13)
H26_2 H 0.8934 0.5608 0.4884
C53_2 C 0.8938(3) 0.52914(12) 0.52914(12)
C54_2 C 0.9010(3) 0.55462(12) 0.55462(12)
C55_2 C 0.9050(3) 0.57487(13) 0.57487(13)
C56_2 C 0.9085(3) 0.59968(11) 0.59968(11)
C57_2 C 0.9087(2) 0.63405(15) 0.59147(17)
H27_2 H 0.9089 0.6405 0.5685
O13_2 O 0.87543(6) 0.82645(6) 0.78563(6)
C58_2 C 0.87831(12) 0.79634(8) 0.79635(8)
C59_2 C 0.88277(13) 0.76990(8) 0.76990(8)
C60_2 C 0.88550(14) 0.77946(11) 0.73651(11)
H28_2 H 0.8835 0.8024 0.7304
C61_2 C 0.89121(19) 0.75507(13) 0.71207(12)
H29_2 H 0.8934 0.7616 0.6892
C62_2 C 0.8938(3) 0.72086(12) 0.72086(12)
C63_2 C 0.9010(3) 0.69538(12) 0.69538(12)
C64_2 C 0.9050(3) 0.67513(13) 0.67513(13)
C65_2 C 0.9085(3) 0.65032(11) 0.65032(11)
C66_2 C 0.9087(2) 0.65853(17) 0.61595(15)
H30_2 H 0.9089 0.6815 0.6095
O14_2 O 0.87543(6) 0.42355(6) 0.46437(6)
C67_2 C 0.88550(14) 0.47054(11) 0.51349(11)
H31_2 H 0.8835 0.4476 0.5196
C68_2 C 0.89121(19) 0.49493(13) 0.53793(12)
H32_2 H 0.8934 0.4884 0.5608
C69_2 C 0.9087(2) 0.59147(17) 0.63405(15)
H33_2 H 0.9089 0.5685 0.6405
O15_2 O 0.87543(6) 0.78563(6) 0.82645(6)
C70_2 C 0.88550(14) 0.73651(11) 0.77946(11)
H34_2 H 0.8835 0.7304 0.8024
C71_2 C 0.89121(19) 0.71207(12) 0.75507(13)
H35_2 H 0.8934 0.6892 0.7616
C72_2 C 0.9087(2) 0.61595(15) 0.65853(17)
H36_2 H 0.9089 0.6095 0.6815
O16_2 O 0.84608(12) 0.90392(12) 0.84608(12)
Zr8_2 Zr 0.81293(2) 0.8750 0.8750
Zr9_2 Zr 0.8750 0.81293(2) 0.8750
Zr10_2 Zr 0.8750 0.93707(2) 0.8750
Zr11_2 Zr 0.93707(2) 0.8750 0.8750
O17_2 O 0.46437(6) 0.92355(6) 0.37543(6)
O18_2 O 0.87457(6) 0.46437(6) 0.32645(6)
O19_2 O 0.92355(6) 0.87457(6) 0.78563(6)
O20_2 O 0.92355(6) 0.46437(6) 0.37543(6)
O21_2 O 0.46437(6) 0.87457(6) 0.32645(6)
O22_2 O 0.87457(6) 0.92355(6) 0.78563(6)
O24_2 O 0.40832(13) 0.90832(13) 0.34168(13)
O25_2 O 0.90832(13) 0.40832(13) 0.34168(13)
O26_2 O 0.90832(13) 0.90832(13) 0.84168(13)
O27_2 O 0.90392(12) 0.40392(12) 0.40392(12)
O28_2 O 0.40392(12) 0.90392(12) 0.40392(12)
O8_2 O 0.78563(6) 0.82645(6) 0.87543(6)
C25_2 C 0.79634(8) 0.79635(8) 0.87831(12)
C26_2 C 0.76990(8) 0.76990(8) 0.88277(13)
C27_2 C 0.73651(11) 0.77946(11) 0.88550(14)
H13_2 H 0.7304 0.8024 0.8835
C28_2 C 0.71207(12) 0.75507(13) 0.89121(19)
H14_2 H 0.6892 0.7616 0.8934
C29_2 C 0.72086(12) 0.72086(12) 0.8938(3)
C30_2 C 0.69538(12) 0.69538(12) 0.9010(3)
C31_2 C 0.67513(13) 0.67513(13) 0.9050(3)
C32_2 C 0.65032(11) 0.65032(11) 0.9085(3)
C33_2 C 0.61595(15) 0.65853(17) 0.9087(2)
H15_2 H 0.6095 0.6815 0.9089
O9_2 O 0.42355(6) 0.46437(6) 0.87543(6)
C34_2 C 0.45366(8) 0.45365(8) 0.87831(12)
C35_2 C 0.48010(8) 0.48010(8) 0.88277(13)
C36_2 C 0.47054(11) 0.51349(11) 0.88550(14)
H16_2 H 0.4476 0.5196 0.8835
C37_2 C 0.49493(13) 0.53793(12) 0.89121(19)
H17_2 H 0.4884 0.5608 0.8934
C38_2 C 0.52914(12) 0.52914(12) 0.8938(3)
C39_2 C 0.55462(12) 0.55462(12) 0.9010(3)
C40_2 C 0.57487(13) 0.57487(13) 0.9050(3)
C41_2 C 0.59968(11) 0.59968(11) 0.9085(3)
C42_2 C 0.59147(17) 0.63405(15) 0.9087(2)
H18_2 H 0.5685 0.6405 0.9089
O10_2 O 0.82645(6) 0.78563(6) 0.87543(6)
C43_2 C 0.77946(11) 0.73651(11) 0.88550(14)
H19_2 H 0.8024 0.7304 0.8835
C44_2 C 0.75507(13) 0.71207(12) 0.89121(19)
H20_2 H 0.7616 0.6892 0.8934
C45_2 C 0.65853(17) 0.61595(15) 0.9087(2)
H21_2 H 0.6815 0.6095 0.9089
O11_2 O 0.46437(6) 0.42355(6) 0.87543(6)
C46_2 C 0.51349(11) 0.47054(11) 0.88550(14)
H22_2 H 0.5196 0.4476 0.8835
C47_2 C 0.53793(12) 0.49493(13) 0.89121(19)
H23_2 H 0.5608 0.4884 0.8934
C48_2 C 0.63405(15) 0.59147(17) 0.9087(2)
H24_2 H 0.6405 0.5685 0.9089
Zr10_3 Zr 0.3750 0.93707(2) 0.3750
Zr11_3 Zr 0.31293(2) 0.8750 0.3750
O17_3 O 0.78563(6) 0.92355(6) 0.87457(6)
O18_3 O 0.37543(6) 0.46437(6) 0.92355(6)
O19_3 O 0.32645(6) 0.87457(6) 0.46437(6)
O20_3 O 0.32645(6) 0.46437(6) 0.87457(6)
O21_3 O 0.78563(6) 0.87457(6) 0.92355(6)
O22_3 O 0.37543(6) 0.92355(6) 0.46437(6)
O24_3 O 0.84168(13) 0.90832(13) 0.90832(13)
O25_3 O 0.34168(13) 0.40832(13) 0.90832(13)
O26_3 O 0.34168(13) 0.90832(13) 0.40832(13)
O29_2 O 0.40392(12) 0.40392(12) 0.90392(12)
O30_2 O 0.84608(12) 0.84608(12) 0.90392(12)
Zr10_4 Zr 0.8750 0.31293(2) 0.3750
Zr11_4 Zr 0.93707(2) 0.3750 0.3750
O17_4 O 0.46437(6) 0.32645(6) 0.87457(6)
O18_4 O 0.87457(6) 0.78563(6) 0.92355(6)
O19_4 O 0.92355(6) 0.37543(6) 0.46437(6)
O20_4 O 0.92355(6) 0.78563(6) 0.87457(6)
O21_4 O 0.46437(6) 0.37543(6) 0.92355(6)
O22_4 O 0.87457(6) 0.32645(6) 0.46437(6)
O24_4 O 0.40832(13) 0.34168(13) 0.90832(13)
O25_4 O 0.90832(13) 0.84168(13) 0.90832(13)
O26_4 O 0.90832(13) 0.34168(13) 0.40832(13)
Zr10_5 Zr 0.8750 0.3750 0.31293(2)
Zr11_5 Zr 0.3750 0.8750 0.31293(2)
Zr10_6 Zr 0.8750 0.8750 0.93707(2)
Zr10_7 Zr 0.3750 0.3750 0.93707(2)
C53_3 C 0.3562(3) 0.22086(12) 0.02914(12)
C54_3 C 0.3490(3) 0.19538(12) 0.05462(12)
C55_3 C 0.3450(3) 0.17513(13) 0.07487(13)
C56_3 C 0.3415(3) 0.15032(11) 0.09968(11)
C57_3 C 0.3413(2) 0.11595(15) 0.09147(17)
H27_3 H 0.3411 0.1095 0.0685
C62_3 C 0.3562(3) 0.02914(12) 0.22086(12)
C63_3 C 0.3490(3) 0.05462(12) 0.19538(12)
C64_3 C 0.3450(3) 0.07487(13) 0.17513(13)
C65_3 C 0.3415(3) 0.09968(11) 0.15032(11)
C66_3 C 0.3413(2) 0.09147(17) 0.11595(15)
H30_3 H 0.3411 0.0685 0.1095
C67_3 C 0.36450(14) 0.27946(11) 0.01349(11)
H31_3 H 0.3665 0.3024 0.0196
C68_3 C 0.35879(19) 0.25507(13) 0.03793(12)
H32_3 H 0.3566 0.2616 0.0608
C69_3 C 0.3413(2) 0.15853(17) 0.13405(15)
H33_3 H 0.3411 0.1815 0.1405
C70_3 C 0.36450(14) 0.01349(11) 0.27946(11)
H34_3 H 0.3665 0.0196 0.3024
C71_3 C 0.35879(19) 0.03793(12) 0.25507(13)
H35_3 H 0.3566 0.0608 0.2616
C72_3 C 0.3413(2) 0.13405(15) 0.15853(17)
H36_3 H 0.3411 0.1405 0.1815
C29_3 C 0.72086(12) 0.02914(12) 0.8562(3)
C30_3 C 0.69538(12) 0.05462(12) 0.8490(3)
C31_3 C 0.67513(13) 0.07487(13) 0.8450(3)
C32_3 C 0.65032(11) 0.09968(11) 0.8415(3)
C33_3 C 0.61595(15) 0.09147(17) 0.8413(2)
H15_3 H 0.6095 0.0685 0.8411
O9_3 O 0.42355(6) 0.28563(6) 0.87457(6)
C34_3 C 0.45366(8) 0.29635(8) 0.87169(12)
C35_3 C 0.48010(8) 0.26990(8) 0.86723(13)
C36_3 C 0.47054(11) 0.23651(11) 0.86450(14)
H16_3 H 0.4476 0.2304 0.8665
C37_3 C 0.49493(13) 0.21207(12) 0.85879(19)
H17_3 H 0.4884 0.1892 0.8566
C38_3 C 0.52914(12) 0.22086(12) 0.8562(3)
C39_3 C 0.55462(12) 0.19538(12) 0.8490(3)
C40_3 C 0.57487(13) 0.17513(13) 0.8450(3)
C41_3 C 0.59968(11) 0.15032(11) 0.8415(3)
C42_3 C 0.59147(17) 0.11595(15) 0.8413(2)
H18_3 H 0.5685 0.1095 0.8411
C43_3 C 0.77946(11) 0.01349(11) 0.86450(14)
H19_3 H 0.8024 0.0196 0.8665
C44_3 C 0.75507(13) 0.03793(12) 0.85879(19)
H20_3 H 0.7616 0.0608 0.8566
C45_3 C 0.65853(17) 0.13405(15) 0.8413(2)
H21_3 H 0.6815 0.1405 0.8411
C46_3 C 0.51349(11) 0.27946(11) 0.86450(14)
H22_3 H 0.5196 0.3024 0.8665
C47_3 C 0.53793(12) 0.25507(13) 0.85879(19)
H23_3 H 0.5608 0.2616 0.8566
C48_3 C 0.63405(15) 0.15853(17) 0.8413(2)
H24_3 H 0.6405 0.1815 0.8411
O12_3 O 0.37457(6) 0.28563(6) 0.92355(6)
C49_3 C 0.37169(12) 0.29634(8) 0.95365(8)
C50_3 C 0.36723(13) 0.26990(8) 0.98010(8)
C51_3 C 0.36450(14) 0.23651(11) 0.97054(11)
H25_3 H 0.3665 0.2304 0.9476
C52_3 C 0.35879(19) 0.21207(12) 0.99493(13)
H26_3 H 0.3566 0.1892 0.9884
O14_3 O 0.37457(6) 0.32645(6) 0.96437(6)
O18_5 O 0.37543(6) 0.28563(6) 0.82645(6)
O20_5 O 0.32645(6) 0.28563(6) 0.87543(6)
O27_3 O 0.34608(12) 0.34608(12) 0.90392(12)
O1_3 O 0.42355(6) 0.87457(6) 0.28563(6)
O3_3 O 0.34608(12) 0.90392(12) 0.34608(12)
C1_3 C 0.45365(8) 0.87169(12) 0.29634(8)
C2_3 C 0.48010(8) 0.86723(13) 0.26990(8)
C3_3 C 0.47054(11) 0.86450(14) 0.23651(11)
H1_3 H 0.4476 0.8665 0.2304
C4_3 C 0.49493(13) 0.85879(19) 0.21207(12)
H2_3 H 0.4884 0.8566 0.1892
C5_3 C 0.52914(12) 0.8562(3) 0.22086(12)
C6_3 C 0.55462(12) 0.8490(3) 0.19538(12)
C7_3 C 0.57487(13) 0.8450(3) 0.17513(13)
C8_3 C 0.59968(11) 0.8415(3) 0.15032(11)
C9_3 C 0.59147(17) 0.8413(2) 0.11595(15)
H3_3 H 0.5685 0.8411 0.1095
C14_3 C 0.72086(12) 0.8562(3) 0.02914(12)
C15_3 C 0.69538(12) 0.8490(3) 0.05462(12)
C16_3 C 0.67513(13) 0.8450(3) 0.07487(13)
C17_3 C 0.65032(11) 0.8415(3) 0.09968(11)
C18_3 C 0.61595(15) 0.8413(2) 0.09147(17)
H6_3 H 0.6095 0.8411 0.0685
C19_3 C 0.51349(11) 0.86450(14) 0.27946(11)
H7_3 H 0.5196 0.8665 0.3024
C20_3 C 0.53793(12) 0.85879(19) 0.25507(13)
H8_3 H 0.5608 0.8566 0.2616
C21_3 C 0.63405(15) 0.8413(2) 0.15853(17)
H9_3 H 0.6405 0.8411 0.1815
C22_3 C 0.77946(11) 0.86450(14) 0.01349(11)
H10_3 H 0.8024 0.8665 0.0196
C23_3 C 0.75507(13) 0.85879(19) 0.03793(12)
H11_3 H 0.7616 0.8566 0.0608
C24_3 C 0.65853(17) 0.8413(2) 0.13405(15)
H12_3 H 0.6815 0.8411 0.1405
O13_3 O 0.37457(6) 0.92355(6) 0.28563(6)
C58_3 C 0.37169(12) 0.95366(8) 0.29635(8)
C59_3 C 0.36723(13) 0.98010(8) 0.26990(8)
C60_3 C 0.36450(14) 0.97054(11) 0.23651(11)
H28_3 H 0.3665 0.9476 0.2304
C61_3 C 0.35879(19) 0.99493(13) 0.21207(12)
H29_3 H 0.3566 0.9884 0.1892
O15_3 O 0.37457(6) 0.96437(6) 0.32645(6)
O19_5 O 0.32645(6) 0.87543(6) 0.28563(6)
O22_5 O 0.37543(6) 0.82645(6) 0.28563(6)
C10_3 C 0.79635(8) 0.87169(12) 0.95366(8)
C11_3 C 0.76990(8) 0.86723(13) 0.98010(8)
C12_3 C 0.73651(11) 0.86450(14) 0.97054(11)
H4_3 H 0.7304 0.8665 0.9476
C13_3 C 0.71207(12) 0.85879(19) 0.99493(13)
H5_3 H 0.6892 0.8566 0.9884
O6_3 O 0.82645(6) 0.87457(6) 0.96437(6)
C25_3 C 0.79634(8) 0.95365(8) 0.87169(12)
C26_3 C 0.76990(8) 0.98010(8) 0.86723(13)
C27_3 C 0.73651(11) 0.97054(11) 0.86450(14)
H13_3 H 0.7304 0.9476 0.8665
C28_3 C 0.71207(12) 0.99493(13) 0.85879(19)
H14_3 H 0.6892 0.9884 0.8566
O10_3 O 0.82645(6) 0.96437(6) 0.87457(6)
O1_4 O 0.82645(6) 0.37543(6) 0.28563(6)
O3_4 O 0.90392(12) 0.34608(12) 0.34608(12)
C1_4 C 0.79635(8) 0.37831(12) 0.29634(8)
C2_4 C 0.76990(8) 0.38277(13) 0.26990(8)
C3_4 C 0.77946(11) 0.38550(14) 0.23651(11)
H1_4 H 0.8024 0.3835 0.2304
C4_4 C 0.75507(13) 0.39121(19) 0.21207(12)
H2_4 H 0.7616 0.3934 0.1892
C5_4 C 0.72086(12) 0.3938(3) 0.22086(12)
C6_4 C 0.69538(12) 0.4010(3) 0.19538(12)
C7_4 C 0.67513(13) 0.4050(3) 0.17513(13)
C8_4 C 0.65032(11) 0.4085(3) 0.15032(11)
C9_4 C 0.65853(17) 0.4087(2) 0.11595(15)
H3_4 H 0.6815 0.4089 0.1095
C14_4 C 0.52914(12) 0.3938(3) 0.02914(12)
C15_4 C 0.55462(12) 0.4010(3) 0.05462(12)
C16_4 C 0.57487(13) 0.4050(3) 0.07487(13)
C17_4 C 0.59968(11) 0.4085(3) 0.09968(11)
C18_4 C 0.63405(15) 0.4087(2) 0.09147(17)
H6_4 H 0.6405 0.4089 0.0685
C19_4 C 0.73651(11) 0.38550(14) 0.27946(11)
H7_4 H 0.7304 0.3835 0.3024
C20_4 C 0.71207(12) 0.39121(19) 0.25507(13)
H8_4 H 0.6892 0.3934 0.2616
C21_4 C 0.61595(15) 0.4087(2) 0.15853(17)
H9_4 H 0.6095 0.4089 0.1815
C22_4 C 0.47054(11) 0.38550(14) 0.01349(11)
H10_4 H 0.4476 0.3835 0.0196
C23_4 C 0.49493(13) 0.39121(19) 0.03793(12)
H11_4 H 0.4884 0.3934 0.0608
C24_4 C 0.59147(17) 0.4087(2) 0.13405(15)
H12_4 H 0.5685 0.4089 0.1405
C53_4 C 0.8938(3) 0.02914(12) 0.02914(12)
C54_4 C 0.9010(3) 0.05462(12) 0.05462(12)
C55_4 C 0.9050(3) 0.07487(13) 0.07487(13)
C56_4 C 0.9085(3) 0.09968(11) 0.09968(11)
C57_4 C 0.9087(2) 0.13405(15) 0.09147(17)
H27_4 H 0.9089 0.1405 0.0685
O13_4 O 0.87543(6) 0.32645(6) 0.28563(6)
C58_4 C 0.87831(12) 0.29634(8) 0.29635(8)
C59_4 C 0.88277(13) 0.26990(8) 0.26990(8)
C60_4 C 0.88550(14) 0.27946(11) 0.23651(11)
H28_4 H 0.8835 0.3024 0.2304
C61_4 C 0.89121(19) 0.25507(13) 0.21207(12)
H29_4 H 0.8934 0.2616 0.1892
C62_4 C 0.8938(3) 0.22086(12) 0.22086(12)
C63_4 C 0.9010(3) 0.19538(12) 0.19538(12)
C64_4 C 0.9050(3) 0.17513(13) 0.17513(13)
C65_4 C 0.9085(3) 0.15032(11) 0.15032(11)
C66_4 C 0.9087(2) 0.15853(17) 0.11595(15)
H30_4 H 0.9089 0.1815 0.1095
C69_4 C 0.9087(2) 0.09147(17) 0.13405(15)
H33_4 H 0.9089 0.0685 0.1405
O15_4 O 0.87543(6) 0.28563(6) 0.32645(6)
C70_4 C 0.88550(14) 0.23651(11) 0.27946(11)
H34_4 H 0.8835 0.2304 0.3024
C71_4 C 0.89121(19) 0.21207(12) 0.25507(13)
H35_4 H 0.8934 0.1892 0.2616
C72_4 C 0.9087(2) 0.11595(15) 0.15853(17)
H36_4 H 0.9089 0.1095 0.1815
O19_6 O 0.92355(6) 0.37457(6) 0.28563(6)
O22_6 O 0.87457(6) 0.42355(6) 0.28563(6)
C10_4 C 0.45365(8) 0.37831(12) 0.95366(8)
C11_4 C 0.48010(8) 0.38277(13) 0.98010(8)
C12_4 C 0.51349(11) 0.38550(14) 0.97054(11)
H4_4 H 0.5196 0.3835 0.9476
C13_4 C 0.53793(12) 0.39121(19) 0.99493(13)
H5_4 H 0.5608 0.3934 0.9884
O6_4 O 0.42355(6) 0.37543(6) 0.96437(6)
C51_4 C 0.88550(14) 0.01349(11) 0.97054(11)
H25_4 H 0.8835 0.0196 0.9476
C52_4 C 0.89121(19) 0.03793(12) 0.99493(13)
H26_4 H 0.8934 0.0608 0.9884
C67_4 C 0.88550(14) 0.97054(11) 0.01349(11)
H31_4 H 0.8835 0.9476 0.0196
C68_4 C 0.89121(19) 0.99493(13) 0.03793(12)
H32_4 H 0.8934 0.9884 0.0608
O12_4 O 0.87543(6) 0.96437(6) 0.92355(6)
C49_4 C 0.87831(12) 0.95366(8) 0.95365(8)
C50_4 C 0.88277(13) 0.98010(8) 0.98010(8)
O14_4 O 0.87543(6) 0.92355(6) 0.96437(6)
O18_6 O 0.87457(6) 0.96437(6) 0.82645(6)
O20_6 O 0.92355(6) 0.96437(6) 0.87543(6)
O27_4 O 0.90392(12) 0.90392(12) 0.90392(12)
C25_4 C 0.79634(8) 0.29635(8) 0.37831(12)
C26_4 C 0.76990(8) 0.26990(8) 0.38277(13)
C27_4 C 0.73651(11) 0.27946(11) 0.38550(14)
H13_4 H 0.7304 0.3024 0.3835
C28_4 C 0.71207(12) 0.25507(13) 0.39121(19)
H14_4 H 0.6892 0.2616 0.3934
C29_4 C 0.72086(12) 0.22086(12) 0.3938(3)
C30_4 C 0.69538(12) 0.19538(12) 0.4010(3)
C31_4 C 0.67513(13) 0.17513(13) 0.4050(3)
C32_4 C 0.65032(11) 0.15032(11) 0.4085(3)
C33_4 C 0.61595(15) 0.15853(17) 0.4087(2)
H15_4 H 0.6095 0.1815 0.4089
C36_4 C 0.47054(11) 0.01349(11) 0.38550(14)
H16_4 H 0.4476 0.0196 0.3835
C37_4 C 0.49493(13) 0.03793(12) 0.39121(19)
H17_4 H 0.4884 0.0608 0.3934
C38_4 C 0.52914(12) 0.02914(12) 0.3938(3)
C39_4 C 0.55462(12) 0.05462(12) 0.4010(3)
C40_4 C 0.57487(13) 0.07487(13) 0.4050(3)
C41_4 C 0.59968(11) 0.09968(11) 0.4085(3)
C42_4 C 0.59147(17) 0.13405(15) 0.4087(2)
H18_4 H 0.5685 0.1405 0.4089
O10_4 O 0.82645(6) 0.28563(6) 0.37543(6)
C43_4 C 0.77946(11) 0.23651(11) 0.38550(14)
H19_4 H 0.8024 0.2304 0.3835
C44_4 C 0.75507(13) 0.21207(12) 0.39121(19)
H20_4 H 0.7616 0.1892 0.3934
C45_4 C 0.65853(17) 0.11595(15) 0.4087(2)
H21_4 H 0.6815 0.1095 0.4089
C48_4 C 0.63405(15) 0.09147(17) 0.4087(2)
H24_4 H 0.6405 0.0685 0.4089
O19_7 O 0.32645(6) 0.37457(6) 0.96437(6)
O22_7 O 0.37543(6) 0.42355(6) 0.96437(6)
O9_4 O 0.42355(6) 0.96437(6) 0.37543(6)
C34_4 C 0.45366(8) 0.95365(8) 0.37831(12)
C35_4 C 0.48010(8) 0.98010(8) 0.38277(13)
C46_4 C 0.51349(11) 0.97054(11) 0.38550(14)
H22_4 H 0.5196 0.9476 0.3835
C47_4 C 0.53793(12) 0.99493(13) 0.39121(19)
H23_4 H 0.5608 0.9884 0.3934
O18_7 O 0.37543(6) 0.96437(6) 0.42355(6)
O20_7 O 0.32645(6) 0.96437(6) 0.37457(6)
O18_8 O 0.87457(6) 0.28563(6) 0.42355(6)
O20_8 O 0.92355(6) 0.28563(6) 0.37457(6)
O19_8 O 0.92355(6) 0.87543(6) 0.96437(6)
O22_8 O 0.87457(6) 0.82645(6) 0.96437(6)
C5_5 C 0.02914(12) 0.3562(3) 0.22086(12)
C6_5 C 0.05462(12) 0.3490(3) 0.19538(12)
C7_5 C 0.07487(13) 0.3450(3) 0.17513(13)
C8_5 C 0.09968(11) 0.3415(3) 0.15032(11)
C9_5 C 0.09147(17) 0.3413(2) 0.11595(15)
H3_5 H 0.0685 0.3411 0.1095
C14_5 C 0.22086(12) 0.3562(3) 0.02914(12)
C15_5 C 0.19538(12) 0.3490(3) 0.05462(12)
C16_5 C 0.17513(13) 0.3450(3) 0.07487(13)
C17_5 C 0.15032(11) 0.3415(3) 0.09968(11)
C18_5 C 0.11595(15) 0.3413(2) 0.09147(17)
H6_5 H 0.1095 0.3411 0.0685
C19_5 C 0.01349(11) 0.36450(14) 0.27946(11)
H7_5 H 0.0196 0.3665 0.3024
C20_5 C 0.03793(12) 0.35879(19) 0.25507(13)
H8_5 H 0.0608 0.3566 0.2616
C21_5 C 0.13405(15) 0.3413(2) 0.15853(17)
H9_5 H 0.1405 0.3411 0.1815
C22_5 C 0.27946(11) 0.36450(14) 0.01349(11)
H10_5 H 0.3024 0.3665 0.0196
C23_5 C 0.25507(13) 0.35879(19) 0.03793(12)
H11_5 H 0.2616 0.3566 0.0608
C24_5 C 0.15853(17) 0.3413(2) 0.13405(15)
H12_5 H 0.1815 0.3411 0.1405
O4_3 O 0.28563(6) 0.37457(6) 0.92355(6)
C10_5 C 0.29635(8) 0.37169(12) 0.95366(8)
C11_5 C 0.26990(8) 0.36723(13) 0.98010(8)
C12_5 C 0.23651(11) 0.36450(14) 0.97054(11)
H4_5 H 0.2304 0.3665 0.9476
C13_5 C 0.21207(12) 0.35879(19) 0.99493(13)
H5_5 H 0.1892 0.3566 0.9884
O8_3 O 0.28563(6) 0.42355(6) 0.87457(6)
C25_5 C 0.29634(8) 0.45365(8) 0.87169(12)
C26_5 C 0.26990(8) 0.48010(8) 0.86723(13)
C27_5 C 0.23651(11) 0.47054(11) 0.86450(14)
H13_5 H 0.2304 0.4476 0.8665
C28_5 C 0.21207(12) 0.49493(13) 0.85879(19)
H14_5 H 0.1892 0.4884 0.8566
C29_5 C 0.22086(12) 0.52914(12) 0.8562(3)
C30_5 C 0.19538(12) 0.55462(12) 0.8490(3)
C31_5 C 0.17513(13) 0.57487(13) 0.8450(3)
C32_5 C 0.15032(11) 0.59968(11) 0.8415(3)
C33_5 C 0.11595(15) 0.59147(17) 0.8413(2)
H15_5 H 0.1095 0.5685 0.8411
C38_5 C 0.02914(12) 0.72086(12) 0.8562(3)
C39_5 C 0.05462(12) 0.69538(12) 0.8490(3)
C40_5 C 0.07487(13) 0.67513(13) 0.8450(3)
C41_5 C 0.09968(11) 0.65032(11) 0.8415(3)
C42_5 C 0.09147(17) 0.61595(15) 0.8413(2)
H18_5 H 0.0685 0.6095 0.8411
C43_5 C 0.27946(11) 0.51349(11) 0.86450(14)
H19_5 H 0.3024 0.5196 0.8665
C44_5 C 0.25507(13) 0.53793(12) 0.85879(19)
H20_5 H 0.2616 0.5608 0.8566
C45_5 C 0.15853(17) 0.63405(15) 0.8413(2)
H21_5 H 0.1815 0.6405 0.8411
C46_5 C 0.01349(11) 0.77946(11) 0.86450(14)
H22_5 H 0.0196 0.8024 0.8665
C47_5 C 0.03793(12) 0.75507(13) 0.85879(19)
H23_5 H 0.0608 0.7616 0.8566
C48_5 C 0.13405(15) 0.65853(17) 0.8413(2)
H24_5 H 0.1405 0.6815 0.8411
O17_5 O 0.28563(6) 0.32645(6) 0.87543(6)
O21_5 O 0.28563(6) 0.37543(6) 0.82645(6)
C1_5 C 0.95365(8) 0.37169(12) 0.29634(8)
C2_5 C 0.98010(8) 0.36723(13) 0.26990(8)
C3_5 C 0.97054(11) 0.36450(14) 0.23651(11)
H1_5 H 0.9476 0.3665 0.2304
C4_5 C 0.99493(13) 0.35879(19) 0.21207(12)
H2_5 H 0.9884 0.3566 0.1892
O5_3 O 0.96437(6) 0.37457(6) 0.32645(6)
C53_5 C 0.8562(3) 0.72086(12) 0.02914(12)
C54_5 C 0.8490(3) 0.69538(12) 0.05462(12)
C55_5 C 0.8450(3) 0.67513(13) 0.07487(13)
C56_5 C 0.8415(3) 0.65032(11) 0.09968(11)
C57_5 C 0.8413(2) 0.61595(15) 0.09147(17)
H27_5 H 0.8411 0.6095 0.0685
C58_5 C 0.87169(12) 0.45366(8) 0.29635(8)
C59_5 C 0.86723(13) 0.48010(8) 0.26990(8)
C60_5 C 0.86450(14) 0.47054(11) 0.23651(11)
H28_5 H 0.8665 0.4476 0.2304
C61_5 C 0.85879(19) 0.49493(13) 0.21207(12)
H29_5 H 0.8566 0.4884 0.1892
C62_5 C 0.8562(3) 0.52914(12) 0.22086(12)
C63_5 C 0.8490(3) 0.55462(12) 0.19538(12)
C64_5 C 0.8450(3) 0.57487(13) 0.17513(13)
C65_5 C 0.8415(3) 0.59968(11) 0.15032(11)
C66_5 C 0.8413(2) 0.59147(17) 0.11595(15)
H30_5 H 0.8411 0.5685 0.1095
C67_5 C 0.86450(14) 0.77946(11) 0.01349(11)
H31_5 H 0.8665 0.8024 0.0196
C68_5 C 0.85879(19) 0.75507(13) 0.03793(12)
H32_5 H 0.8566 0.7616 0.0608
C69_5 C 0.8413(2) 0.65853(17) 0.13405(15)
H33_5 H 0.8411 0.6815 0.1405
C70_5 C 0.86450(14) 0.51349(11) 0.27946(11)
H34_5 H 0.8665 0.5196 0.3024
C71_5 C 0.85879(19) 0.53793(12) 0.25507(13)
H35_5 H 0.8566 0.5608 0.2616
C72_5 C 0.8413(2) 0.63405(15) 0.15853(17)
H36_5 H 0.8411 0.6405 0.1815
C34_5 C 0.95366(8) 0.79635(8) 0.87169(12)
C35_5 C 0.98010(8) 0.76990(8) 0.86723(13)
C36_5 C 0.97054(11) 0.73651(11) 0.86450(14)
H16_5 H 0.9476 0.7304 0.8665
C37_5 C 0.99493(13) 0.71207(12) 0.85879(19)
H17_5 H 0.9884 0.6892 0.8566
O11_3 O 0.96437(6) 0.82645(6) 0.87457(6)
C49_5 C 0.87169(12) 0.79634(8) 0.95365(8)
C50_5 C 0.86723(13) 0.76990(8) 0.98010(8)
C51_5 C 0.86450(14) 0.73651(11) 0.97054(11)
H25_5 H 0.8665 0.7304 0.9476
C52_5 C 0.85879(19) 0.71207(12) 0.99493(13)
H26_5 H 0.8566 0.6892 0.9884
C1_6 C 0.29635(8) 0.87831(12) 0.29634(8)
C2_6 C 0.26990(8) 0.88277(13) 0.26990(8)
C3_6 C 0.27946(11) 0.88550(14) 0.23651(11)
H1_6 H 0.3024 0.8835 0.2304
C4_6 C 0.25507(13) 0.89121(19) 0.21207(12)
H2_6 H 0.2616 0.8934 0.1892
C5_6 C 0.22086(12) 0.8938(3) 0.22086(12)
C6_6 C 0.19538(12) 0.9010(3) 0.19538(12)
C7_6 C 0.17513(13) 0.9050(3) 0.17513(13)
C8_6 C 0.15032(11) 0.9085(3) 0.15032(11)
C9_6 C 0.15853(17) 0.9087(2) 0.11595(15)
H3_6 H 0.1815 0.9089 0.1095
C14_6 C 0.02914(12) 0.8938(3) 0.02914(12)
C15_6 C 0.05462(12) 0.9010(3) 0.05462(12)
C16_6 C 0.07487(13) 0.9050(3) 0.07487(13)
C17_6 C 0.09968(11) 0.9085(3) 0.09968(11)
C18_6 C 0.13405(15) 0.9087(2) 0.09147(17)
H6_6 H 0.1405 0.9089 0.0685
O5_4 O 0.28563(6) 0.87543(6) 0.32645(6)
C19_6 C 0.23651(11) 0.88550(14) 0.27946(11)
H7_6 H 0.2304 0.8835 0.3024
C20_6 C 0.21207(12) 0.89121(19) 0.25507(13)
H8_6 H 0.1892 0.8934 0.2616
C21_6 C 0.11595(15) 0.9087(2) 0.15853(17)
H9_6 H 0.1095 0.9089 0.1815
C24_6 C 0.09147(17) 0.9087(2) 0.13405(15)
H12_6 H 0.0685 0.9089 0.1405
C53_6 C 0.3938(3) 0.52914(12) 0.02914(12)
C54_6 C 0.4010(3) 0.55462(12) 0.05462(12)
C55_6 C 0.4050(3) 0.57487(13) 0.07487(13)
C56_6 C 0.4085(3) 0.59968(11) 0.09968(11)
C57_6 C 0.4087(2) 0.63405(15) 0.09147(17)
H27_6 H 0.4089 0.6405 0.0685
C58_6 C 0.37831(12) 0.79634(8) 0.29635(8)
C59_6 C 0.38277(13) 0.76990(8) 0.26990(8)
C60_6 C 0.38550(14) 0.77946(11) 0.23651(11)
H28_6 H 0.3835 0.8024 0.2304
C61_6 C 0.39121(19) 0.75507(13) 0.21207(12)
H29_6 H 0.3934 0.7616 0.1892
C62_6 C 0.3938(3) 0.72086(12) 0.22086(12)
C63_6 C 0.4010(3) 0.69538(12) 0.19538(12)
C64_6 C 0.4050(3) 0.67513(13) 0.17513(13)
C65_6 C 0.4085(3) 0.65032(11) 0.15032(11)
C66_6 C 0.4087(2) 0.65853(17) 0.11595(15)
H30_6 H 0.4089 0.6815 0.1095
C67_6 C 0.38550(14) 0.47054(11) 0.01349(11)
H31_6 H 0.3835 0.4476 0.0196
C68_6 C 0.39121(19) 0.49493(13) 0.03793(12)
H32_6 H 0.3934 0.4884 0.0608
C69_6 C 0.4087(2) 0.59147(17) 0.13405(15)
H33_6 H 0.4089 0.5685 0.1405
C70_6 C 0.38550(14) 0.73651(11) 0.27946(11)
H34_6 H 0.3835 0.7304 0.3024
C71_6 C 0.39121(19) 0.71207(12) 0.25507(13)
H35_6 H 0.3934 0.6892 0.2616
C72_6 C 0.4087(2) 0.61595(15) 0.15853(17)
H36_6 H 0.4089 0.6095 0.1815
C12_6 C 0.01349(11) 0.88550(14) 0.97054(11)
H4_6 H 0.0196 0.8835 0.9476
C13_6 C 0.03793(12) 0.89121(19) 0.99493(13)
H5_6 H 0.0608 0.8934 0.9884
C49_6 C 0.37831(12) 0.45366(8) 0.95365(8)
C50_6 C 0.38277(13) 0.48010(8) 0.98010(8)
C51_6 C 0.38550(14) 0.51349(11) 0.97054(11)
H25_6 H 0.3835 0.5196 0.9476
C52_6 C 0.39121(19) 0.53793(12) 0.99493(13)
H26_6 H 0.3934 0.5608 0.9884
C22_6 C 0.97054(11) 0.88550(14) 0.01349(11)
H10_6 H 0.9476 0.8835 0.0196
C23_6 C 0.99493(13) 0.89121(19) 0.03793(12)
H11_6 H 0.9884 0.8934 0.0608
O4_4 O 0.96437(6) 0.87543(6) 0.92355(6)
C10_6 C 0.95365(8) 0.87831(12) 0.95366(8)
C11_6 C 0.98010(8) 0.88277(13) 0.98010(8)
O17_6 O 0.96437(6) 0.92355(6) 0.87543(6)
O21_6 O 0.96437(6) 0.87457(6) 0.82645(6)
O8_4 O 0.28563(6) 0.82645(6) 0.37543(6)
C25_6 C 0.29634(8) 0.79635(8) 0.37831(12)
C26_6 C 0.26990(8) 0.76990(8) 0.38277(13)
C27_6 C 0.23651(11) 0.77946(11) 0.38550(14)
H13_6 H 0.2304 0.8024 0.3835
C28_6 C 0.21207(12) 0.75507(13) 0.39121(19)
H14_6 H 0.1892 0.7616 0.3934
C29_6 C 0.22086(12) 0.72086(12) 0.3938(3)
C30_6 C 0.19538(12) 0.69538(12) 0.4010(3)
C31_6 C 0.17513(13) 0.67513(13) 0.4050(3)
C32_6 C 0.15032(11) 0.65032(11) 0.4085(3)
C33_6 C 0.11595(15) 0.65853(17) 0.4087(2)
H15_6 H 0.1095 0.6815 0.4089
C38_6 C 0.02914(12) 0.52914(12) 0.3938(3)
C39_6 C 0.05462(12) 0.55462(12) 0.4010(3)
C40_6 C 0.07487(13) 0.57487(13) 0.4050(3)
C41_6 C 0.09968(11) 0.59968(11) 0.4085(3)
C42_6 C 0.09147(17) 0.63405(15) 0.4087(2)
H18_6 H 0.0685 0.6405 0.4089
C43_6 C 0.27946(11) 0.73651(11) 0.38550(14)
H19_6 H 0.3024 0.7304 0.3835
C44_6 C 0.25507(13) 0.71207(12) 0.39121(19)
H20_6 H 0.2616 0.6892 0.3934
C45_6 C 0.15853(17) 0.61595(15) 0.4087(2)
H21_6 H 0.1815 0.6095 0.4089
C46_6 C 0.01349(11) 0.47054(11) 0.38550(14)
H22_6 H 0.0196 0.4476 0.3835
C47_6 C 0.03793(12) 0.49493(13) 0.39121(19)
H23_6 H 0.0608 0.4884 0.3934
C48_6 C 0.13405(15) 0.59147(17) 0.4087(2)
H24_6 H 0.1405 0.5685 0.4089
O17_7 O 0.28563(6) 0.92355(6) 0.37457(6)
O21_7 O 0.28563(6) 0.87457(6) 0.42355(6)
C34_6 C 0.95366(8) 0.45365(8) 0.37831(12)
C35_6 C 0.98010(8) 0.48010(8) 0.38277(13)
C36_6 C 0.97054(11) 0.51349(11) 0.38550(14)
H16_6 H 0.9476 0.5196 0.3835
C37_6 C 0.99493(13) 0.53793(12) 0.39121(19)
H17_6 H 0.9884 0.5608 0.3934
O11_4 O 0.96437(6) 0.42355(6) 0.37543(6)
O17_8 O 0.96437(6) 0.32645(6) 0.37457(6)
O21_8 O 0.96437(6) 0.37543(6) 0.42355(6)
C29_7 C 0.22086(12) 0.02914(12) 0.3562(3)
C30_7 C 0.19538(12) 0.05462(12) 0.3490(3)
C31_7 C 0.17513(13) 0.07487(13) 0.3450(3)
C32_7 C 0.15032(11) 0.09968(11) 0.3415(3)
C33_7 C 0.11595(15) 0.09147(17) 0.3413(2)
H15_7 H 0.1095 0.0685 0.3411
C38_7 C 0.02914(12) 0.22086(12) 0.3562(3)
C39_7 C 0.05462(12) 0.19538(12) 0.3490(3)
C40_7 C 0.07487(13) 0.17513(13) 0.3450(3)
C41_7 C 0.09968(11) 0.15032(11) 0.3415(3)
C42_7 C 0.09147(17) 0.11595(15) 0.3413(2)
H18_7 H 0.0685 0.1095 0.3411
C43_7 C 0.27946(11) 0.01349(11) 0.36450(14)
H19_7 H 0.3024 0.0196 0.3665
C44_7 C 0.25507(13) 0.03793(12) 0.35879(19)
H20_7 H 0.2616 0.0608 0.3566
C45_7 C 0.15853(17) 0.13405(15) 0.3413(2)
H21_7 H 0.1815 0.1405 0.3411
C46_7 C 0.01349(11) 0.27946(11) 0.36450(14)
H22_7 H 0.0196 0.3024 0.3665
C47_7 C 0.03793(12) 0.25507(13) 0.35879(19)
H23_7 H 0.0608 0.2616 0.3566
C48_7 C 0.13405(15) 0.15853(17) 0.3413(2)
H24_7 H 0.1405 0.1815 0.3411
C5_7 C 0.02914(12) 0.8562(3) 0.72086(12)
C6_7 C 0.05462(12) 0.8490(3) 0.69538(12)
C7_7 C 0.07487(13) 0.8450(3) 0.67513(13)
C8_7 C 0.09968(11) 0.8415(3) 0.65032(11)
C9_7 C 0.09147(17) 0.8413(2) 0.61595(15)
H3_7 H 0.0685 0.8411 0.6095
C10_7 C 0.29635(8) 0.87169(12) 0.45366(8)
C11_7 C 0.26990(8) 0.86723(13) 0.48010(8)
C12_7 C 0.23651(11) 0.86450(14) 0.47054(11)
H4_7 H 0.2304 0.8665 0.4476
C13_7 C 0.21207(12) 0.85879(19) 0.49493(13)
H5_7 H 0.1892 0.8566 0.4884
C14_7 C 0.22086(12) 0.8562(3) 0.52914(12)
C15_7 C 0.19538(12) 0.8490(3) 0.55462(12)
C16_7 C 0.17513(13) 0.8450(3) 0.57487(13)
C17_7 C 0.15032(11) 0.8415(3) 0.59968(11)
C18_7 C 0.11595(15) 0.8413(2) 0.59147(17)
H6_7 H 0.1095 0.8411 0.5685
C19_7 C 0.01349(11) 0.86450(14) 0.77946(11)
H7_7 H 0.0196 0.8665 0.8024
C20_7 C 0.03793(12) 0.85879(19) 0.75507(13)
H8_7 H 0.0608 0.8566 0.7616
C21_7 C 0.13405(15) 0.8413(2) 0.65853(17)
H9_7 H 0.1405 0.8411 0.6815
C22_7 C 0.27946(11) 0.86450(14) 0.51349(11)
H10_7 H 0.3024 0.8665 0.5196
C23_7 C 0.25507(13) 0.85879(19) 0.53793(12)
H11_7 H 0.2616 0.8566 0.5608
C24_7 C 0.15853(17) 0.8413(2) 0.63405(15)
H12_7 H 0.1815 0.8411 0.6405
C25_7 C 0.29634(8) 0.95365(8) 0.37169(12)
C26_7 C 0.26990(8) 0.98010(8) 0.36723(13)
C27_7 C 0.23651(11) 0.97054(11) 0.36450(14)
H13_7 H 0.2304 0.9476 0.3665
C28_7 C 0.21207(12) 0.99493(13) 0.35879(19)
H14_7 H 0.1892 0.9884 0.3566
C34_7 C 0.95366(8) 0.29635(8) 0.37169(12)
C35_7 C 0.98010(8) 0.26990(8) 0.36723(13)
C36_7 C 0.97054(11) 0.23651(11) 0.36450(14)
H16_7 H 0.9476 0.2304 0.3665
C37_7 C 0.99493(13) 0.21207(12) 0.35879(19)
H17_7 H 0.9884 0.1892 0.3566
C49_7 C 0.87169(12) 0.29634(8) 0.45365(8)
C50_7 C 0.86723(13) 0.26990(8) 0.48010(8)
C51_7 C 0.86450(14) 0.23651(11) 0.47054(11)
H25_7 H 0.8665 0.2304 0.4476
C52_7 C 0.85879(19) 0.21207(12) 0.49493(13)
H26_7 H 0.8566 0.1892 0.4884
C53_7 C 0.8562(3) 0.22086(12) 0.52914(12)
C54_7 C 0.8490(3) 0.19538(12) 0.55462(12)
C55_7 C 0.8450(3) 0.17513(13) 0.57487(13)
C56_7 C 0.8415(3) 0.15032(11) 0.59968(11)
C57_7 C 0.8413(2) 0.11595(15) 0.59147(17)
H27_7 H 0.8411 0.1095 0.5685
C62_7 C 0.8562(3) 0.02914(12) 0.72086(12)
C63_7 C 0.8490(3) 0.05462(12) 0.69538(12)
C64_7 C 0.8450(3) 0.07487(13) 0.67513(13)
C65_7 C 0.8415(3) 0.09968(11) 0.65032(11)
C66_7 C 0.8413(2) 0.09147(17) 0.61595(15)
H30_7 H 0.8411 0.0685 0.6095
C67_7 C 0.86450(14) 0.27946(11) 0.51349(11)
H31_7 H 0.8665 0.3024 0.5196
C68_7 C 0.85879(19) 0.25507(13) 0.53793(12)
H32_7 H 0.8566 0.2616 0.5608
C69_7 C 0.8413(2) 0.15853(17) 0.63405(15)
H33_7 H 0.8411 0.1815 0.6405
C70_7 C 0.86450(14) 0.01349(11) 0.77946(11)
H34_7 H 0.8665 0.0196 0.8024
C71_7 C 0.85879(19) 0.03793(12) 0.75507(13)
H35_7 H 0.8566 0.0608 0.7616
C72_7 C 0.8413(2) 0.13405(15) 0.65853(17)
H36_7 H 0.8411 0.1405 0.6815
C1_7 C 0.95365(8) 0.87169(12) 0.79634(8)
C2_7 C 0.98010(8) 0.86723(13) 0.76990(8)
C3_7 C 0.97054(11) 0.86450(14) 0.73651(11)
H1_7 H 0.9476 0.8665 0.7304
C4_7 C 0.99493(13) 0.85879(19) 0.71207(12)
H2_7 H 0.9884 0.8566 0.6892
C58_7 C 0.87169(12) 0.95366(8) 0.79635(8)
C59_7 C 0.86723(13) 0.98010(8) 0.76990(8)
C60_7 C 0.86450(14) 0.97054(11) 0.73651(11)
H28_7 H 0.8665 0.9476 0.7304
C61_7 C 0.85879(19) 0.99493(13) 0.71207(12)
H29_7 H 0.8566 0.9884 0.6892
C1_8 C 0.29635(8) 0.37831(12) 0.79634(8)
C2_8 C 0.26990(8) 0.38277(13) 0.76990(8)
C3_8 C 0.27946(11) 0.38550(14) 0.73651(11)
H1_8 H 0.3024 0.3835 0.7304
C4_8 C 0.25507(13) 0.39121(19) 0.71207(12)
H2_8 H 0.2616 0.3934 0.6892
C5_8 C 0.22086(12) 0.3938(3) 0.72086(12)
C6_8 C 0.19538(12) 0.4010(3) 0.69538(12)
C7_8 C 0.17513(13) 0.4050(3) 0.67513(13)
C8_8 C 0.15032(11) 0.4085(3) 0.65032(11)
C9_8 C 0.15853(17) 0.4087(2) 0.61595(15)
H3_8 H 0.1815 0.4089 0.6095
C12_8 C 0.01349(11) 0.38550(14) 0.47054(11)
H4_8 H 0.0196 0.3835 0.4476
C13_8 C 0.03793(12) 0.39121(19) 0.49493(13)
H5_8 H 0.0608 0.3934 0.4884
C14_8 C 0.02914(12) 0.3938(3) 0.52914(12)
C15_8 C 0.05462(12) 0.4010(3) 0.55462(12)
C16_8 C 0.07487(13) 0.4050(3) 0.57487(13)
C17_8 C 0.09968(11) 0.4085(3) 0.59968(11)
C18_8 C 0.13405(15) 0.4087(2) 0.59147(17)
H6_8 H 0.1405 0.4089 0.5685
C19_8 C 0.23651(11) 0.38550(14) 0.77946(11)
H7_8 H 0.2304 0.3835 0.8024
C20_8 C 0.21207(12) 0.39121(19) 0.75507(13)
H8_8 H 0.1892 0.3934 0.7616
C21_8 C 0.11595(15) 0.4087(2) 0.65853(17)
H9_8 H 0.1095 0.4089 0.6815
C24_8 C 0.09147(17) 0.4087(2) 0.63405(15)
H12_8 H 0.0685 0.4089 0.6405
C51_8 C 0.38550(14) 0.01349(11) 0.47054(11)
H25_8 H 0.3835 0.0196 0.4476
C52_8 C 0.39121(19) 0.03793(12) 0.49493(13)
H26_8 H 0.3934 0.0608 0.4884
C53_8 C 0.3938(3) 0.02914(12) 0.52914(12)
C54_8 C 0.4010(3) 0.05462(12) 0.55462(12)
C55_8 C 0.4050(3) 0.07487(13) 0.57487(13)
C56_8 C 0.4085(3) 0.09968(11) 0.59968(11)
C57_8 C 0.4087(2) 0.13405(15) 0.59147(17)
H27_8 H 0.4089 0.1405 0.5685
C58_8 C 0.37831(12) 0.29634(8) 0.79635(8)
C59_8 C 0.38277(13) 0.26990(8) 0.76990(8)
C60_8 C 0.38550(14) 0.27946(11) 0.73651(11)
H28_8 H 0.3835 0.3024 0.7304
C61_8 C 0.39121(19) 0.25507(13) 0.71207(12)
H29_8 H 0.3934 0.2616 0.6892
C62_8 C 0.3938(3) 0.22086(12) 0.72086(12)
C63_8 C 0.4010(3) 0.19538(12) 0.69538(12)
C64_8 C 0.4050(3) 0.17513(13) 0.67513(13)
C65_8 C 0.4085(3) 0.15032(11) 0.65032(11)
C66_8 C 0.4087(2) 0.15853(17) 0.61595(15)
H30_8 H 0.4089 0.1815 0.6095
C69_8 C 0.4087(2) 0.09147(17) 0.63405(15)
H33_8 H 0.4089 0.0685 0.6405
C70_8 C 0.38550(14) 0.23651(11) 0.77946(11)
H34_8 H 0.3835 0.2304 0.8024
C71_8 C 0.39121(19) 0.21207(12) 0.75507(13)
H35_8 H 0.3934 0.1892 0.7616
C72_8 C 0.4087(2) 0.11595(15) 0.65853(17)
H36_8 H 0.4089 0.1095 0.6815
C49_8 C 0.37831(12) 0.95366(8) 0.45365(8)
C50_8 C 0.38277(13) 0.98010(8) 0.48010(8)
C67_8 C 0.38550(14) 0.97054(11) 0.51349(11)
H31_8 H 0.3835 0.9476 0.5196
C68_8 C 0.39121(19) 0.99493(13) 0.53793(12)
H32_8 H 0.3934 0.9884 0.5608
C10_8 C 0.95365(8) 0.37831(12) 0.45366(8)
C11_8 C 0.98010(8) 0.38277(13) 0.48010(8)
C22_8 C 0.97054(11) 0.38550(14) 0.51349(11)
H10_8 H 0.9476 0.3835 0.5196
C23_8 C 0.99493(13) 0.39121(19) 0.53793(12)
H11_8 H 0.9884 0.3934 0.5608
C25_8 C 0.29634(8) 0.29635(8) 0.87831(12)
C26_8 C 0.26990(8) 0.26990(8) 0.88277(13)
C27_8 C 0.23651(11) 0.27946(11) 0.88550(14)
H13_8 H 0.2304 0.3024 0.8835
C28_8 C 0.21207(12) 0.25507(13) 0.89121(19)
H14_8 H 0.1892 0.2616 0.8934
C29_8 C 0.22086(12) 0.22086(12) 0.8938(3)
C30_8 C 0.19538(12) 0.19538(12) 0.9010(3)
C31_8 C 0.17513(13) 0.17513(13) 0.9050(3)
C32_8 C 0.15032(11) 0.15032(11) 0.9085(3)
C33_8 C 0.11595(15) 0.15853(17) 0.9087(2)
H15_8 H 0.1095 0.1815 0.9089
C38_8 C 0.02914(12) 0.02914(12) 0.8938(3)
C39_8 C 0.05462(12) 0.05462(12) 0.9010(3)
C40_8 C 0.07487(13) 0.07487(13) 0.9050(3)
C41_8 C 0.09968(11) 0.09968(11) 0.9085(3)
C42_8 C 0.09147(17) 0.13405(15) 0.9087(2)
H18_8 H 0.0685 0.1405 0.9089
C43_8 C 0.27946(11) 0.23651(11) 0.88550(14)
H19_8 H 0.3024 0.2304 0.8835
C44_8 C 0.25507(13) 0.21207(12) 0.89121(19)
H20_8 H 0.2616 0.1892 0.8934
C45_8 C 0.15853(17) 0.11595(15) 0.9087(2)
H21_8 H 0.1815 0.1095 0.9089
C48_8 C 0.13405(15) 0.09147(17) 0.9087(2)
H24_8 H 0.1405 0.0685 0.9089
C46_8 C 0.01349(11) 0.97054(11) 0.88550(14)
H22_8 H 0.0196 0.9476 0.8835
C47_8 C 0.03793(12) 0.99493(13) 0.89121(19)
H23_8 H 0.0608 0.9884 0.8934
C36_8 C 0.97054(11) 0.01349(11) 0.88550(14)
H16_8 H 0.9476 0.0196 0.8835
C37_8 C 0.99493(13) 0.03793(12) 0.89121(19)
H17_8 H 0.9884 0.0608 0.8934
C34_8 C 0.95366(8) 0.95365(8) 0.87831(12)
C35_8 C 0.98010(8) 0.98010(8) 0.88277(13)
O4_5 O 0.62543(6) 0.03563(6) 0.67355(6)
C10_9 C 0.62831(12) 0.04635(8) 0.70366(8)
C11_9 C 0.63277(13) 0.01990(8) 0.73010(8)
O6_5 O 0.62543(6) 0.07645(6) 0.71437(6)
C22_9 C 0.63550(14) 0.02946(11) 0.76349(11)
H10_9 H 0.6335 0.0524 0.7696
C23_9 C 0.64121(19) 0.00507(13) 0.78793(12)
H11_9 H 0.6434 0.0116 0.8108
O7_2 O 0.59168(13) 0.09168(13) 0.65832(13)
Zr2_2 Zr 0.6250 0.06293(2) 0.6250
O8_5 O 0.57645(6) 0.03563(6) 0.62457(6)
C25_9 C 0.54635(8) 0.04634(8) 0.62169(12)
C26_9 C 0.51990(8) 0.01990(8) 0.61723(13)
O10_5 O 0.53563(6) 0.07645(6) 0.62457(6)
C43_9 C 0.48651(11) 0.02946(11) 0.61450(14)
H19_9 H 0.4804 0.0524 0.6165
C44_9 C 0.46207(12) 0.00507(13) 0.60879(19)
H20_9 H 0.4392 0.0116 0.6066
Zr5_2 Zr 0.6250 0.1250 0.68707(2)
Zr6_2 Zr 0.56293(2) 0.1250 0.6250
O17_9 O 0.67355(6) 0.03563(6) 0.62543(6)
O21_9 O 0.62457(6) 0.03563(6) 0.57645(6)
O24_5 O 0.65832(13) 0.09168(13) 0.59168(13)
O28_3 O 0.65392(12) 0.09608(12) 0.65392(12)
O30_3 O 0.59608(12) 0.09608(12) 0.59608(12)
Zr1_3 Zr 0.6250 0.6250 0.06293(2)
O1_5 O 0.62543(6) 0.67355(6) 0.03563(6)
O2_3 O 0.59168(13) 0.65832(13) 0.09168(13)
O3_5 O 0.59608(12) 0.59608(12) 0.09608(12)
C1_9 C 0.62831(12) 0.70365(8) 0.04634(8)
C2_9 C 0.63277(13) 0.73010(8) 0.01990(8)
O5_5 O 0.62543(6) 0.71437(6) 0.07645(6)
C19_9 C 0.63550(14) 0.76349(11) 0.02946(11)
H7_9 H 0.6335 0.7696 0.0524
C20_9 C 0.64121(19) 0.78793(12) 0.00507(13)
H8_9 H 0.6434 0.8108 0.0116
O13_5 O 0.57645(6) 0.62457(6) 0.03563(6)
C58_9 C 0.54634(8) 0.62169(12) 0.04635(8)
C59_9 C 0.51990(8) 0.61723(13) 0.01990(8)
O15_5 O 0.53563(6) 0.62457(6) 0.07645(6)
C70_9 C 0.48651(11) 0.61450(14) 0.02946(11)
H34_9 H 0.4804 0.6165 0.0524
C71_9 C 0.46207(12) 0.60879(19) 0.00507(13)
H35_9 H 0.4392 0.6066 0.0116
O16_3 O 0.65392(12) 0.65392(12) 0.09608(12)
Zr8_3 Zr 0.6250 0.68707(2) 0.1250
Zr9_3 Zr 0.56293(2) 0.6250 0.1250
Zr10_8 Zr 0.68707(2) 0.6250 0.1250
Zr11_6 Zr 0.6250 0.56293(2) 0.1250
O19_9 O 0.62457(6) 0.57645(6) 0.03563(6)
O22_9 O 0.67355(6) 0.62543(6) 0.03563(6)
O26_5 O 0.65832(13) 0.59168(13) 0.09168(13)
C3_9 C 0.63550(14) 0.72054(11) 0.98651(11)
H1_9 H 0.6335 0.6976 0.9804
C4_9 C 0.64121(19) 0.74493(13) 0.96207(12)
H2_9 H 0.6434 0.7384 0.9392
C5_9 C 0.6438(3) 0.77914(12) 0.97086(12)
C6_9 C 0.6510(3) 0.80462(12) 0.94538(12)
C7_9 C 0.6550(3) 0.82487(13) 0.92513(13)
C8_9 C 0.6585(3) 0.84968(11) 0.90032(11)
C9_9 C 0.6587(2) 0.84147(17) 0.86595(15)
H3_9 H 0.6589 0.8185 0.8595
C12_9 C 0.63550(14) 0.98651(11) 0.72054(11)
H4_9 H 0.6335 0.9804 0.6976
C13_9 C 0.64121(19) 0.96207(12) 0.74493(13)
H5_9 H 0.6434 0.9392 0.7384
C14_9 C 0.6438(3) 0.97086(12) 0.77914(12)
C15_9 C 0.6510(3) 0.94538(12) 0.80462(12)
C16_9 C 0.6550(3) 0.92513(13) 0.82487(13)
C17_9 C 0.6585(3) 0.90032(11) 0.84968(11)
C18_9 C 0.6587(2) 0.86595(15) 0.84147(17)
H6_9 H 0.6589 0.8595 0.8185
C21_9 C 0.6587(2) 0.88405(15) 0.90853(17)
H9_9 H 0.6589 0.8905 0.9315
C24_9 C 0.6587(2) 0.90853(17) 0.88405(15)
H12_9 H 0.6589 0.9315 0.8905
C27_9 C 0.52946(11) 0.98651(11) 0.61450(14)
H13_9 H 0.5524 0.9804 0.6165
C28_9 C 0.50507(13) 0.96207(12) 0.60879(19)
H14_9 H 0.5116 0.9392 0.6066
C29_9 C 0.47086(12) 0.97086(12) 0.6062(3)
C30_9 C 0.44538(12) 0.94538(12) 0.5990(3)
C31_9 C 0.42513(13) 0.92513(13) 0.5950(3)
C32_9 C 0.40032(11) 0.90032(11) 0.5915(3)
C33_9 C 0.40853(17) 0.86595(15) 0.5913(2)
H15_9 H 0.4315 0.8595 0.5911
O9_5 O 0.21437(6) 0.67355(6) 0.62457(6)
C34_9 C 0.20365(8) 0.70366(8) 0.62169(12)
C35_9 C 0.23010(8) 0.73010(8) 0.61723(13)
C36_9 C 0.26349(11) 0.72054(11) 0.61450(14)
H16_9 H 0.2696 0.6976 0.6165
C37_9 C 0.28793(12) 0.74493(13) 0.60879(19)
H17_9 H 0.3108 0.7384 0.6066
C38_9 C 0.27914(12) 0.77914(12) 0.6062(3)
C39_9 C 0.30462(12) 0.80462(12) 0.5990(3)
C40_9 C 0.32487(13) 0.82487(13) 0.5950(3)
C41_9 C 0.34968(11) 0.84968(11) 0.5915(3)
C42_9 C 0.38405(15) 0.84147(17) 0.5913(2)
H18_9 H 0.3905 0.8185 0.5911
C45_9 C 0.36595(15) 0.90853(17) 0.5913(2)
H21_9 H 0.3595 0.9315 0.5911
O11_5 O 0.17355(6) 0.71437(6) 0.62457(6)
C46_9 C 0.22054(11) 0.76349(11) 0.61450(14)
H22_9 H 0.1976 0.7696 0.6165
C47_9 C 0.24493(13) 0.78793(12) 0.60879(19)
H23_9 H 0.2384 0.8108 0.6066
C48_9 C 0.34147(17) 0.88405(15) 0.5913(2)
H24_9 H 0.3185 0.8905 0.5911
Zr3_2 Zr 0.18707(2) 0.6250 0.6250
O12_5 O 0.21437(6) 0.62457(6) 0.67355(6)
C49_9 C 0.20366(8) 0.62169(12) 0.70365(8)
C50_9 C 0.23010(8) 0.61723(13) 0.73010(8)
C51_9 C 0.26349(11) 0.61450(14) 0.72054(11)
H25_9 H 0.2696 0.6165 0.6976
C52_9 C 0.28793(12) 0.60879(19) 0.74493(13)
H26_9 H 0.3108 0.6066 0.7384
C53_9 C 0.27914(12) 0.6062(3) 0.77914(12)
C54_9 C 0.30462(12) 0.5990(3) 0.80462(12)
C55_9 C 0.32487(13) 0.5950(3) 0.82487(13)
C56_9 C 0.34968(11) 0.5915(3) 0.84968(11)
C57_9 C 0.38405(15) 0.5913(2) 0.84147(17)
H27_9 H 0.3905 0.5911 0.8185
C60_9 C 0.52946(11) 0.61450(14) 0.98651(11)
H28_9 H 0.5524 0.6165 0.9804
C61_9 C 0.50507(13) 0.60879(19) 0.96207(12)
H29_9 H 0.5116 0.6066 0.9392
C62_9 C 0.47086(12) 0.6062(3) 0.97086(12)
C63_9 C 0.44538(12) 0.5990(3) 0.94538(12)
C64_9 C 0.42513(13) 0.5950(3) 0.92513(13)
C65_9 C 0.40032(11) 0.5915(3) 0.90032(11)
C66_9 C 0.40853(17) 0.5913(2) 0.86595(15)
H30_9 H 0.4315 0.5911 0.8595
O14_5 O 0.17355(6) 0.62457(6) 0.71437(6)
C67_9 C 0.22054(11) 0.61450(14) 0.76349(11)
H31_9 H 0.1976 0.6165 0.7696
C68_9 C 0.24493(13) 0.60879(19) 0.78793(12)
H32_9 H 0.2384 0.6066 0.8108
C69_9 C 0.34147(17) 0.5913(2) 0.88405(15)
H33_9 H 0.3185 0.5911 0.8905
C72_9 C 0.36595(15) 0.5913(2) 0.90853(17)
H36_9 H 0.3595 0.5911 0.9315
Zr4_2 Zr 0.1250 0.6250 0.68707(2)
Zr7_2 Zr 0.1250 0.68707(2) 0.6250
O18_9 O 0.21437(6) 0.62543(6) 0.57645(6)
O20_9 O 0.21437(6) 0.57645(6) 0.62543(6)
O23_2 O 0.15832(13) 0.65832(13) 0.65832(13)
O25_5 O 0.15832(13) 0.59168(13) 0.59168(13)
O27_5 O 0.15392(12) 0.59608(12) 0.65392(12)
O29_3 O 0.15392(12) 0.65392(12) 0.59608(12)
O9_6 O 0.03563(6) 0.57645(6) 0.62457(6)
C34_10 C 0.04635(8) 0.54634(8) 0.62169(12)
C35_10 C 0.01990(8) 0.51990(8) 0.61723(13)
O11_6 O 0.07645(6) 0.53563(6) 0.62457(6)
C46_10 C 0.02946(11) 0.48651(11) 0.61450(14)
H22_10 H 0.0524 0.4804 0.6165
C47_10 C 0.00507(13) 0.46207(12) 0.60879(19)
H23_10 H 0.0116 0.4392 0.6066
Zr3_3 Zr 0.06293(2) 0.6250 0.6250
O12_6 O 0.03563(6) 0.62543(6) 0.67355(6)
C49_10 C 0.04634(8) 0.62831(12) 0.70365(8)
C50_10 C 0.01990(8) 0.63277(13) 0.73010(8)
O14_6 O 0.07645(6) 0.62543(6) 0.71437(6)
C67_10 C 0.02946(11) 0.63550(14) 0.76349(11)
H31_10 H 0.0524 0.6335 0.7696
C68_10 C 0.00507(13) 0.64121(19) 0.78793(12)
H32_10 H 0.0116 0.6434 0.8108
Zr7_3 Zr 0.1250 0.56293(2) 0.6250
O18_10 O 0.03563(6) 0.62457(6) 0.57645(6)
O20_10 O 0.03563(6) 0.67355(6) 0.62543(6)
O23_3 O 0.09168(13) 0.59168(13) 0.65832(13)
O25_6 O 0.09168(13) 0.65832(13) 0.59168(13)
O27_6 O 0.09608(12) 0.65392(12) 0.65392(12)
O29_4 O 0.09608(12) 0.59608(12) 0.59608(12)
C1_10 C 0.62169(12) 0.54635(8) 0.04634(8)
C2_10 C 0.61723(13) 0.51990(8) 0.01990(8)
O5_6 O 0.62457(6) 0.53563(6) 0.07645(6)
C19_10 C 0.61450(14) 0.48651(11) 0.02946(11)
H7_10 H 0.6165 0.4804 0.0524
C20_10 C 0.60879(19) 0.46207(12) 0.00507(13)
H8_10 H 0.6066 0.4392 0.0116
C58_10 C 0.70366(8) 0.62831(12) 0.04635(8)
C59_10 C 0.73010(8) 0.63277(13) 0.01990(8)
O15_6 O 0.71437(6) 0.62543(6) 0.07645(6)
C70_10 C 0.76349(11) 0.63550(14) 0.02946(11)
H34_10 H 0.7696 0.6335 0.0524
C71_10 C 0.78793(12) 0.64121(19) 0.00507(13)
H35_10 H 0.8108 0.6434 0.0116
C3_10 C 0.61450(14) 0.52946(11) 0.98651(11)
H1_10 H 0.6165 0.5524 0.9804
C4_10 C 0.60879(19) 0.50507(13) 0.96207(12)
H2_10 H 0.6066 0.5116 0.9392
C5_10 C 0.6062(3) 0.47086(12) 0.97086(12)
C6_10 C 0.5990(3) 0.44538(12) 0.94538(12)
C7_10 C 0.5950(3) 0.42513(13) 0.92513(13)
C8_10 C 0.5915(3) 0.40032(11) 0.90032(11)
C9_10 C 0.5913(2) 0.40853(17) 0.86595(15)
H3_10 H 0.5911 0.4315 0.8595
O4_6 O 0.62457(6) 0.21437(6) 0.67355(6)
C10_10 C 0.62169(12) 0.20365(8) 0.70366(8)
C11_10 C 0.61723(13) 0.23010(8) 0.73010(8)
C12_10 C 0.61450(14) 0.26349(11) 0.72054(11)
H4_10 H 0.6165 0.2696 0.6976
C13_10 C 0.60879(19) 0.28793(12) 0.74493(13)
H5_10 H 0.6066 0.3108 0.7384
C14_10 C 0.6062(3) 0.27914(12) 0.77914(12)
C15_10 C 0.5990(3) 0.30462(12) 0.80462(12)
C16_10 C 0.5950(3) 0.32487(13) 0.82487(13)
C17_10 C 0.5915(3) 0.34968(11) 0.84968(11)
C18_10 C 0.5913(2) 0.38405(15) 0.84147(17)
H6_10 H 0.5911 0.3905 0.8185
C21_10 C 0.5913(2) 0.36595(15) 0.90853(17)
H9_10 H 0.5911 0.3595 0.9315
O6_6 O 0.62457(6) 0.17355(6) 0.71437(6)
C22_10 C 0.61450(14) 0.22054(11) 0.76349(11)
H10_10 H 0.6165 0.1976 0.7696
C23_10 C 0.60879(19) 0.24493(13) 0.78793(12)
H11_10 H 0.6066 0.2384 0.8108
C24_10 C 0.5913(2) 0.34147(17) 0.88405(15)
H12_10 H 0.5911 0.3185 0.8905
O7_3 O 0.65832(13) 0.15832(13) 0.65832(13)
Zr2_3 Zr 0.6250 0.18707(2) 0.6250
O8_6 O 0.67355(6) 0.21437(6) 0.62457(6)
C25_10 C 0.70365(8) 0.20366(8) 0.62169(12)
C26_10 C 0.73010(8) 0.23010(8) 0.61723(13)
C27_10 C 0.72054(11) 0.26349(11) 0.61450(14)
H13_10 H 0.6976 0.2696 0.6165
C28_10 C 0.74493(13) 0.28793(12) 0.60879(19)
H14_10 H 0.7384 0.3108 0.6066
C29_10 C 0.77914(12) 0.27914(12) 0.6062(3)
C30_10 C 0.80462(12) 0.30462(12) 0.5990(3)
C31_10 C 0.82487(13) 0.32487(13) 0.5950(3)
C32_10 C 0.84968(11) 0.34968(11) 0.5915(3)
C33_10 C 0.84147(17) 0.38405(15) 0.5913(2)
H15_10 H 0.8185 0.3905 0.5911
C36_10 C 0.98651(11) 0.52946(11) 0.61450(14)
H16_10 H 0.9804 0.5524 0.6165
C37_10 C 0.96207(12) 0.50507(13) 0.60879(19)
H17_10 H 0.9392 0.5116 0.6066
C38_10 C 0.97086(12) 0.47086(12) 0.6062(3)
C39_10 C 0.94538(12) 0.44538(12) 0.5990(3)
C40_10 C 0.92513(13) 0.42513(13) 0.5950(3)
C41_10 C 0.90032(11) 0.40032(11) 0.5915(3)
C42_10 C 0.86595(15) 0.40853(17) 0.5913(2)
H18_10 H 0.8595 0.4315 0.5911
O10_6 O 0.71437(6) 0.17355(6) 0.62457(6)
C43_10 C 0.76349(11) 0.22054(11) 0.61450(14)
H19_10 H 0.7696 0.1976 0.6165
C44_10 C 0.78793(12) 0.24493(13) 0.60879(19)
H20_10 H 0.8108 0.2384 0.6066
C45_10 C 0.88405(15) 0.34147(17) 0.5913(2)
H21_10 H 0.8905 0.3185 0.5911
C48_10 C 0.90853(17) 0.36595(15) 0.5913(2)
H24_10 H 0.9315 0.3595 0.5911
C51_10 C 0.98651(11) 0.63550(14) 0.72054(11)
H25_10 H 0.9804 0.6335 0.6976
C52_10 C 0.96207(12) 0.64121(19) 0.74493(13)
H26_10 H 0.9392 0.6434 0.7384
C53_10 C 0.97086(12) 0.6438(3) 0.77914(12)
C54_10 C 0.94538(12) 0.6510(3) 0.80462(12)
C55_10 C 0.92513(13) 0.6550(3) 0.82487(13)
C56_10 C 0.90032(11) 0.6585(3) 0.84968(11)
C57_10 C 0.86595(15) 0.6587(2) 0.84147(17)
H27_10 H 0.8595 0.6589 0.8185
C60_10 C 0.72054(11) 0.63550(14) 0.98651(11)
H28_10 H 0.6976 0.6335 0.9804
C61_10 C 0.74493(13) 0.64121(19) 0.96207(12)
H29_10 H 0.7384 0.6434 0.9392
C62_10 C 0.77914(12) 0.6438(3) 0.97086(12)
C63_10 C 0.80462(12) 0.6510(3) 0.94538(12)
C64_10 C 0.82487(13) 0.6550(3) 0.92513(13)
C65_10 C 0.84968(11) 0.6585(3) 0.90032(11)
C66_10 C 0.84147(17) 0.6587(2) 0.86595(15)
H30_10 H 0.8185 0.6589 0.8595
C69_10 C 0.90853(17) 0.6587(2) 0.88405(15)
H33_10 H 0.9315 0.6589 0.8905
C72_10 C 0.88405(15) 0.6587(2) 0.90853(17)
H36_10 H 0.8905 0.6589 0.9315
Zr6_3 Zr 0.68707(2) 0.1250 0.6250
O17_10 O 0.57645(6) 0.21437(6) 0.62543(6)
O21_10 O 0.62543(6) 0.21437(6) 0.57645(6)
O24_6 O 0.59168(13) 0.15832(13) 0.59168(13)
O28_4 O 0.59608(12) 0.15392(12) 0.65392(12)
O30_4 O 0.65392(12) 0.15392(12) 0.59608(12)
Zr10_9 Zr 0.6250 0.1250 0.56293(2)
C10_11 C 0.04635(8) 0.70366(8) 0.62831(12)
C11_11 C 0.01990(8) 0.73010(8) 0.63277(13)
O6_7 O 0.07645(6) 0.71437(6) 0.62543(6)
C22_11 C 0.02946(11) 0.76349(11) 0.63550(14)
H10_11 H 0.0524 0.7696 0.6335
C23_11 C 0.00507(13) 0.78793(12) 0.64121(19)
H11_11 H 0.0116 0.8108 0.6434
C25_11 C 0.04634(8) 0.62169(12) 0.54635(8)
C26_11 C 0.01990(8) 0.61723(13) 0.51990(8)
O10_7 O 0.07645(6) 0.62457(6) 0.53563(6)
C43_11 C 0.02946(11) 0.61450(14) 0.48651(11)
H19_11 H 0.0524 0.6165 0.4804
C44_11 C 0.00507(13) 0.60879(19) 0.46207(12)
H20_11 H 0.0116 0.6066 0.4392
Zr6_4 Zr 0.1250 0.6250 0.56293(2)
C1_11 C 0.70365(8) 0.04634(8) 0.62831(12)
C2_11 C 0.73010(8) 0.01990(8) 0.63277(13)
O5_7 O 0.71437(6) 0.07645(6) 0.62543(6)
C19_11 C 0.76349(11) 0.02946(11) 0.63550(14)
H7_11 H 0.7696 0.0524 0.6335
C20_11 C 0.78793(12) 0.00507(13) 0.64121(19)
H8_11 H 0.8108 0.0116 0.6434
C58_11 C 0.62169(12) 0.04635(8) 0.54634(8)
C59_11 C 0.61723(13) 0.01990(8) 0.51990(8)
O15_7 O 0.62457(6) 0.07645(6) 0.53563(6)
C70_11 C 0.61450(14) 0.02946(11) 0.48651(11)
H34_11 H 0.6165 0.0524 0.4804
C71_11 C 0.60879(19) 0.00507(13) 0.46207(12)
H35_11 H 0.6066 0.0116 0.4392
C3_11 C 0.72054(11) 0.98651(11) 0.63550(14)
H1_11 H 0.6976 0.9804 0.6335
C4_11 C 0.74493(13) 0.96207(12) 0.64121(19)
H2_11 H 0.7384 0.9392 0.6434
C5_11 C 0.77914(12) 0.97086(12) 0.6438(3)
C6_11 C 0.80462(12) 0.94538(12) 0.6510(3)
C7_11 C 0.82487(13) 0.92513(13) 0.6550(3)
C8_11 C 0.84968(11) 0.90032(11) 0.6585(3)
C9_11 C 0.84147(17) 0.86595(15) 0.6587(2)
H3_11 H 0.8185 0.8595 0.6589
C12_11 C 0.98651(11) 0.72054(11) 0.63550(14)
H4_11 H 0.9804 0.6976 0.6335
C13_11 C 0.96207(12) 0.74493(13) 0.64121(19)
H5_11 H 0.9392 0.7384 0.6434
C14_11 C 0.97086(12) 0.77914(12) 0.6438(3)
C15_11 C 0.94538(12) 0.80462(12) 0.6510(3)
C16_11 C 0.92513(13) 0.82487(13) 0.6550(3)
C17_11 C 0.90032(11) 0.84968(11) 0.6585(3)
C18_11 C 0.86595(15) 0.84147(17) 0.6587(2)
H6_11 H 0.8595 0.8185 0.6589
C21_11 C 0.88405(15) 0.90853(17) 0.6587(2)
H9_11 H 0.8905 0.9315 0.6589
C24_11 C 0.90853(17) 0.88405(15) 0.6587(2)
H12_11 H 0.9315 0.8905 0.6589
C27_11 C 0.98651(11) 0.61450(14) 0.52946(11)
H13_11 H 0.9804 0.6165 0.5524
C28_11 C 0.96207(12) 0.60879(19) 0.50507(13)
H14_11 H 0.9392 0.6066 0.5116
C29_11 C 0.97086(12) 0.6062(3) 0.47086(12)
C30_11 C 0.94538(12) 0.5990(3) 0.44538(12)
C31_11 C 0.92513(13) 0.5950(3) 0.42513(13)
C32_11 C 0.90032(11) 0.5915(3) 0.40032(11)
C33_11 C 0.86595(15) 0.5913(2) 0.40853(17)
H15_11 H 0.8595 0.5911 0.4315
O9_7 O 0.67355(6) 0.62457(6) 0.21437(6)
C34_11 C 0.70366(8) 0.62169(12) 0.20365(8)
C35_11 C 0.73010(8) 0.61723(13) 0.23010(8)
C36_11 C 0.72054(11) 0.61450(14) 0.26349(11)
H16_11 H 0.6976 0.6165 0.2696
C37_11 C 0.74493(13) 0.60879(19) 0.28793(12)
H17_11 H 0.7384 0.6066 0.3108
C38_11 C 0.77914(12) 0.6062(3) 0.27914(12)
C39_11 C 0.80462(12) 0.5990(3) 0.30462(12)
C40_11 C 0.82487(13) 0.5950(3) 0.32487(13)
C41_11 C 0.84968(11) 0.5915(3) 0.34968(11)
C42_11 C 0.84147(17) 0.5913(2) 0.38405(15)
H18_11 H 0.8185 0.5911 0.3905
C45_11 C 0.90853(17) 0.5913(2) 0.36595(15)
H21_11 H 0.9315 0.5911 0.3595
O11_7 O 0.71437(6) 0.62457(6) 0.17355(6)
C46_11 C 0.76349(11) 0.61450(14) 0.22054(11)
H22_11 H 0.7696 0.6165 0.1976
C47_11 C 0.78793(12) 0.60879(19) 0.24493(13)
H23_11 H 0.8108 0.6066 0.2384
C48_11 C 0.88405(15) 0.5913(2) 0.34147(17)
H24_11 H 0.8905 0.5911 0.3185
Zr3_4 Zr 0.6250 0.6250 0.18707(2)
O12_7 O 0.62457(6) 0.67355(6) 0.21437(6)
C49_11 C 0.62169(12) 0.70365(8) 0.20366(8)
C50_11 C 0.61723(13) 0.73010(8) 0.23010(8)
C51_11 C 0.61450(14) 0.72054(11) 0.26349(11)
H25_11 H 0.6165 0.6976 0.2696
C52_11 C 0.60879(19) 0.74493(13) 0.28793(12)
H26_11 H 0.6066 0.7384 0.3108
C53_11 C 0.6062(3) 0.77914(12) 0.27914(12)
C54_11 C 0.5990(3) 0.80462(12) 0.30462(12)
C55_11 C 0.5950(3) 0.82487(13) 0.32487(13)
C56_11 C 0.5915(3) 0.84968(11) 0.34968(11)
C57_11 C 0.5913(2) 0.84147(17) 0.38405(15)
H27_11 H 0.5911 0.8185 0.3905
C60_11 C 0.61450(14) 0.98651(11) 0.52946(11)
H28_11 H 0.6165 0.9804 0.5524
C61_11 C 0.60879(19) 0.96207(12) 0.50507(13)
H29_11 H 0.6066 0.9392 0.5116
C62_11 C 0.6062(3) 0.97086(12) 0.47086(12)
C63_11 C 0.5990(3) 0.94538(12) 0.44538(12)
C64_11 C 0.5950(3) 0.92513(13) 0.42513(13)
C65_11 C 0.5915(3) 0.90032(11) 0.40032(11)
C66_11 C 0.5913(2) 0.86595(15) 0.40853(17)
H30_11 H 0.5911 0.8595 0.4315
O14_7 O 0.62457(6) 0.71437(6) 0.17355(6)
C67_11 C 0.61450(14) 0.76349(11) 0.22054(11)
H31_11 H 0.6165 0.7696 0.1976
C68_11 C 0.60879(19) 0.78793(12) 0.24493(13)
H32_11 H 0.6066 0.8108 0.2384
C69_11 C 0.5913(2) 0.88405(15) 0.34147(17)
H33_11 H 0.5911 0.8905 0.3185
C72_11 C 0.5913(2) 0.90853(17) 0.36595(15)
H36_11 H 0.5911 0.9315 0.3595
O18_11 O 0.62543(6) 0.57645(6) 0.21437(6)
O20_11 O 0.57645(6) 0.62543(6) 0.21437(6)
O23_4 O 0.65832(13) 0.65832(13) 0.15832(13)
O25_7 O 0.59168(13) 0.59168(13) 0.15832(13)
O27_7 O 0.59608(12) 0.65392(12) 0.15392(12)
O29_5 O 0.65392(12) 0.59608(12) 0.15392(12)
C1_12 C 0.62831(12) 0.54635(8) 0.20366(8)
C2_12 C 0.63277(13) 0.51990(8) 0.23010(8)
C3_12 C 0.63550(14) 0.52946(11) 0.26349(11)
H1_12 H 0.6335 0.5524 0.2696
C4_12 C 0.64121(19) 0.50507(13) 0.28793(12)
H2_12 H 0.6434 0.5116 0.3108
C5_12 C 0.6438(3) 0.47086(12) 0.27914(12)
C6_12 C 0.6510(3) 0.44538(12) 0.30462(12)
C7_12 C 0.6550(3) 0.42513(13) 0.32487(13)
C8_12 C 0.6585(3) 0.40032(11) 0.34968(11)
C9_12 C 0.6587(2) 0.40853(17) 0.38405(15)
H3_12 H 0.6589 0.4315 0.3905
C10_12 C 0.62831(12) 0.20365(8) 0.54634(8)
C11_12 C 0.63277(13) 0.23010(8) 0.51990(8)
C12_12 C 0.63550(14) 0.26349(11) 0.52946(11)
H4_12 H 0.6335 0.2696 0.5524
C13_12 C 0.64121(19) 0.28793(12) 0.50507(13)
H5_12 H 0.6434 0.3108 0.5116
C14_12 C 0.6438(3) 0.27914(12) 0.47086(12)
C15_12 C 0.6510(3) 0.30462(12) 0.44538(12)
C16_12 C 0.6550(3) 0.32487(13) 0.42513(13)
C17_12 C 0.6585(3) 0.34968(11) 0.40032(11)
C18_12 C 0.6587(2) 0.38405(15) 0.40853(17)
H6_12 H 0.6589 0.3905 0.4315
O5_8 O 0.62543(6) 0.53563(6) 0.17355(6)
C19_12 C 0.63550(14) 0.48651(11) 0.22054(11)
H7_12 H 0.6335 0.4804 0.1976
C20_12 C 0.64121(19) 0.46207(12) 0.24493(13)
H8_12 H 0.6434 0.4392 0.2384
C21_12 C 0.6587(2) 0.36595(15) 0.34147(17)
H9_12 H 0.6589 0.3595 0.3185
O6_8 O 0.62543(6) 0.17355(6) 0.53563(6)
C22_12 C 0.63550(14) 0.22054(11) 0.48651(11)
H10_12 H 0.6335 0.1976 0.4804
C23_12 C 0.64121(19) 0.24493(13) 0.46207(12)
H11_12 H 0.6434 0.2384 0.4392
C24_12 C 0.6587(2) 0.34147(17) 0.36595(15)
H12_12 H 0.6589 0.3185 0.3595
C25_12 C 0.54635(8) 0.20366(8) 0.62831(12)
C26_12 C 0.51990(8) 0.23010(8) 0.63277(13)
C27_12 C 0.52946(11) 0.26349(11) 0.63550(14)
H13_12 H 0.5524 0.2696 0.6335
C28_12 C 0.50507(13) 0.28793(12) 0.64121(19)
H14_12 H 0.5116 0.3108 0.6434
C29_12 C 0.47086(12) 0.27914(12) 0.6438(3)
C30_12 C 0.44538(12) 0.30462(12) 0.6510(3)
C31_12 C 0.42513(13) 0.32487(13) 0.6550(3)
C32_12 C 0.40032(11) 0.34968(11) 0.6585(3)
C33_12 C 0.40853(17) 0.38405(15) 0.6587(2)
H15_12 H 0.4315 0.3905 0.6589
C34_12 C 0.20365(8) 0.54634(8) 0.62831(12)
C35_12 C 0.23010(8) 0.51990(8) 0.63277(13)
C36_12 C 0.26349(11) 0.52946(11) 0.63550(14)
H16_12 H 0.2696 0.5524 0.6335
C37_12 C 0.28793(12) 0.50507(13) 0.64121(19)
H17_12 H 0.3108 0.5116 0.6434
C38_12 C 0.27914(12) 0.47086(12) 0.6438(3)
C39_12 C 0.30462(12) 0.44538(12) 0.6510(3)
C40_12 C 0.32487(13) 0.42513(13) 0.6550(3)
C41_12 C 0.34968(11) 0.40032(11) 0.6585(3)
C42_12 C 0.38405(15) 0.40853(17) 0.6587(2)
H18_12 H 0.3905 0.4315 0.6589
O10_8 O 0.53563(6) 0.17355(6) 0.62543(6)
C43_12 C 0.48651(11) 0.22054(11) 0.63550(14)
H19_12 H 0.4804 0.1976 0.6335
C44_12 C 0.46207(12) 0.24493(13) 0.64121(19)
H20_12 H 0.4392 0.2384 0.6434
C45_12 C 0.36595(15) 0.34147(17) 0.6587(2)
H21_12 H 0.3595 0.3185 0.6589
O11_8 O 0.17355(6) 0.53563(6) 0.62543(6)
C46_12 C 0.22054(11) 0.48651(11) 0.63550(14)
H22_12 H 0.1976 0.4804 0.6335
C47_12 C 0.24493(13) 0.46207(12) 0.64121(19)
H23_12 H 0.2384 0.4392 0.6434
C48_12 C 0.34147(17) 0.36595(15) 0.6587(2)
H24_12 H 0.3185 0.3595 0.6589
C49_12 C 0.20366(8) 0.62831(12) 0.54635(8)
C50_12 C 0.23010(8) 0.63277(13) 0.51990(8)
C51_12 C 0.26349(11) 0.63550(14) 0.52946(11)
H25_12 H 0.2696 0.6335 0.5524
C52_12 C 0.28793(12) 0.64121(19) 0.50507(13)
H26_12 H 0.3108 0.6434 0.5116
C53_12 C 0.27914(12) 0.6438(3) 0.47086(12)
C54_12 C 0.30462(12) 0.6510(3) 0.44538(12)
C55_12 C 0.32487(13) 0.6550(3) 0.42513(13)
C56_12 C 0.34968(11) 0.6585(3) 0.40032(11)
C57_12 C 0.38405(15) 0.6587(2) 0.40853(17)
H27_12 H 0.3905 0.6589 0.4315
C58_12 C 0.54634(8) 0.62831(12) 0.20365(8)
C59_12 C 0.51990(8) 0.63277(13) 0.23010(8)
C60_12 C 0.52946(11) 0.63550(14) 0.26349(11)
H28_12 H 0.5524 0.6335 0.2696
C61_12 C 0.50507(13) 0.64121(19) 0.28793(12)
H29_12 H 0.5116 0.6434 0.3108
C62_12 C 0.47086(12) 0.6438(3) 0.27914(12)
C63_12 C 0.44538(12) 0.6510(3) 0.30462(12)
C64_12 C 0.42513(13) 0.6550(3) 0.32487(13)
C65_12 C 0.40032(11) 0.6585(3) 0.34968(11)
C66_12 C 0.40853(17) 0.6587(2) 0.38405(15)
H30_12 H 0.4315 0.6589 0.3905
O14_8 O 0.17355(6) 0.62543(6) 0.53563(6)
C67_12 C 0.22054(11) 0.63550(14) 0.48651(11)
H31_12 H 0.1976 0.6335 0.4804
C68_12 C 0.24493(13) 0.64121(19) 0.46207(12)
H32_12 H 0.2384 0.6434 0.4392
C69_12 C 0.34147(17) 0.6587(2) 0.36595(15)
H33_12 H 0.3185 0.6589 0.3595
O15_8 O 0.53563(6) 0.62543(6) 0.17355(6)
C70_12 C 0.48651(11) 0.63550(14) 0.22054(11)
H34_12 H 0.4804 0.6335 0.1976
C71_12 C 0.46207(12) 0.64121(19) 0.24493(13)
H35_12 H 0.4392 0.6434 0.2384
C72_12 C 0.36595(15) 0.6587(2) 0.34147(17)
H36_12 H 0.3595 0.6589 0.3185
O8_7 O 0.57645(6) 0.53563(6) 0.12457(6)
C25_13 C 0.54635(8) 0.54634(8) 0.12169(12)
C26_13 C 0.51990(8) 0.51990(8) 0.11723(13)
C27_13 C 0.52946(11) 0.48651(11) 0.11450(14)
H13_13 H 0.5524 0.4804 0.1165
C28_13 C 0.50507(13) 0.46207(12) 0.10879(19)
H14_13 H 0.5116 0.4392 0.1066
C29_13 C 0.47086(12) 0.47086(12) 0.1062(3)
C30_13 C 0.44538(12) 0.44538(12) 0.0990(3)
C31_13 C 0.42513(13) 0.42513(13) 0.0950(3)
C32_13 C 0.40032(11) 0.40032(11) 0.0915(3)
C33_13 C 0.40853(17) 0.36595(15) 0.0913(2)
H15_13 H 0.4315 0.3595 0.0911
O9_8 O 0.21437(6) 0.17355(6) 0.12457(6)
C34_13 C 0.20365(8) 0.20366(8) 0.12169(12)
C35_13 C 0.23010(8) 0.23010(8) 0.11723(13)
C36_13 C 0.26349(11) 0.22054(11) 0.11450(14)
H16_13 H 0.2696 0.1976 0.1165
C37_13 C 0.28793(12) 0.24493(13) 0.10879(19)
H17_13 H 0.3108 0.2384 0.1066
C38_13 C 0.27914(12) 0.27914(12) 0.1062(3)
C39_13 C 0.30462(12) 0.30462(12) 0.0990(3)
C40_13 C 0.32487(13) 0.32487(13) 0.0950(3)
C41_13 C 0.34968(11) 0.34968(11) 0.0915(3)
C42_13 C 0.38405(15) 0.34147(17) 0.0913(2)
H18_13 H 0.3905 0.3185 0.0911
O10_9 O 0.53563(6) 0.57645(6) 0.12457(6)
C43_13 C 0.48651(11) 0.52946(11) 0.11450(14)
H19_13 H 0.4804 0.5524 0.1165
C44_13 C 0.46207(12) 0.50507(13) 0.10879(19)
H20_13 H 0.4392 0.5116 0.1066
C45_13 C 0.36595(15) 0.40853(17) 0.0913(2)
H21_13 H 0.3595 0.4315 0.0911
O11_9 O 0.17355(6) 0.21437(6) 0.12457(6)
C46_13 C 0.22054(11) 0.26349(11) 0.11450(14)
H22_13 H 0.1976 0.2696 0.1165
C47_13 C 0.24493(13) 0.28793(12) 0.10879(19)
H23_13 H 0.2384 0.3108 0.1066
C48_13 C 0.34147(17) 0.38405(15) 0.0913(2)
H24_13 H 0.3185 0.3905 0.0911
Zr3_5 Zr 0.18707(2) 0.1250 0.1250
O12_8 O 0.21437(6) 0.12457(6) 0.17355(6)
C49_13 C 0.20366(8) 0.12169(12) 0.20365(8)
C50_13 C 0.23010(8) 0.11723(13) 0.23010(8)
C51_13 C 0.26349(11) 0.11450(14) 0.22054(11)
H25_13 H 0.2696 0.1165 0.1976
C52_13 C 0.28793(12) 0.10879(19) 0.24493(13)
H26_13 H 0.3108 0.1066 0.2384
C53_13 C 0.27914(12) 0.1062(3) 0.27914(12)
C54_13 C 0.30462(12) 0.0990(3) 0.30462(12)
C55_13 C 0.32487(13) 0.0950(3) 0.32487(13)
C56_13 C 0.34968(11) 0.0915(3) 0.34968(11)
C57_13 C 0.38405(15) 0.0913(2) 0.34147(17)
H27_13 H 0.3905 0.0911 0.3185
O13_6 O 0.57645(6) 0.12457(6) 0.53563(6)
C58_13 C 0.54634(8) 0.12169(12) 0.54635(8)
C59_13 C 0.51990(8) 0.11723(13) 0.51990(8)
C60_13 C 0.52946(11) 0.11450(14) 0.48651(11)
H28_13 H 0.5524 0.1165 0.4804
C61_13 C 0.50507(13) 0.10879(19) 0.46207(12)
H29_13 H 0.5116 0.1066 0.4392
C62_13 C 0.47086(12) 0.1062(3) 0.47086(12)
C63_13 C 0.44538(12) 0.0990(3) 0.44538(12)
C64_13 C 0.42513(13) 0.0950(3) 0.42513(13)
C65_13 C 0.40032(11) 0.0915(3) 0.40032(11)
C66_13 C 0.40853(17) 0.0913(2) 0.36595(15)
H30_13 H 0.4315 0.0911 0.3595
O14_9 O 0.17355(6) 0.12457(6) 0.21437(6)
C67_13 C 0.22054(11) 0.11450(14) 0.26349(11)
H31_13 H 0.1976 0.1165 0.2696
C68_13 C 0.24493(13) 0.10879(19) 0.28793(12)
H32_13 H 0.2384 0.1066 0.3108
C69_13 C 0.34147(17) 0.0913(2) 0.38405(15)
H33_13 H 0.3185 0.0911 0.3905
O15_9 O 0.53563(6) 0.12457(6) 0.57645(6)
C70_13 C 0.48651(11) 0.11450(14) 0.52946(11)
H34_13 H 0.4804 0.1165 0.5524
C71_13 C 0.46207(12) 0.10879(19) 0.50507(13)
H35_13 H 0.4392 0.1066 0.5116
C72_13 C 0.36595(15) 0.0913(2) 0.40853(17)
H36_13 H 0.3595 0.0911 0.4315
Zr4_3 Zr 0.1250 0.1250 0.18707(2)
Zr7_4 Zr 0.1250 0.18707(2) 0.1250
O17_11 O 0.67355(6) 0.53563(6) 0.12543(6)
O18_12 O 0.21437(6) 0.12543(6) 0.07645(6)
O20_12 O 0.21437(6) 0.07645(6) 0.12543(6)
O22_10 O 0.67355(6) 0.12543(6) 0.53563(6)
O23_5 O 0.15832(13) 0.15832(13) 0.15832(13)
O25_8 O 0.15832(13) 0.09168(13) 0.09168(13)
O27_8 O 0.15392(12) 0.09608(12) 0.15392(12)
O29_6 O 0.15392(12) 0.15392(12) 0.09608(12)
O9_9 O 0.03563(6) 0.07645(6) 0.12457(6)
C34_14 C 0.04635(8) 0.04634(8) 0.12169(12)
C35_14 C 0.01990(8) 0.01990(8) 0.11723(13)
O11_10 O 0.07645(6) 0.03563(6) 0.12457(6)
Zr3_6 Zr 0.06293(2) 0.1250 0.1250
O12_9 O 0.03563(6) 0.12543(6) 0.17355(6)
C49_14 C 0.04634(8) 0.12831(12) 0.20365(8)
C50_14 C 0.01990(8) 0.13277(13) 0.23010(8)
O14_10 O 0.07645(6) 0.12543(6) 0.21437(6)
C67_14 C 0.02946(11) 0.13550(14) 0.26349(11)
H31_14 H 0.0524 0.1335 0.2696
C68_14 C 0.00507(13) 0.14121(19) 0.28793(12)
H32_14 H 0.0116 0.1434 0.3108
Zr7_5 Zr 0.1250 0.06293(2) 0.1250
O18_13 O 0.03563(6) 0.12457(6) 0.07645(6)
O20_13 O 0.03563(6) 0.17355(6) 0.12543(6)
O23_6 O 0.09168(13) 0.09168(13) 0.15832(13)
O25_9 O 0.09168(13) 0.15832(13) 0.09168(13)
O27_9 O 0.09608(12) 0.15392(12) 0.15392(12)
O29_7 O 0.09608(12) 0.09608(12) 0.09608(12)
C46_14 C 0.02946(11) 0.98651(11) 0.11450(14)
H22_14 H 0.0524 0.9804 0.1165
C47_14 C 0.00507(13) 0.96207(12) 0.10879(19)
H23_14 H 0.0116 0.9392 0.1066
C36_14 C 0.98651(11) 0.02946(11) 0.11450(14)
H16_14 H 0.9804 0.0524 0.1165
C37_14 C 0.96207(12) 0.00507(13) 0.10879(19)
H17_14 H 0.9392 0.0116 0.1066
C51_14 C 0.98651(11) 0.13550(14) 0.22054(11)
H25_14 H 0.9804 0.1335 0.1976
C52_14 C 0.96207(12) 0.14121(19) 0.24493(13)
H26_14 H 0.9392 0.1434 0.2384
C53_14 C 0.97086(12) 0.1438(3) 0.27914(12)
C54_14 C 0.94538(12) 0.1510(3) 0.30462(12)
C55_14 C 0.92513(13) 0.1550(3) 0.32487(13)
C56_14 C 0.90032(11) 0.1585(3) 0.34968(11)
C57_14 C 0.86595(15) 0.1587(2) 0.34147(17)
H27_14 H 0.8595 0.1589 0.3185
C58_14 C 0.70366(8) 0.12831(12) 0.54635(8)
C59_14 C 0.73010(8) 0.13277(13) 0.51990(8)
C60_14 C 0.72054(11) 0.13550(14) 0.48651(11)
H28_14 H 0.6976 0.1335 0.4804
C61_14 C 0.74493(13) 0.14121(19) 0.46207(12)
H29_14 H 0.7384 0.1434 0.4392
C62_14 C 0.77914(12) 0.1438(3) 0.47086(12)
C63_14 C 0.80462(12) 0.1510(3) 0.44538(12)
C64_14 C 0.82487(13) 0.1550(3) 0.42513(13)
C65_14 C 0.84968(11) 0.1585(3) 0.40032(11)
C66_14 C 0.84147(17) 0.1587(2) 0.36595(15)
H30_14 H 0.8185 0.1589 0.3595
C69_14 C 0.90853(17) 0.1587(2) 0.38405(15)
H33_14 H 0.9315 0.1589 0.3905
O15_10 O 0.71437(6) 0.12543(6) 0.57645(6)
C70_14 C 0.76349(11) 0.13550(14) 0.52946(11)
H34_14 H 0.7696 0.1335 0.5524
C71_14 C 0.78793(12) 0.14121(19) 0.50507(13)
H35_14 H 0.8108 0.1434 0.5116
C72_14 C 0.88405(15) 0.1587(2) 0.40853(17)
H36_14 H 0.8905 0.1589 0.4315
O8_8 O 0.67355(6) 0.71437(6) 0.12457(6)
C25_14 C 0.70365(8) 0.70366(8) 0.12169(12)
C26_14 C 0.73010(8) 0.73010(8) 0.11723(13)
C27_14 C 0.72054(11) 0.76349(11) 0.11450(14)
H13_14 H 0.6976 0.7696 0.1165
C28_14 C 0.74493(13) 0.78793(12) 0.10879(19)
H14_14 H 0.7384 0.8108 0.1066
C29_14 C 0.77914(12) 0.77914(12) 0.1062(3)
C30_14 C 0.80462(12) 0.80462(12) 0.0990(3)
C31_14 C 0.82487(13) 0.82487(13) 0.0950(3)
C32_14 C 0.84968(11) 0.84968(11) 0.0915(3)
C33_14 C 0.84147(17) 0.88405(15) 0.0913(2)
H15_14 H 0.8185 0.8905 0.0911
C38_14 C 0.97086(12) 0.97086(12) 0.1062(3)
C39_14 C 0.94538(12) 0.94538(12) 0.0990(3)
C40_14 C 0.92513(13) 0.92513(13) 0.0950(3)
C41_14 C 0.90032(11) 0.90032(11) 0.0915(3)
C42_14 C 0.86595(15) 0.90853(17) 0.0913(2)
H18_14 H 0.8595 0.9315 0.0911
O10_10 O 0.71437(6) 0.67355(6) 0.12457(6)
C43_14 C 0.76349(11) 0.72054(11) 0.11450(14)
H19_14 H 0.7696 0.6976 0.1165
C44_14 C 0.78793(12) 0.74493(13) 0.10879(19)
H20_14 H 0.8108 0.7384 0.1066
C45_14 C 0.88405(15) 0.84147(17) 0.0913(2)
H21_14 H 0.8905 0.8185 0.0911
C48_14 C 0.90853(17) 0.86595(15) 0.0913(2)
H24_14 H 0.9315 0.8595 0.0911
O17_12 O 0.57645(6) 0.71437(6) 0.12543(6)
C10_13 C 0.04635(8) 0.20366(8) 0.12831(12)
C11_13 C 0.01990(8) 0.23010(8) 0.13277(13)
O6_9 O 0.07645(6) 0.21437(6) 0.12543(6)
C22_13 C 0.02946(11) 0.26349(11) 0.13550(14)
H10_13 H 0.0524 0.2696 0.1335
C23_13 C 0.00507(13) 0.28793(12) 0.14121(19)
H11_13 H 0.0116 0.3108 0.1434
C25_15 C 0.04634(8) 0.12169(12) 0.04635(8)
C26_15 C 0.01990(8) 0.11723(13) 0.01990(8)
O10_11 O 0.07645(6) 0.12457(6) 0.03563(6)
Zr6_5 Zr 0.1250 0.1250 0.06293(2)
C43_15 C 0.02946(11) 0.11450(14) 0.98651(11)
H19_15 H 0.0524 0.1165 0.9804
C44_15 C 0.00507(13) 0.10879(19) 0.96207(12)
H20_15 H 0.0116 0.1066 0.9392
C1_13 C 0.70365(8) 0.54634(8) 0.12831(12)
C2_13 C 0.73010(8) 0.51990(8) 0.13277(13)
C3_13 C 0.72054(11) 0.48651(11) 0.13550(14)
H1_13 H 0.6976 0.4804 0.1335
C4_13 C 0.74493(13) 0.46207(12) 0.14121(19)
H2_13 H 0.7384 0.4392 0.1434
C5_13 C 0.77914(12) 0.47086(12) 0.1438(3)
C6_13 C 0.80462(12) 0.44538(12) 0.1510(3)
C7_13 C 0.82487(13) 0.42513(13) 0.1550(3)
C8_13 C 0.84968(11) 0.40032(11) 0.1585(3)
C9_13 C 0.84147(17) 0.36595(15) 0.1587(2)
H3_13 H 0.8185 0.3595 0.1589
C12_13 C 0.98651(11) 0.22054(11) 0.13550(14)
H4_13 H 0.9804 0.1976 0.1335
C13_13 C 0.96207(12) 0.24493(13) 0.14121(19)
H5_13 H 0.9392 0.2384 0.1434
C14_13 C 0.97086(12) 0.27914(12) 0.1438(3)
C15_13 C 0.94538(12) 0.30462(12) 0.1510(3)
C16_13 C 0.92513(13) 0.32487(13) 0.1550(3)
C17_13 C 0.90032(11) 0.34968(11) 0.1585(3)
C18_13 C 0.86595(15) 0.34147(17) 0.1587(2)
H6_13 H 0.8595 0.3185 0.1589
O5_9 O 0.71437(6) 0.57645(6) 0.12543(6)
C19_13 C 0.76349(11) 0.52946(11) 0.13550(14)
H7_13 H 0.7696 0.5524 0.1335
C20_13 C 0.78793(12) 0.50507(13) 0.14121(19)
H8_13 H 0.8108 0.5116 0.1434
C21_13 C 0.88405(15) 0.40853(17) 0.1587(2)
H9_13 H 0.8905 0.4315 0.1589
C24_13 C 0.90853(17) 0.38405(15) 0.1587(2)
H12_13 H 0.9315 0.3905 0.1589
C27_15 C 0.98651(11) 0.11450(14) 0.02946(11)
H13_15 H 0.9804 0.1165 0.0524
C28_15 C 0.96207(12) 0.10879(19) 0.00507(13)
H14_15 H 0.9392 0.1066 0.0116
C29_15 C 0.97086(12) 0.1062(3) 0.97086(12)
C30_15 C 0.94538(12) 0.0990(3) 0.94538(12)
C31_15 C 0.92513(13) 0.0950(3) 0.92513(13)
C32_15 C 0.90032(11) 0.0915(3) 0.90032(11)
C33_15 C 0.86595(15) 0.0913(2) 0.90853(17)
H15_15 H 0.8595 0.0911 0.9315
O9_10 O 0.67355(6) 0.12457(6) 0.71437(6)
C34_15 C 0.70366(8) 0.12169(12) 0.70365(8)
C35_15 C 0.73010(8) 0.11723(13) 0.73010(8)
C36_15 C 0.72054(11) 0.11450(14) 0.76349(11)
H16_15 H 0.6976 0.1165 0.7696
C37_15 C 0.74493(13) 0.10879(19) 0.78793(12)
H17_15 H 0.7384 0.1066 0.8108
C38_15 C 0.77914(12) 0.1062(3) 0.77914(12)
C39_15 C 0.80462(12) 0.0990(3) 0.80462(12)
C40_15 C 0.82487(13) 0.0950(3) 0.82487(13)
C41_15 C 0.84968(11) 0.0915(3) 0.84968(11)
C42_15 C 0.84147(17) 0.0913(2) 0.88405(15)
H18_15 H 0.8185 0.0911 0.8905
C45_15 C 0.90853(17) 0.0913(2) 0.86595(15)
H21_15 H 0.9315 0.0911 0.8595
O11_11 O 0.71437(6) 0.12457(6) 0.67355(6)
C46_15 C 0.76349(11) 0.11450(14) 0.72054(11)
H22_15 H 0.7696 0.1165 0.6976
C47_15 C 0.78793(12) 0.10879(19) 0.74493(13)
H23_15 H 0.8108 0.1066 0.7384
C48_15 C 0.88405(15) 0.0913(2) 0.84147(17)
H24_15 H 0.8905 0.0911 0.8185
O20_14 O 0.57645(6) 0.12543(6) 0.71437(6)
C34_16 C 0.20365(8) 0.04634(8) 0.12831(12)
C35_16 C 0.23010(8) 0.01990(8) 0.13277(13)
C36_16 C 0.26349(11) 0.02946(11) 0.13550(14)
H16_16 H 0.2696 0.0524 0.1335
C37_16 C 0.28793(12) 0.00507(13) 0.14121(19)
H17_16 H 0.3108 0.0116 0.1434
O11_12 O 0.17355(6) 0.03563(6) 0.12543(6)
C49_15 C 0.20366(8) 0.12831(12) 0.04635(8)
C50_15 C 0.23010(8) 0.13277(13) 0.01990(8)
C51_15 C 0.26349(11) 0.13550(14) 0.02946(11)
H25_15 H 0.2696 0.1335 0.0524
C52_15 C 0.28793(12) 0.14121(19) 0.00507(13)
H26_15 H 0.3108 0.1434 0.0116
O14_11 O 0.17355(6) 0.12543(6) 0.03563(6)
C53_15 C 0.27914(12) 0.1438(3) 0.97086(12)
C54_15 C 0.30462(12) 0.1510(3) 0.94538(12)
C55_15 C 0.32487(13) 0.1550(3) 0.92513(13)
C56_15 C 0.34968(11) 0.1585(3) 0.90032(11)
C57_15 C 0.38405(15) 0.1587(2) 0.90853(17)
H27_15 H 0.3905 0.1589 0.9315
C58_15 C 0.54634(8) 0.12831(12) 0.70365(8)
C59_15 C 0.51990(8) 0.13277(13) 0.73010(8)
C60_15 C 0.52946(11) 0.13550(14) 0.76349(11)
H28_15 H 0.5524 0.1335 0.7696
C61_15 C 0.50507(13) 0.14121(19) 0.78793(12)
H29_15 H 0.5116 0.1434 0.8108
C62_15 C 0.47086(12) 0.1438(3) 0.77914(12)
C63_15 C 0.44538(12) 0.1510(3) 0.80462(12)
C64_15 C 0.42513(13) 0.1550(3) 0.82487(13)
C65_15 C 0.40032(11) 0.1585(3) 0.84968(11)
C66_15 C 0.40853(17) 0.1587(2) 0.88405(15)
H30_15 H 0.4315 0.1589 0.8905
C67_15 C 0.22054(11) 0.13550(14) 0.98651(11)
H31_15 H 0.1976 0.1335 0.9804
C68_15 C 0.24493(13) 0.14121(19) 0.96207(12)
H32_15 H 0.2384 0.1434 0.9392
C69_15 C 0.34147(17) 0.1587(2) 0.86595(15)
H33_15 H 0.3185 0.1589 0.8595
O15_11 O 0.53563(6) 0.12543(6) 0.67355(6)
C70_15 C 0.48651(11) 0.13550(14) 0.72054(11)
H34_15 H 0.4804 0.1335 0.6976
C71_15 C 0.46207(12) 0.14121(19) 0.74493(13)
H35_15 H 0.4392 0.1434 0.7384
C72_15 C 0.36595(15) 0.1587(2) 0.84147(17)
H36_15 H 0.3595 0.1589 0.8185
C25_16 C 0.54635(8) 0.70366(8) 0.12831(12)
C26_16 C 0.51990(8) 0.73010(8) 0.13277(13)
C27_16 C 0.52946(11) 0.76349(11) 0.13550(14)
H13_16 H 0.5524 0.7696 0.1335
C28_16 C 0.50507(13) 0.78793(12) 0.14121(19)
H14_16 H 0.5116 0.8108 0.1434
C29_16 C 0.47086(12) 0.77914(12) 0.1438(3)
C30_16 C 0.44538(12) 0.80462(12) 0.1510(3)
C31_16 C 0.42513(13) 0.82487(13) 0.1550(3)
C32_16 C 0.40032(11) 0.84968(11) 0.1585(3)
C33_16 C 0.40853(17) 0.88405(15) 0.1587(2)
H15_16 H 0.4315 0.8905 0.1589
C38_16 C 0.27914(12) 0.97086(12) 0.1438(3)
C39_16 C 0.30462(12) 0.94538(12) 0.1510(3)
C40_16 C 0.32487(13) 0.92513(13) 0.1550(3)
C41_16 C 0.34968(11) 0.90032(11) 0.1585(3)
C42_16 C 0.38405(15) 0.90853(17) 0.1587(2)
H18_16 H 0.3905 0.9315 0.1589
O10_12 O 0.53563(6) 0.67355(6) 0.12543(6)
C43_16 C 0.48651(11) 0.72054(11) 0.13550(14)
H19_16 H 0.4804 0.6976 0.1335
C44_16 C 0.46207(12) 0.74493(13) 0.14121(19)
H20_16 H 0.4392 0.7384 0.1434
C45_16 C 0.36595(15) 0.84147(17) 0.1587(2)
H21_16 H 0.3595 0.8185 0.1589
C46_16 C 0.22054(11) 0.98651(11) 0.13550(14)
H22_16 H 0.1976 0.9804 0.1335
C47_16 C 0.24493(13) 0.96207(12) 0.14121(19)
H23_16 H 0.2384 0.9392 0.1434
C48_16 C 0.34147(17) 0.86595(15) 0.1587(2)
H24_16 H 0.3185 0.8595 0.1589
O4_7 O 0.12543(6) 0.03563(6) 0.17355(6)
C10_14 C 0.12831(12) 0.04635(8) 0.20366(8)
C11_14 C 0.13277(13) 0.01990(8) 0.23010(8)
O6_10 O 0.12543(6) 0.07645(6) 0.21437(6)
C22_14 C 0.13550(14) 0.02946(11) 0.26349(11)
H10_14 H 0.1335 0.0524 0.2696
C23_14 C 0.14121(19) 0.00507(13) 0.28793(12)
H11_14 H 0.1434 0.0116 0.3108
O21_11 O 0.12457(6) 0.03563(6) 0.07645(6)
O1_6 O 0.12543(6) 0.67355(6) 0.53563(6)
C1_14 C 0.12831(12) 0.70365(8) 0.54634(8)
C2_14 C 0.13277(13) 0.73010(8) 0.51990(8)
C3_14 C 0.13550(14) 0.72054(11) 0.48651(11)
H1_14 H 0.1335 0.6976 0.4804
C4_14 C 0.14121(19) 0.74493(13) 0.46207(12)
H2_14 H 0.1434 0.7384 0.4392
C5_14 C 0.1438(3) 0.77914(12) 0.47086(12)
C6_14 C 0.1510(3) 0.80462(12) 0.44538(12)
C7_14 C 0.1550(3) 0.82487(13) 0.42513(13)
C8_14 C 0.1585(3) 0.84968(11) 0.40032(11)
C9_14 C 0.1587(2) 0.84147(17) 0.36595(15)
H3_14 H 0.1589 0.8185 0.3595
C12_14 C 0.13550(14) 0.98651(11) 0.22054(11)
H4_14 H 0.1335 0.9804 0.1976
C13_14 C 0.14121(19) 0.96207(12) 0.24493(13)
H5_14 H 0.1434 0.9392 0.2384
C14_14 C 0.1438(3) 0.97086(12) 0.27914(12)
C15_14 C 0.1510(3) 0.94538(12) 0.30462(12)
C16_14 C 0.1550(3) 0.92513(13) 0.32487(13)
C17_14 C 0.1585(3) 0.90032(11) 0.34968(11)
C18_14 C 0.1587(2) 0.86595(15) 0.34147(17)
H6_14 H 0.1589 0.8595 0.3185
O5_10 O 0.12543(6) 0.71437(6) 0.57645(6)
C19_14 C 0.13550(14) 0.76349(11) 0.52946(11)
H7_14 H 0.1335 0.7696 0.5524
C20_14 C 0.14121(19) 0.78793(12) 0.50507(13)
H8_14 H 0.1434 0.8108 0.5116
C21_14 C 0.1587(2) 0.88405(15) 0.40853(17)
H9_14 H 0.1589 0.8905 0.4315
C24_14 C 0.1587(2) 0.90853(17) 0.38405(15)
H12_14 H 0.1589 0.9315 0.3905
O19_10 O 0.12457(6) 0.57645(6) 0.53563(6)
C1_15 C 0.12169(12) 0.54635(8) 0.54634(8)
C2_15 C 0.11723(13) 0.51990(8) 0.51990(8)
C3_15 C 0.11450(14) 0.52946(11) 0.48651(11)
H1_15 H 0.1165 0.5524 0.4804
C4_15 C 0.10879(19) 0.50507(13) 0.46207(12)
H2_15 H 0.1066 0.5116 0.4392
C5_15 C 0.1062(3) 0.47086(12) 0.47086(12)
C6_15 C 0.0990(3) 0.44538(12) 0.44538(12)
C7_15 C 0.0950(3) 0.42513(13) 0.42513(13)
C8_15 C 0.0915(3) 0.40032(11) 0.40032(11)
C9_15 C 0.0913(2) 0.40853(17) 0.36595(15)
H3_15 H 0.0911 0.4315 0.3595
O4_8 O 0.12457(6) 0.21437(6) 0.17355(6)
C10_15 C 0.12169(12) 0.20365(8) 0.20366(8)
C11_15 C 0.11723(13) 0.23010(8) 0.23010(8)
C12_15 C 0.11450(14) 0.26349(11) 0.22054(11)
H4_15 H 0.1165 0.2696 0.1976
C13_15 C 0.10879(19) 0.28793(12) 0.24493(13)
H5_15 H 0.1066 0.3108 0.2384
C14_15 C 0.1062(3) 0.27914(12) 0.27914(12)
C15_15 C 0.0990(3) 0.30462(12) 0.30462(12)
C16_15 C 0.0950(3) 0.32487(13) 0.32487(13)
C17_15 C 0.0915(3) 0.34968(11) 0.34968(11)
C18_15 C 0.0913(2) 0.38405(15) 0.34147(17)
H6_15 H 0.0911 0.3905 0.3185
O5_11 O 0.12457(6) 0.53563(6) 0.57645(6)
C19_15 C 0.11450(14) 0.48651(11) 0.52946(11)
H7_15 H 0.1165 0.4804 0.5524
C20_15 C 0.10879(19) 0.46207(12) 0.50507(13)
H8_15 H 0.1066 0.4392 0.5116
C21_15 C 0.0913(2) 0.36595(15) 0.40853(17)
H9_15 H 0.0911 0.3595 0.4315
O6_11 O 0.12457(6) 0.17355(6) 0.21437(6)
C22_15 C 0.11450(14) 0.22054(11) 0.26349(11)
H10_15 H 0.1165 0.1976 0.2696
C23_15 C 0.10879(19) 0.24493(13) 0.28793(12)
H11_15 H 0.1066 0.2384 0.3108
C24_15 C 0.0913(2) 0.34147(17) 0.38405(15)
H12_15 H 0.0911 0.3185 0.3905
O21_12 O 0.12543(6) 0.21437(6) 0.07645(6)
C58_16 C 0.12169(12) 0.04635(8) 0.04634(8)
C59_16 C 0.11723(13) 0.01990(8) 0.01990(8)
O15_12 O 0.12457(6) 0.07645(6) 0.03563(6)
C70_16 C 0.11450(14) 0.02946(11) 0.98651(11)
H34_16 H 0.1165 0.0524 0.9804
C71_16 C 0.10879(19) 0.00507(13) 0.96207(12)
H35_16 H 0.1066 0.0116 0.9392
C60_16 C 0.11450(14) 0.98651(11) 0.02946(11)
H28_16 H 0.1165 0.9804 0.0524
C61_16 C 0.10879(19) 0.96207(12) 0.00507(13)
H29_16 H 0.1066 0.9392 0.0116
O12_10 O 0.12457(6) 0.67355(6) 0.71437(6)
C49_16 C 0.12169(12) 0.70365(8) 0.70366(8)
C50_16 C 0.11723(13) 0.73010(8) 0.73010(8)
C51_16 C 0.11450(14) 0.72054(11) 0.76349(11)
H25_16 H 0.1165 0.6976 0.7696
C52_16 C 0.10879(19) 0.74493(13) 0.78793(12)
H26_16 H 0.1066 0.7384 0.8108
C53_16 C 0.1062(3) 0.77914(12) 0.77914(12)
C54_16 C 0.0990(3) 0.80462(12) 0.80462(12)
C55_16 C 0.0950(3) 0.82487(13) 0.82487(13)
C56_16 C 0.0915(3) 0.84968(11) 0.84968(11)
C57_16 C 0.0913(2) 0.84147(17) 0.88405(15)
H27_16 H 0.0911 0.8185 0.8905
C62_16 C 0.1062(3) 0.97086(12) 0.97086(12)
C63_16 C 0.0990(3) 0.94538(12) 0.94538(12)
C64_16 C 0.0950(3) 0.92513(13) 0.92513(13)
C65_16 C 0.0915(3) 0.90032(11) 0.90032(11)
C66_16 C 0.0913(2) 0.86595(15) 0.90853(17)
H30_16 H 0.0911 0.8595 0.9315
O14_12 O 0.12457(6) 0.71437(6) 0.67355(6)
C67_16 C 0.11450(14) 0.76349(11) 0.72054(11)
H31_16 H 0.1165 0.7696 0.6976
C68_16 C 0.10879(19) 0.78793(12) 0.74493(13)
H32_16 H 0.1066 0.8108 0.7384
C69_16 C 0.0913(2) 0.88405(15) 0.84147(17)
H33_16 H 0.0911 0.8905 0.8185
C72_16 C 0.0913(2) 0.90853(17) 0.86595(15)
H36_16 H 0.0911 0.9315 0.8595
O18_14 O 0.12543(6) 0.57645(6) 0.71437(6)
C10_16 C 0.12831(12) 0.20365(8) 0.04634(8)
C11_16 C 0.13277(13) 0.23010(8) 0.01990(8)
C12_16 C 0.13550(14) 0.26349(11) 0.02946(11)
H4_16 H 0.1335 0.2696 0.0524
C13_16 C 0.14121(19) 0.28793(12) 0.00507(13)
H5_16 H 0.1434 0.3108 0.0116
O6_12 O 0.12543(6) 0.17355(6) 0.03563(6)
C1_16 C 0.12831(12) 0.54635(8) 0.70366(8)
C2_16 C 0.13277(13) 0.51990(8) 0.73010(8)
C3_16 C 0.13550(14) 0.52946(11) 0.76349(11)
H1_16 H 0.1335 0.5524 0.7696
C4_16 C 0.14121(19) 0.50507(13) 0.78793(12)
H2_16 H 0.1434 0.5116 0.8108
C5_16 C 0.1438(3) 0.47086(12) 0.77914(12)
C6_16 C 0.1510(3) 0.44538(12) 0.80462(12)
C7_16 C 0.1550(3) 0.42513(13) 0.82487(13)
C8_16 C 0.1585(3) 0.40032(11) 0.84968(11)
C9_16 C 0.1587(2) 0.40853(17) 0.88405(15)
H3_16 H 0.1589 0.4315 0.8905
C14_16 C 0.1438(3) 0.27914(12) 0.97086(12)
C15_16 C 0.1510(3) 0.30462(12) 0.94538(12)
C16_16 C 0.1550(3) 0.32487(13) 0.92513(13)
C17_16 C 0.1585(3) 0.34968(11) 0.90032(11)
C18_16 C 0.1587(2) 0.38405(15) 0.90853(17)
H6_16 H 0.1589 0.3905 0.9315
O5_12 O 0.12543(6) 0.53563(6) 0.67355(6)
C19_16 C 0.13550(14) 0.48651(11) 0.72054(11)
H7_16 H 0.1335 0.4804 0.6976
C20_16 C 0.14121(19) 0.46207(12) 0.74493(13)
H8_16 H 0.1434 0.4392 0.7384
C21_16 C 0.1587(2) 0.36595(15) 0.84147(17)
H9_16 H 0.1589 0.3595 0.8185
C22_16 C 0.13550(14) 0.22054(11) 0.98651(11)
H10_16 H 0.1335 0.1976 0.9804
C23_16 C 0.14121(19) 0.24493(13) 0.96207(12)
H11_16 H 0.1434 0.2384 0.9392
C24_16 C 0.1587(2) 0.34147(17) 0.86595(15)
H12_16 H 0.1589 0.3185 0.8595
loop_
_geom_bond_atom_site_label_1
_geom_bond_atom_site_label_2
_geom_bond_site_symmetry_1
_geom_bond_site_symmetry_2
Zr1 O1 1_555 1_555
O1 C1 1_555 1_555
O2 Zr1 1_555 1_555
O3 Zr1 1_555 1_555
C1 C2 1_555 1_555
C2 C3 1_555 1_555
C3 H1 1_555 1_555
C4 C3 1_555 1_555
H2 C4 1_555 1_555
C5 C4 1_555 1_555
C6 C5 1_555 1_555
C7 C6 1_555 1_555
C8 C7 1_555 1_555
C9 C8 1_555 1_555
H3 C9 1_555 1_555
O4 C10 1_555 1_555
C10 C11 1_555 1_555
C11 C12 1_555 1_555
C12 H4 1_555 1_555
C13 C12 1_555 1_555
H5 C13 1_555 1_555
C14 C13 1_555 1_555
C15 C14 1_555 1_555
C16 C15 1_555 1_555
C17 C16 1_555 1_555
C18 C9 1_555 1_555
H6 C18 1_555 1_555
O5 C1 1_555 1_555
C19 C2 1_555 1_555
H7 C19 1_555 1_555
C20 C5 1_555 1_555
H8 C20 1_555 1_555
C21 C8 1_555 1_555
H9 C21 1_555 1_555
O6 C10 1_555 1_555
C22 C11 1_555 1_555
H10 C22 1_555 1_555
C23 C14 1_555 1_555
H11 C23 1_555 1_555
C24 C17 1_555 1_555
H12 C24 1_555 1_555
O7 Zr2 1_555 1_555
Zr2 O4 1_555 1_555
O8 Zr2 1_555 1_555
C25 O8 1_555 1_555
C26 C25 1_555 1_555
C27 C26 1_555 1_555
H13 C27 1_555 1_555
C28 C27 1_555 1_555
H14 C28 1_555 1_555
C29 C28 1_555 1_555
C30 C29 1_555 1_555
C31 C30 1_555 1_555
C32 C31 1_555 1_555
C33 C32 1_555 1_555
H15 C33 1_555 1_555
O9 C34 1_555 1_555
C34 C35 1_555 1_555
C35 C36 1_555 1_555
C36 H16 1_555 1_555
C37 C36 1_555 1_555
H17 C37 1_555 1_555
C38 C37 1_555 1_555
C39 C38 1_555 1_555
C40 C39 1_555 1_555
C41 C40 1_555 1_555
C42 C33 1_555 1_555
H18 C42 1_555 1_555
O10 C25 1_555 1_555
C43 C26 1_555 1_555
H19 C43 1_555 1_555
C44 C29 1_555 1_555
H20 C44 1_555 1_555
C45 C32 1_555 1_555
H21 C45 1_555 1_555
O11 C34 1_555 1_555
C46 C35 1_555 1_555
H22 C46 1_555 1_555
C47 C38 1_555 1_555
H23 C47 1_555 1_555
C48 C41 1_555 1_555
H24 C48 1_555 1_555
Zr3 O9 1_555 1_555
O12 Zr3 1_555 1_555
C49 O12 1_555 1_555
C50 C49 1_555 1_555
C51 C50 1_555 1_555
H25 C51 1_555 1_555
C52 C51 1_555 1_555
H26 C52 1_555 1_555
C53 C52 1_555 1_555
C54 C53 1_555 1_555
C55 C54 1_555 1_555
C56 C55 1_555 1_555
C57 C56 1_555 1_555
H27 C57 1_555 1_555
O13 Zr1 1_555 1_555
C58 O13 1_555 1_555
C59 C58 1_555 1_555
C60 C59 1_555 1_555
H28 C60 1_555 1_555
C61 C60 1_555 1_555
H29 C61 1_555 1_555
C62 C61 1_555 1_555
C63 C62 1_555 1_555
C64 C63 1_555 1_555
C65 C64 1_555 1_555
C66 C57 1_555 1_555
H30 C66 1_555 1_555
O14 C49 1_555 1_555
C67 C50 1_555 1_555
H31 C67 1_555 1_555
C68 C53 1_555 1_555
H32 C68 1_555 1_555
C69 C56 1_555 1_555
H33 C69 1_555 1_555
O15 C58 1_555 1_555
C70 C59 1_555 1_555
H34 C70 1_555 1_555
C71 C62 1_555 1_555
H35 C71 1_555 1_555
C72 C65 1_555 1_555
H36 C72 1_555 1_555
O16 Zr1 1_555 1_555
Zr4 O14 1_555 1_555
Zr5 O6 1_555 1_555
Zr6 O7 1_555 1_555
Zr7 O11 1_555 1_555
Zr8 O2 1_555 1_555
Zr9 O2 1_555 1_555
Zr10 O16 1_555 1_555
Zr11 O3 1_555 1_555
O17 Zr2 1_555 1_555
O18 Zr3 1_555 1_555
O19 Zr1 1_555 1_555
O20 Zr3 1_555 1_555
O21 Zr2 1_555 1_555
O22 Zr1 1_555 1_555
O23 Zr3 1_555 1_555
O24 Zr2 1_555 1_555
O25 Zr3 1_555 1_555
O26 Zr1 1_555 1_555
O27 Zr3 1_555 1_555
O28 Zr2 1_555 1_555
O29 Zr3 1_555 1_555
O30 Zr2 1_555 1_555
O3 Zr9 1_555 1_555
C17 C18 1_555 1_555
O5 Zr8 1_555 1_555
C19 C20 1_555 1_555
C21 C24 1_555 1_555
C22 C23 1_555 1_555
O7 Zr5 1_555 1_555
C41 C42 1_555 1_555
O10 Zr6 1_555 1_555
C43 C44 1_555 1_555
C45 C48 1_555 1_555
C46 C47 1_555 1_555
C65 C66 1_555 1_555
C67 C68 1_555 1_555
C69 C72 1_555 1_555
O15 Zr9 1_555 1_555
C70 C71 1_555 1_555
O16 Zr8 1_555 1_555
Zr4 O23 1_555 1_555
Zr4 O27 1_555 1_555
Zr5 O28 1_555 1_555
Zr6 O30 1_555 1_555
Zr7 O23 1_555 1_555
Zr7 O29 1_555 1_555
Zr10 O26 1_555 1_555
Zr11 O26 1_555 1_555
Zr1_2 O1_2 1_555 1_555
O1_2 C1_2 1_555 1_555
O2_2 Zr1_2 1_555 1_555
O3_2 Zr1_2 1_555 1_555
C1_2 C2_2 1_555 1_555
C2_2 C3_2 1_555 1_555
C3_2 H1_2 1_555 1_555
C4_2 C3_2 1_555 1_555
H2_2 C4_2 1_555 1_555
C5_2 C4_2 1_555 1_555
C6_2 C5_2 1_555 1_555
C7_2 C6_2 1_555 1_555
C8_2 C7_2 1_555 1_555
C9_2 C8_2 1_555 1_555
H3_2 C9_2 1_555 1_555
O4_2 C10_2 1_555 1_555
C10_2 C11_2 1_555 1_555
C11_2 C12_2 1_555 1_555
C12_2 H4_2 1_555 1_555
C13_2 C12_2 1_555 1_555
H5_2 C13_2 1_555 1_555
C14_2 C13_2 1_555 1_555
C15_2 C14_2 1_555 1_555
C16_2 C15_2 1_555 1_555
C17_2 C16_2 1_555 1_555
C18_2 C9_2 1_555 1_555
H6_2 C18_2 1_555 1_555
O5_2 C1_2 1_555 1_555
C19_2 C2_2 1_555 1_555
H7_2 C19_2 1_555 1_555
C20_2 C5_2 1_555 1_555
H8_2 C20_2 1_555 1_555
C21_2 C8_2 1_555 1_555
H9_2 C21_2 1_555 1_555
O6_2 C10_2 1_555 1_555
C22_2 C11_2 1_555 1_555
H10_2 C22_2 1_555 1_555
C23_2 C14_2 1_555 1_555
H11_2 C23_2 1_555 1_555
C24_2 C17_2 1_555 1_555
H12_2 C24_2 1_555 1_555
Zr7 O4_2 1_555 1_555
O12_2 Zr6 1_555 1_555
C49_2 O12_2 1_555 1_555
C50_2 C49_2 1_555 1_555
C51_2 C50_2 1_555 1_555
H25_2 C51_2 1_555 1_555
C52_2 C51_2 1_555 1_555
H26_2 C52_2 1_555 1_555
C53_2 C52_2 1_555 1_555
C54_2 C53_2 1_555 1_555
C55_2 C54_2 1_555 1_555
C56_2 C55_2 1_555 1_555
C57_2 C56_2 1_555 1_555
H27_2 C57_2 1_555 1_555
O13_2 Zr1_2 1_555 1_555
C58_2 O13_2 1_555 1_555
C59_2 C58_2 1_555 1_555
C60_2 C59_2 1_555 1_555
H28_2 C60_2 1_555 1_555
C61_2 C60_2 1_555 1_555
H29_2 C61_2 1_555 1_555
C62_2 C61_2 1_555 1_555
C63_2 C62_2 1_555 1_555
C64_2 C63_2 1_555 1_555
C65_2 C64_2 1_555 1_555
C66_2 C57_2 1_555 1_555
H30_2 C66_2 1_555 1_555
O14_2 C49_2 1_555 1_555
C67_2 C50_2 1_555 1_555
H31_2 C67_2 1_555 1_555
C68_2 C53_2 1_555 1_555
H32_2 C68_2 1_555 1_555
C69_2 C56_2 1_555 1_555
H33_2 C69_2 1_555 1_555
O15_2 C58_2 1_555 1_555
C70_2 C59_2 1_555 1_555
H34_2 C70_2 1_555 1_555
C71_2 C62_2 1_555 1_555
H35_2 C71_2 1_555 1_555
C72_2 C65_2 1_555 1_555
H36_2 C72_2 1_555 1_555
O16_2 Zr1_2 1_555 1_555
Zr5 O14_2 1_555 1_555
Zr4 O6_2 1_555 1_555
Zr8_2 O2_2 1_555 1_555
Zr9_2 O2_2 1_555 1_555
Zr10_2 O16_2 1_555 1_555
Zr11_2 O3_2 1_555 1_555
O17_2 Zr7 1_555 1_555
O18_2 Zr6 1_555 1_555
O19_2 Zr1_2 1_555 1_555
O20_2 Zr6 1_555 1_555
O21_2 Zr7 1_555 1_555
O22_2 Zr1_2 1_555 1_555
O24_2 Zr7 1_555 1_555
O25_2 Zr6 1_555 1_555
O26_2 Zr1_2 1_555 1_555
O27_2 Zr6 1_555 1_555
O28_2 Zr7 1_555 1_555
O3_2 Zr9_2 1_555 1_555
C17_2 C18_2 1_555 1_555
O5_2 Zr8_2 1_555 1_555
C19_2 C20_2 1_555 1_555
C21_2 C24_2 1_555 1_555
C22_2 C23_2 1_555 1_555
C65_2 C66_2 1_555 1_555
C67_2 C68_2 1_555 1_555
C69_2 C72_2 1_555 1_555
O15_2 Zr9_2 1_555 1_555
C70_2 C71_2 1_555 1_555
O16_2 Zr8_2 1_555 1_555
Zr5 O27_2 1_555 1_555
Zr4 O28_2 1_555 1_555
Zr10_2 O26_2 1_555 1_555
Zr11_2 O26_2 1_555 1_555
O8_2 Zr8_2 1_555 1_555
C25_2 O8_2 1_555 1_555
C26_2 C25_2 1_555 1_555
C27_2 C26_2 1_555 1_555
H13_2 C27_2 1_555 1_555
C28_2 C27_2 1_555 1_555
H14_2 C28_2 1_555 1_555
C29_2 C28_2 1_555 1_555
C30_2 C29_2 1_555 1_555
C31_2 C30_2 1_555 1_555
C32_2 C31_2 1_555 1_555
C33_2 C32_2 1_555 1_555
H15_2 C33_2 1_555 1_555
O9_2 C34_2 1_555 1_555
C34_2 C35_2 1_555 1_555
C35_2 C36_2 1_555 1_555
C36_2 H16_2 1_555 1_555
C37_2 C36_2 1_555 1_555
H17_2 C37_2 1_555 1_555
C38_2 C37_2 1_555 1_555
C39_2 C38_2 1_555 1_555
C40_2 C39_2 1_555 1_555
C41_2 C40_2 1_555 1_555
C42_2 C33_2 1_555 1_555
H18_2 C42_2 1_555 1_555
O10_2 C25_2 1_555 1_555
C43_2 C26_2 1_555 1_555
H19_2 C43_2 1_555 1_555
C44_2 C29_2 1_555 1_555
H20_2 C44_2 1_555 1_555
C45_2 C32_2 1_555 1_555
H21_2 C45_2 1_555 1_555
O11_2 C34_2 1_555 1_555
C46_2 C35_2 1_555 1_555
H22_2 C46_2 1_555 1_555
C47_2 C38_2 1_555 1_555
H23_2 C47_2 1_555 1_555
C48_2 C41_2 1_555 1_555
H24_2 C48_2 1_555 1_555
Zr9 O9_2 1_555 1_555
Zr8 O11_2 1_555 1_555
Zr10_3 O28_2 1_555 1_555
Zr11_3 O27 1_555 1_555
O17_3 Zr8_2 1_555 1_555
O18_3 Zr9 1_555 1_555
O19_3 Zr4 1_555 1_555
O20_3 Zr9 1_555 1_555
O21_3 Zr8_2 1_555 1_555
O22_3 Zr4 1_555 1_555
O24_3 Zr8_2 1_555 1_555
O25_3 Zr9 1_555 1_555
O26_3 Zr4 1_555 1_555
O29_2 Zr9 1_555 1_555
O30_2 Zr8_2 1_555 1_555
C41_2 C42_2 1_555 1_555
O10_2 Zr9_2 1_555 1_555
C43_2 C44_2 1_555 1_555
C45_2 C48_2 1_555 1_555
C46_2 C47_2 1_555 1_555
Zr9_2 O30_2 1_555 1_555
Zr8 O29_2 1_555 1_555
Zr10_3 O26_3 1_555 1_555
Zr11_3 O26_3 1_555 1_555
Zr10_4 O28 1_555 1_555
Zr11_4 O27_2 1_555 1_555
O17_4 Zr8 1_555 1_555
O18_4 Zr9_2 1_555 1_555
O19_4 Zr5 1_555 1_555
O20_4 Zr9_2 1_555 1_555
O21_4 Zr8 1_555 1_555
O22_4 Zr5 1_555 1_555
O24_4 Zr8 1_555 1_555
O25_4 Zr9_2 1_555 1_555
O26_4 Zr5 1_555 1_555
Zr10_4 O26_4 1_555 1_555
Zr11_4 O26_4 1_555 1_555
Zr10_5 O30 1_555 1_555
Zr10_5 O24 1_555 1_555
Zr10_4 O24 1_555 1_555
Zr11_5 O29 1_555 1_555
Zr11_3 O25 1_555 1_555
Zr11_5 O25 1_555 1_555
Zr11_4 O25_2 1_555 1_555
Zr10_5 O25_2 1_555 1_555
Zr10_6 O30_2 1_555 1_555
Zr10_6 O24_3 1_555 1_555
Zr10_2 O24_3 1_555 1_555
Zr11_2 O25_4 1_555 1_555
Zr10_6 O25_4 1_555 1_555
Zr11_5 O24_2 1_555 1_555
Zr10_3 O24_2 1_555 1_555
Zr10_7 O29_2 1_555 1_555
Zr10_7 O24_4 1_555 1_555
Zr10 O24_4 1_555 1_555
Zr11 O25_3 1_555 1_555
Zr10_7 O25_3 1_555 1_555
C54_3 C53_3 1_555 1_555
C55_3 C54_3 1_555 1_555
C56_3 C55_3 1_555 1_555
C57_3 C56_3 1_555 1_555
H27_3 C57_3 1_555 1_555
C63_3 C62_3 1_555 1_555
C64_3 C63_3 1_555 1_555
C65_3 C64_3 1_555 1_555
C66_3 C57_3 1_555 1_555
H30_3 C66_3 1_555 1_555
H31_3 C67_3 1_555 1_555
C68_3 C53_3 1_555 1_555
H32_3 C68_3 1_555 1_555
C69_3 C56_3 1_555 1_555
H33_3 C69_3 1_555 1_555
H34_3 C70_3 1_555 1_555
C71_3 C62_3 1_555 1_555
H35_3 C71_3 1_555 1_555
C72_3 C65_3 1_555 1_555
H36_3 C72_3 1_555 1_555
C65_3 C66_3 1_555 1_555
C67_3 C68_3 1_555 1_555
C69_3 C72_3 1_555 1_555
C70_3 C71_3 1_555 1_555
C30_3 C29_3 1_555 1_555
C31_3 C30_3 1_555 1_555
C32_3 C31_3 1_555 1_555
C33_3 C32_3 1_555 1_555
H15_3 C33_3 1_555 1_555
O9_3 C34_3 1_555 1_555
C34_3 C35_3 1_555 1_555
C35_3 C36_3 1_555 1_555
C36_3 H16_3 1_555 1_555
C37_3 C36_3 1_555 1_555
H17_3 C37_3 1_555 1_555
C38_3 C37_3 1_555 1_555
C39_3 C38_3 1_555 1_555
C40_3 C39_3 1_555 1_555
C41_3 C40_3 1_555 1_555
C42_3 C33_3 1_555 1_555
H18_3 C42_3 1_555 1_555
H19_3 C43_3 1_555 1_555
C44_3 C29_3 1_555 1_555
H20_3 C44_3 1_555 1_555
C45_3 C32_3 1_555 1_555
H21_3 C45_3 1_555 1_555
O17_4 C34_3 1_555 1_555
C46_3 C35_3 1_555 1_555
H22_3 C46_3 1_555 1_555
C47_3 C38_3 1_555 1_555
H23_3 C47_3 1_555 1_555
C48_3 C41_3 1_555 1_555
H24_3 C48_3 1_555 1_555
Zr10 O9_3 1_555 1_555
O12_3 Zr10 1_555 1_555
C49_3 O12_3 1_555 1_555
C50_3 C49_3 1_555 1_555
C51_3 C50_3 1_555 1_555
H25_3 C51_3 1_555 1_555
C52_3 C51_3 1_555 1_555
H26_3 C52_3 1_555 1_555
O14_3 C49_3 1_555 1_555
Zr10_7 O14_3 1_555 1_555
O18_5 Zr10 1_555 1_555
O20_5 Zr10 1_555 1_555
O27_3 Zr10 1_555 1_555
C41_3 C42_3 1_555 1_555
C43_3 C44_3 1_555 1_555
C45_3 C48_3 1_555 1_555
C46_3 C47_3 1_555 1_555
Zr10_7 O27_3 1_555 1_555
Zr11_5 O1_3 1_555 1_555
O1_3 C1_3 1_555 1_555
O3_3 Zr11_5 1_555 1_555
C1_3 C2_3 1_555 1_555
C2_3 C3_3 1_555 1_555
C3_3 H1_3 1_555 1_555
C4_3 C3_3 1_555 1_555
H2_3 C4_3 1_555 1_555
C5_3 C4_3 1_555 1_555
C6_3 C5_3 1_555 1_555
C7_3 C6_3 1_555 1_555
C8_3 C7_3 1_555 1_555
C9_3 C8_3 1_555 1_555
H3_3 C9_3 1_555 1_555
C15_3 C14_3 1_555 1_555
C16_3 C15_3 1_555 1_555
C17_3 C16_3 1_555 1_555
C18_3 C9_3 1_555 1_555
H6_3 C18_3 1_555 1_555
O21_2 C1_3 1_555 1_555
C19_3 C2_3 1_555 1_555
H7_3 C19_3 1_555 1_555
C20_3 C5_3 1_555 1_555
H8_3 C20_3 1_555 1_555
C21_3 C8_3 1_555 1_555
H9_3 C21_3 1_555 1_555
H10_3 C22_3 1_555 1_555
C23_3 C14_3 1_555 1_555
H11_3 C23_3 1_555 1_555
C24_3 C17_3 1_555 1_555
H12_3 C24_3 1_555 1_555
O13_3 Zr11_5 1_555 1_555
C58_3 O13_3 1_555 1_555
C59_3 C58_3 1_555 1_555
C60_3 C59_3 1_555 1_555
H28_3 C60_3 1_555 1_555
C61_3 C60_3 1_555 1_555
H29_3 C61_3 1_555 1_555
O15_3 C58_3 1_555 1_555
Zr11_3 O3_3 1_555 1_555
O19_5 Zr11_5 1_555 1_555
O22_5 Zr11_5 1_555 1_555
O3_3 Zr10_3 1_555 1_555
C17_3 C18_3 1_555 1_555
C19_3 C20_3 1_555 1_555
C21_3 C24_3 1_555 1_555
C22_3 C23_3 1_555 1_555
O15_3 Zr10_3 1_555 1_555
O21_3 C10_3 1_555 1_555
C10_3 C11_3 1_555 1_555
C11_3 C12_3 1_555 1_555
C12_3 H4_3 1_555 1_555
C13_3 C12_3 1_555 1_555
H5_3 C13_3 1_555 1_555
O6_3 C10_3 1_555 1_555
C25_3 O17_3 1_555 1_555
C26_3 C25_3 1_555 1_555
C27_3 C26_3 1_555 1_555
H13_3 C27_3 1_555 1_555
C28_3 C27_3 1_555 1_555
H14_3 C28_3 1_555 1_555
O10_3 C25_3 1_555 1_555
Zr10_6 O6_3 1_555 1_555
O10_3 Zr10_2 1_555 1_555
Zr10_5 O1_4 1_555 1_555
O1_4 C1_4 1_555 1_555
O3_4 Zr10_5 1_555 1_555
C1_4 C2_4 1_555 1_555
C2_4 C3_4 1_555 1_555
C3_4 H1_4 1_555 1_555
C4_4 C3_4 1_555 1_555
H2_4 C4_4 1_555 1_555
C5_4 C4_4 1_555 1_555
C6_4 C5_4 1_555 1_555
C7_4 C6_4 1_555 1_555
C8_4 C7_4 1_555 1_555
C9_4 C8_4 1_555 1_555
H3_4 C9_4 1_555 1_555
C15_4 C14_4 1_555 1_555
C16_4 C15_4 1_555 1_555
C17_4 C16_4 1_555 1_555
C18_4 C9_4 1_555 1_555
H6_4 C18_4 1_555 1_555
O21 C1_4 1_555 1_555
C19_4 C2_4 1_555 1_555
H7_4 C19_4 1_555 1_555
C20_4 C5_4 1_555 1_555
H8_4 C20_4 1_555 1_555
C21_4 C8_4 1_555 1_555
H9_4 C21_4 1_555 1_555
H10_4 C22_4 1_555 1_555
C23_4 C14_4 1_555 1_555
H11_4 C23_4 1_555 1_555
C24_4 C17_4 1_555 1_555
H12_4 C24_4 1_555 1_555
C54_4 C53_4 1_555 1_555
C55_4 C54_4 1_555 1_555
C56_4 C55_4 1_555 1_555
C57_4 C56_4 1_555 1_555
H27_4 C57_4 1_555 1_555
O13_4 Zr10_5 1_555 1_555
C58_4 O13_4 1_555 1_555
C59_4 C58_4 1_555 1_555
C60_4 C59_4 1_555 1_555
H28_4 C60_4 1_555 1_555
C61_4 C60_4 1_555 1_555
H29_4 C61_4 1_555 1_555
C62_4 C61_4 1_555 1_555
C63_4 C62_4 1_555 1_555
C64_4 C63_4 1_555 1_555
C65_4 C64_4 1_555 1_555
C66_4 C57_4 1_555 1_555
H30_4 C66_4 1_555 1_555
C69_4 C56_4 1_555 1_555
H33_4 C69_4 1_555 1_555
O15_4 C58_4 1_555 1_555
C70_4 C59_4 1_555 1_555
H34_4 C70_4 1_555 1_555
C71_4 C62_4 1_555 1_555
H35_4 C71_4 1_555 1_555
C72_4 C65_4 1_555 1_555
H36_4 C72_4 1_555 1_555
Zr11_4 O3_4 1_555 1_555
O19_6 Zr10_5 1_555 1_555
O22_6 Zr10_5 1_555 1_555
O3_4 Zr10_4 1_555 1_555
C17_4 C18_4 1_555 1_555
C19_4 C20_4 1_555 1_555
C21_4 C24_4 1_555 1_555
C22_4 C23_4 1_555 1_555
C65_4 C66_4 1_555 1_555
C69_4 C72_4 1_555 1_555
O15_4 Zr10_4 1_555 1_555
C70_4 C71_4 1_555 1_555
O21_4 C10_4 1_555 1_555
C10_4 C11_4 1_555 1_555
C11_4 C12_4 1_555 1_555
C12_4 H4_4 1_555 1_555
C13_4 C12_4 1_555 1_555
H5_4 C13_4 1_555 1_555
O6_4 C10_4 1_555 1_555
H25_4 C51_4 1_555 1_555
C52_4 C51_4 1_555 1_555
H26_4 C52_4 1_555 1_555
Zr10_7 O6_4 1_555 1_555
H31_4 C67_4 1_555 1_555
H32_4 C68_4 1_555 1_555
C67_4 C68_4 1_555 1_555
O12_4 Zr10_2 1_555 1_555
C49_4 O12_4 1_555 1_555
C50_4 C49_4 1_555 1_555
O14_4 C49_4 1_555 1_555
Zr10_6 O14_4 1_555 1_555
O18_6 Zr10_2 1_555 1_555
O20_6 Zr10_2 1_555 1_555
O27_4 Zr10_2 1_555 1_555
Zr10_6 O27_4 1_555 1_555
C25_4 O17 1_555 1_555
C26_4 C25_4 1_555 1_555
C27_4 C26_4 1_555 1_555
H13_4 C27_4 1_555 1_555
C28_4 C27_4 1_555 1_555
H14_4 C28_4 1_555 1_555
C29_4 C28_4 1_555 1_555
C30_4 C29_4 1_555 1_555
C31_4 C30_4 1_555 1_555
C32_4 C31_4 1_555 1_555
C33_4 C32_4 1_555 1_555
H15_4 C33_4 1_555 1_555
C36_4 H16_4 1_555 1_555
C37_4 C36_4 1_555 1_555
H17_4 C37_4 1_555 1_555
C38_4 C37_4 1_555 1_555
C39_4 C38_4 1_555 1_555
C40_4 C39_4 1_555 1_555
C41_4 C40_4 1_555 1_555
C42_4 C33_4 1_555 1_555
H18_4 C42_4 1_555 1_555
O10_4 C25_4 1_555 1_555
C43_4 C26_4 1_555 1_555
H19_4 C43_4 1_555 1_555
C44_4 C29_4 1_555 1_555
H20_4 C44_4 1_555 1_555
C45_4 C32_4 1_555 1_555
H21_4 C45_4 1_555 1_555
C48_4 C41_4 1_555 1_555
H24_4 C48_4 1_555 1_555
C41_4 C42_4 1_555 1_555
O10_4 Zr10_4 1_555 1_555
C43_4 C44_4 1_555 1_555
C45_4 C48_4 1_555 1_555
Zr11 O27_3 1_555 1_555
O19_7 Zr10_7 1_555 1_555
O22_7 Zr10_7 1_555 1_555
O9_4 C34_4 1_555 1_555
C34_4 C35_4 1_555 1_555
O17_2 C34_4 1_555 1_555
C46_4 C35_4 1_555 1_555
H22_4 C46_4 1_555 1_555
H23_4 C47_4 1_555 1_555
Zr10_3 O9_4 1_555 1_555
O18_7 Zr10_3 1_555 1_555
O20_7 Zr10_3 1_555 1_555
C46_4 C47_4 1_555 1_555
O18_8 Zr10_4 1_555 1_555
O20_8 Zr10_4 1_555 1_555
Zr11_2 O27_4 1_555 1_555
O19_8 Zr10_6 1_555 1_555
O22_8 Zr10_6 1_555 1_555
C6_5 C5_5 1_555 1_555
C7_5 C6_5 1_555 1_555
C8_5 C7_5 1_555 1_555
C9_5 C8_5 1_555 1_555
H3_5 C9_5 1_555 1_555
C15_5 C14_5 1_555 1_555
C16_5 C15_5 1_555 1_555
C17_5 C16_5 1_555 1_555
C18_5 C9_5 1_555 1_555
H6_5 C18_5 1_555 1_555
H7_5 C19_5 1_555 1_555
C20_5 C5_5 1_555 1_555
H8_5 C20_5 1_555 1_555
C21_5 C8_5 1_555 1_555
H9_5 C21_5 1_555 1_555
H10_5 C22_5 1_555 1_555
C23_5 C14_5 1_555 1_555
H11_5 C23_5 1_555 1_555
C24_5 C17_5 1_555 1_555
H12_5 C24_5 1_555 1_555
C17_5 C18_5 1_555 1_555
C19_5 C20_5 1_555 1_555
C21_5 C24_5 1_555 1_555
C22_5 C23_5 1_555 1_555
O4_3 C10_5 1_555 1_555
C10_5 C11_5 1_555 1_555
C11_5 C12_5 1_555 1_555
C12_5 H4_5 1_555 1_555
C13_5 C12_5 1_555 1_555
H5_5 C13_5 1_555 1_555
O19_7 C10_5 1_555 1_555
Zr11 O4_3 1_555 1_555
O8_3 Zr11 1_555 1_555
C25_5 O8_3 1_555 1_555
C26_5 C25_5 1_555 1_555
C27_5 C26_5 1_555 1_555
H13_5 C27_5 1_555 1_555
C28_5 C27_5 1_555 1_555
H14_5 C28_5 1_555 1_555
C29_5 C28_5 1_555 1_555
C30_5 C29_5 1_555 1_555
C31_5 C30_5 1_555 1_555
C32_5 C31_5 1_555 1_555
C33_5 C32_5 1_555 1_555
H15_5 C33_5 1_555 1_555
C39_5 C38_5 1_555 1_555
C40_5 C39_5 1_555 1_555
C41_5 C40_5 1_555 1_555
C42_5 C33_5 1_555 1_555
H18_5 C42_5 1_555 1_555
O20_3 C25_5 1_555 1_555
C43_5 C26_5 1_555 1_555
H19_5 C43_5 1_555 1_555
C44_5 C29_5 1_555 1_555
H20_5 C44_5 1_555 1_555
C45_5 C32_5 1_555 1_555
H21_5 C45_5 1_555 1_555
H22_5 C46_5 1_555 1_555
C47_5 C38_5 1_555 1_555
H23_5 C47_5 1_555 1_555
C48_5 C41_5 1_555 1_555
H24_5 C48_5 1_555 1_555
O17_5 Zr11 1_555 1_555
O21_5 Zr11 1_555 1_555
C41_5 C42_5 1_555 1_555
C43_5 C44_5 1_555 1_555
C45_5 C48_5 1_555 1_555
C46_5 C47_5 1_555 1_555
O19_6 C1_5 1_555 1_555
C1_5 C2_5 1_555 1_555
C2_5 C3_5 1_555 1_555
C3_5 H1_5 1_555 1_555
C4_5 C3_5 1_555 1_555
H2_5 C4_5 1_555 1_555
O5_3 C1_5 1_555 1_555
C54_5 C53_5 1_555 1_555
C55_5 C54_5 1_555 1_555
C56_5 C55_5 1_555 1_555
C57_5 C56_5 1_555 1_555
H27_5 C57_5 1_555 1_555
C58_5 O22_6 1_555 1_555
C59_5 C58_5 1_555 1_555
C60_5 C59_5 1_555 1_555
H28_5 C60_5 1_555 1_555
C61_5 C60_5 1_555 1_555
H29_5 C61_5 1_555 1_555
C62_5 C61_5 1_555 1_555
C63_5 C62_5 1_555 1_555
C64_5 C63_5 1_555 1_555
C65_5 C64_5 1_555 1_555
C66_5 C57_5 1_555 1_555
H30_5 C66_5 1_555 1_555
H31_5 C67_5 1_555 1_555
C68_5 C53_5 1_555 1_555
H32_5 C68_5 1_555 1_555
C69_5 C56_5 1_555 1_555
H33_5 C69_5 1_555 1_555
O18_2 C58_5 1_555 1_555
C70_5 C59_5 1_555 1_555
H34_5 C70_5 1_555 1_555
C71_5 C62_5 1_555 1_555
H35_5 C71_5 1_555 1_555
C72_5 C65_5 1_555 1_555
H36_5 C72_5 1_555 1_555
O5_3 Zr11_4 1_555 1_555
C65_5 C66_5 1_555 1_555
C67_5 C68_5 1_555 1_555
C69_5 C72_5 1_555 1_555
C70_5 C71_5 1_555 1_555
O20_4 C34_5 1_555 1_555
C34_5 C35_5 1_555 1_555
C35_5 C36_5 1_555 1_555
C36_5 H16_5 1_555 1_555
C37_5 C36_5 1_555 1_555
H17_5 C37_5 1_555 1_555
O11_3 C34_5 1_555 1_555
C49_5 O18_4 1_555 1_555
C50_5 C49_5 1_555 1_555
C51_5 C50_5 1_555 1_555
H25_5 C51_5 1_555 1_555
C52_5 C51_5 1_555 1_555
H26_5 C52_5 1_555 1_555
O22_8 C49_5 1_555 1_555
Zr11_2 O11_3 1_555 1_555
O19_5 C1_6 1_555 1_555
C1_6 C2_6 1_555 1_555
C2_6 C3_6 1_555 1_555
C3_6 H1_6 1_555 1_555
C4_6 C3_6 1_555 1_555
H2_6 C4_6 1_555 1_555
C5_6 C4_6 1_555 1_555
C6_6 C5_6 1_555 1_555
C7_6 C6_6 1_555 1_555
C8_6 C7_6 1_555 1_555
C9_6 C8_6 1_555 1_555
H3_6 C9_6 1_555 1_555
C15_6 C14_6 1_555 1_555
C16_6 C15_6 1_555 1_555
C17_6 C16_6 1_555 1_555
C18_6 C9_6 1_555 1_555
H6_6 C18_6 1_555 1_555
O5_4 C1_6 1_555 1_555
C19_6 C2_6 1_555 1_555
H7_6 C19_6 1_555 1_555
C20_6 C5_6 1_555 1_555
H8_6 C20_6 1_555 1_555
C21_6 C8_6 1_555 1_555
H9_6 C21_6 1_555 1_555
C24_6 C17_6 1_555 1_555
H12_6 C24_6 1_555 1_555
C54_6 C53_6 1_555 1_555
C55_6 C54_6 1_555 1_555
C56_6 C55_6 1_555 1_555
C57_6 C56_6 1_555 1_555
H27_6 C57_6 1_555 1_555
C58_6 O22_5 1_555 1_555
C59_6 C58_6 1_555 1_555
C60_6 C59_6 1_555 1_555
H28_6 C60_6 1_555 1_555
C61_6 C60_6 1_555 1_555
H29_6 C61_6 1_555 1_555
C62_6 C61_6 1_555 1_555
C63_6 C62_6 1_555 1_555
C64_6 C63_6 1_555 1_555
C65_6 C64_6 1_555 1_555
C66_6 C57_6 1_555 1_555
H30_6 C66_6 1_555 1_555
H31_6 C67_6 1_555 1_555
C68_6 C53_6 1_555 1_555
H32_6 C68_6 1_555 1_555
C69_6 C56_6 1_555 1_555
H33_6 C69_6 1_555 1_555
O18 C58_6 1_555 1_555
C70_6 C59_6 1_555 1_555
H34_6 C70_6 1_555 1_555
C71_6 C62_6 1_555 1_555
H35_6 C71_6 1_555 1_555
C72_6 C65_6 1_555 1_555
H36_6 C72_6 1_555 1_555
C17_6 C18_6 1_555 1_555
O5_4 Zr11_3 1_555 1_555
C19_6 C20_6 1_555 1_555
C21_6 C24_6 1_555 1_555
C65_6 C66_6 1_555 1_555
C67_6 C68_6 1_555 1_555
C69_6 C72_6 1_555 1_555
C70_6 C71_6 1_555 1_555
C12_6 H4_6 1_555 1_555
C13_6 C12_6 1_555 1_555
H5_6 C13_6 1_555 1_555
C49_6 O18_3 1_555 1_555
C50_6 C49_6 1_555 1_555
C51_6 C50_6 1_555 1_555
H25_6 C51_6 1_555 1_555
C52_6 C51_6 1_555 1_555
H26_6 C52_6 1_555 1_555
O22_7 C49_6 1_555 1_555
H10_6 C22_6 1_555 1_555
H11_6 C23_6 1_555 1_555
C22_6 C23_6 1_555 1_555
O4_4 C10_6 1_555 1_555
C10_6 C11_6 1_555 1_555
O19_8 C10_6 1_555 1_555
Zr11_2 O4_4 1_555 1_555
O17_6 Zr11_2 1_555 1_555
O21_6 Zr11_2 1_555 1_555
O8_4 Zr11_3 1_555 1_555
C25_6 O8_4 1_555 1_555
C26_6 C25_6 1_555 1_555
C27_6 C26_6 1_555 1_555
H13_6 C27_6 1_555 1_555
C28_6 C27_6 1_555 1_555
H14_6 C28_6 1_555 1_555
C29_6 C28_6 1_555 1_555
C30_6 C29_6 1_555 1_555
C31_6 C30_6 1_555 1_555
C32_6 C31_6 1_555 1_555
C33_6 C32_6 1_555 1_555
H15_6 C33_6 1_555 1_555
C39_6 C38_6 1_555 1_555
C40_6 C39_6 1_555 1_555
C41_6 C40_6 1_555 1_555
C42_6 C33_6 1_555 1_555
H18_6 C42_6 1_555 1_555
O20 C25_6 1_555 1_555
C43_6 C26_6 1_555 1_555
H19_6 C43_6 1_555 1_555
C44_6 C29_6 1_555 1_555
H20_6 C44_6 1_555 1_555
C45_6 C32_6 1_555 1_555
H21_6 C45_6 1_555 1_555
H22_6 C46_6 1_555 1_555
C47_6 C38_6 1_555 1_555
H23_6 C47_6 1_555 1_555
C48_6 C41_6 1_555 1_555
H24_6 C48_6 1_555 1_555
O17_7 Zr11_3 1_555 1_555
O21_7 Zr11_3 1_555 1_555
C41_6 C42_6 1_555 1_555
C43_6 C44_6 1_555 1_555
C45_6 C48_6 1_555 1_555
C46_6 C47_6 1_555 1_555
O20_2 C34_6 1_555 1_555
C34_6 C35_6 1_555 1_555
C35_6 C36_6 1_555 1_555
C36_6 H16_6 1_555 1_555
C37_6 C36_6 1_555 1_555
H17_6 C37_6 1_555 1_555
O11_4 C34_6 1_555 1_555
Zr11_4 O11_4 1_555 1_555
O17_8 Zr11_4 1_555 1_555
O21_8 Zr11_4 1_555 1_555
C30_7 C29_7 1_555 1_555
C31_7 C30_7 1_555 1_555
C32_7 C31_7 1_555 1_555
C33_7 C32_7 1_555 1_555
H15_7 C33_7 1_555 1_555
C39_7 C38_7 1_555 1_555
C40_7 C39_7 1_555 1_555
C41_7 C40_7 1_555 1_555
C42_7 C33_7 1_555 1_555
H18_7 C42_7 1_555 1_555
H19_7 C43_7 1_555 1_555
C44_7 C29_7 1_555 1_555
H20_7 C44_7 1_555 1_555
C45_7 C32_7 1_555 1_555
H21_7 C45_7 1_555 1_555
H22_7 C46_7 1_555 1_555
C47_7 C38_7 1_555 1_555
H23_7 C47_7 1_555 1_555
C48_7 C41_7 1_555 1_555
H24_7 C48_7 1_555 1_555
C41_7 C42_7 1_555 1_555
C43_7 C44_7 1_555 1_555
C45_7 C48_7 1_555 1_555
C46_7 C47_7 1_555 1_555
C6_7 C5_7 1_555 1_555
C7_7 C6_7 1_555 1_555
C8_7 C7_7 1_555 1_555
C9_7 C8_7 1_555 1_555
H3_7 C9_7 1_555 1_555
O21_7 C10_7 1_555 1_555
C10_7 C11_7 1_555 1_555
C11_7 C12_7 1_555 1_555
C12_7 H4_7 1_555 1_555
C13_7 C12_7 1_555 1_555
H5_7 C13_7 1_555 1_555
C14_7 C13_7 1_555 1_555
C15_7 C14_7 1_555 1_555
C16_7 C15_7 1_555 1_555
C17_7 C16_7 1_555 1_555
C18_7 C9_7 1_555 1_555
H6_7 C18_7 1_555 1_555
H7_7 C19_7 1_555 1_555
C20_7 C5_7 1_555 1_555
H8_7 C20_7 1_555 1_555
C21_7 C8_7 1_555 1_555
H9_7 C21_7 1_555 1_555
O19_3 C10_7 1_555 1_555
C22_7 C11_7 1_555 1_555
H10_7 C22_7 1_555 1_555
C23_7 C14_7 1_555 1_555
H11_7 C23_7 1_555 1_555
C24_7 C17_7 1_555 1_555
H12_7 C24_7 1_555 1_555
C25_7 O17_7 1_555 1_555
C26_7 C25_7 1_555 1_555
C27_7 C26_7 1_555 1_555
H13_7 C27_7 1_555 1_555
C28_7 C27_7 1_555 1_555
H14_7 C28_7 1_555 1_555
O20_7 C25_7 1_555 1_555
C17_7 C18_7 1_555 1_555
C19_7 C20_7 1_555 1_555
C21_7 C24_7 1_555 1_555
C22_7 C23_7 1_555 1_555
O20_8 C34_7 1_555 1_555
C34_7 C35_7 1_555 1_555
C35_7 C36_7 1_555 1_555
C36_7 H16_7 1_555 1_555
C37_7 C36_7 1_555 1_555
H17_7 C37_7 1_555 1_555
O17_8 C34_7 1_555 1_555
C49_7 O18_8 1_555 1_555
C50_7 C49_7 1_555 1_555
C51_7 C50_7 1_555 1_555
H25_7 C51_7 1_555 1_555
C52_7 C51_7 1_555 1_555
H26_7 C52_7 1_555 1_555
C53_7 C52_7 1_555 1_555
C54_7 C53_7 1_555 1_555
C55_7 C54_7 1_555 1_555
C56_7 C55_7 1_555 1_555
C57_7 C56_7 1_555 1_555
H27_7 C57_7 1_555 1_555
C63_7 C62_7 1_555 1_555
C64_7 C63_7 1_555 1_555
C65_7 C64_7 1_555 1_555
C66_7 C57_7 1_555 1_555
H30_7 C66_7 1_555 1_555
O22_4 C49_7 1_555 1_555
C67_7 C50_7 1_555 1_555
H31_7 C67_7 1_555 1_555
C68_7 C53_7 1_555 1_555
H32_7 C68_7 1_555 1_555
C69_7 C56_7 1_555 1_555
H33_7 C69_7 1_555 1_555
H34_7 C70_7 1_555 1_555
C71_7 C62_7 1_555 1_555
H35_7 C71_7 1_555 1_555
C72_7 C65_7 1_555 1_555
H36_7 C72_7 1_555 1_555
C65_7 C66_7 1_555 1_555
C67_7 C68_7 1_555 1_555
C69_7 C72_7 1_555 1_555
C70_7 C71_7 1_555 1_555
O19_2 C1_7 1_555 1_555
C1_7 C2_7 1_555 1_555
C2_7 C3_7 1_555 1_555
C3_7 H1_7 1_555 1_555
C4_7 C3_7 1_555 1_555
H2_7 C4_7 1_555 1_555
O21_6 C1_7 1_555 1_555
C58_7 O22_2 1_555 1_555
C59_7 C58_7 1_555 1_555
C60_7 C59_7 1_555 1_555
H28_7 C60_7 1_555 1_555
C61_7 C60_7 1_555 1_555
H29_7 C61_7 1_555 1_555
O18_6 C58_7 1_555 1_555
O19 C1_8 1_555 1_555
C1_8 C2_8 1_555 1_555
C2_8 C3_8 1_555 1_555
C3_8 H1_8 1_555 1_555
C4_8 C3_8 1_555 1_555
H2_8 C4_8 1_555 1_555
C5_8 C4_8 1_555 1_555
C6_8 C5_8 1_555 1_555
C7_8 C6_8 1_555 1_555
C8_8 C7_8 1_555 1_555
C9_8 C8_8 1_555 1_555
H3_8 C9_8 1_555 1_555
C12_8 H4_8 1_555 1_555
C13_8 C12_8 1_555 1_555
H5_8 C13_8 1_555 1_555
C14_8 C13_8 1_555 1_555
C15_8 C14_8 1_555 1_555
C16_8 C15_8 1_555 1_555
C17_8 C16_8 1_555 1_555
C18_8 C9_8 1_555 1_555
H6_8 C18_8 1_555 1_555
O21_5 C1_8 1_555 1_555
C19_8 C2_8 1_555 1_555
H7_8 C19_8 1_555 1_555
C20_8 C5_8 1_555 1_555
H8_8 C20_8 1_555 1_555
C21_8 C8_8 1_555 1_555
H9_8 C21_8 1_555 1_555
C24_8 C17_8 1_555 1_555
H12_8 C24_8 1_555 1_555
H25_8 C51_8 1_555 1_555
C52_8 C51_8 1_555 1_555
H26_8 C52_8 1_555 1_555
C53_8 C52_8 1_555 1_555
C54_8 C53_8 1_555 1_555
C55_8 C54_8 1_555 1_555
C56_8 C55_8 1_555 1_555
C57_8 C56_8 1_555 1_555
H27_8 C57_8 1_555 1_555
C58_8 O22 1_555 1_555
C59_8 C58_8 1_555 1_555
C60_8 C59_8 1_555 1_555
H28_8 C60_8 1_555 1_555
C61_8 C60_8 1_555 1_555
H29_8 C61_8 1_555 1_555
C62_8 C61_8 1_555 1_555
C63_8 C62_8 1_555 1_555
C64_8 C63_8 1_555 1_555
C65_8 C64_8 1_555 1_555
C66_8 C57_8 1_555 1_555
H30_8 C66_8 1_555 1_555
C69_8 C56_8 1_555 1_555
H33_8 C69_8 1_555 1_555
O18_5 C58_8 1_555 1_555
C70_8 C59_8 1_555 1_555
H34_8 C70_8 1_555 1_555
C71_8 C62_8 1_555 1_555
H35_8 C71_8 1_555 1_555
C72_8 C65_8 1_555 1_555
H36_8 C72_8 1_555 1_555
C17_8 C18_8 1_555 1_555
C19_8 C20_8 1_555 1_555
C21_8 C24_8 1_555 1_555
C65_8 C66_8 1_555 1_555
C69_8 C72_8 1_555 1_555
C70_8 C71_8 1_555 1_555
C49_8 O18_7 1_555 1_555
C50_8 C49_8 1_555 1_555
O22_3 C49_8 1_555 1_555
C67_8 C50_8 1_555 1_555
H31_8 C67_8 1_555 1_555
H32_8 C68_8 1_555 1_555
C67_8 C68_8 1_555 1_555
O21_8 C10_8 1_555 1_555
C10_8 C11_8 1_555 1_555
O19_4 C10_8 1_555 1_555
C22_8 C11_8 1_555 1_555
H10_8 C22_8 1_555 1_555
H11_8 C23_8 1_555 1_555
C22_8 C23_8 1_555 1_555
C25_8 O17_5 1_555 1_555
C26_8 C25_8 1_555 1_555
C27_8 C26_8 1_555 1_555
H13_8 C27_8 1_555 1_555
C28_8 C27_8 1_555 1_555
H14_8 C28_8 1_555 1_555
C29_8 C28_8 1_555 1_555
C30_8 C29_8 1_555 1_555
C31_8 C30_8 1_555 1_555
C32_8 C31_8 1_555 1_555
C33_8 C32_8 1_555 1_555
H15_8 C33_8 1_555 1_555
C39_8 C38_8 1_555 1_555
C40_8 C39_8 1_555 1_555
C41_8 C40_8 1_555 1_555
C42_8 C33_8 1_555 1_555
H18_8 C42_8 1_555 1_555
O20_5 C25_8 1_555 1_555
C43_8 C26_8 1_555 1_555
H19_8 C43_8 1_555 1_555
C44_8 C29_8 1_555 1_555
H20_8 C44_8 1_555 1_555
C45_8 C32_8 1_555 1_555
H21_8 C45_8 1_555 1_555
C48_8 C41_8 1_555 1_555
H24_8 C48_8 1_555 1_555
C41_8 C42_8 1_555 1_555
C43_8 C44_8 1_555 1_555
C45_8 C48_8 1_555 1_555
H22_8 C46_8 1_555 1_555
H23_8 C47_8 1_555 1_555
C46_8 C47_8 1_555 1_555
C36_8 H16_8 1_555 1_555
C37_8 C36_8 1_555 1_555
H17_8 C37_8 1_555 1_555
O20_6 C34_8 1_555 1_555
C34_8 C35_8 1_555 1_555
O17_6 C34_8 1_555 1_555
O4_5 C10_9 1_555 1_555
C10_9 C11_9 1_555 1_555
O6_5 C10_9 1_555 1_555
C22_9 C11_9 1_555 1_555
H10_9 C22_9 1_555 1_555
H11_9 C23_9 1_555 1_555
O7_2 Zr2_2 1_555 1_555
Zr2_2 O4_5 1_555 1_555
O8_5 Zr2_2 1_555 1_555
C25_9 O8_5 1_555 1_555
C26_9 C25_9 1_555 1_555
O10_5 C25_9 1_555 1_555
C43_9 C26_9 1_555 1_555
H19_9 C43_9 1_555 1_555
H20_9 C44_9 1_555 1_555
Zr5_2 O6_5 1_555 1_555
Zr6_2 O7_2 1_555 1_555
O17_9 Zr2_2 1_555 1_555
O21_9 Zr2_2 1_555 1_555
O24_5 Zr2_2 1_555 1_555
O28_3 Zr2_2 1_555 1_555
O30_3 Zr2_2 1_555 1_555
C22_9 C23_9 1_555 1_555
O7_2 Zr5_2 1_555 1_555
O10_5 Zr6_2 1_555 1_555
C43_9 C44_9 1_555 1_555
Zr5_2 O28_3 1_555 1_555
Zr6_2 O30_3 1_555 1_555
Zr1_3 O1_5 1_555 1_555
O1_5 C1_9 1_555 1_555
O2_3 Zr1_3 1_555 1_555
O3_5 Zr1_3 1_555 1_555
C1_9 C2_9 1_555 1_555
O5_5 C1_9 1_555 1_555
C19_9 C2_9 1_555 1_555
H7_9 C19_9 1_555 1_555
H8_9 C20_9 1_555 1_555
O13_5 Zr1_3 1_555 1_555
C58_9 O13_5 1_555 1_555
C59_9 C58_9 1_555 1_555
O15_5 C58_9 1_555 1_555
C70_9 C59_9 1_555 1_555
H34_9 C70_9 1_555 1_555
H35_9 C71_9 1_555 1_555
O16_3 Zr1_3 1_555 1_555
Zr8_3 O2_3 1_555 1_555
Zr9_3 O2_3 1_555 1_555
Zr10_8 O16_3 1_555 1_555
Zr11_6 O3_5 1_555 1_555
O19_9 Zr1_3 1_555 1_555
O22_9 Zr1_3 1_555 1_555
O26_5 Zr1_3 1_555 1_555
O3_5 Zr9_3 1_555 1_555
O5_5 Zr8_3 1_555 1_555
C19_9 C20_9 1_555 1_555
O15_5 Zr9_3 1_555 1_555
C70_9 C71_9 1_555 1_555
O16_3 Zr8_3 1_555 1_555
Zr10_8 O26_5 1_555 1_555
Zr11_6 O26_5 1_555 1_555
C3_9 H1_9 1_555 1_555
C4_9 C3_9 1_555 1_555
H2_9 C4_9 1_555 1_555
C5_9 C4_9 1_555 1_555
C6_9 C5_9 1_555 1_555
C7_9 C6_9 1_555 1_555
C8_9 C7_9 1_555 1_555
C9_9 C8_9 1_555 1_555
H3_9 C9_9 1_555 1_555
C12_9 H4_9 1_555 1_555
C13_9 C12_9 1_555 1_555
H5_9 C13_9 1_555 1_555
C14_9 C13_9 1_555 1_555
C15_9 C14_9 1_555 1_555
C16_9 C15_9 1_555 1_555
C17_9 C16_9 1_555 1_555
C18_9 C9_9 1_555 1_555
H6_9 C18_9 1_555 1_555
C21_9 C8_9 1_555 1_555
H9_9 C21_9 1_555 1_555
C24_9 C17_9 1_555 1_555
H12_9 C24_9 1_555 1_555
H13_9 C27_9 1_555 1_555
C28_9 C27_9 1_555 1_555
H14_9 C28_9 1_555 1_555
C29_9 C28_9 1_555 1_555
C30_9 C29_9 1_555 1_555
C31_9 C30_9 1_555 1_555
C32_9 C31_9 1_555 1_555
C33_9 C32_9 1_555 1_555
H15_9 C33_9 1_555 1_555
O9_5 C34_9 1_555 1_555
C34_9 C35_9 1_555 1_555
C35_9 C36_9 1_555 1_555
C36_9 H16_9 1_555 1_555
C37_9 C36_9 1_555 1_555
H17_9 C37_9 1_555 1_555
C38_9 C37_9 1_555 1_555
C39_9 C38_9 1_555 1_555
C40_9 C39_9 1_555 1_555
C41_9 C40_9 1_555 1_555
C42_9 C33_9 1_555 1_555
H18_9 C42_9 1_555 1_555
C45_9 C32_9 1_555 1_555
H21_9 C45_9 1_555 1_555
O11_5 C34_9 1_555 1_555
C46_9 C35_9 1_555 1_555
H22_9 C46_9 1_555 1_555
C47_9 C38_9 1_555 1_555
H23_9 C47_9 1_555 1_555
C48_9 C41_9 1_555 1_555
H24_9 C48_9 1_555 1_555
Zr3_2 O9_5 1_555 1_555
O12_5 Zr3_2 1_555 1_555
C49_9 O12_5 1_555 1_555
C50_9 C49_9 1_555 1_555
C51_9 C50_9 1_555 1_555
H25_9 C51_9 1_555 1_555
C52_9 C51_9 1_555 1_555
H26_9 C52_9 1_555 1_555
C53_9 C52_9 1_555 1_555
C54_9 C53_9 1_555 1_555
C55_9 C54_9 1_555 1_555
C56_9 C55_9 1_555 1_555
C57_9 C56_9 1_555 1_555
H27_9 C57_9 1_555 1_555
H28_9 C60_9 1_555 1_555
C61_9 C60_9 1_555 1_555
H29_9 C61_9 1_555 1_555
C62_9 C61_9 1_555 1_555
C63_9 C62_9 1_555 1_555
C64_9 C63_9 1_555 1_555
C65_9 C64_9 1_555 1_555
C66_9 C57_9 1_555 1_555
H30_9 C66_9 1_555 1_555
O14_5 C49_9 1_555 1_555
C67_9 C50_9 1_555 1_555
H31_9 C67_9 1_555 1_555
C68_9 C53_9 1_555 1_555
H32_9 C68_9 1_555 1_555
C69_9 C56_9 1_555 1_555
H33_9 C69_9 1_555 1_555
C72_9 C65_9 1_555 1_555
H36_9 C72_9 1_555 1_555
Zr4_2 O14_5 1_555 1_555
Zr7_2 O11_5 1_555 1_555
O18_9 Zr3_2 1_555 1_555
O20_9 Zr3_2 1_555 1_555
O23_2 Zr3_2 1_555 1_555
O25_5 Zr3_2 1_555 1_555
O27_5 Zr3_2 1_555 1_555
O29_3 Zr3_2 1_555 1_555
C17_9 C18_9 1_555 1_555
C21_9 C24_9 1_555 1_555
C41_9 C42_9 1_555 1_555
C45_9 C48_9 1_555 1_555
C46_9 C47_9 1_555 1_555
C65_9 C66_9 1_555 1_555
C67_9 C68_9 1_555 1_555
C69_9 C72_9 1_555 1_555
Zr4_2 O23_2 1_555 1_555
Zr4_2 O27_5 1_555 1_555
Zr7_2 O23_2 1_555 1_555
Zr7_2 O29_3 1_555 1_555
O9_6 C34_10 1_555 1_555
C34_10 C35_10 1_555 1_555
O11_6 C34_10 1_555 1_555
C46_10 C35_10 1_555 1_555
H22_10 C46_10 1_555 1_555
H23_10 C47_10 1_555 1_555
Zr3_3 O9_6 1_555 1_555
O12_6 Zr3_3 1_555 1_555
C49_10 O12_6 1_555 1_555
C50_10 C49_10 1_555 1_555
O14_6 C49_10 1_555 1_555
C67_10 C50_10 1_555 1_555
H31_10 C67_10 1_555 1_555
H32_10 C68_10 1_555 1_555
Zr4_2 O14_6 1_555 1_555
Zr7_3 O11_6 1_555 1_555
O18_10 Zr3_3 1_555 1_555
O20_10 Zr3_3 1_555 1_555
O23_3 Zr3_3 1_555 1_555
O25_6 Zr3_3 1_555 1_555
O27_6 Zr3_3 1_555 1_555
O29_4 Zr3_3 1_555 1_555
C46_10 C47_10 1_555 1_555
C67_10 C68_10 1_555 1_555
Zr4_2 O23_3 1_555 1_555
Zr4_2 O27_6 1_555 1_555
Zr7_3 O23_3 1_555 1_555
Zr7_3 O29_4 1_555 1_555
O19_9 C1_10 1_555 1_555
C1_10 C2_10 1_555 1_555
O5_6 C1_10 1_555 1_555
C19_10 C2_10 1_555 1_555
H7_10 C19_10 1_555 1_555
H8_10 C20_10 1_555 1_555
C58_10 O22_9 1_555 1_555
C59_10 C58_10 1_555 1_555
O15_6 C58_10 1_555 1_555
C70_10 C59_10 1_555 1_555
H34_10 C70_10 1_555 1_555
H35_10 C71_10 1_555 1_555
O5_6 Zr11_6 1_555 1_555
C19_10 C20_10 1_555 1_555
O15_6 Zr10_8 1_555 1_555
C70_10 C71_10 1_555 1_555
C3_10 H1_10 1_555 1_555
C4_10 C3_10 1_555 1_555
H2_10 C4_10 1_555 1_555
C5_10 C4_10 1_555 1_555
C6_10 C5_10 1_555 1_555
C7_10 C6_10 1_555 1_555
C8_10 C7_10 1_555 1_555
C9_10 C8_10 1_555 1_555
H3_10 C9_10 1_555 1_555
O4_6 C10_10 1_555 1_555
C10_10 C11_10 1_555 1_555
C11_10 C12_10 1_555 1_555
C12_10 H4_10 1_555 1_555
C13_10 C12_10 1_555 1_555
H5_10 C13_10 1_555 1_555
C14_10 C13_10 1_555 1_555
C15_10 C14_10 1_555 1_555
C16_10 C15_10 1_555 1_555
C17_10 C16_10 1_555 1_555
C18_10 C9_10 1_555 1_555
H6_10 C18_10 1_555 1_555
C21_10 C8_10 1_555 1_555
H9_10 C21_10 1_555 1_555
O6_6 C10_10 1_555 1_555
C22_10 C11_10 1_555 1_555
H10_10 C22_10 1_555 1_555
C23_10 C14_10 1_555 1_555
H11_10 C23_10 1_555 1_555
C24_10 C17_10 1_555 1_555
H12_10 C24_10 1_555 1_555
O7_3 Zr2_3 1_555 1_555
Zr2_3 O4_6 1_555 1_555
O8_6 Zr2_3 1_555 1_555
C25_10 O8_6 1_555 1_555
C26_10 C25_10 1_555 1_555
C27_10 C26_10 1_555 1_555
H13_10 C27_10 1_555 1_555
C28_10 C27_10 1_555 1_555
H14_10 C28_10 1_555 1_555
C29_10 C28_10 1_555 1_555
C30_10 C29_10 1_555 1_555
C31_10 C30_10 1_555 1_555
C32_10 C31_10 1_555 1_555
C33_10 C32_10 1_555 1_555
H15_10 C33_10 1_555 1_555
C36_10 H16_10 1_555 1_555
C37_10 C36_10 1_555 1_555
H17_10 C37_10 1_555 1_555
C38_10 C37_10 1_555 1_555
C39_10 C38_10 1_555 1_555
C40_10 C39_10 1_555 1_555
C41_10 C40_10 1_555 1_555
C42_10 C33_10 1_555 1_555
H18_10 C42_10 1_555 1_555
O10_6 C25_10 1_555 1_555
C43_10 C26_10 1_555 1_555
H19_10 C43_10 1_555 1_555
C44_10 C29_10 1_555 1_555
H20_10 C44_10 1_555 1_555
C45_10 C32_10 1_555 1_555
H21_10 C45_10 1_555 1_555
C48_10 C41_10 1_555 1_555
H24_10 C48_10 1_555 1_555
H25_10 C51_10 1_555 1_555
C52_10 C51_10 1_555 1_555
H26_10 C52_10 1_555 1_555
C53_10 C52_10 1_555 1_555
C54_10 C53_10 1_555 1_555
C55_10 C54_10 1_555 1_555
C56_10 C55_10 1_555 1_555
C57_10 C56_10 1_555 1_555
H27_10 C57_10 1_555 1_555
H28_10 C60_10 1_555 1_555
C61_10 C60_10 1_555 1_555
H29_10 C61_10 1_555 1_555
C62_10 C61_10 1_555 1_555
C63_10 C62_10 1_555 1_555
C64_10 C63_10 1_555 1_555
C65_10 C64_10 1_555 1_555
C66_10 C57_10 1_555 1_555
H30_10 C66_10 1_555 1_555
C69_10 C56_10 1_555 1_555
H33_10 C69_10 1_555 1_555
C72_10 C65_10 1_555 1_555
H36_10 C72_10 1_555 1_555
Zr5_2 O6_6 1_555 1_555
Zr6_3 O7_3 1_555 1_555
O17_10 Zr2_3 1_555 1_555
O21_10 Zr2_3 1_555 1_555
O24_6 Zr2_3 1_555 1_555
O28_4 Zr2_3 1_555 1_555
O30_4 Zr2_3 1_555 1_555
C17_10 C18_10 1_555 1_555
C21_10 C24_10 1_555 1_555
C22_10 C23_10 1_555 1_555
O7_3 Zr5_2 1_555 1_555
C41_10 C42_10 1_555 1_555
O10_6 Zr6_3 1_555 1_555
C43_10 C44_10 1_555 1_555
C45_10 C48_10 1_555 1_555
C65_10 C66_10 1_555 1_555
C69_10 C72_10 1_555 1_555
Zr5_2 O28_4 1_555 1_555
Zr6_3 O30_4 1_555 1_555
Zr10_9 O30_4 1_555 1_555
Zr6_2 O28_4 1_555 1_555
Zr10_9 O24_6 1_555 1_555
Zr6_2 O24_6 1_555 1_555
O20_10 C10_11 1_555 1_555
C10_11 C11_11 1_555 1_555
O6_7 C10_11 1_555 1_555
C22_11 C11_11 1_555 1_555
H10_11 C22_11 1_555 1_555
H11_11 C23_11 1_555 1_555
C25_11 O18_10 1_555 1_555
C26_11 C25_11 1_555 1_555
O10_7 C25_11 1_555 1_555
C43_11 C26_11 1_555 1_555
H19_11 C43_11 1_555 1_555
H20_11 C44_11 1_555 1_555
Zr7_2 O6_7 1_555 1_555
Zr6_4 O25_6 1_555 1_555
C22_11 C23_11 1_555 1_555
O25_6 Zr7_2 1_555 1_555
O10_7 Zr6_4 1_555 1_555
C43_11 C44_11 1_555 1_555
Zr7_2 O27_6 1_555 1_555
Zr6_4 O29_4 1_555 1_555
O17_9 C1_11 1_555 1_555
C1_11 C2_11 1_555 1_555
O5_7 C1_11 1_555 1_555
C19_11 C2_11 1_555 1_555
H7_11 C19_11 1_555 1_555
H8_11 C20_11 1_555 1_555
C58_11 O21_9 1_555 1_555
C59_11 C58_11 1_555 1_555
O15_7 C58_11 1_555 1_555
C70_11 C59_11 1_555 1_555
H34_11 C70_11 1_555 1_555
H35_11 C71_11 1_555 1_555
Zr6_3 O24_5 1_555 1_555
Zr10_9 O24_5 1_555 1_555
O30_3 Zr10_9 1_555 1_555
O5_7 Zr6_3 1_555 1_555
C19_11 C20_11 1_555 1_555
O15_7 Zr10_9 1_555 1_555
C70_11 C71_11 1_555 1_555
O28_3 Zr6_3 1_555 1_555
C3_11 H1_11 1_555 1_555
C4_11 C3_11 1_555 1_555
H2_11 C4_11 1_555 1_555
C5_11 C4_11 1_555 1_555
C6_11 C5_11 1_555 1_555
C7_11 C6_11 1_555 1_555
C8_11 C7_11 1_555 1_555
C9_11 C8_11 1_555 1_555
H3_11 C9_11 1_555 1_555
C12_11 H4_11 1_555 1_555
C13_11 C12_11 1_555 1_555
H5_11 C13_11 1_555 1_555
C14_11 C13_11 1_555 1_555
C15_11 C14_11 1_555 1_555
C16_11 C15_11 1_555 1_555
C17_11 C16_11 1_555 1_555
C18_11 C9_11 1_555 1_555
H6_11 C18_11 1_555 1_555
C21_11 C8_11 1_555 1_555
H9_11 C21_11 1_555 1_555
C24_11 C17_11 1_555 1_555
H12_11 C24_11 1_555 1_555
H13_11 C27_11 1_555 1_555
C28_11 C27_11 1_555 1_555
H14_11 C28_11 1_555 1_555
C29_11 C28_11 1_555 1_555
C30_11 C29_11 1_555 1_555
C31_11 C30_11 1_555 1_555
C32_11 C31_11 1_555 1_555
C33_11 C32_11 1_555 1_555
H15_11 C33_11 1_555 1_555
O9_7 C34_11 1_555 1_555
C34_11 C35_11 1_555 1_555
C35_11 C36_11 1_555 1_555
C36_11 H16_11 1_555 1_555
C37_11 C36_11 1_555 1_555
H17_11 C37_11 1_555 1_555
C38_11 C37_11 1_555 1_555
C39_11 C38_11 1_555 1_555
C40_11 C39_11 1_555 1_555
C41_11 C40_11 1_555 1_555
C42_11 C33_11 1_555 1_555
H18_11 C42_11 1_555 1_555
C45_11 C32_11 1_555 1_555
H21_11 C45_11 1_555 1_555
O11_7 C34_11 1_555 1_555
C46_11 C35_11 1_555 1_555
H22_11 C46_11 1_555 1_555
C47_11 C38_11 1_555 1_555
H23_11 C47_11 1_555 1_555
C48_11 C41_11 1_555 1_555
H24_11 C48_11 1_555 1_555
Zr3_4 O9_7 1_555 1_555
O12_7 Zr3_4 1_555 1_555
C49_11 O12_7 1_555 1_555
C50_11 C49_11 1_555 1_555
C51_11 C50_11 1_555 1_555
H25_11 C51_11 1_555 1_555
C52_11 C51_11 1_555 1_555
H26_11 C52_11 1_555 1_555
C53_11 C52_11 1_555 1_555
C54_11 C53_11 1_555 1_555
C55_11 C54_11 1_555 1_555
C56_11 C55_11 1_555 1_555
C57_11 C56_11 1_555 1_555
H27_11 C57_11 1_555 1_555
H28_11 C60_11 1_555 1_555
C61_11 C60_11 1_555 1_555
H29_11 C61_11 1_555 1_555
C62_11 C61_11 1_555 1_555
C63_11 C62_11 1_555 1_555
C64_11 C63_11 1_555 1_555
C65_11 C64_11 1_555 1_555
C66_11 C57_11 1_555 1_555
H30_11 C66_11 1_555 1_555
O14_7 C49_11 1_555 1_555
C67_11 C50_11 1_555 1_555
H31_11 C67_11 1_555 1_555
C68_11 C53_11 1_555 1_555
H32_11 C68_11 1_555 1_555
C69_11 C56_11 1_555 1_555
H33_11 C69_11 1_555 1_555
C72_11 C65_11 1_555 1_555
H36_11 C72_11 1_555 1_555
Zr8_3 O14_7 1_555 1_555
Zr10_8 O11_7 1_555 1_555
O18_11 Zr3_4 1_555 1_555
O20_11 Zr3_4 1_555 1_555
O23_4 Zr3_4 1_555 1_555
O25_7 Zr3_4 1_555 1_555
O27_7 Zr3_4 1_555 1_555
O29_5 Zr3_4 1_555 1_555
C17_11 C18_11 1_555 1_555
C21_11 C24_11 1_555 1_555
C41_11 C42_11 1_555 1_555
C45_11 C48_11 1_555 1_555
C46_11 C47_11 1_555 1_555
C65_11 C66_11 1_555 1_555
C67_11 C68_11 1_555 1_555
C69_11 C72_11 1_555 1_555
Zr8_3 O23_4 1_555 1_555
Zr8_3 O27_7 1_555 1_555
Zr10_8 O23_4 1_555 1_555
Zr10_8 O29_5 1_555 1_555
Zr7_3 O27_5 1_555 1_555
Zr6_4 O29_3 1_555 1_555
Zr7_3 O25_5 1_555 1_555
Zr6_4 O25_5 1_555 1_555
Zr9_3 O27_7 1_555 1_555
Zr11_6 O29_5 1_555 1_555
Zr9_3 O25_7 1_555 1_555
Zr11_6 O25_7 1_555 1_555
O18_11 C1_12 1_555 1_555
C1_12 C2_12 1_555 1_555
C2_12 C3_12 1_555 1_555
C3_12 H1_12 1_555 1_555
C4_12 C3_12 1_555 1_555
H2_12 C4_12 1_555 1_555
C5_12 C4_12 1_555 1_555
C6_12 C5_12 1_555 1_555
C7_12 C6_12 1_555 1_555
C8_12 C7_12 1_555 1_555
C9_12 C8_12 1_555 1_555
H3_12 C9_12 1_555 1_555
O21_10 C10_12 1_555 1_555
C10_12 C11_12 1_555 1_555
C11_12 C12_12 1_555 1_555
C12_12 H4_12 1_555 1_555
C13_12 C12_12 1_555 1_555
H5_12 C13_12 1_555 1_555
C14_12 C13_12 1_555 1_555
C15_12 C14_12 1_555 1_555
C16_12 C15_12 1_555 1_555
C17_12 C16_12 1_555 1_555
C18_12 C9_12 1_555 1_555
H6_12 C18_12 1_555 1_555
O5_8 C1_12 1_555 1_555
C19_12 C2_12 1_555 1_555
H7_12 C19_12 1_555 1_555
C20_12 C5_12 1_555 1_555
H8_12 C20_12 1_555 1_555
C21_12 C8_12 1_555 1_555
H9_12 C21_12 1_555 1_555
O6_8 C10_12 1_555 1_555
C22_12 C11_12 1_555 1_555
H10_12 C22_12 1_555 1_555
C23_12 C14_12 1_555 1_555
H11_12 C23_12 1_555 1_555
C24_12 C17_12 1_555 1_555
H12_12 C24_12 1_555 1_555
C25_12 O17_10 1_555 1_555
C26_12 C25_12 1_555 1_555
C27_12 C26_12 1_555 1_555
H13_12 C27_12 1_555 1_555
C28_12 C27_12 1_555 1_555
H14_12 C28_12 1_555 1_555
C29_12 C28_12 1_555 1_555
C30_12 C29_12 1_555 1_555
C31_12 C30_12 1_555 1_555
C32_12 C31_12 1_555 1_555
C33_12 C32_12 1_555 1_555
H15_12 C33_12 1_555 1_555
O20_9 C34_12 1_555 1_555
C34_12 C35_12 1_555 1_555
C35_12 C36_12 1_555 1_555
C36_12 H16_12 1_555 1_555
C37_12 C36_12 1_555 1_555
H17_12 C37_12 1_555 1_555
C38_12 C37_12 1_555 1_555
C39_12 C38_12 1_555 1_555
C40_12 C39_12 1_555 1_555
C41_12 C40_12 1_555 1_555
C42_12 C33_12 1_555 1_555
H18_12 C42_12 1_555 1_555
O10_8 C25_12 1_555 1_555
C43_12 C26_12 1_555 1_555
H19_12 C43_12 1_555 1_555
C44_12 C29_12 1_555 1_555
H20_12 C44_12 1_555 1_555
C45_12 C32_12 1_555 1_555
H21_12 C45_12 1_555 1_555
O11_8 C34_12 1_555 1_555
C46_12 C35_12 1_555 1_555
H22_12 C46_12 1_555 1_555
C47_12 C38_12 1_555 1_555
H23_12 C47_12 1_555 1_555
C48_12 C41_12 1_555 1_555
H24_12 C48_12 1_555 1_555
C49_12 O18_9 1_555 1_555
C50_12 C49_12 1_555 1_555
C51_12 C50_12 1_555 1_555
H25_12 C51_12 1_555 1_555
C52_12 C51_12 1_555 1_555
H26_12 C52_12 1_555 1_555
C53_12 C52_12 1_555 1_555
C54_12 C53_12 1_555 1_555
C55_12 C54_12 1_555 1_555
C56_12 C55_12 1_555 1_555
C57_12 C56_12 1_555 1_555
H27_12 C57_12 1_555 1_555
C58_12 O20_11 1_555 1_555
C59_12 C58_12 1_555 1_555
C60_12 C59_12 1_555 1_555
H28_12 C60_12 1_555 1_555
C61_12 C60_12 1_555 1_555
H29_12 C61_12 1_555 1_555
C62_12 C61_12 1_555 1_555
C63_12 C62_12 1_555 1_555
C64_12 C63_12 1_555 1_555
C65_12 C64_12 1_555 1_555
C66_12 C57_12 1_555 1_555
H30_12 C66_12 1_555 1_555
O14_8 C49_12 1_555 1_555
C67_12 C50_12 1_555 1_555
H31_12 C67_12 1_555 1_555
C68_12 C53_12 1_555 1_555
H32_12 C68_12 1_555 1_555
C69_12 C56_12 1_555 1_555
H33_12 C69_12 1_555 1_555
O15_8 C58_12 1_555 1_555
C70_12 C59_12 1_555 1_555
H34_12 C70_12 1_555 1_555
C71_12 C62_12 1_555 1_555
H35_12 C71_12 1_555 1_555
C72_12 C65_12 1_555 1_555
H36_12 C72_12 1_555 1_555
Zr6_4 O14_8 1_555 1_555
Zr10_9 O6_8 1_555 1_555
Zr7_3 O11_8 1_555 1_555
C17_12 C18_12 1_555 1_555
O5_8 Zr11_6 1_555 1_555
C19_12 C20_12 1_555 1_555
C21_12 C24_12 1_555 1_555
C22_12 C23_12 1_555 1_555
C41_12 C42_12 1_555 1_555
O10_8 Zr6_2 1_555 1_555
C43_12 C44_12 1_555 1_555
C45_12 C48_12 1_555 1_555
C46_12 C47_12 1_555 1_555
C65_12 C66_12 1_555 1_555
C67_12 C68_12 1_555 1_555
C69_12 C72_12 1_555 1_555
O15_8 Zr9_3 1_555 1_555
C70_12 C71_12 1_555 1_555
O8_7 Zr11_6 1_555 1_555
C25_13 O8_7 1_555 1_555
C26_13 C25_13 1_555 1_555
C27_13 C26_13 1_555 1_555
H13_13 C27_13 1_555 1_555
C28_13 C27_13 1_555 1_555
H14_13 C28_13 1_555 1_555
C29_13 C28_13 1_555 1_555
C30_13 C29_13 1_555 1_555
C31_13 C30_13 1_555 1_555
C32_13 C31_13 1_555 1_555
C33_13 C32_13 1_555 1_555
H15_13 C33_13 1_555 1_555
O9_8 C34_13 1_555 1_555
C34_13 C35_13 1_555 1_555
C35_13 C36_13 1_555 1_555
C36_13 H16_13 1_555 1_555
C37_13 C36_13 1_555 1_555
H17_13 C37_13 1_555 1_555
C38_13 C37_13 1_555 1_555
C39_13 C38_13 1_555 1_555
C40_13 C39_13 1_555 1_555
C41_13 C40_13 1_555 1_555
C42_13 C33_13 1_555 1_555
H18_13 C42_13 1_555 1_555
O10_9 C25_13 1_555 1_555
C43_13 C26_13 1_555 1_555
H19_13 C43_13 1_555 1_555
C44_13 C29_13 1_555 1_555
H20_13 C44_13 1_555 1_555
C45_13 C32_13 1_555 1_555
H21_13 C45_13 1_555 1_555
O11_9 C34_13 1_555 1_555
C46_13 C35_13 1_555 1_555
H22_13 C46_13 1_555 1_555
C47_13 C38_13 1_555 1_555
H23_13 C47_13 1_555 1_555
C48_13 C41_13 1_555 1_555
H24_13 C48_13 1_555 1_555
Zr3_5 O9_8 1_555 1_555
O12_8 Zr3_5 1_555 1_555
C49_13 O12_8 1_555 1_555
C50_13 C49_13 1_555 1_555
C51_13 C50_13 1_555 1_555
H25_13 C51_13 1_555 1_555
C52_13 C51_13 1_555 1_555
H26_13 C52_13 1_555 1_555
C53_13 C52_13 1_555 1_555
C54_13 C53_13 1_555 1_555
C55_13 C54_13 1_555 1_555
C56_13 C55_13 1_555 1_555
C57_13 C56_13 1_555 1_555
H27_13 C57_13 1_555 1_555
O13_6 Zr10_9 1_555 1_555
C58_13 O13_6 1_555 1_555
C59_13 C58_13 1_555 1_555
C60_13 C59_13 1_555 1_555
H28_13 C60_13 1_555 1_555
C61_13 C60_13 1_555 1_555
H29_13 C61_13 1_555 1_555
C62_13 C61_13 1_555 1_555
C63_13 C62_13 1_555 1_555
C64_13 C63_13 1_555 1_555
C65_13 C64_13 1_555 1_555
C66_13 C57_13 1_555 1_555
H30_13 C66_13 1_555 1_555
O14_9 C49_13 1_555 1_555
C67_13 C50_13 1_555 1_555
H31_13 C67_13 1_555 1_555
C68_13 C53_13 1_555 1_555
H32_13 C68_13 1_555 1_555
C69_13 C56_13 1_555 1_555
H33_13 C69_13 1_555 1_555
O15_9 C58_13 1_555 1_555
C70_13 C59_13 1_555 1_555
H34_13 C70_13 1_555 1_555
C71_13 C62_13 1_555 1_555
H35_13 C71_13 1_555 1_555
C72_13 C65_13 1_555 1_555
H36_13 C72_13 1_555 1_555
Zr4_3 O14_9 1_555 1_555
Zr7_4 O11_9 1_555 1_555
O17_11 Zr11_6 1_555 1_555
O18_12 Zr3_5 1_555 1_555
O20_12 Zr3_5 1_555 1_555
O22_10 Zr10_9 1_555 1_555
O23_5 Zr3_5 1_555 1_555
O25_8 Zr3_5 1_555 1_555
O27_8 Zr3_5 1_555 1_555
O29_6 Zr3_5 1_555 1_555
C41_13 C42_13 1_555 1_555
O10_9 Zr9_3 1_555 1_555
C43_13 C44_13 1_555 1_555
C45_13 C48_13 1_555 1_555
C46_13 C47_13 1_555 1_555
C65_13 C66_13 1_555 1_555
C67_13 C68_13 1_555 1_555
C69_13 C72_13 1_555 1_555
O15_9 Zr6_2 1_555 1_555
C70_13 C71_13 1_555 1_555
Zr4_3 O23_5 1_555 1_555
Zr4_3 O27_8 1_555 1_555
Zr7_4 O23_5 1_555 1_555
Zr7_4 O29_6 1_555 1_555
O9_9 C34_14 1_555 1_555
C34_14 C35_14 1_555 1_555
O11_10 C34_14 1_555 1_555
Zr3_6 O9_9 1_555 1_555
O12_9 Zr3_6 1_555 1_555
C49_14 O12_9 1_555 1_555
C50_14 C49_14 1_555 1_555
O14_10 C49_14 1_555 1_555
C67_14 C50_14 1_555 1_555
H31_14 C67_14 1_555 1_555
H32_14 C68_14 1_555 1_555
Zr4_3 O14_10 1_555 1_555
Zr7_5 O11_10 1_555 1_555
O18_13 Zr3_6 1_555 1_555
O20_13 Zr3_6 1_555 1_555
O23_6 Zr3_6 1_555 1_555
O25_9 Zr3_6 1_555 1_555
O27_9 Zr3_6 1_555 1_555
O29_7 Zr3_6 1_555 1_555
C67_14 C68_14 1_555 1_555
Zr4_3 O23_6 1_555 1_555
Zr4_3 O27_9 1_555 1_555
Zr7_5 O23_6 1_555 1_555
Zr7_5 O29_7 1_555 1_555
H22_14 C46_14 1_555 1_555
H23_14 C47_14 1_555 1_555
C46_14 C47_14 1_555 1_555
C36_14 H16_14 1_555 1_555
C37_14 C36_14 1_555 1_555
H17_14 C37_14 1_555 1_555
H25_14 C51_14 1_555 1_555
C52_14 C51_14 1_555 1_555
H26_14 C52_14 1_555 1_555
C53_14 C52_14 1_555 1_555
C54_14 C53_14 1_555 1_555
C55_14 C54_14 1_555 1_555
C56_14 C55_14 1_555 1_555
C57_14 C56_14 1_555 1_555
H27_14 C57_14 1_555 1_555
C58_14 O22_10 1_555 1_555
C59_14 C58_14 1_555 1_555
C60_14 C59_14 1_555 1_555
H28_14 C60_14 1_555 1_555
C61_14 C60_14 1_555 1_555
H29_14 C61_14 1_555 1_555
C62_14 C61_14 1_555 1_555
C63_14 C62_14 1_555 1_555
C64_14 C63_14 1_555 1_555
C65_14 C64_14 1_555 1_555
C66_14 C57_14 1_555 1_555
H30_14 C66_14 1_555 1_555
C69_14 C56_14 1_555 1_555
H33_14 C69_14 1_555 1_555
O15_10 C58_14 1_555 1_555
C70_14 C59_14 1_555 1_555
H34_14 C70_14 1_555 1_555
C71_14 C62_14 1_555 1_555
H35_14 C71_14 1_555 1_555
C72_14 C65_14 1_555 1_555
H36_14 C72_14 1_555 1_555
C65_14 C66_14 1_555 1_555
C69_14 C72_14 1_555 1_555
O15_10 Zr6_3 1_555 1_555
C70_14 C71_14 1_555 1_555
O8_8 Zr8_3 1_555 1_555
C25_14 O8_8 1_555 1_555
C26_14 C25_14 1_555 1_555
C27_14 C26_14 1_555 1_555
H13_14 C27_14 1_555 1_555
C28_14 C27_14 1_555 1_555
H14_14 C28_14 1_555 1_555
C29_14 C28_14 1_555 1_555
C30_14 C29_14 1_555 1_555
C31_14 C30_14 1_555 1_555
C32_14 C31_14 1_555 1_555
C33_14 C32_14 1_555 1_555
H15_14 C33_14 1_555 1_555
C39_14 C38_14 1_555 1_555
C40_14 C39_14 1_555 1_555
C41_14 C40_14 1_555 1_555
C42_14 C33_14 1_555 1_555
H18_14 C42_14 1_555 1_555
O10_10 C25_14 1_555 1_555
C43_14 C26_14 1_555 1_555
H19_14 C43_14 1_555 1_555
C44_14 C29_14 1_555 1_555
H20_14 C44_14 1_555 1_555
C45_14 C32_14 1_555 1_555
H21_14 C45_14 1_555 1_555
C48_14 C41_14 1_555 1_555
H24_14 C48_14 1_555 1_555
O17_12 Zr8_3 1_555 1_555
C41_14 C42_14 1_555 1_555
O10_10 Zr10_8 1_555 1_555
C43_14 C44_14 1_555 1_555
C45_14 C48_14 1_555 1_555
O20_13 C10_13 1_555 1_555
C10_13 C11_13 1_555 1_555
O6_9 C10_13 1_555 1_555
C22_13 C11_13 1_555 1_555
H10_13 C22_13 1_555 1_555
H11_13 C23_13 1_555 1_555
C25_15 O18_13 1_555 1_555
C26_15 C25_15 1_555 1_555
O10_11 C25_15 1_555 1_555
Zr7_4 O6_9 1_555 1_555
Zr6_5 O25_9 1_555 1_555
C22_13 C23_13 1_555 1_555
O25_9 Zr7_4 1_555 1_555
O10_11 Zr6_5 1_555 1_555
Zr7_4 O27_9 1_555 1_555
Zr6_5 O29_7 1_555 1_555
H19_15 C43_15 1_555 1_555
H20_15 C44_15 1_555 1_555
C43_15 C44_15 1_555 1_555
O17_11 C1_13 1_555 1_555
C1_13 C2_13 1_555 1_555
C2_13 C3_13 1_555 1_555
C3_13 H1_13 1_555 1_555
C4_13 C3_13 1_555 1_555
H2_13 C4_13 1_555 1_555
C5_13 C4_13 1_555 1_555
C6_13 C5_13 1_555 1_555
C7_13 C6_13 1_555 1_555
C8_13 C7_13 1_555 1_555
C9_13 C8_13 1_555 1_555
H3_13 C9_13 1_555 1_555
C12_13 H4_13 1_555 1_555
C13_13 C12_13 1_555 1_555
H5_13 C13_13 1_555 1_555
C14_13 C13_13 1_555 1_555
C15_13 C14_13 1_555 1_555
C16_13 C15_13 1_555 1_555
C17_13 C16_13 1_555 1_555
C18_13 C9_13 1_555 1_555
H6_13 C18_13 1_555 1_555
O5_9 C1_13 1_555 1_555
C19_13 C2_13 1_555 1_555
H7_13 C19_13 1_555 1_555
C20_13 C5_13 1_555 1_555
H8_13 C20_13 1_555 1_555
C21_13 C8_13 1_555 1_555
H9_13 C21_13 1_555 1_555
C24_13 C17_13 1_555 1_555
H12_13 C24_13 1_555 1_555
H13_15 C27_15 1_555 1_555
C28_15 C27_15 1_555 1_555
H14_15 C28_15 1_555 1_555
C17_13 C18_13 1_555 1_555
O5_9 Zr10_8 1_555 1_555
C19_13 C20_13 1_555 1_555
C21_13 C24_13 1_555 1_555
C30_15 C29_15 1_555 1_555
C31_15 C30_15 1_555 1_555
C32_15 C31_15 1_555 1_555
C33_15 C32_15 1_555 1_555
H15_15 C33_15 1_555 1_555
O9_10 C34_15 1_555 1_555
C34_15 C35_15 1_555 1_555
C35_15 C36_15 1_555 1_555
C36_15 H16_15 1_555 1_555
C37_15 C36_15 1_555 1_555
H17_15 C37_15 1_555 1_555
C38_15 C37_15 1_555 1_555
C39_15 C38_15 1_555 1_555
C40_15 C39_15 1_555 1_555
C41_15 C40_15 1_555 1_555
C42_15 C33_15 1_555 1_555
H18_15 C42_15 1_555 1_555
C45_15 C32_15 1_555 1_555
H21_15 C45_15 1_555 1_555
O11_11 C34_15 1_555 1_555
C46_15 C35_15 1_555 1_555
H22_15 C46_15 1_555 1_555
C47_15 C38_15 1_555 1_555
H23_15 C47_15 1_555 1_555
C48_15 C41_15 1_555 1_555
H24_15 C48_15 1_555 1_555
Zr5_2 O9_10 1_555 1_555
Zr6_3 O11_11 1_555 1_555
O20_14 Zr5_2 1_555 1_555
C41_15 C42_15 1_555 1_555
C45_15 C48_15 1_555 1_555
C46_15 C47_15 1_555 1_555
Zr7_5 O27_8 1_555 1_555
Zr6_5 O29_6 1_555 1_555
Zr7_5 O25_8 1_555 1_555
Zr6_5 O25_8 1_555 1_555
O20_12 C34_16 1_555 1_555
C34_16 C35_16 1_555 1_555
C35_16 C36_16 1_555 1_555
C36_16 H16_16 1_555 1_555
C37_16 C36_16 1_555 1_555
H17_16 C37_16 1_555 1_555
O11_12 C34_16 1_555 1_555
C49_15 O18_12 1_555 1_555
C50_15 C49_15 1_555 1_555
C51_15 C50_15 1_555 1_555
H25_15 C51_15 1_555 1_555
C52_15 C51_15 1_555 1_555
H26_15 C52_15 1_555 1_555
O14_11 C49_15 1_555 1_555
Zr6_5 O14_11 1_555 1_555
Zr7_5 O11_12 1_555 1_555
C54_15 C53_15 1_555 1_555
C55_15 C54_15 1_555 1_555
C56_15 C55_15 1_555 1_555
C57_15 C56_15 1_555 1_555
H27_15 C57_15 1_555 1_555
C58_15 O20_14 1_555 1_555
C59_15 C58_15 1_555 1_555
C60_15 C59_15 1_555 1_555
H28_15 C60_15 1_555 1_555
C61_15 C60_15 1_555 1_555
H29_15 C61_15 1_555 1_555
C62_15 C61_15 1_555 1_555
C63_15 C62_15 1_555 1_555
C64_15 C63_15 1_555 1_555
C65_15 C64_15 1_555 1_555
C66_15 C57_15 1_555 1_555
H30_15 C66_15 1_555 1_555
H31_15 C67_15 1_555 1_555
C68_15 C53_15 1_555 1_555
H32_15 C68_15 1_555 1_555
C69_15 C56_15 1_555 1_555
H33_15 C69_15 1_555 1_555
O15_11 C58_15 1_555 1_555
C70_15 C59_15 1_555 1_555
H34_15 C70_15 1_555 1_555
C71_15 C62_15 1_555 1_555
H35_15 C71_15 1_555 1_555
C72_15 C65_15 1_555 1_555
H36_15 C72_15 1_555 1_555
C65_15 C66_15 1_555 1_555
C67_15 C68_15 1_555 1_555
C69_15 C72_15 1_555 1_555
O15_11 Zr6_2 1_555 1_555
C70_15 C71_15 1_555 1_555
C25_16 O17_12 1_555 1_555
C26_16 C25_16 1_555 1_555
C27_16 C26_16 1_555 1_555
H13_16 C27_16 1_555 1_555
C28_16 C27_16 1_555 1_555
H14_16 C28_16 1_555 1_555
C29_16 C28_16 1_555 1_555
C30_16 C29_16 1_555 1_555
C31_16 C30_16 1_555 1_555
C32_16 C31_16 1_555 1_555
C33_16 C32_16 1_555 1_555
H15_16 C33_16 1_555 1_555
C39_16 C38_16 1_555 1_555
C40_16 C39_16 1_555 1_555
C41_16 C40_16 1_555 1_555
C42_16 C33_16 1_555 1_555
H18_16 C42_16 1_555 1_555
O10_12 C25_16 1_555 1_555
C43_16 C26_16 1_555 1_555
H19_16 C43_16 1_555 1_555
C44_16 C29_16 1_555 1_555
H20_16 C44_16 1_555 1_555
C45_16 C32_16 1_555 1_555
H21_16 C45_16 1_555 1_555
H22_16 C46_16 1_555 1_555
C47_16 C38_16 1_555 1_555
H23_16 C47_16 1_555 1_555
C48_16 C41_16 1_555 1_555
H24_16 C48_16 1_555 1_555
C41_16 C42_16 1_555 1_555
O10_12 Zr9_3 1_555 1_555
C43_16 C44_16 1_555 1_555
C45_16 C48_16 1_555 1_555
C46_16 C47_16 1_555 1_555
O4_7 C10_14 1_555 1_555
C10_14 C11_14 1_555 1_555
O6_10 C10_14 1_555 1_555
C22_14 C11_14 1_555 1_555
H10_14 C22_14 1_555 1_555
H11_14 C23_14 1_555 1_555
Zr7_5 O4_7 1_555 1_555
Zr4_3 O6_10 1_555 1_555
O21_11 Zr7_5 1_555 1_555
C22_14 C23_14 1_555 1_555
Zr6_4 O1_6 1_555 1_555
O1_6 C1_14 1_555 1_555
C1_14 C2_14 1_555 1_555
C2_14 C3_14 1_555 1_555
C3_14 H1_14 1_555 1_555
C4_14 C3_14 1_555 1_555
H2_14 C4_14 1_555 1_555
C5_14 C4_14 1_555 1_555
C6_14 C5_14 1_555 1_555
C7_14 C6_14 1_555 1_555
C8_14 C7_14 1_555 1_555
C9_14 C8_14 1_555 1_555
H3_14 C9_14 1_555 1_555
C12_14 H4_14 1_555 1_555
C13_14 C12_14 1_555 1_555
H5_14 C13_14 1_555 1_555
C14_14 C13_14 1_555 1_555
C15_14 C14_14 1_555 1_555
C16_14 C15_14 1_555 1_555
C17_14 C16_14 1_555 1_555
C18_14 C9_14 1_555 1_555
H6_14 C18_14 1_555 1_555
O5_10 C1_14 1_555 1_555
C19_14 C2_14 1_555 1_555
H7_14 C19_14 1_555 1_555
C20_14 C5_14 1_555 1_555
H8_14 C20_14 1_555 1_555
C21_14 C8_14 1_555 1_555
H9_14 C21_14 1_555 1_555
C24_14 C17_14 1_555 1_555
H12_14 C24_14 1_555 1_555
O19_10 Zr6_4 1_555 1_555
C17_14 C18_14 1_555 1_555
O5_10 Zr7_2 1_555 1_555
C19_14 C20_14 1_555 1_555
C21_14 C24_14 1_555 1_555
O19_10 C1_15 1_555 1_555
C1_15 C2_15 1_555 1_555
C2_15 C3_15 1_555 1_555
C3_15 H1_15 1_555 1_555
C4_15 C3_15 1_555 1_555
H2_15 C4_15 1_555 1_555
C5_15 C4_15 1_555 1_555
C6_15 C5_15 1_555 1_555
C7_15 C6_15 1_555 1_555
C8_15 C7_15 1_555 1_555
C9_15 C8_15 1_555 1_555
H3_15 C9_15 1_555 1_555
O4_8 C10_15 1_555 1_555
C10_15 C11_15 1_555 1_555
C11_15 C12_15 1_555 1_555
C12_15 H4_15 1_555 1_555
C13_15 C12_15 1_555 1_555
H5_15 C13_15 1_555 1_555
C14_15 C13_15 1_555 1_555
C15_15 C14_15 1_555 1_555
C16_15 C15_15 1_555 1_555
C17_15 C16_15 1_555 1_555
C18_15 C9_15 1_555 1_555
H6_15 C18_15 1_555 1_555
O5_11 C1_15 1_555 1_555
C19_15 C2_15 1_555 1_555
H7_15 C19_15 1_555 1_555
C20_15 C5_15 1_555 1_555
H8_15 C20_15 1_555 1_555
C21_15 C8_15 1_555 1_555
H9_15 C21_15 1_555 1_555
O6_11 C10_15 1_555 1_555
C22_15 C11_15 1_555 1_555
H10_15 C22_15 1_555 1_555
C23_15 C14_15 1_555 1_555
H11_15 C23_15 1_555 1_555
C24_15 C17_15 1_555 1_555
H12_15 C24_15 1_555 1_555
Zr7_4 O4_8 1_555 1_555
Zr4_3 O6_11 1_555 1_555
O21_12 Zr7_4 1_555 1_555
C17_15 C18_15 1_555 1_555
O5_11 Zr7_3 1_555 1_555
C19_15 C20_15 1_555 1_555
C21_15 C24_15 1_555 1_555
C22_15 C23_15 1_555 1_555
C58_16 O21_11 1_555 1_555
C59_16 C58_16 1_555 1_555
O15_12 C58_16 1_555 1_555
O15_12 Zr6_5 1_555 1_555
H34_16 C70_16 1_555 1_555
H35_16 C71_16 1_555 1_555
C70_16 C71_16 1_555 1_555
H28_16 C60_16 1_555 1_555
C61_16 C60_16 1_555 1_555
H29_16 C61_16 1_555 1_555
O12_10 Zr4_2 1_555 1_555
C49_16 O12_10 1_555 1_555
C50_16 C49_16 1_555 1_555
C51_16 C50_16 1_555 1_555
H25_16 C51_16 1_555 1_555
C52_16 C51_16 1_555 1_555
H26_16 C52_16 1_555 1_555
C53_16 C52_16 1_555 1_555
C54_16 C53_16 1_555 1_555
C55_16 C54_16 1_555 1_555
C56_16 C55_16 1_555 1_555
C57_16 C56_16 1_555 1_555
H27_16 C57_16 1_555 1_555
C63_16 C62_16 1_555 1_555
C64_16 C63_16 1_555 1_555
C65_16 C64_16 1_555 1_555
C66_16 C57_16 1_555 1_555
H30_16 C66_16 1_555 1_555
O14_12 C49_16 1_555 1_555
C67_16 C50_16 1_555 1_555
H31_16 C67_16 1_555 1_555
C68_16 C53_16 1_555 1_555
H32_16 C68_16 1_555 1_555
C69_16 C56_16 1_555 1_555
H33_16 C69_16 1_555 1_555
C72_16 C65_16 1_555 1_555
H36_16 C72_16 1_555 1_555
Zr7_2 O14_12 1_555 1_555
O18_14 Zr4_2 1_555 1_555
C65_16 C66_16 1_555 1_555
C67_16 C68_16 1_555 1_555
C69_16 C72_16 1_555 1_555
O21_12 C10_16 1_555 1_555
C10_16 C11_16 1_555 1_555
C11_16 C12_16 1_555 1_555
C12_16 H4_16 1_555 1_555
C13_16 C12_16 1_555 1_555
H5_16 C13_16 1_555 1_555
O6_12 C10_16 1_555 1_555
Zr6_5 O6_12 1_555 1_555
O18_14 C1_16 1_555 1_555
C1_16 C2_16 1_555 1_555
C2_16 C3_16 1_555 1_555
C3_16 H1_16 1_555 1_555
C4_16 C3_16 1_555 1_555
H2_16 C4_16 1_555 1_555
C5_16 C4_16 1_555 1_555
C6_16 C5_16 1_555 1_555
C7_16 C6_16 1_555 1_555
C8_16 C7_16 1_555 1_555
C9_16 C8_16 1_555 1_555
H3_16 C9_16 1_555 1_555
C15_16 C14_16 1_555 1_555
C16_16 C15_16 1_555 1_555
C17_16 C16_16 1_555 1_555
C18_16 C9_16 1_555 1_555
H6_16 C18_16 1_555 1_555
O5_12 C1_16 1_555 1_555
C19_16 C2_16 1_555 1_555
H7_16 C19_16 1_555 1_555
C20_16 C5_16 1_555 1_555
H8_16 C20_16 1_555 1_555
C21_16 C8_16 1_555 1_555
H9_16 C21_16 1_555 1_555
H10_16 C22_16 1_555 1_555
C23_16 C14_16 1_555 1_555
H11_16 C23_16 1_555 1_555
C24_16 C17_16 1_555 1_555
H12_16 C24_16 1_555 1_555
C17_16 C18_16 1_555 1_555
O5_12 Zr7_3 1_555 1_555
C19_16 C20_16 1_555 1_555
C21_16 C24_16 1_555 1_555
C22_16 C23_16 1_555 1_555

#END
