
###############################################################################
#
# This file contains modified crystal structure data generated from the
# MOF subset of the Cambridge Structural Database (CSD) v543 
# hosted by the Cambridge Crystallographic Data Centre (CCDC).
#
# This work is licensed under the Creative Commons
# Attribution-NonCommercial-ShareAlike 4.0 International License.
# To view a copy of this license, visit
# http://creativecommons.org/licenses/by-nc-sa/4.0/
# or send a letter to
# Creative Commons, PO Box 1866, Mountain View, CA 94042, USA.
#
# CIF created using the CSD Python API on 29 September 2022
# The structure has been converted into the P1 space group
# The structure has a 3D framework
# The original CSD entry WUPTUY is in the cubic crystal system
# The framework has been calculated to contain at least 10.0% void space
# The void calculation uses a probe of radius 1.32A, grid spacing 0.4
#
###############################################################################

data_WUPTUY
_chemical_formula_moiety         '(C1152 H576 O228 Zr32)n'
_symmetry_cell_setting           triclinic
_symmetry_space_group_name_H-M   'P 1'
_symmetry_Int_Tables_number      1
_space_group_name_Hall           'P 1'
loop_
_symmetry_equiv_pos_site_id
_symmetry_equiv_pos_as_xyz
1 x,y,z
_cell_length_a                   39.8961(7)
_cell_length_b                   39.8961(7)
_cell_length_c                   39.8961(7)
_cell_angle_alpha                90
_cell_angle_beta                 90
_cell_angle_gamma                90
_cell_volume                     63502.6
loop_
_atom_site_label
_atom_site_type_symbol
_atom_site_fract_x
_atom_site_fract_y
_atom_site_fract_z
O14 O 0.57607(3) 0.03600(3) 0.12407(3)
C58 C 0.48680(7) 0.02852(7) 0.11267(10)
H28 H 0.4806 0.0510 0.1139
C59 C 0.46271(7) 0.00439(8) 0.10754(12)
H29 H 0.4403 0.0106 0.1061
C64 C 0.54621(5) 0.04621(5) 0.12167(7)
C66 C 0.51981(5) 0.01981(5) 0.11592(9)
O16 O 0.53600(3) 0.07607(3) 0.12407(3)
Zr5 Zr 0.6250 0.06281(2) 0.1250
Zr8 Zr 0.56281(2) 0.1250 0.1250
Zr1 Zr 0.18719(2) 0.6250 0.1250
O1 O 0.21400(3) 0.57607(3) 0.12593(3)
C1 C 0.22148(7) 0.48680(7) 0.13733(10)
H1 H 0.1990 0.4806 0.1361
O2 O 0.15265(6) 0.59736(6) 0.15265(6)
C2 C 0.24561(8) 0.46271(7) 0.14246(12)
H2 H 0.2394 0.4403 0.1439
C3 C 0.27866(6) 0.47134(6) 0.14548(14)
O3 O 0.15864(6) 0.65864(6) 0.15864(6)
C4 C 0.30424(7) 0.44576(7) 0.15064(16)
C5 C 0.32475(7) 0.42525(7) 0.15525(15)
C6 C 0.35012(7) 0.39988(7) 0.15704(16)
C7 C 0.20379(5) 0.54621(5) 0.12833(7)
C8 C 0.38171(14) 0.40659(14) 0.1603(2)
H3 H 0.3882 0.4288 0.1628
C9 C 0.23019(5) 0.51981(5) 0.13408(9)
O4 O 0.57607(3) 0.21400(3) 0.12593(3)
C10 C 0.48680(7) 0.22148(7) 0.13733(10)
H4 H 0.4806 0.1990 0.1361
C11 C 0.46271(7) 0.24561(8) 0.14246(12)
H5 H 0.4403 0.2394 0.1439
C12 C 0.47134(6) 0.27866(6) 0.14548(14)
C13 C 0.44576(7) 0.30424(7) 0.15064(16)
C14 C 0.42525(7) 0.32475(7) 0.15525(15)
C15 C 0.39988(7) 0.35012(7) 0.15704(16)
C16 C 0.54621(5) 0.20379(5) 0.12833(7)
C17 C 0.40659(14) 0.38171(14) 0.1603(2)
H6 H 0.4288 0.3882 0.1628
C18 C 0.51981(5) 0.23019(5) 0.13408(9)
O5 O 0.17393(3) 0.53600(3) 0.12593(3)
C19 C 0.26320(7) 0.52852(7) 0.13733(10)
H7 H 0.2694 0.5510 0.1361
C20 C 0.28729(7) 0.50439(8) 0.14246(12)
H8 H 0.3097 0.5106 0.1439
C21 C 0.34341(14) 0.36829(14) 0.1603(2)
H9 H 0.3212 0.3618 0.1628
O6 O 0.53600(3) 0.17393(3) 0.12593(3)
C22 C 0.52852(7) 0.26320(7) 0.13733(10)
H10 H 0.5510 0.2694 0.1361
C23 C 0.50439(8) 0.28729(7) 0.14246(12)
H11 H 0.5106 0.3097 0.1439
C24 C 0.36829(14) 0.34341(14) 0.1603(2)
H12 H 0.3618 0.3212 0.1628
Zr2 Zr 0.1250 0.68719(2) 0.1250
O7 O 0.09735(6) 0.65265(6) 0.15264(6)
O8 O 0.09136(6) 0.65864(6) 0.09136(6)
Zr3 Zr 0.1250 0.6250 0.06281(2)
O9 O 0.17393(3) 0.62407(3) 0.21400(3)
C25 C 0.26320(7) 0.61267(10) 0.22148(7)
H13 H 0.2694 0.6139 0.1990
C26 C 0.28729(7) 0.60754(12) 0.24561(8)
H14 H 0.3097 0.6061 0.2394
C27 C 0.27866(6) 0.60452(14) 0.27866(6)
C28 C 0.30424(7) 0.59936(16) 0.30424(7)
C29 C 0.32475(7) 0.59475(15) 0.32475(7)
C30 C 0.35012(7) 0.59296(16) 0.35012(7)
C31 C 0.20379(5) 0.62167(7) 0.20379(5)
C32 C 0.34341(14) 0.5897(2) 0.38171(14)
H15 H 0.3212 0.5872 0.3882
C33 C 0.23019(5) 0.61592(9) 0.23019(5)
O10 O 0.53600(3) 0.62407(3) 0.57607(3)
C34 C 0.52852(7) 0.61267(10) 0.48680(7)
H16 H 0.5510 0.6139 0.4806
C35 C 0.50439(8) 0.60754(12) 0.46271(7)
H17 H 0.5106 0.6061 0.4403
C36 C 0.47134(6) 0.60452(14) 0.47134(6)
C37 C 0.44576(7) 0.59936(16) 0.44576(7)
C38 C 0.42525(7) 0.59475(15) 0.42525(7)
C39 C 0.39988(7) 0.59296(16) 0.39988(7)
C40 C 0.54621(5) 0.62167(7) 0.54621(5)
C41 C 0.36829(14) 0.5897(2) 0.40659(14)
H18 H 0.3618 0.5872 0.4288
C42 C 0.51981(5) 0.61592(9) 0.51981(5)
O11 O 0.21400(3) 0.62407(3) 0.17393(3)
C43 C 0.22148(7) 0.61267(10) 0.26320(7)
H19 H 0.1990 0.6139 0.2694
C44 C 0.24561(8) 0.60754(12) 0.28729(7)
H20 H 0.2394 0.6061 0.3097
C45 C 0.38171(14) 0.5897(2) 0.34341(14)
H21 H 0.3882 0.5872 0.3212
O12 O 0.57607(3) 0.62407(3) 0.53600(3)
C46 C 0.48680(7) 0.61267(10) 0.52852(7)
H22 H 0.4806 0.6139 0.5510
C47 C 0.46271(7) 0.60754(12) 0.50439(8)
H23 H 0.4403 0.6061 0.5106
C48 C 0.40659(14) 0.5897(2) 0.36829(14)
H24 H 0.4288 0.5872 0.3618
O13 O 0.21400(3) 0.67393(3) 0.12407(3)
C49 C 0.22148(7) 0.76320(7) 0.11267(10)
H25 H 0.1990 0.7694 0.1139
C50 C 0.24561(8) 0.78729(7) 0.10754(12)
H26 H 0.2394 0.8097 0.1061
C51 C 0.27866(6) 0.77866(6) 0.10452(14)
C52 C 0.30424(7) 0.80424(7) 0.09936(16)
C53 C 0.32475(7) 0.82475(7) 0.09475(15)
C54 C 0.35012(7) 0.85012(7) 0.09296(16)
C55 C 0.20379(5) 0.70379(5) 0.12167(7)
C56 C 0.38171(14) 0.84341(14) 0.0897(2)
H27 H 0.3882 0.8212 0.0872
C57 C 0.23019(5) 0.73019(5) 0.11592(9)
C60 C 0.47134(6) 0.97134(6) 0.10452(14)
C61 C 0.44576(7) 0.94576(7) 0.09936(16)
C62 C 0.42525(7) 0.92525(7) 0.09475(15)
C63 C 0.39988(7) 0.89988(7) 0.09296(16)
C65 C 0.40659(14) 0.86829(14) 0.0897(2)
H30 H 0.4288 0.8618 0.0872
O15 O 0.17393(3) 0.71400(3) 0.12407(3)
C67 C 0.26320(7) 0.72148(7) 0.11267(10)
H31 H 0.2694 0.6990 0.1139
C68 C 0.28729(7) 0.74561(8) 0.10754(12)
H32 H 0.3097 0.7394 0.1061
C69 C 0.34341(14) 0.88171(14) 0.0897(2)
H33 H 0.3212 0.8882 0.0872
C70 C 0.52852(7) 0.98680(7) 0.11267(10)
H34 H 0.5510 0.9806 0.1139
C71 C 0.50439(8) 0.96271(7) 0.10754(12)
H35 H 0.5106 0.9403 0.1061
C72 C 0.36829(14) 0.90659(14) 0.0897(2)
H36 H 0.3618 0.9288 0.0872
Zr4 Zr 0.56281(2) 0.6250 0.6250
Zr6 Zr 0.6250 0.6250 0.56281(2)
Zr9 Zr 0.06281(2) 0.6250 0.1250
Zr10 Zr 0.1250 0.6250 0.18719(2)
Zr11 Zr 0.6250 0.18719(2) 0.1250
Zr12 Zr 0.1250 0.56281(2) 0.1250
O17 O 0.12407(3) 0.71400(3) 0.17393(3)
O18 O 0.07607(3) 0.62407(3) 0.03600(3)
O19 O 0.12593(3) 0.71400(3) 0.07607(3)
O20 O 0.17393(3) 0.62593(3) 0.03600(3)
O21 O 0.21400(3) 0.62593(3) 0.07607(3)
O22 O 0.12593(3) 0.67393(3) 0.03600(3)
O23 O 0.07607(3) 0.71400(3) 0.12593(3)
O24 O 0.12407(3) 0.57607(3) 0.03600(3)
O25 O 0.09736(6) 0.59735(6) 0.09735(6)
O26 O 0.15265(6) 0.65265(6) 0.09736(6)
O27 O 0.15864(6) 0.59136(6) 0.09136(6)
O4_2 O 0.17393(3) 0.03600(3) 0.62593(3)
C10_2 C 0.26320(7) 0.02852(7) 0.63733(10)
H4_2 H 0.2694 0.0510 0.6361
C11_2 C 0.28729(7) 0.00439(8) 0.64246(12)
H5_2 H 0.3097 0.0106 0.6439
C16_2 C 0.20379(5) 0.04621(5) 0.62833(7)
C18_2 C 0.23019(5) 0.01981(5) 0.63408(9)
O6_2 O 0.21400(3) 0.07607(3) 0.62593(3)
Zr7 Zr 0.18719(2) 0.1250 0.6250
Zr11_2 Zr 0.1250 0.06281(2) 0.6250
C40_2 C 0.20379(5) 0.62833(7) 0.04621(5)
C42_2 C 0.23019(5) 0.63408(9) 0.01981(5)
C46_2 C 0.26320(7) 0.63733(10) 0.02852(7)
H22_2 H 0.2694 0.6361 0.0510
C47_2 C 0.28729(7) 0.64246(12) 0.00439(8)
H23_2 H 0.3097 0.6439 0.0106
O1_2 O 0.53600(3) 0.67393(3) 0.62593(3)
C1_2 C 0.52852(7) 0.76320(7) 0.63733(10)
H1_2 H 0.5510 0.7694 0.6361
O2_2 O 0.59735(6) 0.65264(6) 0.65265(6)
C2_2 C 0.50439(8) 0.78729(7) 0.64246(12)
H2_2 H 0.5106 0.8097 0.6439
C3_2 C 0.47134(6) 0.77866(6) 0.64548(14)
O3_2 O 0.59136(6) 0.59136(6) 0.65864(6)
C4_2 C 0.44576(7) 0.80424(7) 0.65064(16)
C5_2 C 0.42525(7) 0.82475(7) 0.65525(15)
C6_2 C 0.39988(7) 0.85012(7) 0.65704(16)
C7_2 C 0.54621(5) 0.70379(5) 0.62833(7)
C8_2 C 0.36829(14) 0.84341(14) 0.6603(2)
H3_2 H 0.3618 0.8212 0.6628
C9_2 C 0.51981(5) 0.73019(5) 0.63408(9)
C12_2 C 0.27866(6) 0.97134(6) 0.64548(14)
C13_2 C 0.30424(7) 0.94576(7) 0.65064(16)
C14_2 C 0.32475(7) 0.92525(7) 0.65525(15)
C15_2 C 0.35012(7) 0.89988(7) 0.65704(16)
C17_2 C 0.34341(14) 0.86829(14) 0.6603(2)
H6_2 H 0.3212 0.8618 0.6628
O5_2 O 0.57607(3) 0.71400(3) 0.62593(3)
C19_2 C 0.48680(7) 0.72148(7) 0.63733(10)
H7_2 H 0.4806 0.6990 0.6361
C20_2 C 0.46271(7) 0.74561(8) 0.64246(12)
H8_2 H 0.4403 0.7394 0.6439
C21_2 C 0.40659(14) 0.88171(14) 0.6603(2)
H9_2 H 0.4288 0.8882 0.6628
C22_2 C 0.22148(7) 0.98680(7) 0.63733(10)
H10_2 H 0.1990 0.9806 0.6361
C23_2 C 0.24561(8) 0.96271(7) 0.64246(12)
H11_2 H 0.2394 0.9403 0.6439
C24_2 C 0.38171(14) 0.90659(14) 0.6603(2)
H12_2 H 0.3882 0.9288 0.6628
Zr2_2 Zr 0.6250 0.56281(2) 0.6250
O7_2 O 0.65265(6) 0.59735(6) 0.65264(6)
O8_2 O 0.65864(6) 0.59136(6) 0.59136(6)
O9_2 O 0.57607(3) 0.62593(3) 0.71400(3)
C25_2 C 0.48680(7) 0.63733(10) 0.72148(7)
H13_2 H 0.4806 0.6361 0.6990
C26_2 C 0.46271(7) 0.64246(12) 0.74561(8)
H14_2 H 0.4403 0.6439 0.7394
C27_2 C 0.47134(6) 0.64548(14) 0.77866(6)
C28_2 C 0.44576(7) 0.65064(16) 0.80424(7)
C29_2 C 0.42525(7) 0.65525(15) 0.82475(7)
C30_2 C 0.39988(7) 0.65704(16) 0.85012(7)
C31_2 C 0.54621(5) 0.62833(7) 0.70379(5)
C32_2 C 0.40659(14) 0.6603(2) 0.88171(14)
H15_2 H 0.4288 0.6628 0.8882
C33_2 C 0.51981(5) 0.63408(9) 0.73019(5)
C34_2 C 0.22148(7) 0.63733(10) 0.98680(7)
H16_2 H 0.1990 0.6361 0.9806
C35_2 C 0.24561(8) 0.64246(12) 0.96271(7)
H17_2 H 0.2394 0.6439 0.9403
C36_2 C 0.27866(6) 0.64548(14) 0.97134(6)
C37_2 C 0.30424(7) 0.65064(16) 0.94576(7)
C38_2 C 0.32475(7) 0.65525(15) 0.92525(7)
C39_2 C 0.35012(7) 0.65704(16) 0.89988(7)
C41_2 C 0.38171(14) 0.6603(2) 0.90659(14)
H18_2 H 0.3882 0.6628 0.9288
O11_2 O 0.53600(3) 0.62593(3) 0.67393(3)
C43_2 C 0.52852(7) 0.63733(10) 0.76320(7)
H19_2 H 0.5510 0.6361 0.7694
C44_2 C 0.50439(8) 0.64246(12) 0.78729(7)
H20_2 H 0.5106 0.6439 0.8097
C45_2 C 0.36829(14) 0.6603(2) 0.84341(14)
H21_2 H 0.3618 0.6628 0.8212
C48_2 C 0.34341(14) 0.6603(2) 0.86829(14)
H24_2 H 0.3212 0.6628 0.8618
O13_2 O 0.53600(3) 0.57607(3) 0.62407(3)
C49_2 C 0.52852(7) 0.48680(7) 0.61267(10)
H25_2 H 0.5510 0.4806 0.6139
C50_2 C 0.50439(8) 0.46271(7) 0.60754(12)
H26_2 H 0.5106 0.4403 0.6061
C51_2 C 0.47134(6) 0.47134(6) 0.60452(14)
C52_2 C 0.44576(7) 0.44576(7) 0.59936(16)
C53_2 C 0.42525(7) 0.42525(7) 0.59475(15)
C54_2 C 0.39988(7) 0.39988(7) 0.59296(16)
C55_2 C 0.54621(5) 0.54621(5) 0.62167(7)
C56_2 C 0.36829(14) 0.40659(14) 0.5897(2)
H27_2 H 0.3618 0.4288 0.5872
C57_2 C 0.51981(5) 0.51981(5) 0.61592(9)
O14_2 O 0.17393(3) 0.21400(3) 0.62407(3)
C58_2 C 0.26320(7) 0.22148(7) 0.61267(10)
H28_2 H 0.2694 0.1990 0.6139
C59_2 C 0.28729(7) 0.24561(8) 0.60754(12)
H29_2 H 0.3097 0.2394 0.6061
C60_2 C 0.27866(6) 0.27866(6) 0.60452(14)
C61_2 C 0.30424(7) 0.30424(7) 0.59936(16)
C62_2 C 0.32475(7) 0.32475(7) 0.59475(15)
C63_2 C 0.35012(7) 0.35012(7) 0.59296(16)
C64_2 C 0.20379(5) 0.20379(5) 0.62167(7)
C65_2 C 0.34341(14) 0.38171(14) 0.5897(2)
H30_2 H 0.3212 0.3882 0.5872
C66_2 C 0.23019(5) 0.23019(5) 0.61592(9)
O15_2 O 0.57607(3) 0.53600(3) 0.62407(3)
C67_2 C 0.48680(7) 0.52852(7) 0.61267(10)
H31_2 H 0.4806 0.5510 0.6139
C68_2 C 0.46271(7) 0.50439(8) 0.60754(12)
H32_2 H 0.4403 0.5106 0.6061
C69_2 C 0.40659(14) 0.36829(14) 0.5897(2)
H33_2 H 0.4288 0.3618 0.5872
O16_2 O 0.21400(3) 0.17393(3) 0.62407(3)
C70_2 C 0.22148(7) 0.26320(7) 0.61267(10)
H34_2 H 0.1990 0.2694 0.6139
C71_2 C 0.24561(8) 0.28729(7) 0.60754(12)
H35_2 H 0.2394 0.3097 0.6061
C72_2 C 0.38171(14) 0.34341(14) 0.5897(2)
H36_2 H 0.3882 0.3212 0.5872
Zr5_2 Zr 0.1250 0.18719(2) 0.6250
Zr9_2 Zr 0.68719(2) 0.6250 0.6250
Zr10_2 Zr 0.6250 0.6250 0.68719(2)
Zr12_2 Zr 0.6250 0.68719(2) 0.6250
O17_2 O 0.62593(3) 0.53600(3) 0.67393(3)
O18_2 O 0.67393(3) 0.62593(3) 0.53600(3)
O19_2 O 0.62407(3) 0.53600(3) 0.57607(3)
O22_2 O 0.62407(3) 0.57607(3) 0.53600(3)
O23_2 O 0.67393(3) 0.53600(3) 0.62593(3)
O24_2 O 0.62593(3) 0.67393(3) 0.53600(3)
O25_2 O 0.65264(6) 0.65265(6) 0.59735(6)
O26_2 O 0.59735(6) 0.59735(6) 0.59736(6)
O27_2 O 0.59136(6) 0.65864(6) 0.59136(6)
Zr1_2 Zr 0.06281(2) 0.1250 0.6250
O1_3 O 0.03600(3) 0.07607(3) 0.62407(3)
O2_3 O 0.09735(6) 0.09736(6) 0.59735(6)
O3_3 O 0.09136(6) 0.15864(6) 0.59136(6)
C7_3 C 0.04621(5) 0.04621(5) 0.62167(7)
C9_3 C 0.01981(5) 0.01981(5) 0.61592(9)
O5_3 O 0.07607(3) 0.03600(3) 0.62407(3)
O7_3 O 0.15265(6) 0.15265(6) 0.59736(6)
O8_3 O 0.15864(6) 0.15864(6) 0.65864(6)
Zr3_2 Zr 0.1250 0.1250 0.68719(2)
O9_3 O 0.07607(3) 0.12407(3) 0.53600(3)
C31_3 C 0.04621(5) 0.12167(7) 0.54621(5)
C33_3 C 0.01981(5) 0.11592(9) 0.51981(5)
O11_3 O 0.03600(3) 0.12407(3) 0.57607(3)
C43_3 C 0.02852(7) 0.11267(10) 0.48680(7)
H19_3 H 0.0510 0.1139 0.4806
C44_3 C 0.00439(8) 0.10754(12) 0.46271(7)
H20_3 H 0.0106 0.1061 0.4403
O13_3 O 0.03600(3) 0.17393(3) 0.62593(3)
C49_3 C 0.02852(7) 0.26320(7) 0.63733(10)
H25_3 H 0.0510 0.2694 0.6361
C50_3 C 0.00439(8) 0.28729(7) 0.64246(12)
H26_3 H 0.0106 0.3097 0.6439
C55_3 C 0.04621(5) 0.20379(5) 0.62833(7)
C57_3 C 0.01981(5) 0.23019(5) 0.63408(9)
O15_3 O 0.07607(3) 0.21400(3) 0.62593(3)
Zr10_3 Zr 0.1250 0.1250 0.56281(2)
O17_3 O 0.12593(3) 0.21400(3) 0.57607(3)
O18_3 O 0.17393(3) 0.12407(3) 0.71400(3)
O19_3 O 0.12407(3) 0.21400(3) 0.67393(3)
O20_2 O 0.07607(3) 0.12593(3) 0.71400(3)
O21_2 O 0.03600(3) 0.12593(3) 0.67393(3)
O22_3 O 0.12407(3) 0.17393(3) 0.71400(3)
O24_3 O 0.12593(3) 0.07607(3) 0.71400(3)
O25_3 O 0.15264(6) 0.09735(6) 0.65265(6)
O26_3 O 0.09735(6) 0.15265(6) 0.65264(6)
O27_3 O 0.09136(6) 0.09136(6) 0.65864(6)
C1_3 C 0.02852(7) 0.98680(7) 0.61267(10)
H1_3 H 0.0510 0.9806 0.6139
C2_3 C 0.00439(8) 0.96271(7) 0.60754(12)
H2_3 H 0.0106 0.9403 0.6061
C19_3 C 0.98680(7) 0.02852(7) 0.61267(10)
H7_3 H 0.9806 0.0510 0.6139
C20_3 C 0.96271(7) 0.00439(8) 0.60754(12)
H8_3 H 0.9403 0.0106 0.6061
C25_3 C 0.98680(7) 0.11267(10) 0.52852(7)
H13_3 H 0.9806 0.1139 0.5510
C26_3 C 0.96271(7) 0.10754(12) 0.50439(8)
H14_3 H 0.9403 0.1061 0.5106
C27_3 C 0.97134(6) 0.10452(14) 0.47134(6)
C28_3 C 0.94576(7) 0.09936(16) 0.44576(7)
C29_3 C 0.92525(7) 0.09475(15) 0.42525(7)
C30_3 C 0.89988(7) 0.09296(16) 0.39988(7)
C32_3 C 0.90659(14) 0.0897(2) 0.36829(14)
H15_3 H 0.9288 0.0872 0.3618
O10_2 O 0.71400(3) 0.12407(3) 0.17393(3)
C34_3 C 0.72148(7) 0.11267(10) 0.26320(7)
H16_3 H 0.6990 0.1139 0.2694
C35_3 C 0.74561(8) 0.10754(12) 0.28729(7)
H17_3 H 0.7394 0.1061 0.3097
C36_3 C 0.77866(6) 0.10452(14) 0.27866(6)
C37_3 C 0.80424(7) 0.09936(16) 0.30424(7)
C38_3 C 0.82475(7) 0.09475(15) 0.32475(7)
C39_3 C 0.85012(7) 0.09296(16) 0.35012(7)
C40_3 C 0.70379(5) 0.12167(7) 0.20379(5)
C41_3 C 0.88171(14) 0.0897(2) 0.34341(14)
H18_3 H 0.8882 0.0872 0.3212
C42_3 C 0.73019(5) 0.11592(9) 0.23019(5)
C45_3 C 0.86829(14) 0.0897(2) 0.40659(14)
H21_3 H 0.8618 0.0872 0.4288
O12_2 O 0.67393(3) 0.12407(3) 0.21400(3)
C46_3 C 0.76320(7) 0.11267(10) 0.22148(7)
H22_3 H 0.7694 0.1139 0.1990
C47_3 C 0.78729(7) 0.10754(12) 0.24561(8)
H23_3 H 0.8097 0.1061 0.2394
C48_3 C 0.84341(14) 0.0897(2) 0.38171(14)
H24_3 H 0.8212 0.0872 0.3882
C51_3 C 0.97134(6) 0.27866(6) 0.64548(14)
C52_3 C 0.94576(7) 0.30424(7) 0.65064(16)
C53_3 C 0.92525(7) 0.32475(7) 0.65525(15)
C54_3 C 0.89988(7) 0.35012(7) 0.65704(16)
C56_3 C 0.86829(14) 0.34341(14) 0.6603(2)
H27_3 H 0.8618 0.3212 0.6628
C58_3 C 0.76320(7) 0.52852(7) 0.63733(10)
H28_3 H 0.7694 0.5510 0.6361
C59_3 C 0.78729(7) 0.50439(8) 0.64246(12)
H29_3 H 0.8097 0.5106 0.6439
C60_3 C 0.77866(6) 0.47134(6) 0.64548(14)
C61_3 C 0.80424(7) 0.44576(7) 0.65064(16)
C62_3 C 0.82475(7) 0.42525(7) 0.65525(15)
C63_3 C 0.85012(7) 0.39988(7) 0.65704(16)
C64_3 C 0.70379(5) 0.54621(5) 0.62833(7)
C65_3 C 0.84341(14) 0.36829(14) 0.6603(2)
H30_3 H 0.8212 0.3618 0.6628
C66_3 C 0.73019(5) 0.51981(5) 0.63408(9)
C67_3 C 0.98680(7) 0.22148(7) 0.63733(10)
H31_3 H 0.9806 0.1990 0.6361
C68_3 C 0.96271(7) 0.24561(8) 0.64246(12)
H32_3 H 0.9403 0.2394 0.6439
C69_3 C 0.90659(14) 0.38171(14) 0.6603(2)
H33_3 H 0.9288 0.3882 0.6628
O16_3 O 0.71400(3) 0.57607(3) 0.62593(3)
C70_3 C 0.72148(7) 0.48680(7) 0.63733(10)
H34_3 H 0.6990 0.4806 0.6361
C71_3 C 0.74561(8) 0.46271(7) 0.64246(12)
H35_3 H 0.7394 0.4403 0.6439
C72_3 C 0.88171(14) 0.40659(14) 0.6603(2)
H36_3 H 0.8882 0.4288 0.6628
Zr4_2 Zr 0.68719(2) 0.1250 0.1250
Zr6_2 Zr 0.6250 0.1250 0.18719(2)
C3_3 C 0.97134(6) 0.97134(6) 0.60452(14)
C4_3 C 0.94576(7) 0.94576(7) 0.59936(16)
C5_3 C 0.92525(7) 0.92525(7) 0.59475(15)
C6_3 C 0.89988(7) 0.89988(7) 0.59296(16)
C8_3 C 0.86829(14) 0.90659(14) 0.5897(2)
H3_3 H 0.8618 0.9288 0.5872
O4_3 O 0.67393(3) 0.71400(3) 0.62407(3)
C10_3 C 0.76320(7) 0.72148(7) 0.61267(10)
H4_3 H 0.7694 0.6990 0.6139
C11_3 C 0.78729(7) 0.74561(8) 0.60754(12)
H5_3 H 0.8097 0.7394 0.6061
C12_3 C 0.77866(6) 0.77866(6) 0.60452(14)
C13_3 C 0.80424(7) 0.80424(7) 0.59936(16)
C14_3 C 0.82475(7) 0.82475(7) 0.59475(15)
C15_3 C 0.85012(7) 0.85012(7) 0.59296(16)
C16_3 C 0.70379(5) 0.70379(5) 0.62167(7)
C17_3 C 0.84341(14) 0.88171(14) 0.5897(2)
H6_3 H 0.8212 0.8882 0.5872
C18_3 C 0.73019(5) 0.73019(5) 0.61592(9)
C21_3 C 0.90659(14) 0.86829(14) 0.5897(2)
H9_3 H 0.9288 0.8618 0.5872
O6_3 O 0.71400(3) 0.67393(3) 0.62407(3)
C22_3 C 0.72148(7) 0.76320(7) 0.61267(10)
H10_3 H 0.6990 0.7694 0.6139
C23_3 C 0.74561(8) 0.78729(7) 0.60754(12)
H11_3 H 0.7394 0.8097 0.6061
C24_3 C 0.88171(14) 0.84341(14) 0.5897(2)
H12_3 H 0.8882 0.8212 0.5872
O4_4 O 0.07607(3) 0.53600(3) 0.12407(3)
C16_4 C 0.04621(5) 0.54621(5) 0.12167(7)
C18_4 C 0.01981(5) 0.51981(5) 0.11592(9)
O6_4 O 0.03600(3) 0.57607(3) 0.12407(3)
C22_4 C 0.02852(7) 0.48680(7) 0.11267(10)
H10_4 H 0.0510 0.4806 0.1139
C23_4 C 0.00439(8) 0.46271(7) 0.10754(12)
H11_4 H 0.0106 0.4403 0.1061
C34_4 C 0.02852(7) 0.13733(10) 0.76320(7)
H16_4 H 0.0510 0.1361 0.7694
C35_4 C 0.00439(8) 0.14246(12) 0.78729(7)
H17_4 H 0.0106 0.1439 0.8097
C40_4 C 0.04621(5) 0.12833(7) 0.70379(5)
C42_4 C 0.01981(5) 0.13408(9) 0.73019(5)
C64_4 C 0.04621(5) 0.70379(5) 0.12833(7)
C66_4 C 0.01981(5) 0.73019(5) 0.13408(9)
O16_4 O 0.03600(3) 0.67393(3) 0.12593(3)
C70_4 C 0.02852(7) 0.76320(7) 0.13733(10)
H34_4 H 0.0510 0.7694 0.1361
C71_4 C 0.00439(8) 0.78729(7) 0.14246(12)
H35_4 H 0.0106 0.8097 0.1439
O1_4 O 0.71400(3) 0.17393(3) 0.12407(3)
C1_4 C 0.72148(7) 0.26320(7) 0.11267(10)
H1_4 H 0.6990 0.2694 0.1139
O2_4 O 0.65265(6) 0.15264(6) 0.09735(6)
C2_4 C 0.74561(8) 0.28729(7) 0.10754(12)
H2_4 H 0.7394 0.3097 0.1061
C3_4 C 0.77866(6) 0.27866(6) 0.10452(14)
O3_4 O 0.65864(6) 0.09136(6) 0.09136(6)
C4_4 C 0.80424(7) 0.30424(7) 0.09936(16)
C5_4 C 0.82475(7) 0.32475(7) 0.09475(15)
C6_4 C 0.85012(7) 0.35012(7) 0.09296(16)
C7_4 C 0.70379(5) 0.20379(5) 0.12167(7)
C8_4 C 0.88171(14) 0.34341(14) 0.0897(2)
H3_4 H 0.8882 0.3212 0.0872
C9_4 C 0.73019(5) 0.23019(5) 0.11592(9)
C10_4 C 0.98680(7) 0.52852(7) 0.11267(10)
H4_4 H 0.9806 0.5510 0.1139
C11_4 C 0.96271(7) 0.50439(8) 0.10754(12)
H5_4 H 0.9403 0.5106 0.1061
C12_4 C 0.97134(6) 0.47134(6) 0.10452(14)
C13_4 C 0.94576(7) 0.44576(7) 0.09936(16)
C14_4 C 0.92525(7) 0.42525(7) 0.09475(15)
C15_4 C 0.89988(7) 0.39988(7) 0.09296(16)
C17_4 C 0.90659(14) 0.36829(14) 0.0897(2)
H6_4 H 0.9288 0.3618 0.0872
O5_4 O 0.67393(3) 0.21400(3) 0.12407(3)
C19_4 C 0.76320(7) 0.22148(7) 0.11267(10)
H7_4 H 0.7694 0.1990 0.1139
C20_4 C 0.78729(7) 0.24561(8) 0.10754(12)
H8_4 H 0.8097 0.2394 0.1061
C21_4 C 0.84341(14) 0.38171(14) 0.0897(2)
H9_4 H 0.8212 0.3882 0.0872
C24_4 C 0.86829(14) 0.40659(14) 0.0897(2)
H12_4 H 0.8618 0.4288 0.0872
O7_4 O 0.59735(6) 0.09735(6) 0.09736(6)
O8_4 O 0.59136(6) 0.09136(6) 0.15864(6)
O9_4 O 0.67393(3) 0.12593(3) 0.03600(3)
C25_4 C 0.76320(7) 0.13733(10) 0.02852(7)
H13_4 H 0.7694 0.1361 0.0510
C26_4 C 0.78729(7) 0.14246(12) 0.00439(8)
H14_4 H 0.8097 0.1439 0.0106
C31_4 C 0.70379(5) 0.12833(7) 0.04621(5)
C33_4 C 0.73019(5) 0.13408(9) 0.01981(5)
O11_4 O 0.71400(3) 0.12593(3) 0.07607(3)
O13_4 O 0.71400(3) 0.07607(3) 0.12593(3)
C55_4 C 0.70379(5) 0.04621(5) 0.12833(7)
C57_4 C 0.73019(5) 0.01981(5) 0.13408(9)
O15_4 O 0.67393(3) 0.03600(3) 0.12593(3)
C67_4 C 0.76320(7) 0.02852(7) 0.13733(10)
H31_4 H 0.7694 0.0510 0.1361
C68_4 C 0.78729(7) 0.00439(8) 0.14246(12)
H32_4 H 0.8097 0.0106 0.1439
Zr10_4 Zr 0.6250 0.1250 0.06281(2)
O17_4 O 0.62407(3) 0.03600(3) 0.07607(3)
O18_4 O 0.57607(3) 0.12593(3) 0.21400(3)
O19_4 O 0.62593(3) 0.03600(3) 0.17393(3)
O22_4 O 0.62593(3) 0.07607(3) 0.21400(3)
O24_4 O 0.62407(3) 0.17393(3) 0.21400(3)
O25_4 O 0.59736(6) 0.15265(6) 0.15265(6)
O26_4 O 0.65265(6) 0.09735(6) 0.15264(6)
O27_4 O 0.65864(6) 0.15864(6) 0.15864(6)
C27_4 C 0.77866(6) 0.14548(14) 0.97134(6)
C28_4 C 0.80424(7) 0.15064(16) 0.94576(7)
C29_4 C 0.82475(7) 0.15525(15) 0.92525(7)
C30_4 C 0.85012(7) 0.15704(16) 0.89988(7)
C32_4 C 0.84341(14) 0.1603(2) 0.86829(14)
H15_4 H 0.8212 0.1628 0.8618
C36_4 C 0.97134(6) 0.14548(14) 0.77866(6)
C37_4 C 0.94576(7) 0.15064(16) 0.80424(7)
C38_4 C 0.92525(7) 0.15525(15) 0.82475(7)
C39_4 C 0.89988(7) 0.15704(16) 0.85012(7)
C41_4 C 0.86829(14) 0.1603(2) 0.84341(14)
H18_4 H 0.8618 0.1628 0.8212
C43_4 C 0.72148(7) 0.13733(10) 0.98680(7)
H19_4 H 0.6990 0.1361 0.9806
C44_4 C 0.74561(8) 0.14246(12) 0.96271(7)
H20_4 H 0.7394 0.1439 0.9403
C45_4 C 0.88171(14) 0.1603(2) 0.90659(14)
H21_4 H 0.8882 0.1628 0.9288
C46_4 C 0.98680(7) 0.13733(10) 0.72148(7)
H22_4 H 0.9806 0.1361 0.6990
C47_4 C 0.96271(7) 0.14246(12) 0.74561(8)
H23_4 H 0.9403 0.1439 0.7394
C48_4 C 0.90659(14) 0.1603(2) 0.88171(14)
H24_4 H 0.9288 0.1628 0.8882
C49_4 C 0.72148(7) 0.98680(7) 0.13733(10)
H25_4 H 0.6990 0.9806 0.1361
C50_4 C 0.74561(8) 0.96271(7) 0.14246(12)
H26_4 H 0.7394 0.9403 0.1439
C51_4 C 0.77866(6) 0.97134(6) 0.14548(14)
C52_4 C 0.80424(7) 0.94576(7) 0.15064(16)
C53_4 C 0.82475(7) 0.92525(7) 0.15525(15)
C54_4 C 0.85012(7) 0.89988(7) 0.15704(16)
C56_4 C 0.88171(14) 0.90659(14) 0.1603(2)
H27_4 H 0.8882 0.9288 0.1628
C58_4 C 0.98680(7) 0.72148(7) 0.13733(10)
H28_4 H 0.9806 0.6990 0.1361
C59_4 C 0.96271(7) 0.74561(8) 0.14246(12)
H29_4 H 0.9403 0.7394 0.1439
C60_4 C 0.97134(6) 0.77866(6) 0.14548(14)
C61_4 C 0.94576(7) 0.80424(7) 0.15064(16)
C62_4 C 0.92525(7) 0.82475(7) 0.15525(15)
C63_4 C 0.89988(7) 0.85012(7) 0.15704(16)
C65_4 C 0.90659(14) 0.88171(14) 0.1603(2)
H30_4 H 0.9288 0.8882 0.1628
C69_4 C 0.84341(14) 0.86829(14) 0.1603(2)
H33_4 H 0.8212 0.8618 0.1628
C72_4 C 0.86829(14) 0.84341(14) 0.1603(2)
H36_4 H 0.8618 0.8212 0.1628
C58_5 C 0.11267(10) 0.48680(7) 0.02852(7)
H28_5 H 0.1139 0.4806 0.0510
C59_5 C 0.10754(12) 0.46271(7) 0.00439(8)
H29_5 H 0.1061 0.4403 0.0106
C64_5 C 0.12167(7) 0.54621(5) 0.04621(5)
C66_5 C 0.11592(9) 0.51981(5) 0.01981(5)
O16_5 O 0.12407(3) 0.53600(3) 0.07607(3)
C1_5 C 0.13733(10) 0.22148(7) 0.48680(7)
H1_5 H 0.1361 0.1990 0.4806
C2_5 C 0.14246(12) 0.24561(8) 0.46271(7)
H2_5 H 0.1439 0.2394 0.4403
C3_5 C 0.14548(14) 0.27866(6) 0.47134(6)
C4_5 C 0.15064(16) 0.30424(7) 0.44576(7)
C5_5 C 0.15525(15) 0.32475(7) 0.42525(7)
C6_5 C 0.15704(16) 0.35012(7) 0.39988(7)
C7_5 C 0.12833(7) 0.20379(5) 0.54621(5)
C8_5 C 0.1603(2) 0.38171(14) 0.40659(14)
H3_5 H 0.1628 0.3882 0.4288
C9_5 C 0.13408(9) 0.23019(5) 0.51981(5)
O4_5 O 0.12593(3) 0.57607(3) 0.21400(3)
C10_5 C 0.13733(10) 0.48680(7) 0.22148(7)
H4_5 H 0.1361 0.4806 0.1990
C11_5 C 0.14246(12) 0.46271(7) 0.24561(8)
H5_5 H 0.1439 0.4403 0.2394
C12_5 C 0.14548(14) 0.47134(6) 0.27866(6)
C13_5 C 0.15064(16) 0.44576(7) 0.30424(7)
C14_5 C 0.15525(15) 0.42525(7) 0.32475(7)
C15_5 C 0.15704(16) 0.39988(7) 0.35012(7)
C16_5 C 0.12833(7) 0.54621(5) 0.20379(5)
C17_5 C 0.1603(2) 0.40659(14) 0.38171(14)
H6_5 H 0.1628 0.4288 0.3882
C18_5 C 0.13408(9) 0.51981(5) 0.23019(5)
O5_5 O 0.12593(3) 0.17393(3) 0.53600(3)
C19_5 C 0.13733(10) 0.26320(7) 0.52852(7)
H7_5 H 0.1361 0.2694 0.5510
C20_5 C 0.14246(12) 0.28729(7) 0.50439(8)
H8_5 H 0.1439 0.3097 0.5106
C21_5 C 0.1603(2) 0.34341(14) 0.36829(14)
H9_5 H 0.1628 0.3212 0.3618
O6_5 O 0.12593(3) 0.53600(3) 0.17393(3)
C22_5 C 0.13733(10) 0.52852(7) 0.26320(7)
H10_5 H 0.1361 0.5510 0.2694
C23_5 C 0.14246(12) 0.50439(8) 0.28729(7)
H11_5 H 0.1439 0.5106 0.3097
C24_5 C 0.1603(2) 0.36829(14) 0.34341(14)
H12_5 H 0.1628 0.3618 0.3212
C49_5 C 0.11267(10) 0.22148(7) 0.76320(7)
H25_5 H 0.1139 0.1990 0.7694
C50_5 C 0.10754(12) 0.24561(8) 0.78729(7)
H26_5 H 0.1061 0.2394 0.8097
C51_5 C 0.10452(14) 0.27866(6) 0.77866(6)
C52_5 C 0.09936(16) 0.30424(7) 0.80424(7)
C53_5 C 0.09475(15) 0.32475(7) 0.82475(7)
C54_5 C 0.09296(16) 0.35012(7) 0.85012(7)
C55_5 C 0.12167(7) 0.20379(5) 0.70379(5)
C56_5 C 0.0897(2) 0.38171(14) 0.84341(14)
H27_5 H 0.0872 0.3882 0.8212
C57_5 C 0.11592(9) 0.23019(5) 0.73019(5)
C60_5 C 0.10452(14) 0.47134(6) 0.97134(6)
C61_5 C 0.09936(16) 0.44576(7) 0.94576(7)
C62_5 C 0.09475(15) 0.42525(7) 0.92525(7)
C63_5 C 0.09296(16) 0.39988(7) 0.89988(7)
C65_5 C 0.0897(2) 0.40659(14) 0.86829(14)
H30_5 H 0.0872 0.4288 0.8618
C67_5 C 0.11267(10) 0.26320(7) 0.72148(7)
H31_5 H 0.1139 0.2694 0.6990
C68_5 C 0.10754(12) 0.28729(7) 0.74561(8)
H32_5 H 0.1061 0.3097 0.7394
C69_5 C 0.0897(2) 0.34341(14) 0.88171(14)
H33_5 H 0.0872 0.3212 0.8882
C70_5 C 0.11267(10) 0.52852(7) 0.98680(7)
H34_5 H 0.1139 0.5510 0.9806
C71_5 C 0.10754(12) 0.50439(8) 0.96271(7)
H35_5 H 0.1061 0.5106 0.9403
C72_5 C 0.0897(2) 0.36829(14) 0.90659(14)
H36_5 H 0.0872 0.3618 0.9288
O4_6 O 0.62593(3) 0.17393(3) 0.03600(3)
C10_6 C 0.63733(10) 0.26320(7) 0.02852(7)
H4_6 H 0.6361 0.2694 0.0510
C11_6 C 0.64246(12) 0.28729(7) 0.00439(8)
H5_6 H 0.6439 0.3097 0.0106
C16_6 C 0.62833(7) 0.20379(5) 0.04621(5)
C18_6 C 0.63408(9) 0.23019(5) 0.01981(5)
O6_6 O 0.62593(3) 0.21400(3) 0.07607(3)
C1_6 C 0.63733(10) 0.52852(7) 0.76320(7)
H1_6 H 0.6361 0.5510 0.7694
C2_6 C 0.64246(12) 0.50439(8) 0.78729(7)
H2_6 H 0.6439 0.5106 0.8097
C3_6 C 0.64548(14) 0.47134(6) 0.77866(6)
C4_6 C 0.65064(16) 0.44576(7) 0.80424(7)
C5_6 C 0.65525(15) 0.42525(7) 0.82475(7)
C6_6 C 0.65704(16) 0.39988(7) 0.85012(7)
C7_6 C 0.62833(7) 0.54621(5) 0.70379(5)
C8_6 C 0.6603(2) 0.36829(14) 0.84341(14)
H3_6 H 0.6628 0.3618 0.8212
C9_6 C 0.63408(9) 0.51981(5) 0.73019(5)
C12_6 C 0.64548(14) 0.27866(6) 0.97134(6)
C13_6 C 0.65064(16) 0.30424(7) 0.94576(7)
C14_6 C 0.65525(15) 0.32475(7) 0.92525(7)
C15_6 C 0.65704(16) 0.35012(7) 0.89988(7)
C17_6 C 0.6603(2) 0.34341(14) 0.86829(14)
H6_6 H 0.6628 0.3212 0.8618
O5_6 O 0.62593(3) 0.57607(3) 0.71400(3)
C19_6 C 0.63733(10) 0.48680(7) 0.72148(7)
H7_6 H 0.6361 0.4806 0.6990
C20_6 C 0.64246(12) 0.46271(7) 0.74561(8)
H8_6 H 0.6439 0.4403 0.7394
C21_6 C 0.6603(2) 0.40659(14) 0.88171(14)
H9_6 H 0.6628 0.4288 0.8882
C22_6 C 0.63733(10) 0.22148(7) 0.98680(7)
H10_6 H 0.6361 0.1990 0.9806
C23_6 C 0.64246(12) 0.24561(8) 0.96271(7)
H11_6 H 0.6439 0.2394 0.9403
C24_6 C 0.6603(2) 0.38171(14) 0.90659(14)
H12_6 H 0.6628 0.3882 0.9288
C49_6 C 0.61267(10) 0.52852(7) 0.48680(7)
H25_6 H 0.6139 0.5510 0.4806
C50_6 C 0.60754(12) 0.50439(8) 0.46271(7)
H26_6 H 0.6061 0.5106 0.4403
C51_6 C 0.60452(14) 0.47134(6) 0.47134(6)
C52_6 C 0.59936(16) 0.44576(7) 0.44576(7)
C53_6 C 0.59475(15) 0.42525(7) 0.42525(7)
C54_6 C 0.59296(16) 0.39988(7) 0.39988(7)
C55_6 C 0.62167(7) 0.54621(5) 0.54621(5)
C56_6 C 0.5897(2) 0.36829(14) 0.40659(14)
H27_6 H 0.5872 0.3618 0.4288
C57_6 C 0.61592(9) 0.51981(5) 0.51981(5)
C58_6 C 0.61267(10) 0.26320(7) 0.22148(7)
H28_6 H 0.6139 0.2694 0.1990
C59_6 C 0.60754(12) 0.28729(7) 0.24561(8)
H29_6 H 0.6061 0.3097 0.2394
C60_6 C 0.60452(14) 0.27866(6) 0.27866(6)
C61_6 C 0.59936(16) 0.30424(7) 0.30424(7)
C62_6 C 0.59475(15) 0.32475(7) 0.32475(7)
C63_6 C 0.59296(16) 0.35012(7) 0.35012(7)
C64_6 C 0.62167(7) 0.20379(5) 0.20379(5)
C65_6 C 0.5897(2) 0.34341(14) 0.38171(14)
H30_6 H 0.5872 0.3212 0.3882
C66_6 C 0.61592(9) 0.23019(5) 0.23019(5)
C67_6 C 0.61267(10) 0.48680(7) 0.52852(7)
H31_6 H 0.6139 0.4806 0.5510
C68_6 C 0.60754(12) 0.46271(7) 0.50439(8)
H32_6 H 0.6061 0.4403 0.5106
C69_6 C 0.5897(2) 0.40659(14) 0.36829(14)
H33_6 H 0.5872 0.4288 0.3618
O16_6 O 0.62407(3) 0.21400(3) 0.17393(3)
C70_6 C 0.61267(10) 0.22148(7) 0.26320(7)
H34_6 H 0.6139 0.1990 0.2694
C71_6 C 0.60754(12) 0.24561(8) 0.28729(7)
H35_6 H 0.6061 0.2394 0.3097
C72_6 C 0.5897(2) 0.38171(14) 0.34341(14)
H36_6 H 0.5872 0.3882 0.3212
C7_7 C 0.62167(7) 0.04621(5) 0.04621(5)
C9_7 C 0.61592(9) 0.01981(5) 0.01981(5)
O5_7 O 0.62407(3) 0.07607(3) 0.03600(3)
C49_7 C 0.63733(10) 0.02852(7) 0.26320(7)
H25_7 H 0.6361 0.0510 0.2694
C50_7 C 0.64246(12) 0.00439(8) 0.28729(7)
H26_7 H 0.6439 0.0106 0.3097
C55_7 C 0.62833(7) 0.04621(5) 0.20379(5)
C57_7 C 0.63408(9) 0.01981(5) 0.23019(5)
C1_7 C 0.61267(10) 0.02852(7) 0.98680(7)
H1_7 H 0.6139 0.0510 0.9806
C2_7 C 0.60754(12) 0.00439(8) 0.96271(7)
H2_7 H 0.6061 0.0106 0.9403
C19_7 C 0.61267(10) 0.98680(7) 0.02852(7)
H7_7 H 0.6139 0.9806 0.0510
C20_7 C 0.60754(12) 0.96271(7) 0.00439(8)
H8_7 H 0.6061 0.9403 0.0106
C51_7 C 0.64548(14) 0.97134(6) 0.27866(6)
C52_7 C 0.65064(16) 0.94576(7) 0.30424(7)
C53_7 C 0.65525(15) 0.92525(7) 0.32475(7)
C54_7 C 0.65704(16) 0.89988(7) 0.35012(7)
C56_7 C 0.6603(2) 0.86829(14) 0.34341(14)
H27_7 H 0.6628 0.8618 0.3212
C58_7 C 0.63733(10) 0.76320(7) 0.52852(7)
H28_7 H 0.6361 0.7694 0.5510
C59_7 C 0.64246(12) 0.78729(7) 0.50439(8)
H29_7 H 0.6439 0.8097 0.5106
C60_7 C 0.64548(14) 0.77866(6) 0.47134(6)
C61_7 C 0.65064(16) 0.80424(7) 0.44576(7)
C62_7 C 0.65525(15) 0.82475(7) 0.42525(7)
C63_7 C 0.65704(16) 0.85012(7) 0.39988(7)
C64_7 C 0.62833(7) 0.70379(5) 0.54621(5)
C65_7 C 0.6603(2) 0.84341(14) 0.36829(14)
H30_7 H 0.6628 0.8212 0.3618
C66_7 C 0.63408(9) 0.73019(5) 0.51981(5)
C67_7 C 0.63733(10) 0.98680(7) 0.22148(7)
H31_7 H 0.6361 0.9806 0.1990
C68_7 C 0.64246(12) 0.96271(7) 0.24561(8)
H32_7 H 0.6439 0.9403 0.2394
C69_7 C 0.6603(2) 0.90659(14) 0.38171(14)
H33_7 H 0.6628 0.9288 0.3882
O16_7 O 0.62593(3) 0.71400(3) 0.57607(3)
C70_7 C 0.63733(10) 0.72148(7) 0.48680(7)
H34_7 H 0.6361 0.6990 0.4806
C71_7 C 0.64246(12) 0.74561(8) 0.46271(7)
H35_7 H 0.6439 0.7394 0.4403
C72_7 C 0.6603(2) 0.88171(14) 0.40659(14)
H36_7 H 0.6628 0.8882 0.4288
C3_7 C 0.60452(14) 0.97134(6) 0.97134(6)
C4_7 C 0.59936(16) 0.94576(7) 0.94576(7)
C5_7 C 0.59475(15) 0.92525(7) 0.92525(7)
C6_7 C 0.59296(16) 0.89988(7) 0.89988(7)
C8_7 C 0.5897(2) 0.86829(14) 0.90659(14)
H3_7 H 0.5872 0.8618 0.9288
O4_7 O 0.62407(3) 0.67393(3) 0.71400(3)
C10_7 C 0.61267(10) 0.76320(7) 0.72148(7)
H4_7 H 0.6139 0.7694 0.6990
C11_7 C 0.60754(12) 0.78729(7) 0.74561(8)
H5_7 H 0.6061 0.8097 0.7394
C12_7 C 0.60452(14) 0.77866(6) 0.77866(6)
C13_7 C 0.59936(16) 0.80424(7) 0.80424(7)
C14_7 C 0.59475(15) 0.82475(7) 0.82475(7)
C15_7 C 0.59296(16) 0.85012(7) 0.85012(7)
C16_7 C 0.62167(7) 0.70379(5) 0.70379(5)
C17_7 C 0.5897(2) 0.84341(14) 0.88171(14)
H6_7 H 0.5872 0.8212 0.8882
C18_7 C 0.61592(9) 0.73019(5) 0.73019(5)
C21_7 C 0.5897(2) 0.90659(14) 0.86829(14)
H9_7 H 0.5872 0.9288 0.8618
O6_7 O 0.62407(3) 0.71400(3) 0.67393(3)
C22_7 C 0.61267(10) 0.72148(7) 0.76320(7)
H10_7 H 0.6139 0.6990 0.7694
C23_7 C 0.60754(12) 0.74561(8) 0.78729(7)
H11_7 H 0.6061 0.7394 0.8097
C24_7 C 0.5897(2) 0.88171(14) 0.84341(14)
H12_7 H 0.5872 0.8882 0.8212
O4_8 O 0.12407(3) 0.07607(3) 0.53600(3)
C16_8 C 0.12167(7) 0.04621(5) 0.54621(5)
C18_8 C 0.11592(9) 0.01981(5) 0.51981(5)
O6_8 O 0.12407(3) 0.03600(3) 0.57607(3)
C22_8 C 0.11267(10) 0.02852(7) 0.48680(7)
H10_8 H 0.1139 0.0510 0.4806
C23_8 C 0.10754(12) 0.00439(8) 0.46271(7)
H11_8 H 0.1061 0.0106 0.4403
C64_8 C 0.12833(7) 0.04621(5) 0.70379(5)
C66_8 C 0.13408(9) 0.01981(5) 0.73019(5)
O16_8 O 0.12593(3) 0.03600(3) 0.67393(3)
C70_8 C 0.13733(10) 0.02852(7) 0.76320(7)
H34_8 H 0.1361 0.0510 0.7694
C71_8 C 0.14246(12) 0.00439(8) 0.78729(7)
H35_8 H 0.1439 0.0106 0.8097
C1_8 C 0.11267(10) 0.72148(7) 0.26320(7)
H1_8 H 0.1139 0.6990 0.2694
C2_8 C 0.10754(12) 0.74561(8) 0.28729(7)
H2_8 H 0.1061 0.7394 0.3097
C3_8 C 0.10452(14) 0.77866(6) 0.27866(6)
C4_8 C 0.09936(16) 0.80424(7) 0.30424(7)
C5_8 C 0.09475(15) 0.82475(7) 0.32475(7)
C6_8 C 0.09296(16) 0.85012(7) 0.35012(7)
C7_8 C 0.12167(7) 0.70379(5) 0.20379(5)
C8_8 C 0.0897(2) 0.88171(14) 0.34341(14)
H3_8 H 0.0872 0.8882 0.3212
C9_8 C 0.11592(9) 0.73019(5) 0.23019(5)
C10_8 C 0.11267(10) 0.98680(7) 0.52852(7)
H4_8 H 0.1139 0.9806 0.5510
C11_8 C 0.10754(12) 0.96271(7) 0.50439(8)
H5_8 H 0.1061 0.9403 0.5106
C12_8 C 0.10452(14) 0.97134(6) 0.47134(6)
C13_8 C 0.09936(16) 0.94576(7) 0.44576(7)
C14_8 C 0.09475(15) 0.92525(7) 0.42525(7)
C15_8 C 0.09296(16) 0.89988(7) 0.39988(7)
C17_8 C 0.0897(2) 0.90659(14) 0.36829(14)
H6_8 H 0.0872 0.9288 0.3618
O5_8 O 0.12407(3) 0.67393(3) 0.21400(3)
C19_8 C 0.11267(10) 0.76320(7) 0.22148(7)
H7_8 H 0.1139 0.7694 0.1990
C20_8 C 0.10754(12) 0.78729(7) 0.24561(8)
H8_8 H 0.1061 0.8097 0.2394
C21_8 C 0.0897(2) 0.84341(14) 0.38171(14)
H9_8 H 0.0872 0.8212 0.3882
C24_8 C 0.0897(2) 0.86829(14) 0.40659(14)
H12_8 H 0.0872 0.8618 0.4288
C55_8 C 0.12833(7) 0.70379(5) 0.04621(5)
C57_8 C 0.13408(9) 0.73019(5) 0.01981(5)
C67_8 C 0.13733(10) 0.76320(7) 0.02852(7)
H31_8 H 0.1361 0.7694 0.0510
C68_8 C 0.14246(12) 0.78729(7) 0.00439(8)
H32_8 H 0.1439 0.8097 0.0106
C49_8 C 0.13733(10) 0.72148(7) 0.98680(7)
H25_8 H 0.1361 0.6990 0.9806
C50_8 C 0.14246(12) 0.74561(8) 0.96271(7)
H26_8 H 0.1439 0.7394 0.9403
C51_8 C 0.14548(14) 0.77866(6) 0.97134(6)
C52_8 C 0.15064(16) 0.80424(7) 0.94576(7)
C53_8 C 0.15525(15) 0.82475(7) 0.92525(7)
C54_8 C 0.15704(16) 0.85012(7) 0.89988(7)
C56_8 C 0.1603(2) 0.88171(14) 0.90659(14)
H27_8 H 0.1628 0.8882 0.9288
C58_8 C 0.13733(10) 0.98680(7) 0.72148(7)
H28_8 H 0.1361 0.9806 0.6990
C59_8 C 0.14246(12) 0.96271(7) 0.74561(8)
H29_8 H 0.1439 0.9403 0.7394
C60_8 C 0.14548(14) 0.97134(6) 0.77866(6)
C61_8 C 0.15064(16) 0.94576(7) 0.80424(7)
C62_8 C 0.15525(15) 0.92525(7) 0.82475(7)
C63_8 C 0.15704(16) 0.89988(7) 0.85012(7)
C65_8 C 0.1603(2) 0.90659(14) 0.88171(14)
H30_8 H 0.1628 0.9288 0.8882
C69_8 C 0.1603(2) 0.84341(14) 0.86829(14)
H33_8 H 0.1628 0.8212 0.8618
C72_8 C 0.1603(2) 0.86829(14) 0.84341(14)
H36_8 H 0.1628 0.8618 0.8212
C1_9 C 0.48680(7) 0.13733(10) 0.22148(7)
H1_9 H 0.4806 0.1361 0.1990
C2_9 C 0.46271(7) 0.14246(12) 0.24561(8)
H2_9 H 0.4403 0.1439 0.2394
C3_9 C 0.47134(6) 0.14548(14) 0.27866(6)
C4_9 C 0.44576(7) 0.15064(16) 0.30424(7)
C5_9 C 0.42525(7) 0.15525(15) 0.32475(7)
C6_9 C 0.39988(7) 0.15704(16) 0.35012(7)
C7_9 C 0.54621(5) 0.12833(7) 0.20379(5)
C8_9 C 0.40659(14) 0.1603(2) 0.38171(14)
H3_9 H 0.4288 0.1628 0.3882
C9_9 C 0.51981(5) 0.13408(9) 0.23019(5)
O4_9 O 0.21400(3) 0.12593(3) 0.57607(3)
C10_9 C 0.22148(7) 0.13733(10) 0.48680(7)
H4_9 H 0.1990 0.1361 0.4806
C11_9 C 0.24561(8) 0.14246(12) 0.46271(7)
H5_9 H 0.2394 0.1439 0.4403
C12_9 C 0.27866(6) 0.14548(14) 0.47134(6)
C13_9 C 0.30424(7) 0.15064(16) 0.44576(7)
C14_9 C 0.32475(7) 0.15525(15) 0.42525(7)
C15_9 C 0.35012(7) 0.15704(16) 0.39988(7)
C16_9 C 0.20379(5) 0.12833(7) 0.54621(5)
C17_9 C 0.38171(14) 0.1603(2) 0.40659(14)
H6_9 H 0.3882 0.1628 0.4288
C18_9 C 0.23019(5) 0.13408(9) 0.51981(5)
O5_9 O 0.53600(3) 0.12593(3) 0.17393(3)
C19_9 C 0.52852(7) 0.13733(10) 0.26320(7)
H7_9 H 0.5510 0.1361 0.2694
C20_9 C 0.50439(8) 0.14246(12) 0.28729(7)
H8_9 H 0.5106 0.1439 0.3097
C21_9 C 0.36829(14) 0.1603(2) 0.34341(14)
H9_9 H 0.3618 0.1628 0.3212
O6_9 O 0.17393(3) 0.12593(3) 0.53600(3)
C22_9 C 0.26320(7) 0.13733(10) 0.52852(7)
H10_9 H 0.2694 0.1361 0.5510
C23_9 C 0.28729(7) 0.14246(12) 0.50439(8)
H11_9 H 0.3097 0.1439 0.5106
C24_9 C 0.34341(14) 0.1603(2) 0.36829(14)
H12_9 H 0.3212 0.1628 0.3618
O4_10 O 0.03600(3) 0.62593(3) 0.17393(3)
C10_10 C 0.02852(7) 0.63733(10) 0.26320(7)
H4_10 H 0.0510 0.6361 0.2694
C11_10 C 0.00439(8) 0.64246(12) 0.28729(7)
H5_10 H 0.0106 0.6439 0.3097
C16_10 C 0.04621(5) 0.62833(7) 0.20379(5)
C18_10 C 0.01981(5) 0.63408(9) 0.23019(5)
O6_10 O 0.07607(3) 0.62593(3) 0.21400(3)
C1_10 C 0.76320(7) 0.63733(10) 0.52852(7)
H1_10 H 0.7694 0.6361 0.5510
C2_10 C 0.78729(7) 0.64246(12) 0.50439(8)
H2_10 H 0.8097 0.6439 0.5106
C3_10 C 0.77866(6) 0.64548(14) 0.47134(6)
C4_10 C 0.80424(7) 0.65064(16) 0.44576(7)
C5_10 C 0.82475(7) 0.65525(15) 0.42525(7)
C6_10 C 0.85012(7) 0.65704(16) 0.39988(7)
C7_10 C 0.70379(5) 0.62833(7) 0.54621(5)
C8_10 C 0.84341(14) 0.6603(2) 0.36829(14)
H3_10 H 0.8212 0.6628 0.3618
C9_10 C 0.73019(5) 0.63408(9) 0.51981(5)
C12_10 C 0.97134(6) 0.64548(14) 0.27866(6)
C13_10 C 0.94576(7) 0.65064(16) 0.30424(7)
C14_10 C 0.92525(7) 0.65525(15) 0.32475(7)
C15_10 C 0.89988(7) 0.65704(16) 0.35012(7)
C17_10 C 0.86829(14) 0.6603(2) 0.34341(14)
H6_10 H 0.8618 0.6628 0.3212
O5_10 O 0.71400(3) 0.62593(3) 0.57607(3)
C19_10 C 0.72148(7) 0.63733(10) 0.48680(7)
H7_10 H 0.6990 0.6361 0.4806
C20_10 C 0.74561(8) 0.64246(12) 0.46271(7)
H8_10 H 0.7394 0.6439 0.4403
C21_10 C 0.88171(14) 0.6603(2) 0.40659(14)
H9_10 H 0.8882 0.6628 0.4288
C22_10 C 0.98680(7) 0.63733(10) 0.22148(7)
H10_10 H 0.9806 0.6361 0.1990
C23_10 C 0.96271(7) 0.64246(12) 0.24561(8)
H11_10 H 0.9403 0.6439 0.2394
C24_10 C 0.90659(14) 0.6603(2) 0.38171(14)
H12_10 H 0.9288 0.6628 0.3882
C7_11 C 0.04621(5) 0.62167(7) 0.04621(5)
C9_11 C 0.01981(5) 0.61592(9) 0.01981(5)
O5_11 O 0.03600(3) 0.62407(3) 0.07607(3)
C19_11 C 0.02852(7) 0.61267(10) 0.98680(7)
H7_11 H 0.0510 0.6139 0.9806
C20_11 C 0.00439(8) 0.60754(12) 0.96271(7)
H8_11 H 0.0106 0.6061 0.9403
C1_11 C 0.98680(7) 0.61267(10) 0.02852(7)
H1_11 H 0.9806 0.6139 0.0510
C2_11 C 0.96271(7) 0.60754(12) 0.00439(8)
H2_11 H 0.9403 0.6061 0.0106
C3_11 C 0.97134(6) 0.60452(14) 0.97134(6)
C4_11 C 0.94576(7) 0.59936(16) 0.94576(7)
C5_11 C 0.92525(7) 0.59475(15) 0.92525(7)
C6_11 C 0.89988(7) 0.59296(16) 0.89988(7)
C8_11 C 0.90659(14) 0.5897(2) 0.86829(14)
H3_11 H 0.9288 0.5872 0.8618
O4_11 O 0.71400(3) 0.62407(3) 0.67393(3)
C10_11 C 0.72148(7) 0.61267(10) 0.76320(7)
H4_11 H 0.6990 0.6139 0.7694
C11_11 C 0.74561(8) 0.60754(12) 0.78729(7)
H5_11 H 0.7394 0.6061 0.8097
C12_11 C 0.77866(6) 0.60452(14) 0.77866(6)
C13_11 C 0.80424(7) 0.59936(16) 0.80424(7)
C14_11 C 0.82475(7) 0.59475(15) 0.82475(7)
C15_11 C 0.85012(7) 0.59296(16) 0.85012(7)
C16_11 C 0.70379(5) 0.62167(7) 0.70379(5)
C17_11 C 0.88171(14) 0.5897(2) 0.84341(14)
H6_11 H 0.8882 0.5872 0.8212
C18_11 C 0.73019(5) 0.61592(9) 0.73019(5)
C21_11 C 0.86829(14) 0.5897(2) 0.90659(14)
H9_11 H 0.8618 0.5872 0.9288
O6_11 O 0.67393(3) 0.62407(3) 0.71400(3)
C22_11 C 0.76320(7) 0.61267(10) 0.72148(7)
H10_11 H 0.7694 0.6139 0.6990
C23_11 C 0.78729(7) 0.60754(12) 0.74561(8)
H11_11 H 0.8097 0.6061 0.7394
C24_11 C 0.84341(14) 0.5897(2) 0.88171(14)
H12_11 H 0.8212 0.5872 0.8882
O4_12 O 0.53600(3) 0.12407(3) 0.07607(3)
C16_12 C 0.54621(5) 0.12167(7) 0.04621(5)
C18_12 C 0.51981(5) 0.11592(9) 0.01981(5)
O6_12 O 0.57607(3) 0.12407(3) 0.03600(3)
C22_12 C 0.48680(7) 0.11267(10) 0.02852(7)
H10_12 H 0.4806 0.1139 0.0510
C23_12 C 0.46271(7) 0.10754(12) 0.00439(8)
H11_12 H 0.4403 0.1061 0.0106
C1_12 C 0.26320(7) 0.11267(10) 0.72148(7)
H1_12 H 0.2694 0.1139 0.6990
C2_12 C 0.28729(7) 0.10754(12) 0.74561(8)
H2_12 H 0.3097 0.1061 0.7394
C3_12 C 0.27866(6) 0.10452(14) 0.77866(6)
C4_12 C 0.30424(7) 0.09936(16) 0.80424(7)
C5_12 C 0.32475(7) 0.09475(15) 0.82475(7)
C6_12 C 0.35012(7) 0.09296(16) 0.85012(7)
C7_12 C 0.20379(5) 0.12167(7) 0.70379(5)
C8_12 C 0.34341(14) 0.0897(2) 0.88171(14)
H3_12 H 0.3212 0.0872 0.8882
C9_12 C 0.23019(5) 0.11592(9) 0.73019(5)
C10_12 C 0.52852(7) 0.11267(10) 0.98680(7)
H4_12 H 0.5510 0.1139 0.9806
C11_12 C 0.50439(8) 0.10754(12) 0.96271(7)
H5_12 H 0.5106 0.1061 0.9403
C12_12 C 0.47134(6) 0.10452(14) 0.97134(6)
C13_12 C 0.44576(7) 0.09936(16) 0.94576(7)
C14_12 C 0.42525(7) 0.09475(15) 0.92525(7)
C15_12 C 0.39988(7) 0.09296(16) 0.89988(7)
C17_12 C 0.36829(14) 0.0897(2) 0.90659(14)
H6_12 H 0.3618 0.0872 0.9288
O5_12 O 0.21400(3) 0.12407(3) 0.67393(3)
C19_12 C 0.22148(7) 0.11267(10) 0.76320(7)
H7_12 H 0.1990 0.1139 0.7694
C20_12 C 0.24561(8) 0.10754(12) 0.78729(7)
H8_12 H 0.2394 0.1061 0.8097
C21_12 C 0.38171(14) 0.0897(2) 0.84341(14)
H9_12 H 0.3882 0.0872 0.8212
C24_12 C 0.40659(14) 0.0897(2) 0.86829(14)
H12_12 H 0.4288 0.0872 0.8618
O27_5 O 0.15864(6) 0.09136(6) 0.59136(6)
O27_6 O 0.59136(6) 0.15864(6) 0.09136(6)
O27_7 O 0.09136(6) 0.59136(6) 0.15864(6)
O27_8 O 0.65864(6) 0.65864(6) 0.65864(6)
Zr1_3 Zr 0.3750 0.43719(2) 0.3750
O1_5 O 0.32607(3) 0.46400(3) 0.37407(3)
C1_13 C 0.23680(7) 0.47148(7) 0.36267(10)
H1_13 H 0.2306 0.4490 0.3639
O2_5 O 0.34736(6) 0.40265(6) 0.34735(6)
C2_13 C 0.21271(7) 0.49561(8) 0.35754(12)
H2_13 H 0.1903 0.4894 0.3561
C3_13 C 0.22134(6) 0.52866(6) 0.35452(14)
O3_5 O 0.40864(6) 0.40864(6) 0.34136(6)
C4_13 C 0.19576(7) 0.55424(7) 0.34936(16)
C5_13 C 0.17525(7) 0.57475(7) 0.34475(15)
C6_13 C 0.14988(7) 0.60012(7) 0.34296(16)
C7_13 C 0.29621(5) 0.45379(5) 0.37167(7)
C8_13 C 0.15659(14) 0.63171(14) 0.3397(2)
H3_13 H 0.1788 0.6382 0.3372
C9_13 C 0.26981(5) 0.48019(5) 0.36592(9)
C12_13 C 0.02866(6) 0.72134(6) 0.35452(14)
C13_13 C 0.05424(7) 0.69576(7) 0.34936(16)
C14_13 C 0.07475(7) 0.67525(7) 0.34475(15)
C15_13 C 0.10012(7) 0.64988(7) 0.34296(16)
C17_13 C 0.13171(14) 0.65659(14) 0.3397(2)
H6_13 H 0.1382 0.6788 0.3372
O5_13 O 0.28600(3) 0.42393(3) 0.37407(3)
C19_13 C 0.27852(7) 0.51320(7) 0.36267(10)
H7_13 H 0.3010 0.5194 0.3639
C20_13 C 0.25439(8) 0.53729(7) 0.35754(12)
H8_13 H 0.2606 0.5597 0.3561
C21_13 C 0.11829(14) 0.59341(14) 0.3397(2)
H9_13 H 0.1118 0.5712 0.3372
C22_13 C 0.01320(7) 0.77852(7) 0.36267(10)
H10_13 H 0.0194 0.8010 0.3639
C23_13 C 0.03729(7) 0.75439(8) 0.35754(12)
H11_13 H 0.0597 0.7606 0.3561
C24_13 C 0.09341(14) 0.61829(14) 0.3397(2)
H12_13 H 0.0712 0.6118 0.3372
Zr2_3 Zr 0.43719(2) 0.3750 0.3750
O7_5 O 0.40265(6) 0.34735(6) 0.34736(6)
O8_5 O 0.40864(6) 0.34136(6) 0.40864(6)
Zr3_3 Zr 0.3750 0.3750 0.43719(2)
O9_5 O 0.37407(3) 0.42393(3) 0.28600(3)
C25_5 C 0.36267(10) 0.51320(7) 0.27852(7)
H13_5 H 0.3639 0.5194 0.3010
C26_5 C 0.35754(12) 0.53729(7) 0.25439(8)
H14_5 H 0.3561 0.5597 0.2606
C27_5 C 0.35452(14) 0.52866(6) 0.22134(6)
C28_5 C 0.34936(16) 0.55424(7) 0.19576(7)
C29_5 C 0.34475(15) 0.57475(7) 0.17525(7)
C30_5 C 0.34296(16) 0.60012(7) 0.14988(7)
C31_5 C 0.37167(7) 0.45379(5) 0.29621(5)
C32_5 C 0.3397(2) 0.59341(14) 0.11829(14)
H15_5 H 0.3372 0.5712 0.1118
C33_5 C 0.36592(9) 0.48019(5) 0.26981(5)
C34_5 C 0.36267(10) 0.77852(7) 0.01320(7)
H16_5 H 0.3639 0.8010 0.0194
C35_5 C 0.35754(12) 0.75439(8) 0.03729(7)
H17_5 H 0.3561 0.7606 0.0597
C36_5 C 0.35452(14) 0.72134(6) 0.02866(6)
C37_5 C 0.34936(16) 0.69576(7) 0.05424(7)
C38_5 C 0.34475(15) 0.67525(7) 0.07475(7)
C39_5 C 0.34296(16) 0.64988(7) 0.10012(7)
C41_5 C 0.3397(2) 0.61829(14) 0.09341(14)
H18_5 H 0.3372 0.6118 0.0712
O11_5 O 0.37407(3) 0.46400(3) 0.32607(3)
C43_5 C 0.36267(10) 0.47148(7) 0.23680(7)
H19_5 H 0.3639 0.4490 0.2306
C44_5 C 0.35754(12) 0.49561(8) 0.21271(7)
H20_5 H 0.3561 0.4894 0.1903
C45_5 C 0.3397(2) 0.63171(14) 0.15659(14)
H21_5 H 0.3372 0.6382 0.1788
C48_5 C 0.3397(2) 0.65659(14) 0.13171(14)
H24_5 H 0.3372 0.6788 0.1382
O13_5 O 0.42393(3) 0.46400(3) 0.37593(3)
C49_9 C 0.51320(7) 0.47148(7) 0.38733(10)
H25_9 H 0.5194 0.4490 0.3861
C50_9 C 0.53729(7) 0.49561(8) 0.39246(12)
H26_9 H 0.5597 0.4894 0.3939
C51_9 C 0.52866(6) 0.52866(6) 0.39548(14)
C52_9 C 0.55424(7) 0.55424(7) 0.40064(16)
C53_9 C 0.57475(7) 0.57475(7) 0.40525(15)
C54_9 C 0.60012(7) 0.60012(7) 0.40704(16)
C55_9 C 0.45379(5) 0.45379(5) 0.37833(7)
C56_9 C 0.59341(14) 0.63171(14) 0.4103(2)
H27_9 H 0.5712 0.6382 0.4128
C57_9 C 0.48019(5) 0.48019(5) 0.38408(9)
O14_3 O 0.78600(3) 0.82607(3) 0.37593(3)
C58_9 C 0.77852(7) 0.73680(7) 0.38733(10)
H28_9 H 0.8010 0.7306 0.3861
C59_9 C 0.75439(8) 0.71271(7) 0.39246(12)
H29_9 H 0.7606 0.6903 0.3939
C60_9 C 0.72134(6) 0.72134(6) 0.39548(14)
C61_9 C 0.69576(7) 0.69576(7) 0.40064(16)
C62_9 C 0.67525(7) 0.67525(7) 0.40525(15)
C63_9 C 0.64988(7) 0.64988(7) 0.40704(16)
C64_9 C 0.79621(5) 0.79621(5) 0.37833(7)
C65_9 C 0.61829(14) 0.65659(14) 0.4103(2)
H30_9 H 0.6118 0.6788 0.4128
C66_9 C 0.76981(5) 0.76981(5) 0.38408(9)
O15_5 O 0.46400(3) 0.42393(3) 0.37593(3)
C67_9 C 0.47148(7) 0.51320(7) 0.38733(10)
H31_9 H 0.4490 0.5194 0.3861
C68_9 C 0.49561(8) 0.53729(7) 0.39246(12)
H32_9 H 0.4894 0.5597 0.3939
C69_9 C 0.63171(14) 0.59341(14) 0.4103(2)
H33_9 H 0.6382 0.5712 0.4128
O16_9 O 0.82607(3) 0.78600(3) 0.37593(3)
C70_9 C 0.73680(7) 0.77852(7) 0.38733(10)
H34_9 H 0.7306 0.8010 0.3861
C71_9 C 0.71271(7) 0.75439(8) 0.39246(12)
H35_9 H 0.6903 0.7606 0.3939
C72_9 C 0.65659(14) 0.61829(14) 0.4103(2)
H36_9 H 0.6788 0.6118 0.4128
Zr5_3 Zr 0.81281(2) 0.8750 0.3750
Zr8_2 Zr 0.8750 0.81281(2) 0.3750
Zr9_3 Zr 0.3750 0.31281(2) 0.3750
Zr10_5 Zr 0.3750 0.3750 0.31281(2)
Zr12_3 Zr 0.31281(2) 0.3750 0.3750
O17_5 O 0.46400(3) 0.37407(3) 0.32607(3)
O18_5 O 0.37407(3) 0.32607(3) 0.46400(3)
O19_5 O 0.46400(3) 0.37593(3) 0.42393(3)
O20_3 O 0.37593(3) 0.42393(3) 0.46400(3)
O21_3 O 0.37593(3) 0.46400(3) 0.42393(3)
O22_5 O 0.42393(3) 0.37593(3) 0.46400(3)
O23_3 O 0.46400(3) 0.32607(3) 0.37407(3)
O24_5 O 0.32607(3) 0.37407(3) 0.46400(3)
O25_5 O 0.34735(6) 0.34736(6) 0.40265(6)
O26_5 O 0.40265(6) 0.40265(6) 0.40264(6)
O27_9 O 0.34136(6) 0.40864(6) 0.40864(6)
O10_3 O 0.37407(3) 0.78600(3) 0.92393(3)
C40_5 C 0.37167(7) 0.79621(5) 0.95379(5)
C42_5 C 0.36592(9) 0.76981(5) 0.98019(5)
O12_3 O 0.37407(3) 0.82607(3) 0.96400(3)
C46_5 C 0.36267(10) 0.73680(7) 0.97148(7)
H22_5 H 0.3639 0.7306 0.9490
C47_5 C 0.35754(12) 0.71271(7) 0.99561(8)
H23_5 H 0.3561 0.6903 0.9894
Zr4_3 Zr 0.3750 0.81281(2) 0.8750
Zr6_3 Zr 0.3750 0.8750 0.93719(2)
O4_13 O 0.96400(3) 0.82607(3) 0.37407(3)
C10_13 C 0.97148(7) 0.73680(7) 0.36267(10)
H4_13 H 0.9490 0.7306 0.3639
C11_13 C 0.99561(8) 0.71271(7) 0.35754(12)
H5_13 H 0.9894 0.6903 0.3561
C16_13 C 0.95379(5) 0.79621(5) 0.37167(7)
C18_13 C 0.98019(5) 0.76981(5) 0.36592(9)
O6_13 O 0.92393(3) 0.78600(3) 0.37407(3)
Zr11_3 Zr 0.93719(2) 0.8750 0.3750
O1_6 O 0.42393(3) 0.78600(3) 0.87407(3)
C1_14 C 0.51320(7) 0.77852(7) 0.86267(10)
H1_14 H 0.5194 0.8010 0.8639
O2_6 O 0.40264(6) 0.84735(6) 0.84735(6)
C2_14 C 0.53729(7) 0.75439(8) 0.85754(12)
H2_14 H 0.5597 0.7606 0.8561
C3_14 C 0.52866(6) 0.72134(6) 0.85452(14)
O3_6 O 0.34136(6) 0.84136(6) 0.84136(6)
C4_14 C 0.55424(7) 0.69576(7) 0.84936(16)
C5_14 C 0.57475(7) 0.67525(7) 0.84475(15)
C6_14 C 0.60012(7) 0.64988(7) 0.84296(16)
C7_14 C 0.45379(5) 0.79621(5) 0.87167(7)
C8_14 C 0.59341(14) 0.61829(14) 0.8397(2)
H3_14 H 0.5712 0.6118 0.8372
C9_14 C 0.48019(5) 0.76981(5) 0.86592(9)
O4_14 O 0.78600(3) 0.42393(3) 0.87407(3)
C10_14 C 0.77852(7) 0.51320(7) 0.86267(10)
H4_14 H 0.8010 0.5194 0.8639
C11_14 C 0.75439(8) 0.53729(7) 0.85754(12)
H5_14 H 0.7606 0.5597 0.8561
C12_14 C 0.72134(6) 0.52866(6) 0.85452(14)
C13_14 C 0.69576(7) 0.55424(7) 0.84936(16)
C14_14 C 0.67525(7) 0.57475(7) 0.84475(15)
C15_14 C 0.64988(7) 0.60012(7) 0.84296(16)
C16_14 C 0.79621(5) 0.45379(5) 0.87167(7)
C17_14 C 0.61829(14) 0.59341(14) 0.8397(2)
H6_14 H 0.6118 0.5712 0.8372
C18_14 C 0.76981(5) 0.48019(5) 0.86592(9)
O5_14 O 0.46400(3) 0.82607(3) 0.87407(3)
C19_14 C 0.47148(7) 0.73680(7) 0.86267(10)
H7_14 H 0.4490 0.7306 0.8639
C20_14 C 0.49561(8) 0.71271(7) 0.85754(12)
H8_14 H 0.4894 0.6903 0.8561
C21_14 C 0.63171(14) 0.65659(14) 0.8397(2)
H9_14 H 0.6382 0.6788 0.8372
O6_14 O 0.82607(3) 0.46400(3) 0.87407(3)
C22_14 C 0.73680(7) 0.47148(7) 0.86267(10)
H10_14 H 0.7306 0.4490 0.8639
C23_14 C 0.71271(7) 0.49561(8) 0.85754(12)
H11_14 H 0.6903 0.4894 0.8561
C24_14 C 0.65659(14) 0.63171(14) 0.8397(2)
H12_14 H 0.6788 0.6382 0.8372
Zr2_4 Zr 0.31281(2) 0.8750 0.8750
O7_6 O 0.34735(6) 0.90265(6) 0.84736(6)
O8_6 O 0.34136(6) 0.90864(6) 0.90864(6)
O9_6 O 0.37593(3) 0.82607(3) 0.78600(3)
C25_6 C 0.38733(10) 0.73680(7) 0.77852(7)
H13_6 H 0.3861 0.7306 0.8010
C26_6 C 0.39246(12) 0.71271(7) 0.75439(8)
H14_6 H 0.3939 0.6903 0.7606
C27_6 C 0.39548(14) 0.72134(6) 0.72134(6)
C28_6 C 0.40064(16) 0.69576(7) 0.69576(7)
C29_6 C 0.40525(15) 0.67525(7) 0.67525(7)
C30_6 C 0.40704(16) 0.64988(7) 0.64988(7)
C31_6 C 0.37833(7) 0.79621(5) 0.79621(5)
C32_6 C 0.4103(2) 0.65659(14) 0.61829(14)
H15_6 H 0.4128 0.6788 0.6118
C33_6 C 0.38408(9) 0.76981(5) 0.76981(5)
C34_6 C 0.38733(10) 0.47148(7) 0.51320(7)
H16_6 H 0.3861 0.4490 0.5194
C35_6 C 0.39246(12) 0.49561(8) 0.53729(7)
H17_6 H 0.3939 0.4894 0.5597
C36_6 C 0.39548(14) 0.52866(6) 0.52866(6)
C37_6 C 0.40064(16) 0.55424(7) 0.55424(7)
C38_6 C 0.40525(15) 0.57475(7) 0.57475(7)
C39_6 C 0.40704(16) 0.60012(7) 0.60012(7)
C40_6 C 0.37833(7) 0.45379(5) 0.45379(5)
C41_6 C 0.4103(2) 0.63171(14) 0.59341(14)
H18_6 H 0.4128 0.6382 0.5712
C42_6 C 0.38408(9) 0.48019(5) 0.48019(5)
O11_6 O 0.37593(3) 0.78600(3) 0.82607(3)
C43_6 C 0.38733(10) 0.77852(7) 0.73680(7)
H19_6 H 0.3861 0.8010 0.7306
C44_6 C 0.39246(12) 0.75439(8) 0.71271(7)
H20_6 H 0.3939 0.7606 0.6903
C45_6 C 0.4103(2) 0.61829(14) 0.65659(14)
H21_6 H 0.4128 0.6118 0.6788
C46_6 C 0.38733(10) 0.51320(7) 0.47148(7)
H22_6 H 0.3861 0.5194 0.4490
C47_6 C 0.39246(12) 0.53729(7) 0.49561(8)
H23_6 H 0.3939 0.5597 0.4894
C48_6 C 0.4103(2) 0.59341(14) 0.63171(14)
H24_6 H 0.4128 0.5712 0.6382
O13_6 O 0.32607(3) 0.78600(3) 0.87593(3)
C49_10 C 0.23680(7) 0.77852(7) 0.88733(10)
H25_10 H 0.2306 0.8010 0.8861
C50_10 C 0.21271(7) 0.75439(8) 0.89246(12)
H26_10 H 0.1903 0.7606 0.8939
C51_10 C 0.22134(6) 0.72134(6) 0.89548(14)
C52_10 C 0.19576(7) 0.69576(7) 0.90064(16)
C53_10 C 0.17525(7) 0.67525(7) 0.90525(15)
C54_10 C 0.14988(7) 0.64988(7) 0.90704(16)
C55_10 C 0.29621(5) 0.79621(5) 0.87833(7)
C56_10 C 0.15659(14) 0.61829(14) 0.9103(2)
H27_10 H 0.1788 0.6118 0.9128
C57_10 C 0.26981(5) 0.76981(5) 0.88408(9)
C60_10 C 0.02866(6) 0.52866(6) 0.89548(14)
C61_10 C 0.05424(7) 0.55424(7) 0.90064(16)
C62_10 C 0.07475(7) 0.57475(7) 0.90525(15)
C63_10 C 0.10012(7) 0.60012(7) 0.90704(16)
C65_10 C 0.13171(14) 0.59341(14) 0.9103(2)
H30_10 H 0.1382 0.5712 0.9128
O15_6 O 0.28600(3) 0.82607(3) 0.87593(3)
C67_10 C 0.27852(7) 0.73680(7) 0.88733(10)
H31_10 H 0.3010 0.7306 0.8861
C68_10 C 0.25439(8) 0.71271(7) 0.89246(12)
H32_10 H 0.2606 0.6903 0.8939
C69_10 C 0.11829(14) 0.65659(14) 0.9103(2)
H33_10 H 0.1118 0.6788 0.9128
C70_10 C 0.01320(7) 0.47148(7) 0.88733(10)
H34_10 H 0.0194 0.4490 0.8861
C71_10 C 0.03729(7) 0.49561(8) 0.89246(12)
H35_10 H 0.0597 0.4894 0.8939
C72_10 C 0.09341(14) 0.63171(14) 0.9103(2)
H36_10 H 0.0712 0.6382 0.9128
Zr7_2 Zr 0.8750 0.43719(2) 0.8750
Zr9_4 Zr 0.3750 0.93719(2) 0.8750
Zr10_6 Zr 0.3750 0.8750 0.81281(2)
Zr11_4 Zr 0.81281(2) 0.3750 0.8750
Zr12_4 Zr 0.43719(2) 0.8750 0.8750
O17_6 O 0.28600(3) 0.87593(3) 0.82607(3)
O18_6 O 0.37593(3) 0.92393(3) 0.96400(3)
O19_6 O 0.28600(3) 0.87407(3) 0.92393(3)
O22_6 O 0.32607(3) 0.87407(3) 0.96400(3)
O23_4 O 0.28600(3) 0.92393(3) 0.87407(3)
O24_6 O 0.42393(3) 0.87593(3) 0.96400(3)
O25_6 O 0.40265(6) 0.90264(6) 0.90265(6)
O26_6 O 0.34735(6) 0.84735(6) 0.90264(6)
O27_10 O 0.40864(6) 0.84136(6) 0.90864(6)
O14_4 O 0.96400(3) 0.42393(3) 0.87593(3)
C58_10 C 0.97148(7) 0.51320(7) 0.88733(10)
H28_10 H 0.9490 0.5194 0.8861
C59_10 C 0.99561(8) 0.53729(7) 0.89246(12)
H29_10 H 0.9894 0.5597 0.8939
C64_10 C 0.95379(5) 0.45379(5) 0.87833(7)
C66_10 C 0.98019(5) 0.48019(5) 0.88408(9)
O16_10 O 0.92393(3) 0.46400(3) 0.87593(3)
Zr5_4 Zr 0.93719(2) 0.3750 0.8750
C49_11 C 0.01320(7) 0.27852(7) 0.86267(10)
H25_11 H 0.0194 0.3010 0.8639
C50_11 C 0.03729(7) 0.25439(8) 0.85754(12)
H26_11 H 0.0597 0.2606 0.8561
C51_11 C 0.02866(6) 0.22134(6) 0.85452(14)
C52_11 C 0.05424(7) 0.19576(7) 0.84936(16)
C53_11 C 0.07475(7) 0.17525(7) 0.84475(15)
C54_11 C 0.10012(7) 0.14988(7) 0.84296(16)
C56_11 C 0.09341(14) 0.11829(14) 0.8397(2)
H27_11 H 0.0712 0.1118 0.8372
C58_11 C 0.27852(7) 0.01320(7) 0.86267(10)
H28_11 H 0.3010 0.0194 0.8639
C59_11 C 0.25439(8) 0.03729(7) 0.85754(12)
H29_11 H 0.2606 0.0597 0.8561
C60_11 C 0.22134(6) 0.02866(6) 0.85452(14)
C61_11 C 0.19576(7) 0.05424(7) 0.84936(16)
C62_11 C 0.17525(7) 0.07475(7) 0.84475(15)
C63_11 C 0.14988(7) 0.10012(7) 0.84296(16)
C65_11 C 0.11829(14) 0.09341(14) 0.8397(2)
H30_11 H 0.1118 0.0712 0.8372
C69_11 C 0.13171(14) 0.15659(14) 0.8397(2)
H33_11 H 0.1382 0.1788 0.8372
C72_11 C 0.15659(14) 0.13171(14) 0.8397(2)
H36_11 H 0.1788 0.1382 0.8372
C64_11 C 0.29621(5) 0.95379(5) 0.87167(7)
C66_11 C 0.26981(5) 0.98019(5) 0.86592(9)
O16_11 O 0.32607(3) 0.96400(3) 0.87407(3)
C70_11 C 0.23680(7) 0.97148(7) 0.86267(10)
H34_11 H 0.2306 0.9490 0.8639
C71_11 C 0.21271(7) 0.99561(8) 0.85754(12)
H35_11 H 0.1903 0.9894 0.8561
C27_7 C 0.85452(14) 0.22134(6) 0.02866(6)
C28_7 C 0.84936(16) 0.19576(7) 0.05424(7)
C29_7 C 0.84475(15) 0.17525(7) 0.07475(7)
C30_7 C 0.84296(16) 0.14988(7) 0.10012(7)
C32_7 C 0.8397(2) 0.15659(14) 0.13171(14)
H15_7 H 0.8372 0.1788 0.1382
C36_7 C 0.85452(14) 0.02866(6) 0.22134(6)
C37_7 C 0.84936(16) 0.05424(7) 0.19576(7)
C38_7 C 0.84475(15) 0.07475(7) 0.17525(7)
C39_7 C 0.84296(16) 0.10012(7) 0.14988(7)
C41_7 C 0.8397(2) 0.13171(14) 0.15659(14)
H18_7 H 0.8372 0.1382 0.1788
C43_7 C 0.86267(10) 0.27852(7) 0.01320(7)
H19_7 H 0.8639 0.3010 0.0194
C44_7 C 0.85754(12) 0.25439(8) 0.03729(7)
H20_7 H 0.8561 0.2606 0.0597
C45_7 C 0.8397(2) 0.11829(14) 0.09341(14)
H21_7 H 0.8372 0.1118 0.0712
C46_7 C 0.86267(10) 0.01320(7) 0.27852(7)
H22_7 H 0.8639 0.0194 0.3010
C47_7 C 0.85754(12) 0.03729(7) 0.25439(8)
H23_7 H 0.8561 0.0597 0.2606
C48_7 C 0.8397(2) 0.09341(14) 0.11829(14)
H24_7 H 0.8372 0.0712 0.1118
Zr1_4 Zr 0.8750 0.31281(2) 0.8750
O1_7 O 0.82607(3) 0.28600(3) 0.87593(3)
C1_15 C 0.73680(7) 0.27852(7) 0.88733(10)
H1_15 H 0.7306 0.3010 0.8861
O2_7 O 0.84736(6) 0.34735(6) 0.90265(6)
C2_15 C 0.71271(7) 0.25439(8) 0.89246(12)
H2_15 H 0.6903 0.2606 0.8939
C3_15 C 0.72134(6) 0.22134(6) 0.89548(14)
O3_7 O 0.90864(6) 0.34136(6) 0.90864(6)
C4_15 C 0.69576(7) 0.19576(7) 0.90064(16)
C5_15 C 0.67525(7) 0.17525(7) 0.90525(15)
C6_15 C 0.64988(7) 0.14988(7) 0.90704(16)
C7_15 C 0.79621(5) 0.29621(5) 0.87833(7)
C8_15 C 0.65659(14) 0.11829(14) 0.9103(2)
H3_15 H 0.6788 0.1118 0.9128
C9_15 C 0.76981(5) 0.26981(5) 0.88408(9)
C10_15 C 0.47148(7) 0.01320(7) 0.88733(10)
H4_15 H 0.4490 0.0194 0.8861
C11_15 C 0.49561(8) 0.03729(7) 0.89246(12)
H5_15 H 0.4894 0.0597 0.8939
C12_15 C 0.52866(6) 0.02866(6) 0.89548(14)
C13_15 C 0.55424(7) 0.05424(7) 0.90064(16)
C14_15 C 0.57475(7) 0.07475(7) 0.90525(15)
C15_15 C 0.60012(7) 0.10012(7) 0.90704(16)
C17_15 C 0.63171(14) 0.09341(14) 0.9103(2)
H6_15 H 0.6382 0.0712 0.9128
O5_15 O 0.78600(3) 0.32607(3) 0.87593(3)
C19_15 C 0.77852(7) 0.23680(7) 0.88733(10)
H7_15 H 0.8010 0.2306 0.8861
C20_15 C 0.75439(8) 0.21271(7) 0.89246(12)
H8_15 H 0.7606 0.1903 0.8939
C21_15 C 0.61829(14) 0.15659(14) 0.9103(2)
H9_15 H 0.6118 0.1788 0.9128
C24_15 C 0.59341(14) 0.13171(14) 0.9103(2)
H12_15 H 0.5712 0.1382 0.9128
O7_7 O 0.90265(6) 0.40265(6) 0.90264(6)
O8_7 O 0.90864(6) 0.40864(6) 0.84136(6)
Zr3_4 Zr 0.8750 0.3750 0.81281(2)
O9_7 O 0.87407(3) 0.32607(3) 0.96400(3)
C25_7 C 0.86267(10) 0.23680(7) 0.97148(7)
H13_7 H 0.8639 0.2306 0.9490
C26_7 C 0.85754(12) 0.21271(7) 0.99561(8)
H14_7 H 0.8561 0.1903 0.9894
C31_7 C 0.87167(7) 0.29621(5) 0.95379(5)
C33_7 C 0.86592(9) 0.26981(5) 0.98019(5)
O11_7 O 0.87407(3) 0.28600(3) 0.92393(3)
O13_7 O 0.92393(3) 0.28600(3) 0.87407(3)
C55_11 C 0.95379(5) 0.29621(5) 0.87167(7)
C57_11 C 0.98019(5) 0.26981(5) 0.86592(9)
O15_7 O 0.96400(3) 0.32607(3) 0.87407(3)
C67_11 C 0.97148(7) 0.23680(7) 0.86267(10)
H31_11 H 0.9490 0.2306 0.8639
C68_11 C 0.99561(8) 0.21271(7) 0.85754(12)
H32_11 H 0.9894 0.1903 0.8561
Zr10_7 Zr 0.8750 0.3750 0.93719(2)
O17_7 O 0.96400(3) 0.37593(3) 0.92393(3)
O18_7 O 0.87407(3) 0.42393(3) 0.78600(3)
O19_7 O 0.96400(3) 0.37407(3) 0.82607(3)
O20_4 O 0.87593(3) 0.32607(3) 0.78600(3)
O21_4 O 0.87593(3) 0.28600(3) 0.82607(3)
O22_7 O 0.92393(3) 0.37407(3) 0.78600(3)
O24_7 O 0.82607(3) 0.37593(3) 0.78600(3)
O25_7 O 0.84735(6) 0.40264(6) 0.84735(6)
O26_7 O 0.90265(6) 0.34735(6) 0.84736(6)
O27_11 O 0.84136(6) 0.34136(6) 0.84136(6)
O10_4 O 0.87407(3) 0.96400(3) 0.32607(3)
C34_7 C 0.86267(10) 0.97148(7) 0.23680(7)
H16_7 H 0.8639 0.9490 0.2306
C35_7 C 0.85754(12) 0.99561(8) 0.21271(7)
H17_7 H 0.8561 0.9894 0.1903
C40_7 C 0.87167(7) 0.95379(5) 0.29621(5)
C42_7 C 0.86592(9) 0.98019(5) 0.26981(5)
O12_4 O 0.87407(3) 0.92393(3) 0.28600(3)
Zr4_4 Zr 0.8750 0.93719(2) 0.3750
Zr6_4 Zr 0.8750 0.8750 0.31281(2)
O4_15 O 0.46400(3) 0.92393(3) 0.87593(3)
C16_15 C 0.45379(5) 0.95379(5) 0.87833(7)
C18_15 C 0.48019(5) 0.98019(5) 0.88408(9)
O6_15 O 0.42393(3) 0.96400(3) 0.87593(3)
C22_15 C 0.51320(7) 0.97148(7) 0.88733(10)
H10_15 H 0.5194 0.9490 0.8861
C23_15 C 0.53729(7) 0.99561(8) 0.89246(12)
H11_15 H 0.5597 0.9894 0.8939
C3_16 C 0.02866(6) 0.02866(6) 0.39548(14)
C4_16 C 0.05424(7) 0.05424(7) 0.40064(16)
C5_16 C 0.07475(7) 0.07475(7) 0.40525(15)
C6_16 C 0.10012(7) 0.10012(7) 0.40704(16)
C8_16 C 0.09341(14) 0.13171(14) 0.4103(2)
H3_16 H 0.0712 0.1382 0.4128
O4_16 O 0.28600(3) 0.32607(3) 0.37593(3)
C10_16 C 0.27852(7) 0.23680(7) 0.38733(10)
H4_16 H 0.3010 0.2306 0.3861
C11_16 C 0.25439(8) 0.21271(7) 0.39246(12)
H5_16 H 0.2606 0.1903 0.3939
C12_16 C 0.22134(6) 0.22134(6) 0.39548(14)
C13_16 C 0.19576(7) 0.19576(7) 0.40064(16)
C14_16 C 0.17525(7) 0.17525(7) 0.40525(15)
C15_16 C 0.14988(7) 0.14988(7) 0.40704(16)
C16_16 C 0.29621(5) 0.29621(5) 0.37833(7)
C17_16 C 0.11829(14) 0.15659(14) 0.4103(2)
H6_16 H 0.1118 0.1788 0.4128
C18_16 C 0.26981(5) 0.26981(5) 0.38408(9)
C21_16 C 0.13171(14) 0.09341(14) 0.4103(2)
H9_16 H 0.1382 0.0712 0.4128
O6_16 O 0.32607(3) 0.28600(3) 0.37593(3)
C22_16 C 0.23680(7) 0.27852(7) 0.38733(10)
H10_16 H 0.2306 0.3010 0.3861
C23_16 C 0.21271(7) 0.25439(8) 0.39246(12)
H11_16 H 0.1903 0.2606 0.3939
C24_16 C 0.15659(14) 0.11829(14) 0.4103(2)
H12_16 H 0.1788 0.1118 0.4128
C1_16 C 0.01320(7) 0.97148(7) 0.38733(10)
H1_16 H 0.0194 0.9490 0.3861
C2_16 C 0.03729(7) 0.99561(8) 0.39246(12)
H2_16 H 0.0597 0.9894 0.3939
C19_16 C 0.97148(7) 0.01320(7) 0.38733(10)
H7_16 H 0.9490 0.0194 0.3861
C20_16 C 0.99561(8) 0.03729(7) 0.39246(12)
H8_16 H 0.9894 0.0597 0.3939
C25_8 C 0.88733(10) 0.01320(7) 0.47148(7)
H13_8 H 0.8861 0.0194 0.4490
C26_8 C 0.89246(12) 0.03729(7) 0.49561(8)
H14_8 H 0.8939 0.0597 0.4894
C27_8 C 0.89548(14) 0.02866(6) 0.52866(6)
C28_8 C 0.90064(16) 0.05424(7) 0.55424(7)
C29_8 C 0.90525(15) 0.07475(7) 0.57475(7)
C30_8 C 0.90704(16) 0.10012(7) 0.60012(7)
C32_8 C 0.9103(2) 0.09341(14) 0.63171(14)
H15_8 H 0.9128 0.0712 0.6382
C34_8 C 0.88733(10) 0.27852(7) 0.73680(7)
H16_8 H 0.8861 0.3010 0.7306
C35_8 C 0.89246(12) 0.25439(8) 0.71271(7)
H17_8 H 0.8939 0.2606 0.6903
C36_8 C 0.89548(14) 0.22134(6) 0.72134(6)
C37_8 C 0.90064(16) 0.19576(7) 0.69576(7)
C38_8 C 0.90525(15) 0.17525(7) 0.67525(7)
C39_8 C 0.90704(16) 0.14988(7) 0.64988(7)
C40_8 C 0.87833(7) 0.29621(5) 0.79621(5)
C41_8 C 0.9103(2) 0.11829(14) 0.65659(14)
H18_8 H 0.9128 0.1118 0.6788
C42_8 C 0.88408(9) 0.26981(5) 0.76981(5)
C45_8 C 0.9103(2) 0.13171(14) 0.59341(14)
H21_8 H 0.9128 0.1382 0.5712
C46_8 C 0.88733(10) 0.23680(7) 0.77852(7)
H22_8 H 0.8861 0.2306 0.8010
C47_8 C 0.89246(12) 0.21271(7) 0.75439(8)
H23_8 H 0.8939 0.1903 0.7606
C48_8 C 0.9103(2) 0.15659(14) 0.61829(14)
H24_8 H 0.9128 0.1788 0.6118
C51_12 C 0.72134(6) 0.02866(6) 0.35452(14)
C52_12 C 0.69576(7) 0.05424(7) 0.34936(16)
C53_12 C 0.67525(7) 0.07475(7) 0.34475(15)
C54_12 C 0.64988(7) 0.10012(7) 0.34296(16)
C56_12 C 0.65659(14) 0.13171(14) 0.3397(2)
H27_12 H 0.6788 0.1382 0.3372
C58_12 C 0.47148(7) 0.23680(7) 0.36267(10)
H28_12 H 0.4490 0.2306 0.3639
C59_12 C 0.49561(8) 0.21271(7) 0.35754(12)
H29_12 H 0.4894 0.1903 0.3561
C60_12 C 0.52866(6) 0.22134(6) 0.35452(14)
C61_12 C 0.55424(7) 0.19576(7) 0.34936(16)
C62_12 C 0.57475(7) 0.17525(7) 0.34475(15)
C63_12 C 0.60012(7) 0.14988(7) 0.34296(16)
C64_12 C 0.45379(5) 0.29621(5) 0.37167(7)
C65_12 C 0.63171(14) 0.15659(14) 0.3397(2)
H30_12 H 0.6382 0.1788 0.3372
C66_12 C 0.48019(5) 0.26981(5) 0.36592(9)
C67_12 C 0.77852(7) 0.01320(7) 0.36267(10)
H31_12 H 0.8010 0.0194 0.3639
C68_12 C 0.75439(8) 0.03729(7) 0.35754(12)
H32_12 H 0.7606 0.0597 0.3561
C69_12 C 0.61829(14) 0.09341(14) 0.3397(2)
H33_12 H 0.6118 0.0712 0.3372
O16_12 O 0.42393(3) 0.28600(3) 0.37407(3)
C70_12 C 0.51320(7) 0.27852(7) 0.36267(10)
H34_12 H 0.5194 0.3010 0.3639
C71_12 C 0.53729(7) 0.25439(8) 0.35754(12)
H35_12 H 0.5597 0.2606 0.3561
C72_12 C 0.59341(14) 0.11829(14) 0.3397(2)
H36_12 H 0.5712 0.1118 0.3372
O1_8 O 0.92393(3) 0.96400(3) 0.37593(3)
O2_8 O 0.90264(6) 0.90265(6) 0.40265(6)
O3_8 O 0.84136(6) 0.90864(6) 0.40864(6)
C7_16 C 0.95379(5) 0.95379(5) 0.37833(7)
C9_16 C 0.98019(5) 0.98019(5) 0.38408(9)
O5_16 O 0.96400(3) 0.92393(3) 0.37593(3)
O7_8 O 0.84735(6) 0.84735(6) 0.40264(6)
O8_8 O 0.84136(6) 0.84136(6) 0.34136(6)
O9_8 O 0.87593(3) 0.92393(3) 0.46400(3)
C31_8 C 0.87833(7) 0.95379(5) 0.45379(5)
C33_8 C 0.88408(9) 0.98019(5) 0.48019(5)
O11_8 O 0.87593(3) 0.96400(3) 0.42393(3)
C43_8 C 0.88733(10) 0.97148(7) 0.51320(7)
H19_8 H 0.8861 0.9490 0.5194
C44_8 C 0.89246(12) 0.99561(8) 0.53729(7)
H20_8 H 0.8939 0.9894 0.5597
O13_8 O 0.82607(3) 0.96400(3) 0.37407(3)
C49_12 C 0.73680(7) 0.97148(7) 0.36267(10)
H25_12 H 0.7306 0.9490 0.3639
C50_12 C 0.71271(7) 0.99561(8) 0.35754(12)
H26_12 H 0.6903 0.9894 0.3561
C55_12 C 0.79621(5) 0.95379(5) 0.37167(7)
C57_12 C 0.76981(5) 0.98019(5) 0.36592(9)
O15_8 O 0.78600(3) 0.92393(3) 0.37407(3)
Zr10_8 Zr 0.8750 0.8750 0.43719(2)
O17_8 O 0.78600(3) 0.87407(3) 0.42393(3)
O18_8 O 0.87593(3) 0.82607(3) 0.28600(3)
O19_8 O 0.78600(3) 0.87593(3) 0.32607(3)
O22_8 O 0.82607(3) 0.87593(3) 0.28600(3)
O24_8 O 0.92393(3) 0.87407(3) 0.28600(3)
O25_8 O 0.90265(6) 0.84736(6) 0.34735(6)
O26_8 O 0.84735(6) 0.90265(6) 0.34736(6)
O27_12 O 0.90864(6) 0.90864(6) 0.34136(6)
C3_17 C 0.02866(6) 0.39548(14) 0.02866(6)
C4_17 C 0.05424(7) 0.40064(16) 0.05424(7)
C5_17 C 0.07475(7) 0.40525(15) 0.07475(7)
C6_17 C 0.10012(7) 0.40704(16) 0.10012(7)
C8_17 C 0.13171(14) 0.4103(2) 0.09341(14)
H3_17 H 0.1382 0.4128 0.0712
O4_17 O 0.32607(3) 0.37593(3) 0.28600(3)
C10_17 C 0.23680(7) 0.38733(10) 0.27852(7)
H4_17 H 0.2306 0.3861 0.3010
C11_17 C 0.21271(7) 0.39246(12) 0.25439(8)
H5_17 H 0.1903 0.3939 0.2606
C12_17 C 0.22134(6) 0.39548(14) 0.22134(6)
C13_17 C 0.19576(7) 0.40064(16) 0.19576(7)
C14_17 C 0.17525(7) 0.40525(15) 0.17525(7)
C15_17 C 0.14988(7) 0.40704(16) 0.14988(7)
C16_17 C 0.29621(5) 0.37833(7) 0.29621(5)
C17_17 C 0.15659(14) 0.4103(2) 0.11829(14)
H6_17 H 0.1788 0.4128 0.1118
C18_17 C 0.26981(5) 0.38408(9) 0.26981(5)
C21_17 C 0.09341(14) 0.4103(2) 0.13171(14)
H9_17 H 0.0712 0.4128 0.1382
O6_17 O 0.28600(3) 0.37593(3) 0.32607(3)
C22_17 C 0.27852(7) 0.38733(10) 0.23680(7)
H10_17 H 0.3010 0.3861 0.2306
C23_17 C 0.25439(8) 0.39246(12) 0.21271(7)
H11_17 H 0.2606 0.3939 0.1903
C24_17 C 0.11829(14) 0.4103(2) 0.15659(14)
H12_17 H 0.1118 0.4128 0.1788
C19_17 C 0.01320(7) 0.38733(10) 0.97148(7)
H7_17 H 0.0194 0.3861 0.9490
C20_17 C 0.03729(7) 0.39246(12) 0.99561(8)
H8_17 H 0.0597 0.3939 0.9894
C51_13 C 0.02866(6) 0.35452(14) 0.72134(6)
C52_13 C 0.05424(7) 0.34936(16) 0.69576(7)
C53_13 C 0.07475(7) 0.34475(15) 0.67525(7)
C54_13 C 0.10012(7) 0.34296(16) 0.64988(7)
C56_13 C 0.13171(14) 0.3397(2) 0.65659(14)
H27_13 H 0.1382 0.3372 0.6788
C58_13 C 0.23680(7) 0.36267(10) 0.47148(7)
H28_13 H 0.2306 0.3639 0.4490
C59_13 C 0.21271(7) 0.35754(12) 0.49561(8)
H29_13 H 0.1903 0.3561 0.4894
C60_13 C 0.22134(6) 0.35452(14) 0.52866(6)
C61_13 C 0.19576(7) 0.34936(16) 0.55424(7)
C62_13 C 0.17525(7) 0.34475(15) 0.57475(7)
C63_13 C 0.14988(7) 0.34296(16) 0.60012(7)
C64_13 C 0.29621(5) 0.37167(7) 0.45379(5)
C65_13 C 0.15659(14) 0.3397(2) 0.63171(14)
H30_13 H 0.1788 0.3372 0.6382
C66_13 C 0.26981(5) 0.36592(9) 0.48019(5)
C67_13 C 0.01320(7) 0.36267(10) 0.77852(7)
H31_13 H 0.0194 0.3639 0.8010
C68_13 C 0.03729(7) 0.35754(12) 0.75439(8)
H32_13 H 0.0597 0.3561 0.7606
C69_13 C 0.09341(14) 0.3397(2) 0.61829(14)
H33_13 H 0.0712 0.3372 0.6118
O16_13 O 0.28600(3) 0.37407(3) 0.42393(3)
C70_13 C 0.27852(7) 0.36267(10) 0.51320(7)
H34_13 H 0.3010 0.3639 0.5194
C71_13 C 0.25439(8) 0.35754(12) 0.53729(7)
H35_13 H 0.2606 0.3561 0.5597
C72_13 C 0.11829(14) 0.3397(2) 0.59341(14)
H36_13 H 0.1118 0.3372 0.5712
C1_17 C 0.97148(7) 0.38733(10) 0.01320(7)
H1_17 H 0.9490 0.3861 0.0194
C2_17 C 0.99561(8) 0.39246(12) 0.03729(7)
H2_17 H 0.9894 0.3939 0.0597
C7_17 C 0.95379(5) 0.37833(7) 0.95379(5)
C9_17 C 0.98019(5) 0.38408(9) 0.98019(5)
O5_17 O 0.92393(3) 0.37593(3) 0.96400(3)
C49_13 C 0.97148(7) 0.36267(10) 0.73680(7)
H25_13 H 0.9490 0.3639 0.7306
C50_13 C 0.99561(8) 0.35754(12) 0.71271(7)
H26_13 H 0.9894 0.3561 0.6903
C55_13 C 0.95379(5) 0.37167(7) 0.79621(5)
C57_13 C 0.98019(5) 0.36592(9) 0.76981(5)
C49_14 C 0.27852(7) 0.86267(10) 0.01320(7)
H25_14 H 0.3010 0.8639 0.0194
C50_14 C 0.25439(8) 0.85754(12) 0.03729(7)
H26_14 H 0.2606 0.8561 0.0597
C51_14 C 0.22134(6) 0.85452(14) 0.02866(6)
C52_14 C 0.19576(7) 0.84936(16) 0.05424(7)
C53_14 C 0.17525(7) 0.84475(15) 0.07475(7)
C54_14 C 0.14988(7) 0.84296(16) 0.10012(7)
C56_14 C 0.11829(14) 0.8397(2) 0.09341(14)
H27_14 H 0.1118 0.8372 0.0712
C58_14 C 0.01320(7) 0.86267(10) 0.27852(7)
H28_14 H 0.0194 0.8639 0.3010
C59_14 C 0.03729(7) 0.85754(12) 0.25439(8)
H29_14 H 0.0597 0.8561 0.2606
C60_14 C 0.02866(6) 0.85452(14) 0.22134(6)
C61_14 C 0.05424(7) 0.84936(16) 0.19576(7)
C62_14 C 0.07475(7) 0.84475(15) 0.17525(7)
C63_14 C 0.10012(7) 0.84296(16) 0.14988(7)
C65_14 C 0.09341(14) 0.8397(2) 0.11829(14)
H30_14 H 0.0712 0.8372 0.1118
C69_14 C 0.15659(14) 0.8397(2) 0.13171(14)
H33_14 H 0.1788 0.8372 0.1382
C72_14 C 0.13171(14) 0.8397(2) 0.15659(14)
H36_14 H 0.1382 0.8372 0.1788
C1_18 C 0.27852(7) 0.88733(10) 0.73680(7)
H1_18 H 0.3010 0.8861 0.7306
C2_18 C 0.25439(8) 0.89246(12) 0.71271(7)
H2_18 H 0.2606 0.8939 0.6903
C3_18 C 0.22134(6) 0.89548(14) 0.72134(6)
C4_18 C 0.19576(7) 0.90064(16) 0.69576(7)
C5_18 C 0.17525(7) 0.90525(15) 0.67525(7)
C6_18 C 0.14988(7) 0.90704(16) 0.64988(7)
C7_18 C 0.29621(5) 0.87833(7) 0.79621(5)
C8_18 C 0.11829(14) 0.9103(2) 0.65659(14)
H3_18 H 0.1118 0.9128 0.6788
C9_18 C 0.26981(5) 0.88408(9) 0.76981(5)
C10_18 C 0.01320(7) 0.88733(10) 0.47148(7)
H4_18 H 0.0194 0.8861 0.4490
C11_18 C 0.03729(7) 0.89246(12) 0.49561(8)
H5_18 H 0.0597 0.8939 0.4894
C12_18 C 0.02866(6) 0.89548(14) 0.52866(6)
C13_18 C 0.05424(7) 0.90064(16) 0.55424(7)
C14_18 C 0.07475(7) 0.90525(15) 0.57475(7)
C15_18 C 0.10012(7) 0.90704(16) 0.60012(7)
C17_18 C 0.09341(14) 0.9103(2) 0.63171(14)
H6_18 H 0.0712 0.9128 0.6382
O5_18 O 0.32607(3) 0.87593(3) 0.78600(3)
C19_18 C 0.23680(7) 0.88733(10) 0.77852(7)
H7_18 H 0.2306 0.8861 0.8010
C20_18 C 0.21271(7) 0.89246(12) 0.75439(8)
H8_18 H 0.1903 0.8939 0.7606
C21_18 C 0.15659(14) 0.9103(2) 0.61829(14)
H9_18 H 0.1788 0.9128 0.6118
C24_18 C 0.13171(14) 0.9103(2) 0.59341(14)
H12_18 H 0.1382 0.9128 0.5712
C55_14 C 0.29621(5) 0.87167(7) 0.95379(5)
C57_14 C 0.26981(5) 0.86592(9) 0.98019(5)
C67_14 C 0.23680(7) 0.86267(10) 0.97148(7)
H31_14 H 0.2306 0.8639 0.9490
C68_14 C 0.21271(7) 0.85754(12) 0.99561(8)
H32_14 H 0.1903 0.8561 0.9894
C64_14 C 0.95379(5) 0.87167(7) 0.29621(5)
C66_14 C 0.98019(5) 0.86592(9) 0.26981(5)
O16_14 O 0.96400(3) 0.87407(3) 0.32607(3)
C70_14 C 0.97148(7) 0.86267(10) 0.23680(7)
H34_14 H 0.9490 0.8639 0.2306
C71_14 C 0.99561(8) 0.85754(12) 0.21271(7)
H35_14 H 0.9894 0.8561 0.1903
O4_18 O 0.92393(3) 0.87593(3) 0.46400(3)
C16_18 C 0.95379(5) 0.87833(7) 0.45379(5)
C18_18 C 0.98019(5) 0.88408(9) 0.48019(5)
O6_18 O 0.96400(3) 0.87593(3) 0.42393(3)
C22_18 C 0.97148(7) 0.88733(10) 0.51320(7)
H10_18 H 0.9490 0.8861 0.5194
C23_18 C 0.99561(8) 0.89246(12) 0.53729(7)
H11_18 H 0.9894 0.8939 0.5597
C1_19 C 0.77852(7) 0.86267(10) 0.51320(7)
H1_19 H 0.8010 0.8639 0.5194
C2_19 C 0.75439(8) 0.85754(12) 0.53729(7)
H2_19 H 0.7606 0.8561 0.5597
C3_19 C 0.72134(6) 0.85452(14) 0.52866(6)
C4_19 C 0.69576(7) 0.84936(16) 0.55424(7)
C5_19 C 0.67525(7) 0.84475(15) 0.57475(7)
C6_19 C 0.64988(7) 0.84296(16) 0.60012(7)
C7_19 C 0.79621(5) 0.87167(7) 0.45379(5)
C8_19 C 0.61829(14) 0.8397(2) 0.59341(14)
H3_19 H 0.6118 0.8372 0.5712
C9_19 C 0.76981(5) 0.86592(9) 0.48019(5)
O4_19 O 0.42393(3) 0.87407(3) 0.78600(3)
C10_19 C 0.51320(7) 0.86267(10) 0.77852(7)
H4_19 H 0.5194 0.8639 0.8010
C11_19 C 0.53729(7) 0.85754(12) 0.75439(8)
H5_19 H 0.5597 0.8561 0.7606
C12_19 C 0.52866(6) 0.85452(14) 0.72134(6)
C13_19 C 0.55424(7) 0.84936(16) 0.69576(7)
C14_19 C 0.57475(7) 0.84475(15) 0.67525(7)
C15_19 C 0.60012(7) 0.84296(16) 0.64988(7)
C16_19 C 0.45379(5) 0.87167(7) 0.79621(5)
C17_19 C 0.59341(14) 0.8397(2) 0.61829(14)
H6_19 H 0.5712 0.8372 0.6118
C18_19 C 0.48019(5) 0.86592(9) 0.76981(5)
O5_19 O 0.82607(3) 0.87407(3) 0.46400(3)
C19_19 C 0.73680(7) 0.86267(10) 0.47148(7)
H7_19 H 0.7306 0.8639 0.4490
C20_19 C 0.71271(7) 0.85754(12) 0.49561(8)
H8_19 H 0.6903 0.8561 0.4894
C21_19 C 0.65659(14) 0.8397(2) 0.63171(14)
H9_19 H 0.6788 0.8372 0.6382
O6_19 O 0.46400(3) 0.87407(3) 0.82607(3)
C22_19 C 0.47148(7) 0.86267(10) 0.73680(7)
H10_19 H 0.4490 0.8639 0.7306
C23_19 C 0.49561(8) 0.85754(12) 0.71271(7)
H11_19 H 0.4894 0.8561 0.6903
C24_19 C 0.63171(14) 0.8397(2) 0.65659(14)
H12_19 H 0.6382 0.8372 0.6788
C49_15 C 0.77852(7) 0.88733(10) 0.23680(7)
H25_15 H 0.8010 0.8861 0.2306
C50_15 C 0.75439(8) 0.89246(12) 0.21271(7)
H26_15 H 0.7606 0.8939 0.1903
C51_15 C 0.72134(6) 0.89548(14) 0.22134(6)
C52_15 C 0.69576(7) 0.90064(16) 0.19576(7)
C53_15 C 0.67525(7) 0.90525(15) 0.17525(7)
C54_15 C 0.64988(7) 0.90704(16) 0.14988(7)
C55_15 C 0.79621(5) 0.87833(7) 0.29621(5)
C56_15 C 0.61829(14) 0.9103(2) 0.15659(14)
H27_15 H 0.6118 0.9128 0.1788
C57_15 C 0.76981(5) 0.88408(9) 0.26981(5)
C60_15 C 0.52866(6) 0.89548(14) 0.02866(6)
C61_15 C 0.55424(7) 0.90064(16) 0.05424(7)
C62_15 C 0.57475(7) 0.90525(15) 0.07475(7)
C63_15 C 0.60012(7) 0.90704(16) 0.10012(7)
C65_15 C 0.59341(14) 0.9103(2) 0.13171(14)
H30_15 H 0.5712 0.9128 0.1382
C67_15 C 0.73680(7) 0.88733(10) 0.27852(7)
H31_15 H 0.7306 0.8861 0.3010
C68_15 C 0.71271(7) 0.89246(12) 0.25439(8)
H32_15 H 0.6903 0.8939 0.2606
C69_15 C 0.65659(14) 0.9103(2) 0.11829(14)
H33_15 H 0.6788 0.9128 0.1118
C70_15 C 0.47148(7) 0.88733(10) 0.01320(7)
H34_15 H 0.4490 0.8861 0.0194
C71_15 C 0.49561(8) 0.89246(12) 0.03729(7)
H35_15 H 0.4894 0.8939 0.0597
C72_15 C 0.63171(14) 0.9103(2) 0.09341(14)
H36_15 H 0.6382 0.9128 0.0712
C58_15 C 0.51320(7) 0.88733(10) 0.97148(7)
H28_15 H 0.5194 0.8861 0.9490
C59_15 C 0.53729(7) 0.89246(12) 0.99561(8)
H29_15 H 0.5597 0.8939 0.9894
C64_15 C 0.45379(5) 0.87833(7) 0.95379(5)
C66_15 C 0.48019(5) 0.88408(9) 0.98019(5)
O16_15 O 0.46400(3) 0.87593(3) 0.92393(3)
C1_20 C 0.47148(7) 0.36267(10) 0.23680(7)
H1_20 H 0.4490 0.3639 0.2306
C2_20 C 0.49561(8) 0.35754(12) 0.21271(7)
H2_20 H 0.4894 0.3561 0.1903
C3_20 C 0.52866(6) 0.35452(14) 0.22134(6)
C4_20 C 0.55424(7) 0.34936(16) 0.19576(7)
C5_20 C 0.57475(7) 0.34475(15) 0.17525(7)
C6_20 C 0.60012(7) 0.34296(16) 0.14988(7)
C7_20 C 0.45379(5) 0.37167(7) 0.29621(5)
C8_20 C 0.63171(14) 0.3397(2) 0.15659(14)
H3_20 H 0.6382 0.3372 0.1788
C9_20 C 0.48019(5) 0.36592(9) 0.26981(5)
C12_20 C 0.72134(6) 0.35452(14) 0.02866(6)
C13_20 C 0.69576(7) 0.34936(16) 0.05424(7)
C14_20 C 0.67525(7) 0.34475(15) 0.07475(7)
C15_20 C 0.64988(7) 0.34296(16) 0.10012(7)
C17_20 C 0.65659(14) 0.3397(2) 0.13171(14)
H6_20 H 0.6788 0.3372 0.1382
O5_20 O 0.42393(3) 0.37407(3) 0.28600(3)
C19_20 C 0.51320(7) 0.36267(10) 0.27852(7)
H7_20 H 0.5194 0.3639 0.3010
C20_20 C 0.53729(7) 0.35754(12) 0.25439(8)
H8_20 H 0.5597 0.3561 0.2606
C21_20 C 0.59341(14) 0.3397(2) 0.11829(14)
H9_20 H 0.5712 0.3372 0.1118
C22_20 C 0.77852(7) 0.36267(10) 0.01320(7)
H10_20 H 0.8010 0.3639 0.0194
C23_20 C 0.75439(8) 0.35754(12) 0.03729(7)
H11_20 H 0.7606 0.3561 0.0597
C24_20 C 0.61829(14) 0.3397(2) 0.09341(14)
H12_20 H 0.6118 0.3372 0.0712
C49_16 C 0.47148(7) 0.38733(10) 0.51320(7)
H25_16 H 0.4490 0.3861 0.5194
C50_16 C 0.49561(8) 0.39246(12) 0.53729(7)
H26_16 H 0.4894 0.3939 0.5597
C51_16 C 0.52866(6) 0.39548(14) 0.52866(6)
C52_16 C 0.55424(7) 0.40064(16) 0.55424(7)
C53_16 C 0.57475(7) 0.40525(15) 0.57475(7)
C54_16 C 0.60012(7) 0.40704(16) 0.60012(7)
C55_16 C 0.45379(5) 0.37833(7) 0.45379(5)
C56_16 C 0.63171(14) 0.4103(2) 0.59341(14)
H27_16 H 0.6382 0.4128 0.5712
C57_16 C 0.48019(5) 0.38408(9) 0.48019(5)
C58_16 C 0.73680(7) 0.38733(10) 0.77852(7)
H28_16 H 0.7306 0.3861 0.8010
C59_16 C 0.71271(7) 0.39246(12) 0.75439(8)
H29_16 H 0.6903 0.3939 0.7606
C60_16 C 0.72134(6) 0.39548(14) 0.72134(6)
C61_16 C 0.69576(7) 0.40064(16) 0.69576(7)
C62_16 C 0.67525(7) 0.40525(15) 0.67525(7)
C63_16 C 0.64988(7) 0.40704(16) 0.64988(7)
C64_16 C 0.79621(5) 0.37833(7) 0.79621(5)
C65_16 C 0.65659(14) 0.4103(2) 0.61829(14)
H30_16 H 0.6788 0.4128 0.6118
C66_16 C 0.76981(5) 0.38408(9) 0.76981(5)
C67_16 C 0.51320(7) 0.38733(10) 0.47148(7)
H31_16 H 0.5194 0.3861 0.4490
C68_16 C 0.53729(7) 0.39246(12) 0.49561(8)
H32_16 H 0.5597 0.3939 0.4894
C69_16 C 0.59341(14) 0.4103(2) 0.63171(14)
H33_16 H 0.5712 0.4128 0.6382
O16_16 O 0.78600(3) 0.37593(3) 0.82607(3)
C70_16 C 0.77852(7) 0.38733(10) 0.73680(7)
H34_16 H 0.8010 0.3861 0.7306
C71_16 C 0.75439(8) 0.39246(12) 0.71271(7)
H35_16 H 0.7606 0.3939 0.6903
C72_16 C 0.61829(14) 0.4103(2) 0.65659(14)
H36_16 H 0.6118 0.4128 0.6788
O4_20 O 0.82607(3) 0.37407(3) 0.96400(3)
C10_20 C 0.73680(7) 0.36267(10) 0.97148(7)
H4_20 H 0.7306 0.3639 0.9490
C11_20 C 0.71271(7) 0.35754(12) 0.99561(8)
H5_20 H 0.6903 0.3561 0.9894
C16_20 C 0.79621(5) 0.37167(7) 0.95379(5)
C18_20 C 0.76981(5) 0.36592(9) 0.98019(5)
O6_20 O 0.78600(3) 0.37407(3) 0.92393(3)
C1_21 C 0.88733(10) 0.73680(7) 0.27852(7)
H1_21 H 0.8861 0.7306 0.3010
C2_21 C 0.89246(12) 0.71271(7) 0.25439(8)
H2_21 H 0.8939 0.6903 0.2606
C3_21 C 0.89548(14) 0.72134(6) 0.22134(6)
C4_21 C 0.90064(16) 0.69576(7) 0.19576(7)
C5_21 C 0.90525(15) 0.67525(7) 0.17525(7)
C6_21 C 0.90704(16) 0.64988(7) 0.14988(7)
C7_21 C 0.87833(7) 0.79621(5) 0.29621(5)
C8_21 C 0.9103(2) 0.65659(14) 0.11829(14)
H3_21 H 0.9128 0.6788 0.1118
C9_21 C 0.88408(9) 0.76981(5) 0.26981(5)
C10_21 C 0.88733(10) 0.47148(7) 0.01320(7)
H4_21 H 0.8861 0.4490 0.0194
C11_21 C 0.89246(12) 0.49561(8) 0.03729(7)
H5_21 H 0.8939 0.4894 0.0597
C12_21 C 0.89548(14) 0.52866(6) 0.02866(6)
C13_21 C 0.90064(16) 0.55424(7) 0.05424(7)
C14_21 C 0.90525(15) 0.57475(7) 0.07475(7)
C15_21 C 0.90704(16) 0.60012(7) 0.10012(7)
C17_21 C 0.9103(2) 0.63171(14) 0.09341(14)
H6_21 H 0.9128 0.6382 0.0712
O5_21 O 0.87593(3) 0.78600(3) 0.32607(3)
C19_21 C 0.88733(10) 0.77852(7) 0.23680(7)
H7_21 H 0.8861 0.8010 0.2306
C20_21 C 0.89246(12) 0.75439(8) 0.21271(7)
H8_21 H 0.8939 0.7606 0.1903
C21_21 C 0.9103(2) 0.61829(14) 0.15659(14)
H9_21 H 0.9128 0.6118 0.1788
C24_21 C 0.9103(2) 0.59341(14) 0.13171(14)
H12_21 H 0.9128 0.5712 0.1382
O4_21 O 0.87593(3) 0.46400(3) 0.92393(3)
C16_21 C 0.87833(7) 0.45379(5) 0.95379(5)
C18_21 C 0.88408(9) 0.48019(5) 0.98019(5)
O6_21 O 0.87593(3) 0.42393(3) 0.96400(3)
C22_21 C 0.88733(10) 0.51320(7) 0.97148(7)
H10_21 H 0.8861 0.5194 0.9490
C23_21 C 0.89246(12) 0.53729(7) 0.99561(8)
H11_21 H 0.8939 0.5597 0.9894
C3_22 C 0.39548(14) 0.02866(6) 0.02866(6)
C4_22 C 0.40064(16) 0.05424(7) 0.05424(7)
C5_22 C 0.40525(15) 0.07475(7) 0.07475(7)
C6_22 C 0.40704(16) 0.10012(7) 0.10012(7)
C8_22 C 0.4103(2) 0.09341(14) 0.13171(14)
H3_22 H 0.4128 0.0712 0.1382
O4_22 O 0.37593(3) 0.28600(3) 0.32607(3)
C10_22 C 0.38733(10) 0.27852(7) 0.23680(7)
H4_22 H 0.3861 0.3010 0.2306
C11_22 C 0.39246(12) 0.25439(8) 0.21271(7)
H5_22 H 0.3939 0.2606 0.1903
C12_22 C 0.39548(14) 0.22134(6) 0.22134(6)
C13_22 C 0.40064(16) 0.19576(7) 0.19576(7)
C14_22 C 0.40525(15) 0.17525(7) 0.17525(7)
C15_22 C 0.40704(16) 0.14988(7) 0.14988(7)
C16_22 C 0.37833(7) 0.29621(5) 0.29621(5)
C17_22 C 0.4103(2) 0.11829(14) 0.15659(14)
H6_22 H 0.4128 0.1118 0.1788
C18_22 C 0.38408(9) 0.26981(5) 0.26981(5)
C21_22 C 0.4103(2) 0.13171(14) 0.09341(14)
H9_22 H 0.4128 0.1382 0.0712
O6_22 O 0.37593(3) 0.32607(3) 0.28600(3)
C22_22 C 0.38733(10) 0.23680(7) 0.27852(7)
H10_22 H 0.3861 0.2306 0.3010
C23_22 C 0.39246(12) 0.21271(7) 0.25439(8)
H11_22 H 0.3939 0.1903 0.2606
C24_22 C 0.4103(2) 0.15659(14) 0.11829(14)
H12_22 H 0.4128 0.1788 0.1118
C1_22 C 0.38733(10) 0.01320(7) 0.97148(7)
H1_22 H 0.3861 0.0194 0.9490
C2_22 C 0.39246(12) 0.03729(7) 0.99561(8)
H2_22 H 0.3939 0.0597 0.9894
C19_22 C 0.38733(10) 0.97148(7) 0.01320(7)
H7_22 H 0.3861 0.9490 0.0194
C20_22 C 0.39246(12) 0.99561(8) 0.03729(7)
H8_22 H 0.3939 0.9894 0.0597
C7_22 C 0.37833(7) 0.95379(5) 0.95379(5)
C9_22 C 0.38408(9) 0.98019(5) 0.98019(5)
O5_22 O 0.37593(3) 0.96400(3) 0.92393(3)
C1_23 C 0.36267(10) 0.23680(7) 0.47148(7)
H1_23 H 0.3639 0.2306 0.4490
C2_23 C 0.35754(12) 0.21271(7) 0.49561(8)
H2_23 H 0.3561 0.1903 0.4894
C3_23 C 0.35452(14) 0.22134(6) 0.52866(6)
C4_23 C 0.34936(16) 0.19576(7) 0.55424(7)
C5_23 C 0.34475(15) 0.17525(7) 0.57475(7)
C6_23 C 0.34296(16) 0.14988(7) 0.60012(7)
C7_23 C 0.37167(7) 0.29621(5) 0.45379(5)
C8_23 C 0.3397(2) 0.15659(14) 0.63171(14)
H3_23 H 0.3372 0.1788 0.6382
C9_23 C 0.36592(9) 0.26981(5) 0.48019(5)
C12_23 C 0.35452(14) 0.02866(6) 0.72134(6)
C13_23 C 0.34936(16) 0.05424(7) 0.69576(7)
C14_23 C 0.34475(15) 0.07475(7) 0.67525(7)
C15_23 C 0.34296(16) 0.10012(7) 0.64988(7)
C17_23 C 0.3397(2) 0.13171(14) 0.65659(14)
H6_23 H 0.3372 0.1382 0.6788
O5_23 O 0.37407(3) 0.28600(3) 0.42393(3)
C19_23 C 0.36267(10) 0.27852(7) 0.51320(7)
H7_23 H 0.3639 0.3010 0.5194
C20_23 C 0.35754(12) 0.25439(8) 0.53729(7)
H8_23 H 0.3561 0.2606 0.5597
C21_23 C 0.3397(2) 0.11829(14) 0.59341(14)
H9_23 H 0.3372 0.1118 0.5712
C22_23 C 0.36267(10) 0.01320(7) 0.77852(7)
H10_23 H 0.3639 0.0194 0.8010
C23_23 C 0.35754(12) 0.03729(7) 0.75439(8)
H11_23 H 0.3561 0.0597 0.7606
C24_23 C 0.3397(2) 0.09341(14) 0.61829(14)
H12_23 H 0.3372 0.0712 0.6118
O4_23 O 0.37407(3) 0.96400(3) 0.82607(3)
C10_23 C 0.36267(10) 0.97148(7) 0.73680(7)
H4_23 H 0.3639 0.9490 0.7306
C11_23 C 0.35754(12) 0.99561(8) 0.71271(7)
H5_23 H 0.3561 0.9894 0.6903
C16_23 C 0.37167(7) 0.95379(5) 0.79621(5)
C18_23 C 0.36592(9) 0.98019(5) 0.76981(5)
O6_23 O 0.37407(3) 0.92393(3) 0.78600(3)
C1_24 C 0.86267(10) 0.51320(7) 0.77852(7)
H1_24 H 0.8639 0.5194 0.8010
C2_24 C 0.85754(12) 0.53729(7) 0.75439(8)
H2_24 H 0.8561 0.5597 0.7606
C3_24 C 0.85452(14) 0.52866(6) 0.72134(6)
C4_24 C 0.84936(16) 0.55424(7) 0.69576(7)
C5_24 C 0.84475(15) 0.57475(7) 0.67525(7)
C6_24 C 0.84296(16) 0.60012(7) 0.64988(7)
C7_24 C 0.87167(7) 0.45379(5) 0.79621(5)
C8_24 C 0.8397(2) 0.59341(14) 0.61829(14)
H3_24 H 0.8372 0.5712 0.6118
C9_24 C 0.86592(9) 0.48019(5) 0.76981(5)
O4_24 O 0.87407(3) 0.78600(3) 0.42393(3)
C10_24 C 0.86267(10) 0.77852(7) 0.51320(7)
H4_24 H 0.8639 0.8010 0.5194
C11_24 C 0.85754(12) 0.75439(8) 0.53729(7)
H5_24 H 0.8561 0.7606 0.5597
C12_24 C 0.85452(14) 0.72134(6) 0.52866(6)
C13_24 C 0.84936(16) 0.69576(7) 0.55424(7)
C14_24 C 0.84475(15) 0.67525(7) 0.57475(7)
C15_24 C 0.84296(16) 0.64988(7) 0.60012(7)
C16_24 C 0.87167(7) 0.79621(5) 0.45379(5)
C17_24 C 0.8397(2) 0.61829(14) 0.59341(14)
H6_24 H 0.8372 0.6118 0.5712
C18_24 C 0.86592(9) 0.76981(5) 0.48019(5)
O5_24 O 0.87407(3) 0.46400(3) 0.82607(3)
C19_24 C 0.86267(10) 0.47148(7) 0.73680(7)
H7_24 H 0.8639 0.4490 0.7306
C20_24 C 0.85754(12) 0.49561(8) 0.71271(7)
H8_24 H 0.8561 0.4894 0.6903
C21_24 C 0.8397(2) 0.63171(14) 0.65659(14)
H9_24 H 0.8372 0.6382 0.6788
O6_24 O 0.87407(3) 0.82607(3) 0.46400(3)
C22_24 C 0.86267(10) 0.73680(7) 0.47148(7)
H10_24 H 0.8639 0.7306 0.4490
C23_24 C 0.85754(12) 0.71271(7) 0.49561(8)
H11_24 H 0.8561 0.6903 0.4894
C24_24 C 0.8397(2) 0.65659(14) 0.63171(14)
H12_24 H 0.8372 0.6788 0.6382
O3_9 O 0.40864(6) 0.90864(6) 0.84136(6)
O3_10 O 0.34136(6) 0.34136(6) 0.34136(6)
O3_11 O 0.90864(6) 0.84136(6) 0.40864(6)
O3_12 O 0.84136(6) 0.40864(6) 0.90864(6)
loop_
_geom_bond_atom_site_label_1
_geom_bond_atom_site_label_2
_geom_bond_site_symmetry_1
_geom_bond_site_symmetry_2
O14 C64 1_555 1_555
C58 H28 1_555 1_555
C59 C58 1_555 1_555
H29 C59 1_555 1_555
C64 C66 1_555 1_555
C66 C58 1_555 1_555
O16 C64 1_555 1_555
Zr5 O14 1_555 1_555
Zr8 O16 1_555 1_555
Zr1 O1 1_555 1_555
O1 C7 1_555 1_555
C1 H1 1_555 1_555
O2 Zr1 1_555 1_555
C2 C1 1_555 1_555
H2 C2 1_555 1_555
C3 C2 1_555 1_555
O3 Zr1 1_555 1_555
C4 C3 1_555 1_555
C5 C4 1_555 1_555
C6 C5 1_555 1_555
C7 C9 1_555 1_555
C8 C6 1_555 1_555
H3 C8 1_555 1_555
C9 C1 1_555 1_555
O4 C16 1_555 1_555
C10 H4 1_555 1_555
C11 C10 1_555 1_555
H5 C11 1_555 1_555
C12 C11 1_555 1_555
C13 C12 1_555 1_555
C14 C13 1_555 1_555
C15 C14 1_555 1_555
C16 C18 1_555 1_555
C17 C8 1_555 1_555
H6 C17 1_555 1_555
C18 C10 1_555 1_555
O5 C7 1_555 1_555
C19 C9 1_555 1_555
H7 C19 1_555 1_555
C20 C3 1_555 1_555
H8 C20 1_555 1_555
C21 C6 1_555 1_555
H9 C21 1_555 1_555
O6 C16 1_555 1_555
C22 C18 1_555 1_555
H10 C22 1_555 1_555
C23 C12 1_555 1_555
H11 C23 1_555 1_555
C24 C15 1_555 1_555
H12 C24 1_555 1_555
Zr2 O3 1_555 1_555
O7 Zr2 1_555 1_555
O8 Zr2 1_555 1_555
Zr3 O8 1_555 1_555
O9 C31 1_555 1_555
C25 H13 1_555 1_555
C26 C25 1_555 1_555
H14 C26 1_555 1_555
C27 C26 1_555 1_555
C28 C27 1_555 1_555
C29 C28 1_555 1_555
C30 C29 1_555 1_555
C31 C33 1_555 1_555
C32 C30 1_555 1_555
H15 C32 1_555 1_555
C33 C25 1_555 1_555
O10 C40 1_555 1_555
C34 H16 1_555 1_555
C35 C34 1_555 1_555
H17 C35 1_555 1_555
C36 C35 1_555 1_555
C37 C36 1_555 1_555
C38 C37 1_555 1_555
C39 C38 1_555 1_555
C40 C42 1_555 1_555
C41 C32 1_555 1_555
H18 C41 1_555 1_555
C42 C34 1_555 1_555
O11 Zr1 1_555 1_555
C43 C33 1_555 1_555
H19 C43 1_555 1_555
C44 C27 1_555 1_555
H20 C44 1_555 1_555
C45 C30 1_555 1_555
H21 C45 1_555 1_555
O12 C40 1_555 1_555
C46 C42 1_555 1_555
H22 C46 1_555 1_555
C47 C36 1_555 1_555
H23 C47 1_555 1_555
C48 C39 1_555 1_555
H24 C48 1_555 1_555
O13 Zr1 1_555 1_555
C49 H25 1_555 1_555
C50 C49 1_555 1_555
H26 C50 1_555 1_555
C51 C50 1_555 1_555
C52 C51 1_555 1_555
C53 C52 1_555 1_555
C54 C53 1_555 1_555
C55 O13 1_555 1_555
C56 C54 1_555 1_555
H27 C56 1_555 1_555
C57 C49 1_555 1_555
C61 C60 1_555 1_555
C62 C61 1_555 1_555
C63 C62 1_555 1_555
C65 C56 1_555 1_555
H30 C65 1_555 1_555
O15 Zr2 1_555 1_555
C67 C57 1_555 1_555
H31 C67 1_555 1_555
C68 C51 1_555 1_555
H32 C68 1_555 1_555
C69 C54 1_555 1_555
H33 C69 1_555 1_555
H34 C70 1_555 1_555
C71 C60 1_555 1_555
H35 C71 1_555 1_555
C72 C63 1_555 1_555
H36 C72 1_555 1_555
Zr4 O10 1_555 1_555
Zr6 O12 1_555 1_555
Zr8 O6 1_555 1_555
Zr9 O7 1_555 1_555
Zr10 O2 1_555 1_555
Zr11 O4 1_555 1_555
Zr12 O2 1_555 1_555
O17 Zr2 1_555 1_555
O18 Zr3 1_555 1_555
O19 Zr2 1_555 1_555
O20 Zr3 1_555 1_555
O21 Zr1 1_555 1_555
O22 Zr3 1_555 1_555
O23 Zr2 1_555 1_555
O24 Zr3 1_555 1_555
O25 Zr3 1_555 1_555
O26 Zr1 1_555 1_555
O27 Zr1 1_555 1_555
O3 Zr10 1_555 1_555
C15 C17 1_555 1_555
O5 Zr12 1_555 1_555
C19 C20 1_555 1_555
C21 C24 1_555 1_555
C22 C23 1_555 1_555
Zr2 O26 1_555 1_555
O7 Zr10 1_555 1_555
O8 Zr9 1_555 1_555
Zr3 O26 1_555 1_555
Zr3 O27 1_555 1_555
O9 Zr10 1_555 1_555
C31 O11 1_555 1_555
C39 C41 1_555 1_555
C43 C44 1_555 1_555
C45 C48 1_555 1_555
C46 C47 1_555 1_555
C55 C57 1_555 1_555
C55 O15 1_555 1_555
C63 C65 1_555 1_555
C67 C68 1_555 1_555
C69 C72 1_555 1_555
C70 C71 1_555 1_555
Zr9 O25 1_555 1_555
Zr12 O25 1_555 1_555
Zr12 O27 1_555 1_555
O4_2 C16_2 1_555 1_555
C10_2 H4_2 1_555 1_555
C11_2 C10_2 1_555 1_555
H5_2 C11_2 1_555 1_555
C16_2 C18_2 1_555 1_555
C18_2 C10_2 1_555 1_555
O6_2 C16_2 1_555 1_555
Zr7 O6_2 1_555 1_555
Zr11_2 O4_2 1_555 1_555
O21 C40_2 1_555 1_555
C40_2 C42_2 1_555 1_555
O20 C40_2 1_555 1_555
C46_2 C42_2 1_555 1_555
H22_2 C46_2 1_555 1_555
H23_2 C47_2 1_555 1_555
C46_2 C47_2 1_555 1_555
Zr4 O1_2 1_555 1_555
O1_2 C7_2 1_555 1_555
C1_2 H1_2 1_555 1_555
O2_2 Zr4 1_555 1_555
C2_2 C1_2 1_555 1_555
H2_2 C2_2 1_555 1_555
C3_2 C2_2 1_555 1_555
O3_2 Zr4 1_555 1_555
C4_2 C3_2 1_555 1_555
C5_2 C4_2 1_555 1_555
C6_2 C5_2 1_555 1_555
C7_2 C9_2 1_555 1_555
C8_2 C6_2 1_555 1_555
H3_2 C8_2 1_555 1_555
C9_2 C1_2 1_555 1_555
C13_2 C12_2 1_555 1_555
C14_2 C13_2 1_555 1_555
C15_2 C14_2 1_555 1_555
C17_2 C8_2 1_555 1_555
H6_2 C17_2 1_555 1_555
O5_2 C7_2 1_555 1_555
C19_2 C9_2 1_555 1_555
H7_2 C19_2 1_555 1_555
C20_2 C3_2 1_555 1_555
H8_2 C20_2 1_555 1_555
C21_2 C6_2 1_555 1_555
H9_2 C21_2 1_555 1_555
H10_2 C22_2 1_555 1_555
C23_2 C12_2 1_555 1_555
H11_2 C23_2 1_555 1_555
C24_2 C15_2 1_555 1_555
H12_2 C24_2 1_555 1_555
Zr2_2 O3_2 1_555 1_555
O7_2 Zr2_2 1_555 1_555
O8_2 Zr2_2 1_555 1_555
Zr6 O8_2 1_555 1_555
O9_2 C31_2 1_555 1_555
C25_2 H13_2 1_555 1_555
C26_2 C25_2 1_555 1_555
H14_2 C26_2 1_555 1_555
C27_2 C26_2 1_555 1_555
C28_2 C27_2 1_555 1_555
C29_2 C28_2 1_555 1_555
C30_2 C29_2 1_555 1_555
C31_2 C33_2 1_555 1_555
C32_2 C30_2 1_555 1_555
H15_2 C32_2 1_555 1_555
C33_2 C25_2 1_555 1_555
C34_2 H16_2 1_555 1_555
C35_2 C34_2 1_555 1_555
H17_2 C35_2 1_555 1_555
C36_2 C35_2 1_555 1_555
C37_2 C36_2 1_555 1_555
C38_2 C37_2 1_555 1_555
C39_2 C38_2 1_555 1_555
C41_2 C32_2 1_555 1_555
H18_2 C41_2 1_555 1_555
O11_2 Zr4 1_555 1_555
C43_2 C33_2 1_555 1_555
H19_2 C43_2 1_555 1_555
C44_2 C27_2 1_555 1_555
H20_2 C44_2 1_555 1_555
C45_2 C30_2 1_555 1_555
H21_2 C45_2 1_555 1_555
C48_2 C39_2 1_555 1_555
H24_2 C48_2 1_555 1_555
O13_2 Zr4 1_555 1_555
C49_2 H25_2 1_555 1_555
C50_2 C49_2 1_555 1_555
H26_2 C50_2 1_555 1_555
C51_2 C50_2 1_555 1_555
C52_2 C51_2 1_555 1_555
C53_2 C52_2 1_555 1_555
C54_2 C53_2 1_555 1_555
C55_2 O13_2 1_555 1_555
C56_2 C54_2 1_555 1_555
H27_2 C56_2 1_555 1_555
C57_2 C49_2 1_555 1_555
O14_2 C64_2 1_555 1_555
C58_2 H28_2 1_555 1_555
C59_2 C58_2 1_555 1_555
H29_2 C59_2 1_555 1_555
C60_2 C59_2 1_555 1_555
C61_2 C60_2 1_555 1_555
C62_2 C61_2 1_555 1_555
C63_2 C62_2 1_555 1_555
C64_2 C66_2 1_555 1_555
C65_2 C56_2 1_555 1_555
H30_2 C65_2 1_555 1_555
C66_2 C58_2 1_555 1_555
O15_2 Zr2_2 1_555 1_555
C67_2 C57_2 1_555 1_555
H31_2 C67_2 1_555 1_555
C68_2 C51_2 1_555 1_555
H32_2 C68_2 1_555 1_555
C69_2 C54_2 1_555 1_555
H33_2 C69_2 1_555 1_555
O16_2 C64_2 1_555 1_555
C70_2 C66_2 1_555 1_555
H34_2 C70_2 1_555 1_555
C71_2 C60_2 1_555 1_555
H35_2 C71_2 1_555 1_555
C72_2 C63_2 1_555 1_555
H36_2 C72_2 1_555 1_555
Zr5_2 O14_2 1_555 1_555
Zr7 O16_2 1_555 1_555
Zr9_2 O7_2 1_555 1_555
Zr10_2 O2_2 1_555 1_555
Zr12_2 O2_2 1_555 1_555
O17_2 Zr2_2 1_555 1_555
O18_2 Zr6 1_555 1_555
O19_2 Zr2_2 1_555 1_555
O22_2 Zr6 1_555 1_555
O23_2 Zr2_2 1_555 1_555
O24_2 Zr6 1_555 1_555
O25_2 Zr6 1_555 1_555
O26_2 Zr4 1_555 1_555
O27_2 Zr4 1_555 1_555
O3_2 Zr10_2 1_555 1_555
C15_2 C17_2 1_555 1_555
O5_2 Zr12_2 1_555 1_555
C19_2 C20_2 1_555 1_555
C21_2 C24_2 1_555 1_555
C22_2 C23_2 1_555 1_555
Zr2_2 O26_2 1_555 1_555
O7_2 Zr10_2 1_555 1_555
O8_2 Zr9_2 1_555 1_555
Zr6 O26_2 1_555 1_555
Zr6 O27_2 1_555 1_555
O9_2 Zr10_2 1_555 1_555
C31_2 O11_2 1_555 1_555
C39_2 C41_2 1_555 1_555
C43_2 C44_2 1_555 1_555
C45_2 C48_2 1_555 1_555
C55_2 C57_2 1_555 1_555
C55_2 O15_2 1_555 1_555
C63_2 C65_2 1_555 1_555
C67_2 C68_2 1_555 1_555
C69_2 C72_2 1_555 1_555
C70_2 C71_2 1_555 1_555
Zr9_2 O25_2 1_555 1_555
Zr12_2 O25_2 1_555 1_555
Zr12_2 O27_2 1_555 1_555
Zr1_2 O1_3 1_555 1_555
O1_3 C7_3 1_555 1_555
O2_3 Zr1_2 1_555 1_555
O3_3 Zr1_2 1_555 1_555
C7_3 C9_3 1_555 1_555
O5_3 C7_3 1_555 1_555
Zr5_2 O3_3 1_555 1_555
O7_3 Zr5_2 1_555 1_555
O8_3 Zr5_2 1_555 1_555
Zr3_2 O8_3 1_555 1_555
O9_3 C31_3 1_555 1_555
C31_3 C33_3 1_555 1_555
O11_3 Zr1_2 1_555 1_555
C43_3 C33_3 1_555 1_555
H19_3 C43_3 1_555 1_555
H20_3 C44_3 1_555 1_555
O13_3 Zr1_2 1_555 1_555
C49_3 H25_3 1_555 1_555
C50_3 C49_3 1_555 1_555
H26_3 C50_3 1_555 1_555
C55_3 O13_3 1_555 1_555
C57_3 C49_3 1_555 1_555
O15_3 Zr5_2 1_555 1_555
Zr7 O7_3 1_555 1_555
Zr10_3 O2_3 1_555 1_555
Zr11_2 O2_3 1_555 1_555
O17_3 Zr5_2 1_555 1_555
O18_3 Zr3_2 1_555 1_555
O19_3 Zr5_2 1_555 1_555
O20_2 Zr3_2 1_555 1_555
O21_2 Zr1_2 1_555 1_555
O22_3 Zr3_2 1_555 1_555
O24_3 Zr3_2 1_555 1_555
O25_3 Zr3_2 1_555 1_555
O26_3 Zr1_2 1_555 1_555
O27_3 Zr1_2 1_555 1_555
O3_3 Zr10_3 1_555 1_555
O5_3 Zr11_2 1_555 1_555
Zr5_2 O26_3 1_555 1_555
O7_3 Zr10_3 1_555 1_555
O8_3 Zr7 1_555 1_555
Zr3_2 O26_3 1_555 1_555
Zr3_2 O27_3 1_555 1_555
O9_3 Zr10_3 1_555 1_555
C31_3 O11_3 1_555 1_555
C43_3 C44_3 1_555 1_555
C55_3 C57_3 1_555 1_555
C55_3 O15_3 1_555 1_555
Zr7 O25_3 1_555 1_555
Zr11_2 O25_3 1_555 1_555
Zr11_2 O27_3 1_555 1_555
C1_3 H1_3 1_555 1_555
C2_3 C1_3 1_555 1_555
H2_3 C2_3 1_555 1_555
H7_3 C19_3 1_555 1_555
H8_3 C20_3 1_555 1_555
C25_3 H13_3 1_555 1_555
C26_3 C25_3 1_555 1_555
H14_3 C26_3 1_555 1_555
C27_3 C26_3 1_555 1_555
C28_3 C27_3 1_555 1_555
C29_3 C28_3 1_555 1_555
C30_3 C29_3 1_555 1_555
C32_3 C30_3 1_555 1_555
H15_3 C32_3 1_555 1_555
O10_2 C40_3 1_555 1_555
C34_3 H16_3 1_555 1_555
C35_3 C34_3 1_555 1_555
H17_3 C35_3 1_555 1_555
C36_3 C35_3 1_555 1_555
C37_3 C36_3 1_555 1_555
C38_3 C37_3 1_555 1_555
C39_3 C38_3 1_555 1_555
C40_3 C42_3 1_555 1_555
C41_3 C32_3 1_555 1_555
H18_3 C41_3 1_555 1_555
C42_3 C34_3 1_555 1_555
C45_3 C30_3 1_555 1_555
H21_3 C45_3 1_555 1_555
O12_2 C40_3 1_555 1_555
C46_3 C42_3 1_555 1_555
H22_3 C46_3 1_555 1_555
C47_3 C36_3 1_555 1_555
H23_3 C47_3 1_555 1_555
C48_3 C39_3 1_555 1_555
H24_3 C48_3 1_555 1_555
C52_3 C51_3 1_555 1_555
C53_3 C52_3 1_555 1_555
C54_3 C53_3 1_555 1_555
C56_3 C54_3 1_555 1_555
H27_3 C56_3 1_555 1_555
O23_2 C64_3 1_555 1_555
C58_3 H28_3 1_555 1_555
C59_3 C58_3 1_555 1_555
H29_3 C59_3 1_555 1_555
C60_3 C59_3 1_555 1_555
C61_3 C60_3 1_555 1_555
C62_3 C61_3 1_555 1_555
C63_3 C62_3 1_555 1_555
C64_3 C66_3 1_555 1_555
C65_3 C56_3 1_555 1_555
H30_3 C65_3 1_555 1_555
C66_3 C58_3 1_555 1_555
H31_3 C67_3 1_555 1_555
C68_3 C51_3 1_555 1_555
H32_3 C68_3 1_555 1_555
C69_3 C54_3 1_555 1_555
H33_3 C69_3 1_555 1_555
O16_3 C64_3 1_555 1_555
C70_3 C66_3 1_555 1_555
H34_3 C70_3 1_555 1_555
C71_3 C60_3 1_555 1_555
H35_3 C71_3 1_555 1_555
C72_3 C63_3 1_555 1_555
H36_3 C72_3 1_555 1_555
Zr4_2 O10_2 1_555 1_555
Zr6_2 O12_2 1_555 1_555
Zr9_2 O16_3 1_555 1_555
C19_3 C20_3 1_555 1_555
C39_3 C41_3 1_555 1_555
C45_3 C48_3 1_555 1_555
C46_3 C47_3 1_555 1_555
C63_3 C65_3 1_555 1_555
C67_3 C68_3 1_555 1_555
C69_3 C72_3 1_555 1_555
C70_3 C71_3 1_555 1_555
C4_3 C3_3 1_555 1_555
C5_3 C4_3 1_555 1_555
C6_3 C5_3 1_555 1_555
C8_3 C6_3 1_555 1_555
H3_3 C8_3 1_555 1_555
O4_3 C16_3 1_555 1_555
C10_3 H4_3 1_555 1_555
C11_3 C10_3 1_555 1_555
H5_3 C11_3 1_555 1_555
C12_3 C11_3 1_555 1_555
C13_3 C12_3 1_555 1_555
C14_3 C13_3 1_555 1_555
C15_3 C14_3 1_555 1_555
C16_3 C18_3 1_555 1_555
C17_3 C8_3 1_555 1_555
H6_3 C17_3 1_555 1_555
C18_3 C10_3 1_555 1_555
C21_3 C6_3 1_555 1_555
H9_3 C21_3 1_555 1_555
O6_3 C16_3 1_555 1_555
C22_3 C18_3 1_555 1_555
H10_3 C22_3 1_555 1_555
C23_3 C12_3 1_555 1_555
H11_3 C23_3 1_555 1_555
C24_3 C15_3 1_555 1_555
H12_3 C24_3 1_555 1_555
Zr9_2 O6_3 1_555 1_555
Zr12_2 O4_3 1_555 1_555
C15_3 C17_3 1_555 1_555
C21_3 C24_3 1_555 1_555
C22_3 C23_3 1_555 1_555
O4_4 C16_4 1_555 1_555
C16_4 C18_4 1_555 1_555
O6_4 C16_4 1_555 1_555
C22_4 C18_4 1_555 1_555
H10_4 C22_4 1_555 1_555
H11_4 C23_4 1_555 1_555
Zr9 O6_4 1_555 1_555
Zr12 O4_4 1_555 1_555
C22_4 C23_4 1_555 1_555
O21_2 C40_4 1_555 1_555
C34_4 H16_4 1_555 1_555
C35_4 C34_4 1_555 1_555
H17_4 C35_4 1_555 1_555
C40_4 C42_4 1_555 1_555
C42_4 C34_4 1_555 1_555
O20_2 C40_4 1_555 1_555
O23 C64_4 1_555 1_555
C64_4 C66_4 1_555 1_555
O16_4 C64_4 1_555 1_555
C70_4 C66_4 1_555 1_555
H34_4 C70_4 1_555 1_555
H35_4 C71_4 1_555 1_555
Zr9 O16_4 1_555 1_555
C70_4 C71_4 1_555 1_555
Zr4_2 O1_4 1_555 1_555
O1_4 C7_4 1_555 1_555
C1_4 H1_4 1_555 1_555
O2_4 Zr4_2 1_555 1_555
C2_4 C1_4 1_555 1_555
H2_4 C2_4 1_555 1_555
C3_4 C2_4 1_555 1_555
O3_4 Zr4_2 1_555 1_555
C4_4 C3_4 1_555 1_555
C5_4 C4_4 1_555 1_555
C6_4 C5_4 1_555 1_555
C7_4 C9_4 1_555 1_555
C8_4 C6_4 1_555 1_555
H3_4 C8_4 1_555 1_555
C9_4 C1_4 1_555 1_555
C10_4 H4_4 1_555 1_555
C11_4 C10_4 1_555 1_555
H5_4 C11_4 1_555 1_555
C12_4 C11_4 1_555 1_555
C13_4 C12_4 1_555 1_555
C14_4 C13_4 1_555 1_555
C15_4 C14_4 1_555 1_555
C17_4 C8_4 1_555 1_555
H6_4 C17_4 1_555 1_555
O5_4 C7_4 1_555 1_555
C19_4 C9_4 1_555 1_555
H7_4 C19_4 1_555 1_555
C20_4 C3_4 1_555 1_555
H8_4 C20_4 1_555 1_555
C21_4 C6_4 1_555 1_555
H9_4 C21_4 1_555 1_555
C24_4 C15_4 1_555 1_555
H12_4 C24_4 1_555 1_555
Zr5 O3_4 1_555 1_555
O7_4 Zr5 1_555 1_555
O8_4 Zr5 1_555 1_555
Zr6_2 O8_4 1_555 1_555
O9_4 C31_4 1_555 1_555
C25_4 H13_4 1_555 1_555
C26_4 C25_4 1_555 1_555
H14_4 C26_4 1_555 1_555
C31_4 C33_4 1_555 1_555
C33_4 C25_4 1_555 1_555
O11_4 Zr4_2 1_555 1_555
O13_4 Zr4_2 1_555 1_555
C55_4 O13_4 1_555 1_555
O15_4 Zr5 1_555 1_555
C67_4 C57_4 1_555 1_555
H31_4 C67_4 1_555 1_555
H32_4 C68_4 1_555 1_555
Zr8 O7_4 1_555 1_555
Zr10_4 O2_4 1_555 1_555
Zr11 O2_4 1_555 1_555
O17_4 Zr5 1_555 1_555
O18_4 Zr6_2 1_555 1_555
O19_4 Zr5 1_555 1_555
O22_4 Zr6_2 1_555 1_555
O24_4 Zr6_2 1_555 1_555
O25_4 Zr6_2 1_555 1_555
O26_4 Zr4_2 1_555 1_555
O27_4 Zr4_2 1_555 1_555
O3_4 Zr10_4 1_555 1_555
C15_4 C17_4 1_555 1_555
O5_4 Zr11 1_555 1_555
C19_4 C20_4 1_555 1_555
C21_4 C24_4 1_555 1_555
Zr5 O26_4 1_555 1_555
O7_4 Zr10_4 1_555 1_555
O8_4 Zr8 1_555 1_555
Zr6_2 O26_4 1_555 1_555
Zr6_2 O27_4 1_555 1_555
O9_4 Zr10_4 1_555 1_555
C31_4 O11_4 1_555 1_555
C55_4 C57_4 1_555 1_555
C55_4 O15_4 1_555 1_555
C67_4 C68_4 1_555 1_555
Zr8 O25_4 1_555 1_555
Zr11 O25_4 1_555 1_555
Zr11 O27_4 1_555 1_555
C28_4 C27_4 1_555 1_555
C29_4 C28_4 1_555 1_555
C30_4 C29_4 1_555 1_555
C32_4 C30_4 1_555 1_555
H15_4 C32_4 1_555 1_555
C37_4 C36_4 1_555 1_555
C38_4 C37_4 1_555 1_555
C39_4 C38_4 1_555 1_555
C41_4 C32_4 1_555 1_555
H18_4 C41_4 1_555 1_555
H19_4 C43_4 1_555 1_555
C44_4 C27_4 1_555 1_555
H20_4 C44_4 1_555 1_555
C45_4 C30_4 1_555 1_555
H21_4 C45_4 1_555 1_555
H22_4 C46_4 1_555 1_555
C47_4 C36_4 1_555 1_555
H23_4 C47_4 1_555 1_555
C48_4 C39_4 1_555 1_555
H24_4 C48_4 1_555 1_555
C39_4 C41_4 1_555 1_555
C43_4 C44_4 1_555 1_555
C45_4 C48_4 1_555 1_555
C46_4 C47_4 1_555 1_555
C49_4 H25_4 1_555 1_555
C50_4 C49_4 1_555 1_555
H26_4 C50_4 1_555 1_555
C51_4 C50_4 1_555 1_555
C52_4 C51_4 1_555 1_555
C53_4 C52_4 1_555 1_555
C54_4 C53_4 1_555 1_555
C56_4 C54_4 1_555 1_555
H27_4 C56_4 1_555 1_555
C58_4 H28_4 1_555 1_555
C59_4 C58_4 1_555 1_555
H29_4 C59_4 1_555 1_555
C60_4 C59_4 1_555 1_555
C61_4 C60_4 1_555 1_555
C62_4 C61_4 1_555 1_555
C63_4 C62_4 1_555 1_555
C65_4 C56_4 1_555 1_555
H30_4 C65_4 1_555 1_555
C69_4 C54_4 1_555 1_555
H33_4 C69_4 1_555 1_555
C72_4 C63_4 1_555 1_555
H36_4 C72_4 1_555 1_555
C63_4 C65_4 1_555 1_555
C69_4 C72_4 1_555 1_555
O24 C64_5 1_555 1_555
C58_5 H28_5 1_555 1_555
C59_5 C58_5 1_555 1_555
H29_5 C59_5 1_555 1_555
C64_5 C66_5 1_555 1_555
C66_5 C58_5 1_555 1_555
O16_5 C64_5 1_555 1_555
Zr12 O16_5 1_555 1_555
O17_3 C7_5 1_555 1_555
C1_5 H1_5 1_555 1_555
C2_5 C1_5 1_555 1_555
H2_5 C2_5 1_555 1_555
C3_5 C2_5 1_555 1_555
C4_5 C3_5 1_555 1_555
C5_5 C4_5 1_555 1_555
C6_5 C5_5 1_555 1_555
C7_5 C9_5 1_555 1_555
C8_5 C6_5 1_555 1_555
H3_5 C8_5 1_555 1_555
C9_5 C1_5 1_555 1_555
O4_5 C16_5 1_555 1_555
C10_5 H4_5 1_555 1_555
C11_5 C10_5 1_555 1_555
H5_5 C11_5 1_555 1_555
C12_5 C11_5 1_555 1_555
C13_5 C12_5 1_555 1_555
C14_5 C13_5 1_555 1_555
C15_5 C14_5 1_555 1_555
C16_5 C18_5 1_555 1_555
C17_5 C8_5 1_555 1_555
H6_5 C17_5 1_555 1_555
C18_5 C10_5 1_555 1_555
O5_5 C7_5 1_555 1_555
C19_5 C9_5 1_555 1_555
H7_5 C19_5 1_555 1_555
C20_5 C3_5 1_555 1_555
H8_5 C20_5 1_555 1_555
C21_5 C6_5 1_555 1_555
H9_5 C21_5 1_555 1_555
O6_5 C16_5 1_555 1_555
C22_5 C18_5 1_555 1_555
H10_5 C22_5 1_555 1_555
C23_5 C12_5 1_555 1_555
H11_5 C23_5 1_555 1_555
C24_5 C15_5 1_555 1_555
H12_5 C24_5 1_555 1_555
C49_5 H25_5 1_555 1_555
C50_5 C49_5 1_555 1_555
H26_5 C50_5 1_555 1_555
C51_5 C50_5 1_555 1_555
C52_5 C51_5 1_555 1_555
C53_5 C52_5 1_555 1_555
C54_5 C53_5 1_555 1_555
C55_5 O19_3 1_555 1_555
C56_5 C54_5 1_555 1_555
H27_5 C56_5 1_555 1_555
C57_5 C49_5 1_555 1_555
C61_5 C60_5 1_555 1_555
C62_5 C61_5 1_555 1_555
C63_5 C62_5 1_555 1_555
C65_5 C56_5 1_555 1_555
H30_5 C65_5 1_555 1_555
C67_5 C57_5 1_555 1_555
H31_5 C67_5 1_555 1_555
C68_5 C51_5 1_555 1_555
H32_5 C68_5 1_555 1_555
C69_5 C54_5 1_555 1_555
H33_5 C69_5 1_555 1_555
H34_5 C70_5 1_555 1_555
C71_5 C60_5 1_555 1_555
H35_5 C71_5 1_555 1_555
C72_5 C63_5 1_555 1_555
H36_5 C72_5 1_555 1_555
Zr12 O6_5 1_555 1_555
Zr10 O4_5 1_555 1_555
C15_5 C17_5 1_555 1_555
O5_5 Zr10_3 1_555 1_555
C19_5 C20_5 1_555 1_555
C21_5 C24_5 1_555 1_555
C22_5 C23_5 1_555 1_555
C55_5 C57_5 1_555 1_555
C55_5 O22_3 1_555 1_555
C63_5 C65_5 1_555 1_555
C67_5 C68_5 1_555 1_555
C69_5 C72_5 1_555 1_555
C70_5 C71_5 1_555 1_555
O4_6 C16_6 1_555 1_555
C10_6 H4_6 1_555 1_555
C11_6 C10_6 1_555 1_555
H5_6 C11_6 1_555 1_555
C16_6 C18_6 1_555 1_555
C18_6 C10_6 1_555 1_555
O6_6 C16_6 1_555 1_555
Zr11 O6_6 1_555 1_555
Zr10_4 O4_6 1_555 1_555
O17_2 C7_6 1_555 1_555
C1_6 H1_6 1_555 1_555
C2_6 C1_6 1_555 1_555
H2_6 C2_6 1_555 1_555
C3_6 C2_6 1_555 1_555
C4_6 C3_6 1_555 1_555
C5_6 C4_6 1_555 1_555
C6_6 C5_6 1_555 1_555
C7_6 C9_6 1_555 1_555
C8_6 C6_6 1_555 1_555
H3_6 C8_6 1_555 1_555
C9_6 C1_6 1_555 1_555
C13_6 C12_6 1_555 1_555
C14_6 C13_6 1_555 1_555
C15_6 C14_6 1_555 1_555
C17_6 C8_6 1_555 1_555
H6_6 C17_6 1_555 1_555
O5_6 C7_6 1_555 1_555
C19_6 C9_6 1_555 1_555
H7_6 C19_6 1_555 1_555
C20_6 C3_6 1_555 1_555
H8_6 C20_6 1_555 1_555
C21_6 C6_6 1_555 1_555
H9_6 C21_6 1_555 1_555
H10_6 C22_6 1_555 1_555
C23_6 C12_6 1_555 1_555
H11_6 C23_6 1_555 1_555
C24_6 C15_6 1_555 1_555
H12_6 C24_6 1_555 1_555
C49_6 H25_6 1_555 1_555
C50_6 C49_6 1_555 1_555
H26_6 C50_6 1_555 1_555
C51_6 C50_6 1_555 1_555
C52_6 C51_6 1_555 1_555
C53_6 C52_6 1_555 1_555
C54_6 C53_6 1_555 1_555
C55_6 O19_2 1_555 1_555
C56_6 C54_6 1_555 1_555
H27_6 C56_6 1_555 1_555
C57_6 C49_6 1_555 1_555
O24_4 C64_6 1_555 1_555
C58_6 H28_6 1_555 1_555
C59_6 C58_6 1_555 1_555
H29_6 C59_6 1_555 1_555
C60_6 C59_6 1_555 1_555
C61_6 C60_6 1_555 1_555
C62_6 C61_6 1_555 1_555
C63_6 C62_6 1_555 1_555
C64_6 C66_6 1_555 1_555
C65_6 C56_6 1_555 1_555
H30_6 C65_6 1_555 1_555
C66_6 C58_6 1_555 1_555
C67_6 C57_6 1_555 1_555
H31_6 C67_6 1_555 1_555
C68_6 C51_6 1_555 1_555
H32_6 C68_6 1_555 1_555
C69_6 C54_6 1_555 1_555
H33_6 C69_6 1_555 1_555
O16_6 C64_6 1_555 1_555
C70_6 C66_6 1_555 1_555
H34_6 C70_6 1_555 1_555
C71_6 C60_6 1_555 1_555
H35_6 C71_6 1_555 1_555
C72_6 C63_6 1_555 1_555
H36_6 C72_6 1_555 1_555
Zr11 O16_6 1_555 1_555
C15_6 C17_6 1_555 1_555
O5_6 Zr10_2 1_555 1_555
C19_6 C20_6 1_555 1_555
C21_6 C24_6 1_555 1_555
C22_6 C23_6 1_555 1_555
C55_6 C57_6 1_555 1_555
C55_6 O22_2 1_555 1_555
C63_6 C65_6 1_555 1_555
C67_6 C68_6 1_555 1_555
C69_6 C72_6 1_555 1_555
C70_6 C71_6 1_555 1_555
O17_4 C7_7 1_555 1_555
C7_7 C9_7 1_555 1_555
O5_7 C7_7 1_555 1_555
C49_7 H25_7 1_555 1_555
C50_7 C49_7 1_555 1_555
H26_7 C50_7 1_555 1_555
C55_7 O19_4 1_555 1_555
C57_7 C49_7 1_555 1_555
O5_7 Zr10_4 1_555 1_555
C55_7 C57_7 1_555 1_555
C55_7 O22_4 1_555 1_555
C1_7 H1_7 1_555 1_555
C2_7 C1_7 1_555 1_555
H2_7 C2_7 1_555 1_555
H7_7 C19_7 1_555 1_555
H8_7 C20_7 1_555 1_555
C52_7 C51_7 1_555 1_555
C53_7 C52_7 1_555 1_555
C54_7 C53_7 1_555 1_555
C56_7 C54_7 1_555 1_555
H27_7 C56_7 1_555 1_555
O24_2 C64_7 1_555 1_555
C58_7 H28_7 1_555 1_555
C59_7 C58_7 1_555 1_555
H29_7 C59_7 1_555 1_555
C60_7 C59_7 1_555 1_555
C61_7 C60_7 1_555 1_555
C62_7 C61_7 1_555 1_555
C63_7 C62_7 1_555 1_555
C64_7 C66_7 1_555 1_555
C65_7 C56_7 1_555 1_555
H30_7 C65_7 1_555 1_555
C66_7 C58_7 1_555 1_555
H31_7 C67_7 1_555 1_555
C68_7 C51_7 1_555 1_555
H32_7 C68_7 1_555 1_555
C69_7 C54_7 1_555 1_555
H33_7 C69_7 1_555 1_555
O16_7 C64_7 1_555 1_555
C70_7 C66_7 1_555 1_555
H34_7 C70_7 1_555 1_555
C71_7 C60_7 1_555 1_555
H35_7 C71_7 1_555 1_555
C72_7 C63_7 1_555 1_555
H36_7 C72_7 1_555 1_555
Zr12_2 O16_7 1_555 1_555
C19_7 C20_7 1_555 1_555
C63_7 C65_7 1_555 1_555
C67_7 C68_7 1_555 1_555
C69_7 C72_7 1_555 1_555
C70_7 C71_7 1_555 1_555
C4_7 C3_7 1_555 1_555
C5_7 C4_7 1_555 1_555
C6_7 C5_7 1_555 1_555
C8_7 C6_7 1_555 1_555
H3_7 C8_7 1_555 1_555
O4_7 C16_7 1_555 1_555
C10_7 H4_7 1_555 1_555
C11_7 C10_7 1_555 1_555
H5_7 C11_7 1_555 1_555
C12_7 C11_7 1_555 1_555
C13_7 C12_7 1_555 1_555
C14_7 C13_7 1_555 1_555
C15_7 C14_7 1_555 1_555
C16_7 C18_7 1_555 1_555
C17_7 C8_7 1_555 1_555
H6_7 C17_7 1_555 1_555
C18_7 C10_7 1_555 1_555
C21_7 C6_7 1_555 1_555
H9_7 C21_7 1_555 1_555
O6_7 C16_7 1_555 1_555
C22_7 C18_7 1_555 1_555
H10_7 C22_7 1_555 1_555
C23_7 C12_7 1_555 1_555
H11_7 C23_7 1_555 1_555
C24_7 C15_7 1_555 1_555
H12_7 C24_7 1_555 1_555
Zr12_2 O6_7 1_555 1_555
Zr10_2 O4_7 1_555 1_555
C15_7 C17_7 1_555 1_555
C21_7 C24_7 1_555 1_555
C22_7 C23_7 1_555 1_555
O4_8 C16_8 1_555 1_555
C16_8 C18_8 1_555 1_555
O6_8 C16_8 1_555 1_555
C22_8 C18_8 1_555 1_555
H10_8 C22_8 1_555 1_555
H11_8 C23_8 1_555 1_555
Zr11_2 O6_8 1_555 1_555
Zr10_3 O4_8 1_555 1_555
C22_8 C23_8 1_555 1_555
O24_3 C64_8 1_555 1_555
C64_8 C66_8 1_555 1_555
O16_8 C64_8 1_555 1_555
C70_8 C66_8 1_555 1_555
H34_8 C70_8 1_555 1_555
H35_8 C71_8 1_555 1_555
Zr11_2 O16_8 1_555 1_555
C70_8 C71_8 1_555 1_555
O17 C7_8 1_555 1_555
C1_8 H1_8 1_555 1_555
C2_8 C1_8 1_555 1_555
H2_8 C2_8 1_555 1_555
C3_8 C2_8 1_555 1_555
C4_8 C3_8 1_555 1_555
C5_8 C4_8 1_555 1_555
C6_8 C5_8 1_555 1_555
C7_8 C9_8 1_555 1_555
C8_8 C6_8 1_555 1_555
H3_8 C8_8 1_555 1_555
C9_8 C1_8 1_555 1_555
C10_8 H4_8 1_555 1_555
C11_8 C10_8 1_555 1_555
H5_8 C11_8 1_555 1_555
C12_8 C11_8 1_555 1_555
C13_8 C12_8 1_555 1_555
C14_8 C13_8 1_555 1_555
C15_8 C14_8 1_555 1_555
C17_8 C8_8 1_555 1_555
H6_8 C17_8 1_555 1_555
O5_8 C7_8 1_555 1_555
C19_8 C9_8 1_555 1_555
H7_8 C19_8 1_555 1_555
C20_8 C3_8 1_555 1_555
H8_8 C20_8 1_555 1_555
C21_8 C6_8 1_555 1_555
H9_8 C21_8 1_555 1_555
C24_8 C15_8 1_555 1_555
H12_8 C24_8 1_555 1_555
C55_8 O19 1_555 1_555
C67_8 C57_8 1_555 1_555
H31_8 C67_8 1_555 1_555
H32_8 C68_8 1_555 1_555
C15_8 C17_8 1_555 1_555
O5_8 Zr10 1_555 1_555
C19_8 C20_8 1_555 1_555
C21_8 C24_8 1_555 1_555
C55_8 C57_8 1_555 1_555
C55_8 O22 1_555 1_555
C67_8 C68_8 1_555 1_555
C49_8 H25_8 1_555 1_555
C50_8 C49_8 1_555 1_555
H26_8 C50_8 1_555 1_555
C51_8 C50_8 1_555 1_555
C52_8 C51_8 1_555 1_555
C53_8 C52_8 1_555 1_555
C54_8 C53_8 1_555 1_555
C56_8 C54_8 1_555 1_555
H27_8 C56_8 1_555 1_555
C58_8 H28_8 1_555 1_555
C59_8 C58_8 1_555 1_555
H29_8 C59_8 1_555 1_555
C60_8 C59_8 1_555 1_555
C61_8 C60_8 1_555 1_555
C62_8 C61_8 1_555 1_555
C63_8 C62_8 1_555 1_555
C65_8 C56_8 1_555 1_555
H30_8 C65_8 1_555 1_555
C69_8 C54_8 1_555 1_555
H33_8 C69_8 1_555 1_555
C72_8 C63_8 1_555 1_555
H36_8 C72_8 1_555 1_555
C63_8 C65_8 1_555 1_555
C69_8 C72_8 1_555 1_555
O18_4 C7_9 1_555 1_555
C1_9 H1_9 1_555 1_555
C2_9 C1_9 1_555 1_555
H2_9 C2_9 1_555 1_555
C3_9 C2_9 1_555 1_555
C4_9 C3_9 1_555 1_555
C5_9 C4_9 1_555 1_555
C6_9 C5_9 1_555 1_555
C7_9 C9_9 1_555 1_555
C8_9 C6_9 1_555 1_555
H3_9 C8_9 1_555 1_555
C9_9 C1_9 1_555 1_555
O4_9 C16_9 1_555 1_555
C10_9 H4_9 1_555 1_555
C11_9 C10_9 1_555 1_555
H5_9 C11_9 1_555 1_555
C12_9 C11_9 1_555 1_555
C13_9 C12_9 1_555 1_555
C14_9 C13_9 1_555 1_555
C15_9 C14_9 1_555 1_555
C16_9 C18_9 1_555 1_555
C17_9 C8_9 1_555 1_555
H6_9 C17_9 1_555 1_555
C18_9 C10_9 1_555 1_555
O5_9 C7_9 1_555 1_555
C19_9 C9_9 1_555 1_555
H7_9 C19_9 1_555 1_555
C20_9 C3_9 1_555 1_555
H8_9 C20_9 1_555 1_555
C21_9 C6_9 1_555 1_555
H9_9 C21_9 1_555 1_555
O6_9 C16_9 1_555 1_555
C22_9 C18_9 1_555 1_555
H10_9 C22_9 1_555 1_555
C23_9 C12_9 1_555 1_555
H11_9 C23_9 1_555 1_555
C24_9 C15_9 1_555 1_555
H12_9 C24_9 1_555 1_555
Zr10_3 O6_9 1_555 1_555
Zr7 O4_9 1_555 1_555
C15_9 C17_9 1_555 1_555
O5_9 Zr8 1_555 1_555
C19_9 C20_9 1_555 1_555
C21_9 C24_9 1_555 1_555
C22_9 C23_9 1_555 1_555
O4_10 C16_10 1_555 1_555
C10_10 H4_10 1_555 1_555
C11_10 C10_10 1_555 1_555
H5_10 C11_10 1_555 1_555
C16_10 C18_10 1_555 1_555
C18_10 C10_10 1_555 1_555
O6_10 C16_10 1_555 1_555
Zr10 O6_10 1_555 1_555
Zr9 O4_10 1_555 1_555
O18_2 C7_10 1_555 1_555
C1_10 H1_10 1_555 1_555
C2_10 C1_10 1_555 1_555
H2_10 C2_10 1_555 1_555
C3_10 C2_10 1_555 1_555
C4_10 C3_10 1_555 1_555
C5_10 C4_10 1_555 1_555
C6_10 C5_10 1_555 1_555
C7_10 C9_10 1_555 1_555
C8_10 C6_10 1_555 1_555
H3_10 C8_10 1_555 1_555
C9_10 C1_10 1_555 1_555
C13_10 C12_10 1_555 1_555
C14_10 C13_10 1_555 1_555
C15_10 C14_10 1_555 1_555
C17_10 C8_10 1_555 1_555
H6_10 C17_10 1_555 1_555
O5_10 C7_10 1_555 1_555
C19_10 C9_10 1_555 1_555
H7_10 C19_10 1_555 1_555
C20_10 C3_10 1_555 1_555
H8_10 C20_10 1_555 1_555
C21_10 C6_10 1_555 1_555
H9_10 C21_10 1_555 1_555
H10_10 C22_10 1_555 1_555
C23_10 C12_10 1_555 1_555
H11_10 C23_10 1_555 1_555
C24_10 C15_10 1_555 1_555
H12_10 C24_10 1_555 1_555
C15_10 C17_10 1_555 1_555
O5_10 Zr9_2 1_555 1_555
C19_10 C20_10 1_555 1_555
C21_10 C24_10 1_555 1_555
C22_10 C23_10 1_555 1_555
O18 C7_11 1_555 1_555
C7_11 C9_11 1_555 1_555
O5_11 C7_11 1_555 1_555
O5_11 Zr9 1_555 1_555
H7_11 C19_11 1_555 1_555
H8_11 C20_11 1_555 1_555
C19_11 C20_11 1_555 1_555
C1_11 H1_11 1_555 1_555
C2_11 C1_11 1_555 1_555
H2_11 C2_11 1_555 1_555
C4_11 C3_11 1_555 1_555
C5_11 C4_11 1_555 1_555
C6_11 C5_11 1_555 1_555
C8_11 C6_11 1_555 1_555
H3_11 C8_11 1_555 1_555
O4_11 C16_11 1_555 1_555
C10_11 H4_11 1_555 1_555
C11_11 C10_11 1_555 1_555
H5_11 C11_11 1_555 1_555
C12_11 C11_11 1_555 1_555
C13_11 C12_11 1_555 1_555
C14_11 C13_11 1_555 1_555
C15_11 C14_11 1_555 1_555
C16_11 C18_11 1_555 1_555
C17_11 C8_11 1_555 1_555
H6_11 C17_11 1_555 1_555
C18_11 C10_11 1_555 1_555
C21_11 C6_11 1_555 1_555
H9_11 C21_11 1_555 1_555
O6_11 C16_11 1_555 1_555
C22_11 C18_11 1_555 1_555
H10_11 C22_11 1_555 1_555
C23_11 C12_11 1_555 1_555
H11_11 C23_11 1_555 1_555
C24_11 C15_11 1_555 1_555
H12_11 C24_11 1_555 1_555
Zr10_2 O6_11 1_555 1_555
Zr9_2 O4_11 1_555 1_555
C15_11 C17_11 1_555 1_555
C21_11 C24_11 1_555 1_555
C22_11 C23_11 1_555 1_555
O4_12 C16_12 1_555 1_555
C16_12 C18_12 1_555 1_555
O6_12 C16_12 1_555 1_555
C22_12 C18_12 1_555 1_555
H10_12 C22_12 1_555 1_555
H11_12 C23_12 1_555 1_555
Zr10_4 O6_12 1_555 1_555
Zr8 O4_12 1_555 1_555
C22_12 C23_12 1_555 1_555
O18_3 C7_12 1_555 1_555
C1_12 H1_12 1_555 1_555
C2_12 C1_12 1_555 1_555
H2_12 C2_12 1_555 1_555
C3_12 C2_12 1_555 1_555
C4_12 C3_12 1_555 1_555
C5_12 C4_12 1_555 1_555
C6_12 C5_12 1_555 1_555
C7_12 C9_12 1_555 1_555
C8_12 C6_12 1_555 1_555
H3_12 C8_12 1_555 1_555
C9_12 C1_12 1_555 1_555
C10_12 H4_12 1_555 1_555
C11_12 C10_12 1_555 1_555
H5_12 C11_12 1_555 1_555
C12_12 C11_12 1_555 1_555
C13_12 C12_12 1_555 1_555
C14_12 C13_12 1_555 1_555
C15_12 C14_12 1_555 1_555
C17_12 C8_12 1_555 1_555
H6_12 C17_12 1_555 1_555
O5_12 C7_12 1_555 1_555
C19_12 C9_12 1_555 1_555
H7_12 C19_12 1_555 1_555
C20_12 C3_12 1_555 1_555
H8_12 C20_12 1_555 1_555
C21_12 C6_12 1_555 1_555
H9_12 C21_12 1_555 1_555
C24_12 C15_12 1_555 1_555
H12_12 C24_12 1_555 1_555
C15_12 C17_12 1_555 1_555
O5_12 Zr7 1_555 1_555
C19_12 C20_12 1_555 1_555
C21_12 C24_12 1_555 1_555
O27_5 Zr7 1_555 1_555
Zr10_3 O27_5 1_555 1_555
Zr11_2 O27_5 1_555 1_555
O27_6 Zr8 1_555 1_555
Zr10_4 O27_6 1_555 1_555
Zr11 O27_6 1_555 1_555
O27_7 Zr9 1_555 1_555
Zr10 O27_7 1_555 1_555
Zr12 O27_7 1_555 1_555
O27_8 Zr9_2 1_555 1_555
Zr10_2 O27_8 1_555 1_555
Zr12_2 O27_8 1_555 1_555
Zr1_3 O1_5 1_555 1_555
O1_5 C7_13 1_555 1_555
C1_13 H1_13 1_555 1_555
O2_5 Zr1_3 1_555 1_555
C2_13 C1_13 1_555 1_555
H2_13 C2_13 1_555 1_555
C3_13 C2_13 1_555 1_555
O3_5 Zr1_3 1_555 1_555
C4_13 C3_13 1_555 1_555
C5_13 C4_13 1_555 1_555
C6_13 C5_13 1_555 1_555
C7_13 C9_13 1_555 1_555
C8_13 C6_13 1_555 1_555
H3_13 C8_13 1_555 1_555
C9_13 C1_13 1_555 1_555
C13_13 C12_13 1_555 1_555
C14_13 C13_13 1_555 1_555
C15_13 C14_13 1_555 1_555
C17_13 C8_13 1_555 1_555
H6_13 C17_13 1_555 1_555
O5_13 C7_13 1_555 1_555
C19_13 C9_13 1_555 1_555
H7_13 C19_13 1_555 1_555
C20_13 C3_13 1_555 1_555
H8_13 C20_13 1_555 1_555
C21_13 C6_13 1_555 1_555
H9_13 C21_13 1_555 1_555
H10_13 C22_13 1_555 1_555
C23_13 C12_13 1_555 1_555
H11_13 C23_13 1_555 1_555
C24_13 C15_13 1_555 1_555
H12_13 C24_13 1_555 1_555
Zr2_3 O3_5 1_555 1_555
O7_5 Zr2_3 1_555 1_555
O8_5 Zr2_3 1_555 1_555
Zr3_3 O8_5 1_555 1_555
O9_5 C31_5 1_555 1_555
C25_5 H13_5 1_555 1_555
C26_5 C25_5 1_555 1_555
H14_5 C26_5 1_555 1_555
C27_5 C26_5 1_555 1_555
C28_5 C27_5 1_555 1_555
C29_5 C28_5 1_555 1_555
C30_5 C29_5 1_555 1_555
C31_5 C33_5 1_555 1_555
C32_5 C30_5 1_555 1_555
H15_5 C32_5 1_555 1_555
C33_5 C25_5 1_555 1_555
C34_5 H16_5 1_555 1_555
C35_5 C34_5 1_555 1_555
H17_5 C35_5 1_555 1_555
C36_5 C35_5 1_555 1_555
C37_5 C36_5 1_555 1_555
C38_5 C37_5 1_555 1_555
C39_5 C38_5 1_555 1_555
C41_5 C32_5 1_555 1_555
H18_5 C41_5 1_555 1_555
O11_5 Zr1_3 1_555 1_555
C43_5 C33_5 1_555 1_555
H19_5 C43_5 1_555 1_555
C44_5 C27_5 1_555 1_555
H20_5 C44_5 1_555 1_555
C45_5 C30_5 1_555 1_555
H21_5 C45_5 1_555 1_555
C48_5 C39_5 1_555 1_555
H24_5 C48_5 1_555 1_555
O13_5 Zr1_3 1_555 1_555
C49_9 H25_9 1_555 1_555
C50_9 C49_9 1_555 1_555
H26_9 C50_9 1_555 1_555
C51_9 C50_9 1_555 1_555
C52_9 C51_9 1_555 1_555
C53_9 C52_9 1_555 1_555
C54_9 C53_9 1_555 1_555
C55_9 O13_5 1_555 1_555
C56_9 C54_9 1_555 1_555
H27_9 C56_9 1_555 1_555
C57_9 C49_9 1_555 1_555
O14_3 C64_9 1_555 1_555
C58_9 H28_9 1_555 1_555
C59_9 C58_9 1_555 1_555
H29_9 C59_9 1_555 1_555
C60_9 C59_9 1_555 1_555
C61_9 C60_9 1_555 1_555
C62_9 C61_9 1_555 1_555
C63_9 C62_9 1_555 1_555
C64_9 C66_9 1_555 1_555
C65_9 C56_9 1_555 1_555
H30_9 C65_9 1_555 1_555
C66_9 C58_9 1_555 1_555
O15_5 Zr2_3 1_555 1_555
C67_9 C57_9 1_555 1_555
H31_9 C67_9 1_555 1_555
C68_9 C51_9 1_555 1_555
H32_9 C68_9 1_555 1_555
C69_9 C54_9 1_555 1_555
H33_9 C69_9 1_555 1_555
O16_9 C64_9 1_555 1_555
C70_9 C66_9 1_555 1_555
H34_9 C70_9 1_555 1_555
C71_9 C60_9 1_555 1_555
H35_9 C71_9 1_555 1_555
C72_9 C63_9 1_555 1_555
H36_9 C72_9 1_555 1_555
Zr5_3 O14_3 1_555 1_555
Zr8_2 O16_9 1_555 1_555
Zr9_3 O7_5 1_555 1_555
Zr10_5 O2_5 1_555 1_555
Zr12_3 O2_5 1_555 1_555
O17_5 Zr2_3 1_555 1_555
O18_5 Zr3_3 1_555 1_555
O19_5 Zr2_3 1_555 1_555
O20_3 Zr3_3 1_555 1_555
O21_3 Zr1_3 1_555 1_555
O22_5 Zr3_3 1_555 1_555
O23_3 Zr2_3 1_555 1_555
O24_5 Zr3_3 1_555 1_555
O25_5 Zr3_3 1_555 1_555
O26_5 Zr1_3 1_555 1_555
O27_9 Zr1_3 1_555 1_555
O3_5 Zr10_5 1_555 1_555
C15_13 C17_13 1_555 1_555
O5_13 Zr12_3 1_555 1_555
C19_13 C20_13 1_555 1_555
C21_13 C24_13 1_555 1_555
C22_13 C23_13 1_555 1_555
Zr2_3 O26_5 1_555 1_555
O7_5 Zr10_5 1_555 1_555
O8_5 Zr9_3 1_555 1_555
Zr3_3 O26_5 1_555 1_555
Zr3_3 O27_9 1_555 1_555
O9_5 Zr10_5 1_555 1_555
C31_5 O11_5 1_555 1_555
C39_5 C41_5 1_555 1_555
C43_5 C44_5 1_555 1_555
C45_5 C48_5 1_555 1_555
C55_9 C57_9 1_555 1_555
C55_9 O15_5 1_555 1_555
C63_9 C65_9 1_555 1_555
C67_9 C68_9 1_555 1_555
C69_9 C72_9 1_555 1_555
C70_9 C71_9 1_555 1_555
Zr9_3 O25_5 1_555 1_555
Zr12_3 O25_5 1_555 1_555
Zr12_3 O27_9 1_555 1_555
O10_3 C40_5 1_555 1_555
C40_5 C42_5 1_555 1_555
O12_3 C40_5 1_555 1_555
C46_5 C42_5 1_555 1_555
H22_5 C46_5 1_555 1_555
H23_5 C47_5 1_555 1_555
Zr4_3 O10_3 1_555 1_555
Zr6_3 O12_3 1_555 1_555
C46_5 C47_5 1_555 1_555
O4_13 C16_13 1_555 1_555
C10_13 H4_13 1_555 1_555
C11_13 C10_13 1_555 1_555
H5_13 C11_13 1_555 1_555
C16_13 C18_13 1_555 1_555
C18_13 C10_13 1_555 1_555
O6_13 C16_13 1_555 1_555
Zr8_2 O6_13 1_555 1_555
Zr11_3 O4_13 1_555 1_555
Zr4_3 O1_6 1_555 1_555
O1_6 C7_14 1_555 1_555
C1_14 H1_14 1_555 1_555
O2_6 Zr4_3 1_555 1_555
C2_14 C1_14 1_555 1_555
H2_14 C2_14 1_555 1_555
C3_14 C2_14 1_555 1_555
O3_6 Zr4_3 1_555 1_555
C4_14 C3_14 1_555 1_555
C5_14 C4_14 1_555 1_555
C6_14 C5_14 1_555 1_555
C7_14 C9_14 1_555 1_555
C8_14 C6_14 1_555 1_555
H3_14 C8_14 1_555 1_555
C9_14 C1_14 1_555 1_555
O4_14 C16_14 1_555 1_555
C10_14 H4_14 1_555 1_555
C11_14 C10_14 1_555 1_555
H5_14 C11_14 1_555 1_555
C12_14 C11_14 1_555 1_555
C13_14 C12_14 1_555 1_555
C14_14 C13_14 1_555 1_555
C15_14 C14_14 1_555 1_555
C16_14 C18_14 1_555 1_555
C17_14 C8_14 1_555 1_555
H6_14 C17_14 1_555 1_555
C18_14 C10_14 1_555 1_555
O5_14 C7_14 1_555 1_555
C19_14 C9_14 1_555 1_555
H7_14 C19_14 1_555 1_555
C20_14 C3_14 1_555 1_555
H8_14 C20_14 1_555 1_555
C21_14 C6_14 1_555 1_555
H9_14 C21_14 1_555 1_555
O6_14 C16_14 1_555 1_555
C22_14 C18_14 1_555 1_555
H10_14 C22_14 1_555 1_555
C23_14 C12_14 1_555 1_555
H11_14 C23_14 1_555 1_555
C24_14 C15_14 1_555 1_555
H12_14 C24_14 1_555 1_555
Zr2_4 O3_6 1_555 1_555
O7_6 Zr2_4 1_555 1_555
O8_6 Zr2_4 1_555 1_555
Zr6_3 O8_6 1_555 1_555
O9_6 C31_6 1_555 1_555
C25_6 H13_6 1_555 1_555
C26_6 C25_6 1_555 1_555
H14_6 C26_6 1_555 1_555
C27_6 C26_6 1_555 1_555
C28_6 C27_6 1_555 1_555
C29_6 C28_6 1_555 1_555
C30_6 C29_6 1_555 1_555
C31_6 C33_6 1_555 1_555
C32_6 C30_6 1_555 1_555
H15_6 C32_6 1_555 1_555
C33_6 C25_6 1_555 1_555
O21_3 C40_6 1_555 1_555
C34_6 H16_6 1_555 1_555
C35_6 C34_6 1_555 1_555
H17_6 C35_6 1_555 1_555
C36_6 C35_6 1_555 1_555
C37_6 C36_6 1_555 1_555
C38_6 C37_6 1_555 1_555
C39_6 C38_6 1_555 1_555
C40_6 C42_6 1_555 1_555
C41_6 C32_6 1_555 1_555
H18_6 C41_6 1_555 1_555
C42_6 C34_6 1_555 1_555
O11_6 Zr4_3 1_555 1_555
C43_6 C33_6 1_555 1_555
H19_6 C43_6 1_555 1_555
C44_6 C27_6 1_555 1_555
H20_6 C44_6 1_555 1_555
C45_6 C30_6 1_555 1_555
H21_6 C45_6 1_555 1_555
O20_3 C40_6 1_555 1_555
C46_6 C42_6 1_555 1_555
H22_6 C46_6 1_555 1_555
C47_6 C36_6 1_555 1_555
H23_6 C47_6 1_555 1_555
C48_6 C39_6 1_555 1_555
H24_6 C48_6 1_555 1_555
O13_6 Zr4_3 1_555 1_555
C49_10 H25_10 1_555 1_555
C50_10 C49_10 1_555 1_555
H26_10 C50_10 1_555 1_555
C51_10 C50_10 1_555 1_555
C52_10 C51_10 1_555 1_555
C53_10 C52_10 1_555 1_555
C54_10 C53_10 1_555 1_555
C55_10 O13_6 1_555 1_555
C56_10 C54_10 1_555 1_555
H27_10 C56_10 1_555 1_555
C57_10 C49_10 1_555 1_555
C61_10 C60_10 1_555 1_555
C62_10 C61_10 1_555 1_555
C63_10 C62_10 1_555 1_555
C65_10 C56_10 1_555 1_555
H30_10 C65_10 1_555 1_555
O15_6 Zr2_4 1_555 1_555
C67_10 C57_10 1_555 1_555
H31_10 C67_10 1_555 1_555
C68_10 C51_10 1_555 1_555
H32_10 C68_10 1_555 1_555
C69_10 C54_10 1_555 1_555
H33_10 C69_10 1_555 1_555
H34_10 C70_10 1_555 1_555
C71_10 C60_10 1_555 1_555
H35_10 C71_10 1_555 1_555
C72_10 C63_10 1_555 1_555
H36_10 C72_10 1_555 1_555
Zr7_2 O6_14 1_555 1_555
Zr9_4 O7_6 1_555 1_555
Zr10_6 O2_6 1_555 1_555
Zr11_4 O4_14 1_555 1_555
Zr12_4 O2_6 1_555 1_555
O17_6 Zr2_4 1_555 1_555
O18_6 Zr6_3 1_555 1_555
O19_6 Zr2_4 1_555 1_555
O22_6 Zr6_3 1_555 1_555
O23_4 Zr2_4 1_555 1_555
O24_6 Zr6_3 1_555 1_555
O25_6 Zr6_3 1_555 1_555
O26_6 Zr4_3 1_555 1_555
O27_10 Zr4_3 1_555 1_555
O3_6 Zr10_6 1_555 1_555
C15_14 C17_14 1_555 1_555
O5_14 Zr12_4 1_555 1_555
C19_14 C20_14 1_555 1_555
C21_14 C24_14 1_555 1_555
C22_14 C23_14 1_555 1_555
Zr2_4 O26_6 1_555 1_555
O7_6 Zr10_6 1_555 1_555
O8_6 Zr9_4 1_555 1_555
Zr6_3 O26_6 1_555 1_555
Zr6_3 O27_10 1_555 1_555
O9_6 Zr10_6 1_555 1_555
C31_6 O11_6 1_555 1_555
C39_6 C41_6 1_555 1_555
C43_6 C44_6 1_555 1_555
C45_6 C48_6 1_555 1_555
C46_6 C47_6 1_555 1_555
C55_10 C57_10 1_555 1_555
C55_10 O15_6 1_555 1_555
C63_10 C65_10 1_555 1_555
C67_10 C68_10 1_555 1_555
C69_10 C72_10 1_555 1_555
C70_10 C71_10 1_555 1_555
Zr9_4 O25_6 1_555 1_555
Zr12_4 O25_6 1_555 1_555
Zr12_4 O27_10 1_555 1_555
O14_4 C64_10 1_555 1_555
C58_10 H28_10 1_555 1_555
C59_10 C58_10 1_555 1_555
H29_10 C59_10 1_555 1_555
C64_10 C66_10 1_555 1_555
C66_10 C58_10 1_555 1_555
O16_10 C64_10 1_555 1_555
Zr5_4 O14_4 1_555 1_555
Zr7_2 O16_10 1_555 1_555
C49_11 H25_11 1_555 1_555
C50_11 C49_11 1_555 1_555
H26_11 C50_11 1_555 1_555
C51_11 C50_11 1_555 1_555
C52_11 C51_11 1_555 1_555
C53_11 C52_11 1_555 1_555
C54_11 C53_11 1_555 1_555
C56_11 C54_11 1_555 1_555
H27_11 C56_11 1_555 1_555
C58_11 H28_11 1_555 1_555
C59_11 C58_11 1_555 1_555
H29_11 C59_11 1_555 1_555
C60_11 C59_11 1_555 1_555
C61_11 C60_11 1_555 1_555
C62_11 C61_11 1_555 1_555
C63_11 C62_11 1_555 1_555
C65_11 C56_11 1_555 1_555
H30_11 C65_11 1_555 1_555
C69_11 C54_11 1_555 1_555
H33_11 C69_11 1_555 1_555
C72_11 C63_11 1_555 1_555
H36_11 C72_11 1_555 1_555
C63_11 C65_11 1_555 1_555
C69_11 C72_11 1_555 1_555
O23_4 C64_11 1_555 1_555
C64_11 C66_11 1_555 1_555
O16_11 C64_11 1_555 1_555
C70_11 C66_11 1_555 1_555
H34_11 C70_11 1_555 1_555
H35_11 C71_11 1_555 1_555
Zr9_4 O16_11 1_555 1_555
C70_11 C71_11 1_555 1_555
C28_7 C27_7 1_555 1_555
C29_7 C28_7 1_555 1_555
C30_7 C29_7 1_555 1_555
C32_7 C30_7 1_555 1_555
H15_7 C32_7 1_555 1_555
C37_7 C36_7 1_555 1_555
C38_7 C37_7 1_555 1_555
C39_7 C38_7 1_555 1_555
C41_7 C32_7 1_555 1_555
H18_7 C41_7 1_555 1_555
H19_7 C43_7 1_555 1_555
C44_7 C27_7 1_555 1_555
H20_7 C44_7 1_555 1_555
C45_7 C30_7 1_555 1_555
H21_7 C45_7 1_555 1_555
H22_7 C46_7 1_555 1_555
C47_7 C36_7 1_555 1_555
H23_7 C47_7 1_555 1_555
C48_7 C39_7 1_555 1_555
H24_7 C48_7 1_555 1_555
C39_7 C41_7 1_555 1_555
C43_7 C44_7 1_555 1_555
C45_7 C48_7 1_555 1_555
C46_7 C47_7 1_555 1_555
Zr1_4 O1_7 1_555 1_555
O1_7 C7_15 1_555 1_555
C1_15 H1_15 1_555 1_555
O2_7 Zr1_4 1_555 1_555
C2_15 C1_15 1_555 1_555
H2_15 C2_15 1_555 1_555
C3_15 C2_15 1_555 1_555
O3_7 Zr1_4 1_555 1_555
C4_15 C3_15 1_555 1_555
C5_15 C4_15 1_555 1_555
C6_15 C5_15 1_555 1_555
C7_15 C9_15 1_555 1_555
C8_15 C6_15 1_555 1_555
H3_15 C8_15 1_555 1_555
C9_15 C1_15 1_555 1_555
C10_15 H4_15 1_555 1_555
C11_15 C10_15 1_555 1_555
H5_15 C11_15 1_555 1_555
C12_15 C11_15 1_555 1_555
C13_15 C12_15 1_555 1_555
C14_15 C13_15 1_555 1_555
C15_15 C14_15 1_555 1_555
C17_15 C8_15 1_555 1_555
H6_15 C17_15 1_555 1_555
O5_15 C7_15 1_555 1_555
C19_15 C9_15 1_555 1_555
H7_15 C19_15 1_555 1_555
C20_15 C3_15 1_555 1_555
H8_15 C20_15 1_555 1_555
C21_15 C6_15 1_555 1_555
H9_15 C21_15 1_555 1_555
C24_15 C15_15 1_555 1_555
H12_15 C24_15 1_555 1_555
Zr5_4 O3_7 1_555 1_555
O7_7 Zr5_4 1_555 1_555
O8_7 Zr5_4 1_555 1_555
Zr3_4 O8_7 1_555 1_555
O9_7 C31_7 1_555 1_555
C25_7 H13_7 1_555 1_555
C26_7 C25_7 1_555 1_555
H14_7 C26_7 1_555 1_555
C31_7 C33_7 1_555 1_555
C33_7 C25_7 1_555 1_555
O11_7 Zr1_4 1_555 1_555
O13_7 Zr1_4 1_555 1_555
C55_11 O13_7 1_555 1_555
O15_7 Zr5_4 1_555 1_555
C67_11 C57_11 1_555 1_555
H31_11 C67_11 1_555 1_555
H32_11 C68_11 1_555 1_555
Zr7_2 O7_7 1_555 1_555
Zr10_7 O2_7 1_555 1_555
Zr11_4 O2_7 1_555 1_555
O17_7 Zr5_4 1_555 1_555
O18_7 Zr3_4 1_555 1_555
O19_7 Zr5_4 1_555 1_555
O20_4 Zr3_4 1_555 1_555
O21_4 Zr1_4 1_555 1_555
O22_7 Zr3_4 1_555 1_555
O24_7 Zr3_4 1_555 1_555
O25_7 Zr3_4 1_555 1_555
O26_7 Zr1_4 1_555 1_555
O27_11 Zr1_4 1_555 1_555
O3_7 Zr10_7 1_555 1_555
C15_15 C17_15 1_555 1_555
O5_15 Zr11_4 1_555 1_555
C19_15 C20_15 1_555 1_555
C21_15 C24_15 1_555 1_555
Zr5_4 O26_7 1_555 1_555
O7_7 Zr10_7 1_555 1_555
O8_7 Zr7_2 1_555 1_555
Zr3_4 O26_7 1_555 1_555
Zr3_4 O27_11 1_555 1_555
O9_7 Zr10_7 1_555 1_555
C31_7 O11_7 1_555 1_555
C55_11 C57_11 1_555 1_555
C55_11 O15_7 1_555 1_555
C67_11 C68_11 1_555 1_555
Zr7_2 O25_7 1_555 1_555
Zr11_4 O25_7 1_555 1_555
Zr11_4 O27_11 1_555 1_555
O10_4 C40_7 1_555 1_555
C34_7 H16_7 1_555 1_555
C35_7 C34_7 1_555 1_555
H17_7 C35_7 1_555 1_555
C40_7 C42_7 1_555 1_555
C42_7 C34_7 1_555 1_555
O12_4 C40_7 1_555 1_555
Zr4_4 O10_4 1_555 1_555
Zr6_4 O12_4 1_555 1_555
O4_15 C16_15 1_555 1_555
C16_15 C18_15 1_555 1_555
O6_15 C16_15 1_555 1_555
C22_15 C18_15 1_555 1_555
H10_15 C22_15 1_555 1_555
H11_15 C23_15 1_555 1_555
Zr9_4 O6_15 1_555 1_555
Zr12_4 O4_15 1_555 1_555
C22_15 C23_15 1_555 1_555
C4_16 C3_16 1_555 1_555
C5_16 C4_16 1_555 1_555
C6_16 C5_16 1_555 1_555
C8_16 C6_16 1_555 1_555
H3_16 C8_16 1_555 1_555
O4_16 C16_16 1_555 1_555
C10_16 H4_16 1_555 1_555
C11_16 C10_16 1_555 1_555
H5_16 C11_16 1_555 1_555
C12_16 C11_16 1_555 1_555
C13_16 C12_16 1_555 1_555
C14_16 C13_16 1_555 1_555
C15_16 C14_16 1_555 1_555
C16_16 C18_16 1_555 1_555
C17_16 C8_16 1_555 1_555
H6_16 C17_16 1_555 1_555
C18_16 C10_16 1_555 1_555
C21_16 C6_16 1_555 1_555
H9_16 C21_16 1_555 1_555
O6_16 C16_16 1_555 1_555
C22_16 C18_16 1_555 1_555
H10_16 C22_16 1_555 1_555
C23_16 C12_16 1_555 1_555
H11_16 C23_16 1_555 1_555
C24_16 C15_16 1_555 1_555
H12_16 C24_16 1_555 1_555
Zr9_3 O6_16 1_555 1_555
Zr12_3 O4_16 1_555 1_555
C15_16 C17_16 1_555 1_555
C21_16 C24_16 1_555 1_555
C22_16 C23_16 1_555 1_555
C1_16 H1_16 1_555 1_555
C2_16 C1_16 1_555 1_555
H2_16 C2_16 1_555 1_555
H7_16 C19_16 1_555 1_555
H8_16 C20_16 1_555 1_555
C25_8 H13_8 1_555 1_555
C26_8 C25_8 1_555 1_555
H14_8 C26_8 1_555 1_555
C27_8 C26_8 1_555 1_555
C28_8 C27_8 1_555 1_555
C29_8 C28_8 1_555 1_555
C30_8 C29_8 1_555 1_555
C32_8 C30_8 1_555 1_555
H15_8 C32_8 1_555 1_555
O21_4 C40_8 1_555 1_555
C34_8 H16_8 1_555 1_555
C35_8 C34_8 1_555 1_555
H17_8 C35_8 1_555 1_555
C36_8 C35_8 1_555 1_555
C37_8 C36_8 1_555 1_555
C38_8 C37_8 1_555 1_555
C39_8 C38_8 1_555 1_555
C40_8 C42_8 1_555 1_555
C41_8 C32_8 1_555 1_555
H18_8 C41_8 1_555 1_555
C42_8 C34_8 1_555 1_555
C45_8 C30_8 1_555 1_555
H21_8 C45_8 1_555 1_555
O20_4 C40_8 1_555 1_555
C46_8 C42_8 1_555 1_555
H22_8 C46_8 1_555 1_555
C47_8 C36_8 1_555 1_555
H23_8 C47_8 1_555 1_555
C48_8 C39_8 1_555 1_555
H24_8 C48_8 1_555 1_555
C52_12 C51_12 1_555 1_555
C53_12 C52_12 1_555 1_555
C54_12 C53_12 1_555 1_555
C56_12 C54_12 1_555 1_555
H27_12 C56_12 1_555 1_555
O23_3 C64_12 1_555 1_555
C58_12 H28_12 1_555 1_555
C59_12 C58_12 1_555 1_555
H29_12 C59_12 1_555 1_555
C60_12 C59_12 1_555 1_555
C61_12 C60_12 1_555 1_555
C62_12 C61_12 1_555 1_555
C63_12 C62_12 1_555 1_555
C64_12 C66_12 1_555 1_555
C65_12 C56_12 1_555 1_555
H30_12 C65_12 1_555 1_555
C66_12 C58_12 1_555 1_555
H31_12 C67_12 1_555 1_555
C68_12 C51_12 1_555 1_555
H32_12 C68_12 1_555 1_555
C69_12 C54_12 1_555 1_555
H33_12 C69_12 1_555 1_555
O16_12 C64_12 1_555 1_555
C70_12 C66_12 1_555 1_555
H34_12 C70_12 1_555 1_555
C71_12 C60_12 1_555 1_555
H35_12 C71_12 1_555 1_555
C72_12 C63_12 1_555 1_555
H36_12 C72_12 1_555 1_555
Zr9_3 O16_12 1_555 1_555
C19_16 C20_16 1_555 1_555
C39_8 C41_8 1_555 1_555
C45_8 C48_8 1_555 1_555
C46_8 C47_8 1_555 1_555
C63_12 C65_12 1_555 1_555
C67_12 C68_12 1_555 1_555
C69_12 C72_12 1_555 1_555
C70_12 C71_12 1_555 1_555
Zr4_4 O1_8 1_555 1_555
O1_8 C7_16 1_555 1_555
O2_8 Zr4_4 1_555 1_555
O3_8 Zr4_4 1_555 1_555
C7_16 C9_16 1_555 1_555
O5_16 C7_16 1_555 1_555
Zr5_3 O3_8 1_555 1_555
O7_8 Zr5_3 1_555 1_555
O8_8 Zr5_3 1_555 1_555
Zr6_4 O8_8 1_555 1_555
O9_8 C31_8 1_555 1_555
C31_8 C33_8 1_555 1_555
O11_8 Zr4_4 1_555 1_555
C43_8 C33_8 1_555 1_555
H19_8 C43_8 1_555 1_555
H20_8 C44_8 1_555 1_555
O13_8 Zr4_4 1_555 1_555
C49_12 H25_12 1_555 1_555
C50_12 C49_12 1_555 1_555
H26_12 C50_12 1_555 1_555
C55_12 O13_8 1_555 1_555
C57_12 C49_12 1_555 1_555
O15_8 Zr5_3 1_555 1_555
Zr8_2 O7_8 1_555 1_555
Zr10_8 O2_8 1_555 1_555
Zr11_3 O2_8 1_555 1_555
O17_8 Zr5_3 1_555 1_555
O18_8 Zr6_4 1_555 1_555
O19_8 Zr5_3 1_555 1_555
O22_8 Zr6_4 1_555 1_555
O24_8 Zr6_4 1_555 1_555
O25_8 Zr6_4 1_555 1_555
O26_8 Zr4_4 1_555 1_555
O27_12 Zr4_4 1_555 1_555
O3_8 Zr10_8 1_555 1_555
O5_16 Zr11_3 1_555 1_555
Zr5_3 O26_8 1_555 1_555
O7_8 Zr10_8 1_555 1_555
O8_8 Zr8_2 1_555 1_555
Zr6_4 O26_8 1_555 1_555
Zr6_4 O27_12 1_555 1_555
O9_8 Zr10_8 1_555 1_555
C31_8 O11_8 1_555 1_555
C43_8 C44_8 1_555 1_555
C55_12 C57_12 1_555 1_555
C55_12 O15_8 1_555 1_555
Zr8_2 O25_8 1_555 1_555
Zr11_3 O25_8 1_555 1_555
Zr11_3 O27_12 1_555 1_555
C4_17 C3_17 1_555 1_555
C5_17 C4_17 1_555 1_555
C6_17 C5_17 1_555 1_555
C8_17 C6_17 1_555 1_555
H3_17 C8_17 1_555 1_555
O4_17 C16_17 1_555 1_555
C10_17 H4_17 1_555 1_555
C11_17 C10_17 1_555 1_555
H5_17 C11_17 1_555 1_555
C12_17 C11_17 1_555 1_555
C13_17 C12_17 1_555 1_555
C14_17 C13_17 1_555 1_555
C15_17 C14_17 1_555 1_555
C16_17 C18_17 1_555 1_555
C17_17 C8_17 1_555 1_555
H6_17 C17_17 1_555 1_555
C18_17 C10_17 1_555 1_555
C21_17 C6_17 1_555 1_555
H9_17 C21_17 1_555 1_555
O6_17 C16_17 1_555 1_555
C22_17 C18_17 1_555 1_555
H10_17 C22_17 1_555 1_555
C23_17 C12_17 1_555 1_555
H11_17 C23_17 1_555 1_555
C24_17 C15_17 1_555 1_555
H12_17 C24_17 1_555 1_555
Zr12_3 O6_17 1_555 1_555
Zr10_5 O4_17 1_555 1_555
C15_17 C17_17 1_555 1_555
C21_17 C24_17 1_555 1_555
C22_17 C23_17 1_555 1_555
H7_17 C19_17 1_555 1_555
H8_17 C20_17 1_555 1_555
C52_13 C51_13 1_555 1_555
C53_13 C52_13 1_555 1_555
C54_13 C53_13 1_555 1_555
C56_13 C54_13 1_555 1_555
H27_13 C56_13 1_555 1_555
O24_5 C64_13 1_555 1_555
C58_13 H28_13 1_555 1_555
C59_13 C58_13 1_555 1_555
H29_13 C59_13 1_555 1_555
C60_13 C59_13 1_555 1_555
C61_13 C60_13 1_555 1_555
C62_13 C61_13 1_555 1_555
C63_13 C62_13 1_555 1_555
C64_13 C66_13 1_555 1_555
C65_13 C56_13 1_555 1_555
H30_13 C65_13 1_555 1_555
C66_13 C58_13 1_555 1_555
H31_13 C67_13 1_555 1_555
C68_13 C51_13 1_555 1_555
H32_13 C68_13 1_555 1_555
C69_13 C54_13 1_555 1_555
H33_13 C69_13 1_555 1_555
O16_13 C64_13 1_555 1_555
C70_13 C66_13 1_555 1_555
H34_13 C70_13 1_555 1_555
C71_13 C60_13 1_555 1_555
H35_13 C71_13 1_555 1_555
C72_13 C63_13 1_555 1_555
H36_13 C72_13 1_555 1_555
Zr12_3 O16_13 1_555 1_555
C19_17 C20_17 1_555 1_555
C63_13 C65_13 1_555 1_555
C67_13 C68_13 1_555 1_555
C69_13 C72_13 1_555 1_555
C70_13 C71_13 1_555 1_555
C1_17 H1_17 1_555 1_555
C2_17 C1_17 1_555 1_555
H2_17 C2_17 1_555 1_555
O17_7 C7_17 1_555 1_555
C7_17 C9_17 1_555 1_555
O5_17 C7_17 1_555 1_555
C49_13 H25_13 1_555 1_555
C50_13 C49_13 1_555 1_555
H26_13 C50_13 1_555 1_555
C55_13 O19_7 1_555 1_555
C57_13 C49_13 1_555 1_555
O5_17 Zr10_7 1_555 1_555
C55_13 C57_13 1_555 1_555
C55_13 O22_7 1_555 1_555
C49_14 H25_14 1_555 1_555
C50_14 C49_14 1_555 1_555
H26_14 C50_14 1_555 1_555
C51_14 C50_14 1_555 1_555
C52_14 C51_14 1_555 1_555
C53_14 C52_14 1_555 1_555
C54_14 C53_14 1_555 1_555
C56_14 C54_14 1_555 1_555
H27_14 C56_14 1_555 1_555
C58_14 H28_14 1_555 1_555
C59_14 C58_14 1_555 1_555
H29_14 C59_14 1_555 1_555
C60_14 C59_14 1_555 1_555
C61_14 C60_14 1_555 1_555
C62_14 C61_14 1_555 1_555
C63_14 C62_14 1_555 1_555
C65_14 C56_14 1_555 1_555
H30_14 C65_14 1_555 1_555
C69_14 C54_14 1_555 1_555
H33_14 C69_14 1_555 1_555
C72_14 C63_14 1_555 1_555
H36_14 C72_14 1_555 1_555
C63_14 C65_14 1_555 1_555
C69_14 C72_14 1_555 1_555
O17_6 C7_18 1_555 1_555
C1_18 H1_18 1_555 1_555
C2_18 C1_18 1_555 1_555
H2_18 C2_18 1_555 1_555
C3_18 C2_18 1_555 1_555
C4_18 C3_18 1_555 1_555
C5_18 C4_18 1_555 1_555
C6_18 C5_18 1_555 1_555
C7_18 C9_18 1_555 1_555
C8_18 C6_18 1_555 1_555
H3_18 C8_18 1_555 1_555
C9_18 C1_18 1_555 1_555
C10_18 H4_18 1_555 1_555
C11_18 C10_18 1_555 1_555
H5_18 C11_18 1_555 1_555
C12_18 C11_18 1_555 1_555
C13_18 C12_18 1_555 1_555
C14_18 C13_18 1_555 1_555
C15_18 C14_18 1_555 1_555
C17_18 C8_18 1_555 1_555
H6_18 C17_18 1_555 1_555
O5_18 C7_18 1_555 1_555
C19_18 C9_18 1_555 1_555
H7_18 C19_18 1_555 1_555
C20_18 C3_18 1_555 1_555
H8_18 C20_18 1_555 1_555
C21_18 C6_18 1_555 1_555
H9_18 C21_18 1_555 1_555
C24_18 C15_18 1_555 1_555
H12_18 C24_18 1_555 1_555
C55_14 O19_6 1_555 1_555
C67_14 C57_14 1_555 1_555
H31_14 C67_14 1_555 1_555
H32_14 C68_14 1_555 1_555
C15_18 C17_18 1_555 1_555
O5_18 Zr10_6 1_555 1_555
C19_18 C20_18 1_555 1_555
C21_18 C24_18 1_555 1_555
C55_14 C57_14 1_555 1_555
C55_14 O22_6 1_555 1_555
C67_14 C68_14 1_555 1_555
O24_8 C64_14 1_555 1_555
C64_14 C66_14 1_555 1_555
O16_14 C64_14 1_555 1_555
C70_14 C66_14 1_555 1_555
H34_14 C70_14 1_555 1_555
H35_14 C71_14 1_555 1_555
Zr11_3 O16_14 1_555 1_555
C70_14 C71_14 1_555 1_555
O4_18 C16_18 1_555 1_555
C16_18 C18_18 1_555 1_555
O6_18 C16_18 1_555 1_555
C22_18 C18_18 1_555 1_555
H10_18 C22_18 1_555 1_555
H11_18 C23_18 1_555 1_555
Zr11_3 O6_18 1_555 1_555
Zr10_8 O4_18 1_555 1_555
C22_18 C23_18 1_555 1_555
O17_8 C7_19 1_555 1_555
C1_19 H1_19 1_555 1_555
C2_19 C1_19 1_555 1_555
H2_19 C2_19 1_555 1_555
C3_19 C2_19 1_555 1_555
C4_19 C3_19 1_555 1_555
C5_19 C4_19 1_555 1_555
C6_19 C5_19 1_555 1_555
C7_19 C9_19 1_555 1_555
C8_19 C6_19 1_555 1_555
H3_19 C8_19 1_555 1_555
C9_19 C1_19 1_555 1_555
O4_19 C16_19 1_555 1_555
C10_19 H4_19 1_555 1_555
C11_19 C10_19 1_555 1_555
H5_19 C11_19 1_555 1_555
C12_19 C11_19 1_555 1_555
C13_19 C12_19 1_555 1_555
C14_19 C13_19 1_555 1_555
C15_19 C14_19 1_555 1_555
C16_19 C18_19 1_555 1_555
C17_19 C8_19 1_555 1_555
H6_19 C17_19 1_555 1_555
C18_19 C10_19 1_555 1_555
O5_19 C7_19 1_555 1_555
C19_19 C9_19 1_555 1_555
H7_19 C19_19 1_555 1_555
C20_19 C3_19 1_555 1_555
H8_19 C20_19 1_555 1_555
C21_19 C6_19 1_555 1_555
H9_19 C21_19 1_555 1_555
O6_19 C16_19 1_555 1_555
C22_19 C18_19 1_555 1_555
H10_19 C22_19 1_555 1_555
C23_19 C12_19 1_555 1_555
H11_19 C23_19 1_555 1_555
C24_19 C15_19 1_555 1_555
H12_19 C24_19 1_555 1_555
C49_15 H25_15 1_555 1_555
C50_15 C49_15 1_555 1_555
H26_15 C50_15 1_555 1_555
C51_15 C50_15 1_555 1_555
C52_15 C51_15 1_555 1_555
C53_15 C52_15 1_555 1_555
C54_15 C53_15 1_555 1_555
C55_15 O19_8 1_555 1_555
C56_15 C54_15 1_555 1_555
H27_15 C56_15 1_555 1_555
C57_15 C49_15 1_555 1_555
C61_15 C60_15 1_555 1_555
C62_15 C61_15 1_555 1_555
C63_15 C62_15 1_555 1_555
C65_15 C56_15 1_555 1_555
H30_15 C65_15 1_555 1_555
C67_15 C57_15 1_555 1_555
H31_15 C67_15 1_555 1_555
C68_15 C51_15 1_555 1_555
H32_15 C68_15 1_555 1_555
C69_15 C54_15 1_555 1_555
H33_15 C69_15 1_555 1_555
H34_15 C70_15 1_555 1_555
C71_15 C60_15 1_555 1_555
H35_15 C71_15 1_555 1_555
C72_15 C63_15 1_555 1_555
H36_15 C72_15 1_555 1_555
Zr12_4 O6_19 1_555 1_555
Zr10_6 O4_19 1_555 1_555
C15_19 C17_19 1_555 1_555
O5_19 Zr10_8 1_555 1_555
C19_19 C20_19 1_555 1_555
C21_19 C24_19 1_555 1_555
C22_19 C23_19 1_555 1_555
C55_15 C57_15 1_555 1_555
C55_15 O22_8 1_555 1_555
C63_15 C65_15 1_555 1_555
C67_15 C68_15 1_555 1_555
C69_15 C72_15 1_555 1_555
C70_15 C71_15 1_555 1_555
O24_6 C64_15 1_555 1_555
C58_15 H28_15 1_555 1_555
C59_15 C58_15 1_555 1_555
H29_15 C59_15 1_555 1_555
C64_15 C66_15 1_555 1_555
C66_15 C58_15 1_555 1_555
O16_15 C64_15 1_555 1_555
Zr12_4 O16_15 1_555 1_555
O17_5 C7_20 1_555 1_555
C1_20 H1_20 1_555 1_555
C2_20 C1_20 1_555 1_555
H2_20 C2_20 1_555 1_555
C3_20 C2_20 1_555 1_555
C4_20 C3_20 1_555 1_555
C5_20 C4_20 1_555 1_555
C6_20 C5_20 1_555 1_555
C7_20 C9_20 1_555 1_555
C8_20 C6_20 1_555 1_555
H3_20 C8_20 1_555 1_555
C9_20 C1_20 1_555 1_555
C13_20 C12_20 1_555 1_555
C14_20 C13_20 1_555 1_555
C15_20 C14_20 1_555 1_555
C17_20 C8_20 1_555 1_555
H6_20 C17_20 1_555 1_555
O5_20 C7_20 1_555 1_555
C19_20 C9_20 1_555 1_555
H7_20 C19_20 1_555 1_555
C20_20 C3_20 1_555 1_555
H8_20 C20_20 1_555 1_555
C21_20 C6_20 1_555 1_555
H9_20 C21_20 1_555 1_555
H10_20 C22_20 1_555 1_555
C23_20 C12_20 1_555 1_555
H11_20 C23_20 1_555 1_555
C24_20 C15_20 1_555 1_555
H12_20 C24_20 1_555 1_555
C49_16 H25_16 1_555 1_555
C50_16 C49_16 1_555 1_555
H26_16 C50_16 1_555 1_555
C51_16 C50_16 1_555 1_555
C52_16 C51_16 1_555 1_555
C53_16 C52_16 1_555 1_555
C54_16 C53_16 1_555 1_555
C55_16 O19_5 1_555 1_555
C56_16 C54_16 1_555 1_555
H27_16 C56_16 1_555 1_555
C57_16 C49_16 1_555 1_555
O24_7 C64_16 1_555 1_555
C58_16 H28_16 1_555 1_555
C59_16 C58_16 1_555 1_555
H29_16 C59_16 1_555 1_555
C60_16 C59_16 1_555 1_555
C61_16 C60_16 1_555 1_555
C62_16 C61_16 1_555 1_555
C63_16 C62_16 1_555 1_555
C64_16 C66_16 1_555 1_555
C65_16 C56_16 1_555 1_555
H30_16 C65_16 1_555 1_555
C66_16 C58_16 1_555 1_555
C67_16 C57_16 1_555 1_555
H31_16 C67_16 1_555 1_555
C68_16 C51_16 1_555 1_555
H32_16 C68_16 1_555 1_555
C69_16 C54_16 1_555 1_555
H33_16 C69_16 1_555 1_555
O16_16 C64_16 1_555 1_555
C70_16 C66_16 1_555 1_555
H34_16 C70_16 1_555 1_555
C71_16 C60_16 1_555 1_555
H35_16 C71_16 1_555 1_555
C72_16 C63_16 1_555 1_555
H36_16 C72_16 1_555 1_555
Zr11_4 O16_16 1_555 1_555
C15_20 C17_20 1_555 1_555
O5_20 Zr10_5 1_555 1_555
C19_20 C20_20 1_555 1_555
C21_20 C24_20 1_555 1_555
C22_20 C23_20 1_555 1_555
C55_16 C57_16 1_555 1_555
C55_16 O22_5 1_555 1_555
C63_16 C65_16 1_555 1_555
C67_16 C68_16 1_555 1_555
C69_16 C72_16 1_555 1_555
C70_16 C71_16 1_555 1_555
O4_20 C16_20 1_555 1_555
C10_20 H4_20 1_555 1_555
C11_20 C10_20 1_555 1_555
H5_20 C11_20 1_555 1_555
C16_20 C18_20 1_555 1_555
C18_20 C10_20 1_555 1_555
O6_20 C16_20 1_555 1_555
Zr11_4 O6_20 1_555 1_555
Zr10_7 O4_20 1_555 1_555
O18_8 C7_21 1_555 1_555
C1_21 H1_21 1_555 1_555
C2_21 C1_21 1_555 1_555
H2_21 C2_21 1_555 1_555
C3_21 C2_21 1_555 1_555
C4_21 C3_21 1_555 1_555
C5_21 C4_21 1_555 1_555
C6_21 C5_21 1_555 1_555
C7_21 C9_21 1_555 1_555
C8_21 C6_21 1_555 1_555
H3_21 C8_21 1_555 1_555
C9_21 C1_21 1_555 1_555
C10_21 H4_21 1_555 1_555
C11_21 C10_21 1_555 1_555
H5_21 C11_21 1_555 1_555
C12_21 C11_21 1_555 1_555
C13_21 C12_21 1_555 1_555
C14_21 C13_21 1_555 1_555
C15_21 C14_21 1_555 1_555
C17_21 C8_21 1_555 1_555
H6_21 C17_21 1_555 1_555
O5_21 C7_21 1_555 1_555
C19_21 C9_21 1_555 1_555
H7_21 C19_21 1_555 1_555
C20_21 C3_21 1_555 1_555
H8_21 C20_21 1_555 1_555
C21_21 C6_21 1_555 1_555
H9_21 C21_21 1_555 1_555
C24_21 C15_21 1_555 1_555
H12_21 C24_21 1_555 1_555
C15_21 C17_21 1_555 1_555
O5_21 Zr8_2 1_555 1_555
C19_21 C20_21 1_555 1_555
C21_21 C24_21 1_555 1_555
O4_21 C16_21 1_555 1_555
C16_21 C18_21 1_555 1_555
O6_21 C16_21 1_555 1_555
C22_21 C18_21 1_555 1_555
H10_21 C22_21 1_555 1_555
H11_21 C23_21 1_555 1_555
Zr10_7 O6_21 1_555 1_555
Zr7_2 O4_21 1_555 1_555
C22_21 C23_21 1_555 1_555
C4_22 C3_22 1_555 1_555
C5_22 C4_22 1_555 1_555
C6_22 C5_22 1_555 1_555
C8_22 C6_22 1_555 1_555
H3_22 C8_22 1_555 1_555
O4_22 C16_22 1_555 1_555
C10_22 H4_22 1_555 1_555
C11_22 C10_22 1_555 1_555
H5_22 C11_22 1_555 1_555
C12_22 C11_22 1_555 1_555
C13_22 C12_22 1_555 1_555
C14_22 C13_22 1_555 1_555
C15_22 C14_22 1_555 1_555
C16_22 C18_22 1_555 1_555
C17_22 C8_22 1_555 1_555
H6_22 C17_22 1_555 1_555
C18_22 C10_22 1_555 1_555
C21_22 C6_22 1_555 1_555
H9_22 C21_22 1_555 1_555
O6_22 C16_22 1_555 1_555
C22_22 C18_22 1_555 1_555
H10_22 C22_22 1_555 1_555
C23_22 C12_22 1_555 1_555
H11_22 C23_22 1_555 1_555
C24_22 C15_22 1_555 1_555
H12_22 C24_22 1_555 1_555
Zr10_5 O6_22 1_555 1_555
Zr9_3 O4_22 1_555 1_555
C15_22 C17_22 1_555 1_555
C21_22 C24_22 1_555 1_555
C22_22 C23_22 1_555 1_555
C1_22 H1_22 1_555 1_555
C2_22 C1_22 1_555 1_555
H2_22 C2_22 1_555 1_555
H7_22 C19_22 1_555 1_555
H8_22 C20_22 1_555 1_555
C19_22 C20_22 1_555 1_555
O18_6 C7_22 1_555 1_555
C7_22 C9_22 1_555 1_555
O5_22 C7_22 1_555 1_555
O5_22 Zr9_4 1_555 1_555
O18_5 C7_23 1_555 1_555
C1_23 H1_23 1_555 1_555
C2_23 C1_23 1_555 1_555
H2_23 C2_23 1_555 1_555
C3_23 C2_23 1_555 1_555
C4_23 C3_23 1_555 1_555
C5_23 C4_23 1_555 1_555
C6_23 C5_23 1_555 1_555
C7_23 C9_23 1_555 1_555
C8_23 C6_23 1_555 1_555
H3_23 C8_23 1_555 1_555
C9_23 C1_23 1_555 1_555
C13_23 C12_23 1_555 1_555
C14_23 C13_23 1_555 1_555
C15_23 C14_23 1_555 1_555
C17_23 C8_23 1_555 1_555
H6_23 C17_23 1_555 1_555
O5_23 C7_23 1_555 1_555
C19_23 C9_23 1_555 1_555
H7_23 C19_23 1_555 1_555
C20_23 C3_23 1_555 1_555
H8_23 C20_23 1_555 1_555
C21_23 C6_23 1_555 1_555
H9_23 C21_23 1_555 1_555
H10_23 C22_23 1_555 1_555
C23_23 C12_23 1_555 1_555
H11_23 C23_23 1_555 1_555
C24_23 C15_23 1_555 1_555
H12_23 C24_23 1_555 1_555
C15_23 C17_23 1_555 1_555
O5_23 Zr9_3 1_555 1_555
C19_23 C20_23 1_555 1_555
C21_23 C24_23 1_555 1_555
C22_23 C23_23 1_555 1_555
O4_23 C16_23 1_555 1_555
C10_23 H4_23 1_555 1_555
C11_23 C10_23 1_555 1_555
H5_23 C11_23 1_555 1_555
C16_23 C18_23 1_555 1_555
C18_23 C10_23 1_555 1_555
O6_23 C16_23 1_555 1_555
Zr10_6 O6_23 1_555 1_555
Zr9_4 O4_23 1_555 1_555
O18_7 C7_24 1_555 1_555
C1_24 H1_24 1_555 1_555
C2_24 C1_24 1_555 1_555
H2_24 C2_24 1_555 1_555
C3_24 C2_24 1_555 1_555
C4_24 C3_24 1_555 1_555
C5_24 C4_24 1_555 1_555
C6_24 C5_24 1_555 1_555
C7_24 C9_24 1_555 1_555
C8_24 C6_24 1_555 1_555
H3_24 C8_24 1_555 1_555
C9_24 C1_24 1_555 1_555
O4_24 C16_24 1_555 1_555
C10_24 H4_24 1_555 1_555
C11_24 C10_24 1_555 1_555
H5_24 C11_24 1_555 1_555
C12_24 C11_24 1_555 1_555
C13_24 C12_24 1_555 1_555
C14_24 C13_24 1_555 1_555
C15_24 C14_24 1_555 1_555
C16_24 C18_24 1_555 1_555
C17_24 C8_24 1_555 1_555
H6_24 C17_24 1_555 1_555
C18_24 C10_24 1_555 1_555
O5_24 C7_24 1_555 1_555
C19_24 C9_24 1_555 1_555
H7_24 C19_24 1_555 1_555
C20_24 C3_24 1_555 1_555
H8_24 C20_24 1_555 1_555
C21_24 C6_24 1_555 1_555
H9_24 C21_24 1_555 1_555
O6_24 C16_24 1_555 1_555
C22_24 C18_24 1_555 1_555
H10_24 C22_24 1_555 1_555
C23_24 C12_24 1_555 1_555
H11_24 C23_24 1_555 1_555
C24_24 C15_24 1_555 1_555
H12_24 C24_24 1_555 1_555
Zr10_8 O6_24 1_555 1_555
Zr8_2 O4_24 1_555 1_555
C15_24 C17_24 1_555 1_555
O5_24 Zr7_2 1_555 1_555
C19_24 C20_24 1_555 1_555
C21_24 C24_24 1_555 1_555
C22_24 C23_24 1_555 1_555
O3_9 Zr9_4 1_555 1_555
Zr12_4 O3_9 1_555 1_555
O3_9 Zr10_6 1_555 1_555
O3_10 Zr9_3 1_555 1_555
Zr12_3 O3_10 1_555 1_555
O3_10 Zr10_5 1_555 1_555
O3_11 Zr8_2 1_555 1_555
Zr11_3 O3_11 1_555 1_555
O3_11 Zr10_8 1_555 1_555
O3_12 Zr7_2 1_555 1_555
Zr11_4 O3_12 1_555 1_555
O3_12 Zr10_7 1_555 1_555

#END
