
###############################################################################
#
# This file contains modified crystal structure data generated from the
# MOF subset of the Cambridge Structural Database (CSD) v543 
# hosted by the Cambridge Crystallographic Data Centre (CCDC).
#
# This work is licensed under the Creative Commons
# Attribution-NonCommercial-ShareAlike 4.0 International License.
# To view a copy of this license, visit
# http://creativecommons.org/licenses/by-nc-sa/4.0/
# or send a letter to
# Creative Commons, PO Box 1866, Mountain View, CA 94042, USA.
#
# CIF created using the CSD Python API on 29 September 2022
# The structure has been converted into the P1 space group
# The structure has a 3D framework
# The original CSD entry WUPVEK is in the monoclinic crystal system
# The framework has been calculated to contain at least 10.0% void space
# The void calculation uses a probe of radius 1.32A, grid spacing 0.4
#
###############################################################################

data_WUPVEK
_chemical_formula_moiety         '(C48 H40 Bi4 N4 O26)n'
_symmetry_cell_setting           triclinic
_symmetry_space_group_name_H-M   'P 1'
_symmetry_Int_Tables_number      1
_space_group_name_Hall           'P 1'
loop_
_symmetry_equiv_pos_site_id
_symmetry_equiv_pos_as_xyz
1 x,y,z
_cell_length_a                   10.137(2)
_cell_length_b                   15.017(3)
_cell_length_c                   11.422(3)
_cell_angle_alpha                90
_cell_angle_beta                 99.441(2)
_cell_angle_gamma                90
_cell_volume                     1715.19
loop_
_atom_site_label
_atom_site_type_symbol
_atom_site_fract_x
_atom_site_fract_y
_atom_site_fract_z
Bi5 Bi 0.10874(4) 0.55265(2) 0.89896(4)
O4 O 0.5916(13) 0.0220(8) 0.2066(10)
C10 C 0.496(3) 0.0609(12) 0.1571(18)
H4 H 0.4169 0.0502 0.1859
N1 N 0.4866(19) 0.1173(11) 0.0670(13)
C11 C 0.364(3) 0.1586(17) 0.011(2)
H5 H 0.3474 0.2108 0.0552
H6 H 0.2913 0.1175 0.0102
C12 C 0.603(3) 0.138(2) 0.016(3)
H9 H 0.6602 0.0868 0.0194
H10 H 0.6511 0.1863 0.0587
Bi3 Bi 0.39126(4) 0.05265(2) 0.60104(4)
O8 O 0.5454(8) 0.1313(5) 0.4355(8)
O11 O 0.6631(8) 0.0157(6) 0.6281(7)
Bi2 Bi 0.89126(4) 0.44735(2) 0.10104(4)
Bi1 Bi 0.60874(4) 0.94735(2) 0.39896(4)
C1 C 0.5646(11) 0.7441(8) 0.6642(10)
O1 O 0.4546(8) 0.8687(5) 0.5645(8)
O2 O 0.3561(9) 0.5510(6) 0.9151(10)
O3 O 0.2278(7) 0.6397(5) 0.7929(7)
O5 O 0.6480(8) 0.8250(6) 0.5156(8)
C2 C 0.5526(12) 0.8174(8) 0.5757(11)
C3 C 0.6878(11) 0.7023(8) 0.7029(11)
H1 H 0.7636 0.7219 0.6744
C4 C 0.6985(10) 0.6327(8) 0.7826(10)
C5 C 0.4509(11) 0.7143(8) 0.7082(11)
H2 H 0.3683 0.7411 0.6834
C6 C 0.5875(11) 0.6038(8) 0.8265(10)
H3 H 0.5952 0.5572 0.8810
C7 C 0.4632(11) 0.6440(8) 0.7898(11)
C8 C 0.8303(11) 0.5895(8) 0.8210(10)
O6 O 0.8369(8) 0.5157(6) 0.8719(7)
O7 O 0.9354(8) 0.6315(6) 0.7985(8)
C9 C 0.3436(11) 0.6084(8) 0.8354(11)
O9 O 0.8561(9) 0.9490(6) 0.4151(10)
O10 O 0.7278(7) 0.8603(5) 0.2929(7)
O12 O 0.3369(8) 0.9843(6) 0.3719(7)
O13 O 0.4354(8) 0.8685(6) 0.2985(8)
C10_2 C 0.004(3) 0.5609(12) 0.3429(18)
H4_2 H 0.0831 0.5502 0.3141
N1_2 N 0.0134(19) 0.6173(11) 0.4330(13)
C11_2 C 0.136(3) 0.6586(17) 0.489(2)
H5_2 H 0.1526 0.7108 0.4448
H6_2 H 0.2087 0.6175 0.4898
H7 H 0.1286 0.6751 0.5685
O12_2 O 0.1631(8) 0.4843(6) 0.1281(7)
O13_2 O 0.0646(8) 0.3685(6) 0.2015(8)
O1_2 O 0.0454(8) 0.3687(5) 0.9355(8)
O2_2 O 0.1439(9) 0.0510(6) 0.5849(10)
O3_2 O 0.2722(7) 0.1397(5) 0.7071(7)
C5_2 C 0.0491(11) 0.2143(8) 0.7918(11)
H2_2 H 0.1317 0.2411 0.8166
C7_2 C 0.0368(11) 0.1440(8) 0.7102(11)
C9_2 C 0.1564(11) 0.1084(8) 0.6646(11)
O4_2 O 0.9084(13) 0.5220(8) 0.2934(10)
C12_2 C 0.897(3) 0.638(2) 0.484(3)
H8 H 0.9234 0.6554 0.5659
H9_2 H 0.8398 0.5868 0.4806
H10_2 H 0.8489 0.6863 0.4413
O8_2 O 0.9546(8) 0.6313(5) 0.0645(8)
O9_2 O 0.6439(9) 0.4490(6) 0.0849(10)
O10_2 O 0.7722(7) 0.3603(5) 0.2071(7)
C1_2 C 0.9354(11) 0.2441(8) 0.8358(10)
O5_2 O 0.8520(8) 0.3250(6) 0.9844(8)
C2_2 C 0.9474(12) 0.3174(8) 0.9243(11)
C3_2 C 0.8122(11) 0.2023(8) 0.7971(11)
H1_2 H 0.7364 0.2219 0.8256
C4_2 C 0.8015(10) 0.1327(8) 0.7174(10)
C6_2 C 0.9125(11) 0.1038(8) 0.6735(10)
H3_2 H 0.9048 0.0572 0.6190
C8_2 C 0.6697(11) 0.0895(8) 0.6790(10)
O7_2 O 0.5646(8) 0.1315(6) 0.7015(8)
C1_3 C 0.4354(11) 0.2559(8) 0.3358(10)
O5_3 O 0.3520(8) 0.1750(6) 0.4844(8)
C2_3 C 0.4474(12) 0.1826(8) 0.4243(11)
C3_3 C 0.3122(11) 0.2977(8) 0.2971(11)
H1_3 H 0.2364 0.2781 0.3256
C4_3 C 0.3015(10) 0.3673(8) 0.2174(10)
C5_3 C 0.5491(11) 0.2857(8) 0.2918(11)
H2_3 H 0.6317 0.2589 0.3166
C6_3 C 0.4125(11) 0.3962(8) 0.1735(10)
H3_3 H 0.4048 0.4428 0.1190
C7_3 C 0.5368(11) 0.3560(8) 0.2102(11)
C8_3 C 0.1697(11) 0.4105(8) 0.1790(10)
C9_3 C 0.6564(11) 0.3916(8) 0.1646(11)
O4_3 O 0.4084(13) 0.9780(8) 0.7934(10)
C10_3 C 0.504(3) 0.9391(12) 0.8429(18)
H4_3 H 0.5831 0.9498 0.8141
N1_3 N 0.5134(19) 0.8827(11) 0.9330(13)
C11_3 C 0.636(3) 0.8414(17) 0.989(2)
H5_3 H 0.6526 0.7892 0.9448
H6_3 H 0.7087 0.8825 0.9898
C12_3 C 0.397(3) 0.862(2) 0.984(3)
H9_3 H 0.3398 0.9132 0.9806
H10_3 H 0.3489 0.8137 0.9413
C1_4 C 0.0646(11) 0.7559(8) 0.1642(10)
O5_4 O 0.1480(8) 0.6750(6) 0.0156(8)
C2_4 C 0.0526(12) 0.6826(8) 0.0757(11)
C3_4 C 0.1878(11) 0.7977(8) 0.2029(11)
H1_4 H 0.2636 0.7781 0.1744
C4_4 C 0.1985(10) 0.8673(8) 0.2826(10)
C6_4 C 0.0875(11) 0.8962(8) 0.3265(10)
H3_4 H 0.0952 0.9428 0.3810
C8_4 C 0.3303(11) 0.9105(8) 0.3210(10)
O4_4 O 0.0916(13) 0.4780(8) 0.7066(10)
C12_4 C 0.103(3) 0.362(2) 0.516(3)
H8_2 H 0.0766 0.3446 0.4341
H9_4 H 0.1602 0.4132 0.5194
H10_4 H 0.1511 0.3137 0.5587
C5_4 C 0.9509(11) 0.7857(8) 0.2082(11)
H2_4 H 0.8683 0.7589 0.1834
C7_4 C 0.9632(11) 0.8560(8) 0.2898(11)
C9_4 C 0.8436(11) 0.8916(8) 0.3354(11)
C10_4 C 0.996(3) 0.4391(12) 0.6571(18)
H4_4 H 0.9169 0.4498 0.6859
N1_4 N 0.9866(19) 0.3827(11) 0.5670(13)
C11_4 C 0.864(3) 0.3414(17) 0.511(2)
H5_4 H 0.8474 0.2892 0.5552
H6_4 H 0.7913 0.3825 0.5102
H7_2 H 0.8714 0.3249 0.4315
H7_3 H 0.3714 0.1751 0.9315
H8_3 H 0.5766 0.1554 0.9341
H7_4 H 0.6286 0.8249 0.0685
H8_4 H 0.4234 0.8446 0.0659
loop_
_geom_bond_atom_site_label_1
_geom_bond_atom_site_label_2
_geom_bond_site_symmetry_1
_geom_bond_site_symmetry_2
C10 O4 1_555 1_555
H4 C10 1_555 1_555
N1 C10 1_555 1_555
C11 N1 1_555 1_555
H5 C11 1_555 1_555
H6 C11 1_555 1_555
C12 N1 1_555 1_555
H9 C12 1_555 1_555
H10 C12 1_555 1_555
Bi3 O8 1_555 1_555
Bi3 O11 1_555 1_555
Bi1 O1 1_555 1_555
C1 C2 1_555 1_555
O1 C2 1_555 1_555
O2 C9 1_555 1_555
O3 C9 1_555 1_555
O5 Bi1 1_555 1_555
C2 O5 1_555 1_555
C3 C1 1_555 1_555
H1 C3 1_555 1_555
C4 C3 1_555 1_555
C5 C1 1_555 1_555
H2 C5 1_555 1_555
C6 C4 1_555 1_555
H3 C6 1_555 1_555
C7 C5 1_555 1_555
C8 C4 1_555 1_555
O6 C8 1_555 1_555
O7 C8 1_555 1_555
C9 C7 1_555 1_555
Bi5 O2 1_555 1_555
O9 Bi1 1_555 1_555
O10 Bi1 1_555 1_555
O12 Bi1 1_555 1_555
O13 Bi1 1_555 1_555
O3 Bi5 1_555 1_555
C6 C7 1_555 1_555
H4_2 C10_2 1_555 1_555
N1_2 C10_2 1_555 1_555
C11_2 N1_2 1_555 1_555
H5_2 C11_2 1_555 1_555
H6_2 C11_2 1_555 1_555
H7 C11_2 1_555 1_555
O2_2 C9_2 1_555 1_555
O3_2 C9_2 1_555 1_555
H2_2 C5_2 1_555 1_555
C7_2 C5_2 1_555 1_555
C9_2 C7_2 1_555 1_555
Bi5 O1_2 1_555 1_555
Bi3 O2_2 1_555 1_555
O3_2 Bi3 1_555 1_555
O4_2 Bi2 1_555 1_555
H8 C12_2 1_555 1_555
H9_2 C12_2 1_555 1_555
H10_2 C12_2 1_555 1_555
O8_2 Bi2 1_555 1_555
O9_2 Bi2 1_555 1_555
O10_2 Bi2 1_555 1_555
C1_2 C2_2 1_555 1_555
C2_2 O5_2 1_555 1_555
C3_2 C1_2 1_555 1_555
H1_2 C3_2 1_555 1_555
C4_2 C3_2 1_555 1_555
C6_2 C4_2 1_555 1_555
H3_2 C6_2 1_555 1_555
C8_2 C4_2 1_555 1_555
O11 C8_2 1_555 1_555
O7_2 C8_2 1_555 1_555
O7_2 Bi3 1_555 1_555
C1_3 C2_3 1_555 1_555
O8 C2_3 1_555 1_555
O9_2 C9_3 1_555 1_555
O10_2 C9_3 1_555 1_555
O5_3 Bi3 1_555 1_555
C2_3 O5_3 1_555 1_555
C3_3 C1_3 1_555 1_555
H1_3 C3_3 1_555 1_555
C4_3 C3_3 1_555 1_555
C5_3 C1_3 1_555 1_555
H2_3 C5_3 1_555 1_555
C6_3 C4_3 1_555 1_555
H3_3 C6_3 1_555 1_555
C7_3 C5_3 1_555 1_555
C8_3 C4_3 1_555 1_555
O12_2 C8_3 1_555 1_555
O13_2 C8_3 1_555 1_555
C9_3 C7_3 1_555 1_555
C6_3 C7_3 1_555 1_555
C10_3 O4_3 1_555 1_555
H4_3 C10_3 1_555 1_555
N1_3 C10_3 1_555 1_555
C11_3 N1_3 1_555 1_555
H5_3 C11_3 1_555 1_555
H6_3 C11_3 1_555 1_555
C12_3 N1_3 1_555 1_555
H9_3 C12_3 1_555 1_555
H10_3 C12_3 1_555 1_555
C1_4 C2_4 1_555 1_555
C2_4 O5_4 1_555 1_555
C3_4 C1_4 1_555 1_555
H1_4 C3_4 1_555 1_555
C4_4 C3_4 1_555 1_555
C6_4 C4_4 1_555 1_555
H3_4 C6_4 1_555 1_555
C8_4 C4_4 1_555 1_555
O12 C8_4 1_555 1_555
O13 C8_4 1_555 1_555
O4_4 Bi5 1_555 1_555
H8_2 C12_4 1_555 1_555
H9_4 C12_4 1_555 1_555
H10_4 C12_4 1_555 1_555
O9 C9_4 1_555 1_555
O10 C9_4 1_555 1_555
H2_4 C5_4 1_555 1_555
C7_4 C5_4 1_555 1_555
C9_4 C7_4 1_555 1_555
H4_4 C10_4 1_555 1_555
N1_4 C10_4 1_555 1_555
C11_4 N1_4 1_555 1_555
H5_4 C11_4 1_555 1_555
H6_4 C11_4 1_555 1_555
H7_2 C11_4 1_555 1_555

#END
