
###############################################################################
#
# This file contains modified crystal structure data generated from the
# MOF subset of the Cambridge Structural Database (CSD) v543 
# hosted by the Cambridge Crystallographic Data Centre (CCDC).
#
# This work is licensed under the Creative Commons
# Attribution-NonCommercial-ShareAlike 4.0 International License.
# To view a copy of this license, visit
# http://creativecommons.org/licenses/by-nc-sa/4.0/
# or send a letter to
# Creative Commons, PO Box 1866, Mountain View, CA 94042, USA.
#
# CIF created using the CSD Python API on 29 September 2022
# The structure has been converted into the P1 space group
# The structure has a 3D framework
# The original CSD entry WUPZUE is in the triclinic crystal system
# The framework has been calculated to contain at least 10.0% void space
# The void calculation uses a probe of radius 1.32A, grid spacing 0.4
# H atom positions have been added when not included in the experimental data
# Generated hydrogen atom positions removed from atoms on special positions
#
###############################################################################

data_WUPZUE
_chemical_formula_moiety         '(C24 H24 O15 Zn4)n'
_symmetry_cell_setting           triclinic
_symmetry_space_group_name_H-M   'P 1'
_symmetry_Int_Tables_number      1
_space_group_name_Hall           'P 1'
loop_
_symmetry_equiv_pos_site_id
_symmetry_equiv_pos_as_xyz
1 x,y,z
_cell_length_a                   7.8732(4)
_cell_length_b                   9.6571(4)
_cell_length_c                   12.1461(6)
_cell_angle_alpha                76.894(4)
_cell_angle_beta                 89.325(4)
_cell_angle_gamma                77.575(4)
_cell_volume                     877.709
loop_
_atom_site_label
_atom_site_type_symbol
_atom_site_fract_x
_atom_site_fract_y
_atom_site_fract_z
_atom_site_U_iso_or_equiv
_atom_site_thermal_displace_type
O10 O 0.5134(2) 0.03028(19) 0.36300(15) 0.0156 Uani
Zn10 Zn 0.66656(4) 0.16372(3) 0.36787(3) 0.0104 Uani
O11 O 0.6956(2) 0.8179(2) 0.44178(16) 0.0174 Uani
O12 O 0.3876(3) 0.3648(2) 0.24968(18) 0.0243 Uani
O13 O 0.5919(2) 0.36571(19) 0.37457(16) 0.0184 Uani
C13 C 0.5657(3) 0.8927(3) 0.3819(2) 0.0125 Uani
C14 C 0.4615(3) 0.8155(3) 0.3238(2) 0.0107 Uani
C15 C 0.3316(3) 0.8950(3) 0.2435(2) 0.0120 Uani
H5 H 0.3031 0.9983 0.2300 0.0140 Uiso
C16 C 0.5022(3) 0.6638(3) 0.3450(2) 0.0124 Uani
H6 H 0.5887 0.6091 0.4013 0.0150 Uiso
C17 C 0.4161(3) 0.5927(3) 0.2839(2) 0.0135 Uani
C18 C 0.2878(3) 0.6733(3) 0.2023(2) 0.0126 Uani
H7 H 0.2305 0.6243 0.1598 0.0150 Uiso
C19 C 0.2425(3) 0.8246(3) 0.1823(2) 0.0121 Uani
C20 C 0.1117(3) 0.9126(3) 0.0920(2) 0.0116 Uani
C22 C 0.4647(3) 0.4296(3) 0.3027(2) 0.0162 Uani
Zn7 Zn 0.92846(4) 0.86263(3) 0.48392(3) 0.0108 Uani
O9 O 0.8005(2) 0.14915(19) 0.23114(15) 0.0154 Uani
C9 C 0.8596(3) 0.1029(3) 0.0183(2) 0.0121 Uani
H4 H 0.7633 0.1747 0.0314 0.0140 Uiso
C11 C 0.9660(3) 0.0176(3) 0.1100(2) 0.0115 Uani
C12 C 0.9067(3) 0.0322(3) 0.2264(2) 0.0123 Uani
O8 O 0.9581(2) 0.92587(19) 0.30737(15) 0.0152 Uani
O1 O 0.9308(3) 0.3454(2) 0.53071(17) 0.0219 Uani
O3 O 0.8339(2) 0.07703(18) 0.49714(14) 0.0116 Uani
O17 O 0.8872(3) 0.7690(2) 0.65431(16) 0.0193 Uani
H16 H 0.987161 0.58956 0.469354 . .
O14 O 0.0419(2) 0.07413(19) 0.69263(15) 0.0152 Uani
Zn5 Zn 0.07154(4) 0.13737(3) 0.51608(3) 0.0108 Uani
O15 O 0.1995(2) 0.85085(19) 0.76886(15) 0.0154 Uani
C21 C 0.1404(3) 0.8971(3) 0.9817(2) 0.0121 Uani
H8 H 0.2367 0.8253 0.9686 0.0140 Uiso
C23 C 0.0340(3) 0.9824(3) 0.8900(2) 0.0115 Uani
C24 C 0.0933(3) 0.9678(3) 0.7736(2) 0.0123 Uani
Zn12 Zn 0.33344(4) 0.83628(3) 0.63213(3) 0.0104 Uani
O2 O 0.1128(3) 0.2310(2) 0.34569(16) 0.0193 Uani
O5 O 0.3044(2) 0.1821(2) 0.55822(16) 0.0174 Uani
O6 O 0.6124(3) 0.6352(2) 0.75032(18) 0.0243 Uani
O7 O 0.4081(2) 0.63429(19) 0.62543(16) 0.0184 Uani
C1 C 0.4343(3) 0.1073(3) 0.6181(2) 0.0125 Uani
C2 C 0.5385(3) 0.1845(3) 0.6762(2) 0.0107 Uani
C3 C 0.6684(3) 0.1050(3) 0.7565(2) 0.0120 Uani
H1 H 0.6969 0.0017 0.7700 0.0140 Uiso
C4 C 0.4978(3) 0.3362(3) 0.6550(2) 0.0124 Uani
H2 H 0.4113 0.3909 0.5987 0.0150 Uiso
C5 C 0.5839(3) 0.4073(3) 0.7161(2) 0.0135 Uani
C6 C 0.7122(3) 0.3267(3) 0.7977(2) 0.0126 Uani
H3 H 0.7695 0.3757 0.8402 0.0150 Uiso
C7 C 0.7575(3) 0.1754(3) 0.8177(2) 0.0121 Uani
C8 C 0.8883(3) 0.0874(3) 0.9080(2) 0.0116 Uani
C10 C 0.5353(3) 0.5704(3) 0.6973(2) 0.0162 Uani
O4 O 0.4866(2) 0.96972(19) 0.63700(15) 0.0156 Uani
O16 O 0.0692(3) 0.6546(2) 0.46929(17) 0.0219 Uani
O18 O 0.1661(2) 0.92297(18) 0.50286(14) 0.0116 Uani
H16_2 H 0.0128386 0.41044 0.530646 . .
loop_
_atom_site_aniso_label
_atom_site_aniso_U_11
_atom_site_aniso_U_22
_atom_site_aniso_U_33
_atom_site_aniso_U_23
_atom_site_aniso_U_13
_atom_site_aniso_U_12
O10 0.0154 0.0142 0.0186 -0.0061 -0.0009 -0.0035
Zn10 0.01106 0.00908 0.01059 -0.00321 -0.00056 -5e-05
O11 0.0152 0.0167 0.0191 -0.0006 -0.0071 -0.0045
O12 0.0295 0.0139 0.0324 -0.01 0.0019 -0.0059
O13 0.0205 0.0103 0.0207 -0.0024 0.0015 0.0033
C13 0.0116 0.0151 0.0112 -0.0023 0.0034 -0.0045
C14 0.011 0.0126 0.009 -0.003 0.0019 -0.0029
C15 0.012 0.0102 0.0134 -0.004 0.0022 -0.0004
C16 0.01 0.0143 0.0115 -0.0014 0.0012 -0.0011
C17 0.0124 0.0125 0.0147 -0.0028 0.0037 -0.0012
C18 0.0123 0.0153 0.0125 -0.0074 0.0034 -0.0037
C19 0.0109 0.0152 0.0096 -0.0038 0.0021 -0.0007
C20 0.0112 0.0124 0.0113 -0.002 0.0003 -0.0033
C22 0.0158 0.0118 0.0207 -0.0043 0.0086 -0.0019
Zn7 0.0109 0.00992 0.01103 -0.00245 -0.00131 -0.00103
O9 0.017 0.015 0.0123 -0.0038 0.003 0.001
C9 0.0111 0.0129 0.0121 -0.0037 0.0006 -0.0014
C11 0.0124 0.0122 0.0107 -0.0037 0.001 -0.0031
C12 0.0126 0.0135 0.0123 -0.0048 -0.0006 -0.0042
O8 0.0176 0.0154 0.0106 -0.0025 0.001 0.0001
O1 0.0299 0.0138 0.0202 -0.0051 0.0034 0
O3 0.0117 0.0119 0.0108 -0.0037 -0.001 -0.0006
O17 0.0211 0.0245 0.0131 -0.0008 -0.0002 -0.0102
O14 0.0176 0.0154 0.0106 -0.0025 0.001 0.0001
Zn5 0.0109 0.00992 0.01103 -0.00245 -0.00131 -0.00103
O15 0.017 0.015 0.0123 -0.0038 0.003 0.001
C21 0.0111 0.0129 0.0121 -0.0037 0.0006 -0.0014
C23 0.0124 0.0122 0.0107 -0.0037 0.001 -0.0031
C24 0.0126 0.0135 0.0123 -0.0048 -0.0006 -0.0042
Zn12 0.01106 0.00908 0.01059 -0.00321 -0.00056 -5e-05
O2 0.0211 0.0245 0.0131 -0.0008 -0.0002 -0.0102
O5 0.0152 0.0167 0.0191 -0.0006 -0.0071 -0.0045
O6 0.0295 0.0139 0.0324 -0.01 0.0019 -0.0059
O7 0.0205 0.0103 0.0207 -0.0024 0.0015 0.0033
C1 0.0116 0.0151 0.0112 -0.0023 0.0034 -0.0045
C2 0.011 0.0126 0.009 -0.003 0.0019 -0.0029
C3 0.012 0.0102 0.0134 -0.004 0.0022 -0.0004
C4 0.01 0.0143 0.0115 -0.0014 0.0012 -0.0011
C5 0.0124 0.0125 0.0147 -0.0028 0.0037 -0.0012
C6 0.0123 0.0153 0.0125 -0.0074 0.0034 -0.0037
C7 0.0109 0.0152 0.0096 -0.0038 0.0021 -0.0007
C8 0.0112 0.0124 0.0113 -0.002 0.0003 -0.0033
C10 0.0158 0.0118 0.0207 -0.0043 0.0086 -0.0019
O4 0.0154 0.0142 0.0186 -0.0061 -0.0009 -0.0035
O16 0.0299 0.0138 0.0202 -0.0051 0.0034 0
O18 0.0117 0.0119 0.0108 -0.0037 -0.001 -0.0006
loop_
_geom_bond_atom_site_label_1
_geom_bond_atom_site_label_2
_geom_bond_site_symmetry_1
_geom_bond_site_symmetry_2
Zn10 O10 1_555 1_555
O11 C13 1_555 1_555
O12 C22 1_555 1_555
O13 C22 1_555 1_555
C13 C14 1_555 1_555
C14 C15 1_555 1_555
C15 H5 1_555 1_555
C16 C14 1_555 1_555
H6 C16 1_555 1_555
C17 C16 1_555 1_555
C18 C17 1_555 1_555
H7 C18 1_555 1_555
C19 C15 1_555 1_555
C22 C17 1_555 1_555
Zn7 O11 1_555 1_555
Zn10 O13 1_555 1_555
C18 C19 1_555 1_555
C19 C20 1_555 1_555
O9 C12 1_555 1_555
H4 C9 1_555 1_555
C11 C9 1_555 1_555
C12 C11 1_555 1_555
Zn10 O9 1_555 1_555
Zn7 O8 1_555 1_555
Zn10 O3 1_555 1_555
O17 Zn7 1_555 1_555
Zn5 O14 1_555 1_555
O15 C24 1_555 1_555
H8 C21 1_555 1_555
C24 C23 1_555 1_555
Zn12 O15 1_555 1_555
C21 C23 1_555 1_555
O2 Zn5 1_555 1_555
O5 Zn5 1_555 1_555
O6 C10 1_555 1_555
O7 C10 1_555 1_555
C1 O5 1_555 1_555
C2 C1 1_555 1_555
C3 C2 1_555 1_555
H1 C3 1_555 1_555
C4 C2 1_555 1_555
H2 C4 1_555 1_555
C5 C4 1_555 1_555
C6 C5 1_555 1_555
H3 C6 1_555 1_555
C7 C3 1_555 1_555
C8 C7 1_555 1_555
C10 C5 1_555 1_555
Zn12 O7 1_555 1_555
C6 C7 1_555 1_555
Zn12 O4 1_555 1_555
Zn12 O18 1_555 1_555

#END
