
###############################################################################
#
# This file contains modified crystal structure data generated from the
# MOF subset of the Cambridge Structural Database (CSD) v543 
# hosted by the Cambridge Crystallographic Data Centre (CCDC).
#
# This work is licensed under the Creative Commons
# Attribution-NonCommercial-ShareAlike 4.0 International License.
# To view a copy of this license, visit
# http://creativecommons.org/licenses/by-nc-sa/4.0/
# or send a letter to
# Creative Commons, PO Box 1866, Mountain View, CA 94042, USA.
#
# CIF created using the CSD Python API on 29 September 2022
# The structure has been converted into the P1 space group
# The structure has a 3D framework
# The original CSD entry WUPZOY is in the triclinic crystal system
# The framework has been calculated to contain at least 10.0% void space
# The void calculation uses a probe of radius 1.32A, grid spacing 0.4
# The framework is charged, counterions have been retained in the structure
#
###############################################################################

data_WUPZOY
_chemical_formula_moiety         '(C52 H34 N2 O22 Zn3)n'
_symmetry_cell_setting           triclinic
_symmetry_space_group_name_H-M   'P 1'
_symmetry_Int_Tables_number      1
_space_group_name_Hall           'P 1'
loop_
_symmetry_equiv_pos_site_id
_symmetry_equiv_pos_as_xyz
1 x,y,z
_cell_length_a                   8.5170(4)
_cell_length_b                   10.3341(4)
_cell_length_c                   18.2392(7)
_cell_angle_alpha                104.782(4)
_cell_angle_beta                 91.187(3)
_cell_angle_gamma                110.479(4)
_cell_volume                     1443.35
loop_
_atom_site_label
_atom_site_type_symbol
_atom_site_fract_x
_atom_site_fract_y
_atom_site_fract_z
Zn15 Zn 0.03763(4) 0.86165(4) 0.69065(2)
O26 O 0.0959(2) 0.3477(2) 0.35855(11)
O33 O 0.2394(2) 0.20713(19) 0.35696(11)
O37 O 0.0314(3) 0.0856(2) 0.20708(11)
O10 O 0.8653(2) 0.0543(2) 0.39052(11)
O19 O 0.9041(2) 0.6523(2) 0.64145(11)
O20 O 0.1409(2) 0.5708(2) 0.57983(13)
H14 H 0.0513 0.5805 0.5936
O21 O 0.3550(3) 0.1399(2) 0.67404(11)
O22 O 0.7606(2) 0.79287(19) 0.64304(11)
O24 O 0.0095(2) 0.3467(2) 0.58742(13)
C37 C 0.7640(3) 0.6700(3) 0.62871(14)
C38 C 0.4720(3) 0.2798(3) 0.55210(14)
C39 C 0.2819(3) 0.0368(3) 0.61626(15)
C40 C 0.1373(3) 0.4427(3) 0.58152(15)
C41 C 0.4866(3) 0.1365(3) 0.52662(14)
C42 C 0.6176(3) 0.4030(3) 0.57487(14)
H15 H 0.7251 0.3944 0.5736
C43 C 0.4516(3) 0.5531(3) 0.59981(14)
H16 H 0.4446 0.6458 0.6150
C44 C 0.3859(3) 0.0190(3) 0.55147(14)
C45 C 0.3150(3) 0.2941(3) 0.55424(14)
H17 H 0.2144 0.2109 0.5397
C46 C 0.6079(3) 0.5390(3) 0.59957(14)
C47 C 0.3053(3) 0.4301(3) 0.57763(14)
C48 C 0.6009(3) 0.1153(3) 0.47555(14)
H18 H 0.6710 0.1938 0.4589
Zn4 Zn 0.96237(4) 0.13835(4) 0.30935(2)
Zn10 Zn 0.32935(4) 0.18998(3) 0.78184(2)
O29 O 0.7435(2) 0.1427(2) 0.26767(12)
O3 O 0.8591(2) 0.4292(2) 0.42017(13)
H1 H 0.9487 0.4195 0.4064
O4 O 0.6450(3) 0.8601(2) 0.32596(11)
O12 O 0.9905(2) 0.6533(2) 0.41258(13)
C3 C 0.2360(3) 0.3300(3) 0.37129(14)
C4 C 0.5280(3) 0.7202(3) 0.44790(14)
C5 C 0.7181(3) 0.9632(3) 0.38374(15)
C8 C 0.8627(3) 0.5573(3) 0.41848(15)
C9 C 0.5134(3) 0.8635(3) 0.47338(14)
C13 C 0.3824(3) 0.5970(3) 0.42513(14)
H5 H 0.2749 0.6056 0.4264
C15 C 0.5484(3) 0.4469(3) 0.40019(14)
H6 H 0.5554 0.3542 0.3850
C18 C 0.6141(3) 0.9810(3) 0.44853(14)
C19 C 0.6850(3) 0.7059(3) 0.44576(14)
H8 H 0.7856 0.7891 0.4603
C20 C 0.3921(3) 0.4610(3) 0.40043(14)
C23 C 0.6947(3) 0.5699(3) 0.42237(14)
C24 C 0.3991(3) 0.8847(3) 0.52445(14)
H9 H 0.3290 0.8062 0.5411
O23 O 0.1347(2) 0.9457(2) 0.60948(11)
Zn7 Zn 0.67065(4) 0.81002(3) 0.21816(2)
O1 O 0.5246(2) 0.60787(19) 0.17217(11)
O6 O 0.7406(2) 0.6059(2) 0.24138(11)
C1 C 0.6030(3) 0.5418(3) 0.20051(15)
C2 C 0.5207(3) 0.3808(3) 0.18078(15)
C6 C 0.5284(3) 0.1540(3) 0.18954(15)
C7 C 0.5995(3) 0.3035(3) 0.20978(14)
H2 H 0.7019 0.3530 0.2434
C10 C 0.3768(3) 0.0816(3) 0.14129(14)
C11 C 0.1401(3) 0.0793(3) 0.05699(14)
C14 C 0.6197(3) 0.0715(3) 0.21734(15)
C17 C 0.3693(3) 0.3078(3) 0.13237(14)
H7 H 0.3156 0.3606 0.1127
C22 C 0.2961(3) 0.1580(3) 0.11255(14)
C12 C 0.1455(3) 0.0934(3) 0.98293(14)
H4 H 0.2453 0.1580 0.9709
O16 O 0.1343(3) 0.1458(2) 0.83948(11)
C33 C 0.0378(3) 0.0267(3) 0.84626(14)
C35 C 0.0088(3) 0.0156(3) 0.92605(14)
O9 O 0.5666(3) 0.9372(2) 0.18729(12)
H3 H 0.3280 0.9795 0.1279
O31 O 0.8657(3) 0.8542(2) 0.16052(11)
O17 O 0.4334(3) 0.0628(2) 0.81271(12)
H11 H 0.6720 0.0205 0.8721
C16 C 0.9622(3) 0.9733(3) 0.15374(14)
C21 C 0.9912(3) 0.9844(3) 0.07395(14)
C31 C 0.8545(3) 0.9066(3) 0.01707(14)
H12 H 0.7547 0.8420 0.0291
O13 O 0.4754(2) 0.39213(19) 0.82783(11)
O14 O 0.2565(2) 0.8573(2) 0.73233(12)
O15 O 0.2594(2) 0.3941(2) 0.75862(11)
O18 O 0.9686(3) 0.9144(2) 0.79292(11)
C25 C 0.3970(3) 0.4582(3) 0.79949(15)
C26 C 0.4793(3) 0.6192(3) 0.81922(15)
C27 C 0.4716(3) 0.8460(3) 0.81046(15)
C28 C 0.4005(3) 0.6965(3) 0.79022(14)
H10 H 0.2981 0.6470 0.7566
C29 C 0.6232(3) 0.9184(3) 0.85871(14)
C30 C 0.8599(3) 0.9207(3) 0.94301(14)
C32 C 0.3803(3) 0.9285(3) 0.78266(15)
C34 C 0.6307(3) 0.6922(3) 0.86763(14)
H13 H 0.6844 0.6394 0.8873
C36 C 0.7039(3) 0.8420(3) 0.88745(14)
N1 N 0.9001(3) 0.2782(3) 0.72605(17)
H19 H 0.9786 0.3180 0.6911
H20 H 0.9679 0.2974 0.7751
C49 C 0.8198(7) 0.1240(5) 0.6935(3)
H21 H 0.7465 0.1036 0.6465
H22 H 0.7520 0.0818 0.7302
H23 H 0.9064 0.0821 0.6816
C50 C 0.7827(8) 0.3537(7) 0.7397(3)
H24 H 0.6977 0.3183 0.6950
H25 H 0.8447 0.4571 0.7488
H26 H 0.7267 0.3363 0.7846
N1_2 N 0.0999(3) 0.7218(3) 0.27395(17)
H19_2 H 0.0214 0.6820 0.3089
H20_2 H 0.0321 0.7026 0.2249
C49_2 C 0.1802(7) 0.8760(5) 0.3065(3)
H21_2 H 0.2535 0.8964 0.3535
H22_2 H 0.2480 0.9182 0.2698
H23_2 H 0.0936 0.9179 0.3184
C50_2 C 0.2173(8) 0.6463(7) 0.2603(3)
H24_2 H 0.3023 0.6817 0.3050
H25_2 H 0.1553 0.5429 0.2512
H26_2 H 0.2733 0.6637 0.2154
loop_
_geom_bond_atom_site_label_1
_geom_bond_atom_site_label_2
_geom_bond_site_symmetry_1
_geom_bond_site_symmetry_2
O19 C37 1_555 1_555
O20 H14 1_555 1_555
O21 C39 1_555 1_555
O22 C37 1_555 1_555
O24 C40 1_555 1_555
C37 C46 1_555 1_555
C38 C41 1_555 1_555
C39 C44 1_555 1_555
C40 O20 1_555 1_555
C41 C44 1_555 1_555
C42 C38 1_555 1_555
H15 C42 1_555 1_555
C43 H16 1_555 1_555
C45 C38 1_555 1_555
H17 C45 1_555 1_555
C46 C42 1_555 1_555
C47 C40 1_555 1_555
C48 C41 1_555 1_555
H18 C48 1_555 1_555
Zn4 O10 1_555 1_555
Zn10 O21 1_555 1_555
O29 Zn4 1_555 1_555
C43 C46 1_555 1_555
C43 C47 1_555 1_555
C45 C47 1_555 1_555
O26 C3 1_555 1_555
O3 H1 1_555 1_555
O4 C5 1_555 1_555
O12 C8 1_555 1_555
C3 O33 1_555 1_555
C4 C9 1_555 1_555
C5 C18 1_555 1_555
C8 O3 1_555 1_555
C9 C18 1_555 1_555
C13 C4 1_555 1_555
H5 C13 1_555 1_555
C15 H6 1_555 1_555
C19 C4 1_555 1_555
H8 C19 1_555 1_555
C20 C3 1_555 1_555
C23 C8 1_555 1_555
C24 C9 1_555 1_555
H9 C24 1_555 1_555
Zn7 O4 1_555 1_555
Zn15 O23 1_555 1_555
C13 C20 1_555 1_555
C15 C20 1_555 1_555
C15 C23 1_555 1_555
C19 C23 1_555 1_555
O1 C1 1_555 1_555
O6 C1 1_555 1_555
C1 C2 1_555 1_555
C2 C7 1_555 1_555
C6 C7 1_555 1_555
C7 H2 1_555 1_555
C10 C6 1_555 1_555
C14 O29 1_555 1_555
C17 C2 1_555 1_555
H7 C17 1_555 1_555
C22 C10 1_555 1_555
Zn7 O1 1_555 1_555
O6 Zn7 1_555 1_555
C6 C14 1_555 1_555
C11 C22 1_555 1_555
C17 C22 1_555 1_555
C12 H4 1_555 1_555
O16 C33 1_555 1_555
C33 C35 1_555 1_555
C35 C12 1_555 1_555
Zn10 O16 1_555 1_555
Zn7 O9 1_555 1_555
O31 Zn7 1_555 1_555
Zn10 O17 1_555 1_555
O31 C16 1_555 1_555
C16 C21 1_555 1_555
C31 C21 1_555 1_555
H12 C31 1_555 1_555
O13 C25 1_555 1_555
O14 C32 1_555 1_555
O15 C25 1_555 1_555
C25 C26 1_555 1_555
C26 C28 1_555 1_555
C27 C28 1_555 1_555
C28 H10 1_555 1_555
C29 C27 1_555 1_555
C32 C27 1_555 1_555
C34 C26 1_555 1_555
H13 C34 1_555 1_555
C36 C29 1_555 1_555
Zn10 O13 1_555 1_555
Zn15 O14 1_555 1_555
O15 Zn10 1_555 1_555
C30 C36 1_555 1_555
C34 C36 1_555 1_555
N1 H19 1_555 1_555
H20 N1 1_555 1_555
C49 N1 1_555 1_555
H21 C49 1_555 1_555
H22 C49 1_555 1_555
H23 C49 1_555 1_555
C50 N1 1_555 1_555
H24 C50 1_555 1_555
H25 C50 1_555 1_555
H26 C50 1_555 1_555
N1_2 H19_2 1_555 1_555
H20_2 N1_2 1_555 1_555
C49_2 N1_2 1_555 1_555
H21_2 C49_2 1_555 1_555
H22_2 C49_2 1_555 1_555
H23_2 C49_2 1_555 1_555
C50_2 N1_2 1_555 1_555
H24_2 C50_2 1_555 1_555
H25_2 C50_2 1_555 1_555
H26_2 C50_2 1_555 1_555

#END
