
###############################################################################
#
# This file contains modified crystal structure data generated from the
# MOF subset of the Cambridge Structural Database (CSD) v543 
# hosted by the Cambridge Crystallographic Data Centre (CCDC).
#
# This work is licensed under the Creative Commons
# Attribution-NonCommercial-ShareAlike 4.0 International License.
# To view a copy of this license, visit
# http://creativecommons.org/licenses/by-nc-sa/4.0/
# or send a letter to
# Creative Commons, PO Box 1866, Mountain View, CA 94042, USA.
#
# CIF created using the CSD Python API on 29 September 2022
# The structure has been converted into the P1 space group
# The structure has a 3D framework
# The original CSD entry WUTBUI is in the trigonal crystal system
# The framework has been calculated to contain at least 10.0% void space
# The void calculation uses a probe of radius 1.32A, grid spacing 0.4
# H atom positions have been added when not included in the experimental data
#
###############################################################################

data_WUTBUI
_chemical_formula_moiety         '(C48 H84 Cu9 La4 N12 O48)n'
_symmetry_cell_setting           triclinic
_symmetry_space_group_name_H-M   'P 1'
_symmetry_Int_Tables_number      1
_space_group_name_Hall           'P 1'
loop_
_symmetry_equiv_pos_site_id
_symmetry_equiv_pos_as_xyz
1 x,y,z
_cell_length_a                   13.559(3)
_cell_length_b                   13.559(3)
_cell_length_c                   14.999(7)
_cell_angle_alpha                90
_cell_angle_beta                 90
_cell_angle_gamma                120
_cell_volume                     2388.08
loop_
_atom_site_label
_atom_site_type_symbol
_atom_site_fract_x
_atom_site_fract_y
_atom_site_fract_z
H26 H 0.0257 0.6732 0.4236
Cu2 Cu 0.0000 0.5000 0.0000
Cu6 Cu -0.0000 0.5000 0.5000
N8 N 0.0398(6) 0.6509(8) 0.0578(5)
O31 O 0.0746(6) 0.4766(8) 0.1045(4)
H34 H 0.0797201 0.714869 0.0128563
H35 H 0.0918522 0.665293 0.110792
H6 H 0.0257 0.3525 0.9236
Cu2_2 Cu 0.0000 0.5000 1.0000
O30 O 0.1829(6) 0.6363(8) 0.9432(4)
La1 La 0.6667 0.3333 0.16952(4)
Cu1 Cu 0.5000 0.0000 0.0000
O1 O 0.5466(5) 0.1829(6) 0.0568(4)
O2 O 0.4378(6) 0.2390(6) 0.1232(4)
C3 C 0.4510(7) 0.1792(7) 0.0680(6)
C4 C 0.3515(8) 0.0955(8) 0.0096(6)
H4 H 0.2927 0.0376 0.0470
O5 O 0.8171(6) 0.3637(8) 0.0568(4)
O6 O 0.7610(6) 0.1988(8) 0.1232(4)
C7 C 0.8208(7) 0.2718(10) 0.0680(6)
C8 C 0.9045(8) 0.2560(11) 0.0096(6)
H9 H 0.9624 0.2551 0.0470
O9 O 0.6363(8) 0.4534(5) 0.0568(4)
O10 O 0.8012(8) 0.5622(6) 0.1232(4)
C11 C 0.7282(10) 0.5490(7) 0.0680(6)
C12 C 0.7440(11) 0.6485(8) 0.0096(6)
H14 H 0.7449 0.7073 0.0470
O13 O 0.6363(8) 0.1829(6) 0.5568(4)
N4 N 0.6509(8) 0.0398(6) 0.4422(5)
O14 O 0.8012(8) 0.2390(6) 0.6232(4)
C13 C 0.6634(13) 0.1103(9) 0.3631(6)
H17 H 0.7283 0.1858 0.3721
H18 H 0.6792 0.0773 0.3115
C14 C 0.5598(11) 0.1212(7) 0.3436(5)
O15 O 0.4766(8) 0.0746(6) 0.3955(4)
O16 O 0.5645(10) 0.1762(7) 0.2759(5)
C15 C 0.7282(10) 0.1792(7) 0.5680(6)
C16 C 0.7440(11) 0.0955(8) 0.5096(6)
H19 H 0.7449 0.0376 0.5470
H20 H 0.8168 0.1358 0.4792
O17 O 0.5466(5) 0.3637(8) 0.5568(4)
N5 N 0.3889(6) 0.3491(8) 0.4422(5)
H21 H 0.3268 0.3525 0.4236
O18 O 0.4378(6) 0.1988(8) 0.6232(4)
C17 C 0.4469(9) 0.3366(13) 0.3631(6)
H22 H 0.4575 0.2717 0.3721
H23 H 0.3981 0.3208 0.3115
C18 C 0.5614(8) 0.4402(11) 0.3436(5)
O19 O 0.5980(6) 0.5234(8) 0.3955(4)
O20 O 0.6117(7) 0.4355(10) 0.2759(5)
C19 C 0.4510(7) 0.2718(10) 0.5680(6)
C20 C 0.3515(8) 0.2560(11) 0.5096(6)
H24 H 0.2927 0.2551 0.5470
H25 H 0.3190 0.1832 0.4792
O21 O 0.8171(6) 0.4534(5) 0.5568(4)
N6 N 0.9602(6) 0.6111(6) 0.4422(5)
O22 O 0.7610(6) 0.5622(6) 0.6232(4)
C21 C 0.8897(9) 0.5531(9) 0.3631(6)
H27 H 0.8142 0.5425 0.3721
H28 H 0.9227 0.6019 0.3115
C22 C 0.8788(7) 0.4386(8) 0.3436(5)
O23 O 0.9254(6) 0.4020(6) 0.3955(4)
O24 O 0.8238(7) 0.3883(7) 0.2759(5)
C23 C 0.8208(7) 0.5490(7) 0.5680(6)
C24 C 0.9045(8) 0.6485(8) 0.5096(6)
H29 H 0.9624 0.7073 0.5470
H30 H 0.8642 0.6810 0.4792
La2 La 0.6666 0.3333 0.66952(4)
Cu2_3 Cu 1.0000 0.5000 0.0000
Cu3 Cu 0.5000 0.5000 0.0000
Cu4 Cu 0.5000 0.0000 0.5000
Cu5 Cu 0.5000 0.5000 0.5000
Cu6_2 Cu 1.0000 0.5000 0.5000
O27 O 0.6117(7) 0.1762(7) 0.7759(5)
O28 O 0.8238(7) 0.4355(10) 0.7759(5)
O29 O 0.5645(10) 0.3883(7) 0.7759(5)
N9 N 0.3491(8) 0.3889(6) 0.0578(5)
O33 O 0.5234(8) 0.5980(6) 0.1045(4)
H31 H 0.6732 0.0257 0.0764
H32 H 0.9743 0.6475 0.0764
H33 H 0.3525 0.3268 0.0764
H38 H 0.285131 0.364851 0.0128563
H39 H 0.334707 0.426559 0.110792
Cu1_2 Cu 0.5000 0.0000 1.0000
N1 N 0.3889(6) 0.0398(6) 0.9422(5)
C1 C 0.4469(9) 0.1103(9) 0.8631(6)
H2 H 0.4575 0.1858 0.8721
H3 H 0.3981 0.0773 0.8115
C2 C 0.5614(8) 0.1212(7) 0.8436(5)
O3 O 0.5980(6) 0.0746(6) 0.8955(4)
H5 H 0.3190 0.1358 0.9792
N2 N 0.9602(6) 0.3491(8) 0.9422(5)
C5 C 0.8897(9) 0.3366(13) 0.8631(6)
H7 H 0.8142 0.2717 0.8721
H8 H 0.9227 0.3208 0.8115
C6 C 0.8788(7) 0.4402(11) 0.8436(5)
O7 O 0.9254(6) 0.5234(8) 0.8955(4)
H10 H 0.8642 0.1832 0.9792
N3 N 0.6509(8) 0.6111(6) 0.9422(5)
H11 H 0.6475 0.6732 0.9236
C9 C 0.6634(13) 0.5531(9) 0.8631(6)
H12 H 0.7283 0.5425 0.8721
H13 H 0.6792 0.6019 0.8115
C10 C 0.5598(11) 0.4386(8) 0.8436(5)
O11 O 0.4766(8) 0.4020(6) 0.8955(4)
H15 H 0.8168 0.6810 0.9792
Cu2_4 Cu 1.0000 0.5000 1.0000
Cu3_2 Cu 0.5000 0.5000 1.0000
O32 O 0.3637(8) 0.5466(5) 0.9432(4)
Cu1_3 Cu 0.5000 1.0000 0.0000
H16 H 0.6475 0.9743 0.4236
N7 N 0.6111(6) 0.9602(6) 0.0578(5)
O26 O 0.4020(6) 0.9254(6) 0.1045(4)
Cu4_2 Cu 0.5000 1.0000 0.5000
H36 H 0.635149 0.92028 0.0128563
H37 H 0.573441 0.908148 0.110792
Cu1_4 Cu 0.5000 1.0000 1.0000
H1 H 0.3268 0.9743 0.9236
O25 O 0.4534(5) 0.8171(6) 0.9432(4)
H6_2 H 0.3525 0.0257 0.5764
H34_2 H 0.714869 0.0797201 0.487144
H35_2 H 0.665293 0.0918522 0.389208
La1_2 La 0.3333 0.6667 0.33048(4)
O1_2 O 0.1829(6) 0.5466(5) 0.4432(4)
N1_2 N 0.0398(6) 0.3889(6) 0.5578(5)
O2_2 O 0.2390(6) 0.4378(6) 0.3768(4)
C1_2 C 0.1103(9) 0.4469(9) 0.6369(6)
H2_2 H 0.1858 0.4575 0.6279
H3_2 H 0.0773 0.3981 0.6885
C2_2 C 0.1212(7) 0.5614(8) 0.6564(5)
O3_2 O 0.0746(6) 0.5980(6) 0.6045(4)
O4 O 0.1762(7) 0.6117(7) 0.7241(5)
C3_2 C 0.1792(7) 0.4510(7) 0.4320(6)
C4_2 C 0.0955(8) 0.3515(8) 0.4904(6)
H4_2 H 0.0376 0.2927 0.4530
H5_2 H 0.1358 0.3190 0.5208
O5_2 O 0.3637(8) 0.8171(6) 0.4432(4)
N2_2 N 0.3491(8) 0.9602(6) 0.5578(5)
O6_2 O 0.1988(8) 0.7610(6) 0.3768(4)
C5_2 C 0.3366(13) 0.8897(9) 0.6369(6)
H7_2 H 0.2717 0.8142 0.6279
H8_2 H 0.3208 0.9227 0.6885
C6_2 C 0.4402(11) 0.8788(7) 0.6564(5)
O7_2 O 0.5234(8) 0.9254(6) 0.6045(4)
O8 O 0.4355(10) 0.8238(7) 0.7241(5)
C7_2 C 0.2718(10) 0.8208(7) 0.4320(6)
C8_2 C 0.2560(11) 0.9045(8) 0.4904(6)
H9_2 H 0.2551 0.9624 0.4530
H10_2 H 0.1832 0.8642 0.5208
O9_2 O 0.4534(5) 0.6363(8) 0.4432(4)
N3_2 N 0.6111(6) 0.6509(8) 0.5578(5)
H11_2 H 0.6732 0.6475 0.5764
O10_2 O 0.5622(6) 0.8012(8) 0.3768(4)
C9_2 C 0.5531(9) 0.6634(13) 0.6369(6)
H12_2 H 0.5425 0.7283 0.6279
H13_2 H 0.6019 0.6792 0.6885
C10_2 C 0.4386(8) 0.5598(11) 0.6564(5)
O11_2 O 0.4020(6) 0.4766(8) 0.6045(4)
O12 O 0.3883(7) 0.5645(10) 0.7241(5)
C11_2 C 0.5490(7) 0.7282(10) 0.4320(6)
C12_2 C 0.6485(8) 0.7440(11) 0.4904(6)
H14_2 H 0.7073 0.7449 0.4530
H15_2 H 0.6810 0.8168 0.5208
C13_2 C 0.1103(9) 0.6634(13) 0.1369(6)
H17_2 H 0.1858 0.7283 0.1279
H18_2 H 0.0773 0.6792 0.1885
C14_2 C 0.1212(7) 0.5598(11) 0.1564(5)
O16_2 O 0.1762(7) 0.5645(10) 0.2241(5)
H20_2 H 0.1358 0.8168 0.0208
C17_2 C 0.3366(13) 0.4469(9) 0.1369(6)
H22_2 H 0.2717 0.4575 0.1279
H23_2 H 0.3208 0.3981 0.1885
C18_2 C 0.4402(11) 0.5614(8) 0.1564(5)
O20_2 O 0.4355(10) 0.6117(7) 0.2241(5)
H25_2 H 0.1832 0.3190 0.0208
C21_2 C 0.5531(9) 0.8897(9) 0.1369(6)
H27_2 H 0.5425 0.8142 0.1279
H28_2 H 0.6019 0.9227 0.1885
C22_2 C 0.4386(8) 0.8788(7) 0.1564(5)
O24_2 O 0.3883(7) 0.8238(7) 0.2241(5)
H30_2 H 0.6810 0.8642 0.0208
La3 La 0.3333 0.6666 0.83048(4)
H38_2 H 0.364851 0.285131 0.487144
H39_2 H 0.426559 0.334707 0.389208
O14_2 O 0.2390(6) 0.8012(8) 0.8768(4)
C15_2 C 0.1792(7) 0.7282(10) 0.9320(6)
C16_2 C 0.0955(8) 0.7440(11) 0.9904(6)
H19_2 H 0.0376 0.7449 0.9530
O18_2 O 0.1988(8) 0.4378(6) 0.8768(4)
C19_2 C 0.2718(10) 0.4510(7) 0.9320(6)
C20_2 C 0.2560(11) 0.3515(8) 0.9904(6)
H24_2 H 0.2551 0.2927 0.9530
O22_2 O 0.5622(6) 0.7610(6) 0.8768(4)
C23_2 C 0.5490(7) 0.8208(7) 0.9320(6)
C24_2 C 0.6485(8) 0.9045(8) 0.9904(6)
H29_2 H 0.7073 0.9624 0.9530
H1_2 H 0.9743 0.3268 0.5764
H36_2 H 0.92028 0.635149 0.487144
H37_2 H 0.908148 0.573441 0.389208
H38_3 H 0.0797201 0.364851 0.512856
H39_3 H 0.0918522 0.426559 0.610792
H34_3 H 0.635149 0.714869 0.512856
H35_3 H 0.573441 0.665293 0.610792
H36_3 H 0.285131 0.92028 0.512856
H37_3 H 0.334707 0.908148 0.610792
H36_4 H 0.364851 0.0797201 0.987144
H37_4 H 0.426559 0.0918522 0.889208
H38_4 H 0.714869 0.635149 0.987144
H39_4 H 0.665293 0.573441 0.889208
H34_4 H 0.92028 0.285131 0.987144
H35_4 H 0.908148 0.334707 0.889208
loop_
_geom_bond_atom_site_label_1
_geom_bond_atom_site_label_2
_geom_bond_site_symmetry_1
_geom_bond_site_symmetry_2
N8 Cu2 1_555 1_555
O31 Cu2 1_555 1_555
N8 H34 1_555 1_555
N8 H35 1_555 1_555
O30 Cu2_2 1_555 1_555
La1 O1 1_555 1_555
Cu1 O1 1_555 1_555
O1 C3 1_555 1_555
O2 La1 1_555 1_555
C3 O2 1_555 1_555
H4 C4 1_555 1_555
O5 La1 1_555 1_555
O6 La1 1_555 1_555
C7 O5 1_555 1_555
H9 C8 1_555 1_555
O9 La1 1_555 1_555
O10 La1 1_555 1_555
C11 O9 1_555 1_555
H14 C12 1_555 1_555
O13 C15 1_555 1_555
O14 C15 1_555 1_555
C13 N4 1_555 1_555
H17 C13 1_555 1_555
H18 C13 1_555 1_555
C14 C13 1_555 1_555
O15 C14 1_555 1_555
O16 La1 1_555 1_555
C15 C16 1_555 1_555
C16 N4 1_555 1_555
H19 C16 1_555 1_555
H20 C16 1_555 1_555
O17 C19 1_555 1_555
N5 H21 1_555 1_555
O18 C19 1_555 1_555
C17 N5 1_555 1_555
H22 C17 1_555 1_555
H23 C17 1_555 1_555
C18 C17 1_555 1_555
O19 C18 1_555 1_555
O20 La1 1_555 1_555
C19 C20 1_555 1_555
C20 N5 1_555 1_555
H24 C20 1_555 1_555
H25 C20 1_555 1_555
O21 C23 1_555 1_555
O22 C23 1_555 1_555
C21 N6 1_555 1_555
H27 C21 1_555 1_555
H28 C21 1_555 1_555
C22 C21 1_555 1_555
O23 C22 1_555 1_555
O24 La1 1_555 1_555
C23 C24 1_555 1_555
C24 N6 1_555 1_555
H29 C24 1_555 1_555
H30 C24 1_555 1_555
La2 O13 1_555 1_555
Cu2_3 O5 1_555 1_555
Cu3 O9 1_555 1_555
Cu4 O13 1_555 1_555
Cu5 O17 1_555 1_555
Cu6_2 O21 1_555 1_555
O27 La2 1_555 1_555
O28 La2 1_555 1_555
O29 La2 1_555 1_555
N9 Cu3 1_555 1_555
O33 Cu3 1_555 1_555
H33 N9 1_555 1_555
C3 C4 1_555 1_555
O6 C7 1_555 1_555
C7 C8 1_555 1_555
O10 C11 1_555 1_555
C11 C12 1_555 1_555
N4 Cu4 1_555 1_555
O14 La2 1_555 1_555
C14 O16 1_555 1_555
O15 Cu4 1_555 1_555
O17 La2 1_555 1_555
N5 Cu5 1_555 1_555
O18 La2 1_555 1_555
C18 O20 1_555 1_555
O19 Cu5 1_555 1_555
O21 La2 1_555 1_555
N6 Cu6_2 1_555 1_555
O22 La2 1_555 1_555
C22 O24 1_555 1_555
O23 Cu6_2 1_555 1_555
N9 H38 1_555 1_555
N9 H39 1_555 1_555
N1 Cu1_2 1_555 1_555
C1 N1 1_555 1_555
H2 C1 1_555 1_555
H3 C1 1_555 1_555
C2 C1 1_555 1_555
O3 Cu1_2 1_555 1_555
O27 C2 1_555 1_555
C5 N2 1_555 1_555
H7 C5 1_555 1_555
H8 C5 1_555 1_555
C6 C5 1_555 1_555
O7 C6 1_555 1_555
O28 C6 1_555 1_555
N3 H11 1_555 1_555
C9 N3 1_555 1_555
H12 C9 1_555 1_555
H13 C9 1_555 1_555
C10 C9 1_555 1_555
O11 C10 1_555 1_555
O29 C10 1_555 1_555
O32 Cu3_2 1_555 1_555
C2 O3 1_555 1_555
N2 Cu2_4 1_555 1_555
O7 Cu2_4 1_555 1_555
N3 Cu3_2 1_555 1_555
O11 Cu3_2 1_555 1_555
N7 Cu1_3 1_555 1_555
O26 Cu1_3 1_555 1_555
N7 H36 1_555 1_555
N7 H37 1_555 1_555
O25 Cu1_4 1_555 1_555
N4 H34_2 1_555 1_555
N4 H35_2 1_555 1_555
La1_2 O1_2 1_555 1_555
Cu6 O1_2 1_555 1_555
O1_2 C3_2 1_555 1_555
N1_2 Cu6 1_555 1_555
O2_2 La1_2 1_555 1_555
C1_2 N1_2 1_555 1_555
H2_2 C1_2 1_555 1_555
H3_2 C1_2 1_555 1_555
C2_2 C1_2 1_555 1_555
O3_2 Cu6 1_555 1_555
O4 C2_2 1_555 1_555
C3_2 O2_2 1_555 1_555
C4_2 N1_2 1_555 1_555
H4_2 C4_2 1_555 1_555
H5_2 C4_2 1_555 1_555
O5_2 La1_2 1_555 1_555
O6_2 La1_2 1_555 1_555
C5_2 N2_2 1_555 1_555
H7_2 C5_2 1_555 1_555
H8_2 C5_2 1_555 1_555
C6_2 C5_2 1_555 1_555
O7_2 C6_2 1_555 1_555
O8 C6_2 1_555 1_555
C7_2 O5_2 1_555 1_555
C8_2 N2_2 1_555 1_555
H9_2 C8_2 1_555 1_555
H10_2 C8_2 1_555 1_555
O9_2 La1_2 1_555 1_555
N3_2 H11_2 1_555 1_555
O10_2 La1_2 1_555 1_555
C9_2 N3_2 1_555 1_555
H12_2 C9_2 1_555 1_555
H13_2 C9_2 1_555 1_555
C10_2 C9_2 1_555 1_555
O11_2 C10_2 1_555 1_555
O12 C10_2 1_555 1_555
C11_2 O9_2 1_555 1_555
C12_2 N3_2 1_555 1_555
H14_2 C12_2 1_555 1_555
H15_2 C12_2 1_555 1_555
C13_2 N8 1_555 1_555
H17_2 C13_2 1_555 1_555
H18_2 C13_2 1_555 1_555
C14_2 C13_2 1_555 1_555
O31 C14_2 1_555 1_555
O16_2 La1_2 1_555 1_555
C17_2 N9 1_555 1_555
H22_2 C17_2 1_555 1_555
H23_2 C17_2 1_555 1_555
C18_2 C17_2 1_555 1_555
O33 C18_2 1_555 1_555
O20_2 La1_2 1_555 1_555
C21_2 N7 1_555 1_555
H27_2 C21_2 1_555 1_555
H28_2 C21_2 1_555 1_555
C22_2 C21_2 1_555 1_555
O26 C22_2 1_555 1_555
O24_2 La1_2 1_555 1_555
Cu4_2 O5_2 1_555 1_555
Cu5 O9_2 1_555 1_555
La3 O4 1_555 1_555
C2_2 O3_2 1_555 1_555
C3_2 C4_2 1_555 1_555
N2_2 Cu4_2 1_555 1_555
O6_2 C7_2 1_555 1_555
O7_2 Cu4_2 1_555 1_555
O8 La3 1_555 1_555
C7_2 C8_2 1_555 1_555
N3_2 Cu5 1_555 1_555
O10_2 C11_2 1_555 1_555
O11_2 Cu5 1_555 1_555
O12 La3 1_555 1_555
C11_2 C12_2 1_555 1_555
C14_2 O16_2 1_555 1_555
C18_2 O20_2 1_555 1_555
C22_2 O24_2 1_555 1_555
N5 H38_2 1_555 1_555
N5 H39_2 1_555 1_555
O30 C15_2 1_555 1_555
O14_2 C15_2 1_555 1_555
C15_2 C16_2 1_555 1_555
H19_2 C16_2 1_555 1_555
O32 C19_2 1_555 1_555
O18_2 C19_2 1_555 1_555
C19_2 C20_2 1_555 1_555
H24_2 C20_2 1_555 1_555
O25 C23_2 1_555 1_555
O22_2 C23_2 1_555 1_555
C23_2 C24_2 1_555 1_555
H29_2 C24_2 1_555 1_555
La3 O30 1_555 1_555
O14_2 La3 1_555 1_555
O32 La3 1_555 1_555
O18_2 La3 1_555 1_555
O25 La3 1_555 1_555
O22_2 La3 1_555 1_555
N6 H36_2 1_555 1_555
N6 H37_2 1_555 1_555
N1_2 H38_3 1_555 1_555
N1_2 H39_3 1_555 1_555
N3_2 H34_3 1_555 1_555
N3_2 H35_3 1_555 1_555
N2_2 H36_3 1_555 1_555
N2_2 H37_3 1_555 1_555
N1 H36_4 1_555 1_555
N1 H37_4 1_555 1_555
N3 H38_4 1_555 1_555
N3 H39_4 1_555 1_555
N2 H34_4 1_555 1_555
N2 H35_4 1_555 1_555

#END
