
###############################################################################
#
# This file contains modified crystal structure data generated from the
# MOF subset of the Cambridge Structural Database (CSD) v543 
# hosted by the Cambridge Crystallographic Data Centre (CCDC).
#
# This work is licensed under the Creative Commons
# Attribution-NonCommercial-ShareAlike 4.0 International License.
# To view a copy of this license, visit
# http://creativecommons.org/licenses/by-nc-sa/4.0/
# or send a letter to
# Creative Commons, PO Box 1866, Mountain View, CA 94042, USA.
#
# CIF created using the CSD Python API on 29 September 2022
# The structure has been converted into the P1 space group
# The structure has a 3D framework
# The original CSD entry WUTBOC is in the trigonal crystal system
# The framework has been calculated to contain at least 10.0% void space
# The void calculation uses a probe of radius 1.32A, grid spacing 0.4
# H atom positions have been added when not included in the experimental data
#
###############################################################################

data_WUTBOC
_chemical_formula_moiety         '(C48 H84 Cu9 Eu4 N12 O48)n'
_symmetry_cell_setting           triclinic
_symmetry_space_group_name_H-M   'P 1'
_symmetry_Int_Tables_number      1
_space_group_name_Hall           'P 1'
loop_
_symmetry_equiv_pos_site_id
_symmetry_equiv_pos_as_xyz
1 x,y,z
_cell_length_a                   13.306(5)
_cell_length_b                   13.306(5)
_cell_length_c                   14.528(5)
_cell_angle_alpha                90
_cell_angle_beta                 90
_cell_angle_gamma                120
_cell_volume                     2227.57
loop_
_atom_site_label
_atom_site_type_symbol
_atom_site_fract_x
_atom_site_fract_y
_atom_site_fract_z
H16 H 0.0247 0.3493 0.4220
Cu3 Cu -0.0000 0.5000 0.0000
Cu4 Cu -0.0000 0.5000 0.5000
O33 O 0.0739(6) 0.5978(4) 0.1070(3)
N9 N 0.0417(6) 0.3883(4) 0.0584(3)
H38 H 0.0952522 0.426957 0.112792
H39 H 0.0822014 0.364167 0.0115314
H11 H 0.0247 0.6754 0.9220
Cu3_2 Cu -0.0000 0.5000 1.0000
O32 O 0.1873(6) 0.5481(4) 0.9421(3)
Eu1 Eu 0.6667 0.3333 0.16814(3)
Cu1 Cu 0.5000 0.5000 0.0000
O1 O 0.5481(4) 0.3608(4) 0.0579(3)
O2 O 0.4391(4) 0.1945(4) 0.1269(3)
C1 C 0.4532(5) 0.2694(5) 0.0699(4)
C2 C 0.3518(5) 0.2538(5) 0.0107(4)
H3 H 0.2927 0.2536 0.0499
O5 O 0.6392(4) 0.1873(6) 0.0579(3)
O6 O 0.8055(4) 0.2446(6) 0.1269(3)
C5 C 0.7306(5) 0.1838(7) 0.0699(4)
C6 C 0.7462(5) 0.0980(7) 0.0107(4)
H8 H 0.7464 0.0391 0.0499
O9 O 0.8127(6) 0.4519(4) 0.0579(3)
O10 O 0.7554(6) 0.5609(4) 0.1269(3)
C9 C 0.8162(7) 0.5468(5) 0.0699(4)
C10 C 0.9020(7) 0.6482(5) 0.0107(4)
H13 H 0.9609 0.7073 0.0499
O13 O 0.8127(6) 0.3608(4) 0.5579(3)
O14 O 0.7554(6) 0.1945(4) 0.6269(3)
O15 O 0.9261(6) 0.5239(4) 0.3930(3)
O16 O 0.8195(6) 0.4372(4) 0.2722(3)
N4 N 0.9583(6) 0.3466(4) 0.4416(3)
C13 C 0.8162(7) 0.2694(5) 0.5699(4)
C14 C 0.9020(7) 0.2538(5) 0.5107(4)
H17 H 0.8615 0.1794 0.4796
H18 H 0.9609 0.2536 0.5499
C15 C 0.8847(8) 0.3318(6) 0.3607(4)
H19 H 0.9166 0.3138 0.3073
H20 H 0.8075 0.2666 0.3715
C16 C 0.8758(7) 0.4376(5) 0.3406(4)
O17 O 0.5481(4) 0.1873(6) 0.5579(3)
O18 O 0.4391(4) 0.2446(6) 0.6269(3)
O19 O 0.5978(4) 0.0739(6) 0.3930(3)
O20 O 0.6177(4) 0.1805(6) 0.2722(3)
N5 N 0.3883(4) 0.0417(6) 0.4416(3)
C17 C 0.4532(5) 0.1838(7) 0.5699(4)
C18 C 0.3518(5) 0.0980(7) 0.5107(4)
H22 H 0.3179 0.1385 0.4796
H23 H 0.2927 0.0391 0.5499
C19 C 0.4471(6) 0.1153(8) 0.3607(4)
H24 H 0.3972 0.0834 0.3073
H25 H 0.4591 0.1925 0.3715
C20 C 0.5618(5) 0.1242(7) 0.3406(4)
O21 O 0.6392(4) 0.4519(4) 0.5579(3)
O22 O 0.8055(4) 0.5609(4) 0.6269(3)
O23 O 0.4761(4) 0.4022(4) 0.3930(3)
O24 O 0.5628(4) 0.3823(4) 0.2722(3)
N6 N 0.6534(4) 0.6117(4) 0.4416(3)
H26 H 0.6507 0.6754 0.4220
C21 C 0.7306(5) 0.5468(5) 0.5699(4)
C22 C 0.7462(5) 0.6482(5) 0.5107(4)
H27 H 0.8206 0.6821 0.4796
H28 H 0.7464 0.7073 0.5499
C23 C 0.6682(6) 0.5529(6) 0.3607(4)
H29 H 0.6862 0.6028 0.3073
H30 H 0.7334 0.5409 0.3715
C24 C 0.5624(5) 0.4382(5) 0.3406(4)
Eu2 Eu 0.6666 0.3333 0.66814(3)
Cu2 Cu 0.5000 0.0000 0.0000
Cu3_3 Cu 1.0000 0.5000 0.0000
O26 O 0.4022(4) 0.4761(4) 0.1070(3)
N7 N 0.6117(4) 0.6534(4) 0.0584(3)
Cu4_2 Cu 1.0000 0.5000 0.5000
Cu5 Cu 0.5000 0.0000 0.5000
Cu6 Cu 0.5000 0.5000 0.5000
O27 O 0.6177(4) 0.4372(4) 0.7722(3)
O28 O 0.5628(4) 0.1805(6) 0.7722(3)
O29 O 0.8195(6) 0.3823(4) 0.7722(3)
H31 H 0.6754 0.6507 0.0780
H32 H 0.3493 0.0247 0.0780
H33 H 0.9753 0.3246 0.0780
H34 H 0.573043 0.668295 0.112792
H35 H 0.635833 0.718034 0.0115314
Cu1_2 Cu 0.5000 0.5000 1.0000
O3 O 0.5978(4) 0.5239(4) 0.8930(3)
N1 N 0.3883(4) 0.3466(4) 0.9416(3)
H1 H 0.3246 0.3493 0.9220
H2 H 0.3179 0.1794 0.9796
C3 C 0.4471(6) 0.3318(6) 0.8607(4)
H4 H 0.3972 0.3138 0.8073
H5 H 0.4591 0.2666 0.8715
C4 C 0.5618(5) 0.4376(5) 0.8406(4)
O7 O 0.4761(4) 0.0739(6) 0.8930(3)
N2 N 0.6534(4) 0.0417(6) 0.9416(3)
H7 H 0.8206 0.1385 0.9796
C7 C 0.6682(6) 0.1153(8) 0.8607(4)
H9 H 0.6862 0.0834 0.8073
H10 H 0.7334 0.1925 0.8715
C8 C 0.5624(5) 0.1242(7) 0.8406(4)
O11 O 0.9261(6) 0.4022(4) 0.8930(3)
N3 N 0.9583(6) 0.6117(4) 0.9416(3)
H12 H 0.8615 0.6821 0.9796
C11 C 0.8847(8) 0.5529(6) 0.8607(4)
H14 H 0.9166 0.6028 0.8073
H15 H 0.8075 0.5409 0.8715
C12 C 0.8758(7) 0.4382(5) 0.8406(4)
Cu2_2 Cu 0.5000 0.0000 1.0000
Cu3_4 Cu 1.0000 0.5000 1.0000
O25 O 0.4519(4) 0.6392(4) 0.9421(3)
H21 H 0.3246 0.9753 0.4220
Cu2_3 Cu 0.5000 1.0000 0.0000
Cu5_2 Cu 0.5000 1.0000 0.5000
O31 O 0.5239(4) 0.9261(6) 0.1070(3)
N8 N 0.3466(4) 0.9583(6) 0.0584(3)
H36 H 0.331705 0.904748 0.112792
H37 H 0.281966 0.917799 0.0115314
H6 H 0.6507 0.9753 0.9220
Cu2_4 Cu 0.5000 1.0000 1.0000
O30 O 0.3608(4) 0.8127(6) 0.9421(3)
H11_2 H 0.6754 0.0247 0.5780
H38_2 H 0.426957 0.0952522 0.387208
H39_2 H 0.364167 0.0822014 0.488469
Eu1_2 Eu 0.3333 0.6667 0.33186(3)
O1_2 O 0.3608(4) 0.5481(4) 0.4421(3)
O2_2 O 0.1945(4) 0.4391(4) 0.3731(3)
O3_2 O 0.5239(4) 0.5978(4) 0.6070(3)
O4 O 0.4372(4) 0.6177(4) 0.7278(3)
N1_2 N 0.3466(4) 0.3883(4) 0.5584(3)
H1_2 H 0.3493 0.3246 0.5780
C1_2 C 0.2694(5) 0.4532(5) 0.4301(4)
C2_2 C 0.2538(5) 0.3518(5) 0.4893(4)
H2_2 H 0.1794 0.3179 0.5204
H3_2 H 0.2536 0.2927 0.4501
C3_2 C 0.3318(6) 0.4471(6) 0.6393(4)
H4_2 H 0.3138 0.3972 0.6927
H5_2 H 0.2666 0.4591 0.6285
C4_2 C 0.4376(5) 0.5618(5) 0.6594(4)
O5_2 O 0.1873(6) 0.6392(4) 0.4421(3)
O6_2 O 0.2446(6) 0.8055(4) 0.3731(3)
O7_2 O 0.0739(6) 0.4761(4) 0.6070(3)
O8 O 0.1805(6) 0.5628(4) 0.7278(3)
N2_2 N 0.0417(6) 0.6534(4) 0.5584(3)
C5_2 C 0.1838(7) 0.7306(5) 0.4301(4)
C6_2 C 0.0980(7) 0.7462(5) 0.4893(4)
H7_2 H 0.1385 0.8206 0.5204
H8_2 H 0.0391 0.7464 0.4501
C7_2 C 0.1153(8) 0.6682(6) 0.6393(4)
H9_2 H 0.0834 0.6862 0.6927
H10_2 H 0.1925 0.7334 0.6285
C8_2 C 0.1242(7) 0.5624(5) 0.6594(4)
O9_2 O 0.4519(4) 0.8127(6) 0.4421(3)
O10_2 O 0.5609(4) 0.7554(6) 0.3731(3)
O11_2 O 0.4022(4) 0.9261(6) 0.6070(3)
O12 O 0.3823(4) 0.8195(6) 0.7278(3)
N3_2 N 0.6117(4) 0.9583(6) 0.5584(3)
C9_2 C 0.5468(5) 0.8162(7) 0.4301(4)
C10_2 C 0.6482(5) 0.9020(7) 0.4893(4)
H12_2 H 0.6821 0.8615 0.5204
H13_2 H 0.7073 0.9609 0.4501
C11_2 C 0.5529(6) 0.8847(8) 0.6393(4)
H14_2 H 0.6028 0.9166 0.6927
H15_2 H 0.5409 0.8075 0.6285
C12_2 C 0.4382(5) 0.8758(7) 0.6594(4)
O16_2 O 0.4372(4) 0.8195(6) 0.2278(3)
H17_2 H 0.1794 0.8615 0.0204
C15_2 C 0.3318(6) 0.8847(8) 0.1393(4)
H19_2 H 0.3138 0.9166 0.1927
H20_2 H 0.2666 0.8075 0.1285
C16_2 C 0.4376(5) 0.8758(7) 0.1594(4)
O20_2 O 0.1805(6) 0.6177(4) 0.2278(3)
H22_2 H 0.1385 0.3179 0.0204
C19_2 C 0.1153(8) 0.4471(6) 0.1393(4)
H24_2 H 0.0834 0.3972 0.1927
H25_2 H 0.1925 0.4591 0.1285
C20_2 C 0.1242(7) 0.5618(5) 0.1594(4)
O24_2 O 0.3823(4) 0.5628(4) 0.2278(3)
H27_2 H 0.6821 0.8206 0.0204
C23_2 C 0.5529(6) 0.6682(6) 0.1393(4)
H29_2 H 0.6028 0.6862 0.1927
H30_2 H 0.5409 0.7334 0.1285
C24_2 C 0.4382(5) 0.5624(5) 0.1594(4)
Eu3 Eu 0.3333 0.6666 0.83186(3)
H34_2 H 0.668295 0.573043 0.387208
H35_2 H 0.718034 0.635833 0.488469
O14_2 O 0.1945(4) 0.7554(6) 0.8731(3)
C13_2 C 0.2694(5) 0.8162(7) 0.9301(4)
C14_2 C 0.2538(5) 0.9020(7) 0.9893(4)
H18_2 H 0.2536 0.9609 0.9501
O18_2 O 0.2446(6) 0.4391(4) 0.8731(3)
C17_2 C 0.1838(7) 0.4532(5) 0.9301(4)
C18_2 C 0.0980(7) 0.3518(5) 0.9893(4)
H23_2 H 0.0391 0.2927 0.9501
O22_2 O 0.5609(4) 0.8055(4) 0.8731(3)
C21_2 C 0.5468(5) 0.7306(5) 0.9301(4)
C22_2 C 0.6482(5) 0.7462(5) 0.9893(4)
H28_2 H 0.7073 0.7464 0.9501
H6_2 H 0.9753 0.6507 0.5780
H36_2 H 0.904748 0.331705 0.387208
H37_2 H 0.917799 0.281966 0.488469
H34_3 H 0.0952522 0.668295 0.612792
H35_3 H 0.0822014 0.718034 0.511531
H38_3 H 0.331705 0.426957 0.612792
H39_3 H 0.281966 0.364167 0.511531
H36_3 H 0.573043 0.904748 0.612792
H37_3 H 0.635833 0.917799 0.511531
H36_4 H 0.668295 0.0952522 0.887208
H37_4 H 0.718034 0.0822014 0.988469
H34_4 H 0.426957 0.331705 0.887208
H35_4 H 0.364167 0.281966 0.988469
H38_4 H 0.904748 0.573043 0.887208
H39_4 H 0.917799 0.635833 0.988469
loop_
_geom_bond_atom_site_label_1
_geom_bond_atom_site_label_2
_geom_bond_site_symmetry_1
_geom_bond_site_symmetry_2
O33 Cu3 1_555 1_555
N9 Cu3 1_555 1_555
N9 H38 1_555 1_555
N9 H39 1_555 1_555
O32 Cu3_2 1_555 1_555
Eu1 O1 1_555 1_555
Cu1 O1 1_555 1_555
O1 C1 1_555 1_555
O2 Eu1 1_555 1_555
C1 O2 1_555 1_555
H3 C2 1_555 1_555
O5 Eu1 1_555 1_555
O6 Eu1 1_555 1_555
C5 O5 1_555 1_555
H8 C6 1_555 1_555
O9 Eu1 1_555 1_555
O10 Eu1 1_555 1_555
C9 O9 1_555 1_555
H13 C10 1_555 1_555
O13 C13 1_555 1_555
O14 C13 1_555 1_555
O15 C16 1_555 1_555
O16 Eu1 1_555 1_555
C13 C14 1_555 1_555
C14 N4 1_555 1_555
H17 C14 1_555 1_555
H18 C14 1_555 1_555
C15 N4 1_555 1_555
H19 C15 1_555 1_555
H20 C15 1_555 1_555
C16 O16 1_555 1_555
O17 C17 1_555 1_555
O18 C17 1_555 1_555
O19 C20 1_555 1_555
O20 Eu1 1_555 1_555
C17 C18 1_555 1_555
C18 N5 1_555 1_555
H22 C18 1_555 1_555
H23 C18 1_555 1_555
C19 N5 1_555 1_555
H24 C19 1_555 1_555
H25 C19 1_555 1_555
C20 O20 1_555 1_555
O21 C21 1_555 1_555
O22 C21 1_555 1_555
O23 C24 1_555 1_555
O24 Eu1 1_555 1_555
N6 H26 1_555 1_555
C21 C22 1_555 1_555
C22 N6 1_555 1_555
H27 C22 1_555 1_555
H28 C22 1_555 1_555
C23 N6 1_555 1_555
H29 C23 1_555 1_555
H30 C23 1_555 1_555
C24 O24 1_555 1_555
Eu2 O13 1_555 1_555
Cu2 O5 1_555 1_555
Cu3_3 O9 1_555 1_555
O26 Cu1 1_555 1_555
N7 Cu1 1_555 1_555
Cu4_2 O13 1_555 1_555
Cu5 O17 1_555 1_555
Cu6 O21 1_555 1_555
O27 Eu2 1_555 1_555
O28 Eu2 1_555 1_555
O29 Eu2 1_555 1_555
H31 N7 1_555 1_555
C1 C2 1_555 1_555
O6 C5 1_555 1_555
C5 C6 1_555 1_555
O10 C9 1_555 1_555
C9 C10 1_555 1_555
O14 Eu2 1_555 1_555
O15 Cu4_2 1_555 1_555
N4 Cu4_2 1_555 1_555
C15 C16 1_555 1_555
O17 Eu2 1_555 1_555
O18 Eu2 1_555 1_555
O19 Cu5 1_555 1_555
N5 Cu5 1_555 1_555
C19 C20 1_555 1_555
O21 Eu2 1_555 1_555
O22 Eu2 1_555 1_555
O23 Cu6 1_555 1_555
N6 Cu6 1_555 1_555
C23 C24 1_555 1_555
N7 H34 1_555 1_555
N7 H35 1_555 1_555
O3 Cu1_2 1_555 1_555
O27 C4 1_555 1_555
N1 Cu1_2 1_555 1_555
H1 N1 1_555 1_555
C3 N1 1_555 1_555
H4 C3 1_555 1_555
H5 C3 1_555 1_555
C4 O3 1_555 1_555
O7 C8 1_555 1_555
O28 C8 1_555 1_555
C7 N2 1_555 1_555
H9 C7 1_555 1_555
H10 C7 1_555 1_555
C8 C7 1_555 1_555
O11 C12 1_555 1_555
O29 C12 1_555 1_555
C11 N3 1_555 1_555
H14 C11 1_555 1_555
H15 C11 1_555 1_555
C12 C11 1_555 1_555
O25 Cu1_2 1_555 1_555
C3 C4 1_555 1_555
O7 Cu2_2 1_555 1_555
N2 Cu2_2 1_555 1_555
O11 Cu3_4 1_555 1_555
N3 Cu3_4 1_555 1_555
O31 Cu2_3 1_555 1_555
N8 Cu2_3 1_555 1_555
N8 H36 1_555 1_555
N8 H37 1_555 1_555
O30 Cu2_4 1_555 1_555
N5 H38_2 1_555 1_555
N5 H39_2 1_555 1_555
Eu1_2 O1_2 1_555 1_555
Cu6 O1_2 1_555 1_555
O1_2 C1_2 1_555 1_555
O2_2 Eu1_2 1_555 1_555
O3_2 Cu6 1_555 1_555
O4 C4_2 1_555 1_555
N1_2 Cu6 1_555 1_555
H1_2 N1_2 1_555 1_555
C1_2 O2_2 1_555 1_555
C2_2 N1_2 1_555 1_555
H2_2 C2_2 1_555 1_555
H3_2 C2_2 1_555 1_555
C3_2 N1_2 1_555 1_555
H4_2 C3_2 1_555 1_555
H5_2 C3_2 1_555 1_555
C4_2 O3_2 1_555 1_555
O5_2 Eu1_2 1_555 1_555
O6_2 Eu1_2 1_555 1_555
O7_2 C8_2 1_555 1_555
O8 C8_2 1_555 1_555
C5_2 O5_2 1_555 1_555
C6_2 N2_2 1_555 1_555
H7_2 C6_2 1_555 1_555
H8_2 C6_2 1_555 1_555
C7_2 N2_2 1_555 1_555
H9_2 C7_2 1_555 1_555
H10_2 C7_2 1_555 1_555
C8_2 C7_2 1_555 1_555
O9_2 Eu1_2 1_555 1_555
O10_2 Eu1_2 1_555 1_555
O11_2 C12_2 1_555 1_555
O12 C12_2 1_555 1_555
C9_2 O9_2 1_555 1_555
C10_2 N3_2 1_555 1_555
H12_2 C10_2 1_555 1_555
H13_2 C10_2 1_555 1_555
C11_2 N3_2 1_555 1_555
H14_2 C11_2 1_555 1_555
H15_2 C11_2 1_555 1_555
C12_2 C11_2 1_555 1_555
O31 C16_2 1_555 1_555
O16_2 Eu1_2 1_555 1_555
C15_2 N8 1_555 1_555
H19_2 C15_2 1_555 1_555
H20_2 C15_2 1_555 1_555
C16_2 O16_2 1_555 1_555
O33 C20_2 1_555 1_555
O20_2 Eu1_2 1_555 1_555
C19_2 N9 1_555 1_555
H24_2 C19_2 1_555 1_555
H25_2 C19_2 1_555 1_555
C20_2 O20_2 1_555 1_555
O26 C24_2 1_555 1_555
O24_2 Eu1_2 1_555 1_555
C23_2 N7 1_555 1_555
H29_2 C23_2 1_555 1_555
H30_2 C23_2 1_555 1_555
C24_2 O24_2 1_555 1_555
Cu4 O5_2 1_555 1_555
Cu5_2 O9_2 1_555 1_555
Eu3 O4 1_555 1_555
C1_2 C2_2 1_555 1_555
C3_2 C4_2 1_555 1_555
O6_2 C5_2 1_555 1_555
O7_2 Cu4 1_555 1_555
O8 Eu3 1_555 1_555
N2_2 Cu4 1_555 1_555
C5_2 C6_2 1_555 1_555
O10_2 C9_2 1_555 1_555
O11_2 Cu5_2 1_555 1_555
O12 Eu3 1_555 1_555
N3_2 Cu5_2 1_555 1_555
C9_2 C10_2 1_555 1_555
C15_2 C16_2 1_555 1_555
C19_2 C20_2 1_555 1_555
C23_2 C24_2 1_555 1_555
N6 H34_2 1_555 1_555
N6 H35_2 1_555 1_555
O30 C13_2 1_555 1_555
O14_2 C13_2 1_555 1_555
C13_2 C14_2 1_555 1_555
H18_2 C14_2 1_555 1_555
O32 C17_2 1_555 1_555
O18_2 C17_2 1_555 1_555
C17_2 C18_2 1_555 1_555
H23_2 C18_2 1_555 1_555
O25 C21_2 1_555 1_555
O22_2 C21_2 1_555 1_555
C21_2 C22_2 1_555 1_555
H28_2 C22_2 1_555 1_555
Eu3 O30 1_555 1_555
O14_2 Eu3 1_555 1_555
O32 Eu3 1_555 1_555
O18_2 Eu3 1_555 1_555
O25 Eu3 1_555 1_555
O22_2 Eu3 1_555 1_555
N4 H36_2 1_555 1_555
N4 H37_2 1_555 1_555
N2_2 H34_3 1_555 1_555
N2_2 H35_3 1_555 1_555
N1_2 H38_3 1_555 1_555
N1_2 H39_3 1_555 1_555
N3_2 H36_3 1_555 1_555
N3_2 H37_3 1_555 1_555
N2 H36_4 1_555 1_555
N2 H37_4 1_555 1_555
N1 H34_4 1_555 1_555
N1 H35_4 1_555 1_555
N3 H38_4 1_555 1_555
N3 H39_4 1_555 1_555

#END
