
###############################################################################
#
# This file contains modified crystal structure data generated from the
# MOF subset of the Cambridge Structural Database (CSD) v543 
# hosted by the Cambridge Crystallographic Data Centre (CCDC).
#
# This work is licensed under the Creative Commons
# Attribution-NonCommercial-ShareAlike 4.0 International License.
# To view a copy of this license, visit
# http://creativecommons.org/licenses/by-nc-sa/4.0/
# or send a letter to
# Creative Commons, PO Box 1866, Mountain View, CA 94042, USA.
#
# CIF created using the CSD Python API on 29 September 2022
# The structure has been converted into the P1 space group
# The structure has a 3D framework
# The original CSD entry WUTBES is in the trigonal crystal system
# The framework has been calculated to contain at least 10.0% void space
# The void calculation uses a probe of radius 1.32A, grid spacing 0.4
# H atom positions have been added when not included in the experimental data
#
###############################################################################

data_WUTBES
_chemical_formula_moiety         '(C48 H84 Cu9 La4 N12 O48)n'
_symmetry_cell_setting           triclinic
_symmetry_space_group_name_H-M   'P 1'
_symmetry_Int_Tables_number      1
_space_group_name_Hall           'P 1'
loop_
_symmetry_equiv_pos_site_id
_symmetry_equiv_pos_as_xyz
1 x,y,z
_cell_length_a                   13.4713(19)
_cell_length_b                   13.4713(19)
_cell_length_c                   14.922(3)
_cell_angle_alpha                90
_cell_angle_beta                 90
_cell_angle_gamma                120
_cell_volume                     2345.18
loop_
_atom_site_label
_atom_site_type_symbol
_atom_site_fract_x
_atom_site_fract_y
_atom_site_fract_z
Cu1 Cu 0.5000 0.0000 0.0000
H5 H 0.6741 0.0260 0.0761
O25 O 0.5460(2) 0.1827(2) 0.05682(18)
Cu1_2 Cu 0.5000 0.0000 1.0000
H20 H 0.3519 0.0260 0.5761
O26 O 0.5974(2) 0.0740(2) 0.89543(17)
N7 N 0.3885(3) 0.0399(2) 0.94247(19)
Cu4 Cu 0.5000 0.0000 0.5000
H36 H 0.426228 0.0922182 0.889136
H37 H 0.364516 0.0801721 0.987735
Cu1_3 Cu 0.5000 1.0000 0.0000
O3 O 0.4026(2) 0.9260(2) 0.10457(17)
O4 O 0.3866(3) 0.8242(3) 0.22439(18)
H1 H 0.6799 0.8624 0.0224
C3 C 0.5542(3) 0.8882(4) 0.1367(2)
H3 H 0.6037 0.9205 0.1885
H4 H 0.5427 0.8120 0.1268
C4 C 0.4403(3) 0.8791(3) 0.1563(2)
N1 N 0.6115(3) 0.9601(2) 0.05753(19)
O7 O 0.0740(2) 0.4766(3) 0.10457(17)
O8 O 0.1758(3) 0.5624(4) 0.22439(18)
H6 H 0.1376 0.8175 0.0224
C7 C 0.1118(4) 0.6660(5) 0.1367(2)
H8 H 0.0795 0.6832 0.1885
H9 H 0.1880 0.7307 0.1268
C8 C 0.1209(3) 0.5612(4) 0.1563(2)
N2 N 0.0399(2) 0.6514(4) 0.05753(19)
O11 O 0.5234(3) 0.5974(2) 0.10457(17)
O12 O 0.4376(4) 0.6134(3) 0.22439(18)
H11 H 0.1825 0.3201 0.0224
C11 C 0.3340(5) 0.4458(3) 0.1367(2)
H13 H 0.3168 0.3963 0.1885
H14 H 0.2693 0.4573 0.1268
C12 C 0.4388(4) 0.5597(3) 0.1563(2)
N3 N 0.3486(4) 0.3885(3) 0.05753(19)
H15 H 0.3519 0.3259 0.0761
Cu2 Cu 0.0000 0.5000 0.0000
Cu3 Cu 0.5000 0.5000 0.0000
La3 La 0.3334 0.6667 0.330436(18)
O32 O 0.6367(3) 0.4540(2) 0.05682(18)
La1 La 0.3333 0.6667 0.830436(18)
Cu1_4 Cu 0.5000 1.0000 1.0000
O1 O 0.5622(3) 0.7592(2) 0.87702(17)
O2 O 0.4540(2) 0.8173(2) 0.94318(18)
C1 C 0.5485(3) 0.8204(3) 0.9332(2)
C2 C 0.6482(3) 0.9035(3) 0.9913(2)
H2 H 0.7078 0.9612 0.9536
O5 O 0.2408(2) 0.8030(4) 0.87702(17)
O6 O 0.1827(2) 0.6367(3) 0.94318(18)
C5 C 0.1796(3) 0.7281(4) 0.9332(2)
C6 C 0.0965(3) 0.7447(4) 0.9913(2)
H7 H 0.0388 0.7466 0.9536
O9 O 0.1970(4) 0.4378(3) 0.87702(17)
O10 O 0.3633(3) 0.5460(2) 0.94318(18)
C9 C 0.2719(4) 0.4515(3) 0.9332(2)
C10 C 0.2553(4) 0.3518(3) 0.9913(2)
H12 H 0.2534 0.2922 0.9536
O13 O 0.1970(4) 0.7592(2) 0.37702(17)
O14 O 0.3633(3) 0.8173(2) 0.44318(18)
O15 O 0.5234(3) 0.9260(2) 0.60457(17)
O16 O 0.4376(4) 0.8242(3) 0.72439(18)
C13 C 0.2719(4) 0.8204(3) 0.4332(2)
C14 C 0.2553(4) 0.9035(3) 0.4913(2)
H16 H 0.1825 0.8624 0.5224
H17 H 0.2534 0.9612 0.4536
C15 C 0.3340(5) 0.8882(4) 0.6367(2)
H18 H 0.3168 0.9205 0.6885
H19 H 0.2693 0.8120 0.6268
C16 C 0.4388(4) 0.8791(3) 0.6563(2)
N4 N 0.3486(4) 0.9601(2) 0.55753(19)
O17 O 0.5622(3) 0.8030(4) 0.37702(17)
O18 O 0.4540(2) 0.6367(3) 0.44318(18)
O19 O 0.4026(2) 0.4766(3) 0.60457(17)
O20 O 0.3866(3) 0.5624(4) 0.72439(18)
C17 C 0.5485(3) 0.7281(4) 0.4332(2)
C18 C 0.6482(3) 0.7447(4) 0.4913(2)
H21 H 0.6799 0.8175 0.5224
H22 H 0.7078 0.7466 0.4536
C19 C 0.5542(3) 0.6660(5) 0.6367(2)
H23 H 0.6037 0.6832 0.6885
H24 H 0.5427 0.7307 0.6268
C20 C 0.4403(3) 0.5612(4) 0.6563(2)
N5 N 0.6115(3) 0.6514(4) 0.55753(19)
H25 H 0.6741 0.6481 0.5761
O21 O 0.2408(2) 0.4378(3) 0.37702(17)
O22 O 0.1827(2) 0.5460(2) 0.44318(18)
O23 O 0.0740(2) 0.5974(2) 0.60457(17)
O24 O 0.1758(3) 0.6134(3) 0.72439(18)
C21 C 0.1796(3) 0.4515(3) 0.4332(2)
C22 C 0.0965(3) 0.3518(3) 0.4913(2)
H26 H 0.1376 0.3201 0.5224
H27 H 0.0388 0.2922 0.4536
C23 C 0.1118(4) 0.4458(3) 0.6367(2)
H28 H 0.0795 0.3963 0.6885
H29 H 0.1880 0.4573 0.6268
C24 C 0.1209(3) 0.5597(3) 0.6563(2)
N6 N 0.0399(2) 0.3885(3) 0.55753(19)
Cu2_2 Cu 0.0000 0.5000 1.0000
Cu3_2 Cu 0.5000 0.5000 1.0000
Cu4_2 Cu 0.5000 1.0000 0.5000
Cu5 Cu 0.5000 0.5000 0.5000
Cu6 Cu 0.0000 0.5000 0.5000
O33 O 0.4766(3) 0.4026(2) 0.89543(17)
N9 N 0.6514(4) 0.6115(3) 0.94247(19)
H31 H 0.3259 0.9740 0.9239
H32 H 0.0260 0.3519 0.9239
H33 H 0.6481 0.6741 0.9239
H38 H 0.66599 0.573772 0.889136
H39 H 0.715656 0.635484 0.987735
H10 H 0.9740 0.6481 0.0761
Cu2_3 Cu 1.0000 0.5000 0.0000
O30 O 0.8173(2) 0.3633(3) 0.05682(18)
H30 H 0.9740 0.3259 0.5761
Cu2_4 Cu 1.0000 0.5000 1.0000
Cu6_2 Cu 1.0000 0.5000 0.5000
O31 O 0.9260(2) 0.5234(3) 0.89543(17)
N8 N 0.9601(2) 0.3486(4) 0.94247(19)
H34 H 0.907782 0.33401 0.889136
H35 H 0.919828 0.284344 0.987735
H5_2 H 0.0260 0.6741 0.4239
H36_2 H 0.0922182 0.426228 0.610864
H37_2 H 0.0801721 0.364516 0.512265
O13_2 O 0.7592(2) 0.1970(4) 0.12298(17)
C13_2 C 0.8204(3) 0.2719(4) 0.0668(2)
C14_2 C 0.9035(3) 0.2553(4) 0.0087(2)
H17_2 H 0.9612 0.2534 0.0464
O17_2 O 0.8030(4) 0.5622(3) 0.12298(17)
C17_2 C 0.7281(4) 0.5485(3) 0.0668(2)
C18_2 C 0.7447(4) 0.6482(3) 0.0087(2)
H22_2 H 0.7466 0.7078 0.0464
O21_2 O 0.4378(3) 0.2408(2) 0.12298(17)
C21_2 C 0.4515(3) 0.1796(3) 0.0668(2)
C22_2 C 0.3518(3) 0.0965(3) 0.0087(2)
H27_2 H 0.2922 0.0388 0.0464
La2 La 0.6667 0.3334 0.169564(18)
O27 O 0.8242(3) 0.3866(3) 0.27561(18)
O28 O 0.5624(4) 0.1758(3) 0.27561(18)
O29 O 0.6134(3) 0.4376(4) 0.27561(18)
La1_2 La 0.6667 0.3333 0.669564(18)
O1_2 O 0.7592(2) 0.5622(3) 0.62298(17)
O2_2 O 0.8173(2) 0.4540(2) 0.55682(18)
O3_2 O 0.9260(2) 0.4026(2) 0.39543(17)
C1_2 C 0.8204(3) 0.5485(3) 0.5668(2)
C2_2 C 0.9035(3) 0.6482(3) 0.5087(2)
H1_2 H 0.8624 0.6799 0.4776
H2_2 H 0.9612 0.7078 0.5464
C3_2 C 0.8882(4) 0.5542(3) 0.3633(2)
H3_2 H 0.9205 0.6037 0.3115
H4_2 H 0.8120 0.5427 0.3732
C4_2 C 0.8791(3) 0.4403(3) 0.3437(2)
N1_2 N 0.9601(2) 0.6115(3) 0.44247(19)
O5_2 O 0.8030(4) 0.2408(2) 0.62298(17)
O6_2 O 0.6367(3) 0.1827(2) 0.55682(18)
O7_2 O 0.4766(3) 0.0740(2) 0.39543(17)
C5_2 C 0.7281(4) 0.1796(3) 0.5668(2)
C6_2 C 0.7447(4) 0.0965(3) 0.5087(2)
H6_2 H 0.8175 0.1376 0.4776
H7_2 H 0.7466 0.0388 0.5464
C7_2 C 0.6660(5) 0.1118(4) 0.3633(2)
H8_2 H 0.6832 0.0795 0.3115
H9_2 H 0.7307 0.1880 0.3732
C8_2 C 0.5612(4) 0.1209(3) 0.3437(2)
N2_2 N 0.6514(4) 0.0399(2) 0.44247(19)
O9_2 O 0.4378(3) 0.1970(4) 0.62298(17)
O10_2 O 0.5460(2) 0.3633(3) 0.55682(18)
O11_2 O 0.5974(2) 0.5234(3) 0.39543(17)
C9_2 C 0.4515(3) 0.2719(4) 0.5668(2)
C10_2 C 0.3518(3) 0.2553(4) 0.5087(2)
H11_2 H 0.3201 0.1825 0.4776
H12_2 H 0.2922 0.2534 0.5464
C11_2 C 0.4458(3) 0.3340(5) 0.3633(2)
H13_2 H 0.3963 0.3168 0.3115
H14_2 H 0.4573 0.2693 0.3732
C12_2 C 0.5597(3) 0.4388(4) 0.3437(2)
N3_2 N 0.3885(3) 0.3486(4) 0.44247(19)
H15_2 H 0.3259 0.3519 0.4239
O16_2 O 0.8242(3) 0.4376(4) 0.77561(18)
H16_2 H 0.8624 0.1825 0.9776
C15_2 C 0.8882(4) 0.3340(5) 0.8633(2)
H18_2 H 0.9205 0.3168 0.8115
H19_2 H 0.8120 0.2693 0.8732
C16_2 C 0.8791(3) 0.4388(4) 0.8437(2)
O20_2 O 0.5624(4) 0.3866(3) 0.77561(18)
H21_2 H 0.8175 0.6799 0.9776
C19_2 C 0.6660(5) 0.5542(3) 0.8633(2)
H23_2 H 0.6832 0.6037 0.8115
H24_2 H 0.7307 0.5427 0.8732
C20_2 C 0.5612(4) 0.4403(3) 0.8437(2)
O24_2 O 0.6134(3) 0.1758(3) 0.77561(18)
H26_2 H 0.3201 0.1376 0.9776
C23_2 C 0.4458(3) 0.1118(4) 0.8633(2)
H28_2 H 0.3963 0.0795 0.8115
H29_2 H 0.4573 0.1880 0.8732
C24_2 C 0.5597(3) 0.1209(3) 0.8437(2)
H38_2 H 0.573772 0.66599 0.610864
H39_2 H 0.635484 0.715656 0.512265
H10_2 H 0.6481 0.9740 0.4239
H34_2 H 0.33401 0.907782 0.610864
H35_2 H 0.284344 0.919828 0.512265
H36_3 H 0.66599 0.0922182 0.389136
H37_3 H 0.715656 0.0801721 0.487735
H34_3 H 0.426228 0.33401 0.389136
H35_3 H 0.364516 0.284344 0.487735
H38_3 H 0.907782 0.573772 0.389136
H39_3 H 0.919828 0.635484 0.487735
H34_4 H 0.0922182 0.66599 0.110864
H35_4 H 0.0801721 0.715656 0.0122654
H38_4 H 0.33401 0.426228 0.110864
H39_4 H 0.284344 0.364516 0.0122654
H36_4 H 0.573772 0.907782 0.110864
H37_4 H 0.635484 0.919828 0.0122654
loop_
_geom_bond_atom_site_label_1
_geom_bond_atom_site_label_2
_geom_bond_site_symmetry_1
_geom_bond_site_symmetry_2
O25 Cu1 1_555 1_555
O26 Cu1_2 1_555 1_555
N7 Cu1_2 1_555 1_555
N7 H36 1_555 1_555
N7 H37 1_555 1_555
O3 Cu1_3 1_555 1_555
O4 C4 1_555 1_555
C3 H3 1_555 1_555
H4 C3 1_555 1_555
C4 O3 1_555 1_555
N1 Cu1_3 1_555 1_555
O7 C8 1_555 1_555
O8 C8 1_555 1_555
C7 H8 1_555 1_555
H9 C7 1_555 1_555
C8 C7 1_555 1_555
O11 C12 1_555 1_555
O12 C12 1_555 1_555
C11 H13 1_555 1_555
H14 C11 1_555 1_555
C12 C11 1_555 1_555
H15 N3 1_555 1_555
La3 O4 1_555 1_555
O32 Cu3 1_555 1_555
C3 N1 1_555 1_555
C3 C4 1_555 1_555
O7 Cu2 1_555 1_555
O8 La3 1_555 1_555
C7 N2 1_555 1_555
N2 Cu2 1_555 1_555
O11 Cu3 1_555 1_555
O12 La3 1_555 1_555
C11 N3 1_555 1_555
N3 Cu3 1_555 1_555
La1 O1 1_555 1_555
Cu1_4 O2 1_555 1_555
O1 C1 1_555 1_555
O2 La1 1_555 1_555
C1 O2 1_555 1_555
C2 C1 1_555 1_555
H2 C2 1_555 1_555
O5 La1 1_555 1_555
O6 La1 1_555 1_555
C5 O5 1_555 1_555
C6 C5 1_555 1_555
H7 C6 1_555 1_555
O9 La1 1_555 1_555
O10 La1 1_555 1_555
C9 O9 1_555 1_555
C10 C9 1_555 1_555
H12 C10 1_555 1_555
O13 C13 1_555 1_555
O14 C13 1_555 1_555
O15 C16 1_555 1_555
O16 La1 1_555 1_555
C13 C14 1_555 1_555
C14 H16 1_555 1_555
H17 C14 1_555 1_555
C15 H18 1_555 1_555
H19 C15 1_555 1_555
C16 O16 1_555 1_555
N4 C14 1_555 1_555
O17 C17 1_555 1_555
O18 C17 1_555 1_555
O19 C20 1_555 1_555
O20 La1 1_555 1_555
C17 C18 1_555 1_555
C18 H21 1_555 1_555
H22 C18 1_555 1_555
C19 H23 1_555 1_555
H24 C19 1_555 1_555
C20 O20 1_555 1_555
N5 C18 1_555 1_555
H25 N5 1_555 1_555
O21 C21 1_555 1_555
O22 C21 1_555 1_555
O23 C24 1_555 1_555
O24 La1 1_555 1_555
C21 C22 1_555 1_555
C22 H26 1_555 1_555
H27 C22 1_555 1_555
C23 H28 1_555 1_555
H29 C23 1_555 1_555
C24 O24 1_555 1_555
N6 C22 1_555 1_555
La3 O13 1_555 1_555
Cu2_2 O6 1_555 1_555
Cu3_2 O10 1_555 1_555
Cu4_2 O14 1_555 1_555
Cu5 O18 1_555 1_555
Cu6 O22 1_555 1_555
O33 Cu3_2 1_555 1_555
N9 Cu3_2 1_555 1_555
H33 N9 1_555 1_555
O6 C5 1_555 1_555
O10 C9 1_555 1_555
O14 La3 1_555 1_555
O15 Cu4_2 1_555 1_555
C15 N4 1_555 1_555
C15 C16 1_555 1_555
N4 Cu4_2 1_555 1_555
O17 La3 1_555 1_555
O18 La3 1_555 1_555
O19 Cu5 1_555 1_555
C19 N5 1_555 1_555
C19 C20 1_555 1_555
N5 Cu5 1_555 1_555
O21 La3 1_555 1_555
O22 La3 1_555 1_555
O23 Cu6 1_555 1_555
C23 N6 1_555 1_555
C23 C24 1_555 1_555
N6 Cu6 1_555 1_555
N9 H38 1_555 1_555
N9 H39 1_555 1_555
O30 Cu2_3 1_555 1_555
O31 Cu2_4 1_555 1_555
N8 Cu2_4 1_555 1_555
N8 H34 1_555 1_555
N8 H35 1_555 1_555
N6 H36_2 1_555 1_555
N6 H37_2 1_555 1_555
O13_2 C13_2 1_555 1_555
O30 C13_2 1_555 1_555
C13_2 C14_2 1_555 1_555
H17_2 C14_2 1_555 1_555
O17_2 C17_2 1_555 1_555
O32 C17_2 1_555 1_555
C17_2 C18_2 1_555 1_555
H22_2 C18_2 1_555 1_555
O21_2 C21_2 1_555 1_555
O25 C21_2 1_555 1_555
C21_2 C22_2 1_555 1_555
H27_2 C22_2 1_555 1_555
La2 O13_2 1_555 1_555
O27 La2 1_555 1_555
O28 La2 1_555 1_555
O29 La2 1_555 1_555
O30 La2 1_555 1_555
O17_2 La2 1_555 1_555
O32 La2 1_555 1_555
O21_2 La2 1_555 1_555
O25 La2 1_555 1_555
La1_2 O1_2 1_555 1_555
Cu6_2 O2_2 1_555 1_555
O1_2 C1_2 1_555 1_555
O2_2 La1_2 1_555 1_555
O3_2 Cu6_2 1_555 1_555
O27 C4_2 1_555 1_555
C1_2 O2_2 1_555 1_555
C2_2 C1_2 1_555 1_555
H1_2 C2_2 1_555 1_555
H2_2 C2_2 1_555 1_555
C3_2 H3_2 1_555 1_555
H4_2 C3_2 1_555 1_555
C4_2 O3_2 1_555 1_555
N1_2 Cu6_2 1_555 1_555
O5_2 La1_2 1_555 1_555
O6_2 La1_2 1_555 1_555
O7_2 C8_2 1_555 1_555
O28 C8_2 1_555 1_555
C5_2 O5_2 1_555 1_555
C6_2 C5_2 1_555 1_555
H6_2 C6_2 1_555 1_555
H7_2 C6_2 1_555 1_555
C7_2 H8_2 1_555 1_555
H9_2 C7_2 1_555 1_555
C8_2 C7_2 1_555 1_555
N2_2 C6_2 1_555 1_555
O9_2 La1_2 1_555 1_555
O10_2 La1_2 1_555 1_555
O11_2 C12_2 1_555 1_555
O29 C12_2 1_555 1_555
C9_2 O9_2 1_555 1_555
C10_2 C9_2 1_555 1_555
H11_2 C10_2 1_555 1_555
H12_2 C10_2 1_555 1_555
C11_2 H13_2 1_555 1_555
H14_2 C11_2 1_555 1_555
C12_2 C11_2 1_555 1_555
N3_2 C10_2 1_555 1_555
H15_2 N3_2 1_555 1_555
O31 C16_2 1_555 1_555
O16_2 La1_2 1_555 1_555
C15_2 H18_2 1_555 1_555
H19_2 C15_2 1_555 1_555
C16_2 O16_2 1_555 1_555
O33 C20_2 1_555 1_555
O20_2 La1_2 1_555 1_555
C19_2 H23_2 1_555 1_555
H24_2 C19_2 1_555 1_555
C20_2 O20_2 1_555 1_555
O26 C24_2 1_555 1_555
O24_2 La1_2 1_555 1_555
C23_2 H28_2 1_555 1_555
H29_2 C23_2 1_555 1_555
C24_2 O24_2 1_555 1_555
Cu4 O6_2 1_555 1_555
Cu5 O10_2 1_555 1_555
C2_2 N1_2 1_555 1_555
C3_2 N1_2 1_555 1_555
C3_2 C4_2 1_555 1_555
O6_2 C5_2 1_555 1_555
O7_2 Cu4 1_555 1_555
C7_2 N2_2 1_555 1_555
N2_2 Cu4 1_555 1_555
O10_2 C9_2 1_555 1_555
O11_2 Cu5 1_555 1_555
C11_2 N3_2 1_555 1_555
N3_2 Cu5 1_555 1_555
C15_2 N8 1_555 1_555
C15_2 C16_2 1_555 1_555
C19_2 N9 1_555 1_555
C19_2 C20_2 1_555 1_555
C23_2 N7 1_555 1_555
C23_2 C24_2 1_555 1_555
N5 H38_2 1_555 1_555
N5 H39_2 1_555 1_555
N4 H34_2 1_555 1_555
N4 H35_2 1_555 1_555
N2_2 H36_3 1_555 1_555
N2_2 H37_3 1_555 1_555
N3_2 H34_3 1_555 1_555
N3_2 H35_3 1_555 1_555
N1_2 H38_3 1_555 1_555
N1_2 H39_3 1_555 1_555
N2 H34_4 1_555 1_555
N2 H35_4 1_555 1_555
N3 H38_4 1_555 1_555
N3 H39_4 1_555 1_555
N1 H36_4 1_555 1_555
N1 H37_4 1_555 1_555

#END
