
###############################################################################
#
# This file contains modified crystal structure data generated from the
# MOF subset of the Cambridge Structural Database (CSD) v543 
# hosted by the Cambridge Crystallographic Data Centre (CCDC).
#
# This work is licensed under the Creative Commons
# Attribution-NonCommercial-ShareAlike 4.0 International License.
# To view a copy of this license, visit
# http://creativecommons.org/licenses/by-nc-sa/4.0/
# or send a letter to
# Creative Commons, PO Box 1866, Mountain View, CA 94042, USA.
#
# CIF created using the CSD Python API on 29 September 2022
# The structure has been converted into the P1 space group
# The structure has a 3D framework
# The original CSD entry WUTBIW is in the trigonal crystal system
# The framework has been calculated to contain at least 10.0% void space
# The void calculation uses a probe of radius 1.32A, grid spacing 0.4
# H atom positions have been added when not included in the experimental data
#
###############################################################################

data_WUTBIW
_chemical_formula_moiety         '(C48 H84 Cu9 N12 Nd4 O48)n'
_symmetry_cell_setting           triclinic
_symmetry_space_group_name_H-M   'P 1'
_symmetry_Int_Tables_number      1
_space_group_name_Hall           'P 1'
loop_
_symmetry_equiv_pos_site_id
_symmetry_equiv_pos_as_xyz
1 x,y,z
_cell_length_a                   13.4027(19)
_cell_length_b                   13.4027(19)
_cell_length_c                   14.669(3)
_cell_angle_alpha                90
_cell_angle_beta                 90
_cell_angle_gamma                120
_cell_volume                     2282
loop_
_atom_site_label
_atom_site_type_symbol
_atom_site_fract_x
_atom_site_fract_y
_atom_site_fract_z
Cu1 Cu -0.0000 0.5000 0.0000
H23 H 0.0248 0.6737 0.4227
N7 N 0.0411(2) 0.6517(2) 0.05801(18)
O26 O 0.0741(2) 0.4761(2) 0.10552(16)
Cu5 Cu 0.0000 0.5000 0.5000
H36 H 0.081444 0.716048 0.0117549
H37 H 0.094092 0.666302 0.111968
Cu1_2 Cu -0.0000 0.5000 1.0000
H3 H 0.0248 0.3511 0.9227
O25 O 0.1848(2) 0.6370(2) 0.94309(16)
Nd1 Nd 0.6667 0.3333 0.168890(16)
Cu1_3 Cu 1.0000 0.5000 0.0000
O1 O 0.75766(18) 0.19668(19) 0.12408(16)
O2 O 0.8152(2) 0.3630(2) 0.05691(16)
C1 C 0.8182(3) 0.2713(3) 0.0678(2)
C2 C 0.9018(3) 0.2539(3) 0.0096(2)
H1 H 0.9596 0.2521 0.0481
O5 O 0.80332(19) 0.56098(26) 0.12408(16)
O6 O 0.6370(2) 0.4522(3) 0.05691(16)
C5 C 0.7287(3) 0.5469(4) 0.0678(2)
C6 C 0.7461(3) 0.6479(4) 0.0096(2)
H6 H 0.7479 0.7075 0.0481
O9 O 0.43902(26) 0.24234(18) 0.12408(16)
O10 O 0.5478(3) 0.1848(2) 0.05691(16)
C9 C 0.4531(4) 0.1818(3) 0.0678(2)
C10 C 0.3521(4) 0.0982(3) 0.0096(2)
H11 H 0.2925 0.0404 0.0481
O13 O 0.43902(26) 0.19668(19) 0.62408(16)
O14 O 0.5478(3) 0.3630(2) 0.55691(16)
C13 C 0.4531(4) 0.2713(3) 0.5678(2)
C14 C 0.3521(4) 0.2539(3) 0.5096(2)
H16 H 0.2925 0.2521 0.5481
H17 H 0.3200 0.1805 0.4783
N4 N 0.3894(3) 0.3483(2) 0.44199(18)
H18 H 0.3263 0.3511 0.4227
C15 C 0.4470(4) 0.3328(3) 0.3624(2)
H19 H 0.4589 0.2681 0.3732
H20 H 0.3973 0.3147 0.3098
C16 C 0.5605(4) 0.4379(3) 0.34280(19)
O15 O 0.5980(3) 0.5239(2) 0.39448(16)
O16 O 0.6150(3) 0.4367(2) 0.27439(17)
O17 O 0.75766(18) 0.56098(26) 0.62408(16)
O18 O 0.8152(2) 0.4522(3) 0.55691(16)
C17 C 0.8182(3) 0.5469(4) 0.5678(2)
C18 C 0.9018(3) 0.6479(4) 0.5096(2)
H21 H 0.9596 0.7075 0.5481
H22 H 0.8605 0.6800 0.4783
N5 N 0.9589(2) 0.6106(3) 0.44199(18)
C19 C 0.8858(3) 0.5530(4) 0.3624(2)
H24 H 0.8092 0.5411 0.3732
H25 H 0.9174 0.6027 0.3098
C20 C 0.8774(2) 0.4395(4) 0.34280(19)
O19 O 0.9259(2) 0.4020(3) 0.39448(16)
O20 O 0.8217(2) 0.3850(3) 0.27439(17)
O21 O 0.80332(19) 0.24234(18) 0.62408(16)
O22 O 0.6370(2) 0.1848(2) 0.55691(16)
C21 C 0.7287(3) 0.1818(3) 0.5678(2)
C22 C 0.7461(3) 0.0982(3) 0.5096(2)
H26 H 0.7479 0.0404 0.5481
H27 H 0.8195 0.1395 0.4783
N6 N 0.6517(2) 0.0411(2) 0.44199(18)
C23 C 0.6672(3) 0.1142(3) 0.3624(2)
H29 H 0.7319 0.1908 0.3732
H30 H 0.6853 0.0826 0.3098
C24 C 0.5621(3) 0.1226(2) 0.34280(19)
O23 O 0.4761(2) 0.0741(2) 0.39448(16)
O24 O 0.5633(2) 0.1783(2) 0.27439(17)
Nd2 Nd 0.6666 0.3333 0.668890(16)
Cu2 Cu 0.5000 0.5000 0.0000
Cu3 Cu 0.5000 0.0000 0.0000
Cu4 Cu 0.5000 0.5000 0.5000
Cu5_2 Cu 1.0000 0.5000 0.5000
Cu6 Cu 0.5000 -0.0000 0.5000
O27 O 0.8217(2) 0.4367(2) 0.77439(17)
O28 O 0.5633(2) 0.3850(3) 0.77439(17)
O29 O 0.6150(3) 0.1783(2) 0.77439(17)
N8 N 0.3483(2) 0.3894(3) 0.05801(18)
O31 O 0.5239(2) 0.5980(3) 0.10552(16)
H31 H 0.9752 0.6489 0.0773
H32 H 0.3511 0.3263 0.0773
H33 H 0.6737 0.0248 0.0773
H38 H 0.283952 0.365396 0.0117549
H39 H 0.333698 0.42779 0.111968
Cu1_4 Cu 1.0000 0.5000 1.0000
H2 H 0.8605 0.1805 0.9783
N1 N 0.9589(2) 0.3483(2) 0.94199(18)
C3 C 0.8858(3) 0.3328(3) 0.8624(2)
H4 H 0.8092 0.2681 0.8732
H5 H 0.9174 0.3147 0.8098
C4 C 0.8774(2) 0.4379(3) 0.84280(19)
O3 O 0.9259(2) 0.5239(2) 0.89448(16)
H7 H 0.8195 0.6800 0.9783
N2 N 0.6517(2) 0.6106(3) 0.94199(18)
H8 H 0.6489 0.6737 0.9227
C7 C 0.6672(3) 0.5530(4) 0.8624(2)
H9 H 0.7319 0.5411 0.8732
H10 H 0.6853 0.6027 0.8098
C8 C 0.5621(3) 0.4395(4) 0.84280(19)
O7 O 0.4761(2) 0.4020(3) 0.89448(16)
H12 H 0.3200 0.1395 0.9783
N3 N 0.3894(3) 0.0411(2) 0.94199(18)
C11 C 0.4470(4) 0.1142(3) 0.8624(2)
H14 H 0.4589 0.1908 0.8732
H15 H 0.3973 0.0826 0.8098
C12 C 0.5605(4) 0.1226(2) 0.84280(19)
O11 O 0.5980(3) 0.0741(2) 0.89448(16)
Cu2_2 Cu 0.5000 0.5000 1.0000
Cu3_2 Cu 0.5000 -0.0000 1.0000
O30 O 0.3630(2) 0.5478(3) 0.94309(16)
H28 H 0.6489 0.9752 0.4227
Cu3_3 Cu 0.5000 1.0000 0.0000
Cu6_2 Cu 0.5000 1.0000 0.5000
N9 N 0.6106(3) 0.9589(2) 0.05801(18)
O33 O 0.4020(3) 0.9259(2) 0.10552(16)
H34 H 0.634604 0.918556 0.0117549
H35 H 0.57221 0.905908 0.111968
H13 H 0.3263 0.9752 0.9227
Cu3_4 Cu 0.5000 1.0000 1.0000
O32 O 0.4522(3) 0.8152(2) 0.94309(16)
H3_2 H 0.3511 0.0248 0.5773
H36_2 H 0.716048 0.081444 0.488245
H37_2 H 0.666302 0.094092 0.388032
Nd1_2 Nd 0.3333 0.6667 0.331110(16)
O1_2 O 0.19668(19) 0.75766(18) 0.37592(16)
O2_2 O 0.3630(2) 0.8152(2) 0.44309(16)
C1_2 C 0.2713(3) 0.8182(3) 0.4322(2)
C2_2 C 0.2539(3) 0.9018(3) 0.4904(2)
H1_2 H 0.2521 0.9596 0.4519
H2_2 H 0.1805 0.8605 0.5217
N1_2 N 0.3483(2) 0.9589(2) 0.55801(18)
C3_2 C 0.3328(3) 0.8858(3) 0.6376(2)
H4_2 H 0.2681 0.8092 0.6268
H5_2 H 0.3147 0.9174 0.6902
C4_2 C 0.4379(3) 0.8774(2) 0.65720(19)
O3_2 O 0.5239(2) 0.9259(2) 0.60552(16)
O4 O 0.4367(2) 0.8217(2) 0.72561(17)
O5_2 O 0.56098(26) 0.80332(19) 0.37592(16)
O6_2 O 0.4522(3) 0.6370(2) 0.44309(16)
C5_2 C 0.5469(4) 0.7287(3) 0.4322(2)
C6_2 C 0.6479(4) 0.7461(3) 0.4904(2)
H6_2 H 0.7075 0.7479 0.4519
H7_2 H 0.6800 0.8195 0.5217
N2_2 N 0.6106(3) 0.6517(2) 0.55801(18)
H8_2 H 0.6737 0.6489 0.5773
C7_2 C 0.5530(4) 0.6672(3) 0.6376(2)
H9_2 H 0.5411 0.7319 0.6268
H10_2 H 0.6027 0.6853 0.6902
C8_2 C 0.4395(4) 0.5621(3) 0.65720(19)
O7_2 O 0.4020(3) 0.4761(2) 0.60552(16)
O8 O 0.3850(3) 0.5633(2) 0.72561(17)
O9_2 O 0.24234(18) 0.43902(26) 0.37592(16)
O10_2 O 0.1848(2) 0.5478(3) 0.44309(16)
C9_2 C 0.1818(3) 0.4531(4) 0.4322(2)
C10_2 C 0.0982(3) 0.3521(4) 0.4904(2)
H11_2 H 0.0404 0.2925 0.4519
H12_2 H 0.1395 0.3200 0.5217
N3_2 N 0.0411(2) 0.3894(3) 0.55801(18)
C11_2 C 0.1142(3) 0.4470(4) 0.6376(2)
H14_2 H 0.1908 0.4589 0.6268
H15_2 H 0.0826 0.3973 0.6902
C12_2 C 0.1226(2) 0.5605(4) 0.65720(19)
O11_2 O 0.0741(2) 0.5980(3) 0.60552(16)
O12 O 0.1783(2) 0.6150(3) 0.72561(17)
H17_2 H 0.1805 0.3200 0.0217
C15_2 C 0.3328(3) 0.4470(4) 0.1376(2)
H19_2 H 0.2681 0.4589 0.1268
H20_2 H 0.3147 0.3973 0.1902
C16_2 C 0.4379(3) 0.5605(4) 0.15720(19)
O16_2 O 0.4367(2) 0.6150(3) 0.22561(17)
H22_2 H 0.6800 0.8605 0.0217
C19_2 C 0.5530(4) 0.8858(3) 0.1376(2)
H24_2 H 0.5411 0.8092 0.1268
H25_2 H 0.6027 0.9174 0.1902
C20_2 C 0.4395(4) 0.8774(2) 0.15720(19)
O20_2 O 0.3850(3) 0.8217(2) 0.22561(17)
H27_2 H 0.1395 0.8195 0.0217
C23_2 C 0.1142(3) 0.6672(3) 0.1376(2)
H29_2 H 0.1908 0.7319 0.1268
H30_2 H 0.0826 0.6853 0.1902
C24_2 C 0.1226(2) 0.5621(3) 0.15720(19)
O24_2 O 0.1783(2) 0.5633(2) 0.22561(17)
Nd3 Nd 0.3333 0.6666 0.831110(16)
H38_2 H 0.365396 0.283952 0.488245
H39_2 H 0.42779 0.333698 0.388032
O13_2 O 0.19668(19) 0.43902(26) 0.87592(16)
C13_2 C 0.2713(3) 0.4531(4) 0.9322(2)
C14_2 C 0.2539(3) 0.3521(4) 0.9904(2)
H16_2 H 0.2521 0.2925 0.9519
O17_2 O 0.56098(26) 0.75766(18) 0.87592(16)
C17_2 C 0.5469(4) 0.8182(3) 0.9322(2)
C18_2 C 0.6479(4) 0.9018(3) 0.9904(2)
H21_2 H 0.7075 0.9596 0.9519
O21_2 O 0.24234(18) 0.80332(19) 0.87592(16)
C21_2 C 0.1818(3) 0.7287(3) 0.9322(2)
C22_2 C 0.0982(3) 0.7461(3) 0.9904(2)
H26_2 H 0.0404 0.7479 0.9519
H13_2 H 0.9752 0.3263 0.5773
H34_2 H 0.918556 0.634604 0.488245
H35_2 H 0.905908 0.57221 0.388032
H38_3 H 0.081444 0.365396 0.511755
H39_3 H 0.094092 0.42779 0.611968
H36_3 H 0.634604 0.716048 0.511755
H37_3 H 0.57221 0.666302 0.611968
H34_3 H 0.283952 0.918556 0.511755
H35_3 H 0.333698 0.905908 0.611968
H34_4 H 0.365396 0.081444 0.988245
H35_4 H 0.42779 0.094092 0.888032
H38_4 H 0.716048 0.634604 0.988245
H39_4 H 0.666302 0.57221 0.888032
H36_4 H 0.918556 0.283952 0.988245
H37_4 H 0.905908 0.333698 0.888032
loop_
_geom_bond_atom_site_label_1
_geom_bond_atom_site_label_2
_geom_bond_site_symmetry_1
_geom_bond_site_symmetry_2
N7 Cu1 1_555 1_555
O26 Cu1 1_555 1_555
N7 H36 1_555 1_555
N7 H37 1_555 1_555
O25 Cu1_2 1_555 1_555
Nd1 O1 1_555 1_555
Cu1_3 O2 1_555 1_555
O1 C1 1_555 1_555
O2 Nd1 1_555 1_555
C1 O2 1_555 1_555
C2 C1 1_555 1_555
H1 C2 1_555 1_555
O5 Nd1 1_555 1_555
O6 Nd1 1_555 1_555
C5 O5 1_555 1_555
C6 C5 1_555 1_555
H6 C6 1_555 1_555
O9 Nd1 1_555 1_555
O10 Nd1 1_555 1_555
C9 O9 1_555 1_555
C10 C9 1_555 1_555
H11 C10 1_555 1_555
O13 C13 1_555 1_555
O14 C13 1_555 1_555
C13 C14 1_555 1_555
C14 H16 1_555 1_555
H17 C14 1_555 1_555
N4 C14 1_555 1_555
H18 N4 1_555 1_555
C15 N4 1_555 1_555
H19 C15 1_555 1_555
H20 C15 1_555 1_555
C16 C15 1_555 1_555
O15 C16 1_555 1_555
O16 Nd1 1_555 1_555
O17 C17 1_555 1_555
O18 C17 1_555 1_555
C17 C18 1_555 1_555
C18 H21 1_555 1_555
H22 C18 1_555 1_555
N5 C18 1_555 1_555
C19 N5 1_555 1_555
H24 C19 1_555 1_555
H25 C19 1_555 1_555
C20 C19 1_555 1_555
O19 C20 1_555 1_555
O20 Nd1 1_555 1_555
O21 C21 1_555 1_555
O22 C21 1_555 1_555
C21 C22 1_555 1_555
C22 H26 1_555 1_555
H27 C22 1_555 1_555
N6 C22 1_555 1_555
C23 N6 1_555 1_555
H29 C23 1_555 1_555
H30 C23 1_555 1_555
C24 C23 1_555 1_555
O23 C24 1_555 1_555
O24 Nd1 1_555 1_555
Nd2 O13 1_555 1_555
Cu2 O6 1_555 1_555
Cu3 O10 1_555 1_555
Cu4 O14 1_555 1_555
Cu5_2 O18 1_555 1_555
Cu6 O22 1_555 1_555
O27 Nd2 1_555 1_555
O28 Nd2 1_555 1_555
O29 Nd2 1_555 1_555
N8 Cu2 1_555 1_555
O31 Cu2 1_555 1_555
H32 N8 1_555 1_555
O6 C5 1_555 1_555
O10 C9 1_555 1_555
O14 Nd2 1_555 1_555
N4 Cu4 1_555 1_555
C16 O16 1_555 1_555
O15 Cu4 1_555 1_555
O17 Nd2 1_555 1_555
O18 Nd2 1_555 1_555
N5 Cu5_2 1_555 1_555
C20 O20 1_555 1_555
O19 Cu5_2 1_555 1_555
O21 Nd2 1_555 1_555
O22 Nd2 1_555 1_555
N6 Cu6 1_555 1_555
C24 O24 1_555 1_555
O23 Cu6 1_555 1_555
N8 H38 1_555 1_555
N8 H39 1_555 1_555
N1 Cu1_4 1_555 1_555
C3 N1 1_555 1_555
H4 C3 1_555 1_555
H5 C3 1_555 1_555
C4 C3 1_555 1_555
O3 Cu1_4 1_555 1_555
O27 C4 1_555 1_555
H8 N2 1_555 1_555
C7 N2 1_555 1_555
H9 C7 1_555 1_555
H10 C7 1_555 1_555
C8 C7 1_555 1_555
O7 C8 1_555 1_555
O28 C8 1_555 1_555
C11 N3 1_555 1_555
H14 C11 1_555 1_555
H15 C11 1_555 1_555
C12 C11 1_555 1_555
O11 C12 1_555 1_555
O29 C12 1_555 1_555
O30 Cu2_2 1_555 1_555
C4 O3 1_555 1_555
N2 Cu2_2 1_555 1_555
O7 Cu2_2 1_555 1_555
N3 Cu3_2 1_555 1_555
O11 Cu3_2 1_555 1_555
N9 Cu3_3 1_555 1_555
O33 Cu3_3 1_555 1_555
N9 H34 1_555 1_555
N9 H35 1_555 1_555
O32 Cu3_4 1_555 1_555
N6 H36_2 1_555 1_555
N6 H37_2 1_555 1_555
Nd1_2 O1_2 1_555 1_555
Cu6_2 O2_2 1_555 1_555
O1_2 C1_2 1_555 1_555
O2_2 Nd1_2 1_555 1_555
C1_2 O2_2 1_555 1_555
C2_2 C1_2 1_555 1_555
H1_2 C2_2 1_555 1_555
H2_2 C2_2 1_555 1_555
N1_2 Cu6_2 1_555 1_555
C3_2 N1_2 1_555 1_555
H4_2 C3_2 1_555 1_555
H5_2 C3_2 1_555 1_555
C4_2 C3_2 1_555 1_555
O3_2 Cu6_2 1_555 1_555
O4 C4_2 1_555 1_555
O5_2 Nd1_2 1_555 1_555
O6_2 Nd1_2 1_555 1_555
C5_2 O5_2 1_555 1_555
C6_2 C5_2 1_555 1_555
H6_2 C6_2 1_555 1_555
H7_2 C6_2 1_555 1_555
N2_2 C6_2 1_555 1_555
H8_2 N2_2 1_555 1_555
C7_2 N2_2 1_555 1_555
H9_2 C7_2 1_555 1_555
H10_2 C7_2 1_555 1_555
C8_2 C7_2 1_555 1_555
O7_2 C8_2 1_555 1_555
O8 C8_2 1_555 1_555
O9_2 Nd1_2 1_555 1_555
O10_2 Nd1_2 1_555 1_555
C9_2 O9_2 1_555 1_555
C10_2 C9_2 1_555 1_555
H11_2 C10_2 1_555 1_555
H12_2 C10_2 1_555 1_555
N3_2 C10_2 1_555 1_555
C11_2 N3_2 1_555 1_555
H14_2 C11_2 1_555 1_555
H15_2 C11_2 1_555 1_555
C12_2 C11_2 1_555 1_555
O11_2 C12_2 1_555 1_555
O12 C12_2 1_555 1_555
C15_2 N8 1_555 1_555
H19_2 C15_2 1_555 1_555
H20_2 C15_2 1_555 1_555
C16_2 C15_2 1_555 1_555
O31 C16_2 1_555 1_555
O16_2 Nd1_2 1_555 1_555
C19_2 N9 1_555 1_555
H24_2 C19_2 1_555 1_555
H25_2 C19_2 1_555 1_555
C20_2 C19_2 1_555 1_555
O33 C20_2 1_555 1_555
O20_2 Nd1_2 1_555 1_555
C23_2 N7 1_555 1_555
H29_2 C23_2 1_555 1_555
H30_2 C23_2 1_555 1_555
C24_2 C23_2 1_555 1_555
O26 C24_2 1_555 1_555
O24_2 Nd1_2 1_555 1_555
Cu4 O6_2 1_555 1_555
Cu5 O10_2 1_555 1_555
Nd3 O4 1_555 1_555
C2_2 N1_2 1_555 1_555
C4_2 O3_2 1_555 1_555
O6_2 C5_2 1_555 1_555
N2_2 Cu4 1_555 1_555
O7_2 Cu4 1_555 1_555
O8 Nd3 1_555 1_555
O10_2 C9_2 1_555 1_555
N3_2 Cu5 1_555 1_555
O11_2 Cu5 1_555 1_555
O12 Nd3 1_555 1_555
C16_2 O16_2 1_555 1_555
C20_2 O20_2 1_555 1_555
C24_2 O24_2 1_555 1_555
N4 H38_2 1_555 1_555
N4 H39_2 1_555 1_555
O13_2 C13_2 1_555 1_555
O30 C13_2 1_555 1_555
C13_2 C14_2 1_555 1_555
C14_2 H16_2 1_555 1_555
O17_2 C17_2 1_555 1_555
O32 C17_2 1_555 1_555
C17_2 C18_2 1_555 1_555
C18_2 H21_2 1_555 1_555
O21_2 C21_2 1_555 1_555
O25 C21_2 1_555 1_555
C21_2 C22_2 1_555 1_555
C22_2 H26_2 1_555 1_555
Nd3 O13_2 1_555 1_555
O30 Nd3 1_555 1_555
O17_2 Nd3 1_555 1_555
O32 Nd3 1_555 1_555
O21_2 Nd3 1_555 1_555
O25 Nd3 1_555 1_555
N5 H34_2 1_555 1_555
N5 H35_2 1_555 1_555
N3_2 H38_3 1_555 1_555
N3_2 H39_3 1_555 1_555
N2_2 H36_3 1_555 1_555
N2_2 H37_3 1_555 1_555
N1_2 H34_3 1_555 1_555
N1_2 H35_3 1_555 1_555
N3 H34_4 1_555 1_555
N3 H35_4 1_555 1_555
N2 H38_4 1_555 1_555
N2 H39_4 1_555 1_555
N1 H36_4 1_555 1_555
N1 H37_4 1_555 1_555

#END
