
###############################################################################
#
# This file contains modified crystal structure data generated from the
# MOF subset of the Cambridge Structural Database (CSD) v543 
# hosted by the Cambridge Crystallographic Data Centre (CCDC).
#
# This work is licensed under the Creative Commons
# Attribution-NonCommercial-ShareAlike 4.0 International License.
# To view a copy of this license, visit
# http://creativecommons.org/licenses/by-nc-sa/4.0/
# or send a letter to
# Creative Commons, PO Box 1866, Mountain View, CA 94042, USA.
#
# CIF created using the CSD Python API on 29 September 2022
# The structure has been converted into the P1 space group
# The structure has a 3D framework
# The original CSD entry WUTXUH is in the orthorhombic crystal system
# The framework has been calculated to contain at least 10.0% void space
# The void calculation uses a probe of radius 1.32A, grid spacing 0.4
# The framework is charged, counterions have been retained in the structure
# H atom positions have been added when not included in the experimental data
#
###############################################################################

data_WUTXUH
_chemical_formula_moiety         '(C200 H136 Mo8 N20 O45 1+)n'
_symmetry_cell_setting           triclinic
_symmetry_space_group_name_H-M   'P 1'
_symmetry_Int_Tables_number      1
_space_group_name_Hall           'P 1'
loop_
_symmetry_equiv_pos_site_id
_symmetry_equiv_pos_as_xyz
1 x,y,z
_cell_length_a                   24.2727(9)
_cell_length_b                   35.9510(13)
_cell_length_c                   7.6427(3)
_cell_angle_alpha                90
_cell_angle_beta                 90
_cell_angle_gamma                90
_cell_volume                     6669.23
loop_
_atom_site_label
_atom_site_type_symbol
_atom_site_fract_x
_atom_site_fract_y
_atom_site_fract_z
N1 N 0.2761(9) 0.7500 0.552(3)
C1 C 0.2455(9) 0.7155(5) 0.554(3)
H1 H 0.2708 0.6949 0.5525
H2 H 0.2234 0.7143 0.6580
H3 H 0.2221 0.7143 0.4529
C2 C 0.2455(9) 0.7845(5) 0.554(3)
H4 H 0.2708 0.8051 0.5525
H5 H 0.2234 0.7857 0.6580
H6 H 0.2221 0.7857 0.4529
H33 H 0.299535 0.75 0.442009
H34 H 0.30094 0.75 0.658835
N1_2 N 0.2239(9) 0.2500 0.052(3)
C1_2 C 0.2545(9) 0.2845(5) 0.054(3)
H1_2 H 0.2292 0.3051 0.0525
H2_2 H 0.2766 0.2857 0.1580
C2_2 C 0.2545(9) 0.2155(5) 0.054(3)
H4_2 H 0.2292 0.1949 0.0525
H5_2 H 0.2766 0.2143 0.1580
H34_2 H 0.19906 0.25 0.158835
H3_2 H 0.2779 0.2857 0.9529
H6_2 H 0.2779 0.2143 0.9529
H33_2 H 0.200465 0.25 0.942009
N1_3 N 0.7239(9) 0.2500 0.448(3)
C1_3 C 0.7545(9) 0.2155(5) 0.446(3)
H1_3 H 0.7292 0.1949 0.4475
H2_3 H 0.7766 0.2143 0.3420
H3_3 H 0.7779 0.2143 0.5471
C2_3 C 0.7545(9) 0.2845(5) 0.446(3)
H4_3 H 0.7292 0.3051 0.4475
H5_3 H 0.7766 0.2857 0.3420
H6_3 H 0.7779 0.2857 0.5471
H33_3 H 0.700465 0.25 0.557991
H34_3 H 0.69906 0.25 0.341165
H3_4 H 0.7221 0.7857 0.0471
H6_4 H 0.7221 0.7143 0.0471
H33_4 H 0.799535 0.75 0.0579907
N1_4 N 0.7761(9) 0.7500 0.948(3)
C1_4 C 0.7455(9) 0.7845(5) 0.946(3)
H1_4 H 0.7708 0.8051 0.9475
H2_4 H 0.7234 0.7857 0.8420
C2_4 C 0.7455(9) 0.7155(5) 0.946(3)
H4_4 H 0.7708 0.6949 0.9475
H5_4 H 0.7234 0.7143 0.8420
H34_4 H 0.80094 0.75 0.841165
Mo1 Mo 0.33908(4) 0.71448(3) 0.03829(14)
O2 O 0.3972(4) 0.7500 0.0070(14)
O5 O 0.3365(3) 0.7064(2) 0.2521(11)
Mo6 Mo 0.33908(4) 0.78552(3) 0.03829(14)
O1 O 0.2844(4) 0.7500 0.9732(15)
O4 O 0.3987(3) 0.6717(2) 0.9749(13)
O7 O 0.3603(4) 0.7007(2) 0.7550(11)
C5 C 0.4630(5) 0.5902(3) 0.6249(19)
H7 H 0.4826 0.5698 0.6657
C6 C 0.4527(5) 0.5946(4) 0.4475(17)
C8 C 0.4152(5) 0.6475(3) 0.6831(18)
C10 C 0.4066(6) 0.6516(4) 0.5066(19)
H10 H 0.3869 0.6720 0.4655
C11 C 0.4265(6) 0.6259(4) 0.3901(19)
H11 H 0.4221 0.6298 0.2706
N2 N 0.5260(4) 0.5517(3) 0.0566(14)
N3 N 0.4511(4) 0.5010(3) 0.2191(15)
H13 H 0.4734 0.4998 0.1318
C14 C 0.5713(7) 0.6081(4) 0.046(2)
H14 H 0.5955 0.6266 0.0090
C15 C 0.5381(6) 0.6102(4) 0.184(2)
H15 H 0.5342 0.6302 0.2601
C16 C 0.4436(6) 0.6170(4) 0.7403(18)
H16 H 0.4501 0.6141 0.8595
C18 C 0.4701(5) 0.5655(4) 0.3196(18)
C21 C 0.4454(6) 0.5310(4) 0.3314(18)
C22 C 0.5088(6) 0.5747(3) 0.1923(18)
C24 C 0.4025(7) 0.5215(4) 0.452(2)
H18 H 0.3887 0.5369 0.5401
C25 C 0.3908(6) 0.6750(4) 0.807(2)
O10 O 0.2156(4) 0.3275(2) 0.4606(13)
O11 O 0.2860(4) 0.3115(3) 0.6339(14)
C39 C 0.3005(6) 0.3603(4) 0.4337(18)
C40 C 0.2630(7) 0.3308(4) 0.518(2)
C41 C 0.3498(7) 0.3696(5) 0.509(2)
H27 H 0.3603 0.3586 0.6134
C42 C 0.3838(6) 0.3952(5) 0.430(2)
H28 H 0.4168 0.4017 0.4835
C43 C 0.2839(6) 0.3776(4) 0.288(2)
H29 H 0.2487 0.3730 0.2451
C44 C 0.4362(5) 0.4273(4) 0.0375(18)
C46 C 0.4082(6) 0.4389(4) 0.1876(18)
C47 C 0.3188(7) 0.4031(4) 0.197(2)
H31 H 0.3081 0.4138 0.0921
C48 C 0.4147(5) 0.4728(4) 0.2707(18)
C49 C 0.3698(6) 0.4112(3) 0.2738(19)
C50 C 0.3858(6) 0.4874(4) 0.4189(19)
H32 H 0.3592 0.4746 0.4824
Mo3 Mo 0.16092(4) 0.28552(3) 0.53829(14)
O16 O 0.2844(4) 0.6725(2) 0.9606(13)
O1_2 O 0.2156(4) 0.2500 0.4732(15)
O2_2 O 0.1028(4) 0.2500 0.5070(14)
O4_2 O 0.1013(3) 0.3283(2) 0.4749(13)
O5_2 O 0.1635(3) 0.2936(2) 0.7521(11)
O7_2 O 0.1397(4) 0.2993(2) 0.2550(11)
C5_2 C 0.0370(5) 0.4098(3) 0.1249(19)
H7_2 H 0.0174 0.4302 0.1657
C8_2 C 0.0848(5) 0.3525(3) 0.1831(18)
C10_2 C 0.0934(6) 0.3484(4) 0.0066(19)
C16_2 C 0.0564(6) 0.3830(4) 0.2403(18)
H16_2 H 0.0499 0.3859 0.3595
H18_2 H 0.1113 0.4631 0.0401
C25_2 C 0.1092(6) 0.3250(4) 0.307(2)
O11_2 O 0.2140(4) 0.6885(3) 0.1339(14)
C40_2 C 0.2370(7) 0.6692(4) 0.018(2)
C41_2 C 0.1502(7) 0.6304(5) 0.009(2)
H27_2 H 0.1397 0.6414 0.1134
Mo6_2 Mo 0.16092(4) 0.21448(3) 0.53829(14)
C6_2 C 0.0473(5) 0.4054(4) 0.9475(17)
H10_2 H 0.1131 0.3280 0.9655
C11_2 C 0.0735(6) 0.3741(4) 0.8901(19)
H11_2 H 0.0779 0.3702 0.7706
N3_2 N 0.0489(4) 0.4990(3) 0.7191(15)
H13_2 H 0.0266 0.5002 0.6318
C18_2 C 0.0299(5) 0.4345(4) 0.8196(18)
C21_2 C 0.0546(6) 0.4690(4) 0.8314(18)
C24_2 C 0.0975(7) 0.4785(4) 0.952(2)
N4 N 0.0260(4) 0.5517(3) 0.4434(14)
C32 C 0.0381(6) 0.6102(4) 0.316(2)
H24 H 0.0342 0.6302 0.2399
C36 C 0.0088(6) 0.5747(3) 0.3077(18)
C39_2 C 0.1995(6) 0.6397(4) 0.9337(18)
C42_2 C 0.1162(6) 0.6048(5) 0.930(2)
H28_2 H 0.0832 0.5983 0.9835
C43_2 C 0.2161(6) 0.6224(4) 0.788(2)
H29_2 H 0.2513 0.6270 0.7451
C44_2 C 0.0638(5) 0.5727(4) 0.5375(18)
C45 C 0.0713(7) 0.6081(4) 0.454(2)
H30 H 0.0955 0.6266 0.4910
C46_2 C 0.0918(6) 0.5611(4) 0.6876(18)
C47_2 C 0.1812(7) 0.5969(4) 0.697(2)
H31_2 H 0.1919 0.5862 0.5921
C48_2 C 0.0853(5) 0.5272(4) 0.7707(18)
C49_2 C 0.1302(6) 0.5888(3) 0.7738(19)
C50_2 C 0.1142(6) 0.5126(4) 0.9189(19)
H32_2 H 0.1408 0.5254 0.9824
O3 O 0.2156(4) 0.1725(2) 0.4606(13)
O6 O 0.2860(4) 0.1885(3) 0.6339(14)
C3 C 0.3005(6) 0.1397(4) 0.4337(18)
C4 C 0.2630(7) 0.1692(4) 0.518(2)
C7 C 0.3498(7) 0.1304(5) 0.509(2)
H8 H 0.3603 0.1414 0.6134
C9 C 0.3838(6) 0.1048(5) 0.430(2)
H9 H 0.4168 0.0983 0.4835
C12 C 0.2839(6) 0.1224(4) 0.288(2)
H12 H 0.2487 0.1270 0.2451
C13 C 0.4362(5) 0.0727(4) 0.0375(18)
C17 C 0.4082(6) 0.0611(4) 0.1876(18)
C19 C 0.3188(7) 0.0969(4) 0.197(2)
H17 H 0.3081 0.0862 0.0921
C20 C 0.4147(5) 0.0272(4) 0.2707(18)
C23 C 0.3698(6) 0.0888(3) 0.2738(19)
C26 C 0.3858(6) 0.0126(4) 0.4189(19)
H19 H 0.3592 0.0254 0.4824
H23 H 0.4734 0.0002 0.1318
O12 O 0.3365(3) 0.7936(2) 0.2521(11)
O8 O 0.3987(3) 0.8283(2) 0.9749(13)
O9 O 0.3603(4) 0.7993(2) 0.7550(11)
C27 C 0.4630(5) 0.9098(3) 0.6249(19)
H20 H 0.4826 0.9302 0.6657
C28 C 0.4527(5) 0.9054(4) 0.4475(17)
C29 C 0.4152(5) 0.8525(3) 0.6831(18)
C30 C 0.4066(6) 0.8484(4) 0.5066(19)
H21 H 0.3869 0.8280 0.4655
C31 C 0.4265(6) 0.8741(4) 0.3901(19)
H22 H 0.4221 0.8702 0.2706
N4_2 N 0.5260(4) 0.9483(3) 0.0566(14)
N5 N 0.4511(4) 0.9990(3) 0.2191(15)
C32_2 C 0.5381(6) 0.8898(4) 0.184(2)
H24_2 H 0.5342 0.8698 0.2601
C33 C 0.4436(6) 0.8830(4) 0.7403(18)
H25 H 0.4501 0.8859 0.8595
C34 C 0.4701(5) 0.9345(4) 0.3196(18)
C35 C 0.4454(6) 0.9690(4) 0.3314(18)
C36_2 C 0.5088(6) 0.9253(3) 0.1923(18)
C37 C 0.4025(7) 0.9785(4) 0.452(2)
H26 H 0.3887 0.9631 0.5401
C38 C 0.3908(6) 0.8250(4) 0.807(2)
C45_2 C 0.5713(7) 0.8919(4) 0.046(2)
H30_2 H 0.5955 0.8734 0.0090
O15 O 0.2844(4) 0.8275(2) 0.9606(13)
O8_2 O 0.1013(3) 0.1717(2) 0.4749(13)
O9_2 O 0.1397(4) 0.2007(2) 0.2550(11)
C27_2 C 0.0370(5) 0.0902(3) 0.1249(19)
H20_2 H 0.0174 0.0698 0.1657
C29_2 C 0.0848(5) 0.1475(3) 0.1831(18)
C30_2 C 0.0934(6) 0.1516(4) 0.0066(19)
C33_2 C 0.0564(6) 0.1170(4) 0.2403(18)
H25_2 H 0.0499 0.1141 0.3595
H26_2 H 0.1113 0.0369 0.0401
C38_2 C 0.1092(6) 0.1750(4) 0.307(2)
O12_2 O 0.1635(3) 0.2064(2) 0.7521(11)
O6_2 O 0.2140(4) 0.8115(3) 0.1339(14)
C4_2 C 0.2370(7) 0.8308(4) 0.018(2)
C7_2 C 0.1502(7) 0.8696(5) 0.009(2)
H8_2 H 0.1397 0.8586 0.1134
C3_2 C 0.1995(6) 0.8603(4) 0.9337(18)
C9_2 C 0.1162(6) 0.8952(5) 0.930(2)
H9_2 H 0.0832 0.9017 0.9835
C12_2 C 0.2161(6) 0.8776(4) 0.788(2)
H12_2 H 0.2513 0.8730 0.7451
N2_2 N 0.0260(4) 0.9483(3) 0.4434(14)
C13_2 C 0.0638(5) 0.9273(4) 0.5375(18)
C14_2 C 0.0713(7) 0.8919(4) 0.454(2)
H14_2 H 0.0955 0.8734 0.4910
C15_2 C 0.0381(6) 0.8898(4) 0.316(2)
H15_2 H 0.0342 0.8698 0.2399
C17_2 C 0.0918(6) 0.9389(4) 0.6876(18)
C19_2 C 0.1812(7) 0.9031(4) 0.697(2)
H17_2 H 0.1919 0.9138 0.5921
C20_2 C 0.0853(5) 0.9728(4) 0.7707(18)
C22_2 C 0.0088(6) 0.9253(3) 0.3077(18)
C23_2 C 0.1302(6) 0.9112(3) 0.7738(19)
C26_2 C 0.1142(6) 0.9874(4) 0.9189(19)
H19_2 H 0.1408 0.9746 0.9824
H23_2 H 0.0266 0.9998 0.6318
O3_2 O 0.7844(4) 0.6725(2) 0.5394(13)
O6_3 O 0.7140(4) 0.6885(3) 0.3661(14)
C3_3 C 0.6995(6) 0.6397(4) 0.5663(18)
C4_3 C 0.7370(7) 0.6692(4) 0.482(2)
C7_3 C 0.6502(7) 0.6304(5) 0.491(2)
H8_3 H 0.6397 0.6414 0.3866
C9_3 C 0.6162(6) 0.6048(5) 0.570(2)
H9_3 H 0.5832 0.5983 0.5165
C12_3 C 0.7161(6) 0.6224(4) 0.712(2)
H12_3 H 0.7513 0.6270 0.7549
C13_3 C 0.5638(5) 0.5727(4) 0.9625(18)
C17_3 C 0.5918(6) 0.5611(4) 0.8124(18)
C19_3 C 0.6812(7) 0.5969(4) 0.803(2)
H17_3 H 0.6919 0.5862 0.9079
C20_3 C 0.5853(5) 0.5272(4) 0.7293(18)
C23_3 C 0.6302(6) 0.5888(3) 0.7262(19)
C26_3 C 0.6142(6) 0.5126(4) 0.5811(19)
H19_3 H 0.6408 0.5254 0.5176
O8_3 O 0.6013(3) 0.3283(2) 0.0251(13)
O9_3 O 0.6397(4) 0.2993(2) 0.2450(11)
C27_3 C 0.5370(5) 0.4098(3) 0.3751(19)
H20_3 H 0.5174 0.4302 0.3343
C28_2 C 0.5473(5) 0.4054(4) 0.5525(17)
C29_3 C 0.5848(5) 0.3525(3) 0.3169(18)
C30_3 C 0.5934(6) 0.3484(4) 0.4934(19)
H21_2 H 0.6131 0.3280 0.5345
C31_2 C 0.5735(6) 0.3741(4) 0.6099(19)
H22_2 H 0.5779 0.3702 0.7294
N4_3 N 0.4740(4) 0.4483(3) 0.9434(14)
N5_2 N 0.5489(4) 0.4990(3) 0.7809(15)
H23_3 H 0.5266 0.5002 0.8682
C32_3 C 0.4619(6) 0.3898(4) 0.816(2)
H24_3 H 0.4658 0.3698 0.7399
C33_3 C 0.5564(6) 0.3830(4) 0.2597(18)
H25_3 H 0.5499 0.3859 0.1405
C34_2 C 0.5299(5) 0.4345(4) 0.6804(18)
C35_2 C 0.5546(6) 0.4690(4) 0.6686(18)
C36_3 C 0.4912(6) 0.4253(3) 0.8077(18)
C37_2 C 0.5975(7) 0.4785(4) 0.548(2)
H26_3 H 0.6113 0.4631 0.4599
C38_3 C 0.6092(6) 0.3250(4) 0.193(2)
C45_3 C 0.4287(7) 0.3919(4) 0.954(2)
H30_3 H 0.4045 0.3734 0.9910
Mo5 Mo 0.83908(4) 0.71448(3) 0.46171(14)
O13 O 0.7156(4) 0.2500 0.0268(15)
O15_2 O 0.7156(4) 0.3275(2) 0.0394(13)
Mo2 Mo 0.66092(4) 0.28552(3) 0.96171(14)
O12_3 O 0.6635(3) 0.2936(2) 0.7479(11)
Mo4 Mo 0.66092(4) 0.21448(3) 0.96171(14)
O14 O 0.6028(4) 0.2500 0.9930(14)
C3_4 C 0.8005(6) 0.3603(4) 0.0663(18)
C9_4 C 0.8838(6) 0.3952(5) 0.070(2)
H9_4 H 0.9168 0.4017 0.0165
C12_4 C 0.7839(6) 0.3776(4) 0.212(2)
H12_4 H 0.7487 0.3730 0.2549
N2_3 N 0.9740(4) 0.4483(3) 0.5566(14)
C13_4 C 0.9362(5) 0.4273(4) 0.4625(18)
C14_3 C 0.9287(7) 0.3919(4) 0.546(2)
H14_3 H 0.9045 0.3734 0.5090
C15_3 C 0.9619(6) 0.3898(4) 0.684(2)
H15_3 H 0.9658 0.3698 0.7601
C17_4 C 0.9082(6) 0.4389(4) 0.3124(18)
C19_4 C 0.8188(7) 0.4031(4) 0.303(2)
H17_4 H 0.8081 0.4138 0.4079
C20_4 C 0.9147(5) 0.4728(4) 0.2293(18)
C22_3 C 0.9912(6) 0.4253(3) 0.6923(18)
C23_4 C 0.8698(6) 0.4112(3) 0.2262(19)
C26_4 C 0.8858(6) 0.4874(4) 0.0811(19)
H19_4 H 0.8592 0.4746 0.0176
C28_3 C 0.9527(5) 0.5946(4) 0.0525(17)
H21_3 H 0.8869 0.6720 0.0345
C31_3 C 0.9265(6) 0.6259(4) 0.1099(19)
H22_3 H 0.9221 0.6298 0.2294
N5_3 N 0.9511(4) 0.5010(3) 0.2809(15)
H23_4 H 0.9734 0.4998 0.3682
C34_3 C 0.9701(5) 0.5655(4) 0.1804(18)
C35_3 C 0.9454(6) 0.5310(4) 0.1686(18)
C37_3 C 0.9025(7) 0.5215(4) 0.048(2)
O6_4 O 0.7860(4) 0.3115(3) 0.8661(14)
C4_4 C 0.7630(7) 0.3308(4) 0.982(2)
C7_4 C 0.8498(7) 0.3696(5) 0.991(2)
H8_4 H 0.8603 0.3586 0.8866
O8_4 O 0.8987(3) 0.6717(2) 0.5251(13)
O9_4 O 0.8603(4) 0.7007(2) 0.7450(11)
C27_4 C 0.9630(5) 0.5902(3) 0.8751(19)
H20_4 H 0.9826 0.5698 0.8343
C29_4 C 0.9152(5) 0.6475(3) 0.8169(18)
C30_4 C 0.9066(6) 0.6516(4) 0.9934(19)
C33_4 C 0.9436(6) 0.6170(4) 0.7597(18)
H25_4 H 0.9501 0.6141 0.6405
H26_4 H 0.8887 0.5369 0.9599
C38_4 C 0.8908(6) 0.6750(4) 0.693(2)
O12_4 O 0.8365(3) 0.7064(2) 0.2479(11)
Mo4_2 Mo 0.83908(4) 0.78552(3) 0.46171(14)
O13_2 O 0.7844(4) 0.7500 0.5268(15)
O14_2 O 0.8972(4) 0.7500 0.4930(14)
O4_3 O 0.6013(3) 0.1717(2) 0.0251(13)
O7_3 O 0.6397(4) 0.2007(2) 0.2450(11)
C5_3 C 0.5370(5) 0.0902(3) 0.3751(19)
H7_3 H 0.5174 0.0698 0.3343
C6_3 C 0.5473(5) 0.0946(4) 0.5525(17)
C8_3 C 0.5848(5) 0.1475(3) 0.3169(18)
C10_3 C 0.5934(6) 0.1516(4) 0.4934(19)
H10_3 H 0.6131 0.1720 0.5345
C11_3 C 0.5735(6) 0.1259(4) 0.6099(19)
H11_3 H 0.5779 0.1298 0.7294
N2_4 N 0.4740(4) 0.0517(3) 0.9434(14)
N3_3 N 0.5489(4) 0.0010(3) 0.7809(15)
C14_4 C 0.4287(7) 0.1081(4) 0.954(2)
H14_4 H 0.4045 0.1266 0.9910
C15_4 C 0.4619(6) 0.1102(4) 0.816(2)
H15_4 H 0.4658 0.1302 0.7399
C16_3 C 0.5564(6) 0.1170(4) 0.2597(18)
H16_3 H 0.5499 0.1141 0.1405
C18_3 C 0.5299(5) 0.0655(4) 0.6804(18)
C21_3 C 0.5546(6) 0.0310(4) 0.6686(18)
C22_4 C 0.4912(6) 0.0747(3) 0.8077(18)
C24_3 C 0.5975(7) 0.0215(4) 0.548(2)
H18_3 H 0.6113 0.0369 0.4599
C25_3 C 0.6092(6) 0.1750(4) 0.193(2)
O16_2 O 0.7156(4) 0.1725(2) 0.0394(13)
O5_3 O 0.6635(3) 0.2064(2) 0.7479(11)
H13_3 H 0.5266 0.9998 0.8682
O10_2 O 0.7844(4) 0.8275(2) 0.5394(13)
O11_3 O 0.7140(4) 0.8115(3) 0.3661(14)
C39_3 C 0.6995(6) 0.8603(4) 0.5663(18)
C40_3 C 0.7370(7) 0.8308(4) 0.482(2)
C41_3 C 0.6502(7) 0.8696(5) 0.491(2)
H27_3 H 0.6397 0.8586 0.3866
C42_3 C 0.6162(6) 0.8952(5) 0.570(2)
H28_3 H 0.5832 0.9017 0.5165
C43_3 C 0.7161(6) 0.8776(4) 0.712(2)
H29_3 H 0.7513 0.8730 0.7549
C44_3 C 0.5638(5) 0.9273(4) 0.9625(18)
C46_3 C 0.5918(6) 0.9389(4) 0.8124(18)
C47_3 C 0.6812(7) 0.9031(4) 0.803(2)
H31_3 H 0.6919 0.9138 0.9079
C48_3 C 0.5853(5) 0.9728(4) 0.7293(18)
C49_3 C 0.6302(6) 0.9112(3) 0.7262(19)
C50_3 C 0.6142(6) 0.9874(4) 0.5811(19)
H32_3 H 0.6408 0.9746 0.5176
H13_4 H 0.9734 0.0002 0.3682
N4_4 N 0.9740(4) 0.0517(3) 0.5566(14)
C32_4 C 0.9619(6) 0.1102(4) 0.684(2)
H24_4 H 0.9658 0.1302 0.7601
C36_4 C 0.9912(6) 0.0747(3) 0.6923(18)
C39_4 C 0.8005(6) 0.1397(4) 0.0663(18)
C42_4 C 0.8838(6) 0.1048(5) 0.070(2)
H28_4 H 0.9168 0.0983 0.0165
C43_4 C 0.7839(6) 0.1224(4) 0.212(2)
H29_4 H 0.7487 0.1270 0.2549
C44_4 C 0.9362(5) 0.0727(4) 0.4625(18)
C45_4 C 0.9287(7) 0.1081(4) 0.546(2)
H30_4 H 0.9045 0.1266 0.5090
C46_4 C 0.9082(6) 0.0611(4) 0.3124(18)
C47_4 C 0.8188(7) 0.0969(4) 0.303(2)
H31_4 H 0.8081 0.0862 0.4079
C48_4 C 0.9147(5) 0.0272(4) 0.2293(18)
C49_4 C 0.8698(6) 0.0888(3) 0.2262(19)
C50_4 C 0.8858(6) 0.0126(4) 0.0811(19)
H32_4 H 0.8592 0.0254 0.0176
O11_4 O 0.7860(4) 0.1885(3) 0.8661(14)
C40_4 C 0.7630(7) 0.1692(4) 0.982(2)
C41_4 C 0.8498(7) 0.1304(5) 0.991(2)
H27_4 H 0.8603 0.1414 0.8866
O4_4 O 0.8987(3) 0.8283(2) 0.5251(13)
O5_4 O 0.8365(3) 0.7936(2) 0.2479(11)
O7_4 O 0.8603(4) 0.7993(2) 0.7450(11)
C5_4 C 0.9630(5) 0.9098(3) 0.8751(19)
H7_4 H 0.9826 0.9302 0.8343
C8_4 C 0.9152(5) 0.8525(3) 0.8169(18)
C10_4 C 0.9066(6) 0.8484(4) 0.9934(19)
C16_4 C 0.9436(6) 0.8830(4) 0.7597(18)
H16_4 H 0.9501 0.8859 0.6405
H18_4 H 0.8887 0.9631 0.9599
C25_4 C 0.8908(6) 0.8250(4) 0.693(2)
C28_4 C 0.0473(5) 0.0946(4) 0.9475(17)
H21_4 H 0.1131 0.1720 0.9655
C31_4 C 0.0735(6) 0.1259(4) 0.8901(19)
H22_4 H 0.0779 0.1298 0.7706
N5_4 N 0.0489(4) 0.0010(3) 0.7191(15)
C34_4 C 0.0299(5) 0.0655(4) 0.8196(18)
C35_4 C 0.0546(6) 0.0310(4) 0.8314(18)
C37_4 C 0.0975(7) 0.0215(4) 0.952(2)
C6_4 C 0.9527(5) 0.9054(4) 0.0525(17)
H10_4 H 0.8869 0.8280 0.0345
C11_4 C 0.9265(6) 0.8741(4) 0.1099(19)
H11_4 H 0.9221 0.8702 0.2294
N3_4 N 0.9511(4) 0.9990(3) 0.2809(15)
C18_4 C 0.9701(5) 0.9345(4) 0.1804(18)
C21_4 C 0.9454(6) 0.9690(4) 0.1686(18)
C24_4 C 0.9025(7) 0.9785(4) 0.048(2)
loop_
_geom_bond_atom_site_label_1
_geom_bond_atom_site_label_2
_geom_bond_site_symmetry_1
_geom_bond_site_symmetry_2
N1 C1 1_555 1_555
C1 H1 1_555 1_555
H2 C1 1_555 1_555
H3 C1 1_555 1_555
C2 N1 1_555 1_555
H4 C2 1_555 1_555
H5 C2 1_555 1_555
H6 C2 1_555 1_555
N1 H33 1_555 1_555
N1 H34 1_555 1_555
N1_2 C1_2 1_555 1_555
C1_2 H1_2 1_555 1_555
H2_2 C1_2 1_555 1_555
C2_2 N1_2 1_555 1_555
H4_2 C2_2 1_555 1_555
H5_2 C2_2 1_555 1_555
N1_2 H34_2 1_555 1_555
N1_3 C1_3 1_555 1_555
C1_3 H1_3 1_555 1_555
H2_3 C1_3 1_555 1_555
H3_3 C1_3 1_555 1_555
C2_3 N1_3 1_555 1_555
H4_3 C2_3 1_555 1_555
H5_3 C2_3 1_555 1_555
H6_3 C2_3 1_555 1_555
N1_3 H33_3 1_555 1_555
N1_3 H34_3 1_555 1_555
N1_4 C1_4 1_555 1_555
C1_4 H1_4 1_555 1_555
H2_4 C1_4 1_555 1_555
C2_4 N1_4 1_555 1_555
H4_4 C2_4 1_555 1_555
H5_4 C2_4 1_555 1_555
N1_4 H34_4 1_555 1_555
O2 Mo1 1_555 1_555
O5 Mo1 1_555 1_555
Mo6 Mo1 1_555 1_555
O2 Mo6 1_555 1_555
C5 H7 1_555 1_555
C6 C5 1_555 1_555
C8 C10 1_555 1_555
C10 H10 1_555 1_555
C11 C6 1_555 1_555
H11 C11 1_555 1_555
N3 H13 1_555 1_555
C14 H14 1_555 1_555
C15 C14 1_555 1_555
H15 C15 1_555 1_555
C16 C5 1_555 1_555
H16 C16 1_555 1_555
C18 C6 1_555 1_555
C21 N3 1_555 1_555
C22 N2 1_555 1_555
C24 C21 1_555 1_555
H18 C24 1_555 1_555
C25 O4 1_555 1_555
O10 C40 1_555 1_555
O11 C40 1_555 1_555
C39 C40 1_555 1_555
C41 C39 1_555 1_555
H27 C41 1_555 1_555
C42 C41 1_555 1_555
H28 C42 1_555 1_555
C43 C39 1_555 1_555
H29 C43 1_555 1_555
C46 C44 1_555 1_555
C47 C43 1_555 1_555
H31 C47 1_555 1_555
C48 N3 1_555 1_555
C49 C42 1_555 1_555
C50 C24 1_555 1_555
H32 C50 1_555 1_555
Mo3 O10 1_555 1_555
O7 C25 1_555 1_555
C8 C16 1_555 1_555
C8 C25 1_555 1_555
C10 C11 1_555 1_555
C15 C22 1_555 1_555
C18 C21 1_555 1_555
C18 C22 1_555 1_555
C46 C48 1_555 1_555
C46 C49 1_555 1_555
C47 C49 1_555 1_555
C48 C50 1_555 1_555
Mo3 O1_2 1_555 1_555
O1_2 Mo6_2 1_555 1_555
O2_2 Mo3 1_555 1_555
O4_2 Mo3 1_555 1_555
O5_2 Mo3 1_555 1_555
O7_2 Mo3 1_555 1_555
C5_2 H7_2 1_555 1_555
C8_2 C10_2 1_555 1_555
C16_2 C5_2 1_555 1_555
H16_2 C16_2 1_555 1_555
C25_2 O4_2 1_555 1_555
O11_2 C40_2 1_555 1_555
H27_2 C41_2 1_555 1_555
Mo6_2 Mo3 1_555 1_555
O2_2 Mo6_2 1_555 1_555
O7_2 C25_2 1_555 1_555
C8_2 C16_2 1_555 1_555
C8_2 C25_2 1_555 1_555
C11_2 C6_2 1_555 1_555
H11_2 C11_2 1_555 1_555
N3_2 H13_2 1_555 1_555
C18_2 C6_2 1_555 1_555
C21_2 N3_2 1_555 1_555
C24_2 C21_2 1_555 1_555
N4 C36 1_555 1_555
C32 H24 1_555 1_555
C36 C32 1_555 1_555
H28_2 C42_2 1_555 1_555
C43_2 C39_2 1_555 1_555
H29_2 C43_2 1_555 1_555
C44_2 N4 1_555 1_555
C45 C32 1_555 1_555
H30 C45 1_555 1_555
C46_2 C44_2 1_555 1_555
C47_2 C43_2 1_555 1_555
H31_2 C47_2 1_555 1_555
C48_2 N3_2 1_555 1_555
C49_2 C42_2 1_555 1_555
C50_2 C24_2 1_555 1_555
H32_2 C50_2 1_555 1_555
C18_2 C21_2 1_555 1_555
C44_2 C45 1_555 1_555
C46_2 C48_2 1_555 1_555
C46_2 C49_2 1_555 1_555
C47_2 C49_2 1_555 1_555
C48_2 C50_2 1_555 1_555
O3 C4 1_555 1_555
O6 C4 1_555 1_555
C3 C4 1_555 1_555
C7 C3 1_555 1_555
H8 C7 1_555 1_555
C9 C7 1_555 1_555
H9 C9 1_555 1_555
C12 C3 1_555 1_555
H12 C12 1_555 1_555
C17 C13 1_555 1_555
C19 C12 1_555 1_555
H17 C19 1_555 1_555
C20 C17 1_555 1_555
C23 C9 1_555 1_555
C26 C20 1_555 1_555
H19 C26 1_555 1_555
Mo6_2 O3 1_555 1_555
C17 C23 1_555 1_555
C19 C23 1_555 1_555
O12 Mo6 1_555 1_555
O8 C38 1_555 1_555
O9 C38 1_555 1_555
C27 H20 1_555 1_555
C28 C27 1_555 1_555
C29 C30 1_555 1_555
C30 H21 1_555 1_555
C31 C28 1_555 1_555
H22 C31 1_555 1_555
N4_2 C36_2 1_555 1_555
C32_2 H24_2 1_555 1_555
C33 C27 1_555 1_555
H25 C33 1_555 1_555
C34 C28 1_555 1_555
C35 N5 1_555 1_555
C36_2 C32_2 1_555 1_555
H26 C37 1_555 1_555
C38 C29 1_555 1_555
C45_2 C32_2 1_555 1_555
H30_2 C45_2 1_555 1_555
C29 C33 1_555 1_555
C30 C31 1_555 1_555
C34 C35 1_555 1_555
C34 C36_2 1_555 1_555
C35 C37 1_555 1_555
O8_2 C38_2 1_555 1_555
O9_2 C38_2 1_555 1_555
C27_2 H20_2 1_555 1_555
C29_2 C30_2 1_555 1_555
C33_2 C27_2 1_555 1_555
H25_2 C33_2 1_555 1_555
C38_2 C29_2 1_555 1_555
Mo6_2 O8_2 1_555 1_555
O12_2 Mo6_2 1_555 1_555
O9_2 Mo6_2 1_555 1_555
C29_2 C33_2 1_555 1_555
O6_2 C4_2 1_555 1_555
H8_2 C7_2 1_555 1_555
H9_2 C9_2 1_555 1_555
C12_2 C3_2 1_555 1_555
H12_2 C12_2 1_555 1_555
N2_2 C13_2 1_555 1_555
C13_2 C14_2 1_555 1_555
C14_2 H14_2 1_555 1_555
C15_2 C14_2 1_555 1_555
H15_2 C15_2 1_555 1_555
C17_2 C13_2 1_555 1_555
C19_2 C12_2 1_555 1_555
H17_2 C19_2 1_555 1_555
C20_2 C17_2 1_555 1_555
C22_2 N2_2 1_555 1_555
C23_2 C9_2 1_555 1_555
C26_2 C20_2 1_555 1_555
H19_2 C26_2 1_555 1_555
C15_2 C22_2 1_555 1_555
C17_2 C23_2 1_555 1_555
C19_2 C23_2 1_555 1_555
O3_2 C4_3 1_555 1_555
O6_3 C4_3 1_555 1_555
C3_3 C4_3 1_555 1_555
C7_3 C3_3 1_555 1_555
H8_3 C7_3 1_555 1_555
C9_3 C7_3 1_555 1_555
H9_3 C9_3 1_555 1_555
C12_3 C3_3 1_555 1_555
H12_3 C12_3 1_555 1_555
C17_3 C13_3 1_555 1_555
C19_3 C12_3 1_555 1_555
H17_3 C19_3 1_555 1_555
C20_3 C17_3 1_555 1_555
C23_3 C9_3 1_555 1_555
C26_3 C20_3 1_555 1_555
H19_3 C26_3 1_555 1_555
O8_3 C38_3 1_555 1_555
O9_3 C38_3 1_555 1_555
C27_3 H20_3 1_555 1_555
C28_2 C27_3 1_555 1_555
C29_3 C30_3 1_555 1_555
C30_3 H21_2 1_555 1_555
C31_2 C28_2 1_555 1_555
H22_2 C31_2 1_555 1_555
N4_3 C36_3 1_555 1_555
N5_2 C20_3 1_555 1_555
H23_3 N5_2 1_555 1_555
C32_3 H24_3 1_555 1_555
C33_3 C27_3 1_555 1_555
H25_3 C33_3 1_555 1_555
C34_2 C28_2 1_555 1_555
C35_2 N5_2 1_555 1_555
C36_3 C32_3 1_555 1_555
C37_2 C26_3 1_555 1_555
H26_3 C37_2 1_555 1_555
C38_3 C29_3 1_555 1_555
C45_3 C32_3 1_555 1_555
H30_3 C45_3 1_555 1_555
Mo5 O3_2 1_555 1_555
C17_3 C23_3 1_555 1_555
C19_3 C23_3 1_555 1_555
C29_3 C33_3 1_555 1_555
C30_3 C31_2 1_555 1_555
C34_2 C35_2 1_555 1_555
C34_2 C36_3 1_555 1_555
C35_2 C37_2 1_555 1_555
O12_3 Mo2 1_555 1_555
Mo4 Mo2 1_555 1_555
O14 Mo2 1_555 1_555
Mo4 O14 1_555 1_555
H9_4 C9_4 1_555 1_555
C12_4 C3_4 1_555 1_555
H12_4 C12_4 1_555 1_555
N2_3 C13_4 1_555 1_555
C13_4 C14_3 1_555 1_555
C14_3 H14_3 1_555 1_555
C15_3 C14_3 1_555 1_555
H15_3 C15_3 1_555 1_555
C17_4 C13_4 1_555 1_555
C19_4 C12_4 1_555 1_555
H17_4 C19_4 1_555 1_555
C20_4 C17_4 1_555 1_555
C22_3 N2_3 1_555 1_555
C23_4 C9_4 1_555 1_555
C26_4 C20_4 1_555 1_555
H19_4 C26_4 1_555 1_555
C31_3 C28_3 1_555 1_555
H22_3 C31_3 1_555 1_555
N5_3 C20_4 1_555 1_555
H23_4 N5_3 1_555 1_555
C34_3 C28_3 1_555 1_555
C35_3 N5_3 1_555 1_555
C37_3 C26_4 1_555 1_555
C15_3 C22_3 1_555 1_555
C17_4 C23_4 1_555 1_555
C19_4 C23_4 1_555 1_555
C34_3 C35_3 1_555 1_555
C35_3 C37_3 1_555 1_555
O6_4 C4_4 1_555 1_555
H8_4 C7_4 1_555 1_555
O8_4 C38_4 1_555 1_555
O9_4 C38_4 1_555 1_555
C27_4 H20_4 1_555 1_555
C29_4 C30_4 1_555 1_555
C33_4 C27_4 1_555 1_555
H25_4 C33_4 1_555 1_555
C38_4 C29_4 1_555 1_555
Mo5 O8_4 1_555 1_555
O12_4 Mo5 1_555 1_555
Mo4_2 Mo5 1_555 1_555
O13_2 Mo5 1_555 1_555
O14_2 Mo5 1_555 1_555
O9_4 Mo5 1_555 1_555
C29_4 C33_4 1_555 1_555
Mo4_2 O13_2 1_555 1_555
Mo4_2 O14_2 1_555 1_555
C5_3 H7_3 1_555 1_555
C6_3 C5_3 1_555 1_555
C8_3 C10_3 1_555 1_555
C10_3 H10_3 1_555 1_555
C11_3 C6_3 1_555 1_555
H11_3 C11_3 1_555 1_555
C14_4 H14_4 1_555 1_555
C15_4 C14_4 1_555 1_555
H15_4 C15_4 1_555 1_555
C16_3 C5_3 1_555 1_555
H16_3 C16_3 1_555 1_555
C18_3 C6_3 1_555 1_555
C21_3 N3_3 1_555 1_555
C22_4 N2_4 1_555 1_555
C24_3 C21_3 1_555 1_555
H18_3 C24_3 1_555 1_555
C25_3 O4_3 1_555 1_555
O7_3 C25_3 1_555 1_555
C8_3 C16_3 1_555 1_555
C8_3 C25_3 1_555 1_555
C10_3 C11_3 1_555 1_555
C15_4 C22_4 1_555 1_555
C18_3 C21_3 1_555 1_555
C18_3 C22_4 1_555 1_555
O5_3 Mo4 1_555 1_555
O10_2 C40_3 1_555 1_555
O11_3 C40_3 1_555 1_555
C39_3 C40_3 1_555 1_555
C41_3 C39_3 1_555 1_555
H27_3 C41_3 1_555 1_555
C42_3 C41_3 1_555 1_555
H28_3 C42_3 1_555 1_555
C43_3 C39_3 1_555 1_555
H29_3 C43_3 1_555 1_555
C46_3 C44_3 1_555 1_555
C47_3 C43_3 1_555 1_555
H31_3 C47_3 1_555 1_555
C49_3 C42_3 1_555 1_555
H32_3 C50_3 1_555 1_555
Mo4_2 O10_2 1_555 1_555
C46_3 C48_3 1_555 1_555
C46_3 C49_3 1_555 1_555
C47_3 C49_3 1_555 1_555
C48_3 C50_3 1_555 1_555
N4_4 C36_4 1_555 1_555
C32_4 H24_4 1_555 1_555
C36_4 C32_4 1_555 1_555
H28_4 C42_4 1_555 1_555
C43_4 C39_4 1_555 1_555
H29_4 C43_4 1_555 1_555
C44_4 N4_4 1_555 1_555
C45_4 C32_4 1_555 1_555
H30_4 C45_4 1_555 1_555
C46_4 C44_4 1_555 1_555
C47_4 C43_4 1_555 1_555
H31_4 C47_4 1_555 1_555
C49_4 C42_4 1_555 1_555
H32_4 C50_4 1_555 1_555
C44_4 C45_4 1_555 1_555
C46_4 C48_4 1_555 1_555
C46_4 C49_4 1_555 1_555
C47_4 C49_4 1_555 1_555
C48_4 C50_4 1_555 1_555
O11_4 C40_4 1_555 1_555
H27_4 C41_4 1_555 1_555
O4_4 Mo4_2 1_555 1_555
O5_4 Mo4_2 1_555 1_555
O7_4 Mo4_2 1_555 1_555
C5_4 H7_4 1_555 1_555
C8_4 C10_4 1_555 1_555
C16_4 C5_4 1_555 1_555
H16_4 C16_4 1_555 1_555
C25_4 O4_4 1_555 1_555
O7_4 C25_4 1_555 1_555
C8_4 C16_4 1_555 1_555
C8_4 C25_4 1_555 1_555
C31_4 C28_4 1_555 1_555
H22_4 C31_4 1_555 1_555
C34_4 C28_4 1_555 1_555
C35_4 N5_4 1_555 1_555
C34_4 C35_4 1_555 1_555
C35_4 C37_4 1_555 1_555
C11_4 C6_4 1_555 1_555
H11_4 C11_4 1_555 1_555
C18_4 C6_4 1_555 1_555
C21_4 N3_4 1_555 1_555
C24_4 C21_4 1_555 1_555
C18_4 C21_4 1_555 1_555

#END
