
###############################################################################
#
# This file contains modified crystal structure data generated from the
# MOF subset of the Cambridge Structural Database (CSD) v543 
# hosted by the Cambridge Crystallographic Data Centre (CCDC).
#
# This work is licensed under the Creative Commons
# Attribution-NonCommercial-ShareAlike 4.0 International License.
# To view a copy of this license, visit
# http://creativecommons.org/licenses/by-nc-sa/4.0/
# or send a letter to
# Creative Commons, PO Box 1866, Mountain View, CA 94042, USA.
#
# CIF created using the CSD Python API on 29 September 2022
# The structure has been converted into the P1 space group
# The structure has a 3D framework
# The original CSD entry WUVGOL is in the monoclinic crystal system
# The framework has been calculated to contain at least 10.0% void space
# The void calculation uses a probe of radius 1.32A, grid spacing 0.4
#
###############################################################################

data_WUVGOL
_chemical_formula_moiety         '(C30 H16 Cd6 N12 O26)n'
_symmetry_cell_setting           triclinic
_symmetry_space_group_name_H-M   'P 1'
_symmetry_Int_Tables_number      1
_space_group_name_Hall           'P 1'
loop_
_symmetry_equiv_pos_site_id
_symmetry_equiv_pos_as_xyz
1 x,y,z
_cell_length_a                   8.8438(7)
_cell_length_b                   12.7821(9)
_cell_length_c                   12.2085(8)
_cell_angle_alpha                90
_cell_angle_beta                 100.063(7)
_cell_angle_gamma                90
_cell_volume                     1358.85
loop_
_atom_site_label
_atom_site_type_symbol
_atom_site_fract_x
_atom_site_fract_y
_atom_site_fract_z
H1 H 0.0320(12) 0.6718(6) 0.057(2)
Cd8 Cd 0.20626(3) 0.790953(19) 0.03396(2)
O18 O 0.2343(3) 0.0112(2) 0.5423(2)
N8 N 0.1904(4) 0.0768(2) 0.3095(3)
Cd1 Cd 0.22015(2) 0.913965(19) 0.38475(2)
Cd3 Cd 0.26321(3) 0.56056(2) 0.34974(3)
O1 O 0.0039(3) 0.6050(2) 0.3615(3)
O2 O 0.1735(3) 0.7301(2) 0.3837(2)
O5 O 0.4842(3) 0.5900(2) 0.2855(3)
O6 O 0.2867(3) 0.6551(2) 0.1698(2)
O7 O 0.9815(3) 0.7268(2) 0.0656(3)
O9 O 0.2190(5) 0.4195(2) 0.2217(3)
O10 O 0.2133(4) 0.3831(2) 0.3988(3)
N3 N 0.4757(4) 0.7747(2) 0.0673(3)
N4 N 0.5944(4) 0.8125(3) 0.0250(3)
N5 N 0.1917(4) 0.1737(2) 0.3531(3)
C1 C 0.0376(4) 0.6975(3) 0.3759(3)
C6 C 0.4268(4) 0.6435(3) 0.2003(3)
C7 C 0.5324(4) 0.6984(3) 0.1367(3)
C8 C 0.6888(4) 0.6874(4) 0.1373(3)
H5 H 0.7559 0.6392 0.1770
C9 C 0.7220(4) 0.7634(3) 0.0660(3)
C10 C 0.8723(5) 0.7905(3) 0.0347(4)
C11 C 0.2090(5) 0.3552(3) 0.2986(4)
C12 C 0.2022(5) 0.2434(3) 0.2720(3)
C13 C 0.2115(5) 0.1914(3) 0.1738(4)
H6 H 0.2205 0.2200 0.1052
C14 C 0.2039(5) 0.0846(3) 0.2026(3)
O13 O 0.3875(5) 0.5731(3) 0.5330(3)
H7 H 0.4161(16) 0.6151(6) 0.4867(8)
H8 H 0.4411(12) 0.5184(5) 0.5281(19)
Cd9 Cd 0.20626(3) 0.209047(19) 0.53396(2)
O14 O 0.4537(3) 0.8454(3) 0.4175(3)
O17 O 0.2343(3) 0.9888(2) 0.0423(2)
O19 O 0.2035(3) 0.9011(2) 0.1899(2)
O8 O 0.8845(4) 0.8701(3) 0.9786(3)
H3 H 0.5878 0.8623 0.9771
Cd6 Cd 0.22015(2) 0.086035(19) 0.88475(2)
O16 O 0.2133(4) 0.6169(2) 0.8988(3)
N7 N 0.1917(4) 0.8263(2) 0.8531(3)
C15 C 0.2151(5) 0.9895(3) 0.1404(3)
N1 N 0.9617(3) 0.8766(3) 0.4010(3)
N2 N 0.8391(4) 0.9284(2) 0.4100(3)
H2 H 0.8378 0.9953 0.4172
C2 C 0.9186(4) 0.7753(3) 0.3914(3)
C3 C 0.7643(4) 0.7664(3) 0.3955(3)
H4 H 0.7062 0.7054 0.3914
C4 C 0.7143(4) 0.8687(3) 0.4071(4)
C5 C 0.5566(5) 0.9112(3) 0.4090(4)
H1_2 H 0.0320(12) 0.3282(6) 0.557(2)
O12 O 0.2035(3) 0.0989(2) 0.6899(2)
C15_2 C 0.2151(5) 0.0105(3) 0.6404(3)
O13_2 O 0.3875(5) 0.4269(3) 0.0330(3)
H8_2 H 0.4411(12) 0.4816(5) 0.0281(19)
Cd3_2 Cd 0.26321(3) 0.43944(2) 0.84974(3)
O1_2 O 0.0039(3) 0.3950(2) 0.8615(3)
O2_2 O 0.1735(3) 0.2699(2) 0.8837(2)
O5_2 O 0.4842(3) 0.4100(2) 0.7855(3)
O6_2 O 0.2867(3) 0.3449(2) 0.6698(2)
O7_2 O 0.9815(3) 0.2732(2) 0.5656(3)
O8_2 O 0.8845(4) 0.1299(3) 0.4786(3)
O9_2 O 0.2190(5) 0.5805(2) 0.7217(3)
N3_2 N 0.4757(4) 0.2253(2) 0.5673(3)
N4_2 N 0.5944(4) 0.1875(3) 0.5250(3)
H3_2 H 0.5878 0.1377 0.4771
N6 N 0.1904(4) 0.9232(2) 0.8095(3)
C1_2 C 0.0376(4) 0.3025(3) 0.8759(3)
C6_2 C 0.4268(4) 0.3565(3) 0.7003(3)
C7_2 C 0.5324(4) 0.3016(3) 0.6367(3)
C8_2 C 0.6888(4) 0.3126(4) 0.6373(3)
H5_2 H 0.7559 0.3608 0.6770
C9_2 C 0.7220(4) 0.2366(3) 0.5660(3)
C10_2 C 0.8723(5) 0.2095(3) 0.5347(4)
C11_2 C 0.2090(5) 0.6448(3) 0.7986(4)
C12_2 C 0.2022(5) 0.7566(3) 0.7720(3)
C13_2 C 0.2115(5) 0.8086(3) 0.6738(4)
H6_2 H 0.2205 0.7800 0.6052
C14_2 C 0.2039(5) 0.9154(3) 0.7026(3)
H7_2 H 0.4161(16) 0.3849(6) 0.9867(8)
O14_2 O 0.4537(3) 0.1546(3) 0.9175(3)
N1_2 N 0.9617(3) 0.1234(3) 0.9010(3)
N2_2 N 0.8391(4) 0.0716(2) 0.9100(3)
H2_2 H 0.8378 0.0047 0.9172
C2_2 C 0.9186(4) 0.2247(3) 0.8914(3)
C3_2 C 0.7643(4) 0.2336(3) 0.8955(3)
H4_2 H 0.7062 0.2946 0.8914
C4_2 C 0.7143(4) 0.1313(3) 0.9071(4)
C5_2 C 0.5566(5) 0.0888(3) 0.9090(4)
O4 O 0.5381(4) 0.0038(2) 0.4012(3)
O4_2 O 0.5381(4) 0.9962(2) 0.9012(3)
loop_
_geom_bond_atom_site_label_1
_geom_bond_atom_site_label_2
_geom_bond_site_symmetry_1
_geom_bond_site_symmetry_2
Cd1 O2 1_555 1_555
Cd8 O6 1_555 1_555
Cd3 O1 1_555 1_555
O1 C1 1_555 1_555
O2 Cd3 1_555 1_555
O5 Cd3 1_555 1_555
O6 Cd3 1_555 1_555
O9 Cd3 1_555 1_555
O10 Cd3 1_555 1_555
N3 Cd8 1_555 1_555
N4 N3 1_555 1_555
N5 N8 1_555 1_555
N8 C14 1_555 1_555
C1 O2 1_555 1_555
C6 O5 1_555 1_555
C7 N3 1_555 1_555
C8 C7 1_555 1_555
H5 C8 1_555 1_555
C9 N4 1_555 1_555
C10 O7 1_555 1_555
C11 O9 1_555 1_555
C12 N5 1_555 1_555
C13 C12 1_555 1_555
H6 C13 1_555 1_555
C14 C13 1_555 1_555
O13 Cd3 1_555 1_555
H7 O13 1_555 1_555
H8 O13 1_555 1_555
Cd9 O10 1_555 1_555
O14 Cd1 1_555 1_555
O17 Cd8 1_555 1_555
O19 Cd1 1_555 1_555
Cd8 O19 1_555 1_555
O6 C6 1_555 1_555
O10 C11 1_555 1_555
N5 Cd9 1_555 1_555
C6 C7 1_555 1_555
C8 C9 1_555 1_555
C9 C10 1_555 1_555
C11 C12 1_555 1_555
O17 C15 1_555 1_555
O19 C15 1_555 1_555
O14 C5 1_555 1_555
N2 N1 1_555 1_555
H2 N2 1_555 1_555
C2 N1 1_555 1_555
C3 C2 1_555 1_555
H4 C3 1_555 1_555
C4 N2 1_555 1_555
C5 C4 1_555 1_555
C3 C4 1_555 1_555
O18 C15_2 1_555 1_555
O12 C15_2 1_555 1_555
Cd6 O12 1_555 1_555
Cd9 O18 1_555 1_555
O12 Cd9 1_555 1_555
H8_2 O13_2 1_555 1_555
Cd6 O2_2 1_555 1_555
Cd9 O6_2 1_555 1_555
Cd3_2 O1_2 1_555 1_555
O1_2 C1_2 1_555 1_555
O2_2 Cd3_2 1_555 1_555
O5_2 Cd3_2 1_555 1_555
O6_2 Cd3_2 1_555 1_555
O8_2 C10_2 1_555 1_555
O9_2 Cd3_2 1_555 1_555
O16 Cd3_2 1_555 1_555
N3_2 Cd9 1_555 1_555
N4_2 N3_2 1_555 1_555
H3_2 N4_2 1_555 1_555
N7 N6 1_555 1_555
N6 C14_2 1_555 1_555
C1_2 O2_2 1_555 1_555
C6_2 O5_2 1_555 1_555
C7_2 N3_2 1_555 1_555
C8_2 C7_2 1_555 1_555
H5_2 C8_2 1_555 1_555
C9_2 N4_2 1_555 1_555
C10_2 O7_2 1_555 1_555
C11_2 O9_2 1_555 1_555
C12_2 N7 1_555 1_555
C13_2 C12_2 1_555 1_555
H6_2 C13_2 1_555 1_555
C14_2 C13_2 1_555 1_555
O14_2 Cd6 1_555 1_555
O6_2 C6_2 1_555 1_555
O16 C11_2 1_555 1_555
C6_2 C7_2 1_555 1_555
C8_2 C9_2 1_555 1_555
C9_2 C10_2 1_555 1_555
C11_2 C12_2 1_555 1_555
O14_2 C5_2 1_555 1_555
N2_2 N1_2 1_555 1_555
H2_2 N2_2 1_555 1_555
C2_2 N1_2 1_555 1_555
C3_2 C2_2 1_555 1_555
H4_2 C3_2 1_555 1_555
C4_2 N2_2 1_555 1_555
C5_2 C4_2 1_555 1_555
C3_2 C4_2 1_555 1_555

#END
