
###############################################################################
#
# This file contains modified crystal structure data generated from the
# MOF subset of the Cambridge Structural Database (CSD) v543 
# hosted by the Cambridge Crystallographic Data Centre (CCDC).
#
# This work is licensed under the Creative Commons
# Attribution-NonCommercial-ShareAlike 4.0 International License.
# To view a copy of this license, visit
# http://creativecommons.org/licenses/by-nc-sa/4.0/
# or send a letter to
# Creative Commons, PO Box 1866, Mountain View, CA 94042, USA.
#
# CIF created using the CSD Python API on 29 September 2022
# The structure has been converted into the P1 space group
# The structure has a 3D framework
# The original CSD entry WUVMUY is in the orthorhombic crystal system
# The framework has been calculated to contain at least 10.0% void space
# The void calculation uses a probe of radius 1.32A, grid spacing 0.4
#
###############################################################################

data_WUVMUY
_chemical_formula_moiety         '(C768 H384 Cd48 O256)n'
_symmetry_cell_setting           triclinic
_symmetry_space_group_name_H-M   'P 1'
_symmetry_Int_Tables_number      1
_space_group_name_Hall           'P 1'
loop_
_symmetry_equiv_pos_site_id
_symmetry_equiv_pos_as_xyz
1 x,y,z
_cell_length_a                   33.246(7)
_cell_length_b                   34.416(7)
_cell_length_c                   24.958(5)
_cell_angle_alpha                90
_cell_angle_beta                 90
_cell_angle_gamma                90
_cell_volume                     28556.8
loop_
_atom_site_label
_atom_site_type_symbol
_atom_site_fract_x
_atom_site_fract_y
_atom_site_fract_z
Cd1 Cd 0.03210(10) 0.30460(9) 0.22126(14)
Cd2 Cd 0.07013(8) 0.25031(8) 0.32604(10)
O1 O 0.0902(8) 0.2882(8) 0.2539(11)
O2 O 0.1244(8) 0.2995(7) 0.3302(11)
O5 O 0.2786(8) 0.4658(8) 0.1279(11)
O6 O 0.2575(8) 0.4396(8) 0.0500(11)
O7 O 0.0229(9) 0.2106(8) 0.2948(11)
O8 O 0.0187(8) 0.2456(7) 0.2169(11)
O10 O 0.0545(8) 0.2991(7) 0.1393(11)
O11 O 0.0370(8) 0.3163(7) 0.0569(10)
C1 C 0.1208(13) 0.3040(12) 0.2832(18)
C2 C 0.2574(12) 0.4388(12) 0.0995(18)
C3 C 0.1984(5) 0.3803(5) 0.2633(6)
H1 H 0.2166 0.3941 0.2842
C4 C 0.1718(6) 0.3544(5) 0.2872(6)
H2 H 0.1722 0.3509 0.3242
C5 C 0.1446(6) 0.3338(6) 0.2560(8)
C6 C 0.1439(6) 0.3391(6) 0.2007(8)
H3 H 0.1257 0.3253 0.1798
C7 C 0.1705(5) 0.3649(5) 0.1768(6)
C8 C 0.1978(5) 0.3855(4) 0.2081(6)
C9 C 0.2244(6) 0.4114(6) 0.1841(7)
H4 H 0.2426 0.4252 0.2050
C10 C 0.2238(7) 0.4167(7) 0.1289(7)
C11 C 0.1965(7) 0.3961(7) 0.0976(6)
H5 H 0.1961 0.3996 0.0607
C12 C 0.1699(7) 0.3702(6) 0.1216(6)
H6 H 0.1517 0.3564 0.1007
C33 C 0.0788(3) 0.2703(4) 0.0540(6)
C34 C 0.0915(3) 0.2462(4) 0.0954(6)
H19 H 0.0831 0.2510 0.1303
C35 C 0.1166(3) 0.2149(4) 0.0846(6)
H20 H 0.1251 0.1988 0.1123
C36 C 0.1291(3) 0.2077(5) 0.0324(7)
C37 C 0.1542(3) 0.1764(5) 0.0215(7)
H21 H 0.1627 0.1603 0.0492
C42 C 0.0913(4) 0.2631(5) 0.0018(6)
C44 C 0.0122(3) 0.2171(4) 0.2472(5)
C45 C 0.0565(3) 0.3031(4) 0.0847(6)
Cd7 Cd 0.32013(8) 0.49969(8) 0.07604(10)
O17 O 0.1213(8) 0.2015(7) 0.3167(10)
O18 O 0.0983(8) 0.2114(8) 0.3924(10)
O19 O 0.0286(8) 0.2842(8) 0.3779(11)
O20 O 0.0075(8) 0.3104(8) 0.3000(11)
O23 O 0.0443(7) 0.3949(7) 0.1449(11)
O24 O 0.0474(7) 0.3640(7) 0.2205(11)
O15 O 0.2057(7) 0.1449(7) 0.8949(11)
O16 O 0.2026(7) 0.1140(7) 0.9705(11)
C38 C 0.1667(4) 0.1692(6) 0.9693(7)
C39 C 0.1540(4) 0.1933(6) 0.9279(7)
H22 H 0.1624 0.1885 0.8930
C40 C 0.1289(4) 0.2246(6) 0.9387(6)
H23 H 0.1205 0.2407 0.9111
C41 C 0.1164(3) 0.2318(5) 0.9910(6)
H24 H 0.0829 0.2793 0.9741
C48 C 0.1930(4) 0.1397(4) 0.9416(8)
Cd4 Cd 0.21790(10) 0.05460(9) 0.97126(14)
Cd5 Cd 0.28210(10) 0.44540(9) 0.97126(14)
Cd8 Cd 0.25231(7) 0.10481(6) 0.85834(8)
Cd3 Cd 0.99769(7) 0.35481(6) 0.10834(8)
O3 O 0.8713(8) 0.0485(7) 0.0667(10)
O4 O 0.8483(8) 0.0386(8) 0.1424(10)
O9 O 0.9744(9) 0.3217(8) 0.1850(11)
O12 O 0.9457(7) 0.3021(7) 0.1117(11)
O13 O 0.8009(7) 0.1533(7) 0.3512(11)
O14 O 0.7793(7) 0.1284(7) 0.2748(11)
C13 C 0.9735(5) 0.1783(4) 0.1707(9)
H7 H 0.9856 0.1947 0.1457
C14 C 0.9820(6) 0.1826(5) 0.2249(9)
C15 C 0.9640(8) 0.1582(7) 0.2622(8)
H8 H 0.9697 0.1610 0.2985
C16 C 0.9375(7) 0.1295(6) 0.2453(9)
H9 H 0.9255 0.1131 0.2702
C17 C 0.9290(5) 0.1252(5) 0.1911(9)
C18 C 0.9470(5) 0.1496(4) 0.1538(8)
C19 C 0.9385(6) 0.1453(6) 0.0996(8)
H10 H 0.9505 0.1617 0.0746
C20 C 0.9120(8) 0.1166(7) 0.0827(10)
H11 H 0.9063 0.1137 0.0464
C21 C 0.8939(7) 0.0922(6) 0.1200(12)
C22 C 0.9025(6) 0.0965(5) 0.1742(12)
H12 H 0.8904 0.0801 0.1991
C23 C 0.8439(3) 0.1971(3) 0.1872(5)
H13 H 0.8393 0.1955 0.1505
C24 C 0.8223(3) 0.1735(3) 0.2222(6)
H14 H 0.8034 0.1561 0.2089
C25 C 0.8291(3) 0.1759(4) 0.2770(6)
C26 C 0.8574(3) 0.2018(4) 0.2969(5)
H15 H 0.8620 0.2034 0.3336
C27 C 0.8790(3) 0.2254(3) 0.2620(5)
C28 C 0.8722(3) 0.2230(3) 0.2071(5)
C29 C 0.8938(3) 0.2466(3) 0.1722(5)
H16 H 0.8892 0.2450 0.1355
C30 C 0.9221(3) 0.2725(3) 0.1921(5)
C31 C 0.9289(3) 0.2749(3) 0.2469(5)
H17 H 0.9479 0.2923 0.2603
C32 C 0.9073(3) 0.2513(4) 0.2819(5)
H18 H 0.9119 0.2530 0.3186
C43 C 0.8599(4) 0.0615(3) 0.1081(8)
C46 C 0.9561(3) 0.3044(3) 0.1655(6)
C47 C 0.8018(3) 0.1512(4) 0.3015(6)
Cd9 Cd 0.75231(7) 0.10481(6) 0.35834(8)
O21 O 0.9491(7) 0.4033(7) 0.1012(11)
O22 O 0.9707(7) 0.3784(7) 0.0248(11)
Cd6 Cd 0.82013(8) 0.99969(8) 0.07604(10)
Cd6_2 Cd 0.17987(8) 0.00031(8) 0.07604(10)
Cd3_2 Cd 0.00231(7) 0.64519(6) 0.10834(8)
O3_2 O 0.1287(8) 0.9515(7) 0.0667(10)
O4_2 O 0.1517(8) 0.9614(8) 0.1424(10)
O9_2 O 0.0256(9) 0.6783(8) 0.1850(11)
O12_2 O 0.0543(7) 0.6979(7) 0.1117(11)
O13_2 O 0.1991(7) 0.8467(7) 0.3512(11)
O14_2 O 0.2207(7) 0.8716(7) 0.2748(11)
C13_2 C 0.0265(5) 0.8217(4) 0.1707(9)
H7_2 H 0.0144 0.8053 0.1457
C14_2 C 0.0180(6) 0.8174(5) 0.2249(9)
C15_2 C 0.0360(8) 0.8418(7) 0.2622(8)
H8_2 H 0.0303 0.8390 0.2985
C16_2 C 0.0625(7) 0.8705(6) 0.2453(9)
H9_2 H 0.0745 0.8869 0.2702
C17_2 C 0.0710(5) 0.8748(5) 0.1911(9)
C18_2 C 0.0530(5) 0.8504(4) 0.1538(8)
C19_2 C 0.0615(6) 0.8547(6) 0.0996(8)
H10_2 H 0.0495 0.8383 0.0746
C20_2 C 0.0880(8) 0.8834(7) 0.0827(10)
H11_2 H 0.0937 0.8863 0.0464
C21_2 C 0.1061(7) 0.9078(6) 0.1200(12)
C22_2 C 0.0975(6) 0.9035(5) 0.1742(12)
H12_2 H 0.1096 0.9199 0.1991
C23_2 C 0.1561(3) 0.8029(3) 0.1872(5)
H13_2 H 0.1607 0.8045 0.1505
C24_2 C 0.1777(3) 0.8265(3) 0.2222(6)
H14_2 H 0.1966 0.8439 0.2089
C25_2 C 0.1709(3) 0.8241(4) 0.2770(6)
C26_2 C 0.1426(3) 0.7982(4) 0.2969(5)
H15_2 H 0.1380 0.7966 0.3336
C27_2 C 0.1210(3) 0.7746(3) 0.2620(5)
C28_2 C 0.1278(3) 0.7770(3) 0.2071(5)
C29_2 C 0.1062(3) 0.7534(3) 0.1722(5)
H16_2 H 0.1108 0.7550 0.1355
C30_2 C 0.0779(3) 0.7275(3) 0.1921(5)
C31_2 C 0.0711(3) 0.7251(3) 0.2469(5)
H17_2 H 0.0521 0.7077 0.2603
C32_2 C 0.0927(3) 0.7487(4) 0.2819(5)
H18_2 H 0.0881 0.7470 0.3186
C43_2 C 0.1401(4) 0.9385(3) 0.1081(8)
C46_2 C 0.0439(3) 0.6956(3) 0.1655(6)
C47_2 C 0.1982(3) 0.8488(4) 0.3015(6)
Cd9_2 Cd 0.24769(7) 0.89519(6) 0.35834(8)
O21_2 O 0.0509(7) 0.5967(7) 0.1012(11)
O22_2 O 0.0293(7) 0.6216(7) 0.0248(11)
Cd1_2 Cd 0.96790(10) 0.69540(9) 0.22126(14)
Cd2_2 Cd 0.92987(8) 0.74969(8) 0.32604(10)
O1_2 O 0.9098(8) 0.7118(8) 0.2539(11)
O2_2 O 0.8756(8) 0.7005(7) 0.3302(11)
O5_2 O 0.7214(8) 0.5342(8) 0.1279(11)
O6_2 O 0.7425(8) 0.5604(8) 0.0500(11)
O7_2 O 0.9771(9) 0.7894(8) 0.2948(11)
O8_2 O 0.9813(8) 0.7544(7) 0.2169(11)
O10_2 O 0.9455(8) 0.7009(7) 0.1393(11)
O11_2 O 0.9630(8) 0.6837(7) 0.0569(10)
C1_2 C 0.8792(13) 0.6960(12) 0.2832(18)
C2_2 C 0.7426(12) 0.5612(12) 0.0995(18)
C3_2 C 0.8016(5) 0.6197(5) 0.2633(6)
H1_2 H 0.7834 0.6059 0.2842
C4_2 C 0.8282(6) 0.6456(5) 0.2872(6)
H2_2 H 0.8278 0.6491 0.3242
C5_2 C 0.8554(6) 0.6662(6) 0.2560(8)
C6_2 C 0.8561(6) 0.6609(6) 0.2007(8)
H3_2 H 0.8743 0.6747 0.1798
C7_2 C 0.8295(5) 0.6351(5) 0.1768(6)
C8_2 C 0.8022(5) 0.6145(4) 0.2081(6)
C9_2 C 0.7756(6) 0.5886(6) 0.1841(7)
H4_2 H 0.7574 0.5748 0.2050
C10_2 C 0.7762(7) 0.5833(7) 0.1289(7)
C11_2 C 0.8035(7) 0.6039(7) 0.0976(6)
H5_2 H 0.8039 0.6004 0.0607
C12_2 C 0.8301(7) 0.6298(6) 0.1216(6)
H6_2 H 0.8483 0.6436 0.1007
C33_2 C 0.9212(3) 0.7297(4) 0.0540(6)
C34_2 C 0.9085(3) 0.7538(4) 0.0954(6)
H19_2 H 0.9169 0.7490 0.1303
C35_2 C 0.8834(3) 0.7851(4) 0.0846(6)
H20_2 H 0.8749 0.8012 0.1123
C36_2 C 0.8709(3) 0.7923(5) 0.0324(7)
C37_2 C 0.8458(3) 0.8236(5) 0.0215(7)
H21_2 H 0.8373 0.8397 0.0492
C42_2 C 0.9087(4) 0.7369(5) 0.0018(6)
C44_2 C 0.9878(3) 0.7829(4) 0.2472(5)
C45_2 C 0.9435(3) 0.6969(4) 0.0847(6)
Cd7_2 Cd 0.67987(8) 0.50031(8) 0.07604(10)
O17_2 O 0.8787(8) 0.7985(7) 0.3167(10)
O18_2 O 0.9017(8) 0.7886(8) 0.3924(10)
O19_2 O 0.9714(8) 0.7158(8) 0.3779(11)
O20_2 O 0.9925(8) 0.6896(8) 0.3000(11)
O23_2 O 0.9557(7) 0.6051(7) 0.1449(11)
O24_2 O 0.9526(7) 0.6360(7) 0.2205(11)
O15_2 O 0.7943(7) 0.8551(7) 0.8949(11)
O16_2 O 0.7974(7) 0.8860(7) 0.9705(11)
C38_2 C 0.8333(4) 0.8308(6) 0.9693(7)
C39_2 C 0.8460(4) 0.8067(6) 0.9279(7)
H22_2 H 0.8376 0.8115 0.8930
C40_2 C 0.8711(4) 0.7754(6) 0.9387(6)
H23_2 H 0.8795 0.7593 0.9111
C41_2 C 0.8836(3) 0.7682(5) 0.9910(6)
H24_2 H 0.9171 0.7207 0.9741
C48_2 C 0.8070(4) 0.8603(4) 0.9416(8)
Cd4_2 Cd 0.78210(10) 0.94540(9) 0.97126(14)
Cd5_2 Cd 0.71790(10) 0.55460(9) 0.97126(14)
Cd8_2 Cd 0.74769(7) 0.89519(6) 0.85834(8)
Cd1_3 Cd 0.21790(10) 0.55460(9) 0.47126(14)
Cd2_3 Cd 0.17987(8) 0.50031(8) 0.57604(10)
Cd3_3 Cd 0.25231(7) 0.60481(6) 0.35834(8)
O1_3 O 0.1598(8) 0.5382(8) 0.5039(11)
O2_3 O 0.1256(8) 0.5495(7) 0.5802(11)
O3_3 O 0.3787(8) 0.2985(7) 0.3167(10)
O4_3 O 0.4017(8) 0.2886(8) 0.3924(10)
O7_3 O 0.2271(9) 0.4606(8) 0.5448(11)
O8_3 O 0.2313(8) 0.4956(7) 0.4669(11)
O9_3 O 0.2756(9) 0.5717(8) 0.4350(11)
O10_3 O 0.1955(8) 0.5491(7) 0.3893(11)
O11_3 O 0.2130(8) 0.5663(7) 0.3069(10)
O12_3 O 0.3043(7) 0.5521(7) 0.3617(11)
O13_3 O 0.4491(7) 0.4033(7) 0.6012(11)
O14_3 O 0.4707(7) 0.3784(7) 0.5248(11)
C1_3 C 0.1292(13) 0.5540(12) 0.5332(18)
C3_3 C 0.0516(5) 0.6303(5) 0.5133(6)
H1_3 H 0.0334 0.6441 0.5342
C4_3 C 0.0782(6) 0.6044(5) 0.5372(6)
H2_3 H 0.0778 0.6009 0.5742
C5_3 C 0.1054(6) 0.5838(6) 0.5060(8)
C6_3 C 0.1061(6) 0.5891(6) 0.4507(8)
H3_3 H 0.1243 0.5753 0.4298
C7_3 C 0.0795(5) 0.6149(5) 0.4268(6)
C8_3 C 0.0522(5) 0.6355(4) 0.4581(6)
C9_3 C 0.0256(6) 0.6614(6) 0.4341(7)
H4_3 H 0.0074 0.6752 0.4550
C10_3 C 0.0262(7) 0.6667(7) 0.3789(7)
C11_3 C 0.0535(7) 0.6461(7) 0.3476(6)
H5_3 H 0.0539 0.6496 0.3107
C12_3 C 0.0801(7) 0.6202(6) 0.3716(6)
H6_3 H 0.0983 0.6064 0.3507
C13_3 C 0.2765(5) 0.4283(4) 0.4207(9)
H7_3 H 0.2644 0.4447 0.3957
C14_3 C 0.2680(6) 0.4326(5) 0.4749(9)
C15_3 C 0.2860(8) 0.4082(7) 0.5122(8)
H8_3 H 0.2803 0.4110 0.5485
C16_3 C 0.3125(7) 0.3795(6) 0.4953(9)
H9_3 H 0.3245 0.3631 0.5202
C17_3 C 0.3210(5) 0.3752(5) 0.4411(9)
C18_3 C 0.3030(5) 0.3996(4) 0.4038(8)
C19_3 C 0.3115(6) 0.3953(6) 0.3496(8)
H10_3 H 0.2995 0.4117 0.3246
C20_3 C 0.3380(8) 0.3666(7) 0.3327(10)
H11_3 H 0.3437 0.3637 0.2964
C21_3 C 0.3561(7) 0.3422(6) 0.3700(12)
C22_3 C 0.3475(6) 0.3465(5) 0.4242(12)
H12_3 H 0.3596 0.3301 0.4491
C23_3 C 0.4061(3) 0.4471(3) 0.4372(5)
H13_3 H 0.4107 0.4455 0.4005
C24_3 C 0.4277(3) 0.4235(3) 0.4722(6)
H14_3 H 0.4466 0.4061 0.4589
C25_3 C 0.4209(3) 0.4259(4) 0.5270(6)
C26_3 C 0.3926(3) 0.4518(4) 0.5469(5)
H15_3 H 0.3880 0.4534 0.5836
C27_3 C 0.3710(3) 0.4754(3) 0.5120(5)
C28_3 C 0.3778(3) 0.4730(3) 0.4571(5)
C29_3 C 0.3562(3) 0.4966(3) 0.4222(5)
H16_3 H 0.3608 0.4950 0.3855
C30_3 C 0.3279(3) 0.5225(3) 0.4421(5)
C31_3 C 0.3211(3) 0.5249(3) 0.4969(5)
H17_3 H 0.3021 0.5423 0.5103
C32_3 C 0.3427(3) 0.5013(4) 0.5319(5)
H18_3 H 0.3381 0.5030 0.5686
C33_3 C 0.1712(3) 0.5203(4) 0.3040(6)
C34_3 C 0.1585(3) 0.4962(4) 0.3454(6)
H19_3 H 0.1669 0.5010 0.3803
C35_3 C 0.1334(3) 0.4649(4) 0.3346(6)
H20_3 H 0.1249 0.4488 0.3623
C36_3 C 0.1209(3) 0.4577(5) 0.2824(7)
C37_3 C 0.0958(3) 0.4264(5) 0.2715(7)
H21_3 H 0.0873 0.4103 0.2992
C38_3 C 0.0833(4) 0.4192(6) 0.2193(7)
C39_3 C 0.0960(4) 0.4433(6) 0.1779(7)
H22_3 H 0.0876 0.4385 0.1430
C40_3 C 0.1211(4) 0.4746(6) 0.1887(6)
H23_3 H 0.1295 0.4907 0.1611
C41_3 C 0.1336(3) 0.4818(5) 0.2410(6)
C42_3 C 0.1587(4) 0.5131(5) 0.2518(6)
H24_3 H 0.1671 0.5293 0.2241
C43_3 C 0.3901(4) 0.3115(3) 0.3581(8)
C44_3 C 0.2378(3) 0.4671(4) 0.4972(5)
C45_3 C 0.1935(3) 0.5531(4) 0.3347(6)
C46_3 C 0.2939(3) 0.5544(3) 0.4155(6)
C47_3 C 0.4482(3) 0.4012(4) 0.5515(6)
C48_3 C 0.0570(4) 0.3897(4) 0.1916(8)
Cd6_3 Cd 0.42987(8) 0.24969(8) 0.32604(10)
Cd9_3 Cd 0.49769(7) 0.35481(6) 0.60834(8)
O17_3 O 0.1287(8) 0.4515(7) 0.5667(10)
O18_3 O 0.1517(8) 0.4614(8) 0.6424(10)
O19_3 O 0.2214(8) 0.5342(8) 0.6279(11)
O20_3 O 0.2425(8) 0.5604(8) 0.5500(11)
O21_3 O 0.3009(7) 0.6533(7) 0.3512(11)
O22_3 O 0.2793(7) 0.6284(7) 0.2748(11)
O23_3 O 0.2057(7) 0.6449(7) 0.3949(11)
O24_3 O 0.2026(7) 0.6140(7) 0.4705(11)
C2_3 C 0.9926(12) 0.6888(12) 0.3495(18)
C2_4 C 0.0074(12) 0.3112(12) 0.3495(18)
Cd1_4 Cd 0.78210(10) 0.44540(9) 0.47126(14)
Cd2_4 Cd 0.82013(8) 0.49969(8) 0.57604(10)
Cd3_4 Cd 0.74769(7) 0.39519(6) 0.35834(8)
O1_4 O 0.8402(8) 0.4618(8) 0.5039(11)
O2_4 O 0.8744(8) 0.4505(7) 0.5802(11)
O3_4 O 0.6213(8) 0.7015(7) 0.3167(10)
O4_4 O 0.5983(8) 0.7114(8) 0.3924(10)
O7_4 O 0.7729(9) 0.5394(8) 0.5448(11)
O8_4 O 0.7687(8) 0.5044(7) 0.4669(11)
O9_4 O 0.7244(9) 0.4283(8) 0.4350(11)
O10_4 O 0.8045(8) 0.4509(7) 0.3893(11)
O11_4 O 0.7870(8) 0.4337(7) 0.3069(10)
O12_4 O 0.6957(7) 0.4479(7) 0.3617(11)
O13_4 O 0.5509(7) 0.5967(7) 0.6012(11)
O14_4 O 0.5293(7) 0.6216(7) 0.5248(11)
C1_4 C 0.8708(13) 0.4460(12) 0.5332(18)
C3_4 C 0.9484(5) 0.3697(5) 0.5133(6)
H1_4 H 0.9666 0.3559 0.5342
C4_4 C 0.9218(6) 0.3956(5) 0.5372(6)
H2_4 H 0.9222 0.3991 0.5742
C5_4 C 0.8946(6) 0.4162(6) 0.5060(8)
C6_4 C 0.8939(6) 0.4109(6) 0.4507(8)
H3_4 H 0.8757 0.4247 0.4298
C7_4 C 0.9205(5) 0.3851(5) 0.4268(6)
C8_4 C 0.9478(5) 0.3645(4) 0.4581(6)
C9_4 C 0.9744(6) 0.3386(6) 0.4341(7)
H4_4 H 0.9926 0.3248 0.4550
C10_4 C 0.9738(7) 0.3333(7) 0.3789(7)
C11_4 C 0.9465(7) 0.3539(7) 0.3476(6)
H5_4 H 0.9461 0.3504 0.3107
C12_4 C 0.9199(7) 0.3798(6) 0.3716(6)
H6_4 H 0.9017 0.3936 0.3507
C13_4 C 0.7235(5) 0.5717(4) 0.4207(9)
H7_4 H 0.7356 0.5553 0.3957
C14_4 C 0.7320(6) 0.5674(5) 0.4749(9)
C15_4 C 0.7140(8) 0.5918(7) 0.5122(8)
H8_4 H 0.7197 0.5890 0.5485
C16_4 C 0.6875(7) 0.6205(6) 0.4953(9)
H9_4 H 0.6755 0.6369 0.5202
C17_4 C 0.6790(5) 0.6248(5) 0.4411(9)
C18_4 C 0.6970(5) 0.6004(4) 0.4038(8)
C19_4 C 0.6885(6) 0.6047(6) 0.3496(8)
H10_4 H 0.7005 0.5883 0.3246
C20_4 C 0.6620(8) 0.6334(7) 0.3327(10)
H11_4 H 0.6563 0.6363 0.2964
C21_4 C 0.6439(7) 0.6578(6) 0.3700(12)
C22_4 C 0.6525(6) 0.6535(5) 0.4242(12)
H12_4 H 0.6404 0.6699 0.4491
C23_4 C 0.5939(3) 0.5529(3) 0.4372(5)
H13_4 H 0.5893 0.5545 0.4005
C24_4 C 0.5723(3) 0.5765(3) 0.4722(6)
H14_4 H 0.5534 0.5939 0.4589
C25_4 C 0.5791(3) 0.5741(4) 0.5270(6)
C26_4 C 0.6074(3) 0.5482(4) 0.5469(5)
H15_4 H 0.6120 0.5466 0.5836
C27_4 C 0.6290(3) 0.5246(3) 0.5120(5)
C28_4 C 0.6222(3) 0.5270(3) 0.4571(5)
C29_4 C 0.6438(3) 0.5034(3) 0.4222(5)
H16_4 H 0.6392 0.5050 0.3855
C30_4 C 0.6721(3) 0.4775(3) 0.4421(5)
C31_4 C 0.6789(3) 0.4751(3) 0.4969(5)
H17_4 H 0.6979 0.4577 0.5103
C32_4 C 0.6573(3) 0.4987(4) 0.5319(5)
H18_4 H 0.6619 0.4970 0.5686
C33_4 C 0.8288(3) 0.4797(4) 0.3040(6)
C34_4 C 0.8415(3) 0.5038(4) 0.3454(6)
H19_4 H 0.8331 0.4990 0.3803
C35_4 C 0.8666(3) 0.5351(4) 0.3346(6)
H20_4 H 0.8751 0.5512 0.3623
C36_4 C 0.8791(3) 0.5423(5) 0.2824(7)
C37_4 C 0.9042(3) 0.5736(5) 0.2715(7)
H21_4 H 0.9127 0.5897 0.2992
C38_4 C 0.9167(4) 0.5808(6) 0.2193(7)
C39_4 C 0.9040(4) 0.5567(6) 0.1779(7)
H22_4 H 0.9124 0.5615 0.1430
C40_4 C 0.8789(4) 0.5254(6) 0.1887(6)
H23_4 H 0.8705 0.5093 0.1611
C41_4 C 0.8664(3) 0.5182(5) 0.2410(6)
C42_4 C 0.8413(4) 0.4869(5) 0.2518(6)
H24_4 H 0.8329 0.4707 0.2241
C43_4 C 0.6099(4) 0.6885(3) 0.3581(8)
C44_4 C 0.7622(3) 0.5329(4) 0.4972(5)
C45_4 C 0.8065(3) 0.4469(4) 0.3347(6)
C46_4 C 0.7061(3) 0.4456(3) 0.4155(6)
C47_4 C 0.5518(3) 0.5988(4) 0.5515(6)
C48_4 C 0.9430(4) 0.6103(4) 0.1916(8)
Cd6_4 Cd 0.57013(8) 0.75031(8) 0.32604(10)
Cd9_4 Cd 0.50231(7) 0.64519(6) 0.60834(8)
O17_4 O 0.8713(8) 0.5485(7) 0.5667(10)
O18_4 O 0.8483(8) 0.5386(8) 0.6424(10)
O19_4 O 0.7786(8) 0.4658(8) 0.6279(11)
O20_4 O 0.7575(8) 0.4396(8) 0.5500(11)
O21_4 O 0.6991(7) 0.3467(7) 0.3512(11)
O22_4 O 0.7207(7) 0.3716(7) 0.2748(11)
O23_4 O 0.7943(7) 0.3551(7) 0.3949(11)
O24_4 O 0.7974(7) 0.3860(7) 0.4705(11)
Cd1_5 Cd 0.03210(10) 0.80460(9) 0.72126(14)
Cd2_5 Cd 0.07013(8) 0.75031(8) 0.82604(10)
O1_5 O 0.0902(8) 0.7882(8) 0.7539(11)
O2_5 O 0.1244(8) 0.7995(7) 0.8302(11)
O5_3 O 0.2786(8) 0.9658(8) 0.6279(11)
O6_3 O 0.2575(8) 0.9396(8) 0.5500(11)
O7_5 O 0.0229(9) 0.7106(8) 0.7948(11)
O8_5 O 0.0187(8) 0.7456(7) 0.7169(11)
O10_5 O 0.0545(8) 0.7991(7) 0.6393(11)
O11_5 O 0.0370(8) 0.8163(7) 0.5569(10)
C1_5 C 0.1208(13) 0.8040(12) 0.7832(18)
C2_5 C 0.2574(12) 0.9388(12) 0.5995(18)
C3_5 C 0.1984(5) 0.8803(5) 0.7633(6)
H1_5 H 0.2166 0.8941 0.7842
C4_5 C 0.1718(6) 0.8544(5) 0.7872(6)
H2_5 H 0.1722 0.8509 0.8242
C5_5 C 0.1446(6) 0.8338(6) 0.7560(8)
C6_5 C 0.1439(6) 0.8391(6) 0.7007(8)
H3_5 H 0.1257 0.8253 0.6798
C7_5 C 0.1705(5) 0.8649(5) 0.6768(6)
C8_5 C 0.1978(5) 0.8855(4) 0.7081(6)
C9_5 C 0.2244(6) 0.9114(6) 0.6841(7)
H4_5 H 0.2426 0.9252 0.7050
C10_5 C 0.2238(7) 0.9167(7) 0.6289(7)
C11_5 C 0.1965(7) 0.8961(7) 0.5976(6)
H5_5 H 0.1961 0.8996 0.5607
C12_5 C 0.1699(7) 0.8702(6) 0.6216(6)
H6_5 H 0.1517 0.8564 0.6007
C33_5 C 0.0788(3) 0.7703(4) 0.5540(6)
C34_5 C 0.0915(3) 0.7462(4) 0.5954(6)
H19_5 H 0.0831 0.7510 0.6303
C35_5 C 0.1166(3) 0.7149(4) 0.5846(6)
H20_5 H 0.1251 0.6988 0.6123
C36_5 C 0.1291(3) 0.7077(5) 0.5324(7)
C37_5 C 0.1542(3) 0.6764(5) 0.5215(7)
H21_5 H 0.1627 0.6603 0.5492
C38_5 C 0.1667(4) 0.6692(6) 0.4693(7)
C39_5 C 0.1540(4) 0.6933(6) 0.4279(7)
H22_5 H 0.1624 0.6885 0.3930
C40_5 C 0.1289(4) 0.7246(6) 0.4387(6)
H23_5 H 0.1205 0.7407 0.4111
C41_5 C 0.1164(3) 0.7318(5) 0.4910(6)
C42_5 C 0.0913(4) 0.7631(5) 0.5018(6)
H24_5 H 0.0829 0.7793 0.4741
C44_5 C 0.0122(3) 0.7171(4) 0.7472(5)
C45_5 C 0.0565(3) 0.8031(4) 0.5847(6)
C48_5 C 0.1930(4) 0.6397(4) 0.4416(8)
Cd5_3 Cd 0.28210(10) 0.94540(9) 0.47126(14)
Cd7_3 Cd 0.32013(8) 0.99969(8) 0.57604(10)
O17_5 O 0.1213(8) 0.7015(7) 0.8167(10)
O18_5 O 0.0983(8) 0.7114(8) 0.8924(10)
O19_5 O 0.0286(8) 0.7842(8) 0.8779(11)
O20_5 O 0.0075(8) 0.8104(8) 0.8000(11)
O23_5 O 0.0443(7) 0.8949(7) 0.6449(11)
O24_5 O 0.0474(7) 0.8640(7) 0.7205(11)
Cd3_5 Cd 0.99769(7) 0.85481(6) 0.60834(8)
O9_5 O 0.9744(9) 0.8217(8) 0.6850(11)
O12_5 O 0.9457(7) 0.8021(7) 0.6117(11)
O13_5 O 0.8009(7) 0.6533(7) 0.8512(11)
O14_5 O 0.7793(7) 0.6284(7) 0.7748(11)
C13_5 C 0.9735(5) 0.6783(4) 0.6707(9)
H7_5 H 0.9856 0.6947 0.6457
C14_5 C 0.9820(6) 0.6826(5) 0.7249(9)
C15_5 C 0.9640(8) 0.6582(7) 0.7622(8)
H8_5 H 0.9697 0.6610 0.7985
C16_5 C 0.9375(7) 0.6295(6) 0.7453(9)
H9_5 H 0.9255 0.6131 0.7702
C17_5 C 0.9290(5) 0.6252(5) 0.6911(9)
C18_5 C 0.9470(5) 0.6496(4) 0.6538(8)
C19_5 C 0.9385(6) 0.6453(6) 0.5996(8)
H10_5 H 0.9505 0.6617 0.5746
C20_5 C 0.9120(8) 0.6166(7) 0.5827(10)
H11_5 H 0.9063 0.6137 0.5464
C21_5 C 0.8939(7) 0.5922(6) 0.6200(12)
C22_5 C 0.9025(6) 0.5965(5) 0.6742(12)
H12_5 H 0.8904 0.5801 0.6991
C23_5 C 0.8439(3) 0.6971(3) 0.6872(5)
H13_5 H 0.8393 0.6955 0.6505
C24_5 C 0.8223(3) 0.6735(3) 0.7222(6)
H14_5 H 0.8034 0.6561 0.7089
C25_5 C 0.8291(3) 0.6759(4) 0.7770(6)
C26_5 C 0.8574(3) 0.7018(4) 0.7969(5)
H15_5 H 0.8620 0.7034 0.8336
C27_5 C 0.8790(3) 0.7254(3) 0.7620(5)
C28_5 C 0.8722(3) 0.7230(3) 0.7071(5)
C29_5 C 0.8938(3) 0.7466(3) 0.6722(5)
H16_5 H 0.8892 0.7450 0.6355
C30_5 C 0.9221(3) 0.7725(3) 0.6921(5)
C31_5 C 0.9289(3) 0.7749(3) 0.7469(5)
H17_5 H 0.9479 0.7923 0.7603
C32_5 C 0.9073(3) 0.7513(4) 0.7819(5)
H18_5 H 0.9119 0.7530 0.8186
C43_5 C 0.8599(4) 0.5615(3) 0.6081(8)
C46_5 C 0.9561(3) 0.8044(3) 0.6655(6)
C47_5 C 0.8018(3) 0.6512(4) 0.8015(6)
Cd9_5 Cd 0.75231(7) 0.60481(6) 0.85834(8)
O21_5 O 0.9491(7) 0.9033(7) 0.6012(11)
O22_5 O 0.9707(7) 0.8784(7) 0.5248(11)
Cd3_6 Cd 0.00231(7) 0.14519(6) 0.60834(8)
O9_6 O 0.0256(9) 0.1783(8) 0.6850(11)
O12_6 O 0.0543(7) 0.1979(7) 0.6117(11)
O13_6 O 0.1991(7) 0.3467(7) 0.8512(11)
O14_6 O 0.2207(7) 0.3716(7) 0.7748(11)
C13_6 C 0.0265(5) 0.3217(4) 0.6707(9)
H7_6 H 0.0144 0.3053 0.6457
C14_6 C 0.0180(6) 0.3174(5) 0.7249(9)
C15_6 C 0.0360(8) 0.3418(7) 0.7622(8)
H8_6 H 0.0303 0.3390 0.7985
C16_6 C 0.0625(7) 0.3705(6) 0.7453(9)
H9_6 H 0.0745 0.3869 0.7702
C17_6 C 0.0710(5) 0.3748(5) 0.6911(9)
C18_6 C 0.0530(5) 0.3504(4) 0.6538(8)
C19_6 C 0.0615(6) 0.3547(6) 0.5996(8)
H10_6 H 0.0495 0.3383 0.5746
C20_6 C 0.0880(8) 0.3834(7) 0.5827(10)
H11_6 H 0.0937 0.3863 0.5464
C21_6 C 0.1061(7) 0.4078(6) 0.6200(12)
C22_6 C 0.0975(6) 0.4035(5) 0.6742(12)
H12_6 H 0.1096 0.4199 0.6991
C23_6 C 0.1561(3) 0.3029(3) 0.6872(5)
H13_6 H 0.1607 0.3045 0.6505
C24_6 C 0.1777(3) 0.3265(3) 0.7222(6)
H14_6 H 0.1966 0.3439 0.7089
C25_6 C 0.1709(3) 0.3241(4) 0.7770(6)
C26_6 C 0.1426(3) 0.2982(4) 0.7969(5)
H15_6 H 0.1380 0.2966 0.8336
C27_6 C 0.1210(3) 0.2746(3) 0.7620(5)
C28_6 C 0.1278(3) 0.2770(3) 0.7071(5)
C29_6 C 0.1062(3) 0.2534(3) 0.6722(5)
H16_6 H 0.1108 0.2550 0.6355
C30_6 C 0.0779(3) 0.2275(3) 0.6921(5)
C31_6 C 0.0711(3) 0.2251(3) 0.7469(5)
H17_6 H 0.0521 0.2077 0.7603
C32_6 C 0.0927(3) 0.2487(4) 0.7819(5)
H18_6 H 0.0881 0.2470 0.8186
C43_6 C 0.1401(4) 0.4385(3) 0.6081(8)
C46_6 C 0.0439(3) 0.1956(3) 0.6655(6)
C47_6 C 0.1982(3) 0.3488(4) 0.8015(6)
Cd9_6 Cd 0.24769(7) 0.39519(6) 0.85834(8)
O21_6 O 0.0509(7) 0.0967(7) 0.6012(11)
O22_6 O 0.0293(7) 0.1216(7) 0.5248(11)
Cd1_6 Cd 0.96790(10) 0.19540(9) 0.72126(14)
Cd2_6 Cd 0.92987(8) 0.24969(8) 0.82604(10)
O1_6 O 0.9098(8) 0.2118(8) 0.7539(11)
O2_6 O 0.8756(8) 0.2005(7) 0.8302(11)
O5_4 O 0.7214(8) 0.0342(8) 0.6279(11)
O6_4 O 0.7425(8) 0.0604(8) 0.5500(11)
O7_6 O 0.9771(9) 0.2894(8) 0.7948(11)
O8_6 O 0.9813(8) 0.2544(7) 0.7169(11)
O10_6 O 0.9455(8) 0.2009(7) 0.6393(11)
O11_6 O 0.9630(8) 0.1837(7) 0.5569(10)
C1_6 C 0.8792(13) 0.1960(12) 0.7832(18)
C2_6 C 0.7426(12) 0.0612(12) 0.5995(18)
C3_6 C 0.8016(5) 0.1197(5) 0.7633(6)
H1_6 H 0.7834 0.1059 0.7842
C4_6 C 0.8282(6) 0.1456(5) 0.7872(6)
H2_6 H 0.8278 0.1491 0.8242
C5_6 C 0.8554(6) 0.1662(6) 0.7560(8)
C6_6 C 0.8561(6) 0.1609(6) 0.7007(8)
H3_6 H 0.8743 0.1747 0.6798
C7_6 C 0.8295(5) 0.1351(5) 0.6768(6)
C8_6 C 0.8022(5) 0.1145(4) 0.7081(6)
C9_6 C 0.7756(6) 0.0886(6) 0.6841(7)
H4_6 H 0.7574 0.0748 0.7050
C10_6 C 0.7762(7) 0.0833(7) 0.6289(7)
C11_6 C 0.8035(7) 0.1039(7) 0.5976(6)
H5_6 H 0.8039 0.1004 0.5607
C12_6 C 0.8301(7) 0.1298(6) 0.6216(6)
H6_6 H 0.8483 0.1436 0.6007
C33_6 C 0.9212(3) 0.2297(4) 0.5540(6)
C34_6 C 0.9085(3) 0.2538(4) 0.5954(6)
H19_6 H 0.9169 0.2490 0.6303
C35_6 C 0.8834(3) 0.2851(4) 0.5846(6)
H20_6 H 0.8749 0.3012 0.6123
C36_6 C 0.8709(3) 0.2923(5) 0.5324(7)
C37_6 C 0.8458(3) 0.3236(5) 0.5215(7)
H21_6 H 0.8373 0.3397 0.5492
C38_6 C 0.8333(4) 0.3308(6) 0.4693(7)
C39_6 C 0.8460(4) 0.3067(6) 0.4279(7)
H22_6 H 0.8376 0.3115 0.3930
C40_6 C 0.8711(4) 0.2754(6) 0.4387(6)
H23_6 H 0.8795 0.2593 0.4111
C41_6 C 0.8836(3) 0.2682(5) 0.4910(6)
C42_6 C 0.9087(4) 0.2369(5) 0.5018(6)
H24_6 H 0.9171 0.2207 0.4741
C44_6 C 0.9878(3) 0.2829(4) 0.7472(5)
C45_6 C 0.9435(3) 0.1969(4) 0.5847(6)
C48_6 C 0.8070(4) 0.3603(4) 0.4416(8)
Cd5_4 Cd 0.71790(10) 0.05460(9) 0.47126(14)
Cd7_4 Cd 0.67987(8) 0.00031(8) 0.57604(10)
O17_6 O 0.8787(8) 0.2985(7) 0.8167(10)
O18_6 O 0.9017(8) 0.2886(8) 0.8924(10)
O19_6 O 0.9714(8) 0.2158(8) 0.8779(11)
O20_6 O 0.9925(8) 0.1896(8) 0.8000(11)
O23_6 O 0.9557(7) 0.1051(7) 0.6449(11)
O24_6 O 0.9526(7) 0.1360(7) 0.7205(11)
O1_7 O 0.1598(8) 0.0382(8) 0.0039(11)
O2_7 O 0.1256(8) 0.0495(7) 0.0802(11)
C1_7 C 0.1292(13) 0.0540(12) 0.0332(18)
C3_7 C 0.0516(5) 0.1303(5) 0.0133(6)
H1_7 H 0.0334 0.1441 0.0342
C4_7 C 0.0782(6) 0.1044(5) 0.0372(6)
H2_7 H 0.0778 0.1009 0.0742
C5_7 C 0.1054(6) 0.0838(6) 0.0060(8)
H17_7 H 0.3021 0.0423 0.0103
C32_7 C 0.3427(3) 0.0013(4) 0.0319(5)
H18_7 H 0.3381 0.0030 0.0686
O19_7 O 0.2214(8) 0.0342(8) 0.1279(11)
O20_7 O 0.2425(8) 0.0604(8) 0.0500(11)
O9_7 O 0.2756(9) 0.0717(8) 0.9350(11)
O10_7 O 0.1955(8) 0.0491(7) 0.8893(11)
O11_7 O 0.2130(8) 0.0663(7) 0.8069(10)
O12_7 O 0.3043(7) 0.0521(7) 0.8617(11)
C6_7 C 0.1061(6) 0.0891(6) 0.9507(8)
H3_7 H 0.1243 0.0753 0.9298
C7_7 C 0.0795(5) 0.1149(5) 0.9268(6)
C8_7 C 0.0522(5) 0.1355(4) 0.9581(6)
C9_7 C 0.0256(6) 0.1614(6) 0.9341(7)
H4_7 H 0.0074 0.1752 0.9550
C10_7 C 0.0262(7) 0.1667(7) 0.8789(7)
C11_7 C 0.0535(7) 0.1461(7) 0.8476(6)
H5_7 H 0.0539 0.1496 0.8107
C12_7 C 0.0801(7) 0.1202(6) 0.8716(6)
H6_7 H 0.0983 0.1064 0.8507
C30_7 C 0.3279(3) 0.0225(3) 0.9421(5)
C31_7 C 0.3211(3) 0.0249(3) 0.9969(5)
C33_7 C 0.1712(3) 0.0203(4) 0.8040(6)
H19_7 H 0.1669 0.0010 0.8803
C42_7 C 0.1587(4) 0.0131(5) 0.7518(6)
H24_7 H 0.1671 0.0293 0.7241
C45_7 C 0.1935(3) 0.0531(4) 0.8347(6)
C46_7 C 0.2939(3) 0.0544(3) 0.9155(6)
O21_7 O 0.3009(7) 0.1533(7) 0.8512(11)
O22_7 O 0.2793(7) 0.1284(7) 0.7748(11)
O7_7 O 0.2271(9) 0.9606(8) 0.0448(11)
O13_7 O 0.4491(7) 0.9033(7) 0.1012(11)
O14_7 O 0.4707(7) 0.8784(7) 0.0248(11)
C15_7 C 0.2860(8) 0.9082(7) 0.0122(8)
H8_7 H 0.2803 0.9110 0.0485
H9_7 H 0.3245 0.8631 0.0202
C25_7 C 0.4209(3) 0.9259(4) 0.0270(6)
C26_7 C 0.3926(3) 0.9518(4) 0.0469(5)
H15_7 H 0.3880 0.9534 0.0836
C27_7 C 0.3710(3) 0.9754(3) 0.0120(5)
C47_7 C 0.4482(3) 0.9012(4) 0.0515(6)
Cd9_7 Cd 0.49769(7) 0.85481(6) 0.10834(8)
O3_5 O 0.3787(8) 0.7985(7) 0.8167(10)
O4_5 O 0.4017(8) 0.7886(8) 0.8924(10)
O8_7 O 0.2313(8) 0.9956(7) 0.9669(11)
C13_7 C 0.2765(5) 0.9283(4) 0.9207(9)
H7_7 H 0.2644 0.9447 0.8957
C14_7 C 0.2680(6) 0.9326(5) 0.9749(9)
C16_7 C 0.3125(7) 0.8795(6) 0.9953(9)
C17_7 C 0.3210(5) 0.8752(5) 0.9411(9)
C18_7 C 0.3030(5) 0.8996(4) 0.9038(8)
C19_7 C 0.3115(6) 0.8953(6) 0.8496(8)
H10_7 H 0.2995 0.9117 0.8246
C20_7 C 0.3380(8) 0.8666(7) 0.8327(10)
H11_7 H 0.3437 0.8637 0.7964
C21_7 C 0.3561(7) 0.8422(6) 0.8700(12)
C22_7 C 0.3475(6) 0.8465(5) 0.9242(12)
H12_7 H 0.3596 0.8301 0.9491
C23_7 C 0.4061(3) 0.9471(3) 0.9372(5)
H13_7 H 0.4107 0.9455 0.9005
C24_7 C 0.4277(3) 0.9235(3) 0.9722(6)
H14_7 H 0.4466 0.9061 0.9589
C28_7 C 0.3778(3) 0.9730(3) 0.9571(5)
C29_7 C 0.3562(3) 0.9966(3) 0.9222(5)
H16_7 H 0.3608 0.9950 0.8855
C34_7 C 0.1585(3) 0.9962(4) 0.8454(6)
C35_7 C 0.1334(3) 0.9649(4) 0.8346(6)
H20_7 H 0.1249 0.9488 0.8623
C36_7 C 0.1209(3) 0.9577(5) 0.7824(7)
C37_7 C 0.0958(3) 0.9264(5) 0.7715(7)
H21_7 H 0.0873 0.9103 0.7992
C38_7 C 0.0833(4) 0.9192(6) 0.7193(7)
C39_7 C 0.0960(4) 0.9433(6) 0.6779(7)
H22_7 H 0.0876 0.9385 0.6430
C40_7 C 0.1211(4) 0.9746(6) 0.6887(6)
H23_7 H 0.1295 0.9907 0.6611
C41_7 C 0.1336(3) 0.9818(5) 0.7410(6)
C43_7 C 0.3901(4) 0.8115(3) 0.8581(8)
C44_7 C 0.2378(3) 0.9671(4) 0.9972(5)
C48_7 C 0.0570(4) 0.8897(4) 0.6916(8)
Cd6_5 Cd 0.42987(8) 0.74969(8) 0.82604(10)
C2_7 C 0.9926(12) 0.1888(12) 0.8495(18)
C2_8 C 0.0074(12) 0.8112(12) 0.8495(18)
O7_8 O 0.7729(9) 0.0394(8) 0.0448(11)
O13_8 O 0.5509(7) 0.0967(7) 0.1012(11)
O14_8 O 0.5293(7) 0.1216(7) 0.0248(11)
C15_8 C 0.7140(8) 0.0918(7) 0.0122(8)
H8_8 H 0.7197 0.0890 0.0485
H9_8 H 0.6755 0.1369 0.0202
C25_8 C 0.5791(3) 0.0741(4) 0.0270(6)
C26_8 C 0.6074(3) 0.0482(4) 0.0469(5)
H15_8 H 0.6120 0.0466 0.0836
C27_8 C 0.6290(3) 0.0246(3) 0.0120(5)
C47_8 C 0.5518(3) 0.0988(4) 0.0515(6)
Cd9_8 Cd 0.50231(7) 0.14519(6) 0.10834(8)
O3_6 O 0.6213(8) 0.2015(7) 0.8167(10)
O4_6 O 0.5983(8) 0.2114(8) 0.8924(10)
O8_8 O 0.7687(8) 0.0044(7) 0.9669(11)
C13_8 C 0.7235(5) 0.0717(4) 0.9207(9)
H7_8 H 0.7356 0.0553 0.8957
C14_8 C 0.7320(6) 0.0674(5) 0.9749(9)
C16_8 C 0.6875(7) 0.1205(6) 0.9953(9)
C17_8 C 0.6790(5) 0.1248(5) 0.9411(9)
C18_8 C 0.6970(5) 0.1004(4) 0.9038(8)
C19_8 C 0.6885(6) 0.1047(6) 0.8496(8)
H10_8 H 0.7005 0.0883 0.8246
C20_8 C 0.6620(8) 0.1334(7) 0.8327(10)
H11_8 H 0.6563 0.1363 0.7964
C21_8 C 0.6439(7) 0.1578(6) 0.8700(12)
C22_8 C 0.6525(6) 0.1535(5) 0.9242(12)
H12_8 H 0.6404 0.1699 0.9491
C23_8 C 0.5939(3) 0.0529(3) 0.9372(5)
H13_8 H 0.5893 0.0545 0.9005
C24_8 C 0.5723(3) 0.0765(3) 0.9722(6)
H14_8 H 0.5534 0.0939 0.9589
C28_8 C 0.6222(3) 0.0270(3) 0.9571(5)
C29_8 C 0.6438(3) 0.0034(3) 0.9222(5)
H16_8 H 0.6392 0.0050 0.8855
C34_8 C 0.8415(3) 0.0038(4) 0.8454(6)
C35_8 C 0.8666(3) 0.0351(4) 0.8346(6)
H20_8 H 0.8751 0.0512 0.8623
C36_8 C 0.8791(3) 0.0423(5) 0.7824(7)
C37_8 C 0.9042(3) 0.0736(5) 0.7715(7)
H21_8 H 0.9127 0.0897 0.7992
C38_8 C 0.9167(4) 0.0808(6) 0.7193(7)
C39_8 C 0.9040(4) 0.0567(6) 0.6779(7)
H22_8 H 0.9124 0.0615 0.6430
C40_8 C 0.8789(4) 0.0254(6) 0.6887(6)
H23_8 H 0.8705 0.0093 0.6611
C41_8 C 0.8664(3) 0.0182(5) 0.7410(6)
C43_8 C 0.6099(4) 0.1885(3) 0.8581(8)
C44_8 C 0.7622(3) 0.0329(4) 0.9972(5)
C48_8 C 0.9430(4) 0.1103(4) 0.6916(8)
Cd6_6 Cd 0.57013(8) 0.25031(8) 0.82604(10)
O1_8 O 0.8402(8) 0.9618(8) 0.0039(11)
O2_8 O 0.8744(8) 0.9505(7) 0.0802(11)
C1_8 C 0.8708(13) 0.9460(12) 0.0332(18)
C3_8 C 0.9484(5) 0.8697(5) 0.0133(6)
H1_8 H 0.9666 0.8559 0.0342
C4_8 C 0.9218(6) 0.8956(5) 0.0372(6)
H2_8 H 0.9222 0.8991 0.0742
C5_8 C 0.8946(6) 0.9162(6) 0.0060(8)
H17_8 H 0.6979 0.9577 0.0103
C32_8 C 0.6573(3) 0.9987(4) 0.0319(5)
H18_8 H 0.6619 0.9970 0.0686
O19_8 O 0.7786(8) 0.9658(8) 0.1279(11)
O20_8 O 0.7575(8) 0.9396(8) 0.0500(11)
O9_8 O 0.7244(9) 0.9283(8) 0.9350(11)
O10_8 O 0.8045(8) 0.9509(7) 0.8893(11)
O11_8 O 0.7870(8) 0.9337(7) 0.8069(10)
O12_8 O 0.6957(7) 0.9479(7) 0.8617(11)
C6_8 C 0.8939(6) 0.9109(6) 0.9507(8)
H3_8 H 0.8757 0.9247 0.9298
C7_8 C 0.9205(5) 0.8851(5) 0.9268(6)
C8_8 C 0.9478(5) 0.8645(4) 0.9581(6)
C9_8 C 0.9744(6) 0.8386(6) 0.9341(7)
H4_8 H 0.9926 0.8248 0.9550
C10_8 C 0.9738(7) 0.8333(7) 0.8789(7)
C11_8 C 0.9465(7) 0.8539(7) 0.8476(6)
H5_8 H 0.9461 0.8504 0.8107
C12_8 C 0.9199(7) 0.8798(6) 0.8716(6)
H6_8 H 0.9017 0.8936 0.8507
C30_8 C 0.6721(3) 0.9775(3) 0.9421(5)
C31_8 C 0.6789(3) 0.9751(3) 0.9969(5)
C33_8 C 0.8288(3) 0.9797(4) 0.8040(6)
H19_8 H 0.8331 0.9990 0.8803
C42_8 C 0.8413(4) 0.9869(5) 0.7518(6)
H24_8 H 0.8329 0.9707 0.7241
C45_8 C 0.8065(3) 0.9469(4) 0.8347(6)
C46_8 C 0.7061(3) 0.9456(3) 0.9155(6)
O21_8 O 0.6991(7) 0.8467(7) 0.8512(11)
O22_8 O 0.7207(7) 0.8716(7) 0.7748(11)
Cd1_7 Cd 0.53210(10) 0.30460(9) 0.72126(14)
O1_9 O 0.5902(8) 0.2882(8) 0.7539(11)
O2_9 O 0.6244(8) 0.2995(7) 0.8302(11)
O3_7 O 0.3713(8) 0.0485(7) 0.5667(10)
O4_7 O 0.3483(8) 0.0386(8) 0.6424(10)
O7_9 O 0.5229(9) 0.2106(8) 0.7948(11)
O8_9 O 0.5187(8) 0.2456(7) 0.7169(11)
O9_9 O 0.4744(9) 0.3217(8) 0.6850(11)
O10_9 O 0.5545(8) 0.2991(7) 0.6393(11)
O11_9 O 0.5370(8) 0.3163(7) 0.5569(10)
O12_9 O 0.4457(7) 0.3021(7) 0.6117(11)
O15_3 O 0.7057(7) 0.1449(7) 0.3949(11)
O16_3 O 0.7026(7) 0.1140(7) 0.4705(11)
C1_9 C 0.6208(13) 0.3040(12) 0.7832(18)
C2_9 C 0.7574(12) 0.4388(12) 0.5995(18)
C3_9 C 0.6984(5) 0.3803(5) 0.7633(6)
H1_9 H 0.7166 0.3941 0.7842
C4_9 C 0.6718(6) 0.3544(5) 0.7872(6)
H2_9 H 0.6722 0.3509 0.8242
C5_9 C 0.6446(6) 0.3338(6) 0.7560(8)
C6_9 C 0.6439(6) 0.3391(6) 0.7007(8)
H3_9 H 0.6257 0.3253 0.6798
C7_9 C 0.6705(5) 0.3649(5) 0.6768(6)
C8_9 C 0.6978(5) 0.3855(4) 0.7081(6)
C9_9 C 0.7244(6) 0.4114(6) 0.6841(7)
H4_9 H 0.7426 0.4252 0.7050
C10_9 C 0.7238(7) 0.4167(7) 0.6289(7)
C11_9 C 0.6965(7) 0.3961(7) 0.5976(6)
H5_9 H 0.6961 0.3996 0.5607
C12_9 C 0.6699(7) 0.3702(6) 0.6216(6)
H6_9 H 0.6517 0.3564 0.6007
C13_9 C 0.4735(5) 0.1783(4) 0.6707(9)
H7_9 H 0.4856 0.1947 0.6457
C14_9 C 0.4820(6) 0.1826(5) 0.7249(9)
C15_9 C 0.4640(8) 0.1582(7) 0.7622(8)
H8_9 H 0.4697 0.1610 0.7985
C16_9 C 0.4375(7) 0.1295(6) 0.7453(9)
H9_9 H 0.4255 0.1131 0.7702
C17_9 C 0.4290(5) 0.1252(5) 0.6911(9)
C18_9 C 0.4470(5) 0.1496(4) 0.6538(8)
C19_9 C 0.4385(6) 0.1453(6) 0.5996(8)
H10_9 H 0.4505 0.1617 0.5746
C20_9 C 0.4120(8) 0.1166(7) 0.5827(10)
H11_9 H 0.4063 0.1137 0.5464
C21_9 C 0.3939(7) 0.0922(6) 0.6200(12)
C22_9 C 0.4025(6) 0.0965(5) 0.6742(12)
H12_9 H 0.3904 0.0801 0.6991
C23_9 C 0.3439(3) 0.1971(3) 0.6872(5)
H13_9 H 0.3393 0.1955 0.6505
C24_9 C 0.3223(3) 0.1735(3) 0.7222(6)
H14_9 H 0.3034 0.1561 0.7089
C25_9 C 0.3291(3) 0.1759(4) 0.7770(6)
C26_9 C 0.3574(3) 0.2018(4) 0.7969(5)
H15_9 H 0.3620 0.2034 0.8336
C27_9 C 0.3790(3) 0.2254(3) 0.7620(5)
C28_9 C 0.3722(3) 0.2230(3) 0.7071(5)
C29_9 C 0.3938(3) 0.2466(3) 0.6722(5)
H16_9 H 0.3892 0.2450 0.6355
C30_9 C 0.4221(3) 0.2725(3) 0.6921(5)
C31_9 C 0.4289(3) 0.2749(3) 0.7469(5)
H17_9 H 0.4479 0.2923 0.7603
C32_9 C 0.4073(3) 0.2513(4) 0.7819(5)
H18_9 H 0.4119 0.2530 0.8186
C33_9 C 0.5788(3) 0.2703(4) 0.5540(6)
C34_9 C 0.5915(3) 0.2462(4) 0.5954(6)
H19_9 H 0.5831 0.2510 0.6303
C35_9 C 0.6166(3) 0.2149(4) 0.5846(6)
H20_9 H 0.6251 0.1988 0.6123
C36_9 C 0.6291(3) 0.2077(5) 0.5324(7)
C37_9 C 0.6542(3) 0.1764(5) 0.5215(7)
H21_9 H 0.6627 0.1603 0.5492
C38_9 C 0.6667(4) 0.1692(6) 0.4693(7)
C39_9 C 0.6540(4) 0.1933(6) 0.4279(7)
H22_9 H 0.6624 0.1885 0.3930
C40_9 C 0.6289(4) 0.2246(6) 0.4387(6)
H23_9 H 0.6205 0.2407 0.4111
C41_9 C 0.6164(3) 0.2318(5) 0.4910(6)
C42_9 C 0.5913(4) 0.2631(5) 0.5018(6)
H24_9 H 0.5829 0.2793 0.4741
C43_9 C 0.3599(4) 0.0615(3) 0.6081(8)
C44_9 C 0.5122(3) 0.2171(4) 0.7472(5)
C45_9 C 0.5565(3) 0.3031(4) 0.5847(6)
C46_9 C 0.4561(3) 0.3044(3) 0.6655(6)
C47_9 C 0.3018(3) 0.1512(4) 0.8015(6)
C48_9 C 0.6930(4) 0.1397(4) 0.4416(8)
O19_9 O 0.5286(8) 0.2842(8) 0.8779(11)
O20_9 O 0.5075(8) 0.3104(8) 0.8000(11)
O23_7 O 0.5443(7) 0.3949(7) 0.6449(11)
O24_7 O 0.5474(7) 0.3640(7) 0.7205(11)
Cd1_8 Cd 0.46790(10) 0.69540(9) 0.72126(14)
O1_10 O 0.4098(8) 0.7118(8) 0.7539(11)
O2_10 O 0.3756(8) 0.7005(7) 0.8302(11)
O3_8 O 0.6287(8) 0.9515(7) 0.5667(10)
O4_8 O 0.6517(8) 0.9614(8) 0.6424(10)
O7_10 O 0.4771(9) 0.7894(8) 0.7948(11)
O8_10 O 0.4813(8) 0.7544(7) 0.7169(11)
O9_10 O 0.5256(9) 0.6783(8) 0.6850(11)
O10_10 O 0.4455(8) 0.7009(7) 0.6393(11)
O11_10 O 0.4630(8) 0.6837(7) 0.5569(10)
O12_10 O 0.5543(7) 0.6979(7) 0.6117(11)
O15_4 O 0.2943(7) 0.8551(7) 0.3949(11)
O16_4 O 0.2974(7) 0.8860(7) 0.4705(11)
C1_10 C 0.3792(13) 0.6960(12) 0.7832(18)
C2_10 C 0.2426(12) 0.5612(12) 0.5995(18)
C3_10 C 0.3016(5) 0.6197(5) 0.7633(6)
H1_10 H 0.2834 0.6059 0.7842
C4_10 C 0.3282(6) 0.6456(5) 0.7872(6)
H2_10 H 0.3278 0.6491 0.8242
C5_10 C 0.3554(6) 0.6662(6) 0.7560(8)
C6_10 C 0.3561(6) 0.6609(6) 0.7007(8)
H3_10 H 0.3743 0.6747 0.6798
C7_10 C 0.3295(5) 0.6351(5) 0.6768(6)
C8_10 C 0.3022(5) 0.6145(4) 0.7081(6)
C9_10 C 0.2756(6) 0.5886(6) 0.6841(7)
H4_10 H 0.2574 0.5748 0.7050
C10_10 C 0.2762(7) 0.5833(7) 0.6289(7)
C11_10 C 0.3035(7) 0.6039(7) 0.5976(6)
H5_10 H 0.3039 0.6004 0.5607
C12_10 C 0.3301(7) 0.6298(6) 0.6216(6)
H6_10 H 0.3483 0.6436 0.6007
C13_10 C 0.5265(5) 0.8217(4) 0.6707(9)
H7_10 H 0.5144 0.8053 0.6457
C14_10 C 0.5180(6) 0.8174(5) 0.7249(9)
C15_10 C 0.5360(8) 0.8418(7) 0.7622(8)
H8_10 H 0.5303 0.8390 0.7985
C16_10 C 0.5625(7) 0.8705(6) 0.7453(9)
H9_10 H 0.5745 0.8869 0.7702
C17_10 C 0.5710(5) 0.8748(5) 0.6911(9)
C18_10 C 0.5530(5) 0.8504(4) 0.6538(8)
C19_10 C 0.5615(6) 0.8547(6) 0.5996(8)
H10_10 H 0.5495 0.8383 0.5746
C20_10 C 0.5880(8) 0.8834(7) 0.5827(10)
H11_10 H 0.5937 0.8863 0.5464
C21_10 C 0.6061(7) 0.9078(6) 0.6200(12)
C22_10 C 0.5975(6) 0.9035(5) 0.6742(12)
H12_10 H 0.6096 0.9199 0.6991
C23_10 C 0.6561(3) 0.8029(3) 0.6872(5)
H13_10 H 0.6607 0.8045 0.6505
C24_10 C 0.6777(3) 0.8265(3) 0.7222(6)
H14_10 H 0.6966 0.8439 0.7089
C25_10 C 0.6709(3) 0.8241(4) 0.7770(6)
C26_10 C 0.6426(3) 0.7982(4) 0.7969(5)
H15_10 H 0.6380 0.7966 0.8336
C27_10 C 0.6210(3) 0.7746(3) 0.7620(5)
C28_10 C 0.6278(3) 0.7770(3) 0.7071(5)
C29_10 C 0.6062(3) 0.7534(3) 0.6722(5)
H16_10 H 0.6108 0.7550 0.6355
C30_10 C 0.5779(3) 0.7275(3) 0.6921(5)
C31_10 C 0.5711(3) 0.7251(3) 0.7469(5)
H17_10 H 0.5521 0.7077 0.7603
C32_10 C 0.5927(3) 0.7487(4) 0.7819(5)
H18_10 H 0.5881 0.7470 0.8186
C33_10 C 0.4212(3) 0.7297(4) 0.5540(6)
C34_10 C 0.4085(3) 0.7538(4) 0.5954(6)
H19_10 H 0.4169 0.7490 0.6303
C35_10 C 0.3834(3) 0.7851(4) 0.5846(6)
H20_10 H 0.3749 0.8012 0.6123
C36_10 C 0.3709(3) 0.7923(5) 0.5324(7)
C37_10 C 0.3458(3) 0.8236(5) 0.5215(7)
H21_10 H 0.3373 0.8397 0.5492
C38_10 C 0.3333(4) 0.8308(6) 0.4693(7)
C39_10 C 0.3460(4) 0.8067(6) 0.4279(7)
H22_10 H 0.3376 0.8115 0.3930
C40_10 C 0.3711(4) 0.7754(6) 0.4387(6)
H23_10 H 0.3795 0.7593 0.4111
C41_10 C 0.3836(3) 0.7682(5) 0.4910(6)
C42_10 C 0.4087(4) 0.7369(5) 0.5018(6)
H24_10 H 0.4171 0.7207 0.4741
C43_10 C 0.6401(4) 0.9385(3) 0.6081(8)
C44_10 C 0.4878(3) 0.7829(4) 0.7472(5)
C45_10 C 0.4435(3) 0.6969(4) 0.5847(6)
C46_10 C 0.5439(3) 0.6956(3) 0.6655(6)
C47_10 C 0.6982(3) 0.8488(4) 0.8015(6)
C48_10 C 0.3070(4) 0.8603(4) 0.4416(8)
O19_10 O 0.4714(8) 0.7158(8) 0.8779(11)
O20_10 O 0.4925(8) 0.6896(8) 0.8000(11)
O23_8 O 0.4557(7) 0.6051(7) 0.6449(11)
O24_8 O 0.4526(7) 0.6360(7) 0.7205(11)
O1_11 O 0.6598(8) 0.5382(8) 0.0039(11)
O2_11 O 0.6256(8) 0.5495(7) 0.0802(11)
O7_11 O 0.7271(9) 0.4606(8) 0.0448(11)
C1_11 C 0.6292(13) 0.5540(12) 0.0332(18)
C3_11 C 0.5516(5) 0.6303(5) 0.0133(6)
H1_11 H 0.5334 0.6441 0.0342
C4_11 C 0.5782(6) 0.6044(5) 0.0372(6)
H2_11 H 0.5778 0.6009 0.0742
C5_11 C 0.6054(6) 0.5838(6) 0.0060(8)
C15_11 C 0.7860(8) 0.4082(7) 0.0122(8)
H8_11 H 0.7803 0.4110 0.0485
H9_11 H 0.8245 0.3631 0.0202
C25_11 C 0.9209(3) 0.4259(4) 0.0270(6)
C26_11 C 0.8926(3) 0.4518(4) 0.0469(5)
H15_11 H 0.8880 0.4534 0.0836
C27_11 C 0.8710(3) 0.4754(3) 0.0120(5)
H17_11 H 0.8021 0.5423 0.0103
C32_11 C 0.8427(3) 0.5013(4) 0.0319(5)
H18_11 H 0.8381 0.5030 0.0686
C47_11 C 0.9482(3) 0.4012(4) 0.0515(6)
O17_7 O 0.6287(8) 0.4515(7) 0.0667(10)
O18_7 O 0.6517(8) 0.4614(8) 0.1424(10)
O8_11 O 0.7313(8) 0.4956(7) 0.9669(11)
O9_11 O 0.7756(9) 0.5717(8) 0.9350(11)
O10_11 O 0.6955(8) 0.5491(7) 0.8893(11)
O11_11 O 0.7130(8) 0.5663(7) 0.8069(10)
O12_11 O 0.8043(7) 0.5521(7) 0.8617(11)
C2_11 C 0.4926(12) 0.6888(12) 0.8495(18)
C6_11 C 0.6061(6) 0.5891(6) 0.9507(8)
H3_11 H 0.6243 0.5753 0.9298
C7_11 C 0.5795(5) 0.6149(5) 0.9268(6)
C8_11 C 0.5522(5) 0.6355(4) 0.9581(6)
C9_11 C 0.5256(6) 0.6614(6) 0.9341(7)
H4_11 H 0.5074 0.6752 0.9550
C10_11 C 0.5262(7) 0.6667(7) 0.8789(7)
C11_11 C 0.5535(7) 0.6461(7) 0.8476(6)
H5_11 H 0.5539 0.6496 0.8107
C12_11 C 0.5801(7) 0.6202(6) 0.8716(6)
H6_11 H 0.5983 0.6064 0.8507
C13_11 C 0.7765(5) 0.4283(4) 0.9207(9)
H7_11 H 0.7644 0.4447 0.8957
C14_11 C 0.7680(6) 0.4326(5) 0.9749(9)
C16_11 C 0.8125(7) 0.3795(6) 0.9953(9)
C17_11 C 0.8210(5) 0.3752(5) 0.9411(9)
C18_11 C 0.8030(5) 0.3996(4) 0.9038(8)
C19_11 C 0.8115(6) 0.3953(6) 0.8496(8)
H10_11 H 0.7995 0.4117 0.8246
C20_11 C 0.8380(8) 0.3666(7) 0.8327(10)
H11_11 H 0.8437 0.3637 0.7964
C21_11 C 0.8561(7) 0.3422(6) 0.8700(12)
C22_11 C 0.8475(6) 0.3465(5) 0.9242(12)
H12_11 H 0.8596 0.3301 0.9491
C23_11 C 0.9061(3) 0.4471(3) 0.9372(5)
H13_11 H 0.9107 0.4455 0.9005
C24_11 C 0.9277(3) 0.4235(3) 0.9722(6)
H14_11 H 0.9466 0.4061 0.9589
C28_11 C 0.8778(3) 0.4730(3) 0.9571(5)
C29_11 C 0.8562(3) 0.4966(3) 0.9222(5)
H16_11 H 0.8608 0.4950 0.8855
C30_11 C 0.8279(3) 0.5225(3) 0.9421(5)
C31_11 C 0.8211(3) 0.5249(3) 0.9969(5)
C33_11 C 0.6712(3) 0.5203(4) 0.8040(6)
C34_11 C 0.6585(3) 0.4962(4) 0.8454(6)
H19_11 H 0.6669 0.5010 0.8803
C35_11 C 0.6334(3) 0.4649(4) 0.8346(6)
H20_11 H 0.6249 0.4488 0.8623
C36_11 C 0.6209(3) 0.4577(5) 0.7824(7)
C37_11 C 0.5958(3) 0.4264(5) 0.7715(7)
H21_11 H 0.5873 0.4103 0.7992
C38_11 C 0.5833(4) 0.4192(6) 0.7193(7)
C39_11 C 0.5960(4) 0.4433(6) 0.6779(7)
H22_11 H 0.5876 0.4385 0.6430
C40_11 C 0.6211(4) 0.4746(6) 0.6887(6)
H23_11 H 0.6295 0.4907 0.6611
C41_11 C 0.6336(3) 0.4818(5) 0.7410(6)
C42_11 C 0.6587(4) 0.5131(5) 0.7518(6)
H24_11 H 0.6671 0.5293 0.7241
C43_11 C 0.8901(4) 0.3115(3) 0.8581(8)
C44_11 C 0.7378(3) 0.4671(4) 0.9972(5)
C45_11 C 0.6935(3) 0.5531(4) 0.8347(6)
C46_11 C 0.7939(3) 0.5544(3) 0.9155(6)
C48_11 C 0.5570(4) 0.3897(4) 0.6916(8)
O23_9 O 0.7057(7) 0.6449(7) 0.8949(11)
O24_9 O 0.7026(7) 0.6140(7) 0.9705(11)
O1_12 O 0.3402(8) 0.4618(8) 0.0039(11)
O2_12 O 0.3744(8) 0.4505(7) 0.0802(11)
O7_12 O 0.2729(9) 0.5394(8) 0.0448(11)
C1_12 C 0.3708(13) 0.4460(12) 0.0332(18)
C3_12 C 0.4484(5) 0.3697(5) 0.0133(6)
H1_12 H 0.4666 0.3559 0.0342
C4_12 C 0.4218(6) 0.3956(5) 0.0372(6)
H2_12 H 0.4222 0.3991 0.0742
C5_12 C 0.3946(6) 0.4162(6) 0.0060(8)
C15_12 C 0.2140(8) 0.5918(7) 0.0122(8)
H8_12 H 0.2197 0.5890 0.0485
H9_12 H 0.1755 0.6369 0.0202
C25_12 C 0.0791(3) 0.5741(4) 0.0270(6)
C26_12 C 0.1074(3) 0.5482(4) 0.0469(5)
H15_12 H 0.1120 0.5466 0.0836
C27_12 C 0.1290(3) 0.5246(3) 0.0120(5)
H17_12 H 0.1979 0.4577 0.0103
C32_12 C 0.1573(3) 0.4987(4) 0.0319(5)
H18_12 H 0.1619 0.4970 0.0686
C47_12 C 0.0518(3) 0.5988(4) 0.0515(6)
O17_8 O 0.3713(8) 0.5485(7) 0.0667(10)
O18_8 O 0.3483(8) 0.5386(8) 0.1424(10)
O8_12 O 0.2687(8) 0.5044(7) 0.9669(11)
O9_12 O 0.2244(9) 0.4283(8) 0.9350(11)
O10_12 O 0.3045(8) 0.4509(7) 0.8893(11)
O11_12 O 0.2870(8) 0.4337(7) 0.8069(10)
O12_12 O 0.1957(7) 0.4479(7) 0.8617(11)
C2_12 C 0.5074(12) 0.3112(12) 0.8495(18)
C6_12 C 0.3939(6) 0.4109(6) 0.9507(8)
H3_12 H 0.3757 0.4247 0.9298
C7_12 C 0.4205(5) 0.3851(5) 0.9268(6)
C8_12 C 0.4478(5) 0.3645(4) 0.9581(6)
C9_12 C 0.4744(6) 0.3386(6) 0.9341(7)
H4_12 H 0.4926 0.3248 0.9550
C10_12 C 0.4738(7) 0.3333(7) 0.8789(7)
C11_12 C 0.4465(7) 0.3539(7) 0.8476(6)
H5_12 H 0.4461 0.3504 0.8107
C12_12 C 0.4199(7) 0.3798(6) 0.8716(6)
H6_12 H 0.4017 0.3936 0.8507
C13_12 C 0.2235(5) 0.5717(4) 0.9207(9)
H7_12 H 0.2356 0.5553 0.8957
C14_12 C 0.2320(6) 0.5674(5) 0.9749(9)
C16_12 C 0.1875(7) 0.6205(6) 0.9953(9)
C17_12 C 0.1790(5) 0.6248(5) 0.9411(9)
C18_12 C 0.1970(5) 0.6004(4) 0.9038(8)
C19_12 C 0.1885(6) 0.6047(6) 0.8496(8)
H10_12 H 0.2005 0.5883 0.8246
C20_12 C 0.1620(8) 0.6334(7) 0.8327(10)
H11_12 H 0.1563 0.6363 0.7964
C21_12 C 0.1439(7) 0.6578(6) 0.8700(12)
C22_12 C 0.1525(6) 0.6535(5) 0.9242(12)
H12_12 H 0.1404 0.6699 0.9491
C23_12 C 0.0939(3) 0.5529(3) 0.9372(5)
H13_12 H 0.0893 0.5545 0.9005
C24_12 C 0.0723(3) 0.5765(3) 0.9722(6)
H14_12 H 0.0534 0.5939 0.9589
C28_12 C 0.1222(3) 0.5270(3) 0.9571(5)
C29_12 C 0.1438(3) 0.5034(3) 0.9222(5)
H16_12 H 0.1392 0.5050 0.8855
C30_12 C 0.1721(3) 0.4775(3) 0.9421(5)
C31_12 C 0.1789(3) 0.4751(3) 0.9969(5)
C33_12 C 0.3288(3) 0.4797(4) 0.8040(6)
C34_12 C 0.3415(3) 0.5038(4) 0.8454(6)
H19_12 H 0.3331 0.4990 0.8803
C35_12 C 0.3666(3) 0.5351(4) 0.8346(6)
H20_12 H 0.3751 0.5512 0.8623
C36_12 C 0.3791(3) 0.5423(5) 0.7824(7)
C37_12 C 0.4042(3) 0.5736(5) 0.7715(7)
H21_12 H 0.4127 0.5897 0.7992
C38_12 C 0.4167(4) 0.5808(6) 0.7193(7)
C39_12 C 0.4040(4) 0.5567(6) 0.6779(7)
H22_12 H 0.4124 0.5615 0.6430
C40_12 C 0.3789(4) 0.5254(6) 0.6887(6)
H23_12 H 0.3705 0.5093 0.6611
C41_12 C 0.3664(3) 0.5182(5) 0.7410(6)
C42_12 C 0.3413(4) 0.4869(5) 0.7518(6)
H24_12 H 0.3329 0.4707 0.7241
C43_12 C 0.1099(4) 0.6885(3) 0.8581(8)
C44_12 C 0.2622(3) 0.5329(4) 0.9972(5)
C45_12 C 0.3065(3) 0.4469(4) 0.8347(6)
C46_12 C 0.2061(3) 0.4456(3) 0.9155(6)
C48_12 C 0.4430(4) 0.6103(4) 0.6916(8)
O23_10 O 0.2943(7) 0.3551(7) 0.8949(11)
O24_10 O 0.2974(7) 0.3860(7) 0.9705(11)
Cd1_9 Cd 0.53210(10) 0.80460(9) 0.22126(14)
O1_13 O 0.5902(8) 0.7882(8) 0.2539(11)
O2_13 O 0.6244(8) 0.7995(7) 0.3302(11)
O7_13 O 0.5229(9) 0.7106(8) 0.2948(11)
O8_13 O 0.5187(8) 0.7456(7) 0.2169(11)
O9_13 O 0.4744(9) 0.8217(8) 0.1850(11)
O10_13 O 0.5545(8) 0.7991(7) 0.1393(11)
O11_13 O 0.5370(8) 0.8163(7) 0.0569(10)
O12_13 O 0.4457(7) 0.8021(7) 0.1117(11)
C1_13 C 0.6208(13) 0.8040(12) 0.2832(18)
C2_13 C 0.7574(12) 0.9388(12) 0.0995(18)
C3_13 C 0.6984(5) 0.8803(5) 0.2633(6)
H1_13 H 0.7166 0.8941 0.2842
C4_13 C 0.6718(6) 0.8544(5) 0.2872(6)
H2_13 H 0.6722 0.8509 0.3242
C5_13 C 0.6446(6) 0.8338(6) 0.2560(8)
C6_13 C 0.6439(6) 0.8391(6) 0.2007(8)
H3_13 H 0.6257 0.8253 0.1798
C7_13 C 0.6705(5) 0.8649(5) 0.1768(6)
C8_13 C 0.6978(5) 0.8855(4) 0.2081(6)
C9_13 C 0.7244(6) 0.9114(6) 0.1841(7)
H4_13 H 0.7426 0.9252 0.2050
C10_13 C 0.7238(7) 0.9167(7) 0.1289(7)
C11_13 C 0.6965(7) 0.8961(7) 0.0976(6)
H5_13 H 0.6961 0.8996 0.0607
C12_13 C 0.6699(7) 0.8702(6) 0.1216(6)
H6_13 H 0.6517 0.8564 0.1007
C13_13 C 0.4735(5) 0.6783(4) 0.1707(9)
H7_13 H 0.4856 0.6947 0.1457
C14_13 C 0.4820(6) 0.6826(5) 0.2249(9)
C15_13 C 0.4640(8) 0.6582(7) 0.2622(8)
H8_13 H 0.4697 0.6610 0.2985
C16_13 C 0.4375(7) 0.6295(6) 0.2453(9)
H9_13 H 0.4255 0.6131 0.2702
C17_13 C 0.4290(5) 0.6252(5) 0.1911(9)
C18_13 C 0.4470(5) 0.6496(4) 0.1538(8)
C19_13 C 0.4385(6) 0.6453(6) 0.0996(8)
H10_13 H 0.4505 0.6617 0.0746
C20_13 C 0.4120(8) 0.6166(7) 0.0827(10)
H11_13 H 0.4063 0.6137 0.0464
C21_13 C 0.3939(7) 0.5922(6) 0.1200(12)
C22_13 C 0.4025(6) 0.5965(5) 0.1742(12)
H12_13 H 0.3904 0.5801 0.1991
C23_13 C 0.3439(3) 0.6971(3) 0.1872(5)
H13_13 H 0.3393 0.6955 0.1505
C24_13 C 0.3223(3) 0.6735(3) 0.2222(6)
H14_13 H 0.3034 0.6561 0.2089
C25_13 C 0.3291(3) 0.6759(4) 0.2770(6)
C26_13 C 0.3574(3) 0.7018(4) 0.2969(5)
H15_13 H 0.3620 0.7034 0.3336
C27_13 C 0.3790(3) 0.7254(3) 0.2620(5)
C28_13 C 0.3722(3) 0.7230(3) 0.2071(5)
C29_13 C 0.3938(3) 0.7466(3) 0.1722(5)
H16_13 H 0.3892 0.7450 0.1355
C30_13 C 0.4221(3) 0.7725(3) 0.1921(5)
C31_13 C 0.4289(3) 0.7749(3) 0.2469(5)
H17_13 H 0.4479 0.7923 0.2603
C32_13 C 0.4073(3) 0.7513(4) 0.2819(5)
H18_13 H 0.4119 0.7530 0.3186
C33_13 C 0.5788(3) 0.7703(4) 0.0540(6)
C34_13 C 0.5915(3) 0.7462(4) 0.0954(6)
H19_13 H 0.5831 0.7510 0.1303
C35_13 C 0.6166(3) 0.7149(4) 0.0846(6)
H20_13 H 0.6251 0.6988 0.1123
C36_13 C 0.6291(3) 0.7077(5) 0.0324(7)
C37_13 C 0.6542(3) 0.6764(5) 0.0215(7)
H21_13 H 0.6627 0.6603 0.0492
C42_13 C 0.5913(4) 0.7631(5) 0.0018(6)
C43_13 C 0.3599(4) 0.5615(3) 0.1081(8)
C44_13 C 0.5122(3) 0.7171(4) 0.2472(5)
C45_13 C 0.5565(3) 0.8031(4) 0.0847(6)
C46_13 C 0.4561(3) 0.8044(3) 0.1655(6)
C47_13 C 0.3018(3) 0.6512(4) 0.3015(6)
O19_11 O 0.5286(8) 0.7842(8) 0.3779(11)
O20_11 O 0.5075(8) 0.8104(8) 0.3000(11)
O23_11 O 0.5443(7) 0.8949(7) 0.1449(11)
O24_11 O 0.5474(7) 0.8640(7) 0.2205(11)
C38_13 C 0.6667(4) 0.6692(6) 0.9693(7)
C39_13 C 0.6540(4) 0.6933(6) 0.9279(7)
H22_13 H 0.6624 0.6885 0.8930
C40_13 C 0.6289(4) 0.7246(6) 0.9387(6)
H23_13 H 0.6205 0.7407 0.9111
C41_13 C 0.6164(3) 0.7318(5) 0.9910(6)
H24_13 H 0.5829 0.7793 0.9741
C48_13 C 0.6930(4) 0.6397(4) 0.9416(8)
Cd1_10 Cd 0.46790(10) 0.19540(9) 0.22126(14)
O1_14 O 0.4098(8) 0.2118(8) 0.2539(11)
O2_14 O 0.3756(8) 0.2005(7) 0.3302(11)
O7_14 O 0.4771(9) 0.2894(8) 0.2948(11)
O8_14 O 0.4813(8) 0.2544(7) 0.2169(11)
O9_14 O 0.5256(9) 0.1783(8) 0.1850(11)
O10_14 O 0.4455(8) 0.2009(7) 0.1393(11)
O11_14 O 0.4630(8) 0.1837(7) 0.0569(10)
O12_14 O 0.5543(7) 0.1979(7) 0.1117(11)
C1_14 C 0.3792(13) 0.1960(12) 0.2832(18)
C2_14 C 0.2426(12) 0.0612(12) 0.0995(18)
C3_14 C 0.3016(5) 0.1197(5) 0.2633(6)
H1_14 H 0.2834 0.1059 0.2842
C4_14 C 0.3282(6) 0.1456(5) 0.2872(6)
H2_14 H 0.3278 0.1491 0.3242
C5_14 C 0.3554(6) 0.1662(6) 0.2560(8)
C6_14 C 0.3561(6) 0.1609(6) 0.2007(8)
H3_14 H 0.3743 0.1747 0.1798
C7_14 C 0.3295(5) 0.1351(5) 0.1768(6)
C8_14 C 0.3022(5) 0.1145(4) 0.2081(6)
C9_14 C 0.2756(6) 0.0886(6) 0.1841(7)
H4_14 H 0.2574 0.0748 0.2050
C10_14 C 0.2762(7) 0.0833(7) 0.1289(7)
C11_14 C 0.3035(7) 0.1039(7) 0.0976(6)
H5_14 H 0.3039 0.1004 0.0607
C12_14 C 0.3301(7) 0.1298(6) 0.1216(6)
H6_14 H 0.3483 0.1436 0.1007
C13_14 C 0.5265(5) 0.3217(4) 0.1707(9)
H7_14 H 0.5144 0.3053 0.1457
C14_14 C 0.5180(6) 0.3174(5) 0.2249(9)
C15_14 C 0.5360(8) 0.3418(7) 0.2622(8)
H8_14 H 0.5303 0.3390 0.2985
C16_14 C 0.5625(7) 0.3705(6) 0.2453(9)
H9_14 H 0.5745 0.3869 0.2702
C17_14 C 0.5710(5) 0.3748(5) 0.1911(9)
C18_14 C 0.5530(5) 0.3504(4) 0.1538(8)
C19_14 C 0.5615(6) 0.3547(6) 0.0996(8)
H10_14 H 0.5495 0.3383 0.0746
C20_14 C 0.5880(8) 0.3834(7) 0.0827(10)
H11_14 H 0.5937 0.3863 0.0464
C21_14 C 0.6061(7) 0.4078(6) 0.1200(12)
C22_14 C 0.5975(6) 0.4035(5) 0.1742(12)
H12_14 H 0.6096 0.4199 0.1991
C23_14 C 0.6561(3) 0.3029(3) 0.1872(5)
H13_14 H 0.6607 0.3045 0.1505
C24_14 C 0.6777(3) 0.3265(3) 0.2222(6)
H14_14 H 0.6966 0.3439 0.2089
C25_14 C 0.6709(3) 0.3241(4) 0.2770(6)
C26_14 C 0.6426(3) 0.2982(4) 0.2969(5)
H15_14 H 0.6380 0.2966 0.3336
C27_14 C 0.6210(3) 0.2746(3) 0.2620(5)
C28_14 C 0.6278(3) 0.2770(3) 0.2071(5)
C29_14 C 0.6062(3) 0.2534(3) 0.1722(5)
H16_14 H 0.6108 0.2550 0.1355
C30_14 C 0.5779(3) 0.2275(3) 0.1921(5)
C31_14 C 0.5711(3) 0.2251(3) 0.2469(5)
H17_14 H 0.5521 0.2077 0.2603
C32_14 C 0.5927(3) 0.2487(4) 0.2819(5)
H18_14 H 0.5881 0.2470 0.3186
C33_14 C 0.4212(3) 0.2297(4) 0.0540(6)
C34_14 C 0.4085(3) 0.2538(4) 0.0954(6)
H19_14 H 0.4169 0.2490 0.1303
C35_14 C 0.3834(3) 0.2851(4) 0.0846(6)
H20_14 H 0.3749 0.3012 0.1123
C36_14 C 0.3709(3) 0.2923(5) 0.0324(7)
C37_14 C 0.3458(3) 0.3236(5) 0.0215(7)
H21_14 H 0.3373 0.3397 0.0492
C42_14 C 0.4087(4) 0.2369(5) 0.0018(6)
C43_14 C 0.6401(4) 0.4385(3) 0.1081(8)
C44_14 C 0.4878(3) 0.2829(4) 0.2472(5)
C45_14 C 0.4435(3) 0.1969(4) 0.0847(6)
C46_14 C 0.5439(3) 0.1956(3) 0.1655(6)
C47_14 C 0.6982(3) 0.3488(4) 0.3015(6)
O19_12 O 0.4714(8) 0.2158(8) 0.3779(11)
O20_12 O 0.4925(8) 0.1896(8) 0.3000(11)
O23_12 O 0.4557(7) 0.1051(7) 0.1449(11)
O24_12 O 0.4526(7) 0.1360(7) 0.2205(11)
C38_14 C 0.3333(4) 0.3308(6) 0.9693(7)
C39_14 C 0.3460(4) 0.3067(6) 0.9279(7)
H22_14 H 0.3376 0.3115 0.8930
C40_14 C 0.3711(4) 0.2754(6) 0.9387(6)
H23_14 H 0.3795 0.2593 0.9111
C41_14 C 0.3836(3) 0.2682(5) 0.9910(6)
H24_14 H 0.4171 0.2207 0.9741
C48_14 C 0.3070(4) 0.3603(4) 0.9416(8)
O1_15 O 0.6598(8) 0.0382(8) 0.5039(11)
O2_15 O 0.6256(8) 0.0495(7) 0.5802(11)
O9_15 O 0.7756(9) 0.0717(8) 0.4350(11)
O10_15 O 0.6955(8) 0.0491(7) 0.3893(11)
O11_15 O 0.7130(8) 0.0663(7) 0.3069(10)
O12_15 O 0.8043(7) 0.0521(7) 0.3617(11)
C1_15 C 0.6292(13) 0.0540(12) 0.5332(18)
C2_15 C 0.4926(12) 0.1888(12) 0.3495(18)
C3_15 C 0.5516(5) 0.1303(5) 0.5133(6)
H1_15 H 0.5334 0.1441 0.5342
C4_15 C 0.5782(6) 0.1044(5) 0.5372(6)
H2_15 H 0.5778 0.1009 0.5742
C5_15 C 0.6054(6) 0.0838(6) 0.5060(8)
C6_15 C 0.6061(6) 0.0891(6) 0.4507(8)
H3_15 H 0.6243 0.0753 0.4298
C7_15 C 0.5795(5) 0.1149(5) 0.4268(6)
C8_15 C 0.5522(5) 0.1355(4) 0.4581(6)
C9_15 C 0.5256(6) 0.1614(6) 0.4341(7)
H4_15 H 0.5074 0.1752 0.4550
C10_15 C 0.5262(7) 0.1667(7) 0.3789(7)
C11_15 C 0.5535(7) 0.1461(7) 0.3476(6)
H5_15 H 0.5539 0.1496 0.3107
C12_15 C 0.5801(7) 0.1202(6) 0.3716(6)
H6_15 H 0.5983 0.1064 0.3507
C30_15 C 0.8279(3) 0.0225(3) 0.4421(5)
C31_15 C 0.8211(3) 0.0249(3) 0.4969(5)
H17_15 H 0.8021 0.0423 0.5103
C32_15 C 0.8427(3) 0.0013(4) 0.5319(5)
H18_15 H 0.8381 0.0030 0.5686
C33_15 C 0.6712(3) 0.0203(4) 0.3040(6)
H19_15 H 0.6669 0.0010 0.3803
C42_15 C 0.6587(4) 0.0131(5) 0.2518(6)
H24_15 H 0.6671 0.0293 0.2241
C45_15 C 0.6935(3) 0.0531(4) 0.3347(6)
C46_15 C 0.7939(3) 0.0544(3) 0.4155(6)
O7_15 O 0.7271(9) 0.9606(8) 0.5448(11)
O8_15 O 0.7313(8) 0.9956(7) 0.4669(11)
C13_15 C 0.7765(5) 0.9283(4) 0.4207(9)
H7_15 H 0.7644 0.9447 0.3957
C14_15 C 0.7680(6) 0.9326(5) 0.4749(9)
C15_15 C 0.7860(8) 0.9082(7) 0.5122(8)
H8_15 H 0.7803 0.9110 0.5485
C16_15 C 0.8125(7) 0.8795(6) 0.4953(9)
H9_15 H 0.8245 0.8631 0.5202
C17_15 C 0.8210(5) 0.8752(5) 0.4411(9)
C18_15 C 0.8030(5) 0.8996(4) 0.4038(8)
C19_15 C 0.8115(6) 0.8953(6) 0.3496(8)
H10_15 H 0.7995 0.9117 0.3246
C20_15 C 0.8380(8) 0.8666(7) 0.3327(10)
H11_15 H 0.8437 0.8637 0.2964
C21_15 C 0.8561(7) 0.8422(6) 0.3700(12)
C22_15 C 0.8475(6) 0.8465(5) 0.4242(12)
H12_15 H 0.8596 0.8301 0.4491
C23_15 C 0.9061(3) 0.9471(3) 0.4372(5)
H13_15 H 0.9107 0.9455 0.4005
C24_15 C 0.9277(3) 0.9235(3) 0.4722(6)
H14_15 H 0.9466 0.9061 0.4589
C25_15 C 0.9209(3) 0.9259(4) 0.5270(6)
C26_15 C 0.8926(3) 0.9518(4) 0.5469(5)
H15_15 H 0.8880 0.9534 0.5836
C27_15 C 0.8710(3) 0.9754(3) 0.5120(5)
C28_15 C 0.8778(3) 0.9730(3) 0.4571(5)
C29_15 C 0.8562(3) 0.9966(3) 0.4222(5)
H16_15 H 0.8608 0.9950 0.3855
C34_15 C 0.6585(3) 0.9962(4) 0.3454(6)
C35_15 C 0.6334(3) 0.9649(4) 0.3346(6)
H20_15 H 0.6249 0.9488 0.3623
C36_15 C 0.6209(3) 0.9577(5) 0.2824(7)
C37_15 C 0.5958(3) 0.9264(5) 0.2715(7)
H21_15 H 0.5873 0.9103 0.2992
C38_15 C 0.5833(4) 0.9192(6) 0.2193(7)
C39_15 C 0.5960(4) 0.9433(6) 0.1779(7)
H22_15 H 0.5876 0.9385 0.1430
C40_15 C 0.6211(4) 0.9746(6) 0.1887(6)
H23_15 H 0.6295 0.9907 0.1611
C41_15 C 0.6336(3) 0.9818(5) 0.2410(6)
C43_15 C 0.8901(4) 0.8115(3) 0.3581(8)
C44_15 C 0.7378(3) 0.9671(4) 0.4972(5)
C47_15 C 0.9482(3) 0.9012(4) 0.5515(6)
C48_15 C 0.5570(4) 0.8897(4) 0.1916(8)
O7_16 O 0.2729(9) 0.0394(8) 0.5448(11)
O8_16 O 0.2687(8) 0.0044(7) 0.4669(11)
C13_16 C 0.2235(5) 0.0717(4) 0.4207(9)
H7_16 H 0.2356 0.0553 0.3957
C14_16 C 0.2320(6) 0.0674(5) 0.4749(9)
C15_16 C 0.2140(8) 0.0918(7) 0.5122(8)
H8_16 H 0.2197 0.0890 0.5485
C16_16 C 0.1875(7) 0.1205(6) 0.4953(9)
H9_16 H 0.1755 0.1369 0.5202
C17_16 C 0.1790(5) 0.1248(5) 0.4411(9)
C18_16 C 0.1970(5) 0.1004(4) 0.4038(8)
C19_16 C 0.1885(6) 0.1047(6) 0.3496(8)
H10_16 H 0.2005 0.0883 0.3246
C20_16 C 0.1620(8) 0.1334(7) 0.3327(10)
H11_16 H 0.1563 0.1363 0.2964
C21_16 C 0.1439(7) 0.1578(6) 0.3700(12)
C22_16 C 0.1525(6) 0.1535(5) 0.4242(12)
H12_16 H 0.1404 0.1699 0.4491
C23_16 C 0.0939(3) 0.0529(3) 0.4372(5)
H13_16 H 0.0893 0.0545 0.4005
C24_16 C 0.0723(3) 0.0765(3) 0.4722(6)
H14_16 H 0.0534 0.0939 0.4589
C25_16 C 0.0791(3) 0.0741(4) 0.5270(6)
C26_16 C 0.1074(3) 0.0482(4) 0.5469(5)
H15_16 H 0.1120 0.0466 0.5836
C27_16 C 0.1290(3) 0.0246(3) 0.5120(5)
C28_16 C 0.1222(3) 0.0270(3) 0.4571(5)
C29_16 C 0.1438(3) 0.0034(3) 0.4222(5)
H16_16 H 0.1392 0.0050 0.3855
C34_16 C 0.3415(3) 0.0038(4) 0.3454(6)
C35_16 C 0.3666(3) 0.0351(4) 0.3346(6)
H20_16 H 0.3751 0.0512 0.3623
C36_16 C 0.3791(3) 0.0423(5) 0.2824(7)
C37_16 C 0.4042(3) 0.0736(5) 0.2715(7)
H21_16 H 0.4127 0.0897 0.2992
C38_16 C 0.4167(4) 0.0808(6) 0.2193(7)
C39_16 C 0.4040(4) 0.0567(6) 0.1779(7)
H22_16 H 0.4124 0.0615 0.1430
C40_16 C 0.3789(4) 0.0254(6) 0.1887(6)
H23_16 H 0.3705 0.0093 0.1611
C41_16 C 0.3664(3) 0.0182(5) 0.2410(6)
C43_16 C 0.1099(4) 0.1885(3) 0.3581(8)
C44_16 C 0.2622(3) 0.0329(4) 0.4972(5)
C47_16 C 0.0518(3) 0.0988(4) 0.5515(6)
C48_16 C 0.4430(4) 0.1103(4) 0.1916(8)
O1_16 O 0.3402(8) 0.9618(8) 0.5039(11)
O2_16 O 0.3744(8) 0.9505(7) 0.5802(11)
O9_16 O 0.2244(9) 0.9283(8) 0.4350(11)
O10_16 O 0.3045(8) 0.9509(7) 0.3893(11)
O11_16 O 0.2870(8) 0.9337(7) 0.3069(10)
O12_16 O 0.1957(7) 0.9479(7) 0.3617(11)
C1_16 C 0.3708(13) 0.9460(12) 0.5332(18)
C2_16 C 0.5074(12) 0.8112(12) 0.3495(18)
C3_16 C 0.4484(5) 0.8697(5) 0.5133(6)
H1_16 H 0.4666 0.8559 0.5342
C4_16 C 0.4218(6) 0.8956(5) 0.5372(6)
H2_16 H 0.4222 0.8991 0.5742
C5_16 C 0.3946(6) 0.9162(6) 0.5060(8)
C6_16 C 0.3939(6) 0.9109(6) 0.4507(8)
H3_16 H 0.3757 0.9247 0.4298
C7_16 C 0.4205(5) 0.8851(5) 0.4268(6)
C8_16 C 0.4478(5) 0.8645(4) 0.4581(6)
C9_16 C 0.4744(6) 0.8386(6) 0.4341(7)
H4_16 H 0.4926 0.8248 0.4550
C10_16 C 0.4738(7) 0.8333(7) 0.3789(7)
C11_16 C 0.4465(7) 0.8539(7) 0.3476(6)
H5_16 H 0.4461 0.8504 0.3107
C12_16 C 0.4199(7) 0.8798(6) 0.3716(6)
H6_16 H 0.4017 0.8936 0.3507
C30_16 C 0.1721(3) 0.9775(3) 0.4421(5)
C31_16 C 0.1789(3) 0.9751(3) 0.4969(5)
H17_16 H 0.1979 0.9577 0.5103
C32_16 C 0.1573(3) 0.9987(4) 0.5319(5)
H18_16 H 0.1619 0.9970 0.5686
C33_16 C 0.3288(3) 0.9797(4) 0.3040(6)
H19_16 H 0.3331 0.9990 0.3803
C42_16 C 0.3413(4) 0.9869(5) 0.2518(6)
H24_16 H 0.3329 0.9707 0.2241
C45_16 C 0.3065(3) 0.9469(4) 0.3347(6)
C46_16 C 0.2061(3) 0.9456(3) 0.4155(6)
loop_
_geom_bond_atom_site_label_1
_geom_bond_atom_site_label_2
_geom_bond_site_symmetry_1
_geom_bond_site_symmetry_2
Cd1 O1 1_555 1_555
Cd2 O1 1_555 1_555
O1 C1 1_555 1_555
O2 Cd2 1_555 1_555
O5 C2 1_555 1_555
O6 C2 1_555 1_555
O7 Cd2 1_555 1_555
O8 Cd1 1_555 1_555
O10 Cd1 1_555 1_555
C1 O2 1_555 1_555
C2 C10 1_555 1_555
C3 H1 1_555 1_555
C4 C3 1_555 1_555
H2 C4 1_555 1_555
C5 C1 1_555 1_555
C6 C5 1_555 1_555
H3 C6 1_555 1_555
C7 C6 1_555 1_555
C8 C3 1_555 1_555
C9 C8 1_555 1_555
H4 C9 1_555 1_555
C10 C9 1_555 1_555
C11 C10 1_555 1_555
H5 C11 1_555 1_555
C12 C7 1_555 1_555
H6 C12 1_555 1_555
C33 C34 1_555 1_555
C34 H19 1_555 1_555
C35 C34 1_555 1_555
H20 C35 1_555 1_555
C36 C35 1_555 1_555
C37 C36 1_555 1_555
H21 C37 1_555 1_555
C42 C33 1_555 1_555
C44 O7 1_555 1_555
C45 O10 1_555 1_555
Cd7 O5 1_555 1_555
O17 Cd2 1_555 1_555
O18 Cd2 1_555 1_555
O19 Cd2 1_555 1_555
O20 Cd1 1_555 1_555
O24 Cd1 1_555 1_555
O8 C44 1_555 1_555
O11 C45 1_555 1_555
C4 C5 1_555 1_555
C7 C8 1_555 1_555
C11 C12 1_555 1_555
C33 C45 1_555 1_555
O15 C48 1_555 1_555
O16 C48 1_555 1_555
C39 C38 1_555 1_555
H22 C39 1_555 1_555
C40 C39 1_555 1_555
H23 C40 1_555 1_555
C48 C38 1_555 1_555
Cd4 O16 1_555 1_555
Cd8 O15 1_555 1_555
C40 C41 1_555 1_555
Cd3 O9 1_555 1_555
O3 C43 1_555 1_555
O4 C43 1_555 1_555
O12 Cd3 1_555 1_555
O13 C47 1_555 1_555
O14 C47 1_555 1_555
C13 H7 1_555 1_555
C14 C13 1_555 1_555
C15 C14 1_555 1_555
H8 C15 1_555 1_555
C16 C15 1_555 1_555
H9 C16 1_555 1_555
C17 C16 1_555 1_555
C18 C13 1_555 1_555
C19 C18 1_555 1_555
H10 C19 1_555 1_555
C20 C19 1_555 1_555
H11 C20 1_555 1_555
C21 C20 1_555 1_555
C22 C17 1_555 1_555
H12 C22 1_555 1_555
C23 H13 1_555 1_555
C24 C23 1_555 1_555
H14 C24 1_555 1_555
C25 C24 1_555 1_555
C26 C25 1_555 1_555
H15 C26 1_555 1_555
C27 C26 1_555 1_555
C28 C23 1_555 1_555
C29 C28 1_555 1_555
H16 C29 1_555 1_555
C30 C29 1_555 1_555
C31 C30 1_555 1_555
H17 C31 1_555 1_555
C32 C27 1_555 1_555
H18 C32 1_555 1_555
C43 C21 1_555 1_555
C46 O9 1_555 1_555
C47 C25 1_555 1_555
Cd9 O13 1_555 1_555
O21 Cd3 1_555 1_555
O22 Cd3 1_555 1_555
O12 C46 1_555 1_555
O14 Cd9 1_555 1_555
C17 C18 1_555 1_555
C21 C22 1_555 1_555
C27 C28 1_555 1_555
C30 C46 1_555 1_555
C31 C32 1_555 1_555
Cd3_2 O9_2 1_555 1_555
O3_2 C43_2 1_555 1_555
O4_2 C43_2 1_555 1_555
O12_2 Cd3_2 1_555 1_555
O13_2 C47_2 1_555 1_555
O14_2 C47_2 1_555 1_555
C13_2 H7_2 1_555 1_555
C14_2 C13_2 1_555 1_555
C15_2 C14_2 1_555 1_555
H8_2 C15_2 1_555 1_555
C16_2 C15_2 1_555 1_555
H9_2 C16_2 1_555 1_555
C17_2 C16_2 1_555 1_555
C18_2 C13_2 1_555 1_555
C19_2 C18_2 1_555 1_555
H10_2 C19_2 1_555 1_555
C20_2 C19_2 1_555 1_555
H11_2 C20_2 1_555 1_555
C21_2 C20_2 1_555 1_555
C22_2 C17_2 1_555 1_555
H12_2 C22_2 1_555 1_555
C23_2 H13_2 1_555 1_555
C24_2 C23_2 1_555 1_555
H14_2 C24_2 1_555 1_555
C25_2 C24_2 1_555 1_555
C26_2 C25_2 1_555 1_555
H15_2 C26_2 1_555 1_555
C27_2 C26_2 1_555 1_555
C28_2 C23_2 1_555 1_555
C29_2 C28_2 1_555 1_555
H16_2 C29_2 1_555 1_555
C30_2 C29_2 1_555 1_555
C31_2 C30_2 1_555 1_555
H17_2 C31_2 1_555 1_555
C32_2 C27_2 1_555 1_555
H18_2 C32_2 1_555 1_555
C43_2 C21_2 1_555 1_555
C46_2 O9_2 1_555 1_555
C47_2 C25_2 1_555 1_555
Cd9_2 O13_2 1_555 1_555
O21_2 Cd3_2 1_555 1_555
O22_2 Cd3_2 1_555 1_555
O12_2 C46_2 1_555 1_555
O14_2 Cd9_2 1_555 1_555
C17_2 C18_2 1_555 1_555
C21_2 C22_2 1_555 1_555
C27_2 C28_2 1_555 1_555
C30_2 C46_2 1_555 1_555
C31_2 C32_2 1_555 1_555
Cd1_2 O1_2 1_555 1_555
Cd2_2 O1_2 1_555 1_555
O1_2 C1_2 1_555 1_555
O2_2 Cd2_2 1_555 1_555
O5_2 C2_2 1_555 1_555
O6_2 C2_2 1_555 1_555
O7_2 Cd2_2 1_555 1_555
O8_2 Cd1_2 1_555 1_555
O10_2 Cd1_2 1_555 1_555
C1_2 O2_2 1_555 1_555
C2_2 C10_2 1_555 1_555
C3_2 H1_2 1_555 1_555
C4_2 C3_2 1_555 1_555
H2_2 C4_2 1_555 1_555
C5_2 C1_2 1_555 1_555
C6_2 C5_2 1_555 1_555
H3_2 C6_2 1_555 1_555
C7_2 C6_2 1_555 1_555
C8_2 C3_2 1_555 1_555
C9_2 C8_2 1_555 1_555
H4_2 C9_2 1_555 1_555
C10_2 C9_2 1_555 1_555
C11_2 C10_2 1_555 1_555
H5_2 C11_2 1_555 1_555
C12_2 C7_2 1_555 1_555
H6_2 C12_2 1_555 1_555
C33_2 C34_2 1_555 1_555
C34_2 H19_2 1_555 1_555
C35_2 C34_2 1_555 1_555
H20_2 C35_2 1_555 1_555
C36_2 C35_2 1_555 1_555
C37_2 C36_2 1_555 1_555
H21_2 C37_2 1_555 1_555
C42_2 C33_2 1_555 1_555
C44_2 O7_2 1_555 1_555
C45_2 O10_2 1_555 1_555
Cd7_2 O5_2 1_555 1_555
O17_2 Cd2_2 1_555 1_555
O18_2 Cd2_2 1_555 1_555
O19_2 Cd2_2 1_555 1_555
O20_2 Cd1_2 1_555 1_555
O24_2 Cd1_2 1_555 1_555
O8_2 C44_2 1_555 1_555
O11_2 C45_2 1_555 1_555
C4_2 C5_2 1_555 1_555
C7_2 C8_2 1_555 1_555
C11_2 C12_2 1_555 1_555
C33_2 C45_2 1_555 1_555
O15_2 C48_2 1_555 1_555
O16_2 C48_2 1_555 1_555
C39_2 C38_2 1_555 1_555
H22_2 C39_2 1_555 1_555
C40_2 C39_2 1_555 1_555
H23_2 C40_2 1_555 1_555
C48_2 C38_2 1_555 1_555
Cd4_2 O16_2 1_555 1_555
Cd8_2 O15_2 1_555 1_555
C40_2 C41_2 1_555 1_555
Cd1_3 O1_3 1_555 1_555
Cd2_3 O1_3 1_555 1_555
Cd3_3 O9_3 1_555 1_555
O1_3 C1_3 1_555 1_555
O2_3 Cd2_3 1_555 1_555
O3_3 C43_3 1_555 1_555
O4_3 C43_3 1_555 1_555
O7_3 Cd2_3 1_555 1_555
O8_3 Cd1_3 1_555 1_555
O9_3 Cd1_3 1_555 1_555
O10_3 Cd1_3 1_555 1_555
O11_3 Cd3_3 1_555 1_555
O12_3 Cd3_3 1_555 1_555
O13_3 C47_3 1_555 1_555
O14_3 C47_3 1_555 1_555
O23 C48_3 1_555 1_555
O24 C48_3 1_555 1_555
C1_3 O2_3 1_555 1_555
C3_3 H1_3 1_555 1_555
C4_3 C3_3 1_555 1_555
H2_3 C4_3 1_555 1_555
C5_3 C1_3 1_555 1_555
C6_3 C5_3 1_555 1_555
H3_3 C6_3 1_555 1_555
C7_3 C6_3 1_555 1_555
C8_3 C3_3 1_555 1_555
C9_3 C8_3 1_555 1_555
H4_3 C9_3 1_555 1_555
C10_3 C9_3 1_555 1_555
C11_3 C10_3 1_555 1_555
H5_3 C11_3 1_555 1_555
C12_3 C7_3 1_555 1_555
H6_3 C12_3 1_555 1_555
C13_3 H7_3 1_555 1_555
C14_3 C13_3 1_555 1_555
C15_3 C14_3 1_555 1_555
H8_3 C15_3 1_555 1_555
C16_3 C15_3 1_555 1_555
H9_3 C16_3 1_555 1_555
C17_3 C16_3 1_555 1_555
C18_3 C13_3 1_555 1_555
C19_3 C18_3 1_555 1_555
H10_3 C19_3 1_555 1_555
C20_3 C19_3 1_555 1_555
H11_3 C20_3 1_555 1_555
C21_3 C20_3 1_555 1_555
C22_3 C17_3 1_555 1_555
H12_3 C22_3 1_555 1_555
C23_3 H13_3 1_555 1_555
C24_3 C23_3 1_555 1_555
H14_3 C24_3 1_555 1_555
C25_3 C24_3 1_555 1_555
C26_3 C25_3 1_555 1_555
H15_3 C26_3 1_555 1_555
C27_3 C26_3 1_555 1_555
C28_3 C23_3 1_555 1_555
C29_3 C28_3 1_555 1_555
H16_3 C29_3 1_555 1_555
C30_3 C29_3 1_555 1_555
C31_3 C30_3 1_555 1_555
H17_3 C31_3 1_555 1_555
C32_3 C27_3 1_555 1_555
H18_3 C32_3 1_555 1_555
C33_3 C34_3 1_555 1_555
C34_3 H19_3 1_555 1_555
C35_3 C34_3 1_555 1_555
H20_3 C35_3 1_555 1_555
C36_3 C35_3 1_555 1_555
C37_3 C36_3 1_555 1_555
H21_3 C37_3 1_555 1_555
C38_3 C37_3 1_555 1_555
C39_3 C38_3 1_555 1_555
H22_3 C39_3 1_555 1_555
C40_3 C39_3 1_555 1_555
H23_3 C40_3 1_555 1_555
C41_3 C36_3 1_555 1_555
C42_3 C33_3 1_555 1_555
H24_3 C42_3 1_555 1_555
C43_3 C21_3 1_555 1_555
C44_3 O7_3 1_555 1_555
C45_3 O10_3 1_555 1_555
C46_3 O9_3 1_555 1_555
C47_3 C25_3 1_555 1_555
C48_3 C38_3 1_555 1_555
Cd6_3 O3_3 1_555 1_555
Cd9_3 O13_3 1_555 1_555
O17_3 Cd2_3 1_555 1_555
O18_3 Cd2_3 1_555 1_555
O19_3 Cd2_3 1_555 1_555
O20_3 Cd1_3 1_555 1_555
O21_3 Cd3_3 1_555 1_555
O22_3 Cd3_3 1_555 1_555
O23_3 Cd3_3 1_555 1_555
O24_3 Cd1_3 1_555 1_555
Cd3_3 O10_3 1_555 1_555
O4_3 Cd6_3 1_555 1_555
O8_3 C44_3 1_555 1_555
O11_3 C45_3 1_555 1_555
O12_3 C46_3 1_555 1_555
O14_3 Cd9_3 1_555 1_555
C4_3 C5_3 1_555 1_555
C7_3 C8_3 1_555 1_555
C11_3 C12_3 1_555 1_555
C14_3 C44_3 1_555 1_555
C17_3 C18_3 1_555 1_555
C21_3 C22_3 1_555 1_555
C27_3 C28_3 1_555 1_555
C30_3 C46_3 1_555 1_555
C31_3 C32_3 1_555 1_555
C33_3 C45_3 1_555 1_555
C40_3 C41_3 1_555 1_555
C41_3 C42_3 1_555 1_555
O19_2 C2_3 1_555 1_555
O20_2 C2_3 1_555 1_555
O19 C2_4 1_555 1_555
O20 C2_4 1_555 1_555
Cd1_4 O1_4 1_555 1_555
Cd2_4 O1_4 1_555 1_555
Cd3_4 O9_4 1_555 1_555
O1_4 C1_4 1_555 1_555
O2_4 Cd2_4 1_555 1_555
O3_4 C43_4 1_555 1_555
O4_4 C43_4 1_555 1_555
O7_4 Cd2_4 1_555 1_555
O8_4 Cd1_4 1_555 1_555
O9_4 Cd1_4 1_555 1_555
O10_4 Cd1_4 1_555 1_555
O11_4 Cd3_4 1_555 1_555
O12_4 Cd3_4 1_555 1_555
O13_4 C47_4 1_555 1_555
O14_4 C47_4 1_555 1_555
O23_2 C48_4 1_555 1_555
O24_2 C48_4 1_555 1_555
C1_4 O2_4 1_555 1_555
C3_4 H1_4 1_555 1_555
C4_4 C3_4 1_555 1_555
H2_4 C4_4 1_555 1_555
C5_4 C1_4 1_555 1_555
C6_4 C5_4 1_555 1_555
H3_4 C6_4 1_555 1_555
C7_4 C6_4 1_555 1_555
C8_4 C3_4 1_555 1_555
C9_4 C8_4 1_555 1_555
H4_4 C9_4 1_555 1_555
C10_4 C9_4 1_555 1_555
C11_4 C10_4 1_555 1_555
H5_4 C11_4 1_555 1_555
C12_4 C7_4 1_555 1_555
H6_4 C12_4 1_555 1_555
C13_4 H7_4 1_555 1_555
C14_4 C13_4 1_555 1_555
C15_4 C14_4 1_555 1_555
H8_4 C15_4 1_555 1_555
C16_4 C15_4 1_555 1_555
H9_4 C16_4 1_555 1_555
C17_4 C16_4 1_555 1_555
C18_4 C13_4 1_555 1_555
C19_4 C18_4 1_555 1_555
H10_4 C19_4 1_555 1_555
C20_4 C19_4 1_555 1_555
H11_4 C20_4 1_555 1_555
C21_4 C20_4 1_555 1_555
C22_4 C17_4 1_555 1_555
H12_4 C22_4 1_555 1_555
C23_4 H13_4 1_555 1_555
C24_4 C23_4 1_555 1_555
H14_4 C24_4 1_555 1_555
C25_4 C24_4 1_555 1_555
C26_4 C25_4 1_555 1_555
H15_4 C26_4 1_555 1_555
C27_4 C26_4 1_555 1_555
C28_4 C23_4 1_555 1_555
C29_4 C28_4 1_555 1_555
H16_4 C29_4 1_555 1_555
C30_4 C29_4 1_555 1_555
C31_4 C30_4 1_555 1_555
H17_4 C31_4 1_555 1_555
C32_4 C27_4 1_555 1_555
H18_4 C32_4 1_555 1_555
C33_4 C34_4 1_555 1_555
C34_4 H19_4 1_555 1_555
C35_4 C34_4 1_555 1_555
H20_4 C35_4 1_555 1_555
C36_4 C35_4 1_555 1_555
C37_4 C36_4 1_555 1_555
H21_4 C37_4 1_555 1_555
C38_4 C37_4 1_555 1_555
C39_4 C38_4 1_555 1_555
H22_4 C39_4 1_555 1_555
C40_4 C39_4 1_555 1_555
H23_4 C40_4 1_555 1_555
C41_4 C36_4 1_555 1_555
C42_4 C33_4 1_555 1_555
H24_4 C42_4 1_555 1_555
C43_4 C21_4 1_555 1_555
C44_4 O7_4 1_555 1_555
C45_4 O10_4 1_555 1_555
C46_4 O9_4 1_555 1_555
C47_4 C25_4 1_555 1_555
C48_4 C38_4 1_555 1_555
Cd6_4 O3_4 1_555 1_555
Cd9_4 O13_4 1_555 1_555
O17_4 Cd2_4 1_555 1_555
O18_4 Cd2_4 1_555 1_555
O19_4 Cd2_4 1_555 1_555
O20_4 Cd1_4 1_555 1_555
O21_4 Cd3_4 1_555 1_555
O22_4 Cd3_4 1_555 1_555
O23_4 Cd3_4 1_555 1_555
O24_4 Cd1_4 1_555 1_555
Cd3_4 O10_4 1_555 1_555
O4_4 Cd6_4 1_555 1_555
O8_4 C44_4 1_555 1_555
O11_4 C45_4 1_555 1_555
O12_4 C46_4 1_555 1_555
O14_4 Cd9_4 1_555 1_555
C4_4 C5_4 1_555 1_555
C7_4 C8_4 1_555 1_555
C11_4 C12_4 1_555 1_555
C14_4 C44_4 1_555 1_555
C17_4 C18_4 1_555 1_555
C21_4 C22_4 1_555 1_555
C27_4 C28_4 1_555 1_555
C30_4 C46_4 1_555 1_555
C31_4 C32_4 1_555 1_555
C33_4 C45_4 1_555 1_555
C40_4 C41_4 1_555 1_555
C41_4 C42_4 1_555 1_555
Cd1_5 O1_5 1_555 1_555
Cd2_5 O1_5 1_555 1_555
O1_5 C1_5 1_555 1_555
O2_5 Cd2_5 1_555 1_555
O5_3 C2_5 1_555 1_555
O6_3 C2_5 1_555 1_555
O7_5 Cd2_5 1_555 1_555
O8_5 Cd1_5 1_555 1_555
O10_5 Cd1_5 1_555 1_555
O23_3 C48_5 1_555 1_555
O24_3 C48_5 1_555 1_555
C1_5 O2_5 1_555 1_555
C2_5 C10_5 1_555 1_555
C3_5 H1_5 1_555 1_555
C4_5 C3_5 1_555 1_555
H2_5 C4_5 1_555 1_555
C5_5 C1_5 1_555 1_555
C6_5 C5_5 1_555 1_555
H3_5 C6_5 1_555 1_555
C7_5 C6_5 1_555 1_555
C8_5 C3_5 1_555 1_555
C9_5 C8_5 1_555 1_555
H4_5 C9_5 1_555 1_555
C10_5 C9_5 1_555 1_555
C11_5 C10_5 1_555 1_555
H5_5 C11_5 1_555 1_555
C12_5 C7_5 1_555 1_555
H6_5 C12_5 1_555 1_555
C33_5 C34_5 1_555 1_555
C34_5 H19_5 1_555 1_555
C35_5 C34_5 1_555 1_555
H20_5 C35_5 1_555 1_555
C36_5 C35_5 1_555 1_555
C37_5 C36_5 1_555 1_555
H21_5 C37_5 1_555 1_555
C38_5 C37_5 1_555 1_555
C39_5 C38_5 1_555 1_555
H22_5 C39_5 1_555 1_555
C40_5 C39_5 1_555 1_555
H23_5 C40_5 1_555 1_555
C41_5 C36_5 1_555 1_555
C42_5 C33_5 1_555 1_555
H24_5 C42_5 1_555 1_555
C44_5 O7_5 1_555 1_555
C45_5 O10_5 1_555 1_555
C48_5 C38_5 1_555 1_555
Cd5_3 O6_3 1_555 1_555
Cd7_3 O5_3 1_555 1_555
O17_5 Cd2_5 1_555 1_555
O18_5 Cd2_5 1_555 1_555
O19_5 Cd2_5 1_555 1_555
O20_5 Cd1_5 1_555 1_555
O24_5 Cd1_5 1_555 1_555
O8_5 C44_5 1_555 1_555
O11_5 C45_5 1_555 1_555
C4_5 C5_5 1_555 1_555
C7_5 C8_5 1_555 1_555
C11_5 C12_5 1_555 1_555
C33_5 C45_5 1_555 1_555
C40_5 C41_5 1_555 1_555
C41_5 C42_5 1_555 1_555
Cd3_5 O9_5 1_555 1_555
O17_4 C43_5 1_555 1_555
O18_4 C43_5 1_555 1_555
O12_5 Cd3_5 1_555 1_555
O13_5 C47_5 1_555 1_555
O14_5 C47_5 1_555 1_555
C13_5 H7_5 1_555 1_555
C14_5 C13_5 1_555 1_555
C15_5 C14_5 1_555 1_555
H8_5 C15_5 1_555 1_555
C16_5 C15_5 1_555 1_555
H9_5 C16_5 1_555 1_555
C17_5 C16_5 1_555 1_555
C18_5 C13_5 1_555 1_555
C19_5 C18_5 1_555 1_555
H10_5 C19_5 1_555 1_555
C20_5 C19_5 1_555 1_555
H11_5 C20_5 1_555 1_555
C21_5 C20_5 1_555 1_555
C22_5 C17_5 1_555 1_555
H12_5 C22_5 1_555 1_555
C23_5 H13_5 1_555 1_555
C24_5 C23_5 1_555 1_555
H14_5 C24_5 1_555 1_555
C25_5 C24_5 1_555 1_555
C26_5 C25_5 1_555 1_555
H15_5 C26_5 1_555 1_555
C27_5 C26_5 1_555 1_555
C28_5 C23_5 1_555 1_555
C29_5 C28_5 1_555 1_555
H16_5 C29_5 1_555 1_555
C30_5 C29_5 1_555 1_555
C31_5 C30_5 1_555 1_555
H17_5 C31_5 1_555 1_555
C32_5 C27_5 1_555 1_555
H18_5 C32_5 1_555 1_555
C43_5 C21_5 1_555 1_555
C46_5 O9_5 1_555 1_555
C47_5 C25_5 1_555 1_555
Cd9_5 O13_5 1_555 1_555
O21_5 Cd3_5 1_555 1_555
O22_5 Cd3_5 1_555 1_555
O12_5 C46_5 1_555 1_555
O14_5 Cd9_5 1_555 1_555
C17_5 C18_5 1_555 1_555
C21_5 C22_5 1_555 1_555
C27_5 C28_5 1_555 1_555
C30_5 C46_5 1_555 1_555
C31_5 C32_5 1_555 1_555
Cd3_6 O9_6 1_555 1_555
O17_3 C43_6 1_555 1_555
O18_3 C43_6 1_555 1_555
O12_6 Cd3_6 1_555 1_555
O13_6 C47_6 1_555 1_555
O14_6 C47_6 1_555 1_555
C13_6 H7_6 1_555 1_555
C14_6 C13_6 1_555 1_555
C15_6 C14_6 1_555 1_555
H8_6 C15_6 1_555 1_555
C16_6 C15_6 1_555 1_555
H9_6 C16_6 1_555 1_555
C17_6 C16_6 1_555 1_555
C18_6 C13_6 1_555 1_555
C19_6 C18_6 1_555 1_555
H10_6 C19_6 1_555 1_555
C20_6 C19_6 1_555 1_555
H11_6 C20_6 1_555 1_555
C21_6 C20_6 1_555 1_555
C22_6 C17_6 1_555 1_555
H12_6 C22_6 1_555 1_555
C23_6 H13_6 1_555 1_555
C24_6 C23_6 1_555 1_555
H14_6 C24_6 1_555 1_555
C25_6 C24_6 1_555 1_555
C26_6 C25_6 1_555 1_555
H15_6 C26_6 1_555 1_555
C27_6 C26_6 1_555 1_555
C28_6 C23_6 1_555 1_555
C29_6 C28_6 1_555 1_555
H16_6 C29_6 1_555 1_555
C30_6 C29_6 1_555 1_555
C31_6 C30_6 1_555 1_555
H17_6 C31_6 1_555 1_555
C32_6 C27_6 1_555 1_555
H18_6 C32_6 1_555 1_555
C43_6 C21_6 1_555 1_555
C46_6 O9_6 1_555 1_555
C47_6 C25_6 1_555 1_555
Cd9_6 O13_6 1_555 1_555
O21_6 Cd3_6 1_555 1_555
O22_6 Cd3_6 1_555 1_555
O12_6 C46_6 1_555 1_555
O14_6 Cd9_6 1_555 1_555
C17_6 C18_6 1_555 1_555
C21_6 C22_6 1_555 1_555
C27_6 C28_6 1_555 1_555
C30_6 C46_6 1_555 1_555
C31_6 C32_6 1_555 1_555
Cd1_6 O1_6 1_555 1_555
Cd2_6 O1_6 1_555 1_555
O1_6 C1_6 1_555 1_555
O2_6 Cd2_6 1_555 1_555
O5_4 C2_6 1_555 1_555
O6_4 C2_6 1_555 1_555
O7_6 Cd2_6 1_555 1_555
O8_6 Cd1_6 1_555 1_555
O10_6 Cd1_6 1_555 1_555
O23_4 C48_6 1_555 1_555
O24_4 C48_6 1_555 1_555
C1_6 O2_6 1_555 1_555
C2_6 C10_6 1_555 1_555
C3_6 H1_6 1_555 1_555
C4_6 C3_6 1_555 1_555
H2_6 C4_6 1_555 1_555
C5_6 C1_6 1_555 1_555
C6_6 C5_6 1_555 1_555
H3_6 C6_6 1_555 1_555
C7_6 C6_6 1_555 1_555
C8_6 C3_6 1_555 1_555
C9_6 C8_6 1_555 1_555
H4_6 C9_6 1_555 1_555
C10_6 C9_6 1_555 1_555
C11_6 C10_6 1_555 1_555
H5_6 C11_6 1_555 1_555
C12_6 C7_6 1_555 1_555
H6_6 C12_6 1_555 1_555
C33_6 C34_6 1_555 1_555
C34_6 H19_6 1_555 1_555
C35_6 C34_6 1_555 1_555
H20_6 C35_6 1_555 1_555
C36_6 C35_6 1_555 1_555
C37_6 C36_6 1_555 1_555
H21_6 C37_6 1_555 1_555
C38_6 C37_6 1_555 1_555
C39_6 C38_6 1_555 1_555
H22_6 C39_6 1_555 1_555
C40_6 C39_6 1_555 1_555
H23_6 C40_6 1_555 1_555
C41_6 C36_6 1_555 1_555
C42_6 C33_6 1_555 1_555
H24_6 C42_6 1_555 1_555
C44_6 O7_6 1_555 1_555
C45_6 O10_6 1_555 1_555
C48_6 C38_6 1_555 1_555
Cd5_4 O6_4 1_555 1_555
Cd7_4 O5_4 1_555 1_555
O17_6 Cd2_6 1_555 1_555
O18_6 Cd2_6 1_555 1_555
O19_6 Cd2_6 1_555 1_555
O20_6 Cd1_6 1_555 1_555
O24_6 Cd1_6 1_555 1_555
O8_6 C44_6 1_555 1_555
O11_6 C45_6 1_555 1_555
C4_6 C5_6 1_555 1_555
C7_6 C8_6 1_555 1_555
C11_6 C12_6 1_555 1_555
C33_6 C45_6 1_555 1_555
C40_6 C41_6 1_555 1_555
C41_6 C42_6 1_555 1_555
Cd6_2 O1_7 1_555 1_555
O1_7 C1_7 1_555 1_555
O2_7 Cd6_2 1_555 1_555
C1_7 O2_7 1_555 1_555
C3_7 H1_7 1_555 1_555
C4_7 C3_7 1_555 1_555
H2_7 C4_7 1_555 1_555
C5_7 C1_7 1_555 1_555
H18_7 C32_7 1_555 1_555
O19_7 Cd6_2 1_555 1_555
C4_7 C5_7 1_555 1_555
Cd8 O9_7 1_555 1_555
O9_7 Cd4 1_555 1_555
O10_7 Cd4 1_555 1_555
O11_7 Cd8 1_555 1_555
O12_7 Cd8 1_555 1_555
H3_7 C6_7 1_555 1_555
C7_7 C6_7 1_555 1_555
C9_7 C8_7 1_555 1_555
H4_7 C9_7 1_555 1_555
C10_7 C9_7 1_555 1_555
C11_7 C10_7 1_555 1_555
H5_7 C11_7 1_555 1_555
C12_7 C7_7 1_555 1_555
H6_7 C12_7 1_555 1_555
C31_7 C30_7 1_555 1_555
C42_7 C33_7 1_555 1_555
H24_7 C42_7 1_555 1_555
C45_7 O10_7 1_555 1_555
C46_7 O9_7 1_555 1_555
O21_7 Cd8 1_555 1_555
O22_7 Cd8 1_555 1_555
Cd8 O10_7 1_555 1_555
O11_7 C45_7 1_555 1_555
O12_7 C46_7 1_555 1_555
C7_7 C8_7 1_555 1_555
C11_7 C12_7 1_555 1_555
C30_7 C46_7 1_555 1_555
C33_7 C45_7 1_555 1_555
O13_7 C47_7 1_555 1_555
O14_7 C47_7 1_555 1_555
H8_7 C15_7 1_555 1_555
C26_7 C25_7 1_555 1_555
H15_7 C26_7 1_555 1_555
C27_7 C26_7 1_555 1_555
C47_7 C25_7 1_555 1_555
Cd9_7 O13_7 1_555 1_555
O14_7 Cd9_7 1_555 1_555
O3_5 C43_7 1_555 1_555
O4_5 C43_7 1_555 1_555
O23_5 C48_7 1_555 1_555
O24_5 C48_7 1_555 1_555
C13_7 H7_7 1_555 1_555
C14_7 C13_7 1_555 1_555
C17_7 C16_7 1_555 1_555
C18_7 C13_7 1_555 1_555
C19_7 C18_7 1_555 1_555
H10_7 C19_7 1_555 1_555
C20_7 C19_7 1_555 1_555
H11_7 C20_7 1_555 1_555
C21_7 C20_7 1_555 1_555
C22_7 C17_7 1_555 1_555
H12_7 C22_7 1_555 1_555
C23_7 H13_7 1_555 1_555
C24_7 C23_7 1_555 1_555
H14_7 C24_7 1_555 1_555
C28_7 C23_7 1_555 1_555
C29_7 C28_7 1_555 1_555
H16_7 C29_7 1_555 1_555
C35_7 C34_7 1_555 1_555
H20_7 C35_7 1_555 1_555
C36_7 C35_7 1_555 1_555
C37_7 C36_7 1_555 1_555
H21_7 C37_7 1_555 1_555
C38_7 C37_7 1_555 1_555
C39_7 C38_7 1_555 1_555
H22_7 C39_7 1_555 1_555
C40_7 C39_7 1_555 1_555
H23_7 C40_7 1_555 1_555
C41_7 C36_7 1_555 1_555
C43_7 C21_7 1_555 1_555
C48_7 C38_7 1_555 1_555
Cd6_5 O3_5 1_555 1_555
O4_5 Cd6_5 1_555 1_555
O8_7 C44_7 1_555 1_555
C14_7 C44_7 1_555 1_555
C17_7 C18_7 1_555 1_555
C21_7 C22_7 1_555 1_555
C40_7 C41_7 1_555 1_555
O19_6 C2_7 1_555 1_555
O20_6 C2_7 1_555 1_555
O19_5 C2_8 1_555 1_555
O20_5 C2_8 1_555 1_555
O13_8 C47_8 1_555 1_555
O14_8 C47_8 1_555 1_555
H8_8 C15_8 1_555 1_555
C26_8 C25_8 1_555 1_555
H15_8 C26_8 1_555 1_555
C27_8 C26_8 1_555 1_555
C47_8 C25_8 1_555 1_555
Cd9_8 O13_8 1_555 1_555
O14_8 Cd9_8 1_555 1_555
O3_6 C43_8 1_555 1_555
O4_6 C43_8 1_555 1_555
O23_6 C48_8 1_555 1_555
O24_6 C48_8 1_555 1_555
C13_8 H7_8 1_555 1_555
C14_8 C13_8 1_555 1_555
C17_8 C16_8 1_555 1_555
C18_8 C13_8 1_555 1_555
C19_8 C18_8 1_555 1_555
H10_8 C19_8 1_555 1_555
C20_8 C19_8 1_555 1_555
H11_8 C20_8 1_555 1_555
C21_8 C20_8 1_555 1_555
C22_8 C17_8 1_555 1_555
H12_8 C22_8 1_555 1_555
C23_8 H13_8 1_555 1_555
C24_8 C23_8 1_555 1_555
H14_8 C24_8 1_555 1_555
C28_8 C23_8 1_555 1_555
C29_8 C28_8 1_555 1_555
H16_8 C29_8 1_555 1_555
C35_8 C34_8 1_555 1_555
H20_8 C35_8 1_555 1_555
C36_8 C35_8 1_555 1_555
C37_8 C36_8 1_555 1_555
H21_8 C37_8 1_555 1_555
C38_8 C37_8 1_555 1_555
C39_8 C38_8 1_555 1_555
H22_8 C39_8 1_555 1_555
C40_8 C39_8 1_555 1_555
H23_8 C40_8 1_555 1_555
C41_8 C36_8 1_555 1_555
C43_8 C21_8 1_555 1_555
C48_8 C38_8 1_555 1_555
Cd6_6 O3_6 1_555 1_555
O4_6 Cd6_6 1_555 1_555
O8_8 C44_8 1_555 1_555
C14_8 C44_8 1_555 1_555
C17_8 C18_8 1_555 1_555
C21_8 C22_8 1_555 1_555
C40_8 C41_8 1_555 1_555
Cd6 O1_8 1_555 1_555
O1_8 C1_8 1_555 1_555
O2_8 Cd6 1_555 1_555
C1_8 O2_8 1_555 1_555
C3_8 H1_8 1_555 1_555
C4_8 C3_8 1_555 1_555
H2_8 C4_8 1_555 1_555
C5_8 C1_8 1_555 1_555
H18_8 C32_8 1_555 1_555
O19_8 Cd6 1_555 1_555
C4_8 C5_8 1_555 1_555
Cd8_2 O9_8 1_555 1_555
O9_8 Cd4_2 1_555 1_555
O10_8 Cd4_2 1_555 1_555
O11_8 Cd8_2 1_555 1_555
O12_8 Cd8_2 1_555 1_555
H3_8 C6_8 1_555 1_555
C7_8 C6_8 1_555 1_555
C9_8 C8_8 1_555 1_555
H4_8 C9_8 1_555 1_555
C10_8 C9_8 1_555 1_555
C11_8 C10_8 1_555 1_555
H5_8 C11_8 1_555 1_555
C12_8 C7_8 1_555 1_555
H6_8 C12_8 1_555 1_555
C31_8 C30_8 1_555 1_555
C42_8 C33_8 1_555 1_555
H24_8 C42_8 1_555 1_555
C45_8 O10_8 1_555 1_555
C46_8 O9_8 1_555 1_555
O21_8 Cd8_2 1_555 1_555
O22_8 Cd8_2 1_555 1_555
Cd8_2 O10_8 1_555 1_555
O11_8 C45_8 1_555 1_555
O12_8 C46_8 1_555 1_555
C7_8 C8_8 1_555 1_555
C11_8 C12_8 1_555 1_555
C30_8 C46_8 1_555 1_555
C33_8 C45_8 1_555 1_555
Cd1_7 O1_9 1_555 1_555
Cd6_6 O1_9 1_555 1_555
Cd9_3 O9_9 1_555 1_555
O1_9 C1_9 1_555 1_555
O2_9 Cd6_6 1_555 1_555
O3_7 C43_9 1_555 1_555
O4_7 C43_9 1_555 1_555
O19_4 C2_9 1_555 1_555
O20_4 C2_9 1_555 1_555
O7_9 Cd6_6 1_555 1_555
O8_9 Cd1_7 1_555 1_555
O9_9 Cd1_7 1_555 1_555
O10_9 Cd1_7 1_555 1_555
O11_9 Cd9_3 1_555 1_555
O12_9 Cd9_3 1_555 1_555
O21_7 C47_9 1_555 1_555
O22_7 C47_9 1_555 1_555
O15_3 C48_9 1_555 1_555
O16_3 C48_9 1_555 1_555
C1_9 O2_9 1_555 1_555
C2_9 C10_9 1_555 1_555
C3_9 H1_9 1_555 1_555
C4_9 C3_9 1_555 1_555
H2_9 C4_9 1_555 1_555
C5_9 C1_9 1_555 1_555
C6_9 C5_9 1_555 1_555
H3_9 C6_9 1_555 1_555
C7_9 C6_9 1_555 1_555
C8_9 C3_9 1_555 1_555
C9_9 C8_9 1_555 1_555
H4_9 C9_9 1_555 1_555
C10_9 C9_9 1_555 1_555
C11_9 C10_9 1_555 1_555
H5_9 C11_9 1_555 1_555
C12_9 C7_9 1_555 1_555
H6_9 C12_9 1_555 1_555
C13_9 H7_9 1_555 1_555
C14_9 C13_9 1_555 1_555
C15_9 C14_9 1_555 1_555
H8_9 C15_9 1_555 1_555
C16_9 C15_9 1_555 1_555
H9_9 C16_9 1_555 1_555
C17_9 C16_9 1_555 1_555
C18_9 C13_9 1_555 1_555
C19_9 C18_9 1_555 1_555
H10_9 C19_9 1_555 1_555
C20_9 C19_9 1_555 1_555
H11_9 C20_9 1_555 1_555
C21_9 C20_9 1_555 1_555
C22_9 C17_9 1_555 1_555
H12_9 C22_9 1_555 1_555
C23_9 H13_9 1_555 1_555
C24_9 C23_9 1_555 1_555
H14_9 C24_9 1_555 1_555
C25_9 C24_9 1_555 1_555
C26_9 C25_9 1_555 1_555
H15_9 C26_9 1_555 1_555
C27_9 C26_9 1_555 1_555
C28_9 C23_9 1_555 1_555
C29_9 C28_9 1_555 1_555
H16_9 C29_9 1_555 1_555
C30_9 C29_9 1_555 1_555
C31_9 C30_9 1_555 1_555
H17_9 C31_9 1_555 1_555
C32_9 C27_9 1_555 1_555
H18_9 C32_9 1_555 1_555
C33_9 C34_9 1_555 1_555
C34_9 H19_9 1_555 1_555
C35_9 C34_9 1_555 1_555
H20_9 C35_9 1_555 1_555
C36_9 C35_9 1_555 1_555
C37_9 C36_9 1_555 1_555
H21_9 C37_9 1_555 1_555
C38_9 C37_9 1_555 1_555
C39_9 C38_9 1_555 1_555
H22_9 C39_9 1_555 1_555
C40_9 C39_9 1_555 1_555
H23_9 C40_9 1_555 1_555
C41_9 C36_9 1_555 1_555
C42_9 C33_9 1_555 1_555
H24_9 C42_9 1_555 1_555
C43_9 C21_9 1_555 1_555
C44_9 O7_9 1_555 1_555
C45_9 O10_9 1_555 1_555
C46_9 O9_9 1_555 1_555
C47_9 C25_9 1_555 1_555
C48_9 C38_9 1_555 1_555
Cd5_4 O16_3 1_555 1_555
Cd9 O15_3 1_555 1_555
O19_9 Cd6_6 1_555 1_555
O20_9 Cd1_7 1_555 1_555
O23_7 Cd9_3 1_555 1_555
O24_7 Cd1_7 1_555 1_555
Cd9_3 O10_9 1_555 1_555
O8_9 C44_9 1_555 1_555
O11_9 C45_9 1_555 1_555
O12_9 C46_9 1_555 1_555
C4_9 C5_9 1_555 1_555
C7_9 C8_9 1_555 1_555
C11_9 C12_9 1_555 1_555
C14_9 C44_9 1_555 1_555
C17_9 C18_9 1_555 1_555
C21_9 C22_9 1_555 1_555
C27_9 C28_9 1_555 1_555
C30_9 C46_9 1_555 1_555
C31_9 C32_9 1_555 1_555
C33_9 C45_9 1_555 1_555
C40_9 C41_9 1_555 1_555
C41_9 C42_9 1_555 1_555
Cd1_8 O1_10 1_555 1_555
Cd6_5 O1_10 1_555 1_555
Cd9_4 O9_10 1_555 1_555
O1_10 C1_10 1_555 1_555
O2_10 Cd6_5 1_555 1_555
O3_8 C43_10 1_555 1_555
O4_8 C43_10 1_555 1_555
O19_3 C2_10 1_555 1_555
O20_3 C2_10 1_555 1_555
O7_10 Cd6_5 1_555 1_555
O8_10 Cd1_8 1_555 1_555
O9_10 Cd1_8 1_555 1_555
O10_10 Cd1_8 1_555 1_555
O11_10 Cd9_4 1_555 1_555
O12_10 Cd9_4 1_555 1_555
O21_8 C47_10 1_555 1_555
O22_8 C47_10 1_555 1_555
O15_4 C48_10 1_555 1_555
O16_4 C48_10 1_555 1_555
C1_10 O2_10 1_555 1_555
C2_10 C10_10 1_555 1_555
C3_10 H1_10 1_555 1_555
C4_10 C3_10 1_555 1_555
H2_10 C4_10 1_555 1_555
C5_10 C1_10 1_555 1_555
C6_10 C5_10 1_555 1_555
H3_10 C6_10 1_555 1_555
C7_10 C6_10 1_555 1_555
C8_10 C3_10 1_555 1_555
C9_10 C8_10 1_555 1_555
H4_10 C9_10 1_555 1_555
C10_10 C9_10 1_555 1_555
C11_10 C10_10 1_555 1_555
H5_10 C11_10 1_555 1_555
C12_10 C7_10 1_555 1_555
H6_10 C12_10 1_555 1_555
C13_10 H7_10 1_555 1_555
C14_10 C13_10 1_555 1_555
C15_10 C14_10 1_555 1_555
H8_10 C15_10 1_555 1_555
C16_10 C15_10 1_555 1_555
H9_10 C16_10 1_555 1_555
C17_10 C16_10 1_555 1_555
C18_10 C13_10 1_555 1_555
C19_10 C18_10 1_555 1_555
H10_10 C19_10 1_555 1_555
C20_10 C19_10 1_555 1_555
H11_10 C20_10 1_555 1_555
C21_10 C20_10 1_555 1_555
C22_10 C17_10 1_555 1_555
H12_10 C22_10 1_555 1_555
C23_10 H13_10 1_555 1_555
C24_10 C23_10 1_555 1_555
H14_10 C24_10 1_555 1_555
C25_10 C24_10 1_555 1_555
C26_10 C25_10 1_555 1_555
H15_10 C26_10 1_555 1_555
C27_10 C26_10 1_555 1_555
C28_10 C23_10 1_555 1_555
C29_10 C28_10 1_555 1_555
H16_10 C29_10 1_555 1_555
C30_10 C29_10 1_555 1_555
C31_10 C30_10 1_555 1_555
H17_10 C31_10 1_555 1_555
C32_10 C27_10 1_555 1_555
H18_10 C32_10 1_555 1_555
C33_10 C34_10 1_555 1_555
C34_10 H19_10 1_555 1_555
C35_10 C34_10 1_555 1_555
H20_10 C35_10 1_555 1_555
C36_10 C35_10 1_555 1_555
C37_10 C36_10 1_555 1_555
H21_10 C37_10 1_555 1_555
C38_10 C37_10 1_555 1_555
C39_10 C38_10 1_555 1_555
H22_10 C39_10 1_555 1_555
C40_10 C39_10 1_555 1_555
H23_10 C40_10 1_555 1_555
C41_10 C36_10 1_555 1_555
C42_10 C33_10 1_555 1_555
H24_10 C42_10 1_555 1_555
C43_10 C21_10 1_555 1_555
C44_10 O7_10 1_555 1_555
C45_10 O10_10 1_555 1_555
C46_10 O9_10 1_555 1_555
C47_10 C25_10 1_555 1_555
C48_10 C38_10 1_555 1_555
Cd5_3 O16_4 1_555 1_555
Cd9_2 O15_4 1_555 1_555
O19_10 Cd6_5 1_555 1_555
O20_10 Cd1_8 1_555 1_555
O23_8 Cd9_4 1_555 1_555
O24_8 Cd1_8 1_555 1_555
Cd9_4 O10_10 1_555 1_555
O8_10 C44_10 1_555 1_555
O11_10 C45_10 1_555 1_555
O12_10 C46_10 1_555 1_555
C4_10 C5_10 1_555 1_555
C7_10 C8_10 1_555 1_555
C11_10 C12_10 1_555 1_555
C14_10 C44_10 1_555 1_555
C17_10 C18_10 1_555 1_555
C21_10 C22_10 1_555 1_555
C27_10 C28_10 1_555 1_555
C30_10 C46_10 1_555 1_555
C31_10 C32_10 1_555 1_555
C33_10 C45_10 1_555 1_555
C40_10 C41_10 1_555 1_555
C41_10 C42_10 1_555 1_555
Cd7_2 O1_11 1_555 1_555
O1_11 C1_11 1_555 1_555
O2_11 Cd7_2 1_555 1_555
O7_11 Cd7_2 1_555 1_555
O21 C47_11 1_555 1_555
O22 C47_11 1_555 1_555
C1_11 O2_11 1_555 1_555
C3_11 H1_11 1_555 1_555
C4_11 C3_11 1_555 1_555
H2_11 C4_11 1_555 1_555
C5_11 C1_11 1_555 1_555
H8_11 C15_11 1_555 1_555
C26_11 C25_11 1_555 1_555
H15_11 C26_11 1_555 1_555
C27_11 C26_11 1_555 1_555
C32_11 C27_11 1_555 1_555
H18_11 C32_11 1_555 1_555
C47_11 C25_11 1_555 1_555
O17_7 Cd7_2 1_555 1_555
O18_7 Cd7_2 1_555 1_555
C4_11 C5_11 1_555 1_555
Cd9_5 O9_11 1_555 1_555
O17_6 C43_11 1_555 1_555
O18_6 C43_11 1_555 1_555
O19_10 C2_11 1_555 1_555
O20_10 C2_11 1_555 1_555
O8_11 Cd5_2 1_555 1_555
O9_11 Cd5_2 1_555 1_555
O10_11 Cd5_2 1_555 1_555
O11_11 Cd9_5 1_555 1_555
O12_11 Cd9_5 1_555 1_555
O23_7 C48_11 1_555 1_555
O24_7 C48_11 1_555 1_555
C2_11 C10_11 1_555 1_555
H3_11 C6_11 1_555 1_555
C7_11 C6_11 1_555 1_555
C9_11 C8_11 1_555 1_555
H4_11 C9_11 1_555 1_555
C10_11 C9_11 1_555 1_555
C11_11 C10_11 1_555 1_555
H5_11 C11_11 1_555 1_555
C12_11 C7_11 1_555 1_555
H6_11 C12_11 1_555 1_555
C13_11 H7_11 1_555 1_555
C14_11 C13_11 1_555 1_555
C17_11 C16_11 1_555 1_555
C18_11 C13_11 1_555 1_555
C19_11 C18_11 1_555 1_555
H10_11 C19_11 1_555 1_555
C20_11 C19_11 1_555 1_555
H11_11 C20_11 1_555 1_555
C21_11 C20_11 1_555 1_555
C22_11 C17_11 1_555 1_555
H12_11 C22_11 1_555 1_555
C23_11 H13_11 1_555 1_555
C24_11 C23_11 1_555 1_555
H14_11 C24_11 1_555 1_555
C28_11 C23_11 1_555 1_555
C29_11 C28_11 1_555 1_555
H16_11 C29_11 1_555 1_555
C30_11 C29_11 1_555 1_555
C31_11 C30_11 1_555 1_555
C33_11 C34_11 1_555 1_555
C34_11 H19_11 1_555 1_555
C35_11 C34_11 1_555 1_555
H20_11 C35_11 1_555 1_555
C36_11 C35_11 1_555 1_555
C37_11 C36_11 1_555 1_555
H21_11 C37_11 1_555 1_555
C38_11 C37_11 1_555 1_555
C39_11 C38_11 1_555 1_555
H22_11 C39_11 1_555 1_555
C40_11 C39_11 1_555 1_555
H23_11 C40_11 1_555 1_555
C41_11 C36_11 1_555 1_555
C42_11 C33_11 1_555 1_555
H24_11 C42_11 1_555 1_555
C43_11 C21_11 1_555 1_555
C45_11 O10_11 1_555 1_555
C46_11 O9_11 1_555 1_555
C48_11 C38_11 1_555 1_555
O23_9 Cd9_5 1_555 1_555
O24_9 Cd5_2 1_555 1_555
Cd9_5 O10_11 1_555 1_555
O8_11 C44_11 1_555 1_555
O11_11 C45_11 1_555 1_555
O12_11 C46_11 1_555 1_555
C7_11 C8_11 1_555 1_555
C11_11 C12_11 1_555 1_555
C14_11 C44_11 1_555 1_555
C17_11 C18_11 1_555 1_555
C21_11 C22_11 1_555 1_555
C30_11 C46_11 1_555 1_555
C33_11 C45_11 1_555 1_555
C40_11 C41_11 1_555 1_555
C41_11 C42_11 1_555 1_555
Cd7 O1_12 1_555 1_555
O1_12 C1_12 1_555 1_555
O2_12 Cd7 1_555 1_555
O7_12 Cd7 1_555 1_555
O21_2 C47_12 1_555 1_555
O22_2 C47_12 1_555 1_555
C1_12 O2_12 1_555 1_555
C3_12 H1_12 1_555 1_555
C4_12 C3_12 1_555 1_555
H2_12 C4_12 1_555 1_555
C5_12 C1_12 1_555 1_555
H8_12 C15_12 1_555 1_555
C26_12 C25_12 1_555 1_555
H15_12 C26_12 1_555 1_555
C27_12 C26_12 1_555 1_555
C32_12 C27_12 1_555 1_555
H18_12 C32_12 1_555 1_555
C47_12 C25_12 1_555 1_555
O17_8 Cd7 1_555 1_555
O18_8 Cd7 1_555 1_555
C4_12 C5_12 1_555 1_555
Cd9_6 O9_12 1_555 1_555
O17_5 C43_12 1_555 1_555
O18_5 C43_12 1_555 1_555
O19_9 C2_12 1_555 1_555
O20_9 C2_12 1_555 1_555
O8_12 Cd5 1_555 1_555
O9_12 Cd5 1_555 1_555
O10_12 Cd5 1_555 1_555
O11_12 Cd9_6 1_555 1_555
O12_12 Cd9_6 1_555 1_555
O23_8 C48_12 1_555 1_555
O24_8 C48_12 1_555 1_555
C2_12 C10_12 1_555 1_555
H3_12 C6_12 1_555 1_555
C7_12 C6_12 1_555 1_555
C9_12 C8_12 1_555 1_555
H4_12 C9_12 1_555 1_555
C10_12 C9_12 1_555 1_555
C11_12 C10_12 1_555 1_555
H5_12 C11_12 1_555 1_555
C12_12 C7_12 1_555 1_555
H6_12 C12_12 1_555 1_555
C13_12 H7_12 1_555 1_555
C14_12 C13_12 1_555 1_555
C17_12 C16_12 1_555 1_555
C18_12 C13_12 1_555 1_555
C19_12 C18_12 1_555 1_555
H10_12 C19_12 1_555 1_555
C20_12 C19_12 1_555 1_555
H11_12 C20_12 1_555 1_555
C21_12 C20_12 1_555 1_555
C22_12 C17_12 1_555 1_555
H12_12 C22_12 1_555 1_555
C23_12 H13_12 1_555 1_555
C24_12 C23_12 1_555 1_555
H14_12 C24_12 1_555 1_555
C28_12 C23_12 1_555 1_555
C29_12 C28_12 1_555 1_555
H16_12 C29_12 1_555 1_555
C30_12 C29_12 1_555 1_555
C31_12 C30_12 1_555 1_555
C33_12 C34_12 1_555 1_555
C34_12 H19_12 1_555 1_555
C35_12 C34_12 1_555 1_555
H20_12 C35_12 1_555 1_555
C36_12 C35_12 1_555 1_555
C37_12 C36_12 1_555 1_555
H21_12 C37_12 1_555 1_555
C38_12 C37_12 1_555 1_555
C39_12 C38_12 1_555 1_555
H22_12 C39_12 1_555 1_555
C40_12 C39_12 1_555 1_555
H23_12 C40_12 1_555 1_555
C41_12 C36_12 1_555 1_555
C42_12 C33_12 1_555 1_555
H24_12 C42_12 1_555 1_555
C43_12 C21_12 1_555 1_555
C45_12 O10_12 1_555 1_555
C46_12 O9_12 1_555 1_555
C48_12 C38_12 1_555 1_555
O23_10 Cd9_6 1_555 1_555
O24_10 Cd5 1_555 1_555
Cd9_6 O10_12 1_555 1_555
O8_12 C44_12 1_555 1_555
O11_12 C45_12 1_555 1_555
O12_12 C46_12 1_555 1_555
C7_12 C8_12 1_555 1_555
C11_12 C12_12 1_555 1_555
C14_12 C44_12 1_555 1_555
C17_12 C18_12 1_555 1_555
C21_12 C22_12 1_555 1_555
C30_12 C46_12 1_555 1_555
C33_12 C45_12 1_555 1_555
C40_12 C41_12 1_555 1_555
C41_12 C42_12 1_555 1_555
Cd1_9 O1_13 1_555 1_555
Cd6_4 O1_13 1_555 1_555
Cd9_7 O9_13 1_555 1_555
O1_13 C1_13 1_555 1_555
O2_13 Cd6_4 1_555 1_555
O17_8 C43_13 1_555 1_555
O18_8 C43_13 1_555 1_555
O19_8 C2_13 1_555 1_555
O20_8 C2_13 1_555 1_555
O7_13 Cd6_4 1_555 1_555
O8_13 Cd1_9 1_555 1_555
O9_13 Cd1_9 1_555 1_555
O10_13 Cd1_9 1_555 1_555
O11_13 Cd9_7 1_555 1_555
O12_13 Cd9_7 1_555 1_555
O21_3 C47_13 1_555 1_555
O22_3 C47_13 1_555 1_555
C1_13 O2_13 1_555 1_555
C2_13 C10_13 1_555 1_555
C3_13 H1_13 1_555 1_555
C4_13 C3_13 1_555 1_555
H2_13 C4_13 1_555 1_555
C5_13 C1_13 1_555 1_555
C6_13 C5_13 1_555 1_555
H3_13 C6_13 1_555 1_555
C7_13 C6_13 1_555 1_555
C8_13 C3_13 1_555 1_555
C9_13 C8_13 1_555 1_555
H4_13 C9_13 1_555 1_555
C10_13 C9_13 1_555 1_555
C11_13 C10_13 1_555 1_555
H5_13 C11_13 1_555 1_555
C12_13 C7_13 1_555 1_555
H6_13 C12_13 1_555 1_555
C13_13 H7_13 1_555 1_555
C14_13 C13_13 1_555 1_555
C15_13 C14_13 1_555 1_555
H8_13 C15_13 1_555 1_555
C16_13 C15_13 1_555 1_555
H9_13 C16_13 1_555 1_555
C17_13 C16_13 1_555 1_555
C18_13 C13_13 1_555 1_555
C19_13 C18_13 1_555 1_555
H10_13 C19_13 1_555 1_555
C20_13 C19_13 1_555 1_555
H11_13 C20_13 1_555 1_555
C21_13 C20_13 1_555 1_555
C22_13 C17_13 1_555 1_555
H12_13 C22_13 1_555 1_555
C23_13 H13_13 1_555 1_555
C24_13 C23_13 1_555 1_555
H14_13 C24_13 1_555 1_555
C25_13 C24_13 1_555 1_555
C26_13 C25_13 1_555 1_555
H15_13 C26_13 1_555 1_555
C27_13 C26_13 1_555 1_555
C28_13 C23_13 1_555 1_555
C29_13 C28_13 1_555 1_555
H16_13 C29_13 1_555 1_555
C30_13 C29_13 1_555 1_555
C31_13 C30_13 1_555 1_555
H17_13 C31_13 1_555 1_555
C32_13 C27_13 1_555 1_555
H18_13 C32_13 1_555 1_555
C33_13 C34_13 1_555 1_555
C34_13 H19_13 1_555 1_555
C35_13 C34_13 1_555 1_555
H20_13 C35_13 1_555 1_555
C36_13 C35_13 1_555 1_555
C37_13 C36_13 1_555 1_555
H21_13 C37_13 1_555 1_555
C42_13 C33_13 1_555 1_555
C43_13 C21_13 1_555 1_555
C44_13 O7_13 1_555 1_555
C45_13 O10_13 1_555 1_555
C46_13 O9_13 1_555 1_555
C47_13 C25_13 1_555 1_555
O19_11 Cd6_4 1_555 1_555
O20_11 Cd1_9 1_555 1_555
O23_11 Cd9_7 1_555 1_555
O24_11 Cd1_9 1_555 1_555
Cd9_7 O10_13 1_555 1_555
O8_13 C44_13 1_555 1_555
O11_13 C45_13 1_555 1_555
O12_13 C46_13 1_555 1_555
C4_13 C5_13 1_555 1_555
C7_13 C8_13 1_555 1_555
C11_13 C12_13 1_555 1_555
C14_13 C44_13 1_555 1_555
C17_13 C18_13 1_555 1_555
C21_13 C22_13 1_555 1_555
C27_13 C28_13 1_555 1_555
C30_13 C46_13 1_555 1_555
C31_13 C32_13 1_555 1_555
C33_13 C45_13 1_555 1_555
O23_9 C48_13 1_555 1_555
O24_9 C48_13 1_555 1_555
C39_13 C38_13 1_555 1_555
H22_13 C39_13 1_555 1_555
C40_13 C39_13 1_555 1_555
H23_13 C40_13 1_555 1_555
C48_13 C38_13 1_555 1_555
C40_13 C41_13 1_555 1_555
Cd1_10 O1_14 1_555 1_555
Cd6_3 O1_14 1_555 1_555
Cd9_8 O9_14 1_555 1_555
O1_14 C1_14 1_555 1_555
O2_14 Cd6_3 1_555 1_555
O17_7 C43_14 1_555 1_555
O18_7 C43_14 1_555 1_555
O19_7 C2_14 1_555 1_555
O20_7 C2_14 1_555 1_555
O7_14 Cd6_3 1_555 1_555
O8_14 Cd1_10 1_555 1_555
O9_14 Cd1_10 1_555 1_555
O10_14 Cd1_10 1_555 1_555
O11_14 Cd9_8 1_555 1_555
O12_14 Cd9_8 1_555 1_555
O21_4 C47_14 1_555 1_555
O22_4 C47_14 1_555 1_555
C1_14 O2_14 1_555 1_555
C2_14 C10_14 1_555 1_555
C3_14 H1_14 1_555 1_555
C4_14 C3_14 1_555 1_555
H2_14 C4_14 1_555 1_555
C5_14 C1_14 1_555 1_555
C6_14 C5_14 1_555 1_555
H3_14 C6_14 1_555 1_555
C7_14 C6_14 1_555 1_555
C8_14 C3_14 1_555 1_555
C9_14 C8_14 1_555 1_555
H4_14 C9_14 1_555 1_555
C10_14 C9_14 1_555 1_555
C11_14 C10_14 1_555 1_555
H5_14 C11_14 1_555 1_555
C12_14 C7_14 1_555 1_555
H6_14 C12_14 1_555 1_555
C13_14 H7_14 1_555 1_555
C14_14 C13_14 1_555 1_555
C15_14 C14_14 1_555 1_555
H8_14 C15_14 1_555 1_555
C16_14 C15_14 1_555 1_555
H9_14 C16_14 1_555 1_555
C17_14 C16_14 1_555 1_555
C18_14 C13_14 1_555 1_555
C19_14 C18_14 1_555 1_555
H10_14 C19_14 1_555 1_555
C20_14 C19_14 1_555 1_555
H11_14 C20_14 1_555 1_555
C21_14 C20_14 1_555 1_555
C22_14 C17_14 1_555 1_555
H12_14 C22_14 1_555 1_555
C23_14 H13_14 1_555 1_555
C24_14 C23_14 1_555 1_555
H14_14 C24_14 1_555 1_555
C25_14 C24_14 1_555 1_555
C26_14 C25_14 1_555 1_555
H15_14 C26_14 1_555 1_555
C27_14 C26_14 1_555 1_555
C28_14 C23_14 1_555 1_555
C29_14 C28_14 1_555 1_555
H16_14 C29_14 1_555 1_555
C30_14 C29_14 1_555 1_555
C31_14 C30_14 1_555 1_555
H17_14 C31_14 1_555 1_555
C32_14 C27_14 1_555 1_555
H18_14 C32_14 1_555 1_555
C33_14 C34_14 1_555 1_555
C34_14 H19_14 1_555 1_555
C35_14 C34_14 1_555 1_555
H20_14 C35_14 1_555 1_555
C36_14 C35_14 1_555 1_555
C37_14 C36_14 1_555 1_555
H21_14 C37_14 1_555 1_555
C42_14 C33_14 1_555 1_555
C43_14 C21_14 1_555 1_555
C44_14 O7_14 1_555 1_555
C45_14 O10_14 1_555 1_555
C46_14 O9_14 1_555 1_555
C47_14 C25_14 1_555 1_555
O19_12 Cd6_3 1_555 1_555
O20_12 Cd1_10 1_555 1_555
O23_12 Cd9_8 1_555 1_555
O24_12 Cd1_10 1_555 1_555
Cd9_8 O10_14 1_555 1_555
O8_14 C44_14 1_555 1_555
O11_14 C45_14 1_555 1_555
O12_14 C46_14 1_555 1_555
C4_14 C5_14 1_555 1_555
C7_14 C8_14 1_555 1_555
C11_14 C12_14 1_555 1_555
C14_14 C44_14 1_555 1_555
C17_14 C18_14 1_555 1_555
C21_14 C22_14 1_555 1_555
C27_14 C28_14 1_555 1_555
C30_14 C46_14 1_555 1_555
C31_14 C32_14 1_555 1_555
C33_14 C45_14 1_555 1_555
O23_10 C48_14 1_555 1_555
O24_10 C48_14 1_555 1_555
C39_14 C38_14 1_555 1_555
H22_14 C39_14 1_555 1_555
C40_14 C39_14 1_555 1_555
H23_14 C40_14 1_555 1_555
C48_14 C38_14 1_555 1_555
C40_14 C41_14 1_555 1_555
Cd5_4 O1_15 1_555 1_555
Cd7_4 O1_15 1_555 1_555
Cd9 O9_15 1_555 1_555
O1_15 C1_15 1_555 1_555
O2_15 Cd7_4 1_555 1_555
O19_12 C2_15 1_555 1_555
O20_12 C2_15 1_555 1_555
O9_15 Cd5_4 1_555 1_555
O10_15 Cd5_4 1_555 1_555
O11_15 Cd9 1_555 1_555
O12_15 Cd9 1_555 1_555
C1_15 O2_15 1_555 1_555
C2_15 C10_15 1_555 1_555
C3_15 H1_15 1_555 1_555
C4_15 C3_15 1_555 1_555
H2_15 C4_15 1_555 1_555
C5_15 C1_15 1_555 1_555
C6_15 C5_15 1_555 1_555
H3_15 C6_15 1_555 1_555
C7_15 C6_15 1_555 1_555
C8_15 C3_15 1_555 1_555
C9_15 C8_15 1_555 1_555
H4_15 C9_15 1_555 1_555
C10_15 C9_15 1_555 1_555
C11_15 C10_15 1_555 1_555
H5_15 C11_15 1_555 1_555
C12_15 C7_15 1_555 1_555
H6_15 C12_15 1_555 1_555
C31_15 C30_15 1_555 1_555
H17_15 C31_15 1_555 1_555
H18_15 C32_15 1_555 1_555
C42_15 C33_15 1_555 1_555
H24_15 C42_15 1_555 1_555
C45_15 O10_15 1_555 1_555
C46_15 O9_15 1_555 1_555
Cd9 O10_15 1_555 1_555
O11_15 C45_15 1_555 1_555
O12_15 C46_15 1_555 1_555
C4_15 C5_15 1_555 1_555
C7_15 C8_15 1_555 1_555
C11_15 C12_15 1_555 1_555
C30_15 C46_15 1_555 1_555
C31_15 C32_15 1_555 1_555
C33_15 C45_15 1_555 1_555
O17_2 C43_15 1_555 1_555
O18_2 C43_15 1_555 1_555
O21_5 C47_15 1_555 1_555
O22_5 C47_15 1_555 1_555
O23_11 C48_15 1_555 1_555
O24_11 C48_15 1_555 1_555
C13_15 H7_15 1_555 1_555
C14_15 C13_15 1_555 1_555
C15_15 C14_15 1_555 1_555
H8_15 C15_15 1_555 1_555
C16_15 C15_15 1_555 1_555
H9_15 C16_15 1_555 1_555
C17_15 C16_15 1_555 1_555
C18_15 C13_15 1_555 1_555
C19_15 C18_15 1_555 1_555
H10_15 C19_15 1_555 1_555
C20_15 C19_15 1_555 1_555
H11_15 C20_15 1_555 1_555
C21_15 C20_15 1_555 1_555
C22_15 C17_15 1_555 1_555
H12_15 C22_15 1_555 1_555
C23_15 H13_15 1_555 1_555
C24_15 C23_15 1_555 1_555
H14_15 C24_15 1_555 1_555
C25_15 C24_15 1_555 1_555
C26_15 C25_15 1_555 1_555
H15_15 C26_15 1_555 1_555
C27_15 C26_15 1_555 1_555
C28_15 C23_15 1_555 1_555
C29_15 C28_15 1_555 1_555
H16_15 C29_15 1_555 1_555
C35_15 C34_15 1_555 1_555
H20_15 C35_15 1_555 1_555
C36_15 C35_15 1_555 1_555
C37_15 C36_15 1_555 1_555
H21_15 C37_15 1_555 1_555
C38_15 C37_15 1_555 1_555
C39_15 C38_15 1_555 1_555
H22_15 C39_15 1_555 1_555
C40_15 C39_15 1_555 1_555
H23_15 C40_15 1_555 1_555
C41_15 C36_15 1_555 1_555
C43_15 C21_15 1_555 1_555
C44_15 O7_15 1_555 1_555
C47_15 C25_15 1_555 1_555
C48_15 C38_15 1_555 1_555
O8_15 C44_15 1_555 1_555
C14_15 C44_15 1_555 1_555
C17_15 C18_15 1_555 1_555
C21_15 C22_15 1_555 1_555
C27_15 C28_15 1_555 1_555
C40_15 C41_15 1_555 1_555
O17 C43_16 1_555 1_555
O18 C43_16 1_555 1_555
O21_6 C47_16 1_555 1_555
O22_6 C47_16 1_555 1_555
O23_12 C48_16 1_555 1_555
O24_12 C48_16 1_555 1_555
C13_16 H7_16 1_555 1_555
C14_16 C13_16 1_555 1_555
C15_16 C14_16 1_555 1_555
H8_16 C15_16 1_555 1_555
C16_16 C15_16 1_555 1_555
H9_16 C16_16 1_555 1_555
C17_16 C16_16 1_555 1_555
C18_16 C13_16 1_555 1_555
C19_16 C18_16 1_555 1_555
H10_16 C19_16 1_555 1_555
C20_16 C19_16 1_555 1_555
H11_16 C20_16 1_555 1_555
C21_16 C20_16 1_555 1_555
C22_16 C17_16 1_555 1_555
H12_16 C22_16 1_555 1_555
C23_16 H13_16 1_555 1_555
C24_16 C23_16 1_555 1_555
H14_16 C24_16 1_555 1_555
C25_16 C24_16 1_555 1_555
C26_16 C25_16 1_555 1_555
H15_16 C26_16 1_555 1_555
C27_16 C26_16 1_555 1_555
C28_16 C23_16 1_555 1_555
C29_16 C28_16 1_555 1_555
H16_16 C29_16 1_555 1_555
C35_16 C34_16 1_555 1_555
H20_16 C35_16 1_555 1_555
C36_16 C35_16 1_555 1_555
C37_16 C36_16 1_555 1_555
H21_16 C37_16 1_555 1_555
C38_16 C37_16 1_555 1_555
C39_16 C38_16 1_555 1_555
H22_16 C39_16 1_555 1_555
C40_16 C39_16 1_555 1_555
H23_16 C40_16 1_555 1_555
C41_16 C36_16 1_555 1_555
C43_16 C21_16 1_555 1_555
C44_16 O7_16 1_555 1_555
C47_16 C25_16 1_555 1_555
C48_16 C38_16 1_555 1_555
O8_16 C44_16 1_555 1_555
C14_16 C44_16 1_555 1_555
C17_16 C18_16 1_555 1_555
C21_16 C22_16 1_555 1_555
C27_16 C28_16 1_555 1_555
C40_16 C41_16 1_555 1_555
Cd5_3 O1_16 1_555 1_555
Cd7_3 O1_16 1_555 1_555
Cd9_2 O9_16 1_555 1_555
O1_16 C1_16 1_555 1_555
O2_16 Cd7_3 1_555 1_555
O19_11 C2_16 1_555 1_555
O20_11 C2_16 1_555 1_555
O9_16 Cd5_3 1_555 1_555
O10_16 Cd5_3 1_555 1_555
O11_16 Cd9_2 1_555 1_555
O12_16 Cd9_2 1_555 1_555
C1_16 O2_16 1_555 1_555
C2_16 C10_16 1_555 1_555
C3_16 H1_16 1_555 1_555
C4_16 C3_16 1_555 1_555
H2_16 C4_16 1_555 1_555
C5_16 C1_16 1_555 1_555
C6_16 C5_16 1_555 1_555
H3_16 C6_16 1_555 1_555
C7_16 C6_16 1_555 1_555
C8_16 C3_16 1_555 1_555
C9_16 C8_16 1_555 1_555
H4_16 C9_16 1_555 1_555
C10_16 C9_16 1_555 1_555
C11_16 C10_16 1_555 1_555
H5_16 C11_16 1_555 1_555
C12_16 C7_16 1_555 1_555
H6_16 C12_16 1_555 1_555
C31_16 C30_16 1_555 1_555
H17_16 C31_16 1_555 1_555
H18_16 C32_16 1_555 1_555
C42_16 C33_16 1_555 1_555
H24_16 C42_16 1_555 1_555
C45_16 O10_16 1_555 1_555
C46_16 O9_16 1_555 1_555
Cd9_2 O10_16 1_555 1_555
O11_16 C45_16 1_555 1_555
O12_16 C46_16 1_555 1_555
C4_16 C5_16 1_555 1_555
C7_16 C8_16 1_555 1_555
C11_16 C12_16 1_555 1_555
C30_16 C46_16 1_555 1_555
C31_16 C32_16 1_555 1_555
C33_16 C45_16 1_555 1_555

#END
