
###############################################################################
#
# This file contains modified crystal structure data generated from the
# MOF subset of the Cambridge Structural Database (CSD) v543 
# hosted by the Cambridge Crystallographic Data Centre (CCDC).
#
# This work is licensed under the Creative Commons
# Attribution-NonCommercial-ShareAlike 4.0 International License.
# To view a copy of this license, visit
# http://creativecommons.org/licenses/by-nc-sa/4.0/
# or send a letter to
# Creative Commons, PO Box 1866, Mountain View, CA 94042, USA.
#
# CIF created using the CSD Python API on 29 September 2022
# The structure has been converted into the P1 space group
# The structure has a 3D framework
# The original CSD entry WUVYOC is in the triclinic crystal system
# The framework has been calculated to contain at least 10.0% void space
# The void calculation uses a probe of radius 1.32A, grid spacing 0.4
#
###############################################################################

data_WUVYOC
_chemical_formula_moiety         '(C26 H18 Mn6 N10 O16)n'
_symmetry_cell_setting           triclinic
_symmetry_space_group_name_H-M   'P 1'
_symmetry_Int_Tables_number      1
_space_group_name_Hall           'P 1'
loop_
_symmetry_equiv_pos_site_id
_symmetry_equiv_pos_as_xyz
1 x,y,z
_cell_length_a                   10.207(2)
_cell_length_b                   10.465(2)
_cell_length_c                   11.200(2)
_cell_angle_alpha                116.35(3)
_cell_angle_beta                 96.43(3)
_cell_angle_gamma                112.60(3)
_cell_volume                     930.202
loop_
_atom_site_label
_atom_site_type_symbol
_atom_site_fract_x
_atom_site_fract_y
_atom_site_fract_z
Mn11 Mn 0.5000 0.0000 0.5000
H11 H 0.1748 0.0587 0.2742
C10 C 0.0174(11) 0.6895(14) 0.5025(10)
H6 H 0.1129 0.7242 0.4948
H7 H 0.0789 0.7057 0.6856
Mn7 Mn 0.33403(13) 0.60225(13) 0.28721(11)
Mn11_2 Mn 0.5000 1.0000 0.5000
C14 C 0.0661(8) 0.8154(10) 0.1880(8)
C18 C 0.0866(9) 0.9623(10) 0.2083(9)
C25 C 0.1848(8) 0.8046(10) 0.2702(8)
O15 O 0.1719(6) 0.6669(7) 0.2271(6)
O18 O 0.2872(6) 0.9362(6) 0.3768(6)
Mn9 Mn 0.66597(13) 0.39775(13) 0.71279(11)
O11 O 0.4919(6) 0.1738(6) 0.6979(5)
N7 N 0.6086(7) 0.2215(8) 0.4839(6)
N9 N 0.5379(8) 0.2143(8) 0.3860(7)
H12 H 0.9903 0.0636 0.1421
N10 N 0.4739(11) 0.2061(12) 0.2895(10)
O19 O 0.7128(6) 0.0638(6) 0.6232(6)
Mn2 Mn 0.5000 0.5000 0.0000
O1 O 0.3034(5) 0.4535(6) 0.0670(5)
O2 O 0.5081(6) 0.8262(6) 0.3021(5)
O3 O 0.5124(6) 0.5611(7) 0.3450(6)
N2 N 0.3914(7) 0.7785(8) 0.5161(6)
O4 O 0.6380(6) 0.5511(8) 0.1942(6)
N3 N 0.4621(8) 0.7857(8) 0.6140(7)
C2 C 0.7575(9) 0.6060(10) 0.4151(8)
C3 C 0.6228(9) 0.5694(9) 0.3088(8)
O5 O 0.5685(7) 0.7540(7) 0.1065(6)
H4 H 0.2303 0.1735 0.0161
C8 C 0.8967(10) 0.6504(12) 0.3994(9)
H5 H 0.9092 0.6539 0.3197
C9 C 0.5764(11) 0.8563(11) 0.2239(10)
N4 N 0.5261(11) 0.7939(12) 0.7105(10)
C11 C 0.9970(9) 0.6776(11) 0.6153(9)
C13 C 0.7421(9) 0.5935(9) 0.5309(7)
H8 H 0.6484 0.5622 0.5427
N5 N 0.8598(7) 0.6256(7) 0.6259(6)
O8 O 0.8423(6) 0.6122(7) 0.7365(5)
H9 H 0.639(11) 0.961(12) 0.254(10)
N6 N 0.8281(6) 0.6841(7) 0.0211(6)
C17 C 0.9332(8) 0.6742(9) 0.0913(8)
H10 H 0.9179 0.5737 0.0757
C19 C 0.9763(9) 0.9651(10) 0.1307(9)
C20 C 0.8454(9) 0.8247(10) 0.0365(8)
O22 O 0.1577(6) 0.3878(7) 0.2635(5)
Mn2_2 Mn 0.5000 0.5000 1.0000
N1 N 0.1719(6) 0.3159(7) 0.9789(6)
C4 C 0.0668(8) 0.3258(9) 0.9087(8)
H1 H 0.0821 0.4263 0.9243
C6 C 0.0237(9) 0.0349(10) 0.8693(9)
C7 C 0.1546(9) 0.1753(10) 0.9635(8)
O9 O 0.6966(5) 0.5465(6) 0.9330(5)
O12 O 0.4876(6) 0.4389(7) 0.6550(6)
O13 O 0.3620(6) 0.4489(8) 0.8058(6)
C15 C 0.2425(9) 0.3940(10) 0.5849(8)
C16 C 0.3772(9) 0.4306(9) 0.6912(8)
O14 O 0.4315(7) 0.2460(7) 0.8935(6)
H13 H 0.7697 0.8265 0.9839
C21 C 0.1033(10) 0.3496(12) 0.6006(9)
H14 H 0.0908 0.3461 0.6803
C22 C 0.4236(11) 0.1437(11) 0.7761(10)
C24 C 0.0030(9) 0.3224(11) 0.3847(9)
O17 O 0.8281(6) 0.3331(7) 0.7729(6)
C26 C 0.2579(9) 0.4065(9) 0.4691(7)
H17 H 0.3516 0.4378 0.4573
N11 N 0.1402(7) 0.3744(7) 0.3741(6)
H18 H 0.361(11) 0.039(12) 0.746(10)
H3 H 0.0097 0.9364 0.8579
C1 C 0.9339(8) 0.1846(10) 0.8120(8)
C5 C 0.9134(9) 0.0377(10) 0.7917(9)
C12 C 0.8152(8) 0.1954(10) 0.7298(8)
C23 C 0.9826(11) 0.3105(14) 0.4975(10)
H15 H 0.8871 0.2758 0.5052
H16 H 0.9211 0.2943 0.3144
H2 H 0.8252 0.9413 0.7258
loop_
_geom_bond_atom_site_label_1
_geom_bond_atom_site_label_2
_geom_bond_site_symmetry_1
_geom_bond_site_symmetry_2
H6 C10 1_555 1_555
Mn7 O15 1_555 1_555
Mn11_2 O18 1_555 1_555
C18 C14 1_555 1_555
C25 C14 1_555 1_555
O15 C25 1_555 1_555
O18 C25 1_555 1_555
Mn9 O11 1_555 1_555
O11 Mn11 1_555 1_555
N7 Mn11 1_555 1_555
N9 N7 1_555 1_555
N10 N9 1_555 1_555
O19 Mn11 1_555 1_555
Mn9 N7 1_555 1_555
Mn7 O1 1_555 1_555
Mn2 O1 1_555 1_555
Mn11_2 O2 1_555 1_555
O2 Mn7 1_555 1_555
O3 Mn7 1_555 1_555
N2 Mn7 1_555 1_555
O4 Mn2 1_555 1_555
N3 N2 1_555 1_555
C2 C3 1_555 1_555
C3 O3 1_555 1_555
O5 Mn2 1_555 1_555
C8 C2 1_555 1_555
H5 C8 1_555 1_555
C9 O2 1_555 1_555
N4 N3 1_555 1_555
C13 C2 1_555 1_555
H8 C13 1_555 1_555
N5 C11 1_555 1_555
O8 N5 1_555 1_555
H9 C9 1_555 1_555
Mn9 O8 1_555 1_555
C17 N6 1_555 1_555
H10 C17 1_555 1_555
C20 N6 1_555 1_555
O22 Mn7 1_555 1_555
Mn11_2 N2 1_555 1_555
O4 C3 1_555 1_555
O5 C9 1_555 1_555
C13 N5 1_555 1_555
C19 C20 1_555 1_555
N1 C4 1_555 1_555
C4 H1 1_555 1_555
C7 N1 1_555 1_555
Mn9 O9 1_555 1_555
O9 Mn2_2 1_555 1_555
O12 Mn9 1_555 1_555
O13 Mn2_2 1_555 1_555
C15 C16 1_555 1_555
C16 O12 1_555 1_555
O14 Mn2_2 1_555 1_555
C21 C15 1_555 1_555
H14 C21 1_555 1_555
C22 O11 1_555 1_555
O17 Mn9 1_555 1_555
C26 C15 1_555 1_555
H17 C26 1_555 1_555
N11 C24 1_555 1_555
O22 N11 1_555 1_555
H18 C22 1_555 1_555
C6 C7 1_555 1_555
O13 C16 1_555 1_555
O14 C22 1_555 1_555
C26 N11 1_555 1_555
C5 C1 1_555 1_555
C12 C1 1_555 1_555
O17 C12 1_555 1_555
O19 C12 1_555 1_555
H15 C23 1_555 1_555

#END
