
###############################################################################
#
# This file contains modified crystal structure data generated from the
# MOF subset of the Cambridge Structural Database (CSD) v543 
# hosted by the Cambridge Crystallographic Data Centre (CCDC).
#
# This work is licensed under the Creative Commons
# Attribution-NonCommercial-ShareAlike 4.0 International License.
# To view a copy of this license, visit
# http://creativecommons.org/licenses/by-nc-sa/4.0/
# or send a letter to
# Creative Commons, PO Box 1866, Mountain View, CA 94042, USA.
#
# CIF created using the CSD Python API on 29 September 2022
# The structure has been converted into the P1 space group
# The structure has a 3D framework
# The original CSD entry WUWQUB is in the cubic crystal system
# The framework has been calculated to contain at least 10.0% void space
# The void calculation uses a probe of radius 1.32A, grid spacing 0.4
# The framework is charged, counterions have been retained in the structure
#
###############################################################################

data_WUWQUB
_chemical_formula_moiety         '(C912 H768 B48 F192 N384 Zn33 18+)n'
_symmetry_cell_setting           triclinic
_symmetry_space_group_name_H-M   'P 1'
_symmetry_Int_Tables_number      1
_space_group_name_Hall           'P 1'
loop_
_symmetry_equiv_pos_site_id
_symmetry_equiv_pos_as_xyz
1 x,y,z
_cell_length_a                   31.3268(8)
_cell_length_b                   31.3268(8)
_cell_length_c                   31.3268(8)
_cell_angle_alpha                90
_cell_angle_beta                 90
_cell_angle_gamma                90
_cell_volume                     30743.1
loop_
_atom_site_label
_atom_site_type_symbol
_atom_site_fract_x
_atom_site_fract_y
_atom_site_fract_z
Zn7 Zn 0.3750 0.0000 0.2500
C21 C 0.32902(12) 0.02316(12) 0.12728(12)
H19 H 0.3311 0.0362 0.1000
C37 C 0.03450(12) 0.01426(12) 0.18983(12)
H29 H 0.2928 0.0451 0.0083
N52 N 0.29395(9) 0.00271(9) 0.14428(9)
C54 C 0.36006(12) 0.02085(12) 0.15745(11)
H41 H 0.3879 0.0326 0.1547
H51 H 0.2299 0.0018 0.1471
H52 H 0.2482 0.0201 0.1029
C86 C 0.00329(15) 0.08079(14) 0.13969(14)
C97 C 0.04666(14) 0.07674(13) 0.14739(14)
H79 H 0.0660 0.0969 0.1356
C108 C 0.06198(14) 0.04368(14) 0.17201(14)
H90 H 0.0918 0.0411 0.1768
C42 C 0.31017(12) 0.03450(12) 0.98574(12)
C91 C 0.36031(14) 0.00329(15) 0.91921(14)
C102 C 0.35261(14) 0.04666(14) 0.92326(13)
H84 H 0.3644 0.0660 0.9031
C113 C 0.32799(14) 0.06198(14) 0.95632(14)
H95 H 0.3232 0.0918 0.9589
Zn1 Zn 0.0000 0.7500 0.1250
N1 N 0.04239(9) 0.78305(8) 0.02503(9)
N2 N 0.00914(9) 0.79965(9) 0.04052(9)
N3 N 0.05757(9) 0.75093(9) 0.09543(9)
C1 C 0.12272(12) 0.72684(12) 0.07902(12)
H1 H 0.1500 0.7138 0.0811
N4 N 0.10572(9) 0.74729(9) 0.04395(9)
C4 C 0.09255(11) 0.72915(12) 0.11006(12)
H3 H 0.0953 0.7174 0.1379
C5 C 0.06663(10) 0.76189(10) 0.05554(11)
C6 C 0.1250 0.75220(11) 0.00220(11)
Zn2 Zn 0.2500 0.8750 0.0000
Zn5 Zn 0.1250 0.5000 0.2500
Zn7_2 Zn 0.3750 1.0000 0.2500
N5 N 0.20761(9) 0.77503(9) 0.03305(8)
N10 N 0.03305(8) 0.70761(9) 0.22497(9)
N11 N 0.02503(9) 0.54239(9) 0.21695(8)
N14 N 0.28305(8) 0.97497(9) 0.04239(9)
N15 N 0.27503(9) 0.96695(8) 0.20761(9)
N16 N 0.24086(9) 0.79052(9) 0.04965(9)
N21 N 0.04965(9) 0.74086(9) 0.20948(9)
N22 N 0.04052(9) 0.50914(9) 0.20035(9)
N25 N 0.29965(9) 0.95948(9) 0.00914(9)
N26 N 0.29052(9) 0.95035(9) 0.24086(9)
N27 N 0.19243(9) 0.84543(9) 0.00093(9)
N32 N 0.00093(9) 0.69243(9) 0.15457(9)
N33 N 0.09543(9) 0.55757(9) 0.24907(9)
N36 N 0.25093(9) 0.90457(9) 0.05757(9)
N37 N 0.34543(9) 0.99907(9) 0.19243(9)
C14 C 0.02316(12) 0.87272(12) 0.17098(12)
C17 C 0.07902(12) 0.62272(12) 0.27316(12)
C18 C 0.37272(12) 0.82902(12) 0.02316(12)
C20 C 0.22684(12) 0.92098(12) 0.12272(12)
H12 H 0.0362 0.9000 0.1689
H15 H 0.0811 0.6500 0.2862
H16 H 0.4000 0.8311 0.0362
H18 H 0.2138 0.9189 0.1500
C22 C 0.26821(11) 0.75929(11) 0.06814(11)
C23 C 0.01821(11) 0.68186(11) 0.00929(11)
C27 C 0.06814(11) 0.76821(11) 0.24071(11)
C28 C 0.00929(11) 0.48179(11) 0.18186(11)
C32 C 0.25929(11) 0.93186(11) 0.26821(11)
C33 C 0.26426(12) 0.71550(12) 0.06017(12)
C38 C 0.06017(12) 0.76426(12) 0.28450(12)
C41 C 0.51426(12) 0.81017(12) 0.03450(12)
C43 C 0.21550(12) 0.93983(12) 0.26426(12)
H20 H 0.2417 0.7049 0.0428
H24 H 0.0451 0.9917 0.2072
H25 H 0.0428 0.7417 0.2951
H28 H 0.4917 0.7928 0.0451
H30 H 0.2049 0.9572 0.2417
N45 N 0.00271(9) 0.85572(9) 0.20605(9)
N48 N 0.04395(9) 0.60572(9) 0.25271(9)
N49 N 0.35572(9) 0.79395(9) 0.00271(9)
N51 N 0.24729(9) 0.95605(9) 0.10572(9)
C47 C 0.02085(12) 0.84255(11) 0.13994(12)
C50 C 0.11006(12) 0.59255(11) 0.27085(12)
C51 C 0.34255(11) 0.86006(12) 0.02085(12)
C53 C 0.22915(12) 0.88994(12) 0.09255(11)
H34 H 0.0326 0.8453 0.1121
H37 H 0.1379 0.5953 0.2826
H38 H 0.3453 0.8879 0.0326
H40 H 0.2174 0.8621 0.0953
C55 C 0.18337(10) 0.80554(11) 0.01189(10)
C60 C 0.01189(10) 0.68337(10) 0.19446(11)
C61 C 0.05554(11) 0.56663(10) 0.23811(10)
C64 C 0.26189(10) 0.94446(11) 0.06663(10)
C65 C 0.30554(11) 0.98811(10) 0.18337(10)
C68 C 0.00220(11) 0.6250 0.24780(11)
C70 C 0.25220(11) 0.99780(11) 0.1250
H45 H 0.0201 0.8971 0.2518
H46 H 0.0018 0.8529 0.2701
H49 H 0.3971 0.7482 0.0201
H50 H 0.3529 0.7299 0.0018
C71 C 0.30130(12) 0.77503(13) 0.09305(12)
C72 C 0.05130(12) 0.65695(12) 0.02503(13)
C76 C 0.09305(12) 0.80130(12) 0.22497(13)
C77 C 0.02503(13) 0.44870(12) 0.15695(12)
C81 C 0.27503(13) 0.90695(12) 0.30130(12)
H53 H 0.3038 0.8048 0.0982
H54 H 0.0538 0.6518 0.0548
H58 H 0.0982 0.8038 0.1952
H59 H 0.0548 0.4462 0.1518
H63 H 0.3048 0.9018 0.3038
C82 C 0.33079(14) 0.74671(15) 0.11031(14)
C87 C 0.11031(14) 0.83079(14) 0.25329(15)
C90 C 0.58079(14) 0.86031(14) 0.00329(15)
C92 C 0.24671(15) 0.88969(14) 0.33079(14)
H64 H 0.3537 0.7571 0.1273
H65 H 0.1037 0.6227 0.0071
H69 H 0.1273 0.8537 0.2429
H70 H 0.0071 0.3963 0.1227
H74 H 0.2571 0.8727 0.3537
C93 C 0.32674(13) 0.70334(14) 0.10261(14)
C98 C 0.10261(14) 0.82674(13) 0.29666(14)
C101 C 0.57674(13) 0.85261(14) 0.04666(14)
C103 C 0.20334(14) 0.89739(14) 0.32674(13)
H75 H 0.3469 0.6840 0.1144
H80 H 0.1144 0.8469 0.3160
H83 H 0.5969 0.8644 0.0660
H85 H 0.1840 0.8856 0.3469
C104 C 0.29368(14) 0.68802(14) 0.07799(14)
C109 C 0.07799(14) 0.79368(14) 0.31198(14)
C112 C 0.54368(14) 0.82799(14) 0.06198(14)
C114 C 0.18802(14) 0.92201(14) 0.29368(14)
H86 H 0.2911 0.6582 0.0732
H91 H 0.0732 0.7911 0.3418
H94 H 0.5411 0.8232 0.0918
H96 H 0.1582 0.9268 0.2911
H2 H 0.0083 0.7928 0.9549
H4 H 0.1471 0.7299 0.9982
Zn2_2 Zn 0.2500 0.8750 1.0000
Zn6 Zn 0.5000 0.7500 0.8750
N12 N 0.29239(9) 0.77503(9) 0.96695(8)
N13 N 0.45761(9) 0.78305(8) 0.97497(9)
N23 N 0.25914(9) 0.79052(9) 0.95035(9)
N24 N 0.49086(9) 0.79965(9) 0.95948(9)
N34 N 0.30757(9) 0.84543(9) 0.99907(9)
N35 N 0.44243(9) 0.75093(9) 0.90457(9)
N38 N 0.24907(9) 0.90457(9) 0.94243(9)
C11 C 0.12728(12) 0.82902(12) 0.97684(12)
C19 C 0.37728(12) 0.72684(12) 0.92098(12)
H9 H 0.1000 0.8311 0.9638
H17 H 0.3500 0.7138 0.9189
C29 C 0.23179(11) 0.75929(11) 0.93186(11)
C30 C 0.51821(11) 0.81814(11) 0.99071(11)
C31 C 0.31814(11) 0.99071(11) 0.98179(11)
C34 C 0.01426(12) 0.68983(12) 0.96550(12)
C40 C 0.23574(12) 0.71550(12) 0.93983(12)
H27 H 0.2583 0.7049 0.9572
N42 N 0.14428(9) 0.79395(9) 0.99729(9)
N50 N 0.39428(9) 0.74729(9) 0.95605(9)
C44 C 0.15745(11) 0.86006(12) 0.97915(12)
C52 C 0.40745(11) 0.72915(12) 0.88994(12)
H31 H 0.1547 0.8879 0.9674
H39 H 0.4047 0.7174 0.8621
C62 C 0.31663(10) 0.80554(11) 0.98811(10)
C63 C 0.43337(10) 0.76189(10) 0.94446(11)
C69 C 0.3750 0.75220(11) 0.99780(11)
H42 H 0.1029 0.7482 0.9799
C78 C 0.19870(12) 0.77503(13) 0.90695(12)
C79 C 0.55130(12) 0.84305(12) 0.97497(13)
C80 C 0.34305(12) 0.97497(13) 0.94870(12)
H60 H 0.1962 0.8048 0.9018
H61 H 0.5538 0.8482 0.9452
H62 H 0.3482 0.9452 0.9462
C83 C 0.08079(14) 0.63969(14) 0.99671(15)
C89 C 0.16921(14) 0.74671(15) 0.88969(14)
H71 H 0.1463 0.7571 0.8727
H72 H 0.6037 0.8773 0.9929
H73 H 0.3773 0.9929 0.8963
C94 C 0.07674(13) 0.64739(14) 0.95334(14)
C100 C 0.17326(13) 0.70334(14) 0.89739(14)
H76 H 0.0969 0.6356 0.9340
H82 H 0.1531 0.6840 0.8856
C105 C 0.04368(14) 0.67201(14) 0.93802(14)
C111 C 0.20632(14) 0.68802(14) 0.92201(14)
H87 H 0.0411 0.6768 0.9082
H93 H 0.2089 0.6582 0.9268
Zn4 Zn 0.8750 0.0000 0.2500
C26 C 0.99071(11) 0.01821(11) 0.18186(11)
C75 C 0.97497(13) 0.05130(12) 0.15695(12)
H57 H 0.9452 0.0538 0.1518
H68 H 0.9929 0.1037 0.1227
Zn1_2 Zn 1.0000 0.7500 0.1250
C2 C 0.98179(11) 0.81814(11) 0.00929(11)
C7 C 0.94870(12) 0.84305(12) 0.02503(13)
H5 H 0.9462 0.8482 0.0548
H6 H 0.8963 0.8773 0.0071
Zn3 Zn 0.7500 0.6250 0.0000
Zn4_2 Zn 0.8750 1.0000 0.2500
N6 N 0.95761(9) 0.71695(8) 0.02503(9)
N7 N 0.79239(9) 0.72497(9) 0.03305(8)
N8 N 0.96695(8) 0.79239(9) 0.22497(9)
N9 N 0.97497(9) 0.95761(9) 0.21695(8)
N17 N 0.99086(9) 0.70035(9) 0.04052(9)
N18 N 0.75914(9) 0.70948(9) 0.04965(9)
N19 N 0.95035(9) 0.75914(9) 0.20948(9)
N20 N 0.95948(9) 0.99086(9) 0.20035(9)
N28 N 0.94243(9) 0.74907(9) 0.09543(9)
N29 N 0.80757(9) 0.65457(9) 0.00093(9)
N30 N 0.99907(9) 0.80757(9) 0.15457(9)
N31 N 0.90457(9) 0.94243(9) 0.24907(9)
N40 N 0.74907(9) 0.59543(9) 0.05757(9)
C12 C 0.87728(12) 0.77316(12) 0.07902(12)
C15 C 0.92098(12) 0.87728(12) 0.27316(12)
C16 C 0.97684(12) 0.62728(12) 0.17098(12)
H10 H 0.8500 0.7862 0.0811
H13 H 0.9189 0.8500 0.2862
H14 H 0.9638 0.6000 0.1689
C24 C 0.73179(11) 0.74071(11) 0.06814(11)
C25 C 0.93186(11) 0.73179(11) 0.24071(11)
C35 C 0.73574(12) 0.78450(12) 0.06017(12)
C36 C 0.93983(12) 0.73574(12) 0.28450(12)
C39 C 0.96550(12) 0.48574(12) 0.18983(12)
H22 H 0.7583 0.7951 0.0428
H23 H 0.9572 0.7583 0.2951
H26 H 0.9549 0.5083 0.2072
N43 N 0.89428(9) 0.75271(9) 0.04395(9)
N46 N 0.95605(9) 0.89428(9) 0.25271(9)
N47 N 0.99729(9) 0.64428(9) 0.20605(9)
C45 C 0.90745(11) 0.77085(12) 0.11006(12)
C48 C 0.88994(12) 0.90745(11) 0.27085(12)
C49 C 0.97915(12) 0.65745(11) 0.13994(12)
H32 H 0.9047 0.7826 0.1379
H35 H 0.8621 0.9047 0.2826
H36 H 0.9674 0.6547 0.1121
C56 C 0.93337(10) 0.73811(10) 0.05554(11)
C57 C 0.81663(10) 0.69446(11) 0.01189(10)
C58 C 0.98811(10) 0.81663(10) 0.19446(11)
C59 C 0.94446(11) 0.93337(10) 0.23811(10)
C66 C 0.8750 0.74780(11) 0.00220(11)
C67 C 0.99780(11) 0.8750 0.24780(11)
H47 H 0.9799 0.6029 0.2518
H48 H 0.9982 0.6471 0.2701
C73 C 0.69870(12) 0.72497(13) 0.09305(12)
C74 C 0.90695(12) 0.69870(12) 0.22497(13)
H55 H 0.6962 0.6952 0.0982
H56 H 0.9018 0.6962 0.1952
C84 C 0.66921(14) 0.75329(15) 0.11031(14)
C85 C 0.88969(14) 0.66921(14) 0.25329(15)
C88 C 0.99671(15) 0.41921(14) 0.13969(14)
H66 H 0.6463 0.7429 0.1273
H67 H 0.8727 0.6463 0.2429
C95 C 0.67326(13) 0.79666(14) 0.10261(14)
C96 C 0.89739(14) 0.67326(13) 0.29666(14)
C99 C 0.95334(14) 0.42326(13) 0.14739(14)
H77 H 0.6531 0.8160 0.1144
H78 H 0.8856 0.6531 0.3160
H81 H 0.9340 0.4031 0.1356
C106 C 0.70632(14) 0.81198(14) 0.07799(14)
C107 C 0.92201(14) 0.70632(14) 0.31198(14)
C110 C 0.93802(14) 0.45632(14) 0.17201(14)
H88 H 0.7089 0.8418 0.0732
H89 H 0.9268 0.7089 0.3418
H92 H 0.9082 0.4589 0.1768
C3 C 0.98574(12) 0.81017(12) 0.96550(12)
C8 C 0.91921(14) 0.86031(14) 0.99671(15)
C9 C 0.92326(13) 0.85261(14) 0.95334(14)
H7 H 0.9031 0.8644 0.9340
C10 C 0.95632(14) 0.82799(14) 0.93802(14)
H8 H 0.9589 0.8232 0.9082
Zn3_2 Zn 0.7500 0.6250 1.0000
N39 N 0.69243(9) 0.65457(9) 0.99907(9)
N41 N 0.75093(9) 0.59543(9) 0.94243(9)
C13 C 0.87272(12) 0.67098(12) 0.97684(12)
H11 H 0.9000 0.6689 0.9638
H21 H 0.9917 0.7072 0.9549
N44 N 0.85572(9) 0.70605(9) 0.99729(9)
C46 C 0.84255(11) 0.63994(12) 0.97915(12)
H33 H 0.8453 0.6121 0.9674
H43 H 0.8529 0.7701 0.9982
H44 H 0.8971 0.7518 0.9799
Zn1_3 Zn 0.5000 0.2500 0.6250
N1_2 N 0.45761(9) 0.21695(8) 0.52503(9)
N2_2 N 0.49086(9) 0.20035(9) 0.54052(9)
N3_2 N 0.44243(9) 0.24907(9) 0.59543(9)
C1_2 C 0.37728(12) 0.27316(12) 0.57902(12)
H1_2 H 0.3500 0.2862 0.5811
C2_2 C 0.51821(11) 0.18186(11) 0.50929(11)
C3_2 C 0.51426(12) 0.18983(12) 0.46550(12)
H2_2 H 0.4917 0.2072 0.4549
N4_2 N 0.39428(9) 0.25271(9) 0.54395(9)
C4_2 C 0.40745(11) 0.27085(12) 0.61006(12)
H3_2 H 0.4047 0.2826 0.6379
C5_2 C 0.43337(10) 0.23811(10) 0.55554(11)
C6_2 C 0.3750 0.24780(11) 0.50220(11)
H4_2 H 0.3529 0.2701 0.4982
C7_2 C 0.55130(12) 0.15695(12) 0.52503(13)
H5_2 H 0.5538 0.1518 0.5548
C8_2 C 0.58079(14) 0.13969(14) 0.49671(15)
H6_2 H 0.6037 0.1227 0.5071
C9_2 C 0.57674(13) 0.14739(14) 0.45334(14)
H7_2 H 0.5969 0.1356 0.4340
C10_2 C 0.54368(14) 0.17201(14) 0.43802(14)
H8_2 H 0.5411 0.1768 0.4082
Zn2_3 Zn 0.2500 0.1250 0.5000
Zn3_3 Zn 0.7500 0.3750 0.5000
Zn4_3 Zn 0.6250 0.0000 0.7500
Zn5_2 Zn 0.3750 0.5000 0.7500
Zn6_2 Zn -0.0000 0.2500 0.3750
Zn7_3 Zn 0.1250 0.0000 0.7500
N5_2 N 0.29239(9) 0.22497(9) 0.53305(8)
N6_2 N 0.54239(9) 0.28305(8) 0.52503(9)
N7_2 N 0.70761(9) 0.27503(9) 0.53305(8)
N8_2 N 0.53305(8) 0.20761(9) 0.72497(9)
N9_2 N 0.52503(9) 0.04239(9) 0.71695(8)
N10_2 N 0.46695(8) 0.29239(9) 0.72497(9)
N11_2 N 0.47497(9) 0.45761(9) 0.71695(8)
N12_2 N 0.20761(9) 0.22497(9) 0.46695(8)
N13_2 N 0.04239(9) 0.21695(8) 0.47497(9)
N14_2 N 0.21695(8) 0.02503(9) 0.54239(9)
N15_2 N 0.22497(9) 0.03305(8) 0.70761(9)
N16_2 N 0.25914(9) 0.20948(9) 0.54965(9)
N17_2 N 0.50914(9) 0.29965(9) 0.54052(9)
N18_2 N 0.74086(9) 0.29052(9) 0.54965(9)
N19_2 N 0.54965(9) 0.24086(9) 0.70948(9)
N20_2 N 0.54052(9) 0.00914(9) 0.70035(9)
N21_2 N 0.45035(9) 0.25914(9) 0.70948(9)
N22_2 N 0.45948(9) 0.49086(9) 0.70035(9)
N23_2 N 0.24086(9) 0.20948(9) 0.45035(9)
N24_2 N 0.00914(9) 0.20035(9) 0.45948(9)
N25_2 N 0.20035(9) 0.04052(9) 0.50914(9)
N26_2 N 0.20948(9) 0.04965(9) 0.74086(9)
N27_2 N 0.30757(9) 0.15457(9) 0.50093(9)
N28_2 N 0.55757(9) 0.25093(9) 0.59543(9)
N29_2 N 0.69243(9) 0.34543(9) 0.50093(9)
N30_2 N 0.50093(9) 0.19243(9) 0.65457(9)
N31_2 N 0.59543(9) 0.05757(9) 0.74907(9)
N32_2 N 0.49907(9) 0.30757(9) 0.65457(9)
N33_2 N 0.40457(9) 0.44243(9) 0.74907(9)
N34_2 N 0.19243(9) 0.15457(9) 0.49907(9)
N35_2 N 0.05757(9) 0.24907(9) 0.40457(9)
N36_2 N 0.24907(9) 0.09543(9) 0.55757(9)
N37_2 N 0.15457(9) 0.00093(9) 0.69243(9)
N38_2 N 0.25093(9) 0.09543(9) 0.44243(9)
N39_2 N 0.80757(9) 0.34543(9) 0.49907(9)
N40_2 N 0.75093(9) 0.40457(9) 0.55757(9)
N41_2 N 0.74907(9) 0.40457(9) 0.44243(9)
C11_2 C 0.37272(12) 0.17098(12) 0.47684(12)
C12_2 C 0.62272(12) 0.22684(12) 0.57902(12)
C13_2 C 0.62728(12) 0.32902(12) 0.47684(12)
C14_2 C 0.47684(12) 0.12728(12) 0.67098(12)
C15_2 C 0.57902(12) 0.12272(12) 0.77316(12)
C16_2 C 0.52316(12) 0.37272(12) 0.67098(12)
C17_2 C 0.42098(12) 0.37728(12) 0.77316(12)
C18_2 C 0.12728(12) 0.17098(12) 0.52316(12)
C19_2 C 0.12272(12) 0.27316(12) 0.42098(12)
C20_2 C 0.27316(12) 0.07902(12) 0.62272(12)
H9_2 H 0.4000 0.1689 0.4638
H10_2 H 0.6500 0.2138 0.5811
H11_2 H 0.6000 0.3311 0.4638
H12_2 H 0.4638 0.1000 0.6689
H13_2 H 0.5811 0.1500 0.7862
H14_2 H 0.5362 0.4000 0.6689
H15_2 H 0.4189 0.3500 0.7862
H16_2 H 0.1000 0.1689 0.5362
H17_2 H 0.1500 0.2862 0.4189
H18_2 H 0.2862 0.0811 0.6500
C22_2 C 0.23179(11) 0.24071(11) 0.56814(11)
C23_2 C 0.48179(11) 0.31814(11) 0.50929(11)
C24_2 C 0.76821(11) 0.25929(11) 0.56814(11)
C25_2 C 0.56814(11) 0.26821(11) 0.74071(11)
C27_2 C 0.43186(11) 0.23179(11) 0.74071(11)
C28_2 C 0.49071(11) 0.51821(11) 0.68186(11)
C29_2 C 0.26821(11) 0.24071(11) 0.43186(11)
C31_2 C 0.18186(11) 0.00929(11) 0.48179(11)
C32_2 C 0.24071(11) 0.06814(11) 0.76821(11)
C33_2 C 0.23574(12) 0.28450(12) 0.56017(12)
C34_2 C 0.48574(12) 0.31017(12) 0.46550(12)
C35_2 C 0.76426(12) 0.21550(12) 0.56017(12)
C36_2 C 0.56017(12) 0.26426(12) 0.78450(12)
C38_2 C 0.43983(12) 0.23574(12) 0.78450(12)
C39_2 C 0.53450(12) 0.51426(12) 0.68983(12)
C40_2 C 0.26426(12) 0.28450(12) 0.43983(12)
C43_2 C 0.28450(12) 0.06017(12) 0.76426(12)
H20_2 H 0.2583 0.2951 0.5428
H21_2 H 0.5083 0.2928 0.4549
H22_2 H 0.7417 0.2049 0.5428
H23_2 H 0.5428 0.2417 0.7951
H24_2 H 0.4549 0.0083 0.7072
H25_2 H 0.4572 0.2583 0.7951
H26_2 H 0.5451 0.4917 0.7072
H27_2 H 0.2417 0.2951 0.4572
H28_2 H 0.0083 0.2072 0.5451
H30_2 H 0.2951 0.0428 0.7417
N42_2 N 0.35572(9) 0.20605(9) 0.49729(9)
N43_2 N 0.60572(9) 0.24729(9) 0.54395(9)
N44_2 N 0.64428(9) 0.29395(9) 0.49729(9)
N45_2 N 0.49729(9) 0.14428(9) 0.70605(9)
N46_2 N 0.54395(9) 0.10572(9) 0.75271(9)
N47_2 N 0.50271(9) 0.35572(9) 0.70605(9)
N48_2 N 0.45605(9) 0.39428(9) 0.75271(9)
N49_2 N 0.14428(9) 0.20605(9) 0.50271(9)
N50_2 N 0.10572(9) 0.25271(9) 0.45605(9)
N51_2 N 0.25271(9) 0.04395(9) 0.60572(9)
C44_2 C 0.34255(11) 0.13994(12) 0.47915(12)
C45_2 C 0.59255(11) 0.22915(12) 0.61006(12)
C46_2 C 0.65745(11) 0.36006(12) 0.47915(12)
C47_2 C 0.47915(12) 0.15745(11) 0.63994(12)
C48_2 C 0.61006(12) 0.09255(11) 0.77085(12)
C49_2 C 0.52085(12) 0.34255(11) 0.63994(12)
C50_2 C 0.38994(12) 0.40745(11) 0.77085(12)
C51_2 C 0.15745(11) 0.13994(12) 0.52085(12)
C52_2 C 0.09255(11) 0.27085(12) 0.38994(12)
C53_2 C 0.27085(12) 0.11006(12) 0.59255(11)
H31_2 H 0.3453 0.1121 0.4674
H32_2 H 0.5953 0.2174 0.6379
H33_2 H 0.6547 0.3879 0.4674
H34_2 H 0.4674 0.1547 0.6121
H35_2 H 0.6379 0.0953 0.7826
H36_2 H 0.5326 0.3453 0.6121
H37_2 H 0.3621 0.4047 0.7826
H38_2 H 0.1547 0.1121 0.5326
H39_2 H 0.0953 0.2826 0.3621
H40_2 H 0.2826 0.1379 0.5953
C55_2 C 0.31663(10) 0.19446(11) 0.51189(10)
C56_2 C 0.56663(10) 0.26189(10) 0.55554(11)
C57_2 C 0.68337(10) 0.30554(11) 0.51189(10)
C58_2 C 0.51189(10) 0.18337(10) 0.69446(11)
C59_2 C 0.55554(11) 0.06663(10) 0.73811(10)
C60_2 C 0.48811(10) 0.31663(10) 0.69446(11)
C61_2 C 0.44446(11) 0.43337(10) 0.73811(10)
C62_2 C 0.18337(10) 0.19446(11) 0.48811(10)
C63_2 C 0.06663(10) 0.23811(10) 0.44446(11)
C64_2 C 0.23811(10) 0.05554(11) 0.56663(10)
C65_2 C 0.19446(11) 0.01189(10) 0.68337(10)
C66_2 C 0.6250 0.25220(11) 0.50220(11)
C67_2 C 0.50220(11) 0.1250 0.74780(11)
C68_2 C 0.49780(11) 0.3750 0.74780(11)
C69_2 C 0.1250 0.24780(11) 0.49780(11)
C70_2 C 0.24780(11) 0.00220(11) 0.6250
H42_2 H 0.3971 0.2518 0.4799
H43_2 H 0.6471 0.2299 0.4982
H44_2 H 0.6029 0.2482 0.4799
H45_2 H 0.4799 0.1029 0.7518
H46_2 H 0.4982 0.1471 0.7701
H47_2 H 0.5201 0.3971 0.7518
H48_2 H 0.5018 0.3529 0.7701
H49_2 H 0.1029 0.2518 0.5201
H50_2 H 0.1471 0.2701 0.5018
C71_2 C 0.19870(12) 0.22497(13) 0.59305(12)
C72_2 C 0.44870(12) 0.34305(12) 0.52503(13)
C73_2 C 0.80130(12) 0.27503(13) 0.59305(12)
C74_2 C 0.59305(12) 0.30130(12) 0.72497(13)
C76_2 C 0.40695(12) 0.19870(12) 0.72497(13)
C77_2 C 0.47497(13) 0.55130(12) 0.65695(12)
C78_2 C 0.30130(12) 0.22497(13) 0.40695(12)
C80_2 C 0.15695(12) 0.02503(13) 0.44870(12)
C81_2 C 0.22497(13) 0.09305(12) 0.80130(12)
H53_2 H 0.1962 0.1952 0.5982
H54_2 H 0.4462 0.3482 0.5548
H55_2 H 0.8038 0.3048 0.5982
H56_2 H 0.5982 0.3038 0.6952
H58_2 H 0.4018 0.1962 0.6952
H59_2 H 0.4452 0.5538 0.6518
H60_2 H 0.3038 0.1952 0.4018
H62_2 H 0.1518 0.0548 0.4462
H63_2 H 0.1952 0.0982 0.8038
C82_2 C 0.16921(14) 0.25329(15) 0.61031(14)
C83_2 C 0.41921(14) 0.36031(14) 0.49671(15)
C84_2 C 0.83079(14) 0.24671(15) 0.61031(14)
C85_2 C 0.61031(14) 0.33079(14) 0.75329(15)
C87_2 C 0.38969(14) 0.16921(14) 0.75329(15)
C88_2 C 0.50329(15) 0.58079(14) 0.63969(14)
C89_2 C 0.33079(14) 0.25329(15) 0.38969(14)
C92_2 C 0.25329(15) 0.11031(14) 0.83079(14)
H64_2 H 0.1463 0.2429 0.6273
H65_2 H 0.3963 0.3773 0.5071
H66_2 H 0.8537 0.2571 0.6273
H67_2 H 0.6273 0.3537 0.7429
H69_2 H 0.3727 0.1463 0.7429
H70_2 H 0.4929 0.6037 0.6227
H71_2 H 0.3537 0.2429 0.3727
H73_2 H 0.1227 0.0071 0.3963
H74_2 H 0.2429 0.1273 0.8537
C93_2 C 0.17326(13) 0.29666(14) 0.60261(14)
C94_2 C 0.42326(13) 0.35261(14) 0.45334(14)
C95_2 C 0.82674(13) 0.20334(14) 0.60261(14)
C96_2 C 0.60261(14) 0.32674(13) 0.79666(14)
C98_2 C 0.39739(14) 0.17326(13) 0.79666(14)
C99_2 C 0.54666(14) 0.57674(13) 0.64739(14)
C100_2 C 0.32674(13) 0.29666(14) 0.39739(14)
C103_2 C 0.29666(14) 0.10261(14) 0.82674(13)
H75_2 H 0.1531 0.3160 0.6144
H76_2 H 0.4031 0.3644 0.4340
H77_2 H 0.8469 0.1840 0.6144
H78_2 H 0.6144 0.3469 0.8160
H80_2 H 0.3856 0.1531 0.8160
H81_2 H 0.5660 0.5969 0.6356
H82_2 H 0.3469 0.3160 0.3856
H85_2 H 0.3160 0.1144 0.8469
C104_2 C 0.20632(14) 0.31198(14) 0.57799(14)
C105_2 C 0.45632(14) 0.32799(14) 0.43802(14)
C106_2 C 0.79368(14) 0.18802(14) 0.57799(14)
C107_2 C 0.57799(14) 0.29368(14) 0.81198(14)
C109_2 C 0.42201(14) 0.20632(14) 0.81198(14)
C110_2 C 0.56198(14) 0.54368(14) 0.67201(14)
C111_2 C 0.29368(14) 0.31198(14) 0.42201(14)
C114_2 C 0.31198(14) 0.07799(14) 0.79368(14)
H86_2 H 0.2089 0.3418 0.5732
H87_2 H 0.4589 0.3232 0.4082
H88_2 H 0.7911 0.1582 0.5732
H89_2 H 0.5732 0.2911 0.8418
H91_2 H 0.4268 0.2089 0.8418
H92_2 H 0.5918 0.5411 0.6768
H93_2 H 0.2911 0.3418 0.4268
H96_2 H 0.3418 0.0732 0.7911
Zn4_4 Zn 0.6250 1.0000 0.7500
Zn7_4 Zn 0.1250 1.0000 0.7500
C21_2 C 0.17098(12) 0.97684(12) 0.62728(12)
H19_2 H 0.1689 0.9638 0.6000
C26_2 C 0.50929(11) 0.98179(11) 0.68186(11)
C37_2 C 0.46550(12) 0.98574(12) 0.68983(12)
C42_2 C 0.18983(12) 0.96550(12) 0.48574(12)
H29_2 H 0.2072 0.9549 0.5083
N52_2 N 0.20605(9) 0.99729(9) 0.64428(9)
C54_2 C 0.13994(12) 0.97915(12) 0.65745(11)
H41_2 H 0.1121 0.9674 0.6547
H51_2 H 0.2701 0.9982 0.6471
H52_2 H 0.2518 0.9799 0.6029
C75_2 C 0.52503(13) 0.94870(12) 0.65695(12)
H57_2 H 0.5548 0.9462 0.6518
C86_2 C 0.49671(15) 0.91921(14) 0.63969(14)
C91_2 C 0.13969(14) 0.99671(15) 0.41921(14)
H68_2 H 0.5071 0.8963 0.6227
C97_2 C 0.45334(14) 0.92326(13) 0.64739(14)
C102_2 C 0.14739(14) 0.95334(14) 0.42326(13)
H79_2 H 0.4340 0.9031 0.6356
H84_2 H 0.1356 0.9340 0.4031
C108_2 C 0.43802(14) 0.95632(14) 0.67201(14)
C113_2 C 0.17201(14) 0.93802(14) 0.45632(14)
H90_2 H 0.4082 0.9589 0.6768
H95_2 H 0.1768 0.9082 0.4589
Zn6_3 Zn 1.0000 0.2500 0.3750
C30_2 C 0.98179(11) 0.18186(11) 0.49071(11)
C41_2 C 0.98574(12) 0.18983(12) 0.53450(12)
C79_2 C 0.94870(12) 0.15695(12) 0.47497(13)
H61_2 H 0.9462 0.1518 0.4452
C90_2 C 0.91921(14) 0.13969(14) 0.50329(15)
H72_2 H 0.8963 0.1227 0.4929
C101_2 C 0.92326(13) 0.14739(14) 0.54666(14)
H83_2 H 0.9031 0.1356 0.5660
C112_2 C 0.95632(14) 0.17201(14) 0.56198(14)
H94_2 H 0.9589 0.1768 0.5918
C2_3 C 0.01821(11) 0.31814(11) 0.49071(11)
C3_3 C 0.01426(12) 0.31017(12) 0.53450(12)
C7_3 C 0.05130(12) 0.34305(12) 0.47497(13)
H5_3 H 0.0538 0.3482 0.4452
C8_3 C 0.08079(14) 0.36031(14) 0.50329(15)
H6_3 H 0.1037 0.3773 0.4929
C9_3 C 0.07674(13) 0.35261(14) 0.54666(14)
H7_3 H 0.0969 0.3644 0.5660
C10_3 C 0.04368(14) 0.32799(14) 0.56198(14)
H8_3 H 0.0411 0.3232 0.5918
N8_3 N 0.03305(8) 0.29239(9) 0.27503(9)
N9_3 N 0.02503(9) 0.45761(9) 0.28305(8)
N19_3 N 0.04965(9) 0.25914(9) 0.29052(9)
N20_3 N 0.04052(9) 0.49086(9) 0.29965(9)
N30_3 N 0.00093(9) 0.30757(9) 0.34543(9)
N31_3 N 0.09543(9) 0.44243(9) 0.25093(9)
C15_3 C 0.07902(12) 0.37728(12) 0.22684(12)
C16_3 C 0.02316(12) 0.12728(12) 0.32902(12)
H13_3 H 0.0811 0.3500 0.2138
H14_3 H 0.0362 0.1000 0.3311
C25_3 C 0.06814(11) 0.23179(11) 0.25929(11)
C26_3 C 0.00929(11) 0.51821(11) 0.31814(11)
C36_3 C 0.06017(12) 0.23574(12) 0.21550(12)
H23_3 H 0.0428 0.2583 0.2049
H26_3 H 0.0451 0.0083 0.2928
N46_3 N 0.04395(9) 0.39428(9) 0.24729(9)
N47_3 N 0.00271(9) 0.14428(9) 0.29395(9)
C48_3 C 0.11006(12) 0.40745(11) 0.22915(12)
C49_3 C 0.02085(12) 0.15745(11) 0.36006(12)
H35_3 H 0.1379 0.4047 0.2174
H36_3 H 0.0326 0.1547 0.3879
C58_3 C 0.01189(10) 0.31663(10) 0.30554(11)
C59_3 C 0.05554(11) 0.43337(10) 0.26189(10)
C67_3 C 0.00220(11) 0.3750 0.25220(11)
H47_3 H 0.0201 0.1029 0.2482
H48_3 H 0.0018 0.1471 0.2299
C74_3 C 0.09305(12) 0.19870(12) 0.27503(13)
C75_3 C 0.02503(13) 0.55130(12) 0.34305(12)
H56_3 H 0.0982 0.1962 0.3048
H57_3 H 0.0548 0.5538 0.3482
C85_3 C 0.11031(14) 0.16921(14) 0.24671(15)
H67_3 H 0.1273 0.1463 0.2571
H68_3 H 0.0071 0.6037 0.3773
C96_3 C 0.10261(14) 0.17326(13) 0.20334(14)
H78_3 H 0.1144 0.1531 0.1840
C107_3 C 0.07799(14) 0.20632(14) 0.18802(14)
H89_3 H 0.0732 0.2089 0.1582
C39_3 C 0.03450(12) 0.98574(12) 0.31017(12)
C88_3 C 0.00329(15) 0.91921(14) 0.36031(14)
C99_3 C 0.04666(14) 0.92326(13) 0.35261(14)
H81_3 H 0.0660 0.9031 0.3644
C110_3 C 0.06198(14) 0.95632(14) 0.32799(14)
H92_3 H 0.0918 0.9589 0.3232
N1_3 N 0.95761(9) 0.28305(8) 0.47497(9)
N2_3 N 0.99086(9) 0.29965(9) 0.45948(9)
N3_3 N 0.94243(9) 0.25093(9) 0.40457(9)
C1_3 C 0.87728(12) 0.22684(12) 0.42098(12)
H1_3 H 0.8500 0.2138 0.4189
H2_3 H 0.9917 0.2928 0.5451
N4_3 N 0.89428(9) 0.24729(9) 0.45605(9)
C4_3 C 0.90745(11) 0.22915(12) 0.38994(12)
H3_3 H 0.9047 0.2174 0.3621
C5_3 C 0.93337(10) 0.26189(10) 0.44446(11)
C6_3 C 0.8750 0.25220(11) 0.49780(11)
H4_3 H 0.8529 0.2299 0.5018
Zn7_5 Zn 0.6250 0.5000 0.2500
N5_3 N 0.79239(9) 0.27503(9) 0.46695(8)
N10_3 N 0.96695(8) 0.20761(9) 0.27503(9)
N11_3 N 0.97497(9) 0.04239(9) 0.28305(8)
N14_3 N 0.71695(8) 0.47497(9) 0.45761(9)
N15_3 N 0.72497(9) 0.46695(8) 0.29239(9)
N16_3 N 0.75914(9) 0.29052(9) 0.45035(9)
N21_3 N 0.95035(9) 0.24086(9) 0.29052(9)
N22_3 N 0.95948(9) 0.00914(9) 0.29965(9)
N25_3 N 0.70035(9) 0.45948(9) 0.49086(9)
N26_3 N 0.70948(9) 0.45035(9) 0.25914(9)
N32_3 N 0.99907(9) 0.19243(9) 0.34543(9)
N33_3 N 0.90457(9) 0.05757(9) 0.25093(9)
N37_3 N 0.65457(9) 0.49907(9) 0.30757(9)
C11_3 C 0.87272(12) 0.32902(12) 0.52316(12)
C14_3 C 0.97684(12) 0.37272(12) 0.32902(12)
C17_3 C 0.92098(12) 0.12272(12) 0.22684(12)
C20_3 C 0.77316(12) 0.42098(12) 0.37728(12)
C21_3 C 0.67098(12) 0.52316(12) 0.37272(12)
H9_3 H 0.9000 0.3311 0.5362
H12_3 H 0.9638 0.4000 0.3311
H15_3 H 0.9189 0.1500 0.2138
H18_3 H 0.7862 0.4189 0.3500
H19_3 H 0.6689 0.5362 0.4000
C22_3 C 0.73179(11) 0.25929(11) 0.43186(11)
C27_3 C 0.93186(11) 0.26821(11) 0.25929(11)
C31_3 C 0.68186(11) 0.49071(11) 0.51821(11)
C32_3 C 0.74071(11) 0.43186(11) 0.23179(11)
C33_3 C 0.73574(12) 0.21550(12) 0.43983(12)
C37_3 C 0.96550(12) 0.51426(12) 0.31017(12)
C38_3 C 0.93983(12) 0.26426(12) 0.21550(12)
C42_3 C 0.68983(12) 0.53450(12) 0.51426(12)
C43_3 C 0.78450(12) 0.43983(12) 0.23574(12)
H20_3 H 0.7583 0.2049 0.4572
H24_3 H 0.9549 0.4917 0.2928
H25_3 H 0.9572 0.2417 0.2049
H29_3 H 0.7072 0.5451 0.4917
H30_3 H 0.7951 0.4572 0.2583
N42_3 N 0.85572(9) 0.29395(9) 0.50271(9)
N45_3 N 0.99729(9) 0.35572(9) 0.29395(9)
N48_3 N 0.95605(9) 0.10572(9) 0.24729(9)
N51_3 N 0.75271(9) 0.45605(9) 0.39428(9)
N52_3 N 0.70605(9) 0.50271(9) 0.35572(9)
C44_3 C 0.84255(11) 0.36006(12) 0.52085(12)
C47_3 C 0.97915(12) 0.34255(11) 0.36006(12)
C50_3 C 0.88994(12) 0.09255(11) 0.22915(12)
C53_3 C 0.77085(12) 0.38994(12) 0.40745(11)
C54_3 C 0.63994(12) 0.52085(12) 0.34255(11)
H31_3 H 0.8453 0.3879 0.5326
H34_3 H 0.9674 0.3453 0.3879
H37_3 H 0.8621 0.0953 0.2174
H40_3 H 0.7826 0.3621 0.4047
H41_3 H 0.6121 0.5326 0.3453
C55_3 C 0.81663(10) 0.30554(11) 0.48811(10)
C60_3 C 0.98811(10) 0.18337(10) 0.30554(11)
C61_3 C 0.94446(11) 0.06663(10) 0.26189(10)
C64_3 C 0.73811(10) 0.44446(11) 0.43337(10)
C65_3 C 0.69446(11) 0.48811(10) 0.31663(10)
C68_3 C 0.99780(11) 0.1250 0.25220(11)
C70_3 C 0.74780(11) 0.49780(11) 0.3750
H42_3 H 0.8971 0.2482 0.5201
H45_3 H 0.9799 0.3971 0.2482
H46_3 H 0.9982 0.3529 0.2299
H51_3 H 0.7701 0.5018 0.3529
H52_3 H 0.7518 0.5201 0.3971
C71_3 C 0.69870(12) 0.27503(13) 0.40695(12)
C76_3 C 0.90695(12) 0.30130(12) 0.27503(13)
C80_3 C 0.65695(12) 0.47497(13) 0.55130(12)
C81_3 C 0.72497(13) 0.40695(12) 0.19870(12)
H53_3 H 0.6962 0.3048 0.4018
H58_3 H 0.9018 0.3038 0.3048
H62_3 H 0.6518 0.4452 0.5538
H63_3 H 0.6952 0.4018 0.1962
C82_3 C 0.66921(14) 0.24671(15) 0.38969(14)
C86_3 C 0.99671(15) 0.58079(14) 0.36031(14)
C87_3 C 0.88969(14) 0.33079(14) 0.24671(15)
C91_3 C 0.63969(14) 0.50329(15) 0.58079(14)
C92_3 C 0.75329(15) 0.38969(14) 0.16921(14)
H64_3 H 0.6463 0.2571 0.3727
H69_3 H 0.8727 0.3537 0.2571
H73_3 H 0.6227 0.4929 0.6037
H74_3 H 0.7429 0.3727 0.1463
C93_3 C 0.67326(13) 0.20334(14) 0.39739(14)
C97_3 C 0.95334(14) 0.57674(13) 0.35261(14)
C98_3 C 0.89739(14) 0.32674(13) 0.20334(14)
C102_3 C 0.64739(14) 0.54666(14) 0.57674(13)
C103_3 C 0.79666(14) 0.39739(14) 0.17326(13)
H75_3 H 0.6531 0.1840 0.3856
H79_3 H 0.9340 0.5969 0.3644
H80_3 H 0.8856 0.3469 0.1840
H84_3 H 0.6356 0.5660 0.5969
H85_3 H 0.8160 0.3856 0.1531
C104_3 C 0.70632(14) 0.18802(14) 0.42201(14)
C108_3 C 0.93802(14) 0.54368(14) 0.32799(14)
C109_3 C 0.92201(14) 0.29368(14) 0.18802(14)
C113_3 C 0.67201(14) 0.56198(14) 0.54368(14)
C114_3 C 0.81198(14) 0.42201(14) 0.20632(14)
H86_3 H 0.7089 0.1582 0.4268
H90_3 H 0.9082 0.5411 0.3232
H91_3 H 0.9268 0.2911 0.1582
H95_3 H 0.6768 0.5918 0.5411
H96_3 H 0.8418 0.4268 0.2089
C28_3 C 0.99071(11) 0.98179(11) 0.31814(11)
C77_3 C 0.97497(13) 0.94870(12) 0.34305(12)
H59_3 H 0.9452 0.9462 0.3482
H70_3 H 0.9929 0.8963 0.3773
C28_4 C 0.50929(11) 0.01821(11) 0.81814(11)
C39_4 C 0.46550(12) 0.01426(12) 0.81017(12)
C77_4 C 0.52503(13) 0.05130(12) 0.84305(12)
H59_4 H 0.5548 0.0538 0.8482
C88_4 C 0.49671(15) 0.08079(14) 0.86031(14)
H70_4 H 0.5071 0.1037 0.8773
C99_4 C 0.45334(14) 0.07674(13) 0.85261(14)
H81_4 H 0.4340 0.0969 0.8644
C110_4 C 0.43802(14) 0.04368(14) 0.82799(14)
H92_4 H 0.4082 0.0411 0.8232
C3_4 C 0.48574(12) 0.68983(12) 0.03450(12)
H2_4 H 0.5083 0.7072 0.0451
H4_4 H 0.6471 0.7701 0.0018
C8_4 C 0.41921(14) 0.63969(14) 0.00329(15)
C9_4 C 0.42326(13) 0.64739(14) 0.04666(14)
H7_4 H 0.4031 0.6356 0.0660
C10_4 C 0.45632(14) 0.67201(14) 0.06198(14)
H8_4 H 0.4589 0.6768 0.0918
C11_4 C 0.62728(12) 0.67098(12) 0.02316(12)
H9_4 H 0.6000 0.6689 0.0362
C31_4 C 0.81814(11) 0.50929(11) 0.01821(11)
C42_4 C 0.81017(12) 0.46550(12) 0.01426(12)
N42_4 N 0.64428(9) 0.70605(9) 0.00271(9)
C44_4 C 0.65745(11) 0.63994(12) 0.02085(12)
H31_4 H 0.6547 0.6121 0.0326
H42_4 H 0.6029 0.7518 0.0201
C80_4 C 0.84305(12) 0.52503(13) 0.05130(12)
H62_4 H 0.8482 0.5548 0.0538
C91_4 C 0.86031(14) 0.49671(15) 0.08079(14)
H73_4 H 0.8773 0.5071 0.1037
C102_4 C 0.85261(14) 0.45334(14) 0.07674(13)
H84_4 H 0.8644 0.4340 0.0969
C113_4 C 0.82799(14) 0.43802(14) 0.04368(14)
H95_4 H 0.8232 0.4082 0.0411
N1_4 N 0.54239(9) 0.71695(8) 0.97497(9)
N2_4 N 0.50914(9) 0.70035(9) 0.95948(9)
N3_4 N 0.55757(9) 0.74907(9) 0.90457(9)
C1_4 C 0.62272(12) 0.77316(12) 0.92098(12)
H1_4 H 0.6500 0.7862 0.9189
C2_4 C 0.48179(11) 0.68186(11) 0.99071(11)
N4_4 N 0.60572(9) 0.75271(9) 0.95605(9)
C4_4 C 0.59255(11) 0.77085(12) 0.88994(12)
H3_4 H 0.5953 0.7826 0.8621
C5_4 C 0.56663(10) 0.73811(10) 0.94446(11)
C6_4 C 0.6250 0.74780(11) 0.99780(11)
C7_4 C 0.44870(12) 0.65695(12) 0.97497(13)
H5_4 H 0.4462 0.6518 0.9452
H6_4 H 0.3963 0.6227 0.9929
Zn7_6 Zn 0.8750 0.5000 0.7500
N5_4 N 0.70761(9) 0.72497(9) 0.96695(8)
N8_4 N 0.46695(8) 0.70761(9) 0.77503(9)
N9_4 N 0.47497(9) 0.54239(9) 0.78305(8)
N10_4 N 0.53305(8) 0.79239(9) 0.77503(9)
N11_4 N 0.52503(9) 0.95761(9) 0.78305(8)
N14_4 N 0.78305(8) 0.52503(9) 0.95761(9)
N15_4 N 0.77503(9) 0.53305(8) 0.79239(9)
N16_4 N 0.74086(9) 0.70948(9) 0.95035(9)
N19_4 N 0.45035(9) 0.74086(9) 0.79052(9)
N20_4 N 0.45948(9) 0.50914(9) 0.79965(9)
N21_4 N 0.54965(9) 0.75914(9) 0.79052(9)
N22_4 N 0.54052(9) 0.99086(9) 0.79965(9)
N25_4 N 0.79965(9) 0.54052(9) 0.99086(9)
N26_4 N 0.79052(9) 0.54965(9) 0.75914(9)
N30_4 N 0.49907(9) 0.69243(9) 0.84543(9)
N31_4 N 0.40457(9) 0.55757(9) 0.75093(9)
N32_4 N 0.50093(9) 0.80757(9) 0.84543(9)
N33_4 N 0.59543(9) 0.94243(9) 0.75093(9)
N37_4 N 0.84543(9) 0.50093(9) 0.80757(9)
C14_4 C 0.52316(12) 0.62728(12) 0.82902(12)
C15_4 C 0.42098(12) 0.62272(12) 0.72684(12)
C16_4 C 0.47684(12) 0.87272(12) 0.82902(12)
C17_4 C 0.57902(12) 0.87728(12) 0.72684(12)
C20_4 C 0.72684(12) 0.57902(12) 0.87728(12)
C21_4 C 0.82902(12) 0.47684(12) 0.87272(12)
H12_4 H 0.5362 0.6000 0.8311
H13_4 H 0.4189 0.6500 0.7138
H14_4 H 0.4638 0.9000 0.8311
H15_4 H 0.5811 0.8500 0.7138
H18_4 H 0.7138 0.5811 0.8500
H19_4 H 0.8311 0.4638 0.9000
C22_4 C 0.76821(11) 0.74071(11) 0.93186(11)
C25_4 C 0.43186(11) 0.76821(11) 0.75929(11)
C26_4 C 0.49071(11) 0.48179(11) 0.81814(11)
C27_4 C 0.56814(11) 0.73179(11) 0.75929(11)
C32_4 C 0.75929(11) 0.56814(11) 0.73179(11)
C33_4 C 0.76426(12) 0.78450(12) 0.93983(12)
C36_4 C 0.43983(12) 0.76426(12) 0.71550(12)
C37_4 C 0.53450(12) 0.48574(12) 0.81017(12)
C38_4 C 0.56017(12) 0.73574(12) 0.71550(12)
C43_4 C 0.71550(12) 0.56017(12) 0.73574(12)
H20_4 H 0.7417 0.7951 0.9572
H23_4 H 0.4572 0.7417 0.7049
H24_4 H 0.5451 0.5083 0.7928
H25_4 H 0.5428 0.7583 0.7049
H26_4 H 0.4549 0.9917 0.7928
H29_4 H 0.7928 0.4549 0.9917
H30_4 H 0.7049 0.5428 0.7583
N45_4 N 0.50271(9) 0.64428(9) 0.79395(9)
N46_4 N 0.45605(9) 0.60572(9) 0.74729(9)
N47_4 N 0.49729(9) 0.85572(9) 0.79395(9)
N48_4 N 0.54395(9) 0.89428(9) 0.74729(9)
N51_4 N 0.74729(9) 0.54395(9) 0.89428(9)
N52_4 N 0.79395(9) 0.49729(9) 0.85572(9)
C47_4 C 0.52085(12) 0.65745(11) 0.86006(12)
C48_4 C 0.38994(12) 0.59255(11) 0.72915(12)
C49_4 C 0.47915(12) 0.84255(11) 0.86006(12)
C50_4 C 0.61006(12) 0.90745(11) 0.72915(12)
C53_4 C 0.72915(12) 0.61006(12) 0.90745(11)
C54_4 C 0.86006(12) 0.47915(12) 0.84255(11)
H34_4 H 0.5326 0.6547 0.8879
H35_4 H 0.3621 0.5953 0.7174
H36_4 H 0.4674 0.8453 0.8879
H37_4 H 0.6379 0.9047 0.7174
H40_4 H 0.7174 0.6379 0.9047
H41_4 H 0.8879 0.4674 0.8453
C55_4 C 0.68337(10) 0.69446(11) 0.98811(10)
C58_4 C 0.48811(10) 0.68337(10) 0.80554(11)
C59_4 C 0.44446(11) 0.56663(10) 0.76189(10)
C60_4 C 0.51189(10) 0.81663(10) 0.80554(11)
C61_4 C 0.55554(11) 0.93337(10) 0.76189(10)
C64_4 C 0.76189(10) 0.55554(11) 0.93337(10)
C65_4 C 0.80554(11) 0.51189(10) 0.81663(10)
C67_4 C 0.49780(11) 0.6250 0.75220(11)
C68_4 C 0.50220(11) 0.8750 0.75220(11)
C70_4 C 0.75220(11) 0.50220(11) 0.8750
H45_4 H 0.5201 0.6029 0.7482
H46_4 H 0.5018 0.6471 0.7299
H47_4 H 0.4799 0.8971 0.7482
H48_4 H 0.4982 0.8529 0.7299
H51_4 H 0.7299 0.4982 0.8529
H52_4 H 0.7482 0.4799 0.8971
C71_4 C 0.80130(12) 0.72497(13) 0.90695(12)
C74_4 C 0.40695(12) 0.80130(12) 0.77503(13)
C75_4 C 0.47497(13) 0.44870(12) 0.84305(12)
C76_4 C 0.59305(12) 0.69870(12) 0.77503(13)
C81_4 C 0.77503(13) 0.59305(12) 0.69870(12)
H53_4 H 0.8038 0.6952 0.9018
H56_4 H 0.4018 0.8038 0.8048
H57_4 H 0.4452 0.4462 0.8482
H58_4 H 0.5982 0.6962 0.8048
H63_4 H 0.8048 0.5982 0.6962
C82_4 C 0.83079(14) 0.75329(15) 0.88969(14)
C85_4 C 0.38969(14) 0.83079(14) 0.74671(15)
C86_4 C 0.50329(15) 0.41921(14) 0.86031(14)
C87_4 C 0.61031(14) 0.66921(14) 0.74671(15)
C92_4 C 0.74671(15) 0.61031(14) 0.66921(14)
H64_4 H 0.8537 0.7429 0.8727
H67_4 H 0.3727 0.8537 0.7571
H68_4 H 0.4929 0.3963 0.8773
H69_4 H 0.6273 0.6463 0.7571
H74_4 H 0.7571 0.6273 0.6463
C93_4 C 0.82674(13) 0.79666(14) 0.89739(14)
C96_4 C 0.39739(14) 0.82674(13) 0.70334(14)
C97_4 C 0.54666(14) 0.42326(13) 0.85261(14)
C98_4 C 0.60261(14) 0.67326(13) 0.70334(14)
C103_4 C 0.70334(14) 0.60261(14) 0.67326(13)
H75_4 H 0.8469 0.8160 0.8856
H78_4 H 0.3856 0.8469 0.6840
H79_4 H 0.5660 0.4031 0.8644
H80_4 H 0.6144 0.6531 0.6840
H85_4 H 0.6840 0.6144 0.6531
C104_4 C 0.79368(14) 0.81198(14) 0.92201(14)
C107_4 C 0.42201(14) 0.79368(14) 0.68802(14)
C108_4 C 0.56198(14) 0.45632(14) 0.82799(14)
C109_4 C 0.57799(14) 0.70632(14) 0.68802(14)
C114_4 C 0.68802(14) 0.57799(14) 0.70632(14)
H86_4 H 0.7911 0.8418 0.9268
H89_4 H 0.4268 0.7911 0.6582
H90_4 H 0.5918 0.4589 0.8232
H91_4 H 0.5732 0.7089 0.6582
H96_4 H 0.6582 0.5732 0.7089
Zn7_7 Zn 0.2500 0.3750 0.0000
C21_5 C 0.12728(12) 0.32902(12) 0.02316(12)
H19_5 H 0.1000 0.3311 0.0362
C37_5 C 0.18983(12) 0.03450(12) 0.01426(12)
H29_5 H 0.0083 0.2928 0.0451
N52_5 N 0.14428(9) 0.29395(9) 0.00271(9)
C54_5 C 0.15745(11) 0.36006(12) 0.02085(12)
H41_5 H 0.1547 0.3879 0.0326
H51_5 H 0.1471 0.2299 0.0018
H52_5 H 0.1029 0.2482 0.0201
C86_5 C 0.13969(14) 0.00329(15) 0.08079(14)
C97_5 C 0.14739(14) 0.04666(14) 0.07674(13)
H79_5 H 0.1356 0.0660 0.0969
C108_5 C 0.17201(14) 0.06198(14) 0.04368(14)
H90_5 H 0.1768 0.0918 0.0411
N1_5 N 0.02503(9) 0.04239(9) 0.78305(8)
N2_5 N 0.04052(9) 0.00914(9) 0.79965(9)
N3_5 N 0.09543(9) 0.05757(9) 0.75093(9)
C1_5 C 0.07902(12) 0.12272(12) 0.72684(12)
H1_5 H 0.0811 0.1500 0.7138
N4_5 N 0.04395(9) 0.10572(9) 0.74729(9)
C4_5 C 0.11006(12) 0.09255(11) 0.72915(12)
H3_5 H 0.1379 0.0953 0.7174
C5_5 C 0.05554(11) 0.06663(10) 0.76189(10)
C6_5 C 0.00220(11) 0.1250 0.75220(11)
Zn2_4 Zn 0.0000 0.2500 0.8750
Zn7_8 Zn 0.2500 0.3750 1.0000
N5_5 N 0.03305(8) 0.20761(9) 0.77503(9)
N14_5 N 0.04239(9) 0.28305(8) 0.97497(9)
N15_5 N 0.20761(9) 0.27503(9) 0.96695(8)
N16_5 N 0.04965(9) 0.24086(9) 0.79052(9)
N25_5 N 0.00914(9) 0.29965(9) 0.95948(9)
N26_5 N 0.24086(9) 0.29052(9) 0.95035(9)
N27_3 N 0.00093(9) 0.19243(9) 0.84543(9)
N36_3 N 0.05757(9) 0.25093(9) 0.90457(9)
N37_5 N 0.19243(9) 0.34543(9) 0.99907(9)
C14_5 C 0.17098(12) 0.02316(12) 0.87272(12)
C18_3 C 0.02316(12) 0.37272(12) 0.82902(12)
C20_5 C 0.12272(12) 0.22684(12) 0.92098(12)
H12_5 H 0.1689 0.0362 0.9000
H16_3 H 0.0362 0.4000 0.8311
H18_5 H 0.1500 0.2138 0.9189
C22_5 C 0.06814(11) 0.26821(11) 0.75929(11)
C23_3 C 0.00929(11) 0.01821(11) 0.68186(11)
C32_5 C 0.26821(11) 0.25929(11) 0.93186(11)
C33_5 C 0.06017(12) 0.26426(12) 0.71550(12)
C41_3 C 0.03450(12) 0.51426(12) 0.81017(12)
C43_5 C 0.26426(12) 0.21550(12) 0.93983(12)
H20_5 H 0.0428 0.2417 0.7049
H24_5 H 0.2072 0.0451 0.9917
H28_3 H 0.0451 0.4917 0.7928
H30_5 H 0.2417 0.2049 0.9572
N45_5 N 0.20605(9) 0.00271(9) 0.85572(9)
N49_3 N 0.00271(9) 0.35572(9) 0.79395(9)
N51_5 N 0.10572(9) 0.24729(9) 0.95605(9)
C47_5 C 0.13994(12) 0.02085(12) 0.84255(11)
C51_3 C 0.02085(12) 0.34255(11) 0.86006(12)
C53_5 C 0.09255(11) 0.22915(12) 0.88994(12)
H34_5 H 0.1121 0.0326 0.8453
H38_3 H 0.0326 0.3453 0.8879
H40_5 H 0.0953 0.2174 0.8621
C55_5 C 0.01189(10) 0.18337(10) 0.80554(11)
C64_5 C 0.06663(10) 0.26189(10) 0.94446(11)
C65_5 C 0.18337(10) 0.30554(11) 0.98811(10)
C70_5 C 0.1250 0.25220(11) 0.99780(11)
H45_5 H 0.2518 0.0201 0.8971
H46_5 H 0.2701 0.0018 0.8529
H49_3 H 0.0201 0.3971 0.7482
H50_3 H 0.0018 0.3529 0.7299
C71_5 C 0.09305(12) 0.30130(12) 0.77503(13)
C72_3 C 0.02503(13) 0.05130(12) 0.65695(12)
C81_5 C 0.30130(12) 0.27503(13) 0.90695(12)
H53_5 H 0.0982 0.3038 0.8048
H54_3 H 0.0548 0.0538 0.6518
H63_5 H 0.3038 0.3048 0.9018
C82_5 C 0.11031(14) 0.33079(14) 0.74671(15)
C90_3 C 0.00329(15) 0.58079(14) 0.86031(14)
C92_5 C 0.33079(14) 0.24671(15) 0.88969(14)
H64_5 H 0.1273 0.3537 0.7571
H65_3 H 0.0071 0.1037 0.6227
H74_5 H 0.3537 0.2571 0.8727
C93_5 C 0.10261(14) 0.32674(13) 0.70334(14)
C101_3 C 0.04666(14) 0.57674(13) 0.85261(14)
C103_5 C 0.32674(13) 0.20334(14) 0.89739(14)
H75_5 H 0.1144 0.3469 0.6840
H83_3 H 0.0660 0.5969 0.8644
H85_5 H 0.3469 0.1840 0.8856
C104_5 C 0.07799(14) 0.29368(14) 0.68802(14)
C112_3 C 0.06198(14) 0.54368(14) 0.82799(14)
C114_5 C 0.29368(14) 0.18802(14) 0.92201(14)
H86_5 H 0.0732 0.2911 0.6582
H94_3 H 0.0918 0.5411 0.8232
H96_5 H 0.2911 0.1582 0.9268
C26_5 C 0.18186(11) 0.99071(11) 0.01821(11)
C75_5 C 0.15695(12) 0.97497(13) 0.05130(12)
H57_5 H 0.1518 0.9452 0.0538
H68_5 H 0.1227 0.9929 0.1037
C2_5 C 0.00929(11) 0.98179(11) 0.81814(11)
C7_5 C 0.02503(13) 0.94870(12) 0.84305(12)
H5_5 H 0.0548 0.9462 0.8482
H6_5 H 0.0071 0.8963 0.8773
Zn3_4 Zn 0.0000 0.7500 0.6250
N6_3 N 0.02503(9) 0.95761(9) 0.71695(8)
N7_3 N 0.03305(8) 0.79239(9) 0.72497(9)
N8_5 N 0.22497(9) 0.96695(8) 0.79239(9)
N9_5 N 0.21695(8) 0.97497(9) 0.95761(9)
N17_3 N 0.04052(9) 0.99086(9) 0.70035(9)
N18_3 N 0.04965(9) 0.75914(9) 0.70948(9)
N19_5 N 0.20948(9) 0.95035(9) 0.75914(9)
N20_5 N 0.20035(9) 0.95948(9) 0.99086(9)
N28_3 N 0.09543(9) 0.94243(9) 0.74907(9)
N29_3 N 0.00093(9) 0.80757(9) 0.65457(9)
N30_5 N 0.15457(9) 0.99907(9) 0.80757(9)
N40_3 N 0.05757(9) 0.74907(9) 0.59543(9)
C12_3 C 0.07902(12) 0.87728(12) 0.77316(12)
C15_5 C 0.27316(12) 0.92098(12) 0.87728(12)
H10_3 H 0.0811 0.8500 0.7862
H13_5 H 0.2862 0.9189 0.8500
C24_3 C 0.06814(11) 0.73179(11) 0.74071(11)
C25_5 C 0.24071(11) 0.93186(11) 0.73179(11)
C35_3 C 0.06017(12) 0.73574(12) 0.78450(12)
C36_5 C 0.28450(12) 0.93983(12) 0.73574(12)
H22_3 H 0.0428 0.7583 0.7951
H23_5 H 0.2951 0.9572 0.7583
N43_3 N 0.04395(9) 0.89428(9) 0.75271(9)
N46_5 N 0.25271(9) 0.95605(9) 0.89428(9)
C45_3 C 0.11006(12) 0.90745(11) 0.77085(12)
C48_5 C 0.27085(12) 0.88994(12) 0.90745(11)
H32_3 H 0.1379 0.9047 0.7826
H35_5 H 0.2826 0.8621 0.9047
C56_3 C 0.05554(11) 0.93337(10) 0.73811(10)
C57_3 C 0.01189(10) 0.81663(10) 0.69446(11)
C58_5 C 0.19446(11) 0.98811(10) 0.81663(10)
C59_5 C 0.23811(10) 0.94446(11) 0.93337(10)
C66_3 C 0.00220(11) 0.8750 0.74780(11)
C67_5 C 0.24780(11) 0.99780(11) 0.8750
C73_3 C 0.09305(12) 0.69870(12) 0.72497(13)
C74_5 C 0.22497(13) 0.90695(12) 0.69870(12)
H55_3 H 0.0982 0.6962 0.6952
H56_5 H 0.1952 0.9018 0.6962
C84_3 C 0.11031(14) 0.66921(14) 0.75329(15)
C85_5 C 0.25329(15) 0.88969(14) 0.66921(14)
H66_3 H 0.1273 0.6463 0.7429
H67_5 H 0.2429 0.8727 0.6463
C95_3 C 0.10261(14) 0.67326(13) 0.79666(14)
C96_5 C 0.29666(14) 0.89739(14) 0.67326(13)
H77_3 H 0.1144 0.6531 0.8160
H78_5 H 0.3160 0.8856 0.6531
C106_3 C 0.07799(14) 0.70632(14) 0.81198(14)
C107_5 C 0.31198(14) 0.92201(14) 0.70632(14)
H88_3 H 0.0732 0.7089 0.8418
H89_5 H 0.3418 0.9268 0.7089
C42_5 C 0.98574(12) 0.31017(12) 0.03450(12)
C91_5 C 0.91921(14) 0.36031(14) 0.00329(15)
C102_5 C 0.92326(13) 0.35261(14) 0.04666(14)
H84_5 H 0.9031 0.3644 0.0660
C113_5 C 0.95632(14) 0.32799(14) 0.06198(14)
H95_5 H 0.9589 0.3232 0.0918
H2_5 H 0.9549 0.0083 0.7928
H4_5 H 0.9982 0.1471 0.7299
Zn2_5 Zn 1.0000 0.2500 0.8750
N12_3 N 0.96695(8) 0.29239(9) 0.77503(9)
N13_3 N 0.97497(9) 0.45761(9) 0.78305(8)
N23_3 N 0.95035(9) 0.25914(9) 0.79052(9)
N24_3 N 0.95948(9) 0.49086(9) 0.79965(9)
N34_3 N 0.99907(9) 0.30757(9) 0.84543(9)
N35_3 N 0.90457(9) 0.44243(9) 0.75093(9)
N38_3 N 0.94243(9) 0.24907(9) 0.90457(9)
C11_5 C 0.97684(12) 0.12728(12) 0.82902(12)
C19_3 C 0.92098(12) 0.37728(12) 0.72684(12)
H9_5 H 0.9638 0.1000 0.8311
H17_3 H 0.9189 0.3500 0.7138
C29_3 C 0.93186(11) 0.23179(11) 0.75929(11)
C30_3 C 0.99071(11) 0.51821(11) 0.81814(11)
C31_5 C 0.98179(11) 0.31814(11) 0.99071(11)
C34_3 C 0.96550(12) 0.01426(12) 0.68983(12)
C40_3 C 0.93983(12) 0.23574(12) 0.71550(12)
H27_3 H 0.9572 0.2583 0.7049
N42_5 N 0.99729(9) 0.14428(9) 0.79395(9)
N50_3 N 0.95605(9) 0.39428(9) 0.74729(9)
C44_5 C 0.97915(12) 0.15745(11) 0.86006(12)
C52_3 C 0.88994(12) 0.40745(11) 0.72915(12)
H31_5 H 0.9674 0.1547 0.8879
H39_3 H 0.8621 0.4047 0.7174
C62_3 C 0.98811(10) 0.31663(10) 0.80554(11)
C63_3 C 0.94446(11) 0.43337(10) 0.76189(10)
C69_3 C 0.99780(11) 0.3750 0.75220(11)
H42_5 H 0.9799 0.1029 0.7482
C78_3 C 0.90695(12) 0.19870(12) 0.77503(13)
C79_3 C 0.97497(13) 0.55130(12) 0.84305(12)
C80_5 C 0.94870(12) 0.34305(12) 0.97497(13)
H60_3 H 0.9018 0.1962 0.8048
H61_3 H 0.9452 0.5538 0.8482
H62_5 H 0.9462 0.3482 0.9452
C83_3 C 0.99671(15) 0.08079(14) 0.63969(14)
C89_3 C 0.88969(14) 0.16921(14) 0.74671(15)
H71_3 H 0.8727 0.1463 0.7571
H72_3 H 0.9929 0.6037 0.8773
H73_5 H 0.8963 0.3773 0.9929
C94_3 C 0.95334(14) 0.07674(13) 0.64739(14)
C100_3 C 0.89739(14) 0.17326(13) 0.70334(14)
H76_3 H 0.9340 0.0969 0.6356
H82_3 H 0.8856 0.1531 0.6840
C105_3 C 0.93802(14) 0.04368(14) 0.67201(14)
C111_3 C 0.92201(14) 0.20632(14) 0.68802(14)
H87_3 H 0.9082 0.0411 0.6768
H93_3 H 0.9268 0.2089 0.6582
C3_5 C 0.96550(12) 0.98574(12) 0.81017(12)
C8_5 C 0.99671(15) 0.91921(14) 0.86031(14)
C9_5 C 0.95334(14) 0.92326(13) 0.85261(14)
H7_5 H 0.9340 0.9031 0.8644
C10_5 C 0.93802(14) 0.95632(14) 0.82799(14)
H8_5 H 0.9082 0.9589 0.8232
Zn3_5 Zn 1.0000 0.7500 0.6250
N39_3 N 0.99907(9) 0.69243(9) 0.65457(9)
N41_3 N 0.94243(9) 0.75093(9) 0.59543(9)
C13_3 C 0.97684(12) 0.87272(12) 0.67098(12)
H11_3 H 0.9638 0.9000 0.6689
H21_3 H 0.9549 0.9917 0.7072
N44_3 N 0.99729(9) 0.85572(9) 0.70605(9)
C46_3 C 0.97915(12) 0.84255(11) 0.63994(12)
H33_3 H 0.9674 0.8453 0.6121
H43_3 H 0.9982 0.8529 0.7701
H44_3 H 0.9799 0.8971 0.7518
N1_6 N 0.52503(9) 0.45761(9) 0.21695(8)
N2_6 N 0.54052(9) 0.49086(9) 0.20035(9)
N3_6 N 0.59543(9) 0.44243(9) 0.24907(9)
C1_6 C 0.57902(12) 0.37728(12) 0.27316(12)
H1_6 H 0.5811 0.3500 0.2862
C2_6 C 0.50929(11) 0.51821(11) 0.18186(11)
C3_6 C 0.46550(12) 0.51426(12) 0.18983(12)
H2_6 H 0.4549 0.4917 0.2072
N4_6 N 0.54395(9) 0.39428(9) 0.25271(9)
C4_6 C 0.61006(12) 0.40745(11) 0.27085(12)
H3_6 H 0.6379 0.4047 0.2826
C5_6 C 0.55554(11) 0.43337(10) 0.23811(10)
C6_6 C 0.50220(11) 0.3750 0.24780(11)
H4_6 H 0.4982 0.3529 0.2701
C7_6 C 0.52503(13) 0.55130(12) 0.15695(12)
H5_6 H 0.5548 0.5538 0.1518
C8_6 C 0.49671(15) 0.58079(14) 0.13969(14)
H6_6 H 0.5071 0.6037 0.1227
C9_6 C 0.45334(14) 0.57674(13) 0.14739(14)
H7_6 H 0.4340 0.5969 0.1356
C10_6 C 0.43802(14) 0.54368(14) 0.17201(14)
H8_6 H 0.4082 0.5411 0.1768
Zn2_6 Zn 0.5000 0.2500 0.1250
Zn3_6 Zn 0.5000 0.7500 0.3750
Zn7_9 Zn 0.7500 0.1250 0.0000
N5_6 N 0.53305(8) 0.29239(9) 0.22497(9)
N6_4 N 0.52503(9) 0.54239(9) 0.28305(8)
N7_4 N 0.53305(8) 0.70761(9) 0.27503(9)
N8_6 N 0.72497(9) 0.53305(8) 0.20761(9)
N9_6 N 0.71695(8) 0.52503(9) 0.04239(9)
N12_4 N 0.46695(8) 0.20761(9) 0.22497(9)
N13_4 N 0.47497(9) 0.04239(9) 0.21695(8)
N14_6 N 0.54239(9) 0.21695(8) 0.02503(9)
N15_6 N 0.70761(9) 0.22497(9) 0.03305(8)
N16_6 N 0.54965(9) 0.25914(9) 0.20948(9)
N17_4 N 0.54052(9) 0.50914(9) 0.29965(9)
N18_4 N 0.54965(9) 0.74086(9) 0.29052(9)
N19_6 N 0.70948(9) 0.54965(9) 0.24086(9)
N20_6 N 0.70035(9) 0.54052(9) 0.00914(9)
N23_4 N 0.45035(9) 0.24086(9) 0.20948(9)
N24_4 N 0.45948(9) 0.00914(9) 0.20035(9)
N25_6 N 0.50914(9) 0.20035(9) 0.04052(9)
N26_6 N 0.74086(9) 0.20948(9) 0.04965(9)
N27_4 N 0.50093(9) 0.30757(9) 0.15457(9)
N28_4 N 0.59543(9) 0.55757(9) 0.25093(9)
N29_4 N 0.50093(9) 0.69243(9) 0.34543(9)
N30_6 N 0.65457(9) 0.50093(9) 0.19243(9)
N34_4 N 0.49907(9) 0.19243(9) 0.15457(9)
N35_4 N 0.40457(9) 0.05757(9) 0.24907(9)
N36_4 N 0.55757(9) 0.24907(9) 0.09543(9)
N37_6 N 0.69243(9) 0.15457(9) 0.00093(9)
N38_4 N 0.44243(9) 0.25093(9) 0.09543(9)
N39_4 N 0.49907(9) 0.80757(9) 0.34543(9)
N40_4 N 0.55757(9) 0.75093(9) 0.40457(9)
N41_4 N 0.44243(9) 0.74907(9) 0.40457(9)
C11_6 C 0.47684(12) 0.37272(12) 0.17098(12)
C12_4 C 0.57902(12) 0.62272(12) 0.22684(12)
C13_4 C 0.47684(12) 0.62728(12) 0.32902(12)
C14_6 C 0.67098(12) 0.47684(12) 0.12728(12)
C15_6 C 0.77316(12) 0.57902(12) 0.12272(12)
C18_4 C 0.52316(12) 0.12728(12) 0.17098(12)
C19_4 C 0.42098(12) 0.12272(12) 0.27316(12)
C20_6 C 0.62272(12) 0.27316(12) 0.07902(12)
H9_6 H 0.4638 0.4000 0.1689
H10_4 H 0.5811 0.6500 0.2138
H11_4 H 0.4638 0.6000 0.3311
H12_6 H 0.6689 0.4638 0.1000
H13_6 H 0.7862 0.5811 0.1500
H16_4 H 0.5362 0.1000 0.1689
H17_4 H 0.4189 0.1500 0.2862
H18_6 H 0.6500 0.2862 0.0811
C22_6 C 0.56814(11) 0.23179(11) 0.24071(11)
C23_4 C 0.50929(11) 0.48179(11) 0.31814(11)
C24_4 C 0.56814(11) 0.76821(11) 0.25929(11)
C25_6 C 0.74071(11) 0.56814(11) 0.26821(11)
C29_4 C 0.43186(11) 0.26821(11) 0.24071(11)
C31_6 C 0.48179(11) 0.18186(11) 0.00929(11)
C32_6 C 0.76821(11) 0.24071(11) 0.06814(11)
C33_6 C 0.56017(12) 0.23574(12) 0.28450(12)
C34_4 C 0.46550(12) 0.48574(12) 0.31017(12)
C35_4 C 0.56017(12) 0.76426(12) 0.21550(12)
C36_6 C 0.78450(12) 0.56017(12) 0.26426(12)
C40_4 C 0.43983(12) 0.26426(12) 0.28450(12)
C43_6 C 0.76426(12) 0.28450(12) 0.06017(12)
H20_6 H 0.5428 0.2583 0.2951
H21_4 H 0.4549 0.5083 0.2928
H22_4 H 0.5428 0.7417 0.2049
H23_6 H 0.7951 0.5428 0.2417
H24_6 H 0.7072 0.4549 0.0083
H27_4 H 0.4572 0.2417 0.2951
H28_4 H 0.5451 0.0083 0.2072
H30_6 H 0.7417 0.2951 0.0428
N42_6 N 0.49729(9) 0.35572(9) 0.20605(9)
N43_4 N 0.54395(9) 0.60572(9) 0.24729(9)
N44_4 N 0.49729(9) 0.64428(9) 0.29395(9)
N45_6 N 0.70605(9) 0.49729(9) 0.14428(9)
N46_6 N 0.75271(9) 0.54395(9) 0.10572(9)
N49_4 N 0.50271(9) 0.14428(9) 0.20605(9)
N50_4 N 0.45605(9) 0.10572(9) 0.25271(9)
N51_6 N 0.60572(9) 0.25271(9) 0.04395(9)
C44_6 C 0.47915(12) 0.34255(11) 0.13994(12)
C45_4 C 0.61006(12) 0.59255(11) 0.22915(12)
C46_4 C 0.47915(12) 0.65745(11) 0.36006(12)
C47_6 C 0.63994(12) 0.47915(12) 0.15745(11)
C48_6 C 0.77085(12) 0.61006(12) 0.09255(11)
C51_4 C 0.52085(12) 0.15745(11) 0.13994(12)
C52_4 C 0.38994(12) 0.09255(11) 0.27085(12)
C53_6 C 0.59255(11) 0.27085(12) 0.11006(12)
H31_6 H 0.4674 0.3453 0.1121
H32_4 H 0.6379 0.5953 0.2174
H33_4 H 0.4674 0.6547 0.3879
H34_6 H 0.6121 0.4674 0.1547
H35_6 H 0.7826 0.6379 0.0953
H38_4 H 0.5326 0.1547 0.1121
H39_4 H 0.3621 0.0953 0.2826
H40_6 H 0.5953 0.2826 0.1379
C55_6 C 0.51189(10) 0.31663(10) 0.19446(11)
C56_4 C 0.55554(11) 0.56663(10) 0.26189(10)
C57_4 C 0.51189(10) 0.68337(10) 0.30554(11)
C58_6 C 0.69446(11) 0.51189(10) 0.18337(10)
C59_6 C 0.73811(10) 0.55554(11) 0.06663(10)
C62_4 C 0.48811(10) 0.18337(10) 0.19446(11)
C63_4 C 0.44446(11) 0.06663(10) 0.23811(10)
C64_6 C 0.56663(10) 0.23811(10) 0.05554(11)
C65_6 C 0.68337(10) 0.19446(11) 0.01189(10)
C66_4 C 0.50220(11) 0.6250 0.25220(11)
C67_6 C 0.74780(11) 0.50220(11) 0.1250
C69_4 C 0.49780(11) 0.1250 0.24780(11)
C70_6 C 0.6250 0.24780(11) 0.00220(11)
H42_6 H 0.4799 0.3971 0.2518
H43_4 H 0.4982 0.6471 0.2299
H44_4 H 0.4799 0.6029 0.2482
H45_6 H 0.7518 0.4799 0.1029
H46_6 H 0.7701 0.4982 0.1471
H49_4 H 0.5201 0.1029 0.2518
H50_4 H 0.5018 0.1471 0.2701
C71_6 C 0.59305(12) 0.19870(12) 0.22497(13)
C72_4 C 0.52503(13) 0.44870(12) 0.34305(12)
C73_4 C 0.59305(12) 0.80130(12) 0.27503(13)
C74_6 C 0.72497(13) 0.59305(12) 0.30130(12)
C78_4 C 0.40695(12) 0.30130(12) 0.22497(13)
C80_6 C 0.44870(12) 0.15695(12) 0.02503(13)
C81_6 C 0.80130(12) 0.22497(13) 0.09305(12)
H53_6 H 0.5982 0.1962 0.1952
H54_4 H 0.5548 0.4462 0.3482
H55_4 H 0.5982 0.8038 0.3048
H56_6 H 0.6952 0.5982 0.3038
H60_4 H 0.4018 0.3038 0.1952
H62_6 H 0.4462 0.1518 0.0548
H63_6 H 0.8038 0.1952 0.0982
C82_6 C 0.61031(14) 0.16921(14) 0.25329(15)
C83_4 C 0.49671(15) 0.41921(14) 0.36031(14)
C84_4 C 0.61031(14) 0.83079(14) 0.24671(15)
C85_6 C 0.75329(15) 0.61031(14) 0.33079(14)
C89_4 C 0.38969(14) 0.33079(14) 0.25329(15)
C92_6 C 0.83079(14) 0.25329(15) 0.11031(14)
H64_6 H 0.6273 0.1463 0.2429
H65_4 H 0.5071 0.3963 0.3773
H66_4 H 0.6273 0.8537 0.2571
H67_6 H 0.7429 0.6273 0.3537
H71_4 H 0.3727 0.3537 0.2429
H73_6 H 0.3963 0.1227 0.0071
H74_6 H 0.8537 0.2429 0.1273
C93_6 C 0.60261(14) 0.17326(13) 0.29666(14)
C94_4 C 0.45334(14) 0.42326(13) 0.35261(14)
C95_4 C 0.60261(14) 0.82674(13) 0.20334(14)
C96_6 C 0.79666(14) 0.60261(14) 0.32674(13)
C100_4 C 0.39739(14) 0.32674(13) 0.29666(14)
C103_6 C 0.82674(13) 0.29666(14) 0.10261(14)
H75_6 H 0.6144 0.1531 0.3160
H76_4 H 0.4340 0.4031 0.3644
H77_4 H 0.6144 0.8469 0.1840
H78_6 H 0.8160 0.6144 0.3469
H82_4 H 0.3856 0.3469 0.3160
H85_6 H 0.8469 0.3160 0.1144
C104_6 C 0.57799(14) 0.20632(14) 0.31198(14)
C105_4 C 0.43802(14) 0.45632(14) 0.32799(14)
C106_4 C 0.57799(14) 0.79368(14) 0.18802(14)
C107_6 C 0.81198(14) 0.57799(14) 0.29368(14)
C111_4 C 0.42201(14) 0.29368(14) 0.31198(14)
C114_6 C 0.79368(14) 0.31198(14) 0.07799(14)
H86_6 H 0.5732 0.2089 0.3418
H87_4 H 0.4082 0.4589 0.3232
H88_4 H 0.5732 0.7911 0.1582
H89_6 H 0.8418 0.5732 0.2911
H93_4 H 0.4268 0.2911 0.3418
H96_6 H 0.7911 0.3418 0.0732
Zn7_10 Zn 0.7500 0.1250 1.0000
C21_6 C 0.62728(12) 0.17098(12) 0.97684(12)
H19_6 H 0.6000 0.1689 0.9638
C26_6 C 0.68186(11) 0.50929(11) 0.98179(11)
C37_6 C 0.68983(12) 0.46550(12) 0.98574(12)
C42_6 C 0.48574(12) 0.18983(12) 0.96550(12)
H29_6 H 0.5083 0.2072 0.9549
N52_6 N 0.64428(9) 0.20605(9) 0.99729(9)
C54_6 C 0.65745(11) 0.13994(12) 0.97915(12)
H41_6 H 0.6547 0.1121 0.9674
H51_6 H 0.6471 0.2701 0.9982
H52_6 H 0.6029 0.2518 0.9799
C75_6 C 0.65695(12) 0.52503(13) 0.94870(12)
H57_6 H 0.6518 0.5548 0.9462
C86_6 C 0.63969(14) 0.49671(15) 0.91921(14)
C91_6 C 0.41921(14) 0.13969(14) 0.99671(15)
H68_6 H 0.6227 0.5071 0.8963
C97_6 C 0.64739(14) 0.45334(14) 0.92326(13)
C102_6 C 0.42326(13) 0.14739(14) 0.95334(14)
H79_6 H 0.6356 0.4340 0.9031
H84_6 H 0.4031 0.1356 0.9340
C108_6 C 0.67201(14) 0.43802(14) 0.95632(14)
C113_6 C 0.45632(14) 0.17201(14) 0.93802(14)
H90_6 H 0.6768 0.4082 0.9589
H95_6 H 0.4589 0.1768 0.9082
C30_4 C 0.49071(11) 0.98179(11) 0.18186(11)
C41_4 C 0.53450(12) 0.98574(12) 0.18983(12)
C79_4 C 0.47497(13) 0.94870(12) 0.15695(12)
H61_4 H 0.4452 0.9462 0.1518
C90_4 C 0.50329(15) 0.91921(14) 0.13969(14)
H72_4 H 0.4929 0.8963 0.1227
C101_4 C 0.54666(14) 0.92326(13) 0.14739(14)
H83_4 H 0.5660 0.9031 0.1356
C112_4 C 0.56198(14) 0.95632(14) 0.17201(14)
H94_4 H 0.5918 0.9589 0.1768
C2_7 C 0.49071(11) 0.01821(11) 0.31814(11)
C3_7 C 0.53450(12) 0.01426(12) 0.31017(12)
C7_7 C 0.47497(13) 0.05130(12) 0.34305(12)
H5_7 H 0.4452 0.0538 0.3482
C8_7 C 0.50329(15) 0.08079(14) 0.36031(14)
H6_7 H 0.4929 0.1037 0.3773
C9_7 C 0.54666(14) 0.07674(13) 0.35261(14)
H7_7 H 0.5660 0.0969 0.3644
C10_7 C 0.56198(14) 0.04368(14) 0.32799(14)
H8_7 H 0.5918 0.0411 0.3232
N8_7 N 0.27503(9) 0.03305(8) 0.29239(9)
N9_7 N 0.28305(8) 0.02503(9) 0.45761(9)
N19_7 N 0.29052(9) 0.04965(9) 0.25914(9)
N20_7 N 0.29965(9) 0.04052(9) 0.49086(9)
N30_7 N 0.34543(9) 0.00093(9) 0.30757(9)
C15_7 C 0.22684(12) 0.07902(12) 0.37728(12)
H13_7 H 0.2138 0.0811 0.3500
C25_7 C 0.25929(11) 0.06814(11) 0.23179(11)
C26_7 C 0.31814(11) 0.00929(11) 0.51821(11)
C36_7 C 0.21550(12) 0.06017(12) 0.23574(12)
H23_7 H 0.2049 0.0428 0.2583
N46_7 N 0.24729(9) 0.04395(9) 0.39428(9)
C48_7 C 0.22915(12) 0.11006(12) 0.40745(11)
H35_7 H 0.2174 0.1379 0.4047
C58_7 C 0.30554(11) 0.01189(10) 0.31663(10)
C59_7 C 0.26189(10) 0.05554(11) 0.43337(10)
C67_7 C 0.25220(11) 0.00220(11) 0.3750
C74_7 C 0.27503(13) 0.09305(12) 0.19870(12)
C75_7 C 0.34305(12) 0.02503(13) 0.55130(12)
H56_7 H 0.3048 0.0982 0.1962
H57_7 H 0.3482 0.0548 0.5538
C85_7 C 0.24671(15) 0.11031(14) 0.16921(14)
H67_7 H 0.2571 0.1273 0.1463
H68_7 H 0.3773 0.0071 0.6037
C96_7 C 0.20334(14) 0.10261(14) 0.17326(13)
H78_7 H 0.1840 0.1144 0.1531
C107_7 C 0.18802(14) 0.07799(14) 0.20632(14)
H89_7 H 0.1582 0.0732 0.2089
N1_7 N 0.47497(9) 0.95761(9) 0.28305(8)
N2_7 N 0.45948(9) 0.99086(9) 0.29965(9)
N3_7 N 0.40457(9) 0.94243(9) 0.25093(9)
C1_7 C 0.42098(12) 0.87728(12) 0.22684(12)
H1_7 H 0.4189 0.8500 0.2138
H2_7 H 0.5451 0.9917 0.2928
N4_7 N 0.45605(9) 0.89428(9) 0.24729(9)
C4_7 C 0.38994(12) 0.90745(11) 0.22915(12)
H3_7 H 0.3621 0.9047 0.2174
C5_7 C 0.44446(11) 0.93337(10) 0.26189(10)
C6_7 C 0.49780(11) 0.8750 0.25220(11)
H4_7 H 0.5018 0.8529 0.2299
Zn7_11 Zn 0.2500 0.6250 0.5000
N5_7 N 0.46695(8) 0.79239(9) 0.27503(9)
N14_7 N 0.45761(9) 0.71695(8) 0.47497(9)
N15_7 N 0.29239(9) 0.72497(9) 0.46695(8)
N16_7 N 0.45035(9) 0.75914(9) 0.29052(9)
N25_7 N 0.49086(9) 0.70035(9) 0.45948(9)
N26_7 N 0.25914(9) 0.70948(9) 0.45035(9)
N37_7 N 0.30757(9) 0.65457(9) 0.49907(9)
C11_7 C 0.52316(12) 0.87272(12) 0.32902(12)
C14_7 C 0.32902(12) 0.97684(12) 0.37272(12)
C20_7 C 0.37728(12) 0.77316(12) 0.42098(12)
C21_7 C 0.37272(12) 0.67098(12) 0.52316(12)
H9_7 H 0.5362 0.9000 0.3311
H12_7 H 0.3311 0.9638 0.4000
H18_7 H 0.3500 0.7862 0.4189
H19_7 H 0.4000 0.6689 0.5362
C22_7 C 0.43186(11) 0.73179(11) 0.25929(11)
C31_7 C 0.51821(11) 0.68186(11) 0.49071(11)
C32_7 C 0.23179(11) 0.74071(11) 0.43186(11)
C33_7 C 0.43983(12) 0.73574(12) 0.21550(12)
C37_7 C 0.31017(12) 0.96550(12) 0.51426(12)
C42_7 C 0.51426(12) 0.68983(12) 0.53450(12)
C43_7 C 0.23574(12) 0.78450(12) 0.43983(12)
H20_7 H 0.4572 0.7583 0.2049
H24_7 H 0.2928 0.9549 0.4917
H29_7 H 0.4917 0.7072 0.5451
H30_7 H 0.2583 0.7951 0.4572
N42_7 N 0.50271(9) 0.85572(9) 0.29395(9)
N45_7 N 0.29395(9) 0.99729(9) 0.35572(9)
N51_7 N 0.39428(9) 0.75271(9) 0.45605(9)
N52_7 N 0.35572(9) 0.70605(9) 0.50271(9)
C44_7 C 0.52085(12) 0.84255(11) 0.36006(12)
C47_7 C 0.36006(12) 0.97915(12) 0.34255(11)
C53_7 C 0.40745(11) 0.77085(12) 0.38994(12)
C54_7 C 0.34255(11) 0.63994(12) 0.52085(12)
H31_7 H 0.5326 0.8453 0.3879
H34_7 H 0.3879 0.9674 0.3453
H40_7 H 0.4047 0.7826 0.3621
H41_7 H 0.3453 0.6121 0.5326
C55_7 C 0.48811(10) 0.81663(10) 0.30554(11)
C64_7 C 0.43337(10) 0.73811(10) 0.44446(11)
C65_7 C 0.31663(10) 0.69446(11) 0.48811(10)
C70_7 C 0.3750 0.74780(11) 0.49780(11)
H42_7 H 0.5201 0.8971 0.2482
H45_7 H 0.2482 0.9799 0.3971
H46_7 H 0.2299 0.9982 0.3529
H51_7 H 0.3529 0.7701 0.5018
H52_7 H 0.3971 0.7518 0.5201
C71_7 C 0.40695(12) 0.69870(12) 0.27503(13)
C80_7 C 0.55130(12) 0.65695(12) 0.47497(13)
C81_7 C 0.19870(12) 0.72497(13) 0.40695(12)
H53_7 H 0.4018 0.6962 0.3048
H62_7 H 0.5538 0.6518 0.4452
H63_7 H 0.1962 0.6952 0.4018
C82_7 C 0.38969(14) 0.66921(14) 0.24671(15)
C86_7 C 0.36031(14) 0.99671(15) 0.58079(14)
C91_7 C 0.58079(14) 0.63969(14) 0.50329(15)
C92_7 C 0.16921(14) 0.75329(15) 0.38969(14)
H64_7 H 0.3727 0.6463 0.2571
H73_7 H 0.6037 0.6227 0.4929
H74_7 H 0.1463 0.7429 0.3727
C93_7 C 0.39739(14) 0.67326(13) 0.20334(14)
C97_7 C 0.35261(14) 0.95334(14) 0.57674(13)
C102_7 C 0.57674(13) 0.64739(14) 0.54666(14)
C103_7 C 0.17326(13) 0.79666(14) 0.39739(14)
H75_7 H 0.3856 0.6531 0.1840
H79_7 H 0.3644 0.9340 0.5969
H84_7 H 0.5969 0.6356 0.5660
H85_7 H 0.1531 0.8160 0.3856
C104_7 C 0.42201(14) 0.70632(14) 0.18802(14)
C108_7 C 0.32799(14) 0.93802(14) 0.54368(14)
C113_7 C 0.54368(14) 0.67201(14) 0.56198(14)
C114_7 C 0.20632(14) 0.81198(14) 0.42201(14)
H86_7 H 0.4268 0.7089 0.1582
H90_7 H 0.3232 0.9082 0.5411
H95_7 H 0.5411 0.6768 0.5918
H96_7 H 0.2089 0.8418 0.4268
C3_8 C 0.03450(12) 0.48574(12) 0.68983(12)
H2_8 H 0.0451 0.5083 0.7072
H4_8 H 0.0018 0.6471 0.7701
C8_8 C 0.00329(15) 0.41921(14) 0.63969(14)
C9_8 C 0.04666(14) 0.42326(13) 0.64739(14)
H7_8 H 0.0660 0.4031 0.6356
C10_8 C 0.06198(14) 0.45632(14) 0.67201(14)
H8_8 H 0.0918 0.4589 0.6768
C11_8 C 0.02316(12) 0.62728(12) 0.67098(12)
H9_8 H 0.0362 0.6000 0.6689
C31_8 C 0.01821(11) 0.81814(11) 0.50929(11)
C42_8 C 0.01426(12) 0.81017(12) 0.46550(12)
N42_8 N 0.00271(9) 0.64428(9) 0.70605(9)
C44_8 C 0.02085(12) 0.65745(11) 0.63994(12)
H31_8 H 0.0326 0.6547 0.6121
H42_8 H 0.0201 0.6029 0.7518
C80_8 C 0.05130(12) 0.84305(12) 0.52503(13)
H62_8 H 0.0538 0.8482 0.5548
C91_8 C 0.08079(14) 0.86031(14) 0.49671(15)
H73_8 H 0.1037 0.8773 0.5071
C102_8 C 0.07674(13) 0.85261(14) 0.45334(14)
H84_8 H 0.0969 0.8644 0.4340
C113_8 C 0.04368(14) 0.82799(14) 0.43802(14)
H95_8 H 0.0411 0.8232 0.4082
N1_8 N 0.97497(9) 0.54239(9) 0.71695(8)
N2_8 N 0.95948(9) 0.50914(9) 0.70035(9)
N3_8 N 0.90457(9) 0.55757(9) 0.74907(9)
C1_8 C 0.92098(12) 0.62272(12) 0.77316(12)
H1_8 H 0.9189 0.6500 0.7862
C2_8 C 0.99071(11) 0.48179(11) 0.68186(11)
N4_8 N 0.95605(9) 0.60572(9) 0.75271(9)
C4_8 C 0.88994(12) 0.59255(11) 0.77085(12)
H3_8 H 0.8621 0.5953 0.7826
C5_8 C 0.94446(11) 0.56663(10) 0.73811(10)
C6_8 C 0.99780(11) 0.6250 0.74780(11)
C7_8 C 0.97497(13) 0.44870(12) 0.65695(12)
H5_8 H 0.9452 0.4462 0.6518
H6_8 H 0.9929 0.3963 0.6227
Zn7_12 Zn 0.7500 0.8750 0.5000
N5_8 N 0.96695(8) 0.70761(9) 0.72497(9)
N8_8 N 0.77503(9) 0.46695(8) 0.70761(9)
N9_8 N 0.78305(8) 0.47497(9) 0.54239(9)
N14_8 N 0.95761(9) 0.78305(8) 0.52503(9)
N15_8 N 0.79239(9) 0.77503(9) 0.53305(8)
N16_8 N 0.95035(9) 0.74086(9) 0.70948(9)
N19_8 N 0.79052(9) 0.45035(9) 0.74086(9)
N20_8 N 0.79965(9) 0.45948(9) 0.50914(9)
N25_8 N 0.99086(9) 0.79965(9) 0.54052(9)
N26_8 N 0.75914(9) 0.79052(9) 0.54965(9)
N30_8 N 0.84543(9) 0.49907(9) 0.69243(9)
N37_8 N 0.80757(9) 0.84543(9) 0.50093(9)
C14_8 C 0.82902(12) 0.52316(12) 0.62728(12)
C15_8 C 0.72684(12) 0.42098(12) 0.62272(12)
C20_8 C 0.87728(12) 0.72684(12) 0.57902(12)
C21_8 C 0.87272(12) 0.82902(12) 0.47684(12)
H12_8 H 0.8311 0.5362 0.6000
H13_8 H 0.7138 0.4189 0.6500
H18_8 H 0.8500 0.7138 0.5811
H19_8 H 0.9000 0.8311 0.4638
C22_8 C 0.93186(11) 0.76821(11) 0.74071(11)
C25_8 C 0.75929(11) 0.43186(11) 0.76821(11)
C26_8 C 0.81814(11) 0.49071(11) 0.48179(11)
C32_8 C 0.73179(11) 0.75929(11) 0.56814(11)
C33_8 C 0.93983(12) 0.76426(12) 0.78450(12)
C36_8 C 0.71550(12) 0.43983(12) 0.76426(12)
C37_8 C 0.81017(12) 0.53450(12) 0.48574(12)
C43_8 C 0.73574(12) 0.71550(12) 0.56017(12)
H20_8 H 0.9572 0.7417 0.7951
H23_8 H 0.7049 0.4572 0.7417
H24_8 H 0.7928 0.5451 0.5083
H29_8 H 0.9917 0.7928 0.4549
H30_8 H 0.7583 0.7049 0.5428
N45_8 N 0.79395(9) 0.50271(9) 0.64428(9)
N46_8 N 0.74729(9) 0.45605(9) 0.60572(9)
N51_8 N 0.89428(9) 0.74729(9) 0.54395(9)
N52_8 N 0.85572(9) 0.79395(9) 0.49729(9)
C47_8 C 0.86006(12) 0.52085(12) 0.65745(11)
C48_8 C 0.72915(12) 0.38994(12) 0.59255(11)
C53_8 C 0.90745(11) 0.72915(12) 0.61006(12)
C54_8 C 0.84255(11) 0.86006(12) 0.47915(12)
H34_8 H 0.8879 0.5326 0.6547
H35_8 H 0.7174 0.3621 0.5953
H40_8 H 0.9047 0.7174 0.6379
H41_8 H 0.8453 0.8879 0.4674
C55_8 C 0.98811(10) 0.68337(10) 0.69446(11)
C58_8 C 0.80554(11) 0.48811(10) 0.68337(10)
C59_8 C 0.76189(10) 0.44446(11) 0.56663(10)
C64_8 C 0.93337(10) 0.76189(10) 0.55554(11)
C65_8 C 0.81663(10) 0.80554(11) 0.51189(10)
C67_8 C 0.75220(11) 0.49780(11) 0.6250
C70_8 C 0.8750 0.75220(11) 0.50220(11)
H45_8 H 0.7482 0.5201 0.6029
H46_8 H 0.7299 0.5018 0.6471
H51_8 H 0.8529 0.7299 0.4982
H52_8 H 0.8971 0.7482 0.4799
C71_8 C 0.90695(12) 0.80130(12) 0.72497(13)
C74_8 C 0.77503(13) 0.40695(12) 0.80130(12)
C75_8 C 0.84305(12) 0.47497(13) 0.44870(12)
C81_8 C 0.69870(12) 0.77503(13) 0.59305(12)
H53_8 H 0.9018 0.8038 0.6952
H56_8 H 0.8048 0.4018 0.8038
H57_8 H 0.8482 0.4452 0.4462
H63_8 H 0.6962 0.8048 0.5982
C82_8 C 0.88969(14) 0.83079(14) 0.75329(15)
C85_8 C 0.74671(15) 0.38969(14) 0.83079(14)
C86_8 C 0.86031(14) 0.50329(15) 0.41921(14)
C92_8 C 0.66921(14) 0.74671(15) 0.61031(14)
H64_8 H 0.8727 0.8537 0.7429
H67_8 H 0.7571 0.3727 0.8537
H68_8 H 0.8773 0.4929 0.3963
H74_8 H 0.6463 0.7571 0.6273
C93_8 C 0.89739(14) 0.82674(13) 0.79666(14)
C96_8 C 0.70334(14) 0.39739(14) 0.82674(13)
C97_8 C 0.85261(14) 0.54666(14) 0.42326(13)
C103_8 C 0.67326(13) 0.70334(14) 0.60261(14)
H75_8 H 0.8856 0.8469 0.8160
H78_8 H 0.6840 0.3856 0.8469
H79_8 H 0.8644 0.5660 0.4031
H85_8 H 0.6531 0.6840 0.6144
C104_8 C 0.92201(14) 0.79368(14) 0.81198(14)
C107_8 C 0.68802(14) 0.42201(14) 0.79368(14)
C108_8 C 0.82799(14) 0.56198(14) 0.45632(14)
C114_8 C 0.70632(14) 0.68802(14) 0.57799(14)
H86_8 H 0.9268 0.7911 0.8418
H89_8 H 0.6582 0.4268 0.7911
H90_8 H 0.8232 0.5918 0.4589
H96_8 H 0.7089 0.6582 0.5732
C37_9 C 0.01426(12) 0.18983(12) 0.03450(12)
C86_9 C 0.08079(14) 0.13969(14) 0.00329(15)
C97_9 C 0.07674(13) 0.14739(14) 0.04666(14)
H79_9 H 0.0969 0.1356 0.0660
C108_9 C 0.04368(14) 0.17201(14) 0.06198(14)
H90_9 H 0.0411 0.1768 0.0918
C26_9 C 0.01821(11) 0.18186(11) 0.99071(11)
C75_9 C 0.05130(12) 0.15695(12) 0.97497(13)
H57_9 H 0.0538 0.1518 0.9452
H68_9 H 0.1037 0.1227 0.9929
N1_9 N 0.78305(8) 0.02503(9) 0.04239(9)
N2_9 N 0.79965(9) 0.04052(9) 0.00914(9)
N3_9 N 0.75093(9) 0.09543(9) 0.05757(9)
C1_9 C 0.72684(12) 0.07902(12) 0.12272(12)
H1_9 H 0.7138 0.0811 0.1500
N4_9 N 0.74729(9) 0.04395(9) 0.10572(9)
C4_9 C 0.72915(12) 0.11006(12) 0.09255(11)
H3_9 H 0.7174 0.1379 0.0953
C5_9 C 0.76189(10) 0.05554(11) 0.06663(10)
C6_9 C 0.75220(11) 0.00220(11) 0.1250
N5_9 N 0.77503(9) 0.03305(8) 0.20761(9)
N16_9 N 0.79052(9) 0.04965(9) 0.24086(9)
N27_5 N 0.84543(9) 0.00093(9) 0.19243(9)
C14_9 C 0.87272(12) 0.17098(12) 0.02316(12)
C18_5 C 0.82902(12) 0.02316(12) 0.37272(12)
H12_9 H 0.9000 0.1689 0.0362
H16_5 H 0.8311 0.0362 0.4000
C22_9 C 0.75929(11) 0.06814(11) 0.26821(11)
C23_5 C 0.68186(11) 0.00929(11) 0.01821(11)
C33_9 C 0.71550(12) 0.06017(12) 0.26426(12)
C41_5 C 0.81017(12) 0.03450(12) 0.51426(12)
H20_9 H 0.7049 0.0428 0.2417
H24_9 H 0.9917 0.2072 0.0451
H28_5 H 0.7928 0.0451 0.4917
N45_9 N 0.85572(9) 0.20605(9) 0.00271(9)
N49_5 N 0.79395(9) 0.00271(9) 0.35572(9)
C47_9 C 0.84255(11) 0.13994(12) 0.02085(12)
C51_5 C 0.86006(12) 0.02085(12) 0.34255(11)
H34_9 H 0.8453 0.1121 0.0326
H38_5 H 0.8879 0.0326 0.3453
C55_9 C 0.80554(11) 0.01189(10) 0.18337(10)
H45_9 H 0.8971 0.2518 0.0201
H46_9 H 0.8529 0.2701 0.0018
H49_5 H 0.7482 0.0201 0.3971
H50_5 H 0.7299 0.0018 0.3529
C71_9 C 0.77503(13) 0.09305(12) 0.30130(12)
C72_5 C 0.65695(12) 0.02503(13) 0.05130(12)
H53_9 H 0.8048 0.0982 0.3038
H54_5 H 0.6518 0.0548 0.0538
C82_9 C 0.74671(15) 0.11031(14) 0.33079(14)
C90_5 C 0.86031(14) 0.00329(15) 0.58079(14)
H64_9 H 0.7571 0.1273 0.3537
H65_5 H 0.6227 0.0071 0.1037
C93_9 C 0.70334(14) 0.10261(14) 0.32674(13)
C101_5 C 0.85261(14) 0.04666(14) 0.57674(13)
H75_9 H 0.6840 0.1144 0.3469
H83_5 H 0.8644 0.0660 0.5969
C104_9 C 0.68802(14) 0.07799(14) 0.29368(14)
C112_5 C 0.82799(14) 0.06198(14) 0.54368(14)
H86_9 H 0.6582 0.0732 0.2911
H94_5 H 0.8232 0.0918 0.5411
C2_9 C 0.81814(11) 0.00929(11) 0.98179(11)
C7_9 C 0.84305(12) 0.02503(13) 0.94870(12)
H5_9 H 0.8482 0.0548 0.9462
H6_9 H 0.8773 0.0071 0.8963
N6_5 N 0.71695(8) 0.02503(9) 0.95761(9)
N7_5 N 0.72497(9) 0.03305(8) 0.79239(9)
N8_9 N 0.79239(9) 0.22497(9) 0.96695(8)
N9_9 N 0.95761(9) 0.21695(8) 0.97497(9)
N17_5 N 0.70035(9) 0.04052(9) 0.99086(9)
N18_5 N 0.70948(9) 0.04965(9) 0.75914(9)
N19_9 N 0.75914(9) 0.20948(9) 0.95035(9)
N20_9 N 0.99086(9) 0.20035(9) 0.95948(9)
N28_5 N 0.74907(9) 0.09543(9) 0.94243(9)
N29_5 N 0.65457(9) 0.00093(9) 0.80757(9)
N30_9 N 0.80757(9) 0.15457(9) 0.99907(9)
C12_5 C 0.77316(12) 0.07902(12) 0.87728(12)
C15_9 C 0.87728(12) 0.27316(12) 0.92098(12)
H10_5 H 0.7862 0.0811 0.8500
H13_9 H 0.8500 0.2862 0.9189
C24_5 C 0.74071(11) 0.06814(11) 0.73179(11)
C25_9 C 0.73179(11) 0.24071(11) 0.93186(11)
C35_5 C 0.78450(12) 0.06017(12) 0.73574(12)
C36_9 C 0.73574(12) 0.28450(12) 0.93983(12)
H22_5 H 0.7951 0.0428 0.7583
H23_9 H 0.7583 0.2951 0.9572
N43_5 N 0.75271(9) 0.04395(9) 0.89428(9)
N46_9 N 0.89428(9) 0.25271(9) 0.95605(9)
C45_5 C 0.77085(12) 0.11006(12) 0.90745(11)
C48_9 C 0.90745(11) 0.27085(12) 0.88994(12)
H32_5 H 0.7826 0.1379 0.9047
H35_9 H 0.9047 0.2826 0.8621
C56_5 C 0.73811(10) 0.05554(11) 0.93337(10)
C57_5 C 0.69446(11) 0.01189(10) 0.81663(10)
C58_9 C 0.81663(10) 0.19446(11) 0.98811(10)
C59_9 C 0.93337(10) 0.23811(10) 0.94446(11)
C66_5 C 0.74780(11) 0.00220(11) 0.8750
C67_9 C 0.8750 0.24780(11) 0.99780(11)
C73_5 C 0.72497(13) 0.09305(12) 0.69870(12)
C74_9 C 0.69870(12) 0.22497(13) 0.90695(12)
H55_5 H 0.6952 0.0982 0.6962
H56_9 H 0.6962 0.1952 0.9018
C84_5 C 0.75329(15) 0.11031(14) 0.66921(14)
C85_9 C 0.66921(14) 0.25329(15) 0.88969(14)
H66_5 H 0.7429 0.1273 0.6463
H67_9 H 0.6463 0.2429 0.8727
C95_5 C 0.79666(14) 0.10261(14) 0.67326(13)
C96_9 C 0.67326(13) 0.29666(14) 0.89739(14)
H77_5 H 0.8160 0.1144 0.6531
H78_9 H 0.6531 0.3160 0.8856
C106_5 C 0.81198(14) 0.07799(14) 0.70632(14)
C107_9 C 0.70632(14) 0.31198(14) 0.92201(14)
H88_5 H 0.8418 0.0732 0.7089
H89_9 H 0.7089 0.3418 0.9268
H2_9 H 0.7928 0.9549 0.0083
H4_9 H 0.7299 0.9982 0.1471
N12_5 N 0.77503(9) 0.96695(8) 0.29239(9)
N13_5 N 0.78305(8) 0.97497(9) 0.45761(9)
N23_5 N 0.79052(9) 0.95035(9) 0.25914(9)
N24_5 N 0.79965(9) 0.95948(9) 0.49086(9)
N34_5 N 0.84543(9) 0.99907(9) 0.30757(9)
N35_5 N 0.75093(9) 0.90457(9) 0.44243(9)
C11_9 C 0.82902(12) 0.97684(12) 0.12728(12)
C19_5 C 0.72684(12) 0.92098(12) 0.37728(12)
H9_9 H 0.8311 0.9638 0.1000
H17_5 H 0.7138 0.9189 0.3500
C29_5 C 0.75929(11) 0.93186(11) 0.23179(11)
C30_5 C 0.81814(11) 0.99071(11) 0.51821(11)
C34_5 C 0.68983(12) 0.96550(12) 0.01426(12)
C40_5 C 0.71550(12) 0.93983(12) 0.23574(12)
H27_5 H 0.7049 0.9572 0.2583
N42_9 N 0.79395(9) 0.99729(9) 0.14428(9)
N50_5 N 0.74729(9) 0.95605(9) 0.39428(9)
C44_9 C 0.86006(12) 0.97915(12) 0.15745(11)
C52_5 C 0.72915(12) 0.88994(12) 0.40745(11)
H31_9 H 0.8879 0.9674 0.1547
H39_5 H 0.7174 0.8621 0.4047
C62_5 C 0.80554(11) 0.98811(10) 0.31663(10)
C63_5 C 0.76189(10) 0.94446(11) 0.43337(10)
C69_5 C 0.75220(11) 0.99780(11) 0.3750
H42_9 H 0.7482 0.9799 0.1029
C78_5 C 0.77503(13) 0.90695(12) 0.19870(12)
C79_5 C 0.84305(12) 0.97497(13) 0.55130(12)
H60_5 H 0.8048 0.9018 0.1962
H61_5 H 0.8482 0.9452 0.5538
C83_5 C 0.63969(14) 0.99671(15) 0.08079(14)
C89_5 C 0.74671(15) 0.88969(14) 0.16921(14)
H71_5 H 0.7571 0.8727 0.1463
H72_5 H 0.8773 0.9929 0.6037
C94_5 C 0.64739(14) 0.95334(14) 0.07674(13)
C100_5 C 0.70334(14) 0.89739(14) 0.17326(13)
H76_5 H 0.6356 0.9340 0.0969
H82_5 H 0.6840 0.8856 0.1531
C105_5 C 0.67201(14) 0.93802(14) 0.04368(14)
C111_5 C 0.68802(14) 0.92201(14) 0.20632(14)
H87_5 H 0.6768 0.9082 0.0411
H93_5 H 0.6582 0.9268 0.2089
C3_9 C 0.81017(12) 0.96550(12) 0.98574(12)
C8_9 C 0.86031(14) 0.99671(15) 0.91921(14)
C9_9 C 0.85261(14) 0.95334(14) 0.92326(13)
H7_9 H 0.8644 0.9340 0.9031
C10_9 C 0.82799(14) 0.93802(14) 0.95632(14)
H8_9 H 0.8232 0.9082 0.9589
N39_5 N 0.65457(9) 0.99907(9) 0.69243(9)
C13_5 C 0.67098(12) 0.97684(12) 0.87272(12)
H11_5 H 0.6689 0.9638 0.9000
H21_5 H 0.7072 0.9549 0.9917
N44_5 N 0.70605(9) 0.99729(9) 0.85572(9)
C46_5 C 0.63994(12) 0.97915(12) 0.84255(11)
H33_5 H 0.6121 0.9674 0.8453
H43_5 H 0.7701 0.9982 0.8529
H44_5 H 0.7518 0.9799 0.8971
N1_10 N 0.21695(8) 0.52503(9) 0.45761(9)
N2_10 N 0.20035(9) 0.54052(9) 0.49086(9)
N3_10 N 0.24907(9) 0.59543(9) 0.44243(9)
C1_10 C 0.27316(12) 0.57902(12) 0.37728(12)
H1_10 H 0.2862 0.5811 0.3500
C2_10 C 0.18186(11) 0.50929(11) 0.51821(11)
C3_10 C 0.18983(12) 0.46550(12) 0.51426(12)
H2_10 H 0.2072 0.4549 0.4917
N4_10 N 0.25271(9) 0.54395(9) 0.39428(9)
C4_10 C 0.27085(12) 0.61006(12) 0.40745(11)
H3_10 H 0.2826 0.6379 0.4047
C5_10 C 0.23811(10) 0.55554(11) 0.43337(10)
C6_10 C 0.24780(11) 0.50220(11) 0.3750
H4_10 H 0.2701 0.4982 0.3529
C7_10 C 0.15695(12) 0.52503(13) 0.55130(12)
H5_10 H 0.1518 0.5548 0.5538
C8_10 C 0.13969(14) 0.49671(15) 0.58079(14)
H6_10 H 0.1227 0.5071 0.6037
C9_10 C 0.14739(14) 0.45334(14) 0.57674(13)
H7_10 H 0.1356 0.4340 0.5969
C10_10 C 0.17201(14) 0.43802(14) 0.54368(14)
H8_10 H 0.1768 0.4082 0.5411
N5_10 N 0.22497(9) 0.53305(8) 0.29239(9)
N6_6 N 0.28305(8) 0.52503(9) 0.54239(9)
N7_6 N 0.27503(9) 0.53305(8) 0.70761(9)
N8_10 N 0.20761(9) 0.72497(9) 0.53305(8)
N9_10 N 0.04239(9) 0.71695(8) 0.52503(9)
N12_6 N 0.22497(9) 0.46695(8) 0.20761(9)
N13_6 N 0.21695(8) 0.47497(9) 0.04239(9)
N16_10 N 0.20948(9) 0.54965(9) 0.25914(9)
N17_6 N 0.29965(9) 0.54052(9) 0.50914(9)
N18_6 N 0.29052(9) 0.54965(9) 0.74086(9)
N19_10 N 0.24086(9) 0.70948(9) 0.54965(9)
N20_10 N 0.00914(9) 0.70035(9) 0.54052(9)
N23_6 N 0.20948(9) 0.45035(9) 0.24086(9)
N24_6 N 0.20035(9) 0.45948(9) 0.00914(9)
N27_6 N 0.15457(9) 0.50093(9) 0.30757(9)
N28_6 N 0.25093(9) 0.59543(9) 0.55757(9)
N29_6 N 0.34543(9) 0.50093(9) 0.69243(9)
N30_10 N 0.19243(9) 0.65457(9) 0.50093(9)
N34_6 N 0.15457(9) 0.49907(9) 0.19243(9)
N35_6 N 0.24907(9) 0.40457(9) 0.05757(9)
N39_6 N 0.34543(9) 0.49907(9) 0.80757(9)
C11_10 C 0.17098(12) 0.47684(12) 0.37272(12)
C12_6 C 0.22684(12) 0.57902(12) 0.62272(12)
C13_6 C 0.32902(12) 0.47684(12) 0.62728(12)
C14_10 C 0.12728(12) 0.67098(12) 0.47684(12)
C15_10 C 0.12272(12) 0.77316(12) 0.57902(12)
C18_6 C 0.17098(12) 0.52316(12) 0.12728(12)
C19_6 C 0.27316(12) 0.42098(12) 0.12272(12)
H9_10 H 0.1689 0.4638 0.4000
H10_6 H 0.2138 0.5811 0.6500
H11_6 H 0.3311 0.4638 0.6000
H12_10 H 0.1000 0.6689 0.4638
H13_10 H 0.1500 0.7862 0.5811
H16_6 H 0.1689 0.5362 0.1000
H17_6 H 0.2862 0.4189 0.1500
C22_10 C 0.24071(11) 0.56814(11) 0.23179(11)
C23_6 C 0.31814(11) 0.50929(11) 0.48179(11)
C24_6 C 0.25929(11) 0.56814(11) 0.76821(11)
C25_10 C 0.26821(11) 0.74071(11) 0.56814(11)
C29_6 C 0.24071(11) 0.43186(11) 0.26821(11)
C33_10 C 0.28450(12) 0.56017(12) 0.23574(12)
C34_6 C 0.31017(12) 0.46550(12) 0.48574(12)
C35_6 C 0.21550(12) 0.56017(12) 0.76426(12)
C36_10 C 0.26426(12) 0.78450(12) 0.56017(12)
C40_6 C 0.28450(12) 0.43983(12) 0.26426(12)
H20_10 H 0.2951 0.5428 0.2583
H21_6 H 0.2928 0.4549 0.5083
H22_6 H 0.2049 0.5428 0.7417
H23_10 H 0.2417 0.7951 0.5428
H24_10 H 0.0083 0.7072 0.4549
H27_6 H 0.2951 0.4572 0.2417
H28_6 H 0.2072 0.5451 0.0083
N42_10 N 0.20605(9) 0.49729(9) 0.35572(9)
N43_6 N 0.24729(9) 0.54395(9) 0.60572(9)
N44_6 N 0.29395(9) 0.49729(9) 0.64428(9)
N45_10 N 0.14428(9) 0.70605(9) 0.49729(9)
N46_10 N 0.10572(9) 0.75271(9) 0.54395(9)
N49_6 N 0.20605(9) 0.50271(9) 0.14428(9)
N50_6 N 0.25271(9) 0.45605(9) 0.10572(9)
C44_10 C 0.13994(12) 0.47915(12) 0.34255(11)
C45_6 C 0.22915(12) 0.61006(12) 0.59255(11)
C46_6 C 0.36006(12) 0.47915(12) 0.65745(11)
C47_10 C 0.15745(11) 0.63994(12) 0.47915(12)
C48_10 C 0.09255(11) 0.77085(12) 0.61006(12)
C51_6 C 0.13994(12) 0.52085(12) 0.15745(11)
C52_6 C 0.27085(12) 0.38994(12) 0.09255(11)
H31_10 H 0.1121 0.4674 0.3453
H32_6 H 0.2174 0.6379 0.5953
H33_6 H 0.3879 0.4674 0.6547
H34_10 H 0.1547 0.6121 0.4674
H35_10 H 0.0953 0.7826 0.6379
H38_6 H 0.1121 0.5326 0.1547
H39_6 H 0.2826 0.3621 0.0953
C55_10 C 0.19446(11) 0.51189(10) 0.31663(10)
C56_6 C 0.26189(10) 0.55554(11) 0.56663(10)
C57_6 C 0.30554(11) 0.51189(10) 0.68337(10)
C58_10 C 0.18337(10) 0.69446(11) 0.51189(10)
C59_10 C 0.06663(10) 0.73811(10) 0.55554(11)
C62_6 C 0.19446(11) 0.48811(10) 0.18337(10)
C63_6 C 0.23811(10) 0.44446(11) 0.06663(10)
C66_6 C 0.25220(11) 0.50220(11) 0.6250
C67_10 C 0.1250 0.74780(11) 0.50220(11)
C69_6 C 0.24780(11) 0.49780(11) 0.1250
H42_10 H 0.2518 0.4799 0.3971
H43_6 H 0.2299 0.4982 0.6471
H44_6 H 0.2482 0.4799 0.6029
H45_10 H 0.1029 0.7518 0.4799
H46_10 H 0.1471 0.7701 0.4982
H49_6 H 0.2518 0.5201 0.1029
H50_6 H 0.2701 0.5018 0.1471
C71_10 C 0.22497(13) 0.59305(12) 0.19870(12)
C72_6 C 0.34305(12) 0.52503(13) 0.44870(12)
C73_6 C 0.27503(13) 0.59305(12) 0.80130(12)
C74_10 C 0.30130(12) 0.72497(13) 0.59305(12)
C78_6 C 0.22497(13) 0.40695(12) 0.30130(12)
H53_10 H 0.1952 0.5982 0.1962
H54_6 H 0.3482 0.5548 0.4462
H55_6 H 0.3048 0.5982 0.8038
H56_10 H 0.3038 0.6952 0.5982
H60_6 H 0.1952 0.4018 0.3038
C82_10 C 0.25329(15) 0.61031(14) 0.16921(14)
C83_6 C 0.36031(14) 0.49671(15) 0.41921(14)
C84_6 C 0.24671(15) 0.61031(14) 0.83079(14)
C85_10 C 0.33079(14) 0.75329(15) 0.61031(14)
C89_6 C 0.25329(15) 0.38969(14) 0.33079(14)
H64_10 H 0.2429 0.6273 0.1463
H65_6 H 0.3773 0.5071 0.3963
H66_6 H 0.2571 0.6273 0.8537
H67_10 H 0.3537 0.7429 0.6273
H71_6 H 0.2429 0.3727 0.3537
C93_10 C 0.29666(14) 0.60261(14) 0.17326(13)
C94_6 C 0.35261(14) 0.45334(14) 0.42326(13)
C95_6 C 0.20334(14) 0.60261(14) 0.82674(13)
C96_10 C 0.32674(13) 0.79666(14) 0.60261(14)
C100_6 C 0.29666(14) 0.39739(14) 0.32674(13)
H75_10 H 0.3160 0.6144 0.1531
H76_6 H 0.3644 0.4340 0.4031
H77_6 H 0.1840 0.6144 0.8469
H78_10 H 0.3469 0.8160 0.6144
H82_6 H 0.3160 0.3856 0.3469
C104_10 C 0.31198(14) 0.57799(14) 0.20632(14)
C105_6 C 0.32799(14) 0.43802(14) 0.45632(14)
C106_6 C 0.18802(14) 0.57799(14) 0.79368(14)
C107_10 C 0.29368(14) 0.81198(14) 0.57799(14)
C111_6 C 0.31198(14) 0.42201(14) 0.29368(14)
H86_10 H 0.3418 0.5732 0.2089
H87_6 H 0.3232 0.4082 0.4589
H88_6 H 0.1582 0.5732 0.7911
H89_10 H 0.2911 0.8418 0.5732
H93_6 H 0.3418 0.4268 0.2911
C30_6 C 0.18186(11) 0.49071(11) 0.98179(11)
C41_6 C 0.18983(12) 0.53450(12) 0.98574(12)
C79_6 C 0.15695(12) 0.47497(13) 0.94870(12)
H61_6 H 0.1518 0.4452 0.9462
C90_6 C 0.13969(14) 0.50329(15) 0.91921(14)
H72_6 H 0.1227 0.4929 0.8963
C101_6 C 0.14739(14) 0.54666(14) 0.92326(13)
H83_6 H 0.1356 0.5660 0.9031
C112_6 C 0.17201(14) 0.56198(14) 0.95632(14)
H94_6 H 0.1768 0.5918 0.9589
C26_10 C 0.98179(11) 0.68186(11) 0.50929(11)
C37_10 C 0.98574(12) 0.68983(12) 0.46550(12)
C75_10 C 0.94870(12) 0.65695(12) 0.52503(13)
H57_10 H 0.9462 0.6518 0.5548
C86_10 C 0.91921(14) 0.63969(14) 0.49671(15)
H68_10 H 0.8963 0.6227 0.5071
C97_10 C 0.92326(13) 0.64739(14) 0.45334(14)
H79_10 H 0.9031 0.6356 0.4340
C108_10 C 0.95632(14) 0.67201(14) 0.43802(14)
H90_10 H 0.9589 0.6768 0.4082
C2_11 C 0.31814(11) 0.49071(11) 0.01821(11)
C3_11 C 0.31017(12) 0.53450(12) 0.01426(12)
C7_11 C 0.34305(12) 0.47497(13) 0.05130(12)
H5_11 H 0.3482 0.4452 0.0538
C8_11 C 0.36031(14) 0.50329(15) 0.08079(14)
H6_11 H 0.3773 0.4929 0.1037
C9_11 C 0.35261(14) 0.54666(14) 0.07674(13)
H7_11 H 0.3644 0.5660 0.0969
C10_11 C 0.32799(14) 0.56198(14) 0.04368(14)
H8_11 H 0.3232 0.5918 0.0411
N8_11 N 0.29239(9) 0.27503(9) 0.03305(8)
N9_11 N 0.45761(9) 0.28305(8) 0.02503(9)
N19_11 N 0.25914(9) 0.29052(9) 0.04965(9)
N20_11 N 0.49086(9) 0.29965(9) 0.04052(9)
N30_11 N 0.30757(9) 0.34543(9) 0.00093(9)
C15_11 C 0.37728(12) 0.22684(12) 0.07902(12)
H13_11 H 0.3500 0.2138 0.0811
C25_11 C 0.23179(11) 0.25929(11) 0.06814(11)
C26_11 C 0.51821(11) 0.31814(11) 0.00929(11)
C36_11 C 0.23574(12) 0.21550(12) 0.06017(12)
H23_11 H 0.2583 0.2049 0.0428
N46_11 N 0.39428(9) 0.24729(9) 0.04395(9)
C48_11 C 0.40745(11) 0.22915(12) 0.11006(12)
H35_11 H 0.4047 0.2174 0.1379
C58_11 C 0.31663(10) 0.30554(11) 0.01189(10)
C59_11 C 0.43337(10) 0.26189(10) 0.05554(11)
C67_11 C 0.3750 0.25220(11) 0.00220(11)
C74_11 C 0.19870(12) 0.27503(13) 0.09305(12)
C75_11 C 0.55130(12) 0.34305(12) 0.02503(13)
H56_11 H 0.1962 0.3048 0.0982
H57_11 H 0.5538 0.3482 0.0548
C85_11 C 0.16921(14) 0.24671(15) 0.11031(14)
H67_11 H 0.1463 0.2571 0.1273
H68_11 H 0.6037 0.3773 0.0071
C96_11 C 0.17326(13) 0.20334(14) 0.10261(14)
H78_11 H 0.1531 0.1840 0.1144
C107_11 C 0.20632(14) 0.18802(14) 0.07799(14)
H89_11 H 0.2089 0.1582 0.0732
N1_11 N 0.28305(8) 0.47497(9) 0.95761(9)
N2_11 N 0.29965(9) 0.45948(9) 0.99086(9)
N3_11 N 0.25093(9) 0.40457(9) 0.94243(9)
C1_11 C 0.22684(12) 0.42098(12) 0.87728(12)
H1_11 H 0.2138 0.4189 0.8500
H2_11 H 0.2928 0.5451 0.9917
N4_11 N 0.24729(9) 0.45605(9) 0.89428(9)
C4_11 C 0.22915(12) 0.38994(12) 0.90745(11)
H3_11 H 0.2174 0.3621 0.9047
C5_11 C 0.26189(10) 0.44446(11) 0.93337(10)
C6_11 C 0.25220(11) 0.49780(11) 0.8750
H4_11 H 0.2299 0.5018 0.8529
N5_11 N 0.27503(9) 0.46695(8) 0.79239(9)
N16_11 N 0.29052(9) 0.45035(9) 0.75914(9)
C11_11 C 0.32902(12) 0.52316(12) 0.87272(12)
C14_11 C 0.37272(12) 0.32902(12) 0.97684(12)
H9_11 H 0.3311 0.5362 0.9000
H12_11 H 0.4000 0.3311 0.9638
C22_11 C 0.25929(11) 0.43186(11) 0.73179(11)
C33_11 C 0.21550(12) 0.43983(12) 0.73574(12)
C37_11 C 0.51426(12) 0.31017(12) 0.96550(12)
H20_11 H 0.2049 0.4572 0.7583
H24_11 H 0.4917 0.2928 0.9549
N42_11 N 0.29395(9) 0.50271(9) 0.85572(9)
N45_11 N 0.35572(9) 0.29395(9) 0.99729(9)
C44_11 C 0.36006(12) 0.52085(12) 0.84255(11)
C47_11 C 0.34255(11) 0.36006(12) 0.97915(12)
H31_11 H 0.3879 0.5326 0.8453
H34_11 H 0.3453 0.3879 0.9674
C55_11 C 0.30554(11) 0.48811(10) 0.81663(10)
H42_11 H 0.2482 0.5201 0.8971
H45_11 H 0.3971 0.2482 0.9799
H46_11 H 0.3529 0.2299 0.9982
C71_11 C 0.27503(13) 0.40695(12) 0.69870(12)
H53_11 H 0.3048 0.4018 0.6962
C82_11 C 0.24671(15) 0.38969(14) 0.66921(14)
C86_11 C 0.58079(14) 0.36031(14) 0.99671(15)
H64_11 H 0.2571 0.3727 0.6463
C93_11 C 0.20334(14) 0.39739(14) 0.67326(13)
C97_11 C 0.57674(13) 0.35261(14) 0.95334(14)
H75_11 H 0.1840 0.3856 0.6531
H79_11 H 0.5969 0.3644 0.9340
C104_11 C 0.18802(14) 0.42201(14) 0.70632(14)
C108_11 C 0.54368(14) 0.32799(14) 0.93802(14)
H86_11 H 0.1582 0.4268 0.7089
H90_11 H 0.5411 0.3232 0.9082
C3_12 C 0.68983(12) 0.03450(12) 0.48574(12)
H2_12 H 0.7072 0.0451 0.5083
H4_12 H 0.7701 0.0018 0.6471
C8_12 C 0.63969(14) 0.00329(15) 0.41921(14)
C9_12 C 0.64739(14) 0.04666(14) 0.42326(13)
H7_12 H 0.6356 0.0660 0.4031
C10_12 C 0.67201(14) 0.06198(14) 0.45632(14)
H8_12 H 0.6768 0.0918 0.4589
C11_12 C 0.67098(12) 0.02316(12) 0.62728(12)
H9_12 H 0.6689 0.0362 0.6000
N42_12 N 0.70605(9) 0.00271(9) 0.64428(9)
C44_12 C 0.63994(12) 0.02085(12) 0.65745(11)
H31_12 H 0.6121 0.0326 0.6547
H42_12 H 0.7518 0.0201 0.6029
N1_12 N 0.71695(8) 0.97497(9) 0.54239(9)
N2_12 N 0.70035(9) 0.95948(9) 0.50914(9)
N3_12 N 0.74907(9) 0.90457(9) 0.55757(9)
C1_12 C 0.77316(12) 0.92098(12) 0.62272(12)
H1_12 H 0.7862 0.9189 0.6500
C2_12 C 0.68186(11) 0.99071(11) 0.48179(11)
N4_12 N 0.75271(9) 0.95605(9) 0.60572(9)
C4_12 C 0.77085(12) 0.88994(12) 0.59255(11)
H3_12 H 0.7826 0.8621 0.5953
C5_12 C 0.73811(10) 0.94446(11) 0.56663(10)
C6_12 C 0.74780(11) 0.99780(11) 0.6250
C7_12 C 0.65695(12) 0.97497(13) 0.44870(12)
H5_12 H 0.6518 0.9452 0.4462
H6_12 H 0.6227 0.9929 0.3963
N5_12 N 0.72497(9) 0.96695(8) 0.70761(9)
N8_12 N 0.70761(9) 0.77503(9) 0.46695(8)
N9_12 N 0.54239(9) 0.78305(8) 0.47497(9)
N16_12 N 0.70948(9) 0.95035(9) 0.74086(9)
N19_12 N 0.74086(9) 0.79052(9) 0.45035(9)
N20_12 N 0.50914(9) 0.79965(9) 0.45948(9)
N30_12 N 0.69243(9) 0.84543(9) 0.49907(9)
C14_12 C 0.62728(12) 0.82902(12) 0.52316(12)
C15_12 C 0.62272(12) 0.72684(12) 0.42098(12)
H12_12 H 0.6000 0.8311 0.5362
H13_12 H 0.6500 0.7138 0.4189
C22_12 C 0.74071(11) 0.93186(11) 0.76821(11)
C25_12 C 0.76821(11) 0.75929(11) 0.43186(11)
C26_12 C 0.48179(11) 0.81814(11) 0.49071(11)
C33_12 C 0.78450(12) 0.93983(12) 0.76426(12)
C36_12 C 0.76426(12) 0.71550(12) 0.43983(12)
C37_12 C 0.48574(12) 0.81017(12) 0.53450(12)
H20_12 H 0.7951 0.9572 0.7417
H23_12 H 0.7417 0.7049 0.4572
H24_12 H 0.5083 0.7928 0.5451
N45_12 N 0.64428(9) 0.79395(9) 0.50271(9)
N46_12 N 0.60572(9) 0.74729(9) 0.45605(9)
C47_12 C 0.65745(11) 0.86006(12) 0.52085(12)
C48_12 C 0.59255(11) 0.72915(12) 0.38994(12)
H34_12 H 0.6547 0.8879 0.5326
H35_12 H 0.5953 0.7174 0.3621
C55_12 C 0.69446(11) 0.98811(10) 0.68337(10)
C58_12 C 0.68337(10) 0.80554(11) 0.48811(10)
C59_12 C 0.56663(10) 0.76189(10) 0.44446(11)
C67_12 C 0.6250 0.75220(11) 0.49780(11)
H45_12 H 0.6029 0.7482 0.5201
H46_12 H 0.6471 0.7299 0.5018
C71_12 C 0.72497(13) 0.90695(12) 0.80130(12)
C74_12 C 0.80130(12) 0.77503(13) 0.40695(12)
C75_12 C 0.44870(12) 0.84305(12) 0.47497(13)
H53_12 H 0.6952 0.9018 0.8038
H56_12 H 0.8038 0.8048 0.4018
H57_12 H 0.4462 0.8482 0.4452
C82_12 C 0.75329(15) 0.88969(14) 0.83079(14)
C85_12 C 0.83079(14) 0.74671(15) 0.38969(14)
C86_12 C 0.41921(14) 0.86031(14) 0.50329(15)
H64_12 H 0.7429 0.8727 0.8537
H67_12 H 0.8537 0.7571 0.3727
H68_12 H 0.3963 0.8773 0.4929
C93_12 C 0.79666(14) 0.89739(14) 0.82674(13)
C96_12 C 0.82674(13) 0.70334(14) 0.39739(14)
C97_12 C 0.42326(13) 0.85261(14) 0.54666(14)
H75_12 H 0.8160 0.8856 0.8469
H78_12 H 0.8469 0.6840 0.3856
H79_12 H 0.4031 0.8644 0.5660
C104_12 C 0.81198(14) 0.92201(14) 0.79368(14)
C107_12 C 0.79368(14) 0.68802(14) 0.42201(14)
C108_12 C 0.45632(14) 0.82799(14) 0.56198(14)
H86_12 H 0.8418 0.9268 0.7911
H89_12 H 0.7911 0.6582 0.4268
H90_12 H 0.4589 0.8232 0.5918
F1 F 0.15010(9) 0.59869(9) 0.06437(10)
F2 F 0.22184(9) 0.59963(9) 0.06530(10)
B1 B 0.18643(18) 0.6250 0.06357(18)
F3 F 0.18563(10) 0.65131(9) 0.09990(9)
F4 F 0.18470(10) 0.65037(9) 0.02816(9)
F1_2 F 0.34990(9) 0.40131(9) 0.56437(10)
F2_2 F 0.27816(9) 0.40037(9) 0.56530(10)
B1_2 B 0.31357(18) 0.3750 0.56357(18)
F3_2 F 0.31437(10) 0.34869(9) 0.59990(9)
F4_2 F 0.31530(10) 0.34963(9) 0.52816(9)
F1_3 F 0.84990(9) 0.09869(9) 0.43563(10)
F2_3 F 0.77816(9) 0.09963(9) 0.43470(10)
B1_3 B 0.81357(18) 0.1250 0.43643(18)
F3_3 F 0.81437(10) 0.15131(9) 0.40010(9)
F4_3 F 0.81530(10) 0.15037(9) 0.47184(9)
F1_4 F 0.65010(9) 0.90131(9) 0.93563(10)
F2_4 F 0.72184(9) 0.90037(9) 0.93470(10)
B1_4 B 0.68643(18) 0.8750 0.93643(18)
F3_4 F 0.68563(10) 0.84869(9) 0.90010(9)
F4_4 F 0.68470(10) 0.84963(9) 0.97184(9)
F1_5 F 0.06437(10) 0.15010(9) 0.59869(9)
F2_5 F 0.06530(10) 0.22184(9) 0.59963(9)
B1_5 B 0.06357(18) 0.18643(18) 0.6250
F3_5 F 0.09990(9) 0.18563(10) 0.65131(9)
F4_5 F 0.02816(9) 0.18470(10) 0.65037(9)
F1_6 F 0.56437(10) 0.34990(9) 0.40131(9)
F2_6 F 0.56530(10) 0.27816(9) 0.40037(9)
B1_6 B 0.56357(18) 0.31357(18) 0.3750
F3_6 F 0.59990(9) 0.31437(10) 0.34869(9)
F4_6 F 0.52816(9) 0.31530(10) 0.34963(9)
F1_7 F 0.43563(10) 0.84990(9) 0.09869(9)
F2_7 F 0.43470(10) 0.77816(9) 0.09963(9)
B1_7 B 0.43643(18) 0.81357(18) 0.1250
F3_7 F 0.40010(9) 0.81437(10) 0.15131(9)
F4_7 F 0.47184(9) 0.81530(10) 0.15037(9)
F1_8 F 0.93563(10) 0.65010(9) 0.90131(9)
F2_8 F 0.93470(10) 0.72184(9) 0.90037(9)
B1_8 B 0.93643(18) 0.68643(18) 0.8750
F3_8 F 0.90010(9) 0.68563(10) 0.84869(9)
F4_8 F 0.97184(9) 0.68470(10) 0.84963(9)
F1_9 F 0.59869(9) 0.06437(10) 0.15010(9)
F2_9 F 0.59963(9) 0.06530(10) 0.22184(9)
B1_9 B 0.6250 0.06357(18) 0.18643(18)
F3_9 F 0.65131(9) 0.09990(9) 0.18563(10)
F4_9 F 0.65037(9) 0.02816(9) 0.18470(10)
F1_10 F 0.40131(9) 0.56437(10) 0.34990(9)
F2_10 F 0.40037(9) 0.56530(10) 0.27816(9)
B1_10 B 0.3750 0.56357(18) 0.31357(18)
F3_10 F 0.34869(9) 0.59990(9) 0.31437(10)
F4_10 F 0.34963(9) 0.52816(9) 0.31530(10)
F1_11 F 0.09869(9) 0.43563(10) 0.84990(9)
F2_11 F 0.09963(9) 0.43470(10) 0.77816(9)
B1_11 B 0.1250 0.43643(18) 0.81357(18)
F3_11 F 0.15131(9) 0.40010(9) 0.81437(10)
F4_11 F 0.15037(9) 0.47184(9) 0.81530(10)
F1_12 F 0.90131(9) 0.93563(10) 0.65010(9)
F2_12 F 0.90037(9) 0.93470(10) 0.72184(9)
B1_12 B 0.8750 0.93643(18) 0.68643(18)
F3_12 F 0.84869(9) 0.90010(9) 0.68563(10)
F4_12 F 0.84963(9) 0.97184(9) 0.68470(10)
F1_13 F 0.34869(9) 0.40010(9) 0.18563(10)
F2_13 F 0.34963(9) 0.47184(9) 0.18470(10)
B1_13 B 0.3750 0.43643(18) 0.18643(18)
F3_13 F 0.40131(9) 0.43563(10) 0.15010(9)
F4_13 F 0.40037(9) 0.43470(10) 0.22184(9)
F1_14 F 0.15131(9) 0.59990(9) 0.68563(10)
F2_14 F 0.15037(9) 0.52816(9) 0.68470(10)
B1_14 B 0.1250 0.56357(18) 0.68643(18)
F3_14 F 0.09869(9) 0.56437(10) 0.65010(9)
F4_14 F 0.09963(9) 0.56530(10) 0.72184(9)
F1_15 F 0.84869(9) 0.09990(9) 0.81437(10)
F2_15 F 0.84963(9) 0.02816(9) 0.81530(10)
B1_15 B 0.8750 0.06357(18) 0.81357(18)
F3_15 F 0.90131(9) 0.06437(10) 0.84990(9)
F4_15 F 0.90037(9) 0.06530(10) 0.77816(9)
F1_16 F 0.65131(9) 0.90010(9) 0.31437(10)
F2_16 F 0.65037(9) 0.97184(9) 0.31530(10)
B1_16 B 0.6250 0.93643(18) 0.31357(18)
F3_16 F 0.59869(9) 0.93563(10) 0.34990(9)
F4_16 F 0.59963(9) 0.93470(10) 0.27816(9)
F1_17 F 0.90010(9) 0.31437(10) 0.65131(9)
F2_17 F 0.97184(9) 0.31530(10) 0.65037(9)
B1_17 B 0.93643(18) 0.31357(18) 0.6250
F3_17 F 0.93563(10) 0.34990(9) 0.59869(9)
F4_17 F 0.93470(10) 0.27816(9) 0.59963(9)
F1_18 F 0.09990(9) 0.81437(10) 0.84869(9)
F2_18 F 0.02816(9) 0.81530(10) 0.84963(9)
B1_18 B 0.06357(18) 0.81357(18) 0.8750
F3_18 F 0.06437(10) 0.84990(9) 0.90131(9)
F4_18 F 0.06530(10) 0.77816(9) 0.90037(9)
F1_19 F 0.59990(9) 0.68563(10) 0.15131(9)
F2_19 F 0.52816(9) 0.68470(10) 0.15037(9)
B1_19 B 0.56357(18) 0.68643(18) 0.1250
F3_19 F 0.56437(10) 0.65010(9) 0.09869(9)
F4_19 F 0.56530(10) 0.72184(9) 0.09963(9)
F1_20 F 0.40010(9) 0.18563(10) 0.34869(9)
F2_20 F 0.47184(9) 0.18470(10) 0.34963(9)
B1_20 B 0.43643(18) 0.18643(18) 0.3750
F3_20 F 0.43563(10) 0.15010(9) 0.40131(9)
F4_20 F 0.43470(10) 0.22184(9) 0.40037(9)
F1_21 F 0.81437(10) 0.84869(9) 0.09990(9)
F2_21 F 0.81530(10) 0.84963(9) 0.02816(9)
B1_21 B 0.81357(18) 0.8750 0.06357(18)
F3_21 F 0.84990(9) 0.90131(9) 0.06437(10)
F4_21 F 0.77816(9) 0.90037(9) 0.06530(10)
F1_22 F 0.31437(10) 0.65131(9) 0.90010(9)
F2_22 F 0.31530(10) 0.65037(9) 0.97184(9)
B1_22 B 0.31357(18) 0.6250 0.93643(18)
F3_22 F 0.34990(9) 0.59869(9) 0.93563(10)
F4_22 F 0.27816(9) 0.59963(9) 0.93470(10)
F1_23 F 0.18563(10) 0.34869(9) 0.40010(9)
F2_23 F 0.18470(10) 0.34963(9) 0.47184(9)
B1_23 B 0.18643(18) 0.3750 0.43643(18)
F3_23 F 0.15010(9) 0.40131(9) 0.43563(10)
F4_23 F 0.22184(9) 0.40037(9) 0.43470(10)
F1_24 F 0.68563(10) 0.15131(9) 0.59990(9)
F2_24 F 0.68470(10) 0.15037(9) 0.52816(9)
B1_24 B 0.68643(18) 0.1250 0.56357(18)
F3_24 F 0.65010(9) 0.09869(9) 0.56437(10)
F4_24 F 0.72184(9) 0.09963(9) 0.56530(10)
F1_25 F 0.84990(9) 0.40131(9) 0.93563(10)
F2_25 F 0.77816(9) 0.40037(9) 0.93470(10)
B1_25 B 0.81357(18) 0.3750 0.93643(18)
F3_25 F 0.81437(10) 0.34869(9) 0.90010(9)
F4_25 F 0.81530(10) 0.34963(9) 0.97184(9)
F1_26 F 0.65010(9) 0.59869(9) 0.43563(10)
F2_26 F 0.72184(9) 0.59963(9) 0.43470(10)
B1_26 B 0.68643(18) 0.6250 0.43643(18)
F3_26 F 0.68563(10) 0.65131(9) 0.40010(9)
F4_26 F 0.68470(10) 0.65037(9) 0.47184(9)
F1_27 F 0.15010(9) 0.90131(9) 0.56437(10)
F2_27 F 0.22184(9) 0.90037(9) 0.56530(10)
B1_27 B 0.18643(18) 0.8750 0.56357(18)
F3_27 F 0.18563(10) 0.84869(9) 0.59990(9)
F4_27 F 0.18470(10) 0.84963(9) 0.52816(9)
F1_28 F 0.34990(9) 0.09869(9) 0.06437(10)
F2_28 F 0.27816(9) 0.09963(9) 0.06530(10)
B1_28 B 0.31357(18) 0.1250 0.06357(18)
F3_28 F 0.31437(10) 0.15131(9) 0.09990(9)
F4_28 F 0.31530(10) 0.15037(9) 0.02816(9)
F1_29 F 0.93563(10) 0.84990(9) 0.40131(9)
F2_29 F 0.93470(10) 0.77816(9) 0.40037(9)
B1_29 B 0.93643(18) 0.81357(18) 0.3750
F3_29 F 0.90010(9) 0.81437(10) 0.34869(9)
F4_29 F 0.97184(9) 0.81530(10) 0.34963(9)
F1_30 F 0.43563(10) 0.65010(9) 0.59869(9)
F2_30 F 0.43470(10) 0.72184(9) 0.59963(9)
B1_30 B 0.43643(18) 0.68643(18) 0.6250
F3_30 F 0.40010(9) 0.68563(10) 0.65131(9)
F4_30 F 0.47184(9) 0.68470(10) 0.65037(9)
F1_31 F 0.56437(10) 0.15010(9) 0.90131(9)
F2_31 F 0.56530(10) 0.22184(9) 0.90037(9)
B1_31 B 0.56357(18) 0.18643(18) 0.8750
F3_31 F 0.59990(9) 0.18563(10) 0.84869(9)
F4_31 F 0.52816(9) 0.18470(10) 0.84963(9)
F1_32 F 0.06437(10) 0.34990(9) 0.09869(9)
F2_32 F 0.06530(10) 0.27816(9) 0.09963(9)
B1_32 B 0.06357(18) 0.31357(18) 0.1250
F3_32 F 0.09990(9) 0.31437(10) 0.15131(9)
F4_32 F 0.02816(9) 0.31530(10) 0.15037(9)
F1_33 F 0.40131(9) 0.93563(10) 0.84990(9)
F2_33 F 0.40037(9) 0.93470(10) 0.77816(9)
B1_33 B 0.3750 0.93643(18) 0.81357(18)
F3_33 F 0.34869(9) 0.90010(9) 0.81437(10)
F4_33 F 0.34963(9) 0.97184(9) 0.81530(10)
F1_34 F 0.59869(9) 0.43563(10) 0.65010(9)
F2_34 F 0.59963(9) 0.43470(10) 0.72184(9)
B1_34 B 0.6250 0.43643(18) 0.68643(18)
F3_34 F 0.65131(9) 0.40010(9) 0.68563(10)
F4_34 F 0.65037(9) 0.47184(9) 0.68470(10)
F1_35 F 0.90131(9) 0.56437(10) 0.15010(9)
F2_35 F 0.90037(9) 0.56530(10) 0.22184(9)
B1_35 B 0.8750 0.56357(18) 0.18643(18)
F3_35 F 0.84869(9) 0.59990(9) 0.18563(10)
F4_35 F 0.84963(9) 0.52816(9) 0.18470(10)
F1_36 F 0.09869(9) 0.06437(10) 0.34990(9)
F2_36 F 0.09963(9) 0.06530(10) 0.27816(9)
B1_36 B 0.1250 0.06357(18) 0.31357(18)
F3_36 F 0.15131(9) 0.09990(9) 0.31437(10)
F4_36 F 0.15037(9) 0.02816(9) 0.31530(10)
F1_37 F 0.65131(9) 0.59990(9) 0.81437(10)
F2_37 F 0.65037(9) 0.52816(9) 0.81530(10)
B1_37 B 0.6250 0.56357(18) 0.81357(18)
F3_37 F 0.59869(9) 0.56437(10) 0.84990(9)
F4_37 F 0.59963(9) 0.56530(10) 0.77816(9)
F1_38 F 0.84869(9) 0.40010(9) 0.31437(10)
F2_38 F 0.84963(9) 0.47184(9) 0.31530(10)
B1_38 B 0.8750 0.43643(18) 0.31357(18)
F3_38 F 0.90131(9) 0.43563(10) 0.34990(9)
F4_38 F 0.90037(9) 0.43470(10) 0.27816(9)
F1_39 F 0.15131(9) 0.90010(9) 0.18563(10)
F2_39 F 0.15037(9) 0.97184(9) 0.18470(10)
B1_39 B 0.1250 0.93643(18) 0.18643(18)
F3_39 F 0.09869(9) 0.93563(10) 0.15010(9)
F4_39 F 0.09963(9) 0.93470(10) 0.22184(9)
F1_40 F 0.34869(9) 0.09990(9) 0.68563(10)
F2_40 F 0.34963(9) 0.02816(9) 0.68470(10)
B1_40 B 0.3750 0.06357(18) 0.68643(18)
F3_40 F 0.40131(9) 0.06437(10) 0.65010(9)
F4_40 F 0.40037(9) 0.06530(10) 0.72184(9)
F1_41 F 0.09990(9) 0.68563(10) 0.34869(9)
F2_41 F 0.02816(9) 0.68470(10) 0.34963(9)
B1_41 B 0.06357(18) 0.68643(18) 0.3750
F3_41 F 0.06437(10) 0.65010(9) 0.40131(9)
F4_41 F 0.06530(10) 0.72184(9) 0.40037(9)
F1_42 F 0.90010(9) 0.18563(10) 0.15131(9)
F2_42 F 0.97184(9) 0.18470(10) 0.15037(9)
B1_42 B 0.93643(18) 0.18643(18) 0.1250
F3_42 F 0.93563(10) 0.15010(9) 0.09869(9)
F4_42 F 0.93470(10) 0.22184(9) 0.09963(9)
F1_43 F 0.40010(9) 0.31437(10) 0.84869(9)
F2_43 F 0.47184(9) 0.31530(10) 0.84963(9)
B1_43 B 0.43643(18) 0.31357(18) 0.8750
F3_43 F 0.43563(10) 0.34990(9) 0.90131(9)
F4_43 F 0.43470(10) 0.27816(9) 0.90037(9)
F1_44 F 0.59990(9) 0.81437(10) 0.65131(9)
F2_44 F 0.52816(9) 0.81530(10) 0.65037(9)
B1_44 B 0.56357(18) 0.81357(18) 0.6250
F3_44 F 0.56437(10) 0.84990(9) 0.59869(9)
F4_44 F 0.56530(10) 0.77816(9) 0.59963(9)
F1_45 F 0.18563(10) 0.15131(9) 0.90010(9)
F2_45 F 0.18470(10) 0.15037(9) 0.97184(9)
B1_45 B 0.18643(18) 0.1250 0.93643(18)
F3_45 F 0.15010(9) 0.09869(9) 0.93563(10)
F4_45 F 0.22184(9) 0.09963(9) 0.93470(10)
F1_46 F 0.68563(10) 0.34869(9) 0.09990(9)
F2_46 F 0.68470(10) 0.34963(9) 0.02816(9)
B1_46 B 0.68643(18) 0.3750 0.06357(18)
F3_46 F 0.65010(9) 0.40131(9) 0.06437(10)
F4_46 F 0.72184(9) 0.40037(9) 0.06530(10)
F1_47 F 0.81437(10) 0.65131(9) 0.59990(9)
F2_47 F 0.81530(10) 0.65037(9) 0.52816(9)
B1_47 B 0.81357(18) 0.6250 0.56357(18)
F3_47 F 0.84990(9) 0.59869(9) 0.56437(10)
F4_47 F 0.77816(9) 0.59963(9) 0.56530(10)
F1_48 F 0.31437(10) 0.84869(9) 0.40010(9)
F2_48 F 0.31530(10) 0.84963(9) 0.47184(9)
B1_48 B 0.31357(18) 0.8750 0.43643(18)
F3_48 F 0.34990(9) 0.90131(9) 0.43563(10)
F4_48 F 0.27816(9) 0.90037(9) 0.43470(10)
loop_
_geom_bond_atom_site_label_1
_geom_bond_atom_site_label_2
_geom_bond_site_symmetry_1
_geom_bond_site_symmetry_2
C21 H19 1_555 1_555
N52 C21 1_555 1_555
C54 C21 1_555 1_555
H41 C54 1_555 1_555
C97 C86 1_555 1_555
H79 C97 1_555 1_555
C108 C37 1_555 1_555
H90 C108 1_555 1_555
C97 C108 1_555 1_555
C102 C91 1_555 1_555
H84 C102 1_555 1_555
C113 C42 1_555 1_555
H95 C113 1_555 1_555
C102 C113 1_555 1_555
Zn1 N3 1_555 1_555
N1 N2 1_555 1_555
N3 C4 1_555 1_555
C1 H1 1_555 1_555
N4 C1 1_555 1_555
C4 C1 1_555 1_555
H3 C4 1_555 1_555
C5 N1 1_555 1_555
C6 N4 1_555 1_555
Zn2 N27 1_555 1_555
Zn5 N33 1_555 1_555
Zn7_2 N37 1_555 1_555
N5 N16 1_555 1_555
N10 N21 1_555 1_555
N11 N22 1_555 1_555
N14 N25 1_555 1_555
N15 N26 1_555 1_555
N16 C22 1_555 1_555
N21 C27 1_555 1_555
N22 C28 1_555 1_555
N26 C32 1_555 1_555
N32 Zn1 1_555 1_555
N33 C50 1_555 1_555
N36 Zn2 1_555 1_555
C14 H12 1_555 1_555
C17 H15 1_555 1_555
C18 H16 1_555 1_555
C20 H18 1_555 1_555
C22 C33 1_555 1_555
C27 C38 1_555 1_555
C32 C43 1_555 1_555
C33 H20 1_555 1_555
C38 H25 1_555 1_555
C41 H28 1_555 1_555
C43 H30 1_555 1_555
N45 C14 1_555 1_555
N48 C17 1_555 1_555
N49 C18 1_555 1_555
N51 C20 1_555 1_555
C50 C17 1_555 1_555
C53 N36 1_555 1_555
H34 C47 1_555 1_555
H37 C50 1_555 1_555
H38 C51 1_555 1_555
H40 C53 1_555 1_555
C55 N5 1_555 1_555
C60 N10 1_555 1_555
C61 N11 1_555 1_555
C64 N14 1_555 1_555
C65 N15 1_555 1_555
C70 N51 1_555 1_555
C71 C22 1_555 1_555
C72 C23 1_555 1_555
C76 C27 1_555 1_555
C77 C28 1_555 1_555
C81 C32 1_555 1_555
H53 C71 1_555 1_555
H54 C72 1_555 1_555
H58 C76 1_555 1_555
H59 C77 1_555 1_555
H63 C81 1_555 1_555
C82 C71 1_555 1_555
C87 C76 1_555 1_555
C92 C81 1_555 1_555
H64 C82 1_555 1_555
H69 C87 1_555 1_555
H74 C92 1_555 1_555
C93 C82 1_555 1_555
C98 C87 1_555 1_555
C101 C90 1_555 1_555
C103 C92 1_555 1_555
H75 C93 1_555 1_555
H80 C98 1_555 1_555
H83 C101 1_555 1_555
H85 C103 1_555 1_555
C104 C33 1_555 1_555
C109 C38 1_555 1_555
C112 C41 1_555 1_555
C114 C43 1_555 1_555
H86 C104 1_555 1_555
H91 C109 1_555 1_555
H94 C112 1_555 1_555
H96 C114 1_555 1_555
N3 C5 1_555 1_555
N4 C5 1_555 1_555
N27 C55 1_555 1_555
N32 C60 1_555 1_555
N33 C61 1_555 1_555
N36 C64 1_555 1_555
N37 C65 1_555 1_555
C14 C47 1_555 1_555
C18 C51 1_555 1_555
C20 C53 1_555 1_555
N48 C61 1_555 1_555
N48 C68 1_555 1_555
N51 C64 1_555 1_555
C93 C104 1_555 1_555
C98 C109 1_555 1_555
C101 C112 1_555 1_555
C103 C114 1_555 1_555
Zn6 N35 1_555 1_555
N12 N23 1_555 1_555
N13 N24 1_555 1_555
N23 C29 1_555 1_555
N24 C30 1_555 1_555
N34 Zn2_2 1_555 1_555
N35 C52 1_555 1_555
N38 Zn2_2 1_555 1_555
C11 H9 1_555 1_555
C19 H17 1_555 1_555
C29 C40 1_555 1_555
C40 H27 1_555 1_555
N50 C19 1_555 1_555
C44 C11 1_555 1_555
C52 C19 1_555 1_555
H31 C44 1_555 1_555
H39 C52 1_555 1_555
C62 N12 1_555 1_555
C63 N13 1_555 1_555
C78 C29 1_555 1_555
C79 C30 1_555 1_555
C80 C31 1_555 1_555
H60 C78 1_555 1_555
H61 C79 1_555 1_555
H62 C80 1_555 1_555
C89 C78 1_555 1_555
H71 C89 1_555 1_555
C94 C83 1_555 1_555
C100 C89 1_555 1_555
H76 C94 1_555 1_555
H82 C100 1_555 1_555
C105 C34 1_555 1_555
C111 C40 1_555 1_555
H87 C105 1_555 1_555
H93 C111 1_555 1_555
N34 C62 1_555 1_555
N35 C63 1_555 1_555
C11 N42 1_555 1_555
N50 C63 1_555 1_555
N50 C69 1_555 1_555
C94 C105 1_555 1_555
C100 C111 1_555 1_555
C75 C26 1_555 1_555
H57 C75 1_555 1_555
C7 C2 1_555 1_555
H5 C7 1_555 1_555
Zn3 N29 1_555 1_555
Zn4_2 N31 1_555 1_555
N6 N17 1_555 1_555
N7 N18 1_555 1_555
N8 N19 1_555 1_555
N9 N20 1_555 1_555
N18 C24 1_555 1_555
N19 C25 1_555 1_555
N28 Zn1_2 1_555 1_555
N30 Zn1_2 1_555 1_555
N31 C48 1_555 1_555
N40 Zn3 1_555 1_555
C12 H10 1_555 1_555
C15 H13 1_555 1_555
C16 H14 1_555 1_555
C24 C35 1_555 1_555
C25 C36 1_555 1_555
C35 H22 1_555 1_555
C36 H23 1_555 1_555
C39 H26 1_555 1_555
N43 C12 1_555 1_555
N46 C15 1_555 1_555
N47 C16 1_555 1_555
C45 N28 1_555 1_555
C48 C15 1_555 1_555
H32 C45 1_555 1_555
H35 C48 1_555 1_555
H36 C49 1_555 1_555
C56 N6 1_555 1_555
C57 N7 1_555 1_555
C58 N8 1_555 1_555
C59 N9 1_555 1_555
C66 N43 1_555 1_555
C73 C24 1_555 1_555
C74 C25 1_555 1_555
H55 C73 1_555 1_555
H56 C74 1_555 1_555
C84 C73 1_555 1_555
C85 C74 1_555 1_555
H66 C84 1_555 1_555
H67 C85 1_555 1_555
C95 C84 1_555 1_555
C96 C85 1_555 1_555
C99 C88 1_555 1_555
H77 C95 1_555 1_555
H78 C96 1_555 1_555
H81 C99 1_555 1_555
C106 C35 1_555 1_555
C107 C36 1_555 1_555
C110 C39 1_555 1_555
H88 C106 1_555 1_555
H89 C107 1_555 1_555
H92 C110 1_555 1_555
N28 C56 1_555 1_555
N29 C57 1_555 1_555
N30 C58 1_555 1_555
N31 C59 1_555 1_555
C12 C45 1_555 1_555
C16 C49 1_555 1_555
N43 C56 1_555 1_555
N46 C59 1_555 1_555
N46 C67 1_555 1_555
C95 C106 1_555 1_555
C96 C107 1_555 1_555
C99 C110 1_555 1_555
C9 C8 1_555 1_555
H7 C9 1_555 1_555
C10 C3 1_555 1_555
H8 C10 1_555 1_555
N39 Zn3_2 1_555 1_555
N41 Zn3_2 1_555 1_555
C13 H11 1_555 1_555
N44 C13 1_555 1_555
C46 C13 1_555 1_555
H33 C46 1_555 1_555
C9 C10 1_555 1_555
Zn1_3 N3_2 1_555 1_555
N1_2 N2_2 1_555 1_555
N2_2 C2_2 1_555 1_555
N3_2 C4_2 1_555 1_555
C1_2 H1_2 1_555 1_555
C2_2 C3_2 1_555 1_555
C3_2 H2_2 1_555 1_555
N4_2 C1_2 1_555 1_555
C4_2 C1_2 1_555 1_555
H3_2 C4_2 1_555 1_555
C5_2 N1_2 1_555 1_555
C6_2 N4_2 1_555 1_555
H4_2 C6_2 1_555 1_555
C7_2 C2_2 1_555 1_555
H5_2 C7_2 1_555 1_555
C8_2 C7_2 1_555 1_555
H6_2 C8_2 1_555 1_555
C9_2 C8_2 1_555 1_555
H7_2 C9_2 1_555 1_555
C10_2 C3_2 1_555 1_555
H8_2 C10_2 1_555 1_555
Zn2_3 N27_2 1_555 1_555
Zn3_3 N29_2 1_555 1_555
Zn4_3 N31_2 1_555 1_555
Zn5_2 N33_2 1_555 1_555
Zn6_2 N35_2 1_555 1_555
Zn7_3 N37_2 1_555 1_555
N5_2 N16_2 1_555 1_555
N6_2 N17_2 1_555 1_555
N7_2 N18_2 1_555 1_555
N8_2 N19_2 1_555 1_555
N9_2 N20_2 1_555 1_555
N10_2 N21_2 1_555 1_555
N11_2 N22_2 1_555 1_555
N12_2 N23_2 1_555 1_555
N13_2 N24_2 1_555 1_555
N14_2 N25_2 1_555 1_555
N15_2 N26_2 1_555 1_555
N16_2 C22_2 1_555 1_555
N17_2 C23_2 1_555 1_555
N18_2 C24_2 1_555 1_555
N19_2 C25_2 1_555 1_555
N21_2 C27_2 1_555 1_555
N22_2 C28_2 1_555 1_555
N23_2 C29_2 1_555 1_555
N25_2 C31_2 1_555 1_555
N26_2 C32_2 1_555 1_555
N27_2 C44_2 1_555 1_555
N28_2 Zn1_3 1_555 1_555
N29_2 C46_2 1_555 1_555
N30_2 Zn1_3 1_555 1_555
N31_2 C48_2 1_555 1_555
N32_2 Zn1_3 1_555 1_555
N33_2 C50_2 1_555 1_555
N34_2 Zn2_3 1_555 1_555
N35_2 C52_2 1_555 1_555
N36_2 Zn2_3 1_555 1_555
N38_2 Zn2_3 1_555 1_555
N39_2 Zn3_3 1_555 1_555
N40_2 Zn3_3 1_555 1_555
N41_2 Zn3_3 1_555 1_555
C11_2 H9_2 1_555 1_555
C12_2 H10_2 1_555 1_555
C13_2 H11_2 1_555 1_555
C14_2 H12_2 1_555 1_555
C15_2 H13_2 1_555 1_555
C16_2 H14_2 1_555 1_555
C17_2 H15_2 1_555 1_555
C18_2 H16_2 1_555 1_555
C19_2 H17_2 1_555 1_555
C20_2 H18_2 1_555 1_555
C22_2 C33_2 1_555 1_555
C23_2 C34_2 1_555 1_555
C24_2 C35_2 1_555 1_555
C25_2 C36_2 1_555 1_555
C27_2 C38_2 1_555 1_555
C28_2 C39_2 1_555 1_555
C29_2 C40_2 1_555 1_555
C32_2 C43_2 1_555 1_555
C33_2 H20_2 1_555 1_555
C34_2 H21_2 1_555 1_555
C35_2 H22_2 1_555 1_555
C36_2 H23_2 1_555 1_555
C38_2 H25_2 1_555 1_555
C39_2 H26_2 1_555 1_555
C40_2 H27_2 1_555 1_555
C43_2 H30_2 1_555 1_555
N42_2 C6_2 1_555 1_555
N43_2 C12_2 1_555 1_555
N44_2 C13_2 1_555 1_555
N45_2 C14_2 1_555 1_555
N46_2 C15_2 1_555 1_555
N47_2 C16_2 1_555 1_555
N48_2 C17_2 1_555 1_555
N49_2 C18_2 1_555 1_555
N50_2 C19_2 1_555 1_555
N51_2 C20_2 1_555 1_555
C44_2 C11_2 1_555 1_555
C45_2 N28_2 1_555 1_555
C46_2 C13_2 1_555 1_555
C47_2 N30_2 1_555 1_555
C48_2 C15_2 1_555 1_555
C49_2 N32_2 1_555 1_555
C50_2 C17_2 1_555 1_555
C51_2 N34_2 1_555 1_555
C52_2 C19_2 1_555 1_555
C53_2 N36_2 1_555 1_555
H31_2 C44_2 1_555 1_555
H32_2 C45_2 1_555 1_555
H33_2 C46_2 1_555 1_555
H34_2 C47_2 1_555 1_555
H35_2 C48_2 1_555 1_555
H36_2 C49_2 1_555 1_555
H37_2 C50_2 1_555 1_555
H38_2 C51_2 1_555 1_555
H39_2 C52_2 1_555 1_555
H40_2 C53_2 1_555 1_555
C55_2 N5_2 1_555 1_555
C56_2 N6_2 1_555 1_555
C57_2 N7_2 1_555 1_555
C58_2 N8_2 1_555 1_555
C59_2 N9_2 1_555 1_555
C60_2 N10_2 1_555 1_555
C61_2 N11_2 1_555 1_555
C62_2 N12_2 1_555 1_555
C63_2 N13_2 1_555 1_555
C64_2 N14_2 1_555 1_555
C65_2 N15_2 1_555 1_555
C66_2 N43_2 1_555 1_555
C67_2 N45_2 1_555 1_555
C68_2 N47_2 1_555 1_555
C69_2 N49_2 1_555 1_555
C70_2 N51_2 1_555 1_555
H42_2 C6_2 1_555 1_555
H43_2 C66_2 1_555 1_555
H44_2 C66_2 1_555 1_555
H45_2 C67_2 1_555 1_555
H46_2 C67_2 1_555 1_555
H47_2 C68_2 1_555 1_555
H48_2 C68_2 1_555 1_555
H49_2 C69_2 1_555 1_555
H50_2 C69_2 1_555 1_555
C71_2 C22_2 1_555 1_555
C72_2 C23_2 1_555 1_555
C73_2 C24_2 1_555 1_555
C74_2 C25_2 1_555 1_555
C76_2 C27_2 1_555 1_555
C77_2 C28_2 1_555 1_555
C78_2 C29_2 1_555 1_555
C80_2 C31_2 1_555 1_555
C81_2 C32_2 1_555 1_555
H53_2 C71_2 1_555 1_555
H54_2 C72_2 1_555 1_555
H55_2 C73_2 1_555 1_555
H56_2 C74_2 1_555 1_555
H58_2 C76_2 1_555 1_555
H59_2 C77_2 1_555 1_555
H60_2 C78_2 1_555 1_555
H62_2 C80_2 1_555 1_555
H63_2 C81_2 1_555 1_555
C82_2 C71_2 1_555 1_555
C83_2 C72_2 1_555 1_555
C84_2 C73_2 1_555 1_555
C85_2 C74_2 1_555 1_555
C87_2 C76_2 1_555 1_555
C88_2 C77_2 1_555 1_555
C89_2 C78_2 1_555 1_555
C92_2 C81_2 1_555 1_555
H64_2 C82_2 1_555 1_555
H65_2 C83_2 1_555 1_555
H66_2 C84_2 1_555 1_555
H67_2 C85_2 1_555 1_555
H69_2 C87_2 1_555 1_555
H70_2 C88_2 1_555 1_555
H71_2 C89_2 1_555 1_555
H74_2 C92_2 1_555 1_555
C93_2 C82_2 1_555 1_555
C94_2 C83_2 1_555 1_555
C95_2 C84_2 1_555 1_555
C96_2 C85_2 1_555 1_555
C98_2 C87_2 1_555 1_555
C99_2 C88_2 1_555 1_555
C100_2 C89_2 1_555 1_555
C103_2 C92_2 1_555 1_555
H75_2 C93_2 1_555 1_555
H76_2 C94_2 1_555 1_555
H77_2 C95_2 1_555 1_555
H78_2 C96_2 1_555 1_555
H80_2 C98_2 1_555 1_555
H81_2 C99_2 1_555 1_555
H82_2 C100_2 1_555 1_555
H85_2 C103_2 1_555 1_555
C104_2 C33_2 1_555 1_555
C105_2 C34_2 1_555 1_555
C106_2 C35_2 1_555 1_555
C107_2 C36_2 1_555 1_555
C109_2 C38_2 1_555 1_555
C110_2 C39_2 1_555 1_555
C111_2 C40_2 1_555 1_555
C114_2 C43_2 1_555 1_555
H86_2 C104_2 1_555 1_555
H87_2 C105_2 1_555 1_555
H88_2 C106_2 1_555 1_555
H89_2 C107_2 1_555 1_555
H91_2 C109_2 1_555 1_555
H92_2 C110_2 1_555 1_555
H93_2 C111_2 1_555 1_555
H96_2 C114_2 1_555 1_555
N3_2 C5_2 1_555 1_555
N4_2 C5_2 1_555 1_555
C9_2 C10_2 1_555 1_555
N27_2 C55_2 1_555 1_555
N28_2 C56_2 1_555 1_555
N29_2 C57_2 1_555 1_555
N30_2 C58_2 1_555 1_555
N31_2 C59_2 1_555 1_555
N32_2 C60_2 1_555 1_555
N33_2 C61_2 1_555 1_555
N34_2 C62_2 1_555 1_555
N35_2 C63_2 1_555 1_555
N36_2 C64_2 1_555 1_555
N37_2 C65_2 1_555 1_555
C11_2 N42_2 1_555 1_555
C12_2 C45_2 1_555 1_555
C14_2 C47_2 1_555 1_555
C16_2 C49_2 1_555 1_555
C18_2 C51_2 1_555 1_555
C20_2 C53_2 1_555 1_555
N42_2 C55_2 1_555 1_555
N43_2 C56_2 1_555 1_555
N44_2 C57_2 1_555 1_555
N44_2 C66_2 1_555 1_555
N45_2 C58_2 1_555 1_555
N46_2 C59_2 1_555 1_555
N46_2 C67_2 1_555 1_555
N47_2 C60_2 1_555 1_555
N48_2 C61_2 1_555 1_555
N48_2 C68_2 1_555 1_555
N49_2 C62_2 1_555 1_555
N50_2 C63_2 1_555 1_555
N50_2 C69_2 1_555 1_555
N51_2 C64_2 1_555 1_555
C93_2 C104_2 1_555 1_555
C94_2 C105_2 1_555 1_555
C95_2 C106_2 1_555 1_555
C96_2 C107_2 1_555 1_555
C98_2 C109_2 1_555 1_555
C99_2 C110_2 1_555 1_555
C100_2 C111_2 1_555 1_555
C103_2 C114_2 1_555 1_555
C21_2 H19_2 1_555 1_555
C26_2 C37_2 1_555 1_555
C42_2 H29_2 1_555 1_555
N52_2 C21_2 1_555 1_555
C54_2 C21_2 1_555 1_555
H41_2 C54_2 1_555 1_555
C75_2 C26_2 1_555 1_555
H57_2 C75_2 1_555 1_555
C86_2 C75_2 1_555 1_555
H68_2 C86_2 1_555 1_555
C97_2 C86_2 1_555 1_555
C102_2 C91_2 1_555 1_555
H79_2 C97_2 1_555 1_555
H84_2 C102_2 1_555 1_555
C108_2 C37_2 1_555 1_555
C113_2 C42_2 1_555 1_555
H90_2 C108_2 1_555 1_555
H95_2 C113_2 1_555 1_555
C97_2 C108_2 1_555 1_555
C102_2 C113_2 1_555 1_555
C30_2 C41_2 1_555 1_555
C79_2 C30_2 1_555 1_555
H61_2 C79_2 1_555 1_555
C90_2 C79_2 1_555 1_555
H72_2 C90_2 1_555 1_555
C101_2 C90_2 1_555 1_555
H83_2 C101_2 1_555 1_555
C112_2 C41_2 1_555 1_555
H94_2 C112_2 1_555 1_555
C101_2 C112_2 1_555 1_555
C2_3 C3_3 1_555 1_555
C7_3 C2_3 1_555 1_555
H5_3 C7_3 1_555 1_555
C8_3 C7_3 1_555 1_555
H6_3 C8_3 1_555 1_555
C9_3 C8_3 1_555 1_555
H7_3 C9_3 1_555 1_555
C10_3 C3_3 1_555 1_555
H8_3 C10_3 1_555 1_555
Zn5 N31_3 1_555 1_555
N8_3 N19_3 1_555 1_555
N9_3 N20_3 1_555 1_555
N19_3 C25_3 1_555 1_555
N20_3 C26_3 1_555 1_555
N30_3 Zn6_2 1_555 1_555
N31_3 C48_3 1_555 1_555
C15_3 H13_3 1_555 1_555
C16_3 H14_3 1_555 1_555
C25_3 C36_3 1_555 1_555
C36_3 H23_3 1_555 1_555
N46_3 C15_3 1_555 1_555
N47_3 C16_3 1_555 1_555
C48_3 C15_3 1_555 1_555
H35_3 C48_3 1_555 1_555
H36_3 C49_3 1_555 1_555
C58_3 N8_3 1_555 1_555
C59_3 N9_3 1_555 1_555
C74_3 C25_3 1_555 1_555
C75_3 C26_3 1_555 1_555
H56_3 C74_3 1_555 1_555
H57_3 C75_3 1_555 1_555
C85_3 C74_3 1_555 1_555
H67_3 C85_3 1_555 1_555
C96_3 C85_3 1_555 1_555
H78_3 C96_3 1_555 1_555
C107_3 C36_3 1_555 1_555
H89_3 C107_3 1_555 1_555
C9_3 C10_3 1_555 1_555
N30_3 C58_3 1_555 1_555
N31_3 C59_3 1_555 1_555
C16_3 C49_3 1_555 1_555
N46_3 C59_3 1_555 1_555
N46_3 C67_3 1_555 1_555
C96_3 C107_3 1_555 1_555
C99_3 C88_3 1_555 1_555
H81_3 C99_3 1_555 1_555
C110_3 C39_3 1_555 1_555
H92_3 C110_3 1_555 1_555
C99_3 C110_3 1_555 1_555
Zn6_3 N3_3 1_555 1_555
N1_3 N2_3 1_555 1_555
N3_3 C4_3 1_555 1_555
C1_3 H1_3 1_555 1_555
N4_3 C1_3 1_555 1_555
C4_3 C1_3 1_555 1_555
H3_3 C4_3 1_555 1_555
C5_3 N1_3 1_555 1_555
C6_3 N4_3 1_555 1_555
H4_3 C6_3 1_555 1_555
Zn4 N33_3 1_555 1_555
Zn7_5 N37_3 1_555 1_555
N5_3 N16_3 1_555 1_555
N10_3 N21_3 1_555 1_555
N11_3 N22_3 1_555 1_555
N14_3 N25_3 1_555 1_555
N15_3 N26_3 1_555 1_555
N16_3 C22_3 1_555 1_555
N21_3 C27_3 1_555 1_555
N25_3 C31_3 1_555 1_555
N26_3 C32_3 1_555 1_555
N39_2 C44_3 1_555 1_555
N32_3 Zn6_3 1_555 1_555
N33_3 C50_3 1_555 1_555
N37_3 C54_3 1_555 1_555
C11_3 H9_3 1_555 1_555
C14_3 H12_3 1_555 1_555
C17_3 H15_3 1_555 1_555
C20_3 H18_3 1_555 1_555
C21_3 H19_3 1_555 1_555
C22_3 C33_3 1_555 1_555
C27_3 C38_3 1_555 1_555
C31_3 C42_3 1_555 1_555
C32_3 C43_3 1_555 1_555
C33_3 H20_3 1_555 1_555
C37_3 H24_3 1_555 1_555
C38_3 H25_3 1_555 1_555
C42_3 H29_3 1_555 1_555
C43_3 H30_3 1_555 1_555
N42_3 C6_3 1_555 1_555
N45_3 C14_3 1_555 1_555
N48_3 C17_3 1_555 1_555
N51_3 C20_3 1_555 1_555
N52_3 C21_3 1_555 1_555
C44_3 C11_3 1_555 1_555
C50_3 C17_3 1_555 1_555
C53_3 N41_2 1_555 1_555
C54_3 C21_3 1_555 1_555
H31_3 C44_3 1_555 1_555
H34_3 C47_3 1_555 1_555
H37_3 C50_3 1_555 1_555
H40_3 C53_3 1_555 1_555
H41_3 C54_3 1_555 1_555
C55_3 N5_3 1_555 1_555
C60_3 N10_3 1_555 1_555
C61_3 N11_3 1_555 1_555
C64_3 N14_3 1_555 1_555
C65_3 N15_3 1_555 1_555
C70_3 N51_3 1_555 1_555
H42_3 C6_3 1_555 1_555
H51_3 C70_3 1_555 1_555
H52_3 C70_3 1_555 1_555
C71_3 C22_3 1_555 1_555
C76_3 C27_3 1_555 1_555
C80_3 C31_3 1_555 1_555
C81_3 C32_3 1_555 1_555
H53_3 C71_3 1_555 1_555
H58_3 C76_3 1_555 1_555
H62_3 C80_3 1_555 1_555
H63_3 C81_3 1_555 1_555
C82_3 C71_3 1_555 1_555
C87_3 C76_3 1_555 1_555
C91_3 C80_3 1_555 1_555
C92_3 C81_3 1_555 1_555
H64_3 C82_3 1_555 1_555
H69_3 C87_3 1_555 1_555
H73_3 C91_3 1_555 1_555
H74_3 C92_3 1_555 1_555
C93_3 C82_3 1_555 1_555
C97_3 C86_3 1_555 1_555
C98_3 C87_3 1_555 1_555
C102_3 C91_3 1_555 1_555
C103_3 C92_3 1_555 1_555
H75_3 C93_3 1_555 1_555
H79_3 C97_3 1_555 1_555
H80_3 C98_3 1_555 1_555
H84_3 C102_3 1_555 1_555
H85_3 C103_3 1_555 1_555
C104_3 C33_3 1_555 1_555
C108_3 C37_3 1_555 1_555
C109_3 C38_3 1_555 1_555
C113_3 C42_3 1_555 1_555
C114_3 C43_3 1_555 1_555
H86_3 C104_3 1_555 1_555
H90_3 C108_3 1_555 1_555
H91_3 C109_3 1_555 1_555
H95_3 C113_3 1_555 1_555
H96_3 C114_3 1_555 1_555
N3_3 C5_3 1_555 1_555
N4_3 C5_3 1_555 1_555
N39_2 C55_3 1_555 1_555
N32_3 C60_3 1_555 1_555
N33_3 C61_3 1_555 1_555
N41_2 C64_3 1_555 1_555
N37_3 C65_3 1_555 1_555
C11_3 N42_3 1_555 1_555
C14_3 C47_3 1_555 1_555
C20_3 C53_3 1_555 1_555
N42_3 C55_3 1_555 1_555
N48_3 C61_3 1_555 1_555
N48_3 C68_3 1_555 1_555
N51_3 C64_3 1_555 1_555
N52_3 C65_3 1_555 1_555
N52_3 C70_3 1_555 1_555
C93_3 C104_3 1_555 1_555
C97_3 C108_3 1_555 1_555
C98_3 C109_3 1_555 1_555
C102_3 C113_3 1_555 1_555
C103_3 C114_3 1_555 1_555
C77_3 C28_3 1_555 1_555
H59_3 C77_3 1_555 1_555
C28_4 C39_4 1_555 1_555
C77_4 C28_4 1_555 1_555
H59_4 C77_4 1_555 1_555
C88_4 C77_4 1_555 1_555
H70_4 C88_4 1_555 1_555
C99_4 C88_4 1_555 1_555
H81_4 C99_4 1_555 1_555
C110_4 C39_4 1_555 1_555
H92_4 C110_4 1_555 1_555
C99_4 C110_4 1_555 1_555
C3_4 H2_4 1_555 1_555
C9_4 C8_4 1_555 1_555
H7_4 C9_4 1_555 1_555
C10_4 C3_4 1_555 1_555
H8_4 C10_4 1_555 1_555
C11_4 H9_4 1_555 1_555
C31_4 C42_4 1_555 1_555
C44_4 C11_4 1_555 1_555
H31_4 C44_4 1_555 1_555
C80_4 C31_4 1_555 1_555
H62_4 C80_4 1_555 1_555
C91_4 C80_4 1_555 1_555
H73_4 C91_4 1_555 1_555
C102_4 C91_4 1_555 1_555
H84_4 C102_4 1_555 1_555
C113_4 C42_4 1_555 1_555
H95_4 C113_4 1_555 1_555
C9_4 C10_4 1_555 1_555
C11_4 N42_4 1_555 1_555
C102_4 C113_4 1_555 1_555
Zn6 N3_4 1_555 1_555
N1_4 N2_4 1_555 1_555
N2_4 C2_4 1_555 1_555
N3_4 C4_4 1_555 1_555
C1_4 H1_4 1_555 1_555
N4_4 C1_4 1_555 1_555
C4_4 C1_4 1_555 1_555
H3_4 C4_4 1_555 1_555
C5_4 N1_4 1_555 1_555
C6_4 N4_4 1_555 1_555
C7_4 C2_4 1_555 1_555
H5_4 C7_4 1_555 1_555
Zn5_2 N31_4 1_555 1_555
Zn4_4 N33_4 1_555 1_555
Zn7_6 N37_4 1_555 1_555
N5_4 N16_4 1_555 1_555
N8_4 N19_4 1_555 1_555
N9_4 N20_4 1_555 1_555
N10_4 N21_4 1_555 1_555
N11_4 N22_4 1_555 1_555
N14_4 N25_4 1_555 1_555
N15_4 N26_4 1_555 1_555
N16_4 C22_4 1_555 1_555
N19_4 C25_4 1_555 1_555
N20_4 C26_4 1_555 1_555
N21_4 C27_4 1_555 1_555
N26_4 C32_4 1_555 1_555
N30_4 Zn6 1_555 1_555
N31_4 C48_4 1_555 1_555
N32_4 Zn6 1_555 1_555
N33_4 C50_4 1_555 1_555
N37_4 C54_4 1_555 1_555
C14_4 H12_4 1_555 1_555
C15_4 H13_4 1_555 1_555
C16_4 H14_4 1_555 1_555
C17_4 H15_4 1_555 1_555
C20_4 H18_4 1_555 1_555
C21_4 H19_4 1_555 1_555
C22_4 C33_4 1_555 1_555
C25_4 C36_4 1_555 1_555
C26_4 C37_4 1_555 1_555
C27_4 C38_4 1_555 1_555
C32_4 C43_4 1_555 1_555
C33_4 H20_4 1_555 1_555
C36_4 H23_4 1_555 1_555
C37_4 H24_4 1_555 1_555
C38_4 H25_4 1_555 1_555
C43_4 H30_4 1_555 1_555
N45_4 C14_4 1_555 1_555
N46_4 C15_4 1_555 1_555
N47_4 C16_4 1_555 1_555
N48_4 C17_4 1_555 1_555
N51_4 C20_4 1_555 1_555
N52_4 C21_4 1_555 1_555
C47_4 N30_4 1_555 1_555
C48_4 C15_4 1_555 1_555
C49_4 N32_4 1_555 1_555
C50_4 C17_4 1_555 1_555
C53_4 N41 1_555 1_555
C54_4 C21_4 1_555 1_555
H34_4 C47_4 1_555 1_555
H35_4 C48_4 1_555 1_555
H36_4 C49_4 1_555 1_555
H37_4 C50_4 1_555 1_555
H40_4 C53_4 1_555 1_555
H41_4 C54_4 1_555 1_555
C55_4 N5_4 1_555 1_555
C58_4 N8_4 1_555 1_555
C59_4 N9_4 1_555 1_555
C60_4 N10_4 1_555 1_555
C61_4 N11_4 1_555 1_555
C64_4 N14_4 1_555 1_555
C65_4 N15_4 1_555 1_555
C67_4 N45_4 1_555 1_555
C68_4 N47_4 1_555 1_555
C70_4 N51_4 1_555 1_555
H45_4 C67_4 1_555 1_555
H46_4 C67_4 1_555 1_555
H47_4 C68_4 1_555 1_555
H48_4 C68_4 1_555 1_555
H51_4 C70_4 1_555 1_555
H52_4 C70_4 1_555 1_555
C71_4 C22_4 1_555 1_555
C74_4 C25_4 1_555 1_555
C75_4 C26_4 1_555 1_555
C76_4 C27_4 1_555 1_555
C81_4 C32_4 1_555 1_555
H53_4 C71_4 1_555 1_555
H56_4 C74_4 1_555 1_555
H57_4 C75_4 1_555 1_555
H58_4 C76_4 1_555 1_555
H63_4 C81_4 1_555 1_555
C82_4 C71_4 1_555 1_555
C85_4 C74_4 1_555 1_555
C86_4 C75_4 1_555 1_555
C87_4 C76_4 1_555 1_555
C92_4 C81_4 1_555 1_555
H64_4 C82_4 1_555 1_555
H67_4 C85_4 1_555 1_555
H68_4 C86_4 1_555 1_555
H69_4 C87_4 1_555 1_555
H74_4 C92_4 1_555 1_555
C93_4 C82_4 1_555 1_555
C96_4 C85_4 1_555 1_555
C97_4 C86_4 1_555 1_555
C98_4 C87_4 1_555 1_555
C103_4 C92_4 1_555 1_555
H75_4 C93_4 1_555 1_555
H78_4 C96_4 1_555 1_555
H79_4 C97_4 1_555 1_555
H80_4 C98_4 1_555 1_555
H85_4 C103_4 1_555 1_555
C104_4 C33_4 1_555 1_555
C107_4 C36_4 1_555 1_555
C108_4 C37_4 1_555 1_555
C109_4 C38_4 1_555 1_555
C114_4 C43_4 1_555 1_555
H86_4 C104_4 1_555 1_555
H89_4 C107_4 1_555 1_555
H90_4 C108_4 1_555 1_555
H91_4 C109_4 1_555 1_555
H96_4 C114_4 1_555 1_555
N3_4 C5_4 1_555 1_555
N4_4 C5_4 1_555 1_555
N39 C55_4 1_555 1_555
N30_4 C58_4 1_555 1_555
N31_4 C59_4 1_555 1_555
N32_4 C60_4 1_555 1_555
N33_4 C61_4 1_555 1_555
N41 C64_4 1_555 1_555
N37_4 C65_4 1_555 1_555
C14_4 C47_4 1_555 1_555
C16_4 C49_4 1_555 1_555
C20_4 C53_4 1_555 1_555
N45_4 C58_4 1_555 1_555
N46_4 C59_4 1_555 1_555
N46_4 C67_4 1_555 1_555
N47_4 C60_4 1_555 1_555
N48_4 C61_4 1_555 1_555
N48_4 C68_4 1_555 1_555
N51_4 C64_4 1_555 1_555
N52_4 C65_4 1_555 1_555
N52_4 C70_4 1_555 1_555
C93_4 C104_4 1_555 1_555
C96_4 C107_4 1_555 1_555
C97_4 C108_4 1_555 1_555
C98_4 C109_4 1_555 1_555
C103_4 C114_4 1_555 1_555
C21_5 H19_5 1_555 1_555
N52_5 C21_5 1_555 1_555
C54_5 C21_5 1_555 1_555
H41_5 C54_5 1_555 1_555
C97_5 C86_5 1_555 1_555
H79_5 C97_5 1_555 1_555
C108_5 C37_5 1_555 1_555
H90_5 C108_5 1_555 1_555
C97_5 C108_5 1_555 1_555
Zn7_3 N3_5 1_555 1_555
N1_5 N2_5 1_555 1_555
N3_5 C4_5 1_555 1_555
C1_5 H1_5 1_555 1_555
N4_5 C1_5 1_555 1_555
C4_5 C1_5 1_555 1_555
H3_5 C4_5 1_555 1_555
C5_5 N1_5 1_555 1_555
C6_5 N4_5 1_555 1_555
Zn2_4 N27_3 1_555 1_555
Zn7_8 N37_5 1_555 1_555
N5_5 N16_5 1_555 1_555
N14_5 N25_5 1_555 1_555
N15_5 N26_5 1_555 1_555
N16_5 C22_5 1_555 1_555
N26_5 C32_5 1_555 1_555
N36_3 Zn2_4 1_555 1_555
C14_5 H12_5 1_555 1_555
C18_3 H16_3 1_555 1_555
C20_5 H18_5 1_555 1_555
C22_5 C33_5 1_555 1_555
C32_5 C43_5 1_555 1_555
C33_5 H20_5 1_555 1_555
C41_3 H28_3 1_555 1_555
C43_5 H30_5 1_555 1_555
N45_5 C14_5 1_555 1_555
N49_3 C18_3 1_555 1_555
N51_5 C20_5 1_555 1_555
C53_5 N36_3 1_555 1_555
H34_5 C47_5 1_555 1_555
H38_3 C51_3 1_555 1_555
H40_5 C53_5 1_555 1_555
C55_5 N5_5 1_555 1_555
C64_5 N14_5 1_555 1_555
C65_5 N15_5 1_555 1_555
C70_5 N51_5 1_555 1_555
C71_5 C22_5 1_555 1_555
C72_3 C23_3 1_555 1_555
C81_5 C32_5 1_555 1_555
H53_5 C71_5 1_555 1_555
H54_3 C72_3 1_555 1_555
H63_5 C81_5 1_555 1_555
C82_5 C71_5 1_555 1_555
C92_5 C81_5 1_555 1_555
H64_5 C82_5 1_555 1_555
H74_5 C92_5 1_555 1_555
C93_5 C82_5 1_555 1_555
C101_3 C90_3 1_555 1_555
C103_5 C92_5 1_555 1_555
H75_5 C93_5 1_555 1_555
H83_3 C101_3 1_555 1_555
H85_5 C103_5 1_555 1_555
C104_5 C33_5 1_555 1_555
C112_3 C41_3 1_555 1_555
C114_5 C43_5 1_555 1_555
H86_5 C104_5 1_555 1_555
H94_3 C112_3 1_555 1_555
H96_5 C114_5 1_555 1_555
N3_5 C5_5 1_555 1_555
N4_5 C5_5 1_555 1_555
N27_3 C55_5 1_555 1_555
N36_3 C64_5 1_555 1_555
N37_5 C65_5 1_555 1_555
C14_5 C47_5 1_555 1_555
C18_3 C51_3 1_555 1_555
C20_5 C53_5 1_555 1_555
N51_5 C64_5 1_555 1_555
C93_5 C104_5 1_555 1_555
C101_3 C112_3 1_555 1_555
C103_5 C114_5 1_555 1_555
C75_5 C26_5 1_555 1_555
H57_5 C75_5 1_555 1_555
C7_5 C2_5 1_555 1_555
H5_5 C7_5 1_555 1_555
Zn3_4 N29_3 1_555 1_555
N6_3 N17_3 1_555 1_555
N7_3 N18_3 1_555 1_555
N8_5 N19_5 1_555 1_555
N9_5 N20_5 1_555 1_555
N18_3 C24_3 1_555 1_555
N19_5 C25_5 1_555 1_555
N28_3 Zn7_4 1_555 1_555
N30_5 Zn7_4 1_555 1_555
N38 C48_5 1_555 1_555
N40_3 Zn3_4 1_555 1_555
C12_3 H10_3 1_555 1_555
C15_5 H13_5 1_555 1_555
C24_3 C35_3 1_555 1_555
C25_5 C36_5 1_555 1_555
C35_3 H22_3 1_555 1_555
C36_5 H23_5 1_555 1_555
N43_3 C12_3 1_555 1_555
N46_5 C15_5 1_555 1_555
C45_3 N28_3 1_555 1_555
C48_5 C15_5 1_555 1_555
H32_3 C45_3 1_555 1_555
H35_5 C48_5 1_555 1_555
C56_3 N6_3 1_555 1_555
C57_3 N7_3 1_555 1_555
C58_5 N8_5 1_555 1_555
C59_5 N9_5 1_555 1_555
C66_3 N43_3 1_555 1_555
C73_3 C24_3 1_555 1_555
C74_5 C25_5 1_555 1_555
H55_3 C73_3 1_555 1_555
H56_5 C74_5 1_555 1_555
C84_3 C73_3 1_555 1_555
C85_5 C74_5 1_555 1_555
H66_3 C84_3 1_555 1_555
H67_5 C85_5 1_555 1_555
C95_3 C84_3 1_555 1_555
C96_5 C85_5 1_555 1_555
H77_3 C95_3 1_555 1_555
H78_5 C96_5 1_555 1_555
C106_3 C35_3 1_555 1_555
C107_5 C36_5 1_555 1_555
H88_3 C106_3 1_555 1_555
H89_5 C107_5 1_555 1_555
N28_3 C56_3 1_555 1_555
N29_3 C57_3 1_555 1_555
N30_5 C58_5 1_555 1_555
N38 C59_5 1_555 1_555
C12_3 C45_3 1_555 1_555
N43_3 C56_3 1_555 1_555
N46_5 C59_5 1_555 1_555
N46_5 C67_5 1_555 1_555
C95_3 C106_3 1_555 1_555
C96_5 C107_5 1_555 1_555
C102_5 C91_5 1_555 1_555
H84_5 C102_5 1_555 1_555
C113_5 C42_5 1_555 1_555
H95_5 C113_5 1_555 1_555
C102_5 C113_5 1_555 1_555
Zn7_6 N35_3 1_555 1_555
N12_3 N23_3 1_555 1_555
N13_3 N24_3 1_555 1_555
N23_3 C29_3 1_555 1_555
N24_3 C30_3 1_555 1_555
N34_3 Zn2_5 1_555 1_555
N35_3 C52_3 1_555 1_555
N38_3 Zn2_5 1_555 1_555
C11_5 H9_5 1_555 1_555
C19_3 H17_3 1_555 1_555
C29_3 C40_3 1_555 1_555
C40_3 H27_3 1_555 1_555
N50_3 C19_3 1_555 1_555
C44_5 C11_5 1_555 1_555
C52_3 C19_3 1_555 1_555
H31_5 C44_5 1_555 1_555
H39_3 C52_3 1_555 1_555
C62_3 N12_3 1_555 1_555
C63_3 N13_3 1_555 1_555
C78_3 C29_3 1_555 1_555
C79_3 C30_3 1_555 1_555
C80_5 C31_5 1_555 1_555
H60_3 C78_3 1_555 1_555
H61_3 C79_3 1_555 1_555
H62_5 C80_5 1_555 1_555
C89_3 C78_3 1_555 1_555
H71_3 C89_3 1_555 1_555
C94_3 C83_3 1_555 1_555
C100_3 C89_3 1_555 1_555
H76_3 C94_3 1_555 1_555
H82_3 C100_3 1_555 1_555
C105_3 C34_3 1_555 1_555
C111_3 C40_3 1_555 1_555
H87_3 C105_3 1_555 1_555
H93_3 C111_3 1_555 1_555
N34_3 C62_3 1_555 1_555
N35_3 C63_3 1_555 1_555
C11_5 N42_5 1_555 1_555
N50_3 C63_3 1_555 1_555
N50_3 C69_3 1_555 1_555
C94_3 C105_3 1_555 1_555
C100_3 C111_3 1_555 1_555
C9_5 C8_5 1_555 1_555
H7_5 C9_5 1_555 1_555
C10_5 C3_5 1_555 1_555
H8_5 C10_5 1_555 1_555
N39_3 Zn3_5 1_555 1_555
N41_3 Zn3_5 1_555 1_555
C13_3 H11_3 1_555 1_555
N44_3 C13_3 1_555 1_555
C46_3 C13_3 1_555 1_555
H33_3 C46_3 1_555 1_555
C9_5 C10_5 1_555 1_555
Zn7_5 N3_6 1_555 1_555
N1_6 N2_6 1_555 1_555
N2_6 C2_6 1_555 1_555
N3_6 C4_6 1_555 1_555
C1_6 H1_6 1_555 1_555
C2_6 C3_6 1_555 1_555
C3_6 H2_6 1_555 1_555
N4_6 C1_6 1_555 1_555
C4_6 C1_6 1_555 1_555
H3_6 C4_6 1_555 1_555
C5_6 N1_6 1_555 1_555
C6_6 N4_6 1_555 1_555
H4_6 C6_6 1_555 1_555
C7_6 C2_6 1_555 1_555
H5_6 C7_6 1_555 1_555
C8_6 C7_6 1_555 1_555
H6_6 C8_6 1_555 1_555
C9_6 C8_6 1_555 1_555
H7_6 C9_6 1_555 1_555
C10_6 C3_6 1_555 1_555
H8_6 C10_6 1_555 1_555
Zn2_6 N27_4 1_555 1_555
Zn3_6 N29_4 1_555 1_555
Zn7 N35_4 1_555 1_555
Zn7_9 N37_6 1_555 1_555
N5_6 N16_6 1_555 1_555
N6_4 N17_4 1_555 1_555
N7_4 N18_4 1_555 1_555
N8_6 N19_6 1_555 1_555
N9_6 N20_6 1_555 1_555
N12_4 N23_4 1_555 1_555
N13_4 N24_4 1_555 1_555
N14_6 N25_6 1_555 1_555
N15_6 N26_6 1_555 1_555
N16_6 C22_6 1_555 1_555
N17_4 C23_4 1_555 1_555
N18_4 C24_4 1_555 1_555
N19_6 C25_6 1_555 1_555
N23_4 C29_4 1_555 1_555
N25_6 C31_6 1_555 1_555
N26_6 C32_6 1_555 1_555
N27_4 C44_6 1_555 1_555
N28_4 Zn7_5 1_555 1_555
N29_4 C46_4 1_555 1_555
N30_6 Zn7_5 1_555 1_555
N40 C48_6 1_555 1_555
N34_4 Zn2_6 1_555 1_555
N35_4 C52_4 1_555 1_555
N36_4 Zn2_6 1_555 1_555
N38_4 Zn2_6 1_555 1_555
N39_4 Zn3_6 1_555 1_555
N40_4 Zn3_6 1_555 1_555
N41_4 Zn3_6 1_555 1_555
C11_6 H9_6 1_555 1_555
C12_4 H10_4 1_555 1_555
C13_4 H11_4 1_555 1_555
C14_6 H12_6 1_555 1_555
C15_6 H13_6 1_555 1_555
C18_4 H16_4 1_555 1_555
C19_4 H17_4 1_555 1_555
C20_6 H18_6 1_555 1_555
C22_6 C33_6 1_555 1_555
C23_4 C34_4 1_555 1_555
C24_4 C35_4 1_555 1_555
C25_6 C36_6 1_555 1_555
C29_4 C40_4 1_555 1_555
C32_6 C43_6 1_555 1_555
C33_6 H20_6 1_555 1_555
C34_4 H21_4 1_555 1_555
C35_4 H22_4 1_555 1_555
C36_6 H23_6 1_555 1_555
C40_4 H27_4 1_555 1_555
C43_6 H30_6 1_555 1_555
N42_6 C6_6 1_555 1_555
N43_4 C12_4 1_555 1_555
N44_4 C13_4 1_555 1_555
N45_6 C14_6 1_555 1_555
N46_6 C15_6 1_555 1_555
N49_4 C18_4 1_555 1_555
N50_4 C19_4 1_555 1_555
N51_6 C20_6 1_555 1_555
C44_6 C11_6 1_555 1_555
C45_4 N28_4 1_555 1_555
C46_4 C13_4 1_555 1_555
C47_6 N30_6 1_555 1_555
C48_6 C15_6 1_555 1_555
C51_4 N34_4 1_555 1_555
C52_4 C19_4 1_555 1_555
C53_6 N36_4 1_555 1_555
H31_6 C44_6 1_555 1_555
H32_4 C45_4 1_555 1_555
H33_4 C46_4 1_555 1_555
H34_6 C47_6 1_555 1_555
H35_6 C48_6 1_555 1_555
H38_4 C51_4 1_555 1_555
H39_4 C52_4 1_555 1_555
H40_6 C53_6 1_555 1_555
C55_6 N5_6 1_555 1_555
C56_4 N6_4 1_555 1_555
C57_4 N7_4 1_555 1_555
C58_6 N8_6 1_555 1_555
C59_6 N9_6 1_555 1_555
C62_4 N12_4 1_555 1_555
C63_4 N13_4 1_555 1_555
C64_6 N14_6 1_555 1_555
C65_6 N15_6 1_555 1_555
C66_4 N43_4 1_555 1_555
C67_6 N45_6 1_555 1_555
C69_4 N49_4 1_555 1_555
C70_6 N51_6 1_555 1_555
H42_6 C6_6 1_555 1_555
H43_4 C66_4 1_555 1_555
H44_4 C66_4 1_555 1_555
H45_6 C67_6 1_555 1_555
H46_6 C67_6 1_555 1_555
H49_4 C69_4 1_555 1_555
H50_4 C69_4 1_555 1_555
C71_6 C22_6 1_555 1_555
C72_4 C23_4 1_555 1_555
C73_4 C24_4 1_555 1_555
C74_6 C25_6 1_555 1_555
C78_4 C29_4 1_555 1_555
C80_6 C31_6 1_555 1_555
C81_6 C32_6 1_555 1_555
H53_6 C71_6 1_555 1_555
H54_4 C72_4 1_555 1_555
H55_4 C73_4 1_555 1_555
H56_6 C74_6 1_555 1_555
H60_4 C78_4 1_555 1_555
H62_6 C80_6 1_555 1_555
H63_6 C81_6 1_555 1_555
C82_6 C71_6 1_555 1_555
C83_4 C72_4 1_555 1_555
C84_4 C73_4 1_555 1_555
C85_6 C74_6 1_555 1_555
C89_4 C78_4 1_555 1_555
C92_6 C81_6 1_555 1_555
H64_6 C82_6 1_555 1_555
H65_4 C83_4 1_555 1_555
H66_4 C84_4 1_555 1_555
H67_6 C85_6 1_555 1_555
H71_4 C89_4 1_555 1_555
H74_6 C92_6 1_555 1_555
C93_6 C82_6 1_555 1_555
C94_4 C83_4 1_555 1_555
C95_4 C84_4 1_555 1_555
C96_6 C85_6 1_555 1_555
C100_4 C89_4 1_555 1_555
C103_6 C92_6 1_555 1_555
H75_6 C93_6 1_555 1_555
H76_4 C94_4 1_555 1_555
H77_4 C95_4 1_555 1_555
H78_6 C96_6 1_555 1_555
H82_4 C100_4 1_555 1_555
H85_6 C103_6 1_555 1_555
C104_6 C33_6 1_555 1_555
C105_4 C34_4 1_555 1_555
C106_4 C35_4 1_555 1_555
C107_6 C36_6 1_555 1_555
C111_4 C40_4 1_555 1_555
C114_6 C43_6 1_555 1_555
H86_6 C104_6 1_555 1_555
H87_4 C105_4 1_555 1_555
H88_4 C106_4 1_555 1_555
H89_6 C107_6 1_555 1_555
H93_4 C111_4 1_555 1_555
H96_6 C114_6 1_555 1_555
N3_6 C5_6 1_555 1_555
N4_6 C5_6 1_555 1_555
C9_6 C10_6 1_555 1_555
N27_4 C55_6 1_555 1_555
N28_4 C56_4 1_555 1_555
N29_4 C57_4 1_555 1_555
N30_6 C58_6 1_555 1_555
N40 C59_6 1_555 1_555
N34_4 C62_4 1_555 1_555
N35_4 C63_4 1_555 1_555
N36_4 C64_6 1_555 1_555
N37_6 C65_6 1_555 1_555
C11_6 N42_6 1_555 1_555
C12_4 C45_4 1_555 1_555
C14_6 C47_6 1_555 1_555
C18_4 C51_4 1_555 1_555
C20_6 C53_6 1_555 1_555
N42_6 C55_6 1_555 1_555
N43_4 C56_4 1_555 1_555
N44_4 C57_4 1_555 1_555
N44_4 C66_4 1_555 1_555
N45_6 C58_6 1_555 1_555
N46_6 C59_6 1_555 1_555
N46_6 C67_6 1_555 1_555
N49_4 C62_4 1_555 1_555
N50_4 C63_4 1_555 1_555
N50_4 C69_4 1_555 1_555
N51_6 C64_6 1_555 1_555
C93_6 C104_6 1_555 1_555
C94_4 C105_4 1_555 1_555
C95_4 C106_4 1_555 1_555
C96_6 C107_6 1_555 1_555
C100_4 C111_4 1_555 1_555
C103_6 C114_6 1_555 1_555
C21_6 H19_6 1_555 1_555
C26_6 C37_6 1_555 1_555
C42_6 H29_6 1_555 1_555
N52_6 C21_6 1_555 1_555
C54_6 C21_6 1_555 1_555
H41_6 C54_6 1_555 1_555
C75_6 C26_6 1_555 1_555
H57_6 C75_6 1_555 1_555
C86_6 C75_6 1_555 1_555
H68_6 C86_6 1_555 1_555
C97_6 C86_6 1_555 1_555
C102_6 C91_6 1_555 1_555
H79_6 C97_6 1_555 1_555
H84_6 C102_6 1_555 1_555
C108_6 C37_6 1_555 1_555
C113_6 C42_6 1_555 1_555
H90_6 C108_6 1_555 1_555
H95_6 C113_6 1_555 1_555
C97_6 C108_6 1_555 1_555
C102_6 C113_6 1_555 1_555
C30_4 C41_4 1_555 1_555
C79_4 C30_4 1_555 1_555
H61_4 C79_4 1_555 1_555
C90_4 C79_4 1_555 1_555
H72_4 C90_4 1_555 1_555
C101_4 C90_4 1_555 1_555
H83_4 C101_4 1_555 1_555
C112_4 C41_4 1_555 1_555
H94_4 C112_4 1_555 1_555
C101_4 C112_4 1_555 1_555
C2_7 C3_7 1_555 1_555
C7_7 C2_7 1_555 1_555
H5_7 C7_7 1_555 1_555
C8_7 C7_7 1_555 1_555
H6_7 C8_7 1_555 1_555
C9_7 C8_7 1_555 1_555
H7_7 C9_7 1_555 1_555
C10_7 C3_7 1_555 1_555
H8_7 C10_7 1_555 1_555
N8_7 N19_7 1_555 1_555
N9_7 N20_7 1_555 1_555
N19_7 C25_7 1_555 1_555
N20_7 C26_7 1_555 1_555
N30_7 Zn7 1_555 1_555
N38_2 C48_7 1_555 1_555
C15_7 H13_7 1_555 1_555
C25_7 C36_7 1_555 1_555
C36_7 H23_7 1_555 1_555
N46_7 C15_7 1_555 1_555
C48_7 C15_7 1_555 1_555
H35_7 C48_7 1_555 1_555
C58_7 N8_7 1_555 1_555
C59_7 N9_7 1_555 1_555
C74_7 C25_7 1_555 1_555
C75_7 C26_7 1_555 1_555
H56_7 C74_7 1_555 1_555
H57_7 C75_7 1_555 1_555
C85_7 C74_7 1_555 1_555
H67_7 C85_7 1_555 1_555
C96_7 C85_7 1_555 1_555
H78_7 C96_7 1_555 1_555
C107_7 C36_7 1_555 1_555
H89_7 C107_7 1_555 1_555
C9_7 C10_7 1_555 1_555
N30_7 C58_7 1_555 1_555
N38_2 C59_7 1_555 1_555
N46_7 C59_7 1_555 1_555
N46_7 C67_7 1_555 1_555
C96_7 C107_7 1_555 1_555
Zn7_2 N3_7 1_555 1_555
N1_7 N2_7 1_555 1_555
N3_7 C4_7 1_555 1_555
C1_7 H1_7 1_555 1_555
N4_7 C1_7 1_555 1_555
C4_7 C1_7 1_555 1_555
H3_7 C4_7 1_555 1_555
C5_7 N1_7 1_555 1_555
C6_7 N4_7 1_555 1_555
H4_7 C6_7 1_555 1_555
Zn7_11 N37_7 1_555 1_555
N5_7 N16_7 1_555 1_555
N14_7 N25_7 1_555 1_555
N15_7 N26_7 1_555 1_555
N16_7 C22_7 1_555 1_555
N25_7 C31_7 1_555 1_555
N26_7 C32_7 1_555 1_555
N39_4 C44_7 1_555 1_555
N37_7 C54_7 1_555 1_555
C11_7 H9_7 1_555 1_555
C14_7 H12_7 1_555 1_555
C20_7 H18_7 1_555 1_555
C21_7 H19_7 1_555 1_555
C22_7 C33_7 1_555 1_555
C31_7 C42_7 1_555 1_555
C32_7 C43_7 1_555 1_555
C33_7 H20_7 1_555 1_555
C37_7 H24_7 1_555 1_555
C42_7 H29_7 1_555 1_555
C43_7 H30_7 1_555 1_555
N42_7 C6_7 1_555 1_555
N45_7 C14_7 1_555 1_555
N51_7 C20_7 1_555 1_555
N52_7 C21_7 1_555 1_555
C44_7 C11_7 1_555 1_555
C53_7 N41_4 1_555 1_555
C54_7 C21_7 1_555 1_555
H31_7 C44_7 1_555 1_555
H34_7 C47_7 1_555 1_555
H40_7 C53_7 1_555 1_555
H41_7 C54_7 1_555 1_555
C55_7 N5_7 1_555 1_555
C64_7 N14_7 1_555 1_555
C65_7 N15_7 1_555 1_555
C70_7 N51_7 1_555 1_555
H42_7 C6_7 1_555 1_555
H51_7 C70_7 1_555 1_555
H52_7 C70_7 1_555 1_555
C71_7 C22_7 1_555 1_555
C80_7 C31_7 1_555 1_555
C81_7 C32_7 1_555 1_555
H53_7 C71_7 1_555 1_555
H62_7 C80_7 1_555 1_555
H63_7 C81_7 1_555 1_555
C82_7 C71_7 1_555 1_555
C91_7 C80_7 1_555 1_555
C92_7 C81_7 1_555 1_555
H64_7 C82_7 1_555 1_555
H73_7 C91_7 1_555 1_555
H74_7 C92_7 1_555 1_555
C93_7 C82_7 1_555 1_555
C97_7 C86_7 1_555 1_555
C102_7 C91_7 1_555 1_555
C103_7 C92_7 1_555 1_555
H75_7 C93_7 1_555 1_555
H79_7 C97_7 1_555 1_555
H84_7 C102_7 1_555 1_555
H85_7 C103_7 1_555 1_555
C104_7 C33_7 1_555 1_555
C108_7 C37_7 1_555 1_555
C113_7 C42_7 1_555 1_555
C114_7 C43_7 1_555 1_555
H86_7 C104_7 1_555 1_555
H90_7 C108_7 1_555 1_555
H95_7 C113_7 1_555 1_555
H96_7 C114_7 1_555 1_555
N3_7 C5_7 1_555 1_555
N4_7 C5_7 1_555 1_555
N39_4 C55_7 1_555 1_555
N41_4 C64_7 1_555 1_555
N37_7 C65_7 1_555 1_555
C11_7 N42_7 1_555 1_555
C14_7 C47_7 1_555 1_555
C20_7 C53_7 1_555 1_555
N42_7 C55_7 1_555 1_555
N51_7 C64_7 1_555 1_555
N52_7 C65_7 1_555 1_555
N52_7 C70_7 1_555 1_555
C93_7 C104_7 1_555 1_555
C97_7 C108_7 1_555 1_555
C102_7 C113_7 1_555 1_555
C103_7 C114_7 1_555 1_555
C3_8 H2_8 1_555 1_555
C9_8 C8_8 1_555 1_555
H7_8 C9_8 1_555 1_555
C10_8 C3_8 1_555 1_555
H8_8 C10_8 1_555 1_555
C11_8 H9_8 1_555 1_555
C31_8 C42_8 1_555 1_555
C44_8 C11_8 1_555 1_555
H31_8 C44_8 1_555 1_555
C80_8 C31_8 1_555 1_555
H62_8 C80_8 1_555 1_555
C91_8 C80_8 1_555 1_555
H73_8 C91_8 1_555 1_555
C102_8 C91_8 1_555 1_555
H84_8 C102_8 1_555 1_555
C113_8 C42_8 1_555 1_555
H95_8 C113_8 1_555 1_555
C9_8 C10_8 1_555 1_555
C11_8 N42_8 1_555 1_555
C102_8 C113_8 1_555 1_555
Zn7_6 N3_8 1_555 1_555
N1_8 N2_8 1_555 1_555
N2_8 C2_8 1_555 1_555
N3_8 C4_8 1_555 1_555
C1_8 H1_8 1_555 1_555
N4_8 C1_8 1_555 1_555
C4_8 C1_8 1_555 1_555
H3_8 C4_8 1_555 1_555
C5_8 N1_8 1_555 1_555
C6_8 N4_8 1_555 1_555
C7_8 C2_8 1_555 1_555
H5_8 C7_8 1_555 1_555
Zn7_12 N37_8 1_555 1_555
N5_8 N16_8 1_555 1_555
N8_8 N19_8 1_555 1_555
N9_8 N20_8 1_555 1_555
N14_8 N25_8 1_555 1_555
N15_8 N26_8 1_555 1_555
N16_8 C22_8 1_555 1_555
N19_8 C25_8 1_555 1_555
N20_8 C26_8 1_555 1_555
N26_8 C32_8 1_555 1_555
N30_8 Zn7_6 1_555 1_555
N40_2 C48_8 1_555 1_555
N37_8 C54_8 1_555 1_555
C14_8 H12_8 1_555 1_555
C15_8 H13_8 1_555 1_555
C20_8 H18_8 1_555 1_555
C21_8 H19_8 1_555 1_555
C22_8 C33_8 1_555 1_555
C25_8 C36_8 1_555 1_555
C26_8 C37_8 1_555 1_555
C32_8 C43_8 1_555 1_555
C33_8 H20_8 1_555 1_555
C36_8 H23_8 1_555 1_555
C37_8 H24_8 1_555 1_555
C43_8 H30_8 1_555 1_555
N45_8 C14_8 1_555 1_555
N46_8 C15_8 1_555 1_555
N51_8 C20_8 1_555 1_555
N52_8 C21_8 1_555 1_555
C47_8 N30_8 1_555 1_555
C48_8 C15_8 1_555 1_555
C53_8 N41_3 1_555 1_555
C54_8 C21_8 1_555 1_555
H34_8 C47_8 1_555 1_555
H35_8 C48_8 1_555 1_555
H40_8 C53_8 1_555 1_555
H41_8 C54_8 1_555 1_555
C55_8 N5_8 1_555 1_555
C58_8 N8_8 1_555 1_555
C59_8 N9_8 1_555 1_555
C64_8 N14_8 1_555 1_555
C65_8 N15_8 1_555 1_555
C67_8 N45_8 1_555 1_555
C70_8 N51_8 1_555 1_555
H45_8 C67_8 1_555 1_555
H46_8 C67_8 1_555 1_555
H51_8 C70_8 1_555 1_555
H52_8 C70_8 1_555 1_555
C71_8 C22_8 1_555 1_555
C74_8 C25_8 1_555 1_555
C75_8 C26_8 1_555 1_555
C81_8 C32_8 1_555 1_555
H53_8 C71_8 1_555 1_555
H56_8 C74_8 1_555 1_555
H57_8 C75_8 1_555 1_555
H63_8 C81_8 1_555 1_555
C82_8 C71_8 1_555 1_555
C85_8 C74_8 1_555 1_555
C86_8 C75_8 1_555 1_555
C92_8 C81_8 1_555 1_555
H64_8 C82_8 1_555 1_555
H67_8 C85_8 1_555 1_555
H68_8 C86_8 1_555 1_555
H74_8 C92_8 1_555 1_555
C93_8 C82_8 1_555 1_555
C96_8 C85_8 1_555 1_555
C97_8 C86_8 1_555 1_555
C103_8 C92_8 1_555 1_555
H75_8 C93_8 1_555 1_555
H78_8 C96_8 1_555 1_555
H79_8 C97_8 1_555 1_555
H85_8 C103_8 1_555 1_555
C104_8 C33_8 1_555 1_555
C107_8 C36_8 1_555 1_555
C108_8 C37_8 1_555 1_555
C114_8 C43_8 1_555 1_555
H86_8 C104_8 1_555 1_555
H89_8 C107_8 1_555 1_555
H90_8 C108_8 1_555 1_555
H96_8 C114_8 1_555 1_555
N3_8 C5_8 1_555 1_555
N4_8 C5_8 1_555 1_555
N39_3 C55_8 1_555 1_555
N30_8 C58_8 1_555 1_555
N40_2 C59_8 1_555 1_555
N41_3 C64_8 1_555 1_555
N37_8 C65_8 1_555 1_555
C14_8 C47_8 1_555 1_555
C20_8 C53_8 1_555 1_555
N45_8 C58_8 1_555 1_555
N46_8 C59_8 1_555 1_555
N46_8 C67_8 1_555 1_555
N51_8 C64_8 1_555 1_555
N52_8 C65_8 1_555 1_555
N52_8 C70_8 1_555 1_555
C93_8 C104_8 1_555 1_555
C96_8 C107_8 1_555 1_555
C97_8 C108_8 1_555 1_555
C103_8 C114_8 1_555 1_555
C97_9 C86_9 1_555 1_555
H79_9 C97_9 1_555 1_555
C108_9 C37_9 1_555 1_555
H90_9 C108_9 1_555 1_555
C97_9 C108_9 1_555 1_555
C75_9 C26_9 1_555 1_555
H57_9 C75_9 1_555 1_555
Zn7_9 N3_9 1_555 1_555
N1_9 N2_9 1_555 1_555
N3_9 C4_9 1_555 1_555
C1_9 H1_9 1_555 1_555
N4_9 C1_9 1_555 1_555
C4_9 C1_9 1_555 1_555
H3_9 C4_9 1_555 1_555
C5_9 N1_9 1_555 1_555
C6_9 N4_9 1_555 1_555
Zn4 N27_5 1_555 1_555
N5_9 N16_9 1_555 1_555
N16_9 C22_9 1_555 1_555
C14_9 H12_9 1_555 1_555
C18_5 H16_5 1_555 1_555
C22_9 C33_9 1_555 1_555
C33_9 H20_9 1_555 1_555
C41_5 H28_5 1_555 1_555
N45_9 C14_9 1_555 1_555
N49_5 C18_5 1_555 1_555
H34_9 C47_9 1_555 1_555
H38_5 C51_5 1_555 1_555
C55_9 N5_9 1_555 1_555
C71_9 C22_9 1_555 1_555
C72_5 C23_5 1_555 1_555
H53_9 C71_9 1_555 1_555
H54_5 C72_5 1_555 1_555
C82_9 C71_9 1_555 1_555
H64_9 C82_9 1_555 1_555
C93_9 C82_9 1_555 1_555
C101_5 C90_5 1_555 1_555
H75_9 C93_9 1_555 1_555
H83_5 C101_5 1_555 1_555
C104_9 C33_9 1_555 1_555
C112_5 C41_5 1_555 1_555
H86_9 C104_9 1_555 1_555
H94_5 C112_5 1_555 1_555
N3_9 C5_9 1_555 1_555
N4_9 C5_9 1_555 1_555
N27_5 C55_9 1_555 1_555
C14_9 C47_9 1_555 1_555
C18_5 C51_5 1_555 1_555
C93_9 C104_9 1_555 1_555
C101_5 C112_5 1_555 1_555
C7_9 C2_9 1_555 1_555
H5_9 C7_9 1_555 1_555
Zn4_3 N29_5 1_555 1_555
N6_5 N17_5 1_555 1_555
N7_5 N18_5 1_555 1_555
N8_9 N19_9 1_555 1_555
N9_9 N20_9 1_555 1_555
N18_5 C24_5 1_555 1_555
N19_9 C25_9 1_555 1_555
N28_5 Zn7_10 1_555 1_555
N30_9 Zn7_10 1_555 1_555
N38_3 C48_9 1_555 1_555
C12_5 H10_5 1_555 1_555
C15_9 H13_9 1_555 1_555
C24_5 C35_5 1_555 1_555
C25_9 C36_9 1_555 1_555
C35_5 H22_5 1_555 1_555
C36_9 H23_9 1_555 1_555
N43_5 C12_5 1_555 1_555
N46_9 C15_9 1_555 1_555
C45_5 N28_5 1_555 1_555
C48_9 C15_9 1_555 1_555
H32_5 C45_5 1_555 1_555
H35_9 C48_9 1_555 1_555
C56_5 N6_5 1_555 1_555
C57_5 N7_5 1_555 1_555
C58_9 N8_9 1_555 1_555
C59_9 N9_9 1_555 1_555
C66_5 N43_5 1_555 1_555
C73_5 C24_5 1_555 1_555
C74_9 C25_9 1_555 1_555
H55_5 C73_5 1_555 1_555
H56_9 C74_9 1_555 1_555
C84_5 C73_5 1_555 1_555
C85_9 C74_9 1_555 1_555
H66_5 C84_5 1_555 1_555
H67_9 C85_9 1_555 1_555
C95_5 C84_5 1_555 1_555
C96_9 C85_9 1_555 1_555
H77_5 C95_5 1_555 1_555
H78_9 C96_9 1_555 1_555
C106_5 C35_5 1_555 1_555
C107_9 C36_9 1_555 1_555
H88_5 C106_5 1_555 1_555
H89_9 C107_9 1_555 1_555
N28_5 C56_5 1_555 1_555
N29_5 C57_5 1_555 1_555
N30_9 C58_9 1_555 1_555
N38_3 C59_9 1_555 1_555
C12_5 C45_5 1_555 1_555
N43_5 C56_5 1_555 1_555
N46_9 C59_9 1_555 1_555
N46_9 C67_9 1_555 1_555
C95_5 C106_5 1_555 1_555
C96_9 C107_9 1_555 1_555
Zn7_12 N35_5 1_555 1_555
N12_5 N23_5 1_555 1_555
N13_5 N24_5 1_555 1_555
N23_5 C29_5 1_555 1_555
N24_5 C30_5 1_555 1_555
N34_5 Zn4_2 1_555 1_555
N35_5 C52_5 1_555 1_555
C11_9 H9_9 1_555 1_555
C19_5 H17_5 1_555 1_555
C29_5 C40_5 1_555 1_555
C40_5 H27_5 1_555 1_555
N50_5 C19_5 1_555 1_555
C44_9 C11_9 1_555 1_555
C52_5 C19_5 1_555 1_555
H31_9 C44_9 1_555 1_555
H39_5 C52_5 1_555 1_555
C62_5 N12_5 1_555 1_555
C63_5 N13_5 1_555 1_555
C78_5 C29_5 1_555 1_555
C79_5 C30_5 1_555 1_555
H60_5 C78_5 1_555 1_555
H61_5 C79_5 1_555 1_555
C89_5 C78_5 1_555 1_555
H71_5 C89_5 1_555 1_555
C94_5 C83_5 1_555 1_555
C100_5 C89_5 1_555 1_555
H76_5 C94_5 1_555 1_555
H82_5 C100_5 1_555 1_555
C105_5 C34_5 1_555 1_555
C111_5 C40_5 1_555 1_555
H87_5 C105_5 1_555 1_555
H93_5 C111_5 1_555 1_555
N34_5 C62_5 1_555 1_555
N35_5 C63_5 1_555 1_555
C11_9 N42_9 1_555 1_555
N50_5 C63_5 1_555 1_555
N50_5 C69_5 1_555 1_555
C94_5 C105_5 1_555 1_555
C100_5 C111_5 1_555 1_555
C9_9 C8_9 1_555 1_555
H7_9 C9_9 1_555 1_555
C10_9 C3_9 1_555 1_555
H8_9 C10_9 1_555 1_555
N39_5 Zn4_4 1_555 1_555
C13_5 H11_5 1_555 1_555
N44_5 C13_5 1_555 1_555
C46_5 C13_5 1_555 1_555
H33_5 C46_5 1_555 1_555
C9_9 C10_9 1_555 1_555
Zn7_11 N3_10 1_555 1_555
N1_10 N2_10 1_555 1_555
N2_10 C2_10 1_555 1_555
N3_10 C4_10 1_555 1_555
C1_10 H1_10 1_555 1_555
C2_10 C3_10 1_555 1_555
C3_10 H2_10 1_555 1_555
N4_10 C1_10 1_555 1_555
C4_10 C1_10 1_555 1_555
H3_10 C4_10 1_555 1_555
C5_10 N1_10 1_555 1_555
C6_10 N4_10 1_555 1_555
H4_10 C6_10 1_555 1_555
C7_10 C2_10 1_555 1_555
H5_10 C7_10 1_555 1_555
C8_10 C7_10 1_555 1_555
H6_10 C8_10 1_555 1_555
C9_10 C8_10 1_555 1_555
H7_10 C9_10 1_555 1_555
C10_10 C3_10 1_555 1_555
H8_10 C10_10 1_555 1_555
Zn5 N27_6 1_555 1_555
Zn5_2 N29_6 1_555 1_555
Zn7_7 N35_6 1_555 1_555
N5_10 N16_10 1_555 1_555
N6_6 N17_6 1_555 1_555
N7_6 N18_6 1_555 1_555
N8_10 N19_10 1_555 1_555
N9_10 N20_10 1_555 1_555
N12_6 N23_6 1_555 1_555
N13_6 N24_6 1_555 1_555
N16_10 C22_10 1_555 1_555
N17_6 C23_6 1_555 1_555
N18_6 C24_6 1_555 1_555
N19_10 C25_10 1_555 1_555
N23_6 C29_6 1_555 1_555
N27_6 C44_10 1_555 1_555
N28_6 Zn7_11 1_555 1_555
N29_6 C46_6 1_555 1_555
N30_10 Zn7_11 1_555 1_555
N40_3 C48_10 1_555 1_555
N34_6 Zn5 1_555 1_555
N35_6 C52_6 1_555 1_555
N39_6 Zn5_2 1_555 1_555
C11_10 H9_10 1_555 1_555
C12_6 H10_6 1_555 1_555
C13_6 H11_6 1_555 1_555
C14_10 H12_10 1_555 1_555
C15_10 H13_10 1_555 1_555
C18_6 H16_6 1_555 1_555
C19_6 H17_6 1_555 1_555
C22_10 C33_10 1_555 1_555
C23_6 C34_6 1_555 1_555
C24_6 C35_6 1_555 1_555
C25_10 C36_10 1_555 1_555
C29_6 C40_6 1_555 1_555
C33_10 H20_10 1_555 1_555
C34_6 H21_6 1_555 1_555
C35_6 H22_6 1_555 1_555
C36_10 H23_10 1_555 1_555
C40_6 H27_6 1_555 1_555
N42_10 C6_10 1_555 1_555
N43_6 C12_6 1_555 1_555
N44_6 C13_6 1_555 1_555
N45_10 C14_10 1_555 1_555
N46_10 C15_10 1_555 1_555
N49_6 C18_6 1_555 1_555
N50_6 C19_6 1_555 1_555
C44_10 C11_10 1_555 1_555
C45_6 N28_6 1_555 1_555
C46_6 C13_6 1_555 1_555
C47_10 N30_10 1_555 1_555
C48_10 C15_10 1_555 1_555
C51_6 N34_6 1_555 1_555
C52_6 C19_6 1_555 1_555
H31_10 C44_10 1_555 1_555
H32_6 C45_6 1_555 1_555
H33_6 C46_6 1_555 1_555
H34_10 C47_10 1_555 1_555
H35_10 C48_10 1_555 1_555
H38_6 C51_6 1_555 1_555
H39_6 C52_6 1_555 1_555
C55_10 N5_10 1_555 1_555
C56_6 N6_6 1_555 1_555
C57_6 N7_6 1_555 1_555
C58_10 N8_10 1_555 1_555
C59_10 N9_10 1_555 1_555
C62_6 N12_6 1_555 1_555
C63_6 N13_6 1_555 1_555
C66_6 N43_6 1_555 1_555
C67_10 N45_10 1_555 1_555
C69_6 N49_6 1_555 1_555
H42_10 C6_10 1_555 1_555
H43_6 C66_6 1_555 1_555
H44_6 C66_6 1_555 1_555
H45_10 C67_10 1_555 1_555
H46_10 C67_10 1_555 1_555
H49_6 C69_6 1_555 1_555
H50_6 C69_6 1_555 1_555
C71_10 C22_10 1_555 1_555
C72_6 C23_6 1_555 1_555
C73_6 C24_6 1_555 1_555
C74_10 C25_10 1_555 1_555
C78_6 C29_6 1_555 1_555
H53_10 C71_10 1_555 1_555
H54_6 C72_6 1_555 1_555
H55_6 C73_6 1_555 1_555
H56_10 C74_10 1_555 1_555
H60_6 C78_6 1_555 1_555
C82_10 C71_10 1_555 1_555
C83_6 C72_6 1_555 1_555
C84_6 C73_6 1_555 1_555
C85_10 C74_10 1_555 1_555
C89_6 C78_6 1_555 1_555
H64_10 C82_10 1_555 1_555
H65_6 C83_6 1_555 1_555
H66_6 C84_6 1_555 1_555
H67_10 C85_10 1_555 1_555
H71_6 C89_6 1_555 1_555
C93_10 C82_10 1_555 1_555
C94_6 C83_6 1_555 1_555
C95_6 C84_6 1_555 1_555
C96_10 C85_10 1_555 1_555
C100_6 C89_6 1_555 1_555
H75_10 C93_10 1_555 1_555
H76_6 C94_6 1_555 1_555
H77_6 C95_6 1_555 1_555
H78_10 C96_10 1_555 1_555
H82_6 C100_6 1_555 1_555
C104_10 C33_10 1_555 1_555
C105_6 C34_6 1_555 1_555
C106_6 C35_6 1_555 1_555
C107_10 C36_10 1_555 1_555
C111_6 C40_6 1_555 1_555
H86_10 C104_10 1_555 1_555
H87_6 C105_6 1_555 1_555
H88_6 C106_6 1_555 1_555
H89_10 C107_10 1_555 1_555
H93_6 C111_6 1_555 1_555
N3_10 C5_10 1_555 1_555
N4_10 C5_10 1_555 1_555
C9_10 C10_10 1_555 1_555
N27_6 C55_10 1_555 1_555
N28_6 C56_6 1_555 1_555
N29_6 C57_6 1_555 1_555
N30_10 C58_10 1_555 1_555
N40_3 C59_10 1_555 1_555
N34_6 C62_6 1_555 1_555
N35_6 C63_6 1_555 1_555
C11_10 N42_10 1_555 1_555
C12_6 C45_6 1_555 1_555
C14_10 C47_10 1_555 1_555
C18_6 C51_6 1_555 1_555
N42_10 C55_10 1_555 1_555
N43_6 C56_6 1_555 1_555
N44_6 C57_6 1_555 1_555
N44_6 C66_6 1_555 1_555
N45_10 C58_10 1_555 1_555
N46_10 C59_10 1_555 1_555
N46_10 C67_10 1_555 1_555
N49_6 C62_6 1_555 1_555
N50_6 C63_6 1_555 1_555
N50_6 C69_6 1_555 1_555
C93_10 C104_10 1_555 1_555
C94_6 C105_6 1_555 1_555
C95_6 C106_6 1_555 1_555
C96_10 C107_10 1_555 1_555
C100_6 C111_6 1_555 1_555
C30_6 C41_6 1_555 1_555
C79_6 C30_6 1_555 1_555
H61_6 C79_6 1_555 1_555
C90_6 C79_6 1_555 1_555
H72_6 C90_6 1_555 1_555
C101_6 C90_6 1_555 1_555
H83_6 C101_6 1_555 1_555
C112_6 C41_6 1_555 1_555
H94_6 C112_6 1_555 1_555
C101_6 C112_6 1_555 1_555
C26_10 C37_10 1_555 1_555
C75_10 C26_10 1_555 1_555
H57_10 C75_10 1_555 1_555
C86_10 C75_10 1_555 1_555
H68_10 C86_10 1_555 1_555
C97_10 C86_10 1_555 1_555
H79_10 C97_10 1_555 1_555
C108_10 C37_10 1_555 1_555
H90_10 C108_10 1_555 1_555
C97_10 C108_10 1_555 1_555
C2_11 C3_11 1_555 1_555
C7_11 C2_11 1_555 1_555
H5_11 C7_11 1_555 1_555
C8_11 C7_11 1_555 1_555
H6_11 C8_11 1_555 1_555
C9_11 C8_11 1_555 1_555
H7_11 C9_11 1_555 1_555
C10_11 C3_11 1_555 1_555
H8_11 C10_11 1_555 1_555
N8_11 N19_11 1_555 1_555
N9_11 N20_11 1_555 1_555
N19_11 C25_11 1_555 1_555
N20_11 C26_11 1_555 1_555
N30_11 Zn7_7 1_555 1_555
N38_4 C48_11 1_555 1_555
C15_11 H13_11 1_555 1_555
C25_11 C36_11 1_555 1_555
C36_11 H23_11 1_555 1_555
N46_11 C15_11 1_555 1_555
C48_11 C15_11 1_555 1_555
H35_11 C48_11 1_555 1_555
C58_11 N8_11 1_555 1_555
C59_11 N9_11 1_555 1_555
C74_11 C25_11 1_555 1_555
C75_11 C26_11 1_555 1_555
H56_11 C74_11 1_555 1_555
H57_11 C75_11 1_555 1_555
C85_11 C74_11 1_555 1_555
H67_11 C85_11 1_555 1_555
C96_11 C85_11 1_555 1_555
H78_11 C96_11 1_555 1_555
C107_11 C36_11 1_555 1_555
H89_11 C107_11 1_555 1_555
C9_11 C10_11 1_555 1_555
N30_11 C58_11 1_555 1_555
N38_4 C59_11 1_555 1_555
N46_11 C59_11 1_555 1_555
N46_11 C67_11 1_555 1_555
C96_11 C107_11 1_555 1_555
Zn7_8 N3_11 1_555 1_555
N1_11 N2_11 1_555 1_555
N3_11 C4_11 1_555 1_555
C1_11 H1_11 1_555 1_555
N4_11 C1_11 1_555 1_555
C4_11 C1_11 1_555 1_555
H3_11 C4_11 1_555 1_555
C5_11 N1_11 1_555 1_555
C6_11 N4_11 1_555 1_555
H4_11 C6_11 1_555 1_555
N5_11 N16_11 1_555 1_555
N16_11 C22_11 1_555 1_555
N39_6 C44_11 1_555 1_555
C11_11 H9_11 1_555 1_555
C14_11 H12_11 1_555 1_555
C22_11 C33_11 1_555 1_555
C33_11 H20_11 1_555 1_555
C37_11 H24_11 1_555 1_555
N42_11 C6_11 1_555 1_555
N45_11 C14_11 1_555 1_555
C44_11 C11_11 1_555 1_555
H31_11 C44_11 1_555 1_555
H34_11 C47_11 1_555 1_555
C55_11 N5_11 1_555 1_555
H42_11 C6_11 1_555 1_555
C71_11 C22_11 1_555 1_555
H53_11 C71_11 1_555 1_555
C82_11 C71_11 1_555 1_555
H64_11 C82_11 1_555 1_555
C93_11 C82_11 1_555 1_555
C97_11 C86_11 1_555 1_555
H75_11 C93_11 1_555 1_555
H79_11 C97_11 1_555 1_555
C104_11 C33_11 1_555 1_555
C108_11 C37_11 1_555 1_555
H86_11 C104_11 1_555 1_555
H90_11 C108_11 1_555 1_555
N3_11 C5_11 1_555 1_555
N4_11 C5_11 1_555 1_555
N39_6 C55_11 1_555 1_555
C11_11 N42_11 1_555 1_555
C14_11 C47_11 1_555 1_555
N42_11 C55_11 1_555 1_555
C93_11 C104_11 1_555 1_555
C97_11 C108_11 1_555 1_555
C3_12 H2_12 1_555 1_555
C9_12 C8_12 1_555 1_555
H7_12 C9_12 1_555 1_555
C10_12 C3_12 1_555 1_555
H8_12 C10_12 1_555 1_555
C11_12 H9_12 1_555 1_555
C44_12 C11_12 1_555 1_555
H31_12 C44_12 1_555 1_555
C9_12 C10_12 1_555 1_555
C11_12 N42_12 1_555 1_555
Zn7_12 N3_12 1_555 1_555
N1_12 N2_12 1_555 1_555
N2_12 C2_12 1_555 1_555
N3_12 C4_12 1_555 1_555
C1_12 H1_12 1_555 1_555
N4_12 C1_12 1_555 1_555
C4_12 C1_12 1_555 1_555
H3_12 C4_12 1_555 1_555
C5_12 N1_12 1_555 1_555
C6_12 N4_12 1_555 1_555
C7_12 C2_12 1_555 1_555
H5_12 C7_12 1_555 1_555
N5_12 N16_12 1_555 1_555
N8_12 N19_12 1_555 1_555
N9_12 N20_12 1_555 1_555
N16_12 C22_12 1_555 1_555
N19_12 C25_12 1_555 1_555
N20_12 C26_12 1_555 1_555
N30_12 Zn7_12 1_555 1_555
N40_4 C48_12 1_555 1_555
C14_12 H12_12 1_555 1_555
C15_12 H13_12 1_555 1_555
C22_12 C33_12 1_555 1_555
C25_12 C36_12 1_555 1_555
C26_12 C37_12 1_555 1_555
C33_12 H20_12 1_555 1_555
C36_12 H23_12 1_555 1_555
C37_12 H24_12 1_555 1_555
N45_12 C14_12 1_555 1_555
N46_12 C15_12 1_555 1_555
C47_12 N30_12 1_555 1_555
C48_12 C15_12 1_555 1_555
H34_12 C47_12 1_555 1_555
H35_12 C48_12 1_555 1_555
C55_12 N5_12 1_555 1_555
C58_12 N8_12 1_555 1_555
C59_12 N9_12 1_555 1_555
C67_12 N45_12 1_555 1_555
H45_12 C67_12 1_555 1_555
H46_12 C67_12 1_555 1_555
C71_12 C22_12 1_555 1_555
C74_12 C25_12 1_555 1_555
C75_12 C26_12 1_555 1_555
H53_12 C71_12 1_555 1_555
H56_12 C74_12 1_555 1_555
H57_12 C75_12 1_555 1_555
C82_12 C71_12 1_555 1_555
C85_12 C74_12 1_555 1_555
C86_12 C75_12 1_555 1_555
H64_12 C82_12 1_555 1_555
H67_12 C85_12 1_555 1_555
H68_12 C86_12 1_555 1_555
C93_12 C82_12 1_555 1_555
C96_12 C85_12 1_555 1_555
C97_12 C86_12 1_555 1_555
H75_12 C93_12 1_555 1_555
H78_12 C96_12 1_555 1_555
H79_12 C97_12 1_555 1_555
C104_12 C33_12 1_555 1_555
C107_12 C36_12 1_555 1_555
C108_12 C37_12 1_555 1_555
H86_12 C104_12 1_555 1_555
H89_12 C107_12 1_555 1_555
H90_12 C108_12 1_555 1_555
N3_12 C5_12 1_555 1_555
N4_12 C5_12 1_555 1_555
N39_5 C55_12 1_555 1_555
N30_12 C58_12 1_555 1_555
N40_4 C59_12 1_555 1_555
C14_12 C47_12 1_555 1_555
N45_12 C58_12 1_555 1_555
N46_12 C59_12 1_555 1_555
N46_12 C67_12 1_555 1_555
C93_12 C104_12 1_555 1_555
C96_12 C107_12 1_555 1_555
C97_12 C108_12 1_555 1_555
F1 B1 1_555 1_555
F2 B1 1_555 1_555
B1 F3 1_555 1_555
F4 B1 1_555 1_555
F1_2 B1_2 1_555 1_555
F2_2 B1_2 1_555 1_555
B1_2 F3_2 1_555 1_555
F4_2 B1_2 1_555 1_555
F1_3 B1_3 1_555 1_555
F2_3 B1_3 1_555 1_555
B1_3 F3_3 1_555 1_555
F4_3 B1_3 1_555 1_555
F1_4 B1_4 1_555 1_555
F2_4 B1_4 1_555 1_555
B1_4 F3_4 1_555 1_555
F4_4 B1_4 1_555 1_555
F1_5 B1_5 1_555 1_555
F2_5 B1_5 1_555 1_555
B1_5 F3_5 1_555 1_555
F4_5 B1_5 1_555 1_555
F1_6 B1_6 1_555 1_555
F2_6 B1_6 1_555 1_555
B1_6 F3_6 1_555 1_555
F4_6 B1_6 1_555 1_555
F1_7 B1_7 1_555 1_555
F2_7 B1_7 1_555 1_555
B1_7 F3_7 1_555 1_555
F4_7 B1_7 1_555 1_555
F1_8 B1_8 1_555 1_555
F2_8 B1_8 1_555 1_555
B1_8 F3_8 1_555 1_555
F4_8 B1_8 1_555 1_555
F1_9 B1_9 1_555 1_555
F2_9 B1_9 1_555 1_555
B1_9 F3_9 1_555 1_555
F4_9 B1_9 1_555 1_555
F1_10 B1_10 1_555 1_555
F2_10 B1_10 1_555 1_555
B1_10 F3_10 1_555 1_555
F4_10 B1_10 1_555 1_555
F1_11 B1_11 1_555 1_555
F2_11 B1_11 1_555 1_555
B1_11 F3_11 1_555 1_555
F4_11 B1_11 1_555 1_555
F1_12 B1_12 1_555 1_555
F2_12 B1_12 1_555 1_555
B1_12 F3_12 1_555 1_555
F4_12 B1_12 1_555 1_555
F1_13 B1_13 1_555 1_555
F2_13 B1_13 1_555 1_555
B1_13 F3_13 1_555 1_555
F4_13 B1_13 1_555 1_555
F1_14 B1_14 1_555 1_555
F2_14 B1_14 1_555 1_555
B1_14 F3_14 1_555 1_555
F4_14 B1_14 1_555 1_555
F1_15 B1_15 1_555 1_555
F2_15 B1_15 1_555 1_555
B1_15 F3_15 1_555 1_555
F4_15 B1_15 1_555 1_555
F1_16 B1_16 1_555 1_555
F2_16 B1_16 1_555 1_555
B1_16 F3_16 1_555 1_555
F4_16 B1_16 1_555 1_555
F1_17 B1_17 1_555 1_555
F2_17 B1_17 1_555 1_555
B1_17 F3_17 1_555 1_555
F4_17 B1_17 1_555 1_555
F1_18 B1_18 1_555 1_555
F2_18 B1_18 1_555 1_555
B1_18 F3_18 1_555 1_555
F4_18 B1_18 1_555 1_555
F1_19 B1_19 1_555 1_555
F2_19 B1_19 1_555 1_555
B1_19 F3_19 1_555 1_555
F4_19 B1_19 1_555 1_555
F1_20 B1_20 1_555 1_555
F2_20 B1_20 1_555 1_555
B1_20 F3_20 1_555 1_555
F4_20 B1_20 1_555 1_555
F1_21 B1_21 1_555 1_555
F2_21 B1_21 1_555 1_555
B1_21 F3_21 1_555 1_555
F4_21 B1_21 1_555 1_555
F1_22 B1_22 1_555 1_555
F2_22 B1_22 1_555 1_555
B1_22 F3_22 1_555 1_555
F4_22 B1_22 1_555 1_555
F1_23 B1_23 1_555 1_555
F2_23 B1_23 1_555 1_555
B1_23 F3_23 1_555 1_555
F4_23 B1_23 1_555 1_555
F1_24 B1_24 1_555 1_555
F2_24 B1_24 1_555 1_555
B1_24 F3_24 1_555 1_555
F4_24 B1_24 1_555 1_555
F1_25 B1_25 1_555 1_555
F2_25 B1_25 1_555 1_555
B1_25 F3_25 1_555 1_555
F4_25 B1_25 1_555 1_555
F1_26 B1_26 1_555 1_555
F2_26 B1_26 1_555 1_555
B1_26 F3_26 1_555 1_555
F4_26 B1_26 1_555 1_555
F1_27 B1_27 1_555 1_555
F2_27 B1_27 1_555 1_555
B1_27 F3_27 1_555 1_555
F4_27 B1_27 1_555 1_555
F1_28 B1_28 1_555 1_555
F2_28 B1_28 1_555 1_555
B1_28 F3_28 1_555 1_555
F4_28 B1_28 1_555 1_555
F1_29 B1_29 1_555 1_555
F2_29 B1_29 1_555 1_555
B1_29 F3_29 1_555 1_555
F4_29 B1_29 1_555 1_555
F1_30 B1_30 1_555 1_555
F2_30 B1_30 1_555 1_555
B1_30 F3_30 1_555 1_555
F4_30 B1_30 1_555 1_555
F1_31 B1_31 1_555 1_555
F2_31 B1_31 1_555 1_555
B1_31 F3_31 1_555 1_555
F4_31 B1_31 1_555 1_555
F1_32 B1_32 1_555 1_555
F2_32 B1_32 1_555 1_555
B1_32 F3_32 1_555 1_555
F4_32 B1_32 1_555 1_555
F1_33 B1_33 1_555 1_555
F2_33 B1_33 1_555 1_555
B1_33 F3_33 1_555 1_555
F4_33 B1_33 1_555 1_555
F1_34 B1_34 1_555 1_555
F2_34 B1_34 1_555 1_555
B1_34 F3_34 1_555 1_555
F4_34 B1_34 1_555 1_555
F1_35 B1_35 1_555 1_555
F2_35 B1_35 1_555 1_555
B1_35 F3_35 1_555 1_555
F4_35 B1_35 1_555 1_555
F1_36 B1_36 1_555 1_555
F2_36 B1_36 1_555 1_555
B1_36 F3_36 1_555 1_555
F4_36 B1_36 1_555 1_555
F1_37 B1_37 1_555 1_555
F2_37 B1_37 1_555 1_555
B1_37 F3_37 1_555 1_555
F4_37 B1_37 1_555 1_555
F1_38 B1_38 1_555 1_555
F2_38 B1_38 1_555 1_555
B1_38 F3_38 1_555 1_555
F4_38 B1_38 1_555 1_555
F1_39 B1_39 1_555 1_555
F2_39 B1_39 1_555 1_555
B1_39 F3_39 1_555 1_555
F4_39 B1_39 1_555 1_555
F1_40 B1_40 1_555 1_555
F2_40 B1_40 1_555 1_555
B1_40 F3_40 1_555 1_555
F4_40 B1_40 1_555 1_555
F1_41 B1_41 1_555 1_555
F2_41 B1_41 1_555 1_555
B1_41 F3_41 1_555 1_555
F4_41 B1_41 1_555 1_555
F1_42 B1_42 1_555 1_555
F2_42 B1_42 1_555 1_555
B1_42 F3_42 1_555 1_555
F4_42 B1_42 1_555 1_555
F1_43 B1_43 1_555 1_555
F2_43 B1_43 1_555 1_555
B1_43 F3_43 1_555 1_555
F4_43 B1_43 1_555 1_555
F1_44 B1_44 1_555 1_555
F2_44 B1_44 1_555 1_555
B1_44 F3_44 1_555 1_555
F4_44 B1_44 1_555 1_555
F1_45 B1_45 1_555 1_555
F2_45 B1_45 1_555 1_555
B1_45 F3_45 1_555 1_555
F4_45 B1_45 1_555 1_555
F1_46 B1_46 1_555 1_555
F2_46 B1_46 1_555 1_555
B1_46 F3_46 1_555 1_555
F4_46 B1_46 1_555 1_555
F1_47 B1_47 1_555 1_555
F2_47 B1_47 1_555 1_555
B1_47 F3_47 1_555 1_555
F4_47 B1_47 1_555 1_555
F1_48 B1_48 1_555 1_555
F2_48 B1_48 1_555 1_555
B1_48 F3_48 1_555 1_555
F4_48 B1_48 1_555 1_555

#END
