
###############################################################################
#
# This file contains modified crystal structure data generated from the
# MOF subset of the Cambridge Structural Database (CSD) v543 
# hosted by the Cambridge Crystallographic Data Centre (CCDC).
#
# This work is licensed under the Creative Commons
# Attribution-NonCommercial-ShareAlike 4.0 International License.
# To view a copy of this license, visit
# http://creativecommons.org/licenses/by-nc-sa/4.0/
# or send a letter to
# Creative Commons, PO Box 1866, Mountain View, CA 94042, USA.
#
# CIF created using the CSD Python API on 29 September 2022
# The structure has been converted into the P1 space group
# The structure has a 3D framework
# The original CSD entry WUWRAI is in the cubic crystal system
# The framework has been calculated to contain at least 10.0% void space
# The void calculation uses a probe of radius 1.32A, grid spacing 0.4
# The framework is charged, counterions have been retained in the structure
#
###############################################################################

data_WUWRAI
_chemical_formula_moiety         '(C912 H768 Cl48 N384 O192 Zn34 20+)n'
_symmetry_cell_setting           triclinic
_symmetry_space_group_name_H-M   'P 1'
_symmetry_Int_Tables_number      1
_space_group_name_Hall           'P 1'
loop_
_symmetry_equiv_pos_site_id
_symmetry_equiv_pos_as_xyz
1 x,y,z
_cell_length_a                   31.5108(6)
_cell_length_b                   31.5108(6)
_cell_length_c                   31.5108(6)
_cell_angle_alpha                90
_cell_angle_beta                 90
_cell_angle_gamma                90
_cell_volume                     31288
loop_
_atom_site_label
_atom_site_type_symbol
_atom_site_fract_x
_atom_site_fract_y
_atom_site_fract_z
Zn7 Zn 0.3750 -0.0000 0.2500
C21 C 0.32898(11) 0.02200(11) 0.12785(11)
H19 H 0.3310 0.0349 0.1007
C32 C 0.35970(12) 0.01991(11) 0.15788(11)
H30 H 0.3875 0.0313 0.1550
C59 C 0.03364(11) 0.01497(12) 0.19040(12)
C62 C 0.19040(12) 0.03364(11) 0.01497(12)
H40 H 0.2922 0.0441 0.0073
C70 C 0.06106(13) 0.04404(13) 0.17283(13)
C73 C 0.17283(13) 0.06106(13) 0.04404(13)
H46 H 0.0906 0.0420 0.1783
H49 H 0.1783 0.0906 0.0420
C81 C 0.04555(15) 0.07658(14) 0.14705(14)
C84 C 0.14705(14) 0.04555(15) 0.07658(14)
H57 H 0.0647 0.0963 0.1347
H60 H 0.1347 0.0647 0.0963
C92 C 0.00281(14) 0.08020(13) 0.13941(13)
C95 C 0.13941(13) 0.00281(14) 0.08020(13)
H95 H 0.2307 0.0007 0.1467
H96 H 0.2493 0.0193 0.1033
N15 N 0.29428(8) 0.00166(8) 0.14466(8)
Zn6 Zn 0.1250 -0.0000 0.7500
C19 C 0.17102(11) 0.02200(11) 0.87215(11)
H17 H 0.1690 0.0349 0.8993
C30 C 0.14030(12) 0.01991(11) 0.84212(11)
H28 H 0.1125 0.0313 0.8450
C64 C 0.30960(12) 0.03364(11) 0.98503(12)
H38 H 0.2078 0.0441 0.9927
C75 C 0.32717(13) 0.06106(13) 0.95596(13)
H51 H 0.3217 0.0906 0.9580
C86 C 0.35295(14) 0.04555(15) 0.92342(14)
H62 H 0.3653 0.0647 0.9037
C97 C 0.36059(13) 0.00281(14) 0.91980(13)
H93 H 0.2693 0.0007 0.8533
H94 H 0.2507 0.0193 0.8967
N13 N 0.20572(8) 0.00166(8) 0.85534(8)
Zn1 Zn -0.0000 0.7500 0.1250
C1 C 0.12215(11) 0.72800(11) 0.07898(11)
H1 H 0.1493 0.7151 0.0810
C2 C 0.09212(11) 0.73009(11) 0.10970(12)
H2 H 0.0950 0.7187 0.1375
C3 C 0.06649(10) 0.76227(10) 0.05550(11)
C10 C 0.1250 0.75303(10) 0.00303(10)
N1 N 0.10534(8) 0.74834(8) 0.04428(8)
N2 N 0.05694(8) 0.75105(9) 0.09496(8)
N3 N 0.04203(9) 0.78287(8) 0.02491(9)
N4 N 0.00884(9) 0.79972(8) 0.04050(9)
Zn2 Zn 0.2500 0.8750 0.0000
Zn3 Zn 0.1250 0.5000 0.2500
Zn7_2 Zn 0.3750 1.0000 0.2500
C13 C 0.07898(11) 0.62215(11) 0.27200(11)
C14 C 0.02200(11) 0.87215(11) 0.17102(11)
C20 C 0.22800(11) 0.92102(11) 0.12215(11)
H11 H 0.0810 0.6493 0.2849
H12 H 0.0349 0.8993 0.1690
H18 H 0.2151 0.9190 0.1493
C24 C 0.10970(12) 0.59212(11) 0.26991(11)
C25 C 0.01991(11) 0.84212(11) 0.14030(12)
C31 C 0.23009(11) 0.89030(12) 0.09212(11)
H22 H 0.1375 0.5950 0.2813
H23 H 0.0313 0.8450 0.1125
H29 H 0.2187 0.8625 0.0950
C33 C 0.18351(10) 0.80550(11) 0.01227(10)
C34 C 0.01227(10) 0.68351(10) 0.19450(11)
C35 C 0.05550(11) 0.56649(10) 0.23773(10)
C42 C 0.26227(10) 0.94450(11) 0.06649(10)
C43 C 0.30550(11) 0.98773(10) 0.18351(10)
C44 C 0.26856(11) 0.75942(11) 0.06763(11)
C45 C 0.06763(11) 0.76856(11) 0.24058(11)
C46 C 0.00942(11) 0.48144(11) 0.18237(11)
C49 C 0.01856(11) 0.68237(11) 0.00942(11)
C51 C 0.18237(11) 0.99058(11) 0.01856(11)
C54 C 0.25942(11) 0.93237(11) 0.26856(11)
C55 C 0.26497(12) 0.71636(11) 0.05960(12)
C56 C 0.05960(12) 0.76497(12) 0.28364(11)
C65 C 0.21636(11) 0.94040(12) 0.26497(12)
H31 H 0.2427 0.7059 0.0422
H32 H 0.0422 0.7427 0.2941
H35 H 0.0441 0.9927 0.2078
H41 H 0.2059 0.9578 0.2427
C66 C 0.29404(13) 0.68894(13) 0.07717(13)
C67 C 0.07717(13) 0.79404(13) 0.31106(13)
C76 C 0.18894(13) 0.92283(13) 0.29404(13)
H42 H 0.2920 0.6594 0.0717
H43 H 0.0717 0.7920 0.3406
H52 H 0.1594 0.9283 0.2920
C77 C 0.32658(14) 0.70445(15) 0.10295(14)
C78 C 0.10295(14) 0.82658(14) 0.29555(15)
C87 C 0.20445(15) 0.89705(14) 0.32658(14)
H53 H 0.3463 0.6853 0.1153
H54 H 0.1153 0.8463 0.3147
H63 H 0.1853 0.8847 0.3463
C88 C 0.33020(13) 0.74719(14) 0.11059(13)
C89 C 0.11059(13) 0.83020(13) 0.25281(14)
C98 C 0.24719(14) 0.88941(13) 0.33020(13)
H64 H 0.3525 0.7576 0.1280
H65 H 0.1280 0.8525 0.2424
H66 H 0.0076 0.3975 0.1220
H69 H 0.1025 0.6220 0.0076
H71 H 0.1220 0.9924 0.1025
H74 H 0.2576 0.8720 0.3525
C99 C 0.30116(12) 0.77509(13) 0.09279(12)
C100 C 0.09279(12) 0.80116(12) 0.22491(13)
C101 C 0.02509(13) 0.44884(12) 0.15721(12)
C104 C 0.05116(12) 0.65721(12) 0.02509(13)
C106 C 0.15721(12) 0.97491(13) 0.05116(12)
C109 C 0.27509(13) 0.90721(12) 0.30116(12)
H75 H 0.3036 0.8047 0.0978
H76 H 0.0978 0.8036 0.1953
H77 H 0.0547 0.4464 0.1522
H80 H 0.0536 0.6522 0.0547
H82 H 0.1522 0.9453 0.0536
H85 H 0.3047 0.9022 0.3036
C110 C 0.00303(10) 0.6250 0.24697(10)
C114 C 0.25303(10) 0.99697(10) 0.1250
H89 H 0.0193 0.8967 0.2507
H90 H 0.0007 0.8533 0.2693
N7 N 0.04428(8) 0.60534(8) 0.25166(8)
N8 N 0.00166(8) 0.85534(8) 0.20572(8)
N14 N 0.24834(8) 0.95572(8) 0.10534(8)
N16 N 0.19306(8) 0.84496(8) 0.00105(9)
N17 N 0.00105(9) 0.69306(8) 0.15504(8)
N18 N 0.09496(8) 0.55694(8) 0.24895(9)
N25 N 0.25105(9) 0.90504(8) 0.05694(8)
N26 N 0.34496(8) 0.99895(9) 0.19306(8)
N28 N 0.15504(8) 0.50105(9) 0.30694(8)
N29 N 0.15504(8) 0.49895(9) 0.19306(8)
N30 N 0.09496(8) 0.44306(8) 0.25105(9)
N31 N 0.20797(9) 0.77491(9) 0.03287(8)
N32 N 0.03287(8) 0.70797(9) 0.22509(9)
N33 N 0.02491(9) 0.54203(9) 0.21713(8)
N40 N 0.28287(8) 0.97509(9) 0.04203(9)
N41 N 0.27491(9) 0.96713(8) 0.20797(9)
N42 N 0.24116(9) 0.79050(9) 0.04972(8)
N43 N 0.04972(8) 0.74116(9) 0.20950(9)
N44 N 0.04050(9) 0.50884(9) 0.20028(8)
N51 N 0.29972(8) 0.95950(9) 0.00884(9)
N52 N 0.29050(9) 0.95028(8) 0.24116(9)
H3 H 0.0073 0.7922 0.9559
H8 H 0.1467 0.7307 0.9993
Zn2_2 Zn 0.2500 0.8750 1.0000
Zn6_2 Zn 0.1250 1.0000 0.7500
C11 C 0.12785(11) 0.82898(11) 0.97800(11)
C18 C 0.27200(11) 0.92102(11) 0.87785(11)
H9 H 0.1007 0.8310 0.9651
H16 H 0.2849 0.9190 0.8507
C22 C 0.15788(11) 0.85970(12) 0.98009(11)
C29 C 0.26991(11) 0.89030(12) 0.90788(11)
H20 H 0.1550 0.8875 0.9687
H27 H 0.2813 0.8625 0.9050
C40 C 0.23773(10) 0.94450(11) 0.93351(10)
C41 C 0.19450(11) 0.98773(10) 0.81649(10)
C52 C 0.24058(11) 0.93237(11) 0.73144(11)
C53 C 0.31763(11) 0.99058(11) 0.98144(11)
C60 C 0.01497(12) 0.69040(12) 0.96636(11)
C63 C 0.28364(11) 0.94040(12) 0.73503(12)
H39 H 0.2941 0.9578 0.7573
C71 C 0.04404(13) 0.67283(13) 0.93894(13)
C74 C 0.31106(13) 0.92283(13) 0.70596(13)
H47 H 0.0420 0.6783 0.9094
H50 H 0.3406 0.9283 0.7080
C82 C 0.07658(14) 0.64705(14) 0.95445(15)
C85 C 0.29555(15) 0.89705(14) 0.67342(14)
H58 H 0.0963 0.6347 0.9353
H61 H 0.3147 0.8847 0.6537
C93 C 0.08020(13) 0.63941(13) 0.99719(14)
C96 C 0.25281(14) 0.88941(13) 0.66980(13)
H72 H 0.2424 0.8720 0.6475
H73 H 0.3780 0.9924 0.8975
C107 C 0.22491(13) 0.90721(12) 0.69884(12)
C108 C 0.34279(12) 0.97491(13) 0.94884(12)
H83 H 0.1953 0.9022 0.6964
H84 H 0.3478 0.9453 0.9464
C113 C 0.24697(10) 0.99697(10) 0.8750
H86 H 0.1033 0.7493 0.9807
N5 N 0.14466(8) 0.79428(8) 0.99834(8)
N12 N 0.25166(8) 0.95572(8) 0.89466(8)
N23 N 0.24895(9) 0.90504(8) 0.94306(8)
N24 N 0.15504(8) 0.99895(9) 0.80694(8)
N27 N 0.30694(8) 0.84496(8) 0.99895(9)
N38 N 0.21713(8) 0.97509(9) 0.95797(9)
N39 N 0.22509(9) 0.96713(8) 0.79203(9)
N49 N 0.20028(8) 0.95950(9) 0.99116(9)
N50 N 0.20950(9) 0.95028(8) 0.75884(9)
Zn4 Zn 0.8750 -0.0000 0.2500
C48 C 0.99058(11) 0.01856(11) 0.18237(11)
H68 H 0.9924 0.1025 0.1220
C103 C 0.97491(13) 0.05116(12) 0.15721(12)
H79 H 0.9453 0.0536 0.1522
Zn1_2 Zn 1.0000 0.7500 0.1250
C4 C 0.98144(11) 0.81763(11) 0.00942(11)
H6 H 0.8975 0.8780 0.0076
C9 C 0.94884(12) 0.84279(12) 0.02509(13)
H7 H 0.9464 0.8478 0.0547
Zn4_2 Zn 0.8750 1.0000 0.2500
Zn5 Zn 0.7500 0.6250 0.0000
C12 C 0.97800(11) 0.62785(11) 0.17102(11)
C15 C 0.92102(11) 0.87785(11) 0.27200(11)
C16 C 0.87785(11) 0.77200(11) 0.07898(11)
H10 H 0.9651 0.6007 0.1690
H13 H 0.9190 0.8507 0.2849
H14 H 0.8507 0.7849 0.0810
C23 C 0.98009(11) 0.65788(11) 0.14030(12)
C26 C 0.89030(12) 0.90788(11) 0.26991(11)
C27 C 0.90788(11) 0.76991(11) 0.10970(12)
H21 H 0.9687 0.6550 0.1125
H24 H 0.8625 0.9050 0.2813
H25 H 0.9050 0.7813 0.1375
C36 C 0.98773(10) 0.81649(10) 0.19450(11)
C37 C 0.94450(11) 0.93351(10) 0.23773(10)
C38 C 0.93351(10) 0.73773(10) 0.05550(11)
C39 C 0.81649(10) 0.69450(11) 0.01227(10)
C47 C 0.93237(11) 0.73144(11) 0.24058(11)
C50 C 0.73144(11) 0.74058(11) 0.06763(11)
C57 C 0.96636(11) 0.48503(12) 0.19040(12)
C58 C 0.94040(12) 0.73503(12) 0.28364(11)
C61 C 0.73503(12) 0.78364(11) 0.05960(12)
H33 H 0.9559 0.5073 0.2078
H34 H 0.9578 0.7573 0.2941
H37 H 0.7573 0.7941 0.0422
C68 C 0.93894(13) 0.45596(13) 0.17283(13)
C69 C 0.92283(13) 0.70596(13) 0.31106(13)
C72 C 0.70596(13) 0.81106(13) 0.07717(13)
H44 H 0.9094 0.4580 0.1783
H45 H 0.9283 0.7080 0.3406
H48 H 0.7080 0.8406 0.0717
C79 C 0.95445(15) 0.42342(14) 0.14705(14)
C80 C 0.89705(14) 0.67342(14) 0.29555(15)
C83 C 0.67342(14) 0.79555(15) 0.10295(14)
H55 H 0.9353 0.4037 0.1347
H56 H 0.8847 0.6537 0.3147
H59 H 0.6537 0.8147 0.1153
C90 C 0.99719(14) 0.41980(13) 0.13941(13)
C91 C 0.88941(13) 0.66980(13) 0.25281(14)
C94 C 0.66980(13) 0.75281(14) 0.11059(13)
H67 H 0.8720 0.6475 0.2424
H70 H 0.6475 0.7424 0.1280
C102 C 0.90721(12) 0.69884(12) 0.22491(13)
C105 C 0.69884(12) 0.72491(13) 0.09279(12)
H78 H 0.9022 0.6964 0.1953
H81 H 0.6964 0.6953 0.0978
C111 C 0.99697(10) 0.8750 0.24697(10)
C112 C 0.8750 0.74697(10) 0.00303(10)
H87 H 0.9807 0.6033 0.2507
H88 H 0.9993 0.6467 0.2693
N6 N 0.99834(8) 0.64466(8) 0.20572(8)
N9 N 0.95572(8) 0.89466(8) 0.25166(8)
N10 N 0.89466(8) 0.75166(8) 0.04428(8)
N19 N 0.99895(9) 0.80694(8) 0.15504(8)
N20 N 0.90504(8) 0.94306(8) 0.24895(9)
N21 N 0.94306(8) 0.74895(9) 0.09496(8)
N22 N 0.80694(8) 0.65504(8) 0.00105(9)
N34 N 0.96713(8) 0.79203(9) 0.22509(9)
N35 N 0.97509(9) 0.95797(9) 0.21713(8)
N36 N 0.95797(9) 0.71713(8) 0.02491(9)
N37 N 0.79203(9) 0.72509(9) 0.03287(8)
N45 N 0.95028(8) 0.75884(9) 0.20950(9)
N46 N 0.95950(9) 0.99116(9) 0.20028(8)
N47 N 0.99116(9) 0.70028(8) 0.04050(9)
N48 N 0.75884(9) 0.70950(9) 0.04972(8)
C5 C 0.98503(12) 0.80960(12) 0.96636(11)
C6 C 0.95596(13) 0.82717(13) 0.93894(13)
H4 H 0.9580 0.8217 0.9094
C7 C 0.92342(14) 0.85295(14) 0.95445(15)
H5 H 0.9037 0.8653 0.9353
C8 C 0.91980(13) 0.86059(13) 0.99719(14)
Zn5_2 Zn 0.7500 0.6250 1.0000
C17 C 0.87215(11) 0.67102(11) 0.97800(11)
H15 H 0.8993 0.6690 0.9651
C28 C 0.84212(11) 0.64030(12) 0.98009(11)
H26 H 0.8450 0.6125 0.9687
H36 H 0.9927 0.7078 0.9559
H91 H 0.8533 0.7693 0.9993
H92 H 0.8967 0.7507 0.9807
N11 N 0.85534(8) 0.70572(8) 0.99834(8)
Zn1_3 Zn 0.5000 0.2500 0.6250
C1_2 C 0.37785(11) 0.27200(11) 0.57898(11)
H1_2 H 0.3507 0.2849 0.5810
C2_2 C 0.40788(11) 0.26991(11) 0.60970(12)
H2_2 H 0.4050 0.2813 0.6375
C3_2 C 0.43351(10) 0.23773(10) 0.55550(11)
C4_2 C 0.51856(11) 0.18237(11) 0.50942(11)
C5_2 C 0.51497(12) 0.19040(12) 0.46636(11)
H3_2 H 0.4927 0.2078 0.4559
C6_2 C 0.54404(13) 0.17283(13) 0.43894(13)
H4_2 H 0.5420 0.1783 0.4094
C7_2 C 0.57658(14) 0.14705(14) 0.45445(15)
H5_2 H 0.5963 0.1347 0.4353
C8_2 C 0.58020(13) 0.13941(13) 0.49719(14)
H6_2 H 0.6025 0.1220 0.5076
C9_2 C 0.55116(12) 0.15721(12) 0.52509(13)
H7_2 H 0.5536 0.1522 0.5547
C10_2 C 0.3750 0.24697(10) 0.50303(10)
H8_2 H 0.3533 0.2693 0.4993
N1_2 N 0.39466(8) 0.25166(8) 0.54428(8)
N2_2 N 0.44306(8) 0.24895(9) 0.59496(8)
N3_2 N 0.45797(9) 0.21713(8) 0.52491(9)
N4_2 N 0.49116(9) 0.20028(8) 0.54050(9)
Zn2_3 Zn 0.2500 0.1250 0.5000
Zn3_2 Zn 0.3750 0.5000 0.7500
Zn4_3 Zn 0.6250 -0.0000 0.7500
Zn5_3 Zn 0.7500 0.3750 0.5000
C11_2 C 0.37215(11) 0.17102(11) 0.47800(11)
C12_2 C 0.52200(11) 0.37215(11) 0.67102(11)
C13_2 C 0.42102(11) 0.37785(11) 0.77200(11)
C14_2 C 0.47800(11) 0.12785(11) 0.67102(11)
C15_2 C 0.57898(11) 0.12215(11) 0.77200(11)
C16_2 C 0.62215(11) 0.22800(11) 0.57898(11)
C17_2 C 0.62785(11) 0.32898(11) 0.47800(11)
C18_2 C 0.22800(11) 0.07898(11) 0.37785(11)
C20_2 C 0.27200(11) 0.07898(11) 0.62215(11)
H9_2 H 0.3993 0.1690 0.4651
H10_2 H 0.5349 0.3993 0.6690
H11_2 H 0.4190 0.3507 0.7849
H12_2 H 0.4651 0.1007 0.6690
H13_2 H 0.5810 0.1493 0.7849
H14_2 H 0.6493 0.2151 0.5810
H15_2 H 0.6007 0.3310 0.4651
H16_2 H 0.2151 0.0810 0.3507
H18_2 H 0.2849 0.0810 0.6493
C22_2 C 0.34212(11) 0.14030(12) 0.48009(11)
C23_2 C 0.51991(11) 0.34212(11) 0.64030(12)
C24_2 C 0.39030(12) 0.40788(11) 0.76991(11)
C25_2 C 0.48009(11) 0.15788(11) 0.64030(12)
C26_2 C 0.60970(12) 0.09212(11) 0.76991(11)
C27_2 C 0.59212(11) 0.23009(11) 0.60970(12)
C28_2 C 0.65788(11) 0.35970(12) 0.48009(11)
C29_2 C 0.23009(11) 0.10970(12) 0.40788(11)
C31_2 C 0.26991(11) 0.10970(12) 0.59212(11)
H20_2 H 0.3450 0.1125 0.4687
H21_2 H 0.5313 0.3450 0.6125
H22_2 H 0.3625 0.4050 0.7813
H23_2 H 0.4687 0.1550 0.6125
H24_2 H 0.6375 0.0950 0.7813
H25_2 H 0.5950 0.2187 0.6375
H26_2 H 0.6550 0.3875 0.4687
H27_2 H 0.2187 0.1375 0.4050
H29_2 H 0.2813 0.1375 0.5950
C33_2 C 0.31649(10) 0.19450(11) 0.51227(10)
C34_2 C 0.48773(10) 0.31649(10) 0.69450(11)
C35_2 C 0.44450(11) 0.43351(10) 0.73773(10)
C36_2 C 0.51227(10) 0.18351(10) 0.69450(11)
C37_2 C 0.55550(11) 0.06649(10) 0.73773(10)
C38_2 C 0.56649(10) 0.26227(10) 0.55550(11)
C39_2 C 0.68351(10) 0.30550(11) 0.51227(10)
C40_2 C 0.26227(10) 0.05550(11) 0.43351(10)
C41_2 C 0.30550(11) 0.01227(10) 0.31649(10)
C42_2 C 0.23773(10) 0.05550(11) 0.56649(10)
C43_2 C 0.19450(11) 0.01227(10) 0.68351(10)
C44_2 C 0.23144(11) 0.24058(11) 0.56763(11)
C45_2 C 0.43237(11) 0.23144(11) 0.74058(11)
C46_2 C 0.49058(11) 0.51856(11) 0.68237(11)
C47_2 C 0.56763(11) 0.26856(11) 0.74058(11)
C49_2 C 0.48144(11) 0.31763(11) 0.50942(11)
C50_2 C 0.76856(11) 0.25942(11) 0.56763(11)
C51_2 C 0.31763(11) 0.00942(11) 0.51856(11)
C52_2 C 0.25942(11) 0.06763(11) 0.23144(11)
C53_2 C 0.18237(11) 0.00942(11) 0.48144(11)
C54_2 C 0.24058(11) 0.06763(11) 0.76856(11)
C55_2 C 0.23503(12) 0.28364(11) 0.55960(12)
C56_2 C 0.44040(12) 0.23503(12) 0.78364(11)
C57_2 C 0.53364(11) 0.51497(12) 0.69040(12)
C58_2 C 0.55960(12) 0.26497(12) 0.78364(11)
C60_2 C 0.48503(12) 0.30960(12) 0.46636(11)
C61_2 C 0.76497(12) 0.21636(11) 0.55960(12)
C63_2 C 0.21636(11) 0.05960(12) 0.23503(12)
C65_2 C 0.28364(11) 0.05960(12) 0.76497(12)
H31_2 H 0.2573 0.2941 0.5422
H32_2 H 0.4578 0.2573 0.7941
H33_2 H 0.5441 0.4927 0.7078
H34_2 H 0.5422 0.2427 0.7941
H35_2 H 0.4559 0.0073 0.7078
H36_2 H 0.5073 0.2922 0.4559
H37_2 H 0.7427 0.2059 0.5422
H39_2 H 0.2059 0.0422 0.2573
H41_2 H 0.2941 0.0422 0.7427
C66_2 C 0.20596(13) 0.31106(13) 0.57717(13)
C67_2 C 0.42283(13) 0.20596(13) 0.81106(13)
C68_2 C 0.56106(13) 0.54404(13) 0.67283(13)
C69_2 C 0.57717(13) 0.29404(13) 0.81106(13)
C71_2 C 0.45596(13) 0.32717(13) 0.43894(13)
C72_2 C 0.79404(13) 0.18894(13) 0.57717(13)
C74_2 C 0.18894(13) 0.07717(13) 0.20596(13)
C76_2 C 0.31106(13) 0.07717(13) 0.79404(13)
H42_2 H 0.2080 0.3406 0.5717
H43_2 H 0.4283 0.2080 0.8406
H44_2 H 0.5906 0.5420 0.6783
H45_2 H 0.5717 0.2920 0.8406
H47_2 H 0.4580 0.3217 0.4094
H48_2 H 0.7920 0.1594 0.5717
H50_2 H 0.1594 0.0717 0.2080
H52_2 H 0.3406 0.0717 0.7920
C77_2 C 0.17342(14) 0.29555(15) 0.60295(14)
C78_2 C 0.39705(14) 0.17342(14) 0.79555(15)
C79_2 C 0.54555(15) 0.57658(14) 0.64705(14)
C80_2 C 0.60295(14) 0.32658(14) 0.79555(15)
C82_2 C 0.42342(14) 0.35295(14) 0.45445(15)
C83_2 C 0.82658(14) 0.20445(15) 0.60295(14)
C85_2 C 0.20445(15) 0.10295(14) 0.17342(14)
C87_2 C 0.29555(15) 0.10295(14) 0.82658(14)
H53_2 H 0.1537 0.3147 0.6153
H54_2 H 0.3847 0.1537 0.8147
H55_2 H 0.5647 0.5963 0.6347
H56_2 H 0.6153 0.3463 0.8147
H58_2 H 0.4037 0.3653 0.4353
H59_2 H 0.8463 0.1853 0.6153
H61_2 H 0.1853 0.1153 0.1537
H63_2 H 0.3147 0.1153 0.8463
C88_2 C 0.16980(13) 0.25281(14) 0.61059(13)
C89_2 C 0.38941(13) 0.16980(13) 0.75281(14)
C90_2 C 0.50281(14) 0.58020(13) 0.63941(13)
C91_2 C 0.61059(13) 0.33020(13) 0.75281(14)
C93_2 C 0.41980(13) 0.36059(13) 0.49719(14)
C94_2 C 0.83020(13) 0.24719(14) 0.61059(13)
C96_2 C 0.24719(14) 0.11059(13) 0.16980(13)
C98_2 C 0.25281(14) 0.11059(13) 0.83020(13)
H64_2 H 0.1475 0.2424 0.6280
H65_2 H 0.3720 0.1475 0.7424
H66_2 H 0.4924 0.6025 0.6220
H67_2 H 0.6280 0.3525 0.7424
H69_2 H 0.3975 0.3780 0.5076
H70_2 H 0.8525 0.2576 0.6280
H71_2 H 0.3780 0.0076 0.6025
H72_2 H 0.2576 0.1280 0.1475
H73_2 H 0.1220 0.0076 0.3975
H74_2 H 0.2424 0.1280 0.8525
C99_2 C 0.19884(12) 0.22491(13) 0.59279(12)
C100_2 C 0.40721(12) 0.19884(12) 0.72491(13)
C101_2 C 0.47491(13) 0.55116(12) 0.65721(12)
C102_2 C 0.59279(12) 0.30116(12) 0.72491(13)
C104_2 C 0.44884(12) 0.34279(12) 0.52509(13)
C105_2 C 0.80116(12) 0.27509(13) 0.59279(12)
C106_2 C 0.34279(12) 0.02509(13) 0.55116(12)
C107_2 C 0.27509(13) 0.09279(12) 0.19884(12)
C108_2 C 0.15721(12) 0.02509(13) 0.44884(12)
C109_2 C 0.22491(13) 0.09279(12) 0.80116(12)
H75_2 H 0.1964 0.1953 0.5978
H76_2 H 0.4022 0.1964 0.6953
H77_2 H 0.4453 0.5536 0.6522
H78_2 H 0.5978 0.3036 0.6953
H80_2 H 0.4464 0.3478 0.5547
H81_2 H 0.8036 0.3047 0.5978
H82_2 H 0.3478 0.0547 0.5536
H83_2 H 0.3047 0.0978 0.1964
H84_2 H 0.1522 0.0547 0.4464
H85_2 H 0.1953 0.0978 0.8036
C110_2 C 0.49697(10) 0.3750 0.74697(10)
C111_2 C 0.50303(10) 0.1250 0.74697(10)
C112_2 C 0.6250 0.25303(10) 0.50303(10)
C113_2 C 0.25303(10) 0.00303(10) 0.3750
C114_2 C 0.24697(10) 0.00303(10) 0.6250
H86_2 H 0.3967 0.2507 0.4807
H87_2 H 0.5193 0.3967 0.7507
H88_2 H 0.5007 0.3533 0.7693
H89_2 H 0.4807 0.1033 0.7507
H90_2 H 0.4993 0.1467 0.7693
H91_2 H 0.6467 0.2307 0.4993
H92_2 H 0.6033 0.2493 0.4807
N5_2 N 0.35534(8) 0.20572(8) 0.49834(8)
N6_2 N 0.50166(8) 0.35534(8) 0.70572(8)
N7_2 N 0.45572(8) 0.39466(8) 0.75166(8)
N8_2 N 0.49834(8) 0.14466(8) 0.70572(8)
N9_2 N 0.54428(8) 0.10534(8) 0.75166(8)
N10_2 N 0.60534(8) 0.24834(8) 0.54428(8)
N11_2 N 0.64466(8) 0.29428(8) 0.49834(8)
N12_2 N 0.24834(8) 0.04428(8) 0.39466(8)
N14_2 N 0.25166(8) 0.04428(8) 0.60534(8)
N16_2 N 0.30694(8) 0.15504(8) 0.50105(9)
N17_2 N 0.49895(9) 0.30694(8) 0.65504(8)
N18_2 N 0.40504(8) 0.44306(8) 0.74895(9)
N19_2 N 0.50105(9) 0.19306(8) 0.65504(8)
N20_2 N 0.59496(8) 0.05694(8) 0.74895(9)
N21_2 N 0.55694(8) 0.25105(9) 0.59496(8)
N22_2 N 0.69306(8) 0.34496(8) 0.50105(9)
N23_2 N 0.25105(9) 0.09496(8) 0.44306(8)
N24_2 N 0.34496(8) 0.00105(9) 0.30694(8)
N25_2 N 0.24895(9) 0.09496(8) 0.55694(8)
N26_2 N 0.15504(8) 0.00105(9) 0.69306(8)
N27_2 N 0.19306(8) 0.15504(8) 0.49895(9)
N28_2 N 0.34496(8) 0.49895(9) 0.80694(8)
N29_2 N 0.34496(8) 0.50105(9) 0.69306(8)
N30_2 N 0.40504(8) 0.55694(8) 0.75105(9)
N31_2 N 0.29203(9) 0.22509(9) 0.53287(8)
N32_2 N 0.46713(8) 0.29203(9) 0.72509(9)
N33_2 N 0.47509(9) 0.45797(9) 0.71713(8)
N34_2 N 0.53287(8) 0.20797(9) 0.72509(9)
N35_2 N 0.52491(9) 0.04203(9) 0.71713(8)
N36_2 N 0.54203(9) 0.28287(8) 0.52491(9)
N37_2 N 0.70797(9) 0.27491(9) 0.53287(8)
N38_2 N 0.28287(8) 0.02491(9) 0.45797(9)
N39_2 N 0.27491(9) 0.03287(8) 0.29203(9)
N40_2 N 0.21713(8) 0.02491(9) 0.54203(9)
N41_2 N 0.22509(9) 0.03287(8) 0.70797(9)
N42_2 N 0.25884(9) 0.20950(9) 0.54972(8)
N43_2 N 0.45028(8) 0.25884(9) 0.70950(9)
N44_2 N 0.45950(9) 0.49116(9) 0.70028(8)
N45_2 N 0.54972(8) 0.24116(9) 0.70950(9)
N46_2 N 0.54050(9) 0.00884(9) 0.70028(8)
N47_2 N 0.50884(9) 0.29972(8) 0.54050(9)
N48_2 N 0.74116(9) 0.29050(9) 0.54972(8)
N49_2 N 0.29972(8) 0.04050(9) 0.49116(9)
N50_2 N 0.29050(9) 0.04972(8) 0.25884(9)
N51_2 N 0.20028(8) 0.04050(9) 0.50884(9)
N52_2 N 0.20950(9) 0.04972(8) 0.74116(9)
Zn4_4 Zn 0.6250 1.0000 0.7500
C19_2 C 0.32898(11) 0.97800(11) 0.37215(11)
C21_2 C 0.17102(11) 0.97800(11) 0.62785(11)
H17_2 H 0.3310 0.9651 0.3993
H19_2 H 0.1690 0.9651 0.6007
C30_2 C 0.35970(12) 0.98009(11) 0.34212(11)
C32_2 C 0.14030(12) 0.98009(11) 0.65788(11)
H28_2 H 0.3875 0.9687 0.3450
H30_2 H 0.1125 0.9687 0.6550
C48_2 C 0.50942(11) 0.98144(11) 0.68237(11)
C59_2 C 0.46636(11) 0.98503(12) 0.69040(12)
C62_2 C 0.30960(12) 0.96636(11) 0.51497(12)
C64_2 C 0.19040(12) 0.96636(11) 0.48503(12)
H38_2 H 0.2922 0.9559 0.4927
H40_2 H 0.2078 0.9559 0.5073
C70_2 C 0.43894(13) 0.95596(13) 0.67283(13)
C73_2 C 0.32717(13) 0.93894(13) 0.54404(13)
C75_2 C 0.17283(13) 0.93894(13) 0.45596(13)
H46_2 H 0.4094 0.9580 0.6783
H49_2 H 0.3217 0.9094 0.5420
H51_2 H 0.1783 0.9094 0.4580
C81_2 C 0.45445(15) 0.92342(14) 0.64705(14)
C84_2 C 0.35295(14) 0.95445(15) 0.57658(14)
C86_2 C 0.14705(14) 0.95445(15) 0.42342(14)
H57_2 H 0.4353 0.9037 0.6347
H60_2 H 0.3653 0.9353 0.5963
H62_2 H 0.1347 0.9353 0.4037
C92_2 C 0.49719(14) 0.91980(13) 0.63941(13)
C95_2 C 0.36059(13) 0.99719(14) 0.58020(13)
C97_2 C 0.13941(13) 0.99719(14) 0.41980(13)
H68_2 H 0.5076 0.8975 0.6220
C103_2 C 0.52509(13) 0.94884(12) 0.65721(12)
H79_2 H 0.5547 0.9464 0.6522
H93_2 H 0.2307 0.9993 0.3533
H94_2 H 0.2493 0.9807 0.3967
H95_2 H 0.2693 0.9993 0.6467
H96_2 H 0.2507 0.9807 0.6033
N13_2 N 0.29428(8) 0.99834(8) 0.35534(8)
N15_2 N 0.20572(8) 0.99834(8) 0.64466(8)
Zn1_4 Zn 0.0000 0.2500 0.3750
C4_3 C 0.01856(11) 0.31763(11) 0.49058(11)
C5_3 C 0.01497(12) 0.30960(12) 0.53364(11)
C6_3 C 0.04404(13) 0.32717(13) 0.56106(13)
H4_3 H 0.0420 0.3217 0.5906
C7_3 C 0.07658(14) 0.35295(14) 0.54555(15)
H5_3 H 0.0963 0.3653 0.5647
C8_3 C 0.08020(13) 0.36059(13) 0.50281(14)
H6_3 H 0.1025 0.3780 0.4924
C9_3 C 0.05116(12) 0.34279(12) 0.47491(13)
H7_3 H 0.0536 0.3478 0.4453
C12_3 C 0.02200(11) 0.12785(11) 0.32898(11)
C15_3 C 0.07898(11) 0.37785(11) 0.22800(11)
C16_3 C 0.12215(11) 0.27200(11) 0.42102(11)
C17_3 C 0.12785(11) 0.17102(11) 0.52200(11)
H10_3 H 0.0349 0.1007 0.3310
H13_3 H 0.0810 0.3507 0.2151
H14_3 H 0.1493 0.2849 0.4190
H15_3 H 0.1007 0.1690 0.5349
C23_3 C 0.01991(11) 0.15788(11) 0.35970(12)
C26_3 C 0.10970(12) 0.40788(11) 0.23009(11)
C27_3 C 0.09212(11) 0.26991(11) 0.39030(12)
C28_3 C 0.15788(11) 0.14030(12) 0.51991(11)
H21_3 H 0.0313 0.1550 0.3875
H24_3 H 0.1375 0.4050 0.2187
H25_3 H 0.0950 0.2813 0.3625
H26_3 H 0.1550 0.1125 0.5313
C36_3 C 0.01227(10) 0.31649(10) 0.30550(11)
C37_3 C 0.05550(11) 0.43351(10) 0.26227(10)
C38_3 C 0.06649(10) 0.23773(10) 0.44450(11)
C39_3 C 0.18351(10) 0.19450(11) 0.48773(10)
C47_3 C 0.06763(11) 0.23144(11) 0.25942(11)
C48_3 C 0.00942(11) 0.51856(11) 0.31763(11)
C50_3 C 0.26856(11) 0.24058(11) 0.43237(11)
C58_3 C 0.05960(12) 0.23503(12) 0.21636(11)
C61_3 C 0.26497(12) 0.28364(11) 0.44040(12)
H33_3 H 0.0441 0.0073 0.2922
H34_3 H 0.0422 0.2573 0.2059
H36_3 H 0.0073 0.2078 0.5441
H37_3 H 0.2427 0.2941 0.4578
C69_3 C 0.07717(13) 0.20596(13) 0.18894(13)
C72_3 C 0.29404(13) 0.31106(13) 0.42283(13)
H45_3 H 0.0717 0.2080 0.1594
H48_3 H 0.2920 0.3406 0.4283
C80_3 C 0.10295(14) 0.17342(14) 0.20445(15)
C83_3 C 0.32658(14) 0.29555(15) 0.39705(14)
H56_3 H 0.1153 0.1537 0.1853
H59_3 H 0.3463 0.3147 0.3847
C91_3 C 0.11059(13) 0.16980(13) 0.24719(14)
C94_3 C 0.33020(13) 0.25281(14) 0.38941(13)
H67_3 H 0.1280 0.1475 0.2576
H68_3 H 0.0076 0.6025 0.3780
H70_3 H 0.3525 0.2424 0.3720
C102_3 C 0.09279(12) 0.19884(12) 0.27509(13)
C103_3 C 0.02509(13) 0.55116(12) 0.34279(12)
C105_3 C 0.30116(12) 0.22491(13) 0.40721(12)
H78_3 H 0.0978 0.1964 0.3047
H79_3 H 0.0547 0.5536 0.3478
H81_3 H 0.3036 0.1953 0.4022
C111_3 C 0.00303(10) 0.3750 0.25303(10)
C112_3 C 0.1250 0.24697(10) 0.49697(10)
H87_3 H 0.0193 0.1033 0.2493
H88_3 H 0.0007 0.1467 0.2307
H91_3 H 0.1467 0.2693 0.5007
H92_3 H 0.1033 0.2507 0.5193
N6_3 N 0.00166(8) 0.14466(8) 0.29428(8)
N9_3 N 0.04428(8) 0.39466(8) 0.24834(8)
N10_3 N 0.10534(8) 0.25166(8) 0.45572(8)
N11_3 N 0.14466(8) 0.20572(8) 0.50166(8)
N19_3 N 0.00105(9) 0.30694(8) 0.34496(8)
N21_3 N 0.05694(8) 0.24895(9) 0.40504(8)
N34_3 N 0.03287(8) 0.29203(9) 0.27491(9)
N35_3 N 0.02491(9) 0.45797(9) 0.28287(8)
N36_3 N 0.04203(9) 0.21713(8) 0.47509(9)
N37_3 N 0.20797(9) 0.22509(9) 0.46713(8)
N45_3 N 0.04972(8) 0.25884(9) 0.29050(9)
N46_3 N 0.04050(9) 0.49116(9) 0.29972(8)
N47_3 N 0.00884(9) 0.20028(8) 0.45950(9)
N48_3 N 0.24116(9) 0.20950(9) 0.45028(8)
C57_3 C 0.03364(11) 0.98503(12) 0.30960(12)
C68_3 C 0.06106(13) 0.95596(13) 0.32717(13)
H44_3 H 0.0906 0.9580 0.3217
C79_3 C 0.04555(15) 0.92342(14) 0.35295(14)
H55_3 H 0.0647 0.9037 0.3653
C90_3 C 0.00281(14) 0.91980(13) 0.36059(13)
Zn1_5 Zn 1.0000 0.2500 0.3750
C1_3 C 0.87785(11) 0.22800(11) 0.42102(11)
H1_3 H 0.8507 0.2151 0.4190
C2_3 C 0.90788(11) 0.23009(11) 0.39030(12)
H2_3 H 0.9050 0.2187 0.3625
C3_3 C 0.93351(10) 0.26227(10) 0.44450(11)
H3_3 H 0.9927 0.2922 0.5441
C10_3 C 0.8750 0.25303(10) 0.49697(10)
H8_3 H 0.8533 0.2307 0.5007
N1_3 N 0.89466(8) 0.24834(8) 0.45572(8)
N2_3 N 0.94306(8) 0.25105(9) 0.40504(8)
N3_3 N 0.95797(9) 0.28287(8) 0.47509(9)
N4_3 N 0.99116(9) 0.29972(8) 0.45950(9)
Zn6_3 Zn 0.8750 0.5000 0.7500
Zn7_3 Zn 0.6250 0.5000 0.2500
C11_3 C 0.87215(11) 0.32898(11) 0.52200(11)
C13_3 C 0.92102(11) 0.12215(11) 0.22800(11)
C14_3 C 0.97800(11) 0.37215(11) 0.32898(11)
C18_3 C 0.72800(11) 0.42102(11) 0.62215(11)
C19_3 C 0.82898(11) 0.52200(11) 0.62785(11)
C20_3 C 0.77200(11) 0.42102(11) 0.37785(11)
C21_3 C 0.67102(11) 0.52200(11) 0.37215(11)
H9_3 H 0.8993 0.3310 0.5349
H11_3 H 0.9190 0.1493 0.2151
H12_3 H 0.9651 0.3993 0.3310
H16_3 H 0.7151 0.4190 0.6493
H17_3 H 0.8310 0.5349 0.6007
H18_3 H 0.7849 0.4190 0.3507
H19_3 H 0.6690 0.5349 0.3993
C22_3 C 0.84212(11) 0.35970(12) 0.51991(11)
C24_3 C 0.89030(12) 0.09212(11) 0.23009(11)
C25_3 C 0.98009(11) 0.34212(11) 0.35970(12)
C29_3 C 0.73009(11) 0.39030(12) 0.59212(11)
C30_3 C 0.85970(12) 0.51991(11) 0.65788(11)
C31_3 C 0.76991(11) 0.39030(12) 0.40788(11)
C32_3 C 0.64030(12) 0.51991(11) 0.34212(11)
H20_3 H 0.8450 0.3875 0.5313
H22_3 H 0.8625 0.0950 0.2187
H23_3 H 0.9687 0.3450 0.3875
H27_3 H 0.7187 0.3625 0.5950
H28_3 H 0.8875 0.5313 0.6550
H29_3 H 0.7813 0.3625 0.4050
H30_3 H 0.6125 0.5313 0.3450
C33_3 C 0.81649(10) 0.30550(11) 0.48773(10)
C34_3 C 0.98773(10) 0.18351(10) 0.30550(11)
C35_3 C 0.94450(11) 0.06649(10) 0.26227(10)
C40_3 C 0.76227(10) 0.44450(11) 0.56649(10)
C41_3 C 0.80550(11) 0.48773(10) 0.68351(10)
C42_3 C 0.73773(10) 0.44450(11) 0.43351(10)
C43_3 C 0.69450(11) 0.48773(10) 0.31649(10)
C44_3 C 0.73144(11) 0.25942(11) 0.43237(11)
C45_3 C 0.93237(11) 0.26856(11) 0.25942(11)
C49_3 C 0.98144(11) 0.18237(11) 0.49058(11)
C51_3 C 0.81763(11) 0.49058(11) 0.48144(11)
C52_3 C 0.75942(11) 0.43237(11) 0.76856(11)
C53_3 C 0.68237(11) 0.49058(11) 0.51856(11)
C54_3 C 0.74058(11) 0.43237(11) 0.23144(11)
C55_3 C 0.73503(12) 0.21636(11) 0.44040(12)
C56_3 C 0.94040(12) 0.26497(12) 0.21636(11)
C59_3 C 0.96636(11) 0.51497(12) 0.30960(12)
C60_3 C 0.98503(12) 0.19040(12) 0.53364(11)
C62_3 C 0.80960(12) 0.53364(11) 0.48503(12)
C63_3 C 0.71636(11) 0.44040(12) 0.76497(12)
C64_3 C 0.69040(12) 0.53364(11) 0.51497(12)
C65_3 C 0.78364(11) 0.44040(12) 0.23503(12)
H31_3 H 0.7573 0.2059 0.4578
H32_3 H 0.9578 0.2427 0.2059
H35_3 H 0.9559 0.4927 0.2922
H38_3 H 0.7922 0.5441 0.5073
H39_3 H 0.7059 0.4578 0.7427
H40_3 H 0.7078 0.5441 0.4927
H41_3 H 0.7941 0.4578 0.2573
C66_3 C 0.70596(13) 0.18894(13) 0.42283(13)
C67_3 C 0.92283(13) 0.29404(13) 0.18894(13)
C70_3 C 0.93894(13) 0.54404(13) 0.32717(13)
C71_3 C 0.95596(13) 0.17283(13) 0.56106(13)
C73_3 C 0.82717(13) 0.56106(13) 0.45596(13)
C74_3 C 0.68894(13) 0.42283(13) 0.79404(13)
C75_3 C 0.67283(13) 0.56106(13) 0.54404(13)
C76_3 C 0.81106(13) 0.42283(13) 0.20596(13)
H42_3 H 0.7080 0.1594 0.4283
H43_3 H 0.9283 0.2920 0.1594
H46_3 H 0.9094 0.5420 0.3217
H47_3 H 0.9580 0.1783 0.5906
H49_3 H 0.8217 0.5906 0.4580
H50_3 H 0.6594 0.4283 0.7920
H51_3 H 0.6783 0.5906 0.5420
H52_3 H 0.8406 0.4283 0.2080
C77_3 C 0.67342(14) 0.20445(15) 0.39705(14)
C78_3 C 0.89705(14) 0.32658(14) 0.20445(15)
C81_3 C 0.95445(15) 0.57658(14) 0.35295(14)
C82_3 C 0.92342(14) 0.14705(14) 0.54555(15)
C84_3 C 0.85295(14) 0.54555(15) 0.42342(14)
C85_3 C 0.70445(15) 0.39705(14) 0.82658(14)
C86_3 C 0.64705(14) 0.54555(15) 0.57658(14)
C87_3 C 0.79555(15) 0.39705(14) 0.17342(14)
H53_3 H 0.6537 0.1853 0.3847
H54_3 H 0.8847 0.3463 0.1853
H57_3 H 0.9353 0.5963 0.3653
H58_3 H 0.9037 0.1347 0.5647
H60_3 H 0.8653 0.5647 0.4037
H61_3 H 0.6853 0.3847 0.8463
H62_3 H 0.6347 0.5647 0.5963
H63_3 H 0.8147 0.3847 0.1537
C88_3 C 0.66980(13) 0.24719(14) 0.38941(13)
C89_3 C 0.88941(13) 0.33020(13) 0.24719(14)
C92_3 C 0.99719(14) 0.58020(13) 0.36059(13)
C93_3 C 0.91980(13) 0.13941(13) 0.50281(14)
C95_3 C 0.86059(13) 0.50281(14) 0.41980(13)
C96_3 C 0.74719(14) 0.38941(13) 0.83020(13)
C97_3 C 0.63941(13) 0.50281(14) 0.58020(13)
C98_3 C 0.75281(14) 0.38941(13) 0.16980(13)
H64_3 H 0.6475 0.2576 0.3720
H65_3 H 0.8720 0.3525 0.2576
H69_3 H 0.8975 0.1220 0.4924
H71_3 H 0.8780 0.4924 0.3975
H72_3 H 0.7576 0.3720 0.8525
H73_3 H 0.6220 0.4924 0.6025
H74_3 H 0.7424 0.3720 0.1475
C99_3 C 0.69884(12) 0.27509(13) 0.40721(12)
C100_3 C 0.90721(12) 0.30116(12) 0.27509(13)
C104_3 C 0.94884(12) 0.15721(12) 0.47491(13)
C106_3 C 0.84279(12) 0.47491(13) 0.44884(12)
C107_3 C 0.77509(13) 0.40721(12) 0.80116(12)
C108_3 C 0.65721(12) 0.47491(13) 0.55116(12)
C109_3 C 0.72491(13) 0.40721(12) 0.19884(12)
H75_3 H 0.6964 0.3047 0.4022
H76_3 H 0.9022 0.3036 0.3047
H80_3 H 0.9464 0.1522 0.4453
H82_3 H 0.8478 0.4453 0.4464
H83_3 H 0.8047 0.4022 0.8036
H84_3 H 0.6522 0.4453 0.5536
H85_3 H 0.6953 0.4022 0.1964
C110_3 C 0.99697(10) 0.1250 0.25303(10)
C113_3 C 0.75303(10) 0.49697(10) 0.6250
C114_3 C 0.74697(10) 0.49697(10) 0.3750
H86_3 H 0.8967 0.2493 0.5193
H89_3 H 0.9807 0.3967 0.2493
H90_3 H 0.9993 0.3533 0.2307
H93_3 H 0.7307 0.5007 0.6467
H94_3 H 0.7493 0.5193 0.6033
H95_3 H 0.7693 0.5007 0.3533
H96_3 H 0.7507 0.5193 0.3967
N5_3 N 0.85534(8) 0.29428(8) 0.50166(8)
N7_3 N 0.95572(8) 0.10534(8) 0.24834(8)
N8_3 N 0.99834(8) 0.35534(8) 0.29428(8)
N12_3 N 0.74834(8) 0.45572(8) 0.60534(8)
N13_3 N 0.79428(8) 0.50166(8) 0.64466(8)
N14_3 N 0.75166(8) 0.45572(8) 0.39466(8)
N15_3 N 0.70572(8) 0.50166(8) 0.35534(8)
N16_3 N 0.80694(8) 0.34496(8) 0.49895(9)
N17_3 N 0.99895(9) 0.19306(8) 0.34496(8)
N18_3 N 0.90504(8) 0.05694(8) 0.25105(9)
N23_3 N 0.75105(9) 0.40504(8) 0.55694(8)
N24_3 N 0.84496(8) 0.49895(9) 0.69306(8)
N25_3 N 0.74895(9) 0.40504(8) 0.44306(8)
N26_3 N 0.65504(8) 0.49895(9) 0.30694(8)
N28_3 N 0.84496(8) 0.00105(9) 0.19306(8)
N31_3 N 0.79203(9) 0.27491(9) 0.46713(8)
N32_3 N 0.96713(8) 0.20797(9) 0.27491(9)
N33_3 N 0.97509(9) 0.04203(9) 0.28287(8)
N38_3 N 0.78287(8) 0.47509(9) 0.54203(9)
N39_3 N 0.77491(9) 0.46713(8) 0.70797(9)
N40_3 N 0.71713(8) 0.47509(9) 0.45797(9)
N41_3 N 0.72509(9) 0.46713(8) 0.29203(9)
N42_3 N 0.75884(9) 0.29050(9) 0.45028(8)
N43_3 N 0.95028(8) 0.24116(9) 0.29050(9)
N44_3 N 0.95950(9) 0.00884(9) 0.29972(8)
N49_3 N 0.79972(8) 0.45950(9) 0.50884(9)
N50_3 N 0.79050(9) 0.45028(8) 0.74116(9)
N51_3 N 0.70028(8) 0.45950(9) 0.49116(9)
N52_3 N 0.70950(9) 0.45028(8) 0.25884(9)
C46_3 C 0.99058(11) 0.98144(11) 0.31763(11)
H66_3 H 0.9924 0.8975 0.3780
C101_3 C 0.97491(13) 0.94884(12) 0.34279(12)
H77_3 H 0.9453 0.9464 0.3478
N29_3 N 0.84496(8) 0.99895(9) 0.30694(8)
C46_4 C 0.50942(11) 0.01856(11) 0.81763(11)
C57_4 C 0.46636(11) 0.01497(12) 0.80960(12)
C68_4 C 0.43894(13) 0.04404(13) 0.82717(13)
H44_4 H 0.4094 0.0420 0.8217
C79_4 C 0.45445(15) 0.07658(14) 0.85295(14)
H55_4 H 0.4353 0.0963 0.8653
C90_4 C 0.49719(14) 0.08020(13) 0.86059(13)
H66_4 H 0.5076 0.1025 0.8780
C101_4 C 0.52509(13) 0.05116(12) 0.84279(12)
H77_4 H 0.5547 0.0536 0.8478
N29_4 N 0.65504(8) 0.00105(9) 0.80694(8)
C5_4 C 0.48503(12) 0.69040(12) 0.03364(11)
H3_4 H 0.5073 0.7078 0.0441
C6_4 C 0.45596(13) 0.67283(13) 0.06106(13)
H4_4 H 0.4580 0.6783 0.0906
C7_4 C 0.42342(14) 0.64705(14) 0.04555(15)
H5_4 H 0.4037 0.6347 0.0647
C8_4 C 0.41980(13) 0.63941(13) 0.00281(14)
H8_4 H 0.6467 0.7693 0.0007
C11_4 C 0.62785(11) 0.67102(11) 0.02200(11)
C17_4 C 0.37215(11) 0.82898(11) 0.02200(11)
C18_4 C 0.77200(11) 0.57898(11) 0.12215(11)
C19_4 C 0.67102(11) 0.47800(11) 0.12785(11)
H9_4 H 0.6007 0.6690 0.0349
H15_4 H 0.3993 0.8310 0.0349
H16_4 H 0.7849 0.5810 0.1493
H17_4 H 0.6690 0.4651 0.1007
C22_4 C 0.65788(11) 0.64030(12) 0.01991(11)
C28_4 C 0.34212(11) 0.85970(12) 0.01991(11)
C29_4 C 0.76991(11) 0.60970(12) 0.09212(11)
C30_4 C 0.64030(12) 0.48009(11) 0.15788(11)
H20_4 H 0.6550 0.6125 0.0313
H26_4 H 0.3450 0.8875 0.0313
H27_4 H 0.7813 0.6375 0.0950
H28_4 H 0.6125 0.4687 0.1550
C40_4 C 0.73773(10) 0.55550(11) 0.06649(10)
C41_4 C 0.69450(11) 0.51227(10) 0.18351(10)
C52_4 C 0.74058(11) 0.56763(11) 0.26856(11)
C53_4 C 0.81763(11) 0.50942(11) 0.01856(11)
C60_4 C 0.51497(12) 0.80960(12) 0.03364(11)
C63_4 C 0.78364(11) 0.55960(12) 0.26497(12)
C64_4 C 0.80960(12) 0.46636(11) 0.01497(12)
H36_4 H 0.4927 0.7922 0.0441
H38_4 H 0.7078 0.4559 0.0073
H39_4 H 0.7941 0.5422 0.2427
C71_4 C 0.54404(13) 0.82717(13) 0.06106(13)
C74_4 C 0.81106(13) 0.57717(13) 0.29404(13)
C75_4 C 0.82717(13) 0.43894(13) 0.04404(13)
H47_4 H 0.5420 0.8217 0.0906
H50_4 H 0.8406 0.5717 0.2920
H51_4 H 0.8217 0.4094 0.0420
C82_4 C 0.57658(14) 0.85295(14) 0.04555(15)
C85_4 C 0.79555(15) 0.60295(14) 0.32658(14)
C86_4 C 0.85295(14) 0.45445(15) 0.07658(14)
H58_4 H 0.5963 0.8653 0.0647
H61_4 H 0.8147 0.6153 0.3463
H62_4 H 0.8653 0.4353 0.0963
C93_4 C 0.58020(13) 0.86059(13) 0.00281(14)
C96_4 C 0.75281(14) 0.61059(13) 0.33020(13)
C97_4 C 0.86059(13) 0.49719(14) 0.08020(13)
H72_4 H 0.7424 0.6280 0.3525
H73_4 H 0.8780 0.5076 0.1025
C107_4 C 0.72491(13) 0.59279(12) 0.30116(12)
C108_4 C 0.84279(12) 0.52509(13) 0.05116(12)
H83_4 H 0.6953 0.5978 0.3036
H84_4 H 0.8478 0.5547 0.0536
C113_4 C 0.74697(10) 0.50303(10) 0.1250
H86_4 H 0.6033 0.7507 0.0193
H91_4 H 0.3533 0.7307 0.0007
H92_4 H 0.3967 0.7493 0.0193
H93_4 H 0.7693 0.4993 0.1467
H94_4 H 0.7507 0.4807 0.1033
N5_4 N 0.64466(8) 0.70572(8) 0.00166(8)
N11_4 N 0.35534(8) 0.79428(8) 0.00166(8)
N12_4 N 0.75166(8) 0.54428(8) 0.10534(8)
N13_4 N 0.70572(8) 0.49834(8) 0.14466(8)
N23_4 N 0.74895(9) 0.59496(8) 0.05694(8)
N24_4 N 0.65504(8) 0.50105(9) 0.19306(8)
N38_4 N 0.71713(8) 0.52491(9) 0.04203(9)
N39_4 N 0.72509(9) 0.53287(8) 0.20797(9)
N49_4 N 0.70028(8) 0.54050(9) 0.00884(9)
N50_4 N 0.70950(9) 0.54972(8) 0.24116(9)
Zn1_6 Zn 0.5000 0.7500 0.8750
C1_4 C 0.62215(11) 0.77200(11) 0.92102(11)
H1_4 H 0.6493 0.7849 0.9190
C2_4 C 0.59212(11) 0.76991(11) 0.89030(12)
H2_4 H 0.5950 0.7813 0.8625
C3_4 C 0.56649(10) 0.73773(10) 0.94450(11)
C4_4 C 0.48144(11) 0.68237(11) 0.99058(11)
H6_4 H 0.3975 0.6220 0.9924
C9_4 C 0.44884(12) 0.65721(12) 0.97491(13)
H7_4 H 0.4464 0.6522 0.9453
C10_4 C 0.6250 0.74697(10) 0.99697(10)
N1_4 N 0.60534(8) 0.75166(8) 0.95572(8)
N2_4 N 0.55694(8) 0.74895(9) 0.90504(8)
N3_4 N 0.54203(9) 0.71713(8) 0.97509(9)
N4_4 N 0.50884(9) 0.70028(8) 0.95950(9)
C12_4 C 0.47800(11) 0.87215(11) 0.82898(11)
C13_4 C 0.57898(11) 0.87785(11) 0.72800(11)
C14_4 C 0.52200(11) 0.62785(11) 0.82898(11)
C15_4 C 0.42102(11) 0.62215(11) 0.72800(11)
C16_4 C 0.37785(11) 0.72800(11) 0.92102(11)
C20_4 C 0.72800(11) 0.57898(11) 0.87785(11)
C21_4 C 0.82898(11) 0.47800(11) 0.87215(11)
H10_4 H 0.4651 0.8993 0.8310
H11_4 H 0.5810 0.8507 0.7151
H12_4 H 0.5349 0.6007 0.8310
H13_4 H 0.4190 0.6493 0.7151
H14_4 H 0.3507 0.7151 0.9190
H18_4 H 0.7151 0.5810 0.8507
H19_4 H 0.8310 0.4651 0.8993
C23_4 C 0.48009(11) 0.84212(11) 0.85970(12)
C24_4 C 0.60970(12) 0.90788(11) 0.73009(11)
C25_4 C 0.51991(11) 0.65788(11) 0.85970(12)
C26_4 C 0.39030(12) 0.59212(11) 0.73009(11)
C27_4 C 0.40788(11) 0.73009(11) 0.89030(12)
C31_4 C 0.73009(11) 0.60970(12) 0.90788(11)
C32_4 C 0.85970(12) 0.48009(11) 0.84212(11)
H21_4 H 0.4687 0.8450 0.8875
H22_4 H 0.6375 0.9050 0.7187
H23_4 H 0.5313 0.6550 0.8875
H24_4 H 0.3625 0.5950 0.7187
H25_4 H 0.4050 0.7187 0.8625
H29_4 H 0.7187 0.6375 0.9050
H30_4 H 0.8875 0.4687 0.8450
C33_4 C 0.68351(10) 0.69450(11) 0.98773(10)
C34_4 C 0.51227(10) 0.81649(10) 0.80550(11)
C35_4 C 0.55550(11) 0.93351(10) 0.76227(10)
C36_4 C 0.48773(10) 0.68351(10) 0.80550(11)
C37_4 C 0.44450(11) 0.56649(10) 0.76227(10)
C38_4 C 0.43351(10) 0.76227(10) 0.94450(11)
C39_4 C 0.31649(10) 0.80550(11) 0.98773(10)
C42_4 C 0.76227(10) 0.55550(11) 0.93351(10)
C43_4 C 0.80550(11) 0.51227(10) 0.81649(10)
C44_4 C 0.76856(11) 0.74058(11) 0.93237(11)
C45_4 C 0.56763(11) 0.73144(11) 0.75942(11)
C47_4 C 0.43237(11) 0.76856(11) 0.75942(11)
C48_4 C 0.49058(11) 0.48144(11) 0.81763(11)
C49_4 C 0.51856(11) 0.81763(11) 0.99058(11)
C50_4 C 0.23144(11) 0.75942(11) 0.93237(11)
C51_4 C 0.68237(11) 0.50942(11) 0.98144(11)
C54_4 C 0.75942(11) 0.56763(11) 0.73144(11)
C55_4 C 0.76497(12) 0.78364(11) 0.94040(12)
C56_4 C 0.55960(12) 0.73503(12) 0.71636(11)
C58_4 C 0.44040(12) 0.76497(12) 0.71636(11)
C59_4 C 0.53364(11) 0.48503(12) 0.80960(12)
C61_4 C 0.23503(12) 0.71636(11) 0.94040(12)
C62_4 C 0.69040(12) 0.46636(11) 0.98503(12)
C65_4 C 0.71636(11) 0.55960(12) 0.73503(12)
H31_4 H 0.7427 0.7941 0.9578
H32_4 H 0.5422 0.7573 0.7059
H33_4 H 0.4559 0.9927 0.7922
H34_4 H 0.4578 0.7427 0.7059
H35_4 H 0.5441 0.5073 0.7922
H37_4 H 0.2573 0.7059 0.9578
H40_4 H 0.7922 0.4559 0.9927
H41_4 H 0.7059 0.5422 0.7573
C66_4 C 0.79404(13) 0.81106(13) 0.92283(13)
C67_4 C 0.57717(13) 0.70596(13) 0.68894(13)
C69_4 C 0.42283(13) 0.79404(13) 0.68894(13)
C70_4 C 0.56106(13) 0.45596(13) 0.82717(13)
C72_4 C 0.20596(13) 0.68894(13) 0.92283(13)
C73_4 C 0.67283(13) 0.43894(13) 0.95596(13)
C76_4 C 0.68894(13) 0.57717(13) 0.70596(13)
H42_4 H 0.7920 0.8406 0.9283
H43_4 H 0.5717 0.7080 0.6594
H45_4 H 0.4283 0.7920 0.6594
H46_4 H 0.5906 0.4580 0.8217
H48_4 H 0.2080 0.6594 0.9283
H49_4 H 0.6783 0.4094 0.9580
H52_4 H 0.6594 0.5717 0.7080
C77_4 C 0.82658(14) 0.79555(15) 0.89705(14)
C78_4 C 0.60295(14) 0.67342(14) 0.70445(15)
C80_4 C 0.39705(14) 0.82658(14) 0.70445(15)
C81_4 C 0.54555(15) 0.42342(14) 0.85295(14)
C83_4 C 0.17342(14) 0.70445(15) 0.89705(14)
C84_4 C 0.64705(14) 0.45445(15) 0.92342(14)
C87_4 C 0.70445(15) 0.60295(14) 0.67342(14)
H53_4 H 0.8463 0.8147 0.8847
H54_4 H 0.6153 0.6537 0.6853
H56_4 H 0.3847 0.8463 0.6853
H57_4 H 0.5647 0.4037 0.8653
H59_4 H 0.1537 0.6853 0.8847
H60_4 H 0.6347 0.4353 0.9037
H63_4 H 0.6853 0.6153 0.6537
C88_4 C 0.83020(13) 0.75281(14) 0.88941(13)
C89_4 C 0.61059(13) 0.66980(13) 0.74719(14)
C91_4 C 0.38941(13) 0.83020(13) 0.74719(14)
C92_4 C 0.50281(14) 0.41980(13) 0.86059(13)
C94_4 C 0.16980(13) 0.74719(14) 0.88941(13)
C95_4 C 0.63941(13) 0.49719(14) 0.91980(13)
C98_4 C 0.74719(14) 0.61059(13) 0.66980(13)
H64_4 H 0.8525 0.7424 0.8720
H65_4 H 0.6280 0.6475 0.7576
H67_4 H 0.3720 0.8525 0.7576
H68_4 H 0.4924 0.3975 0.8780
H69_4 H 0.6025 0.8780 0.9924
H70_4 H 0.1475 0.7576 0.8720
H71_4 H 0.6220 0.5076 0.8975
H74_4 H 0.7576 0.6280 0.6475
C99_4 C 0.80116(12) 0.72491(13) 0.90721(12)
C100_4 C 0.59279(12) 0.69884(12) 0.77509(13)
C102_4 C 0.40721(12) 0.80116(12) 0.77509(13)
C103_4 C 0.47491(13) 0.44884(12) 0.84279(12)
C104_4 C 0.55116(12) 0.84279(12) 0.97491(13)
C105_4 C 0.19884(12) 0.77509(13) 0.90721(12)
C106_4 C 0.65721(12) 0.52509(13) 0.94884(12)
C109_4 C 0.77509(13) 0.59279(12) 0.69884(12)
H75_4 H 0.8036 0.6953 0.9022
H76_4 H 0.5978 0.6964 0.8047
H78_4 H 0.4022 0.8036 0.8047
H79_4 H 0.4453 0.4464 0.8478
H80_4 H 0.5536 0.8478 0.9453
H81_4 H 0.1964 0.8047 0.9022
H82_4 H 0.6522 0.5547 0.9464
H85_4 H 0.8047 0.5978 0.6964
C110_4 C 0.50303(10) 0.8750 0.75303(10)
C111_4 C 0.49697(10) 0.6250 0.75303(10)
C112_4 C 0.3750 0.75303(10) 0.99697(10)
C114_4 C 0.75303(10) 0.50303(10) 0.8750
H87_4 H 0.4807 0.8967 0.7493
H88_4 H 0.4993 0.8533 0.7307
H89_4 H 0.5193 0.6033 0.7493
H90_4 H 0.5007 0.6467 0.7307
H95_4 H 0.7307 0.4993 0.8533
H96_4 H 0.7493 0.4807 0.8967
N6_4 N 0.49834(8) 0.85534(8) 0.79428(8)
N7_4 N 0.54428(8) 0.89466(8) 0.74834(8)
N8_4 N 0.50166(8) 0.64466(8) 0.79428(8)
N9_4 N 0.45572(8) 0.60534(8) 0.74834(8)
N10_4 N 0.39466(8) 0.74834(8) 0.95572(8)
N14_4 N 0.74834(8) 0.54428(8) 0.89466(8)
N15_4 N 0.79428(8) 0.49834(8) 0.85534(8)
N16_4 N 0.69306(8) 0.65504(8) 0.99895(9)
N17_4 N 0.50105(9) 0.80694(8) 0.84496(8)
N18_4 N 0.59496(8) 0.94306(8) 0.75105(9)
N19_4 N 0.49895(9) 0.69306(8) 0.84496(8)
N21_4 N 0.44306(8) 0.75105(9) 0.90504(8)
N25_4 N 0.75105(9) 0.59496(8) 0.94306(8)
N26_4 N 0.84496(8) 0.50105(9) 0.80694(8)
N28_4 N 0.65504(8) 0.99895(9) 0.69306(8)
N31_4 N 0.70797(9) 0.72509(9) 0.96713(8)
N32_4 N 0.53287(8) 0.79203(9) 0.77491(9)
N33_4 N 0.52491(9) 0.95797(9) 0.78287(8)
N34_4 N 0.46713(8) 0.70797(9) 0.77491(9)
N35_4 N 0.47509(9) 0.54203(9) 0.78287(8)
N36_4 N 0.45797(9) 0.78287(8) 0.97509(9)
N37_4 N 0.29203(9) 0.77491(9) 0.96713(8)
N40_4 N 0.78287(8) 0.52491(9) 0.95797(9)
N41_4 N 0.77491(9) 0.53287(8) 0.79203(9)
N42_4 N 0.74116(9) 0.70950(9) 0.95028(8)
N43_4 N 0.54972(8) 0.75884(9) 0.79050(9)
N44_4 N 0.54050(9) 0.99116(9) 0.79972(8)
N45_4 N 0.45028(8) 0.74116(9) 0.79050(9)
N46_4 N 0.45950(9) 0.50884(9) 0.79972(8)
N47_4 N 0.49116(9) 0.79972(8) 0.95950(9)
N48_4 N 0.25884(9) 0.79050(9) 0.95028(8)
N51_4 N 0.79972(8) 0.54050(9) 0.99116(9)
N52_4 N 0.79050(9) 0.54972(8) 0.75884(9)
Zn7_4 Zn 0.2500 0.3750 0.0000
C21_5 C 0.12785(11) 0.32898(11) 0.02200(11)
H19_5 H 0.1007 0.3310 0.0349
C32_5 C 0.15788(11) 0.35970(12) 0.01991(11)
H30_5 H 0.1550 0.3875 0.0313
C62_5 C 0.01497(12) 0.19040(12) 0.03364(11)
H40_5 H 0.0073 0.2922 0.0441
C73_5 C 0.04404(13) 0.17283(13) 0.06106(13)
H49_5 H 0.0420 0.1783 0.0906
C84_5 C 0.07658(14) 0.14705(14) 0.04555(15)
H60_5 H 0.0963 0.1347 0.0647
C95_5 C 0.08020(13) 0.13941(13) 0.00281(14)
H95_5 H 0.1467 0.2307 0.0007
H96_5 H 0.1033 0.2493 0.0193
N15_5 N 0.14466(8) 0.29428(8) 0.00166(8)
C1_5 C 0.07898(11) 0.12215(11) 0.72800(11)
H1_5 H 0.0810 0.1493 0.7151
C2_5 C 0.10970(12) 0.09212(11) 0.73009(11)
H2_5 H 0.1375 0.0950 0.7187
C3_5 C 0.05550(11) 0.06649(10) 0.76227(10)
C10_5 C 0.00303(10) 0.1250 0.75303(10)
N1_5 N 0.04428(8) 0.10534(8) 0.74834(8)
N2_5 N 0.09496(8) 0.05694(8) 0.75105(9)
N3_5 N 0.02491(9) 0.04203(9) 0.78287(8)
N4_5 N 0.04050(9) 0.00884(9) 0.79972(8)
Zn2_4 Zn -0.0000 0.2500 0.8750
Zn7_5 Zn 0.2500 0.3750 1.0000
C20_5 C 0.12215(11) 0.22800(11) 0.92102(11)
H18_5 H 0.1493 0.2151 0.9190
C31_5 C 0.09212(11) 0.23009(11) 0.89030(12)
H29_5 H 0.0950 0.2187 0.8625
C33_5 C 0.01227(10) 0.18351(10) 0.80550(11)
C42_5 C 0.06649(10) 0.26227(10) 0.94450(11)
C43_5 C 0.18351(10) 0.30550(11) 0.98773(10)
C44_5 C 0.06763(11) 0.26856(11) 0.75942(11)
C49_5 C 0.00942(11) 0.01856(11) 0.68237(11)
C51_5 C 0.01856(11) 0.18237(11) 0.99058(11)
C54_5 C 0.26856(11) 0.25942(11) 0.93237(11)
C55_5 C 0.05960(12) 0.26497(12) 0.71636(11)
C65_5 C 0.26497(12) 0.21636(11) 0.94040(12)
H31_5 H 0.0422 0.2427 0.7059
H41_5 H 0.2427 0.2059 0.9578
C66_5 C 0.07717(13) 0.29404(13) 0.68894(13)
C76_5 C 0.29404(13) 0.18894(13) 0.92283(13)
H42_5 H 0.0717 0.2920 0.6594
H52_5 H 0.2920 0.1594 0.9283
C77_5 C 0.10295(14) 0.32658(14) 0.70445(15)
C87_5 C 0.32658(14) 0.20445(15) 0.89705(14)
H53_5 H 0.1153 0.3463 0.6853
H63_5 H 0.3463 0.1853 0.8847
C88_5 C 0.11059(13) 0.33020(13) 0.74719(14)
C98_5 C 0.33020(13) 0.24719(14) 0.88941(13)
H64_5 H 0.1280 0.3525 0.7576
H69_5 H 0.0076 0.1025 0.6220
H71_5 H 0.1025 0.1220 0.9924
H74_5 H 0.3525 0.2576 0.8720
C99_5 C 0.09279(12) 0.30116(12) 0.77509(13)
C104_5 C 0.02509(13) 0.05116(12) 0.65721(12)
C106_5 C 0.05116(12) 0.15721(12) 0.97491(13)
C109_5 C 0.30116(12) 0.27509(13) 0.90721(12)
H75_5 H 0.0978 0.3036 0.8047
H80_5 H 0.0547 0.0536 0.6522
H82_5 H 0.0536 0.1522 0.9453
H85_5 H 0.3036 0.3047 0.9022
C114_5 C 0.1250 0.25303(10) 0.99697(10)
N14_5 N 0.10534(8) 0.24834(8) 0.95572(8)
N16_5 N 0.00105(9) 0.19306(8) 0.84496(8)
N25_5 N 0.05694(8) 0.25105(9) 0.90504(8)
N26_5 N 0.19306(8) 0.34496(8) 0.99895(9)
N31_5 N 0.03287(8) 0.20797(9) 0.77491(9)
N40_5 N 0.04203(9) 0.28287(8) 0.97509(9)
N41_5 N 0.20797(9) 0.27491(9) 0.96713(8)
N42_5 N 0.04972(8) 0.24116(9) 0.79050(9)
N51_5 N 0.00884(9) 0.29972(8) 0.95950(9)
N52_5 N 0.24116(9) 0.29050(9) 0.95028(8)
C4_5 C 0.00942(11) 0.98144(11) 0.81763(11)
H6_5 H 0.0076 0.8975 0.8780
C9_5 C 0.02509(13) 0.94884(12) 0.84279(12)
H7_5 H 0.0547 0.9464 0.8478
Zn5_4 Zn -0.0000 0.7500 0.6250
C16_5 C 0.07898(11) 0.87785(11) 0.77200(11)
H14_5 H 0.0810 0.8507 0.7849
C27_5 C 0.10970(12) 0.90788(11) 0.76991(11)
H25_5 H 0.1375 0.9050 0.7813
C38_5 C 0.05550(11) 0.93351(10) 0.73773(10)
C39_5 C 0.01227(10) 0.81649(10) 0.69450(11)
C50_5 C 0.06763(11) 0.73144(11) 0.74058(11)
C61_5 C 0.05960(12) 0.73503(12) 0.78364(11)
H37_5 H 0.0422 0.7573 0.7941
C72_5 C 0.07717(13) 0.70596(13) 0.81106(13)
H48_5 H 0.0717 0.7080 0.8406
C83_5 C 0.10295(14) 0.67342(14) 0.79555(15)
H59_5 H 0.1153 0.6537 0.8147
C94_5 C 0.11059(13) 0.66980(13) 0.75281(14)
H70_5 H 0.1280 0.6475 0.7424
C105_5 C 0.09279(12) 0.69884(12) 0.72491(13)
H81_5 H 0.0978 0.6964 0.6953
C112_5 C 0.00303(10) 0.8750 0.74697(10)
N10_5 N 0.04428(8) 0.89466(8) 0.75166(8)
N21_5 N 0.09496(8) 0.94306(8) 0.74895(9)
N22_3 N 0.00105(9) 0.80694(8) 0.65504(8)
N36_5 N 0.02491(9) 0.95797(9) 0.71713(8)
N37_5 N 0.03287(8) 0.79203(9) 0.72509(9)
N47_5 N 0.04050(9) 0.99116(9) 0.70028(8)
N48_5 N 0.04972(8) 0.75884(9) 0.70950(9)
Zn6_4 Zn 0.7500 0.1250 0.0000
C19_5 C 0.87215(11) 0.17102(11) 0.02200(11)
H17_5 H 0.8993 0.1690 0.0349
C30_5 C 0.84212(11) 0.14030(12) 0.01991(11)
H28_5 H 0.8450 0.1125 0.0313
C64_5 C 0.98503(12) 0.30960(12) 0.03364(11)
H38_5 H 0.9927 0.2078 0.0441
C75_5 C 0.95596(13) 0.32717(13) 0.06106(13)
H51_5 H 0.9580 0.3217 0.0906
C86_5 C 0.92342(14) 0.35295(14) 0.04555(15)
H62_5 H 0.9037 0.3653 0.0647
C97_5 C 0.91980(13) 0.36059(13) 0.00281(14)
H93_5 H 0.8533 0.2693 0.0007
H94_5 H 0.8967 0.2507 0.0193
N13_5 N 0.85534(8) 0.20572(8) 0.00166(8)
H3_5 H 0.9559 0.0073 0.7922
H8_5 H 0.9993 0.1467 0.7307
Zn2_5 Zn 1.0000 0.2500 0.8750
Zn6_5 Zn 0.7500 0.1250 1.0000
C11_5 C 0.97800(11) 0.12785(11) 0.82898(11)
C18_5 C 0.87785(11) 0.27200(11) 0.92102(11)
H9_5 H 0.9651 0.1007 0.8310
H16_5 H 0.8507 0.2849 0.9190
C22_5 C 0.98009(11) 0.15788(11) 0.85970(12)
C29_5 C 0.90788(11) 0.26991(11) 0.89030(12)
H20_5 H 0.9687 0.1550 0.8875
H27_5 H 0.9050 0.2813 0.8625
C40_5 C 0.93351(10) 0.23773(10) 0.94450(11)
C41_5 C 0.81649(10) 0.19450(11) 0.98773(10)
C52_5 C 0.73144(11) 0.24058(11) 0.93237(11)
C53_5 C 0.98144(11) 0.31763(11) 0.99058(11)
C60_5 C 0.96636(11) 0.01497(12) 0.69040(12)
C63_5 C 0.73503(12) 0.28364(11) 0.94040(12)
H39_5 H 0.7573 0.2941 0.9578
C71_5 C 0.93894(13) 0.04404(13) 0.67283(13)
C74_5 C 0.70596(13) 0.31106(13) 0.92283(13)
H47_5 H 0.9094 0.0420 0.6783
H50_5 H 0.7080 0.3406 0.9283
C82_5 C 0.95445(15) 0.07658(14) 0.64705(14)
C85_5 C 0.67342(14) 0.29555(15) 0.89705(14)
H58_5 H 0.9353 0.0963 0.6347
H61_5 H 0.6537 0.3147 0.8847
C93_5 C 0.99719(14) 0.08020(13) 0.63941(13)
C96_5 C 0.66980(13) 0.25281(14) 0.88941(13)
H72_5 H 0.6475 0.2424 0.8720
H73_5 H 0.8975 0.3780 0.9924
C107_5 C 0.69884(12) 0.22491(13) 0.90721(12)
C108_5 C 0.94884(12) 0.34279(12) 0.97491(13)
H83_5 H 0.6964 0.1953 0.9022
H84_5 H 0.9464 0.3478 0.9453
C113_5 C 0.8750 0.24697(10) 0.99697(10)
H86_5 H 0.9807 0.1033 0.7493
N5_5 N 0.99834(8) 0.14466(8) 0.79428(8)
N12_5 N 0.89466(8) 0.25166(8) 0.95572(8)
N23_5 N 0.94306(8) 0.24895(9) 0.90504(8)
N24_5 N 0.80694(8) 0.15504(8) 0.99895(9)
N27_3 N 0.99895(9) 0.30694(8) 0.84496(8)
N38_5 N 0.95797(9) 0.21713(8) 0.97509(9)
N39_5 N 0.79203(9) 0.22509(9) 0.96713(8)
N49_5 N 0.99116(9) 0.20028(8) 0.95950(9)
N50_5 N 0.75884(9) 0.20950(9) 0.95028(8)
C5_5 C 0.96636(11) 0.98503(12) 0.80960(12)
C6_5 C 0.93894(13) 0.95596(13) 0.82717(13)
H4_5 H 0.9094 0.9580 0.8217
C7_5 C 0.95445(15) 0.92342(14) 0.85295(14)
H5_5 H 0.9353 0.9037 0.8653
C8_5 C 0.99719(14) 0.91980(13) 0.86059(13)
Zn5_5 Zn 1.0000 0.7500 0.6250
C17_5 C 0.97800(11) 0.87215(11) 0.67102(11)
H15_5 H 0.9651 0.8993 0.6690
C28_5 C 0.98009(11) 0.84212(11) 0.64030(12)
H26_5 H 0.9687 0.8450 0.6125
H36_5 H 0.9559 0.9927 0.7078
H91_5 H 0.9993 0.8533 0.7693
H92_5 H 0.9807 0.8967 0.7507
N11_5 N 0.99834(8) 0.85534(8) 0.70572(8)
C1_6 C 0.57898(11) 0.37785(11) 0.27200(11)
H1_6 H 0.5810 0.3507 0.2849
C2_6 C 0.60970(12) 0.40788(11) 0.26991(11)
H2_6 H 0.6375 0.4050 0.2813
C3_6 C 0.55550(11) 0.43351(10) 0.23773(10)
C4_6 C 0.50942(11) 0.51856(11) 0.18237(11)
C5_6 C 0.46636(11) 0.51497(12) 0.19040(12)
H3_6 H 0.4559 0.4927 0.2078
C6_6 C 0.43894(13) 0.54404(13) 0.17283(13)
H4_6 H 0.4094 0.5420 0.1783
C7_6 C 0.45445(15) 0.57658(14) 0.14705(14)
H5_6 H 0.4353 0.5963 0.1347
C8_6 C 0.49719(14) 0.58020(13) 0.13941(13)
H6_6 H 0.5076 0.6025 0.1220
C9_6 C 0.52509(13) 0.55116(12) 0.15721(12)
H7_6 H 0.5547 0.5536 0.1522
C10_6 C 0.50303(10) 0.3750 0.24697(10)
H8_6 H 0.4993 0.3533 0.2693
N1_6 N 0.54428(8) 0.39466(8) 0.25166(8)
N2_6 N 0.59496(8) 0.44306(8) 0.24895(9)
N3_6 N 0.52491(9) 0.45797(9) 0.21713(8)
N4_6 N 0.54050(9) 0.49116(9) 0.20028(8)
Zn2_6 Zn 0.5000 0.2500 0.1250
Zn5_6 Zn 0.5000 0.7500 0.3750
C11_6 C 0.47800(11) 0.37215(11) 0.17102(11)
C16_6 C 0.57898(11) 0.62215(11) 0.22800(11)
C17_6 C 0.47800(11) 0.62785(11) 0.32898(11)
C18_6 C 0.37785(11) 0.22800(11) 0.07898(11)
C20_6 C 0.62215(11) 0.27200(11) 0.07898(11)
H9_6 H 0.4651 0.3993 0.1690
H14_6 H 0.5810 0.6493 0.2151
H15_6 H 0.4651 0.6007 0.3310
H16_6 H 0.3507 0.2151 0.0810
H18_6 H 0.6493 0.2849 0.0810
C22_6 C 0.48009(11) 0.34212(11) 0.14030(12)
C27_6 C 0.60970(12) 0.59212(11) 0.23009(11)
C28_6 C 0.48009(11) 0.65788(11) 0.35970(12)
C29_6 C 0.40788(11) 0.23009(11) 0.10970(12)
C31_6 C 0.59212(11) 0.26991(11) 0.10970(12)
H20_6 H 0.4687 0.3450 0.1125
H25_6 H 0.6375 0.5950 0.2187
H26_6 H 0.4687 0.6550 0.3875
H27_6 H 0.4050 0.2187 0.1375
H29_6 H 0.5950 0.2813 0.1375
C33_6 C 0.51227(10) 0.31649(10) 0.19450(11)
C38_6 C 0.55550(11) 0.56649(10) 0.26227(10)
C39_6 C 0.51227(10) 0.68351(10) 0.30550(11)
C40_6 C 0.43351(10) 0.26227(10) 0.05550(11)
C41_6 C 0.31649(10) 0.30550(11) 0.01227(10)
C42_6 C 0.56649(10) 0.23773(10) 0.05550(11)
C43_6 C 0.68351(10) 0.19450(11) 0.01227(10)
C44_6 C 0.56763(11) 0.23144(11) 0.24058(11)
C49_6 C 0.50942(11) 0.48144(11) 0.31763(11)
C50_6 C 0.56763(11) 0.76856(11) 0.25942(11)
C51_6 C 0.51856(11) 0.31763(11) 0.00942(11)
C52_6 C 0.23144(11) 0.25942(11) 0.06763(11)
C53_6 C 0.48144(11) 0.18237(11) 0.00942(11)
C54_6 C 0.76856(11) 0.24058(11) 0.06763(11)
C55_6 C 0.55960(12) 0.23503(12) 0.28364(11)
C60_6 C 0.46636(11) 0.48503(12) 0.30960(12)
C61_6 C 0.55960(12) 0.76497(12) 0.21636(11)
C63_6 C 0.23503(12) 0.21636(11) 0.05960(12)
C65_6 C 0.76497(12) 0.28364(11) 0.05960(12)
H31_6 H 0.5422 0.2573 0.2941
H36_6 H 0.4559 0.5073 0.2922
H37_6 H 0.5422 0.7427 0.2059
H39_6 H 0.2573 0.2059 0.0422
H41_6 H 0.7427 0.2941 0.0422
C66_6 C 0.57717(13) 0.20596(13) 0.31106(13)
C71_6 C 0.43894(13) 0.45596(13) 0.32717(13)
C72_6 C 0.57717(13) 0.79404(13) 0.18894(13)
C74_6 C 0.20596(13) 0.18894(13) 0.07717(13)
C76_6 C 0.79404(13) 0.31106(13) 0.07717(13)
H42_6 H 0.5717 0.2080 0.3406
H47_6 H 0.4094 0.4580 0.3217
H48_6 H 0.5717 0.7920 0.1594
H50_6 H 0.2080 0.1594 0.0717
H52_6 H 0.7920 0.3406 0.0717
C77_6 C 0.60295(14) 0.17342(14) 0.29555(15)
C82_6 C 0.45445(15) 0.42342(14) 0.35295(14)
C83_6 C 0.60295(14) 0.82658(14) 0.20445(15)
C85_6 C 0.17342(14) 0.20445(15) 0.10295(14)
C87_6 C 0.82658(14) 0.29555(15) 0.10295(14)
H53_6 H 0.6153 0.1537 0.3147
H58_6 H 0.4353 0.4037 0.3653
H59_6 H 0.6153 0.8463 0.1853
H61_6 H 0.1537 0.1853 0.1153
H63_6 H 0.8463 0.3147 0.1153
C88_6 C 0.61059(13) 0.16980(13) 0.25281(14)
C93_6 C 0.49719(14) 0.41980(13) 0.36059(13)
C94_6 C 0.61059(13) 0.83020(13) 0.24719(14)
C96_6 C 0.16980(13) 0.24719(14) 0.11059(13)
C98_6 C 0.83020(13) 0.25281(14) 0.11059(13)
H64_6 H 0.6280 0.1475 0.2424
H69_6 H 0.5076 0.3975 0.3780
H70_6 H 0.6280 0.8525 0.2576
H71_6 H 0.6025 0.3780 0.0076
H72_6 H 0.1475 0.2576 0.1280
H73_6 H 0.3975 0.1220 0.0076
H74_6 H 0.8525 0.2424 0.1280
C99_6 C 0.59279(12) 0.19884(12) 0.22491(13)
C104_6 C 0.52509(13) 0.44884(12) 0.34279(12)
C105_6 C 0.59279(12) 0.80116(12) 0.27509(13)
C106_6 C 0.55116(12) 0.34279(12) 0.02509(13)
C107_6 C 0.19884(12) 0.27509(13) 0.09279(12)
C108_6 C 0.44884(12) 0.15721(12) 0.02509(13)
C109_6 C 0.80116(12) 0.22491(13) 0.09279(12)
H75_6 H 0.5978 0.1964 0.1953
H80_6 H 0.5547 0.4464 0.3478
H81_6 H 0.5978 0.8036 0.3047
H82_6 H 0.5536 0.3478 0.0547
H83_6 H 0.1964 0.3047 0.0978
H84_6 H 0.4464 0.1522 0.0547
H85_6 H 0.8036 0.1953 0.0978
C112_6 C 0.50303(10) 0.6250 0.25303(10)
C113_6 C 0.3750 0.25303(10) 0.00303(10)
C114_6 C 0.6250 0.24697(10) 0.00303(10)
H86_6 H 0.4807 0.3967 0.2507
H91_6 H 0.4993 0.6467 0.2307
H92_6 H 0.4807 0.6033 0.2493
N5_6 N 0.49834(8) 0.35534(8) 0.20572(8)
N10_6 N 0.54428(8) 0.60534(8) 0.24834(8)
N11_6 N 0.49834(8) 0.64466(8) 0.29428(8)
N12_6 N 0.39466(8) 0.24834(8) 0.04428(8)
N14_6 N 0.60534(8) 0.25166(8) 0.04428(8)
N16_6 N 0.50105(9) 0.30694(8) 0.15504(8)
N21_6 N 0.59496(8) 0.55694(8) 0.25105(9)
N22_4 N 0.50105(9) 0.69306(8) 0.34496(8)
N23_6 N 0.44306(8) 0.25105(9) 0.09496(8)
N24_6 N 0.30694(8) 0.34496(8) 0.00105(9)
N25_6 N 0.55694(8) 0.24895(9) 0.09496(8)
N26_6 N 0.69306(8) 0.15504(8) 0.00105(9)
N27_4 N 0.49895(9) 0.19306(8) 0.15504(8)
N31_6 N 0.53287(8) 0.29203(9) 0.22509(9)
N36_6 N 0.52491(9) 0.54203(9) 0.28287(8)
N37_6 N 0.53287(8) 0.70797(9) 0.27491(9)
N38_6 N 0.45797(9) 0.28287(8) 0.02491(9)
N39_6 N 0.29203(9) 0.27491(9) 0.03287(8)
N40_6 N 0.54203(9) 0.21713(8) 0.02491(9)
N41_6 N 0.70797(9) 0.22509(9) 0.03287(8)
N42_6 N 0.54972(8) 0.25884(9) 0.20950(9)
N47_6 N 0.54050(9) 0.50884(9) 0.29972(8)
N48_6 N 0.54972(8) 0.74116(9) 0.29050(9)
N49_6 N 0.49116(9) 0.29972(8) 0.04050(9)
N50_6 N 0.25884(9) 0.29050(9) 0.04972(8)
N51_6 N 0.50884(9) 0.20028(8) 0.04050(9)
N52_6 N 0.74116(9) 0.20950(9) 0.04972(8)
C19_6 C 0.37215(11) 0.32898(11) 0.97800(11)
C21_6 C 0.62785(11) 0.17102(11) 0.97800(11)
H17_6 H 0.3993 0.3310 0.9651
H19_6 H 0.6007 0.1690 0.9651
C30_6 C 0.34212(11) 0.35970(12) 0.98009(11)
C32_6 C 0.65788(11) 0.14030(12) 0.98009(11)
H28_6 H 0.3450 0.3875 0.9687
H30_6 H 0.6550 0.1125 0.9687
C62_6 C 0.51497(12) 0.30960(12) 0.96636(11)
C64_6 C 0.48503(12) 0.19040(12) 0.96636(11)
H38_6 H 0.4927 0.2922 0.9559
H40_6 H 0.5073 0.2078 0.9559
C73_6 C 0.54404(13) 0.32717(13) 0.93894(13)
C75_6 C 0.45596(13) 0.17283(13) 0.93894(13)
H49_6 H 0.5420 0.3217 0.9094
H51_6 H 0.4580 0.1783 0.9094
C84_6 C 0.57658(14) 0.35295(14) 0.95445(15)
C86_6 C 0.42342(14) 0.14705(14) 0.95445(15)
H60_6 H 0.5963 0.3653 0.9353
H62_6 H 0.4037 0.1347 0.9353
C95_6 C 0.58020(13) 0.36059(13) 0.99719(14)
C97_6 C 0.41980(13) 0.13941(13) 0.99719(14)
H93_6 H 0.3533 0.2307 0.9993
H94_6 H 0.3967 0.2493 0.9807
H95_6 H 0.6467 0.2693 0.9993
H96_6 H 0.6033 0.2507 0.9807
N13_6 N 0.35534(8) 0.29428(8) 0.99834(8)
N15_6 N 0.64466(8) 0.20572(8) 0.99834(8)
C4_7 C 0.49058(11) 0.01856(11) 0.31763(11)
C5_7 C 0.53364(11) 0.01497(12) 0.30960(12)
C6_7 C 0.56106(13) 0.04404(13) 0.32717(13)
H4_7 H 0.5906 0.0420 0.3217
C7_7 C 0.54555(15) 0.07658(14) 0.35295(14)
H5_7 H 0.5647 0.0963 0.3653
C8_7 C 0.50281(14) 0.08020(13) 0.36059(13)
H6_7 H 0.4924 0.1025 0.3780
C9_7 C 0.47491(13) 0.05116(12) 0.34279(12)
H7_7 H 0.4453 0.0536 0.3478
C16_7 C 0.42102(11) 0.12215(11) 0.27200(11)
C17_7 C 0.52200(11) 0.12785(11) 0.17102(11)
H14_7 H 0.4190 0.1493 0.2849
H15_7 H 0.5349 0.1007 0.1690
C27_7 C 0.39030(12) 0.09212(11) 0.26991(11)
C28_7 C 0.51991(11) 0.15788(11) 0.14030(12)
H25_7 H 0.3625 0.0950 0.2813
H26_7 H 0.5313 0.1550 0.1125
C38_7 C 0.44450(11) 0.06649(10) 0.23773(10)
C39_7 C 0.48773(10) 0.18351(10) 0.19450(11)
C50_7 C 0.43237(11) 0.26856(11) 0.24058(11)
C61_7 C 0.44040(12) 0.26497(12) 0.28364(11)
H36_7 H 0.5441 0.0073 0.2078
H37_7 H 0.4578 0.2427 0.2941
C72_7 C 0.42283(13) 0.29404(13) 0.31106(13)
H48_7 H 0.4283 0.2920 0.3406
C83_7 C 0.39705(14) 0.32658(14) 0.29555(15)
H59_7 H 0.3847 0.3463 0.3147
C94_7 C 0.38941(13) 0.33020(13) 0.25281(14)
H70_7 H 0.3720 0.3525 0.2424
C105_7 C 0.40721(12) 0.30116(12) 0.22491(13)
H81_7 H 0.4022 0.3036 0.1953
C112_7 C 0.49697(10) 0.1250 0.24697(10)
H91_7 H 0.5007 0.1467 0.2693
H92_7 H 0.5193 0.1033 0.2507
N10_7 N 0.45572(8) 0.10534(8) 0.25166(8)
N11_7 N 0.50166(8) 0.14466(8) 0.20572(8)
N21_7 N 0.40504(8) 0.05694(8) 0.24895(9)
N36_7 N 0.47509(9) 0.04203(9) 0.21713(8)
N37_7 N 0.46713(8) 0.20797(9) 0.22509(9)
N47_7 N 0.45950(9) 0.00884(9) 0.20028(8)
N48_7 N 0.45028(8) 0.24116(9) 0.20950(9)
C1_7 C 0.42102(11) 0.87785(11) 0.22800(11)
H1_7 H 0.4190 0.8507 0.2151
C2_7 C 0.39030(12) 0.90788(11) 0.23009(11)
H2_7 H 0.3625 0.9050 0.2187
C3_7 C 0.44450(11) 0.93351(10) 0.26227(10)
H3_7 H 0.5441 0.9927 0.2922
C10_7 C 0.49697(10) 0.8750 0.25303(10)
H8_7 H 0.5007 0.8533 0.2307
N1_7 N 0.45572(8) 0.89466(8) 0.24834(8)
N2_7 N 0.40504(8) 0.94306(8) 0.25105(9)
N3_7 N 0.47509(9) 0.95797(9) 0.28287(8)
N4_7 N 0.45950(9) 0.99116(9) 0.29972(8)
Zn6_6 Zn 0.7500 0.8750 0.5000
Zn7_6 Zn 0.2500 0.6250 0.5000
C11_7 C 0.52200(11) 0.87215(11) 0.32898(11)
C18_7 C 0.62215(11) 0.72800(11) 0.42102(11)
C19_7 C 0.62785(11) 0.82898(11) 0.52200(11)
C20_7 C 0.37785(11) 0.77200(11) 0.42102(11)
C21_7 C 0.37215(11) 0.67102(11) 0.52200(11)
H9_7 H 0.5349 0.8993 0.3310
H16_7 H 0.6493 0.7151 0.4190
H17_7 H 0.6007 0.8310 0.5349
H18_7 H 0.3507 0.7849 0.4190
H19_7 H 0.3993 0.6690 0.5349
C22_7 C 0.51991(11) 0.84212(11) 0.35970(12)
C29_7 C 0.59212(11) 0.73009(11) 0.39030(12)
C30_7 C 0.65788(11) 0.85970(12) 0.51991(11)
C31_7 C 0.40788(11) 0.76991(11) 0.39030(12)
C32_7 C 0.34212(11) 0.64030(12) 0.51991(11)
H20_7 H 0.5313 0.8450 0.3875
H27_7 H 0.5950 0.7187 0.3625
H28_7 H 0.6550 0.8875 0.5313
H29_7 H 0.4050 0.7813 0.3625
H30_7 H 0.3450 0.6125 0.5313
C33_7 C 0.48773(10) 0.81649(10) 0.30550(11)
C40_7 C 0.56649(10) 0.76227(10) 0.44450(11)
C41_7 C 0.68351(10) 0.80550(11) 0.48773(10)
C42_7 C 0.43351(10) 0.73773(10) 0.44450(11)
C43_7 C 0.31649(10) 0.69450(11) 0.48773(10)
C44_7 C 0.43237(11) 0.73144(11) 0.25942(11)
C49_7 C 0.49058(11) 0.98144(11) 0.18237(11)
C51_7 C 0.48144(11) 0.81763(11) 0.49058(11)
C52_7 C 0.76856(11) 0.75942(11) 0.43237(11)
C53_7 C 0.51856(11) 0.68237(11) 0.49058(11)
C54_7 C 0.23144(11) 0.74058(11) 0.43237(11)
C55_7 C 0.44040(12) 0.73503(12) 0.21636(11)
C60_7 C 0.53364(11) 0.98503(12) 0.19040(12)
C62_7 C 0.48503(12) 0.80960(12) 0.53364(11)
C63_7 C 0.76497(12) 0.71636(11) 0.44040(12)
C64_7 C 0.51497(12) 0.69040(12) 0.53364(11)
C65_7 C 0.23503(12) 0.78364(11) 0.44040(12)
H31_7 H 0.4578 0.7573 0.2059
H38_7 H 0.5073 0.7922 0.5441
H39_7 H 0.7427 0.7059 0.4578
H40_7 H 0.4927 0.7078 0.5441
H41_7 H 0.2573 0.7941 0.4578
C66_7 C 0.42283(13) 0.70596(13) 0.18894(13)
C71_7 C 0.56106(13) 0.95596(13) 0.17283(13)
C73_7 C 0.45596(13) 0.82717(13) 0.56106(13)
C74_7 C 0.79404(13) 0.68894(13) 0.42283(13)
C75_7 C 0.54404(13) 0.67283(13) 0.56106(13)
C76_7 C 0.20596(13) 0.81106(13) 0.42283(13)
H42_7 H 0.4283 0.7080 0.1594
H47_7 H 0.5906 0.9580 0.1783
H49_7 H 0.4580 0.8217 0.5906
H50_7 H 0.7920 0.6594 0.4283
H51_7 H 0.5420 0.6783 0.5906
H52_7 H 0.2080 0.8406 0.4283
C77_7 C 0.39705(14) 0.67342(14) 0.20445(15)
C82_7 C 0.54555(15) 0.92342(14) 0.14705(14)
C84_7 C 0.42342(14) 0.85295(14) 0.54555(15)
C85_7 C 0.82658(14) 0.70445(15) 0.39705(14)
C86_7 C 0.57658(14) 0.64705(14) 0.54555(15)
C87_7 C 0.17342(14) 0.79555(15) 0.39705(14)
H53_7 H 0.3847 0.6537 0.1853
H58_7 H 0.5647 0.9037 0.1347
H60_7 H 0.4037 0.8653 0.5647
H61_7 H 0.8463 0.6853 0.3847
H62_7 H 0.5963 0.6347 0.5647
H63_7 H 0.1537 0.8147 0.3847
C88_7 C 0.38941(13) 0.66980(13) 0.24719(14)
C93_7 C 0.50281(14) 0.91980(13) 0.13941(13)
C95_7 C 0.41980(13) 0.86059(13) 0.50281(14)
C96_7 C 0.83020(13) 0.74719(14) 0.38941(13)
C97_7 C 0.58020(13) 0.63941(13) 0.50281(14)
C98_7 C 0.16980(13) 0.75281(14) 0.38941(13)
H64_7 H 0.3720 0.6475 0.2576
H69_7 H 0.4924 0.8975 0.1220
H71_7 H 0.3975 0.8780 0.4924
H72_7 H 0.8525 0.7576 0.3720
H73_7 H 0.6025 0.6220 0.4924
H74_7 H 0.1475 0.7424 0.3720
C99_7 C 0.40721(12) 0.69884(12) 0.27509(13)
C104_7 C 0.47491(13) 0.94884(12) 0.15721(12)
C106_7 C 0.44884(12) 0.84279(12) 0.47491(13)
C107_7 C 0.80116(12) 0.77509(13) 0.40721(12)
C108_7 C 0.55116(12) 0.65721(12) 0.47491(13)
C109_7 C 0.19884(12) 0.72491(13) 0.40721(12)
H75_7 H 0.4022 0.6964 0.3047
H80_7 H 0.4453 0.9464 0.1522
H82_7 H 0.4464 0.8478 0.4453
H83_7 H 0.8036 0.8047 0.4022
H84_7 H 0.5536 0.6522 0.4453
H85_7 H 0.1964 0.6953 0.4022
C113_7 C 0.6250 0.75303(10) 0.49697(10)
C114_7 C 0.3750 0.74697(10) 0.49697(10)
H86_7 H 0.5193 0.8967 0.2493
H93_7 H 0.6467 0.7307 0.5007
H94_7 H 0.6033 0.7493 0.5193
H95_7 H 0.3533 0.7693 0.5007
H96_7 H 0.3967 0.7507 0.5193
N5_7 N 0.50166(8) 0.85534(8) 0.29428(8)
N12_7 N 0.60534(8) 0.74834(8) 0.45572(8)
N13_7 N 0.64466(8) 0.79428(8) 0.50166(8)
N14_7 N 0.39466(8) 0.75166(8) 0.45572(8)
N15_7 N 0.35534(8) 0.70572(8) 0.50166(8)
N16_7 N 0.49895(9) 0.80694(8) 0.34496(8)
N23_7 N 0.55694(8) 0.75105(9) 0.40504(8)
N24_7 N 0.69306(8) 0.84496(8) 0.49895(9)
N25_7 N 0.44306(8) 0.74895(9) 0.40504(8)
N26_7 N 0.30694(8) 0.65504(8) 0.49895(9)
N31_7 N 0.46713(8) 0.79203(9) 0.27491(9)
N38_7 N 0.54203(9) 0.78287(8) 0.47509(9)
N39_7 N 0.70797(9) 0.77491(9) 0.46713(8)
N40_7 N 0.45797(9) 0.71713(8) 0.47509(9)
N41_7 N 0.29203(9) 0.72509(9) 0.46713(8)
N42_7 N 0.45028(8) 0.75884(9) 0.29050(9)
N49_7 N 0.50884(9) 0.79972(8) 0.45950(9)
N50_7 N 0.74116(9) 0.79050(9) 0.45028(8)
N51_7 N 0.49116(9) 0.70028(8) 0.45950(9)
N52_7 N 0.25884(9) 0.70950(9) 0.45028(8)
C5_8 C 0.03364(11) 0.48503(12) 0.69040(12)
H3_8 H 0.0441 0.5073 0.7078
C6_8 C 0.06106(13) 0.45596(13) 0.67283(13)
H4_8 H 0.0906 0.4580 0.6783
C7_8 C 0.04555(15) 0.42342(14) 0.64705(14)
H5_8 H 0.0647 0.4037 0.6347
C8_8 C 0.00281(14) 0.41980(13) 0.63941(13)
H8_8 H 0.0007 0.6467 0.7693
C11_8 C 0.02200(11) 0.62785(11) 0.67102(11)
C17_8 C 0.02200(11) 0.37215(11) 0.82898(11)
C18_8 C 0.12215(11) 0.77200(11) 0.57898(11)
C19_8 C 0.12785(11) 0.67102(11) 0.47800(11)
H9_8 H 0.0349 0.6007 0.6690
H15_8 H 0.0349 0.3993 0.8310
H16_8 H 0.1493 0.7849 0.5810
H17_8 H 0.1007 0.6690 0.4651
C22_8 C 0.01991(11) 0.65788(11) 0.64030(12)
C28_8 C 0.01991(11) 0.34212(11) 0.85970(12)
C29_8 C 0.09212(11) 0.76991(11) 0.60970(12)
C30_8 C 0.15788(11) 0.64030(12) 0.48009(11)
H20_8 H 0.0313 0.6550 0.6125
H26_8 H 0.0313 0.3450 0.8875
H27_8 H 0.0950 0.7813 0.6375
H28_8 H 0.1550 0.6125 0.4687
C40_8 C 0.06649(10) 0.73773(10) 0.55550(11)
C41_8 C 0.18351(10) 0.69450(11) 0.51227(10)
C52_8 C 0.26856(11) 0.74058(11) 0.56763(11)
C53_8 C 0.01856(11) 0.81763(11) 0.50942(11)
C60_8 C 0.03364(11) 0.51497(12) 0.80960(12)
C63_8 C 0.26497(12) 0.78364(11) 0.55960(12)
C64_8 C 0.01497(12) 0.80960(12) 0.46636(11)
H36_8 H 0.0441 0.4927 0.7922
H38_8 H 0.0073 0.7078 0.4559
H39_8 H 0.2427 0.7941 0.5422
C71_8 C 0.06106(13) 0.54404(13) 0.82717(13)
C74_8 C 0.29404(13) 0.81106(13) 0.57717(13)
C75_8 C 0.04404(13) 0.82717(13) 0.43894(13)
H47_8 H 0.0906 0.5420 0.8217
H50_8 H 0.2920 0.8406 0.5717
H51_8 H 0.0420 0.8217 0.4094
C82_8 C 0.04555(15) 0.57658(14) 0.85295(14)
C85_8 C 0.32658(14) 0.79555(15) 0.60295(14)
C86_8 C 0.07658(14) 0.85295(14) 0.45445(15)
H58_8 H 0.0647 0.5963 0.8653
H61_8 H 0.3463 0.8147 0.6153
H62_8 H 0.0963 0.8653 0.4353
C93_8 C 0.00281(14) 0.58020(13) 0.86059(13)
C96_8 C 0.33020(13) 0.75281(14) 0.61059(13)
C97_8 C 0.08020(13) 0.86059(13) 0.49719(14)
H72_8 H 0.3525 0.7424 0.6280
H73_8 H 0.1025 0.8780 0.5076
C107_8 C 0.30116(12) 0.72491(13) 0.59279(12)
C108_8 C 0.05116(12) 0.84279(12) 0.52509(13)
H83_8 H 0.3036 0.6953 0.5978
H84_8 H 0.0536 0.8478 0.5547
C113_8 C 0.1250 0.74697(10) 0.50303(10)
H86_8 H 0.0193 0.6033 0.7507
H91_8 H 0.0007 0.3533 0.7307
H92_8 H 0.0193 0.3967 0.7493
H93_8 H 0.1467 0.7693 0.4993
H94_8 H 0.1033 0.7507 0.4807
N5_8 N 0.00166(8) 0.64466(8) 0.70572(8)
N11_8 N 0.00166(8) 0.35534(8) 0.79428(8)
N12_8 N 0.10534(8) 0.75166(8) 0.54428(8)
N13_8 N 0.14466(8) 0.70572(8) 0.49834(8)
N23_8 N 0.05694(8) 0.74895(9) 0.59496(8)
N24_8 N 0.19306(8) 0.65504(8) 0.50105(9)
N38_8 N 0.04203(9) 0.71713(8) 0.52491(9)
N39_8 N 0.20797(9) 0.72509(9) 0.53287(8)
N49_8 N 0.00884(9) 0.70028(8) 0.54050(9)
N50_8 N 0.24116(9) 0.70950(9) 0.54972(8)
C1_8 C 0.92102(11) 0.62215(11) 0.77200(11)
H1_8 H 0.9190 0.6493 0.7849
C2_8 C 0.89030(12) 0.59212(11) 0.76991(11)
H2_8 H 0.8625 0.5950 0.7813
C3_8 C 0.94450(11) 0.56649(10) 0.73773(10)
C4_8 C 0.99058(11) 0.48144(11) 0.68237(11)
H6_8 H 0.9924 0.3975 0.6220
C9_8 C 0.97491(13) 0.44884(12) 0.65721(12)
H7_8 H 0.9453 0.4464 0.6522
C10_8 C 0.99697(10) 0.6250 0.74697(10)
N1_8 N 0.95572(8) 0.60534(8) 0.75166(8)
N2_8 N 0.90504(8) 0.55694(8) 0.74895(9)
N3_8 N 0.97509(9) 0.54203(9) 0.71713(8)
N4_8 N 0.95950(9) 0.50884(9) 0.70028(8)
C16_8 C 0.92102(11) 0.37785(11) 0.72800(11)
C20_8 C 0.87785(11) 0.72800(11) 0.57898(11)
C21_8 C 0.87215(11) 0.82898(11) 0.47800(11)
H14_8 H 0.9190 0.3507 0.7151
H18_8 H 0.8507 0.7151 0.5810
H19_8 H 0.8993 0.8310 0.4651
C27_8 C 0.89030(12) 0.40788(11) 0.73009(11)
C31_8 C 0.90788(11) 0.73009(11) 0.60970(12)
C32_8 C 0.84212(11) 0.85970(12) 0.48009(11)
H25_8 H 0.8625 0.4050 0.7187
H29_8 H 0.9050 0.7187 0.6375
H30_8 H 0.8450 0.8875 0.4687
C33_8 C 0.98773(10) 0.68351(10) 0.69450(11)
C38_8 C 0.94450(11) 0.43351(10) 0.76227(10)
C39_8 C 0.98773(10) 0.31649(10) 0.80550(11)
C42_8 C 0.93351(10) 0.76227(10) 0.55550(11)
C43_8 C 0.81649(10) 0.80550(11) 0.51227(10)
C44_8 C 0.93237(11) 0.76856(11) 0.74058(11)
C49_8 C 0.99058(11) 0.51856(11) 0.81763(11)
C50_8 C 0.93237(11) 0.23144(11) 0.75942(11)
C51_8 C 0.98144(11) 0.68237(11) 0.50942(11)
C54_8 C 0.73144(11) 0.75942(11) 0.56763(11)
C55_8 C 0.94040(12) 0.76497(12) 0.78364(11)
C61_8 C 0.94040(12) 0.23503(12) 0.71636(11)
C62_8 C 0.98503(12) 0.69040(12) 0.46636(11)
C65_8 C 0.73503(12) 0.71636(11) 0.55960(12)
H31_8 H 0.9578 0.7427 0.7941
H37_8 H 0.9578 0.2573 0.7059
H40_8 H 0.9927 0.7922 0.4559
H41_8 H 0.7573 0.7059 0.5422
C66_8 C 0.92283(13) 0.79404(13) 0.81106(13)
C72_8 C 0.92283(13) 0.20596(13) 0.68894(13)
C73_8 C 0.95596(13) 0.67283(13) 0.43894(13)
C76_8 C 0.70596(13) 0.68894(13) 0.57717(13)
H42_8 H 0.9283 0.7920 0.8406
H48_8 H 0.9283 0.2080 0.6594
H49_8 H 0.9580 0.6783 0.4094
H52_8 H 0.7080 0.6594 0.5717
C77_8 C 0.89705(14) 0.82658(14) 0.79555(15)
C83_8 C 0.89705(14) 0.17342(14) 0.70445(15)
C84_8 C 0.92342(14) 0.64705(14) 0.45445(15)
C87_8 C 0.67342(14) 0.70445(15) 0.60295(14)
H53_8 H 0.8847 0.8463 0.8147
H59_8 H 0.8847 0.1537 0.6853
H60_8 H 0.9037 0.6347 0.4353
H63_8 H 0.6537 0.6853 0.6153
C88_8 C 0.88941(13) 0.83020(13) 0.75281(14)
C94_8 C 0.88941(13) 0.16980(13) 0.74719(14)
C95_8 C 0.91980(13) 0.63941(13) 0.49719(14)
C98_8 C 0.66980(13) 0.74719(14) 0.61059(13)
H64_8 H 0.8720 0.8525 0.7424
H69_8 H 0.9924 0.6025 0.8780
H70_8 H 0.8720 0.1475 0.7576
H71_8 H 0.8975 0.6220 0.5076
H74_8 H 0.6475 0.7576 0.6280
C99_8 C 0.90721(12) 0.80116(12) 0.72491(13)
C104_8 C 0.97491(13) 0.55116(12) 0.84279(12)
C105_8 C 0.90721(12) 0.19884(12) 0.77509(13)
C106_8 C 0.94884(12) 0.65721(12) 0.52509(13)
C109_8 C 0.69884(12) 0.77509(13) 0.59279(12)
H75_8 H 0.9022 0.8036 0.6953
H80_8 H 0.9453 0.5536 0.8478
H81_8 H 0.9022 0.1964 0.8047
H82_8 H 0.9464 0.6522 0.5547
H85_8 H 0.6964 0.8047 0.5978
C112_8 C 0.99697(10) 0.3750 0.75303(10)
C114_8 C 0.8750 0.75303(10) 0.50303(10)
H95_8 H 0.8533 0.7307 0.4993
H96_8 H 0.8967 0.7493 0.4807
N10_8 N 0.95572(8) 0.39466(8) 0.74834(8)
N14_8 N 0.89466(8) 0.74834(8) 0.54428(8)
N15_8 N 0.85534(8) 0.79428(8) 0.49834(8)
N16_8 N 0.99895(9) 0.69306(8) 0.65504(8)
N21_8 N 0.90504(8) 0.44306(8) 0.75105(9)
N25_8 N 0.94306(8) 0.75105(9) 0.59496(8)
N26_8 N 0.80694(8) 0.84496(8) 0.50105(9)
N31_8 N 0.96713(8) 0.70797(9) 0.72509(9)
N36_8 N 0.97509(9) 0.45797(9) 0.78287(8)
N37_8 N 0.96713(8) 0.29203(9) 0.77491(9)
N40_8 N 0.95797(9) 0.78287(8) 0.52491(9)
N41_8 N 0.79203(9) 0.77491(9) 0.53287(8)
N42_8 N 0.95028(8) 0.74116(9) 0.70950(9)
N47_8 N 0.95950(9) 0.49116(9) 0.79972(8)
N48_8 N 0.95028(8) 0.25884(9) 0.79050(9)
N51_8 N 0.99116(9) 0.79972(8) 0.54050(9)
N52_8 N 0.75884(9) 0.79050(9) 0.54972(8)
C1_9 C 0.72800(11) 0.07898(11) 0.12215(11)
H1_9 H 0.7151 0.0810 0.1493
C2_9 C 0.73009(11) 0.10970(12) 0.09212(11)
H2_9 H 0.7187 0.1375 0.0950
C3_9 C 0.76227(10) 0.05550(11) 0.06649(10)
C10_9 C 0.75303(10) 0.00303(10) 0.1250
N1_9 N 0.74834(8) 0.04428(8) 0.10534(8)
N2_9 N 0.75105(9) 0.09496(8) 0.05694(8)
N3_9 N 0.78287(8) 0.02491(9) 0.04203(9)
N4_9 N 0.79972(8) 0.04050(9) 0.00884(9)
C33_9 C 0.80550(11) 0.01227(10) 0.18351(10)
C44_9 C 0.75942(11) 0.06763(11) 0.26856(11)
C49_9 C 0.68237(11) 0.00942(11) 0.01856(11)
C55_9 C 0.71636(11) 0.05960(12) 0.26497(12)
H31_9 H 0.7059 0.0422 0.2427
C66_9 C 0.68894(13) 0.07717(13) 0.29404(13)
H42_9 H 0.6594 0.0717 0.2920
C77_9 C 0.70445(15) 0.10295(14) 0.32658(14)
H53_9 H 0.6853 0.1153 0.3463
C88_9 C 0.74719(14) 0.11059(13) 0.33020(13)
H64_9 H 0.7576 0.1280 0.3525
H69_9 H 0.6220 0.0076 0.1025
C99_9 C 0.77509(13) 0.09279(12) 0.30116(12)
C104_9 C 0.65721(12) 0.02509(13) 0.05116(12)
H75_9 H 0.8047 0.0978 0.3036
H80_9 H 0.6522 0.0547 0.0536
N31_9 N 0.77491(9) 0.03287(8) 0.20797(9)
N42_9 N 0.79050(9) 0.04972(8) 0.24116(9)
C4_9 C 0.81763(11) 0.00942(11) 0.98144(11)
H6_9 H 0.8780 0.0076 0.8975
C9_9 C 0.84279(12) 0.02509(13) 0.94884(12)
H7_9 H 0.8478 0.0547 0.9464
C16_9 C 0.77200(11) 0.07898(11) 0.87785(11)
H14_9 H 0.7849 0.0810 0.8507
C27_9 C 0.76991(11) 0.10970(12) 0.90788(11)
H25_9 H 0.7813 0.1375 0.9050
C38_9 C 0.73773(10) 0.05550(11) 0.93351(10)
C39_9 C 0.69450(11) 0.01227(10) 0.81649(10)
C50_9 C 0.74058(11) 0.06763(11) 0.73144(11)
C61_9 C 0.78364(11) 0.05960(12) 0.73503(12)
H37_9 H 0.7941 0.0422 0.7573
C72_9 C 0.81106(13) 0.07717(13) 0.70596(13)
H48_9 H 0.8406 0.0717 0.7080
C83_9 C 0.79555(15) 0.10295(14) 0.67342(14)
H59_9 H 0.8147 0.1153 0.6537
C94_9 C 0.75281(14) 0.11059(13) 0.66980(13)
H70_9 H 0.7424 0.1280 0.6475
C105_9 C 0.72491(13) 0.09279(12) 0.69884(12)
H81_9 H 0.6953 0.0978 0.6964
C112_9 C 0.74697(10) 0.00303(10) 0.8750
N10_9 N 0.75166(8) 0.04428(8) 0.89466(8)
N21_9 N 0.74895(9) 0.09496(8) 0.94306(8)
N36_9 N 0.71713(8) 0.02491(9) 0.95797(9)
N37_9 N 0.72509(9) 0.03287(8) 0.79203(9)
N47_9 N 0.70028(8) 0.04050(9) 0.99116(9)
N48_9 N 0.70950(9) 0.04972(8) 0.75884(9)
H3_9 H 0.7922 0.9559 0.0073
H8_9 H 0.7307 0.9993 0.1467
C11_9 C 0.82898(11) 0.97800(11) 0.12785(11)
H9_9 H 0.8310 0.9651 0.1007
C22_9 C 0.85970(12) 0.98009(11) 0.15788(11)
H20_9 H 0.8875 0.9687 0.1550
C60_9 C 0.69040(12) 0.96636(11) 0.01497(12)
C71_9 C 0.67283(13) 0.93894(13) 0.04404(13)
H47_9 H 0.6783 0.9094 0.0420
C82_9 C 0.64705(14) 0.95445(15) 0.07658(14)
H58_9 H 0.6347 0.9353 0.0963
C93_9 C 0.63941(13) 0.99719(14) 0.08020(13)
H86_9 H 0.7493 0.9807 0.1033
N5_9 N 0.79428(8) 0.99834(8) 0.14466(8)
C5_9 C 0.80960(12) 0.96636(11) 0.98503(12)
C6_9 C 0.82717(13) 0.93894(13) 0.95596(13)
H4_9 H 0.8217 0.9094 0.9580
C7_9 C 0.85295(14) 0.95445(15) 0.92342(14)
H5_9 H 0.8653 0.9353 0.9037
C8_9 C 0.86059(13) 0.99719(14) 0.91980(13)
C17_9 C 0.67102(11) 0.97800(11) 0.87215(11)
H15_9 H 0.6690 0.9651 0.8993
C28_9 C 0.64030(12) 0.98009(11) 0.84212(11)
H26_9 H 0.6125 0.9687 0.8450
H36_9 H 0.7078 0.9559 0.9927
H91_9 H 0.7693 0.9993 0.8533
H92_9 H 0.7507 0.9807 0.8967
N11_9 N 0.70572(8) 0.99834(8) 0.85534(8)
C1_10 C 0.27200(11) 0.57898(11) 0.37785(11)
H1_10 H 0.2849 0.5810 0.3507
C2_10 C 0.26991(11) 0.60970(12) 0.40788(11)
H2_10 H 0.2813 0.6375 0.4050
C3_10 C 0.23773(10) 0.55550(11) 0.43351(10)
C4_10 C 0.18237(11) 0.50942(11) 0.51856(11)
C5_10 C 0.19040(12) 0.46636(11) 0.51497(12)
H3_10 H 0.2078 0.4559 0.4927
C6_10 C 0.17283(13) 0.43894(13) 0.54404(13)
H4_10 H 0.1783 0.4094 0.5420
C7_10 C 0.14705(14) 0.45445(15) 0.57658(14)
H5_10 H 0.1347 0.4353 0.5963
C8_10 C 0.13941(13) 0.49719(14) 0.58020(13)
H6_10 H 0.1220 0.5076 0.6025
C9_10 C 0.15721(12) 0.52509(13) 0.55116(12)
H7_10 H 0.1522 0.5547 0.5536
C10_10 C 0.24697(10) 0.50303(10) 0.3750
H8_10 H 0.2693 0.4993 0.3533
N1_10 N 0.25166(8) 0.54428(8) 0.39466(8)
N2_10 N 0.24895(9) 0.59496(8) 0.44306(8)
N3_10 N 0.21713(8) 0.52491(9) 0.45797(9)
N4_10 N 0.20028(8) 0.54050(9) 0.49116(9)
C11_10 C 0.17102(11) 0.47800(11) 0.37215(11)
C16_10 C 0.22800(11) 0.57898(11) 0.62215(11)
C17_10 C 0.32898(11) 0.47800(11) 0.62785(11)
H9_10 H 0.1690 0.4651 0.3993
H14_10 H 0.2151 0.5810 0.6493
H15_10 H 0.3310 0.4651 0.6007
C22_10 C 0.14030(12) 0.48009(11) 0.34212(11)
C27_10 C 0.23009(11) 0.60970(12) 0.59212(11)
C28_10 C 0.35970(12) 0.48009(11) 0.65788(11)
H20_10 H 0.1125 0.4687 0.3450
H25_10 H 0.2187 0.6375 0.5950
H26_10 H 0.3875 0.4687 0.6550
C33_10 C 0.19450(11) 0.51227(10) 0.31649(10)
C38_10 C 0.26227(10) 0.55550(11) 0.56649(10)
C39_10 C 0.30550(11) 0.51227(10) 0.68351(10)
C44_10 C 0.24058(11) 0.56763(11) 0.23144(11)
C49_10 C 0.31763(11) 0.50942(11) 0.48144(11)
C50_10 C 0.25942(11) 0.56763(11) 0.76856(11)
C55_10 C 0.28364(11) 0.55960(12) 0.23503(12)
C60_10 C 0.30960(12) 0.46636(11) 0.48503(12)
C61_10 C 0.21636(11) 0.55960(12) 0.76497(12)
H31_10 H 0.2941 0.5422 0.2573
H36_10 H 0.2922 0.4559 0.5073
H37_10 H 0.2059 0.5422 0.7427
C66_10 C 0.31106(13) 0.57717(13) 0.20596(13)
C71_10 C 0.32717(13) 0.43894(13) 0.45596(13)
C72_10 C 0.18894(13) 0.57717(13) 0.79404(13)
H42_10 H 0.3406 0.5717 0.2080
H47_10 H 0.3217 0.4094 0.4580
H48_10 H 0.1594 0.5717 0.7920
C77_10 C 0.29555(15) 0.60295(14) 0.17342(14)
C82_10 C 0.35295(14) 0.45445(15) 0.42342(14)
C83_10 C 0.20445(15) 0.60295(14) 0.82658(14)
H53_10 H 0.3147 0.6153 0.1537
H58_10 H 0.3653 0.4353 0.4037
H59_10 H 0.1853 0.6153 0.8463
C88_10 C 0.25281(14) 0.61059(13) 0.16980(13)
C93_10 C 0.36059(13) 0.49719(14) 0.41980(13)
C94_10 C 0.24719(14) 0.61059(13) 0.83020(13)
H64_10 H 0.2424 0.6280 0.1475
H69_10 H 0.3780 0.5076 0.3975
H70_10 H 0.2576 0.6280 0.8525
C99_10 C 0.22491(13) 0.59279(12) 0.19884(12)
C104_10 C 0.34279(12) 0.52509(13) 0.44884(12)
C105_10 C 0.27509(13) 0.59279(12) 0.80116(12)
H75_10 H 0.1953 0.5978 0.1964
H80_10 H 0.3478 0.5547 0.4464
H81_10 H 0.3047 0.5978 0.8036
C112_10 C 0.25303(10) 0.50303(10) 0.6250
H86_10 H 0.2507 0.4807 0.3967
H91_10 H 0.2307 0.4993 0.6467
H92_10 H 0.2493 0.4807 0.6033
N5_10 N 0.20572(8) 0.49834(8) 0.35534(8)
N10_10 N 0.24834(8) 0.54428(8) 0.60534(8)
N11_10 N 0.29428(8) 0.49834(8) 0.64466(8)
N21_10 N 0.25105(9) 0.59496(8) 0.55694(8)
N31_10 N 0.22509(9) 0.53287(8) 0.29203(9)
N36_10 N 0.28287(8) 0.52491(9) 0.54203(9)
N37_10 N 0.27491(9) 0.53287(8) 0.70797(9)
N42_10 N 0.20950(9) 0.54972(8) 0.25884(9)
N47_10 N 0.29972(8) 0.54050(9) 0.50884(9)
N48_10 N 0.29050(9) 0.54972(8) 0.74116(9)
C4_11 C 0.31763(11) 0.49058(11) 0.01856(11)
C5_11 C 0.30960(12) 0.53364(11) 0.01497(12)
C6_11 C 0.32717(13) 0.56106(13) 0.04404(13)
H4_11 H 0.3217 0.5906 0.0420
C7_11 C 0.35295(14) 0.54555(15) 0.07658(14)
H5_11 H 0.3653 0.5647 0.0963
C8_11 C 0.36059(13) 0.50281(14) 0.08020(13)
H6_11 H 0.3780 0.4924 0.1025
C9_11 C 0.34279(12) 0.47491(13) 0.05116(12)
H7_11 H 0.3478 0.4453 0.0536
C16_11 C 0.27200(11) 0.42102(11) 0.12215(11)
C17_11 C 0.17102(11) 0.52200(11) 0.12785(11)
H14_11 H 0.2849 0.4190 0.1493
H15_11 H 0.1690 0.5349 0.1007
C27_11 C 0.26991(11) 0.39030(12) 0.09212(11)
C28_11 C 0.14030(12) 0.51991(11) 0.15788(11)
H25_11 H 0.2813 0.3625 0.0950
H26_11 H 0.1125 0.5313 0.1550
C38_11 C 0.23773(10) 0.44450(11) 0.06649(10)
C39_11 C 0.19450(11) 0.48773(10) 0.18351(10)
C50_11 C 0.24058(11) 0.43237(11) 0.26856(11)
C61_11 C 0.28364(11) 0.44040(12) 0.26497(12)
H36_11 H 0.2078 0.5441 0.0073
H37_11 H 0.2941 0.4578 0.2427
C72_11 C 0.31106(13) 0.42283(13) 0.29404(13)
H48_11 H 0.3406 0.4283 0.2920
C83_11 C 0.29555(15) 0.39705(14) 0.32658(14)
H59_11 H 0.3147 0.3847 0.3463
C94_11 C 0.25281(14) 0.38941(13) 0.33020(13)
H70_11 H 0.2424 0.3720 0.3525
C105_11 C 0.22491(13) 0.40721(12) 0.30116(12)
H81_11 H 0.1953 0.4022 0.3036
C112_11 C 0.24697(10) 0.49697(10) 0.1250
H91_11 H 0.2693 0.5007 0.1467
H92_11 H 0.2507 0.5193 0.1033
N10_11 N 0.25166(8) 0.45572(8) 0.10534(8)
N11_11 N 0.20572(8) 0.50166(8) 0.14466(8)
N21_11 N 0.24895(9) 0.40504(8) 0.05694(8)
N36_11 N 0.21713(8) 0.47509(9) 0.04203(9)
N37_11 N 0.22509(9) 0.46713(8) 0.20797(9)
N47_11 N 0.20028(8) 0.45950(9) 0.00884(9)
N48_11 N 0.20950(9) 0.45028(8) 0.24116(9)
C1_11 C 0.22800(11) 0.42102(11) 0.87785(11)
H1_11 H 0.2151 0.4190 0.8507
C2_11 C 0.23009(11) 0.39030(12) 0.90788(11)
H2_11 H 0.2187 0.3625 0.9050
C3_11 C 0.26227(10) 0.44450(11) 0.93351(10)
H3_11 H 0.2922 0.5441 0.9927
C10_11 C 0.25303(10) 0.49697(10) 0.8750
H8_11 H 0.2307 0.5007 0.8533
N1_11 N 0.24834(8) 0.45572(8) 0.89466(8)
N2_11 N 0.25105(9) 0.40504(8) 0.94306(8)
N3_11 N 0.28287(8) 0.47509(9) 0.95797(9)
N4_11 N 0.29972(8) 0.45950(9) 0.99116(9)
C11_11 C 0.32898(11) 0.52200(11) 0.87215(11)
H9_11 H 0.3310 0.5349 0.8993
C22_11 C 0.35970(12) 0.51991(11) 0.84212(11)
H20_11 H 0.3875 0.5313 0.8450
C33_11 C 0.30550(11) 0.48773(10) 0.81649(10)
C44_11 C 0.25942(11) 0.43237(11) 0.73144(11)
C49_11 C 0.18237(11) 0.49058(11) 0.98144(11)
C55_11 C 0.21636(11) 0.44040(12) 0.73503(12)
C60_11 C 0.19040(12) 0.53364(11) 0.98503(12)
H31_11 H 0.2059 0.4578 0.7573
C66_11 C 0.18894(13) 0.42283(13) 0.70596(13)
C71_11 C 0.17283(13) 0.56106(13) 0.95596(13)
H42_11 H 0.1594 0.4283 0.7080
H47_11 H 0.1783 0.5906 0.9580
C77_11 C 0.20445(15) 0.39705(14) 0.67342(14)
C82_11 C 0.14705(14) 0.54555(15) 0.92342(14)
H53_11 H 0.1853 0.3847 0.6537
H58_11 H 0.1347 0.5647 0.9037
C88_11 C 0.24719(14) 0.38941(13) 0.66980(13)
C93_11 C 0.13941(13) 0.50281(14) 0.91980(13)
H64_11 H 0.2576 0.3720 0.6475
H69_11 H 0.1220 0.4924 0.8975
C99_11 C 0.27509(13) 0.40721(12) 0.69884(12)
C104_11 C 0.15721(12) 0.47491(13) 0.94884(12)
H75_11 H 0.3047 0.4022 0.6964
H80_11 H 0.1522 0.4453 0.9464
H86_11 H 0.2493 0.5193 0.8967
N5_11 N 0.29428(8) 0.50166(8) 0.85534(8)
N31_11 N 0.27491(9) 0.46713(8) 0.79203(9)
N42_11 N 0.29050(9) 0.45028(8) 0.75884(9)
C5_12 C 0.69040(12) 0.03364(11) 0.48503(12)
H3_12 H 0.7078 0.0441 0.5073
C6_12 C 0.67283(13) 0.06106(13) 0.45596(13)
H4_12 H 0.6783 0.0906 0.4580
C7_12 C 0.64705(14) 0.04555(15) 0.42342(14)
H5_12 H 0.6347 0.0647 0.4037
C8_12 C 0.63941(13) 0.00281(14) 0.41980(13)
H8_12 H 0.7693 0.0007 0.6467
C11_12 C 0.67102(11) 0.02200(11) 0.62785(11)
C17_12 C 0.82898(11) 0.02200(11) 0.37215(11)
H9_12 H 0.6690 0.0349 0.6007
H15_12 H 0.8310 0.0349 0.3993
C22_12 C 0.64030(12) 0.01991(11) 0.65788(11)
C28_12 C 0.85970(12) 0.01991(11) 0.34212(11)
H20_12 H 0.6125 0.0313 0.6550
H26_12 H 0.8875 0.0313 0.3450
C60_12 C 0.80960(12) 0.03364(11) 0.51497(12)
H36_12 H 0.7922 0.0441 0.4927
C71_12 C 0.82717(13) 0.06106(13) 0.54404(13)
H47_12 H 0.8217 0.0906 0.5420
C82_12 C 0.85295(14) 0.04555(15) 0.57658(14)
H58_12 H 0.8653 0.0647 0.5963
C93_12 C 0.86059(13) 0.00281(14) 0.58020(13)
H86_12 H 0.7507 0.0193 0.6033
H91_12 H 0.7307 0.0007 0.3533
H92_12 H 0.7493 0.0193 0.3967
N5_12 N 0.70572(8) 0.00166(8) 0.64466(8)
N11_12 N 0.79428(8) 0.00166(8) 0.35534(8)
C1_12 C 0.77200(11) 0.92102(11) 0.62215(11)
H1_12 H 0.7849 0.9190 0.6493
C2_12 C 0.76991(11) 0.89030(12) 0.59212(11)
H2_12 H 0.7813 0.8625 0.5950
C3_12 C 0.73773(10) 0.94450(11) 0.56649(10)
C4_12 C 0.68237(11) 0.99058(11) 0.48144(11)
H6_12 H 0.6220 0.9924 0.3975
C9_12 C 0.65721(12) 0.97491(13) 0.44884(12)
H7_12 H 0.6522 0.9453 0.4464
C10_12 C 0.74697(10) 0.99697(10) 0.6250
N1_12 N 0.75166(8) 0.95572(8) 0.60534(8)
N2_12 N 0.74895(9) 0.90504(8) 0.55694(8)
N3_12 N 0.71713(8) 0.97509(9) 0.54203(9)
N4_12 N 0.70028(8) 0.95950(9) 0.50884(9)
C16_12 C 0.72800(11) 0.92102(11) 0.37785(11)
H14_12 H 0.7151 0.9190 0.3507
C27_12 C 0.73009(11) 0.89030(12) 0.40788(11)
H25_12 H 0.7187 0.8625 0.4050
C33_12 C 0.69450(11) 0.98773(10) 0.68351(10)
C38_12 C 0.76227(10) 0.94450(11) 0.43351(10)
C39_12 C 0.80550(11) 0.98773(10) 0.31649(10)
C44_12 C 0.74058(11) 0.93237(11) 0.76856(11)
C49_12 C 0.81763(11) 0.99058(11) 0.51856(11)
C50_12 C 0.75942(11) 0.93237(11) 0.23144(11)
C55_12 C 0.78364(11) 0.94040(12) 0.76497(12)
C61_12 C 0.71636(11) 0.94040(12) 0.23503(12)
H31_12 H 0.7941 0.9578 0.7427
H37_12 H 0.7059 0.9578 0.2573
C66_12 C 0.81106(13) 0.92283(13) 0.79404(13)
C72_12 C 0.68894(13) 0.92283(13) 0.20596(13)
H42_12 H 0.8406 0.9283 0.7920
H48_12 H 0.6594 0.9283 0.2080
C77_12 C 0.79555(15) 0.89705(14) 0.82658(14)
C83_12 C 0.70445(15) 0.89705(14) 0.17342(14)
H53_12 H 0.8147 0.8847 0.8463
H59_12 H 0.6853 0.8847 0.1537
C88_12 C 0.75281(14) 0.88941(13) 0.83020(13)
C94_12 C 0.74719(14) 0.88941(13) 0.16980(13)
H64_12 H 0.7424 0.8720 0.8525
H69_12 H 0.8780 0.9924 0.6025
H70_12 H 0.7576 0.8720 0.1475
C99_12 C 0.72491(13) 0.90721(12) 0.80116(12)
C104_12 C 0.84279(12) 0.97491(13) 0.55116(12)
C105_12 C 0.77509(13) 0.90721(12) 0.19884(12)
H75_12 H 0.6953 0.9022 0.8036
H80_12 H 0.8478 0.9453 0.5536
H81_12 H 0.8047 0.9022 0.1964
C112_12 C 0.75303(10) 0.99697(10) 0.3750
N10_12 N 0.74834(8) 0.95572(8) 0.39466(8)
N21_12 N 0.75105(9) 0.90504(8) 0.44306(8)
N31_12 N 0.72509(9) 0.96713(8) 0.70797(9)
N36_12 N 0.78287(8) 0.97509(9) 0.45797(9)
N37_12 N 0.77491(9) 0.96713(8) 0.29203(9)
N42_12 N 0.70950(9) 0.95028(8) 0.74116(9)
N47_12 N 0.79972(8) 0.95950(9) 0.49116(9)
N48_12 N 0.79050(9) 0.95028(8) 0.25884(9)
Cl1 Cl 0.18597(4) 0.6250 0.06403(4)
O1 O 0.22313(10) 0.59913(9) 0.06520(10)
O2 O 0.14939(10) 0.59810(10) 0.06483(11)
O3 O 0.18480(10) 0.65087(9) 0.02687(10)
O4 O 0.18517(11) 0.65190(10) 0.10061(10)
Cl1_2 Cl 0.31403(4) 0.3750 0.56403(4)
O1_2 O 0.27687(10) 0.40087(9) 0.56520(10)
O2_2 O 0.35061(10) 0.40190(10) 0.56483(11)
O3_2 O 0.31520(10) 0.34913(9) 0.52687(10)
O4_2 O 0.31483(11) 0.34810(10) 0.60061(10)
Cl1_3 Cl 0.81403(4) 0.1250 0.43597(4)
O1_3 O 0.77687(10) 0.09913(9) 0.43480(10)
O2_3 O 0.85061(10) 0.09810(10) 0.43517(11)
O3_3 O 0.81520(10) 0.15087(9) 0.47313(10)
O4_3 O 0.81483(11) 0.15190(10) 0.39939(10)
Cl1_4 Cl 0.68597(4) 0.8750 0.93597(4)
O1_4 O 0.72313(10) 0.90087(9) 0.93480(10)
O2_4 O 0.64939(10) 0.90190(10) 0.93517(11)
O3_4 O 0.68480(10) 0.84913(9) 0.97313(10)
O4_4 O 0.68517(11) 0.84810(10) 0.89939(10)
Cl1_5 Cl 0.06403(4) 0.18597(4) 0.6250
O1_5 O 0.06520(10) 0.22313(10) 0.59913(9)
O2_5 O 0.06483(11) 0.14939(10) 0.59810(10)
O3_5 O 0.02687(10) 0.18480(10) 0.65087(9)
O4_5 O 0.10061(10) 0.18517(11) 0.65190(10)
Cl1_6 Cl 0.56403(4) 0.31403(4) 0.3750
O1_6 O 0.56520(10) 0.27687(10) 0.40087(9)
O2_6 O 0.56483(11) 0.35061(10) 0.40190(10)
O3_6 O 0.52687(10) 0.31520(10) 0.34913(9)
O4_6 O 0.60061(10) 0.31483(11) 0.34810(10)
Cl1_7 Cl 0.43597(4) 0.81403(4) 0.1250
O1_7 O 0.43480(10) 0.77687(10) 0.09913(9)
O2_7 O 0.43517(11) 0.85061(10) 0.09810(10)
O3_7 O 0.47313(10) 0.81520(10) 0.15087(9)
O4_7 O 0.39939(10) 0.81483(11) 0.15190(10)
Cl1_8 Cl 0.93597(4) 0.68597(4) 0.8750
O1_8 O 0.93480(10) 0.72313(10) 0.90087(9)
O2_8 O 0.93517(11) 0.64939(10) 0.90190(10)
O3_8 O 0.97313(10) 0.68480(10) 0.84913(9)
O4_8 O 0.89939(10) 0.68517(11) 0.84810(10)
Cl1_9 Cl 0.6250 0.06403(4) 0.18597(4)
O1_9 O 0.59913(9) 0.06520(10) 0.22313(10)
O2_9 O 0.59810(10) 0.06483(11) 0.14939(10)
O3_9 O 0.65087(9) 0.02687(10) 0.18480(10)
O4_9 O 0.65190(10) 0.10061(10) 0.18517(11)
Cl1_10 Cl 0.3750 0.56403(4) 0.31403(4)
O1_10 O 0.40087(9) 0.56520(10) 0.27687(10)
O2_10 O 0.40190(10) 0.56483(11) 0.35061(10)
O3_10 O 0.34913(9) 0.52687(10) 0.31520(10)
O4_10 O 0.34810(10) 0.60061(10) 0.31483(11)
Cl1_11 Cl 0.1250 0.43597(4) 0.81403(4)
O1_11 O 0.09913(9) 0.43480(10) 0.77687(10)
O2_11 O 0.09810(10) 0.43517(11) 0.85061(10)
O3_11 O 0.15087(9) 0.47313(10) 0.81520(10)
O4_11 O 0.15190(10) 0.39939(10) 0.81483(11)
Cl1_12 Cl 0.8750 0.93597(4) 0.68597(4)
O1_12 O 0.90087(9) 0.93480(10) 0.72313(10)
O2_12 O 0.90190(10) 0.93517(11) 0.64939(10)
O3_12 O 0.84913(9) 0.97313(10) 0.68480(10)
O4_12 O 0.84810(10) 0.89939(10) 0.68517(11)
Cl1_13 Cl 0.3750 0.43597(4) 0.18597(4)
O1_13 O 0.34913(9) 0.47313(10) 0.18480(10)
O2_13 O 0.34810(10) 0.39939(10) 0.18517(11)
O3_13 O 0.40087(9) 0.43480(10) 0.22313(10)
O4_13 O 0.40190(10) 0.43517(11) 0.14939(10)
Cl1_14 Cl 0.1250 0.56403(4) 0.68597(4)
O1_14 O 0.15087(9) 0.52687(10) 0.68480(10)
O2_14 O 0.15190(10) 0.60061(10) 0.68517(11)
O3_14 O 0.09913(9) 0.56520(10) 0.72313(10)
O4_14 O 0.09810(10) 0.56483(11) 0.64939(10)
Cl1_15 Cl 0.8750 0.06403(4) 0.81403(4)
O1_15 O 0.84913(9) 0.02687(10) 0.81520(10)
O2_15 O 0.84810(10) 0.10061(10) 0.81483(11)
O3_15 O 0.90087(9) 0.06520(10) 0.77687(10)
O4_15 O 0.90190(10) 0.06483(11) 0.85061(10)
Cl1_16 Cl 0.6250 0.93597(4) 0.31403(4)
O1_16 O 0.65087(9) 0.97313(10) 0.31520(10)
O2_16 O 0.65190(10) 0.89939(10) 0.31483(11)
O3_16 O 0.59913(9) 0.93480(10) 0.27687(10)
O4_16 O 0.59810(10) 0.93517(11) 0.35061(10)
Cl1_17 Cl 0.93597(4) 0.31403(4) 0.6250
O1_17 O 0.97313(10) 0.31520(10) 0.65087(9)
O2_17 O 0.89939(10) 0.31483(11) 0.65190(10)
O3_17 O 0.93480(10) 0.27687(10) 0.59913(9)
O4_17 O 0.93517(11) 0.35061(10) 0.59810(10)
Cl1_18 Cl 0.06403(4) 0.81403(4) 0.8750
O1_18 O 0.02687(10) 0.81520(10) 0.84913(9)
O2_18 O 0.10061(10) 0.81483(11) 0.84810(10)
O3_18 O 0.06520(10) 0.77687(10) 0.90087(9)
O4_18 O 0.06483(11) 0.85061(10) 0.90190(10)
Cl1_19 Cl 0.56403(4) 0.68597(4) 0.1250
O1_19 O 0.52687(10) 0.68480(10) 0.15087(9)
O2_19 O 0.60061(10) 0.68517(11) 0.15190(10)
O3_19 O 0.56520(10) 0.72313(10) 0.09913(9)
O4_19 O 0.56483(11) 0.64939(10) 0.09810(10)
Cl1_20 Cl 0.43597(4) 0.18597(4) 0.3750
O1_20 O 0.47313(10) 0.18480(10) 0.34913(9)
O2_20 O 0.39939(10) 0.18517(11) 0.34810(10)
O3_20 O 0.43480(10) 0.22313(10) 0.40087(9)
O4_20 O 0.43517(11) 0.14939(10) 0.40190(10)
Cl1_21 Cl 0.81403(4) 0.8750 0.06403(4)
O1_21 O 0.81520(10) 0.84913(9) 0.02687(10)
O2_21 O 0.81483(11) 0.84810(10) 0.10061(10)
O3_21 O 0.77687(10) 0.90087(9) 0.06520(10)
O4_21 O 0.85061(10) 0.90190(10) 0.06483(11)
Cl1_22 Cl 0.31403(4) 0.6250 0.93597(4)
O1_22 O 0.31520(10) 0.65087(9) 0.97313(10)
O2_22 O 0.31483(11) 0.65190(10) 0.89939(10)
O3_22 O 0.27687(10) 0.59913(9) 0.93480(10)
O4_22 O 0.35061(10) 0.59810(10) 0.93517(11)
Cl1_23 Cl 0.18597(4) 0.3750 0.43597(4)
O1_23 O 0.18480(10) 0.34913(9) 0.47313(10)
O2_23 O 0.18517(11) 0.34810(10) 0.39939(10)
O3_23 O 0.22313(10) 0.40087(9) 0.43480(10)
O4_23 O 0.14939(10) 0.40190(10) 0.43517(11)
Cl1_24 Cl 0.68597(4) 0.1250 0.56403(4)
O1_24 O 0.68480(10) 0.15087(9) 0.52687(10)
O2_24 O 0.68517(11) 0.15190(10) 0.60061(10)
O3_24 O 0.72313(10) 0.09913(9) 0.56520(10)
O4_24 O 0.64939(10) 0.09810(10) 0.56483(11)
Cl1_25 Cl 0.81403(4) 0.3750 0.93597(4)
O1_25 O 0.77687(10) 0.40087(9) 0.93480(10)
O2_25 O 0.85061(10) 0.40190(10) 0.93517(11)
O3_25 O 0.81520(10) 0.34913(9) 0.97313(10)
O4_25 O 0.81483(11) 0.34810(10) 0.89939(10)
Cl1_26 Cl 0.68597(4) 0.6250 0.43597(4)
O1_26 O 0.72313(10) 0.59913(9) 0.43480(10)
O2_26 O 0.64939(10) 0.59810(10) 0.43517(11)
O3_26 O 0.68480(10) 0.65087(9) 0.47313(10)
O4_26 O 0.68517(11) 0.65190(10) 0.39939(10)
Cl1_27 Cl 0.18597(4) 0.8750 0.56403(4)
O1_27 O 0.22313(10) 0.90087(9) 0.56520(10)
O2_27 O 0.14939(10) 0.90190(10) 0.56483(11)
O3_27 O 0.18480(10) 0.84913(9) 0.52687(10)
O4_27 O 0.18517(11) 0.84810(10) 0.60061(10)
Cl1_28 Cl 0.31403(4) 0.1250 0.06403(4)
O1_28 O 0.27687(10) 0.09913(9) 0.06520(10)
O2_28 O 0.35061(10) 0.09810(10) 0.06483(11)
O3_28 O 0.31520(10) 0.15087(9) 0.02687(10)
O4_28 O 0.31483(11) 0.15190(10) 0.10061(10)
Cl1_29 Cl 0.93597(4) 0.81403(4) 0.3750
O1_29 O 0.93480(10) 0.77687(10) 0.40087(9)
O2_29 O 0.93517(11) 0.85061(10) 0.40190(10)
O3_29 O 0.97313(10) 0.81520(10) 0.34913(9)
O4_29 O 0.89939(10) 0.81483(11) 0.34810(10)
Cl1_30 Cl 0.43597(4) 0.68597(4) 0.6250
O1_30 O 0.43480(10) 0.72313(10) 0.59913(9)
O2_30 O 0.43517(11) 0.64939(10) 0.59810(10)
O3_30 O 0.47313(10) 0.68480(10) 0.65087(9)
O4_30 O 0.39939(10) 0.68517(11) 0.65190(10)
Cl1_31 Cl 0.56403(4) 0.18597(4) 0.8750
O1_31 O 0.56520(10) 0.22313(10) 0.90087(9)
O2_31 O 0.56483(11) 0.14939(10) 0.90190(10)
O3_31 O 0.52687(10) 0.18480(10) 0.84913(9)
O4_31 O 0.60061(10) 0.18517(11) 0.84810(10)
Cl1_32 Cl 0.06403(4) 0.31403(4) 0.1250
O1_32 O 0.06520(10) 0.27687(10) 0.09913(9)
O2_32 O 0.06483(11) 0.35061(10) 0.09810(10)
O3_32 O 0.02687(10) 0.31520(10) 0.15087(9)
O4_32 O 0.10061(10) 0.31483(11) 0.15190(10)
Cl1_33 Cl 0.3750 0.93597(4) 0.81403(4)
O1_33 O 0.40087(9) 0.93480(10) 0.77687(10)
O2_33 O 0.40190(10) 0.93517(11) 0.85061(10)
O3_33 O 0.34913(9) 0.97313(10) 0.81520(10)
O4_33 O 0.34810(10) 0.89939(10) 0.81483(11)
Cl1_34 Cl 0.6250 0.43597(4) 0.68597(4)
O1_34 O 0.59913(9) 0.43480(10) 0.72313(10)
O2_34 O 0.59810(10) 0.43517(11) 0.64939(10)
O3_34 O 0.65087(9) 0.47313(10) 0.68480(10)
O4_34 O 0.65190(10) 0.39939(10) 0.68517(11)
Cl1_35 Cl 0.8750 0.56403(4) 0.18597(4)
O1_35 O 0.90087(9) 0.56520(10) 0.22313(10)
O2_35 O 0.90190(10) 0.56483(11) 0.14939(10)
O3_35 O 0.84913(9) 0.52687(10) 0.18480(10)
O4_35 O 0.84810(10) 0.60061(10) 0.18517(11)
Cl1_36 Cl 0.1250 0.06403(4) 0.31403(4)
O1_36 O 0.09913(9) 0.06520(10) 0.27687(10)
O2_36 O 0.09810(10) 0.06483(11) 0.35061(10)
O3_36 O 0.15087(9) 0.02687(10) 0.31520(10)
O4_36 O 0.15190(10) 0.10061(10) 0.31483(11)
Cl1_37 Cl 0.6250 0.56403(4) 0.81403(4)
O1_37 O 0.65087(9) 0.52687(10) 0.81520(10)
O2_37 O 0.65190(10) 0.60061(10) 0.81483(11)
O3_37 O 0.59913(9) 0.56520(10) 0.77687(10)
O4_37 O 0.59810(10) 0.56483(11) 0.85061(10)
Cl1_38 Cl 0.8750 0.43597(4) 0.31403(4)
O1_38 O 0.84913(9) 0.47313(10) 0.31520(10)
O2_38 O 0.84810(10) 0.39939(10) 0.31483(11)
O3_38 O 0.90087(9) 0.43480(10) 0.27687(10)
O4_38 O 0.90190(10) 0.43517(11) 0.35061(10)
Cl1_39 Cl 0.1250 0.93597(4) 0.18597(4)
O1_39 O 0.15087(9) 0.97313(10) 0.18480(10)
O2_39 O 0.15190(10) 0.89939(10) 0.18517(11)
O3_39 O 0.09913(9) 0.93480(10) 0.22313(10)
O4_39 O 0.09810(10) 0.93517(11) 0.14939(10)
Cl1_40 Cl 0.3750 0.06403(4) 0.68597(4)
O1_40 O 0.34913(9) 0.02687(10) 0.68480(10)
O2_40 O 0.34810(10) 0.10061(10) 0.68517(11)
O3_40 O 0.40087(9) 0.06520(10) 0.72313(10)
O4_40 O 0.40190(10) 0.06483(11) 0.64939(10)
Cl1_41 Cl 0.06403(4) 0.68597(4) 0.3750
O1_41 O 0.02687(10) 0.68480(10) 0.34913(9)
O2_41 O 0.10061(10) 0.68517(11) 0.34810(10)
O3_41 O 0.06520(10) 0.72313(10) 0.40087(9)
O4_41 O 0.06483(11) 0.64939(10) 0.40190(10)
Cl1_42 Cl 0.93597(4) 0.18597(4) 0.1250
O1_42 O 0.97313(10) 0.18480(10) 0.15087(9)
O2_42 O 0.89939(10) 0.18517(11) 0.15190(10)
O3_42 O 0.93480(10) 0.22313(10) 0.09913(9)
O4_42 O 0.93517(11) 0.14939(10) 0.09810(10)
Cl1_43 Cl 0.43597(4) 0.31403(4) 0.8750
O1_43 O 0.47313(10) 0.31520(10) 0.84913(9)
O2_43 O 0.39939(10) 0.31483(11) 0.84810(10)
O3_43 O 0.43480(10) 0.27687(10) 0.90087(9)
O4_43 O 0.43517(11) 0.35061(10) 0.90190(10)
Cl1_44 Cl 0.56403(4) 0.81403(4) 0.6250
O1_44 O 0.52687(10) 0.81520(10) 0.65087(9)
O2_44 O 0.60061(10) 0.81483(11) 0.65190(10)
O3_44 O 0.56520(10) 0.77687(10) 0.59913(9)
O4_44 O 0.56483(11) 0.85061(10) 0.59810(10)
Cl1_45 Cl 0.18597(4) 0.1250 0.93597(4)
O1_45 O 0.18480(10) 0.15087(9) 0.97313(10)
O2_45 O 0.18517(11) 0.15190(10) 0.89939(10)
O3_45 O 0.22313(10) 0.09913(9) 0.93480(10)
O4_45 O 0.14939(10) 0.09810(10) 0.93517(11)
Cl1_46 Cl 0.68597(4) 0.3750 0.06403(4)
O1_46 O 0.68480(10) 0.34913(9) 0.02687(10)
O2_46 O 0.68517(11) 0.34810(10) 0.10061(10)
O3_46 O 0.72313(10) 0.40087(9) 0.06520(10)
O4_46 O 0.64939(10) 0.40190(10) 0.06483(11)
Cl1_47 Cl 0.81403(4) 0.6250 0.56403(4)
O1_47 O 0.81520(10) 0.65087(9) 0.52687(10)
O2_47 O 0.81483(11) 0.65190(10) 0.60061(10)
O3_47 O 0.77687(10) 0.59913(9) 0.56520(10)
O4_47 O 0.85061(10) 0.59810(10) 0.56483(11)
Cl1_48 Cl 0.31403(4) 0.8750 0.43597(4)
O1_48 O 0.31520(10) 0.84913(9) 0.47313(10)
O2_48 O 0.31483(11) 0.84810(10) 0.39939(10)
O3_48 O 0.27687(10) 0.90087(9) 0.43480(10)
O4_48 O 0.35061(10) 0.90190(10) 0.43517(11)
loop_
_geom_bond_atom_site_label_1
_geom_bond_atom_site_label_2
_geom_bond_site_symmetry_1
_geom_bond_site_symmetry_2
C21 H19 1_555 1_555
C32 C21 1_555 1_555
H30 C32 1_555 1_555
C70 C59 1_555 1_555
C73 C62 1_555 1_555
H46 C70 1_555 1_555
H49 C73 1_555 1_555
C81 C70 1_555 1_555
C84 C73 1_555 1_555
H57 C81 1_555 1_555
H60 C84 1_555 1_555
C92 C81 1_555 1_555
C95 C84 1_555 1_555
N15 C21 1_555 1_555
C19 H17 1_555 1_555
C30 C19 1_555 1_555
H28 C30 1_555 1_555
C75 C64 1_555 1_555
H51 C75 1_555 1_555
C86 C75 1_555 1_555
H62 C86 1_555 1_555
C97 C86 1_555 1_555
N13 C19 1_555 1_555
Zn1 N2 1_555 1_555
C1 H1 1_555 1_555
C2 C1 1_555 1_555
H2 C2 1_555 1_555
C3 N1 1_555 1_555
N1 C1 1_555 1_555
N2 C2 1_555 1_555
N3 C3 1_555 1_555
Zn2 N16 1_555 1_555
Zn3 N18 1_555 1_555
Zn7_2 N26 1_555 1_555
C13 H11 1_555 1_555
C14 H12 1_555 1_555
C20 H18 1_555 1_555
C24 C13 1_555 1_555
C25 C14 1_555 1_555
C31 C20 1_555 1_555
H22 C24 1_555 1_555
H23 C25 1_555 1_555
H29 C31 1_555 1_555
C35 N7 1_555 1_555
C42 N14 1_555 1_555
C44 C55 1_555 1_555
C45 C56 1_555 1_555
C54 C65 1_555 1_555
C55 H31 1_555 1_555
C56 H32 1_555 1_555
C65 H41 1_555 1_555
C66 C55 1_555 1_555
C67 C56 1_555 1_555
C76 C65 1_555 1_555
H42 C66 1_555 1_555
H43 C67 1_555 1_555
H52 C76 1_555 1_555
C77 C66 1_555 1_555
C78 C67 1_555 1_555
C87 C76 1_555 1_555
H53 C77 1_555 1_555
H54 C78 1_555 1_555
H63 C87 1_555 1_555
C88 C77 1_555 1_555
C89 C78 1_555 1_555
C98 C87 1_555 1_555
H64 C88 1_555 1_555
H65 C89 1_555 1_555
H74 C98 1_555 1_555
C99 C44 1_555 1_555
C100 C45 1_555 1_555
C101 C46 1_555 1_555
C104 C49 1_555 1_555
C106 C51 1_555 1_555
C109 C54 1_555 1_555
H75 C99 1_555 1_555
H76 C100 1_555 1_555
H77 C101 1_555 1_555
H80 C104 1_555 1_555
H82 C106 1_555 1_555
H85 C109 1_555 1_555
N7 C13 1_555 1_555
N8 C14 1_555 1_555
N14 C20 1_555 1_555
N17 Zn1 1_555 1_555
N18 C24 1_555 1_555
N25 Zn2 1_555 1_555
N28 Zn3 1_555 1_555
N29 Zn3 1_555 1_555
N30 Zn3 1_555 1_555
N31 C33 1_555 1_555
N32 C34 1_555 1_555
N33 C35 1_555 1_555
N40 C42 1_555 1_555
N41 C43 1_555 1_555
N42 C44 1_555 1_555
N43 C45 1_555 1_555
N44 C46 1_555 1_555
N52 C54 1_555 1_555
C3 N2 1_555 1_555
C10 N1 1_555 1_555
N3 N4 1_555 1_555
C31 N25 1_555 1_555
C33 N16 1_555 1_555
C34 N17 1_555 1_555
C35 N18 1_555 1_555
C42 N25 1_555 1_555
C43 N26 1_555 1_555
C88 C99 1_555 1_555
C89 C100 1_555 1_555
C98 C109 1_555 1_555
C110 N7 1_555 1_555
C114 N14 1_555 1_555
N31 N42 1_555 1_555
N32 N43 1_555 1_555
N33 N44 1_555 1_555
N40 N51 1_555 1_555
N41 N52 1_555 1_555
Zn6_2 N24 1_555 1_555
C11 H9 1_555 1_555
C18 H16 1_555 1_555
C22 C11 1_555 1_555
C29 C18 1_555 1_555
H20 C22 1_555 1_555
H27 C29 1_555 1_555
C40 N12 1_555 1_555
C52 C63 1_555 1_555
C63 H39 1_555 1_555
C71 C60 1_555 1_555
C74 C63 1_555 1_555
H47 C71 1_555 1_555
H50 C74 1_555 1_555
C82 C71 1_555 1_555
C85 C74 1_555 1_555
H58 C82 1_555 1_555
H61 C85 1_555 1_555
C93 C82 1_555 1_555
C96 C85 1_555 1_555
H72 C96 1_555 1_555
C107 C52 1_555 1_555
C108 C53 1_555 1_555
H83 C107 1_555 1_555
H84 C108 1_555 1_555
N12 C18 1_555 1_555
N23 Zn2_2 1_555 1_555
N27 Zn2_2 1_555 1_555
N38 C40 1_555 1_555
N39 C41 1_555 1_555
N50 C52 1_555 1_555
C11 N5 1_555 1_555
C29 N23 1_555 1_555
C40 N23 1_555 1_555
C41 N24 1_555 1_555
C96 C107 1_555 1_555
C113 N12 1_555 1_555
N38 N49 1_555 1_555
N39 N50 1_555 1_555
C103 C48 1_555 1_555
H79 C103 1_555 1_555
C9 C4 1_555 1_555
H7 C9 1_555 1_555
Zn4_2 N20 1_555 1_555
Zn5 N22 1_555 1_555
C12 H10 1_555 1_555
C15 H13 1_555 1_555
C16 H14 1_555 1_555
C23 C12 1_555 1_555
C26 C15 1_555 1_555
C27 C16 1_555 1_555
H21 C23 1_555 1_555
H24 C26 1_555 1_555
H25 C27 1_555 1_555
C37 N9 1_555 1_555
C38 N10 1_555 1_555
C47 C58 1_555 1_555
C50 C61 1_555 1_555
C57 H33 1_555 1_555
C58 H34 1_555 1_555
C61 H37 1_555 1_555
C68 C57 1_555 1_555
C69 C58 1_555 1_555
C72 C61 1_555 1_555
H44 C68 1_555 1_555
H45 C69 1_555 1_555
H48 C72 1_555 1_555
C79 C68 1_555 1_555
C80 C69 1_555 1_555
C83 C72 1_555 1_555
H55 C79 1_555 1_555
H56 C80 1_555 1_555
H59 C83 1_555 1_555
C90 C79 1_555 1_555
C91 C80 1_555 1_555
C94 C83 1_555 1_555
H67 C91 1_555 1_555
H70 C94 1_555 1_555
C102 C47 1_555 1_555
C105 C50 1_555 1_555
H78 C102 1_555 1_555
H81 C105 1_555 1_555
N6 C12 1_555 1_555
N9 C15 1_555 1_555
N10 C16 1_555 1_555
N19 Zn1_2 1_555 1_555
N20 C26 1_555 1_555
N21 Zn1_2 1_555 1_555
N34 C36 1_555 1_555
N35 C37 1_555 1_555
N36 C38 1_555 1_555
N37 C39 1_555 1_555
N45 C47 1_555 1_555
N48 C50 1_555 1_555
C27 N21 1_555 1_555
C36 N19 1_555 1_555
C37 N20 1_555 1_555
C38 N21 1_555 1_555
C39 N22 1_555 1_555
C91 C102 1_555 1_555
C94 C105 1_555 1_555
C111 N9 1_555 1_555
C112 N10 1_555 1_555
N34 N45 1_555 1_555
N35 N46 1_555 1_555
N36 N47 1_555 1_555
N37 N48 1_555 1_555
C6 C5 1_555 1_555
H4 C6 1_555 1_555
C7 C6 1_555 1_555
H5 C7 1_555 1_555
C8 C7 1_555 1_555
C17 H15 1_555 1_555
C28 C17 1_555 1_555
H26 C28 1_555 1_555
N11 C17 1_555 1_555
Zn1_3 N2_2 1_555 1_555
C1_2 H1_2 1_555 1_555
C2_2 C1_2 1_555 1_555
H2_2 C2_2 1_555 1_555
C3_2 N1_2 1_555 1_555
C4_2 C5_2 1_555 1_555
C5_2 H3_2 1_555 1_555
C6_2 C5_2 1_555 1_555
H4_2 C6_2 1_555 1_555
C7_2 C6_2 1_555 1_555
H5_2 C7_2 1_555 1_555
C8_2 C7_2 1_555 1_555
H6_2 C8_2 1_555 1_555
C9_2 C4_2 1_555 1_555
H7_2 C9_2 1_555 1_555
C10_2 H8_2 1_555 1_555
N1_2 C1_2 1_555 1_555
N2_2 C2_2 1_555 1_555
N3_2 C3_2 1_555 1_555
N4_2 C4_2 1_555 1_555
Zn2_3 N16_2 1_555 1_555
Zn3_2 N18_2 1_555 1_555
Zn4_3 N20_2 1_555 1_555
Zn5_3 N22_2 1_555 1_555
Zn7 N24_2 1_555 1_555
Zn6 N26_2 1_555 1_555
C11_2 H9_2 1_555 1_555
C12_2 H10_2 1_555 1_555
C13_2 H11_2 1_555 1_555
C14_2 H12_2 1_555 1_555
C15_2 H13_2 1_555 1_555
C16_2 H14_2 1_555 1_555
C17_2 H15_2 1_555 1_555
C18_2 H16_2 1_555 1_555
C20_2 H18_2 1_555 1_555
C22_2 C11_2 1_555 1_555
C23_2 C12_2 1_555 1_555
C24_2 C13_2 1_555 1_555
C25_2 C14_2 1_555 1_555
C26_2 C15_2 1_555 1_555
C27_2 C16_2 1_555 1_555
C28_2 C17_2 1_555 1_555
C29_2 C18_2 1_555 1_555
C31_2 C20_2 1_555 1_555
H20_2 C22_2 1_555 1_555
H21_2 C23_2 1_555 1_555
H22_2 C24_2 1_555 1_555
H23_2 C25_2 1_555 1_555
H24_2 C26_2 1_555 1_555
H25_2 C27_2 1_555 1_555
H26_2 C28_2 1_555 1_555
H27_2 C29_2 1_555 1_555
H29_2 C31_2 1_555 1_555
C33_2 N5_2 1_555 1_555
C34_2 N6_2 1_555 1_555
C35_2 N7_2 1_555 1_555
C36_2 N8_2 1_555 1_555
C37_2 N9_2 1_555 1_555
C38_2 N10_2 1_555 1_555
C39_2 N11_2 1_555 1_555
C40_2 N12_2 1_555 1_555
C42_2 N14_2 1_555 1_555
C44_2 C55_2 1_555 1_555
C45_2 C56_2 1_555 1_555
C46_2 C57_2 1_555 1_555
C47_2 C58_2 1_555 1_555
C49_2 C60_2 1_555 1_555
C50_2 C61_2 1_555 1_555
C52_2 C63_2 1_555 1_555
C54_2 C65_2 1_555 1_555
C55_2 H31_2 1_555 1_555
C56_2 H32_2 1_555 1_555
C57_2 H33_2 1_555 1_555
C58_2 H34_2 1_555 1_555
C60_2 H36_2 1_555 1_555
C61_2 H37_2 1_555 1_555
C63_2 H39_2 1_555 1_555
C65_2 H41_2 1_555 1_555
C66_2 C55_2 1_555 1_555
C67_2 C56_2 1_555 1_555
C68_2 C57_2 1_555 1_555
C69_2 C58_2 1_555 1_555
C71_2 C60_2 1_555 1_555
C72_2 C61_2 1_555 1_555
C74_2 C63_2 1_555 1_555
C76_2 C65_2 1_555 1_555
H42_2 C66_2 1_555 1_555
H43_2 C67_2 1_555 1_555
H44_2 C68_2 1_555 1_555
H45_2 C69_2 1_555 1_555
H47_2 C71_2 1_555 1_555
H48_2 C72_2 1_555 1_555
H50_2 C74_2 1_555 1_555
H52_2 C76_2 1_555 1_555
C77_2 C66_2 1_555 1_555
C78_2 C67_2 1_555 1_555
C79_2 C68_2 1_555 1_555
C80_2 C69_2 1_555 1_555
C82_2 C71_2 1_555 1_555
C83_2 C72_2 1_555 1_555
C85_2 C74_2 1_555 1_555
C87_2 C76_2 1_555 1_555
H53_2 C77_2 1_555 1_555
H54_2 C78_2 1_555 1_555
H55_2 C79_2 1_555 1_555
H56_2 C80_2 1_555 1_555
H58_2 C82_2 1_555 1_555
H59_2 C83_2 1_555 1_555
H61_2 C85_2 1_555 1_555
H63_2 C87_2 1_555 1_555
C88_2 C77_2 1_555 1_555
C89_2 C78_2 1_555 1_555
C90_2 C79_2 1_555 1_555
C91_2 C80_2 1_555 1_555
C93_2 C82_2 1_555 1_555
C94_2 C83_2 1_555 1_555
C96_2 C85_2 1_555 1_555
C98_2 C87_2 1_555 1_555
H64_2 C88_2 1_555 1_555
H65_2 C89_2 1_555 1_555
H66_2 C90_2 1_555 1_555
H67_2 C91_2 1_555 1_555
H69_2 C93_2 1_555 1_555
H70_2 C94_2 1_555 1_555
H72_2 C96_2 1_555 1_555
H74_2 C98_2 1_555 1_555
C99_2 C44_2 1_555 1_555
C100_2 C45_2 1_555 1_555
C101_2 C46_2 1_555 1_555
C102_2 C47_2 1_555 1_555
C104_2 C49_2 1_555 1_555
C105_2 C50_2 1_555 1_555
C106_2 C51_2 1_555 1_555
C107_2 C52_2 1_555 1_555
C108_2 C53_2 1_555 1_555
C109_2 C54_2 1_555 1_555
H75_2 C99_2 1_555 1_555
H76_2 C100_2 1_555 1_555
H77_2 C101_2 1_555 1_555
H78_2 C102_2 1_555 1_555
H80_2 C104_2 1_555 1_555
H81_2 C105_2 1_555 1_555
H82_2 C106_2 1_555 1_555
H83_2 C107_2 1_555 1_555
H84_2 C108_2 1_555 1_555
H85_2 C109_2 1_555 1_555
C110_2 H87_2 1_555 1_555
C111_2 H89_2 1_555 1_555
C112_2 H91_2 1_555 1_555
H86_2 C10_2 1_555 1_555
H88_2 C110_2 1_555 1_555
H90_2 C111_2 1_555 1_555
H92_2 C112_2 1_555 1_555
N5_2 C10_2 1_555 1_555
N6_2 C12_2 1_555 1_555
N7_2 C13_2 1_555 1_555
N8_2 C14_2 1_555 1_555
N9_2 C15_2 1_555 1_555
N10_2 C16_2 1_555 1_555
N11_2 C17_2 1_555 1_555
N12_2 C18_2 1_555 1_555
N14_2 C20_2 1_555 1_555
N16_2 C22_2 1_555 1_555
N17_2 Zn1_3 1_555 1_555
N18_2 C24_2 1_555 1_555
N19_2 Zn1_3 1_555 1_555
N20_2 C26_2 1_555 1_555
N21_2 Zn1_3 1_555 1_555
N22_2 C28_2 1_555 1_555
N23_2 Zn2_3 1_555 1_555
N25_2 Zn2_3 1_555 1_555
N27_2 Zn2_3 1_555 1_555
N28_2 Zn3_2 1_555 1_555
N29_2 Zn3_2 1_555 1_555
N30_2 Zn3_2 1_555 1_555
N31_2 C33_2 1_555 1_555
N32_2 C34_2 1_555 1_555
N33_2 C35_2 1_555 1_555
N34_2 C36_2 1_555 1_555
N35_2 C37_2 1_555 1_555
N36_2 C38_2 1_555 1_555
N37_2 C39_2 1_555 1_555
N38_2 C40_2 1_555 1_555
N39_2 C41_2 1_555 1_555
N40_2 C42_2 1_555 1_555
N41_2 C43_2 1_555 1_555
N42_2 C44_2 1_555 1_555
N43_2 C45_2 1_555 1_555
N44_2 C46_2 1_555 1_555
N45_2 C47_2 1_555 1_555
N47_2 C49_2 1_555 1_555
N48_2 C50_2 1_555 1_555
N49_2 C51_2 1_555 1_555
N50_2 C52_2 1_555 1_555
N51_2 C53_2 1_555 1_555
N52_2 C54_2 1_555 1_555
C3_2 N2_2 1_555 1_555
C8_2 C9_2 1_555 1_555
C10_2 N1_2 1_555 1_555
N3_2 N4_2 1_555 1_555
C11_2 N5_2 1_555 1_555
C23_2 N17_2 1_555 1_555
C25_2 N19_2 1_555 1_555
C27_2 N21_2 1_555 1_555
C29_2 N23_2 1_555 1_555
C31_2 N25_2 1_555 1_555
C33_2 N16_2 1_555 1_555
C34_2 N17_2 1_555 1_555
C35_2 N18_2 1_555 1_555
C36_2 N19_2 1_555 1_555
C37_2 N20_2 1_555 1_555
C38_2 N21_2 1_555 1_555
C39_2 N22_2 1_555 1_555
C40_2 N23_2 1_555 1_555
C41_2 N24_2 1_555 1_555
C42_2 N25_2 1_555 1_555
C43_2 N26_2 1_555 1_555
C88_2 C99_2 1_555 1_555
C89_2 C100_2 1_555 1_555
C90_2 C101_2 1_555 1_555
C91_2 C102_2 1_555 1_555
C93_2 C104_2 1_555 1_555
C94_2 C105_2 1_555 1_555
C96_2 C107_2 1_555 1_555
C98_2 C109_2 1_555 1_555
C110_2 N6_2 1_555 1_555
C110_2 N7_2 1_555 1_555
C111_2 N8_2 1_555 1_555
C111_2 N9_2 1_555 1_555
C112_2 N10_2 1_555 1_555
C112_2 N11_2 1_555 1_555
C113_2 N12_2 1_555 1_555
C114_2 N14_2 1_555 1_555
N31_2 N42_2 1_555 1_555
N32_2 N43_2 1_555 1_555
N33_2 N44_2 1_555 1_555
N34_2 N45_2 1_555 1_555
N35_2 N46_2 1_555 1_555
N36_2 N47_2 1_555 1_555
N37_2 N48_2 1_555 1_555
N38_2 N49_2 1_555 1_555
N39_2 N50_2 1_555 1_555
N40_2 N51_2 1_555 1_555
N41_2 N52_2 1_555 1_555
C19_2 H17_2 1_555 1_555
C21_2 H19_2 1_555 1_555
C30_2 C19_2 1_555 1_555
C32_2 C21_2 1_555 1_555
H28_2 C30_2 1_555 1_555
H30_2 C32_2 1_555 1_555
C48_2 C59_2 1_555 1_555
C62_2 H38_2 1_555 1_555
C64_2 H40_2 1_555 1_555
C70_2 C59_2 1_555 1_555
C73_2 C62_2 1_555 1_555
C75_2 C64_2 1_555 1_555
H46_2 C70_2 1_555 1_555
H49_2 C73_2 1_555 1_555
H51_2 C75_2 1_555 1_555
C81_2 C70_2 1_555 1_555
C84_2 C73_2 1_555 1_555
C86_2 C75_2 1_555 1_555
H57_2 C81_2 1_555 1_555
H60_2 C84_2 1_555 1_555
H62_2 C86_2 1_555 1_555
C92_2 C81_2 1_555 1_555
C95_2 C84_2 1_555 1_555
C97_2 C86_2 1_555 1_555
H68_2 C92_2 1_555 1_555
C103_2 C48_2 1_555 1_555
H79_2 C103_2 1_555 1_555
N13_2 C19_2 1_555 1_555
N15_2 C21_2 1_555 1_555
C92_2 C103_2 1_555 1_555
C4_3 C5_3 1_555 1_555
C6_3 C5_3 1_555 1_555
H4_3 C6_3 1_555 1_555
C7_3 C6_3 1_555 1_555
H5_3 C7_3 1_555 1_555
C8_3 C7_3 1_555 1_555
H6_3 C8_3 1_555 1_555
C9_3 C4_3 1_555 1_555
H7_3 C9_3 1_555 1_555
C12_3 H10_3 1_555 1_555
C15_3 H13_3 1_555 1_555
C16_3 H14_3 1_555 1_555
C17_3 H15_3 1_555 1_555
C23_3 C12_3 1_555 1_555
C26_3 C15_3 1_555 1_555
C27_3 C16_3 1_555 1_555
C28_3 C17_3 1_555 1_555
H21_3 C23_3 1_555 1_555
H24_3 C26_3 1_555 1_555
H25_3 C27_3 1_555 1_555
H26_3 C28_3 1_555 1_555
C37_3 N9_3 1_555 1_555
C38_3 N10_3 1_555 1_555
C39_3 N11_3 1_555 1_555
C47_3 C58_3 1_555 1_555
C50_3 C61_3 1_555 1_555
C58_3 H34_3 1_555 1_555
C61_3 H37_3 1_555 1_555
C69_3 C58_3 1_555 1_555
C72_3 C61_3 1_555 1_555
H45_3 C69_3 1_555 1_555
H48_3 C72_3 1_555 1_555
C80_3 C69_3 1_555 1_555
C83_3 C72_3 1_555 1_555
H56_3 C80_3 1_555 1_555
H59_3 C83_3 1_555 1_555
C91_3 C80_3 1_555 1_555
C94_3 C83_3 1_555 1_555
H67_3 C91_3 1_555 1_555
H70_3 C94_3 1_555 1_555
C102_3 C47_3 1_555 1_555
C103_3 C48_3 1_555 1_555
C105_3 C50_3 1_555 1_555
H78_3 C102_3 1_555 1_555
H79_3 C103_3 1_555 1_555
H81_3 C105_3 1_555 1_555
C112_3 H91_3 1_555 1_555
H92_3 C112_3 1_555 1_555
N6_3 C12_3 1_555 1_555
N9_3 C15_3 1_555 1_555
N10_3 C16_3 1_555 1_555
N11_3 C17_3 1_555 1_555
N19_3 Zn1_4 1_555 1_555
N30 C26_3 1_555 1_555
N21_3 Zn1_4 1_555 1_555
N27_2 C28_3 1_555 1_555
N34_3 C36_3 1_555 1_555
N35_3 C37_3 1_555 1_555
N36_3 C38_3 1_555 1_555
N37_3 C39_3 1_555 1_555
N45_3 C47_3 1_555 1_555
N46_3 C48_3 1_555 1_555
N48_3 C50_3 1_555 1_555
C8_3 C9_3 1_555 1_555
C27_3 N21_3 1_555 1_555
C36_3 N19_3 1_555 1_555
C37_3 N30 1_555 1_555
C38_3 N21_3 1_555 1_555
C39_3 N27_2 1_555 1_555
C91_3 C102_3 1_555 1_555
C94_3 C105_3 1_555 1_555
C111_3 N9_3 1_555 1_555
C112_3 N10_3 1_555 1_555
C112_3 N11_3 1_555 1_555
N34_3 N45_3 1_555 1_555
N35_3 N46_3 1_555 1_555
N36_3 N47_3 1_555 1_555
N37_3 N48_3 1_555 1_555
C68_3 C57_3 1_555 1_555
H44_3 C68_3 1_555 1_555
C79_3 C68_3 1_555 1_555
H55_3 C79_3 1_555 1_555
C90_3 C79_3 1_555 1_555
Zn1_5 N2_3 1_555 1_555
C1_3 H1_3 1_555 1_555
C2_3 C1_3 1_555 1_555
H2_3 C2_3 1_555 1_555
C3_3 N1_3 1_555 1_555
C10_3 H8_3 1_555 1_555
N1_3 C1_3 1_555 1_555
N2_3 C2_3 1_555 1_555
N3_3 C3_3 1_555 1_555
Zn5_3 N16_3 1_555 1_555
Zn4 N18_3 1_555 1_555
Zn6_3 N24_3 1_555 1_555
Zn7_3 N26_3 1_555 1_555
C11_3 H9_3 1_555 1_555
C13_3 H11_3 1_555 1_555
C14_3 H12_3 1_555 1_555
C18_3 H16_3 1_555 1_555
C19_3 H17_3 1_555 1_555
C20_3 H18_3 1_555 1_555
C21_3 H19_3 1_555 1_555
C22_3 C11_3 1_555 1_555
C24_3 C13_3 1_555 1_555
C25_3 C14_3 1_555 1_555
C29_3 C18_3 1_555 1_555
C30_3 C19_3 1_555 1_555
C31_3 C20_3 1_555 1_555
C32_3 C21_3 1_555 1_555
H20_3 C22_3 1_555 1_555
H22_3 C24_3 1_555 1_555
H23_3 C25_3 1_555 1_555
H27_3 C29_3 1_555 1_555
H28_3 C30_3 1_555 1_555
H29_3 C31_3 1_555 1_555
H30_3 C32_3 1_555 1_555
C33_3 N5_3 1_555 1_555
C35_3 N7_3 1_555 1_555
C40_3 N12_3 1_555 1_555
C41_3 N13_3 1_555 1_555
C42_3 N14_3 1_555 1_555
C43_3 N15_3 1_555 1_555
C44_3 C55_3 1_555 1_555
C45_3 C56_3 1_555 1_555
C49_3 C60_3 1_555 1_555
C51_3 C62_3 1_555 1_555
C52_3 C63_3 1_555 1_555
C53_3 C64_3 1_555 1_555
C54_3 C65_3 1_555 1_555
C55_3 H31_3 1_555 1_555
C56_3 H32_3 1_555 1_555
C59_3 H35_3 1_555 1_555
C62_3 H38_3 1_555 1_555
C63_3 H39_3 1_555 1_555
C64_3 H40_3 1_555 1_555
C65_3 H41_3 1_555 1_555
C66_3 C55_3 1_555 1_555
C67_3 C56_3 1_555 1_555
C70_3 C59_3 1_555 1_555
C71_3 C60_3 1_555 1_555
C73_3 C62_3 1_555 1_555
C74_3 C63_3 1_555 1_555
C75_3 C64_3 1_555 1_555
C76_3 C65_3 1_555 1_555
H42_3 C66_3 1_555 1_555
H43_3 C67_3 1_555 1_555
H46_3 C70_3 1_555 1_555
H47_3 C71_3 1_555 1_555
H49_3 C73_3 1_555 1_555
H50_3 C74_3 1_555 1_555
H51_3 C75_3 1_555 1_555
H52_3 C76_3 1_555 1_555
C77_3 C66_3 1_555 1_555
C78_3 C67_3 1_555 1_555
C81_3 C70_3 1_555 1_555
C82_3 C71_3 1_555 1_555
C84_3 C73_3 1_555 1_555
C85_3 C74_3 1_555 1_555
C86_3 C75_3 1_555 1_555
C87_3 C76_3 1_555 1_555
H53_3 C77_3 1_555 1_555
H54_3 C78_3 1_555 1_555
H57_3 C81_3 1_555 1_555
H58_3 C82_3 1_555 1_555
H60_3 C84_3 1_555 1_555
H61_3 C85_3 1_555 1_555
H62_3 C86_3 1_555 1_555
H63_3 C87_3 1_555 1_555
C88_3 C77_3 1_555 1_555
C89_3 C78_3 1_555 1_555
C92_3 C81_3 1_555 1_555
C93_3 C82_3 1_555 1_555
C95_3 C84_3 1_555 1_555
C96_3 C85_3 1_555 1_555
C97_3 C86_3 1_555 1_555
C98_3 C87_3 1_555 1_555
H64_3 C88_3 1_555 1_555
H65_3 C89_3 1_555 1_555
H69_3 C93_3 1_555 1_555
H71_3 C95_3 1_555 1_555
H72_3 C96_3 1_555 1_555
H73_3 C97_3 1_555 1_555
H74_3 C98_3 1_555 1_555
C99_3 C44_3 1_555 1_555
C100_3 C45_3 1_555 1_555
C104_3 C49_3 1_555 1_555
C106_3 C51_3 1_555 1_555
C107_3 C52_3 1_555 1_555
C108_3 C53_3 1_555 1_555
C109_3 C54_3 1_555 1_555
H75_3 C99_3 1_555 1_555
H76_3 C100_3 1_555 1_555
H80_3 C104_3 1_555 1_555
H82_3 C106_3 1_555 1_555
H83_3 C107_3 1_555 1_555
H84_3 C108_3 1_555 1_555
H85_3 C109_3 1_555 1_555
C113_3 H93_3 1_555 1_555
C114_3 H95_3 1_555 1_555
H86_3 C10_3 1_555 1_555
H94_3 C113_3 1_555 1_555
H96_3 C114_3 1_555 1_555
N5_3 C10_3 1_555 1_555
N7_3 C13_3 1_555 1_555
N8_3 C14_3 1_555 1_555
N12_3 C18_3 1_555 1_555
N13_3 C19_3 1_555 1_555
N14_3 C20_3 1_555 1_555
N15_3 C21_3 1_555 1_555
N16_3 C22_3 1_555 1_555
N17_3 Zn1_5 1_555 1_555
N18_3 C24_3 1_555 1_555
N23_3 Zn5_3 1_555 1_555
N24_3 C30_3 1_555 1_555
N25_3 Zn5_3 1_555 1_555
N26_3 C32_3 1_555 1_555
N28_3 Zn4 1_555 1_555
N31_3 C33_3 1_555 1_555
N32_3 C34_3 1_555 1_555
N33_3 C35_3 1_555 1_555
N38_3 C40_3 1_555 1_555
N39_3 C41_3 1_555 1_555
N40_3 C42_3 1_555 1_555
N41_3 C43_3 1_555 1_555
N42_3 C44_3 1_555 1_555
N43_3 C45_3 1_555 1_555
N49_3 C51_3 1_555 1_555
N50_3 C52_3 1_555 1_555
N51_3 C53_3 1_555 1_555
N52_3 C54_3 1_555 1_555
C3_3 N2_3 1_555 1_555
C10_3 N1_3 1_555 1_555
N3_3 N4_3 1_555 1_555
C11_3 N5_3 1_555 1_555
C29_3 N23_3 1_555 1_555
C31_3 N25_3 1_555 1_555
C33_3 N16_3 1_555 1_555
C34_3 N17_3 1_555 1_555
C35_3 N18_3 1_555 1_555
C40_3 N23_3 1_555 1_555
C41_3 N24_3 1_555 1_555
C42_3 N25_3 1_555 1_555
C43_3 N26_3 1_555 1_555
C88_3 C99_3 1_555 1_555
C89_3 C100_3 1_555 1_555
C93_3 C104_3 1_555 1_555
C95_3 C106_3 1_555 1_555
C96_3 C107_3 1_555 1_555
C97_3 C108_3 1_555 1_555
C98_3 C109_3 1_555 1_555
C110_3 N7_3 1_555 1_555
C113_3 N12_3 1_555 1_555
C113_3 N13_3 1_555 1_555
C114_3 N14_3 1_555 1_555
C114_3 N15_3 1_555 1_555
N31_3 N42_3 1_555 1_555
N32_3 N43_3 1_555 1_555
N33_3 N44_3 1_555 1_555
N38_3 N49_3 1_555 1_555
N39_3 N50_3 1_555 1_555
N40_3 N51_3 1_555 1_555
N41_3 N52_3 1_555 1_555
C101_3 C46_3 1_555 1_555
H77_3 C101_3 1_555 1_555
N29_3 Zn4_2 1_555 1_555
C46_4 C57_4 1_555 1_555
C68_4 C57_4 1_555 1_555
H44_4 C68_4 1_555 1_555
C79_4 C68_4 1_555 1_555
H55_4 C79_4 1_555 1_555
C90_4 C79_4 1_555 1_555
H66_4 C90_4 1_555 1_555
C101_4 C46_4 1_555 1_555
H77_4 C101_4 1_555 1_555
N29_4 Zn4_3 1_555 1_555
C90_4 C101_4 1_555 1_555
C5_4 H3_4 1_555 1_555
C6_4 C5_4 1_555 1_555
H4_4 C6_4 1_555 1_555
C7_4 C6_4 1_555 1_555
H5_4 C7_4 1_555 1_555
C8_4 C7_4 1_555 1_555
Zn7_3 N24_4 1_555 1_555
C11_4 H9_4 1_555 1_555
C17_4 H15_4 1_555 1_555
C18_4 H16_4 1_555 1_555
C19_4 H17_4 1_555 1_555
C22_4 C11_4 1_555 1_555
C28_4 C17_4 1_555 1_555
C29_4 C18_4 1_555 1_555
C30_4 C19_4 1_555 1_555
H20_4 C22_4 1_555 1_555
H26_4 C28_4 1_555 1_555
H27_4 C29_4 1_555 1_555
H28_4 C30_4 1_555 1_555
C40_4 N12_4 1_555 1_555
C41_4 N13_4 1_555 1_555
C52_4 C63_4 1_555 1_555
C53_4 C64_4 1_555 1_555
C60_4 H36_4 1_555 1_555
C63_4 H39_4 1_555 1_555
C71_4 C60_4 1_555 1_555
C74_4 C63_4 1_555 1_555
C75_4 C64_4 1_555 1_555
H47_4 C71_4 1_555 1_555
H50_4 C74_4 1_555 1_555
H51_4 C75_4 1_555 1_555
C82_4 C71_4 1_555 1_555
C85_4 C74_4 1_555 1_555
C86_4 C75_4 1_555 1_555
H58_4 C82_4 1_555 1_555
H61_4 C85_4 1_555 1_555
H62_4 C86_4 1_555 1_555
C93_4 C82_4 1_555 1_555
C96_4 C85_4 1_555 1_555
C97_4 C86_4 1_555 1_555
H72_4 C96_4 1_555 1_555
H73_4 C97_4 1_555 1_555
C107_4 C52_4 1_555 1_555
C108_4 C53_4 1_555 1_555
H83_4 C107_4 1_555 1_555
H84_4 C108_4 1_555 1_555
C113_4 H93_4 1_555 1_555
H94_4 C113_4 1_555 1_555
N11_4 C17_4 1_555 1_555
N12_4 C18_4 1_555 1_555
N13_4 C19_4 1_555 1_555
N23_4 Zn5 1_555 1_555
N24_4 C30_4 1_555 1_555
N38_4 C40_4 1_555 1_555
N39_4 C41_4 1_555 1_555
N50_4 C52_4 1_555 1_555
C11_4 N5_4 1_555 1_555
C29_4 N23_4 1_555 1_555
C40_4 N23_4 1_555 1_555
C41_4 N24_4 1_555 1_555
C96_4 C107_4 1_555 1_555
C97_4 C108_4 1_555 1_555
C113_4 N12_4 1_555 1_555
C113_4 N13_4 1_555 1_555
N38_4 N49_4 1_555 1_555
N39_4 N50_4 1_555 1_555
Zn1_6 N2_4 1_555 1_555
C1_4 H1_4 1_555 1_555
C2_4 C1_4 1_555 1_555
H2_4 C2_4 1_555 1_555
C3_4 N1_4 1_555 1_555
C9_4 C4_4 1_555 1_555
H7_4 C9_4 1_555 1_555
N1_4 C1_4 1_555 1_555
N2_4 C2_4 1_555 1_555
N3_4 C3_4 1_555 1_555
N4_4 C4_4 1_555 1_555
Zn5_2 N16_4 1_555 1_555
Zn4_4 N18_4 1_555 1_555
Zn6_3 N26_4 1_555 1_555
C12_4 H10_4 1_555 1_555
C13_4 H11_4 1_555 1_555
C14_4 H12_4 1_555 1_555
C15_4 H13_4 1_555 1_555
C16_4 H14_4 1_555 1_555
C20_4 H18_4 1_555 1_555
C21_4 H19_4 1_555 1_555
C23_4 C12_4 1_555 1_555
C24_4 C13_4 1_555 1_555
C25_4 C14_4 1_555 1_555
C26_4 C15_4 1_555 1_555
C27_4 C16_4 1_555 1_555
C31_4 C20_4 1_555 1_555
C32_4 C21_4 1_555 1_555
H21_4 C23_4 1_555 1_555
H22_4 C24_4 1_555 1_555
H23_4 C25_4 1_555 1_555
H24_4 C26_4 1_555 1_555
H25_4 C27_4 1_555 1_555
H29_4 C31_4 1_555 1_555
H30_4 C32_4 1_555 1_555
C34_4 N6_4 1_555 1_555
C35_4 N7_4 1_555 1_555
C36_4 N8_4 1_555 1_555
C37_4 N9_4 1_555 1_555
C38_4 N10_4 1_555 1_555
C42_4 N14_4 1_555 1_555
C43_4 N15_4 1_555 1_555
C44_4 C55_4 1_555 1_555
C45_4 C56_4 1_555 1_555
C47_4 C58_4 1_555 1_555
C48_4 C59_4 1_555 1_555
C50_4 C61_4 1_555 1_555
C51_4 C62_4 1_555 1_555
C54_4 C65_4 1_555 1_555
C55_4 H31_4 1_555 1_555
C56_4 H32_4 1_555 1_555
C58_4 H34_4 1_555 1_555
C59_4 H35_4 1_555 1_555
C61_4 H37_4 1_555 1_555
C65_4 H41_4 1_555 1_555
C66_4 C55_4 1_555 1_555
C67_4 C56_4 1_555 1_555
C69_4 C58_4 1_555 1_555
C70_4 C59_4 1_555 1_555
C72_4 C61_4 1_555 1_555
C73_4 C62_4 1_555 1_555
C76_4 C65_4 1_555 1_555
H42_4 C66_4 1_555 1_555
H43_4 C67_4 1_555 1_555
H45_4 C69_4 1_555 1_555
H46_4 C70_4 1_555 1_555
H48_4 C72_4 1_555 1_555
H49_4 C73_4 1_555 1_555
H52_4 C76_4 1_555 1_555
C77_4 C66_4 1_555 1_555
C78_4 C67_4 1_555 1_555
C80_4 C69_4 1_555 1_555
C81_4 C70_4 1_555 1_555
C83_4 C72_4 1_555 1_555
C84_4 C73_4 1_555 1_555
C87_4 C76_4 1_555 1_555
H53_4 C77_4 1_555 1_555
H54_4 C78_4 1_555 1_555
H56_4 C80_4 1_555 1_555
H57_4 C81_4 1_555 1_555
H59_4 C83_4 1_555 1_555
H60_4 C84_4 1_555 1_555
H63_4 C87_4 1_555 1_555
C88_4 C77_4 1_555 1_555
C89_4 C78_4 1_555 1_555
C91_4 C80_4 1_555 1_555
C92_4 C81_4 1_555 1_555
C94_4 C83_4 1_555 1_555
C95_4 C84_4 1_555 1_555
C98_4 C87_4 1_555 1_555
H64_4 C88_4 1_555 1_555
H65_4 C89_4 1_555 1_555
H67_4 C91_4 1_555 1_555
H68_4 C92_4 1_555 1_555
H70_4 C94_4 1_555 1_555
H71_4 C95_4 1_555 1_555
H74_4 C98_4 1_555 1_555
C99_4 C44_4 1_555 1_555
C100_4 C45_4 1_555 1_555
C102_4 C47_4 1_555 1_555
C103_4 C48_4 1_555 1_555
C104_4 C49_4 1_555 1_555
C105_4 C50_4 1_555 1_555
C106_4 C51_4 1_555 1_555
C109_4 C54_4 1_555 1_555
H75_4 C99_4 1_555 1_555
H76_4 C100_4 1_555 1_555
H78_4 C102_4 1_555 1_555
H79_4 C103_4 1_555 1_555
H80_4 C104_4 1_555 1_555
H81_4 C105_4 1_555 1_555
H82_4 C106_4 1_555 1_555
H85_4 C109_4 1_555 1_555
C110_4 H87_4 1_555 1_555
C111_4 H89_4 1_555 1_555
C114_4 H95_4 1_555 1_555
H88_4 C110_4 1_555 1_555
H90_4 C111_4 1_555 1_555
H96_4 C114_4 1_555 1_555
N6_4 C12_4 1_555 1_555
N7_4 C13_4 1_555 1_555
N8_4 C14_4 1_555 1_555
N9_4 C15_4 1_555 1_555
N10_4 C16_4 1_555 1_555
N14_4 C20_4 1_555 1_555
N15_4 C21_4 1_555 1_555
N17_4 Zn1_6 1_555 1_555
N18_4 C24_4 1_555 1_555
N19_4 Zn1_6 1_555 1_555
N30_2 C26_4 1_555 1_555
N21_4 Zn1_6 1_555 1_555
N25_4 Zn5_2 1_555 1_555
N26_4 C32_4 1_555 1_555
N28_4 Zn4_4 1_555 1_555
N31_4 C33_4 1_555 1_555
N32_4 C34_4 1_555 1_555
N33_4 C35_4 1_555 1_555
N34_4 C36_4 1_555 1_555
N35_4 C37_4 1_555 1_555
N36_4 C38_4 1_555 1_555
N37_4 C39_4 1_555 1_555
N40_4 C42_4 1_555 1_555
N41_4 C43_4 1_555 1_555
N42_4 C44_4 1_555 1_555
N43_4 C45_4 1_555 1_555
N45_4 C47_4 1_555 1_555
N46_4 C48_4 1_555 1_555
N47_4 C49_4 1_555 1_555
N48_4 C50_4 1_555 1_555
N52_4 C54_4 1_555 1_555
C3_4 N2_4 1_555 1_555
C10_4 N1_4 1_555 1_555
N3_4 N4_4 1_555 1_555
C23_4 N17_4 1_555 1_555
C25_4 N19_4 1_555 1_555
C27_4 N21_4 1_555 1_555
C31_4 N25_4 1_555 1_555
C33_4 N16_4 1_555 1_555
C34_4 N17_4 1_555 1_555
C35_4 N18_4 1_555 1_555
C36_4 N19_4 1_555 1_555
C37_4 N30_2 1_555 1_555
C38_4 N21_4 1_555 1_555
C39_4 N27 1_555 1_555
C42_4 N25_4 1_555 1_555
C43_4 N26_4 1_555 1_555
C88_4 C99_4 1_555 1_555
C89_4 C100_4 1_555 1_555
C91_4 C102_4 1_555 1_555
C92_4 C103_4 1_555 1_555
C94_4 C105_4 1_555 1_555
C95_4 C106_4 1_555 1_555
C98_4 C109_4 1_555 1_555
C110_4 N6_4 1_555 1_555
C110_4 N7_4 1_555 1_555
C111_4 N8_4 1_555 1_555
C111_4 N9_4 1_555 1_555
C112_4 N10_4 1_555 1_555
C114_4 N14_4 1_555 1_555
C114_4 N15_4 1_555 1_555
N31_4 N42_4 1_555 1_555
N32_4 N43_4 1_555 1_555
N33_4 N44_4 1_555 1_555
N34_4 N45_4 1_555 1_555
N35_4 N46_4 1_555 1_555
N36_4 N47_4 1_555 1_555
N37_4 N48_4 1_555 1_555
N40_4 N51_4 1_555 1_555
N41_4 N52_4 1_555 1_555
C21_5 H19_5 1_555 1_555
C32_5 C21_5 1_555 1_555
H30_5 C32_5 1_555 1_555
C73_5 C62_5 1_555 1_555
H49_5 C73_5 1_555 1_555
C84_5 C73_5 1_555 1_555
H60_5 C84_5 1_555 1_555
C95_5 C84_5 1_555 1_555
N15_5 C21_5 1_555 1_555
Zn6 N2_5 1_555 1_555
C1_5 H1_5 1_555 1_555
C2_5 C1_5 1_555 1_555
H2_5 C2_5 1_555 1_555
C3_5 N1_5 1_555 1_555
N1_5 C1_5 1_555 1_555
N2_5 C2_5 1_555 1_555
N3_5 C3_5 1_555 1_555
Zn2_4 N16_5 1_555 1_555
Zn7_5 N26_5 1_555 1_555
C20_5 H18_5 1_555 1_555
C31_5 C20_5 1_555 1_555
H29_5 C31_5 1_555 1_555
C42_5 N14_5 1_555 1_555
C44_5 C55_5 1_555 1_555
C54_5 C65_5 1_555 1_555
C55_5 H31_5 1_555 1_555
C65_5 H41_5 1_555 1_555
C66_5 C55_5 1_555 1_555
C76_5 C65_5 1_555 1_555
H42_5 C66_5 1_555 1_555
H52_5 C76_5 1_555 1_555
C77_5 C66_5 1_555 1_555
C87_5 C76_5 1_555 1_555
H53_5 C77_5 1_555 1_555
H63_5 C87_5 1_555 1_555
C88_5 C77_5 1_555 1_555
C98_5 C87_5 1_555 1_555
H64_5 C88_5 1_555 1_555
H74_5 C98_5 1_555 1_555
C99_5 C44_5 1_555 1_555
C104_5 C49_5 1_555 1_555
C106_5 C51_5 1_555 1_555
C109_5 C54_5 1_555 1_555
H75_5 C99_5 1_555 1_555
H80_5 C104_5 1_555 1_555
H82_5 C106_5 1_555 1_555
H85_5 C109_5 1_555 1_555
N14_5 C20_5 1_555 1_555
N25_5 Zn2_4 1_555 1_555
N31_5 C33_5 1_555 1_555
N40_5 C42_5 1_555 1_555
N41_5 C43_5 1_555 1_555
N42_5 C44_5 1_555 1_555
N52_5 C54_5 1_555 1_555
C3_5 N2_5 1_555 1_555
C10_5 N1_5 1_555 1_555
N3_5 N4_5 1_555 1_555
C31_5 N25_5 1_555 1_555
C33_5 N16_5 1_555 1_555
C42_5 N25_5 1_555 1_555
C43_5 N26_5 1_555 1_555
C88_5 C99_5 1_555 1_555
C98_5 C109_5 1_555 1_555
C114_5 N14_5 1_555 1_555
N31_5 N42_5 1_555 1_555
N40_5 N51_5 1_555 1_555
N41_5 N52_5 1_555 1_555
C9_5 C4_5 1_555 1_555
H7_5 C9_5 1_555 1_555
Zn5_4 N22_3 1_555 1_555
C16_5 H14_5 1_555 1_555
C27_5 C16_5 1_555 1_555
H25_5 C27_5 1_555 1_555
C38_5 N10_5 1_555 1_555
C50_5 C61_5 1_555 1_555
C61_5 H37_5 1_555 1_555
C72_5 C61_5 1_555 1_555
H48_5 C72_5 1_555 1_555
C83_5 C72_5 1_555 1_555
H59_5 C83_5 1_555 1_555
C94_5 C83_5 1_555 1_555
H70_5 C94_5 1_555 1_555
C105_5 C50_5 1_555 1_555
H81_5 C105_5 1_555 1_555
N10_5 C16_5 1_555 1_555
N21_5 Zn6_2 1_555 1_555
N36_5 C38_5 1_555 1_555
N37_5 C39_5 1_555 1_555
N48_5 C50_5 1_555 1_555
C27_5 N21_5 1_555 1_555
C38_5 N21_5 1_555 1_555
C39_5 N22_3 1_555 1_555
C94_5 C105_5 1_555 1_555
C112_5 N10_5 1_555 1_555
N36_5 N47_5 1_555 1_555
N37_5 N48_5 1_555 1_555
C19_5 H17_5 1_555 1_555
C30_5 C19_5 1_555 1_555
H28_5 C30_5 1_555 1_555
C75_5 C64_5 1_555 1_555
H51_5 C75_5 1_555 1_555
C86_5 C75_5 1_555 1_555
H62_5 C86_5 1_555 1_555
C97_5 C86_5 1_555 1_555
N13_5 C19_5 1_555 1_555
Zn6_5 N24_5 1_555 1_555
C11_5 H9_5 1_555 1_555
C18_5 H16_5 1_555 1_555
C22_5 C11_5 1_555 1_555
C29_5 C18_5 1_555 1_555
H20_5 C22_5 1_555 1_555
H27_5 C29_5 1_555 1_555
C40_5 N12_5 1_555 1_555
C52_5 C63_5 1_555 1_555
C63_5 H39_5 1_555 1_555
C71_5 C60_5 1_555 1_555
C74_5 C63_5 1_555 1_555
H47_5 C71_5 1_555 1_555
H50_5 C74_5 1_555 1_555
C82_5 C71_5 1_555 1_555
C85_5 C74_5 1_555 1_555
H58_5 C82_5 1_555 1_555
H61_5 C85_5 1_555 1_555
C93_5 C82_5 1_555 1_555
C96_5 C85_5 1_555 1_555
H72_5 C96_5 1_555 1_555
C107_5 C52_5 1_555 1_555
C108_5 C53_5 1_555 1_555
H83_5 C107_5 1_555 1_555
H84_5 C108_5 1_555 1_555
N12_5 C18_5 1_555 1_555
N23_5 Zn2_5 1_555 1_555
N27_3 Zn2_5 1_555 1_555
N38_5 C40_5 1_555 1_555
N39_5 C41_5 1_555 1_555
N50_5 C52_5 1_555 1_555
C11_5 N5_5 1_555 1_555
C29_5 N23_5 1_555 1_555
C40_5 N23_5 1_555 1_555
C41_5 N24_5 1_555 1_555
C96_5 C107_5 1_555 1_555
C113_5 N12_5 1_555 1_555
N38_5 N49_5 1_555 1_555
N39_5 N50_5 1_555 1_555
C6_5 C5_5 1_555 1_555
H4_5 C6_5 1_555 1_555
C7_5 C6_5 1_555 1_555
H5_5 C7_5 1_555 1_555
C8_5 C7_5 1_555 1_555
C17_5 H15_5 1_555 1_555
C28_5 C17_5 1_555 1_555
H26_5 C28_5 1_555 1_555
N11_5 C17_5 1_555 1_555
Zn7_3 N2_6 1_555 1_555
C1_6 H1_6 1_555 1_555
C2_6 C1_6 1_555 1_555
H2_6 C2_6 1_555 1_555
C3_6 N1_6 1_555 1_555
C4_6 C5_6 1_555 1_555
C5_6 H3_6 1_555 1_555
C6_6 C5_6 1_555 1_555
H4_6 C6_6 1_555 1_555
C7_6 C6_6 1_555 1_555
H5_6 C7_6 1_555 1_555
C8_6 C7_6 1_555 1_555
H6_6 C8_6 1_555 1_555
C9_6 C4_6 1_555 1_555
H7_6 C9_6 1_555 1_555
C10_6 H8_6 1_555 1_555
N1_6 C1_6 1_555 1_555
N2_6 C2_6 1_555 1_555
N3_6 C3_6 1_555 1_555
N4_6 C4_6 1_555 1_555
Zn2_6 N16_6 1_555 1_555
Zn5_6 N22_4 1_555 1_555
Zn7_4 N24_6 1_555 1_555
Zn6_4 N26_6 1_555 1_555
C11_6 H9_6 1_555 1_555
C16_6 H14_6 1_555 1_555
C17_6 H15_6 1_555 1_555
C18_6 H16_6 1_555 1_555
C20_6 H18_6 1_555 1_555
C22_6 C11_6 1_555 1_555
C27_6 C16_6 1_555 1_555
C28_6 C17_6 1_555 1_555
C29_6 C18_6 1_555 1_555
C31_6 C20_6 1_555 1_555
H20_6 C22_6 1_555 1_555
H25_6 C27_6 1_555 1_555
H26_6 C28_6 1_555 1_555
H27_6 C29_6 1_555 1_555
H29_6 C31_6 1_555 1_555
C33_6 N5_6 1_555 1_555
C38_6 N10_6 1_555 1_555
C39_6 N11_6 1_555 1_555
C40_6 N12_6 1_555 1_555
C42_6 N14_6 1_555 1_555
C44_6 C55_6 1_555 1_555
C49_6 C60_6 1_555 1_555
C50_6 C61_6 1_555 1_555
C52_6 C63_6 1_555 1_555
C54_6 C65_6 1_555 1_555
C55_6 H31_6 1_555 1_555
C60_6 H36_6 1_555 1_555
C61_6 H37_6 1_555 1_555
C63_6 H39_6 1_555 1_555
C65_6 H41_6 1_555 1_555
C66_6 C55_6 1_555 1_555
C71_6 C60_6 1_555 1_555
C72_6 C61_6 1_555 1_555
C74_6 C63_6 1_555 1_555
C76_6 C65_6 1_555 1_555
H42_6 C66_6 1_555 1_555
H47_6 C71_6 1_555 1_555
H48_6 C72_6 1_555 1_555
H50_6 C74_6 1_555 1_555
H52_6 C76_6 1_555 1_555
C77_6 C66_6 1_555 1_555
C82_6 C71_6 1_555 1_555
C83_6 C72_6 1_555 1_555
C85_6 C74_6 1_555 1_555
C87_6 C76_6 1_555 1_555
H53_6 C77_6 1_555 1_555
H58_6 C82_6 1_555 1_555
H59_6 C83_6 1_555 1_555
H61_6 C85_6 1_555 1_555
H63_6 C87_6 1_555 1_555
C88_6 C77_6 1_555 1_555
C93_6 C82_6 1_555 1_555
C94_6 C83_6 1_555 1_555
C96_6 C85_6 1_555 1_555
C98_6 C87_6 1_555 1_555
H64_6 C88_6 1_555 1_555
H69_6 C93_6 1_555 1_555
H70_6 C94_6 1_555 1_555
H72_6 C96_6 1_555 1_555
H74_6 C98_6 1_555 1_555
C99_6 C44_6 1_555 1_555
C104_6 C49_6 1_555 1_555
C105_6 C50_6 1_555 1_555
C106_6 C51_6 1_555 1_555
C107_6 C52_6 1_555 1_555
C108_6 C53_6 1_555 1_555
C109_6 C54_6 1_555 1_555
H75_6 C99_6 1_555 1_555
H80_6 C104_6 1_555 1_555
H81_6 C105_6 1_555 1_555
H82_6 C106_6 1_555 1_555
H83_6 C107_6 1_555 1_555
H84_6 C108_6 1_555 1_555
H85_6 C109_6 1_555 1_555
C112_6 H91_6 1_555 1_555
H86_6 C10_6 1_555 1_555
H92_6 C112_6 1_555 1_555
N5_6 C10_6 1_555 1_555
N10_6 C16_6 1_555 1_555
N11_6 C17_6 1_555 1_555
N12_6 C18_6 1_555 1_555
N14_6 C20_6 1_555 1_555
N16_6 C22_6 1_555 1_555
N21_6 Zn7_3 1_555 1_555
N22_4 C28_6 1_555 1_555
N23_6 Zn2_6 1_555 1_555
N25_6 Zn2_6 1_555 1_555
N27_4 Zn2_6 1_555 1_555
N31_6 C33_6 1_555 1_555
N36_6 C38_6 1_555 1_555
N37_6 C39_6 1_555 1_555
N38_6 C40_6 1_555 1_555
N39_6 C41_6 1_555 1_555
N40_6 C42_6 1_555 1_555
N41_6 C43_6 1_555 1_555
N42_6 C44_6 1_555 1_555
N47_6 C49_6 1_555 1_555
N48_6 C50_6 1_555 1_555
N49_6 C51_6 1_555 1_555
N50_6 C52_6 1_555 1_555
N51_6 C53_6 1_555 1_555
N52_6 C54_6 1_555 1_555
C3_6 N2_6 1_555 1_555
C8_6 C9_6 1_555 1_555
C10_6 N1_6 1_555 1_555
N3_6 N4_6 1_555 1_555
C11_6 N5_6 1_555 1_555
C27_6 N21_6 1_555 1_555
C29_6 N23_6 1_555 1_555
C31_6 N25_6 1_555 1_555
C33_6 N16_6 1_555 1_555
C38_6 N21_6 1_555 1_555
C39_6 N22_4 1_555 1_555
C40_6 N23_6 1_555 1_555
C41_6 N24_6 1_555 1_555
C42_6 N25_6 1_555 1_555
C43_6 N26_6 1_555 1_555
C88_6 C99_6 1_555 1_555
C93_6 C104_6 1_555 1_555
C94_6 C105_6 1_555 1_555
C96_6 C107_6 1_555 1_555
C98_6 C109_6 1_555 1_555
C112_6 N10_6 1_555 1_555
C112_6 N11_6 1_555 1_555
C113_6 N12_6 1_555 1_555
C114_6 N14_6 1_555 1_555
N31_6 N42_6 1_555 1_555
N36_6 N47_6 1_555 1_555
N37_6 N48_6 1_555 1_555
N38_6 N49_6 1_555 1_555
N39_6 N50_6 1_555 1_555
N40_6 N51_6 1_555 1_555
N41_6 N52_6 1_555 1_555
C19_6 H17_6 1_555 1_555
C21_6 H19_6 1_555 1_555
C30_6 C19_6 1_555 1_555
C32_6 C21_6 1_555 1_555
H28_6 C30_6 1_555 1_555
H30_6 C32_6 1_555 1_555
C62_6 H38_6 1_555 1_555
C64_6 H40_6 1_555 1_555
C73_6 C62_6 1_555 1_555
C75_6 C64_6 1_555 1_555
H49_6 C73_6 1_555 1_555
H51_6 C75_6 1_555 1_555
C84_6 C73_6 1_555 1_555
C86_6 C75_6 1_555 1_555
H60_6 C84_6 1_555 1_555
H62_6 C86_6 1_555 1_555
C95_6 C84_6 1_555 1_555
C97_6 C86_6 1_555 1_555
N13_6 C19_6 1_555 1_555
N15_6 C21_6 1_555 1_555
C4_7 C5_7 1_555 1_555
C6_7 C5_7 1_555 1_555
H4_7 C6_7 1_555 1_555
C7_7 C6_7 1_555 1_555
H5_7 C7_7 1_555 1_555
C8_7 C7_7 1_555 1_555
H6_7 C8_7 1_555 1_555
C9_7 C4_7 1_555 1_555
H7_7 C9_7 1_555 1_555
C16_7 H14_7 1_555 1_555
C17_7 H15_7 1_555 1_555
C27_7 C16_7 1_555 1_555
C28_7 C17_7 1_555 1_555
H25_7 C27_7 1_555 1_555
H26_7 C28_7 1_555 1_555
C38_7 N10_7 1_555 1_555
C39_7 N11_7 1_555 1_555
C50_7 C61_7 1_555 1_555
C61_7 H37_7 1_555 1_555
C72_7 C61_7 1_555 1_555
H48_7 C72_7 1_555 1_555
C83_7 C72_7 1_555 1_555
H59_7 C83_7 1_555 1_555
C94_7 C83_7 1_555 1_555
H70_7 C94_7 1_555 1_555
C105_7 C50_7 1_555 1_555
H81_7 C105_7 1_555 1_555
C112_7 H91_7 1_555 1_555
H92_7 C112_7 1_555 1_555
N10_7 C16_7 1_555 1_555
N11_7 C17_7 1_555 1_555
N21_7 Zn7 1_555 1_555
N27_4 C28_7 1_555 1_555
N36_7 C38_7 1_555 1_555
N37_7 C39_7 1_555 1_555
N48_7 C50_7 1_555 1_555
C8_7 C9_7 1_555 1_555
C27_7 N21_7 1_555 1_555
C38_7 N21_7 1_555 1_555
C39_7 N27_4 1_555 1_555
C94_7 C105_7 1_555 1_555
C112_7 N10_7 1_555 1_555
C112_7 N11_7 1_555 1_555
N36_7 N47_7 1_555 1_555
N37_7 N48_7 1_555 1_555
Zn7_2 N2_7 1_555 1_555
C1_7 H1_7 1_555 1_555
C2_7 C1_7 1_555 1_555
H2_7 C2_7 1_555 1_555
C3_7 N1_7 1_555 1_555
C10_7 H8_7 1_555 1_555
N1_7 C1_7 1_555 1_555
N2_7 C2_7 1_555 1_555
N3_7 C3_7 1_555 1_555
Zn5_6 N16_7 1_555 1_555
Zn6_6 N24_7 1_555 1_555
Zn7_6 N26_7 1_555 1_555
C11_7 H9_7 1_555 1_555
C18_7 H16_7 1_555 1_555
C19_7 H17_7 1_555 1_555
C20_7 H18_7 1_555 1_555
C21_7 H19_7 1_555 1_555
C22_7 C11_7 1_555 1_555
C29_7 C18_7 1_555 1_555
C30_7 C19_7 1_555 1_555
C31_7 C20_7 1_555 1_555
C32_7 C21_7 1_555 1_555
H20_7 C22_7 1_555 1_555
H27_7 C29_7 1_555 1_555
H28_7 C30_7 1_555 1_555
H29_7 C31_7 1_555 1_555
H30_7 C32_7 1_555 1_555
C33_7 N5_7 1_555 1_555
C40_7 N12_7 1_555 1_555
C41_7 N13_7 1_555 1_555
C42_7 N14_7 1_555 1_555
C43_7 N15_7 1_555 1_555
C44_7 C55_7 1_555 1_555
C49_7 C60_7 1_555 1_555
C51_7 C62_7 1_555 1_555
C52_7 C63_7 1_555 1_555
C53_7 C64_7 1_555 1_555
C54_7 C65_7 1_555 1_555
C55_7 H31_7 1_555 1_555
C62_7 H38_7 1_555 1_555
C63_7 H39_7 1_555 1_555
C64_7 H40_7 1_555 1_555
C65_7 H41_7 1_555 1_555
C66_7 C55_7 1_555 1_555
C71_7 C60_7 1_555 1_555
C73_7 C62_7 1_555 1_555
C74_7 C63_7 1_555 1_555
C75_7 C64_7 1_555 1_555
C76_7 C65_7 1_555 1_555
H42_7 C66_7 1_555 1_555
H47_7 C71_7 1_555 1_555
H49_7 C73_7 1_555 1_555
H50_7 C74_7 1_555 1_555
H51_7 C75_7 1_555 1_555
H52_7 C76_7 1_555 1_555
C77_7 C66_7 1_555 1_555
C82_7 C71_7 1_555 1_555
C84_7 C73_7 1_555 1_555
C85_7 C74_7 1_555 1_555
C86_7 C75_7 1_555 1_555
C87_7 C76_7 1_555 1_555
H53_7 C77_7 1_555 1_555
H58_7 C82_7 1_555 1_555
H60_7 C84_7 1_555 1_555
H61_7 C85_7 1_555 1_555
H62_7 C86_7 1_555 1_555
H63_7 C87_7 1_555 1_555
C88_7 C77_7 1_555 1_555
C93_7 C82_7 1_555 1_555
C95_7 C84_7 1_555 1_555
C96_7 C85_7 1_555 1_555
C97_7 C86_7 1_555 1_555
C98_7 C87_7 1_555 1_555
H64_7 C88_7 1_555 1_555
H69_7 C93_7 1_555 1_555
H71_7 C95_7 1_555 1_555
H72_7 C96_7 1_555 1_555
H73_7 C97_7 1_555 1_555
H74_7 C98_7 1_555 1_555
C99_7 C44_7 1_555 1_555
C104_7 C49_7 1_555 1_555
C106_7 C51_7 1_555 1_555
C107_7 C52_7 1_555 1_555
C108_7 C53_7 1_555 1_555
C109_7 C54_7 1_555 1_555
H75_7 C99_7 1_555 1_555
H80_7 C104_7 1_555 1_555
H82_7 C106_7 1_555 1_555
H83_7 C107_7 1_555 1_555
H84_7 C108_7 1_555 1_555
H85_7 C109_7 1_555 1_555
C113_7 H93_7 1_555 1_555
C114_7 H95_7 1_555 1_555
H86_7 C10_7 1_555 1_555
H94_7 C113_7 1_555 1_555
H96_7 C114_7 1_555 1_555
N5_7 C10_7 1_555 1_555
N12_7 C18_7 1_555 1_555
N13_7 C19_7 1_555 1_555
N14_7 C20_7 1_555 1_555
N15_7 C21_7 1_555 1_555
N16_7 C22_7 1_555 1_555
N23_7 Zn5_6 1_555 1_555
N24_7 C30_7 1_555 1_555
N25_7 Zn5_6 1_555 1_555
N26_7 C32_7 1_555 1_555
N31_7 C33_7 1_555 1_555
N38_7 C40_7 1_555 1_555
N39_7 C41_7 1_555 1_555
N40_7 C42_7 1_555 1_555
N41_7 C43_7 1_555 1_555
N42_7 C44_7 1_555 1_555
N49_7 C51_7 1_555 1_555
N50_7 C52_7 1_555 1_555
N51_7 C53_7 1_555 1_555
N52_7 C54_7 1_555 1_555
C3_7 N2_7 1_555 1_555
C10_7 N1_7 1_555 1_555
N3_7 N4_7 1_555 1_555
C11_7 N5_7 1_555 1_555
C29_7 N23_7 1_555 1_555
C31_7 N25_7 1_555 1_555
C33_7 N16_7 1_555 1_555
C40_7 N23_7 1_555 1_555
C41_7 N24_7 1_555 1_555
C42_7 N25_7 1_555 1_555
C43_7 N26_7 1_555 1_555
C88_7 C99_7 1_555 1_555
C93_7 C104_7 1_555 1_555
C95_7 C106_7 1_555 1_555
C96_7 C107_7 1_555 1_555
C97_7 C108_7 1_555 1_555
C98_7 C109_7 1_555 1_555
C113_7 N12_7 1_555 1_555
C113_7 N13_7 1_555 1_555
C114_7 N14_7 1_555 1_555
C114_7 N15_7 1_555 1_555
N31_7 N42_7 1_555 1_555
N38_7 N49_7 1_555 1_555
N39_7 N50_7 1_555 1_555
N40_7 N51_7 1_555 1_555
N41_7 N52_7 1_555 1_555
C5_8 H3_8 1_555 1_555
C6_8 C5_8 1_555 1_555
H4_8 C6_8 1_555 1_555
C7_8 C6_8 1_555 1_555
H5_8 C7_8 1_555 1_555
C8_8 C7_8 1_555 1_555
Zn7_6 N24_8 1_555 1_555
C11_8 H9_8 1_555 1_555
C17_8 H15_8 1_555 1_555
C18_8 H16_8 1_555 1_555
C19_8 H17_8 1_555 1_555
C22_8 C11_8 1_555 1_555
C28_8 C17_8 1_555 1_555
C29_8 C18_8 1_555 1_555
C30_8 C19_8 1_555 1_555
H20_8 C22_8 1_555 1_555
H26_8 C28_8 1_555 1_555
H27_8 C29_8 1_555 1_555
H28_8 C30_8 1_555 1_555
C40_8 N12_8 1_555 1_555
C41_8 N13_8 1_555 1_555
C52_8 C63_8 1_555 1_555
C53_8 C64_8 1_555 1_555
C60_8 H36_8 1_555 1_555
C63_8 H39_8 1_555 1_555
C71_8 C60_8 1_555 1_555
C74_8 C63_8 1_555 1_555
C75_8 C64_8 1_555 1_555
H47_8 C71_8 1_555 1_555
H50_8 C74_8 1_555 1_555
H51_8 C75_8 1_555 1_555
C82_8 C71_8 1_555 1_555
C85_8 C74_8 1_555 1_555
C86_8 C75_8 1_555 1_555
H58_8 C82_8 1_555 1_555
H61_8 C85_8 1_555 1_555
H62_8 C86_8 1_555 1_555
C93_8 C82_8 1_555 1_555
C96_8 C85_8 1_555 1_555
C97_8 C86_8 1_555 1_555
H72_8 C96_8 1_555 1_555
H73_8 C97_8 1_555 1_555
C107_8 C52_8 1_555 1_555
C108_8 C53_8 1_555 1_555
H83_8 C107_8 1_555 1_555
H84_8 C108_8 1_555 1_555
C113_8 H93_8 1_555 1_555
H94_8 C113_8 1_555 1_555
N11_8 C17_8 1_555 1_555
N12_8 C18_8 1_555 1_555
N13_8 C19_8 1_555 1_555
N23_8 Zn5_4 1_555 1_555
N24_8 C30_8 1_555 1_555
N38_8 C40_8 1_555 1_555
N39_8 C41_8 1_555 1_555
N50_8 C52_8 1_555 1_555
C11_8 N5_8 1_555 1_555
C29_8 N23_8 1_555 1_555
C40_8 N23_8 1_555 1_555
C41_8 N24_8 1_555 1_555
C96_8 C107_8 1_555 1_555
C97_8 C108_8 1_555 1_555
C113_8 N12_8 1_555 1_555
C113_8 N13_8 1_555 1_555
N38_8 N49_8 1_555 1_555
N39_8 N50_8 1_555 1_555
Zn6_3 N2_8 1_555 1_555
C1_8 H1_8 1_555 1_555
C2_8 C1_8 1_555 1_555
H2_8 C2_8 1_555 1_555
C3_8 N1_8 1_555 1_555
C9_8 C4_8 1_555 1_555
H7_8 C9_8 1_555 1_555
N1_8 C1_8 1_555 1_555
N2_8 C2_8 1_555 1_555
N3_8 C3_8 1_555 1_555
N4_8 C4_8 1_555 1_555
Zn5_5 N16_8 1_555 1_555
Zn6_6 N26_8 1_555 1_555
C16_8 H14_8 1_555 1_555
C20_8 H18_8 1_555 1_555
C21_8 H19_8 1_555 1_555
C27_8 C16_8 1_555 1_555
C31_8 C20_8 1_555 1_555
C32_8 C21_8 1_555 1_555
H25_8 C27_8 1_555 1_555
H29_8 C31_8 1_555 1_555
H30_8 C32_8 1_555 1_555
C38_8 N10_8 1_555 1_555
C42_8 N14_8 1_555 1_555
C43_8 N15_8 1_555 1_555
C44_8 C55_8 1_555 1_555
C50_8 C61_8 1_555 1_555
C51_8 C62_8 1_555 1_555
C54_8 C65_8 1_555 1_555
C55_8 H31_8 1_555 1_555
C61_8 H37_8 1_555 1_555
C65_8 H41_8 1_555 1_555
C66_8 C55_8 1_555 1_555
C72_8 C61_8 1_555 1_555
C73_8 C62_8 1_555 1_555
C76_8 C65_8 1_555 1_555
H42_8 C66_8 1_555 1_555
H48_8 C72_8 1_555 1_555
H49_8 C73_8 1_555 1_555
H52_8 C76_8 1_555 1_555
C77_8 C66_8 1_555 1_555
C83_8 C72_8 1_555 1_555
C84_8 C73_8 1_555 1_555
C87_8 C76_8 1_555 1_555
H53_8 C77_8 1_555 1_555
H59_8 C83_8 1_555 1_555
H60_8 C84_8 1_555 1_555
H63_8 C87_8 1_555 1_555
C88_8 C77_8 1_555 1_555
C94_8 C83_8 1_555 1_555
C95_8 C84_8 1_555 1_555
C98_8 C87_8 1_555 1_555
H64_8 C88_8 1_555 1_555
H70_8 C94_8 1_555 1_555
H71_8 C95_8 1_555 1_555
H74_8 C98_8 1_555 1_555
C99_8 C44_8 1_555 1_555
C104_8 C49_8 1_555 1_555
C105_8 C50_8 1_555 1_555
C106_8 C51_8 1_555 1_555
C109_8 C54_8 1_555 1_555
H75_8 C99_8 1_555 1_555
H80_8 C104_8 1_555 1_555
H81_8 C105_8 1_555 1_555
H82_8 C106_8 1_555 1_555
H85_8 C109_8 1_555 1_555
C114_8 H95_8 1_555 1_555
H96_8 C114_8 1_555 1_555
N10_8 C16_8 1_555 1_555
N14_8 C20_8 1_555 1_555
N15_8 C21_8 1_555 1_555
N21_8 Zn6_3 1_555 1_555
N25_8 Zn5_5 1_555 1_555
N26_8 C32_8 1_555 1_555
N31_8 C33_8 1_555 1_555
N36_8 C38_8 1_555 1_555
N37_8 C39_8 1_555 1_555
N40_8 C42_8 1_555 1_555
N41_8 C43_8 1_555 1_555
N42_8 C44_8 1_555 1_555
N47_8 C49_8 1_555 1_555
N48_8 C50_8 1_555 1_555
N52_8 C54_8 1_555 1_555
C3_8 N2_8 1_555 1_555
C10_8 N1_8 1_555 1_555
N3_8 N4_8 1_555 1_555
C27_8 N21_8 1_555 1_555
C31_8 N25_8 1_555 1_555
C33_8 N16_8 1_555 1_555
C38_8 N21_8 1_555 1_555
C39_8 N27_3 1_555 1_555
C42_8 N25_8 1_555 1_555
C43_8 N26_8 1_555 1_555
C88_8 C99_8 1_555 1_555
C94_8 C105_8 1_555 1_555
C95_8 C106_8 1_555 1_555
C98_8 C109_8 1_555 1_555
C112_8 N10_8 1_555 1_555
C114_8 N14_8 1_555 1_555
C114_8 N15_8 1_555 1_555
N31_8 N42_8 1_555 1_555
N36_8 N47_8 1_555 1_555
N37_8 N48_8 1_555 1_555
N40_8 N51_8 1_555 1_555
N41_8 N52_8 1_555 1_555
Zn6_4 N2_9 1_555 1_555
C1_9 H1_9 1_555 1_555
C2_9 C1_9 1_555 1_555
H2_9 C2_9 1_555 1_555
C3_9 N1_9 1_555 1_555
N1_9 C1_9 1_555 1_555
N2_9 C2_9 1_555 1_555
N3_9 C3_9 1_555 1_555
C44_9 C55_9 1_555 1_555
C55_9 H31_9 1_555 1_555
C66_9 C55_9 1_555 1_555
H42_9 C66_9 1_555 1_555
C77_9 C66_9 1_555 1_555
H53_9 C77_9 1_555 1_555
C88_9 C77_9 1_555 1_555
H64_9 C88_9 1_555 1_555
C99_9 C44_9 1_555 1_555
C104_9 C49_9 1_555 1_555
H75_9 C99_9 1_555 1_555
H80_9 C104_9 1_555 1_555
N31_9 C33_9 1_555 1_555
N42_9 C44_9 1_555 1_555
C3_9 N2_9 1_555 1_555
C10_9 N1_9 1_555 1_555
N3_9 N4_9 1_555 1_555
C33_9 N28_3 1_555 1_555
C88_9 C99_9 1_555 1_555
N31_9 N42_9 1_555 1_555
C9_9 C4_9 1_555 1_555
H7_9 C9_9 1_555 1_555
C16_9 H14_9 1_555 1_555
C27_9 C16_9 1_555 1_555
H25_9 C27_9 1_555 1_555
C38_9 N10_9 1_555 1_555
C50_9 C61_9 1_555 1_555
C61_9 H37_9 1_555 1_555
C72_9 C61_9 1_555 1_555
H48_9 C72_9 1_555 1_555
C83_9 C72_9 1_555 1_555
H59_9 C83_9 1_555 1_555
C94_9 C83_9 1_555 1_555
H70_9 C94_9 1_555 1_555
C105_9 C50_9 1_555 1_555
H81_9 C105_9 1_555 1_555
N10_9 C16_9 1_555 1_555
N21_9 Zn6_5 1_555 1_555
N36_9 C38_9 1_555 1_555
N37_9 C39_9 1_555 1_555
N48_9 C50_9 1_555 1_555
C27_9 N21_9 1_555 1_555
C38_9 N21_9 1_555 1_555
C39_9 N29_4 1_555 1_555
C94_9 C105_9 1_555 1_555
C112_9 N10_9 1_555 1_555
N36_9 N47_9 1_555 1_555
N37_9 N48_9 1_555 1_555
C11_9 H9_9 1_555 1_555
C22_9 C11_9 1_555 1_555
H20_9 C22_9 1_555 1_555
C71_9 C60_9 1_555 1_555
H47_9 C71_9 1_555 1_555
C82_9 C71_9 1_555 1_555
H58_9 C82_9 1_555 1_555
C93_9 C82_9 1_555 1_555
C11_9 N5_9 1_555 1_555
C6_9 C5_9 1_555 1_555
H4_9 C6_9 1_555 1_555
C7_9 C6_9 1_555 1_555
H5_9 C7_9 1_555 1_555
C8_9 C7_9 1_555 1_555
C17_9 H15_9 1_555 1_555
C28_9 C17_9 1_555 1_555
H26_9 C28_9 1_555 1_555
N11_9 C17_9 1_555 1_555
Zn7_6 N2_10 1_555 1_555
C1_10 H1_10 1_555 1_555
C2_10 C1_10 1_555 1_555
H2_10 C2_10 1_555 1_555
C3_10 N1_10 1_555 1_555
C4_10 C5_10 1_555 1_555
C5_10 H3_10 1_555 1_555
C6_10 C5_10 1_555 1_555
H4_10 C6_10 1_555 1_555
C7_10 C6_10 1_555 1_555
H5_10 C7_10 1_555 1_555
C8_10 C7_10 1_555 1_555
H6_10 C8_10 1_555 1_555
C9_10 C4_10 1_555 1_555
H7_10 C9_10 1_555 1_555
C10_10 H8_10 1_555 1_555
N1_10 C1_10 1_555 1_555
N2_10 C2_10 1_555 1_555
N3_10 C3_10 1_555 1_555
N4_10 C4_10 1_555 1_555
C11_10 H9_10 1_555 1_555
C16_10 H14_10 1_555 1_555
C17_10 H15_10 1_555 1_555
C22_10 C11_10 1_555 1_555
C27_10 C16_10 1_555 1_555
C28_10 C17_10 1_555 1_555
H20_10 C22_10 1_555 1_555
H25_10 C27_10 1_555 1_555
H26_10 C28_10 1_555 1_555
C33_10 N5_10 1_555 1_555
C38_10 N10_10 1_555 1_555
C39_10 N11_10 1_555 1_555
C44_10 C55_10 1_555 1_555
C49_10 C60_10 1_555 1_555
C50_10 C61_10 1_555 1_555
C55_10 H31_10 1_555 1_555
C60_10 H36_10 1_555 1_555
C61_10 H37_10 1_555 1_555
C66_10 C55_10 1_555 1_555
C71_10 C60_10 1_555 1_555
C72_10 C61_10 1_555 1_555
H42_10 C66_10 1_555 1_555
H47_10 C71_10 1_555 1_555
H48_10 C72_10 1_555 1_555
C77_10 C66_10 1_555 1_555
C82_10 C71_10 1_555 1_555
C83_10 C72_10 1_555 1_555
H53_10 C77_10 1_555 1_555
H58_10 C82_10 1_555 1_555
H59_10 C83_10 1_555 1_555
C88_10 C77_10 1_555 1_555
C93_10 C82_10 1_555 1_555
C94_10 C83_10 1_555 1_555
H64_10 C88_10 1_555 1_555
H69_10 C93_10 1_555 1_555
H70_10 C94_10 1_555 1_555
C99_10 C44_10 1_555 1_555
C104_10 C49_10 1_555 1_555
C105_10 C50_10 1_555 1_555
H75_10 C99_10 1_555 1_555
H80_10 C104_10 1_555 1_555
H81_10 C105_10 1_555 1_555
C112_10 H91_10 1_555 1_555
H86_10 C10_10 1_555 1_555
H92_10 C112_10 1_555 1_555
N5_10 C10_10 1_555 1_555
N10_10 C16_10 1_555 1_555
N11_10 C17_10 1_555 1_555
N28 C22_10 1_555 1_555
N21_10 Zn7_6 1_555 1_555
N29_2 C28_10 1_555 1_555
N31_10 C33_10 1_555 1_555
N36_10 C38_10 1_555 1_555
N37_10 C39_10 1_555 1_555
N42_10 C44_10 1_555 1_555
N47_10 C49_10 1_555 1_555
N48_10 C50_10 1_555 1_555
C3_10 N2_10 1_555 1_555
C8_10 C9_10 1_555 1_555
C10_10 N1_10 1_555 1_555
N3_10 N4_10 1_555 1_555
C11_10 N5_10 1_555 1_555
C27_10 N21_10 1_555 1_555
C33_10 N28 1_555 1_555
C38_10 N21_10 1_555 1_555
C39_10 N29_2 1_555 1_555
C88_10 C99_10 1_555 1_555
C93_10 C104_10 1_555 1_555
C94_10 C105_10 1_555 1_555
C112_10 N10_10 1_555 1_555
C112_10 N11_10 1_555 1_555
N31_10 N42_10 1_555 1_555
N36_10 N47_10 1_555 1_555
N37_10 N48_10 1_555 1_555
C4_11 C5_11 1_555 1_555
C6_11 C5_11 1_555 1_555
H4_11 C6_11 1_555 1_555
C7_11 C6_11 1_555 1_555
H5_11 C7_11 1_555 1_555
C8_11 C7_11 1_555 1_555
H6_11 C8_11 1_555 1_555
C9_11 C4_11 1_555 1_555
H7_11 C9_11 1_555 1_555
C16_11 H14_11 1_555 1_555
C17_11 H15_11 1_555 1_555
C27_11 C16_11 1_555 1_555
C28_11 C17_11 1_555 1_555
H25_11 C27_11 1_555 1_555
H26_11 C28_11 1_555 1_555
C38_11 N10_11 1_555 1_555
C39_11 N11_11 1_555 1_555
C50_11 C61_11 1_555 1_555
C61_11 H37_11 1_555 1_555
C72_11 C61_11 1_555 1_555
H48_11 C72_11 1_555 1_555
C83_11 C72_11 1_555 1_555
H59_11 C83_11 1_555 1_555
C94_11 C83_11 1_555 1_555
H70_11 C94_11 1_555 1_555
C105_11 C50_11 1_555 1_555
H81_11 C105_11 1_555 1_555
C112_11 H91_11 1_555 1_555
H92_11 C112_11 1_555 1_555
N10_11 C16_11 1_555 1_555
N11_11 C17_11 1_555 1_555
N21_11 Zn7_4 1_555 1_555
N29 C28_11 1_555 1_555
N36_11 C38_11 1_555 1_555
N37_11 C39_11 1_555 1_555
N48_11 C50_11 1_555 1_555
C8_11 C9_11 1_555 1_555
C27_11 N21_11 1_555 1_555
C38_11 N21_11 1_555 1_555
C39_11 N29 1_555 1_555
C94_11 C105_11 1_555 1_555
C112_11 N10_11 1_555 1_555
C112_11 N11_11 1_555 1_555
N36_11 N47_11 1_555 1_555
N37_11 N48_11 1_555 1_555
Zn7_5 N2_11 1_555 1_555
C1_11 H1_11 1_555 1_555
C2_11 C1_11 1_555 1_555
H2_11 C2_11 1_555 1_555
C3_11 N1_11 1_555 1_555
C10_11 H8_11 1_555 1_555
N1_11 C1_11 1_555 1_555
N2_11 C2_11 1_555 1_555
N3_11 C3_11 1_555 1_555
C11_11 H9_11 1_555 1_555
C22_11 C11_11 1_555 1_555
H20_11 C22_11 1_555 1_555
C33_11 N5_11 1_555 1_555
C44_11 C55_11 1_555 1_555
C49_11 C60_11 1_555 1_555
C55_11 H31_11 1_555 1_555
C66_11 C55_11 1_555 1_555
C71_11 C60_11 1_555 1_555
H42_11 C66_11 1_555 1_555
H47_11 C71_11 1_555 1_555
C77_11 C66_11 1_555 1_555
C82_11 C71_11 1_555 1_555
H53_11 C77_11 1_555 1_555
H58_11 C82_11 1_555 1_555
C88_11 C77_11 1_555 1_555
C93_11 C82_11 1_555 1_555
H64_11 C88_11 1_555 1_555
H69_11 C93_11 1_555 1_555
C99_11 C44_11 1_555 1_555
C104_11 C49_11 1_555 1_555
H75_11 C99_11 1_555 1_555
H80_11 C104_11 1_555 1_555
H86_11 C10_11 1_555 1_555
N5_11 C10_11 1_555 1_555
N28_2 C22_11 1_555 1_555
N31_11 C33_11 1_555 1_555
N42_11 C44_11 1_555 1_555
C3_11 N2_11 1_555 1_555
C10_11 N1_11 1_555 1_555
N3_11 N4_11 1_555 1_555
C11_11 N5_11 1_555 1_555
C33_11 N28_2 1_555 1_555
C88_11 C99_11 1_555 1_555
C93_11 C104_11 1_555 1_555
N31_11 N42_11 1_555 1_555
C5_12 H3_12 1_555 1_555
C6_12 C5_12 1_555 1_555
H4_12 C6_12 1_555 1_555
C7_12 C6_12 1_555 1_555
H5_12 C7_12 1_555 1_555
C8_12 C7_12 1_555 1_555
C11_12 H9_12 1_555 1_555
C17_12 H15_12 1_555 1_555
C22_12 C11_12 1_555 1_555
C28_12 C17_12 1_555 1_555
H20_12 C22_12 1_555 1_555
H26_12 C28_12 1_555 1_555
C60_12 H36_12 1_555 1_555
C71_12 C60_12 1_555 1_555
H47_12 C71_12 1_555 1_555
C82_12 C71_12 1_555 1_555
H58_12 C82_12 1_555 1_555
C93_12 C82_12 1_555 1_555
N11_12 C17_12 1_555 1_555
C11_12 N5_12 1_555 1_555
Zn6_6 N2_12 1_555 1_555
C1_12 H1_12 1_555 1_555
C2_12 C1_12 1_555 1_555
H2_12 C2_12 1_555 1_555
C3_12 N1_12 1_555 1_555
C9_12 C4_12 1_555 1_555
H7_12 C9_12 1_555 1_555
N1_12 C1_12 1_555 1_555
N2_12 C2_12 1_555 1_555
N3_12 C3_12 1_555 1_555
N4_12 C4_12 1_555 1_555
C16_12 H14_12 1_555 1_555
C27_12 C16_12 1_555 1_555
H25_12 C27_12 1_555 1_555
C38_12 N10_12 1_555 1_555
C44_12 C55_12 1_555 1_555
C50_12 C61_12 1_555 1_555
C55_12 H31_12 1_555 1_555
C61_12 H37_12 1_555 1_555
C66_12 C55_12 1_555 1_555
C72_12 C61_12 1_555 1_555
H42_12 C66_12 1_555 1_555
H48_12 C72_12 1_555 1_555
C77_12 C66_12 1_555 1_555
C83_12 C72_12 1_555 1_555
H53_12 C77_12 1_555 1_555
H59_12 C83_12 1_555 1_555
C88_12 C77_12 1_555 1_555
C94_12 C83_12 1_555 1_555
H64_12 C88_12 1_555 1_555
H70_12 C94_12 1_555 1_555
C99_12 C44_12 1_555 1_555
C104_12 C49_12 1_555 1_555
C105_12 C50_12 1_555 1_555
H75_12 C99_12 1_555 1_555
H80_12 C104_12 1_555 1_555
H81_12 C105_12 1_555 1_555
N10_12 C16_12 1_555 1_555
N21_12 Zn6_6 1_555 1_555
N31_12 C33_12 1_555 1_555
N36_12 C38_12 1_555 1_555
N37_12 C39_12 1_555 1_555
N42_12 C44_12 1_555 1_555
N47_12 C49_12 1_555 1_555
N48_12 C50_12 1_555 1_555
C3_12 N2_12 1_555 1_555
C10_12 N1_12 1_555 1_555
N3_12 N4_12 1_555 1_555
C27_12 N21_12 1_555 1_555
C33_12 N28_4 1_555 1_555
C38_12 N21_12 1_555 1_555
C39_12 N29_3 1_555 1_555
C88_12 C99_12 1_555 1_555
C94_12 C105_12 1_555 1_555
C112_12 N10_12 1_555 1_555
N31_12 N42_12 1_555 1_555
N36_12 N47_12 1_555 1_555
N37_12 N48_12 1_555 1_555
Cl1 O1 1_555 1_555
O2 Cl1 1_555 1_555
O3 Cl1 1_555 1_555
O4 Cl1 1_555 1_555
Cl1_2 O1_2 1_555 1_555
O2_2 Cl1_2 1_555 1_555
O3_2 Cl1_2 1_555 1_555
O4_2 Cl1_2 1_555 1_555
Cl1_3 O1_3 1_555 1_555
O2_3 Cl1_3 1_555 1_555
O3_3 Cl1_3 1_555 1_555
O4_3 Cl1_3 1_555 1_555
Cl1_4 O1_4 1_555 1_555
O2_4 Cl1_4 1_555 1_555
O3_4 Cl1_4 1_555 1_555
O4_4 Cl1_4 1_555 1_555
Cl1_5 O1_5 1_555 1_555
O2_5 Cl1_5 1_555 1_555
O3_5 Cl1_5 1_555 1_555
O4_5 Cl1_5 1_555 1_555
Cl1_6 O1_6 1_555 1_555
O2_6 Cl1_6 1_555 1_555
O3_6 Cl1_6 1_555 1_555
O4_6 Cl1_6 1_555 1_555
Cl1_7 O1_7 1_555 1_555
O2_7 Cl1_7 1_555 1_555
O3_7 Cl1_7 1_555 1_555
O4_7 Cl1_7 1_555 1_555
Cl1_8 O1_8 1_555 1_555
O2_8 Cl1_8 1_555 1_555
O3_8 Cl1_8 1_555 1_555
O4_8 Cl1_8 1_555 1_555
Cl1_9 O1_9 1_555 1_555
O2_9 Cl1_9 1_555 1_555
O3_9 Cl1_9 1_555 1_555
O4_9 Cl1_9 1_555 1_555
Cl1_10 O1_10 1_555 1_555
O2_10 Cl1_10 1_555 1_555
O3_10 Cl1_10 1_555 1_555
O4_10 Cl1_10 1_555 1_555
Cl1_11 O1_11 1_555 1_555
O2_11 Cl1_11 1_555 1_555
O3_11 Cl1_11 1_555 1_555
O4_11 Cl1_11 1_555 1_555
Cl1_12 O1_12 1_555 1_555
O2_12 Cl1_12 1_555 1_555
O3_12 Cl1_12 1_555 1_555
O4_12 Cl1_12 1_555 1_555
Cl1_13 O1_13 1_555 1_555
O2_13 Cl1_13 1_555 1_555
O3_13 Cl1_13 1_555 1_555
O4_13 Cl1_13 1_555 1_555
Cl1_14 O1_14 1_555 1_555
O2_14 Cl1_14 1_555 1_555
O3_14 Cl1_14 1_555 1_555
O4_14 Cl1_14 1_555 1_555
Cl1_15 O1_15 1_555 1_555
O2_15 Cl1_15 1_555 1_555
O3_15 Cl1_15 1_555 1_555
O4_15 Cl1_15 1_555 1_555
Cl1_16 O1_16 1_555 1_555
O2_16 Cl1_16 1_555 1_555
O3_16 Cl1_16 1_555 1_555
O4_16 Cl1_16 1_555 1_555
Cl1_17 O1_17 1_555 1_555
O2_17 Cl1_17 1_555 1_555
O3_17 Cl1_17 1_555 1_555
O4_17 Cl1_17 1_555 1_555
Cl1_18 O1_18 1_555 1_555
O2_18 Cl1_18 1_555 1_555
O3_18 Cl1_18 1_555 1_555
O4_18 Cl1_18 1_555 1_555
Cl1_19 O1_19 1_555 1_555
O2_19 Cl1_19 1_555 1_555
O3_19 Cl1_19 1_555 1_555
O4_19 Cl1_19 1_555 1_555
Cl1_20 O1_20 1_555 1_555
O2_20 Cl1_20 1_555 1_555
O3_20 Cl1_20 1_555 1_555
O4_20 Cl1_20 1_555 1_555
Cl1_21 O1_21 1_555 1_555
O2_21 Cl1_21 1_555 1_555
O3_21 Cl1_21 1_555 1_555
O4_21 Cl1_21 1_555 1_555
Cl1_22 O1_22 1_555 1_555
O2_22 Cl1_22 1_555 1_555
O3_22 Cl1_22 1_555 1_555
O4_22 Cl1_22 1_555 1_555
Cl1_23 O1_23 1_555 1_555
O2_23 Cl1_23 1_555 1_555
O3_23 Cl1_23 1_555 1_555
O4_23 Cl1_23 1_555 1_555
Cl1_24 O1_24 1_555 1_555
O2_24 Cl1_24 1_555 1_555
O3_24 Cl1_24 1_555 1_555
O4_24 Cl1_24 1_555 1_555
Cl1_25 O1_25 1_555 1_555
O2_25 Cl1_25 1_555 1_555
O3_25 Cl1_25 1_555 1_555
O4_25 Cl1_25 1_555 1_555
Cl1_26 O1_26 1_555 1_555
O2_26 Cl1_26 1_555 1_555
O3_26 Cl1_26 1_555 1_555
O4_26 Cl1_26 1_555 1_555
Cl1_27 O1_27 1_555 1_555
O2_27 Cl1_27 1_555 1_555
O3_27 Cl1_27 1_555 1_555
O4_27 Cl1_27 1_555 1_555
Cl1_28 O1_28 1_555 1_555
O2_28 Cl1_28 1_555 1_555
O3_28 Cl1_28 1_555 1_555
O4_28 Cl1_28 1_555 1_555
Cl1_29 O1_29 1_555 1_555
O2_29 Cl1_29 1_555 1_555
O3_29 Cl1_29 1_555 1_555
O4_29 Cl1_29 1_555 1_555
Cl1_30 O1_30 1_555 1_555
O2_30 Cl1_30 1_555 1_555
O3_30 Cl1_30 1_555 1_555
O4_30 Cl1_30 1_555 1_555
Cl1_31 O1_31 1_555 1_555
O2_31 Cl1_31 1_555 1_555
O3_31 Cl1_31 1_555 1_555
O4_31 Cl1_31 1_555 1_555
Cl1_32 O1_32 1_555 1_555
O2_32 Cl1_32 1_555 1_555
O3_32 Cl1_32 1_555 1_555
O4_32 Cl1_32 1_555 1_555
Cl1_33 O1_33 1_555 1_555
O2_33 Cl1_33 1_555 1_555
O3_33 Cl1_33 1_555 1_555
O4_33 Cl1_33 1_555 1_555
Cl1_34 O1_34 1_555 1_555
O2_34 Cl1_34 1_555 1_555
O3_34 Cl1_34 1_555 1_555
O4_34 Cl1_34 1_555 1_555
Cl1_35 O1_35 1_555 1_555
O2_35 Cl1_35 1_555 1_555
O3_35 Cl1_35 1_555 1_555
O4_35 Cl1_35 1_555 1_555
Cl1_36 O1_36 1_555 1_555
O2_36 Cl1_36 1_555 1_555
O3_36 Cl1_36 1_555 1_555
O4_36 Cl1_36 1_555 1_555
Cl1_37 O1_37 1_555 1_555
O2_37 Cl1_37 1_555 1_555
O3_37 Cl1_37 1_555 1_555
O4_37 Cl1_37 1_555 1_555
Cl1_38 O1_38 1_555 1_555
O2_38 Cl1_38 1_555 1_555
O3_38 Cl1_38 1_555 1_555
O4_38 Cl1_38 1_555 1_555
Cl1_39 O1_39 1_555 1_555
O2_39 Cl1_39 1_555 1_555
O3_39 Cl1_39 1_555 1_555
O4_39 Cl1_39 1_555 1_555
Cl1_40 O1_40 1_555 1_555
O2_40 Cl1_40 1_555 1_555
O3_40 Cl1_40 1_555 1_555
O4_40 Cl1_40 1_555 1_555
Cl1_41 O1_41 1_555 1_555
O2_41 Cl1_41 1_555 1_555
O3_41 Cl1_41 1_555 1_555
O4_41 Cl1_41 1_555 1_555
Cl1_42 O1_42 1_555 1_555
O2_42 Cl1_42 1_555 1_555
O3_42 Cl1_42 1_555 1_555
O4_42 Cl1_42 1_555 1_555
Cl1_43 O1_43 1_555 1_555
O2_43 Cl1_43 1_555 1_555
O3_43 Cl1_43 1_555 1_555
O4_43 Cl1_43 1_555 1_555
Cl1_44 O1_44 1_555 1_555
O2_44 Cl1_44 1_555 1_555
O3_44 Cl1_44 1_555 1_555
O4_44 Cl1_44 1_555 1_555
Cl1_45 O1_45 1_555 1_555
O2_45 Cl1_45 1_555 1_555
O3_45 Cl1_45 1_555 1_555
O4_45 Cl1_45 1_555 1_555
Cl1_46 O1_46 1_555 1_555
O2_46 Cl1_46 1_555 1_555
O3_46 Cl1_46 1_555 1_555
O4_46 Cl1_46 1_555 1_555
Cl1_47 O1_47 1_555 1_555
O2_47 Cl1_47 1_555 1_555
O3_47 Cl1_47 1_555 1_555
O4_47 Cl1_47 1_555 1_555
Cl1_48 O1_48 1_555 1_555
O2_48 Cl1_48 1_555 1_555
O3_48 Cl1_48 1_555 1_555
O4_48 Cl1_48 1_555 1_555

#END
