
###############################################################################
#
# This file contains modified crystal structure data generated from the
# MOF subset of the Cambridge Structural Database (CSD) v543 
# hosted by the Cambridge Crystallographic Data Centre (CCDC).
#
# This work is licensed under the Creative Commons
# Attribution-NonCommercial-ShareAlike 4.0 International License.
# To view a copy of this license, visit
# http://creativecommons.org/licenses/by-nc-sa/4.0/
# or send a letter to
# Creative Commons, PO Box 1866, Mountain View, CA 94042, USA.
#
# CIF created using the CSD Python API on 29 September 2022
# The structure has been converted into the P1 space group
# The structure has a 3D framework
# The original CSD entry WUXCEY is in the monoclinic crystal system
# The framework has been calculated to contain at least 10.0% void space
# The void calculation uses a probe of radius 1.32A, grid spacing 0.4
#
###############################################################################

data_WUXCEY
_chemical_formula_moiety         '(C36 H48 N46 O36 Zn12)n'
_symmetry_cell_setting           triclinic
_symmetry_space_group_name_H-M   'P 1'
_symmetry_Int_Tables_number      1
_space_group_name_Hall           'P 1'
loop_
_symmetry_equiv_pos_site_id
_symmetry_equiv_pos_as_xyz
1 x,y,z
_cell_length_a                   16.1397(14)
_cell_length_b                   8.7667(5)
_cell_length_c                   16.9326(15)
_cell_angle_alpha                90
_cell_angle_beta                 107.818(5)
_cell_angle_gamma                90
_cell_volume                     2280.91
loop_
_atom_site_label
_atom_site_type_symbol
_atom_site_fract_x
_atom_site_fract_y
_atom_site_fract_z
Zn1 Zn 0.47872(2) 0.36796(4) 0.20466(2)
O1 O 0.58766(12) 0.2709(2) 0.17877(11)
O3 O 0.08713(12) 0.0999(2) 0.07918(12)
H3 H 0.1080 0.1883 0.0936
H4 H 0.0336 0.0825 0.0724
O4 O 0.71188(12) 0.2839(2) 0.14698(11)
O5 O 0.38270(12) 0.4264(2) 0.25782(12)
O7 O 0.28467(12) 0.3580(2) 0.31942(11)
O8 O 0.17140(13) 0.5433(2) 0.03783(14)
O9 O 0.24195(12) 0.7547(2) 0.02070(11)
N1 N 0.69676(14) 0.5203(3) 0.39178(13)
N2 N 0.63512(14) 0.5225(3) 0.43044(13)
N3 N 0.56001(15) 0.4838(3) 0.37934(13)
N4 N 0.57106(14) 0.4541(3) 0.30550(13)
N5 N 0.39699(14) 0.2051(3) 0.13894(13)
N6 N 0.41350(15) 0.1131(3) 0.08170(13)
N7 N 0.34392(14) 0.0310(3) 0.04923(13)
N8 N 0.28128(14) 0.0665(3) 0.08364(13)
N9 N 0.41864(14) 0.7180(3) 0.02392(14)
N10 N 0.50126(15) 0.7497(3) 0.07057(14)
N11 N 0.46374(15) 0.5401(3) 0.11774(14)
N12 N 0.52848(15) 0.6436(3) 0.12658(15)
C1 C 0.65533(17) 0.4770(3) 0.31448(16)
C2 C 0.69677(17) 0.4584(3) 0.24744(16)
H7 H 0.7600 0.4433 0.2736
H8 H 0.6890 0.5545 0.2153
C3 C 0.66213(17) 0.3271(3) 0.18717(15)
C4 C 0.31589(17) 0.1750(3) 0.13928(16)
C5 C 0.26653(18) 0.2512(3) 0.18953(17)
H9 H 0.2370 0.1710 0.2121
H10 H 0.2206 0.3147 0.1517
C6 C 0.31740(17) 0.3512(3) 0.26124(16)
C7 C 0.39744(18) 0.5888(3) 0.05388(16)
C8 C 0.31098(17) 0.5133(3) 0.02011(17)
H12 H 0.3119 0.4157 0.0498
C9 C 0.23526(18) 0.6097(3) 0.02793(16)
Zn4 Zn 0.82190(2) 0.63206(4) 0.45182(2)
Zn5 Zn 0.67810(2) 0.13206(4) 0.04818(2)
Zn7 Zn 0.66739(2) 0.57442(4) 0.56050(2)
Zn8 Zn 0.33261(2) 0.42558(4) 0.43950(2)
Zn9 Zn 0.16739(2) 0.92558(4) 0.06050(2)
H1 H 0.4069 0.0870 0.9093
H11 H 0.3012 0.4893 0.9608
Zn6 Zn 0.32190(2) 0.86794(4) 0.95182(2)
O6 O 0.06091(12) 0.7672(2) 0.04209(12)
H5 H 0.0613 0.7022 0.0795
O11 O 0.21533(12) 0.8580(2) 0.18058(11)
O2 O 0.39526(12) 0.9943(2) 0.89563(11)
H2 H 0.4140 0.9538 0.8588
H6 H 0.0186 0.7696 0.9975
O10 O 0.28812(12) 0.7161(2) 0.85302(11)
N13 N 0.19676(14) 0.9797(3) 0.89178(13)
N14 N 0.13512(14) 0.9775(3) 0.93044(13)
O8_2 O 0.32860(13) 0.0433(2) 0.46217(14)
O9_2 O 0.25805(12) 0.2547(2) 0.47930(11)
N9_2 N 0.08136(14) 0.2180(3) 0.47608(14)
N11_2 N 0.03626(15) 0.0401(3) 0.38226(14)
C7_2 C 0.10256(18) 0.0888(3) 0.44612(16)
C8_2 C 0.18902(17) 0.0133(3) 0.47989(17)
C9_2 C 0.26474(18) 0.1097(3) 0.47207(16)
Zn6_2 Zn 0.17810(2) 0.36794(4) 0.54818(2)
Zn1_2 Zn 0.02128(2) 0.86796(4) 0.29534(2)
O2_2 O 0.10474(12) 0.4943(2) 0.60437(11)
H1_2 H 0.0931 0.5870 0.5907
H2_2 H 0.0860 0.4538 0.6412
O3_2 O 0.41287(12) 0.5999(2) 0.42082(12)
H3_2 H 0.3920 0.6883 0.4064
H4_2 H 0.4664 0.5825 0.4276
O5_2 O 0.11730(12) 0.9264(2) 0.24218(12)
O6_2 O 0.43909(12) 0.2672(2) 0.45791(12)
H5_2 H 0.4387 0.2022 0.4205
H6_2 H 0.4814 0.2696 0.5025
N5_2 N 0.10301(14) 0.7051(3) 0.36106(13)
N6_2 N 0.08650(15) 0.6131(3) 0.41830(13)
N7_2 N 0.15608(14) 0.5310(3) 0.45077(13)
N8_2 N 0.21872(14) 0.5665(3) 0.41636(13)
C4_2 C 0.18411(17) 0.6750(3) 0.36072(16)
C5_2 C 0.23347(18) 0.7512(3) 0.31047(17)
H9_2 H 0.2630 0.6710 0.2879
H10_2 H 0.2794 0.8147 0.3483
C6_2 C 0.18260(17) 0.8512(3) 0.23876(16)
H11_2 H 0.1988 0.9893 0.5392
H12_2 H 0.1881 0.9157 0.4502
O10_2 O 0.21188(12) 0.2161(2) 0.64698(11)
N13_2 N 0.30324(14) 0.4797(3) 0.60822(13)
N14_2 N 0.36488(14) 0.4775(3) 0.56956(13)
N1_2 N 0.80324(14) 0.0203(3) 0.10822(13)
N2_2 N 0.86488(14) 0.0225(3) 0.06956(13)
N10_2 N 0.99874(15) 0.2497(3) 0.42943(14)
N12_2 N 0.97152(15) 0.1436(3) 0.37342(15)
H8_2 H 0.8110 0.0545 0.2847
Zn7_2 Zn 0.83261(2) 0.07442(4) 0.93950(2)
O1_2 O 0.91234(12) 0.7709(2) 0.32123(11)
O4_2 O 0.78812(12) 0.7839(2) 0.35302(11)
N3_2 N 0.93999(15) 0.9838(3) 0.12066(13)
N4_2 N 0.92894(14) 0.9541(3) 0.19450(13)
C1_2 C 0.84467(17) 0.9770(3) 0.18552(16)
C2_2 C 0.80323(17) 0.9584(3) 0.25256(16)
H7_2 H 0.7400 0.9433 0.2264
C3_2 C 0.83787(17) 0.8271(3) 0.31283(15)
O2_3 O 0.60474(12) 0.0057(2) 0.10437(11)
H2_3 H 0.5860 0.0462 0.1412
H6_3 H 0.9814 0.2304 0.0025
O6_3 O 0.93909(12) 0.2328(2) 0.95791(12)
H5_3 H 0.9387 0.2978 0.9205
O11_2 O 0.78467(12) 0.1420(2) 0.81942(11)
O12 O 0.75805(12) 0.2453(2) 0.97930(11)
N15 N 0.58136(14) 0.2820(3) 0.97608(14)
H1_3 H 0.5931 0.9130 0.0907
H11_3 H 0.6988 0.5107 0.0392
Zn1_3 Zn 0.52128(2) 0.63204(4) 0.79534(2)
O1_3 O 0.41234(12) 0.7291(2) 0.82123(11)
O3_3 O 0.91287(12) 0.9001(2) 0.92082(12)
H3_3 H 0.8920 0.8117 0.9064
H4_3 H 0.9664 0.9175 0.9276
O5_3 O 0.61730(12) 0.5736(2) 0.74218(12)
O7_2 O 0.71533(12) 0.6420(2) 0.68058(11)
O8_3 O 0.82860(13) 0.4567(2) 0.96217(14)
N3_3 N 0.43999(15) 0.5162(3) 0.62066(13)
N4_3 N 0.42894(14) 0.5459(3) 0.69450(13)
N5_3 N 0.60301(14) 0.7949(3) 0.86106(13)
N6_3 N 0.58650(15) 0.8869(3) 0.91830(13)
N7_3 N 0.65608(14) 0.9690(3) 0.95077(13)
N8_3 N 0.71872(14) 0.9335(3) 0.91636(13)
N10_3 N 0.49874(15) 0.2503(3) 0.92943(14)
N11_3 N 0.53626(15) 0.4599(3) 0.88226(14)
N12_3 N 0.47152(15) 0.3564(3) 0.87342(15)
C1_3 C 0.34467(17) 0.5230(3) 0.68552(16)
C2_3 C 0.30323(17) 0.5416(3) 0.75256(16)
H7_3 H 0.2400 0.5567 0.7264
H8_3 H 0.3110 0.4455 0.7847
C3_3 C 0.33787(17) 0.6729(3) 0.81283(15)
C4_3 C 0.68411(17) 0.8250(3) 0.86072(16)
C5_3 C 0.73347(18) 0.7488(3) 0.81047(17)
H9_3 H 0.7630 0.8290 0.7879
H10_3 H 0.7794 0.6853 0.8483
C6_3 C 0.68260(17) 0.6488(3) 0.73876(16)
C7_3 C 0.60256(18) 0.4112(3) 0.94612(16)
C8_3 C 0.68902(17) 0.4867(3) 0.97989(17)
H12_3 H 0.6881 0.5843 0.9502
C9_3 C 0.76474(18) 0.3903(3) 0.97207(16)
O1_4 O 0.08766(12) 0.2291(2) 0.67877(11)
N3_4 N 0.06001(15) 0.0162(3) 0.87934(13)
N4_4 N 0.07106(14) 0.0459(3) 0.80550(13)
C1_4 C 0.15533(17) 0.0230(3) 0.81448(16)
C2_4 C 0.19677(17) 0.0416(3) 0.74744(16)
H7_4 H 0.2600 0.0567 0.7736
C3_4 C 0.16213(17) 0.1729(3) 0.68717(15)
N10_4 N 0.00126(15) 0.7503(3) 0.57057(14)
N12_4 N 0.02848(15) 0.8564(3) 0.62658(15)
H8_4 H 0.1890 0.9455 0.7153
Zn1_4 Zn 0.97872(2) 0.13204(4) 0.70466(2)
O2_4 O 0.89526(12) 0.5057(2) 0.39563(11)
H1_4 H 0.9069 0.4130 0.4093
H2_4 H 0.9140 0.5462 0.3588
O3_4 O 0.58713(12) 0.4001(2) 0.57918(12)
H3_4 H 0.6080 0.3117 0.5936
H4_4 H 0.5336 0.4175 0.5724
O5_4 O 0.88270(12) 0.0736(2) 0.75782(12)
O6_4 O 0.56091(12) 0.7328(2) 0.54209(12)
H5_4 H 0.5613 0.7978 0.5795
H6_4 H 0.5186 0.7304 0.4975
N5_4 N 0.89699(14) 0.2949(3) 0.63894(13)
N6_4 N 0.91350(15) 0.3869(3) 0.58170(13)
N7_4 N 0.84392(14) 0.4690(3) 0.54923(13)
N8_4 N 0.78128(14) 0.4335(3) 0.58364(13)
C4_4 C 0.81589(17) 0.3250(3) 0.63928(16)
C5_4 C 0.76653(18) 0.2488(3) 0.68953(17)
H9_4 H 0.7370 0.3290 0.7121
H10_4 H 0.7206 0.1853 0.6517
C6_4 C 0.81740(17) 0.1488(3) 0.76124(16)
H11_4 H 0.8012 0.0107 0.4608
H12_4 H 0.8119 0.0843 0.5498
O12_2 O 0.74195(12) 0.7453(2) 0.52070(11)
N15_2 N 0.91864(14) 0.7820(3) 0.52392(14)
O8_4 O 0.67140(13) 0.9567(2) 0.53783(14)
N11_4 N 0.96374(15) 0.9599(3) 0.61774(14)
C7_4 C 0.89744(18) 0.9112(3) 0.55388(16)
C8_4 C 0.81098(17) 0.9867(3) 0.52011(17)
C9_4 C 0.73526(18) 0.8903(3) 0.52793(16)
loop_
_geom_bond_atom_site_label_1
_geom_bond_atom_site_label_2
_geom_bond_site_symmetry_1
_geom_bond_site_symmetry_2
Zn1 O1 1_555 1_555
O1 C3 1_555 1_555
O3 H3 1_555 1_555
H4 O3 1_555 1_555
O4 C3 1_555 1_555
O5 Zn1 1_555 1_555
O7 C6 1_555 1_555
O8 C9 1_555 1_555
O9 C9 1_555 1_555
N1 N2 1_555 1_555
N2 N3 1_555 1_555
N3 N4 1_555 1_555
N4 Zn1 1_555 1_555
N5 Zn1 1_555 1_555
N6 N5 1_555 1_555
N9 N10 1_555 1_555
N10 N12 1_555 1_555
N11 Zn1 1_555 1_555
N12 N11 1_555 1_555
C1 N1 1_555 1_555
C2 C1 1_555 1_555
H7 C2 1_555 1_555
H8 C2 1_555 1_555
C3 C2 1_555 1_555
C4 N5 1_555 1_555
C5 C4 1_555 1_555
H9 C5 1_555 1_555
H10 C5 1_555 1_555
C6 O5 1_555 1_555
C7 N9 1_555 1_555
C8 C7 1_555 1_555
H12 C8 1_555 1_555
C9 C8 1_555 1_555
Zn4 N1 1_555 1_555
Zn5 O4 1_555 1_555
Zn7 N2 1_555 1_555
Zn8 O7 1_555 1_555
Zn9 O9 1_555 1_555
N4 C1 1_555 1_555
N6 N7 1_555 1_555
N7 N8 1_555 1_555
N8 C4 1_555 1_555
N11 C7 1_555 1_555
C5 C6 1_555 1_555
O6 Zn9 1_555 1_555
H5 O6 1_555 1_555
O11 Zn9 1_555 1_555
Zn6 O2 1_555 1_555
H2 O2 1_555 1_555
O10 Zn6 1_555 1_555
N13 Zn6 1_555 1_555
N13 N14 1_555 1_555
O8_2 C9_2 1_555 1_555
O9_2 C9_2 1_555 1_555
C7_2 N9_2 1_555 1_555
C8_2 C7_2 1_555 1_555
C9_2 C8_2 1_555 1_555
Zn6_2 O9_2 1_555 1_555
Zn8 O9_2 1_555 1_555
N9_2 Zn6_2 1_555 1_555
N11_2 C7_2 1_555 1_555
Zn6_2 O2_2 1_555 1_555
Zn8 O3_2 1_555 1_555
O2_2 H1_2 1_555 1_555
H2_2 O2_2 1_555 1_555
O3_2 H3_2 1_555 1_555
H4_2 O3_2 1_555 1_555
O5_2 Zn1_2 1_555 1_555
O6_2 Zn8 1_555 1_555
H5_2 O6_2 1_555 1_555
H6_2 O6_2 1_555 1_555
O11 C6_2 1_555 1_555
N5_2 Zn1_2 1_555 1_555
N6_2 N5_2 1_555 1_555
N7_2 Zn6_2 1_555 1_555
N8_2 Zn8 1_555 1_555
C4_2 N5_2 1_555 1_555
C5_2 C4_2 1_555 1_555
H9_2 C5_2 1_555 1_555
H10_2 C5_2 1_555 1_555
C6_2 O5_2 1_555 1_555
O10_2 Zn6_2 1_555 1_555
N13_2 Zn6_2 1_555 1_555
N14_2 Zn8 1_555 1_555
N6_2 N7_2 1_555 1_555
N7_2 N8_2 1_555 1_555
N8_2 C4_2 1_555 1_555
C5_2 C6_2 1_555 1_555
N13_2 N14_2 1_555 1_555
N1_2 N2_2 1_555 1_555
N10_2 N12_2 1_555 1_555
Zn5 N1_2 1_555 1_555
O1_2 C3_2 1_555 1_555
O4_2 C3_2 1_555 1_555
N3_2 N4_2 1_555 1_555
C2_2 C1_2 1_555 1_555
H7_2 C2_2 1_555 1_555
C3_2 C2_2 1_555 1_555
Zn4 O4_2 1_555 1_555
N4_2 C1_2 1_555 1_555
Zn5 O2_3 1_555 1_555
H2_3 O2_3 1_555 1_555
O6_3 Zn7_2 1_555 1_555
H5_3 O6_3 1_555 1_555
O11_2 Zn7_2 1_555 1_555
Zn7_2 O12 1_555 1_555
Zn1_3 O1_3 1_555 1_555
O1_3 C3_3 1_555 1_555
O3_3 H3_3 1_555 1_555
H4_3 O3_3 1_555 1_555
O10 C3_3 1_555 1_555
O5_3 Zn1_3 1_555 1_555
O7_2 C6_3 1_555 1_555
O8_3 C9_3 1_555 1_555
O12 C9_3 1_555 1_555
N14_2 N3_3 1_555 1_555
N3_3 N4_3 1_555 1_555
N4_3 Zn1_3 1_555 1_555
N5_3 Zn1_3 1_555 1_555
N6_3 N5_3 1_555 1_555
N15 N10_3 1_555 1_555
N10_3 N12_3 1_555 1_555
N11_3 Zn1_3 1_555 1_555
N12_3 N11_3 1_555 1_555
C1_3 N13_2 1_555 1_555
C2_3 C1_3 1_555 1_555
H7_3 C2_3 1_555 1_555
H8_3 C2_3 1_555 1_555
C3_3 C2_3 1_555 1_555
C4_3 N5_3 1_555 1_555
C5_3 C4_3 1_555 1_555
H9_3 C5_3 1_555 1_555
H10_3 C5_3 1_555 1_555
C6_3 O5_3 1_555 1_555
C7_3 N15 1_555 1_555
C8_3 C7_3 1_555 1_555
H12_3 C8_3 1_555 1_555
C9_3 C8_3 1_555 1_555
Zn7 O7_2 1_555 1_555
N4_3 C1_3 1_555 1_555
N6_3 N7_3 1_555 1_555
N7_3 N8_3 1_555 1_555
N8_3 C4_3 1_555 1_555
N11_3 C7_3 1_555 1_555
C5_3 C6_3 1_555 1_555
O1_4 C3_4 1_555 1_555
O10_2 C3_4 1_555 1_555
N3_4 N4_4 1_555 1_555
C2_4 C1_4 1_555 1_555
H7_4 C2_4 1_555 1_555
C3_4 C2_4 1_555 1_555
N4_4 C1_4 1_555 1_555
N10_4 N12_4 1_555 1_555
Zn4 O2_4 1_555 1_555
Zn7 O3_4 1_555 1_555
O2_4 H1_4 1_555 1_555
H2_4 O2_4 1_555 1_555
O3_4 H3_4 1_555 1_555
H4_4 O3_4 1_555 1_555
O5_4 Zn1_4 1_555 1_555
O6_4 Zn7 1_555 1_555
H5_4 O6_4 1_555 1_555
H6_4 O6_4 1_555 1_555
O11_2 C6_4 1_555 1_555
N5_4 Zn1_4 1_555 1_555
N6_4 N5_4 1_555 1_555
N7_4 Zn4 1_555 1_555
N8_4 Zn7 1_555 1_555
C4_4 N5_4 1_555 1_555
C5_4 C4_4 1_555 1_555
H9_4 C5_4 1_555 1_555
H10_4 C5_4 1_555 1_555
C6_4 O5_4 1_555 1_555
O12_2 Zn4 1_555 1_555
N15_2 Zn4 1_555 1_555
Zn7 O12_2 1_555 1_555
N6_4 N7_4 1_555 1_555
N7_4 N8_4 1_555 1_555
N8_4 C4_4 1_555 1_555
C5_4 C6_4 1_555 1_555
O8_4 C9_4 1_555 1_555
O12_2 C9_4 1_555 1_555
C7_4 N15_2 1_555 1_555
C8_4 C7_4 1_555 1_555
C9_4 C8_4 1_555 1_555
N11_4 C7_4 1_555 1_555

#END
