
###############################################################################
#
# This file contains modified crystal structure data generated from the
# MOF subset of the Cambridge Structural Database (CSD) v543 
# hosted by the Cambridge Crystallographic Data Centre (CCDC).
#
# This work is licensed under the Creative Commons
# Attribution-NonCommercial-ShareAlike 4.0 International License.
# To view a copy of this license, visit
# http://creativecommons.org/licenses/by-nc-sa/4.0/
# or send a letter to
# Creative Commons, PO Box 1866, Mountain View, CA 94042, USA.
#
# CIF created using the CSD Python API on 29 September 2022
# The structure has been converted into the P1 space group
# The structure has a 3D framework
# The original CSD entry WUXCAU is in the monoclinic crystal system
# The framework has been calculated to contain at least 10.0% void space
# The void calculation uses a probe of radius 1.32A, grid spacing 0.4
#
###############################################################################

data_WUXCAU
_chemical_formula_moiety         '(C36 H48 N46 O36 Zn12)n'
_symmetry_cell_setting           triclinic
_symmetry_space_group_name_H-M   'P 1'
_symmetry_Int_Tables_number      1
_space_group_name_Hall           'P 1'
loop_
_symmetry_equiv_pos_site_id
_symmetry_equiv_pos_as_xyz
1 x,y,z
_cell_length_a                   16.284(3)
_cell_length_b                   8.8620(18)
_cell_length_c                   16.829(3)
_cell_angle_alpha                90
_cell_angle_beta                 107.69(3)
_cell_angle_gamma                90
_cell_volume                     2313.74
loop_
_atom_site_label
_atom_site_type_symbol
_atom_site_fract_x
_atom_site_fract_y
_atom_site_fract_z
N10 N 0.13781(17) 0.0039(3) 0.43222(14)
N11 N 0.07397(17) 0.0690(3) 0.30663(15)
N12 N 0.06442(17) 0.0503(3) 0.38233(15)
C7 C 0.15582(19) 0.0339(3) 0.31285(17)
C8 C 0.1941(2) 0.0413(3) 0.24335(18)
H5 H 0.2562 0.0506 0.2668
C9 C 0.1609(2) 0.1722(3) 0.18177(17)
O5 O 0.21273(14) 0.2202(2) 0.14546(12)
O6 O 0.08593(14) 0.2213(2) 0.16932(13)
Zn6 Zn 0.18013(2) 0.37690(4) 0.048409(19)
N6 N 0.02753(18) 0.8523(3) 0.12262(16)
N9 N 0.19708(17) 0.9919(3) 0.39098(14)
H6 H 0.1824 0.9470 0.2127
Zn5 Zn 0.31987(2) 0.87690(4) 0.451591(19)
Zn7 Zn 0.16811(2) 0.94736(4) 0.559957(19)
Zn1 Zn 0.98122(2) 0.12439(4) 0.200368(19)
Zn3 Zn 0.66811(2) 0.55264(4) 0.059957(19)
N1 N 0.78184(17) 0.4173(3) 0.08391(15)
N2 N 0.84371(17) 0.4575(3) 0.04978(14)
N3 N 0.91354(18) 0.3807(3) 0.08220(15)
N4 N 0.89862(16) 0.2862(3) 0.13955(14)
C1 C 0.8179(2) 0.3103(3) 0.13943(17)
C2 C 0.7690(2) 0.2310(4) 0.18849(18)
H1 H 0.7271 0.1657 0.1507
H2 H 0.7371 0.3061 0.2089
C3 C 0.8203(2) 0.1358(3) 0.26276(18)
H4 H 0.8084 0.0613 0.0570
O1 O 0.88939(14) 0.0718(2) 0.26254(13)
O2 O 0.78510(14) 0.1226(2) 0.31883(13)
O7 O 0.58850(15) 0.3879(2) 0.08789(13)
H7 H 0.5374 0.4103 0.0868
H8 H 0.6073 0.2988 0.1003
O9 O 0.56077(14) 0.7099(3) 0.04133(13)
H11 H 0.5650 0.7993 0.0247
H12 H 0.5147 0.6818 0.0508
Zn8 Zn 0.83189(2) 0.05264(4) 0.440043(19)
N13 N 0.91482(17) 0.7692(3) 0.02637(15)
O10 O 0.71490(14) 0.6226(2) 0.18117(13)
O11 O 0.73930(14) 0.7272(2) 0.02154(12)
Zn2 Zn 0.81987(2) 0.62310(4) 0.951591(19)
O8 O 0.89508(14) 0.5060(2) 0.89530(12)
H9 H 0.9117 0.4171 0.9114
H10 H 0.9098 0.5462 0.8558
N14 N 0.69708(17) 0.5081(3) 0.89098(14)
N15 N 0.63781(17) 0.4961(3) 0.93222(14)
O12 O 0.78727(14) 0.7798(2) 0.85454(12)
N5 N 0.96243(17) 0.9505(3) 0.11707(15)
N7 N 0.99865(17) 0.7436(3) 0.06882(15)
C4 C 0.8946(2) 0.8974(3) 0.05718(18)
C5 C 0.8077(2) 0.9674(3) 0.02710(19)
C6 C 0.7352(2) 0.8680(3) 0.03797(18)
O4 O 0.67660(15) 0.9275(3) 0.05856(15)
H3 H 0.7953 0.9917 0.9684
Zn2_2 Zn 0.68013(2) 0.12310(4) 0.548409(19)
O8_2 O 0.60492(14) 0.0060(2) 0.60470(12)
H10_2 H 0.5902 0.0462 0.6442
O9_2 O 0.93923(14) 0.2099(3) 0.45867(13)
H11_2 H 0.9350 0.2993 0.4753
H12_2 H 0.9853 0.1818 0.4492
N13_2 N 0.58518(17) 0.2692(3) 0.47363(15)
N14_2 N 0.80292(17) 0.0081(3) 0.60902(14)
O11_2 O 0.76070(14) 0.2272(2) 0.47846(12)
O12_2 O 0.71273(14) 0.2798(2) 0.64546(12)
Zn1_2 Zn 0.51878(2) 0.62439(4) 0.299632(19)
N1_2 N 0.71816(17) 0.9173(3) 0.41609(15)
N2_2 N 0.65629(17) 0.9575(3) 0.45022(14)
N3_2 N 0.58646(18) 0.8807(3) 0.41780(15)
N4_2 N 0.60138(16) 0.7862(3) 0.36045(14)
N5_2 N 0.53757(17) 0.4505(3) 0.38293(15)
N6_2 N 0.47247(18) 0.3523(3) 0.37738(16)
N7_2 N 0.50135(17) 0.2436(3) 0.43118(15)
N9_2 N 0.30292(17) 0.4919(3) 0.10902(14)
N10_2 N 0.36219(17) 0.5039(3) 0.06778(14)
N11_2 N 0.42603(17) 0.5690(3) 0.19337(15)
N12_2 N 0.43558(17) 0.5503(3) 0.11767(15)
C1_2 C 0.6821(2) 0.8103(3) 0.36057(17)
C2_2 C 0.7310(2) 0.7310(4) 0.31151(18)
H1_2 H 0.7729 0.6657 0.3493
H2_2 H 0.7629 0.8061 0.2911
C3_2 C 0.6797(2) 0.6358(3) 0.23724(18)
C4_2 C 0.6054(2) 0.3974(3) 0.44282(18)
C5_2 C 0.6923(2) 0.4674(3) 0.47290(19)
H3_2 H 0.7047 0.4917 0.5316
H4_2 H 0.6916 0.5613 0.4430
C6_2 C 0.7648(2) 0.3680(3) 0.46203(18)
C7_2 C 0.34418(19) 0.5339(3) 0.18715(17)
C8_2 C 0.3059(2) 0.5413(3) 0.25665(18)
H5_2 H 0.2438 0.5506 0.2332
H6_2 H 0.3176 0.4470 0.2873
C9_2 C 0.3391(2) 0.6722(3) 0.31823(17)
O1_2 O 0.61061(14) 0.5718(2) 0.23746(13)
O4_2 O 0.82340(15) 0.4275(3) 0.44144(15)
O5_2 O 0.28727(14) 0.7202(2) 0.35454(12)
O6_2 O 0.41407(14) 0.7213(2) 0.33068(13)
O7_2 O 0.91150(15) 0.8879(2) 0.41211(13)
H7_2 H 0.9626 0.9103 0.4132
H8_2 H 0.8927 0.7988 0.3997
H9_2 H 0.5883 0.9171 0.5886
N15_2 N 0.86219(17) 0.9961(3) 0.56778(14)
Zn7_2 Zn 0.33189(2) 0.44736(4) 0.940043(19)
H3_3 H 0.2047 0.0083 0.0316
N5_3 N 0.03757(17) 0.0495(3) 0.88293(15)
N7_3 N 0.00135(17) 0.2564(3) 0.93118(15)
N8 N 0.08518(17) 0.2308(3) 0.97363(15)
C4_3 C 0.1054(2) 0.1026(3) 0.94282(18)
C5_3 C 0.1923(2) 0.0326(3) 0.97290(19)
C6_3 C 0.2648(2) 0.1320(3) 0.96203(18)
O3 O 0.26070(14) 0.2728(2) 0.97846(12)
O4_3 O 0.32340(15) 0.0725(3) 0.94144(15)
O8_3 O 0.10492(14) 0.4940(2) 0.10470(12)
H9_3 H 0.0883 0.5829 0.0886
H10_3 H 0.0902 0.4538 0.1442
Zn1_3 Zn 0.01878(2) 0.87561(4) 0.799632(19)
N1_3 N 0.21816(17) 0.5827(3) 0.91609(15)
N2_3 N 0.15629(17) 0.5425(3) 0.95022(14)
N3_3 N 0.08646(18) 0.6193(3) 0.91780(15)
N4_3 N 0.10138(16) 0.7138(3) 0.86045(14)
C1_3 C 0.1821(2) 0.6897(3) 0.86057(17)
C2_3 C 0.2310(2) 0.7690(4) 0.81151(18)
H1_3 H 0.2729 0.8343 0.8493
H2_3 H 0.2629 0.6939 0.7911
C3_3 C 0.1797(2) 0.8642(3) 0.73724(18)
H4_3 H 0.1916 0.9387 0.9430
O1_3 O 0.11061(14) 0.9282(2) 0.73746(13)
O2_2 O 0.21490(14) 0.8774(2) 0.68117(13)
O7_3 O 0.41150(15) 0.6121(2) 0.91211(13)
H7_3 H 0.4626 0.5897 0.9132
H8_3 H 0.3927 0.7012 0.8997
O9_3 O 0.43923(14) 0.2901(3) 0.95867(13)
H11_3 H 0.4350 0.2007 0.9753
H12_3 H 0.4853 0.3182 0.9492
O10_2 O 0.28510(14) 0.3774(2) 0.81883(13)
N6_3 N 0.97247(18) 0.1477(3) 0.87738(16)
H6_3 H 0.8176 0.0530 0.7873
N11_3 N 0.92603(17) 0.9310(3) 0.69337(15)
N12_3 N 0.93558(17) 0.9497(3) 0.61767(15)
C7_3 C 0.84418(19) 0.9661(3) 0.68715(17)
C8_3 C 0.8059(2) 0.9587(3) 0.75665(18)
H5_3 H 0.7438 0.9494 0.7332
C9_3 C 0.8391(2) 0.8278(3) 0.81823(17)
O6_3 O 0.91407(14) 0.7787(2) 0.83068(13)
Zn1_4 Zn 0.48122(2) 0.37561(4) 0.700368(19)
N1_4 N 0.28184(17) 0.0827(3) 0.58391(15)
N2_4 N 0.34371(17) 0.0425(3) 0.54978(14)
N3_4 N 0.41354(18) 0.1193(3) 0.58220(15)
N4_4 N 0.39862(16) 0.2138(3) 0.63955(14)
N5_4 N 0.46243(17) 0.5495(3) 0.61707(15)
N6_4 N 0.52753(18) 0.6477(3) 0.62262(16)
N7_4 N 0.49865(17) 0.7564(3) 0.56882(15)
N8_2 N 0.41482(17) 0.7308(3) 0.52637(15)
N11_4 N 0.57397(17) 0.4310(3) 0.80663(15)
N12_4 N 0.56442(17) 0.4497(3) 0.88233(15)
C1_4 C 0.3179(2) 0.1897(3) 0.63943(17)
C2_4 C 0.2690(2) 0.2690(4) 0.68849(18)
H1_4 H 0.2271 0.3343 0.6507
H2_4 H 0.2371 0.1939 0.7089
C3_4 C 0.3203(2) 0.3642(3) 0.76276(18)
C4_4 C 0.3946(2) 0.6026(3) 0.55718(18)
C5_4 C 0.3077(2) 0.5326(3) 0.52710(19)
H3_4 H 0.2953 0.5083 0.4684
H4_4 H 0.3084 0.4387 0.5570
C6_4 C 0.2352(2) 0.6320(3) 0.53797(18)
C7_4 C 0.65582(19) 0.4661(3) 0.81285(17)
C8_4 C 0.6941(2) 0.4587(3) 0.74335(18)
H5_4 H 0.7562 0.4494 0.7668
H6_4 H 0.6824 0.5530 0.7127
C9_4 C 0.6609(2) 0.3278(3) 0.68177(17)
O1_4 O 0.38939(14) 0.4282(2) 0.76254(13)
O3_2 O 0.23930(14) 0.7728(2) 0.52154(12)
O4_4 O 0.17660(15) 0.5725(3) 0.55856(15)
O6_4 O 0.58593(14) 0.2787(2) 0.66932(13)
O7_4 O 0.08850(15) 0.1121(2) 0.58789(13)
H7_4 H 0.0374 0.0897 0.5868
H8_4 H 0.1073 0.2012 0.6003
H9_4 H 0.4117 0.0829 0.4114
O8_4 O 0.39508(14) 0.9940(2) 0.39530(12)
H10_4 H 0.4098 0.9538 0.3558
O9_4 O 0.06077(14) 0.7901(3) 0.54133(13)
H11_4 H 0.0650 0.7007 0.5247
H12_4 H 0.0147 0.8182 0.5508
loop_
_geom_bond_atom_site_label_1
_geom_bond_atom_site_label_2
_geom_bond_site_symmetry_1
_geom_bond_site_symmetry_2
N10 N12 1_555 1_555
N12 N11 1_555 1_555
C8 C7 1_555 1_555
H5 C8 1_555 1_555
C9 C8 1_555 1_555
O5 C9 1_555 1_555
Zn6 O5 1_555 1_555
N11 C7 1_555 1_555
C9 O6 1_555 1_555
Zn5 N9 1_555 1_555
Zn1 N4 1_555 1_555
Zn3 N1 1_555 1_555
N1 N2 1_555 1_555
N2 N3 1_555 1_555
N3 N4 1_555 1_555
N4 C1 1_555 1_555
C1 N1 1_555 1_555
C2 C1 1_555 1_555
H1 C2 1_555 1_555
H2 C2 1_555 1_555
C3 C2 1_555 1_555
O1 Zn1 1_555 1_555
O2 C3 1_555 1_555
O7 Zn3 1_555 1_555
H7 O7 1_555 1_555
H8 O7 1_555 1_555
O9 Zn3 1_555 1_555
H11 O9 1_555 1_555
H12 O9 1_555 1_555
Zn8 O2 1_555 1_555
O10 Zn3 1_555 1_555
Zn3 O11 1_555 1_555
C3 O1 1_555 1_555
O8 Zn2 1_555 1_555
H9 O8 1_555 1_555
H10 O8 1_555 1_555
N14 Zn2 1_555 1_555
O12 Zn2 1_555 1_555
N14 N15 1_555 1_555
N13 N7 1_555 1_555
C4 N5 1_555 1_555
C5 C4 1_555 1_555
C6 C5 1_555 1_555
O11 C6 1_555 1_555
O4 C6 1_555 1_555
N13 C4 1_555 1_555
O8_2 Zn2_2 1_555 1_555
H10_2 O8_2 1_555 1_555
O9_2 Zn8 1_555 1_555
H11_2 O9_2 1_555 1_555
H12_2 O9_2 1_555 1_555
N13_2 Zn2_2 1_555 1_555
N14_2 Zn2_2 1_555 1_555
O11_2 Zn2_2 1_555 1_555
O12_2 Zn2_2 1_555 1_555
Zn8 O11_2 1_555 1_555
Zn1_2 N4_2 1_555 1_555
N1_2 N2_2 1_555 1_555
N2_2 N3_2 1_555 1_555
N3_2 N4_2 1_555 1_555
N4_2 C1_2 1_555 1_555
N5_2 Zn1_2 1_555 1_555
N6_2 N5_2 1_555 1_555
N7_2 N6_2 1_555 1_555
N13_2 N7_2 1_555 1_555
N9_2 N10_2 1_555 1_555
N10_2 N12_2 1_555 1_555
N11_2 Zn1_2 1_555 1_555
N12_2 N11_2 1_555 1_555
C1_2 N1_2 1_555 1_555
C2_2 C1_2 1_555 1_555
H1_2 C2_2 1_555 1_555
H2_2 C2_2 1_555 1_555
C3_2 C2_2 1_555 1_555
C4_2 N5_2 1_555 1_555
C5_2 C4_2 1_555 1_555
H3_2 C5_2 1_555 1_555
H4_2 C5_2 1_555 1_555
C6_2 C5_2 1_555 1_555
C7_2 N9_2 1_555 1_555
C8_2 C7_2 1_555 1_555
H5_2 C8_2 1_555 1_555
H6_2 C8_2 1_555 1_555
C9_2 C8_2 1_555 1_555
O1_2 Zn1_2 1_555 1_555
O10 C3_2 1_555 1_555
O11_2 C6_2 1_555 1_555
O4_2 C6_2 1_555 1_555
O5_2 C9_2 1_555 1_555
O6_2 Zn1_2 1_555 1_555
H7_2 O7_2 1_555 1_555
H8_2 O7_2 1_555 1_555
Zn6 N9_2 1_555 1_555
Zn5 O5_2 1_555 1_555
N13_2 C4_2 1_555 1_555
N11_2 C7_2 1_555 1_555
C3_2 O1_2 1_555 1_555
C9_2 O6_2 1_555 1_555
N8 N7_3 1_555 1_555
C4_3 N5_3 1_555 1_555
C5_3 C4_3 1_555 1_555
C6_3 C5_3 1_555 1_555
O3 C6_3 1_555 1_555
O4_3 C6_3 1_555 1_555
Zn7_2 O3 1_555 1_555
N8 C4_3 1_555 1_555
O8_3 Zn6 1_555 1_555
H9_3 O8_3 1_555 1_555
H10_3 O8_3 1_555 1_555
Zn1_3 N4_3 1_555 1_555
Zn7_2 N1_3 1_555 1_555
N1_3 N2_3 1_555 1_555
N2_3 N3_3 1_555 1_555
N3_3 N4_3 1_555 1_555
N4_3 C1_3 1_555 1_555
C1_3 N1_3 1_555 1_555
C2_3 C1_3 1_555 1_555
H1_3 C2_3 1_555 1_555
H2_3 C2_3 1_555 1_555
C3_3 C2_3 1_555 1_555
O1_3 Zn1_3 1_555 1_555
O2_2 C3_3 1_555 1_555
O7_3 Zn7_2 1_555 1_555
H7_3 O7_3 1_555 1_555
H8_3 O7_3 1_555 1_555
O9_3 Zn7_2 1_555 1_555
H11_3 O9_3 1_555 1_555
H12_3 O9_3 1_555 1_555
Zn7 O2_2 1_555 1_555
O10_2 Zn7_2 1_555 1_555
C3_3 O1_3 1_555 1_555
N15_2 N12_3 1_555 1_555
N12_3 N11_3 1_555 1_555
C8_3 C7_3 1_555 1_555
H5_3 C8_3 1_555 1_555
C9_3 C8_3 1_555 1_555
O12 C9_3 1_555 1_555
N11_3 C7_3 1_555 1_555
C9_3 O6_3 1_555 1_555
Zn1_4 N4_4 1_555 1_555
N1_4 N2_4 1_555 1_555
N2_4 N3_4 1_555 1_555
N3_4 N4_4 1_555 1_555
N4_4 C1_4 1_555 1_555
N5_4 Zn1_4 1_555 1_555
N6_4 N5_4 1_555 1_555
N7_4 N6_4 1_555 1_555
N8_2 N7_4 1_555 1_555
N15 N12_4 1_555 1_555
N11_4 Zn1_4 1_555 1_555
N12_4 N11_4 1_555 1_555
C1_4 N1_4 1_555 1_555
C2_4 C1_4 1_555 1_555
H1_4 C2_4 1_555 1_555
H2_4 C2_4 1_555 1_555
C3_4 C2_4 1_555 1_555
C4_4 N5_4 1_555 1_555
C5_4 C4_4 1_555 1_555
H3_4 C5_4 1_555 1_555
H4_4 C5_4 1_555 1_555
C6_4 C5_4 1_555 1_555
C7_4 N14 1_555 1_555
C8_4 C7_4 1_555 1_555
H5_4 C8_4 1_555 1_555
H6_4 C8_4 1_555 1_555
C9_4 C8_4 1_555 1_555
O1_4 Zn1_4 1_555 1_555
O10_2 C3_4 1_555 1_555
O3_2 C6_4 1_555 1_555
O4_4 C6_4 1_555 1_555
O12_2 C9_4 1_555 1_555
O6_4 Zn1_4 1_555 1_555
H7_4 O7_4 1_555 1_555
H8_4 O7_4 1_555 1_555
Zn5 N8_2 1_555 1_555
Zn7 O3_2 1_555 1_555
N8_2 C4_4 1_555 1_555
N11_4 C7_4 1_555 1_555
C3_4 O1_4 1_555 1_555
C9_4 O6_4 1_555 1_555
O3_2 Zn5 1_555 1_555
O8_4 Zn5 1_555 1_555
H10_4 O8_4 1_555 1_555
O9_4 Zn7 1_555 1_555
H11_4 O9_4 1_555 1_555
H12_4 O9_4 1_555 1_555

#END
