
###############################################################################
#
# This file contains modified crystal structure data generated from the
# MOF subset of the Cambridge Structural Database (CSD) v543 
# hosted by the Cambridge Crystallographic Data Centre (CCDC).
#
# This work is licensed under the Creative Commons
# Attribution-NonCommercial-ShareAlike 4.0 International License.
# To view a copy of this license, visit
# http://creativecommons.org/licenses/by-nc-sa/4.0/
# or send a letter to
# Creative Commons, PO Box 1866, Mountain View, CA 94042, USA.
#
# CIF created using the CSD Python API on 29 September 2022
# The structure has been converted into the P1 space group
# The structure has a 3D framework
# The original CSD entry WUYWIY is in the triclinic crystal system
# The framework has been calculated to contain at least 10.0% void space
# The void calculation uses a probe of radius 1.32A, grid spacing 0.4
#
###############################################################################

data_WUYWIY
_chemical_formula_moiety         '(C88 H60 Cd4 O24)n'
_symmetry_cell_setting           triclinic
_symmetry_space_group_name_H-M   'P 1'
_symmetry_Int_Tables_number      1
_space_group_name_Hall           'P 1'
loop_
_symmetry_equiv_pos_site_id
_symmetry_equiv_pos_as_xyz
1 x,y,z
_cell_length_a                   15.4562(18)
_cell_length_b                   16.278(2)
_cell_length_c                   18.346(2)
_cell_angle_alpha                108.559(2)
_cell_angle_beta                 103.799(2)
_cell_angle_gamma                108.453(2)
_cell_volume                     3844.03
loop_
_atom_site_label
_atom_site_type_symbol
_atom_site_fract_x
_atom_site_fract_y
_atom_site_fract_z
Cd13 Cd 0.5000 0.0000 0.5000
C15 C 0.3085(8) 0.8035(9) 0.4763(8)
C16 C 0.2086(8) 0.7721(8) 0.4126(8)
C17 C 0.1314(7) 0.6991(8) 0.4082(8)
H9 H 0.1402 0.6689 0.4428
C18 C 0.0339(8) 0.6693(8) 0.3478(7)
C19 C 0.0207(8) 0.7178(8) 0.3002(8)
C20 C 0.0933(8) 0.8011(8) 0.3214(7)
H11 H 0.0809 0.8436 0.3012
C21 C 0.1872(8) 0.8259(9) 0.3730(7)
H12 H 0.2381 0.8815 0.3814
H28 H 0.0355 0.6926 0.0686
H30 H 0.0279 0.7681 0.1422
O5 O 0.3697(5) 0.8832(6) 0.4985(5)
O6 O 0.3235(5) 0.7494(6) 0.5050(5)
Cd6 Cd 0.48569(4) 0.83397(4) 0.58842(3)
Cd13_2 Cd 0.5000 1.0000 0.5000
H10 H 0.9805 0.6171 0.3415
C22 C 0.5569(6) 0.8229(6) 0.4400(4)
C23 C 0.5966(6) 0.7720(6) 0.3802(5)
C24 C 0.5911(7) 0.7840(6) 0.3076(5)
H13 H 0.5562 0.8170 0.2924
C25 C 0.6363(6) 0.7479(7) 0.2584(5)
H14 H 0.6306 0.7559 0.2097
C26 C 0.6911(6) 0.6993(6) 0.2799(4)
C27 C 0.6926(6) 0.6841(6) 0.3523(5)
H15 H 0.7269 0.6509 0.3680
C28 C 0.6441(6) 0.7178(6) 0.3990(5)
H16 H 0.6429 0.7041 0.4444
C32 C 0.7470(6) 0.5707(5) 0.0166(5)
C35 C 0.7866(6) 0.6186(5) 0.1082(4)
C36 C 0.7236(6) 0.6316(5) 0.1497(5)
C37 C 0.7538(6) 0.6743(6) 0.2361(5)
C38 C 0.8520(6) 0.7004(6) 0.2811(5)
H18 H 0.8739 0.7276 0.3388
C39 C 0.9188(5) 0.6886(5) 0.2455(5)
C40 C 0.8852(5) 0.6489(5) 0.1576(5)
C41 C 0.8433(7) 0.4104(7) 0.0111(6)
H19 H 0.8609 0.3803 0.0459
H21 H 0.8991 0.4681 0.0251
C42 C 0.6543(7) 0.7322(6) 0.0068(6)
H22 H 0.6761 0.7996 0.0382
H24 H 0.6132 0.6972 0.0285
C43 C 0.5609(7) 0.5123(7) 0.0981(6)
H25 H 0.4943 0.4939 0.0637
H26 H 0.5810 0.4628 0.0757
H27 H 0.5647 0.5215 0.1533
C44 C 0.9918(12) 0.7074(10) 0.0944(10)
H29 H 0.9403 0.7106 0.0557
O7 O 0.5370(5) 0.7854(4) 0.4880(4)
O8 O 0.5490(5) 0.8949(5) 0.4349(4)
O9 O 0.7643(4) 0.4329(4) 0.0234(3)
O10 O 0.7371(4) 0.7110(4) 0.0128(3)
O11 O 0.6251(4) 0.6007(4) 0.1004(3)
O12 O 0.9496(4) 0.6343(4) 0.1195(3)
C1 C 0.5540(6) 0.0245(6) 0.6898(4)
C2 C 0.5949(6) 0.1274(6) 0.7448(4)
C3 C 0.6437(6) 0.1930(5) 0.7220(4)
H1 H 0.6561 0.1735 0.6736
C4 C 0.6762(6) 0.2916(6) 0.7716(4)
H2 H 0.7093 0.3368 0.7555
C5 C 0.6589(6) 0.3212(6) 0.8442(4)
C6 C 0.6115(6) 0.2548(6) 0.8678(4)
H3 H 0.6004 0.2747 0.9167
C7 C 0.5796(6) 0.1581(6) 0.8202(4)
H4 H 0.5482 0.1134 0.8376
C8 C 0.5622(7) 0.7535(6) 0.6811(5)
C9 C 0.5928(7) 0.7073(6) 0.7315(5)
C10 C 0.5284(7) 0.6136(6) 0.7163(5)
H5 H 0.4664 0.5819 0.6739
C11 C 0.5573(7) 0.5702(6) 0.7635(5)
H6 H 0.5159 0.5079 0.7514
C12 C 0.6489(6) 0.6183(6) 0.8306(5)
C13 C 0.7129(7) 0.7096(6) 0.8431(5)
H7 H 0.7752 0.7412 0.8850
C14 C 0.6846(7) 0.7526(6) 0.7944(5)
H8 H 0.7280 0.8130 0.8040
C29 C 0.6591(6) 0.4740(6) 0.8451(4)
H17 H 0.6282 0.4412 0.7877
C30 C 0.6763(6) 0.5708(6) 0.8829(5)
C31 C 0.7178(5) 0.6158(5) 0.9704(4)
C33 C 0.7334(6) 0.4766(5) 0.9759(4)
C34 C 0.6858(6) 0.4259(5) 0.8894(4)
H20 H 0.8229 0.3675 0.9540
H23 H 0.6175 0.7141 0.9497
O3 O 0.4701(4) 0.7183(4) 0.6341(3)
O4 O 0.6213(4) 0.8297(4) 0.6852(3)
Cd3 Cd 0.51431(4) 0.16603(4) 0.41158(3)
O13 O 0.4245(4) 0.0020(4) 0.3750(3)
O14 O 0.5007(4) 0.0385(4) 0.2940(3)
O26 O 0.5299(4) 0.2817(4) 0.3659(3)
O28 O 0.3787(4) 0.1703(4) 0.3148(3)
O30 O 0.6303(5) 0.1168(6) 0.5015(5)
O32 O 0.6765(5) 0.2506(6) 0.4950(5)
O34 O 0.4630(5) 0.2146(4) 0.5120(4)
O36 O 0.4510(5) 0.1051(5) 0.5651(4)
O1 O 0.5755(4) 0.9980(4) 0.6250(3)
O2 O 0.4993(4) 0.9615(4) 0.7060(3)
C45 C 0.4460(6) 0.9755(6) 0.3102(4)
C46 C 0.4051(6) 0.8726(6) 0.2552(4)
C47 C 0.3563(6) 0.8070(5) 0.2780(4)
H31 H 0.3439 0.8265 0.3264
C48 C 0.3238(6) 0.7084(6) 0.2284(4)
H32 H 0.2907 0.6632 0.2445
C49 C 0.3411(6) 0.6788(6) 0.1558(4)
C50 C 0.3885(6) 0.7452(6) 0.1322(4)
H33 H 0.3996 0.7253 0.0833
C51 C 0.4204(6) 0.8419(6) 0.1798(4)
H34 H 0.4518 0.8866 0.1624
C52 C 0.4378(7) 0.2465(6) 0.3189(5)
C53 C 0.4072(7) 0.2927(6) 0.2685(5)
C54 C 0.4716(7) 0.3864(6) 0.2837(5)
H35 H 0.5336 0.4181 0.3261
C55 C 0.4427(7) 0.4298(6) 0.2365(5)
H36 H 0.4841 0.4921 0.2486
C56 C 0.3511(6) 0.3817(6) 0.1694(5)
C57 C 0.2871(7) 0.2904(6) 0.1569(5)
H37 H 0.2248 0.2588 0.1150
C58 C 0.3154(7) 0.2474(6) 0.2056(5)
H38 H 0.2720 0.1870 0.1960
C73 C 0.3409(6) 0.5260(6) 0.1549(4)
H47 H 0.3718 0.5588 0.2123
C74 C 0.3237(6) 0.4292(6) 0.1171(5)
C75 C 0.2822(5) 0.3842(5) 0.0296(4)
C77 C 0.2666(6) 0.5234(5) 0.0241(4)
C78 C 0.3142(6) 0.5741(5) 0.1106(4)
H50 H 0.1771 0.6325 0.0460
H53 H 0.3825 0.2859 0.0503
H40 H 0.0195 0.3829 0.6585
C66 C 0.4431(6) 0.1771(6) 0.5600(4)
C67 C 0.4034(6) 0.2280(6) 0.6198(5)
C68 C 0.4089(7) 0.2160(6) 0.6924(5)
H43 H 0.4438 0.1830 0.7076
C69 C 0.3637(6) 0.2521(7) 0.7416(5)
H44 H 0.3694 0.2441 0.7903
C70 C 0.3089(6) 0.3007(6) 0.7201(4)
C71 C 0.3074(6) 0.3159(6) 0.6477(5)
H45 H 0.2731 0.3491 0.6320
C72 C 0.3559(6) 0.2822(6) 0.6010(5)
H46 H 0.3571 0.2959 0.5556
C76 C 0.2530(6) 0.4293(5) 0.9834(5)
C79 C 0.2134(6) 0.3814(5) 0.8918(4)
C80 C 0.2764(6) 0.3684(5) 0.8503(5)
C81 C 0.2462(6) 0.3257(6) 0.7639(5)
C82 C 0.1480(6) 0.2996(6) 0.7189(5)
H48 H 0.1261 0.2724 0.6612
C83 C 0.0812(5) 0.3114(5) 0.7545(5)
C84 C 0.1148(5) 0.3511(5) 0.8424(5)
C85 C 0.1567(7) 0.5896(7) 0.9889(6)
H49 H 0.1391 0.6197 0.9541
H51 H 0.1009 0.5319 0.9749
C86 C 0.3457(7) 0.2678(6) 0.9932(6)
H52 H 0.3239 0.2004 0.9618
H54 H 0.3868 0.3028 0.9715
C87 C 0.4391(7) 0.4877(7) 0.9019(6)
H55 H 0.5057 0.5061 0.9363
H56 H 0.4190 0.5372 0.9243
H57 H 0.4353 0.4785 0.8467
C88 C 0.0082(12) 0.2926(10) 0.9056(10)
H59 H 0.0597 0.2894 0.9443
O21 O 0.2357(4) 0.5671(4) 0.9766(3)
O22 O 0.2629(4) 0.2890(4) 0.9872(3)
O23 O 0.3749(4) 0.3993(4) 0.8996(3)
O24 O 0.0504(4) 0.3657(4) 0.8805(3)
C59 C 0.6915(8) 0.1965(9) 0.5237(8)
C60 C 0.7914(8) 0.2279(8) 0.5874(8)
C61 C 0.8686(7) 0.3009(8) 0.5918(8)
H39 H 0.8598 0.3311 0.5572
C62 C 0.9661(8) 0.3307(8) 0.6522(7)
C63 C 0.9793(8) 0.2822(8) 0.6998(8)
C64 C 0.9067(8) 0.1989(8) 0.6786(7)
H41 H 0.9191 0.1564 0.6988
C65 C 0.8128(8) 0.1741(9) 0.6270(7)
H42 H 0.7619 0.1185 0.6186
H58 H 0.9645 0.3074 0.9314
H60 H 0.9721 0.2319 0.8578
loop_
_geom_bond_atom_site_label_1
_geom_bond_atom_site_label_2
_geom_bond_site_symmetry_1
_geom_bond_site_symmetry_2
C15 C16 1_555 1_555
C16 C17 1_555 1_555
C17 H9 1_555 1_555
C18 C17 1_555 1_555
C19 C18 1_555 1_555
C20 C19 1_555 1_555
H11 C20 1_555 1_555
C21 C16 1_555 1_555
H12 C21 1_555 1_555
O5 C15 1_555 1_555
O6 C15 1_555 1_555
Cd6 O5 1_555 1_555
Cd13_2 O5 1_555 1_555
C20 C21 1_555 1_555
O6 Cd6 1_555 1_555
C22 C23 1_555 1_555
C23 C24 1_555 1_555
C24 H13 1_555 1_555
C25 C24 1_555 1_555
H14 C25 1_555 1_555
C26 C25 1_555 1_555
C27 C26 1_555 1_555
H15 C27 1_555 1_555
C28 C23 1_555 1_555
H16 C28 1_555 1_555
C35 C32 1_555 1_555
C36 C35 1_555 1_555
C37 C26 1_555 1_555
C38 C37 1_555 1_555
H18 C38 1_555 1_555
C40 C35 1_555 1_555
C41 H19 1_555 1_555
H21 C41 1_555 1_555
C42 H22 1_555 1_555
H24 C42 1_555 1_555
C43 H25 1_555 1_555
H26 C43 1_555 1_555
H27 C43 1_555 1_555
H29 C44 1_555 1_555
O7 C22 1_555 1_555
O8 C22 1_555 1_555
O11 C36 1_555 1_555
O12 C40 1_555 1_555
Cd6 O7 1_555 1_555
Cd13_2 O8 1_555 1_555
C27 C28 1_555 1_555
C36 C37 1_555 1_555
C38 C39 1_555 1_555
C39 C40 1_555 1_555
C41 O9 1_555 1_555
C42 O10 1_555 1_555
C43 O11 1_555 1_555
C44 O12 1_555 1_555
C1 C2 1_555 1_555
C2 C3 1_555 1_555
C3 H1 1_555 1_555
C4 C3 1_555 1_555
H2 C4 1_555 1_555
C5 C4 1_555 1_555
C6 C5 1_555 1_555
H3 C6 1_555 1_555
C7 C2 1_555 1_555
H4 C7 1_555 1_555
C8 C9 1_555 1_555
C9 C10 1_555 1_555
C10 H5 1_555 1_555
C11 C10 1_555 1_555
H6 C11 1_555 1_555
C12 C11 1_555 1_555
C13 C12 1_555 1_555
H7 C13 1_555 1_555
C14 C9 1_555 1_555
H8 C14 1_555 1_555
C29 H17 1_555 1_555
C30 C12 1_555 1_555
C31 C30 1_555 1_555
C34 C5 1_555 1_555
O3 C8 1_555 1_555
O4 C8 1_555 1_555
Cd3 O13 1_555 1_555
O13 Cd13 1_555 1_555
Cd6 O3 1_555 1_555
O26 Cd3 1_555 1_555
O28 Cd3 1_555 1_555
O30 Cd13 1_555 1_555
O32 Cd3 1_555 1_555
O34 Cd3 1_555 1_555
O36 Cd13 1_555 1_555
C6 C7 1_555 1_555
C13 C14 1_555 1_555
C29 C30 1_555 1_555
C29 C34 1_555 1_555
C33 C34 1_555 1_555
O4 Cd6 1_555 1_555
Cd3 O14 1_555 1_555
Cd3 O30 1_555 1_555
Cd6 O1 1_555 1_555
Cd13_2 O1 1_555 1_555
C45 C46 1_555 1_555
C46 C47 1_555 1_555
C47 H31 1_555 1_555
C48 C47 1_555 1_555
H32 C48 1_555 1_555
C49 C48 1_555 1_555
C50 C49 1_555 1_555
H33 C50 1_555 1_555
C51 C46 1_555 1_555
H34 C51 1_555 1_555
C52 C53 1_555 1_555
C53 C54 1_555 1_555
C54 H35 1_555 1_555
C55 C54 1_555 1_555
H36 C55 1_555 1_555
C56 C55 1_555 1_555
C57 C56 1_555 1_555
H37 C57 1_555 1_555
C58 C53 1_555 1_555
H38 C58 1_555 1_555
C73 H47 1_555 1_555
C74 C56 1_555 1_555
C75 C74 1_555 1_555
C78 C49 1_555 1_555
O26 C52 1_555 1_555
O28 C52 1_555 1_555
Cd6 O2 1_555 1_555
C50 C51 1_555 1_555
C57 C58 1_555 1_555
C73 C74 1_555 1_555
C73 C78 1_555 1_555
C77 C78 1_555 1_555
C66 C67 1_555 1_555
C67 C68 1_555 1_555
C68 H43 1_555 1_555
C69 C68 1_555 1_555
H44 C69 1_555 1_555
C70 C69 1_555 1_555
C71 C70 1_555 1_555
H45 C71 1_555 1_555
C72 C67 1_555 1_555
H46 C72 1_555 1_555
C79 C76 1_555 1_555
C80 C79 1_555 1_555
C81 C70 1_555 1_555
C82 C81 1_555 1_555
H48 C82 1_555 1_555
C84 C79 1_555 1_555
C85 H49 1_555 1_555
H51 C85 1_555 1_555
C86 H52 1_555 1_555
H54 C86 1_555 1_555
C87 H55 1_555 1_555
H56 C87 1_555 1_555
H57 C87 1_555 1_555
H59 C88 1_555 1_555
O34 C66 1_555 1_555
O36 C66 1_555 1_555
O23 C80 1_555 1_555
O24 C84 1_555 1_555
C71 C72 1_555 1_555
C80 C81 1_555 1_555
C82 C83 1_555 1_555
C83 C84 1_555 1_555
C85 O21 1_555 1_555
C86 O22 1_555 1_555
C87 O23 1_555 1_555
C88 O24 1_555 1_555
C59 C60 1_555 1_555
C60 C61 1_555 1_555
C61 H39 1_555 1_555
C62 C61 1_555 1_555
C63 C62 1_555 1_555
C64 C63 1_555 1_555
H41 C64 1_555 1_555
C65 C60 1_555 1_555
H42 C65 1_555 1_555
O30 C59 1_555 1_555
O32 C59 1_555 1_555
C64 C65 1_555 1_555

#END
