
###############################################################################
#
# This file contains modified crystal structure data generated from the
# MOF subset of the Cambridge Structural Database (CSD) v543 
# hosted by the Cambridge Crystallographic Data Centre (CCDC).
#
# This work is licensed under the Creative Commons
# Attribution-NonCommercial-ShareAlike 4.0 International License.
# To view a copy of this license, visit
# http://creativecommons.org/licenses/by-nc-sa/4.0/
# or send a letter to
# Creative Commons, PO Box 1866, Mountain View, CA 94042, USA.
#
# CIF created using the CSD Python API on 29 September 2022
# The structure has been converted into the P1 space group
# The structure has a 3D framework
# The original CSD entry WUYYIA is in the triclinic crystal system
# The framework has been calculated to contain at least 10.0% void space
# The void calculation uses a probe of radius 1.32A, grid spacing 0.4
# H atom positions have been added when not included in the experimental data
#
###############################################################################

data_WUYYIA
_chemical_formula_moiety         '(C178 H128 O50 Tb6)n'
_symmetry_cell_setting           triclinic
_symmetry_space_group_name_H-M   'P 1'
_symmetry_Int_Tables_number      1
_space_group_name_Hall           'P 1'
loop_
_symmetry_equiv_pos_site_id
_symmetry_equiv_pos_as_xyz
1 x,y,z
_cell_length_a                   15.779(8)
_cell_length_b                   18.369(9)
_cell_length_c                   28.064(14)
_cell_angle_alpha                103.419(9)
_cell_angle_beta                 91.978(7)
_cell_angle_gamma                108.705(8)
_cell_volume                     7441.65
loop_
_atom_site_label
_atom_site_type_symbol
_atom_site_fract_x
_atom_site_fract_y
_atom_site_fract_z
C1 C 0.208(2) 0.581(2) 0.2685(13)
C2 C 0.127(2) 0.549(2) 0.2965(13)
C3 C 0.073(2) 0.4523(18) 0.2800(12)
H1 H 0.0902 0.4166 0.2566
C4 C 0.003(2) 0.432(2) 0.3033(13)
C6 C 0.013(2) 0.5546(19) 0.3449(12)
C7 C 0.093(2) 0.591(2) 0.3266(13)
H4 H 0.1209 0.6455 0.3366
H7 H 0.0285 0.3611 0.3935
O1 O 0.2512(13) 0.5315(12) 0.2450(8)
O2 O 0.2383(13) 0.6580(12) 0.2755(8)
O23 O 0.1098(17) 0.5939(14) 0.1852(10)
O24 O 0.0975(16) 0.7161(15) 0.1551(9)
Tb2 Tb 0.36828(16) 0.64934(14) 0.24204(10)
Tb3 Tb 0.17939(12) 0.73407(10) 0.23494(7)
O27 O 0.4816(13) 0.6050(12) 0.2406(9)
O28 O 0.4305(14) 0.6252(12) 0.3143(9)
O29 O 0.3137(18) 0.8236(14) 0.2666(10)
O30 O 0.4313(17) 0.7757(13) 0.2715(9)
O31 O 0.187(2) 0.7835(18) 0.3077(13)
O32 O 0.1578(13) 0.8536(12) 0.2332(8)
O33 O 0.0855(12) 0.0833(11) 0.7199(9)
O34 O 0.0371(13) 0.1076(12) 0.7933(9)
O35 O 0.0378(17) 0.6977(12) 0.2547(9)
O36 O 0.0662(16) 0.2520(13) 0.7554(9)
O37 O 0.2770(17) 0.7234(15) 0.1829(10)
O38 O 0.3669(16) 0.6433(14) 0.1651(9)
H61 H 0.0746811 0.561064 0.206073
H62 H 0.0691043 0.591814 0.156747
H63 H 0.039071 0.672047 0.150457
H64 H 0.0862902 0.765946 0.154089
H2 H 0.9751 0.3770 0.2976
C5 C 0.963(2) 0.474(2) 0.3338(13)
H3 H 0.9914 0.5884 0.3670
C8 C 0.872(2) 0.443(2) 0.3449(14)
C9 C 0.850(2) 0.380(2) 0.3656(14)
C10 C 0.760(2) 0.3577(19) 0.3785(14)
C11 C 0.694(2) 0.396(2) 0.3721(14)
C12 C 0.729(2) 0.463(2) 0.3532(14)
C13 C 0.807(2) 0.4758(19) 0.3404(13)
H5 H 0.8241 0.5165 0.3245
C14 C 0.981(2) 0.3802(18) 0.4053(13)
H6 H 0.9973 0.4356 0.4062
H8 H 0.9726 0.3735 0.4379
C15 C 0.676(2) 0.501(2) 0.3439(13)
C16 C 0.613(2) 0.5256(18) 0.3705(13)
H9 H 0.6164 0.5250 0.4036
C17 C 0.544(2) 0.5514(18) 0.3538(13)
H10 H 0.5001 0.5586 0.3738
C18 C 0.543(2) 0.5655(19) 0.3077(13)
C19 C 0.614(2) 0.5493(18) 0.2818(13)
H11 H 0.6143 0.5556 0.2498
C20 C 0.684(2) 0.5252(18) 0.2983(13)
H12 H 0.7321 0.5246 0.2805
C21 C 0.480(2) 0.606(2) 0.2873(15)
C22 C 0.7339(17) 0.2768(13) 0.3990(10)
C23 C 0.7619(16) 0.2751(13) 0.4452(9)
C24 C 0.7353(17) 0.2052(15) 0.4589(8)
C25 C 0.6806(16) 0.1370(13) 0.4264(9)
H13 H 0.6625 0.0894 0.4357
C26 C 0.6526(16) 0.1387(13) 0.3801(9)
C27 C 0.6792(17) 0.2086(15) 0.3664(8)
C28 C 0.788(2) 0.393(2) 0.5078(13)
H14 H 0.8369 0.4296 0.5315
H15 H 0.7449 0.3599 0.5241
H16 H 0.7588 0.4221 0.4926
C29 C 0.681(3) 0.190(2) 0.2835(13)
H17 H 0.6469 0.1891 0.2542
H18 H 0.6847 0.1381 0.2810
H19 H 0.7400 0.2282 0.2873
C30 C 0.5904(17) 0.0671(12) 0.3514(9)
H20 H 0.6793 0.0053 0.3591
C35 C 0.4994(17) 0.0561(13) 0.3294(9)
H23 H 0.4795 0.0993 0.3333
C37 C 0.770(2) 0.2060(17) 0.5115(10)
C38 C 0.7266(17) 0.2188(16) 0.5527(11)
H24 H 0.6768 0.2352 0.5512
C39 C 0.757(2) 0.2072(17) 0.5961(10)
H25 H 0.7272 0.2158 0.6239
C40 C 0.830(2) 0.1829(18) 0.5983(10)
C41 C 0.8741(17) 0.1701(17) 0.5571(11)
H26 H 0.9239 0.1537 0.5586
C42 C 0.8440(19) 0.1817(18) 0.5137(10)
H27 H 0.8734 0.1730 0.4858
O5 O 0.6120(14) 0.3638(12) 0.3873(9)
O6 O 0.9037(14) 0.3385(12) 0.3748(9)
O7 O 0.6404(17) 0.2088(13) 0.3213(10)
O8 O 0.8189(17) 0.3468(14) 0.4727(9)
O11 O 0.9091(18) 0.1501(14) 0.6536(9)
C43 C 0.543(2) 0.3283(18) 0.3493(13)
H28 H 0.5282 0.3685 0.3378
H29 H 0.4913 0.2959 0.3608
H30 H 0.5618 0.2956 0.3228
O12 O 0.813(2) 0.2165(18) 0.6923(13)
C44 C 0.839(3) 0.189(2) 0.6586(18)
C45 C 0.809(2) 0.068(2) 0.7527(14)
C46 C 0.734(2) 0.039(2) 0.7820(14)
C47 C 0.696(2) 0.0807(19) 0.8143(13)
H31 H 0.7283 0.1347 0.8251
C48 C 0.616(2) 0.0574(18) 0.8347(13)
H32 H 0.5912 0.0910 0.8551
H35 H 0.4280 0.0165 0.8093
C60 C 0.2083(13) 0.0252(11) 0.7515(7)
H40 H 0.2127 0.0366 0.7209
C61 C 0.1452(12) 0.0425(11) 0.7800(8)
C62 C 0.1386(12) 0.0257(11) 0.8250(8)
H41 H 0.0957 0.0374 0.8443
C65 C 0.083(2) 0.0819(19) 0.7701(15)
O13 O 0.8422(13) 0.1464(12) 0.7668(8)
O14 O 0.8400(14) 0.0256(12) 0.7227(9)
Tb1 Tb 0.96988(16) 0.13882(13) 0.72096(10)
Tb12 Tb 0.82061(12) 0.26593(10) 0.76506(7)
H48 H 0.3948 0.9550 0.0042
C75 C 0.3183(16) 0.6990(14) -0.0000(8)
C76 C 0.2745(15) 0.7373(13) 0.0315(9)
H53 H 0.2454 0.7685 0.0209
C77 C 0.2729(15) 0.7303(13) 0.0782(9)
H54 H 0.2428 0.7568 0.1000
C78 C 0.3588(15) 0.6468(13) 0.0620(9)
H55 H 0.3879 0.6155 0.0726
C79 C 0.3604(16) 0.6537(14) 0.0152(9)
C87 C 0.316(3) 0.702(2) 0.1617(17)
C88 C 0.3151(16) 0.6851(14) 0.0935(8)
C31 C 0.6219(15) 0.9983(14) 0.3452(9)
C32 C 0.5625(17) 0.9186(13) 0.3171(9)
H21 H 0.5823 0.8753 0.3133
C33 C 0.4714(17) 0.9076(12) 0.2952(9)
C34 C 0.4399(15) 0.9763(14) 0.3013(9)
H22 H 0.3825 0.9694 0.2875
C36 C 0.381(3) 0.826(2) 0.2678(15)
C49 C 0.579(2) 0.975(2) 0.8194(14)
C50 C 0.610(2) 0.931(2) 0.7927(13)
H33 H 0.5806 0.8759 0.7853
C51 C 0.692(2) 0.9637(18) 0.7726(13)
H34 H 0.7159 0.9294 0.7522
C52 C 0.481(2) 0.9433(18) 0.8320(13)
C53 C 0.413(2) 0.9728(18) 0.8226(12)
C54 C 0.328(2) 0.9419(18) 0.8317(13)
C55 C 0.302(2) 0.8806(18) 0.8527(13)
C56 C 0.366(2) 0.8480(18) 0.8649(13)
C57 C 0.454(2) 0.8749(18) 0.8559(13)
C58 C 0.581(2) 0.8831(17) 0.9028(12)
H36 H 0.6140 0.8504 0.9092
H37 H 0.6197 0.9278 0.8931
H38 H 0.5558 0.9016 0.9321
C59 C 0.2649(12) 0.9911(11) 0.7681(8)
H39 H 0.3078 0.9794 0.7487
C63 C 0.1953(13) 0.9916(11) 0.8415(8)
H42 H 0.1908 0.9802 0.8721
C64 C 0.2584(12) 0.9743(11) 0.8131(8)
C66 C 0.159(2) 0.8043(17) 0.8221(12)
H43 H 0.1450 0.8390 0.8046
H44 H 0.1850 0.7703 0.8010
H45 H 0.1046 0.7725 0.8320
C67 C 0.347(2) 0.775(2) 0.9284(15)
C68 C 0.323(2) 0.702(2) 0.9476(14)
C69 C 0.297(2) 0.636(2) 0.9126(14)
H46 H 0.2934 0.5903 0.9228
C70 C 0.271(2) 0.6223(19) 0.8578(14)
C71 C 0.311(2) 0.707(2) 0.8526(15)
C72 C 0.326(2) 0.764(2) 0.8758(15)
C73 C 0.357(2) 0.9088(17) 0.9798(13)
H47 H 0.3000 0.8880 0.9916
H49 H 0.3475 0.9231 0.9497
C74 C 0.345(2) 0.6848(18) 0.7774(13)
H50 H 0.3198 0.6534 0.7445
H51 H 0.3861 0.7355 0.7761
H52 H 0.3765 0.6578 0.7927
C75_2 C 0.3183(16) 0.6990(14) 1.0000(8)
H56 H 0.3906 0.6273 0.9935
C80 C 0.2230(15) 0.5464(12) 0.8263(9)
C81 C 0.1491(16) 0.5335(12) 0.7979(8)
H57 H 0.1332 0.5761 0.7932
C82 C 0.0977(14) 0.4604(14) 0.7760(8)
H58 H 0.0453 0.4513 0.7558
C83 C 0.1201(16) 0.4002(11) 0.7826(9)
C84 C 0.1940(16) 0.4131(12) 0.8110(9)
H59 H 0.2099 0.3705 0.8156
C85 C 0.2454(14) 0.4862(14) 0.8329(9)
H60 H 0.2977 0.4954 0.8530
C86 C 0.043(3) 0.305(2) 0.7560(15)
O17 O 0.5138(14) 0.8407(11) 0.8666(8)
O18 O 0.2176(15) 0.8479(11) 0.8623(8)
O19 O 0.3979(15) 0.8520(12) 0.9711(9)
O20 O 0.2812(16) 0.6950(12) 0.8027(9)
O21 O 0.9622(17) 0.3023(12) 0.7453(9)
Tb4 Tb 0.03012(16) 0.86118(13) 0.27904(10)
C31_2 C 0.3781(15) 0.0017(14) 0.6548(9)
C32_2 C 0.4375(17) 0.0814(13) 0.6829(9)
H21_2 H 0.4177 0.1247 0.6867
C33_2 C 0.5286(17) 0.0924(12) 0.7048(9)
C34_2 C 0.5601(15) 0.0237(14) 0.6987(9)
H22_2 H 0.6175 0.0306 0.7125
C36_2 C 0.619(3) 0.174(2) 0.7322(15)
O9 O 0.6863(18) 0.1764(14) 0.7334(10)
O10 O 0.5687(17) 0.2243(13) 0.7285(9)
C49_2 C 0.421(2) 0.025(2) 0.1806(14)
C50_2 C 0.390(2) 0.069(2) 0.2073(13)
H33_2 H 0.4194 0.1241 0.2147
C51_2 C 0.308(2) 0.0363(18) 0.2274(13)
H34_2 H 0.2841 0.0706 0.2478
C52_2 C 0.519(2) 0.0567(18) 0.1680(13)
C53_2 C 0.587(2) 0.0272(18) 0.1774(12)
C54_2 C 0.672(2) 0.0581(18) 0.1683(13)
C55_2 C 0.698(2) 0.1194(18) 0.1473(13)
C56_2 C 0.634(2) 0.1520(18) 0.1351(13)
C57_2 C 0.546(2) 0.1251(18) 0.1441(13)
C58_2 C 0.419(2) 0.1169(17) 0.0972(12)
H36_2 H 0.3860 0.1496 0.0908
H37_2 H 0.3803 0.0722 0.1069
H38_2 H 0.4442 0.0984 0.0679
C59_2 C 0.7351(12) 0.0089(11) 0.2319(8)
H39_2 H 0.6922 0.0206 0.2513
C63_2 C 0.8047(13) 0.0084(11) 0.1585(8)
H42_2 H 0.8092 0.0198 0.1279
C64_2 C 0.7416(12) 0.0257(11) 0.1869(8)
C66_2 C 0.841(2) 0.1957(17) 0.1779(12)
H43_2 H 0.8550 0.1610 0.1954
H44_2 H 0.8150 0.2297 0.1990
H45_2 H 0.8954 0.2275 0.1680
C67_2 C 0.653(2) 0.225(2) 0.0716(15)
C68_2 C 0.677(2) 0.298(2) 0.0524(14)
C69_2 C 0.703(2) 0.364(2) 0.0874(14)
H46_2 H 0.7066 0.4097 0.0772
C70_2 C 0.729(2) 0.3777(19) 0.1422(14)
C71_2 C 0.689(2) 0.293(2) 0.1474(15)
C72_2 C 0.674(2) 0.236(2) 0.1242(15)
C73_2 C 0.643(2) 0.0912(17) 0.0202(13)
H47_2 H 0.7000 0.1120 0.0084
H49_2 H 0.6525 0.0769 0.0503
C74_2 C 0.655(2) 0.3152(18) 0.2226(13)
H50_2 H 0.6802 0.3466 0.2555
H51_2 H 0.6139 0.2645 0.2239
H52_2 H 0.6235 0.3422 0.2073
C75_3 C 0.6817(16) 0.3010(14) 0.0000(8)
H56_2 H 0.6094 0.3727 0.0065
C80_2 C 0.7770(15) 0.4536(12) 0.1737(9)
C81_2 C 0.8509(16) 0.4665(12) 0.2021(8)
H57_2 H 0.8668 0.4239 0.2068
C82_2 C 0.9023(14) 0.5396(14) 0.2240(8)
H58_2 H 0.9547 0.5487 0.2442
C83_2 C 0.8799(16) 0.5998(11) 0.2174(9)
C84_2 C 0.8060(16) 0.5869(12) 0.1890(9)
H59_2 H 0.7901 0.6295 0.1844
C85_2 C 0.7546(14) 0.5138(14) 0.1671(9)
H60_2 H 0.7023 0.5046 0.1470
C86_2 C 0.957(3) 0.695(2) 0.2440(15)
O17_2 O 0.4862(14) 0.1593(11) 0.1334(8)
O18_2 O 0.7824(15) 0.1521(11) 0.1377(8)
O19_2 O 0.6021(15) 0.1480(12) 0.0289(9)
O20_2 O 0.7188(16) 0.3050(12) 0.1973(9)
O22 O 0.9338(16) 0.7480(13) 0.2446(9)
Tb6 Tb 0.63172(16) 0.35066(14) 0.75796(10)
H48_2 H 0.6052 0.0450 0.9958
C75_4 C 0.6817(16) 0.3010(14) 1.0000(8)
C76_2 C 0.7255(15) 0.2627(13) 0.9685(9)
H53_2 H 0.7546 0.2315 0.9791
C77_2 C 0.7271(15) 0.2697(13) 0.9218(9)
H54_2 H 0.7572 0.2432 0.9000
C78_2 C 0.6412(15) 0.3532(13) 0.9380(9)
H55_2 H 0.6121 0.3845 0.9274
C79_2 C 0.6396(16) 0.3463(14) 0.9848(9)
O25 O 0.7230(17) 0.2766(15) 0.8171(10)
O26 O 0.6331(16) 0.3567(14) 0.8349(9)
C87_2 C 0.684(3) 0.298(2) 0.8383(17)
C88_2 C 0.6849(16) 0.3149(14) 0.9065(8)
H2_2 H 0.0249 0.6230 0.7024
C5_2 C 0.037(2) 0.526(2) 0.6662(13)
H3_2 H 0.0086 0.4116 0.6330
C8_2 C 0.128(2) 0.557(2) 0.6551(14)
C9_2 C 0.150(2) 0.620(2) 0.6344(14)
C10_2 C 0.240(2) 0.6423(19) 0.6215(14)
C11_2 C 0.306(2) 0.604(2) 0.6279(14)
C12_2 C 0.271(2) 0.537(2) 0.6468(14)
C13_2 C 0.193(2) 0.5242(19) 0.6596(13)
H5_2 H 0.1759 0.4835 0.6755
C14_2 C 0.019(2) 0.6198(18) 0.5947(13)
H6_2 H 0.0027 0.5644 0.5938
H8_2 H 0.0274 0.6265 0.5621
C15_2 C 0.324(2) 0.499(2) 0.6561(13)
C16_2 C 0.387(2) 0.4744(18) 0.6295(13)
H9_2 H 0.3836 0.4750 0.5964
C17_2 C 0.456(2) 0.4486(18) 0.6462(13)
H10_2 H 0.4999 0.4414 0.6262
C18_2 C 0.457(2) 0.4345(19) 0.6923(13)
C19_2 C 0.386(2) 0.4507(18) 0.7182(13)
H11_2 H 0.3857 0.4444 0.7502
C20_2 C 0.316(2) 0.4748(18) 0.7017(13)
H12_2 H 0.2679 0.4754 0.7195
C21_2 C 0.520(2) 0.394(2) 0.7127(15)
C22_2 C 0.2661(17) 0.7232(13) 0.6010(10)
C23_2 C 0.2381(16) 0.7249(13) 0.5548(9)
C24_2 C 0.2647(17) 0.7948(15) 0.5411(8)
C25_2 C 0.3194(16) 0.8630(13) 0.5736(9)
H13_2 H 0.3375 0.9106 0.5643
C26_2 C 0.3474(16) 0.8613(13) 0.6199(9)
C27_2 C 0.3208(17) 0.7914(15) 0.6336(8)
C28_2 C 0.212(2) 0.607(2) 0.4922(13)
H14_2 H 0.1631 0.5704 0.4685
H15_2 H 0.2551 0.6401 0.4759
H16_2 H 0.2412 0.5779 0.5074
C29_2 C 0.319(3) 0.810(2) 0.7165(13)
H17_2 H 0.3531 0.8109 0.7458
H18_2 H 0.3153 0.8619 0.7190
H19_2 H 0.2600 0.7718 0.7127
C30_2 C 0.4096(17) 0.9329(12) 0.6486(9)
H20_2 H 0.3207 0.9947 0.6409
C35_2 C 0.5006(17) 0.9439(13) 0.6706(9)
H23_2 H 0.5205 0.9007 0.6667
C37_2 C 0.230(2) 0.7940(17) 0.4885(10)
C38_2 C 0.2734(17) 0.7812(16) 0.4473(11)
H24_2 H 0.3232 0.7648 0.4488
C39_2 C 0.243(2) 0.7928(17) 0.4039(10)
H25_2 H 0.2728 0.7842 0.3761
C40_2 C 0.170(2) 0.8171(18) 0.4017(10)
C41_2 C 0.1259(17) 0.8299(17) 0.4429(11)
H26_2 H 0.0761 0.8463 0.4414
C42_2 C 0.1560(19) 0.8183(18) 0.4863(10)
H27_2 H 0.1266 0.8270 0.5142
O3 O 0.5184(13) 0.3950(12) 0.7594(9)
O4 O 0.5695(14) 0.3748(12) 0.6857(9)
O5_2 O 0.3880(14) 0.6362(12) 0.6127(9)
O6_2 O 0.0963(14) 0.6615(12) 0.6252(9)
O7_2 O 0.3596(17) 0.7912(13) 0.6787(10)
O8_2 O 0.1811(17) 0.6532(14) 0.5273(9)
O11_2 O 0.0909(18) 0.8499(14) 0.3464(9)
C43_2 C 0.457(2) 0.6717(18) 0.6507(13)
H28_2 H 0.4718 0.6315 0.6622
H29_2 H 0.5087 0.7041 0.6392
H30_2 H 0.4382 0.7044 0.6772
C44_2 C 0.161(3) 0.811(2) 0.3414(18)
C45_2 C 0.191(2) 0.932(2) 0.2473(14)
C46_2 C 0.266(2) 0.961(2) 0.2180(14)
C47_2 C 0.304(2) 0.9193(19) 0.1857(13)
H31_2 H 0.2717 0.8653 0.1749
C48_2 C 0.384(2) 0.9426(18) 0.1653(13)
H32_2 H 0.4088 0.9090 0.1449
H35_2 H 0.5720 0.9835 0.1907
C60_2 C 0.7917(13) 0.9748(11) 0.2485(7)
H40_2 H 0.7873 0.9634 0.2791
C61_2 C 0.8548(12) 0.9575(11) 0.2200(8)
C62_2 C 0.8614(12) 0.9743(11) 0.1750(8)
H41_2 H 0.9043 0.9626 0.1557
C65_2 C 0.917(2) 0.9181(19) 0.2299(15)
O14_2 O 0.1600(14) 0.9744(12) 0.2773(9)
O15 O 0.9145(12) 0.9167(11) 0.2801(9)
O16 O 0.9629(13) 0.8924(12) 0.2067(9)
C1_2 C 0.792(2) 0.419(2) 0.7315(13)
C2_2 C 0.873(2) 0.451(2) 0.7035(13)
C3_2 C 0.927(2) 0.5477(18) 0.7200(12)
H1_2 H 0.9098 0.5834 0.7434
C4_2 C 0.997(2) 0.568(2) 0.6967(13)
C6_2 C 0.987(2) 0.4454(19) 0.6551(12)
C7_2 C 0.907(2) 0.409(2) 0.6734(13)
H4_2 H 0.8791 0.3545 0.6634
H7_2 H 0.9715 0.6389 0.6065
O1_2 O 0.7488(13) 0.4685(12) 0.7550(8)
O2_2 O 0.7617(13) 0.3420(12) 0.7245(8)
O23_2 O 0.8902(17) 0.4061(14) 0.8148(10)
O24_2 O 0.9025(16) 0.2839(15) 0.8449(9)
H61_2 H 0.925319 0.438936 0.793927
H62_2 H 0.930896 0.408186 0.843253
H63_2 H 0.960929 0.327953 0.849543
H64_2 H 0.91371 0.234054 0.845911
loop_
_geom_bond_atom_site_label_1
_geom_bond_atom_site_label_2
_geom_bond_site_symmetry_1
_geom_bond_site_symmetry_2
C1 C2 1_555 1_555
C2 C3 1_555 1_555
C3 H1 1_555 1_555
C4 C3 1_555 1_555
C7 C2 1_555 1_555
H4 C7 1_555 1_555
O1 C1 1_555 1_555
O2 C1 1_555 1_555
O23 Tb3 1_555 1_555
O24 Tb3 1_555 1_555
Tb2 O1 1_555 1_555
Tb3 O2 1_555 1_555
O27 Tb2 1_555 1_555
O28 Tb2 1_555 1_555
O29 Tb3 1_555 1_555
O30 Tb2 1_555 1_555
O31 Tb3 1_555 1_555
O32 Tb3 1_555 1_555
O35 Tb3 1_555 1_555
O37 Tb3 1_555 1_555
O38 Tb2 1_555 1_555
C6 C7 1_555 1_555
O2 Tb2 1_555 1_555
O23 H61 1_555 1_555
O23 H62 1_555 1_555
O24 H63 1_555 1_555
O24 H64 1_555 1_555
C8 C5 1_555 1_555
C9 C8 1_555 1_555
C10 C9 1_555 1_555
C11 C10 1_555 1_555
C12 C11 1_555 1_555
C13 C8 1_555 1_555
H5 C13 1_555 1_555
C14 H6 1_555 1_555
H8 C14 1_555 1_555
C15 C12 1_555 1_555
C16 C15 1_555 1_555
H9 C16 1_555 1_555
C17 C16 1_555 1_555
H10 C17 1_555 1_555
C18 C17 1_555 1_555
C19 C18 1_555 1_555
H11 C19 1_555 1_555
C20 C15 1_555 1_555
H12 C20 1_555 1_555
C21 C18 1_555 1_555
C22 C10 1_555 1_555
C23 C22 1_555 1_555
C24 C23 1_555 1_555
C25 C24 1_555 1_555
H13 C25 1_555 1_555
C26 C25 1_555 1_555
C27 C22 1_555 1_555
C28 H14 1_555 1_555
H15 C28 1_555 1_555
H16 C28 1_555 1_555
C29 H17 1_555 1_555
H18 C29 1_555 1_555
H19 C29 1_555 1_555
C30 C26 1_555 1_555
C35 C30 1_555 1_555
H23 C35 1_555 1_555
C37 C24 1_555 1_555
C38 C37 1_555 1_555
H24 C38 1_555 1_555
C39 C38 1_555 1_555
H25 C39 1_555 1_555
C40 C39 1_555 1_555
C41 C40 1_555 1_555
H26 C41 1_555 1_555
C42 C37 1_555 1_555
H27 C42 1_555 1_555
O27 C21 1_555 1_555
O28 C21 1_555 1_555
O5 C11 1_555 1_555
O6 C9 1_555 1_555
O7 C27 1_555 1_555
O8 C23 1_555 1_555
O11 C44 1_555 1_555
C43 O5 1_555 1_555
H28 C43 1_555 1_555
H29 C43 1_555 1_555
H30 C43 1_555 1_555
O12 C44 1_555 1_555
C44 C40 1_555 1_555
C45 C46 1_555 1_555
C46 C47 1_555 1_555
C47 H31 1_555 1_555
C48 C47 1_555 1_555
H32 C48 1_555 1_555
H40 C60 1_555 1_555
C61 C60 1_555 1_555
C62 C61 1_555 1_555
H41 C62 1_555 1_555
C65 C61 1_555 1_555
O13 C45 1_555 1_555
O14 C45 1_555 1_555
O33 C65 1_555 1_555
O34 C65 1_555 1_555
Tb1 O11 1_555 1_555
Tb12 O12 1_555 1_555
C12 C13 1_555 1_555
C14 O6 1_555 1_555
C19 C20 1_555 1_555
C26 C27 1_555 1_555
C28 O8 1_555 1_555
C29 O7 1_555 1_555
C41 C42 1_555 1_555
O13 Tb1 1_555 1_555
O13 Tb12 1_555 1_555
O14 Tb1 1_555 1_555
C76 C75 1_555 1_555
H53 C76 1_555 1_555
C77 C76 1_555 1_555
H54 C77 1_555 1_555
C78 H55 1_555 1_555
C79 C75 1_555 1_555
O37 C87 1_555 1_555
O38 C87 1_555 1_555
C87 C88 1_555 1_555
C88 C77 1_555 1_555
C78 C79 1_555 1_555
C78 C88 1_555 1_555
C32 C31 1_555 1_555
H21 C32 1_555 1_555
C33 C32 1_555 1_555
C34 C33 1_555 1_555
H22 C34 1_555 1_555
C36 C33 1_555 1_555
O29 C36 1_555 1_555
O30 C36 1_555 1_555
C50 C49 1_555 1_555
H33 C50 1_555 1_555
H34 C51 1_555 1_555
C52 C49 1_555 1_555
C53 C52 1_555 1_555
C54 C53 1_555 1_555
C55 C54 1_555 1_555
C56 C55 1_555 1_555
C57 C52 1_555 1_555
C58 H36 1_555 1_555
H37 C58 1_555 1_555
H38 C58 1_555 1_555
C59 H39 1_555 1_555
H42 C63 1_555 1_555
C64 C54 1_555 1_555
C66 H43 1_555 1_555
H44 C66 1_555 1_555
H45 C66 1_555 1_555
C67 C68 1_555 1_555
C68 C69 1_555 1_555
C69 H46 1_555 1_555
C70 C69 1_555 1_555
C71 C70 1_555 1_555
C72 C56 1_555 1_555
C73 H47 1_555 1_555
H49 C73 1_555 1_555
C74 H50 1_555 1_555
H51 C74 1_555 1_555
H52 C74 1_555 1_555
C75_2 C68 1_555 1_555
C80 C70 1_555 1_555
C81 C80 1_555 1_555
H57 C81 1_555 1_555
C82 C81 1_555 1_555
H58 C82 1_555 1_555
C83 C82 1_555 1_555
C84 C83 1_555 1_555
H59 C84 1_555 1_555
C85 C80 1_555 1_555
H60 C85 1_555 1_555
C86 C83 1_555 1_555
O17 C57 1_555 1_555
O18 C55 1_555 1_555
O19 C67 1_555 1_555
O20 C71 1_555 1_555
O36 C86 1_555 1_555
C50 C51 1_555 1_555
C56 C57 1_555 1_555
C58 O17 1_555 1_555
C59 C64 1_555 1_555
C63 C64 1_555 1_555
C66 O18 1_555 1_555
C67 C72 1_555 1_555
C71 C72 1_555 1_555
C73 O19 1_555 1_555
C74 O20 1_555 1_555
C84 C85 1_555 1_555
Tb12 O21 1_555 1_555
C32_2 C31_2 1_555 1_555
H21_2 C32_2 1_555 1_555
C33_2 C32_2 1_555 1_555
C34_2 C33_2 1_555 1_555
H22_2 C34_2 1_555 1_555
C36_2 C33_2 1_555 1_555
O9 C36_2 1_555 1_555
O10 C36_2 1_555 1_555
C50_2 C49_2 1_555 1_555
H33_2 C50_2 1_555 1_555
H34_2 C51_2 1_555 1_555
C52_2 C49_2 1_555 1_555
C53_2 C52_2 1_555 1_555
C54_2 C53_2 1_555 1_555
C55_2 C54_2 1_555 1_555
C56_2 C55_2 1_555 1_555
C57_2 C52_2 1_555 1_555
C58_2 H36_2 1_555 1_555
H37_2 C58_2 1_555 1_555
H38_2 C58_2 1_555 1_555
C59_2 H39_2 1_555 1_555
H42_2 C63_2 1_555 1_555
C64_2 C54_2 1_555 1_555
C66_2 H43_2 1_555 1_555
H44_2 C66_2 1_555 1_555
H45_2 C66_2 1_555 1_555
C67_2 C68_2 1_555 1_555
C68_2 C69_2 1_555 1_555
C69_2 H46_2 1_555 1_555
C70_2 C69_2 1_555 1_555
C71_2 C70_2 1_555 1_555
C72_2 C56_2 1_555 1_555
C73_2 H47_2 1_555 1_555
H49_2 C73_2 1_555 1_555
C74_2 H50_2 1_555 1_555
H51_2 C74_2 1_555 1_555
H52_2 C74_2 1_555 1_555
C75_3 C68_2 1_555 1_555
C80_2 C70_2 1_555 1_555
C81_2 C80_2 1_555 1_555
H57_2 C81_2 1_555 1_555
C82_2 C81_2 1_555 1_555
H58_2 C82_2 1_555 1_555
C83_2 C82_2 1_555 1_555
C84_2 C83_2 1_555 1_555
H59_2 C84_2 1_555 1_555
C85_2 C80_2 1_555 1_555
H60_2 C85_2 1_555 1_555
C86_2 C83_2 1_555 1_555
O17_2 C57_2 1_555 1_555
O18_2 C55_2 1_555 1_555
O19_2 C67_2 1_555 1_555
O20_2 C71_2 1_555 1_555
O22 C86_2 1_555 1_555
Tb6 O10 1_555 1_555
Tb12 O9 1_555 1_555
C50_2 C51_2 1_555 1_555
C56_2 C57_2 1_555 1_555
C58_2 O17_2 1_555 1_555
C59_2 C64_2 1_555 1_555
C63_2 C64_2 1_555 1_555
C66_2 O18_2 1_555 1_555
C67_2 C72_2 1_555 1_555
C71_2 C72_2 1_555 1_555
C73_2 O19_2 1_555 1_555
C74_2 O20_2 1_555 1_555
C84_2 C85_2 1_555 1_555
C76_2 C75_4 1_555 1_555
H53_2 C76_2 1_555 1_555
C77_2 C76_2 1_555 1_555
H54_2 C77_2 1_555 1_555
C78_2 H55_2 1_555 1_555
C79_2 C75_4 1_555 1_555
O25 C87_2 1_555 1_555
O26 C87_2 1_555 1_555
C87_2 C88_2 1_555 1_555
C88_2 C77_2 1_555 1_555
Tb6 O26 1_555 1_555
Tb12 O25 1_555 1_555
C78_2 C79_2 1_555 1_555
C78_2 C88_2 1_555 1_555
C8_2 C5_2 1_555 1_555
C9_2 C8_2 1_555 1_555
C10_2 C9_2 1_555 1_555
C11_2 C10_2 1_555 1_555
C12_2 C11_2 1_555 1_555
C13_2 C8_2 1_555 1_555
H5_2 C13_2 1_555 1_555
C14_2 H6_2 1_555 1_555
H8_2 C14_2 1_555 1_555
C15_2 C12_2 1_555 1_555
C16_2 C15_2 1_555 1_555
H9_2 C16_2 1_555 1_555
C17_2 C16_2 1_555 1_555
H10_2 C17_2 1_555 1_555
C18_2 C17_2 1_555 1_555
C19_2 C18_2 1_555 1_555
H11_2 C19_2 1_555 1_555
C20_2 C15_2 1_555 1_555
H12_2 C20_2 1_555 1_555
C21_2 C18_2 1_555 1_555
C22_2 C10_2 1_555 1_555
C23_2 C22_2 1_555 1_555
C24_2 C23_2 1_555 1_555
C25_2 C24_2 1_555 1_555
H13_2 C25_2 1_555 1_555
C26_2 C25_2 1_555 1_555
C27_2 C22_2 1_555 1_555
C28_2 H14_2 1_555 1_555
H15_2 C28_2 1_555 1_555
H16_2 C28_2 1_555 1_555
C29_2 H17_2 1_555 1_555
H18_2 C29_2 1_555 1_555
H19_2 C29_2 1_555 1_555
C30_2 C26_2 1_555 1_555
C35_2 C30_2 1_555 1_555
H23_2 C35_2 1_555 1_555
C37_2 C24_2 1_555 1_555
C38_2 C37_2 1_555 1_555
H24_2 C38_2 1_555 1_555
C39_2 C38_2 1_555 1_555
H25_2 C39_2 1_555 1_555
C40_2 C39_2 1_555 1_555
C41_2 C40_2 1_555 1_555
H26_2 C41_2 1_555 1_555
C42_2 C37_2 1_555 1_555
H27_2 C42_2 1_555 1_555
O3 C21_2 1_555 1_555
O4 C21_2 1_555 1_555
O5_2 C11_2 1_555 1_555
O6_2 C9_2 1_555 1_555
O7_2 C27_2 1_555 1_555
O8_2 C23_2 1_555 1_555
O11_2 C44_2 1_555 1_555
C43_2 O5_2 1_555 1_555
H28_2 C43_2 1_555 1_555
H29_2 C43_2 1_555 1_555
H30_2 C43_2 1_555 1_555
O31 C44_2 1_555 1_555
C44_2 C40_2 1_555 1_555
C45_2 C46_2 1_555 1_555
C46_2 C47_2 1_555 1_555
C47_2 H31_2 1_555 1_555
C48_2 C47_2 1_555 1_555
H32_2 C48_2 1_555 1_555
H40_2 C60_2 1_555 1_555
C61_2 C60_2 1_555 1_555
C62_2 C61_2 1_555 1_555
H41_2 C62_2 1_555 1_555
C65_2 C61_2 1_555 1_555
O32 C45_2 1_555 1_555
O14_2 C45_2 1_555 1_555
O15 C65_2 1_555 1_555
O16 C65_2 1_555 1_555
Tb4 O11_2 1_555 1_555
Tb6 O3 1_555 1_555
C12_2 C13_2 1_555 1_555
C14_2 O6_2 1_555 1_555
C19_2 C20_2 1_555 1_555
C26_2 C27_2 1_555 1_555
C28_2 O8_2 1_555 1_555
C29_2 O7_2 1_555 1_555
C41_2 C42_2 1_555 1_555
O4 Tb6 1_555 1_555
O32 Tb4 1_555 1_555
O14_2 Tb4 1_555 1_555
C1_2 C2_2 1_555 1_555
C2_2 C3_2 1_555 1_555
C3_2 H1_2 1_555 1_555
C4_2 C3_2 1_555 1_555
C7_2 C2_2 1_555 1_555
H4_2 C7_2 1_555 1_555
O1_2 C1_2 1_555 1_555
O2_2 C1_2 1_555 1_555
O23_2 Tb12 1_555 1_555
O24_2 Tb12 1_555 1_555
Tb6 O1_2 1_555 1_555
Tb12 O2_2 1_555 1_555
C6_2 C7_2 1_555 1_555
O2_2 Tb6 1_555 1_555
O23_2 H61_2 1_555 1_555
O23_2 H62_2 1_555 1_555
O24_2 H63_2 1_555 1_555
O24_2 H64_2 1_555 1_555

#END
