
###############################################################################
#
# This file contains modified crystal structure data generated from the
# MOF subset of the Cambridge Structural Database (CSD) v543 
# hosted by the Cambridge Crystallographic Data Centre (CCDC).
#
# This work is licensed under the Creative Commons
# Attribution-NonCommercial-ShareAlike 4.0 International License.
# To view a copy of this license, visit
# http://creativecommons.org/licenses/by-nc-sa/4.0/
# or send a letter to
# Creative Commons, PO Box 1866, Mountain View, CA 94042, USA.
#
# CIF created using the CSD Python API on 29 September 2022
# The structure has been converted into the P1 space group
# The structure has a 3D framework
# The original CSD entry WUZDOL is in the tetragonal crystal system
# The framework has been calculated to contain at least 10.0% void space
# The void calculation uses a probe of radius 1.32A, grid spacing 0.4
#
###############################################################################

data_WUZDOL
_chemical_formula_moiety         '(C104 H192 Cu40 I40 N40)n'
_symmetry_cell_setting           triclinic
_symmetry_space_group_name_H-M   'P 1'
_symmetry_Int_Tables_number      1
_space_group_name_Hall           'P 1'
loop_
_symmetry_equiv_pos_site_id
_symmetry_equiv_pos_as_xyz
1 x,y,z
_cell_length_a                   17.0280(2)
_cell_length_b                   17.0280(2)
_cell_length_c                   23.1439(6)
_cell_angle_alpha                90
_cell_angle_beta                 90
_cell_angle_gamma                90
_cell_volume                     6710.64
loop_
_atom_site_label
_atom_site_type_symbol
_atom_site_fract_x
_atom_site_fract_y
_atom_site_fract_z
Cu4 Cu -0.0000 0.161432(18) 0.734242(13)
N3 N -0.0000 0.05844(12) 0.78658(8)
C11 C 0.06968(11) 0.05511(11) 0.82510(8)
H20 H 0.1171 0.0577 0.8019
H23 H 0.0692 0.1001 0.8508
I1 I -0.0000 0.875960(9) 0.009395(6)
N1 N 0.19156(12) 0.7500 0.03658(8)
N2 N 0.3194 0.75000(12) 0.09948(8)
C1 C 0.26336(15) 0.7500 0.00033(11)
C2 C 0.33820(15) 0.7500 0.03675(10)
H2 H 0.3692 0.7961 0.0275
C3 C 0.27081(10) 0.82033(10) 0.11113(7)
H3 H 0.2575 0.8220 0.1519
H4 H 0.3008 0.8672 0.1021
C4 C 0.19489(11) 0.81968(11) 0.07510(8)
H5 H 0.1923 0.8671 0.0519
H6 H 0.1499 0.8192 0.1008
Cu6 Cu 0.4219 0.750000(18) 0.150060(13)
I3 I -0.0000 0.624040(9) 0.009395(6)
H10 H 0.3692 0.7039 0.0275
C7 C 0.27081(10) 0.67967(10) 0.11113(7)
H13 H 0.2575 0.6780 0.1519
H16 H 0.3008 0.6328 0.1021
C10 C 0.19489(11) 0.68032(11) 0.07510(8)
H19 H 0.1923 0.6329 0.0519
H22 H 0.1499 0.6808 0.1008
Cu1 Cu 0.088568(18) 0.7500 0.984242(13)
Cu2 Cu -0.000000(18) 0.8281 0.900060(13)
I2 I 0.131123(9) 0.7500 0.871984(7)
H1 H 0.2631 0.7039 0.9757
Cu5 Cu -0.000000(18) 0.6719 0.900060(13)
N5 N -0.00000(12) 0.9306 0.84948(8)
N6 N -0.00000(12) 0.5694 0.84948(8)
C5 C -0.0000 0.98664(15) 0.75033(11)
H7 H 0.2631 0.7961 0.9757
H9 H 0.0461 0.9869 0.7257
C6 C -0.0000 0.91180(15) 0.78675(10)
H11 H 0.0461 0.8808 0.7775
C8 C 0.07033(10) 0.97919(10) 0.86113(7)
H14 H 0.0720 0.9925 0.9019
H17 H 0.1172 0.9492 0.8521
Cu4_2 Cu 1.0000 0.161432(18) 0.734242(13)
N3_2 N 1.0000 0.05844(12) 0.78658(8)
C12 C 0.93032(11) 0.05511(11) 0.82510(8)
H21 H 0.8829 0.0577 0.8019
H24 H 0.9308 0.1001 0.8508
I1_2 I 1.0000 0.875960(9) 0.009395(6)
I3_2 I 1.0000 0.624040(9) 0.009395(6)
N4 N 0.80844(12) 0.7500 0.03658(8)
Cu2_2 Cu 1.000000(18) 0.8281 0.900060(13)
Cu3 Cu 0.911432(18) 0.7500 0.984242(13)
Cu5_2 Cu 1.000000(18) 0.6719 0.900060(13)
I4 I 0.868877(9) 0.7500 0.871984(7)
N5_2 N 1.00000(12) 0.9306 0.84948(8)
N6_2 N 1.00000(12) 0.5694 0.84948(8)
C5_2 C 1.0000 0.98664(15) 0.75033(11)
H8 H 0.9539 0.9869 0.7257
C6_2 C 1.0000 0.91180(15) 0.78675(10)
H12 H 0.9539 0.8808 0.7775
C9 C 0.92967(10) 0.97919(10) 0.86113(7)
H15 H 0.9280 0.9925 0.9019
H18 H 0.8828 0.9492 0.8521
Cu1_2 Cu 0.411432(18) 0.2500 0.484242(13)
Cu2_3 Cu 0.500000(18) 0.1719 0.400060(13)
I1_3 I 0.5000 0.124040(9) 0.509395(6)
I2_2 I 0.368877(9) 0.2500 0.371984(7)
N1_2 N 0.30844(12) 0.2500 0.53658(8)
N2_2 N 0.1806 0.25000(12) 0.59948(8)
C1_2 C 0.23664(15) 0.2500 0.50033(11)
H1_2 H 0.2369 0.2961 0.4757
C2_2 C 0.16180(15) 0.2500 0.53675(10)
H2_2 H 0.1308 0.2039 0.5275
C3_2 C 0.22919(10) 0.17967(10) 0.61113(7)
H3_2 H 0.2425 0.1780 0.6519
H4_2 H 0.1992 0.1328 0.6021
C4_2 C 0.30511(11) 0.18032(11) 0.57510(8)
H5_2 H 0.3077 0.1329 0.5519
H6_2 H 0.3501 0.1808 0.6008
Cu3_2 Cu 0.588568(18) 0.2500 0.484242(13)
Cu5_3 Cu 0.500000(18) 0.3281 0.400060(13)
Cu6_2 Cu 0.0781 0.250000(18) 0.650060(13)
I3_3 I 0.5000 0.375960(9) 0.509395(6)
I4_2 I 0.631123(9) 0.2500 0.371984(7)
N4_2 N 0.69156(12) 0.2500 0.53658(8)
N5_3 N 0.50000(12) 0.0694 0.34948(8)
N6_3 N 0.50000(12) 0.4306 0.34948(8)
C5_3 C 0.5000 0.01336(15) 0.25033(11)
H7_2 H 0.2369 0.2039 0.4757
H8_2 H 0.5461 0.0131 0.2257
H9_2 H 0.4539 0.0131 0.2257
C6_3 C 0.5000 0.08820(15) 0.28675(10)
H10_2 H 0.1308 0.2961 0.5275
H11_2 H 0.4539 0.1192 0.2775
H12_2 H 0.5461 0.1192 0.2775
C7_2 C 0.22919(10) 0.32033(10) 0.61113(7)
C8_2 C 0.42967(10) 0.02081(10) 0.36113(7)
C9_2 C 0.57033(10) 0.02081(10) 0.36113(7)
H13_2 H 0.2425 0.3220 0.6519
H14_2 H 0.4280 0.0075 0.4019
H15_2 H 0.5720 0.0075 0.4019
H16_2 H 0.1992 0.3672 0.6021
H17_2 H 0.3828 0.0508 0.3521
H18_2 H 0.6172 0.0508 0.3521
C10_2 C 0.30511(11) 0.31968(11) 0.57510(8)
H19_2 H 0.3077 0.3671 0.5519
H22_2 H 0.3501 0.3192 0.6008
Cu4_3 Cu 0.5000 0.838568(18) 0.234242(13)
N3_3 N 0.5000 0.94156(12) 0.28658(8)
C11_2 C 0.43032(11) 0.94489(11) 0.32510(8)
C12_2 C 0.56968(11) 0.94489(11) 0.32510(8)
H20_2 H 0.3829 0.9423 0.3019
H21_2 H 0.6171 0.9423 0.3019
H23_2 H 0.4308 0.8999 0.3508
H24_2 H 0.5692 0.8999 0.3508
I1_4 I 0.374040(9) 0.7500 0.259395(6)
I2_3 I 0.5000 0.881123(9) 0.121984(7)
Cu3_3 Cu 0.5000 0.661432(18) 0.234242(13)
Cu5_4 Cu 0.5781 0.750000(18) 0.150060(13)
I3_4 I 0.625960(9) 0.7500 0.259395(6)
I4_3 I 0.5000 0.618877(9) 0.121984(7)
N4_3 N 0.5000 0.55844(12) 0.28658(8)
N6_4 N 0.6806 0.75000(12) 0.09948(8)
I1_5 I 0.125960(9) 0.2500 0.759395(6)
I2_4 I -0.0000 0.118877(9) 0.621984(7)
Cu3_4 Cu 0.0000 0.338568(18) 0.734242(13)
I4_4 I 0.0000 0.381123(9) 0.621984(7)
N4_4 N 0.0000 0.44156(12) 0.78658(8)
I2_5 I 1.0000 0.118877(9) 0.621984(7)
Cu3_5 Cu 1.0000 0.338568(18) 0.734242(13)
Cu5_5 Cu 0.9219 0.250000(18) 0.650060(13)
I3_5 I 0.874040(9) 0.2500 0.759395(6)
I4_5 I 1.0000 0.381123(9) 0.621984(7)
N4_5 N 1.0000 0.44156(12) 0.78658(8)
N6_5 N 0.8194 0.25000(12) 0.59948(8)
C1_3 C 0.76336(15) 0.2500 0.50033(11)
H1_3 H 0.7631 0.2039 0.4757
C2_3 C 0.83820(15) 0.2500 0.53675(10)
H2_3 H 0.8692 0.2961 0.5275
C3_3 C 0.77081(10) 0.32033(10) 0.61113(7)
H3_3 H 0.7575 0.3220 0.6519
H4_3 H 0.8008 0.3672 0.6021
C4_3 C 0.69489(11) 0.31968(11) 0.57510(8)
H5_3 H 0.6923 0.3671 0.5519
H6_3 H 0.6499 0.3192 0.6008
C5_4 C 0.5000 0.48664(15) 0.25033(11)
H7_3 H 0.7631 0.2961 0.4757
H8_3 H 0.4539 0.4869 0.2257
H9_3 H 0.5461 0.4869 0.2257
C6_4 C 0.5000 0.41180(15) 0.28675(10)
H10_3 H 0.8692 0.2039 0.5275
H11_3 H 0.5461 0.3808 0.2775
H12_3 H 0.4539 0.3808 0.2775
C7_3 C 0.77081(10) 0.17967(10) 0.61113(7)
C8_3 C 0.57033(10) 0.47919(10) 0.36113(7)
C9_3 C 0.42967(10) 0.47919(10) 0.36113(7)
H13_3 H 0.7575 0.1780 0.6519
H14_3 H 0.5720 0.4925 0.4019
H15_3 H 0.4280 0.4925 0.4019
H16_3 H 0.8008 0.1328 0.6021
H17_3 H 0.6172 0.4492 0.3521
H18_3 H 0.3828 0.4492 0.3521
C10_3 C 0.69489(11) 0.18032(11) 0.57510(8)
C11_3 C 0.56968(11) 0.55511(11) 0.32510(8)
C12_3 C 0.43032(11) 0.55511(11) 0.32510(8)
H19_3 H 0.6923 0.1329 0.5519
H20_3 H 0.6171 0.5577 0.3019
H21_3 H 0.3829 0.5577 0.3019
H22_3 H 0.6499 0.1808 0.6008
H23_3 H 0.5692 0.6001 0.3508
H24_3 H 0.4308 0.6001 0.3508
C5_5 C 0.0000 0.51336(15) 0.75033(11)
H8_4 H 0.0461 0.5131 0.7257
C6_5 C 0.0000 0.58820(15) 0.78675(10)
H12_4 H 0.0461 0.6192 0.7775
C9_4 C 0.07033(10) 0.52081(10) 0.86113(7)
H15_4 H 0.0720 0.5075 0.9019
H18_4 H 0.1172 0.5508 0.8521
C12_4 C 0.06968(11) 0.44489(11) 0.82510(8)
H21_4 H 0.1171 0.4423 0.8019
H24_4 H 0.0692 0.3999 0.8508
C1_4 C 0.73664(15) 0.7500 0.00033(11)
C2_4 C 0.66180(15) 0.7500 0.03675(10)
H2_4 H 0.6308 0.7039 0.0275
C3_4 C 0.72919(10) 0.67967(10) 0.11113(7)
H3_4 H 0.7425 0.6780 0.1519
H4_4 H 0.6992 0.6328 0.1021
C4_4 C 0.80511(11) 0.68032(11) 0.07510(8)
H5_4 H 0.8077 0.6329 0.0519
H6_4 H 0.8501 0.6808 0.1008
H10_4 H 0.6308 0.7961 0.0275
C7_4 C 0.72919(10) 0.82033(10) 0.11113(7)
H13_4 H 0.7425 0.8220 0.1519
H16_4 H 0.6992 0.8672 0.1021
C10_4 C 0.80511(11) 0.81968(11) 0.07510(8)
H19_4 H 0.8077 0.8671 0.0519
H22_4 H 0.8501 0.8192 0.1008
H1_4 H 0.7369 0.7961 0.9757
C5_6 C 1.0000 0.51336(15) 0.75033(11)
H7_4 H 0.7369 0.7039 0.9757
H9_4 H 0.9539 0.5131 0.7257
C6_6 C 1.0000 0.58820(15) 0.78675(10)
H11_4 H 0.9539 0.6192 0.7775
C8_4 C 0.92967(10) 0.52081(10) 0.86113(7)
H14_4 H 0.9280 0.5075 0.9019
H17_4 H 0.8828 0.5508 0.8521
C11_4 C 0.93032(11) 0.44489(11) 0.82510(8)
H20_4 H 0.8829 0.4423 0.8019
H23_4 H 0.9308 0.3999 0.8508
Cu4_4 Cu 0.5000 0.161432(18) 0.765758(13)
N3_4 N 0.5000 0.05844(12) 0.71342(8)
C11_5 C 0.43032(11) 0.05511(11) 0.67490(8)
C12_5 C 0.56968(11) 0.05511(11) 0.67490(8)
H20_5 H 0.3829 0.0577 0.6981
H21_5 H 0.6171 0.0577 0.6981
H23_5 H 0.4308 0.1001 0.6492
H24_5 H 0.5692 0.1001 0.6492
Cu1_3 Cu 0.411432(18) 0.7500 0.515758(13)
Cu2_4 Cu 0.500000(18) 0.8281 0.599940(13)
I1_6 I 0.5000 0.875960(9) 0.490605(6)
I2_6 I 0.368877(9) 0.7500 0.628016(7)
N1_3 N 0.30844(12) 0.7500 0.46342(8)
N2_3 N 0.1806 0.75000(12) 0.40052(8)
C1_5 C 0.23664(15) 0.7500 0.49967(11)
H1_5 H 0.2369 0.7039 0.5243
C2_5 C 0.16180(15) 0.7500 0.46325(10)
H2_5 H 0.1308 0.7961 0.4725
C3_5 C 0.22919(10) 0.82033(10) 0.38887(7)
H3_5 H 0.2425 0.8220 0.3481
H4_5 H 0.1992 0.8672 0.3979
C4_5 C 0.30511(11) 0.81968(11) 0.42490(8)
H5_5 H 0.3077 0.8671 0.4481
H6_5 H 0.3501 0.8192 0.3992
Cu3_6 Cu 0.588568(18) 0.7500 0.515758(13)
Cu5_6 Cu 0.500000(18) 0.6719 0.599940(13)
Cu6_3 Cu 0.0781 0.750000(18) 0.349940(13)
I3_6 I 0.5000 0.624040(9) 0.490605(6)
I4_6 I 0.631123(9) 0.7500 0.628016(7)
N4_6 N 0.69156(12) 0.7500 0.46342(8)
N5_4 N 0.50000(12) 0.9306 0.65052(8)
N6_6 N 0.50000(12) 0.5694 0.65052(8)
C5_7 C 0.5000 0.98664(15) 0.74967(11)
H7_5 H 0.2369 0.7961 0.5243
H8_5 H 0.5461 0.9869 0.7743
H9_5 H 0.4539 0.9869 0.7743
C6_7 C 0.5000 0.91180(15) 0.71325(10)
H10_5 H 0.1308 0.7039 0.4725
H11_5 H 0.4539 0.8808 0.7225
H12_5 H 0.5461 0.8808 0.7225
C7_5 C 0.22919(10) 0.67967(10) 0.38887(7)
C8_5 C 0.42967(10) 0.97919(10) 0.63887(7)
C9_5 C 0.57033(10) 0.97919(10) 0.63887(7)
H13_5 H 0.2425 0.6780 0.3481
H14_5 H 0.4280 0.9925 0.5981
H15_5 H 0.5720 0.9925 0.5981
H16_5 H 0.1992 0.6328 0.3979
H17_5 H 0.3828 0.9492 0.6479
H18_5 H 0.6172 0.9492 0.6479
C10_5 C 0.30511(11) 0.68032(11) 0.42490(8)
H19_5 H 0.3077 0.6329 0.4481
H22_5 H 0.3501 0.6808 0.3992
Cu1_4 Cu 0.088568(18) 0.2500 0.015758(13)
Cu2_5 Cu -0.000000(18) 0.1719 0.099940(13)
I2_7 I 0.131123(9) 0.2500 0.128016(7)
H1_6 H 0.2631 0.2961 0.0243
Cu5_7 Cu -0.000000(18) 0.3281 0.099940(13)
N5_5 N -0.00000(12) 0.0694 0.15052(8)
N6_7 N -0.00000(12) 0.4306 0.15052(8)
C5_8 C -0.0000 0.01336(15) 0.24967(11)
H7_6 H 0.2631 0.2039 0.0243
H9_6 H 0.0461 0.0131 0.2743
C6_8 C -0.0000 0.08820(15) 0.21325(10)
H11_6 H 0.0461 0.1192 0.2225
C8_6 C 0.07033(10) 0.02081(10) 0.13887(7)
H14_6 H 0.0720 0.0075 0.0981
H17_6 H 0.1172 0.0508 0.1479
I1_7 I -0.0000 0.124040(9) 0.990605(6)
N1_4 N 0.19156(12) 0.2500 0.96342(8)
N2_4 N 0.3194 0.25000(12) 0.90052(8)
C1_6 C 0.26336(15) 0.2500 0.99967(11)
C2_6 C 0.33820(15) 0.2500 0.96325(10)
H2_6 H 0.3692 0.2039 0.9725
C3_6 C 0.27081(10) 0.17967(10) 0.88887(7)
H3_6 H 0.2575 0.1780 0.8481
H4_6 H 0.3008 0.1328 0.8979
C4_6 C 0.19489(11) 0.18032(11) 0.92490(8)
H5_6 H 0.1923 0.1329 0.9481
H6_6 H 0.1499 0.1808 0.8992
Cu6_4 Cu 0.4219 0.250000(18) 0.849940(13)
I3_7 I -0.0000 0.375960(9) 0.990605(6)
H10_6 H 0.3692 0.2961 0.9725
C7_6 C 0.27081(10) 0.32033(10) 0.88887(7)
H13_6 H 0.2575 0.3220 0.8481
H16_6 H 0.3008 0.3672 0.8979
C10_6 C 0.19489(11) 0.31968(11) 0.92490(8)
H19_6 H 0.1923 0.3671 0.9481
H22_6 H 0.1499 0.3192 0.8992
Cu4_5 Cu -0.0000 0.838568(18) 0.265758(13)
N3_5 N -0.0000 0.94156(12) 0.21342(8)
C11_6 C 0.06968(11) 0.94489(11) 0.17490(8)
H20_6 H 0.1171 0.9423 0.1981
H23_6 H 0.0692 0.8999 0.1492
Cu2_6 Cu 1.000000(18) 0.1719 0.099940(13)
Cu3_7 Cu 0.911432(18) 0.2500 0.015758(13)
Cu5_8 Cu 1.000000(18) 0.3281 0.099940(13)
I4_7 I 0.868877(9) 0.2500 0.128016(7)
N5_6 N 1.00000(12) 0.0694 0.15052(8)
N6_8 N 1.00000(12) 0.4306 0.15052(8)
C5_9 C 1.0000 0.01336(15) 0.24967(11)
H8_6 H 0.9539 0.0131 0.2743
C6_9 C 1.0000 0.08820(15) 0.21325(10)
H12_6 H 0.9539 0.1192 0.2225
C9_6 C 0.92967(10) 0.02081(10) 0.13887(7)
H15_6 H 0.9280 0.0075 0.0981
H18_6 H 0.8828 0.0508 0.1479
I1_8 I 1.0000 0.124040(9) 0.990605(6)
I3_8 I 1.0000 0.375960(9) 0.990605(6)
N4_7 N 0.80844(12) 0.2500 0.96342(8)
Cu4_6 Cu 1.0000 0.838568(18) 0.265758(13)
N3_6 N 1.0000 0.94156(12) 0.21342(8)
C12_6 C 0.93032(11) 0.94489(11) 0.17490(8)
H21_6 H 0.8829 0.9423 0.1981
H24_6 H 0.9308 0.8999 0.1492
I1_9 I 0.125960(9) 0.7500 0.240605(6)
I2_8 I 0.0000 0.881123(9) 0.378016(7)
Cu3_8 Cu -0.0000 0.661432(18) 0.265758(13)
I4_8 I 0.0000 0.618877(9) 0.378016(7)
N4_8 N 0.0000 0.55844(12) 0.21342(8)
I2_9 I 1.0000 0.881123(9) 0.378016(7)
Cu3_9 Cu 1.0000 0.661432(18) 0.265758(13)
Cu5_9 Cu 0.9219 0.750000(18) 0.349940(13)
I3_9 I 0.874040(9) 0.7500 0.240605(6)
I4_9 I 1.0000 0.618877(9) 0.378016(7)
N4_9 N 1.0000 0.55844(12) 0.21342(8)
N6_9 N 0.8194 0.75000(12) 0.40052(8)
I1_10 I 0.374040(9) 0.2500 0.740605(6)
I2_10 I 0.5000 0.118877(9) 0.878016(7)
Cu3_10 Cu 0.5000 0.338568(18) 0.765758(13)
Cu5_10 Cu 0.5781 0.250000(18) 0.849940(13)
I3_10 I 0.625960(9) 0.2500 0.740605(6)
I4_10 I 0.5000 0.381123(9) 0.878016(7)
N4_10 N 0.5000 0.44156(12) 0.71342(8)
N6_10 N 0.6806 0.25000(12) 0.90052(8)
C5_10 C 0.0000 0.48664(15) 0.24967(11)
H8_7 H 0.0461 0.4869 0.2743
C6_10 C 0.0000 0.41180(15) 0.21325(10)
H12_7 H 0.0461 0.3808 0.2225
C9_7 C 0.07033(10) 0.47919(10) 0.13887(7)
H15_7 H 0.0720 0.4925 0.0981
H18_7 H 0.1172 0.4492 0.1479
C12_7 C 0.06968(11) 0.55511(11) 0.17490(8)
H21_7 H 0.1171 0.5577 0.1981
H24_7 H 0.0692 0.6001 0.1492
H1_7 H 0.7369 0.2039 0.0243
C5_11 C 1.0000 0.48664(15) 0.24967(11)
H7_7 H 0.7369 0.2961 0.0243
H9_7 H 0.9539 0.4869 0.2743
C6_11 C 1.0000 0.41180(15) 0.21325(10)
H11_7 H 0.9539 0.3808 0.2225
C8_7 C 0.92967(10) 0.47919(10) 0.13887(7)
H14_7 H 0.9280 0.4925 0.0981
H17_7 H 0.8828 0.4492 0.1479
C11_7 C 0.93032(11) 0.55511(11) 0.17490(8)
H20_7 H 0.8829 0.5577 0.1981
H23_7 H 0.9308 0.6001 0.1492
C1_7 C 0.73664(15) 0.2500 0.99967(11)
C2_7 C 0.66180(15) 0.2500 0.96325(10)
H2_7 H 0.6308 0.2961 0.9725
C3_7 C 0.72919(10) 0.32033(10) 0.88887(7)
H3_7 H 0.7425 0.3220 0.8481
H4_7 H 0.6992 0.3672 0.8979
C4_7 C 0.80511(11) 0.31968(11) 0.92490(8)
H5_7 H 0.8077 0.3671 0.9481
H6_7 H 0.8501 0.3192 0.8992
H10_7 H 0.6308 0.2039 0.9725
C7_7 C 0.72919(10) 0.17967(10) 0.88887(7)
H13_7 H 0.7425 0.1780 0.8481
H16_7 H 0.6992 0.1328 0.8979
C10_7 C 0.80511(11) 0.18032(11) 0.92490(8)
H19_7 H 0.8077 0.1329 0.9481
H22_7 H 0.8501 0.1808 0.8992
C1_8 C 0.76336(15) 0.7500 0.49967(11)
H1_8 H 0.7631 0.7961 0.5243
C2_8 C 0.83820(15) 0.7500 0.46325(10)
H2_8 H 0.8692 0.7039 0.4725
C3_8 C 0.77081(10) 0.67967(10) 0.38887(7)
H3_8 H 0.7575 0.6780 0.3481
H4_8 H 0.8008 0.6328 0.3979
C4_8 C 0.69489(11) 0.68032(11) 0.42490(8)
H5_8 H 0.6923 0.6329 0.4481
H6_8 H 0.6499 0.6808 0.3992
C5_12 C 0.5000 0.51336(15) 0.74967(11)
H7_8 H 0.7631 0.7039 0.5243
H8_8 H 0.4539 0.5131 0.7743
H9_8 H 0.5461 0.5131 0.7743
C6_12 C 0.5000 0.58820(15) 0.71325(10)
H10_8 H 0.8692 0.7961 0.4725
H11_8 H 0.5461 0.6192 0.7225
H12_8 H 0.4539 0.6192 0.7225
C7_8 C 0.77081(10) 0.82033(10) 0.38887(7)
C8_8 C 0.57033(10) 0.52081(10) 0.63887(7)
C9_8 C 0.42967(10) 0.52081(10) 0.63887(7)
H13_8 H 0.7575 0.8220 0.3481
H14_8 H 0.5720 0.5075 0.5981
H15_8 H 0.4280 0.5075 0.5981
H16_8 H 0.8008 0.8672 0.3979
H17_8 H 0.6172 0.5508 0.6479
H18_8 H 0.3828 0.5508 0.6479
C10_8 C 0.69489(11) 0.81968(11) 0.42490(8)
C11_8 C 0.56968(11) 0.44489(11) 0.67490(8)
C12_8 C 0.43032(11) 0.44489(11) 0.67490(8)
H19_8 H 0.6923 0.8671 0.4481
H20_8 H 0.6171 0.4423 0.6981
H21_8 H 0.3829 0.4423 0.6981
H22_8 H 0.6499 0.8192 0.3992
H23_8 H 0.5692 0.3999 0.6492
H24_8 H 0.4308 0.3999 0.6492
loop_
_geom_bond_atom_site_label_1
_geom_bond_atom_site_label_2
_geom_bond_site_symmetry_1
_geom_bond_site_symmetry_2
Cu4 N3 1_555 1_555
C11 N3 1_555 1_555
H20 C11 1_555 1_555
H23 C11 1_555 1_555
N2 C2 1_555 1_555
C1 N1 1_555 1_555
C2 C1 1_555 1_555
H2 C2 1_555 1_555
C3 N2 1_555 1_555
H3 C3 1_555 1_555
H4 C3 1_555 1_555
C4 N1 1_555 1_555
H5 C4 1_555 1_555
H6 C4 1_555 1_555
Cu6 N2 1_555 1_555
H10 C2 1_555 1_555
C7 N2 1_555 1_555
H13 C7 1_555 1_555
H16 C7 1_555 1_555
C10 N1 1_555 1_555
H19 C10 1_555 1_555
H22 C10 1_555 1_555
C3 C4 1_555 1_555
C7 C10 1_555 1_555
I2 Cu1 1_555 1_555
Cu5 I2 1_555 1_555
N5 Cu2 1_555 1_555
N6 Cu5 1_555 1_555
H9 C5 1_555 1_555
C6 N5 1_555 1_555
H11 C6 1_555 1_555
C8 N5 1_555 1_555
H14 C8 1_555 1_555
H17 C8 1_555 1_555
Cu2 I2 1_555 1_555
C5 C6 1_555 1_555
Cu4_2 N3_2 1_555 1_555
C12 N3_2 1_555 1_555
H21 C12 1_555 1_555
H24 C12 1_555 1_555
I4 Cu2_2 1_555 1_555
N5_2 Cu2_2 1_555 1_555
N6_2 Cu5_2 1_555 1_555
C5_2 H8 1_555 1_555
C6_2 N5_2 1_555 1_555
H12 C6_2 1_555 1_555
C9 N5_2 1_555 1_555
H15 C9 1_555 1_555
H18 C9 1_555 1_555
Cu3 I4 1_555 1_555
Cu5_2 I4 1_555 1_555
C5_2 C6_2 1_555 1_555
Cu1_2 I1_3 1_555 1_555
Cu2_3 I1_3 1_555 1_555
I1_3 Cu3_2 1_555 1_555
I2_2 Cu1_2 1_555 1_555
N1_2 Cu1_2 1_555 1_555
N2_2 C2_2 1_555 1_555
C1_2 N1_2 1_555 1_555
H1_2 C1_2 1_555 1_555
C2_2 C1_2 1_555 1_555
H2_2 C2_2 1_555 1_555
C3_2 N2_2 1_555 1_555
H3_2 C3_2 1_555 1_555
H4_2 C3_2 1_555 1_555
C4_2 N1_2 1_555 1_555
H5_2 C4_2 1_555 1_555
H6_2 C4_2 1_555 1_555
Cu3_2 I3_3 1_555 1_555
Cu5_3 I2_2 1_555 1_555
Cu6_2 N2_2 1_555 1_555
I3_3 Cu1_2 1_555 1_555
I4_2 Cu2_3 1_555 1_555
N4_2 Cu3_2 1_555 1_555
N5_3 Cu2_3 1_555 1_555
N6_3 Cu5_3 1_555 1_555
C5_3 H8_2 1_555 1_555
H7_2 C1_2 1_555 1_555
H9_2 C5_3 1_555 1_555
C6_3 N5_3 1_555 1_555
H10_2 C2_2 1_555 1_555
H11_2 C6_3 1_555 1_555
H12_2 C6_3 1_555 1_555
C7_2 N2_2 1_555 1_555
C8_2 N5_3 1_555 1_555
C9_2 N5_3 1_555 1_555
H13_2 C7_2 1_555 1_555
H14_2 C8_2 1_555 1_555
H15_2 C9_2 1_555 1_555
H16_2 C7_2 1_555 1_555
H17_2 C8_2 1_555 1_555
H18_2 C9_2 1_555 1_555
C10_2 N1_2 1_555 1_555
H19_2 C10_2 1_555 1_555
H22_2 C10_2 1_555 1_555
Cu2_3 I2_2 1_555 1_555
C3_2 C4_2 1_555 1_555
Cu3_2 I4_2 1_555 1_555
Cu5_3 I3_3 1_555 1_555
Cu5_3 I4_2 1_555 1_555
C5_3 C6_3 1_555 1_555
C7_2 C10_2 1_555 1_555
Cu4_3 N3_3 1_555 1_555
C11_2 N3_3 1_555 1_555
C12_2 N3_3 1_555 1_555
H20_2 C11_2 1_555 1_555
H21_2 C12_2 1_555 1_555
H23_2 C11_2 1_555 1_555
H24_2 C12_2 1_555 1_555
Cu4_3 I1_4 1_555 1_555
Cu6 I1_4 1_555 1_555
I1_4 Cu3_3 1_555 1_555
I2_3 Cu4_3 1_555 1_555
Cu3_3 I3_4 1_555 1_555
Cu5_4 I2_3 1_555 1_555
I3_4 Cu4_3 1_555 1_555
I4_3 Cu6 1_555 1_555
N4_3 Cu3_3 1_555 1_555
N6_4 Cu5_4 1_555 1_555
Cu6 I2_3 1_555 1_555
Cu3_3 I4_3 1_555 1_555
Cu5_4 I3_4 1_555 1_555
Cu5_4 I4_3 1_555 1_555
Cu4 I1_5 1_555 1_555
Cu6_2 I1_5 1_555 1_555
I1_5 Cu3_4 1_555 1_555
I2_4 Cu4 1_555 1_555
I4_4 Cu6_2 1_555 1_555
N4_4 Cu3_4 1_555 1_555
Cu6_2 I2_4 1_555 1_555
Cu3_4 I4_4 1_555 1_555
I2_5 Cu4_2 1_555 1_555
Cu3_5 I3_5 1_555 1_555
Cu5_5 I2_5 1_555 1_555
I3_5 Cu4_2 1_555 1_555
N4_5 Cu3_5 1_555 1_555
N6_5 Cu5_5 1_555 1_555
Cu3_5 I4_5 1_555 1_555
Cu5_5 I3_5 1_555 1_555
Cu5_5 I4_5 1_555 1_555
N6_5 C2_3 1_555 1_555
C1_3 N4_2 1_555 1_555
H1_3 C1_3 1_555 1_555
C2_3 C1_3 1_555 1_555
H2_3 C2_3 1_555 1_555
C3_3 N6_5 1_555 1_555
H3_3 C3_3 1_555 1_555
H4_3 C3_3 1_555 1_555
C4_3 N4_2 1_555 1_555
H5_3 C4_3 1_555 1_555
H6_3 C4_3 1_555 1_555
N4_3 C5_4 1_555 1_555
C5_4 H8_3 1_555 1_555
H7_3 C1_3 1_555 1_555
H9_3 C5_4 1_555 1_555
C6_4 N6_3 1_555 1_555
H10_3 C2_3 1_555 1_555
H11_3 C6_4 1_555 1_555
H12_3 C6_4 1_555 1_555
C7_3 N6_5 1_555 1_555
C8_3 N6_3 1_555 1_555
C9_3 N6_3 1_555 1_555
H13_3 C7_3 1_555 1_555
H14_3 C8_3 1_555 1_555
H15_3 C9_3 1_555 1_555
H16_3 C7_3 1_555 1_555
H17_3 C8_3 1_555 1_555
H18_3 C9_3 1_555 1_555
C10_3 N4_2 1_555 1_555
C11_3 N4_3 1_555 1_555
C12_3 N4_3 1_555 1_555
H19_3 C10_3 1_555 1_555
H20_3 C11_3 1_555 1_555
H21_3 C12_3 1_555 1_555
H22_3 C10_3 1_555 1_555
H23_3 C11_3 1_555 1_555
H24_3 C12_3 1_555 1_555
C3_3 C4_3 1_555 1_555
C5_4 C6_4 1_555 1_555
C7_3 C10_3 1_555 1_555
C8_3 C11_3 1_555 1_555
C9_3 C12_3 1_555 1_555
N4_4 C5_5 1_555 1_555
C5_5 H8_4 1_555 1_555
C6_5 N6 1_555 1_555
H12_4 C6_5 1_555 1_555
C9_4 N6 1_555 1_555
H15_4 C9_4 1_555 1_555
H18_4 C9_4 1_555 1_555
C12_4 N4_4 1_555 1_555
H21_4 C12_4 1_555 1_555
H24_4 C12_4 1_555 1_555
C5_5 C6_5 1_555 1_555
C9_4 C12_4 1_555 1_555
N6_4 C2_4 1_555 1_555
C1_4 N4 1_555 1_555
C2_4 C1_4 1_555 1_555
H2_4 C2_4 1_555 1_555
C3_4 N6_4 1_555 1_555
H3_4 C3_4 1_555 1_555
H4_4 C3_4 1_555 1_555
C4_4 N4 1_555 1_555
H5_4 C4_4 1_555 1_555
H6_4 C4_4 1_555 1_555
H10_4 C2_4 1_555 1_555
C7_4 N6_4 1_555 1_555
H13_4 C7_4 1_555 1_555
H16_4 C7_4 1_555 1_555
C10_4 N4 1_555 1_555
H19_4 C10_4 1_555 1_555
H22_4 C10_4 1_555 1_555
C3_4 C4_4 1_555 1_555
C7_4 C10_4 1_555 1_555
N4_5 C5_6 1_555 1_555
H9_4 C5_6 1_555 1_555
C6_6 N6_2 1_555 1_555
H11_4 C6_6 1_555 1_555
C8_4 N6_2 1_555 1_555
H14_4 C8_4 1_555 1_555
H17_4 C8_4 1_555 1_555
C11_4 N4_5 1_555 1_555
H20_4 C11_4 1_555 1_555
H23_4 C11_4 1_555 1_555
C5_6 C6_6 1_555 1_555
C8_4 C11_4 1_555 1_555
Cu4_4 N3_4 1_555 1_555
C11_5 N3_4 1_555 1_555
C12_5 N3_4 1_555 1_555
H20_5 C11_5 1_555 1_555
H21_5 C12_5 1_555 1_555
H23_5 C11_5 1_555 1_555
H24_5 C12_5 1_555 1_555
Cu1_3 I1_6 1_555 1_555
Cu2_4 I1_6 1_555 1_555
I1_6 Cu3_6 1_555 1_555
I2_6 Cu1_3 1_555 1_555
N1_3 Cu1_3 1_555 1_555
N2_3 C2_5 1_555 1_555
C1_5 N1_3 1_555 1_555
H1_5 C1_5 1_555 1_555
C2_5 C1_5 1_555 1_555
H2_5 C2_5 1_555 1_555
C3_5 N2_3 1_555 1_555
H3_5 C3_5 1_555 1_555
H4_5 C3_5 1_555 1_555
C4_5 N1_3 1_555 1_555
H5_5 C4_5 1_555 1_555
H6_5 C4_5 1_555 1_555
Cu3_6 I3_6 1_555 1_555
Cu5_6 I2_6 1_555 1_555
Cu6_3 N2_3 1_555 1_555
I3_6 Cu1_3 1_555 1_555
I4_6 Cu2_4 1_555 1_555
N4_6 Cu3_6 1_555 1_555
N5_4 Cu2_4 1_555 1_555
N6_6 Cu5_6 1_555 1_555
C5_7 H8_5 1_555 1_555
H7_5 C1_5 1_555 1_555
H9_5 C5_7 1_555 1_555
C6_7 N5_4 1_555 1_555
H10_5 C2_5 1_555 1_555
H11_5 C6_7 1_555 1_555
H12_5 C6_7 1_555 1_555
C7_5 N2_3 1_555 1_555
C8_5 N5_4 1_555 1_555
C9_5 N5_4 1_555 1_555
H13_5 C7_5 1_555 1_555
H14_5 C8_5 1_555 1_555
H15_5 C9_5 1_555 1_555
H16_5 C7_5 1_555 1_555
H17_5 C8_5 1_555 1_555
H18_5 C9_5 1_555 1_555
C10_5 N1_3 1_555 1_555
H19_5 C10_5 1_555 1_555
H22_5 C10_5 1_555 1_555
Cu2_4 I2_6 1_555 1_555
C3_5 C4_5 1_555 1_555
Cu3_6 I4_6 1_555 1_555
Cu5_6 I3_6 1_555 1_555
Cu5_6 I4_6 1_555 1_555
C5_7 C6_7 1_555 1_555
C7_5 C10_5 1_555 1_555
I2_7 Cu1_4 1_555 1_555
Cu5_7 I2_7 1_555 1_555
N5_5 Cu2_5 1_555 1_555
N6_7 Cu5_7 1_555 1_555
H9_6 C5_8 1_555 1_555
C6_8 N5_5 1_555 1_555
H11_6 C6_8 1_555 1_555
C8_6 N5_5 1_555 1_555
H14_6 C8_6 1_555 1_555
H17_6 C8_6 1_555 1_555
Cu2_5 I2_7 1_555 1_555
C5_8 C6_8 1_555 1_555
N2_4 C2_6 1_555 1_555
C1_6 N1_4 1_555 1_555
C2_6 C1_6 1_555 1_555
H2_6 C2_6 1_555 1_555
C3_6 N2_4 1_555 1_555
H3_6 C3_6 1_555 1_555
H4_6 C3_6 1_555 1_555
C4_6 N1_4 1_555 1_555
H5_6 C4_6 1_555 1_555
H6_6 C4_6 1_555 1_555
Cu6_4 N2_4 1_555 1_555
H10_6 C2_6 1_555 1_555
C7_6 N2_4 1_555 1_555
H13_6 C7_6 1_555 1_555
H16_6 C7_6 1_555 1_555
C10_6 N1_4 1_555 1_555
H19_6 C10_6 1_555 1_555
H22_6 C10_6 1_555 1_555
C3_6 C4_6 1_555 1_555
C7_6 C10_6 1_555 1_555
Cu4_5 N3_5 1_555 1_555
C11_6 N3_5 1_555 1_555
H20_6 C11_6 1_555 1_555
H23_6 C11_6 1_555 1_555
I4_7 Cu2_6 1_555 1_555
N5_6 Cu2_6 1_555 1_555
N6_8 Cu5_8 1_555 1_555
C5_9 H8_6 1_555 1_555
C6_9 N5_6 1_555 1_555
H12_6 C6_9 1_555 1_555
C9_6 N5_6 1_555 1_555
H15_6 C9_6 1_555 1_555
H18_6 C9_6 1_555 1_555
Cu3_7 I4_7 1_555 1_555
Cu5_8 I4_7 1_555 1_555
C5_9 C6_9 1_555 1_555
Cu4_6 N3_6 1_555 1_555
C12_6 N3_6 1_555 1_555
H21_6 C12_6 1_555 1_555
H24_6 C12_6 1_555 1_555
Cu4_5 I1_9 1_555 1_555
Cu6_3 I1_9 1_555 1_555
I1_9 Cu3_8 1_555 1_555
I2_8 Cu4_5 1_555 1_555
I4_8 Cu6_3 1_555 1_555
N4_8 Cu3_8 1_555 1_555
Cu6_3 I2_8 1_555 1_555
Cu3_8 I4_8 1_555 1_555
I2_9 Cu4_6 1_555 1_555
Cu3_9 I3_9 1_555 1_555
Cu5_9 I2_9 1_555 1_555
I3_9 Cu4_6 1_555 1_555
N4_9 Cu3_9 1_555 1_555
N6_9 Cu5_9 1_555 1_555
Cu3_9 I4_9 1_555 1_555
Cu5_9 I3_9 1_555 1_555
Cu5_9 I4_9 1_555 1_555
Cu4_4 I1_10 1_555 1_555
Cu6_4 I1_10 1_555 1_555
I1_10 Cu3_10 1_555 1_555
I2_10 Cu4_4 1_555 1_555
Cu3_10 I3_10 1_555 1_555
Cu5_10 I2_10 1_555 1_555
I3_10 Cu4_4 1_555 1_555
I4_10 Cu6_4 1_555 1_555
N4_10 Cu3_10 1_555 1_555
N6_10 Cu5_10 1_555 1_555
Cu6_4 I2_10 1_555 1_555
Cu3_10 I4_10 1_555 1_555
Cu5_10 I3_10 1_555 1_555
Cu5_10 I4_10 1_555 1_555
N4_8 C5_10 1_555 1_555
C5_10 H8_7 1_555 1_555
C6_10 N6_7 1_555 1_555
H12_7 C6_10 1_555 1_555
C9_7 N6_7 1_555 1_555
H15_7 C9_7 1_555 1_555
H18_7 C9_7 1_555 1_555
C12_7 N4_8 1_555 1_555
H21_7 C12_7 1_555 1_555
H24_7 C12_7 1_555 1_555
C5_10 C6_10 1_555 1_555
C9_7 C12_7 1_555 1_555
N4_9 C5_11 1_555 1_555
H9_7 C5_11 1_555 1_555
C6_11 N6_8 1_555 1_555
H11_7 C6_11 1_555 1_555
C8_7 N6_8 1_555 1_555
H14_7 C8_7 1_555 1_555
H17_7 C8_7 1_555 1_555
C11_7 N4_9 1_555 1_555
H20_7 C11_7 1_555 1_555
H23_7 C11_7 1_555 1_555
C5_11 C6_11 1_555 1_555
C8_7 C11_7 1_555 1_555
N6_10 C2_7 1_555 1_555
C1_7 N4_7 1_555 1_555
C2_7 C1_7 1_555 1_555
H2_7 C2_7 1_555 1_555
C3_7 N6_10 1_555 1_555
H3_7 C3_7 1_555 1_555
H4_7 C3_7 1_555 1_555
C4_7 N4_7 1_555 1_555
H5_7 C4_7 1_555 1_555
H6_7 C4_7 1_555 1_555
H10_7 C2_7 1_555 1_555
C7_7 N6_10 1_555 1_555
H13_7 C7_7 1_555 1_555
H16_7 C7_7 1_555 1_555
C10_7 N4_7 1_555 1_555
H19_7 C10_7 1_555 1_555
H22_7 C10_7 1_555 1_555
C3_7 C4_7 1_555 1_555
C7_7 C10_7 1_555 1_555
N6_9 C2_8 1_555 1_555
C1_8 N4_6 1_555 1_555
H1_8 C1_8 1_555 1_555
C2_8 C1_8 1_555 1_555
H2_8 C2_8 1_555 1_555
C3_8 N6_9 1_555 1_555
H3_8 C3_8 1_555 1_555
H4_8 C3_8 1_555 1_555
C4_8 N4_6 1_555 1_555
H5_8 C4_8 1_555 1_555
H6_8 C4_8 1_555 1_555
N4_10 C5_12 1_555 1_555
C5_12 H8_8 1_555 1_555
H7_8 C1_8 1_555 1_555
H9_8 C5_12 1_555 1_555
C6_12 N6_6 1_555 1_555
H10_8 C2_8 1_555 1_555
H11_8 C6_12 1_555 1_555
H12_8 C6_12 1_555 1_555
C7_8 N6_9 1_555 1_555
C8_8 N6_6 1_555 1_555
C9_8 N6_6 1_555 1_555
H13_8 C7_8 1_555 1_555
H14_8 C8_8 1_555 1_555
H15_8 C9_8 1_555 1_555
H16_8 C7_8 1_555 1_555
H17_8 C8_8 1_555 1_555
H18_8 C9_8 1_555 1_555
C10_8 N4_6 1_555 1_555
C11_8 N4_10 1_555 1_555
C12_8 N4_10 1_555 1_555
H19_8 C10_8 1_555 1_555
H20_8 C11_8 1_555 1_555
H21_8 C12_8 1_555 1_555
H22_8 C10_8 1_555 1_555
H23_8 C11_8 1_555 1_555
H24_8 C12_8 1_555 1_555
C3_8 C4_8 1_555 1_555
C5_12 C6_12 1_555 1_555
C7_8 C10_8 1_555 1_555
C8_8 C11_8 1_555 1_555
C9_8 C12_8 1_555 1_555

#END
