
###############################################################################
#
# This file contains modified crystal structure data generated from the
# MOF subset of the Cambridge Structural Database (CSD) v543 
# hosted by the Cambridge Crystallographic Data Centre (CCDC).
#
# This work is licensed under the Creative Commons
# Attribution-NonCommercial-ShareAlike 4.0 International License.
# To view a copy of this license, visit
# http://creativecommons.org/licenses/by-nc-sa/4.0/
# or send a letter to
# Creative Commons, PO Box 1866, Mountain View, CA 94042, USA.
#
# CIF created using the CSD Python API on 29 September 2022
# The structure has been converted into the P1 space group
# The structure has a 3D framework
# The original CSD entry WUZGEF01 is in the triclinic crystal system
# The framework has been calculated to contain at least 10.0% void space
# The void calculation uses a probe of radius 1.32A, grid spacing 0.4
#
###############################################################################

data_WUZGEF01
_chemical_formula_moiety         '(C176 H120 Cd6 O46)n'
_symmetry_cell_setting           triclinic
_symmetry_space_group_name_H-M   'P 1'
_symmetry_Int_Tables_number      1
_space_group_name_Hall           'P 1'
loop_
_symmetry_equiv_pos_site_id
_symmetry_equiv_pos_as_xyz
1 x,y,z
_cell_length_a                   16.1904(18)
_cell_length_b                   18.127(2)
_cell_length_c                   27.495(3)
_cell_angle_alpha                75.967(2)
_cell_angle_beta                 88.446(2)
_cell_angle_gamma                72.710(2)
_cell_volume                     7465.95
loop_
_atom_site_label
_atom_site_type_symbol
_atom_site_fract_x
_atom_site_fract_y
_atom_site_fract_z
C15 C 0.2324(6) 0.4064(6) 0.2774(4)
C16 C 0.1454(5) 0.4354(5) 0.3030(3)
C17 C 0.1033(6) 0.5238(5) 0.2853(3)
H9 H 0.1284 0.5570 0.2627
C18 C 0.0237(5) 0.5519(5) 0.3056(3)
C20 C 0.0288(5) 0.4207(5) 0.3517(3)
H11 H 0.0049 0.3864 0.3743
C21 C 0.1062(5) 0.3917(4) 0.3340(3)
H12 H 0.1336 0.3371 0.3443
H25 H 0.0247 0.6398 0.4146
H27 H 0.0294 0.5593 0.4014
O5 O 0.2701(4) 0.4449(4) 0.2514(2)
O6 O 0.2616(3) 0.3240(3) 0.2924(2)
Cd5 Cd 0.38843(4) 0.33144(4) 0.24989(2)
Cd6 Cd 0.22294(4) 0.23373(4) 0.25914(2)
O30 O 0.0039(5) 0.7465(4) 0.7640(3)
O32 O 0.0486(4) 0.9190(4) 0.7175(3)
C1 C 0.4215(6) 0.1443(4) 0.2918(3)
C2 C 0.4864(7) 0.0635(6) 0.3144(4)
C7 C 0.5750(6) 0.0587(5) 0.3290(4)
H4 H 0.5913 0.1051 0.3226
C45 C 0.3241(7) 0.3046(7) 0.1605(4)
C46 C 0.3142(6) 0.3095(6) 0.1037(4)
C47 C 0.3545(8) 0.3506(8) 0.0678(5)
H31 H 0.3871 0.3799 0.0770
C48 C 0.3478(8) 0.3498(9) 0.0177(4)
C49 C 0.2993(6) 0.3005(6) 0.0050(4)
C50 C 0.2628(7) 0.2633(7) 0.0395(4)
H33 H 0.2333 0.2309 0.0310
C51 C 0.2640(7) 0.2676(7) 0.0891(4)
H34 H 0.2317 0.2428 0.1122
H58 H 0.4423 0.0829 0.0137
H60 H 0.4251 0.1723 0.0148
O1 O 0.4532(4) 0.1999(3) 0.2769(2)
O2 O 0.3457(4) 0.1470(3) 0.2935(2)
O13 O 0.3795(5) 0.3395(4) 0.1706(2)
O14 O 0.2773(5) 0.2829(5) 0.1914(4)
O25 O 0.1616(4) 0.1581(3) 0.32277(19)
O28 O 0.5066(4) 0.3814(4) 0.2393(2)
O29 O 0.4487(4) 0.3647(4) 0.3148(2)
O31 O 0.0887(3) 0.3184(3) 0.2392(2)
O35 O 0.1849(5) 0.1465(6) 0.2187(4)
H32 H 0.3734 0.3797 0.9930
C53 C 0.0511(6) 0.6015(6) 0.7900(4)
C54 C 0.0416(7) 0.5362(6) 0.7869(4)
C55 C 0.0994(6) 0.4665(6) 0.8084(4)
H36 H 0.0903 0.4200 0.8043
C56 C 0.1691(6) 0.4599(6) 0.8354(4)
C57 C 0.1901(7) 0.5318(7) 0.8358(4)
H37 H 0.2408 0.5321 0.8508
C58 C 0.1262(7) 0.6008(6) 0.8114(4)
H38 H 0.1356 0.6496 0.8095
C62 C 0.2379(6) 0.0075(5) 0.7655(3)
H40 H 0.2804 0.0195 0.7444
C63 C 0.2291(6) 0.0261(6) 0.8139(4)
C64 C 0.1620(6) 0.0125(6) 0.8430(3)
H41 H 0.1542 0.0293 0.8727
C70 C 0.5316(4) 0.0320(5) 0.8215(4)
C71 C 0.5806(5) 0.0800(4) 0.7972(4)
H45 H 0.5591 0.1351 0.7920
C72 C 0.6616(5) 0.0457(5) 0.7807(3)
H46 H 0.6943 0.0779 0.7644
C73 C 0.2949(6) 0.0623(5) 0.8282(3)
C74 C 0.3778(5) 0.0324(5) 0.8216(3)
C75 C 0.4445(6) 0.0605(5) 0.8361(3)
C76 C 0.4136(5) 0.1288(5) 0.8578(3)
C77 C 0.3278(6) 0.1635(5) 0.8641(3)
C78 C 0.2642(5) 0.1293(5) 0.8488(3)
C79 C 0.2982(5) 0.2378(5) 0.8821(3)
C80 C 0.3151(5) 0.2331(6) 0.9323(3)
C81 C 0.2912(6) 0.3034(6) 0.9492(3)
C82 C 0.2465(6) 0.3760(5) 0.9159(3)
H48 H 0.2295 0.4221 0.9275
C83 C 0.2280(5) 0.3801(5) 0.8685(4)
C84 C 0.2577(6) 0.3107(6) 0.8495(3)
C85 C 0.1169(7) 0.2073(6) 0.8137(4)
H49 H 0.0607 0.2296 0.8253
H50 H 0.1359 0.2493 0.7927
H51 H 0.1138 0.1701 0.7947
C86 C 0.5390(16) 0.1140(14) 0.9036(7)
H52 H 0.5825 0.1374 0.9096
H53 H 0.5094 0.1021 0.9339
H54 H 0.5659 0.0658 0.8933
C87 C 0.2838(15) 0.3440(10) 0.7659(6)
H55 H 0.2663 0.3396 0.7339
H56 H 0.2716 0.3992 0.7657
H57 H 0.3448 0.3178 0.7723
C88 C 0.4296(13) 0.1365(13) 0.9935(8)
H59 H 0.4753 0.1403 0.9709
O21 O 0.2405(5) 0.3098(4) 0.8016(2)
O22 O 0.3516(4) 0.1569(4) 0.9661(3)
O23 O 0.1810(4) 0.1645(4) 0.8585(3)
O24 O 0.4767(5) 0.1702(6) 0.8639(4)
C3 C 0.4699(7) 0.9939(6) 0.3244(5)
H1 H 0.4142 0.9952 0.3159
C4 C 0.5234(7) 0.9242(6) 0.3448(5)
H2 H 0.5064 0.8785 0.3490
C5 C 0.6088(6) 0.9189(5) 0.3607(3)
C6 C 0.6338(6) 0.9876(5) 0.3517(3)
H3 H 0.6895 0.9854 0.3609
C8 C 0.8887(6) 0.8338(5) 0.6430(3)
C9 C 0.8565(5) 0.8123(5) 0.5978(3)
C10 C 0.7692(5) 0.8242(5) 0.5922(3)
H5 H 0.7312 0.8415 0.6159
C11 C 0.7410(5) 0.8094(5) 0.5504(3)
H6 H 0.6818 0.8189 0.5454
C12 C 0.7947(6) 0.7814(5) 0.5154(3)
C13 C 0.8834(5) 0.7656(5) 0.5237(3)
H7 H 0.9221 0.7433 0.5018
C14 C 0.9122(6) 0.7824(5) 0.5629(3)
H8 H 0.9713 0.7740 0.5673
H10 H 0.9967 0.6067 0.2978
C19 C 0.9825(4) 0.5030(5) 0.3368(3)
C22 C 0.5076(6) 0.3832(5) 0.2875(4)
C23 C 0.5694(6) 0.4186(5) 0.3040(3)
C24 C 0.5597(5) 0.4345(5) 0.3529(3)
H13 H 0.5153 0.4231 0.3725
C25 C 0.6181(5) 0.4675(5) 0.3713(4)
H14 H 0.6142 0.4765 0.4033
C26 C 0.6828(5) 0.4862(5) 0.3389(3)
C27 C 0.6934(6) 0.4656(6) 0.2918(4)
H15 H 0.7388 0.4739 0.2720
C28 C 0.6344(5) 0.4330(6) 0.2759(3)
H16 H 0.6403 0.4207 0.2448
C29 C 0.7502(5) 0.7029(4) 0.4030(3)
C30 C 0.7819(5) 0.7034(4) 0.4499(3)
C31 C 0.7565(5) 0.7719(5) 0.4660(3)
C32 C 0.7018(5) 0.8397(5) 0.4376(3)
H17 H 0.6878 0.8865 0.4484
C33 C 0.6665(5) 0.8393(5) 0.3922(3)
C34 C 0.6947(5) 0.7715(4) 0.3752(3)
C35 C 0.7780(5) 0.6290(4) 0.3835(3)
C36 C 0.7211(5) 0.5903(5) 0.3763(3)
C37 C 0.7461(5) 0.5241(4) 0.3552(3)
C38 C 0.8310(5) 0.5001(5) 0.3432(3)
H18 H 0.8484 0.4573 0.3284
C39 C 0.8920(5) 0.5346(4) 0.3514(3)
C40 C 0.8659(5) 0.6009(5) 0.3723(3)
C41 C 0.7120(8) 0.8017(6) 0.2897(3)
H19 H 0.6906 0.7993 0.2580
H20 H 0.7051 0.8562 0.2896
H21 H 0.7723 0.7717 0.2948
C42 C 0.8079(6) 0.5976(5) 0.5273(3)
H22 H 0.8520 0.5497 0.5434
H23 H 0.7967 0.6346 0.5482
H24 H 0.7558 0.5850 0.5220
C43 C 0.9929(5) 0.6033(6) 0.4131(4)
H26 H 0.9745 0.5839 0.4459
C44 C 0.6093(6) 0.6102(7) 0.4385(4)
H28 H 0.5479 0.6322 0.4402
H29 H 0.6266 0.5545 0.4553
H30 H 0.6386 0.6375 0.4546
Cd3 Cd 0.93358(4) 0.86961(4) 0.72723(3)
O3 O 0.8384(4) 0.8419(3) 0.67723(19)
O4 O 0.9619(4) 0.8407(4) 0.6453(2)
O9 O 0.6643(4) 0.7684(3) 0.3293(2)
O10 O 0.8378(3) 0.6342(3) 0.4778(2)
O11 O 0.9201(3) 0.6425(3) 0.3799(2)
O12 O 0.6331(3) 0.6203(3) 0.3833(2)
Cd9 Cd 0.77706(4) 0.76627(4) 0.74086(2)
O33 O 0.9962(5) 0.8980(6) 0.7960(4)
O34 O 0.8151(5) 0.8535(6) 0.7813(4)
O36 O 0.8275(5) 0.9781(5) 0.7383(4)
C59 C 0.0477(8) 0.9198(8) 0.7699(6)
C60 C 0.1145(5) 0.9588(5) 0.7821(4)
C61 C 0.1824(6) 0.9719(5) 0.7516(4)
H39 H 0.1895 0.9561 0.7217
C65 C 0.1076(6) 0.9763(7) 0.8308(4)
H42 H 0.0668 0.9630 0.8528
C66 C 0.7827(8) 0.9241(9) 0.7715(7)
C67 C 0.6936(4) 0.9634(5) 0.7885(4)
C68 C 0.6447(5) 0.9154(4) 0.8129(4)
H43 H 0.6661 0.8603 0.8181
C69 C 0.5637(5) 0.9497(5) 0.8294(3)
H44 H 0.5309 0.9176 0.8456
H47 H 0.3941 0.9899 0.8064
C52 C 0.9837(7) 0.6850(7) 0.7691(4)
H35 H 0.9933 0.5366 0.7691
O16 O 0.9113(3) 0.6816(3) 0.7608(2)
O18 O 0.0038(5) 0.1020(6) 0.2040(4)
Cd10 Cd 0.06642(4) 0.13039(4) 0.27277(3)
C52_2 C 0.0163(7) 0.3150(7) 0.2309(4)
H35_2 H 0.0067 0.4634 0.2309
C59_2 C 0.9523(8) 0.0802(8) 0.2301(6)
C60_2 C 0.8855(5) 0.0412(5) 0.2179(4)
C61_2 C 0.8176(6) 0.0281(5) 0.2484(4)
H39_2 H 0.8105 0.0439 0.2783
C65_2 C 0.8924(6) 0.0237(7) 0.1692(4)
H42_2 H 0.9332 0.0370 0.1472
C66_2 C 0.2173(8) 0.0759(9) 0.2285(7)
C67_2 C 0.3064(4) 0.0366(5) 0.2115(4)
C68_2 C 0.3553(5) 0.0846(4) 0.1871(4)
H43_2 H 0.3339 0.1397 0.1819
C69_2 C 0.4363(5) 0.0503(5) 0.1706(3)
H44_2 H 0.4691 0.0824 0.1544
H47_2 H 0.6059 0.0101 0.1936
O17 O 0.9514(4) 0.0810(4) 0.2825(3)
O20 O 0.1725(5) 0.0219(5) 0.2617(4)
C3_2 C 0.5301(7) 0.0061(6) 0.6756(5)
H1_2 H 0.5858 0.0048 0.6841
C4_2 C 0.4766(7) 0.0758(6) 0.6552(5)
H2_2 H 0.4936 0.1215 0.6510
C5_2 C 0.3912(6) 0.0811(5) 0.6393(3)
C6_2 C 0.3662(6) 0.0124(5) 0.6483(3)
H3_2 H 0.3105 0.0146 0.6391
C8_2 C 0.1113(6) 0.1662(5) 0.3570(3)
C9_2 C 0.1435(5) 0.1877(5) 0.4022(3)
C10_2 C 0.2308(5) 0.1758(5) 0.4078(3)
H5_2 H 0.2688 0.1585 0.3841
C11_2 C 0.2590(5) 0.1906(5) 0.4496(3)
H6_2 H 0.3182 0.1811 0.4546
C12_2 C 0.2053(6) 0.2186(5) 0.4846(3)
C13_2 C 0.1166(5) 0.2344(5) 0.4763(3)
H7_2 H 0.0779 0.2567 0.4982
C14_2 C 0.0878(6) 0.2176(5) 0.4371(3)
H8_2 H 0.0287 0.2260 0.4327
H10_2 H 0.0033 0.3933 0.7022
C19_2 C 0.0175(4) 0.4970(5) 0.6632(3)
C22_2 C 0.4924(6) 0.6168(5) 0.7125(4)
C23_2 C 0.4306(6) 0.5814(5) 0.6960(3)
C24_2 C 0.4403(5) 0.5655(5) 0.6471(3)
H13_2 H 0.4847 0.5769 0.6275
C25_2 C 0.3819(5) 0.5325(5) 0.6287(4)
H14_2 H 0.3858 0.5235 0.5967
C26_2 C 0.3172(5) 0.5138(5) 0.6611(3)
C27_2 C 0.3066(6) 0.5344(6) 0.7082(4)
H15_2 H 0.2612 0.5261 0.7280
C28_2 C 0.3656(5) 0.5670(6) 0.7241(3)
H16_2 H 0.3597 0.5793 0.7552
C29_2 C 0.2498(5) 0.2971(4) 0.5970(3)
C30_2 C 0.2181(5) 0.2966(4) 0.5501(3)
C31_2 C 0.2435(5) 0.2281(5) 0.5340(3)
C32_2 C 0.2982(5) 0.1603(5) 0.5624(3)
H17_2 H 0.3122 0.1135 0.5516
C33_2 C 0.3335(5) 0.1607(5) 0.6078(3)
C34_2 C 0.3053(5) 0.2285(4) 0.6248(3)
C35_2 C 0.2220(5) 0.3710(4) 0.6165(3)
C36_2 C 0.2789(5) 0.4097(5) 0.6237(3)
C37_2 C 0.2539(5) 0.4759(4) 0.6448(3)
C38_2 C 0.1690(5) 0.4999(5) 0.6568(3)
H18_2 H 0.1516 0.5427 0.6716
C39_2 C 0.1080(5) 0.4654(4) 0.6486(3)
C40_2 C 0.1341(5) 0.3991(5) 0.6277(3)
C41_2 C 0.2880(8) 0.1983(6) 0.7103(3)
H19_2 H 0.3094 0.2007 0.7420
H20_2 H 0.2949 0.1438 0.7104
H21_2 H 0.2277 0.2283 0.7052
C42_2 C 0.1921(6) 0.4024(5) 0.4727(3)
H22_2 H 0.1480 0.4503 0.4566
H23_2 H 0.2033 0.3654 0.4518
H24_2 H 0.2442 0.4150 0.4780
C43_2 C 0.0071(5) 0.3967(6) 0.5869(4)
H26_2 H 0.0255 0.4161 0.5541
C44_2 C 0.3907(6) 0.3898(7) 0.5615(4)
H28_2 H 0.4521 0.3678 0.5598
H29_2 H 0.3734 0.4455 0.5447
H30_2 H 0.3614 0.3625 0.5454
O4_2 O 0.0381(4) 0.1593(4) 0.3547(2)
O7 O 0.4934(4) 0.6186(4) 0.7607(2)
O8 O 0.5513(4) 0.6353(4) 0.6852(2)
O9_2 O 0.3357(4) 0.2316(3) 0.6707(2)
O10_2 O 0.1622(3) 0.3658(3) 0.5222(2)
O11_2 O 0.0799(3) 0.3575(3) 0.6201(2)
O12_2 O 0.3669(3) 0.3797(3) 0.6167(2)
Cd4 Cd 0.61157(4) 0.66856(4) 0.75011(2)
H32_2 H 0.6266 0.6203 0.0070
C53_2 C 0.9489(6) 0.3985(6) 0.2100(4)
C54_2 C 0.9584(7) 0.4638(6) 0.2131(4)
C55_2 C 0.9006(6) 0.5335(6) 0.1916(4)
H36_2 H 0.9097 0.5800 0.1957
C56_2 C 0.8309(6) 0.5401(6) 0.1646(4)
C57_2 C 0.8099(7) 0.4682(7) 0.1642(4)
H37_2 H 0.7592 0.4679 0.1492
C58_2 C 0.8738(7) 0.3992(6) 0.1886(4)
H38_2 H 0.8644 0.3504 0.1905
C62_2 C 0.7621(6) 0.9925(5) 0.2345(3)
H40_2 H 0.7196 0.9805 0.2556
C63_2 C 0.7709(6) 0.9739(6) 0.1861(4)
C64_2 C 0.8380(6) 0.9875(6) 0.1570(3)
H41_2 H 0.8458 0.9707 0.1273
C70_2 C 0.4684(4) 0.9680(5) 0.1785(4)
C71_2 C 0.4194(5) 0.9200(4) 0.2028(4)
H45_2 H 0.4409 0.8649 0.2080
C72_2 C 0.3384(5) 0.9543(5) 0.2193(3)
H46_2 H 0.3057 0.9221 0.2356
C73_2 C 0.7051(6) 0.9377(5) 0.1718(3)
C74_2 C 0.6222(5) 0.9676(5) 0.1784(3)
C75_2 C 0.5555(6) 0.9395(5) 0.1639(3)
C76_2 C 0.5864(5) 0.8712(5) 0.1422(3)
C77_2 C 0.6722(6) 0.8365(5) 0.1359(3)
C78_2 C 0.7358(5) 0.8707(5) 0.1512(3)
C79_2 C 0.7018(5) 0.7622(5) 0.1179(3)
C80_2 C 0.6849(5) 0.7669(6) 0.0677(3)
C81_2 C 0.7088(6) 0.6966(6) 0.0508(3)
C82_2 C 0.7535(6) 0.6240(5) 0.0841(3)
H48_2 H 0.7705 0.5779 0.0725
C83_2 C 0.7720(5) 0.6199(5) 0.1315(4)
C84_2 C 0.7423(6) 0.6893(6) 0.1505(3)
C85_2 C 0.8831(7) 0.7927(6) 0.1863(4)
H49_2 H 0.9393 0.7704 0.1747
H50_2 H 0.8641 0.7507 0.2073
H51_2 H 0.8862 0.8299 0.2053
C86_2 C 0.4610(16) 0.8860(14) 0.0964(7)
H52_2 H 0.4175 0.8626 0.0904
H53_2 H 0.4906 0.8979 0.0661
H54_2 H 0.4341 0.9342 0.1067
C87_2 C 0.7162(15) 0.6560(10) 0.2341(6)
H55_2 H 0.7337 0.6604 0.2661
H56_2 H 0.7284 0.6008 0.2343
H57_2 H 0.6552 0.6822 0.2277
C88_2 C 0.5704(13) 0.8635(13) 0.0065(8)
H59_2 H 0.5247 0.8597 0.0291
O15 O 0.9961(5) 0.2535(4) 0.2360(3)
O21_2 O 0.7595(5) 0.6902(4) 0.1984(2)
O22_2 O 0.6484(4) 0.8431(4) 0.0339(3)
O23_2 O 0.8190(4) 0.8355(4) 0.1415(3)
O24_2 O 0.5233(5) 0.8298(6) 0.1361(4)
C1_2 C 0.5785(6) 0.8557(4) 0.7082(3)
C2_2 C 0.5136(7) 0.9365(6) 0.6856(4)
C7_2 C 0.4250(6) 0.9413(5) 0.6710(4)
H4_2 H 0.4087 0.8949 0.6774
C45_2 C 0.6759(7) 0.6954(7) 0.8395(4)
C46_2 C 0.6858(6) 0.6905(6) 0.8963(4)
C47_2 C 0.6455(8) 0.6494(8) 0.9322(5)
H31_2 H 0.6129 0.6201 0.9230
C48_2 C 0.6522(8) 0.6502(9) 0.9823(4)
C49_2 C 0.7007(6) 0.6995(6) 0.9950(4)
C50_2 C 0.7372(7) 0.7367(7) 0.9605(4)
H33_2 H 0.7667 0.7691 0.9690
C51_2 C 0.7360(7) 0.7324(7) 0.9109(4)
H34_2 H 0.7683 0.7572 0.8878
H58_2 H 0.5577 0.9171 0.9863
H60_2 H 0.5749 0.8277 0.9852
O1_2 O 0.5468(4) 0.8001(3) 0.7231(2)
O2_2 O 0.6543(4) 0.8530(3) 0.7065(2)
O13_2 O 0.6205(5) 0.6605(4) 0.8294(2)
O14_2 O 0.7227(5) 0.7171(5) 0.8086(4)
O26 O 0.7299(4) 0.5551(4) 0.7486(2)
O27 O 0.7384(3) 0.6760(3) 0.7076(2)
C15_2 C 0.7676(6) 0.5936(6) 0.7226(4)
C16_2 C 0.8546(5) 0.5646(5) 0.6970(3)
C17_2 C 0.8967(6) 0.4762(5) 0.7147(3)
H9_2 H 0.8716 0.4430 0.7373
C18_2 C 0.9763(5) 0.4481(5) 0.6944(3)
C20_2 C 0.9712(5) 0.5793(5) 0.6483(3)
H11_2 H 0.9951 0.6136 0.6257
C21_2 C 0.8938(5) 0.6083(4) 0.6660(3)
H12_2 H 0.8664 0.6629 0.6557
H25_2 H 0.9753 0.3602 0.5854
H27_2 H 0.9706 0.4407 0.5986
loop_
_geom_bond_atom_site_label_1
_geom_bond_atom_site_label_2
_geom_bond_site_symmetry_1
_geom_bond_site_symmetry_2
C15 C16 1_555 1_555
C16 C17 1_555 1_555
C17 H9 1_555 1_555
C18 C17 1_555 1_555
H11 C20 1_555 1_555
C21 C16 1_555 1_555
H12 C21 1_555 1_555
O5 C15 1_555 1_555
O6 C15 1_555 1_555
Cd5 O5 1_555 1_555
Cd6 O6 1_555 1_555
C20 C21 1_555 1_555
O6 Cd5 1_555 1_555
C1 C2 1_555 1_555
C7 C2 1_555 1_555
H4 C7 1_555 1_555
C45 C46 1_555 1_555
C46 C47 1_555 1_555
C47 H31 1_555 1_555
C48 C47 1_555 1_555
C49 C48 1_555 1_555
C50 C49 1_555 1_555
H33 C50 1_555 1_555
C51 C46 1_555 1_555
H34 C51 1_555 1_555
Cd5 O1 1_555 1_555
Cd6 O2 1_555 1_555
O1 C1 1_555 1_555
O2 C1 1_555 1_555
O13 C45 1_555 1_555
O14 C45 1_555 1_555
O25 Cd6 1_555 1_555
O28 Cd5 1_555 1_555
O29 Cd5 1_555 1_555
O31 Cd6 1_555 1_555
O35 Cd6 1_555 1_555
C50 C51 1_555 1_555
Cd5 O13 1_555 1_555
Cd6 O14 1_555 1_555
C53 C54 1_555 1_555
C55 C54 1_555 1_555
H36 C55 1_555 1_555
C56 C55 1_555 1_555
C57 C56 1_555 1_555
H37 C57 1_555 1_555
C58 C53 1_555 1_555
H38 C58 1_555 1_555
H40 C62 1_555 1_555
C63 C62 1_555 1_555
C64 C63 1_555 1_555
H41 C64 1_555 1_555
C71 C70 1_555 1_555
H45 C71 1_555 1_555
H46 C72 1_555 1_555
C73 C63 1_555 1_555
C74 C73 1_555 1_555
C75 C70 1_555 1_555
C76 C75 1_555 1_555
C77 C76 1_555 1_555
C78 C73 1_555 1_555
C79 C77 1_555 1_555
C80 C79 1_555 1_555
C82 C81 1_555 1_555
H48 C82 1_555 1_555
C83 C56 1_555 1_555
C84 C79 1_555 1_555
C85 H49 1_555 1_555
H50 C85 1_555 1_555
H51 C85 1_555 1_555
C86 H52 1_555 1_555
H53 C86 1_555 1_555
H54 C86 1_555 1_555
C87 H55 1_555 1_555
H56 C87 1_555 1_555
H57 C87 1_555 1_555
H59 C88 1_555 1_555
O21 C84 1_555 1_555
O22 C80 1_555 1_555
O23 C78 1_555 1_555
O24 C76 1_555 1_555
C57 C58 1_555 1_555
C71 C72 1_555 1_555
C74 C75 1_555 1_555
C77 C78 1_555 1_555
C80 C81 1_555 1_555
C82 C83 1_555 1_555
C83 C84 1_555 1_555
C85 O23 1_555 1_555
C86 O24 1_555 1_555
C87 O21 1_555 1_555
C88 O22 1_555 1_555
C3 H1 1_555 1_555
C4 C3 1_555 1_555
H2 C4 1_555 1_555
C5 C4 1_555 1_555
C6 C5 1_555 1_555
H3 C6 1_555 1_555
C8 C9 1_555 1_555
C9 C10 1_555 1_555
C10 H5 1_555 1_555
C11 C10 1_555 1_555
H6 C11 1_555 1_555
C12 C11 1_555 1_555
C13 C12 1_555 1_555
H7 C13 1_555 1_555
C14 C9 1_555 1_555
H8 C14 1_555 1_555
C22 C23 1_555 1_555
C23 C24 1_555 1_555
C24 H13 1_555 1_555
C25 C24 1_555 1_555
H14 C25 1_555 1_555
C26 C25 1_555 1_555
C27 C26 1_555 1_555
H15 C27 1_555 1_555
C28 C23 1_555 1_555
H16 C28 1_555 1_555
C29 C30 1_555 1_555
C30 C31 1_555 1_555
C31 C12 1_555 1_555
C32 C31 1_555 1_555
H17 C32 1_555 1_555
C33 C5 1_555 1_555
C34 C29 1_555 1_555
C35 C29 1_555 1_555
C36 C35 1_555 1_555
C37 C26 1_555 1_555
C38 C37 1_555 1_555
H18 C38 1_555 1_555
C39 C19 1_555 1_555
C40 C35 1_555 1_555
C41 H19 1_555 1_555
H20 C41 1_555 1_555
H21 C41 1_555 1_555
C42 H22 1_555 1_555
H23 C42 1_555 1_555
H24 C42 1_555 1_555
H26 C43 1_555 1_555
C44 H28 1_555 1_555
H29 C44 1_555 1_555
H30 C44 1_555 1_555
Cd3 O3 1_555 1_555
O3 C8 1_555 1_555
O4 C8 1_555 1_555
O28 C22 1_555 1_555
O29 C22 1_555 1_555
O9 C34 1_555 1_555
O10 C30 1_555 1_555
O11 C40 1_555 1_555
O12 C36 1_555 1_555
Cd9 O3 1_555 1_555
O33 Cd3 1_555 1_555
O34 Cd3 1_555 1_555
O36 Cd3 1_555 1_555
C13 C14 1_555 1_555
C27 C28 1_555 1_555
C32 C33 1_555 1_555
C33 C34 1_555 1_555
C36 C37 1_555 1_555
C38 C39 1_555 1_555
C39 C40 1_555 1_555
C41 O9 1_555 1_555
C42 O10 1_555 1_555
C43 O11 1_555 1_555
C44 O12 1_555 1_555
Cd3 O4 1_555 1_555
Cd9 O34 1_555 1_555
C59 C60 1_555 1_555
C60 C61 1_555 1_555
C61 H39 1_555 1_555
C65 C60 1_555 1_555
H42 C65 1_555 1_555
C66 C67 1_555 1_555
C67 C68 1_555 1_555
C68 H43 1_555 1_555
C69 C68 1_555 1_555
H44 C69 1_555 1_555
O32 C59 1_555 1_555
O34 C66 1_555 1_555
O36 C66 1_555 1_555
O16 C52 1_555 1_555
Cd9 O16 1_555 1_555
O18 Cd10 1_555 1_555
O31 C52_2 1_555 1_555
C59_2 C60_2 1_555 1_555
C60_2 C61_2 1_555 1_555
C61_2 H39_2 1_555 1_555
C65_2 C60_2 1_555 1_555
H42_2 C65_2 1_555 1_555
C66_2 C67_2 1_555 1_555
C67_2 C68_2 1_555 1_555
C68_2 H43_2 1_555 1_555
C69_2 C68_2 1_555 1_555
H44_2 C69_2 1_555 1_555
O17 C59_2 1_555 1_555
O35 C66_2 1_555 1_555
O20 C66_2 1_555 1_555
Cd10 O35 1_555 1_555
O20 Cd10 1_555 1_555
C3_2 H1_2 1_555 1_555
C4_2 C3_2 1_555 1_555
H2_2 C4_2 1_555 1_555
C5_2 C4_2 1_555 1_555
C6_2 C5_2 1_555 1_555
H3_2 C6_2 1_555 1_555
C8_2 C9_2 1_555 1_555
C9_2 C10_2 1_555 1_555
C10_2 H5_2 1_555 1_555
C11_2 C10_2 1_555 1_555
H6_2 C11_2 1_555 1_555
C12_2 C11_2 1_555 1_555
C13_2 C12_2 1_555 1_555
H7_2 C13_2 1_555 1_555
C14_2 C9_2 1_555 1_555
H8_2 C14_2 1_555 1_555
C22_2 C23_2 1_555 1_555
C23_2 C24_2 1_555 1_555
C24_2 H13_2 1_555 1_555
C25_2 C24_2 1_555 1_555
H14_2 C25_2 1_555 1_555
C26_2 C25_2 1_555 1_555
C27_2 C26_2 1_555 1_555
H15_2 C27_2 1_555 1_555
C28_2 C23_2 1_555 1_555
H16_2 C28_2 1_555 1_555
C29_2 C30_2 1_555 1_555
C30_2 C31_2 1_555 1_555
C31_2 C12_2 1_555 1_555
C32_2 C31_2 1_555 1_555
H17_2 C32_2 1_555 1_555
C33_2 C5_2 1_555 1_555
C34_2 C29_2 1_555 1_555
C35_2 C29_2 1_555 1_555
C36_2 C35_2 1_555 1_555
C37_2 C26_2 1_555 1_555
C38_2 C37_2 1_555 1_555
H18_2 C38_2 1_555 1_555
C39_2 C19_2 1_555 1_555
C40_2 C35_2 1_555 1_555
C41_2 H19_2 1_555 1_555
H20_2 C41_2 1_555 1_555
H21_2 C41_2 1_555 1_555
C42_2 H22_2 1_555 1_555
H23_2 C42_2 1_555 1_555
H24_2 C42_2 1_555 1_555
H26_2 C43_2 1_555 1_555
C44_2 H28_2 1_555 1_555
H29_2 C44_2 1_555 1_555
H30_2 C44_2 1_555 1_555
Cd10 O25 1_555 1_555
O25 C8_2 1_555 1_555
O4_2 C8_2 1_555 1_555
O7 C22_2 1_555 1_555
O8 C22_2 1_555 1_555
O9_2 C34_2 1_555 1_555
O10_2 C30_2 1_555 1_555
O11_2 C40_2 1_555 1_555
O12_2 C36_2 1_555 1_555
Cd4 O7 1_555 1_555
C13_2 C14_2 1_555 1_555
C27_2 C28_2 1_555 1_555
C32_2 C33_2 1_555 1_555
C33_2 C34_2 1_555 1_555
C36_2 C37_2 1_555 1_555
C38_2 C39_2 1_555 1_555
C39_2 C40_2 1_555 1_555
C41_2 O9_2 1_555 1_555
C42_2 O10_2 1_555 1_555
C43_2 O11_2 1_555 1_555
C44_2 O12_2 1_555 1_555
Cd10 O4_2 1_555 1_555
O8 Cd4 1_555 1_555
C53_2 C54_2 1_555 1_555
C55_2 C54_2 1_555 1_555
H36_2 C55_2 1_555 1_555
C56_2 C55_2 1_555 1_555
C57_2 C56_2 1_555 1_555
H37_2 C57_2 1_555 1_555
C58_2 C53_2 1_555 1_555
H38_2 C58_2 1_555 1_555
H40_2 C62_2 1_555 1_555
C63_2 C62_2 1_555 1_555
C64_2 C63_2 1_555 1_555
H41_2 C64_2 1_555 1_555
C71_2 C70_2 1_555 1_555
H45_2 C71_2 1_555 1_555
H46_2 C72_2 1_555 1_555
C73_2 C63_2 1_555 1_555
C74_2 C73_2 1_555 1_555
C75_2 C70_2 1_555 1_555
C76_2 C75_2 1_555 1_555
C77_2 C76_2 1_555 1_555
C78_2 C73_2 1_555 1_555
C79_2 C77_2 1_555 1_555
C80_2 C79_2 1_555 1_555
C82_2 C81_2 1_555 1_555
H48_2 C82_2 1_555 1_555
C83_2 C56_2 1_555 1_555
C84_2 C79_2 1_555 1_555
C85_2 H49_2 1_555 1_555
H50_2 C85_2 1_555 1_555
H51_2 C85_2 1_555 1_555
C86_2 H52_2 1_555 1_555
H53_2 C86_2 1_555 1_555
H54_2 C86_2 1_555 1_555
C87_2 H55_2 1_555 1_555
H56_2 C87_2 1_555 1_555
H57_2 C87_2 1_555 1_555
H59_2 C88_2 1_555 1_555
O21_2 C84_2 1_555 1_555
O22_2 C80_2 1_555 1_555
O23_2 C78_2 1_555 1_555
O24_2 C76_2 1_555 1_555
C57_2 C58_2 1_555 1_555
C71_2 C72_2 1_555 1_555
C74_2 C75_2 1_555 1_555
C77_2 C78_2 1_555 1_555
C80_2 C81_2 1_555 1_555
C82_2 C83_2 1_555 1_555
C83_2 C84_2 1_555 1_555
C85_2 O23_2 1_555 1_555
C86_2 O24_2 1_555 1_555
C87_2 O21_2 1_555 1_555
C88_2 O22_2 1_555 1_555
C1_2 C2_2 1_555 1_555
C7_2 C2_2 1_555 1_555
H4_2 C7_2 1_555 1_555
C45_2 C46_2 1_555 1_555
C46_2 C47_2 1_555 1_555
C47_2 H31_2 1_555 1_555
C48_2 C47_2 1_555 1_555
C49_2 C48_2 1_555 1_555
C50_2 C49_2 1_555 1_555
H33_2 C50_2 1_555 1_555
C51_2 C46_2 1_555 1_555
H34_2 C51_2 1_555 1_555
Cd4 O1_2 1_555 1_555
Cd9 O2_2 1_555 1_555
O1_2 C1_2 1_555 1_555
O2_2 C1_2 1_555 1_555
O13_2 C45_2 1_555 1_555
O14_2 C45_2 1_555 1_555
O26 Cd4 1_555 1_555
O27 Cd4 1_555 1_555
C50_2 C51_2 1_555 1_555
Cd4 O13_2 1_555 1_555
Cd9 O14_2 1_555 1_555
Cd9 O27 1_555 1_555
C15_2 C16_2 1_555 1_555
C16_2 C17_2 1_555 1_555
C17_2 H9_2 1_555 1_555
C18_2 C17_2 1_555 1_555
H11_2 C20_2 1_555 1_555
C21_2 C16_2 1_555 1_555
H12_2 C21_2 1_555 1_555
O26 C15_2 1_555 1_555
O27 C15_2 1_555 1_555
C20_2 C21_2 1_555 1_555

#END
