
###############################################################################
#
# This file contains modified crystal structure data generated from the
# MOF subset of the Cambridge Structural Database (CSD) v543 
# hosted by the Cambridge Crystallographic Data Centre (CCDC).
#
# This work is licensed under the Creative Commons
# Attribution-NonCommercial-ShareAlike 4.0 International License.
# To view a copy of this license, visit
# http://creativecommons.org/licenses/by-nc-sa/4.0/
# or send a letter to
# Creative Commons, PO Box 1866, Mountain View, CA 94042, USA.
#
# CIF created using the CSD Python API on 29 September 2022
# The structure has been converted into the P1 space group
# The structure has a 3D framework
# The original CSD entry XACFAJ is in the hexagonal crystal system
# The original CSD entry XACFAJ is in a Sohncke space group
# The framework has been calculated to contain at least 10.0% void space
# The void calculation uses a probe of radius 1.32A, grid spacing 0.4
# The framework is charged, counterions have been retained in the structure
#
###############################################################################

data_XACFAJ
_chemical_formula_moiety         '(C36 H72 N6 O24 P10 Zn10 1+)n'
_symmetry_cell_setting           triclinic
_symmetry_space_group_name_H-M   'P 1'
_symmetry_Int_Tables_number      1
_space_group_name_Hall           'P 1'
loop_
_symmetry_equiv_pos_site_id
_symmetry_equiv_pos_as_xyz
1 x,y,z
_cell_length_a                   11.528(2)
_cell_length_b                   11.528(2)
_cell_length_c                   15.168(7)
_cell_angle_alpha                90
_cell_angle_beta                 90
_cell_angle_gamma                120
_cell_volume                     1745.69
loop_
_atom_site_label
_atom_site_type_symbol
_atom_site_fract_x
_atom_site_fract_y
_atom_site_fract_z
Zn3 Zn 0.0000 0.0000 0.88890(6)
Zn3_2 Zn -0.0000 1.0000 0.88890(6)
Zn3_3 Zn 1.0000 0.0000 0.88890(6)
Zn1 Zn 0.3333 0.6667 0.13592(6)
P1 P 0.0000 0.0000 0.23164(12)
C1 C 0.0895(4) 0.1666(4) 0.1798(3)
H1 H 0.1849(4) 0.1986(4) 0.1816(3)
H2 H 0.0631(4) 0.1582(4) 0.1184(3)
C2 C 0.0631(5) 0.2699(4) 0.2237(3)
H4 H 0.0982(5) 0.2861(4) 0.2833(3)
C3 C 0.1276(4) 0.4009(3) 0.1730(3)
O1 O 0.2457(3) 0.4892(3) 0.1952(2)
O2 O 0.0664(3) 0.4158(3) 0.1121(2)
Zn2 Zn 0.0000 0.0000 0.38890(6)
H8 H 0.6054(3) 0.8699(3) 0.0151(3)
H15 H 0.2678(6) 0.0328(5) 0.2271(3)
H20 H 0.1301(3) 0.7355(4) 0.0151(3)
H24 H 0.2645(4) 0.3946(3) 0.0151(3)
O13 O 0.5108(3) 0.7565(4) 0.1952(2)
O14 O 0.2435(4) 0.7543(3) 0.1952(2)
O15 O 0.1604(2) 0.0094(3) 0.4482(2)
P2 P 0.3333 0.6667 0.98052(11)
C4 C 0.4931(3) 0.7164(4) 0.9292(3)
H5 H 0.5224(3) 0.6543(4) 0.9471(3)
H6 H 0.4811(3) 0.7093(4) 0.8657(3)
C5 C 0.6022(3) 0.8574(3) 0.9517(3)
H7 H 0.5812(3) 0.9212(3) 0.9249(3)
C6 C 0.7375(3) 0.8842(4) 0.9194(3)
O3 O 0.8396(2) 0.9906(3) 0.9482(2)
O4 O 0.7464(3) 0.8085(3) 0.8655(3)
C13 C 0.2836(4) 0.7767(5) 0.9292(3)
H17 H 0.3457(4) 0.8681(5) 0.9471(3)
H18 H 0.2907(4) 0.7718(5) 0.8657(3)
C14 C 0.1426(3) 0.7448(4) 0.9517(3)
H19 H 0.0788(3) 0.6600(4) 0.9249(3)
C15 C 0.1158(4) 0.8533(5) 0.9194(3)
O9 O 0.0094(3) 0.8490(4) 0.9482(2)
O10 O 0.1915(3) 0.9379(4) 0.8655(3)
C16 C 0.2233(5) 0.5069(3) 0.9292(3)
H21 H 0.1319(5) 0.4776(3) 0.9471(3)
H22 H 0.2282(5) 0.5189(3) 0.8657(3)
C17 C 0.2552(4) 0.3978(3) 0.9517(3)
H23 H 0.3400(4) 0.4188(3) 0.9249(3)
C18 C 0.1467(5) 0.2625(3) 0.9194(3)
O11 O 0.1510(4) 0.1604(2) 0.9482(2)
O12 O 0.0621(4) 0.2536(3) 0.8655(3)
Zn3_4 Zn 1.0000 1.0000 0.88890(6)
P1_2 P -0.0000 1.0000 0.23164(12)
Zn2_2 Zn -0.0000 1.0000 0.38890(6)
C10 C 0.0771(6) 0.9105(4) 0.1798(3)
H13 H 0.0137(6) 0.8151(4) 0.1816(3)
H14 H 0.0951(6) 0.9369(4) 0.1184(3)
C11 C 0.2068(6) 0.9369(5) 0.2237(3)
H16 H 0.1879(6) 0.9018(5) 0.2833(3)
C12 C 0.2733(5) 0.8724(4) 0.1730(3)
O8 O 0.3494(4) 0.9336(3) 0.1121(2)
P1_3 P 1.0000 0.0000 0.23164(12)
H3 H 0.9672(5) 0.2350(4) 0.2271(3)
Zn2_3 Zn 1.0000 0.0000 0.38890(6)
O16 O 0.9906(3) 0.1510(4) 0.4482(2)
P1_4 P 1.0000 1.0000 0.23164(12)
Zn2_4 Zn 1.0000 1.0000 0.38890(6)
C7 C 0.8334(4) 0.9229(6) 0.1798(3)
H9 H 0.8014(4) 0.9863(6) 0.1816(3)
H10 H 0.8418(4) 0.9049(6) 0.1184(3)
C8 C 0.7301(4) 0.7932(6) 0.2237(3)
H11 H 0.7650(4) 0.7322(6) 0.2271(3)
H12 H 0.7139(4) 0.8121(6) 0.2833(3)
C9 C 0.5991(3) 0.7267(5) 0.1730(3)
O6 O 0.5842(3) 0.6506(4) 0.1121(2)
O17 O 0.8490(4) 0.8396(2) 0.4482(2)
P1_5 P 0.0000 0.0000 0.73164(12)
C7_2 C 0.1666(4) 0.0771(6) 0.6798(3)
H9_2 H 0.1986(4) 0.0137(6) 0.6816(3)
H10_2 H 0.1582(4) 0.0951(6) 0.6184(3)
C8_2 C 0.2699(4) 0.2068(6) 0.7237(3)
H11_2 H 0.2350(4) 0.2678(6) 0.7271(3)
H12_2 H 0.2861(4) 0.1879(6) 0.7833(3)
C9_2 C 0.4009(3) 0.2733(5) 0.6730(3)
O5 O 0.4892(3) 0.2435(4) 0.6952(2)
O6_2 O 0.4158(3) 0.3494(4) 0.6121(2)
Zn4 Zn 0.6667 0.3333 0.63592(6)
P1_6 P 0.0000 1.0000 0.73164(12)
H3_2 H 0.0328(5) 0.7650(4) 0.7271(3)
P1_7 P 1.0000 0.0000 0.73164(12)
C10_2 C 0.9229(6) 0.0895(4) 0.6798(3)
H13_2 H 0.9863(6) 0.1849(4) 0.6816(3)
H14_2 H 0.9049(6) 0.0631(4) 0.6184(3)
C11_2 C 0.7932(6) 0.0631(5) 0.7237(3)
H16_2 H 0.8121(6) 0.0982(5) 0.7833(3)
C12_2 C 0.7267(5) 0.1276(4) 0.6730(3)
O7 O 0.7565(4) 0.2457(3) 0.6952(2)
O8_2 O 0.6506(4) 0.0664(3) 0.6121(2)
P1_8 P 1.0000 1.0000 0.73164(12)
C1_2 C 0.9105(4) 0.8334(4) 0.6798(3)
H1_2 H 0.8151(4) 0.8014(4) 0.6816(3)
H2_2 H 0.9369(4) 0.8418(4) 0.6184(3)
C2_2 C 0.9369(5) 0.7301(4) 0.7237(3)
H4_2 H 0.9018(5) 0.7139(4) 0.7833(3)
C3_2 C 0.8724(4) 0.5991(3) 0.6730(3)
O1_2 O 0.7543(3) 0.5108(3) 0.6952(2)
O2_2 O 0.9336(3) 0.5842(3) 0.6121(2)
P2_2 P 0.6667 0.3333 0.48052(11)
C4_2 C 0.5069(3) 0.2836(4) 0.4292(3)
H5_2 H 0.4776(3) 0.3457(4) 0.4471(3)
H6_2 H 0.5189(3) 0.2907(4) 0.3657(3)
C5_2 C 0.3978(3) 0.1426(3) 0.4517(3)
H7_2 H 0.4188(3) 0.0788(3) 0.4249(3)
H8_2 H 0.3946(3) 0.1301(3) 0.5151(3)
C6_2 C 0.2625(3) 0.1158(4) 0.4194(3)
O4_2 O 0.2536(3) 0.1915(3) 0.3655(3)
H15_2 H 0.7322(6) 0.9672(5) 0.7271(3)
C13_2 C 0.7164(4) 0.2233(5) 0.4292(3)
H17_2 H 0.6543(4) 0.1319(5) 0.4471(3)
H18_2 H 0.7093(4) 0.2282(5) 0.3657(3)
C14_2 C 0.8574(3) 0.2552(4) 0.4517(3)
H19_2 H 0.9212(3) 0.3400(4) 0.4249(3)
H20_2 H 0.8699(3) 0.2645(4) 0.5151(3)
C15_2 C 0.8842(4) 0.1467(5) 0.4194(3)
O10_2 O 0.8085(3) 0.0621(4) 0.3655(3)
C16_2 C 0.7767(5) 0.4931(3) 0.4292(3)
H21_2 H 0.8681(5) 0.5224(3) 0.4471(3)
H22_2 H 0.7718(5) 0.4811(3) 0.3657(3)
C17_2 C 0.7448(4) 0.6022(3) 0.4517(3)
H23_2 H 0.6600(4) 0.5812(3) 0.4249(3)
H24_2 H 0.7355(4) 0.6054(3) 0.5151(3)
C18_2 C 0.8533(5) 0.7375(3) 0.4194(3)
O12_2 O 0.9379(4) 0.7464(3) 0.3655(3)
N1 N 0.2239(16) 0.3839(19) 0.5187(17)
H25 H 0.1546(16) 0.3069(19) 0.4985(17)
H26 H 0.2807(16) 0.3646(19) 0.5472(17)
H27 H 0.1941(16) 0.4243(19) 0.5556(17)
H28 H 0.2662(16) 0.4397(19) 0.4734(17)
N1_2 N 0.6161(19) 0.8400(25) 0.5187(17)
H25_2 H 0.6931(19) 0.8477(25) 0.4985(17)
H26_2 H 0.6354(19) 0.9161(25) 0.5472(17)
H27_2 H 0.5757(19) 0.7698(25) 0.5556(17)
H28_2 H 0.5603(19) 0.8265(25) 0.4734(17)
N1_3 N 0.1600(25) 0.7761(16) 0.5187(17)
H25_3 H 0.1523(25) 0.8454(16) 0.4985(17)
H26_3 H 0.0839(25) 0.7193(16) 0.5472(17)
H27_3 H 0.2302(25) 0.8059(16) 0.5556(17)
H28_3 H 0.1735(25) 0.7338(16) 0.4734(17)
N1_4 N 0.7761(16) 0.6161(19) 0.0187(17)
H26_4 H 0.7193(16) 0.6354(19) 0.0472(17)
H27_4 H 0.8059(16) 0.5757(19) 0.0556(17)
H25_4 H 0.8454(16) 0.6931(19) 0.9985(17)
H28_4 H 0.7338(16) 0.5603(19) 0.9734(17)
N1_5 N 0.3839(19) 0.1600(25) 0.0187(17)
H26_5 H 0.3646(19) 0.0839(25) 0.0472(17)
H27_5 H 0.4243(19) 0.2302(25) 0.0556(17)
H25_5 H 0.3069(19) 0.1523(25) 0.9985(17)
H28_5 H 0.4397(19) 0.1735(25) 0.9734(17)
N1_6 N 0.8400(25) 0.2239(16) 0.0187(17)
H26_6 H 0.9161(25) 0.2807(16) 0.0472(17)
H27_6 H 0.7698(25) 0.1941(16) 0.0556(17)
H25_6 H 0.8477(25) 0.1546(16) 0.9985(17)
H28_6 H 0.8265(25) 0.2662(16) 0.9734(17)
loop_
_geom_bond_atom_site_label_1
_geom_bond_atom_site_label_2
_geom_bond_site_symmetry_1
_geom_bond_site_symmetry_2
Zn1 O1 1_555 1_555
P1 C1 1_555 1_555
C1 H1 1_555 1_555
H2 C1 1_555 1_555
C2 C1 1_555 1_555
H4 C2 1_555 1_555
C3 C2 1_555 1_555
O1 C3 1_555 1_555
O2 C3 1_555 1_555
Zn2 P1 1_555 1_555
O13 Zn1 1_555 1_555
O14 Zn1 1_555 1_555
O15 Zn2 1_555 1_555
C4 P2 1_555 1_555
H5 C4 1_555 1_555
H6 C4 1_555 1_555
C5 C4 1_555 1_555
H7 C5 1_555 1_555
C6 C5 1_555 1_555
O3 C6 1_555 1_555
O4 C6 1_555 1_555
C13 P2 1_555 1_555
H17 C13 1_555 1_555
H18 C13 1_555 1_555
C14 C13 1_555 1_555
H19 C14 1_555 1_555
C15 C14 1_555 1_555
O9 C15 1_555 1_555
O10 C15 1_555 1_555
C16 P2 1_555 1_555
H21 C16 1_555 1_555
H22 C16 1_555 1_555
C17 C16 1_555 1_555
H23 C17 1_555 1_555
C18 C17 1_555 1_555
O11 C18 1_555 1_555
O12 C18 1_555 1_555
Zn3_4 O3 1_555 1_555
Zn3_2 O9 1_555 1_555
Zn3 O11 1_555 1_555
Zn2_2 P1_2 1_555 1_555
C10 P1_2 1_555 1_555
H13 C10 1_555 1_555
H14 C10 1_555 1_555
C11 C10 1_555 1_555
H16 C11 1_555 1_555
C12 C11 1_555 1_555
O14 C12 1_555 1_555
O8 C12 1_555 1_555
Zn2_3 P1_3 1_555 1_555
O16 Zn2_3 1_555 1_555
Zn2_4 P1_4 1_555 1_555
C7 P1_4 1_555 1_555
H9 C7 1_555 1_555
H10 C7 1_555 1_555
C8 C7 1_555 1_555
H11 C8 1_555 1_555
H12 C8 1_555 1_555
C9 C8 1_555 1_555
O13 C9 1_555 1_555
O6 C9 1_555 1_555
O17 Zn2_4 1_555 1_555
Zn3 P1_5 1_555 1_555
C7_2 P1_5 1_555 1_555
H9_2 C7_2 1_555 1_555
H10_2 C7_2 1_555 1_555
C8_2 C7_2 1_555 1_555
H11_2 C8_2 1_555 1_555
H12_2 C8_2 1_555 1_555
C9_2 C8_2 1_555 1_555
O5 C9_2 1_555 1_555
O6_2 C9_2 1_555 1_555
Zn4 O5 1_555 1_555
Zn3_2 P1_6 1_555 1_555
Zn3_3 P1_7 1_555 1_555
C10_2 P1_7 1_555 1_555
H13_2 C10_2 1_555 1_555
H14_2 C10_2 1_555 1_555
C11_2 C10_2 1_555 1_555
H16_2 C11_2 1_555 1_555
C12_2 C11_2 1_555 1_555
O7 C12_2 1_555 1_555
O8_2 C12_2 1_555 1_555
Zn4 O7 1_555 1_555
Zn4 O1_2 1_555 1_555
P1_8 C1_2 1_555 1_555
C1_2 H1_2 1_555 1_555
H2_2 C1_2 1_555 1_555
C2_2 C1_2 1_555 1_555
H4_2 C2_2 1_555 1_555
C3_2 C2_2 1_555 1_555
O1_2 C3_2 1_555 1_555
O2_2 C3_2 1_555 1_555
Zn3_4 P1_8 1_555 1_555
P2_2 Zn4 1_555 1_555
C4_2 P2_2 1_555 1_555
H5_2 C4_2 1_555 1_555
H6_2 C4_2 1_555 1_555
C5_2 C4_2 1_555 1_555
H7_2 C5_2 1_555 1_555
H8_2 C5_2 1_555 1_555
C6_2 C5_2 1_555 1_555
O15 C6_2 1_555 1_555
O4_2 C6_2 1_555 1_555
C13_2 P2_2 1_555 1_555
H17_2 C13_2 1_555 1_555
H18_2 C13_2 1_555 1_555
C14_2 C13_2 1_555 1_555
H19_2 C14_2 1_555 1_555
H20_2 C14_2 1_555 1_555
C15_2 C14_2 1_555 1_555
O16 C15_2 1_555 1_555
O10_2 C15_2 1_555 1_555
C16_2 P2_2 1_555 1_555
H21_2 C16_2 1_555 1_555
H22_2 C16_2 1_555 1_555
C17_2 C16_2 1_555 1_555
H23_2 C17_2 1_555 1_555
H24_2 C17_2 1_555 1_555
C18_2 C17_2 1_555 1_555
O17 C18_2 1_555 1_555
O12_2 C18_2 1_555 1_555
N1 H25 1_555 1_555
H26 N1 1_555 1_555
H27 N1 1_555 1_555
H28 N1 1_555 1_555
N1_2 H25_2 1_555 1_555
H26_2 N1_2 1_555 1_555
H27_2 N1_2 1_555 1_555
H28_2 N1_2 1_555 1_555
N1_3 H25_3 1_555 1_555
H26_3 N1_3 1_555 1_555
H27_3 N1_3 1_555 1_555
H28_3 N1_3 1_555 1_555
H26_4 N1_4 1_555 1_555
H27_4 N1_4 1_555 1_555
H26_5 N1_5 1_555 1_555
H27_5 N1_5 1_555 1_555
H26_6 N1_6 1_555 1_555
H27_6 N1_6 1_555 1_555

#END
