
###############################################################################
#
# This file contains modified crystal structure data generated from the
# MOF subset of the Cambridge Structural Database (CSD) v543 
# hosted by the Cambridge Crystallographic Data Centre (CCDC).
#
# This work is licensed under the Creative Commons
# Attribution-NonCommercial-ShareAlike 4.0 International License.
# To view a copy of this license, visit
# http://creativecommons.org/licenses/by-nc-sa/4.0/
# or send a letter to
# Creative Commons, PO Box 1866, Mountain View, CA 94042, USA.
#
# CIF created using the CSD Python API on 29 September 2022
# The structure has been converted into the P1 space group
# The structure has a 3D framework
# The original CSD entry XACLOF is in the trigonal crystal system
# The framework has been calculated to contain at least 10.0% void space
# The void calculation uses a probe of radius 1.32A, grid spacing 0.4
# The framework is charged, counterions have been retained in the structure
#
###############################################################################

data_XACLOF
_chemical_formula_moiety         '(C12 H12 Fe6 O17 1-)n'
_symmetry_cell_setting           triclinic
_symmetry_space_group_name_H-M   'P 1'
_symmetry_Int_Tables_number      1
_space_group_name_Hall           'P 1'
loop_
_symmetry_equiv_pos_site_id
_symmetry_equiv_pos_as_xyz
1 x,y,z
_cell_length_a                   8.2294(2)
_cell_length_b                   8.2294(2)
_cell_length_c                   14.1221(5)
_cell_angle_alpha                90
_cell_angle_beta                 90
_cell_angle_gamma                120
_cell_volume                     828.259
loop_
_atom_site_label
_atom_site_type_symbol
_atom_site_fract_x
_atom_site_fract_y
_atom_site_fract_z
Fe6 Fe 0.0000 -0.0000 0.0000
Fe6_2 Fe 0.0000 -0.0000 1.0000
O6 O 0.0083(4) 0.8030(6) 0.08033(18)
O9 O 0.4534(6) 0.3380(4) 0.16758(19)
O10 O 0.1970(6) 0.2053(4) 0.08033(18)
C5 C 0.3353(8) 0.2088(6) 0.1188(3)
H5 H 0.3504 0.1051 0.1098
O12 O 0.0083(4) 0.2053(4) 0.41967(18)
Fe4 Fe 0.6667 0.3333 0.2500
Fe6_3 Fe 0.0000 1.0000 0.0000
Fe7 Fe -0.0000 0.0000 0.5000
Fe6_4 Fe 0.0000 1.0000 1.0000
O15 O 0.2053(4) 0.0083(4) 0.91967(18)
Fe7_2 Fe -0.0000 1.0000 0.5000
Fe6_5 Fe 1.0000 -0.0000 0.0000
Fe6_6 Fe 1.0000 -0.0000 1.0000
O1 O 0.6620(4) 0.1154(4) 0.16758(19)
C1 C 0.7912(6) 0.1265(6) 0.1188(3)
H1 H 0.8949 0.2453 0.1098
O5 O 0.8846(4) 0.5466(6) 0.16758(19)
C3 C 0.8735(6) 0.6647(8) 0.1188(3)
H3 H 0.7547 0.6496 0.1098
O11 O 0.8846(4) 0.3380(4) 0.33242(19)
C6 C 0.8735(6) 0.2088(6) 0.3812(3)
H6 H 0.7547 0.1051 0.3902
Fe6_7 Fe 1.0000 1.0000 0.0000
Fe7_3 Fe 1.0000 0.0000 0.5000
O13 O 0.4534(6) 0.1154(4) 0.33242(19)
O14 O 0.6620(4) 0.5466(6) 0.33242(19)
Fe6_8 Fe 1.0000 1.0000 1.0000
O16 O 0.9917(4) 0.1970(6) 0.91967(18)
O2 O 0.7947(4) 0.9917(4) 0.08033(18)
Fe7_4 Fe 1.0000 1.0000 0.5000
O17 O 0.8030(6) 0.7947(4) 0.91967(18)
O12_2 O 0.7947(4) 0.8030(6) 0.41967(18)
C6_2 C 0.7912(6) 0.6647(8) 0.3812(3)
H6_2 H 0.8949 0.6496 0.3902
C6_3 C 0.3353(8) 0.1265(6) 0.3812(3)
H6_3 H 0.3504 0.2453 0.3902
O12_3 O 0.1970(6) 0.9917(4) 0.41967(18)
O17_2 O 0.2053(4) 0.1970(6) 0.58033(18)
O16_2 O 0.8030(6) 0.0083(4) 0.58033(18)
O15_2 O 0.9917(4) 0.7947(4) 0.58033(18)
O3 O 0.1154(4) 0.4534(6) 0.83242(19)
C2 C 0.1265(6) 0.3353(8) 0.8812(3)
H2 H 0.2453 0.3504 0.8902
Fe3 Fe 0.3333 0.6667 0.7500
O1_2 O 0.3380(4) 0.8846(4) 0.83242(19)
C1_2 C 0.2088(6) 0.8735(6) 0.8812(3)
H1_2 H 0.1051 0.7547 0.8902
O7 O 0.5466(6) 0.6620(4) 0.83242(19)
C4 C 0.6647(8) 0.7912(6) 0.8812(3)
H4 H 0.6496 0.8949 0.8902
O11_2 O 0.1154(4) 0.6620(4) 0.66758(19)
C6_4 C 0.1265(6) 0.7912(6) 0.6188(3)
H6_4 H 0.2453 0.8949 0.6098
O13_2 O 0.5466(6) 0.8846(4) 0.66758(19)
O14_2 O 0.3380(4) 0.4534(6) 0.66758(19)
C6_5 C 0.2088(6) 0.3353(8) 0.6188(3)
H6_5 H 0.1051 0.3504 0.6098
C6_6 C 0.6647(8) 0.8735(6) 0.6188(3)
H6_6 H 0.6496 0.7547 0.6098
loop_
_geom_bond_atom_site_label_1
_geom_bond_atom_site_label_2
_geom_bond_site_symmetry_1
_geom_bond_site_symmetry_2
O9 C5 1_555 1_555
O10 Fe6 1_555 1_555
C5 O10 1_555 1_555
H5 C5 1_555 1_555
Fe4 O9 1_555 1_555
Fe6_3 O6 1_555 1_555
Fe7 O12 1_555 1_555
O15 Fe6_2 1_555 1_555
Fe4 O1 1_555 1_555
O1 C1 1_555 1_555
C1 H1 1_555 1_555
O5 Fe4 1_555 1_555
C3 O5 1_555 1_555
H3 C3 1_555 1_555
O11 Fe4 1_555 1_555
C6 O11 1_555 1_555
H6 C6 1_555 1_555
O13 Fe4 1_555 1_555
O14 Fe4 1_555 1_555
O16 Fe6_6 1_555 1_555
Fe6_7 O2 1_555 1_555
O17 Fe6_8 1_555 1_555
O12_2 C6_2 1_555 1_555
C6_2 O14 1_555 1_555
H6_2 C6_2 1_555 1_555
Fe7_4 O12_2 1_555 1_555
C6_3 O13 1_555 1_555
H6_3 C6_3 1_555 1_555
Fe7_2 O12_3 1_555 1_555
O17_2 Fe7 1_555 1_555
O16_2 Fe7_3 1_555 1_555
O15_2 Fe7_4 1_555 1_555
O3 C2 1_555 1_555
H2 C2 1_555 1_555
Fe3 O3 1_555 1_555
Fe3 O1_2 1_555 1_555
O1_2 C1_2 1_555 1_555
C1_2 H1_2 1_555 1_555
O7 Fe3 1_555 1_555
O17 C4 1_555 1_555
C4 O7 1_555 1_555
H4 C4 1_555 1_555
O11_2 Fe3 1_555 1_555
C6_4 O11_2 1_555 1_555
H6_4 C6_4 1_555 1_555
O13_2 Fe3 1_555 1_555
O14_2 Fe3 1_555 1_555
O17_2 C6_5 1_555 1_555
C6_5 O14_2 1_555 1_555
H6_5 C6_5 1_555 1_555
C6_6 O13_2 1_555 1_555
H6_6 C6_6 1_555 1_555

#END
