
###############################################################################
#
# This file contains modified crystal structure data generated from the
# MOF subset of the Cambridge Structural Database (CSD) v543 
# hosted by the Cambridge Crystallographic Data Centre (CCDC).
#
# This work is licensed under the Creative Commons
# Attribution-NonCommercial-ShareAlike 4.0 International License.
# To view a copy of this license, visit
# http://creativecommons.org/licenses/by-nc-sa/4.0/
# or send a letter to
# Creative Commons, PO Box 1866, Mountain View, CA 94042, USA.
#
# CIF created using the CSD Python API on 29 September 2022
# The structure has been converted into the P1 space group
# The structure has a 3D framework
# The original CSD entry XACLAR is in the monoclinic crystal system
# The framework has been calculated to contain at least 10.0% void space
# The void calculation uses a probe of radius 1.32A, grid spacing 0.4
#
###############################################################################

data_XACLAR
_chemical_formula_moiety         '(C232 H160 Cd12 N8 O70)n'
_symmetry_cell_setting           triclinic
_symmetry_space_group_name_H-M   'P 1'
_symmetry_Int_Tables_number      1
_space_group_name_Hall           'P 1'
loop_
_symmetry_equiv_pos_site_id
_symmetry_equiv_pos_as_xyz
1 x,y,z
_cell_length_a                   31.512(3)
_cell_length_b                   7.0593(4)
_cell_length_c                   27.1251(19)
_cell_angle_alpha                90
_cell_angle_beta                 106.230(4)
_cell_angle_gamma                90
_cell_volume                     5793.58
loop_
_atom_site_label
_atom_site_type_symbol
_atom_site_fract_x
_atom_site_fract_y
_atom_site_fract_z
O5 O 0.14445(14) 0.8679(7) 0.88477(18)
O6 O 0.17031(13) 0.6709(6) 0.94900(18)
C13 C 0.09151(19) 0.6850(9) 0.9104(3)
C14 C 0.0794(3) 0.6350(9) 0.9537(3)
H8 H 0.1007 0.6265 0.9853
C15 C 0.0357(3) 0.5975(10) 0.9503(4)
H9 H 0.0275 0.5670 0.9797
C16 C 0.0038(3) 0.6052(12) 0.9030(4)
C17 C 0.0161(3) 0.6532(15) 0.8610(4)
C18 C 0.0602(2) 0.6957(14) 0.8639(4)
H11 H 0.0680 0.7308 0.8346
C21 C 0.13856(19) 0.7415(8) 0.9147(2)
Cd6 Cd 0.197259(12) 0.36714(6) 0.977709(15)
Cd11 Cd 0.216471(13) 0.92637(6) 0.923648(15)
H20 H 0.0176 0.0319 0.5508
Cd4 Cd 0.216471(13) 0.07363(6) 0.423648(15)
O22 O 0.27311(12) 0.2637(6) 0.42604(16)
O24 O 0.14445(14) 0.1321(7) 0.38477(18)
O28 O 0.17031(13) 0.3291(6) 0.44900(18)
N2 N 0.13158(15) 0.7809(7) 0.47192(19)
C30 C 0.09812(19) 0.7987(9) 0.4291(3)
H21 H 0.1028 0.7688 0.3976
C31 C 0.0566(2) 0.8606(9) 0.4304(3)
H22 H 0.0338 0.8675 0.4002
C32 C 0.0491(2) 0.9123(8) 0.4768(3)
C33 C 0.0852(2) 0.9015(10) 0.5200(3)
H23 H 0.0823 0.9392 0.5517
C34 C 0.1250(2) 0.8358(9) 0.5162(3)
H24 H 0.1486 0.8292 0.5458
C35 C 0.0052(2) 0.9716(9) 0.4796(3)
Cd3 Cd 0.197259(12) 0.63286(6) 0.477709(15)
O10 O 0.22143(17) 0.9245(7) 0.35266(19)
O11 O 0.19209(18) 0.7199(8) 0.39492(17)
O16 O 0.14334(16) 0.1408(7) 0.1775(2)
O18 O 0.23162(12) 0.9382(5) 0.49958(15)
C36 C 0.1973(2) 0.6310(9) 0.3115(2)
C37 C 0.2037(2) 0.6868(9) 0.2657(2)
H26 H 0.2111 0.8120 0.2614
C38 C 0.1994(3) 0.5598(10) 0.2261(2)
H27 H 0.2042 0.5998 0.1954
C39 C 0.1882(2) 0.3755(9) 0.2314(3)
C40 C 0.1812(3) 0.3175(11) 0.2766(3)
H28 H 0.1732 0.1927 0.2803
C41 C 0.1861(3) 0.4446(11) 0.3173(3)
H29 H 0.1819 0.4039 0.3482
C54 C 0.20399(19) 0.7673(10) 0.3556(2)
C57 C 0.1856(2) 0.2343(10) 0.1891(3)
H37 H 0.2092 0.1420 0.1998
H38 H 0.1889 0.2986 0.1587
Cd7 Cd 0.302741(12) 0.86714(6) 0.522291(15)
O19 O 0.18866(14) 0.5077(6) 0.55663(17)
O29 O 0.26838(12) 0.5618(5) 0.50042(15)
O12 O 0.18866(14) 0.4923(6) 0.05663(17)
O13 O 0.22689(12) 0.7637(6) 0.07396(16)
O17 O 0.05128(16) 0.6282(7) 0.1174(2)
C42 C 0.16029(18) 0.7380(8) 0.0986(2)
C43 C 0.16905(19) 0.9074(8) 0.1254(2)
H30 H 0.1948 0.9742 0.1270
C44 C 0.1386(2) 0.9768(10) 0.1499(2)
C45 C 0.1001(2) 0.8780(10) 0.1465(3)
H31 H 0.0797 0.9251 0.1624
C46 C 0.09151(19) 0.7103(10) 0.1196(3)
C47 C 0.1220(2) 0.6351(9) 0.0960(2)
H32 H 0.1169 0.5193 0.0790
H35 H 0.0051 0.3418 0.1707
C55 C 0.19391(18) 0.6580(8) 0.0735(2)
C58 C 0.0439(3) 0.4390(13) 0.1009(5)
H39 H 0.0496 0.4232 0.0678
H40 H 0.0634 0.3549 0.1254
Cd14 Cd 0.283529(13) 0.57363(6) 0.076352(15)
Cd9 Cd 0.802741(12) 0.63286(6) 0.022291(15)
O3 O 0.81134(14) 0.5077(6) 0.94337(17)
O4 O 0.77311(12) 0.2363(6) 0.92604(16)
O8 O 0.94872(16) 0.3718(7) 0.8826(2)
C7 C 0.83971(18) 0.2620(8) 0.9014(2)
C8 C 0.83095(19) 0.0926(8) 0.8746(2)
H5 H 0.8052 0.0258 0.8730
C9 C 0.8614(2) 0.0232(10) 0.8501(2)
C10 C 0.8999(2) 0.1220(10) 0.8535(3)
H6 H 0.9203 0.0749 0.8376
C11 C 0.90849(19) 0.2897(10) 0.8804(3)
C12 C 0.8780(2) 0.3649(9) 0.9040(2)
H7 H 0.8831 0.4807 0.9210
H10 H 0.9949 0.6582 0.8293
C20 C 0.80609(18) 0.3420(8) 0.9265(2)
C23 C 0.9561(3) 0.5610(13) 0.8991(5)
H14 H 0.9504 0.5768 0.9322
H15 H 0.9366 0.6451 0.8746
Cd12 Cd 0.716471(13) 0.42637(6) 0.923648(15)
Cd1 Cd 0.802741(12) 0.36714(6) 0.522291(15)
O1 O 0.77857(17) 0.0755(7) 0.64734(19)
O2 O 0.80791(18) 0.2801(8) 0.60508(17)
O7 O 0.85666(16) 0.8592(7) 0.8225(2)
O9 O 0.76838(12) 0.0618(5) 0.50042(15)
N1 N 0.86842(15) 0.2191(7) 0.52808(19)
C1 C 0.8027(2) 0.3690(9) 0.6885(2)
C2 C 0.7963(2) 0.3132(9) 0.7343(2)
H1 H 0.7889 0.1880 0.7386
C3 C 0.8006(3) 0.4402(10) 0.7739(2)
H2 H 0.7958 0.4002 0.8046
C4 C 0.8118(2) 0.6245(9) 0.7686(3)
C5 C 0.8188(3) 0.6825(11) 0.7234(3)
H3 H 0.8268 0.8073 0.7197
C6 C 0.8139(3) 0.5554(11) 0.6827(3)
H4 H 0.8181 0.5961 0.6518
C19 C 0.79601(19) 0.2327(10) 0.6444(2)
C22 C 0.8144(2) 0.7657(10) 0.8109(3)
H12 H 0.7908 0.8580 0.8002
H13 H 0.8111 0.7014 0.8413
C24 C 0.90188(19) 0.2013(9) 0.5709(3)
H16 H 0.8972 0.2312 0.6024
C25 C 0.9434(2) 0.1394(9) 0.5696(3)
H17 H 0.9662 0.1325 0.5998
C26 C 0.9509(2) 0.0877(8) 0.5232(3)
C27 C 0.9148(2) 0.0985(10) 0.4800(3)
H18 H 0.9177 0.0608 0.4483
C28 C 0.8750(2) 0.1642(9) 0.4838(3)
H19 H 0.8514 0.1708 0.4542
C29 C 0.9948(2) 0.0284(9) 0.5204(3)
Cd10 Cd 0.697259(12) 0.13286(6) 0.477709(15)
O20 O 0.81134(14) 0.4923(6) 0.44337(17)
O26 O 0.82969(13) 0.6709(6) 0.55100(18)
O30 O 0.73162(12) 0.4382(5) 0.49958(15)
Cd2 Cd 0.783529(13) 0.92637(6) 0.576352(15)
H25 H 0.9824 0.9681 0.4492
O21 O 0.72689(12) 0.7363(6) 0.57396(16)
O23 O 0.85555(14) 0.8679(7) 0.61523(18)
O14 O 0.85555(14) 0.1321(7) 0.11523(18)
O15 O 0.82969(13) 0.3291(6) 0.05100(18)
C48 C 0.90849(19) 0.3150(9) 0.0896(3)
C49 C 0.9206(3) 0.3650(9) 0.0463(3)
H33 H 0.8993 0.3735 0.0147
C50 C 0.9643(3) 0.4025(10) 0.0497(4)
H34 H 0.9725 0.4330 0.0203
C51 C 0.9962(3) 0.3948(12) 0.0970(4)
C52 C 0.9839(3) 0.3468(15) 0.1390(4)
C53 C 0.9398(2) 0.3043(14) 0.1361(4)
H36 H 0.9320 0.2692 0.1654
C56 C 0.86144(19) 0.2585(8) 0.0853(2)
Cd13 Cd 0.783529(13) 0.07363(6) 0.076352(15)
O4_2 O 0.22689(12) 0.2363(6) 0.57396(16)
O8_2 O 0.05128(16) 0.3718(7) 0.6174(2)
C7_2 C 0.16029(18) 0.2620(8) 0.5986(2)
C8_2 C 0.16905(19) 0.0926(8) 0.6254(2)
H5_2 H 0.1948 0.0258 0.6270
C9_2 C 0.1386(2) 0.0232(10) 0.6499(2)
C10_2 C 0.1001(2) 0.1220(10) 0.6465(3)
H6_2 H 0.0797 0.0749 0.6624
C11_2 C 0.09151(19) 0.2897(10) 0.6196(3)
C12_2 C 0.1220(2) 0.3649(9) 0.5960(2)
H7_2 H 0.1169 0.4807 0.5790
H10_2 H 0.0051 0.6582 0.6707
C20_2 C 0.19391(18) 0.3420(8) 0.5735(2)
C23_2 C 0.0439(3) 0.5610(13) 0.6009(5)
H14_2 H 0.0496 0.5768 0.5678
H15_2 H 0.0634 0.6451 0.6254
Cd12_2 Cd 0.283529(13) 0.42637(6) 0.576352(15)
C27_2 C 0.0852(2) 0.0985(10) 0.0200(3)
H18_2 H 0.0823 0.0608 0.0517
C28_2 C 0.1250(2) 0.1642(9) 0.0162(3)
H19_2 H 0.1486 0.1708 0.0458
Cd10_2 Cd 0.302741(12) 0.13286(6) 0.022291(15)
O30_2 O 0.26838(12) 0.4382(5) 0.00042(15)
O1_2 O 0.22143(17) 0.0755(7) 0.85266(19)
O2_2 O 0.19209(18) 0.2801(8) 0.89492(17)
O7_2 O 0.14334(16) 0.8592(7) 0.6775(2)
O9_2 O 0.23162(12) 0.0618(5) 0.99958(15)
N1_2 N 0.13158(15) 0.2191(7) 0.97192(19)
C1_2 C 0.1973(2) 0.3690(9) 0.8115(2)
C2_2 C 0.2037(2) 0.3132(9) 0.7657(2)
H1_2 H 0.2111 0.1880 0.7614
C3_2 C 0.1994(3) 0.4402(10) 0.7261(2)
H2_2 H 0.2042 0.4002 0.6954
C4_2 C 0.1882(2) 0.6245(9) 0.7314(3)
C5_2 C 0.1812(3) 0.6825(11) 0.7766(3)
H3_2 H 0.1732 0.8073 0.7803
C6_2 C 0.1861(3) 0.5554(11) 0.8173(3)
H4_2 H 0.1819 0.5961 0.8482
C19_2 C 0.20399(19) 0.2327(10) 0.8556(2)
C22_2 C 0.1856(2) 0.7657(10) 0.6891(3)
H12_2 H 0.2092 0.8580 0.6998
H13_2 H 0.1889 0.7014 0.6587
C24_2 C 0.09812(19) 0.2013(9) 0.9291(3)
H16_2 H 0.1028 0.2312 0.8976
C25_2 C 0.0566(2) 0.1394(9) 0.9304(3)
H17_2 H 0.0338 0.1325 0.9002
C26_2 C 0.0491(2) 0.0877(8) 0.9768(3)
C29_2 C 0.0052(2) 0.0284(9) 0.9796(3)
O21_2 O 0.27311(12) 0.7363(6) 0.92604(16)
C48_2 C 0.09151(19) 0.3150(9) 0.4104(3)
C49_2 C 0.0794(3) 0.3650(9) 0.4537(3)
H33_2 H 0.1007 0.3735 0.4853
C50_2 C 0.0357(3) 0.4025(10) 0.4503(4)
H34_2 H 0.0275 0.4330 0.4797
C51_2 C 0.0038(3) 0.3948(12) 0.4030(4)
C52_2 C 0.0161(3) 0.3468(15) 0.3610(4)
C53_2 C 0.0602(2) 0.3043(14) 0.3639(4)
H36_2 H 0.0680 0.2692 0.3346
C56_2 C 0.13856(19) 0.2585(8) 0.4147(2)
C13_2 C 0.90849(19) 0.6850(9) 0.5896(3)
C14_2 C 0.9206(3) 0.6350(9) 0.5463(3)
H8_2 H 0.8993 0.6265 0.5147
C15_2 C 0.9643(3) 0.5975(10) 0.5497(4)
H9_2 H 0.9725 0.5670 0.5203
C16_2 C 0.9962(3) 0.6052(12) 0.5970(4)
C17_2 C 0.9839(3) 0.6532(15) 0.6390(4)
C18_2 C 0.9398(2) 0.6957(14) 0.6361(4)
H11_2 H 0.9320 0.7308 0.6654
C21_2 C 0.86144(19) 0.7415(8) 0.5853(2)
O22_2 O 0.72689(12) 0.2637(6) 0.07396(16)
N2_2 N 0.86842(15) 0.7809(7) 0.02808(19)
C30_2 C 0.90188(19) 0.7987(9) 0.0709(3)
H21_2 H 0.8972 0.7688 0.1024
C31_2 C 0.9434(2) 0.8606(9) 0.0696(3)
H22_2 H 0.9662 0.8675 0.0998
C32_2 C 0.9509(2) 0.9123(8) 0.0232(3)
C35_2 C 0.9948(2) 0.9716(9) 0.0204(3)
O10_2 O 0.77857(17) 0.9245(7) 0.14734(19)
O11_2 O 0.80791(18) 0.7199(8) 0.10508(17)
O16_2 O 0.85666(16) 0.1408(7) 0.3225(2)
O18_2 O 0.76838(12) 0.9382(5) 0.00042(15)
C36_2 C 0.8027(2) 0.6310(9) 0.1885(2)
C37_2 C 0.7963(2) 0.6868(9) 0.2343(2)
H26_2 H 0.7889 0.8120 0.2386
C38_2 C 0.8006(3) 0.5598(10) 0.2739(2)
H27_2 H 0.7958 0.5998 0.3046
C39_2 C 0.8118(2) 0.3755(9) 0.2686(3)
C40_2 C 0.8188(3) 0.3175(11) 0.2234(3)
H28_2 H 0.8268 0.1927 0.2197
C41_2 C 0.8139(3) 0.4446(11) 0.1827(3)
H29_2 H 0.8181 0.4039 0.1518
C54_2 C 0.79601(19) 0.7673(10) 0.1444(2)
C57_2 C 0.8144(2) 0.2343(10) 0.3109(3)
H37_2 H 0.7908 0.1420 0.3002
H38_2 H 0.8111 0.2986 0.3413
C33_2 C 0.9148(2) 0.9015(10) 0.9800(3)
H23_2 H 0.9177 0.9392 0.9483
C34_2 C 0.8750(2) 0.8358(9) 0.9838(3)
H24_2 H 0.8514 0.8292 0.9542
Cd7_2 Cd 0.697259(12) 0.86714(6) 0.977709(15)
O29_2 O 0.73162(12) 0.5618(5) 0.99958(15)
O13_2 O 0.77311(12) 0.7637(6) 0.42604(16)
O17_2 O 0.94872(16) 0.6282(7) 0.3826(2)
C42_2 C 0.83971(18) 0.7380(8) 0.4014(2)
C43_2 C 0.83095(19) 0.9074(8) 0.3746(2)
H30_2 H 0.8052 0.9742 0.3730
C44_2 C 0.8614(2) 0.9768(10) 0.3501(2)
C45_2 C 0.8999(2) 0.8780(10) 0.3535(3)
H31_2 H 0.9203 0.9251 0.3376
C46_2 C 0.90849(19) 0.7103(10) 0.3804(3)
C47_2 C 0.8780(2) 0.6351(9) 0.4040(2)
H32_2 H 0.8831 0.5193 0.4210
H35_2 H 0.9949 0.3418 0.3293
C55_2 C 0.80609(18) 0.6580(8) 0.4265(2)
C58_2 C 0.9561(3) 0.4390(13) 0.3991(5)
H39_2 H 0.9504 0.4232 0.4322
H40_2 H 0.9366 0.3549 0.3746
Cd14_2 Cd 0.716471(13) 0.57363(6) 0.423648(15)
O3_2 O 0.31134(14) 0.0077(6) 0.94337(17)
O5_2 O 0.64445(14) 0.3679(7) 0.88477(18)
O6_2 O 0.67031(13) 0.1709(6) 0.94900(18)
C13_3 C 0.59151(19) 0.1850(9) 0.9104(3)
C14_3 C 0.5794(3) 0.1350(9) 0.9537(3)
H8_3 H 0.6007 0.1265 0.9853
C15_3 C 0.5357(3) 0.0975(10) 0.9503(4)
H9_3 H 0.5275 0.0670 0.9797
C16_3 C 0.5038(3) 0.1052(12) 0.9030(4)
C17_3 C 0.5161(3) 0.1532(15) 0.8610(4)
H10_3 H 0.4949 0.1582 0.8293
C18_3 C 0.5602(2) 0.1957(14) 0.8639(4)
H11_3 H 0.5680 0.2308 0.8346
C21_3 C 0.63856(19) 0.2415(8) 0.9147(2)
C23_3 C 0.4561(3) 0.0610(13) 0.8991(5)
H14_3 H 0.4504 0.0768 0.9322
H15_3 H 0.4366 0.1451 0.8746
O7_3 O 0.35666(16) 0.3592(7) 0.8225(2)
O8_3 O 0.44872(16) 0.8718(7) 0.8826(2)
C4_3 C 0.3118(2) 0.1245(9) 0.7686(3)
C5_3 C 0.3188(3) 0.1825(11) 0.7234(3)
H3_3 H 0.3268 0.3073 0.7197
C6_3 C 0.3139(3) 0.0554(11) 0.6827(3)
H4_3 H 0.3181 0.0961 0.6518
C7_3 C 0.33971(18) 0.7620(8) 0.9014(2)
C8_3 C 0.33095(19) 0.5926(8) 0.8746(2)
H5_3 H 0.3052 0.5258 0.8730
C9_3 C 0.3614(2) 0.5232(10) 0.8501(2)
C10_3 C 0.3999(2) 0.6220(10) 0.8535(3)
H6_3 H 0.4203 0.5749 0.8376
C11_3 C 0.40849(19) 0.7897(10) 0.8804(3)
C12_3 C 0.3780(2) 0.8649(9) 0.9040(2)
H7_3 H 0.3831 0.9807 0.9210
C20_3 C 0.30609(18) 0.8420(8) 0.9265(2)
C22_3 C 0.3144(2) 0.2657(10) 0.8109(3)
H12_3 H 0.2908 0.3580 0.8002
H13_3 H 0.3111 0.2014 0.8413
O26_2 O 0.32969(13) 0.1709(6) 0.55100(18)
O1_3 O 0.27857(17) 0.5755(7) 0.64734(19)
O2_3 O 0.30791(18) 0.7801(8) 0.60508(17)
N1_3 N 0.36842(15) 0.7191(7) 0.52808(19)
C1_3 C 0.3027(2) 0.8690(9) 0.6885(2)
C2_3 C 0.2963(2) 0.8132(9) 0.7343(2)
H1_3 H 0.2889 0.6880 0.7386
C3_3 C 0.3006(3) 0.9402(10) 0.7739(2)
H2_3 H 0.2958 0.9002 0.8046
C19_3 C 0.29601(19) 0.7327(10) 0.6444(2)
C24_3 C 0.40188(19) 0.7013(9) 0.5709(3)
H16_3 H 0.3972 0.7312 0.6024
C25_3 C 0.4434(2) 0.6394(9) 0.5696(3)
H17_3 H 0.4662 0.6325 0.5998
C26_3 C 0.4509(2) 0.5877(8) 0.5232(3)
C27_3 C 0.4148(2) 0.5985(10) 0.4800(3)
H18_3 H 0.4177 0.5608 0.4483
C28_3 C 0.3750(2) 0.6642(9) 0.4838(3)
H19_3 H 0.3514 0.6708 0.4542
C29_3 C 0.4948(2) 0.5284(9) 0.5204(3)
H20_2 H 0.5176 0.5319 0.5508
N2_3 N 0.63158(15) 0.2809(7) 0.47192(19)
C30_3 C 0.59812(19) 0.2987(9) 0.4291(3)
H21_3 H 0.6028 0.2688 0.3976
C31_3 C 0.5566(2) 0.3606(9) 0.4304(3)
H22_3 H 0.5338 0.3675 0.4002
C32_3 C 0.5491(2) 0.4123(8) 0.4768(3)
C33_3 C 0.5852(2) 0.4015(10) 0.5200(3)
H23_3 H 0.5823 0.4392 0.5517
C34_3 C 0.6250(2) 0.3358(9) 0.5162(3)
H24_3 H 0.6486 0.3292 0.5458
C35_3 C 0.5052(2) 0.4716(9) 0.4796(3)
H25_2 H 0.4824 0.4681 0.4492
O10_3 O 0.72143(17) 0.4245(7) 0.35266(19)
O11_3 O 0.69209(18) 0.2199(8) 0.39492(17)
C36_3 C 0.6973(2) 0.1310(9) 0.3115(2)
C37_3 C 0.7037(2) 0.1868(9) 0.2657(2)
H26_3 H 0.7111 0.3120 0.2614
C38_3 C 0.6994(3) 0.0598(10) 0.2261(2)
H27_3 H 0.7042 0.0998 0.1954
C54_3 C 0.70399(19) 0.2673(10) 0.3556(2)
O19_2 O 0.68866(14) 0.0077(6) 0.55663(17)
O20_2 O 0.31134(14) 0.9923(6) 0.44337(17)
O23_2 O 0.35555(14) 0.3679(7) 0.61523(18)
O24_2 O 0.64445(14) 0.6321(7) 0.38477(18)
O28_2 O 0.67031(13) 0.8291(6) 0.44900(18)
O16_3 O 0.64334(16) 0.6408(7) 0.1775(2)
O17_3 O 0.55128(16) 0.1282(7) 0.1174(2)
C39_3 C 0.6882(2) 0.8755(9) 0.2314(3)
C40_3 C 0.6812(3) 0.8175(11) 0.2766(3)
H28_3 H 0.6732 0.6927 0.2803
C41_3 C 0.6861(3) 0.9446(11) 0.3173(3)
H29_3 H 0.6819 0.9039 0.3482
C42_3 C 0.66029(18) 0.2380(8) 0.0986(2)
C43_3 C 0.66905(19) 0.4074(8) 0.1254(2)
H30_3 H 0.6948 0.4742 0.1270
C44_3 C 0.6386(2) 0.4768(10) 0.1499(2)
C45_3 C 0.6001(2) 0.3780(10) 0.1465(3)
H31_3 H 0.5797 0.4251 0.1624
C46_3 C 0.59151(19) 0.2103(10) 0.1196(3)
C47_3 C 0.6220(2) 0.1351(9) 0.0960(2)
H32_3 H 0.6169 0.0193 0.0790
C55_3 C 0.69391(18) 0.1580(8) 0.0735(2)
C57_3 C 0.6856(2) 0.7343(10) 0.1891(3)
H37_3 H 0.7092 0.6420 0.1998
H38_3 H 0.6889 0.7986 0.1587
O12_2 O 0.68866(14) 0.9923(6) 0.05663(17)
O14_2 O 0.35555(14) 0.6321(7) 0.11523(18)
O15_2 O 0.32969(13) 0.8291(6) 0.05100(18)
C48_3 C 0.40849(19) 0.8150(9) 0.0896(3)
C49_3 C 0.4206(3) 0.8650(9) 0.0463(3)
H33_3 H 0.3993 0.8735 0.0147
C50_3 C 0.4643(3) 0.9025(10) 0.0497(4)
H34_3 H 0.4725 0.9330 0.0203
C51_3 C 0.4962(3) 0.8948(12) 0.0970(4)
C52_3 C 0.4839(3) 0.8468(15) 0.1390(4)
H35_3 H 0.5051 0.8418 0.1707
C53_3 C 0.4398(2) 0.8043(14) 0.1361(4)
H36_3 H 0.4320 0.7692 0.1654
C56_3 C 0.36144(19) 0.7585(8) 0.0853(2)
C58_3 C 0.5439(3) 0.9390(13) 0.1009(5)
H39_3 H 0.5496 0.9232 0.0678
H40_3 H 0.5634 0.8549 0.1254
C13_4 C 0.40849(19) 0.1850(9) 0.5896(3)
C14_4 C 0.4206(3) 0.1350(9) 0.5463(3)
H8_4 H 0.3993 0.1265 0.5147
C15_4 C 0.4643(3) 0.0975(10) 0.5497(4)
H9_4 H 0.4725 0.0670 0.5203
C16_4 C 0.4962(3) 0.1052(12) 0.5970(4)
C17_4 C 0.4839(3) 0.1532(15) 0.6390(4)
H10_4 H 0.5051 0.1582 0.6707
C18_4 C 0.4398(2) 0.1957(14) 0.6361(4)
H11_4 H 0.4320 0.2308 0.6654
C21_4 C 0.36144(19) 0.2415(8) 0.5853(2)
C23_4 C 0.5439(3) 0.0610(13) 0.6009(5)
H14_4 H 0.5496 0.0768 0.5678
H15_4 H 0.5634 0.1451 0.6254
O7_4 O 0.64334(16) 0.3592(7) 0.6775(2)
O8_4 O 0.55128(16) 0.8718(7) 0.6174(2)
C4_4 C 0.6882(2) 0.1245(9) 0.7314(3)
C5_4 C 0.6812(3) 0.1825(11) 0.7766(3)
H3_4 H 0.6732 0.3073 0.7803
C6_4 C 0.6861(3) 0.0554(11) 0.8173(3)
H4_4 H 0.6819 0.0961 0.8482
C7_4 C 0.66029(18) 0.7620(8) 0.5986(2)
C8_4 C 0.66905(19) 0.5926(8) 0.6254(2)
H5_4 H 0.6948 0.5258 0.6270
C9_4 C 0.6386(2) 0.5232(10) 0.6499(2)
C10_4 C 0.6001(2) 0.6220(10) 0.6465(3)
H6_4 H 0.5797 0.5749 0.6624
C11_4 C 0.59151(19) 0.7897(10) 0.6196(3)
C12_4 C 0.6220(2) 0.8649(9) 0.5960(2)
H7_4 H 0.6169 0.9807 0.5790
C20_4 C 0.69391(18) 0.8420(8) 0.5735(2)
C22_4 C 0.6856(2) 0.2657(10) 0.6891(3)
H12_4 H 0.7092 0.3580 0.6998
H13_4 H 0.6889 0.2014 0.6587
C27_4 C 0.5852(2) 0.5985(10) 0.0200(3)
H18_4 H 0.5823 0.5608 0.0517
C28_4 C 0.6250(2) 0.6642(9) 0.0162(3)
H19_4 H 0.6486 0.6708 0.0458
N2_4 N 0.36842(15) 0.2809(7) 0.02808(19)
C30_4 C 0.40188(19) 0.2987(9) 0.0709(3)
H21_4 H 0.3972 0.2688 0.1024
C31_4 C 0.4434(2) 0.3606(9) 0.0696(3)
H22_4 H 0.4662 0.3675 0.0998
C32_4 C 0.4509(2) 0.4123(8) 0.0232(3)
C35_4 C 0.4948(2) 0.4716(9) 0.0204(3)
H25_3 H 0.5176 0.4681 0.0508
O10_4 O 0.27857(17) 0.4245(7) 0.14734(19)
O11_4 O 0.30791(18) 0.2199(8) 0.10508(17)
C36_4 C 0.3027(2) 0.1310(9) 0.1885(2)
C37_4 C 0.2963(2) 0.1868(9) 0.2343(2)
H26_4 H 0.2889 0.3120 0.2386
C38_4 C 0.3006(3) 0.0598(10) 0.2739(2)
H27_4 H 0.2958 0.0998 0.3046
C54_4 C 0.29601(19) 0.2673(10) 0.1444(2)
O1_4 O 0.72143(17) 0.5755(7) 0.85266(19)
O2_4 O 0.69209(18) 0.7801(8) 0.89492(17)
N1_4 N 0.63158(15) 0.7191(7) 0.97192(19)
C1_4 C 0.6973(2) 0.8690(9) 0.8115(2)
C2_4 C 0.7037(2) 0.8132(9) 0.7657(2)
H1_4 H 0.7111 0.6880 0.7614
C3_4 C 0.6994(3) 0.9402(10) 0.7261(2)
H2_4 H 0.7042 0.9002 0.6954
C19_4 C 0.70399(19) 0.7327(10) 0.8556(2)
C24_4 C 0.59812(19) 0.7013(9) 0.9291(3)
H16_4 H 0.6028 0.7312 0.8976
C25_4 C 0.5566(2) 0.6394(9) 0.9304(3)
H17_4 H 0.5338 0.6325 0.9002
C26_4 C 0.5491(2) 0.5877(8) 0.9768(3)
C29_4 C 0.5052(2) 0.5284(9) 0.9796(3)
H20_3 H 0.4824 0.5319 0.9492
C33_4 C 0.4148(2) 0.4015(10) 0.9800(3)
H23_4 H 0.4177 0.4392 0.9483
C34_4 C 0.3750(2) 0.3358(9) 0.9838(3)
H24_4 H 0.3514 0.3292 0.9542
O16_4 O 0.35666(16) 0.6408(7) 0.3225(2)
O17_4 O 0.44872(16) 0.1282(7) 0.3826(2)
C39_4 C 0.3118(2) 0.8755(9) 0.2686(3)
C40_4 C 0.3188(3) 0.8175(11) 0.2234(3)
H28_4 H 0.3268 0.6927 0.2197
C41_4 C 0.3139(3) 0.9446(11) 0.1827(3)
H29_4 H 0.3181 0.9039 0.1518
C42_4 C 0.33971(18) 0.2380(8) 0.4014(2)
C43_4 C 0.33095(19) 0.4074(8) 0.3746(2)
H30_4 H 0.3052 0.4742 0.3730
C44_4 C 0.3614(2) 0.4768(10) 0.3501(2)
C45_4 C 0.3999(2) 0.3780(10) 0.3535(3)
H31_4 H 0.4203 0.4251 0.3376
C46_4 C 0.40849(19) 0.2103(10) 0.3804(3)
C47_4 C 0.3780(2) 0.1351(9) 0.4040(2)
H32_4 H 0.3831 0.0193 0.4210
C55_4 C 0.30609(18) 0.1580(8) 0.4265(2)
C57_4 C 0.3144(2) 0.7343(10) 0.3109(3)
H37_4 H 0.2908 0.6420 0.3002
H38_4 H 0.3111 0.7986 0.3413
C48_4 C 0.59151(19) 0.8150(9) 0.4104(3)
C49_4 C 0.5794(3) 0.8650(9) 0.4537(3)
H33_4 H 0.6007 0.8735 0.4853
C50_4 C 0.5357(3) 0.9025(10) 0.4503(4)
H34_4 H 0.5275 0.9330 0.4797
C51_4 C 0.5038(3) 0.8948(12) 0.4030(4)
C52_4 C 0.5161(3) 0.8468(15) 0.3610(4)
H35_4 H 0.4949 0.8418 0.3293
C53_4 C 0.5602(2) 0.8043(14) 0.3639(4)
H36_4 H 0.5680 0.7692 0.3346
C56_4 C 0.63856(19) 0.7585(8) 0.4147(2)
C58_4 C 0.4561(3) 0.9390(13) 0.3991(5)
H39_4 H 0.4504 0.9232 0.4322
H40_4 H 0.4366 0.8549 0.3746
H25_4 H 0.0176 0.9681 0.0508
H20_4 H 0.9824 0.0319 0.9492
loop_
_geom_bond_atom_site_label_1
_geom_bond_atom_site_label_2
_geom_bond_site_symmetry_1
_geom_bond_site_symmetry_2
O5 C21 1_555 1_555
O6 C21 1_555 1_555
C13 C14 1_555 1_555
C14 H8 1_555 1_555
C15 C14 1_555 1_555
H9 C15 1_555 1_555
C16 C15 1_555 1_555
C17 C16 1_555 1_555
C18 C13 1_555 1_555
H11 C18 1_555 1_555
C21 C13 1_555 1_555
Cd6 O6 1_555 1_555
Cd11 O5 1_555 1_555
O6 Cd11 1_555 1_555
C17 C18 1_555 1_555
O22 Cd4 1_555 1_555
O24 Cd4 1_555 1_555
O28 Cd4 1_555 1_555
N2 C30 1_555 1_555
C30 H21 1_555 1_555
C31 C30 1_555 1_555
H22 C31 1_555 1_555
C32 C31 1_555 1_555
C33 C32 1_555 1_555
H23 C33 1_555 1_555
C34 N2 1_555 1_555
H24 C34 1_555 1_555
Cd3 N2 1_555 1_555
O10 C54 1_555 1_555
O11 Cd3 1_555 1_555
O18 Cd3 1_555 1_555
C36 C37 1_555 1_555
C37 H26 1_555 1_555
C38 C37 1_555 1_555
H27 C38 1_555 1_555
C39 C38 1_555 1_555
C40 C39 1_555 1_555
H28 C40 1_555 1_555
C41 C36 1_555 1_555
H29 C41 1_555 1_555
C54 O11 1_555 1_555
C57 O16 1_555 1_555
H37 C57 1_555 1_555
H38 C57 1_555 1_555
Cd7 O18 1_555 1_555
O19 Cd3 1_555 1_555
O28 Cd3 1_555 1_555
O29 Cd3 1_555 1_555
C32 C35 1_555 1_555
C33 C34 1_555 1_555
C36 C54 1_555 1_555
C39 C57 1_555 1_555
C40 C41 1_555 1_555
Cd7 O29 1_555 1_555
O12 C55 1_555 1_555
O13 C55 1_555 1_555
O17 C46 1_555 1_555
C42 C43 1_555 1_555
C43 H30 1_555 1_555
C44 C43 1_555 1_555
C45 C44 1_555 1_555
H31 C45 1_555 1_555
C46 C45 1_555 1_555
C47 C42 1_555 1_555
H32 C47 1_555 1_555
C55 C42 1_555 1_555
C58 O17 1_555 1_555
H39 C58 1_555 1_555
H40 C58 1_555 1_555
Cd14 O13 1_555 1_555
C46 C47 1_555 1_555
O3 C20 1_555 1_555
O4 C20 1_555 1_555
O8 C11 1_555 1_555
C7 C8 1_555 1_555
C8 H5 1_555 1_555
C9 C8 1_555 1_555
C10 C9 1_555 1_555
H6 C10 1_555 1_555
C11 C10 1_555 1_555
C12 C7 1_555 1_555
H7 C12 1_555 1_555
C20 C7 1_555 1_555
C23 O8 1_555 1_555
H14 C23 1_555 1_555
H15 C23 1_555 1_555
Cd12 O4 1_555 1_555
C11 C12 1_555 1_555
Cd1 O2 1_555 1_555
O1 C19 1_555 1_555
O9 Cd1 1_555 1_555
N1 Cd1 1_555 1_555
C1 C2 1_555 1_555
C2 H1 1_555 1_555
C3 C2 1_555 1_555
H2 C3 1_555 1_555
C4 C3 1_555 1_555
C5 C4 1_555 1_555
H3 C5 1_555 1_555
C6 C1 1_555 1_555
H4 C6 1_555 1_555
C19 O2 1_555 1_555
C22 O7 1_555 1_555
H12 C22 1_555 1_555
H13 C22 1_555 1_555
C24 N1 1_555 1_555
H16 C24 1_555 1_555
C25 C24 1_555 1_555
H17 C25 1_555 1_555
C26 C25 1_555 1_555
C27 C26 1_555 1_555
H18 C27 1_555 1_555
C28 N1 1_555 1_555
H19 C28 1_555 1_555
C29 C26 1_555 1_555
Cd10 O9 1_555 1_555
O20 Cd1 1_555 1_555
O26 Cd1 1_555 1_555
O30 Cd1 1_555 1_555
C1 C19 1_555 1_555
C4 C22 1_555 1_555
C5 C6 1_555 1_555
C27 C28 1_555 1_555
Cd10 O30 1_555 1_555
O21 Cd2 1_555 1_555
O23 Cd2 1_555 1_555
O26 Cd2 1_555 1_555
O14 C56 1_555 1_555
O15 C56 1_555 1_555
C48 C49 1_555 1_555
C49 H33 1_555 1_555
C50 C49 1_555 1_555
H34 C50 1_555 1_555
C51 C50 1_555 1_555
C52 C51 1_555 1_555
C53 C48 1_555 1_555
H36 C53 1_555 1_555
C56 C48 1_555 1_555
Cd9 O15 1_555 1_555
Cd13 O14 1_555 1_555
O15 Cd13 1_555 1_555
C52 C53 1_555 1_555
O19 C20_2 1_555 1_555
O4_2 C20_2 1_555 1_555
O8_2 C11_2 1_555 1_555
C7_2 C8_2 1_555 1_555
C8_2 H5_2 1_555 1_555
C9_2 C8_2 1_555 1_555
C10_2 C9_2 1_555 1_555
H6_2 C10_2 1_555 1_555
C11_2 C10_2 1_555 1_555
C12_2 C7_2 1_555 1_555
H7_2 C12_2 1_555 1_555
C20_2 C7_2 1_555 1_555
C23_2 O8_2 1_555 1_555
H14_2 C23_2 1_555 1_555
H15_2 C23_2 1_555 1_555
Cd12_2 O4_2 1_555 1_555
C11_2 C12_2 1_555 1_555
H18_2 C27_2 1_555 1_555
H19_2 C28_2 1_555 1_555
C27_2 C28_2 1_555 1_555
Cd10_2 O30_2 1_555 1_555
Cd6 O2_2 1_555 1_555
O1_2 C19_2 1_555 1_555
O9_2 Cd6 1_555 1_555
N1_2 Cd6 1_555 1_555
C1_2 C2_2 1_555 1_555
C2_2 H1_2 1_555 1_555
C3_2 C2_2 1_555 1_555
H2_2 C3_2 1_555 1_555
C4_2 C3_2 1_555 1_555
C5_2 C4_2 1_555 1_555
H3_2 C5_2 1_555 1_555
C6_2 C1_2 1_555 1_555
H4_2 C6_2 1_555 1_555
C19_2 O2_2 1_555 1_555
C22_2 O7_2 1_555 1_555
H12_2 C22_2 1_555 1_555
H13_2 C22_2 1_555 1_555
C24_2 N1_2 1_555 1_555
H16_2 C24_2 1_555 1_555
C25_2 C24_2 1_555 1_555
H17_2 C25_2 1_555 1_555
C26_2 C25_2 1_555 1_555
C29_2 C26_2 1_555 1_555
C1_2 C19_2 1_555 1_555
C4_2 C22_2 1_555 1_555
C5_2 C6_2 1_555 1_555
O21_2 Cd11 1_555 1_555
O24 C56_2 1_555 1_555
O28 C56_2 1_555 1_555
C48_2 C49_2 1_555 1_555
C49_2 H33_2 1_555 1_555
C50_2 C49_2 1_555 1_555
H34_2 C50_2 1_555 1_555
C51_2 C50_2 1_555 1_555
C52_2 C51_2 1_555 1_555
C53_2 C48_2 1_555 1_555
H36_2 C53_2 1_555 1_555
C56_2 C48_2 1_555 1_555
C52_2 C53_2 1_555 1_555
O23 C21_2 1_555 1_555
O26 C21_2 1_555 1_555
C13_2 C14_2 1_555 1_555
C14_2 H8_2 1_555 1_555
C15_2 C14_2 1_555 1_555
H9_2 C15_2 1_555 1_555
C16_2 C15_2 1_555 1_555
C17_2 C16_2 1_555 1_555
C18_2 C13_2 1_555 1_555
H11_2 C18_2 1_555 1_555
C21_2 C13_2 1_555 1_555
C17_2 C18_2 1_555 1_555
O22_2 Cd13 1_555 1_555
N2_2 C30_2 1_555 1_555
C30_2 H21_2 1_555 1_555
C31_2 C30_2 1_555 1_555
H22_2 C31_2 1_555 1_555
C32_2 C31_2 1_555 1_555
Cd9 N2_2 1_555 1_555
O10_2 C54_2 1_555 1_555
O11_2 Cd9 1_555 1_555
O18_2 Cd9 1_555 1_555
C36_2 C37_2 1_555 1_555
C37_2 H26_2 1_555 1_555
C38_2 C37_2 1_555 1_555
H27_2 C38_2 1_555 1_555
C39_2 C38_2 1_555 1_555
C40_2 C39_2 1_555 1_555
H28_2 C40_2 1_555 1_555
C41_2 C36_2 1_555 1_555
H29_2 C41_2 1_555 1_555
C54_2 O11_2 1_555 1_555
C57_2 O16_2 1_555 1_555
H37_2 C57_2 1_555 1_555
H38_2 C57_2 1_555 1_555
C32_2 C35_2 1_555 1_555
C36_2 C54_2 1_555 1_555
C39_2 C57_2 1_555 1_555
C40_2 C41_2 1_555 1_555
H23_2 C33_2 1_555 1_555
H24_2 C34_2 1_555 1_555
C33_2 C34_2 1_555 1_555
Cd7_2 O29_2 1_555 1_555
O20 C55_2 1_555 1_555
O13_2 C55_2 1_555 1_555
O17_2 C46_2 1_555 1_555
C42_2 C43_2 1_555 1_555
C43_2 H30_2 1_555 1_555
C44_2 C43_2 1_555 1_555
C45_2 C44_2 1_555 1_555
H31_2 C45_2 1_555 1_555
C46_2 C45_2 1_555 1_555
C47_2 C42_2 1_555 1_555
H32_2 C47_2 1_555 1_555
C55_2 C42_2 1_555 1_555
C58_2 O17_2 1_555 1_555
H39_2 C58_2 1_555 1_555
H40_2 C58_2 1_555 1_555
Cd14_2 O13_2 1_555 1_555
C46_2 C47_2 1_555 1_555
O5_2 C21_3 1_555 1_555
O6_2 C21_3 1_555 1_555
C13_3 C14_3 1_555 1_555
C14_3 H8_3 1_555 1_555
C15_3 C14_3 1_555 1_555
H9_3 C15_3 1_555 1_555
C16_3 C15_3 1_555 1_555
C17_3 C16_3 1_555 1_555
H10_3 C17_3 1_555 1_555
C18_3 C13_3 1_555 1_555
H11_3 C18_3 1_555 1_555
C21_3 C13_3 1_555 1_555
H14_3 C23_3 1_555 1_555
H15_3 C23_3 1_555 1_555
Cd12 O5_2 1_555 1_555
O6_2 Cd12 1_555 1_555
C16_3 C23_3 1_555 1_555
C17_3 C18_3 1_555 1_555
O21_2 C20_3 1_555 1_555
O7_3 C9_3 1_555 1_555
O8_3 C11_3 1_555 1_555
C5_3 C4_3 1_555 1_555
H3_3 C5_3 1_555 1_555
H4_3 C6_3 1_555 1_555
C7_3 C8_3 1_555 1_555
C8_3 H5_3 1_555 1_555
C9_3 C8_3 1_555 1_555
C10_3 C9_3 1_555 1_555
H6_3 C10_3 1_555 1_555
C11_3 C10_3 1_555 1_555
C12_3 C7_3 1_555 1_555
H7_3 C12_3 1_555 1_555
C20_3 C7_3 1_555 1_555
C22_3 O7_3 1_555 1_555
H12_3 C22_3 1_555 1_555
H13_3 C22_3 1_555 1_555
C4_3 C22_3 1_555 1_555
C5_3 C6_3 1_555 1_555
C11_3 C12_3 1_555 1_555
Cd7 O2_3 1_555 1_555
Cd12_2 O1_3 1_555 1_555
O1_3 C19_3 1_555 1_555
O2_3 Cd12_2 1_555 1_555
N1_3 Cd7 1_555 1_555
C1_3 C2_3 1_555 1_555
C2_3 H1_3 1_555 1_555
C3_3 C2_3 1_555 1_555
H2_3 C3_3 1_555 1_555
C19_3 O2_3 1_555 1_555
C24_3 N1_3 1_555 1_555
H16_3 C24_3 1_555 1_555
C25_3 C24_3 1_555 1_555
H17_3 C25_3 1_555 1_555
C26_3 C25_3 1_555 1_555
C27_3 C26_3 1_555 1_555
H18_3 C27_3 1_555 1_555
C28_3 N1_3 1_555 1_555
H19_3 C28_3 1_555 1_555
C29_3 C26_3 1_555 1_555
H20_2 C29_3 1_555 1_555
N2_3 C30_3 1_555 1_555
C30_3 H21_3 1_555 1_555
C31_3 C30_3 1_555 1_555
H22_3 C31_3 1_555 1_555
C32_3 C31_3 1_555 1_555
C33_3 C32_3 1_555 1_555
H23_3 C33_3 1_555 1_555
C34_3 N2_3 1_555 1_555
H24_3 C34_3 1_555 1_555
C35_3 C29_3 1_555 1_555
H25_2 C35_3 1_555 1_555
Cd10 N2_3 1_555 1_555
Cd14_2 O10_3 1_555 1_555
O10_3 C54_3 1_555 1_555
O11_3 Cd10 1_555 1_555
C36_3 C37_3 1_555 1_555
C37_3 H26_3 1_555 1_555
C38_3 C37_3 1_555 1_555
H27_3 C38_3 1_555 1_555
C54_3 O11_3 1_555 1_555
O19_2 Cd10 1_555 1_555
O20_2 Cd7 1_555 1_555
O23_2 Cd12_2 1_555 1_555
O24_2 Cd14_2 1_555 1_555
O26_2 Cd12_2 1_555 1_555
O28_2 Cd14_2 1_555 1_555
Cd12_2 O29 1_555 1_555
C1_3 C19_3 1_555 1_555
C27_3 C28_3 1_555 1_555
C32_3 C35_3 1_555 1_555
C33_3 C34_3 1_555 1_555
Cd14_2 O11_3 1_555 1_555
Cd14_2 O30 1_555 1_555
C36_3 C54_3 1_555 1_555
O22_2 C55_3 1_555 1_555
O16_3 C44_3 1_555 1_555
O17_3 C46_3 1_555 1_555
C40_3 C39_3 1_555 1_555
H28_3 C40_3 1_555 1_555
H29_3 C41_3 1_555 1_555
C42_3 C43_3 1_555 1_555
C43_3 H30_3 1_555 1_555
C44_3 C43_3 1_555 1_555
C45_3 C44_3 1_555 1_555
H31_3 C45_3 1_555 1_555
C46_3 C45_3 1_555 1_555
C47_3 C42_3 1_555 1_555
H32_3 C47_3 1_555 1_555
C55_3 C42_3 1_555 1_555
C57_3 O16_3 1_555 1_555
H37_3 C57_3 1_555 1_555
H38_3 C57_3 1_555 1_555
C39_3 C57_3 1_555 1_555
C40_3 C41_3 1_555 1_555
C46_3 C47_3 1_555 1_555
O14_2 C56_3 1_555 1_555
O15_2 C56_3 1_555 1_555
C48_3 C49_3 1_555 1_555
C49_3 H33_3 1_555 1_555
C50_3 C49_3 1_555 1_555
H34_3 C50_3 1_555 1_555
C51_3 C50_3 1_555 1_555
C52_3 C51_3 1_555 1_555
H35_3 C52_3 1_555 1_555
C53_3 C48_3 1_555 1_555
H36_3 C53_3 1_555 1_555
C56_3 C48_3 1_555 1_555
H39_3 C58_3 1_555 1_555
H40_3 C58_3 1_555 1_555
Cd14 O14_2 1_555 1_555
O15_2 Cd14 1_555 1_555
C51_3 C58_3 1_555 1_555
C52_3 C53_3 1_555 1_555
O23_2 C21_4 1_555 1_555
O26_2 C21_4 1_555 1_555
C13_4 C14_4 1_555 1_555
C14_4 H8_4 1_555 1_555
C15_4 C14_4 1_555 1_555
H9_4 C15_4 1_555 1_555
C16_4 C15_4 1_555 1_555
C17_4 C16_4 1_555 1_555
H10_4 C17_4 1_555 1_555
C18_4 C13_4 1_555 1_555
H11_4 C18_4 1_555 1_555
C21_4 C13_4 1_555 1_555
H14_4 C23_4 1_555 1_555
H15_4 C23_4 1_555 1_555
C16_4 C23_4 1_555 1_555
C17_4 C18_4 1_555 1_555
O21 C20_4 1_555 1_555
O7_4 C9_4 1_555 1_555
O8_4 C11_4 1_555 1_555
C5_4 C4_4 1_555 1_555
H3_4 C5_4 1_555 1_555
H4_4 C6_4 1_555 1_555
C7_4 C8_4 1_555 1_555
C8_4 H5_4 1_555 1_555
C9_4 C8_4 1_555 1_555
C10_4 C9_4 1_555 1_555
H6_4 C10_4 1_555 1_555
C11_4 C10_4 1_555 1_555
C12_4 C7_4 1_555 1_555
H7_4 C12_4 1_555 1_555
C20_4 C7_4 1_555 1_555
C22_4 O7_4 1_555 1_555
H12_4 C22_4 1_555 1_555
H13_4 C22_4 1_555 1_555
C4_4 C22_4 1_555 1_555
C5_4 C6_4 1_555 1_555
C11_4 C12_4 1_555 1_555
H18_4 C27_4 1_555 1_555
H19_4 C28_4 1_555 1_555
N2_4 C30_4 1_555 1_555
C30_4 H21_4 1_555 1_555
C31_4 C30_4 1_555 1_555
H22_4 C31_4 1_555 1_555
C32_4 C31_4 1_555 1_555
H25_3 C35_4 1_555 1_555
Cd10_2 N2_4 1_555 1_555
Cd14 O10_4 1_555 1_555
O10_4 C54_4 1_555 1_555
O11_4 Cd10_2 1_555 1_555
C36_4 C37_4 1_555 1_555
C37_4 H26_4 1_555 1_555
C38_4 C37_4 1_555 1_555
H27_4 C38_4 1_555 1_555
C54_4 O11_4 1_555 1_555
C27_4 C28_4 1_555 1_555
C32_4 C35_4 1_555 1_555
Cd14 O11_4 1_555 1_555
Cd14 O30_2 1_555 1_555
C36_4 C54_4 1_555 1_555
Cd7_2 O2_4 1_555 1_555
Cd12 O1_4 1_555 1_555
O1_4 C19_4 1_555 1_555
O2_4 Cd12 1_555 1_555
N1_4 Cd7_2 1_555 1_555
C1_4 C2_4 1_555 1_555
C2_4 H1_4 1_555 1_555
C3_4 C2_4 1_555 1_555
H2_4 C3_4 1_555 1_555
C19_4 O2_4 1_555 1_555
C24_4 N1_4 1_555 1_555
H16_4 C24_4 1_555 1_555
C25_4 C24_4 1_555 1_555
H17_4 C25_4 1_555 1_555
C26_4 C25_4 1_555 1_555
C29_4 C26_4 1_555 1_555
H20_3 C29_4 1_555 1_555
H23_4 C33_4 1_555 1_555
H24_4 C34_4 1_555 1_555
Cd12 O29_2 1_555 1_555
C1_4 C19_4 1_555 1_555
C33_4 C34_4 1_555 1_555
O22 C55_4 1_555 1_555
O16_4 C44_4 1_555 1_555
O17_4 C46_4 1_555 1_555
C40_4 C39_4 1_555 1_555
H28_4 C40_4 1_555 1_555
H29_4 C41_4 1_555 1_555
C42_4 C43_4 1_555 1_555
C43_4 H30_4 1_555 1_555
C44_4 C43_4 1_555 1_555
C45_4 C44_4 1_555 1_555
H31_4 C45_4 1_555 1_555
C46_4 C45_4 1_555 1_555
C47_4 C42_4 1_555 1_555
H32_4 C47_4 1_555 1_555
C55_4 C42_4 1_555 1_555
C57_4 O16_4 1_555 1_555
H37_4 C57_4 1_555 1_555
H38_4 C57_4 1_555 1_555
C39_4 C57_4 1_555 1_555
C40_4 C41_4 1_555 1_555
C46_4 C47_4 1_555 1_555
O24_2 C56_4 1_555 1_555
O28_2 C56_4 1_555 1_555
C48_4 C49_4 1_555 1_555
C49_4 H33_4 1_555 1_555
C50_4 C49_4 1_555 1_555
H34_4 C50_4 1_555 1_555
C51_4 C50_4 1_555 1_555
C52_4 C51_4 1_555 1_555
H35_4 C52_4 1_555 1_555
C53_4 C48_4 1_555 1_555
H36_4 C53_4 1_555 1_555
C56_4 C48_4 1_555 1_555
H39_4 C58_4 1_555 1_555
H40_4 C58_4 1_555 1_555
C51_4 C58_4 1_555 1_555
C52_4 C53_4 1_555 1_555

#END
