
###############################################################################
#
# This file contains modified crystal structure data generated from the
# MOF subset of the Cambridge Structural Database (CSD) v543 
# hosted by the Cambridge Crystallographic Data Centre (CCDC).
#
# This work is licensed under the Creative Commons
# Attribution-NonCommercial-ShareAlike 4.0 International License.
# To view a copy of this license, visit
# http://creativecommons.org/licenses/by-nc-sa/4.0/
# or send a letter to
# Creative Commons, PO Box 1866, Mountain View, CA 94042, USA.
#
# CIF created using the CSD Python API on 29 September 2022
# The structure has been converted into the P1 space group
# The structure has a 3D framework
# The original CSD entry XACZEH is in the rhombohedral crystal system
# The framework has been calculated to contain at least 10.0% void space
# The void calculation uses a probe of radius 1.32A, grid spacing 0.4
#
###############################################################################

data_XACZEH
_chemical_formula_moiety         '(C216 H216 Cu36 N180 O108)n'
_symmetry_cell_setting           triclinic
_symmetry_space_group_name_H-M   'P 1'
_symmetry_Int_Tables_number      1
_space_group_name_Hall           'P 1'
loop_
_symmetry_equiv_pos_site_id
_symmetry_equiv_pos_as_xyz
1 x,y,z
_cell_length_a                   31.350(1)
_cell_length_b                   31.350(1)
_cell_length_c                   14.285(1)
_cell_angle_alpha                90
_cell_angle_beta                 90
_cell_angle_gamma                120
_cell_volume                     12158.7
loop_
_atom_site_label
_atom_site_type_symbol
_atom_site_fract_x
_atom_site_fract_y
_atom_site_fract_z
Cu1 Cu 0.51485(4) 0.03713(4) 0.07435(7)
O1 O 0.5435(2) 0.0928(2) 0.1836(5)
H1 H 0.5286 0.1036 0.2187
H2 H 0.5726 0.1194 0.1898
N1 N 0.3744(3) 0.0203(3) 0.1474(6)
C3 C 0.4201(4) 0.0323(4) 0.1460(8)
H5 H 0.4475 0.0661 0.1824
N2 N 0.4433(3) 0.0139(3) 0.0925(5)
H9 H 0.5232 0.134 0.0441
N11 N 0.5802(2) 0.0489(3) 0.0261(5)
N6 N 0.5119(4) 0.1522(4) 0.9201(7)
C8 C 0.5176(5) 0.1224(5) 0.9823(8)
N7 N 0.5135(3) 0.0801(3) 0.9709(6)
C9 C 0.5002(4) 0.0622(4) 0.8819(7)
C10 C 0.4958(4) 0.0896(4) 0.8064(7)
C11 C 0.5031(5) 0.1363(4) 0.8298(9)
N8 N 0.4838(3) 0.0613(3) 0.7270(5)
C12 C 0.4819(4) 0.0207(4) 0.7569(6)
N9 N 0.4916(3) 0.0194(3) 0.8493(5)
N10 N 0.5022(5) 0.1675(4) 0.7662(7)
H11 H 0.5065 0.1954 0.7839
H12 H 0.4957 0.1587 0.7082
Cu4 Cu 0.46182(4) 0.06532(6) 0.59775(7)
O8 O 0.4536(2) 0.0811(3) 0.4691(4)
C13 C 0.4855(3) 0.0828(4) 0.4134(7)
O9 O 0.4889(3) 0.0941(4) 0.3307(5)
C14 C 0.5230(4) 0.0698(6) 0.4574(7)
O10 O 0.5148(2) 0.0585(3) 0.5454(4)
N14 N 0.4117(3) 0.0826(4) 0.6382(5)
C15 C 0.3739(4) 0.0666(6) 0.7022(6)
C16 C 0.3568(4) 0.1005(5) 0.7034(6)
N15 N 0.3194(3) 0.0961(4) 0.7592(5)
Cu5 Cu 0.29620(4) 0.14439(6) 0.74102(7)
Cu6 Cu 0.37046(4) 0.18895(6) 0.59232(7)
N16 N 0.2844(3) 0.1980(4) 0.6928(5)
O11 O 0.2405(2) 0.1174(3) 0.8503(5)
H15 H 0.2297 0.0917 0.8854
H16 H 0.2139 0.1199 0.8565
N17 N 0.2532(3) 0.1001(4) 0.6376(6)
C17 C 0.2109(5) 0.0619(7) 0.6490(8)
N18 N 0.1811(4) 0.0264(6) 0.5868(7)
C18 C 0.1970(4) 0.0335(6) 0.4965(9)
C19 C 0.2437(4) 0.0729(6) 0.4731(7)
C20 C 0.2711(4) 0.1047(6) 0.5486(7)
N19 N 0.3139(3) 0.1389(4) 0.5160(5)
N20 N 0.3822(3) 0.1354(4) 0.6406(5)
C21 C 0.4133(3) 0.1228(5) 0.6018(6)
H17 H 0.4361 0.1424 0.5496
N21 N 0.3527(3) 0.1945(4) 0.8174(5)
C22 C 0.3126(4) 0.1279(6) 0.4236(6)
N22 N 0.2720(3) 0.0892(4) 0.3937(5)
N23 N 0.1658(4) 0.0014(6) 0.4329(7)
H19 H 0.1746 0.0037 0.3749
H20 H 0.199333 0.0559 0.7108
C23 C 0.3010(4) 0.0545(6) 0.8127(8)
N24 N 0.3130(3) 0.0208(4) 0.8141(6)
C24 C 0.3498(4) 0.0241(6) 0.7566(7)
H23 H 0.2672 0.0481 0.8491
O12 O 0.5561(3) 0.0722(4) 0.4088(5)
Cu7 Cu 0.26802(6) 0.06317(4) 0.26441(7)
H24 H 0.3488 0.1489 0.3903
C4 C 0.4103(3) 0.9765(4) 0.0367(6)
C5 C 0.3593(4) 0.9594(4) 0.0355(6)
C6 C 0.3409(4) 0.9835(4) 0.0899(7)
N5 N 0.2946(3) 0.9734(3) 0.0886(7)
H7 H 0.2732 0.9514 0.0534
H8 H 0.2862 0.9904 0.1252
N12 N 0.5084(3) 0.9806(3) 0.1507(5)
N13 N 0.2442(4) 0.8495(3) 0.0603(5)
Cu2 Cu 0.27016(4) 0.87151(4) 0.93108(7)
O2 O 0.2487(2) 0.9318(2) 0.9135(5)
H3 H 0.2162 0.9217 0.9021
H4 H 0.2667 0.9591 0.88
O3 O 0.2941(2) 0.8797(2) 0.8024(4)
O4 O 0.2103(2) 0.8185(2) 0.8787(4)
O5 O 0.2718(3) 0.8444(3) 0.6640(5)
O6 O 0.1827(2) 0.7772(3) 0.7421(5)
C1 C 0.2639(3) 0.8478(3) 0.7467(7)
C2 C 0.2134(4) 0.8103(4) 0.7907(7)
N3 N 0.3375(3) 0.9216(3) 0.9715(5)
C7 C 0.3761(4) 0.9200(3) 0.9351(6)
H6 H 0.3729 0.8972 0.8829
N4 N 0.4198(2) 0.9511(3) 0.9739(5)
H10 H 0.4667 0.9845 0.7236
Cu3 Cu 0.48515(4) 0.96287(4) 0.92565(7)
O7 O 0.4015(2) 0.9836(3) 0.5802(5)
H13 H 0.4116 0.9612 0.5688
H14 H 0.3742 0.9743 0.546667
H18 H 0.1379 0.9778 0.4506
N25 N 0.3599(3) 0.9879(4) 0.7553(7)
H21 H 0.3819 0.9885 0.7201
H22 H 0.3429 0.9625 0.7919
C4_2 C 0.0235(4) 0.4338(5) 0.0367(6)
C5_2 C 0.0406(4) 0.3999(6) 0.0355(6)
C6_2 C 0.0165(4) 0.3574(6) 0.0899(7)
N5_2 N 0.0266(3) 0.3212(4) 0.0886(7)
H7_2 H 0.0486 0.3218 0.0534
H8_2 H 0.0096 0.2958 0.1252
N12_2 N 0.0194(3) 0.5278(4) 0.1507(5)
N13_2 N 0.1505(3) 0.3946(5) 0.0603(5)
Cu2_2 Cu 0.12849(4) 0.39865(6) 0.93108(7)
O2_2 O 0.0682(2) 0.3169(3) 0.9135(5)
H3_2 H 0.0783 0.2945 0.9021
H4_2 H 0.0409 0.3076 0.88
O3_2 O 0.1203(2) 0.4144(3) 0.8024(4)
O4_2 O 0.1815(2) 0.3918(3) 0.8787(4)
O5_2 O 0.1556(3) 0.4274(4) 0.6640(5)
O6_2 O 0.2228(3) 0.4055(4) 0.7421(5)
C1_2 C 0.1522(3) 0.4161(4) 0.7467(7)
C2_2 C 0.1897(4) 0.4031(6) 0.7907(7)
N3_2 N 0.0784(3) 0.4159(4) 0.9715(5)
C7_2 C 0.0800(3) 0.4561(5) 0.9351(6)
H6_2 H 0.1028 0.4757 0.8829
N4_2 N 0.0489(3) 0.4687(4) 0.9739(5)
H10_2 H 0.0155 0.4822 0.7236
Cu3_2 Cu 0.03713(4) 0.52228(6) 0.92565(7)
O7_2 O 0.0164(3) 0.4180(4) 0.5802(5)
H13_2 H 0.0388 0.4505 0.5688
H14_2 H 0.0257 0.4000 0.546667
H18_2 H 0.0222 0.1602 0.4506
N25_2 N 0.0121(4) 0.3721(5) 0.7553(7)
H21_2 H 0.0115 0.3935 0.7201
H22_2 H 0.0375 0.3805 0.7919
Cu1_2 Cu 0.96287(4) 0.47772(6) 0.07435(7)
O1_2 O 0.9072(2) 0.4507(3) 0.1836(5)
H1_2 H 0.8964 0.4250 0.2187
H2_2 H 0.8806 0.4532 0.1898
N1_2 N 0.9797(3) 0.3541(4) 0.1474(6)
C3_2 C 0.9677(4) 0.3878(6) 0.1460(8)
H5_2 H 0.9339 0.3814 0.1824
N2_2 N 0.9861(3) 0.4294(4) 0.0925(5)
H9_2 H 0.866 0.3892 0.0441
N11_2 N 0.9511(3) 0.5313(4) 0.0261(5)
N6_2 N 0.8478(4) 0.3597(6) 0.9201(7)
C8_2 C 0.8776(5) 0.3952(7) 0.9823(8)
N7_2 N 0.9199(3) 0.4334(4) 0.9709(6)
C9_2 C 0.9378(4) 0.4380(6) 0.8819(7)
C10_2 C 0.9104(4) 0.4062(6) 0.8064(7)
C11_2 C 0.8637(4) 0.3668(6) 0.8298(9)
N8_2 N 0.9387(3) 0.4225(4) 0.7270(5)
C12_2 C 0.9793(4) 0.4612(6) 0.7569(6)
N9_2 N 0.9806(3) 0.4722(4) 0.8493(5)
N10_2 N 0.8325(4) 0.3347(6) 0.7662(7)
H11_2 H 0.8046 0.3111 0.7839
H12_2 H 0.8413 0.3370 0.7082
Cu4_2 Cu 0.93468(6) 0.39651(7) 0.59775(7)
O8_2 O 0.9189(3) 0.3726(4) 0.4691(4)
C13_2 C 0.9172(4) 0.4028(5) 0.4134(7)
O9_2 O 0.9059(4) 0.3949(5) 0.3307(5)
C14_2 C 0.9302(6) 0.4533(7) 0.4574(7)
O10_2 O 0.9415(3) 0.4564(4) 0.5454(4)
N14_2 N 0.9174(4) 0.3292(5) 0.6382(5)
C15_2 C 0.9334(6) 0.3074(7) 0.7022(6)
C16_2 C 0.8995(5) 0.2564(6) 0.7034(6)
N15_2 N 0.9039(4) 0.2234(5) 0.7592(5)
Cu5_2 Cu 0.85561(6) 0.15182(7) 0.74102(7)
Cu6_2 Cu 0.81105(6) 0.18152(7) 0.59232(7)
N16_2 N 0.8020(4) 0.0865(5) 0.6928(5)
O11_2 O 0.8826(3) 0.1232(4) 0.8503(5)
H15_2 H 0.9083 0.1381 0.8854
H16_2 H 0.8801 0.0941 0.8565
N17_2 N 0.8999(4) 0.1532(5) 0.6376(6)
C17_2 C 0.9381(7) 0.1491(9) 0.6490(8)
N18_2 N 0.9736(6) 0.1548(7) 0.5868(7)
C18_2 C 0.9665(6) 0.1636(7) 0.4965(9)
C19_2 C 0.9271(6) 0.1709(7) 0.4731(7)
C20_2 C 0.8953(6) 0.1665(7) 0.5486(7)
N19_2 N 0.8611(4) 0.1751(5) 0.5160(5)
N20_2 N 0.8646(4) 0.2469(5) 0.6406(5)
C21_2 C 0.8772(5) 0.2906(6) 0.6018(6)
H17_2 H 0.8576 0.2938 0.5496
N21_2 N 0.8055(4) 0.1583(5) 0.8174(5)
C22_2 C 0.8721(6) 0.1848(7) 0.4236(6)
N22_2 N 0.9108(4) 0.1829(5) 0.3937(5)
N23_2 N 0.9986(6) 0.1645(7) 0.4329(7)
H19_2 H 0.9963 0.1710 0.3749
H20_2 H 0.9441 0.143467 0.7108
C23_2 C 0.9455(6) 0.2466(7) 0.8127(8)
N24_2 N 0.9792(4) 0.2923(5) 0.8141(6)
C24_2 C 0.9759(6) 0.3258(7) 0.7566(7)
H23_2 H 0.9519 0.2192 0.8491
O12_2 O 0.9278(4) 0.4840(5) 0.4088(5)
Cu7_2 Cu 0.93683(4) 0.20484(7) 0.26441(7)
H24_2 H 0.8511 0.2000 0.3903
Cu1_3 Cu 0.52228(6) 0.48515(4) 0.07435(7)
O1_3 O 0.5493(3) 0.4565(2) 0.1836(5)
H1_3 H 0.5750 0.4714 0.2187
H2_3 H 0.5468 0.4274 0.1898
N1_3 N 0.6459(4) 0.6256(3) 0.1474(6)
C3_3 C 0.6122(6) 0.5799(4) 0.1460(8)
H5_3 H 0.6186 0.5525 0.1824
N2_3 N 0.5706(4) 0.5567(3) 0.0925(5)
C4_3 C 0.5662(5) 0.5897(3) 0.0367(6)
C5_3 C 0.6001(6) 0.6407(4) 0.0355(6)
C6_3 C 0.6426(6) 0.6591(4) 0.0899(7)
N5_3 N 0.6788(4) 0.7054(3) 0.0886(7)
H7_3 H 0.6782 0.7268 0.0534
H8_3 H 0.7042 0.7138 0.1252
H9_3 H 0.6108 0.4768 0.0441
N11_3 N 0.4687(4) 0.4198(2) 0.0261(5)
N12_3 N 0.4722(4) 0.4916(3) 0.1507(5)
N13_3 N 0.6054(5) 0.7558(4) 0.0603(5)
Cu2_3 Cu 0.60135(6) 0.72984(4) 0.93108(7)
O2_3 O 0.6831(3) 0.7513(2) 0.9135(5)
H3_3 H 0.7055 0.7838 0.9021
H4_3 H 0.6924 0.7333 0.88
O3_3 O 0.5856(3) 0.7059(2) 0.8024(4)
O4_3 O 0.6082(3) 0.7897(2) 0.8787(4)
O5_3 O 0.5726(4) 0.7282(3) 0.6640(5)
O6_3 O 0.5945(4) 0.8173(2) 0.7421(5)
C1_3 C 0.5839(4) 0.7361(3) 0.7467(7)
C2_3 C 0.5969(6) 0.7866(4) 0.7907(7)
N3_3 N 0.5841(4) 0.6625(3) 0.9715(5)
C7_3 C 0.5439(5) 0.6239(4) 0.9351(6)
H6_3 H 0.5243 0.6271 0.8829
N4_3 N 0.5313(4) 0.5802(2) 0.9739(5)
N6_3 N 0.6403(6) 0.4881(4) 0.9201(7)
C8_3 C 0.6048(7) 0.4824(5) 0.9823(8)
N7_3 N 0.5666(4) 0.4865(3) 0.9709(6)
C9_3 C 0.5620(6) 0.4998(4) 0.8819(7)
C10_3 C 0.5938(6) 0.5042(4) 0.8064(7)
C11_3 C 0.6332(6) 0.4969(5) 0.8298(9)
N8_3 N 0.5775(4) 0.5162(3) 0.7270(5)
C12_3 C 0.5388(6) 0.5181(4) 0.7569(6)
H10_3 H 0.5178 0.5333 0.7236
N9_3 N 0.5278(4) 0.5084(3) 0.8493(5)
N10_3 N 0.6653(6) 0.4978(5) 0.7662(7)
H11_3 H 0.6889 0.4935 0.7839
H12_3 H 0.6630 0.5043 0.7082
Cu3_3 Cu 0.47772(6) 0.51485(4) 0.92565(7)
Cu4_3 Cu 0.60349(7) 0.53818(4) 0.59775(7)
O7_3 O 0.5820(4) 0.5985(2) 0.5802(5)
H13_3 H 0.5495 0.5884 0.5688
H14_3 H 0.6000 0.6258 0.546667
O8_3 O 0.6274(4) 0.5464(2) 0.4691(4)
C13_3 C 0.5972(5) 0.5145(3) 0.4134(7)
O9_3 O 0.6051(5) 0.5111(3) 0.3307(5)
C14_3 C 0.5467(7) 0.4770(4) 0.4574(7)
O10_3 O 0.5436(4) 0.4852(2) 0.5454(4)
N14_3 N 0.6708(5) 0.5883(3) 0.6382(5)
C15_3 C 0.6926(7) 0.6261(4) 0.7022(6)
C16_3 C 0.7436(6) 0.6432(4) 0.7034(6)
N15_3 N 0.7766(5) 0.6806(3) 0.7592(5)
Cu5_3 Cu 0.84818(7) 0.70380(4) 0.74102(7)
Cu6_3 Cu 0.81848(7) 0.62954(4) 0.59232(7)
N16_3 N 0.9135(5) 0.7156(3) 0.6928(5)
O11_3 O 0.8768(4) 0.7595(2) 0.8503(5)
H15_3 H 0.8619 0.7703 0.8854
H16_3 H 0.9059 0.7861 0.8565
N17_3 N 0.8468(5) 0.7468(3) 0.6376(6)
C17_3 C 0.8509(9) 0.7891(5) 0.6490(8)
N18_3 N 0.8452(7) 0.8189(4) 0.5868(7)
C18_3 C 0.8364(7) 0.8030(4) 0.4965(9)
C19_3 C 0.8291(7) 0.7563(4) 0.4731(7)
C20_3 C 0.8335(7) 0.7289(4) 0.5486(7)
N19_3 N 0.8249(5) 0.6861(3) 0.5160(5)
N20_3 N 0.7531(5) 0.6178(3) 0.6406(5)
C21_3 C 0.7094(6) 0.5867(3) 0.6018(6)
H17_3 H 0.7062 0.5639 0.5496
N21_3 N 0.8417(5) 0.6473(3) 0.8174(5)
C22_3 C 0.8152(7) 0.6874(4) 0.4236(6)
N22_3 N 0.8171(5) 0.7280(3) 0.3937(5)
N23_3 N 0.8355(7) 0.8342(4) 0.4329(7)
H18_3 H 0.8398 0.8621 0.4506
H19_3 H 0.8290 0.8254 0.3749
H20_3 H 0.856533 0.800667 0.7108
C23_3 C 0.7534(7) 0.6990(4) 0.8127(8)
N24_3 N 0.7077(5) 0.6870(3) 0.8141(6)
C24_3 C 0.6742(7) 0.6502(4) 0.7566(7)
N25_3 N 0.6279(5) 0.6401(3) 0.7553(7)
H21_3 H 0.6065 0.6181 0.7201
H22_3 H 0.6195 0.6571 0.7919
H23_3 H 0.7808 0.7328 0.8491
O12_3 O 0.5160(5) 0.4439(3) 0.4088(5)
Cu7_3 Cu 0.79516(7) 0.73198(6) 0.26441(7)
H24_3 H 0.8000 0.6512 0.3903
Cu1_4 Cu 0.18152(4) 0.37046(4) 0.40768(7)
O1_4 O 0.2102(2) 0.4261(2) 0.5169(5)
H1_4 H 0.1953 0.4369 0.5520
H2_4 H 0.2393 0.4527 0.5231
N1_4 N 0.0411(3) 0.3536(3) 0.4807(6)
C3_4 C 0.0868(4) 0.3656(4) 0.4793(8)
H5_4 H 0.1142 0.3994 0.5157
N2_4 N 0.1100(3) 0.3472(3) 0.4258(5)
C4_4 C 0.0770(3) 0.3098(4) 0.3700(6)
C5_4 C 0.0260(4) 0.2927(4) 0.3688(6)
C6_4 C 0.0076(4) 0.3168(4) 0.4232(7)
N3_4 N 0.0042(3) 0.2549(3) 0.3048(5)
C7_4 C 0.0428(4) 0.2533(3) 0.2684(6)
H6_4 H 0.0396 0.2305 0.2162
N4_4 N 0.0865(2) 0.2844(3) 0.3072(5)
N6_4 N 0.1786(4) 0.4855(4) 0.2534(7)
C8_4 C 0.1843(5) 0.4557(5) 0.3156(8)
H9_4 H 0.1899 0.467333 0.3774
N7_4 N 0.1802(3) 0.4134(3) 0.3042(6)
C9_4 C 0.1669(4) 0.3955(4) 0.2152(7)
C10_4 C 0.1625(4) 0.4229(4) 0.1397(7)
C11_4 C 0.1698(5) 0.4696(4) 0.1631(9)
C12_4 C 0.1486(4) 0.3540(4) 0.0902(6)
H10_4 H 0.1334 0.3178 0.0569
N9_4 N 0.1583(3) 0.3527(3) 0.1826(5)
N10_4 N 0.1689(5) 0.5008(4) 0.0995(7)
H11_4 H 0.1732 0.5287 0.1172
H12_4 H 0.1624 0.4920 0.0415
Cu3_4 Cu 0.15182(4) 0.29620(4) 0.25898(7)
N11_4 N 0.2469(2) 0.3822(3) 0.3594(5)
N12_4 N 0.1751(3) 0.3139(3) 0.4840(5)
O2_4 O 0.9154(2) 0.2651(2) 0.2468(5)
H3_4 H 0.8829 0.2550 0.2354
H4_4 H 0.9334 0.2924 0.213333
O3_4 O 0.9608(2) 0.2130(2) 0.1357(4)
O4_4 O 0.8770(2) 0.1518(2) 0.2120(4)
O6_4 O 0.8494(2) 0.1105(3) 0.0754(5)
C1_4 C 0.9306(3) 0.1811(3) 0.0800(7)
C2_4 C 0.8801(4) 0.1436(4) 0.1240(7)
N5_4 N 0.9613(3) 0.3067(3) 0.4219(7)
H7_4 H 0.9399 0.2847 0.3867
H8_4 H 0.9529 0.3237 0.4585
O5_4 O 0.9385(3) 0.1777(3) 0.9973(5)
Cu1_5 Cu 0.62954(4) 0.81105(6) 0.40768(7)
O1_5 O 0.5739(2) 0.7840(3) 0.5169(5)
H1_5 H 0.5631 0.7583 0.5520
H2_5 H 0.5473 0.7865 0.5231
O2_5 O 0.7349(2) 0.6502(3) 0.2468(5)
H3_5 H 0.7450 0.6278 0.2354
H4_5 H 0.7076 0.6409 0.213333
O3_5 O 0.7870(2) 0.7477(3) 0.1357(4)
O4_5 O 0.8482(2) 0.7251(3) 0.2120(4)
O6_5 O 0.8895(3) 0.7388(4) 0.0754(5)
C1_5 C 0.8189(3) 0.7494(4) 0.0800(7)
C2_5 C 0.8564(4) 0.7364(6) 0.1240(7)
N1_5 N 0.6464(3) 0.6874(4) 0.4807(6)
C3_5 C 0.6344(4) 0.7211(6) 0.4793(8)
H5_5 H 0.6006 0.7147 0.5157
N2_5 N 0.6528(3) 0.7627(4) 0.4258(5)
C4_5 C 0.6902(4) 0.7671(5) 0.3700(6)
C5_5 C 0.7073(4) 0.7332(6) 0.3688(6)
C6_5 C 0.6832(4) 0.6907(6) 0.4232(7)
N3_5 N 0.7451(3) 0.7492(4) 0.3048(5)
C7_5 C 0.7467(3) 0.7894(5) 0.2684(6)
H6_5 H 0.7695 0.8090 0.2162
N4_5 N 0.7156(3) 0.8020(4) 0.3072(5)
N5_5 N 0.6933(3) 0.6545(4) 0.4219(7)
H7_5 H 0.7153 0.6551 0.3867
H8_5 H 0.6763 0.6291 0.4585
N6_5 N 0.5145(4) 0.6930(6) 0.2534(7)
C8_5 C 0.5443(5) 0.7285(7) 0.3156(8)
H9_5 H 0.532667 0.7225 0.3774
N7_5 N 0.5866(3) 0.7667(4) 0.3042(6)
C9_5 C 0.6045(4) 0.7713(6) 0.2152(7)
C10_5 C 0.5771(4) 0.7395(6) 0.1397(7)
C11_5 C 0.5304(4) 0.7001(6) 0.1631(9)
C12_5 C 0.6460(4) 0.7945(6) 0.0902(6)
H10_5 H 0.6822 0.8155 0.0569
N9_5 N 0.6473(3) 0.8055(4) 0.1826(5)
N10_5 N 0.4992(4) 0.6680(6) 0.0995(7)
H11_5 H 0.4713 0.6444 0.1172
H12_5 H 0.5080 0.6703 0.0415
Cu3_5 Cu 0.70380(4) 0.85561(6) 0.25898(7)
N11_5 N 0.6178(3) 0.8646(4) 0.3594(5)
N12_5 N 0.6861(3) 0.8611(4) 0.4840(5)
O5_5 O 0.8223(3) 0.7607(4) 0.9973(5)
O2_6 O 0.3498(3) 0.0846(2) 0.2468(5)
H3_6 H 0.3722 0.1171 0.2354
H4_6 H 0.3591 0.0666 0.213333
O3_6 O 0.2523(3) 0.0392(2) 0.1357(4)
O4_6 O 0.2749(3) 0.1230(2) 0.2120(4)
O6_6 O 0.2612(4) 0.1506(2) 0.0754(5)
C1_6 C 0.2506(4) 0.0694(3) 0.0800(7)
C2_6 C 0.2636(6) 0.1199(4) 0.1240(7)
N5_6 N 0.3455(4) 0.0387(3) 0.4219(7)
H7_6 H 0.3449 0.0601 0.3867
H8_6 H 0.3709 0.0471 0.4585
O5_6 O 0.2393(4) 0.0615(3) 0.9973(5)
Cu1_6 Cu 0.18895(6) 0.81848(4) 0.40768(7)
O1_6 O 0.2160(3) 0.7898(2) 0.5169(5)
H1_6 H 0.2417 0.8047 0.5520
H2_6 H 0.2135 0.7607 0.5231
N1_6 N 0.3126(4) 0.9589(3) 0.4807(6)
C3_6 C 0.2789(6) 0.9132(4) 0.4793(8)
H5_6 H 0.2853 0.8858 0.5157
N2_6 N 0.2373(4) 0.8900(3) 0.4258(5)
C4_6 C 0.2329(5) 0.9230(3) 0.3700(6)
C5_6 C 0.2668(6) 0.9740(4) 0.3688(6)
C6_6 C 0.3093(6) 0.9924(4) 0.4232(7)
N3_6 N 0.2508(4) 0.9958(3) 0.3048(5)
C7_6 C 0.2106(5) 0.9572(4) 0.2684(6)
H6_6 H 0.1910 0.9604 0.2162
N4_6 N 0.1980(4) 0.9135(2) 0.3072(5)
N6_6 N 0.3070(6) 0.8214(4) 0.2534(7)
C8_6 C 0.2715(7) 0.8157(5) 0.3156(8)
H9_6 H 0.2775 0.8101 0.3774
N7_6 N 0.2333(4) 0.8198(3) 0.3042(6)
C9_6 C 0.2287(6) 0.8331(4) 0.2152(7)
C10_6 C 0.2605(6) 0.8375(4) 0.1397(7)
C11_6 C 0.2999(6) 0.8302(5) 0.1631(9)
C12_6 C 0.2055(6) 0.8514(4) 0.0902(6)
H10_6 H 0.1845 0.8666 0.0569
N9_6 N 0.1945(4) 0.8417(3) 0.1826(5)
N10_6 N 0.3320(6) 0.8311(5) 0.0995(7)
H11_6 H 0.3556 0.8268 0.1172
H12_6 H 0.3297 0.8376 0.0415
Cu3_6 Cu 0.14439(6) 0.84818(4) 0.25898(7)
N11_6 N 0.1354(4) 0.7531(2) 0.3594(5)
N12_6 N 0.1389(4) 0.8249(3) 0.4840(5)
Cu2_4 Cu 0.72984(4) 0.12849(4) 0.06892(7)
O2_7 O 0.7513(2) 0.0682(2) 0.0865(5)
H3_7 H 0.7838 0.0783 0.0979
H4_7 H 0.7333 0.0409 0.12
O3_7 O 0.7059(2) 0.1203(2) 0.1976(4)
O4_7 O 0.7897(2) 0.1815(2) 0.1213(4)
O5_7 O 0.7282(3) 0.1556(3) 0.3360(5)
O6_7 O 0.8173(2) 0.2228(3) 0.2579(5)
C1_7 C 0.7361(3) 0.1522(3) 0.2533(7)
C2_7 C 0.7866(4) 0.1897(4) 0.2093(7)
N3_7 N 0.6625(3) 0.0784(3) 0.0285(5)
C7_7 C 0.6239(4) 0.0800(3) 0.0649(6)
H6_7 H 0.6271 0.1028 0.1171
H10_7 H 0.5333 0.0155 0.2764
O7_4 O 0.5985(2) 0.0164(3) 0.4198(5)
H13_4 H 0.5884 0.0388 0.4312
H14_4 H 0.6258 0.0257 0.453333
H18_4 H 0.8621 0.0222 0.5494
N25_4 N 0.6401(3) 0.0121(4) 0.2447(7)
H21_4 H 0.6181 0.0115 0.2799
H22_4 H 0.6571 0.0375 0.2081
C4_7 C 0.5897(3) 0.0235(4) 0.9633(6)
C5_7 C 0.6407(4) 0.0406(4) 0.9645(6)
C6_7 C 0.6591(4) 0.0165(4) 0.9101(7)
N5_7 N 0.7054(3) 0.0266(3) 0.9114(7)
H7_7 H 0.7268 0.0486 0.9466
H8_7 H 0.7138 0.0096 0.8748
N13_4 N 0.7558(4) 0.1505(3) 0.9397(5)
N6_7 N 0.4881(4) 0.8478(4) 0.0799(7)
C8_7 C 0.4824(5) 0.8776(5) 0.0177(8)
N7_7 N 0.4865(3) 0.9199(3) 0.0291(6)
C9_7 C 0.4998(4) 0.9378(4) 0.1181(7)
C10_7 C 0.5042(4) 0.9104(4) 0.1936(7)
C11_7 C 0.4969(5) 0.8637(4) 0.1702(9)
N8_4 N 0.5162(3) 0.9387(3) 0.2730(5)
C12_7 C 0.5181(4) 0.9793(4) 0.2431(6)
N10_7 N 0.4978(5) 0.8325(4) 0.2338(7)
H11_7 H 0.4935 0.8046 0.2161
H12_7 H 0.5043 0.8413 0.2918
Cu4_4 Cu 0.53818(4) 0.93468(6) 0.40225(7)
O8_4 O 0.5464(2) 0.9189(3) 0.5309(4)
C13_4 C 0.5145(3) 0.9172(4) 0.5866(7)
O9_4 O 0.5111(3) 0.9059(4) 0.6693(5)
C14_4 C 0.4770(4) 0.9302(6) 0.5426(7)
O10_4 O 0.4852(2) 0.9415(3) 0.4546(4)
N14_4 N 0.5883(3) 0.9174(4) 0.3618(5)
C15_4 C 0.6261(4) 0.9334(6) 0.2978(6)
C16_4 C 0.6432(4) 0.8995(5) 0.2966(6)
N15_4 N 0.6806(3) 0.9039(4) 0.2408(5)
O11_4 O 0.7595(2) 0.8826(3) 0.1497(5)
H15_4 H 0.7703 0.9083 0.1146
H16_4 H 0.7861 0.8801 0.1435
N17_4 N 0.7468(3) 0.8999(4) 0.3624(6)
C17_4 C 0.7891(5) 0.9381(7) 0.3510(8)
N18_4 N 0.8189(4) 0.9736(6) 0.4132(7)
C18_4 C 0.8030(4) 0.9665(6) 0.5035(9)
C19_4 C 0.7563(4) 0.9271(6) 0.5269(7)
C20_4 C 0.7289(4) 0.8953(6) 0.4514(7)
C21_4 C 0.5867(3) 0.8772(5) 0.3982(6)
H17_4 H 0.5639 0.8576 0.4504
C22_4 C 0.6874(4) 0.8721(6) 0.5764(6)
N22_4 N 0.7280(3) 0.9108(4) 0.6063(5)
N23_4 N 0.8342(4) 0.9986(6) 0.5671(7)
H19_4 H 0.8254 0.9963 0.6251
H20_4 H 0.800667 0.9441 0.2892
C23_4 C 0.6990(4) 0.9455(6) 0.1873(8)
N24_4 N 0.6870(3) 0.9792(4) 0.1859(6)
C24_4 C 0.6502(4) 0.9759(6) 0.2434(7)
H23_4 H 0.7328 0.9519 0.1509
O12_4 O 0.4439(3) 0.9278(4) 0.5912(5)
Cu7_4 Cu 0.73198(6) 0.93683(4) 0.73559(7)
H24_4 H 0.6512 0.8511 0.6097
O1_7 O 0.4565(2) 0.9072(2) 0.8164(5)
H1_7 H 0.4714 0.8964 0.7813
H2_7 H 0.4274 0.8806 0.8102
N1_7 N 0.6256(3) 0.9797(3) 0.8526(6)
C3_7 C 0.5799(4) 0.9677(4) 0.8540(8)
H5_7 H 0.5525 0.9339 0.8176
N2_7 N 0.5567(3) 0.9861(3) 0.9075(5)
H9_7 H 0.4768 0.866 0.9559
N6_8 N 0.1522(4) 0.6403(6) 0.0799(7)
C8_8 C 0.1224(5) 0.6048(7) 0.0177(8)
N7_8 N 0.0801(3) 0.5666(4) 0.0291(6)
C9_8 C 0.0622(4) 0.5620(6) 0.1181(7)
C10_8 C 0.0896(4) 0.5938(6) 0.1936(7)
C11_8 C 0.1363(4) 0.6332(6) 0.1702(9)
N8_5 N 0.0613(3) 0.5775(4) 0.2730(5)
C12_8 C 0.0207(4) 0.5388(6) 0.2431(6)
N10_8 N 0.1675(4) 0.6653(6) 0.2338(7)
H11_8 H 0.1954 0.6889 0.2161
H12_8 H 0.1587 0.6630 0.2918
Cu4_5 Cu 0.06532(6) 0.60349(7) 0.40225(7)
O8_5 O 0.0811(3) 0.6274(4) 0.5309(4)
C13_5 C 0.0828(4) 0.5972(5) 0.5866(7)
O9_5 O 0.0941(4) 0.6051(5) 0.6693(5)
C14_5 C 0.0698(6) 0.5467(7) 0.5426(7)
O10_5 O 0.0585(3) 0.5436(4) 0.4546(4)
N14_5 N 0.0826(4) 0.6708(5) 0.3618(5)
C15_5 C 0.0666(6) 0.6926(7) 0.2978(6)
C16_5 C 0.1005(5) 0.7436(6) 0.2966(6)
N15_5 N 0.0961(4) 0.7766(5) 0.2408(5)
O11_5 O 0.1174(3) 0.8768(4) 0.1497(5)
H15_5 H 0.0917 0.8619 0.1146
H16_5 H 0.1199 0.9059 0.1435
N17_5 N 0.1001(4) 0.8468(5) 0.3624(6)
C17_5 C 0.0619(7) 0.8509(9) 0.3510(8)
N18_5 N 0.0264(6) 0.8452(7) 0.4132(7)
C18_5 C 0.0335(6) 0.8364(7) 0.5035(9)
C19_5 C 0.0729(6) 0.8291(7) 0.5269(7)
C20_5 C 0.1047(6) 0.8335(7) 0.4514(7)
C21_5 C 0.1228(5) 0.7094(6) 0.3982(6)
H17_5 H 0.1424 0.7062 0.4504
C22_5 C 0.1279(6) 0.8152(7) 0.5764(6)
N22_5 N 0.0892(4) 0.8171(5) 0.6063(5)
N23_5 N 0.0014(6) 0.8355(7) 0.5671(7)
H19_5 H 0.0037 0.8290 0.6251
H20_5 H 0.0559 0.856533 0.2892
C23_5 C 0.0545(6) 0.7534(7) 0.1873(8)
N24_5 N 0.0208(4) 0.7077(5) 0.1859(6)
C24_5 C 0.0241(6) 0.6742(7) 0.2434(7)
H23_5 H 0.0481 0.7808 0.1509
O12_5 O 0.0722(4) 0.5160(5) 0.5912(5)
Cu7_5 Cu 0.06317(4) 0.79516(7) 0.73559(7)
H24_5 H 0.1489 0.8000 0.6097
O1_8 O 0.0928(2) 0.5493(3) 0.8164(5)
H1_8 H 0.1036 0.5750 0.7813
H2_8 H 0.1194 0.5468 0.8102
N1_8 N 0.0203(3) 0.6459(4) 0.8526(6)
C3_8 C 0.0323(4) 0.6122(6) 0.8540(8)
H5_8 H 0.0661 0.6186 0.8176
N2_8 N 0.0139(3) 0.5706(4) 0.9075(5)
H9_8 H 0.134 0.6108 0.9559
Cu2_5 Cu 0.87151(4) 0.60135(6) 0.06892(7)
O2_8 O 0.9318(2) 0.6831(3) 0.0865(5)
H3_8 H 0.9217 0.7055 0.0979
H4_8 H 0.9591 0.6924 0.12
O3_8 O 0.8797(2) 0.5856(3) 0.1976(4)
O4_8 O 0.8185(2) 0.6082(3) 0.1213(4)
O5_8 O 0.8444(3) 0.5726(4) 0.3360(5)
O6_8 O 0.7772(3) 0.5945(4) 0.2579(5)
C1_8 C 0.8478(3) 0.5839(4) 0.2533(7)
C2_8 C 0.8103(4) 0.5969(6) 0.2093(7)
N3_8 N 0.9216(3) 0.5841(4) 0.0285(5)
C7_8 C 0.9200(3) 0.5439(5) 0.0649(6)
H6_8 H 0.8972 0.5243 0.1171
H10_8 H 0.9845 0.5178 0.2764
O7_5 O 0.9836(3) 0.5820(4) 0.4198(5)
H13_5 H 0.9612 0.5495 0.4312
H14_5 H 0.9743 0.6000 0.453333
H18_5 H 0.9778 0.8398 0.5494
N25_5 N 0.9879(4) 0.6279(5) 0.2447(7)
H21_5 H 0.9885 0.6065 0.2799
H22_5 H 0.9625 0.6195 0.2081
C4_8 C 0.9765(4) 0.5662(5) 0.9633(6)
C5_8 C 0.9594(4) 0.6001(6) 0.9645(6)
C6_8 C 0.9835(4) 0.6426(6) 0.9101(7)
N5_8 N 0.9734(3) 0.6788(4) 0.9114(7)
H7_8 H 0.9514 0.6782 0.9466
H8_8 H 0.9904 0.7042 0.8748
N13_5 N 0.8495(3) 0.6054(5) 0.9397(5)
Cu2_6 Cu 0.39865(6) 0.27016(4) 0.06892(7)
O2_9 O 0.3169(3) 0.2487(2) 0.0865(5)
H3_9 H 0.2945 0.2162 0.0979
H4_9 H 0.3076 0.2667 0.12
O3_9 O 0.4144(3) 0.2941(2) 0.1976(4)
O4_9 O 0.3918(3) 0.2103(2) 0.1213(4)
O5_9 O 0.4274(4) 0.2718(3) 0.3360(5)
O6_9 O 0.4055(4) 0.1827(2) 0.2579(5)
C1_9 C 0.4161(4) 0.2639(3) 0.2533(7)
C2_9 C 0.4031(6) 0.2134(4) 0.2093(7)
N3_9 N 0.4159(4) 0.3375(3) 0.0285(5)
C7_9 C 0.4561(5) 0.3761(4) 0.0649(6)
H6_9 H 0.4757 0.3729 0.1171
N6_9 N 0.3597(6) 0.5119(4) 0.0799(7)
C8_9 C 0.3952(7) 0.5176(5) 0.0177(8)
N7_9 N 0.4334(4) 0.5135(3) 0.0291(6)
C9_9 C 0.4380(6) 0.5002(4) 0.1181(7)
C10_9 C 0.4062(6) 0.4958(4) 0.1936(7)
C11_9 C 0.3668(6) 0.5031(5) 0.1702(9)
N8_6 N 0.4225(4) 0.4838(3) 0.2730(5)
C12_9 C 0.4612(6) 0.4819(4) 0.2431(6)
H10_9 H 0.4822 0.4667 0.2764
N10_9 N 0.3347(6) 0.5022(5) 0.2338(7)
H11_9 H 0.3111 0.5065 0.2161
H12_9 H 0.3370 0.4957 0.2918
Cu4_6 Cu 0.39651(7) 0.46182(4) 0.40225(7)
O7_6 O 0.4180(4) 0.4015(2) 0.4198(5)
H13_6 H 0.4505 0.4116 0.4312
H14_6 H 0.4000 0.3742 0.453333
O8_6 O 0.3726(4) 0.4536(2) 0.5309(4)
C13_6 C 0.4028(5) 0.4855(3) 0.5866(7)
O9_6 O 0.3949(5) 0.4889(3) 0.6693(5)
C14_6 C 0.4533(7) 0.5230(4) 0.5426(7)
O10_6 O 0.4564(4) 0.5148(2) 0.4546(4)
N14_6 N 0.3292(5) 0.4117(3) 0.3618(5)
C15_6 C 0.3074(7) 0.3739(4) 0.2978(6)
C16_6 C 0.2564(6) 0.3568(4) 0.2966(6)
N15_6 N 0.2234(5) 0.3194(3) 0.2408(5)
O11_6 O 0.1232(4) 0.2405(2) 0.1497(5)
H15_6 H 0.1381 0.2297 0.1146
H16_6 H 0.0941 0.2139 0.1435
N17_6 N 0.1532(5) 0.2532(3) 0.3624(6)
C17_6 C 0.1491(9) 0.2109(5) 0.3510(8)
N18_6 N 0.1548(7) 0.1811(4) 0.4132(7)
C18_6 C 0.1636(7) 0.1970(4) 0.5035(9)
C19_6 C 0.1709(7) 0.2437(4) 0.5269(7)
C20_6 C 0.1665(7) 0.2711(4) 0.4514(7)
C21_6 C 0.2906(6) 0.4133(3) 0.3982(6)
H17_6 H 0.2938 0.4361 0.4504
C22_6 C 0.1848(7) 0.3126(4) 0.5764(6)
N22_6 N 0.1829(5) 0.2720(3) 0.6063(5)
N23_6 N 0.1645(7) 0.1658(4) 0.5671(7)
H18_6 H 0.1602 0.1379 0.5494
H19_6 H 0.1710 0.1746 0.6251
H20_6 H 0.143467 0.199333 0.2892
C23_6 C 0.2466(7) 0.3010(4) 0.1873(8)
N24_6 N 0.2923(5) 0.3130(3) 0.1859(6)
C24_6 C 0.3258(7) 0.3498(4) 0.2434(7)
N25_6 N 0.3721(5) 0.3599(3) 0.2447(7)
H21_6 H 0.3935 0.3819 0.2799
H22_6 H 0.3805 0.3429 0.2081
H23_6 H 0.2192 0.2672 0.1509
O12_6 O 0.4840(5) 0.5561(3) 0.5912(5)
Cu7_6 Cu 0.20484(7) 0.26802(6) 0.73559(7)
H24_6 H 0.2000 0.3488 0.6097
O1_9 O 0.4507(3) 0.5435(2) 0.8164(5)
H1_9 H 0.4250 0.5286 0.7813
H2_9 H 0.4532 0.5726 0.8102
N1_9 N 0.3541(4) 0.3744(3) 0.8526(6)
C3_9 C 0.3878(6) 0.4201(4) 0.8540(8)
H5_9 H 0.3814 0.4475 0.8176
N2_9 N 0.4294(4) 0.4433(3) 0.9075(5)
C4_9 C 0.4338(5) 0.4103(3) 0.9633(6)
C5_9 C 0.3999(6) 0.3593(4) 0.9645(6)
C6_9 C 0.3574(6) 0.3409(4) 0.9101(7)
N5_9 N 0.3212(4) 0.2946(3) 0.9114(7)
H7_9 H 0.3218 0.2732 0.9466
H8_9 H 0.2958 0.2862 0.8748
H9_9 H 0.3892 0.5232 0.9559
N13_6 N 0.3946(5) 0.2442(4) 0.9397(5)
O5_10 O 0.0615(3) 0.8223(3) 0.0027(5)
O2_10 O 0.0846(2) 0.7349(2) 0.7532(5)
H3_10 H 0.1171 0.7450 0.7646
H4_10 H 0.0666 0.7076 0.786667
O3_10 O 0.0392(2) 0.7870(2) 0.8643(4)
O4_10 O 0.1230(2) 0.8482(2) 0.7880(4)
O6_10 O 0.1506(2) 0.8895(3) 0.9246(5)
C1_10 C 0.0694(3) 0.8189(3) 0.9200(7)
C2_10 C 0.1199(4) 0.8564(4) 0.8760(7)
N5_10 N 0.0387(3) 0.6933(3) 0.5781(7)
H7_10 H 0.0601 0.7153 0.6133
H8_10 H 0.0471 0.6763 0.5415
O1_10 O 0.7898(2) 0.5739(2) 0.4831(5)
H1_10 H 0.8047 0.5631 0.4480
H2_10 H 0.7607 0.5473 0.4769
N1_10 N 0.9589(3) 0.6464(3) 0.5193(6)
C3_10 C 0.9132(4) 0.6344(4) 0.5207(8)
H5_10 H 0.8858 0.6006 0.4843
N2_10 N 0.8900(3) 0.6528(3) 0.5742(5)
C4_10 C 0.9230(3) 0.6902(4) 0.6300(6)
C5_10 C 0.9740(4) 0.7073(4) 0.6312(6)
C6_10 C 0.9924(4) 0.6832(4) 0.5768(7)
N3_10 N 0.9958(3) 0.7451(3) 0.6952(5)
C7_10 C 0.9572(4) 0.7467(3) 0.7316(6)
H6_10 H 0.9604 0.7695 0.7838
N6_10 N 0.8214(4) 0.5145(4) 0.7466(7)
C8_10 C 0.8157(5) 0.5443(5) 0.6844(8)
H9_10 H 0.8101 0.532667 0.6226
N7_10 N 0.8198(3) 0.5866(3) 0.6958(6)
C9_10 C 0.8331(4) 0.6045(4) 0.7848(7)
C10_10 C 0.8375(4) 0.5771(4) 0.8603(7)
C11_10 C 0.8302(5) 0.5304(4) 0.8369(9)
C12_10 C 0.8514(4) 0.6460(4) 0.9098(6)
H10_10 H 0.8666 0.6822 0.9431
N10_10 N 0.8311(5) 0.4992(4) 0.9005(7)
H11_10 H 0.8268 0.4713 0.8828
H12_10 H 0.8376 0.5080 0.9585
O5_11 O 0.1777(3) 0.2393(4) 0.0027(5)
O1_11 O 0.4261(2) 0.2160(3) 0.4831(5)
H1_11 H 0.4369 0.2417 0.4480
H2_11 H 0.4527 0.2135 0.4769
O2_11 O 0.2651(2) 0.3498(3) 0.7532(5)
H3_11 H 0.2550 0.3722 0.7646
H4_11 H 0.2924 0.3591 0.786667
O3_11 O 0.2130(2) 0.2523(3) 0.8643(4)
O4_11 O 0.1518(2) 0.2749(3) 0.7880(4)
O6_11 O 0.1105(3) 0.2612(4) 0.9246(5)
C1_11 C 0.1811(3) 0.2506(4) 0.9200(7)
C2_11 C 0.1436(4) 0.2636(6) 0.8760(7)
N1_11 N 0.3536(3) 0.3126(4) 0.5193(6)
C3_11 C 0.3656(4) 0.2789(6) 0.5207(8)
H5_11 H 0.3994 0.2853 0.4843
N2_11 N 0.3472(3) 0.2373(4) 0.5742(5)
C4_11 C 0.3098(4) 0.2329(5) 0.6300(6)
C5_11 C 0.2927(4) 0.2668(6) 0.6312(6)
C6_11 C 0.3168(4) 0.3093(6) 0.5768(7)
N3_11 N 0.2549(3) 0.2508(4) 0.6952(5)
C7_11 C 0.2533(3) 0.2106(5) 0.7316(6)
H6_11 H 0.2305 0.1910 0.7838
N5_11 N 0.3067(3) 0.3455(4) 0.5781(7)
H7_11 H 0.2847 0.3449 0.6133
H8_11 H 0.3237 0.3709 0.5415
N6_11 N 0.4855(4) 0.3070(6) 0.7466(7)
C8_11 C 0.4557(5) 0.2715(7) 0.6844(8)
H9_11 H 0.467333 0.2775 0.6226
N7_11 N 0.4134(3) 0.2333(4) 0.6958(6)
C9_11 C 0.3955(4) 0.2287(6) 0.7848(7)
C10_11 C 0.4229(4) 0.2605(6) 0.8603(7)
C11_11 C 0.4696(4) 0.2999(6) 0.8369(9)
C12_11 C 0.3540(4) 0.2055(6) 0.9098(6)
H10_11 H 0.3178 0.1845 0.9431
N10_11 N 0.5008(4) 0.3320(6) 0.9005(7)
H11_11 H 0.5287 0.3556 0.8828
H12_11 H 0.4920 0.3297 0.9585
O1_12 O 0.7840(3) 0.2102(2) 0.4831(5)
H1_12 H 0.7583 0.1953 0.4480
H2_12 H 0.7865 0.2393 0.4769
N1_12 N 0.6874(4) 0.0411(3) 0.5193(6)
C3_12 C 0.7211(6) 0.0868(4) 0.5207(8)
H5_12 H 0.7147 0.1142 0.4843
N2_12 N 0.7627(4) 0.1100(3) 0.5742(5)
C4_12 C 0.7671(5) 0.0770(3) 0.6300(6)
C5_12 C 0.7332(6) 0.0260(4) 0.6312(6)
C6_12 C 0.6907(6) 0.0076(4) 0.5768(7)
N3_12 N 0.7492(4) 0.0042(3) 0.6952(5)
C7_12 C 0.7894(5) 0.0428(4) 0.7316(6)
H6_12 H 0.8090 0.0396 0.7838
N6_12 N 0.6930(6) 0.1786(4) 0.7466(7)
C8_12 C 0.7285(7) 0.1843(5) 0.6844(8)
H9_12 H 0.7225 0.1899 0.6226
N7_12 N 0.7667(4) 0.1802(3) 0.6958(6)
C9_12 C 0.7713(6) 0.1669(4) 0.7848(7)
C10_12 C 0.7395(6) 0.1625(4) 0.8603(7)
C11_12 C 0.7001(6) 0.1698(5) 0.8369(9)
C12_12 C 0.7945(6) 0.1486(4) 0.9098(6)
H10_12 H 0.8155 0.1334 0.9431
N10_12 N 0.6680(6) 0.1689(5) 0.9005(7)
H11_12 H 0.6444 0.1732 0.8828
H12_12 H 0.6703 0.1624 0.9585
O5_12 O 0.7607(4) 0.9385(3) 0.0027(5)
O2_12 O 0.6502(3) 0.9154(2) 0.7532(5)
H3_12 H 0.6278 0.8829 0.7646
H4_12 H 0.6409 0.9334 0.786667
O3_12 O 0.7477(3) 0.9608(2) 0.8643(4)
O4_12 O 0.7251(3) 0.8770(2) 0.7880(4)
O6_12 O 0.7388(4) 0.8494(2) 0.9246(5)
C1_12 C 0.7494(4) 0.9306(3) 0.9200(7)
C2_12 C 0.7364(6) 0.8801(4) 0.8760(7)
N5_12 N 0.6545(4) 0.9613(3) 0.5781(7)
H7_12 H 0.6551 0.9399 0.6133
H8_12 H 0.6291 0.9529 0.5415
loop_
_geom_bond_atom_site_label_1
_geom_bond_atom_site_label_2
_geom_bond_site_symmetry_1
_geom_bond_site_symmetry_2
Cu1 O1 1_555 1_555
O1 H1 1_555 1_555
H2 O1 1_555 1_555
N1 C3 1_555 1_555
C3 H5 1_555 1_555
N2 Cu1 1_555 1_555
N11 Cu1 1_555 1_555
C3 N2 1_555 1_555
N6 C8 1_555 1_555
C9 N7 1_555 1_555
C10 C9 1_555 1_555
C11 N6 1_555 1_555
N8 C10 1_555 1_555
C12 N8 1_555 1_555
N9 C9 1_555 1_555
N10 C11 1_555 1_555
H11 N10 1_555 1_555
H12 N10 1_555 1_555
Cu4 N8 1_555 1_555
O8 Cu4 1_555 1_555
C13 O8 1_555 1_555
O9 C13 1_555 1_555
C14 C13 1_555 1_555
O10 Cu4 1_555 1_555
N14 Cu4 1_555 1_555
C15 N14 1_555 1_555
C16 C15 1_555 1_555
N15 C16 1_555 1_555
Cu5 N15 1_555 1_555
Cu6 Cu5 1_555 1_555
N16 Cu5 1_555 1_555
O11 Cu5 1_555 1_555
H15 O11 1_555 1_555
H16 O11 1_555 1_555
N17 Cu5 1_555 1_555
C17 N17 1_555 1_555
N18 C17 1_555 1_555
C18 N18 1_555 1_555
C19 C18 1_555 1_555
C20 N17 1_555 1_555
N19 Cu6 1_555 1_555
N20 C16 1_555 1_555
C21 N14 1_555 1_555
H17 C21 1_555 1_555
N21 Cu5 1_555 1_555
C22 N19 1_555 1_555
N22 C19 1_555 1_555
N23 C18 1_555 1_555
H19 N23 1_555 1_555
H20 C17 1_555 1_555
C23 N15 1_555 1_555
N24 C23 1_555 1_555
C24 C15 1_555 1_555
H23 C23 1_555 1_555
O12 C14 1_555 1_555
Cu7 N22 1_555 1_555
H24 C22 1_555 1_555
C8 N7 1_555 1_555
C10 C11 1_555 1_555
C12 N9 1_555 1_555
C14 O10 1_555 1_555
Cu6 N20 1_555 1_555
C19 C20 1_555 1_555
C20 N19 1_555 1_555
N20 C21 1_555 1_555
C22 N22 1_555 1_555
N24 C24 1_555 1_555
C5 C4 1_555 1_555
N5 C6 1_555 1_555
H7 N5 1_555 1_555
H8 N5 1_555 1_555
C5 C6 1_555 1_555
Cu2 O2 1_555 1_555
O2 H3 1_555 1_555
H4 O2 1_555 1_555
O3 Cu2 1_555 1_555
O4 Cu2 1_555 1_555
O5 C1 1_555 1_555
O6 C2 1_555 1_555
C1 O3 1_555 1_555
C2 O4 1_555 1_555
N3 Cu2 1_555 1_555
C7 N3 1_555 1_555
H6 C7 1_555 1_555
H13 O7 1_555 1_555
H14 O7 1_555 1_555
H21 N25 1_555 1_555
H22 N25 1_555 1_555
C1 C2 1_555 1_555
C7 N4 1_555 1_555
N4 Cu3 1_555 1_555
C5_2 C4_2 1_555 1_555
N5_2 C6_2 1_555 1_555
H7_2 N5_2 1_555 1_555
H8_2 N5_2 1_555 1_555
C5_2 C6_2 1_555 1_555
Cu2_2 O2_2 1_555 1_555
O2_2 H3_2 1_555 1_555
H4_2 O2_2 1_555 1_555
O3_2 Cu2_2 1_555 1_555
O4_2 Cu2_2 1_555 1_555
O5_2 C1_2 1_555 1_555
O6_2 C2_2 1_555 1_555
C1_2 O3_2 1_555 1_555
C2_2 O4_2 1_555 1_555
N3_2 Cu2_2 1_555 1_555
C7_2 N3_2 1_555 1_555
H6_2 C7_2 1_555 1_555
H13_2 O7_2 1_555 1_555
H14_2 O7_2 1_555 1_555
H21_2 N25_2 1_555 1_555
H22_2 N25_2 1_555 1_555
C1_2 C2_2 1_555 1_555
C7_2 N4_2 1_555 1_555
N4_2 Cu3_2 1_555 1_555
Cu1_2 O1_2 1_555 1_555
O1_2 H1_2 1_555 1_555
H2_2 O1_2 1_555 1_555
N1_2 C3_2 1_555 1_555
C3_2 H5_2 1_555 1_555
N2_2 Cu1_2 1_555 1_555
N11_2 Cu1_2 1_555 1_555
C3_2 N2_2 1_555 1_555
N6_2 C8_2 1_555 1_555
C9_2 N7_2 1_555 1_555
C10_2 C9_2 1_555 1_555
C11_2 N6_2 1_555 1_555
N8_2 C10_2 1_555 1_555
C12_2 N8_2 1_555 1_555
N9_2 C9_2 1_555 1_555
N10_2 C11_2 1_555 1_555
H11_2 N10_2 1_555 1_555
H12_2 N10_2 1_555 1_555
Cu4_2 N8_2 1_555 1_555
O8_2 Cu4_2 1_555 1_555
C13_2 O8_2 1_555 1_555
O9_2 C13_2 1_555 1_555
C14_2 C13_2 1_555 1_555
O10_2 Cu4_2 1_555 1_555
N14_2 Cu4_2 1_555 1_555
C15_2 N14_2 1_555 1_555
C16_2 C15_2 1_555 1_555
N15_2 C16_2 1_555 1_555
Cu5_2 N15_2 1_555 1_555
Cu6_2 Cu5_2 1_555 1_555
N16_2 Cu5_2 1_555 1_555
O11_2 Cu5_2 1_555 1_555
H15_2 O11_2 1_555 1_555
H16_2 O11_2 1_555 1_555
N17_2 Cu5_2 1_555 1_555
C17_2 N17_2 1_555 1_555
N18_2 C17_2 1_555 1_555
C18_2 N18_2 1_555 1_555
C19_2 C18_2 1_555 1_555
C20_2 N17_2 1_555 1_555
N19_2 Cu6_2 1_555 1_555
N20_2 C16_2 1_555 1_555
C21_2 N14_2 1_555 1_555
H17_2 C21_2 1_555 1_555
N21_2 Cu5_2 1_555 1_555
C22_2 N19_2 1_555 1_555
N22_2 C19_2 1_555 1_555
N23_2 C18_2 1_555 1_555
H19_2 N23_2 1_555 1_555
H20_2 C17_2 1_555 1_555
C23_2 N15_2 1_555 1_555
N24_2 C23_2 1_555 1_555
C24_2 C15_2 1_555 1_555
H23_2 C23_2 1_555 1_555
O12_2 C14_2 1_555 1_555
Cu7_2 N22_2 1_555 1_555
H24_2 C22_2 1_555 1_555
C8_2 N7_2 1_555 1_555
C10_2 C11_2 1_555 1_555
C12_2 N9_2 1_555 1_555
C14_2 O10_2 1_555 1_555
Cu6_2 N20_2 1_555 1_555
C19_2 C20_2 1_555 1_555
C20_2 N19_2 1_555 1_555
N20_2 C21_2 1_555 1_555
C22_2 N22_2 1_555 1_555
N24_2 C24_2 1_555 1_555
Cu1_3 O1_3 1_555 1_555
O1_3 H1_3 1_555 1_555
H2_3 O1_3 1_555 1_555
N1_3 C3_3 1_555 1_555
C3_3 H5_3 1_555 1_555
N2_3 Cu1_3 1_555 1_555
C4_3 N2_3 1_555 1_555
C5_3 C4_3 1_555 1_555
C6_3 N1_3 1_555 1_555
N5_3 C6_3 1_555 1_555
H7_3 N5_3 1_555 1_555
H8_3 N5_3 1_555 1_555
N11_3 Cu1_3 1_555 1_555
N12_3 Cu1_3 1_555 1_555
C3_3 N2_3 1_555 1_555
C5_3 C6_3 1_555 1_555
Cu2_3 O2_3 1_555 1_555
O2_3 H3_3 1_555 1_555
H4_3 O2_3 1_555 1_555
O3_3 Cu2_3 1_555 1_555
O4_3 Cu2_3 1_555 1_555
O5_3 C1_3 1_555 1_555
O6_3 C2_3 1_555 1_555
C1_3 O3_3 1_555 1_555
C2_3 O4_3 1_555 1_555
N3_3 Cu2_3 1_555 1_555
C7_3 N3_3 1_555 1_555
H6_3 C7_3 1_555 1_555
N6_3 C8_3 1_555 1_555
C9_3 N7_3 1_555 1_555
C10_3 C9_3 1_555 1_555
C11_3 N6_3 1_555 1_555
N8_3 C10_3 1_555 1_555
C12_3 N8_3 1_555 1_555
H10_3 C12_3 1_555 1_555
N9_3 C9_3 1_555 1_555
N10_3 C11_3 1_555 1_555
H11_3 N10_3 1_555 1_555
H12_3 N10_3 1_555 1_555
Cu4_3 N8_3 1_555 1_555
O7_3 Cu4_3 1_555 1_555
H13_3 O7_3 1_555 1_555
H14_3 O7_3 1_555 1_555
O8_3 Cu4_3 1_555 1_555
C13_3 O8_3 1_555 1_555
O9_3 C13_3 1_555 1_555
C14_3 C13_3 1_555 1_555
O10_3 Cu4_3 1_555 1_555
N14_3 Cu4_3 1_555 1_555
C15_3 N14_3 1_555 1_555
C16_3 C15_3 1_555 1_555
N15_3 C16_3 1_555 1_555
Cu5_3 N15_3 1_555 1_555
Cu6_3 Cu5_3 1_555 1_555
N16_3 Cu5_3 1_555 1_555
O11_3 Cu5_3 1_555 1_555
H15_3 O11_3 1_555 1_555
H16_3 O11_3 1_555 1_555
N17_3 Cu5_3 1_555 1_555
C17_3 N17_3 1_555 1_555
N18_3 C17_3 1_555 1_555
C18_3 N18_3 1_555 1_555
C19_3 C18_3 1_555 1_555
C20_3 N17_3 1_555 1_555
N19_3 Cu6_3 1_555 1_555
N20_3 C16_3 1_555 1_555
C21_3 N14_3 1_555 1_555
H17_3 C21_3 1_555 1_555
N21_3 Cu5_3 1_555 1_555
C22_3 N19_3 1_555 1_555
N22_3 C19_3 1_555 1_555
N23_3 C18_3 1_555 1_555
H18_3 N23_3 1_555 1_555
H19_3 N23_3 1_555 1_555
H20_3 C17_3 1_555 1_555
C23_3 N15_3 1_555 1_555
N24_3 C23_3 1_555 1_555
C24_3 C15_3 1_555 1_555
N25_3 C24_3 1_555 1_555
H21_3 N25_3 1_555 1_555
H22_3 N25_3 1_555 1_555
H23_3 C23_3 1_555 1_555
O12_3 C14_3 1_555 1_555
Cu7_3 N22_3 1_555 1_555
H24_3 C22_3 1_555 1_555
C1_3 C2_3 1_555 1_555
C7_3 N4_3 1_555 1_555
N4_3 Cu3_3 1_555 1_555
C8_3 N7_3 1_555 1_555
C10_3 C11_3 1_555 1_555
C12_3 N9_3 1_555 1_555
N9_3 Cu3_3 1_555 1_555
C14_3 O10_3 1_555 1_555
Cu6_3 N20_3 1_555 1_555
C19_3 C20_3 1_555 1_555
C20_3 N19_3 1_555 1_555
N20_3 C21_3 1_555 1_555
C22_3 N22_3 1_555 1_555
N24_3 C24_3 1_555 1_555
Cu1_4 O1_4 1_555 1_555
O1_4 H1_4 1_555 1_555
H2_4 O1_4 1_555 1_555
N1_4 C3_4 1_555 1_555
C3_4 H5_4 1_555 1_555
N2_4 Cu1_4 1_555 1_555
C4_4 N2_4 1_555 1_555
C5_4 C4_4 1_555 1_555
C6_4 N1_4 1_555 1_555
C7_4 N3_4 1_555 1_555
H6_4 C7_4 1_555 1_555
N4_4 C4_4 1_555 1_555
N6_4 C8_4 1_555 1_555
C8_4 H9_4 1_555 1_555
N7_4 Cu1_4 1_555 1_555
C9_4 N7_4 1_555 1_555
C10_4 C9_4 1_555 1_555
C11_4 N6_4 1_555 1_555
N13_2 C10_4 1_555 1_555
C12_4 N13_2 1_555 1_555
H10_4 C12_4 1_555 1_555
N9_4 C9_4 1_555 1_555
N10_4 C11_4 1_555 1_555
H11_4 N10_4 1_555 1_555
H12_4 N10_4 1_555 1_555
Cu3_4 Cu1_4 1_555 1_555
N11_4 Cu1_4 1_555 1_555
N12_4 Cu1_4 1_555 1_555
C3_4 N2_4 1_555 1_555
C5_4 C6_4 1_555 1_555
C5_4 N3_4 1_555 1_555
C7_4 N4_4 1_555 1_555
N4_4 Cu3_4 1_555 1_555
C8_4 N7_4 1_555 1_555
C10_4 C11_4 1_555 1_555
C12_4 N9_4 1_555 1_555
N9_4 Cu3_4 1_555 1_555
Cu7_2 O2_4 1_555 1_555
O2_4 H3_4 1_555 1_555
H4_4 O2_4 1_555 1_555
O3_4 Cu7_2 1_555 1_555
O4_4 Cu7_2 1_555 1_555
O6_4 C2_4 1_555 1_555
C1_4 O3_4 1_555 1_555
C2_4 O4_4 1_555 1_555
H7_4 N5_4 1_555 1_555
H8_4 N5_4 1_555 1_555
C1_4 C2_4 1_555 1_555
Cu1_5 O1_5 1_555 1_555
Cu7_3 O2_5 1_555 1_555
O1_5 H1_5 1_555 1_555
H2_5 O1_5 1_555 1_555
O2_5 H3_5 1_555 1_555
H4_5 O2_5 1_555 1_555
O3_5 Cu7_3 1_555 1_555
O4_5 Cu7_3 1_555 1_555
O6_5 C2_5 1_555 1_555
C1_5 O3_5 1_555 1_555
C2_5 O4_5 1_555 1_555
N1_5 C3_5 1_555 1_555
C3_5 H5_5 1_555 1_555
N2_5 Cu1_5 1_555 1_555
C4_5 N2_5 1_555 1_555
C5_5 C4_5 1_555 1_555
C6_5 N1_5 1_555 1_555
N3_5 Cu7_3 1_555 1_555
C7_5 N3_5 1_555 1_555
H6_5 C7_5 1_555 1_555
N4_5 C4_5 1_555 1_555
N5_5 C6_5 1_555 1_555
H7_5 N5_5 1_555 1_555
H8_5 N5_5 1_555 1_555
N6_5 C8_5 1_555 1_555
C8_5 H9_5 1_555 1_555
N7_5 Cu1_5 1_555 1_555
C9_5 N7_5 1_555 1_555
C10_5 C9_5 1_555 1_555
C11_5 N6_5 1_555 1_555
N13_3 C10_5 1_555 1_555
C12_5 N13_3 1_555 1_555
H10_5 C12_5 1_555 1_555
N9_5 C9_5 1_555 1_555
N10_5 C11_5 1_555 1_555
H11_5 N10_5 1_555 1_555
H12_5 N10_5 1_555 1_555
Cu3_5 Cu1_5 1_555 1_555
N11_5 Cu1_5 1_555 1_555
N12_5 Cu1_5 1_555 1_555
C1_5 C2_5 1_555 1_555
C3_5 N2_5 1_555 1_555
C5_5 C6_5 1_555 1_555
C5_5 N3_5 1_555 1_555
C7_5 N4_5 1_555 1_555
N4_5 Cu3_5 1_555 1_555
C8_5 N7_5 1_555 1_555
C10_5 C11_5 1_555 1_555
C12_5 N9_5 1_555 1_555
N9_5 Cu3_5 1_555 1_555
Cu7 O2_6 1_555 1_555
O2_6 H3_6 1_555 1_555
H4_6 O2_6 1_555 1_555
O3_6 Cu7 1_555 1_555
O4_6 Cu7 1_555 1_555
O6_6 C2_6 1_555 1_555
C1_6 O3_6 1_555 1_555
C2_6 O4_6 1_555 1_555
H7_6 N5_6 1_555 1_555
H8_6 N5_6 1_555 1_555
C1_6 C2_6 1_555 1_555
Cu1_6 O1_6 1_555 1_555
O1_6 H1_6 1_555 1_555
H2_6 O1_6 1_555 1_555
N1_6 C3_6 1_555 1_555
C3_6 H5_6 1_555 1_555
N2_6 Cu1_6 1_555 1_555
C4_6 N2_6 1_555 1_555
C5_6 C4_6 1_555 1_555
C6_6 N1_6 1_555 1_555
C7_6 N3_6 1_555 1_555
H6_6 C7_6 1_555 1_555
N4_6 C4_6 1_555 1_555
N6_6 C8_6 1_555 1_555
C8_6 H9_6 1_555 1_555
N7_6 Cu1_6 1_555 1_555
C9_6 N7_6 1_555 1_555
C10_6 C9_6 1_555 1_555
C11_6 N6_6 1_555 1_555
N13 C10_6 1_555 1_555
C12_6 N13 1_555 1_555
H10_6 C12_6 1_555 1_555
N9_6 C9_6 1_555 1_555
N10_6 C11_6 1_555 1_555
H11_6 N10_6 1_555 1_555
H12_6 N10_6 1_555 1_555
Cu3_6 Cu1_6 1_555 1_555
N11_6 Cu1_6 1_555 1_555
N12_6 Cu1_6 1_555 1_555
C3_6 N2_6 1_555 1_555
C5_6 C6_6 1_555 1_555
C5_6 N3_6 1_555 1_555
C7_6 N4_6 1_555 1_555
N4_6 Cu3_6 1_555 1_555
C8_6 N7_6 1_555 1_555
C10_6 C11_6 1_555 1_555
C12_6 N9_6 1_555 1_555
N9_6 Cu3_6 1_555 1_555
Cu2_4 O2_7 1_555 1_555
O2_7 H3_7 1_555 1_555
H4_7 O2_7 1_555 1_555
O3_7 Cu2_4 1_555 1_555
O4_7 Cu2_4 1_555 1_555
O5_7 C1_7 1_555 1_555
O6_7 C2_7 1_555 1_555
C1_7 O3_7 1_555 1_555
C2_7 O4_7 1_555 1_555
N3_7 Cu2_4 1_555 1_555
C7_7 N3_7 1_555 1_555
H6_7 C7_7 1_555 1_555
H13_4 O7_4 1_555 1_555
H14_4 O7_4 1_555 1_555
H21_4 N25_4 1_555 1_555
H22_4 N25_4 1_555 1_555
C1_7 C2_7 1_555 1_555
C7_7 N11 1_555 1_555
C5_7 C4_7 1_555 1_555
N5_7 C6_7 1_555 1_555
H7_7 N5_7 1_555 1_555
H8_7 N5_7 1_555 1_555
C5_7 C6_7 1_555 1_555
N6_7 C8_7 1_555 1_555
C9_7 N7_7 1_555 1_555
C10_7 C9_7 1_555 1_555
C11_7 N6_7 1_555 1_555
N8_4 C10_7 1_555 1_555
C12_7 N8_4 1_555 1_555
N12 C9_7 1_555 1_555
N10_7 C11_7 1_555 1_555
H11_7 N10_7 1_555 1_555
H12_7 N10_7 1_555 1_555
Cu4_4 N8_4 1_555 1_555
O8_4 Cu4_4 1_555 1_555
C13_4 O8_4 1_555 1_555
O9_4 C13_4 1_555 1_555
C14_4 C13_4 1_555 1_555
O10_4 Cu4_4 1_555 1_555
N14_4 Cu4_4 1_555 1_555
C15_4 N14_4 1_555 1_555
C16_4 C15_4 1_555 1_555
N15_4 C16_4 1_555 1_555
Cu3_5 N15_4 1_555 1_555
O11_4 Cu3_5 1_555 1_555
H15_4 O11_4 1_555 1_555
H16_4 O11_4 1_555 1_555
N17_4 Cu3_5 1_555 1_555
C17_4 N17_4 1_555 1_555
N18_4 C17_4 1_555 1_555
C18_4 N18_4 1_555 1_555
C19_4 C18_4 1_555 1_555
C20_4 N17_4 1_555 1_555
N11_5 C16_4 1_555 1_555
C21_4 N14_4 1_555 1_555
H17_4 C21_4 1_555 1_555
C22_4 N12_5 1_555 1_555
N22_4 C19_4 1_555 1_555
N23_4 C18_4 1_555 1_555
H19_4 N23_4 1_555 1_555
H20_4 C17_4 1_555 1_555
C23_4 N15_4 1_555 1_555
N24_4 C23_4 1_555 1_555
C24_4 C15_4 1_555 1_555
H23_4 C23_4 1_555 1_555
O12_4 C14_4 1_555 1_555
Cu7_4 N22_4 1_555 1_555
H24_4 C22_4 1_555 1_555
C8_7 N7_7 1_555 1_555
C10_7 C11_7 1_555 1_555
C12_7 N12 1_555 1_555
C14_4 O10_4 1_555 1_555
C19_4 C20_4 1_555 1_555
C20_4 N12_5 1_555 1_555
N11_5 C21_4 1_555 1_555
C22_4 N22_4 1_555 1_555
N24_4 C24_4 1_555 1_555
Cu3 O1_7 1_555 1_555
O1_7 H1_7 1_555 1_555
H2_7 O1_7 1_555 1_555
N1_7 C3_7 1_555 1_555
C3_7 H5_7 1_555 1_555
N2_7 Cu3 1_555 1_555
C3_7 N2_7 1_555 1_555
N6_8 C8_8 1_555 1_555
C9_8 N7_8 1_555 1_555
C10_8 C9_8 1_555 1_555
C11_8 N6_8 1_555 1_555
N8_5 C10_8 1_555 1_555
C12_8 N8_5 1_555 1_555
N12_2 C9_8 1_555 1_555
N10_8 C11_8 1_555 1_555
H11_8 N10_8 1_555 1_555
H12_8 N10_8 1_555 1_555
Cu4_5 N8_5 1_555 1_555
O8_5 Cu4_5 1_555 1_555
C13_5 O8_5 1_555 1_555
O9_5 C13_5 1_555 1_555
C14_5 C13_5 1_555 1_555
O10_5 Cu4_5 1_555 1_555
N14_5 Cu4_5 1_555 1_555
C15_5 N14_5 1_555 1_555
C16_5 C15_5 1_555 1_555
N15_5 C16_5 1_555 1_555
Cu3_6 N15_5 1_555 1_555
O11_5 Cu3_6 1_555 1_555
H15_5 O11_5 1_555 1_555
H16_5 O11_5 1_555 1_555
N17_5 Cu3_6 1_555 1_555
C17_5 N17_5 1_555 1_555
N18_5 C17_5 1_555 1_555
C18_5 N18_5 1_555 1_555
C19_5 C18_5 1_555 1_555
C20_5 N17_5 1_555 1_555
N11_6 C16_5 1_555 1_555
C21_5 N14_5 1_555 1_555
H17_5 C21_5 1_555 1_555
C22_5 N12_6 1_555 1_555
N22_5 C19_5 1_555 1_555
N23_5 C18_5 1_555 1_555
H19_5 N23_5 1_555 1_555
H20_5 C17_5 1_555 1_555
C23_5 N15_5 1_555 1_555
N24_5 C23_5 1_555 1_555
C24_5 C15_5 1_555 1_555
H23_5 C23_5 1_555 1_555
O12_5 C14_5 1_555 1_555
Cu7_5 N22_5 1_555 1_555
H24_5 C22_5 1_555 1_555
C8_8 N7_8 1_555 1_555
C10_8 C11_8 1_555 1_555
C12_8 N12_2 1_555 1_555
C14_5 O10_5 1_555 1_555
C19_5 C20_5 1_555 1_555
C20_5 N12_6 1_555 1_555
N11_6 C21_5 1_555 1_555
C22_5 N22_5 1_555 1_555
N24_5 C24_5 1_555 1_555
Cu3_2 O1_8 1_555 1_555
O1_8 H1_8 1_555 1_555
H2_8 O1_8 1_555 1_555
N1_8 C3_8 1_555 1_555
C3_8 H5_8 1_555 1_555
N2_8 Cu3_2 1_555 1_555
C3_8 N2_8 1_555 1_555
Cu2_5 O2_8 1_555 1_555
O2_8 H3_8 1_555 1_555
H4_8 O2_8 1_555 1_555
O3_8 Cu2_5 1_555 1_555
O4_8 Cu2_5 1_555 1_555
O5_8 C1_8 1_555 1_555
O6_8 C2_8 1_555 1_555
C1_8 O3_8 1_555 1_555
C2_8 O4_8 1_555 1_555
N3_8 Cu2_5 1_555 1_555
C7_8 N3_8 1_555 1_555
H6_8 C7_8 1_555 1_555
H13_5 O7_5 1_555 1_555
H14_5 O7_5 1_555 1_555
H21_5 N25_5 1_555 1_555
H22_5 N25_5 1_555 1_555
C1_8 C2_8 1_555 1_555
C7_8 N11_2 1_555 1_555
C5_8 C4_8 1_555 1_555
N5_8 C6_8 1_555 1_555
H7_8 N5_8 1_555 1_555
H8_8 N5_8 1_555 1_555
C5_8 C6_8 1_555 1_555
Cu2_6 O2_9 1_555 1_555
O2_9 H3_9 1_555 1_555
H4_9 O2_9 1_555 1_555
O3_9 Cu2_6 1_555 1_555
O4_9 Cu2_6 1_555 1_555
O5_9 C1_9 1_555 1_555
O6_9 C2_9 1_555 1_555
C1_9 O3_9 1_555 1_555
C2_9 O4_9 1_555 1_555
N3_9 Cu2_6 1_555 1_555
C7_9 N3_9 1_555 1_555
H6_9 C7_9 1_555 1_555
N6_9 C8_9 1_555 1_555
C9_9 N7_9 1_555 1_555
C10_9 C9_9 1_555 1_555
C11_9 N6_9 1_555 1_555
N8_6 C10_9 1_555 1_555
C12_9 N8_6 1_555 1_555
H10_9 C12_9 1_555 1_555
N12_3 C9_9 1_555 1_555
N10_9 C11_9 1_555 1_555
H11_9 N10_9 1_555 1_555
H12_9 N10_9 1_555 1_555
Cu4_6 N8_6 1_555 1_555
O7_6 Cu4_6 1_555 1_555
H13_6 O7_6 1_555 1_555
H14_6 O7_6 1_555 1_555
O8_6 Cu4_6 1_555 1_555
C13_6 O8_6 1_555 1_555
O9_6 C13_6 1_555 1_555
C14_6 C13_6 1_555 1_555
O10_6 Cu4_6 1_555 1_555
N14_6 Cu4_6 1_555 1_555
C15_6 N14_6 1_555 1_555
C16_6 C15_6 1_555 1_555
N15_6 C16_6 1_555 1_555
Cu3_4 N15_6 1_555 1_555
O11_6 Cu3_4 1_555 1_555
H15_6 O11_6 1_555 1_555
H16_6 O11_6 1_555 1_555
N17_6 Cu3_4 1_555 1_555
C17_6 N17_6 1_555 1_555
N18_6 C17_6 1_555 1_555
C18_6 N18_6 1_555 1_555
C19_6 C18_6 1_555 1_555
C20_6 N17_6 1_555 1_555
N11_4 C16_6 1_555 1_555
C21_6 N14_6 1_555 1_555
H17_6 C21_6 1_555 1_555
C22_6 N12_4 1_555 1_555
N22_6 C19_6 1_555 1_555
N23_6 C18_6 1_555 1_555
H18_6 N23_6 1_555 1_555
H19_6 N23_6 1_555 1_555
H20_6 C17_6 1_555 1_555
C23_6 N15_6 1_555 1_555
N24_6 C23_6 1_555 1_555
C24_6 C15_6 1_555 1_555
N25_6 C24_6 1_555 1_555
H21_6 N25_6 1_555 1_555
H22_6 N25_6 1_555 1_555
H23_6 C23_6 1_555 1_555
O12_6 C14_6 1_555 1_555
Cu7_6 N22_6 1_555 1_555
H24_6 C22_6 1_555 1_555
C1_9 C2_9 1_555 1_555
C7_9 N11_3 1_555 1_555
C8_9 N7_9 1_555 1_555
C10_9 C11_9 1_555 1_555
C12_9 N12_3 1_555 1_555
C14_6 O10_6 1_555 1_555
C19_6 C20_6 1_555 1_555
C20_6 N12_4 1_555 1_555
N11_4 C21_6 1_555 1_555
C22_6 N22_6 1_555 1_555
N24_6 C24_6 1_555 1_555
Cu3_3 O1_9 1_555 1_555
O1_9 H1_9 1_555 1_555
H2_9 O1_9 1_555 1_555
N1_9 C3_9 1_555 1_555
C3_9 H5_9 1_555 1_555
N2_9 Cu3_3 1_555 1_555
C4_9 N2_9 1_555 1_555
C5_9 C4_9 1_555 1_555
C6_9 N1_9 1_555 1_555
N5_9 C6_9 1_555 1_555
H7_9 N5_9 1_555 1_555
H8_9 N5_9 1_555 1_555
C3_9 N2_9 1_555 1_555
C5_9 C6_9 1_555 1_555
Cu7_5 O2_10 1_555 1_555
O2_10 H3_10 1_555 1_555
H4_10 O2_10 1_555 1_555
O3_10 Cu7_5 1_555 1_555
O4_10 Cu7_5 1_555 1_555
O6_10 C2_10 1_555 1_555
C1_10 O3_10 1_555 1_555
C2_10 O4_10 1_555 1_555
H7_10 N5_10 1_555 1_555
H8_10 N5_10 1_555 1_555
C1_10 C2_10 1_555 1_555
Cu6_3 O1_10 1_555 1_555
O1_10 H1_10 1_555 1_555
H2_10 O1_10 1_555 1_555
N1_10 C3_10 1_555 1_555
C3_10 H5_10 1_555 1_555
N2_10 Cu6_3 1_555 1_555
C4_10 N2_10 1_555 1_555
C5_10 C4_10 1_555 1_555
C6_10 N1_10 1_555 1_555
C7_10 N3_10 1_555 1_555
H6_10 C7_10 1_555 1_555
N16_3 C4_10 1_555 1_555
N6_10 C8_10 1_555 1_555
C8_10 H9_10 1_555 1_555
N7_10 Cu6_3 1_555 1_555
C9_10 N7_10 1_555 1_555
C10_10 C9_10 1_555 1_555
C11_10 N6_10 1_555 1_555
N13_5 C10_10 1_555 1_555
C12_10 N13_5 1_555 1_555
H10_10 C12_10 1_555 1_555
N21_3 C9_10 1_555 1_555
N10_10 C11_10 1_555 1_555
H11_10 N10_10 1_555 1_555
H12_10 N10_10 1_555 1_555
C3_10 N2_10 1_555 1_555
C5_10 C6_10 1_555 1_555
C5_10 N3_10 1_555 1_555
C7_10 N16_3 1_555 1_555
C8_10 N7_10 1_555 1_555
C10_10 C11_10 1_555 1_555
C12_10 N21_3 1_555 1_555
Cu6 O1_11 1_555 1_555
Cu7_6 O2_11 1_555 1_555
O1_11 H1_11 1_555 1_555
H2_11 O1_11 1_555 1_555
O2_11 H3_11 1_555 1_555
H4_11 O2_11 1_555 1_555
O3_11 Cu7_6 1_555 1_555
O4_11 Cu7_6 1_555 1_555
O6_11 C2_11 1_555 1_555
C1_11 O3_11 1_555 1_555
C2_11 O4_11 1_555 1_555
N1_11 C3_11 1_555 1_555
C3_11 H5_11 1_555 1_555
N2_11 Cu6 1_555 1_555
C4_11 N2_11 1_555 1_555
C5_11 C4_11 1_555 1_555
C6_11 N1_11 1_555 1_555
N3_11 Cu7_6 1_555 1_555
C7_11 N3_11 1_555 1_555
H6_11 C7_11 1_555 1_555
N16 C4_11 1_555 1_555
N5_11 C6_11 1_555 1_555
H7_11 N5_11 1_555 1_555
H8_11 N5_11 1_555 1_555
N6_11 C8_11 1_555 1_555
C8_11 H9_11 1_555 1_555
N7_11 Cu6 1_555 1_555
C9_11 N7_11 1_555 1_555
C10_11 C9_11 1_555 1_555
C11_11 N6_11 1_555 1_555
N13_6 C10_11 1_555 1_555
C12_11 N13_6 1_555 1_555
H10_11 C12_11 1_555 1_555
N21 C9_11 1_555 1_555
N10_11 C11_11 1_555 1_555
H11_11 N10_11 1_555 1_555
H12_11 N10_11 1_555 1_555
C1_11 C2_11 1_555 1_555
C3_11 N2_11 1_555 1_555
C5_11 C6_11 1_555 1_555
C5_11 N3_11 1_555 1_555
C7_11 N16 1_555 1_555
C8_11 N7_11 1_555 1_555
C10_11 C11_11 1_555 1_555
C12_11 N21 1_555 1_555
Cu6_2 O1_12 1_555 1_555
O1_12 H1_12 1_555 1_555
H2_12 O1_12 1_555 1_555
N1_12 C3_12 1_555 1_555
C3_12 H5_12 1_555 1_555
N2_12 Cu6_2 1_555 1_555
C4_12 N2_12 1_555 1_555
C5_12 C4_12 1_555 1_555
C6_12 N1_12 1_555 1_555
C7_12 N3_12 1_555 1_555
H6_12 C7_12 1_555 1_555
N16_2 C4_12 1_555 1_555
N6_12 C8_12 1_555 1_555
C8_12 H9_12 1_555 1_555
N7_12 Cu6_2 1_555 1_555
C9_12 N7_12 1_555 1_555
C10_12 C9_12 1_555 1_555
C11_12 N6_12 1_555 1_555
N13_4 C10_12 1_555 1_555
C12_12 N13_4 1_555 1_555
H10_12 C12_12 1_555 1_555
N21_2 C9_12 1_555 1_555
N10_12 C11_12 1_555 1_555
H11_12 N10_12 1_555 1_555
H12_12 N10_12 1_555 1_555
C3_12 N2_12 1_555 1_555
C5_12 C6_12 1_555 1_555
C5_12 N3_12 1_555 1_555
C7_12 N16_2 1_555 1_555
C8_12 N7_12 1_555 1_555
C10_12 C11_12 1_555 1_555
C12_12 N21_2 1_555 1_555
Cu7_4 O2_12 1_555 1_555
O2_12 H3_12 1_555 1_555
H4_12 O2_12 1_555 1_555
O3_12 Cu7_4 1_555 1_555
O4_12 Cu7_4 1_555 1_555
O6_12 C2_12 1_555 1_555
C1_12 O3_12 1_555 1_555
C2_12 O4_12 1_555 1_555
H7_12 N5_12 1_555 1_555
H8_12 N5_12 1_555 1_555
C1_12 C2_12 1_555 1_555

#END
