
###############################################################################
#
# This file contains modified crystal structure data generated from the
# MOF subset of the Cambridge Structural Database (CSD) v543 
# hosted by the Cambridge Crystallographic Data Centre (CCDC).
#
# This work is licensed under the Creative Commons
# Attribution-NonCommercial-ShareAlike 4.0 International License.
# To view a copy of this license, visit
# http://creativecommons.org/licenses/by-nc-sa/4.0/
# or send a letter to
# Creative Commons, PO Box 1866, Mountain View, CA 94042, USA.
#
# CIF created using the CSD Python API on 29 September 2022
# The structure has been converted into the P1 space group
# The structure has a 3D framework
# The original CSD entry XADDAJ01 is in the triclinic crystal system
# The framework has been calculated to contain at least 10.0% void space
# The void calculation uses a probe of radius 1.32A, grid spacing 0.4
#
###############################################################################

data_XADDAJ01
_chemical_formula_moiety         '(C132 H116 N4 O66 Tb8)n'
_symmetry_cell_setting           triclinic
_symmetry_space_group_name_H-M   'P 1'
_symmetry_Int_Tables_number      1
_space_group_name_Hall           'P 1'
loop_
_symmetry_equiv_pos_site_id
_symmetry_equiv_pos_as_xyz
1 x,y,z
_cell_length_a                   12.903(3)
_cell_length_b                   13.782(3)
_cell_length_c                   27.912(6)
_cell_angle_alpha                75.64(3)
_cell_angle_beta                 79.46(3)
_cell_angle_gamma                85.71(3)
_cell_volume                     4725.1
loop_
_atom_site_label
_atom_site_type_symbol
_atom_site_fract_x
_atom_site_fract_y
_atom_site_fract_z
O35 O 0.0543(4) 0.0677(4) 0.52795(19)
O44 O 0.0994(5) 0.0308(4) 0.0335(2)
Tb9 Tb 0.03018(3) 0.87474(2) 0.060457(11)
O5 O 0.0447(5) 0.8879(5) 0.1442(2)
O10 O 0.0196(4) 0.1260(4) 0.42269(19)
O11 O 0.2606(5) 0.6604(5) 0.1477(2)
O12 O 0.3264(5) 0.5090(4) 0.1412(2)
O30 O 0.0576(5) 0.6997(4) 0.0637(2)
O31 O 0.2116(5) 0.8321(5) 0.0737(2)
H4 H 0.0006 0.8576 0.3193
H5 H 0.0558 0.8793 0.2340
H9 H 0.0253 0.2608 0.3465
C22 C 0.0105(6) 0.4277(6) 0.2749(3)
C23 C 0.0155(7) 0.5301(7) 0.2599(3)
C24 C 0.0932(7) 0.5746(7) 0.2210(4)
H12 H 0.0953 0.6442 0.2111
C25 C 0.1676(6) 0.5179(6) 0.1967(3)
C26 C 0.1602(7) 0.4148(6) 0.2108(3)
H13 H 0.2084 0.3755 0.1941
C27 C 0.0828(7) 0.3692(7) 0.2492(3)
H14 H 0.0787 0.2997 0.2579
C30 C 0.2581(7) 0.5665(6) 0.1588(3)
N2 N 0.1076(9) 0.5646(9) 0.0290(4)
C64 C 0.0767(12) 0.6592(12) 0.0257(6)
C66 C 0.1113(14) 0.4979(13) 0.0777(6)
H40 H 0.1355 0.4323 0.0736
H41 H 0.0421 0.4940 0.0977
H42 H 0.1588 0.5230 0.0942
H51 H 0.273(6) 0.879(5) 0.068(10)
H52 H 0.242(6) 0.767(6) 0.094(10)
Tb7 Tb 0.11984(3) 0.97877(2) 0.446350(11)
Tb14 Tb 0.48348(3) 0.52060(3) 0.085777(12)
H36 H 0.0682 0.6989 0.9944
C65 C 0.1379(14) 0.5275(13) 0.9814(6)
H37 H 0.1588 0.4578 0.9898
H38 H 0.1956 0.5652 0.9600
H39 H 0.0787 0.5359 0.9642
O40 O 0.1236(4) 0.8727(4) 0.97911(19)
Tb1 Tb 0.88016(3) 0.02123(2) 0.553650(11)
O14 O 0.8764(4) 0.1273(4) 0.02089(19)
O15 O 0.5056(5) 0.3539(4) 0.1385(2)
O16 O 0.6134(4) 0.3894(4) 0.06707(19)
O24 O 0.9124(5) 0.0175(4) 0.63746(19)
O25 O 0.6899(5) 0.0612(6) 0.5555(3)
O26 O 0.8559(6) 0.1866(4) 0.5679(2)
C31 C 0.7639(6) 0.1030(6) 0.0996(3)
C32 C 0.7162(6) 0.1987(6) 0.0877(3)
H15 H 0.7392 0.2423 0.0569
C33 C 0.6353(6) 0.2290(5) 0.1213(3)
C34 C 0.5993(6) 0.1636(6) 0.1668(3)
H16 H 0.5443 0.1840 0.1892
C35 C 0.6445(6) 0.0677(5) 0.1795(3)
C36 C 0.7273(6) 0.0395(6) 0.1459(3)
C42 C 0.5637(8) 0.0275(7) 0.2714(4)
H21 H 0.5654 0.0951 0.2709
C43 C 0.8507(6) 0.0697(6) 0.0630(3)
C44 C 0.5807(6) 0.3294(5) 0.1083(3)
H43 H 0.6293(17) 0.017(9) 0.576(8)
H44 H 0.655(3) 0.131(3) 0.553(10)
H45 H 0.790(4) 0.234(9) 0.569(11)
H46 H 0.912(3) 0.239(9) 0.566(11)
Tb11 Tb 0.96982(3) 0.12526(2) 0.939543(11)
O37 O 0.8682(4) 0.1350(4) 0.47597(18)
O20 O 0.6105(5) 0.6084(4) 0.0249(2)
O22 O 0.8937(4) 0.8276(4) 0.0247(2)
H22 H 0.7450 0.7303 0.0129
Tb2 Tb 0.47005(3) 0.53812(3) 0.414890(12)
Tb4 Tb 0.51652(3) 0.47940(3) 0.914223(12)
O1 O 0.9457(4) 0.9323(4) 0.47205(19)
O2 O 0.7993(4) 0.9002(4) 0.5254(2)
O3 O 0.5994(5) 0.5666(4) 0.4560(2)
O4 O 0.6245(4) 0.5896(4) 0.52867(19)
O6 O 0.9284(5) 0.7860(5) 0.14037(19)
O7 O 0.6370(4) 0.5163(4) 0.35742(19)
O8 O 0.5927(4) 0.3920(4) 0.42291(19)
O13 O 0.8901(5) 0.9837(4) 0.0770(2)
O17 O 0.4887(5) 0.6941(4) 0.3632(2)
O18 O 0.4449(6) 0.8149(5) 0.4031(2)
O19 O 0.5960(5) 0.5719(4) 0.9541(2)
O21 O 0.9006(5) 0.9692(4) 0.9665(2)
O23 O 0.7772(5) 0.9370(6) 0.6347(2)
O27 O 0.4230(6) 0.4627(6) 0.3563(2)
O28 O 0.3894(5) 0.6430(4) 0.4721(2)
O29 O 0.2846(4) 0.5832(5) 0.4074(2)
O32 O 0.3761(7) 0.4711(6) 0.8674(3)
O33 O 0.5351(5) 0.3190(5) 0.8919(2)
O34 O 0.6213(5) 0.3630(4) 0.9699(2)
C1 C 0.8243(6) 0.8243(6) 0.4569(3)
C2 C 0.7493(6) 0.7524(6) 0.4807(3)
H1 H 0.7227 0.7446 0.5147
C3 C 0.7148(6) 0.6936(5) 0.4548(3)
C4 C 0.7518(6) 0.7067(6) 0.4040(3)
H2 H 0.7254 0.6678 0.3864
C5 C 0.8277(6) 0.7766(6) 0.3785(3)
C6 C 0.8646(6) 0.8348(6) 0.4064(3)
H3 H 0.9167 0.8809 0.3908
C7 C 0.8647(6) 0.7884(6) 0.3238(3)
C8 C 0.9595(9) 0.8350(9) 0.3004(3)
C9 C 0.9926(8) 0.8479(9) 0.2491(3)
C10 C 0.9337(7) 0.8151(6) 0.2205(3)
C11 C 0.8449(7) 0.7635(8) 0.2438(3)
H6 H 0.8068 0.7366 0.2252
C12 C 0.8112(8) 0.7509(7) 0.2946(3)
H7 H 0.7502 0.7159 0.3096
C13 C 0.8597(6) 0.8889(6) 0.4857(3)
C14 C 0.6398(6) 0.6107(5) 0.4812(3)
C15 C 0.9710(7) 0.8299(6) 0.1648(3)
C16 C 0.7643(6) 0.3820(6) 0.3740(3)
C17 C 0.7936(6) 0.2987(5) 0.4082(3)
H8 H 0.7479 0.2729 0.4378
C18 C 0.8932(6) 0.2534(6) 0.3977(3)
C19 C 0.9603(6) 0.2927(6) 0.3537(3)
C20 C 0.9327(6) 0.3794(6) 0.3197(3)
C21 C 0.8338(6) 0.4231(6) 0.3309(3)
H10 H 0.8137 0.4812 0.3090
H11 H 0.9665 0.5698 0.2759
C28 C 0.6577(6) 0.4339(6) 0.3855(3)
C29 C 0.9295(6) 0.1637(6) 0.4352(3)
H17 H 0.7592 0.9763 0.1545
C37 C 0.6021(7) 0.9964(6) 0.2282(3)
C38 C 0.5991(8) 0.8946(6) 0.2291(3)
H18 H 0.6238 0.8719 0.2002
C39 C 0.5584(8) 0.8272(6) 0.2739(3)
H19 H 0.5564 0.7594 0.2749
C40 C 0.5207(7) 0.8617(6) 0.3173(3)
C41 C 0.5228(8) 0.9615(7) 0.3155(3)
H20 H 0.4965 0.9849 0.3440
C45 C 0.4814(7) 0.7859(6) 0.3646(3)
C46 C 0.6996(5) 0.7079(5) 0.9511(3)
C47 C 0.7521(6) 0.7540(5) 0.9783(3)
C48 C 0.8145(6) 0.8347(5) 0.9544(3)
C49 C 0.8241(6) 0.8686(6) 0.9030(3)
H23 H 0.8655 0.9235 0.8868
C50 C 0.7744(6) 0.8238(6) 0.8749(3)
C51 C 0.7123(6) 0.7418(6) 0.8992(3)
H24 H 0.6792 0.7098 0.8808
C52 C 0.7903(6) 0.8586(6) 0.8192(3)
C53 C 0.7120(7) 0.8508(8) 0.7927(3)
H25 H 0.6480 0.8238 0.8100
C54 C 0.7271(8) 0.8825(8) 0.7409(3)
H26 H 0.6734 0.8767 0.7237
C55 C 0.8226(7) 0.9230(6) 0.7144(3)
C56 C 0.8981(7) 0.9308(6) 0.7409(3)
H27 H 0.9619 0.9584 0.7236
C57 C 0.8841(7) 0.8993(7) 0.7922(3)
H28 H 0.9383 0.9055 0.8090
C58 C 0.6302(6) 0.6240(5) 0.9786(3)
C59 C 0.8727(6) 0.8812(5) 0.9839(3)
C60 C 0.8384(7) 0.9616(6) 0.6585(3)
N1 N 0.3805(10) 0.3759(9) 0.3054(5)
C61 C 0.4392(15) 0.4354(14) 0.3228(7)
H29 H 0.5030 0.4550 0.3021
C62 C 0.2934(19) 0.3222(18) 0.3368(9)
H30 H 0.2621 0.2863 0.3179
H31 H 0.2420 0.3684 0.3490
H32 H 0.3172 0.2757 0.3647
C63 C 0.4327(19) 0.3451(19) 0.2543(9)
H33 H 0.3856 0.3034 0.2460
H34 H 0.4982 0.3089 0.2586
H35 H 0.4455 0.4044 0.2277
H47 H 0.369(17) 0.617(4) 0.5089(15)
H48 H 0.410(14) 0.714(6) 0.467(5)
H49 H 0.250(5) 0.59(2) 0.377(4)
H50 H 0.222(4) 0.58(2) 0.4349(16)
H53 H 0.306(7) 0.442(17) 0.884(2)
H54 H 0.359(13) 0.529(8) 0.840(6)
H55 H 0.594(12) 0.269(8) 0.900(8)
H56 H 0.521(19) 0.310(5) 0.859(4)
H57 H 0.694(10) 0.372(9) 0.977(8)
H58 H 0.613(12) 0.285(7) 0.983(9)
Tb8 Tb 0.52995(3) 0.46188(3) 0.585110(12)
O36 O 0.3755(4) 0.4104(4) 0.47133(19)
O38 O 0.9804(4) 0.8740(4) 0.57731(19)
O39 O 0.6736(5) 0.4910(4) 0.8588(2)
O41 O 0.4944(5) 0.6461(4) 0.8615(2)
O42 O 0.3866(4) 0.6106(4) 0.93293(19)
O43 O 0.3895(5) 0.3916(4) 0.9751(2)
O2_2 O 0.2007(4) 0.0998(4) 0.4746(2)
O3_2 O 0.4006(5) 0.4334(4) 0.5440(2)
O6_2 O 0.0716(5) 0.2140(5) 0.85963(19)
O7_2 O 0.3630(4) 0.4837(4) 0.64258(19)
O8_2 O 0.4073(4) 0.6080(4) 0.57709(19)
O9 O 0.1318(4) 0.8650(4) 0.52403(18)
O13_2 O 0.1099(5) 0.0163(4) 0.9230(2)
O17_2 O 0.5113(5) 0.3059(4) 0.6368(2)
O18_2 O 0.5551(6) 0.1851(5) 0.5969(2)
O19_2 O 0.4040(5) 0.4281(4) 0.0459(2)
O23_2 O 0.2228(5) 0.0630(6) 0.3653(2)
O27_2 O 0.5770(6) 0.5373(6) 0.6437(2)
O28_2 O 0.6106(5) 0.3570(4) 0.5279(2)
O29_2 O 0.7154(4) 0.4168(5) 0.5926(2)
O32_2 O 0.6239(7) 0.5289(6) 0.1326(3)
O33_2 O 0.4649(5) 0.6810(5) 0.1081(2)
O34_2 O 0.3787(5) 0.6370(4) 0.0301(2)
C1_2 C 0.1757(6) 0.1757(6) 0.5431(3)
C2_2 C 0.2507(6) 0.2476(6) 0.5193(3)
H1_2 H 0.2773 0.2554 0.4853
C3_2 C 0.2852(6) 0.3064(5) 0.5452(3)
C4_2 C 0.2482(6) 0.2933(6) 0.5960(3)
H2_2 H 0.2746 0.3322 0.6136
C5_2 C 0.1723(6) 0.2234(6) 0.6215(3)
C6_2 C 0.1354(6) 0.1652(6) 0.5936(3)
H3_2 H 0.0833 0.1191 0.6092
C7_2 C 0.1353(6) 0.2116(6) 0.6762(3)
C8_2 C 0.0405(9) 0.1650(9) 0.6996(3)
C9_2 C 0.0074(8) 0.1521(9) 0.7509(3)
C10_2 C 0.0663(7) 0.1849(6) 0.7795(3)
C11_2 C 0.1551(7) 0.2365(8) 0.7562(3)
H6_2 H 0.1932 0.2634 0.7748
C12_2 C 0.1888(8) 0.2491(7) 0.7054(3)
H7_2 H 0.2498 0.2841 0.6904
C13_2 C 0.1403(6) 0.1111(6) 0.5143(3)
C14_2 C 0.3602(6) 0.3893(5) 0.5188(3)
C15_2 C 0.0290(7) 0.1701(6) 0.8352(3)
C16_2 C 0.2357(6) 0.6180(6) 0.6260(3)
C17_2 C 0.2064(6) 0.7013(5) 0.5918(3)
H8_2 H 0.2521 0.7271 0.5622
C18_2 C 0.1068(6) 0.7466(6) 0.6023(3)
C19_2 C 0.0397(6) 0.7073(6) 0.6463(3)
C20_2 C 0.0673(6) 0.6206(6) 0.6803(3)
C21_2 C 0.1662(6) 0.5769(6) 0.6691(3)
H10_2 H 0.1863 0.5188 0.6910
H11_2 H 0.0335 0.4302 0.7241
C28_2 C 0.3423(6) 0.5661(6) 0.6145(3)
C29_2 C 0.0705(6) 0.8363(6) 0.5648(3)
H17_2 H 0.2408 0.0237 0.8455
C37_2 C 0.3979(7) 0.0036(6) 0.7718(3)
C38_2 C 0.4009(8) 0.1054(6) 0.7709(3)
H18_2 H 0.3762 0.1281 0.7998
C39_2 C 0.4416(8) 0.1728(6) 0.7261(3)
H19_2 H 0.4436 0.2406 0.7251
C40_2 C 0.4793(7) 0.1383(6) 0.6827(3)
C41_2 C 0.4772(8) 0.0385(7) 0.6845(3)
H20_2 H 0.5035 0.0151 0.6560
C45_2 C 0.5186(7) 0.2141(6) 0.6354(3)
C46_2 C 0.3004(5) 0.2921(5) 0.0489(3)
C47_2 C 0.2479(6) 0.2460(5) 0.0217(3)
C48_2 C 0.1855(6) 0.1653(5) 0.0456(3)
C49_2 C 0.1759(6) 0.1314(6) 0.0970(3)
H23_2 H 0.1345 0.0765 0.1132
C50_2 C 0.2256(6) 0.1762(6) 0.1251(3)
C51_2 C 0.2877(6) 0.2582(6) 0.1008(3)
H24_2 H 0.3208 0.2902 0.1192
C52_2 C 0.2097(6) 0.1414(6) 0.1808(3)
C53_2 C 0.2880(7) 0.1492(8) 0.2073(3)
H25_2 H 0.3520 0.1762 0.1900
C54_2 C 0.2729(8) 0.1175(8) 0.2591(3)
H26_2 H 0.3266 0.1233 0.2763
C55_2 C 0.1774(7) 0.0770(6) 0.2856(3)
C56_2 C 0.1019(7) 0.0692(6) 0.2591(3)
H27_2 H 0.0381 0.0416 0.2764
C57_2 C 0.1159(7) 0.1007(7) 0.2078(3)
H28_2 H 0.0617 0.0945 0.1910
C58_2 C 0.3698(6) 0.3760(5) 0.0214(3)
C59_2 C 0.1273(6) 0.1188(5) 0.0161(3)
C60_2 C 0.1616(7) 0.0384(6) 0.3415(3)
N1_2 N 0.6195(10) 0.6241(9) 0.6946(5)
C61_2 C 0.5608(15) 0.5646(14) 0.6772(7)
H29_2 H 0.4970 0.5450 0.6979
C62_2 C 0.7066(19) 0.6778(18) 0.6632(9)
H30_2 H 0.7379 0.7137 0.6821
H31_2 H 0.7580 0.6316 0.6510
H32_2 H 0.6828 0.7243 0.6353
C63_2 C 0.5673(19) 0.6549(19) 0.7457(9)
H33_2 H 0.6144 0.6966 0.7540
H34_2 H 0.5018 0.6911 0.7414
H35_2 H 0.5545 0.5956 0.7723
H47_2 H 0.631(17) 0.383(4) 0.4911(15)
H48_2 H 0.590(14) 0.286(6) 0.533(5)
H49_2 H 0.750(5) 0.41(2) 0.623(4)
H50_2 H 0.778(4) 0.42(2) 0.5651(16)
H53_2 H 0.694(7) 0.558(17) 0.116(2)
H54_2 H 0.641(13) 0.471(8) 0.160(6)
H55_2 H 0.406(12) 0.731(8) 0.100(8)
H56_2 H 0.479(19) 0.690(5) 0.141(4)
H57_2 H 0.306(10) 0.628(9) 0.023(8)
H58_2 H 0.387(12) 0.715(7) 0.017(9)
O45 O 0.1063(4) 0.1724(4) 0.9753(2)
H22_2 H 0.2550 0.2697 0.9871
O24_2 O 0.0876(5) 0.9825(4) 0.36254(19)
O25_2 O 0.3101(5) 0.9388(6) 0.4445(3)
O26_2 O 0.1441(6) 0.8134(4) 0.4321(2)
C31_2 C 0.2361(6) 0.8970(6) 0.9004(3)
C32_2 C 0.2838(6) 0.8013(6) 0.9123(3)
H15_2 H 0.2608 0.7577 0.9431
C33_2 C 0.3647(6) 0.7710(5) 0.8787(3)
C34_2 C 0.4007(6) 0.8364(6) 0.8332(3)
H16_2 H 0.4557 0.8160 0.8108
C35_2 C 0.3555(6) 0.9323(5) 0.8205(3)
C36_2 C 0.2727(6) 0.9605(6) 0.8541(3)
C42_2 C 0.4363(8) 0.9725(7) 0.7286(4)
H21_2 H 0.4346 0.9049 0.7291
C43_2 C 0.1493(6) 0.9303(6) 0.9370(3)
C44_2 C 0.4193(6) 0.6706(5) 0.8917(3)
H43_2 H 0.3707(17) 0.983(9) 0.424(8)
H44_2 H 0.345(3) 0.869(3) 0.447(10)
H45_2 H 0.210(4) 0.766(9) 0.431(11)
H46_2 H 0.088(3) 0.761(9) 0.434(11)
H36_2 H 0.9318 0.3011 0.0056
C65_2 C 0.8621(14) 0.4725(13) 0.0186(6)
H37_2 H 0.8412 0.5422 0.0102
H38_2 H 0.8044 0.4348 0.0400
H39_2 H 0.9213 0.4641 0.0358
O5_2 O 0.9553(5) 0.1121(5) 0.8558(2)
O11_2 O 0.7394(5) 0.3396(5) 0.8523(2)
O30_2 O 0.9424(5) 0.3003(4) 0.9363(2)
O31_2 O 0.7884(5) 0.1679(5) 0.9263(2)
H4_2 H 0.9994 0.1424 0.6807
H5_2 H 0.9442 0.1207 0.7660
H9_2 H 0.9747 0.7392 0.6535
C22_2 C 0.9895(6) 0.5723(6) 0.7251(3)
C23_2 C 0.9845(7) 0.4699(7) 0.7401(3)
C24_2 C 0.9068(7) 0.4254(7) 0.7790(4)
H12_2 H 0.9047 0.3558 0.7889
C25_2 C 0.8324(6) 0.4821(6) 0.8033(3)
C26_2 C 0.8398(7) 0.5852(6) 0.7892(3)
H13_2 H 0.7916 0.6245 0.8059
C27_2 C 0.9172(7) 0.6308(7) 0.7508(3)
H14_2 H 0.9213 0.7003 0.7421
C30_2 C 0.7419(7) 0.4335(6) 0.8412(3)
N2_2 N 0.8924(9) 0.4354(9) 0.9710(4)
C64_2 C 0.9233(12) 0.3408(12) 0.9743(6)
C66_2 C 0.8887(14) 0.5021(13) 0.9223(6)
H40_2 H 0.8645 0.5677 0.9264
H41_2 H 0.9579 0.5060 0.9023
H42_2 H 0.8412 0.4770 0.9058
H51_2 H 0.727(6) 0.121(5) 0.932(10)
H52_2 H 0.758(6) 0.233(6) 0.906(10)
loop_
_geom_bond_atom_site_label_1
_geom_bond_atom_site_label_2
_geom_bond_site_symmetry_1
_geom_bond_site_symmetry_2
Tb9 O5 1_555 1_555
O11 C30 1_555 1_555
O12 C30 1_555 1_555
O30 Tb9 1_555 1_555
O31 Tb9 1_555 1_555
C23 C22 1_555 1_555
C24 C23 1_555 1_555
H12 C24 1_555 1_555
C25 C24 1_555 1_555
C26 C25 1_555 1_555
H13 C26 1_555 1_555
C27 C22 1_555 1_555
H14 C27 1_555 1_555
C30 C25 1_555 1_555
N2 C64 1_555 1_555
C64 O30 1_555 1_555
C66 N2 1_555 1_555
H40 C66 1_555 1_555
H41 C66 1_555 1_555
H42 C66 1_555 1_555
H51 O31 1_555 1_555
H52 O31 1_555 1_555
Tb14 O12 1_555 1_555
C26 C27 1_555 1_555
H37 C65 1_555 1_555
H38 C65 1_555 1_555
H39 C65 1_555 1_555
O14 C43 1_555 1_555
O15 C44 1_555 1_555
O16 C44 1_555 1_555
O24 Tb1 1_555 1_555
O25 Tb1 1_555 1_555
O26 Tb1 1_555 1_555
C31 C32 1_555 1_555
C32 H15 1_555 1_555
C33 C32 1_555 1_555
C34 C33 1_555 1_555
H16 C34 1_555 1_555
C35 C34 1_555 1_555
C36 C31 1_555 1_555
H21 C42 1_555 1_555
C44 C33 1_555 1_555
H43 O25 1_555 1_555
H44 O25 1_555 1_555
H45 O26 1_555 1_555
H46 O26 1_555 1_555
Tb14 O15 1_555 1_555
O37 Tb1 1_555 1_555
O16 Tb14 1_555 1_555
C31 C43 1_555 1_555
C35 C36 1_555 1_555
Tb14 O20 1_555 1_555
Tb2 O3 1_555 1_555
Tb4 O19 1_555 1_555
O1 C13 1_555 1_555
O3 C14 1_555 1_555
O4 C14 1_555 1_555
O7 Tb2 1_555 1_555
O8 Tb2 1_555 1_555
O37 C29 1_555 1_555
O17 Tb2 1_555 1_555
O18 C45 1_555 1_555
O19 C58 1_555 1_555
O21 C59 1_555 1_555
O27 Tb2 1_555 1_555
O28 Tb2 1_555 1_555
O29 Tb2 1_555 1_555
O32 Tb4 1_555 1_555
O33 Tb4 1_555 1_555
O34 Tb4 1_555 1_555
C1 C2 1_555 1_555
C2 H1 1_555 1_555
C3 C2 1_555 1_555
C4 C3 1_555 1_555
H2 C4 1_555 1_555
C5 C4 1_555 1_555
C6 C1 1_555 1_555
H3 C6 1_555 1_555
C7 C5 1_555 1_555
C8 C7 1_555 1_555
C9 C8 1_555 1_555
C10 C9 1_555 1_555
C11 C10 1_555 1_555
H6 C11 1_555 1_555
C12 C7 1_555 1_555
H7 C12 1_555 1_555
C13 O2 1_555 1_555
C14 C3 1_555 1_555
C15 O6 1_555 1_555
C16 C17 1_555 1_555
C17 H8 1_555 1_555
C18 C17 1_555 1_555
C19 C18 1_555 1_555
C20 C19 1_555 1_555
C21 C16 1_555 1_555
H10 C21 1_555 1_555
C28 O7 1_555 1_555
C29 C18 1_555 1_555
C38 C37 1_555 1_555
H18 C38 1_555 1_555
C39 C38 1_555 1_555
H19 C39 1_555 1_555
C40 C39 1_555 1_555
C41 C40 1_555 1_555
H20 C41 1_555 1_555
C45 O17 1_555 1_555
C46 C47 1_555 1_555
C48 C47 1_555 1_555
C49 C48 1_555 1_555
H23 C49 1_555 1_555
C50 C49 1_555 1_555
C51 C46 1_555 1_555
H24 C51 1_555 1_555
C52 C50 1_555 1_555
C53 C52 1_555 1_555
H25 C53 1_555 1_555
C54 C53 1_555 1_555
H26 C54 1_555 1_555
C55 C54 1_555 1_555
C56 C55 1_555 1_555
H27 C56 1_555 1_555
C57 C52 1_555 1_555
H28 C57 1_555 1_555
C58 C46 1_555 1_555
C59 C48 1_555 1_555
C60 O23 1_555 1_555
N1 C61 1_555 1_555
C61 O27 1_555 1_555
H29 C61 1_555 1_555
C62 N1 1_555 1_555
H30 C62 1_555 1_555
H31 C62 1_555 1_555
H32 C62 1_555 1_555
C63 N1 1_555 1_555
H33 C63 1_555 1_555
H34 C63 1_555 1_555
H35 C63 1_555 1_555
H47 O28 1_555 1_555
H48 O28 1_555 1_555
H49 O29 1_555 1_555
H50 O29 1_555 1_555
H53 O32 1_555 1_555
H54 O32 1_555 1_555
H55 O33 1_555 1_555
H56 O33 1_555 1_555
H57 O34 1_555 1_555
H58 O34 1_555 1_555
Tb8 O4 1_555 1_555
O36 Tb2 1_555 1_555
O39 Tb4 1_555 1_555
O41 Tb4 1_555 1_555
O42 Tb4 1_555 1_555
O43 Tb4 1_555 1_555
O8 C28 1_555 1_555
C1 C13 1_555 1_555
C5 C6 1_555 1_555
C10 C15 1_555 1_555
C11 C12 1_555 1_555
C16 C28 1_555 1_555
C20 C21 1_555 1_555
C40 C45 1_555 1_555
C50 C51 1_555 1_555
C55 C60 1_555 1_555
C56 C57 1_555 1_555
Tb8 O3_2 1_555 1_555
Tb14 O19_2 1_555 1_555
O35 C13_2 1_555 1_555
O3_2 C14_2 1_555 1_555
O36 C14_2 1_555 1_555
O7_2 Tb8 1_555 1_555
O8_2 Tb8 1_555 1_555
O9 C29_2 1_555 1_555
O17_2 Tb8 1_555 1_555
O18_2 C45_2 1_555 1_555
O19_2 C58_2 1_555 1_555
O44 C59_2 1_555 1_555
O27_2 Tb8 1_555 1_555
O28_2 Tb8 1_555 1_555
O29_2 Tb8 1_555 1_555
O32_2 Tb14 1_555 1_555
O33_2 Tb14 1_555 1_555
O34_2 Tb14 1_555 1_555
C1_2 C2_2 1_555 1_555
C2_2 H1_2 1_555 1_555
C3_2 C2_2 1_555 1_555
C4_2 C3_2 1_555 1_555
H2_2 C4_2 1_555 1_555
C5_2 C4_2 1_555 1_555
C6_2 C1_2 1_555 1_555
H3_2 C6_2 1_555 1_555
C7_2 C5_2 1_555 1_555
C8_2 C7_2 1_555 1_555
C9_2 C8_2 1_555 1_555
C10_2 C9_2 1_555 1_555
C11_2 C10_2 1_555 1_555
H6_2 C11_2 1_555 1_555
C12_2 C7_2 1_555 1_555
H7_2 C12_2 1_555 1_555
C13_2 O2_2 1_555 1_555
C14_2 C3_2 1_555 1_555
C15_2 O6_2 1_555 1_555
C16_2 C17_2 1_555 1_555
C17_2 H8_2 1_555 1_555
C18_2 C17_2 1_555 1_555
C19_2 C18_2 1_555 1_555
C20_2 C19_2 1_555 1_555
C21_2 C16_2 1_555 1_555
H10_2 C21_2 1_555 1_555
C28_2 O7_2 1_555 1_555
C29_2 C18_2 1_555 1_555
C38_2 C37_2 1_555 1_555
H18_2 C38_2 1_555 1_555
C39_2 C38_2 1_555 1_555
H19_2 C39_2 1_555 1_555
C40_2 C39_2 1_555 1_555
C41_2 C40_2 1_555 1_555
H20_2 C41_2 1_555 1_555
C45_2 O17_2 1_555 1_555
C46_2 C47_2 1_555 1_555
C48_2 C47_2 1_555 1_555
C49_2 C48_2 1_555 1_555
H23_2 C49_2 1_555 1_555
C50_2 C49_2 1_555 1_555
C51_2 C46_2 1_555 1_555
H24_2 C51_2 1_555 1_555
C52_2 C50_2 1_555 1_555
C53_2 C52_2 1_555 1_555
H25_2 C53_2 1_555 1_555
C54_2 C53_2 1_555 1_555
H26_2 C54_2 1_555 1_555
C55_2 C54_2 1_555 1_555
C56_2 C55_2 1_555 1_555
H27_2 C56_2 1_555 1_555
C57_2 C52_2 1_555 1_555
H28_2 C57_2 1_555 1_555
C58_2 C46_2 1_555 1_555
C59_2 C48_2 1_555 1_555
C60_2 O23_2 1_555 1_555
N1_2 C61_2 1_555 1_555
C61_2 O27_2 1_555 1_555
H29_2 C61_2 1_555 1_555
C62_2 N1_2 1_555 1_555
H30_2 C62_2 1_555 1_555
H31_2 C62_2 1_555 1_555
H32_2 C62_2 1_555 1_555
C63_2 N1_2 1_555 1_555
H33_2 C63_2 1_555 1_555
H34_2 C63_2 1_555 1_555
H35_2 C63_2 1_555 1_555
H47_2 O28_2 1_555 1_555
H48_2 O28_2 1_555 1_555
H49_2 O29_2 1_555 1_555
H50_2 O29_2 1_555 1_555
H53_2 O32_2 1_555 1_555
H54_2 O32_2 1_555 1_555
H55_2 O33_2 1_555 1_555
H56_2 O33_2 1_555 1_555
H57_2 O34_2 1_555 1_555
H58_2 O34_2 1_555 1_555
Tb7 O9 1_555 1_555
O8_2 C28_2 1_555 1_555
C1_2 C13_2 1_555 1_555
C5_2 C6_2 1_555 1_555
C10_2 C15_2 1_555 1_555
C11_2 C12_2 1_555 1_555
C16_2 C28_2 1_555 1_555
C20_2 C21_2 1_555 1_555
C40_2 C45_2 1_555 1_555
C50_2 C51_2 1_555 1_555
C55_2 C60_2 1_555 1_555
C56_2 C57_2 1_555 1_555
O40 C43_2 1_555 1_555
O41 C44_2 1_555 1_555
O42 C44_2 1_555 1_555
O24_2 Tb7 1_555 1_555
O25_2 Tb7 1_555 1_555
O26_2 Tb7 1_555 1_555
C31_2 C32_2 1_555 1_555
C32_2 H15_2 1_555 1_555
C33_2 C32_2 1_555 1_555
C34_2 C33_2 1_555 1_555
H16_2 C34_2 1_555 1_555
C35_2 C34_2 1_555 1_555
C36_2 C31_2 1_555 1_555
H21_2 C42_2 1_555 1_555
C44_2 C33_2 1_555 1_555
H43_2 O25_2 1_555 1_555
H44_2 O25_2 1_555 1_555
H45_2 O26_2 1_555 1_555
H46_2 O26_2 1_555 1_555
C31_2 C43_2 1_555 1_555
C35_2 C36_2 1_555 1_555
H37_2 C65_2 1_555 1_555
H38_2 C65_2 1_555 1_555
H39_2 C65_2 1_555 1_555
Tb11 O5_2 1_555 1_555
O11_2 C30_2 1_555 1_555
O39 C30_2 1_555 1_555
O30_2 Tb11 1_555 1_555
O31_2 Tb11 1_555 1_555
C23_2 C22_2 1_555 1_555
C24_2 C23_2 1_555 1_555
H12_2 C24_2 1_555 1_555
C25_2 C24_2 1_555 1_555
C26_2 C25_2 1_555 1_555
H13_2 C26_2 1_555 1_555
C27_2 C22_2 1_555 1_555
H14_2 C27_2 1_555 1_555
C30_2 C25_2 1_555 1_555
N2_2 C64_2 1_555 1_555
C64_2 O30_2 1_555 1_555
C66_2 N2_2 1_555 1_555
H40_2 C66_2 1_555 1_555
H41_2 C66_2 1_555 1_555
H42_2 C66_2 1_555 1_555
H51_2 O31_2 1_555 1_555
H52_2 O31_2 1_555 1_555
C26_2 C27_2 1_555 1_555

#END
