
###############################################################################
#
# This file contains modified crystal structure data generated from the
# MOF subset of the Cambridge Structural Database (CSD) v543 
# hosted by the Cambridge Crystallographic Data Centre (CCDC).
#
# This work is licensed under the Creative Commons
# Attribution-NonCommercial-ShareAlike 4.0 International License.
# To view a copy of this license, visit
# http://creativecommons.org/licenses/by-nc-sa/4.0/
# or send a letter to
# Creative Commons, PO Box 1866, Mountain View, CA 94042, USA.
#
# CIF created using the CSD Python API on 29 September 2022
# The structure has been converted into the P1 space group
# The structure has a 3D framework
# The original CSD entry XADDOX is in the orthorhombic crystal system
# The original CSD entry XADDOX is in a Sohncke space group
# The framework has been calculated to contain at least 10.0% void space
# The void calculation uses a probe of radius 1.32A, grid spacing 0.4
#
###############################################################################

data_XADDOX
_chemical_formula_moiety         '(C160 H124 Co24 O102)n'
_symmetry_cell_setting           triclinic
_symmetry_space_group_name_H-M   'P 1'
_symmetry_Int_Tables_number      1
_space_group_name_Hall           'P 1'
loop_
_symmetry_equiv_pos_site_id
_symmetry_equiv_pos_as_xyz
1 x,y,z
_cell_length_a                   21.024(2)
_cell_length_b                   28.741(3)
_cell_length_c                   10.8969(12)
_cell_angle_alpha                90
_cell_angle_beta                 90
_cell_angle_gamma                90
_cell_volume                     6584.46
loop_
_atom_site_label
_atom_site_type_symbol
_atom_site_fract_x
_atom_site_fract_y
_atom_site_fract_z
Co1 Co 0.46503(4) 0.70370(2) 0.15189(7)
Co4 Co 0.54329(6) 0.61375(3) 0.02182(9)
Co5 Co 0.41736(5) 0.83799(3) 0.15107(9)
Co6 Co 0.60443(4) 0.66386(3) 0.29572(9)
O1 O 0.5514(2) 0.67026(13) 0.1396(4)
H1 H 0.5766 0.6922 0.0909
O3 O 0.4549(3) 0.59750(16) 0.0906(5)
O4 O 0.4229(3) 0.64776(13) 0.2326(4)
O5 O 0.4148(4) 0.43232(17) 0.1415(7)
O6 O 0.3866(3) 0.40488(16) 0.3181(6)
O7 O 0.3826(2) 0.74438(17) 0.1690(5)
O8 O 0.3386(3) 0.80805(16) 0.1021(7)
O15 O 0.5232(2) 0.76868(13) 0.1083(4)
O16 O 0.4729(3) 0.82536(16) 0.0103(5)
C1 C 0.4284(4) 0.6065(2) 0.1911(7)
C2 C 0.4017(4) 0.5678(2) 0.2635(8)
C3 C 0.3712(6) 0.5761(3) 0.3760(11)
H3 H 0.3657 0.6063 0.4043
C4 C 0.3492(8) 0.5384(3) 0.4452(12)
H4 H 0.3295 0.5434 0.5204
C5 C 0.3571(6) 0.4933(3) 0.4012(10)
H5 H 0.3410 0.4683 0.4459
C6 C 0.3878(4) 0.4852(2) 0.2938(8)
C7 C 0.4108(3) 0.5227(2) 0.2269(7)
H6 H 0.4332 0.5170 0.1548
C8 C 0.3979(4) 0.4371(2) 0.2470(7)
C9 C 0.3437(3) 0.7640(2) 0.1065(6)
C10 C 0.2966(3) 0.7374(2) 0.0269(7)
C11 C 0.2957(4) 0.6883(2) 0.0312(8)
H7 H 0.3227 0.6722 0.0837
C25 C 0.5130(3) 0.7932(2) 0.0121(6)
H20 H 0.1547 0.5435 0.0743
H21 H 0.1510 0.4674 0.0003
O25 O 0.6704(4) 0.6630(3) 0.4642(8)
H27 H 0.6587 0.6414 0.5124
H28 H 0.6681 0.6890 0.5012
Co9 Co 0.54333(4) 0.79318(2) 0.28964(7)
Co12 Co 0.45671(6) 0.38625(3) 0.02182(9)
Co15 Co 0.39557(4) 0.33614(3) 0.29572(9)
O29 O 0.4533(2) 0.82450(13) 0.3114(4)
H34 H 0.4256 0.8011 0.3492
O30 O 0.5852(4) 0.56768(17) 0.1415(7)
O31 O 0.6134(3) 0.59512(16) 0.3181(6)
O32 O 0.6803(3) 0.69267(18) 0.2178(5)
O33 O 0.4888(2) 0.72889(13) 0.3331(4)
O35 O 0.5409(3) 0.67276(15) 0.4285(4)
O39 O 0.4050(3) 0.90418(15) 0.1233(6)
Co2 Co 0.04333(4) 0.70682(2) 0.71036(7)
Co3 Co 0.45650(5) 0.88044(3) 0.43156(8)
O9 O 0.1803(3) 0.80733(18) 0.7822(5)
O10 O 0.1297(2) 0.7445(2) 0.7299(5)
O11 O 0.5073(3) 0.64963(16) 0.8751(4)
O12 O 0.4438(2) 0.70178(15) 0.9693(4)
O17 O 0.5684(2) 0.79822(16) 0.4670(4)
O18 O 0.4960(3) 0.84120(19) 0.5675(4)
O19 O 0.0748(3) 0.64636(14) 0.7829(5)
O20 O 0.0419(3) 0.59700(15) 0.6390(5)
O21 O 0.0950(3) 0.40418(15) 0.8767(6)
O22 O 0.0883(4) 0.42810(18) 0.6842(6)
C12 C 0.2547(4) 0.6653(2) 0.9571(8)
H8 H 0.2530 0.6330 0.9618
C13 C 0.2143(4) 0.6882(2) 0.8730(9)
H9 H 0.1872 0.6715 0.8221
C14 C 0.2164(3) 0.7366(2) 0.8686(7)
C15 C 0.2572(3) 0.7609(2) 0.9479(6)
H10 H 0.2575 0.7933 0.9469
C16 C 0.1725(3) 0.7635(2) 0.7880(7)
C17 C 0.4668(3) 0.6828(2) 0.8756(6)
C18 C 0.4444(3) 0.7000(2) 0.7543(6)
C19 C 0.3885(4) 0.7261(3) 0.7466(7)
H11 H 0.3654 0.7328 0.8172
C20 C 0.3680(4) 0.7419(4) 0.6355(9)
H12 H 0.3299 0.7582 0.6305
C21 C 0.4033(4) 0.7340(3) 0.5294(7)
H13 H 0.3891 0.7454 0.4543
C22 C 0.4581(3) 0.7097(2) 0.5358(5)
C23 C 0.4787(3) 0.69199(19) 0.6492(6)
H14 H 0.5160 0.6747 0.6531
C24 C 0.4988(3) 0.7035(2) 0.4248(5)
C26 C 0.5503(3) 0.7836(2) 0.8998(6)
C27 C 0.6019(4) 0.7541(3) 0.9016(6)
H15 H 0.6145 0.7403 0.9749
C28 C 0.6349(4) 0.7450(3) 0.7957(8)
H16 H 0.6711 0.7264 0.7990
C29 C 0.6157(4) 0.7626(3) 0.6859(7)
H17 H 0.6369 0.7545 0.6140
C30 C 0.5637(3) 0.7931(2) 0.6821(6)
C31 C 0.5312(3) 0.8035(2) 0.7888(6)
H18 H 0.4966 0.8237 0.7867
C32 C 0.5418(4) 0.8127(2) 0.5620(6)
C33 C 0.0685(3) 0.6062(2) 0.7385(7)
C34 C 0.0923(4) 0.5664(2) 0.8160(7)
C35 C 0.1216(6) 0.5736(2) 0.9252(10)
H19 H 0.1296 0.6039 0.9514
C36 C 0.1392(7) 0.5378(3) 0.9958(11)
C37 C 0.1348(6) 0.4919(3) 0.9542(11)
C38 C 0.1055(4) 0.4841(2) 0.8414(8)
C39 C 0.0854(3) 0.5216(2) 0.7722(7)
H22 H 0.0670 0.5166 0.6956
C40 C 0.0951(4) 0.4347(2) 0.7950(9)
O23 O 0.3646(4) 0.8598(3) 0.4996(8)
H23 H 0.3519 0.8360 0.4603
H24 H 0.3679 0.8531 0.5754
O24 O 0.4567(5) 0.9344(2) 0.5601(8)
H25 H 0.4909 0.9498 0.5515
H26 H 0.4250 0.9522 0.5477
O26 O 0.6322(4) 0.6304(3) 0.9510(9)
H29 H 0.6575 0.6079 0.9631
H30 H 0.6286 0.6353 0.8743
O27 O 0.5375(4) 0.5545(2) 0.9030(7)
H31 H 0.5394 0.5636 0.8288
H32 H 0.5683 0.5362 0.9176
Co11 Co 0.04350(5) 0.38044(3) 0.56844(8)
Co14 Co 0.08264(5) 0.33799(3) 0.84893(9)
Co16 Co 0.10443(4) 0.83614(3) 0.70428(9)
O36 O 0.0232(2) 0.73132(13) 0.8917(4)
O37 O 0.0684(2) 0.70178(16) 0.5330(4)
O38 O 0.5419(3) 0.90300(15) 0.3610(5)
O40 O 0.4117(4) 0.92810(18) 0.3158(6)
O2 O 0.9533(2) 0.67550(13) 0.6886(4)
H2 H 0.9256 0.6989 0.6508
Co10 Co 0.95650(5) 0.61956(3) 0.56844(8)
Co13 Co 0.91736(5) 0.66201(3) 0.84893(9)
O34 O 0.9888(2) 0.77111(13) 0.6669(4)
O2_2 O 0.0467(2) 0.32450(13) 0.6886(4)
H2_2 H 0.0744 0.3011 0.6508
O34_2 O 0.0112(2) 0.22889(13) 0.6669(4)
Co1_2 Co 0.53497(4) 0.29630(2) 0.15189(7)
Co5_2 Co 0.58264(5) 0.16201(3) 0.15107(9)
O1_2 O 0.4486(2) 0.32974(13) 0.1396(4)
H1_2 H 0.4234 0.3078 0.0909
O3_2 O 0.5451(3) 0.40250(16) 0.0906(5)
O4_2 O 0.5771(3) 0.35224(13) 0.2326(4)
O7_2 O 0.6174(2) 0.25562(17) 0.1690(5)
O8_2 O 0.6614(3) 0.19195(16) 0.1021(7)
O15_2 O 0.4768(2) 0.23132(13) 0.1083(4)
O16_2 O 0.5271(3) 0.17464(16) 0.0103(5)
C1_2 C 0.5716(4) 0.3935(2) 0.1911(7)
C2_2 C 0.5983(4) 0.4322(2) 0.2635(8)
C3_2 C 0.6288(6) 0.4239(3) 0.3760(11)
H3_2 H 0.6343 0.3937 0.4043
C4_2 C 0.6508(8) 0.4616(3) 0.4452(12)
H4_2 H 0.6705 0.4566 0.5204
C5_2 C 0.6429(6) 0.5067(3) 0.4012(10)
H5_2 H 0.6590 0.5317 0.4459
C6_2 C 0.6122(4) 0.5148(2) 0.2938(8)
C7_2 C 0.5892(3) 0.4773(2) 0.2269(7)
H6_2 H 0.5668 0.4830 0.1548
C8_2 C 0.6021(4) 0.5629(2) 0.2470(7)
C9_2 C 0.6563(3) 0.2360(2) 0.1065(6)
C10_2 C 0.7034(3) 0.2626(2) 0.0269(7)
C11_2 C 0.7043(4) 0.3117(2) 0.0312(8)
H7_2 H 0.6773 0.3278 0.0837
C25_2 C 0.4870(3) 0.2068(2) 0.0121(6)
H20_2 H 0.8453 0.4565 0.0743
H21_2 H 0.8490 0.5326 0.0003
O25_2 O 0.3296(4) 0.3370(3) 0.4642(8)
H27_2 H 0.3413 0.3586 0.5124
H28_2 H 0.3319 0.3110 0.5012
Co9_2 Co 0.45667(4) 0.20682(2) 0.28964(7)
O29_2 O 0.5467(2) 0.17550(13) 0.3114(4)
H34_2 H 0.5744 0.1989 0.3492
O32_2 O 0.3197(3) 0.30733(18) 0.2178(5)
O33_2 O 0.5112(2) 0.27111(13) 0.3331(4)
O35_2 O 0.4591(3) 0.32724(15) 0.4285(4)
O39_2 O 0.5950(3) 0.09582(15) 0.1233(6)
Co2_2 Co 0.95667(4) 0.29318(2) 0.71036(7)
Co3_2 Co 0.54350(5) 0.11956(3) 0.43156(8)
O9_2 O 0.8197(3) 0.19267(18) 0.7822(5)
O10_2 O 0.8703(2) 0.2555(2) 0.7299(5)
O11_2 O 0.4927(3) 0.35037(16) 0.8751(4)
O12_2 O 0.5562(2) 0.29822(15) 0.9693(4)
O17_2 O 0.4316(2) 0.20178(16) 0.4670(4)
O18_2 O 0.5040(3) 0.15880(19) 0.5675(4)
O19_2 O 0.9252(3) 0.35364(14) 0.7829(5)
O20_2 O 0.9581(3) 0.40300(15) 0.6390(5)
O21_2 O 0.9050(3) 0.59582(15) 0.8767(6)
O22_2 O 0.9117(4) 0.57190(18) 0.6842(6)
C12_2 C 0.7453(4) 0.3347(2) 0.9571(8)
H8_2 H 0.7470 0.3670 0.9618
C13_2 C 0.7857(4) 0.3118(2) 0.8730(9)
H9_2 H 0.8128 0.3285 0.8221
C14_2 C 0.7836(3) 0.2634(2) 0.8686(7)
C15_2 C 0.7428(3) 0.2391(2) 0.9479(6)
H10_2 H 0.7425 0.2067 0.9469
C16_2 C 0.8275(3) 0.2365(2) 0.7880(7)
C17_2 C 0.5332(3) 0.3172(2) 0.8756(6)
C18_2 C 0.5556(3) 0.3000(2) 0.7543(6)
C19_2 C 0.6115(4) 0.2739(3) 0.7466(7)
H11_2 H 0.6346 0.2672 0.8172
C20_2 C 0.6320(4) 0.2581(4) 0.6355(9)
H12_2 H 0.6701 0.2418 0.6305
C21_2 C 0.5967(4) 0.2660(3) 0.5294(7)
H13_2 H 0.6109 0.2546 0.4543
C22_2 C 0.5419(3) 0.2903(2) 0.5358(5)
C23_2 C 0.5213(3) 0.30801(19) 0.6492(6)
H14_2 H 0.4840 0.3253 0.6531
C24_2 C 0.5012(3) 0.2965(2) 0.4248(5)
C26_2 C 0.4497(3) 0.2164(2) 0.8998(6)
C27_2 C 0.3981(4) 0.2459(3) 0.9016(6)
H15_2 H 0.3855 0.2597 0.9749
C28_2 C 0.3651(4) 0.2550(3) 0.7957(8)
H16_2 H 0.3289 0.2736 0.7990
C29_2 C 0.3843(4) 0.2374(3) 0.6859(7)
H17_2 H 0.3631 0.2455 0.6140
C30_2 C 0.4363(3) 0.2069(2) 0.6821(6)
C31_2 C 0.4688(3) 0.1965(2) 0.7888(6)
H18_2 H 0.5034 0.1763 0.7867
C32_2 C 0.4582(4) 0.1873(2) 0.5620(6)
C33_2 C 0.9315(3) 0.3938(2) 0.7385(7)
C34_2 C 0.9077(4) 0.4336(2) 0.8160(7)
C35_2 C 0.8784(6) 0.4264(2) 0.9252(10)
H19_2 H 0.8704 0.3961 0.9514
C36_2 C 0.8608(7) 0.4622(3) 0.9958(11)
C37_2 C 0.8652(6) 0.5081(3) 0.9542(11)
C38_2 C 0.8945(4) 0.5159(2) 0.8414(8)
C39_2 C 0.9146(3) 0.4784(2) 0.7722(7)
H22_2 H 0.9330 0.4834 0.6956
C40_2 C 0.9049(4) 0.5653(2) 0.7950(9)
O23_2 O 0.6354(4) 0.1402(3) 0.4996(8)
H23_2 H 0.6481 0.1640 0.4603
H24_2 H 0.6321 0.1469 0.5754
O24_2 O 0.5433(5) 0.0656(2) 0.5601(8)
H25_2 H 0.5091 0.0502 0.5515
H26_2 H 0.5750 0.0478 0.5477
O26_2 O 0.3678(4) 0.3696(3) 0.9510(9)
H29_2 H 0.3425 0.3921 0.9631
H30_2 H 0.3714 0.3647 0.8743
O27_2 O 0.4625(4) 0.4455(2) 0.9030(7)
H31_2 H 0.4606 0.4364 0.8288
H32_2 H 0.4317 0.4638 0.9176
Co16_2 Co 0.89557(4) 0.16386(3) 0.70428(9)
O36_2 O 0.9768(2) 0.26868(13) 0.8917(4)
O37_2 O 0.9316(2) 0.29822(16) 0.5330(4)
O38_2 O 0.4581(3) 0.09700(15) 0.3610(5)
O40_2 O 0.5883(4) 0.07190(18) 0.3158(6)
O10_3 O 0.3703(2) 0.2445(2) 0.2701(5)
O12_3 O 0.0562(2) 0.20178(15) 0.0307(4)
O18_3 O 0.0040(3) 0.34120(19) 0.4325(4)
O19_3 O 0.4252(3) 0.14636(14) 0.2171(5)
C12_3 C 0.2453(4) 0.1653(2) 0.0429(8)
H8_3 H 0.2470 0.1330 0.0382
C13_3 C 0.2857(4) 0.1882(2) 0.1270(9)
H9_3 H 0.3128 0.1715 0.1779
C14_3 C 0.2836(3) 0.2366(2) 0.1314(7)
C15_3 C 0.2428(3) 0.2609(2) 0.0521(6)
H10_3 H 0.2425 0.2933 0.0531
C16_3 C 0.3275(3) 0.2635(2) 0.2120(7)
C17_3 C 0.0332(3) 0.1828(2) 0.1244(6)
C18_3 C 0.0556(3) 0.2000(2) 0.2457(6)
C19_3 C 0.1115(4) 0.2261(3) 0.2534(7)
H11_3 H 0.1346 0.2328 0.1828
C20_3 C 0.1320(4) 0.2419(4) 0.3645(9)
H12_3 H 0.1701 0.2582 0.3695
C21_3 C 0.0967(4) 0.2340(3) 0.4706(7)
H13_3 H 0.1109 0.2454 0.5457
C22_3 C 0.0419(3) 0.2097(2) 0.4642(5)
C23_3 C 0.0213(3) 0.19199(19) 0.3508(6)
C24_3 C 0.0012(3) 0.2035(2) 0.5752(5)
H18_3 H 0.0034 0.3237 0.2133
C33_3 C 0.4315(3) 0.1062(2) 0.2615(7)
C34_3 C 0.4077(4) 0.0664(2) 0.1840(7)
C35_3 C 0.3784(6) 0.0736(2) 0.0748(10)
H19_3 H 0.3704 0.1039 0.0486
C36_3 C 0.3608(7) 0.0378(3) 0.0042(11)
C39_3 C 0.4146(3) 0.0216(2) 0.2278(7)
H22_3 H 0.4330 0.0166 0.3044
O23_3 O 0.1354(4) 0.3598(3) 0.5004(8)
H23_3 H 0.1481 0.3360 0.5397
H24_3 H 0.1321 0.3531 0.4246
O24_3 O 0.0433(5) 0.4344(2) 0.4399(8)
H25_3 H 0.0091 0.4498 0.4485
H26_3 H 0.0750 0.4522 0.4523
Co7 Co 0.03497(4) 0.20370(2) 0.84811(7)
O3_3 O 0.0451(3) 0.09750(16) 0.9094(5)
O4_3 O 0.0771(3) 0.14776(13) 0.7674(4)
O7_3 O 0.1174(2) 0.24438(17) 0.8310(5)
O8_3 O 0.1614(3) 0.30805(16) 0.8979(7)
O16_3 O 0.0271(3) 0.32536(16) 0.9897(5)
C1_3 C 0.0716(4) 0.1065(2) 0.8089(7)
C2_3 C 0.0983(4) 0.0678(2) 0.7365(8)
C3_3 C 0.1288(6) 0.0761(3) 0.6240(11)
H3_3 H 0.1343 0.1063 0.5957
C4_3 C 0.1508(8) 0.0384(3) 0.5548(12)
H4_3 H 0.1705 0.0434 0.4796
C7_3 C 0.0892(3) 0.0227(2) 0.7731(7)
H6_3 H 0.0668 0.0170 0.8452
C9_3 C 0.1563(3) 0.2640(2) 0.8935(6)
C10_3 C 0.2034(3) 0.2374(2) 0.9731(7)
C11_3 C 0.2043(4) 0.1883(2) 0.9688(8)
H7_3 H 0.1773 0.1722 0.9163
H20_3 H 0.3453 0.0435 0.9257
C37_3 C 0.3652(6) 0.9919(3) 0.0458(11)
C38_3 C 0.3945(4) 0.9841(2) 0.1586(8)
C40_3 C 0.4049(4) 0.9347(2) 0.2050(9)
O5_2 O 0.0852(4) 0.93232(17) 0.8585(7)
O6_2 O 0.1134(3) 0.90488(16) 0.6819(6)
C5_3 C 0.1429(6) 0.9933(3) 0.5988(10)
H5_3 H 0.1590 0.9683 0.5541
C6_3 C 0.1122(4) 0.9852(2) 0.7062(8)
C8_3 C 0.1021(4) 0.9371(2) 0.7530(7)
H21_3 H 0.3490 0.9674 0.9997
Co12_2 Co 0.04329(6) 0.88625(3) 0.97818(9)
O11_3 O 0.9927(3) 0.14963(16) 0.1249(4)
O14 O 0.9591(3) 0.17276(15) 0.5715(4)
H14_3 H 0.9840 0.1747 0.3469
C26_3 C 0.9497(3) 0.2836(2) 0.1002(6)
C27_3 C 0.8981(4) 0.2541(3) 0.0984(6)
H15_3 H 0.8855 0.2403 0.0251
C28_3 C 0.8651(4) 0.2450(3) 0.2043(8)
H16_3 H 0.8289 0.2264 0.2010
C29_3 C 0.8843(4) 0.2626(3) 0.3141(7)
H17_3 H 0.8631 0.2545 0.3860
C30_3 C 0.9363(3) 0.2931(2) 0.3179(6)
C31_3 C 0.9688(3) 0.3035(2) 0.2112(6)
C32_3 C 0.9582(4) 0.3127(2) 0.4380(6)
O26_3 O 0.8678(4) 0.1304(3) 0.0490(9)
H29_3 H 0.8425 0.1079 0.0369
H30_3 H 0.8714 0.1353 0.1257
O27_3 O 0.9625(4) 0.0545(2) 0.0970(7)
H31_3 H 0.9606 0.0636 0.1712
H32_3 H 0.9317 0.0362 0.0824
Co4_2 Co 0.95671(6) 0.11375(3) 0.97818(9)
O1_3 O 0.9486(2) 0.17026(13) 0.8604(4)
H1_3 H 0.9234 0.1922 0.9091
C25_3 C 0.9870(3) 0.2932(2) 0.9879(6)
O25_3 O 0.8296(4) 0.1630(3) 0.5358(8)
H27_3 H 0.8413 0.1414 0.4876
H28_3 H 0.8319 0.1890 0.4988
O30_2 O 0.9148(4) 0.06768(17) 0.8585(7)
O31_2 O 0.8866(3) 0.09512(16) 0.6819(6)
O11_4 O 0.0073(3) 0.85037(16) 0.1249(4)
O14_2 O 0.0409(3) 0.82724(15) 0.5715(4)
H14_4 H 0.0160 0.8253 0.3469
C26_4 C 0.0503(3) 0.7164(2) 0.1002(6)
C27_4 C 0.1019(4) 0.7459(3) 0.0984(6)
H15_4 H 0.1145 0.7597 0.0251
C28_4 C 0.1349(4) 0.7550(3) 0.2043(8)
H16_4 H 0.1711 0.7736 0.2010
C29_4 C 0.1157(4) 0.7374(3) 0.3141(7)
H17_4 H 0.1369 0.7455 0.3860
C30_4 C 0.0637(3) 0.7069(2) 0.3179(6)
C31_4 C 0.0312(3) 0.6965(2) 0.2112(6)
C32_4 C 0.0418(4) 0.6873(2) 0.4380(6)
O26_4 O 0.1322(4) 0.8696(3) 0.0490(9)
H29_4 H 0.1575 0.8921 0.0369
H30_4 H 0.1286 0.8647 0.1257
O27_4 O 0.0375(4) 0.9455(2) 0.0970(7)
H31_4 H 0.0394 0.9364 0.1712
H32_4 H 0.0683 0.9638 0.0824
O1_4 O 0.0514(2) 0.82974(13) 0.8604(4)
H1_4 H 0.0766 0.8078 0.9091
C25_4 C 0.0130(3) 0.7068(2) 0.9879(6)
O25_4 O 0.1704(4) 0.8370(3) 0.5358(8)
H27_4 H 0.1587 0.8586 0.4876
H28_4 H 0.1681 0.8110 0.4988
C37_4 C 0.6348(6) 0.0081(3) 0.0458(11)
C38_4 C 0.6055(4) 0.0159(2) 0.1586(8)
C40_4 C 0.5951(4) 0.0653(2) 0.2050(9)
C5_4 C 0.8571(6) 0.0067(3) 0.5988(10)
H5_4 H 0.8410 0.0317 0.5541
C6_4 C 0.8878(4) 0.0148(2) 0.7062(8)
C8_4 C 0.8979(4) 0.0629(2) 0.7530(7)
H21_4 H 0.6510 0.0326 0.9997
O10_4 O 0.6297(2) 0.7555(2) 0.2701(5)
O12_4 O 0.9438(2) 0.79822(15) 0.0307(4)
O18_4 O 0.9960(3) 0.65880(19) 0.4325(4)
O19_4 O 0.5748(3) 0.85364(14) 0.2171(5)
C12_4 C 0.7547(4) 0.8347(2) 0.0429(8)
H8_4 H 0.7530 0.8670 0.0382
C13_4 C 0.7143(4) 0.8118(2) 0.1270(9)
H9_4 H 0.6872 0.8285 0.1779
C14_4 C 0.7164(3) 0.7634(2) 0.1314(7)
C15_4 C 0.7572(3) 0.7391(2) 0.0521(6)
H10_4 H 0.7575 0.7067 0.0531
C16_4 C 0.6725(3) 0.7365(2) 0.2120(7)
C17_4 C 0.9668(3) 0.8172(2) 0.1244(6)
C18_4 C 0.9444(3) 0.8000(2) 0.2457(6)
C19_4 C 0.8885(4) 0.7739(3) 0.2534(7)
H11_4 H 0.8654 0.7672 0.1828
C20_4 C 0.8680(4) 0.7581(4) 0.3645(9)
H12_4 H 0.8299 0.7418 0.3695
C21_4 C 0.9033(4) 0.7660(3) 0.4706(7)
H13_4 H 0.8891 0.7546 0.5457
C22_4 C 0.9581(3) 0.7903(2) 0.4642(5)
C23_4 C 0.9787(3) 0.80801(19) 0.3508(6)
C24_4 C 0.9988(3) 0.7965(2) 0.5752(5)
H18_4 H 0.9966 0.6763 0.2133
C33_4 C 0.5685(3) 0.8938(2) 0.2615(7)
C34_4 C 0.5923(4) 0.9336(2) 0.1840(7)
C35_4 C 0.6216(6) 0.9264(2) 0.0748(10)
H19_4 H 0.6296 0.8961 0.0486
C36_4 C 0.6392(7) 0.9622(3) 0.0042(11)
C39_4 C 0.5854(3) 0.9784(2) 0.2278(7)
H22_4 H 0.5670 0.9834 0.3044
O23_4 O 0.8646(4) 0.6402(3) 0.5004(8)
H23_4 H 0.8519 0.6640 0.5397
H24_4 H 0.8679 0.6469 0.4246
O24_4 O 0.9567(5) 0.5656(2) 0.4399(8)
H25_4 H 0.9909 0.5502 0.4485
H26_4 H 0.9250 0.5478 0.4523
Co7_2 Co 0.96503(4) 0.79630(2) 0.84811(7)
O3_4 O 0.9549(3) 0.90250(16) 0.9094(5)
O4_4 O 0.9229(3) 0.85224(13) 0.7674(4)
O7_4 O 0.8826(2) 0.75562(17) 0.8310(5)
O8_4 O 0.8386(3) 0.69195(16) 0.8979(7)
O16_4 O 0.9729(3) 0.67464(16) 0.9897(5)
C1_4 C 0.9284(4) 0.8935(2) 0.8089(7)
C2_4 C 0.9017(4) 0.9322(2) 0.7365(8)
C3_4 C 0.8712(6) 0.9239(3) 0.6240(11)
H3_4 H 0.8657 0.8937 0.5957
C4_4 C 0.8492(8) 0.9616(3) 0.5548(12)
H4_4 H 0.8295 0.9566 0.4796
C7_4 C 0.9108(3) 0.9773(2) 0.7731(7)
H6_4 H 0.9332 0.9830 0.8452
C9_4 C 0.8437(3) 0.7360(2) 0.8935(6)
C10_4 C 0.7966(3) 0.7626(2) 0.9731(7)
C11_4 C 0.7957(4) 0.8117(2) 0.9688(8)
H7_4 H 0.8227 0.8278 0.9163
H20_4 H 0.6547 0.9565 0.9257
loop_
_geom_bond_atom_site_label_1
_geom_bond_atom_site_label_2
_geom_bond_site_symmetry_1
_geom_bond_site_symmetry_2
Co1 O1 1_555 1_555
Co4 O1 1_555 1_555
Co5 O8 1_555 1_555
Co6 O1 1_555 1_555
O1 H1 1_555 1_555
O3 Co4 1_555 1_555
O4 Co1 1_555 1_555
O5 C8 1_555 1_555
O6 C8 1_555 1_555
O7 Co1 1_555 1_555
O8 C9 1_555 1_555
O15 Co1 1_555 1_555
O16 Co5 1_555 1_555
C1 O3 1_555 1_555
C2 C1 1_555 1_555
C3 C2 1_555 1_555
H3 C3 1_555 1_555
C4 C3 1_555 1_555
H4 C4 1_555 1_555
C5 C4 1_555 1_555
H5 C5 1_555 1_555
C6 C5 1_555 1_555
C7 C2 1_555 1_555
H6 C7 1_555 1_555
C8 C6 1_555 1_555
C9 O7 1_555 1_555
C10 C9 1_555 1_555
C11 C10 1_555 1_555
H7 C11 1_555 1_555
C25 O15 1_555 1_555
O25 Co6 1_555 1_555
H27 O25 1_555 1_555
H28 O25 1_555 1_555
Co9 O15 1_555 1_555
Co12 O5 1_555 1_555
Co15 O6 1_555 1_555
O29 Co5 1_555 1_555
H34 O29 1_555 1_555
O30 Co4 1_555 1_555
O31 Co6 1_555 1_555
O32 Co6 1_555 1_555
O33 Co1 1_555 1_555
O35 Co6 1_555 1_555
O39 Co5 1_555 1_555
O4 C1 1_555 1_555
O16 C25 1_555 1_555
C6 C7 1_555 1_555
Co9 O29 1_555 1_555
Co9 O33 1_555 1_555
Co3 O18 1_555 1_555
O9 C16 1_555 1_555
O10 Co2 1_555 1_555
O33 C24 1_555 1_555
O35 C24 1_555 1_555
O17 C32 1_555 1_555
O18 C32 1_555 1_555
O19 Co2 1_555 1_555
O20 C33 1_555 1_555
O21 C40 1_555 1_555
O22 C40 1_555 1_555
H8 C12 1_555 1_555
C13 C12 1_555 1_555
H9 C13 1_555 1_555
C14 C13 1_555 1_555
H10 C15 1_555 1_555
C16 O10 1_555 1_555
C17 O11 1_555 1_555
C18 C17 1_555 1_555
C19 C18 1_555 1_555
H11 C19 1_555 1_555
C20 C19 1_555 1_555
H12 C20 1_555 1_555
C21 C20 1_555 1_555
H13 C21 1_555 1_555
C22 C21 1_555 1_555
C23 C18 1_555 1_555
H14 C23 1_555 1_555
C24 C22 1_555 1_555
C27 C26 1_555 1_555
H15 C27 1_555 1_555
C28 C27 1_555 1_555
H16 C28 1_555 1_555
C29 C28 1_555 1_555
H17 C29 1_555 1_555
C30 C29 1_555 1_555
C31 C26 1_555 1_555
H18 C31 1_555 1_555
C32 C30 1_555 1_555
C33 O19 1_555 1_555
C34 C33 1_555 1_555
C35 C34 1_555 1_555
H19 C35 1_555 1_555
C36 C35 1_555 1_555
C37 C36 1_555 1_555
C38 C37 1_555 1_555
C39 C34 1_555 1_555
H22 C39 1_555 1_555
C40 C38 1_555 1_555
O23 Co3 1_555 1_555
H23 O23 1_555 1_555
H24 O23 1_555 1_555
O24 Co3 1_555 1_555
H25 O24 1_555 1_555
H26 O24 1_555 1_555
H29 O26 1_555 1_555
H30 O26 1_555 1_555
H31 O27 1_555 1_555
H32 O27 1_555 1_555
Co11 O22 1_555 1_555
Co14 O21 1_555 1_555
Co16 O9 1_555 1_555
O29 Co3 1_555 1_555
O36 Co2 1_555 1_555
O37 Co2 1_555 1_555
O38 Co3 1_555 1_555
O40 Co3 1_555 1_555
O12 C17 1_555 1_555
O17 Co9 1_555 1_555
C14 C15 1_555 1_555
C14 C16 1_555 1_555
C22 C23 1_555 1_555
C30 C31 1_555 1_555
C38 C39 1_555 1_555
O2 H2 1_555 1_555
Co10 O2 1_555 1_555
Co13 O2 1_555 1_555
O2_2 H2_2 1_555 1_555
Co11 O2_2 1_555 1_555
Co14 O2_2 1_555 1_555
Co1_2 O1_2 1_555 1_555
Co12 O1_2 1_555 1_555
Co5_2 O8_2 1_555 1_555
Co15 O1_2 1_555 1_555
O1_2 H1_2 1_555 1_555
O3_2 Co12 1_555 1_555
O4_2 Co1_2 1_555 1_555
O30 C8_2 1_555 1_555
O31 C8_2 1_555 1_555
O7_2 Co1_2 1_555 1_555
O8_2 C9_2 1_555 1_555
O15_2 Co1_2 1_555 1_555
O16_2 Co5_2 1_555 1_555
C1_2 O3_2 1_555 1_555
C2_2 C1_2 1_555 1_555
C3_2 C2_2 1_555 1_555
H3_2 C3_2 1_555 1_555
C4_2 C3_2 1_555 1_555
H4_2 C4_2 1_555 1_555
C5_2 C4_2 1_555 1_555
H5_2 C5_2 1_555 1_555
C6_2 C5_2 1_555 1_555
C7_2 C2_2 1_555 1_555
H6_2 C7_2 1_555 1_555
C8_2 C6_2 1_555 1_555
C9_2 O7_2 1_555 1_555
C10_2 C9_2 1_555 1_555
C11_2 C10_2 1_555 1_555
H7_2 C11_2 1_555 1_555
C25_2 O15_2 1_555 1_555
O25_2 Co15 1_555 1_555
H27_2 O25_2 1_555 1_555
H28_2 O25_2 1_555 1_555
Co9_2 O15_2 1_555 1_555
O29_2 Co5_2 1_555 1_555
H34_2 O29_2 1_555 1_555
O32_2 Co15 1_555 1_555
O33_2 Co1_2 1_555 1_555
O35_2 Co15 1_555 1_555
O39_2 Co5_2 1_555 1_555
O4_2 C1_2 1_555 1_555
O16_2 C25_2 1_555 1_555
C6_2 C7_2 1_555 1_555
Co9_2 O29_2 1_555 1_555
Co9_2 O33_2 1_555 1_555
Co3_2 O18_2 1_555 1_555
O9_2 C16_2 1_555 1_555
O10_2 Co2_2 1_555 1_555
O33_2 C24_2 1_555 1_555
O35_2 C24_2 1_555 1_555
O17_2 C32_2 1_555 1_555
O18_2 C32_2 1_555 1_555
O19_2 Co2_2 1_555 1_555
O20_2 C33_2 1_555 1_555
O21_2 C40_2 1_555 1_555
O22_2 C40_2 1_555 1_555
H8_2 C12_2 1_555 1_555
C13_2 C12_2 1_555 1_555
H9_2 C13_2 1_555 1_555
C14_2 C13_2 1_555 1_555
H10_2 C15_2 1_555 1_555
C16_2 O10_2 1_555 1_555
C17_2 O11_2 1_555 1_555
C18_2 C17_2 1_555 1_555
C19_2 C18_2 1_555 1_555
H11_2 C19_2 1_555 1_555
C20_2 C19_2 1_555 1_555
H12_2 C20_2 1_555 1_555
C21_2 C20_2 1_555 1_555
H13_2 C21_2 1_555 1_555
C22_2 C21_2 1_555 1_555
C23_2 C18_2 1_555 1_555
H14_2 C23_2 1_555 1_555
C24_2 C22_2 1_555 1_555
C27_2 C26_2 1_555 1_555
H15_2 C27_2 1_555 1_555
C28_2 C27_2 1_555 1_555
H16_2 C28_2 1_555 1_555
C29_2 C28_2 1_555 1_555
H17_2 C29_2 1_555 1_555
C30_2 C29_2 1_555 1_555
C31_2 C26_2 1_555 1_555
H18_2 C31_2 1_555 1_555
C32_2 C30_2 1_555 1_555
C33_2 O19_2 1_555 1_555
C34_2 C33_2 1_555 1_555
C35_2 C34_2 1_555 1_555
H19_2 C35_2 1_555 1_555
C36_2 C35_2 1_555 1_555
C37_2 C36_2 1_555 1_555
C38_2 C37_2 1_555 1_555
C39_2 C34_2 1_555 1_555
H22_2 C39_2 1_555 1_555
C40_2 C38_2 1_555 1_555
O23_2 Co3_2 1_555 1_555
H23_2 O23_2 1_555 1_555
H24_2 O23_2 1_555 1_555
O24_2 Co3_2 1_555 1_555
H25_2 O24_2 1_555 1_555
H26_2 O24_2 1_555 1_555
H29_2 O26_2 1_555 1_555
H30_2 O26_2 1_555 1_555
H31_2 O27_2 1_555 1_555
H32_2 O27_2 1_555 1_555
Co10 O22_2 1_555 1_555
Co13 O21_2 1_555 1_555
Co16_2 O9_2 1_555 1_555
O29_2 Co3_2 1_555 1_555
O36_2 Co2_2 1_555 1_555
O37_2 Co2_2 1_555 1_555
O38_2 Co3_2 1_555 1_555
O40_2 Co3_2 1_555 1_555
O12_2 C17_2 1_555 1_555
O17_2 Co9_2 1_555 1_555
C14_2 C15_2 1_555 1_555
C14_2 C16_2 1_555 1_555
C22_2 C23_2 1_555 1_555
C30_2 C31_2 1_555 1_555
C38_2 C39_2 1_555 1_555
Co11 O18_3 1_555 1_555
O32_2 C16_3 1_555 1_555
O10_3 Co9_2 1_555 1_555
O34_2 C24_3 1_555 1_555
O19_3 Co9_2 1_555 1_555
O38_2 C33_3 1_555 1_555
H8_3 C12_3 1_555 1_555
C13_3 C12_3 1_555 1_555
H9_3 C13_3 1_555 1_555
C14_3 C13_3 1_555 1_555
H10_3 C15_3 1_555 1_555
C16_3 O10_3 1_555 1_555
C18_3 C17_3 1_555 1_555
C19_3 C18_3 1_555 1_555
H11_3 C19_3 1_555 1_555
C20_3 C19_3 1_555 1_555
H12_3 C20_3 1_555 1_555
C21_3 C20_3 1_555 1_555
H13_3 C21_3 1_555 1_555
C22_3 C21_3 1_555 1_555
C23_3 C18_3 1_555 1_555
C24_3 C22_3 1_555 1_555
C33_3 O19_3 1_555 1_555
C34_3 C33_3 1_555 1_555
C35_3 C34_3 1_555 1_555
H19_3 C35_3 1_555 1_555
C36_3 C35_3 1_555 1_555
C39_3 C34_3 1_555 1_555
H22_3 C39_3 1_555 1_555
O23_3 Co11 1_555 1_555
H23_3 O23_3 1_555 1_555
H24_3 O23_3 1_555 1_555
O24_3 Co11 1_555 1_555
H25_3 O24_3 1_555 1_555
H26_3 O24_3 1_555 1_555
Co7 O34_2 1_555 1_555
O12_3 C17_3 1_555 1_555
C14_3 C15_3 1_555 1_555
C14_3 C16_3 1_555 1_555
C22_3 C23_3 1_555 1_555
Co14 O8_3 1_555 1_555
O4_3 Co7 1_555 1_555
O7_3 Co7 1_555 1_555
O8_3 C9_3 1_555 1_555
O16_3 Co14 1_555 1_555
C1_3 O3_3 1_555 1_555
C2_3 C1_3 1_555 1_555
C3_3 C2_3 1_555 1_555
H3_3 C3_3 1_555 1_555
C4_3 C3_3 1_555 1_555
H4_3 C4_3 1_555 1_555
C7_3 C2_3 1_555 1_555
H6_3 C7_3 1_555 1_555
C9_3 O7_3 1_555 1_555
C10_3 C9_3 1_555 1_555
C11_3 C10_3 1_555 1_555
H7_3 C11_3 1_555 1_555
O4_3 C1_3 1_555 1_555
O39 C40_3 1_555 1_555
O40 C40_3 1_555 1_555
C38_3 C37_3 1_555 1_555
C40_3 C38_3 1_555 1_555
O5_2 C8_3 1_555 1_555
O6_2 C8_3 1_555 1_555
H5_3 C5_3 1_555 1_555
C6_3 C5_3 1_555 1_555
C8_3 C6_3 1_555 1_555
Co12_2 O5_2 1_555 1_555
Co16 O6_2 1_555 1_555
O37_2 C32_3 1_555 1_555
C27_3 C26_3 1_555 1_555
H15_3 C27_3 1_555 1_555
C28_3 C27_3 1_555 1_555
H16_3 C28_3 1_555 1_555
C29_3 C28_3 1_555 1_555
H17_3 C29_3 1_555 1_555
C30_3 C29_3 1_555 1_555
C31_3 C26_3 1_555 1_555
C32_3 C30_3 1_555 1_555
H29_3 O26_3 1_555 1_555
H30_3 O26_3 1_555 1_555
H31_3 O27_3 1_555 1_555
H32_3 O27_3 1_555 1_555
Co16_2 O14 1_555 1_555
C30_3 C31_3 1_555 1_555
Co4_2 O1_3 1_555 1_555
Co16_2 O1_3 1_555 1_555
O1_3 H1_3 1_555 1_555
C25_3 O36_2 1_555 1_555
O25_3 Co16_2 1_555 1_555
H27_3 O25_3 1_555 1_555
H28_3 O25_3 1_555 1_555
O30_2 Co4_2 1_555 1_555
O31_2 Co16_2 1_555 1_555
O37 C32_4 1_555 1_555
C27_4 C26_4 1_555 1_555
H15_4 C27_4 1_555 1_555
C28_4 C27_4 1_555 1_555
H16_4 C28_4 1_555 1_555
C29_4 C28_4 1_555 1_555
H17_4 C29_4 1_555 1_555
C30_4 C29_4 1_555 1_555
C31_4 C26_4 1_555 1_555
C32_4 C30_4 1_555 1_555
H29_4 O26_4 1_555 1_555
H30_4 O26_4 1_555 1_555
H31_4 O27_4 1_555 1_555
H32_4 O27_4 1_555 1_555
Co16 O14_2 1_555 1_555
C30_4 C31_4 1_555 1_555
Co12_2 O1_4 1_555 1_555
Co16 O1_4 1_555 1_555
O1_4 H1_4 1_555 1_555
C25_4 O36 1_555 1_555
O25_4 Co16 1_555 1_555
H27_4 O25_4 1_555 1_555
H28_4 O25_4 1_555 1_555
O39_2 C40_4 1_555 1_555
O40_2 C40_4 1_555 1_555
C38_4 C37_4 1_555 1_555
C40_4 C38_4 1_555 1_555
O30_2 C8_4 1_555 1_555
O31_2 C8_4 1_555 1_555
H5_4 C5_4 1_555 1_555
C6_4 C5_4 1_555 1_555
C8_4 C6_4 1_555 1_555
Co10 O18_4 1_555 1_555
O32 C16_4 1_555 1_555
O10_4 Co9 1_555 1_555
O34 C24_4 1_555 1_555
O19_4 Co9 1_555 1_555
O38 C33_4 1_555 1_555
H8_4 C12_4 1_555 1_555
C13_4 C12_4 1_555 1_555
H9_4 C13_4 1_555 1_555
C14_4 C13_4 1_555 1_555
H10_4 C15_4 1_555 1_555
C16_4 O10_4 1_555 1_555
C18_4 C17_4 1_555 1_555
C19_4 C18_4 1_555 1_555
H11_4 C19_4 1_555 1_555
C20_4 C19_4 1_555 1_555
H12_4 C20_4 1_555 1_555
C21_4 C20_4 1_555 1_555
H13_4 C21_4 1_555 1_555
C22_4 C21_4 1_555 1_555
C23_4 C18_4 1_555 1_555
C24_4 C22_4 1_555 1_555
C33_4 O19_4 1_555 1_555
C34_4 C33_4 1_555 1_555
C35_4 C34_4 1_555 1_555
H19_4 C35_4 1_555 1_555
C36_4 C35_4 1_555 1_555
C39_4 C34_4 1_555 1_555
H22_4 C39_4 1_555 1_555
O23_4 Co10 1_555 1_555
H23_4 O23_4 1_555 1_555
H24_4 O23_4 1_555 1_555
O24_4 Co10 1_555 1_555
H25_4 O24_4 1_555 1_555
H26_4 O24_4 1_555 1_555
Co7_2 O34 1_555 1_555
O12_4 C17_4 1_555 1_555
C14_4 C15_4 1_555 1_555
C14_4 C16_4 1_555 1_555
C22_4 C23_4 1_555 1_555
Co13 O8_4 1_555 1_555
O4_4 Co7_2 1_555 1_555
O7_4 Co7_2 1_555 1_555
O8_4 C9_4 1_555 1_555
O16_4 Co13 1_555 1_555
C1_4 O3_4 1_555 1_555
C2_4 C1_4 1_555 1_555
C3_4 C2_4 1_555 1_555
H3_4 C3_4 1_555 1_555
C4_4 C3_4 1_555 1_555
H4_4 C4_4 1_555 1_555
C7_4 C2_4 1_555 1_555
H6_4 C7_4 1_555 1_555
C9_4 O7_4 1_555 1_555
C10_4 C9_4 1_555 1_555
C11_4 C10_4 1_555 1_555
H7_4 C11_4 1_555 1_555
O4_4 C1_4 1_555 1_555

#END
