
###############################################################################
#
# This file contains modified crystal structure data generated from the
# MOF subset of the Cambridge Structural Database (CSD) v543 
# hosted by the Cambridge Crystallographic Data Centre (CCDC).
#
# This work is licensed under the Creative Commons
# Attribution-NonCommercial-ShareAlike 4.0 International License.
# To view a copy of this license, visit
# http://creativecommons.org/licenses/by-nc-sa/4.0/
# or send a letter to
# Creative Commons, PO Box 1866, Mountain View, CA 94042, USA.
#
# CIF created using the CSD Python API on 29 September 2022
# The structure has been converted into the P1 space group
# The structure has a 3D framework
# The original CSD entry XADDAJ is in the triclinic crystal system
# The framework has been calculated to contain at least 10.0% void space
# The void calculation uses a probe of radius 1.32A, grid spacing 0.4
# H atom positions have been added when not included in the experimental data
# Generated hydrogen atom positions removed from atoms on special positions
#
###############################################################################

data_XADDAJ
_chemical_formula_moiety         '(C132 H132 N4 O59 Tb8)n'
_symmetry_cell_setting           triclinic
_symmetry_space_group_name_H-M   'P 1'
_symmetry_Int_Tables_number      1
_space_group_name_Hall           'P 1'
loop_
_symmetry_equiv_pos_site_id
_symmetry_equiv_pos_as_xyz
1 x,y,z
_cell_length_a                   12.6804(17)
_cell_length_b                   13.8440(19)
_cell_length_c                   27.865(4)
_cell_angle_alpha                104.246(4)
_cell_angle_beta                 97.317(6)
_cell_angle_gamma                94.456(4)
_cell_volume                     4672.25
loop_
_atom_site_label
_atom_site_type_symbol
_atom_site_fract_x
_atom_site_fract_y
_atom_site_fract_z
_atom_site_U_iso_or_equiv
_atom_site_thermal_displace_type
C3 C 0.0392(4) 0.1448(4) 0.35201(19) 0.0171 Uani
C8 C 0.2076(4) 0.2035(4) 0.40530(18) 0.0162 Uani
H6 H 0.2538 0.2057 0.4344 0.0190 Uiso
C11 C 0.2393(4) 0.2549(4) 0.37182(19) 0.0152 Uani
C19 C 0.0687(4) 0.1977(4) 0.31812(19) 0.0178 Uani
C29 C 0.1081(4) 0.1492(4) 0.39592(18) 0.0152 Uani
C31 C 0.1694(4) 0.2532(4) 0.32857(18) 0.0172 Uani
H17 H 0.1901 0.2894 0.3066 0.0210 Uiso
H21 H 0.0336 0.3456 0.2756 0.0350 Uiso
O8 O 0.4118(3) 0.3133(3) 0.42070(12) 0.0133 Uani
O19 O 0.1330(3) 0.1089(3) 0.47403(13) 0.0183 Uani
O25 O 0.3710(3) 0.3709(3) 0.35482(13) 0.0186 Uani
C43 C 0.0703(4) 0.0995(4) 0.43481(17) 0.0122 Uani
C48 C 0.3473(4) 0.3160(4) 0.38274(18) 0.0149 Uani
Tb10 Tb 0.121558(19) 0.073351(17) 0.551968(8) 0.0100 Uani
Tb14 Tb 0.536010(19) 0.452201(17) 0.414528(8) 0.0106 Uani
O9 O 0.3966(3) 0.5163(3) 0.45258(14) 0.0193 Uani
O11 O 0.0597(3) 0.4194(3) 0.13914(12) 0.0173 Uani
O14 O 0.2068(3) 0.9254(3) 0.52368(13) 0.0184 Uani
O16 O 0.0553(3) 0.9057(3) 0.47177(13) 0.0151 Uani
O21 O 0.3747(3) 0.6144(3) 0.52581(13) 0.0189 Uani
C45 C 0.0204(4) 0.4931(4) 0.16422(18) 0.0145 Uani
C46 C 0.2461(4) 0.6065(4) 0.40151(18) 0.0129 Uani
H22 H 0.2709 0.5489 0.3837 0.0160 Uiso
C47 C 0.0583(4) 0.5331(4) 0.21935(18) 0.0132 Uani
C50 C 0.0016(5) 0.5979(4) 0.24878(19) 0.0210 Uani
C51 C 0.1769(4) 0.7811(4) 0.45547(18) 0.0137 Uani
C52 C 0.2841(4) 0.6444(4) 0.45236(18) 0.0134 Uani
C53 C 0.1360(4) 0.7415(4) 0.40468(18) 0.0139 Uani
H24 H 0.0850 0.7734 0.3892 0.0170 Uiso
C55 C 0.1432(4) 0.8756(4) 0.48526(17) 0.0131 Uani
C56 C 0.1709(4) 0.6541(4) 0.37672(18) 0.0140 Uani
C57 C 0.2508(4) 0.7322(4) 0.47921(17) 0.0128 Uani
H25 H 0.2780 0.7583 0.5130 0.0150 Uiso
C58 C 0.1877(5) 0.5460(4) 0.29242(19) 0.0215 Uani
H26 H 0.2515 0.5289 0.3067 0.0260 Uiso
C60 C 0.0365(5) 0.6364(4) 0.29986(19) 0.0221 Uani
C61 C 0.1520(4) 0.5053(4) 0.24132(19) 0.0188 Uani
H28 H 0.1905 0.4600 0.2222 0.0230 Uiso
C62 C 0.1309(4) 0.6107(4) 0.32218(18) 0.0147 Uani
C63 C 0.3577(4) 0.5874(4) 0.47856(18) 0.0125 Uani
Tb17 Tb 0.463990(19) 0.547799(17) 0.585472(8) 0.0106 Uani
O42 O 0.1034(3) 0.3494(3) 0.02441(13) 0.0157 Uani
O54 O 0.1108(3) 0.5558(3) 0.07781(13) 0.0167 Uani
Tb7 Tb 0.035999(18) 0.565989(16) 0.939923(8) 0.0089 Uani
Tb4 Tb 0.510850(19) 0.108478(17) 0.086530(8) 0.0099 Uani
H3 H 0.9731 0.1062 0.3452 0.0210 Uiso
C16 C 0.9909(4) 0.2010(4) 0.27317(18) 0.0188 Uani
C22 C 0.9198(4) 0.1171(4) 0.2470(2) 0.0196 Uani
H12 H 0.9250 0.0562 0.2551 0.0230 Uiso
C26 C 0.8413(4) 0.1241(4) 0.20895(19) 0.0186 Uani
H14 H 0.7942 0.0679 0.1917 0.0220 Uiso
C33 C 0.8325(4) 0.2153(4) 0.19627(19) 0.0182 Uani
C39 C 0.7408(5) 0.2265(4) 0.15849(18) 0.0189 Uani
C40 C 0.9063(5) 0.2966(5) 0.2208(2) 0.0278 Uani
H20 H 0.9036 0.3566 0.2116 0.0330 Uiso
C41 C 0.9849(5) 0.2900(5) 0.2592(2) 0.0298 Uani
O7 O 0.9788(3) 0.0493(3) 0.42258(13) 0.0171 Uani
O18 O 0.6159(3) 0.1689(3) 0.03008(13) 0.0169 Uani
O24 O 0.6701(3) 0.1512(3) 0.14146(14) 0.0189 Uani
O27 O 0.5288(3) 0.2879(3) 0.11044(14) 0.0213 Uani
O29 O 0.7370(3) 0.3091(3) 0.14775(14) 0.0214 Uani
O30 O 0.3563(3) 0.1550(3) 0.12648(15) 0.0243 Uani
O58 O 0.7932(3) 0.0746(3) 0.47632(13) 0.0184 Uani
O62 O 0.9447(3) 0.0943(3) 0.52823(13) 0.0151 Uani
O80 O 0.3857(3) 0.1283(3) 0.02373(13) 0.0180 Uani
H65 H 0.377927 0.176459 0.163383 . .
H66 H 0.327232 0.211107 0.114702 . .
H86 H 0.157855 0.058783 0.0113925 . .
Tb1 Tb 0.964001(18) 0.434011(16) 0.060077(8) 0.0089 Uani
Tb2 Tb 0.878442(19) 0.926649(17) 0.448032(8) 0.0100 Uani
O1 O 0.4854(3) 0.9988(3) 0.14091(13) 0.0167 Uani
O2 O 0.9331(3) 0.2608(3) 0.06034(14) 0.0190 Uani
O3 O 0.3853(3) 0.9530(3) 0.06671(13) 0.0158 Uani
O4 O 0.7751(3) 0.9383(4) 0.36804(14) 0.0288 Uani
C1 C 0.2837(4) 0.7841(4) 0.08884(18) 0.0135 Uani
H1 H 0.2627 0.7947 0.0575 0.0160 Uiso
C2 C 0.2710(4) 0.6842(4) 0.14825(18) 0.0141 Uani
H2 H 0.2397 0.6288 0.1566 0.0170 Uiso
O5 O 0.9101(3) 0.8464(3) 0.36362(13) 0.0222 Uani
C4 C 0.3950(4) 0.8329(4) 0.16932(18) 0.0140 Uani
H4 H 0.4471 0.8781 0.1922 0.0170 Uiso
C5 C 0.8839(5) 0.8092(4) 0.20865(19) 0.0189 Uani
H5 H 0.9388 0.7858 0.1913 0.0230 Uiso
C6 C 0.4139(4) 0.9386(4) 0.10923(18) 0.0135 Uani
C7 C 0.8194(4) 0.8657(4) 0.28727(19) 0.0164 Uani
C9 C 0.8348(5) 0.8845(4) 0.34303(19) 0.0187 Uani
C10 C 0.4705(5) 0.7792(4) 0.3182(2) 0.0215 Uani
H7 H 0.4929 0.8304 0.3472 0.0260 Uiso
C12 C 0.4048(5) 0.6271(4) 0.2315(2) 0.0199 Uani
H8 H 0.3832 0.5758 0.2025 0.0240 Uiso
C13 C 0.7518(4) 0.7704(4) 0.02302(17) 0.0114 Uani
C14 C 0.3621(4) 0.8511(4) 0.12272(18) 0.0128 Uani
N1 N 0.8899(4) 0.0930(3) 0.02486(18) 0.0227 Uani
C15 C 0.3952(4) 0.7266(4) 0.23048(18) 0.0162 Uani
C17 C 0.7072(5) 0.8581(4) 0.20964(19) 0.0215 Uani
H10 H 0.6423 0.8672 0.1926 0.0260 Uiso
C18 C 0.6988(4) 0.8437(4) 0.05061(18) 0.0114 Uani
C20 C 0.2360(4) 0.7012(4) 0.10119(17) 0.0113 Uani
C21 C 0.4462(5) 0.6044(4) 0.2751(2) 0.0208 Uani
H11 H 0.4523 0.5378 0.2750 0.0250 Uiso
C23 C 0.8225(4) 0.7269(4) 0.09837(18) 0.0150 Uani
H13 H 0.8618 0.6861 0.1139 0.0180 Uiso
C24 C 0.4790(4) 0.6795(4) 0.31938(19) 0.0166 Uani
C25 C 0.3517(4) 0.7490(4) 0.18240(18) 0.0146 Uani
C27 C 0.7727(4) 0.8031(4) 0.12703(18) 0.0146 Uani
C28 C 0.7103(4) 0.8617(4) 0.10268(18) 0.0138 Uani
H15 H 0.6768 0.9124 0.1212 0.0170 Uiso
C30 C 0.7221(5) 0.8796(5) 0.2614(2) 0.0240 Uani
H16 H 0.6676 0.9032 0.2790 0.0280 Uiso
C32 C 0.9164(5) 0.1873(4) 0.0231(2) 0.0226 Uani
C35 C 0.8982(4) 0.8302(4) 0.26065(19) 0.0179 Uani
H18 H 0.9626 0.8200 0.2777 0.0210 Uiso
C36 C 0.4290(5) 0.8030(4) 0.2742(2) 0.0207 Uani
H19 H 0.4238 0.8696 0.2741 0.0250 Uiso
C37 C 0.7877(4) 0.8231(4) 0.18245(19) 0.0167 Uani
C38 C 0.8773(6) 0.0720(5) 0.0734(3) 0.0352 Uani
O10 O 0.7229(3) 0.4922(3) 0.40863(14) 0.0207 Uani
O12 O 0.7804(3) 0.4076(3) 0.07342(14) 0.0208 Uani
O15 O 0.1251(3) 0.6466(3) 0.02227(12) 0.0139 Uani
O17 O 0.9010(3) 0.5645(3) 0.03337(13) 0.0169 Uani
O20 O 0.5169(3) 0.5588(3) 0.36380(13) 0.0195 Uani
O22 O 0.6077(3) 0.6144(3) 0.47348(13) 0.0208 Uani
O23 O 0.5974(3) 0.9799(3) 0.04824(14) 0.0186 Uani
O28 O 0.5910(3) 0.3185(3) 0.35755(15) 0.0273 Uani
O31 O 0.8528(4) 0.7479(3) 0.43356(15) 0.0306 Uani
O32 O 0.5527(3) 0.7200(3) 0.40569(14) 0.0253 Uani
O33 O 0.6845(3) 0.8886(3) 0.44620(18) 0.0328 Uani
C42 C 0.1514(4) 0.6285(3) 0.06362(16) 0.0079 Uiso
O34 O 0.9493(3) 0.5347(3) 0.14342(13) 0.0201 Uani
C44 C 0.6319(4) 0.9034(4) 0.02327(18) 0.0117 Uani
C49 C 0.8741(4) 0.6362(4) 0.01668(17) 0.0135 Uani
H23 H 0.9387 0.6165 0.2343 0.0250 Uiso
C54 C 0.5198(4) 0.6519(4) 0.36651(19) 0.0158 Uani
C59 C 0.8133(4) 0.7123(4) 0.04661(17) 0.0121 Uani
H27 H 0.9964 0.6796 0.3192 0.0270 Uiso
N2 N 0.6160(5) 0.1764(4) 0.3017(2) 0.0365 Uani
C64 C 0.5638(5) 0.2541(5) 0.3172(2) 0.0310 Uani
C65 C 0.7114(7) 0.1570(8) 0.3330(3) 0.0614 Uani
C66 C 0.5738(6) 0.1003(6) 0.2534(3) 0.0471 Uani
H37 H 0.2540 0.2397 0.0115 0.0140 Uiso
C100 C 0.1392(5) 0.9885(5) 0.0211(3) 0.0321 Uani
O67 O 0.8670(3) 0.8911(3) 0.52597(13) 0.0183 Uani
O71 O 0.6253(3) 0.3856(3) 0.47419(13) 0.0189 Uani
H57 H 0.778496 0.385297 0.104582 . .
H58 H 0.747588 0.471279 0.0766082 . .
H63 H 0.633217 0.661565 0.454633 . .
H64 H 0.550562 0.642526 0.492104 . .
H69 H 0.569061 0.136611 0.2228 . .
H70 H 0.627232 0.0420787 0.246867 . .
H71 H 0.494392 0.0668234 0.255379 . .
H72 H 0.492276 0.262276 0.293058 . .
H73 H 0.689487 0.146858 0.368128 . .
H74 H 0.741824 0.0894336 0.31313 . .
H75 H 0.77304 0.220443 0.340758 . .
H78 H 0.81449 0.112931 0.0891994 . .
H80 H 0.952344 0.0957045 0.0990173 . .
H85 H 0.20889 0.972413 0.0437304 . .
H87 H 0.0724521 0.99479 0.0422867 . .
H88 H 0.076145 0.799348 0.013301 . .
H9 H 0.7460 0.7603 0.9885 0.0140 Uiso
C34 C 0.8608(5) 0.0115(5) 0.9789(3) 0.0321 Uani
O6 O 0.8966(3) 0.6506(3) 0.97559(13) 0.0157 Uani
O26 O 0.6143(3) 0.8717(3) 0.97627(13) 0.0180 Uani
Tb20 Tb 0.489150(19) 0.891522(17) 0.913470(8) 0.0099 Uani
O35 O 0.5146(3) 0.0012(3) 0.85909(13) 0.0167 Uani
O36 O 0.0669(3) 0.7392(3) 0.93966(14) 0.0190 Uani
O37 O 0.6147(3) 0.0470(3) 0.93329(13) 0.0158 Uani
O38 O 0.2249(3) 0.0617(4) 0.63196(14) 0.0288 Uani
C67 C 0.7163(4) 0.2159(4) 0.91116(18) 0.0135 Uani
H29 H 0.7373 0.2053 0.9425 0.0160 Uiso
C68 C 0.7290(4) 0.3158(4) 0.85175(18) 0.0141 Uani
H30 H 0.7603 0.3712 0.8434 0.0170 Uiso
O39 O 0.0899(3) 0.1536(3) 0.63638(13) 0.0222 Uani
C70 C 0.6050(4) 0.1671(4) 0.83068(18) 0.0140 Uani
H32 H 0.5529 0.1219 0.8078 0.0170 Uiso
C71 C 0.1161(5) 0.1908(4) 0.79135(19) 0.0189 Uani
H33 H 0.0612 0.2142 0.8087 0.0230 Uiso
C72 C 0.5861(4) 0.0614(4) 0.89077(18) 0.0135 Uani
C73 C 0.1806(4) 0.1343(4) 0.71273(19) 0.0164 Uani
C75 C 0.1652(5) 0.1155(4) 0.65697(19) 0.0187 Uani
C76 C 0.5295(5) 0.2208(4) 0.6818(2) 0.0215 Uani
H35 H 0.5071 0.1696 0.6528 0.0260 Uiso
C78 C 0.5952(5) 0.3729(4) 0.7685(2) 0.0199 Uani
H36 H 0.6168 0.4242 0.7975 0.0240 Uiso
C79 C 0.2482(4) 0.2296(4) 0.97698(17) 0.0114 Uani
C80 C 0.6379(4) 0.1489(4) 0.87728(18) 0.0128 Uani
N3 N 0.1101(4) 0.9070(3) 0.97514(18) 0.0227 Uani
C81 C 0.6048(4) 0.2734(4) 0.76952(18) 0.0162 Uani
C83 C 0.2928(5) 0.1419(4) 0.79036(19) 0.0215 Uani
H38 H 0.3577 0.1328 0.8074 0.0260 Uiso
C84 C 0.3012(4) 0.1563(4) 0.94939(18) 0.0114 Uani
C86 C 0.7640(4) 0.2988(4) 0.89881(17) 0.0113 Uani
C87 C 0.5538(5) 0.3956(4) 0.7249(2) 0.0208 Uani
H39 H 0.5477 0.4622 0.7250 0.0250 Uiso
C89 C 0.1775(4) 0.2731(4) 0.90163(18) 0.0150 Uani
H41 H 0.1382 0.3139 0.8861 0.0180 Uiso
C90 C 0.5210(4) 0.3205(4) 0.68062(19) 0.0166 Uani
C91 C 0.6483(4) 0.2510(4) 0.81760(18) 0.0146 Uani
C93 C 0.2273(4) 0.1969(4) 0.87297(18) 0.0146 Uani
C94 C 0.2897(4) 0.1383(4) 0.89732(18) 0.0138 Uani
H43 H 0.3232 0.0876 0.8788 0.0170 Uiso
C96 C 0.2779(5) 0.1204(5) 0.7386(2) 0.0240 Uani
H44 H 0.3324 0.0968 0.7210 0.0280 Uiso
C98 C 0.0836(5) 0.8127(4) 0.9769(2) 0.0226 Uani
C101 C 0.1018(4) 0.1698(4) 0.73935(19) 0.0179 Uani
H46 H 0.0374 0.1800 0.7223 0.0210 Uiso
C102 C 0.5710(5) 0.1970(4) 0.7258(2) 0.0207 Uani
H47 H 0.5762 0.1304 0.7259 0.0250 Uiso
C103 C 0.2123(4) 0.1769(4) 0.81755(19) 0.0167 Uani
C104 C 0.1227(6) 0.9280(5) 0.9266(3) 0.0352 Uani
O46 O 0.5882(3) 0.6867(3) 0.57930(12) 0.0133 Uani
O49 O 0.6034(3) 0.4837(3) 0.54742(14) 0.0193 Uani
O50 O 0.2771(3) 0.5078(3) 0.59137(14) 0.0207 Uani
O52 O 0.2196(3) 0.5924(3) 0.92658(14) 0.0208 Uani
O53 O 0.8892(3) 0.4442(3) 0.92219(13) 0.0167 Uani
O59 O 0.8749(3) 0.3534(3) 0.97773(12) 0.0139 Uani
O63 O 0.0990(3) 0.4355(3) 0.96663(13) 0.0169 Uani
O68 O 0.4831(3) 0.4412(3) 0.63620(13) 0.0195 Uani
O72 O 0.3923(3) 0.3856(3) 0.52652(13) 0.0208 Uani
O73 O 0.4026(3) 0.0201(3) 0.95176(14) 0.0186 Uani
O77 O 0.6290(3) 0.6291(3) 0.64518(13) 0.0186 Uani
O82 O 0.4090(3) 0.6815(3) 0.64245(15) 0.0273 Uani
O85 O 0.1472(4) 0.2521(3) 0.56644(15) 0.0306 Uani
O86 O 0.4473(3) 0.2800(3) 0.59431(14) 0.0253 Uani
O87 O 0.3155(3) 0.1114(3) 0.55380(18) 0.0328 Uani
C108 C 0.8486(4) 0.3715(3) 0.93638(16) 0.0079 Uiso
O88 O 0.0507(3) 0.4653(3) 0.85658(13) 0.0201 Uani
C110 C 0.3681(4) 0.0966(4) 0.97673(18) 0.0117 Uani
C116 C 0.6527(4) 0.6840(4) 0.61726(18) 0.0149 Uani
C117 C 0.1259(4) 0.3638(4) 0.98332(17) 0.0135 Uani
H51 H 0.0613 0.3835 0.7657 0.0250 Uiso
C122 C 0.4802(4) 0.3481(4) 0.63349(19) 0.0158 Uani
C127 C 0.1867(4) 0.2877(4) 0.95339(17) 0.0121 Uani
H55 H 0.0036 0.3204 0.6808 0.0270 Uiso
N4 N 0.3840(5) 0.8236(4) 0.6983(2) 0.0365 Uani
C132 C 0.4362(5) 0.7459(5) 0.6828(2) 0.0310 Uani
C133 C 0.2886(7) 0.8430(8) 0.6670(3) 0.0614 Uani
C134 C 0.4262(6) 0.8997(6) 0.7466(3) 0.0471 Uani
H81 H 0.923855 0.200652 0.986699 . .
H82 H 0.927548 0.0052101 0.957713 . .
H84 H 0.79111 0.0275868 0.95627 . .
H89 H 0.0476561 0.904296 0.900983 . .
H91 H 0.18551 0.887069 0.910801 . .
H94 H 0.671781 0.508489 0.570489 . .
H95 H 0.592559 0.409298 0.539148 . .
H110 H 0.505608 0.933177 0.744621 . .
H111 H 0.372768 0.957921 0.753133 . .
H112 H 0.430939 0.863389 0.7772 . .
H113 H 0.22696 0.779557 0.659242 . .
H114 H 0.258176 0.910566 0.68687 . .
H115 H 0.310513 0.853142 0.631872 . .
H116 H 0.507724 0.737724 0.706942 . .
H31 H 0.0269 0.8938 0.6548 0.0210 Uiso
C82 C 0.0091(4) 0.7990(4) 0.72683(18) 0.0188 Uani
C88 C 0.0802(4) 0.8829(4) 0.7530(2) 0.0196 Uani
H40 H 0.0750 0.9438 0.7449 0.0230 Uiso
C92 C 0.1587(4) 0.8759(4) 0.79105(19) 0.0186 Uani
H42 H 0.2058 0.9321 0.8083 0.0220 Uiso
C99 C 0.1675(4) 0.7847(4) 0.80373(19) 0.0182 Uani
C105 C 0.2592(5) 0.7735(4) 0.84151(18) 0.0189 Uani
C106 C 0.0937(5) 0.7034(5) 0.7792(2) 0.0278 Uani
H48 H 0.0964 0.6434 0.7884 0.0330 Uiso
C107 C 0.0151(5) 0.7100(5) 0.7408(2) 0.0298 Uani
O43 O 0.0212(3) 0.9507(3) 0.57742(13) 0.0171 Uani
O64 O 0.3841(3) 0.8311(3) 0.96992(13) 0.0169 Uani
O74 O 0.3299(3) 0.8488(3) 0.85854(14) 0.0189 Uani
O81 O 0.4712(3) 0.7121(3) 0.88956(14) 0.0213 Uani
O83 O 0.2630(3) 0.6909(3) 0.85225(14) 0.0214 Uani
O84 O 0.6437(3) 0.8450(3) 0.87352(15) 0.0243 Uani
H83 H 0.842145 0.941217 0.988607 . .
H99 H 0.583287 0.822465 0.992684 . .
O51 O 0.9403(3) 0.5806(3) 0.86086(12) 0.0173 Uani
C111 C 0.9796(4) 0.5069(4) 0.83578(18) 0.0145 Uani
C112 C 0.7539(4) 0.3935(4) 0.59849(18) 0.0129 Uani
H50 H 0.7291 0.4511 0.6163 0.0160 Uiso
C113 C 0.9417(4) 0.4669(4) 0.78065(18) 0.0132 Uani
C118 C 0.9984(5) 0.4021(4) 0.75122(19) 0.0210 Uani
C119 C 0.8231(4) 0.2189(4) 0.54453(18) 0.0137 Uani
C120 C 0.7159(4) 0.3556(4) 0.54764(18) 0.0134 Uani
C121 C 0.8640(4) 0.2585(4) 0.59532(18) 0.0139 Uani
H52 H 0.9150 0.2266 0.6108 0.0170 Uiso
C123 C 0.8568(4) 0.1244(4) 0.51474(17) 0.0131 Uani
C124 C 0.8291(4) 0.3459(4) 0.62328(18) 0.0140 Uani
C125 C 0.7492(4) 0.2678(4) 0.52079(17) 0.0128 Uani
H53 H 0.7220 0.2417 0.4870 0.0150 Uiso
C126 C 0.8123(5) 0.4540(4) 0.70758(19) 0.0215 Uani
H54 H 0.7485 0.4711 0.6933 0.0260 Uiso
C128 C 0.9635(5) 0.3636(4) 0.70014(19) 0.0221 Uani
C129 C 0.8480(4) 0.4947(4) 0.75868(19) 0.0188 Uani
H56 H 0.8095 0.5400 0.7778 0.0230 Uiso
C130 C 0.8691(4) 0.3893(4) 0.67782(18) 0.0147 Uani
C131 C 0.6423(4) 0.4126(4) 0.52144(18) 0.0125 Uani
H92 H 0.919192 0.723947 0.986274 . .
H93 H 0.830942 0.636511 0.950282 . .
C69 C 0.9608(4) 0.8552(4) 0.64799(19) 0.0171 Uani
C74 C 0.7924(4) 0.7965(4) 0.59470(18) 0.0162 Uani
H34 H 0.7462 0.7943 0.5656 0.0190 Uiso
C77 C 0.7607(4) 0.7451(4) 0.62818(19) 0.0152 Uani
C85 C 0.9313(4) 0.8023(4) 0.68188(19) 0.0178 Uani
C95 C 0.8919(4) 0.8508(4) 0.60408(18) 0.0152 Uani
C97 C 0.8306(4) 0.7468(4) 0.67143(18) 0.0172 Uani
H45 H 0.8099 0.7106 0.6934 0.0210 Uiso
H49 H 0.9664 0.6544 0.7244 0.0350 Uiso
C109 C 0.9297(4) 0.9005(4) 0.56519(17) 0.0122 Uani
H92_2 H 0.0808085 0.276053 0.0137255 . .
H93_2 H 0.169058 0.363489 0.0497183 . .
H99_2 H 0.416713 0.177535 0.00731584 . .
H94_2 H 0.328219 0.491511 0.429511 . .
H95_2 H 0.407441 0.590702 0.460852 . .
H57_2 H 0.221504 0.614703 0.895418 . .
H58_2 H 0.252412 0.528721 0.923392 . .
H63_2 H 0.366783 0.338435 0.545367 . .
H64_2 H 0.449438 0.357474 0.507896 . .
H65_2 H 0.622073 0.823541 0.836617 . .
H66_2 H 0.672768 0.788893 0.885298 . .
H90 H 0.144225 0.0081218 0.932222 . .
H98 H 0.364115 0.0628476 0.998625 . .
H79 H 0.855775 0.991878 0.0677777 . .
H98_2 H 0.635885 0.937152 0.00137462 . .
loop_
_atom_site_aniso_label
_atom_site_aniso_U_11
_atom_site_aniso_U_22
_atom_site_aniso_U_33
_atom_site_aniso_U_23
_atom_site_aniso_U_13
_atom_site_aniso_U_12
C3 0.012 0.025 0.014 0.007 0.0013 -0.005
C8 0.016 0.024 0.008 0.005 -0.0012 0
C11 0.015 0.016 0.016 0.008 0.002 -0.002
C19 0.02 0.022 0.012 0.009 -0.002 -0.001
C29 0.018 0.017 0.011 0.0057 0.001 -0.001
C31 0.017 0.023 0.011 0.008 -0.003 -0.004
O8 0.0127 0.0161 0.0096 0.0032 -0.0051 0.0034
O19 0.021 0.0208 0.0124 0.0083 -0.0039 -0.0041
O25 0.023 0.0204 0.0115 0.0079 -0.0024 -0.0076
C43 0.012 0.017 0.01 0.0091 -0.0016 0.0031
C48 0.018 0.013 0.013 0.0029 0.002 0
Tb10 0.01216 0.01047 0.00687 0.00216 0.00022 6e-05
Tb14 0.01163 0.01136 0.00911 0.00424 -0.00055 0.00121
O9 0.021 0.0191 0.0191 0.0038 0.0056 0.0102
O11 0.028 0.0147 0.0077 0.0006 -0.0002 0.0053
O14 0.0195 0.0137 0.0173 -0.0016 -0.0031 0.0018
O16 0.017 0.0168 0.0155 0.0087 0.0045 0.0076
O21 0.023 0.0175 0.0148 0.0038 -0.005 0.0077
C45 0.017 0.019 0.009 0.0074 0.0017 0
C46 0.015 0.011 0.011 0.0004 -0.0006 0.003
C47 0.016 0.014 0.01 0.0037 0.0034 0.0005
C50 0.02 0.027 0.013 0.003 -0.006 0.006
C51 0.019 0.011 0.012 0.0041 0.002 0.0037
C52 0.012 0.015 0.012 0.0015 0.0012 0.0024
C53 0.012 0.015 0.014 0.0039 -0.0017 0.002
C55 0.021 0.011 0.01 0.0052 0.0047 0.0061
C56 0.014 0.014 0.011 0 -0.0014 0
C57 0.018 0.011 0.008 0.0005 0.0011 0.0001
C58 0.022 0.029 0.012 0 0.002 0.012
C60 0.027 0.025 0.013 0.002 -0.001 0.012
C61 0.022 0.023 0.011 0.002 0.002 0.008
C62 0.016 0.014 0.015 0.0057 0.002 0.001
C63 0.015 0.009 0.014 0.0045 0.002 -0.0002
Tb17 0.01163 0.01136 0.00911 0.00424 -0.00055 0.00121
O42 0.0184 0.0185 0.0115 0.0046 0.0027 0.0061
O54 0.0173 0.0142 0.0185 0.0056 0.0033 -0.0038
Tb7 0.01067 0.00865 0.00703 0.00211 -3e-05 0.00096
Tb4 0.01244 0.00864 0.00821 0.0027 -0.00074 0.00112
C16 0.016 0.029 0.01 0.01 -0.007 -0.008
C22 0.019 0.016 0.023 0.007 -0.002 0
C26 0.018 0.019 0.017 0.005 0 -0.005
C33 0.016 0.021 0.014 0.004 -0.004 -0.008
C39 0.024 0.022 0.008 0.002 0 -0.003
C40 0.032 0.026 0.025 0.017 -0.009 -0.011
C41 0.03 0.031 0.025 0.014 -0.01 -0.016
O7 0.014 0.0186 0.0178 0.0058 0.001 -0.0057
O18 0.0209 0.0137 0.0164 0.0051 0.0032 -0.0009
O24 0.0162 0.021 0.0178 0.008 -0.0051 -0.0045
O27 0.026 0.0096 0.0239 -0.0014 -0.0002 0.0007
O29 0.021 0.023 0.0199 0.0103 -0.0028 -0.0053
O30 0.03 0.022 0.024 0.0078 0.0108 0.0053
O58 0.0195 0.0137 0.0173 -0.0016 -0.0031 0.0018
O62 0.017 0.0168 0.0155 0.0087 0.0045 0.0076
O80 0.0188 0.0215 0.0133 0.0064 -0.0045 0.0053
Tb1 0.01067 0.00865 0.00703 0.00211 -3e-05 0.00096
Tb2 0.01216 0.01047 0.00687 0.00216 0.00022 6e-05
O1 0.0184 0.0155 0.0128 0.0056 -0.008 -0.0079
O2 0.023 0.0142 0.0186 0.0051 -0.0011 -0.001
O3 0.0172 0.0149 0.0161 0.0086 -0.0026 0.0006
O4 0.02 0.052 0.0107 0.0008 0.0012 0.008
C1 0.013 0.016 0.013 0.0077 0 0.0018
C2 0.015 0.014 0.014 0.0079 -0.001 -0.002
O5 0.036 0.02 0.01 0.0019 0.0015 0.0087
C4 0.014 0.013 0.014 0.0046 -0.0021 -0.0019
C5 0.023 0.024 0.012 0.007 0.003 0.009
C6 0.018 0.01 0.013 0.0055 -0.0002 0.001
C7 0.019 0.015 0.014 0.004 -0.002 0.001
C9 0.026 0.015 0.013 0.002 0.002 -0.004
C10 0.027 0.018 0.014 0.001 -0.006 -0.005
C12 0.028 0.015 0.015 0.003 0.001 -0.002
C13 0.013 0.014 0.008 0.0036 0.001 0.0042
C14 0.013 0.012 0.013 0.0027 0.0025 0.0004
N1 0.021 0.015 0.03 0.002 0.005 -0.0004
C15 0.016 0.02 0.013 0.008 -0.0019 0
C17 0.019 0.031 0.012 0.001 -0.003 0.011
C18 0.011 0.009 0.012 0.0014 -0.0021 -0.0011
C20 0.014 0.011 0.007 0.0011 -0.0018 -0.0015
C21 0.025 0.014 0.022 0.006 -0.003 0.001
C23 0.014 0.019 0.014 0.009 -0.0009 0.004
C24 0.016 0.021 0.014 0.009 -0.001 0
C25 0.018 0.014 0.01 0.0033 -0.0043 0.001
C27 0.017 0.017 0.01 0.0033 0.0009 0.005
C28 0.014 0.014 0.011 0.0003 -0.0038 0.0062
C30 0.024 0.035 0.014 0.006 0.006 0.006
C32 0.021 0.016 0.029 0.007 -0.003 -0.001
C35 0.019 0.023 0.013 0.007 0.001 0.005
C36 0.033 0.01 0.018 0.005 -0.003 0.002
C37 0.021 0.015 0.014 0.0044 0 0.003
C38 0.051 0.021 0.038 0.012 0.017 -0.001
O10 0.0132 0.024 0.0238 0.0065 -0.0001 -0.0014
O12 0.0187 0.023 0.0215 0.0079 0.0045 -0.0016
O15 0.0171 0.0125 0.009 0.0025 -0.0053 -0.0051
O17 0.021 0.0137 0.016 0.0044 -0.0005 0.0058
O20 0.028 0.016 0.0144 0.0084 -0.0037 -0.0015
O22 0.028 0.0165 0.0148 0.0014 -0.0007 -0.0005
O23 0.0193 0.0142 0.0241 0.0081 0.0005 0.0066
O28 0.032 0.025 0.0203 -0.0054 0.0081 0.0042
O31 0.056 0.0123 0.021 0.003 0.003 -0.0027
O32 0.038 0.019 0.0153 0.0066 -0.008 -0.0057
O33 0.021 0.028 0.044 0.003 0.005 -0.0089
O34 0.02 0.027 0.0125 0.0029 -0.0004 0.0096
C44 0.003 0.015 0.018 0.0078 -0.0004 -0.0017
C49 0.02 0.011 0.01 0.004 0.0017 0.0019
C54 0.014 0.02 0.014 0.008 -0.0003 -0.003
C59 0.014 0.013 0.009 0.0024 0.0006 0.0036
N2 0.036 0.03 0.038 -0.004 0.011 0.003
C64 0.033 0.033 0.025 0.004 0.006 0.001
C65 0.043 0.081 0.044 -0.013 -0.009 0.028
C66 0.043 0.052 0.033 -0.014 0.005 0.006
C100 0.03 0.02 0.038 -0.003 -0.004 0.002
O67 0.021 0.0208 0.0124 0.0083 -0.0039 -0.0041
O71 0.023 0.0175 0.0148 0.0038 -0.005 0.0077
C34 0.03 0.02 0.038 -0.003 -0.004 0.002
O6 0.0184 0.0185 0.0115 0.0046 0.0027 0.0061
O26 0.0188 0.0215 0.0133 0.0064 -0.0045 0.0053
Tb20 0.01244 0.00864 0.00821 0.0027 -0.00074 0.00112
O35 0.0184 0.0155 0.0128 0.0056 -0.008 -0.0079
O36 0.023 0.0142 0.0186 0.0051 -0.0011 -0.001
O37 0.0172 0.0149 0.0161 0.0086 -0.0026 0.0006
O38 0.02 0.052 0.0107 0.0008 0.0012 0.008
C67 0.013 0.016 0.013 0.0077 0 0.0018
C68 0.015 0.014 0.014 0.0079 -0.001 -0.002
O39 0.036 0.02 0.01 0.0019 0.0015 0.0087
C70 0.014 0.013 0.014 0.0046 -0.0021 -0.0019
C71 0.023 0.024 0.012 0.007 0.003 0.009
C72 0.018 0.01 0.013 0.0055 -0.0002 0.001
C73 0.019 0.015 0.014 0.004 -0.002 0.001
C75 0.026 0.015 0.013 0.002 0.002 -0.004
C76 0.027 0.018 0.014 0.001 -0.006 -0.005
C78 0.028 0.015 0.015 0.003 0.001 -0.002
C79 0.013 0.014 0.008 0.0036 0.001 0.0042
C80 0.013 0.012 0.013 0.0027 0.0025 0.0004
N3 0.021 0.015 0.03 0.002 0.005 -0.0004
C81 0.016 0.02 0.013 0.008 -0.0019 0
C83 0.019 0.031 0.012 0.001 -0.003 0.011
C84 0.011 0.009 0.012 0.0014 -0.0021 -0.0011
C86 0.014 0.011 0.007 0.0011 -0.0018 -0.0015
C87 0.025 0.014 0.022 0.006 -0.003 0.001
C89 0.014 0.019 0.014 0.009 -0.0009 0.004
C90 0.016 0.021 0.014 0.009 -0.001 0
C91 0.018 0.014 0.01 0.0033 -0.0043 0.001
C93 0.017 0.017 0.01 0.0033 0.0009 0.005
C94 0.014 0.014 0.011 0.0003 -0.0038 0.0062
C96 0.024 0.035 0.014 0.006 0.006 0.006
C98 0.021 0.016 0.029 0.007 -0.003 -0.001
C101 0.019 0.023 0.013 0.007 0.001 0.005
C102 0.033 0.01 0.018 0.005 -0.003 0.002
C103 0.021 0.015 0.014 0.0044 0 0.003
C104 0.051 0.021 0.038 0.012 0.017 -0.001
O46 0.0127 0.0161 0.0096 0.0032 -0.0051 0.0034
O49 0.021 0.0191 0.0191 0.0038 0.0056 0.0102
O50 0.0132 0.024 0.0238 0.0065 -0.0001 -0.0014
O52 0.0187 0.023 0.0215 0.0079 0.0045 -0.0016
O53 0.0173 0.0142 0.0185 0.0056 0.0033 -0.0038
O59 0.0171 0.0125 0.009 0.0025 -0.0053 -0.0051
O63 0.021 0.0137 0.016 0.0044 -0.0005 0.0058
O68 0.028 0.016 0.0144 0.0084 -0.0037 -0.0015
O72 0.028 0.0165 0.0148 0.0014 -0.0007 -0.0005
O73 0.0193 0.0142 0.0241 0.0081 0.0005 0.0066
O77 0.023 0.0204 0.0115 0.0079 -0.0024 -0.0076
O82 0.032 0.025 0.0203 -0.0054 0.0081 0.0042
O85 0.056 0.0123 0.021 0.003 0.003 -0.0027
O86 0.038 0.019 0.0153 0.0066 -0.008 -0.0057
O87 0.021 0.028 0.044 0.003 0.005 -0.0089
O88 0.02 0.027 0.0125 0.0029 -0.0004 0.0096
C110 0.003 0.015 0.018 0.0078 -0.0004 -0.0017
C116 0.018 0.013 0.013 0.0029 0.002 0
C117 0.02 0.011 0.01 0.004 0.0017 0.0019
C122 0.014 0.02 0.014 0.008 -0.0003 -0.003
C127 0.014 0.013 0.009 0.0024 0.0006 0.0036
N4 0.036 0.03 0.038 -0.004 0.011 0.003
C132 0.033 0.033 0.025 0.004 0.006 0.001
C133 0.043 0.081 0.044 -0.013 -0.009 0.028
C134 0.043 0.052 0.033 -0.014 0.005 0.006
C82 0.016 0.029 0.01 0.01 -0.007 -0.008
C88 0.019 0.016 0.023 0.007 -0.002 0
C92 0.018 0.019 0.017 0.005 0 -0.005
C99 0.016 0.021 0.014 0.004 -0.004 -0.008
C105 0.024 0.022 0.008 0.002 0 -0.003
C106 0.032 0.026 0.025 0.017 -0.009 -0.011
C107 0.03 0.031 0.025 0.014 -0.01 -0.016
O43 0.014 0.0186 0.0178 0.0058 0.001 -0.0057
O64 0.0209 0.0137 0.0164 0.0051 0.0032 -0.0009
O74 0.0162 0.021 0.0178 0.008 -0.0051 -0.0045
O81 0.026 0.0096 0.0239 -0.0014 -0.0002 0.0007
O83 0.021 0.023 0.0199 0.0103 -0.0028 -0.0053
O84 0.03 0.022 0.024 0.0078 0.0108 0.0053
O51 0.028 0.0147 0.0077 0.0006 -0.0002 0.0053
C111 0.017 0.019 0.009 0.0074 0.0017 0
C112 0.015 0.011 0.011 0.0004 -0.0006 0.003
C113 0.016 0.014 0.01 0.0037 0.0034 0.0005
C118 0.02 0.027 0.013 0.003 -0.006 0.006
C119 0.019 0.011 0.012 0.0041 0.002 0.0037
C120 0.012 0.015 0.012 0.0015 0.0012 0.0024
C121 0.012 0.015 0.014 0.0039 -0.0017 0.002
C123 0.021 0.011 0.01 0.0052 0.0047 0.0061
C124 0.014 0.014 0.011 0 -0.0014 0
C125 0.018 0.011 0.008 0.0005 0.0011 0.0001
C126 0.022 0.029 0.012 0 0.002 0.012
C128 0.027 0.025 0.013 0.002 -0.001 0.012
C129 0.022 0.023 0.011 0.002 0.002 0.008
C130 0.016 0.014 0.015 0.0057 0.002 0.001
C131 0.015 0.009 0.014 0.0045 0.002 -0.0002
C69 0.012 0.025 0.014 0.007 0.0013 -0.005
C74 0.016 0.024 0.008 0.005 -0.0012 0
C77 0.015 0.016 0.016 0.008 0.002 -0.002
C85 0.02 0.022 0.012 0.009 -0.002 -0.001
C95 0.018 0.017 0.011 0.0057 0.001 -0.001
C97 0.017 0.023 0.011 0.008 -0.003 -0.004
C109 0.012 0.017 0.01 0.0091 -0.0016 0.0031
loop_
_geom_bond_atom_site_label_1
_geom_bond_atom_site_label_2
_geom_bond_site_symmetry_1
_geom_bond_site_symmetry_2
C8 H6 1_555 1_555
C11 C8 1_555 1_555
C19 C3 1_555 1_555
C29 C3 1_555 1_555
C31 C11 1_555 1_555
H17 C31 1_555 1_555
O8 C48 1_555 1_555
O19 C43 1_555 1_555
O25 C48 1_555 1_555
C43 C29 1_555 1_555
C48 C11 1_555 1_555
Tb14 O8 1_555 1_555
C8 C29 1_555 1_555
C19 C31 1_555 1_555
O19 Tb10 1_555 1_555
O25 Tb14 1_555 1_555
O9 C63 1_555 1_555
O14 C55 1_555 1_555
O21 C63 1_555 1_555
C45 O11 1_555 1_555
C46 H22 1_555 1_555
C47 C45 1_555 1_555
C50 C47 1_555 1_555
C51 C53 1_555 1_555
C52 C46 1_555 1_555
C53 H24 1_555 1_555
C55 O16 1_555 1_555
C56 C46 1_555 1_555
C57 C51 1_555 1_555
H25 C57 1_555 1_555
C58 H26 1_555 1_555
C60 C50 1_555 1_555
C61 C47 1_555 1_555
H28 C61 1_555 1_555
C62 C56 1_555 1_555
C63 C52 1_555 1_555
Tb14 O9 1_555 1_555
Tb17 O21 1_555 1_555
C51 C55 1_555 1_555
C52 C57 1_555 1_555
C53 C56 1_555 1_555
C58 C61 1_555 1_555
C58 C62 1_555 1_555
C60 C62 1_555 1_555
C22 C16 1_555 1_555
H12 C22 1_555 1_555
C26 C22 1_555 1_555
H14 C26 1_555 1_555
C33 C26 1_555 1_555
C39 C33 1_555 1_555
C40 C33 1_555 1_555
H20 C40 1_555 1_555
C41 C16 1_555 1_555
O18 Tb4 1_555 1_555
O24 Tb4 1_555 1_555
O27 Tb4 1_555 1_555
O29 C39 1_555 1_555
O30 Tb4 1_555 1_555
O80 Tb4 1_555 1_555
C39 O24 1_555 1_555
C40 C41 1_555 1_555
O30 H65 1_555 1_555
O30 H66 1_555 1_555
Tb1 O2 1_555 1_555
Tb2 O4 1_555 1_555
Tb14 O10 1_555 1_555
O1 C6 1_555 1_555
O2 C32 1_555 1_555
O4 C9 1_555 1_555
C1 H1 1_555 1_555
C2 H2 1_555 1_555
O5 Tb2 1_555 1_555
C4 H4 1_555 1_555
C5 H5 1_555 1_555
C6 O3 1_555 1_555
C7 C9 1_555 1_555
C9 O5 1_555 1_555
C10 H7 1_555 1_555
C12 H8 1_555 1_555
C14 C1 1_555 1_555
N1 C32 1_555 1_555
C15 C12 1_555 1_555
C17 H10 1_555 1_555
C18 C13 1_555 1_555
C20 C1 1_555 1_555
C21 C12 1_555 1_555
H11 C21 1_555 1_555
C23 H13 1_555 1_555
C24 C10 1_555 1_555
C25 C2 1_555 1_555
C27 C23 1_555 1_555
C28 C18 1_555 1_555
H15 C28 1_555 1_555
C30 C7 1_555 1_555
H16 C30 1_555 1_555
C35 C5 1_555 1_555
H18 C35 1_555 1_555
C36 C10 1_555 1_555
H19 C36 1_555 1_555
C37 C5 1_555 1_555
C38 N1 1_555 1_555
O12 Tb1 1_555 1_555
O54 C42 1_555 1_555
O15 C42 1_555 1_555
O17 Tb1 1_555 1_555
O20 Tb14 1_555 1_555
O22 Tb14 1_555 1_555
O28 Tb14 1_555 1_555
O31 Tb2 1_555 1_555
O32 C54 1_555 1_555
O33 Tb2 1_555 1_555
C42 C20 1_555 1_555
O34 Tb1 1_555 1_555
C44 C18 1_555 1_555
C49 O17 1_555 1_555
C54 C24 1_555 1_555
C59 C13 1_555 1_555
N2 C64 1_555 1_555
C64 O28 1_555 1_555
C65 N2 1_555 1_555
C66 N2 1_555 1_555
O67 Tb2 1_555 1_555
O71 Tb14 1_555 1_555
C2 C20 1_555 1_555
C4 C14 1_555 1_555
C4 C25 1_555 1_555
C6 C14 1_555 1_555
C7 C35 1_555 1_555
C15 C25 1_555 1_555
C15 C36 1_555 1_555
C17 C30 1_555 1_555
C17 C37 1_555 1_555
C21 C24 1_555 1_555
C23 C59 1_555 1_555
C27 C28 1_555 1_555
C27 C37 1_555 1_555
O20 C54 1_555 1_555
O23 C44 1_555 1_555
C49 C59 1_555 1_555
O12 H57 1_555 1_555
O12 H58 1_555 1_555
O22 H63 1_555 1_555
O22 H64 1_555 1_555
C66 H69 1_555 1_555
C66 H70 1_555 1_555
C66 H71 1_555 1_555
C64 H72 1_555 1_555
C65 H73 1_555 1_555
C65 H74 1_555 1_555
C65 H75 1_555 1_555
C38 H78 1_555 1_555
C38 H80 1_555 1_555
C100 H85 1_555 1_555
C100 H87 1_555 1_555
Tb10 O38 1_555 1_555
Tb17 O46 1_555 1_555
Tb20 O26 1_555 1_555
O35 C72 1_555 1_555
O36 Tb7 1_555 1_555
O38 C75 1_555 1_555
C67 H29 1_555 1_555
C68 H30 1_555 1_555
O39 Tb10 1_555 1_555
C70 H32 1_555 1_555
C71 H33 1_555 1_555
C72 O37 1_555 1_555
C73 C75 1_555 1_555
C75 O39 1_555 1_555
C76 H35 1_555 1_555
C78 H36 1_555 1_555
C80 C67 1_555 1_555
N3 C98 1_555 1_555
C81 C78 1_555 1_555
C83 H38 1_555 1_555
C84 C79 1_555 1_555
C86 C67 1_555 1_555
C87 C78 1_555 1_555
H39 C87 1_555 1_555
C89 H41 1_555 1_555
C90 C76 1_555 1_555
C91 C68 1_555 1_555
C93 C89 1_555 1_555
C94 C84 1_555 1_555
H43 C94 1_555 1_555
C96 C73 1_555 1_555
H44 C96 1_555 1_555
C98 O36 1_555 1_555
C101 C71 1_555 1_555
H46 C101 1_555 1_555
C102 C76 1_555 1_555
H47 C102 1_555 1_555
C103 C71 1_555 1_555
C104 N3 1_555 1_555
O46 C116 1_555 1_555
O49 Tb17 1_555 1_555
O50 Tb17 1_555 1_555
O52 Tb7 1_555 1_555
O63 Tb7 1_555 1_555
O68 Tb17 1_555 1_555
O72 Tb17 1_555 1_555
O77 Tb17 1_555 1_555
O82 Tb17 1_555 1_555
O85 Tb10 1_555 1_555
O86 C122 1_555 1_555
O87 Tb10 1_555 1_555
C108 C86 1_555 1_555
O88 Tb7 1_555 1_555
C110 C84 1_555 1_555
C116 O77 1_555 1_555
C122 C90 1_555 1_555
C127 C79 1_555 1_555
N4 C132 1_555 1_555
C132 O82 1_555 1_555
C133 N4 1_555 1_555
C134 N4 1_555 1_555
C68 C86 1_555 1_555
C70 C80 1_555 1_555
C70 C91 1_555 1_555
C72 C80 1_555 1_555
C73 C101 1_555 1_555
C81 C91 1_555 1_555
C81 C102 1_555 1_555
C83 C96 1_555 1_555
C83 C103 1_555 1_555
C87 C90 1_555 1_555
C89 C127 1_555 1_555
C93 C94 1_555 1_555
C93 C103 1_555 1_555
O53 C108 1_555 1_555
O59 C108 1_555 1_555
O63 C117 1_555 1_555
O68 C122 1_555 1_555
O73 C110 1_555 1_555
C117 C127 1_555 1_555
C34 H82 1_555 1_555
C34 H84 1_555 1_555
C104 H89 1_555 1_555
C104 H91 1_555 1_555
O49 H94 1_555 1_555
O49 H95 1_555 1_555
C134 H110 1_555 1_555
C134 H111 1_555 1_555
C134 H112 1_555 1_555
C133 H113 1_555 1_555
C133 H114 1_555 1_555
C133 H115 1_555 1_555
C132 H116 1_555 1_555
C88 C82 1_555 1_555
H40 C88 1_555 1_555
C92 C88 1_555 1_555
H42 C92 1_555 1_555
C99 C92 1_555 1_555
C105 C99 1_555 1_555
C106 C99 1_555 1_555
H48 C106 1_555 1_555
C107 C82 1_555 1_555
O64 Tb20 1_555 1_555
O74 Tb20 1_555 1_555
O81 Tb20 1_555 1_555
O83 C105 1_555 1_555
O84 Tb20 1_555 1_555
C105 O74 1_555 1_555
C106 C107 1_555 1_555
O26 H99 1_555 1_555
O49 C131 1_555 1_555
O58 C123 1_555 1_555
O71 C131 1_555 1_555
C111 O51 1_555 1_555
C112 H50 1_555 1_555
C113 C111 1_555 1_555
C118 C113 1_555 1_555
C119 C121 1_555 1_555
C120 C112 1_555 1_555
C121 H52 1_555 1_555
C123 O62 1_555 1_555
C124 C112 1_555 1_555
C125 C119 1_555 1_555
H53 C125 1_555 1_555
C126 H54 1_555 1_555
C128 C118 1_555 1_555
C129 C113 1_555 1_555
H56 C129 1_555 1_555
C130 C124 1_555 1_555
C131 C120 1_555 1_555
C119 C123 1_555 1_555
C120 C125 1_555 1_555
C121 C124 1_555 1_555
C126 C129 1_555 1_555
C126 C130 1_555 1_555
C128 C130 1_555 1_555
O6 H92 1_555 1_555
O6 H93 1_555 1_555
C74 H34 1_555 1_555
C77 C74 1_555 1_555
C85 C69 1_555 1_555
C95 C69 1_555 1_555
C97 C77 1_555 1_555
H45 C97 1_555 1_555
C109 C95 1_555 1_555
C116 C77 1_555 1_555
C74 C95 1_555 1_555
C85 C97 1_555 1_555
O67 C109 1_555 1_555
O42 H92_2 1_555 1_555
O42 H93_2 1_555 1_555
O80 H99_2 1_555 1_555
O9 H94_2 1_555 1_555
O9 H95_2 1_555 1_555
O52 H57_2 1_555 1_555
O52 H58_2 1_555 1_555
O72 H63_2 1_555 1_555
O72 H64_2 1_555 1_555
O84 H65_2 1_555 1_555
O84 H66_2 1_555 1_555

#END
