
###############################################################################
#
# This file contains modified crystal structure data generated from the
# MOF subset of the Cambridge Structural Database (CSD) v543 
# hosted by the Cambridge Crystallographic Data Centre (CCDC).
#
# This work is licensed under the Creative Commons
# Attribution-NonCommercial-ShareAlike 4.0 International License.
# To view a copy of this license, visit
# http://creativecommons.org/licenses/by-nc-sa/4.0/
# or send a letter to
# Creative Commons, PO Box 1866, Mountain View, CA 94042, USA.
#
# CIF created using the CSD Python API on 29 September 2022
# The structure has been converted into the P1 space group
# The structure has a 3D framework
# The original CSD entry XADFUF is in the orthorhombic crystal system
# The original CSD entry XADFUF is in a Sohncke space group
# The framework has been calculated to contain at least 10.0% void space
# The void calculation uses a probe of radius 1.32A, grid spacing 0.4
#
###############################################################################

data_XADFUF
_chemical_formula_moiety         '(C96 H72 N8 O16 Zn5)n'
_symmetry_cell_setting           triclinic
_symmetry_space_group_name_H-M   'P 1'
_symmetry_Int_Tables_number      1
_space_group_name_Hall           'P 1'
loop_
_symmetry_equiv_pos_site_id
_symmetry_equiv_pos_as_xyz
1 x,y,z
_cell_length_a                   16.3611(10)
_cell_length_b                   10.8518(7)
_cell_length_c                   13.9023(8)
_cell_angle_alpha                90
_cell_angle_beta                 90
_cell_angle_gamma                90
_cell_volume                     2468.32
loop_
_atom_site_label
_atom_site_type_symbol
_atom_site_fract_x
_atom_site_fract_y
_atom_site_fract_z
Zn2 Zn 0.01233(9) 0.0000 0.5000
O6 O 0.0352(12) 0.159(2) 0.3892(8)
O9 O 0.1253(9) 0.175(3) 0.4941(16)
C1 C 0.4899(8) 0.7172(14) 0.0891(8)
H1 H 0.4494 0.7642 0.0598
C2 C 0.5483(8) 0.7767(14) 0.1377(9)
H2 H 0.5461 0.8621 0.1432
C3 C 0.6130(9) 0.7119(18) 0.1804(9)
C4 C 0.6091(9) 0.5871(17) 0.1711(12)
H3 H 0.6503 0.5384 0.1971
C5 C 0.5461(9) 0.5331(13) 0.1245(11)
H4 H 0.5444 0.4474 0.1233
C6 C 0.6784(11) 0.7762(17) 0.2393(13)
H5 H 0.6781 0.8633 0.2237
H6 H 0.6651 0.7681 0.3070
C7 C 0.7598(10) 0.7277(15) 0.2232(12)
H7 H 0.7746 0.7403 0.1563
H8 H 0.7595 0.6396 0.2351
C8 C 0.8226(8) 0.7862(14) 0.2854(10)
C9 C 0.8588(10) 0.9004(15) 0.2646(12)
H9 H 0.8447 0.9404 0.2078
C10 C 0.9156(8) 0.9563(13) 0.3268(10)
C11 C 0.9047(8) 0.7985(13) 0.4319(9)
H11 H 0.9203 0.7623 0.4897
C12 C 0.8473(10) 0.7356(13) 0.3725(10)
H12 H 0.8262 0.6601 0.3922
C13 C 0.1079(12) 0.166(2) 0.4068(16)
C14 C 0.1614(9) 0.2298(13) 0.3382(10)
C15 C 0.1279(8) 0.2931(13) 0.2674(11)
H13 H 0.0713 0.2973 0.2631
C16 C 0.1769(7) 0.3559(12) 0.1966(8)
H14 H 0.1527 0.4049 0.1497
C17 C 0.2586(7) 0.3420(10) 0.2000(7)
C18 C 0.3826(9) 0.2532(11) 0.2799(9)
H15 H 0.4167 0.2882 0.2339
C19 C 0.4140(10) 0.1873(14) 0.3528(11)
H16 H 0.4703 0.1771 0.3568
C20 C 0.3646(13) 0.1342(15) 0.4224(11)
H17 H 0.3885 0.0888 0.4717
C21 C 0.2815(11) 0.1473(13) 0.4201(10)
H18 H 0.2494 0.1124 0.4681
C22 C 0.2452(8) 0.2130(10) 0.3458(9)
C23 C 0.2982(7) 0.2684(9) 0.2742(8)
C24 C 0.3105(7) 0.4053(12) 0.1261(8)
N1 N 0.4857(6) 0.5942(11) 0.0797(7)
N2 N 0.9365(5) 0.9055(9) 0.4085(7)
O3 O 0.2979(4) 0.5171(8) 0.1093(4)
O4 O 0.3672(5) 0.3487(7) 0.0818(5)
Zn1 Zn 0.39960(9) 0.5000 0.0000
H28 H 0.9388 0.9687 0.6906
Zn2_2 Zn 0.01233(9) 1.0000 0.5000
O7 O 0.0352(12) 0.841(2) 0.6108(8)
O10 O 0.1253(9) 0.825(3) 0.5059(16)
H10 H 0.9388 0.0313 0.3094
N5 N 0.9365(5) 0.0945(9) 0.5915(7)
Zn1_2 Zn 0.39960(9) 0.5000 1.0000
C25 C 0.4899(8) 0.2828(14) 0.9109(8)
H19 H 0.4494 0.2358 0.9402
C26 C 0.5483(8) 0.2233(14) 0.8623(9)
H20 H 0.5461 0.1379 0.8568
C27 C 0.6130(9) 0.2881(18) 0.8196(9)
C28 C 0.6091(9) 0.4129(17) 0.8289(12)
H21 H 0.6503 0.4616 0.8029
C29 C 0.5461(9) 0.4669(13) 0.8755(11)
H22 H 0.5444 0.5526 0.8767
C30 C 0.6784(11) 0.2238(17) 0.7607(13)
H23 H 0.6781 0.1367 0.7763
H24 H 0.6651 0.2319 0.6930
C31 C 0.7598(10) 0.2723(15) 0.7768(12)
H25 H 0.7746 0.2597 0.8437
H26 H 0.7595 0.3604 0.7649
C32 C 0.8226(8) 0.2138(14) 0.7146(10)
C33 C 0.8588(10) 0.0996(15) 0.7354(12)
H27 H 0.8447 0.0596 0.7922
C34 C 0.9156(8) 0.0437(13) 0.6732(10)
C35 C 0.9047(8) 0.2015(13) 0.5681(9)
H29 H 0.9203 0.2377 0.5103
C36 C 0.8473(10) 0.2644(13) 0.6275(10)
H30 H 0.8262 0.3399 0.6078
C37 C 0.1079(12) 0.834(2) 0.5932(16)
C38 C 0.1614(9) 0.7702(13) 0.6618(10)
C39 C 0.1279(8) 0.7069(13) 0.7326(11)
H31 H 0.0713 0.7027 0.7369
C40 C 0.1769(7) 0.6441(12) 0.8034(8)
H32 H 0.1527 0.5951 0.8503
C41 C 0.2586(7) 0.6580(10) 0.8000(7)
C42 C 0.3826(9) 0.7468(11) 0.7201(9)
H33 H 0.4167 0.7118 0.7661
C43 C 0.4140(10) 0.8127(14) 0.6472(11)
H34 H 0.4703 0.8229 0.6432
C44 C 0.3646(13) 0.8658(15) 0.5776(11)
H35 H 0.3885 0.9112 0.5283
C45 C 0.2815(11) 0.8527(13) 0.5799(10)
H36 H 0.2494 0.8876 0.5319
C46 C 0.2452(8) 0.7870(10) 0.6542(9)
C47 C 0.2982(7) 0.7316(9) 0.7258(8)
C48 C 0.3105(7) 0.5947(12) 0.8739(8)
N3 N 0.4857(6) 0.4058(11) 0.9203(7)
O11 O 0.2979(4) 0.4829(8) 0.8907(4)
O12 O 0.3672(5) 0.6513(7) 0.9182(5)
Zn3 Zn 0.98767(9) -0.0000 0.0000
C1_2 C 0.5101(8) 0.2828(14) 0.5891(8)
H1_2 H 0.5506 0.2358 0.5598
C2_2 C 0.4517(8) 0.2233(14) 0.6377(9)
H2_2 H 0.4539 0.1379 0.6432
C3_2 C 0.3870(9) 0.2881(18) 0.6804(9)
C4_2 C 0.3909(9) 0.4129(17) 0.6711(12)
H3_2 H 0.3497 0.4616 0.6971
C5_2 C 0.4539(9) 0.4669(13) 0.6245(11)
H4_2 H 0.4556 0.5526 0.6233
C6_2 C 0.3216(11) 0.2238(17) 0.7393(13)
H5_2 H 0.3219 0.1367 0.7237
H6_2 H 0.3349 0.2319 0.8070
C7_2 C 0.2402(10) 0.2723(15) 0.7232(12)
H7_2 H 0.2254 0.2597 0.6563
H8_2 H 0.2405 0.3604 0.7351
C8_2 C 0.1774(8) 0.2138(14) 0.7854(10)
C9_2 C 0.1412(10) 0.0996(15) 0.7646(12)
H9_2 H 0.1553 0.0596 0.7078
C10_2 C 0.0844(8) 0.0437(13) 0.8268(10)
C11_2 C 0.0953(8) 0.2015(13) 0.9319(9)
H11_2 H 0.0797 0.2377 0.9897
C12_2 C 0.1527(10) 0.2644(13) 0.8725(10)
H12_2 H 0.1738 0.3399 0.8922
C13_2 C 0.8921(12) 0.834(2) 0.9068(16)
C14_2 C 0.8386(9) 0.7702(13) 0.8382(10)
C15_2 C 0.8721(8) 0.7069(13) 0.7674(11)
H13_2 H 0.9287 0.7027 0.7631
C16_2 C 0.8231(7) 0.6441(12) 0.6966(8)
H14_2 H 0.8473 0.5951 0.6497
C17_2 C 0.7414(7) 0.6580(10) 0.7000(7)
C18_2 C 0.6174(9) 0.7468(11) 0.7799(9)
H15_2 H 0.5833 0.7118 0.7339
C19_2 C 0.5860(10) 0.8127(14) 0.8528(11)
H16_2 H 0.5297 0.8229 0.8568
C20_2 C 0.6354(13) 0.8658(15) 0.9224(11)
H17_2 H 0.6115 0.9112 0.9717
C21_2 C 0.7185(11) 0.8527(13) 0.9201(10)
H18_2 H 0.7506 0.8876 0.9681
C22_2 C 0.7548(8) 0.7870(10) 0.8458(9)
C23_2 C 0.7018(7) 0.7316(9) 0.7742(8)
C24_2 C 0.6895(7) 0.5947(12) 0.6261(8)
N1_2 N 0.5143(6) 0.4058(11) 0.5797(7)
N2_2 N 0.0635(5) 0.0945(9) 0.9085(7)
O1 O 0.9648(12) 0.841(2) 0.8892(8)
O2 O 0.8747(9) 0.825(3) 0.9941(16)
O3_2 O 0.7021(4) 0.4829(8) 0.6093(4)
O4_2 O 0.6328(5) 0.6513(7) 0.5818(5)
Zn1_3 Zn 0.60040(9) 0.5000 0.5000
C25_2 C 0.5101(8) 0.7172(14) 0.4109(8)
H19_2 H 0.5506 0.7642 0.4402
C26_2 C 0.4517(8) 0.7767(14) 0.3623(9)
H20_2 H 0.4539 0.8621 0.3568
C27_2 C 0.3870(9) 0.7119(18) 0.3196(9)
C28_2 C 0.3909(9) 0.5871(17) 0.3289(12)
H21_2 H 0.3497 0.5384 0.3029
C29_2 C 0.4539(9) 0.5331(13) 0.3755(11)
H22_2 H 0.4556 0.4474 0.3767
C30_2 C 0.3216(11) 0.7762(17) 0.2607(13)
H23_2 H 0.3219 0.8633 0.2763
H24_2 H 0.3349 0.7681 0.1930
C31_2 C 0.2402(10) 0.7277(15) 0.2768(12)
H25_2 H 0.2254 0.7403 0.3437
H26_2 H 0.2405 0.6396 0.2649
C32_2 C 0.1774(8) 0.7862(14) 0.2146(10)
C33_2 C 0.1412(10) 0.9004(15) 0.2354(12)
H27_2 H 0.1553 0.9404 0.2922
C34_2 C 0.0844(8) 0.9563(13) 0.1732(10)
C35_2 C 0.0953(8) 0.7985(13) 0.0681(9)
H29_2 H 0.0797 0.7623 0.0103
C36_2 C 0.1527(10) 0.7356(13) 0.1275(10)
H30_2 H 0.1738 0.6601 0.1078
C37_2 C 0.8921(12) 0.166(2) 0.0932(16)
C38_2 C 0.8386(9) 0.2298(13) 0.1618(10)
C39_2 C 0.8721(8) 0.2931(13) 0.2326(11)
H31_2 H 0.9287 0.2973 0.2369
C40_2 C 0.8231(7) 0.3559(12) 0.3034(8)
H32_2 H 0.8473 0.4049 0.3503
C41_2 C 0.7414(7) 0.3420(10) 0.3000(7)
C42_2 C 0.6174(9) 0.2532(11) 0.2201(9)
H33_2 H 0.5833 0.2882 0.2661
C43_2 C 0.5860(10) 0.1873(14) 0.1472(11)
H34_2 H 0.5297 0.1771 0.1432
C44_2 C 0.6354(13) 0.1342(15) 0.0776(11)
H35_2 H 0.6115 0.0888 0.0283
C45_2 C 0.7185(11) 0.1473(13) 0.0799(10)
H36_2 H 0.7506 0.1124 0.0319
C46_2 C 0.7548(8) 0.2130(10) 0.1542(9)
C47_2 C 0.7018(7) 0.2684(9) 0.2258(8)
C48_2 C 0.6895(7) 0.4053(12) 0.3739(8)
N3_2 N 0.5143(6) 0.5942(11) 0.4203(7)
N4 N 0.0635(5) 0.9055(9) 0.0915(7)
O5 O 0.9648(12) 0.159(2) 0.1108(8)
O8 O 0.8747(9) 0.175(3) 0.0059(16)
O11_2 O 0.7021(4) 0.5171(8) 0.3907(4)
O12_2 O 0.6328(5) 0.3487(7) 0.4182(5)
Zn3_2 Zn 0.98767(9) 1.0000 1.0000
H28_2 H 0.0612 0.0313 0.1906
Zn3_3 Zn 0.98767(9) 0.0000 1.0000
Zn3_4 Zn 0.98767(9) 1.0000 0.0000
H10_2 H 0.0612 0.9687 0.8094
loop_
_geom_bond_atom_site_label_1
_geom_bond_atom_site_label_2
_geom_bond_site_symmetry_1
_geom_bond_site_symmetry_2
O6 Zn2 1_555 1_555
O9 Zn2 1_555 1_555
C1 H1 1_555 1_555
C2 C1 1_555 1_555
H2 C2 1_555 1_555
C3 C2 1_555 1_555
C4 C3 1_555 1_555
H3 C4 1_555 1_555
C5 C4 1_555 1_555
H4 C5 1_555 1_555
C6 C3 1_555 1_555
H5 C6 1_555 1_555
H6 C6 1_555 1_555
C7 C6 1_555 1_555
H7 C7 1_555 1_555
H8 C7 1_555 1_555
C8 C7 1_555 1_555
C9 C8 1_555 1_555
H9 C9 1_555 1_555
C10 C9 1_555 1_555
C11 H11 1_555 1_555
C12 C8 1_555 1_555
H12 C12 1_555 1_555
C13 C14 1_555 1_555
C14 C15 1_555 1_555
C15 H13 1_555 1_555
C16 C15 1_555 1_555
H14 C16 1_555 1_555
C17 C16 1_555 1_555
C18 H15 1_555 1_555
C19 C18 1_555 1_555
H16 C19 1_555 1_555
C20 C19 1_555 1_555
H17 C20 1_555 1_555
C21 C20 1_555 1_555
H18 C21 1_555 1_555
C22 C14 1_555 1_555
C23 C17 1_555 1_555
C24 C17 1_555 1_555
N1 C1 1_555 1_555
N2 C10 1_555 1_555
O6 C13 1_555 1_555
O9 C13 1_555 1_555
O3 C24 1_555 1_555
O4 C24 1_555 1_555
Zn1 N1 1_555 1_555
C5 N1 1_555 1_555
C11 C12 1_555 1_555
C11 N2 1_555 1_555
C18 C23 1_555 1_555
C21 C22 1_555 1_555
C22 C23 1_555 1_555
O3 Zn1 1_555 1_555
O4 Zn1 1_555 1_555
O7 Zn2_2 1_555 1_555
O10 Zn2_2 1_555 1_555
C25 H19 1_555 1_555
C26 C25 1_555 1_555
H20 C26 1_555 1_555
C27 C26 1_555 1_555
C28 C27 1_555 1_555
H21 C28 1_555 1_555
C29 C28 1_555 1_555
H22 C29 1_555 1_555
C30 C27 1_555 1_555
H23 C30 1_555 1_555
H24 C30 1_555 1_555
C31 C30 1_555 1_555
H25 C31 1_555 1_555
H26 C31 1_555 1_555
C32 C31 1_555 1_555
C33 C32 1_555 1_555
H27 C33 1_555 1_555
C34 C33 1_555 1_555
C35 H29 1_555 1_555
C36 C32 1_555 1_555
H30 C36 1_555 1_555
C37 C38 1_555 1_555
C38 C39 1_555 1_555
C39 H31 1_555 1_555
C40 C39 1_555 1_555
H32 C40 1_555 1_555
C41 C40 1_555 1_555
C42 H33 1_555 1_555
C43 C42 1_555 1_555
H34 C43 1_555 1_555
C44 C43 1_555 1_555
H35 C44 1_555 1_555
C45 C44 1_555 1_555
H36 C45 1_555 1_555
C46 C38 1_555 1_555
C47 C41 1_555 1_555
C48 C41 1_555 1_555
N3 Zn1_2 1_555 1_555
N5 C34 1_555 1_555
O7 C37 1_555 1_555
O10 C37 1_555 1_555
O11 Zn1_2 1_555 1_555
O12 Zn1_2 1_555 1_555
C25 N3 1_555 1_555
C29 N3 1_555 1_555
C35 C36 1_555 1_555
C35 N5 1_555 1_555
C42 C47 1_555 1_555
C45 C46 1_555 1_555
C46 C47 1_555 1_555
C48 O11 1_555 1_555
C48 O12 1_555 1_555
C1_2 H1_2 1_555 1_555
C2_2 C1_2 1_555 1_555
H2_2 C2_2 1_555 1_555
C3_2 C2_2 1_555 1_555
C4_2 C3_2 1_555 1_555
H3_2 C4_2 1_555 1_555
C5_2 C4_2 1_555 1_555
H4_2 C5_2 1_555 1_555
C6_2 C3_2 1_555 1_555
H5_2 C6_2 1_555 1_555
H6_2 C6_2 1_555 1_555
C7_2 C6_2 1_555 1_555
H7_2 C7_2 1_555 1_555
H8_2 C7_2 1_555 1_555
C8_2 C7_2 1_555 1_555
C9_2 C8_2 1_555 1_555
H9_2 C9_2 1_555 1_555
C10_2 C9_2 1_555 1_555
C11_2 H11_2 1_555 1_555
C12_2 C8_2 1_555 1_555
H12_2 C12_2 1_555 1_555
C13_2 C14_2 1_555 1_555
C14_2 C15_2 1_555 1_555
C15_2 H13_2 1_555 1_555
C16_2 C15_2 1_555 1_555
H14_2 C16_2 1_555 1_555
C17_2 C16_2 1_555 1_555
C18_2 H15_2 1_555 1_555
C19_2 C18_2 1_555 1_555
H16_2 C19_2 1_555 1_555
C20_2 C19_2 1_555 1_555
H17_2 C20_2 1_555 1_555
C21_2 C20_2 1_555 1_555
H18_2 C21_2 1_555 1_555
C22_2 C14_2 1_555 1_555
C23_2 C17_2 1_555 1_555
C24_2 C17_2 1_555 1_555
N1_2 C1_2 1_555 1_555
N2_2 C10_2 1_555 1_555
O1 C13_2 1_555 1_555
O2 C13_2 1_555 1_555
O3_2 C24_2 1_555 1_555
O4_2 C24_2 1_555 1_555
Zn1_3 N1_2 1_555 1_555
C25_2 H19_2 1_555 1_555
C26_2 C25_2 1_555 1_555
H20_2 C26_2 1_555 1_555
C27_2 C26_2 1_555 1_555
C28_2 C27_2 1_555 1_555
H21_2 C28_2 1_555 1_555
C29_2 C28_2 1_555 1_555
H22_2 C29_2 1_555 1_555
C30_2 C27_2 1_555 1_555
H23_2 C30_2 1_555 1_555
H24_2 C30_2 1_555 1_555
C31_2 C30_2 1_555 1_555
H25_2 C31_2 1_555 1_555
H26_2 C31_2 1_555 1_555
C32_2 C31_2 1_555 1_555
C33_2 C32_2 1_555 1_555
H27_2 C33_2 1_555 1_555
C34_2 C33_2 1_555 1_555
C35_2 H29_2 1_555 1_555
C36_2 C32_2 1_555 1_555
H30_2 C36_2 1_555 1_555
C37_2 C38_2 1_555 1_555
C38_2 C39_2 1_555 1_555
C39_2 H31_2 1_555 1_555
C40_2 C39_2 1_555 1_555
H32_2 C40_2 1_555 1_555
C41_2 C40_2 1_555 1_555
C42_2 H33_2 1_555 1_555
C43_2 C42_2 1_555 1_555
H34_2 C43_2 1_555 1_555
C44_2 C43_2 1_555 1_555
H35_2 C44_2 1_555 1_555
C45_2 C44_2 1_555 1_555
H36_2 C45_2 1_555 1_555
C46_2 C38_2 1_555 1_555
C47_2 C41_2 1_555 1_555
C48_2 C41_2 1_555 1_555
N3_2 Zn1_3 1_555 1_555
N4 C34_2 1_555 1_555
O5 C37_2 1_555 1_555
O8 C37_2 1_555 1_555
O11_2 Zn1_3 1_555 1_555
O12_2 Zn1_3 1_555 1_555
Zn3_2 O1 1_555 1_555
Zn3 O5 1_555 1_555
C5_2 N1_2 1_555 1_555
C11_2 C12_2 1_555 1_555
C11_2 N2_2 1_555 1_555
C18_2 C23_2 1_555 1_555
C21_2 C22_2 1_555 1_555
C22_2 C23_2 1_555 1_555
O2 Zn3_2 1_555 1_555
O3_2 Zn1_3 1_555 1_555
O4_2 Zn1_3 1_555 1_555
C25_2 N3_2 1_555 1_555
C29_2 N3_2 1_555 1_555
C35_2 C36_2 1_555 1_555
C35_2 N4 1_555 1_555
C42_2 C47_2 1_555 1_555
C45_2 C46_2 1_555 1_555
C46_2 C47_2 1_555 1_555
C48_2 O11_2 1_555 1_555
C48_2 O12_2 1_555 1_555
O8 Zn3 1_555 1_555

#END
