
###############################################################################
#
# This file contains modified crystal structure data generated from the
# MOF subset of the Cambridge Structural Database (CSD) v543 
# hosted by the Cambridge Crystallographic Data Centre (CCDC).
#
# This work is licensed under the Creative Commons
# Attribution-NonCommercial-ShareAlike 4.0 International License.
# To view a copy of this license, visit
# http://creativecommons.org/licenses/by-nc-sa/4.0/
# or send a letter to
# Creative Commons, PO Box 1866, Mountain View, CA 94042, USA.
#
# CIF created using the CSD Python API on 29 September 2022
# The structure has been converted into the P1 space group
# The structure has a 3D framework
# The original CSD entry XADFER is in the rhombohedral crystal system
# The framework has been calculated to contain at least 10.0% void space
# The void calculation uses a probe of radius 1.32A, grid spacing 0.4
#
###############################################################################

data_XADFER
_chemical_formula_moiety         '(C198 H198 Cu18 N18 O104)n'
_symmetry_cell_setting           triclinic
_symmetry_space_group_name_H-M   'P 1'
_symmetry_Int_Tables_number      1
_space_group_name_Hall           'P 1'
loop_
_symmetry_equiv_pos_site_id
_symmetry_equiv_pos_as_xyz
1 x,y,z
_cell_length_a                   18.8385(8)
_cell_length_b                   18.8385(8)
_cell_length_c                   22.4261(8)
_cell_angle_alpha                90
_cell_angle_beta                 90
_cell_angle_gamma                120
_cell_volume                     6892.5
loop_
_atom_site_label
_atom_site_type_symbol
_atom_site_fract_x
_atom_site_fract_y
_atom_site_fract_z
Cu1 Cu 0.54505(4) 0.46783(4) 0.48540(3)
O1 O 0.5769(3) 0.5387(3) 0.41530(18)
O2 O 0.7231(3) 0.6119(4) 0.22268(18)
O3 O 0.7752(3) 0.7433(4) 0.19686(19)
O4 O 0.6053(4) 0.4002(4) 0.4645(3)
H1 H 0.6691 0.4215 0.4663
H2 H 0.5787 0.3387 0.4505
O5 O 0.4978(3) 0.5915(3) 0.43861(18)
N1 N 0.5609(4) 0.8088(4) 0.2850(2)
H3 H 0.5221 0.8024 0.3085
O6 O 0.6420(4) 0.8906(4) 0.2106(3)
C1 C 0.5491(4) 0.5856(4) 0.4063(2)
C2 C 0.6649(4) 0.6854(4) 0.2646(2)
C3 C 0.5577(4) 0.6985(4) 0.3422(3)
H4 H 0.5220 0.7031 0.3684
C4 C 0.5800(3) 0.6399(4) 0.3519(2)
C5 C 0.6434(4) 0.7454(4) 0.2549(3)
H5 H 0.6656 0.7814 0.2230
C6 C 0.5887(4) 0.7509(4) 0.2931(3)
C7 C 0.6326(3) 0.6322(4) 0.3127(2)
H6 H 0.6462 0.5916 0.3186
C8 C 0.7246(4) 0.6791(4) 0.2247(2)
C9 C 0.5863(5) 0.8709(5) 0.2467(3)
C10 C 0.5361(6) 0.9151(6) 0.2504(4)
H7 H 0.5321 0.9278 0.2918
H8 H 0.5643 0.9663 0.2286
C11 C 0.4504(7) 0.8626(7) 0.2249(5)
H9 H 0.4541 0.8446 0.1856
H10 H 0.4233 0.8942 0.2230
H11 H 0.4196 0.8157 0.2501
Cu2 Cu 0.86550(4) 0.74389(6) 0.15207(3)
Cu3 Cu 0.45495(4) 0.53217(4) 0.51460(3)
Cu4 Cu 0.80116(4) 0.58945(6) 0.18127(3)
O7 O 0.4445(5) 0.3898(3) 0.44399(18)
O8 O 0.6348(5) 0.5581(3) 0.53019(19)
O9 O 0.5022(3) 0.4085(3) 0.56139(18)
Cu1_2 Cu 0.53217(4) 0.07722(6) 0.48540(3)
O1_2 O 0.4613(3) 0.0382(4) 0.41530(18)
O2_2 O 0.3881(4) 0.1112(5) 0.22268(18)
O3_2 O 0.2567(4) 0.0319(5) 0.19686(19)
O4_2 O 0.5998(4) 0.2051(6) 0.4645(3)
H1_2 H 0.5785 0.2476 0.4663
H2_2 H 0.6613 0.2400 0.4505
C7_2 C 0.3678(4) 0.0004(5) 0.3127(2)
H6_2 H 0.4084 0.0546 0.3186
C8_2 C 0.3209(4) 0.0455(6) 0.2247(2)
Cu2_2 Cu 0.25611(6) 0.12162(7) 0.15207(3)
Cu4_2 Cu 0.41055(6) 0.21172(7) 0.18127(3)
O7_2 O 0.6102(3) 0.0548(6) 0.44399(18)
O8_2 O 0.4419(3) 0.0766(6) 0.53019(19)
O9_2 O 0.5915(3) 0.0937(4) 0.56139(18)
O5_2 O 0.4085(3) 0.9063(4) 0.43861(18)
N1_2 N 0.1912(4) 0.7521(6) 0.2850(2)
H3_2 H 0.1976 0.7197 0.3085
O6_2 O 0.1094(4) 0.7514(6) 0.2106(3)
C1_2 C 0.4144(4) 0.9635(6) 0.4063(2)
C2_2 C 0.3146(4) 0.9795(6) 0.2646(2)
C3_2 C 0.3015(4) 0.8592(6) 0.3422(3)
H4_2 H 0.2969 0.8189 0.3684
C4_2 C 0.3601(4) 0.9401(5) 0.3519(2)
C5_2 C 0.2546(4) 0.8980(6) 0.2549(3)
H5_2 H 0.2186 0.8842 0.2230
C6_2 C 0.2491(4) 0.8378(6) 0.2931(3)
C9_2 C 0.1291(5) 0.7154(7) 0.2467(3)
C10_2 C 0.0849(6) 0.6210(8) 0.2504(4)
H7_2 H 0.0722 0.6043 0.2918
H8_2 H 0.0337 0.5980 0.2286
C11_2 C 0.1374(7) 0.5878(10) 0.2249(5)
H9_2 H 0.1554 0.6095 0.1856
H10_2 H 0.1058 0.5291 0.2230
H11_2 H 0.1843 0.6039 0.2501
Cu3_2 Cu 0.46783(4) 0.92278(6) 0.51460(3)
O5_3 O 0.0937(4) 0.5022(3) 0.43861(18)
N1_3 N 0.2479(6) 0.4391(4) 0.2850(2)
H3_3 H 0.2803 0.4779 0.3085
O6_3 O 0.2486(6) 0.3580(4) 0.2106(3)
C1_3 C 0.0365(6) 0.4509(4) 0.4063(2)
C2_3 C 0.0205(6) 0.3351(4) 0.2646(2)
C3_3 C 0.1408(6) 0.4423(4) 0.3422(3)
H4_3 H 0.1811 0.4780 0.3684
C4_3 C 0.0599(5) 0.4200(3) 0.3519(2)
C5_3 C 0.1020(6) 0.3566(4) 0.2549(3)
H5_3 H 0.1158 0.3344 0.2230
C6_3 C 0.1622(6) 0.4113(4) 0.2931(3)
C9_3 C 0.2846(7) 0.4137(5) 0.2467(3)
C10_3 C 0.3790(8) 0.4639(6) 0.2504(4)
H7_3 H 0.3957 0.4679 0.2918
H8_3 H 0.4020 0.4357 0.2286
C11_3 C 0.4122(10) 0.5496(7) 0.2249(5)
H9_3 H 0.3905 0.5459 0.1856
H10_3 H 0.4709 0.5767 0.2230
H11_3 H 0.3961 0.5804 0.2501
Cu3_3 Cu 0.07722(6) 0.54505(4) 0.51460(3)
Cu1_3 Cu 0.92278(6) 0.45495(4) 0.48540(3)
O1_3 O 0.9618(4) 0.4231(3) 0.41530(18)
O2_3 O 0.8888(5) 0.2769(3) 0.22268(18)
O3_3 O 0.9681(5) 0.2248(3) 0.19686(19)
O4_3 O 0.7949(6) 0.3947(4) 0.4645(3)
H1_3 H 0.7524 0.3309 0.4663
H2_3 H 0.7600 0.4213 0.4505
C7_3 C 0.9996(5) 0.3674(3) 0.3127(2)
H6_3 H 0.9454 0.3538 0.3186
C8_3 C 0.9545(6) 0.2754(4) 0.2247(2)
Cu2_3 Cu 0.87838(7) 0.13450(4) 0.15207(3)
Cu4_3 Cu 0.78828(7) 0.19884(4) 0.18127(3)
O7_3 O 0.9452(6) 0.5555(5) 0.44399(18)
O8_3 O 0.9234(6) 0.3652(5) 0.53019(19)
O9_3 O 0.9063(4) 0.4978(3) 0.56139(18)
N1_4 N 0.2276(4) 0.1421(4) 0.6183(2)
H3_4 H 0.1888 0.1357 0.6418
O6_4 O 0.3087(4) 0.2239(4) 0.5439(3)
C2_4 C 0.3316(4) 0.0187(4) 0.5979(2)
C3_4 C 0.2244(4) 0.0318(4) 0.6755(3)
H4_4 H 0.1887 0.0364 0.7017
C5_4 C 0.3101(4) 0.0787(4) 0.5882(3)
H5_4 H 0.3323 0.1147 0.5563
C6_4 C 0.2554(4) 0.0842(4) 0.6264(3)
C8_4 C 0.3913(4) 0.0124(4) 0.5580(2)
C9_4 C 0.2530(5) 0.2042(5) 0.5800(3)
C10_4 C 0.2028(6) 0.2484(6) 0.5837(4)
H7_4 H 0.1988 0.2611 0.6251
H8_4 H 0.2310 0.2996 0.5619
C11_4 C 0.1171(7) 0.1959(7) 0.5582(5)
H9_4 H 0.1208 0.1779 0.5189
H10_4 H 0.0900 0.2275 0.5563
H11_4 H 0.0863 0.1490 0.5834
Cu1_4 Cu 0.21172(4) 0.80116(4) 0.81873(3)
O1_4 O 0.2436(3) 0.8720(3) 0.74863(18)
O2_4 O 0.3898(3) 0.9452(4) 0.55601(18)
O4_4 O 0.2720(4) 0.7335(4) 0.7978(3)
H1_4 H 0.3358 0.7548 0.7996
H2_4 H 0.2454 0.6720 0.7838
O5_4 O 0.1645(3) 0.9248(3) 0.77194(18)
C1_4 C 0.2158(4) 0.9189(4) 0.7396(2)
C4_4 C 0.2467(3) 0.9732(4) 0.6852(2)
C7_4 C 0.2993(3) 0.9655(4) 0.6460(2)
H6_4 H 0.3129 0.9249 0.6519
Cu3_4 Cu 0.12162(4) 0.86550(4) 0.84793(3)
O7_4 O 0.1112(5) 0.7231(3) 0.77732(18)
O8_4 O 0.3014(5) 0.8915(3) 0.86353(19)
O9_4 O 0.1689(3) 0.7418(3) 0.89472(18)
Cu1_5 Cu 0.19884(4) 0.41055(6) 0.81873(3)
O1_5 O 0.1280(3) 0.3715(4) 0.74863(18)
O2_5 O 0.0548(4) 0.4445(5) 0.55601(18)
O4_5 O 0.2665(4) 0.5384(6) 0.7978(3)
H1_5 H 0.2452 0.5809 0.7996
H2_5 H 0.3280 0.5733 0.7838
O5_5 O 0.0752(3) 0.2396(4) 0.77194(18)
C1_5 C 0.0811(4) 0.2968(6) 0.7396(2)
C4_5 C 0.0268(4) 0.2734(5) 0.6852(2)
C7_5 C 0.0345(4) 0.3337(5) 0.6460(2)
H6_5 H 0.0751 0.3879 0.6519
Cu3_5 Cu 0.13450(4) 0.25611(6) 0.84793(3)
O7_5 O 0.2769(3) 0.3881(6) 0.77732(18)
O8_5 O 0.1085(3) 0.4100(6) 0.86353(19)
O9_5 O 0.2582(3) 0.4270(4) 0.89472(18)
N1_5 N 0.8579(4) 0.0854(6) 0.6183(2)
H3_5 H 0.8643 0.0530 0.6418
O6_5 O 0.7761(4) 0.0847(6) 0.5439(3)
C2_5 C 0.9813(4) 0.3128(6) 0.5979(2)
C3_5 C 0.9682(4) 0.1925(6) 0.6755(3)
H4_5 H 0.9636 0.1522 0.7017
C5_5 C 0.9213(4) 0.2313(6) 0.5882(3)
H5_5 H 0.8853 0.2175 0.5563
C6_5 C 0.9158(4) 0.1711(6) 0.6264(3)
C8_5 C 0.9876(4) 0.3788(6) 0.5580(2)
C9_5 C 0.7958(5) 0.0487(7) 0.5800(3)
Cu1_6 Cu 0.58945(6) 0.78828(4) 0.81873(3)
O1_6 O 0.6285(4) 0.7564(3) 0.74863(18)
O2_6 O 0.5555(5) 0.6102(3) 0.55601(18)
O4_6 O 0.4616(6) 0.7280(4) 0.7978(3)
H1_6 H 0.4191 0.6642 0.7996
H2_6 H 0.4267 0.7546 0.7838
O5_6 O 0.7604(4) 0.8355(3) 0.77194(18)
N1_6 N 0.9146(6) 0.7724(4) 0.6183(2)
H3_6 H 0.9470 0.8112 0.6418
O6_6 O 0.9153(6) 0.6913(4) 0.5439(3)
C1_6 C 0.7032(6) 0.7842(4) 0.7396(2)
C2_6 C 0.6872(6) 0.6684(4) 0.5979(2)
C3_6 C 0.8075(6) 0.7756(4) 0.6755(3)
H4_6 H 0.8478 0.8113 0.7017
C4_6 C 0.7266(5) 0.7533(3) 0.6852(2)
C5_6 C 0.7687(6) 0.6899(4) 0.5882(3)
H5_6 H 0.7825 0.6677 0.5563
C6_6 C 0.8289(6) 0.7446(4) 0.6264(3)
C7_6 C 0.6663(5) 0.7007(3) 0.6460(2)
H6_6 H 0.6121 0.6871 0.6519
C8_6 C 0.6212(6) 0.6087(4) 0.5580(2)
C9_6 C 0.9513(7) 0.7470(5) 0.5800(3)
Cu3_6 Cu 0.74389(6) 0.87838(4) 0.84793(3)
O7_6 O 0.6119(6) 0.8888(5) 0.77732(18)
O8_6 O 0.5900(6) 0.6986(5) 0.86353(19)
O9_6 O 0.5730(4) 0.8311(3) 0.89472(18)
O2_7 O 0.0564(3) 0.2786(4) 0.88935(18)
C8_7 C 0.0579(4) 0.3458(4) 0.8914(2)
O1_7 O 0.9102(3) 0.2054(3) 0.08197(18)
O4_7 O 0.9386(4) 0.0669(4) 0.1312(3)
H2_7 H 0.9120 0.0054 0.1172
O5_7 O 0.8311(3) 0.2582(3) 0.10528(18)
C1_7 C 0.8824(4) 0.2523(4) 0.0730(2)
C3_7 C 0.8910(4) 0.3652(4) 0.0089(3)
H4_7 H 0.8553 0.3698 0.0351
C4_7 C 0.9133(3) 0.3066(4) 0.0186(2)
O7_7 O 0.7779(5) 0.0564(3) 0.11065(18)
O9_7 O 0.8355(3) 0.0752(3) 0.22806(18)
O1_8 O 0.7946(3) 0.7049(4) 0.08197(18)
O4_8 O 0.9331(4) 0.8718(6) 0.1312(3)
H1_7 H 0.9118 0.9143 0.1330
H2_8 H 0.9946 0.9067 0.1172
O5_8 O 0.7418(3) 0.5730(4) 0.10528(18)
C1_8 C 0.7477(4) 0.6302(6) 0.0730(2)
C3_8 C 0.6348(4) 0.5259(6) 0.0089(3)
H4_8 H 0.6302 0.4856 0.0351
C4_8 C 0.6934(4) 0.6068(5) 0.0186(2)
O7_8 O 0.9436(3) 0.7214(6) 0.11065(18)
O9_8 O 0.9248(3) 0.7604(4) 0.22806(18)
O2_8 O 0.7214(4) 0.7779(5) 0.88935(18)
N1_7 N 0.5245(4) 0.4188(6) 0.9517(2)
H3_7 H 0.5309 0.3864 0.9752
O6_7 O 0.4427(4) 0.4181(6) 0.8773(3)
C2_7 C 0.6479(4) 0.6462(6) 0.9313(2)
C5_7 C 0.5879(4) 0.5647(6) 0.9216(3)
H5_7 H 0.5519 0.5509 0.8897
C6_7 C 0.5824(4) 0.5045(6) 0.9598(3)
C7_7 C 0.7011(4) 0.6671(5) 0.9794(2)
H6_7 H 0.7417 0.7213 0.9853
C8_8 C 0.6542(4) 0.7122(6) 0.8914(2)
C9_7 C 0.4624(5) 0.3821(7) 0.9134(3)
C10_5 C 0.4182(6) 0.2877(8) 0.9171(4)
H7_5 H 0.4055 0.2710 0.9585
H8_5 H 0.3670 0.2647 0.8953
C11_5 C 0.4707(7) 0.2545(10) 0.8916(5)
H9_5 H 0.4887 0.2762 0.8523
H10_5 H 0.4391 0.1958 0.8897
H11_5 H 0.5176 0.2706 0.9168
O1_9 O 0.2951(4) 0.0898(3) 0.08197(18)
O4_9 O 0.1282(6) 0.0614(4) 0.1312(3)
H2_9 H 0.0933 0.0880 0.1172
O5_9 O 0.4270(4) 0.1689(3) 0.10528(18)
C1_9 C 0.3698(6) 0.1176(4) 0.0730(2)
C3_9 C 0.4741(6) 0.1090(4) 0.0089(3)
H4_9 H 0.5144 0.1447 0.0351
C4_9 C 0.3932(5) 0.0867(3) 0.0186(2)
O7_9 O 0.2786(6) 0.2221(5) 0.11065(18)
O9_9 O 0.2396(4) 0.1645(3) 0.22806(18)
O2_9 O 0.2221(5) 0.9436(3) 0.88935(18)
C8_9 C 0.2878(6) 0.9421(4) 0.8914(2)
O1_10 O 0.4231(3) 0.4613(3) 0.58470(18)
O3_4 O 0.2248(3) 0.2567(4) 0.80314(19)
O4_10 O 0.3947(4) 0.5998(4) 0.5355(3)
H1_8 H 0.3309 0.5785 0.5337
H2_10 H 0.4213 0.6613 0.5495
N1_8 N 0.4391(4) 0.1912(4) 0.7150(2)
H3_8 H 0.4779 0.1976 0.6915
O6_8 O 0.3580(4) 0.1094(4) 0.7894(3)
C1_10 C 0.4509(4) 0.4144(4) 0.5937(2)
C2_8 C 0.3351(4) 0.3146(4) 0.7354(2)
C3_10 C 0.4423(4) 0.3015(4) 0.6578(3)
H4_10 H 0.4780 0.2969 0.6316
C4_10 C 0.4200(3) 0.3601(4) 0.6481(2)
C5_8 C 0.3566(4) 0.2546(4) 0.7451(3)
H5_8 H 0.3344 0.2186 0.7770
C6_8 C 0.4113(4) 0.2491(4) 0.7069(3)
C7_8 C 0.3674(3) 0.3678(4) 0.6873(2)
H6_8 H 0.3538 0.4084 0.6814
C8_10 C 0.2754(4) 0.3209(4) 0.7753(2)
C9_8 C 0.4137(5) 0.1291(5) 0.7533(3)
C10_6 C 0.4639(6) 0.0849(6) 0.7496(4)
H7_6 H 0.4679 0.0722 0.7082
H8_6 H 0.4357 0.0337 0.7714
C11_6 C 0.5496(7) 0.1374(7) 0.7751(5)
H9_6 H 0.5459 0.1554 0.8144
H10_6 H 0.5767 0.1058 0.7770
H11_6 H 0.5804 0.1843 0.7499
O8_7 O 0.3652(5) 0.4419(3) 0.46981(19)
N1_9 N 0.8088(4) 0.2479(6) 0.7150(2)
H3_9 H 0.8024 0.2803 0.6915
O6_9 O 0.8906(4) 0.2486(6) 0.7894(3)
C1_11 C 0.5856(4) 0.0365(6) 0.5937(2)
C2_9 C 0.6854(4) 0.0205(6) 0.7354(2)
C3_11 C 0.6985(4) 0.1408(6) 0.6578(3)
H4_11 H 0.7031 0.1811 0.6316
C4_11 C 0.6399(4) 0.0599(5) 0.6481(2)
C5_9 C 0.7454(4) 0.1020(6) 0.7451(3)
H5_9 H 0.7814 0.1158 0.7770
C6_9 C 0.7509(4) 0.1622(6) 0.7069(3)
C9_9 C 0.8709(5) 0.2846(7) 0.7533(3)
C10_7 C 0.9151(6) 0.3790(8) 0.7496(4)
H7_7 H 0.9278 0.3957 0.7082
H8_7 H 0.9663 0.4020 0.7714
C11_7 C 0.8626(7) 0.4122(10) 0.7751(5)
H9_7 H 0.8446 0.3905 0.8144
H10_7 H 0.8942 0.4709 0.7770
H11_7 H 0.8157 0.3961 0.7499
O1_11 O 0.5387(3) 0.9618(4) 0.58470(18)
O3_5 O 0.7433(4) 0.9681(5) 0.80314(19)
O4_11 O 0.4002(4) 0.7949(6) 0.5355(3)
H1_9 H 0.4215 0.7524 0.5337
H2_11 H 0.3387 0.7600 0.5495
C7_9 C 0.6322(4) 0.9996(5) 0.6873(2)
H6_9 H 0.5916 0.9454 0.6814
C8_11 C 0.6791(4) 0.9545(6) 0.7753(2)
O8_8 O 0.5581(3) 0.9234(6) 0.46981(19)
O1_12 O 0.0382(4) 0.5769(3) 0.58470(18)
O3_6 O 0.0319(5) 0.7752(3) 0.80314(19)
O4_12 O 0.2051(6) 0.6053(4) 0.5355(3)
H1_10 H 0.2476 0.6691 0.5337
H2_12 H 0.2400 0.5787 0.5495
C7_10 C 0.0004(5) 0.6326(3) 0.6873(2)
H6_10 H 0.0546 0.6462 0.6814
C8_12 C 0.0455(6) 0.7246(4) 0.7753(2)
O8_9 O 0.0766(6) 0.6348(5) 0.46981(19)
N1_10 N 0.7521(6) 0.5609(4) 0.7150(2)
H3_10 H 0.7197 0.5221 0.6915
O6_10 O 0.7514(6) 0.6420(4) 0.7894(3)
C1_12 C 0.9635(6) 0.5491(4) 0.5937(2)
C2_10 C 0.9795(6) 0.6649(4) 0.7354(2)
C3_12 C 0.8592(6) 0.5577(4) 0.6578(3)
H4_12 H 0.8189 0.5220 0.6316
C4_12 C 0.9401(5) 0.5800(3) 0.6481(2)
C5_10 C 0.8980(6) 0.6434(4) 0.7451(3)
H5_10 H 0.8842 0.6656 0.7770
C6_10 C 0.8378(6) 0.5887(4) 0.7069(3)
C9_10 C 0.7154(7) 0.5863(5) 0.7533(3)
C10_8 C 0.6210(8) 0.5361(6) 0.7496(4)
H7_8 H 0.6043 0.5321 0.7082
H8_8 H 0.5980 0.5643 0.7714
C11_8 C 0.5878(10) 0.4504(7) 0.7751(5)
H9_8 H 0.6095 0.4541 0.8144
H10_8 H 0.5291 0.4233 0.7770
H11_8 H 0.6039 0.4196 0.7499
O1_13 O 0.7564(3) 0.1280(3) 0.25137(18)
O4_13 O 0.7280(4) 0.2665(4) 0.2022(3)
H1_11 H 0.6642 0.2452 0.2004
H2_13 H 0.7546 0.3280 0.2162
C1_13 C 0.7842(4) 0.0811(4) 0.2604(2)
C4_13 C 0.7533(3) 0.0268(4) 0.3148(2)
C7_11 C 0.7007(3) 0.0345(4) 0.3540(2)
H6_11 H 0.6871 0.0751 0.3481
O8_10 O 0.6986(5) 0.1085(3) 0.13647(19)
N1_11 N 0.7724(4) 0.8579(4) 0.3817(2)
H3_11 H 0.8112 0.8643 0.3582
O6_11 O 0.6913(4) 0.7761(4) 0.4561(3)
C2_11 C 0.6684(4) 0.9813(4) 0.4021(2)
C3_13 C 0.7756(4) 0.9682(4) 0.3245(3)
H4_13 H 0.8113 0.9636 0.2983
C5_11 C 0.6899(4) 0.9213(4) 0.4118(3)
H5_11 H 0.6677 0.8853 0.4437
C6_11 C 0.7446(4) 0.9158(4) 0.3736(3)
C8_13 C 0.6087(4) 0.9876(4) 0.4420(2)
C9_11 C 0.7470(5) 0.7958(5) 0.4200(3)
C10_9 C 0.7972(6) 0.7516(6) 0.4163(4)
H7_9 H 0.8012 0.7389 0.3749
H8_9 H 0.7690 0.7004 0.4381
C11_9 C 0.8829(7) 0.8041(7) 0.4418(5)
H9_9 H 0.8792 0.8221 0.4811
H10_9 H 0.9100 0.7725 0.4437
H11_9 H 0.9137 0.8510 0.4166
N1_12 N 0.1421(4) 0.9146(6) 0.3817(2)
H3_12 H 0.1357 0.9470 0.3582
O6_12 O 0.2239(4) 0.9153(6) 0.4561(3)
C2_12 C 0.0187(4) 0.6872(6) 0.4021(2)
C3_14 C 0.0318(4) 0.8075(6) 0.3245(3)
H4_14 H 0.0364 0.8478 0.2983
C5_12 C 0.0787(4) 0.7687(6) 0.4118(3)
H5_12 H 0.1147 0.7825 0.4437
C6_12 C 0.0842(4) 0.8289(6) 0.3736(3)
C8_14 C 0.0124(4) 0.6212(6) 0.4420(2)
C9_12 C 0.2042(5) 0.9513(7) 0.4200(3)
O1_14 O 0.8720(3) 0.6285(4) 0.25137(18)
O4_14 O 0.7335(4) 0.4616(6) 0.2022(3)
H1_12 H 0.7548 0.4191 0.2004
H2_14 H 0.6720 0.4267 0.2162
C1_14 C 0.9189(4) 0.7032(6) 0.2604(2)
C4_14 C 0.9732(4) 0.7266(5) 0.3148(2)
C7_12 C 0.9655(4) 0.6663(5) 0.3540(2)
H6_12 H 0.9249 0.6121 0.3481
O8_11 O 0.8915(3) 0.5900(6) 0.13647(19)
O1_15 O 0.3715(4) 0.2436(3) 0.25137(18)
O4_15 O 0.5384(6) 0.2720(4) 0.2022(3)
H1_13 H 0.5809 0.3358 0.2004
H2_15 H 0.5733 0.2454 0.2162
N1_13 N 0.0854(6) 0.2276(4) 0.3817(2)
H3_13 H 0.0530 0.1888 0.3582
O6_13 O 0.0847(6) 0.3087(4) 0.4561(3)
C1_15 C 0.2968(6) 0.2158(4) 0.2604(2)
C2_13 C 0.3128(6) 0.3316(4) 0.4021(2)
C3_15 C 0.1925(6) 0.2244(4) 0.3245(3)
H4_15 H 0.1522 0.1887 0.2983
C4_15 C 0.2734(5) 0.2467(3) 0.3148(2)
C5_13 C 0.2313(6) 0.3101(4) 0.4118(3)
H5_13 H 0.2175 0.3323 0.4437
C6_13 C 0.1711(6) 0.2554(4) 0.3736(3)
C7_13 C 0.3337(5) 0.2993(3) 0.3540(2)
H6_13 H 0.3879 0.3129 0.3481
C8_15 C 0.3788(6) 0.3913(4) 0.4420(2)
C9_13 C 0.0487(7) 0.2530(5) 0.4200(3)
O8_12 O 0.4100(6) 0.3014(5) 0.13647(19)
O1_16 O 0.0898(3) 0.7946(3) 0.91803(18)
O4_16 O 0.0614(4) 0.9331(4) 0.8688(3)
H2_16 H 0.0880 0.9946 0.8828
C1_16 C 0.1176(4) 0.7477(4) 0.9270(2)
C3_16 C 0.1090(4) 0.6348(4) 0.9911(3)
H4_16 H 0.1447 0.6302 0.9649
C4_16 C 0.0867(3) 0.6934(4) 0.9814(2)
C8_16 C 0.9421(4) 0.6542(4) 0.1086(2)
N1_14 N 0.4755(4) 0.5812(6) 0.0483(2)
H3_14 H 0.4691 0.6136 0.0248
O6_14 O 0.5573(4) 0.5819(6) 0.1227(3)
C2_14 C 0.3521(4) 0.3538(6) 0.0687(2)
C5_14 C 0.4121(4) 0.4353(6) 0.0784(3)
H5_14 H 0.4481 0.4491 0.1103
C6_14 C 0.4176(4) 0.4955(6) 0.0402(3)
C7_14 C 0.2989(4) 0.3329(5) 0.0206(2)
H6_14 H 0.2583 0.2787 0.0147
C8_17 C 0.3458(4) 0.2878(6) 0.1086(2)
C9_14 C 0.5376(5) 0.6179(7) 0.0866(3)
C10_10 C 0.5818(6) 0.7123(8) 0.0829(4)
H7_10 H 0.5945 0.7290 0.0415
H8_10 H 0.6330 0.7353 0.1047
C11_10 C 0.5293(7) 0.7455(10) 0.1084(5)
H9_10 H 0.5113 0.7238 0.1477
H10_10 H 0.5609 0.8042 0.1103
H11_10 H 0.4824 0.7294 0.0832
O1_17 O 0.2054(3) 0.2951(4) 0.91803(18)
O4_17 O 0.0669(4) 0.1282(6) 0.8688(3)
H1_14 H 0.0882 0.0857 0.8670
H2_17 H 0.0054 0.0933 0.8828
C1_17 C 0.2523(4) 0.3698(6) 0.9270(2)
C3_17 C 0.3652(4) 0.4741(6) 0.9911(3)
H4_17 H 0.3698 0.5144 0.9649
C4_17 C 0.3066(4) 0.3932(5) 0.9814(2)
C8_18 C 0.7122(6) 0.0579(4) 0.1086(2)
O1_18 O 0.7049(4) 0.9102(3) 0.91803(18)
O4_18 O 0.8718(6) 0.9386(4) 0.8688(3)
H2_18 H 0.9067 0.9120 0.8828
C1_18 C 0.6302(6) 0.8824(4) 0.9270(2)
C3_18 C 0.5259(6) 0.8910(4) 0.9911(3)
H4_18 H 0.4856 0.8553 0.9649
C4_18 C 0.6068(5) 0.9133(3) 0.9814(2)
C10_11 C 0.7516(6) 0.9543(8) 0.5837(4)
H7_11 H 0.7389 0.9376 0.6251
H8_11 H 0.7004 0.9313 0.5619
C11_11 C 0.8041(7) 0.9211(10) 0.5582(5)
H9_11 H 0.8221 0.9428 0.5189
H10_11 H 0.7725 0.8624 0.5563
H11_11 H 0.8510 0.9372 0.5834
C10_12 C 0.0457(8) 0.7972(6) 0.5837(4)
H7_12 H 0.0624 0.8012 0.6251
H8_12 H 0.0687 0.7690 0.5619
C11_12 C 0.0789(10) 0.8829(7) 0.5582(5)
H9_12 H 0.0572 0.8792 0.5189
H10_12 H 0.1376 0.9100 0.5563
H11_12 H 0.0628 0.9137 0.5834
H1_15 H 0.0024 0.0882 0.1330
N1_15 N 0.8942(4) 0.4755(4) 0.9517(2)
H3_15 H 0.8554 0.4691 0.9752
O6_15 O 0.9753(4) 0.5573(4) 0.8773(3)
C2_15 C 0.9982(4) 0.3521(4) 0.9313(2)
C5_15 C 0.9767(4) 0.4121(4) 0.9216(3)
H5_15 H 0.9989 0.4481 0.8897
C6_15 C 0.9220(4) 0.4176(4) 0.9598(3)
C7_15 C 0.9659(3) 0.2989(4) 0.9794(2)
H6_15 H 0.9795 0.2583 0.9853
C9_15 C 0.9196(5) 0.5376(5) 0.9134(3)
C10_13 C 0.8694(6) 0.5818(6) 0.9171(4)
H7_13 H 0.8654 0.5945 0.9585
H8_13 H 0.8976 0.6330 0.8953
C11_13 C 0.7837(7) 0.5293(7) 0.8916(5)
H9_13 H 0.7874 0.5113 0.8523
H10_13 H 0.7566 0.5609 0.8897
H11_13 H 0.7529 0.4824 0.9168
N1_16 N 0.5812(6) 0.1058(4) 0.9517(2)
H3_16 H 0.6136 0.1446 0.9752
O6_16 O 0.5819(6) 0.0247(4) 0.8773(3)
C2_16 C 0.3538(6) 0.0018(4) 0.9313(2)
C5_16 C 0.4353(6) 0.0233(4) 0.9216(3)
H5_16 H 0.4491 0.0011 0.8897
C6_16 C 0.4955(6) 0.0780(4) 0.9598(3)
C7_16 C 0.3329(5) 0.0341(3) 0.9794(2)
H6_16 H 0.2787 0.0205 0.9853
C9_16 C 0.6179(7) 0.0804(5) 0.9134(3)
C10_14 C 0.7123(8) 0.1306(6) 0.9171(4)
H7_14 H 0.7290 0.1346 0.9585
H8_14 H 0.7353 0.1024 0.8953
C11_14 C 0.7455(10) 0.2163(7) 0.8916(5)
H9_14 H 0.7238 0.2126 0.8523
H10_14 H 0.8042 0.2434 0.8897
H11_14 H 0.7294 0.2471 0.9168
H1_16 H 0.0857 0.9976 0.1330
C10_15 C 0.2484(6) 0.0457(8) 0.4163(4)
H7_15 H 0.2611 0.0624 0.3749
H8_15 H 0.2996 0.0687 0.4381
C11_15 C 0.1959(7) 0.0789(10) 0.4418(5)
H9_15 H 0.1779 0.0572 0.4811
H10_15 H 0.2275 0.1376 0.4437
H11_15 H 0.1490 0.0628 0.4166
C10_16 C 0.9543(8) 0.2028(6) 0.4163(4)
H7_16 H 0.9376 0.1988 0.3749
H8_16 H 0.9313 0.2310 0.4381
C11_16 C 0.9211(10) 0.1171(7) 0.4418(5)
H9_16 H 0.9428 0.1208 0.4811
H10_16 H 0.8624 0.0900 0.4437
H11_16 H 0.9372 0.0863 0.4166
N1_17 N 0.1058(4) 0.5245(4) 0.0483(2)
H3_17 H 0.1446 0.5309 0.0248
O6_17 O 0.0247(4) 0.4427(4) 0.1227(3)
C2_17 C 0.0018(4) 0.6479(4) 0.0687(2)
C5_17 C 0.0233(4) 0.5879(4) 0.0784(3)
H5_17 H 0.0011 0.5519 0.1103
C6_17 C 0.0780(4) 0.5824(4) 0.0402(3)
C7_17 C 0.0341(3) 0.7011(4) 0.0206(2)
H6_17 H 0.0205 0.7417 0.0147
C9_17 C 0.0804(5) 0.4624(5) 0.0866(3)
C10_17 C 0.1306(6) 0.4182(6) 0.0829(4)
H7_17 H 0.1346 0.4055 0.0415
H8_17 H 0.1024 0.3670 0.1047
C11_17 C 0.2163(7) 0.4707(7) 0.1084(5)
H9_17 H 0.2126 0.4887 0.1477
H10_17 H 0.2434 0.4391 0.1103
H11_17 H 0.2471 0.5176 0.0832
H1_17 H 0.9976 0.9118 0.8670
H1_18 H 0.9143 0.0024 0.8670
N1_18 N 0.4188(6) 0.8942(4) 0.0483(2)
H3_18 H 0.3864 0.8554 0.0248
O6_18 O 0.4181(6) 0.9753(4) 0.1227(3)
C2_18 C 0.6462(6) 0.9982(4) 0.0687(2)
C5_18 C 0.5647(6) 0.9767(4) 0.0784(3)
H5_18 H 0.5509 0.9989 0.1103
C6_18 C 0.5045(6) 0.9220(4) 0.0402(3)
C7_18 C 0.6671(5) 0.9659(3) 0.0206(2)
H6_18 H 0.7213 0.9795 0.0147
C9_18 C 0.3821(7) 0.9196(5) 0.0866(3)
C10_18 C 0.2877(8) 0.8694(6) 0.0829(4)
H7_18 H 0.2710 0.8654 0.0415
H8_18 H 0.2647 0.8976 0.1047
C11_18 C 0.2545(10) 0.7837(7) 0.1084(5)
H9_18 H 0.2762 0.7874 0.1477
H10_18 H 0.1958 0.7566 0.1103
H11_18 H 0.2706 0.7529 0.0832
loop_
_geom_bond_atom_site_label_1
_geom_bond_atom_site_label_2
_geom_bond_site_symmetry_1
_geom_bond_site_symmetry_2
Cu1 O1 1_555 1_555
O1 C1 1_555 1_555
O2 C8 1_555 1_555
O3 C8 1_555 1_555
O4 Cu1 1_555 1_555
H1 O4 1_555 1_555
H2 O4 1_555 1_555
O5 C1 1_555 1_555
N1 H3 1_555 1_555
O6 C9 1_555 1_555
C1 C4 1_555 1_555
C2 C5 1_555 1_555
C3 H4 1_555 1_555
C4 C3 1_555 1_555
C5 H5 1_555 1_555
C6 N1 1_555 1_555
C7 C2 1_555 1_555
H6 C7 1_555 1_555
C8 C2 1_555 1_555
C9 N1 1_555 1_555
C10 C9 1_555 1_555
H7 C10 1_555 1_555
H8 C10 1_555 1_555
C11 C10 1_555 1_555
H9 C11 1_555 1_555
H10 C11 1_555 1_555
H11 C11 1_555 1_555
Cu2 O3 1_555 1_555
Cu3 O5 1_555 1_555
Cu4 O2 1_555 1_555
O7 Cu1 1_555 1_555
O8 Cu1 1_555 1_555
O9 Cu1 1_555 1_555
C3 C6 1_555 1_555
C4 C7 1_555 1_555
C5 C6 1_555 1_555
Cu1_2 O1_2 1_555 1_555
O2_2 C8_2 1_555 1_555
O3_2 C8_2 1_555 1_555
O4_2 Cu1_2 1_555 1_555
H1_2 O4_2 1_555 1_555
H2_2 O4_2 1_555 1_555
H6_2 C7_2 1_555 1_555
Cu2_2 O3_2 1_555 1_555
Cu4_2 O2_2 1_555 1_555
O7_2 Cu1_2 1_555 1_555
O8_2 Cu1_2 1_555 1_555
O9_2 Cu1_2 1_555 1_555
O5_2 C1_2 1_555 1_555
N1_2 H3_2 1_555 1_555
O6_2 C9_2 1_555 1_555
C1_2 C4_2 1_555 1_555
C2_2 C5_2 1_555 1_555
C3_2 H4_2 1_555 1_555
C4_2 C3_2 1_555 1_555
C5_2 H5_2 1_555 1_555
C6_2 N1_2 1_555 1_555
C9_2 N1_2 1_555 1_555
C10_2 C9_2 1_555 1_555
H7_2 C10_2 1_555 1_555
H8_2 C10_2 1_555 1_555
C11_2 C10_2 1_555 1_555
H9_2 C11_2 1_555 1_555
H10_2 C11_2 1_555 1_555
H11_2 C11_2 1_555 1_555
Cu3_2 O5_2 1_555 1_555
C3_2 C6_2 1_555 1_555
C5_2 C6_2 1_555 1_555
O5_3 C1_3 1_555 1_555
N1_3 H3_3 1_555 1_555
O6_3 C9_3 1_555 1_555
C1_3 C4_3 1_555 1_555
C2_3 C5_3 1_555 1_555
C3_3 H4_3 1_555 1_555
C4_3 C3_3 1_555 1_555
C5_3 H5_3 1_555 1_555
C6_3 N1_3 1_555 1_555
C9_3 N1_3 1_555 1_555
C10_3 C9_3 1_555 1_555
H7_3 C10_3 1_555 1_555
H8_3 C10_3 1_555 1_555
C11_3 C10_3 1_555 1_555
H9_3 C11_3 1_555 1_555
H10_3 C11_3 1_555 1_555
H11_3 C11_3 1_555 1_555
Cu3_3 O5_3 1_555 1_555
C3_3 C6_3 1_555 1_555
C5_3 C6_3 1_555 1_555
Cu1_3 O1_3 1_555 1_555
O2_3 C8_3 1_555 1_555
O3_3 C8_3 1_555 1_555
O4_3 Cu1_3 1_555 1_555
H1_3 O4_3 1_555 1_555
H2_3 O4_3 1_555 1_555
H6_3 C7_3 1_555 1_555
Cu2_3 O3_3 1_555 1_555
Cu4_3 O2_3 1_555 1_555
O7_3 Cu1_3 1_555 1_555
O8_3 Cu1_3 1_555 1_555
O9_3 Cu1_3 1_555 1_555
O8_2 C8_4 1_555 1_555
N1_4 H3_4 1_555 1_555
O6_4 C9_4 1_555 1_555
C2_4 C5_4 1_555 1_555
C3_4 H4_4 1_555 1_555
C5_4 H5_4 1_555 1_555
C6_4 N1_4 1_555 1_555
C8_4 C2_4 1_555 1_555
C9_4 N1_4 1_555 1_555
C10_4 C9_4 1_555 1_555
H7_4 C10_4 1_555 1_555
H8_4 C10_4 1_555 1_555
C11_4 C10_4 1_555 1_555
H9_4 C11_4 1_555 1_555
H10_4 C11_4 1_555 1_555
H11_4 C11_4 1_555 1_555
C3_4 C6_4 1_555 1_555
C5_4 C6_4 1_555 1_555
Cu1_4 O1_4 1_555 1_555
O1_4 C1_4 1_555 1_555
O4_4 Cu1_4 1_555 1_555
H1_4 O4_4 1_555 1_555
H2_4 O4_4 1_555 1_555
O5_4 C1_4 1_555 1_555
C1_4 C4_4 1_555 1_555
H6_4 C7_4 1_555 1_555
Cu3_4 O5_4 1_555 1_555
Cu3_2 O2_4 1_555 1_555
O7_4 Cu1_4 1_555 1_555
O8_4 Cu1_4 1_555 1_555
O9_4 Cu1_4 1_555 1_555
C4_4 C7_4 1_555 1_555
Cu1_5 O1_5 1_555 1_555
O1_5 C1_5 1_555 1_555
O4_5 Cu1_5 1_555 1_555
H1_5 O4_5 1_555 1_555
H2_5 O4_5 1_555 1_555
O5_5 C1_5 1_555 1_555
C1_5 C4_5 1_555 1_555
H6_5 C7_5 1_555 1_555
Cu3_5 O5_5 1_555 1_555
Cu3_3 O2_5 1_555 1_555
O7_5 Cu1_5 1_555 1_555
O8_5 Cu1_5 1_555 1_555
O9_5 Cu1_5 1_555 1_555
C4_5 C7_5 1_555 1_555
O8_3 C8_5 1_555 1_555
N1_5 H3_5 1_555 1_555
O6_5 C9_5 1_555 1_555
C2_5 C5_5 1_555 1_555
C3_5 H4_5 1_555 1_555
C5_5 H5_5 1_555 1_555
C6_5 N1_5 1_555 1_555
C8_5 C2_5 1_555 1_555
C9_5 N1_5 1_555 1_555
C3_5 C6_5 1_555 1_555
C5_5 C6_5 1_555 1_555
Cu1_6 O1_6 1_555 1_555
O1_6 C1_6 1_555 1_555
O2_6 C8_6 1_555 1_555
O8 C8_6 1_555 1_555
O4_6 Cu1_6 1_555 1_555
H1_6 O4_6 1_555 1_555
H2_6 O4_6 1_555 1_555
O5_6 C1_6 1_555 1_555
N1_6 H3_6 1_555 1_555
O6_6 C9_6 1_555 1_555
C1_6 C4_6 1_555 1_555
C2_6 C5_6 1_555 1_555
C3_6 H4_6 1_555 1_555
C4_6 C3_6 1_555 1_555
C5_6 H5_6 1_555 1_555
C6_6 N1_6 1_555 1_555
C7_6 C2_6 1_555 1_555
H6_6 C7_6 1_555 1_555
C8_6 C2_6 1_555 1_555
C9_6 N1_6 1_555 1_555
Cu3_6 O5_6 1_555 1_555
Cu3 O2_6 1_555 1_555
O7_6 Cu1_6 1_555 1_555
O8_6 Cu1_6 1_555 1_555
O9_6 Cu1_6 1_555 1_555
C3_6 C6_6 1_555 1_555
C4_6 C7_6 1_555 1_555
C5_6 C6_6 1_555 1_555
O2_7 C8_7 1_555 1_555
O8_5 C8_7 1_555 1_555
Cu3_5 O2_7 1_555 1_555
Cu2_3 O1_7 1_555 1_555
O1_7 C1_7 1_555 1_555
O4_7 Cu2_3 1_555 1_555
H2_7 O4_7 1_555 1_555
O5_7 C1_7 1_555 1_555
C1_7 C4_7 1_555 1_555
C3_7 H4_7 1_555 1_555
C4_7 C3_7 1_555 1_555
Cu4_3 O5_7 1_555 1_555
O7_7 Cu2_3 1_555 1_555
O9_7 Cu2_3 1_555 1_555
Cu2 O1_8 1_555 1_555
O1_8 C1_8 1_555 1_555
O4_8 Cu2 1_555 1_555
H1_7 O4_8 1_555 1_555
H2_8 O4_8 1_555 1_555
O5_8 C1_8 1_555 1_555
C1_8 C4_8 1_555 1_555
C3_8 H4_8 1_555 1_555
C4_8 C3_8 1_555 1_555
Cu4 O5_8 1_555 1_555
O7_8 Cu2 1_555 1_555
O9_8 Cu2 1_555 1_555
O2_8 C8_8 1_555 1_555
O8_6 C8_8 1_555 1_555
N1_7 H3_7 1_555 1_555
O6_7 C9_7 1_555 1_555
C2_7 C5_7 1_555 1_555
C5_7 H5_7 1_555 1_555
C6_7 N1_7 1_555 1_555
C7_7 C2_7 1_555 1_555
H6_7 C7_7 1_555 1_555
C8_8 C2_7 1_555 1_555
C9_7 N1_7 1_555 1_555
C10_5 C9_7 1_555 1_555
H7_5 C10_5 1_555 1_555
H8_5 C10_5 1_555 1_555
C11_5 C10_5 1_555 1_555
H9_5 C11_5 1_555 1_555
H10_5 C11_5 1_555 1_555
H11_5 C11_5 1_555 1_555
Cu3_6 O2_8 1_555 1_555
C5_7 C6_7 1_555 1_555
Cu2_2 O1_9 1_555 1_555
O1_9 C1_9 1_555 1_555
O4_9 Cu2_2 1_555 1_555
H2_9 O4_9 1_555 1_555
O5_9 C1_9 1_555 1_555
C1_9 C4_9 1_555 1_555
C3_9 H4_9 1_555 1_555
C4_9 C3_9 1_555 1_555
Cu4_2 O5_9 1_555 1_555
O7_9 Cu2_2 1_555 1_555
O9_9 Cu2_2 1_555 1_555
O2_9 C8_9 1_555 1_555
O8_4 C8_9 1_555 1_555
Cu3_4 O2_9 1_555 1_555
Cu3 O1_10 1_555 1_555
O1_10 C1_10 1_555 1_555
O7_5 C8_10 1_555 1_555
O3_4 C8_10 1_555 1_555
O4_10 Cu3 1_555 1_555
H1_8 O4_10 1_555 1_555
H2_10 O4_10 1_555 1_555
O9 C1_10 1_555 1_555
N1_8 H3_8 1_555 1_555
O6_8 C9_8 1_555 1_555
C1_10 C4_10 1_555 1_555
C2_8 C5_8 1_555 1_555
C3_10 H4_10 1_555 1_555
C4_10 C3_10 1_555 1_555
C5_8 H5_8 1_555 1_555
C6_8 N1_8 1_555 1_555
C7_8 C2_8 1_555 1_555
H6_8 C7_8 1_555 1_555
C8_10 C2_8 1_555 1_555
C9_8 N1_8 1_555 1_555
C10_6 C9_8 1_555 1_555
H7_6 C10_6 1_555 1_555
H8_6 C10_6 1_555 1_555
C11_6 C10_6 1_555 1_555
H9_6 C11_6 1_555 1_555
H10_6 C11_6 1_555 1_555
H11_6 C11_6 1_555 1_555
Cu3_5 O3_4 1_555 1_555
O8_7 Cu3 1_555 1_555
C3_10 C6_8 1_555 1_555
C4_10 C7_8 1_555 1_555
C5_8 C6_8 1_555 1_555
O9_2 C1_11 1_555 1_555
N1_9 H3_9 1_555 1_555
O6_9 C9_9 1_555 1_555
C1_11 C4_11 1_555 1_555
C2_9 C5_9 1_555 1_555
C3_11 H4_11 1_555 1_555
C4_11 C3_11 1_555 1_555
C5_9 H5_9 1_555 1_555
C6_9 N1_9 1_555 1_555
C9_9 N1_9 1_555 1_555
C10_7 C9_9 1_555 1_555
H7_7 C10_7 1_555 1_555
H8_7 C10_7 1_555 1_555
C11_7 C10_7 1_555 1_555
H9_7 C11_7 1_555 1_555
H10_7 C11_7 1_555 1_555
H11_7 C11_7 1_555 1_555
C3_11 C6_9 1_555 1_555
C5_9 C6_9 1_555 1_555
Cu3_2 O1_11 1_555 1_555
O7_6 C8_11 1_555 1_555
O3_5 C8_11 1_555 1_555
O4_11 Cu3_2 1_555 1_555
H1_9 O4_11 1_555 1_555
H2_11 O4_11 1_555 1_555
H6_9 C7_9 1_555 1_555
Cu3_6 O3_5 1_555 1_555
O8_8 Cu3_2 1_555 1_555
Cu3_3 O1_12 1_555 1_555
O7_4 C8_12 1_555 1_555
O3_6 C8_12 1_555 1_555
O4_12 Cu3_3 1_555 1_555
H1_10 O4_12 1_555 1_555
H2_12 O4_12 1_555 1_555
H6_10 C7_10 1_555 1_555
Cu3_4 O3_6 1_555 1_555
O8_9 Cu3_3 1_555 1_555
O9_3 C1_12 1_555 1_555
N1_10 H3_10 1_555 1_555
O6_10 C9_10 1_555 1_555
C1_12 C4_12 1_555 1_555
C2_10 C5_10 1_555 1_555
C3_12 H4_12 1_555 1_555
C4_12 C3_12 1_555 1_555
C5_10 H5_10 1_555 1_555
C6_10 N1_10 1_555 1_555
C9_10 N1_10 1_555 1_555
C10_8 C9_10 1_555 1_555
H7_8 C10_8 1_555 1_555
H8_8 C10_8 1_555 1_555
C11_8 C10_8 1_555 1_555
H9_8 C11_8 1_555 1_555
H10_8 C11_8 1_555 1_555
H11_8 C11_8 1_555 1_555
C3_12 C6_10 1_555 1_555
C5_10 C6_10 1_555 1_555
Cu4_3 O1_13 1_555 1_555
O1_13 C1_13 1_555 1_555
O4_13 Cu4_3 1_555 1_555
H1_11 O4_13 1_555 1_555
H2_13 O4_13 1_555 1_555
O9_7 C1_13 1_555 1_555
C1_13 C4_13 1_555 1_555
H6_11 C7_11 1_555 1_555
O8_10 Cu4_3 1_555 1_555
C4_13 C7_11 1_555 1_555
O8_8 C8_13 1_555 1_555
N1_11 H3_11 1_555 1_555
O6_11 C9_11 1_555 1_555
C2_11 C5_11 1_555 1_555
C3_13 H4_13 1_555 1_555
C5_11 H5_11 1_555 1_555
C6_11 N1_11 1_555 1_555
C8_13 C2_11 1_555 1_555
C9_11 N1_11 1_555 1_555
C10_9 C9_11 1_555 1_555
H7_9 C10_9 1_555 1_555
H8_9 C10_9 1_555 1_555
C11_9 C10_9 1_555 1_555
H9_9 C11_9 1_555 1_555
H10_9 C11_9 1_555 1_555
H11_9 C11_9 1_555 1_555
C3_13 C6_11 1_555 1_555
C5_11 C6_11 1_555 1_555
O8_9 C8_14 1_555 1_555
N1_12 H3_12 1_555 1_555
O6_12 C9_12 1_555 1_555
C2_12 C5_12 1_555 1_555
C3_14 H4_14 1_555 1_555
C5_12 H5_12 1_555 1_555
C6_12 N1_12 1_555 1_555
C8_14 C2_12 1_555 1_555
C9_12 N1_12 1_555 1_555
C3_14 C6_12 1_555 1_555
C5_12 C6_12 1_555 1_555
Cu4 O1_14 1_555 1_555
O1_14 C1_14 1_555 1_555
O4_14 Cu4 1_555 1_555
H1_12 O4_14 1_555 1_555
H2_14 O4_14 1_555 1_555
O9_8 C1_14 1_555 1_555
C1_14 C4_14 1_555 1_555
H6_12 C7_12 1_555 1_555
O8_11 Cu4 1_555 1_555
C4_14 C7_12 1_555 1_555
Cu4_2 O1_15 1_555 1_555
O1_15 C1_15 1_555 1_555
O7 C8_15 1_555 1_555
O8_7 C8_15 1_555 1_555
O4_15 Cu4_2 1_555 1_555
H1_13 O4_15 1_555 1_555
H2_15 O4_15 1_555 1_555
O9_9 C1_15 1_555 1_555
N1_13 H3_13 1_555 1_555
O6_13 C9_13 1_555 1_555
C1_15 C4_15 1_555 1_555
C2_13 C5_13 1_555 1_555
C3_15 H4_15 1_555 1_555
C4_15 C3_15 1_555 1_555
C5_13 H5_13 1_555 1_555
C6_13 N1_13 1_555 1_555
C7_13 C2_13 1_555 1_555
H6_13 C7_13 1_555 1_555
C8_15 C2_13 1_555 1_555
C9_13 N1_13 1_555 1_555
O8_12 Cu4_2 1_555 1_555
C3_15 C6_13 1_555 1_555
C4_15 C7_13 1_555 1_555
C5_13 C6_13 1_555 1_555
Cu3_4 O1_16 1_555 1_555
O1_16 C1_16 1_555 1_555
O4_16 Cu3_4 1_555 1_555
H2_16 O4_16 1_555 1_555
O9_4 C1_16 1_555 1_555
C1_16 C4_16 1_555 1_555
C3_16 H4_16 1_555 1_555
C4_16 C3_16 1_555 1_555
O7_8 C8_16 1_555 1_555
O8_11 C8_16 1_555 1_555
O7_9 C8_17 1_555 1_555
O8_12 C8_17 1_555 1_555
N1_14 H3_14 1_555 1_555
O6_14 C9_14 1_555 1_555
C2_14 C5_14 1_555 1_555
C5_14 H5_14 1_555 1_555
C6_14 N1_14 1_555 1_555
C7_14 C2_14 1_555 1_555
H6_14 C7_14 1_555 1_555
C8_17 C2_14 1_555 1_555
C9_14 N1_14 1_555 1_555
C10_10 C9_14 1_555 1_555
H7_10 C10_10 1_555 1_555
H8_10 C10_10 1_555 1_555
C11_10 C10_10 1_555 1_555
H9_10 C11_10 1_555 1_555
H10_10 C11_10 1_555 1_555
H11_10 C11_10 1_555 1_555
C5_14 C6_14 1_555 1_555
Cu3_5 O1_17 1_555 1_555
O1_17 C1_17 1_555 1_555
O4_17 Cu3_5 1_555 1_555
H1_14 O4_17 1_555 1_555
H2_17 O4_17 1_555 1_555
O9_5 C1_17 1_555 1_555
C1_17 C4_17 1_555 1_555
C3_17 H4_17 1_555 1_555
C4_17 C3_17 1_555 1_555
O7_7 C8_18 1_555 1_555
O8_10 C8_18 1_555 1_555
Cu3_6 O1_18 1_555 1_555
O1_18 C1_18 1_555 1_555
O4_18 Cu3_6 1_555 1_555
H2_18 O4_18 1_555 1_555
O9_6 C1_18 1_555 1_555
C1_18 C4_18 1_555 1_555
C3_18 H4_18 1_555 1_555
C4_18 C3_18 1_555 1_555
H7_11 C10_11 1_555 1_555
H8_11 C10_11 1_555 1_555
C11_11 C10_11 1_555 1_555
H9_11 C11_11 1_555 1_555
H10_11 C11_11 1_555 1_555
H11_11 C11_11 1_555 1_555
H7_12 C10_12 1_555 1_555
H8_12 C10_12 1_555 1_555
C11_12 C10_12 1_555 1_555
H9_12 C11_12 1_555 1_555
H10_12 C11_12 1_555 1_555
H11_12 C11_12 1_555 1_555
N1_15 H3_15 1_555 1_555
O6_15 C9_15 1_555 1_555
C2_15 C5_15 1_555 1_555
C5_15 H5_15 1_555 1_555
C6_15 N1_15 1_555 1_555
C7_15 C2_15 1_555 1_555
H6_15 C7_15 1_555 1_555
C9_15 N1_15 1_555 1_555
C10_13 C9_15 1_555 1_555
H7_13 C10_13 1_555 1_555
H8_13 C10_13 1_555 1_555
C11_13 C10_13 1_555 1_555
H9_13 C11_13 1_555 1_555
H10_13 C11_13 1_555 1_555
H11_13 C11_13 1_555 1_555
C5_15 C6_15 1_555 1_555
N1_16 H3_16 1_555 1_555
O6_16 C9_16 1_555 1_555
C2_16 C5_16 1_555 1_555
C5_16 H5_16 1_555 1_555
C6_16 N1_16 1_555 1_555
C7_16 C2_16 1_555 1_555
H6_16 C7_16 1_555 1_555
C9_16 N1_16 1_555 1_555
C10_14 C9_16 1_555 1_555
H7_14 C10_14 1_555 1_555
H8_14 C10_14 1_555 1_555
C11_14 C10_14 1_555 1_555
H9_14 C11_14 1_555 1_555
H10_14 C11_14 1_555 1_555
H11_14 C11_14 1_555 1_555
C5_16 C6_16 1_555 1_555
H7_15 C10_15 1_555 1_555
H8_15 C10_15 1_555 1_555
C11_15 C10_15 1_555 1_555
H9_15 C11_15 1_555 1_555
H10_15 C11_15 1_555 1_555
H11_15 C11_15 1_555 1_555
H7_16 C10_16 1_555 1_555
H8_16 C10_16 1_555 1_555
C11_16 C10_16 1_555 1_555
H9_16 C11_16 1_555 1_555
H10_16 C11_16 1_555 1_555
H11_16 C11_16 1_555 1_555
N1_17 H3_17 1_555 1_555
O6_17 C9_17 1_555 1_555
C2_17 C5_17 1_555 1_555
C5_17 H5_17 1_555 1_555
C6_17 N1_17 1_555 1_555
C7_17 C2_17 1_555 1_555
H6_17 C7_17 1_555 1_555
C9_17 N1_17 1_555 1_555
C10_17 C9_17 1_555 1_555
H7_17 C10_17 1_555 1_555
H8_17 C10_17 1_555 1_555
C11_17 C10_17 1_555 1_555
H9_17 C11_17 1_555 1_555
H10_17 C11_17 1_555 1_555
H11_17 C11_17 1_555 1_555
C5_17 C6_17 1_555 1_555
N1_18 H3_18 1_555 1_555
O6_18 C9_18 1_555 1_555
C2_18 C5_18 1_555 1_555
C5_18 H5_18 1_555 1_555
C6_18 N1_18 1_555 1_555
C7_18 C2_18 1_555 1_555
H6_18 C7_18 1_555 1_555
C9_18 N1_18 1_555 1_555
C10_18 C9_18 1_555 1_555
H7_18 C10_18 1_555 1_555
H8_18 C10_18 1_555 1_555
C11_18 C10_18 1_555 1_555
H9_18 C11_18 1_555 1_555
H10_18 C11_18 1_555 1_555
H11_18 C11_18 1_555 1_555
C5_18 C6_18 1_555 1_555

#END
