
###############################################################################
#
# This file contains modified crystal structure data generated from the
# MOF subset of the Cambridge Structural Database (CSD) v543 
# hosted by the Cambridge Crystallographic Data Centre (CCDC).
#
# This work is licensed under the Creative Commons
# Attribution-NonCommercial-ShareAlike 4.0 International License.
# To view a copy of this license, visit
# http://creativecommons.org/licenses/by-nc-sa/4.0/
# or send a letter to
# Creative Commons, PO Box 1866, Mountain View, CA 94042, USA.
#
# CIF created using the CSD Python API on 29 September 2022
# The structure has been converted into the P1 space group
# The structure has a 3D framework
# The original CSD entry XADFEP is in the monoclinic crystal system
# The framework has been calculated to contain at least 10.0% void space
# The void calculation uses a probe of radius 1.32A, grid spacing 0.4
#
###############################################################################

data_XADFEP
_chemical_formula_moiety         '(C80 H68 N16 Ni8 O48)n'
_symmetry_cell_setting           triclinic
_symmetry_space_group_name_H-M   'P 1'
_symmetry_Int_Tables_number      1
_space_group_name_Hall           'P 1'
loop_
_symmetry_equiv_pos_site_id
_symmetry_equiv_pos_as_xyz
1 x,y,z
_cell_length_a                   11.742(2)
_cell_length_b                   16.066(3)
_cell_length_c                   14.376(3)
_cell_angle_alpha                90
_cell_angle_beta                 104.25(3)
_cell_angle_gamma                90
_cell_volume                     2628.54
loop_
_atom_site_label
_atom_site_type_symbol
_atom_site_fract_x
_atom_site_fract_y
_atom_site_fract_z
Ni1 Ni 0.24878(10) 0.25114(7) 0.74534(8)
O1 O 0.1488(5) 0.1627(3) 0.6606(4)
O2 O 0.0989(6) 0.2175(4) 0.5136(4)
O5 O 0.2679(5) 0.3157(4) 0.6239(4)
H1 H 0.2168 0.3014 0.5726
H2 H 0.3340 0.3317 0.6079
O6 O 0.2160(5) 0.1811(4) 0.8534(4)
H3 H 0.2214 0.1278 0.8500
H4 H 0.2013 0.1935 0.9073
N1 N 0.0992(6) 0.3255(4) 0.7446(5)
C1 C 0.0000 0.4540(7) 0.7500
C2 C 0.0975(7) 0.4081(5) 0.7423(6)
H5 H 0.1641 0.4363 0.7354
C3 C 0.0000 0.2889(8) 0.7500
H6 H 0.0000 0.2310 0.7500
C4 C 0.0000 0.5458(7) 0.7500
C6 C 0.0000 0.7143(8) 0.7500
H8 H 0.0000 0.7722 0.7500
C7 C 0.0443(7) 0.0790(5) 0.5346(6)
C9 C 0.0979(7) 0.0050(5) 0.5742(6)
H9 H 0.1641 0.0085 0.6252
C10 C 0.1004(8) 0.1594(5) 0.5722(7)
Ni7 Ni 0.25122(10) 0.75114(7) 0.75466(8)
O10 O 0.3553(5) 0.3396(3) 0.8281(4)
N5 N 0.1016(6) 0.6764(4) 0.7528(5)
N6 N 0.3984(6) 0.1764(4) 0.7472(5)
C13 C 0.1005(7) 0.5934(5) 0.7532(6)
H15 H 0.1706 0.5656 0.7557
O9 O 0.1447(5) 0.8396(3) 0.6719(4)
O12 O 0.1720(7) 0.8086(4) 0.5296(5)
C15 C 0.0578(7) 0.9273(5) 0.5416(6)
C18 C 0.1292(8) 0.8518(5) 0.5823(7)
O3 O 0.8553(5) 0.1604(3) 0.3281(4)
O4 O 0.8280(7) 0.1914(4) 0.4704(5)
N2 N 0.8984(6) 0.6764(4) 0.7472(5)
C1_2 C 1.0000 0.4540(7) 0.7500
C3_2 C 1.0000 0.2889(8) 0.7500
H6_2 H 1.0000 0.2310 0.7500
C4_2 C 1.0000 0.5458(7) 0.7500
C5 C 0.8995(7) 0.5934(5) 0.7468(6)
H7 H 0.8294 0.5656 0.7443
C6_2 C 1.0000 0.7143(8) 0.7500
H8_2 H 1.0000 0.7722 0.7500
C8 C 0.9422(7) 0.0727(5) 0.4584(6)
C11 C 0.8708(8) 0.1482(5) 0.4177(7)
Ni3 Ni 0.74878(10) 0.24886(7) 0.24534(8)
Ni4 Ni 0.74878(10) 0.75114(7) 0.74534(8)
Ni6 Ni 0.75122(10) 0.25114(7) 0.75466(8)
N3 N 0.9008(6) 0.3255(4) 0.7554(5)
C12 C 0.9025(7) 0.4081(5) 0.7577(6)
H14 H 0.8359 0.4363 0.7646
Ni2 Ni 0.75122(10) 0.74886(7) 0.25466(8)
O7 O 0.8512(5) 0.8373(3) 0.3394(4)
O8 O 0.9011(6) 0.7825(4) 0.4864(4)
O11 O 0.6447(5) 0.6604(3) 0.1719(4)
O13 O 0.7321(5) 0.6843(4) 0.3761(4)
H10 H 0.7832 0.6986 0.4274
H11 H 0.6660 0.6683 0.3921
O14 O 0.7840(5) 0.8189(4) 0.1466(4)
H12 H 0.7786 0.8722 0.1500
H13 H 0.7987 0.8065 0.0927
N4 N 0.9008(6) 0.6745(4) 0.2554(5)
N7 N 0.6016(6) 0.8236(4) 0.2528(5)
C14 C 0.9557(7) 0.9210(5) 0.4654(6)
C16 C 0.9021(7) 0.9950(5) 0.4258(6)
H16 H 0.8359 0.9915 0.3748
C17 C 0.8996(8) 0.8406(5) 0.4278(7)
O3_2 O 0.1447(5) 0.1604(3) 0.1719(4)
O4_2 O 0.1720(7) 0.1914(4) 0.0296(5)
C8_2 C 0.0578(7) 0.0727(5) 0.0416(6)
C11_2 C 0.1292(8) 0.1482(5) 0.0823(7)
Ni3_2 Ni 0.25122(10) 0.24886(7) 0.25466(8)
Ni2_2 Ni 0.24878(10) 0.74886(7) 0.24534(8)
O7_2 O 0.1488(5) 0.8373(3) 0.1606(4)
O8_2 O 0.0989(6) 0.7825(4) 0.0136(4)
O11_2 O 0.3553(5) 0.6604(3) 0.3281(4)
O13_2 O 0.2679(5) 0.6843(4) 0.1239(4)
H10_2 H 0.2168 0.6986 0.0726
H11_2 H 0.3340 0.6683 0.1079
O14_2 O 0.2160(5) 0.8189(4) 0.3534(4)
H12_2 H 0.2214 0.8722 0.3500
H13_2 H 0.2013 0.8065 0.4073
N4_2 N 0.0992(6) 0.6745(4) 0.2446(5)
N7_2 N 0.3984(6) 0.8236(4) 0.2472(5)
C14_2 C 0.0443(7) 0.9210(5) 0.0346(6)
C16_2 C 0.0979(7) 0.9950(5) 0.0742(6)
H16_2 H 0.1641 0.9915 0.1252
C17_2 C 0.1004(8) 0.8406(5) 0.0722(7)
O1_2 O 0.8512(5) 0.1627(3) 0.8394(4)
O2_2 O 0.9011(6) 0.2175(4) 0.9864(4)
O5_2 O 0.7321(5) 0.3157(4) 0.8761(4)
H1_2 H 0.7832 0.3014 0.9274
H2_2 H 0.6660 0.3317 0.8921
O6_2 O 0.7840(5) 0.1811(4) 0.6466(4)
H3_2 H 0.7786 0.1278 0.6500
H4_2 H 0.7987 0.1935 0.5927
C7_2 C 0.9557(7) 0.0790(5) 0.9654(6)
C9_2 C 0.9021(7) 0.0050(5) 0.9258(6)
H9_2 H 0.8359 0.0085 0.8748
C10_2 C 0.8996(8) 0.1594(5) 0.9278(7)
O10_2 O 0.6447(5) 0.3396(3) 0.6719(4)
N6_2 N 0.6016(6) 0.1764(4) 0.7528(5)
O9_2 O 0.8553(5) 0.8396(3) 0.8281(4)
O12_2 O 0.8280(7) 0.8086(4) 0.9704(5)
C15_2 C 0.9422(7) 0.9273(5) 0.9584(6)
C18_2 C 0.8708(8) 0.8518(5) 0.9177(7)
C4_3 C 0.5000 0.0458(7) 0.7500
C5_2 C 0.3995(7) 0.0934(5) 0.7468(6)
H7_2 H 0.3294 0.0656 0.7443
C6_3 C 0.5000 0.2143(8) 0.7500
H8_3 H 0.5000 0.2722 0.7500
C13_2 C 0.6005(7) 0.0934(5) 0.7532(6)
H15_2 H 0.6706 0.0656 0.7557
O1_3 O 0.6488(5) 0.6627(3) 0.6606(4)
O2_3 O 0.5989(6) 0.7175(4) 0.5136(4)
O4_3 O 0.3280(7) 0.6914(4) 0.4704(5)
O5_3 O 0.7679(5) 0.8157(4) 0.6239(4)
H1_3 H 0.7168 0.8014 0.5726
H2_3 H 0.8340 0.8317 0.6079
O6_3 O 0.7160(5) 0.6811(4) 0.8534(4)
H3_3 H 0.7214 0.6278 0.8500
H4_3 H 0.7013 0.6935 0.9073
N1_2 N 0.5992(6) 0.8255(4) 0.7446(5)
C1_3 C 0.5000 0.9540(7) 0.7500
C2_2 C 0.5975(7) 0.9081(5) 0.7423(6)
H5_2 H 0.6641 0.9363 0.7354
C3_3 C 0.5000 0.7889(8) 0.7500
H6_3 H 0.5000 0.7310 0.7500
C7_3 C 0.5443(7) 0.5790(5) 0.5346(6)
C8_3 C 0.4422(7) 0.5727(5) 0.4584(6)
C9_3 C 0.5979(7) 0.5050(5) 0.5742(6)
H9_3 H 0.6641 0.5085 0.6252
C10_3 C 0.6004(8) 0.6594(5) 0.5722(7)
C11_3 C 0.3708(8) 0.6482(5) 0.4177(7)
O7_3 O 0.3512(5) 0.3373(3) 0.3394(4)
O8_3 O 0.4011(6) 0.2825(4) 0.4864(4)
O12_3 O 0.6720(7) 0.3086(4) 0.5296(5)
O13_3 O 0.2321(5) 0.1843(4) 0.3761(4)
H10_3 H 0.2832 0.1986 0.4274
H11_3 H 0.1660 0.1683 0.3921
O14_3 O 0.2840(5) 0.3189(4) 0.1466(4)
H12_3 H 0.2786 0.3722 0.1500
H13_3 H 0.2987 0.3065 0.0927
N3_2 N 0.4008(6) 0.8255(4) 0.7554(5)
N4_3 N 0.4008(6) 0.1745(4) 0.2554(5)
N7_3 N 0.1016(6) 0.3236(4) 0.2528(5)
C12_2 C 0.4025(7) 0.9081(5) 0.7577(6)
H14_2 H 0.3359 0.9363 0.7646
C14_3 C 0.4557(7) 0.4210(5) 0.4654(6)
C15_3 C 0.5578(7) 0.4273(5) 0.5416(6)
C16_3 C 0.4021(7) 0.4950(5) 0.4258(6)
H16_3 H 0.3359 0.4915 0.3748
C17_3 C 0.3996(8) 0.3406(5) 0.4278(7)
C18_3 C 0.6292(8) 0.3518(5) 0.5823(7)
O4_4 O 0.6720(7) 0.6914(4) 0.0296(5)
C8_4 C 0.5578(7) 0.5727(5) 0.0416(6)
C11_4 C 0.6292(8) 0.6482(5) 0.0823(7)
O7_4 O 0.6488(5) 0.3373(3) 0.1606(4)
O8_4 O 0.5989(6) 0.2825(4) 0.0136(4)
O13_4 O 0.7679(5) 0.1843(4) 0.1239(4)
H10_4 H 0.7168 0.1986 0.0726
H11_4 H 0.8340 0.1683 0.1079
O14_4 O 0.7160(5) 0.3189(4) 0.3534(4)
H12_4 H 0.7214 0.3722 0.3500
H13_4 H 0.7013 0.3065 0.4073
N4_4 N 0.5992(6) 0.1745(4) 0.2446(5)
N7_4 N 0.8984(6) 0.3236(4) 0.2472(5)
C14_4 C 0.5443(7) 0.4210(5) 0.0346(6)
C16_4 C 0.5979(7) 0.4950(5) 0.0742(6)
H16_4 H 0.6641 0.4915 0.1252
C17_4 C 0.6004(8) 0.3406(5) 0.0722(7)
O1_4 O 0.3512(5) 0.6627(3) 0.8394(4)
O2_4 O 0.4011(6) 0.7175(4) 0.9864(4)
O5_4 O 0.2321(5) 0.8157(4) 0.8761(4)
H1_4 H 0.2832 0.8014 0.9274
H2_4 H 0.1660 0.8317 0.8921
O6_4 O 0.2840(5) 0.6811(4) 0.6466(4)
H3_4 H 0.2786 0.6278 0.6500
H4_4 H 0.2987 0.6935 0.5927
C7_4 C 0.4557(7) 0.5790(5) 0.9654(6)
C9_4 C 0.4021(7) 0.5050(5) 0.9258(6)
H9_4 H 0.3359 0.5085 0.8748
C10_4 C 0.3996(8) 0.6594(5) 0.9278(7)
O12_4 O 0.3280(7) 0.3086(4) 0.9704(5)
C15_4 C 0.4422(7) 0.4273(5) 0.9584(6)
C18_4 C 0.3708(8) 0.3518(5) 0.9177(7)
C1_4 C 0.0000 0.5460(7) 0.2500
C3_4 C 0.0000 0.7111(8) 0.2500
H6_4 H -0.0000 0.7690 0.2500
C4_4 C -0.0000 0.4542(7) 0.2500
C5_3 C 0.1005(7) 0.4066(5) 0.2532(6)
H7_3 H 0.1706 0.4344 0.2557
C6_4 C 0.0000 0.2857(8) 0.2500
H8_4 H 0.0000 0.2278 0.2500
C12_3 C 0.0975(7) 0.5919(5) 0.2423(6)
H14_3 H 0.1641 0.5637 0.2354
C1_5 C 1.0000 0.5460(7) 0.2500
C2_3 C 0.9025(7) 0.5919(5) 0.2577(6)
H5_3 H 0.8359 0.5637 0.2646
C3_5 C 1.0000 0.7111(8) 0.2500
H6_5 H 1.0000 0.7690 0.2500
C4_5 C 1.0000 0.4542(7) 0.2500
C6_5 C 1.0000 0.2857(8) 0.2500
H8_5 H 1.0000 0.2278 0.2500
C13_3 C 0.8995(7) 0.4066(5) 0.2468(6)
H15_3 H 0.8294 0.4344 0.2443
C1_6 C 0.5000 0.0460(7) 0.2500
C2_4 C 0.4025(7) 0.0919(5) 0.2577(6)
H5_4 H 0.3359 0.0637 0.2646
C3_6 C 0.5000 0.2111(8) 0.2500
H6_6 H 0.5000 0.2690 0.2500
C12_4 C 0.5975(7) 0.0919(5) 0.2423(6)
H14_4 H 0.6641 0.0637 0.2354
C4_6 C 0.5000 0.9542(7) 0.2500
C5_4 C 0.6005(7) 0.9066(5) 0.2532(6)
H7_4 H 0.6706 0.9344 0.2557
C6_6 C 0.5000 0.7857(8) 0.2500
H8_6 H 0.5000 0.7278 0.2500
C13_4 C 0.3995(7) 0.9066(5) 0.2468(6)
H15_4 H 0.3294 0.9344 0.2443
loop_
_geom_bond_atom_site_label_1
_geom_bond_atom_site_label_2
_geom_bond_site_symmetry_1
_geom_bond_site_symmetry_2
Ni1 O1 1_555 1_555
O1 C10 1_555 1_555
O2 C10 1_555 1_555
O5 Ni1 1_555 1_555
H1 O5 1_555 1_555
H2 O5 1_555 1_555
O6 Ni1 1_555 1_555
H3 O6 1_555 1_555
H4 O6 1_555 1_555
N1 Ni1 1_555 1_555
C1 C2 1_555 1_555
C2 N1 1_555 1_555
H5 C2 1_555 1_555
C3 N1 1_555 1_555
H6 C3 1_555 1_555
C4 C1 1_555 1_555
H8 C6 1_555 1_555
C9 C7 1_555 1_555
H9 C9 1_555 1_555
C10 C7 1_555 1_555
Ni7 N5 1_555 1_555
O10 Ni1 1_555 1_555
N5 C6 1_555 1_555
N6 Ni1 1_555 1_555
C13 C4 1_555 1_555
H15 C13 1_555 1_555
N5 C13 1_555 1_555
Ni7 O9 1_555 1_555
O9 C18 1_555 1_555
O12 C18 1_555 1_555
C18 C15 1_555 1_555
O3 C11 1_555 1_555
O4 C11 1_555 1_555
N2 C5 1_555 1_555
H6_2 C3_2 1_555 1_555
C4_2 C1_2 1_555 1_555
C5 C4_2 1_555 1_555
H7 C5 1_555 1_555
C6_2 N2 1_555 1_555
H8_2 C6_2 1_555 1_555
C8 C11 1_555 1_555
Ni3 O3 1_555 1_555
Ni4 N2 1_555 1_555
Ni6 N3 1_555 1_555
N3 C3_2 1_555 1_555
C12 C1_2 1_555 1_555
H14 C12 1_555 1_555
N3 C12 1_555 1_555
Ni2 O7 1_555 1_555
O7 C17 1_555 1_555
O8 C17 1_555 1_555
O11 Ni2 1_555 1_555
O13 Ni2 1_555 1_555
H10 O13 1_555 1_555
H11 O13 1_555 1_555
O14 Ni2 1_555 1_555
H12 O14 1_555 1_555
H13 O14 1_555 1_555
N4 Ni2 1_555 1_555
N7 Ni2 1_555 1_555
H16 C16 1_555 1_555
C17 C14 1_555 1_555
C14 C16 1_555 1_555
O3_2 C11_2 1_555 1_555
O4_2 C11_2 1_555 1_555
C8_2 C11_2 1_555 1_555
Ni3_2 O3_2 1_555 1_555
Ni2_2 O7_2 1_555 1_555
O7_2 C17_2 1_555 1_555
O8_2 C17_2 1_555 1_555
O11_2 Ni2_2 1_555 1_555
O13_2 Ni2_2 1_555 1_555
H10_2 O13_2 1_555 1_555
H11_2 O13_2 1_555 1_555
O14_2 Ni2_2 1_555 1_555
H12_2 O14_2 1_555 1_555
H13_2 O14_2 1_555 1_555
N4_2 Ni2_2 1_555 1_555
N7_2 Ni2_2 1_555 1_555
H16_2 C16_2 1_555 1_555
C17_2 C14_2 1_555 1_555
C14_2 C16_2 1_555 1_555
Ni6 O1_2 1_555 1_555
O1_2 C10_2 1_555 1_555
O2_2 C10_2 1_555 1_555
O5_2 Ni6 1_555 1_555
H1_2 O5_2 1_555 1_555
H2_2 O5_2 1_555 1_555
O6_2 Ni6 1_555 1_555
H3_2 O6_2 1_555 1_555
H4_2 O6_2 1_555 1_555
C9_2 C7_2 1_555 1_555
H9_2 C9_2 1_555 1_555
C10_2 C7_2 1_555 1_555
O10_2 Ni6 1_555 1_555
N6_2 Ni6 1_555 1_555
Ni4 O9_2 1_555 1_555
O9_2 C18_2 1_555 1_555
O12_2 C18_2 1_555 1_555
C18_2 C15_2 1_555 1_555
N6 C5_2 1_555 1_555
C5_2 C4_3 1_555 1_555
H7_2 C5_2 1_555 1_555
C6_3 N6 1_555 1_555
H8_3 C6_3 1_555 1_555
N6_2 C6_3 1_555 1_555
C13_2 C4_3 1_555 1_555
H15_2 C13_2 1_555 1_555
N6_2 C13_2 1_555 1_555
Ni4 O1_3 1_555 1_555
O1_3 C10_3 1_555 1_555
O2_3 C10_3 1_555 1_555
O11_2 C11_3 1_555 1_555
O4_3 C11_3 1_555 1_555
O5_3 Ni4 1_555 1_555
H1_3 O5_3 1_555 1_555
H2_3 O5_3 1_555 1_555
O6_3 Ni4 1_555 1_555
H3_3 O6_3 1_555 1_555
H4_3 O6_3 1_555 1_555
N1_2 Ni4 1_555 1_555
C1_3 C2_2 1_555 1_555
C2_2 N1_2 1_555 1_555
H5_2 C2_2 1_555 1_555
C3_3 N1_2 1_555 1_555
H6_3 C3_3 1_555 1_555
C7_3 C8_3 1_555 1_555
C8_3 C11_3 1_555 1_555
C9_3 C7_3 1_555 1_555
H9_3 C9_3 1_555 1_555
C10_3 C7_3 1_555 1_555
Ni3_2 O7_3 1_555 1_555
Ni7 N3_2 1_555 1_555
O7_3 C17_3 1_555 1_555
O8_3 C17_3 1_555 1_555
O10_2 C18_3 1_555 1_555
O12_3 C18_3 1_555 1_555
O13_3 Ni3_2 1_555 1_555
H10_3 O13_3 1_555 1_555
H11_3 O13_3 1_555 1_555
O14_3 Ni3_2 1_555 1_555
H12_3 O14_3 1_555 1_555
H13_3 O14_3 1_555 1_555
N3_2 C3_3 1_555 1_555
N4_3 Ni3_2 1_555 1_555
N7_3 Ni3_2 1_555 1_555
C12_2 C1_3 1_555 1_555
H14_2 C12_2 1_555 1_555
C14_3 C15_3 1_555 1_555
C15_3 C9_3 1_555 1_555
C16_3 C8_3 1_555 1_555
H16_3 C16_3 1_555 1_555
C17_3 C14_3 1_555 1_555
C18_3 C15_3 1_555 1_555
N3_2 C12_2 1_555 1_555
C14_3 C16_3 1_555 1_555
O11 C11_4 1_555 1_555
O4_4 C11_4 1_555 1_555
C8_4 C11_4 1_555 1_555
Ni3 O7_4 1_555 1_555
O7_4 C17_4 1_555 1_555
O8_4 C17_4 1_555 1_555
O13_4 Ni3 1_555 1_555
H10_4 O13_4 1_555 1_555
H11_4 O13_4 1_555 1_555
O14_4 Ni3 1_555 1_555
H12_4 O14_4 1_555 1_555
H13_4 O14_4 1_555 1_555
N4_4 Ni3 1_555 1_555
N7_4 Ni3 1_555 1_555
C16_4 C8_4 1_555 1_555
H16_4 C16_4 1_555 1_555
C17_4 C14_4 1_555 1_555
C14_4 C16_4 1_555 1_555
Ni7 O1_4 1_555 1_555
O1_4 C10_4 1_555 1_555
O2_4 C10_4 1_555 1_555
O5_4 Ni7 1_555 1_555
H1_4 O5_4 1_555 1_555
H2_4 O5_4 1_555 1_555
O6_4 Ni7 1_555 1_555
H3_4 O6_4 1_555 1_555
H4_4 O6_4 1_555 1_555
C9_4 C7_4 1_555 1_555
H9_4 C9_4 1_555 1_555
C10_4 C7_4 1_555 1_555
O10 C18_4 1_555 1_555
O12_4 C18_4 1_555 1_555
C15_4 C9_4 1_555 1_555
C18_4 C15_4 1_555 1_555
N7_3 C5_3 1_555 1_555
H6_4 C3_4 1_555 1_555
C4_4 C1_4 1_555 1_555
C5_3 C4_4 1_555 1_555
H7_3 C5_3 1_555 1_555
C6_4 N7_3 1_555 1_555
H8_4 C6_4 1_555 1_555
N4_2 C3_4 1_555 1_555
C12_3 C1_4 1_555 1_555
H14_3 C12_3 1_555 1_555
N4_2 C12_3 1_555 1_555
C1_5 C2_3 1_555 1_555
C2_3 N4 1_555 1_555
H5_3 C2_3 1_555 1_555
C3_5 N4 1_555 1_555
H6_5 C3_5 1_555 1_555
C4_5 C1_5 1_555 1_555
H8_5 C6_5 1_555 1_555
N7_4 C6_5 1_555 1_555
C13_3 C4_5 1_555 1_555
H15_3 C13_3 1_555 1_555
N7_4 C13_3 1_555 1_555
C1_6 C2_4 1_555 1_555
C2_4 N4_3 1_555 1_555
H5_4 C2_4 1_555 1_555
C3_6 N4_3 1_555 1_555
H6_6 C3_6 1_555 1_555
N4_4 C3_6 1_555 1_555
C12_4 C1_6 1_555 1_555
H14_4 C12_4 1_555 1_555
N4_4 C12_4 1_555 1_555
N7 C5_4 1_555 1_555
C5_4 C4_6 1_555 1_555
H7_4 C5_4 1_555 1_555
C6_6 N7 1_555 1_555
H8_6 C6_6 1_555 1_555
N7_2 C6_6 1_555 1_555
C13_4 C4_6 1_555 1_555
H15_4 C13_4 1_555 1_555
N7_2 C13_4 1_555 1_555

#END
