
###############################################################################
#
# This file contains modified crystal structure data generated from the
# MOF subset of the Cambridge Structural Database (CSD) v543 
# hosted by the Cambridge Crystallographic Data Centre (CCDC).
#
# This work is licensed under the Creative Commons
# Attribution-NonCommercial-ShareAlike 4.0 International License.
# To view a copy of this license, visit
# http://creativecommons.org/licenses/by-nc-sa/4.0/
# or send a letter to
# Creative Commons, PO Box 1866, Mountain View, CA 94042, USA.
#
# CIF created using the CSD Python API on 29 September 2022
# The structure has been converted into the P1 space group
# The structure has a 3D framework
# The original CSD entry XADFAL is in the monoclinic crystal system
# The framework has been calculated to contain at least 10.0% void space
# The void calculation uses a probe of radius 1.32A, grid spacing 0.4
#
###############################################################################

data_XADFAL
_chemical_formula_moiety         '(C80 H68 Cu8 N16 O48)n'
_symmetry_cell_setting           triclinic
_symmetry_space_group_name_H-M   'P 1'
_symmetry_Int_Tables_number      1
_space_group_name_Hall           'P 1'
loop_
_symmetry_equiv_pos_site_id
_symmetry_equiv_pos_as_xyz
1 x,y,z
_cell_length_a                   11.5882(3)
_cell_length_b                   15.6757(4)
_cell_length_c                   14.7695(5)
_cell_angle_alpha                90
_cell_angle_beta                 107.2620(10)
_cell_angle_gamma                90
_cell_volume                     2562.08
loop_
_atom_site_label
_atom_site_type_symbol
_atom_site_fract_x
_atom_site_fract_y
_atom_site_fract_z
O1 O 0.7108(4) 0.3327(3) 0.3826(3)
Cu1 Cu 0.74847(3) 0.24509(2) 0.24296(3)
C1 C 0.6220(3) 0.34316(19) 0.0811(2)
C2 C 0.5537(3) 0.42302(17) 0.0393(2)
C3 C 0.6001(3) 0.50083(17) 0.0782(2)
H1 H 0.6676 0.5015 0.1314
C6 C 0.5000 0.2163(2) 0.2500
C7 C 0.5977(2) 0.09080(17) 0.2414(2)
H2 H 0.6647 0.0621 0.2343
C8 C 0.5000 0.0436(2) 0.2500
O2 O 0.64570(18) 0.33462(12) 0.16942(14)
O3 O 0.6545(5) 0.2947(3) 0.0300(3)
O6 O 0.7894(3) 0.15449(19) 0.1304(2)
N1 N 0.5986(2) 0.17614(14) 0.24319(19)
H5 H 0.5000 0.2760(13) 0.2500
H6 H 0.730(2) 0.130(2) 0.095(2)
H7 H 0.822(3) 0.175(2) 0.091(2)
H8 H 0.762(3) 0.369(2) 0.415(2)
H9 H 0.663(3) 0.329(3) 0.415(2)
Cu5 Cu 0.75153(3) 0.74509(2) 0.25704(3)
Cu6 Cu 0.25153(3) 0.24509(2) 0.25704(3)
C15 C 0.5487(3) 0.57786(17) 0.0399(2)
C16 C 0.6090(3) 0.6594(2) 0.0833(2)
C17 C 0.4023(2) 0.09080(17) 0.2586(2)
H11 H 0.3353 0.0621 0.2657
O10 O 0.65254(18) 0.65942(12) 0.17200(15)
O11 O 0.84746(18) 0.15942(12) 0.32800(15)
O13 O 0.6111(5) 0.7198(2) 0.0312(3)
N3 N 0.4014(2) 0.17614(14) 0.25681(19)
N6 N 0.8986(2) 0.31628(14) 0.25051(18)
C4 C 0.4513(3) 0.42214(17) 0.9601(2)
C5 C 0.3910(3) 0.3406(2) 0.9167(2)
O4 O 0.34746(18) 0.34058(12) 0.82800(15)
O5 O 0.3889(5) 0.2802(2) 0.9688(3)
O7 O 0.2892(4) 0.6673(3) 0.6174(3)
Cu2 Cu 0.25153(3) 0.75491(2) 0.75704(3)
Cu3 Cu 0.24847(3) 0.25491(2) 0.74296(3)
C12 C 0.3780(3) 0.65684(19) 0.9189(2)
C13 C 0.4463(3) 0.57698(17) 0.9607(2)
C14 C 0.3999(3) 0.49917(17) 0.9218(2)
H10 H 0.3324 0.4985 0.8686
O8 O 0.35430(18) 0.66538(12) 0.83058(14)
O9 O 0.3455(5) 0.7053(3) 0.9700(3)
O12 O 0.15254(18) 0.84058(12) 0.67200(15)
O14 O 0.2106(3) 0.84551(19) 0.8696(2)
N4 N 0.4014(2) 0.82386(14) 0.75681(19)
N7 N 0.1014(2) 0.68372(14) 0.74949(18)
H13 H 0.270(2) 0.870(2) 0.905(2)
H14 H 0.178(3) 0.825(2) 0.909(2)
H15 H 0.238(3) 0.631(2) 0.585(2)
H16 H 0.337(3) 0.671(3) 0.585(2)
C9 C 0.5000 0.9489(2) 0.2500
C10 C 0.6009(2) 0.90167(16) 0.2488(2)
H3 H 0.6706 0.9304 0.2474
C11 C 0.5000 0.7766(2) 0.2500
N2 N 0.6014(2) 0.81628(14) 0.24949(18)
H4 H 0.5000 0.7180(13) 0.2500
Cu7 Cu 0.24847(3) 0.74509(2) 0.24296(3)
C18 C 0.3991(2) 0.90167(16) 0.2512(2)
H12 H 0.3294 0.9304 0.2526
N5 N 0.3986(2) 0.81628(14) 0.25051(18)
O1_2 O 0.2892(4) 0.3327(3) 0.1174(3)
C1_2 C 0.3780(3) 0.34316(19) 0.4189(2)
C2_2 C 0.4463(3) 0.42302(17) 0.4607(2)
C3_2 C 0.3999(3) 0.50083(17) 0.4218(2)
H1_2 H 0.3324 0.5015 0.3686
C4_2 C 0.5487(3) 0.42214(17) 0.5399(2)
C5_2 C 0.6090(3) 0.3406(2) 0.5833(2)
O2_2 O 0.35430(18) 0.33462(12) 0.33058(14)
O3_2 O 0.3455(5) 0.2947(3) 0.4700(3)
O4_2 O 0.65254(18) 0.34058(12) 0.67200(15)
O5_2 O 0.6111(5) 0.2802(2) 0.5312(3)
O6_2 O 0.2106(3) 0.15449(19) 0.3696(2)
H6_2 H 0.270(2) 0.130(2) 0.405(2)
H7_2 H 0.178(3) 0.175(2) 0.409(2)
H8_2 H 0.238(3) 0.369(2) 0.085(2)
H9_2 H 0.337(3) 0.329(3) 0.085(2)
O7_2 O 0.7108(4) 0.6673(3) 0.8826(3)
Cu2_2 Cu 0.74847(3) 0.75491(2) 0.74296(3)
Cu3_2 Cu 0.75153(3) 0.25491(2) 0.75704(3)
C12_2 C 0.6220(3) 0.65684(19) 0.5811(2)
C13_2 C 0.5537(3) 0.57698(17) 0.5393(2)
C14_2 C 0.6001(3) 0.49917(17) 0.5782(2)
H10_2 H 0.6676 0.4985 0.6314
C15_2 C 0.4513(3) 0.57786(17) 0.4601(2)
C16_2 C 0.3910(3) 0.6594(2) 0.4167(2)
O8_2 O 0.64570(18) 0.66538(12) 0.66942(14)
O9_2 O 0.6545(5) 0.7053(3) 0.5300(3)
O10_2 O 0.34746(18) 0.65942(12) 0.32800(15)
O11_2 O 0.15254(18) 0.15942(12) 0.17200(15)
O12_2 O 0.84746(18) 0.84058(12) 0.82800(15)
O13_2 O 0.3889(5) 0.7198(2) 0.4688(3)
O14_2 O 0.7894(3) 0.84551(19) 0.6304(2)
N4_2 N 0.5986(2) 0.82386(14) 0.74319(19)
N6_2 N 0.1014(2) 0.31628(14) 0.24949(18)
N7_2 N 0.8986(2) 0.68372(14) 0.75051(18)
H13_2 H 0.730(2) 0.870(2) 0.595(2)
H14_2 H 0.822(3) 0.825(2) 0.591(2)
H15_2 H 0.762(3) 0.631(2) 0.915(2)
H16_2 H 0.663(3) 0.671(3) 0.915(2)
C3_3 C 0.1001(3) 0.00083(17) 0.0782(2)
H1_3 H 0.1676 0.0015 0.1314
C15_3 C 0.0487(3) 0.07786(17) 0.0399(2)
C16_3 C 0.1090(3) 0.1594(2) 0.0833(2)
O13_3 O 0.1111(5) 0.2198(2) 0.0312(3)
O1_3 O 0.2108(4) 0.8327(3) 0.3826(3)
C1_3 C 0.1220(3) 0.84316(19) 0.0811(2)
C2_3 C 0.0537(3) 0.92302(17) 0.0393(2)
C6_2 C 0.0000 0.7163(2) 0.2500
C7_2 C 0.0977(2) 0.59080(17) 0.2414(2)
H2_2 H 0.1647 0.5621 0.2343
C8_2 C 0.0000 0.5436(2) 0.2500
C9_2 C 0.0000 0.4489(2) 0.2500
C10_2 C 0.1009(2) 0.40167(16) 0.2488(2)
H3_2 H 0.1706 0.4304 0.2474
C11_2 C 0.0000 0.2766(2) 0.2500
O2_3 O 0.14570(18) 0.83462(12) 0.16942(14)
O3_3 O 0.1545(5) 0.7947(3) 0.0300(3)
O6_3 O 0.2894(3) 0.65449(19) 0.1304(2)
N1_2 N 0.0986(2) 0.67614(14) 0.24319(19)
H4_2 H 0.0000 0.2180(13) 0.2500
H5_2 H 0.0000 0.7760(13) 0.2500
H6_3 H 0.230(2) 0.630(2) 0.095(2)
H7_3 H 0.322(3) 0.675(2) 0.091(2)
H8_3 H 0.262(3) 0.869(2) 0.415(2)
H9_3 H 0.163(3) 0.829(3) 0.415(2)
O7_3 O 0.7892(4) 0.1673(3) 0.6174(3)
C12_3 C 0.8780(3) 0.15684(19) 0.9189(2)
C13_3 C 0.9463(3) 0.07698(17) 0.9607(2)
O8_3 O 0.85430(18) 0.16538(12) 0.83058(14)
O9_3 O 0.8455(5) 0.2053(3) 0.9700(3)
O14_3 O 0.7106(3) 0.34551(19) 0.8696(2)
N4_3 N 0.9014(2) 0.32386(14) 0.75681(19)
N7_3 N 0.6014(2) 0.18372(14) 0.74949(18)
H13_3 H 0.770(2) 0.370(2) 0.905(2)
H14_3 H 0.678(3) 0.325(2) 0.909(2)
H15_3 H 0.738(3) 0.131(2) 0.585(2)
H16_3 H 0.837(3) 0.171(3) 0.585(2)
C6_3 C 1.0000 0.7163(2) 0.2500
C8_3 C 1.0000 0.5436(2) 0.2500
C9_3 C 1.0000 0.4489(2) 0.2500
C11_3 C 1.0000 0.2766(2) 0.2500
H4_3 H 1.0000 0.2180(13) 0.2500
H5_3 H 1.0000 0.7760(13) 0.2500
C17_2 C 0.9023(2) 0.59080(17) 0.2586(2)
H11_2 H 0.8353 0.5621 0.2657
C18_2 C 0.8991(2) 0.40167(16) 0.2512(2)
H12_2 H 0.8294 0.4304 0.2526
N3_2 N 0.9014(2) 0.67614(14) 0.25681(19)
C4_3 C 0.9513(3) 0.92214(17) 0.9601(2)
C5_3 C 0.8910(3) 0.8406(2) 0.9167(2)
O5_3 O 0.8889(5) 0.7802(2) 0.9688(3)
C14_3 C 0.8999(3) 0.99917(17) 0.9218(2)
H10_3 H 0.8324 0.9985 0.8686
O7_4 O 0.2108(4) 0.1673(3) 0.8826(3)
C12_4 C 0.1220(3) 0.15684(19) 0.5811(2)
C13_4 C 0.0537(3) 0.07698(17) 0.5393(2)
O8_4 O 0.14570(18) 0.16538(12) 0.66942(14)
O9_4 O 0.1545(5) 0.2053(3) 0.5300(3)
O14_4 O 0.2894(3) 0.34551(19) 0.6304(2)
N4_4 N 0.0986(2) 0.32386(14) 0.74319(19)
N7_4 N 0.3986(2) 0.18372(14) 0.75051(18)
H13_4 H 0.230(2) 0.370(2) 0.595(2)
H14_4 H 0.322(3) 0.325(2) 0.591(2)
H15_4 H 0.262(3) 0.131(2) 0.915(2)
H16_4 H 0.163(3) 0.171(3) 0.915(2)
C4_4 C 0.0487(3) 0.92214(17) 0.5399(2)
C5_4 C 0.1090(3) 0.8406(2) 0.5833(2)
O5_4 O 0.1111(5) 0.7802(2) 0.5312(3)
C14_4 C 0.1001(3) 0.99917(17) 0.5782(2)
H10_4 H 0.1676 0.9985 0.6314
C3_4 C 0.8999(3) 0.00083(17) 0.4218(2)
H1_4 H 0.8324 0.0015 0.3686
C15_4 C 0.9513(3) 0.07786(17) 0.4601(2)
C16_4 C 0.8910(3) 0.1594(2) 0.4167(2)
O13_4 O 0.8889(5) 0.2198(2) 0.4688(3)
O1_4 O 0.7892(4) 0.8327(3) 0.1174(3)
C1_4 C 0.8780(3) 0.84316(19) 0.4189(2)
C2_4 C 0.9463(3) 0.92302(17) 0.4607(2)
O2_4 O 0.85430(18) 0.83462(12) 0.33058(14)
O3_4 O 0.8455(5) 0.7947(3) 0.4700(3)
O6_4 O 0.7106(3) 0.65449(19) 0.3696(2)
H6_4 H 0.770(2) 0.630(2) 0.405(2)
H7_4 H 0.678(3) 0.675(2) 0.409(2)
H8_4 H 0.738(3) 0.869(2) 0.085(2)
H9_4 H 0.837(3) 0.829(3) 0.085(2)
C9_4 C 0.5000 0.0511(2) 0.7500
C10_3 C 0.3991(2) 0.09833(16) 0.7512(2)
H3_3 H 0.3294 0.0696 0.7526
C11_4 C 0.5000 0.2234(2) 0.7500
H4_4 H 0.5000 0.2820(13) 0.7500
C18_3 C 0.6009(2) 0.09833(16) 0.7488(2)
H12_3 H 0.6706 0.0696 0.7474
C6_4 C 0.5000 0.7837(2) 0.7500
C7_3 C 0.4023(2) 0.90920(17) 0.7586(2)
H2_3 H 0.3353 0.9379 0.7657
C8_4 C 0.5000 0.9564(2) 0.7500
H5_4 H 0.5000 0.7240(13) 0.7500
C17_3 C 0.5977(2) 0.90920(17) 0.7414(2)
H11_3 H 0.6647 0.9379 0.7343
C6_5 C -0.0000 0.2837(2) 0.7500
C8_5 C -0.0000 0.4564(2) 0.7500
C9_5 C -0.0000 0.5511(2) 0.7500
C11_5 C -0.0000 0.7234(2) 0.7500
H4_5 H -0.0000 0.7820(13) 0.7500
H5_5 H -0.0000 0.2240(13) 0.7500
C17_4 C 0.0977(2) 0.40920(17) 0.7414(2)
H11_4 H 0.1647 0.4379 0.7343
C18_4 C 0.1009(2) 0.59833(16) 0.7488(2)
H12_4 H 0.1706 0.5696 0.7474
C6_6 C 1.0000 0.2837(2) 0.7500
C7_4 C 0.9023(2) 0.40920(17) 0.7586(2)
H2_4 H 0.8353 0.4379 0.7657
C8_6 C 1.0000 0.4564(2) 0.7500
C9_6 C 1.0000 0.5511(2) 0.7500
C10_4 C 0.8991(2) 0.59833(16) 0.7512(2)
H3_4 H 0.8294 0.5696 0.7526
C11_6 C 1.0000 0.7234(2) 0.7500
H4_6 H 1.0000 0.7820(13) 0.7500
H5_6 H 1.0000 0.2240(13) 0.7500
loop_
_geom_bond_atom_site_label_1
_geom_bond_atom_site_label_2
_geom_bond_site_symmetry_1
_geom_bond_site_symmetry_2
O1 Cu1 1_555 1_555
Cu1 O2 1_555 1_555
C1 C2 1_555 1_555
C2 C3 1_555 1_555
C3 H1 1_555 1_555
C6 N1 1_555 1_555
C7 H2 1_555 1_555
C8 C7 1_555 1_555
O2 C1 1_555 1_555
O3 C1 1_555 1_555
O6 Cu1 1_555 1_555
N1 Cu1 1_555 1_555
H5 C6 1_555 1_555
H6 O6 1_555 1_555
H7 O6 1_555 1_555
H8 O1 1_555 1_555
H9 O1 1_555 1_555
Cu5 O10 1_555 1_555
Cu6 N3 1_555 1_555
C15 C3 1_555 1_555
C16 C15 1_555 1_555
C17 C8 1_555 1_555
H11 C17 1_555 1_555
O10 C16 1_555 1_555
O11 Cu1 1_555 1_555
O13 C16 1_555 1_555
N3 C6 1_555 1_555
N6 Cu1 1_555 1_555
C7 N1 1_555 1_555
C17 N3 1_555 1_555
C5 C4 1_555 1_555
O4 C5 1_555 1_555
O5 C5 1_555 1_555
O7 Cu2 1_555 1_555
Cu2 O8 1_555 1_555
Cu3 O4 1_555 1_555
C12 C13 1_555 1_555
C13 C14 1_555 1_555
C14 C4 1_555 1_555
H10 C14 1_555 1_555
O8 C12 1_555 1_555
O9 C12 1_555 1_555
O12 Cu2 1_555 1_555
O14 Cu2 1_555 1_555
N4 Cu2 1_555 1_555
N7 Cu2 1_555 1_555
H13 O14 1_555 1_555
H14 O14 1_555 1_555
H15 O7 1_555 1_555
H16 O7 1_555 1_555
C10 C9 1_555 1_555
H3 C10 1_555 1_555
C11 N2 1_555 1_555
N2 C10 1_555 1_555
H4 C11 1_555 1_555
Cu5 N2 1_555 1_555
Cu7 N5 1_555 1_555
C18 C9 1_555 1_555
H12 C18 1_555 1_555
N5 C11 1_555 1_555
C18 N5 1_555 1_555
O1_2 Cu6 1_555 1_555
Cu6 O2_2 1_555 1_555
C1_2 C2_2 1_555 1_555
C2_2 C3_2 1_555 1_555
C3_2 H1_2 1_555 1_555
C4_2 C2_2 1_555 1_555
C5_2 C4_2 1_555 1_555
O2_2 C1_2 1_555 1_555
O3_2 C1_2 1_555 1_555
O4_2 C5_2 1_555 1_555
O5_2 C5_2 1_555 1_555
O6_2 Cu6 1_555 1_555
H6_2 O6_2 1_555 1_555
H7_2 O6_2 1_555 1_555
H8_2 O1_2 1_555 1_555
H9_2 O1_2 1_555 1_555
O7_2 Cu2_2 1_555 1_555
Cu2_2 O8_2 1_555 1_555
Cu3_2 O4_2 1_555 1_555
Cu7 O10_2 1_555 1_555
C12_2 C13_2 1_555 1_555
C13_2 C14_2 1_555 1_555
C14_2 C4_2 1_555 1_555
H10_2 C14_2 1_555 1_555
C15_2 C3_2 1_555 1_555
C16_2 C15_2 1_555 1_555
O8_2 C12_2 1_555 1_555
O9_2 C12_2 1_555 1_555
O10_2 C16_2 1_555 1_555
O11_2 Cu6 1_555 1_555
O12_2 Cu2_2 1_555 1_555
O13_2 C16_2 1_555 1_555
O14_2 Cu2_2 1_555 1_555
N4_2 Cu2_2 1_555 1_555
N6_2 Cu6 1_555 1_555
N7_2 Cu2_2 1_555 1_555
H13_2 O14_2 1_555 1_555
H14_2 O14_2 1_555 1_555
H15_2 O7_2 1_555 1_555
H16_2 O7_2 1_555 1_555
C13_2 C15_2 1_555 1_555
C3_3 H1_3 1_555 1_555
C15_3 C3_3 1_555 1_555
C16_3 C15_3 1_555 1_555
O11_2 C16_3 1_555 1_555
O13_3 C16_3 1_555 1_555
O1_3 Cu7 1_555 1_555
Cu7 O2_3 1_555 1_555
C1_3 C2_3 1_555 1_555
C6_2 N1_2 1_555 1_555
C7_2 H2_2 1_555 1_555
C8_2 C7_2 1_555 1_555
C9_2 C8_2 1_555 1_555
C10_2 C9_2 1_555 1_555
H3_2 C10_2 1_555 1_555
C11_2 N6_2 1_555 1_555
O2_3 C1_3 1_555 1_555
O3_3 C1_3 1_555 1_555
O6_3 Cu7 1_555 1_555
N1_2 Cu7 1_555 1_555
N6_2 C10_2 1_555 1_555
H4_2 C11_2 1_555 1_555
H5_2 C6_2 1_555 1_555
H6_3 O6_3 1_555 1_555
H7_3 O6_3 1_555 1_555
H8_3 O1_3 1_555 1_555
H9_3 O1_3 1_555 1_555
C7_2 N1_2 1_555 1_555
O7_3 Cu3_2 1_555 1_555
Cu3_2 O8_3 1_555 1_555
C12_3 C13_3 1_555 1_555
O8_3 C12_3 1_555 1_555
O9_3 C12_3 1_555 1_555
O14_3 Cu3_2 1_555 1_555
N4_3 Cu3_2 1_555 1_555
N7_3 Cu3_2 1_555 1_555
H13_3 O14_3 1_555 1_555
H14_3 O14_3 1_555 1_555
H15_3 O7_3 1_555 1_555
H16_3 O7_3 1_555 1_555
C9_3 C8_3 1_555 1_555
H4_3 C11_3 1_555 1_555
H5_3 C6_3 1_555 1_555
Cu5 N3_2 1_555 1_555
C17_2 C8_3 1_555 1_555
H11_2 C17_2 1_555 1_555
C18_2 C9_3 1_555 1_555
H12_2 C18_2 1_555 1_555
N3_2 C6_3 1_555 1_555
N6 C11_3 1_555 1_555
C17_2 N3_2 1_555 1_555
C18_2 N6 1_555 1_555
C5_3 C4_3 1_555 1_555
O12_2 C5_3 1_555 1_555
O5_3 C5_3 1_555 1_555
C14_3 C4_3 1_555 1_555
H10_3 C14_3 1_555 1_555
O7_4 Cu3 1_555 1_555
Cu3 O8_4 1_555 1_555
C12_4 C13_4 1_555 1_555
O8_4 C12_4 1_555 1_555
O9_4 C12_4 1_555 1_555
O14_4 Cu3 1_555 1_555
N4_4 Cu3 1_555 1_555
N7_4 Cu3 1_555 1_555
H13_4 O14_4 1_555 1_555
H14_4 O14_4 1_555 1_555
H15_4 O7_4 1_555 1_555
H16_4 O7_4 1_555 1_555
C5_4 C4_4 1_555 1_555
O12 C5_4 1_555 1_555
O5_4 C5_4 1_555 1_555
C14_4 C4_4 1_555 1_555
H10_4 C14_4 1_555 1_555
C3_4 H1_4 1_555 1_555
C15_4 C3_4 1_555 1_555
C16_4 C15_4 1_555 1_555
O11 C16_4 1_555 1_555
O13_4 C16_4 1_555 1_555
O1_4 Cu5 1_555 1_555
Cu5 O2_4 1_555 1_555
C1_4 C2_4 1_555 1_555
O2_4 C1_4 1_555 1_555
O3_4 C1_4 1_555 1_555
O6_4 Cu5 1_555 1_555
H6_4 O6_4 1_555 1_555
H7_4 O6_4 1_555 1_555
H8_4 O1_4 1_555 1_555
H9_4 O1_4 1_555 1_555
C10_3 C9_4 1_555 1_555
H3_3 C10_3 1_555 1_555
C11_4 N7_4 1_555 1_555
N7_4 C10_3 1_555 1_555
H4_4 C11_4 1_555 1_555
C18_3 C9_4 1_555 1_555
H12_3 C18_3 1_555 1_555
N7_3 C11_4 1_555 1_555
C18_3 N7_3 1_555 1_555
C6_4 N4 1_555 1_555
C7_3 H2_3 1_555 1_555
C8_4 C7_3 1_555 1_555
H5_4 C6_4 1_555 1_555
C17_3 C8_4 1_555 1_555
H11_3 C17_3 1_555 1_555
N4_2 C6_4 1_555 1_555
C7_3 N4 1_555 1_555
C17_3 N4_2 1_555 1_555
C9_5 C8_5 1_555 1_555
H4_5 C11_5 1_555 1_555
H5_5 C6_5 1_555 1_555
C17_4 C8_5 1_555 1_555
H11_4 C17_4 1_555 1_555
C18_4 C9_5 1_555 1_555
H12_4 C18_4 1_555 1_555
N4_4 C6_5 1_555 1_555
N7 C11_5 1_555 1_555
C17_4 N4_4 1_555 1_555
C18_4 N7 1_555 1_555
C6_6 N4_3 1_555 1_555
C7_4 H2_4 1_555 1_555
C8_6 C7_4 1_555 1_555
C9_6 C8_6 1_555 1_555
C10_4 C9_6 1_555 1_555
H3_4 C10_4 1_555 1_555
C11_6 N7_2 1_555 1_555
N7_2 C10_4 1_555 1_555
H4_6 C11_6 1_555 1_555
H5_6 C6_6 1_555 1_555
C7_4 N4_3 1_555 1_555

#END
