
###############################################################################
#
# This file contains modified crystal structure data generated from the
# MOF subset of the Cambridge Structural Database (CSD) v543 
# hosted by the Cambridge Crystallographic Data Centre (CCDC).
#
# This work is licensed under the Creative Commons
# Attribution-NonCommercial-ShareAlike 4.0 International License.
# To view a copy of this license, visit
# http://creativecommons.org/licenses/by-nc-sa/4.0/
# or send a letter to
# Creative Commons, PO Box 1866, Mountain View, CA 94042, USA.
#
# CIF created using the CSD Python API on 29 September 2022
# The structure has been converted into the P1 space group
# The structure has a 3D framework
# The original CSD entry XADGAM is in the monoclinic crystal system
# The original CSD entry XADGAM is in a Sohncke space group
# The framework has been calculated to contain at least 10.0% void space
# The void calculation uses a probe of radius 1.32A, grid spacing 0.4
# H atom positions have been added when not included in the experimental data
#
###############################################################################

data_XADGAM
_chemical_formula_moiety         '(C96 H64 N8 O16 Zn4)n'
_symmetry_cell_setting           triclinic
_symmetry_space_group_name_H-M   'P 1'
_symmetry_Int_Tables_number      1
_space_group_name_Hall           'P 1'
loop_
_symmetry_equiv_pos_site_id
_symmetry_equiv_pos_as_xyz
1 x,y,z
_cell_length_a                   19.0493(10)
_cell_length_b                   14.4336(6)
_cell_length_c                   10.9838(6)
_cell_angle_alpha                90
_cell_angle_beta                 122.294(3)
_cell_angle_gamma                90
_cell_volume                     2552.86
loop_
_atom_site_label
_atom_site_type_symbol
_atom_site_fract_x
_atom_site_fract_y
_atom_site_fract_z
H21 H 0.4236 0.7519 0.0076
Zn3 Zn 0.58883(6) 0.85240(6) 0.11246(11)
C28 C 0.4243(8) 0.9736(9) 0.2317(13)
H15 H 0.4132 0.9638 0.3035
C29 C 0.4870(7) 0.9249(9) 0.2316(12)
H16 H 0.5178 0.8827 0.3055
N1 N 0.5053(5) 0.9353(6) 0.1307(9)
O10 O 0.6934(4) 0.9511(5) 0.2101(7)
O11 O 0.6886(4) 0.7441(5) 0.1853(8)
O12 O 0.6196(4) 0.7686(5) 0.2910(7)
C6 C 0.6069(6) 0.1078(7) 0.8434(10)
H3 H 0.5725 0.0650 0.8498
C7 C 0.5731(7) 0.1716(9) 0.7327(11)
H4 H 0.5163 0.1722 0.6644
C8 C 0.6277(7) 0.2372(8) 0.7252(11)
H5 H 0.6058 0.2818 0.6529
C9 C 0.7090(8) 0.2345(8) 0.8205(16)
H6 H 0.7434 0.2748 0.8098
C10 C 0.7453(7) 0.1711(8) 0.9399(13)
C11 C 0.6922(6) 0.1067(9) 0.9461(10)
C13 C 0.6763(5) 0.7313(6) 0.2879(10)
C14 C 0.7345(5) 0.6658(6) 0.4073(10)
C15 C 0.8168(6) 0.6849(6) 0.4846(11)
H7 H 0.8366 0.7360 0.4602
C16 C 0.8731(6) 0.6283(7) 0.6022(11)
H8 H 0.9292 0.6438 0.6554
C17 C 0.8465(5) 0.5504(7) 0.6395(10)
C18 C 0.7293(6) 0.4430(7) 0.5788(11)
H9 H 0.7641 0.4032 0.6539
C19 C 0.6459(6) 0.4222(7) 0.4885(10)
H10 H 0.6255 0.3676 0.5031
C20 C 0.5924(6) 0.4800(7) 0.3779(11)
H11 H 0.5365 0.4642 0.3199
C21 C 0.6200(6) 0.5596(7) 0.3523(11)
H12 H 0.5826 0.5982 0.2777
C22 C 0.7045(6) 0.5851(7) 0.4372(10)
C23 C 0.7615(6) 0.5249(6) 0.5563(10)
C24 C 0.9127(6) 0.4990(7) 0.7698(11)
O1 O 0.8834(6) 0.2605(6) 0.9317(15)
O7 O 0.9846(5) 0.5090(7) 0.8114(9)
O8 O 0.8870(5) 0.4478(7) 0.8328(10)
Zn1 Zn 0.96584(6) 0.37526(7) 0.99895(12)
H2 H 0.8326 0.9997 0.2452
C12 C 0.6732(6) 0.9694(8) 0.0847(11)
C25 C 0.4624(6) 0.0015(7) 0.0338(11)
C26 C 0.3973(6) 0.0508(7) 0.0246(12)
C27 C 0.3780(6) 0.0381(7) 0.1215(12)
C30 C 0.3086(7) 0.0839(7) 0.1243(13)
C31 C 0.2690(6) 0.1573(8) 0.0348(14)
C32 C 0.1958(7) 0.2033(7) 0.0207(15)
C35 C 0.0786(6) 0.2168(8) 0.0445(13)
H19 H 0.0457 0.1908 0.0746
C36 C 0.1433(6) 0.1629(8) 0.0598(12)
H20 H 0.1516 0.1026 0.0945
C37 C 0.4293(7) 0.7425(9) 0.9296(12)
C38 C 0.3664(7) 0.6978(10) 0.8081(11)
H22 H 0.3199 0.6764 0.8066
C39 C 0.3727(7) 0.6846(8) 0.6860(11)
C40 C 0.4453(6) 0.7159(7) 0.7008(11)
H23 H 0.4533 0.7061 0.6253
C41 C 0.5052(5) 0.7601(7) 0.8195(11)
H24 H 0.5516 0.7822 0.8212
C42 C 0.3064(7) 0.6464(10) 0.5509(14)
C43 C 0.2450(7) 0.5962(11) 0.5468(13)
C44 C 0.1785(6) 0.5489(10) 0.4100(12)
C45 C 0.1309(6) 0.4793(9) 0.4245(11)
H25 H 0.1402 0.4663 0.5149
C46 C 0.0708(6) 0.4304(9) 0.3054(12)
H26 H 0.0434 0.3815 0.3178
C47 C 0.0923(7) 0.5242(10) 0.1545(12)
H27 H 0.0765 0.5432 0.0624
C48 C 0.1579(8) 0.5690(10) 0.2753(12)
H28 H 0.1880 0.6140 0.2618
N3 N 0.4997(5) 0.7733(6) 0.9377(9)
N4 N 0.0515(5) 0.4527(7) 0.1718(9)
H30 H 0.289866 0.0591926 0.196504
H31 H 0.243461 0.589737 0.64413
H32 H 0.305868 0.65802 0.452447
O9 O 0.6137(4) 0.9309(5) 0.9777(7)
H13 H 0.4773 0.0155 0.9679
H14 H 0.3673 0.0928 0.9499
C33 C 0.1739(8) 0.2933(9) 0.9569(18)
H17 H 0.2044 0.3210 0.9233
C34 C 0.1077(8) 0.3379(9) 0.946(2)
H18 H 0.0942 0.3968 0.9051
N2 N 0.0601(5) 0.2997(6) 0.9924(10)
H29 H 0.292701 0.183271 0.970402
C1 C 0.8905(8) 0.2386(9) 0.049(2)
C2 C 0.8337(7) 0.1683(8) 0.0516(17)
C3 C 0.8626(7) 0.1036(10) 0.1565(15)
H1 H 0.9194 0.1008 0.2239
C4 C 0.8106(6) 0.0407(8) 0.1681(11)
C5 C 0.7264(6) 0.0396(7) 0.0649(9)
O2 O 0.9515(9) 0.2635(13) 0.1695(18)
C13_2 C 0.3237(5) 0.2313(6) 0.7121(10)
C14_2 C 0.2655(5) 0.1658(6) 0.5927(10)
C15_2 C 0.1832(6) 0.1849(6) 0.5154(11)
H7_2 H 0.1634 0.2360 0.5398
C16_2 C 0.1269(6) 0.1283(7) 0.3978(11)
H8_2 H 0.0708 0.1438 0.3446
C17_2 C 0.1535(5) 0.0504(7) 0.3605(10)
C21_2 C 0.3800(6) 0.0596(7) 0.6477(11)
H12_2 H 0.4174 0.0982 0.7223
C22_2 C 0.2955(6) 0.0851(7) 0.5628(10)
C23_2 C 0.2385(6) 0.0249(6) 0.4437(10)
O5 O 0.3114(4) 0.2441(5) 0.8147(8)
O6 O 0.3804(4) 0.2686(5) 0.7090(7)
O7_2 O 0.0154(5) 0.0090(7) 0.1886(9)
Zn5 Zn 0.41117(6) 0.35240(6) 0.88754(11)
C1_2 C 0.1095(8) 0.7386(9) 0.951(2)
C2_2 C 0.1663(7) 0.6683(8) 0.9484(17)
C3_2 C 0.1374(7) 0.6036(10) 0.8435(15)
H1_2 H 0.0806 0.6008 0.7761
C4_2 C 0.1894(6) 0.5407(8) 0.8319(11)
H2_2 H 0.1674 0.4997 0.7548
C5_2 C 0.2736(6) 0.5396(7) 0.9351(9)
C12_2 C 0.3268(6) 0.4694(8) 0.9153(11)
O2_2 O 0.0485(9) 0.7635(13) 0.8305(18)
O4 O 0.3066(4) 0.4511(5) 0.7899(7)
H21_2 H 0.5764 0.2519 0.9924
C25_2 C 0.5376(6) 0.5015(7) 0.9662(11)
C26_2 C 0.6027(6) 0.5508(7) 0.9754(12)
C27_2 C 0.6220(6) 0.5381(7) 0.8785(12)
C28_2 C 0.5757(8) 0.4736(9) 0.7683(13)
H15_2 H 0.5868 0.4638 0.6965
C29_2 C 0.5130(7) 0.4249(9) 0.7684(12)
H16_2 H 0.4822 0.3827 0.6945
C30_2 C 0.6914(7) 0.5839(7) 0.8757(13)
C31_2 C 0.7310(6) 0.6573(8) 0.9652(14)
C32_2 C 0.8042(7) 0.7033(7) 0.9793(15)
C35_2 C 0.9214(6) 0.7168(8) 0.9555(13)
H19_2 H 0.9543 0.6908 0.9254
C36_2 C 0.8567(6) 0.6629(8) 0.9402(12)
H20_2 H 0.8484 0.6026 0.9055
C45_2 C 0.8691(6) 0.9793(9) 0.5755(11)
H25_2 H 0.8598 0.9663 0.4851
C46_2 C 0.9292(6) 0.9304(9) 0.6946(12)
H26_2 H 0.9566 0.8815 0.6822
N1_2 N 0.4947(5) 0.4353(6) 0.8693(9)
N4_2 N 0.9485(5) 0.9527(7) 0.8282(9)
H30_2 H 0.710134 0.559193 0.803496
C6_2 C 0.3931(6) 0.6078(7) 0.1566(10)
H3_2 H 0.4275 0.5650 0.1502
C7_2 C 0.4269(7) 0.6716(9) 0.2673(11)
H4_2 H 0.4837 0.6722 0.3356
C8_2 C 0.3723(7) 0.7372(8) 0.2748(11)
H5_2 H 0.3942 0.7818 0.3471
C9_2 C 0.2910(8) 0.7345(8) 0.1795(16)
H6_2 H 0.2566 0.7748 0.1902
C10_2 C 0.2547(7) 0.6711(8) 0.0601(13)
C11_2 C 0.3078(6) 0.6067(9) 0.0539(10)
C18_2 C 0.2707(6) 0.9430(7) 0.4212(11)
H9_2 H 0.2359 0.9032 0.3461
C19_2 C 0.3541(6) 0.9222(7) 0.5115(10)
H10_2 H 0.3745 0.8676 0.4969
C20_2 C 0.4076(6) 0.9800(7) 0.6221(11)
H11_2 H 0.4635 0.9642 0.6801
C24_2 C 0.0873(6) 0.9990(7) 0.2302(11)
O1_2 O 0.1166(6) 0.7605(6) 0.0683(15)
O3 O 0.3863(4) 0.4309(5) 0.0223(7)
O8_2 O 0.1130(5) 0.9478(7) 0.1672(10)
Zn1_2 Zn 0.03416(6) 0.87526(7) 0.00105(12)
C37_2 C 0.5707(7) 0.2425(9) 0.0704(12)
C38_2 C 0.6336(7) 0.1978(10) 0.1919(11)
H22_2 H 0.6801 0.1764 0.1934
C39_2 C 0.6273(7) 0.1846(8) 0.3140(11)
C40_2 C 0.5547(6) 0.2159(7) 0.2992(11)
H23_2 H 0.5467 0.2061 0.3747
C41_2 C 0.4948(5) 0.2601(7) 0.1805(11)
H24_2 H 0.4484 0.2822 0.1788
C42_2 C 0.6936(7) 0.1464(10) 0.4491(14)
C43_2 C 0.7550(7) 0.0962(11) 0.4532(13)
C44_2 C 0.8215(6) 0.0489(10) 0.5900(12)
C47_2 C 0.9077(7) 0.0242(10) 0.8455(12)
H27_2 H 0.9235 0.0432 0.9376
C48_2 C 0.8421(8) 0.0690(10) 0.7247(12)
H28_2 H 0.8120 0.1140 0.7382
N3_2 N 0.5003(5) 0.2733(6) 0.0623(9)
H31_2 H 0.756539 0.0897374 0.35587
H32_2 H 0.694132 0.15802 0.547553
H13_2 H 0.5227 0.5155 0.0321
H14_2 H 0.6327 0.5928 0.0501
C33_2 C 0.8261(8) 0.7933(9) 0.0431(18)
H17_2 H 0.7956 0.8210 0.0767
C34_2 C 0.8923(8) 0.8379(9) 0.054(2)
H18_2 H 0.9058 0.8968 0.0949
N2_2 N 0.9399(5) 0.7997(6) 0.0076(10)
H29_2 H 0.707299 0.683271 0.029598
loop_
_geom_bond_atom_site_label_1
_geom_bond_atom_site_label_2
_geom_bond_site_symmetry_1
_geom_bond_site_symmetry_2
H15 C28 1_555 1_555
C29 C28 1_555 1_555
H16 C29 1_555 1_555
Zn3 N1 1_555 1_555
O10 Zn3 1_555 1_555
O11 Zn3 1_555 1_555
O12 Zn3 1_555 1_555
C29 N1 1_555 1_555
C6 H3 1_555 1_555
C7 C6 1_555 1_555
H4 C7 1_555 1_555
C8 C7 1_555 1_555
H5 C8 1_555 1_555
C9 C8 1_555 1_555
H6 C9 1_555 1_555
C13 C14 1_555 1_555
C14 C15 1_555 1_555
C15 H7 1_555 1_555
C16 C15 1_555 1_555
H8 C16 1_555 1_555
C17 C16 1_555 1_555
C18 H9 1_555 1_555
C19 C18 1_555 1_555
H10 C19 1_555 1_555
C20 C19 1_555 1_555
H11 C20 1_555 1_555
C21 C20 1_555 1_555
H12 C21 1_555 1_555
C22 C14 1_555 1_555
C23 C17 1_555 1_555
C24 C17 1_555 1_555
O11 C13 1_555 1_555
O12 C13 1_555 1_555
O7 C24 1_555 1_555
O8 C24 1_555 1_555
C6 C11 1_555 1_555
C9 C10 1_555 1_555
C10 C11 1_555 1_555
C18 C23 1_555 1_555
C21 C22 1_555 1_555
C22 C23 1_555 1_555
O1 Zn1 1_555 1_555
O8 Zn1 1_555 1_555
O10 C12 1_555 1_555
C26 C25 1_555 1_555
C27 C26 1_555 1_555
C30 C27 1_555 1_555
C31 C30 1_555 1_555
C32 C31 1_555 1_555
C35 H19 1_555 1_555
C36 C32 1_555 1_555
H20 C36 1_555 1_555
C38 C37 1_555 1_555
H22 C38 1_555 1_555
C39 C38 1_555 1_555
C40 C39 1_555 1_555
H23 C40 1_555 1_555
C41 C40 1_555 1_555
H24 C41 1_555 1_555
C42 C39 1_555 1_555
C43 C42 1_555 1_555
C44 C43 1_555 1_555
C45 C44 1_555 1_555
H25 C45 1_555 1_555
C46 C45 1_555 1_555
H26 C46 1_555 1_555
C47 H27 1_555 1_555
C48 C44 1_555 1_555
H28 C48 1_555 1_555
N3 C37 1_555 1_555
N4 C46 1_555 1_555
C35 C36 1_555 1_555
C41 N3 1_555 1_555
C47 C48 1_555 1_555
C47 N4 1_555 1_555
C30 H30 1_555 1_555
C43 H31 1_555 1_555
C42 H32 1_555 1_555
H17 C33 1_555 1_555
C34 C33 1_555 1_555
H18 C34 1_555 1_555
N2 C34 1_555 1_555
C1 C2 1_555 1_555
C2 C3 1_555 1_555
C3 H1 1_555 1_555
C4 C3 1_555 1_555
C5 C4 1_555 1_555
O2 C1 1_555 1_555
C13_2 C14_2 1_555 1_555
C14_2 C15_2 1_555 1_555
C15_2 H7_2 1_555 1_555
C16_2 C15_2 1_555 1_555
H8_2 C16_2 1_555 1_555
C17_2 C16_2 1_555 1_555
H12_2 C21_2 1_555 1_555
C22_2 C14_2 1_555 1_555
C23_2 C17_2 1_555 1_555
O5 C13_2 1_555 1_555
O6 C13_2 1_555 1_555
Zn5 O5 1_555 1_555
C21_2 C22_2 1_555 1_555
C22_2 C23_2 1_555 1_555
O6 Zn5 1_555 1_555
C1_2 C2_2 1_555 1_555
C2_2 C3_2 1_555 1_555
C3_2 H1_2 1_555 1_555
C4_2 C3_2 1_555 1_555
H2_2 C4_2 1_555 1_555
C5_2 C4_2 1_555 1_555
C12_2 C5_2 1_555 1_555
O2_2 C1_2 1_555 1_555
O4 C12_2 1_555 1_555
O4 Zn5 1_555 1_555
C26_2 C25_2 1_555 1_555
C27_2 C26_2 1_555 1_555
C28_2 C27_2 1_555 1_555
H15_2 C28_2 1_555 1_555
C29_2 C28_2 1_555 1_555
H16_2 C29_2 1_555 1_555
C30_2 C27_2 1_555 1_555
C31_2 C30_2 1_555 1_555
C32_2 C31_2 1_555 1_555
C35_2 H19_2 1_555 1_555
C36_2 C32_2 1_555 1_555
H20_2 C36_2 1_555 1_555
H25_2 C45_2 1_555 1_555
C46_2 C45_2 1_555 1_555
H26_2 C46_2 1_555 1_555
N1_2 C25_2 1_555 1_555
N4_2 C46_2 1_555 1_555
Zn5 N1_2 1_555 1_555
C29_2 N1_2 1_555 1_555
C35_2 C36_2 1_555 1_555
C30_2 H30_2 1_555 1_555
C6_2 H3_2 1_555 1_555
C7_2 C6_2 1_555 1_555
H4_2 C7_2 1_555 1_555
C8_2 C7_2 1_555 1_555
H5_2 C8_2 1_555 1_555
C9_2 C8_2 1_555 1_555
H6_2 C9_2 1_555 1_555
C18_2 H9_2 1_555 1_555
C19_2 C18_2 1_555 1_555
H10_2 C19_2 1_555 1_555
C20_2 C19_2 1_555 1_555
H11_2 C20_2 1_555 1_555
O8_2 C24_2 1_555 1_555
C6_2 C11_2 1_555 1_555
C9_2 C10_2 1_555 1_555
C10_2 C11_2 1_555 1_555
O1_2 Zn1_2 1_555 1_555
O8_2 Zn1_2 1_555 1_555
C38_2 C37_2 1_555 1_555
H22_2 C38_2 1_555 1_555
C39_2 C38_2 1_555 1_555
C40_2 C39_2 1_555 1_555
H23_2 C40_2 1_555 1_555
C41_2 C40_2 1_555 1_555
H24_2 C41_2 1_555 1_555
C42_2 C39_2 1_555 1_555
C43_2 C42_2 1_555 1_555
C44_2 C43_2 1_555 1_555
C47_2 H27_2 1_555 1_555
C48_2 C44_2 1_555 1_555
H28_2 C48_2 1_555 1_555
N3_2 C37_2 1_555 1_555
C41_2 N3_2 1_555 1_555
C47_2 C48_2 1_555 1_555
C43_2 H31_2 1_555 1_555
C42_2 H32_2 1_555 1_555
H17_2 C33_2 1_555 1_555
C34_2 C33_2 1_555 1_555
H18_2 C34_2 1_555 1_555
N2_2 C34_2 1_555 1_555

#END
