
###############################################################################
#
# This file contains modified crystal structure data generated from the
# MOF subset of the Cambridge Structural Database (CSD) v543 
# hosted by the Cambridge Crystallographic Data Centre (CCDC).
#
# This work is licensed under the Creative Commons
# Attribution-NonCommercial-ShareAlike 4.0 International License.
# To view a copy of this license, visit
# http://creativecommons.org/licenses/by-nc-sa/4.0/
# or send a letter to
# Creative Commons, PO Box 1866, Mountain View, CA 94042, USA.
#
# CIF created using the CSD Python API on 29 September 2022
# The structure has been converted into the P1 space group
# The structure has a 3D framework
# The original CSD entry XAFBOX is in the rhombohedral crystal system
# The framework has been calculated to contain at least 10.0% void space
# The void calculation uses a probe of radius 1.32A, grid spacing 0.4
# The framework is charged, counterions have been retained in the structure
#
###############################################################################

data_XAFBOX
_chemical_formula_moiety         '(C288 H144 Bi36 O130 18-)n'
_symmetry_cell_setting           triclinic
_symmetry_space_group_name_H-M   'P 1'
_symmetry_Int_Tables_number      1
_space_group_name_Hall           'P 1'
loop_
_symmetry_equiv_pos_site_id
_symmetry_equiv_pos_as_xyz
1 x,y,z
_cell_length_a                   17.6932(7)
_cell_length_b                   17.6932(7)
_cell_length_c                   29.7350(9)
_cell_angle_alpha                90
_cell_angle_beta                 90
_cell_angle_gamma                120
_cell_volume                     8061.42
loop_
_atom_site_label
_atom_site_type_symbol
_atom_site_fract_x
_atom_site_fract_y
_atom_site_fract_z
Bi1 Bi 0.0000 0.0000 0.0000
C12 C 0.1608(10) 0.0576(18) 0.0636(5)
C17 C 0.2503(9) 0.0955(16) 0.0830(5)
C22 C 0.2677(9) 0.0564(16) 0.1180(5)
H8 H 0.2224 0.0027 0.1295
C27 C 0.3189(9) 0.1742(15) 0.0658(4)
H13 H 0.3084 0.2016 0.0410
C32 C 0.4006(8) 0.2118(14) 0.0844(4)
H18 H 0.4462 0.2648 0.0723
C37 C 0.3509(10) 0.0939(17) 0.1372(5)
H23 H 0.3620 0.0657 0.1614
C42 C 0.4173(8) 0.1731(14) 0.1206(4)
C47 C 0.5043(10) 0.2203(17) 0.1439(4)
Bi3 Bi 0.0000 0.0000 0.14986(3)
Bi8 Bi 0.6667 0.3333 0.18347(3)
O8 O 0.1514(7) 0.0916(13) 0.0287(4)
O14 O 0.0060(11) 0.1034(9) 0.0827(4)
O18 O 0.5557(8) 0.2994(10) 0.1325(3)
O24 O 0.1110(8) 0.0339(10) 0.2008(3)
O29 O 0.5227(10) 0.1845(12) 0.1740(3)
O35 O 0.1440(10) 0.1488(12) 0.1593(3)
C1 C 0.1032(15) 0.1608(10) 0.9364(5)
C2 C 0.1548(13) 0.2503(9) 0.9170(5)
C3 C 0.2113(13) 0.2677(9) 0.8820(5)
H1 H 0.2197 0.2224 0.8705
C4 C 0.1447(12) 0.3189(9) 0.9342(4)
H2 H 0.1068 0.3084 0.9590
C5 C 0.1888(12) 0.4006(8) 0.9156(4)
H3 H 0.1814 0.4462 0.9277
C6 C 0.2570(14) 0.3509(10) 0.8628(5)
H4 H 0.2963 0.3620 0.8386
C7 C 0.2442(12) 0.4173(8) 0.8794(4)
C8 C 0.2840(14) 0.5043(10) 0.8561(4)
Bi1_2 Bi 0.0000 0.0000 1.0000
Bi2 Bi 0.0000 0.0000 0.85014(3)
O1 O 0.0598(11) 0.1514(7) 0.9713(4)
O2 O 0.1034(9) 0.0974(7) 0.9173(4)
O3 O 0.2563(6) 0.5557(8) 0.8675(3)
O4 O 0.3382(7) 0.5227(10) 0.8260(3)
Bi4 Bi 0.3333 0.6667 0.81653(3)
O20 O 0.0770(6) 0.1110(8) 0.7992(3)
O33 O 0.1488(12) 0.0049(7) 0.8407(3)
Bi1_3 Bi -0.0000 1.0000 0.0000
Bi3_2 Bi -0.0000 1.0000 0.14986(3)
O13 O 0.0974(7) 0.9940(11) 0.0827(4)
O34 O 0.0049(7) 0.8560(10) 0.1593(3)
Bi1_4 Bi -0.0000 1.0000 1.0000
Bi2_2 Bi -0.0000 1.0000 0.85014(3)
C10 C 0.0576(18) 0.8968(15) 0.9364(5)
C15 C 0.0955(16) 0.8452(13) 0.9170(5)
C20 C 0.0564(16) 0.7887(13) 0.8820(5)
H6 H 0.0027 0.7803 0.8705
C25 C 0.1742(15) 0.8553(12) 0.9342(4)
H11 H 0.2016 0.8932 0.9590
C30 C 0.2118(14) 0.8112(12) 0.9156(4)
H16 H 0.2648 0.8186 0.9277
C35 C 0.0939(17) 0.7430(14) 0.8628(5)
H21 H 0.0657 0.7037 0.8386
C40 C 0.1731(14) 0.7558(12) 0.8794(4)
C45 C 0.2203(17) 0.7160(14) 0.8561(4)
O6 O 0.0916(13) 0.9402(11) 0.9713(4)
O16 O 0.2994(10) 0.7437(6) 0.8675(3)
O22 O 0.0339(10) 0.9230(6) 0.7992(3)
O27 O 0.1845(12) 0.6618(7) 0.8260(3)
Bi1_5 Bi 1.0000 0.0000 0.0000
C13 C 0.9424(18) 0.1032(15) 0.0636(5)
C18 C 0.9045(16) 0.1548(13) 0.0830(5)
C23 C 0.9436(16) 0.2113(13) 0.1180(5)
H9 H 0.9973 0.2197 0.1295
C28 C 0.8258(15) 0.1447(12) 0.0658(4)
H14 H 0.7984 0.1068 0.0410
C33 C 0.7882(14) 0.1888(12) 0.0844(4)
H19 H 0.7352 0.1814 0.0723
C38 C 0.9061(17) 0.2570(14) 0.1372(5)
H24 H 0.9343 0.2963 0.1614
C43 C 0.8269(14) 0.2442(12) 0.1206(4)
C48 C 0.7797(17) 0.2840(14) 0.1439(4)
Bi3_3 Bi 1.0000 0.0000 0.14986(3)
O9 O 0.9084(13) 0.0598(11) 0.0287(4)
O19 O 0.7006(10) 0.2563(6) 0.1325(3)
O25 O 0.9661(10) 0.0770(6) 0.2008(3)
O30 O 0.8155(12) 0.3382(7) 0.1740(3)
Bi1_6 Bi 1.0000 0.0000 1.0000
Bi2_3 Bi 1.0000 0.0000 0.85014(3)
O10 O 0.9026(7) 0.0060(11) 0.9173(4)
O31 O 0.9951(7) 0.1440(10) 0.8407(3)
Bi1_7 Bi 1.0000 1.0000 0.0000
C11 C 0.8968(15) 0.8392(10) 0.0636(5)
C16 C 0.8452(13) 0.7497(9) 0.0830(5)
C21 C 0.7887(13) 0.7323(9) 0.1180(5)
H7 H 0.7803 0.7776 0.1295
C26 C 0.8553(12) 0.6811(9) 0.0658(4)
H12 H 0.8932 0.6916 0.0410
C31 C 0.8112(12) 0.5994(8) 0.0844(4)
H17 H 0.8186 0.5538 0.0723
C36 C 0.7430(14) 0.6491(10) 0.1372(5)
H22 H 0.7037 0.6380 0.1614
C41 C 0.7558(12) 0.5827(8) 0.1206(4)
C46 C 0.7160(14) 0.4957(10) 0.1439(4)
Bi3_4 Bi 1.0000 1.0000 0.14986(3)
O7 O 0.9402(11) 0.8486(7) 0.0287(4)
O12 O 0.8966(9) 0.9026(7) 0.0827(4)
O17 O 0.7437(6) 0.4443(8) 0.1325(3)
O23 O 0.9230(6) 0.8890(8) 0.2008(3)
O28 O 0.6618(7) 0.4773(10) 0.1740(3)
O36 O 0.8512(12) 0.9951(7) 0.1593(3)
Bi1_8 Bi 1.0000 1.0000 1.0000
Bi2_4 Bi 1.0000 1.0000 0.85014(3)
C9 C 0.8392(10) 0.9424(18) 0.9364(5)
C14 C 0.7497(9) 0.9045(16) 0.9170(5)
C19 C 0.7323(9) 0.9436(16) 0.8820(5)
H5 H 0.7776 0.9973 0.8705
C24 C 0.6811(9) 0.8258(15) 0.9342(4)
H10 H 0.6916 0.7984 0.9590
C29 C 0.5994(8) 0.7882(14) 0.9156(4)
H15 H 0.5538 0.7352 0.9277
C34 C 0.6491(10) 0.9061(17) 0.8628(5)
H20 H 0.6380 0.9343 0.8386
C39 C 0.5827(8) 0.8269(14) 0.8794(4)
C44 C 0.4957(10) 0.7797(17) 0.8561(4)
O5 O 0.8486(7) 0.9084(13) 0.9713(4)
O11 O 0.9940(11) 0.8966(9) 0.9173(4)
O15 O 0.4443(8) 0.7006(10) 0.8675(3)
O21 O 0.8890(8) 0.9661(10) 0.7992(3)
O26 O 0.4773(10) 0.8155(12) 0.8260(3)
O32 O 0.8560(10) 0.8512(12) 0.8407(3)
C32_2 C 0.0673(8) 0.5451(14) 0.4177(4)
H18_2 H 0.1129 0.5981 0.4056
C37_2 C 0.0176(10) 0.4272(17) 0.4705(5)
H23_2 H 0.0287 0.3990 0.4947
C42_2 C 0.0840(8) 0.5064(14) 0.4539(4)
C47_2 C 0.1710(10) 0.5536(17) 0.4772(4)
Bi8_2 Bi 0.3333 0.6667 0.51681(3)
O18_2 O 0.2224(8) 0.6327(10) 0.4658(3)
O29_2 O 0.1894(10) 0.5178(12) 0.5073(3)
C1_2 C 0.7699(15) 0.4941(10) 0.2697(5)
C2_2 C 0.8215(13) 0.5836(9) 0.2503(5)
C3_2 C 0.8780(13) 0.6010(9) 0.2153(5)
H1_2 H 0.8864 0.5557 0.2038
C4_2 C 0.8114(12) 0.6522(9) 0.2675(4)
H2_2 H 0.7735 0.6417 0.2923
C5_2 C 0.8555(12) 0.7339(8) 0.2489(4)
H3_2 H 0.8481 0.7795 0.2610
C6_2 C 0.9237(14) 0.6842(10) 0.1961(5)
H4_2 H 0.9630 0.6953 0.1719
C7_2 C 0.9109(12) 0.7506(8) 0.2127(4)
C8_2 C 0.9507(14) 0.8376(10) 0.1894(4)
Bi1_9 Bi 0.6667 0.3333 0.3333
O1_2 O 0.7265(11) 0.4847(7) 0.3046(4)
O2_2 O 0.7701(9) 0.4307(7) 0.2506(4)
C9_2 C 0.5059(10) 0.2757(18) 0.2697(5)
C10_2 C 0.7243(18) 0.2301(15) 0.2697(5)
C11_2 C 0.5635(15) 0.1725(10) 0.3969(5)
C12_2 C 0.8275(10) 0.3909(18) 0.3969(5)
C13_2 C 0.6091(18) 0.4365(15) 0.3969(5)
C14_2 C 0.4164(9) 0.2378(16) 0.2503(5)
C15_2 C 0.7622(16) 0.1785(13) 0.2503(5)
C16_2 C 0.5119(13) 0.0830(9) 0.4163(5)
C17_2 C 0.9170(9) 0.4288(16) 0.4163(5)
C18_2 C 0.5712(16) 0.4881(13) 0.4163(5)
C19_2 C 0.3990(9) 0.2769(16) 0.2153(5)
C20_2 C 0.7231(16) 0.1220(13) 0.2153(5)
C21_2 C 0.4554(13) 0.0656(9) 0.4513(5)
C22_2 C 0.9344(9) 0.3897(16) 0.4513(5)
C23_2 C 0.6103(16) 0.5446(13) 0.4513(5)
H5_2 H 0.4443 0.3306 0.2038
H6_2 H 0.6694 0.1136 0.2038
H7_2 H 0.4470 0.1109 0.4628
H8_2 H 0.8891 0.3360 0.4628
H9_2 H 0.6640 0.5530 0.4628
C24_2 C 0.3478(9) 0.1591(15) 0.2675(4)
C25_2 C 0.8409(15) 0.1886(12) 0.2675(4)
C26_2 C 0.5220(12) 0.0144(9) 0.3991(4)
C27_2 C 0.9856(9) 0.5075(15) 0.3991(4)
C28_2 C 0.4925(15) 0.4780(12) 0.3991(4)
H10_2 H 0.3583 0.1317 0.2923
H11_2 H 0.8683 0.2265 0.2923
H12_2 H 0.5599 0.0249 0.3743
H13_2 H 0.9751 0.5349 0.3743
H14_2 H 0.4651 0.4401 0.3743
C29_2 C 0.2661(8) 0.1215(14) 0.2489(4)
C30_2 C 0.8785(14) 0.1445(12) 0.2489(4)
C33_2 C 0.4549(14) 0.5221(12) 0.4177(4)
H15_2 H 0.2205 0.0685 0.2610
H16_2 H 0.9315 0.1519 0.2610
H19_2 H 0.4019 0.5147 0.4056
C34_2 C 0.3158(10) 0.2394(17) 0.1961(5)
C35_2 C 0.7606(17) 0.0763(14) 0.1961(5)
C38_2 C 0.5728(17) 0.5903(14) 0.4705(5)
H20_2 H 0.3047 0.2676 0.1719
H21_2 H 0.7324 0.0370 0.1719
H24_2 H 0.6010 0.6296 0.4947
C39_2 C 0.2494(8) 0.1602(14) 0.2127(4)
C40_2 C 0.8398(14) 0.0891(12) 0.2127(4)
C43_2 C 0.4936(14) 0.5775(12) 0.4539(4)
C44_2 C 0.1624(10) 0.1130(17) 0.1894(4)
C45_2 C 0.8870(17) 0.0493(14) 0.1894(4)
C48_2 C 0.4464(17) 0.6173(14) 0.4772(4)
Bi3_5 Bi 0.6667 0.3333 0.48319(3)
O5_2 O 0.5153(7) 0.2417(13) 0.3046(4)
O6_2 O 0.7583(13) 0.2735(11) 0.3046(4)
O7_2 O 0.6069(11) 0.1819(7) 0.3620(4)
O8_2 O 0.8181(7) 0.4249(13) 0.3620(4)
O9_2 O 0.5751(13) 0.3931(11) 0.3620(4)
O10_2 O 0.5693(7) 0.3393(11) 0.2506(4)
O11_2 O 0.6607(11) 0.2299(9) 0.2506(4)
O12_2 O 0.5633(9) 0.2359(7) 0.4160(4)
O13_2 O 0.7641(7) 0.3273(11) 0.4160(4)
O14_2 O 0.6727(11) 0.4367(9) 0.4160(4)
O19_2 O 0.3673(10) 0.5896(6) 0.4658(3)
O23_2 O 0.5896(6) 0.2224(8) 0.5342(3)
O24_2 O 0.7776(8) 0.3673(10) 0.5342(3)
O25_2 O 0.6327(10) 0.4104(6) 0.5342(3)
O30_2 O 0.4822(12) 0.6715(7) 0.5073(3)
O34_2 O 0.6715(7) 0.1894(10) 0.4927(3)
O35_2 O 0.8106(10) 0.4822(12) 0.4927(3)
O36_2 O 0.5178(12) 0.3285(7) 0.4927(3)
C31_2 C 0.4779(12) 0.9327(8) 0.4177(4)
H17_2 H 0.4853 0.8871 0.4056
C36_2 C 0.4097(14) 0.9824(10) 0.4705(5)
H22_2 H 0.3704 0.9713 0.4947
C41_2 C 0.4225(12) 0.9160(8) 0.4539(4)
C46_2 C 0.3827(14) 0.8290(10) 0.4772(4)
O17_2 O 0.4104(6) 0.7776(8) 0.4658(3)
O28_2 O 0.3285(7) 0.8106(10) 0.5073(3)
C5_3 C 0.5221(12) 0.0673(8) 0.5823(4)
H3_3 H 0.5147 0.1129 0.5944
C6_3 C 0.5903(14) 0.0176(10) 0.5295(5)
H4_3 H 0.6296 0.0287 0.5053
C7_3 C 0.5775(12) 0.0840(8) 0.5461(4)
C8_3 C 0.6173(14) 0.1710(10) 0.5228(4)
C1_3 C 0.4365(15) 0.8275(10) 0.6031(5)
C2_3 C 0.4881(13) 0.9170(9) 0.5837(5)
C3_3 C 0.5446(13) 0.9344(9) 0.5487(5)
H1_3 H 0.5530 0.8891 0.5372
C4_3 C 0.4780(12) 0.9856(9) 0.6009(4)
H2_3 H 0.4401 0.9751 0.6257
Bi1_10 Bi 0.3333 0.6667 0.6667
O1_3 O 0.3931(11) 0.8181(7) 0.6380(4)
O2_3 O 0.4367(9) 0.7641(7) 0.5840(4)
C9_3 C 0.1725(10) 0.6091(18) 0.6031(5)
C10_3 C 0.3909(18) 0.5635(15) 0.6031(5)
C11_3 C 0.2301(15) 0.5059(10) 0.7303(5)
C12_3 C 0.4941(10) 0.7243(18) 0.7303(5)
C13_3 C 0.2757(18) 0.7699(15) 0.7303(5)
C14_3 C 0.0830(9) 0.5712(16) 0.5837(5)
C15_3 C 0.4288(16) 0.5119(13) 0.5837(5)
C16_3 C 0.1785(13) 0.4164(9) 0.7497(5)
C17_3 C 0.5836(9) 0.7622(16) 0.7497(5)
C18_3 C 0.2378(16) 0.8215(13) 0.7497(5)
C19_3 C 0.0656(9) 0.6103(16) 0.5487(5)
C20_3 C 0.3897(16) 0.4554(13) 0.5487(5)
C21_3 C 0.1220(13) 0.3990(9) 0.7847(5)
C22_3 C 0.6010(9) 0.7231(16) 0.7847(5)
C23_3 C 0.2769(16) 0.8780(13) 0.7847(5)
H5_3 H 0.1109 0.6640 0.5372
H6_3 H 0.3360 0.4470 0.5372
H7_3 H 0.1136 0.4443 0.7962
H8_3 H 0.5557 0.6694 0.7962
H9_3 H 0.3306 0.8864 0.7962
C24_3 C 0.0144(9) 0.4925(15) 0.6009(4)
C25_3 C 0.5075(15) 0.5220(12) 0.6009(4)
C26_3 C 0.1886(12) 0.3478(9) 0.7325(4)
C27_3 C 0.6522(9) 0.8409(15) 0.7325(4)
C28_3 C 0.1591(15) 0.8114(12) 0.7325(4)
H10_3 H 0.0249 0.4651 0.6257
H11_3 H 0.5349 0.5599 0.6257
H12_3 H 0.2265 0.3583 0.7077
H13_3 H 0.6417 0.8683 0.7077
H14_3 H 0.1317 0.7735 0.7077
C30_3 C 0.5451(14) 0.4779(12) 0.5823(4)
C31_3 C 0.1445(12) 0.2661(8) 0.7511(4)
C32_3 C 0.7339(8) 0.8785(14) 0.7511(4)
C33_3 C 0.1215(14) 0.8555(12) 0.7511(4)
H16_3 H 0.5981 0.4853 0.5944
H17_3 H 0.1519 0.2205 0.7390
H18_3 H 0.7795 0.9315 0.7390
H19_3 H 0.0685 0.8481 0.7390
C35_3 C 0.4272(17) 0.4097(14) 0.5295(5)
C36_3 C 0.0763(14) 0.3158(10) 0.8039(5)
C37_3 C 0.6842(10) 0.7606(17) 0.8039(5)
C38_3 C 0.2394(17) 0.9237(14) 0.8039(5)
H21_3 H 0.3990 0.3704 0.5053
H22_3 H 0.0370 0.3047 0.8281
H23_3 H 0.6953 0.7324 0.8281
H24_3 H 0.2676 0.9630 0.8281
C40_3 C 0.5064(14) 0.4225(12) 0.5461(4)
C41_3 C 0.0891(12) 0.2494(8) 0.7873(4)
C42_3 C 0.7506(8) 0.8398(14) 0.7873(4)
C43_3 C 0.1602(14) 0.9109(12) 0.7873(4)
C45_3 C 0.5536(17) 0.3827(14) 0.5228(4)
C46_3 C 0.0493(14) 0.1624(10) 0.8106(4)
C47_3 C 0.8376(10) 0.8870(17) 0.8106(4)
C48_3 C 0.1130(17) 0.9507(14) 0.8106(4)
O5_3 O 0.1819(7) 0.5751(13) 0.6380(4)
O6_3 O 0.4249(13) 0.6069(11) 0.6380(4)
O7_3 O 0.2735(11) 0.5153(7) 0.6954(4)
O8_3 O 0.4847(7) 0.7583(13) 0.6954(4)
O9_3 O 0.2417(13) 0.7265(11) 0.6954(4)
O10_3 O 0.2359(7) 0.6727(11) 0.5840(4)
O11_3 O 0.3273(11) 0.5633(9) 0.5840(4)
O12_3 O 0.2299(9) 0.5693(7) 0.7494(4)
O13_3 O 0.4307(7) 0.6607(11) 0.7494(4)
O14_3 O 0.3393(11) 0.7701(9) 0.7494(4)
C29_3 C 0.9327(8) 0.4549(14) 0.5823(4)
H15_3 H 0.8871 0.4019 0.5944
C34_3 C 0.9824(10) 0.5728(17) 0.5295(5)
H20_3 H 0.9713 0.6010 0.5053
C39_3 C 0.9160(8) 0.4936(14) 0.5461(4)
C44_3 C 0.8290(10) 0.4464(17) 0.5228(4)
C1_4 C 0.1608(10) 0.1032(15) 0.5636(5)
C2_4 C 0.2503(9) 0.1548(13) 0.5830(5)
C3_4 C 0.2677(9) 0.2113(13) 0.6180(5)
H1_4 H 0.2224 0.2197 0.6295
C4_4 C 0.3189(9) 0.1447(12) 0.5658(4)
H2_4 H 0.3084 0.1068 0.5410
C5_4 C 0.4006(8) 0.1888(12) 0.5844(4)
H3_4 H 0.4462 0.1814 0.5723
C6_4 C 0.3509(10) 0.2570(14) 0.6372(5)
H4_4 H 0.3620 0.2963 0.6614
C7_4 C 0.4173(8) 0.2442(12) 0.6206(4)
C8_4 C 0.5043(10) 0.2840(14) 0.6439(4)
Bi1_11 Bi 0.0000 0.0000 0.5000
Bi2_5 Bi 0.0000 0.0000 0.64986(3)
O1_4 O 0.1514(7) 0.0598(11) 0.5287(4)
O2_4 O 0.0974(7) 0.1034(9) 0.5827(4)
O3_2 O 0.5557(8) 0.2563(6) 0.6325(3)
O4_2 O 0.5227(10) 0.3382(7) 0.6740(3)
C12_4 C 0.0576(18) 0.1608(10) 0.4364(5)
C17_4 C 0.0955(16) 0.2503(9) 0.4170(5)
C22_4 C 0.0564(16) 0.2677(9) 0.3820(5)
H8_4 H 0.0027 0.2224 0.3705
C27_4 C 0.1742(15) 0.3189(9) 0.4342(4)
H13_4 H 0.2016 0.3084 0.4590
C32_4 C 0.2118(14) 0.4006(8) 0.4156(4)
H18_4 H 0.2648 0.4462 0.4277
C37_4 C 0.0939(17) 0.3509(10) 0.3628(5)
H23_4 H 0.0657 0.3620 0.3386
C42_4 C 0.1731(14) 0.4173(8) 0.3794(4)
C47_4 C 0.2203(17) 0.5043(10) 0.3561(4)
Bi3_6 Bi 0.0000 0.0000 0.35014(3)
Bi4_2 Bi 0.6667 0.3333 0.68347(3)
Bi8_3 Bi 0.3333 0.6667 0.31653(3)
O8_4 O 0.0916(13) 0.1514(7) 0.4713(4)
O14_4 O 0.1034(9) 0.0060(11) 0.4173(4)
O18_3 O 0.2994(10) 0.5557(8) 0.3675(3)
O20_2 O 0.1110(8) 0.0770(6) 0.7008(3)
O24_3 O 0.0339(10) 0.1110(8) 0.2992(3)
O29_3 O 0.1845(12) 0.5227(10) 0.3260(3)
O33_2 O 0.0049(7) 0.1488(12) 0.6593(3)
O35_3 O 0.1488(12) 0.1440(10) 0.3407(3)
Bi1_12 Bi 0.0000 1.0000 0.5000
Bi2_6 Bi -0.0000 1.0000 0.64986(3)
C13_4 C 0.1032(15) 0.9424(18) 0.4364(5)
C18_4 C 0.1548(13) 0.9045(16) 0.4170(5)
C23_4 C 0.2113(13) 0.9436(16) 0.3820(5)
H9_4 H 0.2197 0.9973 0.3705
C28_4 C 0.1447(12) 0.8258(15) 0.4342(4)
H14_4 H 0.1068 0.7984 0.4590
C33_4 C 0.1888(12) 0.7882(14) 0.4156(4)
H19_4 H 0.1814 0.7352 0.4277
C38_4 C 0.2570(14) 0.9061(17) 0.3628(5)
H24_4 H 0.2963 0.9343 0.3386
C43_4 C 0.2442(12) 0.8269(14) 0.3794(4)
C48_4 C 0.2840(14) 0.7797(17) 0.3561(4)
Bi3_7 Bi -0.0000 1.0000 0.35014(3)
O9_4 O 0.0598(11) 0.9084(13) 0.4713(4)
O10_4 O 0.0060(11) 0.9026(7) 0.5827(4)
O19_3 O 0.2563(6) 0.7006(10) 0.3675(3)
O25_3 O 0.0770(6) 0.9661(10) 0.2992(3)
O30_3 O 0.3382(7) 0.8155(12) 0.3260(3)
O31_2 O 0.1440(10) 0.9951(7) 0.6593(3)
Bi1_13 Bi 1.0000 0.0000 0.5000
Bi2_7 Bi 1.0000 0.0000 0.64986(3)
C10_4 C 0.8968(15) 0.0576(18) 0.5636(5)
C15_4 C 0.8452(13) 0.0955(16) 0.5830(5)
C20_4 C 0.7887(13) 0.0564(16) 0.6180(5)
H6_4 H 0.7803 0.0027 0.6295
C25_4 C 0.8553(12) 0.1742(15) 0.5658(4)
H11_4 H 0.8932 0.2016 0.5410
C30_4 C 0.8112(12) 0.2118(14) 0.5844(4)
H16_4 H 0.8186 0.2648 0.5723
C35_4 C 0.7430(14) 0.0939(17) 0.6372(5)
H21_4 H 0.7037 0.0657 0.6614
C40_4 C 0.7558(12) 0.1731(14) 0.6206(4)
C45_4 C 0.7160(14) 0.2203(17) 0.6439(4)
Bi3_8 Bi 1.0000 0.0000 0.35014(3)
O6_4 O 0.9402(11) 0.0916(13) 0.5287(4)
O13_4 O 0.9940(11) 0.0974(7) 0.4173(4)
O16_2 O 0.7437(6) 0.2994(10) 0.6325(3)
O22_2 O 0.9230(6) 0.0339(10) 0.7008(3)
O27_2 O 0.6618(7) 0.1845(12) 0.6740(3)
O34_3 O 0.8560(10) 0.0049(7) 0.3407(3)
Bi1_14 Bi 1.0000 1.0000 0.5000
Bi2_8 Bi 1.0000 1.0000 0.64986(3)
C9_4 C 0.9424(18) 0.8392(10) 0.5636(5)
C11_4 C 0.8392(10) 0.8968(15) 0.4364(5)
C14_4 C 0.9045(16) 0.7497(9) 0.5830(5)
C16_4 C 0.7497(9) 0.8452(13) 0.4170(5)
C19_4 C 0.9436(16) 0.7323(9) 0.6180(5)
C21_4 C 0.7323(9) 0.7887(13) 0.3820(5)
H5_4 H 0.9973 0.7776 0.6295
H7_4 H 0.7776 0.7803 0.3705
C24_4 C 0.8258(15) 0.6811(9) 0.5658(4)
C26_4 C 0.6811(9) 0.8553(12) 0.4342(4)
H10_4 H 0.7984 0.6916 0.5410
H12_4 H 0.6916 0.8932 0.4590
C29_4 C 0.7882(14) 0.5994(8) 0.5844(4)
C31_4 C 0.5994(8) 0.8112(12) 0.4156(4)
H15_4 H 0.7352 0.5538 0.5723
H17_4 H 0.5538 0.8186 0.4277
C34_4 C 0.9061(17) 0.6491(10) 0.6372(5)
C36_4 C 0.6491(10) 0.7430(14) 0.3628(5)
H20_4 H 0.9343 0.6380 0.6614
H22_4 H 0.6380 0.7037 0.3386
C39_4 C 0.8269(14) 0.5827(8) 0.6206(4)
C41_4 C 0.5827(8) 0.7558(12) 0.3794(4)
C44_4 C 0.7797(17) 0.4957(10) 0.6439(4)
C46_4 C 0.4957(10) 0.7160(14) 0.3561(4)
Bi3_9 Bi 1.0000 1.0000 0.35014(3)
O5_4 O 0.9084(13) 0.8486(7) 0.5287(4)
O7_4 O 0.8486(7) 0.9402(11) 0.4713(4)
O11_4 O 0.8966(9) 0.9940(11) 0.5827(4)
O12_4 O 0.9026(7) 0.8966(9) 0.4173(4)
O15_2 O 0.7006(10) 0.4443(8) 0.6325(3)
O17_3 O 0.4443(8) 0.7437(6) 0.3675(3)
O21_2 O 0.9661(10) 0.8890(8) 0.7008(3)
O23_3 O 0.8890(8) 0.9230(6) 0.2992(3)
O26_2 O 0.8155(12) 0.4773(10) 0.6740(3)
O28_3 O 0.4773(10) 0.6618(7) 0.3260(3)
O32_2 O 0.8512(12) 0.8560(10) 0.6593(3)
O36_3 O 0.9951(7) 0.8512(12) 0.3407(3)
O4_3 O 0.1894(10) 0.6715(7) 0.0073(3)
Bi4_3 Bi 0.3333 0.6667 0.01681(3)
C5_5 C 0.0673(8) 0.5221(12) 0.9177(4)
H3_5 H 0.1129 0.5147 0.9056
C6_5 C 0.0176(10) 0.5903(14) 0.9705(5)
H4_5 H 0.0287 0.6296 0.9947
C7_5 C 0.0840(8) 0.5775(12) 0.9539(4)
C8_5 C 0.1710(10) 0.6173(14) 0.9772(4)
O3_3 O 0.2224(8) 0.5896(6) 0.9658(3)
O20_3 O 0.7776(8) 0.4104(6) 0.0342(3)
O21_3 O 0.6327(10) 0.2224(8) 0.0342(3)
O22_3 O 0.5896(6) 0.3673(10) 0.0342(3)
O27_3 O 0.3285(7) 0.5178(12) 0.0073(3)
C1_5 C 0.8275(10) 0.4365(15) 0.8969(5)
C2_5 C 0.9170(9) 0.4881(13) 0.9163(5)
C3_5 C 0.9344(9) 0.5446(13) 0.9513(5)
H1_5 H 0.8891 0.5530 0.9628
C4_5 C 0.9856(9) 0.4780(12) 0.8991(4)
H2_5 H 0.9751 0.4401 0.8743
Bi1_15 Bi 0.6667 0.3333 0.8333
Bi2_9 Bi 0.6667 0.3333 0.98319(3)
O1_5 O 0.8181(7) 0.3931(11) 0.8620(4)
O2_5 O 0.7641(7) 0.4367(9) 0.9160(4)
C9_5 C 0.6091(18) 0.1725(10) 0.8969(5)
C10_5 C 0.5635(15) 0.3909(18) 0.8969(5)
C11_5 C 0.5059(10) 0.2301(15) 0.7697(5)
C12_5 C 0.7243(18) 0.4941(10) 0.7697(5)
C13_5 C 0.7699(15) 0.2757(18) 0.7697(5)
C14_5 C 0.5712(16) 0.0830(9) 0.9163(5)
C15_5 C 0.5119(13) 0.4288(16) 0.9163(5)
C16_5 C 0.4164(9) 0.1785(13) 0.7503(5)
C17_5 C 0.7622(16) 0.5836(9) 0.7503(5)
C18_5 C 0.8215(13) 0.2378(16) 0.7503(5)
C19_5 C 0.6103(16) 0.0656(9) 0.9513(5)
C20_5 C 0.4554(13) 0.3897(16) 0.9513(5)
C21_5 C 0.3990(9) 0.1220(13) 0.7153(5)
C22_5 C 0.7231(16) 0.6010(9) 0.7153(5)
C23_5 C 0.8780(13) 0.2769(16) 0.7153(5)
H5_5 H 0.6640 0.1109 0.9628
H6_5 H 0.4470 0.3360 0.9628
H7_5 H 0.4443 0.1136 0.7038
H8_5 H 0.6694 0.5557 0.7038
H9_5 H 0.8864 0.3306 0.7038
C24_5 C 0.4925(15) 0.0144(9) 0.8991(4)
C25_5 C 0.5220(12) 0.5075(15) 0.8991(4)
C26_5 C 0.3478(9) 0.1886(12) 0.7675(4)
C27_5 C 0.8409(15) 0.6522(9) 0.7675(4)
C28_5 C 0.8114(12) 0.1591(15) 0.7675(4)
H10_5 H 0.4651 0.0249 0.8743
H11_5 H 0.5599 0.5349 0.8743
H12_5 H 0.3583 0.2265 0.7923
H13_5 H 0.8683 0.6417 0.7923
H14_5 H 0.7735 0.1317 0.7923
C30_5 C 0.4779(12) 0.5451(14) 0.9177(4)
C31_5 C 0.2661(8) 0.1445(12) 0.7489(4)
C32_5 C 0.8785(14) 0.7339(8) 0.7489(4)
C33_5 C 0.8555(12) 0.1215(14) 0.7489(4)
H16_5 H 0.4853 0.5981 0.9056
H17_5 H 0.2205 0.1519 0.7610
H18_5 H 0.9315 0.7795 0.7610
H19_5 H 0.8481 0.0685 0.7610
C35_5 C 0.4097(14) 0.4272(17) 0.9705(5)
C36_5 C 0.3158(10) 0.0763(14) 0.6961(5)
C37_5 C 0.7606(17) 0.6842(10) 0.6961(5)
C38_5 C 0.9237(14) 0.2394(17) 0.6961(5)
H21_5 H 0.3704 0.3990 0.9947
H22_5 H 0.3047 0.0370 0.6719
H23_5 H 0.7324 0.6953 0.6719
H24_5 H 0.9630 0.2676 0.6719
C40_5 C 0.4225(12) 0.5064(14) 0.9539(4)
C41_5 C 0.2494(8) 0.0891(12) 0.7127(4)
C42_5 C 0.8398(14) 0.7506(8) 0.7127(4)
C43_5 C 0.9109(12) 0.1602(14) 0.7127(4)
C45_5 C 0.3827(14) 0.5536(17) 0.9772(4)
C46_5 C 0.1624(10) 0.0493(14) 0.6894(4)
C47_5 C 0.8870(17) 0.8376(10) 0.6894(4)
C48_5 C 0.9507(14) 0.1130(17) 0.6894(4)
O5_5 O 0.5751(13) 0.1819(7) 0.8620(4)
O6_5 O 0.6069(11) 0.4249(13) 0.8620(4)
O7_5 O 0.5153(7) 0.2735(11) 0.8046(4)
O8_5 O 0.7583(13) 0.4847(7) 0.8046(4)
O9_5 O 0.7265(11) 0.2417(13) 0.8046(4)
O10_5 O 0.6727(11) 0.2359(7) 0.9160(4)
O11_5 O 0.5633(9) 0.3273(11) 0.9160(4)
O12_5 O 0.5693(7) 0.2299(9) 0.7506(4)
O13_5 O 0.6607(11) 0.4307(7) 0.7506(4)
O14_5 O 0.7701(9) 0.3393(11) 0.7506(4)
O16_3 O 0.4104(6) 0.6327(10) 0.9658(3)
O31_3 O 0.8106(10) 0.3285(7) 0.9927(3)
O32_3 O 0.5178(12) 0.1894(10) 0.9927(3)
O33_3 O 0.6715(7) 0.4822(12) 0.9927(3)
O26_3 O 0.4822(12) 0.8106(10) 0.0073(3)
C29_5 C 0.4549(14) 0.9327(8) 0.9177(4)
H15_5 H 0.4019 0.8871 0.9056
C34_5 C 0.5728(17) 0.9824(10) 0.9705(5)
H20_5 H 0.6010 0.9713 0.9947
C39_5 C 0.4936(14) 0.9160(8) 0.9539(4)
C44_5 C 0.4464(17) 0.8290(10) 0.9772(4)
O15_3 O 0.3673(10) 0.7776(8) 0.9658(3)
C32_6 C 0.5451(14) 0.0673(8) 0.0823(4)
H18_6 H 0.5981 0.1129 0.0944
C37_6 C 0.4272(17) 0.0176(10) 0.0295(5)
H23_6 H 0.3990 0.0287 0.0053
C42_6 C 0.5064(14) 0.0840(8) 0.0461(4)
C47_6 C 0.5536(17) 0.1710(10) 0.0228(4)
C1_6 C 0.4941(10) 0.7699(15) 0.2303(5)
C2_6 C 0.5836(9) 0.8215(13) 0.2497(5)
C3_6 C 0.6010(9) 0.8780(13) 0.2847(5)
H1_6 H 0.5557 0.8864 0.2962
C4_6 C 0.6522(9) 0.8114(12) 0.2325(4)
H2_6 H 0.6417 0.7735 0.2077
C5_6 C 0.7339(8) 0.8555(12) 0.2511(4)
H3_6 H 0.7795 0.8481 0.2390
C6_6 C 0.6842(10) 0.9237(14) 0.3039(5)
H4_6 H 0.6953 0.9630 0.3281
C7_6 C 0.7506(8) 0.9109(12) 0.2873(4)
C8_6 C 0.8376(10) 0.9507(14) 0.3106(4)
Bi1_16 Bi 0.3333 0.6667 0.1667
O1_6 O 0.4847(7) 0.7265(11) 0.1954(4)
O2_6 O 0.4307(7) 0.7701(9) 0.2494(4)
C9_6 C 0.2757(18) 0.5059(10) 0.2303(5)
C10_6 C 0.2301(15) 0.7243(18) 0.2303(5)
C11_6 C 0.1725(10) 0.5635(15) 0.1031(5)
C12_6 C 0.3909(18) 0.8275(10) 0.1031(5)
C13_6 C 0.4365(15) 0.6091(18) 0.1031(5)
C14_6 C 0.2378(16) 0.4164(9) 0.2497(5)
C15_6 C 0.1785(13) 0.7622(16) 0.2497(5)
C16_6 C 0.0830(9) 0.5119(13) 0.0837(5)
C17_6 C 0.4288(16) 0.9170(9) 0.0837(5)
C18_6 C 0.4881(13) 0.5712(16) 0.0837(5)
C19_6 C 0.2769(16) 0.3990(9) 0.2847(5)
C20_6 C 0.1220(13) 0.7231(16) 0.2847(5)
C21_6 C 0.0656(9) 0.4554(13) 0.0487(5)
C22_6 C 0.3897(16) 0.9344(9) 0.0487(5)
C23_6 C 0.5446(13) 0.6103(16) 0.0487(5)
H5_6 H 0.3306 0.4443 0.2962
H6_6 H 0.1136 0.6694 0.2962
H7_6 H 0.1109 0.4470 0.0372
H8_6 H 0.3360 0.8891 0.0372
H9_6 H 0.5530 0.6640 0.0372
C24_6 C 0.1591(15) 0.3478(9) 0.2325(4)
C25_6 C 0.1886(12) 0.8409(15) 0.2325(4)
C26_6 C 0.0144(9) 0.5220(12) 0.1009(4)
C27_6 C 0.5075(15) 0.9856(9) 0.1009(4)
C28_6 C 0.4780(12) 0.4925(15) 0.1009(4)
H10_6 H 0.1317 0.3583 0.2077
H11_6 H 0.2265 0.8683 0.2077
H12_6 H 0.0249 0.5599 0.1257
H13_6 H 0.5349 0.9751 0.1257
H14_6 H 0.4401 0.4651 0.1257
C29_6 C 0.1215(14) 0.2661(8) 0.2511(4)
C30_6 C 0.1445(12) 0.8785(14) 0.2511(4)
C33_6 C 0.5221(12) 0.4549(14) 0.0823(4)
H15_6 H 0.0685 0.2205 0.2390
H16_6 H 0.1519 0.9315 0.2390
H19_6 H 0.5147 0.4019 0.0944
C34_6 C 0.2394(17) 0.3158(10) 0.3039(5)
C35_6 C 0.0763(14) 0.7606(17) 0.3039(5)
C38_6 C 0.5903(14) 0.5728(17) 0.0295(5)
H20_6 H 0.2676 0.3047 0.3281
H21_6 H 0.0370 0.7324 0.3281
H24_6 H 0.6296 0.6010 0.0053
C39_6 C 0.1602(14) 0.2494(8) 0.2873(4)
C40_6 C 0.0891(12) 0.8398(14) 0.2873(4)
C43_6 C 0.5775(12) 0.4936(14) 0.0461(4)
C44_6 C 0.1130(17) 0.1624(10) 0.3106(4)
C45_6 C 0.0493(14) 0.8870(17) 0.3106(4)
C48_6 C 0.6173(14) 0.4464(17) 0.0228(4)
O5_6 O 0.2417(13) 0.5153(7) 0.1954(4)
O6_6 O 0.2735(11) 0.7583(13) 0.1954(4)
O7_6 O 0.1819(7) 0.6069(11) 0.1380(4)
O8_6 O 0.4249(13) 0.8181(7) 0.1380(4)
O9_6 O 0.3931(11) 0.5751(13) 0.1380(4)
O10_6 O 0.3393(11) 0.5693(7) 0.2494(4)
O11_6 O 0.2299(9) 0.6607(11) 0.2494(4)
O12_6 O 0.2359(7) 0.5633(9) 0.0840(4)
O13_6 O 0.3273(11) 0.7641(7) 0.0840(4)
O14_6 O 0.4367(9) 0.6727(11) 0.0840(4)
C31_6 C 0.9327(8) 0.4779(12) 0.0823(4)
H17_6 H 0.8871 0.4853 0.0944
C36_6 C 0.9824(10) 0.4097(14) 0.0295(5)
H22_6 H 0.9713 0.3704 0.0053
C41_6 C 0.9160(8) 0.4225(12) 0.0461(4)
C46_6 C 0.8290(10) 0.3827(14) 0.0228(4)
loop_
_geom_bond_atom_site_label_1
_geom_bond_atom_site_label_2
_geom_bond_site_symmetry_1
_geom_bond_site_symmetry_2
C12 C17 1_555 1_555
C17 C22 1_555 1_555
C22 H8 1_555 1_555
C27 C17 1_555 1_555
H13 C27 1_555 1_555
C32 C27 1_555 1_555
H18 C32 1_555 1_555
C37 C22 1_555 1_555
H23 C37 1_555 1_555
C42 C32 1_555 1_555
C47 C42 1_555 1_555
Bi8 O18 1_555 1_555
O8 Bi1 1_555 1_555
O14 Bi1 1_555 1_555
O18 C47 1_555 1_555
O24 Bi3 1_555 1_555
O29 C47 1_555 1_555
O35 Bi3 1_555 1_555
C12 O8 1_555 1_555
C37 C42 1_555 1_555
Bi3 O14 1_555 1_555
Bi8 O29 1_555 1_555
C1 C2 1_555 1_555
C2 C3 1_555 1_555
C3 H1 1_555 1_555
C4 C2 1_555 1_555
H2 C4 1_555 1_555
C5 C4 1_555 1_555
H3 C5 1_555 1_555
C6 C3 1_555 1_555
H4 C6 1_555 1_555
C7 C5 1_555 1_555
C8 C7 1_555 1_555
Bi1_2 O1 1_555 1_555
Bi2 O2 1_555 1_555
O1 C1 1_555 1_555
O2 C1 1_555 1_555
O3 C8 1_555 1_555
O4 C8 1_555 1_555
Bi4 O3 1_555 1_555
O20 Bi2 1_555 1_555
O33 Bi2 1_555 1_555
C6 C7 1_555 1_555
Bi1_2 O2 1_555 1_555
O4 Bi4 1_555 1_555
O13 Bi1_3 1_555 1_555
O34 Bi3_2 1_555 1_555
Bi3_2 O13 1_555 1_555
C10 C15 1_555 1_555
C15 C20 1_555 1_555
C20 H6 1_555 1_555
C25 C15 1_555 1_555
H11 C25 1_555 1_555
C30 C25 1_555 1_555
H16 C30 1_555 1_555
C35 C20 1_555 1_555
H21 C35 1_555 1_555
C40 C30 1_555 1_555
C45 C40 1_555 1_555
Bi4 O16 1_555 1_555
O6 Bi1_4 1_555 1_555
O16 C45 1_555 1_555
O22 Bi2_2 1_555 1_555
O27 C45 1_555 1_555
C10 O6 1_555 1_555
C35 C40 1_555 1_555
Bi4 O27 1_555 1_555
C13 C18 1_555 1_555
C18 C23 1_555 1_555
C23 H9 1_555 1_555
C28 C18 1_555 1_555
H14 C28 1_555 1_555
C33 C28 1_555 1_555
H19 C33 1_555 1_555
C38 C23 1_555 1_555
H24 C38 1_555 1_555
C43 C33 1_555 1_555
C48 C43 1_555 1_555
Bi8 O19 1_555 1_555
O9 Bi1_5 1_555 1_555
O19 C48 1_555 1_555
O25 Bi3_3 1_555 1_555
O30 C48 1_555 1_555
C13 O9 1_555 1_555
C38 C43 1_555 1_555
Bi8 O30 1_555 1_555
O10 Bi1_6 1_555 1_555
O31 Bi2_3 1_555 1_555
Bi2_3 O10 1_555 1_555
C11 C16 1_555 1_555
C16 C21 1_555 1_555
C21 H7 1_555 1_555
C26 C16 1_555 1_555
H12 C26 1_555 1_555
C31 C26 1_555 1_555
H17 C31 1_555 1_555
C36 C21 1_555 1_555
H22 C36 1_555 1_555
C41 C31 1_555 1_555
C46 C41 1_555 1_555
Bi3_4 O12 1_555 1_555
Bi8 O17 1_555 1_555
O7 Bi1_7 1_555 1_555
O12 Bi1_7 1_555 1_555
O17 C46 1_555 1_555
O23 Bi3_4 1_555 1_555
O28 C46 1_555 1_555
O36 Bi3_4 1_555 1_555
C11 O7 1_555 1_555
C11 O12 1_555 1_555
C36 C41 1_555 1_555
Bi8 O28 1_555 1_555
C9 C14 1_555 1_555
C14 C19 1_555 1_555
C19 H5 1_555 1_555
C24 C14 1_555 1_555
H10 C24 1_555 1_555
C29 C24 1_555 1_555
H15 C29 1_555 1_555
C34 C19 1_555 1_555
H20 C34 1_555 1_555
C39 C29 1_555 1_555
C44 C39 1_555 1_555
Bi4 O15 1_555 1_555
O5 Bi1_8 1_555 1_555
O11 Bi1_8 1_555 1_555
O15 C44 1_555 1_555
O21 Bi2_4 1_555 1_555
O26 C44 1_555 1_555
O32 Bi2_4 1_555 1_555
Bi2_4 O11 1_555 1_555
C9 O5 1_555 1_555
C34 C39 1_555 1_555
Bi4 O26 1_555 1_555
H18_2 C32_2 1_555 1_555
H23_2 C37_2 1_555 1_555
C42_2 C32_2 1_555 1_555
C47_2 C42_2 1_555 1_555
Bi8_2 O18_2 1_555 1_555
O18_2 C47_2 1_555 1_555
O29_2 C47_2 1_555 1_555
C37_2 C42_2 1_555 1_555
Bi8_2 O29_2 1_555 1_555
C1_2 C2_2 1_555 1_555
C2_2 C3_2 1_555 1_555
C3_2 H1_2 1_555 1_555
C4_2 C2_2 1_555 1_555
H2_2 C4_2 1_555 1_555
C5_2 C4_2 1_555 1_555
H3_2 C5_2 1_555 1_555
C6_2 C3_2 1_555 1_555
H4_2 C6_2 1_555 1_555
C7_2 C5_2 1_555 1_555
C8_2 C7_2 1_555 1_555
Bi1_9 O1_2 1_555 1_555
Bi8 O2_2 1_555 1_555
O1_2 C1_2 1_555 1_555
O2_2 C1_2 1_555 1_555
O23 C8_2 1_555 1_555
C9_2 C14_2 1_555 1_555
C10_2 C15_2 1_555 1_555
C11_2 C16_2 1_555 1_555
C12_2 C17_2 1_555 1_555
C13_2 C18_2 1_555 1_555
C14_2 C19_2 1_555 1_555
C15_2 C20_2 1_555 1_555
C16_2 C21_2 1_555 1_555
C17_2 C22_2 1_555 1_555
C18_2 C23_2 1_555 1_555
C19_2 H5_2 1_555 1_555
C20_2 H6_2 1_555 1_555
C21_2 H7_2 1_555 1_555
C22_2 H8_2 1_555 1_555
C23_2 H9_2 1_555 1_555
C24_2 C14_2 1_555 1_555
C25_2 C15_2 1_555 1_555
C26_2 C16_2 1_555 1_555
C27_2 C17_2 1_555 1_555
C28_2 C18_2 1_555 1_555
H10_2 C24_2 1_555 1_555
H11_2 C25_2 1_555 1_555
H12_2 C26_2 1_555 1_555
H13_2 C27_2 1_555 1_555
H14_2 C28_2 1_555 1_555
C29_2 C24_2 1_555 1_555
C30_2 C25_2 1_555 1_555
C33_2 C28_2 1_555 1_555
H15_2 C29_2 1_555 1_555
H16_2 C30_2 1_555 1_555
H19_2 C33_2 1_555 1_555
C34_2 C19_2 1_555 1_555
C35_2 C20_2 1_555 1_555
C38_2 C23_2 1_555 1_555
H20_2 C34_2 1_555 1_555
H21_2 C35_2 1_555 1_555
H24_2 C38_2 1_555 1_555
C39_2 C29_2 1_555 1_555
C40_2 C30_2 1_555 1_555
C43_2 C33_2 1_555 1_555
C44_2 C39_2 1_555 1_555
C45_2 C40_2 1_555 1_555
C48_2 C43_2 1_555 1_555
Bi3_5 O12_2 1_555 1_555
Bi8_2 O19_2 1_555 1_555
O5_2 Bi1_9 1_555 1_555
O6_2 Bi1_9 1_555 1_555
O7_2 Bi1_9 1_555 1_555
O8_2 Bi1_9 1_555 1_555
O9_2 Bi1_9 1_555 1_555
O10_2 Bi1_9 1_555 1_555
O11_2 Bi1_9 1_555 1_555
O12_2 Bi1_9 1_555 1_555
O13_2 Bi1_9 1_555 1_555
O14_2 Bi1_9 1_555 1_555
O24 C44_2 1_555 1_555
O25 C45_2 1_555 1_555
O19_2 C48_2 1_555 1_555
O23_2 Bi3_5 1_555 1_555
O24_2 Bi3_5 1_555 1_555
O25_2 Bi3_5 1_555 1_555
O35 C44_2 1_555 1_555
O30_2 C48_2 1_555 1_555
O34_2 Bi3_5 1_555 1_555
O35_2 Bi3_5 1_555 1_555
O36_2 Bi3_5 1_555 1_555
C6_2 C7_2 1_555 1_555
Bi1_9 O2_2 1_555 1_555
Bi8 O10_2 1_555 1_555
Bi8 O11_2 1_555 1_555
C9_2 O5_2 1_555 1_555
C9_2 O10_2 1_555 1_555
C10_2 O6_2 1_555 1_555
C10_2 O11_2 1_555 1_555
C11_2 O7_2 1_555 1_555
C11_2 O12_2 1_555 1_555
C12_2 O8_2 1_555 1_555
C12_2 O13_2 1_555 1_555
C13_2 O9_2 1_555 1_555
C13_2 O14_2 1_555 1_555
C34_2 C39_2 1_555 1_555
C35_2 C40_2 1_555 1_555
C38_2 C43_2 1_555 1_555
Bi3_5 O13_2 1_555 1_555
Bi3_5 O14_2 1_555 1_555
Bi8_2 O30_2 1_555 1_555
H17_2 C31_2 1_555 1_555
H22_2 C36_2 1_555 1_555
C41_2 C31_2 1_555 1_555
C46_2 C41_2 1_555 1_555
Bi8_2 O17_2 1_555 1_555
O17_2 C46_2 1_555 1_555
O28_2 C46_2 1_555 1_555
C36_2 C41_2 1_555 1_555
Bi8_2 O28_2 1_555 1_555
H3_3 C5_3 1_555 1_555
H4_3 C6_3 1_555 1_555
C7_3 C5_3 1_555 1_555
C8_3 C7_3 1_555 1_555
O23_2 C8_3 1_555 1_555
O34_2 C8_3 1_555 1_555
C6_3 C7_3 1_555 1_555
C1_3 C2_3 1_555 1_555
C2_3 C3_3 1_555 1_555
C3_3 H1_3 1_555 1_555
C4_3 C2_3 1_555 1_555
H2_3 C4_3 1_555 1_555
Bi1_10 O1_3 1_555 1_555
Bi8_2 O2_3 1_555 1_555
O1_3 C1_3 1_555 1_555
O2_3 C1_3 1_555 1_555
C9_3 C14_3 1_555 1_555
C10_3 C15_3 1_555 1_555
C11_3 C16_3 1_555 1_555
C12_3 C17_3 1_555 1_555
C13_3 C18_3 1_555 1_555
C14_3 C19_3 1_555 1_555
C15_3 C20_3 1_555 1_555
C16_3 C21_3 1_555 1_555
C17_3 C22_3 1_555 1_555
C18_3 C23_3 1_555 1_555
C19_3 H5_3 1_555 1_555
C20_3 H6_3 1_555 1_555
C21_3 H7_3 1_555 1_555
C22_3 H8_3 1_555 1_555
C23_3 H9_3 1_555 1_555
C24_3 C14_3 1_555 1_555
C25_3 C15_3 1_555 1_555
C26_3 C16_3 1_555 1_555
C27_3 C17_3 1_555 1_555
C28_3 C18_3 1_555 1_555
H10_3 C24_3 1_555 1_555
H11_3 C25_3 1_555 1_555
H12_3 C26_3 1_555 1_555
H13_3 C27_3 1_555 1_555
H14_3 C28_3 1_555 1_555
C30_3 C25_3 1_555 1_555
C31_3 C26_3 1_555 1_555
C32_3 C27_3 1_555 1_555
C33_3 C28_3 1_555 1_555
H16_3 C30_3 1_555 1_555
H17_3 C31_3 1_555 1_555
H18_3 C32_3 1_555 1_555
H19_3 C33_3 1_555 1_555
C35_3 C20_3 1_555 1_555
C36_3 C21_3 1_555 1_555
C37_3 C22_3 1_555 1_555
C38_3 C23_3 1_555 1_555
H21_3 C35_3 1_555 1_555
H22_3 C36_3 1_555 1_555
H23_3 C37_3 1_555 1_555
H24_3 C38_3 1_555 1_555
C40_3 C30_3 1_555 1_555
C41_3 C31_3 1_555 1_555
C42_3 C32_3 1_555 1_555
C43_3 C33_3 1_555 1_555
C45_3 C40_3 1_555 1_555
C46_3 C41_3 1_555 1_555
C47_3 C42_3 1_555 1_555
C48_3 C43_3 1_555 1_555
Bi4 O12_3 1_555 1_555
O5_3 Bi1_10 1_555 1_555
O6_3 Bi1_10 1_555 1_555
O7_3 Bi1_10 1_555 1_555
O8_3 Bi1_10 1_555 1_555
O9_3 Bi1_10 1_555 1_555
O10_3 Bi1_10 1_555 1_555
O11_3 Bi1_10 1_555 1_555
O12_3 Bi1_10 1_555 1_555
O13_3 Bi1_10 1_555 1_555
O14_3 Bi1_10 1_555 1_555
O25_2 C45_3 1_555 1_555
O20 C46_3 1_555 1_555
O21 C47_3 1_555 1_555
O22 C48_3 1_555 1_555
O36_2 C45_3 1_555 1_555
O32 C47_3 1_555 1_555
Bi1_10 O2_3 1_555 1_555
Bi8_2 O10_3 1_555 1_555
Bi8_2 O11_3 1_555 1_555
C9_3 O5_3 1_555 1_555
C9_3 O10_3 1_555 1_555
C10_3 O6_3 1_555 1_555
C10_3 O11_3 1_555 1_555
C11_3 O7_3 1_555 1_555
C11_3 O12_3 1_555 1_555
C12_3 O8_3 1_555 1_555
C12_3 O13_3 1_555 1_555
C13_3 O9_3 1_555 1_555
C13_3 O14_3 1_555 1_555
C35_3 C40_3 1_555 1_555
C36_3 C41_3 1_555 1_555
C37_3 C42_3 1_555 1_555
C38_3 C43_3 1_555 1_555
Bi4 O13_3 1_555 1_555
Bi4 O14_3 1_555 1_555
H15_3 C29_3 1_555 1_555
H20_3 C34_3 1_555 1_555
C39_3 C29_3 1_555 1_555
C44_3 C39_3 1_555 1_555
O24_2 C44_3 1_555 1_555
O35_2 C44_3 1_555 1_555
C34_3 C39_3 1_555 1_555
C1_4 C2_4 1_555 1_555
C2_4 C3_4 1_555 1_555
C3_4 H1_4 1_555 1_555
C4_4 C2_4 1_555 1_555
H2_4 C4_4 1_555 1_555
C5_4 C4_4 1_555 1_555
H3_4 C5_4 1_555 1_555
C6_4 C3_4 1_555 1_555
H4_4 C6_4 1_555 1_555
C7_4 C5_4 1_555 1_555
C8_4 C7_4 1_555 1_555
Bi1_11 O1_4 1_555 1_555
Bi2_5 O2_4 1_555 1_555
O1_4 C1_4 1_555 1_555
O2_4 C1_4 1_555 1_555
O3_2 C8_4 1_555 1_555
O4_2 C8_4 1_555 1_555
C12_4 C17_4 1_555 1_555
C17_4 C22_4 1_555 1_555
C22_4 H8_4 1_555 1_555
C27_4 C17_4 1_555 1_555
H13_4 C27_4 1_555 1_555
C32_4 C27_4 1_555 1_555
H18_4 C32_4 1_555 1_555
C37_4 C22_4 1_555 1_555
H23_4 C37_4 1_555 1_555
C42_4 C32_4 1_555 1_555
C47_4 C42_4 1_555 1_555
Bi4_2 O3_2 1_555 1_555
Bi8_3 O18_3 1_555 1_555
O8_4 Bi1_11 1_555 1_555
O14_4 Bi1_11 1_555 1_555
O18_3 C47_4 1_555 1_555
O20_2 Bi2_5 1_555 1_555
O24_3 Bi3_6 1_555 1_555
O29_3 C47_4 1_555 1_555
O33_2 Bi2_5 1_555 1_555
O35_3 Bi3_6 1_555 1_555
C6_4 C7_4 1_555 1_555
Bi1_11 O2_4 1_555 1_555
O4_2 Bi4_2 1_555 1_555
C12_4 O8_4 1_555 1_555
C37_4 C42_4 1_555 1_555
Bi3_6 O14_4 1_555 1_555
Bi8_3 O29_3 1_555 1_555
C13_4 C18_4 1_555 1_555
C18_4 C23_4 1_555 1_555
C23_4 H9_4 1_555 1_555
C28_4 C18_4 1_555 1_555
H14_4 C28_4 1_555 1_555
C33_4 C28_4 1_555 1_555
H19_4 C33_4 1_555 1_555
C38_4 C23_4 1_555 1_555
H24_4 C38_4 1_555 1_555
C43_4 C33_4 1_555 1_555
C48_4 C43_4 1_555 1_555
Bi8_3 O19_3 1_555 1_555
O9_4 Bi1_12 1_555 1_555
O10_4 Bi1_12 1_555 1_555
O19_3 C48_4 1_555 1_555
O25_3 Bi3_7 1_555 1_555
O30_3 C48_4 1_555 1_555
O31_2 Bi2_6 1_555 1_555
Bi2_6 O10_4 1_555 1_555
C13_4 O9_4 1_555 1_555
C38_4 C43_4 1_555 1_555
Bi8_3 O30_3 1_555 1_555
C10_4 C15_4 1_555 1_555
C15_4 C20_4 1_555 1_555
C20_4 H6_4 1_555 1_555
C25_4 C15_4 1_555 1_555
H11_4 C25_4 1_555 1_555
C30_4 C25_4 1_555 1_555
H16_4 C30_4 1_555 1_555
C35_4 C20_4 1_555 1_555
H21_4 C35_4 1_555 1_555
C40_4 C30_4 1_555 1_555
C45_4 C40_4 1_555 1_555
Bi4_2 O16_2 1_555 1_555
O6_4 Bi1_13 1_555 1_555
O13_4 Bi1_13 1_555 1_555
O16_2 C45_4 1_555 1_555
O22_2 Bi2_7 1_555 1_555
O27_2 C45_4 1_555 1_555
O34_3 Bi3_8 1_555 1_555
C10_4 O6_4 1_555 1_555
C35_4 C40_4 1_555 1_555
Bi3_8 O13_4 1_555 1_555
Bi4_2 O27_2 1_555 1_555
C9_4 C14_4 1_555 1_555
C11_4 C16_4 1_555 1_555
C14_4 C19_4 1_555 1_555
C16_4 C21_4 1_555 1_555
C19_4 H5_4 1_555 1_555
C21_4 H7_4 1_555 1_555
C24_4 C14_4 1_555 1_555
C26_4 C16_4 1_555 1_555
H10_4 C24_4 1_555 1_555
H12_4 C26_4 1_555 1_555
C29_4 C24_4 1_555 1_555
C31_4 C26_4 1_555 1_555
H15_4 C29_4 1_555 1_555
H17_4 C31_4 1_555 1_555
C34_4 C19_4 1_555 1_555
C36_4 C21_4 1_555 1_555
H20_4 C34_4 1_555 1_555
H22_4 C36_4 1_555 1_555
C39_4 C29_4 1_555 1_555
C41_4 C31_4 1_555 1_555
C44_4 C39_4 1_555 1_555
C46_4 C41_4 1_555 1_555
Bi3_9 O12_4 1_555 1_555
Bi4_2 O15_2 1_555 1_555
Bi8_3 O17_3 1_555 1_555
O5_4 Bi1_14 1_555 1_555
O7_4 Bi1_14 1_555 1_555
O11_4 Bi1_14 1_555 1_555
O12_4 Bi1_14 1_555 1_555
O15_2 C44_4 1_555 1_555
O17_3 C46_4 1_555 1_555
O21_2 Bi2_8 1_555 1_555
O23_3 Bi3_9 1_555 1_555
O26_2 C44_4 1_555 1_555
O28_3 C46_4 1_555 1_555
O32_2 Bi2_8 1_555 1_555
O36_3 Bi3_9 1_555 1_555
Bi2_8 O11_4 1_555 1_555
C9_4 O5_4 1_555 1_555
C11_4 O7_4 1_555 1_555
C11_4 O12_4 1_555 1_555
C34_4 C39_4 1_555 1_555
C36_4 C41_4 1_555 1_555
Bi4_2 O26_2 1_555 1_555
Bi8_3 O28_3 1_555 1_555
O4_3 Bi4_3 1_555 1_555
H3_5 C5_5 1_555 1_555
H4_5 C6_5 1_555 1_555
C7_5 C5_5 1_555 1_555
C8_5 C7_5 1_555 1_555
O3_3 C8_5 1_555 1_555
C6_5 C7_5 1_555 1_555
Bi4_3 O27_3 1_555 1_555
C1_5 C2_5 1_555 1_555
C2_5 C3_5 1_555 1_555
C3_5 H1_5 1_555 1_555
C4_5 C2_5 1_555 1_555
H2_5 C4_5 1_555 1_555
Bi1_15 O1_5 1_555 1_555
Bi2_9 O2_5 1_555 1_555
O1_5 C1_5 1_555 1_555
O2_5 C1_5 1_555 1_555
C9_5 C14_5 1_555 1_555
C10_5 C15_5 1_555 1_555
C11_5 C16_5 1_555 1_555
C12_5 C17_5 1_555 1_555
C13_5 C18_5 1_555 1_555
C14_5 C19_5 1_555 1_555
C15_5 C20_5 1_555 1_555
C16_5 C21_5 1_555 1_555
C17_5 C22_5 1_555 1_555
C18_5 C23_5 1_555 1_555
C19_5 H5_5 1_555 1_555
C20_5 H6_5 1_555 1_555
C21_5 H7_5 1_555 1_555
C22_5 H8_5 1_555 1_555
C23_5 H9_5 1_555 1_555
C24_5 C14_5 1_555 1_555
C25_5 C15_5 1_555 1_555
C26_5 C16_5 1_555 1_555
C27_5 C17_5 1_555 1_555
C28_5 C18_5 1_555 1_555
H10_5 C24_5 1_555 1_555
H11_5 C25_5 1_555 1_555
H12_5 C26_5 1_555 1_555
H13_5 C27_5 1_555 1_555
H14_5 C28_5 1_555 1_555
C30_5 C25_5 1_555 1_555
C31_5 C26_5 1_555 1_555
C32_5 C27_5 1_555 1_555
C33_5 C28_5 1_555 1_555
H16_5 C30_5 1_555 1_555
H17_5 C31_5 1_555 1_555
H18_5 C32_5 1_555 1_555
H19_5 C33_5 1_555 1_555
C35_5 C20_5 1_555 1_555
C36_5 C21_5 1_555 1_555
C37_5 C22_5 1_555 1_555
C38_5 C23_5 1_555 1_555
H21_5 C35_5 1_555 1_555
H22_5 C36_5 1_555 1_555
H23_5 C37_5 1_555 1_555
H24_5 C38_5 1_555 1_555
C40_5 C30_5 1_555 1_555
C41_5 C31_5 1_555 1_555
C42_5 C32_5 1_555 1_555
C43_5 C33_5 1_555 1_555
C45_5 C40_5 1_555 1_555
C46_5 C41_5 1_555 1_555
C47_5 C42_5 1_555 1_555
C48_5 C43_5 1_555 1_555
Bi4_2 O12_5 1_555 1_555
O5_5 Bi1_15 1_555 1_555
O6_5 Bi1_15 1_555 1_555
O7_5 Bi1_15 1_555 1_555
O8_5 Bi1_15 1_555 1_555
O9_5 Bi1_15 1_555 1_555
O10_5 Bi1_15 1_555 1_555
O11_5 Bi1_15 1_555 1_555
O12_5 Bi1_15 1_555 1_555
O13_5 Bi1_15 1_555 1_555
O14_5 Bi1_15 1_555 1_555
O16_3 C45_5 1_555 1_555
O20_2 C46_5 1_555 1_555
O21_2 C47_5 1_555 1_555
O22_2 C48_5 1_555 1_555
O32_2 C47_5 1_555 1_555
O31_3 Bi2_9 1_555 1_555
O32_3 Bi2_9 1_555 1_555
O33_3 Bi2_9 1_555 1_555
Bi1_15 O2_5 1_555 1_555
Bi2_9 O10_5 1_555 1_555
Bi2_9 O11_5 1_555 1_555
C9_5 O5_5 1_555 1_555
C9_5 O10_5 1_555 1_555
C10_5 O6_5 1_555 1_555
C10_5 O11_5 1_555 1_555
C11_5 O7_5 1_555 1_555
C11_5 O12_5 1_555 1_555
C12_5 O8_5 1_555 1_555
C12_5 O13_5 1_555 1_555
C13_5 O9_5 1_555 1_555
C13_5 O14_5 1_555 1_555
C35_5 C40_5 1_555 1_555
C36_5 C41_5 1_555 1_555
C37_5 C42_5 1_555 1_555
C38_5 C43_5 1_555 1_555
Bi4_2 O13_5 1_555 1_555
Bi4_2 O14_5 1_555 1_555
Bi4_3 O26_3 1_555 1_555
H15_5 C29_5 1_555 1_555
H20_5 C34_5 1_555 1_555
C39_5 C29_5 1_555 1_555
C44_5 C39_5 1_555 1_555
O15_3 C44_5 1_555 1_555
C34_5 C39_5 1_555 1_555
H18_6 C32_6 1_555 1_555
H23_6 C37_6 1_555 1_555
C42_6 C32_6 1_555 1_555
C47_6 C42_6 1_555 1_555
O21_3 C47_6 1_555 1_555
C37_6 C42_6 1_555 1_555
C1_6 C2_6 1_555 1_555
C2_6 C3_6 1_555 1_555
C3_6 H1_6 1_555 1_555
C4_6 C2_6 1_555 1_555
H2_6 C4_6 1_555 1_555
C5_6 C4_6 1_555 1_555
H3_6 C5_6 1_555 1_555
C6_6 C3_6 1_555 1_555
H4_6 C6_6 1_555 1_555
C7_6 C5_6 1_555 1_555
C8_6 C7_6 1_555 1_555
Bi1_16 O1_6 1_555 1_555
Bi8_3 O2_6 1_555 1_555
O1_6 C1_6 1_555 1_555
O2_6 C1_6 1_555 1_555
O23_3 C8_6 1_555 1_555
C9_6 C14_6 1_555 1_555
C10_6 C15_6 1_555 1_555
C11_6 C16_6 1_555 1_555
C12_6 C17_6 1_555 1_555
C13_6 C18_6 1_555 1_555
C14_6 C19_6 1_555 1_555
C15_6 C20_6 1_555 1_555
C16_6 C21_6 1_555 1_555
C17_6 C22_6 1_555 1_555
C18_6 C23_6 1_555 1_555
C19_6 H5_6 1_555 1_555
C20_6 H6_6 1_555 1_555
C21_6 H7_6 1_555 1_555
C22_6 H8_6 1_555 1_555
C23_6 H9_6 1_555 1_555
C24_6 C14_6 1_555 1_555
C25_6 C15_6 1_555 1_555
C26_6 C16_6 1_555 1_555
C27_6 C17_6 1_555 1_555
C28_6 C18_6 1_555 1_555
H10_6 C24_6 1_555 1_555
H11_6 C25_6 1_555 1_555
H12_6 C26_6 1_555 1_555
H13_6 C27_6 1_555 1_555
H14_6 C28_6 1_555 1_555
C29_6 C24_6 1_555 1_555
C30_6 C25_6 1_555 1_555
C33_6 C28_6 1_555 1_555
H15_6 C29_6 1_555 1_555
H16_6 C30_6 1_555 1_555
H19_6 C33_6 1_555 1_555
C34_6 C19_6 1_555 1_555
C35_6 C20_6 1_555 1_555
C38_6 C23_6 1_555 1_555
H20_6 C34_6 1_555 1_555
H21_6 C35_6 1_555 1_555
H24_6 C38_6 1_555 1_555
C39_6 C29_6 1_555 1_555
C40_6 C30_6 1_555 1_555
C43_6 C33_6 1_555 1_555
C44_6 C39_6 1_555 1_555
C45_6 C40_6 1_555 1_555
C48_6 C43_6 1_555 1_555
Bi4_3 O12_6 1_555 1_555
O5_6 Bi1_16 1_555 1_555
O6_6 Bi1_16 1_555 1_555
O7_6 Bi1_16 1_555 1_555
O8_6 Bi1_16 1_555 1_555
O9_6 Bi1_16 1_555 1_555
O10_6 Bi1_16 1_555 1_555
O11_6 Bi1_16 1_555 1_555
O12_6 Bi1_16 1_555 1_555
O13_6 Bi1_16 1_555 1_555
O14_6 Bi1_16 1_555 1_555
O24_3 C44_6 1_555 1_555
O25_3 C45_6 1_555 1_555
O22_3 C48_6 1_555 1_555
O35_3 C44_6 1_555 1_555
C6_6 C7_6 1_555 1_555
Bi1_16 O2_6 1_555 1_555
Bi8_3 O10_6 1_555 1_555
Bi8_3 O11_6 1_555 1_555
C9_6 O5_6 1_555 1_555
C9_6 O10_6 1_555 1_555
C10_6 O6_6 1_555 1_555
C10_6 O11_6 1_555 1_555
C11_6 O7_6 1_555 1_555
C11_6 O12_6 1_555 1_555
C12_6 O8_6 1_555 1_555
C12_6 O13_6 1_555 1_555
C13_6 O9_6 1_555 1_555
C13_6 O14_6 1_555 1_555
C34_6 C39_6 1_555 1_555
C35_6 C40_6 1_555 1_555
C38_6 C43_6 1_555 1_555
Bi4_3 O13_6 1_555 1_555
Bi4_3 O14_6 1_555 1_555
H17_6 C31_6 1_555 1_555
H22_6 C36_6 1_555 1_555
C41_6 C31_6 1_555 1_555
C46_6 C41_6 1_555 1_555
O20_3 C46_6 1_555 1_555
C36_6 C41_6 1_555 1_555

#END
