
###############################################################################
#
# This file contains modified crystal structure data generated from the
# MOF subset of the Cambridge Structural Database (CSD) v543 
# hosted by the Cambridge Crystallographic Data Centre (CCDC).
#
# This work is licensed under the Creative Commons
# Attribution-NonCommercial-ShareAlike 4.0 International License.
# To view a copy of this license, visit
# http://creativecommons.org/licenses/by-nc-sa/4.0/
# or send a letter to
# Creative Commons, PO Box 1866, Mountain View, CA 94042, USA.
#
# CIF created using the CSD Python API on 29 September 2022
# The structure has been converted into the P1 space group
# The structure has a 3D framework
# The original CSD entry XAFCOY is in the orthorhombic crystal system
# The original CSD entry XAFCOY is in a Sohncke space group
# The framework has been calculated to contain at least 10.0% void space
# The void calculation uses a probe of radius 1.32A, grid spacing 0.4
# H atom positions have been added when not included in the experimental data
#
###############################################################################

data_XAFCOY
_chemical_formula_moiety         '(C48 H64 Cd4 N16 O28 S4)n'
_symmetry_cell_setting           triclinic
_symmetry_space_group_name_H-M   'P 1'
_symmetry_Int_Tables_number      1
_space_group_name_Hall           'P 1'
loop_
_symmetry_equiv_pos_site_id
_symmetry_equiv_pos_as_xyz
1 x,y,z
_cell_length_a                   8.5328(5)
_cell_length_b                   8.9113(5)
_cell_length_c                   23.9587(14)
_cell_angle_alpha                90
_cell_angle_beta                 90
_cell_angle_gamma                90
_cell_volume                     1821.78
loop_
_atom_site_label
_atom_site_type_symbol
_atom_site_fract_x
_atom_site_fract_y
_atom_site_fract_z
O8 O 0.3864(3) 0.0913(3) 0.25572(13)
Cd1 Cd 0.35765(3) 0.84606(3) 0.229927(12)
S1 S 0.71767(10) 0.71446(10) 0.22709(5)
N1 N 0.3461(5) 0.7741(4) 0.32201(14)
C1 C 0.4190(6) 0.8572(6) 0.36071(19)
H1 H 0.4704 0.9446 0.3500
C2 C 0.4195(7) 0.8158(6) 0.4161(2)
H2 H 0.4714 0.8748 0.4423
C3 C 0.3439(6) 0.6883(5) 0.43276(18)
H3 H 0.3430 0.6607 0.4702
C4 C 0.2688(5) 0.6009(5) 0.39342(18)
C5 C 0.2715(5) 0.6498(5) 0.33816(17)
H4 H 0.2191 0.5934 0.3114
N2 N 0.1941(5) 0.4643(4) 0.40381(15)
H5 H 0.1864 0.4020 0.3765
C6 C 0.1317(6) 0.4216(5) 0.45468(18)
O1 O 0.1401(5) 0.4995(4) 0.49667(13)
N3 N 0.0611(5) 0.2862(5) 0.45333(17)
H6 H 0.0658 0.2323 0.4236
C8 C 0.0772(5) 0.1437(6) 0.54195(18)
C9 C 0.0711(6) 0.1717(6) 0.59817(18)
H9 H 0.0104 0.2520 0.6103
N4 N 0.1466(5) 0.0912(4) 0.63658(14)
C12 C 0.1723(7) 0.0246(6) 0.52457(19)
H12 H 0.1831 0.0031 0.4868
O2 O 0.6288(3) 0.8573(3) 0.23373(12)
O3 O 0.6136(3) 0.5913(3) 0.24428(13)
O4 O 0.7629(4) 0.6982(4) 0.16911(13)
O5 O 0.8586(3) 0.7181(3) 0.26245(12)
O6 O 0.0871(3) 0.9062(3) 0.22703(17)
O7 O 0.2843(4) 0.6090(3) 0.20189(14)
Cd2 Cd 0.14235(3) 0.15394(3) 0.729927(12)
Cd3 Cd 0.64235(3) 0.34606(3) 0.270073(12)
N5 N 0.3534(5) 0.9088(4) 0.13658(14)
H13 H 0.0641883 0.985725 0.254892
H14 H 0.0593201 0.942754 0.189148
H15 H 0.179885 0.584545 0.21777
H16 H 0.278831 0.605426 0.160511
C7 C 0.5226(6) 0.7684(6) 0.0018(2)
H8 H 0.5676 0.6834 0.0213
C8_2 C 0.4228(5) 0.8563(6) 0.04195(18)
C9_2 C 0.4289(6) 0.8283(6) 0.09817(18)
H9_2 H 0.4896 0.7480 0.1103
C12_2 C 0.3277(7) 0.9754(6) 0.02457(19)
N1_2 N 0.1539(5) 0.2259(4) 0.82201(14)
C1_2 C 0.0810(6) 0.1428(6) 0.86071(19)
H1_2 H 0.0296 0.0554 0.8500
C2_2 C 0.0805(7) 0.1842(6) 0.9161(2)
H2_2 H 0.0286 0.1252 0.9423
C3_2 C 0.1561(6) 0.3117(5) 0.93276(18)
H3_2 H 0.1570 0.3393 0.9702
C4_2 C 0.2312(5) 0.3991(5) 0.89342(18)
C5_2 C 0.2285(5) 0.3502(5) 0.83816(17)
H4_2 H 0.2809 0.4066 0.8114
N2_2 N 0.3059(5) 0.5357(4) 0.90381(15)
H5_2 H 0.3136 0.5980 0.8765
C6_2 C 0.3683(6) 0.5784(5) 0.95468(18)
O1_2 O 0.3599(5) 0.5005(4) 0.99667(13)
N3_2 N 0.4389(5) 0.7138(5) 0.95333(17)
H6_2 H 0.4342 0.7677 0.9236
H7 H 0.6083 0.8315 0.9893
H12_2 H 0.3169 0.9969 0.9868
O6_2 O 0.4129(3) 0.0938(3) 0.72703(17)
O7_2 O 0.2157(4) 0.3910(3) 0.70189(14)
H13_2 H 0.435812 0.0142749 0.754892
H14_2 H 0.44068 0.0572464 0.689148
H15_2 H 0.320115 0.415455 0.71777
H16_2 H 0.221169 0.394574 0.660511
S1_2 S 0.28233(10) 0.21446(10) 0.27291(5)
N1_3 N 0.6539(5) 0.2741(4) 0.17799(14)
C1_3 C 0.5810(6) 0.3572(6) 0.13929(19)
H1_3 H 0.5296 0.4446 0.1500
C2_3 C 0.5805(7) 0.3158(6) 0.0839(2)
H2_3 H 0.5286 0.3748 0.0577
C3_3 C 0.6561(6) 0.1883(5) 0.06724(18)
H3_3 H 0.6570 0.1607 0.0298
C4_3 C 0.7312(5) 0.1009(5) 0.10658(18)
C5_3 C 0.7285(5) 0.1498(5) 0.16184(17)
H4_3 H 0.7809 0.0934 0.1886
O2_2 O 0.3712(3) 0.3573(3) 0.26627(12)
O4_2 O 0.2371(4) 0.1982(4) 0.33089(13)
O5_2 O 0.1414(3) 0.2181(3) 0.23755(12)
O6_3 O 0.9129(3) 0.4062(3) 0.27297(17)
O7_3 O 0.7157(4) 0.1090(3) 0.29811(14)
N5_2 N 0.6466(5) 0.4088(4) 0.36342(14)
H13_3 H 0.935812 0.485725 0.245108
H14_3 H 0.94068 0.442754 0.310852
H15_3 H 0.820115 0.0845451 0.28223
H16_3 H 0.721169 0.105426 0.339489
N2_3 N 0.8059(5) 0.9643(4) 0.09619(15)
H5_3 H 0.8136 0.9020 0.1235
C6_3 C 0.8683(6) 0.9216(5) 0.04532(18)
O1_3 O 0.8599(5) 0.9995(4) 0.00333(13)
N3_3 N 0.9389(5) 0.7862(5) 0.04667(17)
H6_3 H 0.9342 0.7323 0.0764
H12_3 H 0.8169 0.5031 0.0132
N2_4 N 0.6941(5) 0.0357(4) 0.59619(15)
H5_4 H 0.6864 0.0980 0.6235
C6_4 C 0.6317(6) 0.0784(5) 0.54532(18)
O1_4 O 0.6401(5) 0.0005(4) 0.50333(13)
N3_4 N 0.5611(5) 0.2138(5) 0.54667(17)
H6_4 H 0.5658 0.2677 0.5764
C7_2 C 0.4774(6) 0.2684(6) 0.4982(2)
H7_2 H 0.3917 0.3315 0.5107
H8_2 H 0.4324 0.1834 0.4787
C8_3 C 0.5772(5) 0.3563(6) 0.45805(18)
C9_3 C 0.5711(6) 0.3283(6) 0.40183(18)
H9_3 H 0.5104 0.2480 0.3897
C10 C 0.7330(6) 0.5235(6) 0.3809(2)
H10 H 0.7850 0.5820 0.3547
C11 C 0.7483(7) 0.5589(6) 0.4369(2)
H11 H 0.8104 0.6394 0.4480
C12_3 C 0.6723(7) 0.4754(6) 0.47543(19)
H12_4 H 0.6831 0.4969 0.5132
C10_2 C 0.2330(6) 0.9765(6) 0.6191(2)
H10_2 H 0.2850 0.9180 0.6453
C11_2 C 0.2483(7) 0.9411(6) 0.5631(2)
H11_2 H 0.3104 0.8606 0.5520
C7_3 C 0.9774(6) 0.2316(6) 0.5018(2)
H7_3 H 0.8917 0.1685 0.4893
H8_3 H 0.9324 0.3166 0.5213
C10_3 C 0.2670(6) 0.0235(6) 0.1191(2)
H10_3 H 0.2150 0.0820 0.1453
C11_3 C 0.2517(7) 0.0589(6) 0.0631(2)
H11_3 H 0.1896 0.1394 0.0520
O8_2 O 0.1136(3) 0.9087(3) 0.75572(13)
S1_3 S 0.21767(10) 0.78554(10) 0.77291(5)
O2_3 O 0.1288(3) 0.6427(3) 0.76627(12)
O4_3 O 0.2629(4) 0.8018(4) 0.83089(13)
O5_3 O 0.3586(3) 0.7819(3) 0.73755(12)
S1_4 S 0.78233(10) 0.28554(10) 0.72709(5)
O2_4 O 0.8712(3) 0.1427(3) 0.73373(12)
O3_2 O 0.8864(3) 0.4087(3) 0.74428(13)
O4_4 O 0.7371(4) 0.3018(4) 0.66911(13)
O5_4 O 0.6414(3) 0.2819(3) 0.76245(12)
Cd3_2 Cd 0.85765(3) 0.65394(3) 0.770073(12)
C8_4 C 0.9228(5) 0.6437(6) 0.95805(18)
C9_4 C 0.9289(6) 0.6717(6) 0.90183(18)
H9_4 H 0.9896 0.7520 0.8897
N4_2 N 0.8534(5) 0.5912(4) 0.86342(14)
C10_4 C 0.7670(6) 0.4765(6) 0.8809(2)
H10_4 H 0.7150 0.4180 0.8547
C11_4 C 0.7517(7) 0.4411(6) 0.9369(2)
H11_4 H 0.6896 0.3606 0.9480
C12_4 C 0.8277(7) 0.5246(6) 0.97543(19)
N1_4 N 0.8461(5) 0.7259(4) 0.67799(14)
C1_4 C 0.9190(6) 0.6428(6) 0.63929(19)
H1_4 H 0.9704 0.5554 0.6500
C2_4 C 0.9195(7) 0.6842(6) 0.5839(2)
H2_4 H 0.9714 0.6252 0.5577
C3_4 C 0.8439(6) 0.8117(5) 0.56724(18)
H3_4 H 0.8430 0.8393 0.5298
C4_4 C 0.7688(5) 0.8991(5) 0.60658(18)
C5_4 C 0.7715(5) 0.8502(5) 0.66184(17)
H4_4 H 0.7191 0.9066 0.6886
O6_4 O 0.5871(3) 0.5938(3) 0.77297(17)
O7_4 O 0.7843(4) 0.8910(3) 0.79811(14)
H13_4 H 0.564188 0.514275 0.745108
H14_4 H 0.55932 0.557246 0.810852
H15_4 H 0.679885 0.915455 0.78223
H16_4 H 0.778831 0.894574 0.839489
H7_4 H 0.1083 0.6685 0.0107
C7_4 C 0.0226(6) 0.7316(6) 0.9982(2)
H8_4 H 0.0676 0.8166 0.9787
loop_
_geom_bond_atom_site_label_1
_geom_bond_atom_site_label_2
_geom_bond_site_symmetry_1
_geom_bond_site_symmetry_2
Cd1 N1 1_555 1_555
S1 O2 1_555 1_555
N1 C1 1_555 1_555
C1 H1 1_555 1_555
C2 C1 1_555 1_555
H2 C2 1_555 1_555
C3 C2 1_555 1_555
H3 C3 1_555 1_555
C4 C3 1_555 1_555
C5 N1 1_555 1_555
H4 C5 1_555 1_555
N2 C4 1_555 1_555
H5 N2 1_555 1_555
C6 N2 1_555 1_555
O1 C6 1_555 1_555
N3 C6 1_555 1_555
H6 N3 1_555 1_555
C9 C8 1_555 1_555
H9 C9 1_555 1_555
N4 C9 1_555 1_555
C12 C8 1_555 1_555
H12 C12 1_555 1_555
O2 Cd1 1_555 1_555
O3 S1 1_555 1_555
O4 S1 1_555 1_555
O5 S1 1_555 1_555
O6 Cd1 1_555 1_555
O7 Cd1 1_555 1_555
Cd2 N4 1_555 1_555
Cd3 O3 1_555 1_555
N5 Cd1 1_555 1_555
C4 C5 1_555 1_555
O6 H13 1_555 1_555
O6 H14 1_555 1_555
O7 H15 1_555 1_555
O7 H16 1_555 1_555
H8 C7 1_555 1_555
C8_2 C7 1_555 1_555
C9_2 C8_2 1_555 1_555
H9_2 C9_2 1_555 1_555
N5 C9_2 1_555 1_555
C12_2 C8_2 1_555 1_555
Cd2 N1_2 1_555 1_555
N1_2 C1_2 1_555 1_555
C1_2 H1_2 1_555 1_555
C2_2 C1_2 1_555 1_555
H2_2 C2_2 1_555 1_555
C3_2 C2_2 1_555 1_555
H3_2 C3_2 1_555 1_555
C4_2 C3_2 1_555 1_555
C5_2 N1_2 1_555 1_555
H4_2 C5_2 1_555 1_555
N2_2 C4_2 1_555 1_555
H5_2 N2_2 1_555 1_555
C6_2 N2_2 1_555 1_555
O1_2 C6_2 1_555 1_555
N3_2 C6_2 1_555 1_555
H6_2 N3_2 1_555 1_555
O6_2 Cd2 1_555 1_555
O7_2 Cd2 1_555 1_555
C4_2 C5_2 1_555 1_555
O6_2 H13_2 1_555 1_555
O6_2 H14_2 1_555 1_555
O7_2 H15_2 1_555 1_555
O7_2 H16_2 1_555 1_555
Cd3 N1_3 1_555 1_555
S1_2 O2_2 1_555 1_555
N1_3 C1_3 1_555 1_555
C1_3 H1_3 1_555 1_555
C2_3 C1_3 1_555 1_555
H2_3 C2_3 1_555 1_555
C3_3 C2_3 1_555 1_555
H3_3 C3_3 1_555 1_555
C4_3 C3_3 1_555 1_555
C5_3 N1_3 1_555 1_555
H4_3 C5_3 1_555 1_555
O2_2 Cd3 1_555 1_555
O8 S1_2 1_555 1_555
O4_2 S1_2 1_555 1_555
O5_2 S1_2 1_555 1_555
O6_3 Cd3 1_555 1_555
O7_3 Cd3 1_555 1_555
N5_2 Cd3 1_555 1_555
C4_3 C5_3 1_555 1_555
O6_3 H13_3 1_555 1_555
O6_3 H14_3 1_555 1_555
O7_3 H15_3 1_555 1_555
O7_3 H16_3 1_555 1_555
H5_3 N2_3 1_555 1_555
C6_3 N2_3 1_555 1_555
O1_3 C6_3 1_555 1_555
N3_3 C6_3 1_555 1_555
H6_3 N3_3 1_555 1_555
H5_4 N2_4 1_555 1_555
C6_4 N2_4 1_555 1_555
O1_4 C6_4 1_555 1_555
N3_4 C6_4 1_555 1_555
H6_4 N3_4 1_555 1_555
C7_2 N3_4 1_555 1_555
H7_2 C7_2 1_555 1_555
H8_2 C7_2 1_555 1_555
C8_3 C7_2 1_555 1_555
C9_3 C8_3 1_555 1_555
H9_3 C9_3 1_555 1_555
N5_2 C9_3 1_555 1_555
C10 N5_2 1_555 1_555
H10 C10 1_555 1_555
C11 C10 1_555 1_555
H11 C11 1_555 1_555
C12_3 C8_3 1_555 1_555
H12_4 C12_3 1_555 1_555
C11 C12_3 1_555 1_555
H10_2 C10_2 1_555 1_555
C11_2 C10_2 1_555 1_555
H11_2 C11_2 1_555 1_555
H7_3 C7_3 1_555 1_555
H8_3 C7_3 1_555 1_555
H10_3 C10_3 1_555 1_555
C11_3 C10_3 1_555 1_555
H11_3 C11_3 1_555 1_555
S1_3 O2_3 1_555 1_555
O8_2 S1_3 1_555 1_555
O4_3 S1_3 1_555 1_555
O5_3 S1_3 1_555 1_555
S1_4 O2_4 1_555 1_555
O3_2 S1_4 1_555 1_555
O4_4 S1_4 1_555 1_555
O5_4 S1_4 1_555 1_555
Cd3_2 O3_2 1_555 1_555
C9_4 C8_4 1_555 1_555
H9_4 C9_4 1_555 1_555
N4_2 C9_4 1_555 1_555
C10_4 N4_2 1_555 1_555
H10_4 C10_4 1_555 1_555
C11_4 C10_4 1_555 1_555
H11_4 C11_4 1_555 1_555
C12_4 C8_4 1_555 1_555
Cd3_2 N4_2 1_555 1_555
C11_4 C12_4 1_555 1_555
Cd3_2 N1_4 1_555 1_555
N1_4 C1_4 1_555 1_555
C1_4 H1_4 1_555 1_555
C2_4 C1_4 1_555 1_555
H2_4 C2_4 1_555 1_555
C3_4 C2_4 1_555 1_555
H3_4 C3_4 1_555 1_555
C4_4 C3_4 1_555 1_555
C5_4 N1_4 1_555 1_555
H4_4 C5_4 1_555 1_555
O6_4 Cd3_2 1_555 1_555
O7_4 Cd3_2 1_555 1_555
C4_4 C5_4 1_555 1_555
O6_4 H13_4 1_555 1_555
O6_4 H14_4 1_555 1_555
O7_4 H15_4 1_555 1_555
O7_4 H16_4 1_555 1_555
H8_4 C7_4 1_555 1_555

#END
