
###############################################################################
#
# This file contains modified crystal structure data generated from the
# MOF subset of the Cambridge Structural Database (CSD) v543 
# hosted by the Cambridge Crystallographic Data Centre (CCDC).
#
# This work is licensed under the Creative Commons
# Attribution-NonCommercial-ShareAlike 4.0 International License.
# To view a copy of this license, visit
# http://creativecommons.org/licenses/by-nc-sa/4.0/
# or send a letter to
# Creative Commons, PO Box 1866, Mountain View, CA 94042, USA.
#
# CIF created using the CSD Python API on 29 September 2022
# The structure has been converted into the P1 space group
# The structure has a 3D framework
# The original CSD entry XAFFER is in the orthorhombic crystal system
# The framework has been calculated to contain at least 10.0% void space
# The void calculation uses a probe of radius 1.32A, grid spacing 0.4
# H atom positions have been added when not included in the experimental data
# Generated hydrogen atom positions removed from atoms on special positions
#
###############################################################################

data_XAFFER
_chemical_formula_moiety         '(C168 H128 N12 O44 Zn12)n'
_symmetry_cell_setting           triclinic
_symmetry_space_group_name_H-M   'P 1'
_symmetry_Int_Tables_number      1
_space_group_name_Hall           'P 1'
loop_
_symmetry_equiv_pos_site_id
_symmetry_equiv_pos_as_xyz
1 x,y,z
_cell_length_a                   17.953(4)
_cell_length_b                   35.340(7)
_cell_length_c                   23.023(5)
_cell_angle_alpha                90
_cell_angle_beta                 90
_cell_angle_gamma                90
_cell_volume                     14607.2
loop_
_atom_site_label
_atom_site_type_symbol
_atom_site_fract_x
_atom_site_fract_y
_atom_site_fract_z
C1 C 0.67105(17) 0.28267(8) 0.07848(10)
C2 C 0.62687(17) 0.30239(7) 0.12303(10)
C3 C 0.55977(19) 0.28819(6) 0.14279(11)
H1 H 0.5428 0.2654 0.1277
C4 C 0.54249(18) 0.34020(7) 0.20807(10)
C5 C 0.6084(2) 0.35435(7) 0.18934(12)
H2 H 0.6260 0.3768 0.2055
C6 C 0.65061(17) 0.33642(7) 0.14667(11)
H3 H 0.6949 0.3473 0.1340
C7 C 0.51740(17) 0.30619(7) 0.18348(12)
H4 H 0.4720 0.2959 0.1949
C8 C 0.5000 0.40011(9) 0.2500
C9 C 0.48617(18) 0.41987(7) 0.20005(11)
H5 H 0.4765 0.4069 0.1657
C10 C 0.48648(18) 0.45852(7) 0.20014(11)
H6 H 0.4773 0.4714 0.1657
C11 C 0.5000 0.47882(8) 0.2500
N1 N 0.5000 0.35946(7) 0.2500
O1 O 0.64757(10) 0.25103(5) 0.06143(6)
O2 O 0.72981(12) 0.29888(5) 0.06115(8)
O3 O 0.62837(18) 0.17371(7) 0.0000
Zn1 Zn 0.69637(2) 0.218282(8) 0.0000
C12 C 0.32895(17) 0.71733(8) 0.07848(10)
C13 C 0.32895(17) 0.28267(8) 0.42152(10)
C14 C 0.67105(17) 0.71733(8) 0.42152(10)
C15 C 0.37313(17) 0.69761(7) 0.12303(10)
C16 C 0.37313(17) 0.30239(7) 0.37697(10)
C17 C 0.62687(17) 0.69761(7) 0.37697(10)
C18 C 0.44023(19) 0.71181(6) 0.14279(11)
C19 C 0.44023(19) 0.28819(6) 0.35721(11)
C20 C 0.55977(19) 0.71181(6) 0.35721(11)
H7 H 0.4572 0.7346 0.1277
H8 H 0.4572 0.2654 0.3723
H9 H 0.5428 0.7346 0.3723
C21 C 0.45751(18) 0.65980(7) 0.20807(10)
C22 C 0.45751(18) 0.34020(7) 0.29193(10)
C23 C 0.54249(18) 0.65980(7) 0.29193(10)
C24 C 0.3916(2) 0.64565(7) 0.18934(12)
C25 C 0.3916(2) 0.35435(7) 0.31066(12)
C26 C 0.6084(2) 0.64565(7) 0.31066(12)
H10 H 0.3740 0.6232 0.2055
H11 H 0.3740 0.3768 0.2945
H12 H 0.6260 0.6232 0.2945
C27 C 0.34939(17) 0.66358(7) 0.14667(11)
C28 C 0.34939(17) 0.33642(7) 0.35333(11)
C29 C 0.65061(17) 0.66358(7) 0.35333(11)
H13 H 0.3051 0.6527 0.1340
H14 H 0.3051 0.3473 0.3660
H15 H 0.6949 0.6527 0.3660
C30 C 0.48260(17) 0.69381(7) 0.18348(12)
C31 C 0.48260(17) 0.30619(7) 0.31652(12)
C32 C 0.51740(17) 0.69381(7) 0.31652(12)
H16 H 0.5280 0.7041 0.1949
H17 H 0.5280 0.2959 0.3051
H18 H 0.4720 0.7041 0.3051
C33 C 0.5000 0.59989(9) 0.2500
C34 C 0.51383(18) 0.58013(7) 0.20005(11)
C35 C 0.51383(18) 0.41987(7) 0.29995(11)
C36 C 0.48617(18) 0.58013(7) 0.29995(11)
H19 H 0.5235 0.5931 0.1657
H20 H 0.5235 0.4069 0.3343
H21 H 0.4765 0.5931 0.3343
C37 C 0.51352(18) 0.54148(7) 0.20014(11)
C38 C 0.51352(18) 0.45852(7) 0.29986(11)
C39 C 0.48648(18) 0.54148(7) 0.29986(11)
H22 H 0.5227 0.5286 0.1657
H23 H 0.5227 0.4714 0.3343
H24 H 0.4773 0.5286 0.3343
C40 C 0.5000 0.52118(8) 0.2500
N2 N 0.5000 0.64054(7) 0.2500
O4 O 0.35243(10) 0.74897(5) 0.06143(6)
O5 O 0.35243(10) 0.25103(5) 0.43857(6)
O6 O 0.64757(10) 0.74897(5) 0.43857(6)
O9 O 0.27019(12) 0.70112(5) 0.06115(8)
O10 O 0.27019(12) 0.29888(5) 0.43885(8)
O11 O 0.72981(12) 0.70112(5) 0.43885(8)
O12 O 0.22981(12) 0.79888(5) 0.06115(8)
O13 O 0.77019(12) 0.20112(5) 0.06115(8)
O16 O 0.37163(18) 0.82629(7) 0.0000
Zn2 Zn 0.30363(2) 0.781718(8) 0.0000
Zn3 Zn 0.19637(2) 0.718282(8) 0.0000
Zn4 Zn 0.80363(2) 0.281718(8) 0.0000
Zn5 Zn 0.80363(2) 0.718282(8) 0.5000
Zn6 Zn 0.19637(2) 0.281718(8) 0.5000
Zn7 Zn 0.69637(2) 0.781718(8) 0.5000
Zn8 Zn 0.30363(2) 0.218282(8) 0.5000
O3_2 O 0.62837(18) 0.17371(7) 1.0000
Zn1_2 Zn 0.69637(2) 0.218282(8) 1.0000
O7 O 0.35243(10) 0.74897(5) 0.93857(6)
O8 O 0.64757(10) 0.25103(5) 0.93857(6)
O14 O 0.77019(12) 0.20112(5) 0.93885(8)
O15 O 0.22981(12) 0.79888(5) 0.93885(8)
O16_2 O 0.37163(18) 0.82629(7) 1.0000
Zn2_2 Zn 0.30363(2) 0.781718(8) 1.0000
Zn3_2 Zn 0.19637(2) 0.718282(8) 1.0000
Zn4_2 Zn 0.80363(2) 0.281718(8) 1.0000
H25 H 0.422786 0.817999 0.989655
H26 H 0.353912 0.845116 0.971115
H27 H 0.577214 0.182001 0.989655
H28 H 0.646088 0.154884 0.971115
O3_3 O 0.37163(18) 0.17371(7) 0.5000
O7_2 O 0.64757(10) 0.74897(5) 0.56143(6)
O8_2 O 0.35243(10) 0.25103(5) 0.56143(6)
O12_2 O 0.77019(12) 0.79888(5) 0.43885(8)
O13_2 O 0.22981(12) 0.20112(5) 0.43885(8)
O14_2 O 0.22981(12) 0.20112(5) 0.56115(8)
O15_2 O 0.77019(12) 0.79888(5) 0.56115(8)
O16_3 O 0.62837(18) 0.82629(7) 0.5000
C14_2 C 0.17105(17) 0.21733(8) 0.42152(10)
C17_2 C 0.12687(17) 0.19761(7) 0.37697(10)
C20_2 C 0.05977(19) 0.21181(6) 0.35721(11)
H9_2 H 0.0428 0.2346 0.3723
C23_2 C 0.04249(18) 0.15980(7) 0.29193(10)
C26_2 C 0.1084(2) 0.14565(7) 0.31066(12)
H12_2 H 0.1260 0.1232 0.2945
C29_2 C 0.15061(17) 0.16358(7) 0.35333(11)
H15_2 H 0.1949 0.1527 0.3660
C32_2 C 0.01740(17) 0.19381(7) 0.31652(12)
H16_2 H 0.0280 0.2041 0.1949
C33_2 C -0.0000 0.09989(9) 0.2500
C34_2 C 0.01383(18) 0.08013(7) 0.20005(11)
H19_2 H 0.0235 0.0931 0.1657
C37_2 C 0.01352(18) 0.04148(7) 0.20014(11)
H22_2 H 0.0227 0.0286 0.1657
C40_2 C -0.0000 0.02118(8) 0.2500
N2_2 N 0.0000 0.14054(7) 0.2500
O6_2 O 0.14757(10) 0.24897(5) 0.43857(6)
C1_2 C 0.17105(17) 0.78267(8) 0.07848(10)
C2_2 C 0.12687(17) 0.80239(7) 0.12303(10)
C3_2 C 0.05977(19) 0.78819(6) 0.14279(11)
H1_2 H 0.0428 0.7654 0.1277
C4_2 C 0.04249(18) 0.84020(7) 0.20807(10)
C5_2 C 0.1084(2) 0.85435(7) 0.18934(12)
H2_2 H 0.1260 0.8768 0.2055
C6_2 C 0.15061(17) 0.83642(7) 0.14667(11)
H3_2 H 0.1949 0.8473 0.1340
C7_2 C 0.01740(17) 0.80619(7) 0.18348(12)
C8_2 C -0.0000 0.90011(9) 0.2500
C11_2 C -0.0000 0.97882(8) 0.2500
N1_2 N -0.0000 0.85946(7) 0.2500
O1_2 O 0.14757(10) 0.75103(5) 0.06143(6)
O3_4 O 0.12837(18) 0.67371(7) 0.0000
H17_2 H 0.0280 0.7959 0.3051
C35_2 C 0.01383(18) 0.91987(7) 0.29995(11)
H20_2 H 0.0235 0.9069 0.3343
C38_2 C 0.01352(18) 0.95852(7) 0.29986(11)
H23_2 H 0.0227 0.9714 0.3343
O3_5 O 0.12837(18) 0.67371(7) 1.0000
O8_3 O 0.14757(10) 0.75103(5) 0.93857(6)
O14_3 O 0.27019(12) 0.70112(5) 0.93885(8)
H27_2 H 0.077214 0.682001 0.989655
H28_2 H 0.146088 0.654884 0.971115
C12_2 C 0.82895(17) 0.21733(8) 0.07848(10)
C15_2 C 0.87313(17) 0.19761(7) 0.12303(10)
C18_2 C 0.94023(19) 0.21181(6) 0.14279(11)
H7_2 H 0.9572 0.2346 0.1277
C21_2 C 0.95751(18) 0.15980(7) 0.20807(10)
C24_2 C 0.8916(2) 0.14565(7) 0.18934(12)
H10_2 H 0.8740 0.1232 0.2055
C27_2 C 0.84939(17) 0.16358(7) 0.14667(11)
H13_2 H 0.8051 0.1527 0.1340
C30_2 C 0.98260(17) 0.19381(7) 0.18348(12)
H18_2 H 0.9720 0.2041 0.3051
C33_3 C 1.0000 0.09989(9) 0.2500
C36_2 C 0.98617(18) 0.08013(7) 0.29995(11)
H21_2 H 0.9765 0.0931 0.3343
C39_2 C 0.98648(18) 0.04148(7) 0.29986(11)
H24_2 H 0.9773 0.0286 0.3343
C40_3 C 1.0000 0.02118(8) 0.2500
N2_3 N 1.0000 0.14054(7) 0.2500
O4_2 O 0.85243(10) 0.24897(5) 0.06143(6)
O16_4 O 0.87163(18) 0.32629(7) 0.0000
O7_3 O 0.85243(10) 0.24897(5) 0.93857(6)
O15_3 O 0.72981(12) 0.29888(5) 0.93885(8)
O16_5 O 0.87163(18) 0.32629(7) 1.0000
H25_2 H 0.922786 0.317999 0.989655
H26_2 H 0.853912 0.345116 0.971115
H4_2 H 0.9720 0.7959 0.1949
C8_3 C 1.0000 0.90011(9) 0.2500
C9_2 C 0.98617(18) 0.91987(7) 0.20005(11)
H5_2 H 0.9765 0.9069 0.1657
C10_2 C 0.98648(18) 0.95852(7) 0.20014(11)
H6_2 H 0.9773 0.9714 0.1657
C11_3 C 1.0000 0.97882(8) 0.2500
N1_3 N 1.0000 0.85946(7) 0.2500
C13_2 C 0.82895(17) 0.78267(8) 0.42152(10)
C16_2 C 0.87313(17) 0.80239(7) 0.37697(10)
C19_2 C 0.94023(19) 0.78819(6) 0.35721(11)
H8_2 H 0.9572 0.7654 0.3723
C22_2 C 0.95751(18) 0.84020(7) 0.29193(10)
C25_2 C 0.8916(2) 0.85435(7) 0.31066(12)
H11_2 H 0.8740 0.8768 0.2945
C28_2 C 0.84939(17) 0.83642(7) 0.35333(11)
H14_2 H 0.8051 0.8473 0.3660
C31_2 C 0.98260(17) 0.80619(7) 0.31652(12)
O5_2 O 0.85243(10) 0.75103(5) 0.43857(6)
O7_4 O 0.14757(10) 0.24897(5) 0.56143(6)
O15_4 O 0.27019(12) 0.29888(5) 0.56115(8)
O16_6 O 0.12837(18) 0.32629(7) 0.5000
O3_6 O 0.87163(18) 0.67371(7) 0.5000
O8_4 O 0.85243(10) 0.75103(5) 0.56143(6)
O14_4 O 0.72981(12) 0.70112(5) 0.56115(8)
H25_3 H 0.577214 0.182001 0.010345
H26_3 H 0.646088 0.154884 0.028885
H27_3 H 0.422786 0.817999 0.010345
H28_3 H 0.353912 0.845116 0.028885
C1_3 C 0.32895(17) 0.71733(8) 0.92152(10)
C2_3 C 0.37313(17) 0.69761(7) 0.87697(10)
C3_3 C 0.44023(19) 0.71181(6) 0.85721(11)
H1_3 H 0.4572 0.7346 0.8723
C4_3 C 0.45751(18) 0.65980(7) 0.79193(10)
C5_3 C 0.3916(2) 0.64565(7) 0.81066(12)
H2_3 H 0.3740 0.6232 0.7945
C6_3 C 0.34939(17) 0.66358(7) 0.85333(11)
H3_3 H 0.3051 0.6527 0.8660
C7_3 C 0.48260(17) 0.69381(7) 0.81652(12)
H4_3 H 0.5280 0.7041 0.8051
C8_4 C 0.5000 0.59989(9) 0.7500
C9_3 C 0.51383(18) 0.58013(7) 0.79995(11)
H5_3 H 0.5235 0.5931 0.8343
C10_3 C 0.51352(18) 0.54148(7) 0.79986(11)
H6_3 H 0.5227 0.5286 0.8343
C11_4 C 0.5000 0.52118(8) 0.7500
N1_4 N 0.5000 0.64054(7) 0.7500
C12_3 C 0.67105(17) 0.28267(8) 0.92152(10)
C13_3 C 0.67105(17) 0.71733(8) 0.57848(10)
C14_3 C 0.32895(17) 0.28267(8) 0.57848(10)
C15_3 C 0.62687(17) 0.30239(7) 0.87697(10)
C16_3 C 0.62687(17) 0.69761(7) 0.62303(10)
C17_3 C 0.37313(17) 0.30239(7) 0.62303(10)
C18_3 C 0.55977(19) 0.28819(6) 0.85721(11)
C19_3 C 0.55977(19) 0.71181(6) 0.64279(11)
C20_3 C 0.44023(19) 0.28819(6) 0.64279(11)
H7_3 H 0.5428 0.2654 0.8723
H8_3 H 0.5428 0.7346 0.6277
H9_3 H 0.4572 0.2654 0.6277
C21_3 C 0.54249(18) 0.34020(7) 0.79193(10)
C22_3 C 0.54249(18) 0.65980(7) 0.70807(10)
C23_3 C 0.45751(18) 0.34020(7) 0.70807(10)
C24_3 C 0.6084(2) 0.35435(7) 0.81066(12)
C25_3 C 0.6084(2) 0.64565(7) 0.68934(12)
C26_3 C 0.3916(2) 0.35435(7) 0.68934(12)
H10_3 H 0.6260 0.3768 0.7945
H11_3 H 0.6260 0.6232 0.7055
H12_3 H 0.3740 0.3768 0.7055
C27_3 C 0.65061(17) 0.33642(7) 0.85333(11)
C28_3 C 0.65061(17) 0.66358(7) 0.64667(11)
C29_3 C 0.34939(17) 0.33642(7) 0.64667(11)
H13_3 H 0.6949 0.3473 0.8660
H14_3 H 0.6949 0.6527 0.6340
H15_3 H 0.3051 0.3473 0.6340
C30_3 C 0.51740(17) 0.30619(7) 0.81652(12)
C31_3 C 0.51740(17) 0.69381(7) 0.68348(12)
C32_3 C 0.48260(17) 0.30619(7) 0.68348(12)
H16_3 H 0.4720 0.2959 0.8051
H17_3 H 0.4720 0.7041 0.6949
H18_3 H 0.5280 0.2959 0.6949
C33_4 C 0.5000 0.40011(9) 0.7500
C34_3 C 0.48617(18) 0.41987(7) 0.79995(11)
C35_3 C 0.48617(18) 0.58013(7) 0.70005(11)
C36_3 C 0.51383(18) 0.41987(7) 0.70005(11)
H19_3 H 0.4765 0.4069 0.8343
H20_3 H 0.4765 0.5931 0.6657
H21_3 H 0.5235 0.4069 0.6657
C37_3 C 0.48648(18) 0.45852(7) 0.79986(11)
C38_3 C 0.48648(18) 0.54148(7) 0.70014(11)
C39_3 C 0.51352(18) 0.45852(7) 0.70014(11)
H22_3 H 0.4773 0.4714 0.8343
H23_3 H 0.4773 0.5286 0.6657
H24_3 H 0.5227 0.4714 0.6657
C40_4 C 0.5000 0.47882(8) 0.7500
N2_4 N 0.5000 0.35946(7) 0.7500
H4_4 H 0.0280 0.2041 0.8051
C8_5 C 0.0000 0.09989(9) 0.7500
C9_4 C 0.01383(18) 0.08013(7) 0.79995(11)
H5_4 H 0.0235 0.0931 0.8343
C10_4 C 0.01352(18) 0.04148(7) 0.79986(11)
H6_4 H 0.0227 0.0286 0.8343
C11_5 C 0.0000 0.02118(8) 0.7500
N1_5 N 0.0000 0.14054(7) 0.7500
C13_4 C 0.17105(17) 0.21733(8) 0.57848(10)
C16_4 C 0.12687(17) 0.19761(7) 0.62303(10)
C19_4 C 0.05977(19) 0.21181(6) 0.64279(11)
H8_4 H 0.0428 0.2346 0.6277
C22_4 C 0.04249(18) 0.15980(7) 0.70807(10)
C25_4 C 0.1084(2) 0.14565(7) 0.68934(12)
H11_4 H 0.1260 0.1232 0.7055
C28_4 C 0.15061(17) 0.16358(7) 0.64667(11)
H14_4 H 0.1949 0.1527 0.6340
C31_4 C 0.01740(17) 0.19381(7) 0.68348(12)
H25_4 H 0.077214 0.682001 0.010345
H26_4 H 0.146088 0.654884 0.028885
C12_4 C 0.17105(17) 0.78267(8) 0.92152(10)
C15_4 C 0.12687(17) 0.80239(7) 0.87697(10)
C18_4 C 0.05977(19) 0.78819(6) 0.85721(11)
H7_4 H 0.0428 0.7654 0.8723
C21_4 C 0.04249(18) 0.84020(7) 0.79193(10)
C24_4 C 0.1084(2) 0.85435(7) 0.81066(12)
H10_4 H 0.1260 0.8768 0.7945
C27_4 C 0.15061(17) 0.83642(7) 0.85333(11)
H13_4 H 0.1949 0.8473 0.8660
C30_4 C 0.01740(17) 0.80619(7) 0.81652(12)
H18_4 H 0.0280 0.7959 0.6949
C33_5 C -0.0000 0.90011(9) 0.7500
C36_4 C 0.01383(18) 0.91987(7) 0.70005(11)
H21_4 H 0.0235 0.9069 0.6657
C39_4 C 0.01352(18) 0.95852(7) 0.70014(11)
H24_4 H 0.0227 0.9714 0.6657
C40_5 C -0.0000 0.97882(8) 0.7500
N2_5 N -0.0000 0.85946(7) 0.7500
H27_4 H 0.922786 0.317999 0.010345
H28_4 H 0.853912 0.345116 0.028885
C1_4 C 0.82895(17) 0.21733(8) 0.92152(10)
C2_4 C 0.87313(17) 0.19761(7) 0.87697(10)
C3_4 C 0.94023(19) 0.21181(6) 0.85721(11)
H1_4 H 0.9572 0.2346 0.8723
C4_4 C 0.95751(18) 0.15980(7) 0.79193(10)
C5_4 C 0.8916(2) 0.14565(7) 0.81066(12)
H2_4 H 0.8740 0.1232 0.7945
C6_4 C 0.84939(17) 0.16358(7) 0.85333(11)
H3_4 H 0.8051 0.1527 0.8660
C7_4 C 0.98260(17) 0.19381(7) 0.81652(12)
C8_6 C 1.0000 0.09989(9) 0.7500
C11_6 C 1.0000 0.02118(8) 0.7500
N1_6 N 1.0000 0.14054(7) 0.7500
H17_4 H 0.9720 0.2041 0.6949
C35_4 C 0.98617(18) 0.08013(7) 0.70005(11)
H20_4 H 0.9765 0.0931 0.6657
C38_4 C 0.98648(18) 0.04148(7) 0.70014(11)
H23_4 H 0.9773 0.0286 0.6657
C14_4 C 0.82895(17) 0.78267(8) 0.57848(10)
C17_4 C 0.87313(17) 0.80239(7) 0.62303(10)
C20_4 C 0.94023(19) 0.78819(6) 0.64279(11)
H9_4 H 0.9572 0.7654 0.6277
C23_4 C 0.95751(18) 0.84020(7) 0.70807(10)
C26_4 C 0.8916(2) 0.85435(7) 0.68934(12)
H12_4 H 0.8740 0.8768 0.7055
C29_4 C 0.84939(17) 0.83642(7) 0.64667(11)
H15_4 H 0.8051 0.8473 0.6340
C32_4 C 0.98260(17) 0.80619(7) 0.68348(12)
H16_4 H 0.9720 0.7959 0.8051
C33_6 C 1.0000 0.90011(9) 0.7500
C34_4 C 0.98617(18) 0.91987(7) 0.79995(11)
H19_4 H 0.9765 0.9069 0.8343
C37_4 C 0.98648(18) 0.95852(7) 0.79986(11)
H22_4 H 0.9773 0.9714 0.8343
C40_6 C 1.0000 0.97882(8) 0.7500
N2_6 N 1.0000 0.85946(7) 0.7500
loop_
_geom_bond_atom_site_label_1
_geom_bond_atom_site_label_2
_geom_bond_site_symmetry_1
_geom_bond_site_symmetry_2
C1 C2 1_555 1_555
C2 C3 1_555 1_555
C3 H1 1_555 1_555
C4 C5 1_555 1_555
C5 H2 1_555 1_555
C6 C2 1_555 1_555
H3 C6 1_555 1_555
C7 C3 1_555 1_555
H4 C7 1_555 1_555
C8 C9 1_555 1_555
C9 H5 1_555 1_555
C10 C9 1_555 1_555
H6 C10 1_555 1_555
C11 C10 1_555 1_555
N1 C4 1_555 1_555
O1 C1 1_555 1_555
O2 C1 1_555 1_555
O3 Zn1 1_555 1_555
Zn1 O1 1_555 1_555
C12 C15 1_555 1_555
C13 C16 1_555 1_555
C14 C17 1_555 1_555
C15 C18 1_555 1_555
C16 C19 1_555 1_555
C17 C20 1_555 1_555
C18 H7 1_555 1_555
C19 H8 1_555 1_555
C20 H9 1_555 1_555
C21 C24 1_555 1_555
C22 N1 1_555 1_555
C23 C26 1_555 1_555
C24 H10 1_555 1_555
C25 C22 1_555 1_555
C26 H12 1_555 1_555
H11 C25 1_555 1_555
C27 C15 1_555 1_555
C28 C16 1_555 1_555
C29 C17 1_555 1_555
H13 C27 1_555 1_555
H14 C28 1_555 1_555
H15 C29 1_555 1_555
C30 C18 1_555 1_555
C31 C19 1_555 1_555
C32 C20 1_555 1_555
H16 C30 1_555 1_555
H17 C31 1_555 1_555
H18 C32 1_555 1_555
C33 C34 1_555 1_555
C34 H19 1_555 1_555
C35 C8 1_555 1_555
C36 C33 1_555 1_555
H20 C35 1_555 1_555
H21 C36 1_555 1_555
C37 C34 1_555 1_555
C38 C11 1_555 1_555
C39 C36 1_555 1_555
H22 C37 1_555 1_555
H23 C38 1_555 1_555
H24 C39 1_555 1_555
C40 C11 1_555 1_555
N2 C21 1_555 1_555
O4 C12 1_555 1_555
O5 C13 1_555 1_555
O6 C14 1_555 1_555
O9 C12 1_555 1_555
O10 C13 1_555 1_555
O11 C14 1_555 1_555
O12 Zn2 1_555 1_555
O13 Zn1 1_555 1_555
O16 Zn2 1_555 1_555
Zn2 O4 1_555 1_555
Zn3 O9 1_555 1_555
Zn4 O2 1_555 1_555
Zn5 O11 1_555 1_555
Zn6 O10 1_555 1_555
Zn7 O6 1_555 1_555
Zn8 O5 1_555 1_555
C4 C7 1_555 1_555
C5 C6 1_555 1_555
C8 N1 1_555 1_555
C21 C30 1_555 1_555
C22 C31 1_555 1_555
C23 C32 1_555 1_555
C23 N2 1_555 1_555
C24 C27 1_555 1_555
C25 C28 1_555 1_555
C26 C29 1_555 1_555
C33 N2 1_555 1_555
C35 C38 1_555 1_555
C37 C40 1_555 1_555
C39 C40 1_555 1_555
O3_2 Zn1_2 1_555 1_555
O7 Zn2_2 1_555 1_555
O8 Zn1_2 1_555 1_555
O14 Zn1_2 1_555 1_555
O15 Zn2_2 1_555 1_555
O16_2 Zn2_2 1_555 1_555
O16_2 H25 1_555 1_555
O16_2 H26 1_555 1_555
O3_2 H27 1_555 1_555
O3_2 H28 1_555 1_555
O3_3 Zn8 1_555 1_555
O7_2 Zn7 1_555 1_555
O8_2 Zn8 1_555 1_555
O12_2 Zn7 1_555 1_555
O13_2 Zn8 1_555 1_555
O14_2 Zn8 1_555 1_555
O15_2 Zn7 1_555 1_555
O16_3 Zn7 1_555 1_555
C14_2 C17_2 1_555 1_555
C17_2 C20_2 1_555 1_555
C20_2 H9_2 1_555 1_555
C23_2 C26_2 1_555 1_555
C26_2 H12_2 1_555 1_555
C29_2 C17_2 1_555 1_555
H15_2 C29_2 1_555 1_555
C32_2 C20_2 1_555 1_555
C33_2 C34_2 1_555 1_555
C34_2 H19_2 1_555 1_555
C37_2 C34_2 1_555 1_555
H22_2 C37_2 1_555 1_555
O6_2 C14_2 1_555 1_555
O13_2 C14_2 1_555 1_555
Zn6 O6_2 1_555 1_555
C23_2 C32_2 1_555 1_555
C23_2 N2_2 1_555 1_555
C26_2 C29_2 1_555 1_555
C33_2 N2_2 1_555 1_555
C37_2 C40_2 1_555 1_555
C1_2 C2_2 1_555 1_555
C2_2 C3_2 1_555 1_555
C3_2 H1_2 1_555 1_555
C4_2 C5_2 1_555 1_555
C5_2 H2_2 1_555 1_555
C6_2 C2_2 1_555 1_555
H3_2 C6_2 1_555 1_555
C7_2 C3_2 1_555 1_555
N1_2 C4_2 1_555 1_555
O1_2 C1_2 1_555 1_555
O12 C1_2 1_555 1_555
O3_4 Zn3 1_555 1_555
Zn3 O1_2 1_555 1_555
C35_2 C8_2 1_555 1_555
H20_2 C35_2 1_555 1_555
C38_2 C11_2 1_555 1_555
H23_2 C38_2 1_555 1_555
C4_2 C7_2 1_555 1_555
C5_2 C6_2 1_555 1_555
C8_2 N1_2 1_555 1_555
C35_2 C38_2 1_555 1_555
O3_5 Zn3_2 1_555 1_555
O8_3 Zn3_2 1_555 1_555
O14_3 Zn3_2 1_555 1_555
O3_5 H27_2 1_555 1_555
O3_5 H28_2 1_555 1_555
C12_2 C15_2 1_555 1_555
C15_2 C18_2 1_555 1_555
C18_2 H7_2 1_555 1_555
C21_2 C24_2 1_555 1_555
C24_2 H10_2 1_555 1_555
C27_2 C15_2 1_555 1_555
H13_2 C27_2 1_555 1_555
C30_2 C18_2 1_555 1_555
C36_2 C33_3 1_555 1_555
H21_2 C36_2 1_555 1_555
C39_2 C36_2 1_555 1_555
H24_2 C39_2 1_555 1_555
N2_3 C21_2 1_555 1_555
O4_2 C12_2 1_555 1_555
O13 C12_2 1_555 1_555
O16_4 Zn4 1_555 1_555
Zn4 O4_2 1_555 1_555
C21_2 C30_2 1_555 1_555
C24_2 C27_2 1_555 1_555
C33_3 N2_3 1_555 1_555
C39_2 C40_3 1_555 1_555
O7_3 Zn4_2 1_555 1_555
O15_3 Zn4_2 1_555 1_555
O16_5 Zn4_2 1_555 1_555
O16_5 H25_2 1_555 1_555
O16_5 H26_2 1_555 1_555
C8_3 C9_2 1_555 1_555
C9_2 H5_2 1_555 1_555
C10_2 C9_2 1_555 1_555
H6_2 C10_2 1_555 1_555
C11_3 C10_2 1_555 1_555
C13_2 C16_2 1_555 1_555
C16_2 C19_2 1_555 1_555
C19_2 H8_2 1_555 1_555
C22_2 N1_3 1_555 1_555
C25_2 C22_2 1_555 1_555
H11_2 C25_2 1_555 1_555
C28_2 C16_2 1_555 1_555
H14_2 C28_2 1_555 1_555
C31_2 C19_2 1_555 1_555
O5_2 C13_2 1_555 1_555
O12_2 C13_2 1_555 1_555
Zn5 O5_2 1_555 1_555
C8_3 N1_3 1_555 1_555
C22_2 C31_2 1_555 1_555
C25_2 C28_2 1_555 1_555
O7_4 Zn6 1_555 1_555
O15_4 Zn6 1_555 1_555
O16_6 Zn6 1_555 1_555
O3_6 Zn5 1_555 1_555
O8_4 Zn5 1_555 1_555
O14_4 Zn5 1_555 1_555
O3 H25_3 1_555 1_555
O3 H26_3 1_555 1_555
O16 H27_3 1_555 1_555
O16 H28_3 1_555 1_555
C1_3 C2_3 1_555 1_555
C2_3 C3_3 1_555 1_555
C3_3 H1_3 1_555 1_555
C4_3 C5_3 1_555 1_555
C5_3 H2_3 1_555 1_555
C6_3 C2_3 1_555 1_555
H3_3 C6_3 1_555 1_555
C7_3 C3_3 1_555 1_555
H4_3 C7_3 1_555 1_555
C8_4 C9_3 1_555 1_555
C9_3 H5_3 1_555 1_555
C10_3 C9_3 1_555 1_555
H6_3 C10_3 1_555 1_555
C11_4 C10_3 1_555 1_555
N1_4 C4_3 1_555 1_555
O7 C1_3 1_555 1_555
O14_3 C1_3 1_555 1_555
C12_3 C15_3 1_555 1_555
C13_3 C16_3 1_555 1_555
C14_3 C17_3 1_555 1_555
C15_3 C18_3 1_555 1_555
C16_3 C19_3 1_555 1_555
C17_3 C20_3 1_555 1_555
C18_3 H7_3 1_555 1_555
C19_3 H8_3 1_555 1_555
C20_3 H9_3 1_555 1_555
C21_3 C24_3 1_555 1_555
C22_3 N1_4 1_555 1_555
C23_3 C26_3 1_555 1_555
C24_3 H10_3 1_555 1_555
C25_3 C22_3 1_555 1_555
C26_3 H12_3 1_555 1_555
H11_3 C25_3 1_555 1_555
C27_3 C15_3 1_555 1_555
C28_3 C16_3 1_555 1_555
C29_3 C17_3 1_555 1_555
H13_3 C27_3 1_555 1_555
H14_3 C28_3 1_555 1_555
H15_3 C29_3 1_555 1_555
C30_3 C18_3 1_555 1_555
C31_3 C19_3 1_555 1_555
C32_3 C20_3 1_555 1_555
H16_3 C30_3 1_555 1_555
H17_3 C31_3 1_555 1_555
H18_3 C32_3 1_555 1_555
C33_4 C34_3 1_555 1_555
C34_3 H19_3 1_555 1_555
C35_3 C8_4 1_555 1_555
C36_3 C33_4 1_555 1_555
H20_3 C35_3 1_555 1_555
H21_3 C36_3 1_555 1_555
C37_3 C34_3 1_555 1_555
C38_3 C11_4 1_555 1_555
C39_3 C36_3 1_555 1_555
H22_3 C37_3 1_555 1_555
H23_3 C38_3 1_555 1_555
H24_3 C39_3 1_555 1_555
C40_4 C11_4 1_555 1_555
N2_4 C21_3 1_555 1_555
O8 C12_3 1_555 1_555
O7_2 C13_3 1_555 1_555
O8_2 C14_3 1_555 1_555
O15_3 C12_3 1_555 1_555
O14_4 C13_3 1_555 1_555
O15_4 C14_3 1_555 1_555
C4_3 C7_3 1_555 1_555
C5_3 C6_3 1_555 1_555
C8_4 N1_4 1_555 1_555
C21_3 C30_3 1_555 1_555
C22_3 C31_3 1_555 1_555
C23_3 C32_3 1_555 1_555
C23_3 N2_4 1_555 1_555
C24_3 C27_3 1_555 1_555
C25_3 C28_3 1_555 1_555
C26_3 C29_3 1_555 1_555
C33_4 N2_4 1_555 1_555
C35_3 C38_3 1_555 1_555
C37_3 C40_4 1_555 1_555
C39_3 C40_4 1_555 1_555
C8_5 C9_4 1_555 1_555
C9_4 H5_4 1_555 1_555
C10_4 C9_4 1_555 1_555
H6_4 C10_4 1_555 1_555
C11_5 C10_4 1_555 1_555
C13_4 C16_4 1_555 1_555
C16_4 C19_4 1_555 1_555
C19_4 H8_4 1_555 1_555
C22_4 N1_5 1_555 1_555
C25_4 C22_4 1_555 1_555
H11_4 C25_4 1_555 1_555
C28_4 C16_4 1_555 1_555
H14_4 C28_4 1_555 1_555
C31_4 C19_4 1_555 1_555
O7_4 C13_4 1_555 1_555
O14_2 C13_4 1_555 1_555
C8_5 N1_5 1_555 1_555
C22_4 C31_4 1_555 1_555
C25_4 C28_4 1_555 1_555
O3_4 H25_4 1_555 1_555
O3_4 H26_4 1_555 1_555
C12_4 C15_4 1_555 1_555
C15_4 C18_4 1_555 1_555
C18_4 H7_4 1_555 1_555
C21_4 C24_4 1_555 1_555
C24_4 H10_4 1_555 1_555
C27_4 C15_4 1_555 1_555
H13_4 C27_4 1_555 1_555
C30_4 C18_4 1_555 1_555
C36_4 C33_5 1_555 1_555
H21_4 C36_4 1_555 1_555
C39_4 C36_4 1_555 1_555
H24_4 C39_4 1_555 1_555
N2_5 C21_4 1_555 1_555
O8_3 C12_4 1_555 1_555
O15 C12_4 1_555 1_555
C21_4 C30_4 1_555 1_555
C24_4 C27_4 1_555 1_555
C33_5 N2_5 1_555 1_555
C39_4 C40_5 1_555 1_555
O16_4 H27_4 1_555 1_555
O16_4 H28_4 1_555 1_555
C1_4 C2_4 1_555 1_555
C2_4 C3_4 1_555 1_555
C3_4 H1_4 1_555 1_555
C4_4 C5_4 1_555 1_555
C5_4 H2_4 1_555 1_555
C6_4 C2_4 1_555 1_555
H3_4 C6_4 1_555 1_555
C7_4 C3_4 1_555 1_555
N1_6 C4_4 1_555 1_555
O7_3 C1_4 1_555 1_555
O14 C1_4 1_555 1_555
C35_4 C8_6 1_555 1_555
H20_4 C35_4 1_555 1_555
C38_4 C11_6 1_555 1_555
H23_4 C38_4 1_555 1_555
C4_4 C7_4 1_555 1_555
C5_4 C6_4 1_555 1_555
C8_6 N1_6 1_555 1_555
C35_4 C38_4 1_555 1_555
C14_4 C17_4 1_555 1_555
C17_4 C20_4 1_555 1_555
C20_4 H9_4 1_555 1_555
C23_4 C26_4 1_555 1_555
C26_4 H12_4 1_555 1_555
C29_4 C17_4 1_555 1_555
H15_4 C29_4 1_555 1_555
C32_4 C20_4 1_555 1_555
C33_6 C34_4 1_555 1_555
C34_4 H19_4 1_555 1_555
C37_4 C34_4 1_555 1_555
H22_4 C37_4 1_555 1_555
O8_4 C14_4 1_555 1_555
O15_2 C14_4 1_555 1_555
C23_4 C32_4 1_555 1_555
C23_4 N2_6 1_555 1_555
C26_4 C29_4 1_555 1_555
C33_6 N2_6 1_555 1_555
C37_4 C40_6 1_555 1_555

#END
