
###############################################################################
#
# This file contains modified crystal structure data generated from the
# MOF subset of the Cambridge Structural Database (CSD) v543 
# hosted by the Cambridge Crystallographic Data Centre (CCDC).
#
# This work is licensed under the Creative Commons
# Attribution-NonCommercial-ShareAlike 4.0 International License.
# To view a copy of this license, visit
# http://creativecommons.org/licenses/by-nc-sa/4.0/
# or send a letter to
# Creative Commons, PO Box 1866, Mountain View, CA 94042, USA.
#
# CIF created using the CSD Python API on 29 September 2022
# The structure has been converted into the P1 space group
# The structure has a 3D framework
# The original CSD entry XAFFOB is in the orthorhombic crystal system
# The framework has been calculated to contain at least 10.0% void space
# The void calculation uses a probe of radius 1.32A, grid spacing 0.4
# H atom positions have been added when not included in the experimental data
# Generated hydrogen atom positions removed from atoms on special positions
#
###############################################################################

data_XAFFOB
_chemical_formula_moiety         '(C160 H144 Cu12 N8 O44)n'
_symmetry_cell_setting           triclinic
_symmetry_space_group_name_H-M   'P 1'
_symmetry_Int_Tables_number      1
_space_group_name_Hall           'P 1'
loop_
_symmetry_equiv_pos_site_id
_symmetry_equiv_pos_as_xyz
1 x,y,z
_cell_length_a                   23.2640(10)
_cell_length_b                   35.595(4)
_cell_length_c                   17.217(4)
_cell_angle_alpha                90
_cell_angle_beta                 90
_cell_angle_gamma                90
_cell_volume                     14257.1
loop_
_atom_site_label
_atom_site_type_symbol
_atom_site_fract_x
_atom_site_fract_y
_atom_site_fract_z
C1 C 0.14257(10) 0.03900(6) 0.30742(17)
H1 H 0.1275 0.0166 0.2885
C2 C 0.18410(11) 0.05715(6) 0.26621(17)
H2 H 0.1968 0.0472 0.2193
C3 C 0.20772(10) 0.09053(6) 0.29370(18)
C4 C 0.18824(11) 0.10509(6) 0.36340(18)
H3 H 0.2044 0.1270 0.3829
C5 C 0.14508(10) 0.08728(6) 0.40406(17)
H4 H 0.1311 0.0980 0.4496
C6 C 0.12232(8) 0.05353(5) 0.37780(15)
C7 C 0.07685(9) 0.03411(5) 0.42294(14)
C8 C 0.2500 0.15013(8) 0.2500
C9 C 0.20196(12) 0.16994(7) 0.2330(2)
H5 H 0.1684 0.1571 0.2206
C10 C 0.20153(12) 0.20871(6) 0.2337(2)
H6 H 0.1674 0.2213 0.2229
C11 C 0.2500 0.22913(8) 0.2500
N1 N 0.2500 0.10998(6) 0.2500
O1 O 0.05956(6) 0.04924(4) 0.48349(10)
O2 O 0.0000 0.07271(7) 0.63486(19)
O3 O 0.05928(6) 0.00275(4) 0.39630(10)
Cu1 Cu 0.0000 0.027359(8) 0.55129(2)
C12 C 0.35743(10) 0.03900(6) 0.19258(17)
C13 C 0.35743(10) 0.46100(6) 0.19258(17)
C14 C 0.14257(10) 0.46100(6) 0.30742(17)
H7 H 0.3725 0.0166 0.2115
H8 H 0.3725 0.4834 0.2115
H9 H 0.1275 0.4834 0.2885
C15 C 0.31590(11) 0.05715(6) 0.23379(17)
C16 C 0.31590(11) 0.44285(6) 0.23379(17)
C17 C 0.18410(11) 0.44285(6) 0.26621(17)
H10 H 0.3032 0.0472 0.2807
H11 H 0.3032 0.4528 0.2807
H12 H 0.1968 0.4528 0.2193
C18 C 0.29228(10) 0.09053(6) 0.20630(18)
C19 C 0.29228(10) 0.40947(6) 0.20630(18)
C20 C 0.20772(10) 0.40947(6) 0.29370(18)
C21 C 0.31176(11) 0.10509(6) 0.13660(18)
C22 C 0.31176(11) 0.39491(6) 0.13660(18)
C23 C 0.18824(11) 0.39491(6) 0.36340(18)
H13 H 0.2956 0.1270 0.1171
H14 H 0.2956 0.3730 0.1171
H15 H 0.2044 0.3730 0.3829
C24 C 0.35492(10) 0.08728(6) 0.09594(17)
C25 C 0.35492(10) 0.41272(6) 0.09594(17)
C26 C 0.14508(10) 0.41272(6) 0.40406(17)
H16 H 0.3689 0.0980 0.0504
H17 H 0.3689 0.4020 0.0504
H18 H 0.1311 0.4020 0.4496
C27 C 0.37768(8) 0.05353(5) 0.12220(15)
C28 C 0.37768(8) 0.44647(5) 0.12220(15)
C29 C 0.12232(8) 0.44647(5) 0.37780(15)
C30 C 0.42315(9) 0.03411(5) 0.07706(14)
C31 C 0.42315(9) 0.46589(5) 0.07706(14)
C32 C 0.07685(9) 0.46589(5) 0.42294(14)
C33 C 0.2500 0.34987(8) 0.2500
C34 C 0.29804(12) 0.16994(7) 0.2670(2)
C35 C 0.29804(12) 0.33006(7) 0.2670(2)
C36 C 0.20196(12) 0.33006(7) 0.2330(2)
H19 H 0.3316 0.1571 0.2794
H20 H 0.1684 0.3429 0.2206
H21 H 0.3316 0.3429 0.2794
C37 C 0.29847(12) 0.20871(6) 0.2663(2)
C38 C 0.29847(12) 0.29129(6) 0.2663(2)
C39 C 0.20153(12) 0.29129(6) 0.2337(2)
H22 H 0.3326 0.2213 0.2771
H23 H 0.1674 0.2787 0.2229
H24 H 0.3326 0.2787 0.2771
C40 C 0.2500 0.27087(8) 0.2500
N2 N 0.2500 0.39002(6) 0.2500
O4 O 0.44044(6) 0.04924(4) 0.01651(10)
O5 O 0.44044(6) 0.45076(4) 0.01651(10)
O6 O 0.05956(6) 0.45076(4) 0.48349(10)
O9 O 0.0000 0.42729(7) 0.63486(19)
O10 O 0.44072(6) 0.00275(4) 0.10370(10)
O11 O 0.44072(6) 0.49725(4) 0.10370(10)
O12 O 0.05928(6) 0.49725(4) 0.39630(10)
O16 O 0.05928(6) 0.50275(4) 0.60370(10)
Cu6 Cu 0.5000 0.527359(8) 0.05129(2)
Cu7 Cu -0.0000 0.472641(8) 0.55129(2)
Cu8 Cu 0.0000 0.527359(8) 0.44871(2)
Cu2 Cu 0.5000 0.027359(8) 0.94871(2)
Cu5 Cu 0.5000 0.472641(8) 0.94871(2)
O13 O 0.05928(6) 0.99725(4) 0.60370(10)
Cu3 Cu -0.0000 0.972641(8) 0.44871(2)
Cu4 Cu 0.5000 0.972641(8) 0.05129(2)
O2_2 O 1.0000 0.07271(7) 0.63486(19)
Cu1_2 Cu 1.0000 0.027359(8) 0.55129(2)
O7 O 0.94044(6) 0.04924(4) 0.48349(10)
O8 O 0.94044(6) 0.45076(4) 0.48349(10)
O9_2 O 1.0000 0.42729(7) 0.63486(19)
O15 O 0.94072(6) 0.50275(4) 0.60370(10)
Cu7_2 Cu 1.0000 0.472641(8) 0.55129(2)
Cu8_2 Cu 1.0000 0.527359(8) 0.44871(2)
O14 O 0.94072(6) 0.99725(4) 0.60370(10)
Cu3_2 Cu 1.0000 0.972641(8) 0.44871(2)
C1_2 C 0.85743(10) 0.46100(6) 0.30742(17)
H1_2 H 0.8725 0.4834 0.2885
C2_2 C 0.81590(11) 0.44285(6) 0.26621(17)
H2_2 H 0.8032 0.4528 0.2193
C3_2 C 0.79228(10) 0.40947(6) 0.29370(18)
C4_2 C 0.81176(11) 0.39491(6) 0.36340(18)
H3_2 H 0.7956 0.3730 0.3829
C5_2 C 0.85492(10) 0.41272(6) 0.40406(17)
H4_2 H 0.8689 0.4020 0.4496
C6_2 C 0.87768(8) 0.44647(5) 0.37780(15)
C7_2 C 0.92315(9) 0.46589(5) 0.42294(14)
C8_2 C 0.7500 0.34987(8) 0.2500
C9_2 C 0.79804(12) 0.33006(7) 0.2330(2)
H5_2 H 0.8316 0.3429 0.2206
C10_2 C 0.79847(12) 0.29129(6) 0.2337(2)
H6_2 H 0.8326 0.2787 0.2229
C11_2 C 0.7500 0.27087(8) 0.2500
N1_2 N 0.7500 0.39002(6) 0.2500
O3_2 O 0.94072(6) 0.49725(4) 0.39630(10)
C12_2 C 0.64257(10) 0.46100(6) 0.19258(17)
C13_2 C 0.64257(10) 0.03900(6) 0.19258(17)
C14_2 C 0.85743(10) 0.03900(6) 0.30742(17)
H7_2 H 0.6275 0.4834 0.2115
H8_2 H 0.6275 0.0166 0.2115
H9_2 H 0.8725 0.0166 0.2885
C15_2 C 0.68410(11) 0.44285(6) 0.23379(17)
C16_2 C 0.68410(11) 0.05715(6) 0.23379(17)
C17_2 C 0.81590(11) 0.05715(6) 0.26621(17)
H10_2 H 0.6968 0.4528 0.2807
H11_2 H 0.6968 0.0472 0.2807
H12_2 H 0.8032 0.0472 0.2193
C18_2 C 0.70772(10) 0.40947(6) 0.20630(18)
C19_2 C 0.70772(10) 0.09053(6) 0.20630(18)
C20_2 C 0.79228(10) 0.09053(6) 0.29370(18)
C21_2 C 0.68824(11) 0.39491(6) 0.13660(18)
C22_2 C 0.68824(11) 0.10509(6) 0.13660(18)
C23_2 C 0.81176(11) 0.10509(6) 0.36340(18)
H13_2 H 0.7044 0.3730 0.1171
H14_2 H 0.7044 0.1270 0.1171
H15_2 H 0.7956 0.1270 0.3829
C24_2 C 0.64508(10) 0.41272(6) 0.09594(17)
C25_2 C 0.64508(10) 0.08728(6) 0.09594(17)
C26_2 C 0.85492(10) 0.08728(6) 0.40406(17)
H16_2 H 0.6311 0.4020 0.0504
H17_2 H 0.6311 0.0980 0.0504
H18_2 H 0.8689 0.0980 0.4496
C27_2 C 0.62232(8) 0.44647(5) 0.12220(15)
C28_2 C 0.62232(8) 0.05353(5) 0.12220(15)
C29_2 C 0.87768(8) 0.05353(5) 0.37780(15)
C30_2 C 0.57685(9) 0.46589(5) 0.07706(14)
C31_2 C 0.57685(9) 0.03411(5) 0.07706(14)
C32_2 C 0.92315(9) 0.03411(5) 0.42294(14)
C33_2 C 0.7500 0.15013(8) 0.2500
C34_2 C 0.70196(12) 0.33006(7) 0.2670(2)
C35_2 C 0.70196(12) 0.16994(7) 0.2670(2)
C36_2 C 0.79804(12) 0.16994(7) 0.2330(2)
H19_2 H 0.6684 0.3429 0.2794
H20_2 H 0.8316 0.1571 0.2206
H21_2 H 0.6684 0.1571 0.2794
C37_2 C 0.70153(12) 0.29129(6) 0.2663(2)
C38_2 C 0.70153(12) 0.20871(6) 0.2663(2)
C39_2 C 0.79847(12) 0.20871(6) 0.2337(2)
H22_2 H 0.6674 0.2787 0.2771
H23_2 H 0.8326 0.2213 0.2229
H24_2 H 0.6674 0.2213 0.2771
C40_2 C 0.7500 0.22913(8) 0.2500
N2_2 N 0.7500 0.10998(6) 0.2500
O4_2 O 0.55956(6) 0.45076(4) 0.01651(10)
O5_2 O 0.55956(6) 0.04924(4) 0.01651(10)
O10_2 O 0.55928(6) 0.49725(4) 0.10370(10)
O11_2 O 0.55928(6) 0.00275(4) 0.10370(10)
O12_2 O 0.94072(6) 0.00275(4) 0.39630(10)
O2_3 O 0.5000 0.57271(7) 0.13486(19)
O9_3 O 0.5000 0.92729(7) 0.13486(19)
C1_3 C 0.64257(10) 0.53900(6) 0.80742(17)
H1_3 H 0.6275 0.5166 0.7885
C2_3 C 0.68410(11) 0.55715(6) 0.76621(17)
H2_3 H 0.6968 0.5472 0.7193
C3_3 C 0.70772(10) 0.59053(6) 0.79370(18)
C4_3 C 0.68824(11) 0.60509(6) 0.86340(18)
H3_3 H 0.7044 0.6270 0.8829
C5_3 C 0.64508(10) 0.58728(6) 0.90406(17)
H4_3 H 0.6311 0.5980 0.9496
C6_3 C 0.62232(8) 0.55353(5) 0.87780(15)
C7_3 C 0.57685(9) 0.53411(5) 0.92294(14)
C8_3 C 0.7500 0.65013(8) 0.7500
C9_3 C 0.70196(12) 0.66994(7) 0.7330(2)
H5_3 H 0.6684 0.6571 0.7206
C10_3 C 0.70153(12) 0.70871(6) 0.7337(2)
H6_3 H 0.6674 0.7213 0.7229
C11_3 C 0.7500 0.72913(8) 0.7500
N1_3 N 0.7500 0.60998(6) 0.7500
O1_2 O 0.55956(6) 0.54924(4) 0.98349(10)
O3_3 O 0.55928(6) 0.50275(4) 0.89630(10)
C12_3 C 0.85743(10) 0.53900(6) 0.69258(17)
C13_3 C 0.85743(10) 0.96100(6) 0.69258(17)
C14_3 C 0.64257(10) 0.96100(6) 0.80742(17)
H7_3 H 0.8725 0.5166 0.7115
H8_3 H 0.8725 0.9834 0.7115
H9_3 H 0.6275 0.9834 0.7885
C15_3 C 0.81590(11) 0.55715(6) 0.73379(17)
C16_3 C 0.81590(11) 0.94285(6) 0.73379(17)
C17_3 C 0.68410(11) 0.94285(6) 0.76621(17)
H10_3 H 0.8032 0.5472 0.7807
H11_3 H 0.8032 0.9528 0.7807
H12_3 H 0.6968 0.9528 0.7193
C18_3 C 0.79228(10) 0.59053(6) 0.70630(18)
C19_3 C 0.79228(10) 0.90947(6) 0.70630(18)
C20_3 C 0.70772(10) 0.90947(6) 0.79370(18)
C21_3 C 0.81176(11) 0.60509(6) 0.63660(18)
C22_3 C 0.81176(11) 0.89491(6) 0.63660(18)
C23_3 C 0.68824(11) 0.89491(6) 0.86340(18)
H13_3 H 0.7956 0.6270 0.6171
H14_3 H 0.7956 0.8730 0.6171
H15_3 H 0.7044 0.8730 0.8829
C24_3 C 0.85492(10) 0.58728(6) 0.59594(17)
C25_3 C 0.85492(10) 0.91272(6) 0.59594(17)
C26_3 C 0.64508(10) 0.91272(6) 0.90406(17)
H16_3 H 0.8689 0.5980 0.5504
H17_3 H 0.8689 0.9020 0.5504
H18_3 H 0.6311 0.9020 0.9496
C27_3 C 0.87768(8) 0.55353(5) 0.62220(15)
C28_3 C 0.87768(8) 0.94647(5) 0.62220(15)
C29_3 C 0.62232(8) 0.94647(5) 0.87780(15)
C30_3 C 0.92315(9) 0.53411(5) 0.57706(14)
C31_3 C 0.92315(9) 0.96589(5) 0.57706(14)
C32_3 C 0.57685(9) 0.96589(5) 0.92294(14)
C33_3 C 0.7500 0.84987(8) 0.7500
C34_3 C 0.79804(12) 0.66994(7) 0.7670(2)
C35_3 C 0.79804(12) 0.83006(7) 0.7670(2)
C36_3 C 0.70196(12) 0.83006(7) 0.7330(2)
H19_3 H 0.8316 0.6571 0.7794
H20_3 H 0.6684 0.8429 0.7206
H21_3 H 0.8316 0.8429 0.7794
C37_3 C 0.79847(12) 0.70871(6) 0.7663(2)
C38_3 C 0.79847(12) 0.79129(6) 0.7663(2)
C39_3 C 0.70153(12) 0.79129(6) 0.7337(2)
H22_3 H 0.8326 0.7213 0.7771
H23_3 H 0.6674 0.7787 0.7229
H24_3 H 0.8326 0.7787 0.7771
C40_3 C 0.7500 0.77087(8) 0.7500
N2_3 N 0.7500 0.89002(6) 0.7500
O4_3 O 0.94044(6) 0.54924(4) 0.51651(10)
O5_3 O 0.94044(6) 0.95076(4) 0.51651(10)
O6_2 O 0.55956(6) 0.95076(4) 0.98349(10)
O7_2 O 0.44044(6) 0.54924(4) 0.98349(10)
O8_2 O 0.44044(6) 0.95076(4) 0.98349(10)
O12_3 O 0.55928(6) 0.99725(4) 0.89630(10)
C1_4 C 0.35743(10) 0.96100(6) 0.80742(17)
H1_4 H 0.3725 0.9834 0.7885
C2_4 C 0.31590(11) 0.94285(6) 0.76621(17)
H2_4 H 0.3032 0.9528 0.7193
C3_4 C 0.29228(10) 0.90947(6) 0.79370(18)
C4_4 C 0.31176(11) 0.89491(6) 0.86340(18)
H3_4 H 0.2956 0.8730 0.8829
C5_4 C 0.35492(10) 0.91272(6) 0.90406(17)
H4_4 H 0.3689 0.9020 0.9496
C6_4 C 0.37768(8) 0.94647(5) 0.87780(15)
C7_4 C 0.42315(9) 0.96589(5) 0.92294(14)
C8_4 C 0.2500 0.84987(8) 0.7500
C9_4 C 0.29804(12) 0.83006(7) 0.7330(2)
H5_4 H 0.3316 0.8429 0.7206
C10_4 C 0.29847(12) 0.79129(6) 0.7337(2)
H6_4 H 0.3326 0.7787 0.7229
C11_4 C 0.2500 0.77087(8) 0.7500
N1_4 N 0.2500 0.89002(6) 0.7500
O3_4 O 0.44072(6) 0.99725(4) 0.89630(10)
C12_4 C 0.14257(10) 0.96100(6) 0.69258(17)
C13_4 C 0.14257(10) 0.53900(6) 0.69258(17)
C14_4 C 0.35743(10) 0.53900(6) 0.80742(17)
H7_4 H 0.1275 0.9834 0.7115
H8_4 H 0.1275 0.5166 0.7115
H9_4 H 0.3725 0.5166 0.7885
C15_4 C 0.18410(11) 0.94285(6) 0.73379(17)
C16_4 C 0.18410(11) 0.55715(6) 0.73379(17)
C17_4 C 0.31590(11) 0.55715(6) 0.76621(17)
H10_4 H 0.1968 0.9528 0.7807
H11_4 H 0.1968 0.5472 0.7807
H12_4 H 0.3032 0.5472 0.7193
C18_4 C 0.20772(10) 0.90947(6) 0.70630(18)
C19_4 C 0.20772(10) 0.59053(6) 0.70630(18)
C20_4 C 0.29228(10) 0.59053(6) 0.79370(18)
C21_4 C 0.18824(11) 0.89491(6) 0.63660(18)
C22_4 C 0.18824(11) 0.60509(6) 0.63660(18)
C23_4 C 0.31176(11) 0.60509(6) 0.86340(18)
H13_4 H 0.2044 0.8730 0.6171
H14_4 H 0.2044 0.6270 0.6171
H15_4 H 0.2956 0.6270 0.8829
C24_4 C 0.14508(10) 0.91272(6) 0.59594(17)
C25_4 C 0.14508(10) 0.58728(6) 0.59594(17)
C26_4 C 0.35492(10) 0.58728(6) 0.90406(17)
H16_4 H 0.1311 0.9020 0.5504
H17_4 H 0.1311 0.5980 0.5504
H18_4 H 0.3689 0.5980 0.9496
C27_4 C 0.12232(8) 0.94647(5) 0.62220(15)
C28_4 C 0.12232(8) 0.55353(5) 0.62220(15)
C29_4 C 0.37768(8) 0.55353(5) 0.87780(15)
C30_4 C 0.07685(9) 0.96589(5) 0.57706(14)
C31_4 C 0.07685(9) 0.53411(5) 0.57706(14)
C32_4 C 0.42315(9) 0.53411(5) 0.92294(14)
C33_4 C 0.2500 0.65013(8) 0.7500
C34_4 C 0.20196(12) 0.83006(7) 0.7670(2)
C35_4 C 0.20196(12) 0.66994(7) 0.7670(2)
C36_4 C 0.29804(12) 0.66994(7) 0.7330(2)
H19_4 H 0.1684 0.8429 0.7794
H20_4 H 0.3316 0.6571 0.7206
H21_4 H 0.1684 0.6571 0.7794
C37_4 C 0.20153(12) 0.79129(6) 0.7663(2)
C38_4 C 0.20153(12) 0.70871(6) 0.7663(2)
C39_4 C 0.29847(12) 0.70871(6) 0.7337(2)
H22_4 H 0.1674 0.7787 0.7771
H23_4 H 0.3326 0.7213 0.7229
H24_4 H 0.1674 0.7213 0.7771
C40_4 C 0.2500 0.72913(8) 0.7500
N2_4 N 0.2500 0.60998(6) 0.7500
O4_4 O 0.05956(6) 0.95076(4) 0.51651(10)
O5_4 O 0.05956(6) 0.54924(4) 0.51651(10)
O12_4 O 0.44072(6) 0.50275(4) 0.89630(10)
O2_4 O 0.0000 0.92729(7) 0.36514(19)
O9_4 O 0.0000 0.57271(7) 0.36514(19)
O2_5 O 1.0000 0.92729(7) 0.36514(19)
O9_5 O 1.0000 0.57271(7) 0.36514(19)
O2_6 O 0.5000 0.42729(7) 0.86514(19)
O9_6 O 0.5000 0.07271(7) 0.86514(19)
loop_
_geom_bond_atom_site_label_1
_geom_bond_atom_site_label_2
_geom_bond_site_symmetry_1
_geom_bond_site_symmetry_2
C1 H1 1_555 1_555
C2 C1 1_555 1_555
H2 C2 1_555 1_555
C3 C2 1_555 1_555
C4 C3 1_555 1_555
H3 C4 1_555 1_555
C5 C4 1_555 1_555
H4 C5 1_555 1_555
C6 C1 1_555 1_555
C7 C6 1_555 1_555
C8 C9 1_555 1_555
C9 H5 1_555 1_555
C10 C9 1_555 1_555
H6 C10 1_555 1_555
C11 C10 1_555 1_555
N1 C3 1_555 1_555
O1 C7 1_555 1_555
O2 Cu1 1_555 1_555
O3 C7 1_555 1_555
Cu1 O1 1_555 1_555
C12 H7 1_555 1_555
C13 H8 1_555 1_555
C14 H9 1_555 1_555
C15 C12 1_555 1_555
C16 C13 1_555 1_555
C17 C14 1_555 1_555
H10 C15 1_555 1_555
H11 C16 1_555 1_555
H12 C17 1_555 1_555
C18 N1 1_555 1_555
C19 C16 1_555 1_555
C20 C17 1_555 1_555
C21 C18 1_555 1_555
C22 C19 1_555 1_555
C23 C20 1_555 1_555
H13 C21 1_555 1_555
H14 C22 1_555 1_555
H15 C23 1_555 1_555
C24 C21 1_555 1_555
C25 C22 1_555 1_555
C26 C23 1_555 1_555
H16 C24 1_555 1_555
H17 C25 1_555 1_555
H18 C26 1_555 1_555
C27 C12 1_555 1_555
C28 C13 1_555 1_555
C29 C14 1_555 1_555
C30 C27 1_555 1_555
C31 C28 1_555 1_555
C32 C29 1_555 1_555
C33 C35 1_555 1_555
C34 C8 1_555 1_555
C35 H21 1_555 1_555
C36 C33 1_555 1_555
H19 C34 1_555 1_555
H20 C36 1_555 1_555
C37 C11 1_555 1_555
C38 C35 1_555 1_555
C39 C36 1_555 1_555
H22 C37 1_555 1_555
H23 C39 1_555 1_555
H24 C38 1_555 1_555
C40 C11 1_555 1_555
N2 C19 1_555 1_555
O4 C30 1_555 1_555
O5 C31 1_555 1_555
O6 C32 1_555 1_555
O9 Cu7 1_555 1_555
O10 C30 1_555 1_555
O11 C31 1_555 1_555
O12 C32 1_555 1_555
O16 Cu7 1_555 1_555
Cu6 O11 1_555 1_555
Cu7 O6 1_555 1_555
Cu8 O12 1_555 1_555
C5 C6 1_555 1_555
C8 N1 1_555 1_555
C15 C18 1_555 1_555
C20 N2 1_555 1_555
C24 C27 1_555 1_555
C25 C28 1_555 1_555
C26 C29 1_555 1_555
C33 N2 1_555 1_555
C34 C37 1_555 1_555
C38 C40 1_555 1_555
C39 C40 1_555 1_555
O2_2 Cu1_2 1_555 1_555
O7 Cu1_2 1_555 1_555
O8 Cu7_2 1_555 1_555
O9_2 Cu7_2 1_555 1_555
O15 Cu7_2 1_555 1_555
C1_2 H1_2 1_555 1_555
C2_2 C1_2 1_555 1_555
H2_2 C2_2 1_555 1_555
C3_2 C2_2 1_555 1_555
C4_2 C3_2 1_555 1_555
H3_2 C4_2 1_555 1_555
C5_2 C4_2 1_555 1_555
H4_2 C5_2 1_555 1_555
C6_2 C1_2 1_555 1_555
C7_2 C6_2 1_555 1_555
C8_2 C9_2 1_555 1_555
C9_2 H5_2 1_555 1_555
C10_2 C9_2 1_555 1_555
H6_2 C10_2 1_555 1_555
C11_2 C10_2 1_555 1_555
N1_2 C3_2 1_555 1_555
O8 C7_2 1_555 1_555
O3_2 C7_2 1_555 1_555
C12_2 H7_2 1_555 1_555
C13_2 H8_2 1_555 1_555
C14_2 H9_2 1_555 1_555
C15_2 C12_2 1_555 1_555
C16_2 C13_2 1_555 1_555
C17_2 C14_2 1_555 1_555
H10_2 C15_2 1_555 1_555
H11_2 C16_2 1_555 1_555
H12_2 C17_2 1_555 1_555
C18_2 N1_2 1_555 1_555
C19_2 C16_2 1_555 1_555
C20_2 C17_2 1_555 1_555
C21_2 C18_2 1_555 1_555
C22_2 C19_2 1_555 1_555
C23_2 C20_2 1_555 1_555
H13_2 C21_2 1_555 1_555
H14_2 C22_2 1_555 1_555
H15_2 C23_2 1_555 1_555
C24_2 C21_2 1_555 1_555
C25_2 C22_2 1_555 1_555
C26_2 C23_2 1_555 1_555
H16_2 C24_2 1_555 1_555
H17_2 C25_2 1_555 1_555
H18_2 C26_2 1_555 1_555
C27_2 C12_2 1_555 1_555
C28_2 C13_2 1_555 1_555
C29_2 C14_2 1_555 1_555
C30_2 C27_2 1_555 1_555
C31_2 C28_2 1_555 1_555
C32_2 C29_2 1_555 1_555
C33_2 C35_2 1_555 1_555
C34_2 C8_2 1_555 1_555
C35_2 H21_2 1_555 1_555
C36_2 C33_2 1_555 1_555
H19_2 C34_2 1_555 1_555
H20_2 C36_2 1_555 1_555
C37_2 C11_2 1_555 1_555
C38_2 C35_2 1_555 1_555
C39_2 C36_2 1_555 1_555
H22_2 C37_2 1_555 1_555
H23_2 C39_2 1_555 1_555
H24_2 C38_2 1_555 1_555
C40_2 C11_2 1_555 1_555
N2_2 C19_2 1_555 1_555
O4_2 C30_2 1_555 1_555
O5_2 C31_2 1_555 1_555
O7 C32_2 1_555 1_555
O10_2 C30_2 1_555 1_555
O11_2 C31_2 1_555 1_555
O12_2 C32_2 1_555 1_555
Cu8_2 O3_2 1_555 1_555
Cu6 O10_2 1_555 1_555
C5_2 C6_2 1_555 1_555
C8_2 N1_2 1_555 1_555
C15_2 C18_2 1_555 1_555
C20_2 N2_2 1_555 1_555
C24_2 C27_2 1_555 1_555
C25_2 C28_2 1_555 1_555
C26_2 C29_2 1_555 1_555
C33_2 N2_2 1_555 1_555
C34_2 C37_2 1_555 1_555
C38_2 C40_2 1_555 1_555
C39_2 C40_2 1_555 1_555
O2_3 Cu6 1_555 1_555
O9_3 Cu4 1_555 1_555
C1_3 H1_3 1_555 1_555
C2_3 C1_3 1_555 1_555
H2_3 C2_3 1_555 1_555
C3_3 C2_3 1_555 1_555
C4_3 C3_3 1_555 1_555
H3_3 C4_3 1_555 1_555
C5_3 C4_3 1_555 1_555
H4_3 C5_3 1_555 1_555
C6_3 C1_3 1_555 1_555
C7_3 C6_3 1_555 1_555
C8_3 C9_3 1_555 1_555
C9_3 H5_3 1_555 1_555
C10_3 C9_3 1_555 1_555
H6_3 C10_3 1_555 1_555
C11_3 C10_3 1_555 1_555
N1_3 C3_3 1_555 1_555
O1_2 C7_3 1_555 1_555
O3_3 C7_3 1_555 1_555
C12_3 H7_3 1_555 1_555
C13_3 H8_3 1_555 1_555
C14_3 H9_3 1_555 1_555
C15_3 C12_3 1_555 1_555
C16_3 C13_3 1_555 1_555
C17_3 C14_3 1_555 1_555
H10_3 C15_3 1_555 1_555
H11_3 C16_3 1_555 1_555
H12_3 C17_3 1_555 1_555
C18_3 N1_3 1_555 1_555
C19_3 C16_3 1_555 1_555
C20_3 C17_3 1_555 1_555
C21_3 C18_3 1_555 1_555
C22_3 C19_3 1_555 1_555
C23_3 C20_3 1_555 1_555
H13_3 C21_3 1_555 1_555
H14_3 C22_3 1_555 1_555
H15_3 C23_3 1_555 1_555
C24_3 C21_3 1_555 1_555
C25_3 C22_3 1_555 1_555
C26_3 C23_3 1_555 1_555
H16_3 C24_3 1_555 1_555
H17_3 C25_3 1_555 1_555
H18_3 C26_3 1_555 1_555
C27_3 C12_3 1_555 1_555
C28_3 C13_3 1_555 1_555
C29_3 C14_3 1_555 1_555
C30_3 C27_3 1_555 1_555
C31_3 C28_3 1_555 1_555
C32_3 C29_3 1_555 1_555
C33_3 C35_3 1_555 1_555
C34_3 C8_3 1_555 1_555
C35_3 H21_3 1_555 1_555
C36_3 C33_3 1_555 1_555
H19_3 C34_3 1_555 1_555
H20_3 C36_3 1_555 1_555
C37_3 C11_3 1_555 1_555
C38_3 C35_3 1_555 1_555
C39_3 C36_3 1_555 1_555
H22_3 C37_3 1_555 1_555
H23_3 C39_3 1_555 1_555
H24_3 C38_3 1_555 1_555
C40_3 C11_3 1_555 1_555
N2_3 C19_3 1_555 1_555
O4_3 C30_3 1_555 1_555
O5_3 C31_3 1_555 1_555
O6_2 C32_3 1_555 1_555
O15 C30_3 1_555 1_555
O14 C31_3 1_555 1_555
O12_3 C32_3 1_555 1_555
Cu8_2 O4_3 1_555 1_555
Cu5 O3_3 1_555 1_555
Cu3_2 O5_3 1_555 1_555
C5_3 C6_3 1_555 1_555
C8_3 N1_3 1_555 1_555
C15_3 C18_3 1_555 1_555
C20_3 N2_3 1_555 1_555
C24_3 C27_3 1_555 1_555
C25_3 C28_3 1_555 1_555
C26_3 C29_3 1_555 1_555
C33_3 N2_3 1_555 1_555
C34_3 C37_3 1_555 1_555
C38_3 C40_3 1_555 1_555
C39_3 C40_3 1_555 1_555
C1_4 H1_4 1_555 1_555
C2_4 C1_4 1_555 1_555
H2_4 C2_4 1_555 1_555
C3_4 C2_4 1_555 1_555
C4_4 C3_4 1_555 1_555
H3_4 C4_4 1_555 1_555
C5_4 C4_4 1_555 1_555
H4_4 C5_4 1_555 1_555
C6_4 C1_4 1_555 1_555
C7_4 C6_4 1_555 1_555
C8_4 C9_4 1_555 1_555
C9_4 H5_4 1_555 1_555
C10_4 C9_4 1_555 1_555
H6_4 C10_4 1_555 1_555
C11_4 C10_4 1_555 1_555
N1_4 C3_4 1_555 1_555
O8_2 C7_4 1_555 1_555
O3_4 C7_4 1_555 1_555
C12_4 H7_4 1_555 1_555
C13_4 H8_4 1_555 1_555
C14_4 H9_4 1_555 1_555
C15_4 C12_4 1_555 1_555
C16_4 C13_4 1_555 1_555
C17_4 C14_4 1_555 1_555
H10_4 C15_4 1_555 1_555
H11_4 C16_4 1_555 1_555
H12_4 C17_4 1_555 1_555
C18_4 N1_4 1_555 1_555
C19_4 C16_4 1_555 1_555
C20_4 C17_4 1_555 1_555
C21_4 C18_4 1_555 1_555
C22_4 C19_4 1_555 1_555
C23_4 C20_4 1_555 1_555
H13_4 C21_4 1_555 1_555
H14_4 C22_4 1_555 1_555
H15_4 C23_4 1_555 1_555
C24_4 C21_4 1_555 1_555
C25_4 C22_4 1_555 1_555
C26_4 C23_4 1_555 1_555
H16_4 C24_4 1_555 1_555
H17_4 C25_4 1_555 1_555
H18_4 C26_4 1_555 1_555
C27_4 C12_4 1_555 1_555
C28_4 C13_4 1_555 1_555
C29_4 C14_4 1_555 1_555
C30_4 C27_4 1_555 1_555
C31_4 C28_4 1_555 1_555
C32_4 C29_4 1_555 1_555
C33_4 C35_4 1_555 1_555
C34_4 C8_4 1_555 1_555
C35_4 H21_4 1_555 1_555
C36_4 C33_4 1_555 1_555
H19_4 C34_4 1_555 1_555
H20_4 C36_4 1_555 1_555
C37_4 C11_4 1_555 1_555
C38_4 C35_4 1_555 1_555
C39_4 C36_4 1_555 1_555
H22_4 C37_4 1_555 1_555
H23_4 C39_4 1_555 1_555
H24_4 C38_4 1_555 1_555
C40_4 C11_4 1_555 1_555
N2_4 C19_4 1_555 1_555
O4_4 C30_4 1_555 1_555
O5_4 C31_4 1_555 1_555
O7_2 C32_4 1_555 1_555
O13 C30_4 1_555 1_555
O16 C31_4 1_555 1_555
O12_4 C32_4 1_555 1_555
Cu3 O4_4 1_555 1_555
Cu8 O5_4 1_555 1_555
Cu5 O12_4 1_555 1_555
C5_4 C6_4 1_555 1_555
C8_4 N1_4 1_555 1_555
C15_4 C18_4 1_555 1_555
C20_4 N2_4 1_555 1_555
C24_4 C27_4 1_555 1_555
C25_4 C28_4 1_555 1_555
C26_4 C29_4 1_555 1_555
C33_4 N2_4 1_555 1_555
C34_4 C37_4 1_555 1_555
C38_4 C40_4 1_555 1_555
C39_4 C40_4 1_555 1_555
O2_4 Cu3 1_555 1_555
O9_4 Cu8 1_555 1_555
O2_5 Cu3_2 1_555 1_555
O9_5 Cu8_2 1_555 1_555
O2_6 Cu5 1_555 1_555
O9_6 Cu2 1_555 1_555

#END
