
###############################################################################
#
# This file contains modified crystal structure data generated from the
# MOF subset of the Cambridge Structural Database (CSD) v543 
# hosted by the Cambridge Crystallographic Data Centre (CCDC).
#
# This work is licensed under the Creative Commons
# Attribution-NonCommercial-ShareAlike 4.0 International License.
# To view a copy of this license, visit
# http://creativecommons.org/licenses/by-nc-sa/4.0/
# or send a letter to
# Creative Commons, PO Box 1866, Mountain View, CA 94042, USA.
#
# CIF created using the CSD Python API on 29 September 2022
# The structure has been converted into the P1 space group
# The structure has a 3D framework
# The original CSD entry XAFFUH is in the tetragonal crystal system
# The framework has been calculated to contain at least 10.0% void space
# The void calculation uses a probe of radius 1.32A, grid spacing 0.4
# H atom positions have been added when not included in the experimental data
# Generated hydrogen atom positions removed from atoms on special positions
#
###############################################################################

data_XAFFUH
_chemical_formula_moiety         '(C320 H256 Cu24 N16 O88)n'
_symmetry_cell_setting           triclinic
_symmetry_space_group_name_H-M   'P 1'
_symmetry_Int_Tables_number      1
_space_group_name_Hall           'P 1'
loop_
_symmetry_equiv_pos_site_id
_symmetry_equiv_pos_as_xyz
1 x,y,z
_cell_length_a                   36.3295(5)
_cell_length_b                   36.3295(5)
_cell_length_c                   24.0870(3)
_cell_angle_alpha                90
_cell_angle_beta                 90
_cell_angle_gamma                90
_cell_volume                     31790.8
loop_
_atom_site_label
_atom_site_type_symbol
_atom_site_fract_x
_atom_site_fract_y
_atom_site_fract_z
Cu4 Cu 0.993470(11) 0.312870(11) -0.0000
Cu7 Cu 0.988820(11) 0.384930(11) -0.0000
O10 O 0.61686(5) 0.02682(5) 0.05789(7)
C1 C 0.67273(7) 0.17273(7) 0.7500
C2 C 0.72697(7) 0.22697(7) 0.7500
C3 C 0.75543(7) 0.25543(7) 0.7500
C4 C 0.77458(11) 0.26534(10) 0.70301(13)
H1 H 0.7691 0.2535 0.6698
C5 C 0.84245(8) 0.41462(7) 0.62012(11)
C6 C 0.81002(7) 0.31002(7) 0.7500
C7 C 0.83958(9) 0.36310(9) 0.70551(12)
C8 C 0.87419(9) 0.39979(9) 0.64223(12)
H2 H 0.8970 0.4071 0.6287
C9 C 0.64444(9) 0.11854(9) 0.79401(12)
C10 C 0.64597(8) 0.06687(7) 0.87924(10)
C11 C 0.61236(8) 0.10533(9) 0.81576(12)
H3 H 0.5900 0.1137 0.8020
C12 C 0.61276(8) 0.07965(8) 0.85788(11)
H4 H 0.5907 0.0708 0.8721
C13 C 0.80910(9) 0.40337(9) 0.64158(12)
H5 H 0.7874 0.4130 0.6271
C14 C 0.70728(11) 0.21933(10) 0.79682(13)
H6 H 0.7123 0.2318 0.8297
C15 C 0.67809(8) 0.08040(9) 0.85760(12)
H7 H 0.7005 0.0722 0.8714
C16 C 0.87218(9) 0.37405(9) 0.68465(12)
H8 H 0.8938 0.3641 0.6990
C17 C 0.67922(11) 0.19249(11) 0.79548(13)
H9 H 0.6650 0.1885 0.8270
C18 C 0.80086(11) 0.29143(11) 0.70317(14)
H10 H 0.8131 0.2969 0.6703
C19 C 0.67746(8) 0.10631(9) 0.81519(13)
H11 H 0.6995 0.1154 0.8010
C20 C 0.80755(10) 0.37827(10) 0.68390(13)
H12 H 0.7848 0.3713 0.6983
C21 C 0.84462(9) 0.44255(7) 0.57517(10)
C22 C 0.64638(8) 0.03950(7) 0.92448(11)
N1 N 0.64484(6) 0.14484(6) 0.7500
N2 N 0.83751(6) 0.33751(6) 0.7500
Cu1 Cu 0.812870(11) 0.493470(11) 0.5000
O1 O 0.75411(8) 0.49897(10) 0.5000
O2 O 0.81463(5) 0.45530(5) 0.55759(7)
O4 O 0.61686(5) 0.02682(5) 0.94211(7)
O5 O 0.87560(5) 0.45184(5) 0.55798(7)
O6 O 0.67803(5) 0.03044(5) 0.94231(7)
C23 C 0.76534(10) 0.27458(11) 0.79699(13)
H13 H 0.7535 0.2691 0.8302
C24 C 0.91462(7) 0.34245(8) 0.87988(11)
C25 C 0.86310(9) 0.33958(9) 0.79449(12)
C26 C 0.89979(9) 0.37419(9) 0.85777(12)
H14 H 0.9071 0.3970 0.8713
C27 C 0.61854(9) 0.14444(9) 0.70599(12)
C28 C 0.56687(7) 0.14597(8) 0.62076(10)
C29 C 0.60533(9) 0.11236(8) 0.68424(12)
H15 H 0.6137 0.0900 0.6980
C30 C 0.57965(8) 0.11276(8) 0.64212(11)
H16 H 0.5708 0.0907 0.6279
C31 C 0.90337(9) 0.30910(9) 0.85842(12)
H17 H 0.9130 0.2874 0.8729
C32 C 0.71933(10) 0.20728(11) 0.70318(13)
H18 H 0.7318 0.2123 0.6703
C33 C 0.58040(9) 0.17809(8) 0.64240(12)
H19 H 0.5722 0.2005 0.6286
C34 C 0.87405(9) 0.37218(9) 0.81535(12)
H20 H 0.8641 0.3938 0.8010
C35 C 0.69249(11) 0.17922(11) 0.70452(13)
H21 H 0.6885 0.1650 0.6730
C36 C 0.79143(11) 0.30086(11) 0.79683(14)
H22 H 0.7969 0.3131 0.8297
C37 C 0.60631(9) 0.17746(8) 0.68481(13)
H23 H 0.6154 0.1995 0.6990
C38 C 0.87827(10) 0.30755(10) 0.81610(13)
H24 H 0.8713 0.2848 0.8017
C39 C 0.94255(7) 0.34462(9) 0.92483(10)
C40 C 0.53950(7) 0.14638(8) 0.57552(11)
Cu4_2 Cu 0.993470(11) 0.312870(11) 1.0000
Cu5 Cu 0.493470(11) 0.187130(11) 0.5000
Cu6 Cu 0.884930(11) 0.488820(11) 0.5000
Cu7_2 Cu 0.988820(11) 0.384930(11) 1.0000
Cu8 Cu 0.488820(11) 0.115070(11) 0.5000
O7 O 0.95530(5) 0.31463(5) 0.94241(7)
O8 O 0.81463(5) 0.45530(5) 0.44241(7)
O9 O 0.52682(5) 0.11686(5) 0.55789(7)
O11 O 0.95184(5) 0.37560(5) 0.94202(7)
O14 O 0.53044(5) 0.17803(5) 0.55769(7)
O15 O 0.82197(5) 0.53044(5) 0.44231(7)
O16 O 0.82197(5) 0.53044(5) 0.55769(7)
Cu2 Cu 0.615070(11) 0.988820(11) -0.0000
O3 O 0.55600(8) 0.97833(10) -0.0000
Cu3 Cu 0.687130(11) 0.993470(11) -0.0000
O12 O 0.62440(5) 0.95184(5) 0.05798(7)
H28 H 0.550161 0.959102 0.0279458
Cu2_2 Cu 0.615070(11) 0.988820(11) 1.0000
O3_2 O 0.55600(8) 0.97833(10) 1.0000
Cu3_2 Cu 0.687130(11) 0.993470(11) 1.0000
O13 O 0.62440(5) 0.95184(5) 0.94202(7)
H27 H 0.548269 0.969755 0.962633
Cu1_2 Cu 0.312870(11) 0.006530(11) 0.0000
O1_2 O 0.25411(8) 0.00103(10) 0.0000
Cu6_2 Cu 0.384930(11) 0.011180(11) 0.0000
O8_2 O 0.31463(5) 0.04470(5) 0.05759(7)
C1_2 C 0.17273(7) 0.32727(7) 0.7500
C2_2 C 0.22697(7) 0.27303(7) 0.7500
C3_2 C 0.25543(7) 0.24457(7) 0.7500
C4_2 C 0.27458(11) 0.23466(10) 0.79699(13)
H1_2 H 0.2691 0.2465 0.8302
C5_2 C 0.34245(8) 0.08538(7) 0.87988(11)
C6_2 C 0.31002(7) 0.18998(7) 0.7500
C7_2 C 0.33958(9) 0.13690(9) 0.79449(12)
C8_2 C 0.37419(9) 0.10021(9) 0.85777(12)
H2_2 H 0.3970 0.0929 0.8713
C9_2 C 0.14444(9) 0.38146(9) 0.70599(12)
C10_2 C 0.14597(8) 0.43313(7) 0.62076(10)
C11_2 C 0.11236(8) 0.39467(9) 0.68424(12)
H3_2 H 0.0900 0.3863 0.6980
C12_2 C 0.11276(8) 0.42035(8) 0.64212(11)
H4_2 H 0.0907 0.4292 0.6279
C13_2 C 0.30910(9) 0.09663(9) 0.85842(12)
H5_2 H 0.2874 0.0870 0.8729
C14_2 C 0.20728(11) 0.28067(10) 0.70318(13)
H6_2 H 0.2123 0.2682 0.6703
C15_2 C 0.17809(8) 0.41960(9) 0.64240(12)
H7_2 H 0.2005 0.4278 0.6286
C16_2 C 0.37218(9) 0.12595(9) 0.81535(12)
H8_2 H 0.3938 0.1359 0.8010
C17_2 C 0.17922(11) 0.30751(11) 0.70452(13)
H9_2 H 0.1650 0.3115 0.6730
C18_2 C 0.30086(11) 0.20857(11) 0.79683(14)
H10_2 H 0.3131 0.2031 0.8297
C19_2 C 0.17746(8) 0.39369(9) 0.68481(13)
H11_2 H 0.1995 0.3846 0.6990
C20_2 C 0.30755(10) 0.12173(10) 0.81610(13)
H12_2 H 0.2848 0.1287 0.8017
C21_2 C 0.34462(9) 0.05745(7) 0.92483(10)
C22_2 C 0.14638(8) 0.46050(7) 0.57552(11)
N1_2 N 0.14484(6) 0.35516(6) 0.7500
N2_2 N 0.33751(6) 0.16249(6) 0.7500
Cu1_3 Cu 0.312870(11) 0.006530(11) 1.0000
Cu2_3 Cu 0.115070(11) 0.511180(11) 0.5000
O1_3 O 0.25411(8) 0.00103(10) 1.0000
O2_2 O 0.31463(5) 0.04470(5) 0.94241(7)
O3_3 O 0.05600(8) 0.52167(10) 0.5000
O4_2 O 0.11686(5) 0.47318(5) 0.55789(7)
O5_2 O 0.37560(5) 0.04816(5) 0.94202(7)
O6_2 O 0.17803(5) 0.46956(5) 0.55769(7)
C23_2 C 0.26534(10) 0.22542(11) 0.70301(13)
H13_2 H 0.2535 0.2309 0.6698
C24_2 C 0.41462(7) 0.15755(8) 0.62012(11)
C25_2 C 0.36310(9) 0.16042(9) 0.70551(12)
C26_2 C 0.39979(9) 0.12581(9) 0.64223(12)
H14_2 H 0.4071 0.1030 0.6287
C27_2 C 0.11854(9) 0.35556(9) 0.79401(12)
C28_2 C 0.06687(7) 0.35403(8) 0.87924(10)
C29_2 C 0.10533(9) 0.38764(8) 0.81576(12)
H15_2 H 0.1137 0.4100 0.8020
C30_2 C 0.07965(8) 0.38724(8) 0.85788(11)
H16_2 H 0.0708 0.4093 0.8721
C31_2 C 0.40337(9) 0.19090(9) 0.64158(12)
H17_2 H 0.4130 0.2126 0.6271
C32_2 C 0.21933(10) 0.29272(11) 0.79682(13)
H18_2 H 0.2318 0.2877 0.8297
C33_2 C 0.08040(9) 0.32191(8) 0.85760(12)
H19_2 H 0.0722 0.2995 0.8714
C34_2 C 0.37405(9) 0.12782(9) 0.68465(12)
H20_2 H 0.3641 0.1062 0.6990
C35_2 C 0.19249(11) 0.32078(11) 0.79548(13)
H21_2 H 0.1885 0.3350 0.8270
C36_2 C 0.29143(11) 0.19914(11) 0.70317(14)
H22_2 H 0.2969 0.1869 0.6703
C37_2 C 0.10631(9) 0.32254(8) 0.81519(13)
H23_2 H 0.1154 0.3005 0.8010
C38_2 C 0.37827(10) 0.19245(10) 0.68390(13)
H24_2 H 0.3713 0.2152 0.6983
C39_2 C 0.44255(7) 0.15538(9) 0.57517(10)
C40_2 C 0.03950(7) 0.35362(8) 0.92448(11)
Cu3_3 Cu 0.187130(11) 0.506530(11) 0.5000
Cu6_3 Cu 0.384930(11) 0.011180(11) 1.0000
O7_2 O 0.45530(5) 0.18537(5) 0.55759(7)
O9_2 O 0.02682(5) 0.38314(5) 0.94211(7)
O10_2 O 0.11686(5) 0.47318(5) 0.44211(7)
O11_2 O 0.45184(5) 0.12440(5) 0.55798(7)
O12_2 O 0.12440(5) 0.54816(5) 0.44202(7)
O13_2 O 0.12440(5) 0.54816(5) 0.55798(7)
O14_2 O 0.03044(5) 0.32197(5) 0.94231(7)
O15_2 O 0.32197(5) 0.96956(5) 0.05769(7)
H26 H 0.246729 0.98212 0.0276075
O16_2 O 0.32197(5) 0.96956(5) 0.94231(7)
H25 H 0.245671 0.993428 0.962502
O3_4 O 0.44400(8) 0.02167(10) -0.0000
O12_3 O 0.37560(5) 0.04816(5) 0.05798(7)
H28_2 H 0.449839 0.0408976 0.0279458
O3_5 O 0.44400(8) 0.02167(10) 1.0000
H27_2 H 0.451731 0.0302448 0.962633
Cu4_3 Cu 0.006530(11) 0.687130(11) -0.0000
Cu7_3 Cu 0.011180(11) 0.615070(11) -0.0000
O10_3 O 0.38314(5) 0.97318(5) 0.05789(7)
C1_3 C 0.32727(7) 0.82727(7) 0.7500
C2_3 C 0.27303(7) 0.77303(7) 0.7500
C3_3 C 0.24457(7) 0.74457(7) 0.7500
C4_3 C 0.22542(11) 0.73466(10) 0.70301(13)
H1_3 H 0.2309 0.7465 0.6698
C5_3 C 0.15755(8) 0.58538(7) 0.62012(11)
C6_3 C 0.18998(7) 0.68998(7) 0.7500
C7_3 C 0.16042(9) 0.63690(9) 0.70551(12)
C8_3 C 0.12581(9) 0.60021(9) 0.64223(12)
H2_3 H 0.1030 0.5929 0.6287
C9_3 C 0.35556(9) 0.88146(9) 0.79401(12)
C10_3 C 0.35403(8) 0.93313(7) 0.87924(10)
C11_3 C 0.38764(8) 0.89467(9) 0.81576(12)
H3_3 H 0.4100 0.8863 0.8020
C12_3 C 0.38724(8) 0.92035(8) 0.85788(11)
H4_3 H 0.4093 0.9292 0.8721
C13_3 C 0.19090(9) 0.59663(9) 0.64158(12)
H5_3 H 0.2126 0.5870 0.6271
C14_3 C 0.29272(11) 0.78067(10) 0.79682(13)
H6_3 H 0.2877 0.7682 0.8297
C15_3 C 0.32191(8) 0.91960(9) 0.85760(12)
H7_3 H 0.2995 0.9278 0.8714
C16_3 C 0.12782(9) 0.62595(9) 0.68465(12)
H8_3 H 0.1062 0.6359 0.6990
C17_3 C 0.32078(11) 0.80751(11) 0.79548(13)
H9_3 H 0.3350 0.8115 0.8270
C18_3 C 0.19914(11) 0.70857(11) 0.70317(14)
H10_3 H 0.1869 0.7031 0.6703
C19_3 C 0.32254(8) 0.89369(9) 0.81519(13)
H11_3 H 0.3005 0.8846 0.8010
C20_3 C 0.19245(10) 0.62173(10) 0.68390(13)
H12_3 H 0.2152 0.6287 0.6983
C21_3 C 0.15538(9) 0.55745(7) 0.57517(10)
C22_3 C 0.35362(8) 0.96050(7) 0.92448(11)
N1_3 N 0.35516(6) 0.85516(6) 0.7500
N2_3 N 0.16249(6) 0.66249(6) 0.7500
O1_4 O 0.24589(8) 0.50103(10) 0.5000
O2_3 O 0.18537(5) 0.54470(5) 0.55759(7)
O4_3 O 0.38314(5) 0.97318(5) 0.94211(7)
C23_3 C 0.23466(10) 0.72542(11) 0.79699(13)
H13_3 H 0.2465 0.7309 0.8302
C24_3 C 0.08538(7) 0.65755(8) 0.87988(11)
C25_3 C 0.13690(9) 0.66042(9) 0.79449(12)
C26_3 C 0.10021(9) 0.62581(9) 0.85777(12)
H14_3 H 0.0929 0.6030 0.8713
C27_3 C 0.38146(9) 0.85556(9) 0.70599(12)
C28_3 C 0.43313(7) 0.85403(8) 0.62076(10)
C29_3 C 0.39467(9) 0.88764(8) 0.68424(12)
H15_3 H 0.3863 0.9100 0.6980
C30_3 C 0.42035(8) 0.88724(8) 0.64212(11)
H16_3 H 0.4292 0.9093 0.6279
C31_3 C 0.09663(9) 0.69090(9) 0.85842(12)
H17_3 H 0.0870 0.7126 0.8729
C32_3 C 0.28067(10) 0.79272(11) 0.70318(13)
H18_3 H 0.2682 0.7877 0.6703
C33_3 C 0.41960(9) 0.82191(8) 0.64240(12)
H19_3 H 0.4278 0.7995 0.6286
C34_3 C 0.12595(9) 0.62782(9) 0.81535(12)
H20_3 H 0.1359 0.6062 0.8010
C35_3 C 0.30751(11) 0.82078(11) 0.70452(13)
H21_3 H 0.3115 0.8350 0.6730
C36_3 C 0.20857(11) 0.69914(11) 0.79683(14)
H22_3 H 0.2031 0.6869 0.8297
C37_3 C 0.39369(9) 0.82254(8) 0.68481(13)
H23_3 H 0.3846 0.8005 0.6990
C38_3 C 0.12173(10) 0.69245(10) 0.81610(13)
H24_3 H 0.1287 0.7152 0.8017
C39_3 C 0.05745(7) 0.65538(9) 0.92483(10)
C40_3 C 0.46050(7) 0.85362(8) 0.57552(11)
Cu4_4 Cu 0.006530(11) 0.687130(11) 1.0000
Cu5_2 Cu 0.506530(11) 0.812870(11) 0.5000
Cu7_4 Cu 0.011180(11) 0.615070(11) 1.0000
Cu8_2 Cu 0.511180(11) 0.884930(11) 0.5000
O7_3 O 0.04470(5) 0.68537(5) 0.94241(7)
O8_3 O 0.18537(5) 0.54470(5) 0.44241(7)
O9_3 O 0.47318(5) 0.88314(5) 0.55789(7)
O11_3 O 0.04816(5) 0.62440(5) 0.94202(7)
O14_3 O 0.46956(5) 0.82197(5) 0.55769(7)
O15_3 O 0.17803(5) 0.46956(5) 0.44231(7)
O15_4 O 0.67803(5) 0.03044(5) 0.05769(7)
H26_2 H 0.753271 0.0178798 0.0276075
H25_2 H 0.754329 0.00657162 0.962502
O1_5 O 0.74589(8) 0.99897(10) 0.0000
O8_4 O 0.68537(5) 0.95530(5) 0.05759(7)
C1_4 C 0.82727(7) 0.67273(7) 0.7500
C2_4 C 0.77303(7) 0.72697(7) 0.7500
C3_4 C 0.74457(7) 0.75543(7) 0.7500
C4_4 C 0.72542(11) 0.76534(10) 0.79699(13)
H1_4 H 0.7309 0.7535 0.8302
C5_4 C 0.65755(8) 0.91462(7) 0.87988(11)
C6_4 C 0.68998(7) 0.81002(7) 0.7500
C7_4 C 0.66042(9) 0.86310(9) 0.79449(12)
C8_4 C 0.62581(9) 0.89979(9) 0.85777(12)
H2_4 H 0.6030 0.9071 0.8713
C9_4 C 0.85556(9) 0.61854(9) 0.70599(12)
C10_4 C 0.85403(8) 0.56687(7) 0.62076(10)
C11_4 C 0.88764(8) 0.60533(9) 0.68424(12)
H3_4 H 0.9100 0.6137 0.6980
C12_4 C 0.88724(8) 0.57965(8) 0.64212(11)
H4_4 H 0.9093 0.5708 0.6279
C13_4 C 0.69090(9) 0.90337(9) 0.85842(12)
H5_4 H 0.7126 0.9130 0.8729
C14_4 C 0.79272(11) 0.71933(10) 0.70318(13)
H6_4 H 0.7877 0.7318 0.6703
C15_4 C 0.82191(8) 0.58040(9) 0.64240(12)
H7_4 H 0.7995 0.5722 0.6286
C16_4 C 0.62782(9) 0.87405(9) 0.81535(12)
H8_4 H 0.6062 0.8641 0.8010
C17_4 C 0.82078(11) 0.69249(11) 0.70452(13)
H9_4 H 0.8350 0.6885 0.6730
C18_4 C 0.69914(11) 0.79143(11) 0.79683(14)
H10_4 H 0.6869 0.7969 0.8297
C19_4 C 0.82254(8) 0.60631(9) 0.68481(13)
H11_4 H 0.8005 0.6154 0.6990
C20_4 C 0.69245(10) 0.87827(10) 0.81610(13)
H12_4 H 0.7152 0.8713 0.8017
C21_4 C 0.65538(9) 0.94255(7) 0.92483(10)
C22_4 C 0.85362(8) 0.53950(7) 0.57552(11)
N1_4 N 0.85516(6) 0.64484(6) 0.7500
N2_4 N 0.66249(6) 0.83751(6) 0.7500
O1_6 O 0.74589(8) 0.99897(10) 1.0000
O2_4 O 0.68537(5) 0.95530(5) 0.94241(7)
O3_6 O 0.94400(8) 0.47833(10) 0.5000
O4_4 O 0.88314(5) 0.52682(5) 0.55789(7)
C23_4 C 0.73466(10) 0.77458(11) 0.70301(13)
H13_4 H 0.7465 0.7691 0.6698
C24_4 C 0.58538(7) 0.84245(8) 0.62012(11)
C25_4 C 0.63690(9) 0.83958(9) 0.70551(12)
C26_4 C 0.60021(9) 0.87419(9) 0.64223(12)
H14_4 H 0.5929 0.8970 0.6287
C27_4 C 0.88146(9) 0.64444(9) 0.79401(12)
C28_4 C 0.93313(7) 0.64597(8) 0.87924(10)
C29_4 C 0.89467(9) 0.61236(8) 0.81576(12)
H15_4 H 0.8863 0.5900 0.8020
C30_4 C 0.92035(8) 0.61276(8) 0.85788(11)
H16_4 H 0.9292 0.5907 0.8721
C31_4 C 0.59663(9) 0.80910(9) 0.64158(12)
H17_4 H 0.5870 0.7874 0.6271
C32_4 C 0.78067(10) 0.70728(11) 0.79682(13)
H18_4 H 0.7682 0.7123 0.8297
C33_4 C 0.91960(9) 0.67809(8) 0.85760(12)
H19_4 H 0.9278 0.7005 0.8714
C34_4 C 0.62595(9) 0.87218(9) 0.68465(12)
H20_4 H 0.6359 0.8938 0.6990
C35_4 C 0.80751(11) 0.67922(11) 0.79548(13)
H21_4 H 0.8115 0.6650 0.8270
C36_4 C 0.70857(11) 0.80086(11) 0.70317(14)
H22_4 H 0.7031 0.8131 0.6703
C37_4 C 0.89369(9) 0.67746(8) 0.81519(13)
H23_4 H 0.8846 0.6995 0.8010
C38_4 C 0.62173(10) 0.80755(10) 0.68390(13)
H24_4 H 0.6287 0.7848 0.6983
C39_4 C 0.55745(7) 0.84462(9) 0.57517(10)
C40_4 C 0.96050(7) 0.64638(8) 0.92448(11)
O7_4 O 0.54470(5) 0.81463(5) 0.55759(7)
O9_4 O 0.97318(5) 0.61686(5) 0.94211(7)
O10_4 O 0.88314(5) 0.52682(5) 0.44211(7)
O11_4 O 0.54816(5) 0.87560(5) 0.55798(7)
O12_4 O 0.87560(5) 0.45184(5) 0.44202(7)
O14_4 O 0.96956(5) 0.67803(5) 0.94231(7)
O15_5 O 0.03044(5) 0.32197(5) 0.05769(7)
H26_3 H 0.0178798 0.246729 0.0276075
H25_3 H 0.00657162 0.245671 0.962502
O1_7 O 0.99897(10) 0.25411(8) 0.0000
O8_5 O 0.95530(5) 0.31463(5) 0.05759(7)
O1_8 O 0.99897(10) 0.25411(8) 1.0000
O3_7 O 0.47833(10) 0.05600(8) 0.5000
O10_5 O 0.52682(5) 0.11686(5) 0.44211(7)
O12_5 O 0.45184(5) 0.12440(5) 0.44202(7)
O10_6 O 0.02682(5) 0.38314(5) 0.05789(7)
O1_9 O 0.49897(10) 0.24589(8) 0.5000
O8_6 O 0.45530(5) 0.18537(5) 0.44241(7)
O15_6 O 0.53044(5) 0.17803(5) 0.44231(7)
O3_8 O 0.97833(10) 0.44400(8) -0.0000
O12_6 O 0.95184(5) 0.37560(5) 0.05798(7)
H28_3 H 0.959102 0.449839 0.0279458
O3_9 O 0.97833(10) 0.44400(8) 1.0000
H27_3 H 0.969755 0.451731 0.962633
O3_10 O 0.02167(10) 0.55600(8) -0.0000
O12_7 O 0.04816(5) 0.62440(5) 0.05798(7)
H28_4 H 0.0408976 0.550161 0.0279458
O3_11 O 0.02167(10) 0.55600(8) 1.0000
H27_4 H 0.0302448 0.548269 0.962633
O10_7 O 0.97318(5) 0.61686(5) 0.05789(7)
O1_10 O 0.50103(10) 0.75411(8) 0.5000
O8_7 O 0.54470(5) 0.81463(5) 0.44241(7)
O15_7 O 0.46956(5) 0.82197(5) 0.44231(7)
O1_11 O 0.00103(10) 0.74589(8) 0.0000
O8_8 O 0.04470(5) 0.68537(5) 0.05759(7)
O1_12 O 0.00103(10) 0.74589(8) 1.0000
O3_12 O 0.52167(10) 0.94400(8) 0.5000
O10_8 O 0.47318(5) 0.88314(5) 0.44211(7)
O12_8 O 0.54816(5) 0.87560(5) 0.44202(7)
O15_8 O 0.96956(5) 0.67803(5) 0.05769(7)
H26_4 H 0.98212 0.753271 0.0276075
H25_4 H 0.993428 0.754329 0.962502
H27_5 H 0.451731 0.0302448 0.0373674
H28_5 H 0.449839 0.0408976 0.972054
C1_5 C 0.32727(7) 0.82727(7) 0.2500
C2_5 C 0.27303(7) 0.77303(7) 0.2500
C3_5 C 0.24457(7) 0.74457(7) 0.2500
C4_5 C 0.22542(11) 0.73466(10) 0.29699(13)
H1_5 H 0.2309 0.7465 0.3302
C5_5 C 0.15755(8) 0.58538(7) 0.37988(11)
C6_5 C 0.18998(7) 0.68998(7) 0.2500
C7_5 C 0.16042(9) 0.63690(9) 0.29449(12)
C8_5 C 0.12581(9) 0.60021(9) 0.35777(12)
H2_5 H 0.1030 0.5929 0.3713
C9_5 C 0.35556(9) 0.88146(9) 0.20599(12)
C10_5 C 0.35403(8) 0.93313(7) 0.12076(10)
C11_5 C 0.38764(8) 0.89467(9) 0.18424(12)
H3_5 H 0.4100 0.8863 0.1980
C12_5 C 0.38724(8) 0.92035(8) 0.14212(11)
H4_5 H 0.4093 0.9292 0.1279
C13_5 C 0.19090(9) 0.59663(9) 0.35842(12)
H5_5 H 0.2126 0.5870 0.3729
C14_5 C 0.29272(11) 0.78067(10) 0.20318(13)
H6_5 H 0.2877 0.7682 0.1703
C15_5 C 0.32191(8) 0.91960(9) 0.14240(12)
H7_5 H 0.2995 0.9278 0.1286
C16_5 C 0.12782(9) 0.62595(9) 0.31535(12)
H8_5 H 0.1062 0.6359 0.3010
C17_5 C 0.32078(11) 0.80751(11) 0.20452(13)
H9_5 H 0.3350 0.8115 0.1730
C18_5 C 0.19914(11) 0.70857(11) 0.29683(14)
H10_5 H 0.1869 0.7031 0.3297
C19_5 C 0.32254(8) 0.89369(9) 0.18481(13)
H11_5 H 0.3005 0.8846 0.1990
C20_5 C 0.19245(10) 0.62173(10) 0.31610(13)
H12_5 H 0.2152 0.6287 0.3017
C21_5 C 0.15538(9) 0.55745(7) 0.42483(10)
C22_5 C 0.35362(8) 0.96050(7) 0.07552(11)
N1_5 N 0.35516(6) 0.85516(6) 0.2500
N2_5 N 0.16249(6) 0.66249(6) 0.2500
C23_5 C 0.23466(10) 0.72542(11) 0.20301(13)
H13_5 H 0.2465 0.7309 0.1698
C24_5 C 0.08538(7) 0.65755(8) 0.12012(11)
C25_5 C 0.13690(9) 0.66042(9) 0.20551(12)
C26_5 C 0.10021(9) 0.62581(9) 0.14223(12)
H14_5 H 0.0929 0.6030 0.1287
C27_5 C 0.38146(9) 0.85556(9) 0.29401(12)
C28_5 C 0.43313(7) 0.85403(8) 0.37924(10)
C29_5 C 0.39467(9) 0.88764(8) 0.31576(12)
H15_5 H 0.3863 0.9100 0.3020
C30_5 C 0.42035(8) 0.88724(8) 0.35788(11)
H16_5 H 0.4292 0.9093 0.3721
C31_5 C 0.09663(9) 0.69090(9) 0.14158(12)
H17_5 H 0.0870 0.7126 0.1271
C32_5 C 0.28067(10) 0.79272(11) 0.29682(13)
H18_5 H 0.2682 0.7877 0.3297
C33_5 C 0.41960(9) 0.82191(8) 0.35760(12)
H19_5 H 0.4278 0.7995 0.3714
C34_5 C 0.12595(9) 0.62782(9) 0.18465(12)
H20_5 H 0.1359 0.6062 0.1990
C35_5 C 0.30751(11) 0.82078(11) 0.29548(13)
H21_5 H 0.3115 0.8350 0.3270
C36_5 C 0.20857(11) 0.69914(11) 0.20317(14)
H22_5 H 0.2031 0.6869 0.1703
C37_5 C 0.39369(9) 0.82254(8) 0.31519(13)
H23_5 H 0.3846 0.8005 0.3010
C38_5 C 0.12173(10) 0.69245(10) 0.18390(13)
H24_5 H 0.1287 0.7152 0.1983
C39_5 C 0.05745(7) 0.65538(9) 0.07517(10)
C40_5 C 0.46050(7) 0.85362(8) 0.42448(11)
H25_5 H 0.754329 0.00657162 0.0374976
H26_5 H 0.753271 0.0178798 0.972393
C1_6 C 0.82727(7) 0.67273(7) 0.2500
C2_6 C 0.77303(7) 0.72697(7) 0.2500
C3_6 C 0.74457(7) 0.75543(7) 0.2500
C4_6 C 0.72542(11) 0.76534(10) 0.20301(13)
H1_6 H 0.7309 0.7535 0.1698
C5_6 C 0.65755(8) 0.91462(7) 0.12012(11)
C6_6 C 0.68998(7) 0.81002(7) 0.2500
C7_6 C 0.66042(9) 0.86310(9) 0.20551(12)
C8_6 C 0.62581(9) 0.89979(9) 0.14223(12)
H2_6 H 0.6030 0.9071 0.1287
C9_6 C 0.85556(9) 0.61854(9) 0.29401(12)
C10_6 C 0.85403(8) 0.56687(7) 0.37924(10)
C11_6 C 0.88764(8) 0.60533(9) 0.31576(12)
H3_6 H 0.9100 0.6137 0.3020
C12_6 C 0.88724(8) 0.57965(8) 0.35788(11)
H4_6 H 0.9093 0.5708 0.3721
C13_6 C 0.69090(9) 0.90337(9) 0.14158(12)
H5_6 H 0.7126 0.9130 0.1271
C14_6 C 0.79272(11) 0.71933(10) 0.29682(13)
H6_6 H 0.7877 0.7318 0.3297
C15_6 C 0.82191(8) 0.58040(9) 0.35760(12)
H7_6 H 0.7995 0.5722 0.3714
C16_6 C 0.62782(9) 0.87405(9) 0.18465(12)
H8_6 H 0.6062 0.8641 0.1990
C17_6 C 0.82078(11) 0.69249(11) 0.29548(13)
H9_6 H 0.8350 0.6885 0.3270
C18_6 C 0.69914(11) 0.79143(11) 0.20317(14)
H10_6 H 0.6869 0.7969 0.1703
C19_6 C 0.82254(8) 0.60631(9) 0.31519(13)
H11_6 H 0.8005 0.6154 0.3010
C20_6 C 0.69245(10) 0.87827(10) 0.18390(13)
H12_6 H 0.7152 0.8713 0.1983
C21_6 C 0.65538(9) 0.94255(7) 0.07517(10)
C22_6 C 0.85362(8) 0.53950(7) 0.42448(11)
N1_6 N 0.85516(6) 0.64484(6) 0.2500
N2_6 N 0.66249(6) 0.83751(6) 0.2500
C23_6 C 0.73466(10) 0.77458(11) 0.29699(13)
H13_6 H 0.7465 0.7691 0.3302
C24_6 C 0.58538(7) 0.84245(8) 0.37988(11)
C25_6 C 0.63690(9) 0.83958(9) 0.29449(12)
C26_6 C 0.60021(9) 0.87419(9) 0.35777(12)
H14_6 H 0.5929 0.8970 0.3713
C27_6 C 0.88146(9) 0.64444(9) 0.20599(12)
C28_6 C 0.93313(7) 0.64597(8) 0.12076(10)
C29_6 C 0.89467(9) 0.61236(8) 0.18424(12)
H15_6 H 0.8863 0.5900 0.1980
C30_6 C 0.92035(8) 0.61276(8) 0.14212(11)
H16_6 H 0.9292 0.5907 0.1279
C31_6 C 0.59663(9) 0.80910(9) 0.35842(12)
H17_6 H 0.5870 0.7874 0.3729
C32_6 C 0.78067(10) 0.70728(11) 0.20318(13)
H18_6 H 0.7682 0.7123 0.1703
C33_6 C 0.91960(9) 0.67809(8) 0.14240(12)
H19_6 H 0.9278 0.7005 0.1286
C34_6 C 0.62595(9) 0.87218(9) 0.31535(12)
H20_6 H 0.6359 0.8938 0.3010
C35_6 C 0.80751(11) 0.67922(11) 0.20452(13)
H21_6 H 0.8115 0.6650 0.1730
C36_6 C 0.70857(11) 0.80086(11) 0.29683(14)
H22_6 H 0.7031 0.8131 0.3297
C37_6 C 0.89369(9) 0.67746(8) 0.18481(13)
H23_6 H 0.8846 0.6995 0.1990
C38_6 C 0.62173(10) 0.80755(10) 0.31610(13)
H24_6 H 0.6287 0.7848 0.3017
C39_6 C 0.55745(7) 0.84462(9) 0.42483(10)
C40_6 C 0.96050(7) 0.64638(8) 0.07552(11)
C1_7 C 0.67273(7) 0.17273(7) 0.2500
C2_7 C 0.72697(7) 0.22697(7) 0.2500
C3_7 C 0.75543(7) 0.25543(7) 0.2500
C4_7 C 0.77458(11) 0.26534(10) 0.29699(13)
H1_7 H 0.7691 0.2535 0.3302
C5_7 C 0.84245(8) 0.41462(7) 0.37988(11)
C6_7 C 0.81002(7) 0.31002(7) 0.2500
C7_7 C 0.83958(9) 0.36310(9) 0.29449(12)
C8_7 C 0.87419(9) 0.39979(9) 0.35777(12)
H2_7 H 0.8970 0.4071 0.3713
C9_7 C 0.64444(9) 0.11854(9) 0.20599(12)
C10_7 C 0.64597(8) 0.06687(7) 0.12076(10)
C11_7 C 0.61236(8) 0.10533(9) 0.18424(12)
H3_7 H 0.5900 0.1137 0.1980
C12_7 C 0.61276(8) 0.07965(8) 0.14212(11)
H4_7 H 0.5907 0.0708 0.1279
C13_7 C 0.80910(9) 0.40337(9) 0.35842(12)
H5_7 H 0.7874 0.4130 0.3729
C14_7 C 0.70728(11) 0.21933(10) 0.20318(13)
H6_7 H 0.7123 0.2318 0.1703
C15_7 C 0.67809(8) 0.08040(9) 0.14240(12)
H7_7 H 0.7005 0.0722 0.1286
C16_7 C 0.87218(9) 0.37405(9) 0.31535(12)
H8_7 H 0.8938 0.3641 0.3010
C17_7 C 0.67922(11) 0.19249(11) 0.20452(13)
H9_7 H 0.6650 0.1885 0.1730
C18_7 C 0.80086(11) 0.29143(11) 0.29683(14)
H10_7 H 0.8131 0.2969 0.3297
C19_7 C 0.67746(8) 0.10631(9) 0.18481(13)
H11_7 H 0.6995 0.1154 0.1990
C20_7 C 0.80755(10) 0.37827(10) 0.31610(13)
H12_7 H 0.7848 0.3713 0.3017
C21_7 C 0.84462(9) 0.44255(7) 0.42483(10)
C22_7 C 0.64638(8) 0.03950(7) 0.07552(11)
N1_7 N 0.64484(6) 0.14484(6) 0.2500
N2_7 N 0.83751(6) 0.33751(6) 0.2500
C23_7 C 0.76534(10) 0.27458(11) 0.20301(13)
H13_7 H 0.7535 0.2691 0.1698
C24_7 C 0.91462(7) 0.34245(8) 0.12012(11)
C25_7 C 0.86310(9) 0.33958(9) 0.20551(12)
C26_7 C 0.89979(9) 0.37419(9) 0.14223(12)
H14_7 H 0.9071 0.3970 0.1287
C27_7 C 0.61854(9) 0.14444(9) 0.29401(12)
C28_7 C 0.56687(7) 0.14597(8) 0.37924(10)
C29_7 C 0.60533(9) 0.11236(8) 0.31576(12)
H15_7 H 0.6137 0.0900 0.3020
C30_7 C 0.57965(8) 0.11276(8) 0.35788(11)
H16_7 H 0.5708 0.0907 0.3721
C31_7 C 0.90337(9) 0.30910(9) 0.14158(12)
H17_7 H 0.9130 0.2874 0.1271
C32_7 C 0.71933(10) 0.20728(11) 0.29682(13)
H18_7 H 0.7318 0.2123 0.3297
C33_7 C 0.58040(9) 0.17809(8) 0.35760(12)
H19_7 H 0.5722 0.2005 0.3714
C34_7 C 0.87405(9) 0.37218(9) 0.18465(12)
H20_7 H 0.8641 0.3938 0.1990
C35_7 C 0.69249(11) 0.17922(11) 0.29548(13)
H21_7 H 0.6885 0.1650 0.3270
C36_7 C 0.79143(11) 0.30086(11) 0.20317(14)
H22_7 H 0.7969 0.3131 0.1703
C37_7 C 0.60631(9) 0.17746(8) 0.31519(13)
H23_7 H 0.6154 0.1995 0.3010
C38_7 C 0.87827(10) 0.30755(10) 0.18390(13)
H24_7 H 0.8713 0.2848 0.1983
C39_7 C 0.94255(7) 0.34462(9) 0.07517(10)
C40_7 C 0.53950(7) 0.14638(8) 0.42448(11)
H27_6 H 0.548269 0.969755 0.0373674
H28_6 H 0.550161 0.959102 0.972054
C1_8 C 0.17273(7) 0.32727(7) 0.2500
C2_8 C 0.22697(7) 0.27303(7) 0.2500
C3_8 C 0.25543(7) 0.24457(7) 0.2500
C4_8 C 0.27458(11) 0.23466(10) 0.20301(13)
H1_8 H 0.2691 0.2465 0.1698
C5_8 C 0.34245(8) 0.08538(7) 0.12012(11)
C6_8 C 0.31002(7) 0.18998(7) 0.2500
C7_8 C 0.33958(9) 0.13690(9) 0.20551(12)
C8_8 C 0.37419(9) 0.10021(9) 0.14223(12)
H2_8 H 0.3970 0.0929 0.1287
C9_8 C 0.14444(9) 0.38146(9) 0.29401(12)
C10_8 C 0.14597(8) 0.43313(7) 0.37924(10)
C11_8 C 0.11236(8) 0.39467(9) 0.31576(12)
H3_8 H 0.0900 0.3863 0.3020
C12_8 C 0.11276(8) 0.42035(8) 0.35788(11)
H4_8 H 0.0907 0.4292 0.3721
C13_8 C 0.30910(9) 0.09663(9) 0.14158(12)
H5_8 H 0.2874 0.0870 0.1271
C14_8 C 0.20728(11) 0.28067(10) 0.29682(13)
H6_8 H 0.2123 0.2682 0.3297
C15_8 C 0.17809(8) 0.41960(9) 0.35760(12)
H7_8 H 0.2005 0.4278 0.3714
C16_8 C 0.37218(9) 0.12595(9) 0.18465(12)
H8_8 H 0.3938 0.1359 0.1990
C17_8 C 0.17922(11) 0.30751(11) 0.29548(13)
H9_8 H 0.1650 0.3115 0.3270
C18_8 C 0.30086(11) 0.20857(11) 0.20317(14)
H10_8 H 0.3131 0.2031 0.1703
C19_8 C 0.17746(8) 0.39369(9) 0.31519(13)
H11_8 H 0.1995 0.3846 0.3010
C20_8 C 0.30755(10) 0.12173(10) 0.18390(13)
H12_8 H 0.2848 0.1287 0.1983
C21_8 C 0.34462(9) 0.05745(7) 0.07517(10)
C22_8 C 0.14638(8) 0.46050(7) 0.42448(11)
N1_8 N 0.14484(6) 0.35516(6) 0.2500
N2_8 N 0.33751(6) 0.16249(6) 0.2500
C23_8 C 0.26534(10) 0.22542(11) 0.29699(13)
H13_8 H 0.2535 0.2309 0.3302
C24_8 C 0.41462(7) 0.15755(8) 0.37988(11)
C25_8 C 0.36310(9) 0.16042(9) 0.29449(12)
C26_8 C 0.39979(9) 0.12581(9) 0.35777(12)
H14_8 H 0.4071 0.1030 0.3713
C27_8 C 0.11854(9) 0.35556(9) 0.20599(12)
C28_8 C 0.06687(7) 0.35403(8) 0.12076(10)
C29_8 C 0.10533(9) 0.38764(8) 0.18424(12)
H15_8 H 0.1137 0.4100 0.1980
C30_8 C 0.07965(8) 0.38724(8) 0.14212(11)
H16_8 H 0.0708 0.4093 0.1279
C31_8 C 0.40337(9) 0.19090(9) 0.35842(12)
H17_8 H 0.4130 0.2126 0.3729
C32_8 C 0.21933(10) 0.29272(11) 0.20318(13)
H18_8 H 0.2318 0.2877 0.1703
C33_8 C 0.08040(9) 0.32191(8) 0.14240(12)
H19_8 H 0.0722 0.2995 0.1286
C34_8 C 0.37405(9) 0.12782(9) 0.31535(12)
H20_8 H 0.3641 0.1062 0.3010
C35_8 C 0.19249(11) 0.32078(11) 0.20452(13)
H21_8 H 0.1885 0.3350 0.1730
C36_8 C 0.29143(11) 0.19914(11) 0.29683(14)
H22_8 H 0.2969 0.1869 0.3297
C37_8 C 0.10631(9) 0.32254(8) 0.18481(13)
H23_8 H 0.1154 0.3005 0.1990
C38_8 C 0.37827(10) 0.19245(10) 0.31610(13)
H24_8 H 0.3713 0.2152 0.3017
C39_8 C 0.44255(7) 0.15538(9) 0.42483(10)
C40_8 C 0.03950(7) 0.35362(8) 0.07552(11)
H25_6 H 0.245671 0.993428 0.0374976
H26_6 H 0.246729 0.98212 0.972393
H25_7 H 0.993428 0.754329 0.0374976
H26_7 H 0.98212 0.753271 0.972393
H27_7 H 0.0302448 0.548269 0.0373674
H28_7 H 0.0408976 0.550161 0.972054
H27_8 H 0.969755 0.451731 0.0373674
H28_8 H 0.959102 0.449839 0.972054
H25_8 H 0.00657162 0.245671 0.0374976
H26_8 H 0.0178798 0.246729 0.972393
loop_
_geom_bond_atom_site_label_1
_geom_bond_atom_site_label_2
_geom_bond_site_symmetry_1
_geom_bond_site_symmetry_2
C1 C17 1_555 1_555
C2 C3 1_555 1_555
C3 C4 1_555 1_555
C4 H1 1_555 1_555
C5 C8 1_555 1_555
C6 C18 1_555 1_555
C7 C16 1_555 1_555
C8 H2 1_555 1_555
C9 C11 1_555 1_555
C10 C12 1_555 1_555
C11 H3 1_555 1_555
C12 C11 1_555 1_555
H4 C12 1_555 1_555
C13 C5 1_555 1_555
H5 C13 1_555 1_555
C14 C2 1_555 1_555
H6 C14 1_555 1_555
C15 C10 1_555 1_555
H7 C15 1_555 1_555
C16 C8 1_555 1_555
H8 C16 1_555 1_555
C17 C14 1_555 1_555
H9 C17 1_555 1_555
C18 C4 1_555 1_555
H10 C18 1_555 1_555
C19 C9 1_555 1_555
H11 C19 1_555 1_555
C20 C7 1_555 1_555
H12 C20 1_555 1_555
C21 C5 1_555 1_555
C22 C10 1_555 1_555
N1 C1 1_555 1_555
N2 C6 1_555 1_555
Cu1 O1 1_555 1_555
O2 C21 1_555 1_555
O4 C22 1_555 1_555
O5 C21 1_555 1_555
O6 C22 1_555 1_555
C23 C3 1_555 1_555
H13 C23 1_555 1_555
C24 C26 1_555 1_555
C25 N2 1_555 1_555
C26 H14 1_555 1_555
C27 N1 1_555 1_555
C28 C30 1_555 1_555
C29 C27 1_555 1_555
H15 C29 1_555 1_555
C30 C29 1_555 1_555
H16 C30 1_555 1_555
C31 C24 1_555 1_555
H17 C31 1_555 1_555
C32 C2 1_555 1_555
H18 C32 1_555 1_555
C33 C28 1_555 1_555
H19 C33 1_555 1_555
C34 C25 1_555 1_555
H20 C34 1_555 1_555
C35 C1 1_555 1_555
H21 C35 1_555 1_555
C36 C6 1_555 1_555
H22 C36 1_555 1_555
C37 C27 1_555 1_555
H23 C37 1_555 1_555
C38 C25 1_555 1_555
H24 C38 1_555 1_555
C39 C24 1_555 1_555
C40 C28 1_555 1_555
Cu4_2 O7 1_555 1_555
Cu5 O14 1_555 1_555
Cu6 O5 1_555 1_555
Cu7_2 O11 1_555 1_555
Cu8 O9 1_555 1_555
O7 C39 1_555 1_555
O8 Cu1 1_555 1_555
O9 C40 1_555 1_555
O11 C39 1_555 1_555
O14 C40 1_555 1_555
O15 Cu1 1_555 1_555
O16 Cu1 1_555 1_555
C7 N2 1_555 1_555
C9 N1 1_555 1_555
C13 C20 1_555 1_555
C15 C19 1_555 1_555
Cu1 O2 1_555 1_555
C23 C36 1_555 1_555
C26 C34 1_555 1_555
C31 C38 1_555 1_555
C32 C35 1_555 1_555
C33 C37 1_555 1_555
Cu2 O3 1_555 1_555
O12 Cu2 1_555 1_555
O3 H28 1_555 1_555
Cu2_2 O3_2 1_555 1_555
O13 Cu2_2 1_555 1_555
O3_2 H27 1_555 1_555
Cu1_2 O1_2 1_555 1_555
O8_2 Cu1_2 1_555 1_555
C1_2 C17_2 1_555 1_555
C2_2 C3_2 1_555 1_555
C3_2 C4_2 1_555 1_555
C4_2 H1_2 1_555 1_555
C5_2 C8_2 1_555 1_555
C6_2 C18_2 1_555 1_555
C7_2 C16_2 1_555 1_555
C8_2 H2_2 1_555 1_555
C9_2 C11_2 1_555 1_555
C10_2 C12_2 1_555 1_555
C11_2 H3_2 1_555 1_555
C12_2 C11_2 1_555 1_555
H4_2 C12_2 1_555 1_555
C13_2 C5_2 1_555 1_555
H5_2 C13_2 1_555 1_555
C14_2 C2_2 1_555 1_555
H6_2 C14_2 1_555 1_555
C15_2 C10_2 1_555 1_555
H7_2 C15_2 1_555 1_555
C16_2 C8_2 1_555 1_555
H8_2 C16_2 1_555 1_555
C17_2 C14_2 1_555 1_555
H9_2 C17_2 1_555 1_555
C18_2 C4_2 1_555 1_555
H10_2 C18_2 1_555 1_555
C19_2 C9_2 1_555 1_555
H11_2 C19_2 1_555 1_555
C20_2 C7_2 1_555 1_555
H12_2 C20_2 1_555 1_555
C21_2 C5_2 1_555 1_555
C22_2 C10_2 1_555 1_555
N1_2 C1_2 1_555 1_555
N2_2 C6_2 1_555 1_555
Cu1_3 O1_3 1_555 1_555
Cu2_3 O3_3 1_555 1_555
O2_2 C21_2 1_555 1_555
O4_2 C22_2 1_555 1_555
O5_2 C21_2 1_555 1_555
O6_2 C22_2 1_555 1_555
C23_2 C3_2 1_555 1_555
H13_2 C23_2 1_555 1_555
C24_2 C26_2 1_555 1_555
C25_2 N2_2 1_555 1_555
C26_2 H14_2 1_555 1_555
C27_2 N1_2 1_555 1_555
C28_2 C30_2 1_555 1_555
C29_2 C27_2 1_555 1_555
H15_2 C29_2 1_555 1_555
C30_2 C29_2 1_555 1_555
H16_2 C30_2 1_555 1_555
C31_2 C24_2 1_555 1_555
H17_2 C31_2 1_555 1_555
C32_2 C2_2 1_555 1_555
H18_2 C32_2 1_555 1_555
C33_2 C28_2 1_555 1_555
H19_2 C33_2 1_555 1_555
C34_2 C25_2 1_555 1_555
H20_2 C34_2 1_555 1_555
C35_2 C1_2 1_555 1_555
H21_2 C35_2 1_555 1_555
C36_2 C6_2 1_555 1_555
H22_2 C36_2 1_555 1_555
C37_2 C27_2 1_555 1_555
H23_2 C37_2 1_555 1_555
C38_2 C25_2 1_555 1_555
H24_2 C38_2 1_555 1_555
C39_2 C24_2 1_555 1_555
C40_2 C28_2 1_555 1_555
Cu3_3 O6_2 1_555 1_555
Cu5 O7_2 1_555 1_555
Cu6_3 O5_2 1_555 1_555
Cu8 O11_2 1_555 1_555
O7_2 C39_2 1_555 1_555
O9_2 C40_2 1_555 1_555
O10_2 Cu2_3 1_555 1_555
O11_2 C39_2 1_555 1_555
O12_2 Cu2_3 1_555 1_555
O13_2 Cu2_3 1_555 1_555
O14_2 C40_2 1_555 1_555
C7_2 N2_2 1_555 1_555
C9_2 N1_2 1_555 1_555
C13_2 C20_2 1_555 1_555
C15_2 C19_2 1_555 1_555
Cu1_3 O2_2 1_555 1_555
Cu2_3 O4_2 1_555 1_555
C23_2 C36_2 1_555 1_555
C26_2 C34_2 1_555 1_555
C31_2 C38_2 1_555 1_555
C32_2 C35_2 1_555 1_555
C33_2 C37_2 1_555 1_555
Cu6_2 O3_4 1_555 1_555
O12_3 Cu6_2 1_555 1_555
O3_4 H28_2 1_555 1_555
Cu6_3 O3_5 1_555 1_555
O3_5 H27_2 1_555 1_555
C1_3 C17_3 1_555 1_555
C2_3 C3_3 1_555 1_555
C3_3 C4_3 1_555 1_555
C4_3 H1_3 1_555 1_555
C5_3 C8_3 1_555 1_555
C6_3 C18_3 1_555 1_555
C7_3 C16_3 1_555 1_555
C8_3 H2_3 1_555 1_555
C9_3 C11_3 1_555 1_555
C10_3 C12_3 1_555 1_555
C11_3 H3_3 1_555 1_555
C12_3 C11_3 1_555 1_555
H4_3 C12_3 1_555 1_555
C13_3 C5_3 1_555 1_555
H5_3 C13_3 1_555 1_555
C14_3 C2_3 1_555 1_555
H6_3 C14_3 1_555 1_555
C15_3 C10_3 1_555 1_555
H7_3 C15_3 1_555 1_555
C16_3 C8_3 1_555 1_555
H8_3 C16_3 1_555 1_555
C17_3 C14_3 1_555 1_555
H9_3 C17_3 1_555 1_555
C18_3 C4_3 1_555 1_555
H10_3 C18_3 1_555 1_555
C19_3 C9_3 1_555 1_555
H11_3 C19_3 1_555 1_555
C20_3 C7_3 1_555 1_555
H12_3 C20_3 1_555 1_555
C21_3 C5_3 1_555 1_555
C22_3 C10_3 1_555 1_555
N1_3 C1_3 1_555 1_555
N2_3 C6_3 1_555 1_555
Cu3_3 O1_4 1_555 1_555
O2_3 C21_3 1_555 1_555
O4_3 C22_3 1_555 1_555
O13_2 C21_3 1_555 1_555
O16_2 C22_3 1_555 1_555
C23_3 C3_3 1_555 1_555
H13_3 C23_3 1_555 1_555
C24_3 C26_3 1_555 1_555
C25_3 N2_3 1_555 1_555
C26_3 H14_3 1_555 1_555
C27_3 N1_3 1_555 1_555
C28_3 C30_3 1_555 1_555
C29_3 C27_3 1_555 1_555
H15_3 C29_3 1_555 1_555
C30_3 C29_3 1_555 1_555
H16_3 C30_3 1_555 1_555
C31_3 C24_3 1_555 1_555
H17_3 C31_3 1_555 1_555
C32_3 C2_3 1_555 1_555
H18_3 C32_3 1_555 1_555
C33_3 C28_3 1_555 1_555
H19_3 C33_3 1_555 1_555
C34_3 C25_3 1_555 1_555
H20_3 C34_3 1_555 1_555
C35_3 C1_3 1_555 1_555
H21_3 C35_3 1_555 1_555
C36_3 C6_3 1_555 1_555
H22_3 C36_3 1_555 1_555
C37_3 C27_3 1_555 1_555
H23_3 C37_3 1_555 1_555
C38_3 C25_3 1_555 1_555
H24_3 C38_3 1_555 1_555
C39_3 C24_3 1_555 1_555
C40_3 C28_3 1_555 1_555
Cu4_4 O7_3 1_555 1_555
Cu5_2 O14_3 1_555 1_555
Cu7_4 O11_3 1_555 1_555
Cu8_2 O9_3 1_555 1_555
O7_3 C39_3 1_555 1_555
O8_3 Cu3_3 1_555 1_555
O9_3 C40_3 1_555 1_555
O11_3 C39_3 1_555 1_555
O14_3 C40_3 1_555 1_555
O15_3 Cu3_3 1_555 1_555
C7_3 N2_3 1_555 1_555
C9_3 N1_3 1_555 1_555
C13_3 C20_3 1_555 1_555
C15_3 C19_3 1_555 1_555
Cu3_3 O2_3 1_555 1_555
C23_3 C36_3 1_555 1_555
C26_3 C34_3 1_555 1_555
C31_3 C38_3 1_555 1_555
C32_3 C35_3 1_555 1_555
C33_3 C37_3 1_555 1_555
Cu3 O1_5 1_555 1_555
O8_4 Cu3 1_555 1_555
C1_4 C17_4 1_555 1_555
C2_4 C3_4 1_555 1_555
C3_4 C4_4 1_555 1_555
C4_4 H1_4 1_555 1_555
C5_4 C8_4 1_555 1_555
C6_4 C18_4 1_555 1_555
C7_4 C16_4 1_555 1_555
C8_4 H2_4 1_555 1_555
C9_4 C11_4 1_555 1_555
C10_4 C12_4 1_555 1_555
C11_4 H3_4 1_555 1_555
C12_4 C11_4 1_555 1_555
H4_4 C12_4 1_555 1_555
C13_4 C5_4 1_555 1_555
H5_4 C13_4 1_555 1_555
C14_4 C2_4 1_555 1_555
H6_4 C14_4 1_555 1_555
C15_4 C10_4 1_555 1_555
H7_4 C15_4 1_555 1_555
C16_4 C8_4 1_555 1_555
H8_4 C16_4 1_555 1_555
C17_4 C14_4 1_555 1_555
H9_4 C17_4 1_555 1_555
C18_4 C4_4 1_555 1_555
H10_4 C18_4 1_555 1_555
C19_4 C9_4 1_555 1_555
H11_4 C19_4 1_555 1_555
C20_4 C7_4 1_555 1_555
H12_4 C20_4 1_555 1_555
C21_4 C5_4 1_555 1_555
C22_4 C10_4 1_555 1_555
N1_4 C1_4 1_555 1_555
N2_4 C6_4 1_555 1_555
Cu3_2 O1_6 1_555 1_555
Cu6 O3_6 1_555 1_555
O2_4 C21_4 1_555 1_555
O4_4 C22_4 1_555 1_555
O13 C21_4 1_555 1_555
O16 C22_4 1_555 1_555
C23_4 C3_4 1_555 1_555
H13_4 C23_4 1_555 1_555
C24_4 C26_4 1_555 1_555
C25_4 N2_4 1_555 1_555
C26_4 H14_4 1_555 1_555
C27_4 N1_4 1_555 1_555
C28_4 C30_4 1_555 1_555
C29_4 C27_4 1_555 1_555
H15_4 C29_4 1_555 1_555
C30_4 C29_4 1_555 1_555
H16_4 C30_4 1_555 1_555
C31_4 C24_4 1_555 1_555
H17_4 C31_4 1_555 1_555
C32_4 C2_4 1_555 1_555
H18_4 C32_4 1_555 1_555
C33_4 C28_4 1_555 1_555
H19_4 C33_4 1_555 1_555
C34_4 C25_4 1_555 1_555
H20_4 C34_4 1_555 1_555
C35_4 C1_4 1_555 1_555
H21_4 C35_4 1_555 1_555
C36_4 C6_4 1_555 1_555
H22_4 C36_4 1_555 1_555
C37_4 C27_4 1_555 1_555
H23_4 C37_4 1_555 1_555
C38_4 C25_4 1_555 1_555
H24_4 C38_4 1_555 1_555
C39_4 C24_4 1_555 1_555
C40_4 C28_4 1_555 1_555
Cu5_2 O7_4 1_555 1_555
Cu8_2 O11_4 1_555 1_555
O7_4 C39_4 1_555 1_555
O9_4 C40_4 1_555 1_555
O10_4 Cu6 1_555 1_555
O11_4 C39_4 1_555 1_555
O12_4 Cu6 1_555 1_555
O14_4 C40_4 1_555 1_555
C7_4 N2_4 1_555 1_555
C9_4 N1_4 1_555 1_555
C13_4 C20_4 1_555 1_555
C15_4 C19_4 1_555 1_555
Cu3_2 O2_4 1_555 1_555
Cu6 O4_4 1_555 1_555
C23_4 C36_4 1_555 1_555
C26_4 C34_4 1_555 1_555
C31_4 C38_4 1_555 1_555
C32_4 C35_4 1_555 1_555
C33_4 C37_4 1_555 1_555
Cu4 O1_7 1_555 1_555
O8_5 Cu4 1_555 1_555
Cu4_2 O1_8 1_555 1_555
Cu8 O3_7 1_555 1_555
O10_5 Cu8 1_555 1_555
O12_5 Cu8 1_555 1_555
Cu5 O1_9 1_555 1_555
O8_6 Cu5 1_555 1_555
O15_6 Cu5 1_555 1_555
Cu7 O3_8 1_555 1_555
O12_6 Cu7 1_555 1_555
O3_8 H28_3 1_555 1_555
Cu7_2 O3_9 1_555 1_555
O3_9 H27_3 1_555 1_555
Cu7_3 O3_10 1_555 1_555
O12_7 Cu7_3 1_555 1_555
O3_10 H28_4 1_555 1_555
Cu7_4 O3_11 1_555 1_555
O3_11 H27_4 1_555 1_555
Cu5_2 O1_10 1_555 1_555
O8_7 Cu5_2 1_555 1_555
O15_7 Cu5_2 1_555 1_555
Cu4_3 O1_11 1_555 1_555
O8_8 Cu4_3 1_555 1_555
Cu4_4 O1_12 1_555 1_555
Cu8_2 O3_12 1_555 1_555
O10_8 Cu8_2 1_555 1_555
O12_8 Cu8_2 1_555 1_555
O3_4 H27_5 1_555 1_555
O3_5 H28_5 1_555 1_555
C1_5 C17_5 1_555 1_555
C2_5 C3_5 1_555 1_555
C3_5 C4_5 1_555 1_555
C4_5 H1_5 1_555 1_555
C5_5 C8_5 1_555 1_555
C6_5 C18_5 1_555 1_555
C7_5 C16_5 1_555 1_555
C8_5 H2_5 1_555 1_555
C9_5 C11_5 1_555 1_555
C10_5 C12_5 1_555 1_555
C11_5 H3_5 1_555 1_555
C12_5 C11_5 1_555 1_555
H4_5 C12_5 1_555 1_555
C13_5 C5_5 1_555 1_555
H5_5 C13_5 1_555 1_555
C14_5 C2_5 1_555 1_555
H6_5 C14_5 1_555 1_555
C15_5 C10_5 1_555 1_555
H7_5 C15_5 1_555 1_555
C16_5 C8_5 1_555 1_555
H8_5 C16_5 1_555 1_555
C17_5 C14_5 1_555 1_555
H9_5 C17_5 1_555 1_555
C18_5 C4_5 1_555 1_555
H10_5 C18_5 1_555 1_555
C19_5 C9_5 1_555 1_555
H11_5 C19_5 1_555 1_555
C20_5 C7_5 1_555 1_555
H12_5 C20_5 1_555 1_555
C21_5 C5_5 1_555 1_555
C22_5 C10_5 1_555 1_555
N1_5 C1_5 1_555 1_555
N2_5 C6_5 1_555 1_555
O8_3 C21_5 1_555 1_555
O10_3 C22_5 1_555 1_555
O12_2 C21_5 1_555 1_555
O15_2 C22_5 1_555 1_555
C23_5 C3_5 1_555 1_555
H13_5 C23_5 1_555 1_555
C24_5 C26_5 1_555 1_555
C25_5 N2_5 1_555 1_555
C26_5 H14_5 1_555 1_555
C27_5 N1_5 1_555 1_555
C28_5 C30_5 1_555 1_555
C29_5 C27_5 1_555 1_555
H15_5 C29_5 1_555 1_555
C30_5 C29_5 1_555 1_555
H16_5 C30_5 1_555 1_555
C31_5 C24_5 1_555 1_555
H17_5 C31_5 1_555 1_555
C32_5 C2_5 1_555 1_555
H18_5 C32_5 1_555 1_555
C33_5 C28_5 1_555 1_555
H19_5 C33_5 1_555 1_555
C34_5 C25_5 1_555 1_555
H20_5 C34_5 1_555 1_555
C35_5 C1_5 1_555 1_555
H21_5 C35_5 1_555 1_555
C36_5 C6_5 1_555 1_555
H22_5 C36_5 1_555 1_555
C37_5 C27_5 1_555 1_555
H23_5 C37_5 1_555 1_555
C38_5 C25_5 1_555 1_555
H24_5 C38_5 1_555 1_555
C39_5 C24_5 1_555 1_555
C40_5 C28_5 1_555 1_555
O8_8 C39_5 1_555 1_555
O10_8 C40_5 1_555 1_555
O12_7 C39_5 1_555 1_555
O15_7 C40_5 1_555 1_555
C7_5 N2_5 1_555 1_555
C9_5 N1_5 1_555 1_555
C13_5 C20_5 1_555 1_555
C15_5 C19_5 1_555 1_555
C23_5 C36_5 1_555 1_555
C26_5 C34_5 1_555 1_555
C31_5 C38_5 1_555 1_555
C32_5 C35_5 1_555 1_555
C33_5 C37_5 1_555 1_555
C1_6 C17_6 1_555 1_555
C2_6 C3_6 1_555 1_555
C3_6 C4_6 1_555 1_555
C4_6 H1_6 1_555 1_555
C5_6 C8_6 1_555 1_555
C6_6 C18_6 1_555 1_555
C7_6 C16_6 1_555 1_555
C8_6 H2_6 1_555 1_555
C9_6 C11_6 1_555 1_555
C10_6 C12_6 1_555 1_555
C11_6 H3_6 1_555 1_555
C12_6 C11_6 1_555 1_555
H4_6 C12_6 1_555 1_555
C13_6 C5_6 1_555 1_555
H5_6 C13_6 1_555 1_555
C14_6 C2_6 1_555 1_555
H6_6 C14_6 1_555 1_555
C15_6 C10_6 1_555 1_555
H7_6 C15_6 1_555 1_555
C16_6 C8_6 1_555 1_555
H8_6 C16_6 1_555 1_555
C17_6 C14_6 1_555 1_555
H9_6 C17_6 1_555 1_555
C18_6 C4_6 1_555 1_555
H10_6 C18_6 1_555 1_555
C19_6 C9_6 1_555 1_555
H11_6 C19_6 1_555 1_555
C20_6 C7_6 1_555 1_555
H12_6 C20_6 1_555 1_555
C21_6 C5_6 1_555 1_555
C22_6 C10_6 1_555 1_555
N1_6 C1_6 1_555 1_555
N2_6 C6_6 1_555 1_555
O8_4 C21_6 1_555 1_555
O10_4 C22_6 1_555 1_555
O12 C21_6 1_555 1_555
O15 C22_6 1_555 1_555
C23_6 C3_6 1_555 1_555
H13_6 C23_6 1_555 1_555
C24_6 C26_6 1_555 1_555
C25_6 N2_6 1_555 1_555
C26_6 H14_6 1_555 1_555
C27_6 N1_6 1_555 1_555
C28_6 C30_6 1_555 1_555
C29_6 C27_6 1_555 1_555
H15_6 C29_6 1_555 1_555
C30_6 C29_6 1_555 1_555
H16_6 C30_6 1_555 1_555
C31_6 C24_6 1_555 1_555
H17_6 C31_6 1_555 1_555
C32_6 C2_6 1_555 1_555
H18_6 C32_6 1_555 1_555
C33_6 C28_6 1_555 1_555
H19_6 C33_6 1_555 1_555
C34_6 C25_6 1_555 1_555
H20_6 C34_6 1_555 1_555
C35_6 C1_6 1_555 1_555
H21_6 C35_6 1_555 1_555
C36_6 C6_6 1_555 1_555
H22_6 C36_6 1_555 1_555
C37_6 C27_6 1_555 1_555
H23_6 C37_6 1_555 1_555
C38_6 C25_6 1_555 1_555
H24_6 C38_6 1_555 1_555
C39_6 C24_6 1_555 1_555
C40_6 C28_6 1_555 1_555
O8_7 C39_6 1_555 1_555
O10_7 C40_6 1_555 1_555
O12_8 C39_6 1_555 1_555
O15_8 C40_6 1_555 1_555
C7_6 N2_6 1_555 1_555
C9_6 N1_6 1_555 1_555
C13_6 C20_6 1_555 1_555
C15_6 C19_6 1_555 1_555
C23_6 C36_6 1_555 1_555
C26_6 C34_6 1_555 1_555
C31_6 C38_6 1_555 1_555
C32_6 C35_6 1_555 1_555
C33_6 C37_6 1_555 1_555
C1_7 C17_7 1_555 1_555
C2_7 C3_7 1_555 1_555
C3_7 C4_7 1_555 1_555
C4_7 H1_7 1_555 1_555
C5_7 C8_7 1_555 1_555
C6_7 C18_7 1_555 1_555
C7_7 C16_7 1_555 1_555
C8_7 H2_7 1_555 1_555
C9_7 C11_7 1_555 1_555
C10_7 C12_7 1_555 1_555
C11_7 H3_7 1_555 1_555
C12_7 C11_7 1_555 1_555
H4_7 C12_7 1_555 1_555
C13_7 C5_7 1_555 1_555
H5_7 C13_7 1_555 1_555
C14_7 C2_7 1_555 1_555
H6_7 C14_7 1_555 1_555
C15_7 C10_7 1_555 1_555
H7_7 C15_7 1_555 1_555
C16_7 C8_7 1_555 1_555
H8_7 C16_7 1_555 1_555
C17_7 C14_7 1_555 1_555
H9_7 C17_7 1_555 1_555
C18_7 C4_7 1_555 1_555
H10_7 C18_7 1_555 1_555
C19_7 C9_7 1_555 1_555
H11_7 C19_7 1_555 1_555
C20_7 C7_7 1_555 1_555
H12_7 C20_7 1_555 1_555
C21_7 C5_7 1_555 1_555
C22_7 C10_7 1_555 1_555
N1_7 C1_7 1_555 1_555
N2_7 C6_7 1_555 1_555
O8 C21_7 1_555 1_555
O10 C22_7 1_555 1_555
O12_4 C21_7 1_555 1_555
O15_4 C22_7 1_555 1_555
C23_7 C3_7 1_555 1_555
H13_7 C23_7 1_555 1_555
C24_7 C26_7 1_555 1_555
C25_7 N2_7 1_555 1_555
C26_7 H14_7 1_555 1_555
C27_7 N1_7 1_555 1_555
C28_7 C30_7 1_555 1_555
C29_7 C27_7 1_555 1_555
H15_7 C29_7 1_555 1_555
C30_7 C29_7 1_555 1_555
H16_7 C30_7 1_555 1_555
C31_7 C24_7 1_555 1_555
H17_7 C31_7 1_555 1_555
C32_7 C2_7 1_555 1_555
H18_7 C32_7 1_555 1_555
C33_7 C28_7 1_555 1_555
H19_7 C33_7 1_555 1_555
C34_7 C25_7 1_555 1_555
H20_7 C34_7 1_555 1_555
C35_7 C1_7 1_555 1_555
H21_7 C35_7 1_555 1_555
C36_7 C6_7 1_555 1_555
H22_7 C36_7 1_555 1_555
C37_7 C27_7 1_555 1_555
H23_7 C37_7 1_555 1_555
C38_7 C25_7 1_555 1_555
H24_7 C38_7 1_555 1_555
C39_7 C24_7 1_555 1_555
C40_7 C28_7 1_555 1_555
O8_5 C39_7 1_555 1_555
O10_5 C40_7 1_555 1_555
O12_6 C39_7 1_555 1_555
O15_6 C40_7 1_555 1_555
C7_7 N2_7 1_555 1_555
C9_7 N1_7 1_555 1_555
C13_7 C20_7 1_555 1_555
C15_7 C19_7 1_555 1_555
C23_7 C36_7 1_555 1_555
C26_7 C34_7 1_555 1_555
C31_7 C38_7 1_555 1_555
C32_7 C35_7 1_555 1_555
C33_7 C37_7 1_555 1_555
O3 H27_6 1_555 1_555
O3_2 H28_6 1_555 1_555
C1_8 C17_8 1_555 1_555
C2_8 C3_8 1_555 1_555
C3_8 C4_8 1_555 1_555
C4_8 H1_8 1_555 1_555
C5_8 C8_8 1_555 1_555
C6_8 C18_8 1_555 1_555
C7_8 C16_8 1_555 1_555
C8_8 H2_8 1_555 1_555
C9_8 C11_8 1_555 1_555
C10_8 C12_8 1_555 1_555
C11_8 H3_8 1_555 1_555
C12_8 C11_8 1_555 1_555
H4_8 C12_8 1_555 1_555
C13_8 C5_8 1_555 1_555
H5_8 C13_8 1_555 1_555
C14_8 C2_8 1_555 1_555
H6_8 C14_8 1_555 1_555
C15_8 C10_8 1_555 1_555
H7_8 C15_8 1_555 1_555
C16_8 C8_8 1_555 1_555
H8_8 C16_8 1_555 1_555
C17_8 C14_8 1_555 1_555
H9_8 C17_8 1_555 1_555
C18_8 C4_8 1_555 1_555
H10_8 C18_8 1_555 1_555
C19_8 C9_8 1_555 1_555
H11_8 C19_8 1_555 1_555
C20_8 C7_8 1_555 1_555
H12_8 C20_8 1_555 1_555
C21_8 C5_8 1_555 1_555
C22_8 C10_8 1_555 1_555
N1_8 C1_8 1_555 1_555
N2_8 C6_8 1_555 1_555
O8_2 C21_8 1_555 1_555
O10_2 C22_8 1_555 1_555
O12_3 C21_8 1_555 1_555
O15_3 C22_8 1_555 1_555
C23_8 C3_8 1_555 1_555
H13_8 C23_8 1_555 1_555
C24_8 C26_8 1_555 1_555
C25_8 N2_8 1_555 1_555
C26_8 H14_8 1_555 1_555
C27_8 N1_8 1_555 1_555
C28_8 C30_8 1_555 1_555
C29_8 C27_8 1_555 1_555
H15_8 C29_8 1_555 1_555
C30_8 C29_8 1_555 1_555
H16_8 C30_8 1_555 1_555
C31_8 C24_8 1_555 1_555
H17_8 C31_8 1_555 1_555
C32_8 C2_8 1_555 1_555
H18_8 C32_8 1_555 1_555
C33_8 C28_8 1_555 1_555
H19_8 C33_8 1_555 1_555
C34_8 C25_8 1_555 1_555
H20_8 C34_8 1_555 1_555
C35_8 C1_8 1_555 1_555
H21_8 C35_8 1_555 1_555
C36_8 C6_8 1_555 1_555
H22_8 C36_8 1_555 1_555
C37_8 C27_8 1_555 1_555
H23_8 C37_8 1_555 1_555
C38_8 C25_8 1_555 1_555
H24_8 C38_8 1_555 1_555
C39_8 C24_8 1_555 1_555
C40_8 C28_8 1_555 1_555
O8_6 C39_8 1_555 1_555
O10_6 C40_8 1_555 1_555
O12_5 C39_8 1_555 1_555
O15_5 C40_8 1_555 1_555
C7_8 N2_8 1_555 1_555
C9_8 N1_8 1_555 1_555
C13_8 C20_8 1_555 1_555
C15_8 C19_8 1_555 1_555
C23_8 C36_8 1_555 1_555
C26_8 C34_8 1_555 1_555
C31_8 C38_8 1_555 1_555
C32_8 C35_8 1_555 1_555
C33_8 C37_8 1_555 1_555
O3_10 H27_7 1_555 1_555
O3_11 H28_7 1_555 1_555
O3_8 H27_8 1_555 1_555
O3_9 H28_8 1_555 1_555

#END
