
###############################################################################
#
# This file contains modified crystal structure data generated from the
# MOF subset of the Cambridge Structural Database (CSD) v543 
# hosted by the Cambridge Crystallographic Data Centre (CCDC).
#
# This work is licensed under the Creative Commons
# Attribution-NonCommercial-ShareAlike 4.0 International License.
# To view a copy of this license, visit
# http://creativecommons.org/licenses/by-nc-sa/4.0/
# or send a letter to
# Creative Commons, PO Box 1866, Mountain View, CA 94042, USA.
#
# CIF created using the CSD Python API on 29 September 2022
# The structure has been converted into the P1 space group
# The structure has a 3D framework
# The original CSD entry XAFFAN is in the orthorhombic crystal system
# The framework has been calculated to contain at least 10.0% void space
# The void calculation uses a probe of radius 1.32A, grid spacing 0.4
# H atom positions have been added when not included in the experimental data
# Generated hydrogen atom positions removed from atoms on special positions
#
###############################################################################

data_XAFFAN
_chemical_formula_moiety         '(C160 H144 N8 O44 Zn12)n'
_symmetry_cell_setting           triclinic
_symmetry_space_group_name_H-M   'P 1'
_symmetry_Int_Tables_number      1
_space_group_name_Hall           'P 1'
loop_
_symmetry_equiv_pos_site_id
_symmetry_equiv_pos_as_xyz
1 x,y,z
_cell_length_a                   23.353(5)
_cell_length_b                   35.883(7)
_cell_length_c                   17.178(3)
_cell_angle_alpha                90
_cell_angle_beta                 90
_cell_angle_gamma                90
_cell_volume                     14394.7
loop_
_atom_site_label
_atom_site_type_symbol
_atom_site_fract_x
_atom_site_fract_y
_atom_site_fract_z
Zn8 Zn 0.0000 0.030032(7) 0.441745(16)
Zn5 Zn -0.0000 0.530032(7) 0.558255(16)
Zn6 Zn -0.0000 0.469968(7) 0.441745(16)
Zn7 Zn 0.0000 0.969968(7) 0.558255(16)
Zn3 Zn 0.5000 0.030032(7) 0.058255(16)
Zn8_2 Zn 1.0000 0.030032(7) 0.441745(16)
O12 O 0.56065(5) 0.00358(4) 0.89472(10)
O13 O 0.43935(5) 0.00358(4) 0.89472(10)
C1 C 0.57781(9) 0.96560(6) 0.07790(14)
C2 C 0.7500 0.84872(7) 0.2500
C3 C 0.64311(9) 0.95959(5) 0.19290(15)
H1 H 0.6284 0.9819 0.2119
C4 C 0.68429(10) 0.94085(6) 0.23526(15)
H2 H 0.6963 0.9502 0.2830
C5 C 0.68827(10) 0.89439(6) 0.13693(16)
H3 H 0.7038 0.8725 0.1169
C6 C 0.64577(9) 0.91256(6) 0.09581(15)
H4 H 0.6322 0.9023 0.0496
C7 C 0.70795(9) 0.90791(5) 0.20668(16)
C8 C 0.79902(10) 0.82948(6) 0.2363(2)
H5 H 0.8328 0.8422 0.2256
C9 C 0.79869(10) 0.79072(6) 0.2384(2)
H6 H 0.8330 0.7780 0.2315
C10 C 0.7500 0.77077(7) 0.2500
C11 C 0.62329(8) 0.94571(5) 0.12243(13)
N1 N 0.7500 0.88886(6) 0.2500
O1 O 0.56056(6) 0.95054(4) 0.01624(10)
O2 O 0.56065(5) 0.99642(4) 0.10528(10)
C12 C 0.57781(9) 0.53440(6) 0.07790(14)
C13 C 0.92219(9) 0.53440(6) 0.42210(14)
C14 C 0.92219(9) 0.96560(6) 0.42210(14)
C15 C 0.7500 0.65128(7) 0.2500
C16 C 0.64311(9) 0.54041(5) 0.19290(15)
C17 C 0.85689(9) 0.54041(5) 0.30710(15)
C18 C 0.85689(9) 0.95959(5) 0.30710(15)
H7 H 0.6284 0.5181 0.2119
H8 H 0.8716 0.5181 0.2881
H9 H 0.8716 0.9819 0.2881
C19 C 0.68429(10) 0.55915(6) 0.23526(15)
C20 C 0.81571(10) 0.55915(6) 0.26474(15)
C21 C 0.81571(10) 0.94085(6) 0.26474(15)
H10 H 0.6963 0.5498 0.2830
H11 H 0.8037 0.5498 0.2170
H12 H 0.8037 0.9502 0.2170
C22 C 0.68827(10) 0.60561(6) 0.13693(16)
C23 C 0.81173(10) 0.60561(6) 0.36307(16)
C24 C 0.81173(10) 0.89439(6) 0.36307(16)
H13 H 0.7038 0.6275 0.1169
H14 H 0.7962 0.6275 0.3831
H15 H 0.7962 0.8725 0.3831
C25 C 0.64577(9) 0.58744(6) 0.09581(15)
C26 C 0.85423(9) 0.58744(6) 0.40419(15)
C27 C 0.85423(9) 0.91256(6) 0.40419(15)
H16 H 0.6322 0.5977 0.0496
H17 H 0.8678 0.5977 0.4504
H18 H 0.8678 0.9023 0.4504
C28 C 0.70795(9) 0.59209(5) 0.20668(16)
C29 C 0.79205(9) 0.59209(5) 0.29332(16)
C30 C 0.79205(9) 0.90791(5) 0.29332(16)
C31 C 0.70098(10) 0.82948(6) 0.2637(2)
C32 C 0.79902(10) 0.67052(6) 0.2363(2)
C33 C 0.70098(10) 0.67052(6) 0.2637(2)
H19 H 0.6672 0.8422 0.2744
H20 H 0.6672 0.6578 0.2744
H21 H 0.8328 0.6578 0.2256
C34 C 0.70131(10) 0.79072(6) 0.2616(2)
C35 C 0.79869(10) 0.70928(6) 0.2384(2)
C36 C 0.70131(10) 0.70928(6) 0.2616(2)
H22 H 0.6670 0.7780 0.2685
H23 H 0.6670 0.7220 0.2685
H24 H 0.8330 0.7220 0.2315
C37 C 0.7500 0.72923(7) 0.2500
C38 C 0.62329(8) 0.55429(5) 0.12243(13)
C39 C 0.87671(8) 0.55429(5) 0.37757(13)
C40 C 0.87671(8) 0.94571(5) 0.37757(13)
N2 N 0.7500 0.61114(6) 0.2500
O4 O 0.56056(6) 0.54946(4) 0.01624(10)
O5 O 0.93944(6) 0.54946(4) 0.48376(10)
O6 O 0.93944(6) 0.95054(4) 0.48376(10)
O7 O 0.43944(6) 0.95054(4) 0.01624(10)
O8 O 0.43944(6) 0.54946(4) 0.01624(10)
O9 O 0.56065(5) 0.50358(4) 0.10528(10)
O10 O 0.93935(5) 0.50358(4) 0.39472(10)
O11 O 0.93935(5) 0.99642(4) 0.39472(10)
Zn4 Zn 0.5000 0.469968(7) 0.058255(16)
Zn5_2 Zn 1.0000 0.530032(7) 0.558255(16)
Zn6_2 Zn 1.0000 0.469968(7) 0.441745(16)
Zn7_2 Zn 1.0000 0.969968(7) 0.558255(16)
O3 O 0.5000 0.92886(6) 0.86386(16)
Zn1 Zn 0.5000 0.969968(7) 0.941745(16)
O14 O 0.56065(5) 0.49642(4) 0.89472(10)
O15 O 0.43935(5) 0.49642(4) 0.89472(10)
O16 O 0.5000 0.57114(6) 0.86386(16)
Zn2 Zn 0.5000 0.530032(7) 0.941745(16)
C1_2 C 0.42219(9) 0.53440(6) 0.07790(14)
C2_2 C 0.2500 0.65128(7) 0.2500
C3_2 C 0.35689(9) 0.54041(5) 0.19290(15)
H1_2 H 0.3716 0.5181 0.2119
C4_2 C 0.31571(10) 0.55915(6) 0.23526(15)
H2_2 H 0.3037 0.5498 0.2830
C5_2 C 0.31173(10) 0.60561(6) 0.13693(16)
H3_2 H 0.2962 0.6275 0.1169
C6_2 C 0.35423(9) 0.58744(6) 0.09581(15)
H4_2 H 0.3678 0.5977 0.0496
C7_2 C 0.29205(9) 0.59209(5) 0.20668(16)
C8_2 C 0.20098(10) 0.67052(6) 0.2363(2)
H5_2 H 0.1672 0.6578 0.2256
C9_2 C 0.20131(10) 0.70928(6) 0.2384(2)
H6_2 H 0.1670 0.7220 0.2315
C10_2 C 0.2500 0.72923(7) 0.2500
C11_2 C 0.37671(8) 0.55429(5) 0.12243(13)
N1_2 N 0.2500 0.61114(6) 0.2500
O2_2 O 0.43935(5) 0.50358(4) 0.10528(10)
C12_2 C 0.42219(9) 0.96560(6) 0.07790(14)
C13_2 C 0.07781(9) 0.96560(6) 0.42210(14)
C14_2 C 0.07781(9) 0.53440(6) 0.42210(14)
C15_2 C 0.2500 0.84872(7) 0.2500
C16_2 C 0.35689(9) 0.95959(5) 0.19290(15)
C17_2 C 0.14311(9) 0.95959(5) 0.30710(15)
C18_2 C 0.14311(9) 0.54041(5) 0.30710(15)
H7_2 H 0.3716 0.9819 0.2119
H8_2 H 0.1284 0.9819 0.2881
H9_2 H 0.1284 0.5181 0.2881
C19_2 C 0.31571(10) 0.94085(6) 0.23526(15)
C20_2 C 0.18429(10) 0.94085(6) 0.26474(15)
C21_2 C 0.18429(10) 0.55915(6) 0.26474(15)
H10_2 H 0.3037 0.9502 0.2830
H11_2 H 0.1963 0.9502 0.2170
H12_2 H 0.1963 0.5498 0.2170
C22_2 C 0.31173(10) 0.89439(6) 0.13693(16)
C23_2 C 0.18827(10) 0.89439(6) 0.36307(16)
C24_2 C 0.18827(10) 0.60561(6) 0.36307(16)
H13_2 H 0.2962 0.8725 0.1169
H14_2 H 0.2038 0.8725 0.3831
H15_2 H 0.2038 0.6275 0.3831
C25_2 C 0.35423(9) 0.91256(6) 0.09581(15)
C26_2 C 0.14577(9) 0.91256(6) 0.40419(15)
C27_2 C 0.14577(9) 0.58744(6) 0.40419(15)
H16_2 H 0.3678 0.9023 0.0496
H17_2 H 0.1322 0.9023 0.4504
H18_2 H 0.1322 0.5977 0.4504
C28_2 C 0.29205(9) 0.90791(5) 0.20668(16)
C29_2 C 0.20795(9) 0.90791(5) 0.29332(16)
C30_2 C 0.20795(9) 0.59209(5) 0.29332(16)
C31_2 C 0.29902(10) 0.67052(6) 0.2637(2)
C32_2 C 0.20098(10) 0.82948(6) 0.2363(2)
C33_2 C 0.29902(10) 0.82948(6) 0.2637(2)
H19_2 H 0.3328 0.6578 0.2744
H20_2 H 0.3328 0.8422 0.2744
H21_2 H 0.1672 0.8422 0.2256
C34_2 C 0.29869(10) 0.70928(6) 0.2616(2)
C35_2 C 0.20131(10) 0.79072(6) 0.2384(2)
C36_2 C 0.29869(10) 0.79072(6) 0.2616(2)
H22_2 H 0.3330 0.7220 0.2685
H23_2 H 0.3330 0.7780 0.2685
H24_2 H 0.1670 0.7780 0.2315
C37_2 C 0.2500 0.77077(7) 0.2500
C38_2 C 0.37671(8) 0.94571(5) 0.12243(13)
C39_2 C 0.12329(8) 0.94571(5) 0.37757(13)
C40_2 C 0.12329(8) 0.55429(5) 0.37757(13)
N2_2 N 0.2500 0.88886(6) 0.2500
O5_2 O 0.06056(6) 0.95054(4) 0.48376(10)
O6_2 O 0.06056(6) 0.54946(4) 0.48376(10)
O9_2 O 0.43935(5) 0.99642(4) 0.10528(10)
O10_2 O 0.06065(5) 0.99642(4) 0.39472(10)
O11_2 O 0.06065(5) 0.50358(4) 0.39472(10)
O3_2 O 0.5000 0.42886(6) 0.13614(16)
O16_2 O 0.5000 0.07114(6) 0.13614(16)
C1_3 C 0.42219(9) 0.46560(6) 0.92210(14)
C2_3 C 0.2500 0.34872(7) 0.7500
C3_3 C 0.35689(9) 0.45959(5) 0.80710(15)
H1_3 H 0.3716 0.4819 0.7881
C4_3 C 0.31571(10) 0.44085(6) 0.76474(15)
H2_3 H 0.3037 0.4502 0.7170
C5_3 C 0.31173(10) 0.39439(6) 0.86307(16)
H3_3 H 0.2962 0.3725 0.8831
C6_3 C 0.35423(9) 0.41256(6) 0.90419(15)
H4_3 H 0.3678 0.4023 0.9504
C7_3 C 0.29205(9) 0.40791(5) 0.79332(16)
C8_3 C 0.20098(10) 0.32948(6) 0.7637(2)
H5_3 H 0.1672 0.3422 0.7744
C9_3 C 0.20131(10) 0.29072(6) 0.7616(2)
H6_3 H 0.1670 0.2780 0.7685
C10_3 C 0.2500 0.27077(7) 0.7500
C11_3 C 0.37671(8) 0.44571(5) 0.87757(13)
N1_3 N 0.2500 0.38886(6) 0.7500
O1_2 O 0.43944(6) 0.45054(4) 0.98376(10)
C12_3 C 0.42219(9) 0.03440(6) 0.92210(14)
C13_3 C 0.07781(9) 0.03440(6) 0.57790(14)
C14_3 C 0.07781(9) 0.46560(6) 0.57790(14)
C15_3 C 0.2500 0.15128(7) 0.7500
C16_3 C 0.35689(9) 0.04041(5) 0.80710(15)
C17_3 C 0.14311(9) 0.04041(5) 0.69290(15)
C18_3 C 0.14311(9) 0.45959(5) 0.69290(15)
H7_3 H 0.3716 0.0181 0.7881
H8_3 H 0.1284 0.0181 0.7119
H9_3 H 0.1284 0.4819 0.7119
C19_3 C 0.31571(10) 0.05915(6) 0.76474(15)
C20_3 C 0.18429(10) 0.05915(6) 0.73526(15)
C21_3 C 0.18429(10) 0.44085(6) 0.73526(15)
H10_3 H 0.3037 0.0498 0.7170
H11_3 H 0.1963 0.0498 0.7830
H12_3 H 0.1963 0.4502 0.7830
C22_3 C 0.31173(10) 0.10561(6) 0.86307(16)
C23_3 C 0.18827(10) 0.10561(6) 0.63693(16)
C24_3 C 0.18827(10) 0.39439(6) 0.63693(16)
H13_3 H 0.2962 0.1275 0.8831
H14_3 H 0.2038 0.1275 0.6169
H15_3 H 0.2038 0.3725 0.6169
C25_3 C 0.35423(9) 0.08744(6) 0.90419(15)
C26_3 C 0.14577(9) 0.08744(6) 0.59581(15)
C27_3 C 0.14577(9) 0.41256(6) 0.59581(15)
H16_3 H 0.3678 0.0977 0.9504
H17_3 H 0.1322 0.0977 0.5496
H18_3 H 0.1322 0.4023 0.5496
C28_3 C 0.29205(9) 0.09209(5) 0.79332(16)
C29_3 C 0.20795(9) 0.09209(5) 0.70668(16)
C30_3 C 0.20795(9) 0.40791(5) 0.70668(16)
C31_3 C 0.29902(10) 0.32948(6) 0.7363(2)
C32_3 C 0.20098(10) 0.17052(6) 0.7637(2)
C33_3 C 0.29902(10) 0.17052(6) 0.7363(2)
H19_3 H 0.3328 0.3422 0.7256
H20_3 H 0.3328 0.1578 0.7256
H21_3 H 0.1672 0.1578 0.7744
C34_3 C 0.29869(10) 0.29072(6) 0.7384(2)
C35_3 C 0.20131(10) 0.20928(6) 0.7616(2)
C36_3 C 0.29869(10) 0.20928(6) 0.7384(2)
H22_3 H 0.3330 0.2780 0.7315
H23_3 H 0.3330 0.2220 0.7315
H24_3 H 0.1670 0.2220 0.7685
C37_3 C 0.2500 0.22923(7) 0.7500
C38_3 C 0.37671(8) 0.05429(5) 0.87757(13)
C39_3 C 0.12329(8) 0.05429(5) 0.62243(13)
C40_3 C 0.12329(8) 0.44571(5) 0.62243(13)
N2_3 N 0.2500 0.11114(6) 0.7500
O4_2 O 0.43944(6) 0.04946(4) 0.98376(10)
O5_3 O 0.06056(6) 0.04946(4) 0.51624(10)
O6_3 O 0.06056(6) 0.45054(4) 0.51624(10)
O7_2 O 0.56056(6) 0.45054(4) 0.98376(10)
O8_2 O 0.56056(6) 0.04946(4) 0.98376(10)
O10_3 O 0.06065(5) 0.00358(4) 0.60528(10)
O11_3 O 0.06065(5) 0.49642(4) 0.60528(10)
C1_4 C 0.57781(9) 0.03440(6) 0.92210(14)
C2_4 C 0.7500 0.15128(7) 0.7500
C3_4 C 0.64311(9) 0.04041(5) 0.80710(15)
H1_4 H 0.6284 0.0181 0.7881
C4_4 C 0.68429(10) 0.05915(6) 0.76474(15)
H2_4 H 0.6963 0.0498 0.7170
C5_4 C 0.68827(10) 0.10561(6) 0.86307(16)
H3_4 H 0.7038 0.1275 0.8831
C6_4 C 0.64577(9) 0.08744(6) 0.90419(15)
H4_4 H 0.6322 0.0977 0.9504
C7_4 C 0.70795(9) 0.09209(5) 0.79332(16)
C8_4 C 0.79902(10) 0.17052(6) 0.7637(2)
H5_4 H 0.8328 0.1578 0.7744
C9_4 C 0.79869(10) 0.20928(6) 0.7616(2)
H6_4 H 0.8330 0.2220 0.7685
C10_4 C 0.7500 0.22923(7) 0.7500
C11_4 C 0.62329(8) 0.05429(5) 0.87757(13)
N1_4 N 0.7500 0.11114(6) 0.7500
C12_4 C 0.57781(9) 0.46560(6) 0.92210(14)
C13_4 C 0.92219(9) 0.46560(6) 0.57790(14)
C14_4 C 0.92219(9) 0.03440(6) 0.57790(14)
C15_4 C 0.7500 0.34872(7) 0.7500
C16_4 C 0.64311(9) 0.45959(5) 0.80710(15)
C17_4 C 0.85689(9) 0.45959(5) 0.69290(15)
C18_4 C 0.85689(9) 0.04041(5) 0.69290(15)
H7_4 H 0.6284 0.4819 0.7881
H8_4 H 0.8716 0.4819 0.7119
H9_4 H 0.8716 0.0181 0.7119
C19_4 C 0.68429(10) 0.44085(6) 0.76474(15)
C20_4 C 0.81571(10) 0.44085(6) 0.73526(15)
C21_4 C 0.81571(10) 0.05915(6) 0.73526(15)
H10_4 H 0.6963 0.4502 0.7170
H11_4 H 0.8037 0.4502 0.7830
H12_4 H 0.8037 0.0498 0.7830
C22_4 C 0.68827(10) 0.39439(6) 0.86307(16)
C23_4 C 0.81173(10) 0.39439(6) 0.63693(16)
C24_4 C 0.81173(10) 0.10561(6) 0.63693(16)
H13_4 H 0.7038 0.3725 0.8831
H14_4 H 0.7962 0.3725 0.6169
H15_4 H 0.7962 0.1275 0.6169
C25_4 C 0.64577(9) 0.41256(6) 0.90419(15)
C26_4 C 0.85423(9) 0.41256(6) 0.59581(15)
C27_4 C 0.85423(9) 0.08744(6) 0.59581(15)
H16_4 H 0.6322 0.4023 0.9504
H17_4 H 0.8678 0.4023 0.5496
H18_4 H 0.8678 0.0977 0.5496
C28_4 C 0.70795(9) 0.40791(5) 0.79332(16)
C29_4 C 0.79205(9) 0.40791(5) 0.70668(16)
C30_4 C 0.79205(9) 0.09209(5) 0.70668(16)
C31_4 C 0.70098(10) 0.17052(6) 0.7363(2)
C32_4 C 0.79902(10) 0.32948(6) 0.7637(2)
C33_4 C 0.70098(10) 0.32948(6) 0.7363(2)
H19_4 H 0.6672 0.1578 0.7256
H20_4 H 0.6672 0.3422 0.7256
H21_4 H 0.8328 0.3422 0.7744
C34_4 C 0.70131(10) 0.20928(6) 0.7384(2)
C35_4 C 0.79869(10) 0.29072(6) 0.7616(2)
C36_4 C 0.70131(10) 0.29072(6) 0.7384(2)
H22_4 H 0.6670 0.2220 0.7315
H23_4 H 0.6670 0.2780 0.7315
H24_4 H 0.8330 0.2780 0.7685
C37_4 C 0.7500 0.27077(7) 0.7500
C38_4 C 0.62329(8) 0.44571(5) 0.87757(13)
C39_4 C 0.87671(8) 0.44571(5) 0.62243(13)
C40_4 C 0.87671(8) 0.05429(5) 0.62243(13)
N2_4 N 0.7500 0.38886(6) 0.7500
O5_4 O 0.93944(6) 0.45054(4) 0.51624(10)
O6_4 O 0.93944(6) 0.04946(4) 0.51624(10)
O10_4 O 0.93935(5) 0.49642(4) 0.60528(10)
O11_4 O 0.93935(5) 0.00358(4) 0.60528(10)
O3_3 O -0.0000 0.42886(6) 0.36386(16)
O16_3 O 0.0000 0.07114(6) 0.36386(16)
O3_4 O 1.0000 0.42886(6) 0.36386(16)
O16_4 O 1.0000 0.07114(6) 0.36386(16)
O3_5 O -0.0000 0.92886(6) 0.63614(16)
O16_5 O -0.0000 0.57114(6) 0.63614(16)
O3_6 O 1.0000 0.92886(6) 0.63614(16)
O16_6 O 1.0000 0.57114(6) 0.63614(16)
loop_
_geom_bond_atom_site_label_1
_geom_bond_atom_site_label_2
_geom_bond_site_symmetry_1
_geom_bond_site_symmetry_2
C1 C11 1_555 1_555
C2 C8 1_555 1_555
C3 H1 1_555 1_555
C4 C3 1_555 1_555
H2 C4 1_555 1_555
C5 H3 1_555 1_555
C6 C5 1_555 1_555
H4 C6 1_555 1_555
C7 C4 1_555 1_555
C8 H5 1_555 1_555
C9 C8 1_555 1_555
H6 C9 1_555 1_555
C10 C9 1_555 1_555
C11 C3 1_555 1_555
N1 C2 1_555 1_555
O1 C1 1_555 1_555
O2 C1 1_555 1_555
C12 C38 1_555 1_555
C13 C39 1_555 1_555
C14 C40 1_555 1_555
C15 C32 1_555 1_555
C16 H7 1_555 1_555
C17 H8 1_555 1_555
C18 H9 1_555 1_555
C19 C16 1_555 1_555
C20 C17 1_555 1_555
C21 C18 1_555 1_555
H10 C19 1_555 1_555
H11 C20 1_555 1_555
H12 C21 1_555 1_555
C22 H13 1_555 1_555
C23 H14 1_555 1_555
C24 H15 1_555 1_555
C25 C22 1_555 1_555
C26 C23 1_555 1_555
C27 C24 1_555 1_555
H16 C25 1_555 1_555
H17 C26 1_555 1_555
H18 C27 1_555 1_555
C28 C19 1_555 1_555
C29 C20 1_555 1_555
C30 N1 1_555 1_555
C31 C2 1_555 1_555
C32 H21 1_555 1_555
C33 C15 1_555 1_555
H19 C31 1_555 1_555
H20 C33 1_555 1_555
C34 C10 1_555 1_555
C35 C32 1_555 1_555
C36 C33 1_555 1_555
H22 C34 1_555 1_555
H23 C36 1_555 1_555
H24 C35 1_555 1_555
C37 C10 1_555 1_555
C38 C16 1_555 1_555
C39 C17 1_555 1_555
C40 C18 1_555 1_555
N2 C15 1_555 1_555
O4 C12 1_555 1_555
O5 C13 1_555 1_555
O6 C14 1_555 1_555
O9 C12 1_555 1_555
O10 C13 1_555 1_555
O11 C14 1_555 1_555
Zn4 O9 1_555 1_555
Zn5_2 O5 1_555 1_555
Zn6_2 O10 1_555 1_555
Zn7_2 O6 1_555 1_555
C5 C7 1_555 1_555
C6 C11 1_555 1_555
C7 N1 1_555 1_555
C21 C30 1_555 1_555
C22 C28 1_555 1_555
C23 C29 1_555 1_555
C24 C30 1_555 1_555
C25 C38 1_555 1_555
C26 C39 1_555 1_555
C27 C40 1_555 1_555
C28 N2 1_555 1_555
C29 N2 1_555 1_555
C31 C34 1_555 1_555
C35 C37 1_555 1_555
C36 C37 1_555 1_555
O3 Zn1 1_555 1_555
O14 Zn2 1_555 1_555
O15 Zn2 1_555 1_555
O16 Zn2 1_555 1_555
C1_2 C11_2 1_555 1_555
C2_2 C8_2 1_555 1_555
C3_2 H1_2 1_555 1_555
C4_2 C3_2 1_555 1_555
H2_2 C4_2 1_555 1_555
C5_2 H3_2 1_555 1_555
C6_2 C5_2 1_555 1_555
H4_2 C6_2 1_555 1_555
C7_2 C4_2 1_555 1_555
C8_2 H5_2 1_555 1_555
C9_2 C8_2 1_555 1_555
H6_2 C9_2 1_555 1_555
C10_2 C9_2 1_555 1_555
C11_2 C3_2 1_555 1_555
N1_2 C2_2 1_555 1_555
O8 C1_2 1_555 1_555
O2_2 C1_2 1_555 1_555
C12_2 C38_2 1_555 1_555
C13_2 C39_2 1_555 1_555
C14_2 C40_2 1_555 1_555
C15_2 C32_2 1_555 1_555
C16_2 H7_2 1_555 1_555
C17_2 H8_2 1_555 1_555
C18_2 H9_2 1_555 1_555
C19_2 C16_2 1_555 1_555
C20_2 C17_2 1_555 1_555
C21_2 C18_2 1_555 1_555
H10_2 C19_2 1_555 1_555
H11_2 C20_2 1_555 1_555
H12_2 C21_2 1_555 1_555
C22_2 H13_2 1_555 1_555
C23_2 H14_2 1_555 1_555
C24_2 H15_2 1_555 1_555
C25_2 C22_2 1_555 1_555
C26_2 C23_2 1_555 1_555
C27_2 C24_2 1_555 1_555
H16_2 C25_2 1_555 1_555
H17_2 C26_2 1_555 1_555
H18_2 C27_2 1_555 1_555
C28_2 C19_2 1_555 1_555
C29_2 C20_2 1_555 1_555
C30_2 N1_2 1_555 1_555
C31_2 C2_2 1_555 1_555
C32_2 H21_2 1_555 1_555
C33_2 C15_2 1_555 1_555
H19_2 C31_2 1_555 1_555
H20_2 C33_2 1_555 1_555
C34_2 C10_2 1_555 1_555
C35_2 C32_2 1_555 1_555
C36_2 C33_2 1_555 1_555
H22_2 C34_2 1_555 1_555
H23_2 C36_2 1_555 1_555
H24_2 C35_2 1_555 1_555
C37_2 C10_2 1_555 1_555
C38_2 C16_2 1_555 1_555
C39_2 C17_2 1_555 1_555
C40_2 C18_2 1_555 1_555
N2_2 C15_2 1_555 1_555
O7 C12_2 1_555 1_555
O5_2 C13_2 1_555 1_555
O6_2 C14_2 1_555 1_555
O9_2 C12_2 1_555 1_555
O10_2 C13_2 1_555 1_555
O11_2 C14_2 1_555 1_555
Zn4 O2_2 1_555 1_555
Zn7 O5_2 1_555 1_555
Zn5 O6_2 1_555 1_555
Zn6 O11_2 1_555 1_555
C5_2 C7_2 1_555 1_555
C6_2 C11_2 1_555 1_555
C7_2 N1_2 1_555 1_555
C21_2 C30_2 1_555 1_555
C22_2 C28_2 1_555 1_555
C23_2 C29_2 1_555 1_555
C24_2 C30_2 1_555 1_555
C25_2 C38_2 1_555 1_555
C26_2 C39_2 1_555 1_555
C27_2 C40_2 1_555 1_555
C28_2 N2_2 1_555 1_555
C29_2 N2_2 1_555 1_555
C31_2 C34_2 1_555 1_555
C35_2 C37_2 1_555 1_555
C36_2 C37_2 1_555 1_555
O3_2 Zn4 1_555 1_555
O16_2 Zn3 1_555 1_555
C1_3 C11_3 1_555 1_555
C2_3 C8_3 1_555 1_555
C3_3 H1_3 1_555 1_555
C4_3 C3_3 1_555 1_555
H2_3 C4_3 1_555 1_555
C5_3 H3_3 1_555 1_555
C6_3 C5_3 1_555 1_555
H4_3 C6_3 1_555 1_555
C7_3 C4_3 1_555 1_555
C8_3 H5_3 1_555 1_555
C9_3 C8_3 1_555 1_555
H6_3 C9_3 1_555 1_555
C10_3 C9_3 1_555 1_555
C11_3 C3_3 1_555 1_555
N1_3 C2_3 1_555 1_555
O1_2 C1_3 1_555 1_555
O15 C1_3 1_555 1_555
C12_3 C38_3 1_555 1_555
C13_3 C39_3 1_555 1_555
C14_3 C40_3 1_555 1_555
C15_3 C32_3 1_555 1_555
C16_3 H7_3 1_555 1_555
C17_3 H8_3 1_555 1_555
C18_3 H9_3 1_555 1_555
C19_3 C16_3 1_555 1_555
C20_3 C17_3 1_555 1_555
C21_3 C18_3 1_555 1_555
H10_3 C19_3 1_555 1_555
H11_3 C20_3 1_555 1_555
H12_3 C21_3 1_555 1_555
C22_3 H13_3 1_555 1_555
C23_3 H14_3 1_555 1_555
C24_3 H15_3 1_555 1_555
C25_3 C22_3 1_555 1_555
C26_3 C23_3 1_555 1_555
C27_3 C24_3 1_555 1_555
H16_3 C25_3 1_555 1_555
H17_3 C26_3 1_555 1_555
H18_3 C27_3 1_555 1_555
C28_3 C19_3 1_555 1_555
C29_3 C20_3 1_555 1_555
C30_3 N1_3 1_555 1_555
C31_3 C2_3 1_555 1_555
C32_3 H21_3 1_555 1_555
C33_3 C15_3 1_555 1_555
H19_3 C31_3 1_555 1_555
H20_3 C33_3 1_555 1_555
C34_3 C10_3 1_555 1_555
C35_3 C32_3 1_555 1_555
C36_3 C33_3 1_555 1_555
H22_3 C34_3 1_555 1_555
H23_3 C36_3 1_555 1_555
H24_3 C35_3 1_555 1_555
C37_3 C10_3 1_555 1_555
C38_3 C16_3 1_555 1_555
C39_3 C17_3 1_555 1_555
C40_3 C18_3 1_555 1_555
N2_3 C15_3 1_555 1_555
O4_2 C12_3 1_555 1_555
O5_3 C13_3 1_555 1_555
O6_3 C14_3 1_555 1_555
O13 C12_3 1_555 1_555
O10_3 C13_3 1_555 1_555
O11_3 C14_3 1_555 1_555
Zn8 O5_3 1_555 1_555
Zn6 O6_3 1_555 1_555
Zn5 O11_3 1_555 1_555
C5_3 C7_3 1_555 1_555
C6_3 C11_3 1_555 1_555
C7_3 N1_3 1_555 1_555
C21_3 C30_3 1_555 1_555
C22_3 C28_3 1_555 1_555
C23_3 C29_3 1_555 1_555
C24_3 C30_3 1_555 1_555
C25_3 C38_3 1_555 1_555
C26_3 C39_3 1_555 1_555
C27_3 C40_3 1_555 1_555
C28_3 N2_3 1_555 1_555
C29_3 N2_3 1_555 1_555
C31_3 C34_3 1_555 1_555
C35_3 C37_3 1_555 1_555
C36_3 C37_3 1_555 1_555
C1_4 C11_4 1_555 1_555
C2_4 C8_4 1_555 1_555
C3_4 H1_4 1_555 1_555
C4_4 C3_4 1_555 1_555
H2_4 C4_4 1_555 1_555
C5_4 H3_4 1_555 1_555
C6_4 C5_4 1_555 1_555
H4_4 C6_4 1_555 1_555
C7_4 C4_4 1_555 1_555
C8_4 H5_4 1_555 1_555
C9_4 C8_4 1_555 1_555
H6_4 C9_4 1_555 1_555
C10_4 C9_4 1_555 1_555
C11_4 C3_4 1_555 1_555
N1_4 C2_4 1_555 1_555
O8_2 C1_4 1_555 1_555
O12 C1_4 1_555 1_555
C12_4 C38_4 1_555 1_555
C13_4 C39_4 1_555 1_555
C14_4 C40_4 1_555 1_555
C15_4 C32_4 1_555 1_555
C16_4 H7_4 1_555 1_555
C17_4 H8_4 1_555 1_555
C18_4 H9_4 1_555 1_555
C19_4 C16_4 1_555 1_555
C20_4 C17_4 1_555 1_555
C21_4 C18_4 1_555 1_555
H10_4 C19_4 1_555 1_555
H11_4 C20_4 1_555 1_555
H12_4 C21_4 1_555 1_555
C22_4 H13_4 1_555 1_555
C23_4 H14_4 1_555 1_555
C24_4 H15_4 1_555 1_555
C25_4 C22_4 1_555 1_555
C26_4 C23_4 1_555 1_555
C27_4 C24_4 1_555 1_555
H16_4 C25_4 1_555 1_555
H17_4 C26_4 1_555 1_555
H18_4 C27_4 1_555 1_555
C28_4 C19_4 1_555 1_555
C29_4 C20_4 1_555 1_555
C30_4 N1_4 1_555 1_555
C31_4 C2_4 1_555 1_555
C32_4 H21_4 1_555 1_555
C33_4 C15_4 1_555 1_555
H19_4 C31_4 1_555 1_555
H20_4 C33_4 1_555 1_555
C34_4 C10_4 1_555 1_555
C35_4 C32_4 1_555 1_555
C36_4 C33_4 1_555 1_555
H22_4 C34_4 1_555 1_555
H23_4 C36_4 1_555 1_555
H24_4 C35_4 1_555 1_555
C37_4 C10_4 1_555 1_555
C38_4 C16_4 1_555 1_555
C39_4 C17_4 1_555 1_555
C40_4 C18_4 1_555 1_555
N2_4 C15_4 1_555 1_555
O7_2 C12_4 1_555 1_555
O5_4 C13_4 1_555 1_555
O6_4 C14_4 1_555 1_555
O14 C12_4 1_555 1_555
O10_4 C13_4 1_555 1_555
O11_4 C14_4 1_555 1_555
Zn6_2 O5_4 1_555 1_555
Zn5_2 O10_4 1_555 1_555
Zn8_2 O6_4 1_555 1_555
C5_4 C7_4 1_555 1_555
C6_4 C11_4 1_555 1_555
C7_4 N1_4 1_555 1_555
C21_4 C30_4 1_555 1_555
C22_4 C28_4 1_555 1_555
C23_4 C29_4 1_555 1_555
C24_4 C30_4 1_555 1_555
C25_4 C38_4 1_555 1_555
C26_4 C39_4 1_555 1_555
C27_4 C40_4 1_555 1_555
C28_4 N2_4 1_555 1_555
C29_4 N2_4 1_555 1_555
C31_4 C34_4 1_555 1_555
C35_4 C37_4 1_555 1_555
C36_4 C37_4 1_555 1_555
O3_3 Zn6 1_555 1_555
O16_3 Zn8 1_555 1_555
O3_4 Zn6_2 1_555 1_555
O16_4 Zn8_2 1_555 1_555
O3_5 Zn7 1_555 1_555
O16_5 Zn5 1_555 1_555
O3_6 Zn7_2 1_555 1_555
O16_6 Zn5_2 1_555 1_555

#END
