
###############################################################################
#
# This file contains modified crystal structure data generated from the
# MOF subset of the Cambridge Structural Database (CSD) v543 
# hosted by the Cambridge Crystallographic Data Centre (CCDC).
#
# This work is licensed under the Creative Commons
# Attribution-NonCommercial-ShareAlike 4.0 International License.
# To view a copy of this license, visit
# http://creativecommons.org/licenses/by-nc-sa/4.0/
# or send a letter to
# Creative Commons, PO Box 1866, Mountain View, CA 94042, USA.
#
# CIF created using the CSD Python API on 29 September 2022
# The structure has been converted into the P1 space group
# The structure has a 3D framework
# The original CSD entry XAFFIV is in the orthorhombic crystal system
# The framework has been calculated to contain at least 10.0% void space
# The void calculation uses a probe of radius 1.32A, grid spacing 0.4
# H atom positions have been added when not included in the experimental data
# Generated hydrogen atom positions removed from atoms on special positions
#
###############################################################################

data_XAFFIV
_chemical_formula_moiety         '(C160 H144 Co12 N8 O44)n'
_symmetry_cell_setting           triclinic
_symmetry_space_group_name_H-M   'P 1'
_symmetry_Int_Tables_number      1
_space_group_name_Hall           'P 1'
loop_
_symmetry_equiv_pos_site_id
_symmetry_equiv_pos_as_xyz
1 x,y,z
_cell_length_a                   23.415(5)
_cell_length_b                   35.948(7)
_cell_length_c                   17.141(3)
_cell_angle_alpha                90
_cell_angle_beta                 90
_cell_angle_gamma                90
_cell_volume                     14428
loop_
_atom_site_label
_atom_site_type_symbol
_atom_site_fract_x
_atom_site_fract_y
_atom_site_fract_z
Co4 Co 0.0000 0.471420(14) 0.05606(3)
Co8 Co 0.0000 0.028580(14) 0.05606(3)
O8 O 0.06053(8) 0.00345(6) 0.89361(13)
Co2 Co -0.0000 0.528580(14) 0.94394(3)
O15 O 0.06068(8) 0.95070(6) 0.01587(14)
O9 O 0.0000 0.92998(11) 0.8681(2)
Co7 Co -0.0000 0.971420(14) 0.94394(3)
Co4_2 Co 1.0000 0.471420(14) 0.05606(3)
Co8_2 Co 1.0000 0.028580(14) 0.05606(3)
C1 C 0.57738(13) 0.46659(12) 0.5785(2)
C2 C 0.64273(13) 0.45890(8) 0.6935(2)
H1 H 0.6278 0.4811 0.7122
C3 C 0.68803(14) 0.39404(9) 0.6353(2)
H2 H 0.7042 0.3725 0.6149
C4 C 0.62329(12) 0.44472(9) 0.6230(2)
C5 C 0.68418(14) 0.44041(9) 0.73642(19)
H3 H 0.6964 0.4499 0.7841
C6 C 0.64577(13) 0.41221(9) 0.59471(19)
H4 H 0.6324 0.4024 0.5479
C7 C 0.70702(13) 0.40791(9) 0.7078(2)
C8 C 0.7500 0.34907(13) 0.7500
C9 C 0.70147(15) 0.32983(10) 0.7646(2)
H5 H 0.6679 0.3425 0.7759
C10 C 0.70166(15) 0.29059(10) 0.7626(2)
H6 H 0.6675 0.2780 0.7703
C11 C 0.7500 0.27063(11) 0.7500
N1 N 0.7500 0.38840(9) 0.7500
O1 O 0.56053(8) 0.49655(6) 0.60639(13)
O2 O 0.5000 0.57002(11) 0.6319(2)
O3 O 0.56068(8) 0.45070(6) 0.51587(14)
Co1 Co 0.5000 0.528580(14) 0.55606(3)
C12 C 0.92262(13) 0.46659(12) 0.9215(2)
C13 C 0.57738(13) 0.03341(12) 0.5785(2)
C14 C 0.92262(13) 0.03341(12) 0.9215(2)
C15 C 0.85727(13) 0.45890(8) 0.8065(2)
C16 C 0.64273(13) 0.04110(8) 0.6935(2)
C17 C 0.85727(13) 0.04110(8) 0.8065(2)
H7 H 0.8722 0.4811 0.7878
H8 H 0.6278 0.0189 0.7122
H9 H 0.8722 0.0189 0.7878
C18 C 0.81197(14) 0.39404(9) 0.8647(2)
C19 C 0.68803(14) 0.10596(9) 0.6353(2)
C20 C 0.81197(14) 0.10596(9) 0.8647(2)
H10 H 0.7958 0.3725 0.8851
H11 H 0.7042 0.1275 0.6149
H12 H 0.7958 0.1275 0.8851
C21 C 0.87671(12) 0.44472(9) 0.8770(2)
C22 C 0.62329(12) 0.05528(9) 0.6230(2)
C23 C 0.87671(12) 0.05528(9) 0.8770(2)
C24 C 0.81582(14) 0.44041(9) 0.76358(19)
C25 C 0.68418(14) 0.05959(9) 0.73642(19)
C26 C 0.81582(14) 0.05959(9) 0.76358(19)
H13 H 0.8036 0.4499 0.7159
H14 H 0.6964 0.0501 0.7841
H15 H 0.8036 0.0501 0.7159
C27 C 0.85423(13) 0.41221(9) 0.90529(19)
C28 C 0.64577(13) 0.08779(9) 0.59471(19)
C29 C 0.85423(13) 0.08779(9) 0.90529(19)
H16 H 0.8676 0.4024 0.9521
H17 H 0.6324 0.0976 0.5479
H18 H 0.8676 0.0976 0.9521
C30 C 0.79298(13) 0.40791(9) 0.7922(2)
C31 C 0.70702(13) 0.09209(9) 0.7078(2)
C32 C 0.79298(13) 0.09209(9) 0.7922(2)
C33 C 0.7500 0.15093(13) 0.7500
C34 C 0.79853(15) 0.32983(10) 0.7354(2)
C35 C 0.70147(15) 0.17017(10) 0.7646(2)
C36 C 0.79853(15) 0.17017(10) 0.7354(2)
H19 H 0.8321 0.3425 0.7241
H20 H 0.8321 0.1575 0.7241
H21 H 0.6679 0.1575 0.7759
C37 C 0.79834(15) 0.29059(10) 0.7374(2)
C38 C 0.70166(15) 0.20941(10) 0.7626(2)
C39 C 0.79834(15) 0.20941(10) 0.7374(2)
H22 H 0.8325 0.2780 0.7297
H23 H 0.8325 0.2220 0.7297
H24 H 0.6675 0.2220 0.7703
C40 C 0.7500 0.22937(11) 0.7500
N2 N 0.7500 0.11160(9) 0.7500
O4 O 0.93947(8) 0.49655(6) 0.89361(13)
O5 O 0.56053(8) 0.00345(6) 0.60639(13)
O6 O 0.93947(8) 0.00345(6) 0.89361(13)
O7 O 0.43947(8) 0.49655(6) 0.60639(13)
O10 O 0.93932(8) 0.45070(6) 0.98413(14)
O11 O 0.56068(8) 0.04930(6) 0.51587(14)
O12 O 0.93932(8) 0.04930(6) 0.98413(14)
O13 O 0.56068(8) 0.54930(6) 0.48413(14)
O14 O 0.43932(8) 0.54930(6) 0.48413(14)
Co2_2 Co 1.0000 0.528580(14) 0.94394(3)
Co3 Co 0.5000 0.471420(14) 0.44394(3)
Co6 Co 0.5000 0.028580(14) 0.44394(3)
O16 O 0.93932(8) 0.95070(6) 0.01587(14)
O9_2 O 1.0000 0.92998(11) 0.8681(2)
Co5 Co 0.5000 0.971420(14) 0.55606(3)
Co7_2 Co 1.0000 0.971420(14) 0.94394(3)
O16_2 O 0.06068(8) 0.54930(6) 0.01587(14)
C1_2 C 0.42262(13) 0.03341(12) 0.5785(2)
C2_2 C 0.35727(13) 0.04110(8) 0.6935(2)
H1_2 H 0.3722 0.0189 0.7122
C3_2 C 0.31197(14) 0.10596(9) 0.6353(2)
H2_2 H 0.2958 0.1275 0.6149
C4_2 C 0.37671(12) 0.05528(9) 0.6230(2)
C5_2 C 0.31582(14) 0.05959(9) 0.73642(19)
H3_2 H 0.3036 0.0501 0.7841
C6_2 C 0.35423(13) 0.08779(9) 0.59471(19)
H4_2 H 0.3676 0.0976 0.5479
C7_2 C 0.29298(13) 0.09209(9) 0.7078(2)
C8_2 C 0.2500 0.15093(13) 0.7500
C9_2 C 0.29853(15) 0.17017(10) 0.7646(2)
H5_2 H 0.3321 0.1575 0.7759
C10_2 C 0.29834(15) 0.20941(10) 0.7626(2)
H6_2 H 0.3325 0.2220 0.7703
C11_2 C 0.2500 0.22937(11) 0.7500
N1_2 N 0.2500 0.11160(9) 0.7500
O1_2 O 0.43947(8) 0.00345(6) 0.60639(13)
O3_2 O 0.43932(8) 0.04930(6) 0.51587(14)
C12_2 C 0.07738(13) 0.03341(12) 0.9215(2)
C13_2 C 0.42262(13) 0.46659(12) 0.5785(2)
C14_2 C 0.07738(13) 0.46659(12) 0.9215(2)
C15_2 C 0.14273(13) 0.04110(8) 0.8065(2)
C16_2 C 0.35727(13) 0.45890(8) 0.6935(2)
C17_2 C 0.14273(13) 0.45890(8) 0.8065(2)
H7_2 H 0.1278 0.0189 0.7878
H8_2 H 0.3722 0.4811 0.7122
H9_2 H 0.1278 0.4811 0.7878
C18_2 C 0.18803(14) 0.10596(9) 0.8647(2)
C19_2 C 0.31197(14) 0.39404(9) 0.6353(2)
C20_2 C 0.18803(14) 0.39404(9) 0.8647(2)
H10_2 H 0.2042 0.1275 0.8851
H11_2 H 0.2958 0.3725 0.6149
H12_2 H 0.2042 0.3725 0.8851
C21_2 C 0.12329(12) 0.05528(9) 0.8770(2)
C22_2 C 0.37671(12) 0.44472(9) 0.6230(2)
C23_2 C 0.12329(12) 0.44472(9) 0.8770(2)
C24_2 C 0.18418(14) 0.05959(9) 0.76358(19)
C25_2 C 0.31582(14) 0.44041(9) 0.73642(19)
C26_2 C 0.18418(14) 0.44041(9) 0.76358(19)
H13_2 H 0.1964 0.0501 0.7159
H14_2 H 0.3036 0.4499 0.7841
H15_2 H 0.1964 0.4499 0.7159
C27_2 C 0.14577(13) 0.08779(9) 0.90529(19)
C28_2 C 0.35423(13) 0.41221(9) 0.59471(19)
C29_2 C 0.14577(13) 0.41221(9) 0.90529(19)
H16_2 H 0.1324 0.0976 0.9521
H17_2 H 0.3676 0.4024 0.5479
H18_2 H 0.1324 0.4024 0.9521
C30_2 C 0.20702(13) 0.09209(9) 0.7922(2)
C31_2 C 0.29298(13) 0.40791(9) 0.7078(2)
C32_2 C 0.20702(13) 0.40791(9) 0.7922(2)
C33_2 C 0.2500 0.34907(13) 0.7500
C34_2 C 0.20147(15) 0.17017(10) 0.7354(2)
C35_2 C 0.29853(15) 0.32983(10) 0.7646(2)
C36_2 C 0.20147(15) 0.32983(10) 0.7354(2)
H19_2 H 0.1679 0.1575 0.7241
H20_2 H 0.1679 0.3425 0.7241
H21_2 H 0.3321 0.3425 0.7759
C37_2 C 0.20166(15) 0.20941(10) 0.7374(2)
C38_2 C 0.29834(15) 0.29059(10) 0.7626(2)
C39_2 C 0.20166(15) 0.29059(10) 0.7374(2)
H22_2 H 0.1675 0.2220 0.7297
H23_2 H 0.1675 0.2780 0.7297
H24_2 H 0.3325 0.2780 0.7703
C40_2 C 0.2500 0.27063(11) 0.7500
N2_2 N 0.2500 0.38840(9) 0.7500
O6_2 O 0.06053(8) 0.49655(6) 0.89361(13)
O9_3 O -0.0000 0.57002(11) 0.8681(2)
O10_2 O 0.06068(8) 0.04930(6) 0.98413(14)
O11_2 O 0.43932(8) 0.45070(6) 0.51587(14)
O12_2 O 0.06068(8) 0.45070(6) 0.98413(14)
O2_2 O 0.5000 0.92998(11) 0.6319(2)
O13_2 O 0.43932(8) 0.95070(6) 0.48413(14)
O14_2 O 0.56068(8) 0.95070(6) 0.48413(14)
O15_2 O 0.93932(8) 0.54930(6) 0.01587(14)
O9_4 O 1.0000 0.57002(11) 0.8681(2)
O2_3 O 0.5000 0.07002(11) 0.3681(2)
C1_3 C 0.42262(13) 0.96659(12) 0.4215(2)
C2_3 C 0.35727(13) 0.95890(8) 0.3065(2)
H1_3 H 0.3722 0.9811 0.2878
C3_3 C 0.31197(14) 0.89404(9) 0.3647(2)
H2_3 H 0.2958 0.8725 0.3851
C4_3 C 0.37671(12) 0.94472(9) 0.3770(2)
C5_3 C 0.31582(14) 0.94041(9) 0.26358(19)
H3_3 H 0.3036 0.9499 0.2159
C6_3 C 0.35423(13) 0.91221(9) 0.40529(19)
H4_3 H 0.3676 0.9024 0.4521
C7_3 C 0.29298(13) 0.90791(9) 0.2922(2)
C8_3 C 0.2500 0.84907(13) 0.2500
C9_3 C 0.29853(15) 0.82983(10) 0.2354(2)
H5_3 H 0.3321 0.8425 0.2241
C10_3 C 0.29834(15) 0.79059(10) 0.2374(2)
H6_3 H 0.3325 0.7780 0.2297
C11_3 C 0.2500 0.77063(11) 0.2500
N1_3 N 0.2500 0.88840(9) 0.2500
O1_3 O 0.43947(8) 0.99655(6) 0.39361(13)
C12_3 C 0.07738(13) 0.96659(12) 0.0785(2)
C13_3 C 0.42262(13) 0.53341(12) 0.4215(2)
C14_3 C 0.07738(13) 0.53341(12) 0.0785(2)
C15_3 C 0.14273(13) 0.95890(8) 0.1935(2)
C16_3 C 0.35727(13) 0.54110(8) 0.3065(2)
C17_3 C 0.14273(13) 0.54110(8) 0.1935(2)
H7_3 H 0.1278 0.9811 0.2122
H8_3 H 0.3722 0.5189 0.2878
H9_3 H 0.1278 0.5189 0.2122
C18_3 C 0.18803(14) 0.89404(9) 0.1353(2)
C19_3 C 0.31197(14) 0.60596(9) 0.3647(2)
C20_3 C 0.18803(14) 0.60596(9) 0.1353(2)
H10_3 H 0.2042 0.8725 0.1149
H11_3 H 0.2958 0.6275 0.3851
H12_3 H 0.2042 0.6275 0.1149
C21_3 C 0.12329(12) 0.94472(9) 0.1230(2)
C22_3 C 0.37671(12) 0.55528(9) 0.3770(2)
C23_3 C 0.12329(12) 0.55528(9) 0.1230(2)
C24_3 C 0.18418(14) 0.94041(9) 0.23642(19)
C25_3 C 0.31582(14) 0.55959(9) 0.26358(19)
C26_3 C 0.18418(14) 0.55959(9) 0.23642(19)
H13_3 H 0.1964 0.9499 0.2841
H14_3 H 0.3036 0.5501 0.2159
H15_3 H 0.1964 0.5501 0.2841
C27_3 C 0.14577(13) 0.91221(9) 0.09471(19)
C28_3 C 0.35423(13) 0.58779(9) 0.40529(19)
C29_3 C 0.14577(13) 0.58779(9) 0.09471(19)
H16_3 H 0.1324 0.9024 0.0479
H17_3 H 0.3676 0.5976 0.4521
H18_3 H 0.1324 0.5976 0.0479
C30_3 C 0.20702(13) 0.90791(9) 0.2078(2)
C31_3 C 0.29298(13) 0.59209(9) 0.2922(2)
C32_3 C 0.20702(13) 0.59209(9) 0.2078(2)
C33_3 C 0.2500 0.65093(13) 0.2500
C34_3 C 0.20147(15) 0.82983(10) 0.2646(2)
C35_3 C 0.29853(15) 0.67017(10) 0.2354(2)
C36_3 C 0.20147(15) 0.67017(10) 0.2646(2)
H19_3 H 0.1679 0.8425 0.2759
H20_3 H 0.1679 0.6575 0.2759
H21_3 H 0.3321 0.6575 0.2241
C37_3 C 0.20166(15) 0.79059(10) 0.2626(2)
C38_3 C 0.29834(15) 0.70941(10) 0.2374(2)
C39_3 C 0.20166(15) 0.70941(10) 0.2626(2)
H22_3 H 0.1675 0.7780 0.2703
H23_3 H 0.1675 0.7220 0.2703
H24_3 H 0.3325 0.7220 0.2297
C40_3 C 0.2500 0.72937(11) 0.2500
N2_3 N 0.2500 0.61160(9) 0.2500
O4_2 O 0.06053(8) 0.99655(6) 0.10639(13)
O5_2 O 0.43947(8) 0.50345(6) 0.39361(13)
O6_3 O 0.06053(8) 0.50345(6) 0.10639(13)
O7_2 O 0.56053(8) 0.99655(6) 0.39361(13)
O9_5 O 0.0000 0.42998(11) 0.1319(2)
O8_2 O 0.93947(8) 0.50345(6) 0.10639(13)
O9_6 O 1.0000 0.42998(11) 0.1319(2)
O9_7 O 0.0000 0.07002(11) 0.1319(2)
O9_8 O 1.0000 0.07002(11) 0.1319(2)
C1_4 C 0.57738(13) 0.53341(12) 0.4215(2)
C2_4 C 0.64273(13) 0.54110(8) 0.3065(2)
H1_4 H 0.6278 0.5189 0.2878
C3_4 C 0.68803(14) 0.60596(9) 0.3647(2)
H2_4 H 0.7042 0.6275 0.3851
C4_4 C 0.62329(12) 0.55528(9) 0.3770(2)
C5_4 C 0.68418(14) 0.55959(9) 0.26358(19)
H3_4 H 0.6964 0.5501 0.2159
C6_4 C 0.64577(13) 0.58779(9) 0.40529(19)
H4_4 H 0.6324 0.5976 0.4521
C7_4 C 0.70702(13) 0.59209(9) 0.2922(2)
C8_4 C 0.7500 0.65093(13) 0.2500
C9_4 C 0.70147(15) 0.67017(10) 0.2354(2)
H5_4 H 0.6679 0.6575 0.2241
C10_4 C 0.70166(15) 0.70941(10) 0.2374(2)
H6_4 H 0.6675 0.7220 0.2297
C11_4 C 0.7500 0.72937(11) 0.2500
N1_4 N 0.7500 0.61160(9) 0.2500
O1_4 O 0.56053(8) 0.50345(6) 0.39361(13)
O2_4 O 0.5000 0.42998(11) 0.3681(2)
C12_4 C 0.92262(13) 0.53341(12) 0.0785(2)
C13_4 C 0.57738(13) 0.96659(12) 0.4215(2)
C14_4 C 0.92262(13) 0.96659(12) 0.0785(2)
C15_4 C 0.85727(13) 0.54110(8) 0.1935(2)
C16_4 C 0.64273(13) 0.95890(8) 0.3065(2)
C17_4 C 0.85727(13) 0.95890(8) 0.1935(2)
H7_4 H 0.8722 0.5189 0.2122
H8_4 H 0.6278 0.9811 0.2878
H9_4 H 0.8722 0.9811 0.2122
C18_4 C 0.81197(14) 0.60596(9) 0.1353(2)
C19_4 C 0.68803(14) 0.89404(9) 0.3647(2)
C20_4 C 0.81197(14) 0.89404(9) 0.1353(2)
H10_4 H 0.7958 0.6275 0.1149
H11_4 H 0.7042 0.8725 0.3851
H12_4 H 0.7958 0.8725 0.1149
C21_4 C 0.87671(12) 0.55528(9) 0.1230(2)
C22_4 C 0.62329(12) 0.94472(9) 0.3770(2)
C23_4 C 0.87671(12) 0.94472(9) 0.1230(2)
C24_4 C 0.81582(14) 0.55959(9) 0.23642(19)
C25_4 C 0.68418(14) 0.94041(9) 0.26358(19)
C26_4 C 0.81582(14) 0.94041(9) 0.23642(19)
H13_4 H 0.8036 0.5501 0.2841
H14_4 H 0.6964 0.9499 0.2159
H15_4 H 0.8036 0.9499 0.2841
C27_4 C 0.85423(13) 0.58779(9) 0.09471(19)
C28_4 C 0.64577(13) 0.91221(9) 0.40529(19)
C29_4 C 0.85423(13) 0.91221(9) 0.09471(19)
H16_4 H 0.8676 0.5976 0.0479
H17_4 H 0.6324 0.9024 0.4521
H18_4 H 0.8676 0.9024 0.0479
C30_4 C 0.79298(13) 0.59209(9) 0.2078(2)
C31_4 C 0.70702(13) 0.90791(9) 0.2922(2)
C32_4 C 0.79298(13) 0.90791(9) 0.2078(2)
C33_4 C 0.7500 0.84907(13) 0.2500
C34_4 C 0.79853(15) 0.67017(10) 0.2646(2)
C35_4 C 0.70147(15) 0.82983(10) 0.2354(2)
C36_4 C 0.79853(15) 0.82983(10) 0.2646(2)
H19_4 H 0.8321 0.6575 0.2759
H20_4 H 0.8321 0.8425 0.2759
H21_4 H 0.6679 0.8425 0.2241
C37_4 C 0.79834(15) 0.70941(10) 0.2626(2)
C38_4 C 0.70166(15) 0.79059(10) 0.2374(2)
C39_4 C 0.79834(15) 0.79059(10) 0.2626(2)
H22_4 H 0.8325 0.7220 0.2703
H23_4 H 0.8325 0.7780 0.2703
H24_4 H 0.6675 0.7780 0.2297
C40_4 C 0.7500 0.77063(11) 0.2500
N2_4 N 0.7500 0.88840(9) 0.2500
O6_4 O 0.93947(8) 0.99655(6) 0.10639(13)
loop_
_geom_bond_atom_site_label_1
_geom_bond_atom_site_label_2
_geom_bond_site_symmetry_1
_geom_bond_site_symmetry_2
O9 Co7 1_555 1_555
C1 C4 1_555 1_555
C2 H1 1_555 1_555
C3 H2 1_555 1_555
C4 C2 1_555 1_555
C5 C2 1_555 1_555
H3 C5 1_555 1_555
C6 C3 1_555 1_555
H4 C6 1_555 1_555
C7 C3 1_555 1_555
C8 C9 1_555 1_555
C9 H5 1_555 1_555
C10 C9 1_555 1_555
H6 C10 1_555 1_555
C11 C10 1_555 1_555
N1 C7 1_555 1_555
O1 C1 1_555 1_555
O2 Co1 1_555 1_555
O3 C1 1_555 1_555
Co1 O1 1_555 1_555
C12 C21 1_555 1_555
C13 C22 1_555 1_555
C14 C23 1_555 1_555
C15 H7 1_555 1_555
C16 H8 1_555 1_555
C17 H9 1_555 1_555
C18 H10 1_555 1_555
C19 H11 1_555 1_555
C20 H12 1_555 1_555
C21 C15 1_555 1_555
C22 C16 1_555 1_555
C23 C17 1_555 1_555
C24 C15 1_555 1_555
C25 C16 1_555 1_555
C26 C17 1_555 1_555
H13 C24 1_555 1_555
H14 C25 1_555 1_555
H15 C26 1_555 1_555
C27 C18 1_555 1_555
C28 C19 1_555 1_555
C29 C20 1_555 1_555
H16 C27 1_555 1_555
H17 C28 1_555 1_555
H18 C29 1_555 1_555
C30 N1 1_555 1_555
C31 C19 1_555 1_555
C32 C20 1_555 1_555
C33 C35 1_555 1_555
C34 C8 1_555 1_555
C35 H21 1_555 1_555
C36 C33 1_555 1_555
H19 C34 1_555 1_555
H20 C36 1_555 1_555
C37 C11 1_555 1_555
C38 C35 1_555 1_555
C39 C36 1_555 1_555
H22 C37 1_555 1_555
H23 C39 1_555 1_555
H24 C38 1_555 1_555
C40 C11 1_555 1_555
N2 C31 1_555 1_555
O4 C12 1_555 1_555
O5 C13 1_555 1_555
O6 C14 1_555 1_555
O7 Co1 1_555 1_555
O10 C12 1_555 1_555
O11 C13 1_555 1_555
O12 C14 1_555 1_555
O13 Co1 1_555 1_555
O14 Co1 1_555 1_555
Co2_2 O4 1_555 1_555
Co3 O3 1_555 1_555
Co6 O11 1_555 1_555
C4 C6 1_555 1_555
C5 C7 1_555 1_555
C8 N1 1_555 1_555
C18 C30 1_555 1_555
C21 C27 1_555 1_555
C22 C28 1_555 1_555
C23 C29 1_555 1_555
C24 C30 1_555 1_555
C25 C31 1_555 1_555
C26 C32 1_555 1_555
C32 N2 1_555 1_555
C33 N2 1_555 1_555
C34 C37 1_555 1_555
C38 C40 1_555 1_555
C39 C40 1_555 1_555
O9_2 Co7_2 1_555 1_555
C1_2 C4_2 1_555 1_555
C2_2 H1_2 1_555 1_555
C3_2 H2_2 1_555 1_555
C4_2 C2_2 1_555 1_555
C5_2 C2_2 1_555 1_555
H3_2 C5_2 1_555 1_555
C6_2 C3_2 1_555 1_555
H4_2 C6_2 1_555 1_555
C7_2 C3_2 1_555 1_555
C8_2 C9_2 1_555 1_555
C9_2 H5_2 1_555 1_555
C10_2 C9_2 1_555 1_555
H6_2 C10_2 1_555 1_555
C11_2 C10_2 1_555 1_555
N1_2 C7_2 1_555 1_555
O1_2 C1_2 1_555 1_555
O3_2 C1_2 1_555 1_555
C12_2 C21_2 1_555 1_555
C13_2 C22_2 1_555 1_555
C14_2 C23_2 1_555 1_555
C15_2 H7_2 1_555 1_555
C16_2 H8_2 1_555 1_555
C17_2 H9_2 1_555 1_555
C18_2 H10_2 1_555 1_555
C19_2 H11_2 1_555 1_555
C20_2 H12_2 1_555 1_555
C21_2 C15_2 1_555 1_555
C22_2 C16_2 1_555 1_555
C23_2 C17_2 1_555 1_555
C24_2 C15_2 1_555 1_555
C25_2 C16_2 1_555 1_555
C26_2 C17_2 1_555 1_555
H13_2 C24_2 1_555 1_555
H14_2 C25_2 1_555 1_555
H15_2 C26_2 1_555 1_555
C27_2 C18_2 1_555 1_555
C28_2 C19_2 1_555 1_555
C29_2 C20_2 1_555 1_555
H16_2 C27_2 1_555 1_555
H17_2 C28_2 1_555 1_555
H18_2 C29_2 1_555 1_555
C30_2 N1_2 1_555 1_555
C31_2 C19_2 1_555 1_555
C32_2 C20_2 1_555 1_555
C33_2 C35_2 1_555 1_555
C34_2 C8_2 1_555 1_555
C35_2 H21_2 1_555 1_555
C36_2 C33_2 1_555 1_555
H19_2 C34_2 1_555 1_555
H20_2 C36_2 1_555 1_555
C37_2 C11_2 1_555 1_555
C38_2 C35_2 1_555 1_555
C39_2 C36_2 1_555 1_555
H22_2 C37_2 1_555 1_555
H23_2 C39_2 1_555 1_555
H24_2 C38_2 1_555 1_555
C40_2 C11_2 1_555 1_555
N2_2 C31_2 1_555 1_555
O8 C12_2 1_555 1_555
O7 C13_2 1_555 1_555
O6_2 C14_2 1_555 1_555
O9_3 Co2 1_555 1_555
O10_2 C12_2 1_555 1_555
O11_2 C13_2 1_555 1_555
O12_2 C14_2 1_555 1_555
Co6 O3_2 1_555 1_555
Co3 O11_2 1_555 1_555
Co2 O6_2 1_555 1_555
C4_2 C6_2 1_555 1_555
C5_2 C7_2 1_555 1_555
C8_2 N1_2 1_555 1_555
C18_2 C30_2 1_555 1_555
C21_2 C27_2 1_555 1_555
C22_2 C28_2 1_555 1_555
C23_2 C29_2 1_555 1_555
C24_2 C30_2 1_555 1_555
C25_2 C31_2 1_555 1_555
C26_2 C32_2 1_555 1_555
C32_2 N2_2 1_555 1_555
C33_2 N2_2 1_555 1_555
C34_2 C37_2 1_555 1_555
C38_2 C40_2 1_555 1_555
C39_2 C40_2 1_555 1_555
O2_2 Co5 1_555 1_555
O13_2 Co5 1_555 1_555
O14_2 Co5 1_555 1_555
O9_4 Co2_2 1_555 1_555
O2_3 Co6 1_555 1_555
C1_3 C4_3 1_555 1_555
C2_3 H1_3 1_555 1_555
C3_3 H2_3 1_555 1_555
C4_3 C2_3 1_555 1_555
C5_3 C2_3 1_555 1_555
H3_3 C5_3 1_555 1_555
C6_3 C3_3 1_555 1_555
H4_3 C6_3 1_555 1_555
C7_3 C3_3 1_555 1_555
C8_3 C9_3 1_555 1_555
C9_3 H5_3 1_555 1_555
C10_3 C9_3 1_555 1_555
H6_3 C10_3 1_555 1_555
C11_3 C10_3 1_555 1_555
N1_3 C7_3 1_555 1_555
O1_3 C1_3 1_555 1_555
O13_2 C1_3 1_555 1_555
C12_3 C21_3 1_555 1_555
C13_3 C22_3 1_555 1_555
C14_3 C23_3 1_555 1_555
C15_3 H7_3 1_555 1_555
C16_3 H8_3 1_555 1_555
C17_3 H9_3 1_555 1_555
C18_3 H10_3 1_555 1_555
C19_3 H11_3 1_555 1_555
C20_3 H12_3 1_555 1_555
C21_3 C15_3 1_555 1_555
C22_3 C16_3 1_555 1_555
C23_3 C17_3 1_555 1_555
C24_3 C15_3 1_555 1_555
C25_3 C16_3 1_555 1_555
C26_3 C17_3 1_555 1_555
H13_3 C24_3 1_555 1_555
H14_3 C25_3 1_555 1_555
H15_3 C26_3 1_555 1_555
C27_3 C18_3 1_555 1_555
C28_3 C19_3 1_555 1_555
C29_3 C20_3 1_555 1_555
H16_3 C27_3 1_555 1_555
H17_3 C28_3 1_555 1_555
H18_3 C29_3 1_555 1_555
C30_3 N1_3 1_555 1_555
C31_3 C19_3 1_555 1_555
C32_3 C20_3 1_555 1_555
C33_3 C35_3 1_555 1_555
C34_3 C8_3 1_555 1_555
C35_3 H21_3 1_555 1_555
C36_3 C33_3 1_555 1_555
H19_3 C34_3 1_555 1_555
H20_3 C36_3 1_555 1_555
C37_3 C11_3 1_555 1_555
C38_3 C35_3 1_555 1_555
C39_3 C36_3 1_555 1_555
H22_3 C37_3 1_555 1_555
H23_3 C39_3 1_555 1_555
H24_3 C38_3 1_555 1_555
C40_3 C11_3 1_555 1_555
N2_3 C31_3 1_555 1_555
O4_2 C12_3 1_555 1_555
O5_2 C13_3 1_555 1_555
O6_3 C14_3 1_555 1_555
O9_5 Co4 1_555 1_555
O15 C12_3 1_555 1_555
O14 C13_3 1_555 1_555
O16_2 C14_3 1_555 1_555
Co3 O5_2 1_555 1_555
Co4 O6_3 1_555 1_555
C4_3 C6_3 1_555 1_555
C5_3 C7_3 1_555 1_555
C8_3 N1_3 1_555 1_555
C18_3 C30_3 1_555 1_555
C21_3 C27_3 1_555 1_555
C22_3 C28_3 1_555 1_555
C23_3 C29_3 1_555 1_555
C24_3 C30_3 1_555 1_555
C25_3 C31_3 1_555 1_555
C26_3 C32_3 1_555 1_555
C32_3 N2_3 1_555 1_555
C33_3 N2_3 1_555 1_555
C34_3 C37_3 1_555 1_555
C38_3 C40_3 1_555 1_555
C39_3 C40_3 1_555 1_555
O8_2 Co4_2 1_555 1_555
O9_6 Co4_2 1_555 1_555
O9_7 Co8 1_555 1_555
O9_8 Co8_2 1_555 1_555
C1_4 C4_4 1_555 1_555
C2_4 H1_4 1_555 1_555
C3_4 H2_4 1_555 1_555
C4_4 C2_4 1_555 1_555
C5_4 C2_4 1_555 1_555
H3_4 C5_4 1_555 1_555
C6_4 C3_4 1_555 1_555
H4_4 C6_4 1_555 1_555
C7_4 C3_4 1_555 1_555
C8_4 C9_4 1_555 1_555
C9_4 H5_4 1_555 1_555
C10_4 C9_4 1_555 1_555
H6_4 C10_4 1_555 1_555
C11_4 C10_4 1_555 1_555
N1_4 C7_4 1_555 1_555
O1_4 C1_4 1_555 1_555
O2_4 Co3 1_555 1_555
O13 C1_4 1_555 1_555
Co3 O1_4 1_555 1_555
C12_4 C21_4 1_555 1_555
C13_4 C22_4 1_555 1_555
C14_4 C23_4 1_555 1_555
C15_4 H7_4 1_555 1_555
C16_4 H8_4 1_555 1_555
C17_4 H9_4 1_555 1_555
C18_4 H10_4 1_555 1_555
C19_4 H11_4 1_555 1_555
C20_4 H12_4 1_555 1_555
C21_4 C15_4 1_555 1_555
C22_4 C16_4 1_555 1_555
C23_4 C17_4 1_555 1_555
C24_4 C15_4 1_555 1_555
C25_4 C16_4 1_555 1_555
C26_4 C17_4 1_555 1_555
H13_4 C24_4 1_555 1_555
H14_4 C25_4 1_555 1_555
H15_4 C26_4 1_555 1_555
C27_4 C18_4 1_555 1_555
C28_4 C19_4 1_555 1_555
C29_4 C20_4 1_555 1_555
H16_4 C27_4 1_555 1_555
H17_4 C28_4 1_555 1_555
H18_4 C29_4 1_555 1_555
C30_4 N1_4 1_555 1_555
C31_4 C19_4 1_555 1_555
C32_4 C20_4 1_555 1_555
C33_4 C35_4 1_555 1_555
C34_4 C8_4 1_555 1_555
C35_4 H21_4 1_555 1_555
C36_4 C33_4 1_555 1_555
H19_4 C34_4 1_555 1_555
H20_4 C36_4 1_555 1_555
C37_4 C11_4 1_555 1_555
C38_4 C35_4 1_555 1_555
C39_4 C36_4 1_555 1_555
H22_4 C37_4 1_555 1_555
H23_4 C39_4 1_555 1_555
H24_4 C38_4 1_555 1_555
C40_4 C11_4 1_555 1_555
N2_4 C31_4 1_555 1_555
O8_2 C12_4 1_555 1_555
O7_2 C13_4 1_555 1_555
O6_4 C14_4 1_555 1_555
O15_2 C12_4 1_555 1_555
O14_2 C13_4 1_555 1_555
O16 C14_4 1_555 1_555
C4_4 C6_4 1_555 1_555
C5_4 C7_4 1_555 1_555
C8_4 N1_4 1_555 1_555
C18_4 C30_4 1_555 1_555
C21_4 C27_4 1_555 1_555
C22_4 C28_4 1_555 1_555
C23_4 C29_4 1_555 1_555
C24_4 C30_4 1_555 1_555
C25_4 C31_4 1_555 1_555
C26_4 C32_4 1_555 1_555
C32_4 N2_4 1_555 1_555
C33_4 N2_4 1_555 1_555
C34_4 C37_4 1_555 1_555
C38_4 C40_4 1_555 1_555
C39_4 C40_4 1_555 1_555

#END
