
###############################################################################
#
# This file contains modified crystal structure data generated from the
# MOF subset of the Cambridge Structural Database (CSD) v543 
# hosted by the Cambridge Crystallographic Data Centre (CCDC).
#
# This work is licensed under the Creative Commons
# Attribution-NonCommercial-ShareAlike 4.0 International License.
# To view a copy of this license, visit
# http://creativecommons.org/licenses/by-nc-sa/4.0/
# or send a letter to
# Creative Commons, PO Box 1866, Mountain View, CA 94042, USA.
#
# CIF created using the CSD Python API on 29 September 2022
# The structure has been converted into the P1 space group
# The structure has a 3D framework
# The original CSD entry XAFXOT is in the triclinic crystal system
# The framework has been calculated to contain at least 10.0% void space
# The void calculation uses a probe of radius 1.32A, grid spacing 0.4
#
###############################################################################

data_XAFXOT
_chemical_formula_moiety         '(C24 H28 La2 N6 O16)n'
_symmetry_cell_setting           triclinic
_symmetry_space_group_name_H-M   'P 1'
_symmetry_Int_Tables_number      1
_space_group_name_Hall           'P 1'
loop_
_symmetry_equiv_pos_site_id
_symmetry_equiv_pos_as_xyz
1 x,y,z
_cell_length_a                   4.5588(2)
_cell_length_b                   11.9018(5)
_cell_length_c                   15.8005(6)
_cell_angle_alpha                85.912(4)
_cell_angle_beta                 84.811(3)
_cell_angle_gamma                83.249(3)
_cell_volume                     846.273
loop_
_atom_site_label
_atom_site_type_symbol
_atom_site_fract_x
_atom_site_fract_y
_atom_site_fract_z
_atom_site_U_iso_or_equiv
_atom_site_thermal_displace_type
La6 La 0.19167(4) 0.224261(15) 0.326333(12) 0.0099 Uani
O2 O 0.0516(5) 0.02403(19) 0.35126(16) 0.0208 Uani
O4 O 0.3634(5) 0.6526(2) 0.21226(15) 0.0252 Uani
O5 O 0.2346(5) 0.42553(19) 0.38787(16) 0.0208 Uani
O6 O 0.6778(5) 0.34303(18) 0.34863(14) 0.0164 Uani
N2 N 0.3925(5) 0.6404(2) 0.35440(17) 0.0125 Uani
C3 C 0.0309(7) 0.7821(3) 0.2895(2) 0.0146 Uani
H3 H 0.1078 0.8507 0.2609 0.0180 Uiso
C4 C 0.2744(7) 0.6852(3) 0.2831(2) 0.0142 Uani
C5 C 0.0246(6) 0.7625(2) 0.44563(19) 0.0108 Uani
C6 C 0.2757(6) 0.6695(3) 0.4398(2) 0.0123 Uani
H5 H 0.4397 0.6916 0.4698 0.0150 Uiso
H6 H 0.2087 0.6006 0.4708 0.0150 Uiso
C7 C 0.6222(6) 0.5442(3) 0.3491(2) 0.0161 Uani
H7 H 0.7640 0.5498 0.3921 0.0190 Uiso
H8 H 0.7325 0.5483 0.2922 0.0190 Uiso
C8 C 0.5006(6) 0.4305(3) 0.36341(19) 0.0116 Uani
O1 O 0.6013(5) 0.10212(18) 0.39300(14) 0.0159 Uani
C1 C 0.7857(6) 0.0184(3) 0.3755(2) 0.0129 Uani
H10 H 0.0304 0.0277 0.1276 0.0240 Uiso
O10 O 0.2499(5) 0.3641(2) 0.19548(16) 0.0259 Uani
H13 H 0.1773 0.3400 0.1542 0.0390 Uiso
H14 H 0.1474 0.4368 0.2083 0.0390 Uiso
O15 O 0.0748(5) 0.20812(19) 0.48274(14) 0.0183 Uani
O28 O 0.4409(5) 0.0998(2) 0.20653(14) 0.0212 Uani
O3 O 0.9252(5) 0.79188(19) 0.51726(14) 0.0183 Uani
N1 N 0.9093(5) 0.8091(2) 0.37546(16) 0.0103 Uani
C2 C 0.6725(6) 0.9024(2) 0.3830(2) 0.0133 Uani
H1 H 0.5573 0.8929 0.4387 0.0160 Uiso
H2 H 0.5368 0.8990 0.3380 0.0160 Uiso
H4 H 0.8667 0.7646 0.2575 0.0180 Uiso
La4 La 0.80833(4) 0.775739(15) 0.673667(12) 0.0099 Uani
O7 O 0.8039(5) 0.20133(19) 0.22626(14) 0.0197 Uani
N3 N 0.6954(5) 0.0370(2) 0.05256(16) 0.0152 Uani
C9 C 0.6904(7) 0.1323(3) 0.1872(2) 0.0140 Uani
C10 C 0.8725(7) 0.0862(3) 0.1090(2) 0.0201 Uani
H9 H 0.9694 0.1484 0.0772 0.0240 Uiso
H11 H 0.4272 0.1782 0.0273 0.0200 Uiso
C12 C 0.5423(7) 0.1182(3) 0.9938(2) 0.0170 Uani
H12 H 0.6932 0.1545 0.9558 0.0200 Uiso
O29 O 0.2002(5) 0.1396(2) 0.88961(15) 0.0268 Uani
C23 C 0.3360(7) 0.0725(3) 0.9395(2) 0.0162 Uani
O9 O 0.7998(5) 0.8604(2) 0.11039(15) 0.0268 Uani
C11 C 0.6640(7) 0.9275(3) 0.0605(2) 0.0162 Uani
C24 C 0.4577(7) 0.8818(3) 0.0062(2) 0.0170 Uani
H26 H 0.3068 0.8455 0.0442 0.0200 Uiso
O25 O 0.1961(5) 0.79867(19) 0.77374(14) 0.0197 Uani
O27 O 0.5591(5) 0.9002(2) 0.79347(14) 0.0212 Uani
N6 N 0.3046(5) 0.9630(2) 0.94744(16) 0.0152 Uani
C21 C 0.3096(7) 0.8677(3) 0.8128(2) 0.0140 Uani
C22 C 0.1275(7) 0.9138(3) 0.8910(2) 0.0201 Uani
H23 H 0.0306 0.8516 0.9228 0.0240 Uiso
H25 H 0.5728 0.8218 0.9727 0.0200 Uiso
H24 H 0.9696 0.9723 0.8724 0.0240 Uiso
O24 O 0.3222(5) 0.65697(18) 0.65137(14) 0.0164 Uani
N4 N 0.0907(5) 0.1909(2) 0.62454(16) 0.0103 Uani
C14 C 0.3275(6) 0.0976(2) 0.6170(2) 0.0133 Uani
H15 H 0.4427 0.1071 0.5613 0.0160 Uiso
H16 H 0.4632 0.1010 0.6620 0.0160 Uiso
H18 H 0.1333 0.2354 0.7425 0.0180 Uiso
O11 O 0.3987(5) 0.89788(18) 0.60700(14) 0.0159 Uani
O13 O 0.9484(5) 0.97597(19) 0.64874(16) 0.0208 Uani
O20 O 0.7654(5) 0.57447(19) 0.61213(16) 0.0208 Uani
C13 C 0.2143(6) 0.9816(3) 0.6245(2) 0.0129 Uani
O30 O 0.7501(5) 0.6359(2) 0.80452(16) 0.0259 Uani
H27 H 0.8227 0.6600 0.8458 0.0390 Uiso
H28 H 0.8526 0.5632 0.7917 0.0390 Uiso
O17 O 0.6366(5) 0.3474(2) 0.78774(15) 0.0252 Uani
N5 N 0.6075(5) 0.3596(2) 0.64560(17) 0.0125 Uani
C15 C 0.9691(7) 0.2179(3) 0.7105(2) 0.0146 Uani
H17 H 0.8922 0.1493 0.7391 0.0180 Uiso
C16 C 0.7256(7) 0.3148(3) 0.7169(2) 0.0142 Uani
C17 C 0.9754(6) 0.2375(2) 0.55437(19) 0.0108 Uani
C18 C 0.7243(6) 0.3305(3) 0.5602(2) 0.0123 Uani
H19 H 0.5603 0.3084 0.5302 0.0150 Uiso
H20 H 0.7913 0.3994 0.5292 0.0150 Uiso
C19 C 0.3778(6) 0.4558(3) 0.6509(2) 0.0161 Uani
H21 H 0.2360 0.4502 0.6079 0.0190 Uiso
H22 H 0.2675 0.4517 0.7078 0.0190 Uiso
C20 C 0.4994(6) 0.5695(3) 0.63659(19) 0.0116 Uani
loop_
_atom_site_aniso_label
_atom_site_aniso_U_11
_atom_site_aniso_U_22
_atom_site_aniso_U_33
_atom_site_aniso_U_23
_atom_site_aniso_U_13
_atom_site_aniso_U_12
La6 0.01117 0.00845 0.01027 -0.00234 -0.0021 0.0001
O2 0.0106 0.015 0.0361 0.0019 -0.0007 -0.002
O4 0.0245 0.0329 0.0168 -0.0095 -0.0002 0.0066
O5 0.0129 0.0149 0.0351 -0.0072 0.0005 -0.0026
O6 0.0172 0.0101 0.0217 -0.0043 -0.0032 0.0022
N2 0.0125 0.0082 0.0161 -0.0022 -0.0006 0.0022
C3 0.0165 0.0165 0.0101 -0.0003 -0.0021 0.0019
C4 0.0157 0.012 0.0151 -0.0042 -0.0012 -0.0008
C5 0.0106 0.0097 0.0125 -0.002 0.0001 -0.003
C6 0.0123 0.0105 0.0139 -0.0002 -0.0026 0.0004
C7 0.0115 0.0125 0.0233 -0.0026 -0.0014 0.0042
C8 0.0137 0.011 0.0106 -0.0025 -0.0061 0.0011
O1 0.0182 0.0111 0.0177 -0.002 -0.0035 0.004
C1 0.013 0.0119 0.0131 0.0031 -0.0059 0.0032
O10 0.0257 0.0277 0.0242 0.0077 -0.0057 -0.0056
O15 0.021 0.0213 0.0117 -0.004 0.0006 0.0023
O28 0.0125 0.0338 0.0183 -0.0119 0.0031 -0.004
O3 0.021 0.0213 0.0117 -0.004 0.0006 0.0023
N1 0.0113 0.0079 0.0115 -0.0028 -0.0017 0.0022
C2 0.0078 0.0104 0.0212 -0.0019 -0.0022 0.003
La4 0.01117 0.00845 0.01027 -0.00234 -0.0021 0.0001
O7 0.0264 0.0187 0.0164 -0.0073 -0.0098 -0.0021
N3 0.0114 0.0232 0.0115 -0.0087 -0.0004 0.0001
C9 0.0149 0.0148 0.0117 -0.0018 -0.0043 0.0036
C10 0.0116 0.034 0.0167 -0.0139 0.0013 -0.0052
C12 0.0154 0.0184 0.0183 -0.0057 -0.0019 -0.003
O29 0.0271 0.0299 0.023 0.0001 -0.0088 0.0032
C23 0.0124 0.0249 0.0106 -0.0055 0.0021 0.0013
O9 0.0271 0.0299 0.023 0.0001 -0.0088 0.0032
C11 0.0124 0.0249 0.0106 -0.0055 0.0021 0.0013
C24 0.0154 0.0184 0.0183 -0.0057 -0.0019 -0.003
O25 0.0264 0.0187 0.0164 -0.0073 -0.0098 -0.0021
O27 0.0125 0.0338 0.0183 -0.0119 0.0031 -0.004
N6 0.0114 0.0232 0.0115 -0.0087 -0.0004 0.0001
C21 0.0149 0.0148 0.0117 -0.0018 -0.0043 0.0036
C22 0.0116 0.034 0.0167 -0.0139 0.0013 -0.0052
O24 0.0172 0.0101 0.0217 -0.0043 -0.0032 0.0022
N4 0.0113 0.0079 0.0115 -0.0028 -0.0017 0.0022
C14 0.0078 0.0104 0.0212 -0.0019 -0.0022 0.003
O11 0.0182 0.0111 0.0177 -0.002 -0.0035 0.004
O13 0.0106 0.015 0.0361 0.0019 -0.0007 -0.002
O20 0.0129 0.0149 0.0351 -0.0072 0.0005 -0.0026
C13 0.013 0.0119 0.0131 0.0031 -0.0059 0.0032
O30 0.0257 0.0277 0.0242 0.0077 -0.0057 -0.0056
O17 0.0245 0.0329 0.0168 -0.0095 -0.0002 0.0066
N5 0.0125 0.0082 0.0161 -0.0022 -0.0006 0.0022
C15 0.0165 0.0165 0.0101 -0.0003 -0.0021 0.0019
C16 0.0157 0.012 0.0151 -0.0042 -0.0012 -0.0008
C17 0.0106 0.0097 0.0125 -0.002 0.0001 -0.003
C18 0.0123 0.0105 0.0139 -0.0002 -0.0026 0.0004
C19 0.0115 0.0125 0.0233 -0.0026 -0.0014 0.0042
C20 0.0137 0.011 0.0106 -0.0025 -0.0061 0.0011
loop_
_geom_bond_atom_site_label_1
_geom_bond_atom_site_label_2
_geom_bond_site_symmetry_1
_geom_bond_site_symmetry_2
La6 O2 1_555 1_555
O4 C4 1_555 1_555
O5 C8 1_555 1_555
O6 C8 1_555 1_555
N2 C4 1_555 1_555
H3 C3 1_555 1_555
C4 C3 1_555 1_555
C6 N2 1_555 1_555
H5 C6 1_555 1_555
H6 C6 1_555 1_555
C7 N2 1_555 1_555
H7 C7 1_555 1_555
H8 C7 1_555 1_555
C8 C7 1_555 1_555
La6 O5 1_555 1_555
O6 La6 1_555 1_555
C5 C6 1_555 1_555
La6 O1 1_555 1_555
O1 C1 1_555 1_555
O10 La6 1_555 1_555
H13 O10 1_555 1_555
H14 O10 1_555 1_555
O15 La6 1_555 1_555
O28 La6 1_555 1_555
N1 C2 1_555 1_555
C2 H1 1_555 1_555
H2 C2 1_555 1_555
La4 O3 1_555 1_555
O28 C9 1_555 1_555
N3 C10 1_555 1_555
C9 O7 1_555 1_555
C10 C9 1_555 1_555
H9 C10 1_555 1_555
H12 C12 1_555 1_555
O29 C23 1_555 1_555
C23 C12 1_555 1_555
O9 C11 1_555 1_555
C24 C11 1_555 1_555
H26 C24 1_555 1_555
La4 O27 1_555 1_555
O25 C21 1_555 1_555
O27 C21 1_555 1_555
N6 C22 1_555 1_555
C21 C22 1_555 1_555
C22 H23 1_555 1_555
N4 C14 1_555 1_555
H15 C14 1_555 1_555
H16 C14 1_555 1_555
O11 La4 1_555 1_555
O13 La4 1_555 1_555
O20 La4 1_555 1_555
C13 O11 1_555 1_555
O30 La4 1_555 1_555
H27 O30 1_555 1_555
H28 O30 1_555 1_555
La4 O24 1_555 1_555
O17 C16 1_555 1_555
O20 C20 1_555 1_555
N5 C16 1_555 1_555
H17 C15 1_555 1_555
C16 C15 1_555 1_555
C18 N5 1_555 1_555
H19 C18 1_555 1_555
H20 C18 1_555 1_555
C19 N5 1_555 1_555
H21 C19 1_555 1_555
H22 C19 1_555 1_555
C20 O24 1_555 1_555
C17 C18 1_555 1_555
C19 C20 1_555 1_555

#END
