
###############################################################################
#
# This file contains modified crystal structure data generated from the
# MOF subset of the Cambridge Structural Database (CSD) v543 
# hosted by the Cambridge Crystallographic Data Centre (CCDC).
#
# This work is licensed under the Creative Commons
# Attribution-NonCommercial-ShareAlike 4.0 International License.
# To view a copy of this license, visit
# http://creativecommons.org/licenses/by-nc-sa/4.0/
# or send a letter to
# Creative Commons, PO Box 1866, Mountain View, CA 94042, USA.
#
# CIF created using the CSD Python API on 29 September 2022
# The structure has been converted into the P1 space group
# The structure has a 3D framework
# The original CSD entry XAFYAG is in the monoclinic crystal system
# The framework has been calculated to contain at least 10.0% void space
# The void calculation uses a probe of radius 1.32A, grid spacing 0.4
#
###############################################################################

data_XAFYAG
_chemical_formula_moiety         '(C48 H56 N12 O33 Sm4)n'
_symmetry_cell_setting           triclinic
_symmetry_space_group_name_H-M   'P 1'
_symmetry_Int_Tables_number      1
_space_group_name_Hall           'P 1'
loop_
_symmetry_equiv_pos_site_id
_symmetry_equiv_pos_as_xyz
1 x,y,z
_cell_length_a                   7.80280(10)
_cell_length_b                   19.2619(3)
_cell_length_c                   12.6700(2)
_cell_angle_alpha                90
_cell_angle_beta                 98.9750(10)
_cell_angle_gamma                90
_cell_volume                     1880.95
loop_
_atom_site_label
_atom_site_type_symbol
_atom_site_fract_x
_atom_site_fract_y
_atom_site_fract_z
O24 O 0.0721(4) 0.00297(19) 0.6170(2)
O6 O 0.2796(4) 0.4114(2) 0.0114(3)
Sm4 Sm 0.26247(2) 0.533052(11) 0.018185(17)
Sm7 Sm 0.23753(2) 0.033052(11) 0.481815(17)
O25 O 0.1317(4) 0.02707(17) 0.2898(3)
H25 H 0.0487 0.0887 0.1061
O1 O 0.5198(4) 0.01844(17) 0.6027(3)
O2 O 0.3559(4) 0.10419(18) 0.6409(3)
O3 O 0.5617(6) 0.0882(2) 0.9299(4)
O4 O 0.3759(7) 0.3170(2) 0.7152(4)
O5 O 0.5368(4) 0.37357(17) 0.9761(3)
O9 O 0.0559(5) 0.1218(2) 0.9080(3)
N1 N 0.5962(5) 0.1594(2) 0.7936(3)
N2 N 0.3954(5) 0.2592(2) 0.8737(3)
N3 N 0.0692(5) 0.0049(2) 0.9040(3)
C1 C 0.4977(5) 0.0731(2) 0.6546(3)
C2 C 0.6505(6) 0.1027(3) 0.7314(4)
H1 H 0.7026 0.0656 0.7801
H2 H 0.7401 0.1195 0.6902
C3 C 0.5815(9) 0.2260(3) 0.7461(5)
H3 H 0.5608 0.2202 0.6675
H4 H 0.6937 0.2504 0.7654
C4 C 0.4409(8) 0.2710(3) 0.7770(4)
C5 C 0.5507(7) 0.1480(3) 0.8882(4)
C6 C 0.4830(7) 0.2074(3) 0.9443(4)
H5 H 0.4015 0.1894 0.9903
H6 H 0.5810 0.2296 0.9913
C7 C 0.2824(7) 0.3061(3) 0.9160(5)
H7 H 0.2223 0.2808 0.9676
H8 H 0.1929 0.3223 0.8571
C8 C 0.3738(6) 0.3692(3) 0.9718(4)
C10 C 0.1474(6) 0.0037(3) 0.8067(4)
H10 H 0.2094 0.0481 0.8010
C11 C 0.0327(6) 0.0637(3) 0.9482(4)
O10 O 0.3816(4) 0.13061(19) 0.4205(3)
H13 H 0.4278 0.1190 0.3676
H14 H 0.2988 0.1669 0.4000
Sm3 Sm 0.73753(2) 0.466948(11) 0.981815(17)
O16 O 0.0368(4) 0.12643(17) 0.4761(3)
O20 O 0.7796(4) 0.0886(2) 0.5114(3)
C9 C 0.0191(6) 0.9933(2) 0.7057(4)
H9 H 0.2343 0.9659 0.8124
C12 C 0.0357(7) 0.9360(3) 0.9474(4)
H12 H 0.1451 0.9092 0.9568
Sm2 Sm 0.76247(2) 0.966948(11) 0.518185(17)
O11 O 0.4802(4) 0.98156(17) 0.3973(3)
O12 O 0.6441(4) 0.89581(18) 0.3591(3)
O13 O 0.4383(6) 0.9118(2) 0.0701(4)
O14 O 0.6241(7) 0.6830(2) 0.2848(4)
O15 O 0.4632(4) 0.62643(17) 0.0239(3)
O17 O 0.9632(4) 0.87357(17) 0.5239(3)
O19 O 0.2204(4) 0.9114(2) 0.4886(3)
O23 O 0.9279(4) 0.99703(19) 0.3830(2)
O27 O 0.8683(4) 0.97293(17) 0.7102(3)
N4 N 0.4038(5) 0.8406(2) 0.2064(3)
N5 N 0.6046(5) 0.7408(2) 0.1263(3)
C13 C 0.5023(5) 0.9269(2) 0.3454(3)
C14 C 0.3495(6) 0.8973(3) 0.2686(4)
H15 H 0.2974 0.9344 0.2199
H16 H 0.2599 0.8805 0.3098
C15 C 0.4185(9) 0.7740(3) 0.2539(5)
H17 H 0.4392 0.7798 0.3325
H18 H 0.3063 0.7496 0.2346
C16 C 0.5591(8) 0.7290(3) 0.2230(4)
C17 C 0.4493(7) 0.8520(3) 0.1118(4)
C18 C 0.5170(7) 0.7926(3) 0.0557(4)
H19 H 0.5985 0.8106 0.0097
H20 H 0.4190 0.7704 0.0087
C19 C 0.7176(7) 0.6939(3) 0.0840(5)
H21 H 0.7777 0.7192 0.0324
H22 H 0.8071 0.6777 0.1429
C20 C 0.6262(6) 0.6308(3) 0.0282(4)
O29 O 0.6184(4) 0.86939(19) 0.5795(3)
H27 H 0.5722 0.8810 0.6324
H28 H 0.7012 0.8331 0.6000
O18 O 0.7204(4) 0.5886(2) 0.9886(3)
C21 C 0.9809(6) 0.0067(2) 0.2943(4)
H23 H 0.7657 0.0341 0.1876
C24 C 0.9643(7) 0.0640(3) 0.0526(4)
H26 H 0.8549 0.0908 0.0432
O28 O 0.9441(5) 0.8782(2) 0.0920(3)
N6 N 0.9308(5) 0.9951(2) 0.0960(3)
C22 C 0.8526(6) 0.9963(3) 0.1933(4)
H24 H 0.7906 0.9519 0.1990
C23 C 0.9673(6) 0.9363(3) 0.0518(4)
H11 H 0.9513 0.9113 0.8939
O10_2 O 0.1184(4) 0.63061(19) 0.0795(3)
H13_2 H 0.0722 0.6190 0.1324
H14_2 H 0.2012 0.6669 0.1000
O11_2 O 0.0198(4) 0.48156(17) 0.1027(3)
O13_2 O 0.0617(6) 0.4118(2) 0.4299(4)
O22 O 0.5721(4) 0.49703(19) 0.1170(2)
O26 O 0.3683(4) 0.52707(17) 0.2102(3)
N4_2 N 0.0962(5) 0.3406(2) 0.2936(3)
C14_2 C 0.1505(6) 0.3973(3) 0.2314(4)
H15_2 H 0.2026 0.4344 0.2801
H16_2 H 0.2401 0.3805 0.1902
C15_2 C 0.0815(9) 0.2740(3) 0.2461(5)
H17_2 H 0.0608 0.2798 0.1675
H18_2 H 0.1937 0.2496 0.2654
C17_2 C 0.0507(7) 0.3520(3) 0.3882(4)
H20_2 H 0.0810 0.2704 0.4913
O2_2 O 0.1441(4) 0.60419(18) 0.8591(3)
O4_2 O 0.1241(7) 0.8170(2) 0.7848(4)
O7 O 0.4279(4) 0.50297(19) 0.8830(2)
O8 O 0.6317(4) 0.47293(17) 0.7898(3)
O9_2 O 0.4441(5) 0.6218(2) 0.5920(3)
N2_2 N 0.1046(5) 0.7592(2) 0.6263(3)
N3_2 N 0.4308(5) 0.5049(2) 0.5960(3)
C1_2 C 0.0023(5) 0.5731(2) 0.8454(3)
C4_2 C 0.0591(8) 0.7710(3) 0.7230(4)
C6_2 C 0.0170(7) 0.7074(3) 0.5557(4)
H5_2 H 0.0985 0.6894 0.5097
C7_2 C 0.2176(7) 0.8061(3) 0.5840(5)
H7_2 H 0.2777 0.7808 0.5324
H8_2 H 0.3071 0.8223 0.6429
C8_2 C 0.1262(6) 0.8692(3) 0.5282(4)
C9_2 C 0.4809(6) 0.4933(2) 0.7943(4)
C10_2 C 0.3526(6) 0.5037(3) 0.6933(4)
H9_2 H 0.2657 0.4659 0.6876
H10_2 H 0.2906 0.5481 0.6990
C11_2 C 0.4673(6) 0.5637(3) 0.5518(4)
C12_2 C 0.4643(7) 0.4360(3) 0.5526(4)
H11_2 H 0.5487 0.4113 0.6061
H12_2 H 0.3549 0.4092 0.5432
O28_2 O 0.5559(5) 0.3782(2) 0.4080(3)
N6_2 N 0.5692(5) 0.4951(2) 0.4040(3)
C21_2 C 0.5191(6) 0.5067(2) 0.2057(4)
C22_2 C 0.6474(6) 0.4963(3) 0.3067(4)
H23_2 H 0.7343 0.5341 0.3124
H24_2 H 0.7094 0.4519 0.3010
C23_2 C 0.5327(6) 0.4363(3) 0.4482(4)
C24_2 C 0.5357(7) 0.5640(3) 0.4474(4)
H25_2 H 0.4513 0.5887 0.3939
H26_2 H 0.6451 0.5908 0.4568
O12_2 O 0.8559(4) 0.39581(18) 0.1409(3)
O14_2 O 0.8759(7) 0.1830(2) 0.2152(4)
N5_2 N 0.8954(5) 0.2408(2) 0.3737(3)
C13_2 C 0.9977(5) 0.4269(2) 0.1546(3)
C16_2 C 0.9409(8) 0.2290(3) 0.2770(4)
C18_2 C 0.9830(7) 0.2926(3) 0.4443(4)
H19_2 H 0.9015 0.3106 0.4903
C19_2 C 0.7824(7) 0.1939(3) 0.4160(5)
H21_2 H 0.7223 0.2192 0.4676
H22_2 H 0.6929 0.1777 0.3571
C20_2 C 0.8738(6) 0.1308(3) 0.4718(4)
O1_2 O 0.9802(4) 0.51844(17) 0.8973(3)
O3_2 O 0.9383(6) 0.5882(2) 0.5701(4)
N1_2 N 0.9038(5) 0.6594(2) 0.7064(3)
C2_2 C 0.8495(6) 0.6027(3) 0.7686(4)
H1_2 H 0.7974 0.5656 0.7199
H2_2 H 0.7599 0.6195 0.8098
C3_2 C 0.9185(9) 0.7260(3) 0.7539(5)
H3_2 H 0.9392 0.7202 0.8325
H4_2 H 0.8063 0.7504 0.7346
C5_2 C 0.9493(7) 0.6480(3) 0.6118(4)
H6_2 H 0.9190 0.7296 0.5087
O29_2 O 0.8816(4) 0.36939(19) 0.9205(3)
H27_2 H 0.9278 0.3810 0.8676
H28_2 H 0.7988 0.3331 0.9000
loop_
_geom_bond_atom_site_label_1
_geom_bond_atom_site_label_2
_geom_bond_site_symmetry_1
_geom_bond_site_symmetry_2
Sm4 O6 1_555 1_555
O25 Sm7 1_555 1_555
Sm7 O1 1_555 1_555
O1 C1 1_555 1_555
O2 Sm7 1_555 1_555
O3 C5 1_555 1_555
O4 C4 1_555 1_555
O5 C8 1_555 1_555
O24 Sm7 1_555 1_555
O9 C11 1_555 1_555
N1 C2 1_555 1_555
N2 C4 1_555 1_555
N3 C10 1_555 1_555
C1 O2 1_555 1_555
C2 C1 1_555 1_555
H1 C2 1_555 1_555
H2 C2 1_555 1_555
C3 N1 1_555 1_555
H3 C3 1_555 1_555
H4 C3 1_555 1_555
C4 C3 1_555 1_555
C5 N1 1_555 1_555
C6 N2 1_555 1_555
H5 C6 1_555 1_555
H6 C6 1_555 1_555
C7 N2 1_555 1_555
H7 C7 1_555 1_555
H8 C7 1_555 1_555
C8 C7 1_555 1_555
H10 C10 1_555 1_555
C11 N3 1_555 1_555
O10 Sm7 1_555 1_555
H13 O10 1_555 1_555
H14 O10 1_555 1_555
Sm3 O5 1_555 1_555
O16 Sm7 1_555 1_555
C5 C6 1_555 1_555
H12 C12 1_555 1_555
Sm4 O15 1_555 1_555
O12 Sm2 1_555 1_555
O13 C17 1_555 1_555
O14 C16 1_555 1_555
O15 C20 1_555 1_555
O17 Sm2 1_555 1_555
O23 Sm2 1_555 1_555
O27 Sm2 1_555 1_555
N4 C14 1_555 1_555
N5 C16 1_555 1_555
C13 O11 1_555 1_555
C14 C13 1_555 1_555
H15 C14 1_555 1_555
H16 C14 1_555 1_555
C15 N4 1_555 1_555
H17 C15 1_555 1_555
H18 C15 1_555 1_555
C16 C15 1_555 1_555
C17 N4 1_555 1_555
C18 N5 1_555 1_555
H19 C18 1_555 1_555
H20 C18 1_555 1_555
C19 N5 1_555 1_555
H21 C19 1_555 1_555
H22 C19 1_555 1_555
C20 C19 1_555 1_555
O29 Sm2 1_555 1_555
H27 O29 1_555 1_555
H28 O29 1_555 1_555
Sm2 O11 1_555 1_555
O12 C13 1_555 1_555
C17 C18 1_555 1_555
Sm3 O18 1_555 1_555
H26 C24 1_555 1_555
O28 C23 1_555 1_555
N6 C22 1_555 1_555
H24 C22 1_555 1_555
N6 C23 1_555 1_555
O10_2 Sm4 1_555 1_555
H13_2 O10_2 1_555 1_555
H14_2 O10_2 1_555 1_555
O11_2 Sm4 1_555 1_555
O13_2 C17_2 1_555 1_555
O22 Sm4 1_555 1_555
O26 Sm4 1_555 1_555
N4_2 C14_2 1_555 1_555
H15_2 C14_2 1_555 1_555
H16_2 C14_2 1_555 1_555
C15_2 N4_2 1_555 1_555
H17_2 C15_2 1_555 1_555
H18_2 C15_2 1_555 1_555
C17_2 N4_2 1_555 1_555
O4_2 C4_2 1_555 1_555
O19 C8_2 1_555 1_555
O8 C9_2 1_555 1_555
O9_2 C11_2 1_555 1_555
N2_2 C4_2 1_555 1_555
N3_2 C10_2 1_555 1_555
C1_2 O2_2 1_555 1_555
C6_2 N2_2 1_555 1_555
H5_2 C6_2 1_555 1_555
C7_2 N2_2 1_555 1_555
H7_2 C7_2 1_555 1_555
H8_2 C7_2 1_555 1_555
C8_2 C7_2 1_555 1_555
C9_2 O7 1_555 1_555
C10_2 C9_2 1_555 1_555
H9_2 C10_2 1_555 1_555
H10_2 C10_2 1_555 1_555
C11_2 N3_2 1_555 1_555
C12_2 N3_2 1_555 1_555
H11_2 C12_2 1_555 1_555
H12_2 C12_2 1_555 1_555
Sm3 O7 1_555 1_555
O22 C21_2 1_555 1_555
O28_2 C23_2 1_555 1_555
N6_2 C22_2 1_555 1_555
C21_2 O26 1_555 1_555
C22_2 C21_2 1_555 1_555
H23_2 C22_2 1_555 1_555
H24_2 C22_2 1_555 1_555
C23_2 C12_2 1_555 1_555
C24_2 C11_2 1_555 1_555
H25_2 C24_2 1_555 1_555
H26_2 C24_2 1_555 1_555
O8 Sm3 1_555 1_555
N6_2 C23_2 1_555 1_555
N6_2 C24_2 1_555 1_555
O14_2 C16_2 1_555 1_555
O20 C20_2 1_555 1_555
N5_2 C16_2 1_555 1_555
C18_2 N5_2 1_555 1_555
H19_2 C18_2 1_555 1_555
C19_2 N5_2 1_555 1_555
H21_2 C19_2 1_555 1_555
H22_2 C19_2 1_555 1_555
C20_2 C19_2 1_555 1_555
O12_2 C13_2 1_555 1_555
O3_2 C5_2 1_555 1_555
N1_2 C2_2 1_555 1_555
H1_2 C2_2 1_555 1_555
H2_2 C2_2 1_555 1_555
C3_2 N1_2 1_555 1_555
H3_2 C3_2 1_555 1_555
H4_2 C3_2 1_555 1_555
C5_2 N1_2 1_555 1_555
Sm3 O1_2 1_555 1_555
O29_2 Sm3 1_555 1_555
H27_2 O29_2 1_555 1_555
H28_2 O29_2 1_555 1_555

#END
