
###############################################################################
#
# This file contains modified crystal structure data generated from the
# MOF subset of the Cambridge Structural Database (CSD) v543 
# hosted by the Cambridge Crystallographic Data Centre (CCDC).
#
# This work is licensed under the Creative Commons
# Attribution-NonCommercial-ShareAlike 4.0 International License.
# To view a copy of this license, visit
# http://creativecommons.org/licenses/by-nc-sa/4.0/
# or send a letter to
# Creative Commons, PO Box 1866, Mountain View, CA 94042, USA.
#
# CIF created using the CSD Python API on 29 September 2022
# The structure has been converted into the P1 space group
# The structure has a 3D framework
# The original CSD entry XAGCAM is in the rhombohedral crystal system
# The framework has been calculated to contain at least 10.0% void space
# The void calculation uses a probe of radius 1.32A, grid spacing 0.4
#
###############################################################################

data_XAGCAM
_chemical_formula_moiety         '(C126 H72 Cd18 Cl18 N72)n'
_symmetry_cell_setting           triclinic
_symmetry_space_group_name_H-M   'P 1'
_symmetry_Int_Tables_number      1
_space_group_name_Hall           'P 1'
loop_
_symmetry_equiv_pos_site_id
_symmetry_equiv_pos_as_xyz
1 x,y,z
_cell_length_a                   21.4709(14)
_cell_length_b                   21.4709(14)
_cell_length_c                   11.9690(11)
_cell_angle_alpha                90
_cell_angle_beta                 90
_cell_angle_gamma                120
_cell_volume                     4778.47
loop_
_atom_site_label
_atom_site_type_symbol
_atom_site_fract_x
_atom_site_fract_y
_atom_site_fract_z
Cd1 Cd 0.14060(2) 0.20848(2) 0.02260(4)
Cl1 Cl 0.02187(8) 0.13636(9) 0.12244(15)
N1 N 0.2581(2) 0.1611(2) 0.0907(4)
N2 N 0.2324(2) 0.2074(2) 0.1023(4)
N3 N 0.2036(3) 0.3117(2) 0.1550(4)
N4 N 0.3266(2) 0.2453(2) 0.2168(4)
C1 C 0.1895(4) 0.3646(4) 0.1756(7)
H1 H 0.1503 0.3636 0.1408
C2 C 0.2309(5) 0.4201(4) 0.2462(7)
H2 H 0.2189 0.4555 0.2599
C3 C 0.2890(4) 0.4240(4) 0.2963(7)
H3 H 0.3179 0.4624 0.3429
C4 C 0.3049(4) 0.3705(3) 0.2773(6)
H4 H 0.3442 0.3713 0.3115
C5 C 0.2608(3) 0.3153(3) 0.2060(5)
C6 C 0.2743(3) 0.2561(3) 0.1759(5)
C7 C 0.3130(3) 0.1851(3) 0.1612(5)
N5 N 0.4086(2) 0.1722(2) 0.2426(4)
N6 N 0.4343(2) 0.1259(2) 0.2310(4)
N7 N 0.4631(3) 0.0216(2) 0.1783(4)
N8 N 0.3401(2) 0.0880(2) 0.1165(4)
C12 C 0.4059(3) 0.0180(3) 0.1273(5)
C13 C 0.3924(3) 0.0772(3) 0.1574(5)
C14 C 0.3537(3) 0.1482(3) 0.1721(5)
Cd3 Cd 0.45819(2) 0.26545(3) 0.35593(4)
Cd5 Cd 0.52607(2) 0.12485(2) 0.31073(4)
Cd2 Cd 0.20848(2) 0.06788(3) 0.97740(4)
Cl2 Cl 0.13636(9) 0.11449(12) 0.87756(15)
N9 N 0.0970(3) 0.2581(2) 0.9093(4)
N11 N 0.3117(2) 0.1081(4) 0.8450(4)
H7 H 0.3488 0.8709 0.9904
N10 N 0.2074(2) 0.9750(3) 0.8977(4)
C8 C 0.0313(4) 0.5084(6) 0.1577(7)
H5 H 0.0303 0.5466 0.1925
C9 C 0.0868(4) 0.5225(6) 0.0871(7)
H6 H 0.1222 0.5699 0.0734
C10 C 0.0907(4) 0.4683(6) 0.0370(7)
C11 C 0.0372(3) 0.3989(5) 0.0560(6)
H8 H 0.0380 0.3604 0.0218
H7_2 H 0.1291 0.4778 0.9904
N10_2 N 0.0250(3) 0.2324(4) 0.8977(4)
N1_2 N 0.8389(2) 0.0970(3) 0.0907(4)
N2_2 N 0.7926(2) 0.0250(3) 0.1023(4)
N4_2 N 0.7547(2) 0.0813(3) 0.2168(4)
C6_2 C 0.7439(3) 0.0182(4) 0.1759(5)
C7_2 C 0.8149(3) 0.1279(4) 0.1612(5)
N5_2 N 0.8278(2) 0.2363(3) 0.2426(4)
N6_2 N 0.8741(2) 0.3083(3) 0.2310(4)
N7_2 N 0.9784(2) 0.4414(4) 0.1783(4)
N8_2 N 0.9120(2) 0.2520(3) 0.1165(4)
C12_2 C 0.9820(3) 0.3878(4) 0.1273(5)
C13_2 C 0.9228(3) 0.3151(4) 0.1574(5)
C14_2 C 0.8518(3) 0.2054(4) 0.1721(5)
Cd3_2 Cd 0.73455(3) 0.19273(4) 0.35593(4)
Cd5_2 Cd 0.87515(2) 0.40121(3) 0.31073(4)
Cd1_2 Cd 0.79152(2) 0.93212(3) 0.02260(4)
Cl1_2 Cl 0.86364(9) 0.88551(12) 0.12244(15)
N3_2 N 0.6883(2) 0.8919(4) 0.1550(4)
C1_2 C 0.6354(4) 0.8249(6) 0.1756(7)
H1_2 H 0.6364 0.7867 0.1408
C2_2 C 0.5799(4) 0.8108(6) 0.2462(7)
H2_2 H 0.5445 0.7634 0.2599
C3_2 C 0.5760(4) 0.8650(6) 0.2963(7)
H3_2 H 0.5376 0.8555 0.3429
C4_2 C 0.6295(3) 0.9344(5) 0.2773(6)
H4_2 H 0.6287 0.9729 0.3115
C5_2 C 0.6847(3) 0.9455(4) 0.2060(5)
Cd4 Cd 0.85940(2) 0.79152(4) 0.97740(4)
N9_2 N 0.7419(2) 0.8389(4) 0.9093(4)
N9_3 N 0.1611(4) 0.9030(3) 0.9093(4)
N1_3 N 0.9030(3) 0.7419(2) 0.0907(4)
N2_3 N 0.9750(3) 0.7676(2) 0.1023(4)
N4_3 N 0.9187(3) 0.6734(2) 0.2168(4)
C6_3 C 0.9818(4) 0.7257(3) 0.1759(5)
C7_3 C 0.8721(4) 0.6870(3) 0.1612(5)
N5_3 N 0.7637(3) 0.5914(2) 0.2426(4)
N6_3 N 0.6917(3) 0.5657(2) 0.2310(4)
N7_3 N 0.5586(4) 0.5369(3) 0.1783(4)
N8_3 N 0.7480(3) 0.6599(2) 0.1165(4)
C8_2 C 0.4916(6) 0.5228(4) 0.1577(7)
H5_2 H 0.4534 0.4836 0.1925
C9_2 C 0.4775(6) 0.5642(5) 0.0871(7)
H6_2 H 0.4301 0.5522 0.0734
C10_2 C 0.5317(6) 0.6223(4) 0.0370(7)
C11_2 C 0.6011(5) 0.6382(4) 0.0560(6)
H8_2 H 0.6396 0.6775 0.0218
C12_3 C 0.6122(4) 0.5941(3) 0.1273(5)
C13_3 C 0.6849(4) 0.6076(3) 0.1574(5)
C14_3 C 0.7946(4) 0.6463(3) 0.1721(5)
Cd3_3 Cd 0.80727(4) 0.54181(2) 0.35593(4)
Cd5_3 Cd 0.59879(3) 0.47393(2) 0.31073(4)
H7_3 H 0.5222 0.6512 0.9904
Cl2_2 Cl 0.97813(15) 0.86364(9) 0.87756(15)
N10_3 N 0.7676(4) 0.7926(2) 0.8977(4)
N11_2 N 0.7964(4) 0.6883(2) 0.8450(4)
H4_3 H 0.0109 0.7046 0.6448
N5_4 N 0.0752(2) 0.5056(2) 0.5760(4)
N6_4 N 0.1009(2) 0.4593(2) 0.5644(4)
N7_4 N 0.1297(3) 0.3550(2) 0.5117(4)
N8_4 N 0.0067(2) 0.4214(2) 0.4499(4)
C8_3 C 0.1438(4) 0.3021(4) 0.4911(7)
H5_3 H 0.1830 0.3031 0.5259
C9_3 C 0.1024(5) 0.2466(4) 0.4205(7)
H6_3 H 0.1144 0.2112 0.4068
C10_3 C 0.0443(4) 0.2427(4) 0.3704(7)
H7_4 H 0.0154 0.2043 0.3238
C11_3 C 0.0284(4) 0.2962(3) 0.3894(6)
C12_4 C 0.0725(3) 0.3514(3) 0.4607(5)
C13_4 C 0.0590(3) 0.4106(3) 0.4908(5)
C14_4 C 0.0203(3) 0.4816(3) 0.5055(5)
Cd3_4 Cd 0.12485(2) 0.59879(3) 0.68927(4)
Cd5_4 Cd 0.19273(2) 0.45819(2) 0.64407(4)
Cl1_3 Cl 0.68854(8) 0.46969(9) 0.45577(15)
N1_4 N 0.9248(2) 0.4944(2) 0.4240(4)
N2_4 N 0.8991(2) 0.5407(2) 0.4356(4)
N3_3 N 0.8703(3) 0.6450(2) 0.4883(4)
N4_4 N 0.9933(2) 0.5786(2) 0.5501(4)
C1_3 C 0.8562(4) 0.6979(4) 0.5089(7)
H1_3 H 0.8170 0.6969 0.4741
C2_3 C 0.8976(5) 0.7534(4) 0.5795(7)
H2_3 H 0.8856 0.7888 0.5932
C3_3 C 0.9557(4) 0.7573(4) 0.6296(7)
H3_3 H 0.9846 0.7957 0.6762
C4_3 C 0.9716(4) 0.7038(3) 0.6106(6)
C5_3 C 0.9275(3) 0.6486(3) 0.5393(5)
C6_4 C 0.9410(3) 0.5894(3) 0.5092(5)
C7_4 C 0.9797(3) 0.5184(3) 0.4945(5)
H8_3 H 0.9891 0.2954 0.3552
Cl2_3 Cl 0.80303(9) 0.44782(12) 0.21089(15)
Cl3 Cl 0.78116(12) 0.31146(8) 0.45577(15)
Cl1_4 Cl 0.53031(9) 0.21884(12) 0.45577(15)
N1_5 N 0.5056(2) 0.4303(3) 0.4240(4)
N2_5 N 0.4593(2) 0.3583(3) 0.4356(4)
N3_4 N 0.3550(2) 0.2252(4) 0.4883(4)
N4_5 N 0.4214(2) 0.4146(3) 0.5501(4)
C1_4 C 0.3021(4) 0.1582(6) 0.5089(7)
H1_4 H 0.3031 0.1200 0.4741
C2_4 C 0.2466(4) 0.1441(6) 0.5795(7)
H2_4 H 0.2112 0.0967 0.5932
C3_4 C 0.2427(4) 0.1983(6) 0.6296(7)
H3_4 H 0.2043 0.1888 0.6762
C4_4 C 0.2962(3) 0.2677(5) 0.6106(6)
H4_4 H 0.2954 0.3062 0.6448
C5_4 C 0.3514(3) 0.2788(4) 0.5393(5)
C6_5 C 0.4106(3) 0.3515(4) 0.5092(5)
C7_5 C 0.4816(3) 0.4612(4) 0.4945(5)
N5_5 N 0.4944(2) 0.5697(3) 0.5760(4)
N6_5 N 0.5407(2) 0.6417(3) 0.5644(4)
N7_5 N 0.6450(2) 0.7748(4) 0.5117(4)
N8_5 N 0.5786(2) 0.5854(3) 0.4499(4)
C8_4 C 0.6979(4) 0.8418(6) 0.4911(7)
H5_4 H 0.6969 0.8800 0.5259
C9_4 C 0.7534(4) 0.8559(6) 0.4205(7)
H6_4 H 0.7888 0.9033 0.4068
C10_4 C 0.7573(4) 0.8017(6) 0.3704(7)
H7_5 H 0.7957 0.8112 0.3238
C11_4 C 0.7038(3) 0.7323(5) 0.3894(6)
H8_4 H 0.7046 0.6938 0.3552
C12_5 C 0.6486(3) 0.7212(4) 0.4607(5)
C13_5 C 0.5894(3) 0.6485(4) 0.4908(5)
C14_5 C 0.5184(3) 0.5388(4) 0.5055(5)
Cl2_4 Cl 0.55218(12) 0.35520(15) 0.21089(15)
Cd3_5 Cd 0.40121(3) 0.52607(4) 0.68927(4)
Cd5_5 Cd 0.54181(2) 0.73455(3) 0.64407(4)
N1_6 N 0.5697(3) 0.0752(2) 0.4240(4)
N2_6 N 0.6417(3) 0.1009(2) 0.4356(4)
N3_5 N 0.7748(4) 0.1297(3) 0.4883(4)
N4_6 N 0.5854(3) 0.0067(2) 0.5501(4)
C1_5 C 0.8418(6) 0.1438(4) 0.5089(7)
H1_5 H 0.8800 0.1830 0.4741
C2_5 C 0.8559(6) 0.1024(5) 0.5795(7)
H2_5 H 0.9033 0.1144 0.5932
C3_5 C 0.8017(6) 0.0443(4) 0.6296(7)
H3_5 H 0.8112 0.0154 0.6762
C4_5 C 0.7323(5) 0.0284(4) 0.6106(6)
C5_5 C 0.7212(4) 0.0725(3) 0.5393(5)
C6_6 C 0.6485(4) 0.0590(3) 0.5092(5)
C7_6 C 0.5388(4) 0.0203(3) 0.4945(5)
H8_5 H 0.3062 0.0109 0.3552
Cl2_5 Cl 0.64480(15) 0.19697(9) 0.21089(15)
H4_5 H 0.6938 0.9891 0.6448
N5_6 N 0.4303(3) 0.9248(2) 0.5760(4)
N6_6 N 0.3583(3) 0.8991(2) 0.5644(4)
N7_6 N 0.2252(4) 0.8703(3) 0.5117(4)
N8_6 N 0.4146(3) 0.9933(2) 0.4499(4)
C8_5 C 0.1582(6) 0.8562(4) 0.4911(7)
H5_5 H 0.1200 0.8170 0.5259
C9_5 C 0.1441(6) 0.8976(5) 0.4205(7)
H6_5 H 0.0967 0.8856 0.4068
C10_5 C 0.1983(6) 0.9557(4) 0.3704(7)
H7_6 H 0.1888 0.9846 0.3238
C11_5 C 0.2677(5) 0.9716(4) 0.3894(6)
C12_6 C 0.2788(4) 0.9275(3) 0.4607(5)
C13_6 C 0.3515(4) 0.9410(3) 0.4908(5)
C14_6 C 0.4612(4) 0.9797(3) 0.5055(5)
Cd3_6 Cd 0.47393(4) 0.87515(2) 0.68927(4)
Cd5_6 Cd 0.26545(3) 0.80727(2) 0.64407(4)
H3_6 H 0.6512 0.1291 0.0096
Cl1_5 Cl 0.35520(8) 0.80303(9) 0.78911(15)
N1_7 N 0.5914(2) 0.8278(2) 0.7574(4)
N2_7 N 0.5657(2) 0.8741(2) 0.7690(4)
N3_6 N 0.5369(3) 0.9784(2) 0.8217(4)
N4_7 N 0.6599(2) 0.9120(2) 0.8835(4)
C5_6 C 0.5941(3) 0.9820(3) 0.8727(5)
C6_7 C 0.6076(3) 0.9228(3) 0.8426(5)
C7_7 C 0.6463(3) 0.8518(3) 0.8279(5)
N8_7 N 0.6734(2) 0.7547(2) 0.7832(4)
C8_6 C 0.8105(4) 0.6354(4) 0.8244(7)
H5_6 H 0.8497 0.6364 0.8592
C9_6 C 0.7691(5) 0.5799(4) 0.7538(7)
H6_6 H 0.7811 0.5445 0.7401
C10_6 C 0.7110(4) 0.5760(4) 0.7037(7)
H7_7 H 0.6821 0.5376 0.6571
C11_6 C 0.6951(4) 0.6295(3) 0.7227(6)
H8_6 H 0.6558 0.6287 0.6885
C12_7 C 0.7392(3) 0.6847(3) 0.7940(5)
C13_7 C 0.7257(3) 0.7439(3) 0.8241(5)
C14_7 C 0.6870(3) 0.8149(3) 0.8388(5)
Cl2_6 Cl 0.46969(9) 0.78116(12) 0.54423(15)
Cl3_2 Cl 0.44782(12) 0.64480(8) 0.78911(15)
C8_7 C 0.3646(4) 0.1751(6) 0.8244(7)
H5_7 H 0.3636 0.2133 0.8592
C9_7 C 0.4201(4) 0.1892(6) 0.7538(7)
H6_7 H 0.4555 0.2366 0.7401
C10_7 C 0.4240(4) 0.1350(6) 0.7037(7)
H7_8 H 0.4624 0.1445 0.6571
C11_7 C 0.3705(3) 0.0656(5) 0.7227(6)
H8_7 H 0.3713 0.0271 0.6885
C12_8 C 0.3153(3) 0.0545(4) 0.7940(5)
Cl1_6 Cl 0.19697(9) 0.55218(12) 0.78911(15)
N1_8 N 0.1722(2) 0.7637(3) 0.7574(4)
N2_8 N 0.1259(2) 0.6917(3) 0.7690(4)
N3_7 N 0.0216(2) 0.5586(4) 0.8217(4)
N4_8 N 0.0880(2) 0.7480(3) 0.8835(4)
C5_7 C 0.0180(3) 0.6122(4) 0.8727(5)
C6_8 C 0.0772(3) 0.6849(4) 0.8426(5)
C7_8 C 0.1482(3) 0.7946(4) 0.8279(5)
N8_8 N 0.2453(2) 0.9187(3) 0.7832(4)
C13_8 C 0.2561(3) 0.9818(4) 0.8241(5)
C14_8 C 0.1851(3) 0.8721(4) 0.8388(5)
Cl2_7 Cl 0.21884(12) 0.68854(15) 0.54423(15)
H3_7 H 0.8709 0.5222 0.0096
C1_6 C 0.9687(4) 0.4916(6) 0.8423(7)
H1_6 H 0.9697 0.4534 0.8075
C2_6 C 0.9132(4) 0.4775(6) 0.9129(7)
H2_6 H 0.8778 0.4301 0.9266
C3_6 C 0.9093(4) 0.5317(6) 0.9630(7)
C4_6 C 0.9628(3) 0.6011(5) 0.9440(6)
H4_6 H 0.9620 0.6396 0.9782
H3_8 H 0.4778 0.3488 0.0096
N1_9 N 0.2363(3) 0.4086(2) 0.7574(4)
N2_9 N 0.3083(3) 0.4343(2) 0.7690(4)
N3_8 N 0.4414(4) 0.4631(3) 0.8217(4)
N4_9 N 0.2520(3) 0.3401(2) 0.8835(4)
C1_7 C 0.5084(6) 0.4772(4) 0.8423(7)
H1_7 H 0.5466 0.5164 0.8075
C2_7 C 0.5225(6) 0.4358(5) 0.9129(7)
H2_7 H 0.5699 0.4478 0.9266
C3_7 C 0.4683(6) 0.3777(4) 0.9630(7)
C4_7 C 0.3989(5) 0.3618(4) 0.9440(6)
H4_7 H 0.3604 0.3225 0.9782
C5_8 C 0.3878(4) 0.4059(3) 0.8727(5)
C6_9 C 0.3151(4) 0.3924(3) 0.8426(5)
C7_9 C 0.2054(4) 0.3537(3) 0.8279(5)
N8_9 N 0.0813(3) 0.3266(2) 0.7832(4)
C13_9 C 0.0182(4) 0.2743(3) 0.8241(5)
C14_9 C 0.1279(4) 0.3130(3) 0.8388(5)
Cl2_8 Cl 0.31146(15) 0.53031(9) 0.54423(15)
C8_8 C 0.4772(4) 0.9687(4) 0.1577(7)
H5_8 H 0.5164 0.9697 0.1925
C9_8 C 0.4358(5) 0.9132(4) 0.0871(7)
H6_8 H 0.4478 0.8778 0.0734
C10_8 C 0.3777(4) 0.9093(4) 0.0370(7)
C11_8 C 0.3618(4) 0.9628(3) 0.0560(6)
H8_8 H 0.3225 0.9620 0.0218
Cl3_3 Cl 0.11449(12) 0.97813(8) 0.12244(15)
Cd1_3 Cd 0.06788(3) 0.85940(2) 0.02260(4)
N3_9 N 0.1081(4) 0.7964(3) 0.1550(4)
C1_8 C 0.1751(6) 0.8105(4) 0.1756(7)
H1_8 H 0.2133 0.8497 0.1408
C2_8 C 0.1892(6) 0.7691(5) 0.2462(7)
H2_8 H 0.2366 0.7811 0.2599
C3_8 C 0.1350(6) 0.7110(4) 0.2963(7)
H3_9 H 0.1445 0.6821 0.3429
C4_8 C 0.0656(5) 0.6951(4) 0.2773(6)
H4_8 H 0.0271 0.6558 0.3115
C5_9 C 0.0545(4) 0.7392(3) 0.2060(5)
Cd4_2 Cd 0.93212(3) 0.14060(2) 0.97740(4)
Cl2_9 Cl 0.88551(12) 0.02187(15) 0.87756(15)
N11_3 N 0.8919(4) 0.2036(4) 0.8450(4)
C1_9 C 0.5228(4) 0.0313(4) 0.8423(7)
H1_9 H 0.4836 0.0303 0.8075
C2_9 C 0.5642(5) 0.0868(4) 0.9129(7)
H2_9 H 0.5522 0.1222 0.9266
C3_9 C 0.6223(4) 0.0907(4) 0.9630(7)
C4_9 C 0.6382(4) 0.0372(3) 0.9440(6)
H4_9 H 0.6775 0.0380 0.9782
C8_9 C 0.8249(6) 0.1895(4) 0.8244(7)
H5_9 H 0.7867 0.1503 0.8592
C9_9 C 0.8108(6) 0.2309(5) 0.7538(7)
H6_9 H 0.7634 0.2189 0.7401
C10_9 C 0.8650(6) 0.2890(4) 0.7037(7)
H7_9 H 0.8555 0.3179 0.6571
C11_9 C 0.9344(5) 0.3049(4) 0.7227(6)
H8_9 H 0.9729 0.3442 0.6885
C12_9 C 0.9455(4) 0.2608(3) 0.7940(5)
loop_
_geom_bond_atom_site_label_1
_geom_bond_atom_site_label_2
_geom_bond_site_symmetry_1
_geom_bond_site_symmetry_2
Cd1 Cl1 1_555 1_555
N1 N2 1_555 1_555
N2 Cd1 1_555 1_555
N3 Cd1 1_555 1_555
N4 C6 1_555 1_555
C1 N3 1_555 1_555
H1 C1 1_555 1_555
C2 C1 1_555 1_555
H2 C2 1_555 1_555
C3 C2 1_555 1_555
H3 C3 1_555 1_555
C4 C3 1_555 1_555
H4 C4 1_555 1_555
C5 N3 1_555 1_555
C6 N2 1_555 1_555
C7 N1 1_555 1_555
N5 N6 1_555 1_555
N6 C13 1_555 1_555
N8 C13 1_555 1_555
C12 N7 1_555 1_555
C13 C12 1_555 1_555
C14 C7 1_555 1_555
Cd3 N5 1_555 1_555
Cd5 N6 1_555 1_555
N4 C7 1_555 1_555
C4 C5 1_555 1_555
C5 C6 1_555 1_555
N5 C14 1_555 1_555
N7 Cd5 1_555 1_555
N8 C14 1_555 1_555
N11 Cd2 1_555 1_555
Cd2 Cl2 1_555 1_555
C8 H5 1_555 1_555
C9 C8 1_555 1_555
H6 C9 1_555 1_555
C10 C9 1_555 1_555
C11 C10 1_555 1_555
H8 C11 1_555 1_555
N1_2 N2_2 1_555 1_555
N4_2 C6_2 1_555 1_555
C6_2 N2_2 1_555 1_555
C7_2 N1_2 1_555 1_555
N5_2 N6_2 1_555 1_555
N6_2 C13_2 1_555 1_555
N8_2 C13_2 1_555 1_555
C12_2 N7_2 1_555 1_555
C13_2 C12_2 1_555 1_555
C14_2 C7_2 1_555 1_555
Cd3_2 N5_2 1_555 1_555
Cd5_2 N6_2 1_555 1_555
N4_2 C7_2 1_555 1_555
N5_2 C14_2 1_555 1_555
N7_2 Cd5_2 1_555 1_555
N8_2 C14_2 1_555 1_555
Cd1_2 Cl1_2 1_555 1_555
N3_2 Cd1_2 1_555 1_555
C1_2 N3_2 1_555 1_555
H1_2 C1_2 1_555 1_555
C2_2 C1_2 1_555 1_555
H2_2 C2_2 1_555 1_555
C3_2 C2_2 1_555 1_555
H3_2 C3_2 1_555 1_555
C4_2 C3_2 1_555 1_555
H4_2 C4_2 1_555 1_555
C5_2 N3_2 1_555 1_555
C4_2 C5_2 1_555 1_555
N1_3 N2_3 1_555 1_555
N4_3 C6_3 1_555 1_555
C6_3 N2_3 1_555 1_555
C7_3 N1_3 1_555 1_555
N5_3 N6_3 1_555 1_555
N6_3 C13_3 1_555 1_555
N7_3 C8_2 1_555 1_555
N8_3 C13_3 1_555 1_555
C8_2 H5_2 1_555 1_555
C9_2 C8_2 1_555 1_555
H6_2 C9_2 1_555 1_555
C10_2 C9_2 1_555 1_555
C11_2 C10_2 1_555 1_555
H8_2 C11_2 1_555 1_555
C12_3 N7_3 1_555 1_555
C13_3 C12_3 1_555 1_555
C14_3 C7_3 1_555 1_555
Cd3_3 N5_3 1_555 1_555
Cd5_3 N6_3 1_555 1_555
N4_3 C7_3 1_555 1_555
N5_3 C14_3 1_555 1_555
N7_3 Cd5_3 1_555 1_555
N8_3 C14_3 1_555 1_555
C11_2 C12_3 1_555 1_555
N10_3 Cd4 1_555 1_555
N11_2 Cd4 1_555 1_555
Cd4 Cl2_2 1_555 1_555
N5_4 N6_4 1_555 1_555
N6_4 C13_4 1_555 1_555
N7_4 C8_3 1_555 1_555
N8_4 C13_4 1_555 1_555
C8_3 H5_3 1_555 1_555
C9_3 C8_3 1_555 1_555
H6_3 C9_3 1_555 1_555
C10_3 C9_3 1_555 1_555
H7_4 C10_3 1_555 1_555
C11_3 C10_3 1_555 1_555
C12_4 N7_4 1_555 1_555
C13_4 C12_4 1_555 1_555
Cd3_4 N5_4 1_555 1_555
Cd5_4 N6_4 1_555 1_555
N5_4 C14_4 1_555 1_555
N7_4 Cd5_4 1_555 1_555
N8_4 C14_4 1_555 1_555
C11_3 C12_4 1_555 1_555
Cd3_3 Cl1_3 1_555 1_555
Cl1_3 Cd5_3 1_555 1_555
N1_4 N2_4 1_555 1_555
N2_4 Cd3_3 1_555 1_555
N3_3 Cd3_3 1_555 1_555
N4_4 C6_4 1_555 1_555
C1_3 N3_3 1_555 1_555
H1_3 C1_3 1_555 1_555
C2_3 C1_3 1_555 1_555
H2_3 C2_3 1_555 1_555
C3_3 C2_3 1_555 1_555
H3_3 C3_3 1_555 1_555
C4_3 C3_3 1_555 1_555
C5_3 N3_3 1_555 1_555
C6_4 N2_4 1_555 1_555
C7_4 N1_4 1_555 1_555
Cd5_2 N1_4 1_555 1_555
Cl2_3 Cd3_3 1_555 1_555
Cl3 Cd5_2 1_555 1_555
N4_4 C7_4 1_555 1_555
C4_3 C5_3 1_555 1_555
C5_3 C6_4 1_555 1_555
Cd5_2 Cl2_3 1_555 1_555
Cd3 Cl1_4 1_555 1_555
Cl1_4 Cd5 1_555 1_555
N1_5 N2_5 1_555 1_555
N2_5 Cd3 1_555 1_555
N3_4 Cd3 1_555 1_555
N4_5 C6_5 1_555 1_555
C1_4 N3_4 1_555 1_555
H1_4 C1_4 1_555 1_555
C2_4 C1_4 1_555 1_555
H2_4 C2_4 1_555 1_555
C3_4 C2_4 1_555 1_555
H3_4 C3_4 1_555 1_555
C4_4 C3_4 1_555 1_555
H4_4 C4_4 1_555 1_555
C5_4 N3_4 1_555 1_555
C6_5 N2_5 1_555 1_555
C7_5 N1_5 1_555 1_555
N5_5 N6_5 1_555 1_555
N6_5 C13_5 1_555 1_555
N7_5 C8_4 1_555 1_555
N8_5 C13_5 1_555 1_555
C8_4 H5_4 1_555 1_555
C9_4 C8_4 1_555 1_555
H6_4 C9_4 1_555 1_555
C10_4 C9_4 1_555 1_555
H7_5 C10_4 1_555 1_555
C11_4 C10_4 1_555 1_555
H8_4 C11_4 1_555 1_555
C12_5 N7_5 1_555 1_555
C13_5 C12_5 1_555 1_555
C14_5 C7_5 1_555 1_555
Cd5_3 N1_5 1_555 1_555
Cl2_4 Cd3 1_555 1_555
Cd3_5 N5_5 1_555 1_555
Cd5_5 N6_5 1_555 1_555
N4_5 C7_5 1_555 1_555
C4_4 C5_4 1_555 1_555
C5_4 C6_5 1_555 1_555
N5_5 C14_5 1_555 1_555
N7_5 Cd5_5 1_555 1_555
N8_5 C14_5 1_555 1_555
C11_4 C12_5 1_555 1_555
Cd5_3 Cl2_4 1_555 1_555
Cd3_2 Cl3 1_555 1_555
N1_6 N2_6 1_555 1_555
N2_6 Cd3_2 1_555 1_555
N3_5 Cd3_2 1_555 1_555
N4_6 C6_6 1_555 1_555
C1_5 N3_5 1_555 1_555
H1_5 C1_5 1_555 1_555
C2_5 C1_5 1_555 1_555
H2_5 C2_5 1_555 1_555
C3_5 C2_5 1_555 1_555
H3_5 C3_5 1_555 1_555
C4_5 C3_5 1_555 1_555
C5_5 N3_5 1_555 1_555
C6_6 N2_6 1_555 1_555
C7_6 N1_6 1_555 1_555
Cd5 N1_6 1_555 1_555
Cl2_5 Cd3_2 1_555 1_555
N4_6 C7_6 1_555 1_555
C4_5 C5_5 1_555 1_555
C5_5 C6_6 1_555 1_555
Cd5 Cl2_5 1_555 1_555
N5_6 N6_6 1_555 1_555
N6_6 C13_6 1_555 1_555
N7_6 C8_5 1_555 1_555
N8_6 C13_6 1_555 1_555
C8_5 H5_5 1_555 1_555
C9_5 C8_5 1_555 1_555
H6_5 C9_5 1_555 1_555
C10_5 C9_5 1_555 1_555
H7_6 C10_5 1_555 1_555
C11_5 C10_5 1_555 1_555
C12_6 N7_6 1_555 1_555
C13_6 C12_6 1_555 1_555
Cd3_6 N5_6 1_555 1_555
Cd5_6 N6_6 1_555 1_555
N5_6 C14_6 1_555 1_555
N7_6 Cd5_6 1_555 1_555
N8_6 C14_6 1_555 1_555
C11_5 C12_6 1_555 1_555
Cd3_6 Cl1_5 1_555 1_555
Cl1_5 Cd5_6 1_555 1_555
N1_7 N2_7 1_555 1_555
N2_7 Cd3_6 1_555 1_555
N3_6 Cd3_6 1_555 1_555
N4_7 C6_7 1_555 1_555
C5_6 N3_6 1_555 1_555
C6_7 N2_7 1_555 1_555
C7_7 N1_7 1_555 1_555
N9_2 N10_3 1_555 1_555
N10_3 C13_7 1_555 1_555
N11_2 C8_6 1_555 1_555
N8_7 C13_7 1_555 1_555
C8_6 H5_6 1_555 1_555
C9_6 C8_6 1_555 1_555
H6_6 C9_6 1_555 1_555
C10_6 C9_6 1_555 1_555
H7_7 C10_6 1_555 1_555
C11_6 C10_6 1_555 1_555
H8_6 C11_6 1_555 1_555
C12_7 N11_2 1_555 1_555
C13_7 C12_7 1_555 1_555
C14_7 C7_7 1_555 1_555
Cd5_5 N1_7 1_555 1_555
Cl2_6 Cd3_6 1_555 1_555
Cl3_2 Cd5_5 1_555 1_555
N4_7 C7_7 1_555 1_555
C5_6 C6_7 1_555 1_555
N9_2 C14_7 1_555 1_555
N8_7 C14_7 1_555 1_555
C11_6 C12_7 1_555 1_555
Cd5_5 Cl2_6 1_555 1_555
N11 C8_7 1_555 1_555
C8_7 H5_7 1_555 1_555
C9_7 C8_7 1_555 1_555
H6_7 C9_7 1_555 1_555
C10_7 C9_7 1_555 1_555
H7_8 C10_7 1_555 1_555
C11_7 C10_7 1_555 1_555
H8_7 C11_7 1_555 1_555
C12_8 N11 1_555 1_555
C11_7 C12_8 1_555 1_555
Cd3_4 Cl1_6 1_555 1_555
Cl1_6 Cd5_4 1_555 1_555
N1_8 N2_8 1_555 1_555
N2_8 Cd3_4 1_555 1_555
N3_7 Cd3_4 1_555 1_555
N4_8 C6_8 1_555 1_555
C5_7 N3_7 1_555 1_555
C6_8 N2_8 1_555 1_555
C7_8 N1_8 1_555 1_555
N9_3 N10 1_555 1_555
N10 C13_8 1_555 1_555
N8_8 C13_8 1_555 1_555
C14_8 C7_8 1_555 1_555
Cd5_6 N1_8 1_555 1_555
Cl2_7 Cd3_4 1_555 1_555
N4_8 C7_8 1_555 1_555
C5_7 C6_8 1_555 1_555
N9_3 C14_8 1_555 1_555
N8_8 C14_8 1_555 1_555
Cd5_6 Cl2_7 1_555 1_555
H1_6 C1_6 1_555 1_555
C2_6 C1_6 1_555 1_555
H2_6 C2_6 1_555 1_555
C3_6 C2_6 1_555 1_555
C4_6 C3_6 1_555 1_555
H4_6 C4_6 1_555 1_555
Cd3_5 Cl3_2 1_555 1_555
N1_9 N2_9 1_555 1_555
N2_9 Cd3_5 1_555 1_555
N3_8 Cd3_5 1_555 1_555
N4_9 C6_9 1_555 1_555
C1_7 N3_8 1_555 1_555
H1_7 C1_7 1_555 1_555
C2_7 C1_7 1_555 1_555
H2_7 C2_7 1_555 1_555
C3_7 C2_7 1_555 1_555
C4_7 C3_7 1_555 1_555
H4_7 C4_7 1_555 1_555
C5_8 N3_8 1_555 1_555
C6_9 N2_9 1_555 1_555
C7_9 N1_9 1_555 1_555
N9 N10_2 1_555 1_555
N10_2 C13_9 1_555 1_555
N8_9 C13_9 1_555 1_555
C14_9 C7_9 1_555 1_555
Cd5_4 N1_9 1_555 1_555
Cl2_8 Cd3_5 1_555 1_555
N4_9 C7_9 1_555 1_555
C4_7 C5_8 1_555 1_555
C5_8 C6_9 1_555 1_555
N9 C14_9 1_555 1_555
N8_9 C14_9 1_555 1_555
Cd5_4 Cl2_8 1_555 1_555
C8_8 H5_8 1_555 1_555
C9_8 C8_8 1_555 1_555
H6_8 C9_8 1_555 1_555
C10_8 C9_8 1_555 1_555
C11_8 C10_8 1_555 1_555
H8_8 C11_8 1_555 1_555
Cd1_3 Cl3_3 1_555 1_555
N3_9 Cd1_3 1_555 1_555
C1_8 N3_9 1_555 1_555
H1_8 C1_8 1_555 1_555
C2_8 C1_8 1_555 1_555
H2_8 C2_8 1_555 1_555
C3_8 C2_8 1_555 1_555
H3_9 C3_8 1_555 1_555
C4_8 C3_8 1_555 1_555
H4_8 C4_8 1_555 1_555
C5_9 N3_9 1_555 1_555
C4_8 C5_9 1_555 1_555
N11_3 Cd4_2 1_555 1_555
Cd4_2 Cl2_9 1_555 1_555
H1_9 C1_9 1_555 1_555
C2_9 C1_9 1_555 1_555
H2_9 C2_9 1_555 1_555
C3_9 C2_9 1_555 1_555
C4_9 C3_9 1_555 1_555
H4_9 C4_9 1_555 1_555
N11_3 C8_9 1_555 1_555
C8_9 H5_9 1_555 1_555
C9_9 C8_9 1_555 1_555
H6_9 C9_9 1_555 1_555
C10_9 C9_9 1_555 1_555
H7_9 C10_9 1_555 1_555
C11_9 C10_9 1_555 1_555
H8_9 C11_9 1_555 1_555
C12_9 N11_3 1_555 1_555
C11_9 C12_9 1_555 1_555

#END
