
###############################################################################
#
# This file contains modified crystal structure data generated from the
# MOF subset of the Cambridge Structural Database (CSD) v543 
# hosted by the Cambridge Crystallographic Data Centre (CCDC).
#
# This work is licensed under the Creative Commons
# Attribution-NonCommercial-ShareAlike 4.0 International License.
# To view a copy of this license, visit
# http://creativecommons.org/licenses/by-nc-sa/4.0/
# or send a letter to
# Creative Commons, PO Box 1866, Mountain View, CA 94042, USA.
#
# CIF created using the CSD Python API on 29 September 2022
# The structure has been converted into the P1 space group
# The structure has a 3D framework
# The original CSD entry XAGCEO is in the cubic crystal system
# The framework has been calculated to contain at least 10.0% void space
# The void calculation uses a probe of radius 1.32A, grid spacing 0.4
#
###############################################################################

data_XAGCEO
_chemical_formula_moiety         '(C192 H96 Co36 O240)n'
_symmetry_cell_setting           triclinic
_symmetry_space_group_name_H-M   'P 1'
_symmetry_Int_Tables_number      1
_space_group_name_Hall           'P 1'
loop_
_symmetry_equiv_pos_site_id
_symmetry_equiv_pos_as_xyz
1 x,y,z
_cell_length_a                   20.2730(10)
_cell_length_b                   20.2730(10)
_cell_length_c                   20.2730(10)
_cell_angle_alpha                90
_cell_angle_beta                 90
_cell_angle_gamma                90
_cell_volume                     8332.09
loop_
_atom_site_label
_atom_site_type_symbol
_atom_site_fract_x
_atom_site_fract_y
_atom_site_fract_z
Co1 Co 0.15901(9) 0.39695(9) 0.14260(9)
Co2 Co 0.00649(9) 0.56230(10) 0.27128(9)
O1 O 0.1250(4) 0.3310(4) 0.2179(4)
C1 C 0.0884(7) 0.3674(6) 0.2674(6)
H1 H 0.1186 0.3797 0.3030
C2 C 0.0589(7) 0.4303(7) 0.2379(8)
O2 O 0.0770(5) 0.4482(5) 0.1819(5)
O3 O 0.0197(5) 0.4610(5) 0.2750(5)
C3 C 0.0378(6) 0.3174(6) 0.2944(6)
C4 C 0.0704(6) 0.2792(6) 0.3506(7)
O4 O 0.0668(6) 0.3069(5) 0.4056(5)
O5 O 0.0992(4) 0.2274(5) 0.3374(4)
C5 C 0.0211(6) 0.2755(6) 0.2320(6)
O7 O 0.0147(5) 0.1585(4) 0.2194(4)
C7 C 0.0858(6) 0.2760(6) 0.1920(6)
H4 H 0.1096 0.2346 0.1995
C8 C 0.0728(7) 0.2843(7) 0.1184(7)
O8 O 0.0462(5) 0.2394(5) 0.0896(4)
O9 O 0.0905(4) 0.3399(5) 0.0918(4)
O10 O 0.1686(5) 0.4677(4) 0.0655(4)
O11 O 0.2274(5) 0.3374(4) 0.0992(4)
O12 O 0.2132(5) 0.4463(5) 0.2102(4)
O13 O 0.0944(5) 0.5668(6) 0.3069(5)
O16 O 0.0323(4) 0.5655(4) 0.1686(5)
Co3 Co 0.06230(10) 0.27128(9) 0.49351(9)
Co4 Co 0.14260(9) 0.15901(9) 0.39695(9)
Co8 Co 0.27128(9) 0.49351(9) 0.06230(10)
Co7 Co 0.06230(10) 0.22872(9) 0.99351(9)
H2 H 0.9983 0.3403 0.3103
H3 H 0.9879 0.2996 0.2065
C6 C 0.9935(6) 0.2089(6) 0.2473(7)
O6 O 0.9463(5) 0.2102(4) 0.2868(5)
O14 O 0.9853(5) 0.6585(4) 0.2806(4)
O15 O 0.9104(4) 0.5462(5) 0.2606(5)
Co5 Co 0.89695(9) 0.14260(9) 0.34099(9)
Co6 Co 0.99351(9) 0.06230(10) 0.22872(9)
Co2_2 Co 0.27128(9) 0.00649(9) 0.56230(10)
O1_2 O 0.2179(4) 0.1250(4) 0.3310(4)
C1_2 C 0.2674(6) 0.0884(7) 0.3674(6)
H1_2 H 0.3030 0.1186 0.3797
C2_2 C 0.2379(8) 0.0589(7) 0.4303(7)
O2_2 O 0.1819(5) 0.0770(5) 0.4482(5)
O3_2 O 0.2750(5) 0.0197(5) 0.4610(5)
C3_2 C 0.2944(6) 0.0378(6) 0.3174(6)
C4_2 C 0.3506(7) 0.0704(6) 0.2792(6)
O4_2 O 0.4056(5) 0.0668(6) 0.3069(5)
O5_2 O 0.3374(4) 0.0992(4) 0.2274(5)
C5_2 C 0.2320(6) 0.0211(6) 0.2755(6)
O7_2 O 0.2194(4) 0.0147(5) 0.1585(4)
C7_2 C 0.1920(6) 0.0858(6) 0.2760(6)
H4_2 H 0.1995 0.1096 0.2346
C8_2 C 0.1184(7) 0.0728(7) 0.2843(7)
O8_2 O 0.0896(4) 0.0462(5) 0.2394(5)
O9_2 O 0.0918(4) 0.0905(4) 0.3399(5)
O10_2 O 0.0655(4) 0.1686(5) 0.4677(4)
O12_2 O 0.2102(4) 0.2132(5) 0.4463(5)
O13_2 O 0.3069(5) 0.0944(5) 0.5668(6)
O16_2 O 0.1686(5) 0.0323(4) 0.5655(4)
Co3_2 Co 0.49351(9) 0.06230(10) 0.27128(9)
Co4_2 Co 0.39695(9) 0.14260(9) 0.15901(9)
H2_2 H 0.3103 0.9983 0.3403
H3_2 H 0.2065 0.9879 0.2996
C6_2 C 0.2473(7) 0.9935(6) 0.2089(6)
O6_2 O 0.2868(5) 0.9463(5) 0.2102(4)
O14_2 O 0.2806(4) 0.9853(5) 0.6585(4)
O15_2 O 0.2606(5) 0.9104(4) 0.5462(5)
Co5_2 Co 0.34099(9) 0.89695(9) 0.14260(9)
Co6_2 Co 0.22872(9) 0.99351(9) 0.06230(10)
Co2_3 Co 0.56230(10) 0.27128(9) 0.00649(9)
O1_3 O 0.3310(4) 0.2179(4) 0.1250(4)
C1_3 C 0.3674(6) 0.2674(6) 0.0884(7)
H1_3 H 0.3797 0.3030 0.1186
C2_3 C 0.4303(7) 0.2379(8) 0.0589(7)
O2_3 O 0.4482(5) 0.1819(5) 0.0770(5)
O3_3 O 0.4610(5) 0.2750(5) 0.0197(5)
C3_3 C 0.3174(6) 0.2944(6) 0.0378(6)
C4_3 C 0.2792(6) 0.3506(7) 0.0704(6)
O4_3 O 0.3069(5) 0.4056(5) 0.0668(6)
C5_3 C 0.2755(6) 0.2320(6) 0.0211(6)
O7_3 O 0.1585(4) 0.2194(4) 0.0147(5)
C7_3 C 0.2760(6) 0.1920(6) 0.0858(6)
H4_3 H 0.2346 0.1995 0.1096
C8_3 C 0.2843(7) 0.1184(7) 0.0728(7)
O8_3 O 0.2394(5) 0.0896(4) 0.0462(5)
O9_3 O 0.3399(5) 0.0918(4) 0.0905(4)
O10_3 O 0.4677(4) 0.0655(4) 0.1686(5)
O12_3 O 0.4463(5) 0.2102(4) 0.2132(5)
O13_3 O 0.5668(6) 0.3069(5) 0.0944(5)
O16_3 O 0.5655(4) 0.1686(5) 0.0323(4)
H2_3 H 0.3403 0.3103 0.9983
H3_3 H 0.2996 0.2065 0.9879
C6_3 C 0.2089(6) 0.2473(7) 0.9935(6)
O6_3 O 0.2102(4) 0.2868(5) 0.9463(5)
O14_3 O 0.6585(4) 0.2806(4) 0.9853(5)
O15_3 O 0.5462(5) 0.2606(5) 0.9104(4)
Co5_3 Co 0.14260(9) 0.34099(9) 0.89695(9)
Co1_2 Co 0.34099(9) 0.60305(9) 0.64260(9)
Co2_4 Co 0.49351(9) 0.43770(10) 0.77128(9)
O1_4 O 0.3750(4) 0.6690(4) 0.7179(4)
C1_4 C 0.4116(7) 0.6326(6) 0.7674(6)
H1_4 H 0.3814 0.6203 0.8030
C2_4 C 0.4411(7) 0.5697(7) 0.7379(8)
O2_4 O 0.4230(5) 0.5518(5) 0.6819(5)
O3_4 O 0.4803(5) 0.5390(5) 0.7750(5)
C3_4 C 0.4622(6) 0.6826(6) 0.7944(6)
H2_4 H 0.5017 0.6597 0.8103
C4_4 C 0.4296(6) 0.7208(6) 0.8506(7)
O4_4 O 0.4332(6) 0.6931(5) 0.9056(5)
O5_3 O 0.4008(4) 0.7726(5) 0.8374(4)
C5_4 C 0.4789(6) 0.7245(6) 0.7320(6)
H3_4 H 0.5121 0.7004 0.7065
C6_4 C 0.5065(6) 0.7911(6) 0.7473(7)
O6_4 O 0.5537(5) 0.7898(4) 0.7868(5)
O7_4 O 0.4853(5) 0.8415(4) 0.7194(4)
C7_4 C 0.4142(6) 0.7240(6) 0.6920(6)
H4_4 H 0.3904 0.7654 0.6995
C8_4 C 0.4272(7) 0.7157(7) 0.6184(7)
O8_4 O 0.4538(5) 0.7606(5) 0.5896(4)
O9_4 O 0.4095(4) 0.6601(5) 0.5918(4)
O10_4 O 0.3314(5) 0.5323(4) 0.5655(4)
O11_2 O 0.2726(5) 0.6626(4) 0.5992(4)
O12_4 O 0.2868(5) 0.5537(5) 0.7102(4)
O13_4 O 0.4056(5) 0.4332(6) 0.8069(5)
O14_4 O 0.5147(5) 0.3415(4) 0.7806(4)
O15_4 O 0.5896(4) 0.4538(5) 0.7606(5)
O16_4 O 0.4677(4) 0.4345(4) 0.6686(5)
Co3_3 Co 0.43770(10) 0.72872(9) 0.99351(9)
Co4_3 Co 0.35740(9) 0.84099(9) 0.89695(9)
Co5_4 Co 0.60305(9) 0.85740(9) 0.84099(9)
Co6_3 Co 0.50649(9) 0.93770(10) 0.72872(9)
Co7_2 Co 0.43770(10) 0.77128(9) 0.49351(9)
Co8_2 Co 0.22872(9) 0.50649(9) 0.56230(10)
H2_5 H 0.0017 0.8403 0.1897
H3_5 H 0.0121 0.7996 0.2935
C6_5 C 0.0065(6) 0.7089(6) 0.2527(7)
O6_5 O 0.0537(5) 0.7102(4) 0.2132(5)
Co5_5 Co 0.10305(9) 0.64260(9) 0.15901(9)
O13_5 O 0.9056(5) 0.0668(6) 0.1931(5)
O16_5 O 0.9677(4) 0.0655(4) 0.3314(5)
Co1_3 Co 0.84099(9) 0.89695(9) 0.35740(9)
O1_5 O 0.8750(4) 0.8310(4) 0.2821(4)
C1_5 C 0.9116(7) 0.8674(6) 0.2326(6)
H1_5 H 0.8814 0.8797 0.1970
C2_5 C 0.9411(7) 0.9303(7) 0.2621(8)
O2_5 O 0.9230(5) 0.9482(5) 0.3181(5)
O3_5 O 0.9803(5) 0.9610(5) 0.2250(5)
C3_5 C 0.9622(6) 0.8174(6) 0.2056(6)
C4_5 C 0.9296(6) 0.7792(6) 0.1494(7)
O4_5 O 0.9332(6) 0.8069(5) 0.0944(5)
O5_4 O 0.9008(4) 0.7274(5) 0.1626(4)
C5_5 C 0.9789(6) 0.7755(6) 0.2680(6)
C7_5 C 0.9142(6) 0.7760(6) 0.3080(6)
H4_5 H 0.8904 0.7346 0.3005
C8_5 C 0.9272(7) 0.7843(7) 0.3816(7)
O8_5 O 0.9538(5) 0.7394(5) 0.4104(4)
O9_5 O 0.9095(4) 0.8399(5) 0.4082(4)
O10_5 O 0.8314(5) 0.9677(4) 0.4345(4)
O11_3 O 0.7726(5) 0.8374(4) 0.4008(4)
O12_5 O 0.7868(5) 0.9463(5) 0.2898(4)
Co3_4 Co 0.93770(10) 0.77128(9) 0.00649(9)
Co4_4 Co 0.85740(9) 0.65901(9) 0.10305(9)
Co7_3 Co 0.93770(10) 0.72872(9) 0.50649(9)
Co8_3 Co 0.72872(9) 0.99351(9) 0.43770(10)
Co1_4 Co 0.65901(9) 0.10305(9) 0.85740(9)
O1_6 O 0.6250(4) 0.1690(4) 0.7821(4)
C1_6 C 0.5884(7) 0.1326(6) 0.7326(6)
H1_6 H 0.6186 0.1203 0.6970
C2_6 C 0.5589(7) 0.0697(7) 0.7621(8)
O2_6 O 0.5770(5) 0.0518(5) 0.8181(5)
O3_6 O 0.5197(5) 0.0390(5) 0.7250(5)
C3_6 C 0.5378(6) 0.1826(6) 0.7056(6)
H2_6 H 0.4983 0.1597 0.6897
C4_6 C 0.5704(6) 0.2208(6) 0.6494(7)
O4_6 O 0.5668(6) 0.1931(5) 0.5944(5)
O5_5 O 0.5992(4) 0.2726(5) 0.6626(4)
C5_6 C 0.5211(6) 0.2245(6) 0.7680(6)
H3_6 H 0.4879 0.2004 0.7935
C6_6 C 0.4935(6) 0.2911(6) 0.7527(7)
O6_6 O 0.4463(5) 0.2898(4) 0.7132(5)
C7_6 C 0.5858(6) 0.2240(6) 0.8080(6)
H4_6 H 0.6096 0.2654 0.8005
C8_6 C 0.5728(7) 0.2157(7) 0.8816(7)
O9_6 O 0.5905(4) 0.1601(5) 0.9082(4)
O10_6 O 0.6686(5) 0.0323(4) 0.9345(4)
O11_4 O 0.7274(5) 0.1626(4) 0.9008(4)
O12_6 O 0.7132(5) 0.0537(5) 0.7898(4)
Co3_5 Co 0.56230(10) 0.22872(9) 0.50649(9)
Co4_5 Co 0.64260(9) 0.34099(9) 0.60305(9)
Co5_6 Co 0.39695(9) 0.35740(9) 0.65901(9)
Co8_4 Co 0.77128(9) 0.00649(9) 0.93770(10)
O13_6 O 0.5944(5) 0.9332(6) 0.6931(5)
O15_5 O 0.4104(4) 0.9538(5) 0.7394(5)
O16_6 O 0.5323(4) 0.9345(4) 0.8314(5)
Co2_5 Co 0.77128(9) 0.49351(9) 0.43770(10)
O1_7 O 0.7179(4) 0.3750(4) 0.6690(4)
C1_7 C 0.7674(6) 0.4116(7) 0.6326(6)
H1_7 H 0.8030 0.3814 0.6203
C2_7 C 0.7379(8) 0.4411(7) 0.5697(7)
O2_7 O 0.6819(5) 0.4230(5) 0.5518(5)
O3_7 O 0.7750(5) 0.4803(5) 0.5390(5)
C3_7 C 0.7944(6) 0.4622(6) 0.6826(6)
H2_7 H 0.8103 0.5017 0.6597
C4_7 C 0.8506(7) 0.4296(6) 0.7208(6)
O4_7 O 0.9056(5) 0.4332(6) 0.6931(5)
O5_6 O 0.8374(4) 0.4008(4) 0.7726(5)
C5_7 C 0.7320(6) 0.4789(6) 0.7245(6)
H3_7 H 0.7065 0.5121 0.7004
C6_7 C 0.7473(7) 0.5065(6) 0.7911(6)
O6_7 O 0.7868(5) 0.5537(5) 0.7898(4)
O7_5 O 0.7194(4) 0.4853(5) 0.8415(4)
C7_7 C 0.6920(6) 0.4142(6) 0.7240(6)
H4_7 H 0.6995 0.3904 0.7654
C8_7 C 0.6184(7) 0.4272(7) 0.7157(7)
O9_7 O 0.5918(4) 0.4095(4) 0.6601(5)
O10_7 O 0.5655(4) 0.3314(5) 0.5323(4)
O12_7 O 0.7102(4) 0.2868(5) 0.5537(5)
O13_7 O 0.8069(5) 0.4056(5) 0.4332(6)
O14_5 O 0.7806(4) 0.5147(5) 0.3415(4)
O15_6 O 0.7606(5) 0.5896(4) 0.4538(5)
O16_7 O 0.6686(5) 0.4677(4) 0.4345(4)
Co3_6 Co 0.99351(9) 0.43770(10) 0.72872(9)
Co4_6 Co 0.89695(9) 0.35740(9) 0.84099(9)
Co5_7 Co 0.84099(9) 0.60305(9) 0.85740(9)
Co6_4 Co 0.72872(9) 0.50649(9) 0.93770(10)
H2_8 H 0.1897 0.0017 0.8403
H3_8 H 0.2935 0.0121 0.7996
C6_8 C 0.2527(7) 0.0065(6) 0.7089(6)
O6_8 O 0.2132(5) 0.0537(5) 0.7102(4)
Co5_8 Co 0.15901(9) 0.10305(9) 0.64260(9)
O13_8 O 0.1931(5) 0.9056(5) 0.0668(6)
O16_8 O 0.3314(5) 0.9677(4) 0.0655(4)
O1_8 O 0.2821(4) 0.8750(4) 0.8310(4)
C1_8 C 0.2326(6) 0.9116(7) 0.8674(6)
H1_8 H 0.1970 0.8814 0.8797
C2_8 C 0.2621(8) 0.9411(7) 0.9303(7)
O2_8 O 0.3181(5) 0.9230(5) 0.9482(5)
O3_8 O 0.2250(5) 0.9803(5) 0.9610(5)
C3_8 C 0.2056(6) 0.9622(6) 0.8174(6)
C4_8 C 0.1494(7) 0.9296(6) 0.7792(6)
O4_8 O 0.0944(5) 0.9332(6) 0.8069(5)
O5_7 O 0.1626(4) 0.9008(4) 0.7274(5)
C5_8 C 0.2680(6) 0.9789(6) 0.7755(6)
C7_8 C 0.3080(6) 0.9142(6) 0.7760(6)
H4_8 H 0.3005 0.8904 0.7346
C8_8 C 0.3816(7) 0.9272(7) 0.7843(7)
O9_8 O 0.4082(4) 0.9095(4) 0.8399(5)
O10_8 O 0.4345(4) 0.8314(5) 0.9677(4)
O12_8 O 0.2898(4) 0.7868(5) 0.9463(5)
Co3_7 Co 0.00649(9) 0.93770(10) 0.77128(9)
Co4_7 Co 0.10305(9) 0.85740(9) 0.65901(9)
O1_9 O 0.7821(4) 0.6250(4) 0.1690(4)
C1_9 C 0.7326(6) 0.5884(7) 0.1326(6)
H1_9 H 0.6970 0.6186 0.1203
C2_9 C 0.7621(8) 0.5589(7) 0.0697(7)
O2_9 O 0.8181(5) 0.5770(5) 0.0518(5)
O3_9 O 0.7250(5) 0.5197(5) 0.0390(5)
C3_9 C 0.7056(6) 0.5378(6) 0.1826(6)
H2_9 H 0.6897 0.4983 0.1597
C4_9 C 0.6494(7) 0.5704(6) 0.2208(6)
O4_9 O 0.5944(5) 0.5668(6) 0.1931(5)
O5_8 O 0.6626(4) 0.5992(4) 0.2726(5)
C5_9 C 0.7680(6) 0.5211(6) 0.2245(6)
H3_9 H 0.7935 0.4879 0.2004
C6_9 C 0.7527(7) 0.4935(6) 0.2911(6)
O6_9 O 0.7132(5) 0.4463(5) 0.2898(4)
C7_9 C 0.8080(6) 0.5858(6) 0.2240(6)
H4_9 H 0.8005 0.6096 0.2654
C8_9 C 0.8816(7) 0.5728(7) 0.2157(7)
O9_9 O 0.9082(4) 0.5905(4) 0.1601(5)
O10_9 O 0.9345(4) 0.6686(5) 0.0323(4)
O12_9 O 0.7898(4) 0.7132(5) 0.0537(5)
Co3_8 Co 0.50649(9) 0.56230(10) 0.22872(9)
Co4_8 Co 0.60305(9) 0.64260(9) 0.34099(9)
Co5_9 Co 0.65901(9) 0.39695(9) 0.35740(9)
O13_9 O 0.6931(5) 0.5944(5) 0.9332(6)
O15_7 O 0.7394(5) 0.4104(4) 0.9538(5)
O16_9 O 0.8314(5) 0.5323(4) 0.9345(4)
O1_10 O 0.6690(4) 0.7179(4) 0.3750(4)
C1_10 C 0.6326(6) 0.7674(6) 0.4116(7)
H1_10 H 0.6203 0.8030 0.3814
C2_10 C 0.5697(7) 0.7379(8) 0.4411(7)
O2_10 O 0.5518(5) 0.6819(5) 0.4230(5)
O3_10 O 0.5390(5) 0.7750(5) 0.4803(5)
C3_10 C 0.6826(6) 0.7944(6) 0.4622(6)
H2_10 H 0.6597 0.8103 0.5017
C4_10 C 0.7208(6) 0.8506(7) 0.4296(6)
O4_10 O 0.6931(5) 0.9056(5) 0.4332(6)
C5_10 C 0.7245(6) 0.7320(6) 0.4789(6)
H3_10 H 0.7004 0.7065 0.5121
C6_10 C 0.7911(6) 0.7473(7) 0.5065(6)
O6_10 O 0.7898(4) 0.7868(5) 0.5537(5)
O7_6 O 0.8415(4) 0.7194(4) 0.4853(5)
C7_10 C 0.7240(6) 0.6920(6) 0.4142(6)
H4_10 H 0.7654 0.6995 0.3904
C8_10 C 0.7157(7) 0.6184(7) 0.4272(7)
O9_10 O 0.6601(5) 0.5918(4) 0.4095(4)
O10_10 O 0.5323(4) 0.5655(4) 0.3314(5)
O12_10 O 0.5537(5) 0.7102(4) 0.2868(5)
O13_10 O 0.4332(6) 0.8069(5) 0.4056(5)
O14_6 O 0.3415(4) 0.7806(4) 0.5147(5)
O16_10 O 0.4345(4) 0.6686(5) 0.4677(4)
Co5_10 Co 0.85740(9) 0.84099(9) 0.60305(9)
O13_11 O 0.0668(6) 0.1931(5) 0.9056(5)
O16_11 O 0.0655(4) 0.3314(5) 0.9677(4)
H2_11 H 0.8403 0.1897 0.0017
H3_11 H 0.7996 0.2935 0.0121
C6_11 C 0.7089(6) 0.2527(7) 0.0065(6)
O6_11 O 0.7102(4) 0.2132(5) 0.0537(5)
Co5_11 Co 0.64260(9) 0.15901(9) 0.10305(9)
O1_11 O 0.8310(4) 0.2821(4) 0.8750(4)
C1_11 C 0.8674(6) 0.2326(6) 0.9116(7)
H1_11 H 0.8797 0.1970 0.8814
C2_11 C 0.9303(7) 0.2621(8) 0.9411(7)
O2_11 O 0.9482(5) 0.3181(5) 0.9230(5)
O3_11 O 0.9610(5) 0.2250(5) 0.9803(5)
C3_11 C 0.8174(6) 0.2056(6) 0.9622(6)
C4_11 C 0.7792(6) 0.1494(7) 0.9296(6)
O4_11 O 0.8069(5) 0.0944(5) 0.9332(6)
C5_11 C 0.7755(6) 0.2680(6) 0.9789(6)
C7_11 C 0.7760(6) 0.3080(6) 0.9142(6)
H4_11 H 0.7346 0.3005 0.8904
C8_11 C 0.7843(7) 0.3816(7) 0.9272(7)
O9_11 O 0.8399(5) 0.4082(4) 0.9095(4)
O10_11 O 0.9677(4) 0.4345(4) 0.8314(5)
O12_11 O 0.9463(5) 0.2898(4) 0.7868(5)
O1_12 O 0.1690(4) 0.7821(4) 0.6250(4)
C1_12 C 0.1326(6) 0.7326(6) 0.5884(7)
H1_12 H 0.1203 0.6970 0.6186
C2_12 C 0.0697(7) 0.7621(8) 0.5589(7)
O2_12 O 0.0518(5) 0.8181(5) 0.5770(5)
O3_12 O 0.0390(5) 0.7250(5) 0.5197(5)
C3_12 C 0.1826(6) 0.7056(6) 0.5378(6)
H2_12 H 0.1597 0.6897 0.4983
C4_12 C 0.2208(6) 0.6494(7) 0.5704(6)
O4_12 O 0.1931(5) 0.5944(5) 0.5668(6)
C5_12 C 0.2245(6) 0.7680(6) 0.5211(6)
H3_12 H 0.2004 0.7935 0.4879
C6_12 C 0.2911(6) 0.7527(7) 0.4935(6)
O6_12 O 0.2898(4) 0.7132(5) 0.4463(5)
C7_12 C 0.2240(6) 0.8080(6) 0.5858(6)
H4_12 H 0.2654 0.8005 0.6096
C8_12 C 0.2157(7) 0.8816(7) 0.5728(7)
O9_12 O 0.1601(5) 0.9082(4) 0.5905(4)
O10_12 O 0.0323(4) 0.9345(4) 0.6686(5)
O12_12 O 0.0537(5) 0.7898(4) 0.7132(5)
Co5_12 Co 0.35740(9) 0.65901(9) 0.39695(9)
O13_12 O 0.9332(6) 0.6931(5) 0.5944(5)
O16_12 O 0.9345(4) 0.8314(5) 0.5323(4)
H2_13 H 0.0017 0.6597 0.6897
H3_13 H 0.0121 0.7004 0.7935
C6_13 C 0.0065(6) 0.7911(6) 0.7527(7)
O14_7 O 0.0147(5) 0.3415(4) 0.7194(4)
O15_8 O 0.0896(4) 0.4538(5) 0.7394(5)
O1_13 O 0.8750(4) 0.6690(4) 0.7821(4)
C1_13 C 0.9116(7) 0.6326(6) 0.7326(6)
H1_13 H 0.8814 0.6203 0.6970
C2_13 C 0.9411(7) 0.5697(7) 0.7621(8)
O2_13 O 0.9230(5) 0.5518(5) 0.8181(5)
O3_13 O 0.9803(5) 0.5390(5) 0.7250(5)
C3_13 C 0.9622(6) 0.6826(6) 0.7056(6)
C4_13 C 0.9296(6) 0.7208(6) 0.6494(7)
O5_9 O 0.9008(4) 0.7726(5) 0.6626(4)
C5_13 C 0.9789(6) 0.7245(6) 0.7680(6)
O7_7 O 0.9853(5) 0.8415(4) 0.7806(4)
C7_13 C 0.9142(6) 0.7240(6) 0.8080(6)
H4_13 H 0.8904 0.7654 0.8005
C8_13 C 0.9272(7) 0.7157(7) 0.8816(7)
O8_6 O 0.9538(5) 0.7606(5) 0.9104(4)
O9_13 O 0.9095(4) 0.6601(5) 0.9082(4)
O11_5 O 0.7726(5) 0.6626(4) 0.9008(4)
H2_14 H 0.6897 0.0017 0.6597
H3_14 H 0.7935 0.0121 0.7004
C6_14 C 0.7527(7) 0.0065(6) 0.7911(6)
O14_8 O 0.7194(4) 0.0147(5) 0.3415(4)
O15_9 O 0.7394(5) 0.0896(4) 0.4538(5)
O1_14 O 0.7821(4) 0.8750(4) 0.6690(4)
C1_14 C 0.7326(6) 0.9116(7) 0.6326(6)
H1_14 H 0.6970 0.8814 0.6203
C2_14 C 0.7621(8) 0.9411(7) 0.5697(7)
O2_14 O 0.8181(5) 0.9230(5) 0.5518(5)
O3_14 O 0.7250(5) 0.9803(5) 0.5390(5)
C3_14 C 0.7056(6) 0.9622(6) 0.6826(6)
C4_14 C 0.6494(7) 0.9296(6) 0.7208(6)
O5_10 O 0.6626(4) 0.9008(4) 0.7726(5)
C5_14 C 0.7680(6) 0.9789(6) 0.7245(6)
O7_8 O 0.7806(4) 0.9853(5) 0.8415(4)
C7_14 C 0.8080(6) 0.9142(6) 0.7240(6)
H4_14 H 0.8005 0.8904 0.7654
C8_14 C 0.8816(7) 0.9272(7) 0.7157(7)
O8_7 O 0.9104(4) 0.9538(5) 0.7606(5)
O9_14 O 0.9082(4) 0.9095(4) 0.6601(5)
H2_15 H 0.6597 0.6897 0.0017
H3_15 H 0.7004 0.7935 0.0121
C6_15 C 0.7911(6) 0.7527(7) 0.0065(6)
O14_9 O 0.3415(4) 0.7194(4) 0.0147(5)
O15_10 O 0.4538(5) 0.7394(5) 0.0896(4)
O1_15 O 0.6690(4) 0.7821(4) 0.8750(4)
C1_15 C 0.6326(6) 0.7326(6) 0.9116(7)
H1_15 H 0.6203 0.6970 0.8814
C2_15 C 0.5697(7) 0.7621(8) 0.9411(7)
O2_15 O 0.5518(5) 0.8181(5) 0.9230(5)
O3_15 O 0.5390(5) 0.7250(5) 0.9803(5)
C3_15 C 0.6826(6) 0.7056(6) 0.9622(6)
C4_15 C 0.7208(6) 0.6494(7) 0.9296(6)
C5_15 C 0.7245(6) 0.7680(6) 0.9789(6)
O7_9 O 0.8415(4) 0.7806(4) 0.9853(5)
C7_15 C 0.7240(6) 0.8080(6) 0.9142(6)
H4_15 H 0.7654 0.8005 0.8904
C8_15 C 0.7157(7) 0.8816(7) 0.9272(7)
O8_8 O 0.7606(5) 0.9104(4) 0.9538(5)
O9_15 O 0.6601(5) 0.9082(4) 0.9095(4)
O1_16 O 0.6250(4) 0.3310(4) 0.2821(4)
C1_16 C 0.5884(7) 0.3674(6) 0.2326(6)
H1_16 H 0.6186 0.3797 0.1970
C2_16 C 0.5589(7) 0.4303(7) 0.2621(8)
O2_16 O 0.5770(5) 0.4482(5) 0.3181(5)
O3_16 O 0.5197(5) 0.4610(5) 0.2250(5)
C3_16 C 0.5378(6) 0.3174(6) 0.2056(6)
H2_16 H 0.4983 0.3403 0.1897
C4_16 C 0.5704(6) 0.2792(6) 0.1494(7)
O5_11 O 0.5992(4) 0.2274(5) 0.1626(4)
C5_16 C 0.5211(6) 0.2755(6) 0.2680(6)
H3_16 H 0.4879 0.2996 0.2935
C6_16 C 0.4935(6) 0.2089(6) 0.2527(7)
O7_10 O 0.5147(5) 0.1585(4) 0.2806(4)
C7_16 C 0.5858(6) 0.2760(6) 0.3080(6)
H4_16 H 0.6096 0.2346 0.3005
C8_16 C 0.5728(7) 0.2843(7) 0.3816(7)
O8_9 O 0.5462(5) 0.2394(5) 0.4104(4)
O9_16 O 0.5905(4) 0.3399(5) 0.4082(4)
O11_6 O 0.7274(5) 0.3374(4) 0.4008(4)
O14_10 O 0.4853(5) 0.6585(4) 0.2194(4)
O15_11 O 0.4104(4) 0.5462(5) 0.2394(5)
O1_17 O 0.1250(4) 0.1690(4) 0.7179(4)
C1_17 C 0.0884(7) 0.1326(6) 0.7674(6)
H1_17 H 0.1186 0.1203 0.8030
C2_17 C 0.0589(7) 0.0697(7) 0.7379(8)
O2_17 O 0.0770(5) 0.0518(5) 0.6819(5)
O3_17 O 0.0197(5) 0.0390(5) 0.7750(5)
C3_17 C 0.0378(6) 0.1826(6) 0.7944(6)
C4_17 C 0.0704(6) 0.2208(6) 0.8506(7)
O5_12 O 0.0992(4) 0.2726(5) 0.8374(4)
C5_17 C 0.0211(6) 0.2245(6) 0.7320(6)
C7_17 C 0.0858(6) 0.2240(6) 0.6920(6)
H4_17 H 0.1096 0.2654 0.6995
C8_17 C 0.0728(7) 0.2157(7) 0.6184(7)
O8_10 O 0.0462(5) 0.2606(5) 0.5896(4)
O9_17 O 0.0905(4) 0.1601(5) 0.5918(4)
O11_7 O 0.2274(5) 0.1626(4) 0.5992(4)
H2_17 H 0.9983 0.1597 0.8103
H3_17 H 0.9879 0.2004 0.7065
C6_17 C 0.9935(6) 0.2911(6) 0.7473(7)
O15_12 O 0.5896(4) 0.0462(5) 0.2606(5)
O1_18 O 0.3750(4) 0.8310(4) 0.2179(4)
C1_18 C 0.4116(7) 0.8674(6) 0.2674(6)
H1_18 H 0.3814 0.8797 0.3030
C2_18 C 0.4411(7) 0.9303(7) 0.2379(8)
O2_18 O 0.4230(5) 0.9482(5) 0.1819(5)
O3_18 O 0.4803(5) 0.9610(5) 0.2750(5)
C3_18 C 0.4622(6) 0.8174(6) 0.2944(6)
H2_18 H 0.5017 0.8403 0.3103
C4_18 C 0.4296(6) 0.7792(6) 0.3506(7)
O5_13 O 0.4008(4) 0.7274(5) 0.3374(4)
C5_18 C 0.4789(6) 0.7755(6) 0.2320(6)
H3_18 H 0.5121 0.7996 0.2065
C6_18 C 0.5065(6) 0.7089(6) 0.2473(7)
C7_18 C 0.4142(6) 0.7760(6) 0.1920(6)
H4_18 H 0.3904 0.7346 0.1995
C8_18 C 0.4272(7) 0.7843(7) 0.1184(7)
O9_18 O 0.4095(4) 0.8399(5) 0.0918(4)
O11_8 O 0.2726(5) 0.8374(4) 0.0992(4)
O1_19 O 0.2821(4) 0.6250(4) 0.3310(4)
C1_19 C 0.2326(6) 0.5884(7) 0.3674(6)
H1_19 H 0.1970 0.6186 0.3797
C2_19 C 0.2621(8) 0.5589(7) 0.4303(7)
O2_19 O 0.3181(5) 0.5770(5) 0.4482(5)
O3_19 O 0.2250(5) 0.5197(5) 0.4610(5)
C3_19 C 0.2056(6) 0.5378(6) 0.3174(6)
H2_19 H 0.1897 0.4983 0.3403
C4_19 C 0.1494(7) 0.5704(6) 0.2792(6)
O5_14 O 0.1626(4) 0.5992(4) 0.2274(5)
C5_19 C 0.2680(6) 0.5211(6) 0.2755(6)
H3_19 H 0.2935 0.4879 0.2996
C6_19 C 0.2527(7) 0.4935(6) 0.2089(6)
O7_11 O 0.2806(4) 0.5147(5) 0.1585(4)
C7_19 C 0.3080(6) 0.5858(6) 0.2760(6)
H4_19 H 0.3005 0.6096 0.2346
C8_19 C 0.3816(7) 0.5728(7) 0.2843(7)
O9_19 O 0.4082(4) 0.5905(4) 0.3399(5)
O14_11 O 0.2194(4) 0.4853(5) 0.6585(4)
O15_13 O 0.2394(5) 0.4104(4) 0.5462(5)
O1_20 O 0.7179(4) 0.1250(4) 0.1690(4)
C1_20 C 0.7674(6) 0.0884(7) 0.1326(6)
H1_20 H 0.8030 0.1186 0.1203
C2_20 C 0.7379(8) 0.0589(7) 0.0697(7)
O2_20 O 0.6819(5) 0.0770(5) 0.0518(5)
O3_20 O 0.7750(5) 0.0197(5) 0.0390(5)
C3_20 C 0.7944(6) 0.0378(6) 0.1826(6)
C4_20 C 0.8506(7) 0.0704(6) 0.2208(6)
O5_15 O 0.8374(4) 0.0992(4) 0.2726(5)
C5_20 C 0.7320(6) 0.0211(6) 0.2245(6)
C7_20 C 0.6920(6) 0.0858(6) 0.2240(6)
H4_20 H 0.6995 0.1096 0.2654
C8_20 C 0.6184(7) 0.0728(7) 0.2157(7)
O9_20 O 0.5918(4) 0.0905(4) 0.1601(5)
H2_20 H 0.8103 0.9983 0.1597
H3_20 H 0.7065 0.9879 0.2004
C6_20 C 0.7473(7) 0.9935(6) 0.2911(6)
O15_14 O 0.2606(5) 0.5896(4) 0.0462(5)
O1_21 O 0.2179(4) 0.3750(4) 0.8310(4)
C1_21 C 0.2674(6) 0.4116(7) 0.8674(6)
H1_21 H 0.3030 0.3814 0.8797
C2_21 C 0.2379(8) 0.4411(7) 0.9303(7)
O2_21 O 0.1819(5) 0.4230(5) 0.9482(5)
O3_21 O 0.2750(5) 0.4803(5) 0.9610(5)
C3_21 C 0.2944(6) 0.4622(6) 0.8174(6)
H2_21 H 0.3103 0.5017 0.8403
C4_21 C 0.3506(7) 0.4296(6) 0.7792(6)
O5_16 O 0.3374(4) 0.4008(4) 0.7274(5)
C5_21 C 0.2320(6) 0.4789(6) 0.7755(6)
H3_21 H 0.2065 0.5121 0.7996
C6_21 C 0.2473(7) 0.5065(6) 0.7089(6)
C7_21 C 0.1920(6) 0.4142(6) 0.7760(6)
H4_21 H 0.1995 0.3904 0.7346
C8_21 C 0.1184(7) 0.4272(7) 0.7843(7)
O9_21 O 0.0918(4) 0.4095(4) 0.8399(5)
O1_22 O 0.3310(4) 0.2821(4) 0.6250(4)
C1_22 C 0.3674(6) 0.2326(6) 0.5884(7)
H1_22 H 0.3797 0.1970 0.6186
C2_22 C 0.4303(7) 0.2621(8) 0.5589(7)
O2_22 O 0.4482(5) 0.3181(5) 0.5770(5)
O3_22 O 0.4610(5) 0.2250(5) 0.5197(5)
C3_22 C 0.3174(6) 0.2056(6) 0.5378(6)
H2_22 H 0.3403 0.1897 0.4983
C4_22 C 0.2792(6) 0.1494(7) 0.5704(6)
C5_22 C 0.2755(6) 0.2680(6) 0.5211(6)
H3_22 H 0.2996 0.2935 0.4879
C6_22 C 0.2089(6) 0.2527(7) 0.4935(6)
O7_12 O 0.1585(4) 0.2806(4) 0.5147(5)
C7_22 C 0.2760(6) 0.3080(6) 0.5858(6)
H4_22 H 0.2346 0.3005 0.6096
C8_22 C 0.2843(7) 0.3816(7) 0.5728(7)
O9_22 O 0.3399(5) 0.4082(4) 0.5905(4)
O14_12 O 0.6585(4) 0.2194(4) 0.4853(5)
O1_23 O 0.1690(4) 0.7179(4) 0.1250(4)
C1_23 C 0.1326(6) 0.7674(6) 0.0884(7)
H1_23 H 0.1203 0.8030 0.1186
C2_23 C 0.0697(7) 0.7379(8) 0.0589(7)
O2_23 O 0.0518(5) 0.6819(5) 0.0770(5)
O3_23 O 0.0390(5) 0.7750(5) 0.0197(5)
C3_23 C 0.1826(6) 0.7944(6) 0.0378(6)
C4_23 C 0.2208(6) 0.8506(7) 0.0704(6)
C5_23 C 0.2245(6) 0.7320(6) 0.0211(6)
C7_23 C 0.2240(6) 0.6920(6) 0.0858(6)
H4_23 H 0.2654 0.6995 0.1096
C8_23 C 0.2157(7) 0.6184(7) 0.0728(7)
O9_23 O 0.1601(5) 0.5918(4) 0.0905(4)
H2_23 H 0.1597 0.8103 0.9983
H3_23 H 0.2004 0.7065 0.9879
C6_23 C 0.2911(6) 0.7473(7) 0.9935(6)
O1_24 O 0.8310(4) 0.2179(4) 0.3750(4)
C1_24 C 0.8674(6) 0.2674(6) 0.4116(7)
H1_24 H 0.8797 0.3030 0.3814
C2_24 C 0.9303(7) 0.2379(8) 0.4411(7)
O2_24 O 0.9482(5) 0.1819(5) 0.4230(5)
O3_24 O 0.9610(5) 0.2750(5) 0.4803(5)
C3_24 C 0.8174(6) 0.2944(6) 0.4622(6)
H2_24 H 0.8403 0.3103 0.5017
C4_24 C 0.7792(6) 0.3506(7) 0.4296(6)
C5_24 C 0.7755(6) 0.2320(6) 0.4789(6)
H3_24 H 0.7996 0.2065 0.5121
C6_24 C 0.7089(6) 0.2473(7) 0.5065(6)
C7_24 C 0.7760(6) 0.1920(6) 0.4142(6)
H4_24 H 0.7346 0.1995 0.3904
C8_24 C 0.7843(7) 0.1184(7) 0.4272(7)
O9_24 O 0.8399(5) 0.0918(4) 0.4095(4)
loop_
_geom_bond_atom_site_label_1
_geom_bond_atom_site_label_2
_geom_bond_site_symmetry_1
_geom_bond_site_symmetry_2
Co1 O1 1_555 1_555
Co2 O3 1_555 1_555
O1 C1 1_555 1_555
C1 H1 1_555 1_555
C2 C1 1_555 1_555
O2 Co1 1_555 1_555
O3 C2 1_555 1_555
C3 C1 1_555 1_555
C4 C3 1_555 1_555
O4 C4 1_555 1_555
O5 C4 1_555 1_555
C5 C3 1_555 1_555
C7 O1 1_555 1_555
H4 C7 1_555 1_555
C8 C7 1_555 1_555
O8 C8 1_555 1_555
O9 Co1 1_555 1_555
O10 Co1 1_555 1_555
O11 Co1 1_555 1_555
O12 Co1 1_555 1_555
O13 Co2 1_555 1_555
O16 Co2 1_555 1_555
Co3 O4 1_555 1_555
Co4 O5 1_555 1_555
Co8 O10 1_555 1_555
C2 O2 1_555 1_555
C5 C7 1_555 1_555
C8 O9 1_555 1_555
O6 C6 1_555 1_555
Co5 O6 1_555 1_555
Co4 O1_2 1_555 1_555
Co2_2 O3_2 1_555 1_555
O1_2 C1_2 1_555 1_555
C1_2 H1_2 1_555 1_555
C2_2 C1_2 1_555 1_555
O2_2 Co4 1_555 1_555
O3_2 C2_2 1_555 1_555
C3_2 C1_2 1_555 1_555
C4_2 C3_2 1_555 1_555
O4_2 C4_2 1_555 1_555
O5_2 C4_2 1_555 1_555
C5_2 C3_2 1_555 1_555
C7_2 O1_2 1_555 1_555
H4_2 C7_2 1_555 1_555
C8_2 C7_2 1_555 1_555
O8_2 C8_2 1_555 1_555
O9_2 Co4 1_555 1_555
O10_2 Co4 1_555 1_555
O12_2 Co4 1_555 1_555
O13_2 Co2_2 1_555 1_555
O16_2 Co2_2 1_555 1_555
Co3_2 O4_2 1_555 1_555
Co4_2 O5_2 1_555 1_555
Co3 O10_2 1_555 1_555
C2_2 O2_2 1_555 1_555
C5_2 C7_2 1_555 1_555
C8_2 O9_2 1_555 1_555
O6_2 C6_2 1_555 1_555
Co5_2 O6_2 1_555 1_555
Co4_2 O1_3 1_555 1_555
Co2_3 O3_3 1_555 1_555
O1_3 C1_3 1_555 1_555
C1_3 H1_3 1_555 1_555
C2_3 C1_3 1_555 1_555
O2_3 Co4_2 1_555 1_555
O3_3 C2_3 1_555 1_555
C3_3 C1_3 1_555 1_555
C4_3 C3_3 1_555 1_555
O4_3 C4_3 1_555 1_555
O11 C4_3 1_555 1_555
C5_3 C3_3 1_555 1_555
C7_3 O1_3 1_555 1_555
H4_3 C7_3 1_555 1_555
C8_3 C7_3 1_555 1_555
O8_3 C8_3 1_555 1_555
O9_3 Co4_2 1_555 1_555
O10_3 Co4_2 1_555 1_555
O12_3 Co4_2 1_555 1_555
O13_3 Co2_3 1_555 1_555
O16_3 Co2_3 1_555 1_555
Co8 O4_3 1_555 1_555
Co3_2 O10_3 1_555 1_555
C2_3 O2_3 1_555 1_555
C5_3 C7_3 1_555 1_555
C8_3 O9_3 1_555 1_555
O6_3 C6_3 1_555 1_555
Co5_3 O6_3 1_555 1_555
Co1_2 O1_4 1_555 1_555
Co2_4 O3_4 1_555 1_555
O1_4 C1_4 1_555 1_555
C1_4 H1_4 1_555 1_555
C2_4 C1_4 1_555 1_555
O2_4 Co1_2 1_555 1_555
O3_4 C2_4 1_555 1_555
C3_4 C1_4 1_555 1_555
H2_4 C3_4 1_555 1_555
C4_4 C3_4 1_555 1_555
O4_4 C4_4 1_555 1_555
O5_3 C4_4 1_555 1_555
C5_4 C3_4 1_555 1_555
H3_4 C5_4 1_555 1_555
C6_4 C5_4 1_555 1_555
O6_4 C6_4 1_555 1_555
O7_4 C6_4 1_555 1_555
C7_4 O1_4 1_555 1_555
H4_4 C7_4 1_555 1_555
C8_4 C7_4 1_555 1_555
O8_4 C8_4 1_555 1_555
O9_4 Co1_2 1_555 1_555
O10_4 Co1_2 1_555 1_555
O11_2 Co1_2 1_555 1_555
O12_4 Co1_2 1_555 1_555
O13_4 Co2_4 1_555 1_555
O14_4 Co2_4 1_555 1_555
O15_4 Co2_4 1_555 1_555
O16_4 Co2_4 1_555 1_555
Co3_3 O4_4 1_555 1_555
Co4_3 O5_3 1_555 1_555
Co5_4 O6_4 1_555 1_555
Co6_3 O7_4 1_555 1_555
Co7_2 O8_4 1_555 1_555
Co8_2 O10_4 1_555 1_555
C2_4 O2_4 1_555 1_555
C5_4 C7_4 1_555 1_555
C8_4 O9_4 1_555 1_555
O6_5 C6_5 1_555 1_555
Co5_5 O6_5 1_555 1_555
O13_5 Co6 1_555 1_555
O16_5 Co6 1_555 1_555
Co1_3 O1_5 1_555 1_555
O1_5 C1_5 1_555 1_555
C1_5 H1_5 1_555 1_555
C2_5 C1_5 1_555 1_555
O2_5 Co1_3 1_555 1_555
O3_5 C2_5 1_555 1_555
C3_5 C1_5 1_555 1_555
C4_5 C3_5 1_555 1_555
O4_5 C4_5 1_555 1_555
O5_4 C4_5 1_555 1_555
C5_5 C3_5 1_555 1_555
C7_5 O1_5 1_555 1_555
H4_5 C7_5 1_555 1_555
C8_5 C7_5 1_555 1_555
O8_5 C8_5 1_555 1_555
O9_5 Co1_3 1_555 1_555
O10_5 Co1_3 1_555 1_555
O11_3 Co1_3 1_555 1_555
O12_5 Co1_3 1_555 1_555
Co3_4 O4_5 1_555 1_555
Co4_4 O5_4 1_555 1_555
Co7_3 O8_5 1_555 1_555
Co8_3 O10_5 1_555 1_555
C2_5 O2_5 1_555 1_555
C5_5 C7_5 1_555 1_555
C8_5 O9_5 1_555 1_555
Co1_4 O1_6 1_555 1_555
O1_6 C1_6 1_555 1_555
C1_6 H1_6 1_555 1_555
C2_6 C1_6 1_555 1_555
O2_6 Co1_4 1_555 1_555
O3_6 C2_6 1_555 1_555
C3_6 C1_6 1_555 1_555
H2_6 C3_6 1_555 1_555
C4_6 C3_6 1_555 1_555
O4_6 C4_6 1_555 1_555
O5_5 C4_6 1_555 1_555
C5_6 C3_6 1_555 1_555
H3_6 C5_6 1_555 1_555
C6_6 C5_6 1_555 1_555
O6_6 C6_6 1_555 1_555
O14_4 C6_6 1_555 1_555
C7_6 O1_6 1_555 1_555
H4_6 C7_6 1_555 1_555
C8_6 C7_6 1_555 1_555
O15_3 C8_6 1_555 1_555
O9_6 Co1_4 1_555 1_555
O10_6 Co1_4 1_555 1_555
O11_4 Co1_4 1_555 1_555
O12_6 Co1_4 1_555 1_555
Co3_5 O4_6 1_555 1_555
Co4_5 O5_5 1_555 1_555
Co5_6 O6_6 1_555 1_555
Co8_4 O10_6 1_555 1_555
C2_6 O2_6 1_555 1_555
C5_6 C7_6 1_555 1_555
C8_6 O9_6 1_555 1_555
O13_6 Co6_3 1_555 1_555
O15_5 Co6_3 1_555 1_555
O16_6 Co6_3 1_555 1_555
Co4_5 O1_7 1_555 1_555
Co2_5 O3_7 1_555 1_555
O1_7 C1_7 1_555 1_555
C1_7 H1_7 1_555 1_555
C2_7 C1_7 1_555 1_555
O2_7 Co4_5 1_555 1_555
O3_7 C2_7 1_555 1_555
C3_7 C1_7 1_555 1_555
H2_7 C3_7 1_555 1_555
C4_7 C3_7 1_555 1_555
O4_7 C4_7 1_555 1_555
O5_6 C4_7 1_555 1_555
C5_7 C3_7 1_555 1_555
H3_7 C5_7 1_555 1_555
C6_7 C5_7 1_555 1_555
O6_7 C6_7 1_555 1_555
O7_5 C6_7 1_555 1_555
C7_7 O1_7 1_555 1_555
H4_7 C7_7 1_555 1_555
C8_7 C7_7 1_555 1_555
O15_4 C8_7 1_555 1_555
O9_7 Co4_5 1_555 1_555
O10_7 Co4_5 1_555 1_555
O12_7 Co4_5 1_555 1_555
O13_7 Co2_5 1_555 1_555
O14_5 Co2_5 1_555 1_555
O15_6 Co2_5 1_555 1_555
O16_7 Co2_5 1_555 1_555
Co3_6 O4_7 1_555 1_555
Co4_6 O5_6 1_555 1_555
Co5_7 O6_7 1_555 1_555
Co6_4 O7_5 1_555 1_555
Co3_5 O10_7 1_555 1_555
C2_7 O2_7 1_555 1_555
C5_7 C7_7 1_555 1_555
C8_7 O9_7 1_555 1_555
O6_8 C6_8 1_555 1_555
Co5_8 O6_8 1_555 1_555
O13_8 Co6_2 1_555 1_555
O16_8 Co6_2 1_555 1_555
Co4_3 O1_8 1_555 1_555
O1_8 C1_8 1_555 1_555
C1_8 H1_8 1_555 1_555
C2_8 C1_8 1_555 1_555
O2_8 Co4_3 1_555 1_555
O3_8 C2_8 1_555 1_555
C3_8 C1_8 1_555 1_555
C4_8 C3_8 1_555 1_555
O4_8 C4_8 1_555 1_555
O5_7 C4_8 1_555 1_555
C5_8 C3_8 1_555 1_555
C7_8 O1_8 1_555 1_555
H4_8 C7_8 1_555 1_555
C8_8 C7_8 1_555 1_555
O15_5 C8_8 1_555 1_555
O9_8 Co4_3 1_555 1_555
O10_8 Co4_3 1_555 1_555
O12_8 Co4_3 1_555 1_555
Co3_7 O4_8 1_555 1_555
Co4_7 O5_7 1_555 1_555
Co3_3 O10_8 1_555 1_555
C2_8 O2_8 1_555 1_555
C5_8 C7_8 1_555 1_555
C8_8 O9_8 1_555 1_555
Co4_4 O1_9 1_555 1_555
O1_9 C1_9 1_555 1_555
C1_9 H1_9 1_555 1_555
C2_9 C1_9 1_555 1_555
O2_9 Co4_4 1_555 1_555
O3_9 C2_9 1_555 1_555
C3_9 C1_9 1_555 1_555
H2_9 C3_9 1_555 1_555
C4_9 C3_9 1_555 1_555
O4_9 C4_9 1_555 1_555
O5_8 C4_9 1_555 1_555
C5_9 C3_9 1_555 1_555
H3_9 C5_9 1_555 1_555
C6_9 C5_9 1_555 1_555
O6_9 C6_9 1_555 1_555
O14_5 C6_9 1_555 1_555
C7_9 O1_9 1_555 1_555
H4_9 C7_9 1_555 1_555
C8_9 C7_9 1_555 1_555
O15 C8_9 1_555 1_555
O9_9 Co4_4 1_555 1_555
O10_9 Co4_4 1_555 1_555
O12_9 Co4_4 1_555 1_555
Co3_8 O4_9 1_555 1_555
Co4_8 O5_8 1_555 1_555
Co5_9 O6_9 1_555 1_555
Co3_4 O10_9 1_555 1_555
C2_9 O2_9 1_555 1_555
C5_9 C7_9 1_555 1_555
C8_9 O9_9 1_555 1_555
O13_9 Co6_4 1_555 1_555
O15_7 Co6_4 1_555 1_555
O16_9 Co6_4 1_555 1_555
Co4_8 O1_10 1_555 1_555
Co7_2 O3_10 1_555 1_555
O1_10 C1_10 1_555 1_555
C1_10 H1_10 1_555 1_555
C2_10 C1_10 1_555 1_555
O2_10 Co4_8 1_555 1_555
O3_10 C2_10 1_555 1_555
C3_10 C1_10 1_555 1_555
H2_10 C3_10 1_555 1_555
C4_10 C3_10 1_555 1_555
O4_10 C4_10 1_555 1_555
O11_3 C4_10 1_555 1_555
C5_10 C3_10 1_555 1_555
H3_10 C5_10 1_555 1_555
C6_10 C5_10 1_555 1_555
O6_10 C6_10 1_555 1_555
O7_6 C6_10 1_555 1_555
C7_10 O1_10 1_555 1_555
H4_10 C7_10 1_555 1_555
C8_10 C7_10 1_555 1_555
O15_6 C8_10 1_555 1_555
O9_10 Co4_8 1_555 1_555
O10_10 Co4_8 1_555 1_555
O12_10 Co4_8 1_555 1_555
O13_10 Co7_2 1_555 1_555
O14_6 Co7_2 1_555 1_555
O16_10 Co7_2 1_555 1_555
Co8_3 O4_10 1_555 1_555
Co5_10 O6_10 1_555 1_555
Co7_3 O7_6 1_555 1_555
Co3_8 O10_10 1_555 1_555
C2_10 O2_10 1_555 1_555
C5_10 C7_10 1_555 1_555
C8_10 O9_10 1_555 1_555
O13_11 Co7 1_555 1_555
O16_11 Co7 1_555 1_555
O6_11 C6_11 1_555 1_555
Co5_11 O6_11 1_555 1_555
Co4_6 O1_11 1_555 1_555
O1_11 C1_11 1_555 1_555
C1_11 H1_11 1_555 1_555
C2_11 C1_11 1_555 1_555
O2_11 Co4_6 1_555 1_555
O3_11 C2_11 1_555 1_555
C3_11 C1_11 1_555 1_555
C4_11 C3_11 1_555 1_555
O4_11 C4_11 1_555 1_555
O11_4 C4_11 1_555 1_555
C5_11 C3_11 1_555 1_555
C7_11 O1_11 1_555 1_555
H4_11 C7_11 1_555 1_555
C8_11 C7_11 1_555 1_555
O15_7 C8_11 1_555 1_555
O9_11 Co4_6 1_555 1_555
O10_11 Co4_6 1_555 1_555
O12_11 Co4_6 1_555 1_555
Co8_4 O4_11 1_555 1_555
Co3_6 O10_11 1_555 1_555
C2_11 O2_11 1_555 1_555
C5_11 C7_11 1_555 1_555
C8_11 O9_11 1_555 1_555
Co4_7 O1_12 1_555 1_555
O1_12 C1_12 1_555 1_555
C1_12 H1_12 1_555 1_555
C2_12 C1_12 1_555 1_555
O2_12 Co4_7 1_555 1_555
O3_12 C2_12 1_555 1_555
C3_12 C1_12 1_555 1_555
H2_12 C3_12 1_555 1_555
C4_12 C3_12 1_555 1_555
O4_12 C4_12 1_555 1_555
O11_2 C4_12 1_555 1_555
C5_12 C3_12 1_555 1_555
H3_12 C5_12 1_555 1_555
C6_12 C5_12 1_555 1_555
O6_12 C6_12 1_555 1_555
O14_6 C6_12 1_555 1_555
C7_12 O1_12 1_555 1_555
H4_12 C7_12 1_555 1_555
C8_12 C7_12 1_555 1_555
O15_2 C8_12 1_555 1_555
O9_12 Co4_7 1_555 1_555
O10_12 Co4_7 1_555 1_555
O12_12 Co4_7 1_555 1_555
Co8_2 O4_12 1_555 1_555
Co5_12 O6_12 1_555 1_555
Co3_7 O10_12 1_555 1_555
C2_12 O2_12 1_555 1_555
C5_12 C7_12 1_555 1_555
C8_12 O9_12 1_555 1_555
O13_12 Co7_3 1_555 1_555
O16_12 Co7_3 1_555 1_555
O12_12 C6_13 1_555 1_555
Co5_7 O1_13 1_555 1_555
Co3_6 O3_13 1_555 1_555
O1_13 C1_13 1_555 1_555
C1_13 H1_13 1_555 1_555
C2_13 C1_13 1_555 1_555
O2_13 Co5_7 1_555 1_555
O3_13 C2_13 1_555 1_555
C3_13 C1_13 1_555 1_555
C4_13 C3_13 1_555 1_555
O13_12 C4_13 1_555 1_555
O5_9 C4_13 1_555 1_555
C5_13 C3_13 1_555 1_555
C7_13 O1_13 1_555 1_555
H4_13 C7_13 1_555 1_555
C8_13 C7_13 1_555 1_555
O8_6 C8_13 1_555 1_555
O9_13 Co5_7 1_555 1_555
O16_9 Co5_7 1_555 1_555
O11_5 Co5_7 1_555 1_555
Co5_10 O5_9 1_555 1_555
C2_13 O2_13 1_555 1_555
C5_13 C7_13 1_555 1_555
C8_13 O9_13 1_555 1_555
O12_6 C6_14 1_555 1_555
Co5_10 O1_14 1_555 1_555
Co8_3 O3_14 1_555 1_555
O1_14 C1_14 1_555 1_555
C1_14 H1_14 1_555 1_555
C2_14 C1_14 1_555 1_555
O2_14 Co5_10 1_555 1_555
O3_14 C2_14 1_555 1_555
C3_14 C1_14 1_555 1_555
C4_14 C3_14 1_555 1_555
O13_6 C4_14 1_555 1_555
O5_10 C4_14 1_555 1_555
C5_14 C3_14 1_555 1_555
C7_14 O1_14 1_555 1_555
H4_14 C7_14 1_555 1_555
C8_14 C7_14 1_555 1_555
O8_7 C8_14 1_555 1_555
O9_14 Co5_10 1_555 1_555
O16_12 Co5_10 1_555 1_555
Co5_4 O5_10 1_555 1_555
C2_14 O2_14 1_555 1_555
C5_14 C7_14 1_555 1_555
C8_14 O9_14 1_555 1_555
O12_9 C6_15 1_555 1_555
Co5_4 O1_15 1_555 1_555
Co3_3 O3_15 1_555 1_555
O1_15 C1_15 1_555 1_555
C1_15 H1_15 1_555 1_555
C2_15 C1_15 1_555 1_555
O2_15 Co5_4 1_555 1_555
O3_15 C2_15 1_555 1_555
C3_15 C1_15 1_555 1_555
C4_15 C3_15 1_555 1_555
O13_9 C4_15 1_555 1_555
O11_5 C4_15 1_555 1_555
C5_15 C3_15 1_555 1_555
C7_15 O1_15 1_555 1_555
H4_15 C7_15 1_555 1_555
C8_15 C7_15 1_555 1_555
O8_8 C8_15 1_555 1_555
O9_15 Co5_4 1_555 1_555
O16_6 Co5_4 1_555 1_555
C2_15 O2_15 1_555 1_555
C5_15 C7_15 1_555 1_555
C8_15 O9_15 1_555 1_555
Co5_9 O1_16 1_555 1_555
Co3_8 O3_16 1_555 1_555
O1_16 C1_16 1_555 1_555
C1_16 H1_16 1_555 1_555
C2_16 C1_16 1_555 1_555
O2_16 Co5_9 1_555 1_555
O3_16 C2_16 1_555 1_555
C3_16 C1_16 1_555 1_555
H2_16 C3_16 1_555 1_555
C4_16 C3_16 1_555 1_555
O13_3 C4_16 1_555 1_555
O5_11 C4_16 1_555 1_555
C5_16 C3_16 1_555 1_555
H3_16 C5_16 1_555 1_555
C6_16 C5_16 1_555 1_555
O12_3 C6_16 1_555 1_555
O7_10 C6_16 1_555 1_555
C7_16 O1_16 1_555 1_555
H4_16 C7_16 1_555 1_555
C8_16 C7_16 1_555 1_555
O8_9 C8_16 1_555 1_555
O9_16 Co5_9 1_555 1_555
O16_7 Co5_9 1_555 1_555
O11_6 Co5_9 1_555 1_555
O14_10 Co3_8 1_555 1_555
O15_11 Co3_8 1_555 1_555
Co5_11 O5_11 1_555 1_555
Co3_2 O7_10 1_555 1_555
Co3_5 O8_9 1_555 1_555
C2_16 O2_16 1_555 1_555
C5_16 C7_16 1_555 1_555
C8_16 O9_16 1_555 1_555
Co5_8 O1_17 1_555 1_555
O1_17 C1_17 1_555 1_555
C1_17 H1_17 1_555 1_555
C2_17 C1_17 1_555 1_555
O2_17 Co5_8 1_555 1_555
O3_17 C2_17 1_555 1_555
C3_17 C1_17 1_555 1_555
C4_17 C3_17 1_555 1_555
O13_11 C4_17 1_555 1_555
O5_12 C4_17 1_555 1_555
C5_17 C3_17 1_555 1_555
C7_17 O1_17 1_555 1_555
H4_17 C7_17 1_555 1_555
C8_17 C7_17 1_555 1_555
O8_10 C8_17 1_555 1_555
O9_17 Co5_8 1_555 1_555
O16_2 Co5_8 1_555 1_555
O11_7 Co5_8 1_555 1_555
Co5_3 O5_12 1_555 1_555
Co3 O8_10 1_555 1_555
C2_17 O2_17 1_555 1_555
C5_17 C7_17 1_555 1_555
C8_17 O9_17 1_555 1_555
O12_11 C6_17 1_555 1_555
O15_12 Co3_2 1_555 1_555
Co5_2 O1_18 1_555 1_555
O1_18 C1_18 1_555 1_555
C1_18 H1_18 1_555 1_555
C2_18 C1_18 1_555 1_555
O2_18 Co5_2 1_555 1_555
O3_18 C2_18 1_555 1_555
C3_18 C1_18 1_555 1_555
H2_18 C3_18 1_555 1_555
C4_18 C3_18 1_555 1_555
O13_10 C4_18 1_555 1_555
O5_13 C4_18 1_555 1_555
C5_18 C3_18 1_555 1_555
H3_18 C5_18 1_555 1_555
C6_18 C5_18 1_555 1_555
O12_10 C6_18 1_555 1_555
O14_10 C6_18 1_555 1_555
C7_18 O1_18 1_555 1_555
H4_18 C7_18 1_555 1_555
C8_18 C7_18 1_555 1_555
O15_10 C8_18 1_555 1_555
O9_18 Co5_2 1_555 1_555
O16_8 Co5_2 1_555 1_555
O11_8 Co5_2 1_555 1_555
Co5_12 O5_13 1_555 1_555
C2_18 O2_18 1_555 1_555
C5_18 C7_18 1_555 1_555
C8_18 O9_18 1_555 1_555
Co5_12 O1_19 1_555 1_555
Co8_2 O3_19 1_555 1_555
O1_19 C1_19 1_555 1_555
C1_19 H1_19 1_555 1_555
C2_19 C1_19 1_555 1_555
O2_19 Co5_12 1_555 1_555
O3_19 C2_19 1_555 1_555
C3_19 C1_19 1_555 1_555
H2_19 C3_19 1_555 1_555
C4_19 C3_19 1_555 1_555
O13 C4_19 1_555 1_555
O5_14 C4_19 1_555 1_555
C5_19 C3_19 1_555 1_555
H3_19 C5_19 1_555 1_555
C6_19 C5_19 1_555 1_555
O12 C6_19 1_555 1_555
O7_11 C6_19 1_555 1_555
C7_19 O1_19 1_555 1_555
H4_19 C7_19 1_555 1_555
C8_19 C7_19 1_555 1_555
O15_11 C8_19 1_555 1_555
O9_19 Co5_12 1_555 1_555
O16_10 Co5_12 1_555 1_555
O14_11 Co8_2 1_555 1_555
O15_13 Co8_2 1_555 1_555
Co5_5 O5_14 1_555 1_555
Co8 O7_11 1_555 1_555
C2_19 O2_19 1_555 1_555
C5_19 C7_19 1_555 1_555
C8_19 O9_19 1_555 1_555
Co5_11 O1_20 1_555 1_555
O1_20 C1_20 1_555 1_555
C1_20 H1_20 1_555 1_555
C2_20 C1_20 1_555 1_555
O2_20 Co5_11 1_555 1_555
O3_20 C2_20 1_555 1_555
C3_20 C1_20 1_555 1_555
C4_20 C3_20 1_555 1_555
O13_5 C4_20 1_555 1_555
O5_15 C4_20 1_555 1_555
C5_20 C3_20 1_555 1_555
C7_20 O1_20 1_555 1_555
H4_20 C7_20 1_555 1_555
C8_20 C7_20 1_555 1_555
O15_12 C8_20 1_555 1_555
O9_20 Co5_11 1_555 1_555
O16_3 Co5_11 1_555 1_555
Co5 O5_15 1_555 1_555
C2_20 O2_20 1_555 1_555
C5_20 C7_20 1_555 1_555
C8_20 O9_20 1_555 1_555
O12_5 C6_20 1_555 1_555
O15_14 Co8 1_555 1_555
Co5_3 O1_21 1_555 1_555
O1_21 C1_21 1_555 1_555
C1_21 H1_21 1_555 1_555
C2_21 C1_21 1_555 1_555
O2_21 Co5_3 1_555 1_555
O3_21 C2_21 1_555 1_555
C3_21 C1_21 1_555 1_555
H2_21 C3_21 1_555 1_555
C4_21 C3_21 1_555 1_555
O13_4 C4_21 1_555 1_555
O5_16 C4_21 1_555 1_555
C5_21 C3_21 1_555 1_555
H3_21 C5_21 1_555 1_555
C6_21 C5_21 1_555 1_555
O12_4 C6_21 1_555 1_555
O14_11 C6_21 1_555 1_555
C7_21 O1_21 1_555 1_555
H4_21 C7_21 1_555 1_555
C8_21 C7_21 1_555 1_555
O15_8 C8_21 1_555 1_555
O9_21 Co5_3 1_555 1_555
O16_11 Co5_3 1_555 1_555
Co5_6 O5_16 1_555 1_555
C2_21 O2_21 1_555 1_555
C5_21 C7_21 1_555 1_555
C8_21 O9_21 1_555 1_555
Co5_6 O1_22 1_555 1_555
Co3_5 O3_22 1_555 1_555
O1_22 C1_22 1_555 1_555
C1_22 H1_22 1_555 1_555
C2_22 C1_22 1_555 1_555
O2_22 Co5_6 1_555 1_555
O3_22 C2_22 1_555 1_555
C3_22 C1_22 1_555 1_555
H2_22 C3_22 1_555 1_555
C4_22 C3_22 1_555 1_555
O13_2 C4_22 1_555 1_555
O11_7 C4_22 1_555 1_555
C5_22 C3_22 1_555 1_555
H3_22 C5_22 1_555 1_555
C6_22 C5_22 1_555 1_555
O12_2 C6_22 1_555 1_555
O7_12 C6_22 1_555 1_555
C7_22 O1_22 1_555 1_555
H4_22 C7_22 1_555 1_555
C8_22 C7_22 1_555 1_555
O15_13 C8_22 1_555 1_555
O9_22 Co5_6 1_555 1_555
O16_4 Co5_6 1_555 1_555
O14_12 Co3_5 1_555 1_555
Co3 O7_12 1_555 1_555
C2_22 O2_22 1_555 1_555
C5_22 C7_22 1_555 1_555
C8_22 O9_22 1_555 1_555
Co5_5 O1_23 1_555 1_555
O1_23 C1_23 1_555 1_555
C1_23 H1_23 1_555 1_555
C2_23 C1_23 1_555 1_555
O2_23 Co5_5 1_555 1_555
O3_23 C2_23 1_555 1_555
C3_23 C1_23 1_555 1_555
C4_23 C3_23 1_555 1_555
O13_8 C4_23 1_555 1_555
O11_8 C4_23 1_555 1_555
C5_23 C3_23 1_555 1_555
C7_23 O1_23 1_555 1_555
H4_23 C7_23 1_555 1_555
C8_23 C7_23 1_555 1_555
O15_14 C8_23 1_555 1_555
O9_23 Co5_5 1_555 1_555
O16 Co5_5 1_555 1_555
C2_23 O2_23 1_555 1_555
C5_23 C7_23 1_555 1_555
C8_23 O9_23 1_555 1_555
O12_8 C6_23 1_555 1_555
Co5 O1_24 1_555 1_555
O1_24 C1_24 1_555 1_555
C1_24 H1_24 1_555 1_555
C2_24 C1_24 1_555 1_555
O2_24 Co5 1_555 1_555
O3_24 C2_24 1_555 1_555
C3_24 C1_24 1_555 1_555
H2_24 C3_24 1_555 1_555
C4_24 C3_24 1_555 1_555
O13_7 C4_24 1_555 1_555
O11_6 C4_24 1_555 1_555
C5_24 C3_24 1_555 1_555
H3_24 C5_24 1_555 1_555
C6_24 C5_24 1_555 1_555
O12_7 C6_24 1_555 1_555
O14_12 C6_24 1_555 1_555
C7_24 O1_24 1_555 1_555
H4_24 C7_24 1_555 1_555
C8_24 C7_24 1_555 1_555
O15_9 C8_24 1_555 1_555
O9_24 Co5 1_555 1_555
O16_5 Co5 1_555 1_555
C2_24 O2_24 1_555 1_555
C5_24 C7_24 1_555 1_555
C8_24 O9_24 1_555 1_555

#END
