
###############################################################################
#
# This file contains modified crystal structure data generated from the
# MOF subset of the Cambridge Structural Database (CSD) v543 
# hosted by the Cambridge Crystallographic Data Centre (CCDC).
#
# This work is licensed under the Creative Commons
# Attribution-NonCommercial-ShareAlike 4.0 International License.
# To view a copy of this license, visit
# http://creativecommons.org/licenses/by-nc-sa/4.0/
# or send a letter to
# Creative Commons, PO Box 1866, Mountain View, CA 94042, USA.
#
# CIF created using the CSD Python API on 29 September 2022
# The structure has been converted into the P1 space group
# The structure has a 3D framework
# The original CSD entry XAGCEQ is in the rhombohedral crystal system
# The framework has been calculated to contain at least 10.0% void space
# The void calculation uses a probe of radius 1.32A, grid spacing 0.4
#
###############################################################################

data_XAGCEQ
_chemical_formula_moiety         '(C126 H72 Cd18 I18 N72)n'
_symmetry_cell_setting           triclinic
_symmetry_space_group_name_H-M   'P 1'
_symmetry_Int_Tables_number      1
_space_group_name_Hall           'P 1'
loop_
_symmetry_equiv_pos_site_id
_symmetry_equiv_pos_as_xyz
1 x,y,z
_cell_length_a                   22.0601(14)
_cell_length_b                   22.0601(14)
_cell_length_c                   11.9194(15)
_cell_angle_alpha                90
_cell_angle_beta                 90
_cell_angle_gamma                120
_cell_volume                     5023.43
loop_
_atom_site_label
_atom_site_type_symbol
_atom_site_fract_x
_atom_site_fract_y
_atom_site_fract_z
I1 I 0.64305(3) 0.43670(3) 0.18345(5)
Cd1 Cd 0.52260(3) 0.39611(2) 0.31672(5)
N1 N 0.5670(3) 0.4940(3) 0.4190(5)
N2 N 0.6365(3) 0.5403(3) 0.4254(5)
N3 N 0.5833(3) 0.5785(3) 0.5412(5)
N4 N 0.7667(3) 0.6420(3) 0.4761(6)
C1 C 0.8324(4) 0.6935(5) 0.4958(9)
H1 H 0.8695 0.6912 0.4633
C2 C 0.8462(6) 0.7499(6) 0.5630(12)
H2 H 0.8921 0.7837 0.5790
C3 C 0.7920(6) 0.7558(6) 0.6058(11)
H3 H 0.8007 0.7951 0.6471
C4 C 0.7245(5) 0.7031(4) 0.5873(8)
H4 H 0.6870 0.7053 0.6183
C5 C 0.7135(4) 0.6472(4) 0.5226(6)
C6 C 0.6442(3) 0.5890(3) 0.4968(6)
C7 C 0.5370(3) 0.5182(3) 0.4901(6)
N5 N 0.4330(3) 0.5060(3) 0.5810(5)
N6 N 0.3635(3) 0.4597(3) 0.5746(5)
N7 N 0.4167(3) 0.4215(3) 0.4588(5)
N8 N 0.2333(3) 0.3580(3) 0.5239(6)
C8 C 0.1676(4) 0.3065(5) 0.5042(9)
H5 H 0.1305 0.3088 0.5367
C9 C 0.1538(6) 0.2501(6) 0.4370(12)
H6 H 0.1079 0.2163 0.4210
C10 C 0.2080(6) 0.2442(6) 0.3942(11)
H7 H 0.1993 0.2049 0.3529
C11 C 0.2755(5) 0.2969(4) 0.4127(8)
H8 H 0.3130 0.2947 0.3817
C12 C 0.2865(4) 0.3528(4) 0.4774(6)
C13 C 0.3558(3) 0.4110(3) 0.5032(6)
C14 C 0.4630(3) 0.4818(3) 0.5099(6)
I2 I 0.35695(3) 0.56330(3) 0.81655(5)
Cd2 Cd 0.47740(3) 0.60389(2) 0.68328(5)
I3 I 0.46032(4) 0.69028(3) 0.51678(5)
I4 I 0.53968(4) 0.30972(3) 0.48322(5)
Cd3 Cd 0.27056(2) 0.45982(4) 0.65005(5)
Cd4 Cd 0.72944(2) 0.54018(4) 0.34995(5)
N9 N 0.5705(4) 0.6968(3) 0.7587(5)
N10 N 0.4295(4) 0.3032(3) 0.2413(5)
N11 N 0.5420(4) 0.5666(3) 0.8094(6)
N12 N 0.4580(4) 0.4334(3) 0.1906(6)
I1_2 I 0.56330(3) 0.20635(4) 0.18345(5)
Cd1_2 Cd 0.60389(2) 0.12649(4) 0.31672(5)
N1_2 N 0.5060(3) 0.0730(4) 0.4190(5)
N2_2 N 0.4597(3) 0.0962(4) 0.4254(5)
N3_2 N 0.4215(3) 0.0048(4) 0.5412(5)
N4_2 N 0.3580(3) 0.1247(4) 0.4761(6)
C1_2 C 0.3065(5) 0.1389(6) 0.4958(9)
H1_2 H 0.3088 0.1783 0.4633
C2_2 C 0.2501(6) 0.0963(8) 0.5630(12)
H2_2 H 0.2163 0.1084 0.5790
C3_2 C 0.2442(6) 0.0362(8) 0.6058(11)
H3_2 H 0.2049 0.0056 0.6471
C4_2 C 0.2969(4) 0.0214(6) 0.5873(8)
C5_2 C 0.3528(4) 0.0663(6) 0.5226(6)
C6_2 C 0.4110(3) 0.0552(4) 0.4968(6)
C7_2 C 0.4818(3) 0.0188(4) 0.4901(6)
H8_2 H 0.7053 0.0183 0.3817
I4_2 I 0.69028(3) 0.22997(5) 0.48322(5)
Cd4_2 Cd 0.45982(4) 0.18927(4) 0.34995(5)
N10_2 N 0.6968(3) 0.1264(5) 0.2413(5)
N12_2 N 0.5666(3) 0.0247(5) 0.1906(6)
H4_2 H 0.2947 0.9817 0.6183
N5_2 N 0.4940(3) 0.9270(4) 0.5810(5)
N6_2 N 0.5403(3) 0.9038(4) 0.5746(5)
N7_2 N 0.5785(3) 0.9952(4) 0.4588(5)
N8_2 N 0.6420(3) 0.8753(4) 0.5239(6)
C8_2 C 0.6935(5) 0.8611(6) 0.5042(9)
H5_2 H 0.6912 0.8217 0.5367
C9_2 C 0.7499(6) 0.9037(8) 0.4370(12)
H6_2 H 0.7837 0.8916 0.4210
C10_2 C 0.7558(6) 0.9638(8) 0.3942(11)
H7_2 H 0.7951 0.9944 0.3529
C11_2 C 0.7031(4) 0.9786(6) 0.4127(8)
C12_2 C 0.6472(4) 0.9337(6) 0.4774(6)
C13_2 C 0.5890(3) 0.9448(4) 0.5032(6)
C14_2 C 0.5182(3) 0.9812(4) 0.5099(6)
I2_2 I 0.43670(3) 0.79365(4) 0.81655(5)
Cd2_2 Cd 0.39611(2) 0.87351(4) 0.68328(5)
I3_2 I 0.30972(3) 0.77003(5) 0.51678(5)
Cd3_2 Cd 0.54018(4) 0.81073(4) 0.65005(5)
N9_2 N 0.3032(3) 0.8736(5) 0.7587(5)
N11_2 N 0.4334(3) 0.9753(5) 0.8094(6)
H4_3 H 0.0183 0.3130 0.6183
N5_3 N 0.0730(4) 0.5670(3) 0.5810(5)
N6_3 N 0.0962(4) 0.6365(3) 0.5746(5)
N7_3 N 0.0048(4) 0.5833(3) 0.4588(5)
N8_3 N 0.1247(4) 0.7667(3) 0.5239(6)
C8_3 C 0.1389(6) 0.8324(4) 0.5042(9)
H5_3 H 0.1783 0.8695 0.5367
C9_3 C 0.0963(8) 0.8462(6) 0.4370(12)
H6_3 H 0.1084 0.8921 0.4210
C10_3 C 0.0362(8) 0.7920(6) 0.3942(11)
H7_3 H 0.0056 0.8007 0.3529
C11_3 C 0.0214(6) 0.7245(5) 0.4127(8)
C12_3 C 0.0663(6) 0.7135(4) 0.4774(6)
C13_3 C 0.0552(4) 0.6442(3) 0.5032(6)
C14_3 C 0.0188(4) 0.5370(3) 0.5099(6)
I2_3 I 0.20635(4) 0.64305(3) 0.81655(5)
Cd2_3 Cd 0.12649(4) 0.52260(3) 0.68328(5)
I3_3 I 0.22997(5) 0.53968(4) 0.51678(5)
Cd3_3 Cd 0.18927(4) 0.72944(2) 0.65005(5)
N9_3 N 0.1264(5) 0.4295(4) 0.7587(5)
N11_3 N 0.0247(5) 0.4580(4) 0.8094(6)
I1_3 I 0.79365(4) 0.35695(3) 0.18345(5)
Cd1_3 Cd 0.87351(4) 0.47740(3) 0.31672(5)
N1_3 N 0.9270(4) 0.4330(3) 0.4190(5)
N2_3 N 0.9038(4) 0.3635(3) 0.4254(5)
N3_3 N 0.9952(4) 0.4167(3) 0.5412(5)
N4_3 N 0.8753(4) 0.2333(3) 0.4761(6)
C1_3 C 0.8611(6) 0.1676(4) 0.4958(9)
H1_3 H 0.8217 0.1305 0.4633
C2_3 C 0.9037(8) 0.1538(6) 0.5630(12)
H2_3 H 0.8916 0.1079 0.5790
C3_3 C 0.9638(8) 0.2080(6) 0.6058(11)
H3_3 H 0.9944 0.1993 0.6471
C4_3 C 0.9786(6) 0.2755(5) 0.5873(8)
C5_3 C 0.9337(6) 0.2865(4) 0.5226(6)
C6_3 C 0.9448(4) 0.3558(3) 0.4968(6)
C7_3 C 0.9812(4) 0.4630(3) 0.4901(6)
H8_3 H 0.9817 0.6870 0.3817
I4_3 I 0.77003(5) 0.46032(4) 0.48322(5)
Cd4_3 Cd 0.81073(4) 0.27056(2) 0.34995(5)
N10_3 N 0.8736(5) 0.5705(4) 0.2413(5)
N12_3 N 0.9753(5) 0.5420(4) 0.1906(6)
N9_4 N 0.2371(4) 0.0302(3) 0.0921(5)
C1_4 C 0.4991(4) 0.0268(5) 0.8291(9)
H1_4 H 0.5362 0.0245 0.7966
C2_4 C 0.5129(6) 0.0832(6) 0.8963(12)
H2_4 H 0.5588 0.1170 0.9123
C3_4 C 0.4587(6) 0.0891(6) 0.9391(11)
H3_4 H 0.4674 0.1284 0.9804
C4_4 C 0.3912(5) 0.0364(4) 0.9206(8)
H4_4 H 0.3537 0.0386 0.9516
I3_4 I 0.12698(4) 0.02362(3) 0.85012(5)
N1_4 N 0.2337(3) 0.8273(3) 0.7523(5)
N3_4 N 0.2500(3) 0.9118(3) 0.8745(5)
C5_4 C 0.3802(4) 0.9805(4) 0.8559(6)
C6_4 C 0.3109(3) 0.9223(3) 0.8301(6)
C7_4 C 0.2037(3) 0.8515(3) 0.8234(6)
N5_4 N 0.0997(3) 0.8393(3) 0.9143(5)
N6_4 N 0.0302(3) 0.7930(3) 0.9079(5)
N7_4 N 0.0834(3) 0.7548(3) 0.7921(5)
C13_4 C 0.0225(3) 0.7443(3) 0.8365(6)
C14_4 C 0.1297(3) 0.8151(3) 0.8432(6)
N8_4 N 0.9000(3) 0.6913(3) 0.8572(6)
C8_4 C 0.8343(4) 0.6398(5) 0.8375(9)
H5_4 H 0.7972 0.6421 0.8700
C9_4 C 0.8205(6) 0.5834(6) 0.7703(12)
H6_4 H 0.7746 0.5496 0.7543
C10_4 C 0.8747(6) 0.5775(6) 0.7275(11)
H7_4 H 0.8660 0.5382 0.6862
C11_4 C 0.9422(5) 0.6302(4) 0.7460(8)
H8_4 H 0.9797 0.6280 0.7150
C12_4 C 0.9532(4) 0.6861(4) 0.8107(6)
Cd3_4 Cd 0.93722(2) 0.79316(4) 0.98339(5)
I2_4 I 0.10337(3) 0.12698(4) 0.14988(5)
Cd2_4 Cd 0.06278(2) 0.20684(4) 0.01661(5)
N11_4 N 0.1000(3) 0.3087(5) 0.1428(6)
N1_5 N 0.1727(3) 0.4063(4) 0.7523(5)
N3_5 N 0.0882(3) 0.3381(4) 0.8745(5)
C5_5 C 0.0195(4) 0.3996(6) 0.8559(6)
C6_5 C 0.0777(3) 0.3885(4) 0.8301(6)
C7_5 C 0.1485(3) 0.3521(4) 0.8234(6)
N5_5 N 0.1607(3) 0.2603(4) 0.9143(5)
N6_5 N 0.2070(3) 0.2371(4) 0.9079(5)
N7_5 N 0.2452(3) 0.3285(4) 0.7921(5)
N8_5 N 0.3087(3) 0.2086(4) 0.8572(6)
C8_5 C 0.3602(5) 0.1944(6) 0.8375(9)
H5_5 H 0.3579 0.1550 0.8700
C9_5 C 0.4166(6) 0.2370(8) 0.7703(12)
H6_5 H 0.4504 0.2249 0.7543
C10_5 C 0.4225(6) 0.2971(8) 0.7275(11)
H7_5 H 0.4618 0.3277 0.6862
C11_5 C 0.3698(4) 0.3119(6) 0.7460(8)
H8_5 H 0.3720 0.3516 0.7150
C12_5 C 0.3139(4) 0.2670(6) 0.8107(6)
C13_5 C 0.2557(3) 0.2781(4) 0.8365(6)
C14_5 C 0.1849(3) 0.3145(4) 0.8432(6)
Cd3_5 Cd 0.20684(4) 0.14407(4) 0.98339(5)
N9_5 N 0.9698(3) 0.2070(5) 0.0921(5)
I2_5 I 0.87302(4) 0.97638(3) 0.14988(5)
Cd2_5 Cd 0.79316(4) 0.85593(3) 0.01661(5)
N9_6 N 0.7930(5) 0.7629(4) 0.0921(5)
N11_5 N 0.6913(5) 0.7914(4) 0.1428(6)
N1_6 N 0.5937(4) 0.7663(3) 0.7523(5)
N3_6 N 0.6619(4) 0.7500(3) 0.8745(5)
C1_5 C 0.5278(6) 0.5009(4) 0.8291(9)
H1_5 H 0.4884 0.4638 0.7966
C2_5 C 0.5704(8) 0.4871(6) 0.8963(12)
H2_5 H 0.5583 0.4412 0.9123
C3_5 C 0.6305(8) 0.5413(6) 0.9391(11)
H3_5 H 0.6611 0.5326 0.9804
C4_5 C 0.6453(6) 0.6088(5) 0.9206(8)
H4_5 H 0.6850 0.6463 0.9516
C5_6 C 0.6004(6) 0.6198(4) 0.8559(6)
C6_6 C 0.6115(4) 0.6891(3) 0.8301(6)
C7_6 C 0.6479(4) 0.7963(3) 0.8234(6)
N5_6 N 0.7397(4) 0.9003(3) 0.9143(5)
N6_6 N 0.7629(4) 0.9698(3) 0.9079(5)
N7_6 N 0.6715(4) 0.9166(3) 0.7921(5)
C13_6 C 0.7219(4) 0.9775(3) 0.8365(6)
C14_6 C 0.6855(4) 0.8703(3) 0.8432(6)
I3_5 I 0.89663(5) 0.87302(4) 0.85012(5)
C1_6 C 0.1657(4) 0.3602(5) 0.1625(9)
H1_6 H 0.2028 0.3579 0.1300
C2_6 C 0.1795(6) 0.4166(6) 0.2297(12)
H2_6 H 0.2254 0.4504 0.2457
C3_6 C 0.1253(6) 0.4225(6) 0.2725(11)
H3_6 H 0.1340 0.4618 0.3138
C4_6 C 0.0578(5) 0.3698(4) 0.2540(8)
H4_6 H 0.0203 0.3720 0.2850
C5_7 C 0.0468(4) 0.3139(4) 0.1893(6)
N1_7 N 0.9003(3) 0.1607(3) 0.0857(5)
N3_7 N 0.9166(3) 0.2452(3) 0.2079(5)
C6_7 C 0.9775(3) 0.2557(3) 0.1635(6)
C7_7 C 0.8703(3) 0.1849(3) 0.1568(6)
N5_7 N 0.7663(3) 0.1727(3) 0.2477(5)
N7_7 N 0.7500(3) 0.0882(3) 0.1255(5)
C12_6 C 0.6198(4) 0.0195(4) 0.1441(6)
C13_7 C 0.6891(3) 0.0777(3) 0.1699(6)
C14_7 C 0.7963(3) 0.1485(3) 0.1766(6)
C8_6 C 0.5009(4) 0.9732(5) 0.1709(9)
H5_6 H 0.4638 0.9755 0.2034
C9_6 C 0.4871(6) 0.9168(6) 0.1037(12)
H6_6 H 0.4412 0.8830 0.0877
C10_6 C 0.5413(6) 0.9109(6) 0.0609(11)
H7_6 H 0.5326 0.8716 0.0196
C11_6 C 0.6088(5) 0.9636(4) 0.0794(8)
H8_6 H 0.6463 0.9614 0.0484
N1_8 N 0.8393(3) 0.7397(4) 0.0857(5)
N3_8 N 0.7548(3) 0.6715(4) 0.2079(5)
C1_7 C 0.6398(5) 0.8056(6) 0.1625(9)
H1_7 H 0.6421 0.8450 0.1300
C2_7 C 0.5834(6) 0.7630(8) 0.2297(12)
H2_7 H 0.5496 0.7751 0.2457
C3_7 C 0.5775(6) 0.7029(8) 0.2725(11)
H3_7 H 0.5382 0.6723 0.3138
C4_7 C 0.6302(4) 0.6881(6) 0.2540(8)
H4_7 H 0.6280 0.6484 0.2850
C5_8 C 0.6861(4) 0.7330(6) 0.1893(6)
C6_8 C 0.7443(3) 0.7219(4) 0.1635(6)
C7_8 C 0.8151(3) 0.6855(4) 0.1568(6)
N5_8 N 0.8273(3) 0.5937(4) 0.2477(5)
N7_8 N 0.9118(3) 0.6619(4) 0.1255(5)
C12_7 C 0.9805(4) 0.6004(6) 0.1441(6)
C13_8 C 0.9223(3) 0.6115(4) 0.1699(6)
C14_8 C 0.8515(3) 0.6479(4) 0.1766(6)
N1_9 N 0.2603(4) 0.0997(3) 0.0857(5)
N3_9 N 0.3285(4) 0.0834(3) 0.2079(5)
C6_9 C 0.2781(4) 0.0225(3) 0.1635(6)
C7_9 C 0.3145(4) 0.1297(3) 0.1568(6)
N5_9 N 0.4063(4) 0.2337(3) 0.2477(5)
N7_9 N 0.3381(4) 0.2500(3) 0.1255(5)
C8_7 C 0.4722(6) 0.4991(4) 0.1709(9)
H5_7 H 0.5116 0.5362 0.2034
C9_7 C 0.4296(8) 0.5129(6) 0.1037(12)
H6_7 H 0.4417 0.5588 0.0877
C10_7 C 0.3695(8) 0.4587(6) 0.0609(11)
H7_7 H 0.3389 0.4674 0.0196
C11_7 C 0.3547(6) 0.3912(5) 0.0794(8)
H8_7 H 0.3150 0.3537 0.0484
C12_8 C 0.3996(6) 0.3802(4) 0.1441(6)
C13_9 C 0.3885(4) 0.3109(3) 0.1699(6)
C14_9 C 0.3521(4) 0.2037(3) 0.1766(6)
I2_6 I 0.02362(3) 0.89663(3) 0.14988(5)
Cd2_6 Cd 0.14407(3) 0.93722(2) 0.01661(5)
N11_6 N 0.2086(4) 0.9000(3) 0.1428(6)
C8_8 C 0.0268(5) 0.5278(6) 0.1709(9)
H5_8 H 0.0245 0.4884 0.2034
C9_8 C 0.0832(6) 0.5704(8) 0.1037(12)
H6_8 H 0.1170 0.5583 0.0877
C10_8 C 0.0891(6) 0.6305(8) 0.0609(11)
H7_8 H 0.1284 0.6611 0.0196
C11_8 C 0.0364(4) 0.6453(6) 0.0794(8)
H8_8 H 0.0386 0.6850 0.0484
C1_8 C 0.1944(6) 0.8343(4) 0.1625(9)
H1_8 H 0.1550 0.7972 0.1300
C2_8 C 0.2370(8) 0.8205(6) 0.2297(12)
H2_8 H 0.2249 0.7746 0.2457
C3_8 C 0.2971(8) 0.8747(6) 0.2725(11)
H3_8 H 0.3277 0.8660 0.3138
C4_8 C 0.3119(6) 0.9422(5) 0.2540(8)
H4_8 H 0.3516 0.9797 0.2850
C5_9 C 0.2670(6) 0.9532(4) 0.1893(6)
C1_9 C 0.9732(5) 0.4722(6) 0.8291(9)
H1_9 H 0.9755 0.5116 0.7966
C2_9 C 0.9168(6) 0.4296(8) 0.8963(12)
H2_9 H 0.8830 0.4417 0.9123
C3_9 C 0.9109(6) 0.3695(8) 0.9391(11)
H3_9 H 0.8716 0.3389 0.9804
C4_9 C 0.9636(4) 0.3547(6) 0.9206(8)
H4_9 H 0.9614 0.3150 0.9516
I3_6 I 0.97638(3) 0.10337(5) 0.85012(5)
N8_6 N 0.7914(4) 0.1000(3) 0.8572(6)
C8_9 C 0.8056(6) 0.1657(4) 0.8375(9)
H5_9 H 0.8450 0.2028 0.8700
C9_9 C 0.7630(8) 0.1795(6) 0.7703(12)
H6_9 H 0.7751 0.2254 0.7543
C10_9 C 0.7029(8) 0.1253(6) 0.7275(11)
H7_9 H 0.6723 0.1340 0.6862
C11_9 C 0.6881(6) 0.0578(5) 0.7460(8)
H8_9 H 0.6484 0.0203 0.7150
C12_9 C 0.7330(6) 0.0468(4) 0.8107(6)
Cd3_6 Cd 0.85593(4) 0.06278(2) 0.98339(5)
loop_
_geom_bond_atom_site_label_1
_geom_bond_atom_site_label_2
_geom_bond_site_symmetry_1
_geom_bond_site_symmetry_2
I1 Cd1 1_555 1_555
Cd1 N1 1_555 1_555
N1 N2 1_555 1_555
N2 C6 1_555 1_555
N3 C6 1_555 1_555
N4 C1 1_555 1_555
C1 H1 1_555 1_555
C2 C1 1_555 1_555
H2 C2 1_555 1_555
C3 C2 1_555 1_555
H3 C3 1_555 1_555
C4 C3 1_555 1_555
H4 C4 1_555 1_555
C5 N4 1_555 1_555
C6 C5 1_555 1_555
C7 N1 1_555 1_555
N5 N6 1_555 1_555
N6 C13 1_555 1_555
N7 C13 1_555 1_555
N8 C8 1_555 1_555
C8 H5 1_555 1_555
C9 C8 1_555 1_555
H6 C9 1_555 1_555
C10 C9 1_555 1_555
H7 C10 1_555 1_555
C11 C10 1_555 1_555
H8 C11 1_555 1_555
C12 N8 1_555 1_555
C13 C12 1_555 1_555
C14 C7 1_555 1_555
I2 Cd2 1_555 1_555
Cd2 N5 1_555 1_555
I3 Cd2 1_555 1_555
I4 Cd1 1_555 1_555
Cd3 N6 1_555 1_555
Cd4 I1 1_555 1_555
N9 Cd2 1_555 1_555
N10 Cd1 1_555 1_555
N11 Cd2 1_555 1_555
N12 Cd1 1_555 1_555
N2 Cd4 1_555 1_555
N3 C7 1_555 1_555
N4 Cd4 1_555 1_555
C4 C5 1_555 1_555
N5 C14 1_555 1_555
N7 C14 1_555 1_555
N8 Cd3 1_555 1_555
C11 C12 1_555 1_555
I2 Cd3 1_555 1_555
I1_2 Cd1_2 1_555 1_555
Cd1_2 N1_2 1_555 1_555
N1_2 N2_2 1_555 1_555
N2_2 C6_2 1_555 1_555
N3_2 C6_2 1_555 1_555
N4_2 C1_2 1_555 1_555
C1_2 H1_2 1_555 1_555
C2_2 C1_2 1_555 1_555
H2_2 C2_2 1_555 1_555
C3_2 C2_2 1_555 1_555
H3_2 C3_2 1_555 1_555
C4_2 C3_2 1_555 1_555
C5_2 N4_2 1_555 1_555
C6_2 C5_2 1_555 1_555
C7_2 N1_2 1_555 1_555
I4_2 Cd1_2 1_555 1_555
Cd4_2 I1_2 1_555 1_555
N10_2 Cd1_2 1_555 1_555
N12_2 Cd1_2 1_555 1_555
N2_2 Cd4_2 1_555 1_555
N3_2 C7_2 1_555 1_555
N4_2 Cd4_2 1_555 1_555
C4_2 C5_2 1_555 1_555
N5_2 N6_2 1_555 1_555
N6_2 C13_2 1_555 1_555
N7_2 C13_2 1_555 1_555
N8_2 C8_2 1_555 1_555
C8_2 H5_2 1_555 1_555
C9_2 C8_2 1_555 1_555
H6_2 C9_2 1_555 1_555
C10_2 C9_2 1_555 1_555
H7_2 C10_2 1_555 1_555
C11_2 C10_2 1_555 1_555
C12_2 N8_2 1_555 1_555
C13_2 C12_2 1_555 1_555
I2_2 Cd2_2 1_555 1_555
Cd2_2 N5_2 1_555 1_555
I3_2 Cd2_2 1_555 1_555
Cd3_2 N6_2 1_555 1_555
N9_2 Cd2_2 1_555 1_555
N11_2 Cd2_2 1_555 1_555
N5_2 C14_2 1_555 1_555
N7_2 C14_2 1_555 1_555
N8_2 Cd3_2 1_555 1_555
C11_2 C12_2 1_555 1_555
I2_2 Cd3_2 1_555 1_555
N5_3 N6_3 1_555 1_555
N6_3 C13_3 1_555 1_555
N7_3 C13_3 1_555 1_555
N8_3 C8_3 1_555 1_555
C8_3 H5_3 1_555 1_555
C9_3 C8_3 1_555 1_555
H6_3 C9_3 1_555 1_555
C10_3 C9_3 1_555 1_555
H7_3 C10_3 1_555 1_555
C11_3 C10_3 1_555 1_555
C12_3 N8_3 1_555 1_555
C13_3 C12_3 1_555 1_555
I2_3 Cd2_3 1_555 1_555
Cd2_3 N5_3 1_555 1_555
I3_3 Cd2_3 1_555 1_555
Cd3_3 N6_3 1_555 1_555
N9_3 Cd2_3 1_555 1_555
N11_3 Cd2_3 1_555 1_555
N5_3 C14_3 1_555 1_555
N7_3 C14_3 1_555 1_555
N8_3 Cd3_3 1_555 1_555
C11_3 C12_3 1_555 1_555
I2_3 Cd3_3 1_555 1_555
I1_3 Cd1_3 1_555 1_555
Cd1_3 N1_3 1_555 1_555
N1_3 N2_3 1_555 1_555
N2_3 C6_3 1_555 1_555
N3_3 C6_3 1_555 1_555
N4_3 C1_3 1_555 1_555
C1_3 H1_3 1_555 1_555
C2_3 C1_3 1_555 1_555
H2_3 C2_3 1_555 1_555
C3_3 C2_3 1_555 1_555
H3_3 C3_3 1_555 1_555
C4_3 C3_3 1_555 1_555
C5_3 N4_3 1_555 1_555
C6_3 C5_3 1_555 1_555
C7_3 N1_3 1_555 1_555
I4_3 Cd1_3 1_555 1_555
Cd4_3 I1_3 1_555 1_555
N10_3 Cd1_3 1_555 1_555
N12_3 Cd1_3 1_555 1_555
N2_3 Cd4_3 1_555 1_555
N3_3 C7_3 1_555 1_555
N4_3 Cd4_3 1_555 1_555
C4_3 C5_3 1_555 1_555
C1_4 H1_4 1_555 1_555
C2_4 C1_4 1_555 1_555
H2_4 C2_4 1_555 1_555
C3_4 C2_4 1_555 1_555
H3_4 C3_4 1_555 1_555
C4_4 C3_4 1_555 1_555
H4_4 C4_4 1_555 1_555
I3_2 Cd3_3 1_555 1_555
Cd3_3 N1_4 1_555 1_555
N1_4 N9_2 1_555 1_555
N9_2 C6_4 1_555 1_555
N3_4 C6_4 1_555 1_555
C5_4 N11_2 1_555 1_555
C6_4 C5_4 1_555 1_555
C7_4 N1_4 1_555 1_555
N5_4 N6_4 1_555 1_555
N6_4 C13_4 1_555 1_555
N7_4 C13_4 1_555 1_555
C14_4 C7_4 1_555 1_555
N3_4 C7_4 1_555 1_555
N5_4 C14_4 1_555 1_555
N7_4 C14_4 1_555 1_555
N8_4 C8_4 1_555 1_555
C8_4 H5_4 1_555 1_555
C9_4 C8_4 1_555 1_555
H6_4 C9_4 1_555 1_555
C10_4 C9_4 1_555 1_555
H7_4 C10_4 1_555 1_555
C11_4 C10_4 1_555 1_555
H8_4 C11_4 1_555 1_555
C12_4 N8_4 1_555 1_555
N8_4 Cd3_4 1_555 1_555
C11_4 C12_4 1_555 1_555
I2_4 Cd2_4 1_555 1_555
N11_4 Cd2_4 1_555 1_555
I3_3 Cd3 1_555 1_555
Cd3 N1_5 1_555 1_555
N1_5 N9_3 1_555 1_555
N9_3 C6_5 1_555 1_555
N3_5 C6_5 1_555 1_555
C5_5 N11_3 1_555 1_555
C6_5 C5_5 1_555 1_555
C7_5 N1_5 1_555 1_555
N5_5 N6_5 1_555 1_555
N6_5 C13_5 1_555 1_555
N7_5 C13_5 1_555 1_555
N8_5 C8_5 1_555 1_555
C8_5 H5_5 1_555 1_555
C9_5 C8_5 1_555 1_555
H6_5 C9_5 1_555 1_555
C10_5 C9_5 1_555 1_555
H7_5 C10_5 1_555 1_555
C11_5 C10_5 1_555 1_555
H8_5 C11_5 1_555 1_555
C12_5 N8_5 1_555 1_555
C13_5 C12_5 1_555 1_555
C14_5 C7_5 1_555 1_555
Cd3_5 N6_5 1_555 1_555
N3_5 C7_5 1_555 1_555
N5_5 C14_5 1_555 1_555
N7_5 C14_5 1_555 1_555
N8_5 Cd3_5 1_555 1_555
C11_5 C12_5 1_555 1_555
I2_5 Cd2_5 1_555 1_555
N9_6 Cd2_5 1_555 1_555
N11_5 Cd2_5 1_555 1_555
I3 Cd3_2 1_555 1_555
Cd3_2 N1_6 1_555 1_555
N1_6 N9 1_555 1_555
N9 C6_6 1_555 1_555
N3_6 C6_6 1_555 1_555
N11 C1_5 1_555 1_555
C1_5 H1_5 1_555 1_555
C2_5 C1_5 1_555 1_555
H2_5 C2_5 1_555 1_555
C3_5 C2_5 1_555 1_555
H3_5 C3_5 1_555 1_555
C4_5 C3_5 1_555 1_555
H4_5 C4_5 1_555 1_555
C5_6 N11 1_555 1_555
C6_6 C5_6 1_555 1_555
C7_6 N1_6 1_555 1_555
N5_6 N6_6 1_555 1_555
N6_6 C13_6 1_555 1_555
N7_6 C13_6 1_555 1_555
C14_6 C7_6 1_555 1_555
N3_6 C7_6 1_555 1_555
C4_5 C5_6 1_555 1_555
N5_6 C14_6 1_555 1_555
N7_6 C14_6 1_555 1_555
N11_4 C1_6 1_555 1_555
C1_6 H1_6 1_555 1_555
C2_6 C1_6 1_555 1_555
H2_6 C2_6 1_555 1_555
C3_6 C2_6 1_555 1_555
H3_6 C3_6 1_555 1_555
C4_6 C3_6 1_555 1_555
H4_6 C4_6 1_555 1_555
C5_7 N11_4 1_555 1_555
C4_6 C5_7 1_555 1_555
N1_7 N9_5 1_555 1_555
N9_5 C6_7 1_555 1_555
N3_7 C6_7 1_555 1_555
C7_7 N1_7 1_555 1_555
N5_7 N10_2 1_555 1_555
N10_2 C13_7 1_555 1_555
N7_7 C13_7 1_555 1_555
C12_6 N12_2 1_555 1_555
C13_7 C12_6 1_555 1_555
C14_7 C7_7 1_555 1_555
I4_2 Cd4_3 1_555 1_555
Cd4_3 N5_7 1_555 1_555
N3_7 C7_7 1_555 1_555
N5_7 C14_7 1_555 1_555
N7_7 C14_7 1_555 1_555
C8_6 H5_6 1_555 1_555
C9_6 C8_6 1_555 1_555
H6_6 C9_6 1_555 1_555
C10_6 C9_6 1_555 1_555
H7_6 C10_6 1_555 1_555
C11_6 C10_6 1_555 1_555
H8_6 C11_6 1_555 1_555
N1_8 N9_6 1_555 1_555
N9_6 C6_8 1_555 1_555
N3_8 C6_8 1_555 1_555
N11_5 C1_7 1_555 1_555
C1_7 H1_7 1_555 1_555
C2_7 C1_7 1_555 1_555
H2_7 C2_7 1_555 1_555
C3_7 C2_7 1_555 1_555
H3_7 C3_7 1_555 1_555
C4_7 C3_7 1_555 1_555
H4_7 C4_7 1_555 1_555
C5_8 N11_5 1_555 1_555
C6_8 C5_8 1_555 1_555
C7_8 N1_8 1_555 1_555
N5_8 N10_3 1_555 1_555
N10_3 C13_8 1_555 1_555
N7_8 C13_8 1_555 1_555
C12_7 N12_3 1_555 1_555
C13_8 C12_7 1_555 1_555
C14_8 C7_8 1_555 1_555
I4_3 Cd4 1_555 1_555
Cd4 N5_8 1_555 1_555
N3_8 C7_8 1_555 1_555
C4_7 C5_8 1_555 1_555
N5_8 C14_8 1_555 1_555
N7_8 C14_8 1_555 1_555
I3_5 Cd3_4 1_555 1_555
N1_9 N9_4 1_555 1_555
N9_4 C6_9 1_555 1_555
N3_9 C6_9 1_555 1_555
C7_9 N1_9 1_555 1_555
N5_9 N10 1_555 1_555
N10 C13_9 1_555 1_555
N7_9 C13_9 1_555 1_555
N12 C8_7 1_555 1_555
C8_7 H5_7 1_555 1_555
C9_7 C8_7 1_555 1_555
H6_7 C9_7 1_555 1_555
C10_7 C9_7 1_555 1_555
H7_7 C10_7 1_555 1_555
C11_7 C10_7 1_555 1_555
H8_7 C11_7 1_555 1_555
C12_8 N12 1_555 1_555
C13_9 C12_8 1_555 1_555
C14_9 C7_9 1_555 1_555
I4 Cd4_2 1_555 1_555
Cd4_2 N5_9 1_555 1_555
N3_9 C7_9 1_555 1_555
N5_9 C14_9 1_555 1_555
N7_9 C14_9 1_555 1_555
C11_7 C12_8 1_555 1_555
I3_4 Cd3_5 1_555 1_555
I2_6 Cd2_6 1_555 1_555
N11_6 Cd2_6 1_555 1_555
C8_8 H5_8 1_555 1_555
C9_8 C8_8 1_555 1_555
H6_8 C9_8 1_555 1_555
C10_8 C9_8 1_555 1_555
H7_8 C10_8 1_555 1_555
C11_8 C10_8 1_555 1_555
H8_8 C11_8 1_555 1_555
N11_6 C1_8 1_555 1_555
C1_8 H1_8 1_555 1_555
C2_8 C1_8 1_555 1_555
H2_8 C2_8 1_555 1_555
C3_8 C2_8 1_555 1_555
H3_8 C3_8 1_555 1_555
C4_8 C3_8 1_555 1_555
H4_8 C4_8 1_555 1_555
C5_9 N11_6 1_555 1_555
C4_8 C5_9 1_555 1_555
C1_9 H1_9 1_555 1_555
C2_9 C1_9 1_555 1_555
H2_9 C2_9 1_555 1_555
C3_9 C2_9 1_555 1_555
H3_9 C3_9 1_555 1_555
C4_9 C3_9 1_555 1_555
H4_9 C4_9 1_555 1_555
N8_6 C8_9 1_555 1_555
C8_9 H5_9 1_555 1_555
C9_9 C8_9 1_555 1_555
H6_9 C9_9 1_555 1_555
C10_9 C9_9 1_555 1_555
H7_9 C10_9 1_555 1_555
C11_9 C10_9 1_555 1_555
H8_9 C11_9 1_555 1_555
C12_9 N8_6 1_555 1_555
N8_6 Cd3_6 1_555 1_555
C11_9 C12_9 1_555 1_555
I3_6 Cd3_6 1_555 1_555

#END
