
###############################################################################
#
# This file contains modified crystal structure data generated from the
# MOF subset of the Cambridge Structural Database (CSD) v543 
# hosted by the Cambridge Crystallographic Data Centre (CCDC).
#
# This work is licensed under the Creative Commons
# Attribution-NonCommercial-ShareAlike 4.0 International License.
# To view a copy of this license, visit
# http://creativecommons.org/licenses/by-nc-sa/4.0/
# or send a letter to
# Creative Commons, PO Box 1866, Mountain View, CA 94042, USA.
#
# CIF created using the CSD Python API on 29 September 2022
# The structure has been converted into the P1 space group
# The structure has a 3D framework
# The original CSD entry XAGCEO01 is in the cubic crystal system
# The framework has been calculated to contain at least 10.0% void space
# The void calculation uses a probe of radius 1.32A, grid spacing 0.4
#
###############################################################################

data_XAGCEO01
_chemical_formula_moiety         '(C192 H144 Co36 O240)n'
_symmetry_cell_setting           triclinic
_symmetry_space_group_name_H-M   'P 1'
_symmetry_Int_Tables_number      1
_space_group_name_Hall           'P 1'
loop_
_symmetry_equiv_pos_site_id
_symmetry_equiv_pos_as_xyz
1 x,y,z
_cell_length_a                   20.3290(10)
_cell_length_b                   20.3290(10)
_cell_length_c                   20.3290(10)
_cell_angle_alpha                90
_cell_angle_beta                 90
_cell_angle_gamma                90
_cell_volume                     8401.33
loop_
_atom_site_label
_atom_site_type_symbol
_atom_site_fract_x
_atom_site_fract_y
_atom_site_fract_z
Co1 Co 0.15943(7) 0.39790(6) 0.14274(6)
Co2 Co 0.00647(7) 0.56303(7) 0.27264(7)
O1 O 0.1254(3) 0.3313(3) 0.2187(3)
C1 C 0.0891(5) 0.3680(5) 0.2667(4)
H1 H 0.1193 0.3801 0.3022
C2 C 0.0595(5) 0.4312(5) 0.2386(5)
O2 O 0.0776(3) 0.4486(3) 0.1823(3)
O3 O 0.0206(4) 0.4610(4) 0.2752(4)
C3 C 0.0390(5) 0.3183(5) 0.2943(5)
C4 C 0.0722(5) 0.2793(5) 0.3492(5)
O4 O 0.0689(4) 0.3075(4) 0.4046(3)
O5 O 0.0994(3) 0.2275(3) 0.3371(3)
C5 C 0.0237(4) 0.2765(4) 0.2324(4)
O7 O 0.0167(4) 0.1590(3) 0.2197(4)
C7 C 0.0867(5) 0.2774(5) 0.1929(5)
H4 H 0.1104 0.2360 0.1999
C8 C 0.0741(5) 0.2864(5) 0.1195(5)
O8 O 0.0473(4) 0.2400(4) 0.0896(3)
O9 O 0.0915(3) 0.3404(4) 0.0926(3)
O10 O 0.1689(3) 0.4672(3) 0.0666(3)
H5 H 0.1422 0.5057 0.0757
H6 H 0.1550 0.4484 0.0251
O11 O 0.2275(3) 0.3371(3) 0.0994(3)
O12 O 0.2125(4) 0.4473(4) 0.2104(3)
O13 O 0.0954(3) 0.5689(4) 0.3075(4)
O16 O 0.0328(3) 0.5666(3) 0.1689(3)
Co3 Co 0.06303(7) 0.27264(7) 0.49353(7)
Co4 Co 0.14274(6) 0.15943(7) 0.39790(6)
Co8 Co 0.27264(7) 0.49353(7) 0.06303(7)
H8 H 0.0516 0.5251 0.1550
Co7 Co 0.06303(7) 0.22736(7) 0.99353(7)
H2 H 0.9994 0.3406 0.3104
H3 H 0.9911 0.3012 0.2069
C6 C 0.9933(5) 0.2096(5) 0.2473(5)
O6 O 0.9473(4) 0.2104(3) 0.2875(4)
O14 O 0.9833(4) 0.6590(3) 0.2803(4)
O15 O 0.9104(3) 0.5473(4) 0.2600(4)
Co5 Co 0.89790(6) 0.14274(6) 0.34057(7)
Co6 Co 0.99353(7) 0.06303(7) 0.22736(7)
H7 H 0.9943 0.5757 0.1422
Co2_2 Co 0.27264(7) 0.00647(7) 0.56303(7)
O1_2 O 0.2187(3) 0.1254(3) 0.3313(3)
C1_2 C 0.2667(4) 0.0891(5) 0.3680(5)
H1_2 H 0.3022 0.1193 0.3801
C2_2 C 0.2386(5) 0.0595(5) 0.4312(5)
O2_2 O 0.1823(3) 0.0776(3) 0.4486(3)
O3_2 O 0.2752(4) 0.0206(4) 0.4610(4)
C3_2 C 0.2943(5) 0.0390(5) 0.3183(5)
C4_2 C 0.3492(5) 0.0722(5) 0.2793(5)
O4_2 O 0.4046(3) 0.0689(4) 0.3075(4)
O5_2 O 0.3371(3) 0.0994(3) 0.2275(3)
C5_2 C 0.2324(4) 0.0237(4) 0.2765(4)
O7_2 O 0.2197(4) 0.0167(4) 0.1590(3)
C7_2 C 0.1929(5) 0.0867(5) 0.2774(5)
H4_2 H 0.1999 0.1104 0.2360
C8_2 C 0.1195(5) 0.0741(5) 0.2864(5)
O8_2 O 0.0896(3) 0.0473(4) 0.2400(4)
O9_2 O 0.0926(3) 0.0915(3) 0.3404(4)
O10_2 O 0.0666(3) 0.1689(3) 0.4672(3)
H5_2 H 0.0757 0.1422 0.5057
H6_2 H 0.0251 0.1550 0.4484
O12_2 O 0.2104(3) 0.2125(4) 0.4473(4)
O13_2 O 0.3075(4) 0.0954(3) 0.5689(4)
O16_2 O 0.1689(3) 0.0328(3) 0.5666(3)
Co3_2 Co 0.49353(7) 0.06303(7) 0.27264(7)
Co4_2 Co 0.39790(6) 0.14274(6) 0.15943(7)
H8_2 H 0.1550 0.0516 0.5251
H2_2 H 0.3104 0.9994 0.3406
H3_2 H 0.2069 0.9911 0.3012
C6_2 C 0.2473(5) 0.9933(5) 0.2096(5)
O6_2 O 0.2875(4) 0.9473(4) 0.2104(3)
O14_2 O 0.2803(4) 0.9833(4) 0.6590(3)
O15_2 O 0.2600(4) 0.9104(3) 0.5473(4)
Co5_2 Co 0.34057(7) 0.89790(6) 0.14274(6)
Co6_2 Co 0.22736(7) 0.99353(7) 0.06303(7)
H7_2 H 0.1422 0.9943 0.5757
Co2_3 Co 0.56303(7) 0.27264(7) 0.00647(7)
O1_3 O 0.3313(3) 0.2187(3) 0.1254(3)
C1_3 C 0.3680(5) 0.2667(4) 0.0891(5)
H1_3 H 0.3801 0.3022 0.1193
C2_3 C 0.4312(5) 0.2386(5) 0.0595(5)
O2_3 O 0.4486(3) 0.1823(3) 0.0776(3)
O3_3 O 0.4610(4) 0.2752(4) 0.0206(4)
C3_3 C 0.3183(5) 0.2943(5) 0.0390(5)
C4_3 C 0.2793(5) 0.3492(5) 0.0722(5)
O4_3 O 0.3075(4) 0.4046(3) 0.0689(4)
C5_3 C 0.2765(4) 0.2324(4) 0.0237(4)
O7_3 O 0.1590(3) 0.2197(4) 0.0167(4)
C7_3 C 0.2774(5) 0.1929(5) 0.0867(5)
H4_3 H 0.2360 0.1999 0.1104
C8_3 C 0.2864(5) 0.1195(5) 0.0741(5)
O8_3 O 0.2400(4) 0.0896(3) 0.0473(4)
O9_3 O 0.3404(4) 0.0926(3) 0.0915(3)
O10_3 O 0.4672(3) 0.0666(3) 0.1689(3)
H5_3 H 0.5057 0.0757 0.1422
H6_3 H 0.4484 0.0251 0.1550
O12_3 O 0.4473(4) 0.2104(3) 0.2125(4)
O13_3 O 0.5689(4) 0.3075(4) 0.0954(3)
O16_3 O 0.5666(3) 0.1689(3) 0.0328(3)
H8_3 H 0.5251 0.1550 0.0516
H2_3 H 0.3406 0.3104 0.9994
H3_3 H 0.3012 0.2069 0.9911
C6_3 C 0.2096(5) 0.2473(5) 0.9933(5)
O6_3 O 0.2104(3) 0.2875(4) 0.9473(4)
O14_3 O 0.6590(3) 0.2803(4) 0.9833(4)
O15_3 O 0.5473(4) 0.2600(4) 0.9104(3)
Co5_3 Co 0.14274(6) 0.34057(7) 0.89790(6)
H7_3 H 0.5757 0.1422 0.9943
Co1_2 Co 0.34057(7) 0.60210(6) 0.64274(6)
Co2_4 Co 0.49353(7) 0.43697(7) 0.77264(7)
O1_4 O 0.3746(3) 0.6687(3) 0.7187(3)
C1_4 C 0.4109(5) 0.6320(5) 0.7667(4)
H1_4 H 0.3807 0.6199 0.8022
C2_4 C 0.4405(5) 0.5688(5) 0.7386(5)
O2_4 O 0.4224(3) 0.5514(3) 0.6823(3)
O3_4 O 0.4794(4) 0.5390(4) 0.7752(4)
C3_4 C 0.4610(5) 0.6817(5) 0.7943(5)
H2_4 H 0.5006 0.6594 0.8104
C4_4 C 0.4278(5) 0.7207(5) 0.8492(5)
O4_4 O 0.4311(4) 0.6925(4) 0.9046(3)
O5_3 O 0.4006(3) 0.7725(3) 0.8371(3)
C5_4 C 0.4763(4) 0.7235(4) 0.7324(4)
H3_4 H 0.5089 0.6988 0.7069
C6_4 C 0.5067(5) 0.7904(5) 0.7473(5)
O6_4 O 0.5527(4) 0.7896(3) 0.7875(4)
O7_4 O 0.4833(4) 0.8410(3) 0.7197(4)
C7_4 C 0.4133(5) 0.7226(5) 0.6929(5)
H4_4 H 0.3896 0.7640 0.6999
C8_4 C 0.4259(5) 0.7136(5) 0.6195(5)
O8_4 O 0.4527(4) 0.7600(4) 0.5896(3)
O9_4 O 0.4085(3) 0.6596(4) 0.5926(3)
O10_4 O 0.3311(3) 0.5328(3) 0.5666(3)
H5_4 H 0.3578 0.4943 0.5757
H6_4 H 0.3450 0.5516 0.5251
O11_2 O 0.2725(3) 0.6629(3) 0.5994(3)
O12_4 O 0.2875(4) 0.5527(4) 0.7104(3)
O13_4 O 0.4046(3) 0.4311(4) 0.8075(4)
O14_4 O 0.5167(4) 0.3410(3) 0.7803(4)
O15_4 O 0.5896(3) 0.4527(4) 0.7600(4)
O16_4 O 0.4672(3) 0.4334(3) 0.6689(3)
Co3_3 Co 0.43697(7) 0.72736(7) 0.99353(7)
Co4_3 Co 0.35726(6) 0.84057(7) 0.89790(6)
Co5_4 Co 0.60210(6) 0.85726(6) 0.84057(7)
Co6_3 Co 0.50647(7) 0.93697(7) 0.72736(7)
Co7_2 Co 0.43697(7) 0.77264(7) 0.49353(7)
Co8_2 Co 0.22736(7) 0.50647(7) 0.56303(7)
H7_4 H 0.5057 0.4243 0.6422
H8_4 H 0.4484 0.4749 0.6550
H7_5 H 0.0057 0.0757 0.3578
H2_5 H 0.0006 0.8406 0.1896
H3_5 H 0.0089 0.8012 0.2931
C6_5 C 0.0067(5) 0.7096(5) 0.2527(5)
O6_5 O 0.0527(4) 0.7104(3) 0.2125(4)
Co5_5 Co 0.10210(6) 0.64274(6) 0.15943(7)
H5_5 H 0.8578 0.0057 0.4243
O13_5 O 0.9046(3) 0.0689(4) 0.1925(4)
O16_5 O 0.9672(3) 0.0666(3) 0.3311(3)
H8_5 H 0.9484 0.0251 0.3450
Co1_3 Co 0.84057(7) 0.89790(6) 0.35726(6)
O1_5 O 0.8746(3) 0.8313(3) 0.2813(3)
C1_5 C 0.9109(5) 0.8680(5) 0.2333(4)
H1_5 H 0.8807 0.8801 0.1978
C2_5 C 0.9405(5) 0.9312(5) 0.2614(5)
O2_5 O 0.9224(3) 0.9486(3) 0.3177(3)
O3_5 O 0.9794(4) 0.9610(4) 0.2248(4)
C3_5 C 0.9610(5) 0.8183(5) 0.2057(5)
C4_5 C 0.9278(5) 0.7793(5) 0.1508(5)
O4_5 O 0.9311(4) 0.8075(4) 0.0954(3)
O5_4 O 0.9006(3) 0.7275(3) 0.1629(3)
C5_5 C 0.9763(4) 0.7765(4) 0.2676(4)
C7_5 C 0.9133(5) 0.7774(5) 0.3071(5)
H4_5 H 0.8896 0.7360 0.3001
C8_5 C 0.9259(5) 0.7864(5) 0.3805(5)
O8_5 O 0.9527(4) 0.7400(4) 0.4104(3)
O9_5 O 0.9085(3) 0.8404(4) 0.4074(3)
O10_5 O 0.8311(3) 0.9672(3) 0.4334(3)
H6_5 H 0.8450 0.9484 0.4749
O11_3 O 0.7725(3) 0.8371(3) 0.4006(3)
O12_5 O 0.7875(4) 0.9473(4) 0.2896(3)
Co3_4 Co 0.93697(7) 0.77264(7) 0.00647(7)
Co4_4 Co 0.85726(6) 0.65943(7) 0.10210(6)
Co7_3 Co 0.93697(7) 0.72736(7) 0.50647(7)
Co8_3 Co 0.72736(7) 0.99353(7) 0.43697(7)
Co1_4 Co 0.65943(7) 0.10210(6) 0.85726(6)
O1_6 O 0.6254(3) 0.1687(3) 0.7813(3)
C1_6 C 0.5891(5) 0.1320(5) 0.7333(4)
H1_6 H 0.6193 0.1199 0.6978
C2_6 C 0.5595(5) 0.0688(5) 0.7614(5)
O2_6 O 0.5776(3) 0.0514(3) 0.8177(3)
O3_6 O 0.5206(4) 0.0390(4) 0.7248(4)
C3_6 C 0.5390(5) 0.1817(5) 0.7057(5)
H2_6 H 0.4994 0.1594 0.6896
C4_6 C 0.5722(5) 0.2207(5) 0.6508(5)
O4_6 O 0.5689(4) 0.1925(4) 0.5954(3)
O5_5 O 0.5994(3) 0.2725(3) 0.6629(3)
C5_6 C 0.5237(4) 0.2235(4) 0.7676(4)
H3_6 H 0.4911 0.1988 0.7931
C6_6 C 0.4933(5) 0.2904(5) 0.7527(5)
O6_6 O 0.4473(4) 0.2896(3) 0.7125(4)
C7_6 C 0.5867(5) 0.2226(5) 0.8071(5)
H4_6 H 0.6104 0.2640 0.8001
C8_6 C 0.5741(5) 0.2136(5) 0.8805(5)
O9_6 O 0.5915(3) 0.1596(4) 0.9074(3)
O10_6 O 0.6689(3) 0.0328(3) 0.9334(3)
H6_6 H 0.6550 0.0516 0.9749
O11_4 O 0.7275(3) 0.1629(3) 0.9006(3)
O12_6 O 0.7125(4) 0.0527(4) 0.7896(3)
Co3_5 Co 0.56303(7) 0.22736(7) 0.50647(7)
Co4_5 Co 0.64274(6) 0.34057(7) 0.60210(6)
Co5_6 Co 0.39790(6) 0.35726(6) 0.65943(7)
Co8_4 Co 0.77264(7) 0.00647(7) 0.93697(7)
H5_6 H 0.6422 0.9943 0.9243
O13_6 O 0.5954(3) 0.9311(4) 0.6925(4)
O15_5 O 0.4104(3) 0.9527(4) 0.7400(4)
O16_6 O 0.5328(3) 0.9334(3) 0.8311(3)
H7_6 H 0.4943 0.9243 0.8578
H8_6 H 0.5516 0.9749 0.8450
Co2_5 Co 0.77264(7) 0.49353(7) 0.43697(7)
O1_7 O 0.7187(3) 0.3746(3) 0.6687(3)
C1_7 C 0.7667(4) 0.4109(5) 0.6320(5)
H1_7 H 0.8022 0.3807 0.6199
C2_7 C 0.7386(5) 0.4405(5) 0.5688(5)
O2_7 O 0.6823(3) 0.4224(3) 0.5514(3)
O3_7 O 0.7752(4) 0.4794(4) 0.5390(4)
C3_7 C 0.7943(5) 0.4610(5) 0.6817(5)
H2_7 H 0.8104 0.5006 0.6594
C4_7 C 0.8492(5) 0.4278(5) 0.7207(5)
O4_7 O 0.9046(3) 0.4311(4) 0.6925(4)
O5_6 O 0.8371(3) 0.4006(3) 0.7725(3)
C5_7 C 0.7324(4) 0.4763(4) 0.7235(4)
H3_7 H 0.7069 0.5089 0.6988
C6_7 C 0.7473(5) 0.5067(5) 0.7904(5)
O6_7 O 0.7875(4) 0.5527(4) 0.7896(3)
O7_5 O 0.7197(4) 0.4833(4) 0.8410(3)
C7_7 C 0.6929(5) 0.4133(5) 0.7226(5)
H4_7 H 0.6999 0.3896 0.7640
C8_7 C 0.6195(5) 0.4259(5) 0.7136(5)
O9_7 O 0.5926(3) 0.4085(3) 0.6596(4)
O10_7 O 0.5666(3) 0.3311(3) 0.5328(3)
H5_7 H 0.5757 0.3578 0.4943
H6_7 H 0.5251 0.3450 0.5516
O12_7 O 0.7104(3) 0.2875(4) 0.5527(4)
O13_7 O 0.8075(4) 0.4046(3) 0.4311(4)
O14_5 O 0.7803(4) 0.5167(4) 0.3410(3)
O15_6 O 0.7600(4) 0.5896(3) 0.4527(4)
O16_7 O 0.6689(3) 0.4672(3) 0.4334(3)
Co3_6 Co 0.99353(7) 0.43697(7) 0.72736(7)
Co4_6 Co 0.89790(6) 0.35726(6) 0.84057(7)
Co5_7 Co 0.84057(7) 0.60210(6) 0.85726(6)
Co6_4 Co 0.72736(7) 0.50647(7) 0.93697(7)
H7_7 H 0.6422 0.5057 0.4243
H8_7 H 0.6550 0.4484 0.4749
H7_8 H 0.3578 0.0057 0.0757
H2_8 H 0.1896 0.0006 0.8406
H3_8 H 0.2931 0.0089 0.8012
C6_8 C 0.2527(5) 0.0067(5) 0.7096(5)
O6_8 O 0.2125(4) 0.0527(4) 0.7104(3)
Co5_8 Co 0.15943(7) 0.10210(6) 0.64274(6)
H5_8 H 0.4243 0.8578 0.0057
O13_8 O 0.1925(4) 0.9046(3) 0.0689(4)
O16_8 O 0.3311(3) 0.9672(3) 0.0666(3)
H8_8 H 0.3450 0.9484 0.0251
O1_8 O 0.2813(3) 0.8746(3) 0.8313(3)
C1_8 C 0.2333(4) 0.9109(5) 0.8680(5)
H1_8 H 0.1978 0.8807 0.8801
C2_8 C 0.2614(5) 0.9405(5) 0.9312(5)
O2_8 O 0.3177(3) 0.9224(3) 0.9486(3)
O3_8 O 0.2248(4) 0.9794(4) 0.9610(4)
C3_8 C 0.2057(5) 0.9610(5) 0.8183(5)
C4_8 C 0.1508(5) 0.9278(5) 0.7793(5)
O4_8 O 0.0954(3) 0.9311(4) 0.8075(4)
O5_7 O 0.1629(3) 0.9006(3) 0.7275(3)
C5_8 C 0.2676(4) 0.9763(4) 0.7765(4)
C7_8 C 0.3071(5) 0.9133(5) 0.7774(5)
H4_8 H 0.3001 0.8896 0.7360
C8_8 C 0.3805(5) 0.9259(5) 0.7864(5)
O9_8 O 0.4074(3) 0.9085(3) 0.8404(4)
O10_8 O 0.4334(3) 0.8311(3) 0.9672(3)
H6_8 H 0.4749 0.8450 0.9484
O12_8 O 0.2896(3) 0.7875(4) 0.9473(4)
Co3_7 Co 0.00647(7) 0.93697(7) 0.77264(7)
Co4_7 Co 0.10210(6) 0.85726(6) 0.65943(7)
O1_9 O 0.7813(3) 0.6254(3) 0.1687(3)
C1_9 C 0.7333(4) 0.5891(5) 0.1320(5)
H1_9 H 0.6978 0.6193 0.1199
C2_9 C 0.7614(5) 0.5595(5) 0.0688(5)
O2_9 O 0.8177(3) 0.5776(3) 0.0514(3)
O3_9 O 0.7248(4) 0.5206(4) 0.0390(4)
C3_9 C 0.7057(5) 0.5390(5) 0.1817(5)
H2_9 H 0.6896 0.4994 0.1594
C4_9 C 0.6508(5) 0.5722(5) 0.2207(5)
O4_9 O 0.5954(3) 0.5689(4) 0.1925(4)
O5_8 O 0.6629(3) 0.5994(3) 0.2725(3)
C5_9 C 0.7676(4) 0.5237(4) 0.2235(4)
H3_9 H 0.7931 0.4911 0.1988
C6_9 C 0.7527(5) 0.4933(5) 0.2904(5)
O6_9 O 0.7125(4) 0.4473(4) 0.2896(3)
C7_9 C 0.8071(5) 0.5867(5) 0.2226(5)
H4_9 H 0.8001 0.6104 0.2640
C8_9 C 0.8805(5) 0.5741(5) 0.2136(5)
O9_9 O 0.9074(3) 0.5915(3) 0.1596(4)
O10_9 O 0.9334(3) 0.6689(3) 0.0328(3)
H6_9 H 0.9749 0.6550 0.0516
O12_9 O 0.7896(3) 0.7125(4) 0.0527(4)
Co3_8 Co 0.50647(7) 0.56303(7) 0.22736(7)
Co4_8 Co 0.60210(6) 0.64274(6) 0.34057(7)
Co5_9 Co 0.65943(7) 0.39790(6) 0.35726(6)
H5_9 H 0.9243 0.6422 0.9943
O13_9 O 0.6925(4) 0.5954(3) 0.9311(4)
O15_7 O 0.7400(4) 0.4104(3) 0.9527(4)
O16_9 O 0.8311(3) 0.5328(3) 0.9334(3)
H7_9 H 0.8578 0.4943 0.9243
H8_9 H 0.8450 0.5516 0.9749
O1_10 O 0.6687(3) 0.7187(3) 0.3746(3)
C1_10 C 0.6320(5) 0.7667(4) 0.4109(5)
H1_10 H 0.6199 0.8022 0.3807
C2_10 C 0.5688(5) 0.7386(5) 0.4405(5)
O2_10 O 0.5514(3) 0.6823(3) 0.4224(3)
O3_10 O 0.5390(4) 0.7752(4) 0.4794(4)
C3_10 C 0.6817(5) 0.7943(5) 0.4610(5)
H2_10 H 0.6594 0.8104 0.5006
C4_10 C 0.7207(5) 0.8492(5) 0.4278(5)
O4_10 O 0.6925(4) 0.9046(3) 0.4311(4)
C5_10 C 0.7235(4) 0.7324(4) 0.4763(4)
H3_10 H 0.6988 0.7069 0.5089
C6_10 C 0.7904(5) 0.7473(5) 0.5067(5)
O6_10 O 0.7896(3) 0.7875(4) 0.5527(4)
O7_6 O 0.8410(3) 0.7197(4) 0.4833(4)
C7_10 C 0.7226(5) 0.6929(5) 0.4133(5)
H4_10 H 0.7640 0.6999 0.3896
C8_10 C 0.7136(5) 0.6195(5) 0.4259(5)
O9_10 O 0.6596(4) 0.5926(3) 0.4085(3)
O10_10 O 0.5328(3) 0.5666(3) 0.3311(3)
H5_10 H 0.4943 0.5757 0.3578
H6_10 H 0.5516 0.5251 0.3450
O12_10 O 0.5527(4) 0.7104(3) 0.2875(4)
O13_10 O 0.4311(4) 0.8075(4) 0.4046(3)
O14_6 O 0.3410(3) 0.7803(4) 0.5167(4)
O16_10 O 0.4334(3) 0.6689(3) 0.4672(3)
Co5_10 Co 0.85726(6) 0.84057(7) 0.60210(6)
H7_10 H 0.4243 0.6422 0.5057
H8_10 H 0.4749 0.6550 0.4484
H7_11 H 0.0757 0.3578 0.0057
H5_11 H 0.0057 0.4243 0.8578
O13_11 O 0.0689(4) 0.1925(4) 0.9046(3)
O16_11 O 0.0666(3) 0.3311(3) 0.9672(3)
H8_11 H 0.0251 0.3450 0.9484
H2_11 H 0.8406 0.1896 0.0006
H3_11 H 0.8012 0.2931 0.0089
C6_11 C 0.7096(5) 0.2527(5) 0.0067(5)
O6_11 O 0.7104(3) 0.2125(4) 0.0527(4)
Co5_11 Co 0.64274(6) 0.15943(7) 0.10210(6)
O1_11 O 0.8313(3) 0.2813(3) 0.8746(3)
C1_11 C 0.8680(5) 0.2333(4) 0.9109(5)
H1_11 H 0.8801 0.1978 0.8807
C2_11 C 0.9312(5) 0.2614(5) 0.9405(5)
O2_11 O 0.9486(3) 0.3177(3) 0.9224(3)
O3_11 O 0.9610(4) 0.2248(4) 0.9794(4)
C3_11 C 0.8183(5) 0.2057(5) 0.9610(5)
C4_11 C 0.7793(5) 0.1508(5) 0.9278(5)
O4_11 O 0.8075(4) 0.0954(3) 0.9311(4)
C5_11 C 0.7765(4) 0.2676(4) 0.9763(4)
C7_11 C 0.7774(5) 0.3071(5) 0.9133(5)
H4_11 H 0.7360 0.3001 0.8896
C8_11 C 0.7864(5) 0.3805(5) 0.9259(5)
O9_11 O 0.8404(4) 0.4074(3) 0.9085(3)
O10_11 O 0.9672(3) 0.4334(3) 0.8311(3)
H6_11 H 0.9484 0.4749 0.8450
O12_11 O 0.9473(4) 0.2896(3) 0.7875(4)
O1_12 O 0.1687(3) 0.7813(3) 0.6254(3)
C1_12 C 0.1320(5) 0.7333(4) 0.5891(5)
H1_12 H 0.1199 0.6978 0.6193
C2_12 C 0.0688(5) 0.7614(5) 0.5595(5)
O2_12 O 0.0514(3) 0.8177(3) 0.5776(3)
O3_12 O 0.0390(4) 0.7248(4) 0.5206(4)
C3_12 C 0.1817(5) 0.7057(5) 0.5390(5)
H2_12 H 0.1594 0.6896 0.4994
C4_12 C 0.2207(5) 0.6508(5) 0.5722(5)
O4_12 O 0.1925(4) 0.5954(3) 0.5689(4)
C5_12 C 0.2235(4) 0.7676(4) 0.5237(4)
H3_12 H 0.1988 0.7931 0.4911
C6_12 C 0.2904(5) 0.7527(5) 0.4933(5)
O6_12 O 0.2896(3) 0.7125(4) 0.4473(4)
C7_12 C 0.2226(5) 0.8071(5) 0.5867(5)
H4_12 H 0.2640 0.8001 0.6104
C8_12 C 0.2136(5) 0.8805(5) 0.5741(5)
O9_12 O 0.1596(4) 0.9074(3) 0.5915(3)
O10_12 O 0.0328(3) 0.9334(3) 0.6689(3)
H6_12 H 0.0516 0.9749 0.6550
O12_12 O 0.0527(4) 0.7896(3) 0.7125(4)
Co5_12 Co 0.35726(6) 0.65943(7) 0.39790(6)
H5_12 H 0.9943 0.9243 0.6422
O13_12 O 0.9311(4) 0.6925(4) 0.5954(3)
O16_12 O 0.9334(3) 0.8311(3) 0.5328(3)
H7_12 H 0.9243 0.8578 0.4943
H8_12 H 0.9749 0.8450 0.5516
H2_13 H 0.0006 0.6594 0.6896
H3_13 H 0.0089 0.6988 0.7931
C6_13 C 0.0067(5) 0.7904(5) 0.7527(5)
O14_7 O 0.0167(4) 0.3410(3) 0.7197(4)
O15_8 O 0.0896(3) 0.4527(4) 0.7400(4)
O1_13 O 0.8746(3) 0.6687(3) 0.7813(3)
C1_13 C 0.9109(5) 0.6320(5) 0.7333(4)
H1_13 H 0.8807 0.6199 0.6978
C2_13 C 0.9405(5) 0.5688(5) 0.7614(5)
O2_13 O 0.9224(3) 0.5514(3) 0.8177(3)
O3_13 O 0.9794(4) 0.5390(4) 0.7248(4)
C3_13 C 0.9610(5) 0.6817(5) 0.7057(5)
C4_13 C 0.9278(5) 0.7207(5) 0.6508(5)
O5_9 O 0.9006(3) 0.7725(3) 0.6629(3)
C5_13 C 0.9763(4) 0.7235(4) 0.7676(4)
O7_7 O 0.9833(4) 0.8410(3) 0.7803(4)
C7_13 C 0.9133(5) 0.7226(5) 0.8071(5)
H4_13 H 0.8896 0.7640 0.8001
C8_13 C 0.9259(5) 0.7136(5) 0.8805(5)
O8_6 O 0.9527(4) 0.7600(4) 0.9104(3)
O9_13 O 0.9085(3) 0.6596(4) 0.9074(3)
O11_5 O 0.7725(3) 0.6629(3) 0.9006(3)
H2_14 H 0.6896 0.0006 0.6594
H3_14 H 0.7931 0.0089 0.6988
C6_14 C 0.7527(5) 0.0067(5) 0.7904(5)
O14_8 O 0.7197(4) 0.0167(4) 0.3410(3)
O15_9 O 0.7400(4) 0.0896(3) 0.4527(4)
O1_14 O 0.7813(3) 0.8746(3) 0.6687(3)
C1_14 C 0.7333(4) 0.9109(5) 0.6320(5)
H1_14 H 0.6978 0.8807 0.6199
C2_14 C 0.7614(5) 0.9405(5) 0.5688(5)
O2_14 O 0.8177(3) 0.9224(3) 0.5514(3)
O3_14 O 0.7248(4) 0.9794(4) 0.5390(4)
C3_14 C 0.7057(5) 0.9610(5) 0.6817(5)
C4_14 C 0.6508(5) 0.9278(5) 0.7207(5)
O5_10 O 0.6629(3) 0.9006(3) 0.7725(3)
C5_14 C 0.7676(4) 0.9763(4) 0.7235(4)
O7_8 O 0.7803(4) 0.9833(4) 0.8410(3)
C7_14 C 0.8071(5) 0.9133(5) 0.7226(5)
H4_14 H 0.8001 0.8896 0.7640
C8_14 C 0.8805(5) 0.9259(5) 0.7136(5)
O8_7 O 0.9104(3) 0.9527(4) 0.7600(4)
O9_14 O 0.9074(3) 0.9085(3) 0.6596(4)
H2_15 H 0.6594 0.6896 0.0006
H3_15 H 0.6988 0.7931 0.0089
C6_15 C 0.7904(5) 0.7527(5) 0.0067(5)
O14_9 O 0.3410(3) 0.7197(4) 0.0167(4)
O15_10 O 0.4527(4) 0.7400(4) 0.0896(3)
O1_15 O 0.6687(3) 0.7813(3) 0.8746(3)
C1_15 C 0.6320(5) 0.7333(4) 0.9109(5)
H1_15 H 0.6199 0.6978 0.8807
C2_15 C 0.5688(5) 0.7614(5) 0.9405(5)
O2_15 O 0.5514(3) 0.8177(3) 0.9224(3)
O3_15 O 0.5390(4) 0.7248(4) 0.9794(4)
C3_15 C 0.6817(5) 0.7057(5) 0.9610(5)
C4_15 C 0.7207(5) 0.6508(5) 0.9278(5)
C5_15 C 0.7235(4) 0.7676(4) 0.9763(4)
O7_9 O 0.8410(3) 0.7803(4) 0.9833(4)
C7_15 C 0.7226(5) 0.8071(5) 0.9133(5)
H4_15 H 0.7640 0.8001 0.8896
C8_15 C 0.7136(5) 0.8805(5) 0.9259(5)
O8_8 O 0.7600(4) 0.9104(3) 0.9527(4)
O9_15 O 0.6596(4) 0.9074(3) 0.9085(3)
O1_16 O 0.6254(3) 0.3313(3) 0.2813(3)
C1_16 C 0.5891(5) 0.3680(5) 0.2333(4)
H1_16 H 0.6193 0.3801 0.1978
C2_16 C 0.5595(5) 0.4312(5) 0.2614(5)
O2_16 O 0.5776(3) 0.4486(3) 0.3177(3)
O3_16 O 0.5206(4) 0.4610(4) 0.2248(4)
C3_16 C 0.5390(5) 0.3183(5) 0.2057(5)
H2_16 H 0.4994 0.3406 0.1896
C4_16 C 0.5722(5) 0.2793(5) 0.1508(5)
O5_11 O 0.5994(3) 0.2275(3) 0.1629(3)
C5_16 C 0.5237(4) 0.2765(4) 0.2676(4)
H3_16 H 0.4911 0.3012 0.2931
C6_16 C 0.4933(5) 0.2096(5) 0.2527(5)
O7_10 O 0.5167(4) 0.1590(3) 0.2803(4)
C7_16 C 0.5867(5) 0.2774(5) 0.3071(5)
H4_16 H 0.6104 0.2360 0.3001
C8_16 C 0.5741(5) 0.2864(5) 0.3805(5)
O8_9 O 0.5473(4) 0.2400(4) 0.4104(3)
O9_16 O 0.5915(3) 0.3404(4) 0.4074(3)
O11_6 O 0.7275(3) 0.3371(3) 0.4006(3)
O14_10 O 0.4833(4) 0.6590(3) 0.2197(4)
O15_11 O 0.4104(3) 0.5473(4) 0.2400(4)
O1_17 O 0.1254(3) 0.1687(3) 0.7187(3)
C1_17 C 0.0891(5) 0.1320(5) 0.7667(4)
H1_17 H 0.1193 0.1199 0.8022
C2_17 C 0.0595(5) 0.0688(5) 0.7386(5)
O2_17 O 0.0776(3) 0.0514(3) 0.6823(3)
O3_17 O 0.0206(4) 0.0390(4) 0.7752(4)
C3_17 C 0.0390(5) 0.1817(5) 0.7943(5)
C4_17 C 0.0722(5) 0.2207(5) 0.8492(5)
O5_12 O 0.0994(3) 0.2725(3) 0.8371(3)
C5_17 C 0.0237(4) 0.2235(4) 0.7324(4)
C7_17 C 0.0867(5) 0.2226(5) 0.6929(5)
H4_17 H 0.1104 0.2640 0.6999
C8_17 C 0.0741(5) 0.2136(5) 0.6195(5)
O8_10 O 0.0473(4) 0.2600(4) 0.5896(3)
O9_17 O 0.0915(3) 0.1596(4) 0.5926(3)
O11_7 O 0.2275(3) 0.1629(3) 0.5994(3)
H2_17 H 0.9994 0.1594 0.8104
H3_17 H 0.9911 0.1988 0.7069
C6_17 C 0.9933(5) 0.2904(5) 0.7473(5)
O15_12 O 0.5896(3) 0.0473(4) 0.2600(4)
O1_18 O 0.3746(3) 0.8313(3) 0.2187(3)
C1_18 C 0.4109(5) 0.8680(5) 0.2667(4)
H1_18 H 0.3807 0.8801 0.3022
C2_18 C 0.4405(5) 0.9312(5) 0.2386(5)
O2_18 O 0.4224(3) 0.9486(3) 0.1823(3)
O3_18 O 0.4794(4) 0.9610(4) 0.2752(4)
C3_18 C 0.4610(5) 0.8183(5) 0.2943(5)
H2_18 H 0.5006 0.8406 0.3104
C4_18 C 0.4278(5) 0.7793(5) 0.3492(5)
O5_13 O 0.4006(3) 0.7275(3) 0.3371(3)
C5_18 C 0.4763(4) 0.7765(4) 0.2324(4)
H3_18 H 0.5089 0.8012 0.2069
C6_18 C 0.5067(5) 0.7096(5) 0.2473(5)
C7_18 C 0.4133(5) 0.7774(5) 0.1929(5)
H4_18 H 0.3896 0.7360 0.1999
C8_18 C 0.4259(5) 0.7864(5) 0.1195(5)
O9_18 O 0.4085(3) 0.8404(4) 0.0926(3)
O11_8 O 0.2725(3) 0.8371(3) 0.0994(3)
O1_19 O 0.2813(3) 0.6254(3) 0.3313(3)
C1_19 C 0.2333(4) 0.5891(5) 0.3680(5)
H1_19 H 0.1978 0.6193 0.3801
C2_19 C 0.2614(5) 0.5595(5) 0.4312(5)
O2_19 O 0.3177(3) 0.5776(3) 0.4486(3)
O3_19 O 0.2248(4) 0.5206(4) 0.4610(4)
C3_19 C 0.2057(5) 0.5390(5) 0.3183(5)
H2_19 H 0.1896 0.4994 0.3406
C4_19 C 0.1508(5) 0.5722(5) 0.2793(5)
O5_14 O 0.1629(3) 0.5994(3) 0.2275(3)
C5_19 C 0.2676(4) 0.5237(4) 0.2765(4)
H3_19 H 0.2931 0.4911 0.3012
C6_19 C 0.2527(5) 0.4933(5) 0.2096(5)
O7_11 O 0.2803(4) 0.5167(4) 0.1590(3)
C7_19 C 0.3071(5) 0.5867(5) 0.2774(5)
H4_19 H 0.3001 0.6104 0.2360
C8_19 C 0.3805(5) 0.5741(5) 0.2864(5)
O9_19 O 0.4074(3) 0.5915(3) 0.3404(4)
O14_11 O 0.2197(4) 0.4833(4) 0.6590(3)
O15_13 O 0.2400(4) 0.4104(3) 0.5473(4)
O1_20 O 0.7187(3) 0.1254(3) 0.1687(3)
C1_20 C 0.7667(4) 0.0891(5) 0.1320(5)
H1_20 H 0.8022 0.1193 0.1199
C2_20 C 0.7386(5) 0.0595(5) 0.0688(5)
O2_20 O 0.6823(3) 0.0776(3) 0.0514(3)
O3_20 O 0.7752(4) 0.0206(4) 0.0390(4)
C3_20 C 0.7943(5) 0.0390(5) 0.1817(5)
C4_20 C 0.8492(5) 0.0722(5) 0.2207(5)
O5_15 O 0.8371(3) 0.0994(3) 0.2725(3)
C5_20 C 0.7324(4) 0.0237(4) 0.2235(4)
C7_20 C 0.6929(5) 0.0867(5) 0.2226(5)
H4_20 H 0.6999 0.1104 0.2640
C8_20 C 0.6195(5) 0.0741(5) 0.2136(5)
O9_20 O 0.5926(3) 0.0915(3) 0.1596(4)
H2_20 H 0.8104 0.9994 0.1594
H3_20 H 0.7069 0.9911 0.1988
C6_20 C 0.7473(5) 0.9933(5) 0.2904(5)
O15_14 O 0.2600(4) 0.5896(3) 0.0473(4)
O1_21 O 0.2187(3) 0.3746(3) 0.8313(3)
C1_21 C 0.2667(4) 0.4109(5) 0.8680(5)
H1_21 H 0.3022 0.3807 0.8801
C2_21 C 0.2386(5) 0.4405(5) 0.9312(5)
O2_21 O 0.1823(3) 0.4224(3) 0.9486(3)
O3_21 O 0.2752(4) 0.4794(4) 0.9610(4)
C3_21 C 0.2943(5) 0.4610(5) 0.8183(5)
H2_21 H 0.3104 0.5006 0.8406
C4_21 C 0.3492(5) 0.4278(5) 0.7793(5)
O5_16 O 0.3371(3) 0.4006(3) 0.7275(3)
C5_21 C 0.2324(4) 0.4763(4) 0.7765(4)
H3_21 H 0.2069 0.5089 0.8012
C6_21 C 0.2473(5) 0.5067(5) 0.7096(5)
C7_21 C 0.1929(5) 0.4133(5) 0.7774(5)
H4_21 H 0.1999 0.3896 0.7360
C8_21 C 0.1195(5) 0.4259(5) 0.7864(5)
O9_21 O 0.0926(3) 0.4085(3) 0.8404(4)
O1_22 O 0.3313(3) 0.2813(3) 0.6254(3)
C1_22 C 0.3680(5) 0.2333(4) 0.5891(5)
H1_22 H 0.3801 0.1978 0.6193
C2_22 C 0.4312(5) 0.2614(5) 0.5595(5)
O2_22 O 0.4486(3) 0.3177(3) 0.5776(3)
O3_22 O 0.4610(4) 0.2248(4) 0.5206(4)
C3_22 C 0.3183(5) 0.2057(5) 0.5390(5)
H2_22 H 0.3406 0.1896 0.4994
C4_22 C 0.2793(5) 0.1508(5) 0.5722(5)
C5_22 C 0.2765(4) 0.2676(4) 0.5237(4)
H3_22 H 0.3012 0.2931 0.4911
C6_22 C 0.2096(5) 0.2527(5) 0.4933(5)
O7_12 O 0.1590(3) 0.2803(4) 0.5167(4)
C7_22 C 0.2774(5) 0.3071(5) 0.5867(5)
H4_22 H 0.2360 0.3001 0.6104
C8_22 C 0.2864(5) 0.3805(5) 0.5741(5)
O9_22 O 0.3404(4) 0.4074(3) 0.5915(3)
O14_12 O 0.6590(3) 0.2197(4) 0.4833(4)
O1_23 O 0.1687(3) 0.7187(3) 0.1254(3)
C1_23 C 0.1320(5) 0.7667(4) 0.0891(5)
H1_23 H 0.1199 0.8022 0.1193
C2_23 C 0.0688(5) 0.7386(5) 0.0595(5)
O2_23 O 0.0514(3) 0.6823(3) 0.0776(3)
O3_23 O 0.0390(4) 0.7752(4) 0.0206(4)
C3_23 C 0.1817(5) 0.7943(5) 0.0390(5)
C4_23 C 0.2207(5) 0.8492(5) 0.0722(5)
C5_23 C 0.2235(4) 0.7324(4) 0.0237(4)
C7_23 C 0.2226(5) 0.6929(5) 0.0867(5)
H4_23 H 0.2640 0.6999 0.1104
C8_23 C 0.2136(5) 0.6195(5) 0.0741(5)
O9_23 O 0.1596(4) 0.5926(3) 0.0915(3)
H2_23 H 0.1594 0.8104 0.9994
H3_23 H 0.1988 0.7069 0.9911
C6_23 C 0.2904(5) 0.7473(5) 0.9933(5)
O1_24 O 0.8313(3) 0.2187(3) 0.3746(3)
C1_24 C 0.8680(5) 0.2667(4) 0.4109(5)
H1_24 H 0.8801 0.3022 0.3807
C2_24 C 0.9312(5) 0.2386(5) 0.4405(5)
O2_24 O 0.9486(3) 0.1823(3) 0.4224(3)
O3_24 O 0.9610(4) 0.2752(4) 0.4794(4)
C3_24 C 0.8183(5) 0.2943(5) 0.4610(5)
H2_24 H 0.8406 0.3104 0.5006
C4_24 C 0.7793(5) 0.3492(5) 0.4278(5)
C5_24 C 0.7765(4) 0.2324(4) 0.4763(4)
H3_24 H 0.8012 0.2069 0.5089
C6_24 C 0.7096(5) 0.2473(5) 0.5067(5)
C7_24 C 0.7774(5) 0.1929(5) 0.4133(5)
H4_24 H 0.7360 0.1999 0.3896
C8_24 C 0.7864(5) 0.1195(5) 0.4259(5)
O9_24 O 0.8404(4) 0.0926(3) 0.4085(3)
loop_
_geom_bond_atom_site_label_1
_geom_bond_atom_site_label_2
_geom_bond_site_symmetry_1
_geom_bond_site_symmetry_2
Co1 O1 1_555 1_555
Co2 O3 1_555 1_555
O1 C1 1_555 1_555
C1 H1 1_555 1_555
C2 C1 1_555 1_555
O2 Co1 1_555 1_555
O3 C2 1_555 1_555
C3 C1 1_555 1_555
C4 C3 1_555 1_555
O4 C4 1_555 1_555
O5 C4 1_555 1_555
C5 C3 1_555 1_555
C7 O1 1_555 1_555
H4 C7 1_555 1_555
C8 C7 1_555 1_555
O8 C8 1_555 1_555
O9 Co1 1_555 1_555
O10 Co1 1_555 1_555
H5 O10 1_555 1_555
H6 O10 1_555 1_555
O11 Co1 1_555 1_555
O12 Co1 1_555 1_555
O13 Co2 1_555 1_555
O16 Co2 1_555 1_555
Co3 O4 1_555 1_555
Co4 O5 1_555 1_555
Co8 O10 1_555 1_555
H8 O16 1_555 1_555
C2 O2 1_555 1_555
C5 C7 1_555 1_555
C8 O9 1_555 1_555
O6 C6 1_555 1_555
Co5 O6 1_555 1_555
Co4 O1_2 1_555 1_555
Co2_2 O3_2 1_555 1_555
O1_2 C1_2 1_555 1_555
C1_2 H1_2 1_555 1_555
C2_2 C1_2 1_555 1_555
O2_2 Co4 1_555 1_555
O3_2 C2_2 1_555 1_555
C3_2 C1_2 1_555 1_555
C4_2 C3_2 1_555 1_555
O4_2 C4_2 1_555 1_555
O5_2 C4_2 1_555 1_555
C5_2 C3_2 1_555 1_555
C7_2 O1_2 1_555 1_555
H4_2 C7_2 1_555 1_555
C8_2 C7_2 1_555 1_555
O8_2 C8_2 1_555 1_555
O9_2 Co4 1_555 1_555
O10_2 Co4 1_555 1_555
H5_2 O10_2 1_555 1_555
H6_2 O10_2 1_555 1_555
O12_2 Co4 1_555 1_555
O13_2 Co2_2 1_555 1_555
O16_2 Co2_2 1_555 1_555
Co3_2 O4_2 1_555 1_555
Co4_2 O5_2 1_555 1_555
Co3 O10_2 1_555 1_555
H8_2 O16_2 1_555 1_555
C2_2 O2_2 1_555 1_555
C5_2 C7_2 1_555 1_555
C8_2 O9_2 1_555 1_555
O6_2 C6_2 1_555 1_555
Co5_2 O6_2 1_555 1_555
Co4_2 O1_3 1_555 1_555
Co2_3 O3_3 1_555 1_555
O1_3 C1_3 1_555 1_555
C1_3 H1_3 1_555 1_555
C2_3 C1_3 1_555 1_555
O2_3 Co4_2 1_555 1_555
O3_3 C2_3 1_555 1_555
C3_3 C1_3 1_555 1_555
C4_3 C3_3 1_555 1_555
O4_3 C4_3 1_555 1_555
O11 C4_3 1_555 1_555
C5_3 C3_3 1_555 1_555
C7_3 O1_3 1_555 1_555
H4_3 C7_3 1_555 1_555
C8_3 C7_3 1_555 1_555
O8_3 C8_3 1_555 1_555
O9_3 Co4_2 1_555 1_555
O10_3 Co4_2 1_555 1_555
H5_3 O10_3 1_555 1_555
H6_3 O10_3 1_555 1_555
O12_3 Co4_2 1_555 1_555
O13_3 Co2_3 1_555 1_555
O16_3 Co2_3 1_555 1_555
Co8 O4_3 1_555 1_555
Co3_2 O10_3 1_555 1_555
H8_3 O16_3 1_555 1_555
C2_3 O2_3 1_555 1_555
C5_3 C7_3 1_555 1_555
C8_3 O9_3 1_555 1_555
O6_3 C6_3 1_555 1_555
Co5_3 O6_3 1_555 1_555
Co1_2 O1_4 1_555 1_555
Co2_4 O3_4 1_555 1_555
O1_4 C1_4 1_555 1_555
C1_4 H1_4 1_555 1_555
C2_4 C1_4 1_555 1_555
O2_4 Co1_2 1_555 1_555
O3_4 C2_4 1_555 1_555
C3_4 C1_4 1_555 1_555
H2_4 C3_4 1_555 1_555
C4_4 C3_4 1_555 1_555
O4_4 C4_4 1_555 1_555
O5_3 C4_4 1_555 1_555
C5_4 C3_4 1_555 1_555
H3_4 C5_4 1_555 1_555
C6_4 C5_4 1_555 1_555
O6_4 C6_4 1_555 1_555
O7_4 C6_4 1_555 1_555
C7_4 O1_4 1_555 1_555
H4_4 C7_4 1_555 1_555
C8_4 C7_4 1_555 1_555
O8_4 C8_4 1_555 1_555
O9_4 Co1_2 1_555 1_555
O10_4 Co1_2 1_555 1_555
H5_4 O10_4 1_555 1_555
H6_4 O10_4 1_555 1_555
O11_2 Co1_2 1_555 1_555
O12_4 Co1_2 1_555 1_555
O13_4 Co2_4 1_555 1_555
O14_4 Co2_4 1_555 1_555
O15_4 Co2_4 1_555 1_555
O16_4 Co2_4 1_555 1_555
Co3_3 O4_4 1_555 1_555
Co4_3 O5_3 1_555 1_555
Co5_4 O6_4 1_555 1_555
Co6_3 O7_4 1_555 1_555
Co7_2 O8_4 1_555 1_555
Co8_2 O10_4 1_555 1_555
H7_4 O16_4 1_555 1_555
H8_4 O16_4 1_555 1_555
C2_4 O2_4 1_555 1_555
C5_4 C7_4 1_555 1_555
C8_4 O9_4 1_555 1_555
O6_5 C6_5 1_555 1_555
Co5_5 O6_5 1_555 1_555
O13_5 Co6 1_555 1_555
O16_5 Co6 1_555 1_555
H8_5 O16_5 1_555 1_555
Co1_3 O1_5 1_555 1_555
O1_5 C1_5 1_555 1_555
C1_5 H1_5 1_555 1_555
C2_5 C1_5 1_555 1_555
O2_5 Co1_3 1_555 1_555
O3_5 C2_5 1_555 1_555
C3_5 C1_5 1_555 1_555
C4_5 C3_5 1_555 1_555
O4_5 C4_5 1_555 1_555
O5_4 C4_5 1_555 1_555
C5_5 C3_5 1_555 1_555
C7_5 O1_5 1_555 1_555
H4_5 C7_5 1_555 1_555
C8_5 C7_5 1_555 1_555
O8_5 C8_5 1_555 1_555
O9_5 Co1_3 1_555 1_555
O10_5 Co1_3 1_555 1_555
H6_5 O10_5 1_555 1_555
O11_3 Co1_3 1_555 1_555
O12_5 Co1_3 1_555 1_555
Co3_4 O4_5 1_555 1_555
Co4_4 O5_4 1_555 1_555
Co7_3 O8_5 1_555 1_555
Co8_3 O10_5 1_555 1_555
C2_5 O2_5 1_555 1_555
C5_5 C7_5 1_555 1_555
C8_5 O9_5 1_555 1_555
Co1_4 O1_6 1_555 1_555
O1_6 C1_6 1_555 1_555
C1_6 H1_6 1_555 1_555
C2_6 C1_6 1_555 1_555
O2_6 Co1_4 1_555 1_555
O3_6 C2_6 1_555 1_555
C3_6 C1_6 1_555 1_555
H2_6 C3_6 1_555 1_555
C4_6 C3_6 1_555 1_555
O4_6 C4_6 1_555 1_555
O5_5 C4_6 1_555 1_555
C5_6 C3_6 1_555 1_555
H3_6 C5_6 1_555 1_555
C6_6 C5_6 1_555 1_555
O6_6 C6_6 1_555 1_555
O14_4 C6_6 1_555 1_555
C7_6 O1_6 1_555 1_555
H4_6 C7_6 1_555 1_555
C8_6 C7_6 1_555 1_555
O15_3 C8_6 1_555 1_555
O9_6 Co1_4 1_555 1_555
O10_6 Co1_4 1_555 1_555
H6_6 O10_6 1_555 1_555
O11_4 Co1_4 1_555 1_555
O12_6 Co1_4 1_555 1_555
Co3_5 O4_6 1_555 1_555
Co4_5 O5_5 1_555 1_555
Co5_6 O6_6 1_555 1_555
Co8_4 O10_6 1_555 1_555
C2_6 O2_6 1_555 1_555
C5_6 C7_6 1_555 1_555
C8_6 O9_6 1_555 1_555
O13_6 Co6_3 1_555 1_555
O15_5 Co6_3 1_555 1_555
O16_6 Co6_3 1_555 1_555
H7_6 O16_6 1_555 1_555
H8_6 O16_6 1_555 1_555
Co4_5 O1_7 1_555 1_555
Co2_5 O3_7 1_555 1_555
O1_7 C1_7 1_555 1_555
C1_7 H1_7 1_555 1_555
C2_7 C1_7 1_555 1_555
O2_7 Co4_5 1_555 1_555
O3_7 C2_7 1_555 1_555
C3_7 C1_7 1_555 1_555
H2_7 C3_7 1_555 1_555
C4_7 C3_7 1_555 1_555
O4_7 C4_7 1_555 1_555
O5_6 C4_7 1_555 1_555
C5_7 C3_7 1_555 1_555
H3_7 C5_7 1_555 1_555
C6_7 C5_7 1_555 1_555
O6_7 C6_7 1_555 1_555
O7_5 C6_7 1_555 1_555
C7_7 O1_7 1_555 1_555
H4_7 C7_7 1_555 1_555
C8_7 C7_7 1_555 1_555
O15_4 C8_7 1_555 1_555
O9_7 Co4_5 1_555 1_555
O10_7 Co4_5 1_555 1_555
H5_7 O10_7 1_555 1_555
H6_7 O10_7 1_555 1_555
O12_7 Co4_5 1_555 1_555
O13_7 Co2_5 1_555 1_555
O14_5 Co2_5 1_555 1_555
O15_6 Co2_5 1_555 1_555
O16_7 Co2_5 1_555 1_555
Co3_6 O4_7 1_555 1_555
Co4_6 O5_6 1_555 1_555
Co5_7 O6_7 1_555 1_555
Co6_4 O7_5 1_555 1_555
Co3_5 O10_7 1_555 1_555
H7_7 O16_7 1_555 1_555
H8_7 O16_7 1_555 1_555
C2_7 O2_7 1_555 1_555
C5_7 C7_7 1_555 1_555
C8_7 O9_7 1_555 1_555
O6_8 C6_8 1_555 1_555
Co5_8 O6_8 1_555 1_555
O13_8 Co6_2 1_555 1_555
O16_8 Co6_2 1_555 1_555
H8_8 O16_8 1_555 1_555
Co4_3 O1_8 1_555 1_555
O1_8 C1_8 1_555 1_555
C1_8 H1_8 1_555 1_555
C2_8 C1_8 1_555 1_555
O2_8 Co4_3 1_555 1_555
O3_8 C2_8 1_555 1_555
C3_8 C1_8 1_555 1_555
C4_8 C3_8 1_555 1_555
O4_8 C4_8 1_555 1_555
O5_7 C4_8 1_555 1_555
C5_8 C3_8 1_555 1_555
C7_8 O1_8 1_555 1_555
H4_8 C7_8 1_555 1_555
C8_8 C7_8 1_555 1_555
O15_5 C8_8 1_555 1_555
O9_8 Co4_3 1_555 1_555
O10_8 Co4_3 1_555 1_555
H6_8 O10_8 1_555 1_555
O12_8 Co4_3 1_555 1_555
Co3_7 O4_8 1_555 1_555
Co4_7 O5_7 1_555 1_555
Co3_3 O10_8 1_555 1_555
C2_8 O2_8 1_555 1_555
C5_8 C7_8 1_555 1_555
C8_8 O9_8 1_555 1_555
Co4_4 O1_9 1_555 1_555
O1_9 C1_9 1_555 1_555
C1_9 H1_9 1_555 1_555
C2_9 C1_9 1_555 1_555
O2_9 Co4_4 1_555 1_555
O3_9 C2_9 1_555 1_555
C3_9 C1_9 1_555 1_555
H2_9 C3_9 1_555 1_555
C4_9 C3_9 1_555 1_555
O4_9 C4_9 1_555 1_555
O5_8 C4_9 1_555 1_555
C5_9 C3_9 1_555 1_555
H3_9 C5_9 1_555 1_555
C6_9 C5_9 1_555 1_555
O6_9 C6_9 1_555 1_555
O14_5 C6_9 1_555 1_555
C7_9 O1_9 1_555 1_555
H4_9 C7_9 1_555 1_555
C8_9 C7_9 1_555 1_555
O15 C8_9 1_555 1_555
O9_9 Co4_4 1_555 1_555
O10_9 Co4_4 1_555 1_555
H6_9 O10_9 1_555 1_555
O12_9 Co4_4 1_555 1_555
Co3_8 O4_9 1_555 1_555
Co4_8 O5_8 1_555 1_555
Co5_9 O6_9 1_555 1_555
Co3_4 O10_9 1_555 1_555
C2_9 O2_9 1_555 1_555
C5_9 C7_9 1_555 1_555
C8_9 O9_9 1_555 1_555
O13_9 Co6_4 1_555 1_555
O15_7 Co6_4 1_555 1_555
O16_9 Co6_4 1_555 1_555
H7_9 O16_9 1_555 1_555
H8_9 O16_9 1_555 1_555
Co4_8 O1_10 1_555 1_555
Co7_2 O3_10 1_555 1_555
O1_10 C1_10 1_555 1_555
C1_10 H1_10 1_555 1_555
C2_10 C1_10 1_555 1_555
O2_10 Co4_8 1_555 1_555
O3_10 C2_10 1_555 1_555
C3_10 C1_10 1_555 1_555
H2_10 C3_10 1_555 1_555
C4_10 C3_10 1_555 1_555
O4_10 C4_10 1_555 1_555
O11_3 C4_10 1_555 1_555
C5_10 C3_10 1_555 1_555
H3_10 C5_10 1_555 1_555
C6_10 C5_10 1_555 1_555
O6_10 C6_10 1_555 1_555
O7_6 C6_10 1_555 1_555
C7_10 O1_10 1_555 1_555
H4_10 C7_10 1_555 1_555
C8_10 C7_10 1_555 1_555
O15_6 C8_10 1_555 1_555
O9_10 Co4_8 1_555 1_555
O10_10 Co4_8 1_555 1_555
H5_10 O10_10 1_555 1_555
H6_10 O10_10 1_555 1_555
O12_10 Co4_8 1_555 1_555
O13_10 Co7_2 1_555 1_555
O14_6 Co7_2 1_555 1_555
O16_10 Co7_2 1_555 1_555
Co8_3 O4_10 1_555 1_555
Co5_10 O6_10 1_555 1_555
Co7_3 O7_6 1_555 1_555
Co3_8 O10_10 1_555 1_555
H7_10 O16_10 1_555 1_555
H8_10 O16_10 1_555 1_555
C2_10 O2_10 1_555 1_555
C5_10 C7_10 1_555 1_555
C8_10 O9_10 1_555 1_555
O13_11 Co7 1_555 1_555
O16_11 Co7 1_555 1_555
H8_11 O16_11 1_555 1_555
O6_11 C6_11 1_555 1_555
Co5_11 O6_11 1_555 1_555
Co4_6 O1_11 1_555 1_555
O1_11 C1_11 1_555 1_555
C1_11 H1_11 1_555 1_555
C2_11 C1_11 1_555 1_555
O2_11 Co4_6 1_555 1_555
O3_11 C2_11 1_555 1_555
C3_11 C1_11 1_555 1_555
C4_11 C3_11 1_555 1_555
O4_11 C4_11 1_555 1_555
O11_4 C4_11 1_555 1_555
C5_11 C3_11 1_555 1_555
C7_11 O1_11 1_555 1_555
H4_11 C7_11 1_555 1_555
C8_11 C7_11 1_555 1_555
O15_7 C8_11 1_555 1_555
O9_11 Co4_6 1_555 1_555
O10_11 Co4_6 1_555 1_555
H6_11 O10_11 1_555 1_555
O12_11 Co4_6 1_555 1_555
Co8_4 O4_11 1_555 1_555
Co3_6 O10_11 1_555 1_555
C2_11 O2_11 1_555 1_555
C5_11 C7_11 1_555 1_555
C8_11 O9_11 1_555 1_555
Co4_7 O1_12 1_555 1_555
O1_12 C1_12 1_555 1_555
C1_12 H1_12 1_555 1_555
C2_12 C1_12 1_555 1_555
O2_12 Co4_7 1_555 1_555
O3_12 C2_12 1_555 1_555
C3_12 C1_12 1_555 1_555
H2_12 C3_12 1_555 1_555
C4_12 C3_12 1_555 1_555
O4_12 C4_12 1_555 1_555
O11_2 C4_12 1_555 1_555
C5_12 C3_12 1_555 1_555
H3_12 C5_12 1_555 1_555
C6_12 C5_12 1_555 1_555
O6_12 C6_12 1_555 1_555
O14_6 C6_12 1_555 1_555
C7_12 O1_12 1_555 1_555
H4_12 C7_12 1_555 1_555
C8_12 C7_12 1_555 1_555
O15_2 C8_12 1_555 1_555
O9_12 Co4_7 1_555 1_555
O10_12 Co4_7 1_555 1_555
H6_12 O10_12 1_555 1_555
O12_12 Co4_7 1_555 1_555
Co8_2 O4_12 1_555 1_555
Co5_12 O6_12 1_555 1_555
Co3_7 O10_12 1_555 1_555
C2_12 O2_12 1_555 1_555
C5_12 C7_12 1_555 1_555
C8_12 O9_12 1_555 1_555
O13_12 Co7_3 1_555 1_555
O16_12 Co7_3 1_555 1_555
H7_12 O16_12 1_555 1_555
H8_12 O16_12 1_555 1_555
O12_12 C6_13 1_555 1_555
Co5_7 O1_13 1_555 1_555
Co3_6 O3_13 1_555 1_555
O1_13 C1_13 1_555 1_555
C1_13 H1_13 1_555 1_555
C2_13 C1_13 1_555 1_555
O2_13 Co5_7 1_555 1_555
O3_13 C2_13 1_555 1_555
C3_13 C1_13 1_555 1_555
C4_13 C3_13 1_555 1_555
O13_12 C4_13 1_555 1_555
O5_9 C4_13 1_555 1_555
C5_13 C3_13 1_555 1_555
C7_13 O1_13 1_555 1_555
H4_13 C7_13 1_555 1_555
C8_13 C7_13 1_555 1_555
O8_6 C8_13 1_555 1_555
O9_13 Co5_7 1_555 1_555
O16_9 Co5_7 1_555 1_555
O11_5 Co5_7 1_555 1_555
Co5_10 O5_9 1_555 1_555
C2_13 O2_13 1_555 1_555
C5_13 C7_13 1_555 1_555
C8_13 O9_13 1_555 1_555
O12_6 C6_14 1_555 1_555
Co5_10 O1_14 1_555 1_555
Co8_3 O3_14 1_555 1_555
O1_14 C1_14 1_555 1_555
C1_14 H1_14 1_555 1_555
C2_14 C1_14 1_555 1_555
O2_14 Co5_10 1_555 1_555
O3_14 C2_14 1_555 1_555
C3_14 C1_14 1_555 1_555
C4_14 C3_14 1_555 1_555
O13_6 C4_14 1_555 1_555
O5_10 C4_14 1_555 1_555
C5_14 C3_14 1_555 1_555
C7_14 O1_14 1_555 1_555
H4_14 C7_14 1_555 1_555
C8_14 C7_14 1_555 1_555
O8_7 C8_14 1_555 1_555
O9_14 Co5_10 1_555 1_555
O16_12 Co5_10 1_555 1_555
Co5_4 O5_10 1_555 1_555
C2_14 O2_14 1_555 1_555
C5_14 C7_14 1_555 1_555
C8_14 O9_14 1_555 1_555
O12_9 C6_15 1_555 1_555
Co5_4 O1_15 1_555 1_555
Co3_3 O3_15 1_555 1_555
O1_15 C1_15 1_555 1_555
C1_15 H1_15 1_555 1_555
C2_15 C1_15 1_555 1_555
O2_15 Co5_4 1_555 1_555
O3_15 C2_15 1_555 1_555
C3_15 C1_15 1_555 1_555
C4_15 C3_15 1_555 1_555
O13_9 C4_15 1_555 1_555
O11_5 C4_15 1_555 1_555
C5_15 C3_15 1_555 1_555
C7_15 O1_15 1_555 1_555
H4_15 C7_15 1_555 1_555
C8_15 C7_15 1_555 1_555
O8_8 C8_15 1_555 1_555
O9_15 Co5_4 1_555 1_555
O16_6 Co5_4 1_555 1_555
C2_15 O2_15 1_555 1_555
C5_15 C7_15 1_555 1_555
C8_15 O9_15 1_555 1_555
Co5_9 O1_16 1_555 1_555
Co3_8 O3_16 1_555 1_555
O1_16 C1_16 1_555 1_555
C1_16 H1_16 1_555 1_555
C2_16 C1_16 1_555 1_555
O2_16 Co5_9 1_555 1_555
O3_16 C2_16 1_555 1_555
C3_16 C1_16 1_555 1_555
H2_16 C3_16 1_555 1_555
C4_16 C3_16 1_555 1_555
O13_3 C4_16 1_555 1_555
O5_11 C4_16 1_555 1_555
C5_16 C3_16 1_555 1_555
H3_16 C5_16 1_555 1_555
C6_16 C5_16 1_555 1_555
O12_3 C6_16 1_555 1_555
O7_10 C6_16 1_555 1_555
C7_16 O1_16 1_555 1_555
H4_16 C7_16 1_555 1_555
C8_16 C7_16 1_555 1_555
O8_9 C8_16 1_555 1_555
O9_16 Co5_9 1_555 1_555
O16_7 Co5_9 1_555 1_555
O11_6 Co5_9 1_555 1_555
O14_10 Co3_8 1_555 1_555
O15_11 Co3_8 1_555 1_555
Co5_11 O5_11 1_555 1_555
Co3_2 O7_10 1_555 1_555
Co3_5 O8_9 1_555 1_555
C2_16 O2_16 1_555 1_555
C5_16 C7_16 1_555 1_555
C8_16 O9_16 1_555 1_555
Co5_8 O1_17 1_555 1_555
O1_17 C1_17 1_555 1_555
C1_17 H1_17 1_555 1_555
C2_17 C1_17 1_555 1_555
O2_17 Co5_8 1_555 1_555
O3_17 C2_17 1_555 1_555
C3_17 C1_17 1_555 1_555
C4_17 C3_17 1_555 1_555
O13_11 C4_17 1_555 1_555
O5_12 C4_17 1_555 1_555
C5_17 C3_17 1_555 1_555
C7_17 O1_17 1_555 1_555
H4_17 C7_17 1_555 1_555
C8_17 C7_17 1_555 1_555
O8_10 C8_17 1_555 1_555
O9_17 Co5_8 1_555 1_555
O16_2 Co5_8 1_555 1_555
O11_7 Co5_8 1_555 1_555
Co5_3 O5_12 1_555 1_555
Co3 O8_10 1_555 1_555
C2_17 O2_17 1_555 1_555
C5_17 C7_17 1_555 1_555
C8_17 O9_17 1_555 1_555
O12_11 C6_17 1_555 1_555
O15_12 Co3_2 1_555 1_555
Co5_2 O1_18 1_555 1_555
O1_18 C1_18 1_555 1_555
C1_18 H1_18 1_555 1_555
C2_18 C1_18 1_555 1_555
O2_18 Co5_2 1_555 1_555
O3_18 C2_18 1_555 1_555
C3_18 C1_18 1_555 1_555
H2_18 C3_18 1_555 1_555
C4_18 C3_18 1_555 1_555
O13_10 C4_18 1_555 1_555
O5_13 C4_18 1_555 1_555
C5_18 C3_18 1_555 1_555
H3_18 C5_18 1_555 1_555
C6_18 C5_18 1_555 1_555
O12_10 C6_18 1_555 1_555
O14_10 C6_18 1_555 1_555
C7_18 O1_18 1_555 1_555
H4_18 C7_18 1_555 1_555
C8_18 C7_18 1_555 1_555
O15_10 C8_18 1_555 1_555
O9_18 Co5_2 1_555 1_555
O16_8 Co5_2 1_555 1_555
O11_8 Co5_2 1_555 1_555
Co5_12 O5_13 1_555 1_555
C2_18 O2_18 1_555 1_555
C5_18 C7_18 1_555 1_555
C8_18 O9_18 1_555 1_555
Co5_12 O1_19 1_555 1_555
Co8_2 O3_19 1_555 1_555
O1_19 C1_19 1_555 1_555
C1_19 H1_19 1_555 1_555
C2_19 C1_19 1_555 1_555
O2_19 Co5_12 1_555 1_555
O3_19 C2_19 1_555 1_555
C3_19 C1_19 1_555 1_555
H2_19 C3_19 1_555 1_555
C4_19 C3_19 1_555 1_555
O13 C4_19 1_555 1_555
O5_14 C4_19 1_555 1_555
C5_19 C3_19 1_555 1_555
H3_19 C5_19 1_555 1_555
C6_19 C5_19 1_555 1_555
O12 C6_19 1_555 1_555
O7_11 C6_19 1_555 1_555
C7_19 O1_19 1_555 1_555
H4_19 C7_19 1_555 1_555
C8_19 C7_19 1_555 1_555
O15_11 C8_19 1_555 1_555
O9_19 Co5_12 1_555 1_555
O16_10 Co5_12 1_555 1_555
O14_11 Co8_2 1_555 1_555
O15_13 Co8_2 1_555 1_555
Co5_5 O5_14 1_555 1_555
Co8 O7_11 1_555 1_555
C2_19 O2_19 1_555 1_555
C5_19 C7_19 1_555 1_555
C8_19 O9_19 1_555 1_555
Co5_11 O1_20 1_555 1_555
O1_20 C1_20 1_555 1_555
C1_20 H1_20 1_555 1_555
C2_20 C1_20 1_555 1_555
O2_20 Co5_11 1_555 1_555
O3_20 C2_20 1_555 1_555
C3_20 C1_20 1_555 1_555
C4_20 C3_20 1_555 1_555
O13_5 C4_20 1_555 1_555
O5_15 C4_20 1_555 1_555
C5_20 C3_20 1_555 1_555
C7_20 O1_20 1_555 1_555
H4_20 C7_20 1_555 1_555
C8_20 C7_20 1_555 1_555
O15_12 C8_20 1_555 1_555
O9_20 Co5_11 1_555 1_555
O16_3 Co5_11 1_555 1_555
Co5 O5_15 1_555 1_555
C2_20 O2_20 1_555 1_555
C5_20 C7_20 1_555 1_555
C8_20 O9_20 1_555 1_555
O12_5 C6_20 1_555 1_555
O15_14 Co8 1_555 1_555
Co5_3 O1_21 1_555 1_555
O1_21 C1_21 1_555 1_555
C1_21 H1_21 1_555 1_555
C2_21 C1_21 1_555 1_555
O2_21 Co5_3 1_555 1_555
O3_21 C2_21 1_555 1_555
C3_21 C1_21 1_555 1_555
H2_21 C3_21 1_555 1_555
C4_21 C3_21 1_555 1_555
O13_4 C4_21 1_555 1_555
O5_16 C4_21 1_555 1_555
C5_21 C3_21 1_555 1_555
H3_21 C5_21 1_555 1_555
C6_21 C5_21 1_555 1_555
O12_4 C6_21 1_555 1_555
O14_11 C6_21 1_555 1_555
C7_21 O1_21 1_555 1_555
H4_21 C7_21 1_555 1_555
C8_21 C7_21 1_555 1_555
O15_8 C8_21 1_555 1_555
O9_21 Co5_3 1_555 1_555
O16_11 Co5_3 1_555 1_555
Co5_6 O5_16 1_555 1_555
C2_21 O2_21 1_555 1_555
C5_21 C7_21 1_555 1_555
C8_21 O9_21 1_555 1_555
Co5_6 O1_22 1_555 1_555
Co3_5 O3_22 1_555 1_555
O1_22 C1_22 1_555 1_555
C1_22 H1_22 1_555 1_555
C2_22 C1_22 1_555 1_555
O2_22 Co5_6 1_555 1_555
O3_22 C2_22 1_555 1_555
C3_22 C1_22 1_555 1_555
H2_22 C3_22 1_555 1_555
C4_22 C3_22 1_555 1_555
O13_2 C4_22 1_555 1_555
O11_7 C4_22 1_555 1_555
C5_22 C3_22 1_555 1_555
H3_22 C5_22 1_555 1_555
C6_22 C5_22 1_555 1_555
O12_2 C6_22 1_555 1_555
O7_12 C6_22 1_555 1_555
C7_22 O1_22 1_555 1_555
H4_22 C7_22 1_555 1_555
C8_22 C7_22 1_555 1_555
O15_13 C8_22 1_555 1_555
O9_22 Co5_6 1_555 1_555
O16_4 Co5_6 1_555 1_555
O14_12 Co3_5 1_555 1_555
Co3 O7_12 1_555 1_555
C2_22 O2_22 1_555 1_555
C5_22 C7_22 1_555 1_555
C8_22 O9_22 1_555 1_555
Co5_5 O1_23 1_555 1_555
O1_23 C1_23 1_555 1_555
C1_23 H1_23 1_555 1_555
C2_23 C1_23 1_555 1_555
O2_23 Co5_5 1_555 1_555
O3_23 C2_23 1_555 1_555
C3_23 C1_23 1_555 1_555
C4_23 C3_23 1_555 1_555
O13_8 C4_23 1_555 1_555
O11_8 C4_23 1_555 1_555
C5_23 C3_23 1_555 1_555
C7_23 O1_23 1_555 1_555
H4_23 C7_23 1_555 1_555
C8_23 C7_23 1_555 1_555
O15_14 C8_23 1_555 1_555
O9_23 Co5_5 1_555 1_555
O16 Co5_5 1_555 1_555
C2_23 O2_23 1_555 1_555
C5_23 C7_23 1_555 1_555
C8_23 O9_23 1_555 1_555
O12_8 C6_23 1_555 1_555
Co5 O1_24 1_555 1_555
O1_24 C1_24 1_555 1_555
C1_24 H1_24 1_555 1_555
C2_24 C1_24 1_555 1_555
O2_24 Co5 1_555 1_555
O3_24 C2_24 1_555 1_555
C3_24 C1_24 1_555 1_555
H2_24 C3_24 1_555 1_555
C4_24 C3_24 1_555 1_555
O13_7 C4_24 1_555 1_555
O11_6 C4_24 1_555 1_555
C5_24 C3_24 1_555 1_555
H3_24 C5_24 1_555 1_555
C6_24 C5_24 1_555 1_555
O12_7 C6_24 1_555 1_555
O14_12 C6_24 1_555 1_555
C7_24 O1_24 1_555 1_555
H4_24 C7_24 1_555 1_555
C8_24 C7_24 1_555 1_555
O15_9 C8_24 1_555 1_555
O9_24 Co5 1_555 1_555
O16_5 Co5 1_555 1_555
C2_24 O2_24 1_555 1_555
C5_24 C7_24 1_555 1_555
C8_24 O9_24 1_555 1_555

#END
