
###############################################################################
#
# This file contains modified crystal structure data generated from the
# MOF subset of the Cambridge Structural Database (CSD) v543 
# hosted by the Cambridge Crystallographic Data Centre (CCDC).
#
# This work is licensed under the Creative Commons
# Attribution-NonCommercial-ShareAlike 4.0 International License.
# To view a copy of this license, visit
# http://creativecommons.org/licenses/by-nc-sa/4.0/
# or send a letter to
# Creative Commons, PO Box 1866, Mountain View, CA 94042, USA.
#
# CIF created using the CSD Python API on 29 September 2022
# The structure has been converted into the P1 space group
# The structure has a 3D framework
# The original CSD entry XAGCIS01 is in the cubic crystal system
# The framework has been calculated to contain at least 10.0% void space
# The void calculation uses a probe of radius 1.32A, grid spacing 0.4
#
###############################################################################

data_XAGCIS01
_chemical_formula_moiety         '(C192 H186 Co44 O260)n'
_symmetry_cell_setting           triclinic
_symmetry_space_group_name_H-M   'P 1'
_symmetry_Int_Tables_number      1
_space_group_name_Hall           'P 1'
loop_
_symmetry_equiv_pos_site_id
_symmetry_equiv_pos_as_xyz
1 x,y,z
_cell_length_a                   20.5213(3)
_cell_length_b                   20.5213(3)
_cell_length_c                   20.5213(3)
_cell_angle_alpha                90
_cell_angle_beta                 90
_cell_angle_gamma                90
_cell_volume                     8642.01
loop_
_atom_site_label
_atom_site_type_symbol
_atom_site_fract_x
_atom_site_fract_y
_atom_site_fract_z
Co1 Co 0.161283(16) 0.398382(15) 0.143147(16)
Co2 Co 0.005970(16) 0.561090(16) 0.275850(16)
O1 O 0.12703(8) 0.33098(8) 0.21618(8)
C1 C 0.09100(12) 0.36613(11) 0.26528(11)
H1 H 0.1210 0.3777 0.3006
C2 C 0.06148(12) 0.42908(12) 0.23797(12)
O2 O 0.08094(10) 0.44835(9) 0.18296(9)
O3 O 0.02264(12) 0.45859(10) 0.27384(11)
C3 C 0.04149(12) 0.31667(11) 0.29165(11)
H2 H 0.0025 0.3392 0.3076
C4 C 0.07412(12) 0.27914(12) 0.34697(12)
O4 O 0.07094(14) 0.30597(11) 0.40146(10)
O5 O 0.10329(10) 0.22733(10) 0.33465(9)
C5 C 0.02494(11) 0.27608(11) 0.23090(11)
O7 O 0.01928(10) 0.15960(9) 0.21912(10)
C7 C 0.08773(12) 0.27833(11) 0.19011(11)
H4 H 0.1113 0.2371 0.1950
C8 C 0.07396(12) 0.29037(13) 0.11825(12)
O8 O 0.04253(11) 0.24655(11) 0.08958(9)
O9 O 0.09358(10) 0.34213(9) 0.09193(9)
O10 O 0.17272(9) 0.46690(9) 0.06763(8)
H5 H 0.1465 0.5052 0.0765
H6 H 0.1583 0.4483 0.0266
O12 O 0.33098(8) 0.21618(8) 0.12703(8)
C9 C 0.36613(11) 0.26528(11) 0.09100(12)
H9 H 0.3777 0.3006 0.1210
C10 C 0.42908(12) 0.23797(12) 0.06148(12)
O13 O 0.44835(9) 0.18296(9) 0.08094(10)
O14 O 0.45859(10) 0.27384(11) 0.02264(12)
C11 C 0.31667(11) 0.29165(11) 0.04149(12)
H10 H 0.3392 0.3076 0.0025
C12 C 0.27914(12) 0.34697(12) 0.07412(12)
O15 O 0.30597(11) 0.40146(10) 0.07094(14)
O16 O 0.22733(10) 0.33465(9) 0.10329(10)
C13 C 0.27608(11) 0.23090(11) 0.02494(11)
O18 O 0.15960(9) 0.21912(10) 0.01928(10)
C15 C 0.27833(11) 0.19011(11) 0.08773(12)
H12 H 0.2371 0.1950 0.1113
C16 C 0.29037(13) 0.11825(12) 0.07396(12)
O19 O 0.24655(11) 0.08958(9) 0.04253(11)
O20 O 0.34213(9) 0.09193(9) 0.09358(10)
O21 O 0.28382(8) 0.62703(8) 0.33098(8)
C17 C 0.23472(11) 0.59100(12) 0.36613(11)
H13 H 0.1994 0.6210 0.3777
C18 C 0.26203(12) 0.56148(12) 0.42908(12)
O22 O 0.31704(9) 0.58094(10) 0.44835(9)
O23 O 0.22616(11) 0.52264(12) 0.45859(10)
C19 C 0.20835(11) 0.54149(12) 0.31667(11)
H14 H 0.1924 0.5025 0.3392
C20 C 0.15303(12) 0.57412(12) 0.27914(12)
O24 O 0.09854(10) 0.57094(14) 0.30597(11)
O25 O 0.16535(9) 0.60329(10) 0.22733(10)
C21 C 0.26910(11) 0.52494(11) 0.27608(11)
H15 H 0.2934 0.4916 0.3002
C22 C 0.25367(12) 0.49635(12) 0.20866(12)
O26 O 0.21496(11) 0.44877(10) 0.20979(10)
O27 O 0.28088(10) 0.51928(10) 0.15960(9)
C23 C 0.30989(11) 0.58773(12) 0.27833(11)
H16 H 0.3050 0.6113 0.2371
C24 C 0.38175(12) 0.57396(12) 0.29037(13)
O28 O 0.41042(9) 0.54253(11) 0.24655(11)
O29 O 0.40807(9) 0.59358(10) 0.34213(9)
Co3 Co 0.398382(15) 0.143147(16) 0.161283(16)
Co4 Co 0.356853(16) 0.661283(16) 0.398382(15)
Co5 Co 0.561090(16) 0.275850(16) 0.005970(16)
Co6 Co 0.224150(16) 0.505970(16) 0.561090(16)
O30 O 0.03310(9) 0.56763(8) 0.17272(9)
H18 H 0.0517 0.5266 0.1583
O31 O 0.46690(9) 0.06763(8) 0.17272(9)
H19 H 0.5052 0.0765 0.1465
H20 H 0.4483 0.0266 0.1583
O33 O 0.1256(2) 0.48464(14) 0.54810(19)
H23 H 0.0958 0.4949 0.5806
H24 H 0.1116 0.4649 0.5098
Co7 Co 0.061090(16) 0.275850(16) 0.494030(16)
Co8 Co 0.143147(16) 0.161283(16) 0.398382(15)
Co12 Co 0.275850(16) 0.494030(16) 0.061090(16)
Co15 Co 0.101618(15) 0.643147(16) 0.161283(16)
Co16 Co 0.505970(16) 0.561090(16) 0.224150(16)
O36 O 0.33465(9) 0.10329(10) 0.22733(10)
O37 O 0.44877(10) 0.20979(10) 0.21496(11)
O38 O 0.39671(10) 0.72733(10) 0.33465(9)
O39 O 0.29021(10) 0.71496(11) 0.44877(10)
O40 O 0.43237(8) 0.67272(9) 0.46690(9)
O41 O 0.57094(14) 0.30597(11) 0.09854(10)
O44 O 0.56763(8) 0.17272(9) 0.03310(9)
O45 O 0.19403(11) 0.59854(10) 0.57094(14)
O46 O 0.21912(10) 0.48072(10) 0.65960(9)
O47 O 0.24655(11) 0.41042(9) 0.54253(11)
O48 O 0.32728(9) 0.53310(9) 0.56763(8)
Co17 Co 0.494030(16) 0.061090(16) 0.275850(16)
H25 H 0.4235 0.6465 0.5052
H26 H 0.4734 0.6583 0.4483
H28 H 0.5266 0.1583 0.0517
H29 H 0.3535 0.4948 0.5765
H30 H 0.3417 0.5517 0.5266
H11 H 0.3002 0.2066 0.9916
C14 C 0.20866(12) 0.24633(12) 0.99635(12)
O17 O 0.20979(10) 0.28504(11) 0.94877(10)
O32 O 0.54810(19) 0.3744(2) 0.98464(14)
H21 H 0.5806 0.4042 0.9949
H22 H 0.5098 0.3884 0.9649
Co11 Co 0.061090(16) 0.224150(16) 0.994030(16)
Co13 Co 0.143147(16) 0.338717(16) 0.898382(15)
O42 O 0.65960(9) 0.28088(10) 0.98072(10)
O43 O 0.54253(11) 0.25345(11) 0.91042(9)
H27 H 0.5765 0.1465 0.9948
Co14 Co 0.224150(16) 0.994030(16) 0.061090(16)
H3 H 0.9916 0.3002 0.2066
C6 C 0.99635(12) 0.20866(12) 0.24633(12)
O6 O 0.94877(10) 0.20979(10) 0.28504(11)
O11 O 0.98464(14) 0.54810(19) 0.3744(2)
H7 H 0.9949 0.5806 0.4042
H8 H 0.9649 0.5098 0.3884
H17 H 0.9948 0.5765 0.1465
O34 O 0.98072(10) 0.65960(9) 0.28088(10)
O35 O 0.91042(9) 0.54253(11) 0.25345(11)
Co9 Co 0.898382(15) 0.143147(16) 0.338717(16)
Co10 Co 0.994030(16) 0.061090(16) 0.224150(16)
Co2_2 Co 0.275850(16) 0.005970(16) 0.561090(16)
O1_2 O 0.21618(8) 0.12703(8) 0.33098(8)
C1_2 C 0.26528(11) 0.09100(12) 0.36613(11)
H1_2 H 0.3006 0.1210 0.3777
C2_2 C 0.23797(12) 0.06148(12) 0.42908(12)
O2_2 O 0.18296(9) 0.08094(10) 0.44835(9)
O3_2 O 0.27384(11) 0.02264(12) 0.45859(10)
C3_2 C 0.29165(11) 0.04149(12) 0.31667(11)
H2_2 H 0.3076 0.0025 0.3392
C4_2 C 0.34697(12) 0.07412(12) 0.27914(12)
O4_2 O 0.40146(10) 0.07094(14) 0.30597(11)
C5_2 C 0.23090(11) 0.02494(11) 0.27608(11)
O7_2 O 0.21912(10) 0.01928(10) 0.15960(9)
C7_2 C 0.19011(11) 0.08773(12) 0.27833(11)
H4_2 H 0.1950 0.1113 0.2371
C8_2 C 0.11825(12) 0.07396(12) 0.29037(13)
O8_2 O 0.08958(9) 0.04253(11) 0.24655(11)
O9_2 O 0.09193(9) 0.09358(10) 0.34213(9)
O10_2 O 0.06763(8) 0.17272(9) 0.46690(9)
H5_2 H 0.0765 0.1465 0.5052
H6_2 H 0.0266 0.1583 0.4483
O21_2 O 0.33098(8) 0.28382(8) 0.62703(8)
C17_2 C 0.36613(11) 0.23472(11) 0.59100(12)
H13_2 H 0.3777 0.1994 0.6210
C18_2 C 0.42908(12) 0.26203(12) 0.56148(12)
O22_2 O 0.44835(9) 0.31704(9) 0.58094(10)
O23_2 O 0.45859(10) 0.22616(11) 0.52264(12)
C19_2 C 0.31667(11) 0.20835(11) 0.54149(12)
H14_2 H 0.3392 0.1924 0.5025
C20_2 C 0.27914(12) 0.15303(12) 0.57412(12)
O24_2 O 0.30597(11) 0.09854(10) 0.57094(14)
O25_2 O 0.22733(10) 0.16535(9) 0.60329(10)
C21_2 C 0.27608(11) 0.26910(11) 0.52494(11)
H15_2 H 0.3002 0.2934 0.4916
C22_2 C 0.20866(12) 0.25367(12) 0.49635(12)
O26_2 O 0.20979(10) 0.21496(11) 0.44877(10)
O27_2 O 0.15960(9) 0.28088(10) 0.51928(10)
C23_2 C 0.27833(11) 0.30989(11) 0.58773(12)
H16_2 H 0.2371 0.3050 0.6113
C24_2 C 0.29037(13) 0.38175(12) 0.57396(12)
O29_2 O 0.34213(9) 0.40807(9) 0.59358(10)
Co4_2 Co 0.398382(15) 0.356853(16) 0.661283(16)
Co6_2 Co 0.561090(16) 0.224150(16) 0.505970(16)
O30_2 O 0.17272(9) 0.03310(9) 0.56763(8)
H18_2 H 0.1583 0.0517 0.5266
O33_2 O 0.54810(19) 0.1256(2) 0.48464(14)
H23_2 H 0.5806 0.0958 0.4949
H24_2 H 0.5098 0.1116 0.4649
Co15_2 Co 0.161283(16) 0.101618(15) 0.643147(16)
O38_2 O 0.33465(9) 0.39671(10) 0.72733(10)
O39_2 O 0.44877(10) 0.29021(10) 0.71496(11)
O40_2 O 0.46690(9) 0.43237(8) 0.67272(9)
O45_2 O 0.57094(14) 0.19403(11) 0.59854(10)
O46_2 O 0.65960(9) 0.21912(10) 0.48072(10)
O47_2 O 0.54253(11) 0.24655(11) 0.41042(9)
O48_2 O 0.56763(8) 0.32728(9) 0.53310(9)
H25_2 H 0.5052 0.4235 0.6465
H26_2 H 0.4483 0.4734 0.6583
H29_2 H 0.5765 0.3535 0.4948
H30_2 H 0.5266 0.3417 0.5517
H3_2 H 0.2066 0.9916 0.3002
C6_2 C 0.24633(12) 0.99635(12) 0.20866(12)
O6_2 O 0.28504(11) 0.94877(10) 0.20979(10)
O11_2 O 0.3744(2) 0.98464(14) 0.54810(19)
H7_2 H 0.4042 0.9949 0.5806
H8_2 H 0.3884 0.9649 0.5098
H17_2 H 0.1465 0.9948 0.5765
O34_2 O 0.28088(10) 0.98072(10) 0.65960(9)
O35_2 O 0.25345(11) 0.91042(9) 0.54253(11)
Co9_2 Co 0.338717(16) 0.898382(15) 0.143147(16)
O21_3 O 0.62703(8) 0.33098(8) 0.28382(8)
C17_3 C 0.59100(12) 0.36613(11) 0.23472(11)
H13_3 H 0.6210 0.3777 0.1994
C18_3 C 0.56148(12) 0.42908(12) 0.26203(12)
O22_3 O 0.58094(10) 0.44835(9) 0.31704(9)
O23_3 O 0.52264(12) 0.45859(10) 0.22616(11)
C19_3 C 0.54149(12) 0.31667(11) 0.20835(11)
H14_3 H 0.5025 0.3392 0.1924
C20_3 C 0.57412(12) 0.27914(12) 0.15303(12)
O25_3 O 0.60329(10) 0.22733(10) 0.16535(9)
C21_3 C 0.52494(11) 0.27608(11) 0.26910(11)
H15_3 H 0.4916 0.3002 0.2934
C22_3 C 0.49635(12) 0.20866(12) 0.25367(12)
O27_3 O 0.51928(10) 0.15960(9) 0.28088(10)
C23_3 C 0.58773(12) 0.27833(11) 0.30989(11)
H16_3 H 0.6113 0.2371 0.3050
C24_3 C 0.57396(12) 0.29037(13) 0.38175(12)
O29_3 O 0.59358(10) 0.34213(9) 0.40807(9)
Co4_3 Co 0.661283(16) 0.398382(15) 0.356853(16)
O33_3 O 0.48464(14) 0.54810(19) 0.1256(2)
H23_3 H 0.4949 0.5806 0.0958
H24_3 H 0.4649 0.5098 0.1116
Co15_3 Co 0.643147(16) 0.161283(16) 0.101618(15)
O38_3 O 0.72733(10) 0.33465(9) 0.39671(10)
O39_3 O 0.71496(11) 0.44877(10) 0.29021(10)
O40_3 O 0.67272(9) 0.46690(9) 0.43237(8)
O45_3 O 0.59854(10) 0.57094(14) 0.19403(11)
O46_3 O 0.48072(10) 0.65960(9) 0.21912(10)
O48_3 O 0.53310(9) 0.56763(8) 0.32728(9)
H25_3 H 0.6465 0.5052 0.4235
H26_3 H 0.6583 0.4483 0.4734
H29_3 H 0.4948 0.5765 0.3535
H30_3 H 0.5517 0.5266 0.3417
O33_4 O 0.3744(2) 0.51536(14) 0.04810(19)
H23_4 H 0.4042 0.5051 0.0806
H24_4 H 0.3884 0.5351 0.0098
O47_3 O 0.25345(11) 0.58958(9) 0.04253(11)
H25_4 H 0.0765 0.3535 0.0052
Co1_2 Co 0.338717(16) 0.601618(15) 0.643147(16)
Co2_3 Co 0.494030(16) 0.438910(16) 0.775850(16)
O1_3 O 0.37297(8) 0.66902(8) 0.71618(8)
C1_3 C 0.40900(12) 0.63387(11) 0.76528(11)
H1_3 H 0.3790 0.6223 0.8006
C2_3 C 0.43852(12) 0.57092(12) 0.73797(12)
O2_3 O 0.41906(10) 0.55165(9) 0.68296(9)
O3_3 O 0.47736(12) 0.54141(10) 0.77384(11)
C3_3 C 0.45851(12) 0.68333(11) 0.79165(11)
H2_3 H 0.4975 0.6608 0.8076
C4_3 C 0.42588(12) 0.72086(12) 0.84697(12)
O4_3 O 0.42906(14) 0.69403(11) 0.90146(10)
O5_2 O 0.39671(10) 0.77267(10) 0.83465(9)
C5_3 C 0.47506(11) 0.72392(11) 0.73090(11)
H3_3 H 0.5084 0.6998 0.7066
C6_3 C 0.50365(12) 0.79134(12) 0.74633(12)
O6_3 O 0.55123(10) 0.79021(10) 0.78504(11)
O7_3 O 0.48072(10) 0.84040(9) 0.71912(10)
C7_3 C 0.41227(12) 0.72167(11) 0.69011(11)
H4_3 H 0.3887 0.7629 0.6950
C8_3 C 0.42604(12) 0.70963(13) 0.61825(12)
O8_3 O 0.45747(11) 0.75345(11) 0.58958(9)
O9_3 O 0.40642(10) 0.65787(9) 0.59193(9)
O11_3 O 0.51536(14) 0.45190(19) 0.8744(2)
H7_3 H 0.5051 0.4194 0.9042
H8_3 H 0.5351 0.4902 0.8884
O12_2 O 0.16902(8) 0.78382(8) 0.62703(8)
C9_2 C 0.13387(11) 0.73472(11) 0.59100(12)
H9_2 H 0.1223 0.6994 0.6210
C10_2 C 0.07092(12) 0.76203(12) 0.56148(12)
O13_2 O 0.05165(9) 0.81704(9) 0.58094(10)
O14_2 O 0.04141(10) 0.72616(11) 0.52264(12)
C11_2 C 0.18333(11) 0.70835(11) 0.54149(12)
H10_2 H 0.1608 0.6924 0.5025
C12_2 C 0.22086(12) 0.65303(12) 0.57412(12)
O16_2 O 0.27267(10) 0.66535(9) 0.60329(10)
C13_2 C 0.22392(11) 0.76910(11) 0.52494(11)
H11_2 H 0.1998 0.7934 0.4916
C14_2 C 0.29134(12) 0.75367(12) 0.49635(12)
O18_2 O 0.34040(9) 0.78088(10) 0.51928(10)
C15_2 C 0.22167(11) 0.80989(11) 0.58773(12)
H12_2 H 0.2629 0.8050 0.6113
C16_2 C 0.20963(13) 0.88175(12) 0.57396(12)
O20_2 O 0.15787(9) 0.90807(9) 0.59358(10)
O21_4 O 0.21618(8) 0.37297(8) 0.83098(8)
C17_4 C 0.26528(11) 0.40900(12) 0.86613(11)
H13_4 H 0.3006 0.3790 0.8777
C18_4 C 0.23797(12) 0.43852(12) 0.92908(12)
O22_4 O 0.18296(9) 0.41906(10) 0.94835(9)
O23_4 O 0.27384(11) 0.47736(12) 0.95859(10)
C19_4 C 0.29165(11) 0.45851(12) 0.81667(11)
H14_4 H 0.3076 0.4975 0.8392
C20_4 C 0.34697(12) 0.42588(12) 0.77914(12)
O24_3 O 0.40146(10) 0.42906(14) 0.80597(11)
C21_4 C 0.23090(11) 0.47506(11) 0.77608(11)
H15_4 H 0.2066 0.5084 0.8002
C22_4 C 0.24633(12) 0.50365(12) 0.70866(12)
O26_3 O 0.28504(11) 0.55123(10) 0.70979(10)
C23_4 C 0.19011(11) 0.41227(12) 0.77833(11)
H16_4 H 0.1950 0.3887 0.7371
C24_4 C 0.11825(12) 0.42604(12) 0.79037(13)
O28_2 O 0.08958(9) 0.45747(11) 0.74655(11)
O29_4 O 0.09193(9) 0.40642(10) 0.84213(9)
Co3_2 Co 0.101618(15) 0.856853(16) 0.661283(16)
O31_2 O 0.03310(9) 0.93237(8) 0.67272(9)
H20_2 H 0.0517 0.9734 0.6583
O34_3 O 0.51928(10) 0.34040(9) 0.78088(10)
O35_3 O 0.58958(9) 0.45747(11) 0.75345(11)
Co7_2 Co 0.438910(16) 0.724150(16) 0.994030(16)
Co8_2 Co 0.356853(16) 0.838717(16) 0.898382(15)
Co9_3 Co 0.601618(15) 0.856853(16) 0.838717(16)
Co10_2 Co 0.505970(16) 0.938910(16) 0.724150(16)
Co11_2 Co 0.438910(16) 0.775850(16) 0.494030(16)
O36_2 O 0.16535(9) 0.89671(10) 0.72733(10)
O37_2 O 0.05123(10) 0.79021(10) 0.71496(11)
O38_4 O 0.10329(10) 0.27267(10) 0.83465(9)
O40_4 O 0.06763(8) 0.32728(9) 0.96690(9)
Co17_2 Co 0.005970(16) 0.938910(16) 0.775850(16)
H26_4 H 0.0266 0.3417 0.9483
Co5_2 Co 0.938910(16) 0.724150(16) 0.505970(16)
H19_2 H 0.9948 0.9235 0.6465
O32_2 O 0.95190(19) 0.6256(2) 0.48464(14)
H21_2 H 0.9194 0.5958 0.4949
H22_2 H 0.9902 0.6116 0.4649
Co16_2 Co 0.994030(16) 0.438910(16) 0.724150(16)
O41_2 O 0.92906(14) 0.69403(11) 0.59854(10)
O42_2 O 0.84040(9) 0.71912(10) 0.48072(10)
O43_2 O 0.95747(11) 0.74655(11) 0.41042(9)
O44_2 O 0.93237(8) 0.82728(9) 0.53310(9)
H27_2 H 0.9235 0.8535 0.4948
H28_2 H 0.9734 0.8417 0.5517
O11_4 O 0.01536(14) 0.04810(19) 0.1256(2)
H7_4 H 0.0051 0.0806 0.0958
H8_4 H 0.0351 0.0098 0.1116
H17_3 H 0.0052 0.0765 0.3535
H3_4 H 0.0084 0.8002 0.2934
C6_4 C 0.00365(12) 0.70866(12) 0.25367(12)
O6_4 O 0.05123(10) 0.70979(10) 0.21496(11)
H5_3 H 0.8535 0.0052 0.4235
O21_5 O 0.71618(8) 0.12703(8) 0.16902(8)
C17_5 C 0.76528(11) 0.09100(12) 0.13387(11)
H13_5 H 0.8006 0.1210 0.1223
C18_5 C 0.73797(12) 0.06148(12) 0.07092(12)
O22_5 O 0.68296(9) 0.08094(10) 0.05165(9)
O23_5 O 0.77384(11) 0.02264(12) 0.04141(10)
C19_5 C 0.79165(11) 0.04149(12) 0.18333(11)
H14_5 H 0.8076 0.0025 0.1608
C20_5 C 0.84697(12) 0.07412(12) 0.22086(12)
O24_4 O 0.90146(10) 0.07094(14) 0.19403(11)
O25_4 O 0.83465(9) 0.10329(10) 0.27267(10)
C21_5 C 0.73090(11) 0.02494(11) 0.22392(11)
O27_4 O 0.71912(10) 0.01928(10) 0.34040(9)
C23_5 C 0.69011(11) 0.08773(12) 0.22167(11)
H16_5 H 0.6950 0.1113 0.2629
C24_5 C 0.61825(12) 0.07396(12) 0.20963(13)
O28_3 O 0.58958(9) 0.04253(11) 0.25345(11)
O29_5 O 0.59193(9) 0.09358(10) 0.15787(9)
O30_3 O 0.96690(9) 0.06763(8) 0.32728(9)
H18_3 H 0.9483 0.0266 0.3417
O39_4 O 0.70979(10) 0.21496(11) 0.05123(10)
Co6_3 Co 0.775850(16) 0.005970(16) 0.938910(16)
O45_4 O 0.80597(11) 0.09854(10) 0.92906(14)
O48_4 O 0.67272(9) 0.03310(9) 0.93237(8)
H30_4 H 0.6583 0.0517 0.9734
Co1_3 Co 0.838717(16) 0.898382(15) 0.356853(16)
O1_4 O 0.87297(8) 0.83098(8) 0.28382(8)
C1_4 C 0.90900(12) 0.86613(11) 0.23472(11)
H1_4 H 0.8790 0.8777 0.1994
C2_4 C 0.93852(12) 0.92908(12) 0.26203(12)
O2_4 O 0.91906(10) 0.94835(9) 0.31704(9)
O3_4 O 0.97736(12) 0.95859(10) 0.22616(11)
C3_4 C 0.95851(12) 0.81667(11) 0.20835(11)
H2_4 H 0.9975 0.8392 0.1924
C4_4 C 0.92588(12) 0.77914(12) 0.15303(12)
O4_4 O 0.92906(14) 0.80597(11) 0.09854(10)
O5_3 O 0.89671(10) 0.72733(10) 0.16535(9)
C5_4 C 0.97506(11) 0.77608(11) 0.26910(11)
C7_4 C 0.91227(12) 0.77833(11) 0.30989(11)
H4_4 H 0.8887 0.7371 0.3050
C8_4 C 0.92604(12) 0.79037(13) 0.38175(12)
O9_4 O 0.90642(10) 0.84213(9) 0.40807(9)
O10_3 O 0.82728(9) 0.96690(9) 0.43237(8)
H6_3 H 0.8417 0.9483 0.4734
O12_3 O 0.66902(8) 0.71618(8) 0.37297(8)
C9_3 C 0.63387(11) 0.76528(11) 0.40900(12)
H9_3 H 0.6223 0.8006 0.3790
C10_3 C 0.57092(12) 0.73797(12) 0.43852(12)
O13_3 O 0.55165(9) 0.68296(9) 0.41906(10)
O14_3 O 0.54141(10) 0.77384(11) 0.47736(12)
C11_3 C 0.68333(11) 0.79165(11) 0.45851(12)
H10_3 H 0.6608 0.8076 0.4975
C12_3 C 0.72086(12) 0.84697(12) 0.42588(12)
O15_2 O 0.69403(11) 0.90146(10) 0.42906(14)
O16_3 O 0.77267(10) 0.83465(9) 0.39671(10)
C13_3 C 0.72392(11) 0.73090(11) 0.47506(11)
H11_3 H 0.6998 0.7066 0.5084
C14_3 C 0.79134(12) 0.74633(12) 0.50365(12)
O17_2 O 0.79021(10) 0.78504(11) 0.55123(10)
C15_3 C 0.72167(11) 0.69011(11) 0.41227(12)
H12_3 H 0.7629 0.6950 0.3887
C16_3 C 0.70963(13) 0.61825(12) 0.42604(12)
O19_2 O 0.75345(11) 0.58958(9) 0.45747(11)
O20_3 O 0.65787(9) 0.59193(9) 0.40642(10)
H15_5 H 0.7066 0.9916 0.1998
C22_5 C 0.74633(12) 0.99635(12) 0.29134(12)
O26_4 O 0.78504(11) 0.94877(10) 0.29021(10)
Co3_3 Co 0.601618(15) 0.643147(16) 0.338717(16)
O32_3 O 0.45190(19) 0.8744(2) 0.51536(14)
H21_3 H 0.4194 0.9042 0.5051
H22_3 H 0.4902 0.8884 0.5351
Co7_3 Co 0.938910(16) 0.775850(16) 0.005970(16)
Co8_3 Co 0.856853(16) 0.661283(16) 0.101618(15)
Co12_2 Co 0.724150(16) 0.994030(16) 0.438910(16)
Co13_2 Co 0.856853(16) 0.838717(16) 0.601618(15)
Co14_2 Co 0.775850(16) 0.494030(16) 0.438910(16)
O36_3 O 0.66535(9) 0.60329(10) 0.27267(10)
O37_3 O 0.55123(10) 0.70979(10) 0.28504(11)
O41_3 O 0.42906(14) 0.80597(11) 0.40146(10)
O33_5 O 0.8744(2) 0.98464(14) 0.95190(19)
H23_5 H 0.9042 0.9949 0.9194
H24_5 H 0.8884 0.9649 0.9902
O46_4 O 0.78088(10) 0.98072(10) 0.84040(9)
O47_4 O 0.75345(11) 0.91042(9) 0.95747(11)
H29_4 H 0.6465 0.9948 0.9235
O32_4 O 0.04810(19) 0.1256(2) 0.01536(14)
H21_4 H 0.0806 0.0958 0.0051
H22_4 H 0.0098 0.1116 0.0351
H19_3 H 0.0052 0.4235 0.8535
O41_4 O 0.07094(14) 0.19403(11) 0.90146(10)
H11_4 H 0.8002 0.2934 0.0084
C14_4 C 0.70866(12) 0.25367(12) 0.00365(12)
Co1_4 Co 0.661283(16) 0.101618(15) 0.856853(16)
O1_5 O 0.62703(8) 0.16902(8) 0.78382(8)
C1_5 C 0.59100(12) 0.13387(11) 0.73472(11)
H1_5 H 0.6210 0.1223 0.6994
C2_5 C 0.56148(12) 0.07092(12) 0.76203(12)
O2_5 O 0.58094(10) 0.05165(9) 0.81704(9)
O3_5 O 0.52264(12) 0.04141(10) 0.72616(11)
C3_5 C 0.54149(12) 0.18333(11) 0.70835(11)
H2_5 H 0.5025 0.1608 0.6924
C4_5 C 0.57412(12) 0.22086(12) 0.65303(12)
O5_4 O 0.60329(10) 0.27267(10) 0.66535(9)
C5_5 C 0.52494(11) 0.22392(11) 0.76910(11)
H3_5 H 0.4916 0.1998 0.7934
C6_5 C 0.49635(12) 0.29134(12) 0.75367(12)
C7_5 C 0.58773(12) 0.22167(11) 0.80989(11)
H4_5 H 0.6113 0.2629 0.8050
C8_5 C 0.57396(12) 0.20963(13) 0.88175(12)
O9_5 O 0.59358(10) 0.15787(9) 0.90807(9)
O12_4 O 0.83098(8) 0.28382(8) 0.87297(8)
C9_4 C 0.86613(11) 0.23472(11) 0.90900(12)
H9_4 H 0.8777 0.1994 0.8790
C10_4 C 0.92908(12) 0.26203(12) 0.93852(12)
O13_4 O 0.94835(9) 0.31704(9) 0.91906(10)
O14_4 O 0.95859(10) 0.22616(11) 0.97736(12)
C11_4 C 0.81667(11) 0.20835(11) 0.95851(12)
H10_4 H 0.8392 0.1924 0.9975
C12_4 C 0.77914(12) 0.15303(12) 0.92588(12)
O16_4 O 0.72733(10) 0.16535(9) 0.89671(10)
C13_4 C 0.77608(11) 0.26910(11) 0.97506(11)
C15_4 C 0.77833(11) 0.30989(11) 0.91227(12)
H12_4 H 0.7371 0.3050 0.8887
C16_4 C 0.79037(13) 0.38175(12) 0.92604(12)
O19_3 O 0.74655(11) 0.41042(9) 0.95747(11)
O20_4 O 0.84213(9) 0.40807(9) 0.90642(10)
H15_6 H 0.7934 0.0084 0.6998
C22_6 C 0.75367(12) 0.00365(12) 0.79134(12)
O26_5 O 0.71496(11) 0.05123(10) 0.79021(10)
Co3_4 Co 0.898382(15) 0.356853(16) 0.838717(16)
O31_3 O 0.96690(9) 0.43237(8) 0.82728(9)
H20_3 H 0.9483 0.4734 0.8417
O33_6 O 0.6256(2) 0.01536(14) 0.45190(19)
H23_6 H 0.5958 0.0051 0.4194
H24_6 H 0.6116 0.0351 0.4902
Co8_4 Co 0.643147(16) 0.338717(16) 0.601618(15)
Co14_3 Co 0.724150(16) 0.505970(16) 0.938910(16)
O36_4 O 0.83465(9) 0.39671(10) 0.77267(10)
O37_4 O 0.94877(10) 0.29021(10) 0.78504(11)
O47_5 O 0.74655(11) 0.08958(9) 0.45747(11)
O11_5 O 0.48464(14) 0.95190(19) 0.6256(2)
H7_5 H 0.4949 0.9194 0.5958
H8_5 H 0.4649 0.9902 0.6116
O21_6 O 0.78382(8) 0.87297(8) 0.66902(8)
C17_6 C 0.73472(11) 0.90900(12) 0.63387(11)
H13_6 H 0.6994 0.8790 0.6223
C18_6 C 0.76203(12) 0.93852(12) 0.57092(12)
O22_6 O 0.81704(9) 0.91906(10) 0.55165(9)
O23_6 O 0.72616(11) 0.97736(12) 0.54141(10)
C19_6 C 0.70835(11) 0.95851(12) 0.68333(11)
H14_6 H 0.6924 0.9975 0.6608
C20_6 C 0.65303(12) 0.92588(12) 0.72086(12)
O24_5 O 0.59854(10) 0.92906(14) 0.69403(11)
O25_5 O 0.66535(9) 0.89671(10) 0.77267(10)
C21_6 C 0.76910(11) 0.97506(11) 0.72392(11)
C23_6 C 0.80989(11) 0.91227(12) 0.72167(11)
H16_6 H 0.8050 0.8887 0.7629
C24_6 C 0.88175(12) 0.92604(12) 0.70963(13)
O28_4 O 0.91042(9) 0.95747(11) 0.75345(11)
O29_6 O 0.90807(9) 0.90642(10) 0.65787(9)
O30_4 O 0.53310(9) 0.93237(8) 0.82728(9)
H17_4 H 0.4948 0.9235 0.8535
H18_4 H 0.5517 0.9734 0.8417
O35_4 O 0.41042(9) 0.95747(11) 0.74655(11)
O38_5 O 0.89671(10) 0.77267(10) 0.66535(9)
O33_7 O 0.04810(19) 0.3744(2) 0.51536(14)
H23_7 H 0.0806 0.4042 0.5051
H24_7 H 0.0098 0.3884 0.5351
O47_6 O 0.04253(11) 0.25345(11) 0.58958(9)
O1_6 O 0.71618(8) 0.37297(8) 0.66902(8)
C1_6 C 0.76528(11) 0.40900(12) 0.63387(11)
H1_6 H 0.8006 0.3790 0.6223
C2_6 C 0.73797(12) 0.43852(12) 0.57092(12)
O2_6 O 0.68296(9) 0.41906(10) 0.55165(9)
O3_6 O 0.77384(11) 0.47736(12) 0.54141(10)
C3_6 C 0.79165(11) 0.45851(12) 0.68333(11)
H2_6 H 0.8076 0.4975 0.6608
C4_6 C 0.84697(12) 0.42588(12) 0.72086(12)
O4_5 O 0.90146(10) 0.42906(14) 0.69403(11)
C5_6 C 0.73090(11) 0.47506(11) 0.72392(11)
H3_6 H 0.7066 0.5084 0.6998
C6_6 C 0.74633(12) 0.50365(12) 0.79134(12)
O6_5 O 0.78504(11) 0.55123(10) 0.79021(10)
O7_4 O 0.71912(10) 0.48072(10) 0.84040(9)
C7_6 C 0.69011(11) 0.41227(12) 0.72167(11)
H4_6 H 0.6950 0.3887 0.7629
C8_6 C 0.61825(12) 0.42604(12) 0.70963(13)
O9_6 O 0.59193(9) 0.40642(10) 0.65787(9)
O11_6 O 0.8744(2) 0.51536(14) 0.45190(19)
H7_6 H 0.9042 0.5051 0.4194
H8_6 H 0.8884 0.5351 0.4902
O21_7 O 0.83098(8) 0.21618(8) 0.37297(8)
C17_7 C 0.86613(11) 0.26528(11) 0.40900(12)
H13_7 H 0.8777 0.3006 0.3790
C18_7 C 0.92908(12) 0.23797(12) 0.43852(12)
O22_7 O 0.94835(9) 0.18296(9) 0.41906(10)
O23_7 O 0.95859(10) 0.27384(11) 0.47736(12)
C19_7 C 0.81667(11) 0.29165(11) 0.45851(12)
H14_7 H 0.8392 0.3076 0.4975
C20_7 C 0.77914(12) 0.34697(12) 0.42588(12)
O24_6 O 0.80597(11) 0.40146(10) 0.42906(14)
C21_7 C 0.77608(11) 0.23090(11) 0.47506(11)
H15_7 H 0.8002 0.2066 0.5084
C22_7 C 0.70866(12) 0.24633(12) 0.50365(12)
O26_6 O 0.70979(10) 0.28504(11) 0.55123(10)
C23_7 C 0.77833(11) 0.19011(11) 0.41227(12)
H16_7 H 0.7371 0.1950 0.3887
C24_7 C 0.79037(13) 0.11825(12) 0.42604(12)
O29_7 O 0.84213(9) 0.09193(9) 0.40642(10)
O34_4 O 0.78088(10) 0.51928(10) 0.34040(9)
Co9_4 Co 0.838717(16) 0.601618(15) 0.856853(16)
O11_7 O 0.1256(2) 0.01536(14) 0.04810(19)
H7_7 H 0.0958 0.0051 0.0806
H8_7 H 0.1116 0.0351 0.0098
H17_5 H 0.3535 0.0052 0.0765
H3_7 H 0.2934 0.0084 0.8002
C6_7 C 0.25367(12) 0.00365(12) 0.70866(12)
O6_6 O 0.21496(11) 0.05123(10) 0.70979(10)
H5_4 H 0.4235 0.8535 0.0052
O21_8 O 0.16902(8) 0.71618(8) 0.12703(8)
C17_8 C 0.13387(11) 0.76528(11) 0.09100(12)
H13_8 H 0.1223 0.8006 0.1210
C18_8 C 0.07092(12) 0.73797(12) 0.06148(12)
O22_8 O 0.05165(9) 0.68296(9) 0.08094(10)
O23_8 O 0.04141(10) 0.77384(11) 0.02264(12)
C19_8 C 0.18333(11) 0.79165(11) 0.04149(12)
H14_8 H 0.1608 0.8076 0.0025
C20_8 C 0.22086(12) 0.84697(12) 0.07412(12)
O24_7 O 0.19403(11) 0.90146(10) 0.07094(14)
O25_6 O 0.27267(10) 0.83465(9) 0.10329(10)
C21_8 C 0.22392(11) 0.73090(11) 0.02494(11)
O27_5 O 0.34040(9) 0.71912(10) 0.01928(10)
C23_8 C 0.22167(11) 0.69011(11) 0.08773(12)
H16_8 H 0.2629 0.6950 0.1113
C24_8 C 0.20963(13) 0.61825(12) 0.07396(12)
O29_8 O 0.15787(9) 0.59193(9) 0.09358(10)
O30_5 O 0.32728(9) 0.96690(9) 0.06763(8)
H18_5 H 0.3417 0.9483 0.0266
O1_7 O 0.28382(8) 0.87297(8) 0.83098(8)
C1_7 C 0.23472(11) 0.90900(12) 0.86613(11)
H1_7 H 0.1994 0.8790 0.8777
C2_7 C 0.26203(12) 0.93852(12) 0.92908(12)
O2_7 O 0.31704(9) 0.91906(10) 0.94835(9)
O3_7 O 0.22616(11) 0.97736(12) 0.95859(10)
C3_7 C 0.20835(11) 0.95851(12) 0.81667(11)
H2_7 H 0.1924 0.9975 0.8392
C4_7 C 0.15303(12) 0.92588(12) 0.77914(12)
O4_6 O 0.09854(10) 0.92906(14) 0.80597(11)
C5_7 C 0.26910(11) 0.97506(11) 0.77608(11)
C7_7 C 0.30989(11) 0.91227(12) 0.77833(11)
H4_7 H 0.3050 0.8887 0.7371
C8_7 C 0.38175(12) 0.92604(12) 0.79037(13)
O9_7 O 0.40807(9) 0.90642(10) 0.84213(9)
O10_4 O 0.43237(8) 0.82728(9) 0.96690(9)
H6_4 H 0.4734 0.8417 0.9483
H15_8 H 0.1998 0.7066 0.9916
C22_8 C 0.29134(12) 0.74633(12) 0.99635(12)
O26_7 O 0.29021(10) 0.78504(11) 0.94877(10)
O48_5 O 0.93237(8) 0.67272(9) 0.03310(9)
H30_5 H 0.9734 0.6583 0.0517
O33_8 O 0.95190(19) 0.8744(2) 0.98464(14)
H23_8 H 0.9194 0.9042 0.9949
H24_8 H 0.9902 0.8884 0.9649
O46_5 O 0.84040(9) 0.78088(10) 0.98072(10)
O47_7 O 0.95747(11) 0.75345(11) 0.91042(9)
H29_5 H 0.9235 0.6465 0.9948
O1_8 O 0.78382(8) 0.62703(8) 0.16902(8)
C1_8 C 0.73472(11) 0.59100(12) 0.13387(11)
H1_8 H 0.6994 0.6210 0.1223
C2_8 C 0.76203(12) 0.56148(12) 0.07092(12)
O2_8 O 0.81704(9) 0.58094(10) 0.05165(9)
O3_8 O 0.72616(11) 0.52264(12) 0.04141(10)
C3_8 C 0.70835(11) 0.54149(12) 0.18333(11)
H2_8 H 0.6924 0.5025 0.1608
C4_8 C 0.65303(12) 0.57412(12) 0.22086(12)
C5_8 C 0.76910(11) 0.52494(11) 0.22392(11)
H3_8 H 0.7934 0.4916 0.1998
C6_8 C 0.75367(12) 0.49635(12) 0.29134(12)
C7_8 C 0.80989(11) 0.58773(12) 0.22167(11)
H4_8 H 0.8050 0.6113 0.2629
C8_8 C 0.88175(12) 0.57396(12) 0.20963(13)
O9_8 O 0.90807(9) 0.59358(10) 0.15787(9)
H15_9 H 0.6998 0.7934 0.0084
C22_9 C 0.79134(12) 0.75367(12) 0.00365(12)
O26_8 O 0.79021(10) 0.71496(11) 0.05123(10)
O33_9 O 0.45190(19) 0.6256(2) 0.01536(14)
H23_9 H 0.4194 0.5958 0.0051
H24_9 H 0.4902 0.6116 0.0351
O47_8 O 0.45747(11) 0.74655(11) 0.08958(9)
O11_8 O 0.6256(2) 0.48464(14) 0.95190(19)
H7_8 H 0.5958 0.4949 0.9194
H8_8 H 0.6116 0.4649 0.9902
O21_9 O 0.66902(8) 0.78382(8) 0.87297(8)
C17_9 C 0.63387(11) 0.73472(11) 0.90900(12)
H13_9 H 0.6223 0.6994 0.8790
C18_9 C 0.57092(12) 0.76203(12) 0.93852(12)
O22_9 O 0.55165(9) 0.81704(9) 0.91906(10)
O23_9 O 0.54141(10) 0.72616(11) 0.97736(12)
C19_9 C 0.68333(11) 0.70835(11) 0.95851(12)
H14_9 H 0.6608 0.6924 0.9975
C20_9 C 0.72086(12) 0.65303(12) 0.92588(12)
O24_8 O 0.69403(11) 0.59854(10) 0.92906(14)
O25_7 O 0.77267(10) 0.66535(9) 0.89671(10)
C21_9 C 0.72392(11) 0.76910(11) 0.97506(11)
C23_9 C 0.72167(11) 0.80989(11) 0.91227(12)
H16_9 H 0.7629 0.8050 0.8887
C24_9 C 0.70963(13) 0.88175(12) 0.92604(12)
O29_9 O 0.65787(9) 0.90807(9) 0.90642(10)
O30_6 O 0.82728(9) 0.53310(9) 0.93237(8)
H17_6 H 0.8535 0.4948 0.9235
H18_6 H 0.8417 0.5517 0.9734
O33_10 O 0.51536(14) 0.04810(19) 0.3744(2)
H23_10 H 0.5051 0.0806 0.4042
H24_10 H 0.5351 0.0098 0.3884
O21_10 O 0.37297(8) 0.83098(8) 0.21618(8)
C17_10 C 0.40900(12) 0.86613(11) 0.26528(11)
H13_10 H 0.3790 0.8777 0.3006
C18_10 C 0.43852(12) 0.92908(12) 0.23797(12)
O22_10 O 0.41906(10) 0.94835(9) 0.18296(9)
O23_10 O 0.47736(12) 0.95859(10) 0.27384(11)
C19_10 C 0.45851(12) 0.81667(11) 0.29165(11)
H14_10 H 0.4975 0.8392 0.3076
C20_10 C 0.42588(12) 0.77914(12) 0.34697(12)
C21_10 C 0.47506(11) 0.77608(11) 0.23090(11)
H15_10 H 0.5084 0.8002 0.2066
C22_10 C 0.50365(12) 0.70866(12) 0.24633(12)
C23_10 C 0.41227(12) 0.77833(11) 0.19011(11)
H16_10 H 0.3887 0.7371 0.1950
C24_10 C 0.42604(12) 0.79037(13) 0.11825(12)
O29_10 O 0.40642(10) 0.84213(9) 0.09193(9)
O21_11 O 0.12703(8) 0.16902(8) 0.71618(8)
C17_11 C 0.09100(12) 0.13387(11) 0.76528(11)
H13_11 H 0.1210 0.1223 0.8006
C18_11 C 0.06148(12) 0.07092(12) 0.73797(12)
O22_11 O 0.08094(10) 0.05165(9) 0.68296(9)
O23_11 O 0.02264(12) 0.04141(10) 0.77384(11)
C19_11 C 0.04149(12) 0.18333(11) 0.79165(11)
H14_11 H 0.0025 0.1608 0.8076
C20_11 C 0.07412(12) 0.22086(12) 0.84697(12)
C21_11 C 0.02494(11) 0.22392(11) 0.73090(11)
O27_6 O 0.01928(10) 0.34040(9) 0.71912(10)
C23_11 C 0.08773(12) 0.22167(11) 0.69011(11)
H16_11 H 0.1113 0.2629 0.6950
C24_11 C 0.07396(12) 0.20963(13) 0.61825(12)
O29_11 O 0.09358(10) 0.15787(9) 0.59193(9)
H15_11 H 0.9916 0.1998 0.7066
C22_11 C 0.99635(12) 0.29134(12) 0.74633(12)
O33_11 O 0.98464(14) 0.95190(19) 0.8744(2)
H23_11 H 0.9949 0.9194 0.9042
H24_11 H 0.9649 0.9902 0.8884
O46_6 O 0.98072(10) 0.84040(9) 0.78088(10)
H15_12 H 0.0084 0.6998 0.7934
C22_12 C 0.00365(12) 0.79134(12) 0.75367(12)
O33_12 O 0.01536(14) 0.45190(19) 0.6256(2)
H23_12 H 0.0051 0.4194 0.5958
H24_12 H 0.0351 0.4902 0.6116
O21_12 O 0.87297(8) 0.66902(8) 0.78382(8)
C17_12 C 0.90900(12) 0.63387(11) 0.73472(11)
H13_12 H 0.8790 0.6223 0.6994
C18_12 C 0.93852(12) 0.57092(12) 0.76203(12)
O22_12 O 0.91906(10) 0.55165(9) 0.81704(9)
O23_12 O 0.97736(12) 0.54141(10) 0.72616(11)
C19_12 C 0.95851(12) 0.68333(11) 0.70835(11)
H14_12 H 0.9975 0.6608 0.6924
C20_12 C 0.92588(12) 0.72086(12) 0.65303(12)
C21_12 C 0.97506(11) 0.72392(11) 0.76910(11)
C23_12 C 0.91227(12) 0.72167(11) 0.80989(11)
H16_12 H 0.8887 0.7629 0.8050
C24_12 C 0.92604(12) 0.70963(13) 0.88175(12)
O29_12 O 0.90642(10) 0.65787(9) 0.90807(9)
loop_
_geom_bond_atom_site_label_1
_geom_bond_atom_site_label_2
_geom_bond_site_symmetry_1
_geom_bond_site_symmetry_2
Co1 O1 1_555 1_555
Co2 O3 1_555 1_555
O1 C1 1_555 1_555
C1 H1 1_555 1_555
C2 C1 1_555 1_555
O2 Co1 1_555 1_555
O3 C2 1_555 1_555
C3 C1 1_555 1_555
H2 C3 1_555 1_555
C4 C3 1_555 1_555
O4 C4 1_555 1_555
O5 C4 1_555 1_555
C5 C3 1_555 1_555
C7 O1 1_555 1_555
H4 C7 1_555 1_555
C8 C7 1_555 1_555
O8 C8 1_555 1_555
O9 Co1 1_555 1_555
O10 Co1 1_555 1_555
H5 O10 1_555 1_555
H6 O10 1_555 1_555
O12 C9 1_555 1_555
C9 H9 1_555 1_555
C10 C9 1_555 1_555
O13 C10 1_555 1_555
O14 C10 1_555 1_555
C11 C9 1_555 1_555
H10 C11 1_555 1_555
C12 C11 1_555 1_555
O15 C12 1_555 1_555
O16 Co1 1_555 1_555
C13 C11 1_555 1_555
C15 O12 1_555 1_555
H12 C15 1_555 1_555
C16 C15 1_555 1_555
O19 C16 1_555 1_555
O20 C16 1_555 1_555
O21 C17 1_555 1_555
C17 H13 1_555 1_555
C18 C17 1_555 1_555
O22 C18 1_555 1_555
O23 C18 1_555 1_555
C19 C17 1_555 1_555
H14 C19 1_555 1_555
C20 C19 1_555 1_555
O24 Co2 1_555 1_555
O25 C20 1_555 1_555
C21 C19 1_555 1_555
H15 C21 1_555 1_555
C22 C21 1_555 1_555
O26 Co1 1_555 1_555
O27 C22 1_555 1_555
C23 O21 1_555 1_555
H16 C23 1_555 1_555
C24 C23 1_555 1_555
O28 C24 1_555 1_555
O29 C24 1_555 1_555
Co3 O12 1_555 1_555
Co4 O21 1_555 1_555
Co5 O14 1_555 1_555
Co6 O23 1_555 1_555
O30 Co2 1_555 1_555
H18 O30 1_555 1_555
O31 Co3 1_555 1_555
H19 O31 1_555 1_555
H20 O31 1_555 1_555
O33 Co6 1_555 1_555
H23 O33 1_555 1_555
H24 O33 1_555 1_555
Co7 O4 1_555 1_555
Co8 O5 1_555 1_555
Co12 O10 1_555 1_555
Co15 O25 1_555 1_555
Co16 O28 1_555 1_555
O36 Co3 1_555 1_555
O37 Co3 1_555 1_555
O38 Co4 1_555 1_555
O39 Co4 1_555 1_555
O40 Co4 1_555 1_555
O41 Co5 1_555 1_555
O44 Co5 1_555 1_555
O45 Co6 1_555 1_555
O46 Co6 1_555 1_555
O47 Co6 1_555 1_555
O48 Co6 1_555 1_555
Co17 O31 1_555 1_555
H25 O40 1_555 1_555
H26 O40 1_555 1_555
H28 O44 1_555 1_555
H29 O48 1_555 1_555
H30 O48 1_555 1_555
C2 O2 1_555 1_555
C5 C7 1_555 1_555
C8 O9 1_555 1_555
O13 Co3 1_555 1_555
C12 O16 1_555 1_555
O15 Co12 1_555 1_555
C13 C15 1_555 1_555
O20 Co3 1_555 1_555
O22 Co4 1_555 1_555
C20 O24 1_555 1_555
C21 C23 1_555 1_555
C22 O26 1_555 1_555
O27 Co12 1_555 1_555
O29 Co4 1_555 1_555
O30 Co15 1_555 1_555
O17 C14 1_555 1_555
H21 O32 1_555 1_555
H22 O32 1_555 1_555
Co13 O17 1_555 1_555
O6 C6 1_555 1_555
H7 O11 1_555 1_555
H8 O11 1_555 1_555
Co9 O6 1_555 1_555
Co8 O1_2 1_555 1_555
Co2_2 O3_2 1_555 1_555
O1_2 C1_2 1_555 1_555
C1_2 H1_2 1_555 1_555
C2_2 C1_2 1_555 1_555
O2_2 Co8 1_555 1_555
O3_2 C2_2 1_555 1_555
C3_2 C1_2 1_555 1_555
H2_2 C3_2 1_555 1_555
C4_2 C3_2 1_555 1_555
O4_2 C4_2 1_555 1_555
O36 C4_2 1_555 1_555
C5_2 C3_2 1_555 1_555
C7_2 O1_2 1_555 1_555
H4_2 C7_2 1_555 1_555
C8_2 C7_2 1_555 1_555
O8_2 C8_2 1_555 1_555
O9_2 Co8 1_555 1_555
O10_2 Co8 1_555 1_555
H5_2 O10_2 1_555 1_555
H6_2 O10_2 1_555 1_555
O21_2 C17_2 1_555 1_555
C17_2 H13_2 1_555 1_555
C18_2 C17_2 1_555 1_555
O22_2 C18_2 1_555 1_555
O23_2 C18_2 1_555 1_555
C19_2 C17_2 1_555 1_555
H14_2 C19_2 1_555 1_555
C20_2 C19_2 1_555 1_555
O24_2 Co2_2 1_555 1_555
O25_2 C20_2 1_555 1_555
C21_2 C19_2 1_555 1_555
H15_2 C21_2 1_555 1_555
C22_2 C21_2 1_555 1_555
O26_2 Co8 1_555 1_555
O27_2 C22_2 1_555 1_555
C23_2 O21_2 1_555 1_555
H16_2 C23_2 1_555 1_555
C24_2 C23_2 1_555 1_555
O47 C24_2 1_555 1_555
O29_2 C24_2 1_555 1_555
Co4_2 O21_2 1_555 1_555
Co6_2 O23_2 1_555 1_555
O30_2 Co2_2 1_555 1_555
H18_2 O30_2 1_555 1_555
O33_2 Co6_2 1_555 1_555
H23_2 O33_2 1_555 1_555
H24_2 O33_2 1_555 1_555
Co17 O4_2 1_555 1_555
Co7 O10_2 1_555 1_555
Co15_2 O25_2 1_555 1_555
O38_2 Co4_2 1_555 1_555
O39_2 Co4_2 1_555 1_555
O40_2 Co4_2 1_555 1_555
O45_2 Co6_2 1_555 1_555
O46_2 Co6_2 1_555 1_555
O47_2 Co6_2 1_555 1_555
O48_2 Co6_2 1_555 1_555
H25_2 O40_2 1_555 1_555
H26_2 O40_2 1_555 1_555
H29_2 O48_2 1_555 1_555
H30_2 O48_2 1_555 1_555
C2_2 O2_2 1_555 1_555
C5_2 C7_2 1_555 1_555
C8_2 O9_2 1_555 1_555
O22_2 Co4_2 1_555 1_555
C20_2 O24_2 1_555 1_555
C21_2 C23_2 1_555 1_555
C22_2 O26_2 1_555 1_555
O27_2 Co7 1_555 1_555
O29_2 Co4_2 1_555 1_555
O30_2 Co15_2 1_555 1_555
O6_2 C6_2 1_555 1_555
H7_2 O11_2 1_555 1_555
H8_2 O11_2 1_555 1_555
Co9_2 O6_2 1_555 1_555
O21_3 C17_3 1_555 1_555
C17_3 H13_3 1_555 1_555
C18_3 C17_3 1_555 1_555
O22_3 C18_3 1_555 1_555
O23_3 C18_3 1_555 1_555
C19_3 C17_3 1_555 1_555
H14_3 C19_3 1_555 1_555
C20_3 C19_3 1_555 1_555
O25_3 C20_3 1_555 1_555
C21_3 C19_3 1_555 1_555
H15_3 C21_3 1_555 1_555
C22_3 C21_3 1_555 1_555
O27_3 C22_3 1_555 1_555
C23_3 O21_3 1_555 1_555
H16_3 C23_3 1_555 1_555
C24_3 C23_3 1_555 1_555
O47_2 C24_3 1_555 1_555
O29_3 C24_3 1_555 1_555
Co4_3 O21_3 1_555 1_555
Co16 O23_3 1_555 1_555
O33_3 Co16 1_555 1_555
H23_3 O33_3 1_555 1_555
H24_3 O33_3 1_555 1_555
Co15_3 O25_3 1_555 1_555
O38_3 Co4_3 1_555 1_555
O39_3 Co4_3 1_555 1_555
O40_3 Co4_3 1_555 1_555
O45_3 Co16 1_555 1_555
O46_3 Co16 1_555 1_555
O48_3 Co16 1_555 1_555
H25_3 O40_3 1_555 1_555
H26_3 O40_3 1_555 1_555
H29_3 O48_3 1_555 1_555
H30_3 O48_3 1_555 1_555
O22_3 Co4_3 1_555 1_555
C20_3 O41 1_555 1_555
C21_3 C23_3 1_555 1_555
C22_3 O37 1_555 1_555
O27_3 Co17 1_555 1_555
O29_3 Co4_3 1_555 1_555
O44 Co15_3 1_555 1_555
O33_4 Co12 1_555 1_555
H23_4 O33_4 1_555 1_555
H24_4 O33_4 1_555 1_555
O47_3 Co12 1_555 1_555
Co1_2 O1_3 1_555 1_555
Co2_3 O3_3 1_555 1_555
O1_3 C1_3 1_555 1_555
C1_3 H1_3 1_555 1_555
C2_3 C1_3 1_555 1_555
O2_3 Co1_2 1_555 1_555
O3_3 C2_3 1_555 1_555
C3_3 C1_3 1_555 1_555
H2_3 C3_3 1_555 1_555
C4_3 C3_3 1_555 1_555
O4_3 C4_3 1_555 1_555
O5_2 C4_3 1_555 1_555
C5_3 C3_3 1_555 1_555
H3_3 C5_3 1_555 1_555
C6_3 C5_3 1_555 1_555
O6_3 C6_3 1_555 1_555
O7_3 C6_3 1_555 1_555
C7_3 O1_3 1_555 1_555
H4_3 C7_3 1_555 1_555
C8_3 C7_3 1_555 1_555
O8_3 C8_3 1_555 1_555
O9_3 Co1_2 1_555 1_555
O48 Co1_2 1_555 1_555
O11_3 Co2_3 1_555 1_555
H7_3 O11_3 1_555 1_555
H8_3 O11_3 1_555 1_555
O12_2 C9_2 1_555 1_555
C9_2 H9_2 1_555 1_555
C10_2 C9_2 1_555 1_555
O13_2 C10_2 1_555 1_555
O14_2 C10_2 1_555 1_555
C11_2 C9_2 1_555 1_555
H10_2 C11_2 1_555 1_555
C12_2 C11_2 1_555 1_555
O45 C12_2 1_555 1_555
O16_2 Co1_2 1_555 1_555
C13_2 C11_2 1_555 1_555
H11_2 C13_2 1_555 1_555
C14_2 C13_2 1_555 1_555
O39 C14_2 1_555 1_555
O18_2 C14_2 1_555 1_555
C15_2 O12_2 1_555 1_555
H12_2 C15_2 1_555 1_555
C16_2 C15_2 1_555 1_555
O35_2 C16_2 1_555 1_555
O20_2 C16_2 1_555 1_555
O21_4 C17_4 1_555 1_555
C17_4 H13_4 1_555 1_555
C18_4 C17_4 1_555 1_555
O22_4 C18_4 1_555 1_555
O23_4 C18_4 1_555 1_555
C19_4 C17_4 1_555 1_555
H14_4 C19_4 1_555 1_555
C20_4 C19_4 1_555 1_555
O24_3 Co2_3 1_555 1_555
O38_2 C20_4 1_555 1_555
C21_4 C19_4 1_555 1_555
H15_4 C21_4 1_555 1_555
C22_4 C21_4 1_555 1_555
O26_3 Co1_2 1_555 1_555
O46 C22_4 1_555 1_555
C23_4 O21_4 1_555 1_555
H16_4 C23_4 1_555 1_555
C24_4 C23_4 1_555 1_555
O28_2 C24_4 1_555 1_555
O29_4 C24_4 1_555 1_555
Co3_2 O12_2 1_555 1_555
Co13 O21_4 1_555 1_555
O40_2 Co2_3 1_555 1_555
O31_2 Co3_2 1_555 1_555
H20_2 O31_2 1_555 1_555
O34_3 Co2_3 1_555 1_555
O35_3 Co2_3 1_555 1_555
Co7_2 O4_3 1_555 1_555
Co8_2 O5_2 1_555 1_555
Co9_3 O6_3 1_555 1_555
Co10_2 O7_3 1_555 1_555
Co11_2 O8_3 1_555 1_555
O36_2 Co3_2 1_555 1_555
O37_2 Co3_2 1_555 1_555
O38_4 Co13 1_555 1_555
O40_4 Co13 1_555 1_555
Co17_2 O31_2 1_555 1_555
H26_4 O40_4 1_555 1_555
C2_3 O2_3 1_555 1_555
C5_3 C7_3 1_555 1_555
C8_3 O9_3 1_555 1_555
O13_2 Co3_2 1_555 1_555
C12_2 O16_2 1_555 1_555
C13_2 C15_2 1_555 1_555
O18_2 Co11_2 1_555 1_555
O20_2 Co3_2 1_555 1_555
O22_4 Co13 1_555 1_555
C20_4 O24_3 1_555 1_555
C21_4 C23_4 1_555 1_555
C22_4 O26_3 1_555 1_555
O29_4 Co13 1_555 1_555
O32_2 Co5_2 1_555 1_555
H21_2 O32_2 1_555 1_555
H22_2 O32_2 1_555 1_555
O41_2 Co5_2 1_555 1_555
O42_2 Co5_2 1_555 1_555
O43_2 Co5_2 1_555 1_555
O44_2 Co5_2 1_555 1_555
H27_2 O44_2 1_555 1_555
H28_2 O44_2 1_555 1_555
H7_4 O11_4 1_555 1_555
H8_4 O11_4 1_555 1_555
O6_4 C6_4 1_555 1_555
Co15 O6_4 1_555 1_555
O21_5 C17_5 1_555 1_555
C17_5 H13_5 1_555 1_555
C18_5 C17_5 1_555 1_555
O22_5 C18_5 1_555 1_555
O23_5 C18_5 1_555 1_555
C19_5 C17_5 1_555 1_555
H14_5 C19_5 1_555 1_555
C20_5 C19_5 1_555 1_555
O24_4 Co10 1_555 1_555
O25_4 C20_5 1_555 1_555
C21_5 C19_5 1_555 1_555
C23_5 O21_5 1_555 1_555
H16_5 C23_5 1_555 1_555
C24_5 C23_5 1_555 1_555
O28_3 C24_5 1_555 1_555
O29_5 C24_5 1_555 1_555
Co15_3 O21_5 1_555 1_555
O30_3 Co10 1_555 1_555
H18_3 O30_3 1_555 1_555
Co9 O25_4 1_555 1_555
Co17 O28_3 1_555 1_555
O39_4 Co15_3 1_555 1_555
O22_5 Co15_3 1_555 1_555
C20_5 O24_4 1_555 1_555
C21_5 C23_5 1_555 1_555
O29_5 Co15_3 1_555 1_555
O30_3 Co9 1_555 1_555
O45_4 Co6_3 1_555 1_555
O48_4 Co6_3 1_555 1_555
H30_4 O48_4 1_555 1_555
Co1_3 O1_4 1_555 1_555
O1_4 C1_4 1_555 1_555
C1_4 H1_4 1_555 1_555
C2_4 C1_4 1_555 1_555
O2_4 Co1_3 1_555 1_555
O3_4 C2_4 1_555 1_555
C3_4 C1_4 1_555 1_555
H2_4 C3_4 1_555 1_555
C4_4 C3_4 1_555 1_555
O4_4 C4_4 1_555 1_555
O5_3 C4_4 1_555 1_555
C5_4 C3_4 1_555 1_555
C7_4 O1_4 1_555 1_555
H4_4 C7_4 1_555 1_555
C8_4 C7_4 1_555 1_555
O43_2 C8_4 1_555 1_555
O9_4 Co1_3 1_555 1_555
O10_3 Co1_3 1_555 1_555
H6_3 O10_3 1_555 1_555
O12_3 C9_3 1_555 1_555
C9_3 H9_3 1_555 1_555
C10_3 C9_3 1_555 1_555
O13_3 C10_3 1_555 1_555
O14_3 C10_3 1_555 1_555
C11_3 C9_3 1_555 1_555
H10_3 C11_3 1_555 1_555
C12_3 C11_3 1_555 1_555
O15_2 C12_3 1_555 1_555
O16_3 Co1_3 1_555 1_555
C13_3 C11_3 1_555 1_555
H11_3 C13_3 1_555 1_555
C14_3 C13_3 1_555 1_555
O17_2 C14_3 1_555 1_555
O42_2 C14_3 1_555 1_555
C15_3 O12_3 1_555 1_555
H12_3 C15_3 1_555 1_555
C16_3 C15_3 1_555 1_555
O19_2 C16_3 1_555 1_555
O20_3 C16_3 1_555 1_555
O26_4 Co1_3 1_555 1_555
Co3_3 O12_3 1_555 1_555
Co11_2 O14_3 1_555 1_555
O48_3 Co3_3 1_555 1_555
O32_3 Co11_2 1_555 1_555
H21_3 O32_3 1_555 1_555
H22_3 O32_3 1_555 1_555
Co7_3 O4_4 1_555 1_555
Co8_3 O5_3 1_555 1_555
Co12_2 O10_3 1_555 1_555
Co13_2 O17_2 1_555 1_555
Co14_2 O19_2 1_555 1_555
O36_3 Co3_3 1_555 1_555
O37_3 Co3_3 1_555 1_555
O41_3 Co11_2 1_555 1_555
O40 Co11_2 1_555 1_555
C2_4 O2_4 1_555 1_555
C5_4 C7_4 1_555 1_555
C8_4 O9_4 1_555 1_555
O13_3 Co3_3 1_555 1_555
C12_3 O16_3 1_555 1_555
O15_2 Co12_2 1_555 1_555
C13_3 C15_3 1_555 1_555
O20_3 Co3_3 1_555 1_555
C22_5 O26_4 1_555 1_555
H23_5 O33_5 1_555 1_555
H24_5 O33_5 1_555 1_555
H21_4 O32_4 1_555 1_555
H22_4 O32_4 1_555 1_555
O41_4 Co11 1_555 1_555
O40_4 Co11 1_555 1_555
O39_4 C14_4 1_555 1_555
Co1_4 O1_5 1_555 1_555
O1_5 C1_5 1_555 1_555
C1_5 H1_5 1_555 1_555
C2_5 C1_5 1_555 1_555
O2_5 Co1_4 1_555 1_555
O3_5 C2_5 1_555 1_555
C3_5 C1_5 1_555 1_555
H2_5 C3_5 1_555 1_555
C4_5 C3_5 1_555 1_555
O45_2 C4_5 1_555 1_555
O5_4 C4_5 1_555 1_555
C5_5 C3_5 1_555 1_555
H3_5 C5_5 1_555 1_555
C6_5 C5_5 1_555 1_555
O39_2 C6_5 1_555 1_555
O34_3 C6_5 1_555 1_555
C7_5 O1_5 1_555 1_555
H4_5 C7_5 1_555 1_555
C8_5 C7_5 1_555 1_555
O43 C8_5 1_555 1_555
O9_5 Co1_4 1_555 1_555
O48_4 Co1_4 1_555 1_555
O12_4 C9_4 1_555 1_555
C9_4 H9_4 1_555 1_555
C10_4 C9_4 1_555 1_555
O13_4 C10_4 1_555 1_555
O14_4 C10_4 1_555 1_555
C11_4 C9_4 1_555 1_555
H10_4 C11_4 1_555 1_555
C12_4 C11_4 1_555 1_555
O45_4 C12_4 1_555 1_555
O16_4 Co1_4 1_555 1_555
C13_4 C11_4 1_555 1_555
C15_4 O12_4 1_555 1_555
H12_4 C15_4 1_555 1_555
C16_4 C15_4 1_555 1_555
O19_3 C16_4 1_555 1_555
O20_4 C16_4 1_555 1_555
O26_5 Co1_4 1_555 1_555
Co3_4 O12_4 1_555 1_555
O31_3 Co3_4 1_555 1_555
H20_3 O31_3 1_555 1_555
H23_6 O33_6 1_555 1_555
H24_6 O33_6 1_555 1_555
Co8_4 O5_4 1_555 1_555
Co14_3 O19_3 1_555 1_555
O36_4 Co3_4 1_555 1_555
O37_4 Co3_4 1_555 1_555
Co16_2 O31_3 1_555 1_555
C2_5 O2_5 1_555 1_555
C5_5 C7_5 1_555 1_555
C8_5 O9_5 1_555 1_555
O13_4 Co3_4 1_555 1_555
C12_4 O16_4 1_555 1_555
C13_4 C15_4 1_555 1_555
O20_4 Co3_4 1_555 1_555
C22_6 O26_5 1_555 1_555
O11_5 Co10_2 1_555 1_555
H7_5 O11_5 1_555 1_555
H8_5 O11_5 1_555 1_555
O21_6 C17_6 1_555 1_555
C17_6 H13_6 1_555 1_555
C18_6 C17_6 1_555 1_555
O22_6 C18_6 1_555 1_555
O23_6 C18_6 1_555 1_555
C19_6 C17_6 1_555 1_555
H14_6 C19_6 1_555 1_555
C20_6 C19_6 1_555 1_555
O24_5 Co10_2 1_555 1_555
O25_5 C20_6 1_555 1_555
C21_6 C19_6 1_555 1_555
C23_6 O21_6 1_555 1_555
H16_6 C23_6 1_555 1_555
C24_6 C23_6 1_555 1_555
O28_4 C24_6 1_555 1_555
O29_6 C24_6 1_555 1_555
Co13_2 O21_6 1_555 1_555
Co12_2 O23_6 1_555 1_555
O30_4 Co10_2 1_555 1_555
H17_4 O30_4 1_555 1_555
H18_4 O30_4 1_555 1_555
O35_4 Co10_2 1_555 1_555
Co9_3 O25_5 1_555 1_555
O38_5 Co13_2 1_555 1_555
O44_2 Co13_2 1_555 1_555
O22_6 Co13_2 1_555 1_555
C20_6 O24_5 1_555 1_555
C21_6 C23_6 1_555 1_555
O29_6 Co13_2 1_555 1_555
O30_4 Co9_3 1_555 1_555
O33_7 Co7 1_555 1_555
H23_7 O33_7 1_555 1_555
H24_7 O33_7 1_555 1_555
O47_6 Co7 1_555 1_555
Co8_4 O1_6 1_555 1_555
Co14_2 O3_6 1_555 1_555
O1_6 C1_6 1_555 1_555
C1_6 H1_6 1_555 1_555
C2_6 C1_6 1_555 1_555
O2_6 Co8_4 1_555 1_555
O3_6 C2_6 1_555 1_555
C3_6 C1_6 1_555 1_555
H2_6 C3_6 1_555 1_555
C4_6 C3_6 1_555 1_555
O4_5 C4_6 1_555 1_555
O36_4 C4_6 1_555 1_555
C5_6 C3_6 1_555 1_555
H3_6 C5_6 1_555 1_555
C6_6 C5_6 1_555 1_555
O6_5 C6_6 1_555 1_555
O7_4 C6_6 1_555 1_555
C7_6 O1_6 1_555 1_555
H4_6 C7_6 1_555 1_555
C8_6 C7_6 1_555 1_555
O35_3 C8_6 1_555 1_555
O9_6 Co8_4 1_555 1_555
O48_2 Co8_4 1_555 1_555
O11_6 Co14_2 1_555 1_555
H7_6 O11_6 1_555 1_555
H8_6 O11_6 1_555 1_555
O21_7 C17_7 1_555 1_555
C17_7 H13_7 1_555 1_555
C18_7 C17_7 1_555 1_555
O22_7 C18_7 1_555 1_555
O23_7 C18_7 1_555 1_555
C19_7 C17_7 1_555 1_555
H14_7 C19_7 1_555 1_555
C20_7 C19_7 1_555 1_555
O24_6 Co14_2 1_555 1_555
O38_3 C20_7 1_555 1_555
C21_7 C19_7 1_555 1_555
H15_7 C21_7 1_555 1_555
C22_7 C21_7 1_555 1_555
O26_6 Co8_4 1_555 1_555
O46_2 C22_7 1_555 1_555
C23_7 O21_7 1_555 1_555
H16_7 C23_7 1_555 1_555
C24_7 C23_7 1_555 1_555
O47_5 C24_7 1_555 1_555
O29_7 C24_7 1_555 1_555
Co9 O21_7 1_555 1_555
O40_3 Co14_2 1_555 1_555
O34_4 Co14_2 1_555 1_555
Co16_2 O4_5 1_555 1_555
Co9_4 O6_5 1_555 1_555
Co14_3 O7_4 1_555 1_555
C2_6 O2_6 1_555 1_555
C5_6 C7_6 1_555 1_555
C8_6 O9_6 1_555 1_555
O22_7 Co9 1_555 1_555
C20_7 O24_6 1_555 1_555
C21_7 C23_7 1_555 1_555
C22_7 O26_6 1_555 1_555
O29_7 Co9 1_555 1_555
H7_7 O11_7 1_555 1_555
H8_7 O11_7 1_555 1_555
O6_6 C6_7 1_555 1_555
Co15_2 O6_6 1_555 1_555
O21_8 C17_8 1_555 1_555
C17_8 H13_8 1_555 1_555
C18_8 C17_8 1_555 1_555
O22_8 C18_8 1_555 1_555
O23_8 C18_8 1_555 1_555
C19_8 C17_8 1_555 1_555
H14_8 C19_8 1_555 1_555
C20_8 C19_8 1_555 1_555
O24_7 Co14 1_555 1_555
O25_6 C20_8 1_555 1_555
C21_8 C19_8 1_555 1_555
C23_8 O21_8 1_555 1_555
H16_8 C23_8 1_555 1_555
C24_8 C23_8 1_555 1_555
O47_3 C24_8 1_555 1_555
O29_8 C24_8 1_555 1_555
Co15 O21_8 1_555 1_555
O30_5 Co14 1_555 1_555
H18_5 O30_5 1_555 1_555
Co9_2 O25_6 1_555 1_555
O22_8 Co15 1_555 1_555
C20_8 O24_7 1_555 1_555
C21_8 C23_8 1_555 1_555
O29_8 Co15 1_555 1_555
O30_5 Co9_2 1_555 1_555
Co8_2 O1_7 1_555 1_555
O1_7 C1_7 1_555 1_555
C1_7 H1_7 1_555 1_555
C2_7 C1_7 1_555 1_555
O2_7 Co8_2 1_555 1_555
O3_7 C2_7 1_555 1_555
C3_7 C1_7 1_555 1_555
H2_7 C3_7 1_555 1_555
C4_7 C3_7 1_555 1_555
O4_6 C4_7 1_555 1_555
O36_2 C4_7 1_555 1_555
C5_7 C3_7 1_555 1_555
C7_7 O1_7 1_555 1_555
H4_7 C7_7 1_555 1_555
C8_7 C7_7 1_555 1_555
O35_4 C8_7 1_555 1_555
O9_7 Co8_2 1_555 1_555
O10_4 Co8_2 1_555 1_555
H6_4 O10_4 1_555 1_555
O26_7 Co8_2 1_555 1_555
Co17_2 O4_6 1_555 1_555
Co7_2 O10_4 1_555 1_555
C2_7 O2_7 1_555 1_555
C5_7 C7_7 1_555 1_555
C8_7 O9_7 1_555 1_555
C22_8 O26_7 1_555 1_555
O48_5 Co7_3 1_555 1_555
H30_5 O48_5 1_555 1_555
H23_8 O33_8 1_555 1_555
H24_8 O33_8 1_555 1_555
Co8_3 O1_8 1_555 1_555
O1_8 C1_8 1_555 1_555
C1_8 H1_8 1_555 1_555
C2_8 C1_8 1_555 1_555
O2_8 Co8_3 1_555 1_555
O3_8 C2_8 1_555 1_555
C3_8 C1_8 1_555 1_555
H2_8 C3_8 1_555 1_555
C4_8 C3_8 1_555 1_555
O45_3 C4_8 1_555 1_555
O36_3 C4_8 1_555 1_555
C5_8 C3_8 1_555 1_555
H3_8 C5_8 1_555 1_555
C6_8 C5_8 1_555 1_555
O39_3 C6_8 1_555 1_555
O34_4 C6_8 1_555 1_555
C7_8 O1_8 1_555 1_555
H4_8 C7_8 1_555 1_555
C8_8 C7_8 1_555 1_555
O35 C8_8 1_555 1_555
O9_8 Co8_3 1_555 1_555
O48_5 Co8_3 1_555 1_555
O26_8 Co8_3 1_555 1_555
H23_9 O33_9 1_555 1_555
H24_9 O33_9 1_555 1_555
C2_8 O2_8 1_555 1_555
C5_8 C7_8 1_555 1_555
C8_8 O9_8 1_555 1_555
C22_9 O26_8 1_555 1_555
O11_8 Co14_3 1_555 1_555
H7_8 O11_8 1_555 1_555
H8_8 O11_8 1_555 1_555
O21_9 C17_9 1_555 1_555
C17_9 H13_9 1_555 1_555
C18_9 C17_9 1_555 1_555
O22_9 C18_9 1_555 1_555
O23_9 C18_9 1_555 1_555
C19_9 C17_9 1_555 1_555
H14_9 C19_9 1_555 1_555
C20_9 C19_9 1_555 1_555
O24_8 Co14_3 1_555 1_555
O25_7 C20_9 1_555 1_555
C21_9 C19_9 1_555 1_555
C23_9 O21_9 1_555 1_555
H16_9 C23_9 1_555 1_555
C24_9 C23_9 1_555 1_555
O47_4 C24_9 1_555 1_555
O29_9 C24_9 1_555 1_555
Co9_3 O21_9 1_555 1_555
Co7_2 O23_9 1_555 1_555
O30_6 Co14_3 1_555 1_555
H17_6 O30_6 1_555 1_555
H18_6 O30_6 1_555 1_555
Co9_4 O25_7 1_555 1_555
O22_9 Co9_3 1_555 1_555
C20_9 O24_8 1_555 1_555
C21_9 C23_9 1_555 1_555
O29_9 Co9_3 1_555 1_555
O30_6 Co9_4 1_555 1_555
O33_10 Co17 1_555 1_555
H23_10 O33_10 1_555 1_555
H24_10 O33_10 1_555 1_555
O21_10 C17_10 1_555 1_555
C17_10 H13_10 1_555 1_555
C18_10 C17_10 1_555 1_555
O22_10 C18_10 1_555 1_555
O23_10 C18_10 1_555 1_555
C19_10 C17_10 1_555 1_555
H14_10 C19_10 1_555 1_555
C20_10 C19_10 1_555 1_555
O38 C20_10 1_555 1_555
C21_10 C19_10 1_555 1_555
H15_10 C21_10 1_555 1_555
C22_10 C21_10 1_555 1_555
O46_3 C22_10 1_555 1_555
C23_10 O21_10 1_555 1_555
H16_10 C23_10 1_555 1_555
C24_10 C23_10 1_555 1_555
O47_8 C24_10 1_555 1_555
O29_10 C24_10 1_555 1_555
Co9_2 O21_10 1_555 1_555
O22_10 Co9_2 1_555 1_555
C20_10 O41_3 1_555 1_555
C21_10 C23_10 1_555 1_555
C22_10 O37_3 1_555 1_555
O29_10 Co9_2 1_555 1_555
O21_11 C17_11 1_555 1_555
C17_11 H13_11 1_555 1_555
C18_11 C17_11 1_555 1_555
O22_11 C18_11 1_555 1_555
O23_11 C18_11 1_555 1_555
C19_11 C17_11 1_555 1_555
H14_11 C19_11 1_555 1_555
C20_11 C19_11 1_555 1_555
O38_4 C20_11 1_555 1_555
C21_11 C19_11 1_555 1_555
C23_11 O21_11 1_555 1_555
H16_11 C23_11 1_555 1_555
C24_11 C23_11 1_555 1_555
O47_6 C24_11 1_555 1_555
O29_11 C24_11 1_555 1_555
Co15_2 O21_11 1_555 1_555
O22_11 Co15_2 1_555 1_555
C20_11 O41_4 1_555 1_555
C21_11 C23_11 1_555 1_555
O29_11 Co15_2 1_555 1_555
C22_11 O37_4 1_555 1_555
H23_11 O33_11 1_555 1_555
H24_11 O33_11 1_555 1_555
H23_12 O33_12 1_555 1_555
H24_12 O33_12 1_555 1_555
C22_12 O37_2 1_555 1_555
O21_12 C17_12 1_555 1_555
C17_12 H13_12 1_555 1_555
C18_12 C17_12 1_555 1_555
O22_12 C18_12 1_555 1_555
O23_12 C18_12 1_555 1_555
C19_12 C17_12 1_555 1_555
H14_12 C19_12 1_555 1_555
C20_12 C19_12 1_555 1_555
O38_5 C20_12 1_555 1_555
C21_12 C19_12 1_555 1_555
C23_12 O21_12 1_555 1_555
H16_12 C23_12 1_555 1_555
C24_12 C23_12 1_555 1_555
O47_7 C24_12 1_555 1_555
O29_12 C24_12 1_555 1_555
Co9_4 O21_12 1_555 1_555
Co16_2 O23_12 1_555 1_555
O22_12 Co9_4 1_555 1_555
C20_12 O41_2 1_555 1_555
C21_12 C23_12 1_555 1_555
O29_12 Co9_4 1_555 1_555

#END
