
###############################################################################
#
# This file contains modified crystal structure data generated from the
# MOF subset of the Cambridge Structural Database (CSD) v543 
# hosted by the Cambridge Crystallographic Data Centre (CCDC).
#
# This work is licensed under the Creative Commons
# Attribution-NonCommercial-ShareAlike 4.0 International License.
# To view a copy of this license, visit
# http://creativecommons.org/licenses/by-nc-sa/4.0/
# or send a letter to
# Creative Commons, PO Box 1866, Mountain View, CA 94042, USA.
#
# CIF created using the CSD Python API on 29 September 2022
# The structure has been converted into the P1 space group
# The structure has a 3D framework
# The original CSD entry XAGCIS02 is in the cubic crystal system
# The framework has been calculated to contain at least 10.0% void space
# The void calculation uses a probe of radius 1.32A, grid spacing 0.4
#
###############################################################################

data_XAGCIS02
_chemical_formula_moiety         '(C192 H186 Co44 O260)n'
_symmetry_cell_setting           triclinic
_symmetry_space_group_name_H-M   'P 1'
_symmetry_Int_Tables_number      1
_space_group_name_Hall           'P 1'
loop_
_symmetry_equiv_pos_site_id
_symmetry_equiv_pos_as_xyz
1 x,y,z
_cell_length_a                   20.4480(10)
_cell_length_b                   20.4480(10)
_cell_length_c                   20.4480(10)
_cell_angle_alpha                90
_cell_angle_beta                 90
_cell_angle_gamma                90
_cell_volume                     8549.73
loop_
_atom_site_label
_atom_site_type_symbol
_atom_site_fract_x
_atom_site_fract_y
_atom_site_fract_z
Co1 Co 0.16133(4) 0.39843(4) 0.14318(4)
Co2 Co 0.00607(4) 0.56125(4) 0.27597(4)
O1 O 0.1269(2) 0.33112(19) 0.21616(19)
C1 C 0.0910(3) 0.3664(3) 0.2657(3)
H1 H 0.1212 0.3780 0.3010
C2 C 0.0618(3) 0.4288(3) 0.2380(3)
O2 O 0.0808(2) 0.4486(2) 0.1832(2)
O3 O 0.0228(3) 0.4590(2) 0.2740(2)
C3 C 0.0418(3) 0.3163(3) 0.2918(3)
H2 H 0.0026 0.3388 0.3080
C4 C 0.0741(3) 0.2788(3) 0.3468(3)
O4 O 0.0707(3) 0.3059(2) 0.4015(2)
O5 O 0.1032(2) 0.2277(2) 0.3345(2)
C5 C 0.0249(3) 0.2762(3) 0.2310(3)
O7 O 0.0193(2) 0.1596(2) 0.2185(2)
C7 C 0.0875(3) 0.2782(3) 0.1901(3)
H4 H 0.1111 0.2368 0.1951
C8 C 0.0739(3) 0.2902(3) 0.1184(3)
O8 O 0.0426(2) 0.2459(2) 0.0898(2)
O9 O 0.0934(2) 0.3416(2) 0.0918(2)
O10 O 0.1730(2) 0.4669(2) 0.0679(2)
H5 H 0.1467 0.5054 0.0769
H6 H 0.1585 0.4483 0.0268
O12 O 0.33112(19) 0.21616(19) 0.1269(2)
C9 C 0.3664(3) 0.2657(3) 0.0910(3)
H9 H 0.3780 0.3010 0.1212
C10 C 0.4288(3) 0.2380(3) 0.0618(3)
O13 O 0.4486(2) 0.1832(2) 0.0808(2)
O14 O 0.4590(2) 0.2740(2) 0.0228(3)
C11 C 0.3163(3) 0.2918(3) 0.0418(3)
H10 H 0.3388 0.3080 0.0026
C12 C 0.2788(3) 0.3468(3) 0.0741(3)
O15 O 0.3059(2) 0.4015(2) 0.0707(3)
O16 O 0.2277(2) 0.3345(2) 0.1032(2)
C13 C 0.2762(3) 0.2310(3) 0.0249(3)
O18 O 0.1596(2) 0.2185(2) 0.0193(2)
C15 C 0.2782(3) 0.1901(3) 0.0875(3)
H12 H 0.2368 0.1951 0.1111
C16 C 0.2902(3) 0.1184(3) 0.0739(3)
O19 O 0.2459(2) 0.0898(2) 0.0426(2)
O20 O 0.3416(2) 0.0918(2) 0.0934(2)
O21 O 0.28384(19) 0.6269(2) 0.33112(19)
C17 C 0.2343(3) 0.5910(3) 0.3664(3)
H13 H 0.1990 0.6212 0.3780
C18 C 0.2620(3) 0.5618(3) 0.4288(3)
O22 O 0.3168(2) 0.5808(2) 0.4486(2)
O23 O 0.2260(2) 0.5228(3) 0.4590(2)
C19 C 0.2082(3) 0.5418(3) 0.3163(3)
H14 H 0.1920 0.5026 0.3388
C20 C 0.1532(3) 0.5741(3) 0.2788(3)
O24 O 0.0985(2) 0.5707(3) 0.3059(2)
O25 O 0.1655(2) 0.6032(2) 0.2277(2)
C21 C 0.2690(3) 0.5249(3) 0.2762(3)
H15 H 0.2932 0.4915 0.3007
C22 C 0.2539(3) 0.4963(3) 0.2088(3)
O26 O 0.2151(2) 0.4487(2) 0.2095(2)
O27 O 0.2815(2) 0.5193(2) 0.1596(2)
C23 C 0.3099(3) 0.5875(3) 0.2782(3)
H16 H 0.3049 0.6111 0.2368
C24 C 0.3816(3) 0.5739(3) 0.2902(3)
O28 O 0.4102(2) 0.5426(2) 0.2459(2)
O29 O 0.4082(2) 0.5934(2) 0.3416(2)
Co3 Co 0.39843(4) 0.14318(4) 0.16133(4)
Co4 Co 0.35682(4) 0.66133(4) 0.39843(4)
Co5 Co 0.56125(4) 0.27597(4) 0.00607(4)
Co6 Co 0.22403(4) 0.50607(4) 0.56125(4)
O30 O 0.0331(2) 0.5679(2) 0.1730(2)
H18 H 0.0517 0.5268 0.1585
O31 O 0.4669(2) 0.0679(2) 0.1730(2)
H19 H 0.5054 0.0769 0.1467
H20 H 0.4483 0.0268 0.1585
O33 O 0.1259(4) 0.4843(3) 0.5485(4)
H23 H 0.0960 0.4943 0.5812
H24 H 0.1118 0.4645 0.5101
Co7 Co 0.06125(4) 0.27597(4) 0.49393(4)
Co8 Co 0.14318(4) 0.16133(4) 0.39843(4)
Co12 Co 0.27597(4) 0.49393(4) 0.06125(4)
Co15 Co 0.10157(4) 0.64318(4) 0.16133(4)
Co16 Co 0.50607(4) 0.56125(4) 0.22403(4)
O36 O 0.3345(2) 0.1032(2) 0.2277(2)
O37 O 0.4487(2) 0.2095(2) 0.2151(2)
O38 O 0.3968(2) 0.7277(2) 0.3345(2)
O39 O 0.2905(2) 0.7151(2) 0.4487(2)
O40 O 0.4321(2) 0.6730(2) 0.4669(2)
O41 O 0.5707(3) 0.3059(2) 0.0985(2)
O44 O 0.5679(2) 0.1730(2) 0.0331(2)
O45 O 0.1941(2) 0.5985(2) 0.5707(3)
O46 O 0.2185(2) 0.4807(2) 0.6596(2)
O47 O 0.2459(2) 0.4102(2) 0.5426(2)
O48 O 0.3270(2) 0.5331(2) 0.5679(2)
Co17 Co 0.49393(4) 0.06125(4) 0.27597(4)
H25 H 0.4231 0.6467 0.5054
H26 H 0.4732 0.6585 0.4483
H28 H 0.5268 0.1585 0.0517
H29 H 0.3533 0.4946 0.5769
H30 H 0.3415 0.5517 0.5268
H11 H 0.3007 0.2068 0.9915
C14 C 0.2088(3) 0.2461(3) 0.9963(3)
O17 O 0.2095(2) 0.2849(2) 0.9487(2)
O32 O 0.5485(4) 0.3741(4) 0.9843(3)
H21 H 0.5812 0.4040 0.9943
H22 H 0.5101 0.3882 0.9645
Co11 Co 0.06125(4) 0.22403(4) 0.99393(4)
Co13 Co 0.14318(4) 0.33867(4) 0.89843(4)
O42 O 0.6596(2) 0.2815(2) 0.9807(2)
O43 O 0.5426(2) 0.2541(2) 0.9102(2)
H27 H 0.5769 0.1467 0.9946
Co14 Co 0.22403(4) 0.99393(4) 0.06125(4)
H3 H 0.9915 0.3007 0.2068
C6 C 0.9963(3) 0.2088(3) 0.2461(3)
O6 O 0.9487(2) 0.2095(2) 0.2849(2)
O11 O 0.9843(3) 0.5485(4) 0.3741(4)
H7 H 0.9943 0.5812 0.4040
H8 H 0.9645 0.5101 0.3882
H17 H 0.9946 0.5769 0.1467
O34 O 0.9807(2) 0.6596(2) 0.2815(2)
O35 O 0.9102(2) 0.5426(2) 0.2541(2)
Co9 Co 0.89843(4) 0.14318(4) 0.33867(4)
Co10 Co 0.99393(4) 0.06125(4) 0.22403(4)
Co2_2 Co 0.27597(4) 0.00607(4) 0.56125(4)
O1_2 O 0.21616(19) 0.1269(2) 0.33112(19)
C1_2 C 0.2657(3) 0.0910(3) 0.3664(3)
H1_2 H 0.3010 0.1212 0.3780
C2_2 C 0.2380(3) 0.0618(3) 0.4288(3)
O2_2 O 0.1832(2) 0.0808(2) 0.4486(2)
O3_2 O 0.2740(2) 0.0228(3) 0.4590(2)
C3_2 C 0.2918(3) 0.0418(3) 0.3163(3)
H2_2 H 0.3080 0.0026 0.3388
C4_2 C 0.3468(3) 0.0741(3) 0.2788(3)
O4_2 O 0.4015(2) 0.0707(3) 0.3059(2)
C5_2 C 0.2310(3) 0.0249(3) 0.2762(3)
O7_2 O 0.2185(2) 0.0193(2) 0.1596(2)
C7_2 C 0.1901(3) 0.0875(3) 0.2782(3)
H4_2 H 0.1951 0.1111 0.2368
C8_2 C 0.1184(3) 0.0739(3) 0.2902(3)
O8_2 O 0.0898(2) 0.0426(2) 0.2459(2)
O9_2 O 0.0918(2) 0.0934(2) 0.3416(2)
O10_2 O 0.0679(2) 0.1730(2) 0.4669(2)
H5_2 H 0.0769 0.1467 0.5054
H6_2 H 0.0268 0.1585 0.4483
O21_2 O 0.33112(19) 0.28384(19) 0.6269(2)
C17_2 C 0.3664(3) 0.2343(3) 0.5910(3)
H13_2 H 0.3780 0.1990 0.6212
C18_2 C 0.4288(3) 0.2620(3) 0.5618(3)
O22_2 O 0.4486(2) 0.3168(2) 0.5808(2)
O23_2 O 0.4590(2) 0.2260(2) 0.5228(3)
C19_2 C 0.3163(3) 0.2082(3) 0.5418(3)
H14_2 H 0.3388 0.1920 0.5026
C20_2 C 0.2788(3) 0.1532(3) 0.5741(3)
O24_2 O 0.3059(2) 0.0985(2) 0.5707(3)
O25_2 O 0.2277(2) 0.1655(2) 0.6032(2)
C21_2 C 0.2762(3) 0.2690(3) 0.5249(3)
H15_2 H 0.3007 0.2932 0.4915
C22_2 C 0.2088(3) 0.2539(3) 0.4963(3)
O26_2 O 0.2095(2) 0.2151(2) 0.4487(2)
O27_2 O 0.1596(2) 0.2815(2) 0.5193(2)
C23_2 C 0.2782(3) 0.3099(3) 0.5875(3)
H16_2 H 0.2368 0.3049 0.6111
C24_2 C 0.2902(3) 0.3816(3) 0.5739(3)
O29_2 O 0.3416(2) 0.4082(2) 0.5934(2)
Co4_2 Co 0.39843(4) 0.35682(4) 0.66133(4)
Co6_2 Co 0.56125(4) 0.22403(4) 0.50607(4)
O30_2 O 0.1730(2) 0.0331(2) 0.5679(2)
H18_2 H 0.1585 0.0517 0.5268
O33_2 O 0.5485(4) 0.1259(4) 0.4843(3)
H23_2 H 0.5812 0.0960 0.4943
H24_2 H 0.5101 0.1118 0.4645
Co15_2 Co 0.16133(4) 0.10157(4) 0.64318(4)
O38_2 O 0.3345(2) 0.3968(2) 0.7277(2)
O39_2 O 0.4487(2) 0.2905(2) 0.7151(2)
O40_2 O 0.4669(2) 0.4321(2) 0.6730(2)
O45_2 O 0.5707(3) 0.1941(2) 0.5985(2)
O46_2 O 0.6596(2) 0.2185(2) 0.4807(2)
O47_2 O 0.5426(2) 0.2459(2) 0.4102(2)
O48_2 O 0.5679(2) 0.3270(2) 0.5331(2)
H25_2 H 0.5054 0.4231 0.6467
H26_2 H 0.4483 0.4732 0.6585
H29_2 H 0.5769 0.3533 0.4946
H30_2 H 0.5268 0.3415 0.5517
H3_2 H 0.2068 0.9915 0.3007
C6_2 C 0.2461(3) 0.9963(3) 0.2088(3)
O6_2 O 0.2849(2) 0.9487(2) 0.2095(2)
O11_2 O 0.3741(4) 0.9843(3) 0.5485(4)
H7_2 H 0.4040 0.9943 0.5812
H8_2 H 0.3882 0.9645 0.5101
H17_2 H 0.1467 0.9946 0.5769
O34_2 O 0.2815(2) 0.9807(2) 0.6596(2)
O35_2 O 0.2541(2) 0.9102(2) 0.5426(2)
Co9_2 Co 0.33867(4) 0.89843(4) 0.14318(4)
O21_3 O 0.6269(2) 0.33112(19) 0.28384(19)
C17_3 C 0.5910(3) 0.3664(3) 0.2343(3)
H13_3 H 0.6212 0.3780 0.1990
C18_3 C 0.5618(3) 0.4288(3) 0.2620(3)
O22_3 O 0.5808(2) 0.4486(2) 0.3168(2)
O23_3 O 0.5228(3) 0.4590(2) 0.2260(2)
C19_3 C 0.5418(3) 0.3163(3) 0.2082(3)
H14_3 H 0.5026 0.3388 0.1920
C20_3 C 0.5741(3) 0.2788(3) 0.1532(3)
O25_3 O 0.6032(2) 0.2277(2) 0.1655(2)
C21_3 C 0.5249(3) 0.2762(3) 0.2690(3)
H15_3 H 0.4915 0.3007 0.2932
C22_3 C 0.4963(3) 0.2088(3) 0.2539(3)
O27_3 O 0.5193(2) 0.1596(2) 0.2815(2)
C23_3 C 0.5875(3) 0.2782(3) 0.3099(3)
H16_3 H 0.6111 0.2368 0.3049
C24_3 C 0.5739(3) 0.2902(3) 0.3816(3)
O29_3 O 0.5934(2) 0.3416(2) 0.4082(2)
Co4_3 Co 0.66133(4) 0.39843(4) 0.35682(4)
O33_3 O 0.4843(3) 0.5485(4) 0.1259(4)
H23_3 H 0.4943 0.5812 0.0960
H24_3 H 0.4645 0.5101 0.1118
Co15_3 Co 0.64318(4) 0.16133(4) 0.10157(4)
O38_3 O 0.7277(2) 0.3345(2) 0.3968(2)
O39_3 O 0.7151(2) 0.4487(2) 0.2905(2)
O40_3 O 0.6730(2) 0.4669(2) 0.4321(2)
O45_3 O 0.5985(2) 0.5707(3) 0.1941(2)
O46_3 O 0.4807(2) 0.6596(2) 0.2185(2)
O48_3 O 0.5331(2) 0.5679(2) 0.3270(2)
H25_3 H 0.6467 0.5054 0.4231
H26_3 H 0.6585 0.4483 0.4732
H29_3 H 0.4946 0.5769 0.3533
H30_3 H 0.5517 0.5268 0.3415
O33_4 O 0.3741(4) 0.5157(3) 0.0485(4)
H23_4 H 0.4040 0.5057 0.0812
H24_4 H 0.3882 0.5355 0.0101
O47_3 O 0.2541(2) 0.5898(2) 0.0426(2)
H25_4 H 0.0769 0.3533 0.0054
Co1_2 Co 0.33867(4) 0.60157(4) 0.64318(4)
Co2_3 Co 0.49393(4) 0.43875(4) 0.77597(4)
O1_3 O 0.3731(2) 0.66888(19) 0.71616(19)
C1_3 C 0.4090(3) 0.6336(3) 0.7657(3)
H1_3 H 0.3788 0.6220 0.8010
C2_3 C 0.4382(3) 0.5712(3) 0.7380(3)
O2_3 O 0.4192(2) 0.5514(2) 0.6832(2)
O3_3 O 0.4772(3) 0.5410(2) 0.7740(2)
C3_3 C 0.4582(3) 0.6837(3) 0.7918(3)
H2_3 H 0.4974 0.6612 0.8080
C4_3 C 0.4259(3) 0.7212(3) 0.8468(3)
O4_3 O 0.4293(3) 0.6941(2) 0.9015(2)
O5_2 O 0.3968(2) 0.7723(2) 0.8345(2)
C5_3 C 0.4751(3) 0.7238(3) 0.7310(3)
H3_3 H 0.5085 0.6993 0.7068
C6_3 C 0.5037(3) 0.7912(3) 0.7461(3)
O6_3 O 0.5513(2) 0.7905(2) 0.7849(2)
O7_3 O 0.4807(2) 0.8404(2) 0.7185(2)
C7_3 C 0.4125(3) 0.7218(3) 0.6901(3)
H4_3 H 0.3889 0.7632 0.6951
C8_3 C 0.4261(3) 0.7098(3) 0.6184(3)
O8_3 O 0.4574(2) 0.7541(2) 0.5898(2)
O9_3 O 0.4066(2) 0.6584(2) 0.5918(2)
O11_3 O 0.5157(3) 0.4515(4) 0.8741(4)
H7_3 H 0.5057 0.4188 0.9040
H8_3 H 0.5355 0.4899 0.8882
O12_2 O 0.16888(19) 0.78384(19) 0.6269(2)
C9_2 C 0.1336(3) 0.7343(3) 0.5910(3)
H9_2 H 0.1220 0.6990 0.6212
C10_2 C 0.0712(3) 0.7620(3) 0.5618(3)
O13_2 O 0.0514(2) 0.8168(2) 0.5808(2)
O14_2 O 0.0410(2) 0.7260(2) 0.5228(3)
C11_2 C 0.1837(3) 0.7082(3) 0.5418(3)
H10_2 H 0.1612 0.6920 0.5026
C12_2 C 0.2212(3) 0.6532(3) 0.5741(3)
O16_2 O 0.2723(2) 0.6655(2) 0.6032(2)
C13_2 C 0.2238(3) 0.7690(3) 0.5249(3)
H11_2 H 0.1993 0.7932 0.4915
C14_2 C 0.2912(3) 0.7539(3) 0.4963(3)
O18_2 O 0.3404(2) 0.7815(2) 0.5193(2)
C15_2 C 0.2218(3) 0.8099(3) 0.5875(3)
H12_2 H 0.2632 0.8049 0.6111
C16_2 C 0.2098(3) 0.8816(3) 0.5739(3)
O20_2 O 0.1584(2) 0.9082(2) 0.5934(2)
O21_4 O 0.21616(19) 0.3731(2) 0.83112(19)
C17_4 C 0.2657(3) 0.4090(3) 0.8664(3)
H13_4 H 0.3010 0.3788 0.8780
C18_4 C 0.2380(3) 0.4382(3) 0.9288(3)
O22_4 O 0.1832(2) 0.4192(2) 0.9486(2)
O23_4 O 0.2740(2) 0.4772(3) 0.9590(2)
C19_4 C 0.2918(3) 0.4582(3) 0.8163(3)
H14_4 H 0.3080 0.4974 0.8388
C20_4 C 0.3468(3) 0.4259(3) 0.7788(3)
O24_3 O 0.4015(2) 0.4293(3) 0.8059(2)
C21_4 C 0.2310(3) 0.4751(3) 0.7762(3)
H15_4 H 0.2068 0.5085 0.8007
C22_4 C 0.2461(3) 0.5037(3) 0.7088(3)
O26_3 O 0.2849(2) 0.5513(2) 0.7095(2)
C23_4 C 0.1901(3) 0.4125(3) 0.7782(3)
H16_4 H 0.1951 0.3889 0.7368
C24_4 C 0.1184(3) 0.4261(3) 0.7902(3)
O28_2 O 0.0898(2) 0.4574(2) 0.7459(2)
O29_4 O 0.0918(2) 0.4066(2) 0.8416(2)
Co3_2 Co 0.10157(4) 0.85682(4) 0.66133(4)
O31_2 O 0.0331(2) 0.9321(2) 0.6730(2)
H20_2 H 0.0517 0.9732 0.6585
O34_3 O 0.5193(2) 0.3404(2) 0.7815(2)
O35_3 O 0.5898(2) 0.4574(2) 0.7541(2)
Co7_2 Co 0.43875(4) 0.72403(4) 0.99393(4)
Co8_2 Co 0.35682(4) 0.83867(4) 0.89843(4)
Co9_3 Co 0.60157(4) 0.85682(4) 0.83867(4)
Co10_2 Co 0.50607(4) 0.93875(4) 0.72403(4)
Co11_2 Co 0.43875(4) 0.77597(4) 0.49393(4)
O36_2 O 0.1655(2) 0.8968(2) 0.7277(2)
O37_2 O 0.0513(2) 0.7905(2) 0.7151(2)
O38_4 O 0.1032(2) 0.2723(2) 0.8345(2)
O40_4 O 0.0679(2) 0.3270(2) 0.9669(2)
Co17_2 Co 0.00607(4) 0.93875(4) 0.77597(4)
H26_4 H 0.0268 0.3415 0.9483
Co5_2 Co 0.93875(4) 0.72403(4) 0.50607(4)
H19_2 H 0.9946 0.9231 0.6467
O32_2 O 0.9515(4) 0.6259(4) 0.4843(3)
H21_2 H 0.9188 0.5960 0.4943
H22_2 H 0.9899 0.6118 0.4645
Co16_2 Co 0.99393(4) 0.43875(4) 0.72403(4)
O41_2 O 0.9293(3) 0.6941(2) 0.5985(2)
O42_2 O 0.8404(2) 0.7185(2) 0.4807(2)
O43_2 O 0.9574(2) 0.7459(2) 0.4102(2)
O44_2 O 0.9321(2) 0.8270(2) 0.5331(2)
H27_2 H 0.9231 0.8533 0.4946
H28_2 H 0.9732 0.8415 0.5517
O11_4 O 0.0157(3) 0.0485(4) 0.1259(4)
H7_4 H 0.0057 0.0812 0.0960
H8_4 H 0.0355 0.0101 0.1118
H17_3 H 0.0054 0.0769 0.3533
H3_4 H 0.0085 0.8007 0.2932
C6_4 C 0.0037(3) 0.7088(3) 0.2539(3)
O6_4 O 0.0513(2) 0.7095(2) 0.2151(2)
H5_3 H 0.8533 0.0054 0.4231
O21_5 O 0.71616(19) 0.1269(2) 0.16888(19)
C17_5 C 0.7657(3) 0.0910(3) 0.1336(3)
H13_5 H 0.8010 0.1212 0.1220
C18_5 C 0.7380(3) 0.0618(3) 0.0712(3)
O22_5 O 0.6832(2) 0.0808(2) 0.0514(2)
O23_5 O 0.7740(2) 0.0228(3) 0.0410(2)
C19_5 C 0.7918(3) 0.0418(3) 0.1837(3)
H14_5 H 0.8080 0.0026 0.1612
C20_5 C 0.8468(3) 0.0741(3) 0.2212(3)
O24_4 O 0.9015(2) 0.0707(3) 0.1941(2)
O25_4 O 0.8345(2) 0.1032(2) 0.2723(2)
C21_5 C 0.7310(3) 0.0249(3) 0.2238(3)
O27_4 O 0.7185(2) 0.0193(2) 0.3404(2)
C23_5 C 0.6901(3) 0.0875(3) 0.2218(3)
H16_5 H 0.6951 0.1111 0.2632
C24_5 C 0.6184(3) 0.0739(3) 0.2098(3)
O28_3 O 0.5898(2) 0.0426(2) 0.2541(2)
O29_5 O 0.5918(2) 0.0934(2) 0.1584(2)
O30_3 O 0.9669(2) 0.0679(2) 0.3270(2)
H18_3 H 0.9483 0.0268 0.3415
O39_4 O 0.7095(2) 0.2151(2) 0.0513(2)
Co6_3 Co 0.77597(4) 0.00607(4) 0.93875(4)
O45_4 O 0.8059(2) 0.0985(2) 0.9293(3)
O48_4 O 0.6730(2) 0.0331(2) 0.9321(2)
H30_4 H 0.6585 0.0517 0.9732
Co1_3 Co 0.83867(4) 0.89843(4) 0.35682(4)
O1_4 O 0.8731(2) 0.83112(19) 0.28384(19)
C1_4 C 0.9090(3) 0.8664(3) 0.2343(3)
H1_4 H 0.8788 0.8780 0.1990
C2_4 C 0.9382(3) 0.9288(3) 0.2620(3)
O2_4 O 0.9192(2) 0.9486(2) 0.3168(2)
O3_4 O 0.9772(3) 0.9590(2) 0.2260(2)
C3_4 C 0.9582(3) 0.8163(3) 0.2082(3)
H2_4 H 0.9974 0.8388 0.1920
C4_4 C 0.9259(3) 0.7788(3) 0.1532(3)
O4_4 O 0.9293(3) 0.8059(2) 0.0985(2)
O5_3 O 0.8968(2) 0.7277(2) 0.1655(2)
C5_4 C 0.9751(3) 0.7762(3) 0.2690(3)
C7_4 C 0.9125(3) 0.7782(3) 0.3099(3)
H4_4 H 0.8889 0.7368 0.3049
C8_4 C 0.9261(3) 0.7902(3) 0.3816(3)
O9_4 O 0.9066(2) 0.8416(2) 0.4082(2)
O10_3 O 0.8270(2) 0.9669(2) 0.4321(2)
H6_3 H 0.8415 0.9483 0.4732
O12_3 O 0.66888(19) 0.71616(19) 0.3731(2)
C9_3 C 0.6336(3) 0.7657(3) 0.4090(3)
H9_3 H 0.6220 0.8010 0.3788
C10_3 C 0.5712(3) 0.7380(3) 0.4382(3)
O13_3 O 0.5514(2) 0.6832(2) 0.4192(2)
O14_3 O 0.5410(2) 0.7740(2) 0.4772(3)
C11_3 C 0.6837(3) 0.7918(3) 0.4582(3)
H10_3 H 0.6612 0.8080 0.4974
C12_3 C 0.7212(3) 0.8468(3) 0.4259(3)
O15_2 O 0.6941(2) 0.9015(2) 0.4293(3)
O16_3 O 0.7723(2) 0.8345(2) 0.3968(2)
C13_3 C 0.7238(3) 0.7310(3) 0.4751(3)
H11_3 H 0.6993 0.7068 0.5085
C14_3 C 0.7912(3) 0.7461(3) 0.5037(3)
O17_2 O 0.7905(2) 0.7849(2) 0.5513(2)
C15_3 C 0.7218(3) 0.6901(3) 0.4125(3)
H12_3 H 0.7632 0.6951 0.3889
C16_3 C 0.7098(3) 0.6184(3) 0.4261(3)
O19_2 O 0.7541(2) 0.5898(2) 0.4574(2)
O20_3 O 0.6584(2) 0.5918(2) 0.4066(2)
H15_5 H 0.7068 0.9915 0.1993
C22_5 C 0.7461(3) 0.9963(3) 0.2912(3)
O26_4 O 0.7849(2) 0.9487(2) 0.2905(2)
Co3_3 Co 0.60157(4) 0.64318(4) 0.33867(4)
O32_3 O 0.4515(4) 0.8741(4) 0.5157(3)
H21_3 H 0.4188 0.9040 0.5057
H22_3 H 0.4899 0.8882 0.5355
Co7_3 Co 0.93875(4) 0.77597(4) 0.00607(4)
Co8_3 Co 0.85682(4) 0.66133(4) 0.10157(4)
Co12_2 Co 0.72403(4) 0.99393(4) 0.43875(4)
Co13_2 Co 0.85682(4) 0.83867(4) 0.60157(4)
Co14_2 Co 0.77597(4) 0.49393(4) 0.43875(4)
O36_3 O 0.6655(2) 0.6032(2) 0.2723(2)
O37_3 O 0.5513(2) 0.7095(2) 0.2849(2)
O41_3 O 0.4293(3) 0.8059(2) 0.4015(2)
O33_5 O 0.8741(4) 0.9843(3) 0.9515(4)
H23_5 H 0.9040 0.9943 0.9188
H24_5 H 0.8882 0.9645 0.9899
O46_4 O 0.7815(2) 0.9807(2) 0.8404(2)
O47_4 O 0.7541(2) 0.9102(2) 0.9574(2)
H29_4 H 0.6467 0.9946 0.9231
O32_4 O 0.0485(4) 0.1259(4) 0.0157(3)
H21_4 H 0.0812 0.0960 0.0057
H22_4 H 0.0101 0.1118 0.0355
H19_3 H 0.0054 0.4231 0.8533
O41_4 O 0.0707(3) 0.1941(2) 0.9015(2)
H11_4 H 0.8007 0.2932 0.0085
C14_4 C 0.7088(3) 0.2539(3) 0.0037(3)
Co1_4 Co 0.66133(4) 0.10157(4) 0.85682(4)
O1_5 O 0.6269(2) 0.16888(19) 0.78384(19)
C1_5 C 0.5910(3) 0.1336(3) 0.7343(3)
H1_5 H 0.6212 0.1220 0.6990
C2_5 C 0.5618(3) 0.0712(3) 0.7620(3)
O2_5 O 0.5808(2) 0.0514(2) 0.8168(2)
O3_5 O 0.5228(3) 0.0410(2) 0.7260(2)
C3_5 C 0.5418(3) 0.1837(3) 0.7082(3)
H2_5 H 0.5026 0.1612 0.6920
C4_5 C 0.5741(3) 0.2212(3) 0.6532(3)
O5_4 O 0.6032(2) 0.2723(2) 0.6655(2)
C5_5 C 0.5249(3) 0.2238(3) 0.7690(3)
H3_5 H 0.4915 0.1993 0.7932
C6_5 C 0.4963(3) 0.2912(3) 0.7539(3)
C7_5 C 0.5875(3) 0.2218(3) 0.8099(3)
H4_5 H 0.6111 0.2632 0.8049
C8_5 C 0.5739(3) 0.2098(3) 0.8816(3)
O9_5 O 0.5934(2) 0.1584(2) 0.9082(2)
O12_4 O 0.83112(19) 0.28384(19) 0.8731(2)
C9_4 C 0.8664(3) 0.2343(3) 0.9090(3)
H9_4 H 0.8780 0.1990 0.8788
C10_4 C 0.9288(3) 0.2620(3) 0.9382(3)
O13_4 O 0.9486(2) 0.3168(2) 0.9192(2)
O14_4 O 0.9590(2) 0.2260(2) 0.9772(3)
C11_4 C 0.8163(3) 0.2082(3) 0.9582(3)
H10_4 H 0.8388 0.1920 0.9974
C12_4 C 0.7788(3) 0.1532(3) 0.9259(3)
O16_4 O 0.7277(2) 0.1655(2) 0.8968(2)
C13_4 C 0.7762(3) 0.2690(3) 0.9751(3)
C15_4 C 0.7782(3) 0.3099(3) 0.9125(3)
H12_4 H 0.7368 0.3049 0.8889
C16_4 C 0.7902(3) 0.3816(3) 0.9261(3)
O19_3 O 0.7459(2) 0.4102(2) 0.9574(2)
O20_4 O 0.8416(2) 0.4082(2) 0.9066(2)
H15_6 H 0.7932 0.0085 0.6993
C22_6 C 0.7539(3) 0.0037(3) 0.7912(3)
O26_5 O 0.7151(2) 0.0513(2) 0.7905(2)
Co3_4 Co 0.89843(4) 0.35682(4) 0.83867(4)
O31_3 O 0.9669(2) 0.4321(2) 0.8270(2)
H20_3 H 0.9483 0.4732 0.8415
O33_6 O 0.6259(4) 0.0157(3) 0.4515(4)
H23_6 H 0.5960 0.0057 0.4188
H24_6 H 0.6118 0.0355 0.4899
Co8_4 Co 0.64318(4) 0.33867(4) 0.60157(4)
Co14_3 Co 0.72403(4) 0.50607(4) 0.93875(4)
O36_4 O 0.8345(2) 0.3968(2) 0.7723(2)
O37_4 O 0.9487(2) 0.2905(2) 0.7849(2)
O47_5 O 0.7459(2) 0.0898(2) 0.4574(2)
O11_5 O 0.4843(3) 0.9515(4) 0.6259(4)
H7_5 H 0.4943 0.9188 0.5960
H8_5 H 0.4645 0.9899 0.6118
O21_6 O 0.78384(19) 0.8731(2) 0.66888(19)
C17_6 C 0.7343(3) 0.9090(3) 0.6336(3)
H13_6 H 0.6990 0.8788 0.6220
C18_6 C 0.7620(3) 0.9382(3) 0.5712(3)
O22_6 O 0.8168(2) 0.9192(2) 0.5514(2)
O23_6 O 0.7260(2) 0.9772(3) 0.5410(2)
C19_6 C 0.7082(3) 0.9582(3) 0.6837(3)
H14_6 H 0.6920 0.9974 0.6612
C20_6 C 0.6532(3) 0.9259(3) 0.7212(3)
O24_5 O 0.5985(2) 0.9293(3) 0.6941(2)
O25_5 O 0.6655(2) 0.8968(2) 0.7723(2)
C21_6 C 0.7690(3) 0.9751(3) 0.7238(3)
C23_6 C 0.8099(3) 0.9125(3) 0.7218(3)
H16_6 H 0.8049 0.8889 0.7632
C24_6 C 0.8816(3) 0.9261(3) 0.7098(3)
O28_4 O 0.9102(2) 0.9574(2) 0.7541(2)
O29_6 O 0.9082(2) 0.9066(2) 0.6584(2)
O30_4 O 0.5331(2) 0.9321(2) 0.8270(2)
H17_4 H 0.4946 0.9231 0.8533
H18_4 H 0.5517 0.9732 0.8415
O35_4 O 0.4102(2) 0.9574(2) 0.7459(2)
O38_5 O 0.8968(2) 0.7723(2) 0.6655(2)
O33_7 O 0.0485(4) 0.3741(4) 0.5157(3)
H23_7 H 0.0812 0.4040 0.5057
H24_7 H 0.0101 0.3882 0.5355
O47_6 O 0.0426(2) 0.2541(2) 0.5898(2)
O1_6 O 0.71616(19) 0.3731(2) 0.66888(19)
C1_6 C 0.7657(3) 0.4090(3) 0.6336(3)
H1_6 H 0.8010 0.3788 0.6220
C2_6 C 0.7380(3) 0.4382(3) 0.5712(3)
O2_6 O 0.6832(2) 0.4192(2) 0.5514(2)
O3_6 O 0.7740(2) 0.4772(3) 0.5410(2)
C3_6 C 0.7918(3) 0.4582(3) 0.6837(3)
H2_6 H 0.8080 0.4974 0.6612
C4_6 C 0.8468(3) 0.4259(3) 0.7212(3)
O4_5 O 0.9015(2) 0.4293(3) 0.6941(2)
C5_6 C 0.7310(3) 0.4751(3) 0.7238(3)
H3_6 H 0.7068 0.5085 0.6993
C6_6 C 0.7461(3) 0.5037(3) 0.7912(3)
O6_5 O 0.7849(2) 0.5513(2) 0.7905(2)
O7_4 O 0.7185(2) 0.4807(2) 0.8404(2)
C7_6 C 0.6901(3) 0.4125(3) 0.7218(3)
H4_6 H 0.6951 0.3889 0.7632
C8_6 C 0.6184(3) 0.4261(3) 0.7098(3)
O9_6 O 0.5918(2) 0.4066(2) 0.6584(2)
O11_6 O 0.8741(4) 0.5157(3) 0.4515(4)
H7_6 H 0.9040 0.5057 0.4188
H8_6 H 0.8882 0.5355 0.4899
O21_7 O 0.83112(19) 0.21616(19) 0.3731(2)
C17_7 C 0.8664(3) 0.2657(3) 0.4090(3)
H13_7 H 0.8780 0.3010 0.3788
C18_7 C 0.9288(3) 0.2380(3) 0.4382(3)
O22_7 O 0.9486(2) 0.1832(2) 0.4192(2)
O23_7 O 0.9590(2) 0.2740(2) 0.4772(3)
C19_7 C 0.8163(3) 0.2918(3) 0.4582(3)
H14_7 H 0.8388 0.3080 0.4974
C20_7 C 0.7788(3) 0.3468(3) 0.4259(3)
O24_6 O 0.8059(2) 0.4015(2) 0.4293(3)
C21_7 C 0.7762(3) 0.2310(3) 0.4751(3)
H15_7 H 0.8007 0.2068 0.5085
C22_7 C 0.7088(3) 0.2461(3) 0.5037(3)
O26_6 O 0.7095(2) 0.2849(2) 0.5513(2)
C23_7 C 0.7782(3) 0.1901(3) 0.4125(3)
H16_7 H 0.7368 0.1951 0.3889
C24_7 C 0.7902(3) 0.1184(3) 0.4261(3)
O29_7 O 0.8416(2) 0.0918(2) 0.4066(2)
O34_4 O 0.7815(2) 0.5193(2) 0.3404(2)
Co9_4 Co 0.83867(4) 0.60157(4) 0.85682(4)
O11_7 O 0.1259(4) 0.0157(3) 0.0485(4)
H7_7 H 0.0960 0.0057 0.0812
H8_7 H 0.1118 0.0355 0.0101
H17_5 H 0.3533 0.0054 0.0769
H3_7 H 0.2932 0.0085 0.8007
C6_7 C 0.2539(3) 0.0037(3) 0.7088(3)
O6_6 O 0.2151(2) 0.0513(2) 0.7095(2)
H5_4 H 0.4231 0.8533 0.0054
O21_8 O 0.16888(19) 0.71616(19) 0.1269(2)
C17_8 C 0.1336(3) 0.7657(3) 0.0910(3)
H13_8 H 0.1220 0.8010 0.1212
C18_8 C 0.0712(3) 0.7380(3) 0.0618(3)
O22_8 O 0.0514(2) 0.6832(2) 0.0808(2)
O23_8 O 0.0410(2) 0.7740(2) 0.0228(3)
C19_8 C 0.1837(3) 0.7918(3) 0.0418(3)
H14_8 H 0.1612 0.8080 0.0026
C20_8 C 0.2212(3) 0.8468(3) 0.0741(3)
O24_7 O 0.1941(2) 0.9015(2) 0.0707(3)
O25_6 O 0.2723(2) 0.8345(2) 0.1032(2)
C21_8 C 0.2238(3) 0.7310(3) 0.0249(3)
O27_5 O 0.3404(2) 0.7185(2) 0.0193(2)
C23_8 C 0.2218(3) 0.6901(3) 0.0875(3)
H16_8 H 0.2632 0.6951 0.1111
C24_8 C 0.2098(3) 0.6184(3) 0.0739(3)
O29_8 O 0.1584(2) 0.5918(2) 0.0934(2)
O30_5 O 0.3270(2) 0.9669(2) 0.0679(2)
H18_5 H 0.3415 0.9483 0.0268
O1_7 O 0.28384(19) 0.8731(2) 0.83112(19)
C1_7 C 0.2343(3) 0.9090(3) 0.8664(3)
H1_7 H 0.1990 0.8788 0.8780
C2_7 C 0.2620(3) 0.9382(3) 0.9288(3)
O2_7 O 0.3168(2) 0.9192(2) 0.9486(2)
O3_7 O 0.2260(2) 0.9772(3) 0.9590(2)
C3_7 C 0.2082(3) 0.9582(3) 0.8163(3)
H2_7 H 0.1920 0.9974 0.8388
C4_7 C 0.1532(3) 0.9259(3) 0.7788(3)
O4_6 O 0.0985(2) 0.9293(3) 0.8059(2)
C5_7 C 0.2690(3) 0.9751(3) 0.7762(3)
C7_7 C 0.3099(3) 0.9125(3) 0.7782(3)
H4_7 H 0.3049 0.8889 0.7368
C8_7 C 0.3816(3) 0.9261(3) 0.7902(3)
O9_7 O 0.4082(2) 0.9066(2) 0.8416(2)
O10_4 O 0.4321(2) 0.8270(2) 0.9669(2)
H6_4 H 0.4732 0.8415 0.9483
H15_8 H 0.1993 0.7068 0.9915
C22_8 C 0.2912(3) 0.7461(3) 0.9963(3)
O26_7 O 0.2905(2) 0.7849(2) 0.9487(2)
O48_5 O 0.9321(2) 0.6730(2) 0.0331(2)
H30_5 H 0.9732 0.6585 0.0517
O33_8 O 0.9515(4) 0.8741(4) 0.9843(3)
H23_8 H 0.9188 0.9040 0.9943
H24_8 H 0.9899 0.8882 0.9645
O46_5 O 0.8404(2) 0.7815(2) 0.9807(2)
O47_7 O 0.9574(2) 0.7541(2) 0.9102(2)
H29_5 H 0.9231 0.6467 0.9946
O1_8 O 0.78384(19) 0.6269(2) 0.16888(19)
C1_8 C 0.7343(3) 0.5910(3) 0.1336(3)
H1_8 H 0.6990 0.6212 0.1220
C2_8 C 0.7620(3) 0.5618(3) 0.0712(3)
O2_8 O 0.8168(2) 0.5808(2) 0.0514(2)
O3_8 O 0.7260(2) 0.5228(3) 0.0410(2)
C3_8 C 0.7082(3) 0.5418(3) 0.1837(3)
H2_8 H 0.6920 0.5026 0.1612
C4_8 C 0.6532(3) 0.5741(3) 0.2212(3)
C5_8 C 0.7690(3) 0.5249(3) 0.2238(3)
H3_8 H 0.7932 0.4915 0.1993
C6_8 C 0.7539(3) 0.4963(3) 0.2912(3)
C7_8 C 0.8099(3) 0.5875(3) 0.2218(3)
H4_8 H 0.8049 0.6111 0.2632
C8_8 C 0.8816(3) 0.5739(3) 0.2098(3)
O9_8 O 0.9082(2) 0.5934(2) 0.1584(2)
H15_9 H 0.6993 0.7932 0.0085
C22_9 C 0.7912(3) 0.7539(3) 0.0037(3)
O26_8 O 0.7905(2) 0.7151(2) 0.0513(2)
O33_9 O 0.4515(4) 0.6259(4) 0.0157(3)
H23_9 H 0.4188 0.5960 0.0057
H24_9 H 0.4899 0.6118 0.0355
O47_8 O 0.4574(2) 0.7459(2) 0.0898(2)
O11_8 O 0.6259(4) 0.4843(3) 0.9515(4)
H7_8 H 0.5960 0.4943 0.9188
H8_8 H 0.6118 0.4645 0.9899
O21_9 O 0.66888(19) 0.78384(19) 0.8731(2)
C17_9 C 0.6336(3) 0.7343(3) 0.9090(3)
H13_9 H 0.6220 0.6990 0.8788
C18_9 C 0.5712(3) 0.7620(3) 0.9382(3)
O22_9 O 0.5514(2) 0.8168(2) 0.9192(2)
O23_9 O 0.5410(2) 0.7260(2) 0.9772(3)
C19_9 C 0.6837(3) 0.7082(3) 0.9582(3)
H14_9 H 0.6612 0.6920 0.9974
C20_9 C 0.7212(3) 0.6532(3) 0.9259(3)
O24_8 O 0.6941(2) 0.5985(2) 0.9293(3)
O25_7 O 0.7723(2) 0.6655(2) 0.8968(2)
C21_9 C 0.7238(3) 0.7690(3) 0.9751(3)
C23_9 C 0.7218(3) 0.8099(3) 0.9125(3)
H16_9 H 0.7632 0.8049 0.8889
C24_9 C 0.7098(3) 0.8816(3) 0.9261(3)
O29_9 O 0.6584(2) 0.9082(2) 0.9066(2)
O30_6 O 0.8270(2) 0.5331(2) 0.9321(2)
H17_6 H 0.8533 0.4946 0.9231
H18_6 H 0.8415 0.5517 0.9732
O33_10 O 0.5157(3) 0.0485(4) 0.3741(4)
H23_10 H 0.5057 0.0812 0.4040
H24_10 H 0.5355 0.0101 0.3882
O21_10 O 0.3731(2) 0.83112(19) 0.21616(19)
C17_10 C 0.4090(3) 0.8664(3) 0.2657(3)
H13_10 H 0.3788 0.8780 0.3010
C18_10 C 0.4382(3) 0.9288(3) 0.2380(3)
O22_10 O 0.4192(2) 0.9486(2) 0.1832(2)
O23_10 O 0.4772(3) 0.9590(2) 0.2740(2)
C19_10 C 0.4582(3) 0.8163(3) 0.2918(3)
H14_10 H 0.4974 0.8388 0.3080
C20_10 C 0.4259(3) 0.7788(3) 0.3468(3)
C21_10 C 0.4751(3) 0.7762(3) 0.2310(3)
H15_10 H 0.5085 0.8007 0.2068
C22_10 C 0.5037(3) 0.7088(3) 0.2461(3)
C23_10 C 0.4125(3) 0.7782(3) 0.1901(3)
H16_10 H 0.3889 0.7368 0.1951
C24_10 C 0.4261(3) 0.7902(3) 0.1184(3)
O29_10 O 0.4066(2) 0.8416(2) 0.0918(2)
O21_11 O 0.1269(2) 0.16888(19) 0.71616(19)
C17_11 C 0.0910(3) 0.1336(3) 0.7657(3)
H13_11 H 0.1212 0.1220 0.8010
C18_11 C 0.0618(3) 0.0712(3) 0.7380(3)
O22_11 O 0.0808(2) 0.0514(2) 0.6832(2)
O23_11 O 0.0228(3) 0.0410(2) 0.7740(2)
C19_11 C 0.0418(3) 0.1837(3) 0.7918(3)
H14_11 H 0.0026 0.1612 0.8080
C20_11 C 0.0741(3) 0.2212(3) 0.8468(3)
C21_11 C 0.0249(3) 0.2238(3) 0.7310(3)
O27_6 O 0.0193(2) 0.3404(2) 0.7185(2)
C23_11 C 0.0875(3) 0.2218(3) 0.6901(3)
H16_11 H 0.1111 0.2632 0.6951
C24_11 C 0.0739(3) 0.2098(3) 0.6184(3)
O29_11 O 0.0934(2) 0.1584(2) 0.5918(2)
H15_11 H 0.9915 0.1993 0.7068
C22_11 C 0.9963(3) 0.2912(3) 0.7461(3)
O33_11 O 0.9843(3) 0.9515(4) 0.8741(4)
H23_11 H 0.9943 0.9188 0.9040
H24_11 H 0.9645 0.9899 0.8882
O46_6 O 0.9807(2) 0.8404(2) 0.7815(2)
H15_12 H 0.0085 0.6993 0.7932
C22_12 C 0.0037(3) 0.7912(3) 0.7539(3)
O33_12 O 0.0157(3) 0.4515(4) 0.6259(4)
H23_12 H 0.0057 0.4188 0.5960
H24_12 H 0.0355 0.4899 0.6118
O21_12 O 0.8731(2) 0.66888(19) 0.78384(19)
C17_12 C 0.9090(3) 0.6336(3) 0.7343(3)
H13_12 H 0.8788 0.6220 0.6990
C18_12 C 0.9382(3) 0.5712(3) 0.7620(3)
O22_12 O 0.9192(2) 0.5514(2) 0.8168(2)
O23_12 O 0.9772(3) 0.5410(2) 0.7260(2)
C19_12 C 0.9582(3) 0.6837(3) 0.7082(3)
H14_12 H 0.9974 0.6612 0.6920
C20_12 C 0.9259(3) 0.7212(3) 0.6532(3)
C21_12 C 0.9751(3) 0.7238(3) 0.7690(3)
C23_12 C 0.9125(3) 0.7218(3) 0.8099(3)
H16_12 H 0.8889 0.7632 0.8049
C24_12 C 0.9261(3) 0.7098(3) 0.8816(3)
O29_12 O 0.9066(2) 0.6584(2) 0.9082(2)
loop_
_geom_bond_atom_site_label_1
_geom_bond_atom_site_label_2
_geom_bond_site_symmetry_1
_geom_bond_site_symmetry_2
Co1 O1 1_555 1_555
Co2 O3 1_555 1_555
O1 C1 1_555 1_555
C1 H1 1_555 1_555
C2 C1 1_555 1_555
O2 Co1 1_555 1_555
O3 C2 1_555 1_555
C3 C1 1_555 1_555
H2 C3 1_555 1_555
C4 C3 1_555 1_555
O4 C4 1_555 1_555
O5 C4 1_555 1_555
C5 C3 1_555 1_555
C7 O1 1_555 1_555
H4 C7 1_555 1_555
C8 C7 1_555 1_555
O8 C8 1_555 1_555
O9 Co1 1_555 1_555
O10 Co1 1_555 1_555
H5 O10 1_555 1_555
H6 O10 1_555 1_555
O12 C9 1_555 1_555
C9 H9 1_555 1_555
C10 C9 1_555 1_555
O13 C10 1_555 1_555
O14 C10 1_555 1_555
C11 C9 1_555 1_555
H10 C11 1_555 1_555
C12 C11 1_555 1_555
O15 C12 1_555 1_555
O16 Co1 1_555 1_555
C13 C11 1_555 1_555
C15 O12 1_555 1_555
H12 C15 1_555 1_555
C16 C15 1_555 1_555
O19 C16 1_555 1_555
O20 C16 1_555 1_555
O21 C17 1_555 1_555
C17 H13 1_555 1_555
C18 C17 1_555 1_555
O22 C18 1_555 1_555
O23 C18 1_555 1_555
C19 C17 1_555 1_555
H14 C19 1_555 1_555
C20 C19 1_555 1_555
O24 Co2 1_555 1_555
O25 C20 1_555 1_555
C21 C19 1_555 1_555
H15 C21 1_555 1_555
C22 C21 1_555 1_555
O26 Co1 1_555 1_555
O27 C22 1_555 1_555
C23 O21 1_555 1_555
H16 C23 1_555 1_555
C24 C23 1_555 1_555
O28 C24 1_555 1_555
O29 C24 1_555 1_555
Co3 O12 1_555 1_555
Co4 O21 1_555 1_555
Co5 O14 1_555 1_555
Co6 O23 1_555 1_555
O30 Co2 1_555 1_555
H18 O30 1_555 1_555
O31 Co3 1_555 1_555
H19 O31 1_555 1_555
H20 O31 1_555 1_555
O33 Co6 1_555 1_555
H23 O33 1_555 1_555
H24 O33 1_555 1_555
Co7 O4 1_555 1_555
Co8 O5 1_555 1_555
Co12 O10 1_555 1_555
Co15 O25 1_555 1_555
Co16 O28 1_555 1_555
O36 Co3 1_555 1_555
O37 Co3 1_555 1_555
O38 Co4 1_555 1_555
O39 Co4 1_555 1_555
O40 Co4 1_555 1_555
O41 Co5 1_555 1_555
O44 Co5 1_555 1_555
O45 Co6 1_555 1_555
O46 Co6 1_555 1_555
O47 Co6 1_555 1_555
O48 Co6 1_555 1_555
Co17 O31 1_555 1_555
H25 O40 1_555 1_555
H26 O40 1_555 1_555
H28 O44 1_555 1_555
H29 O48 1_555 1_555
H30 O48 1_555 1_555
C2 O2 1_555 1_555
C5 C7 1_555 1_555
C8 O9 1_555 1_555
O13 Co3 1_555 1_555
C12 O16 1_555 1_555
O15 Co12 1_555 1_555
C13 C15 1_555 1_555
O20 Co3 1_555 1_555
O22 Co4 1_555 1_555
C20 O24 1_555 1_555
C21 C23 1_555 1_555
C22 O26 1_555 1_555
O27 Co12 1_555 1_555
O29 Co4 1_555 1_555
O30 Co15 1_555 1_555
O17 C14 1_555 1_555
H21 O32 1_555 1_555
H22 O32 1_555 1_555
Co13 O17 1_555 1_555
O6 C6 1_555 1_555
H7 O11 1_555 1_555
H8 O11 1_555 1_555
Co9 O6 1_555 1_555
Co8 O1_2 1_555 1_555
Co2_2 O3_2 1_555 1_555
O1_2 C1_2 1_555 1_555
C1_2 H1_2 1_555 1_555
C2_2 C1_2 1_555 1_555
O2_2 Co8 1_555 1_555
O3_2 C2_2 1_555 1_555
C3_2 C1_2 1_555 1_555
H2_2 C3_2 1_555 1_555
C4_2 C3_2 1_555 1_555
O4_2 C4_2 1_555 1_555
O36 C4_2 1_555 1_555
C5_2 C3_2 1_555 1_555
C7_2 O1_2 1_555 1_555
H4_2 C7_2 1_555 1_555
C8_2 C7_2 1_555 1_555
O8_2 C8_2 1_555 1_555
O9_2 Co8 1_555 1_555
O10_2 Co8 1_555 1_555
H5_2 O10_2 1_555 1_555
H6_2 O10_2 1_555 1_555
O21_2 C17_2 1_555 1_555
C17_2 H13_2 1_555 1_555
C18_2 C17_2 1_555 1_555
O22_2 C18_2 1_555 1_555
O23_2 C18_2 1_555 1_555
C19_2 C17_2 1_555 1_555
H14_2 C19_2 1_555 1_555
C20_2 C19_2 1_555 1_555
O24_2 Co2_2 1_555 1_555
O25_2 C20_2 1_555 1_555
C21_2 C19_2 1_555 1_555
H15_2 C21_2 1_555 1_555
C22_2 C21_2 1_555 1_555
O26_2 Co8 1_555 1_555
O27_2 C22_2 1_555 1_555
C23_2 O21_2 1_555 1_555
H16_2 C23_2 1_555 1_555
C24_2 C23_2 1_555 1_555
O47 C24_2 1_555 1_555
O29_2 C24_2 1_555 1_555
Co4_2 O21_2 1_555 1_555
Co6_2 O23_2 1_555 1_555
O30_2 Co2_2 1_555 1_555
H18_2 O30_2 1_555 1_555
O33_2 Co6_2 1_555 1_555
H23_2 O33_2 1_555 1_555
H24_2 O33_2 1_555 1_555
Co17 O4_2 1_555 1_555
Co7 O10_2 1_555 1_555
Co15_2 O25_2 1_555 1_555
O38_2 Co4_2 1_555 1_555
O39_2 Co4_2 1_555 1_555
O40_2 Co4_2 1_555 1_555
O45_2 Co6_2 1_555 1_555
O46_2 Co6_2 1_555 1_555
O47_2 Co6_2 1_555 1_555
O48_2 Co6_2 1_555 1_555
H25_2 O40_2 1_555 1_555
H26_2 O40_2 1_555 1_555
H29_2 O48_2 1_555 1_555
H30_2 O48_2 1_555 1_555
C2_2 O2_2 1_555 1_555
C5_2 C7_2 1_555 1_555
C8_2 O9_2 1_555 1_555
O22_2 Co4_2 1_555 1_555
C20_2 O24_2 1_555 1_555
C21_2 C23_2 1_555 1_555
C22_2 O26_2 1_555 1_555
O27_2 Co7 1_555 1_555
O29_2 Co4_2 1_555 1_555
O30_2 Co15_2 1_555 1_555
O6_2 C6_2 1_555 1_555
H7_2 O11_2 1_555 1_555
H8_2 O11_2 1_555 1_555
Co9_2 O6_2 1_555 1_555
O21_3 C17_3 1_555 1_555
C17_3 H13_3 1_555 1_555
C18_3 C17_3 1_555 1_555
O22_3 C18_3 1_555 1_555
O23_3 C18_3 1_555 1_555
C19_3 C17_3 1_555 1_555
H14_3 C19_3 1_555 1_555
C20_3 C19_3 1_555 1_555
O25_3 C20_3 1_555 1_555
C21_3 C19_3 1_555 1_555
H15_3 C21_3 1_555 1_555
C22_3 C21_3 1_555 1_555
O27_3 C22_3 1_555 1_555
C23_3 O21_3 1_555 1_555
H16_3 C23_3 1_555 1_555
C24_3 C23_3 1_555 1_555
O47_2 C24_3 1_555 1_555
O29_3 C24_3 1_555 1_555
Co4_3 O21_3 1_555 1_555
Co16 O23_3 1_555 1_555
O33_3 Co16 1_555 1_555
H23_3 O33_3 1_555 1_555
H24_3 O33_3 1_555 1_555
Co15_3 O25_3 1_555 1_555
O38_3 Co4_3 1_555 1_555
O39_3 Co4_3 1_555 1_555
O40_3 Co4_3 1_555 1_555
O45_3 Co16 1_555 1_555
O46_3 Co16 1_555 1_555
O48_3 Co16 1_555 1_555
H25_3 O40_3 1_555 1_555
H26_3 O40_3 1_555 1_555
H29_3 O48_3 1_555 1_555
H30_3 O48_3 1_555 1_555
O22_3 Co4_3 1_555 1_555
C20_3 O41 1_555 1_555
C21_3 C23_3 1_555 1_555
C22_3 O37 1_555 1_555
O27_3 Co17 1_555 1_555
O29_3 Co4_3 1_555 1_555
O44 Co15_3 1_555 1_555
O33_4 Co12 1_555 1_555
H23_4 O33_4 1_555 1_555
H24_4 O33_4 1_555 1_555
O47_3 Co12 1_555 1_555
Co1_2 O1_3 1_555 1_555
Co2_3 O3_3 1_555 1_555
O1_3 C1_3 1_555 1_555
C1_3 H1_3 1_555 1_555
C2_3 C1_3 1_555 1_555
O2_3 Co1_2 1_555 1_555
O3_3 C2_3 1_555 1_555
C3_3 C1_3 1_555 1_555
H2_3 C3_3 1_555 1_555
C4_3 C3_3 1_555 1_555
O4_3 C4_3 1_555 1_555
O5_2 C4_3 1_555 1_555
C5_3 C3_3 1_555 1_555
H3_3 C5_3 1_555 1_555
C6_3 C5_3 1_555 1_555
O6_3 C6_3 1_555 1_555
O7_3 C6_3 1_555 1_555
C7_3 O1_3 1_555 1_555
H4_3 C7_3 1_555 1_555
C8_3 C7_3 1_555 1_555
O8_3 C8_3 1_555 1_555
O9_3 Co1_2 1_555 1_555
O48 Co1_2 1_555 1_555
O11_3 Co2_3 1_555 1_555
H7_3 O11_3 1_555 1_555
H8_3 O11_3 1_555 1_555
O12_2 C9_2 1_555 1_555
C9_2 H9_2 1_555 1_555
C10_2 C9_2 1_555 1_555
O13_2 C10_2 1_555 1_555
O14_2 C10_2 1_555 1_555
C11_2 C9_2 1_555 1_555
H10_2 C11_2 1_555 1_555
C12_2 C11_2 1_555 1_555
O45 C12_2 1_555 1_555
O16_2 Co1_2 1_555 1_555
C13_2 C11_2 1_555 1_555
H11_2 C13_2 1_555 1_555
C14_2 C13_2 1_555 1_555
O39 C14_2 1_555 1_555
O18_2 C14_2 1_555 1_555
C15_2 O12_2 1_555 1_555
H12_2 C15_2 1_555 1_555
C16_2 C15_2 1_555 1_555
O35_2 C16_2 1_555 1_555
O20_2 C16_2 1_555 1_555
O21_4 C17_4 1_555 1_555
C17_4 H13_4 1_555 1_555
C18_4 C17_4 1_555 1_555
O22_4 C18_4 1_555 1_555
O23_4 C18_4 1_555 1_555
C19_4 C17_4 1_555 1_555
H14_4 C19_4 1_555 1_555
C20_4 C19_4 1_555 1_555
O24_3 Co2_3 1_555 1_555
O38_2 C20_4 1_555 1_555
C21_4 C19_4 1_555 1_555
H15_4 C21_4 1_555 1_555
C22_4 C21_4 1_555 1_555
O26_3 Co1_2 1_555 1_555
O46 C22_4 1_555 1_555
C23_4 O21_4 1_555 1_555
H16_4 C23_4 1_555 1_555
C24_4 C23_4 1_555 1_555
O28_2 C24_4 1_555 1_555
O29_4 C24_4 1_555 1_555
Co3_2 O12_2 1_555 1_555
Co13 O21_4 1_555 1_555
O40_2 Co2_3 1_555 1_555
O31_2 Co3_2 1_555 1_555
H20_2 O31_2 1_555 1_555
O34_3 Co2_3 1_555 1_555
O35_3 Co2_3 1_555 1_555
Co7_2 O4_3 1_555 1_555
Co8_2 O5_2 1_555 1_555
Co9_3 O6_3 1_555 1_555
Co10_2 O7_3 1_555 1_555
Co11_2 O8_3 1_555 1_555
O36_2 Co3_2 1_555 1_555
O37_2 Co3_2 1_555 1_555
O38_4 Co13 1_555 1_555
O40_4 Co13 1_555 1_555
Co17_2 O31_2 1_555 1_555
H26_4 O40_4 1_555 1_555
C2_3 O2_3 1_555 1_555
C5_3 C7_3 1_555 1_555
C8_3 O9_3 1_555 1_555
O13_2 Co3_2 1_555 1_555
C12_2 O16_2 1_555 1_555
C13_2 C15_2 1_555 1_555
O18_2 Co11_2 1_555 1_555
O20_2 Co3_2 1_555 1_555
O22_4 Co13 1_555 1_555
C20_4 O24_3 1_555 1_555
C21_4 C23_4 1_555 1_555
C22_4 O26_3 1_555 1_555
O29_4 Co13 1_555 1_555
O32_2 Co5_2 1_555 1_555
H21_2 O32_2 1_555 1_555
H22_2 O32_2 1_555 1_555
O41_2 Co5_2 1_555 1_555
O42_2 Co5_2 1_555 1_555
O43_2 Co5_2 1_555 1_555
O44_2 Co5_2 1_555 1_555
H27_2 O44_2 1_555 1_555
H28_2 O44_2 1_555 1_555
H7_4 O11_4 1_555 1_555
H8_4 O11_4 1_555 1_555
O6_4 C6_4 1_555 1_555
Co15 O6_4 1_555 1_555
O21_5 C17_5 1_555 1_555
C17_5 H13_5 1_555 1_555
C18_5 C17_5 1_555 1_555
O22_5 C18_5 1_555 1_555
O23_5 C18_5 1_555 1_555
C19_5 C17_5 1_555 1_555
H14_5 C19_5 1_555 1_555
C20_5 C19_5 1_555 1_555
O24_4 Co10 1_555 1_555
O25_4 C20_5 1_555 1_555
C21_5 C19_5 1_555 1_555
C23_5 O21_5 1_555 1_555
H16_5 C23_5 1_555 1_555
C24_5 C23_5 1_555 1_555
O28_3 C24_5 1_555 1_555
O29_5 C24_5 1_555 1_555
Co15_3 O21_5 1_555 1_555
O30_3 Co10 1_555 1_555
H18_3 O30_3 1_555 1_555
Co9 O25_4 1_555 1_555
Co17 O28_3 1_555 1_555
O39_4 Co15_3 1_555 1_555
O22_5 Co15_3 1_555 1_555
C20_5 O24_4 1_555 1_555
C21_5 C23_5 1_555 1_555
O29_5 Co15_3 1_555 1_555
O30_3 Co9 1_555 1_555
O45_4 Co6_3 1_555 1_555
O48_4 Co6_3 1_555 1_555
H30_4 O48_4 1_555 1_555
Co1_3 O1_4 1_555 1_555
O1_4 C1_4 1_555 1_555
C1_4 H1_4 1_555 1_555
C2_4 C1_4 1_555 1_555
O2_4 Co1_3 1_555 1_555
O3_4 C2_4 1_555 1_555
C3_4 C1_4 1_555 1_555
H2_4 C3_4 1_555 1_555
C4_4 C3_4 1_555 1_555
O4_4 C4_4 1_555 1_555
O5_3 C4_4 1_555 1_555
C5_4 C3_4 1_555 1_555
C7_4 O1_4 1_555 1_555
H4_4 C7_4 1_555 1_555
C8_4 C7_4 1_555 1_555
O43_2 C8_4 1_555 1_555
O9_4 Co1_3 1_555 1_555
O10_3 Co1_3 1_555 1_555
H6_3 O10_3 1_555 1_555
O12_3 C9_3 1_555 1_555
C9_3 H9_3 1_555 1_555
C10_3 C9_3 1_555 1_555
O13_3 C10_3 1_555 1_555
O14_3 C10_3 1_555 1_555
C11_3 C9_3 1_555 1_555
H10_3 C11_3 1_555 1_555
C12_3 C11_3 1_555 1_555
O15_2 C12_3 1_555 1_555
O16_3 Co1_3 1_555 1_555
C13_3 C11_3 1_555 1_555
H11_3 C13_3 1_555 1_555
C14_3 C13_3 1_555 1_555
O17_2 C14_3 1_555 1_555
O42_2 C14_3 1_555 1_555
C15_3 O12_3 1_555 1_555
H12_3 C15_3 1_555 1_555
C16_3 C15_3 1_555 1_555
O19_2 C16_3 1_555 1_555
O20_3 C16_3 1_555 1_555
O26_4 Co1_3 1_555 1_555
Co3_3 O12_3 1_555 1_555
Co11_2 O14_3 1_555 1_555
O48_3 Co3_3 1_555 1_555
O32_3 Co11_2 1_555 1_555
H21_3 O32_3 1_555 1_555
H22_3 O32_3 1_555 1_555
Co7_3 O4_4 1_555 1_555
Co8_3 O5_3 1_555 1_555
Co12_2 O10_3 1_555 1_555
Co13_2 O17_2 1_555 1_555
Co14_2 O19_2 1_555 1_555
O36_3 Co3_3 1_555 1_555
O37_3 Co3_3 1_555 1_555
O41_3 Co11_2 1_555 1_555
O40 Co11_2 1_555 1_555
C2_4 O2_4 1_555 1_555
C5_4 C7_4 1_555 1_555
C8_4 O9_4 1_555 1_555
O13_3 Co3_3 1_555 1_555
C12_3 O16_3 1_555 1_555
O15_2 Co12_2 1_555 1_555
C13_3 C15_3 1_555 1_555
O20_3 Co3_3 1_555 1_555
C22_5 O26_4 1_555 1_555
H23_5 O33_5 1_555 1_555
H24_5 O33_5 1_555 1_555
H21_4 O32_4 1_555 1_555
H22_4 O32_4 1_555 1_555
O41_4 Co11 1_555 1_555
O40_4 Co11 1_555 1_555
O39_4 C14_4 1_555 1_555
Co1_4 O1_5 1_555 1_555
O1_5 C1_5 1_555 1_555
C1_5 H1_5 1_555 1_555
C2_5 C1_5 1_555 1_555
O2_5 Co1_4 1_555 1_555
O3_5 C2_5 1_555 1_555
C3_5 C1_5 1_555 1_555
H2_5 C3_5 1_555 1_555
C4_5 C3_5 1_555 1_555
O45_2 C4_5 1_555 1_555
O5_4 C4_5 1_555 1_555
C5_5 C3_5 1_555 1_555
H3_5 C5_5 1_555 1_555
C6_5 C5_5 1_555 1_555
O39_2 C6_5 1_555 1_555
O34_3 C6_5 1_555 1_555
C7_5 O1_5 1_555 1_555
H4_5 C7_5 1_555 1_555
C8_5 C7_5 1_555 1_555
O43 C8_5 1_555 1_555
O9_5 Co1_4 1_555 1_555
O48_4 Co1_4 1_555 1_555
O12_4 C9_4 1_555 1_555
C9_4 H9_4 1_555 1_555
C10_4 C9_4 1_555 1_555
O13_4 C10_4 1_555 1_555
O14_4 C10_4 1_555 1_555
C11_4 C9_4 1_555 1_555
H10_4 C11_4 1_555 1_555
C12_4 C11_4 1_555 1_555
O45_4 C12_4 1_555 1_555
O16_4 Co1_4 1_555 1_555
C13_4 C11_4 1_555 1_555
C15_4 O12_4 1_555 1_555
H12_4 C15_4 1_555 1_555
C16_4 C15_4 1_555 1_555
O19_3 C16_4 1_555 1_555
O20_4 C16_4 1_555 1_555
O26_5 Co1_4 1_555 1_555
Co3_4 O12_4 1_555 1_555
O31_3 Co3_4 1_555 1_555
H20_3 O31_3 1_555 1_555
H23_6 O33_6 1_555 1_555
H24_6 O33_6 1_555 1_555
Co8_4 O5_4 1_555 1_555
Co14_3 O19_3 1_555 1_555
O36_4 Co3_4 1_555 1_555
O37_4 Co3_4 1_555 1_555
Co16_2 O31_3 1_555 1_555
C2_5 O2_5 1_555 1_555
C5_5 C7_5 1_555 1_555
C8_5 O9_5 1_555 1_555
O13_4 Co3_4 1_555 1_555
C12_4 O16_4 1_555 1_555
C13_4 C15_4 1_555 1_555
O20_4 Co3_4 1_555 1_555
C22_6 O26_5 1_555 1_555
O11_5 Co10_2 1_555 1_555
H7_5 O11_5 1_555 1_555
H8_5 O11_5 1_555 1_555
O21_6 C17_6 1_555 1_555
C17_6 H13_6 1_555 1_555
C18_6 C17_6 1_555 1_555
O22_6 C18_6 1_555 1_555
O23_6 C18_6 1_555 1_555
C19_6 C17_6 1_555 1_555
H14_6 C19_6 1_555 1_555
C20_6 C19_6 1_555 1_555
O24_5 Co10_2 1_555 1_555
O25_5 C20_6 1_555 1_555
C21_6 C19_6 1_555 1_555
C23_6 O21_6 1_555 1_555
H16_6 C23_6 1_555 1_555
C24_6 C23_6 1_555 1_555
O28_4 C24_6 1_555 1_555
O29_6 C24_6 1_555 1_555
Co13_2 O21_6 1_555 1_555
Co12_2 O23_6 1_555 1_555
O30_4 Co10_2 1_555 1_555
H17_4 O30_4 1_555 1_555
H18_4 O30_4 1_555 1_555
O35_4 Co10_2 1_555 1_555
Co9_3 O25_5 1_555 1_555
O38_5 Co13_2 1_555 1_555
O44_2 Co13_2 1_555 1_555
O22_6 Co13_2 1_555 1_555
C20_6 O24_5 1_555 1_555
C21_6 C23_6 1_555 1_555
O29_6 Co13_2 1_555 1_555
O30_4 Co9_3 1_555 1_555
O33_7 Co7 1_555 1_555
H23_7 O33_7 1_555 1_555
H24_7 O33_7 1_555 1_555
O47_6 Co7 1_555 1_555
Co8_4 O1_6 1_555 1_555
Co14_2 O3_6 1_555 1_555
O1_6 C1_6 1_555 1_555
C1_6 H1_6 1_555 1_555
C2_6 C1_6 1_555 1_555
O2_6 Co8_4 1_555 1_555
O3_6 C2_6 1_555 1_555
C3_6 C1_6 1_555 1_555
H2_6 C3_6 1_555 1_555
C4_6 C3_6 1_555 1_555
O4_5 C4_6 1_555 1_555
O36_4 C4_6 1_555 1_555
C5_6 C3_6 1_555 1_555
H3_6 C5_6 1_555 1_555
C6_6 C5_6 1_555 1_555
O6_5 C6_6 1_555 1_555
O7_4 C6_6 1_555 1_555
C7_6 O1_6 1_555 1_555
H4_6 C7_6 1_555 1_555
C8_6 C7_6 1_555 1_555
O35_3 C8_6 1_555 1_555
O9_6 Co8_4 1_555 1_555
O48_2 Co8_4 1_555 1_555
O11_6 Co14_2 1_555 1_555
H7_6 O11_6 1_555 1_555
H8_6 O11_6 1_555 1_555
O21_7 C17_7 1_555 1_555
C17_7 H13_7 1_555 1_555
C18_7 C17_7 1_555 1_555
O22_7 C18_7 1_555 1_555
O23_7 C18_7 1_555 1_555
C19_7 C17_7 1_555 1_555
H14_7 C19_7 1_555 1_555
C20_7 C19_7 1_555 1_555
O24_6 Co14_2 1_555 1_555
O38_3 C20_7 1_555 1_555
C21_7 C19_7 1_555 1_555
H15_7 C21_7 1_555 1_555
C22_7 C21_7 1_555 1_555
O26_6 Co8_4 1_555 1_555
O46_2 C22_7 1_555 1_555
C23_7 O21_7 1_555 1_555
H16_7 C23_7 1_555 1_555
C24_7 C23_7 1_555 1_555
O47_5 C24_7 1_555 1_555
O29_7 C24_7 1_555 1_555
Co9 O21_7 1_555 1_555
O40_3 Co14_2 1_555 1_555
O34_4 Co14_2 1_555 1_555
Co16_2 O4_5 1_555 1_555
Co9_4 O6_5 1_555 1_555
Co14_3 O7_4 1_555 1_555
C2_6 O2_6 1_555 1_555
C5_6 C7_6 1_555 1_555
C8_6 O9_6 1_555 1_555
O22_7 Co9 1_555 1_555
C20_7 O24_6 1_555 1_555
C21_7 C23_7 1_555 1_555
C22_7 O26_6 1_555 1_555
O29_7 Co9 1_555 1_555
H7_7 O11_7 1_555 1_555
H8_7 O11_7 1_555 1_555
O6_6 C6_7 1_555 1_555
Co15_2 O6_6 1_555 1_555
O21_8 C17_8 1_555 1_555
C17_8 H13_8 1_555 1_555
C18_8 C17_8 1_555 1_555
O22_8 C18_8 1_555 1_555
O23_8 C18_8 1_555 1_555
C19_8 C17_8 1_555 1_555
H14_8 C19_8 1_555 1_555
C20_8 C19_8 1_555 1_555
O24_7 Co14 1_555 1_555
O25_6 C20_8 1_555 1_555
C21_8 C19_8 1_555 1_555
C23_8 O21_8 1_555 1_555
H16_8 C23_8 1_555 1_555
C24_8 C23_8 1_555 1_555
O47_3 C24_8 1_555 1_555
O29_8 C24_8 1_555 1_555
Co15 O21_8 1_555 1_555
O30_5 Co14 1_555 1_555
H18_5 O30_5 1_555 1_555
Co9_2 O25_6 1_555 1_555
O22_8 Co15 1_555 1_555
C20_8 O24_7 1_555 1_555
C21_8 C23_8 1_555 1_555
O29_8 Co15 1_555 1_555
O30_5 Co9_2 1_555 1_555
Co8_2 O1_7 1_555 1_555
O1_7 C1_7 1_555 1_555
C1_7 H1_7 1_555 1_555
C2_7 C1_7 1_555 1_555
O2_7 Co8_2 1_555 1_555
O3_7 C2_7 1_555 1_555
C3_7 C1_7 1_555 1_555
H2_7 C3_7 1_555 1_555
C4_7 C3_7 1_555 1_555
O4_6 C4_7 1_555 1_555
O36_2 C4_7 1_555 1_555
C5_7 C3_7 1_555 1_555
C7_7 O1_7 1_555 1_555
H4_7 C7_7 1_555 1_555
C8_7 C7_7 1_555 1_555
O35_4 C8_7 1_555 1_555
O9_7 Co8_2 1_555 1_555
O10_4 Co8_2 1_555 1_555
H6_4 O10_4 1_555 1_555
O26_7 Co8_2 1_555 1_555
Co17_2 O4_6 1_555 1_555
Co7_2 O10_4 1_555 1_555
C2_7 O2_7 1_555 1_555
C5_7 C7_7 1_555 1_555
C8_7 O9_7 1_555 1_555
C22_8 O26_7 1_555 1_555
O48_5 Co7_3 1_555 1_555
H30_5 O48_5 1_555 1_555
H23_8 O33_8 1_555 1_555
H24_8 O33_8 1_555 1_555
Co8_3 O1_8 1_555 1_555
O1_8 C1_8 1_555 1_555
C1_8 H1_8 1_555 1_555
C2_8 C1_8 1_555 1_555
O2_8 Co8_3 1_555 1_555
O3_8 C2_8 1_555 1_555
C3_8 C1_8 1_555 1_555
H2_8 C3_8 1_555 1_555
C4_8 C3_8 1_555 1_555
O45_3 C4_8 1_555 1_555
O36_3 C4_8 1_555 1_555
C5_8 C3_8 1_555 1_555
H3_8 C5_8 1_555 1_555
C6_8 C5_8 1_555 1_555
O39_3 C6_8 1_555 1_555
O34_4 C6_8 1_555 1_555
C7_8 O1_8 1_555 1_555
H4_8 C7_8 1_555 1_555
C8_8 C7_8 1_555 1_555
O35 C8_8 1_555 1_555
O9_8 Co8_3 1_555 1_555
O48_5 Co8_3 1_555 1_555
O26_8 Co8_3 1_555 1_555
H23_9 O33_9 1_555 1_555
H24_9 O33_9 1_555 1_555
C2_8 O2_8 1_555 1_555
C5_8 C7_8 1_555 1_555
C8_8 O9_8 1_555 1_555
C22_9 O26_8 1_555 1_555
O11_8 Co14_3 1_555 1_555
H7_8 O11_8 1_555 1_555
H8_8 O11_8 1_555 1_555
O21_9 C17_9 1_555 1_555
C17_9 H13_9 1_555 1_555
C18_9 C17_9 1_555 1_555
O22_9 C18_9 1_555 1_555
O23_9 C18_9 1_555 1_555
C19_9 C17_9 1_555 1_555
H14_9 C19_9 1_555 1_555
C20_9 C19_9 1_555 1_555
O24_8 Co14_3 1_555 1_555
O25_7 C20_9 1_555 1_555
C21_9 C19_9 1_555 1_555
C23_9 O21_9 1_555 1_555
H16_9 C23_9 1_555 1_555
C24_9 C23_9 1_555 1_555
O47_4 C24_9 1_555 1_555
O29_9 C24_9 1_555 1_555
Co9_3 O21_9 1_555 1_555
Co7_2 O23_9 1_555 1_555
O30_6 Co14_3 1_555 1_555
H17_6 O30_6 1_555 1_555
H18_6 O30_6 1_555 1_555
Co9_4 O25_7 1_555 1_555
O22_9 Co9_3 1_555 1_555
C20_9 O24_8 1_555 1_555
C21_9 C23_9 1_555 1_555
O29_9 Co9_3 1_555 1_555
O30_6 Co9_4 1_555 1_555
O33_10 Co17 1_555 1_555
H23_10 O33_10 1_555 1_555
H24_10 O33_10 1_555 1_555
O21_10 C17_10 1_555 1_555
C17_10 H13_10 1_555 1_555
C18_10 C17_10 1_555 1_555
O22_10 C18_10 1_555 1_555
O23_10 C18_10 1_555 1_555
C19_10 C17_10 1_555 1_555
H14_10 C19_10 1_555 1_555
C20_10 C19_10 1_555 1_555
O38 C20_10 1_555 1_555
C21_10 C19_10 1_555 1_555
H15_10 C21_10 1_555 1_555
C22_10 C21_10 1_555 1_555
O46_3 C22_10 1_555 1_555
C23_10 O21_10 1_555 1_555
H16_10 C23_10 1_555 1_555
C24_10 C23_10 1_555 1_555
O47_8 C24_10 1_555 1_555
O29_10 C24_10 1_555 1_555
Co9_2 O21_10 1_555 1_555
O22_10 Co9_2 1_555 1_555
C20_10 O41_3 1_555 1_555
C21_10 C23_10 1_555 1_555
C22_10 O37_3 1_555 1_555
O29_10 Co9_2 1_555 1_555
O21_11 C17_11 1_555 1_555
C17_11 H13_11 1_555 1_555
C18_11 C17_11 1_555 1_555
O22_11 C18_11 1_555 1_555
O23_11 C18_11 1_555 1_555
C19_11 C17_11 1_555 1_555
H14_11 C19_11 1_555 1_555
C20_11 C19_11 1_555 1_555
O38_4 C20_11 1_555 1_555
C21_11 C19_11 1_555 1_555
C23_11 O21_11 1_555 1_555
H16_11 C23_11 1_555 1_555
C24_11 C23_11 1_555 1_555
O47_6 C24_11 1_555 1_555
O29_11 C24_11 1_555 1_555
Co15_2 O21_11 1_555 1_555
O22_11 Co15_2 1_555 1_555
C20_11 O41_4 1_555 1_555
C21_11 C23_11 1_555 1_555
O29_11 Co15_2 1_555 1_555
C22_11 O37_4 1_555 1_555
H23_11 O33_11 1_555 1_555
H24_11 O33_11 1_555 1_555
H23_12 O33_12 1_555 1_555
H24_12 O33_12 1_555 1_555
C22_12 O37_2 1_555 1_555
O21_12 C17_12 1_555 1_555
C17_12 H13_12 1_555 1_555
C18_12 C17_12 1_555 1_555
O22_12 C18_12 1_555 1_555
O23_12 C18_12 1_555 1_555
C19_12 C17_12 1_555 1_555
H14_12 C19_12 1_555 1_555
C20_12 C19_12 1_555 1_555
O38_5 C20_12 1_555 1_555
C21_12 C19_12 1_555 1_555
C23_12 O21_12 1_555 1_555
H16_12 C23_12 1_555 1_555
C24_12 C23_12 1_555 1_555
O47_7 C24_12 1_555 1_555
O29_12 C24_12 1_555 1_555
Co9_4 O21_12 1_555 1_555
Co16_2 O23_12 1_555 1_555
O22_12 Co9_4 1_555 1_555
C20_12 O41_2 1_555 1_555
C21_12 C23_12 1_555 1_555
O29_12 Co9_4 1_555 1_555

#END
