
###############################################################################
#
# This file contains modified crystal structure data generated from the
# MOF subset of the Cambridge Structural Database (CSD) v543 
# hosted by the Cambridge Crystallographic Data Centre (CCDC).
#
# This work is licensed under the Creative Commons
# Attribution-NonCommercial-ShareAlike 4.0 International License.
# To view a copy of this license, visit
# http://creativecommons.org/licenses/by-nc-sa/4.0/
# or send a letter to
# Creative Commons, PO Box 1866, Mountain View, CA 94042, USA.
#
# CIF created using the CSD Python API on 29 September 2022
# The structure has been converted into the P1 space group
# The structure has a 3D framework
# The original CSD entry XAHPUT is in the tetragonal crystal system
# The original CSD entry XAHPUT is in a Sohncke space group
# The framework has been calculated to contain at least 10.0% void space
# The void calculation uses a probe of radius 1.32A, grid spacing 0.4
# H atom positions have been added when not included in the experimental data
#
###############################################################################

data_XAHPUT
_chemical_formula_moiety         '(C480 H368 Cu16 O96)n'
_symmetry_cell_setting           triclinic
_symmetry_space_group_name_H-M   'P 1'
_symmetry_Int_Tables_number      1
_space_group_name_Hall           'P 1'
loop_
_symmetry_equiv_pos_site_id
_symmetry_equiv_pos_as_xyz
1 x,y,z
_cell_length_a                   30.9491(13)
_cell_length_b                   30.9491(13)
_cell_length_c                   80.725(3)
_cell_angle_alpha                90
_cell_angle_beta                 90
_cell_angle_gamma                90
_cell_volume                     77322.2
loop_
_atom_site_label
_atom_site_type_symbol
_atom_site_fract_x
_atom_site_fract_y
_atom_site_fract_z
Cu1 Cu 0.0283(3) 0.4710(3) 0.10988(8)
O6 O 0.0723(8) 0.4228(7) 0.11055(19)
Cu5 Cu 0.0283(3) 0.0290(3) 0.14012(8)
O9 O 0.0556(8) 0.5052(8) 0.0931(3)
O12 O 0.0529(8) 0.5044(8) 0.1285(3)
H38 H 0.0867291 0.42045 0.0996001
H39 H 0.0942129 0.429135 0.119201
Cu6 Cu 0.0290(3) 0.0283(3) 0.85988(8)
C1 C 0.8805(7) 0.3858(7) 0.05396(17)
C2 C 0.9198(8) 0.3697(5) 0.0596(2)
H1 H 0.9295 0.3428 0.0560
C3 C 0.9448(6) 0.3938(8) 0.0705(2)
H2 H 0.9710 0.3830 0.0743
C4 C 0.9304(7) 0.4340(7) 0.07586(15)
C5 C 0.8911(8) 0.4501(5) 0.0703(2)
H3 H 0.8815 0.4770 0.0738
C6 C 0.8662(6) 0.4260(8) 0.0593(2)
H4 H 0.8399 0.4368 0.0556
C8 C 0.7441(17) 0.3630(12) 0.0077(5)
C9 C 0.8900(7) 0.1032(7) 0.07873(16)
C10 C 0.9240(8) 0.1256(5) 0.0860(3)
H5 H 0.9312 0.1531 0.0823
C11 C 0.9474(6) 0.1068(7) 0.0988(2)
H6 H 0.9701 0.1218 0.1037
C12 C 0.9367(7) 0.0657(7) 0.10438(17)
C13 C 0.9027(8) 0.0433(5) 0.0971(3)
H7 H 0.8956 0.0158 0.1008
C14 C 0.8794(6) 0.0621(7) 0.0843(3)
H8 H 0.8566 0.0471 0.0794
C15 C 0.9570(9) 0.4583(9) 0.0872(3)
C16 C 0.9604(9) 0.0428(9) 0.1171(3)
C17 C 0.7812(6) 0.2420(6) 0.0064(2)
C18 C 0.7846(6) 0.2864(7) 0.00406(18)
C19 C 0.8101(6) 0.3109(5) 0.0147(2)
H9 H 0.8124 0.3406 0.0131
C20 C 0.8321(5) 0.2910(6) 0.02761(19)
C21 C 0.8287(6) 0.2466(6) 0.02991(19)
C22 C 0.8032(7) 0.2221(5) 0.0193(2)
C23 C 0.8498(6) 0.2259(8) 0.0435(2)
H10 H 0.8662 0.2428 0.0506
C24 C 0.8472(6) 0.1812(8) 0.0465(2)
C25 C 0.8212(7) 0.1571(8) 0.0355(3)
H11 H 0.8184 0.1275 0.0371
C26 C 0.7992(9) 0.1768(7) 0.0219(3)
H12 H 0.7824 0.1601 0.0148
C27 C 0.8595(7) 0.3163(8) 0.0394(3)
H13 H 0.8819 0.3024 0.0449
C28 C 0.8521(9) 0.3607(8) 0.0424(3)
H14 H 0.8293 0.3746 0.0371
C29 C 0.8712(8) 0.1631(8) 0.0609(3)
H15 H 0.8911 0.1795 0.0668
C30 C 0.8624(8) 0.1203(8) 0.0650(2)
H16 H 0.8414 0.1038 0.0598
O1 O 0.9944(8) 0.4437(8) 0.0917(3)
O2 O 0.9444(8) 0.4948(8) 0.0931(3)
O3 O 0.9471(8) 0.0044(8) 0.1215(3)
O4 O 0.9938(9) 0.0584(8) 0.1244(3)
Cu3 Cu 0.9717(3) 0.5290(3) 0.10988(8)
C37 C 0.6511(9) 0.2374(16) 0.0092(4)
O15 O 0.9938(9) 0.4416(8) 0.1256(3)
O17 O 0.6970(8) 0.2353(8) 0.0091(2)
H35 H 0.765251 0.351704 0.0175729
H36 H 0.741955 0.398103 0.00813446
H37 H 0.712033 0.349147 0.00932362
H40 H 0.637575 0.205225 0.0109117
H41 H 0.640132 0.258442 0.0191611
C7 C 0.7626(16) 0.3489(9) 0.9908(4)
O5 O 0.7647(8) 0.3030(8) 0.9909(2)
Cu8 Cu 0.4710(3) 0.0283(3) 0.89012(8)
C31 C 0.6142(7) 0.1195(7) 0.94604(17)
C32 C 0.6303(5) 0.0802(8) 0.9404(2)
H17 H 0.6572 0.0705 0.9440
C33 C 0.6062(8) 0.0552(6) 0.9295(2)
H18 H 0.6170 0.0290 0.9257
C34 C 0.5660(7) 0.0696(7) 0.92414(15)
C35 C 0.5499(5) 0.1089(8) 0.9297(2)
H19 H 0.5230 0.1185 0.9262
C36 C 0.5740(8) 0.1338(6) 0.9407(2)
H20 H 0.5632 0.1601 0.9444
C38 C 0.6370(12) 0.2559(17) 0.9923(5)
C39 C 0.8968(7) 0.1100(7) 0.92127(16)
C40 C 0.8744(5) 0.0760(8) 0.9140(3)
H21 H 0.8469 0.0688 0.9177
C41 C 0.8932(7) 0.0526(6) 0.9012(2)
H22 H 0.8782 0.0299 0.8963
C42 C 0.9343(7) 0.0633(7) 0.89562(17)
C43 C 0.9567(5) 0.0973(8) 0.9029(3)
H23 H 0.9842 0.1044 0.8992
C44 C 0.9379(7) 0.1206(6) 0.9157(3)
H24 H 0.9529 0.1434 0.9206
C45 C 0.5417(9) 0.0430(9) 0.9128(3)
C46 C 0.9572(9) 0.0396(9) 0.8829(3)
C47 C 0.7580(6) 0.2188(6) 0.9936(2)
C48 C 0.7136(7) 0.2154(6) 0.99594(18)
C49 C 0.6891(5) 0.1899(6) 0.9853(2)
H25 H 0.6594 0.1876 0.9869
C50 C 0.7090(6) 0.1679(5) 0.97239(19)
C51 C 0.7534(6) 0.1713(6) 0.97009(19)
C52 C 0.7779(5) 0.1968(7) 0.9807(2)
C53 C 0.7741(8) 0.1502(6) 0.9565(2)
H26 H 0.7572 0.1338 0.9494
C54 C 0.8188(8) 0.1528(6) 0.9535(2)
C55 C 0.8429(8) 0.1788(7) 0.9645(3)
H27 H 0.8725 0.1816 0.9629
C56 C 0.8232(7) 0.2008(9) 0.9781(3)
H28 H 0.8399 0.2176 0.9852
C57 C 0.6837(8) 0.1405(7) 0.9606(3)
H29 H 0.6976 0.1181 0.9551
C58 C 0.6393(8) 0.1479(9) 0.9576(3)
H30 H 0.6254 0.1707 0.9629
C59 C 0.8369(8) 0.1288(8) 0.9391(3)
H31 H 0.8205 0.1089 0.9332
C60 C 0.8797(8) 0.1376(8) 0.9350(2)
H32 H 0.8962 0.1586 0.9402
O7 O 0.5563(8) 0.0056(8) 0.9083(3)
O8 O 0.5052(8) 0.0556(8) 0.9069(3)
O11 O 0.9956(8) 0.0529(8) 0.8785(3)
O14 O 0.9416(8) 0.0062(9) 0.8756(3)
O16 O 0.5584(8) 0.0062(9) 0.8744(3)
H33 H 0.794775 0.362425 0.989088
H34 H 0.741558 0.359868 0.980839
H42 H 0.648296 0.234749 0.982427
H43 H 0.601897 0.258045 0.991866
H44 H 0.650853 0.287967 0.990676
Cu4 Cu 0.9717(3) 0.9710(3) 0.14012(8)
Cu2 Cu 0.5290(3) 0.9717(3) 0.89012(8)
Cu7 Cu 0.9710(3) 0.9717(3) 0.85988(8)
O10 O 0.4948(8) 0.9444(8) 0.9069(3)
O13 O 0.4956(8) 0.9471(8) 0.8715(3)
O18 O 0.5772(7) 0.9277(8) 0.88945(19)
H45 H 0.57955 0.913271 0.9004
H46 H 0.570865 0.905787 0.880799
Cu8_2 Cu 0.0290(3) 0.4717(3) 0.39012(8)
O10_2 O 0.0052(8) 0.5556(8) 0.4069(3)
O13_2 O 0.0044(8) 0.5529(8) 0.3715(3)
Cu1_2 Cu 0.4717(3) 0.0290(3) 0.60988(8)
C1_2 C 0.6195(7) 0.1142(7) 0.55396(17)
C2_2 C 0.5802(8) 0.1303(5) 0.5596(2)
H1_2 H 0.5705 0.1572 0.5560
C3_2 C 0.5552(6) 0.1062(8) 0.5705(2)
H2_2 H 0.5290 0.1170 0.5743
C4_2 C 0.5696(7) 0.0660(7) 0.57586(15)
C5_2 C 0.6089(8) 0.0499(5) 0.5703(2)
H3_2 H 0.6185 0.0230 0.5738
C6_2 C 0.6338(6) 0.0740(8) 0.5593(2)
H4_2 H 0.6601 0.0632 0.5556
C7_2 C 0.7374(16) 0.1511(9) 0.4908(4)
C8_2 C 0.7559(17) 0.1370(12) 0.5077(5)
C9_2 C 0.6100(7) 0.3968(7) 0.57873(16)
C10_2 C 0.5760(8) 0.3744(5) 0.5860(3)
H5_2 H 0.5688 0.3469 0.5823
C11_2 C 0.5526(6) 0.3932(7) 0.5988(2)
H6_2 H 0.5299 0.3782 0.6037
C12_2 C 0.5633(7) 0.4343(7) 0.60438(17)
C13_2 C 0.5973(8) 0.4567(5) 0.5971(3)
H7_2 H 0.6044 0.4842 0.6008
C14_2 C 0.6206(6) 0.4379(7) 0.5843(3)
H8_2 H 0.6434 0.4529 0.5794
C15_2 C 0.5430(9) 0.0417(9) 0.5872(3)
C16_2 C 0.5396(9) 0.4572(9) 0.6171(3)
C17_2 C 0.7188(6) 0.2580(6) 0.5064(2)
C18_2 C 0.7154(6) 0.2136(7) 0.50406(18)
C19_2 C 0.6899(6) 0.1891(5) 0.5147(2)
H9_2 H 0.6876 0.1594 0.5131
C20_2 C 0.6679(5) 0.2090(6) 0.52761(19)
C21_2 C 0.6713(6) 0.2534(6) 0.52991(19)
C22_2 C 0.6968(7) 0.2779(5) 0.5193(2)
C23_2 C 0.6502(6) 0.2741(8) 0.5435(2)
H10_2 H 0.6338 0.2572 0.5506
C24_2 C 0.6528(6) 0.3188(8) 0.5465(2)
C25_2 C 0.6788(7) 0.3429(8) 0.5355(3)
H11_2 H 0.6816 0.3725 0.5371
C26_2 C 0.7008(9) 0.3232(7) 0.5219(3)
H12_2 H 0.7176 0.3399 0.5148
C27_2 C 0.6405(7) 0.1837(8) 0.5394(3)
H13_2 H 0.6181 0.1976 0.5449
C28_2 C 0.6479(9) 0.1393(8) 0.5424(3)
H14_2 H 0.6707 0.1254 0.5371
C29_2 C 0.6288(8) 0.3369(8) 0.5609(3)
H15_2 H 0.6089 0.3205 0.5668
C30_2 C 0.6376(8) 0.3797(8) 0.5650(2)
H16_2 H 0.6586 0.3962 0.5598
O1_2 O 0.5056(8) 0.0563(8) 0.5917(3)
O2_2 O 0.5556(8) 0.0052(8) 0.5931(3)
O3_2 O 0.5529(8) 0.4956(8) 0.6215(3)
O4_2 O 0.5062(9) 0.4416(8) 0.6244(3)
O5_2 O 0.7353(8) 0.1970(8) 0.4909(2)
O6_2 O 0.4277(8) 0.0772(7) 0.61055(19)
Cu2_2 Cu 0.9710(3) 0.5283(3) 0.39012(8)
Cu4_2 Cu 0.5283(3) 0.5290(3) 0.64012(8)
Cu5_2 Cu 0.4717(3) 0.4710(3) 0.64012(8)
Cu6_2 Cu 0.4710(3) 0.4717(3) 0.35988(8)
Cu7_2 Cu 0.5290(3) 0.5283(3) 0.35988(8)
C31_2 C 0.8858(7) 0.3805(7) 0.44604(17)
C32_2 C 0.8697(5) 0.4198(8) 0.4404(2)
H17_2 H 0.8428 0.4295 0.4440
C33_2 C 0.8938(8) 0.4448(6) 0.4295(2)
H18_2 H 0.8830 0.4710 0.4257
C34_2 C 0.9340(7) 0.4304(7) 0.42414(15)
C35_2 C 0.9501(5) 0.3911(8) 0.4297(2)
H19_2 H 0.9770 0.3815 0.4262
C36_2 C 0.9260(8) 0.3662(6) 0.4407(2)
H20_2 H 0.9368 0.3399 0.4444
C37_2 C 0.8489(9) 0.2626(16) 0.5092(4)
C38_2 C 0.8630(12) 0.2441(17) 0.4923(5)
C39_2 C 0.6032(7) 0.3900(7) 0.42127(16)
C40_2 C 0.6256(5) 0.4240(8) 0.4140(3)
H21_2 H 0.6531 0.4312 0.4177
C41_2 C 0.6068(7) 0.4474(6) 0.4012(2)
H22_2 H 0.6218 0.4701 0.3963
C42_2 C 0.5657(7) 0.4367(7) 0.39562(17)
C43_2 C 0.5433(5) 0.4027(8) 0.4029(3)
H23_2 H 0.5158 0.3956 0.3992
C44_2 C 0.5621(7) 0.3794(6) 0.4157(3)
H24_2 H 0.5471 0.3566 0.4206
C45_2 C 0.9583(9) 0.4570(9) 0.4128(3)
C46_2 C 0.5428(9) 0.4604(9) 0.3829(3)
C47_2 C 0.7420(6) 0.2812(6) 0.4936(2)
C48_2 C 0.7864(7) 0.2846(6) 0.49594(18)
C49_2 C 0.8109(5) 0.3101(6) 0.4853(2)
H25_2 H 0.8406 0.3124 0.4869
C50_2 C 0.7910(6) 0.3321(5) 0.47239(19)
C51_2 C 0.7466(6) 0.3287(6) 0.47009(19)
C52_2 C 0.7221(5) 0.3032(7) 0.4807(2)
C53_2 C 0.7259(8) 0.3498(6) 0.4565(2)
H26_2 H 0.7428 0.3662 0.4494
C54_2 C 0.6812(8) 0.3472(6) 0.4535(2)
C55_2 C 0.6571(8) 0.3212(7) 0.4645(3)
H27_2 H 0.6275 0.3184 0.4629
C56_2 C 0.6768(7) 0.2992(9) 0.4781(3)
H28_2 H 0.6601 0.2824 0.4852
C57_2 C 0.8163(8) 0.3595(7) 0.4606(3)
H29_2 H 0.8024 0.3819 0.4551
C58_2 C 0.8607(8) 0.3521(9) 0.4576(3)
H30_2 H 0.8746 0.3293 0.4629
C59_2 C 0.6631(8) 0.3712(8) 0.4391(3)
H31_2 H 0.6795 0.3911 0.4332
C60_2 C 0.6203(8) 0.3624(8) 0.4350(2)
H32_2 H 0.6038 0.3414 0.4402
O7_2 O 0.9437(8) 0.4944(8) 0.4083(3)
O8_2 O 0.9948(8) 0.4444(8) 0.4069(3)
O11_2 O 0.5044(8) 0.4471(8) 0.3785(3)
O14_2 O 0.5584(8) 0.4938(9) 0.3756(3)
O15_2 O 0.5062(9) 0.0584(8) 0.6256(3)
O16_2 O 0.9416(8) 0.4938(9) 0.3744(3)
O17_2 O 0.8030(8) 0.2647(8) 0.5091(2)
O18_2 O 0.9228(7) 0.5723(8) 0.38945(19)
H33_2 H 0.705225 0.137575 0.489088
H34_2 H 0.758442 0.140132 0.480839
H35_2 H 0.734749 0.148296 0.517573
H36_2 H 0.758045 0.101897 0.508134
H37_2 H 0.787967 0.150853 0.509324
H38_2 H 0.413271 0.0795499 0.5996
H39_2 H 0.405787 0.0708646 0.619201
H40_2 H 0.862425 0.294775 0.510912
H41_2 H 0.859868 0.241558 0.519161
H42_2 H 0.851704 0.265251 0.482427
H43_2 H 0.898103 0.241955 0.491866
H44_2 H 0.849147 0.212033 0.490676
H45_2 H 0.92045 0.586729 0.4004
H46_2 H 0.929135 0.594213 0.380799
Cu3_2 Cu 0.5283(3) 0.9710(3) 0.60988(8)
O9_2 O 0.4444(8) 0.9948(8) 0.5931(3)
O12_2 O 0.4471(8) 0.9956(8) 0.6285(3)
O18_3 O 0.0723(8) 0.0772(7) 0.13945(19)
H45_3 H 0.0867291 0.0795499 0.1504
H46_3 H 0.0942129 0.0708646 0.130799
O10_3 O 0.0556(8) 0.9948(8) 0.1569(3)
O13_3 O 0.0529(8) 0.9956(8) 0.1215(3)
C1_3 C 0.6142(7) 0.3805(7) 0.30396(17)
C2_3 C 0.6303(5) 0.4198(8) 0.3096(2)
H1_3 H 0.6572 0.4295 0.3060
C3_3 C 0.6062(8) 0.4448(6) 0.3205(2)
H2_3 H 0.6170 0.4710 0.3243
C4_3 C 0.5660(7) 0.4304(7) 0.32586(15)
C5_3 C 0.5499(5) 0.3911(8) 0.3203(2)
H3_3 H 0.5230 0.3815 0.3238
C6_3 C 0.5740(8) 0.3662(6) 0.3093(2)
H4_3 H 0.5632 0.3399 0.3056
C7_3 C 0.6511(9) 0.2626(16) 0.2408(4)
C8_3 C 0.6370(12) 0.2441(17) 0.2577(5)
C9_3 C 0.8968(7) 0.3900(7) 0.32873(16)
C10_3 C 0.8744(5) 0.4240(8) 0.3360(3)
H5_3 H 0.8469 0.4312 0.3323
C11_3 C 0.8932(7) 0.4474(6) 0.3488(2)
H6_3 H 0.8782 0.4701 0.3537
C12_3 C 0.9343(7) 0.4367(7) 0.35438(17)
C13_3 C 0.9567(5) 0.4027(8) 0.3471(3)
H7_3 H 0.9842 0.3956 0.3508
C14_3 C 0.9379(7) 0.3794(6) 0.3343(3)
H8_3 H 0.9529 0.3566 0.3294
C15_3 C 0.5417(9) 0.4570(9) 0.3372(3)
C16_3 C 0.9572(9) 0.4604(9) 0.3671(3)
C17_3 C 0.7580(6) 0.2812(6) 0.2564(2)
C18_3 C 0.7136(7) 0.2846(6) 0.25406(18)
C19_3 C 0.6891(5) 0.3101(6) 0.2647(2)
H9_3 H 0.6594 0.3124 0.2631
C20_3 C 0.7090(6) 0.3321(5) 0.27761(19)
C21_3 C 0.7534(6) 0.3287(6) 0.27991(19)
C22_3 C 0.7779(5) 0.3032(7) 0.2693(2)
C23_3 C 0.7741(8) 0.3498(6) 0.2935(2)
H10_3 H 0.7572 0.3662 0.3006
C24_3 C 0.8188(8) 0.3472(6) 0.2965(2)
C25_3 C 0.8429(8) 0.3212(7) 0.2855(3)
H11_3 H 0.8725 0.3184 0.2871
C26_3 C 0.8232(7) 0.2992(9) 0.2719(3)
H12_3 H 0.8399 0.2824 0.2648
C27_3 C 0.6837(8) 0.3595(7) 0.2894(3)
H13_3 H 0.6976 0.3819 0.2949
C28_3 C 0.6393(8) 0.3521(9) 0.2924(3)
H14_3 H 0.6254 0.3293 0.2871
C29_3 C 0.8369(8) 0.3712(8) 0.3109(3)
H15_3 H 0.8205 0.3911 0.3168
C30_3 C 0.8797(8) 0.3624(8) 0.3150(2)
H16_3 H 0.8962 0.3414 0.3098
O1_3 O 0.5563(8) 0.4944(8) 0.3417(3)
O2_3 O 0.5052(8) 0.4444(8) 0.3431(3)
O3_3 O 0.9956(8) 0.4471(8) 0.3715(3)
O5_3 O 0.6970(8) 0.2647(8) 0.2409(2)
O6_3 O 0.5772(7) 0.5723(8) 0.36055(19)
C31_3 C 0.8805(7) 0.1142(7) 0.19604(17)
C32_3 C 0.9198(8) 0.1303(5) 0.1904(2)
H17_3 H 0.9295 0.1572 0.1940
C33_3 C 0.9448(6) 0.1062(8) 0.1795(2)
H18_3 H 0.9710 0.1170 0.1757
C34_3 C 0.9304(7) 0.0660(7) 0.17414(15)
C35_3 C 0.8911(8) 0.0499(5) 0.1797(2)
H19_3 H 0.8815 0.0230 0.1762
C36_3 C 0.8662(6) 0.0740(8) 0.1907(2)
H20_3 H 0.8399 0.0632 0.1944
C37_3 C 0.7626(16) 0.1511(9) 0.2592(4)
C38_3 C 0.7441(17) 0.1370(12) 0.2423(5)
C39_3 C 0.8900(7) 0.3968(7) 0.17127(16)
C40_3 C 0.9240(8) 0.3744(5) 0.1640(3)
H21_3 H 0.9312 0.3469 0.1677
C41_3 C 0.9474(6) 0.3932(7) 0.1512(2)
H22_3 H 0.9701 0.3782 0.1463
C42_3 C 0.9367(7) 0.4343(7) 0.14562(17)
C43_3 C 0.9027(8) 0.4567(5) 0.1529(3)
H23_3 H 0.8956 0.4842 0.1492
C44_3 C 0.8794(6) 0.4379(7) 0.1657(3)
H24_3 H 0.8566 0.4529 0.1706
C45_3 C 0.9570(9) 0.0417(9) 0.1628(3)
C46_3 C 0.9604(9) 0.4572(9) 0.1329(3)
C47_3 C 0.7812(6) 0.2580(6) 0.2436(2)
C48_3 C 0.7846(6) 0.2136(7) 0.24594(18)
C49_3 C 0.8101(6) 0.1891(5) 0.2353(2)
H25_3 H 0.8124 0.1594 0.2369
C50_3 C 0.8321(5) 0.2090(6) 0.22239(19)
C51_3 C 0.8287(6) 0.2534(6) 0.22009(19)
C52_3 C 0.8032(7) 0.2779(5) 0.2307(2)
C53_3 C 0.8498(6) 0.2741(8) 0.2065(2)
H26_3 H 0.8662 0.2572 0.1994
C54_3 C 0.8472(6) 0.3188(8) 0.2035(2)
C55_3 C 0.8212(7) 0.3429(8) 0.2145(3)
H27_3 H 0.8184 0.3725 0.2129
C56_3 C 0.7992(9) 0.3232(7) 0.2281(3)
H28_3 H 0.7824 0.3399 0.2352
C57_3 C 0.8595(7) 0.1837(8) 0.2106(3)
H29_3 H 0.8819 0.1976 0.2051
C58_3 C 0.8521(9) 0.1393(8) 0.2076(3)
H30_3 H 0.8293 0.1254 0.2129
C59_3 C 0.8712(8) 0.3369(8) 0.1891(3)
H31_3 H 0.8911 0.3205 0.1832
C60_3 C 0.8624(8) 0.3797(8) 0.1850(2)
H32_3 H 0.8414 0.3962 0.1902
O7_3 O 0.9944(8) 0.0563(8) 0.1583(3)
O8_3 O 0.9444(8) 0.0052(8) 0.1569(3)
O9_3 O 0.4948(8) 0.5556(8) 0.3431(3)
O11_3 O 0.9471(8) 0.4956(8) 0.1285(3)
O12_3 O 0.4956(8) 0.5529(8) 0.3785(3)
O17_3 O 0.7647(8) 0.1970(8) 0.2591(2)
H33_3 H 0.637575 0.294775 0.239088
H34_3 H 0.640132 0.241558 0.230839
H35_3 H 0.648296 0.265251 0.267573
H36_3 H 0.601897 0.241955 0.258134
H37_3 H 0.650853 0.212033 0.259324
H38_3 H 0.57955 0.586729 0.3496
H39_3 H 0.570865 0.594213 0.369201
H40_3 H 0.794775 0.137575 0.260912
H41_3 H 0.741558 0.140132 0.269161
H42_3 H 0.765251 0.148296 0.232427
H43_3 H 0.741955 0.101897 0.241866
H44_3 H 0.712033 0.150853 0.240676
O9_4 O 0.0052(8) 0.9444(8) 0.8431(3)
O12_4 O 0.0044(8) 0.9471(8) 0.8785(3)
C1_4 C 0.8858(7) 0.1195(7) 0.80396(17)
C2_4 C 0.8697(5) 0.0802(8) 0.8096(2)
H1_4 H 0.8428 0.0705 0.8060
C3_4 C 0.8938(8) 0.0552(6) 0.8205(2)
H2_4 H 0.8830 0.0290 0.8243
C4_4 C 0.9340(7) 0.0696(7) 0.82586(15)
C5_4 C 0.9501(5) 0.1089(8) 0.8203(2)
H3_4 H 0.9770 0.1185 0.8238
C6_4 C 0.9260(8) 0.1338(6) 0.8093(2)
H4_4 H 0.9368 0.1601 0.8056
C7_4 C 0.8489(9) 0.2374(16) 0.7408(4)
C8_4 C 0.8630(12) 0.2559(17) 0.7577(5)
C9_4 C 0.6032(7) 0.1100(7) 0.82873(16)
C10_4 C 0.6256(5) 0.0760(8) 0.8360(3)
H5_4 H 0.6531 0.0688 0.8323
C11_4 C 0.6068(7) 0.0526(6) 0.8488(2)
H6_4 H 0.6218 0.0299 0.8537
C12_4 C 0.5657(7) 0.0633(7) 0.85438(17)
C13_4 C 0.5433(5) 0.0973(8) 0.8471(3)
H7_4 H 0.5158 0.1044 0.8508
C14_4 C 0.5621(7) 0.1206(6) 0.8343(3)
H8_4 H 0.5471 0.1434 0.8294
C15_4 C 0.9583(9) 0.0430(9) 0.8372(3)
C16_4 C 0.5428(9) 0.0396(9) 0.8671(3)
C17_4 C 0.7420(6) 0.2188(6) 0.7564(2)
C18_4 C 0.7864(7) 0.2154(6) 0.75406(18)
C19_4 C 0.8109(5) 0.1899(6) 0.7647(2)
H9_4 H 0.8406 0.1876 0.7631
C20_4 C 0.7910(6) 0.1679(5) 0.77761(19)
C21_4 C 0.7466(6) 0.1713(6) 0.77991(19)
C22_4 C 0.7221(5) 0.1968(7) 0.7693(2)
C23_4 C 0.7259(8) 0.1502(6) 0.7935(2)
H10_4 H 0.7428 0.1338 0.8006
C24_4 C 0.6812(8) 0.1528(6) 0.7965(2)
C25_4 C 0.6571(8) 0.1788(7) 0.7855(3)
H11_4 H 0.6275 0.1816 0.7871
C26_4 C 0.6768(7) 0.2008(9) 0.7719(3)
H12_4 H 0.6601 0.2176 0.7648
C27_4 C 0.8163(8) 0.1405(7) 0.7894(3)
H13_4 H 0.8024 0.1181 0.7949
C28_4 C 0.8607(8) 0.1479(9) 0.7924(3)
H14_4 H 0.8746 0.1707 0.7871
C29_4 C 0.6631(8) 0.1288(8) 0.8109(3)
H15_4 H 0.6795 0.1089 0.8168
C30_4 C 0.6203(8) 0.1376(8) 0.8150(2)
H16_4 H 0.6038 0.1586 0.8098
O1_4 O 0.9437(8) 0.0056(8) 0.8417(3)
O2_4 O 0.9948(8) 0.0556(8) 0.8431(3)
O3_4 O 0.5044(8) 0.0529(8) 0.8715(3)
O5_4 O 0.8030(8) 0.2353(8) 0.7409(2)
C31_4 C 0.6195(7) 0.3858(7) 0.69604(17)
C32_4 C 0.5802(8) 0.3697(5) 0.6904(2)
H17_4 H 0.5705 0.3428 0.6940
C33_4 C 0.5552(6) 0.3938(8) 0.6795(2)
H18_4 H 0.5290 0.3830 0.6757
C34_4 C 0.5696(7) 0.4340(7) 0.67414(15)
C35_4 C 0.6089(8) 0.4501(5) 0.6797(2)
H19_4 H 0.6185 0.4770 0.6762
C36_4 C 0.6338(6) 0.4260(8) 0.6907(2)
H20_4 H 0.6601 0.4368 0.6944
C37_4 C 0.7374(16) 0.3489(9) 0.7592(4)
C38_4 C 0.7559(17) 0.3630(12) 0.7423(5)
C39_4 C 0.6100(7) 0.1032(7) 0.67127(16)
C40_4 C 0.5760(8) 0.1256(5) 0.6640(3)
H21_4 H 0.5688 0.1531 0.6677
C41_4 C 0.5526(6) 0.1068(7) 0.6512(2)
H22_4 H 0.5299 0.1218 0.6463
C42_4 C 0.5633(7) 0.0657(7) 0.64562(17)
C43_4 C 0.5973(8) 0.0433(5) 0.6529(3)
H23_4 H 0.6044 0.0158 0.6492
C44_4 C 0.6206(6) 0.0621(7) 0.6657(3)
H24_4 H 0.6434 0.0471 0.6706
C45_4 C 0.5430(9) 0.4583(9) 0.6628(3)
C46_4 C 0.5396(9) 0.0428(9) 0.6329(3)
C47_4 C 0.7188(6) 0.2420(6) 0.7436(2)
C48_4 C 0.7154(6) 0.2864(7) 0.74594(18)
C49_4 C 0.6899(6) 0.3109(5) 0.7353(2)
H25_4 H 0.6876 0.3406 0.7369
C50_4 C 0.6679(5) 0.2910(6) 0.72239(19)
C51_4 C 0.6713(6) 0.2466(6) 0.72009(19)
C52_4 C 0.6968(7) 0.2221(5) 0.7307(2)
C53_4 C 0.6502(6) 0.2259(8) 0.7065(2)
H26_4 H 0.6338 0.2428 0.6994
C54_4 C 0.6528(6) 0.1812(8) 0.7035(2)
C55_4 C 0.6788(7) 0.1571(8) 0.7145(3)
H27_4 H 0.6816 0.1275 0.7129
C56_4 C 0.7008(9) 0.1768(7) 0.7281(3)
H28_4 H 0.7176 0.1601 0.7352
C57_4 C 0.6405(7) 0.3163(8) 0.7106(3)
H29_4 H 0.6181 0.3024 0.7051
C58_4 C 0.6479(9) 0.3607(8) 0.7076(3)
H30_4 H 0.6707 0.3746 0.7129
C59_4 C 0.6288(8) 0.1631(8) 0.6891(3)
H31_4 H 0.6089 0.1795 0.6832
C60_4 C 0.6376(8) 0.1203(8) 0.6850(2)
H32_4 H 0.6586 0.1038 0.6902
O7_4 O 0.5056(8) 0.4437(8) 0.6583(3)
O8_4 O 0.5556(8) 0.4948(8) 0.6569(3)
O10_4 O 0.4444(8) 0.5052(8) 0.6569(3)
O11_4 O 0.5529(8) 0.0044(8) 0.6285(3)
O13_4 O 0.4471(8) 0.5044(8) 0.6215(3)
O17_4 O 0.7353(8) 0.3030(8) 0.7591(2)
O18_4 O 0.4277(8) 0.4228(7) 0.63945(19)
H33_4 H 0.862425 0.205225 0.739088
H34_4 H 0.859868 0.258442 0.730839
H35_4 H 0.851704 0.234749 0.767573
H36_4 H 0.898103 0.258045 0.758134
H37_4 H 0.849147 0.287967 0.759324
H40_4 H 0.705225 0.362425 0.760912
H41_4 H 0.758442 0.359868 0.769161
H42_4 H 0.734749 0.351704 0.732427
H43_4 H 0.758045 0.398103 0.741866
H44_4 H 0.787967 0.349147 0.740676
H45_4 H 0.413271 0.42045 0.6504
H46_4 H 0.405787 0.429135 0.630799
O6_4 O 0.9228(7) 0.9277(8) 0.86055(19)
H38_4 H 0.92045 0.913271 0.8496
H39_4 H 0.929135 0.905787 0.869201
C1_5 C 0.3805(7) 0.8858(7) 0.55396(17)
C2_5 C 0.4198(8) 0.8697(5) 0.5596(2)
H1_5 H 0.4295 0.8428 0.5560
C3_5 C 0.4448(6) 0.8938(8) 0.5705(2)
H2_5 H 0.4710 0.8830 0.5743
C4_5 C 0.4304(7) 0.9340(7) 0.57586(15)
C5_5 C 0.3911(8) 0.9501(5) 0.5703(2)
H3_5 H 0.3815 0.9770 0.5738
C6_5 C 0.3662(6) 0.9260(8) 0.5593(2)
H4_5 H 0.3399 0.9368 0.5556
C7_5 C 0.2626(16) 0.8489(9) 0.4908(4)
C8_5 C 0.2441(17) 0.8630(12) 0.5077(5)
C9_5 C 0.3900(7) 0.6032(7) 0.57873(16)
C10_5 C 0.4240(8) 0.6256(5) 0.5860(3)
H5_5 H 0.4312 0.6531 0.5823
C11_5 C 0.4474(6) 0.6068(7) 0.5988(2)
H6_5 H 0.4701 0.6218 0.6037
C12_5 C 0.4367(7) 0.5657(7) 0.60438(17)
C13_5 C 0.4027(8) 0.5433(5) 0.5971(3)
H7_5 H 0.3956 0.5158 0.6008
C14_5 C 0.3794(6) 0.5621(7) 0.5843(3)
H8_5 H 0.3566 0.5471 0.5794
C15_5 C 0.4570(9) 0.9583(9) 0.5872(3)
C16_5 C 0.4604(9) 0.5428(9) 0.6171(3)
C17_5 C 0.2812(6) 0.7420(6) 0.5064(2)
C18_5 C 0.2846(6) 0.7864(7) 0.50406(18)
C19_5 C 0.3101(6) 0.8109(5) 0.5147(2)
H9_5 H 0.3124 0.8406 0.5131
C20_5 C 0.3321(5) 0.7910(6) 0.52761(19)
C21_5 C 0.3287(6) 0.7466(6) 0.52991(19)
C22_5 C 0.3032(7) 0.7221(5) 0.5193(2)
C23_5 C 0.3498(6) 0.7259(8) 0.5435(2)
H10_5 H 0.3662 0.7428 0.5506
C24_5 C 0.3472(6) 0.6812(8) 0.5465(2)
C25_5 C 0.3212(7) 0.6571(8) 0.5355(3)
H11_5 H 0.3184 0.6275 0.5371
C26_5 C 0.2992(9) 0.6768(7) 0.5219(3)
H12_5 H 0.2824 0.6601 0.5148
C27_5 C 0.3595(7) 0.8163(8) 0.5394(3)
H13_5 H 0.3819 0.8024 0.5449
C28_5 C 0.3521(9) 0.8607(8) 0.5424(3)
H14_5 H 0.3293 0.8746 0.5371
C29_5 C 0.3712(8) 0.6631(8) 0.5609(3)
H15_5 H 0.3911 0.6795 0.5668
C30_5 C 0.3624(8) 0.6203(8) 0.5650(2)
H16_5 H 0.3414 0.6038 0.5598
O1_5 O 0.4944(8) 0.9437(8) 0.5917(3)
O4_3 O 0.4938(9) 0.5584(8) 0.6244(3)
O5_5 O 0.2647(8) 0.8030(8) 0.4909(2)
O6_5 O 0.5723(8) 0.9228(7) 0.61055(19)
C31_5 C 0.1142(7) 0.6195(7) 0.44604(17)
C32_5 C 0.1303(5) 0.5802(8) 0.4404(2)
H17_5 H 0.1572 0.5705 0.4440
C33_5 C 0.1062(8) 0.5552(6) 0.4295(2)
H18_5 H 0.1170 0.5290 0.4257
C34_5 C 0.0660(7) 0.5696(7) 0.42414(15)
C35_5 C 0.0499(5) 0.6089(8) 0.4297(2)
H19_5 H 0.0230 0.6185 0.4262
C36_5 C 0.0740(8) 0.6338(6) 0.4407(2)
H20_5 H 0.0632 0.6601 0.4444
C37_5 C 0.1511(9) 0.7374(16) 0.5092(4)
C38_5 C 0.1370(12) 0.7559(17) 0.4923(5)
C39_5 C 0.3968(7) 0.6100(7) 0.42127(16)
C40_5 C 0.3744(5) 0.5760(8) 0.4140(3)
H21_5 H 0.3469 0.5688 0.4177
C41_5 C 0.3932(7) 0.5526(6) 0.4012(2)
H22_5 H 0.3782 0.5299 0.3963
C42_5 C 0.4343(7) 0.5633(7) 0.39562(17)
C43_5 C 0.4567(5) 0.5973(8) 0.4029(3)
H23_5 H 0.4842 0.6044 0.3992
C44_5 C 0.4379(7) 0.6206(6) 0.4157(3)
H24_5 H 0.4529 0.6434 0.4206
C45_5 C 0.0417(9) 0.5430(9) 0.4128(3)
C46_5 C 0.4572(9) 0.5396(9) 0.3829(3)
C47_5 C 0.2580(6) 0.7188(6) 0.4936(2)
C48_5 C 0.2136(7) 0.7154(6) 0.49594(18)
C49_5 C 0.1891(5) 0.6899(6) 0.4853(2)
H25_5 H 0.1594 0.6876 0.4869
C50_5 C 0.2090(6) 0.6679(5) 0.47239(19)
C51_5 C 0.2534(6) 0.6713(6) 0.47009(19)
C52_5 C 0.2779(5) 0.6968(7) 0.4807(2)
C53_5 C 0.2741(8) 0.6502(6) 0.4565(2)
H26_5 H 0.2572 0.6338 0.4494
C54_5 C 0.3188(8) 0.6528(6) 0.4535(2)
C55_5 C 0.3429(8) 0.6788(7) 0.4645(3)
H27_5 H 0.3725 0.6816 0.4629
C56_5 C 0.3232(7) 0.7008(9) 0.4781(3)
H28_5 H 0.3399 0.7176 0.4852
C57_5 C 0.1837(8) 0.6405(7) 0.4606(3)
H29_5 H 0.1976 0.6181 0.4551
C58_5 C 0.1393(8) 0.6479(9) 0.4576(3)
H30_5 H 0.1254 0.6707 0.4629
C59_5 C 0.3369(8) 0.6288(8) 0.4391(3)
H31_5 H 0.3205 0.6089 0.4332
C60_5 C 0.3797(8) 0.6376(8) 0.4350(2)
H32_5 H 0.3962 0.6586 0.4402
O7_5 O 0.0563(8) 0.5056(8) 0.4083(3)
O14_3 O 0.4416(8) 0.5062(9) 0.3756(3)
O15_3 O 0.4938(9) 0.9416(8) 0.6256(3)
O16_3 O 0.0584(8) 0.5062(9) 0.3744(3)
O17_5 O 0.1970(8) 0.7353(8) 0.5091(2)
O18_5 O 0.0772(7) 0.4277(8) 0.38945(19)
H33_5 H 0.294775 0.862425 0.489088
H34_5 H 0.241558 0.859868 0.480839
H35_5 H 0.265251 0.851704 0.517573
H36_5 H 0.241955 0.898103 0.508134
H37_5 H 0.212033 0.849147 0.509324
H38_5 H 0.586729 0.92045 0.5996
H39_5 H 0.594213 0.929135 0.619201
H40_5 H 0.137575 0.705225 0.510912
H41_5 H 0.140132 0.758442 0.519161
H42_5 H 0.148296 0.734749 0.482427
H43_5 H 0.101897 0.758045 0.491866
H44_5 H 0.150853 0.787967 0.490676
H45_5 H 0.0795499 0.413271 0.4004
H46_5 H 0.0708646 0.405787 0.380799
O18_6 O 0.4228(7) 0.0723(8) 0.88945(19)
H45_6 H 0.42045 0.0867291 0.9004
H46_6 H 0.429135 0.0942129 0.880799
C1_6 C 0.1195(7) 0.6142(7) 0.05396(17)
C2_6 C 0.0802(8) 0.6303(5) 0.0596(2)
H1_6 H 0.0705 0.6572 0.0560
C3_6 C 0.0552(6) 0.6062(8) 0.0705(2)
H2_6 H 0.0290 0.6170 0.0743
C4_6 C 0.0696(7) 0.5660(7) 0.07586(15)
C5_6 C 0.1089(8) 0.5499(5) 0.0703(2)
H3_6 H 0.1185 0.5230 0.0738
C6_6 C 0.1338(6) 0.5740(8) 0.0593(2)
H4_6 H 0.1601 0.5632 0.0556
C8_6 C 0.2559(17) 0.6370(12) 0.0077(5)
C9_6 C 0.1100(7) 0.8968(7) 0.07873(16)
C10_6 C 0.0760(8) 0.8744(5) 0.0860(3)
H5_6 H 0.0688 0.8469 0.0823
C11_6 C 0.0526(6) 0.8932(7) 0.0988(2)
H6_6 H 0.0299 0.8782 0.1037
C12_6 C 0.0633(7) 0.9343(7) 0.10438(17)
C13_6 C 0.0973(8) 0.9567(5) 0.0971(3)
H7_6 H 0.1044 0.9842 0.1008
C14_6 C 0.1206(6) 0.9379(7) 0.0843(3)
H8_6 H 0.1434 0.9529 0.0794
C15_6 C 0.0430(9) 0.5417(9) 0.0872(3)
C16_6 C 0.0396(9) 0.9572(9) 0.1171(3)
C17_6 C 0.2188(6) 0.7580(6) 0.0064(2)
C18_6 C 0.2154(6) 0.7136(7) 0.00406(18)
C19_6 C 0.1899(6) 0.6891(5) 0.0147(2)
H9_6 H 0.1876 0.6594 0.0131
C20_6 C 0.1679(5) 0.7090(6) 0.02761(19)
C21_6 C 0.1713(6) 0.7534(6) 0.02991(19)
C22_6 C 0.1968(7) 0.7779(5) 0.0193(2)
C23_6 C 0.1502(6) 0.7741(8) 0.0435(2)
H10_6 H 0.1338 0.7572 0.0506
C24_6 C 0.1528(6) 0.8188(8) 0.0465(2)
C25_6 C 0.1788(7) 0.8429(8) 0.0355(3)
H11_6 H 0.1816 0.8725 0.0371
C26_6 C 0.2008(9) 0.8232(7) 0.0219(3)
H12_6 H 0.2176 0.8399 0.0148
C27_6 C 0.1405(7) 0.6837(8) 0.0394(3)
H13_6 H 0.1181 0.6976 0.0449
C28_6 C 0.1479(9) 0.6393(8) 0.0424(3)
H14_6 H 0.1707 0.6254 0.0371
C29_6 C 0.1288(8) 0.8369(8) 0.0609(3)
H15_6 H 0.1089 0.8205 0.0668
C30_6 C 0.1376(8) 0.8797(8) 0.0650(2)
H16_6 H 0.1586 0.8962 0.0598
O1_6 O 0.0056(8) 0.5563(8) 0.0917(3)
O4_4 O 0.0062(9) 0.9416(8) 0.1244(3)
C37_6 C 0.3489(9) 0.7626(16) 0.0092(4)
O15_4 O 0.0062(9) 0.5584(8) 0.1256(3)
O17_6 O 0.3030(8) 0.7647(8) 0.0091(2)
H35_6 H 0.234749 0.648296 0.0175729
H36_6 H 0.258045 0.601897 0.00813446
H37_6 H 0.287967 0.650853 0.00932362
H40_6 H 0.362425 0.794775 0.0109117
H41_6 H 0.359868 0.741558 0.0191611
C7_6 C 0.2374(16) 0.6511(9) 0.9908(4)
O5_6 O 0.2353(8) 0.6970(8) 0.9909(2)
C31_6 C 0.3858(7) 0.8805(7) 0.94604(17)
C32_6 C 0.3697(5) 0.9198(8) 0.9404(2)
H17_6 H 0.3428 0.9295 0.9440
C33_6 C 0.3938(8) 0.9448(6) 0.9295(2)
H18_6 H 0.3830 0.9710 0.9257
C34_6 C 0.4340(7) 0.9304(7) 0.92414(15)
C35_6 C 0.4501(5) 0.8911(8) 0.9297(2)
H19_6 H 0.4770 0.8815 0.9262
C36_6 C 0.4260(8) 0.8662(6) 0.9407(2)
H20_6 H 0.4368 0.8399 0.9444
C38_6 C 0.3630(12) 0.7441(17) 0.9923(5)
C39_6 C 0.1032(7) 0.8900(7) 0.92127(16)
C40_6 C 0.1256(5) 0.9240(8) 0.9140(3)
H21_6 H 0.1531 0.9312 0.9177
C41_6 C 0.1068(7) 0.9474(6) 0.9012(2)
H22_6 H 0.1218 0.9701 0.8963
C42_6 C 0.0657(7) 0.9367(7) 0.89562(17)
C43_6 C 0.0433(5) 0.9027(8) 0.9029(3)
H23_6 H 0.0158 0.8956 0.8992
C44_6 C 0.0621(7) 0.8794(6) 0.9157(3)
H24_6 H 0.0471 0.8566 0.9206
C45_6 C 0.4583(9) 0.9570(9) 0.9128(3)
C46_6 C 0.0428(9) 0.9604(9) 0.8829(3)
C47_6 C 0.2420(6) 0.7812(6) 0.9936(2)
C48_6 C 0.2864(7) 0.7846(6) 0.99594(18)
C49_6 C 0.3109(5) 0.8101(6) 0.9853(2)
H25_6 H 0.3406 0.8124 0.9869
C50_6 C 0.2910(6) 0.8321(5) 0.97239(19)
C51_6 C 0.2466(6) 0.8287(6) 0.97009(19)
C52_6 C 0.2221(5) 0.8032(7) 0.9807(2)
C53_6 C 0.2259(8) 0.8498(6) 0.9565(2)
H26_6 H 0.2428 0.8662 0.9494
C54_6 C 0.1812(8) 0.8472(6) 0.9535(2)
C55_6 C 0.1571(8) 0.8212(7) 0.9645(3)
H27_6 H 0.1275 0.8184 0.9629
C56_6 C 0.1768(7) 0.7992(9) 0.9781(3)
H28_6 H 0.1601 0.7824 0.9852
C57_6 C 0.3163(8) 0.8595(7) 0.9606(3)
H29_6 H 0.3024 0.8819 0.9551
C58_6 C 0.3607(8) 0.8521(9) 0.9576(3)
H30_6 H 0.3746 0.8293 0.9629
C59_6 C 0.1631(8) 0.8712(8) 0.9391(3)
H31_6 H 0.1795 0.8911 0.9332
C60_6 C 0.1203(8) 0.8624(8) 0.9350(2)
H32_6 H 0.1038 0.8414 0.9402
O7_6 O 0.4437(8) 0.9944(8) 0.9083(3)
O14_4 O 0.0584(8) 0.9938(9) 0.8756(3)
O16_4 O 0.4416(8) 0.9938(9) 0.8744(3)
H33_6 H 0.205225 0.637575 0.989088
H34_6 H 0.258442 0.640132 0.980839
H42_6 H 0.351704 0.765251 0.982427
H43_6 H 0.398103 0.741955 0.991866
H44_6 H 0.349147 0.712033 0.990676
O6_6 O 0.9277(8) 0.5772(7) 0.11055(19)
H38_6 H 0.913271 0.57955 0.0996001
H39_6 H 0.905787 0.570865 0.119201
O6_7 O 0.0772(7) 0.0723(8) 0.86055(19)
H38_7 H 0.0795499 0.0867291 0.8496
H39_7 H 0.0708646 0.0942129 0.869201
C1_7 C 0.1142(7) 0.8805(7) 0.80396(17)
C2_7 C 0.1303(5) 0.9198(8) 0.8096(2)
H1_7 H 0.1572 0.9295 0.8060
C3_7 C 0.1062(8) 0.9448(6) 0.8205(2)
H2_7 H 0.1170 0.9710 0.8243
C4_7 C 0.0660(7) 0.9304(7) 0.82586(15)
C5_7 C 0.0499(5) 0.8911(8) 0.8203(2)
H3_7 H 0.0230 0.8815 0.8238
C6_7 C 0.0740(8) 0.8662(6) 0.8093(2)
H4_7 H 0.0632 0.8399 0.8056
C7_7 C 0.1511(9) 0.7626(16) 0.7408(4)
C8_7 C 0.1370(12) 0.7441(17) 0.7577(5)
C9_7 C 0.3968(7) 0.8900(7) 0.82873(16)
C10_7 C 0.3744(5) 0.9240(8) 0.8360(3)
H5_7 H 0.3469 0.9312 0.8323
C11_7 C 0.3932(7) 0.9474(6) 0.8488(2)
H6_7 H 0.3782 0.9701 0.8537
C12_7 C 0.4343(7) 0.9367(7) 0.85438(17)
C13_7 C 0.4567(5) 0.9027(8) 0.8471(3)
H7_7 H 0.4842 0.8956 0.8508
C14_7 C 0.4379(7) 0.8794(6) 0.8343(3)
H8_7 H 0.4529 0.8566 0.8294
C15_7 C 0.0417(9) 0.9570(9) 0.8372(3)
C16_7 C 0.4572(9) 0.9604(9) 0.8671(3)
C17_7 C 0.2580(6) 0.7812(6) 0.7564(2)
C18_7 C 0.2136(7) 0.7846(6) 0.75406(18)
C19_7 C 0.1891(5) 0.8101(6) 0.7647(2)
H9_7 H 0.1594 0.8124 0.7631
C20_7 C 0.2090(6) 0.8321(5) 0.77761(19)
C21_7 C 0.2534(6) 0.8287(6) 0.77991(19)
C22_7 C 0.2779(5) 0.8032(7) 0.7693(2)
C23_7 C 0.2741(8) 0.8498(6) 0.7935(2)
H10_7 H 0.2572 0.8662 0.8006
C24_7 C 0.3188(8) 0.8472(6) 0.7965(2)
C25_7 C 0.3429(8) 0.8212(7) 0.7855(3)
H11_7 H 0.3725 0.8184 0.7871
C26_7 C 0.3232(7) 0.7992(9) 0.7719(3)
H12_7 H 0.3399 0.7824 0.7648
C27_7 C 0.1837(8) 0.8595(7) 0.7894(3)
H13_7 H 0.1976 0.8819 0.7949
C28_7 C 0.1393(8) 0.8521(9) 0.7924(3)
H14_7 H 0.1254 0.8293 0.7871
C29_7 C 0.3369(8) 0.8712(8) 0.8109(3)
H15_7 H 0.3205 0.8911 0.8168
C30_7 C 0.3797(8) 0.8624(8) 0.8150(2)
H16_7 H 0.3962 0.8414 0.8098
O1_7 O 0.0563(8) 0.9944(8) 0.8417(3)
O5_7 O 0.1970(8) 0.7647(8) 0.7409(2)
C31_7 C 0.3805(7) 0.6142(7) 0.69604(17)
C32_7 C 0.4198(8) 0.6303(5) 0.6904(2)
H17_7 H 0.4295 0.6572 0.6940
C33_7 C 0.4448(6) 0.6062(8) 0.6795(2)
H18_7 H 0.4710 0.6170 0.6757
C34_7 C 0.4304(7) 0.5660(7) 0.67414(15)
C35_7 C 0.3911(8) 0.5499(5) 0.6797(2)
H19_7 H 0.3815 0.5230 0.6762
C36_7 C 0.3662(6) 0.5740(8) 0.6907(2)
H20_7 H 0.3399 0.5632 0.6944
C37_7 C 0.2626(16) 0.6511(9) 0.7592(4)
C38_7 C 0.2441(17) 0.6370(12) 0.7423(5)
C39_7 C 0.3900(7) 0.8968(7) 0.67127(16)
C40_7 C 0.4240(8) 0.8744(5) 0.6640(3)
H21_7 H 0.4312 0.8469 0.6677
C41_7 C 0.4474(6) 0.8932(7) 0.6512(2)
H22_7 H 0.4701 0.8782 0.6463
C42_7 C 0.4367(7) 0.9343(7) 0.64562(17)
C43_7 C 0.4027(8) 0.9567(5) 0.6529(3)
H23_7 H 0.3956 0.9842 0.6492
C44_7 C 0.3794(6) 0.9379(7) 0.6657(3)
H24_7 H 0.3566 0.9529 0.6706
C45_7 C 0.4570(9) 0.5417(9) 0.6628(3)
C46_7 C 0.4604(9) 0.9572(9) 0.6329(3)
C47_7 C 0.2812(6) 0.7580(6) 0.7436(2)
C48_7 C 0.2846(6) 0.7136(7) 0.74594(18)
C49_7 C 0.3101(6) 0.6891(5) 0.7353(2)
H25_7 H 0.3124 0.6594 0.7369
C50_7 C 0.3321(5) 0.7090(6) 0.72239(19)
C51_7 C 0.3287(6) 0.7534(6) 0.72009(19)
C52_7 C 0.3032(7) 0.7779(5) 0.7307(2)
C53_7 C 0.3498(6) 0.7741(8) 0.7065(2)
H26_7 H 0.3662 0.7572 0.6994
C54_7 C 0.3472(6) 0.8188(8) 0.7035(2)
C55_7 C 0.3212(7) 0.8429(8) 0.7145(3)
H27_7 H 0.3184 0.8725 0.7129
C56_7 C 0.2992(9) 0.8232(7) 0.7281(3)
H28_7 H 0.2824 0.8399 0.7352
C57_7 C 0.3595(7) 0.6837(8) 0.7106(3)
H29_7 H 0.3819 0.6976 0.7051
C58_7 C 0.3521(9) 0.6393(8) 0.7076(3)
H30_7 H 0.3293 0.6254 0.7129
C59_7 C 0.3712(8) 0.8369(8) 0.6891(3)
H31_7 H 0.3911 0.8205 0.6832
C60_7 C 0.3624(8) 0.8797(8) 0.6850(2)
H32_7 H 0.3414 0.8962 0.6902
O7_7 O 0.4944(8) 0.5563(8) 0.6583(3)
O17_7 O 0.2647(8) 0.6970(8) 0.7591(2)
O18_7 O 0.5723(8) 0.5772(7) 0.63945(19)
H33_7 H 0.137575 0.794775 0.739088
H34_7 H 0.140132 0.741558 0.730839
H35_7 H 0.148296 0.765251 0.767573
H36_7 H 0.101897 0.741955 0.758134
H37_7 H 0.150853 0.712033 0.759324
H40_7 H 0.294775 0.637575 0.760912
H41_7 H 0.241558 0.640132 0.769161
H42_7 H 0.265251 0.648296 0.732427
H43_7 H 0.241955 0.601897 0.741866
H44_7 H 0.212033 0.650853 0.740676
H45_7 H 0.586729 0.57955 0.6504
H46_7 H 0.594213 0.570865 0.630799
C1_8 C 0.3858(7) 0.6195(7) 0.30396(17)
C2_8 C 0.3697(5) 0.5802(8) 0.3096(2)
H1_8 H 0.3428 0.5705 0.3060
C3_8 C 0.3938(8) 0.5552(6) 0.3205(2)
H2_8 H 0.3830 0.5290 0.3243
C4_8 C 0.4340(7) 0.5696(7) 0.32586(15)
C5_8 C 0.4501(5) 0.6089(8) 0.3203(2)
H3_8 H 0.4770 0.6185 0.3238
C6_8 C 0.4260(8) 0.6338(6) 0.3093(2)
H4_8 H 0.4368 0.6601 0.3056
C7_8 C 0.3489(9) 0.7374(16) 0.2408(4)
C8_8 C 0.3630(12) 0.7559(17) 0.2577(5)
C9_8 C 0.1032(7) 0.6100(7) 0.32873(16)
C10_8 C 0.1256(5) 0.5760(8) 0.3360(3)
H5_8 H 0.1531 0.5688 0.3323
C11_8 C 0.1068(7) 0.5526(6) 0.3488(2)
H6_8 H 0.1218 0.5299 0.3537
C12_8 C 0.0657(7) 0.5633(7) 0.35438(17)
C13_8 C 0.0433(5) 0.5973(8) 0.3471(3)
H7_8 H 0.0158 0.6044 0.3508
C14_8 C 0.0621(7) 0.6206(6) 0.3343(3)
H8_8 H 0.0471 0.6434 0.3294
C15_8 C 0.4583(9) 0.5430(9) 0.3372(3)
C16_8 C 0.0428(9) 0.5396(9) 0.3671(3)
C17_8 C 0.2420(6) 0.7188(6) 0.2564(2)
C18_8 C 0.2864(7) 0.7154(6) 0.25406(18)
C19_8 C 0.3109(5) 0.6899(6) 0.2647(2)
H9_8 H 0.3406 0.6876 0.2631
C20_8 C 0.2910(6) 0.6679(5) 0.27761(19)
C21_8 C 0.2466(6) 0.6713(6) 0.27991(19)
C22_8 C 0.2221(5) 0.6968(7) 0.2693(2)
C23_8 C 0.2259(8) 0.6502(6) 0.2935(2)
H10_8 H 0.2428 0.6338 0.3006
C24_8 C 0.1812(8) 0.6528(6) 0.2965(2)
C25_8 C 0.1571(8) 0.6788(7) 0.2855(3)
H11_8 H 0.1275 0.6816 0.2871
C26_8 C 0.1768(7) 0.7008(9) 0.2719(3)
H12_8 H 0.1601 0.7176 0.2648
C27_8 C 0.3163(8) 0.6405(7) 0.2894(3)
H13_8 H 0.3024 0.6181 0.2949
C28_8 C 0.3607(8) 0.6479(9) 0.2924(3)
H14_8 H 0.3746 0.6707 0.2871
C29_8 C 0.1631(8) 0.6288(8) 0.3109(3)
H15_8 H 0.1795 0.6089 0.3168
C30_8 C 0.1203(8) 0.6376(8) 0.3150(2)
H16_8 H 0.1038 0.6586 0.3098
O1_8 O 0.4437(8) 0.5056(8) 0.3417(3)
O5_8 O 0.3030(8) 0.7353(8) 0.2409(2)
O6_8 O 0.4228(7) 0.4277(8) 0.36055(19)
C31_8 C 0.1195(7) 0.8858(7) 0.19604(17)
C32_8 C 0.0802(8) 0.8697(5) 0.1904(2)
H17_8 H 0.0705 0.8428 0.1940
C33_8 C 0.0552(6) 0.8938(8) 0.1795(2)
H18_8 H 0.0290 0.8830 0.1757
C34_8 C 0.0696(7) 0.9340(7) 0.17414(15)
C35_8 C 0.1089(8) 0.9501(5) 0.1797(2)
H19_8 H 0.1185 0.9770 0.1762
C36_8 C 0.1338(6) 0.9260(8) 0.1907(2)
H20_8 H 0.1601 0.9368 0.1944
C37_8 C 0.2374(16) 0.8489(9) 0.2592(4)
C38_8 C 0.2559(17) 0.8630(12) 0.2423(5)
C39_8 C 0.1100(7) 0.6032(7) 0.17127(16)
C40_8 C 0.0760(8) 0.6256(5) 0.1640(3)
H21_8 H 0.0688 0.6531 0.1677
C41_8 C 0.0526(6) 0.6068(7) 0.1512(2)
H22_8 H 0.0299 0.6218 0.1463
C42_8 C 0.0633(7) 0.5657(7) 0.14562(17)
C43_8 C 0.0973(8) 0.5433(5) 0.1529(3)
H23_8 H 0.1044 0.5158 0.1492
C44_8 C 0.1206(6) 0.5621(7) 0.1657(3)
H24_8 H 0.1434 0.5471 0.1706
C45_8 C 0.0430(9) 0.9583(9) 0.1628(3)
C46_8 C 0.0396(9) 0.5428(9) 0.1329(3)
C47_8 C 0.2188(6) 0.7420(6) 0.2436(2)
C48_8 C 0.2154(6) 0.7864(7) 0.24594(18)
C49_8 C 0.1899(6) 0.8109(5) 0.2353(2)
H25_8 H 0.1876 0.8406 0.2369
C50_8 C 0.1679(5) 0.7910(6) 0.22239(19)
C51_8 C 0.1713(6) 0.7466(6) 0.22009(19)
C52_8 C 0.1968(7) 0.7221(5) 0.2307(2)
C53_8 C 0.1502(6) 0.7259(8) 0.2065(2)
H26_8 H 0.1338 0.7428 0.1994
C54_8 C 0.1528(6) 0.6812(8) 0.2035(2)
C55_8 C 0.1788(7) 0.6571(8) 0.2145(3)
H27_8 H 0.1816 0.6275 0.2129
C56_8 C 0.2008(9) 0.6768(7) 0.2281(3)
H28_8 H 0.2176 0.6601 0.2352
C57_8 C 0.1405(7) 0.8163(8) 0.2106(3)
H29_8 H 0.1181 0.8024 0.2051
C58_8 C 0.1479(9) 0.8607(8) 0.2076(3)
H30_8 H 0.1707 0.8746 0.2129
C59_8 C 0.1288(8) 0.6631(8) 0.1891(3)
H31_8 H 0.1089 0.6795 0.1832
C60_8 C 0.1376(8) 0.6203(8) 0.1850(2)
H32_8 H 0.1586 0.6038 0.1902
O7_8 O 0.0056(8) 0.9437(8) 0.1583(3)
O17_8 O 0.2353(8) 0.8030(8) 0.2591(2)
H33_8 H 0.362425 0.705225 0.239088
H34_8 H 0.359868 0.758442 0.230839
H35_8 H 0.351704 0.734749 0.267573
H36_8 H 0.398103 0.758045 0.258134
H37_8 H 0.349147 0.787967 0.259324
H38_8 H 0.42045 0.413271 0.3496
H39_8 H 0.429135 0.405787 0.369201
H40_8 H 0.205225 0.862425 0.260912
H41_8 H 0.258442 0.859868 0.269161
H42_8 H 0.234749 0.851704 0.232427
H43_8 H 0.258045 0.898103 0.241866
H44_8 H 0.287967 0.849147 0.240676
O18_8 O 0.9277(8) 0.9228(7) 0.13945(19)
H45_8 H 0.913271 0.92045 0.1504
H46_8 H 0.905787 0.929135 0.130799
loop_
_geom_bond_atom_site_label_1
_geom_bond_atom_site_label_2
_geom_bond_site_symmetry_1
_geom_bond_site_symmetry_2
O6 Cu1 1_555 1_555
O9 Cu1 1_555 1_555
O12 Cu1 1_555 1_555
O6 H38 1_555 1_555
O6 H39 1_555 1_555
C1 C2 1_555 1_555
C2 H1 1_555 1_555
C3 C2 1_555 1_555
H2 C3 1_555 1_555
C4 C3 1_555 1_555
C5 C4 1_555 1_555
H3 C5 1_555 1_555
C6 C1 1_555 1_555
H4 C6 1_555 1_555
C9 C10 1_555 1_555
C10 H5 1_555 1_555
C11 C10 1_555 1_555
H6 C11 1_555 1_555
C12 C11 1_555 1_555
C13 C12 1_555 1_555
H7 C13 1_555 1_555
C14 C9 1_555 1_555
H8 C14 1_555 1_555
C15 C4 1_555 1_555
C16 C12 1_555 1_555
C17 C18 1_555 1_555
C18 C19 1_555 1_555
C19 H9 1_555 1_555
C20 C19 1_555 1_555
C21 C20 1_555 1_555
C22 C17 1_555 1_555
C23 C21 1_555 1_555
H10 C23 1_555 1_555
C24 C23 1_555 1_555
C25 C24 1_555 1_555
H11 C25 1_555 1_555
C26 C22 1_555 1_555
H12 C26 1_555 1_555
C27 C20 1_555 1_555
H13 C27 1_555 1_555
C28 C1 1_555 1_555
H14 C28 1_555 1_555
C29 C24 1_555 1_555
H15 C29 1_555 1_555
C30 C9 1_555 1_555
H16 C30 1_555 1_555
O1 C15 1_555 1_555
O2 C15 1_555 1_555
O3 C16 1_555 1_555
O4 C16 1_555 1_555
Cu3 O2 1_555 1_555
O17 C37 1_555 1_555
C5 C6 1_555 1_555
C13 C14 1_555 1_555
C21 C22 1_555 1_555
C25 C26 1_555 1_555
C27 C28 1_555 1_555
C29 C30 1_555 1_555
C8 H35 1_555 1_555
C8 H36 1_555 1_555
C8 H37 1_555 1_555
C37 H40 1_555 1_555
C37 H41 1_555 1_555
O5 C7 1_555 1_555
Cu8 O8 1_555 1_555
C31 C32 1_555 1_555
C32 H17 1_555 1_555
C33 C32 1_555 1_555
H18 C33 1_555 1_555
C34 C33 1_555 1_555
C35 C34 1_555 1_555
H19 C35 1_555 1_555
C36 C31 1_555 1_555
H20 C36 1_555 1_555
C39 C40 1_555 1_555
C40 H21 1_555 1_555
C41 C40 1_555 1_555
H22 C41 1_555 1_555
C42 C41 1_555 1_555
C43 C42 1_555 1_555
H23 C43 1_555 1_555
C44 C39 1_555 1_555
H24 C44 1_555 1_555
C45 C34 1_555 1_555
C46 C42 1_555 1_555
C48 C47 1_555 1_555
C49 C48 1_555 1_555
H25 C49 1_555 1_555
C50 C49 1_555 1_555
C51 C50 1_555 1_555
C52 C47 1_555 1_555
C53 C51 1_555 1_555
H26 C53 1_555 1_555
C54 C53 1_555 1_555
C55 C54 1_555 1_555
H27 C55 1_555 1_555
C56 C52 1_555 1_555
H28 C56 1_555 1_555
C57 C50 1_555 1_555
H29 C57 1_555 1_555
C58 C31 1_555 1_555
H30 C58 1_555 1_555
C59 C54 1_555 1_555
H31 C59 1_555 1_555
C60 C39 1_555 1_555
H32 C60 1_555 1_555
O7 C45 1_555 1_555
O8 C45 1_555 1_555
O11 C46 1_555 1_555
O14 C46 1_555 1_555
C35 C36 1_555 1_555
C43 C44 1_555 1_555
C51 C52 1_555 1_555
C55 C56 1_555 1_555
C57 C58 1_555 1_555
C59 C60 1_555 1_555
C7 H33 1_555 1_555
C7 H34 1_555 1_555
C38 H42 1_555 1_555
C38 H43 1_555 1_555
C38 H44 1_555 1_555
O10 Cu2 1_555 1_555
O13 Cu2 1_555 1_555
O18 Cu2 1_555 1_555
O18 H45 1_555 1_555
O18 H46 1_555 1_555
Cu1_2 O1_2 1_555 1_555
C1_2 C2_2 1_555 1_555
C2_2 H1_2 1_555 1_555
C3_2 C2_2 1_555 1_555
H2_2 C3_2 1_555 1_555
C4_2 C3_2 1_555 1_555
C5_2 C4_2 1_555 1_555
H3_2 C5_2 1_555 1_555
C6_2 C1_2 1_555 1_555
H4_2 C6_2 1_555 1_555
C7_2 C8_2 1_555 1_555
C9_2 C10_2 1_555 1_555
C10_2 H5_2 1_555 1_555
C11_2 C10_2 1_555 1_555
H6_2 C11_2 1_555 1_555
C12_2 C11_2 1_555 1_555
C13_2 C12_2 1_555 1_555
H7_2 C13_2 1_555 1_555
C14_2 C9_2 1_555 1_555
H8_2 C14_2 1_555 1_555
C15_2 C4_2 1_555 1_555
C16_2 C12_2 1_555 1_555
C17_2 C18_2 1_555 1_555
C18_2 C19_2 1_555 1_555
C19_2 H9_2 1_555 1_555
C20_2 C19_2 1_555 1_555
C21_2 C20_2 1_555 1_555
C22_2 C17_2 1_555 1_555
C23_2 C21_2 1_555 1_555
H10_2 C23_2 1_555 1_555
C24_2 C23_2 1_555 1_555
C25_2 C24_2 1_555 1_555
H11_2 C25_2 1_555 1_555
C26_2 C22_2 1_555 1_555
H12_2 C26_2 1_555 1_555
C27_2 C20_2 1_555 1_555
H13_2 C27_2 1_555 1_555
C28_2 C1_2 1_555 1_555
H14_2 C28_2 1_555 1_555
C29_2 C24_2 1_555 1_555
H15_2 C29_2 1_555 1_555
C30_2 C9_2 1_555 1_555
H16_2 C30_2 1_555 1_555
O1_2 C15_2 1_555 1_555
O2_2 C15_2 1_555 1_555
O3_2 C16_2 1_555 1_555
O4_2 C16_2 1_555 1_555
O5_2 C7_2 1_555 1_555
O6_2 Cu1_2 1_555 1_555
Cu2_2 O7_2 1_555 1_555
Cu4_2 O3_2 1_555 1_555
Cu5_2 O4_2 1_555 1_555
Cu6_2 O11_2 1_555 1_555
Cu7_2 O14_2 1_555 1_555
C31_2 C32_2 1_555 1_555
C32_2 H17_2 1_555 1_555
C33_2 C32_2 1_555 1_555
H18_2 C33_2 1_555 1_555
C34_2 C33_2 1_555 1_555
C35_2 C34_2 1_555 1_555
H19_2 C35_2 1_555 1_555
C36_2 C31_2 1_555 1_555
H20_2 C36_2 1_555 1_555
C37_2 C38_2 1_555 1_555
C39_2 C40_2 1_555 1_555
C40_2 H21_2 1_555 1_555
C41_2 C40_2 1_555 1_555
H22_2 C41_2 1_555 1_555
C42_2 C41_2 1_555 1_555
C43_2 C42_2 1_555 1_555
H23_2 C43_2 1_555 1_555
C44_2 C39_2 1_555 1_555
H24_2 C44_2 1_555 1_555
C45_2 C34_2 1_555 1_555
C46_2 C42_2 1_555 1_555
C47_2 C17_2 1_555 1_555
C48_2 C47_2 1_555 1_555
C49_2 C48_2 1_555 1_555
H25_2 C49_2 1_555 1_555
C50_2 C49_2 1_555 1_555
C51_2 C50_2 1_555 1_555
C52_2 C47_2 1_555 1_555
C53_2 C51_2 1_555 1_555
H26_2 C53_2 1_555 1_555
C54_2 C53_2 1_555 1_555
C55_2 C54_2 1_555 1_555
H27_2 C55_2 1_555 1_555
C56_2 C52_2 1_555 1_555
H28_2 C56_2 1_555 1_555
C57_2 C50_2 1_555 1_555
H29_2 C57_2 1_555 1_555
C58_2 C31_2 1_555 1_555
H30_2 C58_2 1_555 1_555
C59_2 C54_2 1_555 1_555
H31_2 C59_2 1_555 1_555
C60_2 C39_2 1_555 1_555
H32_2 C60_2 1_555 1_555
O7_2 C45_2 1_555 1_555
O8_2 C45_2 1_555 1_555
O11_2 C46_2 1_555 1_555
O14_2 C46_2 1_555 1_555
O15_2 Cu1_2 1_555 1_555
O16_2 Cu2_2 1_555 1_555
O17_2 C37_2 1_555 1_555
O18_2 Cu2_2 1_555 1_555
C5_2 C6_2 1_555 1_555
C13_2 C14_2 1_555 1_555
C18_2 O5_2 1_555 1_555
C21_2 C22_2 1_555 1_555
C25_2 C26_2 1_555 1_555
C27_2 C28_2 1_555 1_555
C29_2 C30_2 1_555 1_555
C35_2 C36_2 1_555 1_555
C43_2 C44_2 1_555 1_555
C48_2 O17_2 1_555 1_555
C51_2 C52_2 1_555 1_555
C55_2 C56_2 1_555 1_555
C57_2 C58_2 1_555 1_555
C59_2 C60_2 1_555 1_555
C7_2 H33_2 1_555 1_555
C7_2 H34_2 1_555 1_555
C8_2 H35_2 1_555 1_555
C8_2 H36_2 1_555 1_555
C8_2 H37_2 1_555 1_555
O6_2 H38_2 1_555 1_555
O6_2 H39_2 1_555 1_555
C37_2 H40_2 1_555 1_555
C37_2 H41_2 1_555 1_555
C38_2 H42_2 1_555 1_555
C38_2 H43_2 1_555 1_555
C38_2 H44_2 1_555 1_555
O18_2 H45_2 1_555 1_555
O18_2 H46_2 1_555 1_555
O18_3 Cu5 1_555 1_555
O18_3 H45_3 1_555 1_555
O18_3 H46_3 1_555 1_555
Cu7_2 O1_3 1_555 1_555
C1_3 C2_3 1_555 1_555
C2_3 H1_3 1_555 1_555
C3_3 C2_3 1_555 1_555
H2_3 C3_3 1_555 1_555
C4_3 C3_3 1_555 1_555
C5_3 C4_3 1_555 1_555
H3_3 C5_3 1_555 1_555
C6_3 C1_3 1_555 1_555
H4_3 C6_3 1_555 1_555
C7_3 C8_3 1_555 1_555
C9_3 C10_3 1_555 1_555
C10_3 H5_3 1_555 1_555
C11_3 C10_3 1_555 1_555
H6_3 C11_3 1_555 1_555
C12_3 C11_3 1_555 1_555
C13_3 C12_3 1_555 1_555
H7_3 C13_3 1_555 1_555
C14_3 C9_3 1_555 1_555
H8_3 C14_3 1_555 1_555
C15_3 C4_3 1_555 1_555
C16_3 C12_3 1_555 1_555
C17_3 C18_3 1_555 1_555
C18_3 C19_3 1_555 1_555
C19_3 H9_3 1_555 1_555
C20_3 C19_3 1_555 1_555
C21_3 C20_3 1_555 1_555
C22_3 C17_3 1_555 1_555
C23_3 C21_3 1_555 1_555
H10_3 C23_3 1_555 1_555
C24_3 C23_3 1_555 1_555
C25_3 C24_3 1_555 1_555
H11_3 C25_3 1_555 1_555
C26_3 C22_3 1_555 1_555
H12_3 C26_3 1_555 1_555
C27_3 C20_3 1_555 1_555
H13_3 C27_3 1_555 1_555
C28_3 C1_3 1_555 1_555
H14_3 C28_3 1_555 1_555
C29_3 C24_3 1_555 1_555
H15_3 C29_3 1_555 1_555
C30_3 C9_3 1_555 1_555
H16_3 C30_3 1_555 1_555
O1_3 C15_3 1_555 1_555
O2_3 C15_3 1_555 1_555
O3_3 C16_3 1_555 1_555
O16_2 C16_3 1_555 1_555
O5_3 C7_3 1_555 1_555
O6_3 Cu7_2 1_555 1_555
Cu6_2 O2_3 1_555 1_555
Cu3 O11_3 1_555 1_555
C31_3 C32_3 1_555 1_555
C32_3 H17_3 1_555 1_555
C33_3 C32_3 1_555 1_555
H18_3 C33_3 1_555 1_555
C34_3 C33_3 1_555 1_555
C35_3 C34_3 1_555 1_555
H19_3 C35_3 1_555 1_555
C36_3 C31_3 1_555 1_555
H20_3 C36_3 1_555 1_555
C37_3 C38_3 1_555 1_555
C39_3 C40_3 1_555 1_555
C40_3 H21_3 1_555 1_555
C41_3 C40_3 1_555 1_555
H22_3 C41_3 1_555 1_555
C42_3 C41_3 1_555 1_555
C43_3 C42_3 1_555 1_555
H23_3 C43_3 1_555 1_555
C44_3 C39_3 1_555 1_555
H24_3 C44_3 1_555 1_555
C45_3 C34_3 1_555 1_555
C46_3 C42_3 1_555 1_555
C47_3 C17_3 1_555 1_555
C48_3 C47_3 1_555 1_555
C49_3 C48_3 1_555 1_555
H25_3 C49_3 1_555 1_555
C50_3 C49_3 1_555 1_555
C51_3 C50_3 1_555 1_555
C52_3 C47_3 1_555 1_555
C53_3 C51_3 1_555 1_555
H26_3 C53_3 1_555 1_555
C54_3 C53_3 1_555 1_555
C55_3 C54_3 1_555 1_555
H27_3 C55_3 1_555 1_555
C56_3 C52_3 1_555 1_555
H28_3 C56_3 1_555 1_555
C57_3 C50_3 1_555 1_555
H29_3 C57_3 1_555 1_555
C58_3 C31_3 1_555 1_555
H30_3 C58_3 1_555 1_555
C59_3 C54_3 1_555 1_555
H31_3 C59_3 1_555 1_555
C60_3 C39_3 1_555 1_555
H32_3 C60_3 1_555 1_555
O7_3 C45_3 1_555 1_555
O8_3 C45_3 1_555 1_555
O9_3 Cu7_2 1_555 1_555
O11_3 C46_3 1_555 1_555
O12_3 Cu7_2 1_555 1_555
O15 C46_3 1_555 1_555
O17_3 C37_3 1_555 1_555
C5_3 C6_3 1_555 1_555
C13_3 C14_3 1_555 1_555
C18_3 O5_3 1_555 1_555
C21_3 C22_3 1_555 1_555
C25_3 C26_3 1_555 1_555
C27_3 C28_3 1_555 1_555
C29_3 C30_3 1_555 1_555
C35_3 C36_3 1_555 1_555
C43_3 C44_3 1_555 1_555
C48_3 O17_3 1_555 1_555
C51_3 C52_3 1_555 1_555
C55_3 C56_3 1_555 1_555
C57_3 C58_3 1_555 1_555
C59_3 C60_3 1_555 1_555
C7_3 H33_3 1_555 1_555
C7_3 H34_3 1_555 1_555
C8_3 H35_3 1_555 1_555
C8_3 H36_3 1_555 1_555
C8_3 H37_3 1_555 1_555
O6_3 H38_3 1_555 1_555
O6_3 H39_3 1_555 1_555
C37_3 H40_3 1_555 1_555
C37_3 H41_3 1_555 1_555
C38_3 H42_3 1_555 1_555
C38_3 H43_3 1_555 1_555
C38_3 H44_3 1_555 1_555
C1_4 C2_4 1_555 1_555
C2_4 H1_4 1_555 1_555
C3_4 C2_4 1_555 1_555
H2_4 C3_4 1_555 1_555
C4_4 C3_4 1_555 1_555
C5_4 C4_4 1_555 1_555
H3_4 C5_4 1_555 1_555
C6_4 C1_4 1_555 1_555
H4_4 C6_4 1_555 1_555
C7_4 C8_4 1_555 1_555
C9_4 C10_4 1_555 1_555
C10_4 H5_4 1_555 1_555
C11_4 C10_4 1_555 1_555
H6_4 C11_4 1_555 1_555
C12_4 C11_4 1_555 1_555
C13_4 C12_4 1_555 1_555
H7_4 C13_4 1_555 1_555
C14_4 C9_4 1_555 1_555
H8_4 C14_4 1_555 1_555
C15_4 C4_4 1_555 1_555
C16_4 C12_4 1_555 1_555
C17_4 C18_4 1_555 1_555
C18_4 C19_4 1_555 1_555
C19_4 H9_4 1_555 1_555
C20_4 C19_4 1_555 1_555
C21_4 C20_4 1_555 1_555
C22_4 C17_4 1_555 1_555
C23_4 C21_4 1_555 1_555
H10_4 C23_4 1_555 1_555
C24_4 C23_4 1_555 1_555
C25_4 C24_4 1_555 1_555
H11_4 C25_4 1_555 1_555
C26_4 C22_4 1_555 1_555
H12_4 C26_4 1_555 1_555
C27_4 C20_4 1_555 1_555
H13_4 C27_4 1_555 1_555
C28_4 C1_4 1_555 1_555
H14_4 C28_4 1_555 1_555
C29_4 C24_4 1_555 1_555
H15_4 C29_4 1_555 1_555
C30_4 C9_4 1_555 1_555
H16_4 C30_4 1_555 1_555
O1_4 C15_4 1_555 1_555
O2_4 C15_4 1_555 1_555
O3_4 C16_4 1_555 1_555
O16 C16_4 1_555 1_555
O5_4 C7_4 1_555 1_555
Cu5_2 O7_4 1_555 1_555
Cu8 O3_4 1_555 1_555
Cu4_2 O8_4 1_555 1_555
C31_4 C32_4 1_555 1_555
C32_4 H17_4 1_555 1_555
C33_4 C32_4 1_555 1_555
H18_4 C33_4 1_555 1_555
C34_4 C33_4 1_555 1_555
C35_4 C34_4 1_555 1_555
H19_4 C35_4 1_555 1_555
C36_4 C31_4 1_555 1_555
H20_4 C36_4 1_555 1_555
C37_4 C38_4 1_555 1_555
C39_4 C40_4 1_555 1_555
C40_4 H21_4 1_555 1_555
C41_4 C40_4 1_555 1_555
H22_4 C41_4 1_555 1_555
C42_4 C41_4 1_555 1_555
C43_4 C42_4 1_555 1_555
H23_4 C43_4 1_555 1_555
C44_4 C39_4 1_555 1_555
H24_4 C44_4 1_555 1_555
C45_4 C34_4 1_555 1_555
C46_4 C42_4 1_555 1_555
C47_4 C17_4 1_555 1_555
C48_4 C47_4 1_555 1_555
C49_4 C48_4 1_555 1_555
H25_4 C49_4 1_555 1_555
C50_4 C49_4 1_555 1_555
C51_4 C50_4 1_555 1_555
C52_4 C47_4 1_555 1_555
C53_4 C51_4 1_555 1_555
H26_4 C53_4 1_555 1_555
C54_4 C53_4 1_555 1_555
C55_4 C54_4 1_555 1_555
H27_4 C55_4 1_555 1_555
C56_4 C52_4 1_555 1_555
H28_4 C56_4 1_555 1_555
C57_4 C50_4 1_555 1_555
H29_4 C57_4 1_555 1_555
C58_4 C31_4 1_555 1_555
H30_4 C58_4 1_555 1_555
C59_4 C54_4 1_555 1_555
H31_4 C59_4 1_555 1_555
C60_4 C39_4 1_555 1_555
H32_4 C60_4 1_555 1_555
O7_4 C45_4 1_555 1_555
O8_4 C45_4 1_555 1_555
O10_4 Cu5_2 1_555 1_555
O11_4 C46_4 1_555 1_555
O13_4 Cu5_2 1_555 1_555
O15_2 C46_4 1_555 1_555
O17_4 C37_4 1_555 1_555
O18_4 Cu5_2 1_555 1_555
C5_4 C6_4 1_555 1_555
C13_4 C14_4 1_555 1_555
C18_4 O5_4 1_555 1_555
C21_4 C22_4 1_555 1_555
C25_4 C26_4 1_555 1_555
C27_4 C28_4 1_555 1_555
C29_4 C30_4 1_555 1_555
C35_4 C36_4 1_555 1_555
C43_4 C44_4 1_555 1_555
C48_4 O17_4 1_555 1_555
C51_4 C52_4 1_555 1_555
C55_4 C56_4 1_555 1_555
C57_4 C58_4 1_555 1_555
C59_4 C60_4 1_555 1_555
C7_4 H33_4 1_555 1_555
C7_4 H34_4 1_555 1_555
C8_4 H35_4 1_555 1_555
C8_4 H36_4 1_555 1_555
C8_4 H37_4 1_555 1_555
C37_4 H40_4 1_555 1_555
C37_4 H41_4 1_555 1_555
C38_4 H42_4 1_555 1_555
C38_4 H43_4 1_555 1_555
C38_4 H44_4 1_555 1_555
O18_4 H45_4 1_555 1_555
O18_4 H46_4 1_555 1_555
O6_4 Cu7 1_555 1_555
O6_4 H38_4 1_555 1_555
O6_4 H39_4 1_555 1_555
Cu3_2 O1_5 1_555 1_555
C1_5 C2_5 1_555 1_555
C2_5 H1_5 1_555 1_555
C3_5 C2_5 1_555 1_555
H2_5 C3_5 1_555 1_555
C4_5 C3_5 1_555 1_555
C5_5 C4_5 1_555 1_555
H3_5 C5_5 1_555 1_555
C6_5 C1_5 1_555 1_555
H4_5 C6_5 1_555 1_555
C7_5 C8_5 1_555 1_555
C9_5 C10_5 1_555 1_555
C10_5 H5_5 1_555 1_555
C11_5 C10_5 1_555 1_555
H6_5 C11_5 1_555 1_555
C12_5 C11_5 1_555 1_555
C13_5 C12_5 1_555 1_555
H7_5 C13_5 1_555 1_555
C14_5 C9_5 1_555 1_555
H8_5 C14_5 1_555 1_555
C15_5 C4_5 1_555 1_555
C16_5 C12_5 1_555 1_555
C17_5 C18_5 1_555 1_555
C18_5 C19_5 1_555 1_555
C19_5 H9_5 1_555 1_555
C20_5 C19_5 1_555 1_555
C21_5 C20_5 1_555 1_555
C22_5 C17_5 1_555 1_555
C23_5 C21_5 1_555 1_555
H10_5 C23_5 1_555 1_555
C24_5 C23_5 1_555 1_555
C25_5 C24_5 1_555 1_555
H11_5 C25_5 1_555 1_555
C26_5 C22_5 1_555 1_555
H12_5 C26_5 1_555 1_555
C27_5 C20_5 1_555 1_555
H13_5 C27_5 1_555 1_555
C28_5 C1_5 1_555 1_555
H14_5 C28_5 1_555 1_555
C29_5 C24_5 1_555 1_555
H15_5 C29_5 1_555 1_555
C30_5 C9_5 1_555 1_555
H16_5 C30_5 1_555 1_555
O1_5 C15_5 1_555 1_555
O9_2 C15_5 1_555 1_555
O13_4 C16_5 1_555 1_555
O4_3 C16_5 1_555 1_555
O5_5 C7_5 1_555 1_555
O6_5 Cu3_2 1_555 1_555
Cu8_2 O7_5 1_555 1_555
Cu4_2 O4_3 1_555 1_555
Cu6_2 O14_3 1_555 1_555
C31_5 C32_5 1_555 1_555
C32_5 H17_5 1_555 1_555
C33_5 C32_5 1_555 1_555
H18_5 C33_5 1_555 1_555
C34_5 C33_5 1_555 1_555
C35_5 C34_5 1_555 1_555
H19_5 C35_5 1_555 1_555
C36_5 C31_5 1_555 1_555
H20_5 C36_5 1_555 1_555
C37_5 C38_5 1_555 1_555
C39_5 C40_5 1_555 1_555
C40_5 H21_5 1_555 1_555
C41_5 C40_5 1_555 1_555
H22_5 C41_5 1_555 1_555
C42_5 C41_5 1_555 1_555
C43_5 C42_5 1_555 1_555
H23_5 C43_5 1_555 1_555
C44_5 C39_5 1_555 1_555
H24_5 C44_5 1_555 1_555
C45_5 C34_5 1_555 1_555
C46_5 C42_5 1_555 1_555
C47_5 C17_5 1_555 1_555
C48_5 C47_5 1_555 1_555
C49_5 C48_5 1_555 1_555
H25_5 C49_5 1_555 1_555
C50_5 C49_5 1_555 1_555
C51_5 C50_5 1_555 1_555
C52_5 C47_5 1_555 1_555
C53_5 C51_5 1_555 1_555
H26_5 C53_5 1_555 1_555
C54_5 C53_5 1_555 1_555
C55_5 C54_5 1_555 1_555
H27_5 C55_5 1_555 1_555
C56_5 C52_5 1_555 1_555
H28_5 C56_5 1_555 1_555
C57_5 C50_5 1_555 1_555
H29_5 C57_5 1_555 1_555
C58_5 C31_5 1_555 1_555
H30_5 C58_5 1_555 1_555
C59_5 C54_5 1_555 1_555
H31_5 C59_5 1_555 1_555
C60_5 C39_5 1_555 1_555
H32_5 C60_5 1_555 1_555
O7_5 C45_5 1_555 1_555
O10_2 C45_5 1_555 1_555
O12_3 C46_5 1_555 1_555
O14_3 C46_5 1_555 1_555
O15_3 Cu3_2 1_555 1_555
O16_3 Cu8_2 1_555 1_555
O17_5 C37_5 1_555 1_555
O18_5 Cu8_2 1_555 1_555
C5_5 C6_5 1_555 1_555
C13_5 C14_5 1_555 1_555
C18_5 O5_5 1_555 1_555
C21_5 C22_5 1_555 1_555
C25_5 C26_5 1_555 1_555
C27_5 C28_5 1_555 1_555
C29_5 C30_5 1_555 1_555
C35_5 C36_5 1_555 1_555
C43_5 C44_5 1_555 1_555
C48_5 O17_5 1_555 1_555
C51_5 C52_5 1_555 1_555
C55_5 C56_5 1_555 1_555
C57_5 C58_5 1_555 1_555
C59_5 C60_5 1_555 1_555
C7_5 H33_5 1_555 1_555
C7_5 H34_5 1_555 1_555
C8_5 H35_5 1_555 1_555
C8_5 H36_5 1_555 1_555
C8_5 H37_5 1_555 1_555
O6_5 H38_5 1_555 1_555
O6_5 H39_5 1_555 1_555
C37_5 H40_5 1_555 1_555
C37_5 H41_5 1_555 1_555
C38_5 H42_5 1_555 1_555
C38_5 H43_5 1_555 1_555
C38_5 H44_5 1_555 1_555
O18_5 H45_5 1_555 1_555
O18_5 H46_5 1_555 1_555
O18_6 Cu8 1_555 1_555
O18_6 H45_6 1_555 1_555
O18_6 H46_6 1_555 1_555
C1_6 C2_6 1_555 1_555
C2_6 H1_6 1_555 1_555
C3_6 C2_6 1_555 1_555
H2_6 C3_6 1_555 1_555
C4_6 C3_6 1_555 1_555
C5_6 C4_6 1_555 1_555
H3_6 C5_6 1_555 1_555
C6_6 C1_6 1_555 1_555
H4_6 C6_6 1_555 1_555
C9_6 C10_6 1_555 1_555
C10_6 H5_6 1_555 1_555
C11_6 C10_6 1_555 1_555
H6_6 C11_6 1_555 1_555
C12_6 C11_6 1_555 1_555
C13_6 C12_6 1_555 1_555
H7_6 C13_6 1_555 1_555
C14_6 C9_6 1_555 1_555
H8_6 C14_6 1_555 1_555
C15_6 C4_6 1_555 1_555
C16_6 C12_6 1_555 1_555
C17_6 C18_6 1_555 1_555
C18_6 C19_6 1_555 1_555
C19_6 H9_6 1_555 1_555
C20_6 C19_6 1_555 1_555
C21_6 C20_6 1_555 1_555
C22_6 C17_6 1_555 1_555
C23_6 C21_6 1_555 1_555
H10_6 C23_6 1_555 1_555
C24_6 C23_6 1_555 1_555
C25_6 C24_6 1_555 1_555
H11_6 C25_6 1_555 1_555
C26_6 C22_6 1_555 1_555
H12_6 C26_6 1_555 1_555
C27_6 C20_6 1_555 1_555
H13_6 C27_6 1_555 1_555
C28_6 C1_6 1_555 1_555
H14_6 C28_6 1_555 1_555
C29_6 C24_6 1_555 1_555
H15_6 C29_6 1_555 1_555
C30_6 C9_6 1_555 1_555
H16_6 C30_6 1_555 1_555
O1_6 C15_6 1_555 1_555
O9 C15_6 1_555 1_555
O13_3 C16_6 1_555 1_555
O4_4 C16_6 1_555 1_555
O17_6 C37_6 1_555 1_555
C5_6 C6_6 1_555 1_555
C13_6 C14_6 1_555 1_555
C21_6 C22_6 1_555 1_555
C25_6 C26_6 1_555 1_555
C27_6 C28_6 1_555 1_555
C29_6 C30_6 1_555 1_555
C8_6 H35_6 1_555 1_555
C8_6 H36_6 1_555 1_555
C8_6 H37_6 1_555 1_555
C37_6 H40_6 1_555 1_555
C37_6 H41_6 1_555 1_555
O5_6 C7_6 1_555 1_555
C31_6 C32_6 1_555 1_555
C32_6 H17_6 1_555 1_555
C33_6 C32_6 1_555 1_555
H18_6 C33_6 1_555 1_555
C34_6 C33_6 1_555 1_555
C35_6 C34_6 1_555 1_555
H19_6 C35_6 1_555 1_555
C36_6 C31_6 1_555 1_555
H20_6 C36_6 1_555 1_555
C39_6 C40_6 1_555 1_555
C40_6 H21_6 1_555 1_555
C41_6 C40_6 1_555 1_555
H22_6 C41_6 1_555 1_555
C42_6 C41_6 1_555 1_555
C43_6 C42_6 1_555 1_555
H23_6 C43_6 1_555 1_555
C44_6 C39_6 1_555 1_555
H24_6 C44_6 1_555 1_555
C45_6 C34_6 1_555 1_555
C46_6 C42_6 1_555 1_555
C48_6 C47_6 1_555 1_555
C49_6 C48_6 1_555 1_555
H25_6 C49_6 1_555 1_555
C50_6 C49_6 1_555 1_555
C51_6 C50_6 1_555 1_555
C52_6 C47_6 1_555 1_555
C53_6 C51_6 1_555 1_555
H26_6 C53_6 1_555 1_555
C54_6 C53_6 1_555 1_555
C55_6 C54_6 1_555 1_555
H27_6 C55_6 1_555 1_555
C56_6 C52_6 1_555 1_555
H28_6 C56_6 1_555 1_555
C57_6 C50_6 1_555 1_555
H29_6 C57_6 1_555 1_555
C58_6 C31_6 1_555 1_555
H30_6 C58_6 1_555 1_555
C59_6 C54_6 1_555 1_555
H31_6 C59_6 1_555 1_555
C60_6 C39_6 1_555 1_555
H32_6 C60_6 1_555 1_555
O7_6 C45_6 1_555 1_555
O10 C45_6 1_555 1_555
O12_4 C46_6 1_555 1_555
O14_4 C46_6 1_555 1_555
C35_6 C36_6 1_555 1_555
C43_6 C44_6 1_555 1_555
C51_6 C52_6 1_555 1_555
C55_6 C56_6 1_555 1_555
C57_6 C58_6 1_555 1_555
C59_6 C60_6 1_555 1_555
C7_6 H33_6 1_555 1_555
C7_6 H34_6 1_555 1_555
C38_6 H42_6 1_555 1_555
C38_6 H43_6 1_555 1_555
C38_6 H44_6 1_555 1_555
O6_6 Cu3 1_555 1_555
O6_6 H38_6 1_555 1_555
O6_6 H39_6 1_555 1_555
O6_7 Cu6 1_555 1_555
O6_7 H38_7 1_555 1_555
O6_7 H39_7 1_555 1_555
C1_7 C2_7 1_555 1_555
C2_7 H1_7 1_555 1_555
C3_7 C2_7 1_555 1_555
H2_7 C3_7 1_555 1_555
C4_7 C3_7 1_555 1_555
C5_7 C4_7 1_555 1_555
H3_7 C5_7 1_555 1_555
C6_7 C1_7 1_555 1_555
H4_7 C6_7 1_555 1_555
C7_7 C8_7 1_555 1_555
C9_7 C10_7 1_555 1_555
C10_7 H5_7 1_555 1_555
C11_7 C10_7 1_555 1_555
H6_7 C11_7 1_555 1_555
C12_7 C11_7 1_555 1_555
C13_7 C12_7 1_555 1_555
H7_7 C13_7 1_555 1_555
C14_7 C9_7 1_555 1_555
H8_7 C14_7 1_555 1_555
C15_7 C4_7 1_555 1_555
C16_7 C12_7 1_555 1_555
C17_7 C18_7 1_555 1_555
C18_7 C19_7 1_555 1_555
C19_7 H9_7 1_555 1_555
C20_7 C19_7 1_555 1_555
C21_7 C20_7 1_555 1_555
C22_7 C17_7 1_555 1_555
C23_7 C21_7 1_555 1_555
H10_7 C23_7 1_555 1_555
C24_7 C23_7 1_555 1_555
C25_7 C24_7 1_555 1_555
H11_7 C25_7 1_555 1_555
C26_7 C22_7 1_555 1_555
H12_7 C26_7 1_555 1_555
C27_7 C20_7 1_555 1_555
H13_7 C27_7 1_555 1_555
C28_7 C1_7 1_555 1_555
H14_7 C28_7 1_555 1_555
C29_7 C24_7 1_555 1_555
H15_7 C29_7 1_555 1_555
C30_7 C9_7 1_555 1_555
H16_7 C30_7 1_555 1_555
O1_7 C15_7 1_555 1_555
O9_4 C15_7 1_555 1_555
O13 C16_7 1_555 1_555
O16_4 C16_7 1_555 1_555
O5_7 C7_7 1_555 1_555
Cu4_2 O7_7 1_555 1_555
C31_7 C32_7 1_555 1_555
C32_7 H17_7 1_555 1_555
C33_7 C32_7 1_555 1_555
H18_7 C33_7 1_555 1_555
C34_7 C33_7 1_555 1_555
C35_7 C34_7 1_555 1_555
H19_7 C35_7 1_555 1_555
C36_7 C31_7 1_555 1_555
H20_7 C36_7 1_555 1_555
C37_7 C38_7 1_555 1_555
C39_7 C40_7 1_555 1_555
C40_7 H21_7 1_555 1_555
C41_7 C40_7 1_555 1_555
H22_7 C41_7 1_555 1_555
C42_7 C41_7 1_555 1_555
C43_7 C42_7 1_555 1_555
H23_7 C43_7 1_555 1_555
C44_7 C39_7 1_555 1_555
H24_7 C44_7 1_555 1_555
C45_7 C34_7 1_555 1_555
C46_7 C42_7 1_555 1_555
C47_7 C17_7 1_555 1_555
C48_7 C47_7 1_555 1_555
C49_7 C48_7 1_555 1_555
H25_7 C49_7 1_555 1_555
C50_7 C49_7 1_555 1_555
C51_7 C50_7 1_555 1_555
C52_7 C47_7 1_555 1_555
C53_7 C51_7 1_555 1_555
H26_7 C53_7 1_555 1_555
C54_7 C53_7 1_555 1_555
C55_7 C54_7 1_555 1_555
H27_7 C55_7 1_555 1_555
C56_7 C52_7 1_555 1_555
H28_7 C56_7 1_555 1_555
C57_7 C50_7 1_555 1_555
H29_7 C57_7 1_555 1_555
C58_7 C31_7 1_555 1_555
H30_7 C58_7 1_555 1_555
C59_7 C54_7 1_555 1_555
H31_7 C59_7 1_555 1_555
C60_7 C39_7 1_555 1_555
H32_7 C60_7 1_555 1_555
O7_7 C45_7 1_555 1_555
O10_4 C45_7 1_555 1_555
O12_2 C46_7 1_555 1_555
O15_3 C46_7 1_555 1_555
O17_7 C37_7 1_555 1_555
O18_7 Cu4_2 1_555 1_555
C5_7 C6_7 1_555 1_555
C13_7 C14_7 1_555 1_555
C18_7 O5_7 1_555 1_555
C21_7 C22_7 1_555 1_555
C25_7 C26_7 1_555 1_555
C27_7 C28_7 1_555 1_555
C29_7 C30_7 1_555 1_555
C35_7 C36_7 1_555 1_555
C43_7 C44_7 1_555 1_555
C48_7 O17_7 1_555 1_555
C51_7 C52_7 1_555 1_555
C55_7 C56_7 1_555 1_555
C57_7 C58_7 1_555 1_555
C59_7 C60_7 1_555 1_555
C7_7 H33_7 1_555 1_555
C7_7 H34_7 1_555 1_555
C8_7 H35_7 1_555 1_555
C8_7 H36_7 1_555 1_555
C8_7 H37_7 1_555 1_555
C37_7 H40_7 1_555 1_555
C37_7 H41_7 1_555 1_555
C38_7 H42_7 1_555 1_555
C38_7 H43_7 1_555 1_555
C38_7 H44_7 1_555 1_555
O18_7 H45_7 1_555 1_555
O18_7 H46_7 1_555 1_555
Cu6_2 O1_8 1_555 1_555
C1_8 C2_8 1_555 1_555
C2_8 H1_8 1_555 1_555
C3_8 C2_8 1_555 1_555
H2_8 C3_8 1_555 1_555
C4_8 C3_8 1_555 1_555
C5_8 C4_8 1_555 1_555
H3_8 C5_8 1_555 1_555
C6_8 C1_8 1_555 1_555
H4_8 C6_8 1_555 1_555
C7_8 C8_8 1_555 1_555
C9_8 C10_8 1_555 1_555
C10_8 H5_8 1_555 1_555
C11_8 C10_8 1_555 1_555
H6_8 C11_8 1_555 1_555
C12_8 C11_8 1_555 1_555
C13_8 C12_8 1_555 1_555
H7_8 C13_8 1_555 1_555
C14_8 C9_8 1_555 1_555
H8_8 C14_8 1_555 1_555
C15_8 C4_8 1_555 1_555
C16_8 C12_8 1_555 1_555
C17_8 C18_8 1_555 1_555
C18_8 C19_8 1_555 1_555
C19_8 H9_8 1_555 1_555
C20_8 C19_8 1_555 1_555
C21_8 C20_8 1_555 1_555
C22_8 C17_8 1_555 1_555
C23_8 C21_8 1_555 1_555
H10_8 C23_8 1_555 1_555
C24_8 C23_8 1_555 1_555
C25_8 C24_8 1_555 1_555
H11_8 C25_8 1_555 1_555
C26_8 C22_8 1_555 1_555
H12_8 C26_8 1_555 1_555
C27_8 C20_8 1_555 1_555
H13_8 C27_8 1_555 1_555
C28_8 C1_8 1_555 1_555
H14_8 C28_8 1_555 1_555
C29_8 C24_8 1_555 1_555
H15_8 C29_8 1_555 1_555
C30_8 C9_8 1_555 1_555
H16_8 C30_8 1_555 1_555
O1_8 C15_8 1_555 1_555
O9_3 C15_8 1_555 1_555
O13_2 C16_8 1_555 1_555
O16_3 C16_8 1_555 1_555
O5_8 C7_8 1_555 1_555
O6_8 Cu6_2 1_555 1_555
C31_8 C32_8 1_555 1_555
C32_8 H17_8 1_555 1_555
C33_8 C32_8 1_555 1_555
H18_8 C33_8 1_555 1_555
C34_8 C33_8 1_555 1_555
C35_8 C34_8 1_555 1_555
H19_8 C35_8 1_555 1_555
C36_8 C31_8 1_555 1_555
H20_8 C36_8 1_555 1_555
C37_8 C38_8 1_555 1_555
C39_8 C40_8 1_555 1_555
C40_8 H21_8 1_555 1_555
C41_8 C40_8 1_555 1_555
H22_8 C41_8 1_555 1_555
C42_8 C41_8 1_555 1_555
C43_8 C42_8 1_555 1_555
H23_8 C43_8 1_555 1_555
C44_8 C39_8 1_555 1_555
H24_8 C44_8 1_555 1_555
C45_8 C34_8 1_555 1_555
C46_8 C42_8 1_555 1_555
C47_8 C17_8 1_555 1_555
C48_8 C47_8 1_555 1_555
C49_8 C48_8 1_555 1_555
H25_8 C49_8 1_555 1_555
C50_8 C49_8 1_555 1_555
C51_8 C50_8 1_555 1_555
C52_8 C47_8 1_555 1_555
C53_8 C51_8 1_555 1_555
H26_8 C53_8 1_555 1_555
C54_8 C53_8 1_555 1_555
C55_8 C54_8 1_555 1_555
H27_8 C55_8 1_555 1_555
C56_8 C52_8 1_555 1_555
H28_8 C56_8 1_555 1_555
C57_8 C50_8 1_555 1_555
H29_8 C57_8 1_555 1_555
C58_8 C31_8 1_555 1_555
H30_8 C58_8 1_555 1_555
C59_8 C54_8 1_555 1_555
H31_8 C59_8 1_555 1_555
C60_8 C39_8 1_555 1_555
H32_8 C60_8 1_555 1_555
O7_8 C45_8 1_555 1_555
O10_3 C45_8 1_555 1_555
O12 C46_8 1_555 1_555
O15_4 C46_8 1_555 1_555
O17_8 C37_8 1_555 1_555
C5_8 C6_8 1_555 1_555
C13_8 C14_8 1_555 1_555
C18_8 O5_8 1_555 1_555
C21_8 C22_8 1_555 1_555
C25_8 C26_8 1_555 1_555
C27_8 C28_8 1_555 1_555
C29_8 C30_8 1_555 1_555
C35_8 C36_8 1_555 1_555
C43_8 C44_8 1_555 1_555
C48_8 O17_8 1_555 1_555
C51_8 C52_8 1_555 1_555
C55_8 C56_8 1_555 1_555
C57_8 C58_8 1_555 1_555
C59_8 C60_8 1_555 1_555
C7_8 H33_8 1_555 1_555
C7_8 H34_8 1_555 1_555
C8_8 H35_8 1_555 1_555
C8_8 H36_8 1_555 1_555
C8_8 H37_8 1_555 1_555
O6_8 H38_8 1_555 1_555
O6_8 H39_8 1_555 1_555
C37_8 H40_8 1_555 1_555
C37_8 H41_8 1_555 1_555
C38_8 H42_8 1_555 1_555
C38_8 H43_8 1_555 1_555
C38_8 H44_8 1_555 1_555
O18_8 Cu4 1_555 1_555
O18_8 H45_8 1_555 1_555
O18_8 H46_8 1_555 1_555

#END
