
###############################################################################
#
# This file contains modified crystal structure data generated from the
# MOF subset of the Cambridge Structural Database (CSD) v543 
# hosted by the Cambridge Crystallographic Data Centre (CCDC).
#
# This work is licensed under the Creative Commons
# Attribution-NonCommercial-ShareAlike 4.0 International License.
# To view a copy of this license, visit
# http://creativecommons.org/licenses/by-nc-sa/4.0/
# or send a letter to
# Creative Commons, PO Box 1866, Mountain View, CA 94042, USA.
#
# CIF created using the CSD Python API on 29 September 2022
# The structure has been converted into the P1 space group
# The structure has a 3D framework
# The original CSD entry XAHPIH is in the tetragonal crystal system
# The original CSD entry XAHPIH is in a Sohncke space group
# The framework has been calculated to contain at least 10.0% void space
# The void calculation uses a probe of radius 1.32A, grid spacing 0.4
# H atom positions have been added when not included in the experimental data
#
###############################################################################

data_XAHPIH
_chemical_formula_moiety         '(C256 H176 Cu16 O84)n'
_symmetry_cell_setting           triclinic
_symmetry_space_group_name_H-M   'P 1'
_symmetry_Int_Tables_number      1
_space_group_name_Hall           'P 1'
loop_
_symmetry_equiv_pos_site_id
_symmetry_equiv_pos_as_xyz
1 x,y,z
_cell_length_a                   21.049(5)
_cell_length_b                   21.049(5)
_cell_length_c                   57.878(13)
_cell_angle_alpha                90
_cell_angle_beta                 90
_cell_angle_gamma                90
_cell_volume                     25643.4
loop_
_atom_site_label
_atom_site_type_symbol
_atom_site_fract_x
_atom_site_fract_y
_atom_site_fract_z
O11 O 0.0047(4) 0.4223(4) 0.36534(12)
Cu3 Cu 0.03569(8) 0.45001(7) 0.10966(2)
Cu5 Cu 0.03569(8) 0.04999(7) 0.14034(2)
Cu7 Cu 0.04999(7) 0.46431(8) 0.39034(2)
O9 O 0.0232(4) 0.9182(3) 0.11793(10)
O15 O 0.0195(5) 0.9221(4) 0.16486(16)
O2 O 0.9768(4) 0.4182(3) 0.13207(10)
O3 O 0.9223(4) 0.5047(4) 0.13466(12)
C1 C 0.9312(8) 0.4493(8) 0.1422(2)
C2 C 0.8517(4) 0.1738(4) 0.20977(12)
C3 C 0.8220(5) 0.1424(3) 0.22795(15)
H1 H 0.8265 0.0982 0.2296
C4 C 0.7856(4) 0.1765(5) 0.24371(11)
C5 C 0.7789(4) 0.2418(5) 0.24129(12)
C6 C 0.8086(4) 0.2731(3) 0.22312(15)
C7 C 0.8450(4) 0.2391(4) 0.20736(11)
O4 O 0.9805(5) 0.0779(4) 0.16486(16)
C8 C 0.9321(9) 0.0542(9) 0.1707(3)
C9 C 0.8862(7) 0.0861(6) 0.18838(18)
H2 H 0.8525 0.0621 0.1945
C10 C 0.9002(6) 0.3702(6) 0.1670(2)
H3 H 0.9312 0.3456 0.1594
C11 C 0.8727(6) 0.2739(5) 0.18936(15)
H4 H 0.8985 0.2520 0.1788
C12 C 0.8646(6) 0.3373(6) 0.1863(2)
O6 O 0.7562(4) 0.1436(4) 0.26038(10)
C13 C 0.8021(5) 0.3388(5) 0.22064(18)
H5 H 0.7792 0.3617 0.2318
C14 C 0.8285(5) 0.3710(5) 0.20219(18)
H6 H 0.8222 0.4149 0.2004
C15 C 0.8940(6) 0.4246(6) 0.15992(19)
H7 H 0.8628 0.4506 0.1667
C16 C 0.8926(7) 0.1420(6) 0.19473(19)
H8 H 0.9277 0.1647 0.1890
O7 O 0.4969(4) 0.4119(4) 0.33704(11)
O8 O 0.9182(3) 0.4768(4) 0.36793(10)
O10 O 0.4182(3) 0.5232(4) 0.38207(10)
O13 O 0.4953(4) 0.4223(4) 0.38466(12)
C17 C 0.9493(8) 0.4312(8) 0.3578(2)
C18 C 0.6738(4) 0.3517(4) 0.29023(12)
C19 C 0.6424(3) 0.3220(5) 0.27205(15)
H9 H 0.5982 0.3265 0.2704
C20 C 0.6765(5) 0.2856(4) 0.25629(11)
C21 C 0.7418(5) 0.2789(4) 0.25871(12)
C22 C 0.7731(3) 0.3086(4) 0.27688(15)
C23 C 0.7391(4) 0.3450(4) 0.29264(11)
Cu2 Cu 0.45001(7) 0.46431(8) 0.35966(2)
Cu4 Cu 0.96431(8) 0.54999(7) 0.10966(2)
Cu6 Cu 0.95001(7) 0.53569(8) 0.39034(2)
Cu8 Cu 0.54999(7) 0.53569(8) 0.35966(2)
O14 O 0.5779(4) 0.4805(5) 0.33514(16)
O16 O 0.4221(4) 0.5195(5) 0.33514(16)
C24 C 0.5542(9) 0.4321(9) 0.3293(3)
C25 C 0.5861(6) 0.3862(7) 0.31162(18)
H10 H 0.5621 0.3525 0.3055
C26 C 0.8702(6) 0.4002(6) 0.3330(2)
H11 H 0.8456 0.4312 0.3406
C27 C 0.7739(5) 0.3727(6) 0.31064(15)
H12 H 0.7520 0.3985 0.3212
O17 O 0.3659(3) 0.4070(4) 0.35913(10)
C28 C 0.8373(6) 0.3646(6) 0.3137(2)
O18 O 0.6436(4) 0.2562(4) 0.23962(10)
C29 C 0.8388(5) 0.3021(5) 0.27936(18)
H13 H 0.8617 0.2792 0.2682
C30 C 0.8710(5) 0.3285(5) 0.29781(18)
H14 H 0.9149 0.3222 0.2996
C31 C 0.9246(6) 0.3940(6) 0.34008(19)
H15 H 0.9506 0.3628 0.3333
C32 C 0.6420(6) 0.3926(7) 0.30527(19)
H16 H 0.6647 0.4277 0.3110
H19 H 0.788253 0.12065 0.269804
H20 H 0.376533 0.363118 0.364101
H21 H 0.333884 0.42531 0.369828
H22 H 0.62065 0.288253 0.230196
O1 O 0.9119(4) 0.9969(4) 0.16296(11)
Cu1 Cu 0.96431(8) 0.95001(7) 0.14034(2)
O5 O 0.9070(4) 0.8659(3) 0.14087(10)
O12 O 0.9223(4) 0.9953(4) 0.11534(12)
H17 H 0.863118 0.876533 0.135899
H18 H 0.92531 0.833884 0.130172
O7_2 O 0.0031(4) 0.0881(4) 0.83704(11)
O13_2 O 0.0047(4) 0.0777(4) 0.88466(12)
Cu2_2 Cu 0.04999(7) 0.03569(8) 0.85966(2)
O17_2 O 0.1341(3) 0.0930(4) 0.85913(10)
H20_2 H 0.123467 0.136882 0.864101
H21_2 H 0.166116 0.0746901 0.869828
O10_2 O 0.0818(3) 0.9768(4) 0.88207(10)
O16_2 O 0.0779(4) 0.9805(5) 0.83514(16)
O1_2 O 0.5881(4) 0.5031(4) 0.66296(11)
O2_2 O 0.5232(4) 0.0818(3) 0.63207(10)
C1_2 C 0.5688(8) 0.0507(8) 0.6422(2)
C2_2 C 0.6483(4) 0.3262(4) 0.70977(12)
C3_2 C 0.6780(5) 0.3576(3) 0.72795(15)
H1_2 H 0.6735 0.4018 0.7296
C4_2 C 0.7144(4) 0.3235(5) 0.74371(11)
C5_2 C 0.7211(4) 0.2582(5) 0.74129(12)
C6_2 C 0.6914(4) 0.2269(3) 0.72312(15)
C7_2 C 0.6550(4) 0.2609(4) 0.70736(11)
Cu1_2 Cu 0.53569(8) 0.54999(7) 0.64034(2)
O4_2 O 0.5195(5) 0.4221(4) 0.66486(16)
C8_2 C 0.5679(9) 0.4458(9) 0.6707(3)
C9_2 C 0.6138(7) 0.4139(6) 0.68838(18)
H2_2 H 0.6475 0.4379 0.6945
C10_2 C 0.5998(6) 0.1298(6) 0.6670(2)
H3_2 H 0.5688 0.1544 0.6594
C11_2 C 0.6273(6) 0.2261(5) 0.68936(15)
H4_2 H 0.6015 0.2480 0.6788
O5_2 O 0.5930(4) 0.6341(3) 0.64087(10)
C12_2 C 0.6354(6) 0.1627(6) 0.6863(2)
O6_2 O 0.7438(4) 0.3564(4) 0.76038(10)
C13_2 C 0.6979(5) 0.1612(5) 0.72064(18)
H5_2 H 0.7208 0.1383 0.7318
C14_2 C 0.6715(5) 0.1290(5) 0.70219(18)
H6_2 H 0.6778 0.0851 0.7004
C15_2 C 0.6060(6) 0.0754(6) 0.65992(19)
H7_2 H 0.6372 0.0494 0.6667
C16_2 C 0.6074(7) 0.3580(6) 0.69473(19)
H8_2 H 0.5723 0.3353 0.6890
O8_2 O 0.5818(3) 0.0232(4) 0.86793(10)
O9_2 O 0.4768(4) 0.5818(3) 0.61793(10)
O11_2 O 0.4953(4) 0.0777(4) 0.86534(12)
O12_2 O 0.5777(4) 0.5047(4) 0.61534(12)
C17_2 C 0.5507(8) 0.0688(8) 0.8578(2)
C18_2 C 0.8262(4) 0.1483(4) 0.79023(12)
C19_2 C 0.8576(3) 0.1780(5) 0.77205(15)
H9_2 H 0.9018 0.1735 0.7704
C20_2 C 0.8235(5) 0.2144(4) 0.75629(11)
C21_2 C 0.7582(5) 0.2211(4) 0.75871(12)
C22_2 C 0.7269(3) 0.1914(4) 0.77688(15)
C23_2 C 0.7609(4) 0.1550(4) 0.79264(11)
Cu3_2 Cu 0.46431(8) 0.04999(7) 0.60966(2)
Cu5_2 Cu 0.46431(8) 0.45001(7) 0.64034(2)
Cu7_2 Cu 0.45001(7) 0.03569(8) 0.89034(2)
O14_2 O 0.9221(4) 0.0195(5) 0.83514(16)
O15_2 O 0.4805(5) 0.5779(4) 0.66486(16)
C24_2 C 0.9458(9) 0.0679(9) 0.8293(3)
C25_2 C 0.9139(6) 0.1138(7) 0.81162(18)
H10_2 H 0.9379 0.1475 0.8055
C26_2 C 0.6298(6) 0.0998(6) 0.8330(2)
H11_2 H 0.6544 0.0688 0.8406
C27_2 C 0.7261(5) 0.1273(6) 0.81064(15)
H12_2 H 0.7480 0.1015 0.8212
C28_2 C 0.6627(6) 0.1354(6) 0.8137(2)
O18_2 O 0.8564(4) 0.2438(4) 0.73962(10)
C29_2 C 0.6612(5) 0.1979(5) 0.77936(18)
H13_2 H 0.6383 0.2208 0.7682
C30_2 C 0.6290(5) 0.1715(5) 0.79781(18)
H14_2 H 0.5851 0.1778 0.7996
C31_2 C 0.5754(6) 0.1060(6) 0.84008(19)
H15_2 H 0.5494 0.1372 0.8333
C32_2 C 0.8580(6) 0.1074(7) 0.80527(19)
H16_2 H 0.8353 0.0723 0.8110
H17_2 H 0.636882 0.623467 0.635899
H18_2 H 0.57469 0.666116 0.630172
H19_2 H 0.711747 0.37935 0.769804
H22_2 H 0.87935 0.211747 0.730196
O3_2 O 0.5777(4) 0.9953(4) 0.63466(12)
Cu4_2 Cu 0.53569(8) 0.95001(7) 0.60966(2)
Cu6_2 Cu 0.54999(7) 0.96431(8) 0.89034(2)
Cu8_2 Cu 0.95001(7) 0.96431(8) 0.85966(2)
O1_3 O 0.0031(4) 0.4119(4) 0.41296(11)
O5_3 O 0.1341(3) 0.4070(4) 0.39087(10)
O9_3 O 0.0818(3) 0.5232(4) 0.36793(10)
O15_3 O 0.0779(4) 0.5195(5) 0.41486(16)
H17_3 H 0.123467 0.363118 0.385899
H18_3 H 0.166116 0.42531 0.380172
O2_3 O 0.5818(3) 0.4768(4) 0.38207(10)
C1_3 C 0.5507(8) 0.4312(8) 0.3922(2)
C2_3 C 0.8262(4) 0.3517(4) 0.45977(12)
C3_3 C 0.8576(3) 0.3220(5) 0.47795(15)
H1_3 H 0.9018 0.3265 0.4796
C4_3 C 0.8235(5) 0.2856(4) 0.49371(11)
C5_3 C 0.7582(5) 0.2789(4) 0.49129(12)
C6_3 C 0.7269(3) 0.3086(4) 0.47312(15)
C7_3 C 0.7609(4) 0.3450(4) 0.45736(11)
O4_3 O 0.9221(4) 0.4805(5) 0.41486(16)
C8_3 C 0.9458(9) 0.4321(9) 0.4207(3)
C9_3 C 0.9139(6) 0.3862(7) 0.43838(18)
H2_3 H 0.9379 0.3525 0.4445
C10_3 C 0.6298(6) 0.4002(6) 0.4170(2)
H3_3 H 0.6544 0.4312 0.4094
C11_3 C 0.7261(5) 0.3727(6) 0.43936(15)
H4_3 H 0.7480 0.3985 0.4288
C12_3 C 0.6627(6) 0.3646(6) 0.4363(2)
O6_3 O 0.8564(4) 0.2562(4) 0.51038(10)
C13_3 C 0.6612(5) 0.3021(5) 0.47064(18)
H5_3 H 0.6383 0.2792 0.4818
C14_3 C 0.6290(5) 0.3285(5) 0.45219(18)
H6_3 H 0.5851 0.3222 0.4504
C15_3 C 0.5754(6) 0.3940(6) 0.40992(19)
H7_3 H 0.5494 0.3628 0.4167
C16_3 C 0.8580(6) 0.3926(7) 0.44473(19)
H8_3 H 0.8353 0.4277 0.4390
O8_3 O 0.5232(4) 0.4182(3) 0.61793(10)
C17_3 C 0.5688(8) 0.4493(8) 0.6078(2)
C18_3 C 0.6483(4) 0.1738(4) 0.54023(12)
C19_3 C 0.6780(5) 0.1424(3) 0.52205(15)
H9_3 H 0.6735 0.0982 0.5204
C20_3 C 0.7144(4) 0.1765(5) 0.50629(11)
C21_3 C 0.7211(4) 0.2418(5) 0.50871(12)
C22_3 C 0.6914(4) 0.2731(3) 0.52688(15)
C23_3 C 0.6550(4) 0.2391(4) 0.54264(11)
O14_3 O 0.5195(5) 0.0779(4) 0.58514(16)
C24_3 C 0.5679(9) 0.0542(9) 0.5793(3)
C25_3 C 0.6138(7) 0.0861(6) 0.56162(18)
H10_3 H 0.6475 0.0621 0.5555
C26_3 C 0.5998(6) 0.3702(6) 0.5830(2)
H11_3 H 0.5688 0.3456 0.5906
C27_3 C 0.6273(6) 0.2739(5) 0.56064(15)
H12_3 H 0.6015 0.2520 0.5712
C28_3 C 0.6354(6) 0.3373(6) 0.5637(2)
O18_3 O 0.7438(4) 0.1436(4) 0.48962(10)
C29_3 C 0.6979(5) 0.3388(5) 0.52936(18)
H13_3 H 0.7208 0.3617 0.5182
C30_3 C 0.6715(5) 0.3710(5) 0.54781(18)
H14_3 H 0.6778 0.4149 0.5496
C31_3 C 0.6060(6) 0.4246(6) 0.59008(19)
H15_3 H 0.6372 0.4506 0.5833
C32_3 C 0.6074(7) 0.1420(6) 0.55527(19)
H16_3 H 0.5723 0.1647 0.5610
H19_3 H 0.87935 0.288253 0.519804
H22_3 H 0.711747 0.12065 0.480196
O7_3 O 0.5881(4) 0.9969(4) 0.58704(11)
O10_3 O 0.4768(4) 0.9182(3) 0.63207(10)
O16_3 O 0.4805(5) 0.9221(4) 0.58514(16)
O17_3 O 0.5930(4) 0.8659(3) 0.60913(10)
H20_3 H 0.636882 0.876533 0.614101
H21_3 H 0.57469 0.833884 0.619828
O10_4 O 0.0232(4) 0.5818(3) 0.13207(10)
O16_4 O 0.0195(5) 0.5779(4) 0.08514(16)
O6_4 O 0.6436(4) 0.2438(4) 0.01038(10)
O7_4 O 0.9119(4) 0.5031(4) 0.08704(11)
O8_4 O 0.9768(4) 0.0818(3) 0.11793(10)
C17_4 C 0.9312(8) 0.0507(8) 0.1078(2)
C18_4 C 0.8517(4) 0.3262(4) 0.04023(12)
C19_4 C 0.8220(5) 0.3576(3) 0.02205(15)
H9_4 H 0.8265 0.4018 0.0204
C20_4 C 0.7856(4) 0.3235(5) 0.00629(11)
C21_4 C 0.7789(4) 0.2582(5) 0.00871(12)
C22_4 C 0.8086(4) 0.2269(3) 0.02688(15)
C23_4 C 0.8450(4) 0.2609(4) 0.04264(11)
O14_4 O 0.9805(5) 0.4221(4) 0.08514(16)
C24_4 C 0.9321(9) 0.4458(9) 0.0793(3)
C25_4 C 0.8862(7) 0.4139(6) 0.06162(18)
H10_4 H 0.8525 0.4379 0.0555
C26_4 C 0.9002(6) 0.1298(6) 0.0830(2)
H11_4 H 0.9312 0.1544 0.0906
C27_4 C 0.8727(6) 0.2261(5) 0.06064(15)
H12_4 H 0.8985 0.2480 0.0712
O17_4 O 0.9070(4) 0.6341(3) 0.10913(10)
C28_4 C 0.8646(6) 0.1627(6) 0.0637(2)
C29_4 C 0.8021(5) 0.1612(5) 0.02936(18)
H13_4 H 0.7792 0.1383 0.0182
C30_4 C 0.8285(5) 0.1290(5) 0.04781(18)
H14_4 H 0.8222 0.0851 0.0496
C31_4 C 0.8940(6) 0.0754(6) 0.09008(19)
H15_4 H 0.8628 0.0494 0.0833
C32_4 C 0.8926(7) 0.3580(6) 0.05527(19)
H16_4 H 0.9277 0.3353 0.0610
H19_4 H 0.62065 0.211747 0.019804
H20_4 H 0.863118 0.623467 0.114101
H21_4 H 0.92531 0.666116 0.119828
O1_4 O 0.4969(4) 0.0881(4) 0.91296(11)
O2_4 O 0.9182(3) 0.0232(4) 0.88207(10)
C1_4 C 0.9493(8) 0.0688(8) 0.8922(2)
C2_4 C 0.6738(4) 0.1483(4) 0.95977(12)
C3_4 C 0.6424(3) 0.1780(5) 0.97795(15)
H1_4 H 0.5982 0.1735 0.9796
C4_4 C 0.6765(5) 0.2144(4) 0.99371(11)
C5_4 C 0.7418(5) 0.2211(4) 0.99129(12)
C6_4 C 0.7731(3) 0.1914(4) 0.97312(15)
C7_4 C 0.7391(4) 0.1550(4) 0.95736(11)
O4_4 O 0.5779(4) 0.0195(5) 0.91486(16)
C8_4 C 0.5542(9) 0.0679(9) 0.9207(3)
C9_4 C 0.5861(6) 0.1138(7) 0.93838(18)
H2_4 H 0.5621 0.1475 0.9445
C10_4 C 0.8702(6) 0.0998(6) 0.9170(2)
H3_4 H 0.8456 0.0688 0.9094
C11_4 C 0.7739(5) 0.1273(6) 0.93936(15)
H4_4 H 0.7520 0.1015 0.9288
O5_4 O 0.3659(3) 0.0930(4) 0.89087(10)
C12_4 C 0.8373(6) 0.1354(6) 0.9363(2)
C13_4 C 0.8388(5) 0.1979(5) 0.97064(18)
H5_4 H 0.8617 0.2208 0.9818
C14_4 C 0.8710(5) 0.1715(5) 0.95219(18)
H6_4 H 0.9149 0.1778 0.9504
C15_4 C 0.9246(6) 0.1060(6) 0.90992(19)
H7_4 H 0.9506 0.1372 0.9167
C16_4 C 0.6420(6) 0.1074(7) 0.94473(19)
H8_4 H 0.6647 0.0723 0.9390
O18_4 O 0.7562(4) 0.3564(4) 0.98962(10)
H17_4 H 0.376533 0.136882 0.885899
H18_4 H 0.333884 0.0746901 0.880172
H22_4 H 0.788253 0.37935 0.980196
O9_4 O 0.4182(3) 0.9768(4) 0.86793(10)
O15_4 O 0.4221(4) 0.9805(5) 0.91486(16)
O3_3 O 0.4223(4) 0.0047(4) 0.63466(12)
O1_5 O 0.4119(4) 0.4969(4) 0.66296(11)
C1_5 C 0.4312(8) 0.9493(8) 0.6422(2)
C2_5 C 0.3517(4) 0.6738(4) 0.70977(12)
C3_5 C 0.3220(5) 0.6424(3) 0.72795(15)
H1_5 H 0.3265 0.5982 0.7296
C4_5 C 0.2856(4) 0.6765(5) 0.74371(11)
C5_5 C 0.2789(4) 0.7418(5) 0.74129(12)
C6_5 C 0.3086(4) 0.7731(3) 0.72312(15)
C7_5 C 0.3450(4) 0.7391(4) 0.70736(11)
C8_5 C 0.4321(9) 0.5542(9) 0.6707(3)
C9_5 C 0.3862(7) 0.5861(6) 0.68838(18)
H2_5 H 0.3525 0.5621 0.6945
C10_5 C 0.4002(6) 0.8702(6) 0.6670(2)
H3_5 H 0.4312 0.8456 0.6594
C11_5 C 0.3727(6) 0.7739(5) 0.68936(15)
H4_5 H 0.3985 0.7520 0.6788
O5_5 O 0.4070(4) 0.3659(3) 0.64087(10)
C12_5 C 0.3646(6) 0.8373(6) 0.6863(2)
O6_5 O 0.2562(4) 0.6436(4) 0.76038(10)
C13_5 C 0.3021(5) 0.8388(5) 0.72064(18)
H5_5 H 0.2792 0.8617 0.7318
C14_5 C 0.3285(5) 0.8710(5) 0.70219(18)
H6_5 H 0.3222 0.9149 0.7004
C15_5 C 0.3940(6) 0.9246(6) 0.65992(19)
H7_5 H 0.3628 0.9506 0.6667
C16_5 C 0.3926(7) 0.6420(6) 0.69473(19)
H8_5 H 0.4277 0.6647 0.6890
O11_3 O 0.5047(4) 0.9223(4) 0.86534(12)
O12_3 O 0.4223(4) 0.4953(4) 0.61534(12)
C17_5 C 0.4493(8) 0.9312(8) 0.8578(2)
C18_5 C 0.1738(4) 0.8517(4) 0.79023(12)
C19_5 C 0.1424(3) 0.8220(5) 0.77205(15)
H9_5 H 0.0982 0.8265 0.7704
C20_5 C 0.1765(5) 0.7856(4) 0.75629(11)
C21_5 C 0.2418(5) 0.7789(4) 0.75871(12)
C22_5 C 0.2731(3) 0.8086(4) 0.77688(15)
C23_5 C 0.2391(4) 0.8450(4) 0.79264(11)
C24_5 C 0.0542(9) 0.9321(9) 0.8293(3)
C25_5 C 0.0861(6) 0.8862(7) 0.81162(18)
H10_5 H 0.0621 0.8525 0.8055
C26_5 C 0.3702(6) 0.9002(6) 0.8330(2)
H11_5 H 0.3456 0.9312 0.8406
C27_5 C 0.2739(5) 0.8727(6) 0.81064(15)
H12_5 H 0.2520 0.8985 0.8212
C28_5 C 0.3373(6) 0.8646(6) 0.8137(2)
O18_5 O 0.1436(4) 0.7562(4) 0.73962(10)
C29_5 C 0.3388(5) 0.8021(5) 0.77936(18)
H13_5 H 0.3617 0.7792 0.7682
C30_5 C 0.3710(5) 0.8285(5) 0.79781(18)
H14_5 H 0.4149 0.8222 0.7996
C31_5 C 0.4246(6) 0.8940(6) 0.84008(19)
H15_5 H 0.4506 0.8628 0.8333
C32_5 C 0.1420(6) 0.8926(7) 0.80527(19)
H16_5 H 0.1647 0.9277 0.8110
H17_5 H 0.363118 0.376533 0.635899
H18_5 H 0.42531 0.333884 0.630172
H19_5 H 0.288253 0.62065 0.769804
H22_5 H 0.12065 0.788253 0.730196
O7_5 O 0.9969(4) 0.9119(4) 0.83704(11)
O13_3 O 0.9953(4) 0.9223(4) 0.88466(12)
O17_5 O 0.8659(3) 0.9070(4) 0.85913(10)
H20_5 H 0.876533 0.863118 0.864101
H21_5 H 0.833884 0.92531 0.869828
O1_6 O 0.0881(4) 0.0031(4) 0.16296(11)
O5_6 O 0.0930(4) 0.1341(3) 0.14087(10)
O12_4 O 0.0777(4) 0.0047(4) 0.11534(12)
H17_6 H 0.136882 0.123467 0.135899
H18_6 H 0.0746901 0.166116 0.130172
O3_4 O 0.0777(4) 0.4953(4) 0.13466(12)
C1_6 C 0.0688(8) 0.5507(8) 0.1422(2)
C2_6 C 0.1483(4) 0.8262(4) 0.20977(12)
C3_6 C 0.1780(5) 0.8576(3) 0.22795(15)
H1_6 H 0.1735 0.9018 0.2296
C4_6 C 0.2144(4) 0.8235(5) 0.24371(11)
C5_6 C 0.2211(4) 0.7582(5) 0.24129(12)
C6_6 C 0.1914(4) 0.7269(3) 0.22312(15)
C7_6 C 0.1550(4) 0.7609(4) 0.20736(11)
C8_6 C 0.0679(9) 0.9458(9) 0.1707(3)
C9_6 C 0.1138(7) 0.9139(6) 0.18838(18)
H2_6 H 0.1475 0.9379 0.1945
C10_6 C 0.0998(6) 0.6298(6) 0.1670(2)
H3_6 H 0.0688 0.6544 0.1594
C11_6 C 0.1273(6) 0.7261(5) 0.18936(15)
H4_6 H 0.1015 0.7480 0.1788
C12_6 C 0.1354(6) 0.6627(6) 0.1863(2)
O6_6 O 0.2438(4) 0.8564(4) 0.26038(10)
C13_6 C 0.1979(5) 0.6612(5) 0.22064(18)
H5_6 H 0.2208 0.6383 0.2318
C14_6 C 0.1715(5) 0.6290(5) 0.20219(18)
H6_6 H 0.1778 0.5851 0.2004
C15_6 C 0.1060(6) 0.5754(6) 0.15992(19)
H7_6 H 0.1372 0.5494 0.1667
C16_6 C 0.1074(7) 0.8580(6) 0.19473(19)
H8_6 H 0.0723 0.8353 0.1890
O7_6 O 0.5031(4) 0.5881(4) 0.33704(11)
O13_4 O 0.5047(4) 0.5777(4) 0.38466(12)
C17_6 C 0.0507(8) 0.5688(8) 0.3578(2)
C18_6 C 0.3262(4) 0.6483(4) 0.29023(12)
C19_6 C 0.3576(3) 0.6780(5) 0.27205(15)
H9_6 H 0.4018 0.6735 0.2704
C20_6 C 0.3235(5) 0.7144(4) 0.25629(11)
C21_6 C 0.2582(5) 0.7211(4) 0.25871(12)
C22_6 C 0.2269(3) 0.6914(4) 0.27688(15)
C23_6 C 0.2609(4) 0.6550(4) 0.29264(11)
C24_6 C 0.4458(9) 0.5679(9) 0.3293(3)
C25_6 C 0.4139(6) 0.6138(7) 0.31162(18)
H10_6 H 0.4379 0.6475 0.3055
C26_6 C 0.1298(6) 0.5998(6) 0.3330(2)
H11_6 H 0.1544 0.5688 0.3406
C27_6 C 0.2261(5) 0.6273(6) 0.31064(15)
H12_6 H 0.2480 0.6015 0.3212
O17_6 O 0.6341(3) 0.5930(4) 0.35913(10)
C28_6 C 0.1627(6) 0.6354(6) 0.3137(2)
O18_6 O 0.3564(4) 0.7438(4) 0.23962(10)
C29_6 C 0.1612(5) 0.6979(5) 0.27936(18)
H13_6 H 0.1383 0.7208 0.2682
C30_6 C 0.1290(5) 0.6715(5) 0.29781(18)
H14_6 H 0.0851 0.6778 0.2996
C31_6 C 0.0754(6) 0.6060(6) 0.34008(19)
H15_6 H 0.0494 0.6372 0.3333
C32_6 C 0.3580(6) 0.6074(7) 0.30527(19)
H16_6 H 0.3353 0.5723 0.3110
H19_6 H 0.211747 0.87935 0.269804
H20_6 H 0.623467 0.636882 0.364101
H21_6 H 0.666116 0.57469 0.369828
H22_6 H 0.37935 0.711747 0.230196
O11_4 O 0.9953(4) 0.5777(4) 0.36534(12)
O6_7 O 0.3564(4) 0.7562(4) 0.01038(10)
O7_7 O 0.0881(4) 0.4969(4) 0.08704(11)
C17_7 C 0.0688(8) 0.9493(8) 0.1078(2)
C18_7 C 0.1483(4) 0.6738(4) 0.04023(12)
C19_7 C 0.1780(5) 0.6424(3) 0.02205(15)
H9_7 H 0.1735 0.5982 0.0204
C20_7 C 0.2144(4) 0.6765(5) 0.00629(11)
C21_7 C 0.2211(4) 0.7418(5) 0.00871(12)
C22_7 C 0.1914(4) 0.7731(3) 0.02688(15)
C23_7 C 0.1550(4) 0.7391(4) 0.04264(11)
C24_7 C 0.0679(9) 0.5542(9) 0.0793(3)
C25_7 C 0.1138(7) 0.5861(6) 0.06162(18)
H10_7 H 0.1475 0.5621 0.0555
C26_7 C 0.0998(6) 0.8702(6) 0.0830(2)
H11_7 H 0.0688 0.8456 0.0906
C27_7 C 0.1273(6) 0.7739(5) 0.06064(15)
H12_7 H 0.1015 0.7520 0.0712
O17_7 O 0.0930(4) 0.3659(3) 0.10913(10)
C28_7 C 0.1354(6) 0.8373(6) 0.0637(2)
C29_7 C 0.1979(5) 0.8388(5) 0.02936(18)
H13_7 H 0.2208 0.8617 0.0182
C30_7 C 0.1715(5) 0.8710(5) 0.04781(18)
H14_7 H 0.1778 0.9149 0.0496
C31_7 C 0.1060(6) 0.9246(6) 0.09008(19)
H15_7 H 0.1372 0.9506 0.0833
C32_7 C 0.1074(7) 0.6420(6) 0.05527(19)
H16_7 H 0.0723 0.6647 0.0610
H19_7 H 0.37935 0.788253 0.019804
H20_7 H 0.136882 0.376533 0.114101
H21_7 H 0.0746901 0.333884 0.119828
O1_7 O 0.5031(4) 0.9119(4) 0.91296(11)
C1_7 C 0.0507(8) 0.9312(8) 0.8922(2)
C2_7 C 0.3262(4) 0.8517(4) 0.95977(12)
C3_7 C 0.3576(3) 0.8220(5) 0.97795(15)
H1_7 H 0.4018 0.8265 0.9796
C4_7 C 0.3235(5) 0.7856(4) 0.99371(11)
C5_7 C 0.2582(5) 0.7789(4) 0.99129(12)
C6_7 C 0.2269(3) 0.8086(4) 0.97312(15)
C7_7 C 0.2609(4) 0.8450(4) 0.95736(11)
C8_7 C 0.4458(9) 0.9321(9) 0.9207(3)
C9_7 C 0.4139(6) 0.8862(7) 0.93838(18)
H2_7 H 0.4379 0.8525 0.9445
C10_7 C 0.1298(6) 0.9002(6) 0.9170(2)
H3_7 H 0.1544 0.9312 0.9094
C11_7 C 0.2261(5) 0.8727(6) 0.93936(15)
H4_7 H 0.2480 0.8985 0.9288
O5_7 O 0.6341(3) 0.9070(4) 0.89087(10)
C12_7 C 0.1627(6) 0.8646(6) 0.9363(2)
C13_7 C 0.1612(5) 0.8021(5) 0.97064(18)
H5_7 H 0.1383 0.7792 0.9818
C14_7 C 0.1290(5) 0.8285(5) 0.95219(18)
H6_7 H 0.0851 0.8222 0.9504
C15_7 C 0.0754(6) 0.8940(6) 0.90992(19)
H7_7 H 0.0494 0.8628 0.9167
C16_7 C 0.3580(6) 0.8926(7) 0.94473(19)
H8_7 H 0.3353 0.9277 0.9390
O18_7 O 0.2438(4) 0.6436(4) 0.98962(10)
H17_7 H 0.623467 0.863118 0.885899
H18_7 H 0.666116 0.92531 0.880172
H22_7 H 0.211747 0.62065 0.980196
O7_8 O 0.4119(4) 0.0031(4) 0.58704(11)
O17_8 O 0.4070(4) 0.1341(3) 0.60913(10)
H20_8 H 0.363118 0.123467 0.614101
H21_8 H 0.42531 0.166116 0.619828
C1_8 C 0.4493(8) 0.5688(8) 0.3922(2)
C2_8 C 0.1738(4) 0.6483(4) 0.45977(12)
C3_8 C 0.1424(3) 0.6780(5) 0.47795(15)
H1_8 H 0.0982 0.6735 0.4796
C4_8 C 0.1765(5) 0.7144(4) 0.49371(11)
C5_8 C 0.2418(5) 0.7211(4) 0.49129(12)
C6_8 C 0.2731(3) 0.6914(4) 0.47312(15)
C7_8 C 0.2391(4) 0.6550(4) 0.45736(11)
C8_8 C 0.0542(9) 0.5679(9) 0.4207(3)
C9_8 C 0.0861(6) 0.6138(7) 0.43838(18)
H2_8 H 0.0621 0.6475 0.4445
C10_8 C 0.3702(6) 0.5998(6) 0.4170(2)
H3_8 H 0.3456 0.5688 0.4094
C11_8 C 0.2739(5) 0.6273(6) 0.43936(15)
H4_8 H 0.2520 0.6015 0.4288
C12_8 C 0.3373(6) 0.6354(6) 0.4363(2)
O6_8 O 0.1436(4) 0.7438(4) 0.51038(10)
C13_8 C 0.3388(5) 0.6979(5) 0.47064(18)
H5_8 H 0.3617 0.7208 0.4818
C14_8 C 0.3710(5) 0.6715(5) 0.45219(18)
H6_8 H 0.4149 0.6778 0.4504
C15_8 C 0.4246(6) 0.6060(6) 0.40992(19)
H7_8 H 0.4506 0.6372 0.4167
C16_8 C 0.1420(6) 0.6074(7) 0.44473(19)
H8_8 H 0.1647 0.5723 0.4390
C17_8 C 0.4312(8) 0.5507(8) 0.6078(2)
C18_8 C 0.3517(4) 0.8262(4) 0.54023(12)
C19_8 C 0.3220(5) 0.8576(3) 0.52205(15)
H9_8 H 0.3265 0.9018 0.5204
C20_8 C 0.2856(4) 0.8235(5) 0.50629(11)
C21_8 C 0.2789(4) 0.7582(5) 0.50871(12)
C22_8 C 0.3086(4) 0.7269(3) 0.52688(15)
C23_8 C 0.3450(4) 0.7609(4) 0.54264(11)
C24_8 C 0.4321(9) 0.9458(9) 0.5793(3)
C25_8 C 0.3862(7) 0.9139(6) 0.56162(18)
H10_8 H 0.3525 0.9379 0.5555
C26_8 C 0.4002(6) 0.6298(6) 0.5830(2)
H11_8 H 0.4312 0.6544 0.5906
C27_8 C 0.3727(6) 0.7261(5) 0.56064(15)
H12_8 H 0.3985 0.7480 0.5712
C28_8 C 0.3646(6) 0.6627(6) 0.5637(2)
O18_8 O 0.2562(4) 0.8564(4) 0.48962(10)
C29_8 C 0.3021(5) 0.6612(5) 0.52936(18)
H13_8 H 0.2792 0.6383 0.5182
C30_8 C 0.3285(5) 0.6290(5) 0.54781(18)
H14_8 H 0.3222 0.5851 0.5496
C31_8 C 0.3940(6) 0.5754(6) 0.59008(19)
H15_8 H 0.3628 0.5494 0.5833
C32_8 C 0.3926(7) 0.8580(6) 0.55527(19)
H16_8 H 0.4277 0.8353 0.5610
H19_8 H 0.12065 0.711747 0.519804
H22_8 H 0.288253 0.87935 0.480196
O1_8 O 0.9969(4) 0.5881(4) 0.41296(11)
O5_8 O 0.8659(3) 0.5930(4) 0.39087(10)
H17_8 H 0.876533 0.636882 0.385899
H18_8 H 0.833884 0.57469 0.380172
loop_
_geom_bond_atom_site_label_1
_geom_bond_atom_site_label_2
_geom_bond_site_symmetry_1
_geom_bond_site_symmetry_2
Cu7 O11 1_555 1_555
O2 C1 1_555 1_555
O3 C1 1_555 1_555
C1 C15 1_555 1_555
C2 C3 1_555 1_555
C3 H1 1_555 1_555
C4 C3 1_555 1_555
C5 C4 1_555 1_555
C6 C5 1_555 1_555
C7 C2 1_555 1_555
O4 C8 1_555 1_555
C9 C8 1_555 1_555
H2 C9 1_555 1_555
C10 H3 1_555 1_555
C11 C7 1_555 1_555
H4 C11 1_555 1_555
C12 C10 1_555 1_555
O6 C4 1_555 1_555
C13 C6 1_555 1_555
H5 C13 1_555 1_555
C14 C12 1_555 1_555
H6 C14 1_555 1_555
C15 C10 1_555 1_555
H7 C15 1_555 1_555
C16 C2 1_555 1_555
H8 C16 1_555 1_555
O7 Cu2 1_555 1_555
O8 C17 1_555 1_555
O10 Cu2 1_555 1_555
O13 Cu2 1_555 1_555
C17 C31 1_555 1_555
C18 C19 1_555 1_555
C19 H9 1_555 1_555
C20 C19 1_555 1_555
C21 C5 1_555 1_555
C22 C21 1_555 1_555
C23 C18 1_555 1_555
Cu2 O16 1_555 1_555
Cu4 O3 1_555 1_555
Cu6 O8 1_555 1_555
Cu8 O14 1_555 1_555
O14 C24 1_555 1_555
C24 O7 1_555 1_555
C25 C24 1_555 1_555
H10 C25 1_555 1_555
C26 H11 1_555 1_555
C27 C23 1_555 1_555
H12 C27 1_555 1_555
O17 Cu2 1_555 1_555
C28 C26 1_555 1_555
O18 C20 1_555 1_555
C29 C22 1_555 1_555
H13 C29 1_555 1_555
C30 C28 1_555 1_555
H14 C30 1_555 1_555
C31 C26 1_555 1_555
H15 C31 1_555 1_555
C32 C18 1_555 1_555
H16 C32 1_555 1_555
C6 C7 1_555 1_555
C9 C16 1_555 1_555
C11 C12 1_555 1_555
C13 C14 1_555 1_555
C20 C21 1_555 1_555
C22 C23 1_555 1_555
C25 C32 1_555 1_555
C27 C28 1_555 1_555
C29 C30 1_555 1_555
O6 H19 1_555 1_555
O17 H20 1_555 1_555
O17 H21 1_555 1_555
O18 H22 1_555 1_555
O1 Cu1 1_555 1_555
Cu1 O5 1_555 1_555
O12 Cu1 1_555 1_555
O5 H17 1_555 1_555
O5 H18 1_555 1_555
O7_2 Cu2_2 1_555 1_555
O13_2 Cu2_2 1_555 1_555
O17_2 Cu2_2 1_555 1_555
O17_2 H20_2 1_555 1_555
O17_2 H21_2 1_555 1_555
O1_2 Cu1_2 1_555 1_555
O2_2 C1_2 1_555 1_555
C1_2 C15_2 1_555 1_555
C2_2 C3_2 1_555 1_555
C3_2 H1_2 1_555 1_555
C4_2 C3_2 1_555 1_555
C5_2 C4_2 1_555 1_555
C6_2 C5_2 1_555 1_555
C7_2 C2_2 1_555 1_555
Cu1_2 O5_2 1_555 1_555
O4_2 C8_2 1_555 1_555
C8_2 O1_2 1_555 1_555
C9_2 C8_2 1_555 1_555
H2_2 C9_2 1_555 1_555
C10_2 H3_2 1_555 1_555
C11_2 C7_2 1_555 1_555
H4_2 C11_2 1_555 1_555
C12_2 C10_2 1_555 1_555
O6_2 C4_2 1_555 1_555
C13_2 C6_2 1_555 1_555
H5_2 C13_2 1_555 1_555
C14_2 C12_2 1_555 1_555
H6_2 C14_2 1_555 1_555
C15_2 C10_2 1_555 1_555
H7_2 C15_2 1_555 1_555
C16_2 C2_2 1_555 1_555
H8_2 C16_2 1_555 1_555
O8_2 C17_2 1_555 1_555
O9_2 Cu1_2 1_555 1_555
O11_2 C17_2 1_555 1_555
O12_2 Cu1_2 1_555 1_555
C17_2 C31_2 1_555 1_555
C18_2 C19_2 1_555 1_555
C19_2 H9_2 1_555 1_555
C20_2 C19_2 1_555 1_555
C21_2 C5_2 1_555 1_555
C22_2 C21_2 1_555 1_555
C23_2 C18_2 1_555 1_555
Cu3_2 O2_2 1_555 1_555
Cu5_2 O4_2 1_555 1_555
Cu7_2 O11_2 1_555 1_555
O14_2 C24_2 1_555 1_555
O15_2 Cu1_2 1_555 1_555
C25_2 C24_2 1_555 1_555
H10_2 C25_2 1_555 1_555
C26_2 H11_2 1_555 1_555
C27_2 C23_2 1_555 1_555
H12_2 C27_2 1_555 1_555
C28_2 C26_2 1_555 1_555
O18_2 C20_2 1_555 1_555
C29_2 C22_2 1_555 1_555
H13_2 C29_2 1_555 1_555
C30_2 C28_2 1_555 1_555
H14_2 C30_2 1_555 1_555
C31_2 C26_2 1_555 1_555
H15_2 C31_2 1_555 1_555
C32_2 C18_2 1_555 1_555
H16_2 C32_2 1_555 1_555
C6_2 C7_2 1_555 1_555
C9_2 C16_2 1_555 1_555
C11_2 C12_2 1_555 1_555
C13_2 C14_2 1_555 1_555
C20_2 C21_2 1_555 1_555
C22_2 C23_2 1_555 1_555
C25_2 C32_2 1_555 1_555
C27_2 C28_2 1_555 1_555
C29_2 C30_2 1_555 1_555
O5_2 H17_2 1_555 1_555
O5_2 H18_2 1_555 1_555
O6_2 H19_2 1_555 1_555
O18_2 H22_2 1_555 1_555
Cu4_2 O3_2 1_555 1_555
O1_3 Cu7 1_555 1_555
Cu7 O5_3 1_555 1_555
O9_3 Cu7 1_555 1_555
O15_3 Cu7 1_555 1_555
O5_3 H17_3 1_555 1_555
O5_3 H18_3 1_555 1_555
O2_3 C1_3 1_555 1_555
O13 C1_3 1_555 1_555
C1_3 C15_3 1_555 1_555
C2_3 C3_3 1_555 1_555
C3_3 H1_3 1_555 1_555
C4_3 C3_3 1_555 1_555
C5_3 C4_3 1_555 1_555
C6_3 C5_3 1_555 1_555
C7_3 C2_3 1_555 1_555
O4_3 C8_3 1_555 1_555
C9_3 C8_3 1_555 1_555
H2_3 C9_3 1_555 1_555
C10_3 H3_3 1_555 1_555
C11_3 C7_3 1_555 1_555
H4_3 C11_3 1_555 1_555
C12_3 C10_3 1_555 1_555
O6_3 C4_3 1_555 1_555
C13_3 C6_3 1_555 1_555
H5_3 C13_3 1_555 1_555
C14_3 C12_3 1_555 1_555
H6_3 C14_3 1_555 1_555
C15_3 C10_3 1_555 1_555
H7_3 C15_3 1_555 1_555
C16_3 C2_3 1_555 1_555
H8_3 C16_3 1_555 1_555
O8_3 C17_3 1_555 1_555
O12_2 C17_3 1_555 1_555
C17_3 C31_3 1_555 1_555
C18_3 C19_3 1_555 1_555
C19_3 H9_3 1_555 1_555
C20_3 C19_3 1_555 1_555
C21_3 C5_3 1_555 1_555
C22_3 C21_3 1_555 1_555
C23_3 C18_3 1_555 1_555
Cu8 O2_3 1_555 1_555
Cu6 O4_3 1_555 1_555
Cu5_2 O8_3 1_555 1_555
Cu3_2 O14_3 1_555 1_555
O14_3 C24_3 1_555 1_555
C25_3 C24_3 1_555 1_555
H10_3 C25_3 1_555 1_555
C26_3 H11_3 1_555 1_555
C27_3 C23_3 1_555 1_555
H12_3 C27_3 1_555 1_555
C28_3 C26_3 1_555 1_555
O18_3 C20_3 1_555 1_555
C29_3 C22_3 1_555 1_555
H13_3 C29_3 1_555 1_555
C30_3 C28_3 1_555 1_555
H14_3 C30_3 1_555 1_555
C31_3 C26_3 1_555 1_555
H15_3 C31_3 1_555 1_555
C32_3 C18_3 1_555 1_555
H16_3 C32_3 1_555 1_555
C6_3 C7_3 1_555 1_555
C9_3 C16_3 1_555 1_555
C11_3 C12_3 1_555 1_555
C13_3 C14_3 1_555 1_555
C20_3 C21_3 1_555 1_555
C22_3 C23_3 1_555 1_555
C25_3 C32_3 1_555 1_555
C27_3 C28_3 1_555 1_555
C29_3 C30_3 1_555 1_555
O6_3 H19_3 1_555 1_555
O18_3 H22_3 1_555 1_555
O7_3 Cu4_2 1_555 1_555
O10_3 Cu4_2 1_555 1_555
Cu4_2 O16_3 1_555 1_555
O17_3 Cu4_2 1_555 1_555
O17_3 H20_3 1_555 1_555
O17_3 H21_3 1_555 1_555
O7_4 Cu4 1_555 1_555
O8_4 C17_4 1_555 1_555
C17_4 C31_4 1_555 1_555
C18_4 C19_4 1_555 1_555
C19_4 H9_4 1_555 1_555
C20_4 C19_4 1_555 1_555
C22_4 C21_4 1_555 1_555
C23_4 C18_4 1_555 1_555
O14_4 C24_4 1_555 1_555
C24_4 O7_4 1_555 1_555
C25_4 C24_4 1_555 1_555
H10_4 C25_4 1_555 1_555
C26_4 H11_4 1_555 1_555
C27_4 C23_4 1_555 1_555
H12_4 C27_4 1_555 1_555
O17_4 Cu4 1_555 1_555
C28_4 C26_4 1_555 1_555
C29_4 C22_4 1_555 1_555
H13_4 C29_4 1_555 1_555
C30_4 C28_4 1_555 1_555
H14_4 C30_4 1_555 1_555
C31_4 C26_4 1_555 1_555
H15_4 C31_4 1_555 1_555
C32_4 C18_4 1_555 1_555
H16_4 C32_4 1_555 1_555
C20_4 C21_4 1_555 1_555
C22_4 C23_4 1_555 1_555
C25_4 C32_4 1_555 1_555
C27_4 C28_4 1_555 1_555
C29_4 C30_4 1_555 1_555
O6_4 H19_4 1_555 1_555
O17_4 H20_4 1_555 1_555
O17_4 H21_4 1_555 1_555
O1_4 Cu7_2 1_555 1_555
O2_4 C1_4 1_555 1_555
C1_4 C15_4 1_555 1_555
C2_4 C3_4 1_555 1_555
C3_4 H1_4 1_555 1_555
C4_4 C3_4 1_555 1_555
C5_4 C4_4 1_555 1_555
C6_4 C5_4 1_555 1_555
C7_4 C2_4 1_555 1_555
Cu7_2 O5_4 1_555 1_555
O4_4 C8_4 1_555 1_555
C8_4 O1_4 1_555 1_555
C9_4 C8_4 1_555 1_555
H2_4 C9_4 1_555 1_555
C10_4 H3_4 1_555 1_555
C11_4 C7_4 1_555 1_555
H4_4 C11_4 1_555 1_555
C12_4 C10_4 1_555 1_555
C13_4 C6_4 1_555 1_555
H5_4 C13_4 1_555 1_555
C14_4 C12_4 1_555 1_555
H6_4 C14_4 1_555 1_555
C15_4 C10_4 1_555 1_555
H7_4 C15_4 1_555 1_555
C16_4 C2_4 1_555 1_555
H8_4 C16_4 1_555 1_555
C6_4 C7_4 1_555 1_555
C9_4 C16_4 1_555 1_555
C11_4 C12_4 1_555 1_555
C13_4 C14_4 1_555 1_555
O5_4 H17_4 1_555 1_555
O5_4 H18_4 1_555 1_555
O18_4 H22_4 1_555 1_555
Cu3_2 O3_3 1_555 1_555
O1_5 Cu5_2 1_555 1_555
O10_3 C1_5 1_555 1_555
C1_5 C15_5 1_555 1_555
C2_5 C3_5 1_555 1_555
C3_5 H1_5 1_555 1_555
C4_5 C3_5 1_555 1_555
C5_5 C4_5 1_555 1_555
C6_5 C5_5 1_555 1_555
C7_5 C2_5 1_555 1_555
Cu5_2 O5_5 1_555 1_555
O15_2 C8_5 1_555 1_555
C8_5 O1_5 1_555 1_555
C9_5 C8_5 1_555 1_555
H2_5 C9_5 1_555 1_555
C10_5 H3_5 1_555 1_555
C11_5 C7_5 1_555 1_555
H4_5 C11_5 1_555 1_555
C12_5 C10_5 1_555 1_555
O6_5 C4_5 1_555 1_555
C13_5 C6_5 1_555 1_555
H5_5 C13_5 1_555 1_555
C14_5 C12_5 1_555 1_555
H6_5 C14_5 1_555 1_555
C15_5 C10_5 1_555 1_555
H7_5 C15_5 1_555 1_555
C16_5 C2_5 1_555 1_555
H8_5 C16_5 1_555 1_555
O9_4 C17_5 1_555 1_555
O11_3 C17_5 1_555 1_555
O12_3 Cu5_2 1_555 1_555
C17_5 C31_5 1_555 1_555
C18_5 C19_5 1_555 1_555
C19_5 H9_5 1_555 1_555
C20_5 C19_5 1_555 1_555
C21_5 C5_5 1_555 1_555
C22_5 C21_5 1_555 1_555
C23_5 C18_5 1_555 1_555
Cu6_2 O11_3 1_555 1_555
O16_2 C24_5 1_555 1_555
C25_5 C24_5 1_555 1_555
H10_5 C25_5 1_555 1_555
C26_5 H11_5 1_555 1_555
C27_5 C23_5 1_555 1_555
H12_5 C27_5 1_555 1_555
C28_5 C26_5 1_555 1_555
O18_5 C20_5 1_555 1_555
C29_5 C22_5 1_555 1_555
H13_5 C29_5 1_555 1_555
C30_5 C28_5 1_555 1_555
H14_5 C30_5 1_555 1_555
C31_5 C26_5 1_555 1_555
H15_5 C31_5 1_555 1_555
C32_5 C18_5 1_555 1_555
H16_5 C32_5 1_555 1_555
C6_5 C7_5 1_555 1_555
C9_5 C16_5 1_555 1_555
C11_5 C12_5 1_555 1_555
C13_5 C14_5 1_555 1_555
C20_5 C21_5 1_555 1_555
C22_5 C23_5 1_555 1_555
C25_5 C32_5 1_555 1_555
C27_5 C28_5 1_555 1_555
C29_5 C30_5 1_555 1_555
O5_5 H17_5 1_555 1_555
O5_5 H18_5 1_555 1_555
O6_5 H19_5 1_555 1_555
O18_5 H22_5 1_555 1_555
O7_5 Cu8_2 1_555 1_555
O13_3 Cu8_2 1_555 1_555
O17_5 Cu8_2 1_555 1_555
O17_5 H20_5 1_555 1_555
O17_5 H21_5 1_555 1_555
O1_6 Cu5 1_555 1_555
Cu5 O5_6 1_555 1_555
O12_4 Cu5 1_555 1_555
O5_6 H17_6 1_555 1_555
O5_6 H18_6 1_555 1_555
O10_4 C1_6 1_555 1_555
O3_4 C1_6 1_555 1_555
C1_6 C15_6 1_555 1_555
C2_6 C3_6 1_555 1_555
C3_6 H1_6 1_555 1_555
C4_6 C3_6 1_555 1_555
C5_6 C4_6 1_555 1_555
C6_6 C5_6 1_555 1_555
C7_6 C2_6 1_555 1_555
O15 C8_6 1_555 1_555
C9_6 C8_6 1_555 1_555
H2_6 C9_6 1_555 1_555
C10_6 H3_6 1_555 1_555
C11_6 C7_6 1_555 1_555
H4_6 C11_6 1_555 1_555
C12_6 C10_6 1_555 1_555
O6_6 C4_6 1_555 1_555
C13_6 C6_6 1_555 1_555
H5_6 C13_6 1_555 1_555
C14_6 C12_6 1_555 1_555
H6_6 C14_6 1_555 1_555
C15_6 C10_6 1_555 1_555
H7_6 C15_6 1_555 1_555
C16_6 C2_6 1_555 1_555
H8_6 C16_6 1_555 1_555
O7_6 Cu8 1_555 1_555
O9_3 C17_6 1_555 1_555
O13_4 Cu8 1_555 1_555
C17_6 C31_6 1_555 1_555
C18_6 C19_6 1_555 1_555
C19_6 H9_6 1_555 1_555
C20_6 C19_6 1_555 1_555
C21_6 C5_6 1_555 1_555
C22_6 C21_6 1_555 1_555
C23_6 C18_6 1_555 1_555
Cu3 O3_4 1_555 1_555
O16 C24_6 1_555 1_555
C24_6 O7_6 1_555 1_555
C25_6 C24_6 1_555 1_555
H10_6 C25_6 1_555 1_555
C26_6 H11_6 1_555 1_555
C27_6 C23_6 1_555 1_555
H12_6 C27_6 1_555 1_555
O17_6 Cu8 1_555 1_555
C28_6 C26_6 1_555 1_555
O18_6 C20_6 1_555 1_555
C29_6 C22_6 1_555 1_555
H13_6 C29_6 1_555 1_555
C30_6 C28_6 1_555 1_555
H14_6 C30_6 1_555 1_555
C31_6 C26_6 1_555 1_555
H15_6 C31_6 1_555 1_555
C32_6 C18_6 1_555 1_555
H16_6 C32_6 1_555 1_555
C6_6 C7_6 1_555 1_555
C9_6 C16_6 1_555 1_555
C11_6 C12_6 1_555 1_555
C13_6 C14_6 1_555 1_555
C20_6 C21_6 1_555 1_555
C22_6 C23_6 1_555 1_555
C25_6 C32_6 1_555 1_555
C27_6 C28_6 1_555 1_555
C29_6 C30_6 1_555 1_555
O6_6 H19_6 1_555 1_555
O17_6 H20_6 1_555 1_555
O17_6 H21_6 1_555 1_555
O18_6 H22_6 1_555 1_555
Cu6 O11_4 1_555 1_555
O7_7 Cu3 1_555 1_555
O9 C17_7 1_555 1_555
C17_7 C31_7 1_555 1_555
C18_7 C19_7 1_555 1_555
C19_7 H9_7 1_555 1_555
C20_7 C19_7 1_555 1_555
C22_7 C21_7 1_555 1_555
C23_7 C18_7 1_555 1_555
O16_4 C24_7 1_555 1_555
C24_7 O7_7 1_555 1_555
C25_7 C24_7 1_555 1_555
H10_7 C25_7 1_555 1_555
C26_7 H11_7 1_555 1_555
C27_7 C23_7 1_555 1_555
H12_7 C27_7 1_555 1_555
O17_7 Cu3 1_555 1_555
C28_7 C26_7 1_555 1_555
C29_7 C22_7 1_555 1_555
H13_7 C29_7 1_555 1_555
C30_7 C28_7 1_555 1_555
H14_7 C30_7 1_555 1_555
C31_7 C26_7 1_555 1_555
H15_7 C31_7 1_555 1_555
C32_7 C18_7 1_555 1_555
H16_7 C32_7 1_555 1_555
C20_7 C21_7 1_555 1_555
C22_7 C23_7 1_555 1_555
C25_7 C32_7 1_555 1_555
C27_7 C28_7 1_555 1_555
C29_7 C30_7 1_555 1_555
O6_7 H19_7 1_555 1_555
O17_7 H20_7 1_555 1_555
O17_7 H21_7 1_555 1_555
O1_7 Cu6_2 1_555 1_555
O10_2 C1_7 1_555 1_555
C1_7 C15_7 1_555 1_555
C2_7 C3_7 1_555 1_555
C3_7 H1_7 1_555 1_555
C4_7 C3_7 1_555 1_555
C5_7 C4_7 1_555 1_555
C6_7 C5_7 1_555 1_555
C7_7 C2_7 1_555 1_555
Cu6_2 O5_7 1_555 1_555
O15_4 C8_7 1_555 1_555
C8_7 O1_7 1_555 1_555
C9_7 C8_7 1_555 1_555
H2_7 C9_7 1_555 1_555
C10_7 H3_7 1_555 1_555
C11_7 C7_7 1_555 1_555
H4_7 C11_7 1_555 1_555
C12_7 C10_7 1_555 1_555
C13_7 C6_7 1_555 1_555
H5_7 C13_7 1_555 1_555
C14_7 C12_7 1_555 1_555
H6_7 C14_7 1_555 1_555
C15_7 C10_7 1_555 1_555
H7_7 C15_7 1_555 1_555
C16_7 C2_7 1_555 1_555
H8_7 C16_7 1_555 1_555
C6_7 C7_7 1_555 1_555
C9_7 C16_7 1_555 1_555
C11_7 C12_7 1_555 1_555
C13_7 C14_7 1_555 1_555
O5_7 H17_7 1_555 1_555
O5_7 H18_7 1_555 1_555
O18_7 H22_7 1_555 1_555
O7_8 Cu3_2 1_555 1_555
O17_8 Cu3_2 1_555 1_555
O17_8 H20_8 1_555 1_555
O17_8 H21_8 1_555 1_555
O10 C1_8 1_555 1_555
O13_4 C1_8 1_555 1_555
C1_8 C15_8 1_555 1_555
C2_8 C3_8 1_555 1_555
C3_8 H1_8 1_555 1_555
C4_8 C3_8 1_555 1_555
C5_8 C4_8 1_555 1_555
C6_8 C5_8 1_555 1_555
C7_8 C2_8 1_555 1_555
O15_3 C8_8 1_555 1_555
C9_8 C8_8 1_555 1_555
H2_8 C9_8 1_555 1_555
C10_8 H3_8 1_555 1_555
C11_8 C7_8 1_555 1_555
H4_8 C11_8 1_555 1_555
C12_8 C10_8 1_555 1_555
O6_8 C4_8 1_555 1_555
C13_8 C6_8 1_555 1_555
H5_8 C13_8 1_555 1_555
C14_8 C12_8 1_555 1_555
H6_8 C14_8 1_555 1_555
C15_8 C10_8 1_555 1_555
H7_8 C15_8 1_555 1_555
C16_8 C2_8 1_555 1_555
H8_8 C16_8 1_555 1_555
O9_2 C17_8 1_555 1_555
O12_3 C17_8 1_555 1_555
C17_8 C31_8 1_555 1_555
C18_8 C19_8 1_555 1_555
C19_8 H9_8 1_555 1_555
C20_8 C19_8 1_555 1_555
C21_8 C5_8 1_555 1_555
C22_8 C21_8 1_555 1_555
C23_8 C18_8 1_555 1_555
O16_3 C24_8 1_555 1_555
C25_8 C24_8 1_555 1_555
H10_8 C25_8 1_555 1_555
C26_8 H11_8 1_555 1_555
C27_8 C23_8 1_555 1_555
H12_8 C27_8 1_555 1_555
C28_8 C26_8 1_555 1_555
O18_8 C20_8 1_555 1_555
C29_8 C22_8 1_555 1_555
H13_8 C29_8 1_555 1_555
C30_8 C28_8 1_555 1_555
H14_8 C30_8 1_555 1_555
C31_8 C26_8 1_555 1_555
H15_8 C31_8 1_555 1_555
C32_8 C18_8 1_555 1_555
H16_8 C32_8 1_555 1_555
C6_8 C7_8 1_555 1_555
C9_8 C16_8 1_555 1_555
C11_8 C12_8 1_555 1_555
C13_8 C14_8 1_555 1_555
C20_8 C21_8 1_555 1_555
C22_8 C23_8 1_555 1_555
C25_8 C32_8 1_555 1_555
C27_8 C28_8 1_555 1_555
C29_8 C30_8 1_555 1_555
O6_8 H19_8 1_555 1_555
O18_8 H22_8 1_555 1_555
O1_8 Cu6 1_555 1_555
Cu6 O5_8 1_555 1_555
O5_8 H17_8 1_555 1_555
O5_8 H18_8 1_555 1_555

#END
