
###############################################################################
#
# This file contains modified crystal structure data generated from the
# MOF subset of the Cambridge Structural Database (CSD) v543 
# hosted by the Cambridge Crystallographic Data Centre (CCDC).
#
# This work is licensed under the Creative Commons
# Attribution-NonCommercial-ShareAlike 4.0 International License.
# To view a copy of this license, visit
# http://creativecommons.org/licenses/by-nc-sa/4.0/
# or send a letter to
# Creative Commons, PO Box 1866, Mountain View, CA 94042, USA.
#
# CIF created using the CSD Python API on 29 September 2022
# The structure has been converted into the P1 space group
# The structure has a 3D framework
# The original CSD entry XAHPON is in the tetragonal crystal system
# The original CSD entry XAHPON is in a Sohncke space group
# The framework has been calculated to contain at least 10.0% void space
# The void calculation uses a probe of radius 1.32A, grid spacing 0.4
# H atom positions have been added when not included in the experimental data
#
###############################################################################

data_XAHPON
_chemical_formula_moiety         '(C384 H240 Cu16 O96)n'
_symmetry_cell_setting           triclinic
_symmetry_space_group_name_H-M   'P 1'
_symmetry_Int_Tables_number      1
_space_group_name_Hall           'P 1'
loop_
_symmetry_equiv_pos_site_id
_symmetry_equiv_pos_as_xyz
1 x,y,z
_cell_length_a                   23.849(6)
_cell_length_b                   23.849(6)
_cell_length_c                   73.11(2)
_cell_angle_alpha                90
_cell_angle_beta                 90
_cell_angle_gamma                90
_cell_volume                     41583.1
loop_
_atom_site_label
_atom_site_type_symbol
_atom_site_fract_x
_atom_site_fract_y
_atom_site_fract_z
Cu5 Cu 0.03996(10) 0.03757(9) 0.13565(2)
O1 O 0.0038(5) 0.9273(5) 0.15476(18)
C1 C 0.0499(7) 0.9409(8) 0.1605(2)
C2 C 0.1315(4) 0.6423(4) 0.18306(11)
C3 C 0.1578(3) 0.5943(5) 0.17652(14)
H1 H 0.1911 0.5816 0.1820
C4 C 0.1348(5) 0.5651(3) 0.16187(13)
H2 H 0.1526 0.5326 0.1574
C5 C 0.0856(5) 0.5839(4) 0.15377(10)
C6 C 0.0593(3) 0.6318(5) 0.16031(12)
H3 H 0.0260 0.6445 0.1548
C7 C 0.0822(5) 0.6610(3) 0.17496(13)
H4 H 0.0645 0.6935 0.1794
C8 C 0.1406(4) 0.8544(4) 0.20142(9)
C9 C 0.1669(3) 0.8989(5) 0.19262(13)
H5 H 0.2038 0.9087 0.1958
C10 C 0.1386(5) 0.9288(3) 0.17916(12)
H6 H 0.1564 0.9588 0.1732
C11 C 0.0840(4) 0.9142(4) 0.17451(9)
C12 C 0.0577(3) 0.8698(4) 0.18331(13)
H7 H 0.0208 0.8599 0.1802
C13 C 0.0860(4) 0.8399(3) 0.19677(12)
H8 H 0.0682 0.8098 0.2027
O2 O 0.0691(5) 0.5068(4) 0.13368(13)
C14 C 0.1711(4) 0.8194(5) 0.21465(12)
C15 C 0.1757(4) 0.7613(5) 0.21396(12)
C16 C 0.2039(5) 0.7327(3) 0.22773(16)
C17 C 0.2276(4) 0.7622(5) 0.24220(10)
C18 C 0.2230(4) 0.8203(5) 0.24289(11)
C19 C 0.1947(5) 0.8489(3) 0.22912(16)
H9 H 0.1916 0.8881 0.2296
O3 O 0.0045(5) 0.5740(4) 0.13266(14)
C20 C 0.1566(6) 0.6730(6) 0.19854(17)
C21 C 0.1847(4) 0.6429(5) 0.21180(15)
H10 H 0.1878 0.6037 0.2112
C22 C 0.0576(7) 0.5531(8) 0.1393(2)
C23 C 0.2082(5) 0.6730(5) 0.22611(16)
H11 H 0.2278 0.6532 0.2352
C24 C 0.1515(7) 0.7311(5) 0.19956(16)
H12 H 0.1315 0.7504 0.1904
O5 O 0.0764(4) 0.9882(4) 0.15319(13)
O6 O 0.2477(6) 0.8476(3) 0.25670(13)
H13 H 0.2663 0.8251 0.2629
O7 O 0.4273(5) 0.5038(5) 0.34524(18)
C25 C 0.4409(8) 0.5499(7) 0.3395(2)
C26 C 0.1423(4) 0.6315(4) 0.31694(11)
C27 C 0.0943(5) 0.6578(3) 0.32348(14)
H14 H 0.0816 0.6911 0.3180
C28 C 0.0651(3) 0.6348(5) 0.33813(13)
H15 H 0.0326 0.6526 0.3426
C29 C 0.0839(4) 0.5856(5) 0.34623(10)
C30 C 0.1318(5) 0.5593(3) 0.33969(12)
H16 H 0.1445 0.5260 0.3452
C31 C 0.1610(3) 0.5822(5) 0.32504(13)
H17 H 0.1935 0.5645 0.3206
Cu2 Cu 0.46243(9) 0.46004(10) 0.36435(2)
Cu3 Cu 0.03996(10) 0.46243(9) 0.11435(2)
Cu6 Cu 0.53757(9) 0.53996(10) 0.36435(2)
Cu8 Cu 0.03757(9) 0.46004(10) 0.38565(2)
C32 C 0.3544(4) 0.6406(4) 0.29858(9)
C33 C 0.3989(5) 0.6669(3) 0.30738(13)
H18 H 0.4087 0.7038 0.3042
C34 C 0.4288(3) 0.6386(5) 0.32084(12)
H19 H 0.4588 0.6564 0.3268
C35 C 0.4142(4) 0.5840(4) 0.32549(9)
C36 C 0.3698(4) 0.5577(3) 0.31669(13)
H20 H 0.3599 0.5208 0.3198
C37 C 0.3399(3) 0.5860(4) 0.30323(12)
H21 H 0.3098 0.5682 0.2973
O8 O 0.0068(4) 0.5691(5) 0.36632(13)
O10 O 0.5068(4) 0.4309(5) 0.38368(13)
C38 C 0.3194(5) 0.6711(4) 0.28535(12)
C39 C 0.2613(5) 0.6757(4) 0.28604(12)
C40 C 0.2327(3) 0.7039(5) 0.27227(16)
C41 C 0.2622(5) 0.7276(4) 0.25780(10)
C42 C 0.3203(5) 0.7230(4) 0.25711(11)
C43 C 0.3489(3) 0.6947(5) 0.27088(16)
H22 H 0.3881 0.6916 0.2704
O11 O 0.0740(4) 0.5045(5) 0.36734(14)
O12 O 0.0045(5) 0.9260(4) 0.11734(14)
O13 O 0.4260(4) 0.5045(5) 0.38266(14)
O14 O 0.4003(3) 0.3978(3) 0.36483(9)
C44 C 0.1730(6) 0.6566(6) 0.30146(17)
C45 C 0.1429(5) 0.6847(4) 0.28820(15)
H23 H 0.1037 0.6878 0.2888
C46 C 0.0531(8) 0.5576(7) 0.3607(2)
C47 C 0.1730(5) 0.7082(5) 0.27389(16)
H24 H 0.1532 0.7278 0.2648
C48 C 0.2311(5) 0.6515(7) 0.30044(16)
H25 H 0.2504 0.6315 0.3096
O15 O 0.4882(4) 0.5764(4) 0.34681(13)
O17 O 0.5118(4) 0.4236(4) 0.34681(13)
O18 O 0.3476(3) 0.7477(6) 0.24330(13)
H26 H 0.3251 0.7663 0.2371
H29 H 0.397872 0.379726 0.35262
H30 H 0.410009 0.369172 0.37417
O9 O 0.9309(5) 0.0068(4) 0.11632(13)
O16 O 0.9236(4) 0.0118(4) 0.15319(13)
Cu1 Cu 0.96004(10) 0.96243(9) 0.13565(2)
O4 O 0.8978(3) 0.9003(3) 0.13517(9)
Cu4 Cu 0.96004(10) 0.53757(9) 0.11435(2)
Cu7 Cu 0.96243(9) 0.53996(10) 0.38565(2)
H27 H 0.879726 0.897872 0.14738
H28 H 0.869172 0.910009 0.12583
Cu2_2 Cu 0.03757(9) 0.03996(10) 0.86435(2)
Cu3_2 Cu 0.46004(10) 0.03757(9) 0.61435(2)
Cu8_2 Cu 0.46243(9) 0.03996(10) 0.88565(2)
O14_2 O 0.0997(3) 0.1022(3) 0.86483(9)
H29_2 H 0.102128 0.120274 0.85262
H30_2 H 0.0899913 0.130828 0.87417
O1_2 O 0.4962(5) 0.5727(5) 0.65476(18)
C1_2 C 0.4501(7) 0.5591(8) 0.6605(2)
C2_2 C 0.3685(4) 0.8577(4) 0.68306(11)
C3_2 C 0.3422(3) 0.9057(5) 0.67652(14)
H1_2 H 0.3089 0.9184 0.6820
C4_2 C 0.3652(5) 0.9349(3) 0.66187(13)
H2_2 H 0.3474 0.9674 0.6574
C5_2 C 0.4144(5) 0.9161(4) 0.65377(10)
C6_2 C 0.4407(3) 0.8682(5) 0.66031(12)
H3_2 H 0.4740 0.8555 0.6548
C7_2 C 0.4178(5) 0.8390(3) 0.67496(13)
H4_2 H 0.4355 0.8065 0.6794
Cu1_2 Cu 0.53996(10) 0.53757(9) 0.63565(2)
C8_2 C 0.3594(4) 0.6456(4) 0.70142(9)
C9_2 C 0.3331(3) 0.6011(5) 0.69262(13)
H5_2 H 0.2962 0.5913 0.6958
C10_2 C 0.3614(5) 0.5712(3) 0.67916(12)
H6_2 H 0.3436 0.5412 0.6732
C11_2 C 0.4160(4) 0.5858(4) 0.67451(9)
C12_2 C 0.4423(3) 0.6302(4) 0.68331(13)
H7_2 H 0.4792 0.6401 0.6802
C13_2 C 0.4140(4) 0.6601(3) 0.69677(12)
H8_2 H 0.4318 0.6902 0.7027
O2_2 O 0.4309(5) 0.9932(4) 0.63368(13)
C14_2 C 0.3289(4) 0.6806(5) 0.71465(12)
C15_2 C 0.3243(4) 0.7387(5) 0.71396(12)
C16_2 C 0.2961(5) 0.7673(3) 0.72773(16)
C17_2 C 0.2724(4) 0.7378(5) 0.74220(10)
C18_2 C 0.2770(4) 0.6797(5) 0.74289(11)
C19_2 C 0.3053(5) 0.6511(3) 0.72912(16)
H9_2 H 0.3084 0.6119 0.7296
O3_2 O 0.4955(5) 0.9260(4) 0.63266(14)
O4_2 O 0.6022(3) 0.5997(3) 0.63517(9)
C20_2 C 0.3434(6) 0.8270(6) 0.69854(17)
C21_2 C 0.3153(4) 0.8571(5) 0.71180(15)
H10_2 H 0.3122 0.8963 0.7112
C22_2 C 0.4424(7) 0.9469(8) 0.6393(2)
C23_2 C 0.2918(5) 0.8270(5) 0.72611(16)
H11_2 H 0.2722 0.8468 0.7352
C24_2 C 0.3485(7) 0.7689(5) 0.69956(16)
H12_2 H 0.3685 0.7496 0.6904
O5_2 O 0.4236(4) 0.5118(4) 0.65319(13)
O6_2 O 0.2523(6) 0.6524(3) 0.75670(13)
H13_2 H 0.2337 0.6749 0.7629
O7_2 O 0.0727(5) 0.9962(5) 0.84524(18)
C25_2 C 0.0591(8) 0.9501(7) 0.8395(2)
C26_2 C 0.3577(4) 0.8685(4) 0.81694(11)
C27_2 C 0.4057(5) 0.8422(3) 0.82348(14)
H14_2 H 0.4184 0.8089 0.8180
C28_2 C 0.4349(3) 0.8652(5) 0.83813(13)
H15_2 H 0.4674 0.8474 0.8426
C29_2 C 0.4161(4) 0.9144(5) 0.84623(10)
C30_2 C 0.3682(5) 0.9407(3) 0.83969(12)
H16_2 H 0.3555 0.9740 0.8452
C31_2 C 0.3390(3) 0.9178(5) 0.82504(13)
H17_2 H 0.3065 0.9355 0.8206
Cu4_2 Cu 0.53996(10) 0.96243(9) 0.61435(2)
Cu5_2 Cu 0.46004(10) 0.46243(9) 0.63565(2)
Cu7_2 Cu 0.53757(9) 0.96004(10) 0.88565(2)
C32_2 C 0.1456(4) 0.8594(4) 0.79858(9)
C33_2 C 0.1011(5) 0.8331(3) 0.80738(13)
H18_2 H 0.0913 0.7962 0.8042
C34_2 C 0.0712(3) 0.8614(5) 0.82084(12)
H19_2 H 0.0412 0.8436 0.8268
C35_2 C 0.0858(4) 0.9160(4) 0.82549(9)
C36_2 C 0.1302(4) 0.9423(3) 0.81669(13)
H20_2 H 0.1401 0.9792 0.8198
C37_2 C 0.1601(3) 0.9140(4) 0.80323(12)
H21_2 H 0.1902 0.9318 0.7973
O8_2 O 0.4932(4) 0.9309(5) 0.86632(13)
O9_2 O 0.5691(5) 0.4932(4) 0.61632(13)
C38_2 C 0.1806(5) 0.8289(4) 0.78535(12)
C39_2 C 0.2387(5) 0.8243(4) 0.78604(12)
C40_2 C 0.2673(3) 0.7961(5) 0.77227(16)
C41_2 C 0.2378(5) 0.7724(4) 0.75780(10)
C42_2 C 0.1797(5) 0.7770(4) 0.75711(11)
C43_2 C 0.1511(3) 0.8053(5) 0.77088(16)
H22_2 H 0.1119 0.8084 0.7704
O11_2 O 0.4260(4) 0.9955(5) 0.86734(14)
O12_2 O 0.4955(5) 0.5740(4) 0.61734(14)
O13_2 O 0.0740(4) 0.9955(5) 0.88266(14)
C44_2 C 0.3270(6) 0.8434(6) 0.80146(17)
C45_2 C 0.3571(5) 0.8153(4) 0.78820(15)
H23_2 H 0.3963 0.8122 0.7888
C46_2 C 0.4469(8) 0.9424(7) 0.8607(2)
C47_2 C 0.3270(5) 0.7918(5) 0.77389(16)
H24_2 H 0.3468 0.7722 0.7648
C48_2 C 0.2689(5) 0.8485(7) 0.80044(16)
H25_2 H 0.2496 0.8685 0.8096
O15_2 O 0.0118(4) 0.9236(4) 0.84681(13)
O16_2 O 0.5764(4) 0.4882(4) 0.65319(13)
O18_2 O 0.1524(3) 0.7523(6) 0.74330(13)
H26_2 H 0.1749 0.7337 0.7371
H27_2 H 0.620274 0.602128 0.64738
H28_2 H 0.630828 0.589991 0.62583
O10_2 O 0.9932(4) 0.0691(5) 0.88368(13)
O17_2 O 0.9882(4) 0.0764(4) 0.84681(13)
Cu6_2 Cu 0.96243(9) 0.96004(10) 0.86435(2)
O10_3 O 0.5691(5) 0.0068(4) 0.63368(13)
O17_3 O 0.5764(4) 0.0118(4) 0.59681(13)
O1_3 O 0.0727(5) 0.5038(5) 0.40476(18)
C1_3 C 0.0591(8) 0.5499(7) 0.4105(2)
C2_3 C 0.3577(4) 0.6315(4) 0.43306(11)
C3_3 C 0.4057(5) 0.6578(3) 0.42652(14)
H1_3 H 0.4184 0.6911 0.4320
C4_3 C 0.4349(3) 0.6348(5) 0.41187(13)
H2_3 H 0.4674 0.6526 0.4074
C5_3 C 0.4161(4) 0.5856(5) 0.40377(10)
C6_3 C 0.3682(5) 0.5593(3) 0.41031(12)
H3_3 H 0.3555 0.5260 0.4048
C7_3 C 0.3390(3) 0.5822(5) 0.42496(13)
H4_3 H 0.3065 0.5645 0.4294
C8_3 C 0.1456(4) 0.6406(4) 0.45142(9)
C9_3 C 0.1011(5) 0.6669(3) 0.44262(13)
H5_3 H 0.0913 0.7038 0.4458
C10_3 C 0.0712(3) 0.6386(5) 0.42916(12)
H6_3 H 0.0412 0.6564 0.4232
C11_3 C 0.0858(4) 0.5840(4) 0.42451(9)
C12_3 C 0.1302(4) 0.5577(3) 0.43331(13)
H7_3 H 0.1401 0.5208 0.4302
C13_3 C 0.1601(3) 0.5860(4) 0.44677(12)
H8_3 H 0.1902 0.5682 0.4527
O2_3 O 0.4932(4) 0.5691(5) 0.38368(13)
C14_3 C 0.1806(5) 0.6711(4) 0.46465(12)
C15_3 C 0.2387(5) 0.6757(4) 0.46396(12)
C16_3 C 0.2673(3) 0.7039(5) 0.47773(16)
C17_3 C 0.2378(5) 0.7276(4) 0.49220(10)
C18_3 C 0.1797(5) 0.7230(4) 0.49289(11)
C19_3 C 0.1511(3) 0.6947(5) 0.47912(16)
H9_3 H 0.1119 0.6916 0.4796
O4_3 O 0.0997(3) 0.3978(3) 0.38517(9)
C20_3 C 0.3270(6) 0.6566(6) 0.44854(17)
C21_3 C 0.3571(5) 0.6847(4) 0.46180(15)
H10_3 H 0.3963 0.6878 0.4612
C22_3 C 0.4469(8) 0.5576(7) 0.3893(2)
C23_3 C 0.3270(5) 0.7082(5) 0.47611(16)
H11_3 H 0.3468 0.7278 0.4852
C24_3 C 0.2689(5) 0.6515(7) 0.44956(16)
H12_3 H 0.2496 0.6315 0.4404
O5_3 O 0.0118(4) 0.5764(4) 0.40319(13)
O6_3 O 0.1524(3) 0.7477(6) 0.50670(13)
H13_3 H 0.1749 0.7663 0.5129
O7_3 O 0.4962(5) 0.9273(5) 0.59524(18)
C25_3 C 0.4501(7) 0.9409(8) 0.5895(2)
C26_3 C 0.3685(4) 0.6423(4) 0.56694(11)
C27_3 C 0.3422(3) 0.5943(5) 0.57348(14)
H14_3 H 0.3089 0.5816 0.5680
C28_3 C 0.3652(5) 0.5651(3) 0.58813(13)
H15_3 H 0.3474 0.5326 0.5926
C29_3 C 0.4144(5) 0.5839(4) 0.59623(10)
C30_3 C 0.4407(3) 0.6318(5) 0.58969(12)
H16_3 H 0.4740 0.6445 0.5952
C31_3 C 0.4178(5) 0.6610(3) 0.57504(13)
H17_3 H 0.4355 0.6935 0.5706
C32_3 C 0.3594(4) 0.8544(4) 0.54858(9)
C33_3 C 0.3331(3) 0.8989(5) 0.55738(13)
H18_3 H 0.2962 0.9087 0.5542
C34_3 C 0.3614(5) 0.9288(3) 0.57084(12)
H19_3 H 0.3436 0.9588 0.5768
C35_3 C 0.4160(4) 0.9142(4) 0.57549(9)
C36_3 C 0.4423(3) 0.8698(4) 0.56669(13)
H20_3 H 0.4792 0.8599 0.5698
C37_3 C 0.4140(4) 0.8399(3) 0.55323(12)
H21_3 H 0.4318 0.8098 0.5473
O8_3 O 0.4309(5) 0.5068(4) 0.61632(13)
C38_3 C 0.3289(4) 0.8194(5) 0.53535(12)
C39_3 C 0.3243(4) 0.7613(5) 0.53604(12)
C40_3 C 0.2961(5) 0.7327(3) 0.52227(16)
C41_3 C 0.2724(4) 0.7622(5) 0.50780(10)
C42_3 C 0.2770(4) 0.8203(5) 0.50711(11)
C43_3 C 0.3053(5) 0.8489(3) 0.52088(16)
H22_3 H 0.3084 0.8881 0.5204
O14_3 O 0.6022(3) 0.9003(3) 0.61483(9)
C44_3 C 0.3434(6) 0.6730(6) 0.55146(17)
C45_3 C 0.3153(4) 0.6429(5) 0.53820(15)
H23_3 H 0.3122 0.6037 0.5388
C46_3 C 0.4424(7) 0.5531(8) 0.6107(2)
C47_3 C 0.2918(5) 0.6730(5) 0.52389(16)
H24_3 H 0.2722 0.6532 0.5148
C48_3 C 0.3485(7) 0.7311(5) 0.55044(16)
H25_3 H 0.3685 0.7504 0.5596
O15_3 O 0.4236(4) 0.9882(4) 0.59681(13)
O18_3 O 0.2523(6) 0.8476(3) 0.49330(13)
H26_3 H 0.2337 0.8251 0.4871
H27_3 H 0.102128 0.379726 0.39738
H28_3 H 0.0899913 0.369172 0.37583
H29_3 H 0.620274 0.897872 0.60262
H30_3 H 0.630828 0.910009 0.62417
O9_3 O 0.9932(4) 0.4309(5) 0.36632(13)
O16_3 O 0.9882(4) 0.4236(4) 0.40319(13)
O4_4 O 0.4003(3) 0.1022(3) 0.88517(9)
O9_4 O 0.5068(4) 0.0691(5) 0.86632(13)
O16_4 O 0.5118(4) 0.0764(4) 0.90319(13)
H27_4 H 0.397872 0.120274 0.89738
H28_4 H 0.410009 0.130828 0.87583
O6_4 O 0.3476(3) 0.7523(6) 0.00670(13)
H13_4 H 0.3251 0.7337 0.0129
O7_4 O 0.0038(5) 0.5727(5) 0.09524(18)
C25_4 C 0.0499(7) 0.5591(8) 0.0895(2)
C26_4 C 0.1315(4) 0.8577(4) 0.06694(11)
C27_4 C 0.1578(3) 0.9057(5) 0.07348(14)
H14_4 H 0.1911 0.9184 0.0680
C28_4 C 0.1348(5) 0.9349(3) 0.08813(13)
H15_4 H 0.1526 0.9674 0.0926
C29_4 C 0.0856(5) 0.9161(4) 0.09623(10)
C30_4 C 0.0593(3) 0.8682(5) 0.08969(12)
H16_4 H 0.0260 0.8555 0.0952
C31_4 C 0.0822(5) 0.8390(3) 0.07504(13)
H17_4 H 0.0645 0.8065 0.0706
C32_4 C 0.1406(4) 0.6456(4) 0.04858(9)
C33_4 C 0.1669(3) 0.6011(5) 0.05738(13)
H18_4 H 0.2038 0.5913 0.0542
C34_4 C 0.1386(5) 0.5712(3) 0.07084(12)
H19_4 H 0.1564 0.5412 0.0768
C35_4 C 0.0840(4) 0.5858(4) 0.07549(9)
C36_4 C 0.0577(3) 0.6302(4) 0.06669(13)
H20_4 H 0.0208 0.6401 0.0698
C37_4 C 0.0860(4) 0.6601(3) 0.05323(12)
H21_4 H 0.0682 0.6902 0.0473
O8_4 O 0.0691(5) 0.9932(4) 0.11632(13)
C38_4 C 0.1711(4) 0.6806(5) 0.03535(12)
C39_4 C 0.1757(4) 0.7387(5) 0.03604(12)
C40_4 C 0.2039(5) 0.7673(3) 0.02227(16)
C41_4 C 0.2276(4) 0.7378(5) 0.00780(10)
C42_4 C 0.2230(4) 0.6797(5) 0.00711(11)
C43_4 C 0.1947(5) 0.6511(3) 0.02088(16)
H22_4 H 0.1916 0.6119 0.0204
C44_4 C 0.1566(6) 0.8270(6) 0.05146(17)
C45_4 C 0.1847(4) 0.8571(5) 0.03820(15)
H23_4 H 0.1878 0.8963 0.0388
C46_4 C 0.0576(7) 0.9469(8) 0.1107(2)
C47_4 C 0.2082(5) 0.8270(5) 0.02389(16)
H24_4 H 0.2278 0.8468 0.0148
C48_4 C 0.1515(7) 0.7689(5) 0.05044(16)
H25_4 H 0.1315 0.7496 0.0596
O15_4 O 0.0764(4) 0.5118(4) 0.09681(13)
O1_4 O 0.4273(5) 0.9962(5) 0.90476(18)
C1_4 C 0.4409(8) 0.9501(7) 0.9105(2)
C2_4 C 0.1423(4) 0.8685(4) 0.93306(11)
C3_4 C 0.0943(5) 0.8422(3) 0.92652(14)
H1_4 H 0.0816 0.8089 0.9320
C4_4 C 0.0651(3) 0.8652(5) 0.91187(13)
H2_4 H 0.0326 0.8474 0.9074
C5_4 C 0.0839(4) 0.9144(5) 0.90377(10)
C6_4 C 0.1318(5) 0.9407(3) 0.91031(12)
H3_4 H 0.1445 0.9740 0.9048
C7_4 C 0.1610(3) 0.9178(5) 0.92496(13)
H4_4 H 0.1935 0.9355 0.9294
C8_4 C 0.3544(4) 0.8594(4) 0.95142(9)
C9_4 C 0.3989(5) 0.8331(3) 0.94262(13)
H5_4 H 0.4087 0.7962 0.9458
C10_4 C 0.4288(3) 0.8614(5) 0.92916(12)
H6_4 H 0.4588 0.8436 0.9232
C11_4 C 0.4142(4) 0.9160(4) 0.92451(9)
C12_4 C 0.3698(4) 0.9423(3) 0.93331(13)
H7_4 H 0.3599 0.9792 0.9302
C13_4 C 0.3399(3) 0.9140(4) 0.94677(12)
H8_4 H 0.3098 0.9318 0.9527
O2_4 O 0.0068(4) 0.9309(5) 0.88368(13)
C14_4 C 0.3194(5) 0.8289(4) 0.96465(12)
C15_4 C 0.2613(5) 0.8243(4) 0.96396(12)
C16_4 C 0.2327(3) 0.7961(5) 0.97773(16)
C17_4 C 0.2622(5) 0.7724(4) 0.99220(10)
C18_4 C 0.3203(5) 0.7770(4) 0.99289(11)
C19_4 C 0.3489(3) 0.8053(5) 0.97912(16)
H9_4 H 0.3881 0.8084 0.9796
C20_4 C 0.1730(6) 0.8434(6) 0.94854(17)
C21_4 C 0.1429(5) 0.8153(4) 0.96180(15)
H10_4 H 0.1037 0.8122 0.9612
C22_4 C 0.0531(8) 0.9424(7) 0.8893(2)
C23_4 C 0.1730(5) 0.7918(5) 0.97611(16)
H11_4 H 0.1532 0.7722 0.9852
C24_4 C 0.2311(5) 0.8485(7) 0.94956(16)
H12_4 H 0.2504 0.8685 0.9404
O5_4 O 0.4882(4) 0.9236(4) 0.90319(13)
O18_4 O 0.2477(6) 0.6524(3) 0.99330(13)
H26_4 H 0.2663 0.6749 0.9871
O10_4 O 0.9309(5) 0.4932(4) 0.13368(13)
O14_4 O 0.8978(3) 0.5997(3) 0.11483(9)
O17_4 O 0.9236(4) 0.4882(4) 0.09681(13)
H29_4 H 0.879726 0.602128 0.10262
H30_4 H 0.869172 0.589991 0.12417
O1_5 O 0.5038(5) 0.4273(5) 0.65476(18)
C1_5 C 0.5499(7) 0.4409(8) 0.6605(2)
C2_5 C 0.6315(4) 0.1423(4) 0.68306(11)
C3_5 C 0.6578(3) 0.0943(5) 0.67652(14)
H1_5 H 0.6911 0.0816 0.6820
C4_5 C 0.6348(5) 0.0651(3) 0.66187(13)
H2_5 H 0.6526 0.0326 0.6574
C5_5 C 0.5856(5) 0.0839(4) 0.65377(10)
C6_5 C 0.5593(3) 0.1318(5) 0.66031(12)
H3_5 H 0.5260 0.1445 0.6548
C7_5 C 0.5822(5) 0.1610(3) 0.67496(13)
H4_5 H 0.5645 0.1935 0.6794
C8_5 C 0.6406(4) 0.3544(4) 0.70142(9)
C9_5 C 0.6669(3) 0.3989(5) 0.69262(13)
H5_5 H 0.7038 0.4087 0.6958
C10_5 C 0.6386(5) 0.4288(3) 0.67916(12)
H6_5 H 0.6564 0.4588 0.6732
C11_5 C 0.5840(4) 0.4142(4) 0.67451(9)
C12_5 C 0.5577(3) 0.3698(4) 0.68331(13)
H7_5 H 0.5208 0.3599 0.6802
C13_5 C 0.5860(4) 0.3399(3) 0.69677(12)
H8_5 H 0.5682 0.3098 0.7027
C14_5 C 0.6711(4) 0.3194(5) 0.71465(12)
C15_5 C 0.6757(4) 0.2613(5) 0.71396(12)
C16_5 C 0.7039(5) 0.2327(3) 0.72773(16)
C17_5 C 0.7276(4) 0.2622(5) 0.74220(10)
C18_5 C 0.7230(4) 0.3203(5) 0.74289(11)
C19_5 C 0.6947(5) 0.3489(3) 0.72912(16)
H9_5 H 0.6916 0.3881 0.7296
O3_3 O 0.5045(5) 0.0740(4) 0.63266(14)
O4_5 O 0.3978(3) 0.4003(3) 0.63517(9)
C20_5 C 0.6566(6) 0.1730(6) 0.69854(17)
C21_5 C 0.6847(4) 0.1429(5) 0.71180(15)
H10_5 H 0.6878 0.1037 0.7112
C22_5 C 0.5576(7) 0.0531(8) 0.6393(2)
C23_5 C 0.7082(5) 0.1730(5) 0.72611(16)
H11_5 H 0.7278 0.1532 0.7352
C24_5 C 0.6515(7) 0.2311(5) 0.69956(16)
H12_5 H 0.6315 0.2504 0.6904
O6_5 O 0.7477(6) 0.3476(3) 0.75670(13)
H13_5 H 0.7663 0.3251 0.7629
O7_5 O 0.9273(5) 0.0038(5) 0.84524(18)
C25_5 C 0.9409(8) 0.0499(7) 0.8395(2)
C26_5 C 0.6423(4) 0.1315(4) 0.81694(11)
C27_5 C 0.5943(5) 0.1578(3) 0.82348(14)
H14_5 H 0.5816 0.1911 0.8180
C28_5 C 0.5651(3) 0.1348(5) 0.83813(13)
H15_5 H 0.5326 0.1526 0.8426
C29_5 C 0.5839(4) 0.0856(5) 0.84623(10)
C30_5 C 0.6318(5) 0.0593(3) 0.83969(12)
H16_5 H 0.6445 0.0260 0.8452
C31_5 C 0.6610(3) 0.0822(5) 0.82504(13)
H17_5 H 0.6935 0.0645 0.8206
C32_5 C 0.8544(4) 0.1406(4) 0.79858(9)
C33_5 C 0.8989(5) 0.1669(3) 0.80738(13)
H18_5 H 0.9087 0.2038 0.8042
C34_5 C 0.9288(3) 0.1386(5) 0.82084(12)
H19_5 H 0.9588 0.1564 0.8268
C35_5 C 0.9142(4) 0.0840(4) 0.82549(9)
C36_5 C 0.8698(4) 0.0577(3) 0.81669(13)
H20_5 H 0.8599 0.0208 0.8198
C37_5 C 0.8399(3) 0.0860(4) 0.80323(12)
H21_5 H 0.8098 0.0682 0.7973
C38_5 C 0.8194(5) 0.1711(4) 0.78535(12)
C39_5 C 0.7613(5) 0.1757(4) 0.78604(12)
C40_5 C 0.7327(3) 0.2039(5) 0.77227(16)
C41_5 C 0.7622(5) 0.2276(4) 0.75780(10)
C42_5 C 0.8203(5) 0.2230(4) 0.75711(11)
C43_5 C 0.8489(3) 0.1947(5) 0.77088(16)
H22_5 H 0.8881 0.1916 0.7704
O11_3 O 0.5740(4) 0.0045(5) 0.86734(14)
O12_3 O 0.5045(5) 0.4260(4) 0.61734(14)
O13_3 O 0.9260(4) 0.0045(5) 0.88266(14)
C44_5 C 0.6730(6) 0.1566(6) 0.80146(17)
C45_5 C 0.6429(5) 0.1847(4) 0.78820(15)
H23_5 H 0.6037 0.1878 0.7888
C46_5 C 0.5531(8) 0.0576(7) 0.8607(2)
C47_5 C 0.6730(5) 0.2082(5) 0.77389(16)
H24_5 H 0.6532 0.2278 0.7648
C48_5 C 0.7311(5) 0.1515(7) 0.80044(16)
H25_5 H 0.7504 0.1315 0.8096
O18_5 O 0.8476(3) 0.2477(6) 0.74330(13)
H26_5 H 0.8251 0.2663 0.7371
H27_5 H 0.379726 0.397872 0.64738
H28_5 H 0.369172 0.410009 0.62583
O14_5 O 0.9003(3) 0.8978(3) 0.86483(9)
H29_5 H 0.897872 0.879726 0.85262
H30_5 H 0.910009 0.869172 0.87417
O4_6 O 0.1022(3) 0.0997(3) 0.13517(9)
H27_6 H 0.120274 0.102128 0.14738
H28_6 H 0.130828 0.0899913 0.12583
O1_6 O 0.9962(5) 0.0727(5) 0.15476(18)
C1_6 C 0.9501(7) 0.0591(8) 0.1605(2)
C2_6 C 0.8685(4) 0.3577(4) 0.18306(11)
C3_6 C 0.8422(3) 0.4057(5) 0.17652(14)
H1_6 H 0.8089 0.4184 0.1820
C4_6 C 0.8652(5) 0.4349(3) 0.16187(13)
H2_6 H 0.8474 0.4674 0.1574
C5_6 C 0.9144(5) 0.4161(4) 0.15377(10)
C6_6 C 0.9407(3) 0.3682(5) 0.16031(12)
H3_6 H 0.9740 0.3555 0.1548
C7_6 C 0.9178(5) 0.3390(3) 0.17496(13)
H4_6 H 0.9355 0.3065 0.1794
C8_6 C 0.8594(4) 0.1456(4) 0.20142(9)
C9_6 C 0.8331(3) 0.1011(5) 0.19262(13)
H5_6 H 0.7962 0.0913 0.1958
C10_6 C 0.8614(5) 0.0712(3) 0.17916(12)
H6_6 H 0.8436 0.0412 0.1732
C11_6 C 0.9160(4) 0.0858(4) 0.17451(9)
C12_6 C 0.9423(3) 0.1302(4) 0.18331(13)
H7_6 H 0.9792 0.1401 0.1802
C13_6 C 0.9140(4) 0.1601(3) 0.19677(12)
H8_6 H 0.9318 0.1902 0.2027
C14_6 C 0.8289(4) 0.1806(5) 0.21465(12)
C15_6 C 0.8243(4) 0.2387(5) 0.21396(12)
C16_6 C 0.7961(5) 0.2673(3) 0.22773(16)
C17_6 C 0.7724(4) 0.2378(5) 0.24220(10)
C18_6 C 0.7770(4) 0.1797(5) 0.24289(11)
C19_6 C 0.8053(5) 0.1511(3) 0.22912(16)
H9_6 H 0.8084 0.1119 0.2296
O3_4 O 0.9955(5) 0.4260(4) 0.13266(14)
C20_6 C 0.8434(6) 0.3270(6) 0.19854(17)
C21_6 C 0.8153(4) 0.3571(5) 0.21180(15)
H10_6 H 0.8122 0.3963 0.2112
C22_6 C 0.9424(7) 0.4469(8) 0.1393(2)
C23_6 C 0.7918(5) 0.3270(5) 0.22611(16)
H11_6 H 0.7722 0.3468 0.2352
C24_6 C 0.8485(7) 0.2689(5) 0.19956(16)
H12_6 H 0.8685 0.2496 0.1904
O6_6 O 0.7523(6) 0.1524(3) 0.25670(13)
H13_6 H 0.7337 0.1749 0.2629
O7_6 O 0.5727(5) 0.4962(5) 0.34524(18)
C25_6 C 0.5591(8) 0.4501(7) 0.3395(2)
C26_6 C 0.8577(4) 0.3685(4) 0.31694(11)
C27_6 C 0.9057(5) 0.3422(3) 0.32348(14)
H14_6 H 0.9184 0.3089 0.3180
C28_6 C 0.9349(3) 0.3652(5) 0.33813(13)
H15_6 H 0.9674 0.3474 0.3426
C29_6 C 0.9161(4) 0.4144(5) 0.34623(10)
C30_6 C 0.8682(5) 0.4407(3) 0.33969(12)
H16_6 H 0.8555 0.4740 0.3452
C31_6 C 0.8390(3) 0.4178(5) 0.32504(13)
H17_6 H 0.8065 0.4355 0.3206
C32_6 C 0.6456(4) 0.3594(4) 0.29858(9)
C33_6 C 0.6011(5) 0.3331(3) 0.30738(13)
H18_6 H 0.5913 0.2962 0.3042
C34_6 C 0.5712(3) 0.3614(5) 0.32084(12)
H19_6 H 0.5412 0.3436 0.3268
C35_6 C 0.5858(4) 0.4160(4) 0.32549(9)
C36_6 C 0.6302(4) 0.4423(3) 0.31669(13)
H20_6 H 0.6401 0.4792 0.3198
C37_6 C 0.6601(3) 0.4140(4) 0.30323(12)
H21_6 H 0.6902 0.4318 0.2973
C38_6 C 0.6806(5) 0.3289(4) 0.28535(12)
C39_6 C 0.7387(5) 0.3243(4) 0.28604(12)
C40_6 C 0.7673(3) 0.2961(5) 0.27227(16)
C41_6 C 0.7378(5) 0.2724(4) 0.25780(10)
C42_6 C 0.6797(5) 0.2770(4) 0.25711(11)
C43_6 C 0.6511(3) 0.3053(5) 0.27088(16)
H22_6 H 0.6119 0.3084 0.2704
O11_4 O 0.9260(4) 0.4955(5) 0.36734(14)
O12_4 O 0.9955(5) 0.0740(4) 0.11734(14)
O13_4 O 0.5740(4) 0.4955(5) 0.38266(14)
O14_6 O 0.5997(3) 0.6022(3) 0.36483(9)
C44_6 C 0.8270(6) 0.3434(6) 0.30146(17)
C45_6 C 0.8571(5) 0.3153(4) 0.28820(15)
H23_6 H 0.8963 0.3122 0.2888
C46_6 C 0.9469(8) 0.4424(7) 0.3607(2)
C47_6 C 0.8270(5) 0.2918(5) 0.27389(16)
H24_6 H 0.8468 0.2722 0.2648
C48_6 C 0.7689(5) 0.3485(7) 0.30044(16)
H25_6 H 0.7496 0.3685 0.3096
O18_6 O 0.6524(3) 0.2523(6) 0.24330(13)
H26_6 H 0.6749 0.2337 0.2371
H29_6 H 0.602128 0.620274 0.35262
H30_6 H 0.589991 0.630828 0.37417
O14_7 O 0.1022(3) 0.4003(3) 0.11483(9)
H29_7 H 0.120274 0.397872 0.10262
H30_7 H 0.130828 0.410009 0.12417
O6_7 O 0.6524(3) 0.2477(6) 0.00670(13)
H13_7 H 0.6749 0.2663 0.0129
O7_7 O 0.9962(5) 0.4273(5) 0.09524(18)
C25_7 C 0.9501(7) 0.4409(8) 0.0895(2)
C26_7 C 0.8685(4) 0.1423(4) 0.06694(11)
C27_7 C 0.8422(3) 0.0943(5) 0.07348(14)
H14_7 H 0.8089 0.0816 0.0680
C28_7 C 0.8652(5) 0.0651(3) 0.08813(13)
H15_7 H 0.8474 0.0326 0.0926
C29_7 C 0.9144(5) 0.0839(4) 0.09623(10)
C30_7 C 0.9407(3) 0.1318(5) 0.08969(12)
H16_7 H 0.9740 0.1445 0.0952
C31_7 C 0.9178(5) 0.1610(3) 0.07504(13)
H17_7 H 0.9355 0.1935 0.0706
C32_7 C 0.8594(4) 0.3544(4) 0.04858(9)
C33_7 C 0.8331(3) 0.3989(5) 0.05738(13)
H18_7 H 0.7962 0.4087 0.0542
C34_7 C 0.8614(5) 0.4288(3) 0.07084(12)
H19_7 H 0.8436 0.4588 0.0768
C35_7 C 0.9160(4) 0.4142(4) 0.07549(9)
C36_7 C 0.9423(3) 0.3698(4) 0.06669(13)
H20_7 H 0.9792 0.3599 0.0698
C37_7 C 0.9140(4) 0.3399(3) 0.05323(12)
H21_7 H 0.9318 0.3098 0.0473
C38_7 C 0.8289(4) 0.3194(5) 0.03535(12)
C39_7 C 0.8243(4) 0.2613(5) 0.03604(12)
C40_7 C 0.7961(5) 0.2327(3) 0.02227(16)
C41_7 C 0.7724(4) 0.2622(5) 0.00780(10)
C42_7 C 0.7770(4) 0.3203(5) 0.00711(11)
C43_7 C 0.8053(5) 0.3489(3) 0.02088(16)
H22_7 H 0.8084 0.3881 0.0204
C44_7 C 0.8434(6) 0.1730(6) 0.05146(17)
C45_7 C 0.8153(4) 0.1429(5) 0.03820(15)
H23_7 H 0.8122 0.1037 0.0388
C46_7 C 0.9424(7) 0.0531(8) 0.1107(2)
C47_7 C 0.7918(5) 0.1730(5) 0.02389(16)
H24_7 H 0.7722 0.1532 0.0148
C48_7 C 0.8485(7) 0.2311(5) 0.05044(16)
H25_7 H 0.8685 0.2504 0.0596
O1_7 O 0.5727(5) 0.0038(5) 0.90476(18)
C1_7 C 0.5591(8) 0.0499(7) 0.9105(2)
C2_7 C 0.8577(4) 0.1315(4) 0.93306(11)
C3_7 C 0.9057(5) 0.1578(3) 0.92652(14)
H1_7 H 0.9184 0.1911 0.9320
C4_7 C 0.9349(3) 0.1348(5) 0.91187(13)
H2_7 H 0.9674 0.1526 0.9074
C5_7 C 0.9161(4) 0.0856(5) 0.90377(10)
C6_7 C 0.8682(5) 0.0593(3) 0.91031(12)
H3_7 H 0.8555 0.0260 0.9048
C7_7 C 0.8390(3) 0.0822(5) 0.92496(13)
H4_7 H 0.8065 0.0645 0.9294
C8_7 C 0.6456(4) 0.1406(4) 0.95142(9)
C9_7 C 0.6011(5) 0.1669(3) 0.94262(13)
H5_7 H 0.5913 0.2038 0.9458
C10_7 C 0.5712(3) 0.1386(5) 0.92916(12)
H6_7 H 0.5412 0.1564 0.9232
C11_7 C 0.5858(4) 0.0840(4) 0.92451(9)
C12_7 C 0.6302(4) 0.0577(3) 0.93331(13)
H7_7 H 0.6401 0.0208 0.9302
C13_7 C 0.6601(3) 0.0860(4) 0.94677(12)
H8_7 H 0.6902 0.0682 0.9527
C14_7 C 0.6806(5) 0.1711(4) 0.96465(12)
C15_7 C 0.7387(5) 0.1757(4) 0.96396(12)
C16_7 C 0.7673(3) 0.2039(5) 0.97773(16)
C17_7 C 0.7378(5) 0.2276(4) 0.99220(10)
C18_7 C 0.6797(5) 0.2230(4) 0.99289(11)
C19_7 C 0.6511(3) 0.1947(5) 0.97912(16)
H9_7 H 0.6119 0.1916 0.9796
C20_7 C 0.8270(6) 0.1566(6) 0.94854(17)
C21_7 C 0.8571(5) 0.1847(4) 0.96180(15)
H10_7 H 0.8963 0.1878 0.9612
C22_7 C 0.9469(8) 0.0576(7) 0.8893(2)
C23_7 C 0.8270(5) 0.2082(5) 0.97611(16)
H11_7 H 0.8468 0.2278 0.9852
C24_7 C 0.7689(5) 0.1515(7) 0.94956(16)
H12_7 H 0.7496 0.1315 0.9404
O18_7 O 0.7523(6) 0.3476(3) 0.99330(13)
H26_7 H 0.7337 0.3251 0.9871
O4_7 O 0.5997(3) 0.8978(3) 0.88517(9)
H27_7 H 0.602128 0.879726 0.89738
H28_7 H 0.589991 0.869172 0.87583
O1_8 O 0.9273(5) 0.4962(5) 0.40476(18)
C1_8 C 0.9409(8) 0.4501(7) 0.4105(2)
C2_8 C 0.6423(4) 0.3685(4) 0.43306(11)
C3_8 C 0.5943(5) 0.3422(3) 0.42652(14)
H1_8 H 0.5816 0.3089 0.4320
C4_8 C 0.5651(3) 0.3652(5) 0.41187(13)
H2_8 H 0.5326 0.3474 0.4074
C5_8 C 0.5839(4) 0.4144(5) 0.40377(10)
C6_8 C 0.6318(5) 0.4407(3) 0.41031(12)
H3_8 H 0.6445 0.4740 0.4048
C7_8 C 0.6610(3) 0.4178(5) 0.42496(13)
H4_8 H 0.6935 0.4355 0.4294
C8_8 C 0.8544(4) 0.3594(4) 0.45142(9)
C9_8 C 0.8989(5) 0.3331(3) 0.44262(13)
H5_8 H 0.9087 0.2962 0.4458
C10_8 C 0.9288(3) 0.3614(5) 0.42916(12)
H6_8 H 0.9588 0.3436 0.4232
C11_8 C 0.9142(4) 0.4160(4) 0.42451(9)
C12_8 C 0.8698(4) 0.4423(3) 0.43331(13)
H7_8 H 0.8599 0.4792 0.4302
C13_8 C 0.8399(3) 0.4140(4) 0.44677(12)
H8_8 H 0.8098 0.4318 0.4527
C14_8 C 0.8194(5) 0.3289(4) 0.46465(12)
C15_8 C 0.7613(5) 0.3243(4) 0.46396(12)
C16_8 C 0.7327(3) 0.2961(5) 0.47773(16)
C17_8 C 0.7622(5) 0.2724(4) 0.49220(10)
C18_8 C 0.8203(5) 0.2770(4) 0.49289(11)
C19_8 C 0.8489(3) 0.3053(5) 0.47912(16)
H9_8 H 0.8881 0.3084 0.4796
O4_8 O 0.9003(3) 0.6022(3) 0.38517(9)
C20_8 C 0.6730(6) 0.3434(6) 0.44854(17)
C21_8 C 0.6429(5) 0.3153(4) 0.46180(15)
H10_8 H 0.6037 0.3122 0.4612
C22_8 C 0.5531(8) 0.4424(7) 0.3893(2)
C23_8 C 0.6730(5) 0.2918(5) 0.47611(16)
H11_8 H 0.6532 0.2722 0.4852
C24_8 C 0.7311(5) 0.3485(7) 0.44956(16)
H12_8 H 0.7504 0.3685 0.4404
O6_8 O 0.8476(3) 0.2523(6) 0.50670(13)
H13_8 H 0.8251 0.2337 0.5129
O7_8 O 0.5038(5) 0.0727(5) 0.59524(18)
C25_8 C 0.5499(7) 0.0591(8) 0.5895(2)
C26_8 C 0.6315(4) 0.3577(4) 0.56694(11)
C27_8 C 0.6578(3) 0.4057(5) 0.57348(14)
H14_8 H 0.6911 0.4184 0.5680
C28_8 C 0.6348(5) 0.4349(3) 0.58813(13)
H15_8 H 0.6526 0.4674 0.5926
C29_8 C 0.5856(5) 0.4161(4) 0.59623(10)
C30_8 C 0.5593(3) 0.3682(5) 0.58969(12)
H16_8 H 0.5260 0.3555 0.5952
C31_8 C 0.5822(5) 0.3390(3) 0.57504(13)
H17_8 H 0.5645 0.3065 0.5706
C32_8 C 0.6406(4) 0.1456(4) 0.54858(9)
C33_8 C 0.6669(3) 0.1011(5) 0.55738(13)
H18_8 H 0.7038 0.0913 0.5542
C34_8 C 0.6386(5) 0.0712(3) 0.57084(12)
H19_8 H 0.6564 0.0412 0.5768
C35_8 C 0.5840(4) 0.0858(4) 0.57549(9)
C36_8 C 0.5577(3) 0.1302(4) 0.56669(13)
H20_8 H 0.5208 0.1401 0.5698
C37_8 C 0.5860(4) 0.1601(3) 0.55323(12)
H21_8 H 0.5682 0.1902 0.5473
C38_8 C 0.6711(4) 0.1806(5) 0.53535(12)
C39_8 C 0.6757(4) 0.2387(5) 0.53604(12)
C40_8 C 0.7039(5) 0.2673(3) 0.52227(16)
C41_8 C 0.7276(4) 0.2378(5) 0.50780(10)
C42_8 C 0.7230(4) 0.1797(5) 0.50711(11)
C43_8 C 0.6947(5) 0.1511(3) 0.52088(16)
H22_8 H 0.6916 0.1119 0.5204
O14_8 O 0.3978(3) 0.0997(3) 0.61483(9)
C44_8 C 0.6566(6) 0.3270(6) 0.55146(17)
C45_8 C 0.6847(4) 0.3571(5) 0.53820(15)
H23_8 H 0.6878 0.3963 0.5388
C46_8 C 0.5576(7) 0.4469(8) 0.6107(2)
C47_8 C 0.7082(5) 0.3270(5) 0.52389(16)
H24_8 H 0.7278 0.3468 0.5148
C48_8 C 0.6515(7) 0.2689(5) 0.55044(16)
H25_8 H 0.6315 0.2496 0.5596
O18_8 O 0.7477(6) 0.1524(3) 0.49330(13)
H26_8 H 0.7663 0.1749 0.4871
H27_8 H 0.897872 0.620274 0.39738
H28_8 H 0.910009 0.630828 0.37583
H29_8 H 0.379726 0.102128 0.60262
H30_8 H 0.369172 0.0899913 0.62417
loop_
_geom_bond_atom_site_label_1
_geom_bond_atom_site_label_2
_geom_bond_site_symmetry_1
_geom_bond_site_symmetry_2
O1 C1 1_555 1_555
C1 C11 1_555 1_555
C2 C3 1_555 1_555
C3 H1 1_555 1_555
C4 C3 1_555 1_555
H2 C4 1_555 1_555
C5 C4 1_555 1_555
C6 C5 1_555 1_555
H3 C6 1_555 1_555
C7 C2 1_555 1_555
H4 C7 1_555 1_555
C8 C9 1_555 1_555
C9 H5 1_555 1_555
C10 C9 1_555 1_555
H6 C10 1_555 1_555
C11 C10 1_555 1_555
C12 C11 1_555 1_555
H7 C12 1_555 1_555
C13 C8 1_555 1_555
H8 C13 1_555 1_555
O2 C22 1_555 1_555
C14 C8 1_555 1_555
C15 C14 1_555 1_555
C16 C15 1_555 1_555
C17 C16 1_555 1_555
C18 C17 1_555 1_555
C19 C14 1_555 1_555
H9 C19 1_555 1_555
O3 C22 1_555 1_555
C20 C2 1_555 1_555
C21 C20 1_555 1_555
H10 C21 1_555 1_555
C22 C5 1_555 1_555
C23 C16 1_555 1_555
H11 C23 1_555 1_555
C24 C15 1_555 1_555
H12 C24 1_555 1_555
O5 C1 1_555 1_555
O6 C18 1_555 1_555
H13 O6 1_555 1_555
O7 C25 1_555 1_555
C25 C35 1_555 1_555
C26 C27 1_555 1_555
C27 H14 1_555 1_555
C28 C27 1_555 1_555
H15 C28 1_555 1_555
C29 C28 1_555 1_555
C30 C29 1_555 1_555
H16 C30 1_555 1_555
C31 C26 1_555 1_555
H17 C31 1_555 1_555
Cu2 O7 1_555 1_555
Cu3 O2 1_555 1_555
Cu6 O15 1_555 1_555
Cu8 O11 1_555 1_555
C32 C33 1_555 1_555
C33 H18 1_555 1_555
C34 C33 1_555 1_555
H19 C34 1_555 1_555
C35 C34 1_555 1_555
C36 C35 1_555 1_555
H20 C36 1_555 1_555
C37 C32 1_555 1_555
H21 C37 1_555 1_555
O8 C46 1_555 1_555
O10 Cu2 1_555 1_555
C38 C32 1_555 1_555
C39 C38 1_555 1_555
C40 C39 1_555 1_555
C41 C17 1_555 1_555
C42 C41 1_555 1_555
C43 C38 1_555 1_555
H22 C43 1_555 1_555
O11 C46 1_555 1_555
O13 Cu2 1_555 1_555
O14 Cu2 1_555 1_555
C44 C26 1_555 1_555
C45 C44 1_555 1_555
H23 C45 1_555 1_555
C46 C29 1_555 1_555
C47 C40 1_555 1_555
H24 C47 1_555 1_555
C48 C39 1_555 1_555
H25 C48 1_555 1_555
O15 C25 1_555 1_555
O17 Cu2 1_555 1_555
O18 C42 1_555 1_555
H26 O18 1_555 1_555
C6 C7 1_555 1_555
C12 C13 1_555 1_555
C18 C19 1_555 1_555
C20 C24 1_555 1_555
C21 C23 1_555 1_555
C30 C31 1_555 1_555
C36 C37 1_555 1_555
C40 C41 1_555 1_555
C42 C43 1_555 1_555
C44 C48 1_555 1_555
C45 C47 1_555 1_555
O14 H29 1_555 1_555
O14 H30 1_555 1_555
O4 Cu1 1_555 1_555
O4 H27 1_555 1_555
O4 H28 1_555 1_555
O14_2 Cu2_2 1_555 1_555
O14_2 H29_2 1_555 1_555
O14_2 H30_2 1_555 1_555
O1_2 C1_2 1_555 1_555
C1_2 C11_2 1_555 1_555
C2_2 C3_2 1_555 1_555
C3_2 H1_2 1_555 1_555
C4_2 C3_2 1_555 1_555
H2_2 C4_2 1_555 1_555
C5_2 C4_2 1_555 1_555
C6_2 C5_2 1_555 1_555
H3_2 C6_2 1_555 1_555
C7_2 C2_2 1_555 1_555
H4_2 C7_2 1_555 1_555
Cu1_2 O1_2 1_555 1_555
C8_2 C9_2 1_555 1_555
C9_2 H5_2 1_555 1_555
C10_2 C9_2 1_555 1_555
H6_2 C10_2 1_555 1_555
C11_2 C10_2 1_555 1_555
C12_2 C11_2 1_555 1_555
H7_2 C12_2 1_555 1_555
C13_2 C8_2 1_555 1_555
H8_2 C13_2 1_555 1_555
O2_2 C22_2 1_555 1_555
C14_2 C8_2 1_555 1_555
C15_2 C14_2 1_555 1_555
C16_2 C15_2 1_555 1_555
C17_2 C16_2 1_555 1_555
C18_2 C17_2 1_555 1_555
C19_2 C14_2 1_555 1_555
H9_2 C19_2 1_555 1_555
O3_2 C22_2 1_555 1_555
O4_2 Cu1_2 1_555 1_555
C20_2 C2_2 1_555 1_555
C21_2 C20_2 1_555 1_555
H10_2 C21_2 1_555 1_555
C22_2 C5_2 1_555 1_555
C23_2 C16_2 1_555 1_555
H11_2 C23_2 1_555 1_555
C24_2 C15_2 1_555 1_555
H12_2 C24_2 1_555 1_555
O5_2 C1_2 1_555 1_555
O6_2 C18_2 1_555 1_555
H13_2 O6_2 1_555 1_555
O7_2 C25_2 1_555 1_555
C25_2 C35_2 1_555 1_555
C26_2 C27_2 1_555 1_555
C27_2 H14_2 1_555 1_555
C28_2 C27_2 1_555 1_555
H15_2 C28_2 1_555 1_555
C29_2 C28_2 1_555 1_555
C30_2 C29_2 1_555 1_555
H16_2 C30_2 1_555 1_555
C31_2 C26_2 1_555 1_555
H17_2 C31_2 1_555 1_555
Cu4_2 O3_2 1_555 1_555
Cu5_2 O5_2 1_555 1_555
Cu7_2 O8_2 1_555 1_555
C32_2 C33_2 1_555 1_555
C33_2 H18_2 1_555 1_555
C34_2 C33_2 1_555 1_555
H19_2 C34_2 1_555 1_555
C35_2 C34_2 1_555 1_555
C36_2 C35_2 1_555 1_555
H20_2 C36_2 1_555 1_555
C37_2 C32_2 1_555 1_555
H21_2 C37_2 1_555 1_555
O8_2 C46_2 1_555 1_555
O9_2 Cu1_2 1_555 1_555
C38_2 C32_2 1_555 1_555
C39_2 C38_2 1_555 1_555
C40_2 C39_2 1_555 1_555
C41_2 C17_2 1_555 1_555
C42_2 C41_2 1_555 1_555
C43_2 C38_2 1_555 1_555
H22_2 C43_2 1_555 1_555
O11_2 C46_2 1_555 1_555
O12_2 Cu1_2 1_555 1_555
C44_2 C26_2 1_555 1_555
C45_2 C44_2 1_555 1_555
H23_2 C45_2 1_555 1_555
C46_2 C29_2 1_555 1_555
C47_2 C40_2 1_555 1_555
H24_2 C47_2 1_555 1_555
C48_2 C39_2 1_555 1_555
H25_2 C48_2 1_555 1_555
O15_2 C25_2 1_555 1_555
O16_2 Cu1_2 1_555 1_555
O18_2 C42_2 1_555 1_555
H26_2 O18_2 1_555 1_555
C6_2 C7_2 1_555 1_555
C12_2 C13_2 1_555 1_555
C18_2 C19_2 1_555 1_555
C20_2 C24_2 1_555 1_555
C21_2 C23_2 1_555 1_555
C30_2 C31_2 1_555 1_555
C36_2 C37_2 1_555 1_555
C40_2 C41_2 1_555 1_555
C42_2 C43_2 1_555 1_555
C44_2 C48_2 1_555 1_555
C45_2 C47_2 1_555 1_555
O4_2 H27_2 1_555 1_555
O4_2 H28_2 1_555 1_555
O1_3 C1_3 1_555 1_555
C1_3 C11_3 1_555 1_555
C2_3 C3_3 1_555 1_555
C3_3 H1_3 1_555 1_555
C4_3 C3_3 1_555 1_555
H2_3 C4_3 1_555 1_555
C5_3 C4_3 1_555 1_555
C6_3 C5_3 1_555 1_555
H3_3 C6_3 1_555 1_555
C7_3 C2_3 1_555 1_555
H4_3 C7_3 1_555 1_555
Cu8 O1_3 1_555 1_555
C8_3 C9_3 1_555 1_555
C9_3 H5_3 1_555 1_555
C10_3 C9_3 1_555 1_555
H6_3 C10_3 1_555 1_555
C11_3 C10_3 1_555 1_555
C12_3 C11_3 1_555 1_555
H7_3 C12_3 1_555 1_555
C13_3 C8_3 1_555 1_555
H8_3 C13_3 1_555 1_555
O2_3 C22_3 1_555 1_555
C14_3 C8_3 1_555 1_555
C15_3 C14_3 1_555 1_555
C16_3 C15_3 1_555 1_555
C17_3 C16_3 1_555 1_555
C18_3 C17_3 1_555 1_555
C19_3 C14_3 1_555 1_555
H9_3 C19_3 1_555 1_555
O13 C22_3 1_555 1_555
O4_3 Cu8 1_555 1_555
C20_3 C2_3 1_555 1_555
C21_3 C20_3 1_555 1_555
H10_3 C21_3 1_555 1_555
C22_3 C5_3 1_555 1_555
C23_3 C16_3 1_555 1_555
H11_3 C23_3 1_555 1_555
C24_3 C15_3 1_555 1_555
H12_3 C24_3 1_555 1_555
O5_3 C1_3 1_555 1_555
O6_3 C18_3 1_555 1_555
H13_3 O6_3 1_555 1_555
O7_3 C25_3 1_555 1_555
C25_3 C35_3 1_555 1_555
C26_3 C27_3 1_555 1_555
C27_3 H14_3 1_555 1_555
C28_3 C27_3 1_555 1_555
H15_3 C28_3 1_555 1_555
C29_3 C28_3 1_555 1_555
C30_3 C29_3 1_555 1_555
H16_3 C30_3 1_555 1_555
C31_3 C26_3 1_555 1_555
H17_3 C31_3 1_555 1_555
Cu4_2 O7_3 1_555 1_555
Cu6 O2_3 1_555 1_555
Cu5_2 O8_3 1_555 1_555
C32_3 C33_3 1_555 1_555
C33_3 H18_3 1_555 1_555
C34_3 C33_3 1_555 1_555
H19_3 C34_3 1_555 1_555
C35_3 C34_3 1_555 1_555
C36_3 C35_3 1_555 1_555
H20_3 C36_3 1_555 1_555
C37_3 C32_3 1_555 1_555
H21_3 C37_3 1_555 1_555
O8_3 C46_3 1_555 1_555
C38_3 C32_3 1_555 1_555
C39_3 C38_3 1_555 1_555
C40_3 C39_3 1_555 1_555
C41_3 C17_3 1_555 1_555
C42_3 C41_3 1_555 1_555
C43_3 C38_3 1_555 1_555
H22_3 C43_3 1_555 1_555
O12_2 C46_3 1_555 1_555
O14_3 Cu4_2 1_555 1_555
C44_3 C26_3 1_555 1_555
C45_3 C44_3 1_555 1_555
H23_3 C45_3 1_555 1_555
C46_3 C29_3 1_555 1_555
C47_3 C40_3 1_555 1_555
H24_3 C47_3 1_555 1_555
C48_3 C39_3 1_555 1_555
H25_3 C48_3 1_555 1_555
O15_3 C25_3 1_555 1_555
O18_3 C42_3 1_555 1_555
H26_3 O18_3 1_555 1_555
C6_3 C7_3 1_555 1_555
C12_3 C13_3 1_555 1_555
C18_3 C19_3 1_555 1_555
C20_3 C24_3 1_555 1_555
C21_3 C23_3 1_555 1_555
C30_3 C31_3 1_555 1_555
C36_3 C37_3 1_555 1_555
C40_3 C41_3 1_555 1_555
C42_3 C43_3 1_555 1_555
C44_3 C48_3 1_555 1_555
C45_3 C47_3 1_555 1_555
O4_3 H27_3 1_555 1_555
O4_3 H28_3 1_555 1_555
O14_3 H29_3 1_555 1_555
O14_3 H30_3 1_555 1_555
O4_4 Cu8_2 1_555 1_555
O9_4 Cu8_2 1_555 1_555
O16_4 Cu8_2 1_555 1_555
O4_4 H27_4 1_555 1_555
O4_4 H28_4 1_555 1_555
H13_4 O6_4 1_555 1_555
O7_4 C25_4 1_555 1_555
C25_4 C35_4 1_555 1_555
C26_4 C27_4 1_555 1_555
C27_4 H14_4 1_555 1_555
C28_4 C27_4 1_555 1_555
H15_4 C28_4 1_555 1_555
C29_4 C28_4 1_555 1_555
C30_4 C29_4 1_555 1_555
H16_4 C30_4 1_555 1_555
C31_4 C26_4 1_555 1_555
H17_4 C31_4 1_555 1_555
Cu3 O15_4 1_555 1_555
C32_4 C33_4 1_555 1_555
C33_4 H18_4 1_555 1_555
C34_4 C33_4 1_555 1_555
H19_4 C34_4 1_555 1_555
C35_4 C34_4 1_555 1_555
C36_4 C35_4 1_555 1_555
H20_4 C36_4 1_555 1_555
C37_4 C32_4 1_555 1_555
H21_4 C37_4 1_555 1_555
O8_4 C46_4 1_555 1_555
C38_4 C32_4 1_555 1_555
C39_4 C38_4 1_555 1_555
C40_4 C39_4 1_555 1_555
C42_4 C41_4 1_555 1_555
C43_4 C38_4 1_555 1_555
H22_4 C43_4 1_555 1_555
O12 C46_4 1_555 1_555
C44_4 C26_4 1_555 1_555
C45_4 C44_4 1_555 1_555
H23_4 C45_4 1_555 1_555
C46_4 C29_4 1_555 1_555
C47_4 C40_4 1_555 1_555
H24_4 C47_4 1_555 1_555
C48_4 C39_4 1_555 1_555
H25_4 C48_4 1_555 1_555
O15_4 C25_4 1_555 1_555
C30_4 C31_4 1_555 1_555
C36_4 C37_4 1_555 1_555
C40_4 C41_4 1_555 1_555
C42_4 C43_4 1_555 1_555
C44_4 C48_4 1_555 1_555
C45_4 C47_4 1_555 1_555
O1_4 C1_4 1_555 1_555
C1_4 C11_4 1_555 1_555
C2_4 C3_4 1_555 1_555
C3_4 H1_4 1_555 1_555
C4_4 C3_4 1_555 1_555
H2_4 C4_4 1_555 1_555
C5_4 C4_4 1_555 1_555
C6_4 C5_4 1_555 1_555
H3_4 C6_4 1_555 1_555
C7_4 C2_4 1_555 1_555
H4_4 C7_4 1_555 1_555
C8_4 C9_4 1_555 1_555
C9_4 H5_4 1_555 1_555
C10_4 C9_4 1_555 1_555
H6_4 C10_4 1_555 1_555
C11_4 C10_4 1_555 1_555
C12_4 C11_4 1_555 1_555
H7_4 C12_4 1_555 1_555
C13_4 C8_4 1_555 1_555
H8_4 C13_4 1_555 1_555
O2_4 C22_4 1_555 1_555
C14_4 C8_4 1_555 1_555
C15_4 C14_4 1_555 1_555
C16_4 C15_4 1_555 1_555
C17_4 C16_4 1_555 1_555
C18_4 C17_4 1_555 1_555
C19_4 C14_4 1_555 1_555
H9_4 C19_4 1_555 1_555
O13_2 C22_4 1_555 1_555
C20_4 C2_4 1_555 1_555
C21_4 C20_4 1_555 1_555
H10_4 C21_4 1_555 1_555
C22_4 C5_4 1_555 1_555
C23_4 C16_4 1_555 1_555
H11_4 C23_4 1_555 1_555
C24_4 C15_4 1_555 1_555
H12_4 C24_4 1_555 1_555
O5_4 C1_4 1_555 1_555
Cu7_2 O5_4 1_555 1_555
H26_4 O18_4 1_555 1_555
C6_4 C7_4 1_555 1_555
C12_4 C13_4 1_555 1_555
C18_4 C19_4 1_555 1_555
C20_4 C24_4 1_555 1_555
C21_4 C23_4 1_555 1_555
O10_4 Cu4 1_555 1_555
O14_4 Cu4 1_555 1_555
O17_4 Cu4 1_555 1_555
O14_4 H29_4 1_555 1_555
O14_4 H30_4 1_555 1_555
O1_5 C1_5 1_555 1_555
C1_5 C11_5 1_555 1_555
C2_5 C3_5 1_555 1_555
C3_5 H1_5 1_555 1_555
C4_5 C3_5 1_555 1_555
H2_5 C4_5 1_555 1_555
C5_5 C4_5 1_555 1_555
C6_5 C5_5 1_555 1_555
H3_5 C6_5 1_555 1_555
C7_5 C2_5 1_555 1_555
H4_5 C7_5 1_555 1_555
Cu5_2 O1_5 1_555 1_555
C8_5 C9_5 1_555 1_555
C9_5 H5_5 1_555 1_555
C10_5 C9_5 1_555 1_555
H6_5 C10_5 1_555 1_555
C11_5 C10_5 1_555 1_555
C12_5 C11_5 1_555 1_555
H7_5 C12_5 1_555 1_555
C13_5 C8_5 1_555 1_555
H8_5 C13_5 1_555 1_555
O10_3 C22_5 1_555 1_555
C14_5 C8_5 1_555 1_555
C15_5 C14_5 1_555 1_555
C16_5 C15_5 1_555 1_555
C17_5 C16_5 1_555 1_555
C18_5 C17_5 1_555 1_555
C19_5 C14_5 1_555 1_555
H9_5 C19_5 1_555 1_555
O3_3 C22_5 1_555 1_555
O4_5 Cu5_2 1_555 1_555
C20_5 C2_5 1_555 1_555
C21_5 C20_5 1_555 1_555
H10_5 C21_5 1_555 1_555
C22_5 C5_5 1_555 1_555
C23_5 C16_5 1_555 1_555
H11_5 C23_5 1_555 1_555
C24_5 C15_5 1_555 1_555
H12_5 C24_5 1_555 1_555
O16_2 C1_5 1_555 1_555
O6_5 C18_5 1_555 1_555
H13_5 O6_5 1_555 1_555
O7_5 C25_5 1_555 1_555
C25_5 C35_5 1_555 1_555
C26_5 C27_5 1_555 1_555
C27_5 H14_5 1_555 1_555
C28_5 C27_5 1_555 1_555
H15_5 C28_5 1_555 1_555
C29_5 C28_5 1_555 1_555
C30_5 C29_5 1_555 1_555
H16_5 C30_5 1_555 1_555
C31_5 C26_5 1_555 1_555
H17_5 C31_5 1_555 1_555
Cu3_2 O3_3 1_555 1_555
C32_5 C33_5 1_555 1_555
C33_5 H18_5 1_555 1_555
C34_5 C33_5 1_555 1_555
H19_5 C34_5 1_555 1_555
C35_5 C34_5 1_555 1_555
C36_5 C35_5 1_555 1_555
H20_5 C36_5 1_555 1_555
C37_5 C32_5 1_555 1_555
H21_5 C37_5 1_555 1_555
O9_4 C46_5 1_555 1_555
C38_5 C32_5 1_555 1_555
C39_5 C38_5 1_555 1_555
C40_5 C39_5 1_555 1_555
C41_5 C17_5 1_555 1_555
C42_5 C41_5 1_555 1_555
C43_5 C38_5 1_555 1_555
H22_5 C43_5 1_555 1_555
O11_3 C46_5 1_555 1_555
O12_3 Cu5_2 1_555 1_555
C44_5 C26_5 1_555 1_555
C45_5 C44_5 1_555 1_555
H23_5 C45_5 1_555 1_555
C46_5 C29_5 1_555 1_555
C47_5 C40_5 1_555 1_555
H24_5 C47_5 1_555 1_555
C48_5 C39_5 1_555 1_555
H25_5 C48_5 1_555 1_555
O17_2 C25_5 1_555 1_555
O18_5 C42_5 1_555 1_555
H26_5 O18_5 1_555 1_555
C6_5 C7_5 1_555 1_555
C12_5 C13_5 1_555 1_555
C18_5 C19_5 1_555 1_555
C20_5 C24_5 1_555 1_555
C21_5 C23_5 1_555 1_555
C30_5 C31_5 1_555 1_555
C36_5 C37_5 1_555 1_555
C40_5 C41_5 1_555 1_555
C42_5 C43_5 1_555 1_555
C44_5 C48_5 1_555 1_555
C45_5 C47_5 1_555 1_555
O4_5 H27_5 1_555 1_555
O4_5 H28_5 1_555 1_555
O14_5 Cu6_2 1_555 1_555
O14_5 H29_5 1_555 1_555
O14_5 H30_5 1_555 1_555
O4_6 Cu5 1_555 1_555
O4_6 H27_6 1_555 1_555
O4_6 H28_6 1_555 1_555
O1_6 C1_6 1_555 1_555
C1_6 C11_6 1_555 1_555
C2_6 C3_6 1_555 1_555
C3_6 H1_6 1_555 1_555
C4_6 C3_6 1_555 1_555
H2_6 C4_6 1_555 1_555
C5_6 C4_6 1_555 1_555
C6_6 C5_6 1_555 1_555
H3_6 C6_6 1_555 1_555
C7_6 C2_6 1_555 1_555
H4_6 C7_6 1_555 1_555
C8_6 C9_6 1_555 1_555
C9_6 H5_6 1_555 1_555
C10_6 C9_6 1_555 1_555
H6_6 C10_6 1_555 1_555
C11_6 C10_6 1_555 1_555
C12_6 C11_6 1_555 1_555
H7_6 C12_6 1_555 1_555
C13_6 C8_6 1_555 1_555
H8_6 C13_6 1_555 1_555
O10_4 C22_6 1_555 1_555
C14_6 C8_6 1_555 1_555
C15_6 C14_6 1_555 1_555
C16_6 C15_6 1_555 1_555
C17_6 C16_6 1_555 1_555
C18_6 C17_6 1_555 1_555
C19_6 C14_6 1_555 1_555
H9_6 C19_6 1_555 1_555
O3_4 C22_6 1_555 1_555
C20_6 C2_6 1_555 1_555
C21_6 C20_6 1_555 1_555
H10_6 C21_6 1_555 1_555
C22_6 C5_6 1_555 1_555
C23_6 C16_6 1_555 1_555
H11_6 C23_6 1_555 1_555
C24_6 C15_6 1_555 1_555
H12_6 C24_6 1_555 1_555
O16 C1_6 1_555 1_555
O6_6 C18_6 1_555 1_555
H13_6 O6_6 1_555 1_555
O7_6 C25_6 1_555 1_555
C25_6 C35_6 1_555 1_555
C26_6 C27_6 1_555 1_555
C27_6 H14_6 1_555 1_555
C28_6 C27_6 1_555 1_555
H15_6 C28_6 1_555 1_555
C29_6 C28_6 1_555 1_555
C30_6 C29_6 1_555 1_555
H16_6 C30_6 1_555 1_555
C31_6 C26_6 1_555 1_555
H17_6 C31_6 1_555 1_555
Cu6 O7_6 1_555 1_555
Cu7 O11_4 1_555 1_555
C32_6 C33_6 1_555 1_555
C33_6 H18_6 1_555 1_555
C34_6 C33_6 1_555 1_555
H19_6 C34_6 1_555 1_555
C35_6 C34_6 1_555 1_555
C36_6 C35_6 1_555 1_555
H20_6 C36_6 1_555 1_555
C37_6 C32_6 1_555 1_555
H21_6 C37_6 1_555 1_555
O9_3 C46_6 1_555 1_555
C38_6 C32_6 1_555 1_555
C39_6 C38_6 1_555 1_555
C40_6 C39_6 1_555 1_555
C41_6 C17_6 1_555 1_555
C42_6 C41_6 1_555 1_555
C43_6 C38_6 1_555 1_555
H22_6 C43_6 1_555 1_555
O11_4 C46_6 1_555 1_555
O13_4 Cu6 1_555 1_555
O14_6 Cu6 1_555 1_555
C44_6 C26_6 1_555 1_555
C45_6 C44_6 1_555 1_555
H23_6 C45_6 1_555 1_555
C46_6 C29_6 1_555 1_555
C47_6 C40_6 1_555 1_555
H24_6 C47_6 1_555 1_555
C48_6 C39_6 1_555 1_555
H25_6 C48_6 1_555 1_555
O17 C25_6 1_555 1_555
O18_6 C42_6 1_555 1_555
H26_6 O18_6 1_555 1_555
C6_6 C7_6 1_555 1_555
C12_6 C13_6 1_555 1_555
C18_6 C19_6 1_555 1_555
C20_6 C24_6 1_555 1_555
C21_6 C23_6 1_555 1_555
C30_6 C31_6 1_555 1_555
C36_6 C37_6 1_555 1_555
C40_6 C41_6 1_555 1_555
C42_6 C43_6 1_555 1_555
C44_6 C48_6 1_555 1_555
C45_6 C47_6 1_555 1_555
O14_6 H29_6 1_555 1_555
O14_6 H30_6 1_555 1_555
O14_7 Cu3 1_555 1_555
O14_7 H29_7 1_555 1_555
O14_7 H30_7 1_555 1_555
H13_7 O6_7 1_555 1_555
O7_7 C25_7 1_555 1_555
C25_7 C35_7 1_555 1_555
C26_7 C27_7 1_555 1_555
C27_7 H14_7 1_555 1_555
C28_7 C27_7 1_555 1_555
H15_7 C28_7 1_555 1_555
C29_7 C28_7 1_555 1_555
C30_7 C29_7 1_555 1_555
H16_7 C30_7 1_555 1_555
C31_7 C26_7 1_555 1_555
H17_7 C31_7 1_555 1_555
C32_7 C33_7 1_555 1_555
C33_7 H18_7 1_555 1_555
C34_7 C33_7 1_555 1_555
H19_7 C34_7 1_555 1_555
C35_7 C34_7 1_555 1_555
C36_7 C35_7 1_555 1_555
H20_7 C36_7 1_555 1_555
C37_7 C32_7 1_555 1_555
H21_7 C37_7 1_555 1_555
O9 C46_7 1_555 1_555
C38_7 C32_7 1_555 1_555
C39_7 C38_7 1_555 1_555
C40_7 C39_7 1_555 1_555
C42_7 C41_7 1_555 1_555
C43_7 C38_7 1_555 1_555
H22_7 C43_7 1_555 1_555
O12_4 C46_7 1_555 1_555
C44_7 C26_7 1_555 1_555
C45_7 C44_7 1_555 1_555
H23_7 C45_7 1_555 1_555
C46_7 C29_7 1_555 1_555
C47_7 C40_7 1_555 1_555
H24_7 C47_7 1_555 1_555
C48_7 C39_7 1_555 1_555
H25_7 C48_7 1_555 1_555
O17_4 C25_7 1_555 1_555
C30_7 C31_7 1_555 1_555
C36_7 C37_7 1_555 1_555
C40_7 C41_7 1_555 1_555
C42_7 C43_7 1_555 1_555
C44_7 C48_7 1_555 1_555
C45_7 C47_7 1_555 1_555
O1_7 C1_7 1_555 1_555
C1_7 C11_7 1_555 1_555
C2_7 C3_7 1_555 1_555
C3_7 H1_7 1_555 1_555
C4_7 C3_7 1_555 1_555
H2_7 C4_7 1_555 1_555
C5_7 C4_7 1_555 1_555
C6_7 C5_7 1_555 1_555
H3_7 C6_7 1_555 1_555
C7_7 C2_7 1_555 1_555
H4_7 C7_7 1_555 1_555
C8_7 C9_7 1_555 1_555
C9_7 H5_7 1_555 1_555
C10_7 C9_7 1_555 1_555
H6_7 C10_7 1_555 1_555
C11_7 C10_7 1_555 1_555
C12_7 C11_7 1_555 1_555
H7_7 C12_7 1_555 1_555
C13_7 C8_7 1_555 1_555
H8_7 C13_7 1_555 1_555
O10_2 C22_7 1_555 1_555
C14_7 C8_7 1_555 1_555
C15_7 C14_7 1_555 1_555
C16_7 C15_7 1_555 1_555
C17_7 C16_7 1_555 1_555
C18_7 C17_7 1_555 1_555
C19_7 C14_7 1_555 1_555
H9_7 C19_7 1_555 1_555
O13_3 C22_7 1_555 1_555
C20_7 C2_7 1_555 1_555
C21_7 C20_7 1_555 1_555
H10_7 C21_7 1_555 1_555
C22_7 C5_7 1_555 1_555
C23_7 C16_7 1_555 1_555
H11_7 C23_7 1_555 1_555
C24_7 C15_7 1_555 1_555
H12_7 C24_7 1_555 1_555
O16_4 C1_7 1_555 1_555
H26_7 O18_7 1_555 1_555
C6_7 C7_7 1_555 1_555
C12_7 C13_7 1_555 1_555
C18_7 C19_7 1_555 1_555
C20_7 C24_7 1_555 1_555
C21_7 C23_7 1_555 1_555
O4_7 Cu7_2 1_555 1_555
O4_7 H27_7 1_555 1_555
O4_7 H28_7 1_555 1_555
O1_8 C1_8 1_555 1_555
C1_8 C11_8 1_555 1_555
C2_8 C3_8 1_555 1_555
C3_8 H1_8 1_555 1_555
C4_8 C3_8 1_555 1_555
H2_8 C4_8 1_555 1_555
C5_8 C4_8 1_555 1_555
C6_8 C5_8 1_555 1_555
H3_8 C6_8 1_555 1_555
C7_8 C2_8 1_555 1_555
H4_8 C7_8 1_555 1_555
Cu7 O1_8 1_555 1_555
C8_8 C9_8 1_555 1_555
C9_8 H5_8 1_555 1_555
C10_8 C9_8 1_555 1_555
H6_8 C10_8 1_555 1_555
C11_8 C10_8 1_555 1_555
C12_8 C11_8 1_555 1_555
H7_8 C12_8 1_555 1_555
C13_8 C8_8 1_555 1_555
H8_8 C13_8 1_555 1_555
O10 C22_8 1_555 1_555
C14_8 C8_8 1_555 1_555
C15_8 C14_8 1_555 1_555
C16_8 C15_8 1_555 1_555
C17_8 C16_8 1_555 1_555
C18_8 C17_8 1_555 1_555
C19_8 C14_8 1_555 1_555
H9_8 C19_8 1_555 1_555
O13_4 C22_8 1_555 1_555
O4_8 Cu7 1_555 1_555
C20_8 C2_8 1_555 1_555
C21_8 C20_8 1_555 1_555
H10_8 C21_8 1_555 1_555
C22_8 C5_8 1_555 1_555
C23_8 C16_8 1_555 1_555
H11_8 C23_8 1_555 1_555
C24_8 C15_8 1_555 1_555
H12_8 C24_8 1_555 1_555
O16_3 C1_8 1_555 1_555
O6_8 C18_8 1_555 1_555
H13_8 O6_8 1_555 1_555
O7_8 C25_8 1_555 1_555
C25_8 C35_8 1_555 1_555
C26_8 C27_8 1_555 1_555
C27_8 H14_8 1_555 1_555
C28_8 C27_8 1_555 1_555
H15_8 C28_8 1_555 1_555
C29_8 C28_8 1_555 1_555
C30_8 C29_8 1_555 1_555
H16_8 C30_8 1_555 1_555
C31_8 C26_8 1_555 1_555
H17_8 C31_8 1_555 1_555
Cu3_2 O7_8 1_555 1_555
C32_8 C33_8 1_555 1_555
C33_8 H18_8 1_555 1_555
C34_8 C33_8 1_555 1_555
H19_8 C34_8 1_555 1_555
C35_8 C34_8 1_555 1_555
C36_8 C35_8 1_555 1_555
H20_8 C36_8 1_555 1_555
C37_8 C32_8 1_555 1_555
H21_8 C37_8 1_555 1_555
O9_2 C46_8 1_555 1_555
C38_8 C32_8 1_555 1_555
C39_8 C38_8 1_555 1_555
C40_8 C39_8 1_555 1_555
C41_8 C17_8 1_555 1_555
C42_8 C41_8 1_555 1_555
C43_8 C38_8 1_555 1_555
H22_8 C43_8 1_555 1_555
O12_3 C46_8 1_555 1_555
O14_8 Cu3_2 1_555 1_555
C44_8 C26_8 1_555 1_555
C45_8 C44_8 1_555 1_555
H23_8 C45_8 1_555 1_555
C46_8 C29_8 1_555 1_555
C47_8 C40_8 1_555 1_555
H24_8 C47_8 1_555 1_555
C48_8 C39_8 1_555 1_555
H25_8 C48_8 1_555 1_555
O17_3 C25_8 1_555 1_555
O18_8 C42_8 1_555 1_555
H26_8 O18_8 1_555 1_555
C6_8 C7_8 1_555 1_555
C12_8 C13_8 1_555 1_555
C18_8 C19_8 1_555 1_555
C20_8 C24_8 1_555 1_555
C21_8 C23_8 1_555 1_555
C30_8 C31_8 1_555 1_555
C36_8 C37_8 1_555 1_555
C40_8 C41_8 1_555 1_555
C42_8 C43_8 1_555 1_555
C44_8 C48_8 1_555 1_555
C45_8 C47_8 1_555 1_555
O4_8 H27_8 1_555 1_555
O4_8 H28_8 1_555 1_555
O14_8 H29_8 1_555 1_555
O14_8 H30_8 1_555 1_555

#END
