
###############################################################################
#
# This file contains modified crystal structure data generated from the
# MOF subset of the Cambridge Structural Database (CSD) v543 
# hosted by the Cambridge Crystallographic Data Centre (CCDC).
#
# This work is licensed under the Creative Commons
# Attribution-NonCommercial-ShareAlike 4.0 International License.
# To view a copy of this license, visit
# http://creativecommons.org/licenses/by-nc-sa/4.0/
# or send a letter to
# Creative Commons, PO Box 1866, Mountain View, CA 94042, USA.
#
# CIF created using the CSD Python API on 29 September 2022
# The structure has been converted into the P1 space group
# The structure has a 3D framework
# The original CSD entry XAHPED is in the tetragonal crystal system
# The original CSD entry XAHPED is in a Sohncke space group
# The framework has been calculated to contain at least 10.0% void space
# The void calculation uses a probe of radius 1.32A, grid spacing 0.4
# H atom positions have been added when not included in the experimental data
#
###############################################################################

data_XAHPED
_chemical_formula_moiety         '(C288 H240 Cu16 O84)n'
_symmetry_cell_setting           triclinic
_symmetry_space_group_name_H-M   'P 1'
_symmetry_Int_Tables_number      1
_space_group_name_Hall           'P 1'
loop_
_symmetry_equiv_pos_site_id
_symmetry_equiv_pos_as_xyz
1 x,y,z
_cell_length_a                   21.4169(3)
_cell_length_b                   21.4169(3)
_cell_length_c                   57.6768(11)
_cell_angle_alpha                90
_cell_angle_beta                 90
_cell_angle_gamma                90
_cell_volume                     26455.4
loop_
_atom_site_label
_atom_site_type_symbol
_atom_site_fract_x
_atom_site_fract_y
_atom_site_fract_z
Cu1 Cu 0.46423(2) 0.04952(2) 0.108790(9)
O1 O 0.41362(14) 0.00273(15) 0.08635(5)
O6 O 0.40607(17) 0.13210(14) 0.10823(6)
O9 O 0.51917(16) 0.07657(13) 0.08376(5)
O12 O 0.42146(14) 0.00711(15) 0.13436(5)
O15 O 0.52460(16) 0.08257(13) 0.13142(5)
H27 H 0.363149 0.121025 0.113279
H28 H 0.423667 0.163924 0.11891
C1 C 0.27903(13) 0.75664(19) 0.00976(5)
C2 C 0.28423(15) 0.82107(19) 0.00760(5)
C3 C 0.32067(17) 0.85460(12) 0.02318(6)
H1 H 0.3242 0.8982 0.0217
C4 C 0.35190(13) 0.82370(17) 0.04092(5)
C5 C 0.34670(14) 0.75927(17) 0.04308(4)
C6 C 0.31026(16) 0.72574(12) 0.02750(6)
C7 C 0.3071(2) 0.6615(2) 0.03014(8)
H2 H 0.2842 0.6388 0.0191
C8 C 0.3349(2) 0.6286(2) 0.04770(8)
H3 H 0.3305 0.5851 0.0490
C9 C 0.3707(2) 0.6637(2) 0.06373(7)
C10 C 0.3777(2) 0.7275(2) 0.06123(7)
H4 H 0.4032 0.7498 0.0716
C11 C 0.3923(2) 0.8617(2) 0.05642(7)
H5 H 0.4267 0.8413 0.0632
C12 C 0.3851(2) 0.9195(2) 0.06154(7)
H6 H 0.3521 0.9427 0.0552
C13 C 0.4319(3) 0.9502(2) 0.07842(8)
C14 C 0.4030(2) 0.6322(2) 0.08330(8)
H7 H 0.4313 0.6573 0.0916
C15 C 0.3978(2) 0.5753(3) 0.09054(8)
H8 H 0.3690 0.5494 0.0829
C16 C 0.4328(2) 0.5487(2) 0.10945(8)
H9 H 0.2250 0.9291 0.0046
O2 O 0.48083(16) 0.92343(13) 0.08376(5)
O3 O 0.42146(14) 0.49289(15) 0.11564(5)
O4 O 0.47540(16) 0.58257(13) 0.11858(5)
Cu3 Cu 0.53577(2) 0.95048(2) 0.108790(9)
Cu4 Cu 0.46423(2) 0.45048(2) 0.141210(9)
Cu5 Cu 0.53577(2) 0.54952(2) 0.141210(9)
C35 C 0.0837(3) 0.7573(5) 0.01036(14)
H23 H 0.0616 0.7177 0.0126
C36 C 0.0687(4) 0.8005(6) 0.0290(2)
H24 H 0.1070 0.8144 0.0364
H25 H 0.0427 0.7796 0.0404
H26 H 0.0466 0.8362 0.0228
O17 O 0.15101(19) 0.74712(19) 0.01068(6)
C17 C 0.2427(5) 0.9163(3) 0.98964(14)
H10 H 0.2823 0.9384 0.9874
C18 C 0.1995(6) 0.9313(4) 0.9710(2)
H11 H 0.1856 0.8930 0.9636
H12 H 0.2204 0.9573 0.9596
H13 H 0.1638 0.9534 0.9772
O5 O 0.25288(19) 0.84899(19) 0.98932(6)
Cu6 Cu 0.54952(2) 0.53577(2) 0.858790(9)
Cu7 Cu 0.45048(2) 0.46423(2) 0.858790(9)
Cu8 Cu 0.04952(2) 0.46423(2) 0.891210(9)
C19 C 0.24336(19) 0.72097(13) 0.99024(5)
C20 C 0.17893(19) 0.71577(15) 0.99240(5)
C21 C 0.14540(12) 0.67933(17) 0.97682(6)
H14 H 0.1018 0.6758 0.9783
C22 C 0.17630(17) 0.64810(13) 0.95908(5)
C23 C 0.24073(17) 0.65330(14) 0.95692(4)
C24 C 0.27426(12) 0.68974(16) 0.97250(6)
C25 C 0.3385(2) 0.6929(2) 0.96986(8)
H15 H 0.3612 0.7158 0.9809
C26 C 0.3714(2) 0.6651(2) 0.95230(8)
H16 H 0.4149 0.6695 0.9510
C27 C 0.3363(2) 0.6293(2) 0.93627(7)
C28 C 0.2725(2) 0.6223(2) 0.93877(7)
H17 H 0.2502 0.5968 0.9284
C29 C 0.1383(2) 0.6077(2) 0.94358(7)
H18 H 0.1587 0.5733 0.9368
C30 C 0.0805(2) 0.6149(2) 0.93846(7)
H19 H 0.0573 0.6479 0.9448
C31 C 0.0498(2) 0.5681(3) 0.92158(8)
C32 C 0.3678(2) 0.5970(2) 0.91670(8)
H20 H 0.3427 0.5687 0.9084
C33 C 0.4247(3) 0.6022(2) 0.90946(8)
H21 H 0.4506 0.6310 0.9171
C34 C 0.4513(2) 0.5672(2) 0.89055(8)
H22 H 0.0709 0.7750 0.9954
O8 O 0.07657(13) 0.51917(16) 0.91624(5)
O11 O 0.50711(15) 0.57854(14) 0.88436(5)
O14 O 0.41743(13) 0.52460(16) 0.88142(5)
Cu2 Cu 0.95048(2) 0.53577(2) 0.891210(9)
O7 O 0.99727(15) 0.58638(14) 0.91365(5)
O10 O 0.92343(13) 0.48083(16) 0.91624(5)
O13 O 0.99289(15) 0.57854(14) 0.86564(5)
O16 O 0.91743(13) 0.47540(16) 0.86858(5)
O18 O 0.86790(14) 0.59393(17) 0.89177(6)
H29 H 0.878975 0.636851 0.886721
H30 H 0.836076 0.576333 0.88109
O3_2 O 0.07854(14) 0.00711(15) 0.61564(5)
Cu4_2 Cu 0.03577(2) 0.04952(2) 0.641210(9)
Cu7_2 Cu 0.04952(2) 0.03577(2) 0.358790(9)
Cu8_2 Cu 0.45048(2) 0.03577(2) 0.391210(9)
O10_2 O 0.57657(13) 0.01917(16) 0.41624(5)
O16_2 O 0.58257(13) 0.02460(16) 0.36858(5)
Cu1_2 Cu 0.03577(2) 0.45048(2) 0.608790(9)
C1_2 C 0.22097(13) 0.74336(19) 0.50976(5)
C2_2 C 0.21577(15) 0.67893(19) 0.50760(5)
C3_2 C 0.17933(17) 0.64540(12) 0.52318(6)
H1_2 H 0.1758 0.6018 0.5217
C4_2 C 0.14810(13) 0.67630(17) 0.54092(5)
C5_2 C 0.15330(14) 0.74073(17) 0.54308(4)
C6_2 C 0.18974(16) 0.77426(12) 0.52750(6)
C7_2 C 0.1929(2) 0.8385(2) 0.53014(8)
H2_2 H 0.2158 0.8612 0.5191
C8_2 C 0.1651(2) 0.8714(2) 0.54770(8)
H3_2 H 0.1695 0.9149 0.5490
C9_2 C 0.1293(2) 0.8363(2) 0.56373(7)
C10_2 C 0.1223(2) 0.7725(2) 0.56123(7)
H4_2 H 0.0968 0.7502 0.5716
C11_2 C 0.1077(2) 0.6383(2) 0.55642(7)
H5_2 H 0.0733 0.6587 0.5632
C12_2 C 0.1149(2) 0.5805(2) 0.56154(7)
H6_2 H 0.1479 0.5573 0.5552
C13_2 C 0.0681(3) 0.5498(2) 0.57842(8)
C14_2 C 0.0970(2) 0.8678(2) 0.58330(8)
H7_2 H 0.0687 0.8427 0.5916
C15_2 C 0.1022(2) 0.9247(3) 0.59054(8)
H8_2 H 0.1310 0.9506 0.5829
C16_2 C 0.0672(2) 0.9513(2) 0.60945(8)
C17_2 C 0.2573(5) 0.5837(3) 0.48964(14)
H9_2 H 0.2750 0.5709 0.5046
H10_2 H 0.2177 0.5616 0.4874
C18_2 C 0.3005(6) 0.5687(4) 0.4710(2)
H11_2 H 0.3144 0.6070 0.4636
H12_2 H 0.2796 0.5427 0.4596
H13_2 H 0.3362 0.5466 0.4772
O1_2 O 0.08638(14) 0.49727(15) 0.58635(5)
O2_2 O 0.01917(16) 0.57657(13) 0.58376(5)
O4_2 O 0.02460(16) 0.91743(13) 0.61858(5)
O5_2 O 0.24712(19) 0.65101(19) 0.48932(6)
O6_2 O 0.09393(17) 0.36790(14) 0.60823(6)
Cu2_2 Cu 0.54952(2) 0.96423(2) 0.391210(9)
C19_2 C 0.25664(19) 0.77903(13) 0.49024(5)
C20_2 C 0.32107(19) 0.78423(15) 0.49240(5)
C21_2 C 0.35460(12) 0.82067(17) 0.47682(6)
H14_2 H 0.3982 0.8242 0.4783
C22_2 C 0.32370(17) 0.85190(13) 0.45908(5)
C23_2 C 0.25927(17) 0.84670(14) 0.45692(4)
C24_2 C 0.22574(12) 0.81026(16) 0.47250(6)
C25_2 C 0.1615(2) 0.8071(2) 0.46986(8)
H15_2 H 0.1388 0.7842 0.4809
C26_2 C 0.1286(2) 0.8349(2) 0.45230(8)
H16_2 H 0.0851 0.8305 0.4510
C27_2 C 0.1637(2) 0.8707(2) 0.43627(7)
C28_2 C 0.2275(2) 0.8777(2) 0.43877(7)
H17_2 H 0.2498 0.9032 0.4284
C29_2 C 0.3617(2) 0.8923(2) 0.44358(7)
H18_2 H 0.3413 0.9267 0.4368
C30_2 C 0.4195(2) 0.8851(2) 0.43846(7)
H19_2 H 0.4427 0.8521 0.4448
C31_2 C 0.4502(2) 0.9319(3) 0.42158(8)
C32_2 C 0.1322(2) 0.9030(2) 0.41670(8)
H20_2 H 0.1573 0.9313 0.4084
C33_2 C 0.0753(3) 0.8978(2) 0.40946(8)
H21_2 H 0.0494 0.8690 0.4171
C34_2 C 0.0487(2) 0.9328(2) 0.39055(8)
C35_2 C 0.4163(3) 0.7427(5) 0.51036(14)
H22_2 H 0.4291 0.7250 0.4954
H23_2 H 0.4384 0.7823 0.5126
C36_2 C 0.4313(4) 0.6995(6) 0.5290(2)
H24_2 H 0.3930 0.6856 0.5364
H25_2 H 0.4573 0.7204 0.5404
H26_2 H 0.4534 0.6638 0.5228
O7_2 O 0.50273(15) 0.91362(14) 0.41365(5)
O8_2 O 0.42343(13) 0.98083(16) 0.41624(5)
O12_2 O 0.07854(14) 0.49289(15) 0.63436(5)
O13_2 O 0.50711(15) 0.92146(14) 0.36564(5)
O14_2 O 0.08257(13) 0.97540(16) 0.38142(5)
O17_2 O 0.34899(19) 0.75288(19) 0.51068(6)
O18_2 O 0.63210(14) 0.90607(17) 0.39177(6)
H27_2 H 0.136851 0.378975 0.613279
H28_2 H 0.076333 0.336076 0.61891
H29_2 H 0.621025 0.863149 0.386721
H30_2 H 0.663924 0.923667 0.38109
Cu3_2 Cu 0.96423(2) 0.54952(2) 0.608790(9)
Cu5_2 Cu 0.96423(2) 0.95048(2) 0.641210(9)
Cu6_2 Cu 0.95048(2) 0.96423(2) 0.358790(9)
O9_2 O 0.98083(16) 0.42343(13) 0.58376(5)
O11_2 O 0.99289(15) 0.92146(14) 0.38436(5)
O15_2 O 0.97540(16) 0.41743(13) 0.63142(5)
C1_3 C 0.24336(19) 0.77903(13) 0.25976(5)
C2_3 C 0.17893(19) 0.78423(15) 0.25760(5)
C3_3 C 0.14540(12) 0.82067(17) 0.27318(6)
H1_3 H 0.1018 0.8242 0.2717
C4_3 C 0.17630(17) 0.85190(13) 0.29092(5)
C5_3 C 0.24073(17) 0.84670(14) 0.29308(4)
C6_3 C 0.27426(12) 0.81026(16) 0.27750(6)
C7_3 C 0.3385(2) 0.8071(2) 0.28014(8)
H2_3 H 0.3612 0.7842 0.2691
C8_3 C 0.3714(2) 0.8349(2) 0.29770(8)
H3_3 H 0.4149 0.8305 0.2990
C9_3 C 0.3363(2) 0.8707(2) 0.31373(7)
C10_3 C 0.2725(2) 0.8777(2) 0.31123(7)
H4_3 H 0.2502 0.9032 0.3216
C11_3 C 0.1383(2) 0.8923(2) 0.30642(7)
H5_3 H 0.1587 0.9267 0.3132
C12_3 C 0.0805(2) 0.8851(2) 0.31154(7)
H6_3 H 0.0573 0.8521 0.3052
C13_3 C 0.0498(2) 0.9319(3) 0.32842(8)
C14_3 C 0.3678(2) 0.9030(2) 0.33330(8)
H7_3 H 0.3427 0.9313 0.3416
C15_3 C 0.4247(3) 0.8978(2) 0.34054(8)
H8_3 H 0.4506 0.8690 0.3329
C16_3 C 0.4513(2) 0.9328(2) 0.35945(8)
C17_3 C 0.0837(3) 0.7427(5) 0.23964(14)
H9_3 H 0.0709 0.7250 0.2546
H10_3 H 0.0616 0.7823 0.2374
C18_3 C 0.0687(4) 0.6995(6) 0.2210(2)
H11_3 H 0.1070 0.6856 0.2136
H12_3 H 0.0427 0.7204 0.2096
H13_3 H 0.0466 0.6638 0.2272
O2_3 O 0.07657(13) 0.98083(16) 0.33376(5)
O4_3 O 0.41743(13) 0.97540(16) 0.36858(5)
O5_3 O 0.15101(19) 0.75288(19) 0.23932(6)
C19_3 C 0.27903(13) 0.74336(19) 0.24024(5)
C20_3 C 0.28423(15) 0.67893(19) 0.24240(5)
C21_3 C 0.32067(17) 0.64540(12) 0.22682(6)
H14_3 H 0.3242 0.6018 0.2283
C22_3 C 0.35190(13) 0.67630(17) 0.20908(5)
C23_3 C 0.34670(14) 0.74073(17) 0.20692(4)
C24_3 C 0.31026(16) 0.77426(12) 0.22250(6)
C25_3 C 0.3071(2) 0.8385(2) 0.21986(8)
H15_3 H 0.2842 0.8612 0.2309
C26_3 C 0.3349(2) 0.8714(2) 0.20230(8)
H16_3 H 0.3305 0.9149 0.2010
C27_3 C 0.3707(2) 0.8363(2) 0.18627(7)
C28_3 C 0.3777(2) 0.7725(2) 0.18877(7)
H17_3 H 0.4032 0.7502 0.1784
C29_3 C 0.3923(2) 0.6383(2) 0.19358(7)
H18_3 H 0.4267 0.6587 0.1868
C30_3 C 0.3851(2) 0.5805(2) 0.18846(7)
H19_3 H 0.3521 0.5573 0.1948
C31_3 C 0.4319(3) 0.5498(2) 0.17158(8)
C32_3 C 0.4030(2) 0.8678(2) 0.16670(8)
H20_3 H 0.4313 0.8427 0.1584
C33_3 C 0.3978(2) 0.9247(3) 0.15946(8)
H21_3 H 0.3690 0.9506 0.1671
C34_3 C 0.4328(2) 0.9513(2) 0.14055(8)
C35_3 C 0.2427(5) 0.5837(3) 0.26036(14)
H22_3 H 0.2250 0.5709 0.2454
H23_3 H 0.2823 0.5616 0.2626
C36_3 C 0.1995(6) 0.5687(4) 0.2790(2)
H24_3 H 0.1856 0.6070 0.2864
H25_3 H 0.2204 0.5427 0.2904
H26_3 H 0.1638 0.5466 0.2728
O7_3 O 0.41362(14) 0.49727(15) 0.16365(5)
O8_3 O 0.48083(16) 0.57657(13) 0.16624(5)
O10_3 O 0.51917(16) 0.42343(13) 0.16624(5)
O14_3 O 0.47540(16) 0.91743(13) 0.13142(5)
O16_3 O 0.52460(16) 0.41743(13) 0.11858(5)
O17_3 O 0.25288(19) 0.65101(19) 0.26068(6)
O18_3 O 0.40607(17) 0.36790(14) 0.14177(6)
H29_3 H 0.363149 0.378975 0.136721
H30_3 H 0.423667 0.336076 0.13109
O9_3 O 0.92343(13) 0.01917(16) 0.33376(5)
O15_3 O 0.91743(13) 0.02460(16) 0.38142(5)
O1_3 O 0.99727(15) 0.91362(14) 0.33635(5)
O6_3 O 0.86790(14) 0.90607(17) 0.35823(6)
H27_3 H 0.878975 0.863149 0.363279
H28_3 H 0.836076 0.923667 0.36891
O7_4 O 0.08638(14) 0.00273(15) 0.66365(5)
O18_4 O 0.09393(17) 0.13210(14) 0.64177(6)
H29_4 H 0.136851 0.121025 0.636721
H30_4 H 0.076333 0.163924 0.63109
C1_4 C 0.25664(19) 0.72097(13) 0.75976(5)
C2_4 C 0.32107(19) 0.71577(15) 0.75760(5)
C3_4 C 0.35460(12) 0.67933(17) 0.77318(6)
H1_4 H 0.3982 0.6758 0.7717
C4_4 C 0.32370(17) 0.64810(13) 0.79092(5)
C5_4 C 0.25927(17) 0.65330(14) 0.79308(4)
C6_4 C 0.22574(12) 0.68974(16) 0.77750(6)
C7_4 C 0.1615(2) 0.6929(2) 0.78014(8)
H2_4 H 0.1388 0.7158 0.7691
C8_4 C 0.1286(2) 0.6651(2) 0.79770(8)
H3_4 H 0.0851 0.6695 0.7990
C9_4 C 0.1637(2) 0.6293(2) 0.81373(7)
C10_4 C 0.2275(2) 0.6223(2) 0.81123(7)
H4_4 H 0.2498 0.5968 0.8216
C11_4 C 0.3617(2) 0.6077(2) 0.80642(7)
H5_4 H 0.3413 0.5733 0.8132
C12_4 C 0.4195(2) 0.6149(2) 0.81154(7)
H6_4 H 0.4427 0.6479 0.8052
C13_4 C 0.4502(2) 0.5681(3) 0.82842(8)
C14_4 C 0.1322(2) 0.5970(2) 0.83330(8)
H7_4 H 0.1573 0.5687 0.8416
C15_4 C 0.0753(3) 0.6022(2) 0.84054(8)
H8_4 H 0.0494 0.6310 0.8329
C16_4 C 0.0487(2) 0.5672(2) 0.85945(8)
C17_4 C 0.4163(3) 0.7573(5) 0.73964(14)
H9_4 H 0.4291 0.7750 0.7546
H10_4 H 0.4384 0.7177 0.7374
C18_4 C 0.4313(4) 0.8005(6) 0.7210(2)
H11_4 H 0.3930 0.8144 0.7136
H12_4 H 0.4573 0.7796 0.7096
H13_4 H 0.4534 0.8362 0.7272
O1_4 O 0.50273(15) 0.58638(14) 0.83635(5)
O2_4 O 0.42343(13) 0.51917(16) 0.83376(5)
O4_4 O 0.08257(13) 0.52460(16) 0.86858(5)
O5_4 O 0.34899(19) 0.74712(19) 0.73932(6)
O6_4 O 0.63210(14) 0.59393(17) 0.85823(6)
C19_4 C 0.22097(13) 0.75664(19) 0.74024(5)
C20_4 C 0.21577(15) 0.82107(19) 0.74240(5)
C21_4 C 0.17933(17) 0.85460(12) 0.72682(6)
H14_4 H 0.1758 0.8982 0.7283
C22_4 C 0.14810(13) 0.82370(17) 0.70908(5)
C23_4 C 0.15330(14) 0.75927(17) 0.70692(4)
C24_4 C 0.18974(16) 0.72574(12) 0.72250(6)
C25_4 C 0.1929(2) 0.6615(2) 0.71986(8)
H15_4 H 0.2158 0.6388 0.7309
C26_4 C 0.1651(2) 0.6286(2) 0.70230(8)
H16_4 H 0.1695 0.5851 0.7010
C27_4 C 0.1293(2) 0.6637(2) 0.68627(7)
C28_4 C 0.1223(2) 0.7275(2) 0.68877(7)
H17_4 H 0.0968 0.7498 0.6784
C29_4 C 0.1077(2) 0.8617(2) 0.69358(7)
H18_4 H 0.0733 0.8413 0.6868
C30_4 C 0.1149(2) 0.9195(2) 0.68846(7)
H19_4 H 0.1479 0.9427 0.6948
C31_4 C 0.0681(3) 0.9502(2) 0.67158(8)
C32_4 C 0.0970(2) 0.6322(2) 0.66670(8)
H20_4 H 0.0687 0.6573 0.6584
C33_4 C 0.1022(2) 0.5753(3) 0.65946(8)
H21_4 H 0.1310 0.5494 0.6671
C34_4 C 0.0672(2) 0.5487(2) 0.64055(8)
C35_4 C 0.2573(5) 0.9163(3) 0.76036(14)
H22_4 H 0.2750 0.9291 0.7454
H23_4 H 0.2177 0.9384 0.7626
C36_4 C 0.3005(6) 0.9313(4) 0.7790(2)
H24_4 H 0.3144 0.8930 0.7864
H25_4 H 0.2796 0.9573 0.7904
H26_4 H 0.3362 0.9534 0.7728
O8_4 O 0.01917(16) 0.92343(13) 0.66624(5)
O9_4 O 0.57657(13) 0.48083(16) 0.83376(5)
O14_4 O 0.02460(16) 0.58257(13) 0.63142(5)
O15_4 O 0.58257(13) 0.47540(16) 0.88142(5)
O17_4 O 0.24712(19) 0.84899(19) 0.76068(6)
H27_4 H 0.621025 0.636851 0.863279
H28_4 H 0.663924 0.576333 0.86891
O10_4 O 0.98083(16) 0.07657(13) 0.66624(5)
O16_4 O 0.97540(16) 0.08257(13) 0.61858(5)
O11_3 O 0.00711(15) 0.07854(14) 0.38436(5)
C1_5 C 0.77903(13) 0.25664(19) 0.50976(5)
C2_5 C 0.78423(15) 0.32107(19) 0.50760(5)
C3_5 C 0.82067(17) 0.35460(12) 0.52318(6)
H1_5 H 0.8242 0.3982 0.5217
C4_5 C 0.85190(13) 0.32370(17) 0.54092(5)
C5_5 C 0.84670(14) 0.25927(17) 0.54308(4)
C6_5 C 0.81026(16) 0.22574(12) 0.52750(6)
C7_5 C 0.8071(2) 0.1615(2) 0.53014(8)
H2_5 H 0.7842 0.1388 0.5191
C8_5 C 0.8349(2) 0.1286(2) 0.54770(8)
H3_5 H 0.8305 0.0851 0.5490
C9_5 C 0.8707(2) 0.1637(2) 0.56373(7)
C10_5 C 0.8777(2) 0.2275(2) 0.56123(7)
H4_5 H 0.9032 0.2498 0.5716
C11_5 C 0.8923(2) 0.3617(2) 0.55642(7)
H5_5 H 0.9267 0.3413 0.5632
C12_5 C 0.8851(2) 0.4195(2) 0.56154(7)
H6_5 H 0.8521 0.4427 0.5552
C13_5 C 0.9319(3) 0.4502(2) 0.57842(8)
C14_5 C 0.9030(2) 0.1322(2) 0.58330(8)
H7_5 H 0.9313 0.1573 0.5916
C15_5 C 0.8978(2) 0.0753(3) 0.59054(8)
H8_5 H 0.8690 0.0494 0.5829
C16_5 C 0.9328(2) 0.0487(2) 0.60945(8)
C17_5 C 0.7427(5) 0.4163(3) 0.48964(14)
H9_5 H 0.7250 0.4291 0.5046
H10_5 H 0.7823 0.4384 0.4874
C18_5 C 0.6995(6) 0.4313(4) 0.4710(2)
H11_5 H 0.6856 0.3930 0.4636
H12_5 H 0.7204 0.4573 0.4596
H13_5 H 0.6638 0.4534 0.4772
O1_5 O 0.91362(14) 0.50273(15) 0.58635(5)
O5_5 O 0.75288(19) 0.34899(19) 0.48932(6)
O6_5 O 0.90607(17) 0.63210(14) 0.60823(6)
C19_5 C 0.74336(19) 0.22097(13) 0.49024(5)
C20_5 C 0.67893(19) 0.21577(15) 0.49240(5)
C21_5 C 0.64540(12) 0.17933(17) 0.47682(6)
H14_5 H 0.6018 0.1758 0.4783
C22_5 C 0.67630(17) 0.14810(13) 0.45908(5)
C23_5 C 0.74073(17) 0.15330(14) 0.45692(4)
C24_5 C 0.77426(12) 0.18974(16) 0.47250(6)
C25_5 C 0.8385(2) 0.1929(2) 0.46986(8)
H15_5 H 0.8612 0.2158 0.4809
C26_5 C 0.8714(2) 0.1651(2) 0.45230(8)
H16_5 H 0.9149 0.1695 0.4510
C27_5 C 0.8363(2) 0.1293(2) 0.43627(7)
C28_5 C 0.7725(2) 0.1223(2) 0.43877(7)
H17_5 H 0.7502 0.0968 0.4284
C29_5 C 0.6383(2) 0.1077(2) 0.44358(7)
H18_5 H 0.6587 0.0733 0.4368
C30_5 C 0.5805(2) 0.1149(2) 0.43846(7)
H19_5 H 0.5573 0.1479 0.4448
C31_5 C 0.5498(2) 0.0681(3) 0.42158(8)
C32_5 C 0.8678(2) 0.0970(2) 0.41670(8)
H20_5 H 0.8427 0.0687 0.4084
C33_5 C 0.9247(3) 0.1022(2) 0.40946(8)
H21_5 H 0.9506 0.1310 0.4171
C34_5 C 0.9513(2) 0.0672(2) 0.39055(8)
C35_5 C 0.5837(3) 0.2573(5) 0.51036(14)
H22_5 H 0.5709 0.2750 0.4954
H23_5 H 0.5616 0.2177 0.5126
C36_5 C 0.5687(4) 0.3005(6) 0.5290(2)
H24_5 H 0.6070 0.3144 0.5364
H25_5 H 0.5427 0.2796 0.5404
H26_5 H 0.5466 0.3362 0.5228
O7_5 O 0.49727(15) 0.08638(14) 0.41365(5)
O12_3 O 0.92146(14) 0.50711(15) 0.63436(5)
O13_3 O 0.49289(15) 0.07854(14) 0.36564(5)
O17_5 O 0.65101(19) 0.24712(19) 0.51068(6)
O18_5 O 0.36790(14) 0.09393(17) 0.39177(6)
H27_5 H 0.863149 0.621025 0.613279
H28_5 H 0.923667 0.663924 0.61891
H29_5 H 0.378975 0.136851 0.386721
H30_5 H 0.336076 0.076333 0.38109
O3_3 O 0.92146(14) 0.99289(15) 0.61564(5)
O7_6 O 0.00273(15) 0.41362(14) 0.91365(5)
O13_4 O 0.00711(15) 0.42146(14) 0.86564(5)
O18_6 O 0.13210(14) 0.40607(17) 0.89177(6)
H29_6 H 0.121025 0.363149 0.886721
H30_6 H 0.163924 0.423667 0.88109
C1_6 C 0.72097(13) 0.24336(19) 0.00976(5)
C2_6 C 0.71577(15) 0.17893(19) 0.00760(5)
C3_6 C 0.67933(17) 0.14540(12) 0.02318(6)
H1_6 H 0.6758 0.1018 0.0217
C4_6 C 0.64810(13) 0.17630(17) 0.04092(5)
C5_6 C 0.65330(14) 0.24073(17) 0.04308(4)
C6_6 C 0.68974(16) 0.27426(12) 0.02750(6)
C7_6 C 0.6929(2) 0.3385(2) 0.03014(8)
H2_6 H 0.7158 0.3612 0.0191
C8_6 C 0.6651(2) 0.3714(2) 0.04770(8)
H3_6 H 0.6695 0.4149 0.0490
C9_6 C 0.6293(2) 0.3363(2) 0.06373(7)
C10_6 C 0.6223(2) 0.2725(2) 0.06123(7)
H4_6 H 0.5968 0.2502 0.0716
C11_6 C 0.6077(2) 0.1383(2) 0.05642(7)
H5_6 H 0.5733 0.1587 0.0632
C12_6 C 0.6149(2) 0.0805(2) 0.06154(7)
H6_6 H 0.6479 0.0573 0.0552
C13_6 C 0.5681(3) 0.0498(2) 0.07842(8)
C14_6 C 0.5970(2) 0.3678(2) 0.08330(8)
H7_6 H 0.5687 0.3427 0.0916
C15_6 C 0.6022(2) 0.4247(3) 0.09054(8)
H8_6 H 0.6310 0.4506 0.0829
C16_6 C 0.5672(2) 0.4513(2) 0.10945(8)
H9_6 H 0.7750 0.0709 0.0046
O3_4 O 0.57854(14) 0.50711(15) 0.11564(5)
C35_6 C 0.9163(3) 0.2427(5) 0.01036(14)
H23_6 H 0.9384 0.2823 0.0126
C36_6 C 0.9313(4) 0.1995(6) 0.0290(2)
H24_6 H 0.8930 0.1856 0.0364
H25_6 H 0.9573 0.2204 0.0404
H26_6 H 0.9534 0.1638 0.0228
O17_6 O 0.84899(19) 0.25288(19) 0.01068(6)
C17_6 C 0.7573(5) 0.0837(3) 0.98964(14)
H10_6 H 0.7177 0.0616 0.9874
C18_6 C 0.8005(6) 0.0687(4) 0.9710(2)
H11_6 H 0.8144 0.1070 0.9636
H12_6 H 0.7796 0.0427 0.9596
H13_6 H 0.8362 0.0466 0.9772
O5_6 O 0.74712(19) 0.15101(19) 0.98932(6)
C19_6 C 0.75664(19) 0.27903(13) 0.99024(5)
C20_6 C 0.82107(19) 0.28423(15) 0.99240(5)
C21_6 C 0.85460(12) 0.32067(17) 0.97682(6)
H14_6 H 0.8982 0.3242 0.9783
C22_6 C 0.82370(17) 0.35190(13) 0.95908(5)
C23_6 C 0.75927(17) 0.34670(14) 0.95692(4)
C24_6 C 0.72574(12) 0.31026(16) 0.97250(6)
C25_6 C 0.6615(2) 0.3071(2) 0.96986(8)
H15_6 H 0.6388 0.2842 0.9809
C26_6 C 0.6286(2) 0.3349(2) 0.95230(8)
H16_6 H 0.5851 0.3305 0.9510
C27_6 C 0.6637(2) 0.3707(2) 0.93627(7)
C28_6 C 0.7275(2) 0.3777(2) 0.93877(7)
H17_6 H 0.7498 0.4032 0.9284
C29_6 C 0.8617(2) 0.3923(2) 0.94358(7)
H18_6 H 0.8413 0.4267 0.9368
C30_6 C 0.9195(2) 0.3851(2) 0.93846(7)
H19_6 H 0.9427 0.3521 0.9448
C31_6 C 0.9502(2) 0.4319(3) 0.92158(8)
C32_6 C 0.6322(2) 0.4030(2) 0.91670(8)
H20_6 H 0.6573 0.4313 0.9084
C33_6 C 0.5753(3) 0.3978(2) 0.90946(8)
H21_6 H 0.5494 0.3690 0.9171
C34_6 C 0.5487(2) 0.4328(2) 0.89055(8)
H22_6 H 0.9291 0.2250 0.9954
O11_4 O 0.49289(15) 0.42146(14) 0.88436(5)
O1_6 O 0.58638(14) 0.99727(15) 0.08635(5)
O6_6 O 0.59393(17) 0.86790(14) 0.10823(6)
O12_4 O 0.57854(14) 0.99289(15) 0.13436(5)
H27_6 H 0.636851 0.878975 0.113279
H28_6 H 0.576333 0.836076 0.11891
C1_7 C 0.74336(19) 0.27903(13) 0.75976(5)
C2_7 C 0.67893(19) 0.28423(15) 0.75760(5)
C3_7 C 0.64540(12) 0.32067(17) 0.77318(6)
H1_7 H 0.6018 0.3242 0.7717
C4_7 C 0.67630(17) 0.35190(13) 0.79092(5)
C5_7 C 0.74073(17) 0.34670(14) 0.79308(4)
C6_7 C 0.77426(12) 0.31026(16) 0.77750(6)
C7_7 C 0.8385(2) 0.3071(2) 0.78014(8)
H2_7 H 0.8612 0.2842 0.7691
C8_7 C 0.8714(2) 0.3349(2) 0.79770(8)
H3_7 H 0.9149 0.3305 0.7990
C9_7 C 0.8363(2) 0.3707(2) 0.81373(7)
C10_7 C 0.7725(2) 0.3777(2) 0.81123(7)
H4_7 H 0.7502 0.4032 0.8216
C11_7 C 0.6383(2) 0.3923(2) 0.80642(7)
H5_7 H 0.6587 0.4267 0.8132
C12_7 C 0.5805(2) 0.3851(2) 0.81154(7)
H6_7 H 0.5573 0.3521 0.8052
C13_7 C 0.5498(2) 0.4319(3) 0.82842(8)
C14_7 C 0.8678(2) 0.4030(2) 0.83330(8)
H7_7 H 0.8427 0.4313 0.8416
C15_7 C 0.9247(3) 0.3978(2) 0.84054(8)
H8_7 H 0.9506 0.3690 0.8329
C16_7 C 0.9513(2) 0.4328(2) 0.85945(8)
C17_7 C 0.5837(3) 0.2427(5) 0.73964(14)
H9_7 H 0.5709 0.2250 0.7546
H10_7 H 0.5616 0.2823 0.7374
C18_7 C 0.5687(4) 0.1995(6) 0.7210(2)
H11_7 H 0.6070 0.1856 0.7136
H12_7 H 0.5427 0.2204 0.7096
H13_7 H 0.5466 0.1638 0.7272
O1_7 O 0.49727(15) 0.41362(14) 0.83635(5)
O5_7 O 0.65101(19) 0.25288(19) 0.73932(6)
O6_7 O 0.36790(14) 0.40607(17) 0.85823(6)
C19_7 C 0.77903(13) 0.24336(19) 0.74024(5)
C20_7 C 0.78423(15) 0.17893(19) 0.74240(5)
C21_7 C 0.82067(17) 0.14540(12) 0.72682(6)
H14_7 H 0.8242 0.1018 0.7283
C22_7 C 0.85190(13) 0.17630(17) 0.70908(5)
C23_7 C 0.84670(14) 0.24073(17) 0.70692(4)
C24_7 C 0.81026(16) 0.27426(12) 0.72250(6)
C25_7 C 0.8071(2) 0.3385(2) 0.71986(8)
H15_7 H 0.7842 0.3612 0.7309
C26_7 C 0.8349(2) 0.3714(2) 0.70230(8)
H16_7 H 0.8305 0.4149 0.7010
C27_7 C 0.8707(2) 0.3363(2) 0.68627(7)
C28_7 C 0.8777(2) 0.2725(2) 0.68877(7)
H17_7 H 0.9032 0.2502 0.6784
C29_7 C 0.8923(2) 0.1383(2) 0.69358(7)
H18_7 H 0.9267 0.1587 0.6868
C30_7 C 0.8851(2) 0.0805(2) 0.68846(7)
H19_7 H 0.8521 0.0573 0.6948
C31_7 C 0.9319(3) 0.0498(2) 0.67158(8)
C32_7 C 0.9030(2) 0.3678(2) 0.66670(8)
H20_7 H 0.9313 0.3427 0.6584
C33_7 C 0.8978(2) 0.4247(3) 0.65946(8)
H21_7 H 0.8690 0.4506 0.6671
C34_7 C 0.9328(2) 0.4513(2) 0.64055(8)
C35_7 C 0.7427(5) 0.0837(3) 0.76036(14)
H22_7 H 0.7250 0.0709 0.7454
H23_7 H 0.7823 0.0616 0.7626
C36_7 C 0.6995(6) 0.0687(4) 0.7790(2)
H24_7 H 0.6856 0.1070 0.7864
H25_7 H 0.7204 0.0427 0.7904
H26_7 H 0.6638 0.0466 0.7728
O17_7 O 0.75288(19) 0.15101(19) 0.76068(6)
H27_7 H 0.378975 0.363149 0.863279
H28_7 H 0.336076 0.423667 0.86891
O7_7 O 0.91362(14) 0.99727(15) 0.66365(5)
O18_7 O 0.90607(17) 0.86790(14) 0.64177(6)
H29_7 H 0.863149 0.878975 0.636721
H30_7 H 0.923667 0.836076 0.63109
O1_8 O 0.00273(15) 0.08638(14) 0.33635(5)
O6_8 O 0.13210(14) 0.09393(17) 0.35823(6)
H27_8 H 0.121025 0.136851 0.363279
H28_8 H 0.163924 0.076333 0.36891
C1_8 C 0.75664(19) 0.22097(13) 0.25976(5)
C2_8 C 0.82107(19) 0.21577(15) 0.25760(5)
C3_8 C 0.85460(12) 0.17933(17) 0.27318(6)
H1_8 H 0.8982 0.1758 0.2717
C4_8 C 0.82370(17) 0.14810(13) 0.29092(5)
C5_8 C 0.75927(17) 0.15330(14) 0.29308(4)
C6_8 C 0.72574(12) 0.18974(16) 0.27750(6)
C7_8 C 0.6615(2) 0.1929(2) 0.28014(8)
H2_8 H 0.6388 0.2158 0.2691
C8_8 C 0.6286(2) 0.1651(2) 0.29770(8)
H3_8 H 0.5851 0.1695 0.2990
C9_8 C 0.6637(2) 0.1293(2) 0.31373(7)
C10_8 C 0.7275(2) 0.1223(2) 0.31123(7)
H4_8 H 0.7498 0.0968 0.3216
C11_8 C 0.8617(2) 0.1077(2) 0.30642(7)
H5_8 H 0.8413 0.0733 0.3132
C12_8 C 0.9195(2) 0.1149(2) 0.31154(7)
H6_8 H 0.9427 0.1479 0.3052
C13_8 C 0.9502(2) 0.0681(3) 0.32842(8)
C14_8 C 0.6322(2) 0.0970(2) 0.33330(8)
H7_8 H 0.6573 0.0687 0.3416
C15_8 C 0.5753(3) 0.1022(2) 0.34054(8)
H8_8 H 0.5494 0.1310 0.3329
C16_8 C 0.5487(2) 0.0672(2) 0.35945(8)
C17_8 C 0.9163(3) 0.2573(5) 0.23964(14)
H9_8 H 0.9291 0.2750 0.2546
H10_8 H 0.9384 0.2177 0.2374
C18_8 C 0.9313(4) 0.3005(6) 0.2210(2)
H11_8 H 0.8930 0.3144 0.2136
H12_8 H 0.9573 0.2796 0.2096
H13_8 H 0.9534 0.3362 0.2272
O5_8 O 0.84899(19) 0.24712(19) 0.23932(6)
C19_8 C 0.72097(13) 0.25664(19) 0.24024(5)
C20_8 C 0.71577(15) 0.32107(19) 0.24240(5)
C21_8 C 0.67933(17) 0.35460(12) 0.22682(6)
H14_8 H 0.6758 0.3982 0.2283
C22_8 C 0.64810(13) 0.32370(17) 0.20908(5)
C23_8 C 0.65330(14) 0.25927(17) 0.20692(4)
C24_8 C 0.68974(16) 0.22574(12) 0.22250(6)
C25_8 C 0.6929(2) 0.1615(2) 0.21986(8)
H15_8 H 0.7158 0.1388 0.2309
C26_8 C 0.6651(2) 0.1286(2) 0.20230(8)
H16_8 H 0.6695 0.0851 0.2010
C27_8 C 0.6293(2) 0.1637(2) 0.18627(7)
C28_8 C 0.6223(2) 0.2275(2) 0.18877(7)
H17_8 H 0.5968 0.2498 0.1784
C29_8 C 0.6077(2) 0.3617(2) 0.19358(7)
H18_8 H 0.5733 0.3413 0.1868
C30_8 C 0.6149(2) 0.4195(2) 0.18846(7)
H19_8 H 0.6479 0.4427 0.1948
C31_8 C 0.5681(3) 0.4502(2) 0.17158(8)
C32_8 C 0.5970(2) 0.1322(2) 0.16670(8)
H20_8 H 0.5687 0.1573 0.1584
C33_8 C 0.6022(2) 0.0753(3) 0.15946(8)
H21_8 H 0.6310 0.0494 0.1671
C34_8 C 0.5672(2) 0.0487(2) 0.14055(8)
C35_8 C 0.7573(5) 0.4163(3) 0.26036(14)
H22_8 H 0.7750 0.4291 0.2454
H23_8 H 0.7177 0.4384 0.2626
C36_8 C 0.8005(6) 0.4313(4) 0.2790(2)
H24_8 H 0.8144 0.3930 0.2864
H25_8 H 0.7796 0.4573 0.2904
H26_8 H 0.8362 0.4534 0.2728
O7_8 O 0.58638(14) 0.50273(15) 0.16365(5)
O17_8 O 0.74712(19) 0.34899(19) 0.26068(6)
O18_8 O 0.59393(17) 0.63210(14) 0.14177(6)
H29_8 H 0.636851 0.621025 0.136721
H30_8 H 0.576333 0.663924 0.13109
loop_
_geom_bond_atom_site_label_1
_geom_bond_atom_site_label_2
_geom_bond_site_symmetry_1
_geom_bond_site_symmetry_2
Cu1 O1 1_555 1_555
O6 Cu1 1_555 1_555
O9 Cu1 1_555 1_555
O12 Cu1 1_555 1_555
O15 Cu1 1_555 1_555
O6 H27 1_555 1_555
O6 H28 1_555 1_555
C1 C2 1_555 1_555
C2 C3 1_555 1_555
C3 H1 1_555 1_555
C4 C3 1_555 1_555
C5 C4 1_555 1_555
C6 C1 1_555 1_555
C7 C6 1_555 1_555
H2 C7 1_555 1_555
C8 C7 1_555 1_555
H3 C8 1_555 1_555
C9 C8 1_555 1_555
C10 C5 1_555 1_555
H4 C10 1_555 1_555
C11 C4 1_555 1_555
H5 C11 1_555 1_555
C12 C11 1_555 1_555
H6 C12 1_555 1_555
C13 C12 1_555 1_555
C14 C9 1_555 1_555
H7 C14 1_555 1_555
C15 C14 1_555 1_555
H8 C15 1_555 1_555
C16 C15 1_555 1_555
O2 C13 1_555 1_555
O3 C16 1_555 1_555
O4 C16 1_555 1_555
Cu3 O2 1_555 1_555
Cu4 O3 1_555 1_555
Cu5 O4 1_555 1_555
H23 C35 1_555 1_555
C36 C35 1_555 1_555
H24 C36 1_555 1_555
H25 C36 1_555 1_555
H26 C36 1_555 1_555
C5 C6 1_555 1_555
C9 C10 1_555 1_555
C35 O17 1_555 1_555
H10 C17 1_555 1_555
C18 C17 1_555 1_555
H11 C18 1_555 1_555
H12 C18 1_555 1_555
H13 C18 1_555 1_555
Cu6 O11 1_555 1_555
Cu7 O14 1_555 1_555
Cu8 O8 1_555 1_555
C20 C19 1_555 1_555
C21 C20 1_555 1_555
H14 C21 1_555 1_555
C22 C21 1_555 1_555
C23 C22 1_555 1_555
C24 C19 1_555 1_555
C25 C24 1_555 1_555
H15 C25 1_555 1_555
C26 C25 1_555 1_555
H16 C26 1_555 1_555
C27 C26 1_555 1_555
C28 C23 1_555 1_555
H17 C28 1_555 1_555
C29 C22 1_555 1_555
H18 C29 1_555 1_555
C30 C29 1_555 1_555
H19 C30 1_555 1_555
C31 C30 1_555 1_555
C32 C27 1_555 1_555
H20 C32 1_555 1_555
C33 C32 1_555 1_555
H21 C33 1_555 1_555
C34 C33 1_555 1_555
O8 C31 1_555 1_555
O11 C34 1_555 1_555
O14 C34 1_555 1_555
C17 O5 1_555 1_555
C23 C24 1_555 1_555
C27 C28 1_555 1_555
Cu2 O7 1_555 1_555
O10 Cu2 1_555 1_555
O13 Cu2 1_555 1_555
O16 Cu2 1_555 1_555
O18 Cu2 1_555 1_555
O18 H29 1_555 1_555
O18 H30 1_555 1_555
Cu4_2 O3_2 1_555 1_555
Cu1_2 O1_2 1_555 1_555
C1_2 C2_2 1_555 1_555
C2_2 C3_2 1_555 1_555
C3_2 H1_2 1_555 1_555
C4_2 C3_2 1_555 1_555
C5_2 C4_2 1_555 1_555
C6_2 C1_2 1_555 1_555
C7_2 C6_2 1_555 1_555
H2_2 C7_2 1_555 1_555
C8_2 C7_2 1_555 1_555
H3_2 C8_2 1_555 1_555
C9_2 C8_2 1_555 1_555
C10_2 C5_2 1_555 1_555
H4_2 C10_2 1_555 1_555
C11_2 C4_2 1_555 1_555
H5_2 C11_2 1_555 1_555
C12_2 C11_2 1_555 1_555
H6_2 C12_2 1_555 1_555
C13_2 C12_2 1_555 1_555
C14_2 C9_2 1_555 1_555
H7_2 C14_2 1_555 1_555
C15_2 C14_2 1_555 1_555
H8_2 C15_2 1_555 1_555
C16_2 C15_2 1_555 1_555
C17_2 H9_2 1_555 1_555
H10_2 C17_2 1_555 1_555
C18_2 C17_2 1_555 1_555
H11_2 C18_2 1_555 1_555
H12_2 C18_2 1_555 1_555
H13_2 C18_2 1_555 1_555
O1_2 C13_2 1_555 1_555
O2_2 C13_2 1_555 1_555
O4_2 C16_2 1_555 1_555
O5_2 C2_2 1_555 1_555
O6_2 Cu1_2 1_555 1_555
Cu2_2 O7_2 1_555 1_555
C19_2 C1_2 1_555 1_555
C20_2 C19_2 1_555 1_555
C21_2 C20_2 1_555 1_555
H14_2 C21_2 1_555 1_555
C22_2 C21_2 1_555 1_555
C23_2 C22_2 1_555 1_555
C24_2 C19_2 1_555 1_555
C25_2 C24_2 1_555 1_555
H15_2 C25_2 1_555 1_555
C26_2 C25_2 1_555 1_555
H16_2 C26_2 1_555 1_555
C27_2 C26_2 1_555 1_555
C28_2 C23_2 1_555 1_555
H17_2 C28_2 1_555 1_555
C29_2 C22_2 1_555 1_555
H18_2 C29_2 1_555 1_555
C30_2 C29_2 1_555 1_555
H19_2 C30_2 1_555 1_555
C31_2 C30_2 1_555 1_555
C32_2 C27_2 1_555 1_555
H20_2 C32_2 1_555 1_555
C33_2 C32_2 1_555 1_555
H21_2 C33_2 1_555 1_555
C34_2 C33_2 1_555 1_555
C35_2 H22_2 1_555 1_555
H23_2 C35_2 1_555 1_555
C36_2 C35_2 1_555 1_555
H24_2 C36_2 1_555 1_555
H25_2 C36_2 1_555 1_555
H26_2 C36_2 1_555 1_555
O7_2 C31_2 1_555 1_555
O8_2 C31_2 1_555 1_555
O12_2 Cu1_2 1_555 1_555
O13_2 Cu2_2 1_555 1_555
O14_2 C34_2 1_555 1_555
O17_2 C20_2 1_555 1_555
O18_2 Cu2_2 1_555 1_555
C5_2 C6_2 1_555 1_555
C9_2 C10_2 1_555 1_555
C17_2 O5_2 1_555 1_555
C23_2 C24_2 1_555 1_555
C27_2 C28_2 1_555 1_555
C35_2 O17_2 1_555 1_555
O6_2 H27_2 1_555 1_555
O6_2 H28_2 1_555 1_555
O18_2 H29_2 1_555 1_555
O18_2 H30_2 1_555 1_555
Cu6_2 O11_2 1_555 1_555
C1_3 C2_3 1_555 1_555
C2_3 C3_3 1_555 1_555
C3_3 H1_3 1_555 1_555
C4_3 C3_3 1_555 1_555
C5_3 C4_3 1_555 1_555
C6_3 C1_3 1_555 1_555
C7_3 C6_3 1_555 1_555
H2_3 C7_3 1_555 1_555
C8_3 C7_3 1_555 1_555
H3_3 C8_3 1_555 1_555
C9_3 C8_3 1_555 1_555
C10_3 C5_3 1_555 1_555
H4_3 C10_3 1_555 1_555
C11_3 C4_3 1_555 1_555
H5_3 C11_3 1_555 1_555
C12_3 C11_3 1_555 1_555
H6_3 C12_3 1_555 1_555
C13_3 C12_3 1_555 1_555
C14_3 C9_3 1_555 1_555
H7_3 C14_3 1_555 1_555
C15_3 C14_3 1_555 1_555
H8_3 C15_3 1_555 1_555
C16_3 C15_3 1_555 1_555
C17_3 H9_3 1_555 1_555
H10_3 C17_3 1_555 1_555
C18_3 C17_3 1_555 1_555
H11_3 C18_3 1_555 1_555
H12_3 C18_3 1_555 1_555
H13_3 C18_3 1_555 1_555
O2_3 C13_3 1_555 1_555
O13_2 C16_3 1_555 1_555
O4_3 C16_3 1_555 1_555
O5_3 C2_3 1_555 1_555
Cu4 O7_3 1_555 1_555
Cu3 O14_3 1_555 1_555
Cu5 O8_3 1_555 1_555
C19_3 C1_3 1_555 1_555
C20_3 C19_3 1_555 1_555
C21_3 C20_3 1_555 1_555
H14_3 C21_3 1_555 1_555
C22_3 C21_3 1_555 1_555
C23_3 C22_3 1_555 1_555
C24_3 C19_3 1_555 1_555
C25_3 C24_3 1_555 1_555
H15_3 C25_3 1_555 1_555
C26_3 C25_3 1_555 1_555
H16_3 C26_3 1_555 1_555
C27_3 C26_3 1_555 1_555
C28_3 C23_3 1_555 1_555
H17_3 C28_3 1_555 1_555
C29_3 C22_3 1_555 1_555
H18_3 C29_3 1_555 1_555
C30_3 C29_3 1_555 1_555
H19_3 C30_3 1_555 1_555
C31_3 C30_3 1_555 1_555
C32_3 C27_3 1_555 1_555
H20_3 C32_3 1_555 1_555
C33_3 C32_3 1_555 1_555
H21_3 C33_3 1_555 1_555
C34_3 C33_3 1_555 1_555
C35_3 H22_3 1_555 1_555
H23_3 C35_3 1_555 1_555
C36_3 C35_3 1_555 1_555
H24_3 C36_3 1_555 1_555
H25_3 C36_3 1_555 1_555
H26_3 C36_3 1_555 1_555
O7_3 C31_3 1_555 1_555
O8_3 C31_3 1_555 1_555
O10_3 Cu4 1_555 1_555
O14_3 C34_3 1_555 1_555
O16_3 Cu4 1_555 1_555
O17_3 C20_3 1_555 1_555
O18_3 Cu4 1_555 1_555
C5_3 C6_3 1_555 1_555
C9_3 C10_3 1_555 1_555
C17_3 O5_3 1_555 1_555
C23_3 C24_3 1_555 1_555
C27_3 C28_3 1_555 1_555
C35_3 O17_3 1_555 1_555
O18_3 H29_3 1_555 1_555
O18_3 H30_3 1_555 1_555
Cu6_2 O1_3 1_555 1_555
O6_3 Cu6_2 1_555 1_555
O6_3 H27_3 1_555 1_555
O6_3 H28_3 1_555 1_555
Cu4_2 O7_4 1_555 1_555
O18_4 Cu4_2 1_555 1_555
O18_4 H29_4 1_555 1_555
O18_4 H30_4 1_555 1_555
Cu6 O1_4 1_555 1_555
C1_4 C2_4 1_555 1_555
C2_4 C3_4 1_555 1_555
C3_4 H1_4 1_555 1_555
C4_4 C3_4 1_555 1_555
C5_4 C4_4 1_555 1_555
C6_4 C1_4 1_555 1_555
C7_4 C6_4 1_555 1_555
H2_4 C7_4 1_555 1_555
C8_4 C7_4 1_555 1_555
H3_4 C8_4 1_555 1_555
C9_4 C8_4 1_555 1_555
C10_4 C5_4 1_555 1_555
H4_4 C10_4 1_555 1_555
C11_4 C4_4 1_555 1_555
H5_4 C11_4 1_555 1_555
C12_4 C11_4 1_555 1_555
H6_4 C12_4 1_555 1_555
C13_4 C12_4 1_555 1_555
C14_4 C9_4 1_555 1_555
H7_4 C14_4 1_555 1_555
C15_4 C14_4 1_555 1_555
H8_4 C15_4 1_555 1_555
C16_4 C15_4 1_555 1_555
C17_4 H9_4 1_555 1_555
H10_4 C17_4 1_555 1_555
C18_4 C17_4 1_555 1_555
H11_4 C18_4 1_555 1_555
H12_4 C18_4 1_555 1_555
H13_4 C18_4 1_555 1_555
O1_4 C13_4 1_555 1_555
O2_4 C13_4 1_555 1_555
O4_4 C16_4 1_555 1_555
O5_4 C2_4 1_555 1_555
O6_4 Cu6 1_555 1_555
Cu7 O2_4 1_555 1_555
Cu8 O4_4 1_555 1_555
C19_4 C1_4 1_555 1_555
C20_4 C19_4 1_555 1_555
C21_4 C20_4 1_555 1_555
H14_4 C21_4 1_555 1_555
C22_4 C21_4 1_555 1_555
C23_4 C22_4 1_555 1_555
C24_4 C19_4 1_555 1_555
C25_4 C24_4 1_555 1_555
H15_4 C25_4 1_555 1_555
C26_4 C25_4 1_555 1_555
H16_4 C26_4 1_555 1_555
C27_4 C26_4 1_555 1_555
C28_4 C23_4 1_555 1_555
H17_4 C28_4 1_555 1_555
C29_4 C22_4 1_555 1_555
H18_4 C29_4 1_555 1_555
C30_4 C29_4 1_555 1_555
H19_4 C30_4 1_555 1_555
C31_4 C30_4 1_555 1_555
C32_4 C27_4 1_555 1_555
H20_4 C32_4 1_555 1_555
C33_4 C32_4 1_555 1_555
H21_4 C33_4 1_555 1_555
C34_4 C33_4 1_555 1_555
C35_4 H22_4 1_555 1_555
H23_4 C35_4 1_555 1_555
C36_4 C35_4 1_555 1_555
H24_4 C36_4 1_555 1_555
H25_4 C36_4 1_555 1_555
H26_4 C36_4 1_555 1_555
O8_4 C31_4 1_555 1_555
O9_4 Cu6 1_555 1_555
O12_2 C34_4 1_555 1_555
O14_4 C34_4 1_555 1_555
O15_4 Cu6 1_555 1_555
O17_4 C20_4 1_555 1_555
C5_4 C6_4 1_555 1_555
C9_4 C10_4 1_555 1_555
C17_4 O5_4 1_555 1_555
C23_4 C24_4 1_555 1_555
C27_4 C28_4 1_555 1_555
C35_4 O17_4 1_555 1_555
O6_4 H27_4 1_555 1_555
O6_4 H28_4 1_555 1_555
Cu7_2 O11_3 1_555 1_555
Cu3_2 O1_5 1_555 1_555
C1_5 C2_5 1_555 1_555
C2_5 C3_5 1_555 1_555
C3_5 H1_5 1_555 1_555
C4_5 C3_5 1_555 1_555
C5_5 C4_5 1_555 1_555
C6_5 C1_5 1_555 1_555
C7_5 C6_5 1_555 1_555
H2_5 C7_5 1_555 1_555
C8_5 C7_5 1_555 1_555
H3_5 C8_5 1_555 1_555
C9_5 C8_5 1_555 1_555
C10_5 C5_5 1_555 1_555
H4_5 C10_5 1_555 1_555
C11_5 C4_5 1_555 1_555
H5_5 C11_5 1_555 1_555
C12_5 C11_5 1_555 1_555
H6_5 C12_5 1_555 1_555
C13_5 C12_5 1_555 1_555
C14_5 C9_5 1_555 1_555
H7_5 C14_5 1_555 1_555
C15_5 C14_5 1_555 1_555
H8_5 C15_5 1_555 1_555
C16_5 C15_5 1_555 1_555
C17_5 H9_5 1_555 1_555
H10_5 C17_5 1_555 1_555
C18_5 C17_5 1_555 1_555
H11_5 C18_5 1_555 1_555
H12_5 C18_5 1_555 1_555
H13_5 C18_5 1_555 1_555
O1_5 C13_5 1_555 1_555
O9_2 C13_5 1_555 1_555
O16_4 C16_5 1_555 1_555
O5_5 C2_5 1_555 1_555
O6_5 Cu3_2 1_555 1_555
Cu8_2 O7_5 1_555 1_555
C19_5 C1_5 1_555 1_555
C20_5 C19_5 1_555 1_555
C21_5 C20_5 1_555 1_555
H14_5 C21_5 1_555 1_555
C22_5 C21_5 1_555 1_555
C23_5 C22_5 1_555 1_555
C24_5 C19_5 1_555 1_555
C25_5 C24_5 1_555 1_555
H15_5 C25_5 1_555 1_555
C26_5 C25_5 1_555 1_555
H16_5 C26_5 1_555 1_555
C27_5 C26_5 1_555 1_555
C28_5 C23_5 1_555 1_555
H17_5 C28_5 1_555 1_555
C29_5 C22_5 1_555 1_555
H18_5 C29_5 1_555 1_555
C30_5 C29_5 1_555 1_555
H19_5 C30_5 1_555 1_555
C31_5 C30_5 1_555 1_555
C32_5 C27_5 1_555 1_555
H20_5 C32_5 1_555 1_555
C33_5 C32_5 1_555 1_555
H21_5 C33_5 1_555 1_555
C34_5 C33_5 1_555 1_555
C35_5 H22_5 1_555 1_555
H23_5 C35_5 1_555 1_555
C36_5 C35_5 1_555 1_555
H24_5 C36_5 1_555 1_555
H25_5 C36_5 1_555 1_555
H26_5 C36_5 1_555 1_555
O7_5 C31_5 1_555 1_555
O10_2 C31_5 1_555 1_555
O12_3 Cu3_2 1_555 1_555
O13_3 Cu8_2 1_555 1_555
O15_3 C34_5 1_555 1_555
O17_5 C20_5 1_555 1_555
O18_5 Cu8_2 1_555 1_555
C5_5 C6_5 1_555 1_555
C9_5 C10_5 1_555 1_555
C17_5 O5_5 1_555 1_555
C23_5 C24_5 1_555 1_555
C27_5 C28_5 1_555 1_555
C35_5 O17_5 1_555 1_555
O6_5 H27_5 1_555 1_555
O6_5 H28_5 1_555 1_555
O18_5 H29_5 1_555 1_555
O18_5 H30_5 1_555 1_555
Cu5_2 O3_3 1_555 1_555
Cu8 O7_6 1_555 1_555
O13_4 Cu8 1_555 1_555
O18_6 Cu8 1_555 1_555
O18_6 H29_6 1_555 1_555
O18_6 H30_6 1_555 1_555
C1_6 C2_6 1_555 1_555
C2_6 C3_6 1_555 1_555
C3_6 H1_6 1_555 1_555
C4_6 C3_6 1_555 1_555
C5_6 C4_6 1_555 1_555
C6_6 C1_6 1_555 1_555
C7_6 C6_6 1_555 1_555
H2_6 C7_6 1_555 1_555
C8_6 C7_6 1_555 1_555
H3_6 C8_6 1_555 1_555
C9_6 C8_6 1_555 1_555
C10_6 C5_6 1_555 1_555
H4_6 C10_6 1_555 1_555
C11_6 C4_6 1_555 1_555
H5_6 C11_6 1_555 1_555
C12_6 C11_6 1_555 1_555
H6_6 C12_6 1_555 1_555
C13_6 C12_6 1_555 1_555
C14_6 C9_6 1_555 1_555
H7_6 C14_6 1_555 1_555
C15_6 C14_6 1_555 1_555
H8_6 C15_6 1_555 1_555
C16_6 C15_6 1_555 1_555
O9 C13_6 1_555 1_555
O3_4 C16_6 1_555 1_555
O16_3 C16_6 1_555 1_555
Cu5 O3_4 1_555 1_555
H23_6 C35_6 1_555 1_555
C36_6 C35_6 1_555 1_555
H24_6 C36_6 1_555 1_555
H25_6 C36_6 1_555 1_555
H26_6 C36_6 1_555 1_555
C5_6 C6_6 1_555 1_555
C9_6 C10_6 1_555 1_555
C35_6 O17_6 1_555 1_555
H10_6 C17_6 1_555 1_555
C18_6 C17_6 1_555 1_555
H11_6 C18_6 1_555 1_555
H12_6 C18_6 1_555 1_555
H13_6 C18_6 1_555 1_555
Cu7 O11_4 1_555 1_555
C20_6 C19_6 1_555 1_555
C21_6 C20_6 1_555 1_555
H14_6 C21_6 1_555 1_555
C22_6 C21_6 1_555 1_555
C23_6 C22_6 1_555 1_555
C24_6 C19_6 1_555 1_555
C25_6 C24_6 1_555 1_555
H15_6 C25_6 1_555 1_555
C26_6 C25_6 1_555 1_555
H16_6 C26_6 1_555 1_555
C27_6 C26_6 1_555 1_555
C28_6 C23_6 1_555 1_555
H17_6 C28_6 1_555 1_555
C29_6 C22_6 1_555 1_555
H18_6 C29_6 1_555 1_555
C30_6 C29_6 1_555 1_555
H19_6 C30_6 1_555 1_555
C31_6 C30_6 1_555 1_555
C32_6 C27_6 1_555 1_555
H20_6 C32_6 1_555 1_555
C33_6 C32_6 1_555 1_555
H21_6 C33_6 1_555 1_555
C34_6 C33_6 1_555 1_555
O10 C31_6 1_555 1_555
O11_4 C34_6 1_555 1_555
O15_4 C34_6 1_555 1_555
C17_6 O5_6 1_555 1_555
C23_6 C24_6 1_555 1_555
C27_6 C28_6 1_555 1_555
Cu3 O1_6 1_555 1_555
O6_6 Cu3 1_555 1_555
O12_4 Cu3 1_555 1_555
O6_6 H27_6 1_555 1_555
O6_6 H28_6 1_555 1_555
Cu7 O1_7 1_555 1_555
C1_7 C2_7 1_555 1_555
C2_7 C3_7 1_555 1_555
C3_7 H1_7 1_555 1_555
C4_7 C3_7 1_555 1_555
C5_7 C4_7 1_555 1_555
C6_7 C1_7 1_555 1_555
C7_7 C6_7 1_555 1_555
H2_7 C7_7 1_555 1_555
C8_7 C7_7 1_555 1_555
H3_7 C8_7 1_555 1_555
C9_7 C8_7 1_555 1_555
C10_7 C5_7 1_555 1_555
H4_7 C10_7 1_555 1_555
C11_7 C4_7 1_555 1_555
H5_7 C11_7 1_555 1_555
C12_7 C11_7 1_555 1_555
H6_7 C12_7 1_555 1_555
C13_7 C12_7 1_555 1_555
C14_7 C9_7 1_555 1_555
H7_7 C14_7 1_555 1_555
C15_7 C14_7 1_555 1_555
H8_7 C15_7 1_555 1_555
C16_7 C15_7 1_555 1_555
C17_7 H9_7 1_555 1_555
H10_7 C17_7 1_555 1_555
C18_7 C17_7 1_555 1_555
H11_7 C18_7 1_555 1_555
H12_7 C18_7 1_555 1_555
H13_7 C18_7 1_555 1_555
O1_7 C13_7 1_555 1_555
O9_4 C13_7 1_555 1_555
O16 C16_7 1_555 1_555
O5_7 C2_7 1_555 1_555
O6_7 Cu7 1_555 1_555
C19_7 C1_7 1_555 1_555
C20_7 C19_7 1_555 1_555
C21_7 C20_7 1_555 1_555
H14_7 C21_7 1_555 1_555
C22_7 C21_7 1_555 1_555
C23_7 C22_7 1_555 1_555
C24_7 C19_7 1_555 1_555
C25_7 C24_7 1_555 1_555
H15_7 C25_7 1_555 1_555
C26_7 C25_7 1_555 1_555
H16_7 C26_7 1_555 1_555
C27_7 C26_7 1_555 1_555
C28_7 C23_7 1_555 1_555
H17_7 C28_7 1_555 1_555
C29_7 C22_7 1_555 1_555
H18_7 C29_7 1_555 1_555
C30_7 C29_7 1_555 1_555
H19_7 C30_7 1_555 1_555
C31_7 C30_7 1_555 1_555
C32_7 C27_7 1_555 1_555
H20_7 C32_7 1_555 1_555
C33_7 C32_7 1_555 1_555
H21_7 C33_7 1_555 1_555
C34_7 C33_7 1_555 1_555
C35_7 H22_7 1_555 1_555
H23_7 C35_7 1_555 1_555
C36_7 C35_7 1_555 1_555
H24_7 C36_7 1_555 1_555
H25_7 C36_7 1_555 1_555
H26_7 C36_7 1_555 1_555
O10_4 C31_7 1_555 1_555
O12_3 C34_7 1_555 1_555
O15_2 C34_7 1_555 1_555
O17_7 C20_7 1_555 1_555
C5_7 C6_7 1_555 1_555
C9_7 C10_7 1_555 1_555
C17_7 O5_7 1_555 1_555
C23_7 C24_7 1_555 1_555
C27_7 C28_7 1_555 1_555
C35_7 O17_7 1_555 1_555
O6_7 H27_7 1_555 1_555
O6_7 H28_7 1_555 1_555
Cu5_2 O7_7 1_555 1_555
O18_7 Cu5_2 1_555 1_555
O18_7 H29_7 1_555 1_555
O18_7 H30_7 1_555 1_555
Cu7_2 O1_8 1_555 1_555
O6_8 Cu7_2 1_555 1_555
O6_8 H27_8 1_555 1_555
O6_8 H28_8 1_555 1_555
C1_8 C2_8 1_555 1_555
C2_8 C3_8 1_555 1_555
C3_8 H1_8 1_555 1_555
C4_8 C3_8 1_555 1_555
C5_8 C4_8 1_555 1_555
C6_8 C1_8 1_555 1_555
C7_8 C6_8 1_555 1_555
H2_8 C7_8 1_555 1_555
C8_8 C7_8 1_555 1_555
H3_8 C8_8 1_555 1_555
C9_8 C8_8 1_555 1_555
C10_8 C5_8 1_555 1_555
H4_8 C10_8 1_555 1_555
C11_8 C4_8 1_555 1_555
H5_8 C11_8 1_555 1_555
C12_8 C11_8 1_555 1_555
H6_8 C12_8 1_555 1_555
C13_8 C12_8 1_555 1_555
C14_8 C9_8 1_555 1_555
H7_8 C14_8 1_555 1_555
C15_8 C14_8 1_555 1_555
H8_8 C15_8 1_555 1_555
C16_8 C15_8 1_555 1_555
C17_8 H9_8 1_555 1_555
H10_8 C17_8 1_555 1_555
C18_8 C17_8 1_555 1_555
H11_8 C18_8 1_555 1_555
H12_8 C18_8 1_555 1_555
H13_8 C18_8 1_555 1_555
O9_3 C13_8 1_555 1_555
O13_3 C16_8 1_555 1_555
O16_2 C16_8 1_555 1_555
O5_8 C2_8 1_555 1_555
Cu5 O7_8 1_555 1_555
C19_8 C1_8 1_555 1_555
C20_8 C19_8 1_555 1_555
C21_8 C20_8 1_555 1_555
H14_8 C21_8 1_555 1_555
C22_8 C21_8 1_555 1_555
C23_8 C22_8 1_555 1_555
C24_8 C19_8 1_555 1_555
C25_8 C24_8 1_555 1_555
H15_8 C25_8 1_555 1_555
C26_8 C25_8 1_555 1_555
H16_8 C26_8 1_555 1_555
C27_8 C26_8 1_555 1_555
C28_8 C23_8 1_555 1_555
H17_8 C28_8 1_555 1_555
C29_8 C22_8 1_555 1_555
H18_8 C29_8 1_555 1_555
C30_8 C29_8 1_555 1_555
H19_8 C30_8 1_555 1_555
C31_8 C30_8 1_555 1_555
C32_8 C27_8 1_555 1_555
H20_8 C32_8 1_555 1_555
C33_8 C32_8 1_555 1_555
H21_8 C33_8 1_555 1_555
C34_8 C33_8 1_555 1_555
C35_8 H22_8 1_555 1_555
H23_8 C35_8 1_555 1_555
C36_8 C35_8 1_555 1_555
H24_8 C36_8 1_555 1_555
H25_8 C36_8 1_555 1_555
H26_8 C36_8 1_555 1_555
O7_8 C31_8 1_555 1_555
O10_3 C31_8 1_555 1_555
O15 C34_8 1_555 1_555
O17_8 C20_8 1_555 1_555
O18_8 Cu5 1_555 1_555
C5_8 C6_8 1_555 1_555
C9_8 C10_8 1_555 1_555
C17_8 O5_8 1_555 1_555
C23_8 C24_8 1_555 1_555
C27_8 C28_8 1_555 1_555
C35_8 O17_8 1_555 1_555
O18_8 H29_8 1_555 1_555
O18_8 H30_8 1_555 1_555

#END
