
###############################################################################
#
# This file contains modified crystal structure data generated from the
# MOF subset of the Cambridge Structural Database (CSD) v543 
# hosted by the Cambridge Crystallographic Data Centre (CCDC).
#
# This work is licensed under the Creative Commons
# Attribution-NonCommercial-ShareAlike 4.0 International License.
# To view a copy of this license, visit
# http://creativecommons.org/licenses/by-nc-sa/4.0/
# or send a letter to
# Creative Commons, PO Box 1866, Mountain View, CA 94042, USA.
#
# CIF created using the CSD Python API on 29 September 2022
# The structure has been converted into the P1 space group
# The structure has a 3D framework
# The original CSD entry XAHQAA is in the tetragonal crystal system
# The original CSD entry XAHQAA is in a Sohncke space group
# The framework has been calculated to contain at least 10.0% void space
# The void calculation uses a probe of radius 1.32A, grid spacing 0.4
# H atom positions have been added when not included in the experimental data
#
###############################################################################

data_XAHQAA
_chemical_formula_moiety         '(C448 H304 Cu16 O96)n'
_symmetry_cell_setting           triclinic
_symmetry_space_group_name_H-M   'P 1'
_symmetry_Int_Tables_number      1
_space_group_name_Hall           'P 1'
loop_
_symmetry_equiv_pos_site_id
_symmetry_equiv_pos_as_xyz
1 x,y,z
_cell_length_a                   30.7816(18)
_cell_length_b                   30.7816(18)
_cell_length_c                   81.603(5)
_cell_angle_alpha                90
_cell_angle_beta                 90
_cell_angle_gamma                90
_cell_volume                     77319.4
loop_
_atom_site_label
_atom_site_type_symbol
_atom_site_fract_x
_atom_site_fract_y
_atom_site_fract_z
Cu1 Cu 0.0271(3) 0.4716(2) 0.11063(11)
O6 O 0.0744(6) 0.4246(4) 0.1107(2)
Cu5 Cu 0.0271(3) 0.0284(2) 0.13937(11)
O9 O 0.0529(6) 0.5084(7) 0.0940(2)
O12 O 0.0539(6) 0.5043(7) 0.1277(3)
H34 H 0.0884755 0.423395 0.0997602
H35 H 0.09651 0.431684 0.119149
Cu6 Cu 0.0284(2) 0.0271(3) 0.86063(11)
C1 C 0.8849(6) 0.3821(6) 0.05326(15)
C2 C 0.9236(7) 0.3655(4) 0.0593(2)
H1 H 0.9335 0.3385 0.0558
C3 C 0.9476(4) 0.3891(6) 0.0707(2)
H2 H 0.9735 0.3779 0.0748
C4 C 0.9328(6) 0.4294(6) 0.07597(14)
C5 C 0.8941(7) 0.4461(4) 0.0699(2)
H3 H 0.8842 0.4731 0.0734
C6 C 0.8701(5) 0.4225(6) 0.0585(2)
H4 H 0.8442 0.4336 0.0544
C7 C 0.9600(7) 0.4565(7) 0.0886(2)
C8 C 0.8894(6) 0.1023(6) 0.07931(14)
C9 C 0.9230(7) 0.1254(3) 0.0866(2)
H5 H 0.9298 0.1531 0.0829
C10 C 0.9464(5) 0.1071(6) 0.0994(2)
H6 H 0.9689 0.1226 0.1043
C11 C 0.9362(6) 0.0657(6) 0.10496(15)
C12 C 0.9026(7) 0.0425(4) 0.0977(2)
H7 H 0.8957 0.0148 0.1014
C13 C 0.8792(5) 0.0608(6) 0.0849(2)
H8 H 0.8567 0.0453 0.0800
C14 C 0.9583(8) 0.0431(9) 0.1183(3)
C15 C 0.7848(5) 0.2392(5) 0.00701(18)
C16 C 0.7894(5) 0.2837(6) 0.00477(16)
C17 C 0.8146(5) 0.3079(3) 0.0156(2)
H9 H 0.8177 0.3376 0.0141
C18 C 0.8353(4) 0.2874(5) 0.02862(16)
C19 C 0.8307(5) 0.2429(5) 0.03085(16)
C20 C 0.8055(5) 0.2188(3) 0.0201(2)
C21 C 0.8513(6) 0.2231(6) 0.0444(2)
H10 H 0.8676 0.2402 0.0515
C22 C 0.8478(5) 0.1783(6) 0.0474(2)
C23 C 0.8228(6) 0.1542(5) 0.0368(2)
H11 H 0.8196 0.1245 0.0386
C24 C 0.8016(7) 0.1744(5) 0.0231(3)
H12 H 0.7849 0.1574 0.0160
C25 C 0.8630(6) 0.3125(6) 0.0404(2)
H13 H 0.8839 0.2984 0.0467
C26 C 0.8569(7) 0.3574(6) 0.0418(3)
H14 H 0.8357 0.3714 0.0357
C27 C 0.8718(7) 0.1621(6) 0.0616(3)
H15 H 0.8913 0.1788 0.0676
C28 C 0.8624(7) 0.1189(6) 0.0653(2)
H16 H 0.8419 0.1024 0.0597
O1 O 0.9968(7) 0.4410(6) 0.0930(2)
O2 O 0.9471(6) 0.4916(7) 0.0940(2)
O3 O 0.9461(6) 0.0043(7) 0.1223(3)
O4 O 0.9901(8) 0.0584(5) 0.1261(3)
Cu3 Cu 0.9729(3) 0.5284(2) 0.11063(11)
O15 O 0.9901(8) 0.4416(5) 0.1239(3)
O17 O 0.6958(4) 0.2320(6) 0.0076(2)
H36 H 0.699806 0.26379 0.00618638
O5 O 0.7680(6) 0.3042(4) 0.9924(2)
Cu8 Cu 0.4716(2) 0.0271(3) 0.88937(11)
C29 C 0.6179(6) 0.1151(6) 0.94674(15)
C30 C 0.6345(4) 0.0764(7) 0.9407(2)
H17 H 0.6615 0.0665 0.9442
C31 C 0.6109(6) 0.0524(4) 0.9293(2)
H18 H 0.6221 0.0265 0.9252
C32 C 0.5706(6) 0.0672(6) 0.92403(14)
C33 C 0.5539(4) 0.1059(7) 0.9301(2)
H19 H 0.5269 0.1158 0.9266
C34 C 0.5775(6) 0.1299(5) 0.9415(2)
H20 H 0.5664 0.1558 0.9456
C35 C 0.5435(7) 0.0400(7) 0.9114(2)
C36 C 0.8977(6) 0.1106(6) 0.92069(14)
C37 C 0.8746(3) 0.0770(7) 0.9134(2)
H21 H 0.8469 0.0702 0.9171
C38 C 0.8929(6) 0.0536(5) 0.9006(2)
H22 H 0.8774 0.0311 0.8957
C39 C 0.9343(6) 0.0638(6) 0.89504(15)
C40 C 0.9575(4) 0.0974(7) 0.9023(2)
H23 H 0.9852 0.1043 0.8986
C41 C 0.9392(6) 0.1208(5) 0.9151(2)
H24 H 0.9547 0.1433 0.9200
C42 C 0.9569(9) 0.0417(8) 0.8817(3)
C43 C 0.7608(5) 0.2152(5) 0.99299(18)
C44 C 0.7163(6) 0.2106(5) 0.99523(16)
C45 C 0.6921(3) 0.1854(5) 0.9844(2)
H25 H 0.6624 0.1823 0.9859
C46 C 0.7126(5) 0.1647(4) 0.97138(16)
C47 C 0.7571(5) 0.1693(5) 0.96915(16)
C48 C 0.7812(3) 0.1945(5) 0.9799(2)
C49 C 0.7769(6) 0.1487(6) 0.9556(2)
H26 H 0.7598 0.1324 0.9485
C50 C 0.8217(6) 0.1522(5) 0.9526(2)
C51 C 0.8458(5) 0.1772(6) 0.9632(2)
H27 H 0.8755 0.1804 0.9614
C52 C 0.8256(5) 0.1984(7) 0.9769(3)
H28 H 0.8426 0.2151 0.9840
C53 C 0.6875(6) 0.1370(6) 0.9596(2)
H29 H 0.7016 0.1161 0.9533
C54 C 0.6426(6) 0.1431(7) 0.9582(3)
H30 H 0.6286 0.1643 0.9643
C55 C 0.8379(6) 0.1282(7) 0.9384(3)
H31 H 0.8212 0.1087 0.9324
C56 C 0.8811(6) 0.1376(7) 0.9347(2)
H32 H 0.8976 0.1581 0.9403
O7 O 0.5590(6) 0.0032(7) 0.9070(2)
O8 O 0.5084(7) 0.0529(6) 0.9060(2)
O11 O 0.9957(7) 0.0539(6) 0.8777(3)
O14 O 0.9416(5) 0.0099(8) 0.8739(3)
O16 O 0.5584(5) 0.0099(8) 0.8761(3)
H33 H 0.73621 0.300194 0.993814
Cu4 Cu 0.9729(3) 0.9716(2) 0.13937(11)
Cu2 Cu 0.5284(2) 0.9729(3) 0.88937(11)
Cu7 Cu 0.9716(2) 0.9729(3) 0.86063(11)
O10 O 0.4916(7) 0.9471(6) 0.9060(2)
O13 O 0.4957(7) 0.9461(6) 0.8723(3)
O18 O 0.5754(4) 0.9256(6) 0.8893(2)
H37 H 0.576605 0.911524 0.90024
H38 H 0.568316 0.90349 0.880851
Cu8_2 Cu 0.0284(2) 0.4729(3) 0.38937(11)
O10_2 O 0.0084(7) 0.5529(6) 0.4060(2)
O13_2 O 0.0043(7) 0.5539(6) 0.3723(3)
Cu1_2 Cu 0.4729(3) 0.0284(2) 0.61063(11)
C1_2 C 0.6151(6) 0.1179(6) 0.55326(15)
C2_2 C 0.5764(7) 0.1345(4) 0.5593(2)
H1_2 H 0.5665 0.1615 0.5558
C3_2 C 0.5524(4) 0.1109(6) 0.5707(2)
H2_2 H 0.5265 0.1221 0.5748
C4_2 C 0.5672(6) 0.0706(6) 0.57597(14)
C5_2 C 0.6059(7) 0.0539(4) 0.5699(2)
H3_2 H 0.6158 0.0269 0.5734
C6_2 C 0.6299(5) 0.0775(6) 0.5585(2)
H4_2 H 0.6558 0.0664 0.5544
C7_2 C 0.5400(7) 0.0435(7) 0.5886(2)
C8_2 C 0.6106(6) 0.3977(6) 0.57931(14)
C9_2 C 0.5770(7) 0.3746(3) 0.5866(2)
H5_2 H 0.5702 0.3469 0.5829
C10_2 C 0.5536(5) 0.3929(6) 0.5994(2)
H6_2 H 0.5311 0.3774 0.6043
C11_2 C 0.5638(6) 0.4343(6) 0.60496(15)
C12_2 C 0.5974(7) 0.4575(4) 0.5977(2)
H7_2 H 0.6043 0.4852 0.6014
C13_2 C 0.6208(5) 0.4392(6) 0.5849(2)
H8_2 H 0.6433 0.4547 0.5800
C14_2 C 0.5417(8) 0.4569(9) 0.6183(3)
C15_2 C 0.7152(5) 0.2608(5) 0.50701(18)
C16_2 C 0.7106(5) 0.2163(6) 0.50477(16)
C17_2 C 0.6854(5) 0.1921(3) 0.5156(2)
H9_2 H 0.6823 0.1624 0.5141
C18_2 C 0.6647(4) 0.2126(5) 0.52862(16)
C19_2 C 0.6693(5) 0.2571(5) 0.53085(16)
C20_2 C 0.6945(5) 0.2812(3) 0.5201(2)
C21_2 C 0.6487(6) 0.2769(6) 0.5444(2)
H10_2 H 0.6324 0.2598 0.5515
C22_2 C 0.6522(5) 0.3217(6) 0.5474(2)
C23_2 C 0.6772(6) 0.3458(5) 0.5368(2)
H11_2 H 0.6804 0.3755 0.5386
C24_2 C 0.6984(7) 0.3256(5) 0.5231(3)
H12_2 H 0.7151 0.3426 0.5160
C25_2 C 0.6370(6) 0.1875(6) 0.5404(2)
H13_2 H 0.6161 0.2016 0.5467
C26_2 C 0.6431(7) 0.1426(6) 0.5418(3)
H14_2 H 0.6643 0.1286 0.5357
C27_2 C 0.6282(7) 0.3379(6) 0.5616(3)
H15_2 H 0.6087 0.3212 0.5676
C28_2 C 0.6376(7) 0.3811(6) 0.5653(2)
H16_2 H 0.6581 0.3976 0.5597
O1_2 O 0.5032(7) 0.0590(6) 0.5930(2)
O2_2 O 0.5529(6) 0.0084(7) 0.5940(2)
O3_2 O 0.5539(6) 0.4957(7) 0.6223(3)
O4_2 O 0.5099(8) 0.4416(5) 0.6261(3)
O5_2 O 0.7320(6) 0.1958(4) 0.4924(2)
O6_2 O 0.4256(6) 0.0754(4) 0.6107(2)
Cu2_2 Cu 0.9716(2) 0.5271(3) 0.38937(11)
Cu4_2 Cu 0.5271(3) 0.5284(2) 0.63937(11)
Cu5_2 Cu 0.4729(3) 0.4716(2) 0.63937(11)
Cu6_2 Cu 0.4716(2) 0.4729(3) 0.36063(11)
Cu7_2 Cu 0.5284(2) 0.5271(3) 0.36063(11)
C29_2 C 0.8821(6) 0.3849(6) 0.44674(15)
C30_2 C 0.8655(4) 0.4236(7) 0.4407(2)
H17_2 H 0.8385 0.4335 0.4442
C31_2 C 0.8891(6) 0.4476(4) 0.4293(2)
H18_2 H 0.8779 0.4735 0.4252
C32_2 C 0.9294(6) 0.4328(6) 0.42403(14)
C33_2 C 0.9461(4) 0.3941(7) 0.4301(2)
H19_2 H 0.9731 0.3842 0.4266
C34_2 C 0.9225(6) 0.3701(5) 0.4415(2)
H20_2 H 0.9336 0.3442 0.4456
C35_2 C 0.9565(7) 0.4600(7) 0.4114(2)
C36_2 C 0.6023(6) 0.3894(6) 0.42069(14)
C37_2 C 0.6254(3) 0.4230(7) 0.4134(2)
H21_2 H 0.6531 0.4298 0.4171
C38_2 C 0.6071(6) 0.4464(5) 0.4006(2)
H22_2 H 0.6226 0.4689 0.3957
C39_2 C 0.5657(6) 0.4362(6) 0.39504(15)
C40_2 C 0.5425(4) 0.4026(7) 0.4023(2)
H23_2 H 0.5148 0.3957 0.3986
C41_2 C 0.5608(6) 0.3792(5) 0.4151(2)
H24_2 H 0.5453 0.3567 0.4200
C42_2 C 0.5431(9) 0.4583(8) 0.3817(3)
C43_2 C 0.7392(5) 0.2848(5) 0.49299(18)
C44_2 C 0.7837(6) 0.2894(5) 0.49523(16)
C45_2 C 0.8079(3) 0.3146(5) 0.4844(2)
H25_2 H 0.8376 0.3177 0.4859
C46_2 C 0.7874(5) 0.3353(4) 0.47138(16)
C47_2 C 0.7429(5) 0.3307(5) 0.46915(16)
C48_2 C 0.7188(3) 0.3055(5) 0.4799(2)
C49_2 C 0.7231(6) 0.3513(6) 0.4556(2)
H26_2 H 0.7402 0.3676 0.4485
C50_2 C 0.6783(6) 0.3478(5) 0.4526(2)
C51_2 C 0.6542(5) 0.3228(6) 0.4632(2)
H27_2 H 0.6245 0.3196 0.4614
C52_2 C 0.6744(5) 0.3016(7) 0.4769(3)
H28_2 H 0.6574 0.2849 0.4840
C53_2 C 0.8125(6) 0.3630(6) 0.4596(2)
H29_2 H 0.7984 0.3839 0.4533
C54_2 C 0.8574(6) 0.3569(7) 0.4582(3)
H30_2 H 0.8714 0.3357 0.4643
C55_2 C 0.6621(6) 0.3718(7) 0.4384(3)
H31_2 H 0.6788 0.3913 0.4324
C56_2 C 0.6189(6) 0.3624(7) 0.4347(2)
H32_2 H 0.6024 0.3419 0.4403
O7_2 O 0.9410(6) 0.4968(7) 0.4070(2)
O8_2 O 0.9916(7) 0.4471(6) 0.4060(2)
O11_2 O 0.5043(7) 0.4461(6) 0.3777(3)
O14_2 O 0.5584(5) 0.4901(8) 0.3739(3)
O15_2 O 0.5099(8) 0.0584(5) 0.6239(3)
O16_2 O 0.9416(5) 0.4901(8) 0.3761(3)
O17_2 O 0.8042(4) 0.2680(6) 0.5076(2)
O18_2 O 0.9246(4) 0.5744(6) 0.3893(2)
H33_2 H 0.76379 0.199806 0.493814
H34_2 H 0.411524 0.0766051 0.59976
H35_2 H 0.40349 0.0683164 0.619149
H36_2 H 0.800194 0.23621 0.506186
H37_2 H 0.923395 0.588476 0.40024
H38_2 H 0.931684 0.59651 0.380851
Cu3_2 Cu 0.5271(3) 0.9716(2) 0.61063(11)
O9_2 O 0.4471(6) 0.9916(7) 0.5940(2)
O12_2 O 0.4461(6) 0.9957(7) 0.6277(3)
O18_3 O 0.0744(6) 0.0754(4) 0.1393(2)
H37_3 H 0.0884755 0.0766051 0.15024
H38_3 H 0.09651 0.0683164 0.130851
O10_3 O 0.0529(6) 0.9916(7) 0.1560(2)
O13_3 O 0.0539(6) 0.9957(7) 0.1223(3)
C1_3 C 0.6179(6) 0.3849(6) 0.30326(15)
C2_3 C 0.6345(4) 0.4236(7) 0.3093(2)
H1_3 H 0.6615 0.4335 0.3058
C3_3 C 0.6109(6) 0.4476(4) 0.3207(2)
H2_3 H 0.6221 0.4735 0.3248
C4_3 C 0.5706(6) 0.4328(6) 0.32597(14)
C5_3 C 0.5539(4) 0.3941(7) 0.3199(2)
H3_3 H 0.5269 0.3842 0.3234
C6_3 C 0.5775(6) 0.3701(5) 0.3085(2)
H4_3 H 0.5664 0.3442 0.3044
C7_3 C 0.5435(7) 0.4600(7) 0.3386(2)
C8_3 C 0.8977(6) 0.3894(6) 0.32931(14)
C9_3 C 0.8746(3) 0.4230(7) 0.3366(2)
H5_3 H 0.8469 0.4298 0.3329
C10_3 C 0.8929(6) 0.4464(5) 0.3494(2)
H6_3 H 0.8774 0.4689 0.3543
C11_3 C 0.9343(6) 0.4362(6) 0.35496(15)
C12_3 C 0.9575(4) 0.4026(7) 0.3477(2)
H7_3 H 0.9852 0.3957 0.3514
C13_3 C 0.9392(6) 0.3792(5) 0.3349(2)
H8_3 H 0.9547 0.3567 0.3300
C14_3 C 0.9569(9) 0.4583(8) 0.3683(3)
C15_3 C 0.7608(5) 0.2848(5) 0.25701(18)
C16_3 C 0.7163(6) 0.2894(5) 0.25477(16)
C17_3 C 0.6921(3) 0.3146(5) 0.2656(2)
H9_3 H 0.6624 0.3177 0.2641
C18_3 C 0.7126(5) 0.3353(4) 0.27862(16)
C19_3 C 0.7571(5) 0.3307(5) 0.28085(16)
C20_3 C 0.7812(3) 0.3055(5) 0.2701(2)
C21_3 C 0.7769(6) 0.3513(6) 0.2944(2)
H10_3 H 0.7598 0.3676 0.3015
C22_3 C 0.8217(6) 0.3478(5) 0.2974(2)
C23_3 C 0.8458(5) 0.3228(6) 0.2868(2)
H11_3 H 0.8755 0.3196 0.2886
C24_3 C 0.8256(5) 0.3016(7) 0.2731(3)
H12_3 H 0.8426 0.2849 0.2660
C25_3 C 0.6875(6) 0.3630(6) 0.2904(2)
H13_3 H 0.7016 0.3839 0.2967
C26_3 C 0.6426(6) 0.3569(7) 0.2918(3)
H14_3 H 0.6286 0.3357 0.2857
C27_3 C 0.8379(6) 0.3718(7) 0.3116(3)
H15_3 H 0.8212 0.3913 0.3176
C28_3 C 0.8811(6) 0.3624(7) 0.3153(2)
H16_3 H 0.8976 0.3419 0.3097
O1_3 O 0.5590(6) 0.4968(7) 0.3430(2)
O2_3 O 0.5084(7) 0.4471(6) 0.3440(2)
O3_3 O 0.9957(7) 0.4461(6) 0.3723(3)
O5_3 O 0.6958(4) 0.2680(6) 0.2424(2)
O6_3 O 0.5754(4) 0.5744(6) 0.3607(2)
C29_3 C 0.8849(6) 0.1179(6) 0.19674(15)
C30_3 C 0.9236(7) 0.1345(4) 0.1907(2)
H17_3 H 0.9335 0.1615 0.1942
C31_3 C 0.9476(4) 0.1109(6) 0.1793(2)
H18_3 H 0.9735 0.1221 0.1752
C32_3 C 0.9328(6) 0.0706(6) 0.17403(14)
C33_3 C 0.8941(7) 0.0539(4) 0.1801(2)
H19_3 H 0.8842 0.0269 0.1766
C34_3 C 0.8701(5) 0.0775(6) 0.1915(2)
H20_3 H 0.8442 0.0664 0.1956
C35_3 C 0.9600(7) 0.0435(7) 0.1614(2)
C36_3 C 0.8894(6) 0.3977(6) 0.17069(14)
C37_3 C 0.9230(7) 0.3746(3) 0.1634(2)
H21_3 H 0.9298 0.3469 0.1671
C38_3 C 0.9464(5) 0.3929(6) 0.1506(2)
H22_3 H 0.9689 0.3774 0.1457
C39_3 C 0.9362(6) 0.4343(6) 0.14504(15)
C40_3 C 0.9026(7) 0.4575(4) 0.1523(2)
H23_3 H 0.8957 0.4852 0.1486
C41_3 C 0.8792(5) 0.4392(6) 0.1651(2)
H24_3 H 0.8567 0.4547 0.1700
C42_3 C 0.9583(8) 0.4569(9) 0.1317(3)
C43_3 C 0.7848(5) 0.2608(5) 0.24299(18)
C44_3 C 0.7894(5) 0.2163(6) 0.24523(16)
C45_3 C 0.8146(5) 0.1921(3) 0.2344(2)
H25_3 H 0.8177 0.1624 0.2359
C46_3 C 0.8353(4) 0.2126(5) 0.22138(16)
C47_3 C 0.8307(5) 0.2571(5) 0.21915(16)
C48_3 C 0.8055(5) 0.2812(3) 0.2299(2)
C49_3 C 0.8513(6) 0.2769(6) 0.2056(2)
H26_3 H 0.8676 0.2598 0.1985
C50_3 C 0.8478(5) 0.3217(6) 0.2026(2)
C51_3 C 0.8228(6) 0.3458(5) 0.2132(2)
H27_3 H 0.8196 0.3755 0.2114
C52_3 C 0.8016(7) 0.3256(5) 0.2269(3)
H28_3 H 0.7849 0.3426 0.2340
C53_3 C 0.8630(6) 0.1875(6) 0.2096(2)
H29_3 H 0.8839 0.2016 0.2033
C54_3 C 0.8569(7) 0.1426(6) 0.2082(3)
H30_3 H 0.8357 0.1286 0.2143
C55_3 C 0.8718(7) 0.3379(6) 0.1884(3)
H31_3 H 0.8913 0.3212 0.1824
C56_3 C 0.8624(7) 0.3811(6) 0.1847(2)
H32_3 H 0.8419 0.3976 0.1903
O7_3 O 0.9968(7) 0.0590(6) 0.1570(2)
O8_3 O 0.9471(6) 0.0084(7) 0.1560(2)
O9_3 O 0.4916(7) 0.5529(6) 0.3440(2)
O11_3 O 0.9461(6) 0.4957(7) 0.1277(3)
O12_3 O 0.4957(7) 0.5539(6) 0.3777(3)
O17_3 O 0.7680(6) 0.1958(4) 0.2576(2)
H33_3 H 0.699806 0.23621 0.243814
H34_3 H 0.576605 0.588476 0.34976
H35_3 H 0.568316 0.59651 0.369149
H36_3 H 0.73621 0.199806 0.256186
O9_4 O 0.0084(7) 0.9471(6) 0.8440(2)
O12_4 O 0.0043(7) 0.9461(6) 0.8777(3)
C1_4 C 0.8821(6) 0.1151(6) 0.80326(15)
C2_4 C 0.8655(4) 0.0764(7) 0.8093(2)
H1_4 H 0.8385 0.0665 0.8058
C3_4 C 0.8891(6) 0.0524(4) 0.8207(2)
H2_4 H 0.8779 0.0265 0.8248
C4_4 C 0.9294(6) 0.0672(6) 0.82597(14)
C5_4 C 0.9461(4) 0.1059(7) 0.8199(2)
H3_4 H 0.9731 0.1158 0.8234
C6_4 C 0.9225(6) 0.1299(5) 0.8085(2)
H4_4 H 0.9336 0.1558 0.8044
C7_4 C 0.9565(7) 0.0400(7) 0.8386(2)
C8_4 C 0.6023(6) 0.1106(6) 0.82931(14)
C9_4 C 0.6254(3) 0.0770(7) 0.8366(2)
H5_4 H 0.6531 0.0702 0.8329
C10_4 C 0.6071(6) 0.0536(5) 0.8494(2)
H6_4 H 0.6226 0.0311 0.8543
C11_4 C 0.5657(6) 0.0638(6) 0.85496(15)
C12_4 C 0.5425(4) 0.0974(7) 0.8477(2)
H7_4 H 0.5148 0.1043 0.8514
C13_4 C 0.5608(6) 0.1208(5) 0.8349(2)
H8_4 H 0.5453 0.1433 0.8300
C14_4 C 0.5431(9) 0.0417(8) 0.8683(3)
C15_4 C 0.7392(5) 0.2152(5) 0.75701(18)
C16_4 C 0.7837(6) 0.2106(5) 0.75477(16)
C17_4 C 0.8079(3) 0.1854(5) 0.7656(2)
H9_4 H 0.8376 0.1823 0.7641
C18_4 C 0.7874(5) 0.1647(4) 0.77862(16)
C19_4 C 0.7429(5) 0.1693(5) 0.78085(16)
C20_4 C 0.7188(3) 0.1945(5) 0.7701(2)
C21_4 C 0.7231(6) 0.1487(6) 0.7944(2)
H10_4 H 0.7402 0.1324 0.8015
C22_4 C 0.6783(6) 0.1522(5) 0.7974(2)
C23_4 C 0.6542(5) 0.1772(6) 0.7868(2)
H11_4 H 0.6245 0.1804 0.7886
C24_4 C 0.6744(5) 0.1984(7) 0.7731(3)
H12_4 H 0.6574 0.2151 0.7660
C25_4 C 0.8125(6) 0.1370(6) 0.7904(2)
H13_4 H 0.7984 0.1161 0.7967
C26_4 C 0.8574(6) 0.1431(7) 0.7918(3)
H14_4 H 0.8714 0.1643 0.7857
C27_4 C 0.6621(6) 0.1282(7) 0.8116(3)
H15_4 H 0.6788 0.1087 0.8176
C28_4 C 0.6189(6) 0.1376(7) 0.8153(2)
H16_4 H 0.6024 0.1581 0.8097
O1_4 O 0.9410(6) 0.0032(7) 0.8430(2)
O2_4 O 0.9916(7) 0.0529(6) 0.8440(2)
O3_4 O 0.5043(7) 0.0539(6) 0.8723(3)
O5_4 O 0.8042(4) 0.2320(6) 0.7424(2)
C29_4 C 0.6151(6) 0.3821(6) 0.69674(15)
C30_4 C 0.5764(7) 0.3655(4) 0.6907(2)
H17_4 H 0.5665 0.3385 0.6942
C31_4 C 0.5524(4) 0.3891(6) 0.6793(2)
H18_4 H 0.5265 0.3779 0.6752
C32_4 C 0.5672(6) 0.4294(6) 0.67403(14)
C33_4 C 0.6059(7) 0.4461(4) 0.6801(2)
H19_4 H 0.6158 0.4731 0.6766
C34_4 C 0.6299(5) 0.4225(6) 0.6915(2)
H20_4 H 0.6558 0.4336 0.6956
C35_4 C 0.5400(7) 0.4565(7) 0.6614(2)
C36_4 C 0.6106(6) 0.1023(6) 0.67069(14)
C37_4 C 0.5770(7) 0.1254(3) 0.6634(2)
H21_4 H 0.5702 0.1531 0.6671
C38_4 C 0.5536(5) 0.1071(6) 0.6506(2)
H22_4 H 0.5311 0.1226 0.6457
C39_4 C 0.5638(6) 0.0657(6) 0.64504(15)
C40_4 C 0.5974(7) 0.0425(4) 0.6523(2)
H23_4 H 0.6043 0.0148 0.6486
C41_4 C 0.6208(5) 0.0608(6) 0.6651(2)
H24_4 H 0.6433 0.0453 0.6700
C42_4 C 0.5417(8) 0.0431(9) 0.6317(3)
C43_4 C 0.7152(5) 0.2392(5) 0.74299(18)
C44_4 C 0.7106(5) 0.2837(6) 0.74523(16)
C45_4 C 0.6854(5) 0.3079(3) 0.7344(2)
H25_4 H 0.6823 0.3376 0.7359
C46_4 C 0.6647(4) 0.2874(5) 0.72138(16)
C47_4 C 0.6693(5) 0.2429(5) 0.71915(16)
C48_4 C 0.6945(5) 0.2188(3) 0.7299(2)
C49_4 C 0.6487(6) 0.2231(6) 0.7056(2)
H26_4 H 0.6324 0.2402 0.6985
C50_4 C 0.6522(5) 0.1783(6) 0.7026(2)
C51_4 C 0.6772(6) 0.1542(5) 0.7132(2)
H27_4 H 0.6804 0.1245 0.7114
C52_4 C 0.6984(7) 0.1744(5) 0.7269(3)
H28_4 H 0.7151 0.1574 0.7340
C53_4 C 0.6370(6) 0.3125(6) 0.7096(2)
H29_4 H 0.6161 0.2984 0.7033
C54_4 C 0.6431(7) 0.3574(6) 0.7082(3)
H30_4 H 0.6643 0.3714 0.7143
C55_4 C 0.6282(7) 0.1621(6) 0.6884(3)
H31_4 H 0.6087 0.1788 0.6824
C56_4 C 0.6376(7) 0.1189(6) 0.6847(2)
H32_4 H 0.6581 0.1024 0.6903
O7_4 O 0.5032(7) 0.4410(6) 0.6570(2)
O8_4 O 0.5529(6) 0.4916(7) 0.6560(2)
O10_4 O 0.4471(6) 0.5084(7) 0.6560(2)
O11_4 O 0.5539(6) 0.0043(7) 0.6277(3)
O13_4 O 0.4461(6) 0.5043(7) 0.6223(3)
O17_4 O 0.7320(6) 0.3042(4) 0.7576(2)
O18_4 O 0.4256(6) 0.4246(4) 0.6393(2)
H33_4 H 0.800194 0.26379 0.743814
H36_4 H 0.76379 0.300194 0.756186
H37_4 H 0.411524 0.423395 0.65024
H38_4 H 0.40349 0.431684 0.630851
O6_4 O 0.9246(4) 0.9256(6) 0.8607(2)
H34_4 H 0.923395 0.911524 0.84976
H35_4 H 0.931684 0.90349 0.869149
C1_5 C 0.3849(6) 0.8821(6) 0.55326(15)
C2_5 C 0.4236(7) 0.8655(4) 0.5593(2)
H1_5 H 0.4335 0.8385 0.5558
C3_5 C 0.4476(4) 0.8891(6) 0.5707(2)
H2_5 H 0.4735 0.8779 0.5748
C4_5 C 0.4328(6) 0.9294(6) 0.57597(14)
C5_5 C 0.3941(7) 0.9461(4) 0.5699(2)
H3_5 H 0.3842 0.9731 0.5734
C6_5 C 0.3701(5) 0.9225(6) 0.5585(2)
H4_5 H 0.3442 0.9336 0.5544
C7_5 C 0.4600(7) 0.9565(7) 0.5886(2)
C8_5 C 0.3894(6) 0.6023(6) 0.57931(14)
C9_5 C 0.4230(7) 0.6254(3) 0.5866(2)
H5_5 H 0.4298 0.6531 0.5829
C10_5 C 0.4464(5) 0.6071(6) 0.5994(2)
H6_5 H 0.4689 0.6226 0.6043
C11_5 C 0.4362(6) 0.5657(6) 0.60496(15)
C12_5 C 0.4026(7) 0.5425(4) 0.5977(2)
H7_5 H 0.3957 0.5148 0.6014
C13_5 C 0.3792(5) 0.5608(6) 0.5849(2)
H8_5 H 0.3567 0.5453 0.5800
C14_5 C 0.4583(8) 0.5431(9) 0.6183(3)
C15_5 C 0.2848(5) 0.7392(5) 0.50701(18)
C16_5 C 0.2894(5) 0.7837(6) 0.50477(16)
C17_5 C 0.3146(5) 0.8079(3) 0.5156(2)
H9_5 H 0.3177 0.8376 0.5141
C18_5 C 0.3353(4) 0.7874(5) 0.52862(16)
C19_5 C 0.3307(5) 0.7429(5) 0.53085(16)
C20_5 C 0.3055(5) 0.7188(3) 0.5201(2)
C21_5 C 0.3513(6) 0.7231(6) 0.5444(2)
H10_5 H 0.3676 0.7402 0.5515
C22_5 C 0.3478(5) 0.6783(6) 0.5474(2)
C23_5 C 0.3228(6) 0.6542(5) 0.5368(2)
H11_5 H 0.3196 0.6245 0.5386
C24_5 C 0.3016(7) 0.6744(5) 0.5231(3)
H12_5 H 0.2849 0.6574 0.5160
C25_5 C 0.3630(6) 0.8125(6) 0.5404(2)
H13_5 H 0.3839 0.7984 0.5467
C26_5 C 0.3569(7) 0.8574(6) 0.5418(3)
H14_5 H 0.3357 0.8714 0.5357
C27_5 C 0.3718(7) 0.6621(6) 0.5616(3)
H15_5 H 0.3913 0.6788 0.5676
C28_5 C 0.3624(7) 0.6189(6) 0.5653(2)
H16_5 H 0.3419 0.6024 0.5597
O1_5 O 0.4968(7) 0.9410(6) 0.5930(2)
O4_3 O 0.4901(8) 0.5584(5) 0.6261(3)
O5_5 O 0.2680(6) 0.8042(4) 0.4924(2)
O6_5 O 0.5744(6) 0.9246(4) 0.6107(2)
C29_5 C 0.1179(6) 0.6151(6) 0.44674(15)
C30_5 C 0.1345(4) 0.5764(7) 0.4407(2)
H17_5 H 0.1615 0.5665 0.4442
C31_5 C 0.1109(6) 0.5524(4) 0.4293(2)
H18_5 H 0.1221 0.5265 0.4252
C32_5 C 0.0706(6) 0.5672(6) 0.42403(14)
C33_5 C 0.0539(4) 0.6059(7) 0.4301(2)
H19_5 H 0.0269 0.6158 0.4266
C34_5 C 0.0775(6) 0.6299(5) 0.4415(2)
H20_5 H 0.0664 0.6558 0.4456
C35_5 C 0.0435(7) 0.5400(7) 0.4114(2)
C36_5 C 0.3977(6) 0.6106(6) 0.42069(14)
C37_5 C 0.3746(3) 0.5770(7) 0.4134(2)
H21_5 H 0.3469 0.5702 0.4171
C38_5 C 0.3929(6) 0.5536(5) 0.4006(2)
H22_5 H 0.3774 0.5311 0.3957
C39_5 C 0.4343(6) 0.5638(6) 0.39504(15)
C40_5 C 0.4575(4) 0.5974(7) 0.4023(2)
H23_5 H 0.4852 0.6043 0.3986
C41_5 C 0.4392(6) 0.6208(5) 0.4151(2)
H24_5 H 0.4547 0.6433 0.4200
C42_5 C 0.4569(9) 0.5417(8) 0.3817(3)
C43_5 C 0.2608(5) 0.7152(5) 0.49299(18)
C44_5 C 0.2163(6) 0.7106(5) 0.49523(16)
C45_5 C 0.1921(3) 0.6854(5) 0.4844(2)
H25_5 H 0.1624 0.6823 0.4859
C46_5 C 0.2126(5) 0.6647(4) 0.47138(16)
C47_5 C 0.2571(5) 0.6693(5) 0.46915(16)
C48_5 C 0.2812(3) 0.6945(5) 0.4799(2)
C49_5 C 0.2769(6) 0.6487(6) 0.4556(2)
H26_5 H 0.2598 0.6324 0.4485
C50_5 C 0.3217(6) 0.6522(5) 0.4526(2)
C51_5 C 0.3458(5) 0.6772(6) 0.4632(2)
H27_5 H 0.3755 0.6804 0.4614
C52_5 C 0.3256(5) 0.6984(7) 0.4769(3)
H28_5 H 0.3426 0.7151 0.4840
C53_5 C 0.1875(6) 0.6370(6) 0.4596(2)
H29_5 H 0.2016 0.6161 0.4533
C54_5 C 0.1426(6) 0.6431(7) 0.4582(3)
H30_5 H 0.1286 0.6643 0.4643
C55_5 C 0.3379(6) 0.6282(7) 0.4384(3)
H31_5 H 0.3212 0.6087 0.4324
C56_5 C 0.3811(6) 0.6376(7) 0.4347(2)
H32_5 H 0.3976 0.6581 0.4403
O7_5 O 0.0590(6) 0.5032(7) 0.4070(2)
O14_3 O 0.4416(5) 0.5099(8) 0.3739(3)
O15_3 O 0.4901(8) 0.9416(5) 0.6239(3)
O16_3 O 0.0584(5) 0.5099(8) 0.3761(3)
O17_5 O 0.1958(4) 0.7320(6) 0.5076(2)
O18_5 O 0.0754(4) 0.4256(6) 0.3893(2)
H33_5 H 0.23621 0.800194 0.493814
H34_5 H 0.588476 0.923395 0.59976
H35_5 H 0.59651 0.931684 0.619149
H36_5 H 0.199806 0.76379 0.506186
H37_5 H 0.0766051 0.411524 0.40024
H38_5 H 0.0683164 0.40349 0.380851
O18_6 O 0.4246(4) 0.0744(6) 0.8893(2)
H37_6 H 0.423395 0.0884755 0.90024
H38_6 H 0.431684 0.09651 0.880851
C1_6 C 0.1151(6) 0.6179(6) 0.05326(15)
C2_6 C 0.0764(7) 0.6345(4) 0.0593(2)
H1_6 H 0.0665 0.6615 0.0558
C3_6 C 0.0524(4) 0.6109(6) 0.0707(2)
H2_6 H 0.0265 0.6221 0.0748
C4_6 C 0.0672(6) 0.5706(6) 0.07597(14)
C5_6 C 0.1059(7) 0.5539(4) 0.0699(2)
H3_6 H 0.1158 0.5269 0.0734
C6_6 C 0.1299(5) 0.5775(6) 0.0585(2)
H4_6 H 0.1558 0.5664 0.0544
C7_6 C 0.0400(7) 0.5435(7) 0.0886(2)
C8_6 C 0.1106(6) 0.8977(6) 0.07931(14)
C9_6 C 0.0770(7) 0.8746(3) 0.0866(2)
H5_6 H 0.0702 0.8469 0.0829
C10_6 C 0.0536(5) 0.8929(6) 0.0994(2)
H6_6 H 0.0311 0.8774 0.1043
C11_6 C 0.0638(6) 0.9343(6) 0.10496(15)
C12_6 C 0.0974(7) 0.9575(4) 0.0977(2)
H7_6 H 0.1043 0.9852 0.1014
C13_6 C 0.1208(5) 0.9392(6) 0.0849(2)
H8_6 H 0.1433 0.9547 0.0800
C14_6 C 0.0417(8) 0.9569(9) 0.1183(3)
C15_6 C 0.2152(5) 0.7608(5) 0.00701(18)
C16_6 C 0.2106(5) 0.7163(6) 0.00477(16)
C17_6 C 0.1854(5) 0.6921(3) 0.0156(2)
H9_6 H 0.1823 0.6624 0.0141
C18_6 C 0.1647(4) 0.7126(5) 0.02862(16)
C19_6 C 0.1693(5) 0.7571(5) 0.03085(16)
C20_6 C 0.1945(5) 0.7812(3) 0.0201(2)
C21_6 C 0.1487(6) 0.7769(6) 0.0444(2)
H10_6 H 0.1324 0.7598 0.0515
C22_6 C 0.1522(5) 0.8217(6) 0.0474(2)
C23_6 C 0.1772(6) 0.8458(5) 0.0368(2)
H11_6 H 0.1804 0.8755 0.0386
C24_6 C 0.1984(7) 0.8256(5) 0.0231(3)
H12_6 H 0.2151 0.8426 0.0160
C25_6 C 0.1370(6) 0.6875(6) 0.0404(2)
H13_6 H 0.1161 0.7016 0.0467
C26_6 C 0.1431(7) 0.6426(6) 0.0418(3)
H14_6 H 0.1643 0.6286 0.0357
C27_6 C 0.1282(7) 0.8379(6) 0.0616(3)
H15_6 H 0.1087 0.8212 0.0676
C28_6 C 0.1376(7) 0.8811(6) 0.0653(2)
H16_6 H 0.1581 0.8976 0.0597
O1_6 O 0.0032(7) 0.5590(6) 0.0930(2)
O4_4 O 0.0099(8) 0.9416(5) 0.1261(3)
O15_4 O 0.0099(8) 0.5584(5) 0.1239(3)
O17_6 O 0.3042(4) 0.7680(6) 0.0076(2)
H36_6 H 0.300194 0.73621 0.00618638
O5_6 O 0.2320(6) 0.6958(4) 0.9924(2)
C29_6 C 0.3821(6) 0.8849(6) 0.94674(15)
C30_6 C 0.3655(4) 0.9236(7) 0.9407(2)
H17_6 H 0.3385 0.9335 0.9442
C31_6 C 0.3891(6) 0.9476(4) 0.9293(2)
H18_6 H 0.3779 0.9735 0.9252
C32_6 C 0.4294(6) 0.9328(6) 0.92403(14)
C33_6 C 0.4461(4) 0.8941(7) 0.9301(2)
H19_6 H 0.4731 0.8842 0.9266
C34_6 C 0.4225(6) 0.8701(5) 0.9415(2)
H20_6 H 0.4336 0.8442 0.9456
C35_6 C 0.4565(7) 0.9600(7) 0.9114(2)
C36_6 C 0.1023(6) 0.8894(6) 0.92069(14)
C37_6 C 0.1254(3) 0.9230(7) 0.9134(2)
H21_6 H 0.1531 0.9298 0.9171
C38_6 C 0.1071(6) 0.9464(5) 0.9006(2)
H22_6 H 0.1226 0.9689 0.8957
C39_6 C 0.0657(6) 0.9362(6) 0.89504(15)
C40_6 C 0.0425(4) 0.9026(7) 0.9023(2)
H23_6 H 0.0148 0.8957 0.8986
C41_6 C 0.0608(6) 0.8792(5) 0.9151(2)
H24_6 H 0.0453 0.8567 0.9200
C42_6 C 0.0431(9) 0.9583(8) 0.8817(3)
C43_6 C 0.2392(5) 0.7848(5) 0.99299(18)
C44_6 C 0.2837(6) 0.7894(5) 0.99523(16)
C45_6 C 0.3079(3) 0.8146(5) 0.9844(2)
H25_6 H 0.3376 0.8177 0.9859
C46_6 C 0.2874(5) 0.8353(4) 0.97138(16)
C47_6 C 0.2429(5) 0.8307(5) 0.96915(16)
C48_6 C 0.2188(3) 0.8055(5) 0.9799(2)
C49_6 C 0.2231(6) 0.8513(6) 0.9556(2)
H26_6 H 0.2402 0.8676 0.9485
C50_6 C 0.1783(6) 0.8478(5) 0.9526(2)
C51_6 C 0.1542(5) 0.8228(6) 0.9632(2)
H27_6 H 0.1245 0.8196 0.9614
C52_6 C 0.1744(5) 0.8016(7) 0.9769(3)
H28_6 H 0.1574 0.7849 0.9840
C53_6 C 0.3125(6) 0.8630(6) 0.9596(2)
H29_6 H 0.2984 0.8839 0.9533
C54_6 C 0.3574(6) 0.8569(7) 0.9582(3)
H30_6 H 0.3714 0.8357 0.9643
C55_6 C 0.1621(6) 0.8718(7) 0.9384(3)
H31_6 H 0.1788 0.8913 0.9324
C56_6 C 0.1189(6) 0.8624(7) 0.9347(2)
H32_6 H 0.1024 0.8419 0.9403
O7_6 O 0.4410(6) 0.9968(7) 0.9070(2)
O14_4 O 0.0584(5) 0.9901(8) 0.8739(3)
O16_4 O 0.4416(5) 0.9901(8) 0.8761(3)
H33_6 H 0.26379 0.699806 0.993814
O6_6 O 0.9256(6) 0.5754(4) 0.1107(2)
H34_6 H 0.911524 0.576605 0.0997602
H35_6 H 0.90349 0.568316 0.119149
O6_7 O 0.0754(4) 0.0744(6) 0.8607(2)
H34_7 H 0.0766051 0.0884755 0.84976
H35_7 H 0.0683164 0.09651 0.869149
C1_7 C 0.1179(6) 0.8849(6) 0.80326(15)
C2_7 C 0.1345(4) 0.9236(7) 0.8093(2)
H1_7 H 0.1615 0.9335 0.8058
C3_7 C 0.1109(6) 0.9476(4) 0.8207(2)
H2_7 H 0.1221 0.9735 0.8248
C4_7 C 0.0706(6) 0.9328(6) 0.82597(14)
C5_7 C 0.0539(4) 0.8941(7) 0.8199(2)
H3_7 H 0.0269 0.8842 0.8234
C6_7 C 0.0775(6) 0.8701(5) 0.8085(2)
H4_7 H 0.0664 0.8442 0.8044
C7_7 C 0.0435(7) 0.9600(7) 0.8386(2)
C8_7 C 0.3977(6) 0.8894(6) 0.82931(14)
C9_7 C 0.3746(3) 0.9230(7) 0.8366(2)
H5_7 H 0.3469 0.9298 0.8329
C10_7 C 0.3929(6) 0.9464(5) 0.8494(2)
H6_7 H 0.3774 0.9689 0.8543
C11_7 C 0.4343(6) 0.9362(6) 0.85496(15)
C12_7 C 0.4575(4) 0.9026(7) 0.8477(2)
H7_7 H 0.4852 0.8957 0.8514
C13_7 C 0.4392(6) 0.8792(5) 0.8349(2)
H8_7 H 0.4547 0.8567 0.8300
C14_7 C 0.4569(9) 0.9583(8) 0.8683(3)
C15_7 C 0.2608(5) 0.7848(5) 0.75701(18)
C16_7 C 0.2163(6) 0.7894(5) 0.75477(16)
C17_7 C 0.1921(3) 0.8146(5) 0.7656(2)
H9_7 H 0.1624 0.8177 0.7641
C18_7 C 0.2126(5) 0.8353(4) 0.77862(16)
C19_7 C 0.2571(5) 0.8307(5) 0.78085(16)
C20_7 C 0.2812(3) 0.8055(5) 0.7701(2)
C21_7 C 0.2769(6) 0.8513(6) 0.7944(2)
H10_7 H 0.2598 0.8676 0.8015
C22_7 C 0.3217(6) 0.8478(5) 0.7974(2)
C23_7 C 0.3458(5) 0.8228(6) 0.7868(2)
H11_7 H 0.3755 0.8196 0.7886
C24_7 C 0.3256(5) 0.8016(7) 0.7731(3)
H12_7 H 0.3426 0.7849 0.7660
C25_7 C 0.1875(6) 0.8630(6) 0.7904(2)
H13_7 H 0.2016 0.8839 0.7967
C26_7 C 0.1426(6) 0.8569(7) 0.7918(3)
H14_7 H 0.1286 0.8357 0.7857
C27_7 C 0.3379(6) 0.8718(7) 0.8116(3)
H15_7 H 0.3212 0.8913 0.8176
C28_7 C 0.3811(6) 0.8624(7) 0.8153(2)
H16_7 H 0.3976 0.8419 0.8097
O1_7 O 0.0590(6) 0.9968(7) 0.8430(2)
O5_7 O 0.1958(4) 0.7680(6) 0.7424(2)
C29_7 C 0.3849(6) 0.6179(6) 0.69674(15)
C30_7 C 0.4236(7) 0.6345(4) 0.6907(2)
H17_7 H 0.4335 0.6615 0.6942
C31_7 C 0.4476(4) 0.6109(6) 0.6793(2)
H18_7 H 0.4735 0.6221 0.6752
C32_7 C 0.4328(6) 0.5706(6) 0.67403(14)
C33_7 C 0.3941(7) 0.5539(4) 0.6801(2)
H19_7 H 0.3842 0.5269 0.6766
C34_7 C 0.3701(5) 0.5775(6) 0.6915(2)
H20_7 H 0.3442 0.5664 0.6956
C35_7 C 0.4600(7) 0.5435(7) 0.6614(2)
C36_7 C 0.3894(6) 0.8977(6) 0.67069(14)
C37_7 C 0.4230(7) 0.8746(3) 0.6634(2)
H21_7 H 0.4298 0.8469 0.6671
C38_7 C 0.4464(5) 0.8929(6) 0.6506(2)
H22_7 H 0.4689 0.8774 0.6457
C39_7 C 0.4362(6) 0.9343(6) 0.64504(15)
C40_7 C 0.4026(7) 0.9575(4) 0.6523(2)
H23_7 H 0.3957 0.9852 0.6486
C41_7 C 0.3792(5) 0.9392(6) 0.6651(2)
H24_7 H 0.3567 0.9547 0.6700
C42_7 C 0.4583(8) 0.9569(9) 0.6317(3)
C43_7 C 0.2848(5) 0.7608(5) 0.74299(18)
C44_7 C 0.2894(5) 0.7163(6) 0.74523(16)
C45_7 C 0.3146(5) 0.6921(3) 0.7344(2)
H25_7 H 0.3177 0.6624 0.7359
C46_7 C 0.3353(4) 0.7126(5) 0.72138(16)
C47_7 C 0.3307(5) 0.7571(5) 0.71915(16)
C48_7 C 0.3055(5) 0.7812(3) 0.7299(2)
C49_7 C 0.3513(6) 0.7769(6) 0.7056(2)
H26_7 H 0.3676 0.7598 0.6985
C50_7 C 0.3478(5) 0.8217(6) 0.7026(2)
C51_7 C 0.3228(6) 0.8458(5) 0.7132(2)
H27_7 H 0.3196 0.8755 0.7114
C52_7 C 0.3016(7) 0.8256(5) 0.7269(3)
H28_7 H 0.2849 0.8426 0.7340
C53_7 C 0.3630(6) 0.6875(6) 0.7096(2)
H29_7 H 0.3839 0.7016 0.7033
C54_7 C 0.3569(7) 0.6426(6) 0.7082(3)
H30_7 H 0.3357 0.6286 0.7143
C55_7 C 0.3718(7) 0.8379(6) 0.6884(3)
H31_7 H 0.3913 0.8212 0.6824
C56_7 C 0.3624(7) 0.8811(6) 0.6847(2)
H32_7 H 0.3419 0.8976 0.6903
O7_7 O 0.4968(7) 0.5590(6) 0.6570(2)
O17_7 O 0.2680(6) 0.6958(4) 0.7576(2)
O18_7 O 0.5744(6) 0.5754(4) 0.6393(2)
H33_7 H 0.199806 0.73621 0.743814
H36_7 H 0.23621 0.699806 0.756186
H37_7 H 0.588476 0.576605 0.65024
H38_7 H 0.59651 0.568316 0.630851
C1_8 C 0.3821(6) 0.6151(6) 0.30326(15)
C2_8 C 0.3655(4) 0.5764(7) 0.3093(2)
H1_8 H 0.3385 0.5665 0.3058
C3_8 C 0.3891(6) 0.5524(4) 0.3207(2)
H2_8 H 0.3779 0.5265 0.3248
C4_8 C 0.4294(6) 0.5672(6) 0.32597(14)
C5_8 C 0.4461(4) 0.6059(7) 0.3199(2)
H3_8 H 0.4731 0.6158 0.3234
C6_8 C 0.4225(6) 0.6299(5) 0.3085(2)
H4_8 H 0.4336 0.6558 0.3044
C7_8 C 0.4565(7) 0.5400(7) 0.3386(2)
C8_8 C 0.1023(6) 0.6106(6) 0.32931(14)
C9_8 C 0.1254(3) 0.5770(7) 0.3366(2)
H5_8 H 0.1531 0.5702 0.3329
C10_8 C 0.1071(6) 0.5536(5) 0.3494(2)
H6_8 H 0.1226 0.5311 0.3543
C11_8 C 0.0657(6) 0.5638(6) 0.35496(15)
C12_8 C 0.0425(4) 0.5974(7) 0.3477(2)
H7_8 H 0.0148 0.6043 0.3514
C13_8 C 0.0608(6) 0.6208(5) 0.3349(2)
H8_8 H 0.0453 0.6433 0.3300
C14_8 C 0.0431(9) 0.5417(8) 0.3683(3)
C15_8 C 0.2392(5) 0.7152(5) 0.25701(18)
C16_8 C 0.2837(6) 0.7106(5) 0.25477(16)
C17_8 C 0.3079(3) 0.6854(5) 0.2656(2)
H9_8 H 0.3376 0.6823 0.2641
C18_8 C 0.2874(5) 0.6647(4) 0.27862(16)
C19_8 C 0.2429(5) 0.6693(5) 0.28085(16)
C20_8 C 0.2188(3) 0.6945(5) 0.2701(2)
C21_8 C 0.2231(6) 0.6487(6) 0.2944(2)
H10_8 H 0.2402 0.6324 0.3015
C22_8 C 0.1783(6) 0.6522(5) 0.2974(2)
C23_8 C 0.1542(5) 0.6772(6) 0.2868(2)
H11_8 H 0.1245 0.6804 0.2886
C24_8 C 0.1744(5) 0.6984(7) 0.2731(3)
H12_8 H 0.1574 0.7151 0.2660
C25_8 C 0.3125(6) 0.6370(6) 0.2904(2)
H13_8 H 0.2984 0.6161 0.2967
C26_8 C 0.3574(6) 0.6431(7) 0.2918(3)
H14_8 H 0.3714 0.6643 0.2857
C27_8 C 0.1621(6) 0.6282(7) 0.3116(3)
H15_8 H 0.1788 0.6087 0.3176
C28_8 C 0.1189(6) 0.6376(7) 0.3153(2)
H16_8 H 0.1024 0.6581 0.3097
O1_8 O 0.4410(6) 0.5032(7) 0.3430(2)
O5_8 O 0.3042(4) 0.7320(6) 0.2424(2)
O6_8 O 0.4246(4) 0.4256(6) 0.3607(2)
C29_8 C 0.1151(6) 0.8821(6) 0.19674(15)
C30_8 C 0.0764(7) 0.8655(4) 0.1907(2)
H17_8 H 0.0665 0.8385 0.1942
C31_8 C 0.0524(4) 0.8891(6) 0.1793(2)
H18_8 H 0.0265 0.8779 0.1752
C32_8 C 0.0672(6) 0.9294(6) 0.17403(14)
C33_8 C 0.1059(7) 0.9461(4) 0.1801(2)
H19_8 H 0.1158 0.9731 0.1766
C34_8 C 0.1299(5) 0.9225(6) 0.1915(2)
H20_8 H 0.1558 0.9336 0.1956
C35_8 C 0.0400(7) 0.9565(7) 0.1614(2)
C36_8 C 0.1106(6) 0.6023(6) 0.17069(14)
C37_8 C 0.0770(7) 0.6254(3) 0.1634(2)
H21_8 H 0.0702 0.6531 0.1671
C38_8 C 0.0536(5) 0.6071(6) 0.1506(2)
H22_8 H 0.0311 0.6226 0.1457
C39_8 C 0.0638(6) 0.5657(6) 0.14504(15)
C40_8 C 0.0974(7) 0.5425(4) 0.1523(2)
H23_8 H 0.1043 0.5148 0.1486
C41_8 C 0.1208(5) 0.5608(6) 0.1651(2)
H24_8 H 0.1433 0.5453 0.1700
C42_8 C 0.0417(8) 0.5431(9) 0.1317(3)
C43_8 C 0.2152(5) 0.7392(5) 0.24299(18)
C44_8 C 0.2106(5) 0.7837(6) 0.24523(16)
C45_8 C 0.1854(5) 0.8079(3) 0.2344(2)
H25_8 H 0.1823 0.8376 0.2359
C46_8 C 0.1647(4) 0.7874(5) 0.22138(16)
C47_8 C 0.1693(5) 0.7429(5) 0.21915(16)
C48_8 C 0.1945(5) 0.7188(3) 0.2299(2)
C49_8 C 0.1487(6) 0.7231(6) 0.2056(2)
H26_8 H 0.1324 0.7402 0.1985
C50_8 C 0.1522(5) 0.6783(6) 0.2026(2)
C51_8 C 0.1772(6) 0.6542(5) 0.2132(2)
H27_8 H 0.1804 0.6245 0.2114
C52_8 C 0.1984(7) 0.6744(5) 0.2269(3)
H28_8 H 0.2151 0.6574 0.2340
C53_8 C 0.1370(6) 0.8125(6) 0.2096(2)
H29_8 H 0.1161 0.7984 0.2033
C54_8 C 0.1431(7) 0.8574(6) 0.2082(3)
H30_8 H 0.1643 0.8714 0.2143
C55_8 C 0.1282(7) 0.6621(6) 0.1884(3)
H31_8 H 0.1087 0.6788 0.1824
C56_8 C 0.1376(7) 0.6189(6) 0.1847(2)
H32_8 H 0.1581 0.6024 0.1903
O7_8 O 0.0032(7) 0.9410(6) 0.1570(2)
O17_8 O 0.2320(6) 0.8042(4) 0.2576(2)
H33_8 H 0.300194 0.76379 0.243814
H34_8 H 0.423395 0.411524 0.34976
H35_8 H 0.431684 0.40349 0.369149
H36_8 H 0.26379 0.800194 0.256186
O18_8 O 0.9256(6) 0.9246(4) 0.1393(2)
H37_8 H 0.911524 0.923395 0.15024
H38_8 H 0.90349 0.931684 0.130851
loop_
_geom_bond_atom_site_label_1
_geom_bond_atom_site_label_2
_geom_bond_site_symmetry_1
_geom_bond_site_symmetry_2
O6 Cu1 1_555 1_555
O9 Cu1 1_555 1_555
O12 Cu1 1_555 1_555
O6 H34 1_555 1_555
O6 H35 1_555 1_555
C1 C2 1_555 1_555
C2 H1 1_555 1_555
C3 C2 1_555 1_555
H2 C3 1_555 1_555
C4 C3 1_555 1_555
C5 C4 1_555 1_555
H3 C5 1_555 1_555
C6 C1 1_555 1_555
H4 C6 1_555 1_555
C7 C4 1_555 1_555
C8 C9 1_555 1_555
C9 H5 1_555 1_555
C10 C9 1_555 1_555
H6 C10 1_555 1_555
C11 C10 1_555 1_555
C12 C11 1_555 1_555
H7 C12 1_555 1_555
C13 C8 1_555 1_555
H8 C13 1_555 1_555
C14 C11 1_555 1_555
C15 C16 1_555 1_555
C16 C17 1_555 1_555
C17 H9 1_555 1_555
C18 C17 1_555 1_555
C19 C18 1_555 1_555
C20 C15 1_555 1_555
C21 C19 1_555 1_555
H10 C21 1_555 1_555
C22 C21 1_555 1_555
C23 C22 1_555 1_555
H11 C23 1_555 1_555
C24 C20 1_555 1_555
H12 C24 1_555 1_555
C25 C18 1_555 1_555
H13 C25 1_555 1_555
C26 C1 1_555 1_555
H14 C26 1_555 1_555
C27 C22 1_555 1_555
H15 C27 1_555 1_555
C28 C8 1_555 1_555
H16 C28 1_555 1_555
O1 C7 1_555 1_555
O2 C7 1_555 1_555
O3 C14 1_555 1_555
O4 C14 1_555 1_555
Cu3 O2 1_555 1_555
C5 C6 1_555 1_555
C12 C13 1_555 1_555
C19 C20 1_555 1_555
C23 C24 1_555 1_555
C25 C26 1_555 1_555
C27 C28 1_555 1_555
O17 H36 1_555 1_555
Cu8 O8 1_555 1_555
C29 C30 1_555 1_555
C30 H17 1_555 1_555
C31 C30 1_555 1_555
H18 C31 1_555 1_555
C32 C31 1_555 1_555
C33 C32 1_555 1_555
H19 C33 1_555 1_555
C34 C29 1_555 1_555
H20 C34 1_555 1_555
C35 C32 1_555 1_555
C36 C37 1_555 1_555
C37 H21 1_555 1_555
C38 C37 1_555 1_555
H22 C38 1_555 1_555
C39 C38 1_555 1_555
C40 C39 1_555 1_555
H23 C40 1_555 1_555
C41 C36 1_555 1_555
H24 C41 1_555 1_555
C42 C39 1_555 1_555
C44 C43 1_555 1_555
C45 C44 1_555 1_555
H25 C45 1_555 1_555
C46 C45 1_555 1_555
C47 C46 1_555 1_555
C48 C43 1_555 1_555
C49 C47 1_555 1_555
H26 C49 1_555 1_555
C50 C49 1_555 1_555
C51 C50 1_555 1_555
H27 C51 1_555 1_555
C52 C48 1_555 1_555
H28 C52 1_555 1_555
C53 C46 1_555 1_555
H29 C53 1_555 1_555
C54 C29 1_555 1_555
H30 C54 1_555 1_555
C55 C50 1_555 1_555
H31 C55 1_555 1_555
C56 C36 1_555 1_555
H32 C56 1_555 1_555
O7 C35 1_555 1_555
O8 C35 1_555 1_555
O11 C42 1_555 1_555
O14 C42 1_555 1_555
C33 C34 1_555 1_555
C40 C41 1_555 1_555
C47 C48 1_555 1_555
C51 C52 1_555 1_555
C53 C54 1_555 1_555
C55 C56 1_555 1_555
O5 H33 1_555 1_555
O10 Cu2 1_555 1_555
O13 Cu2 1_555 1_555
O18 Cu2 1_555 1_555
O18 H37 1_555 1_555
O18 H38 1_555 1_555
Cu1_2 O1_2 1_555 1_555
C1_2 C2_2 1_555 1_555
C2_2 H1_2 1_555 1_555
C3_2 C2_2 1_555 1_555
H2_2 C3_2 1_555 1_555
C4_2 C3_2 1_555 1_555
C5_2 C4_2 1_555 1_555
H3_2 C5_2 1_555 1_555
C6_2 C1_2 1_555 1_555
H4_2 C6_2 1_555 1_555
C7_2 C4_2 1_555 1_555
C8_2 C9_2 1_555 1_555
C9_2 H5_2 1_555 1_555
C10_2 C9_2 1_555 1_555
H6_2 C10_2 1_555 1_555
C11_2 C10_2 1_555 1_555
C12_2 C11_2 1_555 1_555
H7_2 C12_2 1_555 1_555
C13_2 C8_2 1_555 1_555
H8_2 C13_2 1_555 1_555
C14_2 C11_2 1_555 1_555
C15_2 C16_2 1_555 1_555
C16_2 C17_2 1_555 1_555
C17_2 H9_2 1_555 1_555
C18_2 C17_2 1_555 1_555
C19_2 C18_2 1_555 1_555
C20_2 C15_2 1_555 1_555
C21_2 C19_2 1_555 1_555
H10_2 C21_2 1_555 1_555
C22_2 C21_2 1_555 1_555
C23_2 C22_2 1_555 1_555
H11_2 C23_2 1_555 1_555
C24_2 C20_2 1_555 1_555
H12_2 C24_2 1_555 1_555
C25_2 C18_2 1_555 1_555
H13_2 C25_2 1_555 1_555
C26_2 C1_2 1_555 1_555
H14_2 C26_2 1_555 1_555
C27_2 C22_2 1_555 1_555
H15_2 C27_2 1_555 1_555
C28_2 C8_2 1_555 1_555
H16_2 C28_2 1_555 1_555
O1_2 C7_2 1_555 1_555
O2_2 C7_2 1_555 1_555
O3_2 C14_2 1_555 1_555
O4_2 C14_2 1_555 1_555
O5_2 C16_2 1_555 1_555
O6_2 Cu1_2 1_555 1_555
Cu2_2 O7_2 1_555 1_555
Cu4_2 O3_2 1_555 1_555
Cu5_2 O4_2 1_555 1_555
Cu6_2 O11_2 1_555 1_555
Cu7_2 O14_2 1_555 1_555
C29_2 C30_2 1_555 1_555
C30_2 H17_2 1_555 1_555
C31_2 C30_2 1_555 1_555
H18_2 C31_2 1_555 1_555
C32_2 C31_2 1_555 1_555
C33_2 C32_2 1_555 1_555
H19_2 C33_2 1_555 1_555
C34_2 C29_2 1_555 1_555
H20_2 C34_2 1_555 1_555
C35_2 C32_2 1_555 1_555
C36_2 C37_2 1_555 1_555
C37_2 H21_2 1_555 1_555
C38_2 C37_2 1_555 1_555
H22_2 C38_2 1_555 1_555
C39_2 C38_2 1_555 1_555
C40_2 C39_2 1_555 1_555
H23_2 C40_2 1_555 1_555
C41_2 C36_2 1_555 1_555
H24_2 C41_2 1_555 1_555
C42_2 C39_2 1_555 1_555
C43_2 C15_2 1_555 1_555
C44_2 C43_2 1_555 1_555
C45_2 C44_2 1_555 1_555
H25_2 C45_2 1_555 1_555
C46_2 C45_2 1_555 1_555
C47_2 C46_2 1_555 1_555
C48_2 C43_2 1_555 1_555
C49_2 C47_2 1_555 1_555
H26_2 C49_2 1_555 1_555
C50_2 C49_2 1_555 1_555
C51_2 C50_2 1_555 1_555
H27_2 C51_2 1_555 1_555
C52_2 C48_2 1_555 1_555
H28_2 C52_2 1_555 1_555
C53_2 C46_2 1_555 1_555
H29_2 C53_2 1_555 1_555
C54_2 C29_2 1_555 1_555
H30_2 C54_2 1_555 1_555
C55_2 C50_2 1_555 1_555
H31_2 C55_2 1_555 1_555
C56_2 C36_2 1_555 1_555
H32_2 C56_2 1_555 1_555
O7_2 C35_2 1_555 1_555
O8_2 C35_2 1_555 1_555
O11_2 C42_2 1_555 1_555
O14_2 C42_2 1_555 1_555
O15_2 Cu1_2 1_555 1_555
O16_2 Cu2_2 1_555 1_555
O17_2 C44_2 1_555 1_555
O18_2 Cu2_2 1_555 1_555
C5_2 C6_2 1_555 1_555
C12_2 C13_2 1_555 1_555
C19_2 C20_2 1_555 1_555
C23_2 C24_2 1_555 1_555
C25_2 C26_2 1_555 1_555
C27_2 C28_2 1_555 1_555
C33_2 C34_2 1_555 1_555
C40_2 C41_2 1_555 1_555
C47_2 C48_2 1_555 1_555
C51_2 C52_2 1_555 1_555
C53_2 C54_2 1_555 1_555
C55_2 C56_2 1_555 1_555
O5_2 H33_2 1_555 1_555
O6_2 H34_2 1_555 1_555
O6_2 H35_2 1_555 1_555
O17_2 H36_2 1_555 1_555
O18_2 H37_2 1_555 1_555
O18_2 H38_2 1_555 1_555
O18_3 Cu5 1_555 1_555
O18_3 H37_3 1_555 1_555
O18_3 H38_3 1_555 1_555
Cu7_2 O1_3 1_555 1_555
C1_3 C2_3 1_555 1_555
C2_3 H1_3 1_555 1_555
C3_3 C2_3 1_555 1_555
H2_3 C3_3 1_555 1_555
C4_3 C3_3 1_555 1_555
C5_3 C4_3 1_555 1_555
H3_3 C5_3 1_555 1_555
C6_3 C1_3 1_555 1_555
H4_3 C6_3 1_555 1_555
C7_3 C4_3 1_555 1_555
C8_3 C9_3 1_555 1_555
C9_3 H5_3 1_555 1_555
C10_3 C9_3 1_555 1_555
H6_3 C10_3 1_555 1_555
C11_3 C10_3 1_555 1_555
C12_3 C11_3 1_555 1_555
H7_3 C12_3 1_555 1_555
C13_3 C8_3 1_555 1_555
H8_3 C13_3 1_555 1_555
C14_3 C11_3 1_555 1_555
C15_3 C16_3 1_555 1_555
C16_3 C17_3 1_555 1_555
C17_3 H9_3 1_555 1_555
C18_3 C17_3 1_555 1_555
C19_3 C18_3 1_555 1_555
C20_3 C15_3 1_555 1_555
C21_3 C19_3 1_555 1_555
H10_3 C21_3 1_555 1_555
C22_3 C21_3 1_555 1_555
C23_3 C22_3 1_555 1_555
H11_3 C23_3 1_555 1_555
C24_3 C20_3 1_555 1_555
H12_3 C24_3 1_555 1_555
C25_3 C18_3 1_555 1_555
H13_3 C25_3 1_555 1_555
C26_3 C1_3 1_555 1_555
H14_3 C26_3 1_555 1_555
C27_3 C22_3 1_555 1_555
H15_3 C27_3 1_555 1_555
C28_3 C8_3 1_555 1_555
H16_3 C28_3 1_555 1_555
O1_3 C7_3 1_555 1_555
O2_3 C7_3 1_555 1_555
O3_3 C14_3 1_555 1_555
O16_2 C14_3 1_555 1_555
O5_3 C16_3 1_555 1_555
O6_3 Cu7_2 1_555 1_555
Cu6_2 O2_3 1_555 1_555
Cu3 O11_3 1_555 1_555
C29_3 C30_3 1_555 1_555
C30_3 H17_3 1_555 1_555
C31_3 C30_3 1_555 1_555
H18_3 C31_3 1_555 1_555
C32_3 C31_3 1_555 1_555
C33_3 C32_3 1_555 1_555
H19_3 C33_3 1_555 1_555
C34_3 C29_3 1_555 1_555
H20_3 C34_3 1_555 1_555
C35_3 C32_3 1_555 1_555
C36_3 C37_3 1_555 1_555
C37_3 H21_3 1_555 1_555
C38_3 C37_3 1_555 1_555
H22_3 C38_3 1_555 1_555
C39_3 C38_3 1_555 1_555
C40_3 C39_3 1_555 1_555
H23_3 C40_3 1_555 1_555
C41_3 C36_3 1_555 1_555
H24_3 C41_3 1_555 1_555
C42_3 C39_3 1_555 1_555
C43_3 C15_3 1_555 1_555
C44_3 C43_3 1_555 1_555
C45_3 C44_3 1_555 1_555
H25_3 C45_3 1_555 1_555
C46_3 C45_3 1_555 1_555
C47_3 C46_3 1_555 1_555
C48_3 C43_3 1_555 1_555
C49_3 C47_3 1_555 1_555
H26_3 C49_3 1_555 1_555
C50_3 C49_3 1_555 1_555
C51_3 C50_3 1_555 1_555
H27_3 C51_3 1_555 1_555
C52_3 C48_3 1_555 1_555
H28_3 C52_3 1_555 1_555
C53_3 C46_3 1_555 1_555
H29_3 C53_3 1_555 1_555
C54_3 C29_3 1_555 1_555
H30_3 C54_3 1_555 1_555
C55_3 C50_3 1_555 1_555
H31_3 C55_3 1_555 1_555
C56_3 C36_3 1_555 1_555
H32_3 C56_3 1_555 1_555
O7_3 C35_3 1_555 1_555
O8_3 C35_3 1_555 1_555
O9_3 Cu7_2 1_555 1_555
O11_3 C42_3 1_555 1_555
O12_3 Cu7_2 1_555 1_555
O15 C42_3 1_555 1_555
O17_3 C44_3 1_555 1_555
C5_3 C6_3 1_555 1_555
C12_3 C13_3 1_555 1_555
C19_3 C20_3 1_555 1_555
C23_3 C24_3 1_555 1_555
C25_3 C26_3 1_555 1_555
C27_3 C28_3 1_555 1_555
C33_3 C34_3 1_555 1_555
C40_3 C41_3 1_555 1_555
C47_3 C48_3 1_555 1_555
C51_3 C52_3 1_555 1_555
C53_3 C54_3 1_555 1_555
C55_3 C56_3 1_555 1_555
O5_3 H33_3 1_555 1_555
O6_3 H34_3 1_555 1_555
O6_3 H35_3 1_555 1_555
O17_3 H36_3 1_555 1_555
C1_4 C2_4 1_555 1_555
C2_4 H1_4 1_555 1_555
C3_4 C2_4 1_555 1_555
H2_4 C3_4 1_555 1_555
C4_4 C3_4 1_555 1_555
C5_4 C4_4 1_555 1_555
H3_4 C5_4 1_555 1_555
C6_4 C1_4 1_555 1_555
H4_4 C6_4 1_555 1_555
C7_4 C4_4 1_555 1_555
C8_4 C9_4 1_555 1_555
C9_4 H5_4 1_555 1_555
C10_4 C9_4 1_555 1_555
H6_4 C10_4 1_555 1_555
C11_4 C10_4 1_555 1_555
C12_4 C11_4 1_555 1_555
H7_4 C12_4 1_555 1_555
C13_4 C8_4 1_555 1_555
H8_4 C13_4 1_555 1_555
C14_4 C11_4 1_555 1_555
C15_4 C16_4 1_555 1_555
C16_4 C17_4 1_555 1_555
C17_4 H9_4 1_555 1_555
C18_4 C17_4 1_555 1_555
C19_4 C18_4 1_555 1_555
C20_4 C15_4 1_555 1_555
C21_4 C19_4 1_555 1_555
H10_4 C21_4 1_555 1_555
C22_4 C21_4 1_555 1_555
C23_4 C22_4 1_555 1_555
H11_4 C23_4 1_555 1_555
C24_4 C20_4 1_555 1_555
H12_4 C24_4 1_555 1_555
C25_4 C18_4 1_555 1_555
H13_4 C25_4 1_555 1_555
C26_4 C1_4 1_555 1_555
H14_4 C26_4 1_555 1_555
C27_4 C22_4 1_555 1_555
H15_4 C27_4 1_555 1_555
C28_4 C8_4 1_555 1_555
H16_4 C28_4 1_555 1_555
O1_4 C7_4 1_555 1_555
O2_4 C7_4 1_555 1_555
O3_4 C14_4 1_555 1_555
O16 C14_4 1_555 1_555
O5_4 C16_4 1_555 1_555
Cu5_2 O7_4 1_555 1_555
Cu8 O3_4 1_555 1_555
Cu4_2 O8_4 1_555 1_555
C29_4 C30_4 1_555 1_555
C30_4 H17_4 1_555 1_555
C31_4 C30_4 1_555 1_555
H18_4 C31_4 1_555 1_555
C32_4 C31_4 1_555 1_555
C33_4 C32_4 1_555 1_555
H19_4 C33_4 1_555 1_555
C34_4 C29_4 1_555 1_555
H20_4 C34_4 1_555 1_555
C35_4 C32_4 1_555 1_555
C36_4 C37_4 1_555 1_555
C37_4 H21_4 1_555 1_555
C38_4 C37_4 1_555 1_555
H22_4 C38_4 1_555 1_555
C39_4 C38_4 1_555 1_555
C40_4 C39_4 1_555 1_555
H23_4 C40_4 1_555 1_555
C41_4 C36_4 1_555 1_555
H24_4 C41_4 1_555 1_555
C42_4 C39_4 1_555 1_555
C43_4 C15_4 1_555 1_555
C44_4 C43_4 1_555 1_555
C45_4 C44_4 1_555 1_555
H25_4 C45_4 1_555 1_555
C46_4 C45_4 1_555 1_555
C47_4 C46_4 1_555 1_555
C48_4 C43_4 1_555 1_555
C49_4 C47_4 1_555 1_555
H26_4 C49_4 1_555 1_555
C50_4 C49_4 1_555 1_555
C51_4 C50_4 1_555 1_555
H27_4 C51_4 1_555 1_555
C52_4 C48_4 1_555 1_555
H28_4 C52_4 1_555 1_555
C53_4 C46_4 1_555 1_555
H29_4 C53_4 1_555 1_555
C54_4 C29_4 1_555 1_555
H30_4 C54_4 1_555 1_555
C55_4 C50_4 1_555 1_555
H31_4 C55_4 1_555 1_555
C56_4 C36_4 1_555 1_555
H32_4 C56_4 1_555 1_555
O7_4 C35_4 1_555 1_555
O8_4 C35_4 1_555 1_555
O10_4 Cu5_2 1_555 1_555
O11_4 C42_4 1_555 1_555
O13_4 Cu5_2 1_555 1_555
O15_2 C42_4 1_555 1_555
O17_4 C44_4 1_555 1_555
O18_4 Cu5_2 1_555 1_555
C5_4 C6_4 1_555 1_555
C12_4 C13_4 1_555 1_555
C19_4 C20_4 1_555 1_555
C23_4 C24_4 1_555 1_555
C25_4 C26_4 1_555 1_555
C27_4 C28_4 1_555 1_555
C33_4 C34_4 1_555 1_555
C40_4 C41_4 1_555 1_555
C47_4 C48_4 1_555 1_555
C51_4 C52_4 1_555 1_555
C53_4 C54_4 1_555 1_555
C55_4 C56_4 1_555 1_555
O5_4 H33_4 1_555 1_555
O17_4 H36_4 1_555 1_555
O18_4 H37_4 1_555 1_555
O18_4 H38_4 1_555 1_555
O6_4 Cu7 1_555 1_555
O6_4 H34_4 1_555 1_555
O6_4 H35_4 1_555 1_555
Cu3_2 O1_5 1_555 1_555
C1_5 C2_5 1_555 1_555
C2_5 H1_5 1_555 1_555
C3_5 C2_5 1_555 1_555
H2_5 C3_5 1_555 1_555
C4_5 C3_5 1_555 1_555
C5_5 C4_5 1_555 1_555
H3_5 C5_5 1_555 1_555
C6_5 C1_5 1_555 1_555
H4_5 C6_5 1_555 1_555
C7_5 C4_5 1_555 1_555
C8_5 C9_5 1_555 1_555
C9_5 H5_5 1_555 1_555
C10_5 C9_5 1_555 1_555
H6_5 C10_5 1_555 1_555
C11_5 C10_5 1_555 1_555
C12_5 C11_5 1_555 1_555
H7_5 C12_5 1_555 1_555
C13_5 C8_5 1_555 1_555
H8_5 C13_5 1_555 1_555
C14_5 C11_5 1_555 1_555
C15_5 C16_5 1_555 1_555
C16_5 C17_5 1_555 1_555
C17_5 H9_5 1_555 1_555
C18_5 C17_5 1_555 1_555
C19_5 C18_5 1_555 1_555
C20_5 C15_5 1_555 1_555
C21_5 C19_5 1_555 1_555
H10_5 C21_5 1_555 1_555
C22_5 C21_5 1_555 1_555
C23_5 C22_5 1_555 1_555
H11_5 C23_5 1_555 1_555
C24_5 C20_5 1_555 1_555
H12_5 C24_5 1_555 1_555
C25_5 C18_5 1_555 1_555
H13_5 C25_5 1_555 1_555
C26_5 C1_5 1_555 1_555
H14_5 C26_5 1_555 1_555
C27_5 C22_5 1_555 1_555
H15_5 C27_5 1_555 1_555
C28_5 C8_5 1_555 1_555
H16_5 C28_5 1_555 1_555
O1_5 C7_5 1_555 1_555
O9_2 C7_5 1_555 1_555
O13_4 C14_5 1_555 1_555
O4_3 C14_5 1_555 1_555
O5_5 C16_5 1_555 1_555
O6_5 Cu3_2 1_555 1_555
Cu8_2 O7_5 1_555 1_555
Cu4_2 O4_3 1_555 1_555
Cu6_2 O14_3 1_555 1_555
C29_5 C30_5 1_555 1_555
C30_5 H17_5 1_555 1_555
C31_5 C30_5 1_555 1_555
H18_5 C31_5 1_555 1_555
C32_5 C31_5 1_555 1_555
C33_5 C32_5 1_555 1_555
H19_5 C33_5 1_555 1_555
C34_5 C29_5 1_555 1_555
H20_5 C34_5 1_555 1_555
C35_5 C32_5 1_555 1_555
C36_5 C37_5 1_555 1_555
C37_5 H21_5 1_555 1_555
C38_5 C37_5 1_555 1_555
H22_5 C38_5 1_555 1_555
C39_5 C38_5 1_555 1_555
C40_5 C39_5 1_555 1_555
H23_5 C40_5 1_555 1_555
C41_5 C36_5 1_555 1_555
H24_5 C41_5 1_555 1_555
C42_5 C39_5 1_555 1_555
C43_5 C15_5 1_555 1_555
C44_5 C43_5 1_555 1_555
C45_5 C44_5 1_555 1_555
H25_5 C45_5 1_555 1_555
C46_5 C45_5 1_555 1_555
C47_5 C46_5 1_555 1_555
C48_5 C43_5 1_555 1_555
C49_5 C47_5 1_555 1_555
H26_5 C49_5 1_555 1_555
C50_5 C49_5 1_555 1_555
C51_5 C50_5 1_555 1_555
H27_5 C51_5 1_555 1_555
C52_5 C48_5 1_555 1_555
H28_5 C52_5 1_555 1_555
C53_5 C46_5 1_555 1_555
H29_5 C53_5 1_555 1_555
C54_5 C29_5 1_555 1_555
H30_5 C54_5 1_555 1_555
C55_5 C50_5 1_555 1_555
H31_5 C55_5 1_555 1_555
C56_5 C36_5 1_555 1_555
H32_5 C56_5 1_555 1_555
O7_5 C35_5 1_555 1_555
O10_2 C35_5 1_555 1_555
O12_3 C42_5 1_555 1_555
O14_3 C42_5 1_555 1_555
O15_3 Cu3_2 1_555 1_555
O16_3 Cu8_2 1_555 1_555
O17_5 C44_5 1_555 1_555
O18_5 Cu8_2 1_555 1_555
C5_5 C6_5 1_555 1_555
C12_5 C13_5 1_555 1_555
C19_5 C20_5 1_555 1_555
C23_5 C24_5 1_555 1_555
C25_5 C26_5 1_555 1_555
C27_5 C28_5 1_555 1_555
C33_5 C34_5 1_555 1_555
C40_5 C41_5 1_555 1_555
C47_5 C48_5 1_555 1_555
C51_5 C52_5 1_555 1_555
C53_5 C54_5 1_555 1_555
C55_5 C56_5 1_555 1_555
O5_5 H33_5 1_555 1_555
O6_5 H34_5 1_555 1_555
O6_5 H35_5 1_555 1_555
O17_5 H36_5 1_555 1_555
O18_5 H37_5 1_555 1_555
O18_5 H38_5 1_555 1_555
O18_6 Cu8 1_555 1_555
O18_6 H37_6 1_555 1_555
O18_6 H38_6 1_555 1_555
C1_6 C2_6 1_555 1_555
C2_6 H1_6 1_555 1_555
C3_6 C2_6 1_555 1_555
H2_6 C3_6 1_555 1_555
C4_6 C3_6 1_555 1_555
C5_6 C4_6 1_555 1_555
H3_6 C5_6 1_555 1_555
C6_6 C1_6 1_555 1_555
H4_6 C6_6 1_555 1_555
C7_6 C4_6 1_555 1_555
C8_6 C9_6 1_555 1_555
C9_6 H5_6 1_555 1_555
C10_6 C9_6 1_555 1_555
H6_6 C10_6 1_555 1_555
C11_6 C10_6 1_555 1_555
C12_6 C11_6 1_555 1_555
H7_6 C12_6 1_555 1_555
C13_6 C8_6 1_555 1_555
H8_6 C13_6 1_555 1_555
C14_6 C11_6 1_555 1_555
C15_6 C16_6 1_555 1_555
C16_6 C17_6 1_555 1_555
C17_6 H9_6 1_555 1_555
C18_6 C17_6 1_555 1_555
C19_6 C18_6 1_555 1_555
C20_6 C15_6 1_555 1_555
C21_6 C19_6 1_555 1_555
H10_6 C21_6 1_555 1_555
C22_6 C21_6 1_555 1_555
C23_6 C22_6 1_555 1_555
H11_6 C23_6 1_555 1_555
C24_6 C20_6 1_555 1_555
H12_6 C24_6 1_555 1_555
C25_6 C18_6 1_555 1_555
H13_6 C25_6 1_555 1_555
C26_6 C1_6 1_555 1_555
H14_6 C26_6 1_555 1_555
C27_6 C22_6 1_555 1_555
H15_6 C27_6 1_555 1_555
C28_6 C8_6 1_555 1_555
H16_6 C28_6 1_555 1_555
O1_6 C7_6 1_555 1_555
O9 C7_6 1_555 1_555
O13_3 C14_6 1_555 1_555
O4_4 C14_6 1_555 1_555
C5_6 C6_6 1_555 1_555
C12_6 C13_6 1_555 1_555
C19_6 C20_6 1_555 1_555
C23_6 C24_6 1_555 1_555
C25_6 C26_6 1_555 1_555
C27_6 C28_6 1_555 1_555
O17_6 H36_6 1_555 1_555
C29_6 C30_6 1_555 1_555
C30_6 H17_6 1_555 1_555
C31_6 C30_6 1_555 1_555
H18_6 C31_6 1_555 1_555
C32_6 C31_6 1_555 1_555
C33_6 C32_6 1_555 1_555
H19_6 C33_6 1_555 1_555
C34_6 C29_6 1_555 1_555
H20_6 C34_6 1_555 1_555
C35_6 C32_6 1_555 1_555
C36_6 C37_6 1_555 1_555
C37_6 H21_6 1_555 1_555
C38_6 C37_6 1_555 1_555
H22_6 C38_6 1_555 1_555
C39_6 C38_6 1_555 1_555
C40_6 C39_6 1_555 1_555
H23_6 C40_6 1_555 1_555
C41_6 C36_6 1_555 1_555
H24_6 C41_6 1_555 1_555
C42_6 C39_6 1_555 1_555
C44_6 C43_6 1_555 1_555
C45_6 C44_6 1_555 1_555
H25_6 C45_6 1_555 1_555
C46_6 C45_6 1_555 1_555
C47_6 C46_6 1_555 1_555
C48_6 C43_6 1_555 1_555
C49_6 C47_6 1_555 1_555
H26_6 C49_6 1_555 1_555
C50_6 C49_6 1_555 1_555
C51_6 C50_6 1_555 1_555
H27_6 C51_6 1_555 1_555
C52_6 C48_6 1_555 1_555
H28_6 C52_6 1_555 1_555
C53_6 C46_6 1_555 1_555
H29_6 C53_6 1_555 1_555
C54_6 C29_6 1_555 1_555
H30_6 C54_6 1_555 1_555
C55_6 C50_6 1_555 1_555
H31_6 C55_6 1_555 1_555
C56_6 C36_6 1_555 1_555
H32_6 C56_6 1_555 1_555
O7_6 C35_6 1_555 1_555
O10 C35_6 1_555 1_555
O12_4 C42_6 1_555 1_555
O14_4 C42_6 1_555 1_555
C33_6 C34_6 1_555 1_555
C40_6 C41_6 1_555 1_555
C47_6 C48_6 1_555 1_555
C51_6 C52_6 1_555 1_555
C53_6 C54_6 1_555 1_555
C55_6 C56_6 1_555 1_555
O5_6 H33_6 1_555 1_555
O6_6 Cu3 1_555 1_555
O6_6 H34_6 1_555 1_555
O6_6 H35_6 1_555 1_555
O6_7 Cu6 1_555 1_555
O6_7 H34_7 1_555 1_555
O6_7 H35_7 1_555 1_555
C1_7 C2_7 1_555 1_555
C2_7 H1_7 1_555 1_555
C3_7 C2_7 1_555 1_555
H2_7 C3_7 1_555 1_555
C4_7 C3_7 1_555 1_555
C5_7 C4_7 1_555 1_555
H3_7 C5_7 1_555 1_555
C6_7 C1_7 1_555 1_555
H4_7 C6_7 1_555 1_555
C7_7 C4_7 1_555 1_555
C8_7 C9_7 1_555 1_555
C9_7 H5_7 1_555 1_555
C10_7 C9_7 1_555 1_555
H6_7 C10_7 1_555 1_555
C11_7 C10_7 1_555 1_555
C12_7 C11_7 1_555 1_555
H7_7 C12_7 1_555 1_555
C13_7 C8_7 1_555 1_555
H8_7 C13_7 1_555 1_555
C14_7 C11_7 1_555 1_555
C15_7 C16_7 1_555 1_555
C16_7 C17_7 1_555 1_555
C17_7 H9_7 1_555 1_555
C18_7 C17_7 1_555 1_555
C19_7 C18_7 1_555 1_555
C20_7 C15_7 1_555 1_555
C21_7 C19_7 1_555 1_555
H10_7 C21_7 1_555 1_555
C22_7 C21_7 1_555 1_555
C23_7 C22_7 1_555 1_555
H11_7 C23_7 1_555 1_555
C24_7 C20_7 1_555 1_555
H12_7 C24_7 1_555 1_555
C25_7 C18_7 1_555 1_555
H13_7 C25_7 1_555 1_555
C26_7 C1_7 1_555 1_555
H14_7 C26_7 1_555 1_555
C27_7 C22_7 1_555 1_555
H15_7 C27_7 1_555 1_555
C28_7 C8_7 1_555 1_555
H16_7 C28_7 1_555 1_555
O1_7 C7_7 1_555 1_555
O9_4 C7_7 1_555 1_555
O13 C14_7 1_555 1_555
O16_4 C14_7 1_555 1_555
O5_7 C16_7 1_555 1_555
Cu4_2 O7_7 1_555 1_555
C29_7 C30_7 1_555 1_555
C30_7 H17_7 1_555 1_555
C31_7 C30_7 1_555 1_555
H18_7 C31_7 1_555 1_555
C32_7 C31_7 1_555 1_555
C33_7 C32_7 1_555 1_555
H19_7 C33_7 1_555 1_555
C34_7 C29_7 1_555 1_555
H20_7 C34_7 1_555 1_555
C35_7 C32_7 1_555 1_555
C36_7 C37_7 1_555 1_555
C37_7 H21_7 1_555 1_555
C38_7 C37_7 1_555 1_555
H22_7 C38_7 1_555 1_555
C39_7 C38_7 1_555 1_555
C40_7 C39_7 1_555 1_555
H23_7 C40_7 1_555 1_555
C41_7 C36_7 1_555 1_555
H24_7 C41_7 1_555 1_555
C42_7 C39_7 1_555 1_555
C43_7 C15_7 1_555 1_555
C44_7 C43_7 1_555 1_555
C45_7 C44_7 1_555 1_555
H25_7 C45_7 1_555 1_555
C46_7 C45_7 1_555 1_555
C47_7 C46_7 1_555 1_555
C48_7 C43_7 1_555 1_555
C49_7 C47_7 1_555 1_555
H26_7 C49_7 1_555 1_555
C50_7 C49_7 1_555 1_555
C51_7 C50_7 1_555 1_555
H27_7 C51_7 1_555 1_555
C52_7 C48_7 1_555 1_555
H28_7 C52_7 1_555 1_555
C53_7 C46_7 1_555 1_555
H29_7 C53_7 1_555 1_555
C54_7 C29_7 1_555 1_555
H30_7 C54_7 1_555 1_555
C55_7 C50_7 1_555 1_555
H31_7 C55_7 1_555 1_555
C56_7 C36_7 1_555 1_555
H32_7 C56_7 1_555 1_555
O7_7 C35_7 1_555 1_555
O10_4 C35_7 1_555 1_555
O12_2 C42_7 1_555 1_555
O15_3 C42_7 1_555 1_555
O17_7 C44_7 1_555 1_555
O18_7 Cu4_2 1_555 1_555
C5_7 C6_7 1_555 1_555
C12_7 C13_7 1_555 1_555
C19_7 C20_7 1_555 1_555
C23_7 C24_7 1_555 1_555
C25_7 C26_7 1_555 1_555
C27_7 C28_7 1_555 1_555
C33_7 C34_7 1_555 1_555
C40_7 C41_7 1_555 1_555
C47_7 C48_7 1_555 1_555
C51_7 C52_7 1_555 1_555
C53_7 C54_7 1_555 1_555
C55_7 C56_7 1_555 1_555
O5_7 H33_7 1_555 1_555
O17_7 H36_7 1_555 1_555
O18_7 H37_7 1_555 1_555
O18_7 H38_7 1_555 1_555
Cu6_2 O1_8 1_555 1_555
C1_8 C2_8 1_555 1_555
C2_8 H1_8 1_555 1_555
C3_8 C2_8 1_555 1_555
H2_8 C3_8 1_555 1_555
C4_8 C3_8 1_555 1_555
C5_8 C4_8 1_555 1_555
H3_8 C5_8 1_555 1_555
C6_8 C1_8 1_555 1_555
H4_8 C6_8 1_555 1_555
C7_8 C4_8 1_555 1_555
C8_8 C9_8 1_555 1_555
C9_8 H5_8 1_555 1_555
C10_8 C9_8 1_555 1_555
H6_8 C10_8 1_555 1_555
C11_8 C10_8 1_555 1_555
C12_8 C11_8 1_555 1_555
H7_8 C12_8 1_555 1_555
C13_8 C8_8 1_555 1_555
H8_8 C13_8 1_555 1_555
C14_8 C11_8 1_555 1_555
C15_8 C16_8 1_555 1_555
C16_8 C17_8 1_555 1_555
C17_8 H9_8 1_555 1_555
C18_8 C17_8 1_555 1_555
C19_8 C18_8 1_555 1_555
C20_8 C15_8 1_555 1_555
C21_8 C19_8 1_555 1_555
H10_8 C21_8 1_555 1_555
C22_8 C21_8 1_555 1_555
C23_8 C22_8 1_555 1_555
H11_8 C23_8 1_555 1_555
C24_8 C20_8 1_555 1_555
H12_8 C24_8 1_555 1_555
C25_8 C18_8 1_555 1_555
H13_8 C25_8 1_555 1_555
C26_8 C1_8 1_555 1_555
H14_8 C26_8 1_555 1_555
C27_8 C22_8 1_555 1_555
H15_8 C27_8 1_555 1_555
C28_8 C8_8 1_555 1_555
H16_8 C28_8 1_555 1_555
O1_8 C7_8 1_555 1_555
O9_3 C7_8 1_555 1_555
O13_2 C14_8 1_555 1_555
O16_3 C14_8 1_555 1_555
O5_8 C16_8 1_555 1_555
O6_8 Cu6_2 1_555 1_555
C29_8 C30_8 1_555 1_555
C30_8 H17_8 1_555 1_555
C31_8 C30_8 1_555 1_555
H18_8 C31_8 1_555 1_555
C32_8 C31_8 1_555 1_555
C33_8 C32_8 1_555 1_555
H19_8 C33_8 1_555 1_555
C34_8 C29_8 1_555 1_555
H20_8 C34_8 1_555 1_555
C35_8 C32_8 1_555 1_555
C36_8 C37_8 1_555 1_555
C37_8 H21_8 1_555 1_555
C38_8 C37_8 1_555 1_555
H22_8 C38_8 1_555 1_555
C39_8 C38_8 1_555 1_555
C40_8 C39_8 1_555 1_555
H23_8 C40_8 1_555 1_555
C41_8 C36_8 1_555 1_555
H24_8 C41_8 1_555 1_555
C42_8 C39_8 1_555 1_555
C43_8 C15_8 1_555 1_555
C44_8 C43_8 1_555 1_555
C45_8 C44_8 1_555 1_555
H25_8 C45_8 1_555 1_555
C46_8 C45_8 1_555 1_555
C47_8 C46_8 1_555 1_555
C48_8 C43_8 1_555 1_555
C49_8 C47_8 1_555 1_555
H26_8 C49_8 1_555 1_555
C50_8 C49_8 1_555 1_555
C51_8 C50_8 1_555 1_555
H27_8 C51_8 1_555 1_555
C52_8 C48_8 1_555 1_555
H28_8 C52_8 1_555 1_555
C53_8 C46_8 1_555 1_555
H29_8 C53_8 1_555 1_555
C54_8 C29_8 1_555 1_555
H30_8 C54_8 1_555 1_555
C55_8 C50_8 1_555 1_555
H31_8 C55_8 1_555 1_555
C56_8 C36_8 1_555 1_555
H32_8 C56_8 1_555 1_555
O7_8 C35_8 1_555 1_555
O10_3 C35_8 1_555 1_555
O12 C42_8 1_555 1_555
O15_4 C42_8 1_555 1_555
O17_8 C44_8 1_555 1_555
C5_8 C6_8 1_555 1_555
C12_8 C13_8 1_555 1_555
C19_8 C20_8 1_555 1_555
C23_8 C24_8 1_555 1_555
C25_8 C26_8 1_555 1_555
C27_8 C28_8 1_555 1_555
C33_8 C34_8 1_555 1_555
C40_8 C41_8 1_555 1_555
C47_8 C48_8 1_555 1_555
C51_8 C52_8 1_555 1_555
C53_8 C54_8 1_555 1_555
C55_8 C56_8 1_555 1_555
O5_8 H33_8 1_555 1_555
O6_8 H34_8 1_555 1_555
O6_8 H35_8 1_555 1_555
O17_8 H36_8 1_555 1_555
O18_8 Cu4 1_555 1_555
O18_8 H37_8 1_555 1_555
O18_8 H38_8 1_555 1_555

#END
