
###############################################################################
#
# This file contains modified crystal structure data generated from the
# MOF subset of the Cambridge Structural Database (CSD) v543 
# hosted by the Cambridge Crystallographic Data Centre (CCDC).
#
# This work is licensed under the Creative Commons
# Attribution-NonCommercial-ShareAlike 4.0 International License.
# To view a copy of this license, visit
# http://creativecommons.org/licenses/by-nc-sa/4.0/
# or send a letter to
# Creative Commons, PO Box 1866, Mountain View, CA 94042, USA.
#
# CIF created using the CSD Python API on 29 September 2022
# The structure has been converted into the P1 space group
# The structure has a 3D framework
# The original CSD entry XAJGIC is in the rhombohedral crystal system
# The framework has been calculated to contain at least 10.0% void space
# The void calculation uses a probe of radius 1.32A, grid spacing 0.4
#
###############################################################################

data_XAJGIC
_chemical_formula_moiety         '(C648 H1188 Cu54 N72 O216)n'
_symmetry_cell_setting           triclinic
_symmetry_space_group_name_H-M   'P 1'
_symmetry_Int_Tables_number      1
_space_group_name_Hall           'P 1'
loop_
_symmetry_equiv_pos_site_id
_symmetry_equiv_pos_as_xyz
1 x,y,z
_cell_length_a                   42.4074(7)
_cell_length_b                   42.4074(7)
_cell_length_c                   15.4383(3)
_cell_angle_alpha                90
_cell_angle_beta                 90
_cell_angle_gamma                120
_cell_volume                     24044.4
loop_
_atom_site_label
_atom_site_type_symbol
_atom_site_fract_x
_atom_site_fract_y
_atom_site_fract_z
Cu1 Cu 0.52109(2) 0.64334(2) 0.20905(2)
Cu2 Cu 0.54619(2) 0.71236(2) 0.17715(2)
Cu3 Cu 0.49013(2) 0.50890(2) 0.42811(2)
N1 N 0.49524(5) 0.58312(5) 0.21612(14)
N2 N 0.43791(5) 0.52617(5) 0.19246(14)
N3 N 0.48131(5) 0.52900(5) 0.30161(13)
N4 N 0.49544(5) 0.53124(5) 0.14675(14)
C1 C 0.49872(6) 0.56917(6) 0.30151(16)
H1 H 0.524835 0.579958 0.316158
H2 H 0.487234 0.576768 0.346490
C2 C 0.49890(7) 0.51849(7) 0.23226(17)
H3 H 0.525037 0.528858 0.246100
H4 H 0.487561 0.491650 0.231086
C3 C 0.44234(6) 0.51328(7) 0.27867(16)
H5 H 0.430145 0.520248 0.323196
H6 H 0.430445 0.486381 0.278135
C4 C 0.45694(7) 0.51579(7) 0.12629(17)
H7 H 0.445221 0.488923 0.123757
H8 H 0.454475 0.524510 0.068582
C5 C 0.51256(7) 0.57104(6) 0.14971(17)
H9 H 0.510526 0.580112 0.092090
H10 H 0.538765 0.581731 0.163261
C6 C 0.45590(6) 0.56642(6) 0.19497(17)
H11 H 0.443863 0.573787 0.239035
H12 H 0.453165 0.575499 0.137989
O1 O 0.59015(5) 0.70908(5) 0.14430(13)
O2 O 0.56663(5) 0.64955(5) 0.16423(15)
C7 C 0.59254(7) 0.68097(7) 0.14692(17)
C8 C 0.62950(8) 0.68421(8) 0.1310(2)
C9 C 0.65698(9) 0.72163(10) 0.0964(3)
H13 H 0.648392 0.725735 0.040865
H14 H 0.659735 0.740318 0.137912
H15 H 0.680524 0.722961 0.088024
C10 C 0.62489(11) 0.65529(10) 0.0632(3)
H16 H 0.617324 0.660637 0.007772
H17 H 0.648103 0.655832 0.055807
H18 H 0.606321 0.631101 0.083282
C11 C 0.64111(11) 0.67620(15) 0.2163(3)
H19 H 0.622706 0.651911 0.236248
H20 H 0.664492 0.677051 0.209268
H21 H 0.643703 0.694408 0.259156
O3 O 0.56325(6) 0.71951(5) 0.29668(13)
O4 O 0.54564(6) 0.66142(5) 0.32213(13)
C12 C 0.56081(7) 0.69405(7) 0.34395(18)
C13 C 0.57681(8) 0.70446(8) 0.4355(2)
C14 C 0.61012(11) 0.74245(10) 0.4363(3)
H22 H 0.603357 0.760043 0.415020
H23 H 0.619462 0.748853 0.495538
H24 H 0.628986 0.742920 0.398744
C15 C 0.58733(10) 0.67719(10) 0.4685(2)
H25 H 0.565887 0.652714 0.468018
H26 H 0.606203 0.677671 0.430959
H27 H 0.596679 0.683604 0.527753
C16 C 0.54636(11) 0.70291(11) 0.4918(2)
H28 H 0.539697 0.720539 0.470253
H29 H 0.525071 0.678366 0.489375
H30 H 0.554819 0.708846 0.551825
O5 O 0.49817(5) 0.70204(5) 0.22128(16)
O6 O 0.47901(5) 0.64399(5) 0.25470(14)
C17 C 0.47552(7) 0.67177(8) 0.25341(19)
C18 C 0.44174(8) 0.66869(8) 0.2969(2)
C19 C 0.42635(12) 0.68817(14) 0.2403(3)
H31 H 0.418267 0.675672 0.184465
H32 H 0.405674 0.687639 0.270086
H33 H 0.445381 0.713504 0.230710
C20 C 0.45406(12) 0.68870(13) 0.3831(3)
H34 H 0.472709 0.714113 0.372736
H35 H 0.433180 0.687860 0.412547
H36 H 0.464200 0.676987 0.419451
C21 C 0.41267(11) 0.62901(11) 0.3110(4)
H37 H 0.405092 0.616596 0.254963
H38 H 0.422624 0.617027 0.347060
H39 H 0.391604 0.627900 0.340156
O7 O 0.52588(5) 0.69829(6) 0.06135(13)
O8 O 0.50187(5) 0.63905(5) 0.08907(13)
C22 C 0.50699(8) 0.66509(8) 0.04117(19)
H40 H 0.441349 0.651256 0.009973
O9 O 0.48725(5) 0.54577(5) 0.49898(13)
O10 O 0.50466(6) 0.53091(5) 0.62094(13)
C27 C 0.49432(7) 0.54929(7) 0.57823(19)
C28 C 0.48994(9) 0.57813(8) 0.6288(2)
C29 C 0.47686(13) 0.59792(11) 0.5682(3)
H49 H 0.494797 0.610059 0.522021
H50 H 0.453411 0.580256 0.542676
H51 H 0.474017 0.616092 0.601184
C30 C 0.52695(11) 0.60528(10) 0.6668(3)
H52 H 0.544394 0.617448 0.619717
H53 H 0.524680 0.623454 0.701250
H54 H 0.535569 0.592371 0.703874
C31 C 0.46258(12) 0.55902(10) 0.7012(3)
H55 H 0.438894 0.541650 0.676253
H56 H 0.471045 0.546012 0.738383
H57 H 0.460157 0.577095 0.735759
O11 O 0.44002(5) 0.47379(5) 0.46200(13)
O12 O 0.45704(5) 0.45878(5) 0.58486(12)
C32 C 0.43349(7) 0.45697(7) 0.53264(18)
C33 C 0.39340(7) 0.43345(8) 0.55931(19)
C34 C 0.36904(9) 0.41796(12) 0.4813(2)
H58 H 0.373290 0.437759 0.441631
H59 H 0.374465 0.400797 0.451569
H60 H 0.343526 0.405258 0.499850
C35 C 0.38820(9) 0.40400(10) 0.6241(3)
H61 H 0.404516 0.415273 0.673540
H62 H 0.362897 0.391146 0.644221
H63 H 0.393836 0.386685 0.595940
C36 C 0.38441(9) 0.46034(10) 0.6072(2)
H64 H 0.400251 0.470412 0.657954
H65 H 0.388424 0.480167 0.567947
H66 H 0.358909 0.447350 0.625866
Cu4 Cu 0.37903(2) 0.49950(3) 0.15618(2)
Cu5 Cu 0.50987(2) 0.49110(2) 0.57189(2)
N5 N 0.57841(7) 0.77124(5) 0.14087(14)
O13 O 0.49534(6) 0.46909(5) 0.37906(13)
O14 O 0.54296(5) 0.54122(5) 0.41514(12)
H63_2 H 0.613315 0.007151 0.595940
Cu5_2 Cu 0.50890(2) 0.01877(3) 0.57189(2)
O13_2 O 0.53091(5) 0.02625(8) 0.37906(13)
O14_2 O 0.45878(5) 0.00174(7) 0.41514(12)
Cu1_2 Cu 0.35666(2) 0.87775(3) 0.20905(2)
Cu2_2 Cu 0.28764(2) 0.83383(3) 0.17715(2)
Cu3_2 Cu 0.49110(2) 0.98123(3) 0.42811(2)
N1_2 N 0.41688(5) 0.91212(7) 0.21612(14)
N2_2 N 0.47383(5) 0.91174(7) 0.19246(14)
N3_2 N 0.47100(5) 0.95231(7) 0.30161(13)
N4_2 N 0.46876(5) 0.96420(7) 0.14675(14)
C1_2 C 0.43083(6) 0.92955(8) 0.30151(16)
H1_2 H 0.420042 0.944877 0.316158
H2_2 H 0.423232 0.910466 0.346490
C2_2 C 0.48151(7) 0.98041(10) 0.23226(17)
H3_2 H 0.471142 0.996179 0.246100
H4_2 H 0.508350 0.995911 0.231086
C3_2 C 0.48672(7) 0.92906(9) 0.27867(16)
H5_2 H 0.479752 0.909897 0.323196
H6_2 H 0.513619 0.944064 0.278135
C4_2 C 0.48421(7) 0.94115(10) 0.12629(17)
H7_2 H 0.511077 0.956298 0.123757
H8_2 H 0.475490 0.929965 0.068582
C5_2 C 0.42896(6) 0.94152(9) 0.14971(17)
H9_2 H 0.419888 0.930414 0.092090
H10_2 H 0.418269 0.957034 0.163261
C6_2 C 0.43358(6) 0.88948(8) 0.19497(17)
H11_2 H 0.426213 0.870076 0.239035
H12_2 H 0.424501 0.877666 0.137989
O1_2 O 0.29092(5) 0.88107(7) 0.14430(13)
O2_2 O 0.35045(5) 0.91708(7) 0.16423(15)
C7_2 C 0.31903(7) 0.91157(10) 0.14692(17)
C8_2 C 0.31579(8) 0.94529(11) 0.1310(2)
C9_2 C 0.27837(10) 0.93535(13) 0.0964(3)
H13_2 H 0.274265 0.922657 0.040865
H14_2 H 0.259682 0.919417 0.137912
H15_2 H 0.277039 0.957563 0.088024
C10_2 C 0.34471(10) 0.96960(15) 0.0632(3)
H16_2 H 0.339363 0.956687 0.007772
H17_2 H 0.344168 0.992271 0.055807
H18_2 H 0.368899 0.975220 0.083282
C11_2 C 0.32380(15) 0.96491(19) 0.2163(3)
H19_2 H 0.348089 0.970795 0.236248
H20_2 H 0.322949 0.987441 0.209268
H21_2 H 0.305592 0.949295 0.259156
O3_2 O 0.28049(5) 0.84374(8) 0.29668(13)
O4_2 O 0.33858(5) 0.88422(8) 0.32213(13)
C12_2 C 0.30595(7) 0.86676(10) 0.34395(18)
C13_2 C 0.29554(8) 0.87235(11) 0.4355(2)
C14_2 C 0.25755(10) 0.86767(15) 0.4363(3)
H22_2 H 0.239957 0.843314 0.415020
H23_2 H 0.251147 0.870609 0.495538
H24_2 H 0.257080 0.886066 0.398744
C15_2 C 0.32281(10) 0.91014(14) 0.4685(2)
H25_2 H 0.347286 0.913173 0.468018
H26_2 H 0.322329 0.928532 0.430959
H27_2 H 0.316396 0.913075 0.527753
C16_2 C 0.29709(11) 0.84345(16) 0.4918(2)
H28_2 H 0.279461 0.819158 0.470253
H29_2 H 0.321634 0.846705 0.489375
H30_2 H 0.291154 0.845973 0.551825
O5_2 O 0.29796(5) 0.79613(7) 0.22128(16)
O6_2 O 0.35601(5) 0.83502(7) 0.25470(14)
C17_2 C 0.32823(8) 0.80375(11) 0.25341(19)
C18_2 C 0.33131(8) 0.77305(11) 0.2969(2)
C19_2 C 0.31183(14) 0.73818(18) 0.2403(3)
H31_2 H 0.324328 0.742595 0.184465
H32_2 H 0.312361 0.718035 0.270086
H33_2 H 0.286496 0.731877 0.230710
C20_2 C 0.31130(13) 0.76536(18) 0.3831(3)
H34_2 H 0.285887 0.758596 0.372736
H35_2 H 0.312140 0.745320 0.412547
H36_2 H 0.323013 0.787213 0.419451
C21_2 C 0.37099(11) 0.78366(16) 0.3110(4)
H37_2 H 0.383404 0.788496 0.254963
H38_2 H 0.382973 0.805597 0.347060
H39_2 H 0.372100 0.763704 0.340156
O7_2 O 0.30171(6) 0.82759(8) 0.06135(13)
O8_2 O 0.36095(5) 0.86282(7) 0.08907(13)
C22_2 C 0.33491(8) 0.84190(11) 0.04117(19)
H40_2 H 0.348744 0.790093 0.009973
O9_2 O 0.45423(5) 0.94148(7) 0.49898(13)
O10_2 O 0.46909(5) 0.97375(8) 0.62094(13)
C27_2 C 0.45071(7) 0.94503(10) 0.57823(19)
C28_2 C 0.42187(8) 0.91181(12) 0.6288(2)
C29_2 C 0.40208(11) 0.87894(17) 0.5682(3)
H49_2 H 0.389941 0.884738 0.522021
H50_2 H 0.419744 0.873155 0.542676
H51_2 H 0.383908 0.857925 0.601184
C30_2 C 0.39472(10) 0.92167(15) 0.6668(3)
H52_2 H 0.382552 0.926946 0.619717
H53_2 H 0.376546 0.901226 0.701250
H54_2 H 0.407629 0.943198 0.703874
C31_2 C 0.44098(10) 0.90356(16) 0.7012(3)
H55_2 H 0.458350 0.897244 0.676253
H56_2 H 0.453988 0.925033 0.738383
H57_2 H 0.422905 0.883062 0.735759
O11_2 O 0.52621(5) 0.96623(7) 0.46200(13)
O12_2 O 0.54122(5) 0.99826(7) 0.58486(12)
C32_2 C 0.54303(7) 0.97652(10) 0.53264(18)
C33_2 C 0.56655(8) 0.95995(11) 0.55931(19)
C34_2 C 0.58204(12) 0.95108(15) 0.4813(2)
H58_2 H 0.562241 0.935531 0.441631
H59_2 H 0.599203 0.973668 0.451569
H60_2 H 0.594742 0.938268 0.499850
C35_2 C 0.59600(10) 0.98420(13) 0.6241(3)
H61_2 H 0.584727 0.989243 0.673540
H62_2 H 0.608854 0.971751 0.644221
C36_2 C 0.53966(10) 0.92407(13) 0.6072(2)
H64_2 H 0.529588 0.929839 0.657954
H65_2 H 0.519833 0.908257 0.567947
H66_2 H 0.552650 0.911559 0.625866
Cu4_2 Cu 0.50050(3) 0.87952(4) 0.15618(2)
N5_2 N 0.22876(5) 0.80716(9) 0.14087(14)
Cu1_3 Cu 0.12225(3) 0.47891(2) 0.20905(2)
Cu2_3 Cu 0.16617(3) 0.45381(2) 0.17715(2)
Cu3_3 Cu 0.01877(3) 0.50987(2) 0.42811(2)
N1_3 N 0.08788(7) 0.50476(5) 0.21612(14)
N2_3 N 0.08826(7) 0.56209(5) 0.19246(14)
N3_3 N 0.04769(7) 0.51869(5) 0.30161(13)
N4_3 N 0.03580(7) 0.50456(5) 0.14675(14)
C1_3 C 0.07045(8) 0.50128(6) 0.30151(16)
H1_3 H 0.055123 0.475165 0.316158
H2_3 H 0.089534 0.512766 0.346490
C2_3 C 0.01959(10) 0.50110(7) 0.23226(17)
H3_3 H 0.003821 0.474963 0.246100
H4_3 H 0.004089 0.512439 0.231086
C3_3 C 0.07094(9) 0.55766(6) 0.27867(16)
H5_3 H 0.090103 0.569855 0.323196
H6_3 H 0.055936 0.569555 0.278135
C4_3 C 0.05885(10) 0.54306(7) 0.12629(17)
H7_3 H 0.043702 0.554779 0.123757
H8_3 H 0.070035 0.545525 0.068582
C5_3 C 0.05848(9) 0.48744(7) 0.14971(17)
H9_3 H 0.069586 0.489474 0.092090
H10_3 H 0.042966 0.461235 0.163261
C6_3 C 0.11052(8) 0.54410(6) 0.19497(17)
H11_3 H 0.129924 0.556137 0.239035
H12_3 H 0.122334 0.546835 0.137989
O1_3 O 0.11893(7) 0.40985(5) 0.14430(13)
O2_3 O 0.08292(7) 0.43337(5) 0.16423(15)
C7_3 C 0.08843(10) 0.40746(7) 0.14692(17)
C8_3 C 0.05471(11) 0.37050(8) 0.1310(2)
C9_3 C 0.06465(13) 0.34302(9) 0.0964(3)
H13_3 H 0.077343 0.351608 0.040865
H14_3 H 0.080583 0.340265 0.137912
H15_3 H 0.042437 0.319476 0.088024
C10_3 C 0.03040(15) 0.37511(11) 0.0632(3)
H16_3 H 0.043313 0.382676 0.007772
H17_3 H 0.007729 0.351897 0.055807
H18_3 H 0.024780 0.393679 0.083282
C11_3 C 0.03509(19) 0.35889(11) 0.2163(3)
H19_3 H 0.029205 0.377294 0.236248
H20_3 H 0.012559 0.335508 0.209268
H21_3 H 0.050705 0.356297 0.259156
O3_3 O 0.15626(8) 0.43675(6) 0.29668(13)
O4_3 O 0.11578(8) 0.45436(6) 0.32213(13)
C12_3 C 0.13324(10) 0.43919(7) 0.34395(18)
C13_3 C 0.12765(11) 0.42319(8) 0.4355(2)
C14_3 C 0.13233(15) 0.38988(11) 0.4363(3)
H22_3 H 0.156686 0.396643 0.415020
H23_3 H 0.129391 0.380538 0.495538
H24_3 H 0.113934 0.371014 0.398744
C15_3 C 0.08986(14) 0.41267(10) 0.4685(2)
H25_3 H 0.086827 0.434113 0.468018
H26_3 H 0.071468 0.393797 0.430959
H27_3 H 0.086925 0.403321 0.527753
C16_3 C 0.15655(16) 0.45364(11) 0.4918(2)
H28_3 H 0.180842 0.460303 0.470253
H29_3 H 0.153295 0.474929 0.489375
H30_3 H 0.154027 0.445181 0.551825
O5_3 O 0.20387(7) 0.50183(5) 0.22128(16)
O6_3 O 0.16498(7) 0.52099(5) 0.25470(14)
C17_3 C 0.19625(11) 0.52448(7) 0.25341(19)
C18_3 C 0.22695(11) 0.55826(8) 0.2969(2)
C19_3 C 0.26182(18) 0.57365(12) 0.2403(3)
H31_3 H 0.257405 0.581733 0.184465
H32_3 H 0.281965 0.594326 0.270086
H33_3 H 0.268123 0.554619 0.230710
C20_3 C 0.23464(18) 0.54594(12) 0.3831(3)
H34_3 H 0.241404 0.527291 0.372736
H35_3 H 0.254680 0.566820 0.412547
H36_3 H 0.212787 0.535800 0.419451
C21_3 C 0.21634(16) 0.58733(11) 0.3110(4)
H37_3 H 0.211504 0.594908 0.254963
H38_3 H 0.194403 0.577376 0.347060
H39_3 H 0.236296 0.608396 0.340156
O7_3 O 0.17241(8) 0.47412(5) 0.06135(13)
O8_3 O 0.13718(7) 0.49813(5) 0.08907(13)
C22_3 C 0.15810(11) 0.49301(8) 0.04117(19)
H40_3 H 0.209907 0.558651 0.009973
O9_3 O 0.05852(7) 0.51275(5) 0.49898(13)
O10_3 O 0.02625(8) 0.49534(6) 0.62094(13)
C27_3 C 0.05497(10) 0.50568(7) 0.57823(19)
C28_3 C 0.08819(12) 0.51006(9) 0.6288(2)
C29_3 C 0.12106(17) 0.52314(13) 0.5682(3)
H49_3 H 0.115262 0.505203 0.522021
H50_3 H 0.126845 0.546589 0.542676
H51_3 H 0.142075 0.525983 0.601184
C30_3 C 0.07833(15) 0.47305(11) 0.6668(3)
H52_3 H 0.073054 0.455606 0.619717
H53_3 H 0.098774 0.475320 0.701250
H54_3 H 0.056802 0.464431 0.703874
C31_3 C 0.09644(16) 0.53742(12) 0.7012(3)
H55_3 H 0.102756 0.561106 0.676253
H56_3 H 0.074967 0.528955 0.738383
H57_3 H 0.116938 0.539843 0.735759
O11_3 O 0.03377(7) 0.55998(5) 0.46200(13)
O12_3 O 0.00174(7) 0.54296(5) 0.58486(12)
C32_3 C 0.02348(10) 0.56651(7) 0.53264(18)
C33_3 C 0.04005(11) 0.60660(7) 0.55931(19)
C34_3 C 0.04892(15) 0.63096(9) 0.4813(2)
H58_3 H 0.064469 0.626710 0.441631
H59_3 H 0.026332 0.625535 0.451569
H60_3 H 0.061732 0.656474 0.499850
C35_3 C 0.01580(13) 0.61180(9) 0.6241(3)
H61_3 H 0.010757 0.595484 0.673540
H62_3 H 0.028249 0.637103 0.644221
C36_3 C 0.07593(13) 0.61559(9) 0.6072(2)
H64_3 H 0.070161 0.599749 0.657954
H65_3 H 0.091743 0.611576 0.567947
H66_3 H 0.088441 0.641091 0.625866
Cu4_3 Cu 0.12048(4) 0.62097(2) 0.15618(2)
N5_3 N 0.19284(9) 0.42159(7) 0.14087(14)
H63_3 H 0.992849 0.606164 0.595940
Cu5_3 Cu 0.98123(3) 0.49013(2) 0.57189(2)
O13_3 O 0.97375(8) 0.50466(6) 0.37906(13)
O14_3 O 0.99826(7) 0.45704(5) 0.41514(12)
Cu1_4 Cu 0.85442(2) 0.31001(2) 0.87572(2)
Cu2_4 Cu 0.87952(2) 0.37903(2) 0.84382(2)
N1_4 N 0.82857(5) 0.24979(5) 0.88279(14)
N2_4 N 0.77124(5) 0.19284(5) 0.85913(14)
N3_4 N 0.81464(5) 0.19567(5) 0.96828(13)
N4_4 N 0.82877(5) 0.19791(5) 0.81342(14)
C1_4 C 0.83205(6) 0.23584(6) 0.96818(16)
H1_4 H 0.858168 0.246625 0.982825
C2_4 C 0.83223(7) 0.18516(7) 0.89893(17)
H3_4 H 0.858370 0.195525 0.912767
H4_4 H 0.820894 0.158317 0.897753
C3_4 C 0.77567(6) 0.17995(7) 0.94534(16)
H5_4 H 0.763478 0.186915 0.989863
H6_4 H 0.763778 0.153048 0.944802
C4_4 C 0.79027(7) 0.18246(7) 0.79296(17)
H7_4 H 0.778554 0.155590 0.790424
H8_4 H 0.787808 0.191177 0.735249
C5_4 C 0.84589(7) 0.23771(6) 0.81638(17)
H9_4 H 0.843859 0.246779 0.758757
H10_4 H 0.872098 0.248398 0.829928
C6_4 C 0.78923(6) 0.23309(6) 0.86164(17)
H11_4 H 0.777196 0.240454 0.905702
H12_4 H 0.786498 0.242166 0.804656
O1_4 O 0.92348(5) 0.37575(5) 0.81097(13)
O2_4 O 0.89996(5) 0.31622(5) 0.83090(15)
C7_4 C 0.92587(7) 0.34764(7) 0.81359(17)
C8_4 C 0.96283(8) 0.35088(8) 0.7977(2)
C9_4 C 0.99031(9) 0.38830(10) 0.7631(3)
H13_4 H 0.981725 0.392402 0.707532
H14_4 H 0.993068 0.406985 0.804579
C10_4 C 0.95822(11) 0.32196(10) 0.7299(3)
H16_4 H 0.950657 0.327304 0.674439
H17_4 H 0.981436 0.322499 0.722474
H18_4 H 0.939654 0.297768 0.749949
C11_4 C 0.97444(11) 0.34287(15) 0.8830(3)
H19_4 H 0.956039 0.318578 0.902915
H20_4 H 0.997825 0.343718 0.875935
H21_4 H 0.977036 0.361075 0.925823
O3_4 O 0.89658(6) 0.38618(5) 0.96335(13)
O4_4 O 0.87897(6) 0.32809(5) 0.98880(13)
O5_4 O 0.83150(5) 0.36871(5) 0.88795(16)
O6_4 O 0.81234(5) 0.31066(5) 0.92137(14)
C17_4 C 0.80885(7) 0.33844(8) 0.92008(19)
C18_4 C 0.77507(8) 0.33536(8) 0.9636(2)
C19_4 C 0.75968(12) 0.35484(14) 0.9070(3)
H31_4 H 0.751600 0.342339 0.851132
H32_4 H 0.739007 0.354306 0.936753
H33_4 H 0.778714 0.380171 0.897377
C21_4 C 0.74600(11) 0.29568(11) 0.9777(4)
H37_4 H 0.738425 0.283263 0.921630
O7_4 O 0.85921(5) 0.36496(6) 0.72802(13)
O8_4 O 0.83520(5) 0.30572(5) 0.75574(13)
C22_4 C 0.84032(8) 0.33176(8) 0.70784(19)
C23 C 0.82121(9) 0.32272(10) 0.6197(2)
C24 C 0.79004(17) 0.3310(2) 0.6269(5)
H40_4 H 0.774682 0.317923 0.676640
H41 H 0.800094 0.357216 0.634720
H42 H 0.775393 0.323068 0.573832
C25 C 0.80100(17) 0.27944(15) 0.6027(4)
H43 H 0.783373 0.266686 0.649067
H44 H 0.788283 0.273860 0.546886
H45 H 0.819055 0.271450 0.601631
C26 C 0.84707(18) 0.3401(2) 0.5484(4)
H46 H 0.833863 0.333678 0.493207
H47 H 0.859883 0.366573 0.555901
H48 H 0.864740 0.331601 0.548298
Cu4_4 Cu 0.71236(2) 0.16617(3) 0.82285(2)
N5_4 N 0.91174(7) 0.43791(5) 0.80754(14)
Cu1_5 Cu 0.68999(2) 0.54442(3) 0.87572(2)
Cu2_5 Cu 0.62097(2) 0.50050(3) 0.84382(2)
N1_5 N 0.75021(5) 0.57879(7) 0.88279(14)
N2_5 N 0.80716(5) 0.57841(7) 0.85913(14)
N3_5 N 0.80433(5) 0.61898(7) 0.96828(13)
N4_5 N 0.80209(5) 0.63087(7) 0.81342(14)
C1_5 C 0.76416(6) 0.59622(8) 0.96818(16)
H1_5 H 0.753375 0.611544 0.982825
C2_5 C 0.81484(7) 0.64708(10) 0.89893(17)
H3_5 H 0.804475 0.662846 0.912767
H4_5 H 0.841683 0.662578 0.897753
C3_5 C 0.82005(7) 0.59573(9) 0.94534(16)
H5_5 H 0.813085 0.576564 0.989863
H6_5 H 0.846952 0.610731 0.944802
C4_5 C 0.81754(7) 0.60782(10) 0.79296(17)
H7_5 H 0.844410 0.622965 0.790424
H8_5 H 0.808823 0.596632 0.735249
C5_5 C 0.76229(6) 0.60819(9) 0.81638(17)
H9_5 H 0.753221 0.597081 0.758757
H10_5 H 0.751602 0.623701 0.829928
C6_5 C 0.76691(6) 0.55615(8) 0.86164(17)
H11_5 H 0.759546 0.536743 0.905702
H12_5 H 0.757834 0.544333 0.804656
O1_5 O 0.62425(5) 0.54774(7) 0.81097(13)
O2_5 O 0.68378(5) 0.58375(7) 0.83090(15)
C7_5 C 0.65236(7) 0.57824(10) 0.81359(17)
C8_5 C 0.64912(8) 0.61196(11) 0.7977(2)
C9_5 C 0.61170(10) 0.60202(13) 0.7631(3)
H13_5 H 0.607598 0.589324 0.707532
H14_5 H 0.593015 0.586084 0.804579
H15_4 H 0.610372 0.624230 0.754691
C10_5 C 0.67804(10) 0.63627(15) 0.7299(3)
H16_5 H 0.672696 0.623354 0.674439
H17_5 H 0.677501 0.658938 0.722474
H18_5 H 0.702232 0.641887 0.749949
C11_5 C 0.65713(15) 0.63158(19) 0.8830(3)
H19_5 H 0.681422 0.637462 0.902915
H20_5 H 0.656282 0.654108 0.875935
H21_5 H 0.638925 0.615962 0.925823
O3_5 O 0.61382(5) 0.51041(8) 0.96335(13)
O4_5 O 0.67191(5) 0.55089(8) 0.98880(13)
O5_5 O 0.63129(5) 0.46280(7) 0.88795(16)
O6_5 O 0.68934(5) 0.50169(7) 0.92137(14)
C17_5 C 0.66156(8) 0.47042(11) 0.92008(19)
C18_5 C 0.66464(8) 0.43972(11) 0.9636(2)
C19_5 C 0.64516(14) 0.40485(18) 0.9070(3)
H31_5 H 0.657661 0.409262 0.851132
H32_5 H 0.645694 0.384702 0.936753
H33_5 H 0.619829 0.398544 0.897377
C21_5 C 0.70432(11) 0.45033(16) 0.9777(4)
H37_5 H 0.716737 0.455163 0.921630
O7_5 O 0.63504(6) 0.49426(8) 0.72802(13)
O8_5 O 0.69428(5) 0.52949(7) 0.75574(13)
C22_5 C 0.66824(8) 0.50857(11) 0.70784(19)
C23_2 C 0.67728(10) 0.49850(13) 0.6197(2)
C24_2 C 0.6690(2) 0.45908(26) 0.6269(5)
H40_5 H 0.682077 0.456760 0.676640
H41_2 H 0.642784 0.442879 0.634720
H42_2 H 0.676932 0.452326 0.573832
C25_2 C 0.72056(15) 0.52157(23) 0.6027(4)
H43_2 H 0.733314 0.516688 0.649067
H44_2 H 0.726140 0.514424 0.546886
H45_2 H 0.728550 0.547606 0.601631
C26_2 C 0.6599(2) 0.50701(27) 0.5484(4)
H46_2 H 0.666322 0.500186 0.493207
H47_2 H 0.633427 0.493311 0.555901
H48_2 H 0.668399 0.533140 0.548298
Cu4_5 Cu 0.83383(3) 0.54619(4) 0.82285(2)
N5_5 N 0.56209(5) 0.47383(9) 0.80754(14)
Cu1_6 Cu 0.45558(3) 0.14558(2) 0.87572(2)
Cu2_6 Cu 0.49950(3) 0.12048(2) 0.84382(2)
N1_6 N 0.42121(7) 0.17143(5) 0.88279(14)
N2_6 N 0.42159(7) 0.22876(5) 0.85913(14)
N3_6 N 0.38102(7) 0.18536(5) 0.96828(13)
N4_6 N 0.36913(7) 0.17123(5) 0.81342(14)
C1_6 C 0.40378(8) 0.16795(6) 0.96818(16)
H1_6 H 0.388456 0.141832 0.982825
C2_6 C 0.35292(10) 0.16777(7) 0.89893(17)
H3_6 H 0.337154 0.141630 0.912767
H4_6 H 0.337422 0.179106 0.897753
C3_6 C 0.40427(9) 0.22433(6) 0.94534(16)
H5_6 H 0.423436 0.236522 0.989863
H6_6 H 0.389269 0.236222 0.944802
C4_6 C 0.39218(10) 0.20973(7) 0.79296(17)
H7_6 H 0.377035 0.221446 0.790424
H8_6 H 0.403368 0.212192 0.735249
C5_6 C 0.39181(9) 0.15411(7) 0.81638(17)
H9_6 H 0.402919 0.156141 0.758757
H10_6 H 0.376299 0.127902 0.829928
C6_6 C 0.44385(8) 0.21077(6) 0.86164(17)
H11_6 H 0.463257 0.222804 0.905702
H12_6 H 0.455667 0.213502 0.804656
O1_6 O 0.45226(7) 0.07652(5) 0.81097(13)
O2_6 O 0.41625(7) 0.10004(5) 0.83090(15)
C7_6 C 0.42176(10) 0.07413(7) 0.81359(17)
C8_6 C 0.38804(11) 0.03717(8) 0.7977(2)
C9_6 C 0.39798(13) 0.00969(9) 0.7631(3)
H13_6 H 0.410676 0.018275 0.707532
H14_6 H 0.413916 0.006932 0.804579
C10_6 C 0.36373(15) 0.04178(11) 0.7299(3)
H16_6 H 0.376646 0.049343 0.674439
H17_6 H 0.341062 0.018564 0.722474
H18_6 H 0.358113 0.060346 0.749949
C11_6 C 0.36842(19) 0.02556(11) 0.8830(3)
H19_6 H 0.362538 0.043961 0.902915
H20_6 H 0.345892 0.002175 0.875935
H21_6 H 0.384038 0.022964 0.925823
O3_6 O 0.48959(8) 0.10342(6) 0.96335(13)
O4_6 O 0.44911(8) 0.12103(6) 0.98880(13)
O5_6 O 0.53720(7) 0.16850(5) 0.88795(16)
O6_6 O 0.49831(7) 0.18766(5) 0.92137(14)
C17_6 C 0.52958(11) 0.19115(7) 0.92008(19)
C18_6 C 0.56028(11) 0.22493(8) 0.9636(2)
C19_6 C 0.59515(18) 0.24032(12) 0.9070(3)
H31_6 H 0.590738 0.248400 0.851132
H32_6 H 0.615298 0.260993 0.936753
H33_6 H 0.601456 0.221286 0.897377
C21_6 C 0.54967(16) 0.25400(11) 0.9777(4)
H37_6 H 0.544837 0.261575 0.921630
O7_6 O 0.50574(8) 0.14079(5) 0.72802(13)
O8_6 O 0.47051(7) 0.16480(5) 0.75574(13)
C22_6 C 0.49143(11) 0.15968(8) 0.70784(19)
C23_3 C 0.50150(13) 0.17879(9) 0.6197(2)
C24_3 C 0.54092(26) 0.20996(17) 0.6269(5)
H40_6 H 0.543240 0.225318 0.676640
H41_3 H 0.557121 0.199906 0.634720
H42_3 H 0.547674 0.224607 0.573832
C25_3 C 0.47843(23) 0.19900(17) 0.6027(4)
H43_3 H 0.483312 0.216627 0.649067
H44_3 H 0.485576 0.211717 0.546886
H45_3 H 0.452394 0.180945 0.601631
C26_3 C 0.49299(27) 0.15293(18) 0.5484(4)
H46_3 H 0.499814 0.166137 0.493207
H47_3 H 0.506689 0.140117 0.555901
H48_3 H 0.466860 0.135260 0.548298
Cu4_6 Cu 0.45381(4) 0.28764(2) 0.82285(2)
N5_6 N 0.52617(9) 0.08826(7) 0.80754(14)
Cu1_7 Cu 0.47891(2) 0.35666(2) 0.79095(2)
N1_7 N 0.50476(5) 0.41688(5) 0.78388(14)
N3_7 N 0.51869(5) 0.47100(5) 0.69839(13)
N4_7 N 0.50456(5) 0.46876(5) 0.85325(14)
C1_7 C 0.50128(6) 0.43083(6) 0.69849(16)
H1_7 H 0.475165 0.420042 0.683842
H2_4 H 0.512766 0.423232 0.653510
C2_7 C 0.50110(7) 0.48151(7) 0.76774(17)
H3_7 H 0.474963 0.471142 0.753900
H4_7 H 0.512439 0.508350 0.768914
C3_7 C 0.55766(6) 0.48672(7) 0.72133(16)
H5_7 H 0.569855 0.479752 0.676804
H6_7 H 0.569555 0.513619 0.721865
C4_7 C 0.54306(7) 0.48421(7) 0.87371(17)
H7_7 H 0.554779 0.511077 0.876243
H8_7 H 0.545525 0.475490 0.931418
C5_7 C 0.48744(7) 0.42896(6) 0.85029(17)
H9_7 H 0.489474 0.419888 0.907910
H10_7 H 0.461235 0.418269 0.836739
C6_7 C 0.54410(6) 0.43358(6) 0.80503(17)
H11_7 H 0.556137 0.426213 0.760965
H12_7 H 0.546835 0.424501 0.862011
O1_7 O 0.40985(5) 0.29092(5) 0.85570(13)
O2_7 O 0.43337(5) 0.35045(5) 0.83577(15)
C7_7 C 0.40746(7) 0.31903(7) 0.85308(17)
C8_7 C 0.37050(8) 0.31579(8) 0.8690(2)
C9_7 C 0.34302(9) 0.27837(10) 0.9036(3)
H13_7 H 0.351608 0.274265 0.959135
H14_7 H 0.340265 0.259682 0.862088
H15_5 H 0.319476 0.277039 0.911976
C10_7 C 0.37511(11) 0.34471(10) 0.9368(3)
H16_7 H 0.382676 0.339363 0.992228
H17_7 H 0.351897 0.344168 0.944193
H18_7 H 0.393679 0.368899 0.916718
C11_7 C 0.35889(11) 0.32380(15) 0.7837(3)
H19_7 H 0.377294 0.348089 0.763752
H20_7 H 0.335508 0.322949 0.790732
H21_7 H 0.356297 0.305592 0.740844
O3_7 O 0.43675(6) 0.28049(5) 0.70332(13)
O4_7 O 0.45436(6) 0.33858(5) 0.67787(13)
C12_4 C 0.43919(7) 0.30595(7) 0.65605(18)
C13_4 C 0.42319(8) 0.29554(8) 0.5645(2)
C14_4 C 0.38988(11) 0.25755(10) 0.5637(3)
H22_4 H 0.396643 0.239957 0.584980
H23_4 H 0.380538 0.251147 0.504462
H24_4 H 0.371014 0.257080 0.601256
C15_4 C 0.41267(10) 0.32281(10) 0.5315(2)
H25_4 H 0.434113 0.347286 0.531982
H26_4 H 0.393797 0.322329 0.569041
H27_4 H 0.403321 0.316396 0.472247
C16_4 C 0.45364(11) 0.29709(11) 0.5082(2)
H28_4 H 0.460303 0.279461 0.529747
H29_4 H 0.474929 0.321634 0.510625
H30_4 H 0.445181 0.291154 0.448175
O5_7 O 0.50183(5) 0.29796(5) 0.77872(16)
O6_7 O 0.52099(5) 0.35601(5) 0.74530(14)
C17_7 C 0.52448(7) 0.32823(8) 0.74659(19)
C18_7 C 0.55826(8) 0.33131(8) 0.7031(2)
C19_7 C 0.57365(12) 0.31183(14) 0.7597(3)
H31_7 H 0.581733 0.324328 0.815535
H32_7 H 0.594326 0.312361 0.729914
H33_7 H 0.554619 0.286496 0.769290
C20_4 C 0.54594(12) 0.31130(13) 0.6169(3)
H34_4 H 0.527291 0.285887 0.627264
H35_4 H 0.566820 0.312140 0.587453
H36_4 H 0.535800 0.323013 0.580549
C21_7 C 0.58733(11) 0.37099(11) 0.6890(4)
H37_7 H 0.594908 0.383404 0.745037
H38_4 H 0.577376 0.382973 0.652940
H39_4 H 0.608396 0.372100 0.659844
O7_7 O 0.47412(5) 0.30171(6) 0.93865(13)
O8_7 O 0.49813(5) 0.36095(5) 0.91093(13)
C22_7 C 0.49301(8) 0.33491(8) 0.95883(19)
H40_7 H 0.558651 0.348744 0.990027
O9_4 O 0.51275(5) 0.45423(5) 0.50102(13)
C27_4 C 0.50568(7) 0.45071(7) 0.42177(19)
C28_4 C 0.51006(9) 0.42187(8) 0.3712(2)
C29_4 C 0.52314(13) 0.40208(11) 0.4318(3)
H49_4 H 0.505203 0.389941 0.477979
H50_4 H 0.546589 0.419744 0.457324
H51_4 H 0.525983 0.383908 0.398816
C30_4 C 0.47305(11) 0.39472(10) 0.3332(3)
H52_4 H 0.455606 0.382552 0.380283
H53_4 H 0.475320 0.376546 0.298750
H54_4 H 0.464431 0.407629 0.296126
C31_4 C 0.53742(12) 0.44098(10) 0.2988(3)
H55_4 H 0.561106 0.458350 0.323747
H56_4 H 0.528955 0.453988 0.261617
H57_4 H 0.539843 0.422905 0.264241
O11_4 O 0.55998(5) 0.52621(5) 0.53800(13)
C32_4 C 0.56651(7) 0.54303(7) 0.46736(18)
C33_4 C 0.60660(7) 0.56655(8) 0.44069(19)
C34_4 C 0.63096(9) 0.58204(12) 0.5187(2)
H58_4 H 0.626710 0.562241 0.558369
H59_4 H 0.625535 0.599203 0.548431
H60_4 H 0.656474 0.594742 0.500150
C35_4 C 0.61180(9) 0.59600(10) 0.3759(3)
H61_4 H 0.595484 0.584727 0.326460
H62_4 H 0.637103 0.608854 0.355779
H63_4 H 0.606164 0.613315 0.404060
C36_4 C 0.61559(9) 0.53966(10) 0.3928(2)
H64_4 H 0.599749 0.529588 0.342046
H65_4 H 0.611576 0.519833 0.432053
H66_4 H 0.641091 0.552650 0.374134
Cu1_8 Cu 0.64334(2) 0.12225(3) 0.79095(2)
N1_8 N 0.58312(5) 0.08788(7) 0.78388(14)
N3_8 N 0.52900(5) 0.04769(7) 0.69839(13)
N4_8 N 0.53124(5) 0.03580(7) 0.85325(14)
C1_8 C 0.56917(6) 0.07045(8) 0.69849(16)
H1_8 H 0.579958 0.055123 0.683842
H2_5 H 0.576768 0.089534 0.653510
C2_8 C 0.51849(7) 0.01959(10) 0.76774(17)
H3_8 H 0.528858 0.003821 0.753900
H4_8 H 0.491650 0.004089 0.768914
C3_8 C 0.51328(7) 0.07094(9) 0.72133(16)
H5_8 H 0.520248 0.090103 0.676804
H6_8 H 0.486381 0.055936 0.721865
C4_8 C 0.51579(7) 0.05885(10) 0.87371(17)
H7_8 H 0.488923 0.043702 0.876243
H8_8 H 0.524510 0.070035 0.931418
C5_8 C 0.57104(6) 0.05848(9) 0.85029(17)
H9_8 H 0.580112 0.069586 0.907910
H10_8 H 0.581731 0.042966 0.836739
C6_8 C 0.56642(6) 0.11052(8) 0.80503(17)
H11_8 H 0.573787 0.129924 0.760965
H12_8 H 0.575499 0.122334 0.862011
O1_8 O 0.70908(5) 0.11893(7) 0.85570(13)
O2_8 O 0.64955(5) 0.08292(7) 0.83577(15)
C7_8 C 0.68097(7) 0.08843(10) 0.85308(17)
C8_8 C 0.68421(8) 0.05471(11) 0.8690(2)
C9_8 C 0.72163(10) 0.06465(13) 0.9036(3)
H13_8 H 0.725735 0.077343 0.959135
H14_8 H 0.740318 0.080583 0.862088
H15_6 H 0.722961 0.042437 0.911976
C10_8 C 0.65529(10) 0.03040(15) 0.9368(3)
H16_8 H 0.660637 0.043313 0.992228
H17_8 H 0.655832 0.007729 0.944193
H18_8 H 0.631101 0.024780 0.916718
C11_8 C 0.67620(15) 0.03509(19) 0.7837(3)
H19_8 H 0.651911 0.029205 0.763752
H20_8 H 0.677051 0.012559 0.790732
H21_8 H 0.694408 0.050705 0.740844
O3_8 O 0.71951(5) 0.15626(8) 0.70332(13)
O4_8 O 0.66142(5) 0.11578(8) 0.67787(13)
C12_5 C 0.69405(7) 0.13324(10) 0.65605(18)
C13_5 C 0.70446(8) 0.12765(11) 0.5645(2)
C14_5 C 0.74245(10) 0.13233(15) 0.5637(3)
H22_5 H 0.760043 0.156686 0.584980
H23_5 H 0.748853 0.129391 0.504462
H24_5 H 0.742920 0.113934 0.601256
C15_5 C 0.67719(10) 0.08986(14) 0.5315(2)
H25_5 H 0.652714 0.086827 0.531982
H26_5 H 0.677671 0.071468 0.569041
H27_5 H 0.683604 0.086925 0.472247
C16_5 C 0.70291(11) 0.15655(16) 0.5082(2)
H28_5 H 0.720539 0.180842 0.529747
H29_5 H 0.678366 0.153295 0.510625
H30_5 H 0.708846 0.154027 0.448175
O5_8 O 0.70204(5) 0.20387(7) 0.77872(16)
O6_8 O 0.64399(5) 0.16498(7) 0.74530(14)
C17_8 C 0.67177(8) 0.19625(11) 0.74659(19)
C18_8 C 0.66869(8) 0.22695(11) 0.7031(2)
C19_8 C 0.68817(14) 0.26182(18) 0.7597(3)
H31_8 H 0.675672 0.257405 0.815535
H32_8 H 0.687639 0.281965 0.729914
H33_8 H 0.713504 0.268123 0.769290
C20_5 C 0.68870(13) 0.23464(18) 0.6169(3)
H34_5 H 0.714113 0.241404 0.627264
H35_5 H 0.687860 0.254680 0.587453
H36_5 H 0.676987 0.212787 0.580549
C21_8 C 0.62901(11) 0.21634(16) 0.6890(4)
H37_8 H 0.616596 0.211504 0.745037
H38_5 H 0.617027 0.194403 0.652940
H39_5 H 0.627900 0.236296 0.659844
O7_8 O 0.69829(6) 0.17241(8) 0.93865(13)
O8_8 O 0.63905(5) 0.13718(7) 0.91093(13)
C22_8 C 0.66509(8) 0.15810(11) 0.95883(19)
H40_8 H 0.651256 0.209907 0.990027
O9_5 O 0.54577(5) 0.05852(7) 0.50102(13)
C27_5 C 0.54929(7) 0.05497(10) 0.42177(19)
C28_5 C 0.57813(8) 0.08819(12) 0.3712(2)
C29_5 C 0.59792(11) 0.12106(17) 0.4318(3)
H49_5 H 0.610059 0.115262 0.477979
H50_5 H 0.580256 0.126845 0.457324
H51_5 H 0.616092 0.142075 0.398816
C30_5 C 0.60528(10) 0.07833(15) 0.3332(3)
H52_5 H 0.617448 0.073054 0.380283
H53_5 H 0.623454 0.098774 0.298750
H54_5 H 0.592371 0.056802 0.296126
C31_5 C 0.55902(10) 0.09644(16) 0.2988(3)
H55_5 H 0.541650 0.102756 0.323747
H56_5 H 0.546012 0.074967 0.261617
H57_5 H 0.577095 0.116938 0.264241
O11_5 O 0.47379(5) 0.03377(7) 0.53800(13)
C32_5 C 0.45697(7) 0.02348(10) 0.46736(18)
C33_5 C 0.43345(8) 0.04005(11) 0.44069(19)
C34_5 C 0.41796(12) 0.04892(15) 0.5187(2)
H58_5 H 0.437759 0.064469 0.558369
H59_5 H 0.400797 0.026332 0.548431
H60_5 H 0.405258 0.061732 0.500150
C35_5 C 0.40400(10) 0.01580(13) 0.3759(3)
H61_5 H 0.415273 0.010757 0.326460
H62_5 H 0.391146 0.028249 0.355779
C36_5 C 0.46034(10) 0.07593(13) 0.3928(2)
H64_5 H 0.470412 0.070161 0.342046
H65_5 H 0.480167 0.091743 0.432053
H66_5 H 0.447350 0.088441 0.374134
H63_5 H 0.386685 0.992849 0.404060
H63_6 H 0.007151 0.393836 0.404060
Cu1_9 Cu 0.87775(3) 0.52109(2) 0.79095(2)
N1_9 N 0.91212(7) 0.49524(5) 0.78388(14)
N3_9 N 0.95231(7) 0.48131(5) 0.69839(13)
N4_9 N 0.96420(7) 0.49544(5) 0.85325(14)
C1_9 C 0.92955(8) 0.49872(6) 0.69849(16)
H1_9 H 0.944877 0.524835 0.683842
H2_6 H 0.910466 0.487234 0.653510
C2_9 C 0.98041(10) 0.49890(7) 0.76774(17)
H3_9 H 0.996179 0.525037 0.753900
H4_9 H 0.995911 0.487561 0.768914
C3_9 C 0.92906(9) 0.44234(6) 0.72133(16)
H5_9 H 0.909897 0.430145 0.676804
H6_9 H 0.944064 0.430445 0.721865
C4_9 C 0.94115(10) 0.45694(7) 0.87371(17)
H7_9 H 0.956298 0.445221 0.876243
H8_9 H 0.929965 0.454475 0.931418
C5_9 C 0.94152(9) 0.51256(7) 0.85029(17)
H9_9 H 0.930414 0.510526 0.907910
H10_9 H 0.957034 0.538765 0.836739
C6_9 C 0.88948(8) 0.45590(6) 0.80503(17)
H11_9 H 0.870076 0.443863 0.760965
H12_9 H 0.877666 0.453165 0.862011
O1_9 O 0.88107(7) 0.59015(5) 0.85570(13)
O2_9 O 0.91708(7) 0.56663(5) 0.83577(15)
C7_9 C 0.91157(10) 0.59254(7) 0.85308(17)
C8_9 C 0.94529(11) 0.62950(8) 0.8690(2)
C9_9 C 0.93535(13) 0.65698(9) 0.9036(3)
H13_9 H 0.922657 0.648392 0.959135
H14_9 H 0.919417 0.659735 0.862088
H15_7 H 0.957563 0.680524 0.911976
C10_9 C 0.96960(15) 0.62489(11) 0.9368(3)
H16_9 H 0.956687 0.617324 0.992228
H17_9 H 0.992271 0.648103 0.944193
H18_9 H 0.975220 0.606321 0.916718
C11_9 C 0.96491(19) 0.64111(11) 0.7837(3)
H19_9 H 0.970795 0.622706 0.763752
H20_9 H 0.987441 0.664492 0.790732
H21_9 H 0.949295 0.643703 0.740844
O3_9 O 0.84374(8) 0.56325(6) 0.70332(13)
O4_9 O 0.88422(8) 0.54564(6) 0.67787(13)
C12_6 C 0.86676(10) 0.56081(7) 0.65605(18)
C13_6 C 0.87235(11) 0.57681(8) 0.5645(2)
C14_6 C 0.86767(15) 0.61012(11) 0.5637(3)
H22_6 H 0.843314 0.603357 0.584980
H23_6 H 0.870609 0.619462 0.504462
H24_6 H 0.886066 0.628986 0.601256
C15_6 C 0.91014(14) 0.58733(10) 0.5315(2)
H25_6 H 0.913173 0.565887 0.531982
H26_6 H 0.928532 0.606203 0.569041
H27_6 H 0.913075 0.596679 0.472247
C16_6 C 0.84345(16) 0.54636(11) 0.5082(2)
H28_6 H 0.819158 0.539697 0.529747
H29_6 H 0.846705 0.525071 0.510625
H30_6 H 0.845973 0.554819 0.448175
O5_9 O 0.79613(7) 0.49817(5) 0.77872(16)
O6_9 O 0.83502(7) 0.47901(5) 0.74530(14)
C17_9 C 0.80375(11) 0.47552(7) 0.74659(19)
C18_9 C 0.77305(11) 0.44174(8) 0.7031(2)
C19_9 C 0.73818(18) 0.42635(12) 0.7597(3)
H31_9 H 0.742595 0.418267 0.815535
H32_9 H 0.718035 0.405674 0.729914
H33_9 H 0.731877 0.445381 0.769290
C20_6 C 0.76536(18) 0.45406(12) 0.6169(3)
H34_6 H 0.758596 0.472709 0.627264
H35_6 H 0.745320 0.433180 0.587453
H36_6 H 0.787213 0.464200 0.580549
C21_9 C 0.78366(16) 0.41267(11) 0.6890(4)
H37_9 H 0.788496 0.405092 0.745037
H38_6 H 0.805597 0.422624 0.652940
H39_6 H 0.763704 0.391604 0.659844
O7_9 O 0.82759(8) 0.52588(5) 0.93865(13)
O8_9 O 0.86282(7) 0.50187(5) 0.91093(13)
C22_9 C 0.84190(11) 0.50699(8) 0.95883(19)
H40_9 H 0.790093 0.441349 0.990027
O9_6 O 0.94148(7) 0.48725(5) 0.50102(13)
C27_6 C 0.94503(10) 0.49432(7) 0.42177(19)
C28_6 C 0.91181(12) 0.48994(9) 0.3712(2)
C29_6 C 0.87894(17) 0.47686(13) 0.4318(3)
H49_6 H 0.884738 0.494797 0.477979
H50_6 H 0.873155 0.453411 0.457324
H51_6 H 0.857925 0.474017 0.398816
C30_6 C 0.92167(15) 0.52695(11) 0.3332(3)
H52_6 H 0.926946 0.544394 0.380283
H53_6 H 0.901226 0.524680 0.298750
H54_6 H 0.943198 0.535569 0.296126
C31_6 C 0.90356(16) 0.46258(12) 0.2988(3)
H55_6 H 0.897244 0.438894 0.323747
H56_6 H 0.925033 0.471045 0.261617
H57_6 H 0.883062 0.460157 0.264241
O11_6 O 0.96623(7) 0.44002(5) 0.53800(13)
C32_6 C 0.97652(10) 0.43349(7) 0.46736(18)
C33_6 C 0.95995(11) 0.39340(7) 0.44069(19)
C34_6 C 0.95108(15) 0.36904(9) 0.5187(2)
H58_6 H 0.935531 0.373290 0.558369
H59_6 H 0.973668 0.374465 0.548431
H60_6 H 0.938268 0.343526 0.500150
C35_6 C 0.98420(13) 0.38820(9) 0.3759(3)
H61_6 H 0.989243 0.404516 0.326460
H62_6 H 0.971751 0.362897 0.355779
C36_6 C 0.92407(13) 0.38441(9) 0.3928(2)
H64_6 H 0.929839 0.400251 0.342046
H65_6 H 0.908257 0.388424 0.432053
H66_6 H 0.911559 0.358909 0.374134
Cu1_10 Cu 0.14558(2) 0.68999(2) 0.12428(2)
N1_10 N 0.17143(5) 0.75021(5) 0.11721(14)
N3_10 N 0.18536(5) 0.80433(5) 0.03172(13)
N4_10 N 0.17123(5) 0.80209(5) 0.18658(14)
C1_10 C 0.16795(6) 0.76416(6) 0.03182(16)
H1_10 H 0.141832 0.753375 0.017175
C2_10 C 0.16777(7) 0.81484(7) 0.10107(17)
H3_10 H 0.141630 0.804475 0.087233
H4_10 H 0.179106 0.841683 0.102247
C3_10 C 0.22433(6) 0.82005(7) 0.05466(16)
H5_10 H 0.236522 0.813085 0.010137
H6_10 H 0.236222 0.846952 0.055198
C4_10 C 0.20973(7) 0.81754(7) 0.20704(17)
H7_10 H 0.221446 0.844410 0.209576
H8_10 H 0.212192 0.808823 0.264751
C5_10 C 0.15411(7) 0.76229(6) 0.18362(17)
H9_10 H 0.156141 0.753221 0.241243
H10_10 H 0.127902 0.751602 0.170072
C6_10 C 0.21077(6) 0.76691(6) 0.13836(17)
H11_10 H 0.222804 0.759546 0.094298
H12_10 H 0.213502 0.757834 0.195344
O1_10 O 0.07652(5) 0.62425(5) 0.18903(13)
O2_10 O 0.10004(5) 0.68378(5) 0.16910(15)
C7_10 C 0.07413(7) 0.65236(7) 0.18641(17)
C8_10 C 0.03717(8) 0.64912(8) 0.2023(2)
C9_10 C 0.00969(9) 0.61170(10) 0.2369(3)
H13_10 H 0.018275 0.607598 0.292468
H14_10 H 0.006932 0.593015 0.195421
C10_10 C 0.04178(11) 0.67804(10) 0.2701(3)
H16_10 H 0.049343 0.672696 0.325561
H17_10 H 0.018564 0.677501 0.277526
H18_10 H 0.060346 0.702232 0.250051
C11_10 C 0.02556(11) 0.65713(15) 0.1170(3)
H19_10 H 0.043961 0.681422 0.097085
H20_10 H 0.002175 0.656282 0.124065
H21_10 H 0.022964 0.638925 0.074177
O3_10 O 0.10342(6) 0.61382(5) 0.03665(13)
O4_10 O 0.12103(6) 0.67191(5) 0.01120(13)
O5_10 O 0.16850(5) 0.63129(5) 0.11205(16)
O6_10 O 0.18766(5) 0.68934(5) 0.07863(14)
C17_10 C 0.19115(7) 0.66156(8) 0.07992(19)
C18_10 C 0.22493(8) 0.66464(8) 0.0364(2)
C19_10 C 0.24032(12) 0.64516(14) 0.0930(3)
H31_10 H 0.248400 0.657661 0.148868
H32_10 H 0.260993 0.645694 0.063247
H33_10 H 0.221286 0.619829 0.102623
C21_10 C 0.25400(11) 0.70432(11) 0.0223(4)
H37_10 H 0.261575 0.716737 0.078370
O7_10 O 0.14079(5) 0.63504(6) 0.27198(13)
O8_10 O 0.16480(5) 0.69428(5) 0.24426(13)
C22_10 C 0.15968(8) 0.66824(8) 0.29216(19)
C23_4 C 0.17879(9) 0.67728(10) 0.3803(2)
C24_4 C 0.20996(17) 0.6690(2) 0.3731(5)
H40_10 H 0.225318 0.682077 0.323360
H41_4 H 0.199906 0.642784 0.365280
H42_4 H 0.224607 0.676932 0.426168
C25_4 C 0.19900(17) 0.72056(15) 0.3973(4)
H43_4 H 0.216627 0.733314 0.350933
H44_4 H 0.211717 0.726140 0.453114
H45_4 H 0.180945 0.728550 0.398369
C26_4 C 0.15293(18) 0.6599(2) 0.4516(4)
H46_4 H 0.166137 0.666322 0.506793
H47_4 H 0.140117 0.633427 0.444099
H48_4 H 0.135260 0.668399 0.451702
Cu1_11 Cu 0.31001(2) 0.45558(3) 0.12428(2)
N1_11 N 0.24979(5) 0.42121(7) 0.11721(14)
N3_11 N 0.19567(5) 0.38102(7) 0.03172(13)
N4_11 N 0.19791(5) 0.36913(7) 0.18658(14)
C1_11 C 0.23584(6) 0.40378(8) 0.03182(16)
H1_11 H 0.246625 0.388456 0.017175
C2_11 C 0.18516(7) 0.35292(10) 0.10107(17)
H3_11 H 0.195525 0.337154 0.087233
H4_11 H 0.158317 0.337422 0.102247
C3_11 C 0.17995(7) 0.40427(9) 0.05466(16)
H5_11 H 0.186915 0.423436 0.010137
H6_11 H 0.153048 0.389269 0.055198
C4_11 C 0.18246(7) 0.39218(10) 0.20704(17)
H7_11 H 0.155590 0.377035 0.209576
H8_11 H 0.191177 0.403368 0.264751
C5_11 C 0.23771(6) 0.39181(9) 0.18362(17)
H9_11 H 0.246779 0.402919 0.241243
H10_11 H 0.248398 0.376299 0.170072
C6_11 C 0.23309(6) 0.44385(8) 0.13836(17)
H11_11 H 0.240454 0.463257 0.094298
H12_11 H 0.242166 0.455667 0.195344
O1_11 O 0.37575(5) 0.45226(7) 0.18903(13)
O2_11 O 0.31622(5) 0.41625(7) 0.16910(15)
C7_11 C 0.34764(7) 0.42176(10) 0.18641(17)
C8_11 C 0.35088(8) 0.38804(11) 0.2023(2)
C9_11 C 0.38830(10) 0.39798(13) 0.2369(3)
H13_11 H 0.392402 0.410676 0.292468
H14_11 H 0.406985 0.413916 0.195421
H15_8 H 0.389628 0.375770 0.245309
C10_11 C 0.32196(10) 0.36373(15) 0.2701(3)
H16_11 H 0.327304 0.376646 0.325561
H17_11 H 0.322499 0.341062 0.277526
H18_11 H 0.297768 0.358113 0.250051
C11_11 C 0.34287(15) 0.36842(19) 0.1170(3)
H19_11 H 0.318578 0.362538 0.097085
H20_11 H 0.343718 0.345892 0.124065
H21_11 H 0.361075 0.384038 0.074177
O3_11 O 0.38618(5) 0.48959(8) 0.03665(13)
O4_11 O 0.32809(5) 0.44911(8) 0.01120(13)
O5_11 O 0.36871(5) 0.53720(7) 0.11205(16)
O6_11 O 0.31066(5) 0.49831(7) 0.07863(14)
C17_11 C 0.33844(8) 0.52958(11) 0.07992(19)
C18_11 C 0.33536(8) 0.56028(11) 0.0364(2)
C19_11 C 0.35484(14) 0.59515(18) 0.0930(3)
H31_11 H 0.342339 0.590738 0.148868
H32_11 H 0.354306 0.615298 0.063247
H33_11 H 0.380171 0.601456 0.102623
C21_11 C 0.29568(11) 0.54967(16) 0.0223(4)
H37_11 H 0.283263 0.544837 0.078370
O7_11 O 0.36496(6) 0.50574(8) 0.27198(13)
O8_11 O 0.30572(5) 0.47051(7) 0.24426(13)
C22_11 C 0.33176(8) 0.49143(11) 0.29216(19)
C23_5 C 0.32272(10) 0.50150(13) 0.3803(2)
C24_5 C 0.3310(2) 0.54092(26) 0.3731(5)
H40_11 H 0.317923 0.543240 0.323360
H41_5 H 0.357216 0.557121 0.365280
H42_5 H 0.323068 0.547674 0.426168
C25_5 C 0.27944(15) 0.47843(23) 0.3973(4)
H43_5 H 0.266686 0.483312 0.350933
H44_5 H 0.273860 0.485576 0.453114
H45_5 H 0.271450 0.452394 0.398369
C26_5 C 0.3401(2) 0.49299(27) 0.4516(4)
H46_5 H 0.333678 0.499814 0.506793
H47_5 H 0.366573 0.506689 0.444099
H48_5 H 0.331601 0.466860 0.451702
Cu1_12 Cu 0.54442(3) 0.85442(2) 0.12428(2)
N1_12 N 0.57879(7) 0.82857(5) 0.11721(14)
N3_12 N 0.61898(7) 0.81464(5) 0.03172(13)
N4_12 N 0.63087(7) 0.82877(5) 0.18658(14)
C1_12 C 0.59622(8) 0.83205(6) 0.03182(16)
H1_12 H 0.611544 0.858168 0.017175
C2_12 C 0.64708(10) 0.83223(7) 0.10107(17)
H3_12 H 0.662846 0.858370 0.087233
H4_12 H 0.662578 0.820894 0.102247
C3_12 C 0.59573(9) 0.77567(6) 0.05466(16)
H5_12 H 0.576564 0.763478 0.010137
H6_12 H 0.610731 0.763778 0.055198
C4_12 C 0.60782(10) 0.79027(7) 0.20704(17)
H7_12 H 0.622965 0.778554 0.209576
H8_12 H 0.596632 0.787808 0.264751
C5_12 C 0.60819(9) 0.84589(7) 0.18362(17)
H9_12 H 0.597081 0.843859 0.241243
H10_12 H 0.623701 0.872098 0.170072
C6_12 C 0.55615(8) 0.78923(6) 0.13836(17)
H11_12 H 0.536743 0.777196 0.094298
H12_12 H 0.544333 0.786498 0.195344
O1_12 O 0.54774(7) 0.92348(5) 0.18903(13)
O2_12 O 0.58375(7) 0.89996(5) 0.16910(15)
C7_12 C 0.57824(10) 0.92587(7) 0.18641(17)
C8_12 C 0.61196(11) 0.96283(8) 0.2023(2)
C9_12 C 0.60202(13) 0.99031(9) 0.2369(3)
H13_12 H 0.589324 0.981725 0.292468
H14_12 H 0.586084 0.993068 0.195421
C10_12 C 0.63627(15) 0.95822(11) 0.2701(3)
H16_12 H 0.623354 0.950657 0.325561
H17_12 H 0.658938 0.981436 0.277526
H18_12 H 0.641887 0.939654 0.250051
C11_12 C 0.63158(19) 0.97444(11) 0.1170(3)
H19_12 H 0.637462 0.956039 0.097085
H20_12 H 0.654108 0.997825 0.124065
H21_12 H 0.615962 0.977036 0.074177
O3_12 O 0.51041(8) 0.89658(6) 0.03665(13)
O4_12 O 0.55089(8) 0.87897(6) 0.01120(13)
O5_12 O 0.46280(7) 0.83150(5) 0.11205(16)
O6_12 O 0.50169(7) 0.81234(5) 0.07863(14)
C17_12 C 0.47042(11) 0.80885(7) 0.07992(19)
C18_12 C 0.43972(11) 0.77507(8) 0.0364(2)
C19_12 C 0.40485(18) 0.75968(12) 0.0930(3)
H31_12 H 0.409262 0.751600 0.148868
H32_12 H 0.384702 0.739007 0.063247
H33_12 H 0.398544 0.778714 0.102623
C21_12 C 0.45033(16) 0.74600(11) 0.0223(4)
H37_12 H 0.455163 0.738425 0.078370
O7_12 O 0.49426(8) 0.85921(5) 0.27198(13)
O8_12 O 0.52949(7) 0.83520(5) 0.24426(13)
C22_12 C 0.50857(11) 0.84032(8) 0.29216(19)
C23_6 C 0.49850(13) 0.82121(9) 0.3803(2)
C24_6 C 0.45908(26) 0.79004(17) 0.3731(5)
H40_12 H 0.456760 0.774682 0.323360
H41_6 H 0.442879 0.800094 0.365280
H42_6 H 0.452326 0.775393 0.426168
C25_6 C 0.52157(23) 0.80100(17) 0.3973(4)
H43_6 H 0.516688 0.783373 0.350933
H44_6 H 0.514424 0.788283 0.453114
H45_6 H 0.547606 0.819055 0.398369
C26_6 C 0.50701(27) 0.84707(18) 0.4516(4)
H46_6 H 0.500186 0.833863 0.506793
H47_6 H 0.493311 0.859883 0.444099
H48_6 H 0.533140 0.864740 0.451702
C23_7 C 0.48788(9) 0.65605(10) 0.9530(2)
C24_7 C 0.45671(17) 0.6643(2) 0.9602(5)
H41_7 H 0.466761 0.690549 0.968053
H42_7 H 0.442060 0.656401 0.907165
C25_7 C 0.46767(17) 0.61277(15) 0.9360(4)
H43_7 H 0.450040 0.600019 0.982400
H44_7 H 0.454950 0.607193 0.880219
H45_7 H 0.485722 0.604783 0.934964
C26_7 C 0.51374(18) 0.6734(2) 0.8817(4)
H46_7 H 0.500530 0.667011 0.826540
H47_7 H 0.526550 0.699906 0.889234
H48_7 H 0.531407 0.664934 0.881631
C23_8 C 0.34395(10) 0.83183(13) 0.9530(2)
C24_8 C 0.3357(2) 0.79241(26) 0.9602(5)
H41_8 H 0.309451 0.776212 0.968053
H42_8 H 0.343599 0.785659 0.907165
C25_8 C 0.38723(15) 0.85490(23) 0.9360(4)
H43_8 H 0.399981 0.850021 0.982400
H44_8 H 0.392807 0.847757 0.880219
H45_8 H 0.395217 0.880939 0.934964
C26_8 C 0.3266(2) 0.84034(27) 0.8817(4)
H46_8 H 0.332989 0.833519 0.826540
H47_8 H 0.300094 0.826644 0.889234
H48_8 H 0.335066 0.866473 0.881631
C23_9 C 0.16817(13) 0.51212(9) 0.9530(2)
C24_9 C 0.20759(26) 0.54329(17) 0.9602(5)
H41_9 H 0.223788 0.533239 0.968053
H42_9 H 0.214341 0.557940 0.907165
C25_9 C 0.14510(23) 0.53233(17) 0.9360(4)
H43_9 H 0.149979 0.549960 0.982400
H44_9 H 0.152243 0.545050 0.880219
H45_9 H 0.119061 0.514278 0.934964
C26_9 C 0.15966(27) 0.48626(18) 0.8817(4)
H46_9 H 0.166481 0.499470 0.826540
H47_9 H 0.173356 0.473450 0.889234
H48_9 H 0.133527 0.468593 0.881631
Cu2_7 Cu 0.21286(2) 0.04569(2) 0.51048(2)
O1_13 O 0.25682(5) 0.04241(5) 0.47763(13)
C7_13 C 0.25921(7) 0.01430(7) 0.48025(17)
C8_13 C 0.29617(8) 0.01754(8) 0.4643(2)
C9_13 C 0.32365(9) 0.05496(10) 0.4297(3)
H13_13 H 0.315059 0.059068 0.374198
H14_13 H 0.326402 0.073651 0.471245
H15_9 H 0.347191 0.056294 0.421357
C11_13 C 0.30778(11) 0.00953(15) 0.5496(3)
H20_13 H 0.331159 0.010384 0.542601
H21_13 H 0.310370 0.027741 0.592489
O3_13 O 0.22992(6) 0.05284(5) 0.63001(13)
C12_7 C 0.22748(7) 0.02738(7) 0.67728(18)
C13_7 C 0.24348(8) 0.03779(8) 0.7688(2)
C14_7 C 0.27679(11) 0.07578(10) 0.7696(3)
H22_7 H 0.270024 0.093376 0.748353
H23_7 H 0.286129 0.082186 0.828871
H24_7 H 0.295653 0.076253 0.732077
C15_7 C 0.25400(10) 0.01052(10) 0.8018(2)
H26_7 H 0.272870 0.011004 0.764292
H27_7 H 0.263346 0.016937 0.861086
C16_7 C 0.21303(11) 0.03624(11) 0.8251(2)
H28_7 H 0.206364 0.053872 0.803586
H29_7 H 0.191738 0.011699 0.822708
H30_7 H 0.221486 0.042179 0.885158
O5_13 O 0.16484(5) 0.03537(5) 0.55461(16)
C17_13 C 0.14219(7) 0.00510(8) 0.58674(19)
C18_13 C 0.10841(8) 0.00202(8) 0.6302(2)
C19_13 C 0.09302(12) 0.02150(14) 0.5736(3)
H31_13 H 0.084934 0.009005 0.517798
H32_13 H 0.072341 0.020972 0.603419
H33_13 H 0.112048 0.046837 0.564043
C20_7 C 0.12073(12) 0.02203(13) 0.7164(3)
H34_7 H 0.139376 0.047446 0.706069
H35_7 H 0.099847 0.021193 0.745880
H36_7 H 0.130867 0.010320 0.752784
O7_13 O 0.19255(5) 0.03162(6) 0.39468(13)
H41_10 H 0.133428 0.023882 0.301386
C26_10 C 0.18041(18) 0.0067(2) 0.2150(4)
H46_10 H 0.167197 0.000344 0.159873
H47_10 H 0.193217 0.033239 0.222567
N5_7 N 0.24507(7) 0.10458(5) 0.47421(14)
Cu1_13 Cu 0.02333(2) 0.21108(3) 0.54238(2)
Cu3_4 Cu 0.15777(2) 0.31456(3) 0.76144(2)
N1_13 N 0.08355(5) 0.24545(7) 0.54945(14)
N2_7 N 0.14050(5) 0.24507(7) 0.52579(14)
N3_13 N 0.13767(5) 0.28564(7) 0.63494(13)
N4_13 N 0.13543(5) 0.29753(7) 0.48008(14)
C1_13 C 0.09750(6) 0.26288(8) 0.63484(16)
H1_13 H 0.086709 0.278210 0.649491
H2_7 H 0.089899 0.243799 0.679823
C2_13 C 0.14818(7) 0.31374(10) 0.56559(17)
H3_13 H 0.137809 0.329512 0.579433
H4_13 H 0.175017 0.329244 0.564419
C3_13 C 0.15339(7) 0.26239(9) 0.61200(16)
H5_13 H 0.146419 0.243230 0.656529
H6_13 H 0.180286 0.277397 0.611468
C4_13 C 0.15088(7) 0.27448(10) 0.45962(17)
H7_13 H 0.177744 0.289631 0.457090
H8_13 H 0.142157 0.263298 0.401915
C5_13 C 0.09563(6) 0.27485(9) 0.48304(17)
H9_13 H 0.086555 0.263747 0.425423
H10_13 H 0.084936 0.290367 0.496594
C6_13 C 0.10025(6) 0.22281(8) 0.52830(17)
H11_13 H 0.092880 0.203409 0.572368
H12_13 H 0.091168 0.210999 0.471322
O2_13 O 0.01712(5) 0.25041(7) 0.49756(15)
C10_13 C 0.01138(10) 0.30293(15) 0.3965(3)
H16_13 H 0.006030 0.290020 0.341105
H17_13 H 0.010835 0.325604 0.389140
H18_13 H 0.035566 0.308553 0.416615
H19_13 H 0.014756 0.304128 0.569581
O4_13 O 0.00525(5) 0.21755(8) 0.65546(13)
H25_7 H 0.013953 0.246506 0.801351
O6_13 O 0.02268(5) 0.16835(7) 0.58803(14)
C21_13 C 0.03766(11) 0.11699(16) 0.6443(4)
H37_13 H 0.050071 0.121829 0.588296
H38_7 H 0.049640 0.138930 0.680393
H39_7 H 0.038767 0.097037 0.673489
O8_13 O 0.02762(5) 0.19615(7) 0.42240(13)
C22_13 C 0.00158(8) 0.17523(11) 0.37450(19)
C23_10 C 0.01062(10) 0.16516(13) 0.2863(2)
C24_10 C 0.0024(2) 0.12574(26) 0.2935(5)
H40_13 H 0.015411 0.123426 0.343306
H42_10 H 0.010266 0.118992 0.240498
C25_10 C 0.05390(15) 0.18823(23) 0.2693(4)
H43_10 H 0.066648 0.183354 0.315733
H44_10 H 0.059474 0.181090 0.213552
H45_10 H 0.061884 0.214272 0.268297
H48_10 H 0.001733 0.199806 0.214964
O9_7 O 0.12090(5) 0.27481(7) 0.83231(13)
O10_4 O 0.13576(5) 0.30708(8) 0.95427(13)
C27_7 C 0.11738(7) 0.27836(10) 0.91156(19)
C28_7 C 0.08854(8) 0.24514(12) 0.9621(2)
C29_7 C 0.06875(11) 0.21227(17) 0.9015(3)
H49_7 H 0.056608 0.218071 0.855354
H50_7 H 0.086411 0.206488 0.876009
H51_7 H 0.050575 0.191258 0.934517
H52_7 H 0.049219 0.260279 0.953050
O11_7 O 0.19288(5) 0.29956(7) 0.79533(13)
O12_4 O 0.20789(5) 0.33159(7) 0.91819(12)
C32_7 C 0.20970(7) 0.30985(10) 0.86597(18)
C33_7 C 0.23322(8) 0.29328(11) 0.89264(19)
C34_7 C 0.24871(12) 0.28441(15) 0.8146(2)
H58_7 H 0.228908 0.268864 0.774964
H59_7 H 0.265870 0.307001 0.784902
H60_7 H 0.261409 0.271601 0.833183
C35_7 C 0.26267(10) 0.31753(13) 0.9574(3)
H62_7 H 0.275521 0.305084 0.977554
H63_7 H 0.279982 0.340484 0.929273
C36_7 C 0.20633(10) 0.25740(13) 0.9405(2)
H64_7 H 0.196255 0.263172 0.991287
H65_7 H 0.186500 0.241590 0.901280
H66_7 H 0.219317 0.244892 0.959199
Cu4_7 Cu 0.16716(3) 0.21286(4) 0.48952(2)
Cu5_4 Cu 0.17557(2) 0.35210(3) 0.90522(2)
O13_4 O 0.19758(5) 0.35958(8) 0.71239(13)
O14_4 O 0.12545(5) 0.33507(7) 0.74847(12)
Cu3_5 Cu 0.35210(3) 0.17654(2) 0.09478(2)
H2_8 H 0.422867 0.179433 0.013157
C12_8 C 0.46657(10) 0.10586(7) 0.01062(18)
C13_8 C 0.46098(11) 0.08986(8) 0.1022(2)
C14_8 C 0.46566(15) 0.05655(11) 0.1030(3)
H22_8 H 0.490019 0.063310 0.081687
H23_8 H 0.462724 0.047205 0.162205
H24_8 H 0.447267 0.037681 0.065411
C15_8 C 0.42319(14) 0.07934(10) 0.1352(2)
H25_8 H 0.420160 0.100780 0.134685
H26_8 H 0.404801 0.060464 0.097626
H27_8 H 0.420258 0.069988 0.194420
C16_8 C 0.48988(16) 0.12031(11) 0.1585(2)
H28_8 H 0.514175 0.126970 0.136920
H29_8 H 0.486628 0.141596 0.156042
H30_8 H 0.487360 0.111848 0.218492
C20_8 C 0.56797(18) 0.21261(12) 0.0498(3)
H34_8 H 0.574737 0.193958 0.039403
H35_8 H 0.588013 0.233487 0.079214
H36_8 H 0.546120 0.202467 0.086118
H38_8 H 0.527736 0.244043 0.013727
H39_8 H 0.569629 0.275063 0.006823
O9_8 O 0.39185(7) 0.17942(5) 0.16565(13)
O10_5 O 0.35958(8) 0.16201(6) 0.28761(13)
C27_8 C 0.38830(10) 0.17235(7) 0.24490(19)
C28_8 C 0.42152(12) 0.17673(9) 0.2955(2)
C29_8 C 0.45439(17) 0.18981(13) 0.2349(3)
H49_8 H 0.448595 0.171870 0.188688
H50_8 H 0.460178 0.213256 0.209343
H51_8 H 0.475408 0.192650 0.267851
C30_7 C 0.41166(15) 0.13972(11) 0.3335(3)
H52_8 H 0.406387 0.122273 0.286384
H53_7 H 0.432107 0.141987 0.367917
H54_7 H 0.390135 0.131098 0.370541
C31_7 C 0.42977(16) 0.20409(12) 0.3679(3)
H55_7 H 0.436089 0.227773 0.342920
H56_7 H 0.408300 0.195622 0.405050
H57_7 H 0.450271 0.206510 0.402426
O11_8 O 0.36710(7) 0.22665(5) 0.12867(13)
O12_5 O 0.33507(7) 0.20963(5) 0.25153(12)
C32_8 C 0.35681(10) 0.23318(7) 0.19931(18)
C33_8 C 0.37338(11) 0.27327(7) 0.22598(19)
C34_8 C 0.38225(15) 0.29763(9) 0.1480(2)
H58_8 H 0.397802 0.293377 0.108298
H59_8 H 0.359665 0.292202 0.118236
H60_8 H 0.395065 0.323141 0.166517
C35_8 C 0.34913(13) 0.27847(9) 0.2908(3)
H61_7 H 0.344090 0.262151 0.340207
H62_8 H 0.361582 0.303770 0.310888
H63_8 H 0.326182 0.272831 0.262607
C36_8 C 0.40926(13) 0.28226(9) 0.2739(2)
H64_8 H 0.403494 0.266416 0.324621
H65_8 H 0.425076 0.278243 0.234614
H66_8 H 0.421774 0.307758 0.292533
Cu5_5 Cu 0.31456(3) 0.15680(2) 0.23856(2)
O13_5 O 0.30708(8) 0.17133(6) 0.04573(13)
O14_5 O 0.33159(7) 0.12371(5) 0.08181(12)
Cu1_14 Cu 0.21108(3) 0.18776(2) 0.45762(2)
N1_14 N 0.24545(7) 0.16191(5) 0.45055(14)
N3_14 N 0.28564(7) 0.14798(5) 0.36506(13)
N4_14 N 0.29753(7) 0.16211(5) 0.51992(14)
C1_14 C 0.26288(8) 0.16539(6) 0.36516(16)
H1_14 H 0.278210 0.191502 0.350509
H2_9 H 0.243799 0.153901 0.320177
C2_14 C 0.31374(10) 0.16557(7) 0.43441(17)
H3_14 H 0.329512 0.191704 0.420567
H4_14 H 0.329244 0.154228 0.435581
C3_14 C 0.26239(9) 0.10901(6) 0.38800(16)
H5_14 H 0.243230 0.096812 0.343471
H6_14 H 0.277397 0.097112 0.388532
C4_14 C 0.27448(10) 0.12361(7) 0.54038(17)
H7_14 H 0.289631 0.111888 0.542910
H8_14 H 0.263298 0.121142 0.598085
C5_14 C 0.27485(9) 0.17923(7) 0.51696(17)
H9_14 H 0.263747 0.177193 0.574577
H10_14 H 0.290367 0.205432 0.503406
C6_14 C 0.22281(8) 0.12257(6) 0.47170(17)
H11_14 H 0.203409 0.110530 0.427632
H12_14 H 0.210999 0.119832 0.528678
O1_14 O 0.21440(7) 0.25682(5) 0.52237(13)
O2_14 O 0.25041(7) 0.23330(5) 0.50244(15)
C7_14 C 0.24490(10) 0.25921(7) 0.51975(17)
C8_14 C 0.27862(11) 0.29617(8) 0.5357(2)
C9_14 C 0.26868(13) 0.32365(9) 0.5703(3)
H13_14 H 0.255990 0.315059 0.625802
H14_14 H 0.252750 0.326402 0.528755
H15_10 H 0.290896 0.347191 0.578643
C10_14 C 0.30293(15) 0.29156(11) 0.6035(3)
H16_14 H 0.290020 0.283991 0.658895
H17_14 H 0.325604 0.314770 0.610860
H18_14 H 0.308553 0.272988 0.583385
C11_14 C 0.29824(19) 0.30778(11) 0.4504(3)
H19_14 H 0.304128 0.289373 0.430419
H20_14 H 0.320774 0.331159 0.457399
H21_14 H 0.282628 0.310370 0.407511
O3_14 O 0.17707(8) 0.22992(6) 0.36999(13)
O4_14 O 0.21755(8) 0.21231(6) 0.34454(13)
C12_9 C 0.20009(10) 0.22748(7) 0.32272(18)
C13_9 C 0.20568(11) 0.24348(8) 0.2312(2)
C14_9 C 0.20100(15) 0.27679(11) 0.2304(3)
H22_9 H 0.176647 0.270024 0.251647
H23_9 H 0.203942 0.286129 0.171129
H24_9 H 0.219399 0.295653 0.267923
C15_9 C 0.24347(14) 0.25400(10) 0.1982(2)
H25_9 H 0.246506 0.232554 0.198649
H26_9 H 0.261865 0.272870 0.235708
H27_9 H 0.246408 0.263346 0.138914
C16_9 C 0.17678(16) 0.21303(11) 0.1749(2)
H28_9 H 0.152491 0.206364 0.196414
H29_9 H 0.180038 0.191738 0.177292
H30_9 H 0.179306 0.221486 0.114842
O5_14 O 0.12946(7) 0.16484(5) 0.44539(16)
O6_14 O 0.16835(7) 0.14568(5) 0.41197(14)
C17_14 C 0.13708(11) 0.14219(7) 0.41326(19)
C18_14 C 0.10638(11) 0.10841(8) 0.3698(2)
C19_14 C 0.07151(18) 0.09302(12) 0.4264(3)
H31_14 H 0.075928 0.084934 0.482202
H32_14 H 0.051368 0.072341 0.396581
H33_14 H 0.065210 0.112048 0.435957
C20_9 C 0.09869(18) 0.12073(12) 0.2836(3)
H34_9 H 0.091929 0.139376 0.293931
H35_9 H 0.078653 0.099847 0.254120
H36_9 H 0.120546 0.130867 0.247216
C21_14 C 0.11699(16) 0.07934(11) 0.3557(4)
H37_14 H 0.121829 0.071759 0.411704
H38_9 H 0.138930 0.089291 0.319607
H39_9 H 0.097037 0.058271 0.326511
O7_14 O 0.16092(8) 0.19255(5) 0.60532(13)
O8_14 O 0.19615(7) 0.16854(5) 0.57760(13)
C22_14 C 0.17523(11) 0.17366(8) 0.62550(19)
C23_11 C 0.16516(13) 0.15455(9) 0.7137(2)
C24_11 C 0.12574(26) 0.12338(17) 0.7065(5)
H40_14 H 0.123426 0.108016 0.656694
H41_11 H 0.109545 0.133428 0.698614
H42_11 H 0.118992 0.108727 0.759502
C25_11 C 0.18823(23) 0.13434(17) 0.7307(4)
H43_11 H 0.183354 0.116707 0.684267
H44_11 H 0.181090 0.121617 0.786448
H45_11 H 0.214272 0.152389 0.731703
C26_11 C 0.17367(27) 0.18041(18) 0.7850(4)
H46_11 H 0.166852 0.167197 0.840127
H47_11 H 0.159977 0.193217 0.777433
H48_11 H 0.199806 0.198074 0.785036
O9_9 O 0.27481(7) 0.15392(5) 0.16769(13)
C27_9 C 0.27836(10) 0.16099(7) 0.08844(19)
C28_9 C 0.24514(12) 0.15661(9) 0.0379(2)
C29_9 C 0.21227(17) 0.14353(13) 0.0985(3)
H49_9 H 0.218071 0.161464 0.144646
H50_9 H 0.206488 0.120078 0.123991
H51_9 H 0.191258 0.140684 0.065483
H52_9 H 0.260279 0.211061 0.046950
O11_9 O 0.29956(7) 0.10669(5) 0.20467(13)
C32_9 C 0.30985(10) 0.10016(7) 0.13403(18)
C33_9 C 0.29328(11) 0.06007(7) 0.10736(19)
C34_9 C 0.28441(15) 0.03571(9) 0.1854(2)
H58_9 H 0.268864 0.039957 0.225036
H59_9 H 0.307001 0.041132 0.215098
H60_9 H 0.271601 0.010193 0.166817
C35_9 C 0.31753(13) 0.05487(9) 0.0426(3)
H62_9 H 0.305084 0.029564 0.022446
H63_9 H 0.340484 0.060503 0.070727
C36_9 C 0.25740(13) 0.05108(9) 0.0595(2)
H64_9 H 0.263172 0.066918 0.008713
H65_9 H 0.241590 0.055091 0.098720
H66_9 H 0.244892 0.025576 0.040801
H2_10 H 0.243435 0.422867 0.986843
C12_10 C 0.36072(7) 0.46657(10) 0.98938(18)
C13_10 C 0.37113(8) 0.46098(11) 0.8978(2)
C14_10 C 0.40912(10) 0.46566(15) 0.8970(3)
H22_10 H 0.426710 0.490019 0.918313
H23_10 H 0.415520 0.462724 0.837795
H24_10 H 0.409587 0.447267 0.934589
C15_10 C 0.34386(10) 0.42319(14) 0.8648(2)
H25_10 H 0.319381 0.420160 0.865315
H26_10 H 0.344338 0.404801 0.902374
H27_10 H 0.350271 0.420258 0.805580
C16_10 C 0.36958(11) 0.48988(16) 0.8415(2)
H28_10 H 0.387206 0.514175 0.863080
H29_10 H 0.345033 0.486628 0.843958
H30_10 H 0.375513 0.487360 0.781508
C20_10 C 0.35537(13) 0.56797(18) 0.9502(3)
H34_10 H 0.380780 0.574737 0.960597
H35_10 H 0.354527 0.588013 0.920786
H36_10 H 0.343654 0.546120 0.913882
H38_10 H 0.283694 0.527736 0.986273
H39_10 H 0.294567 0.569629 0.993177
O9_10 O 0.21244(5) 0.39185(7) 0.83435(13)
C27_10 C 0.21596(7) 0.38830(10) 0.75510(19)
C28_10 C 0.24480(8) 0.42152(12) 0.7045(2)
C29_10 C 0.26459(11) 0.45439(17) 0.7651(3)
H49_10 H 0.276726 0.448595 0.811312
H50_10 H 0.246923 0.460178 0.790657
H51_10 H 0.282759 0.475408 0.732149
C30_8 C 0.27195(10) 0.41166(15) 0.6665(3)
H52_10 H 0.284115 0.406387 0.713616
H53_8 H 0.290121 0.432107 0.632083
H54_8 H 0.259038 0.390135 0.629459
C31_8 C 0.22569(10) 0.42977(16) 0.6321(3)
H55_8 H 0.208317 0.436089 0.657080
H56_8 H 0.212679 0.408300 0.594950
H57_8 H 0.243762 0.450271 0.597574
O11_10 O 0.14046(5) 0.36710(7) 0.87133(13)
C32_10 C 0.12364(7) 0.35681(10) 0.80069(18)
C33_10 C 0.10012(8) 0.37338(11) 0.77402(19)
C34_10 C 0.08463(12) 0.38225(15) 0.8520(2)
H58_10 H 0.104426 0.397802 0.891702
H59_10 H 0.067464 0.359665 0.881764
H60_10 H 0.071925 0.395065 0.833483
C35_10 C 0.07067(10) 0.34913(13) 0.7092(3)
H61_8 H 0.081940 0.344090 0.659793
H62_10 H 0.057813 0.361582 0.689112
H63_10 H 0.053352 0.326182 0.737393
C36_10 C 0.12701(10) 0.40926(13) 0.7261(2)
H64_10 H 0.137079 0.403494 0.675379
H65_10 H 0.146834 0.425076 0.765386
H66_10 H 0.114017 0.421774 0.707467
C30_9 C 0.19362(11) 0.93861(10) 0.0001(3)
H53_9 H 0.191347 0.956787 0.034583
H54_9 H 0.202236 0.925704 0.037207
C31_9 C 0.12925(12) 0.89235(10) 0.0345(3)
H55_9 H 0.105561 0.874983 0.009586
H56_9 H 0.137712 0.879345 0.071716
H57_9 H 0.126824 0.910428 0.069092
H61_9 H 0.071183 0.748606 0.006873
Cu1_15 Cu 0.18776(2) 0.97667(2) 0.54238(2)
Cu3_6 Cu 0.15680(2) 0.84223(2) 0.76144(2)
N1_15 N 0.16191(5) 0.91645(5) 0.54945(14)
N2_8 N 0.10458(5) 0.85950(5) 0.52579(14)
N3_15 N 0.14798(5) 0.86233(5) 0.63494(13)
N4_15 N 0.16211(5) 0.86457(5) 0.48008(14)
C1_15 C 0.16539(6) 0.90250(6) 0.63484(16)
H1_15 H 0.191502 0.913291 0.649491
H2_11 H 0.153901 0.910101 0.679823
C2_15 C 0.16557(7) 0.85182(7) 0.56559(17)
H3_15 H 0.191704 0.862191 0.579433
H4_15 H 0.154228 0.824983 0.564419
C3_15 C 0.10901(6) 0.84661(7) 0.61200(16)
H5_15 H 0.096812 0.853581 0.656529
H6_15 H 0.097112 0.819714 0.611468
C4_15 C 0.12361(7) 0.84912(7) 0.45962(17)
H7_15 H 0.111888 0.822256 0.457090
H8_15 H 0.121142 0.857843 0.401915
C5_15 C 0.17923(7) 0.90437(6) 0.48304(17)
H9_15 H 0.177193 0.913445 0.425423
H10_15 H 0.205432 0.915064 0.496594
C6_15 C 0.12257(6) 0.89975(6) 0.52830(17)
H11_15 H 0.110530 0.907120 0.572368
H12_15 H 0.119832 0.908832 0.471322
O2_15 O 0.23330(5) 0.98288(5) 0.49756(15)
C10_15 C 0.29156(11) 0.98862(10) 0.3965(3)
H16_15 H 0.283991 0.993970 0.341105
H17_15 H 0.314770 0.989165 0.389140
H18_15 H 0.272988 0.964434 0.416615
H19_15 H 0.289373 0.985244 0.569581
O4_15 O 0.21231(6) 0.99475(5) 0.65546(13)
H25_11 H 0.232554 0.986047 0.801351
O6_15 O 0.14568(5) 0.97732(5) 0.58803(14)
C21_15 C 0.07934(11) 0.96234(11) 0.6443(4)
H37_15 H 0.071759 0.949929 0.588296
H38_11 H 0.089291 0.950360 0.680393
H39_11 H 0.058271 0.961233 0.673489
O8_15 O 0.16854(5) 0.97238(5) 0.42240(13)
C22_15 C 0.17366(8) 0.99842(8) 0.37450(19)
C23_12 C 0.15455(9) 0.98938(10) 0.2863(2)
C24_12 C 0.12338(17) 0.9976(2) 0.2935(5)
H40_15 H 0.108016 0.984589 0.343306
H42_12 H 0.108727 0.989734 0.240498
C25_12 C 0.13434(17) 0.94610(15) 0.2693(4)
H43_12 H 0.116707 0.933352 0.315733
H44_12 H 0.121617 0.940526 0.213552
H45_12 H 0.152389 0.938116 0.268297
H48_12 H 0.198074 0.998267 0.214964
O9_11 O 0.15392(5) 0.87910(5) 0.83231(13)
O10_6 O 0.17133(6) 0.86424(5) 0.95427(13)
C27_11 C 0.16099(7) 0.88262(7) 0.91156(19)
C28_11 C 0.15661(9) 0.91146(8) 0.9621(2)
C29_11 C 0.14353(13) 0.93125(11) 0.9015(3)
H49_11 H 0.161464 0.943392 0.855354
H50_11 H 0.120078 0.913589 0.876009
H51_11 H 0.140684 0.949425 0.934517
H52_11 H 0.211061 0.950781 0.953050
O11_11 O 0.10669(5) 0.80712(5) 0.79533(13)
O12_6 O 0.12371(5) 0.79211(5) 0.91819(12)
C32_11 C 0.10016(7) 0.79030(7) 0.86597(18)
C33_11 C 0.06007(7) 0.76678(8) 0.89264(19)
C34_11 C 0.03571(9) 0.75129(12) 0.8146(2)
H58_11 H 0.039957 0.771092 0.774964
H59_11 H 0.041132 0.734130 0.784902
H60_11 H 0.010193 0.738591 0.833183
C35_11 C 0.05487(9) 0.73733(10) 0.9574(3)
H62_11 H 0.029564 0.724479 0.977554
H63_11 H 0.060503 0.720018 0.929273
C36_11 C 0.05108(9) 0.79367(10) 0.9405(2)
H64_11 H 0.066918 0.803745 0.991287
H65_11 H 0.055091 0.813500 0.901280
H66_11 H 0.025576 0.780683 0.959199
Cu4_8 Cu 0.04569(2) 0.83284(3) 0.48952(2)
Cu5_6 Cu 0.17654(2) 0.82443(2) 0.90522(2)
O13_6 O 0.16201(6) 0.80242(5) 0.71239(13)
O14_6 O 0.20963(5) 0.87455(5) 0.74847(12)
O1_15 O 0.04241(5) 0.78560(7) 0.52237(13)
C7_15 C 0.01430(7) 0.75510(10) 0.51975(17)
C8_15 C 0.01754(8) 0.72138(11) 0.5357(2)
C9_15 C 0.05496(10) 0.73132(13) 0.5703(3)
H13_15 H 0.059068 0.744010 0.625802
H14_15 H 0.073651 0.747250 0.528755
H15_11 H 0.056294 0.709104 0.578643
C11_15 C 0.00953(15) 0.70176(19) 0.4504(3)
H20_15 H 0.010384 0.679226 0.457399
H21_15 H 0.027741 0.717372 0.407511
O3_15 O 0.05284(5) 0.82293(8) 0.36999(13)
C12_11 C 0.02738(7) 0.79991(10) 0.32272(18)
C13_11 C 0.03779(8) 0.79432(11) 0.2312(2)
C14_11 C 0.07578(10) 0.79900(15) 0.2304(3)
H22_11 H 0.093376 0.823353 0.251647
H23_11 H 0.082186 0.796058 0.171129
H24_11 H 0.076253 0.780601 0.267923
C15_11 C 0.01052(10) 0.75653(14) 0.1982(2)
H26_11 H 0.011004 0.738135 0.235708
H27_11 H 0.016937 0.753592 0.138914
C16_11 C 0.03624(11) 0.82322(16) 0.1749(2)
H28_11 H 0.053872 0.847509 0.196414
H29_11 H 0.011699 0.819962 0.177292
H30_11 H 0.042179 0.820694 0.114842
O5_15 O 0.03537(5) 0.87054(7) 0.44539(16)
C17_15 C 0.00510(8) 0.86292(11) 0.41326(19)
C18_15 C 0.00202(8) 0.89362(11) 0.3698(2)
C19_15 C 0.02150(14) 0.92849(18) 0.4264(3)
H31_15 H 0.009005 0.924072 0.482202
H32_15 H 0.020972 0.948632 0.396581
H33_15 H 0.046837 0.934790 0.435957
C20_11 C 0.02203(13) 0.90131(18) 0.2836(3)
H34_11 H 0.047446 0.908071 0.293931
H35_11 H 0.021193 0.921347 0.254120
H36_11 H 0.010320 0.879454 0.247216
O7_15 O 0.03162(6) 0.83908(8) 0.60532(13)
H41_12 H 0.023882 0.890455 0.698614
C26_12 C 0.0067(2) 0.82633(27) 0.7850(4)
H46_12 H 0.000344 0.833148 0.840127
H47_12 H 0.033239 0.840023 0.777433
H2_12 H 0.179433 0.756565 0.986843
C12_12 C 0.10586(7) 0.63928(7) 0.98938(18)
C13_12 C 0.08986(8) 0.62887(8) 0.8978(2)
C14_12 C 0.05655(11) 0.59088(10) 0.8970(3)
H22_12 H 0.063310 0.573290 0.918313
H23_12 H 0.047205 0.584480 0.837795
H24_12 H 0.037681 0.590413 0.934589
C15_12 C 0.07934(10) 0.65614(10) 0.8648(2)
H25_12 H 0.100780 0.680619 0.865315
H26_12 H 0.060464 0.655662 0.902374
H27_12 H 0.069988 0.649729 0.805580
C16_12 C 0.12031(11) 0.63042(11) 0.8415(2)
H28_12 H 0.126970 0.612794 0.863080
H29_12 H 0.141596 0.654967 0.843958
H30_12 H 0.111848 0.624487 0.781508
C20_12 C 0.21261(12) 0.64463(13) 0.9502(3)
H34_12 H 0.193958 0.619220 0.960597
H35_12 H 0.233487 0.645473 0.920786
H36_12 H 0.202467 0.656346 0.913882
H38_12 H 0.244043 0.716306 0.986273
H39_12 H 0.275063 0.705433 0.993177
O9_12 O 0.17942(5) 0.78756(5) 0.83435(13)
C27_12 C 0.17235(7) 0.78404(7) 0.75510(19)
C28_12 C 0.17673(9) 0.75520(8) 0.7045(2)
C29_12 C 0.18981(13) 0.73541(11) 0.7651(3)
H49_12 H 0.171870 0.723274 0.811312
H50_12 H 0.213256 0.753077 0.790657
H51_12 H 0.192650 0.717241 0.732149
C30_10 C 0.13972(11) 0.72805(10) 0.6665(3)
H52_12 H 0.122273 0.715885 0.713616
H53_10 H 0.141987 0.709879 0.632083
H54_10 H 0.131098 0.740962 0.629459
C31_10 C 0.20409(12) 0.77431(10) 0.6321(3)
H55_10 H 0.227773 0.791683 0.657080
H56_10 H 0.195622 0.787321 0.594950
H57_10 H 0.206510 0.756238 0.597574
O11_12 O 0.22665(5) 0.85954(5) 0.87133(13)
C32_12 C 0.23318(7) 0.87636(7) 0.80069(18)
C33_12 C 0.27327(7) 0.89988(8) 0.77402(19)
C34_12 C 0.29763(9) 0.91537(12) 0.8520(2)
H58_12 H 0.293377 0.895574 0.891702
H59_12 H 0.292202 0.932536 0.881764
H60_12 H 0.323141 0.928075 0.833483
C35_12 C 0.27847(9) 0.92933(10) 0.7092(3)
H61_10 H 0.262151 0.918060 0.659793
H62_12 H 0.303770 0.942187 0.689112
H63_12 H 0.272831 0.946648 0.737393
C36_12 C 0.28226(9) 0.87299(10) 0.7261(2)
H64_12 H 0.266416 0.862921 0.675379
H65_12 H 0.278243 0.853166 0.765386
H66_12 H 0.307758 0.885983 0.707467
C30_11 C 0.06139(10) 0.25500(15) 0.0001(3)
H53_11 H 0.043213 0.234559 0.034583
H54_11 H 0.074296 0.276531 0.037207
C31_11 C 0.10765(10) 0.23689(16) 0.0345(3)
H55_11 H 0.125017 0.230577 0.009586
H56_11 H 0.120655 0.258366 0.071716
H57_11 H 0.089572 0.216395 0.069092
H61_11 H 0.251394 0.322576 0.006873
Cu2_8 Cu 0.95431(2) 0.16716(3) 0.51048(2)
O1_16 O 0.95759(5) 0.21440(7) 0.47763(13)
C7_16 C 0.98570(7) 0.24490(10) 0.48025(17)
C8_16 C 0.98246(8) 0.27862(11) 0.4643(2)
C9_16 C 0.94504(10) 0.26868(13) 0.4297(3)
H13_16 H 0.940932 0.255990 0.374198
H14_16 H 0.926349 0.252750 0.471245
H15_12 H 0.943706 0.290896 0.421357
C11_16 C 0.99047(15) 0.29824(19) 0.5496(3)
H20_16 H 0.989616 0.320774 0.542601
H21_16 H 0.972259 0.282628 0.592489
O3_16 O 0.94716(5) 0.17707(8) 0.63001(13)
C12_13 C 0.97262(7) 0.20009(10) 0.67728(18)
C13_13 C 0.96221(8) 0.20568(11) 0.7688(2)
C14_13 C 0.92422(10) 0.20100(15) 0.7696(3)
H22_13 H 0.906624 0.176647 0.748353
H23_13 H 0.917814 0.203942 0.828871
H24_13 H 0.923747 0.219399 0.732077
C15_13 C 0.98948(10) 0.24347(14) 0.8018(2)
H26_13 H 0.988996 0.261865 0.764292
H27_13 H 0.983063 0.246408 0.861086
C16_13 C 0.96376(11) 0.17678(16) 0.8251(2)
H28_13 H 0.946128 0.152491 0.803586
H29_13 H 0.988301 0.180038 0.822708
H30_13 H 0.957821 0.179306 0.885158
O5_16 O 0.96463(5) 0.12946(7) 0.55461(16)
C17_16 C 0.99490(8) 0.13708(11) 0.58674(19)
C18_16 C 0.99798(8) 0.10638(11) 0.6302(2)
C19_16 C 0.97850(14) 0.07151(18) 0.5736(3)
H31_16 H 0.990995 0.075928 0.517798
H32_16 H 0.979028 0.051368 0.603419
H33_16 H 0.953163 0.065210 0.564043
C20_13 C 0.97797(13) 0.09869(18) 0.7164(3)
H34_13 H 0.952554 0.091929 0.706069
H35_13 H 0.978807 0.078653 0.745880
H36_13 H 0.989680 0.120546 0.752784
O7_16 O 0.96838(6) 0.16092(8) 0.39468(13)
H41_13 H 0.976118 0.109545 0.301386
C26_13 C 0.9933(2) 0.17367(27) 0.2150(4)
H46_13 H 0.999656 0.166852 0.159873
H47_13 H 0.966761 0.159977 0.222567
N5_8 N 0.89542(5) 0.14050(9) 0.47421(14)
Cu3_7 Cu 0.82346(2) 0.17557(2) 0.09478(2)
H2_13 H 0.820567 0.243435 0.013157
C12_14 C 0.89414(7) 0.36072(7) 0.01062(18)
C13_14 C 0.91014(8) 0.37113(8) 0.1022(2)
C14_14 C 0.94345(11) 0.40912(10) 0.1030(3)
H22_14 H 0.936690 0.426710 0.081687
H23_14 H 0.952795 0.415520 0.162205
H24_14 H 0.962319 0.409587 0.065411
C15_14 C 0.92066(10) 0.34386(10) 0.1352(2)
H25_13 H 0.899220 0.319381 0.134685
H26_14 H 0.939536 0.344338 0.097626
H27_14 H 0.930012 0.350271 0.194420
C16_14 C 0.87969(11) 0.36958(11) 0.1585(2)
H28_14 H 0.873030 0.387206 0.136920
H29_14 H 0.858404 0.345033 0.156042
H30_14 H 0.888152 0.375513 0.218492
C20_14 C 0.78739(12) 0.35537(13) 0.0498(3)
H34_14 H 0.806042 0.380780 0.039403
H35_14 H 0.766513 0.354527 0.079214
H36_14 H 0.797533 0.343654 0.086118
H38_13 H 0.755957 0.283694 0.013727
H39_13 H 0.724937 0.294567 0.006823
O9_13 O 0.82058(5) 0.21244(5) 0.16565(13)
O10_7 O 0.83799(6) 0.19758(5) 0.28761(13)
C27_13 C 0.82765(7) 0.21596(7) 0.24490(19)
C28_13 C 0.82327(9) 0.24480(8) 0.2955(2)
C29_13 C 0.81019(13) 0.26459(11) 0.2349(3)
H49_13 H 0.828130 0.276726 0.188688
H50_13 H 0.786744 0.246923 0.209343
H51_13 H 0.807350 0.282759 0.267851
C30_12 C 0.86028(11) 0.27195(10) 0.3335(3)
H52_13 H 0.877727 0.284115 0.286384
H53_12 H 0.858013 0.290121 0.367917
H54_12 H 0.868902 0.259038 0.370541
C31_12 C 0.79591(12) 0.22569(10) 0.3679(3)
H55_12 H 0.772227 0.208317 0.342920
H56_12 H 0.804378 0.212679 0.405050
H57_12 H 0.793490 0.243762 0.402426
O11_13 O 0.77335(5) 0.14046(5) 0.12867(13)
O12_7 O 0.79037(5) 0.12545(5) 0.25153(12)
C32_13 C 0.76682(7) 0.12364(7) 0.19931(18)
C33_13 C 0.72673(7) 0.10012(8) 0.22598(19)
C34_13 C 0.70237(9) 0.08463(12) 0.1480(2)
H58_13 H 0.706623 0.104426 0.108298
H59_13 H 0.707798 0.067464 0.118236
H60_13 H 0.676859 0.071925 0.166517
C35_13 C 0.72153(9) 0.07067(10) 0.2908(3)
H61_12 H 0.737849 0.081940 0.340207
H62_13 H 0.696230 0.057813 0.310888
H63_13 H 0.727169 0.053352 0.262607
C36_13 C 0.71774(9) 0.12701(10) 0.2739(2)
H64_13 H 0.733584 0.137079 0.324621
H65_13 H 0.721757 0.146834 0.234614
H66_13 H 0.692242 0.114017 0.292533
Cu5_7 Cu 0.84320(2) 0.15777(2) 0.23856(2)
O13_7 O 0.82867(6) 0.13576(5) 0.04573(13)
O14_7 O 0.87629(5) 0.20789(5) 0.08181(12)
Cu1_16 Cu 0.81224(2) 0.02333(2) 0.45762(2)
N1_16 N 0.83809(5) 0.08355(5) 0.45055(14)
N3_16 N 0.85202(5) 0.13767(5) 0.36506(13)
N4_16 N 0.83789(5) 0.13543(5) 0.51992(14)
C1_16 C 0.83461(6) 0.09750(6) 0.36516(16)
H1_16 H 0.808498 0.086709 0.350509
H2_14 H 0.846099 0.089899 0.320177
C2_16 C 0.83443(7) 0.14818(7) 0.43441(17)
H3_16 H 0.808296 0.137809 0.420567
H4_16 H 0.845772 0.175017 0.435581
C3_16 C 0.89099(6) 0.15339(7) 0.38800(16)
H5_16 H 0.903188 0.146419 0.343471
H6_16 H 0.902888 0.180286 0.388532
C4_16 C 0.87639(7) 0.15088(7) 0.54038(17)
H7_16 H 0.888112 0.177744 0.542910
H8_16 H 0.878858 0.142157 0.598085
C5_16 C 0.82077(7) 0.09563(6) 0.51696(17)
H9_16 H 0.822807 0.086555 0.574577
H10_16 H 0.794568 0.084936 0.503406
C6_16 C 0.87743(6) 0.10025(6) 0.47170(17)
H11_16 H 0.889470 0.092880 0.427632
H12_16 H 0.880168 0.091168 0.528678
O2_16 O 0.76670(5) 0.01712(5) 0.50244(15)
C10_16 C 0.70844(11) 0.01138(10) 0.6035(3)
H16_16 H 0.716009 0.006030 0.658895
H17_16 H 0.685230 0.010835 0.610860
H18_16 H 0.727012 0.035566 0.583385
H19_16 H 0.710627 0.014756 0.430419
O4_16 O 0.78769(6) 0.00525(5) 0.34454(13)
H25_14 H 0.767446 0.013953 0.198649
O6_16 O 0.85432(5) 0.02268(5) 0.41197(14)
C21_16 C 0.92066(11) 0.03766(11) 0.3557(4)
H37_16 H 0.928241 0.050071 0.411704
H38_14 H 0.910709 0.049640 0.319607
H39_14 H 0.941729 0.038767 0.326511
O8_16 O 0.83146(5) 0.02762(5) 0.57760(13)
C22_16 C 0.82634(8) 0.00158(8) 0.62550(19)
C23_13 C 0.84545(9) 0.01062(10) 0.7137(2)
C24_13 C 0.87662(17) 0.0024(2) 0.7065(5)
H40_16 H 0.891984 0.015411 0.656694
H42_13 H 0.891273 0.010266 0.759502
C25_13 C 0.86566(17) 0.05390(15) 0.7307(4)
H43_13 H 0.883293 0.066648 0.684267
H44_13 H 0.878383 0.059474 0.786448
H45_13 H 0.847611 0.061884 0.731703
H48_13 H 0.801926 0.001733 0.785036
O9_14 O 0.84608(5) 0.12090(5) 0.16769(13)
C27_14 C 0.83901(7) 0.11738(7) 0.08844(19)
C28_14 C 0.84339(9) 0.08854(8) 0.0379(2)
C29_14 C 0.85647(13) 0.06875(11) 0.0985(3)
H49_14 H 0.838536 0.056608 0.144646
H50_14 H 0.879922 0.086411 0.123991
H51_14 H 0.859316 0.050575 0.065483
H52_14 H 0.788939 0.049219 0.046950
O11_14 O 0.89331(5) 0.19288(5) 0.20467(13)
C32_14 C 0.89984(7) 0.20970(7) 0.13403(18)
C33_14 C 0.93993(7) 0.23322(8) 0.10736(19)
C34_14 C 0.96429(9) 0.24871(12) 0.1854(2)
H58_14 H 0.960043 0.228908 0.225036
H59_14 H 0.958868 0.265870 0.215098
H60_14 H 0.989807 0.261409 0.166817
C35_14 C 0.94513(9) 0.26267(10) 0.0426(3)
H62_14 H 0.970436 0.275521 0.022446
H63_14 H 0.939497 0.279982 0.070727
C36_14 C 0.94892(9) 0.20633(10) 0.0595(2)
H64_14 H 0.933082 0.196255 0.008713
H65_14 H 0.944909 0.186500 0.098720
H66_14 H 0.974424 0.219317 0.040801
C30_13 C 0.74500(15) 0.80638(11) 0.0001(3)
H53_13 H 0.765441 0.808653 0.034583
H54_13 H 0.723469 0.797764 0.037207
C31_13 C 0.76311(16) 0.87075(12) 0.0345(3)
H55_13 H 0.769423 0.894439 0.009586
H56_13 H 0.741634 0.862288 0.071716
H57_13 H 0.783605 0.873176 0.069092
H61_13 H 0.677424 0.928817 0.006873
Cu1_17 Cu 0.78892(3) 0.81224(2) 0.54238(2)
Cu2_9 Cu 0.83284(3) 0.78714(2) 0.51048(2)
Cu3_8 Cu 0.68544(3) 0.84320(2) 0.76144(2)
N1_17 N 0.75455(7) 0.83809(5) 0.54945(14)
N2_9 N 0.75493(7) 0.89542(5) 0.52579(14)
N3_17 N 0.71436(7) 0.85202(5) 0.63494(13)
N4_17 N 0.70247(7) 0.83789(5) 0.48008(14)
C1_17 C 0.73712(8) 0.83461(6) 0.63484(16)
H1_17 H 0.721790 0.808498 0.649491
H2_15 H 0.756201 0.846099 0.679823
C2_17 C 0.68626(10) 0.83443(7) 0.56559(17)
H3_17 H 0.670488 0.808296 0.579433
H4_17 H 0.670756 0.845772 0.564419
C3_17 C 0.73761(9) 0.89099(6) 0.61200(16)
H5_17 H 0.756770 0.903188 0.656529
H6_17 H 0.722603 0.902888 0.611468
C4_17 C 0.72552(10) 0.87639(7) 0.45962(17)
H7_17 H 0.710369 0.888112 0.457090
H8_17 H 0.736702 0.878858 0.401915
C5_17 C 0.72515(9) 0.82077(7) 0.48304(17)
H9_17 H 0.736253 0.822807 0.425423
H10_17 H 0.709633 0.794568 0.496594
C6_17 C 0.77719(8) 0.87743(6) 0.52830(17)
H11_17 H 0.796591 0.889470 0.572368
H12_17 H 0.789001 0.880168 0.471322
O1_17 O 0.78560(7) 0.74318(5) 0.47763(13)
O2_17 O 0.74959(7) 0.76670(5) 0.49756(15)
C7_17 C 0.75510(10) 0.74079(7) 0.48025(17)
C8_17 C 0.72138(11) 0.70383(8) 0.4643(2)
C9_17 C 0.73132(13) 0.67635(9) 0.4297(3)
H13_17 H 0.744010 0.684941 0.374198
H14_17 H 0.747250 0.673598 0.471245
H15_13 H 0.709104 0.652809 0.421357
C10_17 C 0.69707(15) 0.70844(11) 0.3965(3)
H16_17 H 0.709980 0.716009 0.341105
H17_17 H 0.674396 0.685230 0.389140
H18_17 H 0.691447 0.727012 0.416615
C11_17 C 0.70176(19) 0.69222(11) 0.5496(3)
H19_17 H 0.695872 0.710627 0.569581
H20_17 H 0.679226 0.668841 0.542601
H21_17 H 0.717372 0.689630 0.592489
O3_17 O 0.82293(8) 0.77008(6) 0.63001(13)
O4_17 O 0.78245(8) 0.78769(6) 0.65546(13)
C12_15 C 0.79991(10) 0.77252(7) 0.67728(18)
C13_15 C 0.79432(11) 0.75652(8) 0.7688(2)
C14_15 C 0.79900(15) 0.72321(11) 0.7696(3)
H22_15 H 0.823353 0.729976 0.748353
H23_15 H 0.796058 0.713871 0.828871
H24_15 H 0.780601 0.704347 0.732077
C15_15 C 0.75653(14) 0.74600(10) 0.8018(2)
H25_15 H 0.753494 0.767446 0.801351
H26_15 H 0.738135 0.727130 0.764292
H27_15 H 0.753592 0.736654 0.861086
C16_15 C 0.82322(16) 0.78697(11) 0.8251(2)
H28_15 H 0.847509 0.793636 0.803586
H29_15 H 0.819962 0.808262 0.822708
H30_15 H 0.820694 0.778514 0.885158
O5_17 O 0.87054(7) 0.83516(5) 0.55461(16)
O6_17 O 0.83165(7) 0.85432(5) 0.58803(14)
C17_17 C 0.86292(11) 0.85781(7) 0.58674(19)
C18_17 C 0.89362(11) 0.89159(8) 0.6302(2)
C19_17 C 0.92849(18) 0.90698(12) 0.5736(3)
H31_17 H 0.924072 0.915066 0.517798
H32_17 H 0.948632 0.927659 0.603419
H33_17 H 0.934790 0.887952 0.564043
C20_15 C 0.90131(18) 0.87927(12) 0.7164(3)
H34_15 H 0.908071 0.860624 0.706069
H35_15 H 0.921347 0.900153 0.745880
H36_15 H 0.879454 0.869133 0.752784
C21_17 C 0.88301(16) 0.92066(11) 0.6443(4)
H37_17 H 0.878171 0.928241 0.588296
H38_15 H 0.861070 0.910709 0.680393
H39_15 H 0.902963 0.941729 0.673489
O7_17 O 0.83908(8) 0.80745(5) 0.39468(13)
O8_17 O 0.80385(7) 0.83146(5) 0.42240(13)
C22_17 C 0.82477(11) 0.82634(8) 0.37450(19)
C23_14 C 0.83484(13) 0.84545(9) 0.2863(2)
C24_14 C 0.87426(26) 0.87662(17) 0.2935(5)
H40_17 H 0.876574 0.891984 0.343306
H41_14 H 0.890455 0.866572 0.301386
H42_14 H 0.881008 0.891273 0.240498
C25_14 C 0.81177(23) 0.86566(17) 0.2693(4)
H43_14 H 0.816646 0.883293 0.315733
H44_14 H 0.818910 0.878383 0.213552
H45_14 H 0.785728 0.847611 0.268297
C26_14 C 0.82633(27) 0.81959(18) 0.2150(4)
H46_14 H 0.833148 0.832803 0.159873
H47_14 H 0.840023 0.806783 0.222567
H48_14 H 0.800194 0.801926 0.214964
O9_15 O 0.72519(7) 0.84608(5) 0.83231(13)
O10_8 O 0.69292(8) 0.82867(6) 0.95427(13)
C27_15 C 0.72164(10) 0.83901(7) 0.91156(19)
C28_15 C 0.75486(12) 0.84339(9) 0.9621(2)
C29_15 C 0.78773(17) 0.85647(13) 0.9015(3)
H49_15 H 0.781929 0.838536 0.855354
H50_15 H 0.793512 0.879922 0.876009
H51_15 H 0.808742 0.859316 0.934517
H52_15 H 0.739721 0.788939 0.953050
O11_15 O 0.70044(7) 0.89331(5) 0.79533(13)
O12_8 O 0.66841(7) 0.87629(5) 0.91819(12)
C32_15 C 0.69015(10) 0.89984(7) 0.86597(18)
C33_15 C 0.70672(11) 0.93993(7) 0.89264(19)
C34_15 C 0.71559(15) 0.96429(9) 0.8146(2)
H58_15 H 0.731136 0.960043 0.774964
H59_15 H 0.692999 0.958868 0.784902
H60_15 H 0.728399 0.989807 0.833183
C35_15 C 0.68247(13) 0.94513(9) 0.9574(3)
H62_15 H 0.694916 0.970436 0.977554
H63_15 H 0.659516 0.939497 0.929273
C36_15 C 0.74260(13) 0.94892(9) 0.9405(2)
H64_15 H 0.736828 0.933082 0.991287
H65_15 H 0.758410 0.944909 0.901280
H66_15 H 0.755108 0.974424 0.959199
Cu4_9 Cu 0.78714(4) 0.95431(2) 0.48952(2)
Cu5_8 Cu 0.64790(3) 0.82346(2) 0.90522(2)
N5_9 N 0.85950(9) 0.75493(7) 0.47421(14)
O13_8 O 0.64042(8) 0.83799(6) 0.71239(13)
O14_8 O 0.66493(7) 0.79037(5) 0.74847(12)
Cu3_9 Cu 0.82443(2) 0.64790(3) 0.09478(2)
H2_16 H 0.756565 0.577133 0.013157
C12_16 C 0.63928(7) 0.53343(10) 0.01062(18)
C13_16 C 0.62887(8) 0.53902(11) 0.1022(2)
C14_16 C 0.59088(10) 0.53434(15) 0.1030(3)
H22_16 H 0.573290 0.509981 0.081687
H23_16 H 0.584480 0.537276 0.162205
H24_16 H 0.590413 0.552733 0.065411
C15_16 C 0.65614(10) 0.57681(14) 0.1352(2)
H25_16 H 0.680619 0.579840 0.134685
H26_16 H 0.655662 0.595199 0.097626
H27_16 H 0.649729 0.579742 0.194420
C16_16 C 0.63042(11) 0.51012(16) 0.1585(2)
H28_16 H 0.612794 0.485825 0.136920
H29_16 H 0.654967 0.513372 0.156042
H30_16 H 0.624487 0.512640 0.218492
C20_16 C 0.64463(13) 0.43203(18) 0.0498(3)
H34_16 H 0.619220 0.425263 0.039403
H35_16 H 0.645473 0.411987 0.079214
H36_16 H 0.656346 0.453880 0.086118
H38_16 H 0.716306 0.472264 0.013727
H39_16 H 0.705433 0.430371 0.006823
O9_16 O 0.78756(5) 0.60815(7) 0.16565(13)
O10_9 O 0.80242(5) 0.64042(8) 0.28761(13)
C27_16 C 0.78404(7) 0.61170(10) 0.24490(19)
C28_16 C 0.75520(8) 0.57848(12) 0.2955(2)
C29_16 C 0.73541(11) 0.54561(17) 0.2349(3)
H49_16 H 0.723274 0.551405 0.188688
H50_16 H 0.753077 0.539822 0.209343
H51_16 H 0.717241 0.524592 0.267851
C30_14 C 0.72805(10) 0.58834(15) 0.3335(3)
H52_16 H 0.715885 0.593613 0.286384
H53_14 H 0.709879 0.567893 0.367917
H54_14 H 0.740962 0.609865 0.370541
C31_14 C 0.77431(10) 0.57023(16) 0.3679(3)
H55_14 H 0.791683 0.563911 0.342920
H56_14 H 0.787321 0.591700 0.405050
H57_14 H 0.756238 0.549729 0.402426
O11_16 O 0.85954(5) 0.63290(7) 0.12867(13)
O12_9 O 0.87455(5) 0.66493(7) 0.25153(12)
C32_16 C 0.87636(7) 0.64319(10) 0.19931(18)
C33_16 C 0.89988(8) 0.62662(11) 0.22598(19)
C34_16 C 0.91537(12) 0.61775(15) 0.1480(2)
H58_16 H 0.895574 0.602198 0.108298
H59_16 H 0.932536 0.640335 0.118236
H60_16 H 0.928075 0.604935 0.166517
C35_16 C 0.92933(10) 0.65087(13) 0.2908(3)
H61_14 H 0.918060 0.655910 0.340207
H62_16 H 0.942187 0.638418 0.310888
H63_16 H 0.946648 0.673818 0.262607
C36_16 C 0.87299(10) 0.59074(13) 0.2739(2)
H64_16 H 0.862921 0.596506 0.324621
H65_16 H 0.853166 0.574924 0.234614
H66_16 H 0.885983 0.578226 0.292533
Cu5_9 Cu 0.84223(2) 0.68544(3) 0.23856(2)
O13_9 O 0.86424(5) 0.69292(8) 0.04573(13)
O14_9 O 0.79211(5) 0.66841(7) 0.08181(12)
O1_18 O 0.74318(5) 0.95759(5) 0.52237(13)
C7_18 C 0.74079(7) 0.98570(7) 0.51975(17)
C8_18 C 0.70383(8) 0.98246(8) 0.5357(2)
C9_18 C 0.67635(9) 0.94504(10) 0.5703(3)
H13_18 H 0.684941 0.940932 0.625802
H14_18 H 0.673598 0.926349 0.528755
H15_14 H 0.652809 0.943706 0.578643
C11_18 C 0.69222(11) 0.99047(15) 0.4504(3)
H20_18 H 0.668841 0.989616 0.457399
H21_18 H 0.689630 0.972259 0.407511
O3_18 O 0.77008(6) 0.94716(5) 0.36999(13)
C12_17 C 0.77252(7) 0.97262(7) 0.32272(18)
C13_17 C 0.75652(8) 0.96221(8) 0.2312(2)
C14_17 C 0.72321(11) 0.92422(10) 0.2304(3)
H22_17 H 0.729976 0.906624 0.251647
H23_17 H 0.713871 0.917814 0.171129
H24_17 H 0.704347 0.923747 0.267923
C15_17 C 0.74600(10) 0.98948(10) 0.1982(2)
H26_17 H 0.727130 0.988996 0.235708
H27_17 H 0.736654 0.983063 0.138914
C16_17 C 0.78697(11) 0.96376(11) 0.1749(2)
H28_17 H 0.793636 0.946128 0.196414
H29_17 H 0.808262 0.988301 0.177292
H30_17 H 0.778514 0.957821 0.114842
O5_18 O 0.83516(5) 0.96463(5) 0.44539(16)
C17_18 C 0.85781(7) 0.99490(8) 0.41326(19)
C18_18 C 0.89159(8) 0.99798(8) 0.3698(2)
C19_18 C 0.90698(12) 0.97850(14) 0.4264(3)
H31_18 H 0.915066 0.990995 0.482202
H32_18 H 0.927659 0.979028 0.396581
H33_18 H 0.887952 0.953163 0.435957
C20_17 C 0.87927(12) 0.97797(13) 0.2836(3)
H34_17 H 0.860624 0.952554 0.293931
H35_17 H 0.900153 0.978807 0.254120
H36_17 H 0.869133 0.989680 0.247216
O7_18 O 0.80745(5) 0.96838(6) 0.60532(13)
H41_15 H 0.866572 0.976118 0.698614
C26_15 C 0.81959(18) 0.9933(2) 0.7850(4)
H46_15 H 0.832803 0.999656 0.840127
H47_15 H 0.806783 0.966761 0.777433
Cu1_18 Cu 0.97667(2) 0.78892(3) 0.45762(2)
N1_18 N 0.91645(5) 0.75455(7) 0.45055(14)
N3_18 N 0.86233(5) 0.71436(7) 0.36506(13)
N4_18 N 0.86457(5) 0.70247(7) 0.51992(14)
C1_18 C 0.90250(6) 0.73712(8) 0.36516(16)
H1_18 H 0.913291 0.721790 0.350509
H2_17 H 0.910101 0.756201 0.320177
C2_18 C 0.85182(7) 0.68626(10) 0.43441(17)
H3_18 H 0.862191 0.670488 0.420567
H4_18 H 0.824983 0.670756 0.435581
C3_18 C 0.84661(7) 0.73761(9) 0.38800(16)
H5_18 H 0.853581 0.756770 0.343471
H6_18 H 0.819714 0.722603 0.388532
C4_18 C 0.84912(7) 0.72552(10) 0.54038(17)
H7_18 H 0.822256 0.710369 0.542910
H8_18 H 0.857843 0.736702 0.598085
C5_18 C 0.90437(6) 0.72515(9) 0.51696(17)
H9_18 H 0.913445 0.736253 0.574577
H10_18 H 0.915064 0.709633 0.503406
C6_18 C 0.89975(6) 0.77719(8) 0.47170(17)
H11_18 H 0.907120 0.796591 0.427632
H12_18 H 0.908832 0.789001 0.528678
O2_18 O 0.98288(5) 0.74959(7) 0.50244(15)
C10_18 C 0.98862(10) 0.69707(15) 0.6035(3)
H16_18 H 0.993970 0.709980 0.658895
H17_18 H 0.989165 0.674396 0.610860
H18_18 H 0.964434 0.691447 0.583385
H19_18 H 0.985244 0.695872 0.430419
O4_18 O 0.99475(5) 0.78245(8) 0.34454(13)
H25_17 H 0.986047 0.753494 0.198649
O6_18 O 0.97732(5) 0.83165(7) 0.41197(14)
C21_18 C 0.96234(11) 0.88301(16) 0.3557(4)
H37_18 H 0.949929 0.878171 0.411704
H38_17 H 0.950360 0.861070 0.319607
H39_17 H 0.961233 0.902963 0.326511
O8_18 O 0.97238(5) 0.80385(7) 0.57760(13)
C22_18 C 0.99842(8) 0.82477(11) 0.62550(19)
C23_15 C 0.98938(10) 0.83484(13) 0.7137(2)
C24_15 C 0.9976(2) 0.87426(26) 0.7065(5)
H40_18 H 0.984589 0.876574 0.656694
H42_15 H 0.989734 0.881008 0.759502
C25_15 C 0.94610(15) 0.81177(23) 0.7307(4)
H43_15 H 0.933352 0.816646 0.684267
H44_15 H 0.940526 0.818910 0.786448
H45_15 H 0.938116 0.785728 0.731703
H48_15 H 0.998267 0.800194 0.785036
O9_17 O 0.87910(5) 0.72519(7) 0.16769(13)
C27_17 C 0.88262(7) 0.72164(10) 0.08844(19)
C28_17 C 0.91146(8) 0.75486(12) 0.0379(2)
C29_17 C 0.93125(11) 0.78773(17) 0.0985(3)
H49_17 H 0.943392 0.781929 0.144646
H50_17 H 0.913589 0.793512 0.123991
H51_17 H 0.949425 0.808742 0.065483
H52_17 H 0.950781 0.739721 0.046950
O11_17 O 0.80712(5) 0.70044(7) 0.20467(13)
C32_17 C 0.79030(7) 0.69015(10) 0.13403(18)
C33_17 C 0.76678(8) 0.70672(11) 0.10736(19)
C34_17 C 0.75129(12) 0.71559(15) 0.1854(2)
H58_17 H 0.771092 0.731136 0.225036
H59_17 H 0.734130 0.692999 0.215098
H60_17 H 0.738591 0.728399 0.166817
C35_17 C 0.73733(10) 0.68247(13) 0.0426(3)
H62_17 H 0.724479 0.694916 0.022446
H63_17 H 0.720018 0.659516 0.070727
C36_17 C 0.79367(10) 0.74260(13) 0.0595(2)
H64_17 H 0.803745 0.736828 0.008713
H65_17 H 0.813500 0.758410 0.098720
H66_17 H 0.780683 0.755108 0.040801
H2_18 H 0.577133 0.820567 0.986843
C12_18 C 0.53343(10) 0.89414(7) 0.98938(18)
C13_18 C 0.53902(11) 0.91014(8) 0.8978(2)
C14_18 C 0.53434(15) 0.94345(11) 0.8970(3)
H22_18 H 0.509981 0.936690 0.918313
H23_18 H 0.537276 0.952795 0.837795
H24_18 H 0.552733 0.962319 0.934589
C15_18 C 0.57681(14) 0.92066(10) 0.8648(2)
H25_18 H 0.579840 0.899220 0.865315
H26_18 H 0.595199 0.939536 0.902374
H27_18 H 0.579742 0.930012 0.805580
C16_18 C 0.51012(16) 0.87969(11) 0.8415(2)
H28_18 H 0.485825 0.873030 0.863080
H29_18 H 0.513372 0.858404 0.843958
H30_18 H 0.512640 0.888152 0.781508
C20_18 C 0.43203(18) 0.78739(12) 0.9502(3)
H34_18 H 0.425263 0.806042 0.960597
H35_18 H 0.411987 0.766513 0.920786
H36_18 H 0.453880 0.797533 0.913882
H38_18 H 0.472264 0.755957 0.986273
H39_18 H 0.430371 0.724937 0.993177
O9_18 O 0.60815(7) 0.82058(5) 0.83435(13)
C27_18 C 0.61170(10) 0.82765(7) 0.75510(19)
C28_18 C 0.57848(12) 0.82327(9) 0.7045(2)
C29_18 C 0.54561(17) 0.81019(13) 0.7651(3)
H49_18 H 0.551405 0.828130 0.811312
H50_18 H 0.539822 0.786744 0.790657
H51_18 H 0.524592 0.807350 0.732149
C30_15 C 0.58834(15) 0.86028(11) 0.6665(3)
H52_18 H 0.593613 0.877727 0.713616
H53_15 H 0.567893 0.858013 0.632083
H54_15 H 0.609865 0.868902 0.629459
C31_15 C 0.57023(16) 0.79591(12) 0.6321(3)
H55_15 H 0.563911 0.772227 0.657080
H56_15 H 0.591700 0.804378 0.594950
H57_15 H 0.549729 0.793490 0.597574
O11_18 O 0.63290(7) 0.77335(5) 0.87133(13)
C32_18 C 0.64319(10) 0.76682(7) 0.80069(18)
C33_18 C 0.62662(11) 0.72673(7) 0.77402(19)
C34_18 C 0.61775(15) 0.70237(9) 0.8520(2)
H58_18 H 0.602198 0.706623 0.891702
H59_18 H 0.640335 0.707798 0.881764
H60_18 H 0.604935 0.676859 0.833483
C35_18 C 0.65087(13) 0.72153(9) 0.7092(3)
H61_15 H 0.655910 0.737849 0.659793
H62_18 H 0.638418 0.696230 0.689112
H63_18 H 0.673818 0.727169 0.737393
C36_18 C 0.59074(13) 0.71774(9) 0.7261(2)
H64_18 H 0.596506 0.733584 0.675379
H65_18 H 0.574924 0.721757 0.765386
H66_18 H 0.578226 0.692242 0.707467
H15_15 H 0.013857 0.389628 0.754691
H15_16 H 0.375770 0.986143 0.754691
C23_16 C 0.51212(9) 0.34395(10) 0.0470(2)
C24_16 C 0.54329(17) 0.3357(2) 0.0398(5)
H41_16 H 0.533239 0.309451 0.031947
H42_16 H 0.557940 0.343599 0.092835
C25_16 C 0.53233(17) 0.38723(15) 0.0640(4)
H43_16 H 0.549960 0.399981 0.017600
H44_16 H 0.545050 0.392807 0.119781
H45_16 H 0.514278 0.395217 0.065036
C26_16 C 0.48626(18) 0.3266(2) 0.1183(4)
H46_16 H 0.499470 0.332989 0.173460
H47_16 H 0.473450 0.300094 0.110766
H48_16 H 0.468593 0.335066 0.118369
C23_17 C 0.65605(10) 0.16817(13) 0.0470(2)
C24_17 C 0.6643(2) 0.20759(26) 0.0398(5)
H41_17 H 0.690549 0.223788 0.031947
H42_17 H 0.656401 0.214341 0.092835
C25_17 C 0.61277(15) 0.14510(23) 0.0640(4)
H43_17 H 0.600019 0.149979 0.017600
H44_17 H 0.607193 0.152243 0.119781
H45_17 H 0.604783 0.119061 0.065036
C26_17 C 0.6734(2) 0.15966(27) 0.1183(4)
H46_17 H 0.667011 0.166481 0.173460
H47_17 H 0.699906 0.173356 0.110766
H48_17 H 0.664934 0.133527 0.118369
C23_18 C 0.83183(13) 0.48788(9) 0.0470(2)
C24_18 C 0.79241(26) 0.45671(17) 0.0398(5)
H41_18 H 0.776212 0.466761 0.031947
H42_18 H 0.785659 0.442060 0.092835
C25_18 C 0.85490(23) 0.46767(17) 0.0640(4)
H43_18 H 0.850021 0.450040 0.017600
H44_18 H 0.847757 0.454950 0.119781
H45_18 H 0.880939 0.485722 0.065036
C26_18 C 0.84034(27) 0.51374(18) 0.1183(4)
H46_18 H 0.833519 0.500530 0.173460
H47_18 H 0.826644 0.526550 0.110766
H48_18 H 0.866473 0.531407 0.118369
C30_16 C 0.80638(11) 0.06139(10) 0.9999(3)
H53_16 H 0.808653 0.043213 0.965417
H54_16 H 0.797764 0.074296 0.962793
C31_16 C 0.87075(12) 0.10765(10) 0.9655(3)
H55_16 H 0.894439 0.125017 0.990414
H56_16 H 0.862288 0.120655 0.928284
H57_16 H 0.873176 0.089572 0.930908
H61_16 H 0.928817 0.251394 0.993127
C30_17 C 0.93861(10) 0.74500(15) 0.9999(3)
H53_17 H 0.956787 0.765441 0.965417
H54_17 H 0.925704 0.723469 0.962793
C31_17 C 0.89235(10) 0.76311(16) 0.9655(3)
H55_17 H 0.874983 0.769423 0.990414
H56_17 H 0.879345 0.741634 0.928284
H57_17 H 0.910428 0.783605 0.930908
H61_17 H 0.748606 0.677424 0.993127
C30_18 C 0.25500(15) 0.19362(11) 0.9999(3)
H53_18 H 0.234559 0.191347 0.965417
H54_18 H 0.276531 0.202236 0.962793
C31_18 C 0.23689(16) 0.12925(12) 0.9655(3)
H55_18 H 0.230577 0.105561 0.990414
H56_18 H 0.258366 0.137712 0.928284
H57_18 H 0.216395 0.126824 0.930908
H61_18 H 0.322576 0.071183 0.993127
H15_17 H 0.986143 0.610372 0.245309
H15_18 H 0.624230 0.013857 0.245309
loop_
_geom_bond_atom_site_label_1
_geom_bond_atom_site_label_2
_geom_bond_site_symmetry_1
_geom_bond_site_symmetry_2
Cu1 N1 1_555 1_555
Cu2 O1 1_555 1_555
Cu3 N3 1_555 1_555
N1 C1 1_555 1_555
N2 C3 1_555 1_555
N3 C1 1_555 1_555
N4 C2 1_555 1_555
C1 H1 1_555 1_555
H2 C1 1_555 1_555
C2 N3 1_555 1_555
H3 C2 1_555 1_555
H4 C2 1_555 1_555
C3 N3 1_555 1_555
H5 C3 1_555 1_555
H6 C3 1_555 1_555
C4 N2 1_555 1_555
H7 C4 1_555 1_555
H8 C4 1_555 1_555
C5 N1 1_555 1_555
H9 C5 1_555 1_555
H10 C5 1_555 1_555
C6 N1 1_555 1_555
H11 C6 1_555 1_555
H12 C6 1_555 1_555
O1 C7 1_555 1_555
O2 Cu1 1_555 1_555
C7 O2 1_555 1_555
C8 C7 1_555 1_555
C9 C8 1_555 1_555
H13 C9 1_555 1_555
H14 C9 1_555 1_555
H15 C9 1_555 1_555
C10 C8 1_555 1_555
H16 C10 1_555 1_555
H17 C10 1_555 1_555
H18 C10 1_555 1_555
C11 C8 1_555 1_555
H19 C11 1_555 1_555
H20 C11 1_555 1_555
H21 C11 1_555 1_555
O3 Cu2 1_555 1_555
O4 Cu1 1_555 1_555
C12 O3 1_555 1_555
C13 C12 1_555 1_555
C14 C13 1_555 1_555
H22 C14 1_555 1_555
H23 C14 1_555 1_555
H24 C14 1_555 1_555
C15 C13 1_555 1_555
H25 C15 1_555 1_555
H26 C15 1_555 1_555
H27 C15 1_555 1_555
C16 C13 1_555 1_555
H28 C16 1_555 1_555
H29 C16 1_555 1_555
H30 C16 1_555 1_555
O5 Cu2 1_555 1_555
O6 Cu1 1_555 1_555
C17 O5 1_555 1_555
C18 C17 1_555 1_555
C19 C18 1_555 1_555
H31 C19 1_555 1_555
H32 C19 1_555 1_555
H33 C19 1_555 1_555
C20 C18 1_555 1_555
H34 C20 1_555 1_555
H35 C20 1_555 1_555
H36 C20 1_555 1_555
C21 C18 1_555 1_555
H37 C21 1_555 1_555
H38 C21 1_555 1_555
H39 C21 1_555 1_555
O7 Cu2 1_555 1_555
O8 Cu1 1_555 1_555
C22 O7 1_555 1_555
O9 Cu3 1_555 1_555
O10 C27 1_555 1_555
C27 O9 1_555 1_555
C28 C27 1_555 1_555
C29 C28 1_555 1_555
H49 C29 1_555 1_555
H50 C29 1_555 1_555
H51 C29 1_555 1_555
C30 C28 1_555 1_555
H52 C30 1_555 1_555
H53 C30 1_555 1_555
H54 C30 1_555 1_555
C31 C28 1_555 1_555
H55 C31 1_555 1_555
H56 C31 1_555 1_555
H57 C31 1_555 1_555
O11 Cu3 1_555 1_555
O12 C32 1_555 1_555
C32 O11 1_555 1_555
C33 C32 1_555 1_555
C34 C33 1_555 1_555
H58 C34 1_555 1_555
H59 C34 1_555 1_555
H60 C34 1_555 1_555
C35 C33 1_555 1_555
H61 C35 1_555 1_555
H62 C35 1_555 1_555
H63 C35 1_555 1_555
C36 C33 1_555 1_555
H64 C36 1_555 1_555
H65 C36 1_555 1_555
H66 C36 1_555 1_555
Cu4 N2 1_555 1_555
Cu5 O10 1_555 1_555
N5 Cu2 1_555 1_555
O13 Cu3 1_555 1_555
O14 Cu3 1_555 1_555
N2 C6 1_555 1_555
N4 C4 1_555 1_555
N4 C5 1_555 1_555
O4 C12 1_555 1_555
O6 C17 1_555 1_555
O8 C22 1_555 1_555
O12 Cu5 1_555 1_555
Cu1_2 N1_2 1_555 1_555
Cu2_2 O1_2 1_555 1_555
Cu3_2 N3_2 1_555 1_555
N1_2 C1_2 1_555 1_555
N2_2 C3_2 1_555 1_555
N3_2 C1_2 1_555 1_555
N4_2 C2_2 1_555 1_555
C1_2 H1_2 1_555 1_555
H2_2 C1_2 1_555 1_555
C2_2 N3_2 1_555 1_555
H3_2 C2_2 1_555 1_555
H4_2 C2_2 1_555 1_555
C3_2 N3_2 1_555 1_555
H5_2 C3_2 1_555 1_555
H6_2 C3_2 1_555 1_555
C4_2 N2_2 1_555 1_555
H7_2 C4_2 1_555 1_555
H8_2 C4_2 1_555 1_555
C5_2 N1_2 1_555 1_555
H9_2 C5_2 1_555 1_555
H10_2 C5_2 1_555 1_555
C6_2 N1_2 1_555 1_555
H11_2 C6_2 1_555 1_555
H12_2 C6_2 1_555 1_555
O1_2 C7_2 1_555 1_555
O2_2 Cu1_2 1_555 1_555
C7_2 O2_2 1_555 1_555
C8_2 C7_2 1_555 1_555
C9_2 C8_2 1_555 1_555
H13_2 C9_2 1_555 1_555
H14_2 C9_2 1_555 1_555
H15_2 C9_2 1_555 1_555
C10_2 C8_2 1_555 1_555
H16_2 C10_2 1_555 1_555
H17_2 C10_2 1_555 1_555
H18_2 C10_2 1_555 1_555
C11_2 C8_2 1_555 1_555
H19_2 C11_2 1_555 1_555
H20_2 C11_2 1_555 1_555
H21_2 C11_2 1_555 1_555
O3_2 Cu2_2 1_555 1_555
O4_2 Cu1_2 1_555 1_555
C12_2 O3_2 1_555 1_555
C13_2 C12_2 1_555 1_555
C14_2 C13_2 1_555 1_555
H22_2 C14_2 1_555 1_555
H23_2 C14_2 1_555 1_555
H24_2 C14_2 1_555 1_555
C15_2 C13_2 1_555 1_555
H25_2 C15_2 1_555 1_555
H26_2 C15_2 1_555 1_555
H27_2 C15_2 1_555 1_555
C16_2 C13_2 1_555 1_555
H28_2 C16_2 1_555 1_555
H29_2 C16_2 1_555 1_555
H30_2 C16_2 1_555 1_555
O5_2 Cu2_2 1_555 1_555
O6_2 Cu1_2 1_555 1_555
C17_2 O5_2 1_555 1_555
C18_2 C17_2 1_555 1_555
C19_2 C18_2 1_555 1_555
H31_2 C19_2 1_555 1_555
H32_2 C19_2 1_555 1_555
H33_2 C19_2 1_555 1_555
C20_2 C18_2 1_555 1_555
H34_2 C20_2 1_555 1_555
H35_2 C20_2 1_555 1_555
H36_2 C20_2 1_555 1_555
C21_2 C18_2 1_555 1_555
H37_2 C21_2 1_555 1_555
H38_2 C21_2 1_555 1_555
H39_2 C21_2 1_555 1_555
O7_2 Cu2_2 1_555 1_555
O8_2 Cu1_2 1_555 1_555
C22_2 O7_2 1_555 1_555
O9_2 Cu3_2 1_555 1_555
O10_2 C27_2 1_555 1_555
C27_2 O9_2 1_555 1_555
C28_2 C27_2 1_555 1_555
C29_2 C28_2 1_555 1_555
H49_2 C29_2 1_555 1_555
H50_2 C29_2 1_555 1_555
H51_2 C29_2 1_555 1_555
C30_2 C28_2 1_555 1_555
H52_2 C30_2 1_555 1_555
H53_2 C30_2 1_555 1_555
H54_2 C30_2 1_555 1_555
C31_2 C28_2 1_555 1_555
H55_2 C31_2 1_555 1_555
H56_2 C31_2 1_555 1_555
H57_2 C31_2 1_555 1_555
O11_2 Cu3_2 1_555 1_555
O12_2 C32_2 1_555 1_555
C32_2 O11_2 1_555 1_555
C33_2 C32_2 1_555 1_555
C34_2 C33_2 1_555 1_555
H58_2 C34_2 1_555 1_555
H59_2 C34_2 1_555 1_555
H60_2 C34_2 1_555 1_555
C35_2 C33_2 1_555 1_555
H61_2 C35_2 1_555 1_555
H62_2 C35_2 1_555 1_555
C36_2 C33_2 1_555 1_555
H64_2 C36_2 1_555 1_555
H65_2 C36_2 1_555 1_555
H66_2 C36_2 1_555 1_555
Cu4_2 N2_2 1_555 1_555
N5_2 Cu2_2 1_555 1_555
N2_2 C6_2 1_555 1_555
N4_2 C4_2 1_555 1_555
N4_2 C5_2 1_555 1_555
O4_2 C12_2 1_555 1_555
O6_2 C17_2 1_555 1_555
O8_2 C22_2 1_555 1_555
Cu1_3 N1_3 1_555 1_555
Cu2_3 O1_3 1_555 1_555
Cu3_3 N3_3 1_555 1_555
N1_3 C1_3 1_555 1_555
N2_3 C3_3 1_555 1_555
N3_3 C1_3 1_555 1_555
N4_3 C2_3 1_555 1_555
C1_3 H1_3 1_555 1_555
H2_3 C1_3 1_555 1_555
C2_3 N3_3 1_555 1_555
H3_3 C2_3 1_555 1_555
H4_3 C2_3 1_555 1_555
C3_3 N3_3 1_555 1_555
H5_3 C3_3 1_555 1_555
H6_3 C3_3 1_555 1_555
C4_3 N2_3 1_555 1_555
H7_3 C4_3 1_555 1_555
H8_3 C4_3 1_555 1_555
C5_3 N1_3 1_555 1_555
H9_3 C5_3 1_555 1_555
H10_3 C5_3 1_555 1_555
C6_3 N1_3 1_555 1_555
H11_3 C6_3 1_555 1_555
H12_3 C6_3 1_555 1_555
O1_3 C7_3 1_555 1_555
O2_3 Cu1_3 1_555 1_555
C7_3 O2_3 1_555 1_555
C8_3 C7_3 1_555 1_555
C9_3 C8_3 1_555 1_555
H13_3 C9_3 1_555 1_555
H14_3 C9_3 1_555 1_555
H15_3 C9_3 1_555 1_555
C10_3 C8_3 1_555 1_555
H16_3 C10_3 1_555 1_555
H17_3 C10_3 1_555 1_555
H18_3 C10_3 1_555 1_555
C11_3 C8_3 1_555 1_555
H19_3 C11_3 1_555 1_555
H20_3 C11_3 1_555 1_555
H21_3 C11_3 1_555 1_555
O3_3 Cu2_3 1_555 1_555
O4_3 Cu1_3 1_555 1_555
C12_3 O3_3 1_555 1_555
C13_3 C12_3 1_555 1_555
C14_3 C13_3 1_555 1_555
H22_3 C14_3 1_555 1_555
H23_3 C14_3 1_555 1_555
H24_3 C14_3 1_555 1_555
C15_3 C13_3 1_555 1_555
H25_3 C15_3 1_555 1_555
H26_3 C15_3 1_555 1_555
H27_3 C15_3 1_555 1_555
C16_3 C13_3 1_555 1_555
H28_3 C16_3 1_555 1_555
H29_3 C16_3 1_555 1_555
H30_3 C16_3 1_555 1_555
O5_3 Cu2_3 1_555 1_555
O6_3 Cu1_3 1_555 1_555
C17_3 O5_3 1_555 1_555
C18_3 C17_3 1_555 1_555
C19_3 C18_3 1_555 1_555
H31_3 C19_3 1_555 1_555
H32_3 C19_3 1_555 1_555
H33_3 C19_3 1_555 1_555
C20_3 C18_3 1_555 1_555
H34_3 C20_3 1_555 1_555
H35_3 C20_3 1_555 1_555
H36_3 C20_3 1_555 1_555
C21_3 C18_3 1_555 1_555
H37_3 C21_3 1_555 1_555
H38_3 C21_3 1_555 1_555
H39_3 C21_3 1_555 1_555
O7_3 Cu2_3 1_555 1_555
O8_3 Cu1_3 1_555 1_555
C22_3 O7_3 1_555 1_555
O9_3 Cu3_3 1_555 1_555
O10_3 C27_3 1_555 1_555
C27_3 O9_3 1_555 1_555
C28_3 C27_3 1_555 1_555
C29_3 C28_3 1_555 1_555
H49_3 C29_3 1_555 1_555
H50_3 C29_3 1_555 1_555
H51_3 C29_3 1_555 1_555
C30_3 C28_3 1_555 1_555
H52_3 C30_3 1_555 1_555
H53_3 C30_3 1_555 1_555
H54_3 C30_3 1_555 1_555
C31_3 C28_3 1_555 1_555
H55_3 C31_3 1_555 1_555
H56_3 C31_3 1_555 1_555
H57_3 C31_3 1_555 1_555
O11_3 Cu3_3 1_555 1_555
O12_3 C32_3 1_555 1_555
C32_3 O11_3 1_555 1_555
C33_3 C32_3 1_555 1_555
C34_3 C33_3 1_555 1_555
H58_3 C34_3 1_555 1_555
H59_3 C34_3 1_555 1_555
H60_3 C34_3 1_555 1_555
C35_3 C33_3 1_555 1_555
H61_3 C35_3 1_555 1_555
H62_3 C35_3 1_555 1_555
C36_3 C33_3 1_555 1_555
H64_3 C36_3 1_555 1_555
H65_3 C36_3 1_555 1_555
H66_3 C36_3 1_555 1_555
Cu4_3 N2_3 1_555 1_555
N5_3 Cu2_3 1_555 1_555
N2_3 C6_3 1_555 1_555
N4_3 C4_3 1_555 1_555
N4_3 C5_3 1_555 1_555
O4_3 C12_3 1_555 1_555
O6_3 C17_3 1_555 1_555
O8_3 C22_3 1_555 1_555
Cu1_4 N1_4 1_555 1_555
Cu2_4 O1_4 1_555 1_555
N1_4 C1_4 1_555 1_555
N2_4 C3_4 1_555 1_555
N3_4 C1_4 1_555 1_555
N4_4 C2_4 1_555 1_555
C1_4 H1_4 1_555 1_555
C2_4 N3_4 1_555 1_555
H3_4 C2_4 1_555 1_555
H4_4 C2_4 1_555 1_555
C3_4 N3_4 1_555 1_555
H5_4 C3_4 1_555 1_555
H6_4 C3_4 1_555 1_555
C4_4 N2_4 1_555 1_555
H7_4 C4_4 1_555 1_555
H8_4 C4_4 1_555 1_555
C5_4 N1_4 1_555 1_555
H9_4 C5_4 1_555 1_555
H10_4 C5_4 1_555 1_555
C6_4 N1_4 1_555 1_555
H11_4 C6_4 1_555 1_555
H12_4 C6_4 1_555 1_555
O1_4 C7_4 1_555 1_555
O2_4 Cu1_4 1_555 1_555
C7_4 O2_4 1_555 1_555
C8_4 C7_4 1_555 1_555
C9_4 C8_4 1_555 1_555
H13_4 C9_4 1_555 1_555
H14_4 C9_4 1_555 1_555
C10_4 C8_4 1_555 1_555
H16_4 C10_4 1_555 1_555
H17_4 C10_4 1_555 1_555
H18_4 C10_4 1_555 1_555
C11_4 C8_4 1_555 1_555
H19_4 C11_4 1_555 1_555
H20_4 C11_4 1_555 1_555
H21_4 C11_4 1_555 1_555
O3_4 Cu2_4 1_555 1_555
O4_4 Cu1_4 1_555 1_555
O5_4 Cu2_4 1_555 1_555
O6_4 Cu1_4 1_555 1_555
C17_4 O5_4 1_555 1_555
C18_4 C17_4 1_555 1_555
C19_4 C18_4 1_555 1_555
H31_4 C19_4 1_555 1_555
H32_4 C19_4 1_555 1_555
H33_4 C19_4 1_555 1_555
C21_4 C18_4 1_555 1_555
H37_4 C21_4 1_555 1_555
O7_4 Cu2_4 1_555 1_555
O8_4 Cu1_4 1_555 1_555
C22_4 O7_4 1_555 1_555
C23 C22_4 1_555 1_555
C24 C23 1_555 1_555
H40_4 C24 1_555 1_555
H41 C24 1_555 1_555
H42 C24 1_555 1_555
C25 C23 1_555 1_555
H43 C25 1_555 1_555
H44 C25 1_555 1_555
H45 C25 1_555 1_555
C26 C23 1_555 1_555
H46 C26 1_555 1_555
H47 C26 1_555 1_555
H48 C26 1_555 1_555
Cu4_4 N2_4 1_555 1_555
N5_4 Cu2_4 1_555 1_555
N2_4 C6_4 1_555 1_555
N4_4 C4_4 1_555 1_555
N4_4 C5_4 1_555 1_555
O6_4 C17_4 1_555 1_555
O8_4 C22_4 1_555 1_555
Cu1_5 N1_5 1_555 1_555
Cu2_5 O1_5 1_555 1_555
N1_5 C1_5 1_555 1_555
N2_5 C3_5 1_555 1_555
N3_5 C1_5 1_555 1_555
N4_5 C2_5 1_555 1_555
C1_5 H1_5 1_555 1_555
C2_5 N3_5 1_555 1_555
H3_5 C2_5 1_555 1_555
H4_5 C2_5 1_555 1_555
C3_5 N3_5 1_555 1_555
H5_5 C3_5 1_555 1_555
H6_5 C3_5 1_555 1_555
C4_5 N2_5 1_555 1_555
H7_5 C4_5 1_555 1_555
H8_5 C4_5 1_555 1_555
C5_5 N1_5 1_555 1_555
H9_5 C5_5 1_555 1_555
H10_5 C5_5 1_555 1_555
C6_5 N1_5 1_555 1_555
H11_5 C6_5 1_555 1_555
H12_5 C6_5 1_555 1_555
O1_5 C7_5 1_555 1_555
O2_5 Cu1_5 1_555 1_555
C7_5 O2_5 1_555 1_555
C8_5 C7_5 1_555 1_555
C9_5 C8_5 1_555 1_555
H13_5 C9_5 1_555 1_555
H14_5 C9_5 1_555 1_555
H15_4 C9_5 1_555 1_555
C10_5 C8_5 1_555 1_555
H16_5 C10_5 1_555 1_555
H17_5 C10_5 1_555 1_555
H18_5 C10_5 1_555 1_555
C11_5 C8_5 1_555 1_555
H19_5 C11_5 1_555 1_555
H20_5 C11_5 1_555 1_555
H21_5 C11_5 1_555 1_555
O3_5 Cu2_5 1_555 1_555
O4_5 Cu1_5 1_555 1_555
O5_5 Cu2_5 1_555 1_555
O6_5 Cu1_5 1_555 1_555
C17_5 O5_5 1_555 1_555
C18_5 C17_5 1_555 1_555
C19_5 C18_5 1_555 1_555
H31_5 C19_5 1_555 1_555
H32_5 C19_5 1_555 1_555
H33_5 C19_5 1_555 1_555
C21_5 C18_5 1_555 1_555
H37_5 C21_5 1_555 1_555
O7_5 Cu2_5 1_555 1_555
O8_5 Cu1_5 1_555 1_555
C22_5 O7_5 1_555 1_555
C23_2 C22_5 1_555 1_555
C24_2 C23_2 1_555 1_555
H40_5 C24_2 1_555 1_555
H41_2 C24_2 1_555 1_555
H42_2 C24_2 1_555 1_555
C25_2 C23_2 1_555 1_555
H43_2 C25_2 1_555 1_555
H44_2 C25_2 1_555 1_555
H45_2 C25_2 1_555 1_555
C26_2 C23_2 1_555 1_555
H46_2 C26_2 1_555 1_555
H47_2 C26_2 1_555 1_555
H48_2 C26_2 1_555 1_555
Cu4_5 N2_5 1_555 1_555
N5_5 Cu2_5 1_555 1_555
N2_5 C6_5 1_555 1_555
N4_5 C4_5 1_555 1_555
N4_5 C5_5 1_555 1_555
O6_5 C17_5 1_555 1_555
O8_5 C22_5 1_555 1_555
Cu1_6 N1_6 1_555 1_555
Cu2_6 O1_6 1_555 1_555
N1_6 C1_6 1_555 1_555
N2_6 C3_6 1_555 1_555
N3_6 C1_6 1_555 1_555
N4_6 C2_6 1_555 1_555
C1_6 H1_6 1_555 1_555
C2_6 N3_6 1_555 1_555
H3_6 C2_6 1_555 1_555
H4_6 C2_6 1_555 1_555
C3_6 N3_6 1_555 1_555
H5_6 C3_6 1_555 1_555
H6_6 C3_6 1_555 1_555
C4_6 N2_6 1_555 1_555
H7_6 C4_6 1_555 1_555
H8_6 C4_6 1_555 1_555
C5_6 N1_6 1_555 1_555
H9_6 C5_6 1_555 1_555
H10_6 C5_6 1_555 1_555
C6_6 N1_6 1_555 1_555
H11_6 C6_6 1_555 1_555
H12_6 C6_6 1_555 1_555
O1_6 C7_6 1_555 1_555
O2_6 Cu1_6 1_555 1_555
C7_6 O2_6 1_555 1_555
C8_6 C7_6 1_555 1_555
C9_6 C8_6 1_555 1_555
H13_6 C9_6 1_555 1_555
H14_6 C9_6 1_555 1_555
C10_6 C8_6 1_555 1_555
H16_6 C10_6 1_555 1_555
H17_6 C10_6 1_555 1_555
H18_6 C10_6 1_555 1_555
C11_6 C8_6 1_555 1_555
H19_6 C11_6 1_555 1_555
H20_6 C11_6 1_555 1_555
H21_6 C11_6 1_555 1_555
O3_6 Cu2_6 1_555 1_555
O4_6 Cu1_6 1_555 1_555
O5_6 Cu2_6 1_555 1_555
O6_6 Cu1_6 1_555 1_555
C17_6 O5_6 1_555 1_555
C18_6 C17_6 1_555 1_555
C19_6 C18_6 1_555 1_555
H31_6 C19_6 1_555 1_555
H32_6 C19_6 1_555 1_555
H33_6 C19_6 1_555 1_555
C21_6 C18_6 1_555 1_555
H37_6 C21_6 1_555 1_555
O7_6 Cu2_6 1_555 1_555
O8_6 Cu1_6 1_555 1_555
C22_6 O7_6 1_555 1_555
C23_3 C22_6 1_555 1_555
C24_3 C23_3 1_555 1_555
H40_6 C24_3 1_555 1_555
H41_3 C24_3 1_555 1_555
H42_3 C24_3 1_555 1_555
C25_3 C23_3 1_555 1_555
H43_3 C25_3 1_555 1_555
H44_3 C25_3 1_555 1_555
H45_3 C25_3 1_555 1_555
C26_3 C23_3 1_555 1_555
H46_3 C26_3 1_555 1_555
H47_3 C26_3 1_555 1_555
H48_3 C26_3 1_555 1_555
Cu4_6 N2_6 1_555 1_555
N5_6 Cu2_6 1_555 1_555
N2_6 C6_6 1_555 1_555
N4_6 C4_6 1_555 1_555
N4_6 C5_6 1_555 1_555
O6_6 C17_6 1_555 1_555
O8_6 C22_6 1_555 1_555
Cu1_7 N1_7 1_555 1_555
Cu4_6 O1_7 1_555 1_555
Cu5 N3_7 1_555 1_555
N1_7 C1_7 1_555 1_555
N5_5 C3_7 1_555 1_555
N3_7 C1_7 1_555 1_555
N4_7 C2_7 1_555 1_555
C1_7 H1_7 1_555 1_555
H2_4 C1_7 1_555 1_555
C2_7 N3_7 1_555 1_555
H3_7 C2_7 1_555 1_555
H4_7 C2_7 1_555 1_555
C3_7 N3_7 1_555 1_555
H5_7 C3_7 1_555 1_555
H6_7 C3_7 1_555 1_555
C4_7 N5_5 1_555 1_555
H7_7 C4_7 1_555 1_555
H8_7 C4_7 1_555 1_555
C5_7 N1_7 1_555 1_555
H9_7 C5_7 1_555 1_555
H10_7 C5_7 1_555 1_555
C6_7 N1_7 1_555 1_555
H11_7 C6_7 1_555 1_555
H12_7 C6_7 1_555 1_555
O1_7 C7_7 1_555 1_555
O2_7 Cu1_7 1_555 1_555
C7_7 O2_7 1_555 1_555
C8_7 C7_7 1_555 1_555
C9_7 C8_7 1_555 1_555
H13_7 C9_7 1_555 1_555
H14_7 C9_7 1_555 1_555
H15_5 C9_7 1_555 1_555
C10_7 C8_7 1_555 1_555
H16_7 C10_7 1_555 1_555
H17_7 C10_7 1_555 1_555
H18_7 C10_7 1_555 1_555
C11_7 C8_7 1_555 1_555
H19_7 C11_7 1_555 1_555
H20_7 C11_7 1_555 1_555
H21_7 C11_7 1_555 1_555
O3_7 Cu4_6 1_555 1_555
O4_7 Cu1_7 1_555 1_555
C12_4 O3_7 1_555 1_555
C13_4 C12_4 1_555 1_555
C14_4 C13_4 1_555 1_555
H22_4 C14_4 1_555 1_555
H23_4 C14_4 1_555 1_555
H24_4 C14_4 1_555 1_555
C15_4 C13_4 1_555 1_555
H25_4 C15_4 1_555 1_555
H26_4 C15_4 1_555 1_555
H27_4 C15_4 1_555 1_555
C16_4 C13_4 1_555 1_555
H28_4 C16_4 1_555 1_555
H29_4 C16_4 1_555 1_555
H30_4 C16_4 1_555 1_555
O5_7 Cu4_6 1_555 1_555
O6_7 Cu1_7 1_555 1_555
C17_7 O5_7 1_555 1_555
C18_7 C17_7 1_555 1_555
C19_7 C18_7 1_555 1_555
H31_7 C19_7 1_555 1_555
H32_7 C19_7 1_555 1_555
H33_7 C19_7 1_555 1_555
C20_4 C18_7 1_555 1_555
H34_4 C20_4 1_555 1_555
H35_4 C20_4 1_555 1_555
H36_4 C20_4 1_555 1_555
C21_7 C18_7 1_555 1_555
H37_7 C21_7 1_555 1_555
H38_4 C21_7 1_555 1_555
H39_4 C21_7 1_555 1_555
O7_7 Cu4_6 1_555 1_555
O8_7 Cu1_7 1_555 1_555
C22_7 O7_7 1_555 1_555
O9_4 Cu5 1_555 1_555
O13 C27_4 1_555 1_555
C27_4 O9_4 1_555 1_555
C28_4 C27_4 1_555 1_555
C29_4 C28_4 1_555 1_555
H49_4 C29_4 1_555 1_555
H50_4 C29_4 1_555 1_555
H51_4 C29_4 1_555 1_555
C30_4 C28_4 1_555 1_555
H52_4 C30_4 1_555 1_555
H53_4 C30_4 1_555 1_555
H54_4 C30_4 1_555 1_555
C31_4 C28_4 1_555 1_555
H55_4 C31_4 1_555 1_555
H56_4 C31_4 1_555 1_555
H57_4 C31_4 1_555 1_555
O11_4 Cu5 1_555 1_555
O14 C32_4 1_555 1_555
C32_4 O11_4 1_555 1_555
C33_4 C32_4 1_555 1_555
C34_4 C33_4 1_555 1_555
H58_4 C34_4 1_555 1_555
H59_4 C34_4 1_555 1_555
H60_4 C34_4 1_555 1_555
C35_4 C33_4 1_555 1_555
H61_4 C35_4 1_555 1_555
H62_4 C35_4 1_555 1_555
H63_4 C35_4 1_555 1_555
C36_4 C33_4 1_555 1_555
H64_4 C36_4 1_555 1_555
H65_4 C36_4 1_555 1_555
H66_4 C36_4 1_555 1_555
N5_5 C6_7 1_555 1_555
N4_7 C4_7 1_555 1_555
N4_7 C5_7 1_555 1_555
O4_7 C12_4 1_555 1_555
O6_7 C17_7 1_555 1_555
O8_7 C22_7 1_555 1_555
Cu1_8 N1_8 1_555 1_555
Cu4_4 O1_8 1_555 1_555
Cu5_2 N3_8 1_555 1_555
N1_8 C1_8 1_555 1_555
N5_6 C3_8 1_555 1_555
N3_8 C1_8 1_555 1_555
N4_8 C2_8 1_555 1_555
C1_8 H1_8 1_555 1_555
H2_5 C1_8 1_555 1_555
C2_8 N3_8 1_555 1_555
H3_8 C2_8 1_555 1_555
H4_8 C2_8 1_555 1_555
C3_8 N3_8 1_555 1_555
H5_8 C3_8 1_555 1_555
H6_8 C3_8 1_555 1_555
C4_8 N5_6 1_555 1_555
H7_8 C4_8 1_555 1_555
H8_8 C4_8 1_555 1_555
C5_8 N1_8 1_555 1_555
H9_8 C5_8 1_555 1_555
H10_8 C5_8 1_555 1_555
C6_8 N1_8 1_555 1_555
H11_8 C6_8 1_555 1_555
H12_8 C6_8 1_555 1_555
O1_8 C7_8 1_555 1_555
O2_8 Cu1_8 1_555 1_555
C7_8 O2_8 1_555 1_555
C8_8 C7_8 1_555 1_555
C9_8 C8_8 1_555 1_555
H13_8 C9_8 1_555 1_555
H14_8 C9_8 1_555 1_555
H15_6 C9_8 1_555 1_555
C10_8 C8_8 1_555 1_555
H16_8 C10_8 1_555 1_555
H17_8 C10_8 1_555 1_555
H18_8 C10_8 1_555 1_555
C11_8 C8_8 1_555 1_555
H19_8 C11_8 1_555 1_555
H20_8 C11_8 1_555 1_555
H21_8 C11_8 1_555 1_555
O3_8 Cu4_4 1_555 1_555
O4_8 Cu1_8 1_555 1_555
C12_5 O3_8 1_555 1_555
C13_5 C12_5 1_555 1_555
C14_5 C13_5 1_555 1_555
H22_5 C14_5 1_555 1_555
H23_5 C14_5 1_555 1_555
H24_5 C14_5 1_555 1_555
C15_5 C13_5 1_555 1_555
H25_5 C15_5 1_555 1_555
H26_5 C15_5 1_555 1_555
H27_5 C15_5 1_555 1_555
C16_5 C13_5 1_555 1_555
H28_5 C16_5 1_555 1_555
H29_5 C16_5 1_555 1_555
H30_5 C16_5 1_555 1_555
O5_8 Cu4_4 1_555 1_555
O6_8 Cu1_8 1_555 1_555
C17_8 O5_8 1_555 1_555
C18_8 C17_8 1_555 1_555
C19_8 C18_8 1_555 1_555
H31_8 C19_8 1_555 1_555
H32_8 C19_8 1_555 1_555
H33_8 C19_8 1_555 1_555
C20_5 C18_8 1_555 1_555
H34_5 C20_5 1_555 1_555
H35_5 C20_5 1_555 1_555
H36_5 C20_5 1_555 1_555
C21_8 C18_8 1_555 1_555
H37_8 C21_8 1_555 1_555
H38_5 C21_8 1_555 1_555
H39_5 C21_8 1_555 1_555
O7_8 Cu4_4 1_555 1_555
O8_8 Cu1_8 1_555 1_555
C22_8 O7_8 1_555 1_555
O9_5 Cu5_2 1_555 1_555
O13_2 C27_5 1_555 1_555
C27_5 O9_5 1_555 1_555
C28_5 C27_5 1_555 1_555
C29_5 C28_5 1_555 1_555
H49_5 C29_5 1_555 1_555
H50_5 C29_5 1_555 1_555
H51_5 C29_5 1_555 1_555
C30_5 C28_5 1_555 1_555
H52_5 C30_5 1_555 1_555
H53_5 C30_5 1_555 1_555
H54_5 C30_5 1_555 1_555
C31_5 C28_5 1_555 1_555
H55_5 C31_5 1_555 1_555
H56_5 C31_5 1_555 1_555
H57_5 C31_5 1_555 1_555
O11_5 Cu5_2 1_555 1_555
O14_2 C32_5 1_555 1_555
C32_5 O11_5 1_555 1_555
C33_5 C32_5 1_555 1_555
C34_5 C33_5 1_555 1_555
H58_5 C34_5 1_555 1_555
H59_5 C34_5 1_555 1_555
H60_5 C34_5 1_555 1_555
C35_5 C33_5 1_555 1_555
H61_5 C35_5 1_555 1_555
H62_5 C35_5 1_555 1_555
C36_5 C33_5 1_555 1_555
H64_5 C36_5 1_555 1_555
H65_5 C36_5 1_555 1_555
H66_5 C36_5 1_555 1_555
N5_6 C6_8 1_555 1_555
N4_8 C4_8 1_555 1_555
N4_8 C5_8 1_555 1_555
O4_8 C12_5 1_555 1_555
O6_8 C17_8 1_555 1_555
O8_8 C22_8 1_555 1_555
Cu1_9 N1_9 1_555 1_555
Cu4_5 O1_9 1_555 1_555
Cu5_3 N3_9 1_555 1_555
N1_9 C1_9 1_555 1_555
N5_4 C3_9 1_555 1_555
N3_9 C1_9 1_555 1_555
N4_9 C2_9 1_555 1_555
C1_9 H1_9 1_555 1_555
H2_6 C1_9 1_555 1_555
C2_9 N3_9 1_555 1_555
H3_9 C2_9 1_555 1_555
H4_9 C2_9 1_555 1_555
C3_9 N3_9 1_555 1_555
H5_9 C3_9 1_555 1_555
H6_9 C3_9 1_555 1_555
C4_9 N5_4 1_555 1_555
H7_9 C4_9 1_555 1_555
H8_9 C4_9 1_555 1_555
C5_9 N1_9 1_555 1_555
H9_9 C5_9 1_555 1_555
H10_9 C5_9 1_555 1_555
C6_9 N1_9 1_555 1_555
H11_9 C6_9 1_555 1_555
H12_9 C6_9 1_555 1_555
O1_9 C7_9 1_555 1_555
O2_9 Cu1_9 1_555 1_555
C7_9 O2_9 1_555 1_555
C8_9 C7_9 1_555 1_555
C9_9 C8_9 1_555 1_555
H13_9 C9_9 1_555 1_555
H14_9 C9_9 1_555 1_555
H15_7 C9_9 1_555 1_555
C10_9 C8_9 1_555 1_555
H16_9 C10_9 1_555 1_555
H17_9 C10_9 1_555 1_555
H18_9 C10_9 1_555 1_555
C11_9 C8_9 1_555 1_555
H19_9 C11_9 1_555 1_555
H20_9 C11_9 1_555 1_555
H21_9 C11_9 1_555 1_555
O3_9 Cu4_5 1_555 1_555
O4_9 Cu1_9 1_555 1_555
C12_6 O3_9 1_555 1_555
C13_6 C12_6 1_555 1_555
C14_6 C13_6 1_555 1_555
H22_6 C14_6 1_555 1_555
H23_6 C14_6 1_555 1_555
H24_6 C14_6 1_555 1_555
C15_6 C13_6 1_555 1_555
H25_6 C15_6 1_555 1_555
H26_6 C15_6 1_555 1_555
H27_6 C15_6 1_555 1_555
C16_6 C13_6 1_555 1_555
H28_6 C16_6 1_555 1_555
H29_6 C16_6 1_555 1_555
H30_6 C16_6 1_555 1_555
O5_9 Cu4_5 1_555 1_555
O6_9 Cu1_9 1_555 1_555
C17_9 O5_9 1_555 1_555
C18_9 C17_9 1_555 1_555
C19_9 C18_9 1_555 1_555
H31_9 C19_9 1_555 1_555
H32_9 C19_9 1_555 1_555
H33_9 C19_9 1_555 1_555
C20_6 C18_9 1_555 1_555
H34_6 C20_6 1_555 1_555
H35_6 C20_6 1_555 1_555
H36_6 C20_6 1_555 1_555
C21_9 C18_9 1_555 1_555
H37_9 C21_9 1_555 1_555
H38_6 C21_9 1_555 1_555
H39_6 C21_9 1_555 1_555
O7_9 Cu4_5 1_555 1_555
O8_9 Cu1_9 1_555 1_555
C22_9 O7_9 1_555 1_555
O9_6 Cu5_3 1_555 1_555
O13_3 C27_6 1_555 1_555
C27_6 O9_6 1_555 1_555
C28_6 C27_6 1_555 1_555
C29_6 C28_6 1_555 1_555
H49_6 C29_6 1_555 1_555
H50_6 C29_6 1_555 1_555
H51_6 C29_6 1_555 1_555
C30_6 C28_6 1_555 1_555
H52_6 C30_6 1_555 1_555
H53_6 C30_6 1_555 1_555
H54_6 C30_6 1_555 1_555
C31_6 C28_6 1_555 1_555
H55_6 C31_6 1_555 1_555
H56_6 C31_6 1_555 1_555
H57_6 C31_6 1_555 1_555
O11_6 Cu5_3 1_555 1_555
O14_3 C32_6 1_555 1_555
C32_6 O11_6 1_555 1_555
C33_6 C32_6 1_555 1_555
C34_6 C33_6 1_555 1_555
H58_6 C34_6 1_555 1_555
H59_6 C34_6 1_555 1_555
H60_6 C34_6 1_555 1_555
C35_6 C33_6 1_555 1_555
H61_6 C35_6 1_555 1_555
H62_6 C35_6 1_555 1_555
C36_6 C33_6 1_555 1_555
H64_6 C36_6 1_555 1_555
H65_6 C36_6 1_555 1_555
H66_6 C36_6 1_555 1_555
N5_4 C6_9 1_555 1_555
N4_9 C4_9 1_555 1_555
N4_9 C5_9 1_555 1_555
O4_9 C12_6 1_555 1_555
O6_9 C17_9 1_555 1_555
O8_9 C22_9 1_555 1_555
Cu1_10 N1_10 1_555 1_555
Cu4_3 O1_10 1_555 1_555
N1_10 C1_10 1_555 1_555
N5_2 C3_10 1_555 1_555
N3_10 C1_10 1_555 1_555
N4_10 C2_10 1_555 1_555
C1_10 H1_10 1_555 1_555
C2_10 N3_10 1_555 1_555
H3_10 C2_10 1_555 1_555
H4_10 C2_10 1_555 1_555
C3_10 N3_10 1_555 1_555
H5_10 C3_10 1_555 1_555
H6_10 C3_10 1_555 1_555
C4_10 N5_2 1_555 1_555
H7_10 C4_10 1_555 1_555
H8_10 C4_10 1_555 1_555
C5_10 N1_10 1_555 1_555
H9_10 C5_10 1_555 1_555
H10_10 C5_10 1_555 1_555
C6_10 N1_10 1_555 1_555
H11_10 C6_10 1_555 1_555
H12_10 C6_10 1_555 1_555
O1_10 C7_10 1_555 1_555
O2_10 Cu1_10 1_555 1_555
C7_10 O2_10 1_555 1_555
C8_10 C7_10 1_555 1_555
C9_10 C8_10 1_555 1_555
H13_10 C9_10 1_555 1_555
H14_10 C9_10 1_555 1_555
C10_10 C8_10 1_555 1_555
H16_10 C10_10 1_555 1_555
H17_10 C10_10 1_555 1_555
H18_10 C10_10 1_555 1_555
C11_10 C8_10 1_555 1_555
H19_10 C11_10 1_555 1_555
H20_10 C11_10 1_555 1_555
H21_10 C11_10 1_555 1_555
O3_10 Cu4_3 1_555 1_555
O4_10 Cu1_10 1_555 1_555
O5_10 Cu4_3 1_555 1_555
O6_10 Cu1_10 1_555 1_555
C17_10 O5_10 1_555 1_555
C18_10 C17_10 1_555 1_555
C19_10 C18_10 1_555 1_555
H31_10 C19_10 1_555 1_555
H32_10 C19_10 1_555 1_555
H33_10 C19_10 1_555 1_555
C21_10 C18_10 1_555 1_555
H37_10 C21_10 1_555 1_555
O7_10 Cu4_3 1_555 1_555
O8_10 Cu1_10 1_555 1_555
C22_10 O7_10 1_555 1_555
C23_4 C22_10 1_555 1_555
C24_4 C23_4 1_555 1_555
H40_10 C24_4 1_555 1_555
H41_4 C24_4 1_555 1_555
H42_4 C24_4 1_555 1_555
C25_4 C23_4 1_555 1_555
H43_4 C25_4 1_555 1_555
H44_4 C25_4 1_555 1_555
H45_4 C25_4 1_555 1_555
C26_4 C23_4 1_555 1_555
H46_4 C26_4 1_555 1_555
H47_4 C26_4 1_555 1_555
H48_4 C26_4 1_555 1_555
N5_2 C6_10 1_555 1_555
N4_10 C4_10 1_555 1_555
N4_10 C5_10 1_555 1_555
O6_10 C17_10 1_555 1_555
O8_10 C22_10 1_555 1_555
Cu1_11 N1_11 1_555 1_555
Cu4 O1_11 1_555 1_555
N1_11 C1_11 1_555 1_555
N5_3 C3_11 1_555 1_555
N3_11 C1_11 1_555 1_555
N4_11 C2_11 1_555 1_555
C1_11 H1_11 1_555 1_555
C2_11 N3_11 1_555 1_555
H3_11 C2_11 1_555 1_555
H4_11 C2_11 1_555 1_555
C3_11 N3_11 1_555 1_555
H5_11 C3_11 1_555 1_555
H6_11 C3_11 1_555 1_555
C4_11 N5_3 1_555 1_555
H7_11 C4_11 1_555 1_555
H8_11 C4_11 1_555 1_555
C5_11 N1_11 1_555 1_555
H9_11 C5_11 1_555 1_555
H10_11 C5_11 1_555 1_555
C6_11 N1_11 1_555 1_555
H11_11 C6_11 1_555 1_555
H12_11 C6_11 1_555 1_555
O1_11 C7_11 1_555 1_555
O2_11 Cu1_11 1_555 1_555
C7_11 O2_11 1_555 1_555
C8_11 C7_11 1_555 1_555
C9_11 C8_11 1_555 1_555
H13_11 C9_11 1_555 1_555
H14_11 C9_11 1_555 1_555
H15_8 C9_11 1_555 1_555
C10_11 C8_11 1_555 1_555
H16_11 C10_11 1_555 1_555
H17_11 C10_11 1_555 1_555
H18_11 C10_11 1_555 1_555
C11_11 C8_11 1_555 1_555
H19_11 C11_11 1_555 1_555
H20_11 C11_11 1_555 1_555
H21_11 C11_11 1_555 1_555
O3_11 Cu4 1_555 1_555
O4_11 Cu1_11 1_555 1_555
O5_11 Cu4 1_555 1_555
O6_11 Cu1_11 1_555 1_555
C17_11 O5_11 1_555 1_555
C18_11 C17_11 1_555 1_555
C19_11 C18_11 1_555 1_555
H31_11 C19_11 1_555 1_555
H32_11 C19_11 1_555 1_555
H33_11 C19_11 1_555 1_555
C21_11 C18_11 1_555 1_555
H37_11 C21_11 1_555 1_555
O7_11 Cu4 1_555 1_555
O8_11 Cu1_11 1_555 1_555
C22_11 O7_11 1_555 1_555
C23_5 C22_11 1_555 1_555
C24_5 C23_5 1_555 1_555
H40_11 C24_5 1_555 1_555
H41_5 C24_5 1_555 1_555
H42_5 C24_5 1_555 1_555
C25_5 C23_5 1_555 1_555
H43_5 C25_5 1_555 1_555
H44_5 C25_5 1_555 1_555
H45_5 C25_5 1_555 1_555
C26_5 C23_5 1_555 1_555
H46_5 C26_5 1_555 1_555
H47_5 C26_5 1_555 1_555
H48_5 C26_5 1_555 1_555
N5_3 C6_11 1_555 1_555
N4_11 C4_11 1_555 1_555
N4_11 C5_11 1_555 1_555
O6_11 C17_11 1_555 1_555
O8_11 C22_11 1_555 1_555
Cu1_12 N1_12 1_555 1_555
Cu4_2 O1_12 1_555 1_555
N1_12 C1_12 1_555 1_555
N5 C3_12 1_555 1_555
N3_12 C1_12 1_555 1_555
N4_12 C2_12 1_555 1_555
C1_12 H1_12 1_555 1_555
C2_12 N3_12 1_555 1_555
H3_12 C2_12 1_555 1_555
H4_12 C2_12 1_555 1_555
C3_12 N3_12 1_555 1_555
H5_12 C3_12 1_555 1_555
H6_12 C3_12 1_555 1_555
C4_12 N5 1_555 1_555
H7_12 C4_12 1_555 1_555
H8_12 C4_12 1_555 1_555
C5_12 N1_12 1_555 1_555
H9_12 C5_12 1_555 1_555
H10_12 C5_12 1_555 1_555
C6_12 N1_12 1_555 1_555
H11_12 C6_12 1_555 1_555
H12_12 C6_12 1_555 1_555
O1_12 C7_12 1_555 1_555
O2_12 Cu1_12 1_555 1_555
C7_12 O2_12 1_555 1_555
C8_12 C7_12 1_555 1_555
C9_12 C8_12 1_555 1_555
H13_12 C9_12 1_555 1_555
H14_12 C9_12 1_555 1_555
C10_12 C8_12 1_555 1_555
H16_12 C10_12 1_555 1_555
H17_12 C10_12 1_555 1_555
H18_12 C10_12 1_555 1_555
C11_12 C8_12 1_555 1_555
H19_12 C11_12 1_555 1_555
H20_12 C11_12 1_555 1_555
H21_12 C11_12 1_555 1_555
O3_12 Cu4_2 1_555 1_555
O4_12 Cu1_12 1_555 1_555
O5_12 Cu4_2 1_555 1_555
O6_12 Cu1_12 1_555 1_555
C17_12 O5_12 1_555 1_555
C18_12 C17_12 1_555 1_555
C19_12 C18_12 1_555 1_555
H31_12 C19_12 1_555 1_555
H32_12 C19_12 1_555 1_555
H33_12 C19_12 1_555 1_555
C21_12 C18_12 1_555 1_555
H37_12 C21_12 1_555 1_555
O7_12 Cu4_2 1_555 1_555
O8_12 Cu1_12 1_555 1_555
C22_12 O7_12 1_555 1_555
C23_6 C22_12 1_555 1_555
C24_6 C23_6 1_555 1_555
H40_12 C24_6 1_555 1_555
H41_6 C24_6 1_555 1_555
H42_6 C24_6 1_555 1_555
C25_6 C23_6 1_555 1_555
H43_6 C25_6 1_555 1_555
H44_6 C25_6 1_555 1_555
H45_6 C25_6 1_555 1_555
C26_6 C23_6 1_555 1_555
H46_6 C26_6 1_555 1_555
H47_6 C26_6 1_555 1_555
H48_6 C26_6 1_555 1_555
N5 C6_12 1_555 1_555
N4_12 C4_12 1_555 1_555
N4_12 C5_12 1_555 1_555
O6_12 C17_12 1_555 1_555
O8_12 C22_12 1_555 1_555
C24_7 C23_7 1_555 1_555
H41_7 C24_7 1_555 1_555
H42_7 C24_7 1_555 1_555
C25_7 C23_7 1_555 1_555
H43_7 C25_7 1_555 1_555
H44_7 C25_7 1_555 1_555
H45_7 C25_7 1_555 1_555
C26_7 C23_7 1_555 1_555
H46_7 C26_7 1_555 1_555
H47_7 C26_7 1_555 1_555
H48_7 C26_7 1_555 1_555
C24_8 C23_8 1_555 1_555
H41_8 C24_8 1_555 1_555
H42_8 C24_8 1_555 1_555
C25_8 C23_8 1_555 1_555
H43_8 C25_8 1_555 1_555
H44_8 C25_8 1_555 1_555
H45_8 C25_8 1_555 1_555
C26_8 C23_8 1_555 1_555
H46_8 C26_8 1_555 1_555
H47_8 C26_8 1_555 1_555
H48_8 C26_8 1_555 1_555
C24_9 C23_9 1_555 1_555
H41_9 C24_9 1_555 1_555
H42_9 C24_9 1_555 1_555
C25_9 C23_9 1_555 1_555
H43_9 C25_9 1_555 1_555
H44_9 C25_9 1_555 1_555
H45_9 C25_9 1_555 1_555
C26_9 C23_9 1_555 1_555
H46_9 C26_9 1_555 1_555
H47_9 C26_9 1_555 1_555
H48_9 C26_9 1_555 1_555
Cu2_7 O1_13 1_555 1_555
O1_13 C7_13 1_555 1_555
C8_13 C7_13 1_555 1_555
C9_13 C8_13 1_555 1_555
H13_13 C9_13 1_555 1_555
H14_13 C9_13 1_555 1_555
H15_9 C9_13 1_555 1_555
C11_13 C8_13 1_555 1_555
H20_13 C11_13 1_555 1_555
H21_13 C11_13 1_555 1_555
O3_13 Cu2_7 1_555 1_555
C12_7 O3_13 1_555 1_555
C13_7 C12_7 1_555 1_555
C14_7 C13_7 1_555 1_555
H22_7 C14_7 1_555 1_555
H23_7 C14_7 1_555 1_555
H24_7 C14_7 1_555 1_555
C15_7 C13_7 1_555 1_555
H26_7 C15_7 1_555 1_555
H27_7 C15_7 1_555 1_555
C16_7 C13_7 1_555 1_555
H28_7 C16_7 1_555 1_555
H29_7 C16_7 1_555 1_555
H30_7 C16_7 1_555 1_555
O5_13 Cu2_7 1_555 1_555
C17_13 O5_13 1_555 1_555
C18_13 C17_13 1_555 1_555
C19_13 C18_13 1_555 1_555
H31_13 C19_13 1_555 1_555
H32_13 C19_13 1_555 1_555
H33_13 C19_13 1_555 1_555
C20_7 C18_13 1_555 1_555
H34_7 C20_7 1_555 1_555
H35_7 C20_7 1_555 1_555
H36_7 C20_7 1_555 1_555
O7_13 Cu2_7 1_555 1_555
H46_10 C26_10 1_555 1_555
H47_10 C26_10 1_555 1_555
N5_7 Cu2_7 1_555 1_555
Cu1_13 N1_13 1_555 1_555
Cu3_4 N3_13 1_555 1_555
N1_13 C1_13 1_555 1_555
N2_7 C3_13 1_555 1_555
N3_13 C1_13 1_555 1_555
N4_13 C2_13 1_555 1_555
C1_13 H1_13 1_555 1_555
H2_7 C1_13 1_555 1_555
C2_13 N3_13 1_555 1_555
H3_13 C2_13 1_555 1_555
H4_13 C2_13 1_555 1_555
C3_13 N3_13 1_555 1_555
H5_13 C3_13 1_555 1_555
H6_13 C3_13 1_555 1_555
C4_13 N2_7 1_555 1_555
H7_13 C4_13 1_555 1_555
H8_13 C4_13 1_555 1_555
C5_13 N1_13 1_555 1_555
H9_13 C5_13 1_555 1_555
H10_13 C5_13 1_555 1_555
C6_13 N1_13 1_555 1_555
H11_13 C6_13 1_555 1_555
H12_13 C6_13 1_555 1_555
O2_13 Cu1_13 1_555 1_555
H16_13 C10_13 1_555 1_555
H17_13 C10_13 1_555 1_555
H18_13 C10_13 1_555 1_555
O4_13 Cu1_13 1_555 1_555
O6_13 Cu1_13 1_555 1_555
H37_13 C21_13 1_555 1_555
H38_7 C21_13 1_555 1_555
H39_7 C21_13 1_555 1_555
O8_13 Cu1_13 1_555 1_555
C23_10 C22_13 1_555 1_555
C24_10 C23_10 1_555 1_555
H40_13 C24_10 1_555 1_555
H42_10 C24_10 1_555 1_555
C25_10 C23_10 1_555 1_555
H43_10 C25_10 1_555 1_555
H44_10 C25_10 1_555 1_555
H45_10 C25_10 1_555 1_555
O9_7 Cu3_4 1_555 1_555
O10_4 C27_7 1_555 1_555
C27_7 O9_7 1_555 1_555
C28_7 C27_7 1_555 1_555
C29_7 C28_7 1_555 1_555
H49_7 C29_7 1_555 1_555
H50_7 C29_7 1_555 1_555
H51_7 C29_7 1_555 1_555
O11_7 Cu3_4 1_555 1_555
O12_4 C32_7 1_555 1_555
C32_7 O11_7 1_555 1_555
C33_7 C32_7 1_555 1_555
C34_7 C33_7 1_555 1_555
H58_7 C34_7 1_555 1_555
H59_7 C34_7 1_555 1_555
H60_7 C34_7 1_555 1_555
C35_7 C33_7 1_555 1_555
H62_7 C35_7 1_555 1_555
H63_7 C35_7 1_555 1_555
C36_7 C33_7 1_555 1_555
H64_7 C36_7 1_555 1_555
H65_7 C36_7 1_555 1_555
H66_7 C36_7 1_555 1_555
Cu4_7 N2_7 1_555 1_555
Cu5_4 O10_4 1_555 1_555
O13_4 Cu3_4 1_555 1_555
O14_4 Cu3_4 1_555 1_555
N2_7 C6_13 1_555 1_555
N4_13 C4_13 1_555 1_555
N4_13 C5_13 1_555 1_555
O8_13 C22_13 1_555 1_555
O12_4 Cu5_4 1_555 1_555
C13_8 C12_8 1_555 1_555
C14_8 C13_8 1_555 1_555
H22_8 C14_8 1_555 1_555
H23_8 C14_8 1_555 1_555
H24_8 C14_8 1_555 1_555
C15_8 C13_8 1_555 1_555
H25_8 C15_8 1_555 1_555
H26_8 C15_8 1_555 1_555
H27_8 C15_8 1_555 1_555
C16_8 C13_8 1_555 1_555
H28_8 C16_8 1_555 1_555
H29_8 C16_8 1_555 1_555
H30_8 C16_8 1_555 1_555
H34_8 C20_8 1_555 1_555
H35_8 C20_8 1_555 1_555
H36_8 C20_8 1_555 1_555
O9_8 Cu3_5 1_555 1_555
O10_5 C27_8 1_555 1_555
C27_8 O9_8 1_555 1_555
C28_8 C27_8 1_555 1_555
C29_8 C28_8 1_555 1_555
H49_8 C29_8 1_555 1_555
H50_8 C29_8 1_555 1_555
H51_8 C29_8 1_555 1_555
C30_7 C28_8 1_555 1_555
H52_8 C30_7 1_555 1_555
H53_7 C30_7 1_555 1_555
H54_7 C30_7 1_555 1_555
C31_7 C28_8 1_555 1_555
H55_7 C31_7 1_555 1_555
H56_7 C31_7 1_555 1_555
H57_7 C31_7 1_555 1_555
O11_8 Cu3_5 1_555 1_555
O12_5 C32_8 1_555 1_555
C32_8 O11_8 1_555 1_555
C33_8 C32_8 1_555 1_555
C34_8 C33_8 1_555 1_555
H58_8 C34_8 1_555 1_555
H59_8 C34_8 1_555 1_555
H60_8 C34_8 1_555 1_555
C35_8 C33_8 1_555 1_555
H61_7 C35_8 1_555 1_555
H62_8 C35_8 1_555 1_555
H63_8 C35_8 1_555 1_555
C36_8 C33_8 1_555 1_555
H64_8 C36_8 1_555 1_555
H65_8 C36_8 1_555 1_555
H66_8 C36_8 1_555 1_555
Cu5_5 O10_5 1_555 1_555
O13_5 Cu3_5 1_555 1_555
O14_5 Cu3_5 1_555 1_555
O12_5 Cu5_5 1_555 1_555
Cu1_14 N1_14 1_555 1_555
Cu4_7 O1_14 1_555 1_555
Cu5_5 N3_14 1_555 1_555
N1_14 C1_14 1_555 1_555
N5_7 C3_14 1_555 1_555
N3_14 C1_14 1_555 1_555
N4_14 C2_14 1_555 1_555
C1_14 H1_14 1_555 1_555
H2_9 C1_14 1_555 1_555
C2_14 N3_14 1_555 1_555
H3_14 C2_14 1_555 1_555
H4_14 C2_14 1_555 1_555
C3_14 N3_14 1_555 1_555
H5_14 C3_14 1_555 1_555
H6_14 C3_14 1_555 1_555
C4_14 N5_7 1_555 1_555
H7_14 C4_14 1_555 1_555
H8_14 C4_14 1_555 1_555
C5_14 N1_14 1_555 1_555
H9_14 C5_14 1_555 1_555
H10_14 C5_14 1_555 1_555
C6_14 N1_14 1_555 1_555
H11_14 C6_14 1_555 1_555
H12_14 C6_14 1_555 1_555
O1_14 C7_14 1_555 1_555
O2_14 Cu1_14 1_555 1_555
C7_14 O2_14 1_555 1_555
C8_14 C7_14 1_555 1_555
C9_14 C8_14 1_555 1_555
H13_14 C9_14 1_555 1_555
H14_14 C9_14 1_555 1_555
H15_10 C9_14 1_555 1_555
C10_14 C8_14 1_555 1_555
H16_14 C10_14 1_555 1_555
H17_14 C10_14 1_555 1_555
H18_14 C10_14 1_555 1_555
C11_14 C8_14 1_555 1_555
H19_14 C11_14 1_555 1_555
H20_14 C11_14 1_555 1_555
H21_14 C11_14 1_555 1_555
O3_14 Cu4_7 1_555 1_555
O4_14 Cu1_14 1_555 1_555
C12_9 O3_14 1_555 1_555
C13_9 C12_9 1_555 1_555
C14_9 C13_9 1_555 1_555
H22_9 C14_9 1_555 1_555
H23_9 C14_9 1_555 1_555
H24_9 C14_9 1_555 1_555
C15_9 C13_9 1_555 1_555
H25_9 C15_9 1_555 1_555
H26_9 C15_9 1_555 1_555
H27_9 C15_9 1_555 1_555
C16_9 C13_9 1_555 1_555
H28_9 C16_9 1_555 1_555
H29_9 C16_9 1_555 1_555
H30_9 C16_9 1_555 1_555
O5_14 Cu4_7 1_555 1_555
O6_14 Cu1_14 1_555 1_555
C17_14 O5_14 1_555 1_555
C18_14 C17_14 1_555 1_555
C19_14 C18_14 1_555 1_555
H31_14 C19_14 1_555 1_555
H32_14 C19_14 1_555 1_555
H33_14 C19_14 1_555 1_555
C20_9 C18_14 1_555 1_555
H34_9 C20_9 1_555 1_555
H35_9 C20_9 1_555 1_555
H36_9 C20_9 1_555 1_555
C21_14 C18_14 1_555 1_555
H37_14 C21_14 1_555 1_555
H38_9 C21_14 1_555 1_555
H39_9 C21_14 1_555 1_555
O7_14 Cu4_7 1_555 1_555
O8_14 Cu1_14 1_555 1_555
C22_14 O7_14 1_555 1_555
C23_11 C22_14 1_555 1_555
C24_11 C23_11 1_555 1_555
H40_14 C24_11 1_555 1_555
H41_11 C24_11 1_555 1_555
H42_11 C24_11 1_555 1_555
C25_11 C23_11 1_555 1_555
H43_11 C25_11 1_555 1_555
H44_11 C25_11 1_555 1_555
H45_11 C25_11 1_555 1_555
C26_11 C23_11 1_555 1_555
H46_11 C26_11 1_555 1_555
H47_11 C26_11 1_555 1_555
H48_11 C26_11 1_555 1_555
O9_9 Cu5_5 1_555 1_555
O13_5 C27_9 1_555 1_555
C27_9 O9_9 1_555 1_555
C28_9 C27_9 1_555 1_555
C29_9 C28_9 1_555 1_555
H49_9 C29_9 1_555 1_555
H50_9 C29_9 1_555 1_555
H51_9 C29_9 1_555 1_555
O11_9 Cu5_5 1_555 1_555
O14_5 C32_9 1_555 1_555
C32_9 O11_9 1_555 1_555
C33_9 C32_9 1_555 1_555
C34_9 C33_9 1_555 1_555
H58_9 C34_9 1_555 1_555
H59_9 C34_9 1_555 1_555
H60_9 C34_9 1_555 1_555
C35_9 C33_9 1_555 1_555
H62_9 C35_9 1_555 1_555
H63_9 C35_9 1_555 1_555
C36_9 C33_9 1_555 1_555
H64_9 C36_9 1_555 1_555
H65_9 C36_9 1_555 1_555
H66_9 C36_9 1_555 1_555
N5_7 C6_14 1_555 1_555
N4_14 C4_14 1_555 1_555
N4_14 C5_14 1_555 1_555
O4_14 C12_9 1_555 1_555
O6_14 C17_14 1_555 1_555
O8_14 C22_14 1_555 1_555
C13_10 C12_10 1_555 1_555
C14_10 C13_10 1_555 1_555
H22_10 C14_10 1_555 1_555
H23_10 C14_10 1_555 1_555
H24_10 C14_10 1_555 1_555
C15_10 C13_10 1_555 1_555
H25_10 C15_10 1_555 1_555
H26_10 C15_10 1_555 1_555
H27_10 C15_10 1_555 1_555
C16_10 C13_10 1_555 1_555
H28_10 C16_10 1_555 1_555
H29_10 C16_10 1_555 1_555
H30_10 C16_10 1_555 1_555
H34_10 C20_10 1_555 1_555
H35_10 C20_10 1_555 1_555
H36_10 C20_10 1_555 1_555
O9_10 Cu5_4 1_555 1_555
O13_4 C27_10 1_555 1_555
C27_10 O9_10 1_555 1_555
C28_10 C27_10 1_555 1_555
C29_10 C28_10 1_555 1_555
H49_10 C29_10 1_555 1_555
H50_10 C29_10 1_555 1_555
H51_10 C29_10 1_555 1_555
C30_8 C28_10 1_555 1_555
H52_10 C30_8 1_555 1_555
H53_8 C30_8 1_555 1_555
H54_8 C30_8 1_555 1_555
C31_8 C28_10 1_555 1_555
H55_8 C31_8 1_555 1_555
H56_8 C31_8 1_555 1_555
H57_8 C31_8 1_555 1_555
O11_10 Cu5_4 1_555 1_555
O14_4 C32_10 1_555 1_555
C32_10 O11_10 1_555 1_555
C33_10 C32_10 1_555 1_555
C34_10 C33_10 1_555 1_555
H58_10 C34_10 1_555 1_555
H59_10 C34_10 1_555 1_555
H60_10 C34_10 1_555 1_555
C35_10 C33_10 1_555 1_555
H61_8 C35_10 1_555 1_555
H62_10 C35_10 1_555 1_555
H63_10 C35_10 1_555 1_555
C36_10 C33_10 1_555 1_555
H64_10 C36_10 1_555 1_555
H65_10 C36_10 1_555 1_555
H66_10 C36_10 1_555 1_555
H53_9 C30_9 1_555 1_555
H54_9 C30_9 1_555 1_555
H55_9 C31_9 1_555 1_555
H56_9 C31_9 1_555 1_555
H57_9 C31_9 1_555 1_555
Cu1_15 N1_15 1_555 1_555
Cu3_6 N3_15 1_555 1_555
N1_15 C1_15 1_555 1_555
N2_8 C3_15 1_555 1_555
N3_15 C1_15 1_555 1_555
N4_15 C2_15 1_555 1_555
C1_15 H1_15 1_555 1_555
H2_11 C1_15 1_555 1_555
C2_15 N3_15 1_555 1_555
H3_15 C2_15 1_555 1_555
H4_15 C2_15 1_555 1_555
C3_15 N3_15 1_555 1_555
H5_15 C3_15 1_555 1_555
H6_15 C3_15 1_555 1_555
C4_15 N2_8 1_555 1_555
H7_15 C4_15 1_555 1_555
H8_15 C4_15 1_555 1_555
C5_15 N1_15 1_555 1_555
H9_15 C5_15 1_555 1_555
H10_15 C5_15 1_555 1_555
C6_15 N1_15 1_555 1_555
H11_15 C6_15 1_555 1_555
H12_15 C6_15 1_555 1_555
O2_15 Cu1_15 1_555 1_555
H16_15 C10_15 1_555 1_555
H17_15 C10_15 1_555 1_555
H18_15 C10_15 1_555 1_555
O4_15 Cu1_15 1_555 1_555
O6_15 Cu1_15 1_555 1_555
H37_15 C21_15 1_555 1_555
H38_11 C21_15 1_555 1_555
H39_11 C21_15 1_555 1_555
O8_15 Cu1_15 1_555 1_555
C23_12 C22_15 1_555 1_555
C24_12 C23_12 1_555 1_555
H40_15 C24_12 1_555 1_555
H42_12 C24_12 1_555 1_555
C25_12 C23_12 1_555 1_555
H43_12 C25_12 1_555 1_555
H44_12 C25_12 1_555 1_555
H45_12 C25_12 1_555 1_555
O9_11 Cu3_6 1_555 1_555
O10_6 C27_11 1_555 1_555
C27_11 O9_11 1_555 1_555
C28_11 C27_11 1_555 1_555
C29_11 C28_11 1_555 1_555
H49_11 C29_11 1_555 1_555
H50_11 C29_11 1_555 1_555
H51_11 C29_11 1_555 1_555
O11_11 Cu3_6 1_555 1_555
O12_6 C32_11 1_555 1_555
C32_11 O11_11 1_555 1_555
C33_11 C32_11 1_555 1_555
C34_11 C33_11 1_555 1_555
H58_11 C34_11 1_555 1_555
H59_11 C34_11 1_555 1_555
H60_11 C34_11 1_555 1_555
C35_11 C33_11 1_555 1_555
H62_11 C35_11 1_555 1_555
H63_11 C35_11 1_555 1_555
C36_11 C33_11 1_555 1_555
H64_11 C36_11 1_555 1_555
H65_11 C36_11 1_555 1_555
H66_11 C36_11 1_555 1_555
Cu4_8 N2_8 1_555 1_555
Cu5_6 O10_6 1_555 1_555
O13_6 Cu3_6 1_555 1_555
O14_6 Cu3_6 1_555 1_555
N2_8 C6_15 1_555 1_555
N4_15 C4_15 1_555 1_555
N4_15 C5_15 1_555 1_555
O8_15 C22_15 1_555 1_555
O12_6 Cu5_6 1_555 1_555
Cu4_8 O1_15 1_555 1_555
O1_15 C7_15 1_555 1_555
C8_15 C7_15 1_555 1_555
C9_15 C8_15 1_555 1_555
H13_15 C9_15 1_555 1_555
H14_15 C9_15 1_555 1_555
H15_11 C9_15 1_555 1_555
C11_15 C8_15 1_555 1_555
H20_15 C11_15 1_555 1_555
H21_15 C11_15 1_555 1_555
O3_15 Cu4_8 1_555 1_555
C12_11 O3_15 1_555 1_555
C13_11 C12_11 1_555 1_555
C14_11 C13_11 1_555 1_555
H22_11 C14_11 1_555 1_555
H23_11 C14_11 1_555 1_555
H24_11 C14_11 1_555 1_555
C15_11 C13_11 1_555 1_555
H26_11 C15_11 1_555 1_555
H27_11 C15_11 1_555 1_555
C16_11 C13_11 1_555 1_555
H28_11 C16_11 1_555 1_555
H29_11 C16_11 1_555 1_555
H30_11 C16_11 1_555 1_555
O5_15 Cu4_8 1_555 1_555
C17_15 O5_15 1_555 1_555
C18_15 C17_15 1_555 1_555
C19_15 C18_15 1_555 1_555
H31_15 C19_15 1_555 1_555
H32_15 C19_15 1_555 1_555
H33_15 C19_15 1_555 1_555
C20_11 C18_15 1_555 1_555
H34_11 C20_11 1_555 1_555
H35_11 C20_11 1_555 1_555
H36_11 C20_11 1_555 1_555
O7_15 Cu4_8 1_555 1_555
H46_12 C26_12 1_555 1_555
H47_12 C26_12 1_555 1_555
C13_12 C12_12 1_555 1_555
C14_12 C13_12 1_555 1_555
H22_12 C14_12 1_555 1_555
H23_12 C14_12 1_555 1_555
H24_12 C14_12 1_555 1_555
C15_12 C13_12 1_555 1_555
H25_12 C15_12 1_555 1_555
H26_12 C15_12 1_555 1_555
H27_12 C15_12 1_555 1_555
C16_12 C13_12 1_555 1_555
H28_12 C16_12 1_555 1_555
H29_12 C16_12 1_555 1_555
H30_12 C16_12 1_555 1_555
H34_12 C20_12 1_555 1_555
H35_12 C20_12 1_555 1_555
H36_12 C20_12 1_555 1_555
O9_12 Cu5_6 1_555 1_555
O13_6 C27_12 1_555 1_555
C27_12 O9_12 1_555 1_555
C28_12 C27_12 1_555 1_555
C29_12 C28_12 1_555 1_555
H49_12 C29_12 1_555 1_555
H50_12 C29_12 1_555 1_555
H51_12 C29_12 1_555 1_555
C30_10 C28_12 1_555 1_555
H52_12 C30_10 1_555 1_555
H53_10 C30_10 1_555 1_555
H54_10 C30_10 1_555 1_555
C31_10 C28_12 1_555 1_555
H55_10 C31_10 1_555 1_555
H56_10 C31_10 1_555 1_555
H57_10 C31_10 1_555 1_555
O11_12 Cu5_6 1_555 1_555
O14_6 C32_12 1_555 1_555
C32_12 O11_12 1_555 1_555
C33_12 C32_12 1_555 1_555
C34_12 C33_12 1_555 1_555
H58_12 C34_12 1_555 1_555
H59_12 C34_12 1_555 1_555
H60_12 C34_12 1_555 1_555
C35_12 C33_12 1_555 1_555
H61_10 C35_12 1_555 1_555
H62_12 C35_12 1_555 1_555
H63_12 C35_12 1_555 1_555
C36_12 C33_12 1_555 1_555
H64_12 C36_12 1_555 1_555
H65_12 C36_12 1_555 1_555
H66_12 C36_12 1_555 1_555
H53_11 C30_11 1_555 1_555
H54_11 C30_11 1_555 1_555
H55_11 C31_11 1_555 1_555
H56_11 C31_11 1_555 1_555
H57_11 C31_11 1_555 1_555
Cu2_8 O1_16 1_555 1_555
O1_16 C7_16 1_555 1_555
C8_16 C7_16 1_555 1_555
C9_16 C8_16 1_555 1_555
H13_16 C9_16 1_555 1_555
H14_16 C9_16 1_555 1_555
H15_12 C9_16 1_555 1_555
C11_16 C8_16 1_555 1_555
H20_16 C11_16 1_555 1_555
H21_16 C11_16 1_555 1_555
O3_16 Cu2_8 1_555 1_555
C12_13 O3_16 1_555 1_555
C13_13 C12_13 1_555 1_555
C14_13 C13_13 1_555 1_555
H22_13 C14_13 1_555 1_555
H23_13 C14_13 1_555 1_555
H24_13 C14_13 1_555 1_555
C15_13 C13_13 1_555 1_555
H26_13 C15_13 1_555 1_555
H27_13 C15_13 1_555 1_555
C16_13 C13_13 1_555 1_555
H28_13 C16_13 1_555 1_555
H29_13 C16_13 1_555 1_555
H30_13 C16_13 1_555 1_555
O5_16 Cu2_8 1_555 1_555
C17_16 O5_16 1_555 1_555
C18_16 C17_16 1_555 1_555
C19_16 C18_16 1_555 1_555
H31_16 C19_16 1_555 1_555
H32_16 C19_16 1_555 1_555
H33_16 C19_16 1_555 1_555
C20_13 C18_16 1_555 1_555
H34_13 C20_13 1_555 1_555
H35_13 C20_13 1_555 1_555
H36_13 C20_13 1_555 1_555
O7_16 Cu2_8 1_555 1_555
H46_13 C26_13 1_555 1_555
H47_13 C26_13 1_555 1_555
N5_8 Cu2_8 1_555 1_555
C13_14 C12_14 1_555 1_555
C14_14 C13_14 1_555 1_555
H22_14 C14_14 1_555 1_555
H23_14 C14_14 1_555 1_555
H24_14 C14_14 1_555 1_555
C15_14 C13_14 1_555 1_555
H25_13 C15_14 1_555 1_555
H26_14 C15_14 1_555 1_555
H27_14 C15_14 1_555 1_555
C16_14 C13_14 1_555 1_555
H28_14 C16_14 1_555 1_555
H29_14 C16_14 1_555 1_555
H30_14 C16_14 1_555 1_555
H34_14 C20_14 1_555 1_555
H35_14 C20_14 1_555 1_555
H36_14 C20_14 1_555 1_555
O9_13 Cu3_7 1_555 1_555
O10_7 C27_13 1_555 1_555
C27_13 O9_13 1_555 1_555
C28_13 C27_13 1_555 1_555
C29_13 C28_13 1_555 1_555
H49_13 C29_13 1_555 1_555
H50_13 C29_13 1_555 1_555
H51_13 C29_13 1_555 1_555
C30_12 C28_13 1_555 1_555
H52_13 C30_12 1_555 1_555
H53_12 C30_12 1_555 1_555
H54_12 C30_12 1_555 1_555
C31_12 C28_13 1_555 1_555
H55_12 C31_12 1_555 1_555
H56_12 C31_12 1_555 1_555
H57_12 C31_12 1_555 1_555
O11_13 Cu3_7 1_555 1_555
O12_7 C32_13 1_555 1_555
C32_13 O11_13 1_555 1_555
C33_13 C32_13 1_555 1_555
C34_13 C33_13 1_555 1_555
H58_13 C34_13 1_555 1_555
H59_13 C34_13 1_555 1_555
H60_13 C34_13 1_555 1_555
C35_13 C33_13 1_555 1_555
H61_12 C35_13 1_555 1_555
H62_13 C35_13 1_555 1_555
H63_13 C35_13 1_555 1_555
C36_13 C33_13 1_555 1_555
H64_13 C36_13 1_555 1_555
H65_13 C36_13 1_555 1_555
H66_13 C36_13 1_555 1_555
Cu5_7 O10_7 1_555 1_555
O13_7 Cu3_7 1_555 1_555
O14_7 Cu3_7 1_555 1_555
O12_7 Cu5_7 1_555 1_555
Cu1_16 N1_16 1_555 1_555
Cu5_7 N3_16 1_555 1_555
N1_16 C1_16 1_555 1_555
N5_8 C3_16 1_555 1_555
N3_16 C1_16 1_555 1_555
N4_16 C2_16 1_555 1_555
C1_16 H1_16 1_555 1_555
H2_14 C1_16 1_555 1_555
C2_16 N3_16 1_555 1_555
H3_16 C2_16 1_555 1_555
H4_16 C2_16 1_555 1_555
C3_16 N3_16 1_555 1_555
H5_16 C3_16 1_555 1_555
H6_16 C3_16 1_555 1_555
C4_16 N5_8 1_555 1_555
H7_16 C4_16 1_555 1_555
H8_16 C4_16 1_555 1_555
C5_16 N1_16 1_555 1_555
H9_16 C5_16 1_555 1_555
H10_16 C5_16 1_555 1_555
C6_16 N1_16 1_555 1_555
H11_16 C6_16 1_555 1_555
H12_16 C6_16 1_555 1_555
O2_16 Cu1_16 1_555 1_555
H16_16 C10_16 1_555 1_555
H17_16 C10_16 1_555 1_555
H18_16 C10_16 1_555 1_555
O4_16 Cu1_16 1_555 1_555
O6_16 Cu1_16 1_555 1_555
H37_16 C21_16 1_555 1_555
H38_14 C21_16 1_555 1_555
H39_14 C21_16 1_555 1_555
O8_16 Cu1_16 1_555 1_555
C23_13 C22_16 1_555 1_555
C24_13 C23_13 1_555 1_555
H40_16 C24_13 1_555 1_555
H42_13 C24_13 1_555 1_555
C25_13 C23_13 1_555 1_555
H43_13 C25_13 1_555 1_555
H44_13 C25_13 1_555 1_555
H45_13 C25_13 1_555 1_555
O9_14 Cu5_7 1_555 1_555
O13_7 C27_14 1_555 1_555
C27_14 O9_14 1_555 1_555
C28_14 C27_14 1_555 1_555
C29_14 C28_14 1_555 1_555
H49_14 C29_14 1_555 1_555
H50_14 C29_14 1_555 1_555
H51_14 C29_14 1_555 1_555
O11_14 Cu5_7 1_555 1_555
O14_7 C32_14 1_555 1_555
C32_14 O11_14 1_555 1_555
C33_14 C32_14 1_555 1_555
C34_14 C33_14 1_555 1_555
H58_14 C34_14 1_555 1_555
H59_14 C34_14 1_555 1_555
H60_14 C34_14 1_555 1_555
C35_14 C33_14 1_555 1_555
H62_14 C35_14 1_555 1_555
H63_14 C35_14 1_555 1_555
C36_14 C33_14 1_555 1_555
H64_14 C36_14 1_555 1_555
H65_14 C36_14 1_555 1_555
H66_14 C36_14 1_555 1_555
N5_8 C6_16 1_555 1_555
N4_16 C4_16 1_555 1_555
N4_16 C5_16 1_555 1_555
O8_16 C22_16 1_555 1_555
H53_13 C30_13 1_555 1_555
H54_13 C30_13 1_555 1_555
H55_13 C31_13 1_555 1_555
H56_13 C31_13 1_555 1_555
H57_13 C31_13 1_555 1_555
Cu1_17 N1_17 1_555 1_555
Cu2_9 O1_17 1_555 1_555
Cu3_8 N3_17 1_555 1_555
N1_17 C1_17 1_555 1_555
N2_9 C3_17 1_555 1_555
N3_17 C1_17 1_555 1_555
N4_17 C2_17 1_555 1_555
C1_17 H1_17 1_555 1_555
H2_15 C1_17 1_555 1_555
C2_17 N3_17 1_555 1_555
H3_17 C2_17 1_555 1_555
H4_17 C2_17 1_555 1_555
C3_17 N3_17 1_555 1_555
H5_17 C3_17 1_555 1_555
H6_17 C3_17 1_555 1_555
C4_17 N2_9 1_555 1_555
H7_17 C4_17 1_555 1_555
H8_17 C4_17 1_555 1_555
C5_17 N1_17 1_555 1_555
H9_17 C5_17 1_555 1_555
H10_17 C5_17 1_555 1_555
C6_17 N1_17 1_555 1_555
H11_17 C6_17 1_555 1_555
H12_17 C6_17 1_555 1_555
O1_17 C7_17 1_555 1_555
O2_17 Cu1_17 1_555 1_555
C7_17 O2_17 1_555 1_555
C8_17 C7_17 1_555 1_555
C9_17 C8_17 1_555 1_555
H13_17 C9_17 1_555 1_555
H14_17 C9_17 1_555 1_555
H15_13 C9_17 1_555 1_555
C10_17 C8_17 1_555 1_555
H16_17 C10_17 1_555 1_555
H17_17 C10_17 1_555 1_555
H18_17 C10_17 1_555 1_555
C11_17 C8_17 1_555 1_555
H19_17 C11_17 1_555 1_555
H20_17 C11_17 1_555 1_555
H21_17 C11_17 1_555 1_555
O3_17 Cu2_9 1_555 1_555
O4_17 Cu1_17 1_555 1_555
C12_15 O3_17 1_555 1_555
C13_15 C12_15 1_555 1_555
C14_15 C13_15 1_555 1_555
H22_15 C14_15 1_555 1_555
H23_15 C14_15 1_555 1_555
H24_15 C14_15 1_555 1_555
C15_15 C13_15 1_555 1_555
H25_15 C15_15 1_555 1_555
H26_15 C15_15 1_555 1_555
H27_15 C15_15 1_555 1_555
C16_15 C13_15 1_555 1_555
H28_15 C16_15 1_555 1_555
H29_15 C16_15 1_555 1_555
H30_15 C16_15 1_555 1_555
O5_17 Cu2_9 1_555 1_555
O6_17 Cu1_17 1_555 1_555
C17_17 O5_17 1_555 1_555
C18_17 C17_17 1_555 1_555
C19_17 C18_17 1_555 1_555
H31_17 C19_17 1_555 1_555
H32_17 C19_17 1_555 1_555
H33_17 C19_17 1_555 1_555
C20_15 C18_17 1_555 1_555
H34_15 C20_15 1_555 1_555
H35_15 C20_15 1_555 1_555
H36_15 C20_15 1_555 1_555
C21_17 C18_17 1_555 1_555
H37_17 C21_17 1_555 1_555
H38_15 C21_17 1_555 1_555
H39_15 C21_17 1_555 1_555
O7_17 Cu2_9 1_555 1_555
O8_17 Cu1_17 1_555 1_555
C22_17 O7_17 1_555 1_555
C23_14 C22_17 1_555 1_555
C24_14 C23_14 1_555 1_555
H40_17 C24_14 1_555 1_555
H41_14 C24_14 1_555 1_555
H42_14 C24_14 1_555 1_555
C25_14 C23_14 1_555 1_555
H43_14 C25_14 1_555 1_555
H44_14 C25_14 1_555 1_555
H45_14 C25_14 1_555 1_555
C26_14 C23_14 1_555 1_555
H46_14 C26_14 1_555 1_555
H47_14 C26_14 1_555 1_555
H48_14 C26_14 1_555 1_555
O9_15 Cu3_8 1_555 1_555
O10_8 C27_15 1_555 1_555
C27_15 O9_15 1_555 1_555
C28_15 C27_15 1_555 1_555
C29_15 C28_15 1_555 1_555
H49_15 C29_15 1_555 1_555
H50_15 C29_15 1_555 1_555
H51_15 C29_15 1_555 1_555
O11_15 Cu3_8 1_555 1_555
O12_8 C32_15 1_555 1_555
C32_15 O11_15 1_555 1_555
C33_15 C32_15 1_555 1_555
C34_15 C33_15 1_555 1_555
H58_15 C34_15 1_555 1_555
H59_15 C34_15 1_555 1_555
H60_15 C34_15 1_555 1_555
C35_15 C33_15 1_555 1_555
H62_15 C35_15 1_555 1_555
H63_15 C35_15 1_555 1_555
C36_15 C33_15 1_555 1_555
H64_15 C36_15 1_555 1_555
H65_15 C36_15 1_555 1_555
H66_15 C36_15 1_555 1_555
Cu4_9 N2_9 1_555 1_555
Cu5_8 O10_8 1_555 1_555
N5_9 Cu2_9 1_555 1_555
O13_8 Cu3_8 1_555 1_555
O14_8 Cu3_8 1_555 1_555
N2_9 C6_17 1_555 1_555
N4_17 C4_17 1_555 1_555
N4_17 C5_17 1_555 1_555
O4_17 C12_15 1_555 1_555
O6_17 C17_17 1_555 1_555
O8_17 C22_17 1_555 1_555
O12_8 Cu5_8 1_555 1_555
C13_16 C12_16 1_555 1_555
C14_16 C13_16 1_555 1_555
H22_16 C14_16 1_555 1_555
H23_16 C14_16 1_555 1_555
H24_16 C14_16 1_555 1_555
C15_16 C13_16 1_555 1_555
H25_16 C15_16 1_555 1_555
H26_16 C15_16 1_555 1_555
H27_16 C15_16 1_555 1_555
C16_16 C13_16 1_555 1_555
H28_16 C16_16 1_555 1_555
H29_16 C16_16 1_555 1_555
H30_16 C16_16 1_555 1_555
H34_16 C20_16 1_555 1_555
H35_16 C20_16 1_555 1_555
H36_16 C20_16 1_555 1_555
O9_16 Cu3_9 1_555 1_555
O10_9 C27_16 1_555 1_555
C27_16 O9_16 1_555 1_555
C28_16 C27_16 1_555 1_555
C29_16 C28_16 1_555 1_555
H49_16 C29_16 1_555 1_555
H50_16 C29_16 1_555 1_555
H51_16 C29_16 1_555 1_555
C30_14 C28_16 1_555 1_555
H52_16 C30_14 1_555 1_555
H53_14 C30_14 1_555 1_555
H54_14 C30_14 1_555 1_555
C31_14 C28_16 1_555 1_555
H55_14 C31_14 1_555 1_555
H56_14 C31_14 1_555 1_555
H57_14 C31_14 1_555 1_555
O11_16 Cu3_9 1_555 1_555
O12_9 C32_16 1_555 1_555
C32_16 O11_16 1_555 1_555
C33_16 C32_16 1_555 1_555
C34_16 C33_16 1_555 1_555
H58_16 C34_16 1_555 1_555
H59_16 C34_16 1_555 1_555
H60_16 C34_16 1_555 1_555
C35_16 C33_16 1_555 1_555
H61_14 C35_16 1_555 1_555
H62_16 C35_16 1_555 1_555
H63_16 C35_16 1_555 1_555
C36_16 C33_16 1_555 1_555
H64_16 C36_16 1_555 1_555
H65_16 C36_16 1_555 1_555
H66_16 C36_16 1_555 1_555
Cu5_9 O10_9 1_555 1_555
O13_9 Cu3_9 1_555 1_555
O14_9 Cu3_9 1_555 1_555
O12_9 Cu5_9 1_555 1_555
Cu4_9 O1_18 1_555 1_555
O1_18 C7_18 1_555 1_555
C8_18 C7_18 1_555 1_555
C9_18 C8_18 1_555 1_555
H13_18 C9_18 1_555 1_555
H14_18 C9_18 1_555 1_555
H15_14 C9_18 1_555 1_555
C11_18 C8_18 1_555 1_555
H20_18 C11_18 1_555 1_555
H21_18 C11_18 1_555 1_555
O3_18 Cu4_9 1_555 1_555
C12_17 O3_18 1_555 1_555
C13_17 C12_17 1_555 1_555
C14_17 C13_17 1_555 1_555
H22_17 C14_17 1_555 1_555
H23_17 C14_17 1_555 1_555
H24_17 C14_17 1_555 1_555
C15_17 C13_17 1_555 1_555
H26_17 C15_17 1_555 1_555
H27_17 C15_17 1_555 1_555
C16_17 C13_17 1_555 1_555
H28_17 C16_17 1_555 1_555
H29_17 C16_17 1_555 1_555
H30_17 C16_17 1_555 1_555
O5_18 Cu4_9 1_555 1_555
C17_18 O5_18 1_555 1_555
C18_18 C17_18 1_555 1_555
C19_18 C18_18 1_555 1_555
H31_18 C19_18 1_555 1_555
H32_18 C19_18 1_555 1_555
H33_18 C19_18 1_555 1_555
C20_17 C18_18 1_555 1_555
H34_17 C20_17 1_555 1_555
H35_17 C20_17 1_555 1_555
H36_17 C20_17 1_555 1_555
O7_18 Cu4_9 1_555 1_555
H46_15 C26_15 1_555 1_555
H47_15 C26_15 1_555 1_555
Cu1_18 N1_18 1_555 1_555
Cu5_9 N3_18 1_555 1_555
N1_18 C1_18 1_555 1_555
N5_9 C3_18 1_555 1_555
N3_18 C1_18 1_555 1_555
N4_18 C2_18 1_555 1_555
C1_18 H1_18 1_555 1_555
H2_17 C1_18 1_555 1_555
C2_18 N3_18 1_555 1_555
H3_18 C2_18 1_555 1_555
H4_18 C2_18 1_555 1_555
C3_18 N3_18 1_555 1_555
H5_18 C3_18 1_555 1_555
H6_18 C3_18 1_555 1_555
C4_18 N5_9 1_555 1_555
H7_18 C4_18 1_555 1_555
H8_18 C4_18 1_555 1_555
C5_18 N1_18 1_555 1_555
H9_18 C5_18 1_555 1_555
H10_18 C5_18 1_555 1_555
C6_18 N1_18 1_555 1_555
H11_18 C6_18 1_555 1_555
H12_18 C6_18 1_555 1_555
O2_18 Cu1_18 1_555 1_555
H16_18 C10_18 1_555 1_555
H17_18 C10_18 1_555 1_555
H18_18 C10_18 1_555 1_555
O4_18 Cu1_18 1_555 1_555
O6_18 Cu1_18 1_555 1_555
H37_18 C21_18 1_555 1_555
H38_17 C21_18 1_555 1_555
H39_17 C21_18 1_555 1_555
O8_18 Cu1_18 1_555 1_555
C23_15 C22_18 1_555 1_555
C24_15 C23_15 1_555 1_555
H40_18 C24_15 1_555 1_555
H42_15 C24_15 1_555 1_555
C25_15 C23_15 1_555 1_555
H43_15 C25_15 1_555 1_555
H44_15 C25_15 1_555 1_555
H45_15 C25_15 1_555 1_555
O9_17 Cu5_9 1_555 1_555
O13_9 C27_17 1_555 1_555
C27_17 O9_17 1_555 1_555
C28_17 C27_17 1_555 1_555
C29_17 C28_17 1_555 1_555
H49_17 C29_17 1_555 1_555
H50_17 C29_17 1_555 1_555
H51_17 C29_17 1_555 1_555
O11_17 Cu5_9 1_555 1_555
O14_9 C32_17 1_555 1_555
C32_17 O11_17 1_555 1_555
C33_17 C32_17 1_555 1_555
C34_17 C33_17 1_555 1_555
H58_17 C34_17 1_555 1_555
H59_17 C34_17 1_555 1_555
H60_17 C34_17 1_555 1_555
C35_17 C33_17 1_555 1_555
H62_17 C35_17 1_555 1_555
H63_17 C35_17 1_555 1_555
C36_17 C33_17 1_555 1_555
H64_17 C36_17 1_555 1_555
H65_17 C36_17 1_555 1_555
H66_17 C36_17 1_555 1_555
N5_9 C6_18 1_555 1_555
N4_18 C4_18 1_555 1_555
N4_18 C5_18 1_555 1_555
O8_18 C22_18 1_555 1_555
C13_18 C12_18 1_555 1_555
C14_18 C13_18 1_555 1_555
H22_18 C14_18 1_555 1_555
H23_18 C14_18 1_555 1_555
H24_18 C14_18 1_555 1_555
C15_18 C13_18 1_555 1_555
H25_18 C15_18 1_555 1_555
H26_18 C15_18 1_555 1_555
H27_18 C15_18 1_555 1_555
C16_18 C13_18 1_555 1_555
H28_18 C16_18 1_555 1_555
H29_18 C16_18 1_555 1_555
H30_18 C16_18 1_555 1_555
H34_18 C20_18 1_555 1_555
H35_18 C20_18 1_555 1_555
H36_18 C20_18 1_555 1_555
O9_18 Cu5_8 1_555 1_555
O13_8 C27_18 1_555 1_555
C27_18 O9_18 1_555 1_555
C28_18 C27_18 1_555 1_555
C29_18 C28_18 1_555 1_555
H49_18 C29_18 1_555 1_555
H50_18 C29_18 1_555 1_555
H51_18 C29_18 1_555 1_555
C30_15 C28_18 1_555 1_555
H52_18 C30_15 1_555 1_555
H53_15 C30_15 1_555 1_555
H54_15 C30_15 1_555 1_555
C31_15 C28_18 1_555 1_555
H55_15 C31_15 1_555 1_555
H56_15 C31_15 1_555 1_555
H57_15 C31_15 1_555 1_555
O11_18 Cu5_8 1_555 1_555
O14_8 C32_18 1_555 1_555
C32_18 O11_18 1_555 1_555
C33_18 C32_18 1_555 1_555
C34_18 C33_18 1_555 1_555
H58_18 C34_18 1_555 1_555
H59_18 C34_18 1_555 1_555
H60_18 C34_18 1_555 1_555
C35_18 C33_18 1_555 1_555
H61_15 C35_18 1_555 1_555
H62_18 C35_18 1_555 1_555
H63_18 C35_18 1_555 1_555
C36_18 C33_18 1_555 1_555
H64_18 C36_18 1_555 1_555
H65_18 C36_18 1_555 1_555
H66_18 C36_18 1_555 1_555
C24_16 C23_16 1_555 1_555
H41_16 C24_16 1_555 1_555
H42_16 C24_16 1_555 1_555
C25_16 C23_16 1_555 1_555
H43_16 C25_16 1_555 1_555
H44_16 C25_16 1_555 1_555
H45_16 C25_16 1_555 1_555
C26_16 C23_16 1_555 1_555
H46_16 C26_16 1_555 1_555
H47_16 C26_16 1_555 1_555
H48_16 C26_16 1_555 1_555
C24_17 C23_17 1_555 1_555
H41_17 C24_17 1_555 1_555
H42_17 C24_17 1_555 1_555
C25_17 C23_17 1_555 1_555
H43_17 C25_17 1_555 1_555
H44_17 C25_17 1_555 1_555
H45_17 C25_17 1_555 1_555
C26_17 C23_17 1_555 1_555
H46_17 C26_17 1_555 1_555
H47_17 C26_17 1_555 1_555
H48_17 C26_17 1_555 1_555
C24_18 C23_18 1_555 1_555
H41_18 C24_18 1_555 1_555
H42_18 C24_18 1_555 1_555
C25_18 C23_18 1_555 1_555
H43_18 C25_18 1_555 1_555
H44_18 C25_18 1_555 1_555
H45_18 C25_18 1_555 1_555
C26_18 C23_18 1_555 1_555
H46_18 C26_18 1_555 1_555
H47_18 C26_18 1_555 1_555
H48_18 C26_18 1_555 1_555
H53_16 C30_16 1_555 1_555
H54_16 C30_16 1_555 1_555
H55_16 C31_16 1_555 1_555
H56_16 C31_16 1_555 1_555
H57_16 C31_16 1_555 1_555
H53_17 C30_17 1_555 1_555
H54_17 C30_17 1_555 1_555
H55_17 C31_17 1_555 1_555
H56_17 C31_17 1_555 1_555
H57_17 C31_17 1_555 1_555
H53_18 C30_18 1_555 1_555
H54_18 C30_18 1_555 1_555
H55_18 C31_18 1_555 1_555
H56_18 C31_18 1_555 1_555
H57_18 C31_18 1_555 1_555

#END
