
###############################################################################
#
# This file contains modified crystal structure data generated from the
# MOF subset of the Cambridge Structural Database (CSD) v543 
# hosted by the Cambridge Crystallographic Data Centre (CCDC).
#
# This work is licensed under the Creative Commons
# Attribution-NonCommercial-ShareAlike 4.0 International License.
# To view a copy of this license, visit
# http://creativecommons.org/licenses/by-nc-sa/4.0/
# or send a letter to
# Creative Commons, PO Box 1866, Mountain View, CA 94042, USA.
#
# CIF created using the CSD Python API on 29 September 2022
# The structure has been converted into the P1 space group
# The structure has a 3D framework
# The original CSD entry XAJSEJ is in the orthorhombic crystal system
# The original CSD entry XAJSEJ is in a Sohncke space group
# The framework has been calculated to contain at least 10.0% void space
# The void calculation uses a probe of radius 1.32A, grid spacing 0.4
# H atom positions have been added when not included in the experimental data
#
###############################################################################

data_XAJSEJ
_chemical_formula_moiety         '(C104 H100 In4 N12 O31 5+)n'
_symmetry_cell_setting           triclinic
_symmetry_space_group_name_H-M   'P 1'
_symmetry_Int_Tables_number      1
_space_group_name_Hall           'P 1'
loop_
_symmetry_equiv_pos_site_id
_symmetry_equiv_pos_as_xyz
1 x,y,z
_cell_length_a                   12.7580(9)
_cell_length_b                   17.5203(11)
_cell_length_c                   21.8129(11)
_cell_angle_alpha                90
_cell_angle_beta                 90
_cell_angle_gamma                90
_cell_volume                     4875.71
loop_
_atom_site_label
_atom_site_type_symbol
_atom_site_fract_x
_atom_site_fract_y
_atom_site_fract_z
O10 O 0.0528(5) 0.0188(5) 0.7654(3)
O3 O 0.0176(5) 0.6124(4) 0.6823(3)
In3 In 0.08087(5) 0.48958(4) 0.67319(3)
O14 O 0.0465(6) 0.9447(5) 0.8867(3)
O9 O 0.9824(5) 0.1124(4) 0.8177(3)
O11 O 0.7621(5) 0.0503(4) 0.8345(3)
O12 O 0.8191(5) 0.0152(5) 0.7454(3)
O13 O 0.9150(5) 0.0027(4) 0.9296(3)
C15 C 0.5383(8) 0.5596(6) 0.0045(5)
H8 H 0.6798 0.5945 0.0343
C22 C 0.4971(9) 0.5357(6) 0.0650(5)
O7 O 0.4150(5) 0.4973(4) 0.0704(3)
O8 O 0.5465(6) 0.5553(5) 0.1133(3)
In4 In 0.41913(5) 0.51042(4) 0.17319(3)
In1 In 0.91913(5) 0.98958(4) 0.82681(3)
C1 C 0.8400(8) 0.7648(6) 0.7937(5)
C2 C 0.9062(8) 0.7192(5) 0.7592(4)
H1 H 0.9670 0.7390 0.7419
C3 C 0.8795(8) 0.6432(6) 0.7513(4)
C4 C 0.7858(8) 0.6142(7) 0.7774(5)
H2 H 0.7687 0.5629 0.7734
C5 C 0.7207(8) 0.6632(6) 0.8087(5)
C6 C 0.7488(8) 0.7363(6) 0.8201(5)
H3 H 0.7078 0.7671 0.8452
C7 C 0.5394(8) 0.6132(7) 0.7995(5)
C8 C 0.5273(9) 0.6260(7) 0.7364(5)
H4 H 0.5787 0.6487 0.7123
C9 C 0.4289(10) 0.6009(7) 0.7125(5)
H5 H 0.4158 0.6070 0.6708
C10 C 0.3526(8) 0.5682(7) 0.7487(5)
C11 C 0.3680(8) 0.5583(7) 0.8116(5)
H6 H 0.3154 0.5377 0.8361
C12 C 0.4657(8) 0.5805(7) 0.8374(4)
C13 C 0.5085(8) 0.5783(6) 0.8973(5)
C14 C 0.4741(8) 0.5518(6) 0.9536(4)
H7 H 0.4086 0.5289 0.9573
C16 C 0.6374(9) 0.5907(8) 0.9997(6)
C17 C 0.6734(8) 0.6159(7) 0.9443(5)
H9 H 0.7399 0.6372 0.9406
C18 C 0.6094(8) 0.6091(7) 0.8945(5)
C19 C 0.8710(8) 0.8463(6) 0.8048(5)
C20 C 0.9517(8) 0.5904(6) 0.7198(5)
C21 C 0.2510(9) 0.5445(7) 0.7224(5)
N1 N 0.6271(7) 0.6318(6) 0.8331(4)
O1 O 0.9481(5) 0.8739(4) 0.7765(3)
O2 O 0.8225(6) 0.8854(4) 0.8432(3)
O4 O 0.9472(5) 0.5188(5) 0.7346(3)
O5 O 0.2379(5) 0.5503(4) 0.6655(3)
O6 O 0.1809(5) 0.5152(5) 0.7546(3)
C9_2 C 0.0711(10) 0.3991(7) 0.2125(5)
H5_2 H 0.0842 0.3930 0.1708
C10_2 C 0.1474(8) 0.4318(7) 0.2487(5)
C11_2 C 0.1320(8) 0.4417(7) 0.3116(5)
H6_2 H 0.1846 0.4623 0.3361
C12_2 C 0.0343(8) 0.4195(7) 0.3374(4)
C14_2 C 0.0259(8) 0.4482(6) 0.4536(4)
H7_2 H 0.0914 0.4711 0.4573
C21_2 C 0.2490(9) 0.4555(7) 0.2224(5)
C22_2 C 0.0029(9) 0.4643(6) 0.5650(5)
O5_2 O 0.2621(5) 0.4497(4) 0.1655(3)
O6_2 O 0.3191(5) 0.4848(5) 0.2546(3)
O7_2 O 0.0850(5) 0.5027(4) 0.5704(3)
In1_2 In 0.58087(5) 0.01042(4) 0.32681(3)
C1_2 C 0.6600(8) 0.2352(6) 0.2937(5)
C2_2 C 0.5938(8) 0.2808(5) 0.2592(4)
H1_2 H 0.5330 0.2610 0.2419
C3_2 C 0.6205(8) 0.3568(6) 0.2513(4)
C4_2 C 0.7142(8) 0.3858(7) 0.2774(5)
H2_2 H 0.7313 0.4371 0.2734
C5_2 C 0.7793(8) 0.3368(6) 0.3087(5)
C6_2 C 0.7512(8) 0.2637(6) 0.3201(5)
H3_2 H 0.7922 0.2329 0.3452
C7_2 C 0.9606(8) 0.3868(7) 0.2995(5)
C8_2 C 0.9727(9) 0.3740(7) 0.2364(5)
H4_2 H 0.9213 0.3513 0.2123
C13_2 C 0.9915(8) 0.4217(6) 0.3973(5)
C15_2 C 0.9617(8) 0.4404(6) 0.5045(5)
C16_2 C 0.8626(9) 0.4093(8) 0.4997(6)
H8_2 H 0.8202 0.4055 0.5343
C17_2 C 0.8266(8) 0.3841(7) 0.4443(5)
H9_2 H 0.7601 0.3628 0.4406
C18_2 C 0.8906(8) 0.3909(7) 0.3945(5)
C19_2 C 0.6290(8) 0.1537(6) 0.3048(5)
C20_2 C 0.5483(8) 0.4096(6) 0.2198(5)
N1_2 N 0.8729(7) 0.3682(6) 0.3331(4)
O1_2 O 0.5519(5) 0.1261(4) 0.2765(3)
O2_2 O 0.6775(6) 0.1146(4) 0.3432(3)
O3_2 O 0.4824(5) 0.3876(4) 0.1823(3)
O4_2 O 0.5528(5) 0.4812(5) 0.2346(3)
O8_2 O 0.9535(6) 0.4447(5) 0.6133(3)
O14_2 O 0.4535(6) 0.0553(5) 0.3867(3)
O9_2 O 0.5176(5) 0.8876(4) 0.3177(3)
O10_2 O 0.4472(5) 0.9812(5) 0.2654(3)
O11_2 O 0.7379(5) 0.9497(4) 0.3345(3)
O12_2 O 0.6809(5) 0.9848(5) 0.2454(3)
O13_2 O 0.5850(5) 0.9973(4) 0.4296(3)
C1_3 C 0.1600(8) 0.2648(6) 0.7063(5)
C2_3 C 0.0938(8) 0.2192(5) 0.7408(4)
H1_3 H 0.0330 0.2390 0.7581
C3_3 C 0.1205(8) 0.1432(6) 0.7487(4)
C4_3 C 0.2142(8) 0.1142(7) 0.7226(5)
H2_3 H 0.2313 0.0629 0.7266
C5_3 C 0.2793(8) 0.1632(6) 0.6913(5)
C6_3 C 0.2512(8) 0.2363(6) 0.6799(5)
H3_3 H 0.2922 0.2671 0.6548
C7_3 C 0.4606(8) 0.1132(7) 0.7005(5)
C8_3 C 0.4727(9) 0.1260(7) 0.7636(5)
H4_3 H 0.4213 0.1487 0.7877
C9_3 C 0.5711(10) 0.1009(7) 0.7875(5)
H5_3 H 0.5842 0.1070 0.8292
C10_3 C 0.6474(8) 0.0682(7) 0.7513(5)
C11_3 C 0.6320(8) 0.0583(7) 0.6884(5)
H6_3 H 0.6846 0.0377 0.6639
C12_3 C 0.5343(8) 0.0805(7) 0.6626(4)
C13_3 C 0.4915(8) 0.0783(6) 0.6027(5)
C14_3 C 0.5259(8) 0.0518(6) 0.5464(4)
H7_3 H 0.5914 0.0289 0.5427
C15_3 C 0.4617(8) 0.0596(6) 0.4955(5)
C16_3 C 0.3626(9) 0.0907(8) 0.5003(6)
H8_3 H 0.3202 0.0945 0.4657
C17_3 C 0.3266(8) 0.1159(7) 0.5557(5)
H9_3 H 0.2601 0.1372 0.5594
C18_3 C 0.3906(8) 0.1091(7) 0.6055(5)
C19_3 C 0.1290(8) 0.3463(6) 0.6952(5)
C20_3 C 0.0483(8) 0.0904(6) 0.7802(5)
C21_3 C 0.7490(9) 0.0445(7) 0.7776(5)
C22_3 C 0.5029(9) 0.0357(6) 0.4350(5)
N1_3 N 0.3729(7) 0.1318(6) 0.6669(4)
O1_3 O 0.0519(5) 0.3739(4) 0.7235(3)
O2_3 O 0.1775(6) 0.3854(4) 0.6568(3)
C1_4 C 0.3400(8) 0.7352(6) 0.2063(5)
C2_4 C 0.4062(8) 0.7808(5) 0.2408(4)
H1_4 H 0.4670 0.7610 0.2581
C3_4 C 0.3795(8) 0.8568(6) 0.2487(4)
C4_4 C 0.2858(8) 0.8858(7) 0.2226(5)
H2_4 H 0.2687 0.9371 0.2266
C5_4 C 0.2207(8) 0.8368(6) 0.1913(5)
C6_4 C 0.2488(8) 0.7637(6) 0.1799(5)
H3_4 H 0.2078 0.7329 0.1548
C7_4 C 0.0394(8) 0.8868(7) 0.2005(5)
C8_4 C 0.0273(9) 0.8740(7) 0.2636(5)
H4_4 H 0.0787 0.8513 0.2877
C13_4 C 0.0085(8) 0.9217(6) 0.1027(5)
C16_4 C 0.1374(9) 0.9093(8) 0.0003(6)
C17_4 C 0.1734(8) 0.8841(7) 0.0557(5)
H9_4 H 0.2399 0.8628 0.0594
C18_4 C 0.1094(8) 0.8909(7) 0.1055(5)
C19_4 C 0.3710(8) 0.6537(6) 0.1952(5)
C20_4 C 0.4517(8) 0.9096(6) 0.2802(5)
N1_4 N 0.1271(7) 0.8682(6) 0.1669(4)
O1_4 O 0.4481(5) 0.6261(4) 0.2235(3)
O2_4 O 0.3225(6) 0.6146(4) 0.1568(3)
C15_4 C 0.0383(8) 0.9404(6) 0.9955(5)
H8_4 H 0.1798 0.9055 0.9657
C9_4 C 0.9289(10) 0.8991(7) 0.2875(5)
H5_4 H 0.9158 0.8930 0.3292
C10_4 C 0.8526(8) 0.9318(7) 0.2513(5)
C11_4 C 0.8680(8) 0.9417(7) 0.1884(5)
H6_4 H 0.8154 0.9623 0.1639
C12_4 C 0.9657(8) 0.9195(7) 0.1626(4)
C14_4 C 0.9741(8) 0.9482(6) 0.0464(4)
H7_4 H 0.9086 0.9711 0.0427
C21_4 C 0.7510(9) 0.9555(7) 0.2776(5)
C22_4 C 0.9971(9) 0.9643(6) 0.9350(5)
C23 C 0.168(4) 0.778(3) 0.829(2)
C24 C 0.197(6) 0.859(3) 0.737(2)
N2 N 0.201(3) 0.797(2) 0.773(2)
H10 H 0.236176 0.906404 0.759754
H11 H 0.236078 0.846936 0.693685
H12 H 0.115499 0.873996 0.728334
H15 H 0.166703 0.756579 0.746377
H16 H 0.279179 0.786784 0.775663
H20 H 0.0830524 0.783415 0.831238
H21 H 0.190284 0.719256 0.838811
H22 H 0.203729 0.815822 0.862658
C23_2 C 0.332(4) 0.222(3) 0.329(2)
C24_2 C 0.303(6) 0.141(3) 0.237(2)
N2_2 N 0.299(3) 0.203(2) 0.273(2)
H10_2 H 0.263824 0.0935964 0.259754
H11_2 H 0.263922 0.153064 0.193685
H12_2 H 0.384501 0.126004 0.228334
H15_2 H 0.333297 0.243421 0.246377
H16_2 H 0.220821 0.213216 0.275663
H20_2 H 0.416948 0.216585 0.331238
H21_2 H 0.309716 0.280744 0.338811
H22_2 H 0.296271 0.184178 0.362658
C23_3 C 0.832(4) 0.278(3) 0.671(2)
C24_3 C 0.803(6) 0.359(3) 0.763(2)
N2_3 N 0.799(3) 0.297(2) 0.727(2)
H10_3 H 0.763824 0.406404 0.740246
H11_3 H 0.763922 0.346936 0.806315
H12_3 H 0.884501 0.373996 0.771666
H15_3 H 0.833297 0.256579 0.753623
H16_3 H 0.720821 0.286784 0.724337
H20_3 H 0.916948 0.283415 0.668762
H21_3 H 0.809716 0.219256 0.661189
H22_3 H 0.796271 0.315822 0.637342
C23_4 C 0.668(4) 0.722(3) 0.171(2)
C24_4 C 0.697(6) 0.641(3) 0.263(2)
N2_4 N 0.701(3) 0.703(2) 0.227(2)
H10_4 H 0.736176 0.593596 0.240246
H11_4 H 0.736078 0.653064 0.306315
H12_4 H 0.615499 0.626004 0.271666
H15_4 H 0.666703 0.743421 0.253623
H16_4 H 0.779179 0.713216 0.224337
H20_4 H 0.583052 0.716585 0.168762
H21_4 H 0.690284 0.780744 0.161189
H22_4 H 0.703729 0.684178 0.137342
C26 C 0.151(7) 0.649(6) 0.829(5)
N3 N 0.079(4) 0.666(2) 0.873(2)
H13 H 0.122809 0.67814 0.910598
H14 H 0.0442394 0.71444 0.857568
H17 H 0.111021 0.637652 0.785842
H18 H 0.204251 0.697043 0.823226
H19 H 0.195318 0.598707 0.842738
H23 H 0.029427 0.571393 0.914757
C25 C 0.999(5) 0.624(4) 0.895(3)
H24 H 0.95775 0.656304 0.930173
H25 H 0.945129 0.610339 0.857861
C25_2 C 0.501(5) 0.376(4) 0.395(3)
C26_2 C 0.349(7) 0.351(6) 0.329(5)
N3_2 N 0.421(4) 0.334(2) 0.373(2)
H13_2 H 0.377191 0.32186 0.410598
H14_2 H 0.455761 0.28556 0.357568
H17_2 H 0.388979 0.362348 0.285842
H18_2 H 0.295749 0.302957 0.323226
H19_2 H 0.304682 0.401293 0.342738
H23_2 H 0.470573 0.428607 0.414757
H24_2 H 0.54225 0.343696 0.430173
H25_2 H 0.554871 0.389661 0.357861
C25_3 C 0.001(5) 0.124(4) 0.605(3)
H24_3 H 0.0422501 0.156304 0.569827
H25_3 H 0.0548706 0.110339 0.642139
C26_3 C 0.849(7) 0.149(6) 0.671(5)
N3_3 N 0.921(4) 0.166(2) 0.627(2)
H13_3 H 0.877191 0.17814 0.589402
H14_3 H 0.955761 0.21444 0.642432
H17_3 H 0.888979 0.137652 0.714158
H18_3 H 0.795749 0.197043 0.676774
H19_3 H 0.804682 0.0987067 0.657262
H23_3 H 0.970573 0.0713931 0.585243
C25_4 C 0.499(5) 0.876(4) 0.105(3)
C26_4 C 0.651(7) 0.851(6) 0.171(5)
N3_4 N 0.579(4) 0.834(2) 0.127(2)
H13_4 H 0.622809 0.82186 0.089402
H14_4 H 0.544239 0.78556 0.142432
H17_4 H 0.611021 0.862348 0.214158
H18_4 H 0.704251 0.802957 0.176774
H19_4 H 0.695318 0.901293 0.157262
H23_4 H 0.529427 0.928607 0.0852432
H24_4 H 0.45775 0.843696 0.069827
H25_4 H 0.445129 0.889661 0.142139
loop_
_geom_bond_atom_site_label_1
_geom_bond_atom_site_label_2
_geom_bond_site_symmetry_1
_geom_bond_site_symmetry_2
In3 O3 1_555 1_555
C22 C15 1_555 1_555
O7 C22 1_555 1_555
O8 C22 1_555 1_555
In4 O7 1_555 1_555
O8 In4 1_555 1_555
In1 O1 1_555 1_555
C1 C2 1_555 1_555
C2 H1 1_555 1_555
C3 C2 1_555 1_555
C4 C3 1_555 1_555
H2 C4 1_555 1_555
C5 C4 1_555 1_555
C6 C1 1_555 1_555
H3 C6 1_555 1_555
C7 C8 1_555 1_555
C8 H4 1_555 1_555
C9 C8 1_555 1_555
H5 C9 1_555 1_555
C10 C9 1_555 1_555
C11 C10 1_555 1_555
H6 C11 1_555 1_555
C12 C7 1_555 1_555
C13 C12 1_555 1_555
C14 C13 1_555 1_555
H7 C14 1_555 1_555
C17 C16 1_555 1_555
H9 C17 1_555 1_555
C18 C13 1_555 1_555
C19 C1 1_555 1_555
C20 C3 1_555 1_555
C21 C10 1_555 1_555
N1 C5 1_555 1_555
O1 C19 1_555 1_555
O2 In1 1_555 1_555
O4 C20 1_555 1_555
O5 C21 1_555 1_555
O6 C21 1_555 1_555
In3 O5 1_555 1_555
C5 C6 1_555 1_555
C7 N1 1_555 1_555
C11 C12 1_555 1_555
C17 C18 1_555 1_555
C18 N1 1_555 1_555
C19 O2 1_555 1_555
O6 In3 1_555 1_555
H5_2 C9_2 1_555 1_555
C10_2 C9_2 1_555 1_555
C11_2 C10_2 1_555 1_555
H6_2 C11_2 1_555 1_555
H7_2 C14_2 1_555 1_555
C21_2 C10_2 1_555 1_555
O5_2 C21_2 1_555 1_555
O6_2 C21_2 1_555 1_555
O7_2 C22_2 1_555 1_555
In4 O5_2 1_555 1_555
In3 O7_2 1_555 1_555
C11_2 C12_2 1_555 1_555
O6_2 In4 1_555 1_555
In1_2 O1_2 1_555 1_555
C1_2 C2_2 1_555 1_555
C2_2 H1_2 1_555 1_555
C3_2 C2_2 1_555 1_555
C4_2 C3_2 1_555 1_555
H2_2 C4_2 1_555 1_555
C5_2 C4_2 1_555 1_555
C6_2 C1_2 1_555 1_555
H3_2 C6_2 1_555 1_555
C7_2 C8_2 1_555 1_555
C8_2 H4_2 1_555 1_555
C16_2 C15_2 1_555 1_555
H8_2 C16_2 1_555 1_555
C17_2 C16_2 1_555 1_555
H9_2 C17_2 1_555 1_555
C18_2 C13_2 1_555 1_555
C19_2 C1_2 1_555 1_555
C20_2 C3_2 1_555 1_555
N1_2 C5_2 1_555 1_555
O1_2 C19_2 1_555 1_555
O2_2 In1_2 1_555 1_555
O3_2 C20_2 1_555 1_555
O4_2 C20_2 1_555 1_555
In4 O3_2 1_555 1_555
O14_2 In1_2 1_555 1_555
C5_2 C6_2 1_555 1_555
C7_2 N1_2 1_555 1_555
C17_2 C18_2 1_555 1_555
C18_2 N1_2 1_555 1_555
C19_2 O2_2 1_555 1_555
O4_2 In4 1_555 1_555
In3 O1_3 1_555 1_555
C1_3 C2_3 1_555 1_555
C2_3 H1_3 1_555 1_555
C3_3 C2_3 1_555 1_555
C4_3 C3_3 1_555 1_555
H2_3 C4_3 1_555 1_555
C5_3 C4_3 1_555 1_555
C6_3 C1_3 1_555 1_555
H3_3 C6_3 1_555 1_555
C7_3 C8_3 1_555 1_555
C8_3 H4_3 1_555 1_555
C9_3 C8_3 1_555 1_555
H5_3 C9_3 1_555 1_555
C10_3 C9_3 1_555 1_555
C11_3 C10_3 1_555 1_555
H6_3 C11_3 1_555 1_555
C12_3 C7_3 1_555 1_555
C13_3 C12_3 1_555 1_555
C14_3 C13_3 1_555 1_555
H7_3 C14_3 1_555 1_555
C15_3 C14_3 1_555 1_555
C16_3 C15_3 1_555 1_555
H8_3 C16_3 1_555 1_555
C17_3 C16_3 1_555 1_555
H9_3 C17_3 1_555 1_555
C18_3 C13_3 1_555 1_555
C19_3 C1_3 1_555 1_555
C20_3 C3_3 1_555 1_555
C21_3 C10_3 1_555 1_555
C22_3 C15_3 1_555 1_555
N1_3 C5_3 1_555 1_555
O1_3 C19_3 1_555 1_555
O2_3 In3 1_555 1_555
O10 C20_3 1_555 1_555
O11 C21_3 1_555 1_555
O12 C21_3 1_555 1_555
O14_2 C22_3 1_555 1_555
C5_3 C6_3 1_555 1_555
C7_3 N1_3 1_555 1_555
C11_3 C12_3 1_555 1_555
C17_3 C18_3 1_555 1_555
C18_3 N1_3 1_555 1_555
C19_3 O2_3 1_555 1_555
In4 O1_4 1_555 1_555
C1_4 C2_4 1_555 1_555
C2_4 H1_4 1_555 1_555
C3_4 C2_4 1_555 1_555
C4_4 C3_4 1_555 1_555
H2_4 C4_4 1_555 1_555
C5_4 C4_4 1_555 1_555
C6_4 C1_4 1_555 1_555
H3_4 C6_4 1_555 1_555
C7_4 C8_4 1_555 1_555
C8_4 H4_4 1_555 1_555
C17_4 C16_4 1_555 1_555
H9_4 C17_4 1_555 1_555
C18_4 C13_4 1_555 1_555
C19_4 C1_4 1_555 1_555
C20_4 C3_4 1_555 1_555
N1_4 C5_4 1_555 1_555
O1_4 C19_4 1_555 1_555
O2_4 In4 1_555 1_555
O9_2 C20_4 1_555 1_555
O10_2 C20_4 1_555 1_555
C5_4 C6_4 1_555 1_555
C7_4 N1_4 1_555 1_555
C17_4 C18_4 1_555 1_555
C18_4 N1_4 1_555 1_555
C19_4 O2_4 1_555 1_555
H5_4 C9_4 1_555 1_555
C10_4 C9_4 1_555 1_555
C11_4 C10_4 1_555 1_555
H6_4 C11_4 1_555 1_555
H7_4 C14_4 1_555 1_555
C21_4 C10_4 1_555 1_555
O11_2 C21_4 1_555 1_555
O12_2 C21_4 1_555 1_555
C11_4 C12_4 1_555 1_555
C23 N2 1_555 1_555
C24 N2 1_555 1_555
C24 H10 1_555 1_555
C24 H11 1_555 1_555
C24 H12 1_555 1_555
N2 H15 1_555 1_555
N2 H16 1_555 1_555
C23 H20 1_555 1_555
C23 H21 1_555 1_555
C23 H22 1_555 1_555
C23_2 N2_2 1_555 1_555
C24_2 N2_2 1_555 1_555
C24_2 H10_2 1_555 1_555
C24_2 H11_2 1_555 1_555
C24_2 H12_2 1_555 1_555
N2_2 H15_2 1_555 1_555
N2_2 H16_2 1_555 1_555
C23_2 H20_2 1_555 1_555
C23_2 H21_2 1_555 1_555
C23_2 H22_2 1_555 1_555
C23_3 N2_3 1_555 1_555
C24_3 N2_3 1_555 1_555
C24_3 H10_3 1_555 1_555
C24_3 H11_3 1_555 1_555
C24_3 H12_3 1_555 1_555
N2_3 H15_3 1_555 1_555
N2_3 H16_3 1_555 1_555
C23_3 H20_3 1_555 1_555
C23_3 H21_3 1_555 1_555
C23_3 H22_3 1_555 1_555
C23_4 N2_4 1_555 1_555
C24_4 N2_4 1_555 1_555
C24_4 H10_4 1_555 1_555
C24_4 H11_4 1_555 1_555
C24_4 H12_4 1_555 1_555
N2_4 H15_4 1_555 1_555
N2_4 H16_4 1_555 1_555
C23_4 H20_4 1_555 1_555
C23_4 H21_4 1_555 1_555
C23_4 H22_4 1_555 1_555
C26 N3 1_555 1_555
N3 H13 1_555 1_555
N3 H14 1_555 1_555
C26 H17 1_555 1_555
C26 H18 1_555 1_555
C26 H19 1_555 1_555
C25 H24 1_555 1_555
C25 H25 1_555 1_555
C25_2 N3_2 1_555 1_555
C26_2 N3_2 1_555 1_555
N3_2 H13_2 1_555 1_555
N3_2 H14_2 1_555 1_555
C26_2 H17_2 1_555 1_555
C26_2 H18_2 1_555 1_555
C26_2 H19_2 1_555 1_555
C25_2 H23_2 1_555 1_555
C25_2 H24_2 1_555 1_555
C25_2 H25_2 1_555 1_555
C25_3 H24_3 1_555 1_555
C25_3 H25_3 1_555 1_555
C26_3 N3_3 1_555 1_555
N3_3 H13_3 1_555 1_555
N3_3 H14_3 1_555 1_555
C26_3 H17_3 1_555 1_555
C26_3 H18_3 1_555 1_555
C26_3 H19_3 1_555 1_555
C25_4 N3_4 1_555 1_555
C26_4 N3_4 1_555 1_555
N3_4 H13_4 1_555 1_555
N3_4 H14_4 1_555 1_555
C26_4 H17_4 1_555 1_555
C26_4 H18_4 1_555 1_555
C26_4 H19_4 1_555 1_555
C25_4 H23_4 1_555 1_555
C25_4 H24_4 1_555 1_555
C25_4 H25_4 1_555 1_555

#END
