
###############################################################################
#
# This file contains modified crystal structure data generated from the
# MOF subset of the Cambridge Structural Database (CSD) v543 
# hosted by the Cambridge Crystallographic Data Centre (CCDC).
#
# This work is licensed under the Creative Commons
# Attribution-NonCommercial-ShareAlike 4.0 International License.
# To view a copy of this license, visit
# http://creativecommons.org/licenses/by-nc-sa/4.0/
# or send a letter to
# Creative Commons, PO Box 1866, Mountain View, CA 94042, USA.
#
# CIF created using the CSD Python API on 29 September 2022
# The structure has been converted into the P1 space group
# The structure has a 3D framework
# The original CSD entry XAKCUK is in the tetragonal crystal system
# The framework has been calculated to contain at least 10.0% void space
# The void calculation uses a probe of radius 1.32A, grid spacing 0.4
#
###############################################################################

data_XAKCUK
_chemical_formula_moiety         '(C230 H304 N48 Ni18 O32)n'
_symmetry_cell_setting           triclinic
_symmetry_space_group_name_H-M   'P 1'
_symmetry_Int_Tables_number      1
_space_group_name_Hall           'P 1'
loop_
_symmetry_equiv_pos_site_id
_symmetry_equiv_pos_as_xyz
1 x,y,z
_cell_length_a                   27.286(7)
_cell_length_b                   27.286(7)
_cell_length_c                   8.343(3)
_cell_angle_alpha                90
_cell_angle_beta                 90
_cell_angle_gamma                90
_cell_volume                     6211.58
loop_
_atom_site_label
_atom_site_type_symbol
_atom_site_fract_x
_atom_site_fract_y
_atom_site_fract_z
O5 O 0.18480(17) 0.2614(3) 0.1228(8)
O6 O 0.1896(2) 0.3369(3) 0.0093(10)
C35 C 0.1691(3) 0.2945(5) 0.0322(13)
H42 H 0.1048 0.2182 0.0337
Ni4 Ni 0.2500 0.2500 0.2500
O7 O 0.81520(17) 0.2386(3) 0.1228(8)
O8 O 0.8104(2) 0.1631(3) 0.0093(10)
C42 C 0.8309(3) 0.2055(5) 0.0322(13)
H46 H 0.8952 0.2818 0.0337
Ni3 Ni 0.7500 0.2500 0.2500
N1 N 0.7887(3) 0.2424(4) 0.4627(11)
C1 C 0.8404(4) 0.2170(5) 0.4529(17)
H1 H 0.8606 0.2342 0.3754
H2 H 0.8564 0.2192 0.5564
C2 C 0.7625(5) 0.2100(6) 0.5650(17)
H3 H 0.7810 0.2082 0.6639
H4 H 0.7319 0.2264 0.5910
O1 O 0.68480(17) 0.2614(3) 0.3772(8)
O2 O 0.6896(2) 0.3369(3) 0.4907(10)
C3 C 0.54333(16) 0.26427(18) 0.7610(7)
C4 C 0.5000 0.2500 0.8750
C5 C 0.56699(18) 0.3078(2) 0.7669(9)
H5 H 0.5566 0.3317 0.8387
N2 N 0.7296(2) 0.1772(3) 0.2421(9)
H6 H 0.7574 0.1587 0.1991
C6 C 0.5573(2) 0.2314(2) 0.6424(9)
H7 H 0.5400 0.2023 0.6302
C7 C 0.6218(2) 0.2847(3) 0.5572(12)
C8 C 0.6067(2) 0.3171(2) 0.6664(12)
H8 H 0.6233 0.3467 0.6758
C9 C 0.6691(3) 0.2945(5) 0.4678(13)
C10 C 0.5958(2) 0.2410(3) 0.5436(10)
H9 H 0.6048 0.2182 0.4663
N3 N 0.7506(4) 0.1634(6) 0.5259(15)
C11 C 0.7165(4) 0.1549(5) 0.4031(16)
H10 H 0.6850 0.1678 0.4366
H11 H 0.7128 0.1198 0.3896
C12 C 0.8363(4) 0.1653(6) 0.406(2)
H12 H 0.8682 0.1500 0.4172
H13 H 0.8272 0.1637 0.2938
C14 C 0.6883(3) 0.1740(4) 0.1198(16)
H16 H 0.6860 0.1411 0.0766
H17 H 0.6572 0.1823 0.1694
C15 C 0.7993(6) 0.1358(6) 0.503(2)
H18 H 0.8131 0.1283 0.6067
H19 H 0.7929 0.1051 0.4480
N4 N 0.7113(3) 0.2576(4) 0.0373(11)
C16 C 0.6596(4) 0.2830(5) 0.0471(17)
H20 H 0.6394 0.2658 0.1246
N5 N 0.7704(2) 0.3228(3) 0.2579(9)
H24 H 0.7426 0.3413 0.3009
C18 C 0.7835(4) 0.3451(5) 0.0969(16)
H25 H 0.8150 0.3322 0.0634
H26 H 0.7872 0.3802 0.1104
C19 C 0.6637(4) 0.3347(6) 0.094(2)
H27 H 0.6318 0.3500 0.0828
H28 H 0.6728 0.3363 0.2062
C20 C 0.7998(4) 0.2900(6) 0.5111(13)
H29 H 0.7721 0.3027 0.5712
H30 H 0.8275 0.2885 0.5838
C21 C 0.8117(3) 0.3260(4) 0.3802(16)
H31 H 0.8140 0.3589 0.4234
H32 H 0.8428 0.3177 0.3306
H34 H 0.7071 0.3949 0.0520
O3 O 0.31520(17) 0.2386(3) 0.3772(8)
O4 O 0.3104(2) 0.1631(3) 0.4907(10)
C23 C 0.45667(16) 0.23573(18) 0.7610(7)
C24 C 0.43301(18) 0.1922(2) 0.7669(9)
H35 H 0.4434 0.1683 0.8387
C25 C 0.4427(2) 0.2686(2) 0.6424(9)
H36 H 0.4600 0.2977 0.6302
C26 C 0.3782(2) 0.2153(3) 0.5572(12)
C27 C 0.3933(2) 0.1829(2) 0.6664(12)
H37 H 0.3767 0.1533 0.6758
C28 C 0.3309(3) 0.2055(5) 0.4678(13)
C29 C 0.4042(2) 0.2590(3) 0.5436(10)
H38 H 0.3952 0.2818 0.4663
C30 C 0.48573(18) 0.29333(16) 0.9890(7)
C31 C 0.4422(2) 0.31699(18) 0.9831(9)
H39 H 0.4183 0.3066 0.9113
C37 C 0.51427(18) 0.20667(16) 0.9890(7)
C38 C 0.5578(2) 0.18301(18) 0.9831(9)
H43 H 0.5817 0.1934 0.9113
N7 N 0.2113(3) 0.2576(4) 0.4627(11)
C44 C 0.1596(4) 0.2830(5) 0.4529(17)
H47 H 0.1394 0.2658 0.3754
H48 H 0.1436 0.2808 0.5564
C45 C 0.2375(5) 0.2900(6) 0.5650(17)
H49 H 0.2190 0.2918 0.6639
H50 H 0.2681 0.2736 0.5910
N8 N 0.2704(2) 0.3228(3) 0.2421(9)
H51 H 0.2426 0.3413 0.1991
N9 N 0.2494(4) 0.3366(6) 0.5259(15)
C46 C 0.2835(4) 0.3451(5) 0.4031(16)
H52 H 0.3150 0.3322 0.4366
H53 H 0.2872 0.3802 0.3896
C47 C 0.1637(4) 0.3347(6) 0.406(2)
H54 H 0.1318 0.3500 0.4172
H55 H 0.1728 0.3363 0.2938
C49 C 0.3117(3) 0.3260(4) 0.1198(16)
H58 H 0.3140 0.3589 0.0766
H59 H 0.3428 0.3177 0.1694
C50 C 0.2007(6) 0.3642(6) 0.503(2)
H60 H 0.1869 0.3717 0.6067
H61 H 0.2071 0.3949 0.4480
N10 N 0.2887(3) 0.2424(4) 0.0373(11)
C51 C 0.3404(4) 0.2170(5) 0.0471(17)
H62 H 0.3606 0.2342 0.1246
N11 N 0.2296(2) 0.1772(3) 0.2579(9)
H66 H 0.2574 0.1587 0.3009
C53 C 0.2165(4) 0.1549(5) 0.0969(16)
H67 H 0.1850 0.1678 0.0634
H68 H 0.2128 0.1198 0.1104
C54 C 0.3363(4) 0.1653(6) 0.094(2)
H69 H 0.3682 0.1500 0.0828
H70 H 0.3272 0.1637 0.2062
C55 C 0.2002(4) 0.2100(6) 0.5111(13)
H71 H 0.2279 0.1973 0.5712
H72 H 0.1725 0.2115 0.5838
C56 C 0.1883(3) 0.1740(4) 0.3802(16)
H73 H 0.1860 0.1411 0.4234
H74 H 0.1572 0.1823 0.3306
H76 H 0.2929 0.1051 0.0520
Ni1 Ni -0.0000 0.0000 0.0000
O1_2 O 0.0114(3) 0.06520(17) 0.1272(8)
O2_2 O 0.0869(3) 0.0604(2) 0.2407(10)
C3_2 C 0.01427(18) 0.20667(16) 0.5110(7)
C4_2 C -0.0000 0.2500 0.6250
C5_2 C 0.0578(2) 0.18301(18) 0.5169(9)
H5_2 H 0.0817 0.1934 0.5887
C7_2 C 0.0347(3) 0.1282(2) 0.3072(12)
C8_2 C 0.0671(2) 0.1433(2) 0.4164(12)
H8_2 H 0.0967 0.1267 0.4258
C9_2 C 0.0445(5) 0.0809(3) 0.2178(13)
H24_2 H 0.0913 0.0074 0.0509
C25_2 C 0.0186(2) 0.3073(2) 0.3924(9)
H36_2 H 0.0477 0.2900 0.3802
C29_2 C 0.0090(3) 0.3458(2) 0.2936(10)
H38_2 H 0.0318 0.3548 0.2163
C30_2 C 0.04333(16) 0.26427(18) 0.7390(7)
C31_2 C 0.06699(18) 0.3078(2) 0.7331(9)
H39_2 H 0.0566 0.3317 0.6613
C32 C 0.0573(2) 0.2314(2) 0.8576(9)
H40 H 0.0400 0.2023 0.8698
C33 C 0.1218(2) 0.2847(3) 0.9428(12)
C34 C 0.1067(2) 0.3171(2) 0.8336(12)
H41 H 0.1233 0.3467 0.8242
C36 C 0.0958(2) 0.2410(3) 0.9564(10)
N7_2 N 0.0076(4) 0.5387(3) 0.2127(11)
C44_2 C 0.0330(5) 0.5904(4) 0.2029(17)
H47_2 H 0.0158 0.6106 0.1254
H48_2 H 0.0308 0.6064 0.3064
C45_2 C 0.0400(6) 0.5125(5) 0.3150(17)
H49_2 H 0.0418 0.5310 0.4139
H50_2 H 0.0236 0.4819 0.3410
Ni2 Ni -0.0000 0.5000 0.0000
N9_2 N 0.0866(6) 0.5006(4) 0.2759(15)
C46_2 C 0.0951(5) 0.4665(4) 0.1531(16)
H52_2 H 0.0822 0.4350 0.1866
H53_2 H 0.1302 0.4628 0.1396
C47_2 C 0.0847(6) 0.5863(4) 0.156(2)
H54_2 H 0.1000 0.6182 0.1672
H55_2 H 0.0863 0.5772 0.0438
C50_2 C 0.1142(6) 0.5493(6) 0.253(2)
H60_2 H 0.1217 0.5631 0.3567
H61_2 H 0.1449 0.5429 0.1980
Ni1_2 Ni -0.0000 1.0000 0.0000
N5_2 N 0.0728(3) 0.9796(2) 0.0079(9)
C20_2 C 0.0400(6) 0.9502(4) 0.2611(13)
H29_2 H 0.0527 0.9779 0.3212
H30_2 H 0.0385 0.9225 0.3338
C21_2 C 0.0760(4) 0.9383(3) 0.1302(16)
H31_2 H 0.1089 0.9360 0.1734
H32_2 H 0.0677 0.9072 0.0806
H4_2 H 0.9764 0.0181 0.3410
Ni1_3 Ni 1.0000 0.0000 0.0000
C4_3 C 1.0000 0.2500 0.6250
C6_2 C 0.9814(2) 0.1927(2) 0.3924(9)
H7_2 H 0.9523 0.2100 0.3802
C10_2 C 0.9910(3) 0.1542(2) 0.2936(10)
H9_2 H 0.9682 0.1452 0.2163
C11_2 C 0.9049(5) 0.0335(4) 0.1531(16)
H10_2 H 0.9178 0.0650 0.1866
H11_2 H 0.8698 0.0372 0.1396
O3_2 O 0.9886(3) 0.43480(17) 0.1272(8)
O4_2 O 0.9131(3) 0.4396(2) 0.2407(10)
C23_2 C 0.98573(18) 0.29333(16) 0.5110(7)
C24_2 C 0.9422(2) 0.31699(18) 0.5169(9)
H35_2 H 0.9183 0.3066 0.5887
C26_2 C 0.9653(3) 0.3718(2) 0.3072(12)
C27_2 C 0.9329(2) 0.3567(2) 0.4164(12)
H37_2 H 0.9033 0.3733 0.4258
C28_2 C 0.9555(5) 0.4191(3) 0.2178(13)
C37_2 C 0.95667(16) 0.23573(18) 0.7390(7)
C38_2 C 0.93301(18) 0.1922(2) 0.7331(9)
H43_2 H 0.9434 0.1683 0.6613
C39 C 0.9427(2) 0.2686(2) 0.8576(9)
H44 H 0.9600 0.2977 0.8698
C40 C 0.8782(2) 0.2153(3) 0.9428(12)
C41 C 0.8933(2) 0.1829(2) 0.8336(12)
H45 H 0.8767 0.1533 0.8242
C43 C 0.9042(2) 0.2590(3) 0.9564(10)
Ni2_2 Ni 1.0000 0.5000 0.0000
N11_2 N 0.9272(3) 0.5204(2) 0.0079(9)
H66_2 H 0.9087 0.4926 0.0509
C55_2 C 0.9600(6) 0.5498(4) 0.2611(13)
H71_2 H 0.9473 0.5221 0.3212
H72_2 H 0.9615 0.5775 0.3338
C56_2 C 0.9240(4) 0.5617(3) 0.1302(16)
H73_2 H 0.8911 0.5640 0.1734
H74_2 H 0.9323 0.5928 0.0806
N1_2 N 0.9924(4) 0.9613(3) 0.2127(11)
C1_2 C 0.9670(5) 0.9096(4) 0.2029(17)
H1_2 H 0.9842 0.8894 0.1254
H2_2 H 0.9692 0.8936 0.3064
C2_2 C 0.9600(6) 0.9875(5) 0.3150(17)
H3_2 H 0.9582 0.9690 0.4139
Ni1_4 Ni 1.0000 1.0000 0.0000
N3_2 N 0.9134(6) 0.9994(4) 0.2759(15)
C12_2 C 0.9153(6) 0.9137(4) 0.156(2)
H12_2 H 0.9000 0.8818 0.1672
H13_2 H 0.9137 0.9228 0.0438
C15_2 C 0.8858(6) 0.9507(6) 0.253(2)
H18_2 H 0.8783 0.9369 0.3567
H19_2 H 0.8551 0.9571 0.1980
C13 C 0.7002(4) 0.2100(6) 0.9889(13)
H14 H 0.7279 0.1973 0.9288
H15 H 0.6725 0.2115 0.9162
H21 H 0.6436 0.2808 0.9436
C17 C 0.7375(5) 0.2900(6) 0.9350(17)
H22 H 0.7190 0.2918 0.8361
H23 H 0.7681 0.2736 0.9090
N6 N 0.7494(4) 0.3366(6) 0.9741(15)
C22 C 0.7007(6) 0.3642(6) 0.997(2)
H33 H 0.6869 0.3717 0.8933
C48 C 0.2998(4) 0.2900(6) 0.9889(13)
H56 H 0.2721 0.3027 0.9288
H57 H 0.3275 0.2885 0.9162
H63 H 0.3564 0.2192 0.9436
C52 C 0.2625(5) 0.2100(6) 0.9350(17)
H64 H 0.2810 0.2082 0.8361
H65 H 0.2319 0.2264 0.9090
N12 N 0.2506(4) 0.1634(6) 0.9741(15)
C57 C 0.2993(6) 0.1358(6) 0.997(2)
H75 H 0.3131 0.1283 0.8933
Ni1_5 Ni -0.0000 -0.0000 1.0000
N4_2 N 0.0076(4) 0.0387(3) 0.7873(11)
C16_2 C 0.0330(5) 0.0904(4) 0.7971(17)
H20_2 H 0.0158 0.1106 0.8746
H21_2 H 0.0308 0.1064 0.6936
C17_2 C 0.0400(6) 0.0125(5) 0.6850(17)
H22_2 H 0.0418 0.0310 0.5861
N6_2 N 0.0866(6) 0.0006(4) 0.7241(15)
C19_2 C 0.0847(6) 0.0863(4) 0.844(2)
H27_2 H 0.1000 0.1182 0.8328
H28_2 H 0.0863 0.0772 0.9562
C22_2 C 0.1142(6) 0.0493(6) 0.747(2)
H33_2 H 0.1217 0.0631 0.6433
H34_2 H 0.1449 0.0429 0.8020
Ni2_3 Ni -0.0000 0.5000 1.0000
N8_2 N 0.0728(3) 0.4796(2) 0.9921(9)
H51_2 H 0.0913 0.5074 0.9491
C48_2 C 0.0400(6) 0.4502(4) 0.7389(13)
H56_2 H 0.0527 0.4779 0.6788
H57_2 H 0.0385 0.4225 0.6662
C49_2 C 0.0760(4) 0.4383(3) 0.8698(16)
H58_2 H 0.1089 0.4360 0.8266
H59_2 H 0.0677 0.4072 0.9194
O10 O 0.0114(3) 0.56520(17) 0.8728(8)
Ni1_6 Ni -0.0000 1.0000 1.0000
H23_2 H 0.0236 0.9819 0.6590
C18_2 C 0.0951(5) 0.9665(4) 0.8469(16)
H25_2 H 0.0822 0.9350 0.8134
H26_2 H 0.1302 0.9628 0.8604
Ni1_7 Ni 1.0000 -0.0000 1.0000
N2_2 N 0.9272(3) 0.0204(2) 0.9921(9)
C13_2 C 0.9600(6) 0.0498(4) 0.7389(13)
H14_2 H 0.9473 0.0221 0.6788
H15_2 H 0.9615 0.0775 0.6662
C14_2 C 0.9240(4) 0.0617(3) 0.8698(16)
H16_2 H 0.8911 0.0640 0.8266
H17_2 H 0.9323 0.0928 0.9194
Ni2_4 Ni 1.0000 0.5000 1.0000
N10_2 N 0.9924(4) 0.4613(3) 0.7873(11)
C51_2 C 0.9670(5) 0.4096(4) 0.7971(17)
H62_2 H 0.9842 0.3894 0.8746
H63_2 H 0.9692 0.3936 0.6936
C52_2 C 0.9600(6) 0.4875(5) 0.6850(17)
H64_2 H 0.9582 0.4690 0.5861
H65_2 H 0.9764 0.5181 0.6590
N12_2 N 0.9134(6) 0.4994(4) 0.7241(15)
C53_2 C 0.9049(5) 0.5335(4) 0.8469(16)
H67_2 H 0.9178 0.5650 0.8134
H68_2 H 0.8698 0.5372 0.8604
C54_2 C 0.9153(6) 0.4137(4) 0.844(2)
H69_2 H 0.9000 0.3818 0.8328
H70_2 H 0.9137 0.4228 0.9562
C57_2 C 0.8858(6) 0.4507(6) 0.747(2)
H75_2 H 0.8783 0.4369 0.6433
H76_2 H 0.8551 0.4571 0.8020
Ni1_8 Ni 1.0000 1.0000 1.0000
H6_2 H 0.9087 0.9926 0.9491
O9 O 0.9886(3) 0.93480(17) 0.8728(8)
C4_4 C -0.0000 0.7500 0.3750
C23_3 C 0.04333(16) 0.76427(18) 0.2610(7)
C24_3 C 0.06699(18) 0.8078(2) 0.2669(9)
H35_3 H 0.0566 0.8317 0.3387
C25_3 C 0.0573(2) 0.7314(2) 0.1424(9)
H36_3 H 0.0400 0.7023 0.1302
C26_3 C 0.1218(2) 0.7847(3) 0.0572(12)
C27_3 C 0.1067(2) 0.8171(2) 0.1664(12)
H37_3 H 0.1233 0.8467 0.1758
C29_3 C 0.0958(2) 0.7410(3) 0.0436(10)
O6_2 O 0.0869(3) 0.5604(2) 0.7593(10)
C30_3 C 0.01427(18) 0.70667(16) 0.4890(7)
C31_3 C 0.0578(2) 0.68301(18) 0.4831(9)
H39_3 H 0.0817 0.6934 0.4113
C33_2 C 0.0347(3) 0.6282(2) 0.6928(12)
C34_2 C 0.0671(2) 0.6433(2) 0.5836(12)
H41_2 H 0.0967 0.6267 0.5742
C35_2 C 0.0445(5) 0.5809(3) 0.7822(13)
C39_2 C 0.0186(2) 0.8073(2) 0.6076(9)
H44_2 H 0.0477 0.7900 0.6198
C43_2 C 0.0090(3) 0.8458(2) 0.7064(10)
H46_2 H 0.0318 0.8548 0.7837
H48_3 H 0.3564 0.7192 0.0564
C45_3 C 0.2625(5) 0.7100(6) 0.0650(17)
H49_3 H 0.2810 0.7082 0.1639
H50_3 H 0.2319 0.7264 0.0910
N9_3 N 0.2506(4) 0.6634(6) 0.0259(15)
C50_3 C 0.2993(6) 0.6358(6) 0.003(2)
H60_3 H 0.3131 0.6283 0.1067
C55_3 C 0.2998(4) 0.7900(6) 0.0111(13)
H71_3 H 0.2721 0.8027 0.0712
H72_3 H 0.3275 0.7885 0.0838
H2_3 H 0.6436 0.7808 0.0564
C2_3 C 0.7375(5) 0.7900(6) 0.0650(17)
H3_3 H 0.7190 0.7918 0.1639
H4_3 H 0.7681 0.7736 0.0910
C3_3 C 0.95667(16) 0.73573(18) 0.2610(7)
C4_5 C 1.0000 0.7500 0.3750
C5_3 C 0.93301(18) 0.6922(2) 0.2669(9)
H5_3 H 0.9434 0.6683 0.3387
C6_3 C 0.9427(2) 0.7686(2) 0.1424(9)
H7_3 H 0.9600 0.7977 0.1302
C7_3 C 0.8782(2) 0.7153(3) 0.0572(12)
C8_3 C 0.8933(2) 0.6829(2) 0.1664(12)
H8_3 H 0.8767 0.6533 0.1758
C10_3 C 0.9042(2) 0.7590(3) 0.0436(10)
N3_3 N 0.7494(4) 0.8366(6) 0.0259(15)
C15_3 C 0.7007(6) 0.8642(6) 0.003(2)
H18_3 H 0.6869 0.8717 0.1067
C20_3 C 0.7002(4) 0.7100(6) 0.0111(13)
H29_3 H 0.7279 0.6973 0.0712
H30_3 H 0.6725 0.7115 0.0838
C32_2 C 0.9814(2) 0.6927(2) 0.6076(9)
H40_2 H 0.9523 0.7100 0.6198
C36_2 C 0.9910(3) 0.6542(2) 0.7064(10)
H42_2 H 0.9682 0.6452 0.7837
O8_2 O 0.9131(3) 0.9396(2) 0.7593(10)
C37_3 C 0.98573(18) 0.79333(16) 0.4890(7)
C38_3 C 0.9422(2) 0.81699(18) 0.4831(9)
H43_3 H 0.9183 0.8066 0.4113
C40_2 C 0.9653(3) 0.8718(2) 0.6928(12)
C41_2 C 0.9329(2) 0.8567(2) 0.5836(12)
H45_2 H 0.9033 0.8733 0.5742
C42_2 C 0.9555(5) 0.9191(3) 0.7822(13)
O5_2 O 0.4886(3) 0.43480(17) 0.3728(8)
O6_3 O 0.4131(3) 0.4396(2) 0.2593(10)
C32_3 C 0.5186(2) 0.3073(2) 0.1076(9)
H40_3 H 0.5477 0.2900 0.1198
C33_3 C 0.4653(3) 0.3718(2) 0.1928(12)
C34_3 C 0.4329(2) 0.3567(2) 0.0836(12)
H41_3 H 0.4033 0.3733 0.0742
C35_3 C 0.4555(5) 0.4191(3) 0.2822(13)
C36_3 C 0.5090(3) 0.3458(2) 0.2064(10)
H42_3 H 0.5318 0.3548 0.2837
O7_2 O 0.5114(3) 0.06520(17) 0.3728(8)
O8_3 O 0.5869(3) 0.0604(2) 0.2593(10)
C39_3 C 0.4814(2) 0.1927(2) 0.1076(9)
H44_3 H 0.4523 0.2100 0.1198
C40_3 C 0.5347(3) 0.1282(2) 0.1928(12)
C41_3 C 0.5671(2) 0.1433(2) 0.0836(12)
H45_3 H 0.5967 0.1267 0.0742
C42_3 C 0.5445(5) 0.0809(3) 0.2822(13)
C43_3 C 0.4910(3) 0.1542(2) 0.2064(10)
H46_3 H 0.4682 0.1452 0.2837
Ni3_2 Ni 0.5000 -0.0000 0.5000
Ni4_2 Ni 0.5000 0.5000 0.5000
Ni3_3 Ni 0.5000 1.0000 0.5000
N1_3 N 0.5076(4) 0.0387(3) 0.7127(11)
C1_3 C 0.5330(5) 0.0904(4) 0.7029(17)
H1_3 H 0.5158 0.1106 0.6254
H2_4 H 0.5308 0.1064 0.8064
C2_4 C 0.5400(6) 0.0125(5) 0.8150(17)
H3_4 H 0.5418 0.0310 0.9139
H6_3 H 0.5913 0.0074 0.4491
N3_4 N 0.5866(6) 0.0006(4) 0.7759(15)
C12_3 C 0.5847(6) 0.0863(4) 0.656(2)
H12_3 H 0.6000 0.1182 0.6672
H13_3 H 0.5863 0.0772 0.5438
C15_4 C 0.6142(6) 0.0493(6) 0.753(2)
H18_4 H 0.6217 0.0631 0.8567
H19_3 H 0.6449 0.0429 0.6980
H23_3 H 0.4764 0.0181 0.1590
N5_3 N 0.4272(3) 0.0204(2) 0.5079(9)
C18_3 C 0.4049(5) 0.0335(4) 0.3469(16)
H25_3 H 0.4178 0.0650 0.3134
H26_3 H 0.3698 0.0372 0.3604
C20_4 C 0.4600(6) 0.0498(4) 0.7611(13)
H29_4 H 0.4473 0.0221 0.8212
H30_4 H 0.4615 0.0775 0.8338
C21_3 C 0.4240(4) 0.0617(3) 0.6302(16)
H31_3 H 0.3911 0.0640 0.6734
H32_3 H 0.4323 0.0928 0.5806
H4_4 H 0.5236 0.9819 0.8410
O1_3 O 0.4886(3) 0.93480(17) 0.6272(8)
O2_3 O 0.4131(3) 0.9396(2) 0.7407(10)
N2_3 N 0.5728(3) 0.9796(2) 0.4921(9)
C6_4 C 0.5186(2) 0.8073(2) 0.8924(9)
H7_4 H 0.5477 0.7900 0.8802
C7_4 C 0.4653(3) 0.8718(2) 0.8072(12)
C8_4 C 0.4329(2) 0.8567(2) 0.9164(12)
H8_4 H 0.4033 0.8733 0.9258
C9_3 C 0.4555(5) 0.9191(3) 0.7178(13)
C10_4 C 0.5090(3) 0.8458(2) 0.7936(10)
H9_3 H 0.5318 0.8548 0.7163
C11_3 C 0.5951(5) 0.9665(4) 0.6531(16)
H10_3 H 0.5822 0.9350 0.6866
H11_3 H 0.6302 0.9628 0.6396
C13_3 C 0.5400(6) 0.9502(4) 0.2389(13)
H14_3 H 0.5527 0.9779 0.1788
H15_3 H 0.5385 0.9225 0.1662
C14_3 C 0.5760(4) 0.9383(3) 0.3698(16)
H16_3 H 0.6089 0.9360 0.3266
H17_3 H 0.5677 0.9072 0.4194
N4_3 N 0.4924(4) 0.9613(3) 0.2873(11)
C16_3 C 0.4670(5) 0.9096(4) 0.2971(17)
H20_3 H 0.4842 0.8894 0.3746
H21_3 H 0.4692 0.8936 0.1936
C17_3 C 0.4600(6) 0.9875(5) 0.1850(17)
H22_3 H 0.4582 0.9690 0.0861
H24_3 H 0.4087 0.9926 0.5509
N6_3 N 0.4134(6) 0.9994(4) 0.2241(15)
C19_3 C 0.4153(6) 0.9137(4) 0.344(2)
H27_3 H 0.4000 0.8818 0.3328
H28_3 H 0.4137 0.9228 0.4562
C22_3 C 0.3858(6) 0.9507(6) 0.247(2)
H33_3 H 0.3783 0.9369 0.1433
H34_3 H 0.3551 0.9571 0.3020
O3_3 O 0.5114(3) 0.56520(17) 0.6272(8)
O4_3 O 0.5869(3) 0.5604(2) 0.7407(10)
C25_4 C 0.4814(2) 0.6927(2) 0.8924(9)
H36_4 H 0.4523 0.7100 0.8802
C26_4 C 0.5347(3) 0.6282(2) 0.8072(12)
C27_4 C 0.5671(2) 0.6433(2) 0.9164(12)
H37_4 H 0.5967 0.6267 0.9258
C28_3 C 0.5445(5) 0.5809(3) 0.7178(13)
C29_4 C 0.4910(3) 0.6542(2) 0.7936(10)
H38_3 H 0.4682 0.6452 0.7163
N7_3 N 0.4924(4) 0.4613(3) 0.7127(11)
C44_3 C 0.4670(5) 0.4096(4) 0.7029(17)
H47_3 H 0.4842 0.3894 0.6254
H48_4 H 0.4692 0.3936 0.8064
C45_4 C 0.4600(6) 0.4875(5) 0.8150(17)
H49_4 H 0.4582 0.4690 0.9139
H50_4 H 0.4764 0.5181 0.8410
N8_3 N 0.4272(3) 0.5204(2) 0.4921(9)
H51_3 H 0.4087 0.4926 0.4491
N9_4 N 0.4134(6) 0.4994(4) 0.7759(15)
C46_3 C 0.4049(5) 0.5335(4) 0.6531(16)
H52_3 H 0.4178 0.5650 0.6866
H53_3 H 0.3698 0.5372 0.6396
C47_3 C 0.4153(6) 0.4137(4) 0.656(2)
H54_3 H 0.4000 0.3818 0.6672
H55_3 H 0.4137 0.4228 0.5438
C48_3 C 0.4600(6) 0.5498(4) 0.2389(13)
H56_3 H 0.4473 0.5221 0.1788
H57_3 H 0.4615 0.5775 0.1662
C49_3 C 0.4240(4) 0.5617(3) 0.3698(16)
H58_3 H 0.3911 0.5640 0.3266
H59_3 H 0.4323 0.5928 0.4194
C50_4 C 0.3858(6) 0.4507(6) 0.753(2)
H60_4 H 0.3783 0.4369 0.8567
H61_3 H 0.3551 0.4571 0.6980
N10_3 N 0.5076(4) 0.5387(3) 0.2873(11)
C51_3 C 0.5330(5) 0.5904(4) 0.2971(17)
H62_3 H 0.5158 0.6106 0.3746
H63_3 H 0.5308 0.6064 0.1936
C52_3 C 0.5400(6) 0.5125(5) 0.1850(17)
H64_3 H 0.5418 0.5310 0.0861
H65_3 H 0.5236 0.4819 0.1590
N11_3 N 0.5728(3) 0.4796(2) 0.5079(9)
H66_3 H 0.5913 0.5074 0.5509
N12_3 N 0.5866(6) 0.5006(4) 0.2241(15)
C53_3 C 0.5951(5) 0.4665(4) 0.3469(16)
H67_3 H 0.5822 0.4350 0.3134
H68_3 H 0.6302 0.4628 0.3604
C54_3 C 0.5847(6) 0.5863(4) 0.344(2)
H69_3 H 0.6000 0.6182 0.3328
H70_3 H 0.5863 0.5772 0.4562
C55_4 C 0.5400(6) 0.4502(4) 0.7611(13)
H71_4 H 0.5527 0.4779 0.8212
H72_4 H 0.5385 0.4225 0.8338
C56_3 C 0.5760(4) 0.4383(3) 0.6302(16)
H73_3 H 0.6089 0.4360 0.6734
H74_3 H 0.5677 0.4072 0.5806
C57_3 C 0.6142(6) 0.5493(6) 0.247(2)
H75_3 H 0.6217 0.5631 0.1433
H76_3 H 0.6449 0.5429 0.3020
C3_4 C 0.48573(18) 0.79333(16) 0.0110(7)
C4_6 C 0.5000 0.7500 0.1250
C5_4 C 0.4422(2) 0.81699(18) 0.0169(9)
H5_4 H 0.4183 0.8066 0.0887
C23_4 C 0.51427(18) 0.70667(16) 0.0110(7)
C24_4 C 0.5578(2) 0.68301(18) 0.0169(9)
H35_4 H 0.5817 0.6934 0.0887
O5_3 O 0.31520(17) 0.7386(3) 0.6228(8)
O6_4 O 0.3104(2) 0.6631(3) 0.5093(10)
C30_4 C 0.45667(16) 0.73573(18) 0.2390(7)
C31_4 C 0.43301(18) 0.6922(2) 0.2331(9)
H39_4 H 0.4434 0.6683 0.1613
C32_4 C 0.4427(2) 0.7686(2) 0.3576(9)
H40_4 H 0.4600 0.7977 0.3698
C33_4 C 0.3782(2) 0.7153(3) 0.4428(12)
C34_4 C 0.3933(2) 0.6829(2) 0.3336(12)
H41_4 H 0.3767 0.6533 0.3242
C35_4 C 0.3309(3) 0.7055(5) 0.5322(13)
C36_4 C 0.4042(2) 0.7590(3) 0.4564(10)
H42_4 H 0.3952 0.7818 0.5337
O7_3 O 0.68480(17) 0.7614(3) 0.6228(8)
O8_4 O 0.6896(2) 0.8369(3) 0.5093(10)
C37_4 C 0.54333(16) 0.76427(18) 0.2390(7)
C38_4 C 0.56699(18) 0.8078(2) 0.2331(9)
H43_4 H 0.5566 0.8317 0.1613
C39_4 C 0.5573(2) 0.7314(2) 0.3576(9)
H44_4 H 0.5400 0.7023 0.3698
C40_4 C 0.6218(2) 0.7847(3) 0.4428(12)
C41_4 C 0.6067(2) 0.8171(2) 0.3336(12)
H45_4 H 0.6233 0.8467 0.3242
C42_4 C 0.6691(3) 0.7945(5) 0.5322(13)
C43_4 C 0.5958(2) 0.7410(3) 0.4564(10)
H46_4 H 0.6048 0.7182 0.5337
Ni3_4 Ni 0.7500 0.7500 0.7500
Ni4_3 Ni 0.2500 0.7500 0.7500
O3_4 O 0.18480(17) 0.7614(3) 0.8772(8)
O4_4 O 0.1896(2) 0.8369(3) 0.9907(10)
C28_4 C 0.1691(3) 0.7945(5) 0.9678(13)
H38_4 H 0.1048 0.7182 0.9663
N7_4 N 0.2887(3) 0.7424(4) 0.9627(11)
C44_4 C 0.3404(4) 0.7170(5) 0.9529(17)
H47_4 H 0.3606 0.7342 0.8754
N8_4 N 0.2296(2) 0.6772(3) 0.7421(9)
H51_4 H 0.2574 0.6587 0.6991
C46_4 C 0.2165(4) 0.6549(5) 0.9031(16)
H52_4 H 0.1850 0.6678 0.9366
H53_4 H 0.2128 0.6198 0.8896
C47_4 C 0.3363(4) 0.6653(6) 0.906(2)
H54_4 H 0.3682 0.6500 0.9172
H55_4 H 0.3272 0.6637 0.7938
C48_4 C 0.2002(4) 0.7100(6) 0.4889(13)
H56_4 H 0.2279 0.6973 0.4288
H57_4 H 0.1725 0.7115 0.4162
C49_4 C 0.1883(3) 0.6740(4) 0.6198(16)
H58_4 H 0.1860 0.6411 0.5766
H59_4 H 0.1572 0.6823 0.6694
H61_4 H 0.2929 0.6051 0.9480
N10_4 N 0.2113(3) 0.7576(4) 0.5373(11)
C51_4 C 0.1596(4) 0.7830(5) 0.5471(17)
H62_4 H 0.1394 0.7658 0.6246
H63_4 H 0.1436 0.7808 0.4436
C52_4 C 0.2375(5) 0.7900(6) 0.4350(17)
H64_4 H 0.2190 0.7918 0.3361
H65_4 H 0.2681 0.7736 0.4090
N11_4 N 0.2704(2) 0.8228(3) 0.7579(9)
H66_4 H 0.2426 0.8413 0.8009
N12_4 N 0.2494(4) 0.8366(6) 0.4741(15)
C53_4 C 0.2835(4) 0.8451(5) 0.5969(16)
H67_4 H 0.3150 0.8322 0.5634
H68_4 H 0.2872 0.8802 0.6104
C54_4 C 0.1637(4) 0.8347(6) 0.594(2)
H69_4 H 0.1318 0.8500 0.5828
H70_4 H 0.1728 0.8363 0.7062
C56_4 C 0.3117(3) 0.8260(4) 0.8802(16)
H73_4 H 0.3140 0.8589 0.9234
H74_4 H 0.3428 0.8177 0.8306
C57_4 C 0.2007(6) 0.8642(6) 0.497(2)
H75_4 H 0.1869 0.8717 0.3933
H76_4 H 0.2071 0.8949 0.5520
N1_4 N 0.7113(3) 0.7576(4) 0.9627(11)
C1_4 C 0.6596(4) 0.7830(5) 0.9529(17)
H1_4 H 0.6394 0.7658 0.8754
O1_4 O 0.81520(17) 0.7386(3) 0.8772(8)
O2_4 O 0.8104(2) 0.6631(3) 0.9907(10)
N2_4 N 0.7704(2) 0.8228(3) 0.7421(9)
H6_4 H 0.7426 0.8413 0.6991
C9_4 C 0.8309(3) 0.7055(5) 0.9678(13)
H9_4 H 0.8952 0.7818 0.9663
C11_4 C 0.7835(4) 0.8451(5) 0.9031(16)
H10_4 H 0.8150 0.8322 0.9366
H11_4 H 0.7872 0.8802 0.8896
C12_4 C 0.6637(4) 0.8347(6) 0.906(2)
H12_4 H 0.6318 0.8500 0.9172
H13_4 H 0.6728 0.8363 0.7938
C13_4 C 0.7998(4) 0.7900(6) 0.4889(13)
H14_4 H 0.7721 0.8027 0.4288
H15_4 H 0.8275 0.7885 0.4162
C14_4 C 0.8117(3) 0.8260(4) 0.6198(16)
H16_4 H 0.8140 0.8589 0.5766
H17_4 H 0.8428 0.8177 0.6694
H19_4 H 0.7071 0.8949 0.9480
N4_4 N 0.7887(3) 0.7424(4) 0.5373(11)
C16_4 C 0.8404(4) 0.7170(5) 0.5471(17)
H20_4 H 0.8606 0.7342 0.6246
H21_4 H 0.8564 0.7192 0.4436
C17_4 C 0.7625(5) 0.7100(6) 0.4350(17)
H22_4 H 0.7810 0.7082 0.3361
H23_4 H 0.7319 0.7264 0.4090
N5_4 N 0.7296(2) 0.6772(3) 0.7579(9)
H24_4 H 0.7574 0.6587 0.8009
N6_4 N 0.7506(4) 0.6634(6) 0.4741(15)
C18_4 C 0.7165(4) 0.6549(5) 0.5969(16)
H25_4 H 0.6850 0.6678 0.5634
H26_4 H 0.7128 0.6198 0.6104
C19_4 C 0.8363(4) 0.6653(6) 0.594(2)
H27_4 H 0.8682 0.6500 0.5828
H28_4 H 0.8272 0.6637 0.7062
C21_4 C 0.6883(3) 0.6740(4) 0.8802(16)
H31_4 H 0.6860 0.6411 0.9234
H32_4 H 0.6572 0.6823 0.8306
C22_4 C 0.7993(6) 0.6358(6) 0.497(2)
H33_4 H 0.8131 0.6283 0.3933
H34_4 H 0.7929 0.6051 0.5520
loop_
_geom_bond_atom_site_label_1
_geom_bond_atom_site_label_2
_geom_bond_site_symmetry_1
_geom_bond_site_symmetry_2
O5 C35 1_555 1_555
O6 C35 1_555 1_555
Ni4 O5 1_555 1_555
O7 C42 1_555 1_555
O8 C42 1_555 1_555
Ni3 O7 1_555 1_555
N1 C1 1_555 1_555
C1 H1 1_555 1_555
H2 C1 1_555 1_555
C2 N1 1_555 1_555
H3 C2 1_555 1_555
H4 C2 1_555 1_555
Ni3 N1 1_555 1_555
O1 Ni3 1_555 1_555
O2 C9 1_555 1_555
C3 C4 1_555 1_555
C4 C23 1_555 1_555
C5 C3 1_555 1_555
H5 C5 1_555 1_555
N2 Ni3 1_555 1_555
H6 N2 1_555 1_555
C6 C3 1_555 1_555
H7 C6 1_555 1_555
C7 C8 1_555 1_555
C8 C5 1_555 1_555
H8 C8 1_555 1_555
C9 O1 1_555 1_555
C10 C6 1_555 1_555
H9 C10 1_555 1_555
N3 C2 1_555 1_555
C11 N2 1_555 1_555
H10 C11 1_555 1_555
H11 C11 1_555 1_555
C12 C1 1_555 1_555
H12 C12 1_555 1_555
H13 C12 1_555 1_555
C14 N2 1_555 1_555
H16 C14 1_555 1_555
H17 C14 1_555 1_555
C15 N3 1_555 1_555
H18 C15 1_555 1_555
H19 C15 1_555 1_555
N4 Ni3 1_555 1_555
C16 N4 1_555 1_555
H20 C16 1_555 1_555
N5 Ni3 1_555 1_555
H24 N5 1_555 1_555
C18 N5 1_555 1_555
H25 C18 1_555 1_555
H26 C18 1_555 1_555
C19 C16 1_555 1_555
H27 C19 1_555 1_555
H28 C19 1_555 1_555
C20 N1 1_555 1_555
H29 C20 1_555 1_555
H30 C20 1_555 1_555
C21 N5 1_555 1_555
H31 C21 1_555 1_555
H32 C21 1_555 1_555
O3 C28 1_555 1_555
O4 C28 1_555 1_555
C23 C24 1_555 1_555
C24 H35 1_555 1_555
C25 C23 1_555 1_555
H36 C25 1_555 1_555
C26 C27 1_555 1_555
C27 C24 1_555 1_555
H37 C27 1_555 1_555
C28 C26 1_555 1_555
C29 C25 1_555 1_555
H38 C29 1_555 1_555
C30 C4 1_555 1_555
C31 C30 1_555 1_555
H39 C31 1_555 1_555
C37 C4 1_555 1_555
C38 C37 1_555 1_555
H43 C38 1_555 1_555
N7 C44 1_555 1_555
C44 H47 1_555 1_555
H48 C44 1_555 1_555
C45 N7 1_555 1_555
H49 C45 1_555 1_555
H50 C45 1_555 1_555
Ni4 O3 1_555 1_555
N8 Ni4 1_555 1_555
H51 N8 1_555 1_555
N9 C45 1_555 1_555
C46 N8 1_555 1_555
H52 C46 1_555 1_555
H53 C46 1_555 1_555
C47 C44 1_555 1_555
H54 C47 1_555 1_555
H55 C47 1_555 1_555
C49 N8 1_555 1_555
H58 C49 1_555 1_555
H59 C49 1_555 1_555
C50 N9 1_555 1_555
H60 C50 1_555 1_555
H61 C50 1_555 1_555
N10 Ni4 1_555 1_555
C51 N10 1_555 1_555
H62 C51 1_555 1_555
N11 Ni4 1_555 1_555
H66 N11 1_555 1_555
C53 N11 1_555 1_555
H67 C53 1_555 1_555
H68 C53 1_555 1_555
C54 C51 1_555 1_555
H69 C54 1_555 1_555
H70 C54 1_555 1_555
C55 N7 1_555 1_555
H71 C55 1_555 1_555
H72 C55 1_555 1_555
C56 N11 1_555 1_555
H73 C56 1_555 1_555
H74 C56 1_555 1_555
C7 C9 1_555 1_555
C7 C10 1_555 1_555
N3 C11 1_555 1_555
C12 C15 1_555 1_555
C20 C21 1_555 1_555
C26 C29 1_555 1_555
N7 Ni4 1_555 1_555
N9 C46 1_555 1_555
C47 C50 1_555 1_555
C55 C56 1_555 1_555
O1_2 Ni1 1_555 1_555
O2_2 C9_2 1_555 1_555
C3_2 C4_2 1_555 1_555
C5_2 C3_2 1_555 1_555
H5_2 C5_2 1_555 1_555
C7_2 C8_2 1_555 1_555
C8_2 C5_2 1_555 1_555
H8_2 C8_2 1_555 1_555
C9_2 O1_2 1_555 1_555
H36_2 C25_2 1_555 1_555
C29_2 C25_2 1_555 1_555
H38_2 C29_2 1_555 1_555
C30_2 C4_2 1_555 1_555
C31_2 C30_2 1_555 1_555
H39_2 C31_2 1_555 1_555
C32 C30_2 1_555 1_555
H40 C32 1_555 1_555
C33 C34 1_555 1_555
C34 C31_2 1_555 1_555
H41 C34 1_555 1_555
C36 C32 1_555 1_555
N7_2 C44_2 1_555 1_555
C44_2 H47_2 1_555 1_555
H48_2 C44_2 1_555 1_555
C45_2 N7_2 1_555 1_555
H49_2 C45_2 1_555 1_555
H50_2 C45_2 1_555 1_555
N9_2 C45_2 1_555 1_555
H52_2 C46_2 1_555 1_555
H53_2 C46_2 1_555 1_555
C47_2 C44_2 1_555 1_555
H54_2 C47_2 1_555 1_555
H55_2 C47_2 1_555 1_555
C50_2 N9_2 1_555 1_555
H60_2 C50_2 1_555 1_555
H61_2 C50_2 1_555 1_555
C7_2 C9_2 1_555 1_555
C33 C36 1_555 1_555
N7_2 Ni2 1_555 1_555
N9_2 C46_2 1_555 1_555
C47_2 C50_2 1_555 1_555
N5_2 Ni1_2 1_555 1_555
H29_2 C20_2 1_555 1_555
H30_2 C20_2 1_555 1_555
C21_2 N5_2 1_555 1_555
H31_2 C21_2 1_555 1_555
H32_2 C21_2 1_555 1_555
C20_2 C21_2 1_555 1_555
C4_3 C23_2 1_555 1_555
H7_2 C6_2 1_555 1_555
C10_2 C6_2 1_555 1_555
H9_2 C10_2 1_555 1_555
H10_2 C11_2 1_555 1_555
H11_2 C11_2 1_555 1_555
O3_2 C28_2 1_555 1_555
O4_2 C28_2 1_555 1_555
C23_2 C24_2 1_555 1_555
C24_2 H35_2 1_555 1_555
C26_2 C27_2 1_555 1_555
C27_2 C24_2 1_555 1_555
H37_2 C27_2 1_555 1_555
C28_2 C26_2 1_555 1_555
C37_2 C4_3 1_555 1_555
C38_2 C37_2 1_555 1_555
H43_2 C38_2 1_555 1_555
C39 C37_2 1_555 1_555
H44 C39 1_555 1_555
C40 C41 1_555 1_555
C41 C38_2 1_555 1_555
H45 C41 1_555 1_555
C43 C39 1_555 1_555
Ni2_2 O3_2 1_555 1_555
N11_2 Ni2_2 1_555 1_555
H66_2 N11_2 1_555 1_555
H71_2 C55_2 1_555 1_555
H72_2 C55_2 1_555 1_555
C56_2 N11_2 1_555 1_555
H73_2 C56_2 1_555 1_555
H74_2 C56_2 1_555 1_555
C40 C43 1_555 1_555
C55_2 C56_2 1_555 1_555
N1_2 C1_2 1_555 1_555
C1_2 H1_2 1_555 1_555
H2_2 C1_2 1_555 1_555
C2_2 N1_2 1_555 1_555
H3_2 C2_2 1_555 1_555
Ni1_4 N1_2 1_555 1_555
N3_2 C2_2 1_555 1_555
C12_2 C1_2 1_555 1_555
H12_2 C12_2 1_555 1_555
H13_2 C12_2 1_555 1_555
C15_2 N3_2 1_555 1_555
H18_2 C15_2 1_555 1_555
H19_2 C15_2 1_555 1_555
C12_2 C15_2 1_555 1_555
C13 H14 1_555 1_555
H15 C13 1_555 1_555
H22 C17 1_555 1_555
H23 C17 1_555 1_555
N6 C17 1_555 1_555
C22 N6 1_555 1_555
H33 C22 1_555 1_555
C48 H56 1_555 1_555
H57 C48 1_555 1_555
H64 C52 1_555 1_555
H65 C52 1_555 1_555
N12 C52 1_555 1_555
C57 N12 1_555 1_555
H75 C57 1_555 1_555
N4_2 Ni1_5 1_555 1_555
C16_2 N4_2 1_555 1_555
H20_2 C16_2 1_555 1_555
H21_2 C16_2 1_555 1_555
C17_2 N4_2 1_555 1_555
H22_2 C17_2 1_555 1_555
N6_2 C17_2 1_555 1_555
C19_2 C16_2 1_555 1_555
H27_2 C19_2 1_555 1_555
H28_2 C19_2 1_555 1_555
C22_2 N6_2 1_555 1_555
H33_2 C22_2 1_555 1_555
H34_2 C22_2 1_555 1_555
N8_2 Ni2_3 1_555 1_555
H51_2 N8_2 1_555 1_555
C48_2 H56_2 1_555 1_555
H57_2 C48_2 1_555 1_555
C49_2 N8_2 1_555 1_555
H58_2 C49_2 1_555 1_555
H59_2 C49_2 1_555 1_555
O10 Ni2_3 1_555 1_555
C19_2 C22_2 1_555 1_555
C48_2 C49_2 1_555 1_555
H25_2 C18_2 1_555 1_555
H26_2 C18_2 1_555 1_555
N2_2 Ni1_7 1_555 1_555
C13_2 H14_2 1_555 1_555
H15_2 C13_2 1_555 1_555
C14_2 N2_2 1_555 1_555
H16_2 C14_2 1_555 1_555
H17_2 C14_2 1_555 1_555
N10_2 Ni2_4 1_555 1_555
C51_2 N10_2 1_555 1_555
H62_2 C51_2 1_555 1_555
H63_2 C51_2 1_555 1_555
C52_2 N10_2 1_555 1_555
H64_2 C52_2 1_555 1_555
H65_2 C52_2 1_555 1_555
N12_2 C52_2 1_555 1_555
H67_2 C53_2 1_555 1_555
H68_2 C53_2 1_555 1_555
C54_2 C51_2 1_555 1_555
H69_2 C54_2 1_555 1_555
H70_2 C54_2 1_555 1_555
C57_2 N12_2 1_555 1_555
H75_2 C57_2 1_555 1_555
H76_2 C57_2 1_555 1_555
C13_2 C14_2 1_555 1_555
N12_2 C53_2 1_555 1_555
C54_2 C57_2 1_555 1_555
O9 Ni1_8 1_555 1_555
C4_4 C23_3 1_555 1_555
C23_3 C24_3 1_555 1_555
C24_3 H35_3 1_555 1_555
C25_3 C23_3 1_555 1_555
H36_3 C25_3 1_555 1_555
C26_3 C27_3 1_555 1_555
C27_3 C24_3 1_555 1_555
H37_3 C27_3 1_555 1_555
C29_3 C25_3 1_555 1_555
O10 C35_2 1_555 1_555
O6_2 C35_2 1_555 1_555
C30_3 C4_4 1_555 1_555
C31_3 C30_3 1_555 1_555
H39_3 C31_3 1_555 1_555
C33_2 C34_2 1_555 1_555
C34_2 C31_3 1_555 1_555
H41_2 C34_2 1_555 1_555
C35_2 C33_2 1_555 1_555
H44_2 C39_2 1_555 1_555
C43_2 C39_2 1_555 1_555
H46_2 C43_2 1_555 1_555
H49_3 C45_3 1_555 1_555
H50_3 C45_3 1_555 1_555
N9_3 C45_3 1_555 1_555
C50_3 N9_3 1_555 1_555
H60_3 C50_3 1_555 1_555
H71_3 C55_3 1_555 1_555
H72_3 C55_3 1_555 1_555
C26_3 C29_3 1_555 1_555
H3_3 C2_3 1_555 1_555
H4_3 C2_3 1_555 1_555
C3_3 C4_5 1_555 1_555
C5_3 C3_3 1_555 1_555
H5_3 C5_3 1_555 1_555
C6_3 C3_3 1_555 1_555
H7_3 C6_3 1_555 1_555
C7_3 C8_3 1_555 1_555
C8_3 C5_3 1_555 1_555
H8_3 C8_3 1_555 1_555
C10_3 C6_3 1_555 1_555
N3_3 C2_3 1_555 1_555
C15_3 N3_3 1_555 1_555
H18_3 C15_3 1_555 1_555
H29_3 C20_3 1_555 1_555
H30_3 C20_3 1_555 1_555
H40_2 C32_2 1_555 1_555
C36_2 C32_2 1_555 1_555
H42_2 C36_2 1_555 1_555
O9 C42_2 1_555 1_555
O8_2 C42_2 1_555 1_555
C37_3 C4_5 1_555 1_555
C38_3 C37_3 1_555 1_555
H43_3 C38_3 1_555 1_555
C40_2 C41_2 1_555 1_555
C41_2 C38_3 1_555 1_555
H45_2 C41_2 1_555 1_555
C42_2 C40_2 1_555 1_555
C7_3 C10_3 1_555 1_555
O5_2 C35_3 1_555 1_555
O6_3 C35_3 1_555 1_555
H40_3 C32_3 1_555 1_555
C33_3 C34_3 1_555 1_555
H41_3 C34_3 1_555 1_555
C35_3 C33_3 1_555 1_555
C36_3 C32_3 1_555 1_555
H42_3 C36_3 1_555 1_555
O7_2 C42_3 1_555 1_555
O8_3 C42_3 1_555 1_555
H44_3 C39_3 1_555 1_555
C40_3 C41_3 1_555 1_555
H45_3 C41_3 1_555 1_555
C42_3 C40_3 1_555 1_555
C43_3 C39_3 1_555 1_555
H46_3 C43_3 1_555 1_555
Ni3_2 O7_2 1_555 1_555
Ni4_2 O5_2 1_555 1_555
C33_3 C36_3 1_555 1_555
C40_3 C43_3 1_555 1_555
N1_3 C1_3 1_555 1_555
C1_3 H1_3 1_555 1_555
H2_4 C1_3 1_555 1_555
C2_4 N1_3 1_555 1_555
H3_4 C2_4 1_555 1_555
Ni3_2 N1_3 1_555 1_555
N3_4 C2_4 1_555 1_555
C12_3 C1_3 1_555 1_555
H12_3 C12_3 1_555 1_555
H13_3 C12_3 1_555 1_555
C15_4 N3_4 1_555 1_555
H18_4 C15_4 1_555 1_555
H19_3 C15_4 1_555 1_555
N5_3 Ni3_2 1_555 1_555
C18_3 N5_3 1_555 1_555
H25_3 C18_3 1_555 1_555
H26_3 C18_3 1_555 1_555
C20_4 N1_3 1_555 1_555
H29_4 C20_4 1_555 1_555
H30_4 C20_4 1_555 1_555
C21_3 N5_3 1_555 1_555
H31_3 C21_3 1_555 1_555
H32_3 C21_3 1_555 1_555
C12_3 C15_4 1_555 1_555
C20_4 C21_3 1_555 1_555
O1_3 Ni3_3 1_555 1_555
O2_3 C9_3 1_555 1_555
N2_3 Ni3_3 1_555 1_555
H7_4 C6_4 1_555 1_555
C7_4 C8_4 1_555 1_555
H8_4 C8_4 1_555 1_555
C9_3 O1_3 1_555 1_555
C10_4 C6_4 1_555 1_555
H9_3 C10_4 1_555 1_555
C11_3 N2_3 1_555 1_555
H10_3 C11_3 1_555 1_555
H11_3 C11_3 1_555 1_555
C13_3 H14_3 1_555 1_555
H15_3 C13_3 1_555 1_555
C14_3 N2_3 1_555 1_555
H16_3 C14_3 1_555 1_555
H17_3 C14_3 1_555 1_555
N4_3 Ni3_3 1_555 1_555
C16_3 N4_3 1_555 1_555
H20_3 C16_3 1_555 1_555
H21_3 C16_3 1_555 1_555
C17_3 N4_3 1_555 1_555
H22_3 C17_3 1_555 1_555
N6_3 C17_3 1_555 1_555
C19_3 C16_3 1_555 1_555
H27_3 C19_3 1_555 1_555
H28_3 C19_3 1_555 1_555
C22_3 N6_3 1_555 1_555
H33_3 C22_3 1_555 1_555
H34_3 C22_3 1_555 1_555
O3_3 C28_3 1_555 1_555
O4_3 C28_3 1_555 1_555
H36_4 C25_4 1_555 1_555
C26_4 C27_4 1_555 1_555
H37_4 C27_4 1_555 1_555
C28_3 C26_4 1_555 1_555
C29_4 C25_4 1_555 1_555
H38_3 C29_4 1_555 1_555
N7_3 C44_3 1_555 1_555
C44_3 H47_3 1_555 1_555
H48_4 C44_3 1_555 1_555
C45_4 N7_3 1_555 1_555
H49_4 C45_4 1_555 1_555
H50_4 C45_4 1_555 1_555
Ni4_2 O3_3 1_555 1_555
N8_3 Ni4_2 1_555 1_555
H51_3 N8_3 1_555 1_555
N9_4 C45_4 1_555 1_555
C46_3 N8_3 1_555 1_555
H52_3 C46_3 1_555 1_555
H53_3 C46_3 1_555 1_555
C47_3 C44_3 1_555 1_555
H54_3 C47_3 1_555 1_555
H55_3 C47_3 1_555 1_555
C48_3 H56_3 1_555 1_555
H57_3 C48_3 1_555 1_555
C49_3 N8_3 1_555 1_555
H58_3 C49_3 1_555 1_555
H59_3 C49_3 1_555 1_555
C50_4 N9_4 1_555 1_555
H60_4 C50_4 1_555 1_555
H61_3 C50_4 1_555 1_555
N10_3 Ni4_2 1_555 1_555
C51_3 N10_3 1_555 1_555
H62_3 C51_3 1_555 1_555
H63_3 C51_3 1_555 1_555
C52_3 N10_3 1_555 1_555
H64_3 C52_3 1_555 1_555
H65_3 C52_3 1_555 1_555
N11_3 Ni4_2 1_555 1_555
H66_3 N11_3 1_555 1_555
N12_3 C52_3 1_555 1_555
C53_3 N11_3 1_555 1_555
H67_3 C53_3 1_555 1_555
H68_3 C53_3 1_555 1_555
C54_3 C51_3 1_555 1_555
H69_3 C54_3 1_555 1_555
H70_3 C54_3 1_555 1_555
C55_4 N7_3 1_555 1_555
H71_4 C55_4 1_555 1_555
H72_4 C55_4 1_555 1_555
C56_3 N11_3 1_555 1_555
H73_3 C56_3 1_555 1_555
H74_3 C56_3 1_555 1_555
C57_3 N12_3 1_555 1_555
H75_3 C57_3 1_555 1_555
H76_3 C57_3 1_555 1_555
C7_4 C9_3 1_555 1_555
C7_4 C10_4 1_555 1_555
C13_3 C14_3 1_555 1_555
C13_3 N4_3 1_555 1_555
C19_3 C22_3 1_555 1_555
C26_4 C29_4 1_555 1_555
N7_3 Ni4_2 1_555 1_555
N9_4 C46_3 1_555 1_555
C47_3 C50_4 1_555 1_555
C48_3 C49_3 1_555 1_555
C48_3 N10_3 1_555 1_555
N12_3 C53_3 1_555 1_555
C54_3 C57_3 1_555 1_555
C55_4 C56_3 1_555 1_555
C3_4 C4_6 1_555 1_555
C4_6 C23_4 1_555 1_555
C5_4 C3_4 1_555 1_555
H5_4 C5_4 1_555 1_555
C23_4 C24_4 1_555 1_555
C24_4 H35_4 1_555 1_555
O5_3 C35_4 1_555 1_555
O6_4 C35_4 1_555 1_555
C30_4 C4_6 1_555 1_555
C31_4 C30_4 1_555 1_555
H39_4 C31_4 1_555 1_555
C32_4 C30_4 1_555 1_555
H40_4 C32_4 1_555 1_555
C33_4 C34_4 1_555 1_555
C34_4 C31_4 1_555 1_555
H41_4 C34_4 1_555 1_555
C35_4 C33_4 1_555 1_555
C36_4 C32_4 1_555 1_555
H42_4 C36_4 1_555 1_555
O7_3 C42_4 1_555 1_555
O8_4 C42_4 1_555 1_555
C37_4 C4_6 1_555 1_555
C38_4 C37_4 1_555 1_555
H43_4 C38_4 1_555 1_555
C39_4 C37_4 1_555 1_555
H44_4 C39_4 1_555 1_555
C40_4 C41_4 1_555 1_555
C41_4 C38_4 1_555 1_555
H45_4 C41_4 1_555 1_555
C42_4 C40_4 1_555 1_555
C43_4 C39_4 1_555 1_555
H46_4 C43_4 1_555 1_555
Ni3_4 O7_3 1_555 1_555
Ni4_3 O5_3 1_555 1_555
C33_4 C36_4 1_555 1_555
C40_4 C43_4 1_555 1_555
O3_4 C28_4 1_555 1_555
O4_4 C28_4 1_555 1_555
N7_4 C44_4 1_555 1_555
C44_4 H47_4 1_555 1_555
Ni4_3 O3_4 1_555 1_555
N8_4 Ni4_3 1_555 1_555
H51_4 N8_4 1_555 1_555
C46_4 N8_4 1_555 1_555
H52_4 C46_4 1_555 1_555
H53_4 C46_4 1_555 1_555
C47_4 C44_4 1_555 1_555
H54_4 C47_4 1_555 1_555
H55_4 C47_4 1_555 1_555
C48_4 H56_4 1_555 1_555
H57_4 C48_4 1_555 1_555
C49_4 N8_4 1_555 1_555
H58_4 C49_4 1_555 1_555
H59_4 C49_4 1_555 1_555
N10_4 Ni4_3 1_555 1_555
C51_4 N10_4 1_555 1_555
H62_4 C51_4 1_555 1_555
H63_4 C51_4 1_555 1_555
C52_4 N10_4 1_555 1_555
H64_4 C52_4 1_555 1_555
H65_4 C52_4 1_555 1_555
N11_4 Ni4_3 1_555 1_555
H66_4 N11_4 1_555 1_555
N12_4 C52_4 1_555 1_555
C53_4 N11_4 1_555 1_555
H67_4 C53_4 1_555 1_555
H68_4 C53_4 1_555 1_555
C54_4 C51_4 1_555 1_555
H69_4 C54_4 1_555 1_555
H70_4 C54_4 1_555 1_555
C56_4 N11_4 1_555 1_555
H73_4 C56_4 1_555 1_555
H74_4 C56_4 1_555 1_555
C57_4 N12_4 1_555 1_555
H75_4 C57_4 1_555 1_555
H76_4 C57_4 1_555 1_555
N7_4 Ni4_3 1_555 1_555
C48_4 C49_4 1_555 1_555
C48_4 N10_4 1_555 1_555
N12_4 C53_4 1_555 1_555
C54_4 C57_4 1_555 1_555
N1_4 C1_4 1_555 1_555
C1_4 H1_4 1_555 1_555
Ni3_4 N1_4 1_555 1_555
O1_4 Ni3_4 1_555 1_555
O2_4 C9_4 1_555 1_555
N2_4 Ni3_4 1_555 1_555
H6_4 N2_4 1_555 1_555
C9_4 O1_4 1_555 1_555
C11_4 N2_4 1_555 1_555
H10_4 C11_4 1_555 1_555
H11_4 C11_4 1_555 1_555
C12_4 C1_4 1_555 1_555
H12_4 C12_4 1_555 1_555
H13_4 C12_4 1_555 1_555
C13_4 H14_4 1_555 1_555
H15_4 C13_4 1_555 1_555
C14_4 N2_4 1_555 1_555
H16_4 C14_4 1_555 1_555
H17_4 C14_4 1_555 1_555
N4_4 Ni3_4 1_555 1_555
C16_4 N4_4 1_555 1_555
H20_4 C16_4 1_555 1_555
H21_4 C16_4 1_555 1_555
C17_4 N4_4 1_555 1_555
H22_4 C17_4 1_555 1_555
H23_4 C17_4 1_555 1_555
N5_4 Ni3_4 1_555 1_555
H24_4 N5_4 1_555 1_555
N6_4 C17_4 1_555 1_555
C18_4 N5_4 1_555 1_555
H25_4 C18_4 1_555 1_555
H26_4 C18_4 1_555 1_555
C19_4 C16_4 1_555 1_555
H27_4 C19_4 1_555 1_555
H28_4 C19_4 1_555 1_555
C21_4 N5_4 1_555 1_555
H31_4 C21_4 1_555 1_555
H32_4 C21_4 1_555 1_555
C22_4 N6_4 1_555 1_555
H33_4 C22_4 1_555 1_555
H34_4 C22_4 1_555 1_555
C13_4 C14_4 1_555 1_555
C13_4 N4_4 1_555 1_555
N6_4 C18_4 1_555 1_555
C19_4 C22_4 1_555 1_555

#END
