
###############################################################################
#
# This file contains modified crystal structure data generated from the
# MOF subset of the Cambridge Structural Database (CSD) v543 
# hosted by the Cambridge Crystallographic Data Centre (CCDC).
#
# This work is licensed under the Creative Commons
# Attribution-NonCommercial-ShareAlike 4.0 International License.
# To view a copy of this license, visit
# http://creativecommons.org/licenses/by-nc-sa/4.0/
# or send a letter to
# Creative Commons, PO Box 1866, Mountain View, CA 94042, USA.
#
# CIF created using the CSD Python API on 29 September 2022
# The structure has been converted into the P1 space group
# The structure has a 3D framework
# The original CSD entry XAKGOJ is in the cubic crystal system
# The framework has been calculated to contain at least 10.0% void space
# The void calculation uses a probe of radius 1.32A, grid spacing 0.4
# H atom positions have been added when not included in the experimental data
# Generated hydrogen atom positions removed from atoms on special positions
#
###############################################################################

data_XAKGOJ
_chemical_formula_moiety         '(C288 H672 O264 Zn72)n'
_symmetry_cell_setting           triclinic
_symmetry_space_group_name_H-M   'P 1'
_symmetry_Int_Tables_number      1
_space_group_name_Hall           'P 1'
loop_
_symmetry_equiv_pos_site_id
_symmetry_equiv_pos_as_xyz
1 x,y,z
_cell_length_a                   26.5844(8)
_cell_length_b                   26.5844(8)
_cell_length_c                   26.5844(8)
_cell_angle_alpha                90
_cell_angle_beta                 90
_cell_angle_gamma                90
_cell_volume                     18788
loop_
_atom_site_label
_atom_site_type_symbol
_atom_site_fract_x
_atom_site_fract_y
_atom_site_fract_z
Zn4 Zn 0.28965(8) 0.78965(8) 0.000000
Zn5 Zn 0.71035(8) 0.78965(8) 0.000000
Zn7 Zn 0.21035(8) 0.71035(8) 0.000000
Zn8 Zn 0.78965(8) 0.71035(8) 0.000000
Zn1 Zn 0.500000 0.71035(8) 0.71035(8)
O1 O 0.5536(4) 0.6841(4) 0.7576(5)
C1 C 0.6364(5) 0.6996(7) 0.8636(5)
H1 H 0.623044 0.729053 0.876958
C2 C 0.6134(8) 0.6784(5) 0.8216(5)
C3 C 0.5703(11) 0.7030(7) 0.7970(7)
O2 O 0.500000 0.6572(6) 0.6572(6)
O3 O 0.6841(4) 0.7424(5) 0.9464(4)
C4 C 0.6996(7) 0.6364(5) 0.8636(5)
H2 H 0.729053 0.623042 0.876956
C5 C 0.6784(5) 0.6784(5) 0.8866(8)
C6 C 0.7030(7) 0.7030(7) 0.9297(11)
O4 O 0.7424(5) 0.5536(4) 0.8159(4)
C7 C 0.6364(5) 0.6364(5) 0.8004(7)
H3 H 0.623042 0.623044 0.770947
C8 C 0.6784(5) 0.6134(8) 0.8216(5)
C9 C 0.7030(7) 0.5703(11) 0.7970(7)
O5 O 0.6841(4) 0.5536(4) 0.7576(5)
O6 O 0.5536(4) 0.7424(5) 0.8159(4)
O7 O 0.7424(5) 0.6841(4) 0.9464(4)
Zn2 Zn 0.28965(8) 0.500000 0.71035(8)
O8 O 0.3159(4) 0.5536(4) 0.7576(5)
C10 C 0.3004(7) 0.6364(5) 0.8636(5)
H4 H 0.270947 0.623044 0.876958
C11 C 0.3216(5) 0.6134(8) 0.8216(5)
C12 C 0.2970(7) 0.5703(11) 0.7970(7)
O9 O 0.3428(6) 0.500000 0.6572(6)
O10 O 0.2576(5) 0.6841(4) 0.9464(4)
C13 C 0.3636(5) 0.6996(7) 0.8636(5)
H5 H 0.376958 0.729053 0.876956
C14 C 0.3216(5) 0.6784(5) 0.8866(8)
C15 C 0.2970(7) 0.7030(7) 0.9297(11)
O11 O 0.4464(4) 0.7424(5) 0.8159(4)
C16 C 0.3636(5) 0.6364(5) 0.8004(7)
H6 H 0.376956 0.623042 0.770947
C17 C 0.3866(8) 0.6784(5) 0.8216(5)
C18 C 0.4297(11) 0.7030(7) 0.7970(7)
O12 O 0.4464(4) 0.6841(4) 0.7576(5)
O13 O 0.2576(5) 0.5536(4) 0.8159(4)
O14 O 0.3159(4) 0.7424(5) 0.9464(4)
Zn3 Zn 0.71035(8) 0.500000 0.71035(8)
O15 O 0.6572(6) 0.500000 0.6572(6)
Zn4_2 Zn 0.28965(8) 0.78965(8) 1.000000
Zn5_2 Zn 0.71035(8) 0.78965(8) 1.000000
Zn6 Zn 0.500000 0.78965(8) 0.78965(8)
Zn7_2 Zn 0.21035(8) 0.71035(8) 1.000000
Zn8_2 Zn 0.78965(8) 0.71035(8) 1.000000
Zn9 Zn 0.21035(8) 0.500000 0.78965(8)
Zn10 Zn 0.78965(8) 0.500000 0.78965(8)
O16 O 0.6841(4) 0.4464(4) 0.7576(5)
O17 O 0.7576(5) 0.5536(4) 0.6841(4)
O18 O 0.2424(5) 0.4464(4) 0.6841(4)
O19 O 0.4464(4) 0.7576(5) 0.6841(4)
O20 O 0.2424(5) 0.5536(4) 0.6841(4)
O21 O 0.7576(5) 0.4464(4) 0.6841(4)
O22 O 0.3159(4) 0.4464(4) 0.7576(5)
O23 O 0.5536(4) 0.7576(5) 0.6841(4)
Zn1_2 Zn 0.500000 0.28965(8) 0.71035(8)
O1_2 O 0.5536(4) 0.2424(5) 0.6841(4)
C1_2 C 0.6364(5) 0.1364(5) 0.6996(7)
H1_2 H 0.623044 0.123042 0.729053
C2_2 C 0.6134(8) 0.1784(5) 0.6784(5)
C3_2 C 0.5703(11) 0.2030(7) 0.7030(7)
O2_2 O 0.500000 0.3428(6) 0.6572(6)
O3_2 O 0.6841(4) 0.0536(4) 0.7424(5)
C4_2 C 0.6996(7) 0.1364(5) 0.6364(5)
H2_2 H 0.729053 0.123044 0.623042
C5_2 C 0.6784(5) 0.1134(8) 0.6784(5)
C6_2 C 0.7030(7) 0.0703(11) 0.7030(7)
O4_2 O 0.7424(5) 0.1841(4) 0.5536(4)
C7_2 C 0.6364(5) 0.1996(7) 0.6364(5)
H3_2 H 0.623042 0.229053 0.623044
C8_2 C 0.6784(5) 0.1784(5) 0.6134(8)
C9_2 C 0.7030(7) 0.2030(7) 0.5703(11)
O5_2 O 0.6841(4) 0.2424(5) 0.5536(4)
O6_2 O 0.5536(4) 0.1841(4) 0.7424(5)
O7_2 O 0.7424(5) 0.0536(4) 0.6841(4)
Zn2_2 Zn 0.28965(8) 0.28965(8) 0.500000
O8_2 O 0.3159(4) 0.2424(5) 0.5536(4)
C10_2 C 0.3004(7) 0.1364(5) 0.6364(5)
H4_2 H 0.270947 0.123042 0.623044
C11_2 C 0.3216(5) 0.1784(5) 0.6134(8)
C12_2 C 0.2970(7) 0.2030(7) 0.5703(11)
O9_2 O 0.3428(6) 0.3428(6) 0.500000
O10_2 O 0.2576(5) 0.0536(4) 0.6841(4)
C13_2 C 0.3636(5) 0.1364(5) 0.6996(7)
H5_2 H 0.376958 0.123044 0.729053
C14_2 C 0.3216(5) 0.1134(8) 0.6784(5)
C15_2 C 0.2970(7) 0.0703(11) 0.7030(7)
O11_2 O 0.4464(4) 0.1841(4) 0.7424(5)
C16_2 C 0.3636(5) 0.1996(7) 0.6364(5)
H6_2 H 0.376956 0.229053 0.623042
C17_2 C 0.3866(8) 0.1784(5) 0.6784(5)
C18_2 C 0.4297(11) 0.2030(7) 0.7030(7)
O12_2 O 0.4464(4) 0.2424(5) 0.6841(4)
O13_2 O 0.2576(5) 0.1841(4) 0.5536(4)
O14_2 O 0.3159(4) 0.0536(4) 0.7424(5)
Zn3_2 Zn 0.71035(8) 0.28965(8) 0.500000
O15_2 O 0.6572(6) 0.3428(6) 0.500000
Zn4_3 Zn 0.28965(8) 0.000000 0.78965(8)
Zn5_3 Zn 0.71035(8) 0.000000 0.78965(8)
Zn6_2 Zn 0.500000 0.21035(8) 0.78965(8)
Zn7_3 Zn 0.21035(8) 0.000000 0.71035(8)
Zn8_3 Zn 0.78965(8) 0.000000 0.71035(8)
Zn9_2 Zn 0.21035(8) 0.21035(8) 0.500000
Zn10_2 Zn 0.78965(8) 0.21035(8) 0.500000
O16_2 O 0.6841(4) 0.2424(5) 0.4464(4)
O17_2 O 0.7576(5) 0.3159(4) 0.5536(4)
O18_2 O 0.2424(5) 0.3159(4) 0.4464(4)
O19_2 O 0.4464(4) 0.3159(4) 0.7576(5)
O20_2 O 0.2424(5) 0.3159(4) 0.5536(4)
O21_2 O 0.7576(5) 0.3159(4) 0.4464(4)
O22_2 O 0.3159(4) 0.2424(5) 0.4464(4)
O23_2 O 0.5536(4) 0.3159(4) 0.7576(5)
Zn4_4 Zn 0.28965(8) 1.000000 0.78965(8)
Zn5_4 Zn 0.71035(8) 1.000000 0.78965(8)
Zn7_4 Zn 0.21035(8) 1.000000 0.71035(8)
Zn8_4 Zn 0.78965(8) 1.000000 0.71035(8)
Zn4_5 Zn 0.28965(8) 0.000000 0.21035(8)
Zn5_5 Zn 0.71035(8) 0.000000 0.21035(8)
Zn7_5 Zn 0.21035(8) 0.000000 0.28965(8)
Zn8_5 Zn 0.78965(8) 0.000000 0.28965(8)
Zn1_3 Zn 0.500000 0.71035(8) 0.28965(8)
O1_3 O 0.5536(4) 0.7576(5) 0.3159(4)
C1_3 C 0.6364(5) 0.8636(5) 0.3004(7)
H1_3 H 0.623044 0.876958 0.270947
C2_3 C 0.6134(8) 0.8216(5) 0.3216(5)
C3_3 C 0.5703(11) 0.7970(7) 0.2970(7)
O2_3 O 0.500000 0.6572(6) 0.3428(6)
O3_3 O 0.6841(4) 0.9464(4) 0.2576(5)
C4_3 C 0.6996(7) 0.8636(5) 0.3636(5)
H2_3 H 0.729053 0.876956 0.376958
C5_3 C 0.6784(5) 0.8866(8) 0.3216(5)
C6_3 C 0.7030(7) 0.9297(11) 0.2970(7)
O4_3 O 0.7424(5) 0.8159(4) 0.4464(4)
C7_3 C 0.6364(5) 0.8004(7) 0.3636(5)
H3_3 H 0.623042 0.770947 0.376956
C8_3 C 0.6784(5) 0.8216(5) 0.3866(8)
C9_3 C 0.7030(7) 0.7970(7) 0.4297(11)
O5_3 O 0.6841(4) 0.7576(5) 0.4464(4)
O6_3 O 0.5536(4) 0.8159(4) 0.2576(5)
O7_3 O 0.7424(5) 0.9464(4) 0.3159(4)
Zn2_3 Zn 0.28965(8) 0.71035(8) 0.500000
O8_3 O 0.3159(4) 0.7576(5) 0.4464(4)
C10_3 C 0.3004(7) 0.8636(5) 0.3636(5)
H4_3 H 0.270947 0.876958 0.376956
C11_3 C 0.3216(5) 0.8216(5) 0.3866(8)
C12_3 C 0.2970(7) 0.7970(7) 0.4297(11)
O9_3 O 0.3428(6) 0.6572(6) 0.500000
O10_3 O 0.2576(5) 0.9464(4) 0.3159(4)
C13_3 C 0.3636(5) 0.8636(5) 0.3004(7)
H5_3 H 0.376958 0.876956 0.270947
C14_3 C 0.3216(5) 0.8866(8) 0.3216(5)
C15_3 C 0.2970(7) 0.9297(11) 0.2970(7)
O11_3 O 0.4464(4) 0.8159(4) 0.2576(5)
C16_3 C 0.3636(5) 0.8004(7) 0.3636(5)
H6_3 H 0.376956 0.770947 0.376958
C17_3 C 0.3866(8) 0.8216(5) 0.3216(5)
C18_3 C 0.4297(11) 0.7970(7) 0.2970(7)
O12_3 O 0.4464(4) 0.7576(5) 0.3159(4)
O13_3 O 0.2576(5) 0.8159(4) 0.4464(4)
O14_3 O 0.3159(4) 0.9464(4) 0.2576(5)
Zn3_3 Zn 0.71035(8) 0.71035(8) 0.500000
O15_3 O 0.6572(6) 0.6572(6) 0.500000
Zn4_6 Zn 0.28965(8) 1.000000 0.21035(8)
Zn5_6 Zn 0.71035(8) 1.000000 0.21035(8)
Zn6_3 Zn 0.500000 0.78965(8) 0.21035(8)
Zn7_6 Zn 0.21035(8) 1.000000 0.28965(8)
Zn8_6 Zn 0.78965(8) 1.000000 0.28965(8)
Zn9_3 Zn 0.21035(8) 0.78965(8) 0.500000
Zn10_3 Zn 0.78965(8) 0.78965(8) 0.500000
O16_3 O 0.6841(4) 0.7576(5) 0.5536(4)
O17_3 O 0.7576(5) 0.6841(4) 0.4464(4)
O18_3 O 0.2424(5) 0.6841(4) 0.5536(4)
O19_3 O 0.4464(4) 0.6841(4) 0.2424(5)
O20_3 O 0.2424(5) 0.6841(4) 0.4464(4)
O21_3 O 0.7576(5) 0.6841(4) 0.5536(4)
O22_3 O 0.3159(4) 0.7576(5) 0.5536(4)
O23_3 O 0.5536(4) 0.6841(4) 0.2424(5)
Zn4_7 Zn 0.000000 0.78965(8) 0.71035(8)
Zn5_7 Zn 0.000000 0.78965(8) 0.28965(8)
Zn7_7 Zn 0.000000 0.71035(8) 0.78965(8)
Zn8_7 Zn 0.000000 0.71035(8) 0.21035(8)
C1_4 C 0.8636(5) 0.6996(7) 0.3636(5)
H1_4 H 0.876958 0.729053 0.376956
C2_4 C 0.8216(5) 0.6784(5) 0.3866(8)
C3_4 C 0.7970(7) 0.7030(7) 0.4297(11)
O3_4 O 0.9464(4) 0.7424(5) 0.3159(4)
C4_4 C 0.8636(5) 0.6364(5) 0.3004(7)
H2_4 H 0.876956 0.623042 0.270947
C5_4 C 0.8866(8) 0.6784(5) 0.3216(5)
C6_4 C 0.9297(11) 0.7030(7) 0.2970(7)
O4_4 O 0.8159(4) 0.5536(4) 0.2576(5)
C7_4 C 0.8004(7) 0.6364(5) 0.3636(5)
H3_4 H 0.770947 0.623044 0.376958
C8_4 C 0.8216(5) 0.6134(8) 0.3216(5)
C9_4 C 0.7970(7) 0.5703(11) 0.2970(7)
O5_4 O 0.7576(5) 0.5536(4) 0.3159(4)
O6_4 O 0.8159(4) 0.7424(5) 0.4464(4)
O7_4 O 0.9464(4) 0.6841(4) 0.2576(5)
C10_4 C 0.8636(5) 0.6364(5) 0.6996(7)
H4_4 H 0.876958 0.623044 0.729053
C11_4 C 0.8216(5) 0.6134(8) 0.6784(5)
C12_4 C 0.7970(7) 0.5703(11) 0.7030(7)
O10_4 O 0.9464(4) 0.6841(4) 0.7424(5)
C13_4 C 0.8636(5) 0.6996(7) 0.6364(5)
H5_4 H 0.876956 0.729053 0.623042
C14_4 C 0.8866(8) 0.6784(5) 0.6784(5)
C15_4 C 0.9297(11) 0.7030(7) 0.7030(7)
O11_4 O 0.8159(4) 0.7424(5) 0.5536(4)
C16_4 C 0.8004(7) 0.6364(5) 0.6364(5)
H6_4 H 0.770947 0.623042 0.623044
C17_4 C 0.8216(5) 0.6784(5) 0.6134(8)
C18_4 C 0.7970(7) 0.7030(7) 0.5703(11)
O13_4 O 0.8159(4) 0.5536(4) 0.7424(5)
O14_4 O 0.9464(4) 0.7424(5) 0.6841(4)
Zn3_4 Zn 0.71035(8) 0.500000 0.28965(8)
O15_4 O 0.6572(6) 0.500000 0.3428(6)
Zn4_8 Zn 1.000000 0.78965(8) 0.71035(8)
Zn5_8 Zn 1.000000 0.78965(8) 0.28965(8)
Zn7_8 Zn 1.000000 0.71035(8) 0.78965(8)
Zn8_8 Zn 1.000000 0.71035(8) 0.21035(8)
Zn10_4 Zn 0.78965(8) 0.500000 0.21035(8)
O16_4 O 0.7576(5) 0.4464(4) 0.3159(4)
O17_4 O 0.6841(4) 0.5536(4) 0.2424(5)
O21_4 O 0.6841(4) 0.4464(4) 0.2424(5)
C1_5 C 0.1364(5) 0.6996(7) 0.6364(5)
H1_5 H 0.123042 0.729053 0.623044
C2_5 C 0.1784(5) 0.6784(5) 0.6134(8)
C3_5 C 0.2030(7) 0.7030(7) 0.5703(11)
O3_5 O 0.0536(4) 0.7424(5) 0.6841(4)
C4_5 C 0.1364(5) 0.6364(5) 0.6996(7)
H2_5 H 0.123044 0.623042 0.729053
C5_5 C 0.1134(8) 0.6784(5) 0.6784(5)
C6_5 C 0.0703(11) 0.7030(7) 0.7030(7)
O4_5 O 0.1841(4) 0.5536(4) 0.7424(5)
C7_5 C 0.1996(7) 0.6364(5) 0.6364(5)
H3_5 H 0.229053 0.623044 0.623042
C8_5 C 0.1784(5) 0.6134(8) 0.6784(5)
C9_5 C 0.2030(7) 0.5703(11) 0.7030(7)
O6_5 O 0.1841(4) 0.7424(5) 0.5536(4)
O7_5 O 0.0536(4) 0.6841(4) 0.7424(5)
Zn2_4 Zn 0.28965(8) 0.500000 0.28965(8)
O8_4 O 0.2424(5) 0.5536(4) 0.3159(4)
C10_5 C 0.1364(5) 0.6364(5) 0.3004(7)
H4_5 H 0.123042 0.623044 0.270947
C11_5 C 0.1784(5) 0.6134(8) 0.3216(5)
C12_5 C 0.2030(7) 0.5703(11) 0.2970(7)
O9_4 O 0.3428(6) 0.500000 0.3428(6)
O10_5 O 0.0536(4) 0.6841(4) 0.2576(5)
C13_5 C 0.1364(5) 0.6996(7) 0.3636(5)
H5_5 H 0.123044 0.729053 0.376958
C14_5 C 0.1134(8) 0.6784(5) 0.3216(5)
C15_5 C 0.0703(11) 0.7030(7) 0.2970(7)
O11_5 O 0.1841(4) 0.7424(5) 0.4464(4)
C16_5 C 0.1996(7) 0.6364(5) 0.3636(5)
H6_5 H 0.229053 0.623042 0.376956
C17_5 C 0.1784(5) 0.6784(5) 0.3866(8)
C18_5 C 0.2030(7) 0.7030(7) 0.4297(11)
O13_5 O 0.1841(4) 0.5536(4) 0.2576(5)
O14_5 O 0.0536(4) 0.7424(5) 0.3159(4)
Zn9_4 Zn 0.21035(8) 0.500000 0.21035(8)
O18_4 O 0.3159(4) 0.4464(4) 0.2424(5)
O20_4 O 0.3159(4) 0.5536(4) 0.2424(5)
O22_4 O 0.2424(5) 0.4464(4) 0.3159(4)
Zn4_9 Zn 0.21035(8) 0.28965(8) 0.000000
Zn7_9 Zn 0.28965(8) 0.21035(8) 0.000000
C10_6 C 0.3636(5) 0.3004(7) 0.8636(5)
H4_6 H 0.376956 0.270947 0.876958
C11_6 C 0.3866(8) 0.3216(5) 0.8216(5)
C12_6 C 0.4297(11) 0.2970(7) 0.7970(7)
O10_6 O 0.3159(4) 0.2576(5) 0.9464(4)
C13_6 C 0.3004(7) 0.3636(5) 0.8636(5)
H5_6 H 0.270947 0.376958 0.876956
C14_6 C 0.3216(5) 0.3216(5) 0.8866(8)
C15_6 C 0.2970(7) 0.2970(7) 0.9297(11)
O11_6 O 0.2576(5) 0.4464(4) 0.8159(4)
C16_6 C 0.3636(5) 0.3636(5) 0.8004(7)
H6_6 H 0.376958 0.376956 0.770947
C17_6 C 0.3216(5) 0.3866(8) 0.8216(5)
C18_6 C 0.2970(7) 0.4297(11) 0.7970(7)
O13_6 O 0.4464(4) 0.2576(5) 0.8159(4)
O14_6 O 0.2576(5) 0.3159(4) 0.9464(4)
Zn4_10 Zn 0.21035(8) 0.28965(8) 1.000000
Zn7_10 Zn 0.28965(8) 0.21035(8) 1.000000
Zn5_9 Zn 0.78965(8) 0.28965(8) 0.000000
Zn8_9 Zn 0.71035(8) 0.21035(8) 0.000000
C1_6 C 0.6996(7) 0.3636(5) 0.8636(5)
H1_6 H 0.729053 0.376956 0.876958
C2_6 C 0.6784(5) 0.3866(8) 0.8216(5)
C3_6 C 0.7030(7) 0.4297(11) 0.7970(7)
O3_6 O 0.7424(5) 0.3159(4) 0.9464(4)
C4_6 C 0.6364(5) 0.3004(7) 0.8636(5)
H2_6 H 0.623042 0.270947 0.876956
C5_6 C 0.6784(5) 0.3216(5) 0.8866(8)
C6_6 C 0.7030(7) 0.2970(7) 0.9297(11)
O4_6 O 0.5536(4) 0.2576(5) 0.8159(4)
C7_6 C 0.6364(5) 0.3636(5) 0.8004(7)
H3_6 H 0.623044 0.376958 0.770947
C8_6 C 0.6134(8) 0.3216(5) 0.8216(5)
C9_6 C 0.5703(11) 0.2970(7) 0.7970(7)
O6_6 O 0.7424(5) 0.4464(4) 0.8159(4)
O7_6 O 0.6841(4) 0.2576(5) 0.9464(4)
Zn5_10 Zn 0.78965(8) 0.28965(8) 1.000000
Zn8_10 Zn 0.71035(8) 0.21035(8) 1.000000
Zn4_11 Zn -0.000000 0.28965(8) 0.78965(8)
Zn7_11 Zn 0.000000 0.21035(8) 0.71035(8)
C10_7 C 0.8636(5) 0.3004(7) 0.6364(5)
H4_7 H 0.876958 0.270947 0.623044
C11_7 C 0.8216(5) 0.3216(5) 0.6134(8)
C12_7 C 0.7970(7) 0.2970(7) 0.5703(11)
O10_7 O 0.9464(4) 0.2576(5) 0.6841(4)
C13_7 C 0.8636(5) 0.3636(5) 0.6996(7)
H5_7 H 0.876956 0.376958 0.729053
C14_7 C 0.8866(8) 0.3216(5) 0.6784(5)
C15_7 C 0.9297(11) 0.2970(7) 0.7030(7)
O11_7 O 0.8159(4) 0.4464(4) 0.7424(5)
C16_7 C 0.8004(7) 0.3636(5) 0.6364(5)
H6_7 H 0.770947 0.376956 0.623042
C17_7 C 0.8216(5) 0.3866(8) 0.6784(5)
C18_7 C 0.7970(7) 0.4297(11) 0.7030(7)
O13_7 O 0.8159(4) 0.2576(5) 0.5536(4)
O14_7 O 0.9464(4) 0.3159(4) 0.7424(5)
Zn4_12 Zn 1.000000 0.28965(8) 0.78965(8)
Zn7_12 Zn 1.000000 0.21035(8) 0.71035(8)
C1_7 C 0.6996(7) 0.8636(5) 0.6364(5)
H1_7 H 0.729053 0.876958 0.623044
C2_7 C 0.6784(5) 0.8216(5) 0.6134(8)
C3_7 C 0.7030(7) 0.7970(7) 0.5703(11)
O3_7 O 0.7424(5) 0.9464(4) 0.6841(4)
C4_7 C 0.6364(5) 0.8636(5) 0.6996(7)
H2_7 H 0.623042 0.876956 0.729053
C5_7 C 0.6784(5) 0.8866(8) 0.6784(5)
C6_7 C 0.7030(7) 0.9297(11) 0.7030(7)
O4_7 O 0.5536(4) 0.8159(4) 0.7424(5)
C7_7 C 0.6364(5) 0.8004(7) 0.6364(5)
H3_7 H 0.623044 0.770947 0.623042
C8_7 C 0.6134(8) 0.8216(5) 0.6784(5)
C9_7 C 0.5703(11) 0.7970(7) 0.7030(7)
O6_7 O 0.7424(5) 0.8159(4) 0.5536(4)
O7_7 O 0.6841(4) 0.9464(4) 0.7424(5)
Zn2_5 Zn 0.500000 0.28965(8) 0.28965(8)
O8_5 O 0.4464(4) 0.2424(5) 0.3159(4)
C10_8 C 0.3636(5) 0.1364(5) 0.3004(7)
H4_8 H 0.376956 0.123042 0.270947
C11_8 C 0.3866(8) 0.1784(5) 0.3216(5)
C12_8 C 0.4297(11) 0.2030(7) 0.2970(7)
O9_5 O 0.500000 0.3428(6) 0.3428(6)
O10_8 O 0.3159(4) 0.0536(4) 0.2576(5)
C13_8 C 0.3004(7) 0.1364(5) 0.3636(5)
H5_8 H 0.270947 0.123044 0.376958
C14_8 C 0.3216(5) 0.1134(8) 0.3216(5)
C15_8 C 0.2970(7) 0.0703(11) 0.2970(7)
O11_8 O 0.2576(5) 0.1841(4) 0.4464(4)
C16_8 C 0.3636(5) 0.1996(7) 0.3636(5)
H6_8 H 0.376958 0.229053 0.376956
C17_8 C 0.3216(5) 0.1784(5) 0.3866(8)
C18_8 C 0.2970(7) 0.2030(7) 0.4297(11)
O13_8 O 0.4464(4) 0.1841(4) 0.2576(5)
O14_8 O 0.2576(5) 0.0536(4) 0.3159(4)
Zn9_5 Zn 0.500000 0.21035(8) 0.21035(8)
O18_5 O 0.5536(4) 0.3159(4) 0.2424(5)
O20_5 O 0.4464(4) 0.3159(4) 0.2424(5)
O22_5 O 0.5536(4) 0.2424(5) 0.3159(4)
Zn5_11 Zn 0.000000 0.28965(8) 0.21035(8)
Zn8_11 Zn 0.000000 0.21035(8) 0.28965(8)
C1_8 C 0.8636(5) 0.3636(5) 0.3004(7)
H1_8 H 0.876958 0.376956 0.270947
C2_8 C 0.8216(5) 0.3866(8) 0.3216(5)
C3_8 C 0.7970(7) 0.4297(11) 0.2970(7)
O3_8 O 0.9464(4) 0.3159(4) 0.2576(5)
C4_8 C 0.8636(5) 0.3004(7) 0.3636(5)
H2_8 H 0.876956 0.270947 0.376958
C5_8 C 0.8866(8) 0.3216(5) 0.3216(5)
C6_8 C 0.9297(11) 0.2970(7) 0.2970(7)
O4_8 O 0.8159(4) 0.2576(5) 0.4464(4)
C7_8 C 0.8004(7) 0.3636(5) 0.3636(5)
H3_8 H 0.770947 0.376958 0.376956
C8_8 C 0.8216(5) 0.3216(5) 0.3866(8)
C9_8 C 0.7970(7) 0.2970(7) 0.4297(11)
O6_8 O 0.8159(4) 0.4464(4) 0.2576(5)
O7_8 O 0.9464(4) 0.2576(5) 0.3159(4)
Zn5_12 Zn 1.000000 0.28965(8) 0.21035(8)
Zn8_12 Zn 1.000000 0.21035(8) 0.28965(8)
C10_9 C 0.3636(5) 0.8636(5) 0.6996(7)
H4_9 H 0.376956 0.876958 0.729053
C11_9 C 0.3866(8) 0.8216(5) 0.6784(5)
C12_9 C 0.4297(11) 0.7970(7) 0.7030(7)
O10_9 O 0.3159(4) 0.9464(4) 0.7424(5)
C13_9 C 0.3004(7) 0.8636(5) 0.6364(5)
H5_9 H 0.270947 0.876956 0.623042
C14_9 C 0.3216(5) 0.8866(8) 0.6784(5)
C15_9 C 0.2970(7) 0.9297(11) 0.7030(7)
O11_9 O 0.2576(5) 0.8159(4) 0.5536(4)
C16_9 C 0.3636(5) 0.8004(7) 0.6364(5)
H6_9 H 0.376958 0.770947 0.623044
C17_9 C 0.3216(5) 0.8216(5) 0.6134(8)
C18_9 C 0.2970(7) 0.7970(7) 0.5703(11)
O13_9 O 0.4464(4) 0.8159(4) 0.7424(5)
O14_9 O 0.2576(5) 0.9464(4) 0.6841(4)
C1_9 C 0.1364(5) 0.3636(5) 0.6996(7)
H1_9 H 0.123042 0.376956 0.729053
C2_9 C 0.1784(5) 0.3866(8) 0.6784(5)
C3_9 C 0.2030(7) 0.4297(11) 0.7030(7)
O3_9 O 0.0536(4) 0.3159(4) 0.7424(5)
C4_9 C 0.1364(5) 0.3004(7) 0.6364(5)
H2_9 H 0.123044 0.270947 0.623042
C5_9 C 0.1134(8) 0.3216(5) 0.6784(5)
C6_9 C 0.0703(11) 0.2970(7) 0.7030(7)
O4_9 O 0.1841(4) 0.2576(5) 0.5536(4)
C7_9 C 0.1996(7) 0.3636(5) 0.6364(5)
H3_9 H 0.229053 0.376958 0.623044
C8_9 C 0.1784(5) 0.3216(5) 0.6134(8)
C9_9 C 0.2030(7) 0.2970(7) 0.5703(11)
O6_9 O 0.1841(4) 0.4464(4) 0.7424(5)
O7_9 O 0.0536(4) 0.2576(5) 0.6841(4)
C10_10 C 0.1364(5) 0.3004(7) 0.3636(5)
H4_10 H 0.123042 0.270947 0.376956
C11_10 C 0.1784(5) 0.3216(5) 0.3866(8)
C12_10 C 0.2030(7) 0.2970(7) 0.4297(11)
O10_10 O 0.0536(4) 0.2576(5) 0.3159(4)
C13_10 C 0.1364(5) 0.3636(5) 0.3004(7)
H5_10 H 0.123044 0.376958 0.270947
C14_10 C 0.1134(8) 0.3216(5) 0.3216(5)
C15_10 C 0.0703(11) 0.2970(7) 0.2970(7)
O11_10 O 0.1841(4) 0.4464(4) 0.2576(5)
C16_10 C 0.1996(7) 0.3636(5) 0.3636(5)
H6_10 H 0.229053 0.376956 0.376958
C17_10 C 0.1784(5) 0.3866(8) 0.3216(5)
C18_10 C 0.2030(7) 0.4297(11) 0.2970(7)
O13_10 O 0.1841(4) 0.2576(5) 0.4464(4)
O14_10 O 0.0536(4) 0.3159(4) 0.2576(5)
C1_10 C 0.6996(7) 0.1364(5) 0.3636(5)
H1_10 H 0.729053 0.123042 0.376956
C2_10 C 0.6784(5) 0.1784(5) 0.3866(8)
C3_10 C 0.7030(7) 0.2030(7) 0.4297(11)
O3_10 O 0.7424(5) 0.0536(4) 0.3159(4)
C4_10 C 0.6364(5) 0.1364(5) 0.3004(7)
H2_10 H 0.623042 0.123044 0.270947
C5_10 C 0.6784(5) 0.1134(8) 0.3216(5)
C6_10 C 0.7030(7) 0.0703(11) 0.2970(7)
O4_10 O 0.5536(4) 0.1841(4) 0.2576(5)
C7_10 C 0.6364(5) 0.1996(7) 0.3636(5)
H3_10 H 0.623044 0.229053 0.376958
C8_10 C 0.6134(8) 0.1784(5) 0.3216(5)
C9_10 C 0.5703(11) 0.2030(7) 0.2970(7)
O6_10 O 0.7424(5) 0.1841(4) 0.4464(4)
O7_10 O 0.6841(4) 0.0536(4) 0.2576(5)
C1_11 C 0.6364(5) 0.3004(7) 0.1364(5)
H1_11 H 0.623044 0.270947 0.123042
C2_11 C 0.6134(8) 0.3216(5) 0.1784(5)
C3_11 C 0.5703(11) 0.2970(7) 0.2030(7)
O3_11 O 0.6841(4) 0.2576(5) 0.0536(4)
C4_11 C 0.6996(7) 0.3636(5) 0.1364(5)
H2_11 H 0.729053 0.376958 0.123044
C5_11 C 0.6784(5) 0.3216(5) 0.1134(8)
C6_11 C 0.7030(7) 0.2970(7) 0.0703(11)
O4_11 O 0.7424(5) 0.4464(4) 0.1841(4)
C7_11 C 0.6364(5) 0.3636(5) 0.1996(7)
H3_11 H 0.623042 0.376956 0.229053
C8_11 C 0.6784(5) 0.3866(8) 0.1784(5)
C9_11 C 0.7030(7) 0.4297(11) 0.2030(7)
O6_11 O 0.5536(4) 0.2576(5) 0.1841(4)
O7_11 O 0.7424(5) 0.3159(4) 0.0536(4)
C10_11 C 0.3004(7) 0.3636(5) 0.1364(5)
H4_11 H 0.270947 0.376956 0.123042
C11_11 C 0.3216(5) 0.3866(8) 0.1784(5)
C12_11 C 0.2970(7) 0.4297(11) 0.2030(7)
O10_11 O 0.2576(5) 0.3159(4) 0.0536(4)
C13_11 C 0.3636(5) 0.3004(7) 0.1364(5)
H5_11 H 0.376958 0.270947 0.123044
C14_11 C 0.3216(5) 0.3216(5) 0.1134(8)
C15_11 C 0.2970(7) 0.2970(7) 0.0703(11)
O11_11 O 0.4464(4) 0.2576(5) 0.1841(4)
C16_11 C 0.3636(5) 0.3636(5) 0.1996(7)
H6_11 H 0.376956 0.376958 0.229053
C17_11 C 0.3866(8) 0.3216(5) 0.1784(5)
C18_11 C 0.4297(11) 0.2970(7) 0.2030(7)
O13_11 O 0.2576(5) 0.4464(4) 0.1841(4)
O14_11 O 0.3159(4) 0.2576(5) 0.0536(4)
C1_12 C 0.3636(5) 0.6996(7) 0.1364(5)
H1_12 H 0.376956 0.729053 0.123042
C2_12 C 0.3866(8) 0.6784(5) 0.1784(5)
C3_12 C 0.4297(11) 0.7030(7) 0.2030(7)
O3_12 O 0.3159(4) 0.7424(5) 0.0536(4)
C4_12 C 0.3004(7) 0.6364(5) 0.1364(5)
H2_12 H 0.270947 0.623042 0.123044
C5_12 C 0.3216(5) 0.6784(5) 0.1134(8)
C6_12 C 0.2970(7) 0.7030(7) 0.0703(11)
O4_12 O 0.2576(5) 0.5536(4) 0.1841(4)
C7_12 C 0.3636(5) 0.6364(5) 0.1996(7)
H3_12 H 0.376958 0.623044 0.229053
C8_12 C 0.3216(5) 0.6134(8) 0.1784(5)
C9_12 C 0.2970(7) 0.5703(11) 0.2030(7)
O6_12 O 0.4464(4) 0.7424(5) 0.1841(4)
O7_12 O 0.2576(5) 0.6841(4) 0.0536(4)
C10_12 C 0.6996(7) 0.6364(5) 0.1364(5)
H4_12 H 0.729053 0.623044 0.123042
C11_12 C 0.6784(5) 0.6134(8) 0.1784(5)
C12_12 C 0.7030(7) 0.5703(11) 0.2030(7)
O10_12 O 0.7424(5) 0.6841(4) 0.0536(4)
C13_12 C 0.6364(5) 0.6996(7) 0.1364(5)
H5_12 H 0.623042 0.729053 0.123044
C14_12 C 0.6784(5) 0.6784(5) 0.1134(8)
C15_12 C 0.7030(7) 0.7030(7) 0.0703(11)
O11_12 O 0.5536(4) 0.7424(5) 0.1841(4)
C16_12 C 0.6364(5) 0.6364(5) 0.1996(7)
H6_12 H 0.623044 0.623042 0.229053
C17_12 C 0.6134(8) 0.6784(5) 0.1784(5)
C18_12 C 0.5703(11) 0.7030(7) 0.2030(7)
O13_12 O 0.7424(5) 0.5536(4) 0.1841(4)
O14_12 O 0.6841(4) 0.7424(5) 0.0536(4)
O2_4 O 0.500000 0.1572(6) 0.1572(6)
O9_6 O 0.3428(6) 0.000000 0.1572(6)
O15_5 O 0.6572(6) 0.000000 0.1572(6)
O17_5 O 0.7576(5) 0.0536(4) 0.1841(4)
O20_6 O 0.2424(5) 0.0536(4) 0.1841(4)
O9_7 O 0.3428(6) 1.000000 0.1572(6)
O15_6 O 0.6572(6) 1.000000 0.1572(6)
O18_6 O 0.2424(5) 0.9464(4) 0.1841(4)
O21_5 O 0.7576(5) 0.9464(4) 0.1841(4)
O2_5 O 0.500000 0.8428(6) 0.1572(6)
O9_8 O 0.3428(6) 0.8428(6) 0.000000
O15_7 O 0.6572(6) 0.8428(6) 0.000000
O17_6 O 0.7576(5) 0.8159(4) 0.0536(4)
O20_7 O 0.2424(5) 0.8159(4) 0.0536(4)
O9_9 O 0.3428(6) 0.8428(6) 1.000000
O15_8 O 0.6572(6) 0.8428(6) 1.000000
O18_7 O 0.2424(5) 0.8159(4) 0.9464(4)
O21_6 O 0.7576(5) 0.8159(4) 0.9464(4)
O9_10 O 0.3428(6) 0.1572(6) -0.000000
O15_9 O 0.6572(6) 0.1572(6) -0.000000
O18_8 O 0.2424(5) 0.1841(4) 0.0536(4)
O21_7 O 0.7576(5) 0.1841(4) 0.0536(4)
O2_6 O 0.500000 0.1572(6) 0.8428(6)
O9_11 O 0.3428(6) 0.1572(6) 1.000000
O15_10 O 0.6572(6) 0.1572(6) 1.000000
O17_7 O 0.7576(5) 0.1841(4) 0.9464(4)
O20_8 O 0.2424(5) 0.1841(4) 0.9464(4)
C10_13 C 0.8636(5) 0.1364(5) 0.1996(7)
H4_13 H 0.876958 0.123044 0.229053
C11_13 C 0.8216(5) 0.1134(8) 0.1784(5)
C12_13 C 0.7970(7) 0.0703(11) 0.2030(7)
O10_13 O 0.9464(4) 0.1841(4) 0.2424(5)
C13_13 C 0.8636(5) 0.1996(7) 0.1364(5)
H5_13 H 0.876956 0.229053 0.123042
C14_13 C 0.8866(8) 0.1784(5) 0.1784(5)
C15_13 C 0.9297(11) 0.2030(7) 0.2030(7)
O11_13 O 0.8159(4) 0.2424(5) 0.0536(4)
C16_13 C 0.8004(7) 0.1364(5) 0.1364(5)
H6_13 H 0.770947 0.123042 0.123044
C17_13 C 0.8216(5) 0.1784(5) 0.1134(8)
C18_13 C 0.7970(7) 0.2030(7) 0.0703(11)
O13_13 O 0.8159(4) 0.0536(4) 0.2424(5)
O14_13 O 0.9464(4) 0.2424(5) 0.1841(4)
C1_13 C 0.8636(5) 0.1996(7) 0.8636(5)
H1_13 H 0.876958 0.229053 0.876956
C2_13 C 0.8216(5) 0.1784(5) 0.8866(8)
C3_13 C 0.7970(7) 0.2030(7) 0.9297(11)
O3_13 O 0.9464(4) 0.2424(5) 0.8159(4)
C4_13 C 0.8636(5) 0.1364(5) 0.8004(7)
H2_13 H 0.876956 0.123042 0.770947
C5_13 C 0.8866(8) 0.1784(5) 0.8216(5)
C6_13 C 0.9297(11) 0.2030(7) 0.7970(7)
O4_13 O 0.8159(4) 0.0536(4) 0.7576(5)
C7_13 C 0.8004(7) 0.1364(5) 0.8636(5)
H3_13 H 0.770947 0.123044 0.876958
C8_13 C 0.8216(5) 0.1134(8) 0.8216(5)
C9_13 C 0.7970(7) 0.0703(11) 0.7970(7)
O5_5 O 0.7576(5) 0.0536(4) 0.8159(4)
O6_13 O 0.8159(4) 0.2424(5) 0.9464(4)
O7_13 O 0.9464(4) 0.1841(4) 0.7576(5)
O15_11 O 0.6572(6) 0.000000 0.8428(6)
O15_12 O 0.6572(6) 1.000000 0.8428(6)
O16_5 O 0.7576(5) 0.9464(4) 0.8159(4)
C1_14 C 0.1364(5) 0.1996(7) 0.1364(5)
H1_14 H 0.123042 0.229053 0.123044
C2_14 C 0.1784(5) 0.1784(5) 0.1134(8)
C3_14 C 0.2030(7) 0.2030(7) 0.0703(11)
O3_14 O 0.0536(4) 0.2424(5) 0.1841(4)
C4_14 C 0.1364(5) 0.1364(5) 0.1996(7)
H2_14 H 0.123044 0.123042 0.229053
C5_14 C 0.1134(8) 0.1784(5) 0.1784(5)
C6_14 C 0.0703(11) 0.2030(7) 0.2030(7)
O4_14 O 0.1841(4) 0.0536(4) 0.2424(5)
C7_14 C 0.1996(7) 0.1364(5) 0.1364(5)
H3_14 H 0.229053 0.123044 0.123042
C8_14 C 0.1784(5) 0.1134(8) 0.1784(5)
C9_14 C 0.2030(7) 0.0703(11) 0.2030(7)
O6_14 O 0.1841(4) 0.2424(5) 0.0536(4)
O7_14 O 0.0536(4) 0.1841(4) 0.2424(5)
O8_6 O 0.2424(5) 0.0536(4) 0.8159(4)
C10_14 C 0.1364(5) 0.1364(5) 0.8004(7)
H4_14 H 0.123042 0.123044 0.770947
C11_14 C 0.1784(5) 0.1134(8) 0.8216(5)
C12_14 C 0.2030(7) 0.0703(11) 0.7970(7)
O9_12 O 0.3428(6) 0.000000 0.8428(6)
O10_14 O 0.0536(4) 0.1841(4) 0.7576(5)
C13_14 C 0.1364(5) 0.1996(7) 0.8636(5)
H5_14 H 0.123044 0.229053 0.876958
C14_14 C 0.1134(8) 0.1784(5) 0.8216(5)
C15_14 C 0.0703(11) 0.2030(7) 0.7970(7)
O11_14 O 0.1841(4) 0.2424(5) 0.9464(4)
C16_14 C 0.1996(7) 0.1364(5) 0.8636(5)
H6_14 H 0.229053 0.123042 0.876956
C17_14 C 0.1784(5) 0.1784(5) 0.8866(8)
C18_14 C 0.2030(7) 0.2030(7) 0.9297(11)
O13_14 O 0.1841(4) 0.0536(4) 0.7576(5)
O14_14 O 0.0536(4) 0.2424(5) 0.8159(4)
O9_13 O 0.3428(6) 1.000000 0.8428(6)
O22_6 O 0.2424(5) 0.9464(4) 0.8159(4)
C10_15 C 0.8636(5) 0.8004(7) 0.1364(5)
H4_15 H 0.876958 0.770947 0.123044
C11_15 C 0.8216(5) 0.8216(5) 0.1134(8)
C12_15 C 0.7970(7) 0.7970(7) 0.0703(11)
O10_15 O 0.9464(4) 0.7576(5) 0.1841(4)
C13_15 C 0.8636(5) 0.8636(5) 0.1996(7)
H5_15 H 0.876956 0.876958 0.229053
C14_15 C 0.8866(8) 0.8216(5) 0.1784(5)
C15_15 C 0.9297(11) 0.7970(7) 0.2030(7)
O11_15 O 0.8159(4) 0.9464(4) 0.2424(5)
C16_15 C 0.8004(7) 0.8636(5) 0.1364(5)
H6_15 H 0.770947 0.876956 0.123042
C17_15 C 0.8216(5) 0.8866(8) 0.1784(5)
C18_15 C 0.7970(7) 0.9297(11) 0.2030(7)
O13_15 O 0.8159(4) 0.7576(5) 0.0536(4)
O14_15 O 0.9464(4) 0.8159(4) 0.2424(5)
O9_14 O 0.500000 0.8428(6) 0.8428(6)
C1_15 C 0.8636(5) 0.8636(5) 0.8004(7)
H1_15 H 0.876958 0.876956 0.770947
C2_15 C 0.8216(5) 0.8866(8) 0.8216(5)
C3_15 C 0.7970(7) 0.9297(11) 0.7970(7)
O3_15 O 0.9464(4) 0.8159(4) 0.7576(5)
C4_15 C 0.8636(5) 0.8004(7) 0.8636(5)
H2_15 H 0.876956 0.770947 0.876958
C5_15 C 0.8866(8) 0.8216(5) 0.8216(5)
C6_15 C 0.9297(11) 0.7970(7) 0.7970(7)
O4_15 O 0.8159(4) 0.7576(5) 0.9464(4)
C7_15 C 0.8004(7) 0.8636(5) 0.8636(5)
H3_15 H 0.770947 0.876958 0.876956
C8_15 C 0.8216(5) 0.8216(5) 0.8866(8)
C9_15 C 0.7970(7) 0.7970(7) 0.9297(11)
O6_15 O 0.8159(4) 0.9464(4) 0.7576(5)
O7_15 O 0.9464(4) 0.7576(5) 0.8159(4)
C1_16 C 0.1364(5) 0.8636(5) 0.1996(7)
H1_16 H 0.123042 0.876956 0.229053
C2_16 C 0.1784(5) 0.8866(8) 0.1784(5)
C3_16 C 0.2030(7) 0.9297(11) 0.2030(7)
O3_16 O 0.0536(4) 0.8159(4) 0.2424(5)
C4_16 C 0.1364(5) 0.8004(7) 0.1364(5)
H2_16 H 0.123044 0.770947 0.123042
C5_16 C 0.1134(8) 0.8216(5) 0.1784(5)
C6_16 C 0.0703(11) 0.7970(7) 0.2030(7)
O4_16 O 0.1841(4) 0.7576(5) 0.0536(4)
C7_16 C 0.1996(7) 0.8636(5) 0.1364(5)
H3_16 H 0.229053 0.876958 0.123044
C8_16 C 0.1784(5) 0.8216(5) 0.1134(8)
C9_16 C 0.2030(7) 0.7970(7) 0.0703(11)
O6_16 O 0.1841(4) 0.9464(4) 0.2424(5)
O7_16 O 0.0536(4) 0.7576(5) 0.1841(4)
C10_16 C 0.1364(5) 0.8004(7) 0.8636(5)
H4_16 H 0.123042 0.770947 0.876956
C11_16 C 0.1784(5) 0.8216(5) 0.8866(8)
C12_16 C 0.2030(7) 0.7970(7) 0.9297(11)
O10_16 O 0.0536(4) 0.7576(5) 0.8159(4)
C13_16 C 0.1364(5) 0.8636(5) 0.8004(7)
H5_16 H 0.123044 0.876958 0.770947
C14_16 C 0.1134(8) 0.8216(5) 0.8216(5)
C15_16 C 0.0703(11) 0.7970(7) 0.7970(7)
O11_16 O 0.1841(4) 0.9464(4) 0.7576(5)
C16_16 C 0.1996(7) 0.8636(5) 0.8636(5)
H6_16 H 0.229053 0.876956 0.876958
C17_16 C 0.1784(5) 0.8866(8) 0.8216(5)
C18_16 C 0.2030(7) 0.9297(11) 0.7970(7)
O13_16 O 0.1841(4) 0.7576(5) 0.9464(4)
O14_16 O 0.0536(4) 0.8159(4) 0.7576(5)
O2_7 O 0.000000 0.6572(6) 0.1572(6)
O15_13 O 0.1572(6) 0.500000 0.1572(6)
O2_8 O 1.000000 0.6572(6) 0.1572(6)
O9_15 O 0.8428(6) 0.500000 0.1572(6)
O2_9 O 0.000000 0.3428(6) 0.1572(6)
O15_14 O 0.1572(6) 0.3428(6) 0.000000
O15_15 O 0.1572(6) 0.3428(6) 1.000000
O2_10 O 1.000000 0.3428(6) 0.1572(6)
O9_16 O 0.8428(6) 0.3428(6) 0.000000
O9_17 O 0.8428(6) 0.3428(6) 1.000000
O15_16 O 0.1572(6) 0.6572(6) -0.000000
O2_11 O 0.000000 0.6572(6) 0.8428(6)
O15_17 O 0.1572(6) 0.6572(6) 1.000000
O9_18 O 0.8428(6) 0.6572(6) -0.000000
O2_12 O 1.000000 0.6572(6) 0.8428(6)
O9_19 O 0.8428(6) 0.6572(6) 1.000000
O15_18 O 0.1572(6) 0.500000 0.8428(6)
O9_20 O 0.8428(6) 0.500000 0.8428(6)
O9_21 O -0.000000 0.3428(6) 0.8428(6)
O9_22 O 1.000000 0.3428(6) 0.8428(6)
O2_13 O 0.000000 0.1572(6) 0.6572(6)
O15_19 O 0.1572(6) 0.000000 0.6572(6)
O15_20 O 0.1572(6) 1.000000 0.6572(6)
O2_14 O 1.000000 0.1572(6) 0.6572(6)
O9_23 O 0.8428(6) 0.000000 0.6572(6)
O9_24 O 0.8428(6) 1.000000 0.6572(6)
O2_15 O 0.000000 0.8428(6) 0.6572(6)
O15_21 O 0.1572(6) 0.8428(6) 0.500000
O2_16 O 1.000000 0.8428(6) 0.6572(6)
O9_25 O 0.8428(6) 0.8428(6) 0.500000
O2_17 O 0.000000 0.1572(6) 0.3428(6)
O15_22 O 0.1572(6) 0.1572(6) 0.500000
O2_18 O 1.000000 0.1572(6) 0.3428(6)
O9_26 O 0.8428(6) 0.1572(6) 0.500000
O15_23 O 0.1572(6) 0.000000 0.3428(6)
O15_24 O 0.1572(6) 1.000000 0.3428(6)
O9_27 O 0.8428(6) 0.000000 0.3428(6)
O9_28 O 0.8428(6) 1.000000 0.3428(6)
O9_29 O -0.000000 0.8428(6) 0.3428(6)
O9_30 O 1.000000 0.8428(6) 0.3428(6)
loop_
_geom_bond_atom_site_label_1
_geom_bond_atom_site_label_2
_geom_bond_site_symmetry_1
_geom_bond_site_symmetry_2
Zn1 O1 1_555 1_555
O1 C3 1_555 1_555
C1 H1 1_555 1_555
C2 C1 1_555 1_555
C3 C2 1_555 1_555
O2 Zn1 1_555 1_555
O3 C6 1_555 1_555
C4 H2 1_555 1_555
C5 C1 1_555 1_555
C6 C5 1_555 1_555
O4 C9 1_555 1_555
C7 C2 1_555 1_555
H3 C7 1_555 1_555
C8 C4 1_555 1_555
C9 C8 1_555 1_555
O5 C9 1_555 1_555
O6 C3 1_555 1_555
O7 C6 1_555 1_555
Zn2 O8 1_555 1_555
O8 C12 1_555 1_555
C10 H4 1_555 1_555
C11 C10 1_555 1_555
C12 C11 1_555 1_555
O9 Zn2 1_555 1_555
O10 C15 1_555 1_555
C13 H5 1_555 1_555
C14 C10 1_555 1_555
C15 C14 1_555 1_555
O11 C18 1_555 1_555
C16 C11 1_555 1_555
H6 C16 1_555 1_555
C17 C13 1_555 1_555
C18 C17 1_555 1_555
O12 Zn1 1_555 1_555
O13 C12 1_555 1_555
O14 C15 1_555 1_555
Zn3 O5 1_555 1_555
O15 Zn3 1_555 1_555
Zn4_2 O14 1_555 1_555
Zn5_2 O3 1_555 1_555
Zn6 O6 1_555 1_555
Zn7_2 O10 1_555 1_555
Zn8_2 O7 1_555 1_555
Zn9 O13 1_555 1_555
Zn10 O4 1_555 1_555
O16 Zn3 1_555 1_555
O17 Zn3 1_555 1_555
O18 Zn2 1_555 1_555
O19 Zn1 1_555 1_555
O20 Zn2 1_555 1_555
O21 Zn3 1_555 1_555
O22 Zn2 1_555 1_555
O23 Zn1 1_555 1_555
C4 C5 1_555 1_555
C7 C8 1_555 1_555
C13 C14 1_555 1_555
O11 Zn6 1_555 1_555
C16 C17 1_555 1_555
C18 O12 1_555 1_555
Zn1_2 O1_2 1_555 1_555
O1_2 C3_2 1_555 1_555
C1_2 H1_2 1_555 1_555
C2_2 C1_2 1_555 1_555
C3_2 C2_2 1_555 1_555
O2_2 Zn1_2 1_555 1_555
O3_2 C6_2 1_555 1_555
C4_2 H2_2 1_555 1_555
C5_2 C1_2 1_555 1_555
C6_2 C5_2 1_555 1_555
O4_2 C9_2 1_555 1_555
C7_2 C2_2 1_555 1_555
H3_2 C7_2 1_555 1_555
C8_2 C4_2 1_555 1_555
C9_2 C8_2 1_555 1_555
O5_2 C9_2 1_555 1_555
O6_2 C3_2 1_555 1_555
O7_2 C6_2 1_555 1_555
Zn2_2 O8_2 1_555 1_555
O8_2 C12_2 1_555 1_555
C10_2 H4_2 1_555 1_555
C11_2 C10_2 1_555 1_555
C12_2 C11_2 1_555 1_555
O9_2 Zn2_2 1_555 1_555
O10_2 C15_2 1_555 1_555
C13_2 H5_2 1_555 1_555
C14_2 C10_2 1_555 1_555
C15_2 C14_2 1_555 1_555
O11_2 C18_2 1_555 1_555
C16_2 C11_2 1_555 1_555
H6_2 C16_2 1_555 1_555
C17_2 C13_2 1_555 1_555
C18_2 C17_2 1_555 1_555
O12_2 Zn1_2 1_555 1_555
O13_2 C12_2 1_555 1_555
O14_2 C15_2 1_555 1_555
Zn3_2 O5_2 1_555 1_555
O15_2 Zn3_2 1_555 1_555
Zn4_3 O14_2 1_555 1_555
Zn5_3 O3_2 1_555 1_555
Zn6_2 O6_2 1_555 1_555
Zn7_3 O10_2 1_555 1_555
Zn8_3 O7_2 1_555 1_555
Zn9_2 O13_2 1_555 1_555
Zn10_2 O4_2 1_555 1_555
O16_2 Zn3_2 1_555 1_555
O17_2 Zn3_2 1_555 1_555
O18_2 Zn2_2 1_555 1_555
O19_2 Zn1_2 1_555 1_555
O20_2 Zn2_2 1_555 1_555
O21_2 Zn3_2 1_555 1_555
O22_2 Zn2_2 1_555 1_555
O23_2 Zn1_2 1_555 1_555
C4_2 C5_2 1_555 1_555
C7_2 C8_2 1_555 1_555
C13_2 C14_2 1_555 1_555
O11_2 Zn6_2 1_555 1_555
C16_2 C17_2 1_555 1_555
C18_2 O12_2 1_555 1_555
Zn1_3 O1_3 1_555 1_555
O1_3 C3_3 1_555 1_555
C1_3 H1_3 1_555 1_555
C2_3 C1_3 1_555 1_555
C3_3 C2_3 1_555 1_555
O2_3 Zn1_3 1_555 1_555
O3_3 C6_3 1_555 1_555
C4_3 H2_3 1_555 1_555
C5_3 C1_3 1_555 1_555
C6_3 C5_3 1_555 1_555
O4_3 C9_3 1_555 1_555
C7_3 C2_3 1_555 1_555
H3_3 C7_3 1_555 1_555
C8_3 C4_3 1_555 1_555
C9_3 C8_3 1_555 1_555
O5_3 C9_3 1_555 1_555
O6_3 C3_3 1_555 1_555
O7_3 C6_3 1_555 1_555
Zn2_3 O8_3 1_555 1_555
O8_3 C12_3 1_555 1_555
C10_3 H4_3 1_555 1_555
C11_3 C10_3 1_555 1_555
C12_3 C11_3 1_555 1_555
O9_3 Zn2_3 1_555 1_555
O10_3 C15_3 1_555 1_555
C13_3 H5_3 1_555 1_555
C14_3 C10_3 1_555 1_555
C15_3 C14_3 1_555 1_555
O11_3 C18_3 1_555 1_555
C16_3 C11_3 1_555 1_555
H6_3 C16_3 1_555 1_555
C17_3 C13_3 1_555 1_555
C18_3 C17_3 1_555 1_555
O12_3 Zn1_3 1_555 1_555
O13_3 C12_3 1_555 1_555
O14_3 C15_3 1_555 1_555
Zn3_3 O5_3 1_555 1_555
O15_3 Zn3_3 1_555 1_555
Zn4_6 O14_3 1_555 1_555
Zn5_6 O3_3 1_555 1_555
Zn6_3 O6_3 1_555 1_555
Zn7_6 O10_3 1_555 1_555
Zn8_6 O7_3 1_555 1_555
Zn9_3 O13_3 1_555 1_555
Zn10_3 O4_3 1_555 1_555
O16_3 Zn3_3 1_555 1_555
O17_3 Zn3_3 1_555 1_555
O18_3 Zn2_3 1_555 1_555
O19_3 Zn1_3 1_555 1_555
O20_3 Zn2_3 1_555 1_555
O21_3 Zn3_3 1_555 1_555
O22_3 Zn2_3 1_555 1_555
O23_3 Zn1_3 1_555 1_555
C4_3 C5_3 1_555 1_555
C7_3 C8_3 1_555 1_555
C13_3 C14_3 1_555 1_555
O11_3 Zn6_3 1_555 1_555
C16_3 C17_3 1_555 1_555
C18_3 O12_3 1_555 1_555
O17_3 C3_4 1_555 1_555
C1_4 H1_4 1_555 1_555
C2_4 C1_4 1_555 1_555
C3_4 C2_4 1_555 1_555
O3_4 C6_4 1_555 1_555
C4_4 H2_4 1_555 1_555
C5_4 C1_4 1_555 1_555
C6_4 C5_4 1_555 1_555
O4_4 C9_4 1_555 1_555
C7_4 C2_4 1_555 1_555
H3_4 C7_4 1_555 1_555
C8_4 C4_4 1_555 1_555
C9_4 C8_4 1_555 1_555
O5_4 C9_4 1_555 1_555
O6_4 C3_4 1_555 1_555
O7_4 C6_4 1_555 1_555
O17 C12_4 1_555 1_555
C10_4 H4_4 1_555 1_555
C11_4 C10_4 1_555 1_555
C12_4 C11_4 1_555 1_555
O10_4 C15_4 1_555 1_555
C13_4 H5_4 1_555 1_555
C14_4 C10_4 1_555 1_555
C15_4 C14_4 1_555 1_555
O11_4 C18_4 1_555 1_555
C16_4 C11_4 1_555 1_555
H6_4 C16_4 1_555 1_555
C17_4 C13_4 1_555 1_555
C18_4 C17_4 1_555 1_555
O13_4 C12_4 1_555 1_555
O14_4 C15_4 1_555 1_555
Zn3_4 O5_4 1_555 1_555
O15_4 Zn3_4 1_555 1_555
Zn4_8 O14_4 1_555 1_555
Zn5_8 O3_4 1_555 1_555
Zn10_3 O6_4 1_555 1_555
Zn7_8 O10_4 1_555 1_555
Zn8_8 O7_4 1_555 1_555
Zn10 O13_4 1_555 1_555
Zn10_4 O4_4 1_555 1_555
O16_4 Zn3_4 1_555 1_555
O17_4 Zn3_4 1_555 1_555
O21_4 Zn3_4 1_555 1_555
C4_4 C5_4 1_555 1_555
C7_4 C8_4 1_555 1_555
C13_4 C14_4 1_555 1_555
O11_4 Zn10_3 1_555 1_555
C16_4 C17_4 1_555 1_555
C18_4 O21_3 1_555 1_555
O18_3 C3_5 1_555 1_555
C1_5 H1_5 1_555 1_555
C2_5 C1_5 1_555 1_555
C3_5 C2_5 1_555 1_555
O3_5 C6_5 1_555 1_555
C4_5 H2_5 1_555 1_555
C5_5 C1_5 1_555 1_555
C6_5 C5_5 1_555 1_555
O4_5 C9_5 1_555 1_555
C7_5 C2_5 1_555 1_555
H3_5 C7_5 1_555 1_555
C8_5 C4_5 1_555 1_555
C9_5 C8_5 1_555 1_555
O20 C9_5 1_555 1_555
O6_5 C3_5 1_555 1_555
O7_5 C6_5 1_555 1_555
Zn2_4 O8_4 1_555 1_555
O8_4 C12_5 1_555 1_555
C10_5 H4_5 1_555 1_555
C11_5 C10_5 1_555 1_555
C12_5 C11_5 1_555 1_555
O9_4 Zn2_4 1_555 1_555
O10_5 C15_5 1_555 1_555
C13_5 H5_5 1_555 1_555
C14_5 C10_5 1_555 1_555
C15_5 C14_5 1_555 1_555
O11_5 C18_5 1_555 1_555
C16_5 C11_5 1_555 1_555
H6_5 C16_5 1_555 1_555
C17_5 C13_5 1_555 1_555
C18_5 C17_5 1_555 1_555
O13_5 C12_5 1_555 1_555
O14_5 C15_5 1_555 1_555
Zn5_7 O14_5 1_555 1_555
Zn4_7 O3_5 1_555 1_555
Zn9_3 O6_5 1_555 1_555
Zn8_7 O10_5 1_555 1_555
Zn7_7 O7_5 1_555 1_555
Zn9_4 O13_5 1_555 1_555
Zn9 O4_5 1_555 1_555
O18_4 Zn2_4 1_555 1_555
O20_4 Zn2_4 1_555 1_555
O22_4 Zn2_4 1_555 1_555
C4_5 C5_5 1_555 1_555
C7_5 C8_5 1_555 1_555
C13_5 C14_5 1_555 1_555
O11_5 Zn9_3 1_555 1_555
C16_5 C17_5 1_555 1_555
C18_5 O20_3 1_555 1_555
O19_2 C12_6 1_555 1_555
C10_6 H4_6 1_555 1_555
C11_6 C10_6 1_555 1_555
C12_6 C11_6 1_555 1_555
O10_6 C15_6 1_555 1_555
C13_6 H5_6 1_555 1_555
C14_6 C10_6 1_555 1_555
C15_6 C14_6 1_555 1_555
O11_6 C18_6 1_555 1_555
C16_6 C11_6 1_555 1_555
H6_6 C16_6 1_555 1_555
C17_6 C13_6 1_555 1_555
C18_6 C17_6 1_555 1_555
O13_6 C12_6 1_555 1_555
O14_6 C15_6 1_555 1_555
Zn4_10 O14_6 1_555 1_555
Zn7_10 O10_6 1_555 1_555
Zn6_2 O13_6 1_555 1_555
C13_6 C14_6 1_555 1_555
O11_6 Zn9 1_555 1_555
C16_6 C17_6 1_555 1_555
C18_6 O22 1_555 1_555
O16 C3_6 1_555 1_555
C1_6 H1_6 1_555 1_555
C2_6 C1_6 1_555 1_555
C3_6 C2_6 1_555 1_555
O3_6 C6_6 1_555 1_555
C4_6 H2_6 1_555 1_555
C5_6 C1_6 1_555 1_555
C6_6 C5_6 1_555 1_555
O4_6 C9_6 1_555 1_555
C7_6 C2_6 1_555 1_555
H3_6 C7_6 1_555 1_555
C8_6 C4_6 1_555 1_555
C9_6 C8_6 1_555 1_555
O23_2 C9_6 1_555 1_555
O6_6 C3_6 1_555 1_555
O7_6 C6_6 1_555 1_555
Zn5_10 O3_6 1_555 1_555
Zn10 O6_6 1_555 1_555
Zn8_10 O7_6 1_555 1_555
Zn6_2 O4_6 1_555 1_555
C4_6 C5_6 1_555 1_555
C7_6 C8_6 1_555 1_555
O17_2 C12_7 1_555 1_555
C10_7 H4_7 1_555 1_555
C11_7 C10_7 1_555 1_555
C12_7 C11_7 1_555 1_555
O10_7 C15_7 1_555 1_555
C13_7 H5_7 1_555 1_555
C14_7 C10_7 1_555 1_555
C15_7 C14_7 1_555 1_555
O11_7 C18_7 1_555 1_555
C16_7 C11_7 1_555 1_555
H6_7 C16_7 1_555 1_555
C17_7 C13_7 1_555 1_555
C18_7 C17_7 1_555 1_555
O13_7 C12_7 1_555 1_555
O14_7 C15_7 1_555 1_555
Zn4_12 O14_7 1_555 1_555
Zn7_12 O10_7 1_555 1_555
Zn10_2 O13_7 1_555 1_555
C13_7 C14_7 1_555 1_555
O11_7 Zn10 1_555 1_555
C16_7 C17_7 1_555 1_555
C18_7 O21 1_555 1_555
O16_3 C3_7 1_555 1_555
C1_7 H1_7 1_555 1_555
C2_7 C1_7 1_555 1_555
C3_7 C2_7 1_555 1_555
O3_7 C6_7 1_555 1_555
C4_7 H2_7 1_555 1_555
C5_7 C1_7 1_555 1_555
C6_7 C5_7 1_555 1_555
O4_7 C9_7 1_555 1_555
C7_7 C2_7 1_555 1_555
H3_7 C7_7 1_555 1_555
C8_7 C4_7 1_555 1_555
C9_7 C8_7 1_555 1_555
O23 C9_7 1_555 1_555
O6_7 C3_7 1_555 1_555
O7_7 C6_7 1_555 1_555
Zn8_4 O3_7 1_555 1_555
Zn10_3 O6_7 1_555 1_555
Zn5_4 O7_7 1_555 1_555
Zn6 O4_7 1_555 1_555
C4_7 C5_7 1_555 1_555
C7_7 C8_7 1_555 1_555
Zn2_5 O8_5 1_555 1_555
O8_5 C12_8 1_555 1_555
C10_8 H4_8 1_555 1_555
C11_8 C10_8 1_555 1_555
C12_8 C11_8 1_555 1_555
O9_5 Zn2_5 1_555 1_555
O10_8 C15_8 1_555 1_555
C13_8 H5_8 1_555 1_555
C14_8 C10_8 1_555 1_555
C15_8 C14_8 1_555 1_555
O11_8 C18_8 1_555 1_555
C16_8 C11_8 1_555 1_555
H6_8 C16_8 1_555 1_555
C17_8 C13_8 1_555 1_555
C18_8 C17_8 1_555 1_555
O13_8 C12_8 1_555 1_555
O14_8 C15_8 1_555 1_555
Zn7_5 O14_8 1_555 1_555
Zn4_5 O10_8 1_555 1_555
Zn9_5 O13_8 1_555 1_555
O18_5 Zn2_5 1_555 1_555
O20_5 Zn2_5 1_555 1_555
O22_5 Zn2_5 1_555 1_555
C13_8 C14_8 1_555 1_555
O11_8 Zn9_2 1_555 1_555
C16_8 C17_8 1_555 1_555
C18_8 O22_2 1_555 1_555
O16_4 C3_8 1_555 1_555
C1_8 H1_8 1_555 1_555
C2_8 C1_8 1_555 1_555
C3_8 C2_8 1_555 1_555
O3_8 C6_8 1_555 1_555
C4_8 H2_8 1_555 1_555
C5_8 C1_8 1_555 1_555
C6_8 C5_8 1_555 1_555
O4_8 C9_8 1_555 1_555
C7_8 C2_8 1_555 1_555
H3_8 C7_8 1_555 1_555
C8_8 C4_8 1_555 1_555
C9_8 C8_8 1_555 1_555
O21_2 C9_8 1_555 1_555
O6_8 C3_8 1_555 1_555
O7_8 C6_8 1_555 1_555
Zn5_12 O3_8 1_555 1_555
Zn10_4 O6_8 1_555 1_555
Zn8_12 O7_8 1_555 1_555
Zn10_2 O4_8 1_555 1_555
C4_8 C5_8 1_555 1_555
C7_8 C8_8 1_555 1_555
O19 C12_9 1_555 1_555
C10_9 H4_9 1_555 1_555
C11_9 C10_9 1_555 1_555
C12_9 C11_9 1_555 1_555
O10_9 C15_9 1_555 1_555
C13_9 H5_9 1_555 1_555
C14_9 C10_9 1_555 1_555
C15_9 C14_9 1_555 1_555
O11_9 C18_9 1_555 1_555
C16_9 C11_9 1_555 1_555
H6_9 C16_9 1_555 1_555
C17_9 C13_9 1_555 1_555
C18_9 C17_9 1_555 1_555
O13_9 C12_9 1_555 1_555
O14_9 C15_9 1_555 1_555
Zn7_4 O14_9 1_555 1_555
Zn4_4 O10_9 1_555 1_555
Zn6 O13_9 1_555 1_555
C13_9 C14_9 1_555 1_555
O11_9 Zn9_3 1_555 1_555
C16_9 C17_9 1_555 1_555
C18_9 O22_3 1_555 1_555
O18 C3_9 1_555 1_555
C1_9 H1_9 1_555 1_555
C2_9 C1_9 1_555 1_555
C3_9 C2_9 1_555 1_555
O3_9 C6_9 1_555 1_555
C4_9 H2_9 1_555 1_555
C5_9 C1_9 1_555 1_555
C6_9 C5_9 1_555 1_555
O4_9 C9_9 1_555 1_555
C7_9 C2_9 1_555 1_555
H3_9 C7_9 1_555 1_555
C8_9 C4_9 1_555 1_555
C9_9 C8_9 1_555 1_555
O20_2 C9_9 1_555 1_555
O6_9 C3_9 1_555 1_555
O7_9 C6_9 1_555 1_555
Zn4_11 O3_9 1_555 1_555
Zn9 O6_9 1_555 1_555
Zn7_11 O7_9 1_555 1_555
Zn9_2 O4_9 1_555 1_555
C4_9 C5_9 1_555 1_555
C7_9 C8_9 1_555 1_555
O18_2 C12_10 1_555 1_555
C10_10 H4_10 1_555 1_555
C11_10 C10_10 1_555 1_555
C12_10 C11_10 1_555 1_555
O10_10 C15_10 1_555 1_555
C13_10 H5_10 1_555 1_555
C14_10 C10_10 1_555 1_555
C15_10 C14_10 1_555 1_555
O11_10 C18_10 1_555 1_555
C16_10 C11_10 1_555 1_555
H6_10 C16_10 1_555 1_555
C17_10 C13_10 1_555 1_555
C18_10 C17_10 1_555 1_555
O13_10 C12_10 1_555 1_555
O14_10 C15_10 1_555 1_555
Zn5_11 O14_10 1_555 1_555
Zn8_11 O10_10 1_555 1_555
Zn9_2 O13_10 1_555 1_555
C13_10 C14_10 1_555 1_555
O11_10 Zn9_4 1_555 1_555
C16_10 C17_10 1_555 1_555
C18_10 O22_4 1_555 1_555
O16_2 C3_10 1_555 1_555
C1_10 H1_10 1_555 1_555
C2_10 C1_10 1_555 1_555
C3_10 C2_10 1_555 1_555
O3_10 C6_10 1_555 1_555
C4_10 H2_10 1_555 1_555
C5_10 C1_10 1_555 1_555
C6_10 C5_10 1_555 1_555
O4_10 C9_10 1_555 1_555
C7_10 C2_10 1_555 1_555
H3_10 C7_10 1_555 1_555
C8_10 C4_10 1_555 1_555
C9_10 C8_10 1_555 1_555
O22_5 C9_10 1_555 1_555
O6_10 C3_10 1_555 1_555
O7_10 C6_10 1_555 1_555
Zn8_5 O3_10 1_555 1_555
Zn10_2 O6_10 1_555 1_555
Zn5_5 O7_10 1_555 1_555
Zn9_5 O4_10 1_555 1_555
C4_10 C5_10 1_555 1_555
C7_10 C8_10 1_555 1_555
O18_5 C3_11 1_555 1_555
C1_11 H1_11 1_555 1_555
C2_11 C1_11 1_555 1_555
C3_11 C2_11 1_555 1_555
O3_11 C6_11 1_555 1_555
C4_11 H2_11 1_555 1_555
C5_11 C1_11 1_555 1_555
C6_11 C5_11 1_555 1_555
O4_11 C9_11 1_555 1_555
C7_11 C2_11 1_555 1_555
H3_11 C7_11 1_555 1_555
C8_11 C4_11 1_555 1_555
C9_11 C8_11 1_555 1_555
O21_4 C9_11 1_555 1_555
O6_11 C3_11 1_555 1_555
O7_11 C6_11 1_555 1_555
O18_4 C12_11 1_555 1_555
C10_11 H4_11 1_555 1_555
C11_11 C10_11 1_555 1_555
C12_11 C11_11 1_555 1_555
O10_11 C15_11 1_555 1_555
C13_11 H5_11 1_555 1_555
C14_11 C10_11 1_555 1_555
C15_11 C14_11 1_555 1_555
O11_11 C18_11 1_555 1_555
C16_11 C11_11 1_555 1_555
H6_11 C16_11 1_555 1_555
C17_11 C13_11 1_555 1_555
C18_11 C17_11 1_555 1_555
O13_11 C12_11 1_555 1_555
O14_11 C15_11 1_555 1_555
Zn7_9 O14_11 1_555 1_555
Zn8_9 O3_11 1_555 1_555
Zn9_5 O6_11 1_555 1_555
Zn4_9 O10_11 1_555 1_555
Zn5_9 O7_11 1_555 1_555
Zn9_4 O13_11 1_555 1_555
Zn10_4 O4_11 1_555 1_555
C4_11 C5_11 1_555 1_555
C7_11 C8_11 1_555 1_555
C13_11 C14_11 1_555 1_555
O11_11 Zn9_5 1_555 1_555
C16_11 C17_11 1_555 1_555
C18_11 O20_5 1_555 1_555
O19_3 C3_12 1_555 1_555
C1_12 H1_12 1_555 1_555
C2_12 C1_12 1_555 1_555
C3_12 C2_12 1_555 1_555
O3_12 C6_12 1_555 1_555
C4_12 H2_12 1_555 1_555
C5_12 C1_12 1_555 1_555
C6_12 C5_12 1_555 1_555
O4_12 C9_12 1_555 1_555
C7_12 C2_12 1_555 1_555
H3_12 C7_12 1_555 1_555
C8_12 C4_12 1_555 1_555
C9_12 C8_12 1_555 1_555
O20_4 C9_12 1_555 1_555
O6_12 C3_12 1_555 1_555
O7_12 C6_12 1_555 1_555
O17_4 C12_12 1_555 1_555
C10_12 H4_12 1_555 1_555
C11_12 C10_12 1_555 1_555
C12_12 C11_12 1_555 1_555
O10_12 C15_12 1_555 1_555
C13_12 H5_12 1_555 1_555
C14_12 C10_12 1_555 1_555
C15_12 C14_12 1_555 1_555
O11_12 C18_12 1_555 1_555
C16_12 C11_12 1_555 1_555
H6_12 C16_12 1_555 1_555
C17_12 C13_12 1_555 1_555
C18_12 C17_12 1_555 1_555
O13_12 C12_12 1_555 1_555
O14_12 C15_12 1_555 1_555
Zn5 O14_12 1_555 1_555
Zn4 O3_12 1_555 1_555
Zn6_3 O6_12 1_555 1_555
Zn8 O10_12 1_555 1_555
Zn7 O7_12 1_555 1_555
Zn10_4 O13_12 1_555 1_555
Zn9_4 O4_12 1_555 1_555
C4_12 C5_12 1_555 1_555
C7_12 C8_12 1_555 1_555
C13_12 C14_12 1_555 1_555
O11_12 Zn6_3 1_555 1_555
C16_12 C17_12 1_555 1_555
C18_12 O23_3 1_555 1_555
O2_4 Zn9_5 1_555 1_555
O9_6 Zn4_5 1_555 1_555
O15_5 Zn5_5 1_555 1_555
O17_5 Zn5_5 1_555 1_555
O20_6 Zn4_5 1_555 1_555
O9_7 Zn4_6 1_555 1_555
O15_6 Zn5_6 1_555 1_555
O18_6 Zn4_6 1_555 1_555
O21_5 Zn5_6 1_555 1_555
O2_5 Zn6_3 1_555 1_555
O9_8 Zn4 1_555 1_555
O15_7 Zn5 1_555 1_555
O17_6 Zn5 1_555 1_555
O20_7 Zn4 1_555 1_555
O9_9 Zn4_2 1_555 1_555
O15_8 Zn5_2 1_555 1_555
O18_7 Zn4_2 1_555 1_555
O21_6 Zn5_2 1_555 1_555
O9_10 Zn7_9 1_555 1_555
O15_9 Zn8_9 1_555 1_555
O18_8 Zn7_9 1_555 1_555
O21_7 Zn8_9 1_555 1_555
O2_6 Zn6_2 1_555 1_555
O9_11 Zn7_10 1_555 1_555
O15_10 Zn8_10 1_555 1_555
O17_7 Zn8_10 1_555 1_555
O20_8 Zn7_10 1_555 1_555
O17_5 C12_13 1_555 1_555
C10_13 H4_13 1_555 1_555
C11_13 C10_13 1_555 1_555
C12_13 C11_13 1_555 1_555
O10_13 C15_13 1_555 1_555
C13_13 H5_13 1_555 1_555
C14_13 C10_13 1_555 1_555
C15_13 C14_13 1_555 1_555
O11_13 C18_13 1_555 1_555
C16_13 C11_13 1_555 1_555
H6_13 C16_13 1_555 1_555
C17_13 C13_13 1_555 1_555
C18_13 C17_13 1_555 1_555
O13_13 C12_13 1_555 1_555
O14_13 C15_13 1_555 1_555
Zn5_12 O14_13 1_555 1_555
Zn8_12 O10_13 1_555 1_555
Zn8_5 O13_13 1_555 1_555
C13_13 C14_13 1_555 1_555
O11_13 Zn5_9 1_555 1_555
C16_13 C17_13 1_555 1_555
C18_13 O21_7 1_555 1_555
O17_7 C3_13 1_555 1_555
C1_13 H1_13 1_555 1_555
C2_13 C1_13 1_555 1_555
C3_13 C2_13 1_555 1_555
O3_13 C6_13 1_555 1_555
C4_13 H2_13 1_555 1_555
C5_13 C1_13 1_555 1_555
C6_13 C5_13 1_555 1_555
O4_13 C9_13 1_555 1_555
C7_13 C2_13 1_555 1_555
H3_13 C7_13 1_555 1_555
C8_13 C4_13 1_555 1_555
C9_13 C8_13 1_555 1_555
O5_5 C9_13 1_555 1_555
O6_13 C3_13 1_555 1_555
O7_13 C6_13 1_555 1_555
Zn5_3 O5_5 1_555 1_555
O15_11 Zn5_3 1_555 1_555
Zn4_12 O3_13 1_555 1_555
Zn5_10 O6_13 1_555 1_555
Zn7_12 O7_13 1_555 1_555
Zn8_3 O4_13 1_555 1_555
C4_13 C5_13 1_555 1_555
C7_13 C8_13 1_555 1_555
O15_12 Zn5_4 1_555 1_555
O16_5 Zn5_4 1_555 1_555
O18_8 C3_14 1_555 1_555
C1_14 H1_14 1_555 1_555
C2_14 C1_14 1_555 1_555
C3_14 C2_14 1_555 1_555
O3_14 C6_14 1_555 1_555
C4_14 H2_14 1_555 1_555
C5_14 C1_14 1_555 1_555
C6_14 C5_14 1_555 1_555
O4_14 C9_14 1_555 1_555
C7_14 C2_14 1_555 1_555
H3_14 C7_14 1_555 1_555
C8_14 C4_14 1_555 1_555
C9_14 C8_14 1_555 1_555
O20_6 C9_14 1_555 1_555
O6_14 C3_14 1_555 1_555
O7_14 C6_14 1_555 1_555
Zn5_11 O3_14 1_555 1_555
Zn4_9 O6_14 1_555 1_555
Zn8_11 O7_14 1_555 1_555
Zn7_5 O4_14 1_555 1_555
C4_14 C5_14 1_555 1_555
C7_14 C8_14 1_555 1_555
Zn4_3 O8_6 1_555 1_555
O8_6 C12_14 1_555 1_555
C10_14 H4_14 1_555 1_555
C11_14 C10_14 1_555 1_555
C12_14 C11_14 1_555 1_555
O9_12 Zn4_3 1_555 1_555
O10_14 C15_14 1_555 1_555
C13_14 H5_14 1_555 1_555
C14_14 C10_14 1_555 1_555
C15_14 C14_14 1_555 1_555
O11_14 C18_14 1_555 1_555
C16_14 C11_14 1_555 1_555
H6_14 C16_14 1_555 1_555
C17_14 C13_14 1_555 1_555
C18_14 C17_14 1_555 1_555
O13_14 C12_14 1_555 1_555
O14_14 C15_14 1_555 1_555
Zn4_11 O14_14 1_555 1_555
Zn7_11 O10_14 1_555 1_555
Zn7_3 O13_14 1_555 1_555
C13_14 C14_14 1_555 1_555
O11_14 Zn4_10 1_555 1_555
C16_14 C17_14 1_555 1_555
C18_14 O20_8 1_555 1_555
O9_13 Zn4_4 1_555 1_555
O22_6 Zn4_4 1_555 1_555
O17_6 C12_15 1_555 1_555
C10_15 H4_15 1_555 1_555
C11_15 C10_15 1_555 1_555
C12_15 C11_15 1_555 1_555
O10_15 C15_15 1_555 1_555
C13_15 H5_15 1_555 1_555
C14_15 C10_15 1_555 1_555
C15_15 C14_15 1_555 1_555
O11_15 C18_15 1_555 1_555
C16_15 C11_15 1_555 1_555
H6_15 C16_15 1_555 1_555
C17_15 C13_15 1_555 1_555
C18_15 C17_15 1_555 1_555
O13_15 C12_15 1_555 1_555
O14_15 C15_15 1_555 1_555
Zn5_8 O14_15 1_555 1_555
Zn8_8 O10_15 1_555 1_555
Zn8 O13_15 1_555 1_555
C13_15 C14_15 1_555 1_555
O11_15 Zn8_6 1_555 1_555
C16_15 C17_15 1_555 1_555
C18_15 O21_5 1_555 1_555
O9_14 Zn6 1_555 1_555
O16_5 C3_15 1_555 1_555
C1_15 H1_15 1_555 1_555
C2_15 C1_15 1_555 1_555
C3_15 C2_15 1_555 1_555
O3_15 C6_15 1_555 1_555
C4_15 H2_15 1_555 1_555
C5_15 C1_15 1_555 1_555
C6_15 C5_15 1_555 1_555
O4_15 C9_15 1_555 1_555
C7_15 C2_15 1_555 1_555
H3_15 C7_15 1_555 1_555
C8_15 C4_15 1_555 1_555
C9_15 C8_15 1_555 1_555
O21_6 C9_15 1_555 1_555
O6_15 C3_15 1_555 1_555
O7_15 C6_15 1_555 1_555
Zn4_8 O3_15 1_555 1_555
Zn8_4 O6_15 1_555 1_555
Zn7_8 O7_15 1_555 1_555
Zn8_2 O4_15 1_555 1_555
C4_15 C5_15 1_555 1_555
C7_15 C8_15 1_555 1_555
O18_6 C3_16 1_555 1_555
C1_16 H1_16 1_555 1_555
C2_16 C1_16 1_555 1_555
C3_16 C2_16 1_555 1_555
O3_16 C6_16 1_555 1_555
C4_16 H2_16 1_555 1_555
C5_16 C1_16 1_555 1_555
C6_16 C5_16 1_555 1_555
O4_16 C9_16 1_555 1_555
C7_16 C2_16 1_555 1_555
H3_16 C7_16 1_555 1_555
C8_16 C4_16 1_555 1_555
C9_16 C8_16 1_555 1_555
O20_7 C9_16 1_555 1_555
O6_16 C3_16 1_555 1_555
O7_16 C6_16 1_555 1_555
Zn5_7 O3_16 1_555 1_555
Zn7_6 O6_16 1_555 1_555
Zn8_7 O7_16 1_555 1_555
Zn7 O4_16 1_555 1_555
C4_16 C5_16 1_555 1_555
C7_16 C8_16 1_555 1_555
O18_7 C12_16 1_555 1_555
C10_16 H4_16 1_555 1_555
C11_16 C10_16 1_555 1_555
C12_16 C11_16 1_555 1_555
O10_16 C15_16 1_555 1_555
C13_16 H5_16 1_555 1_555
C14_16 C10_16 1_555 1_555
C15_16 C14_16 1_555 1_555
O11_16 C18_16 1_555 1_555
C16_16 C11_16 1_555 1_555
H6_16 C16_16 1_555 1_555
C17_16 C13_16 1_555 1_555
C18_16 C17_16 1_555 1_555
O13_16 C12_16 1_555 1_555
O14_16 C15_16 1_555 1_555
Zn4_7 O14_16 1_555 1_555
Zn7_7 O10_16 1_555 1_555
Zn7_2 O13_16 1_555 1_555
C13_16 C14_16 1_555 1_555
O11_16 Zn7_4 1_555 1_555
C16_16 C17_16 1_555 1_555
C18_16 O22_6 1_555 1_555
O2_7 Zn8_7 1_555 1_555
O15_13 Zn9_4 1_555 1_555
O2_8 Zn8_8 1_555 1_555
O9_15 Zn10_4 1_555 1_555
O2_9 Zn5_11 1_555 1_555
O15_14 Zn4_9 1_555 1_555
O15_15 Zn4_10 1_555 1_555
O2_10 Zn5_12 1_555 1_555
O9_16 Zn5_9 1_555 1_555
O9_17 Zn5_10 1_555 1_555
O15_16 Zn7 1_555 1_555
O2_11 Zn7_7 1_555 1_555
O15_17 Zn7_2 1_555 1_555
O9_18 Zn8 1_555 1_555
O2_12 Zn7_8 1_555 1_555
O9_19 Zn8_2 1_555 1_555
O15_18 Zn9 1_555 1_555
O9_20 Zn10 1_555 1_555
O9_21 Zn4_11 1_555 1_555
O9_22 Zn4_12 1_555 1_555
O2_13 Zn7_11 1_555 1_555
O15_19 Zn7_3 1_555 1_555
O15_20 Zn7_4 1_555 1_555
O2_14 Zn7_12 1_555 1_555
O9_23 Zn8_3 1_555 1_555
O9_24 Zn8_4 1_555 1_555
O2_15 Zn4_7 1_555 1_555
O15_21 Zn9_3 1_555 1_555
O2_16 Zn4_8 1_555 1_555
O9_25 Zn10_3 1_555 1_555
O2_17 Zn8_11 1_555 1_555
O15_22 Zn9_2 1_555 1_555
O2_18 Zn8_12 1_555 1_555
O9_26 Zn10_2 1_555 1_555
O15_23 Zn7_5 1_555 1_555
O15_24 Zn7_6 1_555 1_555
O9_27 Zn8_5 1_555 1_555
O9_28 Zn8_6 1_555 1_555
O9_29 Zn5_7 1_555 1_555
O9_30 Zn5_8 1_555 1_555

#END
