
###############################################################################
#
# This file contains modified crystal structure data generated from the
# MOF subset of the Cambridge Structural Database (CSD) v543 
# hosted by the Cambridge Crystallographic Data Centre (CCDC).
#
# This work is licensed under the Creative Commons
# Attribution-NonCommercial-ShareAlike 4.0 International License.
# To view a copy of this license, visit
# http://creativecommons.org/licenses/by-nc-sa/4.0/
# or send a letter to
# Creative Commons, PO Box 1866, Mountain View, CA 94042, USA.
#
# CIF created using the CSD Python API on 29 September 2022
# The structure has been converted into the P1 space group
# The structure has a 3D framework
# The original CSD entry XAKMII is in the monoclinic crystal system
# The framework has been calculated to contain at least 10.0% void space
# The void calculation uses a probe of radius 1.32A, grid spacing 0.4
#
###############################################################################

data_XAKMII
_chemical_formula_moiety         '(C224 H224 N32 O56 S8 Zn12)n'
_symmetry_cell_setting           triclinic
_symmetry_space_group_name_H-M   'P 1'
_symmetry_Int_Tables_number      1
_space_group_name_Hall           'P 1'
loop_
_symmetry_equiv_pos_site_id
_symmetry_equiv_pos_as_xyz
1 x,y,z
_cell_length_a                   15.8608(6)
_cell_length_b                   17.3516(6)
_cell_length_c                   24.3508(9)
_cell_angle_alpha                90
_cell_angle_beta                 98.5030(10)
_cell_angle_gamma                90
_cell_volume                     6627.93
loop_
_atom_site_label
_atom_site_type_symbol
_atom_site_fract_x
_atom_site_fract_y
_atom_site_fract_z
Zn11 Zn 0.14389(3) 0.04087(3) 0.216010(19)
H12 H 0.0185 0.1239 0.4634
H17 H 0.0551 0.0897 0.0345
C18 C 0.0120(3) 0.2245(2) 0.13739(16)
H21 H 0.0445 0.1811 0.1326
H22 H 0.0185 0.2889 0.0676
H26 H 0.0297 0.4445 0.0836
C39 C 0.0544(2) 0.3010(2) 0.32596(16)
C40 C 0.1059(3) 0.3346(3) 0.28511(18)
H41 H 0.1348 0.3799 0.3006
H42 H 0.0689 0.3480 0.2516
H43 H 0.1471 0.2974 0.2768
C41 C 0.0856(3) 0.4005(2) 0.40086(16)
C42 C 0.0331(3) 0.4515(3) 0.4246(2)
C43 C 0.0687(3) 0.5169(3) 0.45113(19)
H45 H 0.0347 0.5520 0.4666
C44 C 0.1555(3) 0.5294(2) 0.45430(16)
C45 C 0.2073(3) 0.4803(2) 0.42847(18)
H46 H 0.2648 0.4913 0.4291
C46 C 0.1714(3) 0.4146(2) 0.40176(18)
H47 H 0.2049 0.3807 0.3847
C47 C 0.1997(3) 0.6826(2) 0.44291(17)
C48 C 0.2630(3) 0.6835(2) 0.40883(18)
H48 H 0.3050 0.6457 0.4126
C49 C 0.2630(3) 0.7403(2) 0.36981(19)
H49 H 0.3043 0.7405 0.3464
C50 C 0.2022(3) 0.7970(3) 0.36534(19)
C51 C 0.1373(3) 0.7954(3) 0.3975(2)
H50 H 0.0948 0.8328 0.3926
C52 C 0.1351(3) 0.7379(3) 0.4371(2)
H51 H 0.0919 0.7364 0.4590
C53 C 0.2908(3) 0.8951(3) 0.3262(2)
H52 H 0.3427 0.8819 0.3471
C54 C 0.2777(3) 0.9508(3) 0.2883(2)
H53 H 0.3194 0.9830 0.2778
C55 C 0.1550(3) 0.8985(2) 0.29232(18)
C56 C 0.0608(3) 0.8784(3) 0.2808(2)
H54 H 0.0492 0.8365 0.3044
H55 H 0.0460 0.8636 0.2427
H56 H 0.0277 0.9225 0.2882
N5 N 0.0070(2) 0.23824(18) 0.31748(13)
N6 N 0.0471(2) 0.33175(19) 0.37622(14)
N7 N 0.2124(2) 0.8604(2) 0.32879(16)
N8 N 0.1904(2) 0.9530(2) 0.26664(16)
O7 O 0.1057(2) 0.04212(18) 0.13503(12)
O10 O 0.0520(2) 0.0857(2) 0.24909(13)
O13 O 0.1459(2) 0.63102(19) 0.53146(13)
O14 O 0.2896(2) 0.58959(18) 0.51225(12)
S2 S 0.20195(7) 0.60932(6) 0.49244(4)
C60 C 0.0385(3) 0.0622(3) 0.53621(18)
H60 H 0.0987 0.0543 0.5349
H61 H 0.0327 0.1058 0.5603
O29 O 0.2552(2) 0.0909(2) 0.21802(14)
H62 H 0.0518 0.0293 0.9380
N18 N 0.1559(2) 0.0609(2) 0.73647(14)
H11 H 0.0590 0.9999 0.4384
C13 C 0.0557(3) 0.9874(3) 0.12014(19)
C14 C 0.0061(3) 0.9894(3) 0.06036(18)
C16 C 0.0485(3) 0.9329(3) 0.02486(19)
H19 H 0.1073 0.9480 0.0246
H20 H 0.0482 0.8817 0.0408
O8 O 0.0468(3) 0.9303(2) 0.15003(15)
C57 C 0.0452(3) 0.9733(2) 0.61796(17)
C58 C 0.0014(3) 0.9904(3) 0.55982(16)
C59 C 0.0071(3) 0.9207(3) 0.52169(17)
H59 H 0.0665 0.9089 0.5200
O15 O 0.12605(18) 0.96418(17) 0.62506(12)
O16 O 0.0025(2) 0.9680(2) 0.65620(13)
O25 O 0.1289(2) 0.35032(17) 0.02249(12)
O26 O 0.27412(19) 0.38853(17) 0.00469(12)
Zn9 Zn 0.17106(3) 0.95586(3) 0.704907(18)
C63 C 0.0015(4) 0.9315(3) 0.96550(19)
H64 H 0.0317 0.8979 0.9432
C65 C 0.3402(3) 0.9138(2) 0.74898(18)
C66 C 0.4372(3) 0.9192(3) 0.75105(18)
H67 H 0.4518 0.9733 0.7461
C67 C 0.4643(3) 0.8731(4) 0.70295(19)
H68 H 0.4354 0.8935 0.6681
H69 H 0.4470 0.8198 0.7057
C68 C 0.5605(3) 0.8763(4) 0.70294(19)
H70 H 0.5755 0.8433 0.6737
H71 H 0.5769 0.9286 0.6952
C69 C 0.6094(3) 0.8505(3) 0.75868(19)
H72 H 0.5930 0.7969 0.7643
C70 C 0.5816(3) 0.8975(3) 0.80542(18)
H73 H 0.6115 0.8793 0.8406
H74 H 0.5970 0.9510 0.8012
C71 C 0.4857(3) 0.8920(3) 0.80601(18)
H75 H 0.4702 0.9235 0.8359
H76 H 0.4704 0.8391 0.8127
C72 C 0.7059(3) 0.8511(3) 0.7584(2)
C73 C 0.0687(2) 0.6940(2) 0.82587(16)
C75 C 0.0021(3) 0.7163(2) 0.89876(17)
C76 C 0.1193(3) 0.6557(3) 0.78673(19)
H79 H 0.1412 0.6075 0.8023
H80 H 0.0835 0.6464 0.7520
H81 H 0.1659 0.6884 0.7807
C77 C 0.0850(3) 0.5930(2) 0.89986(16)
C78 C 0.0279(3) 0.5432(2) 0.91997(16)
C79 C 0.0580(3) 0.4747(2) 0.94544(16)
H83 H 0.0210 0.4405 0.9590
C80 C 0.1441(3) 0.4585(2) 0.95015(16)
C81 C 0.2007(3) 0.5076(2) 0.92886(18)
H84 H 0.2581 0.4948 0.9315
C82 C 0.1706(3) 0.5756(2) 0.90386(19)
H85 H 0.2076 0.6094 0.8898
C83 C 0.1803(3) 0.3050(2) 0.93082(16)
C84 C 0.2413(3) 0.3103(2) 0.89484(17)
H86 H 0.2853 0.3460 0.9013
C85 C 0.2349(3) 0.2611(3) 0.84944(18)
H87 H 0.2741 0.2642 0.8247
C86 C 0.1699(3) 0.2074(2) 0.84127(17)
C87 C 0.1099(3) 0.2016(2) 0.87723(18)
H88 H 0.0668 0.1649 0.8711
C88 C 0.1149(3) 0.2515(2) 0.92279(17)
H89 H 0.0750 0.2488 0.9472
C89 C 0.1553(3) 0.1900(2) 0.73855(18)
H90 H 0.1539 0.2416 0.7281
C90 C 0.1512(3) 0.1280(2) 0.70465(18)
H91 H 0.1461 0.1298 0.6661
C91 C 0.1633(3) 0.0830(2) 0.78915(17)
C92 C 0.1717(4) 0.0300(3) 0.8372(2)
H92 H 0.1760 0.0593 0.8709
C93 C 0.0328(3) 0.7709(2) 0.63593(16)
H95 H 0.0703 0.8104 0.6306
C94 C 0.0088(3) 0.7141(3) 0.59959(18)
H96 H 0.0263 0.7069 0.5651
H100 H 0.0249 0.5584 0.5774
N9 N 0.0294(2) 0.76184(19) 0.81727(14)
N10 N 0.0538(2) 0.66462(18) 0.87513(14)
N11 N 0.1620(2) 0.1609(2) 0.79210(15)
O19 O 0.3094(2) 0.87244(19) 0.78241(13)
O20 O 0.29668(19) 0.95323(18) 0.71046(13)
O21 O 0.7398(3) 0.7975(3) 0.7370(2)
O22 O 0.7448(2) 0.9091(2) 0.78198(14)
O23 O 0.13577(18) 0.86535(17) 0.74102(12)
Zn4 Zn 0.02324(3) 0.83044(3) 0.750126(19)
S3 S 0.18569(6) 0.37375(6) 0.98447(4)
Zn13 Zn 0.85611(3) 0.95913(3) 0.783990(19)
H93 H 0.1226 0.9971 0.8343
H94 H 0.2221 0.9991 0.8376
H37 H 0.8774 0.0029 0.1657
H38 H 0.7779 0.0009 0.1624
Zn7 Zn 0.82894(3) 0.04414(3) 0.295093(18)
C1 C 0.6598(3) 0.0862(2) 0.25102(18)
C2 C 0.5628(3) 0.0808(3) 0.24895(18)
H1 H 0.5482 0.0267 0.2539
C3 C 0.5357(3) 0.1269(4) 0.29705(19)
H2 H 0.5646 0.1065 0.3319
H3 H 0.5530 0.1802 0.2943
C4 C 0.4395(3) 0.1237(4) 0.29706(19)
H4 H 0.4245 0.1567 0.3263
H5 H 0.4231 0.0714 0.3048
C5 C 0.3906(3) 0.1495(3) 0.24132(19)
H6 H 0.4070 0.2031 0.2357
C6 C 0.4184(3) 0.1025(3) 0.19458(18)
H7 H 0.3885 0.1207 0.1594
H8 H 0.4030 0.0490 0.1988
C7 C 0.5143(3) 0.1080(3) 0.19399(18)
H9 H 0.5298 0.0765 0.1641
H10 H 0.5296 0.1609 0.1873
C8 C 0.2941(3) 0.1489(3) 0.2416(2)
C9 C 0.9548(3) 0.0267(2) 0.38204(17)
C10 C 0.9986(3) 0.0096(3) 0.44018(16)
C11 C 0.9929(3) 0.0793(3) 0.47831(17)
H13 H 0.9335 0.0911 0.4800
C15 C 0.9985(4) 0.0685(3) 0.03450(19)
H18 H 0.9683 0.1021 0.0568
C17 C 0.9313(2) 0.3060(2) 0.17413(16)
C19 C 0.9979(3) 0.2837(2) 0.10124(17)
C20 C 0.8807(3) 0.3443(3) 0.21327(19)
H23 H 0.8588 0.3925 0.1977
H24 H 0.9165 0.3536 0.2480
H25 H 0.8341 0.3116 0.2193
C21 C 0.9150(3) 0.4070(2) 0.10014(16)
C22 C 0.9721(3) 0.4568(2) 0.08003(16)
C23 C 0.9420(3) 0.5253(2) 0.05456(16)
H27 H 0.9790 0.5595 0.0410
C24 C 0.8559(3) 0.5415(2) 0.04985(16)
C25 C 0.7993(3) 0.4924(2) 0.07114(18)
H28 H 0.7419 0.5052 0.0685
C26 C 0.8294(3) 0.4244(2) 0.09614(19)
H29 H 0.7924 0.3906 0.1102
C27 C 0.8197(3) 0.6950(2) 0.06918(16)
C28 C 0.7587(3) 0.6897(2) 0.10516(17)
H30 H 0.7147 0.6540 0.0987
C29 C 0.7651(3) 0.7389(3) 0.15056(18)
H31 H 0.7259 0.7358 0.1753
C30 C 0.8301(3) 0.7926(2) 0.15873(17)
C31 C 0.8901(3) 0.7984(2) 0.12277(18)
H32 H 0.9332 0.8351 0.1289
C32 C 0.8851(3) 0.7485(2) 0.07721(17)
H33 H 0.9250 0.7512 0.0528
C33 C 0.8447(3) 0.8100(2) 0.26145(18)
H34 H 0.8461 0.7584 0.2719
C34 C 0.8488(3) 0.8720(2) 0.29535(18)
H35 H 0.8539 0.8702 0.3339
C35 C 0.8367(3) 0.9170(2) 0.21085(17)
C36 C 0.8283(4) 0.9700(3) 0.1628(2)
H36 H 0.8240 0.9407 0.1291
C37 C 0.9672(3) 0.2291(2) 0.36407(16)
H39 H 0.9297 0.1896 0.3694
C38 C 0.9912(3) 0.2859(3) 0.40041(18)
H40 H 0.9737 0.2931 0.4349
H44 H 0.9751 0.4416 0.4226
N1 N 0.9706(2) 0.23816(19) 0.18273(14)
N2 N 0.9462(2) 0.33538(18) 0.12487(14)
N3 N 0.8380(2) 0.8391(2) 0.20790(15)
N4 N 0.8441(2) 0.9391(2) 0.26353(14)
O1 O 0.6906(2) 0.12756(19) 0.21759(13)
O2 O 0.70332(19) 0.04677(18) 0.28954(13)
O3 O 0.2602(3) 0.2025(3) 0.2630(2)
O5 O 0.87395(18) 0.03582(17) 0.37494(12)
O6 O 0.9975(2) 0.0320(2) 0.34380(13)
O9 O 0.86423(18) 0.13465(17) 0.25898(12)
Zn1 Zn 0.97676(3) 0.16956(3) 0.249874(19)
S1 S 0.81431(6) 0.62625(6) 0.01553(4)
H57 H 0.9410 0.0001 0.5616
O11 O 0.8711(2) 0.64968(17) 0.97751(12)
O12 O 0.72588(19) 0.61147(17) 0.99531(12)
C61 C 0.9443(3) 0.0126(3) 0.87986(19)
C62 C 0.9939(3) 0.0106(3) 0.93964(18)
C64 C 0.9515(3) 0.0671(3) 0.97514(19)
H65 H 0.8927 0.0520 0.9754
H66 H 0.9518 0.1183 0.9592
O18 O 0.9532(3) 0.0697(2) 0.84997(15)
N20 N 0.8096(2) 0.0470(2) 0.73336(16)
C12 C 0.9615(3) 0.9378(3) 0.46379(18)
H14 H 0.9013 0.9457 0.4651
H15 H 0.9673 0.8942 0.4397
H16 H 0.9482 0.9707 0.0620
H58 H 0.9815 0.8761 0.5366
H63 H 0.9449 0.9103 0.9655
O17 O 0.8943(2) 0.95788(18) 0.86497(12)
C74 C 0.9880(3) 0.7755(2) 0.86261(16)
H77 H 0.9555 0.8189 0.8674
H78 H 0.9815 0.7111 0.9324
H82 H 0.9703 0.5555 0.9164
C95 C 0.9456(2) 0.6990(2) 0.67404(16)
C96 C 0.8941(3) 0.6654(3) 0.71489(18)
H97 H 0.8652 0.6201 0.6994
H98 H 0.9311 0.6520 0.7484
H99 H 0.8529 0.7026 0.7232
C97 C 0.9144(3) 0.5995(2) 0.59914(16)
C98 C 0.9669(3) 0.5485(3) 0.5754(2)
C99 C 0.9313(3) 0.4831(3) 0.54887(19)
H101 H 0.9653 0.4480 0.5334
C100 C 0.8445(3) 0.4706(2) 0.54570(16)
C101 C 0.7927(3) 0.5197(2) 0.57153(18)
H102 H 0.7352 0.5087 0.5709
C102 C 0.8286(3) 0.5854(2) 0.59824(18)
H103 H 0.7951 0.6193 0.6153
C103 C 0.8003(3) 0.3174(2) 0.55709(17)
C104 C 0.7370(3) 0.3165(2) 0.59117(18)
H104 H 0.6950 0.3543 0.5874
C105 C 0.7370(3) 0.2597(2) 0.63019(19)
H105 H 0.6957 0.2595 0.6536
C106 C 0.7978(3) 0.2030(3) 0.63466(19)
C107 C 0.8627(3) 0.2046(3) 0.6025(2)
H106 H 0.9052 0.1672 0.6074
C108 C 0.8649(3) 0.2621(3) 0.5629(2)
H107 H 0.9081 0.2636 0.5410
C109 C 0.7092(3) 0.1049(3) 0.6738(2)
H108 H 0.6573 0.1181 0.6529
C110 C 0.7223(3) 0.0492(3) 0.7117(2)
H109 H 0.6806 0.0170 0.7222
C111 C 0.8450(3) 0.1015(2) 0.70768(18)
C112 C 0.9392(3) 0.1216(3) 0.7192(2)
H110 H 0.9508 0.1635 0.6956
H111 H 0.9540 0.1364 0.7573
H112 H 0.9723 0.0775 0.7118
N13 N 0.9930(2) 0.76176(18) 0.68252(13)
N14 N 0.9529(2) 0.66825(19) 0.62378(14)
N15 N 0.7876(2) 0.1396(2) 0.67121(16)
O24 O 0.9480(2) 0.9143(2) 0.75091(13)
O27 O 0.8541(2) 0.36898(19) 0.46854(13)
O28 O 0.7104(2) 0.41041(18) 0.48775(12)
S4 S 0.79805(7) 0.39068(6) 0.50756(4)
C4_2 C 0.0605(3) 0.6237(4) 0.20294(19)
H4_2 H 0.0755 0.6567 0.1737
H5_2 H 0.0769 0.5714 0.1952
C5_2 C 0.1094(3) 0.6495(3) 0.25868(19)
H6_2 H 0.0930 0.7031 0.2643
C6_2 C 0.0816(3) 0.6025(3) 0.30542(18)
H7_2 H 0.1115 0.6207 0.3406
H8_2 H 0.0970 0.5490 0.3012
C8_2 C 0.2059(3) 0.6489(3) 0.2584(2)
O3_2 O 0.2398(3) 0.7025(3) 0.2370(2)
O4 O 0.2448(2) 0.5909(2) 0.28198(14)
Zn10 Zn 0.35611(3) 0.54087(3) 0.283990(19)
C23_2 C 0.5580(3) 0.0253(2) 0.44544(16)
H27_2 H 0.5210 0.0595 0.4590
C24_2 C 0.6441(3) 0.0415(2) 0.45015(16)
H28_2 H 0.7581 0.0052 0.4315
C27_2 C 0.6803(3) 0.1950(2) 0.43082(16)
C28_2 C 0.7413(3) 0.1897(2) 0.39484(17)
H30_2 H 0.7853 0.1540 0.4013
C29_2 C 0.7349(3) 0.2389(3) 0.34944(18)
H31_2 H 0.7741 0.2358 0.3247
C30_2 C 0.6699(3) 0.2926(2) 0.34127(17)
C31_2 C 0.6099(3) 0.2984(2) 0.37723(18)
H32_2 H 0.5668 0.3351 0.3711
C32_2 C 0.6149(3) 0.2485(2) 0.42279(17)
H33_2 H 0.5750 0.2512 0.4472
C33_2 C 0.6553(3) 0.3100(2) 0.23855(18)
H34_2 H 0.6539 0.2584 0.2281
C34_2 C 0.6512(3) 0.3720(2) 0.20465(18)
H35_2 H 0.6461 0.3702 0.1661
C35_2 C 0.6633(3) 0.4170(2) 0.28915(17)
C36_2 C 0.6717(4) 0.4700(3) 0.3372(2)
H36_2 H 0.6760 0.4407 0.3709
H37_2 H 0.6226 0.5029 0.3343
H38_2 H 0.7221 0.5009 0.3376
C43_2 C 0.4313(3) 0.0169(3) 0.04887(19)
H45_2 H 0.4653 0.0520 0.0334
C44_2 C 0.3445(3) 0.0294(2) 0.04570(16)
C47_2 C 0.3003(3) 0.1826(2) 0.05709(17)
C48_2 C 0.2370(3) 0.1835(2) 0.09117(18)
H48_2 H 0.1950 0.1457 0.0874
C49_2 C 0.2370(3) 0.2403(2) 0.13019(19)
H49_2 H 0.1957 0.2405 0.1536
C50_2 C 0.2978(3) 0.2970(3) 0.13466(19)
C51_2 C 0.3627(3) 0.2954(3) 0.1025(2)
H50_2 H 0.4052 0.3328 0.1074
C52_2 C 0.3649(3) 0.2379(3) 0.0629(2)
H51_2 H 0.4081 0.2364 0.0410
C53_2 C 0.2092(3) 0.3951(3) 0.1738(2)
H52_2 H 0.1573 0.3819 0.1529
C54_2 C 0.2223(3) 0.4508(3) 0.2117(2)
H53_2 H 0.1806 0.4830 0.2222
C55_2 C 0.3450(3) 0.3985(2) 0.20768(18)
C56_2 C 0.4392(3) 0.3784(3) 0.2192(2)
H54_2 H 0.4508 0.3365 0.1956
H55_2 H 0.4540 0.3636 0.2573
H56_2 H 0.4723 0.4225 0.2118
N3_2 N 0.6620(2) 0.3391(2) 0.29210(15)
N4_2 N 0.6559(2) 0.4391(2) 0.23647(14)
N7_2 N 0.2876(2) 0.3604(2) 0.17121(16)
N8_2 N 0.3096(2) 0.4530(2) 0.23336(16)
O11_2 O 0.6289(2) 0.14968(17) 0.52249(12)
O12_2 O 0.77412(19) 0.11147(17) 0.50469(12)
S1_2 S 0.68569(6) 0.12625(6) 0.48447(4)
S2_2 S 0.29805(7) 0.10932(6) 0.00756(4)
Zn7_2 Zn 0.67106(3) 0.54414(3) 0.204907(18)
C1_2 C 0.8402(3) 0.5862(2) 0.24898(18)
C2_2 C 0.9372(3) 0.5808(3) 0.25105(18)
H1_2 H 0.9518 0.5267 0.2461
C3_2 C 0.9643(3) 0.6269(4) 0.20295(19)
H2_2 H 0.9354 0.6065 0.1681
H3_2 H 0.9470 0.6802 0.2057
C7_2 C 0.9857(3) 0.6080(3) 0.30601(18)
H9_2 H 0.9702 0.5765 0.3359
H10_2 H 0.9704 0.6609 0.3127
C9_2 C 0.5452(3) 0.5267(2) 0.11796(17)
C10_2 C 0.5014(3) 0.5096(3) 0.05982(16)
H11_2 H 0.4410 0.4999 0.0616
C11_2 C 0.5071(3) 0.5793(3) 0.02169(17)
H12_2 H 0.4815 0.6239 0.0366
H13_2 H 0.5665 0.5911 0.0200
C12_2 C 0.5385(3) 0.4378(3) 0.03621(18)
H14_2 H 0.5987 0.4457 0.0349
H15_2 H 0.5327 0.3942 0.0603
C13_2 C 0.4443(3) 0.4874(3) 0.37986(19)
C14_2 C 0.4939(3) 0.4894(3) 0.43964(18)
H16_2 H 0.5518 0.4707 0.4380
C15_2 C 0.5015(4) 0.5685(3) 0.46550(19)
H17_2 H 0.4449 0.5897 0.4655
H18_2 H 0.5317 0.6021 0.4432
C16_2 C 0.4515(3) 0.4329(3) 0.47514(19)
H19_2 H 0.3927 0.4480 0.4754
H20_2 H 0.4518 0.3817 0.4592
C17_2 C 0.5687(2) 0.8060(2) 0.32587(16)
C18_2 C 0.4880(3) 0.7245(2) 0.36261(16)
H21_2 H 0.4555 0.6811 0.3674
C19_2 C 0.5021(3) 0.7837(2) 0.39876(17)
H22_2 H 0.4815 0.7889 0.4324
C20_2 C 0.6193(3) 0.8443(3) 0.28673(19)
H23_2 H 0.6412 0.8925 0.3023
H24_2 H 0.5835 0.8536 0.2520
H25_2 H 0.6659 0.8116 0.2807
C21_2 C 0.5850(3) 0.9070(2) 0.39986(16)
C22_2 C 0.5279(3) 0.9568(2) 0.41997(16)
H26_2 H 0.4703 0.9445 0.4164
C25_2 C 0.7007(3) 0.9924(2) 0.42886(18)
C26_2 C 0.6706(3) 0.9244(2) 0.40386(19)
H29_2 H 0.7076 0.8906 0.3898
C37_2 C 0.5328(3) 0.7291(2) 0.13593(16)
H39_2 H 0.5703 0.6896 0.1306
C38_2 C 0.5088(3) 0.7859(3) 0.09959(18)
H40_2 H 0.5263 0.7931 0.0651
C39_2 C 0.4456(2) 0.8010(2) 0.17404(16)
C40_2 C 0.3941(3) 0.8346(3) 0.21489(18)
H41_2 H 0.3652 0.8799 0.1994
H42_2 H 0.4311 0.8480 0.2484
H43_2 H 0.3529 0.7974 0.2232
C41_2 C 0.4144(3) 0.9005(2) 0.09914(16)
C42_2 C 0.4669(3) 0.9515(3) 0.0754(2)
H44_2 H 0.5249 0.9416 0.0774
C45_2 C 0.2927(3) 0.9803(2) 0.07153(18)
H46_2 H 0.2352 0.9913 0.0709
C46_2 C 0.3286(3) 0.9146(2) 0.09824(18)
H47_2 H 0.2951 0.8807 0.1153
N1_2 N 0.5294(2) 0.73816(19) 0.31727(14)
N2_2 N 0.5538(2) 0.83538(18) 0.37513(14)
N5_2 N 0.4930(2) 0.73824(18) 0.18252(13)
N6_2 N 0.4529(2) 0.83175(19) 0.12378(14)
O1_2 O 0.8094(2) 0.62756(19) 0.28241(13)
O2_2 O 0.79668(19) 0.54677(18) 0.21046(13)
O5_2 O 0.62605(18) 0.53582(17) 0.12506(12)
O6_2 O 0.5025(2) 0.5320(2) 0.15620(13)
O7_2 O 0.3943(2) 0.54212(18) 0.36497(12)
O8_2 O 0.4532(3) 0.4303(2) 0.34997(15)
O9_2 O 0.63577(18) 0.63465(17) 0.24102(12)
O10_2 O 0.4480(2) 0.5857(2) 0.25091(13)
Zn1_2 Zn 0.52324(3) 0.66956(3) 0.250126(19)
C61_2 C 0.5557(3) 0.5126(3) 0.62014(19)
C62_2 C 0.5061(3) 0.5106(3) 0.56036(18)
H62_2 H 0.4482 0.5293 0.5620
C63_2 C 0.4985(4) 0.4315(3) 0.53450(19)
H63_2 H 0.5551 0.4103 0.5345
H64_2 H 0.4683 0.3979 0.5568
C64_2 C 0.5485(3) 0.5671(3) 0.52486(19)
H65_2 H 0.6073 0.5520 0.5246
H66_2 H 0.5482 0.6183 0.5408
O17_2 O 0.6057(2) 0.45788(18) 0.63503(12)
O18_2 O 0.5468(3) 0.5697(2) 0.65003(15)
C65_2 C 0.1598(3) 0.4138(2) 0.75102(18)
C66_2 C 0.0628(3) 0.4192(3) 0.74895(18)
H67_2 H 0.0482 0.4733 0.7539
C67_2 C 0.0357(3) 0.3731(4) 0.79705(19)
H68_2 H 0.0646 0.3935 0.8319
H69_2 H 0.0530 0.3198 0.7943
C71_2 C 0.0143(3) 0.3920(3) 0.69399(18)
H75_2 H 0.0298 0.4235 0.6641
H76_2 H 0.0296 0.3391 0.6873
C73_2 C 0.4313(2) 0.1940(2) 0.67413(16)
C74_2 C 0.5120(3) 0.2755(2) 0.63739(16)
H77_2 H 0.5445 0.3189 0.6326
C75_2 C 0.4979(3) 0.2163(2) 0.60124(17)
H78_2 H 0.5185 0.2111 0.5676
C76_2 C 0.3807(3) 0.1557(3) 0.71327(19)
H79_2 H 0.3588 0.1075 0.6977
H80_2 H 0.4165 0.1464 0.7480
H81_2 H 0.3341 0.1884 0.7193
C77_2 C 0.4150(3) 0.0930(2) 0.60014(16)
C78_2 C 0.4721(3) 0.0432(2) 0.58003(16)
H82_2 H 0.5297 0.0555 0.5836
C81_2 C 0.2993(3) 0.0076(2) 0.57114(18)
C82_2 C 0.3294(3) 0.0756(2) 0.59614(19)
H85_2 H 0.2924 0.1094 0.6102
C93_2 C 0.4672(3) 0.2709(2) 0.86407(16)
H95_2 H 0.4297 0.3104 0.8694
C94_2 C 0.4912(3) 0.2141(3) 0.90041(18)
H96_2 H 0.4737 0.2069 0.9349
C95_2 C 0.5544(2) 0.1990(2) 0.82596(16)
C96_2 C 0.6059(3) 0.1654(3) 0.78511(18)
H97_2 H 0.6348 0.1201 0.8006
H98_2 H 0.5689 0.1520 0.7516
H99_2 H 0.6471 0.2026 0.7768
C97_2 C 0.5856(3) 0.0995(2) 0.90086(16)
C98_2 C 0.5331(3) 0.0485(3) 0.9246(2)
H100_2 H 0.4751 0.0584 0.9226
C101_2 C 0.7073(3) 0.0197(2) 0.92847(18)
H102_2 H 0.7648 0.0087 0.9291
C102_2 C 0.6714(3) 0.0854(2) 0.90176(18)
H103_2 H 0.7049 0.1193 0.8847
N9_2 N 0.4706(2) 0.26184(19) 0.68273(14)
N10_2 N 0.4462(2) 0.16462(18) 0.62487(14)
N13_2 N 0.5070(2) 0.26176(18) 0.81748(13)
N14_2 N 0.5471(2) 0.16825(19) 0.87622(14)
O19_2 O 0.1906(2) 0.37244(19) 0.71759(13)
O20_2 O 0.20332(19) 0.45323(18) 0.78954(13)
O23_2 O 0.36423(18) 0.36535(17) 0.75898(12)
O24_2 O 0.5520(2) 0.4143(2) 0.74909(13)
Zn4_2 Zn 0.47676(3) 0.33044(3) 0.749874(19)
Zn5 Zn 0.32894(3) 0.45586(3) 0.795093(18)
Zn6 Zn 0.64389(3) 0.45913(3) 0.716010(19)
N18_2 N 0.3441(2) 0.5609(2) 0.76353(14)
N20_2 N 0.6904(2) 0.5470(2) 0.76664(16)
O30 O 0.7552(2) 0.4091(2) 0.71802(14)
O31 O 0.37395(18) 0.46418(17) 0.87494(12)
C57_2 C 0.4548(3) 0.4733(2) 0.88204(17)
C58_2 C 0.4986(3) 0.4904(3) 0.94018(16)
H57_2 H 0.5590 0.5001 0.9384
C59_2 C 0.4929(3) 0.4207(3) 0.97831(17)
H58_2 H 0.5185 0.3761 0.9634
H59_2 H 0.4335 0.4089 0.9800
C60_2 C 0.4615(3) 0.5622(3) 0.96379(18)
H60_2 H 0.4013 0.5543 0.9651
H61_2 H 0.4673 0.6058 0.9397
O16_2 O 0.4975(2) 0.4680(2) 0.84380(13)
C79_2 C 0.4420(3) 0.9747(2) 0.55456(16)
H83_2 H 0.4790 0.9405 0.5410
C80_2 C 0.3559(3) 0.9585(2) 0.54985(16)
H84_2 H 0.2419 0.9948 0.5685
C83_2 C 0.3197(3) 0.8050(2) 0.56918(16)
C84_2 C 0.2587(3) 0.8103(2) 0.60516(17)
H86_2 H 0.2147 0.8460 0.5987
C85_2 C 0.2651(3) 0.7611(3) 0.65056(18)
H87_2 H 0.2259 0.7642 0.6753
C86_2 C 0.3301(3) 0.7074(2) 0.65873(17)
C87_2 C 0.3901(3) 0.7016(2) 0.62277(18)
H88_2 H 0.4332 0.6649 0.6289
C88_2 C 0.3851(3) 0.7515(2) 0.57721(17)
H89_2 H 0.4250 0.7488 0.5528
C89_2 C 0.3447(3) 0.6900(2) 0.76145(18)
H90_2 H 0.3461 0.7416 0.7719
C90_2 C 0.3488(3) 0.6280(2) 0.79535(18)
H91_2 H 0.3539 0.6298 0.8339
C91_2 C 0.3367(3) 0.5830(2) 0.71085(17)
C92_2 C 0.3283(4) 0.5300(3) 0.6628(2)
H92_2 H 0.3240 0.5593 0.6291
H93_2 H 0.3774 0.4971 0.6657
H94_2 H 0.2779 0.4991 0.6624
C99_2 C 0.5687(3) 0.9831(3) 0.95113(19)
H101_2 H 0.5347 0.9480 0.9666
C100_2 C 0.6555(3) 0.9706(2) 0.95430(16)
C103_2 C 0.6997(3) 0.8174(2) 0.94291(17)
C104_2 C 0.7630(3) 0.8165(2) 0.90883(18)
H104_2 H 0.8050 0.8543 0.9126
C105_2 C 0.7630(3) 0.7597(2) 0.86981(19)
H105_2 H 0.8043 0.7595 0.8464
C106_2 C 0.7022(3) 0.7030(3) 0.86534(19)
C107_2 C 0.6373(3) 0.7046(3) 0.8975(2)
H106_2 H 0.5948 0.6672 0.8926
C108_2 C 0.6351(3) 0.7621(3) 0.9371(2)
H107_2 H 0.5919 0.7636 0.9590
C109_2 C 0.7908(3) 0.6049(3) 0.8262(2)
H108_2 H 0.8427 0.6181 0.8471
C110_2 C 0.7777(3) 0.5492(3) 0.7883(2)
H109_2 H 0.8194 0.5170 0.7778
C111_2 C 0.6550(3) 0.6015(2) 0.79232(18)
C112_2 C 0.5608(3) 0.6216(3) 0.7808(2)
H110_2 H 0.5492 0.6635 0.8044
H111_2 H 0.5460 0.6364 0.7427
H112_2 H 0.5277 0.5775 0.7882
N11_2 N 0.3380(2) 0.6609(2) 0.70790(15)
N15_2 N 0.7124(2) 0.6396(2) 0.82879(16)
O25_2 O 0.3711(2) 0.85032(17) 0.47751(12)
O26_2 O 0.22588(19) 0.88853(17) 0.49531(12)
S3_2 S 0.31431(6) 0.87375(6) 0.51553(4)
S4_2 S 0.70195(7) 0.89068(6) 0.99244(4)
C68_2 C 0.9395(3) 0.3763(4) 0.79706(19)
H70_2 H 0.9245 0.3433 0.8263
H71_2 H 0.9231 0.4286 0.8048
C69_2 C 0.8906(3) 0.3505(3) 0.74132(19)
H72_2 H 0.9070 0.2969 0.7357
C70_2 C 0.9184(3) 0.3975(3) 0.69458(18)
H73_2 H 0.8885 0.3793 0.6594
H74_2 H 0.9030 0.4510 0.6988
C72_2 C 0.7941(3) 0.3511(3) 0.7416(2)
O21_2 O 0.7602(3) 0.2975(3) 0.7630(2)
O13_2 O 0.3541(2) 0.13102(19) 0.96854(13)
O14_2 O 0.2104(2) 0.08959(18) 0.98775(12)
O27_2 O 0.6459(2) 0.86898(19) 0.03146(13)
O28_2 O 0.7896(2) 0.91041(18) 0.01225(12)
loop_
_geom_bond_atom_site_label_1
_geom_bond_atom_site_label_2
_geom_bond_site_symmetry_1
_geom_bond_site_symmetry_2
C18 H21 1_555 1_555
C39 C40 1_555 1_555
C40 H41 1_555 1_555
H42 C40 1_555 1_555
H43 C40 1_555 1_555
C41 C42 1_555 1_555
C43 C42 1_555 1_555
H45 C43 1_555 1_555
C44 C43 1_555 1_555
C45 C44 1_555 1_555
H46 C45 1_555 1_555
C46 C41 1_555 1_555
H47 C46 1_555 1_555
C47 C48 1_555 1_555
C48 H48 1_555 1_555
C49 C48 1_555 1_555
H49 C49 1_555 1_555
C50 C49 1_555 1_555
C51 C50 1_555 1_555
H50 C51 1_555 1_555
C52 C47 1_555 1_555
H51 C52 1_555 1_555
C53 H52 1_555 1_555
C54 C53 1_555 1_555
H53 C54 1_555 1_555
C55 C56 1_555 1_555
C56 H54 1_555 1_555
H55 C56 1_555 1_555
H56 C56 1_555 1_555
N7 C50 1_555 1_555
N8 C54 1_555 1_555
O13 S2 1_555 1_555
O14 S2 1_555 1_555
Zn11 O7 1_555 1_555
S2 C44 1_555 1_555
H60 C60 1_555 1_555
H61 C60 1_555 1_555
O29 Zn11 1_555 1_555
C39 N5 1_555 1_555
C39 N6 1_555 1_555
C41 N6 1_555 1_555
C45 C46 1_555 1_555
C47 S2 1_555 1_555
C51 C52 1_555 1_555
C53 N7 1_555 1_555
C55 N7 1_555 1_555
C55 N8 1_555 1_555
O10 Zn11 1_555 1_555
C13 C14 1_555 1_555
C16 C14 1_555 1_555
H19 C16 1_555 1_555
H20 C16 1_555 1_555
O8 C13 1_555 1_555
C57 C58 1_555 1_555
H59 C59 1_555 1_555
O15 C57 1_555 1_555
O16 C57 1_555 1_555
Zn9 O15 1_555 1_555
C58 C59 1_555 1_555
H64 C63 1_555 1_555
C65 C66 1_555 1_555
C66 H67 1_555 1_555
C67 C66 1_555 1_555
H68 C67 1_555 1_555
H69 C67 1_555 1_555
C68 C67 1_555 1_555
H70 C68 1_555 1_555
H71 C68 1_555 1_555
C69 C68 1_555 1_555
H72 C69 1_555 1_555
C70 C69 1_555 1_555
H73 C70 1_555 1_555
H74 C70 1_555 1_555
C71 C66 1_555 1_555
H75 C71 1_555 1_555
H76 C71 1_555 1_555
C72 C69 1_555 1_555
C73 C76 1_555 1_555
C76 H79 1_555 1_555
H80 C76 1_555 1_555
H81 C76 1_555 1_555
C77 C78 1_555 1_555
C79 C78 1_555 1_555
H83 C79 1_555 1_555
C80 C79 1_555 1_555
C81 C80 1_555 1_555
H84 C81 1_555 1_555
C82 C77 1_555 1_555
H85 C82 1_555 1_555
C83 C84 1_555 1_555
C84 H86 1_555 1_555
C85 C84 1_555 1_555
H87 C85 1_555 1_555
C86 C85 1_555 1_555
C87 C86 1_555 1_555
H88 C87 1_555 1_555
C88 C83 1_555 1_555
H89 C88 1_555 1_555
C89 H90 1_555 1_555
C90 C89 1_555 1_555
H91 C90 1_555 1_555
C91 C92 1_555 1_555
C92 H92 1_555 1_555
C93 H95 1_555 1_555
C94 C93 1_555 1_555
H96 C94 1_555 1_555
N9 C73 1_555 1_555
N10 C73 1_555 1_555
N11 C86 1_555 1_555
N18 C90 1_555 1_555
O19 C65 1_555 1_555
O20 C65 1_555 1_555
O21 C72 1_555 1_555
O22 C72 1_555 1_555
O23 Zn4 1_555 1_555
Zn4 N9 1_555 1_555
Zn9 O20 1_555 1_555
S3 C80 1_555 1_555
Zn13 O22 1_555 1_555
C70 C71 1_555 1_555
C75 N10 1_555 1_555
C77 N10 1_555 1_555
C81 C82 1_555 1_555
C83 S3 1_555 1_555
C87 C88 1_555 1_555
C89 N11 1_555 1_555
C91 N11 1_555 1_555
C91 N18 1_555 1_555
O23 Zn9 1_555 1_555
C1 C2 1_555 1_555
C2 H1 1_555 1_555
C3 C2 1_555 1_555
H2 C3 1_555 1_555
H3 C3 1_555 1_555
C4 C3 1_555 1_555
H4 C4 1_555 1_555
H5 C4 1_555 1_555
C5 C4 1_555 1_555
H6 C5 1_555 1_555
C6 C5 1_555 1_555
H7 C6 1_555 1_555
H8 C6 1_555 1_555
C7 C2 1_555 1_555
H9 C7 1_555 1_555
H10 C7 1_555 1_555
C8 C5 1_555 1_555
C9 C10 1_555 1_555
C11 C10 1_555 1_555
H13 C11 1_555 1_555
H18 C15 1_555 1_555
C17 C20 1_555 1_555
C20 H23 1_555 1_555
H24 C20 1_555 1_555
H25 C20 1_555 1_555
C21 C22 1_555 1_555
C23 C22 1_555 1_555
H27 C23 1_555 1_555
C24 C23 1_555 1_555
C25 C24 1_555 1_555
H28 C25 1_555 1_555
C26 C21 1_555 1_555
H29 C26 1_555 1_555
C27 C28 1_555 1_555
C28 H30 1_555 1_555
C29 C28 1_555 1_555
H31 C29 1_555 1_555
C30 C29 1_555 1_555
C31 C30 1_555 1_555
H32 C31 1_555 1_555
C32 C27 1_555 1_555
H33 C32 1_555 1_555
C33 H34 1_555 1_555
C34 C33 1_555 1_555
H35 C34 1_555 1_555
C35 C36 1_555 1_555
C36 H36 1_555 1_555
C37 H39 1_555 1_555
C38 C37 1_555 1_555
H40 C38 1_555 1_555
N1 C17 1_555 1_555
N2 C17 1_555 1_555
N3 C30 1_555 1_555
N4 C34 1_555 1_555
O1 C1 1_555 1_555
O2 C1 1_555 1_555
O3 C8 1_555 1_555
O29 C8 1_555 1_555
O5 C9 1_555 1_555
O6 C9 1_555 1_555
O9 Zn1 1_555 1_555
Zn1 N1 1_555 1_555
Zn7 O2 1_555 1_555
S1 C24 1_555 1_555
C6 C7 1_555 1_555
C19 N2 1_555 1_555
C21 N2 1_555 1_555
C25 C26 1_555 1_555
C27 S1 1_555 1_555
C31 C32 1_555 1_555
C33 N3 1_555 1_555
C35 N3 1_555 1_555
C35 N4 1_555 1_555
O5 Zn7 1_555 1_555
O9 Zn7 1_555 1_555
C61 C62 1_555 1_555
H65 C64 1_555 1_555
H66 C64 1_555 1_555
O18 C61 1_555 1_555
C62 C64 1_555 1_555
H14 C12 1_555 1_555
H15 C12 1_555 1_555
C74 H77 1_555 1_555
C95 C96 1_555 1_555
C96 H97 1_555 1_555
H98 C96 1_555 1_555
H99 C96 1_555 1_555
C97 C98 1_555 1_555
C99 C98 1_555 1_555
H101 C99 1_555 1_555
C100 C99 1_555 1_555
C101 C100 1_555 1_555
H102 C101 1_555 1_555
C102 C97 1_555 1_555
H103 C102 1_555 1_555
C103 C104 1_555 1_555
C104 H104 1_555 1_555
C105 C104 1_555 1_555
H105 C105 1_555 1_555
C106 C105 1_555 1_555
C107 C106 1_555 1_555
H106 C107 1_555 1_555
C108 C103 1_555 1_555
H107 C108 1_555 1_555
C109 H108 1_555 1_555
C110 C109 1_555 1_555
H109 C110 1_555 1_555
C111 C112 1_555 1_555
C112 H110 1_555 1_555
H111 C112 1_555 1_555
H112 C112 1_555 1_555
N15 C106 1_555 1_555
N20 C110 1_555 1_555
O27 S4 1_555 1_555
O28 S4 1_555 1_555
Zn13 O17 1_555 1_555
S4 C100 1_555 1_555
C95 N13 1_555 1_555
C95 N14 1_555 1_555
C97 N14 1_555 1_555
C101 C102 1_555 1_555
C103 S4 1_555 1_555
C107 C108 1_555 1_555
C109 N15 1_555 1_555
C111 N15 1_555 1_555
C111 N20 1_555 1_555
O24 Zn13 1_555 1_555
H4_2 C4_2 1_555 1_555
H5_2 C4_2 1_555 1_555
C5_2 C4_2 1_555 1_555
H6_2 C5_2 1_555 1_555
C6_2 C5_2 1_555 1_555
H7_2 C6_2 1_555 1_555
H8_2 C6_2 1_555 1_555
C8_2 C5_2 1_555 1_555
O3_2 C8_2 1_555 1_555
O4 C8_2 1_555 1_555
Zn10 O4 1_555 1_555
H27_2 C23_2 1_555 1_555
C24_2 C23_2 1_555 1_555
C27_2 C28_2 1_555 1_555
C28_2 H30_2 1_555 1_555
C29_2 C28_2 1_555 1_555
H31_2 C29_2 1_555 1_555
C30_2 C29_2 1_555 1_555
C31_2 C30_2 1_555 1_555
H32_2 C31_2 1_555 1_555
C32_2 C27_2 1_555 1_555
H33_2 C32_2 1_555 1_555
C33_2 H34_2 1_555 1_555
C34_2 C33_2 1_555 1_555
H35_2 C34_2 1_555 1_555
C35_2 C36_2 1_555 1_555
C36_2 H36_2 1_555 1_555
H37_2 C36_2 1_555 1_555
H38_2 C36_2 1_555 1_555
H45_2 C43_2 1_555 1_555
C44_2 C43_2 1_555 1_555
C47_2 C48_2 1_555 1_555
C48_2 H48_2 1_555 1_555
C49_2 C48_2 1_555 1_555
H49_2 C49_2 1_555 1_555
C50_2 C49_2 1_555 1_555
C51_2 C50_2 1_555 1_555
H50_2 C51_2 1_555 1_555
C52_2 C47_2 1_555 1_555
H51_2 C52_2 1_555 1_555
C53_2 H52_2 1_555 1_555
C54_2 C53_2 1_555 1_555
H53_2 C54_2 1_555 1_555
C55_2 C56_2 1_555 1_555
C56_2 H54_2 1_555 1_555
H55_2 C56_2 1_555 1_555
H56_2 C56_2 1_555 1_555
N3_2 C30_2 1_555 1_555
N4_2 C34_2 1_555 1_555
N7_2 C50_2 1_555 1_555
N8_2 C54_2 1_555 1_555
O11_2 S1_2 1_555 1_555
O12_2 S1_2 1_555 1_555
S1_2 C24_2 1_555 1_555
S2_2 C44_2 1_555 1_555
Zn7_2 N4_2 1_555 1_555
Zn10 N8_2 1_555 1_555
C27_2 S1_2 1_555 1_555
C31_2 C32_2 1_555 1_555
C33_2 N3_2 1_555 1_555
C35_2 N3_2 1_555 1_555
C35_2 N4_2 1_555 1_555
C47_2 S2_2 1_555 1_555
C51_2 C52_2 1_555 1_555
C53_2 N7_2 1_555 1_555
C55_2 N7_2 1_555 1_555
C55_2 N8_2 1_555 1_555
C1_2 C2_2 1_555 1_555
C2_2 H1_2 1_555 1_555
C3_2 C2_2 1_555 1_555
H2_2 C3_2 1_555 1_555
H3_2 C3_2 1_555 1_555
C7_2 C2_2 1_555 1_555
H9_2 C7_2 1_555 1_555
H10_2 C7_2 1_555 1_555
C9_2 C10_2 1_555 1_555
C10_2 H11_2 1_555 1_555
C11_2 C10_2 1_555 1_555
H12_2 C11_2 1_555 1_555
H13_2 C11_2 1_555 1_555
C12_2 C10_2 1_555 1_555
H14_2 C12_2 1_555 1_555
H15_2 C12_2 1_555 1_555
C13_2 C14_2 1_555 1_555
C14_2 H16_2 1_555 1_555
C15_2 C14_2 1_555 1_555
H17_2 C15_2 1_555 1_555
H18_2 C15_2 1_555 1_555
C16_2 C14_2 1_555 1_555
H19_2 C16_2 1_555 1_555
H20_2 C16_2 1_555 1_555
C17_2 C20_2 1_555 1_555
C18_2 H21_2 1_555 1_555
C19_2 C18_2 1_555 1_555
H22_2 C19_2 1_555 1_555
C20_2 H23_2 1_555 1_555
H24_2 C20_2 1_555 1_555
H25_2 C20_2 1_555 1_555
C21_2 C22_2 1_555 1_555
C22_2 H26_2 1_555 1_555
C26_2 C21_2 1_555 1_555
H29_2 C26_2 1_555 1_555
C37_2 H39_2 1_555 1_555
C38_2 C37_2 1_555 1_555
H40_2 C38_2 1_555 1_555
C39_2 C40_2 1_555 1_555
C40_2 H41_2 1_555 1_555
H42_2 C40_2 1_555 1_555
H43_2 C40_2 1_555 1_555
C41_2 C42_2 1_555 1_555
C42_2 H44_2 1_555 1_555
H46_2 C45_2 1_555 1_555
C46_2 C41_2 1_555 1_555
H47_2 C46_2 1_555 1_555
N1_2 C17_2 1_555 1_555
N2_2 C17_2 1_555 1_555
N5_2 C37_2 1_555 1_555
N6_2 C38_2 1_555 1_555
O1_2 C1_2 1_555 1_555
O2_2 C1_2 1_555 1_555
O5_2 C9_2 1_555 1_555
O6_2 C9_2 1_555 1_555
O7_2 C13_2 1_555 1_555
O8_2 C13_2 1_555 1_555
O9_2 Zn1_2 1_555 1_555
O10_2 Zn1_2 1_555 1_555
Zn1_2 N1_2 1_555 1_555
Zn7_2 O2_2 1_555 1_555
Zn10 O7_2 1_555 1_555
C61_2 C62_2 1_555 1_555
C62_2 H62_2 1_555 1_555
C63_2 C16_2 1_555 1_555
H63_2 C63_2 1_555 1_555
H64_2 C63_2 1_555 1_555
C64_2 C15_2 1_555 1_555
H65_2 C64_2 1_555 1_555
H66_2 C64_2 1_555 1_555
O17_2 C61_2 1_555 1_555
O18_2 C61_2 1_555 1_555
C65_2 C66_2 1_555 1_555
C66_2 H67_2 1_555 1_555
C67_2 C66_2 1_555 1_555
H68_2 C67_2 1_555 1_555
H69_2 C67_2 1_555 1_555
C71_2 C66_2 1_555 1_555
H75_2 C71_2 1_555 1_555
H76_2 C71_2 1_555 1_555
C73_2 C76_2 1_555 1_555
C74_2 H77_2 1_555 1_555
C75_2 C74_2 1_555 1_555
H78_2 C75_2 1_555 1_555
C76_2 H79_2 1_555 1_555
H80_2 C76_2 1_555 1_555
H81_2 C76_2 1_555 1_555
C77_2 C78_2 1_555 1_555
C78_2 H82_2 1_555 1_555
C82_2 C77_2 1_555 1_555
H85_2 C82_2 1_555 1_555
C93_2 H95_2 1_555 1_555
C94_2 C93_2 1_555 1_555
H96_2 C94_2 1_555 1_555
C95_2 C96_2 1_555 1_555
C96_2 H97_2 1_555 1_555
H98_2 C96_2 1_555 1_555
H99_2 C96_2 1_555 1_555
C97_2 C98_2 1_555 1_555
C98_2 H100_2 1_555 1_555
H102_2 C101_2 1_555 1_555
C102_2 C97_2 1_555 1_555
H103_2 C102_2 1_555 1_555
N9_2 C73_2 1_555 1_555
N10_2 C73_2 1_555 1_555
N13_2 C93_2 1_555 1_555
N14_2 C94_2 1_555 1_555
O19_2 C65_2 1_555 1_555
O20_2 C65_2 1_555 1_555
O23_2 Zn4_2 1_555 1_555
O24_2 Zn4_2 1_555 1_555
Zn4_2 N9_2 1_555 1_555
Zn5 O20_2 1_555 1_555
Zn6 O17_2 1_555 1_555
N18_2 Zn5 1_555 1_555
N20_2 Zn6 1_555 1_555
O30 Zn6 1_555 1_555
O31 Zn5 1_555 1_555
C18_2 N1_2 1_555 1_555
C19_2 N2_2 1_555 1_555
C21_2 N2_2 1_555 1_555
C25_2 C26_2 1_555 1_555
C39_2 N5_2 1_555 1_555
C39_2 N6_2 1_555 1_555
C41_2 N6_2 1_555 1_555
C45_2 C46_2 1_555 1_555
N5_2 Zn1_2 1_555 1_555
O5_2 Zn7_2 1_555 1_555
O9_2 Zn7_2 1_555 1_555
O10_2 Zn10 1_555 1_555
C62_2 C63_2 1_555 1_555
C62_2 C64_2 1_555 1_555
C74_2 N9_2 1_555 1_555
C75_2 N10_2 1_555 1_555
C77_2 N10_2 1_555 1_555
C81_2 C82_2 1_555 1_555
C95_2 N13_2 1_555 1_555
C95_2 N14_2 1_555 1_555
C97_2 N14_2 1_555 1_555
C101_2 C102_2 1_555 1_555
N13_2 Zn4_2 1_555 1_555
O23_2 Zn5 1_555 1_555
O24_2 Zn6 1_555 1_555
C57_2 C58_2 1_555 1_555
C58_2 H57_2 1_555 1_555
H58_2 C59_2 1_555 1_555
H59_2 C59_2 1_555 1_555
H60_2 C60_2 1_555 1_555
H61_2 C60_2 1_555 1_555
O31 C57_2 1_555 1_555
O16_2 C57_2 1_555 1_555
C58_2 C59_2 1_555 1_555
C58_2 C60_2 1_555 1_555
H83_2 C79_2 1_555 1_555
C80_2 C79_2 1_555 1_555
C83_2 C84_2 1_555 1_555
C84_2 H86_2 1_555 1_555
C85_2 C84_2 1_555 1_555
H87_2 C85_2 1_555 1_555
C86_2 C85_2 1_555 1_555
C87_2 C86_2 1_555 1_555
H88_2 C87_2 1_555 1_555
C88_2 C83_2 1_555 1_555
H89_2 C88_2 1_555 1_555
C89_2 H90_2 1_555 1_555
C90_2 C89_2 1_555 1_555
H91_2 C90_2 1_555 1_555
C91_2 C92_2 1_555 1_555
C92_2 H92_2 1_555 1_555
H93_2 C92_2 1_555 1_555
H94_2 C92_2 1_555 1_555
H101_2 C99_2 1_555 1_555
C100_2 C99_2 1_555 1_555
C103_2 C104_2 1_555 1_555
C104_2 H104_2 1_555 1_555
C105_2 C104_2 1_555 1_555
H105_2 C105_2 1_555 1_555
C106_2 C105_2 1_555 1_555
C107_2 C106_2 1_555 1_555
H106_2 C107_2 1_555 1_555
C108_2 C103_2 1_555 1_555
H107_2 C108_2 1_555 1_555
C109_2 H108_2 1_555 1_555
C110_2 C109_2 1_555 1_555
H109_2 C110_2 1_555 1_555
C111_2 C112_2 1_555 1_555
C112_2 H110_2 1_555 1_555
H111_2 C112_2 1_555 1_555
H112_2 C112_2 1_555 1_555
N11_2 C86_2 1_555 1_555
N18_2 C90_2 1_555 1_555
N15_2 C106_2 1_555 1_555
N20_2 C110_2 1_555 1_555
O25_2 S3_2 1_555 1_555
O26_2 S3_2 1_555 1_555
S3_2 C80_2 1_555 1_555
S4_2 C100_2 1_555 1_555
C83_2 S3_2 1_555 1_555
C87_2 C88_2 1_555 1_555
C89_2 N11_2 1_555 1_555
C91_2 N11_2 1_555 1_555
C91_2 N18_2 1_555 1_555
C103_2 S4_2 1_555 1_555
C107_2 C108_2 1_555 1_555
C109_2 N15_2 1_555 1_555
C111_2 N15_2 1_555 1_555
C111_2 N20_2 1_555 1_555
H70_2 C68_2 1_555 1_555
H71_2 C68_2 1_555 1_555
C69_2 C68_2 1_555 1_555
H72_2 C69_2 1_555 1_555
C70_2 C69_2 1_555 1_555
H73_2 C70_2 1_555 1_555
H74_2 C70_2 1_555 1_555
C72_2 C69_2 1_555 1_555
O21_2 C72_2 1_555 1_555
O30 C72_2 1_555 1_555

#END
