
###############################################################################
#
# This file contains modified crystal structure data generated from the
# MOF subset of the Cambridge Structural Database (CSD) v543 
# hosted by the Cambridge Crystallographic Data Centre (CCDC).
#
# This work is licensed under the Creative Commons
# Attribution-NonCommercial-ShareAlike 4.0 International License.
# To view a copy of this license, visit
# http://creativecommons.org/licenses/by-nc-sa/4.0/
# or send a letter to
# Creative Commons, PO Box 1866, Mountain View, CA 94042, USA.
#
# CIF created using the CSD Python API on 29 September 2022
# The structure has been converted into the P1 space group
# The structure has a 3D framework
# The original CSD entry XAKPOQ is in the triclinic crystal system
# The framework has been calculated to contain at least 10.0% void space
# The void calculation uses a probe of radius 1.32A, grid spacing 0.4
#
###############################################################################

data_XAKPOQ
_chemical_formula_moiety         '(C40 H38 N4 O10 Zn2)n'
_symmetry_cell_setting           triclinic
_symmetry_space_group_name_H-M   'P 1'
_symmetry_Int_Tables_number      1
_space_group_name_Hall           'P 1'
loop_
_symmetry_equiv_pos_site_id
_symmetry_equiv_pos_as_xyz
1 x,y,z
_cell_length_a                   9.2535(2)
_cell_length_b                   10.2529(2)
_cell_length_c                   11.8897(3)
_cell_angle_alpha                91.3720(10)
_cell_angle_beta                 111.4870(10)
_cell_angle_gamma                102.4270(10)
_cell_volume                     1018.47
loop_
_atom_site_label
_atom_site_type_symbol
_atom_site_fract_x
_atom_site_fract_y
_atom_site_fract_z
Zn5 Zn 0.68928(3) 0.54199(2) 0.61467(2)
Zn6 Zn 0.31072(3) 0.45801(2) 0.38533(2)
O9 O 0.6577(2) 0.36391(16) 0.52884(17)
O11 O 0.3964(2) 0.32380(16) 0.48770(17)
C35 C 0.5232(3) 0.2859(2) 0.5059(2)
C36 C 0.5119(3) 0.1377(2) 0.5028(2)
C37 C 0.3668(3) 0.0487(2) 0.4850(3)
H37 H 0.2768 0.0812 0.4745
C38 C 0.6439(3) 0.0877(2) 0.5169(3)
H38 H 0.7409 0.1465 0.5278
O2 O 0.3843(2) 0.5199(2) 0.25978(18)
O3 O 0.3740(3) 0.3068(2) 0.2186(2)
O4 O 0.3423(2) 0.63609(16) 0.47116(17)
O5 O 0.6036(2) 0.67620(16) 0.51230(17)
N1 N 0.0795(2) 0.3646(2) 0.3286(2)
C5 C 0.0308(3) 0.2362(3) 0.2778(3)
H5 H 0.1074 0.1950 0.2699
C12 C 0.3985(3) 0.4266(3) 0.1959(2)
C13 C 0.4510(3) 0.4645(3) 0.0943(2)
C14 C 0.5140(3) 0.5978(3) 0.0888(2)
H16 H 0.5229 0.6635 0.1479
C15 C 0.4358(3) 0.3665(3) 0.0053(3)
H17 H 0.3920 0.2768 0.0087
C16 C 0.4768(3) 0.7141(2) 0.4941(2)
C17 C 0.4881(3) 0.8623(2) 0.4972(2)
C18 C 0.6332(3) 0.9513(2) 0.5150(3)
H18 H 0.7232 0.9188 0.5255
C19 C 0.3561(3) 0.9123(2) 0.4831(3)
H19 H 0.2591 0.8535 0.4722
O7 O 0.6157(2) 0.4801(2) 0.74022(18)
O8 O 0.6260(3) 0.6932(2) 0.7814(2)
N4 N 0.9205(2) 0.6354(2) 0.6714(2)
C31 C 0.6015(3) 0.5734(3) 0.8041(2)
C32 C 0.5490(3) 0.5355(3) 0.9057(2)
C33 C 0.4860(3) 0.4022(3) 0.9112(2)
H35 H 0.4771 0.3365 0.8521
C34 C 0.5642(3) 0.6335(3) 0.9947(3)
H36 H 0.6080 0.7232 0.9913
C24 C 0.9692(3) 0.7638(3) 0.7222(3)
H24 H 0.8926 0.8050 0.7301
N2 N 0.6005(2) 0.1569(2) 0.2136(2)
H1 H 0.5382 0.2055 0.2200
C1 C 0.9657(3) 0.4217(3) 0.3385(3)
H2 H 0.9955 0.5107 0.3725
C2 C 0.8080(3) 0.3543(3) 0.3008(3)
H3 H 0.7334 0.3975 0.3095
C3 C 0.7603(3) 0.2221(3) 0.2497(2)
C4 C 0.8767(3) 0.1628(3) 0.2373(3)
H4 H 0.8494 0.0745 0.2019
C6 C 0.5295(3) 0.0259(3) 0.1694(3)
H6 H 0.3293 0.0338 0.2039
H7 H 0.2970 0.0272 0.0647
O1 O 0.5996(3) 0.9458(2) 0.1532(3)
C7 C 0.3497(4) 0.9911(3) 0.1395(4)
C8 C 0.2787(3) 0.8428(3) 0.1249(3)
H8 H 0.3359 0.8051 0.1974
H9 H 0.2916 0.8005 0.0565
C9 C 0.1012(3) 0.8116(3) 0.1041(3)
H10 H 0.0869 0.8620 0.1678
H11 H 0.0421 0.8399 0.0268
C10 C 0.0346(4) 0.6620(3) 0.1039(3)
H12 H 0.0980 0.6336 0.1797
C11 C 0.0335(4) 0.5750(3) 0.0000(3)
H14 H 0.1420 0.5888 0.0032
H34 H 0.0299 0.3966 0.0759
C11_2 C 0.0335(4) 0.5750(3) 1.0000(3)
H32 H 0.0740 0.3518 0.8994
H13 H 0.9260 0.6482 0.1006
C30 C 0.9665(4) 0.4250(3) 0.0000(3)
H15 H 0.9701 0.6034 0.9241
O6 O 0.4004(3) 0.0542(2) 0.8468(3)
C26 C 0.6503(4) 0.0089(3) 0.8605(4)
C27 C 0.7213(3) 0.1572(3) 0.8751(3)
H27 H 0.6641 0.1949 0.8026
H28 H 0.7084 0.1995 0.9435
C28 C 0.8988(3) 0.1884(3) 0.8959(3)
H29 H 0.9131 0.1380 0.8322
H30 H 0.9579 0.1601 0.9732
C29 C 0.9654(4) 0.3380(3) 0.8961(3)
H31 H 0.9020 0.3664 0.8203
C30_2 C 0.9665(4) 0.4250(3) 1.0000(3)
H33 H 0.8580 0.4112 0.9968
N5 N 0.3995(2) 0.8431(2) 0.7864(2)
H20 H 0.4618 0.7945 0.7800
C20 C 0.0343(3) 0.5783(3) 0.6615(3)
H21 H 0.0045 0.4893 0.6275
C21 C 0.1920(3) 0.6457(3) 0.6992(3)
H22 H 0.2666 0.6025 0.6905
C22 C 0.2397(3) 0.7779(3) 0.7503(2)
C23 C 0.1233(3) 0.8372(3) 0.7627(3)
H23 H 0.1506 0.9255 0.7981
C25 C 0.4705(3) 0.9741(3) 0.8306(3)
H25 H 0.6707 0.9662 0.7961
H26 H 0.7030 0.9728 0.9353
loop_
_geom_bond_atom_site_label_1
_geom_bond_atom_site_label_2
_geom_bond_site_symmetry_1
_geom_bond_site_symmetry_2
Zn5 O9 1_555 1_555
Zn6 O11 1_555 1_555
O9 C35 1_555 1_555
O11 C35 1_555 1_555
C35 C36 1_555 1_555
C36 C37 1_555 1_555
H37 C37 1_555 1_555
H38 C38 1_555 1_555
C36 C38 1_555 1_555
Zn6 O2 1_555 1_555
O2 C12 1_555 1_555
O3 C12 1_555 1_555
O4 Zn6 1_555 1_555
O5 C16 1_555 1_555
N1 Zn6 1_555 1_555
C5 N1 1_555 1_555
H5 C5 1_555 1_555
C12 C13 1_555 1_555
C13 C14 1_555 1_555
C14 H16 1_555 1_555
C15 C13 1_555 1_555
H17 C15 1_555 1_555
C16 O4 1_555 1_555
C17 C16 1_555 1_555
C18 C17 1_555 1_555
H18 C18 1_555 1_555
C19 C17 1_555 1_555
H19 C19 1_555 1_555
Zn5 O5 1_555 1_555
Zn5 O7 1_555 1_555
O7 C31 1_555 1_555
O8 C31 1_555 1_555
N4 Zn5 1_555 1_555
C31 C32 1_555 1_555
C32 C33 1_555 1_555
H35 C33 1_555 1_555
H36 C34 1_555 1_555
C32 C34 1_555 1_555
C24 N4 1_555 1_555
H24 C24 1_555 1_555
N2 H1 1_555 1_555
H2 C1 1_555 1_555
C2 C1 1_555 1_555
H3 C2 1_555 1_555
C3 N2 1_555 1_555
C4 C3 1_555 1_555
H4 C4 1_555 1_555
C6 N2 1_555 1_555
C2 C3 1_555 1_555
C8 C7 1_555 1_555
H8 C8 1_555 1_555
H9 C8 1_555 1_555
C9 C8 1_555 1_555
H10 C9 1_555 1_555
H11 C9 1_555 1_555
C10 C9 1_555 1_555
H12 C10 1_555 1_555
C11 C10 1_555 1_555
H14 C11 1_555 1_555
C27 C26 1_555 1_555
H27 C27 1_555 1_555
H28 C27 1_555 1_555
C28 C27 1_555 1_555
H29 C28 1_555 1_555
H30 C28 1_555 1_555
C29 C28 1_555 1_555
H31 C29 1_555 1_555
H33 C30_2 1_555 1_555
C29 C30_2 1_555 1_555
N5 H20 1_555 1_555
C20 H21 1_555 1_555
C21 C20 1_555 1_555
H22 C21 1_555 1_555
C22 N5 1_555 1_555
C23 C22 1_555 1_555
H23 C23 1_555 1_555
C25 N5 1_555 1_555
C21 C22 1_555 1_555

#END
