
###############################################################################
#
# This file contains modified crystal structure data generated from the
# MOF subset of the Cambridge Structural Database (CSD) v543 
# hosted by the Cambridge Crystallographic Data Centre (CCDC).
#
# This work is licensed under the Creative Commons
# Attribution-NonCommercial-ShareAlike 4.0 International License.
# To view a copy of this license, visit
# http://creativecommons.org/licenses/by-nc-sa/4.0/
# or send a letter to
# Creative Commons, PO Box 1866, Mountain View, CA 94042, USA.
#
# CIF created using the CSD Python API on 29 September 2022
# The structure has been converted into the P1 space group
# The structure has a 3D framework
# The original CSD entry XAKQOR is in the triclinic crystal system
# The framework has been calculated to contain at least 10.0% void space
# The void calculation uses a probe of radius 1.32A, grid spacing 0.4
#
###############################################################################

data_XAKQOR
_chemical_formula_moiety         '(C78 H64 Cu4 N8 O16)n'
_symmetry_cell_setting           triclinic
_symmetry_space_group_name_H-M   'P 1'
_symmetry_Int_Tables_number      1
_space_group_name_Hall           'P 1'
loop_
_symmetry_equiv_pos_site_id
_symmetry_equiv_pos_as_xyz
1 x,y,z
_cell_length_a                   12.8829(5)
_cell_length_b                   14.1565(6)
_cell_length_c                   18.6819(7)
_cell_angle_alpha                104.822(2)
_cell_angle_beta                 98.409(2)
_cell_angle_gamma                113.3670(10)
_cell_volume                     2903.46
loop_
_atom_site_label
_atom_site_type_symbol
_atom_site_fract_x
_atom_site_fract_y
_atom_site_fract_z
Cu1 Cu 0.05740(5) 0.11010(4) 0.03205(3)
N1 N 0.1482(3) 0.2869(3) 0.0733(2)
C1 C 0.1422(4) 0.3632(4) 0.1296(3)
N2 N 0.2176(3) 0.3426(3) 0.0352(2)
C2 C 0.2085(4) 0.4676(4) 0.1268(3)
C3 C 0.2562(4) 0.4513(4) 0.0663(3)
N3 N 0.3416(4) 0.5692(3) 0.3737(2)
C4 C 0.3438(4) 0.5614(4) 0.3015(3)
N4 N 0.2557(4) 0.5995(4) 0.3839(2)
H2 H 0.2354 0.6106 0.4271
C5 C 0.2585(4) 0.5856(4) 0.2654(3)
C6 C 0.2050(5) 0.6109(4) 0.3202(3)
C7 C 0.2273(5) 0.5759(4) 0.1824(3)
H3 H 0.2912 0.6365 0.1743
H4 H 0.1546 0.5841 0.1706
C8 C 0.0725(5) 0.3299(4) 0.1841(3)
H5 H 0.0290 0.2498 0.1664
H6 H 0.0168 0.3611 0.1857
H7 H 0.1259 0.3571 0.2358
C9 C 0.3341(5) 0.5295(4) 0.0334(3)
H8 H 0.4018 0.5154 0.0287
H9 H 0.3618 0.6050 0.0677
C10 C 0.4284(4) 0.5303(4) 0.2675(3)
H11 H 0.4961 0.5471 0.3089
H12 H 0.4554 0.5717 0.2335
H13 H 0.3894 0.4516 0.2377
C11 C 0.1107(6) 0.6470(6) 0.3189(3)
H14 H 0.0624 0.6184 0.3515
H15 H 0.0610 0.6191 0.2659
H16 H 0.1467 0.7273 0.3384
Cu7 Cu 0.42987(5) 0.52307(5) 0.45445(3)
O14 O 0.1956(3) 0.0933(3) 0.01066(18)
O15 O 0.0896(3) 0.0879(3) 0.13162(17)
O2 O 0.4129(3) 0.3854(3) 0.55404(19)
H1 H 0.2351 0.3112 0.9948
O3 O 0.2936(3) 0.4249(3) 0.47987(19)
O6 O 0.0073(3) 0.0964(3) 0.92341(18)
H10 H 0.2894 0.5191 0.9825
C13 C 0.2100(4) 0.2925(4) 0.5382(3)
C15 C 0.2252(5) 0.2257(4) 0.5774(3)
H18 H 0.3021 0.2339 0.5959
C17 C 0.1314(5) 0.1479(5) 0.5899(3)
H20 H 0.1430 0.1024 0.6165
C19 C 0.0204(5) 0.1369(4) 0.5635(3)
C21 C 0.0020(5) 0.2007(4) 0.5241(3)
C23 C 0.0969(5) 0.2779(4) 0.5107(3)
H24 H 0.0842 0.3213 0.4825
H30 H 0.0133 0.2098 0.7093
H32 H 0.0211 0.1864 0.8282
C37 C 0.3132(4) 0.3748(4) 0.5229(3)
Cu4 Cu 0.57013(5) 0.47693(5) 0.54555(3)
O1 O 0.5429(3) 0.3578(3) 0.45245(18)
O4 O 0.4196(3) 0.3924(3) 0.37783(18)
O5 O 0.9016(3) 0.0905(3) 0.04404(19)
C12 C 0.4578(4) 0.2450(4) 0.3210(3)
C14 C 0.5195(4) 0.1853(4) 0.3283(3)
H17 H 0.5697 0.2017 0.3771
C16 C 0.5083(4) 0.1018(4) 0.2647(3)
H19 H 0.5504 0.0608 0.2698
C18 C 0.4356(4) 0.0789(4) 0.1943(3)
C20 C 0.3722(4) 0.1376(4) 0.1862(3)
H21 H 0.3220 0.1213 0.1374
C22 C 0.3834(4) 0.2199(4) 0.2501(3)
H23 H 0.3398 0.2596 0.2453
C24 C 0.7081(4) 0.0006(4) 0.0505(3)
C26 C 0.7139(4) 0.0976(4) 0.0979(3)
H25 H 0.7839 0.1643 0.1117
C28 C 0.6206(4) 0.0985(4) 0.1250(3)
H27 H 0.6261 0.1652 0.1571
C30 C 0.5186(4) 0.0015(4) 0.1053(3)
C36 C 0.4752(4) 0.3383(4) 0.3891(3)
O12 O 0.7064(3) 0.5751(3) 0.52013(19)
O13 O 0.5804(3) 0.6076(3) 0.62217(18)
N5 N 0.6584(4) 0.4308(3) 0.6263(2)
O7 O 0.8044(3) 0.9067(3) 0.98934(18)
O8 O 0.9104(3) 0.9121(3) 0.86838(17)
C27 C 0.8877(4) 0.9287(4) 0.7204(3)
H26 H 0.8545 0.8571 0.7232
C29 C 0.8835(4) 0.9420(4) 0.6492(3)
H28 H 0.8481 0.8798 0.6031
H31 H 0.5961 0.8372 0.9958
Cu3 Cu 0.94260(5) 0.88990(4) 0.96795(3)
C27_2 C 0.1123(4) 0.0713(4) 0.2796(3)
H26_2 H 0.1455 0.1429 0.2768
C29_2 C 0.1165(4) 0.0580(4) 0.3508(3)
H28_2 H 0.1519 0.1202 0.3969
H31_2 H 0.4039 0.1628 0.0042
O1_2 O 0.4571(3) 0.6422(3) 0.54755(18)
O5_2 O 0.0984(3) 0.9095(3) 0.95596(19)
C12_2 C 0.5422(4) 0.7550(4) 0.6790(3)
C14_2 C 0.4805(4) 0.8147(4) 0.6717(3)
H17_2 H 0.4303 0.7983 0.6229
C16_2 C 0.4917(4) 0.8982(4) 0.7353(3)
H19_2 H 0.4496 0.9392 0.7302
C18_2 C 0.5644(4) 0.9211(4) 0.8057(3)
C20_2 C 0.6278(4) 0.8624(4) 0.8138(3)
H21_2 H 0.6780 0.8787 0.8626
C22_2 C 0.6166(4) 0.7801(4) 0.7499(3)
H23_2 H 0.6602 0.7404 0.7547
C24_2 C 0.2919(4) 0.9994(4) 0.9495(3)
C26_2 C 0.2861(4) 0.9024(4) 0.9021(3)
H25_2 H 0.2161 0.8357 0.8883
C28_2 C 0.3794(4) 0.9015(4) 0.8750(3)
H27_2 H 0.3739 0.8348 0.8429
C30_2 C 0.4814(4) 0.9985(4) 0.8947(3)
C36_2 C 0.5248(4) 0.6617(4) 0.6109(3)
O11 O 0.5871(3) 0.6146(3) 0.44596(19)
H1_2 H 0.7649 0.6888 0.0052
O6_2 O 0.9927(3) 0.9036(3) 0.07659(18)
H10_2 H 0.7106 0.4809 0.0175
C13_2 C 0.7900(4) 0.7075(4) 0.4618(3)
C15_2 C 0.7748(5) 0.7743(4) 0.4226(3)
H18_2 H 0.6979 0.7661 0.4041
C17_2 C 0.8686(5) 0.8521(5) 0.4101(3)
H20_2 H 0.8570 0.8976 0.3835
C19_2 C 0.9796(5) 0.8631(4) 0.4365(3)
C21_2 C 0.9980(5) 0.7993(4) 0.4759(3)
C23_2 C 0.9031(5) 0.7221(4) 0.4893(3)
H24_2 H 0.9158 0.6787 0.5175
H30_2 H 0.9867 0.7902 0.2907
H32_2 H 0.9789 0.8136 0.1718
C37_2 C 0.6868(4) 0.6252(4) 0.4771(3)
N1_2 N 0.8518(3) 0.7131(3) 0.9267(2)
C1_2 C 0.8578(4) 0.6368(4) 0.8704(3)
N2_2 N 0.7824(3) 0.6574(3) 0.9648(2)
C2_2 C 0.7915(4) 0.5324(4) 0.8732(3)
C3_2 C 0.7438(4) 0.5487(4) 0.9337(3)
C4_2 C 0.6562(4) 0.4386(4) 0.6985(3)
N4_2 N 0.7443(4) 0.4005(4) 0.6161(2)
H2_2 H 0.7646 0.3894 0.5729
C5_2 C 0.7415(4) 0.4144(4) 0.7346(3)
C6_2 C 0.7950(5) 0.3891(4) 0.6798(3)
C7_2 C 0.7727(5) 0.4241(4) 0.8176(3)
H3_2 H 0.7088 0.3635 0.8257
H4_2 H 0.8454 0.4159 0.8294
C8_2 C 0.9275(5) 0.6701(4) 0.8159(3)
H5_2 H 0.9710 0.7502 0.8336
H6_2 H 0.9832 0.6389 0.8143
H7_2 H 0.8741 0.6429 0.7642
C9_2 C 0.6659(5) 0.4705(4) 0.9666(3)
H8_2 H 0.5982 0.4846 0.9713
H9_2 H 0.6382 0.3950 0.9323
C10_2 C 0.5716(4) 0.4697(4) 0.7325(3)
H11_2 H 0.5039 0.4529 0.6911
H12_2 H 0.5446 0.4283 0.7665
H13_2 H 0.6106 0.5484 0.7623
C11_2 C 0.8893(6) 0.3530(6) 0.6811(3)
H14_2 H 0.9376 0.3816 0.6485
H15_2 H 0.9390 0.3809 0.7341
H16_2 H 0.8533 0.2727 0.6616
O10 O 0.9217(3) 0.0571(3) 0.57323(19)
H22 H 0.9248 0.1921 0.5061
C25 C 0.9403(4) 0.0200(4) 0.7880(3)
C31 C 0.9316(5) 0.0466(4) 0.6462(3)
C33 C 0.9821(4) 0.1383(4) 0.7123(3)
C35 C 0.9861(4) 0.1239(4) 0.7824(3)
C38 C 0.9526(4) 0.0080(4) 0.8656(3)
O9 O 0.4208(3) 0.9949(3) 0.12923(19)
C32 C 0.5089(4) 0.9038(4) 0.0565(3)
H29 H 0.4381 0.8377 0.0422
C34 C 0.6028(4) 0.9036(4) 0.0293(3)
C39 C 0.8125(4) 0.9994(4) 0.0260(3)
O9_2 O 0.5792(3) 0.0051(3) 0.87077(19)
C32_2 C 0.4911(4) 0.0962(4) 0.9435(3)
H29_2 H 0.5619 0.1623 0.9578
C34_2 C 0.3972(4) 0.0964(4) 0.9707(3)
C39_2 C 0.1875(4) 0.0006(4) 0.9740(3)
O10_2 O 0.0783(3) 0.9429(3) 0.42677(19)
H22_2 H 0.0752 0.8079 0.4939
C25_2 C 0.0597(4) 0.9800(4) 0.2120(3)
C31_2 C 0.0684(5) 0.9534(4) 0.3538(3)
C33_2 C 0.0179(4) 0.8617(4) 0.2877(3)
C35_2 C 0.0139(4) 0.8761(4) 0.2176(3)
C38_2 C 0.0474(4) 0.9920(4) 0.1344(3)
loop_
_geom_bond_atom_site_label_1
_geom_bond_atom_site_label_2
_geom_bond_site_symmetry_1
_geom_bond_site_symmetry_2
Cu1 N1 1_555 1_555
N1 C1 1_555 1_555
C1 C2 1_555 1_555
N2 N1 1_555 1_555
C2 C3 1_555 1_555
C3 N2 1_555 1_555
N3 C4 1_555 1_555
C4 C5 1_555 1_555
N4 N3 1_555 1_555
H2 N4 1_555 1_555
C5 C6 1_555 1_555
C6 N4 1_555 1_555
C7 C2 1_555 1_555
H3 C7 1_555 1_555
H4 C7 1_555 1_555
C8 C1 1_555 1_555
H5 C8 1_555 1_555
H6 C8 1_555 1_555
H7 C8 1_555 1_555
C9 C3 1_555 1_555
H8 C9 1_555 1_555
H9 C9 1_555 1_555
C10 C4 1_555 1_555
H11 C10 1_555 1_555
H12 C10 1_555 1_555
H13 C10 1_555 1_555
C11 C6 1_555 1_555
H14 C11 1_555 1_555
H15 C11 1_555 1_555
H16 C11 1_555 1_555
Cu7 N3 1_555 1_555
O14 Cu1 1_555 1_555
O15 Cu1 1_555 1_555
C5 C7 1_555 1_555
O2 C37 1_555 1_555
O3 C37 1_555 1_555
C13 C15 1_555 1_555
C15 H18 1_555 1_555
C17 C15 1_555 1_555
H20 C17 1_555 1_555
C19 C17 1_555 1_555
C21 C19 1_555 1_555
C23 C13 1_555 1_555
H24 C23 1_555 1_555
C37 C13 1_555 1_555
Cu4 O2 1_555 1_555
Cu7 O3 1_555 1_555
C21 C23 1_555 1_555
O1 Cu4 1_555 1_555
O4 C36 1_555 1_555
C12 C14 1_555 1_555
C14 H17 1_555 1_555
C16 C14 1_555 1_555
H19 C16 1_555 1_555
C18 C16 1_555 1_555
C20 C18 1_555 1_555
H21 C20 1_555 1_555
C22 C12 1_555 1_555
H23 C22 1_555 1_555
C24 C26 1_555 1_555
C26 H25 1_555 1_555
C28 C26 1_555 1_555
H27 C28 1_555 1_555
C36 O1 1_555 1_555
Cu7 O4 1_555 1_555
O12 Cu4 1_555 1_555
O13 Cu4 1_555 1_555
N5 Cu4 1_555 1_555
C12 C36 1_555 1_555
C20 C22 1_555 1_555
C28 C30 1_555 1_555
C27 H26 1_555 1_555
C29 C27 1_555 1_555
H28 C29 1_555 1_555
Cu3 O7 1_555 1_555
O8 Cu3 1_555 1_555
C27_2 H26_2 1_555 1_555
C29_2 C27_2 1_555 1_555
H28_2 C29_2 1_555 1_555
O1_2 Cu7 1_555 1_555
Cu7 O11 1_555 1_555
O13 C36_2 1_555 1_555
C12_2 C14_2 1_555 1_555
C14_2 H17_2 1_555 1_555
C16_2 C14_2 1_555 1_555
H19_2 C16_2 1_555 1_555
C18_2 C16_2 1_555 1_555
C20_2 C18_2 1_555 1_555
H21_2 C20_2 1_555 1_555
C22_2 C12_2 1_555 1_555
H23_2 C22_2 1_555 1_555
C24_2 C26_2 1_555 1_555
C26_2 H25_2 1_555 1_555
C28_2 C26_2 1_555 1_555
H27_2 C28_2 1_555 1_555
C36_2 O1_2 1_555 1_555
C12_2 C36_2 1_555 1_555
C20_2 C22_2 1_555 1_555
C28_2 C30_2 1_555 1_555
O11 C37_2 1_555 1_555
O12 C37_2 1_555 1_555
C13_2 C15_2 1_555 1_555
C15_2 H18_2 1_555 1_555
C17_2 C15_2 1_555 1_555
H20_2 C17_2 1_555 1_555
C19_2 C17_2 1_555 1_555
C21_2 C19_2 1_555 1_555
C23_2 C13_2 1_555 1_555
H24_2 C23_2 1_555 1_555
C37_2 C13_2 1_555 1_555
C21_2 C23_2 1_555 1_555
Cu3 N1_2 1_555 1_555
N1_2 C1_2 1_555 1_555
C1_2 C2_2 1_555 1_555
N2_2 N1_2 1_555 1_555
C2_2 C3_2 1_555 1_555
C3_2 N2_2 1_555 1_555
N5 C4_2 1_555 1_555
C4_2 C5_2 1_555 1_555
N4_2 N5 1_555 1_555
H2_2 N4_2 1_555 1_555
C5_2 C6_2 1_555 1_555
C6_2 N4_2 1_555 1_555
C7_2 C2_2 1_555 1_555
H3_2 C7_2 1_555 1_555
H4_2 C7_2 1_555 1_555
C8_2 C1_2 1_555 1_555
H5_2 C8_2 1_555 1_555
H6_2 C8_2 1_555 1_555
H7_2 C8_2 1_555 1_555
C9_2 C3_2 1_555 1_555
H8_2 C9_2 1_555 1_555
H9_2 C9_2 1_555 1_555
C10_2 C4_2 1_555 1_555
H11_2 C10_2 1_555 1_555
H12_2 C10_2 1_555 1_555
H13_2 C10_2 1_555 1_555
C11_2 C6_2 1_555 1_555
H14_2 C11_2 1_555 1_555
H15_2 C11_2 1_555 1_555
H16_2 C11_2 1_555 1_555
C5_2 C7_2 1_555 1_555
C31 O10 1_555 1_555
C33 C31 1_555 1_555
C35 C25 1_555 1_555
C25 C38 1_555 1_555
C33 C35 1_555 1_555
H29 C32 1_555 1_555
C32 C34 1_555 1_555
H29_2 C32_2 1_555 1_555
C32_2 C34_2 1_555 1_555
C31_2 O10_2 1_555 1_555
C33_2 C31_2 1_555 1_555
C35_2 C25_2 1_555 1_555
C25_2 C38_2 1_555 1_555
C33_2 C35_2 1_555 1_555

#END
