
###############################################################################
#
# This file contains modified crystal structure data generated from the
# MOF subset of the Cambridge Structural Database (CSD) v543 
# hosted by the Cambridge Crystallographic Data Centre (CCDC).
#
# This work is licensed under the Creative Commons
# Attribution-NonCommercial-ShareAlike 4.0 International License.
# To view a copy of this license, visit
# http://creativecommons.org/licenses/by-nc-sa/4.0/
# or send a letter to
# Creative Commons, PO Box 1866, Mountain View, CA 94042, USA.
#
# CIF created using the CSD Python API on 29 September 2022
# The structure has been converted into the P1 space group
# The structure has a 3D framework
# The original CSD entry XAKWUC is in the orthorhombic crystal system
# The framework has been calculated to contain at least 10.0% void space
# The void calculation uses a probe of radius 1.32A, grid spacing 0.4
# H atom positions have been added when not included in the experimental data
#
###############################################################################

data_XAKWUC
_chemical_formula_moiety         '(C80 H128 La12 O128)n'
_symmetry_cell_setting           triclinic
_symmetry_space_group_name_H-M   'P 1'
_symmetry_Int_Tables_number      1
_space_group_name_Hall           'P 1'
loop_
_symmetry_equiv_pos_site_id
_symmetry_equiv_pos_as_xyz
1 x,y,z
_cell_length_a                   9.765
_cell_length_b                   15.5827(4)
_cell_length_c                   28.3964(8)
_cell_angle_alpha                90
_cell_angle_beta                 90
_cell_angle_gamma                90
_cell_volume                     4320.94
loop_
_atom_site_label
_atom_site_type_symbol
_atom_site_fract_x
_atom_site_fract_y
_atom_site_fract_z
La4 La 0.1250 0.1250 0.740630(13)
O7 O 0.1209(4) 0.2788(3) 0.76652(14)
O22 O 0.1205(4) 0.4130(3) 0.7897(2)
O27 O 0.0288(5) 0.3779(3) 0.68436(15)
H12 H 0.0577(88) 0.3303(53) 0.6757(28)
H16 H 0.109 0.415188 0.690959
O1 O 0.3709(4) 0.0288(3) 0.73348(14)
O3 O 0.3705(4) 0.1630(3) 0.7103(2)
C1 C 0.4350(6) 0.0933(4) 0.7188(2)
C3 C 0.5846(7) 0.0866(5) 0.7098(4)
H1 H 0.6534(7) 0.1909(5) 0.6795(4)
H2 H 0.6273(7) 0.2017(5) 0.7333(4)
La3 La 0.8750 0.3750 0.759370(13)
O6 O 0.8791(4) 0.2212(3) 0.73348(14)
O10 O 0.8709(4) 0.5288(3) 0.73348(14)
O11 O 0.6291(4) 0.4712(3) 0.76652(14)
O16 O 0.8632(4) 0.4612(2) 0.83575(13)
O17 O 0.8868(4) 0.2888(2) 0.83575(13)
O18 O 0.8795(4) 0.0870(3) 0.7103(2)
O21 O 0.6295(4) 0.3370(3) 0.7897(2)
O26 O 0.7212(5) 0.3721(3) 0.68436(15)
C4 C 0.8150(6) 0.1567(4) 0.7188(2)
C8 C 0.6654(7) 0.1634(5) 0.7098(4)
H4 H 0.5966(7) 0.0591(5) 0.6795(4)
H7 H 0.6227(7) 0.0483(5) 0.7333(4)
H11 H 0.6923(88) 0.4197(53) 0.6757(28)
H14 H 0.641 0.334812 0.690959
La1 La 0.3750 0.8750 0.759370(13)
O2 O 0.3868(4) 0.7888(2) 0.83575(13)
O4 O 0.5288(5) 0.8779(3) 0.68436(15)
C2 C 0.3750 0.8252(5) 0.8750
H3 H 0.5577(88) 0.8303(53) 0.6757(28)
La5 La 0.3750 0.8750 0.990630(13)
La6 La 0.6250 0.6250 0.740630(13)
O5 O 0.1291(4) 0.9712(3) 0.76652(14)
O8 O 0.3791(4) 0.7212(3) 0.73348(14)
O9 O 0.6209(4) 0.7788(3) 0.76652(14)
O13 O 0.3632(4) 0.7888(2) 0.91425(13)
O14 O 0.3868(4) 0.9612(2) 0.91425(13)
O15 O 0.3632(4) 0.9612(2) 0.83575(13)
O19 O 0.6205(4) 0.9130(3) 0.7897(2)
O20 O 0.1295(4) 0.8370(3) 0.7897(2)
O23 O 0.3795(4) 0.5870(3) 0.7103(2)
O25 O 0.2212(5) 0.8721(3) 0.68436(15)
C5 C 0.3150(6) 0.6567(4) 0.7188(2)
C7 C 0.3750 0.9248(5) 0.8750
C9 C 0.1654(7) 0.6634(5) 0.7098(4)
C10 C 0.0846(7) 0.5866(5) 0.7098(4)
H5 H 0.1534(7) 0.6909(5) 0.6795(4)
H6 H 0.0966(7) 0.5591(5) 0.6795(4)
H8 H 0.1273(7) 0.7017(5) 0.7333(4)
H9 H 0.1227(7) 0.5483(5) 0.7333(4)
H10 H 0.1923(88) 0.9197(53) 0.6757(28)
H13 H 0.609 0.915188 0.690959
H15 H 0.141 0.834812 0.690959
O24 O 0.8705(4) 0.6630(3) 0.7103(2)
C6 C 0.9350(6) 0.5933(4) 0.7188(2)
La4_2 La 0.1250 0.6250 0.240630(13)
O7_2 O 0.1209(4) 0.7788(3) 0.26652(14)
O22_2 O 0.1205(4) 0.9130(3) 0.2897(2)
O27_2 O 0.0288(5) 0.8779(3) 0.18436(15)
H12_2 H 0.0577(88) 0.8303(53) 0.1757(28)
H16_2 H 0.109 0.915188 0.190959
O10_2 O 0.8709(4) 0.0288(3) 0.23348(14)
La1_2 La 0.3750 0.3750 0.259370(13)
O1_2 O 0.3709(4) 0.5288(3) 0.23348(14)
O2_2 O 0.3868(4) 0.2888(2) 0.33575(13)
O3_2 O 0.3705(4) 0.6630(3) 0.2103(2)
O4_2 O 0.5288(5) 0.3779(3) 0.18436(15)
C1_2 C 0.4350(6) 0.5933(4) 0.2188(2)
C2_2 C 0.3750 0.3252(5) 0.3750
C3_2 C 0.5846(7) 0.5866(5) 0.2098(4)
H1_2 H 0.6534(7) 0.6909(5) 0.1795(4)
H2_2 H 0.6273(7) 0.7017(5) 0.2333(4)
H3_2 H 0.5577(88) 0.3303(53) 0.1757(28)
La3_2 La 0.8750 0.8750 0.259370(13)
La5_2 La 0.3750 0.3750 0.490630(13)
La6_2 La 0.6250 0.1250 0.240630(13)
O5_2 O 0.1291(4) 0.4712(3) 0.26652(14)
O6_2 O 0.8791(4) 0.7212(3) 0.23348(14)
O8_2 O 0.3791(4) 0.2212(3) 0.23348(14)
O9_2 O 0.6209(4) 0.2788(3) 0.26652(14)
O11_2 O 0.6291(4) 0.9712(3) 0.26652(14)
O13_2 O 0.3632(4) 0.2888(2) 0.41425(13)
O14_2 O 0.3868(4) 0.4612(2) 0.41425(13)
O15_2 O 0.3632(4) 0.4612(2) 0.33575(13)
O16_2 O 0.8632(4) 0.9612(2) 0.33575(13)
O17_2 O 0.8868(4) 0.7888(2) 0.33575(13)
O18_2 O 0.8795(4) 0.5870(3) 0.2103(2)
O19_2 O 0.6205(4) 0.4130(3) 0.2897(2)
O20_2 O 0.1295(4) 0.3370(3) 0.2897(2)
O21_2 O 0.6295(4) 0.8370(3) 0.2897(2)
O23_2 O 0.3795(4) 0.0870(3) 0.2103(2)
O25_2 O 0.2212(5) 0.3721(3) 0.18436(15)
O26_2 O 0.7212(5) 0.8721(3) 0.18436(15)
C4_2 C 0.8150(6) 0.6567(4) 0.2188(2)
C5_2 C 0.3150(6) 0.1567(4) 0.2188(2)
C7_2 C 0.3750 0.4248(5) 0.3750
C8_2 C 0.6654(7) 0.6634(5) 0.2098(4)
C9_2 C 0.1654(7) 0.1634(5) 0.2098(4)
C10_2 C 0.0846(7) 0.0866(5) 0.2098(4)
H4_2 H 0.5966(7) 0.5591(5) 0.1795(4)
H5_2 H 0.1534(7) 0.1909(5) 0.1795(4)
H6_2 H 0.0966(7) 0.0591(5) 0.1795(4)
H7_2 H 0.6227(7) 0.5483(5) 0.2333(4)
H8_2 H 0.1273(7) 0.2017(5) 0.2333(4)
H9_2 H 0.1227(7) 0.0483(5) 0.2333(4)
H10_2 H 0.1923(88) 0.4197(53) 0.1757(28)
H11_2 H 0.6923(88) 0.9197(53) 0.1757(28)
H13_2 H 0.609 0.415188 0.190959
H14_2 H 0.641 0.834812 0.190959
H15_2 H 0.141 0.334812 0.190959
O24_2 O 0.8705(4) 0.1630(3) 0.2103(2)
C6_2 C 0.9350(6) 0.0933(4) 0.2188(2)
La4_3 La 0.1250 0.1250 0.509370(13)
O7_3 O 0.1209(4) 0.9712(3) 0.48348(14)
O22_3 O 0.1205(4) 0.8370(3) 0.4603(2)
O27_3 O 0.0288(5) 0.8721(3) 0.56564(15)
H12_3 H 0.0577(88) 0.9197(53) 0.5743(28)
H16_3 H 0.109 0.834812 0.559041
O1_3 O 0.3709(4) 0.2212(3) 0.51652(14)
O3_3 O 0.3705(4) 0.0870(3) 0.5397(2)
O4_3 O 0.5288(5) 0.3721(3) 0.56564(15)
C1_3 C 0.4350(6) 0.1567(4) 0.5312(2)
C3_3 C 0.5846(7) 0.1634(5) 0.5402(4)
H1_3 H 0.6534(7) 0.0591(5) 0.5705(4)
H2_3 H 0.6273(7) 0.0483(5) 0.5167(4)
H3_3 H 0.5577(88) 0.4197(53) 0.5743(28)
La6_3 La 0.6250 0.6250 0.509370(13)
O5_3 O 0.1291(4) 0.2788(3) 0.48348(14)
O6_3 O 0.8791(4) 0.0288(3) 0.51652(14)
O8_3 O 0.3791(4) 0.5288(3) 0.51652(14)
O9_3 O 0.6209(4) 0.4712(3) 0.48348(14)
O18_3 O 0.8795(4) 0.1630(3) 0.5397(2)
O19_3 O 0.6205(4) 0.3370(3) 0.4603(2)
O20_3 O 0.1295(4) 0.4130(3) 0.4603(2)
O23_3 O 0.3795(4) 0.6630(3) 0.5397(2)
O25_3 O 0.2212(5) 0.3779(3) 0.56564(15)
C4_3 C 0.8150(6) 0.0933(4) 0.5312(2)
C5_3 C 0.3150(6) 0.5933(4) 0.5312(2)
C8_3 C 0.6654(7) 0.0866(5) 0.5402(4)
C9_3 C 0.1654(7) 0.5866(5) 0.5402(4)
C10_3 C 0.0846(7) 0.6634(5) 0.5402(4)
H4_3 H 0.5966(7) 0.1909(5) 0.5705(4)
H5_3 H 0.1534(7) 0.5591(5) 0.5705(4)
H6_3 H 0.0966(7) 0.6909(5) 0.5705(4)
H7_3 H 0.6227(7) 0.2017(5) 0.5167(4)
H8_3 H 0.1273(7) 0.5483(5) 0.5167(4)
H9_3 H 0.1227(7) 0.7017(5) 0.5167(4)
H10_3 H 0.1923(88) 0.3303(53) 0.5743(28)
H13_3 H 0.609 0.334812 0.559041
H15_3 H 0.141 0.415188 0.559041
La3_3 La 0.8750 0.8750 0.490630(13)
O10_3 O 0.8709(4) 0.7212(3) 0.51652(14)
O11_3 O 0.6291(4) 0.7788(3) 0.48348(14)
O16_3 O 0.8632(4) 0.7888(2) 0.41425(13)
O17_3 O 0.8868(4) 0.9612(2) 0.41425(13)
O21_3 O 0.6295(4) 0.9130(3) 0.4603(2)
O26_3 O 0.7212(5) 0.8779(3) 0.56564(15)
H11_3 H 0.6923(88) 0.8303(53) 0.5743(28)
H14_3 H 0.641 0.915188 0.559041
O24_3 O 0.8705(4) 0.5870(3) 0.5397(2)
C6_3 C 0.9350(6) 0.6567(4) 0.5312(2)
C2_3 C 0.8750 0.8252(5) 0.3750
C7_3 C 0.8750 0.9248(5) 0.3750
C2_4 C 0.8750 0.3252(5) 0.8750
La5_3 La 0.8750 0.3750 0.990630(13)
O13_3 O 0.8632(4) 0.2888(2) 0.91425(13)
O14_3 O 0.8868(4) 0.4612(2) 0.91425(13)
C7_4 C 0.8750 0.4248(5) 0.8750
La7 La 0.1250 0.6250 0.009370(13)
O1_4 O 0.3791(4) 0.0288(3) 0.01652(14)
O3_4 O 0.3795(4) 0.1630(3) 0.0397(2)
C1_4 C 0.3150(6) 0.0933(4) 0.0312(2)
C3_4 C 0.1654(7) 0.0866(5) 0.0402(4)
H1_4 H 0.0966(7) 0.1909(5) 0.0705(4)
H2_4 H 0.1227(7) 0.2017(5) 0.0167(4)
La2 La 0.6250 0.1250 0.009370(13)
O26_4 O 0.0288(5) 0.3721(3) 0.06564(15)
C8_4 C 0.0846(7) 0.1634(5) 0.0402(4)
H4_4 H 0.1534(7) 0.0591(5) 0.0705(4)
H7_4 H 0.1273(7) 0.0483(5) 0.0167(4)
H11_4 H 0.0577(88) 0.4197(53) 0.0743(28)
H14_4 H 0.109 0.334812 0.0590412
O11_4 O 0.1209(4) 0.4712(3) 0.98348(14)
O21_4 O 0.1205(4) 0.3370(3) 0.9603(2)
O4_4 O 0.2212(5) 0.8779(3) 0.06564(15)
H3_4 H 0.1923(88) 0.8303(53) 0.0743(28)
O8_4 O 0.3709(4) 0.7212(3) 0.01652(14)
O12 O 0.8791(4) 0.5288(3) 0.01652(14)
O23_4 O 0.3705(4) 0.5870(3) 0.0397(2)
O24_4 O 0.8795(4) 0.6630(3) 0.0397(2)
O25_4 O 0.5288(5) 0.8721(3) 0.06564(15)
C5_4 C 0.4350(6) 0.6567(4) 0.0312(2)
C6_4 C 0.8150(6) 0.5933(4) 0.0312(2)
C9_4 C 0.5846(7) 0.6634(5) 0.0402(4)
C10_4 C 0.6654(7) 0.5866(5) 0.0402(4)
H5_4 H 0.5966(7) 0.6909(5) 0.0705(4)
H6_4 H 0.6534(7) 0.5591(5) 0.0705(4)
H8_4 H 0.6227(7) 0.7017(5) 0.0167(4)
H9_4 H 0.6273(7) 0.5483(5) 0.0167(4)
H10_4 H 0.5577(88) 0.9197(53) 0.0743(28)
H13_4 H 0.141 0.915188 0.0590412
H15_4 H 0.609 0.834812 0.0590412
O5_4 O 0.6209(4) 0.9712(3) 0.98348(14)
O9_4 O 0.1291(4) 0.7788(3) 0.98348(14)
O19_4 O 0.1295(4) 0.9130(3) 0.9603(2)
O20_4 O 0.6205(4) 0.8370(3) 0.9603(2)
O6_4 O 0.8709(4) 0.2212(3) 0.01652(14)
O18_4 O 0.8705(4) 0.0870(3) 0.0397(2)
O27_4 O 0.7212(5) 0.3779(3) 0.06564(15)
C4_4 C 0.9350(6) 0.1567(4) 0.0312(2)
H12_4 H 0.6923(88) 0.3303(53) 0.0743(28)
H16_4 H 0.641 0.415188 0.0590412
O7_4 O 0.6291(4) 0.2788(3) 0.98348(14)
O22_4 O 0.6295(4) 0.4130(3) 0.9603(2)
C6_5 C 0.0650(6) 0.4067(4) 0.2812(2)
O2_3 O 0.6132(4) 0.2112(2) 0.16425(13)
O4_5 O 0.4712(5) 0.1221(3) 0.31564(15)
C2_5 C 0.6250 0.1748(5) 0.1250
H3_5 H 0.4423(88) 0.1697(53) 0.3243(28)
O13_4 O 0.6368(4) 0.2112(2) 0.08575(13)
O14_4 O 0.6132(4) 0.0388(2) 0.08575(13)
O15_3 O 0.6368(4) 0.0388(2) 0.16425(13)
O25_5 O 0.7788(5) 0.1279(3) 0.31564(15)
C5_5 C 0.6850(6) 0.3433(4) 0.2812(2)
C7_5 C 0.6250 0.0752(5) 0.1250
C9_5 C 0.8346(7) 0.3366(5) 0.2902(4)
C10_5 C 0.9154(7) 0.4134(5) 0.2902(4)
H5_5 H 0.8466(7) 0.3091(5) 0.3205(4)
H6_5 H 0.9034(7) 0.4409(5) 0.3205(4)
H8_5 H 0.8727(7) 0.2983(5) 0.2667(4)
H9_5 H 0.8773(7) 0.4517(5) 0.2667(4)
H10_5 H 0.8077(88) 0.0803(53) 0.3243(28)
H13_5 H 0.391 0.0848124 0.309041
H15_5 H 0.859 0.165188 0.309041
C1_5 C 0.5650(6) 0.9067(4) 0.2812(2)
C3_5 C 0.4154(7) 0.9134(5) 0.2902(4)
H1_5 H 0.3466(7) 0.8091(5) 0.3205(4)
H2_5 H 0.3727(7) 0.7983(5) 0.2667(4)
O16_4 O 0.1368(4) 0.5388(2) 0.16425(13)
O17_4 O 0.1132(4) 0.7112(2) 0.16425(13)
O26_5 O 0.2788(5) 0.6279(3) 0.31564(15)
C4_5 C 0.1850(6) 0.8433(4) 0.2812(2)
C8_5 C 0.3346(7) 0.8366(5) 0.2902(4)
H4_5 H 0.4034(7) 0.9409(5) 0.3205(4)
H7_5 H 0.3773(7) 0.9517(5) 0.2667(4)
H11_5 H 0.3077(88) 0.5803(53) 0.3243(28)
H14_5 H 0.359 0.665188 0.309041
O27_5 O 0.9712(5) 0.6221(3) 0.31564(15)
H12_5 H 0.9423(88) 0.6697(53) 0.3243(28)
H16_5 H 0.891 0.584812 0.309041
C6_6 C 0.0650(6) 0.9067(4) 0.7812(2)
O2_4 O 0.6132(4) 0.7112(2) 0.66425(13)
O4_6 O 0.4712(5) 0.6221(3) 0.81564(15)
C1_6 C 0.5650(6) 0.4067(4) 0.7812(2)
C2_6 C 0.6250 0.6748(5) 0.6250
C3_6 C 0.4154(7) 0.4134(5) 0.7902(4)
H1_6 H 0.3466(7) 0.3091(5) 0.8205(4)
H2_6 H 0.3727(7) 0.2983(5) 0.7667(4)
H3_6 H 0.4423(88) 0.6697(53) 0.8243(28)
O13_5 O 0.6368(4) 0.7112(2) 0.58575(13)
O14_5 O 0.6132(4) 0.5388(2) 0.58575(13)
O15_4 O 0.6368(4) 0.5388(2) 0.66425(13)
O16_5 O 0.1368(4) 0.0388(2) 0.66425(13)
O17_5 O 0.1132(4) 0.2112(2) 0.66425(13)
O25_6 O 0.7788(5) 0.6279(3) 0.81564(15)
O26_6 O 0.2788(5) 0.1279(3) 0.81564(15)
C4_6 C 0.1850(6) 0.3433(4) 0.7812(2)
C5_6 C 0.6850(6) 0.8433(4) 0.7812(2)
C7_6 C 0.6250 0.5752(5) 0.6250
C8_6 C 0.3346(7) 0.3366(5) 0.7902(4)
C9_6 C 0.8346(7) 0.8366(5) 0.7902(4)
C10_6 C 0.9154(7) 0.9134(5) 0.7902(4)
H4_6 H 0.4034(7) 0.4409(5) 0.8205(4)
H5_6 H 0.8466(7) 0.8091(5) 0.8205(4)
H6_6 H 0.9034(7) 0.9409(5) 0.8205(4)
H7_6 H 0.3773(7) 0.4517(5) 0.7667(4)
H8_6 H 0.8727(7) 0.7983(5) 0.7667(4)
H9_6 H 0.8773(7) 0.9517(5) 0.7667(4)
H10_6 H 0.8077(88) 0.5803(53) 0.8243(28)
H11_6 H 0.3077(88) 0.0803(53) 0.8243(28)
H13_6 H 0.391 0.584812 0.809041
H14_6 H 0.359 0.165188 0.809041
H15_6 H 0.859 0.665188 0.809041
O27_6 O 0.9712(5) 0.1221(3) 0.81564(15)
H12_6 H 0.9423(88) 0.1697(53) 0.8243(28)
H16_6 H 0.891 0.0848124 0.809041
C6_7 C 0.0650(6) 0.3433(4) 0.4688(2)
O16_6 O 0.1368(4) 0.2112(2) 0.58575(13)
O17_6 O 0.1132(4) 0.0388(2) 0.58575(13)
O26_7 O 0.2788(5) 0.1221(3) 0.43436(15)
H11_7 H 0.3077(88) 0.1697(53) 0.4257(28)
H14_7 H 0.359 0.0848124 0.440959
O4_7 O 0.4712(5) 0.6279(3) 0.43436(15)
C1_7 C 0.5650(6) 0.8433(4) 0.4688(2)
C3_7 C 0.4154(7) 0.8366(5) 0.4598(4)
H1_7 H 0.3466(7) 0.9409(5) 0.4295(4)
H2_7 H 0.3727(7) 0.9517(5) 0.4833(4)
H3_7 H 0.4423(88) 0.5803(53) 0.4257(28)
O25_7 O 0.7788(5) 0.6221(3) 0.43436(15)
C4_7 C 0.1850(6) 0.9067(4) 0.4688(2)
C5_7 C 0.6850(6) 0.4067(4) 0.4688(2)
C8_7 C 0.3346(7) 0.9134(5) 0.4598(4)
C9_7 C 0.8346(7) 0.4134(5) 0.4598(4)
C10_7 C 0.9154(7) 0.3366(5) 0.4598(4)
H4_7 H 0.4034(7) 0.8091(5) 0.4295(4)
H5_7 H 0.8466(7) 0.4409(5) 0.4295(4)
H6_7 H 0.9034(7) 0.3091(5) 0.4295(4)
H7_7 H 0.3773(7) 0.7983(5) 0.4833(4)
H8_7 H 0.8727(7) 0.4517(5) 0.4833(4)
H9_7 H 0.8773(7) 0.2983(5) 0.4833(4)
H10_7 H 0.8077(88) 0.6697(53) 0.4257(28)
H13_7 H 0.391 0.665188 0.440959
H15_7 H 0.859 0.584812 0.440959
O27_7 O 0.9712(5) 0.1279(3) 0.43436(15)
H12_7 H 0.9423(88) 0.0803(53) 0.4257(28)
H16_7 H 0.891 0.165188 0.440959
C2_7 C 0.1250 0.1748(5) 0.6250
C7_7 C 0.1250 0.0752(5) 0.6250
C2_8 C 0.1250 0.6748(5) 0.1250
O13_6 O 0.1368(4) 0.7112(2) 0.08575(13)
O14_6 O 0.1132(4) 0.5388(2) 0.08575(13)
C7_8 C 0.1250 0.5752(5) 0.1250
O27_8 O 0.2788(5) 0.6221(3) 0.93436(15)
C4_8 C 0.0650(6) 0.8433(4) 0.9688(2)
H12_8 H 0.3077(88) 0.6697(53) 0.9257(28)
H16_8 H 0.359 0.584812 0.940959
O4_8 O 0.7788(5) 0.1221(3) 0.93436(15)
H3_8 H 0.8077(88) 0.1697(53) 0.9257(28)
O25_8 O 0.4712(5) 0.1279(3) 0.93436(15)
C5_8 C 0.5650(6) 0.3433(4) 0.9688(2)
C6_8 C 0.1850(6) 0.4067(4) 0.9688(2)
C9_8 C 0.4154(7) 0.3366(5) 0.9598(4)
C10_8 C 0.3346(7) 0.4134(5) 0.9598(4)
H5_8 H 0.4034(7) 0.3091(5) 0.9295(4)
H6_8 H 0.3466(7) 0.4409(5) 0.9295(4)
H8_8 H 0.3773(7) 0.2983(5) 0.9833(4)
H9_8 H 0.3727(7) 0.4517(5) 0.9833(4)
H10_8 H 0.4423(88) 0.0803(53) 0.9257(28)
H13_8 H 0.859 0.0848124 0.940959
H15_8 H 0.391 0.165188 0.940959
C1_8 C 0.6850(6) 0.9067(4) 0.9688(2)
C3_8 C 0.8346(7) 0.9134(5) 0.9598(4)
H1_8 H 0.9034(7) 0.8091(5) 0.9295(4)
H2_8 H 0.8773(7) 0.7983(5) 0.9833(4)
O26_8 O 0.9712(5) 0.6279(3) 0.93436(15)
C8_8 C 0.9154(7) 0.8366(5) 0.9598(4)
H4_8 H 0.8466(7) 0.9409(5) 0.9295(4)
H7_8 H 0.8727(7) 0.9517(5) 0.9833(4)
H11_8 H 0.9423(88) 0.5803(53) 0.9257(28)
H14_8 H 0.891 0.665188 0.940959
loop_
_geom_bond_atom_site_label_1
_geom_bond_atom_site_label_2
_geom_bond_site_symmetry_1
_geom_bond_site_symmetry_2
H12 O27 1_555 1_555
La4 O7 1_555 1_555
O27 H16 1_555 1_555
O1 C1 1_555 1_555
O3 C1 1_555 1_555
C1 C3 1_555 1_555
C3 C8 1_555 1_555
H1 C8 1_555 1_555
H2 C8 1_555 1_555
La4 O1 1_555 1_555
La3 O6 1_555 1_555
O6 C4 1_555 1_555
O10 La3 1_555 1_555
O11 La3 1_555 1_555
O16 La3 1_555 1_555
O17 La3 1_555 1_555
O21 La3 1_555 1_555
O26 La3 1_555 1_555
C4 O18 1_555 1_555
C8 C4 1_555 1_555
H4 C3 1_555 1_555
H7 C3 1_555 1_555
H11 O26 1_555 1_555
O3 La4 1_555 1_555
O26 H14 1_555 1_555
O2 La1 1_555 1_555
O4 La1 1_555 1_555
C2 O2 1_555 1_555
H3 O4 1_555 1_555
La5 O13 1_555 1_555
La6 O8 1_555 1_555
O5 La1 1_555 1_555
O8 La1 1_555 1_555
O9 La1 1_555 1_555
O13 C2 1_555 1_555
O14 La5 1_555 1_555
O15 La1 1_555 1_555
O19 La1 1_555 1_555
O20 La1 1_555 1_555
O23 La6 1_555 1_555
O25 La1 1_555 1_555
C5 O8 1_555 1_555
C7 C2 1_555 1_555
C9 C5 1_555 1_555
H5 C9 1_555 1_555
H6 C10 1_555 1_555
H8 C9 1_555 1_555
H9 C10 1_555 1_555
H10 O25 1_555 1_555
La6 O9 1_555 1_555
O14 C7 1_555 1_555
O15 C7 1_555 1_555
O23 C5 1_555 1_555
C9 C10 1_555 1_555
O4 H13 1_555 1_555
O25 H15 1_555 1_555
La6 O10 1_555 1_555
O10 C6 1_555 1_555
O24 La6 1_555 1_555
C6 O24 1_555 1_555
H12_2 O27_2 1_555 1_555
La4_2 O7_2 1_555 1_555
O27_2 H16_2 1_555 1_555
La1_2 O1_2 1_555 1_555
O1_2 C1_2 1_555 1_555
O2_2 La1_2 1_555 1_555
O3_2 C1_2 1_555 1_555
O4_2 La1_2 1_555 1_555
C1_2 C3_2 1_555 1_555
C2_2 O2_2 1_555 1_555
C3_2 C8_2 1_555 1_555
H1_2 C8_2 1_555 1_555
H2_2 C8_2 1_555 1_555
H3_2 O4_2 1_555 1_555
La4_2 O1_2 1_555 1_555
La3_2 O6_2 1_555 1_555
La5_2 O13_2 1_555 1_555
La6_2 O8_2 1_555 1_555
O5_2 La1_2 1_555 1_555
O6_2 C4_2 1_555 1_555
O8_2 La1_2 1_555 1_555
O9_2 La1_2 1_555 1_555
O11_2 La3_2 1_555 1_555
O13_2 C2_2 1_555 1_555
O14_2 La5_2 1_555 1_555
O15_2 La1_2 1_555 1_555
O16_2 La3_2 1_555 1_555
O17_2 La3_2 1_555 1_555
O19_2 La1_2 1_555 1_555
O20_2 La1_2 1_555 1_555
O21_2 La3_2 1_555 1_555
O23_2 La6_2 1_555 1_555
O25_2 La1_2 1_555 1_555
O26_2 La3_2 1_555 1_555
C4_2 O18_2 1_555 1_555
C5_2 O8_2 1_555 1_555
C7_2 C2_2 1_555 1_555
C8_2 C4_2 1_555 1_555
C9_2 C5_2 1_555 1_555
H4_2 C3_2 1_555 1_555
H5_2 C9_2 1_555 1_555
H6_2 C10_2 1_555 1_555
H7_2 C3_2 1_555 1_555
H8_2 C9_2 1_555 1_555
H9_2 C10_2 1_555 1_555
H10_2 O25_2 1_555 1_555
H11_2 O26_2 1_555 1_555
O3_2 La4_2 1_555 1_555
La4_2 O5_2 1_555 1_555
La6_2 O9_2 1_555 1_555
O14_2 C7_2 1_555 1_555
O15_2 C7_2 1_555 1_555
O23_2 C5_2 1_555 1_555
C9_2 C10_2 1_555 1_555
O4_2 H13_2 1_555 1_555
O26_2 H14_2 1_555 1_555
O25_2 H15_2 1_555 1_555
La6_2 O10_2 1_555 1_555
O10_2 C6_2 1_555 1_555
O24_2 La6_2 1_555 1_555
C6_2 O24_2 1_555 1_555
H12_3 O27_3 1_555 1_555
O27_3 H16_3 1_555 1_555
La5_2 O1_3 1_555 1_555
O1_3 C1_3 1_555 1_555
O3_3 C1_3 1_555 1_555
O4_3 La5_2 1_555 1_555
C1_3 C3_3 1_555 1_555
C3_3 C8_3 1_555 1_555
H1_3 C8_3 1_555 1_555
H2_3 C8_3 1_555 1_555
H3_3 O4_3 1_555 1_555
La4_3 O1_3 1_555 1_555
La6_3 O8_3 1_555 1_555
O5_3 La5_2 1_555 1_555
O6_3 C4_3 1_555 1_555
O8_3 La5_2 1_555 1_555
O9_3 La5_2 1_555 1_555
O19_3 La5_2 1_555 1_555
O20_3 La5_2 1_555 1_555
O23_3 La6_3 1_555 1_555
O25_3 La5_2 1_555 1_555
C4_3 O18_3 1_555 1_555
C5_3 O8_3 1_555 1_555
C8_3 C4_3 1_555 1_555
C9_3 C5_3 1_555 1_555
H4_3 C3_3 1_555 1_555
H5_3 C9_3 1_555 1_555
H6_3 C10_3 1_555 1_555
H7_3 C3_3 1_555 1_555
H8_3 C9_3 1_555 1_555
H9_3 C10_3 1_555 1_555
H10_3 O25_3 1_555 1_555
O3_3 La4_3 1_555 1_555
La4_3 O5_3 1_555 1_555
La6_3 O9_3 1_555 1_555
O23_3 C5_3 1_555 1_555
C9_3 C10_3 1_555 1_555
O4_3 H13_3 1_555 1_555
O25_3 H15_3 1_555 1_555
O10_3 La3_3 1_555 1_555
O11_3 La3_3 1_555 1_555
O16_3 La3_3 1_555 1_555
O17_3 La3_3 1_555 1_555
O21_3 La3_3 1_555 1_555
O26_3 La3_3 1_555 1_555
H11_3 O26_3 1_555 1_555
O26_3 H14_3 1_555 1_555
La6_3 O10_3 1_555 1_555
O10_3 C6_3 1_555 1_555
O24_3 La6_3 1_555 1_555
C6_3 O24_3 1_555 1_555
C2_3 O17_2 1_555 1_555
O16_3 C2_3 1_555 1_555
C7_3 C2_3 1_555 1_555
O17_3 C7_3 1_555 1_555
O16_2 C7_3 1_555 1_555
La6_3 O11_3 1_555 1_555
C2_4 O17 1_555 1_555
La5_3 O13_3 1_555 1_555
O13_3 C2_4 1_555 1_555
O14_3 La5_3 1_555 1_555
C7_4 C2_4 1_555 1_555
La6 O11 1_555 1_555
O14_3 C7_4 1_555 1_555
O16 C7_4 1_555 1_555
O1_4 C1_4 1_555 1_555
O3_4 C1_4 1_555 1_555
C1_4 C3_4 1_555 1_555
C3_4 C8_4 1_555 1_555
H1_4 C8_4 1_555 1_555
H2_4 C8_4 1_555 1_555
La2 O1_4 1_555 1_555
H4_4 C3_4 1_555 1_555
H7_4 C3_4 1_555 1_555
H11_4 O26_4 1_555 1_555
O3_4 La2 1_555 1_555
O26_4 H14_4 1_555 1_555
H3_4 O4_4 1_555 1_555
La7 O8_4 1_555 1_555
O12 C6_4 1_555 1_555
O23_4 La7 1_555 1_555
C5_4 O8_4 1_555 1_555
C6_4 O24_4 1_555 1_555
C9_4 C5_4 1_555 1_555
C10_4 C6_4 1_555 1_555
H5_4 C9_4 1_555 1_555
H6_4 C10_4 1_555 1_555
H8_4 C9_4 1_555 1_555
H9_4 C10_4 1_555 1_555
H10_4 O25_4 1_555 1_555
O23_4 C5_4 1_555 1_555
C9_4 C10_4 1_555 1_555
O4_4 H13_4 1_555 1_555
O25_4 H15_4 1_555 1_555
O5_4 La5 1_555 1_555
O9_4 La5 1_555 1_555
O19_4 La5 1_555 1_555
O20_4 La5 1_555 1_555
La2 O6_4 1_555 1_555
O6_4 C4_4 1_555 1_555
O18_4 La2 1_555 1_555
C4_4 O18_4 1_555 1_555
H12_4 O27_4 1_555 1_555
O27_4 H16_4 1_555 1_555
O7_4 La5_3 1_555 1_555
O22_4 La5_3 1_555 1_555
O5_2 C6_5 1_555 1_555
C6_5 O20_2 1_555 1_555
O2_3 La6_2 1_555 1_555
O4_5 La6_2 1_555 1_555
C2_5 O2_3 1_555 1_555
H3_5 O4_5 1_555 1_555
La2 O13_4 1_555 1_555
O13_4 C2_5 1_555 1_555
O14_4 La2 1_555 1_555
O15_3 La6_2 1_555 1_555
O25_5 La6_2 1_555 1_555
C5_5 O9_2 1_555 1_555
C7_5 C2_5 1_555 1_555
C9_5 C5_5 1_555 1_555
H5_5 C9_5 1_555 1_555
H6_5 C10_5 1_555 1_555
H8_5 C9_5 1_555 1_555
H9_5 C10_5 1_555 1_555
H10_5 O25_5 1_555 1_555
O14_4 C7_5 1_555 1_555
O15_3 C7_5 1_555 1_555
O19_2 C5_5 1_555 1_555
C9_5 C10_5 1_555 1_555
O4_5 H13_5 1_555 1_555
O25_5 H15_5 1_555 1_555
O11_2 C1_5 1_555 1_555
O21_2 C1_5 1_555 1_555
C1_5 C3_5 1_555 1_555
C3_5 C8_5 1_555 1_555
H1_5 C8_5 1_555 1_555
H2_5 C8_5 1_555 1_555
O7_2 C4_5 1_555 1_555
O16_4 La4_2 1_555 1_555
O17_4 La4_2 1_555 1_555
O26_5 La4_2 1_555 1_555
C4_5 O22_2 1_555 1_555
C8_5 C4_5 1_555 1_555
H4_5 C3_5 1_555 1_555
H7_5 C3_5 1_555 1_555
H11_5 O26_5 1_555 1_555
O26_5 H14_5 1_555 1_555
H12_5 O27_5 1_555 1_555
O27_5 H16_5 1_555 1_555
O5 C6_6 1_555 1_555
C6_6 O20 1_555 1_555
O11 C1_6 1_555 1_555
O2_4 La6 1_555 1_555
O21 C1_6 1_555 1_555
O4_6 La6 1_555 1_555
C1_6 C3_6 1_555 1_555
C2_6 O2_4 1_555 1_555
C3_6 C8_6 1_555 1_555
H1_6 C8_6 1_555 1_555
H2_6 C8_6 1_555 1_555
H3_6 O4_6 1_555 1_555
La6_3 O13_5 1_555 1_555
O7 C4_6 1_555 1_555
O13_5 C2_6 1_555 1_555
O14_5 La6_3 1_555 1_555
O15_4 La6 1_555 1_555
O16_5 La4 1_555 1_555
O17_5 La4 1_555 1_555
O25_6 La6 1_555 1_555
O26_6 La4 1_555 1_555
C4_6 O22 1_555 1_555
C5_6 O9 1_555 1_555
C7_6 C2_6 1_555 1_555
C8_6 C4_6 1_555 1_555
C9_6 C5_6 1_555 1_555
H4_6 C3_6 1_555 1_555
H5_6 C9_6 1_555 1_555
H6_6 C10_6 1_555 1_555
H7_6 C3_6 1_555 1_555
H8_6 C9_6 1_555 1_555
H9_6 C10_6 1_555 1_555
H10_6 O25_6 1_555 1_555
H11_6 O26_6 1_555 1_555
O14_5 C7_6 1_555 1_555
O15_4 C7_6 1_555 1_555
O19 C5_6 1_555 1_555
C9_6 C10_6 1_555 1_555
O4_6 H13_6 1_555 1_555
O26_6 H14_6 1_555 1_555
O25_6 H15_6 1_555 1_555
H12_6 O27_6 1_555 1_555
O27_6 H16_6 1_555 1_555
O5_3 C6_7 1_555 1_555
C6_7 O20_3 1_555 1_555
O16_6 La4_3 1_555 1_555
O17_6 La4_3 1_555 1_555
O26_7 La4_3 1_555 1_555
H11_7 O26_7 1_555 1_555
O26_7 H14_7 1_555 1_555
O11_3 C1_7 1_555 1_555
O21_3 C1_7 1_555 1_555
O4_7 La6_3 1_555 1_555
C1_7 C3_7 1_555 1_555
C3_7 C8_7 1_555 1_555
H1_7 C8_7 1_555 1_555
H2_7 C8_7 1_555 1_555
H3_7 O4_7 1_555 1_555
O7_3 C4_7 1_555 1_555
O25_7 La6_3 1_555 1_555
C4_7 O22_3 1_555 1_555
C5_7 O9_3 1_555 1_555
C8_7 C4_7 1_555 1_555
C9_7 C5_7 1_555 1_555
H4_7 C3_7 1_555 1_555
H5_7 C9_7 1_555 1_555
H6_7 C10_7 1_555 1_555
H7_7 C3_7 1_555 1_555
H8_7 C9_7 1_555 1_555
H9_7 C10_7 1_555 1_555
H10_7 O25_7 1_555 1_555
O19_3 C5_7 1_555 1_555
C9_7 C10_7 1_555 1_555
O4_7 H13_7 1_555 1_555
O25_7 H15_7 1_555 1_555
H12_7 O27_7 1_555 1_555
O27_7 H16_7 1_555 1_555
C2_7 O17_5 1_555 1_555
O16_6 C2_7 1_555 1_555
C7_7 C2_7 1_555 1_555
O17_6 C7_7 1_555 1_555
O16_5 C7_7 1_555 1_555
C2_8 O17_4 1_555 1_555
La7 O13_6 1_555 1_555
O13_6 C2_8 1_555 1_555
O14_6 La7 1_555 1_555
C7_8 C2_8 1_555 1_555
O14_6 C7_8 1_555 1_555
O16_4 C7_8 1_555 1_555
O9_4 C4_8 1_555 1_555
C4_8 O19_4 1_555 1_555
H12_8 O27_8 1_555 1_555
O27_8 H16_8 1_555 1_555
H3_8 O4_8 1_555 1_555
O11_4 C6_8 1_555 1_555
C5_8 O7_4 1_555 1_555
C6_8 O21_4 1_555 1_555
C9_8 C5_8 1_555 1_555
C10_8 C6_8 1_555 1_555
H5_8 C9_8 1_555 1_555
H6_8 C10_8 1_555 1_555
H8_8 C9_8 1_555 1_555
H9_8 C10_8 1_555 1_555
H10_8 O25_8 1_555 1_555
O22_4 C5_8 1_555 1_555
C9_8 C10_8 1_555 1_555
O4_8 H13_8 1_555 1_555
O25_8 H15_8 1_555 1_555
O5_4 C1_8 1_555 1_555
O20_4 C1_8 1_555 1_555
C1_8 C3_8 1_555 1_555
C3_8 C8_8 1_555 1_555
H1_8 C8_8 1_555 1_555
H2_8 C8_8 1_555 1_555
H4_8 C3_8 1_555 1_555
H7_8 C3_8 1_555 1_555
H11_8 O26_8 1_555 1_555
O26_8 H14_8 1_555 1_555

#END
