
###############################################################################
#
# This file contains modified crystal structure data generated from the
# MOF subset of the Cambridge Structural Database (CSD) v543 
# hosted by the Cambridge Crystallographic Data Centre (CCDC).
#
# This work is licensed under the Creative Commons
# Attribution-NonCommercial-ShareAlike 4.0 International License.
# To view a copy of this license, visit
# http://creativecommons.org/licenses/by-nc-sa/4.0/
# or send a letter to
# Creative Commons, PO Box 1866, Mountain View, CA 94042, USA.
#
# CIF created using the CSD Python API on 29 September 2022
# The structure has been converted into the P1 space group
# The structure has a 3D framework
# The original CSD entry XAKYUE is in the tetragonal crystal system
# The framework has been calculated to contain at least 10.0% void space
# The void calculation uses a probe of radius 1.32A, grid spacing 0.4
# H atom positions have been added when not included in the experimental data
#
###############################################################################

data_XAKYUE
_chemical_formula_moiety         '(C720 H736 Mn48 N144 O156)n'
_symmetry_cell_setting           triclinic
_symmetry_space_group_name_H-M   'P 1'
_symmetry_Int_Tables_number      1
_space_group_name_Hall           'P 1'
loop_
_symmetry_equiv_pos_site_id
_symmetry_equiv_pos_as_xyz
1 x,y,z
_cell_length_a                   40.6327(3)
_cell_length_b                   40.6327(3)
_cell_length_c                   17.6171(2)
_cell_angle_alpha                90
_cell_angle_beta                 90
_cell_angle_gamma                90
_cell_volume                     29086.1
loop_
_atom_site_label
_atom_site_type_symbol
_atom_site_fract_x
_atom_site_fract_y
_atom_site_fract_z
N10 N 0.00658(13) 0.05339(14) 0.1862(4)
O2 O 0.11627(12) 0.05366(12) 0.1065(3)
N1 N 0.10753(13) 0.00721(14) 0.0383(3)
N2 N 0.07707(13) 0.00476(15) 0.0791(4)
C2 C 0.15806(16) 0.03715(17) 0.0198(4)
C3 C 0.17830(17) 0.06210(18) 0.0466(4)
H1 H 0.1708 0.0756 0.0871
C4 C 0.20955(18) 0.0678(2) 0.0152(5)
H2 H 0.2229 0.0853 0.0333
C7 C 0.12575(16) 0.03260(16) 0.0582(4)
Mn2 Mn 0.07571(2) 0.04550(3) 0.16554(7)
O4 O 0.09783(12) 0.02002(14) 0.2368(3)
O6 O 0.04580(12) 0.07027(12) 0.1009(3)
O7 O 0.08690(13) 0.09340(15) 0.2234(4)
N4 N 0.03460(14) 0.03855(15) 0.2200(4)
N6 N 0.0888(2) 0.1492(2) 0.2245(7)
C17 C 0.08644(19) 0.0044(2) 0.2994(5)
C18 C 0.0541(2) 0.0059(2) 0.3241(5)
C23 C 0.02787(17) 0.0231(2) 0.2842(4)
C24 C 0.01565(15) 0.06982(16) 0.1237(4)
C26 C 0.0025(2) 0.1102(3) 0.0204(7)
H24 H 0.0208 0.1233 0.0400
C27 C 0.0779(3) 0.1214(3) 0.1971(7)
C28 C 0.1144(4) 0.1523(4) 0.2801(10)
H25 H 0.1357 0.1545 0.2544
H26 H 0.1104 0.1718 0.3114
H27 H 0.1147 0.1327 0.3125
C29 C 0.0792(4) 0.1811(3) 0.1869(15)
H28 H 0.0644 0.1765 0.1443
H29 H 0.0681 0.1953 0.2238
H30 H 0.0990 0.1921 0.1680
H46 H 0.0604985 0.12203 0.150109
O5 O 0.00095(13) 0.97690(15) 0.6859(3)
C25 C 0.0102(2) 0.9116(2) 0.9188(5)
H20 H 0.0228 0.8981 0.8823
H21 H 0.0256 0.9276 0.9418
H23 H 0.0152 0.8751 0.9966
Mn4 Mn 0.03896(2) 0.96423(3) 0.75281(6)
Mn1 Mn 0.11423(2) 0.97143(2) 0.96626(6)
O1 O 0.15228(13) 0.99124(13) 0.9305(3)
H13 H 0.1699 0.9168 0.9790
O8 O 0.04791(13) 0.92346(15) 0.7106(3)
O9 O 0.11570(12) 0.93392(12) 0.8940(3)
N7 N 0.07519(14) 0.95892(15) 0.8238(3)
N8 N 0.08134(14) 0.98713(14) 0.8690(3)
C30 C 0.07067(18) 0.9017(2) 0.7286(5)
C31 C 0.09317(17) 0.90382(17) 0.7910(4)
C32 C 0.1162(2) 0.87938(19) 0.8019(5)
H31 H 0.1319 0.8819 0.8415
C33 C 0.1174(2) 0.8509(2) 0.7566(7)
H32 H 0.1332 0.8342 0.7658
C34 C 0.0951(2) 0.8481(2) 0.6993(7)
H33 H 0.0955 0.8287 0.6692
C35 C 0.0721(2) 0.8717(3) 0.6825(7)
H34 H 0.0572 0.8687 0.6415
C36 C 0.09446(15) 0.93330(17) 0.8385(4)
N11 N 0.0706(2) 0.99130(18) 0.6645(4)
C43 C 0.1217(5) 0.9985(3) 0.5985(9)
H42 H 0.1432 0.9905 0.5888
C44 C 0.1002(4) 0.9798(3) 0.6461(6)
H43 H 0.1072 0.9590 0.6648
Mn1_2 Mn 0.88577(2) 0.02857(2) 0.03374(6)
O1_2 O 0.84772(13) 0.00876(13) 0.0695(3)
H13_2 H 0.8301 0.0832 0.0210
Mn3 Mn 0.96104(2) 0.03577(3) 0.24719(6)
O8_2 O 0.95209(13) 0.07654(15) 0.2894(3)
O9_2 O 0.88430(12) 0.06608(12) 0.1060(3)
N7_2 N 0.92481(14) 0.04108(15) 0.1762(3)
N8_2 N 0.91866(14) 0.01287(14) 0.1310(3)
C30_2 C 0.92933(18) 0.0983(2) 0.2714(5)
C31_2 C 0.90683(17) 0.09618(17) 0.2090(4)
C32_2 C 0.8838(2) 0.12062(19) 0.1981(5)
H31_2 H 0.8681 0.1181 0.1585
C33_2 C 0.8826(2) 0.1491(2) 0.2434(7)
H32_2 H 0.8668 0.1658 0.2342
C34_2 C 0.9049(2) 0.1519(2) 0.3007(7)
H33_2 H 0.9045 0.1713 0.3308
C35_2 C 0.9279(2) 0.1283(3) 0.3175(7)
H34_2 H 0.9428 0.1313 0.3585
C36_2 C 0.90554(15) 0.06670(17) 0.1615(4)
O11 O 0.99905(13) 0.02310(15) 0.3141(3)
N11_2 N 0.9294(2) 0.00870(18) 0.3355(4)
C43_2 C 0.8783(5) 0.0015(3) 0.4015(9)
H42_2 H 0.8568 0.0095 0.4112
C44_2 C 0.8998(4) 0.0202(3) 0.3539(6)
H43_2 H 0.8928 0.0410 0.3352
C25_2 C 0.9898(2) 0.0884(2) 0.0812(5)
H20_2 H 0.9772 0.1019 0.1177
H21_2 H 0.9744 0.0724 0.0582
H23_2 H 0.9848 0.1249 0.0034
O3 O 0.92600(11) 0.04352(12) 0.9865(3)
N3 N 0.85754(16) 0.05960(15) 0.9474(4)
C8 C 0.93801(18) 0.02232(18) 0.9372(5)
C9 C 0.9698(3) 0.0301(3) 0.9009(8)
H5 H 0.9790 0.0104 0.8756
H6 H 0.9858 0.0381 0.9390
C10 C 0.9618(6) 0.0582(5) 0.8401(14)
H7 H 0.9554 0.0480 0.7919
H8 H 0.9813 0.0719 0.8323
H9 H 0.9437 0.0719 0.8588
C11 C 0.8653(2) 0.0576(2) 0.8746(5)
H10 H 0.8811 0.0418 0.8589
C12 C 0.8505(3) 0.0786(3) 0.8187(6)
H11 H 0.8559 0.0760 0.7666
C13 C 0.8287(3) 0.1026(3) 0.8406(7)
C14 C 0.8203(3) 0.1036(3) 0.9171(6)
H12 H 0.8043 0.1189 0.9346
C15 C 0.8357(2) 0.0818(2) 0.9687(5)
C16 C 0.8155(4) 0.1265(4) 0.7869(7)
H14 H 0.8032 0.1435 0.8155
H15 H 0.8341 0.1376 0.7612
C19 C 0.9548(3) 0.0096(3) 0.6058(7)
H16 H 0.9765 0.0082 0.5864
C20 C 0.9295(3) 0.0274(4) 0.5657(9)
H17 H 0.9344 0.0376 0.5185
C21 C 0.8996(3) 0.0295(4) 0.5944(11)
H18 H 0.8837 0.0420 0.5674
C22 C 0.8901(3) 0.0147(3) 0.6616(6)
H19 H 0.8684 0.0173 0.6809
N9 N 0.74130(18) 0.1794(2) 0.5855(4)
C40 C 0.7705(3) 0.1878(3) 0.6114(7)
H40 H 0.7796 0.2085 0.5976
C41 C 0.7880(4) 0.1669(4) 0.6584(8)
H41 H 0.8093 0.1735 0.6752
C42 C 0.7759(3) 0.1372(5) 0.6815(7)
C43_3 C 0.7485(3) 0.1283(5) 0.6515(9)
H42_3 H 0.7405 0.1068 0.6612
C44_3 C 0.7298(3) 0.1498(4) 0.6039(6)
H43_3 H 0.7090 0.1428 0.5852
C45 C 0.7942(4) 0.1128(7) 0.7302(11)
H44 H 0.8075 0.0985 0.6966
H45 H 0.7779 0.0985 0.7559
Mn5 Mn 0.71423(3) 0.21104(2) 0.49719(6)
Mn1_3 Mn 0.72143(2) 0.13577(2) 0.28374(6)
O1_3 O 0.74124(13) 0.09772(13) 0.3195(3)
O2_2 O 0.80366(12) 0.13373(12) 0.1435(3)
O3_2 O 0.70648(12) 0.17600(11) 0.2365(3)
N1_2 N 0.75721(14) 0.14247(13) 0.2117(3)
N2_2 N 0.75476(15) 0.17293(13) 0.1709(4)
N3_2 N 0.69040(15) 0.10754(16) 0.1974(4)
C1 C 0.76642(18) 0.08040(17) 0.2899(4)
C2_2 C 0.78715(17) 0.09194(16) 0.2302(4)
C3_2 C 0.81210(18) 0.07170(17) 0.2034(4)
H1_2 H 0.8256 0.0792 0.1629
C4_2 C 0.8178(2) 0.04045(18) 0.2348(5)
H2_2 H 0.8353 0.0271 0.2167
C5 C 0.7974(2) 0.0293(2) 0.2928(5)
H3 H 0.8006 0.0079 0.3132
C6 C 0.7721(2) 0.0493(2) 0.3218(5)
H4 H 0.7589 0.0418 0.3628
C7_2 C 0.78260(16) 0.12425(16) 0.1918(4)
C8_2 C 0.72768(18) 0.18801(18) 0.1872(5)
C9_2 C 0.7199(3) 0.2198(3) 0.1509(8)
H5_2 H 0.7396 0.2290 0.1256
H6_2 H 0.7119 0.2358 0.1890
C10_2 C 0.6918(5) 0.2118(6) 0.0901(14)
H7_2 H 0.7020 0.2054 0.0419
H8_2 H 0.6781 0.2313 0.0823
H9_2 H 0.6781 0.1937 0.1088
C11_2 C 0.6924(2) 0.1153(2) 0.1246(5)
H10_2 H 0.7082 0.1311 0.1089
C12_2 C 0.6714(3) 0.1005(3) 0.0687(6)
H11_2 H 0.6740 0.1059 0.0166
C13_2 C 0.6474(3) 0.0787(3) 0.0906(7)
C14_2 C 0.6464(3) 0.0703(3) 0.1671(6)
H12_2 H 0.6311 0.0543 0.1846
C15_2 C 0.6682(2) 0.0857(2) 0.2187(5)
H13_3 H 0.6668 0.0801 0.2710
C16_2 C 0.6235(4) 0.0655(4) 0.0369(7)
H14_2 H 0.6065 0.0532 0.0655
H15_2 H 0.6124 0.0841 0.0112
Mn2_2 Mn 0.79550(3) 0.17429(2) 0.08446(7)
O4_2 O 0.77002(14) 0.15217(12) 0.0132(3)
O6_2 O 0.82027(12) 0.20420(12) 0.1491(3)
O7_2 O 0.84340(15) 0.16310(13) 0.0266(4)
N4_2 N 0.78855(15) 0.21540(14) 0.0300(4)
N5 N 0.80339(14) 0.24342(13) 0.0638(4)
N6_2 N 0.8992(2) 0.1612(2) 0.0255(7)
C24_2 C 0.81982(16) 0.23435(15) 0.1263(4)
C25_3 C 0.8384(2) 0.2602(2) 0.1688(5)
H20_3 H 0.8519 0.2728 0.1323
H21_3 H 0.8224 0.2756 0.1918
C26_2 C 0.8602(3) 0.2475(2) 0.2296(7)
H22 H 0.8468 0.2399 0.2725
H23_3 H 0.8749 0.2652 0.2466
H24_2 H 0.8733 0.2292 0.2100
C27_2 C 0.8714(3) 0.1721(3) 0.0529(7)
C29_2 C 0.9311(3) 0.1708(4) 0.0631(15)
H28_2 H 0.9265 0.1856 0.1057
H29_2 H 0.9453 0.1819 0.0262
H30_2 H 0.9421 0.1510 0.0820
O8_3 O 0.67346(15) 0.20209(13) 0.5394(3)
O9_3 O 0.68392(12) 0.13430(12) 0.3560(3)
O10 O 0.75616(12) 0.21331(11) 0.4449(3)
N7_3 N 0.70892(15) 0.17481(14) 0.4262(3)
N8_3 N 0.73713(14) 0.16866(14) 0.3810(3)
C30_3 C 0.6517(2) 0.17933(18) 0.5214(5)
C31_3 C 0.65382(17) 0.15683(17) 0.4590(4)
C32_3 C 0.62938(19) 0.1338(2) 0.4481(5)
H31_3 H 0.6319 0.1181 0.4085
C33_3 C 0.6009(2) 0.1326(2) 0.4934(7)
H32_3 H 0.5842 0.1168 0.4842
C34_3 C 0.5981(2) 0.1549(2) 0.5507(7)
H33_3 H 0.5787 0.1545 0.5808
C35_3 C 0.6217(3) 0.1779(2) 0.5675(7)
H34_3 H 0.6187 0.1928 0.6085
C36_3 C 0.68330(17) 0.15554(15) 0.4115(4)
C37 C 0.76038(18) 0.18910(17) 0.3964(4)
C38 C 0.79309(18) 0.1861(2) 0.3600(6)
H35 H 0.7946 0.2029 0.3195
H36 H 0.7943 0.1642 0.3353
C39 C 0.8218(3) 0.1896(3) 0.4096(9)
H37 H 0.8229 0.1709 0.4446
H38 H 0.8418 0.1903 0.3787
H39 H 0.8199 0.2101 0.4387
H45_2 H 0.6515 0.0279 0.0059
O11_2 O 0.72690(15) 0.24905(13) 0.5641(3)
N10_2 N 0.69661(14) 0.25658(13) 0.4362(4)
Mn4_2 Mn 0.78577(3) 0.28896(2) 0.00281(6)
H46_2 H 0.87203 0.189502 0.0998907
O5_2 O 0.99905(13) 0.52310(15) 0.6859(3)
C25_4 C 0.9898(2) 0.5884(2) 0.9188(5)
H20_4 H 0.9772 0.6019 0.8823
H21_4 H 0.9744 0.5724 0.9418
H23_4 H 0.9848 0.6249 0.9966
Mn4_3 Mn 0.96104(2) 0.53577(3) 0.75281(6)
Mn1_4 Mn 0.77857(2) 0.36423(2) 0.21626(6)
O1_4 O 0.75876(13) 0.40228(13) 0.1805(3)
O2_3 O 0.69634(12) 0.36627(12) 0.3565(3)
O3_3 O 0.79352(12) 0.32400(11) 0.2635(3)
N1_3 N 0.74279(14) 0.35753(13) 0.2883(3)
N2_3 N 0.74524(15) 0.32707(13) 0.3291(4)
N3_3 N 0.80960(15) 0.39246(16) 0.3026(4)
C1_2 C 0.73358(18) 0.41960(17) 0.2101(4)
C2_3 C 0.71285(17) 0.40806(16) 0.2698(4)
C3_3 C 0.68790(18) 0.42830(17) 0.2966(4)
H1_3 H 0.6744 0.4208 0.3371
C4_3 C 0.6822(2) 0.45955(18) 0.2652(5)
H2_3 H 0.6647 0.4729 0.2833
C5_2 C 0.7026(2) 0.4707(2) 0.2072(5)
H3_2 H 0.6994 0.4921 0.1868
C6_2 C 0.7279(2) 0.4507(2) 0.1782(5)
H4_2 H 0.7411 0.4582 0.1372
C7_3 C 0.71740(16) 0.37575(16) 0.3082(4)
C8_3 C 0.77232(18) 0.31199(18) 0.3128(5)
C9_3 C 0.7801(3) 0.2802(3) 0.3491(8)
H5_3 H 0.7604 0.2710 0.3744
H6_3 H 0.7881 0.2642 0.3110
C10_3 C 0.8082(5) 0.2882(6) 0.4099(14)
H7_3 H 0.7980 0.2946 0.4581
H8_3 H 0.8219 0.2687 0.4177
H9_3 H 0.8219 0.3063 0.3912
C11_3 C 0.8076(2) 0.3847(2) 0.3754(5)
H10_3 H 0.7918 0.3689 0.3911
C12_3 C 0.8286(3) 0.3995(3) 0.4313(6)
H11_3 H 0.8260 0.3941 0.4834
C13_3 C 0.8526(3) 0.4213(3) 0.4094(7)
C14_3 C 0.8536(3) 0.4297(3) 0.3329(6)
H12_3 H 0.8689 0.4457 0.3154
C15_3 C 0.8318(2) 0.4143(2) 0.2813(5)
H13_4 H 0.8332 0.4199 0.2290
C16_3 C 0.8765(4) 0.4345(4) 0.4631(7)
H14_3 H 0.8935 0.4468 0.4345
H15_3 H 0.8876 0.4159 0.4888
Mn2_3 Mn 0.70450(3) 0.32571(2) 0.41554(7)
O4_3 O 0.72998(14) 0.34783(12) 0.4868(3)
O6_3 O 0.67973(12) 0.29580(12) 0.3509(3)
O7_3 O 0.65660(15) 0.33690(13) 0.4734(4)
N4_3 N 0.71145(15) 0.28460(14) 0.4700(4)
N6_3 N 0.6008(2) 0.3388(2) 0.4745(7)
C17_2 C 0.7456(2) 0.33644(19) 0.5494(5)
C18_2 C 0.7441(2) 0.3041(2) 0.5741(5)
C19_2 C 0.7596(3) 0.2952(3) 0.6442(7)
H16_2 H 0.7582 0.2735 0.6636
C20_2 C 0.7774(4) 0.3205(3) 0.6843(9)
H17_2 H 0.7876 0.3156 0.7315
C21_2 C 0.7795(4) 0.3504(3) 0.6556(11)
H18_2 H 0.7920 0.3663 0.6826
C22_2 C 0.7647(3) 0.3599(3) 0.5884(6)
H19_2 H 0.7673 0.3816 0.5691
C23_2 C 0.7269(2) 0.27787(17) 0.5342(4)
C24_3 C 0.68018(16) 0.26565(15) 0.3737(4)
C25_5 C 0.6616(2) 0.2398(2) 0.3312(5)
H20_5 H 0.6481 0.2272 0.3677
H21_5 H 0.6776 0.2244 0.3082
C26_3 C 0.6398(3) 0.2525(2) 0.2704(7)
H22_2 H 0.6532 0.2601 0.2275
H23_5 H 0.6251 0.2348 0.2534
H24_3 H 0.6267 0.2708 0.2900
C27_3 C 0.6286(3) 0.3279(3) 0.4471(7)
C28_2 C 0.5977(4) 0.3644(4) 0.5301(10)
H25_2 H 0.5955 0.3857 0.5044
H26_2 H 0.5782 0.3604 0.5614
H27_2 H 0.6173 0.3647 0.5625
C29_3 C 0.5689(3) 0.3292(4) 0.4369(15)
H28_3 H 0.5735 0.3144 0.3943
H29_3 H 0.5547 0.3181 0.4738
H30_3 H 0.5579 0.3490 0.4180
O9_4 O 0.81608(12) 0.36570(12) 0.1440(3)
O10_2 O 0.74384(12) 0.28669(11) 0.0551(3)
N7_4 N 0.79108(15) 0.32519(14) 0.0738(3)
N8_4 N 0.76287(14) 0.33134(14) 0.1190(3)
N9_2 N 0.9294(2) 0.50870(18) 0.6645(4)
C31_4 C 0.84618(17) 0.34317(17) 0.0410(4)
C32_4 C 0.87062(19) 0.3662(2) 0.0519(5)
H31_4 H 0.8681 0.3819 0.0915
C33_4 C 0.8991(2) 0.3674(2) 0.0066(7)
H32_4 H 0.9158 0.3832 0.0158
C36_4 C 0.81670(17) 0.34446(15) 0.0885(4)
C37_2 C 0.73962(18) 0.31090(17) 0.1036(4)
C38_2 C 0.70691(18) 0.3139(2) 0.1400(6)
H35_2 H 0.7054 0.2971 0.1805
H36_2 H 0.7057 0.3358 0.1647
C39_2 C 0.6782(3) 0.3104(3) 0.0904(9)
H37_2 H 0.6771 0.3291 0.0554
H38_2 H 0.6582 0.3097 0.1213
H39_2 H 0.6801 0.2899 0.0613
C40_2 C 0.9378(3) 0.4795(3) 0.6386(7)
H40_2 H 0.9585 0.4704 0.6524
C41_2 C 0.9169(4) 0.4620(4) 0.5916(8)
H41_2 H 0.9235 0.4407 0.5748
C42_2 C 0.8872(5) 0.4741(3) 0.5685(7)
C43_4 C 0.8783(5) 0.5015(3) 0.5985(9)
H42_4 H 0.8568 0.5095 0.5888
C44_4 C 0.8998(4) 0.5202(3) 0.6461(6)
H43_4 H 0.8928 0.5410 0.6648
C45_2 C 0.8628(7) 0.4558(4) 0.5198(11)
H44_2 H 0.8485 0.4425 0.5534
H45_3 H 0.8485 0.4721 0.4941
H46_3 H 0.62797 0.310498 0.400109
Mn1_5 Mn 0.88577(2) 0.52857(2) 0.96626(6)
O1_5 O 0.84772(13) 0.50876(13) 0.9305(3)
C1_3 C 0.83040(17) 0.48358(18) 0.9601(4)
C5_3 C 0.7793(2) 0.4526(2) 0.9572(5)
H3_3 H 0.7579 0.4494 0.9368
C6_3 C 0.7993(2) 0.4779(2) 0.9282(5)
H4_3 H 0.7918 0.4911 0.8872
H13_5 H 0.8301 0.5832 0.9790
H22_3 H 0.9899 0.4032 0.9775
O8_4 O 0.95209(13) 0.57654(15) 0.7106(3)
O9_5 O 0.88430(12) 0.56608(12) 0.8940(3)
O10_3 O 0.96331(11) 0.49384(12) 0.8051(3)
N7_5 N 0.92481(14) 0.54108(15) 0.8238(3)
N8_5 N 0.91866(14) 0.51287(14) 0.8690(3)
C30_4 C 0.92933(18) 0.5983(2) 0.7286(5)
C31_5 C 0.90683(17) 0.59618(17) 0.7910(4)
C32_5 C 0.8838(2) 0.62062(19) 0.8019(5)
H31_5 H 0.8681 0.6181 0.8415
C33_5 C 0.8826(2) 0.6491(2) 0.7566(7)
H32_5 H 0.8668 0.6658 0.7658
C34_4 C 0.9049(2) 0.6519(2) 0.6993(7)
H33_4 H 0.9045 0.6713 0.6692
C35_4 C 0.9279(2) 0.6283(3) 0.6825(7)
H34_4 H 0.9428 0.6313 0.6415
C36_5 C 0.90554(15) 0.56670(17) 0.8385(4)
C37_3 C 0.93910(17) 0.48962(18) 0.8536(4)
C38_3 C 0.9361(2) 0.45691(18) 0.8900(6)
H35_3 H 0.9529 0.4554 0.9305
H36_3 H 0.9142 0.4557 0.9147
C39_3 C 0.9396(3) 0.4282(3) 0.8404(9)
H37_3 H 0.9209 0.4271 0.8054
H38_3 H 0.9403 0.4082 0.8713
H39_3 H 0.9601 0.4301 0.8113
C1_4 C 0.83040(17) 0.98358(18) 0.0399(4)
C5_4 C 0.7793(2) 0.9526(2) 0.0428(5)
H3_4 H 0.7579 0.9494 0.0632
C6_4 C 0.7993(2) 0.9779(2) 0.0718(5)
H4_4 H 0.7918 0.9911 0.1128
H22_4 H 0.9899 0.9032 0.0225
O10_4 O 0.96331(11) 0.99384(12) 0.1949(3)
C37_4 C 0.93910(17) 0.98962(18) 0.1464(4)
C38_4 C 0.9361(2) 0.95691(18) 0.1100(6)
H35_4 H 0.9529 0.9554 0.0695
H36_4 H 0.9142 0.9557 0.0853
C39_4 C 0.9396(3) 0.9282(3) 0.1596(9)
H37_4 H 0.9209 0.9271 0.1946
H38_4 H 0.9403 0.9082 0.1287
H39_4 H 0.9601 0.9301 0.1887
O2_4 O 0.88373(12) 0.94634(12) 0.8935(3)
N1_4 N 0.89247(13) 0.99279(14) 0.9617(3)
N2_4 N 0.92293(13) 0.99524(15) 0.9209(4)
C2_4 C 0.84194(16) 0.96285(17) 0.9802(4)
C3_4 C 0.82170(17) 0.93790(18) 0.9534(4)
H1_4 H 0.8292 0.9244 0.9129
C4_4 C 0.79045(18) 0.9322(2) 0.9848(5)
H2_4 H 0.7771 0.9147 0.9667
C7_4 C 0.87425(16) 0.96740(16) 0.9418(4)
Mn2_4 Mn 0.92429(2) 0.95450(3) 0.83446(7)
O4_4 O 0.90217(12) 0.97998(14) 0.7632(3)
O6_4 O 0.95420(12) 0.92973(12) 0.8991(3)
O7_4 O 0.91310(13) 0.90660(15) 0.7766(4)
N4_4 N 0.96540(14) 0.96145(15) 0.7800(4)
N5_2 N 0.99342(13) 0.94661(14) 0.8138(4)
N6_4 N 0.9112(2) 0.8508(2) 0.7755(7)
C17_3 C 0.91356(19) 0.9956(2) 0.7006(5)
C18_3 C 0.9459(2) 0.9941(2) 0.6759(5)
C23_3 C 0.97213(17) 0.9769(2) 0.7158(4)
C24_4 C 0.98435(15) 0.93018(16) 0.8763(4)
C26_4 C 0.9975(2) 0.8898(3) 0.9796(7)
H24_4 H 0.9792 0.8767 0.9600
C27_4 C 0.9221(3) 0.8786(3) 0.8029(7)
C28_3 C 0.8856(4) 0.8477(4) 0.7199(10)
H25_3 H 0.8643 0.8455 0.7456
H26_3 H 0.8896 0.8282 0.6886
H27_3 H 0.8853 0.8673 0.6875
C29_4 C 0.9208(4) 0.8189(3) 0.8131(15)
H28_4 H 0.9356 0.8235 0.8557
H29_4 H 0.9319 0.8047 0.7762
H30_4 H 0.9010 0.8079 0.8320
H46_4 H 0.939502 0.87797 0.849891
O5_3 O 0.77310(15) 0.25095(13) 0.9359(3)
C17_4 C 0.7544(2) 0.16356(19) 0.9506(5)
C18_4 C 0.7559(2) 0.1959(2) 0.9259(5)
C19_3 C 0.7404(3) 0.2048(3) 0.8558(7)
H16_3 H 0.7418 0.2265 0.8364
C20_3 C 0.7226(4) 0.1795(3) 0.8157(9)
H17_3 H 0.7124 0.1844 0.7685
C21_3 C 0.7205(4) 0.1496(3) 0.8444(11)
H18_3 H 0.7080 0.1337 0.8174
C22_3 C 0.7353(3) 0.1401(3) 0.9116(6)
H19_3 H 0.7327 0.1184 0.9309
C23_4 C 0.7731(2) 0.22213(17) 0.9658(4)
C28_4 C 0.9023(4) 0.1356(4) 0.9699(10)
H25_4 H 0.9045 0.1143 0.9956
H26_4 H 0.9218 0.1396 0.9386
H27_4 H 0.8827 0.1353 0.9375
C40_3 C 0.5622(3) 0.0205(3) 0.8614(7)
H40_3 H 0.5415 0.0296 0.8476
C41_3 C 0.5831(4) 0.0380(4) 0.9084(8)
H41_3 H 0.5765 0.0593 0.9252
C42_3 C 0.6128(5) 0.0259(3) 0.9315(7)
C45_3 C 0.6372(7) 0.0442(4) 0.9802(11)
H44_3 H 0.6515 0.0575 0.9466
N9_3 N 0.5706(2) 0.99130(18) 0.8355(4)
C43_5 C 0.6217(5) 0.9985(3) 0.9015(9)
H42_5 H 0.6432 0.9905 0.9112
C44_5 C 0.6002(4) 0.9798(3) 0.8539(6)
H43_5 H 0.6072 0.9590 0.8352
Mn5_2 Mn 0.53896(2) 0.96423(3) 0.74719(6)
Mn1_6 Mn 0.38577(2) 0.52857(2) 0.53374(6)
O1_6 O 0.34772(13) 0.50876(13) 0.5695(3)
O2_5 O 0.38373(12) 0.44634(12) 0.3935(3)
O3_4 O 0.42600(11) 0.54352(12) 0.4865(3)
N1_5 N 0.39247(13) 0.49279(14) 0.4617(3)
N2_5 N 0.42293(13) 0.49524(15) 0.4209(4)
N3_4 N 0.35754(16) 0.55960(15) 0.4474(4)
C1_5 C 0.33040(17) 0.48358(18) 0.5399(4)
C2_5 C 0.34194(16) 0.46285(17) 0.4802(4)
C3_5 C 0.32170(17) 0.43790(18) 0.4534(4)
H1_5 H 0.3292 0.4244 0.4129
C4_5 C 0.29045(18) 0.4322(2) 0.4848(5)
H2_5 H 0.2771 0.4147 0.4667
C5_5 C 0.2793(2) 0.4526(2) 0.5428(5)
H3_5 H 0.2579 0.4494 0.5632
C6_5 C 0.2993(2) 0.4779(2) 0.5718(5)
H4_5 H 0.2918 0.4911 0.6128
C7_5 C 0.37425(16) 0.46740(16) 0.4418(4)
C8_4 C 0.43801(18) 0.52232(18) 0.4372(5)
C9_4 C 0.4698(3) 0.5301(3) 0.4009(8)
H5_4 H 0.4790 0.5104 0.3756
H6_4 H 0.4858 0.5381 0.4390
C10_4 C 0.4618(6) 0.5582(5) 0.3401(14)
H7_4 H 0.4554 0.5480 0.2919
H8_4 H 0.4813 0.5719 0.3323
H9_4 H 0.4437 0.5719 0.3588
C11_4 C 0.3653(2) 0.5576(2) 0.3746(5)
H10_4 H 0.3811 0.5418 0.3589
C12_4 C 0.3505(3) 0.5786(3) 0.3187(6)
H11_4 H 0.3559 0.5760 0.2666
C13_4 C 0.3287(3) 0.6026(3) 0.3406(7)
C14_4 C 0.3203(3) 0.6036(3) 0.4171(6)
H12_4 H 0.3043 0.6189 0.4346
C15_4 C 0.3357(2) 0.5818(2) 0.4687(5)
H13_6 H 0.3301 0.5832 0.5210
C16_4 C 0.3155(4) 0.6265(4) 0.2869(7)
H14_4 H 0.3032 0.6435 0.3155
H15_4 H 0.3341 0.6376 0.2612
Mn2_5 Mn 0.42429(2) 0.45450(3) 0.33446(7)
O4_5 O 0.40217(12) 0.47998(14) 0.2632(3)
O5_4 O 0.50095(13) 0.47690(15) 0.1859(3)
O6_5 O 0.45420(12) 0.42973(12) 0.3991(3)
O7_5 O 0.41310(13) 0.40660(15) 0.2766(4)
N4_5 N 0.46540(14) 0.46145(15) 0.2800(4)
N5_3 N 0.49342(13) 0.44661(14) 0.3138(4)
N6_5 N 0.4112(2) 0.3508(2) 0.2755(7)
C17_5 C 0.41356(19) 0.4956(2) 0.2006(5)
C18_5 C 0.4459(2) 0.4941(2) 0.1759(5)
C19_4 C 0.4548(3) 0.5096(3) 0.1058(7)
H16_4 H 0.4765 0.5082 0.0864
C20_4 C 0.4295(3) 0.5274(4) 0.0657(9)
H17_4 H 0.4344 0.5376 0.0185
C21_4 C 0.3996(3) 0.5295(4) 0.0944(11)
H18_4 H 0.3837 0.5420 0.0674
C22_4 C 0.3901(3) 0.5147(3) 0.1616(6)
H19_4 H 0.3684 0.5173 0.1809
C23_5 C 0.47213(17) 0.4769(2) 0.2158(4)
C24_5 C 0.48435(15) 0.43018(16) 0.3763(4)
C25_6 C 0.5102(2) 0.4116(2) 0.4188(5)
H20_6 H 0.5228 0.3981 0.3823
H21_6 H 0.5256 0.4276 0.4418
C26_5 C 0.4975(2) 0.3898(3) 0.4796(7)
H22_5 H 0.4899 0.4032 0.5225
H23_6 H 0.5152 0.3751 0.4966
H24_5 H 0.4792 0.3767 0.4600
C27_5 C 0.4221(3) 0.3786(3) 0.3029(7)
C28_5 C 0.3856(4) 0.3477(4) 0.2199(10)
H25_5 H 0.3643 0.3455 0.2456
H26_5 H 0.3896 0.3282 0.1886
H27_5 H 0.3853 0.3673 0.1875
C29_5 C 0.4208(4) 0.3189(3) 0.3131(15)
H28_5 H 0.4356 0.3235 0.3557
H29_5 H 0.4319 0.3047 0.2762
H30_5 H 0.4010 0.3079 0.3320
Mn3_2 Mn 0.46104(2) 0.53577(3) 0.74719(6)
O8_5 O 0.45209(13) 0.57654(15) 0.7894(3)
O9_6 O 0.38430(12) 0.56608(12) 0.6060(3)
O10_5 O 0.46331(11) 0.49384(12) 0.6949(3)
N7_6 N 0.42481(14) 0.54108(15) 0.6762(3)
N8_6 N 0.41866(14) 0.51287(14) 0.6310(3)
N9_4 N 0.24130(18) 0.6794(2) 0.0855(4)
C30_5 C 0.42933(18) 0.5983(2) 0.7714(5)
C31_6 C 0.40683(17) 0.59618(17) 0.7090(4)
C32_6 C 0.3838(2) 0.62062(19) 0.6981(5)
H31_6 H 0.3681 0.6181 0.6585
C33_6 C 0.3826(2) 0.6491(2) 0.7434(7)
H32_6 H 0.3668 0.6658 0.7342
C34_5 C 0.4049(2) 0.6519(2) 0.8007(7)
H33_5 H 0.4045 0.6713 0.8308
C35_5 C 0.4279(2) 0.6283(3) 0.8175(7)
H34_5 H 0.4428 0.6313 0.8585
C36_6 C 0.40554(15) 0.56670(17) 0.6615(4)
C37_5 C 0.43910(17) 0.48962(18) 0.6464(4)
C38_5 C 0.4361(2) 0.45691(18) 0.6100(6)
H35_5 H 0.4529 0.4554 0.5695
H36_5 H 0.4142 0.4557 0.5853
C39_5 C 0.4396(3) 0.4282(3) 0.6596(9)
H37_5 H 0.4209 0.4271 0.6946
H38_5 H 0.4403 0.4082 0.6287
H39_5 H 0.4601 0.4301 0.6887
C40_4 C 0.2705(3) 0.6878(3) 0.1114(7)
H40_4 H 0.2796 0.7085 0.0976
C41_4 C 0.2880(4) 0.6669(4) 0.1584(8)
H41_4 H 0.3093 0.6735 0.1752
C42_4 C 0.2759(3) 0.6372(5) 0.1815(7)
C43_6 C 0.2485(3) 0.6283(5) 0.1515(9)
H42_6 H 0.2405 0.6068 0.1612
C44_6 C 0.2298(3) 0.6498(4) 0.1039(6)
H43_6 H 0.2090 0.6428 0.0852
C45_4 C 0.2942(4) 0.6128(7) 0.2302(11)
H44_4 H 0.3075 0.5985 0.1966
H45_4 H 0.2779 0.5985 0.2559
O11_3 O 0.49905(13) 0.52310(15) 0.8141(3)
N10_3 N 0.50658(13) 0.55339(14) 0.6862(4)
Mn4_4 Mn 0.53896(2) 0.46423(3) 0.25281(6)
N11_3 N 0.4294(2) 0.50870(18) 0.8355(4)
H46_5 H 0.439502 0.37797 0.349891
O8_6 O 0.17346(15) 0.70209(13) 0.0394(3)
C30_6 C 0.1517(2) 0.67933(18) 0.0214(5)
C34_6 C 0.0981(2) 0.6549(2) 0.0507(7)
H33_6 H 0.0787 0.6545 0.0808
C35_6 C 0.1217(3) 0.6779(2) 0.0675(7)
H34_6 H 0.1187 0.6928 0.1085
O11_4 O 0.22690(15) 0.74905(13) 0.0641(3)
O5_5 O 0.22690(15) 0.24905(13) 0.9359(3)
C17_6 C 0.2456(2) 0.33644(19) 0.9506(5)
C18_6 C 0.2441(2) 0.3041(2) 0.9259(5)
C19_5 C 0.2596(3) 0.2952(3) 0.8558(7)
H16_5 H 0.2582 0.2735 0.8364
C20_5 C 0.2774(4) 0.3205(3) 0.8157(9)
H17_5 H 0.2876 0.3156 0.7685
C21_5 C 0.2795(4) 0.3504(3) 0.8444(11)
H18_5 H 0.2920 0.3663 0.8174
C22_5 C 0.2647(3) 0.3599(3) 0.9116(6)
H19_5 H 0.2673 0.3816 0.9309
C23_6 C 0.2269(2) 0.27787(17) 0.9658(4)
C28_6 C 0.0977(4) 0.3644(4) 0.9699(10)
H25_6 H 0.0955 0.3857 0.9956
H26_6 H 0.0782 0.3604 0.9386
H27_6 H 0.1173 0.3647 0.9375
C40_5 C 0.4378(3) 0.4795(3) 0.8614(7)
H40_5 H 0.4585 0.4704 0.8476
C41_5 C 0.4169(4) 0.4620(4) 0.9084(8)
H41_5 H 0.4235 0.4407 0.9252
C42_5 C 0.3872(5) 0.4741(3) 0.9315(7)
C43_7 C 0.3783(5) 0.5015(3) 0.9015(9)
H42_7 H 0.3568 0.5095 0.9112
C44_7 C 0.3998(4) 0.5202(3) 0.8539(6)
H43_7 H 0.3928 0.5410 0.8352
C45_5 C 0.3628(7) 0.4558(4) 0.9802(11)
H44_5 H 0.3485 0.4425 0.9466
O2_6 O 0.61627(12) 0.05366(12) 0.3935(3)
N1_6 N 0.60753(13) 0.00721(14) 0.4617(3)
N2_6 N 0.57707(13) 0.00476(15) 0.4209(4)
C1_6 C 0.66960(17) 0.01642(18) 0.5399(4)
C2_6 C 0.65806(16) 0.03715(17) 0.4802(4)
C3_6 C 0.67830(17) 0.06210(18) 0.4534(4)
H1_6 H 0.6708 0.0756 0.4129
C4_6 C 0.70955(18) 0.0678(2) 0.4848(5)
H2_6 H 0.7229 0.0853 0.4667
C5_6 C 0.7207(2) 0.0474(2) 0.5428(5)
H3_6 H 0.7421 0.0506 0.5632
C6_6 C 0.7007(2) 0.0221(2) 0.5718(5)
H4_6 H 0.7082 0.0089 0.6128
C7_6 C 0.62575(16) 0.03260(16) 0.4418(4)
Mn2_6 Mn 0.57571(2) 0.04550(3) 0.33446(7)
O4_6 O 0.59783(12) 0.02002(14) 0.2632(3)
O5_6 O 0.49905(13) 0.02310(15) 0.1859(3)
O6_6 O 0.54580(12) 0.07027(12) 0.3991(3)
O7_6 O 0.58690(13) 0.09340(15) 0.2766(4)
N4_6 N 0.53460(14) 0.03855(15) 0.2800(4)
N5_4 N 0.50658(13) 0.05339(14) 0.3138(4)
N6_6 N 0.5888(2) 0.1492(2) 0.2755(7)
C17_7 C 0.58644(19) 0.0044(2) 0.2006(5)
C18_7 C 0.5541(2) 0.0059(2) 0.1759(5)
C23_7 C 0.52787(17) 0.0231(2) 0.2158(4)
C24_6 C 0.51565(15) 0.06982(16) 0.3763(4)
C25_7 C 0.4898(2) 0.0884(2) 0.4188(5)
H20_7 H 0.4772 0.1019 0.3823
H21_7 H 0.4744 0.0724 0.4418
C26_6 C 0.5025(2) 0.1102(3) 0.4796(7)
H22_6 H 0.5101 0.0968 0.5225
H23_7 H 0.4848 0.1249 0.4966
H24_6 H 0.5208 0.1233 0.4600
C27_6 C 0.5779(3) 0.1214(3) 0.3029(7)
C28_7 C 0.6144(4) 0.1523(4) 0.2199(10)
H25_7 H 0.6357 0.1545 0.2456
H26_7 H 0.6104 0.1718 0.1886
H27_7 H 0.6147 0.1327 0.1875
C29_6 C 0.5792(4) 0.1811(3) 0.3131(15)
H28_6 H 0.5644 0.1765 0.3557
H29_6 H 0.5681 0.1953 0.2762
H30_6 H 0.5990 0.1921 0.3320
O10_6 O 0.53669(11) 0.00616(12) 0.6949(3)
C37_6 C 0.56090(17) 0.01038(18) 0.6464(4)
C38_6 C 0.5639(2) 0.04309(18) 0.6100(6)
H35_6 H 0.5471 0.0446 0.5695
H36_6 H 0.5858 0.0443 0.5853
C39_6 C 0.5604(3) 0.0718(3) 0.6596(9)
H37_6 H 0.5791 0.0729 0.6946
H38_6 H 0.5597 0.0918 0.6287
H39_6 H 0.5399 0.0699 0.6887
Mn4_5 Mn 0.46104(2) 0.03577(3) 0.25281(6)
H46_6 H 0.560498 0.12203 0.349891
Mn1_7 Mn 0.61423(2) 0.97143(2) 0.53374(6)
O1_7 O 0.65228(13) 0.99124(13) 0.5695(3)
O3_5 O 0.57400(11) 0.95648(12) 0.4865(3)
N3_5 N 0.64246(16) 0.94040(15) 0.4474(4)
C8_5 C 0.56199(18) 0.97768(18) 0.4372(5)
C9_5 C 0.5302(3) 0.9699(3) 0.4009(8)
H5_5 H 0.5210 0.9896 0.3756
H6_5 H 0.5142 0.9619 0.4390
C10_5 C 0.5382(6) 0.9418(5) 0.3401(14)
H7_5 H 0.5446 0.9520 0.2919
H8_5 H 0.5187 0.9281 0.3323
H9_5 H 0.5563 0.9281 0.3588
C11_5 C 0.6347(2) 0.9424(2) 0.3746(5)
H10_5 H 0.6189 0.9582 0.3589
C12_5 C 0.6495(3) 0.9214(3) 0.3187(6)
H11_5 H 0.6441 0.9240 0.2666
C13_5 C 0.6713(3) 0.8974(3) 0.3406(7)
C14_5 C 0.6797(3) 0.8964(3) 0.4171(6)
H12_5 H 0.6957 0.8811 0.4346
C15_5 C 0.6643(2) 0.9182(2) 0.4687(5)
H13_7 H 0.6699 0.9168 0.5210
C16_5 C 0.6845(4) 0.8735(4) 0.2869(7)
H14_5 H 0.6968 0.8565 0.3155
H15_5 H 0.6659 0.8624 0.2612
C19_6 C 0.5452(3) 0.9904(3) 0.1058(7)
H16_6 H 0.5235 0.9918 0.0864
C20_6 C 0.5705(3) 0.9726(4) 0.0657(9)
H17_6 H 0.5656 0.9624 0.0185
C21_6 C 0.6004(3) 0.9705(4) 0.0944(11)
H18_6 H 0.6163 0.9580 0.0674
C22_6 C 0.6099(3) 0.9853(3) 0.1616(6)
H19_6 H 0.6316 0.9827 0.1809
O8_7 O 0.54791(13) 0.92346(15) 0.7894(3)
O9_7 O 0.61570(12) 0.93392(12) 0.6060(3)
N7_7 N 0.57519(14) 0.95892(15) 0.6762(3)
N8_7 N 0.58134(14) 0.98713(14) 0.6310(3)
N9_5 N 0.75870(18) 0.8206(2) 0.0855(4)
C30_7 C 0.57067(18) 0.9017(2) 0.7714(5)
C31_7 C 0.59317(17) 0.90382(17) 0.7090(4)
C32_7 C 0.6162(2) 0.87938(19) 0.6981(5)
H31_7 H 0.6319 0.8819 0.6585
C33_7 C 0.6174(2) 0.8509(2) 0.7434(7)
H32_7 H 0.6332 0.8342 0.7342
C34_7 C 0.5951(2) 0.8481(2) 0.8007(7)
H33_7 H 0.5955 0.8287 0.8308
C35_7 C 0.5721(2) 0.8717(3) 0.8175(7)
H34_7 H 0.5572 0.8687 0.8585
C36_7 C 0.59446(15) 0.93330(17) 0.6615(4)
C40_6 C 0.7295(3) 0.8122(3) 0.1114(7)
H40_6 H 0.7204 0.7915 0.0976
C41_6 C 0.7120(4) 0.8331(4) 0.1584(8)
H41_6 H 0.6907 0.8265 0.1752
C42_6 C 0.7241(3) 0.8628(5) 0.1815(7)
C43_8 C 0.7515(3) 0.8717(5) 0.1515(9)
H42_8 H 0.7595 0.8932 0.1612
C44_8 C 0.7702(3) 0.8502(4) 0.1039(6)
H43_8 H 0.7910 0.8572 0.0852
C45_6 C 0.7058(4) 0.8872(7) 0.2302(11)
H44_6 H 0.6925 0.9015 0.1966
H45_5 H 0.7221 0.9015 0.2559
O11_5 O 0.50095(13) 0.97690(15) 0.8141(3)
N10_4 N 0.49342(13) 0.94661(14) 0.6862(4)
O8_8 O 0.82654(15) 0.79791(13) 0.0394(3)
C30_8 C 0.8483(2) 0.82067(18) 0.0214(5)
C34_8 C 0.9019(2) 0.8451(2) 0.0507(7)
H33_8 H 0.9213 0.8455 0.0808
C35_8 C 0.8783(3) 0.8221(2) 0.0675(7)
H34_8 H 0.8813 0.8072 0.1085
O11_6 O 0.77310(15) 0.75095(13) 0.0641(3)
N9_6 N 0.4294(2) 0.00870(18) 0.1645(4)
C43_9 C 0.3783(5) 0.0015(3) 0.0985(9)
H42_9 H 0.3568 0.0095 0.0888
C44_9 C 0.3998(4) 0.0202(3) 0.1461(6)
H43_9 H 0.3928 0.0410 0.1648
C17_8 C 0.2456(2) 0.83644(19) 0.0494(5)
C18_8 C 0.2441(2) 0.8041(2) 0.0741(5)
C19_7 C 0.2596(3) 0.7952(3) 0.1442(7)
H16_7 H 0.2582 0.7735 0.1636
C20_7 C 0.2774(4) 0.8205(3) 0.1843(9)
H17_7 H 0.2876 0.8156 0.2315
C21_7 C 0.2795(4) 0.8504(3) 0.1556(11)
H18_7 H 0.2920 0.8663 0.1826
C22_7 C 0.2647(3) 0.8599(3) 0.0884(6)
H19_7 H 0.2673 0.8816 0.0691
C23_8 C 0.2269(2) 0.77787(17) 0.0342(4)
C28_8 C 0.0977(4) 0.8644(4) 0.0301(10)
H25_8 H 0.0955 0.8857 0.0044
H26_8 H 0.0782 0.8604 0.0614
H27_8 H 0.1173 0.8647 0.0625
C40_7 C 0.4378(3) 0.9795(3) 0.1386(7)
H40_7 H 0.4585 0.9704 0.1524
C41_7 C 0.4169(4) 0.9620(4) 0.0916(8)
H41_7 H 0.4235 0.9407 0.0748
C42_7 C 0.3872(5) 0.9741(3) 0.0685(7)
C45_7 C 0.3628(7) 0.9558(4) 0.0198(11)
H44_7 H 0.3485 0.9425 0.0534
Mn1_8 Mn 0.61423(2) 0.47143(2) 0.46626(6)
O1_8 O 0.65228(13) 0.49124(13) 0.4305(3)
O2_7 O 0.61627(12) 0.55366(12) 0.6065(3)
O3_6 O 0.57400(11) 0.45648(12) 0.5135(3)
N1_7 N 0.60753(13) 0.50721(14) 0.5383(3)
N2_7 N 0.57707(13) 0.50476(15) 0.5791(4)
N3_6 N 0.64246(16) 0.44040(15) 0.5526(4)
C1_7 C 0.66960(17) 0.51642(18) 0.4601(4)
C2_7 C 0.65806(16) 0.53715(17) 0.5198(4)
C3_7 C 0.67830(17) 0.56210(18) 0.5466(4)
H1_7 H 0.6708 0.5756 0.5871
C4_7 C 0.70955(18) 0.5678(2) 0.5152(5)
H2_7 H 0.7229 0.5853 0.5333
C5_7 C 0.7207(2) 0.5474(2) 0.4572(5)
H3_7 H 0.7421 0.5506 0.4368
C6_7 C 0.7007(2) 0.5221(2) 0.4282(5)
H4_7 H 0.7082 0.5089 0.3872
C7_7 C 0.62575(16) 0.53260(16) 0.5582(4)
C8_6 C 0.56199(18) 0.47768(18) 0.5628(5)
C9_6 C 0.5302(3) 0.4699(3) 0.5991(8)
H5_6 H 0.5210 0.4896 0.6244
H6_6 H 0.5142 0.4619 0.5610
C10_6 C 0.5382(6) 0.4418(5) 0.6599(14)
H7_6 H 0.5446 0.4520 0.7081
H8_6 H 0.5187 0.4281 0.6677
H9_6 H 0.5563 0.4281 0.6412
C11_6 C 0.6347(2) 0.4424(2) 0.6254(5)
H10_6 H 0.6189 0.4582 0.6411
C12_6 C 0.6495(3) 0.4214(3) 0.6813(6)
H11_6 H 0.6441 0.4240 0.7334
C13_6 C 0.6713(3) 0.3974(3) 0.6594(7)
C14_6 C 0.6797(3) 0.3964(3) 0.5829(6)
H12_6 H 0.6957 0.3811 0.5654
C15_6 C 0.6643(2) 0.4182(2) 0.5313(5)
H13_8 H 0.6699 0.4168 0.4790
C16_6 C 0.6845(4) 0.3735(4) 0.7131(7)
H14_6 H 0.6968 0.3565 0.6845
H15_6 H 0.6659 0.3624 0.7388
Mn2_7 Mn 0.57571(2) 0.54550(3) 0.66554(7)
O4_7 O 0.59783(12) 0.52002(14) 0.7368(3)
O6_7 O 0.54580(12) 0.57027(12) 0.6009(3)
O7_7 O 0.58690(13) 0.59340(15) 0.7234(4)
N4_7 N 0.53460(14) 0.53855(15) 0.7200(4)
N6_7 N 0.5888(2) 0.6492(2) 0.7245(7)
C17_9 C 0.58644(19) 0.5044(2) 0.7994(5)
C18_9 C 0.5541(2) 0.5059(2) 0.8241(5)
C19_8 C 0.5452(3) 0.4904(3) 0.8942(7)
H16_8 H 0.5235 0.4918 0.9136
C20_8 C 0.5705(3) 0.4726(4) 0.9343(9)
H17_8 H 0.5656 0.4624 0.9815
C21_8 C 0.6004(3) 0.4705(4) 0.9056(11)
H18_8 H 0.6163 0.4580 0.9326
C22_8 C 0.6099(3) 0.4853(3) 0.8384(6)
H19_8 H 0.6316 0.4827 0.8191
C23_9 C 0.52787(17) 0.5231(2) 0.7842(4)
C24_7 C 0.51565(15) 0.56982(16) 0.6237(4)
C25_8 C 0.4898(2) 0.5884(2) 0.5812(5)
H20_8 H 0.4772 0.6019 0.6177
H21_8 H 0.4744 0.5724 0.5582
C26_7 C 0.5025(2) 0.6102(3) 0.5204(7)
H22_7 H 0.5101 0.5968 0.4775
H23_8 H 0.4848 0.6249 0.5034
H24_7 H 0.5208 0.6233 0.5400
C27_7 C 0.5779(3) 0.6214(3) 0.6971(7)
C28_9 C 0.6144(4) 0.6523(4) 0.7801(10)
H25_9 H 0.6357 0.6545 0.7544
H26_9 H 0.6104 0.6718 0.8114
H27_9 H 0.6147 0.6327 0.8125
C29_7 C 0.5792(4) 0.6811(3) 0.6869(15)
H28_7 H 0.5644 0.6765 0.6443
H29_7 H 0.5681 0.6953 0.7238
H30_7 H 0.5990 0.6921 0.6680
O8_9 O 0.54791(13) 0.42346(15) 0.2106(3)
O9_8 O 0.61570(12) 0.43392(12) 0.3940(3)
O10_7 O 0.53669(11) 0.50616(12) 0.3051(3)
N7_8 N 0.57519(14) 0.45892(15) 0.3238(3)
N8_8 N 0.58134(14) 0.48713(14) 0.3690(3)
N9_7 N 0.75870(18) 0.3206(2) 0.9145(4)
C30_9 C 0.57067(18) 0.4017(2) 0.2286(5)
C31_8 C 0.59317(17) 0.40382(17) 0.2910(4)
C32_8 C 0.6162(2) 0.37938(19) 0.3019(5)
H31_8 H 0.6319 0.3819 0.3415
C33_8 C 0.6174(2) 0.3509(2) 0.2566(7)
H32_8 H 0.6332 0.3342 0.2658
C34_9 C 0.5951(2) 0.3481(2) 0.1993(7)
H33_9 H 0.5955 0.3287 0.1692
C35_9 C 0.5721(2) 0.3717(3) 0.1825(7)
H34_9 H 0.5572 0.3687 0.1415
C36_8 C 0.59446(15) 0.43330(17) 0.3385(4)
C37_7 C 0.56090(17) 0.51038(18) 0.3536(4)
C38_7 C 0.5639(2) 0.54309(18) 0.3900(6)
H35_7 H 0.5471 0.5446 0.4305
H36_7 H 0.5858 0.5443 0.4147
C39_7 C 0.5604(3) 0.5718(3) 0.3404(9)
H37_7 H 0.5791 0.5729 0.3054
H38_7 H 0.5597 0.5918 0.3713
H39_7 H 0.5399 0.5699 0.3113
C40_8 C 0.7295(3) 0.3122(3) 0.8886(7)
H40_8 H 0.7204 0.2915 0.9024
C41_8 C 0.7120(4) 0.3331(4) 0.8416(8)
H41_8 H 0.6907 0.3265 0.8248
C42_8 C 0.7241(3) 0.3628(5) 0.8185(7)
C43_10 C 0.7515(3) 0.3717(5) 0.8485(9)
H42_10 H 0.7595 0.3932 0.8388
C44_10 C 0.7702(3) 0.3502(4) 0.8961(6)
H43_10 H 0.7910 0.3572 0.9148
C45_8 C 0.7058(4) 0.3872(7) 0.7698(11)
H44_8 H 0.6925 0.4015 0.8034
H45_6 H 0.7221 0.4015 0.7441
N11_4 N 0.5706(2) 0.49130(18) 0.1645(4)
H46_7 H 0.560498 0.62203 0.650109
O8_10 O 0.82654(15) 0.29791(13) 0.9606(3)
C30_10 C 0.8483(2) 0.32067(18) 0.9786(5)
C34_10 C 0.9019(2) 0.3451(2) 0.9493(7)
H33_10 H 0.9213 0.3455 0.9192
C35_10 C 0.8783(3) 0.3221(2) 0.9325(7)
H34_10 H 0.8813 0.3072 0.8915
C17_10 C 0.7544(2) 0.66356(19) 0.0494(5)
C18_10 C 0.7559(2) 0.6959(2) 0.0741(5)
C19_9 C 0.7404(3) 0.7048(3) 0.1442(7)
H16_9 H 0.7418 0.7265 0.1636
C20_9 C 0.7226(4) 0.6795(3) 0.1843(9)
H17_9 H 0.7124 0.6844 0.2315
C21_9 C 0.7205(4) 0.6496(3) 0.1556(11)
H18_9 H 0.7080 0.6337 0.1826
C22_9 C 0.7353(3) 0.6401(3) 0.0884(6)
H19_9 H 0.7327 0.6184 0.0691
C23_10 C 0.7731(2) 0.72213(17) 0.0342(4)
C28_10 C 0.9023(4) 0.6356(4) 0.0301(10)
H25_10 H 0.9045 0.6143 0.0044
H26_10 H 0.9218 0.6396 0.0614
H27_10 H 0.8827 0.6353 0.0625
C40_9 C 0.5622(3) 0.5205(3) 0.1386(7)
H40_9 H 0.5415 0.5296 0.1524
C41_9 C 0.5831(4) 0.5380(4) 0.0916(8)
H41_9 H 0.5765 0.5593 0.0748
C42_9 C 0.6128(5) 0.5259(3) 0.0685(7)
C43_11 C 0.6217(5) 0.4985(3) 0.0985(9)
H42_11 H 0.6432 0.4905 0.0888
C44_11 C 0.6002(4) 0.4798(3) 0.1461(6)
H43_11 H 0.6072 0.4590 0.1648
C45_9 C 0.6372(7) 0.5442(4) 0.0198(11)
H44_9 H 0.6515 0.5575 0.0534
Mn1_9 Mn 0.38577(2) 0.02857(2) 0.46626(6)
O1_9 O 0.34772(13) 0.00876(13) 0.4305(3)
O3_7 O 0.42600(11) 0.04352(12) 0.5135(3)
N3_7 N 0.35754(16) 0.05960(15) 0.5526(4)
C8_7 C 0.43801(18) 0.02232(18) 0.5628(5)
C9_7 C 0.4698(3) 0.0301(3) 0.5991(8)
H5_7 H 0.4790 0.0104 0.6244
H6_7 H 0.4858 0.0381 0.5610
C10_7 C 0.4618(6) 0.0582(5) 0.6599(14)
H7_7 H 0.4554 0.0480 0.7081
H8_7 H 0.4813 0.0719 0.6677
H9_7 H 0.4437 0.0719 0.6412
C11_7 C 0.3653(2) 0.0576(2) 0.6254(5)
H10_7 H 0.3811 0.0418 0.6411
C12_7 C 0.3505(3) 0.0786(3) 0.6813(6)
H11_7 H 0.3559 0.0760 0.7334
C13_7 C 0.3287(3) 0.1026(3) 0.6594(7)
C14_7 C 0.3203(3) 0.1036(3) 0.5829(6)
H12_7 H 0.3043 0.1189 0.5654
C15_7 C 0.3357(2) 0.0818(2) 0.5313(5)
H13_9 H 0.3301 0.0832 0.4790
C16_7 C 0.3155(4) 0.1265(4) 0.7131(7)
H14_7 H 0.3032 0.1435 0.6845
H15_7 H 0.3341 0.1376 0.7388
C19_10 C 0.4548(3) 0.0096(3) 0.8942(7)
H16_10 H 0.4765 0.0082 0.9136
C20_10 C 0.4295(3) 0.0274(4) 0.9343(9)
H17_10 H 0.4344 0.0376 0.9815
C21_10 C 0.3996(3) 0.0295(4) 0.9056(11)
H18_10 H 0.3837 0.0420 0.9326
C22_10 C 0.3901(3) 0.0147(3) 0.8384(6)
H19_10 H 0.3684 0.0173 0.8191
O8_11 O 0.45209(13) 0.07654(15) 0.2106(3)
O9_9 O 0.38430(12) 0.06608(12) 0.3940(3)
N7_9 N 0.42481(14) 0.04108(15) 0.3238(3)
N8_9 N 0.41866(14) 0.01287(14) 0.3690(3)
N9_8 N 0.24130(18) 0.1794(2) 0.9145(4)
C30_11 C 0.42933(18) 0.0983(2) 0.2286(5)
C31_9 C 0.40683(17) 0.09618(17) 0.2910(4)
C32_9 C 0.3838(2) 0.12062(19) 0.3019(5)
H31_9 H 0.3681 0.1181 0.3415
C33_9 C 0.3826(2) 0.1491(2) 0.2566(7)
H32_9 H 0.3668 0.1658 0.2658
C34_11 C 0.4049(2) 0.1519(2) 0.1993(7)
H33_11 H 0.4045 0.1713 0.1692
C35_11 C 0.4279(2) 0.1283(3) 0.1825(7)
H34_11 H 0.4428 0.1313 0.1415
C36_9 C 0.40554(15) 0.06670(17) 0.3385(4)
C40_10 C 0.2705(3) 0.1878(3) 0.8886(7)
H40_10 H 0.2796 0.2085 0.9024
C41_10 C 0.2880(4) 0.1669(4) 0.8416(8)
H41_10 H 0.3093 0.1735 0.8248
C42_10 C 0.2759(3) 0.1372(5) 0.8185(7)
C43_12 C 0.2485(3) 0.1283(5) 0.8485(9)
H42_12 H 0.2405 0.1068 0.8388
C44_12 C 0.2298(3) 0.1498(4) 0.8961(6)
H43_12 H 0.2090 0.1428 0.9148
C45_10 C 0.2942(4) 0.1128(7) 0.7698(11)
H44_10 H 0.3075 0.0985 0.8034
H45_7 H 0.2779 0.0985 0.7441
O2_8 O 0.38373(12) 0.94634(12) 0.6065(3)
N1_8 N 0.39247(13) 0.99279(14) 0.5383(3)
N2_8 N 0.42293(13) 0.99524(15) 0.5791(4)
C1_8 C 0.33040(17) 0.98358(18) 0.4601(4)
C2_8 C 0.34194(16) 0.96285(17) 0.5198(4)
C3_8 C 0.32170(17) 0.93790(18) 0.5466(4)
H1_8 H 0.3292 0.9244 0.5871
C4_8 C 0.29045(18) 0.9322(2) 0.5152(5)
H2_8 H 0.2771 0.9147 0.5333
C5_8 C 0.2793(2) 0.9526(2) 0.4572(5)
H3_8 H 0.2579 0.9494 0.4368
C6_8 C 0.2993(2) 0.9779(2) 0.4282(5)
H4_8 H 0.2918 0.9911 0.3872
C7_8 C 0.37425(16) 0.96740(16) 0.5582(4)
Mn2_8 Mn 0.42429(2) 0.95450(3) 0.66554(7)
O4_8 O 0.40217(12) 0.97998(14) 0.7368(3)
O6_8 O 0.45420(12) 0.92973(12) 0.6009(3)
O7_8 O 0.41310(13) 0.90660(15) 0.7234(4)
N4_8 N 0.46540(14) 0.96145(15) 0.7200(4)
N6_8 N 0.4112(2) 0.8508(2) 0.7245(7)
C17_11 C 0.41356(19) 0.9956(2) 0.7994(5)
C18_11 C 0.4459(2) 0.9941(2) 0.8241(5)
C23_11 C 0.47213(17) 0.9769(2) 0.7842(4)
C24_8 C 0.48435(15) 0.93018(16) 0.6237(4)
C25_9 C 0.5102(2) 0.9116(2) 0.5812(5)
H20_9 H 0.5228 0.8981 0.6177
H21_9 H 0.5256 0.9276 0.5582
C26_8 C 0.4975(2) 0.8898(3) 0.5204(7)
H22_8 H 0.4899 0.9032 0.4775
H23_9 H 0.5152 0.8751 0.5034
H24_8 H 0.4792 0.8767 0.5400
C27_8 C 0.4221(3) 0.8786(3) 0.6971(7)
C28_11 C 0.3856(4) 0.8477(4) 0.7801(10)
H25_11 H 0.3643 0.8455 0.7544
H26_11 H 0.3896 0.8282 0.8114
H27_11 H 0.3853 0.8673 0.8125
C29_8 C 0.4208(4) 0.8189(3) 0.6869(15)
H28_8 H 0.4356 0.8235 0.6443
H29_8 H 0.4319 0.8047 0.7238
H30_8 H 0.4010 0.8079 0.6680
O10_8 O 0.46331(11) 0.99384(12) 0.3051(3)
C37_8 C 0.43910(17) 0.98962(18) 0.3536(4)
C38_8 C 0.4361(2) 0.95691(18) 0.3900(6)
H35_8 H 0.4529 0.9554 0.4305
H36_8 H 0.4142 0.9557 0.4147
C39_8 C 0.4396(3) 0.9282(3) 0.3404(9)
H37_8 H 0.4209 0.9271 0.3054
H38_8 H 0.4403 0.9082 0.3713
H39_8 H 0.4601 0.9301 0.3113
H46_8 H 0.439502 0.87797 0.650109
O8_12 O 0.17346(15) 0.20209(13) 0.9606(3)
C30_12 C 0.1517(2) 0.17933(18) 0.9786(5)
C34_12 C 0.0981(2) 0.1549(2) 0.9493(7)
H33_12 H 0.0787 0.1545 0.9192
C35_12 C 0.1217(3) 0.1779(2) 0.9325(7)
H34_12 H 0.1187 0.1928 0.8915
Mn5_3 Mn 0.21423(3) 0.71104(2) 0.99719(6)
Mn1_10 Mn 0.22143(2) 0.63577(2) 0.78374(6)
O1_10 O 0.24124(13) 0.59772(13) 0.8195(3)
O2_9 O 0.30366(12) 0.63373(12) 0.6435(3)
O3_8 O 0.20648(12) 0.67600(11) 0.7365(3)
N1_9 N 0.25721(14) 0.64247(13) 0.7117(3)
N2_9 N 0.25476(15) 0.67293(13) 0.6709(4)
N3_8 N 0.19040(15) 0.60754(16) 0.6974(4)
C1_9 C 0.26642(18) 0.58040(17) 0.7899(4)
C2_9 C 0.28715(17) 0.59194(16) 0.7302(4)
C3_9 C 0.31210(18) 0.57170(17) 0.7034(4)
H1_9 H 0.3256 0.5792 0.6629
C4_9 C 0.3178(2) 0.54045(18) 0.7348(5)
H2_9 H 0.3353 0.5271 0.7167
C5_9 C 0.2974(2) 0.5293(2) 0.7928(5)
H3_9 H 0.3006 0.5079 0.8132
C6_9 C 0.2721(2) 0.5493(2) 0.8218(5)
H4_9 H 0.2589 0.5418 0.8628
C7_9 C 0.28260(16) 0.62425(16) 0.6918(4)
C8_8 C 0.22768(18) 0.68801(18) 0.6872(5)
C9_8 C 0.2199(3) 0.7198(3) 0.6509(8)
H5_8 H 0.2396 0.7290 0.6256
H6_8 H 0.2119 0.7358 0.6890
C10_8 C 0.1918(5) 0.7118(6) 0.5901(14)
H7_8 H 0.2020 0.7054 0.5419
H8_8 H 0.1781 0.7313 0.5823
H9_8 H 0.1781 0.6937 0.6088
C11_8 C 0.1924(2) 0.6153(2) 0.6246(5)
H10_8 H 0.2082 0.6311 0.6089
C12_8 C 0.1714(3) 0.6005(3) 0.5687(6)
H11_8 H 0.1740 0.6059 0.5166
C13_8 C 0.1474(3) 0.5787(3) 0.5906(7)
C14_8 C 0.1464(3) 0.5703(3) 0.6671(6)
H12_8 H 0.1311 0.5543 0.6846
C15_8 C 0.1682(2) 0.5857(2) 0.7187(5)
H13_10 H 0.1668 0.5801 0.7710
C16_8 C 0.1235(4) 0.5655(4) 0.5369(7)
H14_8 H 0.1065 0.5532 0.5655
H15_8 H 0.1124 0.5841 0.5112
Mn2_9 Mn 0.29550(3) 0.67429(2) 0.58446(7)
O4_9 O 0.27002(14) 0.65217(12) 0.5132(3)
O5_7 O 0.27310(15) 0.75095(13) 0.4359(3)
O6_9 O 0.32027(12) 0.70420(12) 0.6491(3)
O7_9 O 0.34340(15) 0.66310(13) 0.5266(4)
N4_9 N 0.28855(15) 0.71540(14) 0.5300(4)
N5_5 N 0.30339(14) 0.74342(13) 0.5638(4)
N6_9 N 0.3992(2) 0.6612(2) 0.5255(7)
C17_12 C 0.2544(2) 0.66356(19) 0.4506(5)
C18_12 C 0.2559(2) 0.6959(2) 0.4259(5)
C19_11 C 0.2404(3) 0.7048(3) 0.3558(7)
H16_11 H 0.2418 0.7265 0.3364
C20_11 C 0.2226(4) 0.6795(3) 0.3157(9)
H17_11 H 0.2124 0.6844 0.2685
C21_11 C 0.2205(4) 0.6496(3) 0.3444(11)
H18_11 H 0.2080 0.6337 0.3174
C22_11 C 0.2353(3) 0.6401(3) 0.4116(6)
H19_11 H 0.2327 0.6184 0.4309
C23_12 C 0.2731(2) 0.72213(17) 0.4658(4)
C24_9 C 0.31982(16) 0.73435(15) 0.6263(4)
C25_10 C 0.3384(2) 0.7602(2) 0.6688(5)
H20_10 H 0.3519 0.7728 0.6323
H21_10 H 0.3224 0.7756 0.6918
C26_9 C 0.3602(3) 0.7475(2) 0.7296(7)
H22_9 H 0.3468 0.7399 0.7725
H23_10 H 0.3749 0.7652 0.7466
H24_9 H 0.3733 0.7292 0.7100
C27_9 C 0.3714(3) 0.6721(3) 0.5529(7)
C28_12 C 0.4023(4) 0.6356(4) 0.4699(10)
H25_12 H 0.4045 0.6143 0.4956
H26_12 H 0.4218 0.6396 0.4386
H27_12 H 0.3827 0.6353 0.4375
C29_9 C 0.4311(3) 0.6708(4) 0.5631(15)
H28_9 H 0.4265 0.6856 0.6057
H29_9 H 0.4453 0.6819 0.5262
H30_9 H 0.4421 0.6510 0.5820
O9_10 O 0.18392(12) 0.63430(12) 0.8560(3)
O10_9 O 0.25616(12) 0.71331(11) 0.9449(3)
N7_10 N 0.20892(15) 0.67481(14) 0.9262(3)
N8_10 N 0.23713(14) 0.66866(14) 0.8810(3)
N9_9 N 0.0706(2) 0.49130(18) 0.3355(4)
C31_10 C 0.15382(17) 0.65683(17) 0.9590(4)
C32_10 C 0.12938(19) 0.6338(2) 0.9481(5)
H31_10 H 0.1319 0.6181 0.9085
C33_10 C 0.1009(2) 0.6326(2) 0.9934(7)
H32_10 H 0.0842 0.6168 0.9842
C36_10 C 0.18330(17) 0.65554(15) 0.9115(4)
C37_9 C 0.26038(18) 0.68910(17) 0.8964(4)
C38_9 C 0.29309(18) 0.6861(2) 0.8600(6)
H35_9 H 0.2946 0.7029 0.8195
H36_9 H 0.2943 0.6642 0.8353
C39_9 C 0.3218(3) 0.6896(3) 0.9096(9)
H37_9 H 0.3229 0.6709 0.9446
H38_9 H 0.3418 0.6903 0.8787
H39_9 H 0.3199 0.7101 0.9387
C40_11 C 0.0622(3) 0.5205(3) 0.3614(7)
H40_11 H 0.0415 0.5296 0.3476
C41_11 C 0.0831(4) 0.5380(4) 0.4084(8)
H41_11 H 0.0765 0.5593 0.4252
C42_11 C 0.1128(5) 0.5259(3) 0.4315(7)
C43_13 C 0.1217(5) 0.4985(3) 0.4015(9)
H42_13 H 0.1432 0.4905 0.4112
C44_13 C 0.1002(4) 0.4798(3) 0.3539(6)
H43_13 H 0.1072 0.4590 0.3352
C45_11 C 0.1372(7) 0.5442(4) 0.4802(11)
H44_11 H 0.1515 0.5575 0.4466
H45_8 H 0.1515 0.5279 0.5059
N10_5 N 0.19661(14) 0.75658(13) 0.9362(4)
Mn4_6 Mn 0.28577(3) 0.78896(2) 0.50281(6)
Mn5_4 Mn 0.03896(2) 0.46423(3) 0.24719(6)
H46_9 H 0.37203 0.689502 0.599891
Mn1_11 Mn 0.11423(2) 0.47143(2) 0.03374(6)
O1_11 O 0.15228(13) 0.49124(13) 0.0695(3)
C1_10 C 0.16960(17) 0.51642(18) 0.0399(4)
C5_10 C 0.2207(2) 0.5474(2) 0.0428(5)
H3_10 H 0.2421 0.5506 0.0632
C6_10 C 0.2007(2) 0.5221(2) 0.0718(5)
H4_10 H 0.2082 0.5089 0.1128
H13_11 H 0.1699 0.4168 0.0210
H22_10 H 0.0101 0.5968 0.0225
O8_13 O 0.04791(13) 0.42346(15) 0.2894(3)
O9_11 O 0.11570(12) 0.43392(12) 0.1060(3)
O10_10 O 0.03669(11) 0.50616(12) 0.1949(3)
N7_11 N 0.07519(14) 0.45892(15) 0.1762(3)
N8_11 N 0.08134(14) 0.48713(14) 0.1310(3)
C30_13 C 0.07067(18) 0.4017(2) 0.2714(5)
C31_11 C 0.09317(17) 0.40382(17) 0.2090(4)
C32_11 C 0.1162(2) 0.37938(19) 0.1981(5)
H31_11 H 0.1319 0.3819 0.1585
C33_11 C 0.1174(2) 0.3509(2) 0.2434(7)
H32_11 H 0.1332 0.3342 0.2342
C34_13 C 0.0951(2) 0.3481(2) 0.3007(7)
H33_13 H 0.0955 0.3287 0.3308
C35_13 C 0.0721(2) 0.3717(3) 0.3175(7)
H34_13 H 0.0572 0.3687 0.3585
C36_11 C 0.09446(15) 0.43330(17) 0.1615(4)
C37_10 C 0.06090(17) 0.51038(18) 0.1464(4)
C38_10 C 0.0639(2) 0.54309(18) 0.1100(6)
H35_10 H 0.0471 0.5446 0.0695
H36_10 H 0.0858 0.5443 0.0853
C39_10 C 0.0604(3) 0.5718(3) 0.1596(9)
H37_10 H 0.0791 0.5729 0.1946
H38_10 H 0.0597 0.5918 0.1287
H39_10 H 0.0399 0.5699 0.1887
O11_7 O 0.00095(13) 0.47690(15) 0.3141(3)
O3_9 O 0.07400(11) 0.95648(12) 0.0135(3)
N3_9 N 0.14246(16) 0.94040(15) 0.0526(4)
C8_9 C 0.06199(18) 0.97768(18) 0.0628(5)
C9_9 C 0.0302(3) 0.9699(3) 0.0991(8)
H5_9 H 0.0210 0.9896 0.1244
H6_9 H 0.0142 0.9619 0.0610
C10_9 C 0.0382(6) 0.9418(5) 0.1599(14)
H7_9 H 0.0446 0.9520 0.2081
H8_9 H 0.0187 0.9281 0.1677
H9_9 H 0.0563 0.9281 0.1412
C11_9 C 0.1347(2) 0.9424(2) 0.1254(5)
H10_9 H 0.1189 0.9582 0.1411
C12_9 C 0.1495(3) 0.9214(3) 0.1813(6)
H11_9 H 0.1441 0.9240 0.2334
C13_9 C 0.1713(3) 0.8974(3) 0.1594(7)
C14_9 C 0.1797(3) 0.8964(3) 0.0829(6)
H12_9 H 0.1957 0.8811 0.0654
C15_9 C 0.1643(2) 0.9182(2) 0.0313(5)
C16_9 C 0.1845(4) 0.8735(4) 0.2131(7)
H14_9 H 0.1968 0.8565 0.1845
H15_9 H 0.1659 0.8624 0.2388
C19_12 C 0.0452(3) 0.9904(3) 0.3942(7)
H16_12 H 0.0235 0.9918 0.4136
C20_12 C 0.0705(3) 0.9726(4) 0.4343(9)
H17_12 H 0.0656 0.9624 0.4815
C21_12 C 0.1004(3) 0.9705(4) 0.4056(11)
H18_12 H 0.1163 0.9580 0.4326
C22_12 C 0.1099(3) 0.9853(3) 0.3384(6)
H19_12 H 0.1316 0.9827 0.3191
N9_10 N 0.25870(18) 0.8206(2) 0.4145(4)
C40_12 C 0.2295(3) 0.8122(3) 0.3886(7)
H40_12 H 0.2204 0.7915 0.4024
C41_12 C 0.2120(4) 0.8331(4) 0.3416(8)
H41_12 H 0.1907 0.8265 0.3248
C42_12 C 0.2241(3) 0.8628(5) 0.3185(7)
C43_14 C 0.2515(3) 0.8717(5) 0.3485(9)
H42_14 H 0.2595 0.8932 0.3388
C44_14 C 0.2702(3) 0.8502(4) 0.3961(6)
H43_14 H 0.2910 0.8572 0.4148
C45_12 C 0.2058(4) 0.8872(7) 0.2698(11)
H44_12 H 0.1925 0.9015 0.3034
H45_9 H 0.2221 0.9015 0.2441
Mn1_12 Mn 0.27857(2) 0.86423(2) 0.71626(6)
O1_12 O 0.25876(13) 0.90228(13) 0.6805(3)
O2_10 O 0.19634(12) 0.86627(12) 0.8565(3)
O3_10 O 0.29352(12) 0.82400(11) 0.7635(3)
N1_10 N 0.24279(14) 0.85753(13) 0.7883(3)
N2_10 N 0.24524(15) 0.82707(13) 0.8291(4)
N3_10 N 0.30960(15) 0.89246(16) 0.8026(4)
C1_11 C 0.23358(18) 0.91960(17) 0.7101(4)
C2_10 C 0.21285(17) 0.90806(16) 0.7698(4)
C3_10 C 0.18790(18) 0.92830(17) 0.7966(4)
H1_10 H 0.1744 0.9208 0.8371
C4_10 C 0.1822(2) 0.95955(18) 0.7652(5)
H2_10 H 0.1647 0.9729 0.7833
C5_11 C 0.2026(2) 0.9707(2) 0.7072(5)
H3_11 H 0.1994 0.9921 0.6868
C6_11 C 0.2279(2) 0.9507(2) 0.6782(5)
H4_11 H 0.2411 0.9582 0.6372
C7_10 C 0.21740(16) 0.87575(16) 0.8082(4)
C8_10 C 0.27232(18) 0.81199(18) 0.8128(5)
C9_10 C 0.2801(3) 0.7802(3) 0.8491(8)
H5_10 H 0.2604 0.7710 0.8744
H6_10 H 0.2881 0.7642 0.8110
C10_10 C 0.3082(5) 0.7882(6) 0.9099(14)
H7_10 H 0.2980 0.7946 0.9581
H8_10 H 0.3219 0.7687 0.9177
H9_10 H 0.3219 0.8063 0.8912
C11_10 C 0.3076(2) 0.8847(2) 0.8754(5)
H10_10 H 0.2918 0.8689 0.8911
C12_10 C 0.3286(3) 0.8995(3) 0.9313(6)
H11_10 H 0.3260 0.8941 0.9834
C13_10 C 0.3526(3) 0.9213(3) 0.9094(7)
C14_10 C 0.3536(3) 0.9297(3) 0.8329(6)
H12_10 H 0.3689 0.9457 0.8154
C15_10 C 0.3318(2) 0.9143(2) 0.7813(5)
H13_12 H 0.3332 0.9199 0.7290
C16_10 C 0.3765(4) 0.9345(4) 0.9631(7)
H14_10 H 0.3935 0.9468 0.9345
H15_10 H 0.3876 0.9159 0.9888
Mn2_10 Mn 0.20450(3) 0.82571(2) 0.91554(7)
O4_10 O 0.22998(14) 0.84783(12) 0.9868(3)
O6_10 O 0.17973(12) 0.79580(12) 0.8509(3)
O7_10 O 0.15660(15) 0.83690(13) 0.9734(4)
N4_10 N 0.21145(15) 0.78460(14) 0.9700(4)
N6_10 N 0.1008(2) 0.8388(2) 0.9745(7)
C24_10 C 0.18018(16) 0.76565(15) 0.8737(4)
C25_11 C 0.1616(2) 0.7398(2) 0.8312(5)
H20_11 H 0.1481 0.7272 0.8677
H21_11 H 0.1776 0.7244 0.8082
C26_10 C 0.1398(3) 0.7525(2) 0.7704(7)
H22_11 H 0.1532 0.7601 0.7275
H23_11 H 0.1251 0.7348 0.7534
H24_10 H 0.1267 0.7708 0.7900
C27_10 C 0.1286(3) 0.8279(3) 0.9471(7)
C29_10 C 0.0689(3) 0.8292(4) 0.9369(15)
H28_10 H 0.0735 0.8144 0.8943
H29_10 H 0.0547 0.8181 0.9738
H30_10 H 0.0579 0.8490 0.9180
O8_14 O 0.32654(15) 0.79791(13) 0.4606(3)
O9_12 O 0.31608(12) 0.86570(12) 0.6440(3)
O10_11 O 0.24384(12) 0.78669(11) 0.5551(3)
N7_12 N 0.29108(15) 0.82519(14) 0.5738(3)
N8_12 N 0.26287(14) 0.83134(14) 0.6190(3)
C30_14 C 0.3483(2) 0.82067(18) 0.4786(5)
C31_12 C 0.34618(17) 0.84317(17) 0.5410(4)
C32_12 C 0.37062(19) 0.8662(2) 0.5519(5)
H31_12 H 0.3681 0.8819 0.5915
C33_12 C 0.3991(2) 0.8674(2) 0.5066(7)
H32_12 H 0.4158 0.8832 0.5158
C34_14 C 0.4019(2) 0.8451(2) 0.4493(7)
H33_14 H 0.4213 0.8455 0.4192
C35_14 C 0.3783(3) 0.8221(2) 0.4325(7)
H34_14 H 0.3813 0.8072 0.3915
C36_12 C 0.31670(17) 0.84446(15) 0.5885(4)
C37_11 C 0.23962(18) 0.81090(17) 0.6036(4)
C38_11 C 0.20691(18) 0.8139(2) 0.6400(6)
H35_11 H 0.2054 0.7971 0.6805
H36_11 H 0.2057 0.8358 0.6647
C39_11 C 0.1782(3) 0.8104(3) 0.5904(9)
H37_11 H 0.1771 0.8291 0.5554
H38_11 H 0.1582 0.8097 0.6213
H39_11 H 0.1801 0.7899 0.5613
H45_10 H 0.3485 0.9721 0.9941
H46_10 H 0.12797 0.810498 0.900109
C25_12 C 0.0102(2) 0.4116(2) 0.0812(5)
H20_12 H 0.0228 0.3981 0.1177
H21_12 H 0.0256 0.4276 0.0582
H23_12 H 0.0152 0.3751 0.0034
Mn1_13 Mn 0.27857(2) 0.36423(2) 0.28374(6)
O1_13 O 0.25876(13) 0.40228(13) 0.3195(3)
O2_11 O 0.19634(12) 0.36627(12) 0.1435(3)
O3_11 O 0.29352(12) 0.32400(11) 0.2365(3)
N1_11 N 0.24279(14) 0.35753(13) 0.2117(3)
N2_11 N 0.24524(15) 0.32707(13) 0.1709(4)
N3_11 N 0.30960(15) 0.39246(16) 0.1974(4)
C1_12 C 0.23358(18) 0.41960(17) 0.2899(4)
C2_11 C 0.21285(17) 0.40806(16) 0.2302(4)
C3_11 C 0.18790(18) 0.42830(17) 0.2034(4)
H1_11 H 0.1744 0.4208 0.1629
C4_11 C 0.1822(2) 0.45955(18) 0.2348(5)
H2_11 H 0.1647 0.4729 0.2167
C5_12 C 0.2026(2) 0.4707(2) 0.2928(5)
H3_12 H 0.1994 0.4921 0.3132
C6_12 C 0.2279(2) 0.4507(2) 0.3218(5)
H4_12 H 0.2411 0.4582 0.3628
C7_11 C 0.21740(16) 0.37575(16) 0.1918(4)
C8_11 C 0.27232(18) 0.31199(18) 0.1872(5)
C9_11 C 0.2801(3) 0.2802(3) 0.1509(8)
H5_11 H 0.2604 0.2710 0.1256
H6_11 H 0.2881 0.2642 0.1890
C10_11 C 0.3082(5) 0.2882(6) 0.0901(14)
H7_11 H 0.2980 0.2946 0.0419
H8_11 H 0.3219 0.2687 0.0823
H9_11 H 0.3219 0.3063 0.1088
C11_11 C 0.3076(2) 0.3847(2) 0.1246(5)
H10_11 H 0.2918 0.3689 0.1089
C12_11 C 0.3286(3) 0.3995(3) 0.0687(6)
H11_11 H 0.3260 0.3941 0.0166
C13_11 C 0.3526(3) 0.4213(3) 0.0906(7)
C14_11 C 0.3536(3) 0.4297(3) 0.1671(6)
H12_11 H 0.3689 0.4457 0.1846
C15_11 C 0.3318(2) 0.4143(2) 0.2187(5)
H13_13 H 0.3332 0.4199 0.2710
C16_11 C 0.3765(4) 0.4345(4) 0.0369(7)
H14_11 H 0.3935 0.4468 0.0655
H15_11 H 0.3876 0.4159 0.0112
Mn2_11 Mn 0.20450(3) 0.32571(2) 0.08446(7)
O4_11 O 0.22998(14) 0.34783(12) 0.0132(3)
O6_11 O 0.17973(12) 0.29580(12) 0.1491(3)
O7_11 O 0.15660(15) 0.33690(13) 0.0266(4)
N4_11 N 0.21145(15) 0.28460(14) 0.0300(4)
N5_6 N 0.19661(14) 0.25658(13) 0.0638(4)
N6_11 N 0.1008(2) 0.3388(2) 0.0255(7)
C24_11 C 0.18018(16) 0.26565(15) 0.1263(4)
C25_13 C 0.1616(2) 0.2398(2) 0.1688(5)
H20_13 H 0.1481 0.2272 0.1323
H21_13 H 0.1776 0.2244 0.1918
C26_11 C 0.1398(3) 0.2525(2) 0.2296(7)
H22_12 H 0.1532 0.2601 0.2725
H23_13 H 0.1251 0.2348 0.2466
H24_11 H 0.1267 0.2708 0.2100
C27_11 C 0.1286(3) 0.3279(3) 0.0529(7)
C29_11 C 0.0689(3) 0.3292(4) 0.0631(15)
H28_11 H 0.0735 0.3144 0.1057
H29_11 H 0.0547 0.3181 0.0262
H30_11 H 0.0579 0.3490 0.0820
Mn3_3 Mn 0.28577(3) 0.28896(2) 0.49719(6)
O8_15 O 0.32654(15) 0.29791(13) 0.5394(3)
O9_13 O 0.31608(12) 0.36570(12) 0.3560(3)
O10_12 O 0.24384(12) 0.28669(11) 0.4449(3)
N7_13 N 0.29108(15) 0.32519(14) 0.4262(3)
N8_13 N 0.26287(14) 0.33134(14) 0.3810(3)
C30_15 C 0.3483(2) 0.32067(18) 0.5214(5)
C31_13 C 0.34618(17) 0.34317(17) 0.4590(4)
C32_13 C 0.37062(19) 0.3662(2) 0.4481(5)
H31_13 H 0.3681 0.3819 0.4085
C33_13 C 0.3991(2) 0.3674(2) 0.4934(7)
H32_13 H 0.4158 0.3832 0.4842
C34_15 C 0.4019(2) 0.3451(2) 0.5507(7)
H33_15 H 0.4213 0.3455 0.5808
C35_15 C 0.3783(3) 0.3221(2) 0.5675(7)
H34_15 H 0.3813 0.3072 0.6085
C36_13 C 0.31670(17) 0.34446(15) 0.4115(4)
C37_12 C 0.23962(18) 0.31090(17) 0.3964(4)
C38_12 C 0.20691(18) 0.3139(2) 0.3600(6)
H35_12 H 0.2054 0.2971 0.3195
H36_12 H 0.2057 0.3358 0.3353
C39_12 C 0.1782(3) 0.3104(3) 0.4096(9)
H37_12 H 0.1771 0.3291 0.4446
H38_12 H 0.1582 0.3097 0.3787
H39_12 H 0.1801 0.2899 0.4387
H45_11 H 0.3485 0.4721 0.0059
O11_8 O 0.27310(15) 0.25095(13) 0.5641(3)
N10_6 N 0.30339(14) 0.24342(13) 0.4362(4)
Mn4_7 Mn 0.21423(3) 0.21104(2) 0.00281(6)
N11_5 N 0.25870(18) 0.3206(2) 0.5855(4)
H46_11 H 0.12797 0.310498 0.0998907
O2_12 O 0.11627(12) 0.55366(12) 0.8935(3)
O3_12 O 0.07400(11) 0.45648(12) 0.9865(3)
N1_12 N 0.10753(13) 0.50721(14) 0.9617(3)
N2_12 N 0.07707(13) 0.50476(15) 0.9209(4)
N3_12 N 0.14246(16) 0.44040(15) 0.9474(4)
C2_12 C 0.15806(16) 0.53715(17) 0.9802(4)
C3_12 C 0.17830(17) 0.56210(18) 0.9534(4)
H1_12 H 0.1708 0.5756 0.9129
C4_12 C 0.20955(18) 0.5678(2) 0.9848(5)
H2_12 H 0.2229 0.5853 0.9667
C7_12 C 0.12575(16) 0.53260(16) 0.9418(4)
C8_12 C 0.06199(18) 0.47768(18) 0.9372(5)
C9_12 C 0.0302(3) 0.4699(3) 0.9009(8)
H5_12 H 0.0210 0.4896 0.8756
H6_12 H 0.0142 0.4619 0.9390
C10_12 C 0.0382(6) 0.4418(5) 0.8401(14)
H7_12 H 0.0446 0.4520 0.7919
H8_12 H 0.0187 0.4281 0.8323
H9_12 H 0.0563 0.4281 0.8588
C11_12 C 0.1347(2) 0.4424(2) 0.8746(5)
H10_12 H 0.1189 0.4582 0.8589
C12_12 C 0.1495(3) 0.4214(3) 0.8187(6)
H11_12 H 0.1441 0.4240 0.7666
C13_12 C 0.1713(3) 0.3974(3) 0.8406(7)
C14_12 C 0.1797(3) 0.3964(3) 0.9171(6)
H12_12 H 0.1957 0.3811 0.9346
C15_12 C 0.1643(2) 0.4182(2) 0.9687(5)
C16_12 C 0.1845(4) 0.3735(4) 0.7869(7)
H14_12 H 0.1968 0.3565 0.8155
H15_12 H 0.1659 0.3624 0.7612
Mn2_12 Mn 0.07571(2) 0.54550(3) 0.83446(7)
O4_12 O 0.09783(12) 0.52002(14) 0.7632(3)
O6_12 O 0.04580(12) 0.57027(12) 0.8991(3)
O7_12 O 0.08690(13) 0.59340(15) 0.7766(4)
N4_12 N 0.03460(14) 0.53855(15) 0.7800(4)
N5_7 N 0.00658(13) 0.55339(14) 0.8138(4)
N6_12 N 0.0888(2) 0.6492(2) 0.7755(7)
C17_13 C 0.08644(19) 0.5044(2) 0.7006(5)
C18_13 C 0.0541(2) 0.5059(2) 0.6759(5)
C19_13 C 0.0452(3) 0.4904(3) 0.6058(7)
H16_13 H 0.0235 0.4918 0.5864
C20_13 C 0.0705(3) 0.4726(4) 0.5657(9)
H17_13 H 0.0656 0.4624 0.5185
C21_13 C 0.1004(3) 0.4705(4) 0.5944(11)
H18_13 H 0.1163 0.4580 0.5674
C22_13 C 0.1099(3) 0.4853(3) 0.6616(6)
H19_13 H 0.1316 0.4827 0.6809
C23_13 C 0.02787(17) 0.5231(2) 0.7158(4)
C24_12 C 0.01565(15) 0.56982(16) 0.8763(4)
C26_12 C 0.0025(2) 0.6102(3) 0.9796(7)
H24_12 H 0.0208 0.6233 0.9600
C27_12 C 0.0779(3) 0.6214(3) 0.8029(7)
C28_13 C 0.1144(4) 0.6523(4) 0.7199(10)
H25_13 H 0.1357 0.6545 0.7456
H26_13 H 0.1104 0.6718 0.6886
H27_13 H 0.1147 0.6327 0.6875
C29_12 C 0.0792(4) 0.6811(3) 0.8131(15)
H28_12 H 0.0644 0.6765 0.8557
H29_12 H 0.0681 0.6953 0.7762
H30_12 H 0.0990 0.6921 0.8320
C40_13 C 0.2295(3) 0.3122(3) 0.6114(7)
H40_13 H 0.2204 0.2915 0.5976
C41_13 C 0.2120(4) 0.3331(4) 0.6584(8)
H41_13 H 0.1907 0.3265 0.6752
C42_13 C 0.2241(3) 0.3628(5) 0.6815(7)
C43_15 C 0.2515(3) 0.3717(5) 0.6515(9)
H42_15 H 0.2595 0.3932 0.6612
C44_15 C 0.2702(3) 0.3502(4) 0.6039(6)
H43_15 H 0.2910 0.3572 0.5852
C45_13 C 0.2058(4) 0.3872(7) 0.7302(11)
H44_13 H 0.1925 0.4015 0.6966
H45_12 H 0.2221 0.4015 0.7559
H46_12 H 0.0604985 0.62203 0.849891
Mn1_14 Mn 0.22143(2) 0.13577(2) 0.21626(6)
O1_14 O 0.24124(13) 0.09772(13) 0.1805(3)
O2_13 O 0.30366(12) 0.13373(12) 0.3565(3)
O3_13 O 0.20648(12) 0.17600(11) 0.2635(3)
N1_13 N 0.25721(14) 0.14247(13) 0.2883(3)
N2_13 N 0.25476(15) 0.17293(13) 0.3291(4)
N3_13 N 0.19040(15) 0.10754(16) 0.3026(4)
C1_13 C 0.26642(18) 0.08040(17) 0.2101(4)
C2_13 C 0.28715(17) 0.09194(16) 0.2698(4)
C3_13 C 0.31210(18) 0.07170(17) 0.2966(4)
H1_13 H 0.3256 0.0792 0.3371
C4_13 C 0.3178(2) 0.04045(18) 0.2652(5)
H2_13 H 0.3353 0.0271 0.2833
C5_13 C 0.2974(2) 0.0293(2) 0.2072(5)
H3_13 H 0.3006 0.0079 0.1868
C6_13 C 0.2721(2) 0.0493(2) 0.1782(5)
H4_13 H 0.2589 0.0418 0.1372
C7_13 C 0.28260(16) 0.12425(16) 0.3082(4)
C8_13 C 0.22768(18) 0.18801(18) 0.3128(5)
C9_13 C 0.2199(3) 0.2198(3) 0.3491(8)
H5_13 H 0.2396 0.2290 0.3744
H6_13 H 0.2119 0.2358 0.3110
C10_13 C 0.1918(5) 0.2118(6) 0.4099(14)
H7_13 H 0.2020 0.2054 0.4581
H8_13 H 0.1781 0.2313 0.4177
H9_13 H 0.1781 0.1937 0.3912
C11_13 C 0.1924(2) 0.1153(2) 0.3754(5)
H10_13 H 0.2082 0.1311 0.3911
C12_13 C 0.1714(3) 0.1005(3) 0.4313(6)
H11_13 H 0.1740 0.1059 0.4834
C13_13 C 0.1474(3) 0.0787(3) 0.4094(7)
C14_13 C 0.1464(3) 0.0703(3) 0.3329(6)
H12_13 H 0.1311 0.0543 0.3154
C15_13 C 0.1682(2) 0.0857(2) 0.2813(5)
H13_14 H 0.1668 0.0801 0.2290
C16_13 C 0.1235(4) 0.0655(4) 0.4631(7)
H14_13 H 0.1065 0.0532 0.4345
H15_13 H 0.1124 0.0841 0.4888
Mn2_13 Mn 0.29550(3) 0.17429(2) 0.41554(7)
O4_13 O 0.27002(14) 0.15217(12) 0.4868(3)
O6_13 O 0.32027(12) 0.20420(12) 0.3509(3)
O7_13 O 0.34340(15) 0.16310(13) 0.4734(4)
N4_13 N 0.28855(15) 0.21540(14) 0.4700(4)
N6_13 N 0.3992(2) 0.1612(2) 0.4745(7)
C17_14 C 0.2544(2) 0.16356(19) 0.5494(5)
C18_14 C 0.2559(2) 0.1959(2) 0.5741(5)
C19_14 C 0.2404(3) 0.2048(3) 0.6442(7)
H16_14 H 0.2418 0.2265 0.6636
C20_14 C 0.2226(4) 0.1795(3) 0.6843(9)
H17_14 H 0.2124 0.1844 0.7315
C21_14 C 0.2205(4) 0.1496(3) 0.6556(11)
H18_14 H 0.2080 0.1337 0.6826
C22_14 C 0.2353(3) 0.1401(3) 0.5884(6)
H19_14 H 0.2327 0.1184 0.5691
C23_14 C 0.2731(2) 0.22213(17) 0.5342(4)
C24_13 C 0.31982(16) 0.23435(15) 0.3737(4)
C25_14 C 0.3384(2) 0.2602(2) 0.3312(5)
H20_14 H 0.3519 0.2728 0.3677
H21_14 H 0.3224 0.2756 0.3082
C26_13 C 0.3602(3) 0.2475(2) 0.2704(7)
H22_13 H 0.3468 0.2399 0.2275
H23_14 H 0.3749 0.2652 0.2534
H24_13 H 0.3733 0.2292 0.2900
C27_13 C 0.3714(3) 0.1721(3) 0.4471(7)
C28_14 C 0.4023(4) 0.1356(4) 0.5301(10)
H25_14 H 0.4045 0.1143 0.5044
H26_14 H 0.4218 0.1396 0.5614
H27_14 H 0.3827 0.1353 0.5625
C29_13 C 0.4311(3) 0.1708(4) 0.4369(15)
H28_13 H 0.4265 0.1856 0.3943
H29_13 H 0.4453 0.1819 0.4738
H30_13 H 0.4421 0.1510 0.4180
O9_14 O 0.18392(12) 0.13430(12) 0.1440(3)
O10_13 O 0.25616(12) 0.21331(11) 0.0551(3)
N7_14 N 0.20892(15) 0.17481(14) 0.0738(3)
N8_14 N 0.23713(14) 0.16866(14) 0.1190(3)
C31_14 C 0.15382(17) 0.15683(17) 0.0410(4)
C32_14 C 0.12938(19) 0.1338(2) 0.0519(5)
H31_14 H 0.1319 0.1181 0.0915
C33_14 C 0.1009(2) 0.1326(2) 0.0066(7)
H32_14 H 0.0842 0.1168 0.0158
C36_14 C 0.18330(17) 0.15554(15) 0.0885(4)
C37_13 C 0.26038(18) 0.18910(17) 0.1036(4)
C38_13 C 0.29309(18) 0.1861(2) 0.1400(6)
H35_13 H 0.2946 0.2029 0.1805
H36_13 H 0.2943 0.1642 0.1647
C39_13 C 0.3218(3) 0.1896(3) 0.0904(9)
H37_13 H 0.3229 0.1709 0.0554
H38_13 H 0.3418 0.1903 0.1213
H39_13 H 0.3199 0.2101 0.0613
C40_14 C 0.0622(3) 0.0205(3) 0.6386(7)
H40_14 H 0.0415 0.0296 0.6524
C41_14 C 0.0831(4) 0.0380(4) 0.5916(8)
H41_14 H 0.0765 0.0593 0.5748
C42_14 C 0.1128(5) 0.0259(3) 0.5685(7)
C45_14 C 0.1372(7) 0.0442(4) 0.5198(11)
H44_14 H 0.1515 0.0575 0.5534
H45_13 H 0.1515 0.0279 0.4941
H46_13 H 0.37203 0.189502 0.400109
Mn5_5 Mn 0.78577(3) 0.78896(2) 0.99719(6)
Mn1_15 Mn 0.77857(2) 0.86423(2) 0.78374(6)
O1_15 O 0.75876(13) 0.90228(13) 0.8195(3)
O2_14 O 0.69634(12) 0.86627(12) 0.6435(3)
O3_14 O 0.79352(12) 0.82400(11) 0.7365(3)
N1_14 N 0.74279(14) 0.85753(13) 0.7117(3)
N2_14 N 0.74524(15) 0.82707(13) 0.6709(4)
N3_14 N 0.80960(15) 0.89246(16) 0.6974(4)
C1_14 C 0.73358(18) 0.91960(17) 0.7899(4)
C2_14 C 0.71285(17) 0.90806(16) 0.7302(4)
C3_14 C 0.68790(18) 0.92830(17) 0.7034(4)
H1_14 H 0.6744 0.9208 0.6629
C4_14 C 0.6822(2) 0.95955(18) 0.7348(5)
H2_14 H 0.6647 0.9729 0.7167
C5_14 C 0.7026(2) 0.9707(2) 0.7928(5)
H3_14 H 0.6994 0.9921 0.8132
C6_14 C 0.7279(2) 0.9507(2) 0.8218(5)
H4_14 H 0.7411 0.9582 0.8628
C7_14 C 0.71740(16) 0.87575(16) 0.6918(4)
C8_14 C 0.77232(18) 0.81199(18) 0.6872(5)
C9_14 C 0.7801(3) 0.7802(3) 0.6509(8)
H5_14 H 0.7604 0.7710 0.6256
H6_14 H 0.7881 0.7642 0.6890
C10_14 C 0.8082(5) 0.7882(6) 0.5901(14)
H7_14 H 0.7980 0.7946 0.5419
H8_14 H 0.8219 0.7687 0.5823
H9_14 H 0.8219 0.8063 0.6088
C11_14 C 0.8076(2) 0.8847(2) 0.6246(5)
H10_14 H 0.7918 0.8689 0.6089
C12_14 C 0.8286(3) 0.8995(3) 0.5687(6)
H11_14 H 0.8260 0.8941 0.5166
C13_14 C 0.8526(3) 0.9213(3) 0.5906(7)
C14_14 C 0.8536(3) 0.9297(3) 0.6671(6)
H12_14 H 0.8689 0.9457 0.6846
C15_14 C 0.8318(2) 0.9143(2) 0.7187(5)
H13_15 H 0.8332 0.9199 0.7710
C16_14 C 0.8765(4) 0.9345(4) 0.5369(7)
H14_14 H 0.8935 0.9468 0.5655
H15_14 H 0.8876 0.9159 0.5112
Mn2_14 Mn 0.70450(3) 0.82571(2) 0.58446(7)
O4_14 O 0.72998(14) 0.84783(12) 0.5132(3)
O5_8 O 0.72690(15) 0.74905(13) 0.4359(3)
O6_14 O 0.67973(12) 0.79580(12) 0.6491(3)
O7_14 O 0.65660(15) 0.83690(13) 0.5266(4)
N4_14 N 0.71145(15) 0.78460(14) 0.5300(4)
N5_8 N 0.69661(14) 0.75658(13) 0.5638(4)
N6_14 N 0.6008(2) 0.8388(2) 0.5255(7)
C17_15 C 0.7456(2) 0.83644(19) 0.4506(5)
C18_15 C 0.7441(2) 0.8041(2) 0.4259(5)
C19_15 C 0.7596(3) 0.7952(3) 0.3558(7)
H16_15 H 0.7582 0.7735 0.3364
C20_15 C 0.7774(4) 0.8205(3) 0.3157(9)
H17_15 H 0.7876 0.8156 0.2685
C21_15 C 0.7795(4) 0.8504(3) 0.3444(11)
H18_15 H 0.7920 0.8663 0.3174
C22_15 C 0.7647(3) 0.8599(3) 0.4116(6)
H19_15 H 0.7673 0.8816 0.4309
C23_15 C 0.7269(2) 0.77787(17) 0.4658(4)
C24_14 C 0.68018(16) 0.76565(15) 0.6263(4)
C25_15 C 0.6616(2) 0.7398(2) 0.6688(5)
H20_15 H 0.6481 0.7272 0.6323
H21_15 H 0.6776 0.7244 0.6918
C26_14 C 0.6398(3) 0.7525(2) 0.7296(7)
H22_14 H 0.6532 0.7601 0.7725
H23_15 H 0.6251 0.7348 0.7466
H24_14 H 0.6267 0.7708 0.7100
C27_14 C 0.6286(3) 0.8279(3) 0.5529(7)
C28_15 C 0.5977(4) 0.8644(4) 0.4699(10)
H25_15 H 0.5955 0.8857 0.4956
H26_15 H 0.5782 0.8604 0.4386
H27_15 H 0.6173 0.8647 0.4375
C29_14 C 0.5689(3) 0.8292(4) 0.5631(15)
H28_14 H 0.5735 0.8144 0.6057
H29_14 H 0.5547 0.8181 0.5262
H30_14 H 0.5579 0.8490 0.5820
O9_15 O 0.81608(12) 0.86570(12) 0.8560(3)
O10_14 O 0.74384(12) 0.78669(11) 0.9449(3)
N7_15 N 0.79108(15) 0.82519(14) 0.9262(3)
N8_15 N 0.76287(14) 0.83134(14) 0.8810(3)
C31_15 C 0.84618(17) 0.84317(17) 0.9590(4)
C32_15 C 0.87062(19) 0.8662(2) 0.9481(5)
H31_15 H 0.8681 0.8819 0.9085
C33_15 C 0.8991(2) 0.8674(2) 0.9934(7)
H32_15 H 0.9158 0.8832 0.9842
C36_15 C 0.81670(17) 0.84446(15) 0.9115(4)
C37_14 C 0.73962(18) 0.81090(17) 0.8964(4)
C38_14 C 0.70691(18) 0.8139(2) 0.8600(6)
H35_14 H 0.7054 0.7971 0.8195
H36_14 H 0.7057 0.8358 0.8353
C39_14 C 0.6782(3) 0.8104(3) 0.9096(9)
H37_14 H 0.6771 0.8291 0.9446
H38_14 H 0.6582 0.8097 0.8787
H39_14 H 0.6801 0.7899 0.9387
C40_15 C 0.9378(3) 0.9795(3) 0.3614(7)
H40_15 H 0.9585 0.9704 0.3476
C41_15 C 0.9169(4) 0.9620(4) 0.4084(8)
H41_15 H 0.9235 0.9407 0.4252
C42_15 C 0.8872(5) 0.9741(3) 0.4315(7)
C45_15 C 0.8628(7) 0.9558(4) 0.4802(11)
H44_15 H 0.8485 0.9425 0.4466
H45_14 H 0.8485 0.9721 0.5059
N10_7 N 0.80339(14) 0.74342(13) 0.9362(4)
Mn4_8 Mn 0.71423(3) 0.71104(2) 0.50281(6)
H46_14 H 0.62797 0.810498 0.599891
N10_8 N 0.99342(13) 0.44661(14) 0.1862(4)
Mn1_16 Mn 0.72143(2) 0.63577(2) 0.71626(6)
O1_16 O 0.74124(13) 0.59772(13) 0.6805(3)
O2_15 O 0.80366(12) 0.63373(12) 0.8565(3)
O3_15 O 0.70648(12) 0.67600(11) 0.7635(3)
N1_15 N 0.75721(14) 0.64247(13) 0.7883(3)
N2_15 N 0.75476(15) 0.67293(13) 0.8291(4)
N3_15 N 0.69040(15) 0.60754(16) 0.8026(4)
C1_15 C 0.76642(18) 0.58040(17) 0.7101(4)
C2_15 C 0.78715(17) 0.59194(16) 0.7698(4)
C3_15 C 0.81210(18) 0.57170(17) 0.7966(4)
H1_15 H 0.8256 0.5792 0.8371
C4_15 C 0.8178(2) 0.54045(18) 0.7652(5)
H2_15 H 0.8353 0.5271 0.7833
C5_15 C 0.7974(2) 0.5293(2) 0.7072(5)
H3_15 H 0.8006 0.5079 0.6868
C6_15 C 0.7721(2) 0.5493(2) 0.6782(5)
H4_15 H 0.7589 0.5418 0.6372
C7_15 C 0.78260(16) 0.62425(16) 0.8082(4)
C8_15 C 0.72768(18) 0.68801(18) 0.8128(5)
C9_15 C 0.7199(3) 0.7198(3) 0.8491(8)
H5_15 H 0.7396 0.7290 0.8744
H6_15 H 0.7119 0.7358 0.8110
C10_15 C 0.6918(5) 0.7118(6) 0.9099(14)
H7_15 H 0.7020 0.7054 0.9581
H8_15 H 0.6781 0.7313 0.9177
H9_15 H 0.6781 0.6937 0.8912
C11_15 C 0.6924(2) 0.6153(2) 0.8754(5)
H10_15 H 0.7082 0.6311 0.8911
C12_15 C 0.6714(3) 0.6005(3) 0.9313(6)
H11_15 H 0.6740 0.6059 0.9834
C13_15 C 0.6474(3) 0.5787(3) 0.9094(7)
C14_15 C 0.6464(3) 0.5703(3) 0.8329(6)
H12_15 H 0.6311 0.5543 0.8154
C15_15 C 0.6682(2) 0.5857(2) 0.7813(5)
H13_16 H 0.6668 0.5801 0.7290
C16_15 C 0.6235(4) 0.5655(4) 0.9631(7)
H14_15 H 0.6065 0.5532 0.9345
H15_15 H 0.6124 0.5841 0.9888
Mn2_15 Mn 0.79550(3) 0.67429(2) 0.91554(7)
O4_15 O 0.77002(14) 0.65217(12) 0.9868(3)
O6_15 O 0.82027(12) 0.70420(12) 0.8509(3)
O7_15 O 0.84340(15) 0.66310(13) 0.9734(4)
N4_15 N 0.78855(15) 0.71540(14) 0.9700(4)
N6_15 N 0.8992(2) 0.6612(2) 0.9745(7)
C24_15 C 0.81982(16) 0.73435(15) 0.8737(4)
C25_16 C 0.8384(2) 0.7602(2) 0.8312(5)
H20_16 H 0.8519 0.7728 0.8677
H21_16 H 0.8224 0.7756 0.8082
C26_15 C 0.8602(3) 0.7475(2) 0.7704(7)
H22_15 H 0.8468 0.7399 0.7275
H23_16 H 0.8749 0.7652 0.7534
H24_15 H 0.8733 0.7292 0.7900
C27_15 C 0.8714(3) 0.6721(3) 0.9471(7)
C29_15 C 0.9311(3) 0.6708(4) 0.9369(15)
H28_15 H 0.9265 0.6856 0.8943
H29_15 H 0.9453 0.6819 0.9738
H30_15 H 0.9421 0.6510 0.9180
O8_16 O 0.67346(15) 0.70209(13) 0.4606(3)
O9_16 O 0.68392(12) 0.63430(12) 0.6440(3)
O10_15 O 0.75616(12) 0.71331(11) 0.5551(3)
N7_16 N 0.70892(15) 0.67481(14) 0.5738(3)
N8_16 N 0.73713(14) 0.66866(14) 0.6190(3)
C30_16 C 0.6517(2) 0.67933(18) 0.4786(5)
C31_16 C 0.65382(17) 0.65683(17) 0.5410(4)
C32_16 C 0.62938(19) 0.6338(2) 0.5519(5)
H31_16 H 0.6319 0.6181 0.5915
C33_16 C 0.6009(2) 0.6326(2) 0.5066(7)
H32_16 H 0.5842 0.6168 0.5158
C34_16 C 0.5981(2) 0.6549(2) 0.4493(7)
H33_16 H 0.5787 0.6545 0.4192
C35_16 C 0.6217(3) 0.6779(2) 0.4325(7)
H34_16 H 0.6187 0.6928 0.3915
C36_16 C 0.68330(17) 0.65554(15) 0.5885(4)
C37_15 C 0.76038(18) 0.68910(17) 0.6036(4)
C38_15 C 0.79309(18) 0.6861(2) 0.6400(6)
H35_15 H 0.7946 0.7029 0.6805
H36_15 H 0.7943 0.6642 0.6647
C39_15 C 0.8218(3) 0.6896(3) 0.5904(9)
H37_15 H 0.8229 0.6709 0.5554
H38_15 H 0.8418 0.6903 0.6213
H39_15 H 0.8199 0.7101 0.5613
H45_15 H 0.6515 0.5279 0.9941
N11_6 N 0.74130(18) 0.6794(2) 0.4145(4)
H46_15 H 0.87203 0.689502 0.900109
O2_16 O 0.88373(12) 0.44634(12) 0.1065(3)
O3_16 O 0.92600(11) 0.54352(12) 0.0135(3)
N1_16 N 0.89247(13) 0.49279(14) 0.0383(3)
N2_16 N 0.92293(13) 0.49524(15) 0.0791(4)
N3_16 N 0.85754(16) 0.55960(15) 0.0526(4)
C2_16 C 0.84194(16) 0.46285(17) 0.0198(4)
C3_16 C 0.82170(17) 0.43790(18) 0.0466(4)
H1_16 H 0.8292 0.4244 0.0871
C4_16 C 0.79045(18) 0.4322(2) 0.0152(5)
H2_16 H 0.7771 0.4147 0.0333
C7_16 C 0.87425(16) 0.46740(16) 0.0582(4)
C8_16 C 0.93801(18) 0.52232(18) 0.0628(5)
C9_16 C 0.9698(3) 0.5301(3) 0.0991(8)
H5_16 H 0.9790 0.5104 0.1244
H6_16 H 0.9858 0.5381 0.0610
C10_16 C 0.9618(6) 0.5582(5) 0.1599(14)
H7_16 H 0.9554 0.5480 0.2081
H8_16 H 0.9813 0.5719 0.1677
H9_16 H 0.9437 0.5719 0.1412
C11_16 C 0.8653(2) 0.5576(2) 0.1254(5)
H10_16 H 0.8811 0.5418 0.1411
C12_16 C 0.8505(3) 0.5786(3) 0.1813(6)
H11_16 H 0.8559 0.5760 0.2334
C13_16 C 0.8287(3) 0.6026(3) 0.1594(7)
C14_16 C 0.8203(3) 0.6036(3) 0.0829(6)
H12_16 H 0.8043 0.6189 0.0654
C15_16 C 0.8357(2) 0.5818(2) 0.0313(5)
C16_16 C 0.8155(4) 0.6265(4) 0.2131(7)
H14_16 H 0.8032 0.6435 0.1845
H15_16 H 0.8341 0.6376 0.2388
Mn2_16 Mn 0.92429(2) 0.45450(3) 0.16554(7)
O4_16 O 0.90217(12) 0.47998(14) 0.2368(3)
O6_16 O 0.95420(12) 0.42973(12) 0.1009(3)
O7_16 O 0.91310(13) 0.40660(15) 0.2234(4)
N4_16 N 0.96540(14) 0.46145(15) 0.2200(4)
N6_16 N 0.9112(2) 0.3508(2) 0.2245(7)
C17_16 C 0.91356(19) 0.4956(2) 0.2994(5)
C18_16 C 0.9459(2) 0.4941(2) 0.3241(5)
C19_16 C 0.9548(3) 0.5096(3) 0.3942(7)
H16_16 H 0.9765 0.5082 0.4136
C20_16 C 0.9295(3) 0.5274(4) 0.4343(9)
H17_16 H 0.9344 0.5376 0.4815
C21_16 C 0.8996(3) 0.5295(4) 0.4056(11)
H18_16 H 0.8837 0.5420 0.4326
C22_16 C 0.8901(3) 0.5147(3) 0.3384(6)
H19_16 H 0.8684 0.5173 0.3191
C23_16 C 0.97213(17) 0.4769(2) 0.2842(4)
C24_16 C 0.98435(15) 0.43018(16) 0.1237(4)
C26_16 C 0.9975(2) 0.3898(3) 0.0204(7)
H24_16 H 0.9792 0.3767 0.0400
C27_16 C 0.9221(3) 0.3786(3) 0.1971(7)
C28_16 C 0.8856(4) 0.3477(4) 0.2801(10)
H25_16 H 0.8643 0.3455 0.2544
H26_16 H 0.8896 0.3282 0.3114
H27_16 H 0.8853 0.3673 0.3125
C29_16 C 0.9208(4) 0.3189(3) 0.1869(15)
H28_16 H 0.9356 0.3235 0.1443
H29_16 H 0.9319 0.3047 0.2238
H30_16 H 0.9010 0.3079 0.1680
C40_16 C 0.7705(3) 0.6878(3) 0.3886(7)
H40_16 H 0.7796 0.7085 0.4024
C41_16 C 0.7880(4) 0.6669(4) 0.3416(8)
H41_16 H 0.8093 0.6735 0.3248
C42_16 C 0.7759(3) 0.6372(5) 0.3185(7)
C43_16 C 0.7485(3) 0.6283(5) 0.3485(9)
H42_16 H 0.7405 0.6068 0.3388
C44_16 C 0.7298(3) 0.6498(4) 0.3961(6)
H43_16 H 0.7090 0.6428 0.4148
C45_16 C 0.7942(4) 0.6128(7) 0.2698(11)
H44_16 H 0.8075 0.5985 0.3034
H45_16 H 0.7779 0.5985 0.2441
H46_16 H 0.939502 0.37797 0.150109
C1_16 C 0.16960(17) 0.01642(18) 0.9601(4)
C5_16 C 0.2207(2) 0.0474(2) 0.9572(5)
H3_16 H 0.2421 0.0506 0.9368
C6_16 C 0.2007(2) 0.0221(2) 0.9282(5)
H4_16 H 0.2082 0.0089 0.8872
H22_16 H 0.0101 0.0968 0.9775
O10_16 O 0.03669(11) 0.00616(12) 0.8051(3)
C37_16 C 0.06090(17) 0.01038(18) 0.8536(4)
C38_16 C 0.0639(2) 0.04309(18) 0.8900(6)
H35_16 H 0.0471 0.0446 0.9305
H36_16 H 0.0858 0.0443 0.9147
C39_16 C 0.0604(3) 0.0718(3) 0.8404(9)
H37_16 H 0.0791 0.0729 0.8054
H38_16 H 0.0597 0.0918 0.8713
H39_16 H 0.0399 0.0699 0.8113
loop_
_geom_bond_atom_site_label_1
_geom_bond_atom_site_label_2
_geom_bond_site_symmetry_1
_geom_bond_site_symmetry_2
O2 C7 1_555 1_555
N2 N1 1_555 1_555
C2 C3 1_555 1_555
C3 H1 1_555 1_555
C4 C3 1_555 1_555
H2 C4 1_555 1_555
C7 N1 1_555 1_555
Mn2 O2 1_555 1_555
O4 Mn2 1_555 1_555
O6 Mn2 1_555 1_555
O7 Mn2 1_555 1_555
N4 Mn2 1_555 1_555
N10 N4 1_555 1_555
N6 C27 1_555 1_555
C17 O4 1_555 1_555
C18 C17 1_555 1_555
C23 N4 1_555 1_555
C24 O6 1_555 1_555
H24 C26 1_555 1_555
C27 O7 1_555 1_555
C28 N6 1_555 1_555
H25 C28 1_555 1_555
H26 C28 1_555 1_555
H27 C28 1_555 1_555
C29 N6 1_555 1_555
H28 C29 1_555 1_555
H29 C29 1_555 1_555
H30 C29 1_555 1_555
N2 Mn2 1_555 1_555
C2 C7 1_555 1_555
N10 C24 1_555 1_555
C18 C23 1_555 1_555
C27 H46 1_555 1_555
H20 C25 1_555 1_555
H21 C25 1_555 1_555
Mn4 O5 1_555 1_555
Mn1 O1 1_555 1_555
Mn4 O8 1_555 1_555
O8 C30 1_555 1_555
O9 Mn1 1_555 1_555
N7 Mn4 1_555 1_555
N8 Mn1 1_555 1_555
C30 C31 1_555 1_555
C31 C32 1_555 1_555
C32 H31 1_555 1_555
C33 C32 1_555 1_555
H32 C33 1_555 1_555
C34 C33 1_555 1_555
H33 C34 1_555 1_555
C35 C30 1_555 1_555
H34 C35 1_555 1_555
C36 O9 1_555 1_555
N11 Mn4 1_555 1_555
N7 N8 1_555 1_555
N7 C36 1_555 1_555
C31 C36 1_555 1_555
C34 C35 1_555 1_555
H42 C43 1_555 1_555
C44 N11 1_555 1_555
H43 C44 1_555 1_555
C43 C44 1_555 1_555
Mn1_2 O1_2 1_555 1_555
Mn3 O8_2 1_555 1_555
O8_2 C30_2 1_555 1_555
O9_2 Mn1_2 1_555 1_555
N7_2 Mn3 1_555 1_555
N8_2 Mn1_2 1_555 1_555
C30_2 C31_2 1_555 1_555
C31_2 C32_2 1_555 1_555
C32_2 H31_2 1_555 1_555
C33_2 C32_2 1_555 1_555
H32_2 C33_2 1_555 1_555
C34_2 C33_2 1_555 1_555
H33_2 C34_2 1_555 1_555
C35_2 C30_2 1_555 1_555
H34_2 C35_2 1_555 1_555
C36_2 O9_2 1_555 1_555
O11 Mn3 1_555 1_555
N11_2 Mn3 1_555 1_555
N7_2 N8_2 1_555 1_555
N7_2 C36_2 1_555 1_555
C31_2 C36_2 1_555 1_555
C34_2 C35_2 1_555 1_555
H42_2 C43_2 1_555 1_555
C44_2 N11_2 1_555 1_555
H43_2 C44_2 1_555 1_555
C43_2 C44_2 1_555 1_555
H20_2 C25_2 1_555 1_555
H21_2 C25_2 1_555 1_555
C8 O3 1_555 1_555
C9 C8 1_555 1_555
H5 C9 1_555 1_555
H6 C9 1_555 1_555
C10 C9 1_555 1_555
H7 C10 1_555 1_555
H8 C10 1_555 1_555
H9 C10 1_555 1_555
C11 N3 1_555 1_555
H10 C11 1_555 1_555
C12 C11 1_555 1_555
H11 C12 1_555 1_555
C13 C12 1_555 1_555
C14 C13 1_555 1_555
H12 C14 1_555 1_555
C15 N3 1_555 1_555
C16 C13 1_555 1_555
H14 C16 1_555 1_555
H15 C16 1_555 1_555
H16 C19 1_555 1_555
C20 C19 1_555 1_555
H17 C20 1_555 1_555
C21 C20 1_555 1_555
H18 C21 1_555 1_555
H19 C22 1_555 1_555
N9 C40 1_555 1_555
C40 H40 1_555 1_555
C41 C40 1_555 1_555
H41 C41 1_555 1_555
C42 C41 1_555 1_555
C43_3 C42 1_555 1_555
H42_3 C43_3 1_555 1_555
C44_3 N9 1_555 1_555
H43_3 C44_3 1_555 1_555
C45 C16 1_555 1_555
H44 C45 1_555 1_555
H45 C45 1_555 1_555
Mn5 N9 1_555 1_555
C14 C15 1_555 1_555
C21 C22 1_555 1_555
C42 C45 1_555 1_555
C43_3 C44_3 1_555 1_555
Mn1_3 O1_3 1_555 1_555
O1_3 C1 1_555 1_555
O2_2 C7_2 1_555 1_555
O3_2 Mn1_3 1_555 1_555
N1_2 Mn1_3 1_555 1_555
N2_2 N1_2 1_555 1_555
N3_2 Mn1_3 1_555 1_555
C1 C2_2 1_555 1_555
C2_2 C3_2 1_555 1_555
C3_2 H1_2 1_555 1_555
C4_2 C3_2 1_555 1_555
H2_2 C4_2 1_555 1_555
C5 C4_2 1_555 1_555
H3 C5 1_555 1_555
C6 C1 1_555 1_555
H4 C6 1_555 1_555
C7_2 N1_2 1_555 1_555
C8_2 O3_2 1_555 1_555
C9_2 C8_2 1_555 1_555
H5_2 C9_2 1_555 1_555
H6_2 C9_2 1_555 1_555
C10_2 C9_2 1_555 1_555
H7_2 C10_2 1_555 1_555
H8_2 C10_2 1_555 1_555
H9_2 C10_2 1_555 1_555
C11_2 N3_2 1_555 1_555
H10_2 C11_2 1_555 1_555
C12_2 C11_2 1_555 1_555
H11_2 C12_2 1_555 1_555
C13_2 C12_2 1_555 1_555
C14_2 C13_2 1_555 1_555
H12_2 C14_2 1_555 1_555
C15_2 N3_2 1_555 1_555
H13_3 C15_2 1_555 1_555
C16_2 C13_2 1_555 1_555
H14_2 C16_2 1_555 1_555
H15_2 C16_2 1_555 1_555
Mn2_2 O2_2 1_555 1_555
O4_2 Mn2_2 1_555 1_555
O6_2 Mn2_2 1_555 1_555
O7_2 Mn2_2 1_555 1_555
N4_2 Mn2_2 1_555 1_555
N5 N4_2 1_555 1_555
N6_2 C27_2 1_555 1_555
C24_2 O6_2 1_555 1_555
C25_3 C24_2 1_555 1_555
H20_3 C25_3 1_555 1_555
H21_3 C25_3 1_555 1_555
C26_2 C25_3 1_555 1_555
H22 C26_2 1_555 1_555
H23_3 C26_2 1_555 1_555
H24_2 C26_2 1_555 1_555
C27_2 O7_2 1_555 1_555
C29_2 N6_2 1_555 1_555
H28_2 C29_2 1_555 1_555
H29_2 C29_2 1_555 1_555
H30_2 C29_2 1_555 1_555
Mn5 O8_3 1_555 1_555
O8_3 C30_3 1_555 1_555
O9_3 Mn1_3 1_555 1_555
O10 Mn5 1_555 1_555
N7_3 Mn5 1_555 1_555
N8_3 Mn1_3 1_555 1_555
C30_3 C31_3 1_555 1_555
C31_3 C32_3 1_555 1_555
C32_3 H31_3 1_555 1_555
C33_3 C32_3 1_555 1_555
H32_3 C33_3 1_555 1_555
C34_3 C33_3 1_555 1_555
H33_3 C34_3 1_555 1_555
C35_3 C30_3 1_555 1_555
H34_3 C35_3 1_555 1_555
C36_3 O9_3 1_555 1_555
C37 O10 1_555 1_555
C38 C37 1_555 1_555
H35 C38 1_555 1_555
H36 C38 1_555 1_555
C39 C38 1_555 1_555
H37 C39 1_555 1_555
H38 C39 1_555 1_555
H39 C39 1_555 1_555
O11_2 Mn5 1_555 1_555
N10_2 Mn5 1_555 1_555
N2_2 C8_2 1_555 1_555
N2_2 Mn2_2 1_555 1_555
C2_2 C7_2 1_555 1_555
C5 C6 1_555 1_555
C14_2 C15_2 1_555 1_555
N5 C24_2 1_555 1_555
N5 Mn4_2 1_555 1_555
N7_3 N8_3 1_555 1_555
N7_3 C36_3 1_555 1_555
N8_3 C37 1_555 1_555
C31_3 C36_3 1_555 1_555
C34_3 C35_3 1_555 1_555
C27_2 H46_2 1_555 1_555
H20_4 C25_4 1_555 1_555
H21_4 C25_4 1_555 1_555
Mn4_3 O5_2 1_555 1_555
Mn1_4 O1_4 1_555 1_555
O1_4 C1_2 1_555 1_555
O2_3 C7_3 1_555 1_555
O3_3 Mn1_4 1_555 1_555
N1_3 Mn1_4 1_555 1_555
N2_3 N1_3 1_555 1_555
N3_3 Mn1_4 1_555 1_555
C1_2 C2_3 1_555 1_555
C2_3 C3_3 1_555 1_555
C3_3 H1_3 1_555 1_555
C4_3 C3_3 1_555 1_555
H2_3 C4_3 1_555 1_555
C5_2 C4_3 1_555 1_555
H3_2 C5_2 1_555 1_555
C6_2 C1_2 1_555 1_555
H4_2 C6_2 1_555 1_555
C7_3 N1_3 1_555 1_555
C8_3 O3_3 1_555 1_555
C9_3 C8_3 1_555 1_555
H5_3 C9_3 1_555 1_555
H6_3 C9_3 1_555 1_555
C10_3 C9_3 1_555 1_555
H7_3 C10_3 1_555 1_555
H8_3 C10_3 1_555 1_555
H9_3 C10_3 1_555 1_555
C11_3 N3_3 1_555 1_555
H10_3 C11_3 1_555 1_555
C12_3 C11_3 1_555 1_555
H11_3 C12_3 1_555 1_555
C13_3 C12_3 1_555 1_555
C14_3 C13_3 1_555 1_555
H12_3 C14_3 1_555 1_555
C15_3 N3_3 1_555 1_555
H13_4 C15_3 1_555 1_555
C16_3 C13_3 1_555 1_555
H14_3 C16_3 1_555 1_555
H15_3 C16_3 1_555 1_555
Mn2_3 O2_3 1_555 1_555
O4_3 Mn2_3 1_555 1_555
O11_2 C23_2 1_555 1_555
O6_3 Mn2_3 1_555 1_555
O7_3 Mn2_3 1_555 1_555
N4_3 Mn2_3 1_555 1_555
N10_2 N4_3 1_555 1_555
N6_3 C27_3 1_555 1_555
C17_2 O4_3 1_555 1_555
C18_2 C17_2 1_555 1_555
C19_2 C18_2 1_555 1_555
H16_2 C19_2 1_555 1_555
C20_2 C19_2 1_555 1_555
H17_2 C20_2 1_555 1_555
C21_2 C20_2 1_555 1_555
H18_2 C21_2 1_555 1_555
C22_2 C17_2 1_555 1_555
H19_2 C22_2 1_555 1_555
C23_2 N4_3 1_555 1_555
C24_3 O6_3 1_555 1_555
C25_5 C24_3 1_555 1_555
H20_5 C25_5 1_555 1_555
H21_5 C25_5 1_555 1_555
C26_3 C25_5 1_555 1_555
H22_2 C26_3 1_555 1_555
H23_5 C26_3 1_555 1_555
H24_3 C26_3 1_555 1_555
C27_3 O7_3 1_555 1_555
C28_2 N6_3 1_555 1_555
H25_2 C28_2 1_555 1_555
H26_2 C28_2 1_555 1_555
H27_2 C28_2 1_555 1_555
C29_3 N6_3 1_555 1_555
H28_3 C29_3 1_555 1_555
H29_3 C29_3 1_555 1_555
H30_3 C29_3 1_555 1_555
O9_4 Mn1_4 1_555 1_555
O10_2 Mn4_2 1_555 1_555
N7_4 Mn4_2 1_555 1_555
N8_4 Mn1_4 1_555 1_555
N9_2 C40_2 1_555 1_555
C31_4 C32_4 1_555 1_555
C32_4 H31_4 1_555 1_555
C33_4 C32_4 1_555 1_555
H32_4 C33_4 1_555 1_555
C36_4 O9_4 1_555 1_555
C37_2 O10_2 1_555 1_555
C38_2 C37_2 1_555 1_555
H35_2 C38_2 1_555 1_555
H36_2 C38_2 1_555 1_555
C39_2 C38_2 1_555 1_555
H37_2 C39_2 1_555 1_555
H38_2 C39_2 1_555 1_555
H39_2 C39_2 1_555 1_555
C40_2 H40_2 1_555 1_555
C41_2 C40_2 1_555 1_555
H41_2 C41_2 1_555 1_555
C42_2 C41_2 1_555 1_555
C43_4 C42_2 1_555 1_555
H42_4 C43_4 1_555 1_555
C44_4 N9_2 1_555 1_555
H43_4 C44_4 1_555 1_555
C45_2 C16_3 1_555 1_555
H44_2 C45_2 1_555 1_555
H45_3 C45_2 1_555 1_555
Mn4_3 N9_2 1_555 1_555
N2_3 C8_3 1_555 1_555
N2_3 Mn2_3 1_555 1_555
C2_3 C7_3 1_555 1_555
C5_2 C6_2 1_555 1_555
C14_3 C15_3 1_555 1_555
N10_2 C24_3 1_555 1_555
C18_2 C23_2 1_555 1_555
C21_2 C22_2 1_555 1_555
N7_4 N8_4 1_555 1_555
N7_4 C36_4 1_555 1_555
N8_4 C37_2 1_555 1_555
C31_4 C36_4 1_555 1_555
C42_2 C45_2 1_555 1_555
C43_4 C44_4 1_555 1_555
C27_3 H46_3 1_555 1_555
Mn1_5 O1_5 1_555 1_555
O1_5 C1_3 1_555 1_555
H3_3 C5_3 1_555 1_555
C6_3 C1_3 1_555 1_555
H4_3 C6_3 1_555 1_555
Mn4_3 O8_4 1_555 1_555
O8_4 C30_4 1_555 1_555
O9_5 Mn1_5 1_555 1_555
O10_3 Mn4_3 1_555 1_555
N7_5 Mn4_3 1_555 1_555
N8_5 Mn1_5 1_555 1_555
C30_4 C31_5 1_555 1_555
C31_5 C32_5 1_555 1_555
C32_5 H31_5 1_555 1_555
C33_5 C32_5 1_555 1_555
H32_5 C33_5 1_555 1_555
C34_4 C33_5 1_555 1_555
H33_4 C34_4 1_555 1_555
C35_4 C30_4 1_555 1_555
H34_4 C35_4 1_555 1_555
C36_5 O9_5 1_555 1_555
C37_3 O10_3 1_555 1_555
C38_3 C37_3 1_555 1_555
H35_3 C38_3 1_555 1_555
H36_3 C38_3 1_555 1_555
C39_3 C38_3 1_555 1_555
H37_3 C39_3 1_555 1_555
H38_3 C39_3 1_555 1_555
H39_3 C39_3 1_555 1_555
C5_3 C6_3 1_555 1_555
N7_5 N8_5 1_555 1_555
N7_5 C36_5 1_555 1_555
N8_5 C37_3 1_555 1_555
C31_5 C36_5 1_555 1_555
C34_4 C35_4 1_555 1_555
H3_4 C5_4 1_555 1_555
C6_4 C1_4 1_555 1_555
H4_4 C6_4 1_555 1_555
C37_4 O10_4 1_555 1_555
C38_4 C37_4 1_555 1_555
H35_4 C38_4 1_555 1_555
H36_4 C38_4 1_555 1_555
C39_4 C38_4 1_555 1_555
H37_4 C39_4 1_555 1_555
H38_4 C39_4 1_555 1_555
H39_4 C39_4 1_555 1_555
C5_4 C6_4 1_555 1_555
O2_4 C7_4 1_555 1_555
N2_4 N1_4 1_555 1_555
C2_4 C3_4 1_555 1_555
C3_4 H1_4 1_555 1_555
C4_4 C3_4 1_555 1_555
H2_4 C4_4 1_555 1_555
C7_4 N1_4 1_555 1_555
Mn2_4 O2_4 1_555 1_555
O4_4 Mn2_4 1_555 1_555
O6_4 Mn2_4 1_555 1_555
O7_4 Mn2_4 1_555 1_555
N4_4 Mn2_4 1_555 1_555
N5_2 N4_4 1_555 1_555
N6_4 C27_4 1_555 1_555
C17_3 O4_4 1_555 1_555
C18_3 C17_3 1_555 1_555
C23_3 N4_4 1_555 1_555
C24_4 O6_4 1_555 1_555
H24_4 C26_4 1_555 1_555
C27_4 O7_4 1_555 1_555
C28_3 N6_4 1_555 1_555
H25_3 C28_3 1_555 1_555
H26_3 C28_3 1_555 1_555
H27_3 C28_3 1_555 1_555
C29_4 N6_4 1_555 1_555
H28_4 C29_4 1_555 1_555
H29_4 C29_4 1_555 1_555
H30_4 C29_4 1_555 1_555
N2_4 Mn2_4 1_555 1_555
C2_4 C7_4 1_555 1_555
N5_2 C24_4 1_555 1_555
C18_3 C23_3 1_555 1_555
C27_4 H46_4 1_555 1_555
O5_3 C23_4 1_555 1_555
C18_4 C17_4 1_555 1_555
C19_3 C18_4 1_555 1_555
H16_3 C19_3 1_555 1_555
C20_3 C19_3 1_555 1_555
H17_3 C20_3 1_555 1_555
C21_3 C20_3 1_555 1_555
H18_3 C21_3 1_555 1_555
C22_3 C17_4 1_555 1_555
H19_3 C22_3 1_555 1_555
H25_4 C28_4 1_555 1_555
H26_4 C28_4 1_555 1_555
H27_4 C28_4 1_555 1_555
C40_3 H40_3 1_555 1_555
C41_3 C40_3 1_555 1_555
H41_3 C41_3 1_555 1_555
C42_3 C41_3 1_555 1_555
H44_3 C45_3 1_555 1_555
C18_4 C23_4 1_555 1_555
C21_3 C22_3 1_555 1_555
C42_3 C45_3 1_555 1_555
H42_5 C43_5 1_555 1_555
C44_5 N9_3 1_555 1_555
H43_5 C44_5 1_555 1_555
Mn5_2 N9_3 1_555 1_555
C43_5 C44_5 1_555 1_555
Mn1_6 O1_6 1_555 1_555
O1_6 C1_5 1_555 1_555
O2_5 C7_5 1_555 1_555
O3_4 Mn1_6 1_555 1_555
N1_5 Mn1_6 1_555 1_555
N2_5 N1_5 1_555 1_555
N3_4 Mn1_6 1_555 1_555
C1_5 C2_5 1_555 1_555
C2_5 C3_5 1_555 1_555
C3_5 H1_5 1_555 1_555
C4_5 C3_5 1_555 1_555
H2_5 C4_5 1_555 1_555
C5_5 C4_5 1_555 1_555
H3_5 C5_5 1_555 1_555
C6_5 C1_5 1_555 1_555
H4_5 C6_5 1_555 1_555
C7_5 N1_5 1_555 1_555
C8_4 O3_4 1_555 1_555
C9_4 C8_4 1_555 1_555
H5_4 C9_4 1_555 1_555
H6_4 C9_4 1_555 1_555
C10_4 C9_4 1_555 1_555
H7_4 C10_4 1_555 1_555
H8_4 C10_4 1_555 1_555
H9_4 C10_4 1_555 1_555
C11_4 N3_4 1_555 1_555
H10_4 C11_4 1_555 1_555
C12_4 C11_4 1_555 1_555
H11_4 C12_4 1_555 1_555
C13_4 C12_4 1_555 1_555
C14_4 C13_4 1_555 1_555
H12_4 C14_4 1_555 1_555
C15_4 N3_4 1_555 1_555
H13_6 C15_4 1_555 1_555
C16_4 C13_4 1_555 1_555
H14_4 C16_4 1_555 1_555
H15_4 C16_4 1_555 1_555
Mn2_5 O2_5 1_555 1_555
O4_5 Mn2_5 1_555 1_555
O5_4 C23_5 1_555 1_555
O6_5 Mn2_5 1_555 1_555
O7_5 Mn2_5 1_555 1_555
N4_5 Mn2_5 1_555 1_555
N5_3 N4_5 1_555 1_555
N6_5 C27_5 1_555 1_555
C17_5 O4_5 1_555 1_555
C18_5 C17_5 1_555 1_555
C19_4 C18_5 1_555 1_555
H16_4 C19_4 1_555 1_555
C20_4 C19_4 1_555 1_555
H17_4 C20_4 1_555 1_555
C21_4 C20_4 1_555 1_555
H18_4 C21_4 1_555 1_555
C22_4 C17_5 1_555 1_555
H19_4 C22_4 1_555 1_555
C23_5 N4_5 1_555 1_555
C24_5 O6_5 1_555 1_555
C25_6 C24_5 1_555 1_555
H20_6 C25_6 1_555 1_555
H21_6 C25_6 1_555 1_555
C26_5 C25_6 1_555 1_555
H22_5 C26_5 1_555 1_555
H23_6 C26_5 1_555 1_555
H24_5 C26_5 1_555 1_555
C27_5 O7_5 1_555 1_555
C28_5 N6_5 1_555 1_555
H25_5 C28_5 1_555 1_555
H26_5 C28_5 1_555 1_555
H27_5 C28_5 1_555 1_555
C29_5 N6_5 1_555 1_555
H28_5 C29_5 1_555 1_555
H29_5 C29_5 1_555 1_555
H30_5 C29_5 1_555 1_555
Mn3_2 O8_5 1_555 1_555
O8_5 C30_5 1_555 1_555
O9_6 Mn1_6 1_555 1_555
O10_5 Mn3_2 1_555 1_555
N7_6 Mn3_2 1_555 1_555
N8_6 Mn1_6 1_555 1_555
N9_4 C40_4 1_555 1_555
C30_5 C31_6 1_555 1_555
C31_6 C32_6 1_555 1_555
C32_6 H31_6 1_555 1_555
C33_6 C32_6 1_555 1_555
H32_6 C33_6 1_555 1_555
C34_5 C33_6 1_555 1_555
H33_5 C34_5 1_555 1_555
C35_5 C30_5 1_555 1_555
H34_5 C35_5 1_555 1_555
C36_6 O9_6 1_555 1_555
C37_5 O10_5 1_555 1_555
C38_5 C37_5 1_555 1_555
H35_5 C38_5 1_555 1_555
H36_5 C38_5 1_555 1_555
C39_5 C38_5 1_555 1_555
H37_5 C39_5 1_555 1_555
H38_5 C39_5 1_555 1_555
H39_5 C39_5 1_555 1_555
C40_4 H40_4 1_555 1_555
C41_4 C40_4 1_555 1_555
H41_4 C41_4 1_555 1_555
C42_4 C41_4 1_555 1_555
C43_6 C42_4 1_555 1_555
H42_6 C43_6 1_555 1_555
C44_6 N9_4 1_555 1_555
H43_6 C44_6 1_555 1_555
C45_4 C16_4 1_555 1_555
H44_4 C45_4 1_555 1_555
H45_4 C45_4 1_555 1_555
O11_3 Mn3_2 1_555 1_555
N10_3 Mn3_2 1_555 1_555
Mn4_4 O5_4 1_555 1_555
N11_3 Mn3_2 1_555 1_555
N2_5 C8_4 1_555 1_555
N2_5 Mn2_5 1_555 1_555
C2_5 C7_5 1_555 1_555
C5_5 C6_5 1_555 1_555
C14_4 C15_4 1_555 1_555
N5_3 C24_5 1_555 1_555
N5_3 Mn4_4 1_555 1_555
C18_5 C23_5 1_555 1_555
C21_4 C22_4 1_555 1_555
N7_6 N8_6 1_555 1_555
N7_6 C36_6 1_555 1_555
N8_6 C37_5 1_555 1_555
C31_6 C36_6 1_555 1_555
C34_5 C35_5 1_555 1_555
C42_4 C45_4 1_555 1_555
C43_6 C44_6 1_555 1_555
C27_5 H46_5 1_555 1_555
O8_6 C30_6 1_555 1_555
H33_6 C34_6 1_555 1_555
C35_6 C30_6 1_555 1_555
H34_6 C35_6 1_555 1_555
C34_6 C35_6 1_555 1_555
O5_5 C23_6 1_555 1_555
C18_6 C17_6 1_555 1_555
C19_5 C18_6 1_555 1_555
H16_5 C19_5 1_555 1_555
C20_5 C19_5 1_555 1_555
H17_5 C20_5 1_555 1_555
C21_5 C20_5 1_555 1_555
H18_5 C21_5 1_555 1_555
C22_5 C17_6 1_555 1_555
H19_5 C22_5 1_555 1_555
H25_6 C28_6 1_555 1_555
H26_6 C28_6 1_555 1_555
H27_6 C28_6 1_555 1_555
N11_3 C40_5 1_555 1_555
C40_5 H40_5 1_555 1_555
C41_5 C40_5 1_555 1_555
H41_5 C41_5 1_555 1_555
C42_5 C41_5 1_555 1_555
C43_7 C42_5 1_555 1_555
H42_7 C43_7 1_555 1_555
C44_7 N11_3 1_555 1_555
H43_7 C44_7 1_555 1_555
H44_5 C45_5 1_555 1_555
C18_6 C23_6 1_555 1_555
C21_5 C22_5 1_555 1_555
C42_5 C45_5 1_555 1_555
C43_7 C44_7 1_555 1_555
O2_6 C7_6 1_555 1_555
N2_6 N1_6 1_555 1_555
C1_6 C2_6 1_555 1_555
C2_6 C3_6 1_555 1_555
C3_6 H1_6 1_555 1_555
C4_6 C3_6 1_555 1_555
H2_6 C4_6 1_555 1_555
C5_6 C4_6 1_555 1_555
H3_6 C5_6 1_555 1_555
C6_6 C1_6 1_555 1_555
H4_6 C6_6 1_555 1_555
C7_6 N1_6 1_555 1_555
Mn2_6 O2_6 1_555 1_555
O4_6 Mn2_6 1_555 1_555
O5_6 C23_7 1_555 1_555
O6_6 Mn2_6 1_555 1_555
O7_6 Mn2_6 1_555 1_555
N4_6 Mn2_6 1_555 1_555
N5_4 N4_6 1_555 1_555
N6_6 C27_6 1_555 1_555
C17_7 O4_6 1_555 1_555
C18_7 C17_7 1_555 1_555
C23_7 N4_6 1_555 1_555
C24_6 O6_6 1_555 1_555
C25_7 C24_6 1_555 1_555
H20_7 C25_7 1_555 1_555
H21_7 C25_7 1_555 1_555
C26_6 C25_7 1_555 1_555
H22_6 C26_6 1_555 1_555
H23_7 C26_6 1_555 1_555
H24_6 C26_6 1_555 1_555
C27_6 O7_6 1_555 1_555
C28_7 N6_6 1_555 1_555
H25_7 C28_7 1_555 1_555
H26_7 C28_7 1_555 1_555
H27_7 C28_7 1_555 1_555
C29_6 N6_6 1_555 1_555
H28_6 C29_6 1_555 1_555
H29_6 C29_6 1_555 1_555
H30_6 C29_6 1_555 1_555
C37_6 O10_6 1_555 1_555
C38_6 C37_6 1_555 1_555
H35_6 C38_6 1_555 1_555
H36_6 C38_6 1_555 1_555
C39_6 C38_6 1_555 1_555
H37_6 C39_6 1_555 1_555
H38_6 C39_6 1_555 1_555
H39_6 C39_6 1_555 1_555
Mn4_5 O5_6 1_555 1_555
N2_6 Mn2_6 1_555 1_555
C2_6 C7_6 1_555 1_555
C5_6 C6_6 1_555 1_555
N5_4 C24_6 1_555 1_555
N5_4 Mn4_5 1_555 1_555
C18_7 C23_7 1_555 1_555
C27_6 H46_6 1_555 1_555
Mn1_7 O1_7 1_555 1_555
O3_5 Mn1_7 1_555 1_555
N3_5 Mn1_7 1_555 1_555
C8_5 O3_5 1_555 1_555
C9_5 C8_5 1_555 1_555
H5_5 C9_5 1_555 1_555
H6_5 C9_5 1_555 1_555
C10_5 C9_5 1_555 1_555
H7_5 C10_5 1_555 1_555
H8_5 C10_5 1_555 1_555
H9_5 C10_5 1_555 1_555
C11_5 N3_5 1_555 1_555
H10_5 C11_5 1_555 1_555
C12_5 C11_5 1_555 1_555
H11_5 C12_5 1_555 1_555
C13_5 C12_5 1_555 1_555
C14_5 C13_5 1_555 1_555
H12_5 C14_5 1_555 1_555
C15_5 N3_5 1_555 1_555
H13_7 C15_5 1_555 1_555
C16_5 C13_5 1_555 1_555
H14_5 C16_5 1_555 1_555
H15_5 C16_5 1_555 1_555
H16_6 C19_6 1_555 1_555
C20_6 C19_6 1_555 1_555
H17_6 C20_6 1_555 1_555
C21_6 C20_6 1_555 1_555
H18_6 C21_6 1_555 1_555
H19_6 C22_6 1_555 1_555
Mn5_2 O8_7 1_555 1_555
O8_7 C30_7 1_555 1_555
O9_7 Mn1_7 1_555 1_555
N7_7 Mn5_2 1_555 1_555
N8_7 Mn1_7 1_555 1_555
N9_5 C40_6 1_555 1_555
C30_7 C31_7 1_555 1_555
C31_7 C32_7 1_555 1_555
C32_7 H31_7 1_555 1_555
C33_7 C32_7 1_555 1_555
H32_7 C33_7 1_555 1_555
C34_7 C33_7 1_555 1_555
H33_7 C34_7 1_555 1_555
C35_7 C30_7 1_555 1_555
H34_7 C35_7 1_555 1_555
C36_7 O9_7 1_555 1_555
C40_6 H40_6 1_555 1_555
C41_6 C40_6 1_555 1_555
H41_6 C41_6 1_555 1_555
C42_6 C41_6 1_555 1_555
C43_8 C42_6 1_555 1_555
H42_8 C43_8 1_555 1_555
C44_8 N9_5 1_555 1_555
H43_8 C44_8 1_555 1_555
C45_6 C16_5 1_555 1_555
H44_6 C45_6 1_555 1_555
H45_5 C45_6 1_555 1_555
O11_5 Mn5_2 1_555 1_555
N10_4 Mn5_2 1_555 1_555
C14_5 C15_5 1_555 1_555
C21_6 C22_6 1_555 1_555
N7_7 N8_7 1_555 1_555
N7_7 C36_7 1_555 1_555
C31_7 C36_7 1_555 1_555
C34_7 C35_7 1_555 1_555
C42_6 C45_6 1_555 1_555
C43_8 C44_8 1_555 1_555
O8_8 C30_8 1_555 1_555
H33_8 C34_8 1_555 1_555
C35_8 C30_8 1_555 1_555
H34_8 C35_8 1_555 1_555
C34_8 C35_8 1_555 1_555
H42_9 C43_9 1_555 1_555
C44_9 N9_6 1_555 1_555
H43_9 C44_9 1_555 1_555
Mn4_5 N9_6 1_555 1_555
C43_9 C44_9 1_555 1_555
O11_4 C23_8 1_555 1_555
C18_8 C17_8 1_555 1_555
C19_7 C18_8 1_555 1_555
H16_7 C19_7 1_555 1_555
C20_7 C19_7 1_555 1_555
H17_7 C20_7 1_555 1_555
C21_7 C20_7 1_555 1_555
H18_7 C21_7 1_555 1_555
C22_7 C17_8 1_555 1_555
H19_7 C22_7 1_555 1_555
H25_8 C28_8 1_555 1_555
H26_8 C28_8 1_555 1_555
H27_8 C28_8 1_555 1_555
C40_7 H40_7 1_555 1_555
C41_7 C40_7 1_555 1_555
H41_7 C41_7 1_555 1_555
C42_7 C41_7 1_555 1_555
H44_7 C45_7 1_555 1_555
C18_8 C23_8 1_555 1_555
C21_7 C22_7 1_555 1_555
C42_7 C45_7 1_555 1_555
Mn1_8 O1_8 1_555 1_555
O1_8 C1_7 1_555 1_555
O2_7 C7_7 1_555 1_555
O3_6 Mn1_8 1_555 1_555
N1_7 Mn1_8 1_555 1_555
N2_7 N1_7 1_555 1_555
N3_6 Mn1_8 1_555 1_555
C1_7 C2_7 1_555 1_555
C2_7 C3_7 1_555 1_555
C3_7 H1_7 1_555 1_555
C4_7 C3_7 1_555 1_555
H2_7 C4_7 1_555 1_555
C5_7 C4_7 1_555 1_555
H3_7 C5_7 1_555 1_555
C6_7 C1_7 1_555 1_555
H4_7 C6_7 1_555 1_555
C7_7 N1_7 1_555 1_555
C8_6 O3_6 1_555 1_555
C9_6 C8_6 1_555 1_555
H5_6 C9_6 1_555 1_555
H6_6 C9_6 1_555 1_555
C10_6 C9_6 1_555 1_555
H7_6 C10_6 1_555 1_555
H8_6 C10_6 1_555 1_555
H9_6 C10_6 1_555 1_555
C11_6 N3_6 1_555 1_555
H10_6 C11_6 1_555 1_555
C12_6 C11_6 1_555 1_555
H11_6 C12_6 1_555 1_555
C13_6 C12_6 1_555 1_555
C14_6 C13_6 1_555 1_555
H12_6 C14_6 1_555 1_555
C15_6 N3_6 1_555 1_555
H13_8 C15_6 1_555 1_555
C16_6 C13_6 1_555 1_555
H14_6 C16_6 1_555 1_555
H15_6 C16_6 1_555 1_555
Mn2_7 O2_7 1_555 1_555
O4_7 Mn2_7 1_555 1_555
O11_3 C23_9 1_555 1_555
O6_7 Mn2_7 1_555 1_555
O7_7 Mn2_7 1_555 1_555
N4_7 Mn2_7 1_555 1_555
N10_3 N4_7 1_555 1_555
N6_7 C27_7 1_555 1_555
C17_9 O4_7 1_555 1_555
C18_9 C17_9 1_555 1_555
C19_8 C18_9 1_555 1_555
H16_8 C19_8 1_555 1_555
C20_8 C19_8 1_555 1_555
H17_8 C20_8 1_555 1_555
C21_8 C20_8 1_555 1_555
H18_8 C21_8 1_555 1_555
C22_8 C17_9 1_555 1_555
H19_8 C22_8 1_555 1_555
C23_9 N4_7 1_555 1_555
C24_7 O6_7 1_555 1_555
C25_8 C24_7 1_555 1_555
H20_8 C25_8 1_555 1_555
H21_8 C25_8 1_555 1_555
C26_7 C25_8 1_555 1_555
H22_7 C26_7 1_555 1_555
H23_8 C26_7 1_555 1_555
H24_7 C26_7 1_555 1_555
C27_7 O7_7 1_555 1_555
C28_9 N6_7 1_555 1_555
H25_9 C28_9 1_555 1_555
H26_9 C28_9 1_555 1_555
H27_9 C28_9 1_555 1_555
C29_7 N6_7 1_555 1_555
H28_7 C29_7 1_555 1_555
H29_7 C29_7 1_555 1_555
H30_7 C29_7 1_555 1_555
Mn4_4 O8_9 1_555 1_555
O8_9 C30_9 1_555 1_555
O9_8 Mn1_8 1_555 1_555
O10_7 Mn4_4 1_555 1_555
N7_8 Mn4_4 1_555 1_555
N8_8 Mn1_8 1_555 1_555
N9_7 C40_8 1_555 1_555
C30_9 C31_8 1_555 1_555
C31_8 C32_8 1_555 1_555
C32_8 H31_8 1_555 1_555
C33_8 C32_8 1_555 1_555
H32_8 C33_8 1_555 1_555
C34_9 C33_8 1_555 1_555
H33_9 C34_9 1_555 1_555
C35_9 C30_9 1_555 1_555
H34_9 C35_9 1_555 1_555
C36_8 O9_8 1_555 1_555
C37_7 O10_7 1_555 1_555
C38_7 C37_7 1_555 1_555
H35_7 C38_7 1_555 1_555
H36_7 C38_7 1_555 1_555
C39_7 C38_7 1_555 1_555
H37_7 C39_7 1_555 1_555
H38_7 C39_7 1_555 1_555
H39_7 C39_7 1_555 1_555
C40_8 H40_8 1_555 1_555
C41_8 C40_8 1_555 1_555
H41_8 C41_8 1_555 1_555
C42_8 C41_8 1_555 1_555
C43_10 C42_8 1_555 1_555
H42_10 C43_10 1_555 1_555
C44_10 N9_7 1_555 1_555
H43_10 C44_10 1_555 1_555
C45_8 C16_6 1_555 1_555
H44_8 C45_8 1_555 1_555
H45_6 C45_8 1_555 1_555
N11_4 Mn4_4 1_555 1_555
N2_7 C8_6 1_555 1_555
N2_7 Mn2_7 1_555 1_555
C2_7 C7_7 1_555 1_555
C5_7 C6_7 1_555 1_555
C14_6 C15_6 1_555 1_555
N10_3 C24_7 1_555 1_555
C18_9 C23_9 1_555 1_555
C21_8 C22_8 1_555 1_555
N7_8 N8_8 1_555 1_555
N7_8 C36_8 1_555 1_555
N8_8 C37_7 1_555 1_555
C31_8 C36_8 1_555 1_555
C34_9 C35_9 1_555 1_555
C42_8 C45_8 1_555 1_555
C43_10 C44_10 1_555 1_555
C27_7 H46_7 1_555 1_555
O8_10 C30_10 1_555 1_555
H33_10 C34_10 1_555 1_555
C35_10 C30_10 1_555 1_555
H34_10 C35_10 1_555 1_555
C34_10 C35_10 1_555 1_555
O11_6 C23_10 1_555 1_555
C18_10 C17_10 1_555 1_555
C19_9 C18_10 1_555 1_555
H16_9 C19_9 1_555 1_555
C20_9 C19_9 1_555 1_555
H17_9 C20_9 1_555 1_555
C21_9 C20_9 1_555 1_555
H18_9 C21_9 1_555 1_555
C22_9 C17_10 1_555 1_555
H19_9 C22_9 1_555 1_555
H25_10 C28_10 1_555 1_555
H26_10 C28_10 1_555 1_555
H27_10 C28_10 1_555 1_555
N11_4 C40_9 1_555 1_555
C40_9 H40_9 1_555 1_555
C41_9 C40_9 1_555 1_555
H41_9 C41_9 1_555 1_555
C42_9 C41_9 1_555 1_555
C43_11 C42_9 1_555 1_555
H42_11 C43_11 1_555 1_555
C44_11 N11_4 1_555 1_555
H43_11 C44_11 1_555 1_555
H44_9 C45_9 1_555 1_555
C18_10 C23_10 1_555 1_555
C21_9 C22_9 1_555 1_555
C42_9 C45_9 1_555 1_555
C43_11 C44_11 1_555 1_555
Mn1_9 O1_9 1_555 1_555
O3_7 Mn1_9 1_555 1_555
N3_7 Mn1_9 1_555 1_555
C8_7 O3_7 1_555 1_555
C9_7 C8_7 1_555 1_555
H5_7 C9_7 1_555 1_555
H6_7 C9_7 1_555 1_555
C10_7 C9_7 1_555 1_555
H7_7 C10_7 1_555 1_555
H8_7 C10_7 1_555 1_555
H9_7 C10_7 1_555 1_555
C11_7 N3_7 1_555 1_555
H10_7 C11_7 1_555 1_555
C12_7 C11_7 1_555 1_555
H11_7 C12_7 1_555 1_555
C13_7 C12_7 1_555 1_555
C14_7 C13_7 1_555 1_555
H12_7 C14_7 1_555 1_555
C15_7 N3_7 1_555 1_555
H13_9 C15_7 1_555 1_555
C16_7 C13_7 1_555 1_555
H14_7 C16_7 1_555 1_555
H15_7 C16_7 1_555 1_555
H16_10 C19_10 1_555 1_555
C20_10 C19_10 1_555 1_555
H17_10 C20_10 1_555 1_555
C21_10 C20_10 1_555 1_555
H18_10 C21_10 1_555 1_555
H19_10 C22_10 1_555 1_555
Mn4_5 O8_11 1_555 1_555
O8_11 C30_11 1_555 1_555
O9_9 Mn1_9 1_555 1_555
N7_9 Mn4_5 1_555 1_555
N8_9 Mn1_9 1_555 1_555
N9_8 C40_10 1_555 1_555
C30_11 C31_9 1_555 1_555
C31_9 C32_9 1_555 1_555
C32_9 H31_9 1_555 1_555
C33_9 C32_9 1_555 1_555
H32_9 C33_9 1_555 1_555
C34_11 C33_9 1_555 1_555
H33_11 C34_11 1_555 1_555
C35_11 C30_11 1_555 1_555
H34_11 C35_11 1_555 1_555
C36_9 O9_9 1_555 1_555
C40_10 H40_10 1_555 1_555
C41_10 C40_10 1_555 1_555
H41_10 C41_10 1_555 1_555
C42_10 C41_10 1_555 1_555
C43_12 C42_10 1_555 1_555
H42_12 C43_12 1_555 1_555
C44_12 N9_8 1_555 1_555
H43_12 C44_12 1_555 1_555
C45_10 C16_7 1_555 1_555
H44_10 C45_10 1_555 1_555
H45_7 C45_10 1_555 1_555
C14_7 C15_7 1_555 1_555
C21_10 C22_10 1_555 1_555
N7_9 N8_9 1_555 1_555
N7_9 C36_9 1_555 1_555
C31_9 C36_9 1_555 1_555
C34_11 C35_11 1_555 1_555
C42_10 C45_10 1_555 1_555
C43_12 C44_12 1_555 1_555
O2_8 C7_8 1_555 1_555
N2_8 N1_8 1_555 1_555
C1_8 C2_8 1_555 1_555
C2_8 C3_8 1_555 1_555
C3_8 H1_8 1_555 1_555
C4_8 C3_8 1_555 1_555
H2_8 C4_8 1_555 1_555
C5_8 C4_8 1_555 1_555
H3_8 C5_8 1_555 1_555
C6_8 C1_8 1_555 1_555
H4_8 C6_8 1_555 1_555
C7_8 N1_8 1_555 1_555
Mn2_8 O2_8 1_555 1_555
O4_8 Mn2_8 1_555 1_555
O11_5 C23_11 1_555 1_555
O6_8 Mn2_8 1_555 1_555
O7_8 Mn2_8 1_555 1_555
N4_8 Mn2_8 1_555 1_555
N10_4 N4_8 1_555 1_555
N6_8 C27_8 1_555 1_555
C17_11 O4_8 1_555 1_555
C18_11 C17_11 1_555 1_555
C23_11 N4_8 1_555 1_555
C24_8 O6_8 1_555 1_555
C25_9 C24_8 1_555 1_555
H20_9 C25_9 1_555 1_555
H21_9 C25_9 1_555 1_555
C26_8 C25_9 1_555 1_555
H22_8 C26_8 1_555 1_555
H23_9 C26_8 1_555 1_555
H24_8 C26_8 1_555 1_555
C27_8 O7_8 1_555 1_555
C28_11 N6_8 1_555 1_555
H25_11 C28_11 1_555 1_555
H26_11 C28_11 1_555 1_555
H27_11 C28_11 1_555 1_555
C29_8 N6_8 1_555 1_555
H28_8 C29_8 1_555 1_555
H29_8 C29_8 1_555 1_555
H30_8 C29_8 1_555 1_555
C37_8 O10_8 1_555 1_555
C38_8 C37_8 1_555 1_555
H35_8 C38_8 1_555 1_555
H36_8 C38_8 1_555 1_555
C39_8 C38_8 1_555 1_555
H37_8 C39_8 1_555 1_555
H38_8 C39_8 1_555 1_555
H39_8 C39_8 1_555 1_555
N2_8 Mn2_8 1_555 1_555
C2_8 C7_8 1_555 1_555
C5_8 C6_8 1_555 1_555
N10_4 C24_8 1_555 1_555
C18_11 C23_11 1_555 1_555
C27_8 H46_8 1_555 1_555
O8_12 C30_12 1_555 1_555
H33_12 C34_12 1_555 1_555
C35_12 C30_12 1_555 1_555
H34_12 C35_12 1_555 1_555
C34_12 C35_12 1_555 1_555
Mn1_10 O1_10 1_555 1_555
O1_10 C1_9 1_555 1_555
O2_9 C7_9 1_555 1_555
O3_8 Mn1_10 1_555 1_555
N1_9 Mn1_10 1_555 1_555
N2_9 N1_9 1_555 1_555
N3_8 Mn1_10 1_555 1_555
C1_9 C2_9 1_555 1_555
C2_9 C3_9 1_555 1_555
C3_9 H1_9 1_555 1_555
C4_9 C3_9 1_555 1_555
H2_9 C4_9 1_555 1_555
C5_9 C4_9 1_555 1_555
H3_9 C5_9 1_555 1_555
C6_9 C1_9 1_555 1_555
H4_9 C6_9 1_555 1_555
C7_9 N1_9 1_555 1_555
C8_8 O3_8 1_555 1_555
C9_8 C8_8 1_555 1_555
H5_8 C9_8 1_555 1_555
H6_8 C9_8 1_555 1_555
C10_8 C9_8 1_555 1_555
H7_8 C10_8 1_555 1_555
H8_8 C10_8 1_555 1_555
H9_8 C10_8 1_555 1_555
C11_8 N3_8 1_555 1_555
H10_8 C11_8 1_555 1_555
C12_8 C11_8 1_555 1_555
H11_8 C12_8 1_555 1_555
C13_8 C12_8 1_555 1_555
C14_8 C13_8 1_555 1_555
H12_8 C14_8 1_555 1_555
C15_8 N3_8 1_555 1_555
H13_10 C15_8 1_555 1_555
C16_8 C13_8 1_555 1_555
H14_8 C16_8 1_555 1_555
H15_8 C16_8 1_555 1_555
Mn2_9 O2_9 1_555 1_555
O4_9 Mn2_9 1_555 1_555
O5_7 C23_12 1_555 1_555
O6_9 Mn2_9 1_555 1_555
O7_9 Mn2_9 1_555 1_555
N4_9 Mn2_9 1_555 1_555
N5_5 N4_9 1_555 1_555
N6_9 C27_9 1_555 1_555
C17_12 O4_9 1_555 1_555
C18_12 C17_12 1_555 1_555
C19_11 C18_12 1_555 1_555
H16_11 C19_11 1_555 1_555
C20_11 C19_11 1_555 1_555
H17_11 C20_11 1_555 1_555
C21_11 C20_11 1_555 1_555
H18_11 C21_11 1_555 1_555
C22_11 C17_12 1_555 1_555
H19_11 C22_11 1_555 1_555
C23_12 N4_9 1_555 1_555
C24_9 O6_9 1_555 1_555
C25_10 C24_9 1_555 1_555
H20_10 C25_10 1_555 1_555
H21_10 C25_10 1_555 1_555
C26_9 C25_10 1_555 1_555
H22_9 C26_9 1_555 1_555
H23_10 C26_9 1_555 1_555
H24_9 C26_9 1_555 1_555
C27_9 O7_9 1_555 1_555
C28_12 N6_9 1_555 1_555
H25_12 C28_12 1_555 1_555
H26_12 C28_12 1_555 1_555
H27_12 C28_12 1_555 1_555
C29_9 N6_9 1_555 1_555
H28_9 C29_9 1_555 1_555
H29_9 C29_9 1_555 1_555
H30_9 C29_9 1_555 1_555
O9_10 Mn1_10 1_555 1_555
O10_9 Mn5_3 1_555 1_555
N7_10 Mn5_3 1_555 1_555
N8_10 Mn1_10 1_555 1_555
N9_9 C40_11 1_555 1_555
C31_10 C32_10 1_555 1_555
C32_10 H31_10 1_555 1_555
C33_10 C32_10 1_555 1_555
H32_10 C33_10 1_555 1_555
C36_10 O9_10 1_555 1_555
C37_9 O10_9 1_555 1_555
C38_9 C37_9 1_555 1_555
H35_9 C38_9 1_555 1_555
H36_9 C38_9 1_555 1_555
C39_9 C38_9 1_555 1_555
H37_9 C39_9 1_555 1_555
H38_9 C39_9 1_555 1_555
H39_9 C39_9 1_555 1_555
C40_11 H40_11 1_555 1_555
C41_11 C40_11 1_555 1_555
H41_11 C41_11 1_555 1_555
C42_11 C41_11 1_555 1_555
C43_13 C42_11 1_555 1_555
H42_13 C43_13 1_555 1_555
C44_13 N9_9 1_555 1_555
H43_13 C44_13 1_555 1_555
C45_11 C16_8 1_555 1_555
H44_11 C45_11 1_555 1_555
H45_8 C45_11 1_555 1_555
N10_5 Mn5_3 1_555 1_555
Mn4_6 O5_7 1_555 1_555
Mn5_4 N9_9 1_555 1_555
N2_9 C8_8 1_555 1_555
N2_9 Mn2_9 1_555 1_555
C2_9 C7_9 1_555 1_555
C5_9 C6_9 1_555 1_555
C14_8 C15_8 1_555 1_555
N5_5 C24_9 1_555 1_555
N5_5 Mn4_6 1_555 1_555
C18_12 C23_12 1_555 1_555
C21_11 C22_11 1_555 1_555
N7_10 N8_10 1_555 1_555
N7_10 C36_10 1_555 1_555
N8_10 C37_9 1_555 1_555
C31_10 C36_10 1_555 1_555
C42_11 C45_11 1_555 1_555
C43_13 C44_13 1_555 1_555
C27_9 H46_9 1_555 1_555
Mn1_11 O1_11 1_555 1_555
O1_11 C1_10 1_555 1_555
H3_10 C5_10 1_555 1_555
C6_10 C1_10 1_555 1_555
H4_10 C6_10 1_555 1_555
Mn5_4 O8_13 1_555 1_555
O8_13 C30_13 1_555 1_555
O9_11 Mn1_11 1_555 1_555
O10_10 Mn5_4 1_555 1_555
N7_11 Mn5_4 1_555 1_555
N8_11 Mn1_11 1_555 1_555
C30_13 C31_11 1_555 1_555
C31_11 C32_11 1_555 1_555
C32_11 H31_11 1_555 1_555
C33_11 C32_11 1_555 1_555
H32_11 C33_11 1_555 1_555
C34_13 C33_11 1_555 1_555
H33_13 C34_13 1_555 1_555
C35_13 C30_13 1_555 1_555
H34_13 C35_13 1_555 1_555
C36_11 O9_11 1_555 1_555
C37_10 O10_10 1_555 1_555
C38_10 C37_10 1_555 1_555
H35_10 C38_10 1_555 1_555
H36_10 C38_10 1_555 1_555
C39_10 C38_10 1_555 1_555
H37_10 C39_10 1_555 1_555
H38_10 C39_10 1_555 1_555
H39_10 C39_10 1_555 1_555
O11_7 Mn5_4 1_555 1_555
C5_10 C6_10 1_555 1_555
N7_11 N8_11 1_555 1_555
N7_11 C36_11 1_555 1_555
N8_11 C37_10 1_555 1_555
C31_11 C36_11 1_555 1_555
C34_13 C35_13 1_555 1_555
C8_9 O3_9 1_555 1_555
C9_9 C8_9 1_555 1_555
H5_9 C9_9 1_555 1_555
H6_9 C9_9 1_555 1_555
C10_9 C9_9 1_555 1_555
H7_9 C10_9 1_555 1_555
H8_9 C10_9 1_555 1_555
H9_9 C10_9 1_555 1_555
C11_9 N3_9 1_555 1_555
H10_9 C11_9 1_555 1_555
C12_9 C11_9 1_555 1_555
H11_9 C12_9 1_555 1_555
C13_9 C12_9 1_555 1_555
C14_9 C13_9 1_555 1_555
H12_9 C14_9 1_555 1_555
C15_9 N3_9 1_555 1_555
C16_9 C13_9 1_555 1_555
H14_9 C16_9 1_555 1_555
H15_9 C16_9 1_555 1_555
H16_12 C19_12 1_555 1_555
C20_12 C19_12 1_555 1_555
H17_12 C20_12 1_555 1_555
C21_12 C20_12 1_555 1_555
H18_12 C21_12 1_555 1_555
H19_12 C22_12 1_555 1_555
N9_10 C40_12 1_555 1_555
C40_12 H40_12 1_555 1_555
C41_12 C40_12 1_555 1_555
H41_12 C41_12 1_555 1_555
C42_12 C41_12 1_555 1_555
C43_14 C42_12 1_555 1_555
H42_14 C43_14 1_555 1_555
C44_14 N9_10 1_555 1_555
H43_14 C44_14 1_555 1_555
C45_12 C16_9 1_555 1_555
H44_12 C45_12 1_555 1_555
H45_9 C45_12 1_555 1_555
Mn4_6 N9_10 1_555 1_555
C14_9 C15_9 1_555 1_555
C21_12 C22_12 1_555 1_555
C42_12 C45_12 1_555 1_555
C43_14 C44_14 1_555 1_555
Mn1_12 O1_12 1_555 1_555
O1_12 C1_11 1_555 1_555
O2_10 C7_10 1_555 1_555
O3_10 Mn1_12 1_555 1_555
N1_10 Mn1_12 1_555 1_555
N2_10 N1_10 1_555 1_555
N3_10 Mn1_12 1_555 1_555
C1_11 C2_10 1_555 1_555
C2_10 C3_10 1_555 1_555
C3_10 H1_10 1_555 1_555
C4_10 C3_10 1_555 1_555
H2_10 C4_10 1_555 1_555
C5_11 C4_10 1_555 1_555
H3_11 C5_11 1_555 1_555
C6_11 C1_11 1_555 1_555
H4_11 C6_11 1_555 1_555
C7_10 N1_10 1_555 1_555
C8_10 O3_10 1_555 1_555
C9_10 C8_10 1_555 1_555
H5_10 C9_10 1_555 1_555
H6_10 C9_10 1_555 1_555
C10_10 C9_10 1_555 1_555
H7_10 C10_10 1_555 1_555
H8_10 C10_10 1_555 1_555
H9_10 C10_10 1_555 1_555
C11_10 N3_10 1_555 1_555
H10_10 C11_10 1_555 1_555
C12_10 C11_10 1_555 1_555
H11_10 C12_10 1_555 1_555
C13_10 C12_10 1_555 1_555
C14_10 C13_10 1_555 1_555
H12_10 C14_10 1_555 1_555
C15_10 N3_10 1_555 1_555
H13_12 C15_10 1_555 1_555
C16_10 C13_10 1_555 1_555
H14_10 C16_10 1_555 1_555
H15_10 C16_10 1_555 1_555
Mn2_10 O2_10 1_555 1_555
O4_10 Mn2_10 1_555 1_555
O6_10 Mn2_10 1_555 1_555
O7_10 Mn2_10 1_555 1_555
N4_10 Mn2_10 1_555 1_555
N10_5 N4_10 1_555 1_555
N6_10 C27_10 1_555 1_555
C24_10 O6_10 1_555 1_555
C25_11 C24_10 1_555 1_555
H20_11 C25_11 1_555 1_555
H21_11 C25_11 1_555 1_555
C26_10 C25_11 1_555 1_555
H22_11 C26_10 1_555 1_555
H23_11 C26_10 1_555 1_555
H24_10 C26_10 1_555 1_555
C27_10 O7_10 1_555 1_555
C29_10 N6_10 1_555 1_555
H28_10 C29_10 1_555 1_555
H29_10 C29_10 1_555 1_555
H30_10 C29_10 1_555 1_555
Mn4_6 O8_14 1_555 1_555
O8_14 C30_14 1_555 1_555
O9_12 Mn1_12 1_555 1_555
O10_11 Mn4_6 1_555 1_555
N7_12 Mn4_6 1_555 1_555
N8_12 Mn1_12 1_555 1_555
C30_14 C31_12 1_555 1_555
C31_12 C32_12 1_555 1_555
C32_12 H31_12 1_555 1_555
C33_12 C32_12 1_555 1_555
H32_12 C33_12 1_555 1_555
C34_14 C33_12 1_555 1_555
H33_14 C34_14 1_555 1_555
C35_14 C30_14 1_555 1_555
H34_14 C35_14 1_555 1_555
C36_12 O9_12 1_555 1_555
C37_11 O10_11 1_555 1_555
C38_11 C37_11 1_555 1_555
H35_11 C38_11 1_555 1_555
H36_11 C38_11 1_555 1_555
C39_11 C38_11 1_555 1_555
H37_11 C39_11 1_555 1_555
H38_11 C39_11 1_555 1_555
H39_11 C39_11 1_555 1_555
N2_10 C8_10 1_555 1_555
N2_10 Mn2_10 1_555 1_555
C2_10 C7_10 1_555 1_555
C5_11 C6_11 1_555 1_555
C14_10 C15_10 1_555 1_555
N10_5 C24_10 1_555 1_555
N7_12 N8_12 1_555 1_555
N7_12 C36_12 1_555 1_555
N8_12 C37_11 1_555 1_555
C31_12 C36_12 1_555 1_555
C34_14 C35_14 1_555 1_555
C27_10 H46_10 1_555 1_555
H20_12 C25_12 1_555 1_555
H21_12 C25_12 1_555 1_555
Mn1_13 O1_13 1_555 1_555
O1_13 C1_12 1_555 1_555
O2_11 C7_11 1_555 1_555
O3_11 Mn1_13 1_555 1_555
N1_11 Mn1_13 1_555 1_555
N2_11 N1_11 1_555 1_555
N3_11 Mn1_13 1_555 1_555
C1_12 C2_11 1_555 1_555
C2_11 C3_11 1_555 1_555
C3_11 H1_11 1_555 1_555
C4_11 C3_11 1_555 1_555
H2_11 C4_11 1_555 1_555
C5_12 C4_11 1_555 1_555
H3_12 C5_12 1_555 1_555
C6_12 C1_12 1_555 1_555
H4_12 C6_12 1_555 1_555
C7_11 N1_11 1_555 1_555
C8_11 O3_11 1_555 1_555
C9_11 C8_11 1_555 1_555
H5_11 C9_11 1_555 1_555
H6_11 C9_11 1_555 1_555
C10_11 C9_11 1_555 1_555
H7_11 C10_11 1_555 1_555
H8_11 C10_11 1_555 1_555
H9_11 C10_11 1_555 1_555
C11_11 N3_11 1_555 1_555
H10_11 C11_11 1_555 1_555
C12_11 C11_11 1_555 1_555
H11_11 C12_11 1_555 1_555
C13_11 C12_11 1_555 1_555
C14_11 C13_11 1_555 1_555
H12_11 C14_11 1_555 1_555
C15_11 N3_11 1_555 1_555
H13_13 C15_11 1_555 1_555
C16_11 C13_11 1_555 1_555
H14_11 C16_11 1_555 1_555
H15_11 C16_11 1_555 1_555
Mn2_11 O2_11 1_555 1_555
O4_11 Mn2_11 1_555 1_555
O6_11 Mn2_11 1_555 1_555
O7_11 Mn2_11 1_555 1_555
N4_11 Mn2_11 1_555 1_555
N5_6 N4_11 1_555 1_555
N6_11 C27_11 1_555 1_555
C24_11 O6_11 1_555 1_555
C25_13 C24_11 1_555 1_555
H20_13 C25_13 1_555 1_555
H21_13 C25_13 1_555 1_555
C26_11 C25_13 1_555 1_555
H22_12 C26_11 1_555 1_555
H23_13 C26_11 1_555 1_555
H24_11 C26_11 1_555 1_555
C27_11 O7_11 1_555 1_555
C29_11 N6_11 1_555 1_555
H28_11 C29_11 1_555 1_555
H29_11 C29_11 1_555 1_555
H30_11 C29_11 1_555 1_555
Mn3_3 O8_15 1_555 1_555
O8_15 C30_15 1_555 1_555
O9_13 Mn1_13 1_555 1_555
O10_12 Mn3_3 1_555 1_555
N7_13 Mn3_3 1_555 1_555
N8_13 Mn1_13 1_555 1_555
C30_15 C31_13 1_555 1_555
C31_13 C32_13 1_555 1_555
C32_13 H31_13 1_555 1_555
C33_13 C32_13 1_555 1_555
H32_13 C33_13 1_555 1_555
C34_15 C33_13 1_555 1_555
H33_15 C34_15 1_555 1_555
C35_15 C30_15 1_555 1_555
H34_15 C35_15 1_555 1_555
C36_13 O9_13 1_555 1_555
C37_12 O10_12 1_555 1_555
C38_12 C37_12 1_555 1_555
H35_12 C38_12 1_555 1_555
H36_12 C38_12 1_555 1_555
C39_12 C38_12 1_555 1_555
H37_12 C39_12 1_555 1_555
H38_12 C39_12 1_555 1_555
H39_12 C39_12 1_555 1_555
O11_8 Mn3_3 1_555 1_555
N10_6 Mn3_3 1_555 1_555
N11_5 Mn3_3 1_555 1_555
N2_11 C8_11 1_555 1_555
N2_11 Mn2_11 1_555 1_555
C2_11 C7_11 1_555 1_555
C5_12 C6_12 1_555 1_555
C14_11 C15_11 1_555 1_555
N5_6 C24_11 1_555 1_555
N5_6 Mn4_7 1_555 1_555
N7_13 N8_13 1_555 1_555
N7_13 C36_13 1_555 1_555
N8_13 C37_12 1_555 1_555
C31_13 C36_13 1_555 1_555
C34_15 C35_15 1_555 1_555
C27_11 H46_11 1_555 1_555
O2_12 C7_12 1_555 1_555
N2_12 N1_12 1_555 1_555
C2_12 C3_12 1_555 1_555
C3_12 H1_12 1_555 1_555
C4_12 C3_12 1_555 1_555
H2_12 C4_12 1_555 1_555
C7_12 N1_12 1_555 1_555
C8_12 O3_12 1_555 1_555
C9_12 C8_12 1_555 1_555
H5_12 C9_12 1_555 1_555
H6_12 C9_12 1_555 1_555
C10_12 C9_12 1_555 1_555
H7_12 C10_12 1_555 1_555
H8_12 C10_12 1_555 1_555
H9_12 C10_12 1_555 1_555
C11_12 N3_12 1_555 1_555
H10_12 C11_12 1_555 1_555
C12_12 C11_12 1_555 1_555
H11_12 C12_12 1_555 1_555
C13_12 C12_12 1_555 1_555
C14_12 C13_12 1_555 1_555
H12_12 C14_12 1_555 1_555
C15_12 N3_12 1_555 1_555
C16_12 C13_12 1_555 1_555
H14_12 C16_12 1_555 1_555
H15_12 C16_12 1_555 1_555
Mn2_12 O2_12 1_555 1_555
O4_12 Mn2_12 1_555 1_555
O6_12 Mn2_12 1_555 1_555
O7_12 Mn2_12 1_555 1_555
N4_12 Mn2_12 1_555 1_555
N5_7 N4_12 1_555 1_555
N6_12 C27_12 1_555 1_555
C17_13 O4_12 1_555 1_555
C18_13 C17_13 1_555 1_555
C19_13 C18_13 1_555 1_555
H16_13 C19_13 1_555 1_555
C20_13 C19_13 1_555 1_555
H17_13 C20_13 1_555 1_555
C21_13 C20_13 1_555 1_555
H18_13 C21_13 1_555 1_555
C22_13 C17_13 1_555 1_555
H19_13 C22_13 1_555 1_555
C23_13 N4_12 1_555 1_555
C24_12 O6_12 1_555 1_555
H24_12 C26_12 1_555 1_555
C27_12 O7_12 1_555 1_555
C28_13 N6_12 1_555 1_555
H25_13 C28_13 1_555 1_555
H26_13 C28_13 1_555 1_555
H27_13 C28_13 1_555 1_555
C29_12 N6_12 1_555 1_555
H28_12 C29_12 1_555 1_555
H29_12 C29_12 1_555 1_555
H30_12 C29_12 1_555 1_555
N11_5 C40_13 1_555 1_555
C40_13 H40_13 1_555 1_555
C41_13 C40_13 1_555 1_555
H41_13 C41_13 1_555 1_555
C42_13 C41_13 1_555 1_555
C43_15 C42_13 1_555 1_555
H42_15 C43_15 1_555 1_555
C44_15 N11_5 1_555 1_555
H43_15 C44_15 1_555 1_555
C45_13 C16_12 1_555 1_555
H44_13 C45_13 1_555 1_555
H45_12 C45_13 1_555 1_555
N2_12 C8_12 1_555 1_555
N2_12 Mn2_12 1_555 1_555
C2_12 C7_12 1_555 1_555
C14_12 C15_12 1_555 1_555
N5_7 C24_12 1_555 1_555
C18_13 C23_13 1_555 1_555
C21_13 C22_13 1_555 1_555
C42_13 C45_13 1_555 1_555
C43_15 C44_15 1_555 1_555
C27_12 H46_12 1_555 1_555
Mn1_14 O1_14 1_555 1_555
O1_14 C1_13 1_555 1_555
O2_13 C7_13 1_555 1_555
O3_13 Mn1_14 1_555 1_555
N1_13 Mn1_14 1_555 1_555
N2_13 N1_13 1_555 1_555
N3_13 Mn1_14 1_555 1_555
C1_13 C2_13 1_555 1_555
C2_13 C3_13 1_555 1_555
C3_13 H1_13 1_555 1_555
C4_13 C3_13 1_555 1_555
H2_13 C4_13 1_555 1_555
C5_13 C4_13 1_555 1_555
H3_13 C5_13 1_555 1_555
C6_13 C1_13 1_555 1_555
H4_13 C6_13 1_555 1_555
C7_13 N1_13 1_555 1_555
C8_13 O3_13 1_555 1_555
C9_13 C8_13 1_555 1_555
H5_13 C9_13 1_555 1_555
H6_13 C9_13 1_555 1_555
C10_13 C9_13 1_555 1_555
H7_13 C10_13 1_555 1_555
H8_13 C10_13 1_555 1_555
H9_13 C10_13 1_555 1_555
C11_13 N3_13 1_555 1_555
H10_13 C11_13 1_555 1_555
C12_13 C11_13 1_555 1_555
H11_13 C12_13 1_555 1_555
C13_13 C12_13 1_555 1_555
C14_13 C13_13 1_555 1_555
H12_13 C14_13 1_555 1_555
C15_13 N3_13 1_555 1_555
H13_14 C15_13 1_555 1_555
C16_13 C13_13 1_555 1_555
H14_13 C16_13 1_555 1_555
H15_13 C16_13 1_555 1_555
Mn2_13 O2_13 1_555 1_555
O4_13 Mn2_13 1_555 1_555
O11_8 C23_14 1_555 1_555
O6_13 Mn2_13 1_555 1_555
O7_13 Mn2_13 1_555 1_555
N4_13 Mn2_13 1_555 1_555
N10_6 N4_13 1_555 1_555
N6_13 C27_13 1_555 1_555
C17_14 O4_13 1_555 1_555
C18_14 C17_14 1_555 1_555
C19_14 C18_14 1_555 1_555
H16_14 C19_14 1_555 1_555
C20_14 C19_14 1_555 1_555
H17_14 C20_14 1_555 1_555
C21_14 C20_14 1_555 1_555
H18_14 C21_14 1_555 1_555
C22_14 C17_14 1_555 1_555
H19_14 C22_14 1_555 1_555
C23_14 N4_13 1_555 1_555
C24_13 O6_13 1_555 1_555
C25_14 C24_13 1_555 1_555
H20_14 C25_14 1_555 1_555
H21_14 C25_14 1_555 1_555
C26_13 C25_14 1_555 1_555
H22_13 C26_13 1_555 1_555
H23_14 C26_13 1_555 1_555
H24_13 C26_13 1_555 1_555
C27_13 O7_13 1_555 1_555
C28_14 N6_13 1_555 1_555
H25_14 C28_14 1_555 1_555
H26_14 C28_14 1_555 1_555
H27_14 C28_14 1_555 1_555
C29_13 N6_13 1_555 1_555
H28_13 C29_13 1_555 1_555
H29_13 C29_13 1_555 1_555
H30_13 C29_13 1_555 1_555
O9_14 Mn1_14 1_555 1_555
O10_13 Mn4_7 1_555 1_555
N7_14 Mn4_7 1_555 1_555
N8_14 Mn1_14 1_555 1_555
C31_14 C32_14 1_555 1_555
C32_14 H31_14 1_555 1_555
C33_14 C32_14 1_555 1_555
H32_14 C33_14 1_555 1_555
C36_14 O9_14 1_555 1_555
C37_13 O10_13 1_555 1_555
C38_13 C37_13 1_555 1_555
H35_13 C38_13 1_555 1_555
H36_13 C38_13 1_555 1_555
C39_13 C38_13 1_555 1_555
H37_13 C39_13 1_555 1_555
H38_13 C39_13 1_555 1_555
H39_13 C39_13 1_555 1_555
C40_14 H40_14 1_555 1_555
C41_14 C40_14 1_555 1_555
H41_14 C41_14 1_555 1_555
C42_14 C41_14 1_555 1_555
C45_14 C16_13 1_555 1_555
H44_14 C45_14 1_555 1_555
H45_13 C45_14 1_555 1_555
N2_13 C8_13 1_555 1_555
N2_13 Mn2_13 1_555 1_555
C2_13 C7_13 1_555 1_555
C5_13 C6_13 1_555 1_555
C14_13 C15_13 1_555 1_555
N10_6 C24_13 1_555 1_555
C18_14 C23_14 1_555 1_555
C21_14 C22_14 1_555 1_555
N7_14 N8_14 1_555 1_555
N7_14 C36_14 1_555 1_555
N8_14 C37_13 1_555 1_555
C31_14 C36_14 1_555 1_555
C42_14 C45_14 1_555 1_555
C27_13 H46_13 1_555 1_555
Mn1_15 O1_15 1_555 1_555
O1_15 C1_14 1_555 1_555
O2_14 C7_14 1_555 1_555
O3_14 Mn1_15 1_555 1_555
N1_14 Mn1_15 1_555 1_555
N2_14 N1_14 1_555 1_555
N3_14 Mn1_15 1_555 1_555
C1_14 C2_14 1_555 1_555
C2_14 C3_14 1_555 1_555
C3_14 H1_14 1_555 1_555
C4_14 C3_14 1_555 1_555
H2_14 C4_14 1_555 1_555
C5_14 C4_14 1_555 1_555
H3_14 C5_14 1_555 1_555
C6_14 C1_14 1_555 1_555
H4_14 C6_14 1_555 1_555
C7_14 N1_14 1_555 1_555
C8_14 O3_14 1_555 1_555
C9_14 C8_14 1_555 1_555
H5_14 C9_14 1_555 1_555
H6_14 C9_14 1_555 1_555
C10_14 C9_14 1_555 1_555
H7_14 C10_14 1_555 1_555
H8_14 C10_14 1_555 1_555
H9_14 C10_14 1_555 1_555
C11_14 N3_14 1_555 1_555
H10_14 C11_14 1_555 1_555
C12_14 C11_14 1_555 1_555
H11_14 C12_14 1_555 1_555
C13_14 C12_14 1_555 1_555
C14_14 C13_14 1_555 1_555
H12_14 C14_14 1_555 1_555
C15_14 N3_14 1_555 1_555
H13_15 C15_14 1_555 1_555
C16_14 C13_14 1_555 1_555
H14_14 C16_14 1_555 1_555
H15_14 C16_14 1_555 1_555
Mn2_14 O2_14 1_555 1_555
O4_14 Mn2_14 1_555 1_555
O5_8 C23_15 1_555 1_555
O6_14 Mn2_14 1_555 1_555
O7_14 Mn2_14 1_555 1_555
N4_14 Mn2_14 1_555 1_555
N5_8 N4_14 1_555 1_555
N6_14 C27_14 1_555 1_555
C17_15 O4_14 1_555 1_555
C18_15 C17_15 1_555 1_555
C19_15 C18_15 1_555 1_555
H16_15 C19_15 1_555 1_555
C20_15 C19_15 1_555 1_555
H17_15 C20_15 1_555 1_555
C21_15 C20_15 1_555 1_555
H18_15 C21_15 1_555 1_555
C22_15 C17_15 1_555 1_555
H19_15 C22_15 1_555 1_555
C23_15 N4_14 1_555 1_555
C24_14 O6_14 1_555 1_555
C25_15 C24_14 1_555 1_555
H20_15 C25_15 1_555 1_555
H21_15 C25_15 1_555 1_555
C26_14 C25_15 1_555 1_555
H22_14 C26_14 1_555 1_555
H23_15 C26_14 1_555 1_555
H24_14 C26_14 1_555 1_555
C27_14 O7_14 1_555 1_555
C28_15 N6_14 1_555 1_555
H25_15 C28_15 1_555 1_555
H26_15 C28_15 1_555 1_555
H27_15 C28_15 1_555 1_555
C29_14 N6_14 1_555 1_555
H28_14 C29_14 1_555 1_555
H29_14 C29_14 1_555 1_555
H30_14 C29_14 1_555 1_555
O9_15 Mn1_15 1_555 1_555
O10_14 Mn5_5 1_555 1_555
N7_15 Mn5_5 1_555 1_555
N8_15 Mn1_15 1_555 1_555
C31_15 C32_15 1_555 1_555
C32_15 H31_15 1_555 1_555
C33_15 C32_15 1_555 1_555
H32_15 C33_15 1_555 1_555
C36_15 O9_15 1_555 1_555
C37_14 O10_14 1_555 1_555
C38_14 C37_14 1_555 1_555
H35_14 C38_14 1_555 1_555
H36_14 C38_14 1_555 1_555
C39_14 C38_14 1_555 1_555
H37_14 C39_14 1_555 1_555
H38_14 C39_14 1_555 1_555
H39_14 C39_14 1_555 1_555
C40_15 H40_15 1_555 1_555
C41_15 C40_15 1_555 1_555
H41_15 C41_15 1_555 1_555
C42_15 C41_15 1_555 1_555
C45_15 C16_14 1_555 1_555
H44_15 C45_15 1_555 1_555
H45_14 C45_15 1_555 1_555
N10_7 Mn5_5 1_555 1_555
Mn4_8 O5_8 1_555 1_555
N2_14 C8_14 1_555 1_555
N2_14 Mn2_14 1_555 1_555
C2_14 C7_14 1_555 1_555
C5_14 C6_14 1_555 1_555
C14_14 C15_14 1_555 1_555
N5_8 C24_14 1_555 1_555
N5_8 Mn4_8 1_555 1_555
C18_15 C23_15 1_555 1_555
C21_15 C22_15 1_555 1_555
N7_15 N8_15 1_555 1_555
N7_15 C36_15 1_555 1_555
N8_15 C37_14 1_555 1_555
C31_15 C36_15 1_555 1_555
C42_15 C45_15 1_555 1_555
C27_14 H46_14 1_555 1_555
Mn1_16 O1_16 1_555 1_555
O1_16 C1_15 1_555 1_555
O2_15 C7_15 1_555 1_555
O3_15 Mn1_16 1_555 1_555
N1_15 Mn1_16 1_555 1_555
N2_15 N1_15 1_555 1_555
N3_15 Mn1_16 1_555 1_555
C1_15 C2_15 1_555 1_555
C2_15 C3_15 1_555 1_555
C3_15 H1_15 1_555 1_555
C4_15 C3_15 1_555 1_555
H2_15 C4_15 1_555 1_555
C5_15 C4_15 1_555 1_555
H3_15 C5_15 1_555 1_555
C6_15 C1_15 1_555 1_555
H4_15 C6_15 1_555 1_555
C7_15 N1_15 1_555 1_555
C8_15 O3_15 1_555 1_555
C9_15 C8_15 1_555 1_555
H5_15 C9_15 1_555 1_555
H6_15 C9_15 1_555 1_555
C10_15 C9_15 1_555 1_555
H7_15 C10_15 1_555 1_555
H8_15 C10_15 1_555 1_555
H9_15 C10_15 1_555 1_555
C11_15 N3_15 1_555 1_555
H10_15 C11_15 1_555 1_555
C12_15 C11_15 1_555 1_555
H11_15 C12_15 1_555 1_555
C13_15 C12_15 1_555 1_555
C14_15 C13_15 1_555 1_555
H12_15 C14_15 1_555 1_555
C15_15 N3_15 1_555 1_555
H13_16 C15_15 1_555 1_555
C16_15 C13_15 1_555 1_555
H14_15 C16_15 1_555 1_555
H15_15 C16_15 1_555 1_555
Mn2_15 O2_15 1_555 1_555
O4_15 Mn2_15 1_555 1_555
O6_15 Mn2_15 1_555 1_555
O7_15 Mn2_15 1_555 1_555
N4_15 Mn2_15 1_555 1_555
N10_7 N4_15 1_555 1_555
N6_15 C27_15 1_555 1_555
C24_15 O6_15 1_555 1_555
C25_16 C24_15 1_555 1_555
H20_16 C25_16 1_555 1_555
H21_16 C25_16 1_555 1_555
C26_15 C25_16 1_555 1_555
H22_15 C26_15 1_555 1_555
H23_16 C26_15 1_555 1_555
H24_15 C26_15 1_555 1_555
C27_15 O7_15 1_555 1_555
C29_15 N6_15 1_555 1_555
H28_15 C29_15 1_555 1_555
H29_15 C29_15 1_555 1_555
H30_15 C29_15 1_555 1_555
Mn4_8 O8_16 1_555 1_555
O8_16 C30_16 1_555 1_555
O9_16 Mn1_16 1_555 1_555
O10_15 Mn4_8 1_555 1_555
N7_16 Mn4_8 1_555 1_555
N8_16 Mn1_16 1_555 1_555
C30_16 C31_16 1_555 1_555
C31_16 C32_16 1_555 1_555
C32_16 H31_16 1_555 1_555
C33_16 C32_16 1_555 1_555
H32_16 C33_16 1_555 1_555
C34_16 C33_16 1_555 1_555
H33_16 C34_16 1_555 1_555
C35_16 C30_16 1_555 1_555
H34_16 C35_16 1_555 1_555
C36_16 O9_16 1_555 1_555
C37_15 O10_15 1_555 1_555
C38_15 C37_15 1_555 1_555
H35_15 C38_15 1_555 1_555
H36_15 C38_15 1_555 1_555
C39_15 C38_15 1_555 1_555
H37_15 C39_15 1_555 1_555
H38_15 C39_15 1_555 1_555
H39_15 C39_15 1_555 1_555
N11_6 Mn4_8 1_555 1_555
N2_15 C8_15 1_555 1_555
N2_15 Mn2_15 1_555 1_555
C2_15 C7_15 1_555 1_555
C5_15 C6_15 1_555 1_555
C14_15 C15_15 1_555 1_555
N10_7 C24_15 1_555 1_555
N7_16 N8_16 1_555 1_555
N7_16 C36_16 1_555 1_555
N8_16 C37_15 1_555 1_555
C31_16 C36_16 1_555 1_555
C34_16 C35_16 1_555 1_555
C27_15 H46_15 1_555 1_555
O2_16 C7_16 1_555 1_555
N2_16 N1_16 1_555 1_555
C2_16 C3_16 1_555 1_555
C3_16 H1_16 1_555 1_555
C4_16 C3_16 1_555 1_555
H2_16 C4_16 1_555 1_555
C7_16 N1_16 1_555 1_555
C8_16 O3_16 1_555 1_555
C9_16 C8_16 1_555 1_555
H5_16 C9_16 1_555 1_555
H6_16 C9_16 1_555 1_555
C10_16 C9_16 1_555 1_555
H7_16 C10_16 1_555 1_555
H8_16 C10_16 1_555 1_555
H9_16 C10_16 1_555 1_555
C11_16 N3_16 1_555 1_555
H10_16 C11_16 1_555 1_555
C12_16 C11_16 1_555 1_555
H11_16 C12_16 1_555 1_555
C13_16 C12_16 1_555 1_555
C14_16 C13_16 1_555 1_555
H12_16 C14_16 1_555 1_555
C15_16 N3_16 1_555 1_555
C16_16 C13_16 1_555 1_555
H14_16 C16_16 1_555 1_555
H15_16 C16_16 1_555 1_555
Mn2_16 O2_16 1_555 1_555
O4_16 Mn2_16 1_555 1_555
O6_16 Mn2_16 1_555 1_555
O7_16 Mn2_16 1_555 1_555
N4_16 Mn2_16 1_555 1_555
N10_8 N4_16 1_555 1_555
N6_16 C27_16 1_555 1_555
C17_16 O4_16 1_555 1_555
C18_16 C17_16 1_555 1_555
C19_16 C18_16 1_555 1_555
H16_16 C19_16 1_555 1_555
C20_16 C19_16 1_555 1_555
H17_16 C20_16 1_555 1_555
C21_16 C20_16 1_555 1_555
H18_16 C21_16 1_555 1_555
C22_16 C17_16 1_555 1_555
H19_16 C22_16 1_555 1_555
C23_16 N4_16 1_555 1_555
C24_16 O6_16 1_555 1_555
H24_16 C26_16 1_555 1_555
C27_16 O7_16 1_555 1_555
C28_16 N6_16 1_555 1_555
H25_16 C28_16 1_555 1_555
H26_16 C28_16 1_555 1_555
H27_16 C28_16 1_555 1_555
C29_16 N6_16 1_555 1_555
H28_16 C29_16 1_555 1_555
H29_16 C29_16 1_555 1_555
H30_16 C29_16 1_555 1_555
N11_6 C40_16 1_555 1_555
C40_16 H40_16 1_555 1_555
C41_16 C40_16 1_555 1_555
H41_16 C41_16 1_555 1_555
C42_16 C41_16 1_555 1_555
C43_16 C42_16 1_555 1_555
H42_16 C43_16 1_555 1_555
C44_16 N11_6 1_555 1_555
H43_16 C44_16 1_555 1_555
C45_16 C16_16 1_555 1_555
H44_16 C45_16 1_555 1_555
H45_16 C45_16 1_555 1_555
N2_16 C8_16 1_555 1_555
N2_16 Mn2_16 1_555 1_555
C2_16 C7_16 1_555 1_555
C14_16 C15_16 1_555 1_555
N10_8 C24_16 1_555 1_555
C18_16 C23_16 1_555 1_555
C21_16 C22_16 1_555 1_555
C42_16 C45_16 1_555 1_555
C43_16 C44_16 1_555 1_555
C27_16 H46_16 1_555 1_555
H3_16 C5_16 1_555 1_555
C6_16 C1_16 1_555 1_555
H4_16 C6_16 1_555 1_555
C37_16 O10_16 1_555 1_555
C38_16 C37_16 1_555 1_555
H35_16 C38_16 1_555 1_555
H36_16 C38_16 1_555 1_555
C39_16 C38_16 1_555 1_555
H37_16 C39_16 1_555 1_555
H38_16 C39_16 1_555 1_555
H39_16 C39_16 1_555 1_555
C5_16 C6_16 1_555 1_555

#END
