
###############################################################################
#
# This file contains modified crystal structure data generated from the
# MOF subset of the Cambridge Structural Database (CSD) v543 
# hosted by the Cambridge Crystallographic Data Centre (CCDC).
#
# This work is licensed under the Creative Commons
# Attribution-NonCommercial-ShareAlike 4.0 International License.
# To view a copy of this license, visit
# http://creativecommons.org/licenses/by-nc-sa/4.0/
# or send a letter to
# Creative Commons, PO Box 1866, Mountain View, CA 94042, USA.
#
# CIF created using the CSD Python API on 29 September 2022
# The structure has been converted into the P1 space group
# The structure has a 3D framework
# The original CSD entry XAKZAL is in the tetragonal crystal system
# The framework has been calculated to contain at least 10.0% void space
# The void calculation uses a probe of radius 1.32A, grid spacing 0.4
#
###############################################################################

data_XAKZAL
_chemical_formula_moiety         '(C864 H1024 Mn48 N144 O156)n'
_symmetry_cell_setting           triclinic
_symmetry_space_group_name_H-M   'P 1'
_symmetry_Int_Tables_number      1
_space_group_name_Hall           'P 1'
loop_
_symmetry_equiv_pos_site_id
_symmetry_equiv_pos_as_xyz
1 x,y,z
_cell_length_a                   40.6959(6)
_cell_length_b                   40.6959(6)
_cell_length_c                   17.4726(3)
_cell_angle_alpha                90
_cell_angle_beta                 90
_cell_angle_gamma                90
_cell_volume                     28937.4
loop_
_atom_site_label
_atom_site_type_symbol
_atom_site_fract_x
_atom_site_fract_y
_atom_site_fract_z
Mn1 Mn 0.719849(13) 0.363430(13) 0.27486(3)
O1 O 0.74215(6) 0.39893(6) 0.31532(15)
O2 O 0.79753(6) 0.36812(6) 0.12214(15)
O3 O 0.70200(6) 0.32616(6) 0.22129(15)
N1 N 0.75440(7) 0.35666(7) 0.20014(17)
N2 N 0.74979(7) 0.32861(7) 0.15391(18)
N3 N 0.69183(8) 0.39650(8) 0.19155(19)
C1 C 0.76648(9) 0.41615(9) 0.2843(2)
C2 C 0.78478(9) 0.40648(8) 0.2200(2)
C3 C 0.80982(9) 0.42728(9) 0.1941(2)
H1 H 0.8223 0.4209 0.1505
C4 C 0.81700(10) 0.45643(10) 0.2293(3)
H2 H 0.8341 0.4701 0.2105
C5 C 0.79902(11) 0.46553(11) 0.2925(3)
H3 H 0.8038 0.4858 0.3172
C6 C 0.77438(11) 0.44595(10) 0.3203(3)
H4 H 0.7625 0.4526 0.3644
C7 C 0.77892(9) 0.37563(8) 0.1785(2)
C8 C 0.72181(9) 0.31508(9) 0.1692(2)
C9 C 0.71022(10) 0.28638(10) 0.1229(3)
H5 H 0.7027 0.2687 0.1576
H6 H 0.7287 0.2777 0.0920
C10 C 0.68177(18) 0.29647(17) 0.0692(5)
H7 H 0.6647 0.3080 0.0995
H8 H 0.6902 0.3120 0.0304
C11 C 0.6664(3) 0.2676(3) 0.0293(6)
H9 H 0.6746 0.2476 0.0552
H10 H 0.6425 0.2687 0.0393
C14 C 0.67162(10) 0.41988(11) 0.2147(3)
H16 H 0.6695 0.4236 0.2681
C15 C 0.65363(11) 0.43904(11) 0.1658(3)
H17 H 0.6395 0.4557 0.1853
C16 C 0.65607(13) 0.43411(13) 0.0888(3)
C17 C 0.67750(13) 0.41014(14) 0.0638(3)
H18 H 0.6803 0.4062 0.0106
C18 C 0.69472(12) 0.39204(12) 0.1163(3)
H19 H 0.7094 0.3756 0.0983
C19 C 0.63502(18) 0.45426(19) 0.0337(3)
H20 H 0.6118 0.4478 0.0417
H21 H 0.6370 0.4776 0.0487
Mn2 Mn 0.790188(13) 0.326508(13) 0.06701(3)
O7 O 0.81661(6) 0.30116(6) 0.13721(15)
N4 N 0.78602(7) 0.28350(7) 0.02097(17)
N5 N 0.80141(7) 0.25795(7) 0.06263(17)
C27 C 0.81612(9) 0.26987(9) 0.1223(2)
C28 C 0.83323(10) 0.24737(10) 0.1769(2)
H26 H 0.8307 0.2244 0.1591
H27 H 0.8227 0.2491 0.2279
C29 C 0.86943(12) 0.25538(11) 0.1843(3)
H28 H 0.8791 0.2418 0.2256
H29 H 0.8719 0.2787 0.1991
C30 C 0.88827(12) 0.24933(14) 0.1108(4)
H30 H 0.8845 0.2264 0.0943
H31 H 0.8795 0.2639 0.0705
C31 C 0.92447(15) 0.2551(2) 0.1181(6)
H32 H 0.9334 0.2402 0.1578
H33 H 0.9283 0.2780 0.1352
C32 C 0.94262(18) 0.2494(2) 0.0444(6)
H34 H 0.9396 0.2266 0.0280
H35 H 0.9661 0.2537 0.0521
H36 H 0.9341 0.2642 0.0049
C33 C 0.86216(11) 0.33971(10) 0.0261(3)
H37 H 0.8647 0.3330 0.0778
C35 C 0.92025(13) 0.35235(19) 0.0261(5)
H41 H 0.9274 0.3753 0.0260
H43 H 0.9184 0.3446 0.0790
Mn3 Mn 0.712100(13) 0.290300(13) 0.49333(3)
O8 O 0.67037(6) 0.29853(6) 0.53193(16)
O9 O 0.68288(6) 0.36545(6) 0.34859(15)
O10 O 0.75383(6) 0.28739(6) 0.44191(14)
N7 N 0.70632(7) 0.32428(7) 0.41671(17)
N8 N 0.73353(7) 0.32830(7) 0.36780(17)
C36 C 0.64951(9) 0.32261(9) 0.5153(2)
C37 C 0.65370(9) 0.34515(9) 0.4560(2)
C38 C 0.63008(9) 0.36962(10) 0.4455(3)
H44 H 0.6329 0.3850 0.4052
C39 C 0.60317(10) 0.37209(11) 0.4909(3)
H45 H 0.5877 0.3893 0.4833
C40 C 0.59848(11) 0.34931(12) 0.5483(3)
H46 H 0.5793 0.3504 0.5793
C41 C 0.62134(11) 0.32496(11) 0.5608(3)
H47 H 0.6179 0.3096 0.6009
C42 C 0.68221(8) 0.34502(8) 0.4046(2)
C43 C 0.75680(9) 0.30839(9) 0.3865(2)
C44 C 0.78920(9) 0.30973(11) 0.3472(2)
H48 H 0.7959 0.2873 0.3319
H49 H 0.7873 0.3232 0.3002
C45 C 0.81560(11) 0.32461(14) 0.4000(3)
H50 H 0.8374 0.3219 0.3757
H51 H 0.8158 0.3123 0.4489
C46 C 0.81002(15) 0.36046(14) 0.4167(4)
H52 H 0.8100 0.3726 0.3676
H53 H 0.7880 0.3630 0.4398
C47 C 0.83521(17) 0.3761(2) 0.4698(5)
H54 H 0.8574 0.3729 0.4480
H55 H 0.8345 0.3647 0.5199
C48 C 0.8297(3) 0.4120(2) 0.4824(7)
H56 H 0.8062 0.4161 0.4911
H57 H 0.8422 0.4193 0.5272
H58 H 0.8370 0.4243 0.4372
O11 O 0.72457(6) 0.25572(6) 0.56742(14)
N10 N 0.69859(7) 0.24205(7) 0.43737(17)
Mn4 Mn 0.787900(13) 0.209700(13) 0.00667(3)
N11 N 0.73783(8) 0.32466(9) 0.57720(19)
O2_2 O 0.88188(6) 0.54753(6) 0.87214(15)
O3_2 O 0.92384(6) 0.45200(6) 0.97129(15)
N1_2 N 0.89334(7) 0.50440(7) 0.95014(17)
N2_2 N 0.92139(7) 0.49979(7) 0.90391(18)
N3_2 N 0.85350(8) 0.44183(8) 0.94155(19)
C2_2 C 0.84352(8) 0.53478(9) 0.9700(2)
C3_2 C 0.82272(9) 0.55982(9) 0.9441(2)
H1_2 H 0.8291 0.5723 0.9005
C4_2 C 0.79357(10) 0.56700(10) 0.9793(3)
H2_2 H 0.7799 0.5841 0.9605
C7_2 C 0.87437(8) 0.52892(9) 0.9285(2)
C8_2 C 0.93492(9) 0.47181(9) 0.9192(2)
C9_2 C 0.96362(10) 0.46022(10) 0.8729(3)
H5_2 H 0.9813 0.4527 0.9076
H6_2 H 0.9723 0.4787 0.8420
C10_2 C 0.95353(17) 0.43177(18) 0.8192(5)
H7_2 H 0.9420 0.4147 0.8495
H8_2 H 0.9380 0.4402 0.7804
C11_2 C 0.9824(3) 0.4164(3) 0.7793(6)
H10_2 H 0.9813 0.3925 0.7893
C12 C 0.9865(3) 0.4196(5) 0.7148(7)
H11 H 0.9900 0.4433 0.7054
H12 H 0.9657 0.4136 0.6890
C14_2 C 0.83012(11) 0.42162(10) 0.9647(3)
C15_2 C 0.81096(11) 0.40363(11) 0.9158(3)
H17_2 H 0.7943 0.3895 0.9353
C16_2 C 0.81589(13) 0.40607(13) 0.8388(3)
C17_2 C 0.83986(14) 0.42750(13) 0.8138(3)
H18_2 H 0.8438 0.4303 0.7606
C18_2 C 0.85796(12) 0.44472(12) 0.8663(3)
H19_2 H 0.8744 0.4594 0.8483
C19_2 C 0.79574(19) 0.38502(18) 0.7837(3)
H20_2 H 0.8022 0.3618 0.7917
H21_2 H 0.7724 0.3870 0.7987
Mn2_2 Mn 0.923492(13) 0.540188(13) 0.81701(3)
O4 O 0.90599(6) 0.51260(7) 0.74274(17)
O6 O 0.91157(7) 0.58494(7) 0.74911(17)
O7_2 O 0.94884(6) 0.56661(6) 0.88721(15)
N4_2 N 0.96650(7) 0.53602(7) 0.77097(17)
N5_2 N 0.99205(7) 0.55141(7) 0.81263(17)
N6 N 0.90019(10) 0.63894(9) 0.7391(3)
C20 C 0.91953(10) 0.50030(9) 0.6800(2)
C21 C 0.95209(10) 0.50582(9) 0.6576(2)
C22 C 0.96337(12) 0.49326(12) 0.5885(3)
H22 H 0.9853 0.4976 0.5727
C23 C 0.94304(15) 0.47457(13) 0.5425(3)
H23 H 0.9507 0.4663 0.4950
C24 C 0.91193(14) 0.46823(12) 0.5665(3)
H24 H 0.8979 0.4552 0.5353
C25 C 0.90029(12) 0.48018(11) 0.6344(3)
H25 H 0.8787 0.4746 0.6505
C26 C 0.97603(9) 0.52352(9) 0.7053(2)
C27_2 C 0.98013(9) 0.56612(9) 0.8723(2)
C29_2 C 0.99462(11) 0.61943(12) 0.9343(3)
H29_2 H 0.9713 0.6219 0.9491
H31_2 H 0.9861 0.6295 0.8205
C31_2 C 0.9949(2) 0.67447(15) 0.8681(6)
H33_2 H 0.9720 0.6783 0.8852
H35_2 H 0.9963 0.7161 0.8021
H36_2 H 0.9858 0.6841 0.7549
C33_2 C 0.91029(10) 0.61216(11) 0.7761(3)
H37_2 H 0.9170 0.6147 0.8278
C34 C 0.88907(16) 0.63774(16) 0.6610(4)
H38 H 0.8898 0.6150 0.6426
H39 H 0.9033 0.6515 0.6292
H40 H 0.8664 0.6459 0.6581
C35_2 C 0.89765(19) 0.67025(13) 0.7761(5)
H41_2 H 0.8747 0.6774 0.7760
H42 H 0.9111 0.6864 0.7486
H43_2 H 0.9054 0.6684 0.8290
C49 C 0.76750(13) 0.31648(12) 0.6021(3)
H59 H 0.7758 0.2953 0.5902
C50 C 0.78666(14) 0.33725(14) 0.6440(3)
H60 H 0.8076 0.3301 0.6617
C51 C 0.77586(13) 0.36841(16) 0.6607(3)
C52 C 0.74497(13) 0.37602(16) 0.6380(3)
H61 H 0.7358 0.3967 0.6515
C53 C 0.72697(11) 0.35433(13) 0.5959(3)
H62 H 0.7057 0.3607 0.5792
C54 C 0.79790(15) 0.39161(19) 0.7050(4)
H63 H 0.7912 0.4146 0.6950
H64 H 0.8209 0.3889 0.6878
H23_2 H 0.5493 0.0337 0.0050
Mn1_2 Mn 0.780151(13) 0.136570(13) 0.22514(3)
O1_2 O 0.75785(6) 0.10107(6) 0.18468(15)
O2_3 O 0.70247(6) 0.13188(6) 0.37786(15)
O3_3 O 0.79800(6) 0.17384(6) 0.27871(15)
N1_3 N 0.74560(7) 0.14334(7) 0.29986(17)
N2_3 N 0.75021(7) 0.17139(7) 0.34609(18)
N3_3 N 0.80817(8) 0.10350(8) 0.30845(19)
C1_2 C 0.73352(9) 0.08385(9) 0.2157(2)
C2_3 C 0.71522(9) 0.09352(8) 0.2800(2)
C3_3 C 0.69018(9) 0.07272(9) 0.3059(2)
H1_3 H 0.6777 0.0791 0.3495
C4_3 C 0.68300(10) 0.04357(10) 0.2707(3)
H2_3 H 0.6659 0.0299 0.2895
C5_2 C 0.70098(11) 0.03447(11) 0.2075(3)
H3_2 H 0.6962 0.0142 0.1828
C6_2 C 0.72562(11) 0.05405(10) 0.1797(3)
H4_2 H 0.7375 0.0474 0.1356
C7_3 C 0.72108(9) 0.12437(8) 0.3215(2)
C8_3 C 0.77819(9) 0.18492(9) 0.3308(2)
C9_3 C 0.78978(10) 0.21362(10) 0.3771(3)
H5_3 H 0.7973 0.2313 0.3424
H6_3 H 0.7713 0.2223 0.4080
C10_3 C 0.81823(18) 0.20353(17) 0.4308(5)
H7_3 H 0.8353 0.1920 0.4005
H8_3 H 0.8098 0.1880 0.4696
C11_3 C 0.8336(3) 0.2324(3) 0.4707(6)
H9_2 H 0.8254 0.2524 0.4448
H10_3 H 0.8575 0.2313 0.4607
C12_2 C 0.8304(5) 0.2365(3) 0.5352(7)
H11_2 H 0.8067 0.2400 0.5446
H12_2 H 0.8364 0.2157 0.5610
C13 C 0.8493(3) 0.2649(2) 0.5771(7)
H13 H 0.8562 0.2814 0.5395
H14 H 0.8348 0.2751 0.6150
H15 H 0.8687 0.2558 0.6028
C14_3 C 0.82838(10) 0.08012(11) 0.2853(3)
H16_2 H 0.8305 0.0764 0.2319
C15_3 C 0.84637(11) 0.06096(11) 0.3342(3)
H17_3 H 0.8605 0.0443 0.3147
C16_3 C 0.84393(13) 0.06589(13) 0.4112(3)
C17_3 C 0.82250(13) 0.08986(14) 0.4362(3)
H18_3 H 0.8197 0.0938 0.4894
C18_3 C 0.80528(12) 0.10796(12) 0.3837(3)
H19_3 H 0.7906 0.1244 0.4017
C19_3 C 0.86498(18) 0.04574(19) 0.4663(3)
H20_3 H 0.8882 0.0522 0.4583
H21_3 H 0.8630 0.0224 0.4513
Mn2_3 Mn 0.709812(13) 0.173492(13) 0.43299(3)
O4_2 O 0.73740(7) 0.15599(6) 0.50726(17)
O6_2 O 0.66506(7) 0.16157(7) 0.50089(17)
O7_3 O 0.68339(6) 0.19884(6) 0.36279(15)
N4_3 N 0.71398(7) 0.21650(7) 0.47903(17)
N6_2 N 0.61106(9) 0.15019(10) 0.5109(3)
C20_2 C 0.74970(9) 0.16953(10) 0.5700(2)
C21_2 C 0.74418(9) 0.20209(10) 0.5924(2)
C22_2 C 0.75674(12) 0.21337(12) 0.6615(3)
H22_2 H 0.7524 0.2353 0.6773
C23_2 C 0.77543(13) 0.19304(15) 0.7075(3)
H23_3 H 0.7837 0.2007 0.7550
C24_2 C 0.78177(12) 0.16193(14) 0.6835(3)
H24_2 H 0.7948 0.1479 0.7147
C25_2 C 0.76982(11) 0.15029(12) 0.6156(3)
H25_2 H 0.7754 0.1287 0.5995
C26_2 C 0.72648(9) 0.22603(9) 0.5447(2)
C27_3 C 0.68388(9) 0.23013(9) 0.3777(2)
C28_2 C 0.66677(10) 0.25263(10) 0.3231(2)
H26_2 H 0.6693 0.2756 0.3409
H27_2 H 0.6773 0.2509 0.2721
C29_3 C 0.63057(12) 0.24462(11) 0.3157(3)
H28_2 H 0.6209 0.2582 0.2744
H29_3 H 0.6281 0.2213 0.3009
C30_2 C 0.61173(12) 0.25067(14) 0.3892(4)
H30_2 H 0.6155 0.2736 0.4057
H31_3 H 0.6205 0.2361 0.4295
C31_3 C 0.57553(15) 0.2449(2) 0.3819(6)
H32_2 H 0.5666 0.2598 0.3422
H33_3 H 0.5717 0.2220 0.3648
C32_2 C 0.55738(18) 0.2506(2) 0.4556(6)
H34_2 H 0.5604 0.2734 0.4720
H35_3 H 0.5339 0.2463 0.4479
H36_3 H 0.5659 0.2358 0.4951
C33_3 C 0.63784(11) 0.16029(10) 0.4739(3)
H37_3 H 0.6353 0.1670 0.4222
C34_2 C 0.61226(16) 0.13907(16) 0.5890(4)
H38_2 H 0.6350 0.1398 0.6074
H39_2 H 0.5985 0.1533 0.6208
H40_2 H 0.6041 0.1164 0.5919
C35_3 C 0.57975(13) 0.14765(19) 0.4739(5)
H41_3 H 0.5726 0.1247 0.4740
H42_2 H 0.5636 0.1611 0.5014
H43_3 H 0.5816 0.1554 0.4210
O9_2 O 0.81712(6) 0.13455(6) 0.15141(15)
O10_2 O 0.74617(6) 0.21261(6) 0.05809(14)
N7_2 N 0.79368(7) 0.17572(7) 0.08329(17)
N8_2 N 0.76647(7) 0.17170(7) 0.13220(17)
C37_2 C 0.84630(9) 0.15485(9) 0.0440(2)
C38_2 C 0.86992(9) 0.13038(10) 0.0545(3)
H44_2 H 0.8671 0.1150 0.0948
C39_2 C 0.89683(10) 0.12791(11) 0.0091(3)
H45_2 H 0.9123 0.1107 0.0167
C42_2 C 0.81779(8) 0.15498(8) 0.0954(2)
C43_2 C 0.74320(9) 0.19161(9) 0.1135(2)
C44_2 C 0.71080(9) 0.19027(11) 0.1528(2)
H48_2 H 0.7041 0.2127 0.1681
H49_2 H 0.7127 0.1768 0.1998
C45_2 C 0.68440(11) 0.17539(14) 0.1000(3)
H50_2 H 0.6626 0.1781 0.1243
H51_2 H 0.6842 0.1877 0.0511
C46_2 C 0.68998(15) 0.13954(14) 0.0833(4)
H52_2 H 0.6900 0.1274 0.1324
H53_2 H 0.7120 0.1370 0.0602
C47_2 C 0.66479(17) 0.1239(2) 0.0302(5)
H54_2 H 0.6426 0.1271 0.0520
C48_2 C 0.6703(3) 0.0880(2) 0.0176(7)
H56_2 H 0.6938 0.0839 0.0089
H58_2 H 0.6630 0.0757 0.0628
C49_2 C 0.93352(12) 0.01750(13) 0.6479(3)
H59_2 H 0.9547 0.0258 0.6598
C50_2 C 0.91275(14) 0.03666(14) 0.6060(3)
H60_2 H 0.9199 0.0576 0.5883
C51_2 C 0.88159(16) 0.02586(13) 0.5893(3)
C54_2 C 0.85839(19) 0.04790(15) 0.5450(4)
H63_2 H 0.8354 0.0412 0.5550
H64_2 H 0.8611 0.0709 0.5622
C12_3 C 0.6696(5) 0.2635(3) 0.9648(7)
H11_3 H 0.6933 0.2600 0.9554
H12_3 H 0.6636 0.2843 0.9390
C13_2 C 0.6507(3) 0.2351(2) 0.9229(7)
H13_2 H 0.6438 0.2186 0.9605
H14_2 H 0.6652 0.2249 0.8850
H15_2 H 0.6313 0.2442 0.8972
O4_3 O 0.76260(7) 0.34401(6) 0.99274(17)
O5 O 0.77543(6) 0.24428(6) 0.93258(14)
O6_3 O 0.83494(7) 0.33843(7) 0.99911(17)
N6_3 N 0.88894(9) 0.34981(10) 0.9891(3)
C20_3 C 0.75030(9) 0.33047(10) 0.9300(2)
C21_3 C 0.75582(9) 0.29791(10) 0.9076(2)
C22_3 C 0.74326(12) 0.28663(12) 0.8385(3)
H22_3 H 0.7476 0.2647 0.8227
C23_3 C 0.72457(13) 0.30696(15) 0.7925(3)
H23_4 H 0.7163 0.2993 0.7450
C24_3 C 0.71823(12) 0.33807(14) 0.8165(3)
H24_3 H 0.7052 0.3521 0.7853
C25_3 C 0.73018(11) 0.34971(12) 0.8844(3)
H25_3 H 0.7246 0.3713 0.9005
C26_3 C 0.77352(9) 0.27397(9) 0.9553(2)
C34_3 C 0.88774(16) 0.36093(16) 0.9110(4)
H38_3 H 0.8650 0.3602 0.8926
H39_3 H 0.9015 0.3467 0.8792
H40_3 H 0.8959 0.3836 0.9081
H42_3 H 0.9364 0.3389 0.9986
N9 N 0.57466(9) 0.51217(8) 0.82720(19)
C49_3 C 0.56648(12) 0.48250(13) 0.8521(3)
H59_3 H 0.5453 0.4742 0.8402
C50_3 C 0.58725(14) 0.46334(14) 0.8940(3)
H60_3 H 0.5801 0.4424 0.9117
C51_3 C 0.61841(16) 0.47414(13) 0.9107(3)
C52_2 C 0.62602(16) 0.50503(13) 0.8880(3)
H61_2 H 0.6467 0.5142 0.9015
C53_2 C 0.60433(13) 0.52303(11) 0.8459(3)
H62_2 H 0.6107 0.5443 0.8292
C54_3 C 0.64161(19) 0.45210(15) 0.9550(4)
H63_3 H 0.6646 0.4588 0.9450
H64_3 H 0.6389 0.4291 0.9378
Mn5 Mn 0.540300(13) 0.537900(13) 0.74333(3)
O2_4 O 0.38188(6) 0.04753(6) 0.37214(15)
N1_4 N 0.39334(7) 0.00440(7) 0.45014(17)
C1_3 C 0.33385(9) 0.01648(9) 0.5343(2)
C2_4 C 0.34352(8) 0.03478(9) 0.4700(2)
C3_4 C 0.32272(9) 0.05982(9) 0.4441(2)
H1_4 H 0.3291 0.0723 0.4005
C4_4 C 0.29357(10) 0.06700(10) 0.4793(3)
H2_4 H 0.2799 0.0841 0.4605
C5_3 C 0.28447(11) 0.04902(11) 0.5425(3)
H3_3 H 0.2642 0.0538 0.5672
C6_3 C 0.30405(10) 0.02438(11) 0.5703(3)
H4_3 H 0.2974 0.0125 0.6144
C7_4 C 0.37437(8) 0.02892(9) 0.4285(2)
Mn2_4 Mn 0.423492(13) 0.040188(13) 0.31701(3)
O4_4 O 0.40599(6) 0.01260(7) 0.24274(17)
O5_2 O 0.50572(6) 0.02543(6) 0.18258(14)
O6_4 O 0.41157(7) 0.08494(7) 0.24911(17)
O7_4 O 0.44884(6) 0.06661(6) 0.38721(15)
N4_4 N 0.46650(7) 0.03602(7) 0.27097(17)
N5_3 N 0.49205(7) 0.05141(7) 0.31263(17)
N6_4 N 0.40019(10) 0.13894(9) 0.2391(3)
C20_4 C 0.41953(10) 0.00030(9) 0.1800(2)
C21_4 C 0.45209(10) 0.00582(9) 0.1576(2)
C26_4 C 0.47603(9) 0.02352(9) 0.2053(2)
C27_4 C 0.48013(9) 0.06612(9) 0.3723(2)
C28_3 C 0.50263(10) 0.08323(10) 0.4269(2)
H26_3 H 0.5256 0.0807 0.4091
H27_3 H 0.5009 0.0727 0.4779
C29_4 C 0.49462(11) 0.11943(12) 0.4343(3)
H28_3 H 0.5082 0.1291 0.4756
H29_4 H 0.4713 0.1219 0.4491
C30_3 C 0.50067(14) 0.13827(12) 0.3608(4)
H30_3 H 0.5236 0.1345 0.3443
H31_4 H 0.4861 0.1295 0.3205
C31_4 C 0.4949(2) 0.17447(15) 0.3681(6)
H32_3 H 0.5098 0.1834 0.4078
H33_4 H 0.4720 0.1783 0.3852
C32_3 C 0.5006(2) 0.19262(18) 0.2944(6)
H34_3 H 0.5234 0.1896 0.2780
H35_4 H 0.4963 0.2161 0.3021
H36_4 H 0.4858 0.1841 0.2549
C33_4 C 0.41029(10) 0.11216(11) 0.2761(3)
H37_4 H 0.4170 0.1147 0.3278
C34_4 C 0.38907(16) 0.13774(16) 0.1610(4)
H38_4 H 0.3898 0.1150 0.1426
H39_4 H 0.4033 0.1515 0.1292
H40_4 H 0.3664 0.1459 0.1581
C35_4 C 0.39765(19) 0.17025(13) 0.2761(5)
H41_4 H 0.3747 0.1774 0.2760
H42_4 H 0.4111 0.1864 0.2486
H43_4 H 0.4054 0.1684 0.3290
O10_3 O 0.46261(6) 0.00383(6) 0.69191(14)
C43_3 C 0.44161(9) 0.00680(9) 0.6365(2)
C44_3 C 0.44027(11) 0.03920(9) 0.5972(2)
H48_3 H 0.4627 0.0459 0.5819
H49_3 H 0.4268 0.0373 0.5502
C45_3 C 0.42539(14) 0.06560(11) 0.6500(3)
H50_3 H 0.4281 0.0874 0.6257
H51_3 H 0.4377 0.0658 0.6989
C46_3 C 0.38954(14) 0.06002(15) 0.6667(4)
H52_3 H 0.3774 0.0600 0.6176
H53_3 H 0.3870 0.0380 0.6898
C47_3 C 0.3739(2) 0.08521(17) 0.7198(5)
H54_3 H 0.3771 0.1074 0.6980
H55_2 H 0.3853 0.0845 0.7699
C48_3 C 0.3380(2) 0.0797(3) 0.7324(7)
H56_3 H 0.3339 0.0562 0.7411
H57_2 H 0.3307 0.0922 0.7772
H58_3 H 0.3257 0.0870 0.6872
Mn4_2 Mn 0.540300(13) 0.037900(13) 0.25667(3)
Mn1_3 Mn 0.386570(13) 0.969849(13) 0.52486(3)
O1_3 O 0.35107(6) 0.99215(6) 0.56532(15)
O3_4 O 0.42384(6) 0.95200(6) 0.47129(15)
N2_4 N 0.42139(7) 0.99979(7) 0.40391(18)
N3_4 N 0.35350(8) 0.94183(8) 0.44155(19)
C8_4 C 0.43492(9) 0.97181(9) 0.4192(2)
C9_4 C 0.46362(10) 0.96022(10) 0.3729(3)
H5_4 H 0.4813 0.9527 0.4076
H6_4 H 0.4723 0.9787 0.3420
C10_4 C 0.45353(17) 0.93177(18) 0.3192(5)
H7_4 H 0.4420 0.9147 0.3495
H8_4 H 0.4380 0.9402 0.2804
C11_4 C 0.4824(3) 0.9164(3) 0.2793(6)
H9_3 H 0.5024 0.9246 0.3052
H10_4 H 0.4813 0.8925 0.2893
C12_4 C 0.4865(3) 0.9196(5) 0.2148(7)
H11_4 H 0.4900 0.9433 0.2054
H12_4 H 0.4657 0.9136 0.1890
C13_3 C 0.5149(2) 0.9007(3) 0.1729(7)
H13_3 H 0.5314 0.8938 0.2105
H14_3 H 0.5251 0.9152 0.1350
H15_3 H 0.5058 0.8813 0.1472
C14_4 C 0.33012(11) 0.92162(10) 0.4647(3)
H16_3 H 0.3264 0.9195 0.5181
C15_4 C 0.31096(11) 0.90363(11) 0.4158(3)
H17_4 H 0.2943 0.8895 0.4353
C16_4 C 0.31589(13) 0.90607(13) 0.3388(3)
C17_4 C 0.33986(14) 0.92750(13) 0.3138(3)
H18_4 H 0.3438 0.9303 0.2606
C18_4 C 0.35796(12) 0.94472(12) 0.3663(3)
H19_4 H 0.3744 0.9594 0.3483
C19_4 C 0.29574(19) 0.88502(18) 0.2837(3)
H20_4 H 0.3022 0.8618 0.2917
H21_4 H 0.2724 0.8870 0.2987
C22_4 C 0.46337(12) 0.99326(12) 0.0885(3)
H22_4 H 0.4853 0.9976 0.0727
C23_4 C 0.44304(15) 0.97457(13) 0.0425(3)
C24_4 C 0.41193(14) 0.96823(12) 0.0665(3)
H24_4 H 0.3979 0.9552 0.0353
C25_4 C 0.40029(12) 0.98018(11) 0.1344(3)
H25_4 H 0.3787 0.9746 0.1505
Mn3_2 Mn 0.459700(13) 0.962100(13) 0.74333(3)
O8_2 O 0.45147(6) 0.92037(6) 0.78193(16)
O9_3 O 0.38455(6) 0.93288(6) 0.59859(15)
N7_3 N 0.42572(7) 0.95632(7) 0.66671(17)
N8_3 N 0.42170(7) 0.98353(7) 0.61780(17)
N9_2 N 0.23783(8) 0.82466(9) 0.07720(19)
C36_2 C 0.42739(9) 0.89951(9) 0.7653(2)
C37_3 C 0.40485(9) 0.90370(9) 0.7060(2)
C38_3 C 0.38038(10) 0.88008(9) 0.6955(3)
H44_3 H 0.3650 0.8829 0.6552
C39_3 C 0.37791(11) 0.85317(10) 0.7409(3)
H45_3 H 0.3607 0.8377 0.7333
C40_2 C 0.40069(12) 0.84848(11) 0.7983(3)
H46_2 H 0.3996 0.8293 0.8293
C41_2 C 0.42504(11) 0.87134(11) 0.8108(3)
H47_2 H 0.4404 0.8679 0.8509
C42_3 C 0.40498(8) 0.93221(8) 0.6546(2)
C49_4 C 0.26750(13) 0.81648(12) 0.1021(3)
H59_4 H 0.2758 0.7953 0.0902
C50_4 C 0.28666(14) 0.83725(14) 0.1440(3)
H60_4 H 0.3076 0.8301 0.1617
C51_4 C 0.27586(13) 0.86841(16) 0.1607(3)
C52_3 C 0.24497(13) 0.87602(16) 0.1380(3)
H61_3 H 0.2358 0.8967 0.1515
C53_3 C 0.22697(11) 0.85433(13) 0.0959(3)
H62_3 H 0.2057 0.8607 0.0792
C54_4 C 0.29790(15) 0.89161(19) 0.2050(4)
H63_4 H 0.2912 0.9146 0.1950
H64_4 H 0.3209 0.8889 0.1878
O11_2 O 0.49428(6) 0.97457(6) 0.81742(14)
N10_2 N 0.50795(7) 0.94859(7) 0.68737(17)
N11_2 N 0.42534(9) 0.98783(8) 0.82720(19)
O8_3 O 0.17037(6) 0.79853(6) 0.03193(16)
C36_3 C 0.14951(9) 0.82261(9) 0.0153(2)
C40_3 C 0.09848(11) 0.84931(12) 0.0483(3)
H46_3 H 0.0793 0.8504 0.0793
C41_3 C 0.12134(11) 0.82496(11) 0.0608(3)
H47_3 H 0.1179 0.8096 0.1009
H55_3 H 0.3345 0.8647 0.0199
H57_3 H 0.3422 0.9193 0.0272
O11_3 O 0.22457(6) 0.75572(6) 0.06742(14)
Mn1_4 Mn 0.613430(13) 0.530151(13) 0.52486(3)
O1_4 O 0.64893(6) 0.50785(6) 0.56532(15)
O2_5 O 0.61812(6) 0.45247(6) 0.37214(15)
O3_5 O 0.57616(6) 0.54800(6) 0.47129(15)
N1_5 N 0.60666(7) 0.49560(7) 0.45014(17)
N2_5 N 0.57861(7) 0.50021(7) 0.40391(18)
N3_5 N 0.64650(8) 0.55817(8) 0.44155(19)
C1_4 C 0.66615(9) 0.48352(9) 0.5343(2)
C2_5 C 0.65648(8) 0.46522(9) 0.4700(2)
C3_5 C 0.67728(9) 0.44018(9) 0.4441(2)
H1_5 H 0.6709 0.4277 0.4005
C4_5 C 0.70643(10) 0.43300(10) 0.4793(3)
H2_5 H 0.7201 0.4159 0.4605
C5_4 C 0.71553(11) 0.45098(11) 0.5425(3)
H3_4 H 0.7358 0.4462 0.5672
C6_4 C 0.69595(10) 0.47562(11) 0.5703(3)
H4_4 H 0.7026 0.4875 0.6144
C7_5 C 0.62563(8) 0.47108(9) 0.4285(2)
C8_5 C 0.56508(9) 0.52819(9) 0.4192(2)
C9_5 C 0.53638(10) 0.53978(10) 0.3729(3)
H5_5 H 0.5187 0.5473 0.4076
H6_5 H 0.5277 0.5213 0.3420
C10_5 C 0.54647(17) 0.56823(18) 0.3192(5)
H7_5 H 0.5580 0.5853 0.3495
H8_5 H 0.5620 0.5598 0.2804
C11_5 C 0.5176(3) 0.5836(3) 0.2793(6)
H9_4 H 0.4976 0.5754 0.3052
H10_5 H 0.5187 0.6075 0.2893
C12_5 C 0.5135(3) 0.5804(5) 0.2148(7)
H11_5 H 0.5100 0.5567 0.2054
H12_5 H 0.5343 0.5864 0.1890
C13_4 C 0.4851(2) 0.5993(3) 0.1729(7)
H13_4 H 0.4686 0.6062 0.2105
H14_4 H 0.4749 0.5848 0.1350
H15_4 H 0.4942 0.6187 0.1472
C14_5 C 0.66988(11) 0.57838(10) 0.4647(3)
H16_4 H 0.6736 0.5805 0.5181
C15_5 C 0.68904(11) 0.59637(11) 0.4158(3)
H17_5 H 0.7057 0.6105 0.4353
C16_5 C 0.68411(13) 0.59393(13) 0.3388(3)
C17_5 C 0.66014(14) 0.57250(13) 0.3138(3)
H18_5 H 0.6562 0.5697 0.2606
C18_5 C 0.64204(12) 0.55528(12) 0.3663(3)
H19_5 H 0.6256 0.5406 0.3483
C19_5 C 0.70426(19) 0.61498(18) 0.2837(3)
H20_5 H 0.6978 0.6382 0.2917
H21_5 H 0.7276 0.6130 0.2987
Mn2_5 Mn 0.576508(13) 0.459812(13) 0.31701(3)
O4_5 O 0.59401(6) 0.48740(7) 0.24274(17)
O5_3 O 0.49428(6) 0.47457(6) 0.18258(14)
O6_5 O 0.58843(7) 0.41506(7) 0.24911(17)
O7_5 O 0.55116(6) 0.43339(6) 0.38721(15)
N4_5 N 0.53350(7) 0.46398(7) 0.27097(17)
N5_4 N 0.50795(7) 0.44859(7) 0.31263(17)
N6_5 N 0.59981(10) 0.36106(9) 0.2391(3)
C20_5 C 0.58047(10) 0.49970(9) 0.1800(2)
C21_5 C 0.54791(10) 0.49418(9) 0.1576(2)
C22_5 C 0.53663(12) 0.50674(12) 0.0885(3)
H22_5 H 0.5147 0.5024 0.0727
C23_5 C 0.55696(15) 0.52543(13) 0.0425(3)
C24_5 C 0.58807(14) 0.53177(12) 0.0665(3)
H24_5 H 0.6021 0.5448 0.0353
C25_5 C 0.59971(12) 0.51982(11) 0.1344(3)
H25_5 H 0.6213 0.5254 0.1505
C26_5 C 0.52397(9) 0.47648(9) 0.2053(2)
C27_5 C 0.51987(9) 0.43388(9) 0.3723(2)
C28_4 C 0.49737(10) 0.41677(10) 0.4269(2)
H26_4 H 0.4744 0.4193 0.4091
H27_4 H 0.4991 0.4273 0.4779
C29_5 C 0.50538(11) 0.38057(12) 0.4343(3)
H28_4 H 0.4918 0.3709 0.4756
H29_5 H 0.5287 0.3781 0.4491
C30_4 C 0.49933(14) 0.36173(12) 0.3608(4)
H30_4 H 0.4764 0.3655 0.3443
H31_5 H 0.5139 0.3705 0.3205
C31_5 C 0.5051(2) 0.32553(15) 0.3681(6)
H32_4 H 0.4902 0.3166 0.4078
H33_5 H 0.5280 0.3217 0.3852
C32_4 C 0.4994(2) 0.30738(18) 0.2944(6)
H34_4 H 0.4766 0.3104 0.2780
H35_5 H 0.5037 0.2839 0.3021
H36_5 H 0.5142 0.3159 0.2549
C33_5 C 0.58971(10) 0.38784(11) 0.2761(3)
H37_5 H 0.5830 0.3853 0.3278
C34_5 C 0.61093(16) 0.36226(16) 0.1610(4)
H38_5 H 0.6102 0.3850 0.1426
H39_5 H 0.5967 0.3485 0.1292
H40_5 H 0.6336 0.3541 0.1581
C35_5 C 0.60235(19) 0.32975(13) 0.2761(5)
H41_5 H 0.6253 0.3226 0.2760
H42_5 H 0.5889 0.3136 0.2486
H43_5 H 0.5946 0.3316 0.3290
O8_4 O 0.54853(6) 0.57963(6) 0.78193(16)
O9_4 O 0.61545(6) 0.56712(6) 0.59859(15)
O10_4 O 0.53739(6) 0.49617(6) 0.69191(14)
N7_4 N 0.57428(7) 0.54368(7) 0.66671(17)
N8_4 N 0.57830(7) 0.51647(7) 0.61780(17)
N9_3 N 0.76217(8) 0.67534(9) 0.07720(19)
C36_4 C 0.57261(9) 0.60049(9) 0.7653(2)
C37_4 C 0.59515(9) 0.59630(9) 0.7060(2)
C38_4 C 0.61962(10) 0.61992(9) 0.6955(3)
H44_4 H 0.6350 0.6171 0.6552
C39_4 C 0.62209(11) 0.64683(10) 0.7409(3)
H45_4 H 0.6393 0.6623 0.7333
C40_4 C 0.59931(12) 0.65152(11) 0.7983(3)
H46_4 H 0.6004 0.6707 0.8293
C41_4 C 0.57496(11) 0.62866(11) 0.8108(3)
H47_4 H 0.5596 0.6321 0.8509
C42_4 C 0.59502(8) 0.56779(8) 0.6546(2)
C43_4 C 0.55839(9) 0.49320(9) 0.6365(2)
C44_4 C 0.55973(11) 0.46080(9) 0.5972(2)
H48_4 H 0.5373 0.4541 0.5819
H49_4 H 0.5732 0.4627 0.5502
C45_4 C 0.57461(14) 0.43440(11) 0.6500(3)
H50_4 H 0.5719 0.4126 0.6257
H51_4 H 0.5623 0.4342 0.6989
C46_4 C 0.61046(14) 0.43998(15) 0.6667(4)
H52_4 H 0.6226 0.4400 0.6176
H53_4 H 0.6130 0.4620 0.6898
C47_4 C 0.6261(2) 0.41479(17) 0.7198(5)
H54_4 H 0.6229 0.3926 0.6980
H55_4 H 0.6147 0.4155 0.7699
C48_4 C 0.6620(2) 0.4203(3) 0.7324(7)
H56_4 H 0.6661 0.4438 0.7411
H57_4 H 0.6693 0.4078 0.7772
H58_4 H 0.6743 0.4130 0.6872
C49_5 C 0.73250(13) 0.68352(12) 0.1021(3)
H59_5 H 0.7242 0.7047 0.0902
C50_5 C 0.71334(14) 0.66275(14) 0.1440(3)
H60_5 H 0.6924 0.6699 0.1617
C51_5 C 0.72414(13) 0.63159(16) 0.1607(3)
C52_4 C 0.75503(13) 0.62398(16) 0.1380(3)
H61_4 H 0.7642 0.6033 0.1515
C53_4 C 0.77303(11) 0.64567(13) 0.0959(3)
H62_4 H 0.7943 0.6393 0.0792
C54_5 C 0.70210(15) 0.60839(19) 0.2050(4)
H63_5 H 0.7088 0.5854 0.1950
H64_5 H 0.6791 0.6111 0.1878
O11_4 O 0.50572(6) 0.52543(6) 0.81742(14)
N10_3 N 0.49205(7) 0.55141(7) 0.68737(17)
Mn4_3 Mn 0.459700(13) 0.462100(13) 0.25667(3)
O8_5 O 0.82963(6) 0.70147(6) 0.03193(16)
C36_5 C 0.85049(9) 0.67739(9) 0.0153(2)
C40_5 C 0.90152(11) 0.65069(12) 0.0483(3)
H46_5 H 0.9207 0.6496 0.0793
C41_5 C 0.87866(11) 0.67504(11) 0.0608(3)
H47_5 H 0.8821 0.6904 0.1009
H55_5 H 0.6655 0.6353 0.0199
H57_5 H 0.6578 0.5807 0.0272
O11_5 O 0.77543(6) 0.74428(6) 0.06742(14)
C12_6 C 0.3304(5) 0.2365(3) 0.9648(7)
H11_6 H 0.3067 0.2400 0.9554
H12_6 H 0.3364 0.2157 0.9390
C13_5 C 0.3493(3) 0.2649(2) 0.9229(7)
H13_5 H 0.3562 0.2814 0.9605
H14_5 H 0.3348 0.2751 0.8850
H15_5 H 0.3687 0.2558 0.8972
O4_6 O 0.23740(7) 0.15599(6) 0.99274(17)
O5_4 O 0.22457(6) 0.25572(6) 0.93258(14)
O6_6 O 0.16506(7) 0.16157(7) 0.99911(17)
N6_6 N 0.11106(9) 0.15019(10) 0.9891(3)
C20_6 C 0.24970(9) 0.16953(10) 0.9300(2)
C21_6 C 0.24418(9) 0.20209(10) 0.9076(2)
C22_6 C 0.25674(12) 0.21337(12) 0.8385(3)
H22_6 H 0.2524 0.2353 0.8227
C23_6 C 0.27543(13) 0.19304(15) 0.7925(3)
H23_5 H 0.2837 0.2007 0.7450
C24_6 C 0.28177(12) 0.16193(14) 0.8165(3)
H24_6 H 0.2948 0.1479 0.7853
C25_6 C 0.26982(11) 0.15029(12) 0.8844(3)
H25_6 H 0.2754 0.1287 0.9005
C26_6 C 0.22648(9) 0.22603(9) 0.9553(2)
C34_6 C 0.11226(16) 0.13907(16) 0.9110(4)
H38_6 H 0.1350 0.1398 0.8926
H39_6 H 0.0985 0.1533 0.8792
H40_6 H 0.1041 0.1164 0.9081
H42_6 H 0.0636 0.1611 0.9986
C49_6 C 0.43352(12) 0.01750(13) 0.8521(3)
H59_6 H 0.4547 0.0258 0.8402
C50_6 C 0.41275(14) 0.03666(14) 0.8940(3)
H60_6 H 0.4199 0.0576 0.9117
C51_6 C 0.38159(16) 0.02586(13) 0.9107(3)
C54_6 C 0.35839(19) 0.04790(15) 0.9550(4)
H63_6 H 0.3354 0.0412 0.9450
H64_6 H 0.3611 0.0709 0.9378
C52_5 C 0.37398(16) 0.99497(13) 0.8880(3)
H61_5 H 0.3533 0.9858 0.9015
C53_5 C 0.39567(13) 0.97697(11) 0.8459(3)
H62_5 H 0.3893 0.9557 0.8292
C12_7 C 0.3304(5) 0.7365(3) 0.0352(7)
H11_7 H 0.3067 0.7400 0.0446
H12_7 H 0.3364 0.7157 0.0610
C13_6 C 0.3493(3) 0.7649(2) 0.0771(7)
H13_6 H 0.3562 0.7814 0.0395
H14_6 H 0.3348 0.7751 0.1150
H15_6 H 0.3687 0.7558 0.1028
O4_7 O 0.23740(7) 0.65599(6) 0.00726(17)
O6_7 O 0.16506(7) 0.66157(7) 0.00089(17)
N6_7 N 0.11106(9) 0.65019(10) 0.0109(3)
C20_7 C 0.24970(9) 0.66953(10) 0.0700(2)
C21_7 C 0.24418(9) 0.70209(10) 0.0924(2)
C22_7 C 0.25674(12) 0.71337(12) 0.1615(3)
H22_7 H 0.2524 0.7353 0.1773
C23_7 C 0.27543(13) 0.69304(15) 0.2075(3)
H23_6 H 0.2837 0.7007 0.2550
C24_7 C 0.28177(12) 0.66193(14) 0.1835(3)
H24_7 H 0.2948 0.6479 0.2147
C25_7 C 0.26982(11) 0.65029(12) 0.1156(3)
H25_7 H 0.2754 0.6287 0.0995
C26_7 C 0.22648(9) 0.72603(9) 0.0447(2)
C34_7 C 0.11226(16) 0.63907(16) 0.0890(4)
H38_7 H 0.1350 0.6398 0.1074
H39_7 H 0.0985 0.6533 0.1208
H40_7 H 0.1041 0.6164 0.0919
H42_7 H 0.0636 0.6611 0.0014
N9_4 N 0.42534(9) 0.48783(8) 0.17280(19)
C49_7 C 0.43352(12) 0.51750(13) 0.1479(3)
H59_7 H 0.4547 0.5258 0.1598
C50_7 C 0.41275(14) 0.53666(14) 0.1060(3)
H60_7 H 0.4199 0.5576 0.0883
C51_7 C 0.38159(16) 0.52586(13) 0.0893(3)
C52_6 C 0.37398(16) 0.49497(13) 0.1120(3)
H61_6 H 0.3533 0.4858 0.0985
C53_6 C 0.39567(13) 0.47697(11) 0.1541(3)
H62_6 H 0.3893 0.4557 0.1708
C54_7 C 0.35839(19) 0.54790(15) 0.0450(4)
H63_7 H 0.3354 0.5412 0.0550
H64_7 H 0.3611 0.5709 0.0622
Mn1_5 Mn 0.613430(13) 0.030151(13) 0.47514(3)
O1_5 O 0.64893(6) 0.00785(6) 0.43468(15)
O3_6 O 0.57616(6) 0.04800(6) 0.52871(15)
N2_6 N 0.57861(7) 0.00021(7) 0.59609(18)
N3_6 N 0.64650(8) 0.05817(8) 0.55845(19)
C8_6 C 0.56508(9) 0.02819(9) 0.5808(2)
C9_6 C 0.53638(10) 0.03978(10) 0.6271(3)
H5_6 H 0.5187 0.0473 0.5924
H6_6 H 0.5277 0.0213 0.6580
C10_6 C 0.54647(17) 0.06823(18) 0.6808(5)
H7_6 H 0.5580 0.0853 0.6505
H8_6 H 0.5620 0.0598 0.7196
C11_6 C 0.5176(3) 0.0836(3) 0.7207(6)
H9_5 H 0.4976 0.0754 0.6948
H10_6 H 0.5187 0.1075 0.7107
C12_8 C 0.5135(3) 0.0804(5) 0.7852(7)
H11_8 H 0.5100 0.0567 0.7946
H12_8 H 0.5343 0.0864 0.8110
C13_7 C 0.4851(2) 0.0993(3) 0.8271(7)
H13_7 H 0.4686 0.1062 0.7895
H14_7 H 0.4749 0.0848 0.8650
H15_7 H 0.4942 0.1187 0.8528
C14_6 C 0.66988(11) 0.07838(10) 0.5353(3)
H16_5 H 0.6736 0.0805 0.4819
C15_6 C 0.68904(11) 0.09637(11) 0.5842(3)
H17_6 H 0.7057 0.1105 0.5647
C16_6 C 0.68411(13) 0.09393(13) 0.6612(3)
C17_6 C 0.66014(14) 0.07250(13) 0.6862(3)
H18_6 H 0.6562 0.0697 0.7394
C18_6 C 0.64204(12) 0.05528(12) 0.6337(3)
H19_6 H 0.6256 0.0406 0.6517
C19_6 C 0.70426(19) 0.11498(18) 0.7163(3)
H20_6 H 0.6978 0.1382 0.7083
H21_6 H 0.7276 0.1130 0.7013
C22_8 C 0.53663(12) 0.00674(12) 0.9115(3)
H22_8 H 0.5147 0.0024 0.9273
C23_8 C 0.55696(15) 0.02543(13) 0.9575(3)
C24_8 C 0.58807(14) 0.03177(12) 0.9335(3)
H24_8 H 0.6021 0.0448 0.9647
C25_8 C 0.59971(12) 0.01982(11) 0.8656(3)
H25_8 H 0.6213 0.0254 0.8495
O8_6 O 0.54853(6) 0.07963(6) 0.21807(16)
O9_5 O 0.61545(6) 0.06712(6) 0.40141(15)
N7_5 N 0.57428(7) 0.04368(7) 0.33329(17)
N8_5 N 0.57830(7) 0.01647(7) 0.38220(17)
N9_5 N 0.76217(8) 0.17534(9) 0.92280(19)
C36_6 C 0.57261(9) 0.10049(9) 0.2347(2)
C37_5 C 0.59515(9) 0.09630(9) 0.2940(2)
C38_5 C 0.61962(10) 0.11992(9) 0.3045(3)
H44_5 H 0.6350 0.1171 0.3448
C39_5 C 0.62209(11) 0.14683(10) 0.2591(3)
H45_5 H 0.6393 0.1623 0.2667
C40_6 C 0.59931(12) 0.15152(11) 0.2017(3)
H46_6 H 0.6004 0.1707 0.1707
C41_6 C 0.57496(11) 0.12866(11) 0.1892(3)
H47_6 H 0.5596 0.1321 0.1491
C42_5 C 0.59502(8) 0.06779(8) 0.3454(2)
C49_8 C 0.73250(13) 0.18352(12) 0.8979(3)
H59_8 H 0.7242 0.2047 0.9098
C50_8 C 0.71334(14) 0.16275(14) 0.8560(3)
H60_8 H 0.6924 0.1699 0.8383
C51_8 C 0.72414(13) 0.13159(16) 0.8393(3)
C52_7 C 0.75503(13) 0.12398(16) 0.8620(3)
H61_7 H 0.7642 0.1033 0.8485
C53_7 C 0.77303(11) 0.14567(13) 0.9041(3)
H62_7 H 0.7943 0.1393 0.9208
C54_8 C 0.70210(15) 0.10839(19) 0.7950(4)
H63_8 H 0.7088 0.0854 0.8050
H64_8 H 0.6791 0.1111 0.8122
N11_3 N 0.57466(9) 0.01217(8) 0.17280(19)
O2_6 O 0.61812(6) 0.95247(6) 0.62786(15)
N1_6 N 0.60666(7) 0.99560(7) 0.54986(17)
C1_5 C 0.66615(9) 0.98352(9) 0.4657(2)
C2_6 C 0.65648(8) 0.96522(9) 0.5300(2)
C3_6 C 0.67728(9) 0.94018(9) 0.5559(2)
H1_6 H 0.6709 0.9277 0.5995
C4_6 C 0.70643(10) 0.93300(10) 0.5207(3)
H2_6 H 0.7201 0.9159 0.5395
C5_5 C 0.71553(11) 0.95098(11) 0.4575(3)
H3_5 H 0.7358 0.9462 0.4328
C6_5 C 0.69595(10) 0.97562(11) 0.4297(3)
H4_5 H 0.7026 0.9875 0.3856
C7_6 C 0.62563(8) 0.97108(9) 0.5715(2)
Mn2_6 Mn 0.576508(13) 0.959812(13) 0.68299(3)
O4_8 O 0.59401(6) 0.98740(7) 0.75726(17)
O6_8 O 0.58843(7) 0.91506(7) 0.75089(17)
O7_6 O 0.55116(6) 0.93339(6) 0.61279(15)
N4_6 N 0.53350(7) 0.96398(7) 0.72903(17)
N6_8 N 0.59981(10) 0.86106(9) 0.7609(3)
C20_8 C 0.58047(10) 0.99970(9) 0.8200(2)
C21_8 C 0.54791(10) 0.99418(9) 0.8424(2)
C26_8 C 0.52397(9) 0.97648(9) 0.7947(2)
C27_6 C 0.51987(9) 0.93388(9) 0.6277(2)
C28_5 C 0.49737(10) 0.91677(10) 0.5731(2)
H26_5 H 0.4744 0.9193 0.5909
H27_5 H 0.4991 0.9273 0.5221
C29_6 C 0.50538(11) 0.88057(12) 0.5657(3)
H28_5 H 0.4918 0.8709 0.5244
H29_6 H 0.5287 0.8781 0.5509
C30_5 C 0.49933(14) 0.86173(12) 0.6392(4)
H30_5 H 0.4764 0.8655 0.6557
H31_6 H 0.5139 0.8705 0.6795
C31_6 C 0.5051(2) 0.82553(15) 0.6319(6)
H32_5 H 0.4902 0.8166 0.5922
H33_6 H 0.5280 0.8217 0.6148
C32_5 C 0.4994(2) 0.80738(18) 0.7056(6)
H34_5 H 0.4766 0.8104 0.7220
H35_6 H 0.5037 0.7839 0.6979
H36_6 H 0.5142 0.8159 0.7451
C33_6 C 0.58971(10) 0.88784(11) 0.7239(3)
H37_6 H 0.5830 0.8853 0.6722
C34_8 C 0.61093(16) 0.86226(16) 0.8390(4)
H38_8 H 0.6102 0.8850 0.8574
H39_8 H 0.5967 0.8485 0.8708
H40_8 H 0.6336 0.8541 0.8419
C35_6 C 0.60235(19) 0.82975(13) 0.7239(5)
H41_6 H 0.6253 0.8226 0.7240
H42_8 H 0.5889 0.8136 0.7514
H43_6 H 0.5946 0.8316 0.6710
O10_5 O 0.53739(6) 0.99617(6) 0.30809(14)
C43_5 C 0.55839(9) 0.99320(9) 0.3635(2)
C44_5 C 0.55973(11) 0.96080(9) 0.4028(2)
H48_5 H 0.5373 0.9541 0.4181
H49_5 H 0.5732 0.9627 0.4498
C45_5 C 0.57461(14) 0.93440(11) 0.3500(3)
H50_5 H 0.5719 0.9126 0.3743
H51_5 H 0.5623 0.9342 0.3011
C46_5 C 0.61046(14) 0.93998(15) 0.3333(4)
H52_5 H 0.6226 0.9400 0.3824
H53_5 H 0.6130 0.9620 0.3102
C47_5 C 0.6261(2) 0.91479(17) 0.2802(5)
H54_5 H 0.6229 0.8926 0.3020
H55_6 H 0.6147 0.9155 0.2301
C48_5 C 0.6620(2) 0.9203(3) 0.2676(7)
H56_5 H 0.6661 0.9438 0.2589
H57_6 H 0.6693 0.9078 0.2228
H58_5 H 0.6743 0.9130 0.3128
O8_7 O 0.82963(6) 0.20147(6) 0.96807(16)
C36_7 C 0.85049(9) 0.17739(9) 0.9847(2)
C40_7 C 0.90152(11) 0.15069(12) 0.9517(3)
H46_7 H 0.9207 0.1496 0.9207
C41_7 C 0.87866(11) 0.17504(11) 0.9392(3)
H47_7 H 0.8821 0.1904 0.8991
H55_7 H 0.6655 0.1353 0.9801
H57_7 H 0.6578 0.0807 0.9728
Mn1_6 Mn 0.386570(13) 0.469849(13) 0.47514(3)
O1_6 O 0.35107(6) 0.49215(6) 0.43468(15)
O2_7 O 0.38188(6) 0.54753(6) 0.62786(15)
O3_7 O 0.42384(6) 0.45200(6) 0.52871(15)
N1_7 N 0.39334(7) 0.50440(7) 0.54986(17)
N2_7 N 0.42139(7) 0.49979(7) 0.59609(18)
N3_7 N 0.35350(8) 0.44183(8) 0.55845(19)
C1_6 C 0.33385(9) 0.51648(9) 0.4657(2)
C2_7 C 0.34352(8) 0.53478(9) 0.5300(2)
C3_7 C 0.32272(9) 0.55982(9) 0.5559(2)
H1_7 H 0.3291 0.5723 0.5995
C4_7 C 0.29357(10) 0.56700(10) 0.5207(3)
H2_7 H 0.2799 0.5841 0.5395
C5_6 C 0.28447(11) 0.54902(11) 0.4575(3)
H3_6 H 0.2642 0.5538 0.4328
C6_6 C 0.30405(10) 0.52438(11) 0.4297(3)
H4_6 H 0.2974 0.5125 0.3856
C7_7 C 0.37437(8) 0.52892(9) 0.5715(2)
C8_7 C 0.43492(9) 0.47181(9) 0.5808(2)
C9_7 C 0.46362(10) 0.46022(10) 0.6271(3)
H5_7 H 0.4813 0.4527 0.5924
H6_7 H 0.4723 0.4787 0.6580
C10_7 C 0.45353(17) 0.43177(18) 0.6808(5)
H7_7 H 0.4420 0.4147 0.6505
H8_7 H 0.4380 0.4402 0.7196
C11_7 C 0.4824(3) 0.4164(3) 0.7207(6)
H9_6 H 0.5024 0.4246 0.6948
H10_7 H 0.4813 0.3925 0.7107
C12_9 C 0.4865(3) 0.4196(5) 0.7852(7)
H11_9 H 0.4900 0.4433 0.7946
H12_9 H 0.4657 0.4136 0.8110
C13_8 C 0.5149(2) 0.4007(3) 0.8271(7)
H13_8 H 0.5314 0.3938 0.7895
H14_8 H 0.5251 0.4152 0.8650
H15_8 H 0.5058 0.3813 0.8528
C14_7 C 0.33012(11) 0.42162(10) 0.5353(3)
H16_6 H 0.3264 0.4195 0.4819
C15_7 C 0.31096(11) 0.40363(11) 0.5842(3)
H17_7 H 0.2943 0.3895 0.5647
C16_7 C 0.31589(13) 0.40607(13) 0.6612(3)
C17_7 C 0.33986(14) 0.42750(13) 0.6862(3)
H18_7 H 0.3438 0.4303 0.7394
C18_7 C 0.35796(12) 0.44472(12) 0.6337(3)
H19_7 H 0.3744 0.4594 0.6517
C19_7 C 0.29574(19) 0.38502(18) 0.7163(3)
H20_7 H 0.3022 0.3618 0.7083
H21_7 H 0.2724 0.3870 0.7013
Mn2_7 Mn 0.423492(13) 0.540188(13) 0.68299(3)
O4_9 O 0.40599(6) 0.51260(7) 0.75726(17)
O6_9 O 0.41157(7) 0.58494(7) 0.75089(17)
O7_7 O 0.44884(6) 0.56661(6) 0.61279(15)
N4_7 N 0.46650(7) 0.53602(7) 0.72903(17)
N6_9 N 0.40019(10) 0.63894(9) 0.7609(3)
C20_9 C 0.41953(10) 0.50030(9) 0.8200(2)
C21_9 C 0.45209(10) 0.50582(9) 0.8424(2)
C22_9 C 0.46337(12) 0.49326(12) 0.9115(3)
H22_9 H 0.4853 0.4976 0.9273
C23_9 C 0.44304(15) 0.47457(13) 0.9575(3)
C24_9 C 0.41193(14) 0.46823(12) 0.9335(3)
H24_9 H 0.3979 0.4552 0.9647
C25_9 C 0.40029(12) 0.48018(11) 0.8656(3)
H25_9 H 0.3787 0.4746 0.8495
C26_9 C 0.47603(9) 0.52352(9) 0.7947(2)
C27_7 C 0.48013(9) 0.56612(9) 0.6277(2)
C28_6 C 0.50263(10) 0.58323(10) 0.5731(2)
H26_6 H 0.5256 0.5807 0.5909
H27_6 H 0.5009 0.5727 0.5221
C29_7 C 0.49462(11) 0.61943(12) 0.5657(3)
H28_6 H 0.5082 0.6291 0.5244
H29_7 H 0.4713 0.6219 0.5509
C30_6 C 0.50067(14) 0.63827(12) 0.6392(4)
H30_6 H 0.5236 0.6345 0.6557
H31_7 H 0.4861 0.6295 0.6795
C31_7 C 0.4949(2) 0.67447(15) 0.6319(6)
H32_6 H 0.5098 0.6834 0.5922
H33_7 H 0.4720 0.6783 0.6148
C32_6 C 0.5006(2) 0.69262(18) 0.7056(6)
H34_6 H 0.5234 0.6896 0.7220
H35_7 H 0.4963 0.7161 0.6979
H36_7 H 0.4858 0.6841 0.7451
C33_7 C 0.41029(10) 0.61216(11) 0.7239(3)
H37_7 H 0.4170 0.6147 0.6722
C34_9 C 0.38907(16) 0.63774(16) 0.8390(4)
H38_9 H 0.3898 0.6150 0.8574
H39_9 H 0.4033 0.6515 0.8708
H40_9 H 0.3664 0.6459 0.8419
C35_7 C 0.39765(19) 0.67025(13) 0.7239(5)
H41_7 H 0.3747 0.6774 0.7240
H42_9 H 0.4111 0.6864 0.7514
H43_7 H 0.4054 0.6684 0.6710
O8_8 O 0.45147(6) 0.42037(6) 0.21807(16)
O9_6 O 0.38455(6) 0.43288(6) 0.40141(15)
O10_6 O 0.46261(6) 0.50383(6) 0.30809(14)
N7_6 N 0.42572(7) 0.45632(7) 0.33329(17)
N8_6 N 0.42170(7) 0.48353(7) 0.38220(17)
N9_6 N 0.23783(8) 0.32466(9) 0.92280(19)
C36_8 C 0.42739(9) 0.39951(9) 0.2347(2)
C37_6 C 0.40485(9) 0.40370(9) 0.2940(2)
C38_6 C 0.38038(10) 0.38008(9) 0.3045(3)
H44_6 H 0.3650 0.3829 0.3448
C39_6 C 0.37791(11) 0.35317(10) 0.2591(3)
H45_6 H 0.3607 0.3377 0.2667
C40_8 C 0.40069(12) 0.34848(11) 0.2017(3)
H46_8 H 0.3996 0.3293 0.1707
C41_8 C 0.42504(11) 0.37134(11) 0.1892(3)
H47_8 H 0.4404 0.3679 0.1491
C42_6 C 0.40498(8) 0.43221(8) 0.3454(2)
C43_6 C 0.44161(9) 0.50680(9) 0.3635(2)
C44_6 C 0.44027(11) 0.53920(9) 0.4028(2)
H48_6 H 0.4627 0.5459 0.4181
H49_6 H 0.4268 0.5373 0.4498
C45_6 C 0.42539(14) 0.56560(11) 0.3500(3)
H50_6 H 0.4281 0.5874 0.3743
H51_6 H 0.4377 0.5658 0.3011
C46_6 C 0.38954(14) 0.56002(15) 0.3333(4)
H52_6 H 0.3774 0.5600 0.3824
H53_6 H 0.3870 0.5380 0.3102
C47_6 C 0.3739(2) 0.58521(17) 0.2802(5)
H54_6 H 0.3771 0.6074 0.3020
H55_8 H 0.3853 0.5845 0.2301
C48_6 C 0.3380(2) 0.5797(3) 0.2676(7)
H56_6 H 0.3339 0.5562 0.2589
H57_8 H 0.3307 0.5922 0.2228
H58_6 H 0.3257 0.5870 0.3128
C49_9 C 0.26750(13) 0.31648(12) 0.8979(3)
H59_9 H 0.2758 0.2953 0.9098
C50_9 C 0.28666(14) 0.33725(14) 0.8560(3)
H60_9 H 0.3076 0.3301 0.8383
C51_9 C 0.27586(13) 0.36841(16) 0.8393(3)
C52_8 C 0.24497(13) 0.37602(16) 0.8620(3)
H61_8 H 0.2358 0.3967 0.8485
C53_8 C 0.22697(11) 0.35433(13) 0.9041(3)
H62_8 H 0.2057 0.3607 0.9208
C54_9 C 0.29790(15) 0.39161(19) 0.7950(4)
H63_9 H 0.2912 0.4146 0.8050
H64_9 H 0.3209 0.3889 0.8122
O8_9 O 0.17037(6) 0.29853(6) 0.96807(16)
C36_9 C 0.14951(9) 0.32261(9) 0.9847(2)
C40_9 C 0.09848(11) 0.34931(12) 0.9517(3)
H46_9 H 0.0793 0.3504 0.9207
C41_9 C 0.12134(11) 0.32496(11) 0.9392(3)
H47_9 H 0.1179 0.3096 0.8991
H55_9 H 0.3345 0.3647 0.9801
H57_9 H 0.3422 0.4193 0.9728
C52_9 C 0.62602(16) 0.00503(13) 0.1120(3)
H61_9 H 0.6467 0.0142 0.0985
C53_9 C 0.60433(13) 0.02303(11) 0.1541(3)
H62_9 H 0.6107 0.0443 0.1708
C12_10 C 0.6696(5) 0.7635(3) 0.0352(7)
H11_10 H 0.6933 0.7600 0.0446
H12_10 H 0.6636 0.7843 0.0610
C13_9 C 0.6507(3) 0.7351(2) 0.0771(7)
H13_9 H 0.6438 0.7186 0.0395
H14_9 H 0.6652 0.7249 0.1150
H15_9 H 0.6313 0.7442 0.1028
O4_10 O 0.76260(7) 0.84401(6) 0.00726(17)
O6_10 O 0.83494(7) 0.83843(7) 0.00089(17)
N6_10 N 0.88894(9) 0.84981(10) 0.0109(3)
C20_10 C 0.75030(9) 0.83047(10) 0.0700(2)
C21_10 C 0.75582(9) 0.79791(10) 0.0924(2)
C22_10 C 0.74326(12) 0.78663(12) 0.1615(3)
H22_10 H 0.7476 0.7647 0.1773
C23_10 C 0.72457(13) 0.80696(15) 0.2075(3)
H23_7 H 0.7163 0.7993 0.2550
C24_10 C 0.71823(12) 0.83807(14) 0.1835(3)
H24_10 H 0.7052 0.8521 0.2147
C25_10 C 0.73018(11) 0.84971(12) 0.1156(3)
H25_10 H 0.7246 0.8713 0.0995
C26_10 C 0.77352(9) 0.77397(9) 0.0447(2)
C34_10 C 0.88774(16) 0.86093(16) 0.0890(4)
H38_10 H 0.8650 0.8602 0.1074
H39_10 H 0.9015 0.8467 0.1208
H40_10 H 0.8959 0.8836 0.0919
H42_10 H 0.9364 0.8389 0.0014
C49_10 C 0.56648(12) 0.98250(13) 0.1479(3)
H59_10 H 0.5453 0.9742 0.1598
C50_10 C 0.58725(14) 0.96334(14) 0.1060(3)
H60_10 H 0.5801 0.9424 0.0883
C51_10 C 0.61841(16) 0.97414(13) 0.0893(3)
C54_10 C 0.64161(19) 0.95210(15) 0.0450(4)
H63_10 H 0.6646 0.9588 0.0550
H64_10 H 0.6389 0.9291 0.0622
H23_8 H 0.4507 0.9663 0.9950
Mn5_2 Mn 0.212100(13) 0.790300(13) 0.99333(3)
Mn1_7 Mn 0.219849(13) 0.863430(13) 0.77486(3)
O1_7 O 0.24215(6) 0.89893(6) 0.81532(15)
O2_8 O 0.29753(6) 0.86812(6) 0.62214(15)
O3_8 O 0.20200(6) 0.82616(6) 0.72129(15)
N1_8 N 0.25440(7) 0.85666(7) 0.70014(17)
N2_8 N 0.24979(7) 0.82861(7) 0.65391(18)
N3_8 N 0.19183(8) 0.89650(8) 0.69155(19)
C1_7 C 0.26648(9) 0.91615(9) 0.7843(2)
C2_8 C 0.28478(9) 0.90648(8) 0.7200(2)
C3_8 C 0.30982(9) 0.92728(9) 0.6941(2)
H1_8 H 0.3223 0.9209 0.6505
C4_8 C 0.31700(10) 0.95643(10) 0.7293(3)
H2_8 H 0.3341 0.9701 0.7105
C5_7 C 0.29902(11) 0.96553(11) 0.7925(3)
H3_7 H 0.3038 0.9858 0.8172
C6_7 C 0.27438(11) 0.94595(10) 0.8203(3)
H4_7 H 0.2625 0.9526 0.8644
C7_8 C 0.27892(9) 0.87563(8) 0.6785(2)
C8_8 C 0.22181(9) 0.81508(9) 0.6692(2)
C9_8 C 0.21022(10) 0.78638(10) 0.6229(3)
H5_8 H 0.2027 0.7687 0.6576
H6_8 H 0.2287 0.7777 0.5920
C10_8 C 0.18177(18) 0.79647(17) 0.5692(5)
H7_8 H 0.1647 0.8080 0.5995
H8_8 H 0.1902 0.8120 0.5304
C11_8 C 0.1664(3) 0.7676(3) 0.5293(6)
H9_7 H 0.1746 0.7476 0.5552
H10_8 H 0.1425 0.7687 0.5393
C12_11 C 0.1696(5) 0.7635(3) 0.4648(7)
H11_11 H 0.1933 0.7600 0.4554
H12_11 H 0.1636 0.7843 0.4390
C13_10 C 0.1507(3) 0.7351(2) 0.4229(7)
H13_10 H 0.1438 0.7186 0.4605
H14_10 H 0.1652 0.7249 0.3850
H15_10 H 0.1313 0.7442 0.3972
C14_8 C 0.17162(10) 0.91988(11) 0.7147(3)
H16_7 H 0.1695 0.9236 0.7681
C15_8 C 0.15363(11) 0.93904(11) 0.6658(3)
H17_8 H 0.1395 0.9557 0.6853
C16_8 C 0.15607(13) 0.93411(13) 0.5888(3)
C17_8 C 0.17750(13) 0.91014(14) 0.5638(3)
H18_8 H 0.1803 0.9062 0.5106
C18_8 C 0.19472(12) 0.89204(12) 0.6163(3)
H19_8 H 0.2094 0.8756 0.5983
C19_8 C 0.13502(18) 0.95426(19) 0.5337(3)
H20_8 H 0.1118 0.9478 0.5417
H21_8 H 0.1370 0.9776 0.5487
Mn2_8 Mn 0.290188(13) 0.826508(13) 0.56701(3)
O4_11 O 0.26260(7) 0.84401(6) 0.49274(17)
O5_5 O 0.27543(6) 0.74428(6) 0.43258(14)
O6_11 O 0.33494(7) 0.83843(7) 0.49911(17)
O7_8 O 0.31661(6) 0.80116(6) 0.63721(15)
N4_8 N 0.28602(7) 0.78350(7) 0.52097(17)
N5_5 N 0.30141(7) 0.75795(7) 0.56263(17)
N6_11 N 0.38894(9) 0.84981(10) 0.4891(3)
C20_11 C 0.25030(9) 0.83047(10) 0.4300(2)
C21_11 C 0.25582(9) 0.79791(10) 0.4076(2)
C22_11 C 0.24326(12) 0.78663(12) 0.3385(3)
H22_11 H 0.2476 0.7647 0.3227
C23_11 C 0.22457(13) 0.80696(15) 0.2925(3)
H23_9 H 0.2163 0.7993 0.2450
C24_11 C 0.21823(12) 0.83807(14) 0.3165(3)
H24_11 H 0.2052 0.8521 0.2853
C25_11 C 0.23018(11) 0.84971(12) 0.3844(3)
H25_11 H 0.2246 0.8713 0.4005
C26_11 C 0.27352(9) 0.77397(9) 0.4553(2)
C27_8 C 0.31612(9) 0.76987(9) 0.6223(2)
C28_7 C 0.33323(10) 0.74737(10) 0.6769(2)
H26_7 H 0.3307 0.7244 0.6591
H27_7 H 0.3227 0.7491 0.7279
C29_8 C 0.36943(12) 0.75538(11) 0.6843(3)
H28_7 H 0.3791 0.7418 0.7256
H29_8 H 0.3719 0.7787 0.6991
C30_7 C 0.38827(12) 0.74933(14) 0.6108(4)
H30_7 H 0.3845 0.7264 0.5943
H31_8 H 0.3795 0.7639 0.5705
C31_8 C 0.42447(15) 0.7551(2) 0.6181(6)
H32_7 H 0.4334 0.7402 0.6578
H33_8 H 0.4283 0.7780 0.6352
C32_7 C 0.44262(18) 0.7494(2) 0.5444(6)
H34_7 H 0.4396 0.7266 0.5280
H35_8 H 0.4661 0.7537 0.5521
H36_8 H 0.4341 0.7642 0.5049
C33_8 C 0.36216(11) 0.83971(10) 0.5261(3)
H37_8 H 0.3647 0.8330 0.5778
C34_11 C 0.38774(16) 0.86093(16) 0.4110(4)
H38_11 H 0.3650 0.8602 0.3926
H39_11 H 0.4015 0.8467 0.3792
H40_11 H 0.3959 0.8836 0.4081
C35_8 C 0.42025(13) 0.85235(19) 0.5261(5)
H41_8 H 0.4274 0.8753 0.5260
H42_11 H 0.4364 0.8389 0.4986
H43_8 H 0.4184 0.8446 0.5790
O9_7 O 0.18288(6) 0.86545(6) 0.84859(15)
O10_7 O 0.25383(6) 0.78739(6) 0.94191(14)
N7_7 N 0.20632(7) 0.82428(7) 0.91671(17)
N8_7 N 0.23353(7) 0.82830(7) 0.86780(17)
C37_7 C 0.15370(9) 0.84515(9) 0.9560(2)
C38_7 C 0.13008(9) 0.86962(10) 0.9455(3)
H44_7 H 0.1329 0.8850 0.9052
C39_7 C 0.10317(10) 0.87209(11) 0.9909(3)
H45_7 H 0.0877 0.8893 0.9833
C42_7 C 0.18221(8) 0.84502(8) 0.9046(2)
C43_7 C 0.25680(9) 0.80839(9) 0.8865(2)
C44_7 C 0.28920(9) 0.80973(11) 0.8472(2)
H48_7 H 0.2959 0.7873 0.8319
H49_7 H 0.2873 0.8232 0.8002
C45_7 C 0.31560(11) 0.82461(14) 0.9000(3)
H50_7 H 0.3374 0.8219 0.8757
H51_7 H 0.3158 0.8123 0.9489
C46_7 C 0.31002(15) 0.86046(14) 0.9167(4)
H52_7 H 0.3100 0.8726 0.8676
H53_7 H 0.2880 0.8630 0.9398
C47_7 C 0.33521(17) 0.8761(2) 0.9698(5)
H54_7 H 0.3574 0.8729 0.9480
C48_7 C 0.3297(3) 0.9120(2) 0.9824(7)
H56_7 H 0.3062 0.9161 0.9911
H58_7 H 0.3370 0.9243 0.9372
C49_11 C 0.06648(12) 0.98250(13) 0.3521(3)
H59_11 H 0.0453 0.9742 0.3402
C50_11 C 0.08725(14) 0.96334(14) 0.3940(3)
H60_11 H 0.0801 0.9424 0.4117
C51_11 C 0.11841(16) 0.97414(13) 0.4107(3)
C54_11 C 0.14161(19) 0.95210(15) 0.4550(4)
H63_11 H 0.1646 0.9588 0.4450
H64_11 H 0.1389 0.9291 0.4378
N10_4 N 0.19859(7) 0.74205(7) 0.93737(17)
Mn4_4 Mn 0.287900(13) 0.709700(13) 0.50667(3)
N10_5 N 0.00795(7) 0.44859(7) 0.18737(17)
Mn1_8 Mn 0.280151(13) 0.636570(13) 0.72514(3)
O1_8 O 0.25785(6) 0.60107(6) 0.68468(15)
O2_9 O 0.20247(6) 0.63188(6) 0.87786(15)
O3_9 O 0.29800(6) 0.67384(6) 0.77871(15)
N1_9 N 0.24560(7) 0.64334(7) 0.79986(17)
N2_9 N 0.25021(7) 0.67139(7) 0.84609(18)
N3_9 N 0.30817(8) 0.60350(8) 0.80845(19)
C1_8 C 0.23352(9) 0.58385(9) 0.7157(2)
C2_9 C 0.21522(9) 0.59352(8) 0.7800(2)
C3_9 C 0.19018(9) 0.57272(9) 0.8059(2)
H1_9 H 0.1777 0.5791 0.8495
C4_9 C 0.18300(10) 0.54357(10) 0.7707(3)
H2_9 H 0.1659 0.5299 0.7895
C5_8 C 0.20098(11) 0.53447(11) 0.7075(3)
H3_8 H 0.1962 0.5142 0.6828
C6_8 C 0.22562(11) 0.55405(10) 0.6797(3)
H4_8 H 0.2375 0.5474 0.6356
C7_9 C 0.22108(9) 0.62437(8) 0.8215(2)
C8_9 C 0.27819(9) 0.68492(9) 0.8308(2)
C9_9 C 0.28978(10) 0.71362(10) 0.8771(3)
H5_9 H 0.2973 0.7313 0.8424
H6_9 H 0.2713 0.7223 0.9080
C10_9 C 0.31823(18) 0.70353(17) 0.9308(5)
H7_9 H 0.3353 0.6920 0.9005
H8_9 H 0.3098 0.6880 0.9696
C11_9 C 0.3336(3) 0.7324(3) 0.9707(6)
H9_8 H 0.3254 0.7524 0.9448
H10_9 H 0.3575 0.7313 0.9607
C14_9 C 0.32838(10) 0.58012(11) 0.7853(3)
H16_8 H 0.3305 0.5764 0.7319
C15_9 C 0.34637(11) 0.56096(11) 0.8342(3)
H17_9 H 0.3605 0.5443 0.8147
C16_9 C 0.34393(13) 0.56589(13) 0.9112(3)
C17_9 C 0.32250(13) 0.58986(14) 0.9362(3)
H18_9 H 0.3197 0.5938 0.9894
C18_9 C 0.30528(12) 0.60796(12) 0.8837(3)
H19_9 H 0.2906 0.6244 0.9017
C19_9 C 0.36498(18) 0.54574(19) 0.9663(3)
H20_9 H 0.3882 0.5522 0.9583
H21_9 H 0.3630 0.5224 0.9513
Mn2_9 Mn 0.209812(13) 0.673492(13) 0.93299(3)
O7_9 O 0.18339(6) 0.69884(6) 0.86279(15)
N4_9 N 0.21398(7) 0.71650(7) 0.97903(17)
C27_9 C 0.18388(9) 0.73013(9) 0.8777(2)
C28_8 C 0.16677(10) 0.75263(10) 0.8231(2)
H26_8 H 0.1693 0.7756 0.8409
H27_8 H 0.1773 0.7509 0.7721
C29_9 C 0.13057(12) 0.74462(11) 0.8157(3)
H28_8 H 0.1209 0.7582 0.7744
H29_9 H 0.1281 0.7213 0.8009
C30_8 C 0.11173(12) 0.75067(14) 0.8892(4)
H30_8 H 0.1155 0.7736 0.9057
H31_9 H 0.1205 0.7361 0.9295
C31_9 C 0.07553(15) 0.7449(2) 0.8819(6)
H32_8 H 0.0666 0.7598 0.8422
H33_9 H 0.0717 0.7220 0.8648
C32_8 C 0.05738(18) 0.7506(2) 0.9556(6)
H34_8 H 0.0604 0.7734 0.9720
H35_9 H 0.0339 0.7463 0.9479
H36_9 H 0.0659 0.7358 0.9951
C33_9 C 0.13784(11) 0.66029(10) 0.9739(3)
H37_9 H 0.1353 0.6670 0.9222
C35_9 C 0.07975(13) 0.64765(19) 0.9739(5)
H41_9 H 0.0726 0.6247 0.9740
H43_9 H 0.0816 0.6554 0.9210
O8_10 O 0.32963(6) 0.70147(6) 0.46807(16)
O9_8 O 0.31712(6) 0.63455(6) 0.65141(15)
O10_8 O 0.24617(6) 0.71261(6) 0.55809(14)
N7_8 N 0.29368(7) 0.67572(7) 0.58329(17)
N8_8 N 0.26647(7) 0.67170(7) 0.63220(17)
C36_10 C 0.35049(9) 0.67739(9) 0.4847(2)
C37_8 C 0.34630(9) 0.65485(9) 0.5440(2)
C38_8 C 0.36992(9) 0.63038(10) 0.5545(3)
H44_8 H 0.3671 0.6150 0.5948
C39_8 C 0.39683(10) 0.62791(11) 0.5091(3)
H45_8 H 0.4123 0.6107 0.5167
C40_10 C 0.40152(11) 0.65069(12) 0.4517(3)
H46_10 H 0.4207 0.6496 0.4207
C41_10 C 0.37866(11) 0.67504(11) 0.4392(3)
H47_10 H 0.3821 0.6904 0.3991
C42_8 C 0.31779(8) 0.65498(8) 0.5954(2)
C43_8 C 0.24320(9) 0.69161(9) 0.6135(2)
C44_8 C 0.21080(9) 0.69027(11) 0.6528(2)
H48_8 H 0.2041 0.7127 0.6681
H49_8 H 0.2127 0.6768 0.6998
C45_8 C 0.18440(11) 0.67539(14) 0.6000(3)
H50_8 H 0.1626 0.6781 0.6243
H51_8 H 0.1842 0.6877 0.5511
C46_8 C 0.18998(15) 0.63954(14) 0.5833(4)
H52_8 H 0.1900 0.6274 0.6324
H53_8 H 0.2120 0.6370 0.5602
C47_8 C 0.16479(17) 0.6239(2) 0.5302(5)
H54_8 H 0.1426 0.6271 0.5520
H55_10 H 0.1655 0.6353 0.4801
C48_8 C 0.1703(3) 0.5880(2) 0.5176(7)
H56_8 H 0.1938 0.5839 0.5089
H57_10 H 0.1578 0.5807 0.4728
H58_8 H 0.1630 0.5757 0.5628
N11_4 N 0.26217(8) 0.67534(9) 0.42280(19)
O2_10 O 0.11812(6) 0.45247(6) 0.12786(15)
O3_10 O 0.07616(6) 0.54800(6) 0.02871(15)
N1_10 N 0.10666(7) 0.49560(7) 0.04986(17)
N2_10 N 0.07861(7) 0.50021(7) 0.09609(18)
N3_10 N 0.14650(8) 0.55817(8) 0.05845(19)
C2_10 C 0.15648(8) 0.46522(9) 0.0300(2)
C3_10 C 0.17728(9) 0.44018(9) 0.0559(2)
H1_10 H 0.1709 0.4277 0.0995
C4_10 C 0.20643(10) 0.43300(10) 0.0207(3)
H2_10 H 0.2201 0.4159 0.0395
C7_10 C 0.12563(8) 0.47108(9) 0.0715(2)
C8_10 C 0.06508(9) 0.52819(9) 0.0808(2)
C9_10 C 0.03638(10) 0.53978(10) 0.1271(3)
H5_10 H 0.0187 0.5473 0.0924
H6_10 H 0.0277 0.5213 0.1580
C10_10 C 0.04647(17) 0.56823(18) 0.1808(5)
H7_10 H 0.0580 0.5853 0.1505
H8_10 H 0.0620 0.5598 0.2196
C11_10 C 0.0176(3) 0.5836(3) 0.2207(6)
H10_10 H 0.0187 0.6075 0.2107
C12_12 C 0.0135(3) 0.5804(5) 0.2852(7)
H11_12 H 0.0100 0.5567 0.2946
H12_12 H 0.0343 0.5864 0.3110
C14_10 C 0.16988(11) 0.57838(10) 0.0353(3)
C15_10 C 0.18904(11) 0.59637(11) 0.0842(3)
H17_10 H 0.2057 0.6105 0.0647
C16_10 C 0.18411(13) 0.59393(13) 0.1612(3)
C17_10 C 0.16014(14) 0.57250(13) 0.1862(3)
H18_10 H 0.1562 0.5697 0.2394
C18_10 C 0.14204(12) 0.55528(12) 0.1337(3)
H19_10 H 0.1256 0.5406 0.1517
C19_10 C 0.20426(19) 0.61498(18) 0.2163(3)
H20_10 H 0.1978 0.6382 0.2083
H21_10 H 0.2276 0.6130 0.2013
Mn2_10 Mn 0.076508(13) 0.459812(13) 0.18299(3)
O4_12 O 0.09401(6) 0.48740(7) 0.25726(17)
O6_12 O 0.08843(7) 0.41506(7) 0.25089(17)
O7_10 O 0.05116(6) 0.43339(6) 0.11279(15)
N4_10 N 0.03350(7) 0.46398(7) 0.22903(17)
N6_12 N 0.09981(10) 0.36106(9) 0.2609(3)
C20_12 C 0.08047(10) 0.49970(9) 0.3200(2)
C21_12 C 0.04791(10) 0.49418(9) 0.3424(2)
C22_12 C 0.03663(12) 0.50674(12) 0.4115(3)
H22_12 H 0.0147 0.5024 0.4273
C23_12 C 0.05696(15) 0.52543(13) 0.4575(3)
H23_10 H 0.0493 0.5337 0.5050
C24_12 C 0.08807(14) 0.53177(12) 0.4335(3)
H24_12 H 0.1021 0.5448 0.4647
C25_12 C 0.09971(12) 0.51982(11) 0.3656(3)
H25_12 H 0.1213 0.5254 0.3495
C26_12 C 0.02397(9) 0.47648(9) 0.2947(2)
C27_10 C 0.01987(9) 0.43388(9) 0.1277(2)
C29_10 C 0.00538(11) 0.38057(12) 0.0657(3)
H29_10 H 0.0287 0.3781 0.0509
H31_10 H 0.0139 0.3705 0.1795
C31_10 C 0.0051(2) 0.32553(15) 0.1319(6)
H33_10 H 0.0280 0.3217 0.1148
H35_10 H 0.0037 0.2839 0.1979
H36_10 H 0.0142 0.3159 0.2451
C33_10 C 0.08971(10) 0.38784(11) 0.2239(3)
H37_10 H 0.0830 0.3853 0.1722
C34_12 C 0.11093(16) 0.36226(16) 0.3390(4)
H38_12 H 0.1102 0.3850 0.3574
H39_12 H 0.0967 0.3485 0.3708
H40_12 H 0.1336 0.3541 0.3419
C35_10 C 0.10235(19) 0.32975(13) 0.2239(5)
H41_10 H 0.1253 0.3226 0.2240
H42_12 H 0.0889 0.3136 0.2514
H43_10 H 0.0946 0.3316 0.1710
C49_12 C 0.23250(13) 0.68352(12) 0.3979(3)
H59_12 H 0.2242 0.7047 0.4098
C50_12 C 0.21334(14) 0.66275(14) 0.3560(3)
H60_12 H 0.1924 0.6699 0.3383
C51_12 C 0.22414(13) 0.63159(16) 0.3393(3)
C52_10 C 0.25503(13) 0.62398(16) 0.3620(3)
H61_10 H 0.2642 0.6033 0.3485
C53_10 C 0.27303(11) 0.64567(13) 0.4041(3)
H62_10 H 0.2943 0.6393 0.4208
C54_12 C 0.20210(15) 0.60839(19) 0.2950(4)
H63_12 H 0.2088 0.5854 0.3050
H64_12 H 0.1791 0.6111 0.3122
N9_7 N 0.07466(9) 0.01217(8) 0.32720(19)
C52_11 C 0.12602(16) 0.00503(13) 0.3880(3)
H61_11 H 0.1467 0.0142 0.4015
C53_11 C 0.10433(13) 0.02303(11) 0.3459(3)
H62_11 H 0.1107 0.0443 0.3292
Mn5_3 Mn 0.040300(13) 0.037900(13) 0.24333(3)
Mn1_9 Mn 0.113430(13) 0.030151(13) 0.02486(3)
O1_9 O 0.14893(6) 0.00785(6) 0.06532(15)
H16_9 H 0.1736 0.0805 0.0181
O8_11 O 0.04853(6) 0.07963(6) 0.28193(16)
O9_9 O 0.11545(6) 0.06712(6) 0.09859(15)
N7_9 N 0.07428(7) 0.04368(7) 0.16671(17)
N8_9 N 0.07830(7) 0.01647(7) 0.11780(17)
C36_11 C 0.07261(9) 0.10049(9) 0.2653(2)
C37_9 C 0.09515(9) 0.09630(9) 0.2060(2)
C38_9 C 0.11962(10) 0.11992(9) 0.1955(3)
H44_9 H 0.1350 0.1171 0.1552
C39_9 C 0.12209(11) 0.14683(10) 0.2409(3)
H45_9 H 0.1393 0.1623 0.2333
C40_11 C 0.09931(12) 0.15152(11) 0.2983(3)
H46_11 H 0.1004 0.1707 0.3293
C41_11 C 0.07496(11) 0.12866(11) 0.3108(3)
H47_11 H 0.0596 0.1321 0.3509
C42_9 C 0.09502(8) 0.06779(8) 0.1546(2)
O11_6 O 0.00572(6) 0.02543(6) 0.31742(14)
C28_9 C 0.00263(10) 0.08323(10) 0.0731(2)
H26_9 H 0.0256 0.0807 0.0909
H27_9 H 0.0009 0.0727 0.0221
H28_9 H 0.0082 0.1291 0.0244
C30_9 C 0.00067(14) 0.13827(12) 0.1392(4)
H30_9 H 0.0236 0.1345 0.1557
H32_9 H 0.0098 0.1834 0.0922
C32_9 C 0.0006(2) 0.19262(18) 0.2056(6)
H34_9 H 0.0234 0.1896 0.2220
H9_9 H 0.0024 0.4246 0.8052
C13_11 C 0.0149(2) 0.4007(3) 0.6729(7)
H13_11 H 0.0314 0.3938 0.7105
H14_11 H 0.0251 0.4152 0.6350
H15_11 H 0.0058 0.3813 0.6472
O5_6 O 0.00572(6) 0.52543(6) 0.68258(14)
C28_10 C 0.00263(10) 0.58323(10) 0.9269(2)
H26_10 H 0.0256 0.5807 0.9091
H27_10 H 0.0009 0.5727 0.9779
H28_10 H 0.0082 0.6291 0.9756
C30_10 C 0.00067(14) 0.63827(12) 0.8608(4)
H30_10 H 0.0236 0.6345 0.8443
H32_10 H 0.0098 0.6834 0.9078
C32_10 C 0.0006(2) 0.69262(18) 0.7944(6)
H34_10 H 0.0234 0.6896 0.7780
Mn4_5 Mn 0.040300(13) 0.537900(13) 0.75667(3)
O3_11 O 0.07616(6) 0.04800(6) 0.97129(15)
N2_11 N 0.07861(7) 0.00021(7) 0.90391(18)
N3_11 N 0.14650(8) 0.05817(8) 0.94155(19)
C8_11 C 0.06508(9) 0.02819(9) 0.9192(2)
C9_11 C 0.03638(10) 0.03978(10) 0.8729(3)
H5_11 H 0.0187 0.0473 0.9076
H6_11 H 0.0277 0.0213 0.8420
C10_11 C 0.04647(17) 0.06823(18) 0.8192(5)
H7_11 H 0.0580 0.0853 0.8495
H8_11 H 0.0620 0.0598 0.7804
C11_11 C 0.0176(3) 0.0836(3) 0.7793(6)
H10_11 H 0.0187 0.1075 0.7893
C12_13 C 0.0135(3) 0.0804(5) 0.7148(7)
H11_13 H 0.0100 0.0567 0.7054
H12_13 H 0.0343 0.0864 0.6890
C14_11 C 0.16988(11) 0.07838(10) 0.9647(3)
C15_11 C 0.18904(11) 0.09637(11) 0.9158(3)
H17_11 H 0.2057 0.1105 0.9353
C16_11 C 0.18411(13) 0.09393(13) 0.8388(3)
C17_11 C 0.16014(14) 0.07250(13) 0.8138(3)
H18_11 H 0.1562 0.0697 0.7606
C18_11 C 0.14204(12) 0.05528(12) 0.8663(3)
H19_11 H 0.1256 0.0406 0.8483
C19_11 C 0.20426(19) 0.11498(18) 0.7837(3)
H20_11 H 0.1978 0.1382 0.7917
H21_11 H 0.2276 0.1130 0.7987
C22_13 C 0.03663(12) 0.00674(12) 0.5885(3)
H22_13 H 0.0147 0.0024 0.5727
C23_13 C 0.05696(15) 0.02543(13) 0.5425(3)
H23_11 H 0.0493 0.0337 0.4950
C24_13 C 0.08807(14) 0.03177(12) 0.5665(3)
H24_13 H 0.1021 0.0448 0.5353
C25_13 C 0.09971(12) 0.01982(11) 0.6344(3)
H25_13 H 0.1213 0.0254 0.6505
N9_8 N 0.26217(8) 0.17534(9) 0.57720(19)
C49_13 C 0.23250(13) 0.18352(12) 0.6021(3)
H59_13 H 0.2242 0.2047 0.5902
C50_13 C 0.21334(14) 0.16275(14) 0.6440(3)
H60_13 H 0.1924 0.1699 0.6617
C51_13 C 0.22414(13) 0.13159(16) 0.6607(3)
C52_12 C 0.25503(13) 0.12398(16) 0.6380(3)
H61_12 H 0.2642 0.1033 0.6515
C53_12 C 0.27303(11) 0.14567(13) 0.5959(3)
H62_12 H 0.2943 0.1393 0.5792
C54_13 C 0.20210(15) 0.10839(19) 0.7050(4)
H63_13 H 0.2088 0.0854 0.6950
H64_13 H 0.1791 0.1111 0.6878
Mn5_4 Mn 0.287900(13) 0.209700(13) 0.49333(3)
Mn1_10 Mn 0.280151(13) 0.136570(13) 0.27486(3)
O1_10 O 0.25785(6) 0.10107(6) 0.31532(15)
O2_11 O 0.20247(6) 0.13188(6) 0.12214(15)
O3_12 O 0.29800(6) 0.17384(6) 0.22129(15)
N1_11 N 0.24560(7) 0.14334(7) 0.20014(17)
N2_12 N 0.25021(7) 0.17139(7) 0.15391(18)
N3_12 N 0.30817(8) 0.10350(8) 0.19155(19)
C1_9 C 0.23352(9) 0.08385(9) 0.2843(2)
C2_11 C 0.21522(9) 0.09352(8) 0.2200(2)
C3_11 C 0.19018(9) 0.07272(9) 0.1941(2)
H1_11 H 0.1777 0.0791 0.1505
C4_11 C 0.18300(10) 0.04357(10) 0.2293(3)
H2_11 H 0.1659 0.0299 0.2105
C5_9 C 0.20098(11) 0.03447(11) 0.2925(3)
H3_9 H 0.1962 0.0142 0.3172
C6_9 C 0.22562(11) 0.05405(10) 0.3203(3)
H4_9 H 0.2375 0.0474 0.3644
C7_11 C 0.22108(9) 0.12437(8) 0.1785(2)
C8_12 C 0.27819(9) 0.18492(9) 0.1692(2)
C9_12 C 0.28978(10) 0.21362(10) 0.1229(3)
H5_12 H 0.2973 0.2313 0.1576
H6_12 H 0.2713 0.2223 0.0920
C10_12 C 0.31823(18) 0.20353(17) 0.0692(5)
H7_12 H 0.3353 0.1920 0.0995
H8_12 H 0.3098 0.1880 0.0304
C11_12 C 0.3336(3) 0.2324(3) 0.0293(6)
H9_10 H 0.3254 0.2524 0.0552
H10_12 H 0.3575 0.2313 0.0393
C14_12 C 0.32838(10) 0.08012(11) 0.2147(3)
H16_10 H 0.3305 0.0764 0.2681
C15_12 C 0.34637(11) 0.06096(11) 0.1658(3)
H17_12 H 0.3605 0.0443 0.1853
C16_12 C 0.34393(13) 0.06589(13) 0.0888(3)
C17_12 C 0.32250(13) 0.08986(14) 0.0638(3)
H18_12 H 0.3197 0.0938 0.0106
C18_12 C 0.30528(12) 0.10796(12) 0.1163(3)
H19_12 H 0.2906 0.1244 0.0983
C19_12 C 0.36498(18) 0.04574(19) 0.0337(3)
H20_12 H 0.3882 0.0522 0.0417
H21_12 H 0.3630 0.0224 0.0487
Mn2_11 Mn 0.209812(13) 0.173492(13) 0.06701(3)
O7_11 O 0.18339(6) 0.19884(6) 0.13721(15)
N4_11 N 0.21398(7) 0.21650(7) 0.02097(17)
N5_6 N 0.19859(7) 0.24205(7) 0.06263(17)
C27_11 C 0.18388(9) 0.23013(9) 0.1223(2)
C28_11 C 0.16677(10) 0.25263(10) 0.1769(2)
H26_11 H 0.1693 0.2756 0.1591
H27_11 H 0.1773 0.2509 0.2279
C29_11 C 0.13057(12) 0.24462(11) 0.1843(3)
H28_11 H 0.1209 0.2582 0.2256
H29_11 H 0.1281 0.2213 0.1991
C30_11 C 0.11173(12) 0.25067(14) 0.1108(4)
H30_11 H 0.1155 0.2736 0.0943
H31_11 H 0.1205 0.2361 0.0705
C31_11 C 0.07553(15) 0.2449(2) 0.1181(6)
H32_11 H 0.0666 0.2598 0.1578
H33_11 H 0.0717 0.2220 0.1352
C32_11 C 0.05738(18) 0.2506(2) 0.0444(6)
H34_11 H 0.0604 0.2734 0.0280
H35_11 H 0.0339 0.2463 0.0521
H36_11 H 0.0659 0.2358 0.0049
C33_11 C 0.13784(11) 0.16029(10) 0.0261(3)
H37_11 H 0.1353 0.1670 0.0778
C35_11 C 0.07975(13) 0.14765(19) 0.0261(5)
H41_11 H 0.0726 0.1247 0.0260
H43_11 H 0.0816 0.1554 0.0790
O8_12 O 0.32963(6) 0.20147(6) 0.53193(16)
O9_10 O 0.31712(6) 0.13455(6) 0.34859(15)
O10_9 O 0.24617(6) 0.21261(6) 0.44191(14)
N7_10 N 0.29368(7) 0.17572(7) 0.41671(17)
N8_10 N 0.26647(7) 0.17170(7) 0.36780(17)
C36_12 C 0.35049(9) 0.17739(9) 0.5153(2)
C37_10 C 0.34630(9) 0.15485(9) 0.4560(2)
C38_10 C 0.36992(9) 0.13038(10) 0.4455(3)
H44_10 H 0.3671 0.1150 0.4052
C39_10 C 0.39683(10) 0.12791(11) 0.4909(3)
H45_10 H 0.4123 0.1107 0.4833
C40_12 C 0.40152(11) 0.15069(12) 0.5483(3)
H46_12 H 0.4207 0.1496 0.5793
C41_12 C 0.37866(11) 0.17504(11) 0.5608(3)
H47_12 H 0.3821 0.1904 0.6009
C42_10 C 0.31779(8) 0.15498(8) 0.4046(2)
C43_9 C 0.24320(9) 0.19161(9) 0.3865(2)
C44_9 C 0.21080(9) 0.19027(11) 0.3472(2)
H48_9 H 0.2041 0.2127 0.3319
H49_9 H 0.2127 0.1768 0.3002
C45_9 C 0.18440(11) 0.17539(14) 0.4000(3)
H50_9 H 0.1626 0.1781 0.3757
H51_9 H 0.1842 0.1877 0.4489
C46_9 C 0.18998(15) 0.13954(14) 0.4167(4)
H52_9 H 0.1900 0.1274 0.3676
H53_9 H 0.2120 0.1370 0.4398
C47_9 C 0.16479(17) 0.1239(2) 0.4698(5)
H54_9 H 0.1426 0.1271 0.4480
H55_11 H 0.1655 0.1353 0.5199
C48_9 C 0.1703(3) 0.0880(2) 0.4824(7)
H56_9 H 0.1938 0.0839 0.4911
H57_11 H 0.1578 0.0807 0.5272
H58_9 H 0.1630 0.0757 0.4372
O11_7 O 0.27543(6) 0.24428(6) 0.56742(14)
N10_6 N 0.30141(7) 0.25795(7) 0.43737(17)
Mn4_6 Mn 0.212100(13) 0.290300(13) 0.00667(3)
Mn1_11 Mn 0.113430(13) 0.530151(13) 0.97514(3)
O1_11 O 0.14893(6) 0.50785(6) 0.93468(15)
C1_10 C 0.16615(9) 0.48352(9) 0.9657(2)
C5_10 C 0.21553(11) 0.45098(11) 0.9575(3)
H3_10 H 0.2358 0.4462 0.9328
C6_10 C 0.19595(10) 0.47562(11) 0.9297(3)
H4_10 H 0.2026 0.4875 0.8856
H16_11 H 0.1736 0.5805 0.9819
O8_13 O 0.04853(6) 0.57963(6) 0.71807(16)
O9_11 O 0.11545(6) 0.56712(6) 0.90141(15)
O10_10 O 0.03739(6) 0.49617(6) 0.80809(14)
N7_11 N 0.07428(7) 0.54368(7) 0.83329(17)
N8_11 N 0.07830(7) 0.51647(7) 0.88220(17)
C36_13 C 0.07261(9) 0.60049(9) 0.7347(2)
C37_11 C 0.09515(9) 0.59630(9) 0.7940(2)
C38_11 C 0.11962(10) 0.61992(9) 0.8045(3)
H44_11 H 0.1350 0.6171 0.8448
C39_11 C 0.12209(11) 0.64683(10) 0.7591(3)
H45_11 H 0.1393 0.6623 0.7667
C40_13 C 0.09931(12) 0.65152(11) 0.7017(3)
H46_13 H 0.1004 0.6707 0.6707
C41_13 C 0.07496(11) 0.62866(11) 0.6892(3)
H47_13 H 0.0596 0.6321 0.6491
C42_11 C 0.09502(8) 0.56779(8) 0.8454(2)
C43_10 C 0.05839(9) 0.49320(9) 0.8635(2)
C44_10 C 0.05973(11) 0.46080(9) 0.9028(2)
H48_10 H 0.0373 0.4541 0.9181
H49_10 H 0.0732 0.4627 0.9498
C45_10 C 0.07461(14) 0.43440(11) 0.8500(3)
H50_10 H 0.0719 0.4126 0.8743
H51_10 H 0.0623 0.4342 0.8011
C46_10 C 0.11046(14) 0.43998(15) 0.8333(4)
H52_10 H 0.1226 0.4400 0.8824
H53_10 H 0.1130 0.4620 0.8102
C47_10 C 0.1261(2) 0.41479(17) 0.7802(5)
H54_10 H 0.1229 0.3926 0.8020
H55_12 H 0.1147 0.4155 0.7301
C48_10 C 0.1620(2) 0.4203(3) 0.7676(7)
H56_10 H 0.1661 0.4438 0.7589
H57_12 H 0.1693 0.4078 0.7228
H58_10 H 0.1743 0.4130 0.8128
N11_5 N 0.07466(9) 0.51217(8) 0.67280(19)
H23_12 H 0.4507 0.4663 0.0050
Mn1_12 Mn 0.219849(13) 0.363430(13) 0.22514(3)
O1_12 O 0.24215(6) 0.39893(6) 0.18468(15)
O2_12 O 0.29753(6) 0.36812(6) 0.37786(15)
O3_13 O 0.20200(6) 0.32616(6) 0.27871(15)
N1_12 N 0.25440(7) 0.35666(7) 0.29986(17)
N2_13 N 0.24979(7) 0.32861(7) 0.34609(18)
N3_13 N 0.19183(8) 0.39650(8) 0.30845(19)
C1_11 C 0.26648(9) 0.41615(9) 0.2157(2)
C2_12 C 0.28478(9) 0.40648(8) 0.2800(2)
C3_12 C 0.30982(9) 0.42728(9) 0.3059(2)
H1_12 H 0.3223 0.4209 0.3495
C4_12 C 0.31700(10) 0.45643(10) 0.2707(3)
H2_12 H 0.3341 0.4701 0.2895
C5_11 C 0.29902(11) 0.46553(11) 0.2075(3)
H3_11 H 0.3038 0.4858 0.1828
C6_11 C 0.27438(11) 0.44595(10) 0.1797(3)
H4_11 H 0.2625 0.4526 0.1356
C7_12 C 0.27892(9) 0.37563(8) 0.3215(2)
C8_13 C 0.22181(9) 0.31508(9) 0.3308(2)
C9_13 C 0.21022(10) 0.28638(10) 0.3771(3)
H5_13 H 0.2027 0.2687 0.3424
H6_13 H 0.2287 0.2777 0.4080
C10_13 C 0.18177(18) 0.29647(17) 0.4308(5)
H7_13 H 0.1647 0.3080 0.4005
H8_13 H 0.1902 0.3120 0.4696
C11_13 C 0.1664(3) 0.2676(3) 0.4707(6)
H9_11 H 0.1746 0.2476 0.4448
H10_13 H 0.1425 0.2687 0.4607
C12_14 C 0.1696(5) 0.2635(3) 0.5352(7)
H11_14 H 0.1933 0.2600 0.5446
H12_14 H 0.1636 0.2843 0.5610
C13_12 C 0.1507(3) 0.2351(2) 0.5771(7)
H13_12 H 0.1438 0.2186 0.5395
H14_12 H 0.1652 0.2249 0.6150
H15_12 H 0.1313 0.2442 0.6028
C14_13 C 0.17162(10) 0.41988(11) 0.2853(3)
H16_12 H 0.1695 0.4236 0.2319
C15_13 C 0.15363(11) 0.43904(11) 0.3342(3)
H17_13 H 0.1395 0.4557 0.3147
C16_13 C 0.15607(13) 0.43411(13) 0.4112(3)
C17_13 C 0.17750(13) 0.41014(14) 0.4362(3)
H18_13 H 0.1803 0.4062 0.4894
C18_13 C 0.19472(12) 0.39204(12) 0.3837(3)
H19_13 H 0.2094 0.3756 0.4017
C19_13 C 0.13502(18) 0.45426(19) 0.4663(3)
H20_13 H 0.1118 0.4478 0.4583
H21_13 H 0.1370 0.4776 0.4513
Mn2_12 Mn 0.290188(13) 0.326508(13) 0.43299(3)
O4_13 O 0.26260(7) 0.34401(6) 0.50726(17)
O6_13 O 0.33494(7) 0.33843(7) 0.50089(17)
O7_12 O 0.31661(6) 0.30116(6) 0.36279(15)
N4_12 N 0.28602(7) 0.28350(7) 0.47903(17)
N6_13 N 0.38894(9) 0.34981(10) 0.5109(3)
C20_13 C 0.25030(9) 0.33047(10) 0.5700(2)
C21_13 C 0.25582(9) 0.29791(10) 0.5924(2)
C22_14 C 0.24326(12) 0.28663(12) 0.6615(3)
H22_14 H 0.2476 0.2647 0.6773
C23_14 C 0.22457(13) 0.30696(15) 0.7075(3)
H23_13 H 0.2163 0.2993 0.7550
C24_14 C 0.21823(12) 0.33807(14) 0.6835(3)
H24_14 H 0.2052 0.3521 0.7147
C25_14 C 0.23018(11) 0.34971(12) 0.6156(3)
H25_14 H 0.2246 0.3713 0.5995
C26_13 C 0.27352(9) 0.27397(9) 0.5447(2)
C27_12 C 0.31612(9) 0.26987(9) 0.3777(2)
C28_12 C 0.33323(10) 0.24737(10) 0.3231(2)
H26_12 H 0.3307 0.2244 0.3409
H27_12 H 0.3227 0.2491 0.2721
C29_12 C 0.36943(12) 0.25538(11) 0.3157(3)
H28_12 H 0.3791 0.2418 0.2744
H29_12 H 0.3719 0.2787 0.3009
C30_12 C 0.38827(12) 0.24933(14) 0.3892(4)
H30_12 H 0.3845 0.2264 0.4057
H31_12 H 0.3795 0.2639 0.4295
C31_12 C 0.42447(15) 0.2551(2) 0.3819(6)
H32_12 H 0.4334 0.2402 0.3422
H33_12 H 0.4283 0.2780 0.3648
C32_12 C 0.44262(18) 0.2494(2) 0.4556(6)
H34_12 H 0.4396 0.2266 0.4720
H35_12 H 0.4661 0.2537 0.4479
H36_12 H 0.4341 0.2642 0.4951
C33_12 C 0.36216(11) 0.33971(10) 0.4739(3)
H37_12 H 0.3647 0.3330 0.4222
C34_13 C 0.38774(16) 0.36093(16) 0.5890(4)
H38_13 H 0.3650 0.3602 0.6074
H39_13 H 0.4015 0.3467 0.6208
H40_13 H 0.3959 0.3836 0.5919
C35_12 C 0.42025(13) 0.35235(19) 0.4739(5)
H41_12 H 0.4274 0.3753 0.4740
H42_13 H 0.4364 0.3389 0.5014
H43_12 H 0.4184 0.3446 0.4210
O9_12 O 0.18288(6) 0.36545(6) 0.15141(15)
O10_11 O 0.25383(6) 0.28739(6) 0.05809(14)
N7_12 N 0.20632(7) 0.32428(7) 0.08329(17)
N8_12 N 0.23353(7) 0.32830(7) 0.13220(17)
C37_12 C 0.15370(9) 0.34515(9) 0.0440(2)
C38_12 C 0.13008(9) 0.36962(10) 0.0545(3)
H44_12 H 0.1329 0.3850 0.0948
C39_12 C 0.10317(10) 0.37209(11) 0.0091(3)
H45_12 H 0.0877 0.3893 0.0167
C42_12 C 0.18221(8) 0.34502(8) 0.0954(2)
C43_11 C 0.25680(9) 0.30839(9) 0.1135(2)
C44_11 C 0.28920(9) 0.30973(11) 0.1528(2)
H48_11 H 0.2959 0.2873 0.1681
H49_11 H 0.2873 0.3232 0.1998
C45_11 C 0.31560(11) 0.32461(14) 0.1000(3)
H50_11 H 0.3374 0.3219 0.1243
H51_11 H 0.3158 0.3123 0.0511
C46_11 C 0.31002(15) 0.36046(14) 0.0833(4)
H52_11 H 0.3100 0.3726 0.1324
H53_11 H 0.2880 0.3630 0.0602
C47_11 C 0.33521(17) 0.3761(2) 0.0302(5)
H54_11 H 0.3574 0.3729 0.0520
C48_11 C 0.3297(3) 0.4120(2) 0.0176(7)
H56_11 H 0.3062 0.4161 0.0089
H58_11 H 0.3370 0.4243 0.0628
C49_14 C 0.06648(12) 0.48250(13) 0.6479(3)
H59_14 H 0.0453 0.4742 0.6598
C50_14 C 0.08725(14) 0.46334(14) 0.6060(3)
H60_14 H 0.0801 0.4424 0.5883
C51_14 C 0.11841(16) 0.47414(13) 0.5893(3)
C52_13 C 0.12602(16) 0.50503(13) 0.6120(3)
H61_13 H 0.1467 0.5142 0.5985
C53_13 C 0.10433(13) 0.52303(11) 0.6541(3)
H62_13 H 0.1107 0.5443 0.6708
C54_14 C 0.14161(19) 0.45210(15) 0.5450(4)
H63_14 H 0.1646 0.4588 0.5550
H64_14 H 0.1389 0.4291 0.5622
Mn1_13 Mn 0.886570(13) 0.469849(13) 0.02486(3)
O1_13 O 0.85107(6) 0.49215(6) 0.06532(15)
C1_12 C 0.83385(9) 0.51648(9) 0.0343(2)
C5_12 C 0.78447(11) 0.54902(11) 0.0425(3)
H3_12 H 0.7642 0.5538 0.0672
C6_12 C 0.80405(10) 0.52438(11) 0.0703(3)
H4_12 H 0.7974 0.5125 0.1144
H16_13 H 0.8264 0.4195 0.0181
Mn3_3 Mn 0.959700(13) 0.462100(13) 0.24333(3)
O8_14 O 0.95147(6) 0.42037(6) 0.28193(16)
O9_13 O 0.88455(6) 0.43288(6) 0.09859(15)
O10_12 O 0.96261(6) 0.50383(6) 0.19191(14)
N7_13 N 0.92572(7) 0.45632(7) 0.16671(17)
N8_13 N 0.92170(7) 0.48353(7) 0.11780(17)
C36_14 C 0.92739(9) 0.39951(9) 0.2653(2)
C37_13 C 0.90485(9) 0.40370(9) 0.2060(2)
C38_13 C 0.88038(10) 0.38008(9) 0.1955(3)
H44_13 H 0.8650 0.3829 0.1552
C39_13 C 0.87791(11) 0.35317(10) 0.2409(3)
H45_13 H 0.8607 0.3377 0.2333
C40_14 C 0.90069(12) 0.34848(11) 0.2983(3)
H46_14 H 0.8996 0.3293 0.3293
C41_14 C 0.92504(11) 0.37134(11) 0.3108(3)
H47_14 H 0.9404 0.3679 0.3509
C42_13 C 0.90498(8) 0.43221(8) 0.1546(2)
C43_12 C 0.94161(9) 0.50680(9) 0.1365(2)
C44_12 C 0.94027(11) 0.53920(9) 0.0972(2)
H48_12 H 0.9627 0.5459 0.0819
H49_12 H 0.9268 0.5373 0.0502
C45_12 C 0.92539(14) 0.56560(11) 0.1500(3)
H50_12 H 0.9281 0.5874 0.1257
H51_12 H 0.9377 0.5658 0.1989
C46_12 C 0.88954(14) 0.56002(15) 0.1667(4)
H52_12 H 0.8774 0.5600 0.1176
H53_12 H 0.8870 0.5380 0.1898
C47_12 C 0.8739(2) 0.58521(17) 0.2198(5)
H54_12 H 0.8771 0.6074 0.1980
H55_13 H 0.8853 0.5845 0.2699
C48_12 C 0.8380(2) 0.5797(3) 0.2324(7)
H56_12 H 0.8339 0.5562 0.2411
H57_13 H 0.8307 0.5922 0.2772
H58_12 H 0.8257 0.5870 0.1872
O11_8 O 0.99428(6) 0.47457(6) 0.31742(14)
N11_6 N 0.92534(9) 0.48783(8) 0.32720(19)
H23_14 H 0.5493 0.5337 0.9950
Mn5_5 Mn 0.787900(13) 0.709700(13) 0.99333(3)
Mn1_14 Mn 0.780151(13) 0.636570(13) 0.77486(3)
O1_14 O 0.75785(6) 0.60107(6) 0.81532(15)
O2_13 O 0.70247(6) 0.63188(6) 0.62214(15)
O3_14 O 0.79800(6) 0.67384(6) 0.72129(15)
N1_13 N 0.74560(7) 0.64334(7) 0.70014(17)
N2_14 N 0.75021(7) 0.67139(7) 0.65391(18)
N3_14 N 0.80817(8) 0.60350(8) 0.69155(19)
C1_13 C 0.73352(9) 0.58385(9) 0.7843(2)
C2_13 C 0.71522(9) 0.59352(8) 0.7200(2)
C3_13 C 0.69018(9) 0.57272(9) 0.6941(2)
H1_13 H 0.6777 0.5791 0.6505
C4_13 C 0.68300(10) 0.54357(10) 0.7293(3)
H2_13 H 0.6659 0.5299 0.7105
C5_13 C 0.70098(11) 0.53447(11) 0.7925(3)
H3_13 H 0.6962 0.5142 0.8172
C6_13 C 0.72562(11) 0.55405(10) 0.8203(3)
H4_13 H 0.7375 0.5474 0.8644
C7_13 C 0.72108(9) 0.62437(8) 0.6785(2)
C8_14 C 0.77819(9) 0.68492(9) 0.6692(2)
C9_14 C 0.78978(10) 0.71362(10) 0.6229(3)
H5_14 H 0.7973 0.7313 0.6576
H6_14 H 0.7713 0.7223 0.5920
C10_14 C 0.81823(18) 0.70353(17) 0.5692(5)
H7_14 H 0.8353 0.6920 0.5995
H8_14 H 0.8098 0.6880 0.5304
C11_14 C 0.8336(3) 0.7324(3) 0.5293(6)
H9_12 H 0.8254 0.7524 0.5552
H10_14 H 0.8575 0.7313 0.5393
C12_15 C 0.8304(5) 0.7365(3) 0.4648(7)
H11_15 H 0.8067 0.7400 0.4554
H12_15 H 0.8364 0.7157 0.4390
C13_13 C 0.8493(3) 0.7649(2) 0.4229(7)
H13_13 H 0.8562 0.7814 0.4605
H14_13 H 0.8348 0.7751 0.3850
H15_13 H 0.8687 0.7558 0.3972
C14_14 C 0.82838(10) 0.58012(11) 0.7147(3)
H16_14 H 0.8305 0.5764 0.7681
C15_14 C 0.84637(11) 0.56096(11) 0.6658(3)
H17_14 H 0.8605 0.5443 0.6853
C16_14 C 0.84393(13) 0.56589(13) 0.5888(3)
C17_14 C 0.82250(13) 0.58986(14) 0.5638(3)
H18_14 H 0.8197 0.5938 0.5106
C18_14 C 0.80528(12) 0.60796(12) 0.6163(3)
H19_14 H 0.7906 0.6244 0.5983
C19_14 C 0.86498(18) 0.54574(19) 0.5337(3)
H20_14 H 0.8882 0.5522 0.5417
H21_14 H 0.8630 0.5224 0.5487
Mn2_13 Mn 0.709812(13) 0.673492(13) 0.56701(3)
O4_14 O 0.73740(7) 0.65599(6) 0.49274(17)
O5_7 O 0.72457(6) 0.75572(6) 0.43258(14)
O6_14 O 0.66506(7) 0.66157(7) 0.49911(17)
O7_13 O 0.68339(6) 0.69884(6) 0.63721(15)
N4_13 N 0.71398(7) 0.71650(7) 0.52097(17)
N5_7 N 0.69859(7) 0.74205(7) 0.56263(17)
N6_14 N 0.61106(9) 0.65019(10) 0.4891(3)
C20_14 C 0.74970(9) 0.66953(10) 0.4300(2)
C21_14 C 0.74418(9) 0.70209(10) 0.4076(2)
C22_15 C 0.75674(12) 0.71337(12) 0.3385(3)
H22_15 H 0.7524 0.7353 0.3227
C23_15 C 0.77543(13) 0.69304(15) 0.2925(3)
H23_15 H 0.7837 0.7007 0.2450
C24_15 C 0.78177(12) 0.66193(14) 0.3165(3)
H24_15 H 0.7948 0.6479 0.2853
C25_15 C 0.76982(11) 0.65029(12) 0.3844(3)
H25_15 H 0.7754 0.6287 0.4005
C26_14 C 0.72648(9) 0.72603(9) 0.4553(2)
C27_13 C 0.68388(9) 0.73013(9) 0.6223(2)
C28_13 C 0.66677(10) 0.75263(10) 0.6769(2)
H26_13 H 0.6693 0.7756 0.6591
H27_13 H 0.6773 0.7509 0.7279
C29_13 C 0.63057(12) 0.74462(11) 0.6843(3)
H28_13 H 0.6209 0.7582 0.7256
H29_13 H 0.6281 0.7213 0.6991
C30_13 C 0.61173(12) 0.75067(14) 0.6108(4)
H30_13 H 0.6155 0.7736 0.5943
H31_13 H 0.6205 0.7361 0.5705
C31_13 C 0.57553(15) 0.7449(2) 0.6181(6)
H32_13 H 0.5666 0.7598 0.6578
H33_13 H 0.5717 0.7220 0.6352
C32_13 C 0.55738(18) 0.7506(2) 0.5444(6)
H34_13 H 0.5604 0.7734 0.5280
H35_13 H 0.5339 0.7463 0.5521
H36_13 H 0.5659 0.7358 0.5049
C33_13 C 0.63784(11) 0.66029(10) 0.5261(3)
H37_13 H 0.6353 0.6670 0.5778
C34_14 C 0.61226(16) 0.63907(16) 0.4110(4)
H38_14 H 0.6350 0.6398 0.3926
H39_14 H 0.5985 0.6533 0.3792
H40_14 H 0.6041 0.6164 0.4081
C35_13 C 0.57975(13) 0.64765(19) 0.5261(5)
H41_13 H 0.5726 0.6247 0.5260
H42_14 H 0.5636 0.6611 0.4986
H43_13 H 0.5816 0.6554 0.5790
O9_14 O 0.81712(6) 0.63455(6) 0.84859(15)
O10_13 O 0.74617(6) 0.71261(6) 0.94191(14)
N7_14 N 0.79368(7) 0.67572(7) 0.91671(17)
N8_14 N 0.76647(7) 0.67170(7) 0.86780(17)
C37_14 C 0.84630(9) 0.65485(9) 0.9560(2)
C38_14 C 0.86992(9) 0.63038(10) 0.9455(3)
H44_14 H 0.8671 0.6150 0.9052
C39_14 C 0.89683(10) 0.62791(11) 0.9909(3)
H45_14 H 0.9123 0.6107 0.9833
C42_14 C 0.81779(8) 0.65498(8) 0.9046(2)
C43_13 C 0.74320(9) 0.69161(9) 0.8865(2)
C44_13 C 0.71080(9) 0.69027(11) 0.8472(2)
H48_13 H 0.7041 0.7127 0.8319
H49_13 H 0.7127 0.6768 0.8002
C45_13 C 0.68440(11) 0.67539(14) 0.9000(3)
H50_13 H 0.6626 0.6781 0.8757
H51_13 H 0.6842 0.6877 0.9489
C46_13 C 0.68998(15) 0.63954(14) 0.9167(4)
H52_13 H 0.6900 0.6274 0.8676
H53_13 H 0.7120 0.6370 0.9398
C47_13 C 0.66479(17) 0.6239(2) 0.9698(5)
H54_13 H 0.6426 0.6271 0.9480
C48_13 C 0.6703(3) 0.5880(2) 0.9824(7)
H56_13 H 0.6938 0.5839 0.9911
H58_13 H 0.6630 0.5757 0.9372
C49_15 C 0.93352(12) 0.51750(13) 0.3521(3)
H59_15 H 0.9547 0.5258 0.3402
C50_15 C 0.91275(14) 0.53666(14) 0.3940(3)
H60_15 H 0.9199 0.5576 0.4117
C51_15 C 0.88159(16) 0.52586(13) 0.4107(3)
C52_14 C 0.87398(16) 0.49497(13) 0.3880(3)
H61_14 H 0.8533 0.4858 0.4015
C53_14 C 0.89567(13) 0.47697(11) 0.3459(3)
H62_14 H 0.8893 0.4557 0.3292
C54_15 C 0.85839(19) 0.54790(15) 0.4550(4)
H63_15 H 0.8354 0.5412 0.4450
H64_15 H 0.8611 0.5709 0.4378
N10_7 N 0.80141(7) 0.75795(7) 0.93737(17)
Mn4_7 Mn 0.712100(13) 0.790300(13) 0.50667(3)
H9_13 H 0.9976 0.5754 0.1948
C13_14 C 0.9851(2) 0.5993(3) 0.3271(7)
H13_14 H 0.9686 0.6062 0.2895
H14_14 H 0.9749 0.5848 0.3650
H15_14 H 0.9942 0.6187 0.3528
C28_14 C 0.99737(10) 0.41677(10) 0.0731(2)
H26_14 H 0.9744 0.4193 0.0909
H27_14 H 0.9991 0.4273 0.0221
H28_14 H 0.9918 0.3709 0.0244
C30_14 C 0.99933(14) 0.36173(12) 0.1392(4)
H30_14 H 0.9764 0.3655 0.1557
H32_14 H 0.9902 0.3166 0.0922
C32_14 C 0.9994(2) 0.30738(18) 0.2056(6)
H34_14 H 0.9766 0.3104 0.2220
O3_15 O 0.92384(6) 0.95200(6) 0.02871(15)
N2_15 N 0.92139(7) 0.99979(7) 0.09609(18)
N3_15 N 0.85350(8) 0.94183(8) 0.05845(19)
C8_15 C 0.93492(9) 0.97181(9) 0.0808(2)
C9_15 C 0.96362(10) 0.96022(10) 0.1271(3)
H5_15 H 0.9813 0.9527 0.0924
H6_15 H 0.9723 0.9787 0.1580
C10_15 C 0.95353(17) 0.93177(18) 0.1808(5)
H7_15 H 0.9420 0.9147 0.1505
H8_15 H 0.9380 0.9402 0.2196
C11_15 C 0.9824(3) 0.9164(3) 0.2207(6)
H10_15 H 0.9813 0.8925 0.2107
C12_16 C 0.9865(3) 0.9196(5) 0.2852(7)
H11_16 H 0.9900 0.9433 0.2946
H12_16 H 0.9657 0.9136 0.3110
C14_15 C 0.83012(11) 0.92162(10) 0.0353(3)
C15_15 C 0.81096(11) 0.90363(11) 0.0842(3)
H17_15 H 0.7943 0.8895 0.0647
C16_15 C 0.81589(13) 0.90607(13) 0.1612(3)
C17_15 C 0.83986(14) 0.92750(13) 0.1862(3)
H18_15 H 0.8438 0.9303 0.2394
C18_15 C 0.85796(12) 0.94472(12) 0.1337(3)
H19_15 H 0.8744 0.9594 0.1517
C19_15 C 0.79574(19) 0.88502(18) 0.2163(3)
H20_15 H 0.8022 0.8618 0.2083
H21_15 H 0.7724 0.8870 0.2013
C22_16 C 0.96337(12) 0.99326(12) 0.4115(3)
H22_16 H 0.9853 0.9976 0.4273
C23_16 C 0.94304(15) 0.97457(13) 0.4575(3)
H23_16 H 0.9507 0.9663 0.5050
C24_16 C 0.91193(14) 0.96823(12) 0.4335(3)
H24_16 H 0.8979 0.9552 0.4647
C25_16 C 0.90029(12) 0.98018(11) 0.3656(3)
H25_16 H 0.8787 0.9746 0.3495
N9_9 N 0.73783(8) 0.82466(9) 0.42280(19)
C49_16 C 0.76750(13) 0.81648(12) 0.3979(3)
H59_16 H 0.7758 0.7953 0.4098
C50_16 C 0.78666(14) 0.83725(14) 0.3560(3)
H60_16 H 0.8076 0.8301 0.3383
C51_16 C 0.77586(13) 0.86841(16) 0.3393(3)
C52_15 C 0.74497(13) 0.87602(16) 0.3620(3)
H61_15 H 0.7358 0.8967 0.3485
C53_15 C 0.72697(11) 0.85433(13) 0.4041(3)
H62_15 H 0.7057 0.8607 0.4208
C54_16 C 0.79790(15) 0.89161(19) 0.2950(4)
H63_16 H 0.7912 0.9146 0.3050
H64_16 H 0.8209 0.8889 0.3122
Mn1_15 Mn 0.719849(13) 0.863430(13) 0.72514(3)
O1_15 O 0.74215(6) 0.89893(6) 0.68468(15)
O2_14 O 0.79753(6) 0.86812(6) 0.87786(15)
O3_16 O 0.70200(6) 0.82616(6) 0.77871(15)
N1_14 N 0.75440(7) 0.85666(7) 0.79986(17)
N2_16 N 0.74979(7) 0.82861(7) 0.84609(18)
N3_16 N 0.69183(8) 0.89650(8) 0.80845(19)
C1_14 C 0.76648(9) 0.91615(9) 0.7157(2)
C2_14 C 0.78478(9) 0.90648(8) 0.7800(2)
C3_14 C 0.80982(9) 0.92728(9) 0.8059(2)
H1_14 H 0.8223 0.9209 0.8495
C4_14 C 0.81700(10) 0.95643(10) 0.7707(3)
H2_14 H 0.8341 0.9701 0.7895
C5_14 C 0.79902(11) 0.96553(11) 0.7075(3)
H3_14 H 0.8038 0.9858 0.6828
C6_14 C 0.77438(11) 0.94595(10) 0.6797(3)
H4_14 H 0.7625 0.9526 0.6356
C7_14 C 0.77892(9) 0.87563(8) 0.8215(2)
C8_16 C 0.72181(9) 0.81508(9) 0.8308(2)
C9_16 C 0.71022(10) 0.78638(10) 0.8771(3)
H5_16 H 0.7027 0.7687 0.8424
H6_16 H 0.7287 0.7777 0.9080
C10_16 C 0.68177(18) 0.79647(17) 0.9308(5)
H7_16 H 0.6647 0.8080 0.9005
H8_16 H 0.6902 0.8120 0.9696
C11_16 C 0.6664(3) 0.7676(3) 0.9707(6)
H9_14 H 0.6746 0.7476 0.9448
H10_16 H 0.6425 0.7687 0.9607
C14_16 C 0.67162(10) 0.91988(11) 0.7853(3)
H16_15 H 0.6695 0.9236 0.7319
C15_16 C 0.65363(11) 0.93904(11) 0.8342(3)
H17_16 H 0.6395 0.9557 0.8147
C16_16 C 0.65607(13) 0.93411(13) 0.9112(3)
C17_16 C 0.67750(13) 0.91014(14) 0.9362(3)
H18_16 H 0.6803 0.9062 0.9894
C18_16 C 0.69472(12) 0.89204(12) 0.8837(3)
H19_16 H 0.7094 0.8756 0.9017
C19_16 C 0.63502(18) 0.95426(19) 0.9663(3)
H20_16 H 0.6118 0.9478 0.9583
H21_16 H 0.6370 0.9776 0.9513
Mn2_14 Mn 0.790188(13) 0.826508(13) 0.93299(3)
O7_14 O 0.81661(6) 0.80116(6) 0.86279(15)
N4_14 N 0.78602(7) 0.78350(7) 0.97903(17)
C27_14 C 0.81612(9) 0.76987(9) 0.8777(2)
C28_15 C 0.83323(10) 0.74737(10) 0.8231(2)
H26_15 H 0.8307 0.7244 0.8409
H27_15 H 0.8227 0.7491 0.7721
C29_14 C 0.86943(12) 0.75538(11) 0.8157(3)
H28_15 H 0.8791 0.7418 0.7744
H29_14 H 0.8719 0.7787 0.8009
C30_15 C 0.88827(12) 0.74933(14) 0.8892(4)
H30_15 H 0.8845 0.7264 0.9057
H31_14 H 0.8795 0.7639 0.9295
C31_14 C 0.92447(15) 0.7551(2) 0.8819(6)
H32_15 H 0.9334 0.7402 0.8422
H33_14 H 0.9283 0.7780 0.8648
C32_15 C 0.94262(18) 0.7494(2) 0.9556(6)
H34_15 H 0.9396 0.7266 0.9720
H35_14 H 0.9661 0.7537 0.9479
H36_14 H 0.9341 0.7642 0.9951
C33_14 C 0.86216(11) 0.83971(10) 0.9739(3)
H37_14 H 0.8647 0.8330 0.9222
C35_14 C 0.92025(13) 0.85235(19) 0.9739(5)
H41_14 H 0.9274 0.8753 0.9740
H43_14 H 0.9184 0.8446 0.9210
O8_15 O 0.67037(6) 0.79853(6) 0.46807(16)
O9_15 O 0.68288(6) 0.86545(6) 0.65141(15)
O10_14 O 0.75383(6) 0.78739(6) 0.55809(14)
N7_15 N 0.70632(7) 0.82428(7) 0.58329(17)
N8_15 N 0.73353(7) 0.82830(7) 0.63220(17)
C36_15 C 0.64951(9) 0.82261(9) 0.4847(2)
C37_15 C 0.65370(9) 0.84515(9) 0.5440(2)
C38_15 C 0.63008(9) 0.86962(10) 0.5545(3)
H44_15 H 0.6329 0.8850 0.5948
C39_15 C 0.60317(10) 0.87209(11) 0.5091(3)
H45_15 H 0.5877 0.8893 0.5167
C40_15 C 0.59848(11) 0.84931(12) 0.4517(3)
H46_15 H 0.5793 0.8504 0.4207
C41_15 C 0.62134(11) 0.82496(11) 0.4392(3)
H47_15 H 0.6179 0.8096 0.3991
C42_15 C 0.68221(8) 0.84502(8) 0.5954(2)
C43_14 C 0.75680(9) 0.80839(9) 0.6135(2)
C44_14 C 0.78920(9) 0.80973(11) 0.6528(2)
H48_14 H 0.7959 0.7873 0.6681
H49_14 H 0.7873 0.8232 0.6998
C45_14 C 0.81560(11) 0.82461(14) 0.6000(3)
H50_14 H 0.8374 0.8219 0.6243
H51_14 H 0.8158 0.8123 0.5511
C46_14 C 0.81002(15) 0.86046(14) 0.5833(4)
H52_14 H 0.8100 0.8726 0.6324
H53_14 H 0.7880 0.8630 0.5602
C47_14 C 0.83521(17) 0.8761(2) 0.5302(5)
H54_14 H 0.8574 0.8729 0.5520
H55_14 H 0.8345 0.8647 0.4801
C48_14 C 0.8297(3) 0.9120(2) 0.5176(7)
H56_14 H 0.8062 0.9161 0.5089
H57_14 H 0.8422 0.9193 0.4728
H58_14 H 0.8370 0.9243 0.5628
C1_15 C 0.16615(9) 0.98352(9) 0.0343(2)
C5_15 C 0.21553(11) 0.95098(11) 0.0425(3)
H3_15 H 0.2358 0.9462 0.0672
C6_15 C 0.19595(10) 0.97562(11) 0.0703(3)
H4_15 H 0.2026 0.9875 0.1144
O10_15 O 0.03739(6) 0.99617(6) 0.19191(14)
C43_15 C 0.05839(9) 0.99320(9) 0.1365(2)
C44_15 C 0.05973(11) 0.96080(9) 0.0972(2)
H48_15 H 0.0373 0.9541 0.0819
H49_15 H 0.0732 0.9627 0.0502
C45_15 C 0.07461(14) 0.93440(11) 0.1500(3)
H50_15 H 0.0719 0.9126 0.1257
H51_15 H 0.0623 0.9342 0.1989
C46_15 C 0.11046(14) 0.93998(15) 0.1667(4)
H52_15 H 0.1226 0.9400 0.1176
H53_15 H 0.1130 0.9620 0.1898
C47_15 C 0.1261(2) 0.91479(17) 0.2198(5)
H54_15 H 0.1229 0.8926 0.1980
H55_15 H 0.1147 0.9155 0.2699
C48_15 C 0.1620(2) 0.9203(3) 0.2324(7)
H56_15 H 0.1661 0.9438 0.2411
H57_15 H 0.1693 0.9078 0.2772
H58_15 H 0.1743 0.9130 0.1872
O2_15 O 0.11812(6) 0.95247(6) 0.87214(15)
N1_15 N 0.10666(7) 0.99560(7) 0.95014(17)
C2_15 C 0.15648(8) 0.96522(9) 0.9700(2)
C3_15 C 0.17728(9) 0.94018(9) 0.9441(2)
H1_15 H 0.1709 0.9277 0.9005
C4_15 C 0.20643(10) 0.93300(10) 0.9793(3)
H2_15 H 0.2201 0.9159 0.9605
C7_15 C 0.12563(8) 0.97108(9) 0.9285(2)
Mn2_15 Mn 0.076508(13) 0.959812(13) 0.81701(3)
O4_15 O 0.09401(6) 0.98740(7) 0.74274(17)
O6_15 O 0.08843(7) 0.91506(7) 0.74911(17)
O7_15 O 0.05116(6) 0.93339(6) 0.88721(15)
N4_15 N 0.03350(7) 0.96398(7) 0.77097(17)
N5_8 N 0.00795(7) 0.94859(7) 0.81263(17)
N6_15 N 0.09981(10) 0.86106(9) 0.7391(3)
C20_15 C 0.08047(10) 0.99970(9) 0.6800(2)
C21_15 C 0.04791(10) 0.99418(9) 0.6576(2)
C26_15 C 0.02397(9) 0.97648(9) 0.7053(2)
C27_15 C 0.01987(9) 0.93388(9) 0.8723(2)
C29_15 C 0.00538(11) 0.88057(12) 0.9343(3)
H29_15 H 0.0287 0.8781 0.9491
H31_15 H 0.0139 0.8705 0.8205
C31_15 C 0.0051(2) 0.82553(15) 0.8681(6)
H33_15 H 0.0280 0.8217 0.8852
H35_15 H 0.0037 0.7839 0.8021
H36_15 H 0.0142 0.8159 0.7549
C33_15 C 0.08971(10) 0.88784(11) 0.7761(3)
H37_15 H 0.0830 0.8853 0.8278
C34_15 C 0.11093(16) 0.86226(16) 0.6610(4)
H38_15 H 0.1102 0.8850 0.6426
H39_15 H 0.0967 0.8485 0.6292
H40_15 H 0.1336 0.8541 0.6581
C35_15 C 0.10235(19) 0.82975(13) 0.7761(5)
H41_15 H 0.1253 0.8226 0.7760
H42_15 H 0.0889 0.8136 0.7486
H43_15 H 0.0946 0.8316 0.8290
N10_8 N 0.99205(7) 0.05141(7) 0.18737(17)
O2_16 O 0.88188(6) 0.04753(6) 0.12786(15)
N1_16 N 0.89334(7) 0.00440(7) 0.04986(17)
C2_16 C 0.84352(8) 0.03478(9) 0.0300(2)
C3_16 C 0.82272(9) 0.05982(9) 0.0559(2)
H1_16 H 0.8291 0.0723 0.0995
C4_16 C 0.79357(10) 0.06700(10) 0.0207(3)
H2_16 H 0.7799 0.0841 0.0395
C7_16 C 0.87437(8) 0.02892(9) 0.0715(2)
Mn2_16 Mn 0.923492(13) 0.040188(13) 0.18299(3)
O4_16 O 0.90599(6) 0.01260(7) 0.25726(17)
O6_16 O 0.91157(7) 0.08494(7) 0.25089(17)
O7_16 O 0.94884(6) 0.06661(6) 0.11279(15)
N4_16 N 0.96650(7) 0.03602(7) 0.22903(17)
N6_16 N 0.90019(10) 0.13894(9) 0.2609(3)
C20_16 C 0.91953(10) 0.00030(9) 0.3200(2)
C21_16 C 0.95209(10) 0.00582(9) 0.3424(2)
C26_16 C 0.97603(9) 0.02352(9) 0.2947(2)
C27_16 C 0.98013(9) 0.06612(9) 0.1277(2)
C29_16 C 0.99462(11) 0.11943(12) 0.0657(3)
H29_16 H 0.9713 0.1219 0.0509
H31_16 H 0.9861 0.1295 0.1795
C31_16 C 0.9949(2) 0.17447(15) 0.1319(6)
H33_16 H 0.9720 0.1783 0.1148
H35_16 H 0.9963 0.2161 0.1979
H36_16 H 0.9858 0.1841 0.2451
C33_16 C 0.91029(10) 0.11216(11) 0.2239(3)
H37_16 H 0.9170 0.1147 0.1722
C34_16 C 0.88907(16) 0.13774(16) 0.3390(4)
H38_16 H 0.8898 0.1150 0.3574
H39_16 H 0.9033 0.1515 0.3708
H40_16 H 0.8664 0.1459 0.3419
C35_16 C 0.89765(19) 0.17025(13) 0.2239(5)
H41_16 H 0.8747 0.1774 0.2240
H42_16 H 0.9111 0.1864 0.2514
H43_16 H 0.9054 0.1684 0.1710
H9_15 H 0.9976 0.0754 0.8052
C13_15 C 0.9851(2) 0.0993(3) 0.6729(7)
H13_15 H 0.9686 0.1062 0.7105
H14_15 H 0.9749 0.0848 0.6350
H15_15 H 0.9942 0.1187 0.6472
O5_8 O 0.99428(6) 0.97457(6) 0.68258(14)
C28_16 C 0.99737(10) 0.91677(10) 0.9269(2)
H26_16 H 0.9744 0.9193 0.9091
H27_16 H 0.9991 0.9273 0.9779
H28_16 H 0.9918 0.8709 0.9756
C30_16 C 0.99933(14) 0.86173(12) 0.8608(4)
H30_16 H 0.9764 0.8655 0.8443
H32_16 H 0.9902 0.8166 0.9078
C32_16 C 0.9994(2) 0.80738(18) 0.7944(6)
H34_16 H 0.9766 0.8104 0.7780
Mn4_8 Mn 0.959700(13) 0.962100(13) 0.75667(3)
N9_10 N 0.92534(9) 0.98783(8) 0.67280(19)
C52_16 C 0.87398(16) 0.99497(13) 0.6120(3)
H61_16 H 0.8533 0.9858 0.5985
C53_16 C 0.89567(13) 0.97697(11) 0.6541(3)
H62_16 H 0.8893 0.9557 0.6708
Mn1_16 Mn 0.886570(13) 0.969849(13) 0.97514(3)
O1_16 O 0.85107(6) 0.99215(6) 0.93468(15)
H16_16 H 0.8264 0.9195 0.9819
O8_16 O 0.95147(6) 0.92037(6) 0.71807(16)
O9_16 O 0.88455(6) 0.93288(6) 0.90141(15)
N7_16 N 0.92572(7) 0.95632(7) 0.83329(17)
N8_16 N 0.92170(7) 0.98353(7) 0.88220(17)
C36_16 C 0.92739(9) 0.89951(9) 0.7347(2)
C37_16 C 0.90485(9) 0.90370(9) 0.7940(2)
C38_16 C 0.88038(10) 0.88008(9) 0.8045(3)
H44_16 H 0.8650 0.8829 0.8448
C39_16 C 0.87791(11) 0.85317(10) 0.7591(3)
H45_16 H 0.8607 0.8377 0.7667
C40_16 C 0.90069(12) 0.84848(11) 0.7017(3)
H46_16 H 0.8996 0.8293 0.6707
C41_16 C 0.92504(11) 0.87134(11) 0.6892(3)
H47_16 H 0.9404 0.8679 0.6491
C42_16 C 0.90498(8) 0.93221(8) 0.8454(2)
H9_16 H 0.0024 0.9246 0.1948
C13_16 C 0.0149(2) 0.9007(3) 0.3271(7)
H13_16 H 0.0314 0.8938 0.2895
H14_16 H 0.0251 0.9152 0.3650
H15_16 H 0.0058 0.8813 0.3528
C1_16 C 0.83385(9) 0.01648(9) 0.9657(2)
C5_16 C 0.78447(11) 0.04902(11) 0.9575(3)
H3_16 H 0.7642 0.0538 0.9328
C6_16 C 0.80405(10) 0.02438(11) 0.9297(3)
H4_16 H 0.7974 0.0125 0.8856
O10_16 O 0.96261(6) 0.00383(6) 0.80809(14)
C43_16 C 0.94161(9) 0.00680(9) 0.8635(2)
C44_16 C 0.94027(11) 0.03920(9) 0.9028(2)
H48_16 H 0.9627 0.0459 0.9181
H49_16 H 0.9268 0.0373 0.9498
C45_16 C 0.92539(14) 0.06560(11) 0.8500(3)
H50_16 H 0.9281 0.0874 0.8743
H51_16 H 0.9377 0.0658 0.8011
C46_16 C 0.88954(14) 0.06002(15) 0.8333(4)
H52_16 H 0.8774 0.0600 0.8824
H53_16 H 0.8870 0.0380 0.8102
C47_16 C 0.8739(2) 0.08521(17) 0.7802(5)
H54_16 H 0.8771 0.1074 0.8020
H55_16 H 0.8853 0.0845 0.7301
C48_16 C 0.8380(2) 0.0797(3) 0.7676(7)
H56_16 H 0.8339 0.0562 0.7589
H57_16 H 0.8307 0.0922 0.7228
H58_16 H 0.8257 0.0870 0.8128
loop_
_geom_bond_atom_site_label_1
_geom_bond_atom_site_label_2
_geom_bond_site_symmetry_1
_geom_bond_site_symmetry_2
Mn1 O1 1_555 1_555
O1 C1 1_555 1_555
O2 C7 1_555 1_555
O3 Mn1 1_555 1_555
N1 Mn1 1_555 1_555
N2 N1 1_555 1_555
N3 Mn1 1_555 1_555
C1 C2 1_555 1_555
C2 C3 1_555 1_555
C3 H1 1_555 1_555
C4 C3 1_555 1_555
H2 C4 1_555 1_555
C5 C4 1_555 1_555
H3 C5 1_555 1_555
C6 C1 1_555 1_555
H4 C6 1_555 1_555
C7 N1 1_555 1_555
C8 O3 1_555 1_555
C9 C8 1_555 1_555
H5 C9 1_555 1_555
H6 C9 1_555 1_555
C10 C9 1_555 1_555
H7 C10 1_555 1_555
H8 C10 1_555 1_555
C11 C10 1_555 1_555
H9 C11 1_555 1_555
H10 C11 1_555 1_555
C14 N3 1_555 1_555
H16 C14 1_555 1_555
C15 C14 1_555 1_555
H17 C15 1_555 1_555
C16 C15 1_555 1_555
C17 C16 1_555 1_555
H18 C17 1_555 1_555
C18 N3 1_555 1_555
H19 C18 1_555 1_555
C19 C16 1_555 1_555
H20 C19 1_555 1_555
H21 C19 1_555 1_555
Mn2 O2 1_555 1_555
O7 Mn2 1_555 1_555
N4 Mn2 1_555 1_555
N5 N4 1_555 1_555
C27 O7 1_555 1_555
C28 C27 1_555 1_555
H26 C28 1_555 1_555
H27 C28 1_555 1_555
C29 C28 1_555 1_555
H28 C29 1_555 1_555
H29 C29 1_555 1_555
C30 C29 1_555 1_555
H30 C30 1_555 1_555
H31 C30 1_555 1_555
C31 C30 1_555 1_555
H32 C31 1_555 1_555
H33 C31 1_555 1_555
C32 C31 1_555 1_555
H34 C32 1_555 1_555
H35 C32 1_555 1_555
H36 C32 1_555 1_555
H37 C33 1_555 1_555
H41 C35 1_555 1_555
H43 C35 1_555 1_555
Mn3 O8 1_555 1_555
O8 C36 1_555 1_555
O9 Mn1 1_555 1_555
O10 Mn3 1_555 1_555
N7 Mn3 1_555 1_555
N8 Mn1 1_555 1_555
C36 C37 1_555 1_555
C37 C38 1_555 1_555
C38 H44 1_555 1_555
C39 C38 1_555 1_555
H45 C39 1_555 1_555
C40 C39 1_555 1_555
H46 C40 1_555 1_555
C41 C36 1_555 1_555
H47 C41 1_555 1_555
C42 O9 1_555 1_555
C43 O10 1_555 1_555
C44 C43 1_555 1_555
H48 C44 1_555 1_555
H49 C44 1_555 1_555
C45 C44 1_555 1_555
H50 C45 1_555 1_555
H51 C45 1_555 1_555
C46 C45 1_555 1_555
H52 C46 1_555 1_555
H53 C46 1_555 1_555
C47 C46 1_555 1_555
H54 C47 1_555 1_555
H55 C47 1_555 1_555
C48 C47 1_555 1_555
H56 C48 1_555 1_555
H57 C48 1_555 1_555
H58 C48 1_555 1_555
O11 Mn3 1_555 1_555
N10 Mn3 1_555 1_555
N11 Mn3 1_555 1_555
N2 C8 1_555 1_555
N2 Mn2 1_555 1_555
C2 C7 1_555 1_555
C5 C6 1_555 1_555
C17 C18 1_555 1_555
N5 C27 1_555 1_555
N5 Mn4 1_555 1_555
N7 N8 1_555 1_555
N7 C42 1_555 1_555
N8 C43 1_555 1_555
C37 C42 1_555 1_555
C40 C41 1_555 1_555
O2_2 C7_2 1_555 1_555
N2_2 N1_2 1_555 1_555
C2_2 C3_2 1_555 1_555
C3_2 H1_2 1_555 1_555
C4_2 C3_2 1_555 1_555
H2_2 C4_2 1_555 1_555
C7_2 N1_2 1_555 1_555
C8_2 O3_2 1_555 1_555
C9_2 C8_2 1_555 1_555
H5_2 C9_2 1_555 1_555
H6_2 C9_2 1_555 1_555
C10_2 C9_2 1_555 1_555
H7_2 C10_2 1_555 1_555
H8_2 C10_2 1_555 1_555
C11_2 C10_2 1_555 1_555
H10_2 C11_2 1_555 1_555
C12 C11_2 1_555 1_555
H11 C12 1_555 1_555
H12 C12 1_555 1_555
C14_2 N3_2 1_555 1_555
C15_2 C14_2 1_555 1_555
H17_2 C15_2 1_555 1_555
C16_2 C15_2 1_555 1_555
C17_2 C16_2 1_555 1_555
H18_2 C17_2 1_555 1_555
C18_2 N3_2 1_555 1_555
H19_2 C18_2 1_555 1_555
C19_2 C16_2 1_555 1_555
H20_2 C19_2 1_555 1_555
H21_2 C19_2 1_555 1_555
Mn2_2 O2_2 1_555 1_555
O4 Mn2_2 1_555 1_555
O6 Mn2_2 1_555 1_555
O7_2 Mn2_2 1_555 1_555
N4_2 Mn2_2 1_555 1_555
N5_2 N4_2 1_555 1_555
N6 C33_2 1_555 1_555
C20 O4 1_555 1_555
C21 C20 1_555 1_555
C22 C21 1_555 1_555
H22 C22 1_555 1_555
C23 C22 1_555 1_555
H23 C23 1_555 1_555
C24 C23 1_555 1_555
H24 C24 1_555 1_555
C25 C20 1_555 1_555
H25 C25 1_555 1_555
C26 N4_2 1_555 1_555
C27_2 O7_2 1_555 1_555
H29_2 C29_2 1_555 1_555
H33_2 C31_2 1_555 1_555
C33_2 O6 1_555 1_555
H37_2 C33_2 1_555 1_555
C34 N6 1_555 1_555
H38 C34 1_555 1_555
H39 C34 1_555 1_555
H40 C34 1_555 1_555
C35_2 N6 1_555 1_555
H41_2 C35_2 1_555 1_555
H42 C35_2 1_555 1_555
H43_2 C35_2 1_555 1_555
N11 C49 1_555 1_555
C49 H59 1_555 1_555
C50 C49 1_555 1_555
H60 C50 1_555 1_555
C51 C50 1_555 1_555
C52 C51 1_555 1_555
H61 C52 1_555 1_555
C53 N11 1_555 1_555
H62 C53 1_555 1_555
C54 C19_2 1_555 1_555
H63 C54 1_555 1_555
H64 C54 1_555 1_555
N2_2 C8_2 1_555 1_555
N2_2 Mn2_2 1_555 1_555
C2_2 C7_2 1_555 1_555
C17_2 C18_2 1_555 1_555
N5_2 C27_2 1_555 1_555
C21 C26 1_555 1_555
C24 C25 1_555 1_555
C51 C54 1_555 1_555
C52 C53 1_555 1_555
Mn1_2 O1_2 1_555 1_555
O1_2 C1_2 1_555 1_555
O2_3 C7_3 1_555 1_555
O3_3 Mn1_2 1_555 1_555
N1_3 Mn1_2 1_555 1_555
N2_3 N1_3 1_555 1_555
N3_3 Mn1_2 1_555 1_555
C1_2 C2_3 1_555 1_555
C2_3 C3_3 1_555 1_555
C3_3 H1_3 1_555 1_555
C4_3 C3_3 1_555 1_555
H2_3 C4_3 1_555 1_555
C5_2 C4_3 1_555 1_555
H3_2 C5_2 1_555 1_555
C6_2 C1_2 1_555 1_555
H4_2 C6_2 1_555 1_555
C7_3 N1_3 1_555 1_555
C8_3 O3_3 1_555 1_555
C9_3 C8_3 1_555 1_555
H5_3 C9_3 1_555 1_555
H6_3 C9_3 1_555 1_555
C10_3 C9_3 1_555 1_555
H7_3 C10_3 1_555 1_555
H8_3 C10_3 1_555 1_555
C11_3 C10_3 1_555 1_555
H9_2 C11_3 1_555 1_555
H10_3 C11_3 1_555 1_555
C12_2 C11_3 1_555 1_555
H11_2 C12_2 1_555 1_555
H12_2 C12_2 1_555 1_555
C13 C12_2 1_555 1_555
H13 C13 1_555 1_555
H14 C13 1_555 1_555
H15 C13 1_555 1_555
C14_3 N3_3 1_555 1_555
H16_2 C14_3 1_555 1_555
C15_3 C14_3 1_555 1_555
H17_3 C15_3 1_555 1_555
C16_3 C15_3 1_555 1_555
C17_3 C16_3 1_555 1_555
H18_3 C17_3 1_555 1_555
C18_3 N3_3 1_555 1_555
H19_3 C18_3 1_555 1_555
C19_3 C16_3 1_555 1_555
H20_3 C19_3 1_555 1_555
H21_3 C19_3 1_555 1_555
Mn2_3 O2_3 1_555 1_555
O4_2 Mn2_3 1_555 1_555
O11 C26_2 1_555 1_555
O6_2 Mn2_3 1_555 1_555
O7_3 Mn2_3 1_555 1_555
N4_3 Mn2_3 1_555 1_555
N10 N4_3 1_555 1_555
N6_2 C33_3 1_555 1_555
C20_2 O4_2 1_555 1_555
C21_2 C20_2 1_555 1_555
C22_2 C21_2 1_555 1_555
H22_2 C22_2 1_555 1_555
C23_2 C22_2 1_555 1_555
H23_3 C23_2 1_555 1_555
C24_2 C23_2 1_555 1_555
H24_2 C24_2 1_555 1_555
C25_2 C20_2 1_555 1_555
H25_2 C25_2 1_555 1_555
C26_2 N4_3 1_555 1_555
C27_3 O7_3 1_555 1_555
C28_2 C27_3 1_555 1_555
H26_2 C28_2 1_555 1_555
H27_2 C28_2 1_555 1_555
C29_3 C28_2 1_555 1_555
H28_2 C29_3 1_555 1_555
H29_3 C29_3 1_555 1_555
C30_2 C29_3 1_555 1_555
H30_2 C30_2 1_555 1_555
H31_3 C30_2 1_555 1_555
C31_3 C30_2 1_555 1_555
H32_2 C31_3 1_555 1_555
H33_3 C31_3 1_555 1_555
C32_2 C31_3 1_555 1_555
H34_2 C32_2 1_555 1_555
H35_3 C32_2 1_555 1_555
H36_3 C32_2 1_555 1_555
C33_3 O6_2 1_555 1_555
H37_3 C33_3 1_555 1_555
C34_2 N6_2 1_555 1_555
H38_2 C34_2 1_555 1_555
H39_2 C34_2 1_555 1_555
H40_2 C34_2 1_555 1_555
C35_3 N6_2 1_555 1_555
H41_3 C35_3 1_555 1_555
H42_2 C35_3 1_555 1_555
H43_3 C35_3 1_555 1_555
O9_2 Mn1_2 1_555 1_555
O10_2 Mn4 1_555 1_555
N7_2 Mn4 1_555 1_555
N8_2 Mn1_2 1_555 1_555
C37_2 C38_2 1_555 1_555
C38_2 H44_2 1_555 1_555
C39_2 C38_2 1_555 1_555
H45_2 C39_2 1_555 1_555
C42_2 O9_2 1_555 1_555
C43_2 O10_2 1_555 1_555
C44_2 C43_2 1_555 1_555
H48_2 C44_2 1_555 1_555
H49_2 C44_2 1_555 1_555
C45_2 C44_2 1_555 1_555
H50_2 C45_2 1_555 1_555
H51_2 C45_2 1_555 1_555
C46_2 C45_2 1_555 1_555
H52_2 C46_2 1_555 1_555
H53_2 C46_2 1_555 1_555
C47_2 C46_2 1_555 1_555
H54_2 C47_2 1_555 1_555
C48_2 C47_2 1_555 1_555
H56_2 C48_2 1_555 1_555
H58_2 C48_2 1_555 1_555
C49_2 H59_2 1_555 1_555
C50_2 C49_2 1_555 1_555
H60_2 C50_2 1_555 1_555
C51_2 C50_2 1_555 1_555
C54_2 C19_3 1_555 1_555
H63_2 C54_2 1_555 1_555
H64_2 C54_2 1_555 1_555
N2_3 C8_3 1_555 1_555
N2_3 Mn2_3 1_555 1_555
C2_3 C7_3 1_555 1_555
C5_2 C6_2 1_555 1_555
C17_3 C18_3 1_555 1_555
N10 C27_3 1_555 1_555
C21_2 C26_2 1_555 1_555
C24_2 C25_2 1_555 1_555
N7_2 N8_2 1_555 1_555
N7_2 C42_2 1_555 1_555
N8_2 C43_2 1_555 1_555
C37_2 C42_2 1_555 1_555
C51_2 C54_2 1_555 1_555
H11_3 C12_3 1_555 1_555
H12_3 C12_3 1_555 1_555
C13_2 C12_3 1_555 1_555
H13_2 C13_2 1_555 1_555
H14_2 C13_2 1_555 1_555
H15_2 C13_2 1_555 1_555
O5 C26_3 1_555 1_555
C20_3 O4_3 1_555 1_555
C21_3 C20_3 1_555 1_555
C22_3 C21_3 1_555 1_555
H22_3 C22_3 1_555 1_555
C23_3 C22_3 1_555 1_555
H23_4 C23_3 1_555 1_555
C24_3 C23_3 1_555 1_555
H24_3 C24_3 1_555 1_555
C25_3 C20_3 1_555 1_555
H25_3 C25_3 1_555 1_555
C34_3 N6_3 1_555 1_555
H38_3 C34_3 1_555 1_555
H39_3 C34_3 1_555 1_555
H40_3 C34_3 1_555 1_555
N9 C49_3 1_555 1_555
C49_3 H59_3 1_555 1_555
C50_3 C49_3 1_555 1_555
H60_3 C50_3 1_555 1_555
C51_3 C50_3 1_555 1_555
C52_2 C51_3 1_555 1_555
H61_2 C52_2 1_555 1_555
C53_2 N9 1_555 1_555
H62_2 C53_2 1_555 1_555
H63_3 C54_3 1_555 1_555
H64_3 C54_3 1_555 1_555
Mn5 N9 1_555 1_555
C21_3 C26_3 1_555 1_555
C24_3 C25_3 1_555 1_555
C51_3 C54_3 1_555 1_555
C52_2 C53_2 1_555 1_555
O2_4 C7_4 1_555 1_555
C1_3 C2_4 1_555 1_555
C2_4 C3_4 1_555 1_555
C3_4 H1_4 1_555 1_555
C4_4 C3_4 1_555 1_555
H2_4 C4_4 1_555 1_555
C5_3 C4_4 1_555 1_555
H3_3 C5_3 1_555 1_555
C6_3 C1_3 1_555 1_555
H4_3 C6_3 1_555 1_555
C7_4 N1_4 1_555 1_555
Mn2_4 O2_4 1_555 1_555
O4_4 Mn2_4 1_555 1_555
O5_2 C26_4 1_555 1_555
O6_4 Mn2_4 1_555 1_555
O7_4 Mn2_4 1_555 1_555
N4_4 Mn2_4 1_555 1_555
N5_3 N4_4 1_555 1_555
N6_4 C33_4 1_555 1_555
C20_4 O4_4 1_555 1_555
C21_4 C20_4 1_555 1_555
C26_4 N4_4 1_555 1_555
C27_4 O7_4 1_555 1_555
C28_3 C27_4 1_555 1_555
H26_3 C28_3 1_555 1_555
H27_3 C28_3 1_555 1_555
C29_4 C28_3 1_555 1_555
H28_3 C29_4 1_555 1_555
H29_4 C29_4 1_555 1_555
C30_3 C29_4 1_555 1_555
H30_3 C30_3 1_555 1_555
H31_4 C30_3 1_555 1_555
C31_4 C30_3 1_555 1_555
H32_3 C31_4 1_555 1_555
H33_4 C31_4 1_555 1_555
C32_3 C31_4 1_555 1_555
H34_3 C32_3 1_555 1_555
H35_4 C32_3 1_555 1_555
H36_4 C32_3 1_555 1_555
C33_4 O6_4 1_555 1_555
H37_4 C33_4 1_555 1_555
C34_4 N6_4 1_555 1_555
H38_4 C34_4 1_555 1_555
H39_4 C34_4 1_555 1_555
H40_4 C34_4 1_555 1_555
C35_4 N6_4 1_555 1_555
H41_4 C35_4 1_555 1_555
H42_4 C35_4 1_555 1_555
H43_4 C35_4 1_555 1_555
C43_3 O10_3 1_555 1_555
C44_3 C43_3 1_555 1_555
H48_3 C44_3 1_555 1_555
H49_3 C44_3 1_555 1_555
C45_3 C44_3 1_555 1_555
H50_3 C45_3 1_555 1_555
H51_3 C45_3 1_555 1_555
C46_3 C45_3 1_555 1_555
H52_3 C46_3 1_555 1_555
H53_3 C46_3 1_555 1_555
C47_3 C46_3 1_555 1_555
H54_3 C47_3 1_555 1_555
H55_2 C47_3 1_555 1_555
C48_3 C47_3 1_555 1_555
H56_3 C48_3 1_555 1_555
H57_2 C48_3 1_555 1_555
H58_3 C48_3 1_555 1_555
Mn4_2 O5_2 1_555 1_555
C2_4 C7_4 1_555 1_555
C5_3 C6_3 1_555 1_555
N5_3 C27_4 1_555 1_555
N5_3 Mn4_2 1_555 1_555
C21_4 C26_4 1_555 1_555
Mn1_3 O1_3 1_555 1_555
O3_4 Mn1_3 1_555 1_555
N3_4 Mn1_3 1_555 1_555
C8_4 O3_4 1_555 1_555
C9_4 C8_4 1_555 1_555
H5_4 C9_4 1_555 1_555
H6_4 C9_4 1_555 1_555
C10_4 C9_4 1_555 1_555
H7_4 C10_4 1_555 1_555
H8_4 C10_4 1_555 1_555
C11_4 C10_4 1_555 1_555
H9_3 C11_4 1_555 1_555
H10_4 C11_4 1_555 1_555
C12_4 C11_4 1_555 1_555
H11_4 C12_4 1_555 1_555
H12_4 C12_4 1_555 1_555
C13_3 C12_4 1_555 1_555
H13_3 C13_3 1_555 1_555
H14_3 C13_3 1_555 1_555
H15_3 C13_3 1_555 1_555
C14_4 N3_4 1_555 1_555
H16_3 C14_4 1_555 1_555
C15_4 C14_4 1_555 1_555
H17_4 C15_4 1_555 1_555
C16_4 C15_4 1_555 1_555
C17_4 C16_4 1_555 1_555
H18_4 C17_4 1_555 1_555
C18_4 N3_4 1_555 1_555
H19_4 C18_4 1_555 1_555
C19_4 C16_4 1_555 1_555
H20_4 C19_4 1_555 1_555
H21_4 C19_4 1_555 1_555
H22_4 C22_4 1_555 1_555
C23_4 C22_4 1_555 1_555
C24_4 C23_4 1_555 1_555
H24_4 C24_4 1_555 1_555
H25_4 C25_4 1_555 1_555
Mn3_2 O8_2 1_555 1_555
O8_2 C36_2 1_555 1_555
O9_3 Mn1_3 1_555 1_555
N7_3 Mn3_2 1_555 1_555
N8_3 Mn1_3 1_555 1_555
N9_2 C49_4 1_555 1_555
C36_2 C37_3 1_555 1_555
C37_3 C38_3 1_555 1_555
C38_3 H44_3 1_555 1_555
C39_3 C38_3 1_555 1_555
H45_3 C39_3 1_555 1_555
C40_2 C39_3 1_555 1_555
H46_2 C40_2 1_555 1_555
C41_2 C36_2 1_555 1_555
H47_2 C41_2 1_555 1_555
C42_3 O9_3 1_555 1_555
C49_4 H59_4 1_555 1_555
C50_4 C49_4 1_555 1_555
H60_4 C50_4 1_555 1_555
C51_4 C50_4 1_555 1_555
C52_3 C51_4 1_555 1_555
H61_3 C52_3 1_555 1_555
C53_3 N9_2 1_555 1_555
H62_3 C53_3 1_555 1_555
C54_4 C19_4 1_555 1_555
H63_4 C54_4 1_555 1_555
H64_4 C54_4 1_555 1_555
O11_2 Mn3_2 1_555 1_555
N10_2 Mn3_2 1_555 1_555
N11_2 Mn3_2 1_555 1_555
N2_4 C8_4 1_555 1_555
C17_4 C18_4 1_555 1_555
C24_4 C25_4 1_555 1_555
N7_3 N8_3 1_555 1_555
N7_3 C42_3 1_555 1_555
C37_3 C42_3 1_555 1_555
C40_2 C41_2 1_555 1_555
C51_4 C54_4 1_555 1_555
C52_3 C53_3 1_555 1_555
O8_3 C36_3 1_555 1_555
H46_3 C40_3 1_555 1_555
C41_3 C36_3 1_555 1_555
H47_3 C41_3 1_555 1_555
C40_3 C41_3 1_555 1_555
Mn1_4 O1_4 1_555 1_555
O1_4 C1_4 1_555 1_555
O2_5 C7_5 1_555 1_555
O3_5 Mn1_4 1_555 1_555
N1_5 Mn1_4 1_555 1_555
N2_5 N1_5 1_555 1_555
N3_5 Mn1_4 1_555 1_555
C1_4 C2_5 1_555 1_555
C2_5 C3_5 1_555 1_555
C3_5 H1_5 1_555 1_555
C4_5 C3_5 1_555 1_555
H2_5 C4_5 1_555 1_555
C5_4 C4_5 1_555 1_555
H3_4 C5_4 1_555 1_555
C6_4 C1_4 1_555 1_555
H4_4 C6_4 1_555 1_555
C7_5 N1_5 1_555 1_555
C8_5 O3_5 1_555 1_555
C9_5 C8_5 1_555 1_555
H5_5 C9_5 1_555 1_555
H6_5 C9_5 1_555 1_555
C10_5 C9_5 1_555 1_555
H7_5 C10_5 1_555 1_555
H8_5 C10_5 1_555 1_555
C11_5 C10_5 1_555 1_555
H9_4 C11_5 1_555 1_555
H10_5 C11_5 1_555 1_555
C12_5 C11_5 1_555 1_555
H11_5 C12_5 1_555 1_555
H12_5 C12_5 1_555 1_555
C13_4 C12_5 1_555 1_555
H13_4 C13_4 1_555 1_555
H14_4 C13_4 1_555 1_555
H15_4 C13_4 1_555 1_555
C14_5 N3_5 1_555 1_555
H16_4 C14_5 1_555 1_555
C15_5 C14_5 1_555 1_555
H17_5 C15_5 1_555 1_555
C16_5 C15_5 1_555 1_555
C17_5 C16_5 1_555 1_555
H18_5 C17_5 1_555 1_555
C18_5 N3_5 1_555 1_555
H19_5 C18_5 1_555 1_555
C19_5 C16_5 1_555 1_555
H20_5 C19_5 1_555 1_555
H21_5 C19_5 1_555 1_555
Mn2_5 O2_5 1_555 1_555
O4_5 Mn2_5 1_555 1_555
O5_3 C26_5 1_555 1_555
O6_5 Mn2_5 1_555 1_555
O7_5 Mn2_5 1_555 1_555
N4_5 Mn2_5 1_555 1_555
N5_4 N4_5 1_555 1_555
N6_5 C33_5 1_555 1_555
C20_5 O4_5 1_555 1_555
C21_5 C20_5 1_555 1_555
C22_5 C21_5 1_555 1_555
H22_5 C22_5 1_555 1_555
C23_5 C22_5 1_555 1_555
C24_5 C23_5 1_555 1_555
H24_5 C24_5 1_555 1_555
C25_5 C20_5 1_555 1_555
H25_5 C25_5 1_555 1_555
C26_5 N4_5 1_555 1_555
C27_5 O7_5 1_555 1_555
C28_4 C27_5 1_555 1_555
H26_4 C28_4 1_555 1_555
H27_4 C28_4 1_555 1_555
C29_5 C28_4 1_555 1_555
H28_4 C29_5 1_555 1_555
H29_5 C29_5 1_555 1_555
C30_4 C29_5 1_555 1_555
H30_4 C30_4 1_555 1_555
H31_5 C30_4 1_555 1_555
C31_5 C30_4 1_555 1_555
H32_4 C31_5 1_555 1_555
H33_5 C31_5 1_555 1_555
C32_4 C31_5 1_555 1_555
H34_4 C32_4 1_555 1_555
H35_5 C32_4 1_555 1_555
H36_5 C32_4 1_555 1_555
C33_5 O6_5 1_555 1_555
H37_5 C33_5 1_555 1_555
C34_5 N6_5 1_555 1_555
H38_5 C34_5 1_555 1_555
H39_5 C34_5 1_555 1_555
H40_5 C34_5 1_555 1_555
C35_5 N6_5 1_555 1_555
H41_5 C35_5 1_555 1_555
H42_5 C35_5 1_555 1_555
H43_5 C35_5 1_555 1_555
Mn5 O8_4 1_555 1_555
O8_4 C36_4 1_555 1_555
O9_4 Mn1_4 1_555 1_555
O10_4 Mn5 1_555 1_555
N7_4 Mn5 1_555 1_555
N8_4 Mn1_4 1_555 1_555
N9_3 C49_5 1_555 1_555
C36_4 C37_4 1_555 1_555
C37_4 C38_4 1_555 1_555
C38_4 H44_4 1_555 1_555
C39_4 C38_4 1_555 1_555
H45_4 C39_4 1_555 1_555
C40_4 C39_4 1_555 1_555
H46_4 C40_4 1_555 1_555
C41_4 C36_4 1_555 1_555
H47_4 C41_4 1_555 1_555
C42_4 O9_4 1_555 1_555
C43_4 O10_4 1_555 1_555
C44_4 C43_4 1_555 1_555
H48_4 C44_4 1_555 1_555
H49_4 C44_4 1_555 1_555
C45_4 C44_4 1_555 1_555
H50_4 C45_4 1_555 1_555
H51_4 C45_4 1_555 1_555
C46_4 C45_4 1_555 1_555
H52_4 C46_4 1_555 1_555
H53_4 C46_4 1_555 1_555
C47_4 C46_4 1_555 1_555
H54_4 C47_4 1_555 1_555
H55_4 C47_4 1_555 1_555
C48_4 C47_4 1_555 1_555
H56_4 C48_4 1_555 1_555
H57_4 C48_4 1_555 1_555
H58_4 C48_4 1_555 1_555
C49_5 H59_5 1_555 1_555
C50_5 C49_5 1_555 1_555
H60_5 C50_5 1_555 1_555
C51_5 C50_5 1_555 1_555
C52_4 C51_5 1_555 1_555
H61_4 C52_4 1_555 1_555
C53_4 N9_3 1_555 1_555
H62_4 C53_4 1_555 1_555
C54_5 C19_5 1_555 1_555
H63_5 C54_5 1_555 1_555
H64_5 C54_5 1_555 1_555
O11_4 Mn5 1_555 1_555
N10_3 Mn5 1_555 1_555
Mn4_3 O5_3 1_555 1_555
N2_5 C8_5 1_555 1_555
N2_5 Mn2_5 1_555 1_555
C2_5 C7_5 1_555 1_555
C5_4 C6_4 1_555 1_555
C17_5 C18_5 1_555 1_555
N5_4 C27_5 1_555 1_555
N5_4 Mn4_3 1_555 1_555
C21_5 C26_5 1_555 1_555
C24_5 C25_5 1_555 1_555
N7_4 N8_4 1_555 1_555
N7_4 C42_4 1_555 1_555
N8_4 C43_4 1_555 1_555
C37_4 C42_4 1_555 1_555
C40_4 C41_4 1_555 1_555
C51_5 C54_5 1_555 1_555
C52_4 C53_4 1_555 1_555
O8_5 C36_5 1_555 1_555
H46_5 C40_5 1_555 1_555
C41_5 C36_5 1_555 1_555
H47_5 C41_5 1_555 1_555
C40_5 C41_5 1_555 1_555
H11_6 C12_6 1_555 1_555
H12_6 C12_6 1_555 1_555
C13_5 C12_6 1_555 1_555
H13_5 C13_5 1_555 1_555
H14_5 C13_5 1_555 1_555
H15_5 C13_5 1_555 1_555
O5_4 C26_6 1_555 1_555
C20_6 O4_6 1_555 1_555
C21_6 C20_6 1_555 1_555
C22_6 C21_6 1_555 1_555
H22_6 C22_6 1_555 1_555
C23_6 C22_6 1_555 1_555
H23_5 C23_6 1_555 1_555
C24_6 C23_6 1_555 1_555
H24_6 C24_6 1_555 1_555
C25_6 C20_6 1_555 1_555
H25_6 C25_6 1_555 1_555
C34_6 N6_6 1_555 1_555
H38_6 C34_6 1_555 1_555
H39_6 C34_6 1_555 1_555
H40_6 C34_6 1_555 1_555
C49_6 H59_6 1_555 1_555
C50_6 C49_6 1_555 1_555
H60_6 C50_6 1_555 1_555
C51_6 C50_6 1_555 1_555
H63_6 C54_6 1_555 1_555
H64_6 C54_6 1_555 1_555
C21_6 C26_6 1_555 1_555
C24_6 C25_6 1_555 1_555
C51_6 C54_6 1_555 1_555
H61_5 C52_5 1_555 1_555
C53_5 N11_2 1_555 1_555
H62_5 C53_5 1_555 1_555
C52_5 C53_5 1_555 1_555
H11_7 C12_7 1_555 1_555
H12_7 C12_7 1_555 1_555
C13_6 C12_7 1_555 1_555
H13_6 C13_6 1_555 1_555
H14_6 C13_6 1_555 1_555
H15_6 C13_6 1_555 1_555
O11_3 C26_7 1_555 1_555
C20_7 O4_7 1_555 1_555
C21_7 C20_7 1_555 1_555
C22_7 C21_7 1_555 1_555
H22_7 C22_7 1_555 1_555
C23_7 C22_7 1_555 1_555
H23_6 C23_7 1_555 1_555
C24_7 C23_7 1_555 1_555
H24_7 C24_7 1_555 1_555
C25_7 C20_7 1_555 1_555
H25_7 C25_7 1_555 1_555
C34_7 N6_7 1_555 1_555
H38_7 C34_7 1_555 1_555
H39_7 C34_7 1_555 1_555
H40_7 C34_7 1_555 1_555
N9_4 C49_7 1_555 1_555
C49_7 H59_7 1_555 1_555
C50_7 C49_7 1_555 1_555
H60_7 C50_7 1_555 1_555
C51_7 C50_7 1_555 1_555
C52_6 C51_7 1_555 1_555
H61_6 C52_6 1_555 1_555
C53_6 N9_4 1_555 1_555
H62_6 C53_6 1_555 1_555
H63_7 C54_7 1_555 1_555
H64_7 C54_7 1_555 1_555
Mn4_3 N9_4 1_555 1_555
C21_7 C26_7 1_555 1_555
C24_7 C25_7 1_555 1_555
C51_7 C54_7 1_555 1_555
C52_6 C53_6 1_555 1_555
Mn1_5 O1_5 1_555 1_555
O3_6 Mn1_5 1_555 1_555
N3_6 Mn1_5 1_555 1_555
C8_6 O3_6 1_555 1_555
C9_6 C8_6 1_555 1_555
H5_6 C9_6 1_555 1_555
H6_6 C9_6 1_555 1_555
C10_6 C9_6 1_555 1_555
H7_6 C10_6 1_555 1_555
H8_6 C10_6 1_555 1_555
C11_6 C10_6 1_555 1_555
H9_5 C11_6 1_555 1_555
H10_6 C11_6 1_555 1_555
C12_8 C11_6 1_555 1_555
H11_8 C12_8 1_555 1_555
H12_8 C12_8 1_555 1_555
C13_7 C12_8 1_555 1_555
H13_7 C13_7 1_555 1_555
H14_7 C13_7 1_555 1_555
H15_7 C13_7 1_555 1_555
C14_6 N3_6 1_555 1_555
H16_5 C14_6 1_555 1_555
C15_6 C14_6 1_555 1_555
H17_6 C15_6 1_555 1_555
C16_6 C15_6 1_555 1_555
C17_6 C16_6 1_555 1_555
H18_6 C17_6 1_555 1_555
C18_6 N3_6 1_555 1_555
H19_6 C18_6 1_555 1_555
C19_6 C16_6 1_555 1_555
H20_6 C19_6 1_555 1_555
H21_6 C19_6 1_555 1_555
H22_8 C22_8 1_555 1_555
C23_8 C22_8 1_555 1_555
C24_8 C23_8 1_555 1_555
H24_8 C24_8 1_555 1_555
H25_8 C25_8 1_555 1_555
Mn4_2 O8_6 1_555 1_555
O8_6 C36_6 1_555 1_555
O9_5 Mn1_5 1_555 1_555
N7_5 Mn4_2 1_555 1_555
N8_5 Mn1_5 1_555 1_555
N9_5 C49_8 1_555 1_555
C36_6 C37_5 1_555 1_555
C37_5 C38_5 1_555 1_555
C38_5 H44_5 1_555 1_555
C39_5 C38_5 1_555 1_555
H45_5 C39_5 1_555 1_555
C40_6 C39_5 1_555 1_555
H46_6 C40_6 1_555 1_555
C41_6 C36_6 1_555 1_555
H47_6 C41_6 1_555 1_555
C42_5 O9_5 1_555 1_555
C49_8 H59_8 1_555 1_555
C50_8 C49_8 1_555 1_555
H60_8 C50_8 1_555 1_555
C51_8 C50_8 1_555 1_555
C52_7 C51_8 1_555 1_555
H61_7 C52_7 1_555 1_555
C53_7 N9_5 1_555 1_555
H62_7 C53_7 1_555 1_555
C54_8 C19_6 1_555 1_555
H63_8 C54_8 1_555 1_555
H64_8 C54_8 1_555 1_555
N11_3 Mn4_2 1_555 1_555
N2_6 C8_6 1_555 1_555
C17_6 C18_6 1_555 1_555
C24_8 C25_8 1_555 1_555
N7_5 N8_5 1_555 1_555
N7_5 C42_5 1_555 1_555
C37_5 C42_5 1_555 1_555
C40_6 C41_6 1_555 1_555
C51_8 C54_8 1_555 1_555
C52_7 C53_7 1_555 1_555
O2_6 C7_6 1_555 1_555
C1_5 C2_6 1_555 1_555
C2_6 C3_6 1_555 1_555
C3_6 H1_6 1_555 1_555
C4_6 C3_6 1_555 1_555
H2_6 C4_6 1_555 1_555
C5_5 C4_6 1_555 1_555
H3_5 C5_5 1_555 1_555
C6_5 C1_5 1_555 1_555
H4_5 C6_5 1_555 1_555
C7_6 N1_6 1_555 1_555
Mn2_6 O2_6 1_555 1_555
O4_8 Mn2_6 1_555 1_555
O11_2 C26_8 1_555 1_555
O6_8 Mn2_6 1_555 1_555
O7_6 Mn2_6 1_555 1_555
N4_6 Mn2_6 1_555 1_555
N10_2 N4_6 1_555 1_555
N6_8 C33_6 1_555 1_555
C20_8 O4_8 1_555 1_555
C21_8 C20_8 1_555 1_555
C26_8 N4_6 1_555 1_555
C27_6 O7_6 1_555 1_555
C28_5 C27_6 1_555 1_555
H26_5 C28_5 1_555 1_555
H27_5 C28_5 1_555 1_555
C29_6 C28_5 1_555 1_555
H28_5 C29_6 1_555 1_555
H29_6 C29_6 1_555 1_555
C30_5 C29_6 1_555 1_555
H30_5 C30_5 1_555 1_555
H31_6 C30_5 1_555 1_555
C31_6 C30_5 1_555 1_555
H32_5 C31_6 1_555 1_555
H33_6 C31_6 1_555 1_555
C32_5 C31_6 1_555 1_555
H34_5 C32_5 1_555 1_555
H35_6 C32_5 1_555 1_555
H36_6 C32_5 1_555 1_555
C33_6 O6_8 1_555 1_555
H37_6 C33_6 1_555 1_555
C34_8 N6_8 1_555 1_555
H38_8 C34_8 1_555 1_555
H39_8 C34_8 1_555 1_555
H40_8 C34_8 1_555 1_555
C35_6 N6_8 1_555 1_555
H41_6 C35_6 1_555 1_555
H42_8 C35_6 1_555 1_555
H43_6 C35_6 1_555 1_555
C43_5 O10_5 1_555 1_555
C44_5 C43_5 1_555 1_555
H48_5 C44_5 1_555 1_555
H49_5 C44_5 1_555 1_555
C45_5 C44_5 1_555 1_555
H50_5 C45_5 1_555 1_555
H51_5 C45_5 1_555 1_555
C46_5 C45_5 1_555 1_555
H52_5 C46_5 1_555 1_555
H53_5 C46_5 1_555 1_555
C47_5 C46_5 1_555 1_555
H54_5 C47_5 1_555 1_555
H55_6 C47_5 1_555 1_555
C48_5 C47_5 1_555 1_555
H56_5 C48_5 1_555 1_555
H57_6 C48_5 1_555 1_555
H58_5 C48_5 1_555 1_555
C2_6 C7_6 1_555 1_555
C5_5 C6_5 1_555 1_555
N10_2 C27_6 1_555 1_555
C21_8 C26_8 1_555 1_555
O8_7 C36_7 1_555 1_555
H46_7 C40_7 1_555 1_555
C41_7 C36_7 1_555 1_555
H47_7 C41_7 1_555 1_555
C40_7 C41_7 1_555 1_555
Mn1_6 O1_6 1_555 1_555
O1_6 C1_6 1_555 1_555
O2_7 C7_7 1_555 1_555
O3_7 Mn1_6 1_555 1_555
N1_7 Mn1_6 1_555 1_555
N2_7 N1_7 1_555 1_555
N3_7 Mn1_6 1_555 1_555
C1_6 C2_7 1_555 1_555
C2_7 C3_7 1_555 1_555
C3_7 H1_7 1_555 1_555
C4_7 C3_7 1_555 1_555
H2_7 C4_7 1_555 1_555
C5_6 C4_7 1_555 1_555
H3_6 C5_6 1_555 1_555
C6_6 C1_6 1_555 1_555
H4_6 C6_6 1_555 1_555
C7_7 N1_7 1_555 1_555
C8_7 O3_7 1_555 1_555
C9_7 C8_7 1_555 1_555
H5_7 C9_7 1_555 1_555
H6_7 C9_7 1_555 1_555
C10_7 C9_7 1_555 1_555
H7_7 C10_7 1_555 1_555
H8_7 C10_7 1_555 1_555
C11_7 C10_7 1_555 1_555
H9_6 C11_7 1_555 1_555
H10_7 C11_7 1_555 1_555
C12_9 C11_7 1_555 1_555
H11_9 C12_9 1_555 1_555
H12_9 C12_9 1_555 1_555
C13_8 C12_9 1_555 1_555
H13_8 C13_8 1_555 1_555
H14_8 C13_8 1_555 1_555
H15_8 C13_8 1_555 1_555
C14_7 N3_7 1_555 1_555
H16_6 C14_7 1_555 1_555
C15_7 C14_7 1_555 1_555
H17_7 C15_7 1_555 1_555
C16_7 C15_7 1_555 1_555
C17_7 C16_7 1_555 1_555
H18_7 C17_7 1_555 1_555
C18_7 N3_7 1_555 1_555
H19_7 C18_7 1_555 1_555
C19_7 C16_7 1_555 1_555
H20_7 C19_7 1_555 1_555
H21_7 C19_7 1_555 1_555
Mn2_7 O2_7 1_555 1_555
O4_9 Mn2_7 1_555 1_555
O11_4 C26_9 1_555 1_555
O6_9 Mn2_7 1_555 1_555
O7_7 Mn2_7 1_555 1_555
N4_7 Mn2_7 1_555 1_555
N10_3 N4_7 1_555 1_555
N6_9 C33_7 1_555 1_555
C20_9 O4_9 1_555 1_555
C21_9 C20_9 1_555 1_555
C22_9 C21_9 1_555 1_555
H22_9 C22_9 1_555 1_555
C23_9 C22_9 1_555 1_555
C24_9 C23_9 1_555 1_555
H24_9 C24_9 1_555 1_555
C25_9 C20_9 1_555 1_555
H25_9 C25_9 1_555 1_555
C26_9 N4_7 1_555 1_555
C27_7 O7_7 1_555 1_555
C28_6 C27_7 1_555 1_555
H26_6 C28_6 1_555 1_555
H27_6 C28_6 1_555 1_555
C29_7 C28_6 1_555 1_555
H28_6 C29_7 1_555 1_555
H29_7 C29_7 1_555 1_555
C30_6 C29_7 1_555 1_555
H30_6 C30_6 1_555 1_555
H31_7 C30_6 1_555 1_555
C31_7 C30_6 1_555 1_555
H32_6 C31_7 1_555 1_555
H33_7 C31_7 1_555 1_555
C32_6 C31_7 1_555 1_555
H34_6 C32_6 1_555 1_555
H35_7 C32_6 1_555 1_555
H36_7 C32_6 1_555 1_555
C33_7 O6_9 1_555 1_555
H37_7 C33_7 1_555 1_555
C34_9 N6_9 1_555 1_555
H38_9 C34_9 1_555 1_555
H39_9 C34_9 1_555 1_555
H40_9 C34_9 1_555 1_555
C35_7 N6_9 1_555 1_555
H41_7 C35_7 1_555 1_555
H42_9 C35_7 1_555 1_555
H43_7 C35_7 1_555 1_555
Mn4_3 O8_8 1_555 1_555
O8_8 C36_8 1_555 1_555
O9_6 Mn1_6 1_555 1_555
O10_6 Mn4_3 1_555 1_555
N7_6 Mn4_3 1_555 1_555
N8_6 Mn1_6 1_555 1_555
N9_6 C49_9 1_555 1_555
C36_8 C37_6 1_555 1_555
C37_6 C38_6 1_555 1_555
C38_6 H44_6 1_555 1_555
C39_6 C38_6 1_555 1_555
H45_6 C39_6 1_555 1_555
C40_8 C39_6 1_555 1_555
H46_8 C40_8 1_555 1_555
C41_8 C36_8 1_555 1_555
H47_8 C41_8 1_555 1_555
C42_6 O9_6 1_555 1_555
C43_6 O10_6 1_555 1_555
C44_6 C43_6 1_555 1_555
H48_6 C44_6 1_555 1_555
H49_6 C44_6 1_555 1_555
C45_6 C44_6 1_555 1_555
H50_6 C45_6 1_555 1_555
H51_6 C45_6 1_555 1_555
C46_6 C45_6 1_555 1_555
H52_6 C46_6 1_555 1_555
H53_6 C46_6 1_555 1_555
C47_6 C46_6 1_555 1_555
H54_6 C47_6 1_555 1_555
H55_8 C47_6 1_555 1_555
C48_6 C47_6 1_555 1_555
H56_6 C48_6 1_555 1_555
H57_8 C48_6 1_555 1_555
H58_6 C48_6 1_555 1_555
C49_9 H59_9 1_555 1_555
C50_9 C49_9 1_555 1_555
H60_9 C50_9 1_555 1_555
C51_9 C50_9 1_555 1_555
C52_8 C51_9 1_555 1_555
H61_8 C52_8 1_555 1_555
C53_8 N9_6 1_555 1_555
H62_8 C53_8 1_555 1_555
C54_9 C19_7 1_555 1_555
H63_9 C54_9 1_555 1_555
H64_9 C54_9 1_555 1_555
N2_7 C8_7 1_555 1_555
N2_7 Mn2_7 1_555 1_555
C2_7 C7_7 1_555 1_555
C5_6 C6_6 1_555 1_555
C17_7 C18_7 1_555 1_555
N10_3 C27_7 1_555 1_555
C21_9 C26_9 1_555 1_555
C24_9 C25_9 1_555 1_555
N7_6 N8_6 1_555 1_555
N7_6 C42_6 1_555 1_555
N8_6 C43_6 1_555 1_555
C37_6 C42_6 1_555 1_555
C40_8 C41_8 1_555 1_555
C51_9 C54_9 1_555 1_555
C52_8 C53_8 1_555 1_555
O8_9 C36_9 1_555 1_555
H46_9 C40_9 1_555 1_555
C41_9 C36_9 1_555 1_555
H47_9 C41_9 1_555 1_555
C40_9 C41_9 1_555 1_555
H61_9 C52_9 1_555 1_555
C53_9 N11_3 1_555 1_555
H62_9 C53_9 1_555 1_555
C52_9 C53_9 1_555 1_555
H11_10 C12_10 1_555 1_555
H12_10 C12_10 1_555 1_555
C13_9 C12_10 1_555 1_555
H13_9 C13_9 1_555 1_555
H14_9 C13_9 1_555 1_555
H15_9 C13_9 1_555 1_555
O11_5 C26_10 1_555 1_555
C20_10 O4_10 1_555 1_555
C21_10 C20_10 1_555 1_555
C22_10 C21_10 1_555 1_555
H22_10 C22_10 1_555 1_555
C23_10 C22_10 1_555 1_555
H23_7 C23_10 1_555 1_555
C24_10 C23_10 1_555 1_555
H24_10 C24_10 1_555 1_555
C25_10 C20_10 1_555 1_555
H25_10 C25_10 1_555 1_555
C34_10 N6_10 1_555 1_555
H38_10 C34_10 1_555 1_555
H39_10 C34_10 1_555 1_555
H40_10 C34_10 1_555 1_555
C49_10 H59_10 1_555 1_555
C50_10 C49_10 1_555 1_555
H60_10 C50_10 1_555 1_555
C51_10 C50_10 1_555 1_555
H63_10 C54_10 1_555 1_555
H64_10 C54_10 1_555 1_555
C21_10 C26_10 1_555 1_555
C24_10 C25_10 1_555 1_555
C51_10 C54_10 1_555 1_555
Mn1_7 O1_7 1_555 1_555
O1_7 C1_7 1_555 1_555
O2_8 C7_8 1_555 1_555
O3_8 Mn1_7 1_555 1_555
N1_8 Mn1_7 1_555 1_555
N2_8 N1_8 1_555 1_555
N3_8 Mn1_7 1_555 1_555
C1_7 C2_8 1_555 1_555
C2_8 C3_8 1_555 1_555
C3_8 H1_8 1_555 1_555
C4_8 C3_8 1_555 1_555
H2_8 C4_8 1_555 1_555
C5_7 C4_8 1_555 1_555
H3_7 C5_7 1_555 1_555
C6_7 C1_7 1_555 1_555
H4_7 C6_7 1_555 1_555
C7_8 N1_8 1_555 1_555
C8_8 O3_8 1_555 1_555
C9_8 C8_8 1_555 1_555
H5_8 C9_8 1_555 1_555
H6_8 C9_8 1_555 1_555
C10_8 C9_8 1_555 1_555
H7_8 C10_8 1_555 1_555
H8_8 C10_8 1_555 1_555
C11_8 C10_8 1_555 1_555
H9_7 C11_8 1_555 1_555
H10_8 C11_8 1_555 1_555
C12_11 C11_8 1_555 1_555
H11_11 C12_11 1_555 1_555
H12_11 C12_11 1_555 1_555
C13_10 C12_11 1_555 1_555
H13_10 C13_10 1_555 1_555
H14_10 C13_10 1_555 1_555
H15_10 C13_10 1_555 1_555
C14_8 N3_8 1_555 1_555
H16_7 C14_8 1_555 1_555
C15_8 C14_8 1_555 1_555
H17_8 C15_8 1_555 1_555
C16_8 C15_8 1_555 1_555
C17_8 C16_8 1_555 1_555
H18_8 C17_8 1_555 1_555
C18_8 N3_8 1_555 1_555
H19_8 C18_8 1_555 1_555
C19_8 C16_8 1_555 1_555
H20_8 C19_8 1_555 1_555
H21_8 C19_8 1_555 1_555
Mn2_8 O2_8 1_555 1_555
O4_11 Mn2_8 1_555 1_555
O5_5 C26_11 1_555 1_555
O6_11 Mn2_8 1_555 1_555
O7_8 Mn2_8 1_555 1_555
N4_8 Mn2_8 1_555 1_555
N5_5 N4_8 1_555 1_555
N6_11 C33_8 1_555 1_555
C20_11 O4_11 1_555 1_555
C21_11 C20_11 1_555 1_555
C22_11 C21_11 1_555 1_555
H22_11 C22_11 1_555 1_555
C23_11 C22_11 1_555 1_555
H23_9 C23_11 1_555 1_555
C24_11 C23_11 1_555 1_555
H24_11 C24_11 1_555 1_555
C25_11 C20_11 1_555 1_555
H25_11 C25_11 1_555 1_555
C26_11 N4_8 1_555 1_555
C27_8 O7_8 1_555 1_555
C28_7 C27_8 1_555 1_555
H26_7 C28_7 1_555 1_555
H27_7 C28_7 1_555 1_555
C29_8 C28_7 1_555 1_555
H28_7 C29_8 1_555 1_555
H29_8 C29_8 1_555 1_555
C30_7 C29_8 1_555 1_555
H30_7 C30_7 1_555 1_555
H31_8 C30_7 1_555 1_555
C31_8 C30_7 1_555 1_555
H32_7 C31_8 1_555 1_555
H33_8 C31_8 1_555 1_555
C32_7 C31_8 1_555 1_555
H34_7 C32_7 1_555 1_555
H35_8 C32_7 1_555 1_555
H36_8 C32_7 1_555 1_555
C33_8 O6_11 1_555 1_555
H37_8 C33_8 1_555 1_555
C34_11 N6_11 1_555 1_555
H38_11 C34_11 1_555 1_555
H39_11 C34_11 1_555 1_555
H40_11 C34_11 1_555 1_555
C35_8 N6_11 1_555 1_555
H41_8 C35_8 1_555 1_555
H42_11 C35_8 1_555 1_555
H43_8 C35_8 1_555 1_555
O9_7 Mn1_7 1_555 1_555
O10_7 Mn5_2 1_555 1_555
N7_7 Mn5_2 1_555 1_555
N8_7 Mn1_7 1_555 1_555
C37_7 C38_7 1_555 1_555
C38_7 H44_7 1_555 1_555
C39_7 C38_7 1_555 1_555
H45_7 C39_7 1_555 1_555
C42_7 O9_7 1_555 1_555
C43_7 O10_7 1_555 1_555
C44_7 C43_7 1_555 1_555
H48_7 C44_7 1_555 1_555
H49_7 C44_7 1_555 1_555
C45_7 C44_7 1_555 1_555
H50_7 C45_7 1_555 1_555
H51_7 C45_7 1_555 1_555
C46_7 C45_7 1_555 1_555
H52_7 C46_7 1_555 1_555
H53_7 C46_7 1_555 1_555
C47_7 C46_7 1_555 1_555
H54_7 C47_7 1_555 1_555
C48_7 C47_7 1_555 1_555
H56_7 C48_7 1_555 1_555
H58_7 C48_7 1_555 1_555
C49_11 H59_11 1_555 1_555
C50_11 C49_11 1_555 1_555
H60_11 C50_11 1_555 1_555
C51_11 C50_11 1_555 1_555
C54_11 C19_8 1_555 1_555
H63_11 C54_11 1_555 1_555
H64_11 C54_11 1_555 1_555
N10_4 Mn5_2 1_555 1_555
Mn4_4 O5_5 1_555 1_555
N2_8 C8_8 1_555 1_555
N2_8 Mn2_8 1_555 1_555
C2_8 C7_8 1_555 1_555
C5_7 C6_7 1_555 1_555
C17_8 C18_8 1_555 1_555
N5_5 C27_8 1_555 1_555
N5_5 Mn4_4 1_555 1_555
C21_11 C26_11 1_555 1_555
C24_11 C25_11 1_555 1_555
N7_7 N8_7 1_555 1_555
N7_7 C42_7 1_555 1_555
N8_7 C43_7 1_555 1_555
C37_7 C42_7 1_555 1_555
C51_11 C54_11 1_555 1_555
Mn1_8 O1_8 1_555 1_555
O1_8 C1_8 1_555 1_555
O2_9 C7_9 1_555 1_555
O3_9 Mn1_8 1_555 1_555
N1_9 Mn1_8 1_555 1_555
N2_9 N1_9 1_555 1_555
N3_9 Mn1_8 1_555 1_555
C1_8 C2_9 1_555 1_555
C2_9 C3_9 1_555 1_555
C3_9 H1_9 1_555 1_555
C4_9 C3_9 1_555 1_555
H2_9 C4_9 1_555 1_555
C5_8 C4_9 1_555 1_555
H3_8 C5_8 1_555 1_555
C6_8 C1_8 1_555 1_555
H4_8 C6_8 1_555 1_555
C7_9 N1_9 1_555 1_555
C8_9 O3_9 1_555 1_555
C9_9 C8_9 1_555 1_555
H5_9 C9_9 1_555 1_555
H6_9 C9_9 1_555 1_555
C10_9 C9_9 1_555 1_555
H7_9 C10_9 1_555 1_555
H8_9 C10_9 1_555 1_555
C11_9 C10_9 1_555 1_555
H9_8 C11_9 1_555 1_555
H10_9 C11_9 1_555 1_555
C14_9 N3_9 1_555 1_555
H16_8 C14_9 1_555 1_555
C15_9 C14_9 1_555 1_555
H17_9 C15_9 1_555 1_555
C16_9 C15_9 1_555 1_555
C17_9 C16_9 1_555 1_555
H18_9 C17_9 1_555 1_555
C18_9 N3_9 1_555 1_555
H19_9 C18_9 1_555 1_555
C19_9 C16_9 1_555 1_555
H20_9 C19_9 1_555 1_555
H21_9 C19_9 1_555 1_555
Mn2_9 O2_9 1_555 1_555
O7_9 Mn2_9 1_555 1_555
N4_9 Mn2_9 1_555 1_555
N10_4 N4_9 1_555 1_555
C27_9 O7_9 1_555 1_555
C28_8 C27_9 1_555 1_555
H26_8 C28_8 1_555 1_555
H27_8 C28_8 1_555 1_555
C29_9 C28_8 1_555 1_555
H28_8 C29_9 1_555 1_555
H29_9 C29_9 1_555 1_555
C30_8 C29_9 1_555 1_555
H30_8 C30_8 1_555 1_555
H31_9 C30_8 1_555 1_555
C31_9 C30_8 1_555 1_555
H32_8 C31_9 1_555 1_555
H33_9 C31_9 1_555 1_555
C32_8 C31_9 1_555 1_555
H34_8 C32_8 1_555 1_555
H35_9 C32_8 1_555 1_555
H36_9 C32_8 1_555 1_555
H37_9 C33_9 1_555 1_555
H41_9 C35_9 1_555 1_555
H43_9 C35_9 1_555 1_555
Mn4_4 O8_10 1_555 1_555
O8_10 C36_10 1_555 1_555
O9_8 Mn1_8 1_555 1_555
O10_8 Mn4_4 1_555 1_555
N7_8 Mn4_4 1_555 1_555
N8_8 Mn1_8 1_555 1_555
C36_10 C37_8 1_555 1_555
C37_8 C38_8 1_555 1_555
C38_8 H44_8 1_555 1_555
C39_8 C38_8 1_555 1_555
H45_8 C39_8 1_555 1_555
C40_10 C39_8 1_555 1_555
H46_10 C40_10 1_555 1_555
C41_10 C36_10 1_555 1_555
H47_10 C41_10 1_555 1_555
C42_8 O9_8 1_555 1_555
C43_8 O10_8 1_555 1_555
C44_8 C43_8 1_555 1_555
H48_8 C44_8 1_555 1_555
H49_8 C44_8 1_555 1_555
C45_8 C44_8 1_555 1_555
H50_8 C45_8 1_555 1_555
H51_8 C45_8 1_555 1_555
C46_8 C45_8 1_555 1_555
H52_8 C46_8 1_555 1_555
H53_8 C46_8 1_555 1_555
C47_8 C46_8 1_555 1_555
H54_8 C47_8 1_555 1_555
H55_10 C47_8 1_555 1_555
C48_8 C47_8 1_555 1_555
H56_8 C48_8 1_555 1_555
H57_10 C48_8 1_555 1_555
H58_8 C48_8 1_555 1_555
N11_4 Mn4_4 1_555 1_555
N2_9 C8_9 1_555 1_555
N2_9 Mn2_9 1_555 1_555
C2_9 C7_9 1_555 1_555
C5_8 C6_8 1_555 1_555
C17_9 C18_9 1_555 1_555
N10_4 C27_9 1_555 1_555
N7_8 N8_8 1_555 1_555
N7_8 C42_8 1_555 1_555
N8_8 C43_8 1_555 1_555
C37_8 C42_8 1_555 1_555
C40_10 C41_10 1_555 1_555
O2_10 C7_10 1_555 1_555
N2_10 N1_10 1_555 1_555
C2_10 C3_10 1_555 1_555
C3_10 H1_10 1_555 1_555
C4_10 C3_10 1_555 1_555
H2_10 C4_10 1_555 1_555
C7_10 N1_10 1_555 1_555
C8_10 O3_10 1_555 1_555
C9_10 C8_10 1_555 1_555
H5_10 C9_10 1_555 1_555
H6_10 C9_10 1_555 1_555
C10_10 C9_10 1_555 1_555
H7_10 C10_10 1_555 1_555
H8_10 C10_10 1_555 1_555
C11_10 C10_10 1_555 1_555
H10_10 C11_10 1_555 1_555
C12_12 C11_10 1_555 1_555
H11_12 C12_12 1_555 1_555
H12_12 C12_12 1_555 1_555
C14_10 N3_10 1_555 1_555
C15_10 C14_10 1_555 1_555
H17_10 C15_10 1_555 1_555
C16_10 C15_10 1_555 1_555
C17_10 C16_10 1_555 1_555
H18_10 C17_10 1_555 1_555
C18_10 N3_10 1_555 1_555
H19_10 C18_10 1_555 1_555
C19_10 C16_10 1_555 1_555
H20_10 C19_10 1_555 1_555
H21_10 C19_10 1_555 1_555
Mn2_10 O2_10 1_555 1_555
O4_12 Mn2_10 1_555 1_555
O6_12 Mn2_10 1_555 1_555
O7_10 Mn2_10 1_555 1_555
N4_10 Mn2_10 1_555 1_555
N10_5 N4_10 1_555 1_555
N6_12 C33_10 1_555 1_555
C20_12 O4_12 1_555 1_555
C21_12 C20_12 1_555 1_555
C22_12 C21_12 1_555 1_555
H22_12 C22_12 1_555 1_555
C23_12 C22_12 1_555 1_555
H23_10 C23_12 1_555 1_555
C24_12 C23_12 1_555 1_555
H24_12 C24_12 1_555 1_555
C25_12 C20_12 1_555 1_555
H25_12 C25_12 1_555 1_555
C26_12 N4_10 1_555 1_555
C27_10 O7_10 1_555 1_555
H29_10 C29_10 1_555 1_555
H33_10 C31_10 1_555 1_555
C33_10 O6_12 1_555 1_555
H37_10 C33_10 1_555 1_555
C34_12 N6_12 1_555 1_555
H38_12 C34_12 1_555 1_555
H39_12 C34_12 1_555 1_555
H40_12 C34_12 1_555 1_555
C35_10 N6_12 1_555 1_555
H41_10 C35_10 1_555 1_555
H42_12 C35_10 1_555 1_555
H43_10 C35_10 1_555 1_555
N11_4 C49_12 1_555 1_555
C49_12 H59_12 1_555 1_555
C50_12 C49_12 1_555 1_555
H60_12 C50_12 1_555 1_555
C51_12 C50_12 1_555 1_555
C52_10 C51_12 1_555 1_555
H61_10 C52_10 1_555 1_555
C53_10 N11_4 1_555 1_555
H62_10 C53_10 1_555 1_555
C54_12 C19_10 1_555 1_555
H63_12 C54_12 1_555 1_555
H64_12 C54_12 1_555 1_555
N2_10 C8_10 1_555 1_555
N2_10 Mn2_10 1_555 1_555
C2_10 C7_10 1_555 1_555
C17_10 C18_10 1_555 1_555
N10_5 C27_10 1_555 1_555
C21_12 C26_12 1_555 1_555
C24_12 C25_12 1_555 1_555
C51_12 C54_12 1_555 1_555
C52_10 C53_10 1_555 1_555
H61_11 C52_11 1_555 1_555
C53_11 N9_7 1_555 1_555
H62_11 C53_11 1_555 1_555
Mn5_3 N9_7 1_555 1_555
C52_11 C53_11 1_555 1_555
Mn1_9 O1_9 1_555 1_555
Mn5_3 O8_11 1_555 1_555
O8_11 C36_11 1_555 1_555
O9_9 Mn1_9 1_555 1_555
N7_9 Mn5_3 1_555 1_555
N8_9 Mn1_9 1_555 1_555
C36_11 C37_9 1_555 1_555
C37_9 C38_9 1_555 1_555
C38_9 H44_9 1_555 1_555
C39_9 C38_9 1_555 1_555
H45_9 C39_9 1_555 1_555
C40_11 C39_9 1_555 1_555
H46_11 C40_11 1_555 1_555
C41_11 C36_11 1_555 1_555
H47_11 C41_11 1_555 1_555
C42_9 O9_9 1_555 1_555
O11_6 Mn5_3 1_555 1_555
N7_9 N8_9 1_555 1_555
N7_9 C42_9 1_555 1_555
C37_9 C42_9 1_555 1_555
C40_11 C41_11 1_555 1_555
H26_9 C28_9 1_555 1_555
H27_9 C28_9 1_555 1_555
H30_9 C30_9 1_555 1_555
H34_9 C32_9 1_555 1_555
H13_11 C13_11 1_555 1_555
H14_11 C13_11 1_555 1_555
H15_11 C13_11 1_555 1_555
H26_10 C28_10 1_555 1_555
H27_10 C28_10 1_555 1_555
H30_10 C30_10 1_555 1_555
H34_10 C32_10 1_555 1_555
Mn4_5 O5_6 1_555 1_555
C8_11 O3_11 1_555 1_555
C9_11 C8_11 1_555 1_555
H5_11 C9_11 1_555 1_555
H6_11 C9_11 1_555 1_555
C10_11 C9_11 1_555 1_555
H7_11 C10_11 1_555 1_555
H8_11 C10_11 1_555 1_555
C11_11 C10_11 1_555 1_555
H10_11 C11_11 1_555 1_555
C12_13 C11_11 1_555 1_555
H11_13 C12_13 1_555 1_555
H12_13 C12_13 1_555 1_555
C14_11 N3_11 1_555 1_555
C15_11 C14_11 1_555 1_555
H17_11 C15_11 1_555 1_555
C16_11 C15_11 1_555 1_555
C17_11 C16_11 1_555 1_555
H18_11 C17_11 1_555 1_555
C18_11 N3_11 1_555 1_555
H19_11 C18_11 1_555 1_555
C19_11 C16_11 1_555 1_555
H20_11 C19_11 1_555 1_555
H21_11 C19_11 1_555 1_555
H22_13 C22_13 1_555 1_555
C23_13 C22_13 1_555 1_555
H23_11 C23_13 1_555 1_555
C24_13 C23_13 1_555 1_555
H24_13 C24_13 1_555 1_555
H25_13 C25_13 1_555 1_555
N9_8 C49_13 1_555 1_555
C49_13 H59_13 1_555 1_555
C50_13 C49_13 1_555 1_555
H60_13 C50_13 1_555 1_555
C51_13 C50_13 1_555 1_555
C52_12 C51_13 1_555 1_555
H61_12 C52_12 1_555 1_555
C53_12 N9_8 1_555 1_555
H62_12 C53_12 1_555 1_555
C54_13 C19_11 1_555 1_555
H63_13 C54_13 1_555 1_555
H64_13 C54_13 1_555 1_555
Mn5_4 N9_8 1_555 1_555
N2_11 C8_11 1_555 1_555
C17_11 C18_11 1_555 1_555
C24_13 C25_13 1_555 1_555
C51_13 C54_13 1_555 1_555
C52_12 C53_12 1_555 1_555
Mn1_10 O1_10 1_555 1_555
O1_10 C1_9 1_555 1_555
O2_11 C7_11 1_555 1_555
O3_12 Mn1_10 1_555 1_555
N1_11 Mn1_10 1_555 1_555
N2_12 N1_11 1_555 1_555
N3_12 Mn1_10 1_555 1_555
C1_9 C2_11 1_555 1_555
C2_11 C3_11 1_555 1_555
C3_11 H1_11 1_555 1_555
C4_11 C3_11 1_555 1_555
H2_11 C4_11 1_555 1_555
C5_9 C4_11 1_555 1_555
H3_9 C5_9 1_555 1_555
C6_9 C1_9 1_555 1_555
H4_9 C6_9 1_555 1_555
C7_11 N1_11 1_555 1_555
C8_12 O3_12 1_555 1_555
C9_12 C8_12 1_555 1_555
H5_12 C9_12 1_555 1_555
H6_12 C9_12 1_555 1_555
C10_12 C9_12 1_555 1_555
H7_12 C10_12 1_555 1_555
H8_12 C10_12 1_555 1_555
C11_12 C10_12 1_555 1_555
H9_10 C11_12 1_555 1_555
H10_12 C11_12 1_555 1_555
C14_12 N3_12 1_555 1_555
H16_10 C14_12 1_555 1_555
C15_12 C14_12 1_555 1_555
H17_12 C15_12 1_555 1_555
C16_12 C15_12 1_555 1_555
C17_12 C16_12 1_555 1_555
H18_12 C17_12 1_555 1_555
C18_12 N3_12 1_555 1_555
H19_12 C18_12 1_555 1_555
C19_12 C16_12 1_555 1_555
H20_12 C19_12 1_555 1_555
H21_12 C19_12 1_555 1_555
Mn2_11 O2_11 1_555 1_555
O7_11 Mn2_11 1_555 1_555
N4_11 Mn2_11 1_555 1_555
N5_6 N4_11 1_555 1_555
C27_11 O7_11 1_555 1_555
C28_11 C27_11 1_555 1_555
H26_11 C28_11 1_555 1_555
H27_11 C28_11 1_555 1_555
C29_11 C28_11 1_555 1_555
H28_11 C29_11 1_555 1_555
H29_11 C29_11 1_555 1_555
C30_11 C29_11 1_555 1_555
H30_11 C30_11 1_555 1_555
H31_11 C30_11 1_555 1_555
C31_11 C30_11 1_555 1_555
H32_11 C31_11 1_555 1_555
H33_11 C31_11 1_555 1_555
C32_11 C31_11 1_555 1_555
H34_11 C32_11 1_555 1_555
H35_11 C32_11 1_555 1_555
H36_11 C32_11 1_555 1_555
H37_11 C33_11 1_555 1_555
H41_11 C35_11 1_555 1_555
H43_11 C35_11 1_555 1_555
Mn5_4 O8_12 1_555 1_555
O8_12 C36_12 1_555 1_555
O9_10 Mn1_10 1_555 1_555
O10_9 Mn5_4 1_555 1_555
N7_10 Mn5_4 1_555 1_555
N8_10 Mn1_10 1_555 1_555
C36_12 C37_10 1_555 1_555
C37_10 C38_10 1_555 1_555
C38_10 H44_10 1_555 1_555
C39_10 C38_10 1_555 1_555
H45_10 C39_10 1_555 1_555
C40_12 C39_10 1_555 1_555
H46_12 C40_12 1_555 1_555
C41_12 C36_12 1_555 1_555
H47_12 C41_12 1_555 1_555
C42_10 O9_10 1_555 1_555
C43_9 O10_9 1_555 1_555
C44_9 C43_9 1_555 1_555
H48_9 C44_9 1_555 1_555
H49_9 C44_9 1_555 1_555
C45_9 C44_9 1_555 1_555
H50_9 C45_9 1_555 1_555
H51_9 C45_9 1_555 1_555
C46_9 C45_9 1_555 1_555
H52_9 C46_9 1_555 1_555
H53_9 C46_9 1_555 1_555
C47_9 C46_9 1_555 1_555
H54_9 C47_9 1_555 1_555
H55_11 C47_9 1_555 1_555
C48_9 C47_9 1_555 1_555
H56_9 C48_9 1_555 1_555
H57_11 C48_9 1_555 1_555
H58_9 C48_9 1_555 1_555
O11_7 Mn5_4 1_555 1_555
N10_6 Mn5_4 1_555 1_555
N2_12 C8_12 1_555 1_555
N2_12 Mn2_11 1_555 1_555
C2_11 C7_11 1_555 1_555
C5_9 C6_9 1_555 1_555
C17_12 C18_12 1_555 1_555
N5_6 C27_11 1_555 1_555
N5_6 Mn4_6 1_555 1_555
N7_10 N8_10 1_555 1_555
N7_10 C42_10 1_555 1_555
N8_10 C43_9 1_555 1_555
C37_10 C42_10 1_555 1_555
C40_12 C41_12 1_555 1_555
Mn1_11 O1_11 1_555 1_555
O1_11 C1_10 1_555 1_555
H3_10 C5_10 1_555 1_555
C6_10 C1_10 1_555 1_555
H4_10 C6_10 1_555 1_555
Mn4_5 O8_13 1_555 1_555
O8_13 C36_13 1_555 1_555
O9_11 Mn1_11 1_555 1_555
O10_10 Mn4_5 1_555 1_555
N7_11 Mn4_5 1_555 1_555
N8_11 Mn1_11 1_555 1_555
C36_13 C37_11 1_555 1_555
C37_11 C38_11 1_555 1_555
C38_11 H44_11 1_555 1_555
C39_11 C38_11 1_555 1_555
H45_11 C39_11 1_555 1_555
C40_13 C39_11 1_555 1_555
H46_13 C40_13 1_555 1_555
C41_13 C36_13 1_555 1_555
H47_13 C41_13 1_555 1_555
C42_11 O9_11 1_555 1_555
C43_10 O10_10 1_555 1_555
C44_10 C43_10 1_555 1_555
H48_10 C44_10 1_555 1_555
H49_10 C44_10 1_555 1_555
C45_10 C44_10 1_555 1_555
H50_10 C45_10 1_555 1_555
H51_10 C45_10 1_555 1_555
C46_10 C45_10 1_555 1_555
H52_10 C46_10 1_555 1_555
H53_10 C46_10 1_555 1_555
C47_10 C46_10 1_555 1_555
H54_10 C47_10 1_555 1_555
H55_12 C47_10 1_555 1_555
C48_10 C47_10 1_555 1_555
H56_10 C48_10 1_555 1_555
H57_12 C48_10 1_555 1_555
H58_10 C48_10 1_555 1_555
N11_5 Mn4_5 1_555 1_555
C5_10 C6_10 1_555 1_555
N7_11 N8_11 1_555 1_555
N7_11 C42_11 1_555 1_555
N8_11 C43_10 1_555 1_555
C37_11 C42_11 1_555 1_555
C40_13 C41_13 1_555 1_555
Mn1_12 O1_12 1_555 1_555
O1_12 C1_11 1_555 1_555
O2_12 C7_12 1_555 1_555
O3_13 Mn1_12 1_555 1_555
N1_12 Mn1_12 1_555 1_555
N2_13 N1_12 1_555 1_555
N3_13 Mn1_12 1_555 1_555
C1_11 C2_12 1_555 1_555
C2_12 C3_12 1_555 1_555
C3_12 H1_12 1_555 1_555
C4_12 C3_12 1_555 1_555
H2_12 C4_12 1_555 1_555
C5_11 C4_12 1_555 1_555
H3_11 C5_11 1_555 1_555
C6_11 C1_11 1_555 1_555
H4_11 C6_11 1_555 1_555
C7_12 N1_12 1_555 1_555
C8_13 O3_13 1_555 1_555
C9_13 C8_13 1_555 1_555
H5_13 C9_13 1_555 1_555
H6_13 C9_13 1_555 1_555
C10_13 C9_13 1_555 1_555
H7_13 C10_13 1_555 1_555
H8_13 C10_13 1_555 1_555
C11_13 C10_13 1_555 1_555
H9_11 C11_13 1_555 1_555
H10_13 C11_13 1_555 1_555
C12_14 C11_13 1_555 1_555
H11_14 C12_14 1_555 1_555
H12_14 C12_14 1_555 1_555
C13_12 C12_14 1_555 1_555
H13_12 C13_12 1_555 1_555
H14_12 C13_12 1_555 1_555
H15_12 C13_12 1_555 1_555
C14_13 N3_13 1_555 1_555
H16_12 C14_13 1_555 1_555
C15_13 C14_13 1_555 1_555
H17_13 C15_13 1_555 1_555
C16_13 C15_13 1_555 1_555
C17_13 C16_13 1_555 1_555
H18_13 C17_13 1_555 1_555
C18_13 N3_13 1_555 1_555
H19_13 C18_13 1_555 1_555
C19_13 C16_13 1_555 1_555
H20_13 C19_13 1_555 1_555
H21_13 C19_13 1_555 1_555
Mn2_12 O2_12 1_555 1_555
O4_13 Mn2_12 1_555 1_555
O11_7 C26_13 1_555 1_555
O6_13 Mn2_12 1_555 1_555
O7_12 Mn2_12 1_555 1_555
N4_12 Mn2_12 1_555 1_555
N10_6 N4_12 1_555 1_555
N6_13 C33_12 1_555 1_555
C20_13 O4_13 1_555 1_555
C21_13 C20_13 1_555 1_555
C22_14 C21_13 1_555 1_555
H22_14 C22_14 1_555 1_555
C23_14 C22_14 1_555 1_555
H23_13 C23_14 1_555 1_555
C24_14 C23_14 1_555 1_555
H24_14 C24_14 1_555 1_555
C25_14 C20_13 1_555 1_555
H25_14 C25_14 1_555 1_555
C26_13 N4_12 1_555 1_555
C27_12 O7_12 1_555 1_555
C28_12 C27_12 1_555 1_555
H26_12 C28_12 1_555 1_555
H27_12 C28_12 1_555 1_555
C29_12 C28_12 1_555 1_555
H28_12 C29_12 1_555 1_555
H29_12 C29_12 1_555 1_555
C30_12 C29_12 1_555 1_555
H30_12 C30_12 1_555 1_555
H31_12 C30_12 1_555 1_555
C31_12 C30_12 1_555 1_555
H32_12 C31_12 1_555 1_555
H33_12 C31_12 1_555 1_555
C32_12 C31_12 1_555 1_555
H34_12 C32_12 1_555 1_555
H35_12 C32_12 1_555 1_555
H36_12 C32_12 1_555 1_555
C33_12 O6_13 1_555 1_555
H37_12 C33_12 1_555 1_555
C34_13 N6_13 1_555 1_555
H38_13 C34_13 1_555 1_555
H39_13 C34_13 1_555 1_555
H40_13 C34_13 1_555 1_555
C35_12 N6_13 1_555 1_555
H41_12 C35_12 1_555 1_555
H42_13 C35_12 1_555 1_555
H43_12 C35_12 1_555 1_555
O9_12 Mn1_12 1_555 1_555
O10_11 Mn4_6 1_555 1_555
N7_12 Mn4_6 1_555 1_555
N8_12 Mn1_12 1_555 1_555
N11_5 C49_14 1_555 1_555
C37_12 C38_12 1_555 1_555
C38_12 H44_12 1_555 1_555
C39_12 C38_12 1_555 1_555
H45_12 C39_12 1_555 1_555
C42_12 O9_12 1_555 1_555
C43_11 O10_11 1_555 1_555
C44_11 C43_11 1_555 1_555
H48_11 C44_11 1_555 1_555
H49_11 C44_11 1_555 1_555
C45_11 C44_11 1_555 1_555
H50_11 C45_11 1_555 1_555
H51_11 C45_11 1_555 1_555
C46_11 C45_11 1_555 1_555
H52_11 C46_11 1_555 1_555
H53_11 C46_11 1_555 1_555
C47_11 C46_11 1_555 1_555
H54_11 C47_11 1_555 1_555
C48_11 C47_11 1_555 1_555
H56_11 C48_11 1_555 1_555
H58_11 C48_11 1_555 1_555
C49_14 H59_14 1_555 1_555
C50_14 C49_14 1_555 1_555
H60_14 C50_14 1_555 1_555
C51_14 C50_14 1_555 1_555
C52_13 C51_14 1_555 1_555
H61_13 C52_13 1_555 1_555
C53_13 N11_5 1_555 1_555
H62_13 C53_13 1_555 1_555
C54_14 C19_13 1_555 1_555
H63_14 C54_14 1_555 1_555
H64_14 C54_14 1_555 1_555
N2_13 C8_13 1_555 1_555
N2_13 Mn2_12 1_555 1_555
C2_12 C7_12 1_555 1_555
C5_11 C6_11 1_555 1_555
C17_13 C18_13 1_555 1_555
N10_6 C27_12 1_555 1_555
C21_13 C26_13 1_555 1_555
C24_14 C25_14 1_555 1_555
N7_12 N8_12 1_555 1_555
N7_12 C42_12 1_555 1_555
N8_12 C43_11 1_555 1_555
C37_12 C42_12 1_555 1_555
C51_14 C54_14 1_555 1_555
C52_13 C53_13 1_555 1_555
Mn1_13 O1_13 1_555 1_555
O1_13 C1_12 1_555 1_555
H3_12 C5_12 1_555 1_555
C6_12 C1_12 1_555 1_555
H4_12 C6_12 1_555 1_555
Mn3_3 O8_14 1_555 1_555
O8_14 C36_14 1_555 1_555
O9_13 Mn1_13 1_555 1_555
O10_12 Mn3_3 1_555 1_555
N7_13 Mn3_3 1_555 1_555
N8_13 Mn1_13 1_555 1_555
C36_14 C37_13 1_555 1_555
C37_13 C38_13 1_555 1_555
C38_13 H44_13 1_555 1_555
C39_13 C38_13 1_555 1_555
H45_13 C39_13 1_555 1_555
C40_14 C39_13 1_555 1_555
H46_14 C40_14 1_555 1_555
C41_14 C36_14 1_555 1_555
H47_14 C41_14 1_555 1_555
C42_13 O9_13 1_555 1_555
C43_12 O10_12 1_555 1_555
C44_12 C43_12 1_555 1_555
H48_12 C44_12 1_555 1_555
H49_12 C44_12 1_555 1_555
C45_12 C44_12 1_555 1_555
H50_12 C45_12 1_555 1_555
H51_12 C45_12 1_555 1_555
C46_12 C45_12 1_555 1_555
H52_12 C46_12 1_555 1_555
H53_12 C46_12 1_555 1_555
C47_12 C46_12 1_555 1_555
H54_12 C47_12 1_555 1_555
H55_13 C47_12 1_555 1_555
C48_12 C47_12 1_555 1_555
H56_12 C48_12 1_555 1_555
H57_13 C48_12 1_555 1_555
H58_12 C48_12 1_555 1_555
O11_8 Mn3_3 1_555 1_555
N11_6 Mn3_3 1_555 1_555
C5_12 C6_12 1_555 1_555
N7_13 N8_13 1_555 1_555
N7_13 C42_13 1_555 1_555
N8_13 C43_12 1_555 1_555
C37_13 C42_13 1_555 1_555
C40_14 C41_14 1_555 1_555
Mn1_14 O1_14 1_555 1_555
O1_14 C1_13 1_555 1_555
O2_13 C7_13 1_555 1_555
O3_14 Mn1_14 1_555 1_555
N1_13 Mn1_14 1_555 1_555
N2_14 N1_13 1_555 1_555
N3_14 Mn1_14 1_555 1_555
C1_13 C2_13 1_555 1_555
C2_13 C3_13 1_555 1_555
C3_13 H1_13 1_555 1_555
C4_13 C3_13 1_555 1_555
H2_13 C4_13 1_555 1_555
C5_13 C4_13 1_555 1_555
H3_13 C5_13 1_555 1_555
C6_13 C1_13 1_555 1_555
H4_13 C6_13 1_555 1_555
C7_13 N1_13 1_555 1_555
C8_14 O3_14 1_555 1_555
C9_14 C8_14 1_555 1_555
H5_14 C9_14 1_555 1_555
H6_14 C9_14 1_555 1_555
C10_14 C9_14 1_555 1_555
H7_14 C10_14 1_555 1_555
H8_14 C10_14 1_555 1_555
C11_14 C10_14 1_555 1_555
H9_12 C11_14 1_555 1_555
H10_14 C11_14 1_555 1_555
C12_15 C11_14 1_555 1_555
H11_15 C12_15 1_555 1_555
H12_15 C12_15 1_555 1_555
C13_13 C12_15 1_555 1_555
H13_13 C13_13 1_555 1_555
H14_13 C13_13 1_555 1_555
H15_13 C13_13 1_555 1_555
C14_14 N3_14 1_555 1_555
H16_14 C14_14 1_555 1_555
C15_14 C14_14 1_555 1_555
H17_14 C15_14 1_555 1_555
C16_14 C15_14 1_555 1_555
C17_14 C16_14 1_555 1_555
H18_14 C17_14 1_555 1_555
C18_14 N3_14 1_555 1_555
H19_14 C18_14 1_555 1_555
C19_14 C16_14 1_555 1_555
H20_14 C19_14 1_555 1_555
H21_14 C19_14 1_555 1_555
Mn2_13 O2_13 1_555 1_555
O4_14 Mn2_13 1_555 1_555
O5_7 C26_14 1_555 1_555
O6_14 Mn2_13 1_555 1_555
O7_13 Mn2_13 1_555 1_555
N4_13 Mn2_13 1_555 1_555
N5_7 N4_13 1_555 1_555
N6_14 C33_13 1_555 1_555
C20_14 O4_14 1_555 1_555
C21_14 C20_14 1_555 1_555
C22_15 C21_14 1_555 1_555
H22_15 C22_15 1_555 1_555
C23_15 C22_15 1_555 1_555
H23_15 C23_15 1_555 1_555
C24_15 C23_15 1_555 1_555
H24_15 C24_15 1_555 1_555
C25_15 C20_14 1_555 1_555
H25_15 C25_15 1_555 1_555
C26_14 N4_13 1_555 1_555
C27_13 O7_13 1_555 1_555
C28_13 C27_13 1_555 1_555
H26_13 C28_13 1_555 1_555
H27_13 C28_13 1_555 1_555
C29_13 C28_13 1_555 1_555
H28_13 C29_13 1_555 1_555
H29_13 C29_13 1_555 1_555
C30_13 C29_13 1_555 1_555
H30_13 C30_13 1_555 1_555
H31_13 C30_13 1_555 1_555
C31_13 C30_13 1_555 1_555
H32_13 C31_13 1_555 1_555
H33_13 C31_13 1_555 1_555
C32_13 C31_13 1_555 1_555
H34_13 C32_13 1_555 1_555
H35_13 C32_13 1_555 1_555
H36_13 C32_13 1_555 1_555
C33_13 O6_14 1_555 1_555
H37_13 C33_13 1_555 1_555
C34_14 N6_14 1_555 1_555
H38_14 C34_14 1_555 1_555
H39_14 C34_14 1_555 1_555
H40_14 C34_14 1_555 1_555
C35_13 N6_14 1_555 1_555
H41_13 C35_13 1_555 1_555
H42_14 C35_13 1_555 1_555
H43_13 C35_13 1_555 1_555
O9_14 Mn1_14 1_555 1_555
O10_13 Mn5_5 1_555 1_555
N7_14 Mn5_5 1_555 1_555
N8_14 Mn1_14 1_555 1_555
N11_6 C49_15 1_555 1_555
C37_14 C38_14 1_555 1_555
C38_14 H44_14 1_555 1_555
C39_14 C38_14 1_555 1_555
H45_14 C39_14 1_555 1_555
C42_14 O9_14 1_555 1_555
C43_13 O10_13 1_555 1_555
C44_13 C43_13 1_555 1_555
H48_13 C44_13 1_555 1_555
H49_13 C44_13 1_555 1_555
C45_13 C44_13 1_555 1_555
H50_13 C45_13 1_555 1_555
H51_13 C45_13 1_555 1_555
C46_13 C45_13 1_555 1_555
H52_13 C46_13 1_555 1_555
H53_13 C46_13 1_555 1_555
C47_13 C46_13 1_555 1_555
H54_13 C47_13 1_555 1_555
C48_13 C47_13 1_555 1_555
H56_13 C48_13 1_555 1_555
H58_13 C48_13 1_555 1_555
C49_15 H59_15 1_555 1_555
C50_15 C49_15 1_555 1_555
H60_15 C50_15 1_555 1_555
C51_15 C50_15 1_555 1_555
C52_14 C51_15 1_555 1_555
H61_14 C52_14 1_555 1_555
C53_14 N11_6 1_555 1_555
H62_14 C53_14 1_555 1_555
C54_15 C19_14 1_555 1_555
H63_15 C54_15 1_555 1_555
H64_15 C54_15 1_555 1_555
N10_7 Mn5_5 1_555 1_555
Mn4_7 O5_7 1_555 1_555
N2_14 C8_14 1_555 1_555
N2_14 Mn2_13 1_555 1_555
C2_13 C7_13 1_555 1_555
C5_13 C6_13 1_555 1_555
C17_14 C18_14 1_555 1_555
N5_7 C27_13 1_555 1_555
N5_7 Mn4_7 1_555 1_555
C21_14 C26_14 1_555 1_555
C24_15 C25_15 1_555 1_555
N7_14 N8_14 1_555 1_555
N7_14 C42_14 1_555 1_555
N8_14 C43_13 1_555 1_555
C37_14 C42_14 1_555 1_555
C51_15 C54_15 1_555 1_555
C52_14 C53_14 1_555 1_555
H13_14 C13_14 1_555 1_555
H14_14 C13_14 1_555 1_555
H15_14 C13_14 1_555 1_555
H26_14 C28_14 1_555 1_555
H27_14 C28_14 1_555 1_555
H30_14 C30_14 1_555 1_555
H34_14 C32_14 1_555 1_555
C8_15 O3_15 1_555 1_555
C9_15 C8_15 1_555 1_555
H5_15 C9_15 1_555 1_555
H6_15 C9_15 1_555 1_555
C10_15 C9_15 1_555 1_555
H7_15 C10_15 1_555 1_555
H8_15 C10_15 1_555 1_555
C11_15 C10_15 1_555 1_555
H10_15 C11_15 1_555 1_555
C12_16 C11_15 1_555 1_555
H11_16 C12_16 1_555 1_555
H12_16 C12_16 1_555 1_555
C14_15 N3_15 1_555 1_555
C15_15 C14_15 1_555 1_555
H17_15 C15_15 1_555 1_555
C16_15 C15_15 1_555 1_555
C17_15 C16_15 1_555 1_555
H18_15 C17_15 1_555 1_555
C18_15 N3_15 1_555 1_555
H19_15 C18_15 1_555 1_555
C19_15 C16_15 1_555 1_555
H20_15 C19_15 1_555 1_555
H21_15 C19_15 1_555 1_555
H22_16 C22_16 1_555 1_555
C23_16 C22_16 1_555 1_555
H23_16 C23_16 1_555 1_555
C24_16 C23_16 1_555 1_555
H24_16 C24_16 1_555 1_555
H25_16 C25_16 1_555 1_555
N9_9 C49_16 1_555 1_555
C49_16 H59_16 1_555 1_555
C50_16 C49_16 1_555 1_555
H60_16 C50_16 1_555 1_555
C51_16 C50_16 1_555 1_555
C52_15 C51_16 1_555 1_555
H61_15 C52_15 1_555 1_555
C53_15 N9_9 1_555 1_555
H62_15 C53_15 1_555 1_555
C54_16 C19_15 1_555 1_555
H63_16 C54_16 1_555 1_555
H64_16 C54_16 1_555 1_555
Mn4_7 N9_9 1_555 1_555
N2_15 C8_15 1_555 1_555
C17_15 C18_15 1_555 1_555
C24_16 C25_16 1_555 1_555
C51_16 C54_16 1_555 1_555
C52_15 C53_15 1_555 1_555
Mn1_15 O1_15 1_555 1_555
O1_15 C1_14 1_555 1_555
O2_14 C7_14 1_555 1_555
O3_16 Mn1_15 1_555 1_555
N1_14 Mn1_15 1_555 1_555
N2_16 N1_14 1_555 1_555
N3_16 Mn1_15 1_555 1_555
C1_14 C2_14 1_555 1_555
C2_14 C3_14 1_555 1_555
C3_14 H1_14 1_555 1_555
C4_14 C3_14 1_555 1_555
H2_14 C4_14 1_555 1_555
C5_14 C4_14 1_555 1_555
H3_14 C5_14 1_555 1_555
C6_14 C1_14 1_555 1_555
H4_14 C6_14 1_555 1_555
C7_14 N1_14 1_555 1_555
C8_16 O3_16 1_555 1_555
C9_16 C8_16 1_555 1_555
H5_16 C9_16 1_555 1_555
H6_16 C9_16 1_555 1_555
C10_16 C9_16 1_555 1_555
H7_16 C10_16 1_555 1_555
H8_16 C10_16 1_555 1_555
C11_16 C10_16 1_555 1_555
H9_14 C11_16 1_555 1_555
H10_16 C11_16 1_555 1_555
C14_16 N3_16 1_555 1_555
H16_15 C14_16 1_555 1_555
C15_16 C14_16 1_555 1_555
H17_16 C15_16 1_555 1_555
C16_16 C15_16 1_555 1_555
C17_16 C16_16 1_555 1_555
H18_16 C17_16 1_555 1_555
C18_16 N3_16 1_555 1_555
H19_16 C18_16 1_555 1_555
C19_16 C16_16 1_555 1_555
H20_16 C19_16 1_555 1_555
H21_16 C19_16 1_555 1_555
Mn2_14 O2_14 1_555 1_555
O7_14 Mn2_14 1_555 1_555
N4_14 Mn2_14 1_555 1_555
N10_7 N4_14 1_555 1_555
C27_14 O7_14 1_555 1_555
C28_15 C27_14 1_555 1_555
H26_15 C28_15 1_555 1_555
H27_15 C28_15 1_555 1_555
C29_14 C28_15 1_555 1_555
H28_15 C29_14 1_555 1_555
H29_14 C29_14 1_555 1_555
C30_15 C29_14 1_555 1_555
H30_15 C30_15 1_555 1_555
H31_14 C30_15 1_555 1_555
C31_14 C30_15 1_555 1_555
H32_15 C31_14 1_555 1_555
H33_14 C31_14 1_555 1_555
C32_15 C31_14 1_555 1_555
H34_15 C32_15 1_555 1_555
H35_14 C32_15 1_555 1_555
H36_14 C32_15 1_555 1_555
H37_14 C33_14 1_555 1_555
H41_14 C35_14 1_555 1_555
H43_14 C35_14 1_555 1_555
Mn4_7 O8_15 1_555 1_555
O8_15 C36_15 1_555 1_555
O9_15 Mn1_15 1_555 1_555
O10_14 Mn4_7 1_555 1_555
N7_15 Mn4_7 1_555 1_555
N8_15 Mn1_15 1_555 1_555
C36_15 C37_15 1_555 1_555
C37_15 C38_15 1_555 1_555
C38_15 H44_15 1_555 1_555
C39_15 C38_15 1_555 1_555
H45_15 C39_15 1_555 1_555
C40_15 C39_15 1_555 1_555
H46_15 C40_15 1_555 1_555
C41_15 C36_15 1_555 1_555
H47_15 C41_15 1_555 1_555
C42_15 O9_15 1_555 1_555
C43_14 O10_14 1_555 1_555
C44_14 C43_14 1_555 1_555
H48_14 C44_14 1_555 1_555
H49_14 C44_14 1_555 1_555
C45_14 C44_14 1_555 1_555
H50_14 C45_14 1_555 1_555
H51_14 C45_14 1_555 1_555
C46_14 C45_14 1_555 1_555
H52_14 C46_14 1_555 1_555
H53_14 C46_14 1_555 1_555
C47_14 C46_14 1_555 1_555
H54_14 C47_14 1_555 1_555
H55_14 C47_14 1_555 1_555
C48_14 C47_14 1_555 1_555
H56_14 C48_14 1_555 1_555
H57_14 C48_14 1_555 1_555
H58_14 C48_14 1_555 1_555
N2_16 C8_16 1_555 1_555
N2_16 Mn2_14 1_555 1_555
C2_14 C7_14 1_555 1_555
C5_14 C6_14 1_555 1_555
C17_16 C18_16 1_555 1_555
N10_7 C27_14 1_555 1_555
N7_15 N8_15 1_555 1_555
N7_15 C42_15 1_555 1_555
N8_15 C43_14 1_555 1_555
C37_15 C42_15 1_555 1_555
C40_15 C41_15 1_555 1_555
H3_15 C5_15 1_555 1_555
C6_15 C1_15 1_555 1_555
H4_15 C6_15 1_555 1_555
C43_15 O10_15 1_555 1_555
C44_15 C43_15 1_555 1_555
H48_15 C44_15 1_555 1_555
H49_15 C44_15 1_555 1_555
C45_15 C44_15 1_555 1_555
H50_15 C45_15 1_555 1_555
H51_15 C45_15 1_555 1_555
C46_15 C45_15 1_555 1_555
H52_15 C46_15 1_555 1_555
H53_15 C46_15 1_555 1_555
C47_15 C46_15 1_555 1_555
H54_15 C47_15 1_555 1_555
H55_15 C47_15 1_555 1_555
C48_15 C47_15 1_555 1_555
H56_15 C48_15 1_555 1_555
H57_15 C48_15 1_555 1_555
H58_15 C48_15 1_555 1_555
C5_15 C6_15 1_555 1_555
O2_15 C7_15 1_555 1_555
C2_15 C3_15 1_555 1_555
C3_15 H1_15 1_555 1_555
C4_15 C3_15 1_555 1_555
H2_15 C4_15 1_555 1_555
C7_15 N1_15 1_555 1_555
Mn2_15 O2_15 1_555 1_555
O4_15 Mn2_15 1_555 1_555
O6_15 Mn2_15 1_555 1_555
O7_15 Mn2_15 1_555 1_555
N4_15 Mn2_15 1_555 1_555
N5_8 N4_15 1_555 1_555
N6_15 C33_15 1_555 1_555
C20_15 O4_15 1_555 1_555
C21_15 C20_15 1_555 1_555
C26_15 N4_15 1_555 1_555
C27_15 O7_15 1_555 1_555
H29_15 C29_15 1_555 1_555
H33_15 C31_15 1_555 1_555
C33_15 O6_15 1_555 1_555
H37_15 C33_15 1_555 1_555
C34_15 N6_15 1_555 1_555
H38_15 C34_15 1_555 1_555
H39_15 C34_15 1_555 1_555
H40_15 C34_15 1_555 1_555
C35_15 N6_15 1_555 1_555
H41_15 C35_15 1_555 1_555
H42_15 C35_15 1_555 1_555
H43_15 C35_15 1_555 1_555
C2_15 C7_15 1_555 1_555
N5_8 C27_15 1_555 1_555
C21_15 C26_15 1_555 1_555
O2_16 C7_16 1_555 1_555
C2_16 C3_16 1_555 1_555
C3_16 H1_16 1_555 1_555
C4_16 C3_16 1_555 1_555
H2_16 C4_16 1_555 1_555
C7_16 N1_16 1_555 1_555
Mn2_16 O2_16 1_555 1_555
O4_16 Mn2_16 1_555 1_555
O6_16 Mn2_16 1_555 1_555
O7_16 Mn2_16 1_555 1_555
N4_16 Mn2_16 1_555 1_555
N10_8 N4_16 1_555 1_555
N6_16 C33_16 1_555 1_555
C20_16 O4_16 1_555 1_555
C21_16 C20_16 1_555 1_555
C26_16 N4_16 1_555 1_555
C27_16 O7_16 1_555 1_555
H29_16 C29_16 1_555 1_555
H33_16 C31_16 1_555 1_555
C33_16 O6_16 1_555 1_555
H37_16 C33_16 1_555 1_555
C34_16 N6_16 1_555 1_555
H38_16 C34_16 1_555 1_555
H39_16 C34_16 1_555 1_555
H40_16 C34_16 1_555 1_555
C35_16 N6_16 1_555 1_555
H41_16 C35_16 1_555 1_555
H42_16 C35_16 1_555 1_555
H43_16 C35_16 1_555 1_555
C2_16 C7_16 1_555 1_555
N10_8 C27_16 1_555 1_555
C21_16 C26_16 1_555 1_555
H13_15 C13_15 1_555 1_555
H14_15 C13_15 1_555 1_555
H15_15 C13_15 1_555 1_555
H26_16 C28_16 1_555 1_555
H27_16 C28_16 1_555 1_555
H30_16 C30_16 1_555 1_555
H34_16 C32_16 1_555 1_555
Mn4_8 O5_8 1_555 1_555
H61_16 C52_16 1_555 1_555
C53_16 N9_10 1_555 1_555
H62_16 C53_16 1_555 1_555
Mn4_8 N9_10 1_555 1_555
C52_16 C53_16 1_555 1_555
Mn1_16 O1_16 1_555 1_555
Mn4_8 O8_16 1_555 1_555
O8_16 C36_16 1_555 1_555
O9_16 Mn1_16 1_555 1_555
N7_16 Mn4_8 1_555 1_555
N8_16 Mn1_16 1_555 1_555
C36_16 C37_16 1_555 1_555
C37_16 C38_16 1_555 1_555
C38_16 H44_16 1_555 1_555
C39_16 C38_16 1_555 1_555
H45_16 C39_16 1_555 1_555
C40_16 C39_16 1_555 1_555
H46_16 C40_16 1_555 1_555
C41_16 C36_16 1_555 1_555
H47_16 C41_16 1_555 1_555
C42_16 O9_16 1_555 1_555
N7_16 N8_16 1_555 1_555
N7_16 C42_16 1_555 1_555
C37_16 C42_16 1_555 1_555
C40_16 C41_16 1_555 1_555
H13_16 C13_16 1_555 1_555
H14_16 C13_16 1_555 1_555
H15_16 C13_16 1_555 1_555
H3_16 C5_16 1_555 1_555
C6_16 C1_16 1_555 1_555
H4_16 C6_16 1_555 1_555
C43_16 O10_16 1_555 1_555
C44_16 C43_16 1_555 1_555
H48_16 C44_16 1_555 1_555
H49_16 C44_16 1_555 1_555
C45_16 C44_16 1_555 1_555
H50_16 C45_16 1_555 1_555
H51_16 C45_16 1_555 1_555
C46_16 C45_16 1_555 1_555
H52_16 C46_16 1_555 1_555
H53_16 C46_16 1_555 1_555
C47_16 C46_16 1_555 1_555
H54_16 C47_16 1_555 1_555
H55_16 C47_16 1_555 1_555
C48_16 C47_16 1_555 1_555
H56_16 C48_16 1_555 1_555
H57_16 C48_16 1_555 1_555
H58_16 C48_16 1_555 1_555
C5_16 C6_16 1_555 1_555

#END
