
###############################################################################
#
# This file contains modified crystal structure data generated from the
# MOF subset of the Cambridge Structural Database (CSD) v543 
# hosted by the Cambridge Crystallographic Data Centre (CCDC).
#
# This work is licensed under the Creative Commons
# Attribution-NonCommercial-ShareAlike 4.0 International License.
# To view a copy of this license, visit
# http://creativecommons.org/licenses/by-nc-sa/4.0/
# or send a letter to
# Creative Commons, PO Box 1866, Mountain View, CA 94042, USA.
#
# CIF created using the CSD Python API on 29 September 2022
# The structure has been converted into the P1 space group
# The structure has a 3D framework
# The original CSD entry XAKZEP is in the tetragonal crystal system
# The framework has been calculated to contain at least 10.0% void space
# The void calculation uses a probe of radius 1.32A, grid spacing 0.4
#
###############################################################################

data_XAKZEP
_chemical_formula_moiety         '(C672 H640 Mn48 N144 O160)n'
_symmetry_cell_setting           triclinic
_symmetry_space_group_name_H-M   'P 1'
_symmetry_Int_Tables_number      1
_space_group_name_Hall           'P 1'
loop_
_symmetry_equiv_pos_site_id
_symmetry_equiv_pos_as_xyz
1 x,y,z
_cell_length_a                   39.852(4)
_cell_length_b                   39.852(4)
_cell_length_c                   17.749(2)
_cell_angle_alpha                90
_cell_angle_beta                 90
_cell_angle_gamma                90
_cell_volume                     28188.6
loop_
_atom_site_label
_atom_site_type_symbol
_atom_site_fract_x
_atom_site_fract_y
_atom_site_fract_z
Mn1 Mn 0.077079(11) 0.043359(11) 0.16736(3)
O1 O 0.09929(5) 0.01382(6) 0.23098(15)
O2 O 0.00037(5) 0.02194(6) 0.31686(11)
O3 O 0.04745(5) 0.07064(4) 0.10825(11)
O4 O 0.08857(7) 0.08743(8) 0.2393(2)
N1 N 0.03576(5) 0.03628(6) 0.22209(14)
N2 N 0.00755(5) 0.05250(6) 0.19026(13)
N3 N 0.10579(14) 0.14123(16) 0.2784(3)
C6 C 0.05657(9) 0.00272(9) 0.3240(2)
C7 C 0.02987(8) 0.02138(8) 0.28650(19)
C8 C 0.01627(8) 0.06966(7) 0.13159(19)
C10 C 0.0939(5) 0.1155(5) 0.2243(12)
H8 H 0.0903 0.1224 0.1736
C11 C 0.1154(3) 0.1327(2) 0.3601(5)
H9 H 0.1390 0.1257 0.3619
H10 H 0.1012 0.1143 0.3784
H11 H 0.1122 0.1525 0.3920
C12 C 0.1177(2) 0.17065(18) 0.2492(4)
H12 H 0.1412 0.1678 0.2347
H13 H 0.1159 0.1884 0.2872
H14 H 0.1045 0.1768 0.2047
O9 O 0.11773(4) 0.05260(5) 0.10765(12)
N7 N 0.10656(5) 0.00757(5) 0.03408(13)
N8 N 0.07665(6) 0.00474(6) 0.07542(14)
C31 C 0.21051(7) 0.06861(8) 0.01046(17)
H30 H 0.2248 0.0858 0.0292
C32 C 0.17999(6) 0.06263(7) 0.04300(17)
H31 H 0.1730 0.0759 0.0846
C33 C 0.15867(6) 0.03709(6) 0.01598(15)
C34 C 0.12642(7) 0.03241(7) 0.05398(17)
C28 C 0.16923(7) 0.01763(7) 0.95435(17)
C29 C 0.19993(8) 0.02458(8) 0.92221(18)
H28 H 0.2070 0.0118 0.8799
C30 C 0.22026(8) 0.04894(9) 0.94889(19)
H29 H 0.2414 0.0528 0.9257
C1 C 0.08827(10) 0.99846(10) 0.2913(3)
C2 C 0.11153(12) 0.97749(12) 0.3328(3)
H1 H 0.1333 0.9743 0.3124
C3 C 0.10414(15) 0.96256(16) 0.3973(4)
H2 H 0.1197 0.9480 0.4214
C4 C 0.07286(16) 0.96890(16) 0.4287(3)
H3 H 0.0678 0.9607 0.4776
C5 C 0.04946(11) 0.98675(13) 0.3902(3)
H4 H 0.0274 0.9882 0.4100
O10 O 0.07219(5) 0.95675(5) 0.00546(13)
C35 C 0.06115(8) 0.97802(9) 0.0562(2)
C36 C 0.02609(10) 0.96923(11) 0.0878(3)
H32 H 0.0198 0.9857 0.1262
H33 H 0.0096 0.9696 0.0469
H34 H 0.0267 0.9468 0.1105
N11 N 0.14279(7) 0.94132(8) 0.04469(17)
Mn1_2 Mn 0.206641(11) 0.827079(11) 0.91736(3)
O1_2 O 0.23618(6) 0.84929(5) 0.98098(15)
O3_2 O 0.17936(4) 0.79745(5) 0.85825(11)
O4_2 O 0.16257(8) 0.83857(7) 0.9893(2)
N1_2 N 0.21372(6) 0.78576(5) 0.97209(14)
N2_2 N 0.19750(6) 0.75755(5) 0.94026(13)
C8_2 C 0.18034(7) 0.76627(8) 0.88159(19)
C9 C 0.16068(7) 0.74039(8) 0.83809(18)
H5 H 0.1664 0.7420 0.7845
H6 H 0.1366 0.7445 0.8448
H7 H 0.1663 0.7179 0.8568
C10_2 C 0.1345(5) 0.8439(5) 0.9743(12)
H8_2 H 0.1276 0.8403 0.9236
C12_2 C 0.07935(18) 0.8677(2) 0.9992(4)
H12_2 H 0.0822 0.8912 0.9847
H14_2 H 0.0732 0.8545 0.9547
O6 O 0.18374(4) 0.63524(5) 0.86196(11)
O7 O 0.25766(5) 0.71426(5) 0.95187(11)
N4 N 0.21019(6) 0.67474(6) 0.93378(13)
N5 N 0.23731(6) 0.66988(6) 0.88596(15)
H17 H 0.0842 0.6138 0.9953
C17 C 0.12945(8) 0.63286(9) 0.9577(2)
H18 H 0.1320 0.6173 0.9176
C18 C 0.15375(7) 0.65633(7) 0.96822(18)
C19 C 0.18358(8) 0.65549(7) 0.91763(18)
C20 C 0.26124(8) 0.69073(8) 0.90187(19)
C21 C 0.29424(8) 0.68864(10) 0.8596(2)
H19 H 0.3125 0.6961 0.8926
H20 H 0.2933 0.7031 0.8150
H21 H 0.2982 0.6654 0.8440
Mn3 Mn 0.278300(10) 0.863200(10) 0.71033(3)
O8 O 0.25753(5) 0.90111(4) 0.67433(11)
O9_2 O 0.19740(5) 0.86773(4) 0.85765(12)
O10_2 O 0.29325(5) 0.82219(5) 0.75546(13)
N7_2 N 0.24243(5) 0.85656(5) 0.78408(13)
N8_2 N 0.24526(6) 0.82665(6) 0.82542(14)
C28_2 C 0.23237(7) 0.91923(7) 0.70435(17)
C29_2 C 0.22542(8) 0.94993(8) 0.67221(18)
H28_2 H 0.2382 0.9570 0.6299
C30_2 C 0.20106(9) 0.97026(8) 0.69889(19)
H29_2 H 0.1972 0.9914 0.6757
C31_2 C 0.18139(8) 0.96051(7) 0.76046(17)
H30_2 H 0.1642 0.9748 0.7792
C32_2 C 0.18737(7) 0.92999(6) 0.79300(17)
H31_2 H 0.1741 0.9230 0.8346
C33_2 C 0.21291(6) 0.90867(6) 0.76598(15)
C34_2 C 0.21759(7) 0.87642(7) 0.80398(17)
C35_2 C 0.27198(9) 0.81115(8) 0.8062(2)
C36_2 C 0.28077(11) 0.77609(10) 0.8378(3)
H32_2 H 0.2643 0.7698 0.8762
H33_2 H 0.2804 0.7596 0.7969
H34_2 H 0.3032 0.7767 0.8605
O11 O 0.31626(4) 0.86476(5) 0.63804(11)
N10 N 0.26269(6) 0.83012(6) 0.61404(15)
Mn4 Mn 0.221700(10) 0.636800(10) 0.78967(3)
N11_2 N 0.30868(8) 0.89279(7) 0.79469(17)
H35 H 0.1761 0.4232 0.0272
Mn5 Mn 0.113200(10) 0.471700(10) 0.03967(3)
C9_2 C 0.00961(8) 0.41068(7) 0.08809(18)
H5_2 H 0.0080 0.4164 0.0345
H6_2 H 0.0055 0.3866 0.0948
H7_2 H 0.0321 0.4163 0.1068
Mn2 Mn 0.038438(11) 0.465237(12) 0.25363(3)
O5 O 0.04677(5) 0.42342(6) 0.29547(12)
O6_2 O 0.11476(5) 0.43374(4) 0.11196(11)
O7_2 O 0.03574(5) 0.50766(5) 0.20187(11)
N4_2 N 0.07526(6) 0.46019(6) 0.18378(13)
N5_2 N 0.08012(6) 0.48731(6) 0.13596(15)
N6 N 0.06972(7) 0.49121(8) 0.34372(17)
C13 C 0.07040(9) 0.40055(9) 0.2785(2)
C14 C 0.07256(10) 0.37191(11) 0.3236(2)
H15 H 0.0574 0.3692 0.3644
C15 C 0.09610(13) 0.34760(11) 0.3103(3)
H16 H 0.0964 0.3281 0.3410
C16 C 0.11939(10) 0.35074(9) 0.2533(2)
H17_2 H 0.1362 0.3342 0.2453
C17_2 C 0.11714(9) 0.37945(8) 0.2077(2)
H18_2 H 0.1327 0.3820 0.1676
C18_2 C 0.09367(7) 0.40375(7) 0.21822(18)
C19_2 C 0.09451(7) 0.43358(8) 0.16763(18)
C20_2 C 0.05927(8) 0.51124(8) 0.15187(19)
C21_2 C 0.06136(10) 0.54424(8) 0.1096(2)
H19_2 H 0.0539 0.5625 0.1426
H20_2 H 0.0469 0.5433 0.0650
H21_2 H 0.0846 0.5482 0.0940
C22 C 0.05900(10) 0.52020(13) 0.3704(3)
H22 H 0.0379 0.5287 0.3543
C23 C 0.07909(14) 0.53947(17) 0.4244(3)
H23 H 0.0703 0.5592 0.4470
C24 C 0.11003(14) 0.52874(17) 0.4416(3)
C25 C 0.12058(10) 0.50126(15) 0.4099(3)
H24 H 0.1428 0.4939 0.4202
C26 C 0.10050(9) 0.48180(11) 0.3609(2)
H25 H 0.1093 0.4617 0.3400
C27 C 0.1327(2) 0.5523(4) 0.4878(5)
H26 H 0.1562 0.5488 0.4717
H27 H 0.1267 0.5758 0.4755
N9 N 0.19132(8) 0.60721(7) 0.70531(17)
C37 C 0.17328(10) 0.58015(9) 0.72553(19)
H35_2 H 0.1732 0.5739 0.7772
C38 C 0.15529(14) 0.56138(12) 0.6771(2)
H36 H 0.1451 0.5409 0.6923
C39 C 0.15244(19) 0.57320(16) 0.6054(3)
C40 C 0.16873(17) 0.60288(15) 0.5831(3)
H37 H 0.1643 0.6135 0.5363
C41 C 0.19129(15) 0.61527(14) 0.6335(3)
H38 H 0.2079 0.6305 0.6158
C42 C 0.1314(3) 0.5492(3) 0.5469(3)
H39 H 0.1381 0.5258 0.5577
H40 H 0.1075 0.5512 0.5609
Mn1_3 Mn 0.293359(11) 0.672921(11) 0.58264(3)
O1_3 O 0.26382(6) 0.65071(5) 0.51902(15)
O2_2 O 0.27194(6) 0.74963(5) 0.43314(11)
O3_3 O 0.32064(4) 0.70255(5) 0.64175(11)
O4_3 O 0.33743(8) 0.66143(7) 0.5107(2)
N1_3 N 0.28628(6) 0.71424(5) 0.52791(14)
N2_3 N 0.30250(6) 0.74245(5) 0.55974(13)
N3_2 N 0.39123(16) 0.64421(14) 0.4716(3)
C1_2 C 0.24846(10) 0.66173(10) 0.4587(3)
C2_2 C 0.22749(12) 0.63847(12) 0.4172(3)
H1_2 H 0.2243 0.6167 0.4376
C3_2 C 0.21256(16) 0.64586(15) 0.3527(4)
H2_2 H 0.1980 0.6303 0.3286
C4_2 C 0.21890(16) 0.67714(16) 0.3213(3)
H3_2 H 0.2107 0.6822 0.2724
C5_2 C 0.23675(13) 0.70054(11) 0.3598(3)
H4_2 H 0.2382 0.7226 0.3400
C6_2 C 0.25272(9) 0.69343(9) 0.4260(2)
C7_2 C 0.27138(8) 0.72013(8) 0.46350(19)
C8_3 C 0.31966(7) 0.73373(8) 0.61841(19)
C9_3 C 0.33932(7) 0.75961(8) 0.66191(18)
H5_3 H 0.3336 0.7580 0.7155
H6_3 H 0.3634 0.7555 0.6552
H7_3 H 0.3337 0.7821 0.6432
C10_3 C 0.3655(5) 0.6561(5) 0.5257(12)
H8_3 H 0.3724 0.6597 0.5764
C11_2 C 0.3827(2) 0.6346(3) 0.3899(5)
H9_2 H 0.3757 0.6110 0.3881
H10_2 H 0.3643 0.6488 0.3716
H11_2 H 0.4025 0.6378 0.3580
C12_3 C 0.42065(18) 0.6323(2) 0.5008(4)
H12_3 H 0.4178 0.6088 0.5153
H13_2 H 0.4384 0.6341 0.4628
H14_3 H 0.4268 0.6455 0.5453
Mn2_2 Mn 0.284763(12) 0.788438(11) 0.49637(3)
O5_2 O 0.32658(6) 0.79677(5) 0.45453(12)
O7_3 O 0.24234(5) 0.78574(5) 0.54813(11)
N4_3 N 0.28981(6) 0.82526(6) 0.56622(13)
N6_2 N 0.25879(8) 0.81972(7) 0.40628(17)
C13_2 C 0.34945(9) 0.82040(9) 0.4715(2)
C14_2 C 0.37809(11) 0.82256(10) 0.4264(2)
H15_2 H 0.3808 0.8074 0.3856
C15_2 C 0.40240(11) 0.84610(13) 0.4397(3)
H16_2 H 0.4219 0.8464 0.4090
C16_2 C 0.39926(9) 0.86939(10) 0.4967(2)
H17_3 H 0.4158 0.8862 0.5047
C17_3 C 0.37055(8) 0.86714(9) 0.5423(2)
H18_3 H 0.3680 0.8827 0.5824
C18_3 C 0.34625(7) 0.84367(7) 0.53178(18)
C19_3 C 0.31642(8) 0.84451(7) 0.58237(18)
C20_3 C 0.23876(8) 0.80927(8) 0.59813(19)
C21_3 C 0.20576(8) 0.81136(10) 0.6404(2)
H19_3 H 0.1875 0.8039 0.6074
H20_3 H 0.2067 0.7969 0.6850
H21_3 H 0.2018 0.8346 0.6560
C22_2 C 0.22980(13) 0.80900(10) 0.3796(3)
H22_2 H 0.2213 0.7879 0.3957
C23_2 C 0.21053(17) 0.82909(14) 0.3256(3)
H23_2 H 0.1908 0.8203 0.3030
C24_2 C 0.22126(17) 0.86003(14) 0.3084(3)
C25_2 C 0.24874(15) 0.87058(10) 0.3401(3)
H24_2 H 0.2561 0.8928 0.3298
C26_2 C 0.26820(11) 0.85050(9) 0.3891(2)
H25_2 H 0.2883 0.8593 0.4100
C27_2 C 0.1977(4) 0.8827(2) 0.2622(5)
H26_2 H 0.2012 0.9062 0.2783
H27_2 H 0.1742 0.8767 0.2745
O8_2 O 0.24247(5) 0.59889(4) 0.82567(11)
O9_3 O 0.30260(5) 0.63227(4) 0.64235(12)
O10_3 O 0.20675(5) 0.67781(5) 0.74454(13)
N7_3 N 0.25757(5) 0.64344(5) 0.71592(13)
N8_3 N 0.25474(6) 0.67335(6) 0.67458(14)
C28_3 C 0.26763(7) 0.58077(7) 0.79565(17)
C29_3 C 0.27458(8) 0.55007(8) 0.82779(18)
H28_3 H 0.2618 0.5430 0.8701
C30_3 C 0.29894(9) 0.52974(8) 0.80111(19)
H29_3 H 0.3028 0.5086 0.8243
C31_3 C 0.31861(8) 0.53949(7) 0.73954(17)
H30_3 H 0.3358 0.5252 0.7208
C32_3 C 0.31263(7) 0.57001(6) 0.70700(17)
H31_3 H 0.3259 0.5770 0.6654
C33_3 C 0.28709(6) 0.59133(6) 0.73402(15)
C34_3 C 0.28241(7) 0.62358(7) 0.69602(17)
C35_3 C 0.22802(9) 0.68885(8) 0.6938(2)
C36_3 C 0.21923(11) 0.72391(10) 0.6622(3)
H32_3 H 0.2357 0.7302 0.6238
H33_3 H 0.2196 0.7404 0.7031
H34_3 H 0.1968 0.7233 0.6395
C37_2 C 0.16985(9) 0.92328(10) 0.02447(19)
C38_2 C 0.18862(12) 0.90529(14) 0.0729(2)
H36_2 H 0.2091 0.8951 0.0577
C39_2 C 0.17680(16) 0.90244(19) 0.1446(3)
C40_2 C 0.14712(15) 0.91873(17) 0.1669(3)
H37_2 H 0.1365 0.9143 0.2137
C41_2 C 0.13473(14) 0.94129(15) 0.1165(3)
H38_2 H 0.1195 0.9579 0.1342
C42_2 C 0.2008(3) 0.8814(3) 0.2031(3)
H39_2 H 0.2242 0.8881 0.1923
H40_2 H 0.1988 0.8575 0.1891
C37_3 C 0.32672(10) 0.91985(9) 0.77447(19)
H35_3 H 0.3268 0.9261 0.7228
C38_3 C 0.34471(14) 0.93862(12) 0.8229(2)
H36_3 H 0.3549 0.9591 0.8077
C39_3 C 0.34756(19) 0.92680(16) 0.8946(3)
C40_3 C 0.33127(17) 0.89712(15) 0.9169(3)
H37_3 H 0.3357 0.8865 0.9637
C41_3 C 0.30871(15) 0.88473(14) 0.8665(3)
H38_3 H 0.2921 0.8695 0.8842
C42_3 C 0.3686(3) 0.9508(3) 0.9531(3)
H39_3 H 0.3619 0.9742 0.9423
H40_3 H 0.3925 0.9488 0.9391
O8_3 O 0.15111(4) 0.49247(5) 0.07567(11)
C28_4 C 0.16923(7) 0.51763(7) 0.04565(17)
C29_4 C 0.19993(8) 0.52458(8) 0.07779(18)
H28_4 H 0.2070 0.5118 0.1201
C30_4 C 0.22026(8) 0.54894(9) 0.05111(19)
H29_4 H 0.2414 0.5528 0.0743
Mn3_2 Mn 0.113200(10) 0.971700(10) 0.96033(3)
O8_4 O 0.15111(4) 0.99247(5) 0.92433(11)
O11_2 O 0.11476(5) 0.93374(4) 0.88804(11)
N10_2 N 0.08012(6) 0.98731(6) 0.86404(15)
C9_4 C 0.00961(8) 0.91068(7) 0.91191(18)
H5_4 H 0.0080 0.9164 0.9655
H6_4 H 0.0055 0.8866 0.9052
H7_4 H 0.0321 0.9163 0.8932
Mn2_3 Mn 0.038438(11) 0.965237(12) 0.74637(3)
O5_3 O 0.04677(5) 0.92342(6) 0.70453(12)
N4_4 N 0.07526(6) 0.96019(6) 0.81622(13)
N6_3 N 0.06972(7) 0.99121(8) 0.65628(17)
C13_3 C 0.07040(9) 0.90055(9) 0.7215(2)
C14_3 C 0.07256(10) 0.87191(11) 0.6764(2)
H15_3 H 0.0574 0.8692 0.6356
C15_3 C 0.09610(13) 0.84760(11) 0.6897(3)
H16_3 H 0.0964 0.8281 0.6590
C16_3 C 0.11939(10) 0.85074(9) 0.7467(2)
H17_4 H 0.1362 0.8342 0.7547
C17_4 C 0.11714(9) 0.87945(8) 0.7923(2)
H18_4 H 0.1327 0.8820 0.8324
C18_4 C 0.09367(7) 0.90375(7) 0.78178(18)
C19_4 C 0.09451(7) 0.93358(8) 0.83237(18)
H24_3 H 0.1428 0.9939 0.5798
C26_3 C 0.10050(9) 0.98180(11) 0.6391(2)
H25_3 H 0.1093 0.9617 0.6600
H35_4 H 0.1761 0.9232 0.9728
C9_5 C 0.99039(8) 0.08932(7) 0.08809(18)
H5_5 H 0.9920 0.0836 0.0345
H6_5 H 0.9945 0.1134 0.0948
H7_5 H 0.9679 0.0837 0.1068
Mn2_4 Mn 0.961562(11) 0.034763(12) 0.25363(3)
O5_4 O 0.95323(5) 0.07658(6) 0.29547(12)
O6_3 O 0.88524(5) 0.06626(4) 0.11196(11)
N4_5 N 0.92474(6) 0.03981(6) 0.18378(13)
N5_3 N 0.91988(6) 0.01269(6) 0.13596(15)
N6_4 N 0.93028(7) 0.00879(8) 0.34372(17)
C13_4 C 0.92960(9) 0.09945(9) 0.2785(2)
C14_4 C 0.92744(10) 0.12809(11) 0.3236(2)
H15_4 H 0.9426 0.1308 0.3644
C15_4 C 0.90390(13) 0.15240(11) 0.3103(3)
H16_4 H 0.9036 0.1719 0.3410
C16_4 C 0.88061(10) 0.14926(9) 0.2533(2)
H17_5 H 0.8638 0.1658 0.2453
C17_5 C 0.88286(9) 0.12055(8) 0.2077(2)
H18_5 H 0.8673 0.1180 0.1676
C18_5 C 0.90633(7) 0.09625(7) 0.21822(18)
C19_5 C 0.90549(7) 0.06642(8) 0.16763(18)
H24_4 H 0.8572 0.0061 0.4202
C26_4 C 0.89950(9) 0.01820(11) 0.3609(2)
H25_4 H 0.8907 0.0383 0.3400
Mn4_2 Mn 0.886800(10) 0.028300(10) 0.03967(3)
H35_5 H 0.8239 0.0768 0.0272
O8_5 O 0.84889(4) 0.00753(5) 0.07567(11)
O7_4 O 0.96426(5) 0.99234(5) 0.20187(11)
C20_4 C 0.94073(8) 0.98876(8) 0.15187(19)
C21_4 C 0.93864(10) 0.95576(8) 0.1096(2)
H19_4 H 0.9461 0.9375 0.1426
H20_4 H 0.9531 0.9567 0.0650
H21_4 H 0.9154 0.9518 0.0940
C22_3 C 0.94100(10) 0.97980(13) 0.3704(3)
H22_3 H 0.9621 0.9713 0.3543
C23_3 C 0.92091(14) 0.96053(17) 0.4244(3)
H23_3 H 0.9297 0.9408 0.4470
C24_3 C 0.88997(14) 0.97126(17) 0.4416(3)
C25_3 C 0.87942(10) 0.99874(15) 0.4099(3)
C27_3 C 0.8673(2) 0.9477(4) 0.4878(5)
H26_3 H 0.8438 0.9512 0.4717
H27_3 H 0.8733 0.9242 0.4755
N9_2 N 0.80868(8) 0.89279(7) 0.70531(17)
C37_4 C 0.82672(10) 0.91985(9) 0.72553(19)
H35_6 H 0.8268 0.9261 0.7772
C38_4 C 0.84471(14) 0.93862(12) 0.6771(2)
H36_4 H 0.8549 0.9591 0.6923
C39_4 C 0.84756(19) 0.92680(16) 0.6054(3)
C40_4 C 0.83127(17) 0.89712(15) 0.5831(3)
H37_4 H 0.8357 0.8865 0.5363
C41_4 C 0.80871(15) 0.88473(14) 0.6335(3)
H38_4 H 0.7921 0.8695 0.6158
C42_4 C 0.8686(3) 0.9508(3) 0.5469(3)
H39_4 H 0.8619 0.9742 0.5577
H40_4 H 0.8925 0.9488 0.5609
Mn5_2 Mn 0.778300(10) 0.863200(10) 0.78967(3)
Mn1_4 Mn 0.793359(11) 0.672921(11) 0.91736(3)
O1_4 O 0.76382(6) 0.65071(5) 0.98098(15)
O3_4 O 0.82064(4) 0.70255(5) 0.85825(11)
O4_4 O 0.83743(8) 0.66143(7) 0.9893(2)
N1_4 N 0.78628(6) 0.71424(5) 0.97209(14)
N2_4 N 0.80250(6) 0.74245(5) 0.94026(13)
C8_4 C 0.81966(7) 0.73373(8) 0.88159(19)
C9_6 C 0.83932(7) 0.75961(8) 0.83809(18)
H5_6 H 0.8336 0.7580 0.7845
H6_6 H 0.8634 0.7555 0.8448
H7_6 H 0.8337 0.7821 0.8568
C10_4 C 0.8655(5) 0.6561(5) 0.9743(12)
H8_4 H 0.8724 0.6597 0.9236
C12_4 C 0.92065(18) 0.6323(2) 0.9992(4)
H12_4 H 0.9178 0.6088 0.9847
H14_4 H 0.9268 0.6455 0.9547
O6_4 O 0.81626(4) 0.86476(5) 0.86196(11)
O7_5 O 0.74234(5) 0.78574(5) 0.95187(11)
N4_6 N 0.78981(6) 0.82526(6) 0.93378(13)
N5_4 N 0.76269(6) 0.83012(6) 0.88596(15)
H17_6 H 0.9158 0.8862 0.9953
C17_6 C 0.87055(8) 0.86714(9) 0.9577(2)
H18_6 H 0.8680 0.8827 0.9176
C18_6 C 0.84625(7) 0.84367(7) 0.96822(18)
C19_6 C 0.81642(8) 0.84451(7) 0.91763(18)
C20_5 C 0.73876(8) 0.80927(8) 0.90187(19)
C21_5 C 0.70576(8) 0.81136(10) 0.8596(2)
H19_5 H 0.6875 0.8039 0.8926
H20_5 H 0.7067 0.7969 0.8150
H21_5 H 0.7018 0.8346 0.8440
Mn3_3 Mn 0.721700(10) 0.636800(10) 0.71033(3)
O8_6 O 0.74247(5) 0.59889(4) 0.67433(11)
O9_4 O 0.80260(5) 0.63227(4) 0.85765(12)
O10_4 O 0.70675(5) 0.67781(5) 0.75546(13)
N7_4 N 0.75757(5) 0.64344(5) 0.78408(13)
N8_4 N 0.75474(6) 0.67335(6) 0.82542(14)
C28_5 C 0.76763(7) 0.58077(7) 0.70435(17)
C29_5 C 0.77458(8) 0.55007(8) 0.67221(18)
H28_5 H 0.7618 0.5430 0.6299
C30_5 C 0.79894(9) 0.52974(8) 0.69889(19)
H29_5 H 0.8028 0.5086 0.6757
C31_4 C 0.81861(8) 0.53949(7) 0.76046(17)
H30_4 H 0.8358 0.5252 0.7792
C32_4 C 0.81263(7) 0.57001(6) 0.79300(17)
H31_4 H 0.8259 0.5770 0.8346
C33_4 C 0.78709(6) 0.59133(6) 0.76598(15)
C34_4 C 0.78241(7) 0.62358(7) 0.80398(17)
C35_4 C 0.72802(9) 0.68885(8) 0.8062(2)
C36_4 C 0.71923(11) 0.72391(10) 0.8378(3)
H32_4 H 0.7357 0.7302 0.8762
H33_4 H 0.7196 0.7404 0.7969
H34_4 H 0.6968 0.7233 0.8605
O11_3 O 0.68374(4) 0.63524(5) 0.63804(11)
N10_3 N 0.73731(6) 0.66988(6) 0.61404(15)
N11_3 N 0.69132(8) 0.60721(7) 0.79469(17)
Mn1_5 Mn 0.922921(11) 0.456641(11) 0.16736(3)
O1_5 O 0.90071(5) 0.48618(6) 0.23098(15)
O2_3 O 0.99963(5) 0.47806(6) 0.31686(11)
O3_5 O 0.95255(5) 0.42936(4) 0.10825(11)
O4_5 O 0.91143(7) 0.41257(8) 0.2393(2)
N1_5 N 0.96424(5) 0.46372(6) 0.22209(14)
N2_5 N 0.99245(5) 0.44750(6) 0.19026(13)
N3_3 N 0.89421(14) 0.35877(16) 0.2784(3)
C1_3 C 0.91173(10) 0.50154(10) 0.2913(3)
C2_3 C 0.88847(12) 0.52251(12) 0.3328(3)
H1_3 H 0.8667 0.5257 0.3124
C3_3 C 0.89586(15) 0.53744(16) 0.3973(4)
H2_3 H 0.8803 0.5520 0.4214
C4_3 C 0.92714(16) 0.53110(16) 0.4287(3)
H3_3 H 0.9322 0.5393 0.4776
C5_3 C 0.95054(11) 0.51325(13) 0.3902(3)
H4_3 H 0.9726 0.5118 0.4100
C6_3 C 0.94343(9) 0.49728(9) 0.3240(2)
C7_3 C 0.97013(8) 0.47862(8) 0.28650(19)
C8_5 C 0.98373(8) 0.43034(7) 0.13159(19)
C10_5 C 0.9061(5) 0.3845(5) 0.2243(12)
H8_5 H 0.9097 0.3776 0.1736
C11_3 C 0.8846(3) 0.3673(2) 0.3601(5)
H9_3 H 0.8610 0.3743 0.3619
H10_3 H 0.8988 0.3857 0.3784
H11_3 H 0.8878 0.3475 0.3920
C12_5 C 0.8823(2) 0.32935(18) 0.2492(4)
H12_5 H 0.8588 0.3322 0.2347
H13_3 H 0.8841 0.3116 0.2872
H14_5 H 0.8955 0.3232 0.2047
O9_5 O 0.88227(4) 0.44740(5) 0.10765(12)
O10_5 O 0.92781(5) 0.54325(5) 0.00546(13)
N7_5 N 0.89344(5) 0.49243(5) 0.03408(13)
N8_5 N 0.92335(6) 0.49526(6) 0.07542(14)
C31_5 C 0.78949(7) 0.43139(8) 0.01046(17)
H30_5 H 0.7752 0.4142 0.0292
C32_5 C 0.82001(6) 0.43737(7) 0.04300(17)
H31_5 H 0.8270 0.4241 0.0846
C33_5 C 0.84133(6) 0.46291(6) 0.01598(15)
C34_5 C 0.87358(7) 0.46759(7) 0.05398(17)
C35_5 C 0.93885(8) 0.52198(9) 0.0562(2)
C36_5 C 0.97391(10) 0.53077(11) 0.0878(3)
H32_5 H 0.9802 0.5143 0.1262
H33_5 H 0.9904 0.5304 0.0469
H34_5 H 0.9733 0.5532 0.1105
N11_4 N 0.85721(7) 0.55868(8) 0.04469(17)
C37_5 C 0.67328(10) 0.58015(9) 0.77447(19)
H35_7 H 0.6732 0.5739 0.7228
C38_5 C 0.65529(14) 0.56138(12) 0.8229(2)
H36_5 H 0.6451 0.5409 0.8077
C39_5 C 0.65244(19) 0.57320(16) 0.8946(3)
C40_5 C 0.66873(17) 0.60288(15) 0.9169(3)
H37_5 H 0.6643 0.6135 0.9637
C41_5 C 0.69129(15) 0.61527(14) 0.8665(3)
H38_5 H 0.7079 0.6305 0.8842
C42_5 C 0.6314(3) 0.5492(3) 0.9531(3)
H39_5 H 0.6381 0.5258 0.9423
H40_5 H 0.6075 0.5512 0.9391
Mn1_6 Mn 0.706641(11) 0.827079(11) 0.58264(3)
O1_6 O 0.73618(6) 0.84929(5) 0.51902(15)
O2_4 O 0.72806(6) 0.75037(5) 0.43314(11)
O3_6 O 0.67936(4) 0.79745(5) 0.64175(11)
O4_6 O 0.66257(8) 0.83857(7) 0.5107(2)
N1_6 N 0.71372(6) 0.78576(5) 0.52791(14)
N2_6 N 0.69750(6) 0.75755(5) 0.55974(13)
N3_4 N 0.60877(16) 0.85579(14) 0.4716(3)
C1_4 C 0.75154(10) 0.83827(10) 0.4587(3)
C2_4 C 0.77251(12) 0.86153(12) 0.4172(3)
H1_4 H 0.7757 0.8833 0.4376
C3_4 C 0.78744(16) 0.85414(15) 0.3527(4)
H2_4 H 0.8020 0.8697 0.3286
C4_4 C 0.78110(16) 0.82286(16) 0.3213(3)
H3_4 H 0.7893 0.8178 0.2724
C5_4 C 0.76325(13) 0.79946(11) 0.3598(3)
H4_4 H 0.7618 0.7774 0.3400
C6_4 C 0.74728(9) 0.80657(9) 0.4260(2)
C7_4 C 0.72862(8) 0.77987(8) 0.46350(19)
C8_6 C 0.68034(7) 0.76627(8) 0.61841(19)
C9_7 C 0.66068(7) 0.74039(8) 0.66191(18)
H5_7 H 0.6664 0.7420 0.7155
H6_7 H 0.6366 0.7445 0.6552
H7_7 H 0.6663 0.7179 0.6432
C10_6 C 0.6345(5) 0.8439(5) 0.5257(12)
H8_6 H 0.6276 0.8403 0.5764
C11_4 C 0.6173(2) 0.8654(3) 0.3899(5)
H9_4 H 0.6243 0.8890 0.3881
H10_4 H 0.6357 0.8512 0.3716
H11_4 H 0.5975 0.8622 0.3580
C12_6 C 0.57935(18) 0.8677(2) 0.5008(4)
H12_6 H 0.5822 0.8912 0.5153
H13_4 H 0.5616 0.8659 0.4628
H14_6 H 0.5732 0.8545 0.5453
Mn2_5 Mn 0.715237(12) 0.711562(11) 0.49637(3)
O5_5 O 0.67342(6) 0.70323(5) 0.45453(12)
O7_6 O 0.75766(5) 0.71426(5) 0.54813(11)
N4_7 N 0.71019(6) 0.67474(6) 0.56622(13)
N6_5 N 0.74121(8) 0.68028(7) 0.40628(17)
C13_5 C 0.65055(9) 0.67960(9) 0.4715(2)
C14_5 C 0.62191(11) 0.67744(10) 0.4264(2)
H15_5 H 0.6192 0.6926 0.3856
C15_5 C 0.59760(11) 0.65390(13) 0.4397(3)
H16_5 H 0.5781 0.6536 0.4090
C16_5 C 0.60074(9) 0.63061(10) 0.4967(2)
H17_7 H 0.5842 0.6138 0.5047
C17_7 C 0.62945(8) 0.63286(9) 0.5423(2)
H18_7 H 0.6320 0.6173 0.5824
C18_7 C 0.65375(7) 0.65633(7) 0.53178(18)
C19_7 C 0.68358(8) 0.65549(7) 0.58237(18)
C20_6 C 0.76124(8) 0.69073(8) 0.59813(19)
C21_6 C 0.79424(8) 0.68864(10) 0.6404(2)
H19_6 H 0.8125 0.6961 0.6074
H20_6 H 0.7933 0.7031 0.6850
H21_6 H 0.7982 0.6654 0.6560
C22_4 C 0.77020(13) 0.69100(10) 0.3796(3)
H22_4 H 0.7787 0.7121 0.3957
C23_4 C 0.78947(17) 0.67091(14) 0.3256(3)
H23_4 H 0.8092 0.6797 0.3030
C24_4 C 0.77874(17) 0.63997(14) 0.3084(3)
C25_4 C 0.75126(15) 0.62942(10) 0.3401(3)
H24_5 H 0.7439 0.6072 0.3298
C26_5 C 0.73180(11) 0.64950(9) 0.3891(2)
H25_5 H 0.7117 0.6407 0.4100
C27_4 C 0.8023(4) 0.6173(2) 0.2622(5)
H26_4 H 0.7988 0.5938 0.2783
H27_4 H 0.8258 0.6233 0.2745
O8_7 O 0.75753(5) 0.90111(4) 0.82567(11)
O9_6 O 0.69740(5) 0.86773(4) 0.64235(12)
O10_6 O 0.79325(5) 0.82219(5) 0.74454(13)
N7_6 N 0.74243(5) 0.85656(5) 0.71592(13)
N8_6 N 0.74526(6) 0.82665(6) 0.67458(14)
C28_6 C 0.73237(7) 0.91923(7) 0.79565(17)
C29_6 C 0.72542(8) 0.94993(8) 0.82779(18)
H28_6 H 0.7382 0.9570 0.8701
C30_6 C 0.70106(9) 0.97026(8) 0.80111(19)
H29_6 H 0.6972 0.9914 0.8243
C31_6 C 0.68139(8) 0.96051(7) 0.73954(17)
H30_6 H 0.6642 0.9748 0.7208
C32_6 C 0.68737(7) 0.92999(6) 0.70700(17)
H31_6 H 0.6741 0.9230 0.6654
C33_6 C 0.71291(6) 0.90867(6) 0.73402(15)
C34_6 C 0.71759(7) 0.87642(7) 0.69602(17)
C35_6 C 0.77198(9) 0.81115(8) 0.6938(2)
C36_6 C 0.78077(11) 0.77609(10) 0.6622(3)
H32_6 H 0.7643 0.7698 0.6238
H33_6 H 0.7804 0.7596 0.7031
H34_6 H 0.8032 0.7767 0.6395
C37_6 C 0.83015(9) 0.57672(10) 0.02447(19)
C38_6 C 0.81138(12) 0.59471(14) 0.0729(2)
H36_6 H 0.7909 0.6049 0.0577
C39_6 C 0.82320(16) 0.59756(19) 0.1446(3)
C40_6 C 0.85288(15) 0.58127(17) 0.1669(3)
H37_6 H 0.8635 0.5857 0.2137
C41_6 C 0.86527(14) 0.55871(15) 0.1165(3)
H38_6 H 0.8805 0.5421 0.1342
C42_6 C 0.7992(3) 0.6186(3) 0.2031(3)
H39_6 H 0.7758 0.6119 0.1923
H40_6 H 0.8012 0.6425 0.1891
Mn1_7 Mn 0.706641(11) 0.327079(11) 0.41736(3)
O1_7 O 0.73618(6) 0.34929(5) 0.48098(15)
O2_5 O 0.72806(6) 0.25037(5) 0.56686(11)
O3_7 O 0.67936(4) 0.29745(5) 0.35825(11)
O4_7 O 0.66257(8) 0.33857(7) 0.4893(2)
N1_7 N 0.71372(6) 0.28576(5) 0.47209(14)
N2_7 N 0.69750(6) 0.25755(5) 0.44026(13)
N3_5 N 0.60877(16) 0.35579(14) 0.5284(3)
C1_5 C 0.75154(10) 0.33827(10) 0.5413(3)
C2_5 C 0.77251(12) 0.36153(12) 0.5828(3)
H1_5 H 0.7757 0.3833 0.5624
C3_5 C 0.78744(16) 0.35414(15) 0.6473(4)
H2_5 H 0.8020 0.3697 0.6714
C4_5 C 0.78110(16) 0.32286(16) 0.6787(3)
H3_5 H 0.7893 0.3178 0.7276
C5_5 C 0.76325(13) 0.29946(11) 0.6402(3)
H4_5 H 0.7618 0.2774 0.6600
C6_5 C 0.74728(9) 0.30657(9) 0.5740(2)
C7_5 C 0.72862(8) 0.27987(8) 0.53650(19)
C8_7 C 0.68034(7) 0.26627(8) 0.38159(19)
C9_8 C 0.66068(7) 0.24039(8) 0.33809(18)
H5_8 H 0.6664 0.2420 0.2845
H6_8 H 0.6366 0.2445 0.3448
H7_8 H 0.6663 0.2179 0.3568
C10_7 C 0.6345(5) 0.3439(5) 0.4743(12)
H8_7 H 0.6276 0.3403 0.4236
C11_5 C 0.6173(2) 0.3654(3) 0.6101(5)
H9_5 H 0.6243 0.3890 0.6119
H10_5 H 0.6357 0.3512 0.6284
H11_5 H 0.5975 0.3622 0.6420
C12_7 C 0.57935(18) 0.3677(2) 0.4992(4)
H12_7 H 0.5822 0.3912 0.4847
H13_5 H 0.5616 0.3659 0.5372
H14_7 H 0.5732 0.3545 0.4547
Mn2_6 Mn 0.715237(12) 0.211562(11) 0.50363(3)
O5_6 O 0.67342(6) 0.20323(5) 0.54547(12)
O6_5 O 0.68374(4) 0.13524(5) 0.36196(11)
O7_7 O 0.75766(5) 0.21426(5) 0.45187(11)
N4_8 N 0.71019(6) 0.17474(6) 0.43378(13)
N5_5 N 0.73731(6) 0.16988(6) 0.38596(15)
N6_6 N 0.74121(8) 0.18028(7) 0.59372(17)
C13_6 C 0.65055(9) 0.17960(9) 0.5285(2)
C14_6 C 0.62191(11) 0.17744(10) 0.5736(2)
H15_6 H 0.6192 0.1926 0.6144
C15_6 C 0.59760(11) 0.15390(13) 0.5603(3)
H16_6 H 0.5781 0.1536 0.5910
C16_6 C 0.60074(9) 0.13061(10) 0.5033(2)
H17_8 H 0.5842 0.1138 0.4953
C17_8 C 0.62945(8) 0.13286(9) 0.4577(2)
H18_8 H 0.6320 0.1173 0.4176
C18_8 C 0.65375(7) 0.15633(7) 0.46822(18)
C19_8 C 0.68358(8) 0.15549(7) 0.41763(18)
C20_7 C 0.76124(8) 0.19073(8) 0.40187(19)
C21_7 C 0.79424(8) 0.18864(10) 0.3596(2)
H19_7 H 0.8125 0.1961 0.3926
H20_7 H 0.7933 0.2031 0.3150
H21_7 H 0.7982 0.1654 0.3440
C22_5 C 0.77020(13) 0.19100(10) 0.6204(3)
H22_5 H 0.7787 0.2121 0.6043
C23_5 C 0.78947(17) 0.17091(14) 0.6744(3)
H23_5 H 0.8092 0.1797 0.6970
C24_5 C 0.77874(17) 0.13997(14) 0.6916(3)
C25_5 C 0.75126(15) 0.12942(10) 0.6599(3)
H24_6 H 0.7439 0.1072 0.6702
C26_6 C 0.73180(11) 0.14950(9) 0.6109(2)
H25_6 H 0.7117 0.1407 0.5900
C27_5 C 0.8023(4) 0.1173(2) 0.7378(5)
H26_5 H 0.7988 0.0938 0.7217
H27_5 H 0.8258 0.1233 0.7255
Mn3_4 Mn 0.778300(10) 0.363200(10) 0.21033(3)
O8_8 O 0.75753(5) 0.40111(4) 0.17433(11)
O9_7 O 0.69740(5) 0.36773(4) 0.35765(12)
O10_7 O 0.79325(5) 0.32219(5) 0.25546(13)
N7_7 N 0.74243(5) 0.35656(5) 0.28408(13)
N8_7 N 0.74526(6) 0.32665(6) 0.32542(14)
N9_3 N 0.85721(7) 0.05868(8) 0.95531(17)
C28_7 C 0.73237(7) 0.41923(7) 0.20435(17)
C29_7 C 0.72542(8) 0.44993(8) 0.17221(18)
H28_7 H 0.7382 0.4570 0.1299
C30_7 C 0.70106(9) 0.47026(8) 0.19889(19)
H29_7 H 0.6972 0.4914 0.1757
C31_7 C 0.68139(8) 0.46051(7) 0.26046(17)
H30_7 H 0.6642 0.4748 0.2792
C32_7 C 0.68737(7) 0.42999(6) 0.29300(17)
H31_7 H 0.6741 0.4230 0.3346
C33_7 C 0.71291(6) 0.40867(6) 0.26598(15)
C34_7 C 0.71759(7) 0.37642(7) 0.30398(17)
C35_7 C 0.77198(9) 0.31115(8) 0.3062(2)
C36_7 C 0.78077(11) 0.27609(10) 0.3378(3)
H32_7 H 0.7643 0.2698 0.3762
H33_7 H 0.7804 0.2596 0.2969
H34_7 H 0.8032 0.2767 0.3605
C37_7 C 0.83015(9) 0.07672(10) 0.97553(19)
C38_7 C 0.81138(12) 0.09471(14) 0.9271(2)
H36_7 H 0.7909 0.1049 0.9423
C39_7 C 0.82320(16) 0.09756(19) 0.8554(3)
C40_7 C 0.85288(15) 0.08127(17) 0.8331(3)
H37_7 H 0.8635 0.0857 0.7863
C41_7 C 0.86527(14) 0.05871(15) 0.8835(3)
H38_7 H 0.8805 0.0421 0.8658
C42_7 C 0.7992(3) 0.1186(3) 0.7969(3)
H39_7 H 0.7758 0.1119 0.8077
H40_7 H 0.8012 0.1425 0.8109
O11_4 O 0.81626(4) 0.36476(5) 0.13804(11)
N10_4 N 0.76269(6) 0.33012(6) 0.11404(15)
Mn4_3 Mn 0.721700(10) 0.136800(10) 0.28967(3)
N11_5 N 0.80868(8) 0.39279(7) 0.29469(17)
N9_4 N 0.69132(8) 0.10721(7) 0.20531(17)
C37_8 C 0.67328(10) 0.08015(9) 0.22553(19)
H35_8 H 0.6732 0.0739 0.2772
C38_8 C 0.65529(14) 0.06138(12) 0.1771(2)
H36_8 H 0.6451 0.0409 0.1923
C39_8 C 0.65244(19) 0.07320(16) 0.1054(3)
C40_8 C 0.66873(17) 0.10288(15) 0.0831(3)
H37_8 H 0.6643 0.1135 0.0363
C41_8 C 0.69129(15) 0.11527(14) 0.1335(3)
H38_8 H 0.7079 0.1305 0.1158
C42_8 C 0.6314(3) 0.0492(3) 0.0469(3)
H39_8 H 0.6381 0.0258 0.0577
H40_8 H 0.6075 0.0512 0.0609
Mn3_5 Mn 0.886800(10) 0.528300(10) 0.96033(3)
O8_9 O 0.84889(4) 0.50753(5) 0.92433(11)
C28_8 C 0.83077(7) 0.48237(7) 0.95435(17)
C29_8 C 0.80007(8) 0.47542(8) 0.92221(18)
H28_8 H 0.7930 0.4882 0.8799
C30_8 C 0.77974(8) 0.45106(9) 0.94889(19)
H29_8 H 0.7586 0.4472 0.9257
O11_5 O 0.88524(5) 0.56626(4) 0.88804(11)
N10_5 N 0.91988(6) 0.51269(6) 0.86404(15)
C1_6 C 0.91173(10) 0.00154(10) 0.7087(3)
C2_6 C 0.88847(12) 0.02251(12) 0.6672(3)
H1_6 H 0.8667 0.0257 0.6876
C3_6 C 0.89586(15) 0.03744(16) 0.6027(4)
H2_6 H 0.8803 0.0520 0.5786
C4_6 C 0.92714(16) 0.03110(16) 0.5713(3)
H3_6 H 0.9322 0.0393 0.5224
C5_6 C 0.95054(11) 0.01325(13) 0.6098(3)
H4_6 H 0.9726 0.0118 0.5900
O10_8 O 0.92781(5) 0.04325(5) 0.99454(13)
C35_8 C 0.93885(8) 0.02198(9) 0.9438(2)
C36_8 C 0.97391(10) 0.03077(11) 0.9122(3)
H32_8 H 0.9802 0.0143 0.8738
H33_8 H 0.9904 0.0304 0.9531
H34_8 H 0.9733 0.0532 0.8895
Mn1_8 Mn 0.793359(11) 0.172921(11) 0.08264(3)
O1_8 O 0.76382(6) 0.15071(5) 0.01902(15)
O3_8 O 0.82064(4) 0.20255(5) 0.14175(11)
O4_8 O 0.83743(8) 0.16143(7) 0.0107(2)
N1_8 N 0.78628(6) 0.21424(5) 0.02791(14)
N2_8 N 0.80250(6) 0.24245(5) 0.05974(13)
C8_8 C 0.81966(7) 0.23373(8) 0.11841(19)
C9_9 C 0.83932(7) 0.25961(8) 0.16191(18)
H5_9 H 0.8336 0.2580 0.2155
H6_9 H 0.8634 0.2555 0.1552
H7_9 H 0.8337 0.2821 0.1432
C10_8 C 0.8655(5) 0.1561(5) 0.0257(12)
H8_8 H 0.8724 0.1597 0.0764
C12_8 C 0.92065(18) 0.1323(2) 0.0008(4)
H12_8 H 0.9178 0.1088 0.0153
H14_8 H 0.9268 0.1455 0.0453
O7_8 O 0.74234(5) 0.28574(5) 0.04813(11)
N4_9 N 0.78981(6) 0.32526(6) 0.06622(13)
H17_9 H 0.9158 0.3862 0.0047
C17_9 C 0.87055(8) 0.36714(9) 0.0423(2)
H18_9 H 0.8680 0.3827 0.0824
C18_9 C 0.84625(7) 0.34367(7) 0.03178(18)
C19_9 C 0.81642(8) 0.34451(7) 0.08237(18)
C20_8 C 0.73876(8) 0.30927(8) 0.09813(19)
C21_8 C 0.70576(8) 0.31136(10) 0.1404(2)
H19_8 H 0.6875 0.3039 0.1074
H20_8 H 0.7067 0.2969 0.1850
H21_8 H 0.7018 0.3346 0.1560
O8_10 O 0.74247(5) 0.09889(4) 0.32567(11)
O9_8 O 0.80260(5) 0.13227(4) 0.14235(12)
O10_9 O 0.70675(5) 0.17781(5) 0.24454(13)
N7_8 N 0.75757(5) 0.14344(5) 0.21592(13)
N8_8 N 0.75474(6) 0.17335(6) 0.17458(14)
C28_9 C 0.76763(7) 0.08077(7) 0.29565(17)
C29_9 C 0.77458(8) 0.05007(8) 0.32779(18)
H28_9 H 0.7618 0.0430 0.3701
C30_9 C 0.79894(9) 0.02974(8) 0.30111(19)
H29_9 H 0.8028 0.0086 0.3243
C31_8 C 0.81861(8) 0.03949(7) 0.23954(17)
H30_8 H 0.8358 0.0252 0.2208
C32_8 C 0.81263(7) 0.07001(6) 0.20700(17)
H31_8 H 0.8259 0.0770 0.1654
C33_8 C 0.78709(6) 0.09133(6) 0.23402(15)
C34_8 C 0.78241(7) 0.12358(7) 0.19602(17)
C35_9 C 0.72802(9) 0.18885(8) 0.1938(2)
C36_9 C 0.71923(11) 0.22391(10) 0.1622(3)
H32_9 H 0.7357 0.2302 0.1238
H33_9 H 0.7196 0.2404 0.2031
H34_9 H 0.6968 0.2233 0.1395
H35_9 H 0.8239 0.5768 0.9728
C9_10 C 0.99039(8) 0.58932(7) 0.91191(18)
H5_10 H 0.9920 0.5836 0.9655
H6_10 H 0.9945 0.6134 0.9052
H7_10 H 0.9679 0.5837 0.8932
Mn2_7 Mn 0.961562(11) 0.534763(12) 0.74637(3)
O5_7 O 0.95323(5) 0.57658(6) 0.70453(12)
O7_9 O 0.96426(5) 0.49234(5) 0.79813(11)
N4_10 N 0.92474(6) 0.53981(6) 0.81622(13)
N6_7 N 0.93028(7) 0.50879(8) 0.65628(17)
C13_7 C 0.92960(9) 0.59945(9) 0.7215(2)
C14_7 C 0.92744(10) 0.62809(11) 0.6764(2)
H15_7 H 0.9426 0.6308 0.6356
C15_7 C 0.90390(13) 0.65240(11) 0.6897(3)
H16_7 H 0.9036 0.6719 0.6590
C16_7 C 0.88061(10) 0.64926(9) 0.7467(2)
H17_10 H 0.8638 0.6658 0.7547
C17_10 C 0.88286(9) 0.62055(8) 0.7923(2)
H18_10 H 0.8673 0.6180 0.8324
C18_10 C 0.90633(7) 0.59625(7) 0.78178(18)
C19_10 C 0.90549(7) 0.56642(8) 0.83237(18)
C20_9 C 0.94073(8) 0.48876(8) 0.84813(19)
C21_9 C 0.93864(10) 0.45576(8) 0.8904(2)
H19_9 H 0.9461 0.4375 0.8574
H20_9 H 0.9531 0.4567 0.9350
H21_9 H 0.9154 0.4518 0.9060
C22_6 C 0.94100(10) 0.47980(13) 0.6296(3)
H22_6 H 0.9621 0.4713 0.6457
C23_6 C 0.92091(14) 0.46053(17) 0.5756(3)
H23_6 H 0.9297 0.4408 0.5530
C24_6 C 0.88997(14) 0.47126(17) 0.5584(3)
C25_6 C 0.87942(10) 0.49874(15) 0.5901(3)
H24_7 H 0.8572 0.5061 0.5798
C26_7 C 0.89950(9) 0.51820(11) 0.6391(2)
H25_7 H 0.8907 0.5383 0.6600
C27_6 C 0.8673(2) 0.4477(4) 0.5122(5)
H26_6 H 0.8438 0.4512 0.5283
H27_6 H 0.8733 0.4242 0.5245
C37_9 C 0.82672(10) 0.41985(9) 0.27447(19)
H35_10 H 0.8268 0.4261 0.2228
C38_9 C 0.84471(14) 0.43862(12) 0.3229(2)
H36_9 H 0.8549 0.4591 0.3077
C39_9 C 0.84756(19) 0.42680(16) 0.3946(3)
C40_9 C 0.83127(17) 0.39712(15) 0.4169(3)
H37_9 H 0.8357 0.3865 0.4637
C41_9 C 0.80871(15) 0.38473(14) 0.3665(3)
H38_9 H 0.7921 0.3695 0.3842
C42_9 C 0.8686(3) 0.4508(3) 0.4531(3)
H39_9 H 0.8619 0.4742 0.4423
H40_9 H 0.8925 0.4488 0.4391
N9_5 N 0.30868(8) 0.39279(7) 0.20531(17)
C37_10 C 0.32672(10) 0.41985(9) 0.22553(19)
H35_11 H 0.3268 0.4261 0.2772
C38_10 C 0.34471(14) 0.43862(12) 0.1771(2)
H36_10 H 0.3549 0.4591 0.1923
C39_10 C 0.34756(19) 0.42680(16) 0.1054(3)
C40_10 C 0.33127(17) 0.39712(15) 0.0831(3)
H37_10 H 0.3357 0.3865 0.0363
C41_10 C 0.30871(15) 0.38473(14) 0.1335(3)
H38_10 H 0.2921 0.3695 0.1158
C42_10 C 0.3686(3) 0.4508(3) 0.0469(3)
H39_10 H 0.3619 0.4742 0.0577
H40_10 H 0.3925 0.4488 0.0609
Mn5_3 Mn 0.278300(10) 0.363200(10) 0.28967(3)
Mn1_9 Mn 0.293359(11) 0.172921(11) 0.41736(3)
O1_9 O 0.26382(6) 0.15071(5) 0.48098(15)
O2_6 O 0.27194(6) 0.24963(5) 0.56686(11)
O3_9 O 0.32064(4) 0.20255(5) 0.35825(11)
O4_9 O 0.33743(8) 0.16143(7) 0.4893(2)
N1_9 N 0.28628(6) 0.21424(5) 0.47209(14)
N2_9 N 0.30250(6) 0.24245(5) 0.44026(13)
N3_6 N 0.39123(16) 0.14421(14) 0.5284(3)
C1_7 C 0.24846(10) 0.16173(10) 0.5413(3)
C2_7 C 0.22749(12) 0.13847(12) 0.5828(3)
H1_7 H 0.2243 0.1167 0.5624
C3_7 C 0.21256(16) 0.14586(15) 0.6473(4)
H2_7 H 0.1980 0.1303 0.6714
C4_7 C 0.21890(16) 0.17714(16) 0.6787(3)
H3_7 H 0.2107 0.1822 0.7276
C5_7 C 0.23675(13) 0.20054(11) 0.6402(3)
H4_7 H 0.2382 0.2226 0.6600
C6_6 C 0.25272(9) 0.19343(9) 0.5740(2)
C7_6 C 0.27138(8) 0.22013(8) 0.53650(19)
C8_9 C 0.31966(7) 0.23373(8) 0.38159(19)
C9_11 C 0.33932(7) 0.25961(8) 0.33809(18)
H5_11 H 0.3336 0.2580 0.2845
H6_11 H 0.3634 0.2555 0.3448
H7_11 H 0.3337 0.2821 0.3568
C10_9 C 0.3655(5) 0.1561(5) 0.4743(12)
H8_9 H 0.3724 0.1597 0.4236
C11_6 C 0.3827(2) 0.1346(3) 0.6101(5)
H9_6 H 0.3757 0.1110 0.6119
H10_6 H 0.3643 0.1488 0.6284
H11_6 H 0.4025 0.1378 0.6420
C12_9 C 0.42065(18) 0.1323(2) 0.4992(4)
H12_9 H 0.4178 0.1088 0.4847
H13_6 H 0.4384 0.1341 0.5372
H14_9 H 0.4268 0.1455 0.4547
Mn2_8 Mn 0.284763(12) 0.288438(11) 0.50363(3)
O5_8 O 0.32658(6) 0.29677(5) 0.54547(12)
O6_6 O 0.31626(4) 0.36476(5) 0.36196(11)
O7_10 O 0.24234(5) 0.28574(5) 0.45187(11)
N4_11 N 0.28981(6) 0.32526(6) 0.43378(13)
N5_6 N 0.26269(6) 0.33012(6) 0.38596(15)
N6_8 N 0.25879(8) 0.31972(7) 0.59372(17)
C13_8 C 0.34945(9) 0.32040(9) 0.5285(2)
C14_8 C 0.37809(11) 0.32256(10) 0.5736(2)
H15_8 H 0.3808 0.3074 0.6144
C15_8 C 0.40240(11) 0.34610(13) 0.5603(3)
H16_8 H 0.4219 0.3464 0.5910
C16_8 C 0.39926(9) 0.36939(10) 0.5033(2)
H17_11 H 0.4158 0.3862 0.4953
C17_11 C 0.37055(8) 0.36714(9) 0.4577(2)
H18_11 H 0.3680 0.3827 0.4176
C18_11 C 0.34625(7) 0.34367(7) 0.46822(18)
C19_11 C 0.31642(8) 0.34451(7) 0.41763(18)
C20_10 C 0.23876(8) 0.30927(8) 0.40187(19)
C21_10 C 0.20576(8) 0.31136(10) 0.3596(2)
H19_10 H 0.1875 0.3039 0.3926
H20_10 H 0.2067 0.2969 0.3150
H21_10 H 0.2018 0.3346 0.3440
C22_7 C 0.22980(13) 0.30900(10) 0.6204(3)
H22_7 H 0.2213 0.2879 0.6043
C23_7 C 0.21053(17) 0.32909(14) 0.6744(3)
H23_7 H 0.1908 0.3203 0.6970
C24_7 C 0.22126(17) 0.36003(14) 0.6916(3)
C25_7 C 0.24874(15) 0.37058(10) 0.6599(3)
H24_8 H 0.2561 0.3928 0.6702
C26_8 C 0.26820(11) 0.35050(9) 0.6109(2)
H25_8 H 0.2883 0.3593 0.5900
C27_7 C 0.1977(4) 0.3827(2) 0.7378(5)
H26_7 H 0.2012 0.4062 0.7217
H27_7 H 0.1742 0.3767 0.7255
Mn3_6 Mn 0.221700(10) 0.136800(10) 0.21033(3)
O8_11 O 0.24247(5) 0.09889(4) 0.17433(11)
O9_9 O 0.30260(5) 0.13227(4) 0.35765(12)
O10_10 O 0.20675(5) 0.17781(5) 0.25546(13)
N7_9 N 0.25757(5) 0.14344(5) 0.28408(13)
N8_9 N 0.25474(6) 0.17335(6) 0.32542(14)
N9_6 N 0.14279(7) 0.44132(8) 0.95531(17)
C28_10 C 0.26763(7) 0.08077(7) 0.20435(17)
C29_10 C 0.27458(8) 0.05007(8) 0.17221(18)
H28_10 H 0.2618 0.0430 0.1299
C30_10 C 0.29894(9) 0.02974(8) 0.19889(19)
H29_10 H 0.3028 0.0086 0.1757
C31_9 C 0.31861(8) 0.03949(7) 0.26046(17)
H30_9 H 0.3358 0.0252 0.2792
C32_9 C 0.31263(7) 0.07001(6) 0.29300(17)
H31_9 H 0.3259 0.0770 0.3346
C33_9 C 0.28709(6) 0.09133(6) 0.26598(15)
C34_9 C 0.28241(7) 0.12358(7) 0.30398(17)
C35_10 C 0.22802(9) 0.18885(8) 0.3062(2)
C36_10 C 0.21923(11) 0.22391(10) 0.3378(3)
H32_10 H 0.2357 0.2302 0.3762
H33_10 H 0.2196 0.2404 0.2969
H34_10 H 0.1968 0.2233 0.3605
C37_11 C 0.16985(9) 0.42328(10) 0.97553(19)
C38_11 C 0.18862(12) 0.40529(14) 0.9271(2)
H36_11 H 0.2091 0.3951 0.9423
C39_11 C 0.17680(16) 0.40244(19) 0.8554(3)
C40_11 C 0.14712(15) 0.41873(17) 0.8331(3)
H37_11 H 0.1365 0.4143 0.7863
C41_11 C 0.13473(14) 0.44129(15) 0.8835(3)
H38_11 H 0.1195 0.4579 0.8658
C42_11 C 0.2008(3) 0.3814(3) 0.7969(3)
H39_11 H 0.2242 0.3881 0.8077
H40_11 H 0.1988 0.3575 0.8109
O11_6 O 0.18374(4) 0.13524(5) 0.13804(11)
N10_6 N 0.23731(6) 0.16988(6) 0.11404(15)
N11_6 N 0.19132(8) 0.10721(7) 0.29469(17)
O7_11 O 0.03574(5) 0.00766(5) 0.79813(11)
C20_11 C 0.05927(8) 0.01124(8) 0.84813(19)
C21_11 C 0.06136(10) 0.04424(8) 0.8904(2)
H19_11 H 0.0539 0.0625 0.8574
H20_11 H 0.0469 0.0433 0.9350
H21_11 H 0.0846 0.0482 0.9060
C22_8 C 0.05900(10) 0.02020(13) 0.6296(3)
H22_8 H 0.0379 0.0287 0.6457
C23_8 C 0.07909(14) 0.03947(17) 0.5756(3)
H23_8 H 0.0703 0.0592 0.5530
C24_8 C 0.11003(14) 0.02874(17) 0.5584(3)
C25_8 C 0.12058(10) 0.00126(15) 0.5901(3)
C27_8 C 0.1327(2) 0.0523(4) 0.5122(5)
H26_8 H 0.1562 0.0488 0.5283
H27_8 H 0.1267 0.0758 0.5245
C37_12 C 0.17328(10) 0.08015(9) 0.27447(19)
H35_12 H 0.1732 0.0739 0.2228
C38_12 C 0.15529(14) 0.06138(12) 0.3229(2)
H36_12 H 0.1451 0.0409 0.3077
C39_12 C 0.15244(19) 0.07320(16) 0.3946(3)
C40_12 C 0.16873(17) 0.10288(15) 0.4169(3)
H37_12 H 0.1643 0.1135 0.4637
C41_12 C 0.19129(15) 0.11527(14) 0.3665(3)
H38_12 H 0.2079 0.1305 0.3842
C42_12 C 0.1314(3) 0.0492(3) 0.4531(3)
H39_12 H 0.1381 0.0258 0.4423
H40_12 H 0.1075 0.0512 0.4391
Mn1_10 Mn 0.206641(11) 0.327079(11) 0.08264(3)
O1_10 O 0.23618(6) 0.34929(5) 0.01902(15)
O3_10 O 0.17936(4) 0.29745(5) 0.14175(11)
O4_10 O 0.16257(8) 0.33857(7) 0.0107(2)
N1_10 N 0.21372(6) 0.28576(5) 0.02791(14)
N2_10 N 0.19750(6) 0.25755(5) 0.05974(13)
C8_10 C 0.18034(7) 0.26627(8) 0.11841(19)
C9_12 C 0.16068(7) 0.24039(8) 0.16191(18)
H5_12 H 0.1664 0.2420 0.2155
H6_12 H 0.1366 0.2445 0.1552
H7_12 H 0.1663 0.2179 0.1432
C10_10 C 0.1345(5) 0.3439(5) 0.0257(12)
H8_10 H 0.1276 0.3403 0.0764
C12_10 C 0.07935(18) 0.3677(2) 0.0008(4)
H12_10 H 0.0822 0.3912 0.0153
H14_10 H 0.0732 0.3545 0.0453
O7_12 O 0.25766(5) 0.21426(5) 0.04813(11)
N4_12 N 0.21019(6) 0.17474(6) 0.06622(13)
H17_12 H 0.0842 0.1138 0.0047
C17_12 C 0.12945(8) 0.13286(9) 0.0423(2)
H18_12 H 0.1320 0.1173 0.0824
C18_12 C 0.15375(7) 0.15633(7) 0.03178(18)
C19_12 C 0.18358(8) 0.15549(7) 0.08237(18)
C20_12 C 0.26124(8) 0.19073(8) 0.09813(19)
C21_12 C 0.29424(8) 0.18864(10) 0.1404(2)
H19_12 H 0.3125 0.1961 0.1074
H20_12 H 0.2933 0.2031 0.1850
H21_12 H 0.2982 0.1654 0.1560
O8_12 O 0.25753(5) 0.40111(4) 0.32567(11)
O9_10 O 0.19740(5) 0.36773(4) 0.14235(12)
O10_11 O 0.29325(5) 0.32219(5) 0.24454(13)
N7_10 N 0.24243(5) 0.35656(5) 0.21592(13)
N8_10 N 0.24526(6) 0.32665(6) 0.17458(14)
C28_11 C 0.23237(7) 0.41923(7) 0.29565(17)
C29_11 C 0.22542(8) 0.44993(8) 0.32779(18)
H28_11 H 0.2382 0.4570 0.3701
C30_11 C 0.20106(9) 0.47026(8) 0.30111(19)
H29_11 H 0.1972 0.4914 0.3243
C31_10 C 0.18139(8) 0.46051(7) 0.23954(17)
H30_10 H 0.1642 0.4748 0.2208
C32_10 C 0.18737(7) 0.42999(6) 0.20700(17)
H31_10 H 0.1741 0.4230 0.1654
C33_10 C 0.21291(6) 0.40867(6) 0.23402(15)
C34_10 C 0.21759(7) 0.37642(7) 0.19602(17)
C35_11 C 0.27198(9) 0.31115(8) 0.1938(2)
C36_11 C 0.28077(11) 0.27609(10) 0.1622(3)
H32_11 H 0.2643 0.2698 0.1238
H33_11 H 0.2804 0.2596 0.2031
H34_11 H 0.3032 0.2767 0.1395
Mn1_11 Mn 0.077079(11) 0.543359(11) 0.83264(3)
O1_11 O 0.09929(5) 0.51382(6) 0.76902(15)
O2_7 O 0.00037(5) 0.52194(6) 0.68314(11)
O3_11 O 0.04745(5) 0.57064(4) 0.89175(11)
O4_11 O 0.08857(7) 0.58743(8) 0.7607(2)
N1_11 N 0.03576(5) 0.53628(6) 0.77791(14)
N2_11 N 0.00755(5) 0.55250(6) 0.80974(13)
N3_7 N 0.10579(14) 0.64123(16) 0.7216(3)
C1_8 C 0.08827(10) 0.49846(10) 0.7087(3)
C2_8 C 0.11153(12) 0.47749(12) 0.6672(3)
H1_8 H 0.1333 0.4743 0.6876
C3_8 C 0.10414(15) 0.46256(16) 0.6027(4)
H2_8 H 0.1197 0.4480 0.5786
C4_8 C 0.07286(16) 0.46890(16) 0.5713(3)
H3_8 H 0.0678 0.4607 0.5224
C5_8 C 0.04946(11) 0.48675(13) 0.6098(3)
H4_8 H 0.0274 0.4882 0.5900
C6_7 C 0.05657(9) 0.50272(9) 0.6760(2)
C7_7 C 0.02987(8) 0.52138(8) 0.71350(19)
C8_11 C 0.01627(8) 0.56966(7) 0.86841(19)
C10_11 C 0.0939(5) 0.6155(5) 0.7757(12)
H8_11 H 0.0903 0.6224 0.8264
C11_7 C 0.1154(3) 0.6327(2) 0.6399(5)
H9_7 H 0.1390 0.6257 0.6381
H10_7 H 0.1012 0.6143 0.6216
H11_7 H 0.1122 0.6525 0.6080
C12_11 C 0.1177(2) 0.67065(18) 0.7508(4)
H12_11 H 0.1412 0.6678 0.7653
H13_7 H 0.1159 0.6884 0.7128
H14_11 H 0.1045 0.6768 0.7953
O9_11 O 0.11773(4) 0.55260(5) 0.89235(12)
O10_12 O 0.07219(5) 0.45675(5) 0.99454(13)
N7_11 N 0.10656(5) 0.50757(5) 0.96592(13)
N8_11 N 0.07665(6) 0.50474(6) 0.92458(14)
C31_11 C 0.21051(7) 0.56861(8) 0.98954(17)
H30_11 H 0.2248 0.5858 0.9708
C32_11 C 0.17999(6) 0.56263(7) 0.95700(17)
H31_11 H 0.1730 0.5759 0.9154
C33_11 C 0.15867(6) 0.53709(6) 0.98402(15)
C34_11 C 0.12642(7) 0.53241(7) 0.94602(17)
C35_12 C 0.06115(8) 0.47802(9) 0.9438(2)
C36_12 C 0.02609(10) 0.46923(11) 0.9122(3)
H32_12 H 0.0198 0.4857 0.8738
H33_12 H 0.0096 0.4696 0.9531
H34_12 H 0.0267 0.4468 0.8895
Mn1_12 Mn 0.577079(11) 0.543359(11) 0.66736(3)
O1_12 O 0.59929(5) 0.51382(6) 0.73098(15)
O2_8 O 0.50037(5) 0.52194(6) 0.81686(11)
O3_12 O 0.54745(5) 0.57064(4) 0.60825(11)
O4_12 O 0.58857(7) 0.58743(8) 0.7393(2)
N1_12 N 0.53576(5) 0.53628(6) 0.72209(14)
N2_12 N 0.50755(5) 0.55250(6) 0.69026(13)
N3_8 N 0.60579(14) 0.64123(16) 0.7784(3)
C1_9 C 0.58827(10) 0.49846(10) 0.7913(3)
C2_9 C 0.61153(12) 0.47749(12) 0.8328(3)
H1_9 H 0.6333 0.4743 0.8124
C3_9 C 0.60414(15) 0.46256(16) 0.8973(4)
H2_9 H 0.6197 0.4480 0.9214
C4_9 C 0.57286(16) 0.46890(16) 0.9287(3)
H3_9 H 0.5678 0.4607 0.9776
C5_9 C 0.54946(11) 0.48675(13) 0.8902(3)
H4_9 H 0.5274 0.4882 0.9100
C6_8 C 0.55657(9) 0.50272(9) 0.8240(2)
C7_8 C 0.52987(8) 0.52138(8) 0.78650(19)
C8_12 C 0.51627(8) 0.56966(7) 0.63159(19)
C9_13 C 0.49039(8) 0.58932(7) 0.58809(18)
H5_13 H 0.4920 0.5836 0.5345
H6_13 H 0.4945 0.6134 0.5948
H7_13 H 0.4679 0.5837 0.6068
C10_12 C 0.5939(5) 0.6155(5) 0.7243(12)
H8_12 H 0.5903 0.6224 0.6736
C11_8 C 0.6154(3) 0.6327(2) 0.8601(5)
H9_8 H 0.6390 0.6257 0.8619
H10_8 H 0.6012 0.6143 0.8784
H11_8 H 0.6122 0.6525 0.8920
C12_12 C 0.6177(2) 0.67065(18) 0.7492(4)
H12_12 H 0.6412 0.6678 0.7347
H13_8 H 0.6159 0.6884 0.7872
H14_12 H 0.6045 0.6768 0.7047
Mn2_9 Mn 0.461562(11) 0.534763(12) 0.75363(3)
O5_9 O 0.45323(5) 0.57658(6) 0.79547(12)
O6_7 O 0.38524(5) 0.56626(4) 0.61196(11)
O7_13 O 0.46426(5) 0.49234(5) 0.70187(11)
N4_13 N 0.42474(6) 0.53981(6) 0.68378(13)
N5_7 N 0.41988(6) 0.51269(6) 0.63596(15)
N6_9 N 0.43028(7) 0.50879(8) 0.84372(17)
C13_9 C 0.42960(9) 0.59945(9) 0.7785(2)
C14_9 C 0.42744(10) 0.62809(11) 0.8236(2)
H15_9 H 0.4426 0.6308 0.8644
C15_9 C 0.40390(13) 0.65240(11) 0.8103(3)
H16_9 H 0.4036 0.6719 0.8410
C16_9 C 0.38061(10) 0.64926(9) 0.7533(2)
H17_13 H 0.3638 0.6658 0.7453
C17_13 C 0.38286(9) 0.62055(8) 0.7077(2)
H18_13 H 0.3673 0.6180 0.6676
C18_13 C 0.40633(7) 0.59625(7) 0.71822(18)
C19_13 C 0.40549(7) 0.56642(8) 0.66763(18)
C20_13 C 0.44073(8) 0.48876(8) 0.65187(19)
C21_13 C 0.43864(10) 0.45576(8) 0.6096(2)
H19_13 H 0.4461 0.4375 0.6426
H20_13 H 0.4531 0.4567 0.5650
H21_13 H 0.4154 0.4518 0.5940
C22_9 C 0.44100(10) 0.47980(13) 0.8704(3)
H22_9 H 0.4621 0.4713 0.8543
C23_9 C 0.42091(14) 0.46053(17) 0.9244(3)
H23_9 H 0.4297 0.4408 0.9470
C24_9 C 0.38997(14) 0.47126(17) 0.9416(3)
C25_9 C 0.37942(10) 0.49874(15) 0.9099(3)
H24_9 H 0.3572 0.5061 0.9202
C26_9 C 0.39950(9) 0.51820(11) 0.8609(2)
H25_9 H 0.3907 0.5383 0.8400
C27_9 C 0.3673(2) 0.4477(4) 0.9878(5)
H26_9 H 0.3438 0.4512 0.9717
H27_9 H 0.3733 0.4242 0.9755
Mn3_7 Mn 0.613200(10) 0.471700(10) 0.46033(3)
O8_13 O 0.65111(4) 0.49247(5) 0.42433(11)
O9_12 O 0.61773(4) 0.55260(5) 0.60765(12)
O10_13 O 0.57219(5) 0.45675(5) 0.50546(13)
N7_12 N 0.60656(5) 0.50757(5) 0.53408(13)
N8_12 N 0.57665(6) 0.50474(6) 0.57542(14)
C28_12 C 0.66923(7) 0.51763(7) 0.45435(17)
C29_12 C 0.69993(8) 0.52458(8) 0.42221(18)
H28_12 H 0.7070 0.5118 0.3799
C30_12 C 0.72026(8) 0.54894(9) 0.44889(19)
H29_12 H 0.7414 0.5528 0.4257
C31_12 C 0.71051(7) 0.56861(8) 0.51046(17)
H30_12 H 0.7248 0.5858 0.5292
C32_12 C 0.67999(6) 0.56263(7) 0.54300(17)
H31_12 H 0.6730 0.5759 0.5846
C33_12 C 0.65867(6) 0.53709(6) 0.51598(15)
C34_12 C 0.62642(7) 0.53241(7) 0.55398(17)
C35_13 C 0.56115(8) 0.47802(9) 0.5562(2)
C36_13 C 0.52609(10) 0.46923(11) 0.5878(3)
H32_13 H 0.5198 0.4857 0.6262
H33_13 H 0.5096 0.4696 0.5469
H34_13 H 0.5267 0.4468 0.6105
O11_7 O 0.61476(5) 0.43374(4) 0.38804(11)
N10_7 N 0.58012(6) 0.48731(6) 0.36404(15)
Mn4_4 Mn 0.386800(10) 0.528300(10) 0.53967(3)
N11_7 N 0.64279(7) 0.44132(8) 0.54469(17)
O2_9 O 0.22806(6) 0.75037(5) 0.06686(11)
N3_9 N 0.10877(16) 0.85579(14) 0.0284(3)
C1_10 C 0.25154(10) 0.83827(10) 0.0413(3)
C2_10 C 0.27251(12) 0.86153(12) 0.0828(3)
H1_10 H 0.2757 0.8833 0.0624
C3_10 C 0.28744(16) 0.85414(15) 0.1473(4)
H2_10 H 0.3020 0.8697 0.1714
C4_10 C 0.28110(16) 0.82286(16) 0.1787(3)
H3_10 H 0.2893 0.8178 0.2276
C5_10 C 0.26325(13) 0.79946(11) 0.1402(3)
H4_10 H 0.2618 0.7774 0.1600
C6_9 C 0.24728(9) 0.80657(9) 0.0740(2)
C7_9 C 0.22862(8) 0.77987(8) 0.03650(19)
C11_9 C 0.1173(2) 0.8654(3) 0.1101(5)
H9_9 H 0.1243 0.8890 0.1119
H10_9 H 0.1357 0.8512 0.1284
H11_9 H 0.0975 0.8622 0.1420
H13_9 H 0.0616 0.8659 0.0372
Mn2_10 Mn 0.215237(12) 0.711562(11) 0.00363(3)
O5_10 O 0.17342(6) 0.70323(5) 0.04547(12)
N6_10 N 0.24121(8) 0.68028(7) 0.09372(17)
C13_10 C 0.15055(9) 0.67960(9) 0.0285(2)
C14_10 C 0.12191(11) 0.67744(10) 0.0736(2)
H15_10 H 0.1192 0.6926 0.1144
C15_10 C 0.09760(11) 0.65390(13) 0.0603(3)
H16_10 H 0.0781 0.6536 0.0910
C16_10 C 0.10074(9) 0.63061(10) 0.0033(2)
C22_10 C 0.27020(13) 0.69100(10) 0.1204(3)
H22_10 H 0.2787 0.7121 0.1043
C23_10 C 0.28947(17) 0.67091(14) 0.1744(3)
H23_10 H 0.3092 0.6797 0.1970
C24_10 C 0.27874(17) 0.63997(14) 0.1916(3)
C25_10 C 0.25126(15) 0.62942(10) 0.1599(3)
H24_10 H 0.2439 0.6072 0.1702
C26_10 C 0.23180(11) 0.64950(9) 0.1109(2)
H25_10 H 0.2117 0.6407 0.0900
C27_10 C 0.3023(4) 0.6173(2) 0.2378(5)
H26_10 H 0.2988 0.5938 0.2217
H27_10 H 0.3258 0.6233 0.2255
N9_7 N 0.35721(7) 0.55868(8) 0.45531(17)
C37_13 C 0.33015(9) 0.57672(10) 0.47553(19)
H35_13 H 0.3239 0.5768 0.5272
C38_13 C 0.31138(12) 0.59471(14) 0.4271(2)
H36_13 H 0.2909 0.6049 0.4423
C39_13 C 0.32320(16) 0.59756(19) 0.3554(3)
C40_13 C 0.35288(15) 0.58127(17) 0.3331(3)
H37_13 H 0.3635 0.5857 0.2863
C41_13 C 0.36527(14) 0.55871(15) 0.3835(3)
H38_13 H 0.3805 0.5421 0.3658
C42_13 C 0.2992(3) 0.6186(3) 0.2969(3)
H39_13 H 0.2758 0.6119 0.3077
H40_13 H 0.3012 0.6425 0.3109
Mn1_13 Mn 0.422921(11) 0.456641(11) 0.33264(3)
O1_13 O 0.40071(5) 0.48618(6) 0.26902(15)
O2_10 O 0.49963(5) 0.47806(6) 0.18314(11)
O3_13 O 0.45255(5) 0.42936(4) 0.39175(11)
O4_13 O 0.41143(7) 0.41257(8) 0.2607(2)
N1_13 N 0.46424(5) 0.46372(6) 0.27791(14)
N2_13 N 0.49245(5) 0.44750(6) 0.30974(13)
N3_10 N 0.39421(14) 0.35877(16) 0.2216(3)
C1_11 C 0.41173(10) 0.50154(10) 0.2087(3)
C2_11 C 0.38847(12) 0.52251(12) 0.1672(3)
H1_11 H 0.3667 0.5257 0.1876
C3_11 C 0.39586(15) 0.53744(16) 0.1027(4)
H2_11 H 0.3803 0.5520 0.0786
C4_11 C 0.42714(16) 0.53110(16) 0.0713(3)
H3_11 H 0.4322 0.5393 0.0224
C5_11 C 0.45054(11) 0.51325(13) 0.1098(3)
H4_11 H 0.4726 0.5118 0.0900
C6_10 C 0.44343(9) 0.49728(9) 0.1760(2)
C7_10 C 0.47013(8) 0.47862(8) 0.21350(19)
C8_13 C 0.48373(8) 0.43034(7) 0.36841(19)
C9_14 C 0.50961(8) 0.41068(7) 0.41191(18)
H5_14 H 0.5080 0.4164 0.4655
H6_14 H 0.5055 0.3866 0.4052
H7_14 H 0.5321 0.4163 0.3932
C10_13 C 0.4061(5) 0.3845(5) 0.2757(12)
H8_13 H 0.4097 0.3776 0.3264
C11_10 C 0.3846(3) 0.3673(2) 0.1399(5)
H9_10 H 0.3610 0.3743 0.1381
H10_10 H 0.3988 0.3857 0.1216
H11_10 H 0.3878 0.3475 0.1080
C12_13 C 0.3823(2) 0.32935(18) 0.2508(4)
H12_13 H 0.3588 0.3322 0.2653
H13_10 H 0.3841 0.3116 0.2128
H14_13 H 0.3955 0.3232 0.2953
Mn2_11 Mn 0.538438(11) 0.465237(12) 0.24637(3)
O5_11 O 0.54677(5) 0.42342(6) 0.20453(12)
O7_14 O 0.53574(5) 0.50766(5) 0.29813(11)
N4_14 N 0.57526(6) 0.46019(6) 0.31622(13)
N6_11 N 0.56972(7) 0.49121(8) 0.15628(17)
C13_11 C 0.57040(9) 0.40055(9) 0.2215(2)
C14_11 C 0.57256(10) 0.37191(11) 0.1764(2)
H15_11 H 0.5574 0.3692 0.1356
C15_11 C 0.59610(13) 0.34760(11) 0.1897(3)
H16_11 H 0.5964 0.3281 0.1590
C16_11 C 0.61939(10) 0.35074(9) 0.2467(2)
H17_14 H 0.6362 0.3342 0.2547
C17_14 C 0.61714(9) 0.37945(8) 0.2923(2)
H18_14 H 0.6327 0.3820 0.3324
C18_14 C 0.59367(7) 0.40375(7) 0.28178(18)
C19_14 C 0.59451(7) 0.43358(8) 0.33237(18)
C20_14 C 0.55927(8) 0.51124(8) 0.34813(19)
C21_14 C 0.56136(10) 0.54424(8) 0.3904(2)
H19_14 H 0.5539 0.5625 0.3574
H20_14 H 0.5469 0.5433 0.4350
H21_14 H 0.5846 0.5482 0.4060
C22_11 C 0.55900(10) 0.52020(13) 0.1296(3)
H22_11 H 0.5379 0.5287 0.1457
C23_11 C 0.57909(14) 0.53947(17) 0.0756(3)
H23_11 H 0.5703 0.5592 0.0530
C24_11 C 0.61003(14) 0.52874(17) 0.0584(3)
C25_11 C 0.62058(10) 0.50126(15) 0.0901(3)
H24_11 H 0.6428 0.4939 0.0798
C26_11 C 0.60050(9) 0.48180(11) 0.1391(2)
H25_11 H 0.6093 0.4617 0.1600
C27_11 C 0.6327(2) 0.5523(4) 0.0122(5)
H26_11 H 0.6562 0.5488 0.0283
H27_11 H 0.6267 0.5758 0.0245
O8_14 O 0.34889(4) 0.50753(5) 0.57567(11)
O9_13 O 0.38227(4) 0.44740(5) 0.39235(12)
O10_14 O 0.42781(5) 0.54325(5) 0.49454(13)
N7_13 N 0.39344(5) 0.49243(5) 0.46592(13)
N8_13 N 0.42335(6) 0.49526(6) 0.42458(14)
C28_13 C 0.33077(7) 0.48237(7) 0.54565(17)
C29_13 C 0.30007(8) 0.47542(8) 0.57779(18)
H28_13 H 0.2930 0.4882 0.6201
C30_13 C 0.27974(8) 0.45106(9) 0.55111(19)
H29_13 H 0.2586 0.4472 0.5743
C31_13 C 0.28949(7) 0.43139(8) 0.48954(17)
H30_13 H 0.2752 0.4142 0.4708
C32_13 C 0.32001(6) 0.43737(7) 0.45700(17)
H31_13 H 0.3270 0.4241 0.4154
C33_13 C 0.34133(6) 0.46291(6) 0.48402(15)
C34_13 C 0.37358(7) 0.46759(7) 0.44602(17)
C35_14 C 0.43885(8) 0.52198(9) 0.4438(2)
C36_14 C 0.47391(10) 0.53077(11) 0.4122(3)
H32_14 H 0.4802 0.5143 0.3738
H33_14 H 0.4904 0.5304 0.4531
H34_14 H 0.4733 0.5532 0.3895
O2_11 O 0.77194(6) 0.24963(5) 0.93314(11)
N3_11 N 0.89123(16) 0.14421(14) 0.9716(3)
C1_12 C 0.74846(10) 0.16173(10) 0.9587(3)
C2_12 C 0.72749(12) 0.13847(12) 0.9172(3)
H1_12 H 0.7243 0.1167 0.9376
C3_12 C 0.71256(16) 0.14586(15) 0.8527(4)
H2_12 H 0.6980 0.1303 0.8286
C4_12 C 0.71890(16) 0.17714(16) 0.8213(3)
H3_12 H 0.7107 0.1822 0.7724
C5_12 C 0.73675(13) 0.20054(11) 0.8598(3)
H4_12 H 0.7382 0.2226 0.8400
C6_11 C 0.75272(9) 0.19343(9) 0.9260(2)
C7_11 C 0.77138(8) 0.22013(8) 0.96350(19)
C11_11 C 0.8827(2) 0.1346(3) 0.8899(5)
H9_11 H 0.8757 0.1110 0.8881
H10_11 H 0.8643 0.1488 0.8716
H11_11 H 0.9025 0.1378 0.8580
H13_11 H 0.9384 0.1341 0.9628
Mn2_12 Mn 0.784763(12) 0.288438(11) 0.99637(3)
O5_12 O 0.82658(6) 0.29677(5) 0.95453(12)
N6_12 N 0.75879(8) 0.31972(7) 0.90628(17)
C13_12 C 0.84945(9) 0.32040(9) 0.9715(2)
C14_12 C 0.87809(11) 0.32256(10) 0.9264(2)
H15_12 H 0.8808 0.3074 0.8856
C15_12 C 0.90240(11) 0.34610(13) 0.9397(3)
H16_12 H 0.9219 0.3464 0.9090
C16_12 C 0.89926(9) 0.36939(10) 0.9967(2)
C22_12 C 0.72980(13) 0.30900(10) 0.8796(3)
H22_12 H 0.7213 0.2879 0.8957
C23_12 C 0.71053(17) 0.32909(14) 0.8256(3)
H23_12 H 0.6908 0.3203 0.8030
C24_12 C 0.72126(17) 0.36003(14) 0.8084(3)
C25_12 C 0.74874(15) 0.37058(10) 0.8401(3)
H24_12 H 0.7561 0.3928 0.8298
C26_12 C 0.76820(11) 0.35050(9) 0.8891(2)
H25_12 H 0.7883 0.3593 0.9100
C27_12 C 0.6977(4) 0.3827(2) 0.7622(5)
H26_12 H 0.7012 0.4062 0.7783
H27_12 H 0.6742 0.3767 0.7745
C37_14 C 0.66985(9) 0.42328(10) 0.52447(19)
H35_14 H 0.6761 0.4232 0.4728
C38_14 C 0.68862(12) 0.40529(14) 0.5729(2)
H36_14 H 0.7091 0.3951 0.5577
C39_14 C 0.67680(16) 0.40244(19) 0.6446(3)
C40_14 C 0.64712(15) 0.41873(17) 0.6669(3)
H37_14 H 0.6365 0.4143 0.7137
C41_14 C 0.63473(14) 0.44129(15) 0.6165(3)
H38_14 H 0.6195 0.4579 0.6342
C42_14 C 0.7008(3) 0.3814(3) 0.7031(3)
H39_14 H 0.7242 0.3881 0.6923
H40_14 H 0.6988 0.3575 0.6891
C1_13 C 0.41173(10) 0.00154(10) 0.7913(3)
C2_13 C 0.38847(12) 0.02251(12) 0.8328(3)
H1_13 H 0.3667 0.0257 0.8124
C3_13 C 0.39586(15) 0.03744(16) 0.8973(4)
H2_13 H 0.3803 0.0520 0.9214
C4_13 C 0.42714(16) 0.03110(16) 0.9287(3)
H3_13 H 0.4322 0.0393 0.9776
C5_13 C 0.45054(11) 0.01325(13) 0.8902(3)
H4_13 H 0.4726 0.0118 0.9100
O7_15 O 0.53574(5) 0.00766(5) 0.70187(11)
C20_15 C 0.55927(8) 0.01124(8) 0.65187(19)
C21_15 C 0.56136(10) 0.04424(8) 0.6096(2)
H19_15 H 0.5539 0.0625 0.6426
H20_15 H 0.5469 0.0433 0.5650
H21_15 H 0.5846 0.0482 0.5940
C22_13 C 0.55900(10) 0.02020(13) 0.8704(3)
H22_13 H 0.5379 0.0287 0.8543
C23_13 C 0.57909(14) 0.03947(17) 0.9244(3)
H23_13 H 0.5703 0.0592 0.9470
C24_13 C 0.61003(14) 0.02874(17) 0.9416(3)
C25_13 C 0.62058(10) 0.00126(15) 0.9099(3)
C27_13 C 0.6327(2) 0.0523(4) 0.9878(5)
H26_13 H 0.6562 0.0488 0.9717
H27_13 H 0.6267 0.0758 0.9755
Mn3_8 Mn 0.386800(10) 0.028300(10) 0.46033(3)
O8_15 O 0.34889(4) 0.00753(5) 0.42433(11)
O10_15 O 0.42781(5) 0.04325(5) 0.50546(13)
C35_15 C 0.43885(8) 0.02198(9) 0.5562(2)
C36_15 C 0.47391(10) 0.03077(11) 0.5878(3)
H32_15 H 0.4802 0.0143 0.6262
H33_15 H 0.4904 0.0304 0.5469
H34_15 H 0.4733 0.0532 0.6105
O11_8 O 0.38524(5) 0.06626(4) 0.38804(11)
N10_8 N 0.41988(6) 0.01269(6) 0.36404(15)
N11_8 N 0.35721(7) 0.05868(8) 0.54469(17)
Mn1_14 Mn 0.577079(11) 0.043359(11) 0.33264(3)
O1_14 O 0.59929(5) 0.01382(6) 0.26902(15)
O2_12 O 0.50037(5) 0.02194(6) 0.18314(11)
O3_14 O 0.54745(5) 0.07064(4) 0.39175(11)
O4_14 O 0.58857(7) 0.08743(8) 0.2607(2)
N1_14 N 0.53576(5) 0.03628(6) 0.27791(14)
N2_14 N 0.50755(5) 0.05250(6) 0.30974(13)
N3_12 N 0.60579(14) 0.14123(16) 0.2216(3)
C6_12 C 0.55657(9) 0.00272(9) 0.1760(2)
C7_12 C 0.52987(8) 0.02138(8) 0.21350(19)
C8_14 C 0.51627(8) 0.06966(7) 0.36841(19)
C9_15 C 0.49039(8) 0.08932(7) 0.41191(18)
H5_15 H 0.4920 0.0836 0.4655
H6_15 H 0.4945 0.1134 0.4052
H7_15 H 0.4679 0.0837 0.3932
C10_14 C 0.5939(5) 0.1155(5) 0.2757(12)
H8_14 H 0.5903 0.1224 0.3264
C11_12 C 0.6154(3) 0.1327(2) 0.1399(5)
H9_12 H 0.6390 0.1257 0.1381
H10_12 H 0.6012 0.1143 0.1216
H11_12 H 0.6122 0.1525 0.1080
C12_14 C 0.6177(2) 0.17065(18) 0.2508(4)
H12_14 H 0.6412 0.1678 0.2653
H13_12 H 0.6159 0.1884 0.2128
H14_14 H 0.6045 0.1768 0.2953
Mn2_13 Mn 0.461562(11) 0.034763(12) 0.24637(3)
O5_13 O 0.45323(5) 0.07658(6) 0.20453(12)
N4_15 N 0.42474(6) 0.03981(6) 0.31622(13)
N6_13 N 0.43028(7) 0.00879(8) 0.15628(17)
C13_13 C 0.42960(9) 0.09945(9) 0.2215(2)
C14_13 C 0.42744(10) 0.12809(11) 0.1764(2)
H15_13 H 0.4426 0.1308 0.1356
C15_13 C 0.40390(13) 0.15240(11) 0.1897(3)
H16_13 H 0.4036 0.1719 0.1590
C16_13 C 0.38061(10) 0.14926(9) 0.2467(2)
H17_15 H 0.3638 0.1658 0.2547
C17_15 C 0.38286(9) 0.12055(8) 0.2923(2)
H18_15 H 0.3673 0.1180 0.3324
C18_15 C 0.40633(7) 0.09625(7) 0.28178(18)
C19_15 C 0.40549(7) 0.06642(8) 0.33237(18)
H24_13 H 0.3572 0.0061 0.0798
C26_13 C 0.39950(9) 0.01820(11) 0.1391(2)
H25_13 H 0.3907 0.0383 0.1600
O9_14 O 0.61773(4) 0.05260(5) 0.39235(12)
N7_14 N 0.60656(5) 0.00757(5) 0.46592(13)
N8_14 N 0.57665(6) 0.00474(6) 0.42458(14)
C28_14 C 0.66923(7) 0.01763(7) 0.54565(17)
C29_14 C 0.69993(8) 0.02458(8) 0.57779(18)
H28_14 H 0.7070 0.0118 0.6201
C30_14 C 0.72026(8) 0.04894(9) 0.55111(19)
H29_14 H 0.7414 0.0528 0.5743
C31_14 C 0.71051(7) 0.06861(8) 0.48954(17)
H30_14 H 0.7248 0.0858 0.4708
C32_14 C 0.67999(6) 0.06263(7) 0.45700(17)
H31_14 H 0.6730 0.0759 0.4154
C33_14 C 0.65867(6) 0.03709(6) 0.48402(15)
C34_14 C 0.62642(7) 0.03241(7) 0.44602(17)
O2_13 O 0.22806(6) 0.25037(5) 0.93314(11)
N3_13 N 0.10877(16) 0.35579(14) 0.9716(3)
C1_14 C 0.25154(10) 0.33827(10) 0.9587(3)
C2_14 C 0.27251(12) 0.36153(12) 0.9172(3)
H1_14 H 0.2757 0.3833 0.9376
C3_14 C 0.28744(16) 0.35414(15) 0.8527(4)
H2_14 H 0.3020 0.3697 0.8286
C4_14 C 0.28110(16) 0.32286(16) 0.8213(3)
H3_14 H 0.2893 0.3178 0.7724
C5_14 C 0.26325(13) 0.29946(11) 0.8598(3)
H4_14 H 0.2618 0.2774 0.8400
C6_13 C 0.24728(9) 0.30657(9) 0.9260(2)
C7_13 C 0.22862(8) 0.27987(8) 0.96350(19)
C11_13 C 0.1173(2) 0.3654(3) 0.8899(5)
H9_13 H 0.1243 0.3890 0.8881
H10_13 H 0.1357 0.3512 0.8716
H11_13 H 0.0975 0.3622 0.8580
H13_13 H 0.0616 0.3659 0.9628
Mn2_14 Mn 0.215237(12) 0.211562(11) 0.99637(3)
O5_14 O 0.17342(6) 0.20323(5) 0.95453(12)
N6_14 N 0.24121(8) 0.18028(7) 0.90628(17)
C13_14 C 0.15055(9) 0.17960(9) 0.9715(2)
C14_14 C 0.12191(11) 0.17744(10) 0.9264(2)
H15_14 H 0.1192 0.1926 0.8856
C15_14 C 0.09760(11) 0.15390(13) 0.9397(3)
H16_14 H 0.0781 0.1536 0.9090
C16_14 C 0.10074(9) 0.13061(10) 0.9967(2)
C22_14 C 0.27020(13) 0.19100(10) 0.8796(3)
H22_14 H 0.2787 0.2121 0.8957
C23_14 C 0.28947(17) 0.17091(14) 0.8256(3)
H23_14 H 0.3092 0.1797 0.8030
C24_14 C 0.27874(17) 0.13997(14) 0.8084(3)
C25_14 C 0.25126(15) 0.12942(10) 0.8401(3)
H24_14 H 0.2439 0.1072 0.8298
C26_14 C 0.23180(11) 0.14950(9) 0.8891(2)
H25_14 H 0.2117 0.1407 0.9100
C27_14 C 0.3023(4) 0.1173(2) 0.7622(5)
H26_14 H 0.2988 0.0938 0.7783
H27_14 H 0.3258 0.1233 0.7745
C37_15 C 0.33015(9) 0.07672(10) 0.52447(19)
H35_15 H 0.3239 0.0768 0.4728
C38_15 C 0.31138(12) 0.09471(14) 0.5729(2)
H36_15 H 0.2909 0.1049 0.5577
C39_15 C 0.32320(16) 0.09756(19) 0.6446(3)
C40_15 C 0.35288(15) 0.08127(17) 0.6669(3)
H37_15 H 0.3635 0.0857 0.7137
C41_15 C 0.36527(14) 0.05871(15) 0.6165(3)
H38_15 H 0.3805 0.0421 0.6342
C42_15 C 0.2992(3) 0.1186(3) 0.7031(3)
H39_15 H 0.2758 0.1119 0.6923
H40_15 H 0.3012 0.1425 0.6891
Mn1_15 Mn 0.422921(11) 0.956641(11) 0.66736(3)
O1_15 O 0.40071(5) 0.98618(6) 0.73098(15)
O2_14 O 0.49963(5) 0.97806(6) 0.81686(11)
O3_15 O 0.45255(5) 0.92936(4) 0.60825(11)
O4_15 O 0.41143(7) 0.91257(8) 0.7393(2)
N1_15 N 0.46424(5) 0.96372(6) 0.72209(14)
N2_15 N 0.49245(5) 0.94750(6) 0.69026(13)
N3_14 N 0.39421(14) 0.85877(16) 0.7784(3)
C6_14 C 0.44343(9) 0.99728(9) 0.8240(2)
C7_14 C 0.47013(8) 0.97862(8) 0.78650(19)
C8_15 C 0.48373(8) 0.93034(7) 0.63159(19)
C9_16 C 0.50961(8) 0.91068(7) 0.58809(18)
H5_16 H 0.5080 0.9164 0.5345
H6_16 H 0.5055 0.8866 0.5948
H7_16 H 0.5321 0.9163 0.6068
C10_15 C 0.4061(5) 0.8845(5) 0.7243(12)
H8_15 H 0.4097 0.8776 0.6736
C11_14 C 0.3846(3) 0.8673(2) 0.8601(5)
H9_14 H 0.3610 0.8743 0.8619
H10_14 H 0.3988 0.8857 0.8784
H11_14 H 0.3878 0.8475 0.8920
C12_15 C 0.3823(2) 0.82935(18) 0.7492(4)
H12_15 H 0.3588 0.8322 0.7347
H13_14 H 0.3841 0.8116 0.7872
H14_15 H 0.3955 0.8232 0.7047
Mn2_15 Mn 0.538438(11) 0.965237(12) 0.75363(3)
O5_15 O 0.54677(5) 0.92342(6) 0.79547(12)
O6_8 O 0.61476(5) 0.93374(4) 0.61196(11)
N4_16 N 0.57526(6) 0.96019(6) 0.68378(13)
N5_8 N 0.58012(6) 0.98731(6) 0.63596(15)
N6_15 N 0.56972(7) 0.99121(8) 0.84372(17)
C13_15 C 0.57040(9) 0.90055(9) 0.7785(2)
C14_15 C 0.57256(10) 0.87191(11) 0.8236(2)
H15_15 H 0.5574 0.8692 0.8644
C15_15 C 0.59610(13) 0.84760(11) 0.8103(3)
H16_15 H 0.5964 0.8281 0.8410
C16_15 C 0.61939(10) 0.85074(9) 0.7533(2)
H17_16 H 0.6362 0.8342 0.7453
C17_16 C 0.61714(9) 0.87945(8) 0.7077(2)
H18_16 H 0.6327 0.8820 0.6676
C18_16 C 0.59367(7) 0.90375(7) 0.71822(18)
C19_16 C 0.59451(7) 0.93358(8) 0.66763(18)
H24_15 H 0.6428 0.9939 0.9202
C26_15 C 0.60050(9) 0.98180(11) 0.8609(2)
H25_15 H 0.6093 0.9617 0.8400
O9_15 O 0.38227(4) 0.94740(5) 0.60765(12)
N7_15 N 0.39344(5) 0.99243(5) 0.53408(13)
N8_15 N 0.42335(6) 0.99526(6) 0.57542(14)
C28_15 C 0.33077(7) 0.98237(7) 0.45435(17)
C29_15 C 0.30007(8) 0.97542(8) 0.42221(18)
H28_15 H 0.2930 0.9882 0.3799
C30_15 C 0.27974(8) 0.95106(9) 0.44889(19)
H29_15 H 0.2586 0.9472 0.4257
C31_15 C 0.28949(7) 0.93139(8) 0.51046(17)
H30_15 H 0.2752 0.9142 0.5292
C32_15 C 0.32001(6) 0.93737(7) 0.54300(17)
H31_15 H 0.3270 0.9241 0.5846
C33_15 C 0.34133(6) 0.96291(6) 0.51598(15)
C34_15 C 0.37358(7) 0.96759(7) 0.55398(17)
Mn4_5 Mn 0.613200(10) 0.971700(10) 0.53967(3)
O2_15 O 0.77194(6) 0.74963(5) 0.06686(11)
N3_15 N 0.89123(16) 0.64421(14) 0.0284(3)
C1_15 C 0.74846(10) 0.66173(10) 0.0413(3)
C2_15 C 0.72749(12) 0.63847(12) 0.0828(3)
H1_15 H 0.7243 0.6167 0.0624
C3_15 C 0.71256(16) 0.64586(15) 0.1473(4)
H2_15 H 0.6980 0.6303 0.1714
C4_15 C 0.71890(16) 0.67714(16) 0.1787(3)
H3_15 H 0.7107 0.6822 0.2276
C5_15 C 0.73675(13) 0.70054(11) 0.1402(3)
H4_15 H 0.7382 0.7226 0.1600
C6_15 C 0.75272(9) 0.69343(9) 0.0740(2)
C7_15 C 0.77138(8) 0.72013(8) 0.03650(19)
C11_15 C 0.8827(2) 0.6346(3) 0.1101(5)
H9_15 H 0.8757 0.6110 0.1119
H10_15 H 0.8643 0.6488 0.1284
H11_15 H 0.9025 0.6378 0.1420
H13_15 H 0.9384 0.6341 0.0372
Mn2_16 Mn 0.784763(12) 0.788438(11) 0.00363(3)
O5_16 O 0.82658(6) 0.79677(5) 0.04547(12)
N6_16 N 0.75879(8) 0.81972(7) 0.09372(17)
C13_16 C 0.84945(9) 0.82040(9) 0.0285(2)
C14_16 C 0.87809(11) 0.82256(10) 0.0736(2)
H15_16 H 0.8808 0.8074 0.1144
C15_16 C 0.90240(11) 0.84610(13) 0.0603(3)
H16_16 H 0.9219 0.8464 0.0910
C16_16 C 0.89926(9) 0.86939(10) 0.0033(2)
C22_15 C 0.72980(13) 0.80900(10) 0.1204(3)
H22_15 H 0.7213 0.7879 0.1043
C23_15 C 0.71053(17) 0.82909(14) 0.1744(3)
H23_15 H 0.6908 0.8203 0.1970
C24_15 C 0.72126(17) 0.86003(14) 0.1916(3)
C25_15 C 0.74874(15) 0.87058(10) 0.1599(3)
H24_16 H 0.7561 0.8928 0.1702
C26_16 C 0.76820(11) 0.85050(9) 0.1109(2)
H25_16 H 0.7883 0.8593 0.0900
C27_15 C 0.6977(4) 0.8827(2) 0.2378(5)
H26_15 H 0.7012 0.9062 0.2217
H27_15 H 0.6742 0.8767 0.2255
N9_8 N 0.64279(7) 0.94132(8) 0.45531(17)
C37_16 C 0.66985(9) 0.92328(10) 0.47553(19)
H35_16 H 0.6761 0.9232 0.5272
C38_16 C 0.68862(12) 0.90529(14) 0.4271(2)
H36_16 H 0.7091 0.8951 0.4423
C39_16 C 0.67680(16) 0.90244(19) 0.3554(3)
C40_16 C 0.64712(15) 0.91873(17) 0.3331(3)
H37_16 H 0.6365 0.9143 0.2863
C41_16 C 0.63473(14) 0.94129(15) 0.3835(3)
H38_16 H 0.6195 0.9579 0.3658
C42_16 C 0.7008(3) 0.8814(3) 0.2969(3)
H39_16 H 0.7242 0.8881 0.3077
H40_16 H 0.6988 0.8575 0.3109
C1_16 C 0.58827(10) 0.99846(10) 0.2087(3)
C2_16 C 0.61153(12) 0.97749(12) 0.1672(3)
H1_16 H 0.6333 0.9743 0.1876
C3_16 C 0.60414(15) 0.96256(16) 0.1027(4)
H2_16 H 0.6197 0.9480 0.0786
C4_16 C 0.57286(16) 0.96890(16) 0.0713(3)
H3_16 H 0.5678 0.9607 0.0224
C5_16 C 0.54946(11) 0.98675(13) 0.1098(3)
H4_16 H 0.5274 0.9882 0.0900
O7_16 O 0.46426(5) 0.99234(5) 0.29813(11)
C20_16 C 0.44073(8) 0.98876(8) 0.34813(19)
C21_16 C 0.43864(10) 0.95576(8) 0.3904(2)
H19_16 H 0.4461 0.9375 0.3574
H20_16 H 0.4531 0.9567 0.4350
H21_16 H 0.4154 0.9518 0.4060
C22_16 C 0.44100(10) 0.97980(13) 0.1296(3)
H22_16 H 0.4621 0.9713 0.1457
C23_16 C 0.42091(14) 0.96053(17) 0.0756(3)
H23_16 H 0.4297 0.9408 0.0530
C24_16 C 0.38997(14) 0.97126(17) 0.0584(3)
C25_16 C 0.37942(10) 0.99874(15) 0.0901(3)
C27_16 C 0.3673(2) 0.9477(4) 0.0122(5)
H26_16 H 0.3438 0.9512 0.0283
H27_16 H 0.3733 0.9242 0.0245
O8_16 O 0.65111(4) 0.99247(5) 0.57567(11)
O10_16 O 0.57219(5) 0.95675(5) 0.49454(13)
C35_16 C 0.56115(8) 0.97802(9) 0.4438(2)
C36_16 C 0.52609(10) 0.96923(11) 0.4122(3)
H32_16 H 0.5198 0.9857 0.3738
H33_16 H 0.5096 0.9696 0.4531
H34_16 H 0.5267 0.9468 0.3895
C28_16 C 0.83077(7) 0.98237(7) 0.04565(17)
C29_16 C 0.80007(8) 0.97542(8) 0.07779(18)
H28_16 H 0.7930 0.9882 0.1201
C30_16 C 0.77974(8) 0.95106(9) 0.05111(19)
H29_16 H 0.7586 0.9472 0.0743
Mn1_16 Mn 0.922921(11) 0.956641(11) 0.83264(3)
O1_16 O 0.90071(5) 0.98618(6) 0.76902(15)
O2_16 O 0.99963(5) 0.97806(6) 0.68314(11)
O3_16 O 0.95255(5) 0.92936(4) 0.89175(11)
O4_16 O 0.91143(7) 0.91257(8) 0.7607(2)
N1_16 N 0.96424(5) 0.96372(6) 0.77791(14)
N2_16 N 0.99245(5) 0.94750(6) 0.80974(13)
N3_16 N 0.89421(14) 0.85877(16) 0.7216(3)
C6_16 C 0.94343(9) 0.99728(9) 0.6760(2)
C7_16 C 0.97013(8) 0.97862(8) 0.71350(19)
C8_16 C 0.98373(8) 0.93034(7) 0.86841(19)
C10_16 C 0.9061(5) 0.8845(5) 0.7757(12)
H8_16 H 0.9097 0.8776 0.8264
C11_16 C 0.8846(3) 0.8673(2) 0.6399(5)
H9_16 H 0.8610 0.8743 0.6381
H10_16 H 0.8988 0.8857 0.6216
H11_16 H 0.8878 0.8475 0.6080
C12_16 C 0.8823(2) 0.82935(18) 0.7508(4)
H12_16 H 0.8588 0.8322 0.7653
H13_16 H 0.8841 0.8116 0.7128
H14_16 H 0.8955 0.8232 0.7953
O9_16 O 0.88227(4) 0.94740(5) 0.89235(12)
N7_16 N 0.89344(5) 0.99243(5) 0.96592(13)
N8_16 N 0.92335(6) 0.99526(6) 0.92458(14)
C31_16 C 0.78949(7) 0.93139(8) 0.98954(17)
H30_16 H 0.7752 0.9142 0.9708
C32_16 C 0.82001(6) 0.93737(7) 0.95700(17)
H31_16 H 0.8270 0.9241 0.9154
C33_16 C 0.84133(6) 0.96291(6) 0.98402(15)
C34_16 C 0.87358(7) 0.96759(7) 0.94602(17)
loop_
_geom_bond_atom_site_label_1
_geom_bond_atom_site_label_2
_geom_bond_site_symmetry_1
_geom_bond_site_symmetry_2
Mn1 O1 1_555 1_555
O2 C7 1_555 1_555
O3 Mn1 1_555 1_555
O4 Mn1 1_555 1_555
N1 Mn1 1_555 1_555
N2 N1 1_555 1_555
N3 C10 1_555 1_555
C7 N1 1_555 1_555
C8 O3 1_555 1_555
C10 O4 1_555 1_555
H8 C10 1_555 1_555
C11 N3 1_555 1_555
H9 C11 1_555 1_555
H10 C11 1_555 1_555
H11 C11 1_555 1_555
C12 N3 1_555 1_555
H12 C12 1_555 1_555
H13 C12 1_555 1_555
H14 C12 1_555 1_555
O9 Mn1 1_555 1_555
N8 Mn1 1_555 1_555
H30 C31 1_555 1_555
C32 C31 1_555 1_555
H31 C32 1_555 1_555
C34 O9 1_555 1_555
N2 C8 1_555 1_555
C6 C7 1_555 1_555
N7 N8 1_555 1_555
N7 C34 1_555 1_555
C32 C33 1_555 1_555
C33 C34 1_555 1_555
C28 C29 1_555 1_555
C29 H28 1_555 1_555
C30 C29 1_555 1_555
H29 C30 1_555 1_555
C1 C2 1_555 1_555
C2 H1 1_555 1_555
C3 C2 1_555 1_555
H2 C3 1_555 1_555
C4 C3 1_555 1_555
H3 C4 1_555 1_555
C5 C4 1_555 1_555
H4 C5 1_555 1_555
C35 O10 1_555 1_555
C36 C35 1_555 1_555
H32 C36 1_555 1_555
H33 C36 1_555 1_555
H34 C36 1_555 1_555
Mn1_2 O1_2 1_555 1_555
O3_2 Mn1_2 1_555 1_555
O4_2 Mn1_2 1_555 1_555
N1_2 Mn1_2 1_555 1_555
N2_2 N1_2 1_555 1_555
C8_2 O3_2 1_555 1_555
C9 C8_2 1_555 1_555
H5 C9 1_555 1_555
H6 C9 1_555 1_555
H7 C9 1_555 1_555
C10_2 O4_2 1_555 1_555
H8_2 C10_2 1_555 1_555
H12_2 C12_2 1_555 1_555
H14_2 C12_2 1_555 1_555
O6 C19 1_555 1_555
N5 N4 1_555 1_555
H18 C17 1_555 1_555
C19 N4 1_555 1_555
C20 O7 1_555 1_555
C21 C20 1_555 1_555
H19 C21 1_555 1_555
H20 C21 1_555 1_555
H21 C21 1_555 1_555
Mn3 O8 1_555 1_555
O8 C28_2 1_555 1_555
O9_2 Mn1_2 1_555 1_555
O10_2 Mn3 1_555 1_555
N7_2 Mn3 1_555 1_555
N8_2 Mn1_2 1_555 1_555
C28_2 C29_2 1_555 1_555
C29_2 H28_2 1_555 1_555
C30_2 C29_2 1_555 1_555
H29_2 C30_2 1_555 1_555
C31_2 C30_2 1_555 1_555
H30_2 C31_2 1_555 1_555
C32_2 C31_2 1_555 1_555
H31_2 C32_2 1_555 1_555
C33_2 C28_2 1_555 1_555
C34_2 O9_2 1_555 1_555
C35_2 O10_2 1_555 1_555
C36_2 C35_2 1_555 1_555
H32_2 C36_2 1_555 1_555
H33_2 C36_2 1_555 1_555
H34_2 C36_2 1_555 1_555
O11 Mn3 1_555 1_555
N10 Mn3 1_555 1_555
Mn4 O6 1_555 1_555
N11_2 Mn3 1_555 1_555
N2_2 C8_2 1_555 1_555
N5 C20 1_555 1_555
N5 Mn4 1_555 1_555
C17 C18 1_555 1_555
C18 C19 1_555 1_555
N7_2 N8_2 1_555 1_555
N7_2 C34_2 1_555 1_555
N8_2 C35_2 1_555 1_555
C32_2 C33_2 1_555 1_555
C33_2 C34_2 1_555 1_555
H5_2 C9_2 1_555 1_555
H6_2 C9_2 1_555 1_555
H7_2 C9_2 1_555 1_555
O5 Mn2 1_555 1_555
O6_2 C19_2 1_555 1_555
O7_2 Mn2 1_555 1_555
N4_2 Mn2 1_555 1_555
N5_2 N4_2 1_555 1_555
N6 Mn2 1_555 1_555
C13 O5 1_555 1_555
C14 C13 1_555 1_555
H15 C14 1_555 1_555
C15 C14 1_555 1_555
H16 C15 1_555 1_555
C16 C15 1_555 1_555
H17_2 C16 1_555 1_555
C17_2 C16 1_555 1_555
H18_2 C17_2 1_555 1_555
C18_2 C13 1_555 1_555
C19_2 N4_2 1_555 1_555
C20_2 O7_2 1_555 1_555
C21_2 C20_2 1_555 1_555
H19_2 C21_2 1_555 1_555
H20_2 C21_2 1_555 1_555
H21_2 C21_2 1_555 1_555
C22 N6 1_555 1_555
H22 C22 1_555 1_555
C23 C22 1_555 1_555
H23 C23 1_555 1_555
C24 C23 1_555 1_555
C25 C24 1_555 1_555
H24 C25 1_555 1_555
C26 N6 1_555 1_555
H25 C26 1_555 1_555
C27 C24 1_555 1_555
H26 C27 1_555 1_555
H27 C27 1_555 1_555
N9 C37 1_555 1_555
C37 H35_2 1_555 1_555
C38 C37 1_555 1_555
H36 C38 1_555 1_555
C39 C38 1_555 1_555
C40 C39 1_555 1_555
H37 C40 1_555 1_555
C41 N9 1_555 1_555
H38 C41 1_555 1_555
C42 C27 1_555 1_555
H39 C42 1_555 1_555
H40 C42 1_555 1_555
Mn5 O6_2 1_555 1_555
Mn4 N9 1_555 1_555
N5_2 C20_2 1_555 1_555
N5_2 Mn5 1_555 1_555
C17_2 C18_2 1_555 1_555
C18_2 C19_2 1_555 1_555
C25 C26 1_555 1_555
C39 C42 1_555 1_555
C40 C41 1_555 1_555
Mn1_3 O1_3 1_555 1_555
O1_3 C1_2 1_555 1_555
O2_2 C7_2 1_555 1_555
O3_3 Mn1_3 1_555 1_555
O4_3 Mn1_3 1_555 1_555
N1_3 Mn1_3 1_555 1_555
N2_3 N1_3 1_555 1_555
N3_2 C10_3 1_555 1_555
C1_2 C2_2 1_555 1_555
C2_2 H1_2 1_555 1_555
C3_2 C2_2 1_555 1_555
H2_2 C3_2 1_555 1_555
C4_2 C3_2 1_555 1_555
H3_2 C4_2 1_555 1_555
C5_2 C4_2 1_555 1_555
H4_2 C5_2 1_555 1_555
C6_2 C1_2 1_555 1_555
C7_2 N1_3 1_555 1_555
C8_3 O3_3 1_555 1_555
C9_3 C8_3 1_555 1_555
H5_3 C9_3 1_555 1_555
H6_3 C9_3 1_555 1_555
H7_3 C9_3 1_555 1_555
C10_3 O4_3 1_555 1_555
H8_3 C10_3 1_555 1_555
C11_2 N3_2 1_555 1_555
H9_2 C11_2 1_555 1_555
H10_2 C11_2 1_555 1_555
H11_2 C11_2 1_555 1_555
C12_3 N3_2 1_555 1_555
H12_3 C12_3 1_555 1_555
H13_2 C12_3 1_555 1_555
H14_3 C12_3 1_555 1_555
Mn2_2 O2_2 1_555 1_555
O5_2 Mn2_2 1_555 1_555
O11 C19_3 1_555 1_555
O7_3 Mn2_2 1_555 1_555
N4_3 Mn2_2 1_555 1_555
N10 N4_3 1_555 1_555
N6_2 Mn2_2 1_555 1_555
C13_2 O5_2 1_555 1_555
C14_2 C13_2 1_555 1_555
H15_2 C14_2 1_555 1_555
C15_2 C14_2 1_555 1_555
H16_2 C15_2 1_555 1_555
C16_2 C15_2 1_555 1_555
H17_3 C16_2 1_555 1_555
C17_3 C16_2 1_555 1_555
H18_3 C17_3 1_555 1_555
C18_3 C13_2 1_555 1_555
C19_3 N4_3 1_555 1_555
C20_3 O7_3 1_555 1_555
C21_3 C20_3 1_555 1_555
H19_3 C21_3 1_555 1_555
H20_3 C21_3 1_555 1_555
H21_3 C21_3 1_555 1_555
C22_2 N6_2 1_555 1_555
H22_2 C22_2 1_555 1_555
C23_2 C22_2 1_555 1_555
H23_2 C23_2 1_555 1_555
C24_2 C23_2 1_555 1_555
C25_2 C24_2 1_555 1_555
H24_2 C25_2 1_555 1_555
C26_2 N6_2 1_555 1_555
H25_2 C26_2 1_555 1_555
C27_2 C24_2 1_555 1_555
H26_2 C27_2 1_555 1_555
H27_2 C27_2 1_555 1_555
Mn4 O8_2 1_555 1_555
O8_2 C28_3 1_555 1_555
O9_3 Mn1_3 1_555 1_555
O10_3 Mn4 1_555 1_555
N7_3 Mn4 1_555 1_555
N8_3 Mn1_3 1_555 1_555
N11 C37_2 1_555 1_555
C28_3 C29_3 1_555 1_555
C29_3 H28_3 1_555 1_555
C30_3 C29_3 1_555 1_555
H29_3 C30_3 1_555 1_555
C31_3 C30_3 1_555 1_555
H30_3 C31_3 1_555 1_555
C32_3 C31_3 1_555 1_555
H31_3 C32_3 1_555 1_555
C33_3 C28_3 1_555 1_555
C34_3 O9_3 1_555 1_555
C35_3 O10_3 1_555 1_555
C36_3 C35_3 1_555 1_555
H32_3 C36_3 1_555 1_555
H33_3 C36_3 1_555 1_555
H34_3 C36_3 1_555 1_555
C38_2 C37_2 1_555 1_555
H36_2 C38_2 1_555 1_555
C39_2 C38_2 1_555 1_555
C40_2 C39_2 1_555 1_555
H37_2 C40_2 1_555 1_555
C41_2 N11 1_555 1_555
H38_2 C41_2 1_555 1_555
C42_2 C27_2 1_555 1_555
H39_2 C42_2 1_555 1_555
H40_2 C42_2 1_555 1_555
N2_3 C8_3 1_555 1_555
N2_3 Mn2_2 1_555 1_555
C5_2 C6_2 1_555 1_555
C6_2 C7_2 1_555 1_555
N10 C20_3 1_555 1_555
C17_3 C18_3 1_555 1_555
C18_3 C19_3 1_555 1_555
C25_2 C26_2 1_555 1_555
N7_3 N8_3 1_555 1_555
N7_3 C34_3 1_555 1_555
N8_3 C35_3 1_555 1_555
C32_3 C33_3 1_555 1_555
C33_3 C34_3 1_555 1_555
C39_2 C42_2 1_555 1_555
C40_2 C41_2 1_555 1_555
N11_2 C37_3 1_555 1_555
C37_3 H35_3 1_555 1_555
C38_3 C37_3 1_555 1_555
H36_3 C38_3 1_555 1_555
C39_3 C38_3 1_555 1_555
C40_3 C39_3 1_555 1_555
H37_3 C40_3 1_555 1_555
C41_3 N11_2 1_555 1_555
H38_3 C41_3 1_555 1_555
H39_3 C42_3 1_555 1_555
H40_3 C42_3 1_555 1_555
C39_3 C42_3 1_555 1_555
C40_3 C41_3 1_555 1_555
Mn5 O8_3 1_555 1_555
O8_3 C28_4 1_555 1_555
C28_4 C29_4 1_555 1_555
C29_4 H28_4 1_555 1_555
C30_4 C29_4 1_555 1_555
H29_4 C30_4 1_555 1_555
Mn3_2 O8_4 1_555 1_555
O11_2 Mn3_2 1_555 1_555
N10_2 Mn3_2 1_555 1_555
H5_4 C9_4 1_555 1_555
H6_4 C9_4 1_555 1_555
H7_4 C9_4 1_555 1_555
O5_3 Mn2_3 1_555 1_555
O11_2 C19_4 1_555 1_555
N4_4 Mn2_3 1_555 1_555
N10_2 N4_4 1_555 1_555
N6_3 Mn2_3 1_555 1_555
C13_3 O5_3 1_555 1_555
C14_3 C13_3 1_555 1_555
H15_3 C14_3 1_555 1_555
C15_3 C14_3 1_555 1_555
H16_3 C15_3 1_555 1_555
C16_3 C15_3 1_555 1_555
H17_4 C16_3 1_555 1_555
C17_4 C16_3 1_555 1_555
H18_4 C17_4 1_555 1_555
C18_4 C13_3 1_555 1_555
C19_4 N4_4 1_555 1_555
C26_3 N6_3 1_555 1_555
H25_3 C26_3 1_555 1_555
C17_4 C18_4 1_555 1_555
C18_4 C19_4 1_555 1_555
H5_5 C9_5 1_555 1_555
H6_5 C9_5 1_555 1_555
H7_5 C9_5 1_555 1_555
O5_4 Mn2_4 1_555 1_555
O6_3 C19_5 1_555 1_555
N4_5 Mn2_4 1_555 1_555
N5_3 N4_5 1_555 1_555
N6_4 Mn2_4 1_555 1_555
C13_4 O5_4 1_555 1_555
C14_4 C13_4 1_555 1_555
H15_4 C14_4 1_555 1_555
C15_4 C14_4 1_555 1_555
H16_4 C15_4 1_555 1_555
C16_4 C15_4 1_555 1_555
H17_5 C16_4 1_555 1_555
C17_5 C16_4 1_555 1_555
H18_5 C17_5 1_555 1_555
C18_5 C13_4 1_555 1_555
C19_5 N4_5 1_555 1_555
C26_4 N6_4 1_555 1_555
H25_4 C26_4 1_555 1_555
Mn4_2 O6_3 1_555 1_555
N5_3 Mn4_2 1_555 1_555
C17_5 C18_5 1_555 1_555
C18_5 C19_5 1_555 1_555
Mn4_2 O8_5 1_555 1_555
C20_4 O7_4 1_555 1_555
C21_4 C20_4 1_555 1_555
H19_4 C21_4 1_555 1_555
H20_4 C21_4 1_555 1_555
H21_4 C21_4 1_555 1_555
H22_3 C22_3 1_555 1_555
C23_3 C22_3 1_555 1_555
H23_3 C23_3 1_555 1_555
C24_3 C23_3 1_555 1_555
C25_3 C24_3 1_555 1_555
C27_3 C24_3 1_555 1_555
H26_3 C27_3 1_555 1_555
H27_3 C27_3 1_555 1_555
N9_2 C37_4 1_555 1_555
C37_4 H35_6 1_555 1_555
C38_4 C37_4 1_555 1_555
H36_4 C38_4 1_555 1_555
C39_4 C38_4 1_555 1_555
C40_4 C39_4 1_555 1_555
H37_4 C40_4 1_555 1_555
C41_4 N9_2 1_555 1_555
H38_4 C41_4 1_555 1_555
C42_4 C27_3 1_555 1_555
H39_4 C42_4 1_555 1_555
H40_4 C42_4 1_555 1_555
Mn5_2 N9_2 1_555 1_555
C39_4 C42_4 1_555 1_555
C40_4 C41_4 1_555 1_555
Mn1_4 O1_4 1_555 1_555
O3_4 Mn1_4 1_555 1_555
O4_4 Mn1_4 1_555 1_555
N1_4 Mn1_4 1_555 1_555
N2_4 N1_4 1_555 1_555
C8_4 O3_4 1_555 1_555
C9_6 C8_4 1_555 1_555
H5_6 C9_6 1_555 1_555
H6_6 C9_6 1_555 1_555
H7_6 C9_6 1_555 1_555
C10_4 O4_4 1_555 1_555
H8_4 C10_4 1_555 1_555
H12_4 C12_4 1_555 1_555
H14_4 C12_4 1_555 1_555
O6_4 C19_6 1_555 1_555
N5_4 N4_6 1_555 1_555
H18_6 C17_6 1_555 1_555
C19_6 N4_6 1_555 1_555
C20_5 O7_5 1_555 1_555
C21_5 C20_5 1_555 1_555
H19_5 C21_5 1_555 1_555
H20_5 C21_5 1_555 1_555
H21_5 C21_5 1_555 1_555
Mn3_3 O8_6 1_555 1_555
O8_6 C28_5 1_555 1_555
O9_4 Mn1_4 1_555 1_555
O10_4 Mn3_3 1_555 1_555
N7_4 Mn3_3 1_555 1_555
N8_4 Mn1_4 1_555 1_555
C28_5 C29_5 1_555 1_555
C29_5 H28_5 1_555 1_555
C30_5 C29_5 1_555 1_555
H29_5 C30_5 1_555 1_555
C31_4 C30_5 1_555 1_555
H30_4 C31_4 1_555 1_555
C32_4 C31_4 1_555 1_555
H31_4 C32_4 1_555 1_555
C33_4 C28_5 1_555 1_555
C34_4 O9_4 1_555 1_555
C35_4 O10_4 1_555 1_555
C36_4 C35_4 1_555 1_555
H32_4 C36_4 1_555 1_555
H33_4 C36_4 1_555 1_555
H34_4 C36_4 1_555 1_555
O11_3 Mn3_3 1_555 1_555
N10_3 Mn3_3 1_555 1_555
Mn5_2 O6_4 1_555 1_555
N11_3 Mn3_3 1_555 1_555
N2_4 C8_4 1_555 1_555
N5_4 C20_5 1_555 1_555
N5_4 Mn5_2 1_555 1_555
C17_6 C18_6 1_555 1_555
C18_6 C19_6 1_555 1_555
N7_4 N8_4 1_555 1_555
N7_4 C34_4 1_555 1_555
N8_4 C35_4 1_555 1_555
C32_4 C33_4 1_555 1_555
C33_4 C34_4 1_555 1_555
Mn1_5 O1_5 1_555 1_555
O1_5 C1_3 1_555 1_555
O2_3 C7_3 1_555 1_555
O3_5 Mn1_5 1_555 1_555
O4_5 Mn1_5 1_555 1_555
N1_5 Mn1_5 1_555 1_555
N2_5 N1_5 1_555 1_555
N3_3 C10_5 1_555 1_555
C1_3 C2_3 1_555 1_555
C2_3 H1_3 1_555 1_555
C3_3 C2_3 1_555 1_555
H2_3 C3_3 1_555 1_555
C4_3 C3_3 1_555 1_555
H3_3 C4_3 1_555 1_555
C5_3 C4_3 1_555 1_555
H4_3 C5_3 1_555 1_555
C6_3 C1_3 1_555 1_555
C7_3 N1_5 1_555 1_555
C8_5 O3_5 1_555 1_555
C10_5 O4_5 1_555 1_555
H8_5 C10_5 1_555 1_555
C11_3 N3_3 1_555 1_555
H9_3 C11_3 1_555 1_555
H10_3 C11_3 1_555 1_555
H11_3 C11_3 1_555 1_555
C12_5 N3_3 1_555 1_555
H12_5 C12_5 1_555 1_555
H13_3 C12_5 1_555 1_555
H14_5 C12_5 1_555 1_555
O9_5 Mn1_5 1_555 1_555
N8_5 Mn1_5 1_555 1_555
H30_5 C31_5 1_555 1_555
C32_5 C31_5 1_555 1_555
H31_5 C32_5 1_555 1_555
C34_5 O9_5 1_555 1_555
C35_5 O10_5 1_555 1_555
C36_5 C35_5 1_555 1_555
H32_5 C36_5 1_555 1_555
H33_5 C36_5 1_555 1_555
H34_5 C36_5 1_555 1_555
N2_5 C8_5 1_555 1_555
C5_3 C6_3 1_555 1_555
C6_3 C7_3 1_555 1_555
N7_5 N8_5 1_555 1_555
N7_5 C34_5 1_555 1_555
N8_5 C35_5 1_555 1_555
C32_5 C33_5 1_555 1_555
C33_5 C34_5 1_555 1_555
N11_3 C37_5 1_555 1_555
C37_5 H35_7 1_555 1_555
C38_5 C37_5 1_555 1_555
H36_5 C38_5 1_555 1_555
C39_5 C38_5 1_555 1_555
C40_5 C39_5 1_555 1_555
H37_5 C40_5 1_555 1_555
C41_5 N11_3 1_555 1_555
H38_5 C41_5 1_555 1_555
H39_5 C42_5 1_555 1_555
H40_5 C42_5 1_555 1_555
C39_5 C42_5 1_555 1_555
C40_5 C41_5 1_555 1_555
Mn1_6 O1_6 1_555 1_555
O1_6 C1_4 1_555 1_555
O2_4 C7_4 1_555 1_555
O3_6 Mn1_6 1_555 1_555
O4_6 Mn1_6 1_555 1_555
N1_6 Mn1_6 1_555 1_555
N2_6 N1_6 1_555 1_555
N3_4 C10_6 1_555 1_555
C1_4 C2_4 1_555 1_555
C2_4 H1_4 1_555 1_555
C3_4 C2_4 1_555 1_555
H2_4 C3_4 1_555 1_555
C4_4 C3_4 1_555 1_555
H3_4 C4_4 1_555 1_555
C5_4 C4_4 1_555 1_555
H4_4 C5_4 1_555 1_555
C6_4 C1_4 1_555 1_555
C7_4 N1_6 1_555 1_555
C8_6 O3_6 1_555 1_555
C9_7 C8_6 1_555 1_555
H5_7 C9_7 1_555 1_555
H6_7 C9_7 1_555 1_555
H7_7 C9_7 1_555 1_555
C10_6 O4_6 1_555 1_555
H8_6 C10_6 1_555 1_555
C11_4 N3_4 1_555 1_555
H9_4 C11_4 1_555 1_555
H10_4 C11_4 1_555 1_555
H11_4 C11_4 1_555 1_555
C12_6 N3_4 1_555 1_555
H12_6 C12_6 1_555 1_555
H13_4 C12_6 1_555 1_555
H14_6 C12_6 1_555 1_555
Mn2_5 O2_4 1_555 1_555
O5_5 Mn2_5 1_555 1_555
O11_3 C19_7 1_555 1_555
O7_6 Mn2_5 1_555 1_555
N4_7 Mn2_5 1_555 1_555
N10_3 N4_7 1_555 1_555
N6_5 Mn2_5 1_555 1_555
C13_5 O5_5 1_555 1_555
C14_5 C13_5 1_555 1_555
H15_5 C14_5 1_555 1_555
C15_5 C14_5 1_555 1_555
H16_5 C15_5 1_555 1_555
C16_5 C15_5 1_555 1_555
H17_7 C16_5 1_555 1_555
C17_7 C16_5 1_555 1_555
H18_7 C17_7 1_555 1_555
C18_7 C13_5 1_555 1_555
C19_7 N4_7 1_555 1_555
C20_6 O7_6 1_555 1_555
C21_6 C20_6 1_555 1_555
H19_6 C21_6 1_555 1_555
H20_6 C21_6 1_555 1_555
H21_6 C21_6 1_555 1_555
C22_4 N6_5 1_555 1_555
H22_4 C22_4 1_555 1_555
C23_4 C22_4 1_555 1_555
H23_4 C23_4 1_555 1_555
C24_4 C23_4 1_555 1_555
C25_4 C24_4 1_555 1_555
H24_5 C25_4 1_555 1_555
C26_5 N6_5 1_555 1_555
H25_5 C26_5 1_555 1_555
C27_4 C24_4 1_555 1_555
H26_4 C27_4 1_555 1_555
H27_4 C27_4 1_555 1_555
Mn5_2 O8_7 1_555 1_555
O8_7 C28_6 1_555 1_555
O9_6 Mn1_6 1_555 1_555
O10_6 Mn5_2 1_555 1_555
N7_6 Mn5_2 1_555 1_555
N8_6 Mn1_6 1_555 1_555
N11_4 C37_6 1_555 1_555
C28_6 C29_6 1_555 1_555
C29_6 H28_6 1_555 1_555
C30_6 C29_6 1_555 1_555
H29_6 C30_6 1_555 1_555
C31_6 C30_6 1_555 1_555
H30_6 C31_6 1_555 1_555
C32_6 C31_6 1_555 1_555
H31_6 C32_6 1_555 1_555
C33_6 C28_6 1_555 1_555
C34_6 O9_6 1_555 1_555
C35_6 O10_6 1_555 1_555
C36_6 C35_6 1_555 1_555
H32_6 C36_6 1_555 1_555
H33_6 C36_6 1_555 1_555
H34_6 C36_6 1_555 1_555
C38_6 C37_6 1_555 1_555
H36_6 C38_6 1_555 1_555
C39_6 C38_6 1_555 1_555
C40_6 C39_6 1_555 1_555
H37_6 C40_6 1_555 1_555
C41_6 N11_4 1_555 1_555
H38_6 C41_6 1_555 1_555
C42_6 C27_4 1_555 1_555
H39_6 C42_6 1_555 1_555
H40_6 C42_6 1_555 1_555
N2_6 C8_6 1_555 1_555
N2_6 Mn2_5 1_555 1_555
C5_4 C6_4 1_555 1_555
C6_4 C7_4 1_555 1_555
N10_3 C20_6 1_555 1_555
C17_7 C18_7 1_555 1_555
C18_7 C19_7 1_555 1_555
C25_4 C26_5 1_555 1_555
N7_6 N8_6 1_555 1_555
N7_6 C34_6 1_555 1_555
N8_6 C35_6 1_555 1_555
C32_6 C33_6 1_555 1_555
C33_6 C34_6 1_555 1_555
C39_6 C42_6 1_555 1_555
C40_6 C41_6 1_555 1_555
Mn1_7 O1_7 1_555 1_555
O1_7 C1_5 1_555 1_555
O2_5 C7_5 1_555 1_555
O3_7 Mn1_7 1_555 1_555
O4_7 Mn1_7 1_555 1_555
N1_7 Mn1_7 1_555 1_555
N2_7 N1_7 1_555 1_555
N3_5 C10_7 1_555 1_555
C1_5 C2_5 1_555 1_555
C2_5 H1_5 1_555 1_555
C3_5 C2_5 1_555 1_555
H2_5 C3_5 1_555 1_555
C4_5 C3_5 1_555 1_555
H3_5 C4_5 1_555 1_555
C5_5 C4_5 1_555 1_555
H4_5 C5_5 1_555 1_555
C6_5 C1_5 1_555 1_555
C7_5 N1_7 1_555 1_555
C8_7 O3_7 1_555 1_555
C9_8 C8_7 1_555 1_555
H5_8 C9_8 1_555 1_555
H6_8 C9_8 1_555 1_555
H7_8 C9_8 1_555 1_555
C10_7 O4_7 1_555 1_555
H8_7 C10_7 1_555 1_555
C11_5 N3_5 1_555 1_555
H9_5 C11_5 1_555 1_555
H10_5 C11_5 1_555 1_555
H11_5 C11_5 1_555 1_555
C12_7 N3_5 1_555 1_555
H12_7 C12_7 1_555 1_555
H13_5 C12_7 1_555 1_555
H14_7 C12_7 1_555 1_555
Mn2_6 O2_5 1_555 1_555
O5_6 Mn2_6 1_555 1_555
O6_5 C19_8 1_555 1_555
O7_7 Mn2_6 1_555 1_555
N4_8 Mn2_6 1_555 1_555
N5_5 N4_8 1_555 1_555
N6_6 Mn2_6 1_555 1_555
C13_6 O5_6 1_555 1_555
C14_6 C13_6 1_555 1_555
H15_6 C14_6 1_555 1_555
C15_6 C14_6 1_555 1_555
H16_6 C15_6 1_555 1_555
C16_6 C15_6 1_555 1_555
H17_8 C16_6 1_555 1_555
C17_8 C16_6 1_555 1_555
H18_8 C17_8 1_555 1_555
C18_8 C13_6 1_555 1_555
C19_8 N4_8 1_555 1_555
C20_7 O7_7 1_555 1_555
C21_7 C20_7 1_555 1_555
H19_7 C21_7 1_555 1_555
H20_7 C21_7 1_555 1_555
H21_7 C21_7 1_555 1_555
C22_5 N6_6 1_555 1_555
H22_5 C22_5 1_555 1_555
C23_5 C22_5 1_555 1_555
H23_5 C23_5 1_555 1_555
C24_5 C23_5 1_555 1_555
C25_5 C24_5 1_555 1_555
H24_6 C25_5 1_555 1_555
C26_6 N6_6 1_555 1_555
H25_6 C26_6 1_555 1_555
C27_5 C24_5 1_555 1_555
H26_5 C27_5 1_555 1_555
H27_5 C27_5 1_555 1_555
Mn3_4 O8_8 1_555 1_555
O8_8 C28_7 1_555 1_555
O9_7 Mn1_7 1_555 1_555
O10_7 Mn3_4 1_555 1_555
N7_7 Mn3_4 1_555 1_555
N8_7 Mn1_7 1_555 1_555
N9_3 C37_7 1_555 1_555
C28_7 C29_7 1_555 1_555
C29_7 H28_7 1_555 1_555
C30_7 C29_7 1_555 1_555
H29_7 C30_7 1_555 1_555
C31_7 C30_7 1_555 1_555
H30_7 C31_7 1_555 1_555
C32_7 C31_7 1_555 1_555
H31_7 C32_7 1_555 1_555
C33_7 C28_7 1_555 1_555
C34_7 O9_7 1_555 1_555
C35_7 O10_7 1_555 1_555
C36_7 C35_7 1_555 1_555
H32_7 C36_7 1_555 1_555
H33_7 C36_7 1_555 1_555
H34_7 C36_7 1_555 1_555
C38_7 C37_7 1_555 1_555
H36_7 C38_7 1_555 1_555
C39_7 C38_7 1_555 1_555
C40_7 C39_7 1_555 1_555
H37_7 C40_7 1_555 1_555
C41_7 N9_3 1_555 1_555
H38_7 C41_7 1_555 1_555
C42_7 C27_5 1_555 1_555
H39_7 C42_7 1_555 1_555
H40_7 C42_7 1_555 1_555
O11_4 Mn3_4 1_555 1_555
N10_4 Mn3_4 1_555 1_555
Mn4_3 O6_5 1_555 1_555
N11_5 Mn3_4 1_555 1_555
N2_7 C8_7 1_555 1_555
N2_7 Mn2_6 1_555 1_555
C5_5 C6_5 1_555 1_555
C6_5 C7_5 1_555 1_555
N5_5 C20_7 1_555 1_555
N5_5 Mn4_3 1_555 1_555
C17_8 C18_8 1_555 1_555
C18_8 C19_8 1_555 1_555
C25_5 C26_6 1_555 1_555
N7_7 N8_7 1_555 1_555
N7_7 C34_7 1_555 1_555
N8_7 C35_7 1_555 1_555
C32_7 C33_7 1_555 1_555
C33_7 C34_7 1_555 1_555
C39_7 C42_7 1_555 1_555
C40_7 C41_7 1_555 1_555
N9_4 C37_8 1_555 1_555
C37_8 H35_8 1_555 1_555
C38_8 C37_8 1_555 1_555
H36_8 C38_8 1_555 1_555
C39_8 C38_8 1_555 1_555
C40_8 C39_8 1_555 1_555
H37_8 C40_8 1_555 1_555
C41_8 N9_4 1_555 1_555
H38_8 C41_8 1_555 1_555
H39_8 C42_8 1_555 1_555
H40_8 C42_8 1_555 1_555
Mn4_3 N9_4 1_555 1_555
C39_8 C42_8 1_555 1_555
C40_8 C41_8 1_555 1_555
Mn3_5 O8_9 1_555 1_555
O8_9 C28_8 1_555 1_555
C28_8 C29_8 1_555 1_555
C29_8 H28_8 1_555 1_555
C30_8 C29_8 1_555 1_555
H29_8 C30_8 1_555 1_555
O11_5 Mn3_5 1_555 1_555
N10_5 Mn3_5 1_555 1_555
C1_6 C2_6 1_555 1_555
C2_6 H1_6 1_555 1_555
C3_6 C2_6 1_555 1_555
H2_6 C3_6 1_555 1_555
C4_6 C3_6 1_555 1_555
H3_6 C4_6 1_555 1_555
C5_6 C4_6 1_555 1_555
H4_6 C5_6 1_555 1_555
C35_8 O10_8 1_555 1_555
C36_8 C35_8 1_555 1_555
H32_8 C36_8 1_555 1_555
H33_8 C36_8 1_555 1_555
H34_8 C36_8 1_555 1_555
Mn1_8 O1_8 1_555 1_555
O3_8 Mn1_8 1_555 1_555
O4_8 Mn1_8 1_555 1_555
N1_8 Mn1_8 1_555 1_555
N2_8 N1_8 1_555 1_555
C8_8 O3_8 1_555 1_555
C9_9 C8_8 1_555 1_555
H5_9 C9_9 1_555 1_555
H6_9 C9_9 1_555 1_555
H7_9 C9_9 1_555 1_555
C10_8 O4_8 1_555 1_555
H8_8 C10_8 1_555 1_555
H12_8 C12_8 1_555 1_555
H14_8 C12_8 1_555 1_555
O11_4 C19_9 1_555 1_555
N10_4 N4_9 1_555 1_555
H18_9 C17_9 1_555 1_555
C19_9 N4_9 1_555 1_555
C20_8 O7_8 1_555 1_555
C21_8 C20_8 1_555 1_555
H19_8 C21_8 1_555 1_555
H20_8 C21_8 1_555 1_555
H21_8 C21_8 1_555 1_555
Mn4_3 O8_10 1_555 1_555
O8_10 C28_9 1_555 1_555
O9_8 Mn1_8 1_555 1_555
O10_9 Mn4_3 1_555 1_555
N7_8 Mn4_3 1_555 1_555
N8_8 Mn1_8 1_555 1_555
C28_9 C29_9 1_555 1_555
C29_9 H28_9 1_555 1_555
C30_9 C29_9 1_555 1_555
H29_9 C30_9 1_555 1_555
C31_8 C30_9 1_555 1_555
H30_8 C31_8 1_555 1_555
C32_8 C31_8 1_555 1_555
H31_8 C32_8 1_555 1_555
C33_8 C28_9 1_555 1_555
C34_8 O9_8 1_555 1_555
C35_9 O10_9 1_555 1_555
C36_9 C35_9 1_555 1_555
H32_9 C36_9 1_555 1_555
H33_9 C36_9 1_555 1_555
H34_9 C36_9 1_555 1_555
N2_8 C8_8 1_555 1_555
N10_4 C20_8 1_555 1_555
C17_9 C18_9 1_555 1_555
C18_9 C19_9 1_555 1_555
N7_8 N8_8 1_555 1_555
N7_8 C34_8 1_555 1_555
N8_8 C35_9 1_555 1_555
C32_8 C33_8 1_555 1_555
C33_8 C34_8 1_555 1_555
H5_10 C9_10 1_555 1_555
H6_10 C9_10 1_555 1_555
H7_10 C9_10 1_555 1_555
O5_7 Mn2_7 1_555 1_555
O11_5 C19_10 1_555 1_555
O7_9 Mn2_7 1_555 1_555
N4_10 Mn2_7 1_555 1_555
N10_5 N4_10 1_555 1_555
N6_7 Mn2_7 1_555 1_555
C13_7 O5_7 1_555 1_555
C14_7 C13_7 1_555 1_555
H15_7 C14_7 1_555 1_555
C15_7 C14_7 1_555 1_555
H16_7 C15_7 1_555 1_555
C16_7 C15_7 1_555 1_555
H17_10 C16_7 1_555 1_555
C17_10 C16_7 1_555 1_555
H18_10 C17_10 1_555 1_555
C18_10 C13_7 1_555 1_555
C19_10 N4_10 1_555 1_555
C20_9 O7_9 1_555 1_555
C21_9 C20_9 1_555 1_555
H19_9 C21_9 1_555 1_555
H20_9 C21_9 1_555 1_555
H21_9 C21_9 1_555 1_555
C22_6 N6_7 1_555 1_555
H22_6 C22_6 1_555 1_555
C23_6 C22_6 1_555 1_555
H23_6 C23_6 1_555 1_555
C24_6 C23_6 1_555 1_555
C25_6 C24_6 1_555 1_555
H24_7 C25_6 1_555 1_555
C26_7 N6_7 1_555 1_555
H25_7 C26_7 1_555 1_555
C27_6 C24_6 1_555 1_555
H26_6 C27_6 1_555 1_555
H27_6 C27_6 1_555 1_555
N11_5 C37_9 1_555 1_555
C37_9 H35_10 1_555 1_555
C38_9 C37_9 1_555 1_555
H36_9 C38_9 1_555 1_555
C39_9 C38_9 1_555 1_555
C40_9 C39_9 1_555 1_555
H37_9 C40_9 1_555 1_555
C41_9 N11_5 1_555 1_555
H38_9 C41_9 1_555 1_555
C42_9 C27_6 1_555 1_555
H39_9 C42_9 1_555 1_555
H40_9 C42_9 1_555 1_555
N10_5 C20_9 1_555 1_555
C17_10 C18_10 1_555 1_555
C18_10 C19_10 1_555 1_555
C25_6 C26_7 1_555 1_555
C39_9 C42_9 1_555 1_555
C40_9 C41_9 1_555 1_555
N9_5 C37_10 1_555 1_555
C37_10 H35_11 1_555 1_555
C38_10 C37_10 1_555 1_555
H36_10 C38_10 1_555 1_555
C39_10 C38_10 1_555 1_555
C40_10 C39_10 1_555 1_555
H37_10 C40_10 1_555 1_555
C41_10 N9_5 1_555 1_555
H38_10 C41_10 1_555 1_555
H39_10 C42_10 1_555 1_555
H40_10 C42_10 1_555 1_555
Mn5_3 N9_5 1_555 1_555
C39_10 C42_10 1_555 1_555
C40_10 C41_10 1_555 1_555
Mn1_9 O1_9 1_555 1_555
O1_9 C1_7 1_555 1_555
O2_6 C7_6 1_555 1_555
O3_9 Mn1_9 1_555 1_555
O4_9 Mn1_9 1_555 1_555
N1_9 Mn1_9 1_555 1_555
N2_9 N1_9 1_555 1_555
N3_6 C10_9 1_555 1_555
C1_7 C2_7 1_555 1_555
C2_7 H1_7 1_555 1_555
C3_7 C2_7 1_555 1_555
H2_7 C3_7 1_555 1_555
C4_7 C3_7 1_555 1_555
H3_7 C4_7 1_555 1_555
C5_7 C4_7 1_555 1_555
H4_7 C5_7 1_555 1_555
C6_6 C1_7 1_555 1_555
C7_6 N1_9 1_555 1_555
C8_9 O3_9 1_555 1_555
C9_11 C8_9 1_555 1_555
H5_11 C9_11 1_555 1_555
H6_11 C9_11 1_555 1_555
H7_11 C9_11 1_555 1_555
C10_9 O4_9 1_555 1_555
H8_9 C10_9 1_555 1_555
C11_6 N3_6 1_555 1_555
H9_6 C11_6 1_555 1_555
H10_6 C11_6 1_555 1_555
H11_6 C11_6 1_555 1_555
C12_9 N3_6 1_555 1_555
H12_9 C12_9 1_555 1_555
H13_6 C12_9 1_555 1_555
H14_9 C12_9 1_555 1_555
Mn2_8 O2_6 1_555 1_555
O5_8 Mn2_8 1_555 1_555
O6_6 C19_11 1_555 1_555
O7_10 Mn2_8 1_555 1_555
N4_11 Mn2_8 1_555 1_555
N5_6 N4_11 1_555 1_555
N6_8 Mn2_8 1_555 1_555
C13_8 O5_8 1_555 1_555
C14_8 C13_8 1_555 1_555
H15_8 C14_8 1_555 1_555
C15_8 C14_8 1_555 1_555
H16_8 C15_8 1_555 1_555
C16_8 C15_8 1_555 1_555
H17_11 C16_8 1_555 1_555
C17_11 C16_8 1_555 1_555
H18_11 C17_11 1_555 1_555
C18_11 C13_8 1_555 1_555
C19_11 N4_11 1_555 1_555
C20_10 O7_10 1_555 1_555
C21_10 C20_10 1_555 1_555
H19_10 C21_10 1_555 1_555
H20_10 C21_10 1_555 1_555
H21_10 C21_10 1_555 1_555
C22_7 N6_8 1_555 1_555
H22_7 C22_7 1_555 1_555
C23_7 C22_7 1_555 1_555
H23_7 C23_7 1_555 1_555
C24_7 C23_7 1_555 1_555
C25_7 C24_7 1_555 1_555
H24_8 C25_7 1_555 1_555
C26_8 N6_8 1_555 1_555
H25_8 C26_8 1_555 1_555
C27_7 C24_7 1_555 1_555
H26_7 C27_7 1_555 1_555
H27_7 C27_7 1_555 1_555
Mn3_6 O8_11 1_555 1_555
O8_11 C28_10 1_555 1_555
O9_9 Mn1_9 1_555 1_555
O10_10 Mn3_6 1_555 1_555
N7_9 Mn3_6 1_555 1_555
N8_9 Mn1_9 1_555 1_555
N9_6 C37_11 1_555 1_555
C28_10 C29_10 1_555 1_555
C29_10 H28_10 1_555 1_555
C30_10 C29_10 1_555 1_555
H29_10 C30_10 1_555 1_555
C31_9 C30_10 1_555 1_555
H30_9 C31_9 1_555 1_555
C32_9 C31_9 1_555 1_555
H31_9 C32_9 1_555 1_555
C33_9 C28_10 1_555 1_555
C34_9 O9_9 1_555 1_555
C35_10 O10_10 1_555 1_555
C36_10 C35_10 1_555 1_555
H32_10 C36_10 1_555 1_555
H33_10 C36_10 1_555 1_555
H34_10 C36_10 1_555 1_555
C38_11 C37_11 1_555 1_555
H36_11 C38_11 1_555 1_555
C39_11 C38_11 1_555 1_555
C40_11 C39_11 1_555 1_555
H37_11 C40_11 1_555 1_555
C41_11 N9_6 1_555 1_555
H38_11 C41_11 1_555 1_555
C42_11 C27_7 1_555 1_555
H39_11 C42_11 1_555 1_555
H40_11 C42_11 1_555 1_555
O11_6 Mn3_6 1_555 1_555
N10_6 Mn3_6 1_555 1_555
Mn5_3 O6_6 1_555 1_555
N11_6 Mn3_6 1_555 1_555
N2_9 C8_9 1_555 1_555
N2_9 Mn2_8 1_555 1_555
C5_7 C6_6 1_555 1_555
C6_6 C7_6 1_555 1_555
N5_6 C20_10 1_555 1_555
N5_6 Mn5_3 1_555 1_555
C17_11 C18_11 1_555 1_555
C18_11 C19_11 1_555 1_555
C25_7 C26_8 1_555 1_555
N7_9 N8_9 1_555 1_555
N7_9 C34_9 1_555 1_555
N8_9 C35_10 1_555 1_555
C32_9 C33_9 1_555 1_555
C33_9 C34_9 1_555 1_555
C39_11 C42_11 1_555 1_555
C40_11 C41_11 1_555 1_555
C20_11 O7_11 1_555 1_555
C21_11 C20_11 1_555 1_555
H19_11 C21_11 1_555 1_555
H20_11 C21_11 1_555 1_555
H21_11 C21_11 1_555 1_555
H22_8 C22_8 1_555 1_555
C23_8 C22_8 1_555 1_555
H23_8 C23_8 1_555 1_555
C24_8 C23_8 1_555 1_555
C25_8 C24_8 1_555 1_555
C27_8 C24_8 1_555 1_555
H26_8 C27_8 1_555 1_555
H27_8 C27_8 1_555 1_555
N11_6 C37_12 1_555 1_555
C37_12 H35_12 1_555 1_555
C38_12 C37_12 1_555 1_555
H36_12 C38_12 1_555 1_555
C39_12 C38_12 1_555 1_555
C40_12 C39_12 1_555 1_555
H37_12 C40_12 1_555 1_555
C41_12 N11_6 1_555 1_555
H38_12 C41_12 1_555 1_555
C42_12 C27_8 1_555 1_555
H39_12 C42_12 1_555 1_555
H40_12 C42_12 1_555 1_555
C39_12 C42_12 1_555 1_555
C40_12 C41_12 1_555 1_555
Mn1_10 O1_10 1_555 1_555
O3_10 Mn1_10 1_555 1_555
O4_10 Mn1_10 1_555 1_555
N1_10 Mn1_10 1_555 1_555
N2_10 N1_10 1_555 1_555
C8_10 O3_10 1_555 1_555
C9_12 C8_10 1_555 1_555
H5_12 C9_12 1_555 1_555
H6_12 C9_12 1_555 1_555
H7_12 C9_12 1_555 1_555
C10_10 O4_10 1_555 1_555
H8_10 C10_10 1_555 1_555
H12_10 C12_10 1_555 1_555
H14_10 C12_10 1_555 1_555
O11_6 C19_12 1_555 1_555
N10_6 N4_12 1_555 1_555
H18_12 C17_12 1_555 1_555
C19_12 N4_12 1_555 1_555
C20_12 O7_12 1_555 1_555
C21_12 C20_12 1_555 1_555
H19_12 C21_12 1_555 1_555
H20_12 C21_12 1_555 1_555
H21_12 C21_12 1_555 1_555
Mn5_3 O8_12 1_555 1_555
O8_12 C28_11 1_555 1_555
O9_10 Mn1_10 1_555 1_555
O10_11 Mn5_3 1_555 1_555
N7_10 Mn5_3 1_555 1_555
N8_10 Mn1_10 1_555 1_555
C28_11 C29_11 1_555 1_555
C29_11 H28_11 1_555 1_555
C30_11 C29_11 1_555 1_555
H29_11 C30_11 1_555 1_555
C31_10 C30_11 1_555 1_555
H30_10 C31_10 1_555 1_555
C32_10 C31_10 1_555 1_555
H31_10 C32_10 1_555 1_555
C33_10 C28_11 1_555 1_555
C34_10 O9_10 1_555 1_555
C35_11 O10_11 1_555 1_555
C36_11 C35_11 1_555 1_555
H32_11 C36_11 1_555 1_555
H33_11 C36_11 1_555 1_555
H34_11 C36_11 1_555 1_555
N2_10 C8_10 1_555 1_555
N10_6 C20_12 1_555 1_555
C17_12 C18_12 1_555 1_555
C18_12 C19_12 1_555 1_555
N7_10 N8_10 1_555 1_555
N7_10 C34_10 1_555 1_555
N8_10 C35_11 1_555 1_555
C32_10 C33_10 1_555 1_555
C33_10 C34_10 1_555 1_555
Mn1_11 O1_11 1_555 1_555
O1_11 C1_8 1_555 1_555
O2_7 C7_7 1_555 1_555
O3_11 Mn1_11 1_555 1_555
O4_11 Mn1_11 1_555 1_555
N1_11 Mn1_11 1_555 1_555
N2_11 N1_11 1_555 1_555
N3_7 C10_11 1_555 1_555
C1_8 C2_8 1_555 1_555
C2_8 H1_8 1_555 1_555
C3_8 C2_8 1_555 1_555
H2_8 C3_8 1_555 1_555
C4_8 C3_8 1_555 1_555
H3_8 C4_8 1_555 1_555
C5_8 C4_8 1_555 1_555
H4_8 C5_8 1_555 1_555
C6_7 C1_8 1_555 1_555
C7_7 N1_11 1_555 1_555
C8_11 O3_11 1_555 1_555
C10_11 O4_11 1_555 1_555
H8_11 C10_11 1_555 1_555
C11_7 N3_7 1_555 1_555
H9_7 C11_7 1_555 1_555
H10_7 C11_7 1_555 1_555
H11_7 C11_7 1_555 1_555
C12_11 N3_7 1_555 1_555
H12_11 C12_11 1_555 1_555
H13_7 C12_11 1_555 1_555
H14_11 C12_11 1_555 1_555
O9_11 Mn1_11 1_555 1_555
N8_11 Mn1_11 1_555 1_555
H30_11 C31_11 1_555 1_555
C32_11 C31_11 1_555 1_555
H31_11 C32_11 1_555 1_555
C34_11 O9_11 1_555 1_555
C35_12 O10_12 1_555 1_555
C36_12 C35_12 1_555 1_555
H32_12 C36_12 1_555 1_555
H33_12 C36_12 1_555 1_555
H34_12 C36_12 1_555 1_555
N2_11 C8_11 1_555 1_555
C5_8 C6_7 1_555 1_555
C6_7 C7_7 1_555 1_555
N7_11 N8_11 1_555 1_555
N7_11 C34_11 1_555 1_555
N8_11 C35_12 1_555 1_555
C32_11 C33_11 1_555 1_555
C33_11 C34_11 1_555 1_555
Mn1_12 O1_12 1_555 1_555
O1_12 C1_9 1_555 1_555
O2_8 C7_8 1_555 1_555
O3_12 Mn1_12 1_555 1_555
O4_12 Mn1_12 1_555 1_555
N1_12 Mn1_12 1_555 1_555
N2_12 N1_12 1_555 1_555
N3_8 C10_12 1_555 1_555
C1_9 C2_9 1_555 1_555
C2_9 H1_9 1_555 1_555
C3_9 C2_9 1_555 1_555
H2_9 C3_9 1_555 1_555
C4_9 C3_9 1_555 1_555
H3_9 C4_9 1_555 1_555
C5_9 C4_9 1_555 1_555
H4_9 C5_9 1_555 1_555
C6_8 C1_9 1_555 1_555
C7_8 N1_12 1_555 1_555
C8_12 O3_12 1_555 1_555
C9_13 C8_12 1_555 1_555
H5_13 C9_13 1_555 1_555
H6_13 C9_13 1_555 1_555
H7_13 C9_13 1_555 1_555
C10_12 O4_12 1_555 1_555
H8_12 C10_12 1_555 1_555
C11_8 N3_8 1_555 1_555
H9_8 C11_8 1_555 1_555
H10_8 C11_8 1_555 1_555
H11_8 C11_8 1_555 1_555
C12_12 N3_8 1_555 1_555
H12_12 C12_12 1_555 1_555
H13_8 C12_12 1_555 1_555
H14_12 C12_12 1_555 1_555
Mn2_9 O2_8 1_555 1_555
O5_9 Mn2_9 1_555 1_555
O6_7 C19_13 1_555 1_555
O7_13 Mn2_9 1_555 1_555
N4_13 Mn2_9 1_555 1_555
N5_7 N4_13 1_555 1_555
N6_9 Mn2_9 1_555 1_555
C13_9 O5_9 1_555 1_555
C14_9 C13_9 1_555 1_555
H15_9 C14_9 1_555 1_555
C15_9 C14_9 1_555 1_555
H16_9 C15_9 1_555 1_555
C16_9 C15_9 1_555 1_555
H17_13 C16_9 1_555 1_555
C17_13 C16_9 1_555 1_555
H18_13 C17_13 1_555 1_555
C18_13 C13_9 1_555 1_555
C19_13 N4_13 1_555 1_555
C20_13 O7_13 1_555 1_555
C21_13 C20_13 1_555 1_555
H19_13 C21_13 1_555 1_555
H20_13 C21_13 1_555 1_555
H21_13 C21_13 1_555 1_555
C22_9 N6_9 1_555 1_555
H22_9 C22_9 1_555 1_555
C23_9 C22_9 1_555 1_555
H23_9 C23_9 1_555 1_555
C24_9 C23_9 1_555 1_555
C25_9 C24_9 1_555 1_555
H24_9 C25_9 1_555 1_555
C26_9 N6_9 1_555 1_555
H25_9 C26_9 1_555 1_555
C27_9 C24_9 1_555 1_555
H26_9 C27_9 1_555 1_555
H27_9 C27_9 1_555 1_555
Mn3_7 O8_13 1_555 1_555
O8_13 C28_12 1_555 1_555
O9_12 Mn1_12 1_555 1_555
O10_13 Mn3_7 1_555 1_555
N7_12 Mn3_7 1_555 1_555
N8_12 Mn1_12 1_555 1_555
C28_12 C29_12 1_555 1_555
C29_12 H28_12 1_555 1_555
C30_12 C29_12 1_555 1_555
H29_12 C30_12 1_555 1_555
C31_12 C30_12 1_555 1_555
H30_12 C31_12 1_555 1_555
C32_12 C31_12 1_555 1_555
H31_12 C32_12 1_555 1_555
C33_12 C28_12 1_555 1_555
C34_12 O9_12 1_555 1_555
C35_13 O10_13 1_555 1_555
C36_13 C35_13 1_555 1_555
H32_13 C36_13 1_555 1_555
H33_13 C36_13 1_555 1_555
H34_13 C36_13 1_555 1_555
O11_7 Mn3_7 1_555 1_555
N10_7 Mn3_7 1_555 1_555
Mn4_4 O6_7 1_555 1_555
N11_7 Mn3_7 1_555 1_555
N2_12 C8_12 1_555 1_555
N2_12 Mn2_9 1_555 1_555
C5_9 C6_8 1_555 1_555
C6_8 C7_8 1_555 1_555
N5_7 C20_13 1_555 1_555
N5_7 Mn4_4 1_555 1_555
C17_13 C18_13 1_555 1_555
C18_13 C19_13 1_555 1_555
C25_9 C26_9 1_555 1_555
N7_12 N8_12 1_555 1_555
N7_12 C34_12 1_555 1_555
N8_12 C35_13 1_555 1_555
C32_12 C33_12 1_555 1_555
C33_12 C34_12 1_555 1_555
O2_9 C7_9 1_555 1_555
C1_10 C2_10 1_555 1_555
C2_10 H1_10 1_555 1_555
C3_10 C2_10 1_555 1_555
H2_10 C3_10 1_555 1_555
C4_10 C3_10 1_555 1_555
H3_10 C4_10 1_555 1_555
C5_10 C4_10 1_555 1_555
H4_10 C5_10 1_555 1_555
C6_9 C1_10 1_555 1_555
C11_9 N3_9 1_555 1_555
H9_9 C11_9 1_555 1_555
H10_9 C11_9 1_555 1_555
H11_9 C11_9 1_555 1_555
Mn2_10 O2_9 1_555 1_555
O5_10 Mn2_10 1_555 1_555
N6_10 Mn2_10 1_555 1_555
C13_10 O5_10 1_555 1_555
C14_10 C13_10 1_555 1_555
H15_10 C14_10 1_555 1_555
C15_10 C14_10 1_555 1_555
H16_10 C15_10 1_555 1_555
C16_10 C15_10 1_555 1_555
C22_10 N6_10 1_555 1_555
H22_10 C22_10 1_555 1_555
C23_10 C22_10 1_555 1_555
H23_10 C23_10 1_555 1_555
C24_10 C23_10 1_555 1_555
C25_10 C24_10 1_555 1_555
H24_10 C25_10 1_555 1_555
C26_10 N6_10 1_555 1_555
H25_10 C26_10 1_555 1_555
C27_10 C24_10 1_555 1_555
H26_10 C27_10 1_555 1_555
H27_10 C27_10 1_555 1_555
N9_7 C37_13 1_555 1_555
C37_13 H35_13 1_555 1_555
C38_13 C37_13 1_555 1_555
H36_13 C38_13 1_555 1_555
C39_13 C38_13 1_555 1_555
C40_13 C39_13 1_555 1_555
H37_13 C40_13 1_555 1_555
C41_13 N9_7 1_555 1_555
H38_13 C41_13 1_555 1_555
C42_13 C27_10 1_555 1_555
H39_13 C42_13 1_555 1_555
H40_13 C42_13 1_555 1_555
Mn4_4 N9_7 1_555 1_555
C5_10 C6_9 1_555 1_555
C6_9 C7_9 1_555 1_555
C25_10 C26_10 1_555 1_555
C39_13 C42_13 1_555 1_555
C40_13 C41_13 1_555 1_555
Mn1_13 O1_13 1_555 1_555
O1_13 C1_11 1_555 1_555
O2_10 C7_10 1_555 1_555
O3_13 Mn1_13 1_555 1_555
O4_13 Mn1_13 1_555 1_555
N1_13 Mn1_13 1_555 1_555
N2_13 N1_13 1_555 1_555
N3_10 C10_13 1_555 1_555
C1_11 C2_11 1_555 1_555
C2_11 H1_11 1_555 1_555
C3_11 C2_11 1_555 1_555
H2_11 C3_11 1_555 1_555
C4_11 C3_11 1_555 1_555
H3_11 C4_11 1_555 1_555
C5_11 C4_11 1_555 1_555
H4_11 C5_11 1_555 1_555
C6_10 C1_11 1_555 1_555
C7_10 N1_13 1_555 1_555
C8_13 O3_13 1_555 1_555
C9_14 C8_13 1_555 1_555
H5_14 C9_14 1_555 1_555
H6_14 C9_14 1_555 1_555
H7_14 C9_14 1_555 1_555
C10_13 O4_13 1_555 1_555
H8_13 C10_13 1_555 1_555
C11_10 N3_10 1_555 1_555
H9_10 C11_10 1_555 1_555
H10_10 C11_10 1_555 1_555
H11_10 C11_10 1_555 1_555
C12_13 N3_10 1_555 1_555
H12_13 C12_13 1_555 1_555
H13_10 C12_13 1_555 1_555
H14_13 C12_13 1_555 1_555
Mn2_11 O2_10 1_555 1_555
O5_11 Mn2_11 1_555 1_555
O11_7 C19_14 1_555 1_555
O7_14 Mn2_11 1_555 1_555
N4_14 Mn2_11 1_555 1_555
N10_7 N4_14 1_555 1_555
N6_11 Mn2_11 1_555 1_555
C13_11 O5_11 1_555 1_555
C14_11 C13_11 1_555 1_555
H15_11 C14_11 1_555 1_555
C15_11 C14_11 1_555 1_555
H16_11 C15_11 1_555 1_555
C16_11 C15_11 1_555 1_555
H17_14 C16_11 1_555 1_555
C17_14 C16_11 1_555 1_555
H18_14 C17_14 1_555 1_555
C18_14 C13_11 1_555 1_555
C19_14 N4_14 1_555 1_555
C20_14 O7_14 1_555 1_555
C21_14 C20_14 1_555 1_555
H19_14 C21_14 1_555 1_555
H20_14 C21_14 1_555 1_555
H21_14 C21_14 1_555 1_555
C22_11 N6_11 1_555 1_555
H22_11 C22_11 1_555 1_555
C23_11 C22_11 1_555 1_555
H23_11 C23_11 1_555 1_555
C24_11 C23_11 1_555 1_555
C25_11 C24_11 1_555 1_555
H24_11 C25_11 1_555 1_555
C26_11 N6_11 1_555 1_555
H25_11 C26_11 1_555 1_555
C27_11 C24_11 1_555 1_555
H26_11 C27_11 1_555 1_555
H27_11 C27_11 1_555 1_555
Mn4_4 O8_14 1_555 1_555
O8_14 C28_13 1_555 1_555
O9_13 Mn1_13 1_555 1_555
O10_14 Mn4_4 1_555 1_555
N7_13 Mn4_4 1_555 1_555
N8_13 Mn1_13 1_555 1_555
C28_13 C29_13 1_555 1_555
C29_13 H28_13 1_555 1_555
C30_13 C29_13 1_555 1_555
H29_13 C30_13 1_555 1_555
C31_13 C30_13 1_555 1_555
H30_13 C31_13 1_555 1_555
C32_13 C31_13 1_555 1_555
H31_13 C32_13 1_555 1_555
C33_13 C28_13 1_555 1_555
C34_13 O9_13 1_555 1_555
C35_14 O10_14 1_555 1_555
C36_14 C35_14 1_555 1_555
H32_14 C36_14 1_555 1_555
H33_14 C36_14 1_555 1_555
H34_14 C36_14 1_555 1_555
N2_13 C8_13 1_555 1_555
N2_13 Mn2_11 1_555 1_555
C5_11 C6_10 1_555 1_555
C6_10 C7_10 1_555 1_555
N10_7 C20_14 1_555 1_555
C17_14 C18_14 1_555 1_555
C18_14 C19_14 1_555 1_555
C25_11 C26_11 1_555 1_555
N7_13 N8_13 1_555 1_555
N7_13 C34_13 1_555 1_555
N8_13 C35_14 1_555 1_555
C32_13 C33_13 1_555 1_555
C33_13 C34_13 1_555 1_555
O2_11 C7_11 1_555 1_555
C1_12 C2_12 1_555 1_555
C2_12 H1_12 1_555 1_555
C3_12 C2_12 1_555 1_555
H2_12 C3_12 1_555 1_555
C4_12 C3_12 1_555 1_555
H3_12 C4_12 1_555 1_555
C5_12 C4_12 1_555 1_555
H4_12 C5_12 1_555 1_555
C6_11 C1_12 1_555 1_555
C11_11 N3_11 1_555 1_555
H9_11 C11_11 1_555 1_555
H10_11 C11_11 1_555 1_555
H11_11 C11_11 1_555 1_555
Mn2_12 O2_11 1_555 1_555
O5_12 Mn2_12 1_555 1_555
N6_12 Mn2_12 1_555 1_555
C13_12 O5_12 1_555 1_555
C14_12 C13_12 1_555 1_555
H15_12 C14_12 1_555 1_555
C15_12 C14_12 1_555 1_555
H16_12 C15_12 1_555 1_555
C16_12 C15_12 1_555 1_555
C22_12 N6_12 1_555 1_555
H22_12 C22_12 1_555 1_555
C23_12 C22_12 1_555 1_555
H23_12 C23_12 1_555 1_555
C24_12 C23_12 1_555 1_555
C25_12 C24_12 1_555 1_555
H24_12 C25_12 1_555 1_555
C26_12 N6_12 1_555 1_555
H25_12 C26_12 1_555 1_555
C27_12 C24_12 1_555 1_555
H26_12 C27_12 1_555 1_555
H27_12 C27_12 1_555 1_555
N11_7 C37_14 1_555 1_555
C37_14 H35_14 1_555 1_555
C38_14 C37_14 1_555 1_555
H36_14 C38_14 1_555 1_555
C39_14 C38_14 1_555 1_555
C40_14 C39_14 1_555 1_555
H37_14 C40_14 1_555 1_555
C41_14 N11_7 1_555 1_555
H38_14 C41_14 1_555 1_555
C42_14 C27_12 1_555 1_555
H39_14 C42_14 1_555 1_555
H40_14 C42_14 1_555 1_555
C5_12 C6_11 1_555 1_555
C6_11 C7_11 1_555 1_555
C25_12 C26_12 1_555 1_555
C39_14 C42_14 1_555 1_555
C40_14 C41_14 1_555 1_555
C1_13 C2_13 1_555 1_555
C2_13 H1_13 1_555 1_555
C3_13 C2_13 1_555 1_555
H2_13 C3_13 1_555 1_555
C4_13 C3_13 1_555 1_555
H3_13 C4_13 1_555 1_555
C5_13 C4_13 1_555 1_555
H4_13 C5_13 1_555 1_555
C20_15 O7_15 1_555 1_555
C21_15 C20_15 1_555 1_555
H19_15 C21_15 1_555 1_555
H20_15 C21_15 1_555 1_555
H21_15 C21_15 1_555 1_555
H22_13 C22_13 1_555 1_555
C23_13 C22_13 1_555 1_555
H23_13 C23_13 1_555 1_555
C24_13 C23_13 1_555 1_555
C25_13 C24_13 1_555 1_555
C27_13 C24_13 1_555 1_555
H26_13 C27_13 1_555 1_555
H27_13 C27_13 1_555 1_555
Mn3_8 O8_15 1_555 1_555
O10_15 Mn3_8 1_555 1_555
C35_15 O10_15 1_555 1_555
C36_15 C35_15 1_555 1_555
H32_15 C36_15 1_555 1_555
H33_15 C36_15 1_555 1_555
H34_15 C36_15 1_555 1_555
O11_8 Mn3_8 1_555 1_555
N10_8 Mn3_8 1_555 1_555
N11_8 Mn3_8 1_555 1_555
Mn1_14 O1_14 1_555 1_555
O2_12 C7_12 1_555 1_555
O3_14 Mn1_14 1_555 1_555
O4_14 Mn1_14 1_555 1_555
N1_14 Mn1_14 1_555 1_555
N2_14 N1_14 1_555 1_555
N3_12 C10_14 1_555 1_555
C7_12 N1_14 1_555 1_555
C8_14 O3_14 1_555 1_555
C9_15 C8_14 1_555 1_555
H5_15 C9_15 1_555 1_555
H6_15 C9_15 1_555 1_555
H7_15 C9_15 1_555 1_555
C10_14 O4_14 1_555 1_555
H8_14 C10_14 1_555 1_555
C11_12 N3_12 1_555 1_555
H9_12 C11_12 1_555 1_555
H10_12 C11_12 1_555 1_555
H11_12 C11_12 1_555 1_555
C12_14 N3_12 1_555 1_555
H12_14 C12_14 1_555 1_555
H13_12 C12_14 1_555 1_555
H14_14 C12_14 1_555 1_555
Mn2_13 O2_12 1_555 1_555
O5_13 Mn2_13 1_555 1_555
O11_8 C19_15 1_555 1_555
N4_15 Mn2_13 1_555 1_555
N10_8 N4_15 1_555 1_555
N6_13 Mn2_13 1_555 1_555
C13_13 O5_13 1_555 1_555
C14_13 C13_13 1_555 1_555
H15_13 C14_13 1_555 1_555
C15_13 C14_13 1_555 1_555
H16_13 C15_13 1_555 1_555
C16_13 C15_13 1_555 1_555
H17_15 C16_13 1_555 1_555
C17_15 C16_13 1_555 1_555
H18_15 C17_15 1_555 1_555
C18_15 C13_13 1_555 1_555
C19_15 N4_15 1_555 1_555
C26_13 N6_13 1_555 1_555
H25_13 C26_13 1_555 1_555
O9_14 Mn1_14 1_555 1_555
N8_14 Mn1_14 1_555 1_555
C28_14 C29_14 1_555 1_555
C29_14 H28_14 1_555 1_555
C30_14 C29_14 1_555 1_555
H29_14 C30_14 1_555 1_555
C31_14 C30_14 1_555 1_555
H30_14 C31_14 1_555 1_555
C32_14 C31_14 1_555 1_555
H31_14 C32_14 1_555 1_555
C33_14 C28_14 1_555 1_555
C34_14 O9_14 1_555 1_555
N2_14 C8_14 1_555 1_555
N2_14 Mn2_13 1_555 1_555
C6_12 C7_12 1_555 1_555
C17_15 C18_15 1_555 1_555
C18_15 C19_15 1_555 1_555
N7_14 N8_14 1_555 1_555
N7_14 C34_14 1_555 1_555
C32_14 C33_14 1_555 1_555
C33_14 C34_14 1_555 1_555
O2_13 C7_13 1_555 1_555
C1_14 C2_14 1_555 1_555
C2_14 H1_14 1_555 1_555
C3_14 C2_14 1_555 1_555
H2_14 C3_14 1_555 1_555
C4_14 C3_14 1_555 1_555
H3_14 C4_14 1_555 1_555
C5_14 C4_14 1_555 1_555
H4_14 C5_14 1_555 1_555
C6_13 C1_14 1_555 1_555
C11_13 N3_13 1_555 1_555
H9_13 C11_13 1_555 1_555
H10_13 C11_13 1_555 1_555
H11_13 C11_13 1_555 1_555
Mn2_14 O2_13 1_555 1_555
O5_14 Mn2_14 1_555 1_555
N6_14 Mn2_14 1_555 1_555
C13_14 O5_14 1_555 1_555
C14_14 C13_14 1_555 1_555
H15_14 C14_14 1_555 1_555
C15_14 C14_14 1_555 1_555
H16_14 C15_14 1_555 1_555
C16_14 C15_14 1_555 1_555
C22_14 N6_14 1_555 1_555
H22_14 C22_14 1_555 1_555
C23_14 C22_14 1_555 1_555
H23_14 C23_14 1_555 1_555
C24_14 C23_14 1_555 1_555
C25_14 C24_14 1_555 1_555
H24_14 C25_14 1_555 1_555
C26_14 N6_14 1_555 1_555
H25_14 C26_14 1_555 1_555
C27_14 C24_14 1_555 1_555
H26_14 C27_14 1_555 1_555
H27_14 C27_14 1_555 1_555
N11_8 C37_15 1_555 1_555
C37_15 H35_15 1_555 1_555
C38_15 C37_15 1_555 1_555
H36_15 C38_15 1_555 1_555
C39_15 C38_15 1_555 1_555
C40_15 C39_15 1_555 1_555
H37_15 C40_15 1_555 1_555
C41_15 N11_8 1_555 1_555
H38_15 C41_15 1_555 1_555
C42_15 C27_14 1_555 1_555
H39_15 C42_15 1_555 1_555
H40_15 C42_15 1_555 1_555
C5_14 C6_13 1_555 1_555
C6_13 C7_13 1_555 1_555
C25_14 C26_14 1_555 1_555
C39_15 C42_15 1_555 1_555
C40_15 C41_15 1_555 1_555
Mn1_15 O1_15 1_555 1_555
O2_14 C7_14 1_555 1_555
O3_15 Mn1_15 1_555 1_555
O4_15 Mn1_15 1_555 1_555
N1_15 Mn1_15 1_555 1_555
N2_15 N1_15 1_555 1_555
N3_14 C10_15 1_555 1_555
C7_14 N1_15 1_555 1_555
C8_15 O3_15 1_555 1_555
C9_16 C8_15 1_555 1_555
H5_16 C9_16 1_555 1_555
H6_16 C9_16 1_555 1_555
H7_16 C9_16 1_555 1_555
C10_15 O4_15 1_555 1_555
H8_15 C10_15 1_555 1_555
C11_14 N3_14 1_555 1_555
H9_14 C11_14 1_555 1_555
H10_14 C11_14 1_555 1_555
H11_14 C11_14 1_555 1_555
C12_15 N3_14 1_555 1_555
H12_15 C12_15 1_555 1_555
H13_14 C12_15 1_555 1_555
H14_15 C12_15 1_555 1_555
Mn2_15 O2_14 1_555 1_555
O5_15 Mn2_15 1_555 1_555
O6_8 C19_16 1_555 1_555
N4_16 Mn2_15 1_555 1_555
N5_8 N4_16 1_555 1_555
N6_15 Mn2_15 1_555 1_555
C13_15 O5_15 1_555 1_555
C14_15 C13_15 1_555 1_555
H15_15 C14_15 1_555 1_555
C15_15 C14_15 1_555 1_555
H16_15 C15_15 1_555 1_555
C16_15 C15_15 1_555 1_555
H17_16 C16_15 1_555 1_555
C17_16 C16_15 1_555 1_555
H18_16 C17_16 1_555 1_555
C18_16 C13_15 1_555 1_555
C19_16 N4_16 1_555 1_555
C26_15 N6_15 1_555 1_555
H25_15 C26_15 1_555 1_555
O9_15 Mn1_15 1_555 1_555
N8_15 Mn1_15 1_555 1_555
C28_15 C29_15 1_555 1_555
C29_15 H28_15 1_555 1_555
C30_15 C29_15 1_555 1_555
H29_15 C30_15 1_555 1_555
C31_15 C30_15 1_555 1_555
H30_15 C31_15 1_555 1_555
C32_15 C31_15 1_555 1_555
H31_15 C32_15 1_555 1_555
C33_15 C28_15 1_555 1_555
C34_15 O9_15 1_555 1_555
Mn4_5 O6_8 1_555 1_555
N2_15 C8_15 1_555 1_555
N2_15 Mn2_15 1_555 1_555
C6_14 C7_14 1_555 1_555
N5_8 Mn4_5 1_555 1_555
C17_16 C18_16 1_555 1_555
C18_16 C19_16 1_555 1_555
N7_15 N8_15 1_555 1_555
N7_15 C34_15 1_555 1_555
C32_15 C33_15 1_555 1_555
C33_15 C34_15 1_555 1_555
O2_15 C7_15 1_555 1_555
C1_15 C2_15 1_555 1_555
C2_15 H1_15 1_555 1_555
C3_15 C2_15 1_555 1_555
H2_15 C3_15 1_555 1_555
C4_15 C3_15 1_555 1_555
H3_15 C4_15 1_555 1_555
C5_15 C4_15 1_555 1_555
H4_15 C5_15 1_555 1_555
C6_15 C1_15 1_555 1_555
C11_15 N3_15 1_555 1_555
H9_15 C11_15 1_555 1_555
H10_15 C11_15 1_555 1_555
H11_15 C11_15 1_555 1_555
Mn2_16 O2_15 1_555 1_555
O5_16 Mn2_16 1_555 1_555
N6_16 Mn2_16 1_555 1_555
C13_16 O5_16 1_555 1_555
C14_16 C13_16 1_555 1_555
H15_16 C14_16 1_555 1_555
C15_16 C14_16 1_555 1_555
H16_16 C15_16 1_555 1_555
C16_16 C15_16 1_555 1_555
C22_15 N6_16 1_555 1_555
H22_15 C22_15 1_555 1_555
C23_15 C22_15 1_555 1_555
H23_15 C23_15 1_555 1_555
C24_15 C23_15 1_555 1_555
C25_15 C24_15 1_555 1_555
H24_16 C25_15 1_555 1_555
C26_16 N6_16 1_555 1_555
H25_16 C26_16 1_555 1_555
C27_15 C24_15 1_555 1_555
H26_15 C27_15 1_555 1_555
H27_15 C27_15 1_555 1_555
N9_8 C37_16 1_555 1_555
C37_16 H35_16 1_555 1_555
C38_16 C37_16 1_555 1_555
H36_16 C38_16 1_555 1_555
C39_16 C38_16 1_555 1_555
C40_16 C39_16 1_555 1_555
H37_16 C40_16 1_555 1_555
C41_16 N9_8 1_555 1_555
H38_16 C41_16 1_555 1_555
C42_16 C27_15 1_555 1_555
H39_16 C42_16 1_555 1_555
H40_16 C42_16 1_555 1_555
Mn4_5 N9_8 1_555 1_555
C5_15 C6_15 1_555 1_555
C6_15 C7_15 1_555 1_555
C25_15 C26_16 1_555 1_555
C39_16 C42_16 1_555 1_555
C40_16 C41_16 1_555 1_555
C1_16 C2_16 1_555 1_555
C2_16 H1_16 1_555 1_555
C3_16 C2_16 1_555 1_555
H2_16 C3_16 1_555 1_555
C4_16 C3_16 1_555 1_555
H3_16 C4_16 1_555 1_555
C5_16 C4_16 1_555 1_555
H4_16 C5_16 1_555 1_555
C20_16 O7_16 1_555 1_555
C21_16 C20_16 1_555 1_555
H19_16 C21_16 1_555 1_555
H20_16 C21_16 1_555 1_555
H21_16 C21_16 1_555 1_555
H22_16 C22_16 1_555 1_555
C23_16 C22_16 1_555 1_555
H23_16 C23_16 1_555 1_555
C24_16 C23_16 1_555 1_555
C25_16 C24_16 1_555 1_555
C27_16 C24_16 1_555 1_555
H26_16 C27_16 1_555 1_555
H27_16 C27_16 1_555 1_555
Mn4_5 O8_16 1_555 1_555
O10_16 Mn4_5 1_555 1_555
C35_16 O10_16 1_555 1_555
C36_16 C35_16 1_555 1_555
H32_16 C36_16 1_555 1_555
H33_16 C36_16 1_555 1_555
H34_16 C36_16 1_555 1_555
C28_16 C29_16 1_555 1_555
C29_16 H28_16 1_555 1_555
C30_16 C29_16 1_555 1_555
H29_16 C30_16 1_555 1_555
Mn1_16 O1_16 1_555 1_555
O2_16 C7_16 1_555 1_555
O3_16 Mn1_16 1_555 1_555
O4_16 Mn1_16 1_555 1_555
N1_16 Mn1_16 1_555 1_555
N2_16 N1_16 1_555 1_555
N3_16 C10_16 1_555 1_555
C7_16 N1_16 1_555 1_555
C8_16 O3_16 1_555 1_555
C10_16 O4_16 1_555 1_555
H8_16 C10_16 1_555 1_555
C11_16 N3_16 1_555 1_555
H9_16 C11_16 1_555 1_555
H10_16 C11_16 1_555 1_555
H11_16 C11_16 1_555 1_555
C12_16 N3_16 1_555 1_555
H12_16 C12_16 1_555 1_555
H13_16 C12_16 1_555 1_555
H14_16 C12_16 1_555 1_555
O9_16 Mn1_16 1_555 1_555
N8_16 Mn1_16 1_555 1_555
H30_16 C31_16 1_555 1_555
C32_16 C31_16 1_555 1_555
H31_16 C32_16 1_555 1_555
C34_16 O9_16 1_555 1_555
N2_16 C8_16 1_555 1_555
C6_16 C7_16 1_555 1_555
N7_16 N8_16 1_555 1_555
N7_16 C34_16 1_555 1_555
C32_16 C33_16 1_555 1_555
C33_16 C34_16 1_555 1_555

#END
