
###############################################################################
#
# This file contains modified crystal structure data generated from the
# MOF subset of the Cambridge Structural Database (CSD) v543 
# hosted by the Cambridge Crystallographic Data Centre (CCDC).
#
# This work is licensed under the Creative Commons
# Attribution-NonCommercial-ShareAlike 4.0 International License.
# To view a copy of this license, visit
# http://creativecommons.org/licenses/by-nc-sa/4.0/
# or send a letter to
# Creative Commons, PO Box 1866, Mountain View, CA 94042, USA.
#
# CIF created using the CSD Python API on 29 September 2022
# The structure has been converted into the P1 space group
# The structure has a 3D framework
# The original CSD entry XAKZOZ is in the tetragonal crystal system
# The framework has been calculated to contain at least 10.0% void space
# The void calculation uses a probe of radius 1.32A, grid spacing 0.4
#
###############################################################################

data_XAKZOZ
_chemical_formula_moiety         '(C672 H640 Mn48 N144 O160)n'
_symmetry_cell_setting           triclinic
_symmetry_space_group_name_H-M   'P 1'
_symmetry_Int_Tables_number      1
_space_group_name_Hall           'P 1'
loop_
_symmetry_equiv_pos_site_id
_symmetry_equiv_pos_as_xyz
1 x,y,z
_cell_length_a                   40.2119(19)
_cell_length_b                   40.2119(19)
_cell_length_c                   17.7703(12)
_cell_angle_alpha                90
_cell_angle_beta                 90
_cell_angle_gamma                90
_cell_volume                     28734.5
loop_
_atom_site_label
_atom_site_type_symbol
_atom_site_fract_x
_atom_site_fract_y
_atom_site_fract_z
Mn3 Mn 0.075690(9) 0.044530(10) 0.16614(3)
O7 O 0.09827(4) 0.01706(5) 0.23296(13)
O9 O 0.04555(4) 0.07057(4) 0.10438(10)
O10 O 0.08708(5) 0.09166(6) 0.22789(17)
N7 N 0.03454(5) 0.03720(5) 0.22009(13)
N8 N 0.00619(5) 0.05241(5) 0.18750(12)
N9 N 0.09580(17) 0.14667(15) 0.2393(6)
C31 C 0.08780(8) 0.00283(9) 0.2935(2)
C36 C 0.05477(8) 0.00546(8) 0.3232(2)
C37 C 0.02797(7) 0.02222(7) 0.28351(17)
C38 C 0.01426(6) 0.06932(6) 0.12805(16)
C40 C 0.08498(15) 0.11671(13) 0.2082(4)
H34 H 0.0738 0.1189 0.1614
C41 C 0.11458(17) 0.1535(3) 0.2829(7)
H35 H 0.1108 0.1404 0.3284
H36 H 0.1370 0.1491 0.2636
H37 H 0.1125 0.1772 0.2948
C42 C 0.0857(4) 0.1809(2) 0.1910(6)
H38 H 0.1018 0.1842 0.1503
H39 H 0.0634 0.1783 0.1696
H40 H 0.0860 0.2001 0.2247
O11 O 0.11654(4) 0.05329(4) 0.10740(10)
N10 N 0.07636(5) 0.00528(5) 0.07698(12)
N4 N 0.10661(4) 0.00694(5) 0.03729(11)
C19 C 0.20945(6) 0.06803(6) 0.01430(15)
H16 H 0.2233 0.0853 0.0329
C20 C 0.17911(6) 0.06215(6) 0.04639(14)
H17 H 0.1720 0.0756 0.0874
C21 C 0.15806(6) 0.03656(6) 0.01989(14)
C22 C 0.12596(6) 0.03232(6) 0.05655(15)
C32 C 0.11071(10) 0.98320(11) 0.3327(3)
H27 H 0.1324 0.9802 0.3124
C33 C 0.10285(13) 0.96842(13) 0.3986(4)
H28 H 0.1191 0.9554 0.4238
C34 C 0.07117(13) 0.97200(12) 0.4306(3)
H29 H 0.0661 0.9625 0.4782
C35 C 0.04746(9) 0.98984(11) 0.3905(2)
H30 H 0.0255 0.9913 0.4099
Mn1 Mn 0.960467(9) 0.034535(11) 0.24957(2)
O1 O 0.95143(5) 0.07559(5) 0.29229(11)
O2 O 0.88479(4) 0.06586(4) 0.10732(9)
N1 N 0.92433(5) 0.04010(5) 0.17891(11)
N2 N 0.91896(5) 0.01247(5) 0.13127(12)
N3 N 0.92916(6) 0.00828(8) 0.33812(14)
C1 C 0.92839(7) 0.09835(8) 0.27507(17)
C2 C 0.92591(9) 0.12581(10) 0.3208(2)
H1 H 0.9408 0.1281 0.3620
C3 C 0.90274(11) 0.14973(10) 0.3088(2)
H2 H 0.9018 0.1683 0.3417
C4 C 0.88031(9) 0.14773(8) 0.2495(2)
H3 H 0.8639 0.1644 0.2421
C5 C 0.88277(7) 0.12036(7) 0.20111(18)
H4 H 0.8683 0.1189 0.1589
C6 C 0.90564(7) 0.09553(7) 0.21339(16)
C7 C 0.90506(6) 0.06588(7) 0.16281(15)
C10 C 0.89900(9) 0.01886(10) 0.35706(19)
H8 H 0.8912 0.0395 0.3377
C11 C 0.87848(9) 0.00033(13) 0.4049(2)
H9 H 0.8569 0.0087 0.4161
Mn2 Mn 0.886518(9) 0.028520(9) 0.03526(2)
O4 O 0.84850(4) 0.00817(4) 0.07062(9)
O8 O 0.99868(4) 0.02197(5) 0.31329(9)
C39 C 0.98965(6) 0.08852(6) 0.08481(15)
H31 H 0.9844 0.0768 0.0380
H32 H 0.9693 0.0911 0.1147
H33 H 0.9988 0.1105 0.0730
H21 H 0.8292 0.0817 0.0231
O6 O 0.92741(4) 0.04357(4) 0.98982(10)
C23 C 0.93894(7) 0.02207(7) 0.94336(17)
C24 C 0.97396(7) 0.02872(8) 0.91297(19)
H18 H 0.9798 0.0116 0.8760
H19 H 0.9900 0.0282 0.9546
H20 H 0.9746 0.0507 0.8890
N11 N 0.85755(5) 0.05947(5) 0.94981(14)
Mn1_2 Mn 0.715465(11) 0.210467(9) 0.49957(2)
O1_2 O 0.67441(5) 0.20143(5) 0.54229(11)
O2_2 O 0.68414(4) 0.13479(4) 0.35732(9)
O3 O 0.75732(4) 0.21314(4) 0.44744(10)
N1_2 N 0.70990(5) 0.17433(5) 0.42891(11)
N2_2 N 0.73753(5) 0.16896(5) 0.38127(12)
N3_2 N 0.74172(8) 0.17916(6) 0.58812(14)
C1_2 C 0.65165(8) 0.17839(7) 0.52507(17)
C2_2 C 0.62419(10) 0.17591(9) 0.5708(2)
H1_2 H 0.6219 0.1908 0.6120
C3_2 C 0.60027(10) 0.15274(11) 0.5588(2)
H2_2 H 0.5817 0.1518 0.5917
C4_2 C 0.60227(8) 0.13031(9) 0.4995(2)
H3_2 H 0.5856 0.1139 0.4921
C5_2 C 0.62964(7) 0.13277(7) 0.45111(18)
H4_2 H 0.6311 0.1183 0.4089
C6_2 C 0.65447(7) 0.15564(7) 0.46339(16)
C7_2 C 0.68412(7) 0.15506(6) 0.41281(15)
C8 C 0.76075(7) 0.19005(6) 0.39568(16)
C9 C 0.79265(7) 0.18824(7) 0.35397(18)
H5 H 0.7939 0.2066 0.3178
H6 H 0.7940 0.1670 0.3270
H7 H 0.8112 0.1899 0.3895
C10_2 C 0.73114(10) 0.14900(9) 0.60706(19)
H8_2 H 0.7105 0.1412 0.5877
C11_2 C 0.74967(13) 0.12848(9) 0.6549(2)
H9_2 H 0.7413 0.1069 0.6661
C12 C 0.77747(16) 0.13738(12) 0.6843(3)
C13 C 0.78920(14) 0.16914(13) 0.6645(3)
H10 H 0.8097 0.1771 0.6841
C14 C 0.77018(12) 0.18898(9) 0.6151(2)
H11 H 0.7784 0.2102 0.6011
C15 C 0.79448(19) 0.11184(14) 0.7368(4)
H12 H 0.7775 0.0963 0.7566
H13 H 0.8108 0.0987 0.7074
Mn2_2 Mn 0.721480(9) 0.136518(9) 0.28526(2)
O4_2 O 0.74183(4) 0.09850(4) 0.32062(9)
O5 O 0.80329(4) 0.13346(4) 0.14260(10)
O6_2 O 0.70643(4) 0.17741(4) 0.23982(10)
N4_2 N 0.75694(5) 0.14339(4) 0.21271(11)
N5 N 0.75528(5) 0.17364(5) 0.17302(12)
C16 C 0.76713(6) 0.08106(6) 0.29097(15)
C17 C 0.77424(6) 0.05020(6) 0.32271(15)
H14 H 0.7617 0.0428 0.3648
C18 C 0.79886(7) 0.03030(7) 0.29461(16)
H15 H 0.8027 0.0091 0.3164
C19_2 C 0.81803(6) 0.04055(6) 0.23570(15)
H16_2 H 0.8353 0.0267 0.2171
C20_2 C 0.81215(6) 0.07089(6) 0.20361(14)
H17_2 H 0.8256 0.0780 0.1626
C21_2 C 0.78656(6) 0.09194(6) 0.23011(14)
C22_2 C 0.78232(6) 0.12404(6) 0.19345(15)
C23_2 C 0.72793(7) 0.18894(7) 0.19336(17)
C24_2 C 0.72128(8) 0.22396(7) 0.16297(19)
H18_2 H 0.7384 0.2298 0.1260
H19_2 H 0.7218 0.2400 0.2046
H20_2 H 0.6993 0.2246 0.1390
C25 C 0.83430(7) 0.08020(8) 0.97103(17)
C26 C 0.81720(10) 0.09966(10) 0.9222(2)
H22 H 0.7996 0.1134 0.9398
C27 C 0.82537(11) 0.09943(12) 0.8472(3)
C28 C 0.84936(11) 0.07710(11) 0.8247(2)
H23 H 0.8554 0.0755 0.7732
C29 C 0.86430(8) 0.05729(9) 0.87682(19)
H24 H 0.8801 0.0413 0.8604
C30 C 0.80893(14) 0.12538(17) 0.7903(3)
H25 H 0.7928 0.1393 0.8182
H26 H 0.8265 0.1402 0.7704
Mn3_2 Mn 0.705470(10) 0.325690(9) 0.41614(3)
O7_2 O 0.73294(5) 0.34827(4) 0.48296(13)
O8_2 O 0.72803(5) 0.24868(4) 0.56329(9)
O9_2 O 0.67943(4) 0.29555(4) 0.35438(10)
O10_2 O 0.65834(6) 0.33708(5) 0.47789(17)
N7_2 N 0.71280(5) 0.28454(5) 0.47009(13)
N8_2 N 0.69759(5) 0.25619(5) 0.43750(12)
N9_2 N 0.60333(15) 0.34580(17) 0.4893(6)
C31_2 C 0.74717(9) 0.33780(8) 0.5435(2)
C32_2 C 0.76680(11) 0.36071(10) 0.5827(3)
H27_2 H 0.7698 0.3824 0.5624
C33_2 C 0.78158(13) 0.35285(13) 0.6486(4)
H28_2 H 0.7946 0.3691 0.6738
C34_2 C 0.77800(12) 0.32117(13) 0.6806(3)
H29_2 H 0.7875 0.3161 0.7282
C35_2 C 0.76016(11) 0.29746(9) 0.6405(2)
H30_2 H 0.7587 0.2755 0.6599
C36_2 C 0.74454(8) 0.30477(8) 0.5732(2)
C37_2 C 0.72778(7) 0.27797(7) 0.53351(17)
C38_2 C 0.68068(6) 0.26426(6) 0.37805(16)
C39_2 C 0.66148(6) 0.23965(6) 0.33481(15)
H31_2 H 0.6732 0.2344 0.2880
H32_2 H 0.6589 0.2193 0.3647
H33_2 H 0.6395 0.2488 0.3230
C40_2 C 0.63329(13) 0.33498(15) 0.4582(4)
H34_2 H 0.6311 0.3238 0.4114
C41_2 C 0.5965(3) 0.36458(17) 0.5329(7)
H35_2 H 0.6096 0.3608 0.5784
H36_2 H 0.6009 0.3870 0.5136
H37_2 H 0.5728 0.3625 0.5448
C42_2 C 0.5691(2) 0.3357(4) 0.4410(6)
H38_2 H 0.5658 0.3518 0.4003
H39_2 H 0.5717 0.3134 0.4196
H40_2 H 0.5499 0.3360 0.4747
O11_2 O 0.69671(4) 0.36654(4) 0.35740(10)
N10_2 N 0.74472(5) 0.32636(5) 0.32698(12)
N11_2 N 0.69053(5) 0.10755(5) 0.19981(14)
Mn5 Mn 0.794530(10) 0.174310(9) 0.08386(3)
H12_2 H 0.6537 0.0275 0.0066
C25_2 C 0.66980(8) 0.08430(7) 0.22103(17)
H21_2 H 0.6683 0.0792 0.2731
C26_2 C 0.65034(10) 0.06720(10) 0.1722(2)
H22_2 H 0.6366 0.0496 0.1898
C27_2 C 0.65057(12) 0.07537(11) 0.0972(3)
C28_2 C 0.67290(11) 0.09936(11) 0.0747(2)
H23_2 H 0.6745 0.1054 0.0232
C29_2 C 0.69271(9) 0.11430(8) 0.12682(19)
H24_2 H 0.7087 0.1301 0.1104
C30_2 C 0.62462(17) 0.05893(14) 0.0403(3)
H25_2 H 0.6107 0.0428 0.0682
H26_2 H 0.6098 0.0765 0.0204
Mn1_3 Mn 0.784535(11) 0.289533(9) 0.00043(2)
O2_3 O 0.81586(4) 0.36521(4) 0.14268(9)
O3_2 O 0.74268(4) 0.28686(4) 0.05256(10)
N1_3 N 0.79010(5) 0.32567(5) 0.07109(11)
N2_3 N 0.76247(5) 0.33104(5) 0.11873(12)
C4_3 C 0.89773(8) 0.36969(9) 0.0005(2)
H3_3 H 0.9144 0.3861 0.0079
C5_3 C 0.87036(7) 0.36723(7) 0.04889(18)
H4_3 H 0.8689 0.3817 0.0911
C6_3 C 0.84553(7) 0.34436(7) 0.03661(16)
C7_3 C 0.81588(7) 0.34494(6) 0.08719(15)
C8_2 C 0.73925(7) 0.30995(6) 0.10432(16)
C9_2 C 0.70735(7) 0.31176(7) 0.14603(18)
H5_2 H 0.7061 0.2934 0.1822
H6_2 H 0.7060 0.3330 0.1730
H7_2 H 0.6888 0.3101 0.1105
Mn2_3 Mn 0.778520(9) 0.363482(9) 0.21474(2)
O4_3 O 0.75817(4) 0.40150(4) 0.17938(9)
O6_3 O 0.79357(4) 0.32259(4) 0.26018(10)
N4_3 N 0.74306(5) 0.35661(4) 0.28729(11)
C16_2 C 0.73287(6) 0.41894(6) 0.20903(15)
C17_2 C 0.72576(6) 0.44980(6) 0.17729(15)
H14_2 H 0.7383 0.4572 0.1352
C18_2 C 0.70114(7) 0.46970(7) 0.20539(16)
H15_2 H 0.6973 0.4909 0.1836
C19_3 C 0.68197(6) 0.45945(6) 0.26430(15)
H16_3 H 0.6647 0.4733 0.2829
C20_3 C 0.68785(6) 0.42911(6) 0.29639(14)
H17_3 H 0.6744 0.4220 0.3374
C21_3 C 0.71344(6) 0.40806(6) 0.26989(14)
C22_3 C 0.71768(6) 0.37596(6) 0.30655(15)
C23_3 C 0.77207(7) 0.31106(7) 0.30664(17)
C24_3 C 0.77872(8) 0.27604(7) 0.33703(19)
H18_3 H 0.7616 0.2702 0.3740
H19_3 H 0.7782 0.2600 0.2954
H20_3 H 0.8007 0.2754 0.3610
O7_3 O 0.76706(5) 0.15173(4) 0.01704(13)
O9_3 O 0.82057(4) 0.20445(4) 0.14562(10)
O10_3 O 0.84166(6) 0.16292(5) 0.02211(17)
N7_3 N 0.78720(5) 0.21546(5) 0.02991(13)
N8_3 N 0.80241(5) 0.24381(5) 0.06250(12)
N9_3 N 0.89667(15) 0.15420(17) 0.0107(6)
C38_3 C 0.81932(6) 0.23574(6) 0.12195(16)
C39_3 C 0.83852(6) 0.26035(6) 0.16519(15)
H31_3 H 0.8268 0.2656 0.2120
H32_3 H 0.8411 0.2807 0.1353
H33_3 H 0.8605 0.2512 0.1770
C40_3 C 0.86671(13) 0.16502(15) 0.0418(4)
H34_3 H 0.8689 0.1762 0.0886
C42_3 C 0.9309(2) 0.1643(4) 0.0590(6)
H38_3 H 0.9342 0.1482 0.0997
H39_3 H 0.9283 0.1866 0.0804
H40_3 H 0.9501 0.1640 0.0253
N11_3 N 0.80947(5) 0.39245(5) 0.30019(14)
H21_3 H 0.8292 0.5817 0.9769
Mn4 Mn 0.886518(9) 0.528520(9) 0.96474(2)
Mn1_4 Mn 0.960467(9) 0.534535(11) 0.75043(2)
O1_3 O 0.95143(5) 0.57559(5) 0.70771(11)
O2_4 O 0.88479(4) 0.56586(4) 0.89268(9)
O3_3 O 0.96314(4) 0.49268(4) 0.80256(10)
N1_4 N 0.92433(5) 0.54010(5) 0.82109(11)
N2_4 N 0.91896(5) 0.51247(5) 0.86873(12)
N3_3 N 0.92916(6) 0.50828(8) 0.66188(14)
C1_3 C 0.92839(7) 0.59835(8) 0.72493(17)
C2_3 C 0.92591(9) 0.62581(10) 0.6792(2)
H1_3 H 0.9408 0.6281 0.6380
C3_3 C 0.90274(11) 0.64973(10) 0.6912(2)
H2_3 H 0.9018 0.6683 0.6583
C4_4 C 0.88031(9) 0.64773(8) 0.7505(2)
H3_4 H 0.8639 0.6644 0.7579
C5_4 C 0.88277(7) 0.62036(7) 0.79889(18)
H4_4 H 0.8683 0.6189 0.8411
C6_4 C 0.90564(7) 0.59553(7) 0.78661(16)
C7_4 C 0.90506(6) 0.56588(7) 0.83719(15)
C8_3 C 0.94005(6) 0.48925(7) 0.85432(16)
C9_3 C 0.93824(7) 0.45735(7) 0.89603(18)
H5_3 H 0.9566 0.4561 0.9322
H6_3 H 0.9170 0.4560 0.9230
H7_3 H 0.9399 0.4388 0.8605
C10_3 C 0.89900(9) 0.51886(10) 0.64294(19)
H8_3 H 0.8912 0.5395 0.6623
C11_3 C 0.87848(9) 0.50033(13) 0.5951(2)
H9_3 H 0.8569 0.5087 0.5839
C12_2 C 0.88738(12) 0.47253(16) 0.5657(3)
C13_2 C 0.91914(13) 0.46080(14) 0.5855(3)
H10_2 H 0.9271 0.4403 0.5659
C14_2 C 0.93898(9) 0.47982(12) 0.6349(2)
H11_2 H 0.9602 0.4716 0.6489
C15_2 C 0.86184(14) 0.45552(19) 0.5132(4)
H12_3 H 0.8463 0.4725 0.4934
H13_2 H 0.8487 0.4392 0.5426
O4_4 O 0.84850(4) 0.50817(4) 0.92938(9)
C16_3 C 0.83106(6) 0.48287(6) 0.95903(15)
C17_3 C 0.80020(6) 0.47576(6) 0.92729(15)
H14_3 H 0.7928 0.4883 0.8852
C18_3 C 0.78030(7) 0.45114(7) 0.95539(16)
H15_3 H 0.7591 0.4473 0.9336
C25_3 C 0.83020(8) 0.41570(7) 0.27897(17)
H21_4 H 0.8317 0.4208 0.2269
C26_3 C 0.84966(10) 0.43280(10) 0.3278(2)
H22_3 H 0.8634 0.4504 0.3102
C27_3 C 0.84943(12) 0.42463(11) 0.4028(3)
C28_3 C 0.82710(11) 0.40064(11) 0.4253(2)
H23_3 H 0.8255 0.3946 0.4768
C29_3 C 0.80729(9) 0.38570(8) 0.37318(19)
H24_3 H 0.7913 0.3699 0.3896
C30_3 C 0.87538(17) 0.44107(14) 0.4597(3)
H25_3 H 0.8893 0.4572 0.4318
H26_3 H 0.8902 0.4235 0.4796
O8_3 O 0.99868(4) 0.52197(5) 0.68671(9)
C39_4 C 0.98965(6) 0.58852(6) 0.91519(15)
H31_4 H 0.9844 0.5768 0.9620
H32_4 H 0.9693 0.5911 0.8853
H33_4 H 0.9988 0.6105 0.9270
O3_4 O 0.96314(4) 0.99268(4) 0.19744(10)
C8_4 C 0.94005(6) 0.98925(7) 0.14568(16)
C9_4 C 0.93824(7) 0.95735(7) 0.10397(18)
H5_4 H 0.9566 0.9561 0.0678
H6_4 H 0.9170 0.9560 0.0770
H7_4 H 0.9399 0.9388 0.1395
C12_3 C 0.88738(12) 0.97253(16) 0.4343(3)
C13_3 C 0.91914(13) 0.96080(14) 0.4145(3)
H10_3 H 0.9271 0.9403 0.4341
C14_3 C 0.93898(9) 0.97982(12) 0.3651(2)
H11_3 H 0.9602 0.9716 0.3511
C15_3 C 0.86184(14) 0.95552(19) 0.4868(4)
H12_4 H 0.8463 0.9725 0.5066
H13_3 H 0.8487 0.9392 0.4574
N6 N 0.80947(5) 0.89245(5) 0.69981(14)
C16_4 C 0.83106(6) 0.98287(6) 0.04097(15)
C17_4 C 0.80020(6) 0.97576(6) 0.07271(15)
H14_4 H 0.7928 0.9883 0.1148
C18_4 C 0.78030(7) 0.95114(7) 0.04461(16)
H15_4 H 0.7591 0.9473 0.0664
C25_4 C 0.83020(8) 0.91570(7) 0.72103(17)
H21_5 H 0.8317 0.9208 0.7731
C26_4 C 0.84966(10) 0.93280(10) 0.6722(2)
H22_4 H 0.8634 0.9504 0.6898
C27_4 C 0.84943(12) 0.92463(11) 0.5972(3)
C28_4 C 0.82710(11) 0.90064(11) 0.5747(2)
H23_4 H 0.8255 0.8946 0.5232
C29_4 C 0.80729(9) 0.88570(8) 0.62682(19)
H24_4 H 0.7913 0.8699 0.6104
C30_4 C 0.87538(17) 0.94107(14) 0.5403(3)
H25_4 H 0.8893 0.9572 0.5682
H26_4 H 0.8902 0.9235 0.5204
Mn4_2 Mn 0.778520(9) 0.863482(9) 0.78526(2)
Mn1_5 Mn 0.784535(11) 0.789533(9) 0.99957(2)
O2_5 O 0.81586(4) 0.86521(4) 0.85732(9)
O3_5 O 0.74268(4) 0.78686(4) 0.94744(10)
N1_5 N 0.79010(5) 0.82567(5) 0.92891(11)
N2_5 N 0.76247(5) 0.83104(5) 0.88127(12)
C4_5 C 0.89773(8) 0.86969(9) 0.9995(2)
H3_5 H 0.9144 0.8861 0.9921
C5_5 C 0.87036(7) 0.86723(7) 0.95111(18)
H4_5 H 0.8689 0.8817 0.9089
C6_5 C 0.84553(7) 0.84436(7) 0.96339(16)
C7_5 C 0.81588(7) 0.84494(6) 0.91281(15)
C8_5 C 0.73925(7) 0.80995(6) 0.89568(16)
C9_5 C 0.70735(7) 0.81176(7) 0.85397(18)
H5_5 H 0.7061 0.7934 0.8178
H6_5 H 0.7060 0.8330 0.8270
H7_5 H 0.6888 0.8101 0.8895
O4_5 O 0.75817(4) 0.90150(4) 0.82062(9)
O5_2 O 0.69671(4) 0.86654(4) 0.64260(10)
O6_4 O 0.79357(4) 0.82259(4) 0.73982(10)
N4_4 N 0.74306(5) 0.85661(4) 0.71271(11)
N5_2 N 0.74472(5) 0.82636(5) 0.67302(12)
C16_5 C 0.73287(6) 0.91894(6) 0.79097(15)
C17_5 C 0.72576(6) 0.94980(6) 0.82271(15)
H14_5 H 0.7383 0.9572 0.8648
C18_5 C 0.70114(7) 0.96970(7) 0.79461(16)
H15_5 H 0.6973 0.9909 0.8164
C19_4 C 0.68197(6) 0.95945(6) 0.73570(15)
H16_4 H 0.6647 0.9733 0.7171
C20_4 C 0.68785(6) 0.92911(6) 0.70361(14)
H17_4 H 0.6744 0.9220 0.6626
C21_4 C 0.71344(6) 0.90806(6) 0.73011(14)
C22_4 C 0.71768(6) 0.87596(6) 0.69345(15)
C23_4 C 0.77207(7) 0.81106(7) 0.69336(17)
C24_4 C 0.77872(8) 0.77604(7) 0.66297(19)
H18_4 H 0.7616 0.7702 0.6260
H19_4 H 0.7782 0.7600 0.7046
H20_4 H 0.8007 0.7754 0.6390
Mn3_3 Mn 0.794530(10) 0.674310(9) 0.91614(3)
O7_4 O 0.76706(5) 0.65173(4) 0.98296(13)
O9_4 O 0.82057(4) 0.70445(4) 0.85438(10)
O10_4 O 0.84166(6) 0.66292(5) 0.97789(17)
N7_4 N 0.78720(5) 0.71546(5) 0.97009(13)
N8_4 N 0.80241(5) 0.74381(5) 0.93750(12)
N9_4 N 0.89667(15) 0.65420(17) 0.9893(6)
C38_4 C 0.81932(6) 0.73574(6) 0.87805(16)
C39_5 C 0.83852(6) 0.76035(6) 0.83481(15)
H31_5 H 0.8268 0.7656 0.7880
H32_5 H 0.8411 0.7807 0.8647
H33_5 H 0.8605 0.7512 0.8230
C40_4 C 0.86671(13) 0.66502(15) 0.9582(4)
H34_4 H 0.8689 0.6762 0.9114
C42_4 C 0.9309(2) 0.6643(4) 0.9410(6)
H38_4 H 0.9342 0.6482 0.9003
H39_4 H 0.9283 0.6866 0.9196
H40_4 H 0.9501 0.6640 0.9747
O11_3 O 0.80329(4) 0.63346(4) 0.85740(10)
N10_3 N 0.75528(5) 0.67364(5) 0.82698(12)
Mn5_2 Mn 0.705470(10) 0.825690(9) 0.58386(3)
Mn3_4 Mn 0.924310(9) 0.455470(10) 0.16614(3)
O7_5 O 0.90173(4) 0.48294(5) 0.23296(13)
O9_5 O 0.95445(4) 0.42943(4) 0.10438(10)
O10_5 O 0.91292(5) 0.40834(6) 0.22789(17)
N7_5 N 0.96546(5) 0.46280(5) 0.22009(13)
N8_5 N 0.99381(5) 0.44759(5) 0.18750(12)
N9_5 N 0.90420(17) 0.35333(15) 0.2393(6)
C31_3 C 0.91220(8) 0.49717(9) 0.2935(2)
C32_3 C 0.88929(10) 0.51680(11) 0.3327(3)
H27_3 H 0.8676 0.5198 0.3124
C33_3 C 0.89715(13) 0.53158(13) 0.3986(4)
H28_3 H 0.8809 0.5446 0.4238
C34_3 C 0.92883(13) 0.52800(12) 0.4306(3)
H29_3 H 0.9339 0.5375 0.4782
C35_3 C 0.95254(9) 0.51016(11) 0.3905(2)
H30_3 H 0.9745 0.5087 0.4099
C36_3 C 0.94523(8) 0.49454(8) 0.3232(2)
C37_3 C 0.97203(7) 0.47778(7) 0.28351(17)
C38_5 C 0.98574(6) 0.43068(6) 0.12805(16)
C40_5 C 0.91502(15) 0.38329(13) 0.2082(4)
H34_5 H 0.9262 0.3811 0.1614
C41_3 C 0.88542(17) 0.3465(3) 0.2829(7)
H35_3 H 0.8892 0.3596 0.3284
H36_3 H 0.8630 0.3509 0.2636
H37_3 H 0.8875 0.3228 0.2948
C42_5 C 0.9143(4) 0.3191(2) 0.1910(6)
H38_5 H 0.8982 0.3158 0.1503
H39_5 H 0.9366 0.3217 0.1696
H40_5 H 0.9140 0.2999 0.2247
O11_4 O 0.88346(4) 0.44671(4) 0.10740(10)
N10_4 N 0.92364(5) 0.49472(5) 0.07698(12)
H12_5 H 0.6537 0.5275 0.9934
N6_2 N 0.69053(5) 0.60755(5) 0.80019(14)
C25_5 C 0.66980(8) 0.58430(7) 0.77897(17)
H21_6 H 0.6683 0.5792 0.7269
C26_5 C 0.65034(10) 0.56720(10) 0.8278(2)
H22_5 H 0.6366 0.5496 0.8102
C27_5 C 0.65057(12) 0.57537(11) 0.9028(3)
C28_5 C 0.67290(11) 0.59936(11) 0.9253(2)
H23_5 H 0.6745 0.6054 0.9768
C29_5 C 0.69271(9) 0.61430(8) 0.87318(19)
H24_5 H 0.7087 0.6301 0.8896
C30_5 C 0.62462(17) 0.55893(14) 0.9597(3)
H25_5 H 0.6107 0.5428 0.9318
H26_5 H 0.6098 0.5765 0.9796
Mn4_3 Mn 0.721480(9) 0.636518(9) 0.71474(2)
Mn1_6 Mn 0.715465(11) 0.710467(9) 0.50043(2)
O1_4 O 0.67441(5) 0.70143(5) 0.45771(11)
O2_6 O 0.68414(4) 0.63479(4) 0.64268(9)
O3_6 O 0.75732(4) 0.71314(4) 0.55256(10)
N1_6 N 0.70990(5) 0.67433(5) 0.57109(11)
N2_6 N 0.73753(5) 0.66896(5) 0.61873(12)
N3_4 N 0.74172(8) 0.67916(6) 0.41188(14)
C1_4 C 0.65165(8) 0.67839(7) 0.47493(17)
C2_4 C 0.62419(10) 0.67591(9) 0.4292(2)
H1_4 H 0.6219 0.6908 0.3880
C3_4 C 0.60027(10) 0.65274(11) 0.4412(2)
H2_4 H 0.5817 0.6518 0.4083
C4_6 C 0.60227(8) 0.63031(9) 0.5005(2)
H3_6 H 0.5856 0.6139 0.5079
C5_6 C 0.62964(7) 0.63277(7) 0.54889(18)
H4_6 H 0.6311 0.6183 0.5911
C6_6 C 0.65447(7) 0.65564(7) 0.53661(16)
C7_6 C 0.68412(7) 0.65506(6) 0.58719(15)
C8_6 C 0.76075(7) 0.69005(6) 0.60432(16)
C9_6 C 0.79265(7) 0.68824(7) 0.64603(18)
H5_6 H 0.7939 0.7066 0.6822
H6_6 H 0.7940 0.6670 0.6730
H7_6 H 0.8112 0.6899 0.6105
C10_4 C 0.73114(10) 0.64900(9) 0.39294(19)
H8_4 H 0.7105 0.6412 0.4123
C11_4 C 0.74967(13) 0.62848(9) 0.3451(2)
H9_4 H 0.7413 0.6069 0.3339
C12_4 C 0.77747(16) 0.63738(12) 0.3157(3)
C13_4 C 0.78920(14) 0.66914(13) 0.3355(3)
H10_4 H 0.8097 0.6771 0.3159
C14_4 C 0.77018(12) 0.68898(9) 0.3849(2)
H11_4 H 0.7784 0.7102 0.3989
C15_4 C 0.79448(19) 0.61184(14) 0.2632(4)
H12_6 H 0.7775 0.5963 0.2434
H13_4 H 0.8108 0.5987 0.2926
O4_6 O 0.74183(4) 0.59850(4) 0.67938(9)
O6_5 O 0.70643(4) 0.67741(4) 0.76018(10)
N4_5 N 0.75694(5) 0.64339(4) 0.78729(11)
N6_3 N 0.85755(5) 0.55947(5) 0.05019(14)
C16_6 C 0.76713(6) 0.58106(6) 0.70903(15)
C17_6 C 0.77424(6) 0.55020(6) 0.67729(15)
H14_6 H 0.7617 0.5428 0.6352
C18_6 C 0.79886(7) 0.53030(7) 0.70539(16)
H15_6 H 0.8027 0.5091 0.6836
C19_5 C 0.81803(6) 0.54055(6) 0.76430(15)
H16_5 H 0.8353 0.5267 0.7829
C20_5 C 0.81215(6) 0.57089(6) 0.79639(14)
H17_5 H 0.8256 0.5780 0.8374
C21_5 C 0.78656(6) 0.59194(6) 0.76989(14)
C22_5 C 0.78232(6) 0.62404(6) 0.80655(15)
C23_5 C 0.72793(7) 0.68894(7) 0.80664(17)
C24_5 C 0.72128(8) 0.72396(7) 0.83703(19)
H18_5 H 0.7384 0.7298 0.8740
H19_5 H 0.7218 0.7400 0.7954
H20_5 H 0.6993 0.7246 0.8610
C25_6 C 0.83430(7) 0.58020(8) 0.02897(17)
C26_6 C 0.81720(10) 0.59966(10) 0.0778(2)
H22_6 H 0.7996 0.6134 0.0602
C27_6 C 0.82537(11) 0.59943(12) 0.1528(3)
C28_6 C 0.84936(11) 0.57710(11) 0.1753(2)
H23_6 H 0.8554 0.5755 0.2268
C29_6 C 0.86430(8) 0.55729(9) 0.12318(19)
H24_6 H 0.8801 0.5413 0.1396
C30_6 C 0.80893(14) 0.62538(17) 0.2097(3)
H25_6 H 0.7928 0.6393 0.1818
H26_6 H 0.8265 0.6402 0.2296
O7_6 O 0.73294(5) 0.84827(4) 0.51704(13)
O8_4 O 0.72803(5) 0.74868(4) 0.43671(9)
O9_6 O 0.67943(4) 0.79555(4) 0.64562(10)
O10_6 O 0.65834(6) 0.83708(5) 0.52211(17)
N7_6 N 0.71280(5) 0.78454(5) 0.52991(13)
N8_6 N 0.69759(5) 0.75619(5) 0.56250(12)
N9_6 N 0.60333(15) 0.84580(17) 0.5107(6)
C31_4 C 0.74717(9) 0.83780(8) 0.4565(2)
C32_4 C 0.76680(11) 0.86071(10) 0.4173(3)
H27_4 H 0.7698 0.8824 0.4376
C33_4 C 0.78158(13) 0.85285(13) 0.3514(4)
H28_4 H 0.7946 0.8691 0.3262
C34_4 C 0.77800(12) 0.82117(13) 0.3194(3)
H29_4 H 0.7875 0.8161 0.2718
C35_4 C 0.76016(11) 0.79746(9) 0.3595(2)
H30_4 H 0.7587 0.7755 0.3401
C36_4 C 0.74454(8) 0.80477(8) 0.4268(2)
C37_4 C 0.72778(7) 0.77797(7) 0.46649(17)
C38_6 C 0.68068(6) 0.76426(6) 0.62195(16)
C39_6 C 0.66148(6) 0.73965(6) 0.66519(15)
H31_6 H 0.6732 0.7344 0.7120
H32_6 H 0.6589 0.7193 0.6353
H33_6 H 0.6395 0.7488 0.6770
C40_6 C 0.63329(13) 0.83498(15) 0.5418(4)
H34_6 H 0.6311 0.8238 0.5886
C41_4 C 0.5965(3) 0.86458(17) 0.4671(7)
H35_4 H 0.6096 0.8608 0.4216
H36_4 H 0.6009 0.8870 0.4864
H37_4 H 0.5728 0.8625 0.4552
C42_6 C 0.5691(2) 0.8357(4) 0.5590(6)
H38_6 H 0.5658 0.8518 0.5997
H39_6 H 0.5717 0.8134 0.5804
H40_6 H 0.5499 0.8360 0.5253
O6_6 O 0.92741(4) 0.54357(4) 0.01018(10)
N4_6 N 0.89339(4) 0.49306(5) 0.03729(11)
C19_6 C 0.79055(6) 0.43197(6) 0.01430(15)
H16_6 H 0.7767 0.4147 0.0329
C20_6 C 0.82089(6) 0.43785(6) 0.04639(14)
H17_6 H 0.8280 0.4244 0.0874
C21_6 C 0.84194(6) 0.46344(6) 0.01989(14)
C22_6 C 0.87404(6) 0.46768(6) 0.05655(15)
C23_6 C 0.93894(7) 0.52207(7) 0.05664(17)
C24_6 C 0.97396(7) 0.52872(8) 0.08703(19)
H18_6 H 0.9798 0.5116 0.1240
H19_6 H 0.9900 0.5282 0.0454
H20_6 H 0.9746 0.5507 0.1110
O5_3 O 0.88346(4) 0.94671(4) 0.89260(10)
N4_7 N 0.89339(4) 0.99306(5) 0.96271(11)
N5_3 N 0.92364(5) 0.99472(5) 0.92302(12)
C19_7 C 0.79055(6) 0.93197(6) 0.98570(15)
H16_7 H 0.7767 0.9147 0.9671
C20_7 C 0.82089(6) 0.93785(6) 0.95361(14)
H17_7 H 0.8280 0.9244 0.9126
C21_7 C 0.84194(6) 0.96344(6) 0.98011(14)
C22_7 C 0.87404(6) 0.96768(6) 0.94345(15)
Mn5_3 Mn 0.924310(9) 0.955470(10) 0.83386(3)
O7_7 O 0.90173(4) 0.98294(5) 0.76704(13)
O9_7 O 0.95445(4) 0.92943(4) 0.89562(10)
O10_7 O 0.91292(5) 0.90834(6) 0.77211(17)
N7_7 N 0.96546(5) 0.96280(5) 0.77991(13)
N8_7 N 0.99381(5) 0.94759(5) 0.81250(12)
N9_7 N 0.90420(17) 0.85333(15) 0.7607(6)
C31_5 C 0.91220(8) 0.99717(9) 0.7065(2)
C36_5 C 0.94523(8) 0.99454(8) 0.6768(2)
C37_5 C 0.97203(7) 0.97778(7) 0.71649(17)
C38_7 C 0.98574(6) 0.93068(6) 0.87195(16)
C40_7 C 0.91502(15) 0.88329(13) 0.7918(4)
H34_7 H 0.9262 0.8811 0.8386
C41_5 C 0.88542(17) 0.8465(3) 0.7171(7)
H35_5 H 0.8892 0.8596 0.6716
H36_5 H 0.8630 0.8509 0.7364
H37_5 H 0.8875 0.8228 0.7052
C42_7 C 0.9143(4) 0.8191(2) 0.8090(6)
H38_7 H 0.8982 0.8158 0.8497
H39_7 H 0.9366 0.8217 0.8304
H40_7 H 0.9140 0.7999 0.7753
H12_7 H 0.3463 0.4725 0.0066
N6_4 N 0.30947(5) 0.39245(5) 0.19981(14)
C25_7 C 0.33020(8) 0.41570(7) 0.22103(17)
H21_7 H 0.3317 0.4208 0.2731
C26_7 C 0.34966(10) 0.43280(10) 0.1722(2)
H22_7 H 0.3634 0.4504 0.1898
C27_7 C 0.34943(12) 0.42463(11) 0.0972(3)
C28_7 C 0.32710(11) 0.40064(11) 0.0747(2)
H23_7 H 0.3255 0.3946 0.0232
C29_7 C 0.30729(9) 0.38570(8) 0.12682(19)
H24_7 H 0.2913 0.3699 0.1104
C30_7 C 0.37538(17) 0.44107(14) 0.0403(3)
H25_7 H 0.3893 0.4572 0.0682
H26_7 H 0.3902 0.4235 0.0204
Mn4_4 Mn 0.278520(9) 0.363482(9) 0.28526(2)
Mn1_7 Mn 0.284535(11) 0.289533(9) 0.49957(2)
O1_5 O 0.32559(5) 0.29857(5) 0.54229(11)
O2_7 O 0.31586(4) 0.36521(4) 0.35732(9)
O3_7 O 0.24268(4) 0.28686(4) 0.44744(10)
N1_7 N 0.29010(5) 0.32567(5) 0.42891(11)
N2_7 N 0.26247(5) 0.33104(5) 0.38127(12)
N3_5 N 0.25828(8) 0.32084(6) 0.58812(14)
C1_5 C 0.34835(8) 0.32161(7) 0.52507(17)
C2_5 C 0.37581(10) 0.32409(9) 0.5708(2)
H1_5 H 0.3781 0.3092 0.6120
C3_5 C 0.39973(10) 0.34726(11) 0.5588(2)
H2_5 H 0.4183 0.3482 0.5917
C4_7 C 0.39773(8) 0.36969(9) 0.4995(2)
H3_7 H 0.4144 0.3861 0.4921
C5_7 C 0.37036(7) 0.36723(7) 0.45111(18)
H4_7 H 0.3689 0.3817 0.4089
C6_7 C 0.34553(7) 0.34436(7) 0.46339(16)
C7_7 C 0.31588(7) 0.34494(6) 0.41281(15)
C8_7 C 0.23925(7) 0.30995(6) 0.39568(16)
C9_7 C 0.20735(7) 0.31176(7) 0.35397(18)
H5_7 H 0.2061 0.2934 0.3178
H6_7 H 0.2060 0.3330 0.3270
H7_7 H 0.1888 0.3101 0.3895
C10_5 C 0.26886(10) 0.35100(9) 0.60706(19)
H8_5 H 0.2895 0.3588 0.5877
C11_5 C 0.25033(13) 0.37152(9) 0.6549(2)
H9_5 H 0.2587 0.3931 0.6661
C12_5 C 0.22253(16) 0.36262(12) 0.6843(3)
C13_5 C 0.21080(14) 0.33086(13) 0.6645(3)
H10_5 H 0.1903 0.3229 0.6841
C14_5 C 0.22982(12) 0.31102(9) 0.6151(2)
H11_5 H 0.2216 0.2898 0.6011
C15_5 C 0.20552(19) 0.38816(14) 0.7368(4)
H12_8 H 0.2225 0.4037 0.7566
H13_5 H 0.1892 0.4013 0.7074
O4_7 O 0.25817(4) 0.40150(4) 0.32062(9)
O5_4 O 0.19671(4) 0.36654(4) 0.14260(10)
O6_7 O 0.29357(4) 0.32259(4) 0.23982(10)
N4_8 N 0.24306(5) 0.35661(4) 0.21271(11)
N5_4 N 0.24472(5) 0.32636(5) 0.17302(12)
N6_5 N 0.14245(5) 0.44053(5) 0.94981(14)
C16_7 C 0.23287(6) 0.41894(6) 0.29097(15)
C17_7 C 0.22576(6) 0.44980(6) 0.32271(15)
H14_7 H 0.2383 0.4572 0.3648
C18_7 C 0.20114(7) 0.46970(7) 0.29461(16)
H15_7 H 0.1973 0.4909 0.3164
C19_8 C 0.18197(6) 0.45945(6) 0.23570(15)
H16_8 H 0.1647 0.4733 0.2171
C20_8 C 0.18785(6) 0.42911(6) 0.20361(14)
H17_8 H 0.1744 0.4220 0.1626
C21_8 C 0.21344(6) 0.40806(6) 0.23011(14)
C22_8 C 0.21768(6) 0.37596(6) 0.19345(15)
C23_7 C 0.27207(7) 0.31106(7) 0.19336(17)
C24_7 C 0.27872(8) 0.27604(7) 0.16297(19)
H18_7 H 0.2616 0.2702 0.1260
H19_7 H 0.2782 0.2600 0.2046
H20_7 H 0.3007 0.2754 0.1390
C25_8 C 0.16570(7) 0.41980(8) 0.97103(17)
C26_8 C 0.18280(10) 0.40034(10) 0.9222(2)
H22_8 H 0.2004 0.3866 0.9398
C27_8 C 0.17463(11) 0.40057(12) 0.8472(3)
C28_8 C 0.15064(11) 0.42290(11) 0.8247(2)
H23_8 H 0.1446 0.4245 0.7732
C29_8 C 0.13570(8) 0.44271(9) 0.87682(19)
H24_8 H 0.1199 0.4587 0.8604
C30_8 C 0.19107(14) 0.37462(17) 0.7903(3)
H25_8 H 0.2072 0.3607 0.8182
H26_8 H 0.1735 0.3598 0.7704
Mn3_5 Mn 0.294530(10) 0.174310(9) 0.41614(3)
O7_8 O 0.26706(5) 0.15173(4) 0.48296(13)
O8_5 O 0.27197(5) 0.25132(4) 0.56329(9)
O9_8 O 0.32057(4) 0.20445(4) 0.35438(10)
O10_8 O 0.34166(6) 0.16292(5) 0.47789(17)
N7_8 N 0.28720(5) 0.21546(5) 0.47009(13)
N8_8 N 0.30241(5) 0.24381(5) 0.43750(12)
N9_8 N 0.39667(15) 0.15420(17) 0.4893(6)
C31_6 C 0.25283(9) 0.16220(8) 0.5435(2)
C32_5 C 0.23320(11) 0.13929(10) 0.5827(3)
H27_5 H 0.2302 0.1176 0.5624
C33_5 C 0.21842(13) 0.14715(13) 0.6486(4)
H28_5 H 0.2054 0.1309 0.6738
C34_5 C 0.22200(12) 0.17883(13) 0.6806(3)
H29_5 H 0.2125 0.1839 0.7282
C35_5 C 0.23984(11) 0.20254(9) 0.6405(2)
H30_5 H 0.2413 0.2245 0.6599
C36_6 C 0.25546(8) 0.19523(8) 0.5732(2)
C37_6 C 0.27222(7) 0.22203(7) 0.53351(17)
C38_8 C 0.31932(6) 0.23574(6) 0.37805(16)
C39_7 C 0.33852(6) 0.26035(6) 0.33481(15)
H31_7 H 0.3268 0.2656 0.2880
H32_7 H 0.3411 0.2807 0.3647
H33_7 H 0.3605 0.2512 0.3230
C40_8 C 0.36671(13) 0.16502(15) 0.4582(4)
H34_8 H 0.3689 0.1762 0.4114
C41_6 C 0.4035(3) 0.13542(17) 0.5329(7)
H35_6 H 0.3904 0.1392 0.5784
H36_6 H 0.3991 0.1130 0.5136
H37_6 H 0.4272 0.1375 0.5448
C42_8 C 0.4309(2) 0.1643(4) 0.4410(6)
H38_8 H 0.4342 0.1482 0.4003
H39_8 H 0.4283 0.1866 0.4196
H40_8 H 0.4501 0.1640 0.4747
O11_5 O 0.30329(4) 0.13346(4) 0.35740(10)
N10_5 N 0.25528(5) 0.17364(5) 0.32698(12)
Mn5_4 Mn 0.205470(10) 0.325690(9) 0.08386(3)
O5_5 O 0.11654(4) 0.55329(4) 0.89260(10)
O6_8 O 0.07259(4) 0.45643(4) 0.98982(10)
N4_9 N 0.10661(4) 0.50694(5) 0.96271(11)
N5_5 N 0.07636(5) 0.50528(5) 0.92302(12)
C19_9 C 0.20945(6) 0.56803(6) 0.98570(15)
H16_9 H 0.2233 0.5853 0.9671
C20_9 C 0.17911(6) 0.56215(6) 0.95361(14)
H17_9 H 0.1720 0.5756 0.9126
C21_9 C 0.15806(6) 0.53656(6) 0.98011(14)
C22_9 C 0.12596(6) 0.53232(6) 0.94345(15)
C23_8 C 0.06106(7) 0.47793(7) 0.94336(17)
C24_8 C 0.02604(7) 0.47128(8) 0.91297(19)
H18_8 H 0.0202 0.4884 0.8760
H19_8 H 0.0100 0.4718 0.9546
H20_8 H 0.0254 0.4493 0.8890
Mn5_5 Mn 0.075690(9) 0.544530(10) 0.83386(3)
O3_8 O 0.03686(4) 0.00732(4) 0.80256(10)
C8_8 C 0.05995(6) 0.01075(7) 0.85432(16)
C9_8 C 0.06176(7) 0.04265(7) 0.89603(18)
H5_8 H 0.0434 0.0439 0.9322
H6_8 H 0.0830 0.0440 0.9230
H7_8 H 0.0601 0.0612 0.8605
C12_6 C 0.11262(12) 0.02747(16) 0.5657(3)
C13_6 C 0.08086(13) 0.03920(14) 0.5855(3)
H10_6 H 0.0729 0.0597 0.5659
C14_6 C 0.06102(9) 0.02018(12) 0.6349(2)
H11_6 H 0.0398 0.0284 0.6489
C15_6 C 0.13816(14) 0.04448(19) 0.5132(4)
H12_9 H 0.1537 0.0275 0.4934
H13_6 H 0.1513 0.0608 0.5426
N6_6 N 0.19053(5) 0.10755(5) 0.30019(14)
C16_8 C 0.16894(6) 0.01713(6) 0.95903(15)
C17_8 C 0.19980(6) 0.02424(6) 0.92729(15)
H14_8 H 0.2072 0.0117 0.8852
C18_8 C 0.21970(7) 0.04886(7) 0.95539(16)
H15_8 H 0.2409 0.0527 0.9336
C25_9 C 0.16980(8) 0.08430(7) 0.27897(17)
H21_8 H 0.1683 0.0792 0.2269
C26_9 C 0.15034(10) 0.06720(10) 0.3278(2)
H22_9 H 0.1366 0.0496 0.3102
C27_9 C 0.15057(12) 0.07537(11) 0.4028(3)
C28_9 C 0.17290(11) 0.09936(11) 0.4253(2)
H23_9 H 0.1745 0.1054 0.4768
C29_9 C 0.19271(9) 0.11430(8) 0.37318(19)
H24_9 H 0.2087 0.1301 0.3896
C30_9 C 0.12462(17) 0.05893(14) 0.4597(3)
H25_9 H 0.1107 0.0428 0.4318
H26_9 H 0.1098 0.0765 0.4796
Mn4_5 Mn 0.221480(9) 0.136518(9) 0.21474(2)
Mn1_8 Mn 0.215465(11) 0.210467(9) 0.00043(2)
O2_8 O 0.18414(4) 0.13479(4) 0.14268(9)
O3_9 O 0.25732(4) 0.21314(4) 0.05256(10)
N1_8 N 0.20990(5) 0.17433(5) 0.07109(11)
N2_8 N 0.23753(5) 0.16896(5) 0.11873(12)
C4_8 C 0.10227(8) 0.13031(9) 0.0005(2)
H3_8 H 0.0856 0.1139 0.0079
C5_8 C 0.12964(7) 0.13277(7) 0.04889(18)
H4_8 H 0.1311 0.1183 0.0911
C6_8 C 0.15447(7) 0.15564(7) 0.03661(16)
C7_8 C 0.18412(7) 0.15506(6) 0.08719(15)
C8_9 C 0.26075(7) 0.19005(6) 0.10432(16)
C9_9 C 0.29265(7) 0.18824(7) 0.14603(18)
H5_9 H 0.2939 0.2066 0.1822
H6_9 H 0.2940 0.1670 0.1730
H7_9 H 0.3112 0.1899 0.1105
O4_8 O 0.24183(4) 0.09850(4) 0.17938(9)
O6_9 O 0.20643(4) 0.17741(4) 0.26018(10)
N4_10 N 0.25694(5) 0.14339(4) 0.28729(11)
C16_9 C 0.26713(6) 0.08106(6) 0.20903(15)
C17_9 C 0.27424(6) 0.05020(6) 0.17729(15)
H14_9 H 0.2617 0.0428 0.1352
C18_9 C 0.29886(7) 0.03030(7) 0.20539(16)
H15_9 H 0.3027 0.0091 0.1836
C19_10 C 0.31803(6) 0.04055(6) 0.26430(15)
H16_10 H 0.3353 0.0267 0.2829
C20_10 C 0.31215(6) 0.07089(6) 0.29639(14)
H17_10 H 0.3256 0.0780 0.3374
C21_10 C 0.28656(6) 0.09194(6) 0.26989(14)
C22_10 C 0.28232(6) 0.12404(6) 0.30655(15)
C23_9 C 0.22793(7) 0.18894(7) 0.30664(17)
C24_9 C 0.22128(8) 0.22396(7) 0.33703(19)
H18_9 H 0.2384 0.2298 0.3740
H19_9 H 0.2218 0.2400 0.2954
H20_9 H 0.1993 0.2246 0.3610
O7_9 O 0.23294(5) 0.34827(4) 0.01704(13)
O9_9 O 0.17943(4) 0.29555(4) 0.14562(10)
O10_9 O 0.15834(6) 0.33708(5) 0.02211(17)
N7_9 N 0.21280(5) 0.28454(5) 0.02991(13)
N8_9 N 0.19759(5) 0.25619(5) 0.06250(12)
N9_9 N 0.10333(15) 0.34580(17) 0.0107(6)
C38_9 C 0.18068(6) 0.26426(6) 0.12195(16)
C39_8 C 0.16148(6) 0.23965(6) 0.16519(15)
H31_8 H 0.1732 0.2344 0.2120
H32_8 H 0.1589 0.2193 0.1353
H33_8 H 0.1395 0.2488 0.1770
C40_9 C 0.13329(13) 0.33498(15) 0.0418(4)
H34_9 H 0.1311 0.3238 0.0886
C42_9 C 0.0691(2) 0.3357(4) 0.0590(6)
H38_9 H 0.0658 0.3518 0.0997
H39_9 H 0.0717 0.3134 0.0804
H40_9 H 0.0499 0.3360 0.0253
O7_10 O 0.09827(4) 0.51706(5) 0.76704(13)
O9_10 O 0.04555(4) 0.57057(4) 0.89562(10)
O10_10 O 0.08708(5) 0.59166(6) 0.77211(17)
N7_10 N 0.03454(5) 0.53720(5) 0.77991(13)
N8_10 N 0.00619(5) 0.55241(5) 0.81250(12)
N9_10 N 0.09580(17) 0.64667(15) 0.7607(6)
C31_7 C 0.08780(8) 0.50283(9) 0.7065(2)
C32_6 C 0.11071(10) 0.48320(11) 0.6673(3)
H27_6 H 0.1324 0.4802 0.6876
C33_6 C 0.10285(13) 0.46842(13) 0.6014(4)
H28_6 H 0.1191 0.4554 0.5762
C34_6 C 0.07117(13) 0.47200(12) 0.5694(3)
H29_6 H 0.0661 0.4625 0.5218
C35_6 C 0.04746(9) 0.48984(11) 0.6095(2)
H30_6 H 0.0255 0.4913 0.5901
C36_7 C 0.05477(8) 0.50546(8) 0.6768(2)
C37_7 C 0.02797(7) 0.52222(7) 0.71649(17)
C38_10 C 0.01426(6) 0.56932(6) 0.87195(16)
C40_10 C 0.08498(15) 0.61671(13) 0.7918(4)
H34_10 H 0.0738 0.6189 0.8386
C41_7 C 0.11458(17) 0.6535(3) 0.7171(7)
H35_7 H 0.1108 0.6404 0.6716
H36_7 H 0.1370 0.6491 0.7364
H37_7 H 0.1125 0.6772 0.7052
C42_10 C 0.0857(4) 0.6809(2) 0.8090(6)
H38_10 H 0.1018 0.6842 0.8497
H39_10 H 0.0634 0.6783 0.8304
H40_10 H 0.0860 0.7001 0.7753
Mn1_9 Mn 0.460467(9) 0.534535(11) 0.74957(2)
O1_6 O 0.45143(5) 0.57559(5) 0.79229(11)
O2_9 O 0.38479(4) 0.56586(4) 0.60732(9)
O3_10 O 0.46314(4) 0.49268(4) 0.69744(10)
N1_9 N 0.42433(5) 0.54010(5) 0.67891(11)
N2_9 N 0.41896(5) 0.51247(5) 0.63127(12)
N3_6 N 0.42916(6) 0.50828(8) 0.83812(14)
C1_6 C 0.42839(7) 0.59835(8) 0.77507(17)
C2_6 C 0.42591(9) 0.62581(10) 0.8208(2)
H1_6 H 0.4408 0.6281 0.8620
C3_6 C 0.40274(11) 0.64973(10) 0.8088(2)
H2_6 H 0.4018 0.6683 0.8417
C4_9 C 0.38031(9) 0.64773(8) 0.7495(2)
H3_9 H 0.3639 0.6644 0.7421
C5_9 C 0.38277(7) 0.62036(7) 0.70111(18)
H4_9 H 0.3683 0.6189 0.6589
C6_9 C 0.40564(7) 0.59553(7) 0.71339(16)
C7_9 C 0.40506(6) 0.56588(7) 0.66281(15)
C8_10 C 0.44005(6) 0.48925(7) 0.64568(16)
C9_10 C 0.43824(7) 0.45735(7) 0.60397(18)
H5_10 H 0.4566 0.4561 0.5678
H6_10 H 0.4170 0.4560 0.5770
H7_10 H 0.4399 0.4388 0.6395
C10_6 C 0.39900(9) 0.51886(10) 0.85706(19)
H8_6 H 0.3912 0.5395 0.8377
C11_6 C 0.37848(9) 0.50033(13) 0.9049(2)
H9_6 H 0.3569 0.5087 0.9161
C12_7 C 0.38738(12) 0.47253(16) 0.9343(3)
C13_7 C 0.41914(13) 0.46080(14) 0.9145(3)
H10_7 H 0.4271 0.4403 0.9341
C14_7 C 0.43898(9) 0.47982(12) 0.8651(2)
H11_7 H 0.4602 0.4716 0.8511
C15_7 C 0.36184(14) 0.45552(19) 0.9868(4)
H13_7 H 0.3487 0.4392 0.9574
Mn2_4 Mn 0.386518(9) 0.528520(9) 0.53526(2)
O4_9 O 0.34850(4) 0.50817(4) 0.57062(9)
O5_6 O 0.38346(4) 0.44671(4) 0.39260(10)
O6_10 O 0.42741(4) 0.54357(4) 0.48982(10)
N4_11 N 0.39339(4) 0.49306(5) 0.46271(11)
N5_6 N 0.42364(5) 0.49472(5) 0.42302(12)
C16_10 C 0.33106(6) 0.48287(6) 0.54097(15)
C17_10 C 0.30020(6) 0.47576(6) 0.57271(15)
H14_10 H 0.2928 0.4883 0.6148
C18_10 C 0.28030(7) 0.45114(7) 0.54461(16)
H15_10 H 0.2591 0.4473 0.5664
C19_11 C 0.29055(6) 0.43197(6) 0.48570(15)
H16_11 H 0.2767 0.4147 0.4671
C20_11 C 0.32089(6) 0.43785(6) 0.45361(14)
H17_11 H 0.3280 0.4244 0.4126
C21_11 C 0.34194(6) 0.46344(6) 0.48011(14)
C22_11 C 0.37404(6) 0.46768(6) 0.44345(15)
C23_10 C 0.43894(7) 0.52207(7) 0.44336(17)
C24_10 C 0.47396(7) 0.52872(8) 0.41297(19)
H18_10 H 0.4798 0.5116 0.3760
H19_10 H 0.4900 0.5282 0.4546
H20_10 H 0.4746 0.5507 0.3890
Mn3_6 Mn 0.575690(9) 0.544530(10) 0.66614(3)
O7_11 O 0.59827(4) 0.51706(5) 0.73296(13)
O8_6 O 0.49868(4) 0.52197(5) 0.81329(9)
O9_11 O 0.54555(4) 0.57057(4) 0.60438(10)
O10_11 O 0.58708(5) 0.59166(6) 0.72789(17)
N7_11 N 0.53454(5) 0.53720(5) 0.72009(13)
N8_11 N 0.50619(5) 0.55241(5) 0.68750(12)
N9_11 N 0.59580(17) 0.64667(15) 0.7393(6)
C31_8 C 0.58780(8) 0.50283(9) 0.7935(2)
C32_7 C 0.61071(10) 0.48320(11) 0.8327(3)
H27_7 H 0.6324 0.4802 0.8124
C33_7 C 0.60285(13) 0.46842(13) 0.8986(4)
H28_7 H 0.6191 0.4554 0.9238
C34_7 C 0.57117(13) 0.47200(12) 0.9306(3)
H29_7 H 0.5661 0.4625 0.9782
C35_7 C 0.54746(9) 0.48984(11) 0.8905(2)
H30_7 H 0.5255 0.4913 0.9099
C36_8 C 0.55477(8) 0.50546(8) 0.8232(2)
C37_8 C 0.52797(7) 0.52222(7) 0.78351(17)
C38_11 C 0.51426(6) 0.56932(6) 0.62805(16)
C39_9 C 0.48965(6) 0.58852(6) 0.58481(15)
H31_9 H 0.4844 0.5768 0.5380
H32_9 H 0.4693 0.5911 0.6147
H33_9 H 0.4988 0.6105 0.5730
C40_11 C 0.58498(15) 0.61671(13) 0.7082(4)
H34_11 H 0.5738 0.6189 0.6614
C41_8 C 0.61458(17) 0.6535(3) 0.7829(7)
H35_8 H 0.6108 0.6404 0.8284
H36_8 H 0.6370 0.6491 0.7636
H37_8 H 0.6125 0.6772 0.7948
C42_11 C 0.5857(4) 0.6809(2) 0.6910(6)
H38_11 H 0.6018 0.6842 0.6503
H39_11 H 0.5634 0.6783 0.6696
H40_11 H 0.5860 0.7001 0.7247
O11_6 O 0.61654(4) 0.55329(4) 0.60740(10)
N10_6 N 0.57636(5) 0.50528(5) 0.57698(12)
N11_4 N 0.35755(5) 0.55947(5) 0.44981(14)
Mn5_6 Mn 0.424310(9) 0.455470(10) 0.33386(3)
O1_7 O 0.17441(5) 0.70143(5) 0.04229(11)
N3_7 N 0.24172(8) 0.67916(6) 0.08812(14)
C1_7 C 0.15165(8) 0.67839(7) 0.02507(17)
C2_7 C 0.12419(10) 0.67591(9) 0.0708(2)
H1_7 H 0.1219 0.6908 0.1120
C3_7 C 0.10027(10) 0.65274(11) 0.0588(2)
H2_7 H 0.0817 0.6518 0.0917
C10_7 C 0.23114(10) 0.64900(9) 0.10706(19)
H8_7 H 0.2105 0.6412 0.0877
C11_7 C 0.24967(13) 0.62848(9) 0.1549(2)
H9_7 H 0.2413 0.6069 0.1661
C12_8 C 0.27747(16) 0.63738(12) 0.1843(3)
C13_8 C 0.28920(14) 0.66914(13) 0.1645(3)
H10_8 H 0.3097 0.6771 0.1841
C14_8 C 0.27018(12) 0.68898(9) 0.1151(2)
H11_8 H 0.2784 0.7102 0.1011
C15_8 C 0.29448(19) 0.61184(14) 0.2368(4)
H12_10 H 0.2775 0.5963 0.2566
H13_8 H 0.3108 0.5987 0.2074
C25_10 C 0.33430(7) 0.58020(8) 0.47103(17)
H21_9 H 0.3292 0.5817 0.5231
C26_10 C 0.31720(10) 0.59966(10) 0.4222(2)
H22_10 H 0.2996 0.6134 0.4398
C27_10 C 0.32537(11) 0.59943(12) 0.3472(3)
C28_10 C 0.34936(11) 0.57710(11) 0.3247(2)
H23_10 H 0.3554 0.5755 0.2732
C29_10 C 0.36430(8) 0.55729(9) 0.37682(19)
H24_10 H 0.3801 0.5413 0.3604
C30_10 C 0.30893(14) 0.62538(17) 0.2903(3)
H25_10 H 0.2928 0.6393 0.3182
H26_10 H 0.3265 0.6402 0.2704
O8_7 O 0.22803(5) 0.74868(4) 0.06329(9)
C31_9 C 0.24717(9) 0.83780(8) 0.0435(2)
C32_8 C 0.26680(11) 0.86071(10) 0.0827(3)
H27_8 H 0.2698 0.8824 0.0624
C33_8 C 0.28158(13) 0.85285(13) 0.1486(4)
H28_8 H 0.2946 0.8691 0.1738
C34_8 C 0.27800(12) 0.82117(13) 0.1806(3)
H29_8 H 0.2875 0.8161 0.2282
C35_8 C 0.26016(11) 0.79746(9) 0.1405(2)
H30_8 H 0.2587 0.7755 0.1599
C36_9 C 0.24454(8) 0.80477(8) 0.0732(2)
C37_9 C 0.22778(7) 0.77797(7) 0.03351(17)
C41_9 C 0.0965(3) 0.86458(17) 0.0329(7)
H35_9 H 0.1096 0.8608 0.0784
H36_9 H 0.1009 0.8870 0.0136
H37_9 H 0.0728 0.8625 0.0448
Mn1_10 Mn 0.539533(9) 0.465465(11) 0.25043(2)
O1_8 O 0.54857(5) 0.42441(5) 0.20771(11)
O2_10 O 0.61521(4) 0.43414(4) 0.39268(9)
O3_11 O 0.53686(4) 0.50732(4) 0.30256(10)
N1_10 N 0.57567(5) 0.45990(5) 0.32109(11)
N2_10 N 0.58104(5) 0.48753(5) 0.36873(12)
N3_8 N 0.57084(6) 0.49172(8) 0.16188(14)
C1_8 C 0.57161(7) 0.40165(8) 0.22493(17)
C2_8 C 0.57409(9) 0.37419(10) 0.1792(2)
H1_8 H 0.5592 0.3719 0.1380
C3_8 C 0.59726(11) 0.35027(10) 0.1912(2)
H2_8 H 0.5982 0.3317 0.1583
C4_10 C 0.61969(9) 0.35227(8) 0.2505(2)
H3_10 H 0.6361 0.3356 0.2579
C5_10 C 0.61723(7) 0.37964(7) 0.29889(18)
H4_10 H 0.6317 0.3811 0.3411
C6_10 C 0.59436(7) 0.40447(7) 0.28661(16)
C7_10 C 0.59494(6) 0.43412(7) 0.33719(15)
C8_11 C 0.55995(6) 0.51075(7) 0.35432(16)
C9_11 C 0.56176(7) 0.54265(7) 0.39603(18)
H5_11 H 0.5434 0.5439 0.4322
H6_11 H 0.5830 0.5440 0.4230
H7_11 H 0.5601 0.5612 0.3605
C10_8 C 0.60100(9) 0.48114(10) 0.14294(19)
H8_8 H 0.6088 0.4605 0.1623
C11_8 C 0.62152(9) 0.49967(13) 0.0951(2)
H9_8 H 0.6431 0.4913 0.0839
C12_9 C 0.61262(12) 0.52747(16) 0.0657(3)
C13_9 C 0.58086(13) 0.53920(14) 0.0855(3)
H10_9 H 0.5729 0.5597 0.0659
C14_9 C 0.56102(9) 0.52018(12) 0.1349(2)
H11_9 H 0.5398 0.5284 0.1489
C15_9 C 0.63816(14) 0.54448(19) 0.0132(4)
H13_9 H 0.6513 0.5608 0.0426
Mn2_5 Mn 0.613482(9) 0.471480(9) 0.46474(2)
O4_10 O 0.65150(4) 0.49183(4) 0.42938(9)
O6_11 O 0.57259(4) 0.45643(4) 0.51018(10)
N4_12 N 0.60661(4) 0.50694(5) 0.53729(11)
C16_11 C 0.66894(6) 0.51713(6) 0.45903(15)
C17_11 C 0.69980(6) 0.52424(6) 0.42729(15)
H14_11 H 0.7072 0.5117 0.3852
C18_11 C 0.71970(7) 0.54886(7) 0.45539(16)
H15_11 H 0.7409 0.5527 0.4336
C19_12 C 0.70945(6) 0.56803(6) 0.51430(15)
H16_12 H 0.7233 0.5853 0.5329
C20_12 C 0.67911(6) 0.56215(6) 0.54639(14)
H17_12 H 0.6720 0.5756 0.5874
C21_12 C 0.65806(6) 0.53656(6) 0.51989(14)
C22_12 C 0.62596(6) 0.53232(6) 0.55655(15)
C23_11 C 0.56106(7) 0.47793(7) 0.55664(17)
C24_11 C 0.52604(7) 0.47128(8) 0.58703(19)
H18_11 H 0.5202 0.4884 0.6240
H19_11 H 0.5100 0.4718 0.5454
H20_11 H 0.5254 0.4493 0.6110
O7_12 O 0.40173(4) 0.48294(5) 0.26704(13)
O8_8 O 0.50132(4) 0.47803(5) 0.18671(9)
O9_12 O 0.45445(4) 0.42943(4) 0.39562(10)
O10_12 O 0.41292(5) 0.40834(6) 0.27211(17)
N7_12 N 0.46546(5) 0.46280(5) 0.27991(13)
N8_12 N 0.49381(5) 0.44759(5) 0.31250(12)
N9_12 N 0.40420(17) 0.35333(15) 0.2607(6)
C31_10 C 0.41220(8) 0.49717(9) 0.2065(2)
C32_9 C 0.38929(10) 0.51680(11) 0.1673(3)
H27_9 H 0.3676 0.5198 0.1876
C33_9 C 0.39715(13) 0.53158(13) 0.1014(4)
H28_9 H 0.3809 0.5446 0.0762
C34_9 C 0.42883(13) 0.52800(12) 0.0694(3)
H29_9 H 0.4339 0.5375 0.0218
C35_9 C 0.45254(9) 0.51016(11) 0.1095(2)
H30_9 H 0.4745 0.5087 0.0901
C36_10 C 0.44523(8) 0.49454(8) 0.1768(2)
C37_10 C 0.47203(7) 0.47778(7) 0.21649(17)
C38_12 C 0.48574(6) 0.43068(6) 0.37195(16)
C39_10 C 0.51035(6) 0.41148(6) 0.41519(15)
H31_10 H 0.5156 0.4232 0.4620
H32_10 H 0.5307 0.4089 0.3853
H33_10 H 0.5012 0.3895 0.4270
C40_12 C 0.41502(15) 0.38329(13) 0.2918(4)
H34_12 H 0.4262 0.3811 0.3386
C41_10 C 0.38542(17) 0.3465(3) 0.2171(7)
H35_10 H 0.3892 0.3596 0.1716
H36_10 H 0.3630 0.3509 0.2364
H37_10 H 0.3875 0.3228 0.2052
C42_12 C 0.4143(4) 0.3191(2) 0.3090(6)
H38_12 H 0.3982 0.3158 0.3497
H39_12 H 0.4366 0.3217 0.3304
H40_12 H 0.4140 0.2999 0.2753
N11_5 N 0.64245(5) 0.44053(5) 0.55019(14)
O1_9 O 0.82559(5) 0.29857(5) 0.95771(11)
N3_9 N 0.75828(8) 0.32084(6) 0.91188(14)
C1_9 C 0.84835(8) 0.32161(7) 0.97493(17)
C2_9 C 0.87581(10) 0.32409(9) 0.9292(2)
H1_9 H 0.8781 0.3092 0.8880
C3_9 C 0.89973(10) 0.34726(11) 0.9412(2)
H2_9 H 0.9183 0.3482 0.9083
C10_9 C 0.76886(10) 0.35100(9) 0.89294(19)
H8_9 H 0.7895 0.3588 0.9123
C11_9 C 0.75033(13) 0.37152(9) 0.8451(2)
H9_9 H 0.7587 0.3931 0.8339
C12_10 C 0.72253(16) 0.36262(12) 0.8157(3)
C13_10 C 0.71080(14) 0.33086(13) 0.8355(3)
H10_10 H 0.6903 0.3229 0.8159
C14_10 C 0.72982(12) 0.31102(9) 0.8849(2)
H11_10 H 0.7216 0.2898 0.8989
C15_10 C 0.70552(19) 0.38816(14) 0.7632(4)
H12_11 H 0.7225 0.4037 0.7434
H13_10 H 0.6892 0.4013 0.7926
C25_11 C 0.66570(7) 0.41980(8) 0.52897(17)
H21_10 H 0.6708 0.4183 0.4769
C26_11 C 0.68280(10) 0.40034(10) 0.5778(2)
H22_11 H 0.7004 0.3866 0.5602
C27_11 C 0.67463(11) 0.40057(12) 0.6528(3)
C28_11 C 0.65064(11) 0.42290(11) 0.6753(2)
H23_11 H 0.6446 0.4245 0.7268
C29_11 C 0.63570(8) 0.44271(9) 0.62318(19)
H24_11 H 0.6199 0.4587 0.6396
C30_11 C 0.69107(14) 0.37462(17) 0.7097(3)
H25_11 H 0.7072 0.3607 0.6818
H26_11 H 0.6735 0.3598 0.7296
O8_9 O 0.77197(5) 0.25132(4) 0.93671(9)
C31_11 C 0.75283(9) 0.16220(8) 0.9565(2)
C32_10 C 0.73320(11) 0.13929(10) 0.9173(3)
H27_10 H 0.7302 0.1176 0.9376
C33_10 C 0.71842(13) 0.14715(13) 0.8514(4)
H28_10 H 0.7054 0.1309 0.8262
C34_10 C 0.72200(12) 0.17883(13) 0.8194(3)
H29_10 H 0.7125 0.1839 0.7718
C35_10 C 0.73984(11) 0.20254(9) 0.8595(2)
H30_10 H 0.7413 0.2245 0.8401
C36_11 C 0.75546(8) 0.19523(8) 0.9268(2)
C37_11 C 0.77222(7) 0.22203(7) 0.96649(17)
C41_11 C 0.9035(3) 0.13542(17) 0.9671(7)
H35_11 H 0.8904 0.1392 0.9216
H36_11 H 0.8991 0.1130 0.9864
H37_11 H 0.9272 0.1375 0.9552
Mn1_11 Mn 0.215465(11) 0.710467(9) 0.99957(2)
O2_11 O 0.18414(4) 0.63479(4) 0.85732(9)
O3_12 O 0.25732(4) 0.71314(4) 0.94744(10)
N1_11 N 0.20990(5) 0.67433(5) 0.92891(11)
N2_11 N 0.23753(5) 0.66896(5) 0.88127(12)
C4_11 C 0.10227(8) 0.63031(9) 0.9995(2)
H3_11 H 0.0856 0.6139 0.9921
C5_11 C 0.12964(7) 0.63277(7) 0.95111(18)
H4_11 H 0.1311 0.6183 0.9089
C6_11 C 0.15447(7) 0.65564(7) 0.96339(16)
C7_11 C 0.18412(7) 0.65506(6) 0.91281(15)
C8_12 C 0.26075(7) 0.69005(6) 0.89568(16)
C9_12 C 0.29265(7) 0.68824(7) 0.85397(18)
H5_12 H 0.2939 0.7066 0.8178
H6_12 H 0.2940 0.6670 0.8270
H7_12 H 0.3112 0.6899 0.8895
Mn2_6 Mn 0.221480(9) 0.636518(9) 0.78526(2)
O4_11 O 0.24183(4) 0.59850(4) 0.82062(9)
O5_7 O 0.30329(4) 0.63346(4) 0.64260(10)
O6_12 O 0.20643(4) 0.67741(4) 0.73982(10)
N4_13 N 0.25694(5) 0.64339(4) 0.71271(11)
N5_7 N 0.25528(5) 0.67364(5) 0.67302(12)
C16_12 C 0.26713(6) 0.58106(6) 0.79097(15)
C17_12 C 0.27424(6) 0.55020(6) 0.82271(15)
H14_12 H 0.2617 0.5428 0.8648
C18_12 C 0.29886(7) 0.53030(7) 0.79461(16)
H15_12 H 0.3027 0.5091 0.8164
C19_13 C 0.31803(6) 0.54055(6) 0.73570(15)
H16_13 H 0.3353 0.5267 0.7171
C20_13 C 0.31215(6) 0.57089(6) 0.70361(14)
H17_13 H 0.3256 0.5780 0.6626
C21_13 C 0.28656(6) 0.59194(6) 0.73011(14)
C22_13 C 0.28232(6) 0.62404(6) 0.69345(15)
C23_12 C 0.22793(7) 0.68894(7) 0.69336(17)
C24_12 C 0.22128(8) 0.72396(7) 0.66297(19)
H18_12 H 0.2384 0.7298 0.6260
H19_12 H 0.2218 0.7400 0.7046
H20_12 H 0.1993 0.7246 0.6390
Mn3_7 Mn 0.205470(10) 0.825690(9) 0.91614(3)
O7_13 O 0.23294(5) 0.84827(4) 0.98296(13)
O9_13 O 0.17943(4) 0.79555(4) 0.85438(10)
O10_13 O 0.15834(6) 0.83708(5) 0.97789(17)
N7_13 N 0.21280(5) 0.78454(5) 0.97009(13)
N8_13 N 0.19759(5) 0.75619(5) 0.93750(12)
N9_13 N 0.10333(15) 0.84580(17) 0.9893(6)
C38_13 C 0.18068(6) 0.76426(6) 0.87805(16)
C39_11 C 0.16148(6) 0.73965(6) 0.83481(15)
H31_11 H 0.1732 0.7344 0.7880
H32_11 H 0.1589 0.7193 0.8647
H33_11 H 0.1395 0.7488 0.8230
C40_13 C 0.13329(13) 0.83498(15) 0.9582(4)
H34_13 H 0.1311 0.8238 0.9114
C42_13 C 0.0691(2) 0.8357(4) 0.9410(6)
H38_13 H 0.0658 0.8518 0.9003
H39_13 H 0.0717 0.8134 0.9196
H40_13 H 0.0499 0.8360 0.9747
O11_7 O 0.19671(4) 0.86654(4) 0.85740(10)
N10_7 N 0.24472(5) 0.82636(5) 0.82698(12)
N11_6 N 0.19053(5) 0.60755(5) 0.69981(14)
Mn5_7 Mn 0.294530(10) 0.674310(9) 0.58386(3)
H21_11 H 0.1708 0.4183 0.0231
Mn4_6 Mn 0.113482(9) 0.471480(9) 0.03526(2)
Mn1_12 Mn 0.039533(9) 0.465465(11) 0.24957(2)
O1_10 O 0.04857(5) 0.42441(5) 0.29229(11)
O2_12 O 0.11521(4) 0.43414(4) 0.10732(9)
O3_13 O 0.03686(4) 0.50732(4) 0.19744(10)
N1_12 N 0.07567(5) 0.45990(5) 0.17891(11)
N2_12 N 0.08104(5) 0.48753(5) 0.13127(12)
N3_10 N 0.07084(6) 0.49172(8) 0.33812(14)
C1_10 C 0.07161(7) 0.40165(8) 0.27507(17)
C2_10 C 0.07409(9) 0.37419(10) 0.3208(2)
H1_10 H 0.0592 0.3719 0.3620
C3_10 C 0.09726(11) 0.35027(10) 0.3088(2)
H2_10 H 0.0982 0.3317 0.3417
C4_12 C 0.11969(9) 0.35227(8) 0.2495(2)
H3_12 H 0.1361 0.3356 0.2421
C5_12 C 0.11723(7) 0.37964(7) 0.20111(18)
H4_12 H 0.1317 0.3811 0.1589
C6_12 C 0.09436(7) 0.40447(7) 0.21339(16)
C7_12 C 0.09494(6) 0.43412(7) 0.16281(15)
C8_13 C 0.05995(6) 0.51075(7) 0.14568(16)
C9_13 C 0.06176(7) 0.54265(7) 0.10397(18)
H5_13 H 0.0434 0.5439 0.0678
H6_13 H 0.0830 0.5440 0.0770
H7_13 H 0.0601 0.5612 0.1395
C10_10 C 0.10100(9) 0.48114(10) 0.35706(19)
H8_10 H 0.1088 0.4605 0.3377
C11_10 C 0.12152(9) 0.49967(13) 0.4049(2)
H9_10 H 0.1431 0.4913 0.4161
C12_11 C 0.11262(12) 0.52747(16) 0.4343(3)
C13_11 C 0.08086(13) 0.53920(14) 0.4145(3)
H10_11 H 0.0729 0.5597 0.4341
C14_11 C 0.06102(9) 0.52018(12) 0.3651(2)
H11_11 H 0.0398 0.5284 0.3511
C15_11 C 0.13816(14) 0.54448(19) 0.4868(4)
H12_12 H 0.1537 0.5275 0.5066
H13_11 H 0.1513 0.5608 0.4574
O4_12 O 0.15150(4) 0.49183(4) 0.07062(9)
C16_13 C 0.16894(6) 0.51713(6) 0.04097(15)
C17_13 C 0.19980(6) 0.52424(6) 0.07271(15)
H14_13 H 0.2072 0.5117 0.1148
C18_13 C 0.21970(7) 0.54886(7) 0.04461(16)
H15_13 H 0.2409 0.5527 0.0664
C25_12 C 0.16980(8) 0.58430(7) 0.72103(17)
H21_12 H 0.1683 0.5792 0.7731
C26_12 C 0.15034(10) 0.56720(10) 0.6722(2)
H22_12 H 0.1366 0.5496 0.6898
C27_12 C 0.15057(12) 0.57537(11) 0.5972(3)
C28_12 C 0.17290(11) 0.59936(11) 0.5747(2)
H23_12 H 0.1745 0.6054 0.5232
C29_12 C 0.19271(9) 0.61430(8) 0.62682(19)
H24_12 H 0.2087 0.6301 0.6104
C30_12 C 0.12462(17) 0.55893(14) 0.5403(3)
H25_12 H 0.1107 0.5428 0.5682
H26_12 H 0.1098 0.5765 0.5204
O8_10 O 0.00132(4) 0.47803(5) 0.31329(9)
C39_12 C 0.01035(6) 0.41148(6) 0.08481(15)
H31_12 H 0.0156 0.4232 0.0380
H32_12 H 0.0307 0.4089 0.1147
H33_12 H 0.0012 0.3895 0.0730
O6_13 O 0.07259(4) 0.95643(4) 0.01018(10)
C23_13 C 0.06106(7) 0.97793(7) 0.05664(17)
C24_13 C 0.02604(7) 0.97128(8) 0.08703(19)
H18_13 H 0.0202 0.9884 0.1240
H19_13 H 0.0100 0.9718 0.0454
H20_13 H 0.0254 0.9493 0.1110
N11_7 N 0.14245(5) 0.94053(5) 0.05019(14)
Mn1_13 Mn 0.284535(11) 0.789533(9) 0.50043(2)
O1_11 O 0.32559(5) 0.79857(5) 0.45771(11)
O2_13 O 0.31586(4) 0.86521(4) 0.64268(9)
O3_14 O 0.24268(4) 0.78686(4) 0.55256(10)
N1_13 N 0.29010(5) 0.82567(5) 0.57109(11)
N2_13 N 0.26247(5) 0.83104(5) 0.61873(12)
N3_11 N 0.25828(8) 0.82084(6) 0.41188(14)
C1_11 C 0.34835(8) 0.82161(7) 0.47493(17)
C2_11 C 0.37581(10) 0.82409(9) 0.4292(2)
H1_11 H 0.3781 0.8092 0.3880
C3_11 C 0.39973(10) 0.84726(11) 0.4412(2)
H2_11 H 0.4183 0.8482 0.4083
C4_13 C 0.39773(8) 0.86969(9) 0.5005(2)
H3_13 H 0.4144 0.8861 0.5079
C5_13 C 0.37036(7) 0.86723(7) 0.54889(18)
H4_13 H 0.3689 0.8817 0.5911
C6_13 C 0.34553(7) 0.84436(7) 0.53661(16)
C7_13 C 0.31588(7) 0.84494(6) 0.58719(15)
C8_14 C 0.23925(7) 0.80995(6) 0.60432(16)
C9_14 C 0.20735(7) 0.81176(7) 0.64603(18)
H5_14 H 0.2061 0.7934 0.6822
H6_14 H 0.2060 0.8330 0.6730
H7_14 H 0.1888 0.8101 0.6105
C10_11 C 0.26886(10) 0.85100(9) 0.39294(19)
H8_11 H 0.2895 0.8588 0.4123
C11_11 C 0.25033(13) 0.87152(9) 0.3451(2)
H9_11 H 0.2587 0.8931 0.3339
C12_12 C 0.22253(16) 0.86262(12) 0.3157(3)
C13_12 C 0.21080(14) 0.83086(13) 0.3355(3)
H10_12 H 0.1903 0.8229 0.3159
C14_12 C 0.22982(12) 0.81102(9) 0.3849(2)
H11_12 H 0.2216 0.7898 0.3989
C15_12 C 0.20552(19) 0.88816(14) 0.2632(4)
H12_13 H 0.2225 0.9037 0.2434
H13_12 H 0.1892 0.9013 0.2926
Mn2_7 Mn 0.278520(9) 0.863482(9) 0.71474(2)
O4_13 O 0.25817(4) 0.90150(4) 0.67938(9)
O6_14 O 0.29357(4) 0.82259(4) 0.76018(10)
N4_14 N 0.24306(5) 0.85661(4) 0.78729(11)
C16_14 C 0.23287(6) 0.91894(6) 0.70903(15)
C17_14 C 0.22576(6) 0.94980(6) 0.67729(15)
H14_14 H 0.2383 0.9572 0.6352
C18_14 C 0.20114(7) 0.96970(7) 0.70539(16)
H15_14 H 0.1973 0.9909 0.6836
C19_14 C 0.18197(6) 0.95945(6) 0.76430(15)
H16_14 H 0.1647 0.9733 0.7829
C20_14 C 0.18785(6) 0.92911(6) 0.79639(14)
H17_14 H 0.1744 0.9220 0.8374
C21_14 C 0.21344(6) 0.90806(6) 0.76989(14)
C22_14 C 0.21768(6) 0.87596(6) 0.80655(15)
C23_14 C 0.27207(7) 0.81106(7) 0.80664(17)
C24_14 C 0.27872(8) 0.77604(7) 0.83703(19)
H18_14 H 0.2616 0.7702 0.8740
H19_14 H 0.2782 0.7600 0.7954
H20_14 H 0.3007 0.7754 0.8610
C25_13 C 0.16570(7) 0.91980(8) 0.02897(17)
C26_13 C 0.18280(10) 0.90034(10) 0.0778(2)
H22_13 H 0.2004 0.8866 0.0602
C27_13 C 0.17463(11) 0.90057(12) 0.1528(3)
C28_13 C 0.15064(11) 0.92290(11) 0.1753(2)
H23_13 H 0.1446 0.9245 0.2268
C29_13 C 0.13570(8) 0.94271(9) 0.12318(19)
H24_13 H 0.1199 0.9587 0.1396
C30_13 C 0.19107(14) 0.87462(17) 0.2097(3)
H25_13 H 0.2072 0.8607 0.1818
H26_13 H 0.1735 0.8598 0.2296
O7_14 O 0.26706(5) 0.65173(4) 0.51704(13)
O8_11 O 0.27197(5) 0.75132(4) 0.43671(9)
O9_14 O 0.32057(4) 0.70445(4) 0.64562(10)
O10_14 O 0.34166(6) 0.66292(5) 0.52211(17)
N7_14 N 0.28720(5) 0.71546(5) 0.52991(13)
N8_14 N 0.30241(5) 0.74381(5) 0.56250(12)
N9_14 N 0.39667(15) 0.65420(17) 0.5107(6)
C31_12 C 0.25283(9) 0.66220(8) 0.4565(2)
C32_11 C 0.23320(11) 0.63929(10) 0.4173(3)
H27_11 H 0.2302 0.6176 0.4376
C33_11 C 0.21842(13) 0.64715(13) 0.3514(4)
H28_11 H 0.2054 0.6309 0.3262
C34_11 C 0.22200(12) 0.67883(13) 0.3194(3)
H29_11 H 0.2125 0.6839 0.2718
C35_11 C 0.23984(11) 0.70254(9) 0.3595(2)
H30_11 H 0.2413 0.7245 0.3401
C36_12 C 0.25546(8) 0.69523(8) 0.4268(2)
C37_12 C 0.27222(7) 0.72203(7) 0.46649(17)
C38_14 C 0.31932(6) 0.73574(6) 0.62195(16)
C39_13 C 0.33852(6) 0.76035(6) 0.66519(15)
H31_13 H 0.3268 0.7656 0.7120
H32_13 H 0.3411 0.7807 0.6353
H33_13 H 0.3605 0.7512 0.6770
C40_14 C 0.36671(13) 0.66502(15) 0.5418(4)
H34_14 H 0.3689 0.6762 0.5886
C41_12 C 0.4035(3) 0.63542(17) 0.4671(7)
H35_12 H 0.3904 0.6392 0.4216
H36_12 H 0.3991 0.6130 0.4864
H37_12 H 0.4272 0.6375 0.4552
C42_14 C 0.4309(2) 0.6643(4) 0.5590(6)
H38_14 H 0.4342 0.6482 0.5997
H39_14 H 0.4283 0.6866 0.5804
H40_14 H 0.4501 0.6640 0.5253
N11_8 N 0.30947(5) 0.89245(5) 0.80019(14)
H12_14 H 0.3463 0.9725 0.9934
C25_14 C 0.33020(8) 0.91570(7) 0.77897(17)
H21_13 H 0.3317 0.9208 0.7269
C26_14 C 0.34966(10) 0.93280(10) 0.8278(2)
H22_14 H 0.3634 0.9504 0.8102
C27_14 C 0.34943(12) 0.92463(11) 0.9028(3)
C28_14 C 0.32710(11) 0.90064(11) 0.9253(2)
H23_14 H 0.3255 0.8946 0.9768
C29_14 C 0.30729(9) 0.88570(8) 0.87318(19)
H24_14 H 0.2913 0.8699 0.8896
C30_14 C 0.37538(17) 0.94107(14) 0.9597(3)
H25_14 H 0.3893 0.9572 0.9318
H26_14 H 0.3902 0.9235 0.9796
O3_15 O 0.53686(4) 0.00732(4) 0.69744(10)
C8_15 C 0.55995(6) 0.01075(7) 0.64568(16)
C9_15 C 0.56176(7) 0.04265(7) 0.60397(18)
H5_15 H 0.5434 0.0439 0.5678
H6_15 H 0.5830 0.0440 0.5770
H7_15 H 0.5601 0.0612 0.6395
C12_13 C 0.61262(12) 0.02747(16) 0.9343(3)
C13_13 C 0.58086(13) 0.03920(14) 0.9145(3)
H10_13 H 0.5729 0.0597 0.9341
C14_13 C 0.56102(9) 0.02018(12) 0.8651(2)
H11_13 H 0.5398 0.0284 0.8511
C15_13 C 0.63816(14) 0.04448(19) 0.9868(4)
H13_13 H 0.6513 0.0608 0.9574
O5_8 O 0.61654(4) 0.05329(4) 0.39260(10)
N4_15 N 0.60661(4) 0.00694(5) 0.46271(11)
N5_8 N 0.57636(5) 0.00528(5) 0.42302(12)
C16_15 C 0.66894(6) 0.01713(6) 0.54097(15)
C17_15 C 0.69980(6) 0.02424(6) 0.57271(15)
H14_15 H 0.7072 0.0117 0.6148
C18_15 C 0.71970(7) 0.04886(7) 0.54461(16)
H15_15 H 0.7409 0.0527 0.5664
C19_15 C 0.70945(6) 0.06803(6) 0.48570(15)
H16_15 H 0.7233 0.0853 0.4671
C20_15 C 0.67911(6) 0.06215(6) 0.45361(14)
H17_15 H 0.6720 0.0756 0.4126
C21_15 C 0.65806(6) 0.03656(6) 0.48011(14)
C22_15 C 0.62596(6) 0.03232(6) 0.44345(15)
C32_12 C 0.38929(10) 0.01680(11) 0.8327(3)
H27_12 H 0.3676 0.0198 0.8124
C33_12 C 0.39715(13) 0.03158(13) 0.8986(4)
H28_12 H 0.3809 0.0446 0.9238
C34_12 C 0.42883(13) 0.02800(12) 0.9306(3)
H29_12 H 0.4339 0.0375 0.9782
C35_12 C 0.45254(9) 0.01016(11) 0.8905(2)
H30_12 H 0.4745 0.0087 0.9099
Mn5_8 Mn 0.575690(9) 0.044530(10) 0.33386(3)
Mn1_14 Mn 0.460467(9) 0.034535(11) 0.25043(2)
O1_12 O 0.45143(5) 0.07559(5) 0.20771(11)
O2_14 O 0.38479(4) 0.06586(4) 0.39268(9)
N1_14 N 0.42433(5) 0.04010(5) 0.32109(11)
N2_14 N 0.41896(5) 0.01247(5) 0.36873(12)
N3_12 N 0.42916(6) 0.00828(8) 0.16188(14)
C1_12 C 0.42839(7) 0.09835(8) 0.22493(17)
C2_12 C 0.42591(9) 0.12581(10) 0.1792(2)
H1_12 H 0.4408 0.1281 0.1380
C3_12 C 0.40274(11) 0.14973(10) 0.1912(2)
H2_12 H 0.4018 0.1683 0.1583
C4_14 C 0.38031(9) 0.14773(8) 0.2505(2)
H3_14 H 0.3639 0.1644 0.2579
C5_14 C 0.38277(7) 0.12036(7) 0.29889(18)
H4_14 H 0.3683 0.1189 0.3411
C6_14 C 0.40564(7) 0.09553(7) 0.28661(16)
C7_14 C 0.40506(6) 0.06588(7) 0.33719(15)
C10_12 C 0.39900(9) 0.01886(10) 0.14294(19)
H8_12 H 0.3912 0.0395 0.1623
C11_12 C 0.37848(9) 0.00033(13) 0.0951(2)
H9_12 H 0.3569 0.0087 0.0839
Mn2_8 Mn 0.386518(9) 0.028520(9) 0.46474(2)
O4_14 O 0.34850(4) 0.00817(4) 0.42938(9)
O6_15 O 0.42741(4) 0.04357(4) 0.51018(10)
C23_15 C 0.43894(7) 0.02207(7) 0.55664(17)
C24_15 C 0.47396(7) 0.02872(8) 0.58703(19)
H18_15 H 0.4798 0.0116 0.6240
H19_15 H 0.4900 0.0282 0.5454
H20_15 H 0.4746 0.0507 0.6110
O7_15 O 0.59827(4) 0.01706(5) 0.26704(13)
O8_12 O 0.49868(4) 0.02197(5) 0.18671(9)
O9_15 O 0.54555(4) 0.07057(4) 0.39562(10)
O10_15 O 0.58708(5) 0.09166(6) 0.27211(17)
N7_15 N 0.53454(5) 0.03720(5) 0.27991(13)
N8_15 N 0.50619(5) 0.05241(5) 0.31250(12)
N9_15 N 0.59580(17) 0.14667(15) 0.2607(6)
C31_13 C 0.58780(8) 0.00283(9) 0.2065(2)
C36_13 C 0.55477(8) 0.00546(8) 0.1768(2)
C37_13 C 0.52797(7) 0.02222(7) 0.21649(17)
C38_15 C 0.51426(6) 0.06932(6) 0.37195(16)
C39_14 C 0.48965(6) 0.08852(6) 0.41519(15)
H31_14 H 0.4844 0.0768 0.4620
H32_14 H 0.4693 0.0911 0.3853
H33_14 H 0.4988 0.1105 0.4270
C40_15 C 0.58498(15) 0.11671(13) 0.2918(4)
H34_15 H 0.5738 0.1189 0.3386
C41_13 C 0.61458(17) 0.1535(3) 0.2171(7)
H35_13 H 0.6108 0.1404 0.1716
H36_13 H 0.6370 0.1491 0.2364
H37_13 H 0.6125 0.1772 0.2052
C42_15 C 0.5857(4) 0.1809(2) 0.3090(6)
H38_15 H 0.6018 0.1842 0.3497
H39_15 H 0.5634 0.1783 0.3304
H40_15 H 0.5860 0.2001 0.2753
N11_9 N 0.35755(5) 0.05947(5) 0.55019(14)
O1_13 O 0.17441(5) 0.20143(5) 0.95771(11)
N3_13 N 0.24172(8) 0.17916(6) 0.91188(14)
C1_13 C 0.15165(8) 0.17839(7) 0.97493(17)
C2_13 C 0.12419(10) 0.17591(9) 0.9292(2)
H1_13 H 0.1219 0.1908 0.8880
C3_13 C 0.10027(10) 0.15274(11) 0.9412(2)
H2_13 H 0.0817 0.1518 0.9083
C10_13 C 0.23114(10) 0.14900(9) 0.89294(19)
H8_13 H 0.2105 0.1412 0.9123
C11_13 C 0.24967(13) 0.12848(9) 0.8451(2)
H9_13 H 0.2413 0.1069 0.8339
C12_14 C 0.27747(16) 0.13738(12) 0.8157(3)
C13_14 C 0.28920(14) 0.16914(13) 0.8355(3)
H10_14 H 0.3097 0.1771 0.8159
C14_14 C 0.27018(12) 0.18898(9) 0.8849(2)
H11_14 H 0.2784 0.2102 0.8989
C15_14 C 0.29448(19) 0.11184(14) 0.7632(4)
H12_15 H 0.2775 0.0963 0.7434
H13_14 H 0.3108 0.0987 0.7926
C25_15 C 0.33430(7) 0.08020(8) 0.52897(17)
H21_14 H 0.3292 0.0817 0.4769
C26_15 C 0.31720(10) 0.09966(10) 0.5778(2)
H22_15 H 0.2996 0.1134 0.5602
C27_15 C 0.32537(11) 0.09943(12) 0.6528(3)
C28_15 C 0.34936(11) 0.07710(11) 0.6753(2)
H23_15 H 0.3554 0.0755 0.7268
C29_15 C 0.36430(8) 0.05729(9) 0.62318(19)
H24_15 H 0.3801 0.0413 0.6396
C30_15 C 0.30893(14) 0.12538(17) 0.7097(3)
H25_15 H 0.2928 0.1393 0.6818
H26_15 H 0.3265 0.1402 0.7296
O8_13 O 0.22803(5) 0.24868(4) 0.93671(9)
C31_14 C 0.24717(9) 0.33780(8) 0.9565(2)
C32_13 C 0.26680(11) 0.36071(10) 0.9173(3)
H27_13 H 0.2698 0.3824 0.9376
C33_13 C 0.28158(13) 0.35285(13) 0.8514(4)
H28_13 H 0.2946 0.3691 0.8262
C34_13 C 0.27800(12) 0.32117(13) 0.8194(3)
H29_13 H 0.2875 0.3161 0.7718
C35_13 C 0.26016(11) 0.29746(9) 0.8595(2)
H30_13 H 0.2587 0.2755 0.8401
C36_14 C 0.24454(8) 0.30477(8) 0.9268(2)
C37_14 C 0.22778(7) 0.27797(7) 0.96649(17)
C41_14 C 0.0965(3) 0.36458(17) 0.9671(7)
H35_14 H 0.1096 0.3608 0.9216
H36_14 H 0.1009 0.3870 0.9864
H37_14 H 0.0728 0.3625 0.9552
Mn1_15 Mn 0.539533(9) 0.965465(11) 0.74957(2)
O1_14 O 0.54857(5) 0.92441(5) 0.79229(11)
O2_15 O 0.61521(4) 0.93414(4) 0.60732(9)
N1_15 N 0.57567(5) 0.95990(5) 0.67891(11)
N2_15 N 0.58104(5) 0.98753(5) 0.63127(12)
N3_14 N 0.57084(6) 0.99172(8) 0.83812(14)
C1_14 C 0.57161(7) 0.90165(8) 0.77507(17)
C2_14 C 0.57409(9) 0.87419(10) 0.8208(2)
H1_14 H 0.5592 0.8719 0.8620
C3_14 C 0.59726(11) 0.85027(10) 0.8088(2)
H2_14 H 0.5982 0.8317 0.8417
C4_15 C 0.61969(9) 0.85227(8) 0.7495(2)
H3_15 H 0.6361 0.8356 0.7421
C5_15 C 0.61723(7) 0.87964(7) 0.70111(18)
H4_15 H 0.6317 0.8811 0.6589
C6_15 C 0.59436(7) 0.90447(7) 0.71339(16)
C7_15 C 0.59494(6) 0.93412(7) 0.66281(15)
C10_14 C 0.60100(9) 0.98114(10) 0.85706(19)
H8_14 H 0.6088 0.9605 0.8377
C11_14 C 0.62152(9) 0.99967(13) 0.9049(2)
H9_14 H 0.6431 0.9913 0.9161
Mn2_9 Mn 0.613482(9) 0.971480(9) 0.53526(2)
O4_15 O 0.65150(4) 0.99183(4) 0.57062(9)
O6_16 O 0.57259(4) 0.95643(4) 0.48982(10)
C23_16 C 0.56106(7) 0.97793(7) 0.44336(17)
C24_16 C 0.52604(7) 0.97128(8) 0.41297(19)
H18_16 H 0.5202 0.9884 0.3760
H19_16 H 0.5100 0.9718 0.4546
H20_16 H 0.5254 0.9493 0.3890
Mn3_8 Mn 0.424310(9) 0.955470(10) 0.66614(3)
O7_16 O 0.40173(4) 0.98294(5) 0.73296(13)
O8_14 O 0.50132(4) 0.97803(5) 0.81329(9)
O9_16 O 0.45445(4) 0.92943(4) 0.60438(10)
O10_16 O 0.41292(5) 0.90834(6) 0.72789(17)
N7_16 N 0.46546(5) 0.96280(5) 0.72009(13)
N8_16 N 0.49381(5) 0.94759(5) 0.68750(12)
N9_16 N 0.40420(17) 0.85333(15) 0.7393(6)
C31_15 C 0.41220(8) 0.99717(9) 0.7935(2)
C36_15 C 0.44523(8) 0.99454(8) 0.8232(2)
C37_15 C 0.47203(7) 0.97778(7) 0.78351(17)
C38_16 C 0.48574(6) 0.93068(6) 0.62805(16)
C39_15 C 0.51035(6) 0.91148(6) 0.58481(15)
H31_15 H 0.5156 0.9232 0.5380
H32_15 H 0.5307 0.9089 0.6147
H33_15 H 0.5012 0.8895 0.5730
C40_16 C 0.41502(15) 0.88329(13) 0.7082(4)
H34_16 H 0.4262 0.8811 0.6614
C41_15 C 0.38542(17) 0.8465(3) 0.7829(7)
H35_15 H 0.3892 0.8596 0.8284
H36_15 H 0.3630 0.8509 0.7636
H37_15 H 0.3875 0.8228 0.7948
C42_16 C 0.4143(4) 0.8191(2) 0.6910(6)
H38_16 H 0.3982 0.8158 0.6503
H39_16 H 0.4366 0.8217 0.6696
H40_16 H 0.4140 0.7999 0.7247
O11_8 O 0.38346(4) 0.94671(4) 0.60740(10)
N10_8 N 0.42364(5) 0.99472(5) 0.57698(12)
N11_10 N 0.64245(5) 0.94053(5) 0.44981(14)
O1_15 O 0.82559(5) 0.79857(5) 0.04229(11)
N3_15 N 0.75828(8) 0.82084(6) 0.08812(14)
C1_15 C 0.84835(8) 0.82161(7) 0.02507(17)
C2_15 C 0.87581(10) 0.82409(9) 0.0708(2)
H1_15 H 0.8781 0.8092 0.1120
C3_15 C 0.89973(10) 0.84726(11) 0.0588(2)
H2_15 H 0.9183 0.8482 0.0917
C10_15 C 0.76886(10) 0.85100(9) 0.10706(19)
H8_15 H 0.7895 0.8588 0.0877
C11_15 C 0.75033(13) 0.87152(9) 0.1549(2)
H9_15 H 0.7587 0.8931 0.1661
C12_15 C 0.72253(16) 0.86262(12) 0.1843(3)
C13_15 C 0.71080(14) 0.83086(13) 0.1645(3)
H10_15 H 0.6903 0.8229 0.1841
C14_15 C 0.72982(12) 0.81102(9) 0.1151(2)
H11_15 H 0.7216 0.7898 0.1011
C15_15 C 0.70552(19) 0.88816(14) 0.2368(4)
H12_16 H 0.7225 0.9037 0.2566
H13_15 H 0.6892 0.9013 0.2074
C25_16 C 0.66570(7) 0.91980(8) 0.47103(17)
H21_15 H 0.6708 0.9183 0.5231
C26_16 C 0.68280(10) 0.90034(10) 0.4222(2)
H22_16 H 0.7004 0.8866 0.4398
C27_16 C 0.67463(11) 0.90057(12) 0.3472(3)
C28_16 C 0.65064(11) 0.92290(11) 0.3247(2)
H23_16 H 0.6446 0.9245 0.2732
C29_16 C 0.63570(8) 0.94271(9) 0.37682(19)
H24_16 H 0.6199 0.9587 0.3604
C30_16 C 0.69107(14) 0.87462(17) 0.2903(3)
H25_16 H 0.7072 0.8607 0.3182
H26_16 H 0.6735 0.8598 0.2704
O8_15 O 0.77197(5) 0.75132(4) 0.06329(9)
C31_16 C 0.75283(9) 0.66220(8) 0.0435(2)
C32_14 C 0.73320(11) 0.63929(10) 0.0827(3)
H27_14 H 0.7302 0.6176 0.0624
C33_14 C 0.71842(13) 0.64715(13) 0.1486(4)
H28_14 H 0.7054 0.6309 0.1738
C34_14 C 0.72200(12) 0.67883(13) 0.1806(3)
H29_14 H 0.7125 0.6839 0.2282
C35_14 C 0.73984(11) 0.70254(9) 0.1405(2)
H30_14 H 0.7413 0.7245 0.1599
C36_16 C 0.75546(8) 0.69523(8) 0.0732(2)
C37_16 C 0.77222(7) 0.72203(7) 0.03351(17)
C41_16 C 0.9035(3) 0.63542(17) 0.0329(7)
H35_16 H 0.8904 0.6392 0.0784
H36_16 H 0.8991 0.6130 0.0136
H37_16 H 0.9272 0.6375 0.0448
O3_16 O 0.46314(4) 0.99268(4) 0.30256(10)
C8_16 C 0.44005(6) 0.98925(7) 0.35432(16)
C9_16 C 0.43824(7) 0.95735(7) 0.39603(18)
H5_16 H 0.4566 0.9561 0.4322
H6_16 H 0.4170 0.9560 0.4230
H7_16 H 0.4399 0.9388 0.3605
C12_16 C 0.38738(12) 0.97253(16) 0.0657(3)
C13_16 C 0.41914(13) 0.96080(14) 0.0855(3)
H10_16 H 0.4271 0.9403 0.0659
C14_16 C 0.43898(9) 0.97982(12) 0.1349(2)
H11_16 H 0.4602 0.9716 0.1489
C15_16 C 0.36184(14) 0.95552(19) 0.0132(4)
H13_16 H 0.3487 0.9392 0.0426
N4_16 N 0.39339(4) 0.99306(5) 0.53729(11)
C16_16 C 0.33106(6) 0.98287(6) 0.45903(15)
C17_16 C 0.30020(6) 0.97576(6) 0.42729(15)
H14_16 H 0.2928 0.9883 0.3852
C18_16 C 0.28030(7) 0.95114(7) 0.45539(16)
H15_16 H 0.2591 0.9473 0.4336
C19_16 C 0.29055(6) 0.93197(6) 0.51430(15)
H16_16 H 0.2767 0.9147 0.5329
C20_16 C 0.32089(6) 0.93785(6) 0.54639(14)
H17_16 H 0.3280 0.9244 0.5874
C21_16 C 0.34194(6) 0.96344(6) 0.51989(14)
C22_16 C 0.37404(6) 0.96768(6) 0.55655(15)
C32_15 C 0.61071(10) 0.98320(11) 0.1673(3)
H27_15 H 0.6324 0.9802 0.1876
C33_15 C 0.60285(13) 0.96842(13) 0.1014(4)
H28_15 H 0.6191 0.9554 0.0762
C34_15 C 0.57117(13) 0.97200(12) 0.0694(3)
H29_15 H 0.5661 0.9625 0.0218
C35_15 C 0.54746(9) 0.98984(11) 0.1095(2)
H30_15 H 0.5255 0.9913 0.0901
Mn1_16 Mn 0.039533(9) 0.965465(11) 0.75043(2)
O1_16 O 0.04857(5) 0.92441(5) 0.70771(11)
O2_16 O 0.11521(4) 0.93414(4) 0.89268(9)
N1_16 N 0.07567(5) 0.95990(5) 0.82109(11)
N2_16 N 0.08104(5) 0.98753(5) 0.86873(12)
N3_16 N 0.07084(6) 0.99172(8) 0.66188(14)
C1_16 C 0.07161(7) 0.90165(8) 0.72493(17)
C2_16 C 0.07409(9) 0.87419(10) 0.6792(2)
H1_16 H 0.0592 0.8719 0.6380
C3_16 C 0.09726(11) 0.85027(10) 0.6912(2)
H2_16 H 0.0982 0.8317 0.6583
C4_16 C 0.11969(9) 0.85227(8) 0.7505(2)
H3_16 H 0.1361 0.8356 0.7579
C5_16 C 0.11723(7) 0.87964(7) 0.79889(18)
H4_16 H 0.1317 0.8811 0.8411
C6_16 C 0.09436(7) 0.90447(7) 0.78661(16)
C7_16 C 0.09494(6) 0.93412(7) 0.83719(15)
C10_16 C 0.10100(9) 0.98114(10) 0.64294(19)
H8_16 H 0.1088 0.9605 0.6623
C11_16 C 0.12152(9) 0.99967(13) 0.5951(2)
H9_16 H 0.1431 0.9913 0.5839
Mn2_10 Mn 0.113482(9) 0.971480(9) 0.96474(2)
O4_16 O 0.15150(4) 0.99183(4) 0.92938(9)
O8_16 O 0.00132(4) 0.97803(5) 0.68671(9)
C39_16 C 0.01035(6) 0.91148(6) 0.91519(15)
H31_16 H 0.0156 0.9232 0.9620
H32_16 H 0.0307 0.9089 0.8853
H33_16 H 0.0012 0.8895 0.9270
H21_16 H 0.1708 0.9183 0.9769
C32_16 C 0.88929(10) 0.01680(11) 0.6673(3)
H27_16 H 0.8676 0.0198 0.6876
C33_16 C 0.89715(13) 0.03158(13) 0.6014(4)
H28_16 H 0.8809 0.0446 0.5762
C34_16 C 0.92883(13) 0.02800(12) 0.5694(3)
H29_16 H 0.9339 0.0375 0.5218
C35_16 C 0.95254(9) 0.01016(11) 0.6095(2)
H30_16 H 0.9745 0.0087 0.5901
loop_
_geom_bond_atom_site_label_1
_geom_bond_atom_site_label_2
_geom_bond_site_symmetry_1
_geom_bond_site_symmetry_2
Mn3 O7 1_555 1_555
O7 C31 1_555 1_555
O9 Mn3 1_555 1_555
O10 Mn3 1_555 1_555
N7 Mn3 1_555 1_555
N9 C40 1_555 1_555
C36 C31 1_555 1_555
C38 O9 1_555 1_555
C40 O10 1_555 1_555
H34 C40 1_555 1_555
C41 N9 1_555 1_555
H35 C41 1_555 1_555
H36 C41 1_555 1_555
H37 C41 1_555 1_555
C42 N9 1_555 1_555
H38 C42 1_555 1_555
H39 C42 1_555 1_555
H40 C42 1_555 1_555
O11 Mn3 1_555 1_555
N10 Mn3 1_555 1_555
N7 N8 1_555 1_555
N7 C37 1_555 1_555
N8 C38 1_555 1_555
C36 C37 1_555 1_555
O11 C22 1_555 1_555
N10 N4 1_555 1_555
H16 C19 1_555 1_555
C20 C19 1_555 1_555
H17 C20 1_555 1_555
C22 N4 1_555 1_555
C20 C21 1_555 1_555
C21 C22 1_555 1_555
C32 H27 1_555 1_555
C33 C32 1_555 1_555
H28 C33 1_555 1_555
C34 C33 1_555 1_555
H29 C34 1_555 1_555
C35 C34 1_555 1_555
H30 C35 1_555 1_555
Mn1 O1 1_555 1_555
O1 C1 1_555 1_555
O2 C7 1_555 1_555
N1 Mn1 1_555 1_555
N2 N1 1_555 1_555
N3 Mn1 1_555 1_555
C1 C2 1_555 1_555
C2 H1 1_555 1_555
C3 C2 1_555 1_555
H2 C3 1_555 1_555
C4 C3 1_555 1_555
H3 C4 1_555 1_555
C5 C4 1_555 1_555
H4 C5 1_555 1_555
C6 C1 1_555 1_555
C7 N1 1_555 1_555
C10 N3 1_555 1_555
H8 C10 1_555 1_555
C11 C10 1_555 1_555
H9 C11 1_555 1_555
Mn2 O2 1_555 1_555
O4 Mn2 1_555 1_555
O8 Mn1 1_555 1_555
H31 C39 1_555 1_555
H32 C39 1_555 1_555
H33 C39 1_555 1_555
N2 Mn2 1_555 1_555
C5 C6 1_555 1_555
C6 C7 1_555 1_555
C23 O6 1_555 1_555
C24 C23 1_555 1_555
H18 C24 1_555 1_555
H19 C24 1_555 1_555
H20 C24 1_555 1_555
Mn1_2 O1_2 1_555 1_555
O1_2 C1_2 1_555 1_555
O2_2 C7_2 1_555 1_555
O3 Mn1_2 1_555 1_555
N1_2 Mn1_2 1_555 1_555
N2_2 N1_2 1_555 1_555
N3_2 Mn1_2 1_555 1_555
C1_2 C2_2 1_555 1_555
C2_2 H1_2 1_555 1_555
C3_2 C2_2 1_555 1_555
H2_2 C3_2 1_555 1_555
C4_2 C3_2 1_555 1_555
H3_2 C4_2 1_555 1_555
C5_2 C4_2 1_555 1_555
H4_2 C5_2 1_555 1_555
C6_2 C1_2 1_555 1_555
C7_2 N1_2 1_555 1_555
C8 O3 1_555 1_555
C9 C8 1_555 1_555
H5 C9 1_555 1_555
H6 C9 1_555 1_555
H7 C9 1_555 1_555
C10_2 N3_2 1_555 1_555
H8_2 C10_2 1_555 1_555
C11_2 C10_2 1_555 1_555
H9_2 C11_2 1_555 1_555
C12 C11_2 1_555 1_555
C13 C12 1_555 1_555
H10 C13 1_555 1_555
C14 N3_2 1_555 1_555
H11 C14 1_555 1_555
C15 C12 1_555 1_555
H12 C15 1_555 1_555
H13 C15 1_555 1_555
Mn2_2 O2_2 1_555 1_555
O4_2 Mn2_2 1_555 1_555
O5 C22_2 1_555 1_555
O6_2 Mn2_2 1_555 1_555
N4_2 Mn2_2 1_555 1_555
N5 N4_2 1_555 1_555
N11 C25 1_555 1_555
C16 O4_2 1_555 1_555
C17 C16 1_555 1_555
H14 C17 1_555 1_555
C18 C17 1_555 1_555
H15 C18 1_555 1_555
C19_2 C18 1_555 1_555
H16_2 C19_2 1_555 1_555
C20_2 C19_2 1_555 1_555
H17_2 C20_2 1_555 1_555
C21_2 C16 1_555 1_555
C22_2 N4_2 1_555 1_555
C23_2 O6_2 1_555 1_555
C24_2 C23_2 1_555 1_555
H18_2 C24_2 1_555 1_555
H19_2 C24_2 1_555 1_555
H20_2 C24_2 1_555 1_555
C26 C25 1_555 1_555
H22 C26 1_555 1_555
C27 C26 1_555 1_555
C28 C27 1_555 1_555
H23 C28 1_555 1_555
C29 N11 1_555 1_555
H24 C29 1_555 1_555
C30 C15 1_555 1_555
H25 C30 1_555 1_555
H26 C30 1_555 1_555
Mn3_2 O7_2 1_555 1_555
O7_2 C31_2 1_555 1_555
O8_2 Mn1_2 1_555 1_555
O9_2 Mn3_2 1_555 1_555
O10_2 Mn3_2 1_555 1_555
N7_2 Mn3_2 1_555 1_555
N8_2 Mn1_2 1_555 1_555
N9_2 C40_2 1_555 1_555
C31_2 C32_2 1_555 1_555
C32_2 H27_2 1_555 1_555
C33_2 C32_2 1_555 1_555
H28_2 C33_2 1_555 1_555
C34_2 C33_2 1_555 1_555
H29_2 C34_2 1_555 1_555
C35_2 C34_2 1_555 1_555
H30_2 C35_2 1_555 1_555
C36_2 C31_2 1_555 1_555
C37_2 O8_2 1_555 1_555
C38_2 O9_2 1_555 1_555
C39_2 C38_2 1_555 1_555
H31_2 C39_2 1_555 1_555
H32_2 C39_2 1_555 1_555
H33_2 C39_2 1_555 1_555
C40_2 O10_2 1_555 1_555
H34_2 C40_2 1_555 1_555
C41_2 N9_2 1_555 1_555
H35_2 C41_2 1_555 1_555
H36_2 C41_2 1_555 1_555
H37_2 C41_2 1_555 1_555
C42_2 N9_2 1_555 1_555
H38_2 C42_2 1_555 1_555
H39_2 C42_2 1_555 1_555
H40_2 C42_2 1_555 1_555
O11_2 Mn3_2 1_555 1_555
N10_2 Mn3_2 1_555 1_555
N11_2 Mn2_2 1_555 1_555
Mn5 O5 1_555 1_555
N2_2 C8 1_555 1_555
N2_2 Mn2_2 1_555 1_555
C5_2 C6_2 1_555 1_555
C6_2 C7_2 1_555 1_555
C13 C14 1_555 1_555
N5 C23_2 1_555 1_555
N5 Mn5 1_555 1_555
C20_2 C21_2 1_555 1_555
C21_2 C22_2 1_555 1_555
C27 C30 1_555 1_555
C28 C29 1_555 1_555
N7_2 N8_2 1_555 1_555
N7_2 C37_2 1_555 1_555
N8_2 C38_2 1_555 1_555
C35_2 C36_2 1_555 1_555
C36_2 C37_2 1_555 1_555
N11_2 C25_2 1_555 1_555
C25_2 H21_2 1_555 1_555
C26_2 C25_2 1_555 1_555
H22_2 C26_2 1_555 1_555
C27_2 C26_2 1_555 1_555
C28_2 C27_2 1_555 1_555
H23_2 C28_2 1_555 1_555
C29_2 N11_2 1_555 1_555
H24_2 C29_2 1_555 1_555
H25_2 C30_2 1_555 1_555
H26_2 C30_2 1_555 1_555
C27_2 C30_2 1_555 1_555
C28_2 C29_2 1_555 1_555
O2_3 C7_3 1_555 1_555
O3_2 Mn1_3 1_555 1_555
N1_3 Mn1_3 1_555 1_555
N2_3 N1_3 1_555 1_555
H3_3 C4_3 1_555 1_555
C5_3 C4_3 1_555 1_555
H4_3 C5_3 1_555 1_555
C7_3 N1_3 1_555 1_555
C8_2 O3_2 1_555 1_555
C9_2 C8_2 1_555 1_555
H5_2 C9_2 1_555 1_555
H6_2 C9_2 1_555 1_555
H7_2 C9_2 1_555 1_555
Mn2_3 O2_3 1_555 1_555
O4_3 Mn2_3 1_555 1_555
O11_2 C22_3 1_555 1_555
O6_3 Mn2_3 1_555 1_555
N4_3 Mn2_3 1_555 1_555
N10_2 N4_3 1_555 1_555
C16_2 O4_3 1_555 1_555
C17_2 C16_2 1_555 1_555
H14_2 C17_2 1_555 1_555
C18_2 C17_2 1_555 1_555
H15_2 C18_2 1_555 1_555
C19_3 C18_2 1_555 1_555
H16_3 C19_3 1_555 1_555
C20_3 C19_3 1_555 1_555
H17_3 C20_3 1_555 1_555
C21_3 C16_2 1_555 1_555
C22_3 N4_3 1_555 1_555
C23_3 O6_3 1_555 1_555
C24_3 C23_3 1_555 1_555
H18_3 C24_3 1_555 1_555
H19_3 C24_3 1_555 1_555
H20_3 C24_3 1_555 1_555
Mn5 O7_3 1_555 1_555
O9_3 Mn5 1_555 1_555
O10_3 Mn5 1_555 1_555
N7_3 Mn5 1_555 1_555
N8_3 Mn1_3 1_555 1_555
N9_3 C40_3 1_555 1_555
C38_3 O9_3 1_555 1_555
C39_3 C38_3 1_555 1_555
H31_3 C39_3 1_555 1_555
H32_3 C39_3 1_555 1_555
H33_3 C39_3 1_555 1_555
C40_3 O10_3 1_555 1_555
H34_3 C40_3 1_555 1_555
C42_3 N9_3 1_555 1_555
H38_3 C42_3 1_555 1_555
H39_3 C42_3 1_555 1_555
H40_3 C42_3 1_555 1_555
N11_3 Mn2_3 1_555 1_555
N2_3 C8_2 1_555 1_555
N2_3 Mn2_3 1_555 1_555
C5_3 C6_3 1_555 1_555
C6_3 C7_3 1_555 1_555
N10_2 C23_3 1_555 1_555
C20_3 C21_3 1_555 1_555
C21_3 C22_3 1_555 1_555
N7_3 N8_3 1_555 1_555
N8_3 C38_3 1_555 1_555
Mn1_4 O1_3 1_555 1_555
O1_3 C1_3 1_555 1_555
O2_4 C7_4 1_555 1_555
O3_3 Mn1_4 1_555 1_555
N1_4 Mn1_4 1_555 1_555
N2_4 N1_4 1_555 1_555
N3_3 Mn1_4 1_555 1_555
C1_3 C2_3 1_555 1_555
C2_3 H1_3 1_555 1_555
C3_3 C2_3 1_555 1_555
H2_3 C3_3 1_555 1_555
C4_4 C3_3 1_555 1_555
H3_4 C4_4 1_555 1_555
C5_4 C4_4 1_555 1_555
H4_4 C5_4 1_555 1_555
C6_4 C1_3 1_555 1_555
C7_4 N1_4 1_555 1_555
C8_3 O3_3 1_555 1_555
C9_3 C8_3 1_555 1_555
H5_3 C9_3 1_555 1_555
H6_3 C9_3 1_555 1_555
H7_3 C9_3 1_555 1_555
C10_3 N3_3 1_555 1_555
H8_3 C10_3 1_555 1_555
C11_3 C10_3 1_555 1_555
H9_3 C11_3 1_555 1_555
C12_2 C11_3 1_555 1_555
C13_2 C12_2 1_555 1_555
H10_2 C13_2 1_555 1_555
C14_2 N3_3 1_555 1_555
H11_2 C14_2 1_555 1_555
C15_2 C12_2 1_555 1_555
H12_3 C15_2 1_555 1_555
H13_2 C15_2 1_555 1_555
Mn4 O2_4 1_555 1_555
O4_4 Mn4 1_555 1_555
N11_3 C25_3 1_555 1_555
C16_3 O4_4 1_555 1_555
C17_3 C16_3 1_555 1_555
H14_3 C17_3 1_555 1_555
C18_3 C17_3 1_555 1_555
H15_3 C18_3 1_555 1_555
C25_3 H21_4 1_555 1_555
C26_3 C25_3 1_555 1_555
H22_3 C26_3 1_555 1_555
C27_3 C26_3 1_555 1_555
C28_3 C27_3 1_555 1_555
H23_3 C28_3 1_555 1_555
C29_3 N11_3 1_555 1_555
H24_3 C29_3 1_555 1_555
C30_3 C15_2 1_555 1_555
H25_3 C30_3 1_555 1_555
H26_3 C30_3 1_555 1_555
O8_3 Mn1_4 1_555 1_555
H31_4 C39_4 1_555 1_555
H32_4 C39_4 1_555 1_555
H33_4 C39_4 1_555 1_555
N2_4 C8_3 1_555 1_555
N2_4 Mn4 1_555 1_555
C5_4 C6_4 1_555 1_555
C6_4 C7_4 1_555 1_555
C13_2 C14_2 1_555 1_555
C27_3 C30_3 1_555 1_555
C28_3 C29_3 1_555 1_555
C8_4 O3_4 1_555 1_555
C9_4 C8_4 1_555 1_555
H5_4 C9_4 1_555 1_555
H6_4 C9_4 1_555 1_555
H7_4 C9_4 1_555 1_555
C13_3 C12_3 1_555 1_555
H10_3 C13_3 1_555 1_555
H11_3 C14_3 1_555 1_555
C15_3 C12_3 1_555 1_555
H12_4 C15_3 1_555 1_555
H13_3 C15_3 1_555 1_555
N6 C25_4 1_555 1_555
C17_4 C16_4 1_555 1_555
H14_4 C17_4 1_555 1_555
C18_4 C17_4 1_555 1_555
H15_4 C18_4 1_555 1_555
C25_4 H21_5 1_555 1_555
C26_4 C25_4 1_555 1_555
H22_4 C26_4 1_555 1_555
C27_4 C26_4 1_555 1_555
C28_4 C27_4 1_555 1_555
H23_4 C28_4 1_555 1_555
C29_4 N6 1_555 1_555
H24_4 C29_4 1_555 1_555
C30_4 C15_3 1_555 1_555
H25_4 C30_4 1_555 1_555
H26_4 C30_4 1_555 1_555
Mn4_2 N6 1_555 1_555
C13_3 C14_3 1_555 1_555
C27_4 C30_4 1_555 1_555
C28_4 C29_4 1_555 1_555
O2_5 C7_5 1_555 1_555
O3_5 Mn1_5 1_555 1_555
N1_5 Mn1_5 1_555 1_555
N2_5 N1_5 1_555 1_555
H3_5 C4_5 1_555 1_555
C5_5 C4_5 1_555 1_555
H4_5 C5_5 1_555 1_555
C7_5 N1_5 1_555 1_555
C8_5 O3_5 1_555 1_555
C9_5 C8_5 1_555 1_555
H5_5 C9_5 1_555 1_555
H6_5 C9_5 1_555 1_555
H7_5 C9_5 1_555 1_555
Mn4_2 O2_5 1_555 1_555
O4_5 Mn4_2 1_555 1_555
O5_2 C22_4 1_555 1_555
O6_4 Mn4_2 1_555 1_555
N4_4 Mn4_2 1_555 1_555
N5_2 N4_4 1_555 1_555
C16_5 O4_5 1_555 1_555
C17_5 C16_5 1_555 1_555
H14_5 C17_5 1_555 1_555
C18_5 C17_5 1_555 1_555
H15_5 C18_5 1_555 1_555
C19_4 C18_5 1_555 1_555
H16_4 C19_4 1_555 1_555
C20_4 C19_4 1_555 1_555
H17_4 C20_4 1_555 1_555
C21_4 C16_5 1_555 1_555
C22_4 N4_4 1_555 1_555
C23_4 O6_4 1_555 1_555
C24_4 C23_4 1_555 1_555
H18_4 C24_4 1_555 1_555
H19_4 C24_4 1_555 1_555
H20_4 C24_4 1_555 1_555
Mn3_3 O7_4 1_555 1_555
O9_4 Mn3_3 1_555 1_555
O10_4 Mn3_3 1_555 1_555
N7_4 Mn3_3 1_555 1_555
N8_4 Mn1_5 1_555 1_555
N9_4 C40_4 1_555 1_555
C38_4 O9_4 1_555 1_555
C39_5 C38_4 1_555 1_555
H31_5 C39_5 1_555 1_555
H32_5 C39_5 1_555 1_555
H33_5 C39_5 1_555 1_555
C40_4 O10_4 1_555 1_555
H34_4 C40_4 1_555 1_555
C42_4 N9_4 1_555 1_555
H38_4 C42_4 1_555 1_555
H39_4 C42_4 1_555 1_555
H40_4 C42_4 1_555 1_555
O11_3 Mn3_3 1_555 1_555
N10_3 Mn3_3 1_555 1_555
Mn5_2 O5_2 1_555 1_555
N2_5 C8_5 1_555 1_555
N2_5 Mn4_2 1_555 1_555
C5_5 C6_5 1_555 1_555
C6_5 C7_5 1_555 1_555
N5_2 C23_4 1_555 1_555
N5_2 Mn5_2 1_555 1_555
C20_4 C21_4 1_555 1_555
C21_4 C22_4 1_555 1_555
N7_4 N8_4 1_555 1_555
N8_4 C38_4 1_555 1_555
Mn3_4 O7_5 1_555 1_555
O7_5 C31_3 1_555 1_555
O9_5 Mn3_4 1_555 1_555
O10_5 Mn3_4 1_555 1_555
N7_5 Mn3_4 1_555 1_555
N9_5 C40_5 1_555 1_555
C31_3 C32_3 1_555 1_555
C32_3 H27_3 1_555 1_555
C33_3 C32_3 1_555 1_555
H28_3 C33_3 1_555 1_555
C34_3 C33_3 1_555 1_555
H29_3 C34_3 1_555 1_555
C35_3 C34_3 1_555 1_555
H30_3 C35_3 1_555 1_555
C36_3 C31_3 1_555 1_555
C38_5 O9_5 1_555 1_555
C40_5 O10_5 1_555 1_555
H34_5 C40_5 1_555 1_555
C41_3 N9_5 1_555 1_555
H35_3 C41_3 1_555 1_555
H36_3 C41_3 1_555 1_555
H37_3 C41_3 1_555 1_555
C42_5 N9_5 1_555 1_555
H38_5 C42_5 1_555 1_555
H39_5 C42_5 1_555 1_555
H40_5 C42_5 1_555 1_555
O11_4 Mn3_4 1_555 1_555
N10_4 Mn3_4 1_555 1_555
N7_5 N8_5 1_555 1_555
N7_5 C37_3 1_555 1_555
N8_5 C38_5 1_555 1_555
C35_3 C36_3 1_555 1_555
C36_3 C37_3 1_555 1_555
N6_2 C25_5 1_555 1_555
C25_5 H21_6 1_555 1_555
C26_5 C25_5 1_555 1_555
H22_5 C26_5 1_555 1_555
C27_5 C26_5 1_555 1_555
C28_5 C27_5 1_555 1_555
H23_5 C28_5 1_555 1_555
C29_5 N6_2 1_555 1_555
H24_5 C29_5 1_555 1_555
H25_5 C30_5 1_555 1_555
H26_5 C30_5 1_555 1_555
Mn4_3 N6_2 1_555 1_555
C27_5 C30_5 1_555 1_555
C28_5 C29_5 1_555 1_555
Mn1_6 O1_4 1_555 1_555
O1_4 C1_4 1_555 1_555
O2_6 C7_6 1_555 1_555
O3_6 Mn1_6 1_555 1_555
N1_6 Mn1_6 1_555 1_555
N2_6 N1_6 1_555 1_555
N3_4 Mn1_6 1_555 1_555
C1_4 C2_4 1_555 1_555
C2_4 H1_4 1_555 1_555
C3_4 C2_4 1_555 1_555
H2_4 C3_4 1_555 1_555
C4_6 C3_4 1_555 1_555
H3_6 C4_6 1_555 1_555
C5_6 C4_6 1_555 1_555
H4_6 C5_6 1_555 1_555
C6_6 C1_4 1_555 1_555
C7_6 N1_6 1_555 1_555
C8_6 O3_6 1_555 1_555
C9_6 C8_6 1_555 1_555
H5_6 C9_6 1_555 1_555
H6_6 C9_6 1_555 1_555
H7_6 C9_6 1_555 1_555
C10_4 N3_4 1_555 1_555
H8_4 C10_4 1_555 1_555
C11_4 C10_4 1_555 1_555
H9_4 C11_4 1_555 1_555
C12_4 C11_4 1_555 1_555
C13_4 C12_4 1_555 1_555
H10_4 C13_4 1_555 1_555
C14_4 N3_4 1_555 1_555
H11_4 C14_4 1_555 1_555
C15_4 C12_4 1_555 1_555
H12_6 C15_4 1_555 1_555
H13_4 C15_4 1_555 1_555
Mn4_3 O2_6 1_555 1_555
O4_6 Mn4_3 1_555 1_555
O11_3 C22_5 1_555 1_555
O6_5 Mn4_3 1_555 1_555
N4_5 Mn4_3 1_555 1_555
N10_3 N4_5 1_555 1_555
N6_3 C25_6 1_555 1_555
C16_6 O4_6 1_555 1_555
C17_6 C16_6 1_555 1_555
H14_6 C17_6 1_555 1_555
C18_6 C17_6 1_555 1_555
H15_6 C18_6 1_555 1_555
C19_5 C18_6 1_555 1_555
H16_5 C19_5 1_555 1_555
C20_5 C19_5 1_555 1_555
H17_5 C20_5 1_555 1_555
C21_5 C16_6 1_555 1_555
C22_5 N4_5 1_555 1_555
C23_5 O6_5 1_555 1_555
C24_5 C23_5 1_555 1_555
H18_5 C24_5 1_555 1_555
H19_5 C24_5 1_555 1_555
H20_5 C24_5 1_555 1_555
C26_6 C25_6 1_555 1_555
H22_6 C26_6 1_555 1_555
C27_6 C26_6 1_555 1_555
C28_6 C27_6 1_555 1_555
H23_6 C28_6 1_555 1_555
C29_6 N6_3 1_555 1_555
H24_6 C29_6 1_555 1_555
C30_6 C15_4 1_555 1_555
H25_6 C30_6 1_555 1_555
H26_6 C30_6 1_555 1_555
Mn5_2 O7_6 1_555 1_555
O7_6 C31_4 1_555 1_555
O8_4 Mn1_6 1_555 1_555
O9_6 Mn5_2 1_555 1_555
O10_6 Mn5_2 1_555 1_555
N7_6 Mn5_2 1_555 1_555
N8_6 Mn1_6 1_555 1_555
N9_6 C40_6 1_555 1_555
C31_4 C32_4 1_555 1_555
C32_4 H27_4 1_555 1_555
C33_4 C32_4 1_555 1_555
H28_4 C33_4 1_555 1_555
C34_4 C33_4 1_555 1_555
H29_4 C34_4 1_555 1_555
C35_4 C34_4 1_555 1_555
H30_4 C35_4 1_555 1_555
C36_4 C31_4 1_555 1_555
C37_4 O8_4 1_555 1_555
C38_6 O9_6 1_555 1_555
C39_6 C38_6 1_555 1_555
H31_6 C39_6 1_555 1_555
H32_6 C39_6 1_555 1_555
H33_6 C39_6 1_555 1_555
C40_6 O10_6 1_555 1_555
H34_6 C40_6 1_555 1_555
C41_4 N9_6 1_555 1_555
H35_4 C41_4 1_555 1_555
H36_4 C41_4 1_555 1_555
H37_4 C41_4 1_555 1_555
C42_6 N9_6 1_555 1_555
H38_6 C42_6 1_555 1_555
H39_6 C42_6 1_555 1_555
H40_6 C42_6 1_555 1_555
N2_6 C8_6 1_555 1_555
N2_6 Mn4_3 1_555 1_555
C5_6 C6_6 1_555 1_555
C6_6 C7_6 1_555 1_555
C13_4 C14_4 1_555 1_555
N10_3 C23_5 1_555 1_555
C20_5 C21_5 1_555 1_555
C21_5 C22_5 1_555 1_555
C27_6 C30_6 1_555 1_555
C28_6 C29_6 1_555 1_555
N7_6 N8_6 1_555 1_555
N7_6 C37_4 1_555 1_555
N8_6 C38_6 1_555 1_555
C35_4 C36_4 1_555 1_555
C36_4 C37_4 1_555 1_555
O11_4 C22_6 1_555 1_555
N10_4 N4_6 1_555 1_555
H16_6 C19_6 1_555 1_555
C20_6 C19_6 1_555 1_555
H17_6 C20_6 1_555 1_555
C22_6 N4_6 1_555 1_555
C23_6 O6_6 1_555 1_555
C24_6 C23_6 1_555 1_555
H18_6 C24_6 1_555 1_555
H19_6 C24_6 1_555 1_555
H20_6 C24_6 1_555 1_555
N10_4 C23_6 1_555 1_555
C20_6 C21_6 1_555 1_555
C21_6 C22_6 1_555 1_555
O5_3 C22_7 1_555 1_555
N5_3 N4_7 1_555 1_555
H16_7 C19_7 1_555 1_555
C20_7 C19_7 1_555 1_555
H17_7 C20_7 1_555 1_555
C22_7 N4_7 1_555 1_555
Mn5_3 O5_3 1_555 1_555
N5_3 Mn5_3 1_555 1_555
C20_7 C21_7 1_555 1_555
C21_7 C22_7 1_555 1_555
Mn5_3 O7_7 1_555 1_555
O7_7 C31_5 1_555 1_555
O9_7 Mn5_3 1_555 1_555
O10_7 Mn5_3 1_555 1_555
N7_7 Mn5_3 1_555 1_555
N9_7 C40_7 1_555 1_555
C36_5 C31_5 1_555 1_555
C38_7 O9_7 1_555 1_555
C40_7 O10_7 1_555 1_555
H34_7 C40_7 1_555 1_555
C41_5 N9_7 1_555 1_555
H35_5 C41_5 1_555 1_555
H36_5 C41_5 1_555 1_555
H37_5 C41_5 1_555 1_555
C42_7 N9_7 1_555 1_555
H38_7 C42_7 1_555 1_555
H39_7 C42_7 1_555 1_555
H40_7 C42_7 1_555 1_555
N7_7 N8_7 1_555 1_555
N7_7 C37_5 1_555 1_555
N8_7 C38_7 1_555 1_555
C36_5 C37_5 1_555 1_555
N6_4 C25_7 1_555 1_555
C25_7 H21_7 1_555 1_555
C26_7 C25_7 1_555 1_555
H22_7 C26_7 1_555 1_555
C27_7 C26_7 1_555 1_555
C28_7 C27_7 1_555 1_555
H23_7 C28_7 1_555 1_555
C29_7 N6_4 1_555 1_555
H24_7 C29_7 1_555 1_555
H25_7 C30_7 1_555 1_555
H26_7 C30_7 1_555 1_555
Mn4_4 N6_4 1_555 1_555
C27_7 C30_7 1_555 1_555
C28_7 C29_7 1_555 1_555
Mn1_7 O1_5 1_555 1_555
O1_5 C1_5 1_555 1_555
O2_7 C7_7 1_555 1_555
O3_7 Mn1_7 1_555 1_555
N1_7 Mn1_7 1_555 1_555
N2_7 N1_7 1_555 1_555
N3_5 Mn1_7 1_555 1_555
C1_5 C2_5 1_555 1_555
C2_5 H1_5 1_555 1_555
C3_5 C2_5 1_555 1_555
H2_5 C3_5 1_555 1_555
C4_7 C3_5 1_555 1_555
H3_7 C4_7 1_555 1_555
C5_7 C4_7 1_555 1_555
H4_7 C5_7 1_555 1_555
C6_7 C1_5 1_555 1_555
C7_7 N1_7 1_555 1_555
C8_7 O3_7 1_555 1_555
C9_7 C8_7 1_555 1_555
H5_7 C9_7 1_555 1_555
H6_7 C9_7 1_555 1_555
H7_7 C9_7 1_555 1_555
C10_5 N3_5 1_555 1_555
H8_5 C10_5 1_555 1_555
C11_5 C10_5 1_555 1_555
H9_5 C11_5 1_555 1_555
C12_5 C11_5 1_555 1_555
C13_5 C12_5 1_555 1_555
H10_5 C13_5 1_555 1_555
C14_5 N3_5 1_555 1_555
H11_5 C14_5 1_555 1_555
C15_5 C12_5 1_555 1_555
H12_8 C15_5 1_555 1_555
H13_5 C15_5 1_555 1_555
Mn4_4 O2_7 1_555 1_555
O4_7 Mn4_4 1_555 1_555
O5_4 C22_8 1_555 1_555
O6_7 Mn4_4 1_555 1_555
N4_8 Mn4_4 1_555 1_555
N5_4 N4_8 1_555 1_555
N6_5 C25_8 1_555 1_555
C16_7 O4_7 1_555 1_555
C17_7 C16_7 1_555 1_555
H14_7 C17_7 1_555 1_555
C18_7 C17_7 1_555 1_555
H15_7 C18_7 1_555 1_555
C19_8 C18_7 1_555 1_555
H16_8 C19_8 1_555 1_555
C20_8 C19_8 1_555 1_555
H17_8 C20_8 1_555 1_555
C21_8 C16_7 1_555 1_555
C22_8 N4_8 1_555 1_555
C23_7 O6_7 1_555 1_555
C24_7 C23_7 1_555 1_555
H18_7 C24_7 1_555 1_555
H19_7 C24_7 1_555 1_555
H20_7 C24_7 1_555 1_555
C26_8 C25_8 1_555 1_555
H22_8 C26_8 1_555 1_555
C27_8 C26_8 1_555 1_555
C28_8 C27_8 1_555 1_555
H23_8 C28_8 1_555 1_555
C29_8 N6_5 1_555 1_555
H24_8 C29_8 1_555 1_555
C30_8 C15_5 1_555 1_555
H25_8 C30_8 1_555 1_555
H26_8 C30_8 1_555 1_555
Mn3_5 O7_8 1_555 1_555
O7_8 C31_6 1_555 1_555
O8_5 Mn1_7 1_555 1_555
O9_8 Mn3_5 1_555 1_555
O10_8 Mn3_5 1_555 1_555
N7_8 Mn3_5 1_555 1_555
N8_8 Mn1_7 1_555 1_555
N9_8 C40_8 1_555 1_555
C31_6 C32_5 1_555 1_555
C32_5 H27_5 1_555 1_555
C33_5 C32_5 1_555 1_555
H28_5 C33_5 1_555 1_555
C34_5 C33_5 1_555 1_555
H29_5 C34_5 1_555 1_555
C35_5 C34_5 1_555 1_555
H30_5 C35_5 1_555 1_555
C36_6 C31_6 1_555 1_555
C37_6 O8_5 1_555 1_555
C38_8 O9_8 1_555 1_555
C39_7 C38_8 1_555 1_555
H31_7 C39_7 1_555 1_555
H32_7 C39_7 1_555 1_555
H33_7 C39_7 1_555 1_555
C40_8 O10_8 1_555 1_555
H34_8 C40_8 1_555 1_555
C41_6 N9_8 1_555 1_555
H35_6 C41_6 1_555 1_555
H36_6 C41_6 1_555 1_555
H37_6 C41_6 1_555 1_555
C42_8 N9_8 1_555 1_555
H38_8 C42_8 1_555 1_555
H39_8 C42_8 1_555 1_555
H40_8 C42_8 1_555 1_555
O11_5 Mn3_5 1_555 1_555
N10_5 Mn3_5 1_555 1_555
Mn5_4 O5_4 1_555 1_555
N2_7 C8_7 1_555 1_555
N2_7 Mn4_4 1_555 1_555
C5_7 C6_7 1_555 1_555
C6_7 C7_7 1_555 1_555
C13_5 C14_5 1_555 1_555
N5_4 C23_7 1_555 1_555
N5_4 Mn5_4 1_555 1_555
C20_8 C21_8 1_555 1_555
C21_8 C22_8 1_555 1_555
C27_8 C30_8 1_555 1_555
C28_8 C29_8 1_555 1_555
N7_8 N8_8 1_555 1_555
N7_8 C37_6 1_555 1_555
N8_8 C38_8 1_555 1_555
C35_5 C36_6 1_555 1_555
C36_6 C37_6 1_555 1_555
O5_5 C22_9 1_555 1_555
N5_5 N4_9 1_555 1_555
H16_9 C19_9 1_555 1_555
C20_9 C19_9 1_555 1_555
H17_9 C20_9 1_555 1_555
C22_9 N4_9 1_555 1_555
C23_8 O6_8 1_555 1_555
C24_8 C23_8 1_555 1_555
H18_8 C24_8 1_555 1_555
H19_8 C24_8 1_555 1_555
H20_8 C24_8 1_555 1_555
Mn5_5 O5_5 1_555 1_555
N5_5 C23_8 1_555 1_555
N5_5 Mn5_5 1_555 1_555
C20_9 C21_9 1_555 1_555
C21_9 C22_9 1_555 1_555
C8_8 O3_8 1_555 1_555
C9_8 C8_8 1_555 1_555
H5_8 C9_8 1_555 1_555
H6_8 C9_8 1_555 1_555
H7_8 C9_8 1_555 1_555
C13_6 C12_6 1_555 1_555
H10_6 C13_6 1_555 1_555
H11_6 C14_6 1_555 1_555
C15_6 C12_6 1_555 1_555
H12_9 C15_6 1_555 1_555
H13_6 C15_6 1_555 1_555
N6_6 C25_9 1_555 1_555
C17_8 C16_8 1_555 1_555
H14_8 C17_8 1_555 1_555
C18_8 C17_8 1_555 1_555
H15_8 C18_8 1_555 1_555
C25_9 H21_8 1_555 1_555
C26_9 C25_9 1_555 1_555
H22_9 C26_9 1_555 1_555
C27_9 C26_9 1_555 1_555
C28_9 C27_9 1_555 1_555
H23_9 C28_9 1_555 1_555
C29_9 N6_6 1_555 1_555
H24_9 C29_9 1_555 1_555
C30_9 C15_6 1_555 1_555
H25_9 C30_9 1_555 1_555
H26_9 C30_9 1_555 1_555
Mn4_5 N6_6 1_555 1_555
C13_6 C14_6 1_555 1_555
C27_9 C30_9 1_555 1_555
C28_9 C29_9 1_555 1_555
O2_8 C7_8 1_555 1_555
O3_9 Mn1_8 1_555 1_555
N1_8 Mn1_8 1_555 1_555
N2_8 N1_8 1_555 1_555
H3_8 C4_8 1_555 1_555
C5_8 C4_8 1_555 1_555
H4_8 C5_8 1_555 1_555
C7_8 N1_8 1_555 1_555
C8_9 O3_9 1_555 1_555
C9_9 C8_9 1_555 1_555
H5_9 C9_9 1_555 1_555
H6_9 C9_9 1_555 1_555
H7_9 C9_9 1_555 1_555
Mn4_5 O2_8 1_555 1_555
O4_8 Mn4_5 1_555 1_555
O11_5 C22_10 1_555 1_555
O6_9 Mn4_5 1_555 1_555
N4_10 Mn4_5 1_555 1_555
N10_5 N4_10 1_555 1_555
C16_9 O4_8 1_555 1_555
C17_9 C16_9 1_555 1_555
H14_9 C17_9 1_555 1_555
C18_9 C17_9 1_555 1_555
H15_9 C18_9 1_555 1_555
C19_10 C18_9 1_555 1_555
H16_10 C19_10 1_555 1_555
C20_10 C19_10 1_555 1_555
H17_10 C20_10 1_555 1_555
C21_10 C16_9 1_555 1_555
C22_10 N4_10 1_555 1_555
C23_9 O6_9 1_555 1_555
C24_9 C23_9 1_555 1_555
H18_9 C24_9 1_555 1_555
H19_9 C24_9 1_555 1_555
H20_9 C24_9 1_555 1_555
Mn5_4 O7_9 1_555 1_555
O9_9 Mn5_4 1_555 1_555
O10_9 Mn5_4 1_555 1_555
N7_9 Mn5_4 1_555 1_555
N8_9 Mn1_8 1_555 1_555
N9_9 C40_9 1_555 1_555
C38_9 O9_9 1_555 1_555
C39_8 C38_9 1_555 1_555
H31_8 C39_8 1_555 1_555
H32_8 C39_8 1_555 1_555
H33_8 C39_8 1_555 1_555
C40_9 O10_9 1_555 1_555
H34_9 C40_9 1_555 1_555
C42_9 N9_9 1_555 1_555
H38_9 C42_9 1_555 1_555
H39_9 C42_9 1_555 1_555
H40_9 C42_9 1_555 1_555
N2_8 C8_9 1_555 1_555
N2_8 Mn4_5 1_555 1_555
C5_8 C6_8 1_555 1_555
C6_8 C7_8 1_555 1_555
N10_5 C23_9 1_555 1_555
C20_10 C21_10 1_555 1_555
C21_10 C22_10 1_555 1_555
N7_9 N8_9 1_555 1_555
N8_9 C38_9 1_555 1_555
Mn5_5 O7_10 1_555 1_555
O7_10 C31_7 1_555 1_555
O9_10 Mn5_5 1_555 1_555
O10_10 Mn5_5 1_555 1_555
N7_10 Mn5_5 1_555 1_555
N9_10 C40_10 1_555 1_555
C31_7 C32_6 1_555 1_555
C32_6 H27_6 1_555 1_555
C33_6 C32_6 1_555 1_555
H28_6 C33_6 1_555 1_555
C34_6 C33_6 1_555 1_555
H29_6 C34_6 1_555 1_555
C35_6 C34_6 1_555 1_555
H30_6 C35_6 1_555 1_555
C36_7 C31_7 1_555 1_555
C38_10 O9_10 1_555 1_555
C40_10 O10_10 1_555 1_555
H34_10 C40_10 1_555 1_555
C41_7 N9_10 1_555 1_555
H35_7 C41_7 1_555 1_555
H36_7 C41_7 1_555 1_555
H37_7 C41_7 1_555 1_555
C42_10 N9_10 1_555 1_555
H38_10 C42_10 1_555 1_555
H39_10 C42_10 1_555 1_555
H40_10 C42_10 1_555 1_555
N7_10 N8_10 1_555 1_555
N7_10 C37_7 1_555 1_555
N8_10 C38_10 1_555 1_555
C35_6 C36_7 1_555 1_555
C36_7 C37_7 1_555 1_555
Mn1_9 O1_6 1_555 1_555
O1_6 C1_6 1_555 1_555
O2_9 C7_9 1_555 1_555
O3_10 Mn1_9 1_555 1_555
N1_9 Mn1_9 1_555 1_555
N2_9 N1_9 1_555 1_555
N3_6 Mn1_9 1_555 1_555
C1_6 C2_6 1_555 1_555
C2_6 H1_6 1_555 1_555
C3_6 C2_6 1_555 1_555
H2_6 C3_6 1_555 1_555
C4_9 C3_6 1_555 1_555
H3_9 C4_9 1_555 1_555
C5_9 C4_9 1_555 1_555
H4_9 C5_9 1_555 1_555
C6_9 C1_6 1_555 1_555
C7_9 N1_9 1_555 1_555
C8_10 O3_10 1_555 1_555
C9_10 C8_10 1_555 1_555
H5_10 C9_10 1_555 1_555
H6_10 C9_10 1_555 1_555
H7_10 C9_10 1_555 1_555
C10_6 N3_6 1_555 1_555
H8_6 C10_6 1_555 1_555
C11_6 C10_6 1_555 1_555
H9_6 C11_6 1_555 1_555
C12_7 C11_6 1_555 1_555
C13_7 C12_7 1_555 1_555
H10_7 C13_7 1_555 1_555
C14_7 N3_6 1_555 1_555
H11_7 C14_7 1_555 1_555
C15_7 C12_7 1_555 1_555
H13_7 C15_7 1_555 1_555
Mn2_4 O2_9 1_555 1_555
O4_9 Mn2_4 1_555 1_555
O5_6 C22_11 1_555 1_555
O6_10 Mn2_4 1_555 1_555
N4_11 Mn2_4 1_555 1_555
N5_6 N4_11 1_555 1_555
C16_10 O4_9 1_555 1_555
C17_10 C16_10 1_555 1_555
H14_10 C17_10 1_555 1_555
C18_10 C17_10 1_555 1_555
H15_10 C18_10 1_555 1_555
C19_11 C18_10 1_555 1_555
H16_11 C19_11 1_555 1_555
C20_11 C19_11 1_555 1_555
H17_11 C20_11 1_555 1_555
C21_11 C16_10 1_555 1_555
C22_11 N4_11 1_555 1_555
C23_10 O6_10 1_555 1_555
C24_10 C23_10 1_555 1_555
H18_10 C24_10 1_555 1_555
H19_10 C24_10 1_555 1_555
H20_10 C24_10 1_555 1_555
Mn3_6 O7_11 1_555 1_555
O7_11 C31_8 1_555 1_555
O8_6 Mn1_9 1_555 1_555
O9_11 Mn3_6 1_555 1_555
O10_11 Mn3_6 1_555 1_555
N7_11 Mn3_6 1_555 1_555
N8_11 Mn1_9 1_555 1_555
N9_11 C40_11 1_555 1_555
C31_8 C32_7 1_555 1_555
C32_7 H27_7 1_555 1_555
C33_7 C32_7 1_555 1_555
H28_7 C33_7 1_555 1_555
C34_7 C33_7 1_555 1_555
H29_7 C34_7 1_555 1_555
C35_7 C34_7 1_555 1_555
H30_7 C35_7 1_555 1_555
C36_8 C31_8 1_555 1_555
C37_8 O8_6 1_555 1_555
C38_11 O9_11 1_555 1_555
C39_9 C38_11 1_555 1_555
H31_9 C39_9 1_555 1_555
H32_9 C39_9 1_555 1_555
H33_9 C39_9 1_555 1_555
C40_11 O10_11 1_555 1_555
H34_11 C40_11 1_555 1_555
C41_8 N9_11 1_555 1_555
H35_8 C41_8 1_555 1_555
H36_8 C41_8 1_555 1_555
H37_8 C41_8 1_555 1_555
C42_11 N9_11 1_555 1_555
H38_11 C42_11 1_555 1_555
H39_11 C42_11 1_555 1_555
H40_11 C42_11 1_555 1_555
O11_6 Mn3_6 1_555 1_555
N10_6 Mn3_6 1_555 1_555
N11_4 Mn2_4 1_555 1_555
Mn5_6 O5_6 1_555 1_555
N2_9 C8_10 1_555 1_555
N2_9 Mn2_4 1_555 1_555
C5_9 C6_9 1_555 1_555
C6_9 C7_9 1_555 1_555
C13_7 C14_7 1_555 1_555
N5_6 C23_10 1_555 1_555
N5_6 Mn5_6 1_555 1_555
C20_11 C21_11 1_555 1_555
C21_11 C22_11 1_555 1_555
N7_11 N8_11 1_555 1_555
N7_11 C37_8 1_555 1_555
N8_11 C38_11 1_555 1_555
C35_7 C36_8 1_555 1_555
C36_8 C37_8 1_555 1_555
O1_7 C1_7 1_555 1_555
C1_7 C2_7 1_555 1_555
C2_7 H1_7 1_555 1_555
C3_7 C2_7 1_555 1_555
H2_7 C3_7 1_555 1_555
C10_7 N3_7 1_555 1_555
H8_7 C10_7 1_555 1_555
C11_7 C10_7 1_555 1_555
H9_7 C11_7 1_555 1_555
C12_8 C11_7 1_555 1_555
C13_8 C12_8 1_555 1_555
H10_8 C13_8 1_555 1_555
C14_8 N3_7 1_555 1_555
H11_8 C14_8 1_555 1_555
C15_8 C12_8 1_555 1_555
H12_10 C15_8 1_555 1_555
H13_8 C15_8 1_555 1_555
N11_4 C25_10 1_555 1_555
C25_10 H21_9 1_555 1_555
C26_10 C25_10 1_555 1_555
H22_10 C26_10 1_555 1_555
C27_10 C26_10 1_555 1_555
C28_10 C27_10 1_555 1_555
H23_10 C28_10 1_555 1_555
C29_10 N11_4 1_555 1_555
H24_10 C29_10 1_555 1_555
C30_10 C15_8 1_555 1_555
H25_10 C30_10 1_555 1_555
H26_10 C30_10 1_555 1_555
C31_9 C32_8 1_555 1_555
C32_8 H27_8 1_555 1_555
C33_8 C32_8 1_555 1_555
H28_8 C33_8 1_555 1_555
C34_8 C33_8 1_555 1_555
H29_8 C34_8 1_555 1_555
C35_8 C34_8 1_555 1_555
H30_8 C35_8 1_555 1_555
C36_9 C31_9 1_555 1_555
C37_9 O8_7 1_555 1_555
H35_9 C41_9 1_555 1_555
H36_9 C41_9 1_555 1_555
H37_9 C41_9 1_555 1_555
C13_8 C14_8 1_555 1_555
C27_10 C30_10 1_555 1_555
C28_10 C29_10 1_555 1_555
C35_8 C36_9 1_555 1_555
C36_9 C37_9 1_555 1_555
Mn1_10 O1_8 1_555 1_555
O1_8 C1_8 1_555 1_555
O2_10 C7_10 1_555 1_555
O3_11 Mn1_10 1_555 1_555
N1_10 Mn1_10 1_555 1_555
N2_10 N1_10 1_555 1_555
N3_8 Mn1_10 1_555 1_555
C1_8 C2_8 1_555 1_555
C2_8 H1_8 1_555 1_555
C3_8 C2_8 1_555 1_555
H2_8 C3_8 1_555 1_555
C4_10 C3_8 1_555 1_555
H3_10 C4_10 1_555 1_555
C5_10 C4_10 1_555 1_555
H4_10 C5_10 1_555 1_555
C6_10 C1_8 1_555 1_555
C7_10 N1_10 1_555 1_555
C8_11 O3_11 1_555 1_555
C9_11 C8_11 1_555 1_555
H5_11 C9_11 1_555 1_555
H6_11 C9_11 1_555 1_555
H7_11 C9_11 1_555 1_555
C10_8 N3_8 1_555 1_555
H8_8 C10_8 1_555 1_555
C11_8 C10_8 1_555 1_555
H9_8 C11_8 1_555 1_555
C12_9 C11_8 1_555 1_555
C13_9 C12_9 1_555 1_555
H10_9 C13_9 1_555 1_555
C14_9 N3_8 1_555 1_555
H11_9 C14_9 1_555 1_555
C15_9 C12_9 1_555 1_555
H13_9 C15_9 1_555 1_555
Mn2_5 O2_10 1_555 1_555
O4_10 Mn2_5 1_555 1_555
O11_6 C22_12 1_555 1_555
O6_11 Mn2_5 1_555 1_555
N4_12 Mn2_5 1_555 1_555
N10_6 N4_12 1_555 1_555
C16_11 O4_10 1_555 1_555
C17_11 C16_11 1_555 1_555
H14_11 C17_11 1_555 1_555
C18_11 C17_11 1_555 1_555
H15_11 C18_11 1_555 1_555
C19_12 C18_11 1_555 1_555
H16_12 C19_12 1_555 1_555
C20_12 C19_12 1_555 1_555
H17_12 C20_12 1_555 1_555
C21_12 C16_11 1_555 1_555
C22_12 N4_12 1_555 1_555
C23_11 O6_11 1_555 1_555
C24_11 C23_11 1_555 1_555
H18_11 C24_11 1_555 1_555
H19_11 C24_11 1_555 1_555
H20_11 C24_11 1_555 1_555
Mn5_6 O7_12 1_555 1_555
O7_12 C31_10 1_555 1_555
O8_8 Mn1_10 1_555 1_555
O9_12 Mn5_6 1_555 1_555
O10_12 Mn5_6 1_555 1_555
N7_12 Mn5_6 1_555 1_555
N8_12 Mn1_10 1_555 1_555
N9_12 C40_12 1_555 1_555
C31_10 C32_9 1_555 1_555
C32_9 H27_9 1_555 1_555
C33_9 C32_9 1_555 1_555
H28_9 C33_9 1_555 1_555
C34_9 C33_9 1_555 1_555
H29_9 C34_9 1_555 1_555
C35_9 C34_9 1_555 1_555
H30_9 C35_9 1_555 1_555
C36_10 C31_10 1_555 1_555
C37_10 O8_8 1_555 1_555
C38_12 O9_12 1_555 1_555
C39_10 C38_12 1_555 1_555
H31_10 C39_10 1_555 1_555
H32_10 C39_10 1_555 1_555
H33_10 C39_10 1_555 1_555
C40_12 O10_12 1_555 1_555
H34_12 C40_12 1_555 1_555
C41_10 N9_12 1_555 1_555
H35_10 C41_10 1_555 1_555
H36_10 C41_10 1_555 1_555
H37_10 C41_10 1_555 1_555
C42_12 N9_12 1_555 1_555
H38_12 C42_12 1_555 1_555
H39_12 C42_12 1_555 1_555
H40_12 C42_12 1_555 1_555
N11_5 Mn2_5 1_555 1_555
N2_10 C8_11 1_555 1_555
N2_10 Mn2_5 1_555 1_555
C5_10 C6_10 1_555 1_555
C6_10 C7_10 1_555 1_555
C13_9 C14_9 1_555 1_555
N10_6 C23_11 1_555 1_555
C20_12 C21_12 1_555 1_555
C21_12 C22_12 1_555 1_555
N7_12 N8_12 1_555 1_555
N7_12 C37_10 1_555 1_555
N8_12 C38_12 1_555 1_555
C35_9 C36_10 1_555 1_555
C36_10 C37_10 1_555 1_555
O1_9 C1_9 1_555 1_555
C1_9 C2_9 1_555 1_555
C2_9 H1_9 1_555 1_555
C3_9 C2_9 1_555 1_555
H2_9 C3_9 1_555 1_555
C10_9 N3_9 1_555 1_555
H8_9 C10_9 1_555 1_555
C11_9 C10_9 1_555 1_555
H9_9 C11_9 1_555 1_555
C12_10 C11_9 1_555 1_555
C13_10 C12_10 1_555 1_555
H10_10 C13_10 1_555 1_555
C14_10 N3_9 1_555 1_555
H11_10 C14_10 1_555 1_555
C15_10 C12_10 1_555 1_555
H12_11 C15_10 1_555 1_555
H13_10 C15_10 1_555 1_555
N11_5 C25_11 1_555 1_555
C25_11 H21_10 1_555 1_555
C26_11 C25_11 1_555 1_555
H22_11 C26_11 1_555 1_555
C27_11 C26_11 1_555 1_555
C28_11 C27_11 1_555 1_555
H23_11 C28_11 1_555 1_555
C29_11 N11_5 1_555 1_555
H24_11 C29_11 1_555 1_555
C30_11 C15_10 1_555 1_555
H25_11 C30_11 1_555 1_555
H26_11 C30_11 1_555 1_555
C31_11 C32_10 1_555 1_555
C32_10 H27_10 1_555 1_555
C33_10 C32_10 1_555 1_555
H28_10 C33_10 1_555 1_555
C34_10 C33_10 1_555 1_555
H29_10 C34_10 1_555 1_555
C35_10 C34_10 1_555 1_555
H30_10 C35_10 1_555 1_555
C36_11 C31_11 1_555 1_555
C37_11 O8_9 1_555 1_555
H35_11 C41_11 1_555 1_555
H36_11 C41_11 1_555 1_555
H37_11 C41_11 1_555 1_555
C13_10 C14_10 1_555 1_555
C27_11 C30_11 1_555 1_555
C28_11 C29_11 1_555 1_555
C35_10 C36_11 1_555 1_555
C36_11 C37_11 1_555 1_555
O2_11 C7_11 1_555 1_555
O3_12 Mn1_11 1_555 1_555
N1_11 Mn1_11 1_555 1_555
N2_11 N1_11 1_555 1_555
H3_11 C4_11 1_555 1_555
C5_11 C4_11 1_555 1_555
H4_11 C5_11 1_555 1_555
C7_11 N1_11 1_555 1_555
C8_12 O3_12 1_555 1_555
C9_12 C8_12 1_555 1_555
H5_12 C9_12 1_555 1_555
H6_12 C9_12 1_555 1_555
H7_12 C9_12 1_555 1_555
Mn2_6 O2_11 1_555 1_555
O4_11 Mn2_6 1_555 1_555
O5_7 C22_13 1_555 1_555
O6_12 Mn2_6 1_555 1_555
N4_13 Mn2_6 1_555 1_555
N5_7 N4_13 1_555 1_555
C16_12 O4_11 1_555 1_555
C17_12 C16_12 1_555 1_555
H14_12 C17_12 1_555 1_555
C18_12 C17_12 1_555 1_555
H15_12 C18_12 1_555 1_555
C19_13 C18_12 1_555 1_555
H16_13 C19_13 1_555 1_555
C20_13 C19_13 1_555 1_555
H17_13 C20_13 1_555 1_555
C21_13 C16_12 1_555 1_555
C22_13 N4_13 1_555 1_555
C23_12 O6_12 1_555 1_555
C24_12 C23_12 1_555 1_555
H18_12 C24_12 1_555 1_555
H19_12 C24_12 1_555 1_555
H20_12 C24_12 1_555 1_555
Mn3_7 O7_13 1_555 1_555
O9_13 Mn3_7 1_555 1_555
O10_13 Mn3_7 1_555 1_555
N7_13 Mn3_7 1_555 1_555
N8_13 Mn1_11 1_555 1_555
N9_13 C40_13 1_555 1_555
C38_13 O9_13 1_555 1_555
C39_11 C38_13 1_555 1_555
H31_11 C39_11 1_555 1_555
H32_11 C39_11 1_555 1_555
H33_11 C39_11 1_555 1_555
C40_13 O10_13 1_555 1_555
H34_13 C40_13 1_555 1_555
C42_13 N9_13 1_555 1_555
H38_13 C42_13 1_555 1_555
H39_13 C42_13 1_555 1_555
H40_13 C42_13 1_555 1_555
O11_7 Mn3_7 1_555 1_555
N10_7 Mn3_7 1_555 1_555
N11_6 Mn2_6 1_555 1_555
Mn5_7 O5_7 1_555 1_555
N2_11 C8_12 1_555 1_555
N2_11 Mn2_6 1_555 1_555
C5_11 C6_11 1_555 1_555
C6_11 C7_11 1_555 1_555
N5_7 C23_12 1_555 1_555
N5_7 Mn5_7 1_555 1_555
C20_13 C21_13 1_555 1_555
C21_13 C22_13 1_555 1_555
N7_13 N8_13 1_555 1_555
N8_13 C38_13 1_555 1_555
Mn1_12 O1_10 1_555 1_555
O1_10 C1_10 1_555 1_555
O2_12 C7_12 1_555 1_555
O3_13 Mn1_12 1_555 1_555
N1_12 Mn1_12 1_555 1_555
N2_12 N1_12 1_555 1_555
N3_10 Mn1_12 1_555 1_555
C1_10 C2_10 1_555 1_555
C2_10 H1_10 1_555 1_555
C3_10 C2_10 1_555 1_555
H2_10 C3_10 1_555 1_555
C4_12 C3_10 1_555 1_555
H3_12 C4_12 1_555 1_555
C5_12 C4_12 1_555 1_555
H4_12 C5_12 1_555 1_555
C6_12 C1_10 1_555 1_555
C7_12 N1_12 1_555 1_555
C8_13 O3_13 1_555 1_555
C9_13 C8_13 1_555 1_555
H5_13 C9_13 1_555 1_555
H6_13 C9_13 1_555 1_555
H7_13 C9_13 1_555 1_555
C10_10 N3_10 1_555 1_555
H8_10 C10_10 1_555 1_555
C11_10 C10_10 1_555 1_555
H9_10 C11_10 1_555 1_555
C12_11 C11_10 1_555 1_555
C13_11 C12_11 1_555 1_555
H10_11 C13_11 1_555 1_555
C14_11 N3_10 1_555 1_555
H11_11 C14_11 1_555 1_555
C15_11 C12_11 1_555 1_555
H12_12 C15_11 1_555 1_555
H13_11 C15_11 1_555 1_555
Mn4_6 O2_12 1_555 1_555
O4_12 Mn4_6 1_555 1_555
N11_6 C25_12 1_555 1_555
C16_13 O4_12 1_555 1_555
C17_13 C16_13 1_555 1_555
H14_13 C17_13 1_555 1_555
C18_13 C17_13 1_555 1_555
H15_13 C18_13 1_555 1_555
C25_12 H21_12 1_555 1_555
C26_12 C25_12 1_555 1_555
H22_12 C26_12 1_555 1_555
C27_12 C26_12 1_555 1_555
C28_12 C27_12 1_555 1_555
H23_12 C28_12 1_555 1_555
C29_12 N11_6 1_555 1_555
H24_12 C29_12 1_555 1_555
C30_12 C15_11 1_555 1_555
H25_12 C30_12 1_555 1_555
H26_12 C30_12 1_555 1_555
O8_10 Mn1_12 1_555 1_555
H31_12 C39_12 1_555 1_555
H32_12 C39_12 1_555 1_555
H33_12 C39_12 1_555 1_555
N2_12 C8_13 1_555 1_555
N2_12 Mn4_6 1_555 1_555
C5_12 C6_12 1_555 1_555
C6_12 C7_12 1_555 1_555
C13_11 C14_11 1_555 1_555
C27_12 C30_12 1_555 1_555
C28_12 C29_12 1_555 1_555
C23_13 O6_13 1_555 1_555
C24_13 C23_13 1_555 1_555
H18_13 C24_13 1_555 1_555
H19_13 C24_13 1_555 1_555
H20_13 C24_13 1_555 1_555
Mn1_13 O1_11 1_555 1_555
O1_11 C1_11 1_555 1_555
O2_13 C7_13 1_555 1_555
O3_14 Mn1_13 1_555 1_555
N1_13 Mn1_13 1_555 1_555
N2_13 N1_13 1_555 1_555
N3_11 Mn1_13 1_555 1_555
C1_11 C2_11 1_555 1_555
C2_11 H1_11 1_555 1_555
C3_11 C2_11 1_555 1_555
H2_11 C3_11 1_555 1_555
C4_13 C3_11 1_555 1_555
H3_13 C4_13 1_555 1_555
C5_13 C4_13 1_555 1_555
H4_13 C5_13 1_555 1_555
C6_13 C1_11 1_555 1_555
C7_13 N1_13 1_555 1_555
C8_14 O3_14 1_555 1_555
C9_14 C8_14 1_555 1_555
H5_14 C9_14 1_555 1_555
H6_14 C9_14 1_555 1_555
H7_14 C9_14 1_555 1_555
C10_11 N3_11 1_555 1_555
H8_11 C10_11 1_555 1_555
C11_11 C10_11 1_555 1_555
H9_11 C11_11 1_555 1_555
C12_12 C11_11 1_555 1_555
C13_12 C12_12 1_555 1_555
H10_12 C13_12 1_555 1_555
C14_12 N3_11 1_555 1_555
H11_12 C14_12 1_555 1_555
C15_12 C12_12 1_555 1_555
H12_13 C15_12 1_555 1_555
H13_12 C15_12 1_555 1_555
Mn2_7 O2_13 1_555 1_555
O4_13 Mn2_7 1_555 1_555
O11_7 C22_14 1_555 1_555
O6_14 Mn2_7 1_555 1_555
N4_14 Mn2_7 1_555 1_555
N10_7 N4_14 1_555 1_555
N11_7 C25_13 1_555 1_555
C16_14 O4_13 1_555 1_555
C17_14 C16_14 1_555 1_555
H14_14 C17_14 1_555 1_555
C18_14 C17_14 1_555 1_555
H15_14 C18_14 1_555 1_555
C19_14 C18_14 1_555 1_555
H16_14 C19_14 1_555 1_555
C20_14 C19_14 1_555 1_555
H17_14 C20_14 1_555 1_555
C21_14 C16_14 1_555 1_555
C22_14 N4_14 1_555 1_555
C23_14 O6_14 1_555 1_555
C24_14 C23_14 1_555 1_555
H18_14 C24_14 1_555 1_555
H19_14 C24_14 1_555 1_555
H20_14 C24_14 1_555 1_555
C26_13 C25_13 1_555 1_555
H22_13 C26_13 1_555 1_555
C27_13 C26_13 1_555 1_555
C28_13 C27_13 1_555 1_555
H23_13 C28_13 1_555 1_555
C29_13 N11_7 1_555 1_555
H24_13 C29_13 1_555 1_555
C30_13 C15_12 1_555 1_555
H25_13 C30_13 1_555 1_555
H26_13 C30_13 1_555 1_555
Mn5_7 O7_14 1_555 1_555
O7_14 C31_12 1_555 1_555
O8_11 Mn1_13 1_555 1_555
O9_14 Mn5_7 1_555 1_555
O10_14 Mn5_7 1_555 1_555
N7_14 Mn5_7 1_555 1_555
N8_14 Mn1_13 1_555 1_555
N9_14 C40_14 1_555 1_555
C31_12 C32_11 1_555 1_555
C32_11 H27_11 1_555 1_555
C33_11 C32_11 1_555 1_555
H28_11 C33_11 1_555 1_555
C34_11 C33_11 1_555 1_555
H29_11 C34_11 1_555 1_555
C35_11 C34_11 1_555 1_555
H30_11 C35_11 1_555 1_555
C36_12 C31_12 1_555 1_555
C37_12 O8_11 1_555 1_555
C38_14 O9_14 1_555 1_555
C39_13 C38_14 1_555 1_555
H31_13 C39_13 1_555 1_555
H32_13 C39_13 1_555 1_555
H33_13 C39_13 1_555 1_555
C40_14 O10_14 1_555 1_555
H34_14 C40_14 1_555 1_555
C41_12 N9_14 1_555 1_555
H35_12 C41_12 1_555 1_555
H36_12 C41_12 1_555 1_555
H37_12 C41_12 1_555 1_555
C42_14 N9_14 1_555 1_555
H38_14 C42_14 1_555 1_555
H39_14 C42_14 1_555 1_555
H40_14 C42_14 1_555 1_555
N11_8 Mn2_7 1_555 1_555
N2_13 C8_14 1_555 1_555
N2_13 Mn2_7 1_555 1_555
C5_13 C6_13 1_555 1_555
C6_13 C7_13 1_555 1_555
C13_12 C14_12 1_555 1_555
N10_7 C23_14 1_555 1_555
C20_14 C21_14 1_555 1_555
C21_14 C22_14 1_555 1_555
C27_13 C30_13 1_555 1_555
C28_13 C29_13 1_555 1_555
N7_14 N8_14 1_555 1_555
N7_14 C37_12 1_555 1_555
N8_14 C38_14 1_555 1_555
C35_11 C36_12 1_555 1_555
C36_12 C37_12 1_555 1_555
N11_8 C25_14 1_555 1_555
C25_14 H21_13 1_555 1_555
C26_14 C25_14 1_555 1_555
H22_14 C26_14 1_555 1_555
C27_14 C26_14 1_555 1_555
C28_14 C27_14 1_555 1_555
H23_14 C28_14 1_555 1_555
C29_14 N11_8 1_555 1_555
H24_14 C29_14 1_555 1_555
H25_14 C30_14 1_555 1_555
H26_14 C30_14 1_555 1_555
C27_14 C30_14 1_555 1_555
C28_14 C29_14 1_555 1_555
C8_15 O3_15 1_555 1_555
C9_15 C8_15 1_555 1_555
H5_15 C9_15 1_555 1_555
H6_15 C9_15 1_555 1_555
H7_15 C9_15 1_555 1_555
C13_13 C12_13 1_555 1_555
H10_13 C13_13 1_555 1_555
H11_13 C14_13 1_555 1_555
C15_13 C12_13 1_555 1_555
H13_13 C15_13 1_555 1_555
O5_8 C22_15 1_555 1_555
N5_8 N4_15 1_555 1_555
C17_15 C16_15 1_555 1_555
H14_15 C17_15 1_555 1_555
C18_15 C17_15 1_555 1_555
H15_15 C18_15 1_555 1_555
C19_15 C18_15 1_555 1_555
H16_15 C19_15 1_555 1_555
C20_15 C19_15 1_555 1_555
H17_15 C20_15 1_555 1_555
C21_15 C16_15 1_555 1_555
C22_15 N4_15 1_555 1_555
C32_12 H27_12 1_555 1_555
C33_12 C32_12 1_555 1_555
H28_12 C33_12 1_555 1_555
C34_12 C33_12 1_555 1_555
H29_12 C34_12 1_555 1_555
C35_12 C34_12 1_555 1_555
H30_12 C35_12 1_555 1_555
Mn5_8 O5_8 1_555 1_555
C13_13 C14_13 1_555 1_555
N5_8 Mn5_8 1_555 1_555
C20_15 C21_15 1_555 1_555
C21_15 C22_15 1_555 1_555
Mn1_14 O1_12 1_555 1_555
O1_12 C1_12 1_555 1_555
O2_14 C7_14 1_555 1_555
N1_14 Mn1_14 1_555 1_555
N2_14 N1_14 1_555 1_555
N3_12 Mn1_14 1_555 1_555
C1_12 C2_12 1_555 1_555
C2_12 H1_12 1_555 1_555
C3_12 C2_12 1_555 1_555
H2_12 C3_12 1_555 1_555
C4_14 C3_12 1_555 1_555
H3_14 C4_14 1_555 1_555
C5_14 C4_14 1_555 1_555
H4_14 C5_14 1_555 1_555
C6_14 C1_12 1_555 1_555
C7_14 N1_14 1_555 1_555
C10_12 N3_12 1_555 1_555
H8_12 C10_12 1_555 1_555
C11_12 C10_12 1_555 1_555
H9_12 C11_12 1_555 1_555
Mn2_8 O2_14 1_555 1_555
O4_14 Mn2_8 1_555 1_555
O6_15 Mn2_8 1_555 1_555
C23_15 O6_15 1_555 1_555
C24_15 C23_15 1_555 1_555
H18_15 C24_15 1_555 1_555
H19_15 C24_15 1_555 1_555
H20_15 C24_15 1_555 1_555
Mn5_8 O7_15 1_555 1_555
O7_15 C31_13 1_555 1_555
O8_12 Mn1_14 1_555 1_555
O9_15 Mn5_8 1_555 1_555
O10_15 Mn5_8 1_555 1_555
N7_15 Mn5_8 1_555 1_555
N8_15 Mn1_14 1_555 1_555
N9_15 C40_15 1_555 1_555
C36_13 C31_13 1_555 1_555
C37_13 O8_12 1_555 1_555
C38_15 O9_15 1_555 1_555
C39_14 C38_15 1_555 1_555
H31_14 C39_14 1_555 1_555
H32_14 C39_14 1_555 1_555
H33_14 C39_14 1_555 1_555
C40_15 O10_15 1_555 1_555
H34_15 C40_15 1_555 1_555
C41_13 N9_15 1_555 1_555
H35_13 C41_13 1_555 1_555
H36_13 C41_13 1_555 1_555
H37_13 C41_13 1_555 1_555
C42_15 N9_15 1_555 1_555
H38_15 C42_15 1_555 1_555
H39_15 C42_15 1_555 1_555
H40_15 C42_15 1_555 1_555
N11_9 Mn2_8 1_555 1_555
N2_14 Mn2_8 1_555 1_555
C5_14 C6_14 1_555 1_555
C6_14 C7_14 1_555 1_555
N7_15 N8_15 1_555 1_555
N7_15 C37_13 1_555 1_555
N8_15 C38_15 1_555 1_555
C36_13 C37_13 1_555 1_555
O1_13 C1_13 1_555 1_555
C1_13 C2_13 1_555 1_555
C2_13 H1_13 1_555 1_555
C3_13 C2_13 1_555 1_555
H2_13 C3_13 1_555 1_555
C10_13 N3_13 1_555 1_555
H8_13 C10_13 1_555 1_555
C11_13 C10_13 1_555 1_555
H9_13 C11_13 1_555 1_555
C12_14 C11_13 1_555 1_555
C13_14 C12_14 1_555 1_555
H10_14 C13_14 1_555 1_555
C14_14 N3_13 1_555 1_555
H11_14 C14_14 1_555 1_555
C15_14 C12_14 1_555 1_555
H12_15 C15_14 1_555 1_555
H13_14 C15_14 1_555 1_555
N11_9 C25_15 1_555 1_555
C25_15 H21_14 1_555 1_555
C26_15 C25_15 1_555 1_555
H22_15 C26_15 1_555 1_555
C27_15 C26_15 1_555 1_555
C28_15 C27_15 1_555 1_555
H23_15 C28_15 1_555 1_555
C29_15 N11_9 1_555 1_555
H24_15 C29_15 1_555 1_555
C30_15 C15_14 1_555 1_555
H25_15 C30_15 1_555 1_555
H26_15 C30_15 1_555 1_555
C31_14 C32_13 1_555 1_555
C32_13 H27_13 1_555 1_555
C33_13 C32_13 1_555 1_555
H28_13 C33_13 1_555 1_555
C34_13 C33_13 1_555 1_555
H29_13 C34_13 1_555 1_555
C35_13 C34_13 1_555 1_555
H30_13 C35_13 1_555 1_555
C36_14 C31_14 1_555 1_555
C37_14 O8_13 1_555 1_555
H35_14 C41_14 1_555 1_555
H36_14 C41_14 1_555 1_555
H37_14 C41_14 1_555 1_555
C13_14 C14_14 1_555 1_555
C27_15 C30_15 1_555 1_555
C28_15 C29_15 1_555 1_555
C35_13 C36_14 1_555 1_555
C36_14 C37_14 1_555 1_555
Mn1_15 O1_14 1_555 1_555
O1_14 C1_14 1_555 1_555
O2_15 C7_15 1_555 1_555
N1_15 Mn1_15 1_555 1_555
N2_15 N1_15 1_555 1_555
N3_14 Mn1_15 1_555 1_555
C1_14 C2_14 1_555 1_555
C2_14 H1_14 1_555 1_555
C3_14 C2_14 1_555 1_555
H2_14 C3_14 1_555 1_555
C4_15 C3_14 1_555 1_555
H3_15 C4_15 1_555 1_555
C5_15 C4_15 1_555 1_555
H4_15 C5_15 1_555 1_555
C6_15 C1_14 1_555 1_555
C7_15 N1_15 1_555 1_555
C10_14 N3_14 1_555 1_555
H8_14 C10_14 1_555 1_555
C11_14 C10_14 1_555 1_555
H9_14 C11_14 1_555 1_555
Mn2_9 O2_15 1_555 1_555
O4_15 Mn2_9 1_555 1_555
O6_16 Mn2_9 1_555 1_555
C23_16 O6_16 1_555 1_555
C24_16 C23_16 1_555 1_555
H18_16 C24_16 1_555 1_555
H19_16 C24_16 1_555 1_555
H20_16 C24_16 1_555 1_555
Mn3_8 O7_16 1_555 1_555
O7_16 C31_15 1_555 1_555
O8_14 Mn1_15 1_555 1_555
O9_16 Mn3_8 1_555 1_555
O10_16 Mn3_8 1_555 1_555
N7_16 Mn3_8 1_555 1_555
N8_16 Mn1_15 1_555 1_555
N9_16 C40_16 1_555 1_555
C36_15 C31_15 1_555 1_555
C37_15 O8_14 1_555 1_555
C38_16 O9_16 1_555 1_555
C39_15 C38_16 1_555 1_555
H31_15 C39_15 1_555 1_555
H32_15 C39_15 1_555 1_555
H33_15 C39_15 1_555 1_555
C40_16 O10_16 1_555 1_555
H34_16 C40_16 1_555 1_555
C41_15 N9_16 1_555 1_555
H35_15 C41_15 1_555 1_555
H36_15 C41_15 1_555 1_555
H37_15 C41_15 1_555 1_555
C42_16 N9_16 1_555 1_555
H38_16 C42_16 1_555 1_555
H39_16 C42_16 1_555 1_555
H40_16 C42_16 1_555 1_555
O11_8 Mn3_8 1_555 1_555
N10_8 Mn3_8 1_555 1_555
N11_10 Mn2_9 1_555 1_555
N2_15 Mn2_9 1_555 1_555
C5_15 C6_15 1_555 1_555
C6_15 C7_15 1_555 1_555
N7_16 N8_16 1_555 1_555
N7_16 C37_15 1_555 1_555
N8_16 C38_16 1_555 1_555
C36_15 C37_15 1_555 1_555
O1_15 C1_15 1_555 1_555
C1_15 C2_15 1_555 1_555
C2_15 H1_15 1_555 1_555
C3_15 C2_15 1_555 1_555
H2_15 C3_15 1_555 1_555
C10_15 N3_15 1_555 1_555
H8_15 C10_15 1_555 1_555
C11_15 C10_15 1_555 1_555
H9_15 C11_15 1_555 1_555
C12_15 C11_15 1_555 1_555
C13_15 C12_15 1_555 1_555
H10_15 C13_15 1_555 1_555
C14_15 N3_15 1_555 1_555
H11_15 C14_15 1_555 1_555
C15_15 C12_15 1_555 1_555
H12_16 C15_15 1_555 1_555
H13_15 C15_15 1_555 1_555
N11_10 C25_16 1_555 1_555
C25_16 H21_15 1_555 1_555
C26_16 C25_16 1_555 1_555
H22_16 C26_16 1_555 1_555
C27_16 C26_16 1_555 1_555
C28_16 C27_16 1_555 1_555
H23_16 C28_16 1_555 1_555
C29_16 N11_10 1_555 1_555
H24_16 C29_16 1_555 1_555
C30_16 C15_15 1_555 1_555
H25_16 C30_16 1_555 1_555
H26_16 C30_16 1_555 1_555
C31_16 C32_14 1_555 1_555
C32_14 H27_14 1_555 1_555
C33_14 C32_14 1_555 1_555
H28_14 C33_14 1_555 1_555
C34_14 C33_14 1_555 1_555
H29_14 C34_14 1_555 1_555
C35_14 C34_14 1_555 1_555
H30_14 C35_14 1_555 1_555
C36_16 C31_16 1_555 1_555
C37_16 O8_15 1_555 1_555
H35_16 C41_16 1_555 1_555
H36_16 C41_16 1_555 1_555
H37_16 C41_16 1_555 1_555
C13_15 C14_15 1_555 1_555
C27_16 C30_16 1_555 1_555
C28_16 C29_16 1_555 1_555
C35_14 C36_16 1_555 1_555
C36_16 C37_16 1_555 1_555
C8_16 O3_16 1_555 1_555
C9_16 C8_16 1_555 1_555
H5_16 C9_16 1_555 1_555
H6_16 C9_16 1_555 1_555
H7_16 C9_16 1_555 1_555
C13_16 C12_16 1_555 1_555
H10_16 C13_16 1_555 1_555
H11_16 C14_16 1_555 1_555
C15_16 C12_16 1_555 1_555
H13_16 C15_16 1_555 1_555
O11_8 C22_16 1_555 1_555
N10_8 N4_16 1_555 1_555
C17_16 C16_16 1_555 1_555
H14_16 C17_16 1_555 1_555
C18_16 C17_16 1_555 1_555
H15_16 C18_16 1_555 1_555
C19_16 C18_16 1_555 1_555
H16_16 C19_16 1_555 1_555
C20_16 C19_16 1_555 1_555
H17_16 C20_16 1_555 1_555
C21_16 C16_16 1_555 1_555
C22_16 N4_16 1_555 1_555
C32_15 H27_15 1_555 1_555
C33_15 C32_15 1_555 1_555
H28_15 C33_15 1_555 1_555
C34_15 C33_15 1_555 1_555
H29_15 C34_15 1_555 1_555
C35_15 C34_15 1_555 1_555
H30_15 C35_15 1_555 1_555
C13_16 C14_16 1_555 1_555
C20_16 C21_16 1_555 1_555
C21_16 C22_16 1_555 1_555
Mn1_16 O1_16 1_555 1_555
O1_16 C1_16 1_555 1_555
O2_16 C7_16 1_555 1_555
N1_16 Mn1_16 1_555 1_555
N2_16 N1_16 1_555 1_555
N3_16 Mn1_16 1_555 1_555
C1_16 C2_16 1_555 1_555
C2_16 H1_16 1_555 1_555
C3_16 C2_16 1_555 1_555
H2_16 C3_16 1_555 1_555
C4_16 C3_16 1_555 1_555
H3_16 C4_16 1_555 1_555
C5_16 C4_16 1_555 1_555
H4_16 C5_16 1_555 1_555
C6_16 C1_16 1_555 1_555
C7_16 N1_16 1_555 1_555
C10_16 N3_16 1_555 1_555
H8_16 C10_16 1_555 1_555
C11_16 C10_16 1_555 1_555
H9_16 C11_16 1_555 1_555
Mn2_10 O2_16 1_555 1_555
O4_16 Mn2_10 1_555 1_555
O8_16 Mn1_16 1_555 1_555
H31_16 C39_16 1_555 1_555
H32_16 C39_16 1_555 1_555
H33_16 C39_16 1_555 1_555
N2_16 Mn2_10 1_555 1_555
C5_16 C6_16 1_555 1_555
C6_16 C7_16 1_555 1_555
C32_16 H27_16 1_555 1_555
C33_16 C32_16 1_555 1_555
H28_16 C33_16 1_555 1_555
C34_16 C33_16 1_555 1_555
H29_16 C34_16 1_555 1_555
C35_16 C34_16 1_555 1_555
H30_16 C35_16 1_555 1_555

#END
