
###############################################################################
#
# This file contains modified crystal structure data generated from the
# MOF subset of the Cambridge Structural Database (CSD) v543 
# hosted by the Cambridge Crystallographic Data Centre (CCDC).
#
# This work is licensed under the Creative Commons
# Attribution-NonCommercial-ShareAlike 4.0 International License.
# To view a copy of this license, visit
# http://creativecommons.org/licenses/by-nc-sa/4.0/
# or send a letter to
# Creative Commons, PO Box 1866, Mountain View, CA 94042, USA.
#
# CIF created using the CSD Python API on 29 September 2022
# The structure has been converted into the P1 space group
# The structure has a 3D framework
# The original CSD entry XALBIW is in the tetragonal crystal system
# The framework has been calculated to contain at least 10.0% void space
# The void calculation uses a probe of radius 1.32A, grid spacing 0.4
#
###############################################################################

data_XALBIW
_chemical_formula_moiety         '(C720 H736 Mn48 N144 O160)n'
_symmetry_cell_setting           triclinic
_symmetry_space_group_name_H-M   'P 1'
_symmetry_Int_Tables_number      1
_space_group_name_Hall           'P 1'
loop_
_symmetry_equiv_pos_site_id
_symmetry_equiv_pos_as_xyz
1 x,y,z
_cell_length_a                   40.6479(16)
_cell_length_b                   40.6479(16)
_cell_length_c                   17.5642(10)
_cell_angle_alpha                90
_cell_angle_beta                 90
_cell_angle_gamma                90
_cell_volume                     29020.5
loop_
_atom_site_label
_atom_site_type_symbol
_atom_site_fract_x
_atom_site_fract_y
_atom_site_fract_z
Mn1 Mn 0.795732(13) 0.325349(12) 0.08284(3)
O1 O 0.77014(7) 0.34713(6) 0.01096(16)
O3 O 0.82060(6) 0.29606(5) 0.14836(13)
O4 O 0.84379(7) 0.33754(6) 0.02509(16)
N1 N 0.78902(7) 0.28382(6) 0.02932(16)
N2 N 0.80400(7) 0.25644(6) 0.06416(16)
N3 N 0.90001(11) 0.33980(11) 0.0257(3)
C8 C 0.81975(8) 0.26528(8) 0.12573(18)
C9 C 0.83773(9) 0.23982(9) 0.1708(2)
H5 H 0.8513 0.2266 0.1354
H6 H 0.8213 0.2249 0.1940
C10 C 0.85989(12) 0.25270(11) 0.2334(3)
H7 H 0.8761 0.2678 0.2116
H8 H 0.8713 0.2342 0.2578
H9 H 0.8466 0.2643 0.2714
C11 C 0.87098(13) 0.32883(13) 0.0503(3)
H10 H 0.8711 0.3131 0.0902
C13 C 0.93016(15) 0.3286(2) 0.0620(5)
H14 H 0.9382 0.3456 0.0969
H15 H 0.9469 0.3243 0.0230
H16 H 0.9258 0.3083 0.0905
Mn2 Mn 0.786836(13) 0.210478(12) 0.00360(3)
O6 O 0.81642(6) 0.13420(6) 0.14585(13)
O7 O 0.74477(6) 0.21297(6) 0.05525(13)
N4 N 0.79196(7) 0.17442(6) 0.07597(15)
N5 N 0.76351(7) 0.16828(7) 0.12072(16)
C17 C 0.89929(11) 0.13137(11) 0.0104(3)
H19 H 0.9159 0.1155 0.0201
C18 C 0.87143(9) 0.13318(9) 0.0555(2)
H20 H 0.8691 0.1183 0.0969
C19 C 0.84675(9) 0.15624(8) 0.0418(2)
C20 C 0.81691(8) 0.15483(8) 0.09086(19)
C21 C 0.74054(9) 0.18933(8) 0.1047(2)
C22 C 0.70752(9) 0.18619(10) 0.1420(3)
H21 H 0.7055 0.2032 0.1820
H22 H 0.7061 0.1644 0.1671
C23 C 0.67894(14) 0.18974(18) 0.0869(4)
H23 H 0.6805 0.2110 0.0607
H24 H 0.6582 0.1886 0.1151
H25 H 0.6797 0.1719 0.0494
Mn3 Mn 0.721180(12) 0.364170(12) 0.28154(3)
O8 O 0.74118(6) 0.40237(6) 0.31741(14)
O9 O 0.80353(6) 0.36609(5) 0.14120(14)
O10 O 0.70615(6) 0.32391(6) 0.23403(14)
N7 N 0.75690(7) 0.35714(6) 0.20965(16)
N8 N 0.75486(7) 0.32707(7) 0.16851(17)
C30 C 0.76627(9) 0.41922(8) 0.2873(2)
C31 C 0.77228(10) 0.45042(9) 0.3179(2)
H32 H 0.7588 0.4583 0.3581
C32 C 0.79756(10) 0.47001(9) 0.2908(2)
H33 H 0.8012 0.4911 0.3126
C33 C 0.81728(10) 0.45928(9) 0.2329(2)
H34 H 0.8345 0.4729 0.2144
C34 C 0.81212(9) 0.42862(8) 0.2014(2)
H35 H 0.8260 0.4213 0.1613
C35 C 0.78657(8) 0.40800(8) 0.22762(19)
C36 C 0.78249(8) 0.37567(8) 0.19128(19)
C37 C 0.72740(9) 0.31201(9) 0.1858(2)
C38 C 0.71937(15) 0.28036(13) 0.1495(4)
H36 H 0.7392 0.2706 0.1257
H37 H 0.7106 0.2647 0.1875
C39 C 0.6906(2) 0.2890(2) 0.0827(6)
H38 H 0.7011 0.2997 0.0390
H39 H 0.6800 0.2686 0.0662
H40 H 0.6740 0.3038 0.1044
O11 O 0.68358(6) 0.36580(6) 0.35415(13)
N10 N 0.73649(7) 0.33172(7) 0.37928(16)
Mn4 Mn 0.778820(12) 0.135830(12) 0.21846(3)
N11 N 0.69049(7) 0.39248(7) 0.19459(17)
Mn1_2 Mn 0.924651(12) 0.545732(13) 0.83284(3)
O1_2 O 0.90287(6) 0.52014(7) 0.76096(16)
O3_2 O 0.95394(5) 0.57060(6) 0.89836(13)
O4_2 O 0.91246(6) 0.59379(7) 0.77509(16)
N1_2 N 0.96618(6) 0.53902(7) 0.77932(16)
N2_2 N 0.99356(6) 0.55400(7) 0.81416(16)
N3_2 N 0.91020(11) 0.65001(11) 0.7757(3)
C1 C 0.91388(10) 0.50484(10) 0.7010(2)
C2 C 0.89145(13) 0.48579(14) 0.6591(3)
H1 H 0.8697 0.4833 0.6777
C3 C 0.89999(15) 0.47087(16) 0.5927(4)
H2 H 0.8842 0.4580 0.5664
C4 C 0.93167(17) 0.47419(17) 0.5626(4)
H3 H 0.9372 0.4646 0.5150
C5 C 0.95526(14) 0.49214(15) 0.6044(3)
H4 H 0.9771 0.4940 0.5856
C6 C 0.94681(11) 0.50706(11) 0.6727(2)
C7 C 0.97277(9) 0.52426(9) 0.7146(2)
C8_2 C 0.98472(8) 0.56975(8) 0.87573(18)
C10_2 C 0.99730(11) 0.60989(12) 0.9834(3)
H7_2 H 0.9822 0.6261 0.9616
C11_2 C 0.92117(13) 0.62098(13) 0.8003(3)
H10_2 H 0.9369 0.6211 0.8402
C12 C 0.88553(15) 0.65304(14) 0.7210(4)
H11 H 0.8880 0.6356 0.6829
H12 H 0.8873 0.6746 0.6962
H13 H 0.8640 0.6511 0.7455
C13_2 C 0.9214(2) 0.68016(15) 0.8120(5)
H14_2 H 0.9044 0.6882 0.8469
H15_2 H 0.9257 0.6969 0.7730
H16_2 H 0.9417 0.6758 0.8405
O9_2 O 0.88391(5) 0.55353(6) 0.89120(14)
O10_2 O 0.92609(6) 0.45615(6) 0.98403(14)
N7_2 N 0.89286(6) 0.50690(7) 0.95965(16)
N8_2 N 0.92293(7) 0.50486(7) 0.91851(17)
C33_2 C 0.79072(9) 0.56728(10) 0.9829(2)
H34_2 H 0.7771 0.5845 0.9644
C34_2 C 0.82138(8) 0.56212(9) 0.9514(2)
H35_2 H 0.8287 0.5760 0.9113
C35_2 C 0.84200(8) 0.53657(8) 0.97762(19)
C36_2 C 0.87433(8) 0.53249(8) 0.94128(19)
C37_2 C 0.93799(9) 0.47740(9) 0.9358(2)
C38_2 C 0.96964(13) 0.46937(15) 0.8995(4)
H36_2 H 0.9794 0.4892 0.8757
H37_2 H 0.9853 0.4606 0.9375
C39_2 C 0.9610(2) 0.4406(2) 0.8327(6)
H38_2 H 0.9503 0.4511 0.7890
H39_2 H 0.9814 0.4300 0.8162
H40_2 H 0.9462 0.4240 0.8544
N11_2 N 0.85752(7) 0.44049(7) 0.94459(17)
O7_2 O 0.96297(6) 0.00523(6) 0.80525(13)
C21_2 C 0.93933(8) 0.00946(9) 0.8547(2)
C22_2 C 0.93619(10) 0.04248(9) 0.8920(3)
H21_2 H 0.9532 0.0445 0.9320
H22_2 H 0.9144 0.0439 0.9171
C23_2 C 0.93974(18) 0.07106(14) 0.8369(4)
H23_2 H 0.9610 0.0695 0.8107
H24_2 H 0.9386 0.0918 0.8651
H25_2 H 0.9219 0.0703 0.7994
C26 C 0.88533(14) 0.0230(2) 0.5705(3)
C27 C 0.91659(16) 0.03816(18) 0.5941(4)
H28 H 0.9225 0.0597 0.5786
C28 C 0.93697(13) 0.01921(15) 0.6404(3)
H29 H 0.9579 0.0276 0.6542
C29 C 0.86193(16) 0.0430(3) 0.5179(5)
H30 H 0.8484 0.0273 0.4885
H31 H 0.8468 0.0558 0.5506
N9 N 0.80951(7) 0.10752(7) 0.30541(17)
C40 C 0.80821(11) 0.11447(11) 0.3794(2)
H41 H 0.7923 0.1299 0.3964
C41 C 0.82866(13) 0.10056(13) 0.4326(3)
H42 H 0.8263 0.1061 0.4849
C42 C 0.85226(14) 0.07891(12) 0.4105(3)
C43 C 0.85338(13) 0.07034(12) 0.3340(3)
H43 H 0.8686 0.0544 0.3163
C44 C 0.83187(10) 0.08546(11) 0.2841(2)
H44 H 0.8331 0.0798 0.2317
C45 C 0.87659(17) 0.06432(15) 0.4673(3)
H45 H 0.8940 0.0525 0.4391
H46 H 0.8872 0.0824 0.4961
Mn1_3 Mn 0.704268(13) 0.174651(12) 0.41716(3)
O1_3 O 0.72986(7) 0.15287(6) 0.48904(16)
O2 O 0.72553(7) 0.25231(6) 0.56376(14)
O3_3 O 0.67940(6) 0.20394(5) 0.35164(13)
O4_3 O 0.65621(7) 0.16246(6) 0.47491(16)
N1_3 N 0.71098(7) 0.21618(6) 0.47068(16)
N2_3 N 0.69600(7) 0.24356(6) 0.43584(16)
N3_3 N 0.59999(11) 0.16020(11) 0.4743(3)
C1_2 C 0.74516(10) 0.16388(10) 0.5490(2)
C2_2 C 0.76421(14) 0.14145(13) 0.5909(3)
H1_2 H 0.7667 0.1197 0.5723
C3_2 C 0.77913(16) 0.14999(15) 0.6573(4)
H2_2 H 0.7920 0.1342 0.6836
C4_2 C 0.77581(17) 0.18167(17) 0.6874(4)
H3_2 H 0.7854 0.1872 0.7350
C5_2 C 0.75786(15) 0.20526(14) 0.6456(3)
H4_2 H 0.7560 0.2271 0.6644
C6_2 C 0.74294(11) 0.19681(11) 0.5773(2)
C7_2 C 0.72574(9) 0.22277(9) 0.5354(2)
C8_3 C 0.68025(8) 0.23472(8) 0.37427(18)
C9_2 C 0.66227(9) 0.26018(9) 0.3292(2)
H5_2 H 0.6487 0.2734 0.3646
H6_2 H 0.6787 0.2751 0.3060
C10_3 C 0.64011(12) 0.24730(11) 0.2666(3)
H7_3 H 0.6239 0.2322 0.2884
H8_2 H 0.6287 0.2658 0.2422
H9_2 H 0.6534 0.2357 0.2286
C11_3 C 0.62902(13) 0.17117(13) 0.4497(3)
H10_3 H 0.6289 0.1869 0.4098
C12_2 C 0.59696(14) 0.13553(15) 0.5290(4)
H11_2 H 0.6144 0.1380 0.5671
H12_2 H 0.5754 0.1373 0.5538
H13_2 H 0.5989 0.1140 0.5045
C13_3 C 0.56984(15) 0.1714(2) 0.4380(5)
H14_3 H 0.5618 0.1544 0.4031
H15_3 H 0.5531 0.1757 0.4770
H16_3 H 0.5742 0.1917 0.4095
Mn2_2 Mn 0.713164(13) 0.289522(12) 0.49640(3)
O5 O 0.67188(7) 0.29854(6) 0.53770(15)
O7_3 O 0.75523(6) 0.28703(6) 0.44475(13)
N4_2 N 0.70804(7) 0.32558(6) 0.42403(15)
N6 N 0.73927(10) 0.32208(9) 0.58360(18)
C14 C 0.64981(10) 0.32145(9) 0.5189(2)
C15 C 0.62117(12) 0.32346(11) 0.5639(3)
H17 H 0.6183 0.3084 0.6048
C16 C 0.59773(12) 0.34618(12) 0.5505(3)
H18 H 0.5789 0.3471 0.5825
C17_2 C 0.60071(11) 0.36863(11) 0.4896(3)
H19_2 H 0.5841 0.3845 0.4799
C18_2 C 0.62857(9) 0.36682(9) 0.4445(2)
H20_2 H 0.6309 0.3817 0.4031
C19_2 C 0.65325(9) 0.34376(8) 0.4582(2)
C20_2 C 0.68309(8) 0.34517(8) 0.40914(19)
C21_3 C 0.75946(9) 0.31067(8) 0.3953(2)
C22_3 C 0.79248(9) 0.31381(10) 0.3580(3)
H21_3 H 0.7945 0.2968 0.3180
H22_3 H 0.7939 0.3356 0.3329
C23_3 C 0.82106(14) 0.31026(18) 0.4131(4)
H23_3 H 0.8195 0.2890 0.4393
H24_3 H 0.8418 0.3114 0.3849
H25_3 H 0.8203 0.3281 0.4506
C24 C 0.72923(18) 0.35138(13) 0.6017(3)
H26 H 0.7092 0.3586 0.5794
C25 C 0.7449(2) 0.37324(13) 0.6502(3)
H27 H 0.7353 0.3940 0.6618
C26_2 C 0.7730(2) 0.36467(14) 0.6795(3)
C27_2 C 0.78816(18) 0.33341(16) 0.6559(4)
H28_2 H 0.8097 0.3275 0.6714
C28_2 C 0.76921(15) 0.31303(13) 0.6096(3)
H29_2 H 0.7776 0.2921 0.5958
C29_2 C 0.7930(3) 0.38807(16) 0.7321(5)
H30_2 H 0.7773 0.4016 0.7615
H31_2 H 0.8058 0.4032 0.6994
O8_2 O 0.75882(6) 0.09763(6) 0.18259(14)
O9_3 O 0.69647(6) 0.13391(5) 0.35880(14)
O10_3 O 0.79385(6) 0.17609(6) 0.26597(14)
N7_3 N 0.74310(7) 0.14286(6) 0.29035(16)
N8_3 N 0.74514(7) 0.17293(7) 0.33149(17)
C30_2 C 0.73373(9) 0.08078(8) 0.2127(2)
C31_2 C 0.72772(10) 0.04958(9) 0.1821(2)
H32_2 H 0.7412 0.0417 0.1419
C32_2 C 0.70244(10) 0.02999(9) 0.2092(2)
H33_2 H 0.6988 0.0089 0.1874
C33_3 C 0.68272(10) 0.04072(9) 0.2671(2)
H34_3 H 0.6655 0.0271 0.2856
C34_3 C 0.68788(9) 0.07138(8) 0.2986(2)
H35_3 H 0.6740 0.0787 0.3387
C35_3 C 0.71343(8) 0.09200(8) 0.27238(19)
C36_3 C 0.71751(8) 0.12433(8) 0.30872(19)
C37_3 C 0.77260(9) 0.18799(9) 0.3142(2)
C38_3 C 0.78063(15) 0.21964(13) 0.3505(4)
H36_3 H 0.7608 0.2294 0.3743
H37_3 H 0.7894 0.2353 0.3125
C39_3 C 0.8094(2) 0.2110(2) 0.4173(6)
H38_3 H 0.7989 0.2003 0.4610
H39_3 H 0.8200 0.2314 0.4338
H40_3 H 0.8260 0.1962 0.3956
C40_2 C 0.86447(11) 0.44179(11) 0.8706(2)
H41_2 H 0.8799 0.4577 0.8536
C41_2 C 0.85056(13) 0.42134(13) 0.8174(3)
H42_2 H 0.8561 0.4237 0.7651
C42_2 C 0.82891(12) 0.39774(14) 0.8395(3)
C43_2 C 0.82034(12) 0.39662(13) 0.9160(3)
H43_2 H 0.8044 0.3814 0.9337
C44_2 C 0.83546(11) 0.41813(10) 0.9659(2)
C45_2 C 0.81432(15) 0.37341(17) 0.7827(3)
H45_2 H 0.8025 0.3560 0.8109
H46_2 H 0.8324 0.3628 0.7539
H30_3 H 0.6516 0.4727 0.0115
C40_3 C 0.69179(11) 0.38553(11) 0.1206(2)
H41_3 H 0.7077 0.3701 0.1036
C41_3 C 0.67134(13) 0.39944(13) 0.0674(3)
H42_3 H 0.6737 0.3939 0.0151
C42_3 C 0.64774(14) 0.42109(12) 0.0895(3)
C43_3 C 0.64662(13) 0.42966(12) 0.1660(3)
H43_3 H 0.6314 0.4456 0.1837
C44_3 C 0.66813(10) 0.41454(11) 0.2159(2)
H44_2 H 0.6669 0.4202 0.2683
C45_3 C 0.62341(17) 0.43568(15) 0.0327(3)
H45_3 H 0.6060 0.4475 0.0609
H46_3 H 0.6128 0.4176 0.0039
O2_2 O 0.77447(7) 0.24769(6) 0.93624(14)
C1_3 C 0.75484(10) 0.33612(10) 0.9510(2)
C2_3 C 0.73579(14) 0.35855(13) 0.9091(3)
H1_3 H 0.7333 0.3803 0.9277
C3_3 C 0.72087(16) 0.35001(15) 0.8427(4)
H2_3 H 0.7080 0.3658 0.8164
C4_3 C 0.72419(17) 0.31833(17) 0.8126(4)
H3_3 H 0.7146 0.3128 0.7650
C5_3 C 0.74214(15) 0.29474(14) 0.8544(3)
H4_3 H 0.7440 0.2729 0.8356
C6_3 C 0.75706(11) 0.30319(11) 0.9227(2)
C7_3 C 0.77426(9) 0.27723(9) 0.9646(2)
C12_3 C 0.90304(14) 0.36447(15) 0.9710(4)
H11_3 H 0.8856 0.3620 0.9329
H12_3 H 0.9246 0.3627 0.9462
H13_3 H 0.9011 0.3860 0.9955
O5_2 O 0.82812(7) 0.20146(6) 0.96230(15)
N6_2 N 0.76073(10) 0.17792(9) 0.91640(18)
C14_2 C 0.85019(10) 0.17855(9) 0.9811(2)
C15_2 C 0.87883(12) 0.17654(11) 0.9361(3)
H17_2 H 0.8817 0.1916 0.8952
C16_2 C 0.90227(12) 0.15382(12) 0.9495(3)
H18_2 H 0.9211 0.1529 0.9175
C24_2 C 0.77077(18) 0.14862(13) 0.8983(3)
H26_2 H 0.7908 0.1414 0.9206
C25_2 C 0.7551(2) 0.12676(13) 0.8498(3)
H27_2 H 0.7647 0.1060 0.8382
C26_3 C 0.7270(2) 0.13533(14) 0.8205(3)
C27_3 C 0.71184(18) 0.16659(16) 0.8441(4)
H28_3 H 0.6903 0.1725 0.8286
C28_3 C 0.73079(15) 0.18697(13) 0.8904(3)
H29_3 H 0.7224 0.2079 0.9042
C29_3 C 0.7070(3) 0.11193(16) 0.7679(5)
H30_4 H 0.7227 0.0984 0.7385
H31_3 H 0.6942 0.0968 0.8006
N9_2 N 0.64248(7) 0.05951(7) 0.55541(17)
C40_4 C 0.63553(11) 0.05821(11) 0.6294(2)
H41_4 H 0.6201 0.0423 0.6464
C41_4 C 0.64944(13) 0.07866(13) 0.6826(3)
H42_4 H 0.6439 0.0763 0.7349
C42_4 C 0.67109(12) 0.10226(14) 0.6605(3)
C43_4 C 0.67966(12) 0.10338(13) 0.5840(3)
H43_4 H 0.6956 0.1186 0.5663
C44_4 C 0.66454(11) 0.08187(10) 0.5341(2)
H44_3 H 0.6702 0.0831 0.4817
C45_4 C 0.68568(15) 0.12659(17) 0.7173(3)
H45_4 H 0.6975 0.1440 0.6891
H46_4 H 0.6676 0.1372 0.7461
Mn5 Mn 0.614170(12) 0.028820(12) 0.46846(3)
Mn1_4 Mn 0.424651(12) 0.045732(13) 0.33284(3)
O1_4 O 0.40287(6) 0.02014(7) 0.26096(16)
O2_3 O 0.50231(6) 0.02447(7) 0.18624(14)
O3_4 O 0.45394(5) 0.07060(6) 0.39836(13)
O4_4 O 0.41246(6) 0.09379(7) 0.27509(16)
N1_4 N 0.46618(6) 0.03902(7) 0.27932(16)
N2_4 N 0.49356(6) 0.05400(7) 0.31416(16)
N3_4 N 0.41020(11) 0.15001(11) 0.2757(3)
C1_4 C 0.41388(10) 0.00484(10) 0.2010(2)
C6_4 C 0.44681(11) 0.00706(11) 0.1727(2)
C7_4 C 0.47277(9) 0.02426(9) 0.2146(2)
C8_4 C 0.48472(8) 0.06975(8) 0.37573(18)
C9_3 C 0.51018(9) 0.08773(9) 0.4208(2)
H5_3 H 0.5234 0.1013 0.3854
H6_3 H 0.5251 0.0713 0.4440
C10_4 C 0.49730(11) 0.10989(12) 0.4834(3)
H7_4 H 0.4822 0.1261 0.4616
H8_3 H 0.5158 0.1213 0.5078
H9_3 H 0.4857 0.0966 0.5214
C11_4 C 0.42117(13) 0.12098(13) 0.3003(3)
H10_4 H 0.4369 0.1211 0.3402
C12_4 C 0.38553(15) 0.15304(14) 0.2210(4)
H11_4 H 0.3880 0.1356 0.1829
H12_4 H 0.3873 0.1746 0.1962
H13_4 H 0.3640 0.1511 0.2455
C13_4 C 0.4214(2) 0.18016(15) 0.3120(5)
H14_4 H 0.4044 0.1882 0.3469
H15_4 H 0.4257 0.1969 0.2730
H16_4 H 0.4417 0.1758 0.3405
Mn2_3 Mn 0.539522(12) 0.036836(13) 0.25360(3)
O5_3 O 0.54854(6) 0.07812(7) 0.21230(15)
O6_2 O 0.61580(6) 0.06642(6) 0.39585(13)
N4_3 N 0.57558(6) 0.04196(7) 0.32597(15)
N5_2 N 0.58172(7) 0.01351(7) 0.37072(16)
N6_3 N 0.57208(9) 0.01073(10) 0.16640(18)
C14_3 C 0.57145(9) 0.10019(10) 0.2311(2)
C15_3 C 0.57346(11) 0.12883(12) 0.1861(3)
H17_3 H 0.5584 0.1317 0.1452
C16_3 C 0.59618(12) 0.15227(12) 0.1995(3)
H18_3 H 0.5971 0.1711 0.1675
C17_3 C 0.61863(11) 0.14929(11) 0.2604(3)
H19_3 H 0.6345 0.1659 0.2701
C18_3 C 0.61682(9) 0.12143(9) 0.3055(2)
H20_3 H 0.6317 0.1191 0.3469
C19_3 C 0.59376(8) 0.09675(9) 0.2918(2)
C20_3 C 0.59517(8) 0.06691(8) 0.34086(19)
C24_3 C 0.60138(13) 0.02077(18) 0.1483(3)
H26_3 H 0.6086 0.0408 0.1706
C25_3 C 0.62324(13) 0.0051(2) 0.0998(3)
H27_3 H 0.6440 0.0147 0.0882
O9_4 O 0.38391(5) 0.05353(6) 0.39120(14)
N7_4 N 0.39286(6) 0.00690(7) 0.45965(16)
N8_4 N 0.42293(7) 0.00486(7) 0.41851(17)
C30_3 C 0.33078(8) 0.01627(9) 0.5373(2)
C31_3 C 0.29958(9) 0.02228(10) 0.5679(2)
H32_3 H 0.2917 0.0088 0.6081
C32_3 C 0.27999(9) 0.04756(10) 0.5408(2)
H33_3 H 0.2589 0.0512 0.5626
C33_4 C 0.29072(9) 0.06728(10) 0.4829(2)
H34_4 H 0.2771 0.0845 0.4644
C34_4 C 0.32138(8) 0.06212(9) 0.4514(2)
H35_4 H 0.3287 0.0760 0.4113
C35_4 C 0.34200(8) 0.03657(8) 0.47762(19)
C36_4 C 0.37433(8) 0.03249(8) 0.44128(19)
C2_4 C 0.60855(13) 0.01421(14) 0.8409(3)
H1_4 H 0.6303 0.0167 0.8223
C3_4 C 0.60001(15) 0.02913(16) 0.9073(4)
H2_4 H 0.6158 0.0420 0.9336
C4_4 C 0.56833(17) 0.02581(17) 0.9374(4)
H3_4 H 0.5628 0.0354 0.9850
C5_4 C 0.54474(14) 0.00786(15) 0.8956(3)
H4_4 H 0.5229 0.0060 0.9144
O7_4 O 0.46297(6) 0.00523(6) 0.69475(13)
C21_4 C 0.43933(8) 0.00946(9) 0.6453(2)
C22_4 C 0.43619(10) 0.04248(9) 0.6080(3)
H21_4 H 0.4532 0.0445 0.5680
H22_4 H 0.4144 0.0439 0.5829
C23_4 C 0.43974(18) 0.07106(14) 0.6631(4)
H23_4 H 0.4610 0.0695 0.6893
H24_4 H 0.4386 0.0918 0.6349
H25_4 H 0.4219 0.0703 0.7006
C26_4 C 0.38533(14) 0.0230(2) 0.9295(3)
C27_4 C 0.41659(16) 0.03816(18) 0.9059(4)
H28_4 H 0.4225 0.0597 0.9214
C28_4 C 0.43697(13) 0.01921(15) 0.8596(3)
H29_4 H 0.4579 0.0276 0.8458
C29_4 C 0.36193(16) 0.0430(3) 0.9821(5)
H31_4 H 0.3468 0.0558 0.9494
O8_3 O 0.65237(6) 0.00882(6) 0.43259(14)
O10_4 O 0.57391(6) 0.04385(6) 0.51597(14)
C37_4 C 0.56201(9) 0.02260(9) 0.5642(2)
C38_4 C 0.53036(13) 0.03063(15) 0.6005(4)
H36_4 H 0.5206 0.0108 0.6243
H37_4 H 0.5147 0.0394 0.5625
C39_4 C 0.5390(2) 0.0594(2) 0.6673(6)
H38_4 H 0.5497 0.0489 0.7110
H39_4 H 0.5186 0.0700 0.6838
H40_4 H 0.5538 0.0760 0.6456
C2_5 C 0.39145(13) 0.98579(14) 0.1591(3)
H1_5 H 0.3697 0.9833 0.1777
C3_5 C 0.39999(15) 0.97087(16) 0.0927(4)
H2_5 H 0.3842 0.9580 0.0664
C4_5 C 0.43167(17) 0.97419(17) 0.0626(4)
H3_5 H 0.4372 0.9646 0.0150
C5_5 C 0.45526(14) 0.99214(15) 0.1044(3)
H4_5 H 0.4771 0.9940 0.0856
O7_5 O 0.53703(6) 0.99477(6) 0.30525(13)
C21_5 C 0.56067(8) 0.99054(9) 0.3547(2)
C22_5 C 0.56381(10) 0.95752(9) 0.3920(3)
H21_5 H 0.5468 0.9555 0.4320
H22_5 H 0.5856 0.9561 0.4171
C23_5 C 0.56026(18) 0.92894(14) 0.3369(4)
H23_5 H 0.5390 0.9305 0.3107
H24_5 H 0.5614 0.9082 0.3651
H25_5 H 0.5781 0.9297 0.2994
C26_5 C 0.61467(14) 0.9770(2) 0.0705(3)
C27_5 C 0.58341(16) 0.96184(18) 0.0941(4)
H28_5 H 0.5775 0.9403 0.0786
C28_5 C 0.56303(13) 0.98079(15) 0.1404(3)
H29_5 H 0.5421 0.9724 0.1542
C29_5 C 0.63807(16) 0.9570(3) 0.0179(5)
H31_5 H 0.6532 0.9442 0.0506
Mn3_2 Mn 0.385830(12) 0.971180(12) 0.53154(3)
O8_4 O 0.34763(6) 0.99118(6) 0.56741(14)
O10_5 O 0.42609(6) 0.95615(6) 0.48403(14)
C37_5 C 0.43799(9) 0.97740(9) 0.4358(2)
C38_5 C 0.46964(13) 0.96937(15) 0.3995(4)
H36_5 H 0.4794 0.9892 0.3757
H37_5 H 0.4853 0.9606 0.4375
C39_5 C 0.4610(2) 0.9406(2) 0.3327(6)
H38_5 H 0.4503 0.9511 0.2890
H39_5 H 0.4814 0.9300 0.3162
H40_5 H 0.4462 0.9240 0.3544
O11_2 O 0.38420(6) 0.93358(6) 0.60415(13)
N10_2 N 0.41828(7) 0.98649(7) 0.62928(16)
N11_3 N 0.35752(7) 0.94049(7) 0.44459(17)
O2_4 O 0.22553(7) 0.75231(6) 0.06376(14)
C1_5 C 0.24516(10) 0.66388(10) 0.0490(2)
C2_6 C 0.26421(14) 0.64145(13) 0.0909(3)
H1_6 H 0.2667 0.6197 0.0723
C3_6 C 0.27913(16) 0.64999(15) 0.1573(4)
H2_6 H 0.2920 0.6342 0.1836
C4_6 C 0.27581(17) 0.68167(17) 0.1874(4)
H3_6 H 0.2854 0.6872 0.2350
C5_6 C 0.25786(15) 0.70526(14) 0.1456(3)
H4_6 H 0.2560 0.7271 0.1644
C6_5 C 0.24294(11) 0.69681(11) 0.0773(2)
C7_5 C 0.22574(9) 0.72277(9) 0.0354(2)
C12_5 C 0.09696(14) 0.63553(15) 0.0290(4)
H11_5 H 0.1144 0.6380 0.0671
H12_5 H 0.0754 0.6373 0.0538
H13_5 H 0.0989 0.6140 0.0045
O5_4 O 0.17188(7) 0.79854(6) 0.03770(15)
N6_4 N 0.23927(10) 0.82208(9) 0.08360(18)
C14_4 C 0.14981(10) 0.82145(9) 0.0189(2)
C15_4 C 0.12117(12) 0.82346(11) 0.0639(3)
H17_4 H 0.1183 0.8084 0.1048
C16_4 C 0.09773(12) 0.84618(12) 0.0505(3)
H18_4 H 0.0789 0.8471 0.0825
C24_4 C 0.22923(18) 0.85138(13) 0.1017(3)
H26_4 H 0.2092 0.8586 0.0794
C25_4 C 0.2449(2) 0.87324(13) 0.1502(3)
H27_4 H 0.2353 0.8940 0.1618
C26_6 C 0.2730(2) 0.86467(14) 0.1795(3)
C27_6 C 0.28816(18) 0.83341(16) 0.1559(4)
H28_6 H 0.3097 0.8275 0.1714
C28_6 C 0.26921(15) 0.81303(13) 0.1096(3)
H29_6 H 0.2776 0.7921 0.0958
C29_6 C 0.2930(3) 0.88807(16) 0.2321(5)
H30_5 H 0.2773 0.9016 0.2615
H31_6 H 0.3058 0.9032 0.1994
C40_5 C 0.36447(11) 0.94179(11) 0.3706(2)
H41_5 H 0.3799 0.9577 0.3536
C41_5 C 0.35056(13) 0.92134(13) 0.3174(3)
H42_5 H 0.3561 0.9237 0.2651
C42_5 C 0.32891(12) 0.89774(14) 0.3395(3)
C43_5 C 0.32034(12) 0.89662(13) 0.4160(3)
H43_5 H 0.3044 0.8814 0.4337
C44_5 C 0.33546(11) 0.91813(10) 0.4659(2)
H44_4 H 0.3298 0.9169 0.5183
C45_5 C 0.31432(15) 0.87341(17) 0.2827(3)
H45_5 H 0.3025 0.8560 0.3109
H46_5 H 0.3324 0.8628 0.2539
Mn1_5 Mn 0.575349(12) 0.954268(13) 0.66716(3)
O1_5 O 0.59713(6) 0.97986(7) 0.73904(16)
O2_5 O 0.49769(6) 0.97553(7) 0.81376(14)
O3_5 O 0.54606(5) 0.92940(6) 0.60164(13)
O4_5 O 0.58754(6) 0.90621(7) 0.72491(16)
N1_5 N 0.53382(6) 0.96098(7) 0.72068(16)
N2_5 N 0.50644(6) 0.94600(7) 0.68584(16)
N3_5 N 0.58980(11) 0.84999(11) 0.7243(3)
C1_6 C 0.58612(10) 0.99516(10) 0.7990(2)
C6_6 C 0.55319(11) 0.99294(11) 0.8273(2)
C7_6 C 0.52723(9) 0.97574(9) 0.7854(2)
C8_5 C 0.51528(8) 0.93025(8) 0.62427(18)
C9_4 C 0.48982(9) 0.91227(9) 0.5792(2)
H5_4 H 0.4766 0.8987 0.6146
H6_4 H 0.4749 0.9287 0.5560
C10_5 C 0.50270(11) 0.89011(12) 0.5166(3)
H7_5 H 0.5178 0.8739 0.5384
H8_4 H 0.4842 0.8787 0.4922
H9_4 H 0.5143 0.9034 0.4786
C11_5 C 0.57883(13) 0.87902(13) 0.6997(3)
H10_5 H 0.5631 0.8789 0.6598
C12_6 C 0.61447(15) 0.84696(14) 0.7790(4)
H11_6 H 0.6120 0.8644 0.8171
H12_6 H 0.6127 0.8254 0.8038
H13_6 H 0.6360 0.8489 0.7545
C13_5 C 0.5786(2) 0.81984(15) 0.6880(5)
H14_5 H 0.5956 0.8118 0.6531
H15_5 H 0.5743 0.8031 0.7270
H16_5 H 0.5583 0.8242 0.6595
Mn2_4 Mn 0.460478(12) 0.963164(13) 0.74640(3)
O5_5 O 0.45146(6) 0.92188(7) 0.78770(15)
N4_4 N 0.42442(6) 0.95804(7) 0.67403(15)
N6_5 N 0.42792(9) 0.98927(10) 0.83360(18)
C14_5 C 0.42855(9) 0.89981(10) 0.7689(2)
C15_5 C 0.42654(11) 0.87117(12) 0.8139(3)
H17_5 H 0.4416 0.8683 0.8548
C16_5 C 0.40382(12) 0.84773(12) 0.8005(3)
H18_5 H 0.4029 0.8289 0.8325
C17_4 C 0.38137(11) 0.85071(11) 0.7396(3)
H19_4 H 0.3655 0.8341 0.7299
C18_4 C 0.38318(9) 0.87857(9) 0.6945(2)
H20_4 H 0.3683 0.8809 0.6531
C19_4 C 0.40624(8) 0.90325(9) 0.7082(2)
C20_4 C 0.40483(8) 0.93309(8) 0.65914(19)
C24_5 C 0.39862(13) 0.97923(18) 0.8517(3)
H26_5 H 0.3914 0.9592 0.8294
C25_5 C 0.37676(13) 0.9949(2) 0.9002(3)
H27_5 H 0.3560 0.9853 0.9118
O9_5 O 0.61609(5) 0.94647(6) 0.60880(14)
N7_5 N 0.60714(6) 0.99310(7) 0.54035(16)
N8_5 N 0.57707(7) 0.99514(7) 0.58149(17)
C30_4 C 0.66922(8) 0.98373(9) 0.4627(2)
C31_4 C 0.70042(9) 0.97772(10) 0.4321(2)
H32_4 H 0.7083 0.9912 0.3919
C32_4 C 0.72001(9) 0.95244(10) 0.4592(2)
H33_4 H 0.7411 0.9488 0.4374
C33_5 C 0.70928(9) 0.93272(10) 0.5171(2)
H34_5 H 0.7229 0.9155 0.5356
C34_5 C 0.67862(8) 0.93788(9) 0.5486(2)
H35_5 H 0.6713 0.9240 0.5887
C35_5 C 0.65800(8) 0.96343(8) 0.52238(19)
C36_5 C 0.62567(8) 0.96751(8) 0.55872(19)
H30_6 H 0.6516 0.9727 0.9885
N9_3 N 0.69049(7) 0.89248(7) 0.80541(17)
C40_6 C 0.69179(11) 0.88553(11) 0.8794(2)
H41_6 H 0.7077 0.8701 0.8964
C41_6 C 0.67134(13) 0.89944(13) 0.9326(3)
H42_6 H 0.6737 0.8939 0.9849
C42_6 C 0.64774(14) 0.92109(12) 0.9105(3)
C43_6 C 0.64662(13) 0.92966(12) 0.8340(3)
H43_6 H 0.6314 0.9456 0.8163
C44_6 C 0.66813(10) 0.91454(11) 0.7841(2)
H44_5 H 0.6669 0.9202 0.7317
C45_6 C 0.62341(17) 0.93568(15) 0.9673(3)
H45_6 H 0.6060 0.9475 0.9391
H46_6 H 0.6128 0.9176 0.9961
Mn5_2 Mn 0.721180(12) 0.864170(12) 0.71846(3)
H9_5 H 0.9857 0.5966 0.0214
Mn3_3 Mn 0.885830(12) 0.471180(12) 0.03154(3)
O8_5 O 0.84763(6) 0.49118(6) 0.06741(14)
C30_5 C 0.83078(8) 0.51627(9) 0.0373(2)
C31_5 C 0.79958(9) 0.52228(10) 0.0679(2)
H32_5 H 0.7917 0.5088 0.1081
C32_5 C 0.77999(9) 0.54756(10) 0.0408(2)
H33_5 H 0.7589 0.5512 0.0626
O11_3 O 0.88420(6) 0.43358(6) 0.10415(13)
N10_3 N 0.91828(7) 0.48649(7) 0.12928(16)
Mn1_6 Mn 0.704268(13) 0.674651(12) 0.58284(3)
O1_6 O 0.72986(7) 0.65287(6) 0.51096(16)
O2_6 O 0.72553(7) 0.75231(6) 0.43624(14)
O3_6 O 0.67940(6) 0.70394(5) 0.64836(13)
O4_6 O 0.65621(7) 0.66246(6) 0.52509(16)
N1_6 N 0.71098(7) 0.71618(6) 0.52932(16)
N2_6 N 0.69600(7) 0.74356(6) 0.56416(16)
N3_6 N 0.59999(11) 0.66020(11) 0.5257(3)
C1_7 C 0.74516(10) 0.66388(10) 0.4510(2)
C2_7 C 0.76421(14) 0.64145(13) 0.4091(3)
H1_7 H 0.7667 0.6197 0.4277
C3_7 C 0.77913(16) 0.64999(15) 0.3427(4)
H2_7 H 0.7920 0.6342 0.3164
C4_7 C 0.77581(17) 0.68167(17) 0.3126(4)
H3_7 H 0.7854 0.6872 0.2650
C5_7 C 0.75786(15) 0.70526(14) 0.3544(3)
H4_7 H 0.7560 0.7271 0.3356
C6_7 C 0.74294(11) 0.69681(11) 0.4227(2)
C7_7 C 0.72574(9) 0.72277(9) 0.4646(2)
C8_6 C 0.68025(8) 0.73472(8) 0.62573(18)
C9_5 C 0.66227(9) 0.76018(9) 0.6708(2)
H5_5 H 0.6487 0.7734 0.6354
H6_5 H 0.6787 0.7751 0.6940
C10_6 C 0.64011(12) 0.74730(11) 0.7334(3)
H7_6 H 0.6239 0.7322 0.7116
H8_5 H 0.6287 0.7658 0.7578
H9_6 H 0.6534 0.7357 0.7714
C11_6 C 0.62902(13) 0.67117(13) 0.5503(3)
H10_6 H 0.6289 0.6869 0.5902
C12_7 C 0.59696(14) 0.63553(15) 0.4710(4)
H11_7 H 0.6144 0.6380 0.4329
H12_7 H 0.5754 0.6373 0.4462
H13_7 H 0.5989 0.6140 0.4955
C13_6 C 0.56984(15) 0.6714(2) 0.5620(5)
H14_6 H 0.5618 0.6544 0.5969
H15_6 H 0.5531 0.6757 0.5230
H16_6 H 0.5742 0.6917 0.5905
Mn2_5 Mn 0.713164(13) 0.789522(12) 0.50360(3)
O5_6 O 0.67188(7) 0.79854(6) 0.46230(15)
O6_3 O 0.68358(6) 0.86580(6) 0.64585(13)
O7_6 O 0.75523(6) 0.78703(6) 0.55525(13)
N4_5 N 0.70804(7) 0.82558(6) 0.57597(15)
N5_3 N 0.73649(7) 0.83172(7) 0.62072(16)
N6_6 N 0.73927(10) 0.82208(9) 0.41640(18)
C14_6 C 0.64981(10) 0.82145(9) 0.4811(2)
C15_6 C 0.62117(12) 0.82346(11) 0.4361(3)
H17_6 H 0.6183 0.8084 0.3952
C16_6 C 0.59773(12) 0.84618(12) 0.4495(3)
H18_6 H 0.5789 0.8471 0.4175
C17_5 C 0.60071(11) 0.86863(11) 0.5104(3)
H19_5 H 0.5841 0.8845 0.5201
C18_5 C 0.62857(9) 0.86682(9) 0.5555(2)
H20_5 H 0.6309 0.8817 0.5969
C19_5 C 0.65325(9) 0.84376(8) 0.5418(2)
C20_5 C 0.68309(8) 0.84517(8) 0.59086(19)
C21_6 C 0.75946(9) 0.81067(8) 0.6047(2)
C22_6 C 0.79248(9) 0.81381(10) 0.6420(3)
H21_6 H 0.7945 0.7968 0.6820
H22_6 H 0.7939 0.8356 0.6671
C23_6 C 0.82106(14) 0.81026(18) 0.5869(4)
H23_6 H 0.8195 0.7890 0.5607
H24_6 H 0.8418 0.8114 0.6151
H25_6 H 0.8203 0.8281 0.5494
C24_6 C 0.72923(18) 0.85138(13) 0.3983(3)
H26_6 H 0.7092 0.8586 0.4206
C25_6 C 0.7449(2) 0.87324(13) 0.3498(3)
H27_6 H 0.7353 0.8940 0.3382
C26_7 C 0.7730(2) 0.86467(14) 0.3205(3)
C27_7 C 0.78816(18) 0.83341(16) 0.3441(4)
H28_7 H 0.8097 0.8275 0.3286
C28_7 C 0.76921(15) 0.81303(13) 0.3904(3)
H29_7 H 0.7776 0.7921 0.4042
C29_7 C 0.7930(3) 0.88807(16) 0.2679(5)
H30_7 H 0.7773 0.9016 0.2385
H31_7 H 0.8058 0.9032 0.3006
Mn3_4 Mn 0.778820(12) 0.635830(12) 0.78154(3)
O8_6 O 0.75882(6) 0.59763(6) 0.81741(14)
O9_6 O 0.69647(6) 0.63391(5) 0.64120(14)
O10_6 O 0.79385(6) 0.67609(6) 0.73403(14)
N7_6 N 0.74310(7) 0.64286(6) 0.70965(16)
N8_6 N 0.74514(7) 0.67293(7) 0.66851(17)
N9_4 N 0.85752(7) 0.94049(7) 0.05541(17)
C30_6 C 0.73373(9) 0.58078(8) 0.7873(2)
C31_6 C 0.72772(10) 0.54958(9) 0.8179(2)
H32_6 H 0.7412 0.5417 0.8581
C32_6 C 0.70244(10) 0.52999(9) 0.7908(2)
H33_6 H 0.6988 0.5089 0.8126
C33_6 C 0.68272(10) 0.54072(9) 0.7329(2)
H34_6 H 0.6655 0.5271 0.7144
C34_6 C 0.68788(9) 0.57138(8) 0.7014(2)
H35_6 H 0.6740 0.5787 0.6613
C35_6 C 0.71343(8) 0.59200(8) 0.72762(19)
C36_6 C 0.71751(8) 0.62433(8) 0.69128(19)
C37_6 C 0.77260(9) 0.68799(9) 0.6858(2)
C38_6 C 0.78063(15) 0.71964(13) 0.6495(4)
H36_6 H 0.7608 0.7294 0.6257
H37_6 H 0.7894 0.7353 0.6875
C39_6 C 0.8094(2) 0.7110(2) 0.5827(6)
H38_6 H 0.7989 0.7003 0.5390
H39_6 H 0.8200 0.7314 0.5662
H40_6 H 0.8260 0.6962 0.6044
C40_7 C 0.86447(11) 0.94179(11) 0.1294(2)
H41_7 H 0.8799 0.9577 0.1464
C41_7 C 0.85056(13) 0.92134(13) 0.1826(3)
H42_7 H 0.8561 0.9237 0.2349
C42_7 C 0.82891(12) 0.89774(14) 0.1605(3)
C43_7 C 0.82034(12) 0.89662(13) 0.0840(3)
H43_7 H 0.8044 0.8814 0.0663
C44_7 C 0.83546(11) 0.91813(10) 0.0341(2)
C45_7 C 0.81432(15) 0.87341(17) 0.2173(3)
H45_7 H 0.8025 0.8560 0.1891
H46_7 H 0.8324 0.8628 0.2461
O11_4 O 0.81642(6) 0.63420(6) 0.85415(13)
N10_4 N 0.76351(7) 0.66828(7) 0.87928(16)
N11_4 N 0.80951(7) 0.60752(7) 0.69459(17)
H44_6 H 0.8298 0.4169 0.0183
O2_7 O 0.99769(6) 0.47553(7) 0.31376(14)
C9_6 C 0.98982(9) 0.41227(9) 0.0792(2)
H5_6 H 0.9766 0.3987 0.1146
H6_6 H 0.9749 0.4287 0.0560
Mn2_6 Mn 0.960478(12) 0.463164(13) 0.24640(3)
O5_7 O 0.95146(6) 0.42188(7) 0.28770(15)
O7_7 O 0.96297(6) 0.50523(6) 0.19475(13)
N4_6 N 0.92442(6) 0.45804(7) 0.17403(15)
N6_7 N 0.92792(9) 0.48927(10) 0.33360(18)
C14_7 C 0.92855(9) 0.39981(10) 0.2689(2)
C15_7 C 0.92654(11) 0.37117(12) 0.3139(3)
H17_7 H 0.9416 0.3683 0.3548
C16_7 C 0.90382(12) 0.34773(12) 0.3005(3)
H18_7 H 0.9029 0.3289 0.3325
C17_6 C 0.88137(11) 0.35071(11) 0.2396(3)
H19_6 H 0.8655 0.3341 0.2299
C18_6 C 0.88318(9) 0.37857(9) 0.1945(2)
H20_6 H 0.8683 0.3809 0.1531
C19_6 C 0.90624(8) 0.40325(9) 0.2082(2)
C20_6 C 0.90483(8) 0.43309(8) 0.15914(19)
C21_7 C 0.93933(8) 0.50946(9) 0.1453(2)
C22_7 C 0.93619(10) 0.54248(9) 0.1080(3)
H21_7 H 0.9532 0.5445 0.0680
H22_7 H 0.9144 0.5439 0.0829
C23_7 C 0.93974(18) 0.57106(14) 0.1631(4)
H23_7 H 0.9610 0.5695 0.1893
H24_7 H 0.9386 0.5918 0.1349
H25_7 H 0.9219 0.5703 0.2006
C24_7 C 0.89862(13) 0.47923(18) 0.3517(3)
H26_7 H 0.8914 0.4592 0.3294
C25_7 C 0.87676(13) 0.4949(2) 0.4002(3)
H27_7 H 0.8560 0.4853 0.4118
C26_8 C 0.88533(14) 0.5230(2) 0.4295(3)
C27_8 C 0.91659(16) 0.53816(18) 0.4059(4)
H28_8 H 0.9225 0.5597 0.4214
C28_8 C 0.93697(13) 0.51921(15) 0.3596(3)
H29_8 H 0.9579 0.5276 0.3458
C29_8 C 0.86193(16) 0.5430(3) 0.4821(5)
H30_8 H 0.8484 0.5273 0.5115
H31_8 H 0.8468 0.5558 0.4494
C40_8 C 0.80821(11) 0.61447(11) 0.6206(2)
H41_8 H 0.7923 0.6299 0.6036
C41_8 C 0.82866(13) 0.60056(13) 0.5674(3)
H42_8 H 0.8263 0.6061 0.5151
C42_8 C 0.85226(14) 0.57891(12) 0.5895(3)
C43_8 C 0.85338(13) 0.57034(12) 0.6660(3)
H43_8 H 0.8686 0.5544 0.6837
C44_8 C 0.83187(10) 0.58546(11) 0.7159(2)
H44_7 H 0.8331 0.5798 0.7683
C45_8 C 0.87659(17) 0.56432(15) 0.5327(3)
H45_8 H 0.8940 0.5525 0.5609
H46_8 H 0.8872 0.5824 0.5039
C2_8 C 0.89145(13) 0.98579(14) 0.3409(3)
H1_8 H 0.8697 0.9833 0.3223
C3_8 C 0.89999(15) 0.97087(16) 0.4073(4)
H2_8 H 0.8842 0.9580 0.4336
C4_8 C 0.93167(17) 0.97419(17) 0.4374(4)
H3_8 H 0.9372 0.9646 0.4850
C5_8 C 0.95526(14) 0.99214(15) 0.3956(3)
H4_8 H 0.9771 0.9940 0.4144
O10_7 O 0.92609(6) 0.95615(6) 0.01597(14)
C37_7 C 0.93799(9) 0.97740(9) 0.0642(2)
C38_7 C 0.96964(13) 0.96937(15) 0.1005(4)
H36_7 H 0.9794 0.9892 0.1243
H37_7 H 0.9853 0.9606 0.0625
C39_7 C 0.9610(2) 0.9406(2) 0.1673(6)
H38_7 H 0.9503 0.9511 0.2110
H39_7 H 0.9814 0.9300 0.1838
H40_7 H 0.9462 0.9240 0.1456
Mn1_7 Mn 0.795732(13) 0.825349(12) 0.91716(3)
O1_7 O 0.77014(7) 0.84713(6) 0.98904(16)
O3_7 O 0.82060(6) 0.79606(5) 0.85164(13)
O4_7 O 0.84379(7) 0.83754(6) 0.97491(16)
N1_7 N 0.78902(7) 0.78382(6) 0.97068(16)
N2_7 N 0.80400(7) 0.75644(6) 0.93584(16)
N3_7 N 0.90001(11) 0.83980(11) 0.9743(3)
C8_7 C 0.81975(8) 0.76528(8) 0.87427(18)
C9_7 C 0.83773(9) 0.73982(9) 0.8292(2)
H5_7 H 0.8513 0.7266 0.8646
H6_7 H 0.8213 0.7249 0.8060
C10_7 C 0.85989(12) 0.75270(11) 0.7666(3)
H7_7 H 0.8761 0.7678 0.7884
H8_6 H 0.8713 0.7342 0.7422
H9_7 H 0.8466 0.7643 0.7286
C11_7 C 0.87098(13) 0.82883(13) 0.9497(3)
H10_7 H 0.8711 0.8131 0.9098
C13_7 C 0.93016(15) 0.8286(2) 0.9380(5)
H14_7 H 0.9382 0.8456 0.9031
H15_7 H 0.9469 0.8243 0.9770
H16_7 H 0.9258 0.8083 0.9095
Mn2_7 Mn 0.786836(13) 0.710478(12) 0.99640(3)
O7_8 O 0.74477(6) 0.71297(6) 0.94475(13)
N4_7 N 0.79196(7) 0.67442(6) 0.92403(15)
C17_7 C 0.89929(11) 0.63137(11) 0.9896(3)
H19_7 H 0.9159 0.6155 0.9799
C18_7 C 0.87143(9) 0.63318(9) 0.9445(2)
H20_7 H 0.8691 0.6183 0.9031
C19_7 C 0.84675(9) 0.65624(8) 0.9582(2)
C20_7 C 0.81691(8) 0.65483(8) 0.90914(19)
C21_8 C 0.74054(9) 0.68933(8) 0.8953(2)
C22_8 C 0.70752(9) 0.68619(10) 0.8580(3)
H21_8 H 0.7055 0.7032 0.8180
H22_8 H 0.7061 0.6644 0.8329
C23_8 C 0.67894(14) 0.68974(18) 0.9131(4)
H23_8 H 0.6805 0.7110 0.9393
H24_8 H 0.6582 0.6886 0.8849
H25_8 H 0.6797 0.6719 0.9506
O8_7 O 0.74118(6) 0.90237(6) 0.68259(14)
O9_7 O 0.80353(6) 0.86609(5) 0.85880(14)
O10_8 O 0.70615(6) 0.82391(6) 0.76597(14)
N7_7 N 0.75690(7) 0.85714(6) 0.79035(16)
N8_7 N 0.75486(7) 0.82707(7) 0.83149(17)
C30_7 C 0.76627(9) 0.91922(8) 0.7127(2)
C31_7 C 0.77228(10) 0.95042(9) 0.6821(2)
H32_7 H 0.7588 0.9583 0.6419
C32_7 C 0.79756(10) 0.97001(9) 0.7092(2)
H33_7 H 0.8012 0.9911 0.6874
C33_7 C 0.81728(10) 0.95928(9) 0.7671(2)
H34_7 H 0.8345 0.9729 0.7856
C34_7 C 0.81212(9) 0.92862(8) 0.7986(2)
H35_7 H 0.8260 0.9213 0.8387
C35_7 C 0.78657(8) 0.90800(8) 0.77238(19)
C36_7 C 0.78249(8) 0.87567(8) 0.80872(19)
C37_8 C 0.72740(9) 0.81201(9) 0.8142(2)
C38_8 C 0.71937(15) 0.78036(13) 0.8505(4)
H36_8 H 0.7392 0.7706 0.8743
H37_8 H 0.7106 0.7647 0.8125
C39_8 C 0.6906(2) 0.7890(2) 0.9173(6)
H38_8 H 0.7011 0.7997 0.9610
H39_8 H 0.6800 0.7686 0.9338
H40_8 H 0.6740 0.8038 0.8956
Mn1_8 Mn 0.295732(13) 0.825349(12) 0.58284(3)
O1_8 O 0.27014(7) 0.84713(6) 0.51096(16)
O2_8 O 0.27447(7) 0.74769(6) 0.43624(14)
O3_8 O 0.32060(6) 0.79606(5) 0.64836(13)
O4_8 O 0.34379(7) 0.83754(6) 0.52509(16)
N1_8 N 0.28902(7) 0.78382(6) 0.52932(16)
N2_8 N 0.30400(7) 0.75644(6) 0.56416(16)
N3_8 N 0.40001(11) 0.83980(11) 0.5257(3)
C1_8 C 0.25484(10) 0.83612(10) 0.4510(2)
C2_9 C 0.23579(14) 0.85855(13) 0.4091(3)
H1_9 H 0.2333 0.8803 0.4277
C3_9 C 0.22087(16) 0.85001(15) 0.3427(4)
H2_9 H 0.2080 0.8658 0.3164
C4_9 C 0.22419(17) 0.81833(17) 0.3126(4)
H3_9 H 0.2146 0.8128 0.2650
C5_9 C 0.24214(15) 0.79474(14) 0.3544(3)
H4_9 H 0.2440 0.7729 0.3356
C6_8 C 0.25706(11) 0.80319(11) 0.4227(2)
C7_8 C 0.27426(9) 0.77723(9) 0.4646(2)
C8_8 C 0.31975(8) 0.76528(8) 0.62573(18)
C9_8 C 0.33773(9) 0.73982(9) 0.6708(2)
H5_8 H 0.3513 0.7266 0.6354
H6_8 H 0.3213 0.7249 0.6940
C10_8 C 0.35989(12) 0.75270(11) 0.7334(3)
H7_8 H 0.3761 0.7678 0.7116
H8_7 H 0.3713 0.7342 0.7578
H9_8 H 0.3466 0.7643 0.7714
C11_8 C 0.37098(13) 0.82883(13) 0.5503(3)
H10_8 H 0.3711 0.8131 0.5902
C12_8 C 0.40304(14) 0.86447(15) 0.4710(4)
H11_8 H 0.3856 0.8620 0.4329
H12_8 H 0.4246 0.8627 0.4462
H13_8 H 0.4011 0.8860 0.4955
C13_8 C 0.43016(15) 0.8286(2) 0.5620(5)
H14_8 H 0.4382 0.8456 0.5969
H15_8 H 0.4469 0.8243 0.5230
H16_8 H 0.4258 0.8083 0.5905
Mn2_8 Mn 0.286836(13) 0.710478(12) 0.50360(3)
O5_8 O 0.32812(7) 0.70146(6) 0.46230(15)
O6_4 O 0.31642(6) 0.63420(6) 0.64585(13)
O7_9 O 0.24477(6) 0.71297(6) 0.55525(13)
N4_8 N 0.29196(7) 0.67442(6) 0.57597(15)
N5_4 N 0.26351(7) 0.66828(7) 0.62072(16)
N6_8 N 0.26073(10) 0.67792(9) 0.41640(18)
C14_8 C 0.35019(10) 0.67855(9) 0.4811(2)
C15_8 C 0.37883(12) 0.67654(11) 0.4361(3)
H17_8 H 0.3817 0.6916 0.3952
C16_8 C 0.40227(12) 0.65382(12) 0.4495(3)
H18_8 H 0.4211 0.6529 0.4175
C17_8 C 0.39929(11) 0.63137(11) 0.5104(3)
H19_8 H 0.4159 0.6155 0.5201
C18_8 C 0.37143(9) 0.63318(9) 0.5555(2)
H20_8 H 0.3691 0.6183 0.5969
C19_8 C 0.34675(9) 0.65624(8) 0.5418(2)
C20_8 C 0.31691(8) 0.65483(8) 0.59086(19)
C21_9 C 0.24054(9) 0.68933(8) 0.6047(2)
C22_9 C 0.20752(9) 0.68619(10) 0.6420(3)
H21_9 H 0.2055 0.7032 0.6820
H22_9 H 0.2061 0.6644 0.6671
C23_9 C 0.17894(14) 0.68974(18) 0.5869(4)
H23_9 H 0.1805 0.7110 0.5607
H24_9 H 0.1582 0.6886 0.6151
H25_9 H 0.1797 0.6719 0.5494
C24_8 C 0.27077(18) 0.64862(13) 0.3983(3)
H26_8 H 0.2908 0.6414 0.4206
C25_8 C 0.2551(2) 0.62676(13) 0.3498(3)
H27_8 H 0.2647 0.6060 0.3382
C26_9 C 0.2270(2) 0.63533(14) 0.3205(3)
C27_9 C 0.21184(18) 0.66659(16) 0.3441(4)
H28_9 H 0.1903 0.6725 0.3286
C28_9 C 0.23079(15) 0.68697(13) 0.3904(3)
H29_9 H 0.2224 0.7079 0.4042
C29_9 C 0.2070(3) 0.61193(16) 0.2679(5)
H30_9 H 0.2227 0.5984 0.2385
H31_9 H 0.1942 0.5968 0.3006
Mn3_5 Mn 0.221180(12) 0.864170(12) 0.78154(3)
O8_8 O 0.24118(6) 0.90237(6) 0.81741(14)
O9_8 O 0.30353(6) 0.86609(5) 0.64120(14)
O10_9 O 0.20615(6) 0.82391(6) 0.73403(14)
N7_8 N 0.25690(7) 0.85714(6) 0.70965(16)
N8_8 N 0.25486(7) 0.82707(7) 0.66851(17)
N9_5 N 0.14248(7) 0.55951(7) 0.05541(17)
C30_8 C 0.26627(9) 0.91922(8) 0.7873(2)
C31_8 C 0.27228(10) 0.95042(9) 0.8179(2)
H32_8 H 0.2588 0.9583 0.8581
C32_8 C 0.29756(10) 0.97001(9) 0.7908(2)
H33_8 H 0.3012 0.9911 0.8126
C33_8 C 0.31728(10) 0.95928(9) 0.7329(2)
H34_8 H 0.3345 0.9729 0.7144
C34_8 C 0.31212(9) 0.92862(8) 0.7014(2)
H35_8 H 0.3260 0.9213 0.6613
C35_8 C 0.28657(8) 0.90800(8) 0.72762(19)
C36_8 C 0.28249(8) 0.87567(8) 0.69128(19)
C37_9 C 0.22740(9) 0.81201(9) 0.6858(2)
C38_9 C 0.21937(15) 0.78036(13) 0.6495(4)
H36_9 H 0.2392 0.7706 0.6257
H37_9 H 0.2106 0.7647 0.6875
C39_9 C 0.1906(2) 0.7890(2) 0.5827(6)
H38_9 H 0.2011 0.7997 0.5390
H39_9 H 0.1800 0.7686 0.5662
H40_9 H 0.1740 0.8038 0.6044
C40_9 C 0.13553(11) 0.55821(11) 0.1294(2)
H41_9 H 0.1201 0.5423 0.1464
C41_9 C 0.14944(13) 0.57866(13) 0.1826(3)
H42_9 H 0.1439 0.5763 0.2349
C42_9 C 0.17109(12) 0.60226(14) 0.1605(3)
C43_9 C 0.17966(12) 0.60338(13) 0.0840(3)
H43_9 H 0.1956 0.6186 0.0663
C44_9 C 0.16454(11) 0.58187(10) 0.0341(2)
C45_9 C 0.18568(15) 0.62659(17) 0.2173(3)
H45_9 H 0.1975 0.6440 0.1891
H46_9 H 0.1676 0.6372 0.2461
O11_5 O 0.18358(6) 0.86580(6) 0.85415(13)
N10_5 N 0.23649(7) 0.83172(7) 0.87928(16)
Mn4_2 Mn 0.278820(12) 0.635830(12) 0.71846(3)
N11_5 N 0.19049(7) 0.89248(7) 0.69459(17)
H30_10 H 0.3484 0.5273 0.9885
N9_6 N 0.30951(7) 0.60752(7) 0.80541(17)
C40_10 C 0.30821(11) 0.61447(11) 0.8794(2)
H41_10 H 0.2923 0.6299 0.8964
C41_10 C 0.32866(13) 0.60056(13) 0.9326(3)
H42_10 H 0.3263 0.6061 0.9849
C42_10 C 0.35226(14) 0.57891(12) 0.9105(3)
C43_10 C 0.35338(13) 0.57034(12) 0.8340(3)
H43_10 H 0.3686 0.5544 0.8163
C44_10 C 0.33187(10) 0.58546(11) 0.7841(2)
H44_8 H 0.3331 0.5798 0.7317
C45_10 C 0.37659(17) 0.56432(15) 0.9673(3)
H45_10 H 0.3940 0.5525 0.9391
H46_10 H 0.3872 0.5824 0.9961
Mn1_9 Mn 0.204268(13) 0.674651(12) 0.91716(3)
O1_9 O 0.22986(7) 0.65287(6) 0.98904(16)
O3_9 O 0.17940(6) 0.70394(5) 0.85164(13)
O4_9 O 0.15621(7) 0.66246(6) 0.97491(16)
N1_9 N 0.21098(7) 0.71618(6) 0.97068(16)
N2_9 N 0.19600(7) 0.74356(6) 0.93584(16)
N3_9 N 0.09999(11) 0.66020(11) 0.9743(3)
C8_9 C 0.18025(8) 0.73472(8) 0.87427(18)
C9_9 C 0.16227(9) 0.76018(9) 0.8292(2)
H5_9 H 0.1487 0.7734 0.8646
H6_9 H 0.1787 0.7751 0.8060
C10_9 C 0.14011(12) 0.74730(11) 0.7666(3)
H7_9 H 0.1239 0.7322 0.7884
H8_8 H 0.1287 0.7658 0.7422
H9_9 H 0.1534 0.7357 0.7286
C11_9 C 0.12902(13) 0.67117(13) 0.9497(3)
H10_9 H 0.1289 0.6869 0.9098
C13_9 C 0.06984(15) 0.6714(2) 0.9380(5)
H14_9 H 0.0618 0.6544 0.9031
H15_9 H 0.0531 0.6757 0.9770
H16_9 H 0.0742 0.6917 0.9095
Mn2_9 Mn 0.213164(13) 0.789522(12) 0.99640(3)
O7_10 O 0.25523(6) 0.78703(6) 0.94475(13)
N4_9 N 0.20804(7) 0.82558(6) 0.92403(15)
C17_9 C 0.10071(11) 0.86863(11) 0.9896(3)
H19_9 H 0.0841 0.8845 0.9799
C18_9 C 0.12857(9) 0.86682(9) 0.9445(2)
H20_9 H 0.1309 0.8817 0.9031
C19_9 C 0.15325(9) 0.84376(8) 0.9582(2)
C20_9 C 0.18309(8) 0.84517(8) 0.90914(19)
C21_10 C 0.25946(9) 0.81067(8) 0.8953(2)
C22_10 C 0.29248(9) 0.81381(10) 0.8580(3)
H21_10 H 0.2945 0.7968 0.8180
H22_10 H 0.2939 0.8356 0.8329
C23_10 C 0.32106(14) 0.81026(18) 0.9131(4)
H23_10 H 0.3195 0.7890 0.9393
H24_10 H 0.3418 0.8114 0.8849
H25_10 H 0.3203 0.8281 0.9506
O8_9 O 0.25882(6) 0.59763(6) 0.68259(14)
O9_9 O 0.19647(6) 0.63391(5) 0.85880(14)
O10_10 O 0.29385(6) 0.67609(6) 0.76597(14)
N7_9 N 0.24310(7) 0.64286(6) 0.79035(16)
N8_9 N 0.24514(7) 0.67293(7) 0.83149(17)
C30_9 C 0.23373(9) 0.58078(8) 0.7127(2)
C31_9 C 0.22772(10) 0.54958(9) 0.6821(2)
H32_9 H 0.2412 0.5417 0.6419
C32_9 C 0.20244(10) 0.52999(9) 0.7092(2)
H33_9 H 0.1988 0.5089 0.6874
C33_9 C 0.18272(10) 0.54072(9) 0.7671(2)
H34_9 H 0.1655 0.5271 0.7856
C34_9 C 0.18788(9) 0.57138(8) 0.7986(2)
H35_9 H 0.1740 0.5787 0.8387
C35_9 C 0.21343(8) 0.59200(8) 0.77238(19)
C36_9 C 0.21751(8) 0.62433(8) 0.80872(19)
C37_10 C 0.27260(9) 0.68799(9) 0.8142(2)
C38_10 C 0.28063(15) 0.71964(13) 0.8505(4)
H36_10 H 0.2608 0.7294 0.8743
H37_10 H 0.2894 0.7353 0.8125
C39_10 C 0.3094(2) 0.7110(2) 0.9173(6)
H38_10 H 0.2989 0.7003 0.9610
H39_10 H 0.3200 0.7314 0.9338
H40_10 H 0.3260 0.6962 0.8956
Mn1_10 Mn 0.075349(12) 0.454268(13) 0.16716(3)
O1_10 O 0.09713(6) 0.47986(7) 0.23904(16)
O3_10 O 0.04606(5) 0.42940(6) 0.10164(13)
O4_10 O 0.08754(6) 0.40621(7) 0.22491(16)
N1_10 N 0.03382(6) 0.46098(7) 0.22068(16)
N2_10 N 0.00644(6) 0.44600(7) 0.18584(16)
N3_10 N 0.08980(11) 0.34999(11) 0.2243(3)
C1_9 C 0.08612(10) 0.49516(10) 0.2990(2)
C2_10 C 0.10855(13) 0.51421(14) 0.3409(3)
H1_10 H 0.1303 0.5167 0.3223
C3_10 C 0.10001(15) 0.52913(16) 0.4073(4)
H2_10 H 0.1158 0.5420 0.4336
C4_10 C 0.06833(17) 0.52581(17) 0.4374(4)
H3_10 H 0.0628 0.5354 0.4850
C5_10 C 0.04474(14) 0.50786(15) 0.3956(3)
H4_10 H 0.0229 0.5060 0.4144
C6_9 C 0.05319(11) 0.49294(11) 0.3273(2)
C7_9 C 0.02723(9) 0.47574(9) 0.2854(2)
C8_10 C 0.01528(8) 0.43025(8) 0.12427(18)
C10_10 C 0.00270(11) 0.39011(12) 0.0166(3)
H7_10 H 0.0178 0.3739 0.0384
C11_10 C 0.07883(13) 0.37902(13) 0.1997(3)
H10_10 H 0.0631 0.3789 0.1598
C12_9 C 0.11447(15) 0.34696(14) 0.2790(4)
H11_9 H 0.1120 0.3644 0.3171
H12_9 H 0.1127 0.3254 0.3038
H13_9 H 0.1360 0.3489 0.2545
C13_10 C 0.0786(2) 0.31984(15) 0.1880(5)
H14_10 H 0.0956 0.3118 0.1531
H15_10 H 0.0743 0.3031 0.2270
H16_10 H 0.0583 0.3242 0.1595
O9_10 O 0.11609(5) 0.44647(6) 0.10880(14)
O10_11 O 0.07391(6) 0.54385(6) 0.01597(14)
N7_10 N 0.10714(6) 0.49310(7) 0.04035(16)
N8_10 N 0.07707(7) 0.49514(7) 0.08149(17)
C33_10 C 0.20928(9) 0.43272(10) 0.0171(2)
H34_10 H 0.2229 0.4155 0.0356
C34_10 C 0.17862(8) 0.43788(9) 0.0486(2)
H35_10 H 0.1713 0.4240 0.0887
C35_10 C 0.15800(8) 0.46343(8) 0.02238(19)
C36_10 C 0.12567(8) 0.46751(8) 0.05872(19)
C37_11 C 0.06201(9) 0.52260(9) 0.0642(2)
C38_11 C 0.03036(13) 0.53063(15) 0.1005(4)
H36_11 H 0.0206 0.5108 0.1243
H37_11 H 0.0147 0.5394 0.0625
C39_11 C 0.0390(2) 0.5594(2) 0.1673(6)
H38_11 H 0.0497 0.5489 0.2110
H39_11 H 0.0186 0.5700 0.1838
H40_11 H 0.0538 0.5760 0.1456
O7_11 O 0.03703(6) 0.99477(6) 0.19475(13)
C21_11 C 0.06067(8) 0.99054(9) 0.1453(2)
C22_11 C 0.06381(10) 0.95752(9) 0.1080(3)
H21_11 H 0.0468 0.9555 0.0680
H22_11 H 0.0856 0.9561 0.0829
C23_11 C 0.06026(18) 0.92894(14) 0.1631(4)
H23_11 H 0.0390 0.9305 0.1893
H24_11 H 0.0614 0.9082 0.1349
H25_11 H 0.0781 0.9297 0.2006
C26_10 C 0.11467(14) 0.9770(2) 0.4295(3)
C27_10 C 0.08341(16) 0.96184(18) 0.4059(4)
H28_10 H 0.0775 0.9403 0.4214
C28_10 C 0.06303(13) 0.98079(15) 0.3596(3)
H29_10 H 0.0421 0.9724 0.3458
C29_10 C 0.13807(16) 0.9570(3) 0.4821(5)
H30_11 H 0.1516 0.9727 0.5115
H31_10 H 0.1532 0.9442 0.4494
C40_11 C 0.19179(11) 0.88553(11) 0.6206(2)
H41_11 H 0.2077 0.8701 0.6036
C41_11 C 0.17134(13) 0.89944(13) 0.5674(3)
H42_11 H 0.1737 0.8939 0.5151
C42_11 C 0.14774(14) 0.92109(12) 0.5895(3)
C43_11 C 0.14662(13) 0.92966(12) 0.6660(3)
H43_11 H 0.1314 0.9456 0.6837
C44_11 C 0.16813(10) 0.91454(11) 0.7159(2)
H44_9 H 0.1669 0.9202 0.7683
C45_11 C 0.12341(17) 0.93568(15) 0.5327(3)
H45_11 H 0.1060 0.9475 0.5609
H46_11 H 0.1128 0.9176 0.5039
H44_10 H 0.1702 0.5831 0.9817
Mn5_3 Mn 0.114170(12) 0.528820(12) 0.96846(3)
O2_9 O 0.00231(6) 0.52447(7) 0.68624(14)
C9_10 C 0.01018(9) 0.58773(9) 0.9208(2)
H5_10 H 0.0234 0.6013 0.8854
H6_10 H 0.0251 0.5713 0.9440
Mn2_10 Mn 0.039522(12) 0.536836(13) 0.75360(3)
O5_9 O 0.04854(6) 0.57812(7) 0.71230(15)
O6_5 O 0.11580(6) 0.56642(6) 0.89585(13)
O7_12 O 0.03703(6) 0.49477(6) 0.80525(13)
N4_10 N 0.07558(6) 0.54196(7) 0.82597(15)
N5_5 N 0.08172(7) 0.51351(7) 0.87072(16)
N6_9 N 0.07208(9) 0.51073(10) 0.66640(18)
C14_9 C 0.07145(9) 0.60019(10) 0.7311(2)
C15_9 C 0.07346(11) 0.62883(12) 0.6861(3)
H17_9 H 0.0584 0.6317 0.6452
C16_9 C 0.09618(12) 0.65227(12) 0.6995(3)
H18_9 H 0.0971 0.6711 0.6675
C17_10 C 0.11863(11) 0.64929(11) 0.7604(3)
H19_10 H 0.1345 0.6659 0.7701
C18_10 C 0.11682(9) 0.62143(9) 0.8055(2)
H20_10 H 0.1317 0.6191 0.8469
C19_10 C 0.09376(8) 0.59675(9) 0.7918(2)
C20_10 C 0.09517(8) 0.56691(8) 0.84086(19)
C21_12 C 0.06067(8) 0.49054(9) 0.8547(2)
C22_12 C 0.06381(10) 0.45752(9) 0.8920(3)
H21_12 H 0.0468 0.4555 0.9320
H22_12 H 0.0856 0.4561 0.9171
C23_12 C 0.06026(18) 0.42894(14) 0.8369(4)
H23_12 H 0.0390 0.4305 0.8107
H24_12 H 0.0614 0.4082 0.8651
H25_12 H 0.0781 0.4297 0.7994
C24_9 C 0.10138(13) 0.52077(18) 0.6483(3)
H26_9 H 0.1086 0.5408 0.6706
C25_9 C 0.12324(13) 0.5051(2) 0.5998(3)
H27_9 H 0.1440 0.5147 0.5882
C26_11 C 0.11467(14) 0.4770(2) 0.5705(3)
C27_11 C 0.08341(16) 0.46184(18) 0.5941(4)
H28_11 H 0.0775 0.4403 0.5786
C28_11 C 0.06303(13) 0.48079(15) 0.6404(3)
H29_11 H 0.0421 0.4724 0.6542
C29_11 C 0.13807(16) 0.4570(3) 0.5179(5)
H30_12 H 0.1516 0.4727 0.4885
H31_11 H 0.1532 0.4442 0.5506
N9_7 N 0.19049(7) 0.39248(7) 0.30541(17)
C40_12 C 0.19179(11) 0.38553(11) 0.3794(2)
H41_12 H 0.2077 0.3701 0.3964
C41_12 C 0.17134(13) 0.39944(13) 0.4326(3)
H42_12 H 0.1737 0.3939 0.4849
C42_12 C 0.14774(14) 0.42109(12) 0.4105(3)
C43_12 C 0.14662(13) 0.42966(12) 0.3340(3)
H43_12 H 0.1314 0.4456 0.3163
C44_12 C 0.16813(10) 0.41454(11) 0.2841(2)
H44_11 H 0.1669 0.4202 0.2317
C45_12 C 0.12341(17) 0.43568(15) 0.4673(3)
H45_12 H 0.1060 0.4475 0.4391
H46_12 H 0.1128 0.4176 0.4961
Mn5_4 Mn 0.221180(12) 0.364170(12) 0.21846(3)
C2_11 C 0.10855(13) 0.01421(14) 0.6591(3)
H1_11 H 0.1303 0.0167 0.6777
C3_11 C 0.10001(15) 0.02913(16) 0.5927(4)
H2_11 H 0.1158 0.0420 0.5664
C4_11 C 0.06833(17) 0.02581(17) 0.5626(4)
H3_11 H 0.0628 0.0354 0.5150
C5_11 C 0.04474(14) 0.00786(15) 0.6044(3)
H4_11 H 0.0229 0.0060 0.5856
O10_12 O 0.07391(6) 0.04385(6) 0.98403(14)
C37_12 C 0.06201(9) 0.02260(9) 0.9358(2)
C38_12 C 0.03036(13) 0.03063(15) 0.8995(4)
H36_12 H 0.0206 0.0108 0.8757
H37_12 H 0.0147 0.0394 0.9375
C39_12 C 0.0390(2) 0.0594(2) 0.8327(6)
H38_12 H 0.0497 0.0489 0.7890
H39_12 H 0.0186 0.0700 0.8162
H40_12 H 0.0538 0.0760 0.8544
N11_6 N 0.14248(7) 0.05951(7) 0.94459(17)
Mn1_11 Mn 0.204268(13) 0.174651(12) 0.08284(3)
O1_11 O 0.22986(7) 0.15287(6) 0.01096(16)
O3_11 O 0.17940(6) 0.20394(5) 0.14836(13)
O4_11 O 0.15621(7) 0.16246(6) 0.02509(16)
N1_11 N 0.21098(7) 0.21618(6) 0.02932(16)
N2_11 N 0.19600(7) 0.24356(6) 0.06416(16)
N3_11 N 0.09999(11) 0.16020(11) 0.0257(3)
C8_11 C 0.18025(8) 0.23472(8) 0.12573(18)
C9_11 C 0.16227(9) 0.26018(9) 0.1708(2)
H5_11 H 0.1487 0.2734 0.1354
H6_11 H 0.1787 0.2751 0.1940
C10_11 C 0.14011(12) 0.24730(11) 0.2334(3)
H7_11 H 0.1239 0.2322 0.2116
H8_9 H 0.1287 0.2658 0.2578
H9_10 H 0.1534 0.2357 0.2714
C11_11 C 0.12902(13) 0.17117(13) 0.0503(3)
H10_11 H 0.1289 0.1869 0.0902
C13_11 C 0.06984(15) 0.1714(2) 0.0620(5)
H14_11 H 0.0618 0.1544 0.0969
H15_11 H 0.0531 0.1757 0.0230
H16_11 H 0.0742 0.1917 0.0905
Mn2_11 Mn 0.213164(13) 0.289522(12) 0.00360(3)
O6_6 O 0.18358(6) 0.36580(6) 0.14585(13)
O7_13 O 0.25523(6) 0.28703(6) 0.05525(13)
N4_11 N 0.20804(7) 0.32558(6) 0.07597(15)
N5_6 N 0.23649(7) 0.33172(7) 0.12072(16)
C17_11 C 0.10071(11) 0.36863(11) 0.0104(3)
H19_11 H 0.0841 0.3845 0.0201
C18_11 C 0.12857(9) 0.36682(9) 0.0555(2)
H20_11 H 0.1309 0.3817 0.0969
C19_11 C 0.15325(9) 0.34376(8) 0.0418(2)
C20_11 C 0.18309(8) 0.34517(8) 0.09086(19)
C21_13 C 0.25946(9) 0.31067(8) 0.1047(2)
C22_13 C 0.29248(9) 0.31381(10) 0.1420(3)
H21_13 H 0.2945 0.2968 0.1820
H22_13 H 0.2939 0.3356 0.1671
C23_13 C 0.32106(14) 0.31026(18) 0.0869(4)
H23_13 H 0.3195 0.2890 0.0607
H24_13 H 0.3418 0.3114 0.1151
H25_13 H 0.3203 0.3281 0.0494
Mn3_6 Mn 0.278820(12) 0.135830(12) 0.28154(3)
O8_10 O 0.25882(6) 0.09763(6) 0.31741(14)
O9_11 O 0.19647(6) 0.13391(5) 0.14120(14)
O10_13 O 0.29385(6) 0.17609(6) 0.23403(14)
N7_11 N 0.24310(7) 0.14286(6) 0.20965(16)
N8_11 N 0.24514(7) 0.17293(7) 0.16851(17)
C30_10 C 0.23373(9) 0.08078(8) 0.2873(2)
C31_10 C 0.22772(10) 0.04958(9) 0.3179(2)
H32_10 H 0.2412 0.0417 0.3581
C32_10 C 0.20244(10) 0.02999(9) 0.2908(2)
H33_10 H 0.1988 0.0089 0.3126
C33_11 C 0.18272(10) 0.04072(9) 0.2329(2)
H34_11 H 0.1655 0.0271 0.2144
C34_11 C 0.18788(9) 0.07138(8) 0.2014(2)
H35_11 H 0.1740 0.0787 0.1613
C35_11 C 0.21343(8) 0.09200(8) 0.22762(19)
C36_11 C 0.21751(8) 0.12433(8) 0.19128(19)
C37_13 C 0.27260(9) 0.18799(9) 0.1858(2)
C38_13 C 0.28063(15) 0.21964(13) 0.1495(4)
H36_13 H 0.2608 0.2294 0.1257
H37_13 H 0.2894 0.2353 0.1875
C39_13 C 0.3094(2) 0.2110(2) 0.0827(6)
H38_13 H 0.2989 0.2003 0.0390
H39_13 H 0.3200 0.2314 0.0662
H40_13 H 0.3260 0.1962 0.1044
O11_6 O 0.31642(6) 0.13420(6) 0.35415(13)
N10_6 N 0.26351(7) 0.16828(7) 0.37928(16)
N11_7 N 0.30951(7) 0.10752(7) 0.19459(17)
H30_13 H 0.3484 0.0273 0.0115
C40_13 C 0.30821(11) 0.11447(11) 0.1206(2)
H41_13 H 0.2923 0.1299 0.1036
C41_13 C 0.32866(13) 0.10056(13) 0.0674(3)
H42_13 H 0.3263 0.1061 0.0151
C42_13 C 0.35226(14) 0.07891(12) 0.0895(3)
C43_13 C 0.35338(13) 0.07034(12) 0.1660(3)
H43_13 H 0.3686 0.0544 0.1837
C44_13 C 0.33187(10) 0.08546(11) 0.2159(2)
H44_12 H 0.3331 0.0798 0.2683
C45_13 C 0.37659(17) 0.06432(15) 0.0327(3)
H45_13 H 0.3940 0.0525 0.0609
H46_13 H 0.3872 0.0824 0.0039
H9_11 H 0.0143 0.4034 0.9786
O8_11 O 0.15237(6) 0.50882(6) 0.93259(14)
C30_11 C 0.16922(8) 0.48373(9) 0.9627(2)
C31_11 C 0.20042(9) 0.47772(10) 0.9321(2)
H32_11 H 0.2083 0.4912 0.8919
C32_11 C 0.22001(9) 0.45244(10) 0.9592(2)
H33_11 H 0.2411 0.4488 0.9374
Mn1_12 Mn 0.295732(13) 0.325349(12) 0.41716(3)
O1_12 O 0.27014(7) 0.34713(6) 0.48904(16)
O2_10 O 0.27447(7) 0.24769(6) 0.56376(14)
O3_12 O 0.32060(6) 0.29606(5) 0.35164(13)
O4_12 O 0.34379(7) 0.33754(6) 0.47491(16)
N1_12 N 0.28902(7) 0.28382(6) 0.47068(16)
N2_12 N 0.30400(7) 0.25644(6) 0.43584(16)
N3_12 N 0.40001(11) 0.33980(11) 0.4743(3)
C1_10 C 0.25484(10) 0.33612(10) 0.5490(2)
C2_12 C 0.23579(14) 0.35855(13) 0.5909(3)
H1_12 H 0.2333 0.3803 0.5723
C3_12 C 0.22087(16) 0.35001(15) 0.6573(4)
H2_12 H 0.2080 0.3658 0.6836
C4_12 C 0.22419(17) 0.31833(17) 0.6874(4)
H3_12 H 0.2146 0.3128 0.7350
C5_12 C 0.24214(15) 0.29474(14) 0.6456(3)
H4_12 H 0.2440 0.2729 0.6644
C6_10 C 0.25706(11) 0.30319(11) 0.5773(2)
C7_10 C 0.27426(9) 0.27723(9) 0.5354(2)
C8_12 C 0.31975(8) 0.26528(8) 0.37427(18)
C9_12 C 0.33773(9) 0.23982(9) 0.3292(2)
H5_12 H 0.3513 0.2266 0.3646
H6_12 H 0.3213 0.2249 0.3060
C10_12 C 0.35989(12) 0.25270(11) 0.2666(3)
H7_12 H 0.3761 0.2678 0.2884
H8_10 H 0.3713 0.2342 0.2422
H9_12 H 0.3466 0.2643 0.2286
C11_12 C 0.37098(13) 0.32883(13) 0.4497(3)
H10_12 H 0.3711 0.3131 0.4098
C12_10 C 0.40304(14) 0.36447(15) 0.5290(4)
H11_10 H 0.3856 0.3620 0.5671
H12_10 H 0.4246 0.3627 0.5538
H13_10 H 0.4011 0.3860 0.5045
C13_12 C 0.43016(15) 0.3286(2) 0.4380(5)
H14_12 H 0.4382 0.3456 0.4031
H15_12 H 0.4469 0.3243 0.4770
H16_12 H 0.4258 0.3083 0.4095
Mn2_12 Mn 0.286836(13) 0.210478(12) 0.49640(3)
O5_10 O 0.32812(7) 0.20146(6) 0.53770(15)
O7_14 O 0.24477(6) 0.21297(6) 0.44475(13)
N4_12 N 0.29196(7) 0.17442(6) 0.42403(15)
N6_10 N 0.26073(10) 0.17792(9) 0.58360(18)
C14_10 C 0.35019(10) 0.17855(9) 0.5189(2)
C15_10 C 0.37883(12) 0.17654(11) 0.5639(3)
H17_10 H 0.3817 0.1916 0.6048
C16_10 C 0.40227(12) 0.15382(12) 0.5505(3)
H18_10 H 0.4211 0.1529 0.5825
C17_12 C 0.39929(11) 0.13137(11) 0.4896(3)
H19_12 H 0.4159 0.1155 0.4799
C18_12 C 0.37143(9) 0.13318(9) 0.4445(2)
H20_12 H 0.3691 0.1183 0.4031
C19_12 C 0.34675(9) 0.15624(8) 0.4582(2)
C20_12 C 0.31691(8) 0.15483(8) 0.40914(19)
C21_14 C 0.24054(9) 0.18933(8) 0.3953(2)
C22_14 C 0.20752(9) 0.18619(10) 0.3580(3)
H21_14 H 0.2055 0.2032 0.3180
H22_14 H 0.2061 0.1644 0.3329
C23_14 C 0.17894(14) 0.18974(18) 0.4131(4)
H23_14 H 0.1805 0.2110 0.4393
H24_14 H 0.1582 0.1886 0.3849
H25_14 H 0.1797 0.1719 0.4506
C24_10 C 0.27077(18) 0.14862(13) 0.6017(3)
H26_10 H 0.2908 0.1414 0.5794
C25_10 C 0.2551(2) 0.12676(13) 0.6502(3)
H27_10 H 0.2647 0.1060 0.6618
C26_12 C 0.2270(2) 0.13533(14) 0.6795(3)
C27_12 C 0.21184(18) 0.16659(16) 0.6559(4)
H28_12 H 0.1903 0.1725 0.6714
C28_12 C 0.23079(15) 0.18697(13) 0.6096(3)
H29_12 H 0.2224 0.2079 0.5958
C29_12 C 0.2070(3) 0.11193(16) 0.7321(5)
H30_14 H 0.2227 0.0984 0.7615
H31_12 H 0.1942 0.0968 0.6994
O8_12 O 0.24118(6) 0.40237(6) 0.18259(14)
O9_12 O 0.30353(6) 0.36609(5) 0.35880(14)
O10_14 O 0.20615(6) 0.32391(6) 0.26597(14)
N7_12 N 0.25690(7) 0.35714(6) 0.29035(16)
N8_12 N 0.25486(7) 0.32707(7) 0.33149(17)
C30_12 C 0.26627(9) 0.41922(8) 0.2127(2)
C31_12 C 0.27228(10) 0.45042(9) 0.1821(2)
H32_12 H 0.2588 0.4583 0.1419
C32_12 C 0.29756(10) 0.47001(9) 0.2092(2)
H33_12 H 0.3012 0.4911 0.1874
C33_12 C 0.31728(10) 0.45928(9) 0.2671(2)
H34_12 H 0.3345 0.4729 0.2856
C34_12 C 0.31212(9) 0.42862(8) 0.2986(2)
H35_12 H 0.3260 0.4213 0.3387
C35_12 C 0.28657(8) 0.40800(8) 0.27238(19)
C36_12 C 0.28249(8) 0.37567(8) 0.30872(19)
C37_14 C 0.22740(9) 0.31201(9) 0.3142(2)
C38_14 C 0.21937(15) 0.28036(13) 0.3505(4)
H36_14 H 0.2392 0.2706 0.3743
H37_14 H 0.2106 0.2647 0.3125
C39_14 C 0.1906(2) 0.2890(2) 0.4173(6)
H38_14 H 0.2011 0.2997 0.4610
H39_14 H 0.1800 0.2686 0.4338
H40_14 H 0.1740 0.3038 0.3956
C40_14 C 0.13553(11) 0.05821(11) 0.8706(2)
H41_14 H 0.1201 0.0423 0.8536
C41_14 C 0.14944(13) 0.07866(13) 0.8174(3)
H42_14 H 0.1439 0.0763 0.7651
C42_14 C 0.17109(12) 0.10226(14) 0.8395(3)
C43_14 C 0.17966(12) 0.10338(13) 0.9160(3)
H43_14 H 0.1956 0.1186 0.9337
C44_14 C 0.16454(11) 0.08187(10) 0.9659(2)
C45_14 C 0.18568(15) 0.12659(17) 0.7827(3)
H45_14 H 0.1975 0.1440 0.8109
H46_14 H 0.1676 0.1372 0.7539
H8_11 H 0.0158 0.6213 0.0078
Mn1_13 Mn 0.575349(12) 0.454268(13) 0.33284(3)
O1_13 O 0.59713(6) 0.47986(7) 0.26096(16)
O2_11 O 0.49769(6) 0.47553(7) 0.18624(14)
O3_13 O 0.54606(5) 0.42940(6) 0.39836(13)
O4_13 O 0.58754(6) 0.40621(7) 0.27509(16)
N1_13 N 0.53382(6) 0.46098(7) 0.27932(16)
N2_13 N 0.50644(6) 0.44600(7) 0.31416(16)
N3_13 N 0.58980(11) 0.34999(11) 0.2757(3)
C1_11 C 0.58612(10) 0.49516(10) 0.2010(2)
C2_13 C 0.60855(13) 0.51421(14) 0.1591(3)
H1_13 H 0.6303 0.5167 0.1777
C3_13 C 0.60001(15) 0.52913(16) 0.0927(4)
H2_13 H 0.6158 0.5420 0.0664
C4_13 C 0.56833(17) 0.52581(17) 0.0626(4)
H3_13 H 0.5628 0.5354 0.0150
C5_13 C 0.54474(14) 0.50786(15) 0.1044(3)
H4_13 H 0.5229 0.5060 0.0856
C6_11 C 0.55319(11) 0.49294(11) 0.1727(2)
C7_11 C 0.52723(9) 0.47574(9) 0.2146(2)
C8_13 C 0.51528(8) 0.43025(8) 0.37573(18)
C9_13 C 0.48982(9) 0.41227(9) 0.4208(2)
H5_13 H 0.4766 0.3987 0.3854
H6_13 H 0.4749 0.4287 0.4440
C10_13 C 0.50270(11) 0.39011(12) 0.4834(3)
H7_13 H 0.5178 0.3739 0.4616
H8_12 H 0.4842 0.3787 0.5078
H9_13 H 0.5143 0.4034 0.5214
C11_13 C 0.57883(13) 0.37902(13) 0.3003(3)
H10_13 H 0.5631 0.3789 0.3402
C12_11 C 0.61447(15) 0.34696(14) 0.2210(4)
H11_11 H 0.6120 0.3644 0.1829
H12_11 H 0.6127 0.3254 0.1962
H13_11 H 0.6360 0.3489 0.2455
C13_13 C 0.5786(2) 0.31984(15) 0.3120(5)
H14_13 H 0.5956 0.3118 0.3469
H15_13 H 0.5743 0.3031 0.2730
H16_13 H 0.5583 0.3242 0.3405
Mn2_13 Mn 0.460478(12) 0.463164(13) 0.25360(3)
O5_11 O 0.45146(6) 0.42188(7) 0.21230(15)
O6_7 O 0.38420(6) 0.43358(6) 0.39585(13)
O7_15 O 0.46297(6) 0.50523(6) 0.30525(13)
N4_13 N 0.42442(6) 0.45804(7) 0.32597(15)
N5_7 N 0.41828(7) 0.48649(7) 0.37072(16)
N6_11 N 0.42792(9) 0.48927(10) 0.16640(18)
C14_11 C 0.42855(9) 0.39981(10) 0.2311(2)
C15_11 C 0.42654(11) 0.37117(12) 0.1861(3)
H17_11 H 0.4416 0.3683 0.1452
C16_11 C 0.40382(12) 0.34773(12) 0.1995(3)
H18_11 H 0.4029 0.3289 0.1675
C17_13 C 0.38137(11) 0.35071(11) 0.2604(3)
H19_13 H 0.3655 0.3341 0.2701
C18_13 C 0.38318(9) 0.37857(9) 0.3055(2)
H20_13 H 0.3683 0.3809 0.3469
C19_13 C 0.40624(8) 0.40325(9) 0.2918(2)
C20_13 C 0.40483(8) 0.43309(8) 0.34086(19)
C21_15 C 0.43933(8) 0.50946(9) 0.3547(2)
C22_15 C 0.43619(10) 0.54248(9) 0.3920(3)
H21_15 H 0.4532 0.5445 0.4320
H22_15 H 0.4144 0.5439 0.4171
C23_15 C 0.43974(18) 0.57106(14) 0.3369(4)
H23_15 H 0.4610 0.5695 0.3107
H24_15 H 0.4386 0.5918 0.3651
H25_15 H 0.4219 0.5703 0.2994
C24_11 C 0.39862(13) 0.47923(18) 0.1483(3)
H26_11 H 0.3914 0.4592 0.1706
C25_11 C 0.37676(13) 0.4949(2) 0.0998(3)
H27_11 H 0.3560 0.4853 0.0882
C26_13 C 0.38533(14) 0.5230(2) 0.0705(3)
C27_13 C 0.41659(16) 0.53816(18) 0.0941(4)
H28_13 H 0.4225 0.5597 0.0786
C28_13 C 0.43697(13) 0.51921(15) 0.1404(3)
H29_13 H 0.4579 0.5276 0.1542
C29_13 C 0.36193(16) 0.5430(3) 0.0179(5)
H31_13 H 0.3468 0.5558 0.0506
Mn3_7 Mn 0.614170(12) 0.528820(12) 0.53154(3)
O8_13 O 0.65237(6) 0.50882(6) 0.56741(14)
O9_13 O 0.61609(5) 0.44647(6) 0.39120(14)
O10_15 O 0.57391(6) 0.54385(6) 0.48403(14)
N7_13 N 0.60714(6) 0.49310(7) 0.45965(16)
N8_13 N 0.57707(7) 0.49514(7) 0.41851(17)
C30_13 C 0.66922(8) 0.48373(9) 0.5373(2)
C31_13 C 0.70042(9) 0.47772(10) 0.5679(2)
H32_13 H 0.7083 0.4912 0.6081
C32_13 C 0.72001(9) 0.45244(10) 0.5408(2)
H33_13 H 0.7411 0.4488 0.5626
C33_13 C 0.70928(9) 0.43272(10) 0.4829(2)
H34_13 H 0.7229 0.4155 0.4644
C34_13 C 0.67862(8) 0.43788(9) 0.4514(2)
H35_13 H 0.6713 0.4240 0.4113
C35_13 C 0.65800(8) 0.46343(8) 0.47762(19)
C36_13 C 0.62567(8) 0.46751(8) 0.44128(19)
C37_15 C 0.56201(9) 0.52260(9) 0.4358(2)
C38_15 C 0.53036(13) 0.53063(15) 0.3995(4)
H36_15 H 0.5206 0.5108 0.3757
H37_15 H 0.5147 0.5394 0.4375
C39_15 C 0.5390(2) 0.5594(2) 0.3327(6)
H38_15 H 0.5497 0.5489 0.2890
H39_15 H 0.5186 0.5700 0.3162
H40_15 H 0.5538 0.5760 0.3544
O11_7 O 0.61580(6) 0.56642(6) 0.60415(13)
N10_7 N 0.58172(7) 0.51351(7) 0.62928(16)
Mn4_3 Mn 0.385830(12) 0.471180(12) 0.46846(3)
N11_8 N 0.64248(7) 0.55951(7) 0.44459(17)
O2_12 O 0.22553(7) 0.25231(6) 0.93624(14)
C1_12 C 0.24516(10) 0.16388(10) 0.9510(2)
C2_14 C 0.26421(14) 0.14145(13) 0.9091(3)
H1_14 H 0.2667 0.1197 0.9277
C3_14 C 0.27913(16) 0.14999(15) 0.8427(4)
H2_14 H 0.2920 0.1342 0.8164
C4_14 C 0.27581(17) 0.18167(17) 0.8126(4)
H3_14 H 0.2854 0.1872 0.7650
C5_14 C 0.25786(15) 0.20526(14) 0.8544(3)
H4_14 H 0.2560 0.2271 0.8356
C6_12 C 0.24294(11) 0.19681(11) 0.9227(2)
C7_12 C 0.22574(9) 0.22277(9) 0.9646(2)
C12_12 C 0.09696(14) 0.13553(15) 0.9710(4)
H11_12 H 0.1144 0.1380 0.9329
H12_12 H 0.0754 0.1373 0.9462
H13_12 H 0.0989 0.1140 0.9955
O5_12 O 0.17188(7) 0.29854(6) 0.96230(15)
N6_12 N 0.23927(10) 0.32208(9) 0.91640(18)
C14_12 C 0.14981(10) 0.32145(9) 0.9811(2)
C15_12 C 0.12117(12) 0.32346(11) 0.9361(3)
H17_12 H 0.1183 0.3084 0.8952
C16_12 C 0.09773(12) 0.34618(12) 0.9495(3)
H18_12 H 0.0789 0.3471 0.9175
C24_12 C 0.22923(18) 0.35138(13) 0.8983(3)
H26_12 H 0.2092 0.3586 0.9206
C25_12 C 0.2449(2) 0.37324(13) 0.8498(3)
H27_12 H 0.2353 0.3940 0.8382
C26_14 C 0.2730(2) 0.36467(14) 0.8205(3)
C27_14 C 0.28816(18) 0.33341(16) 0.8441(4)
H28_14 H 0.3097 0.3275 0.8286
C28_14 C 0.26921(15) 0.31303(13) 0.8904(3)
H29_14 H 0.2776 0.2921 0.9042
C29_14 C 0.2930(3) 0.38807(16) 0.7679(5)
H30_15 H 0.2773 0.4016 0.7385
H31_14 H 0.3058 0.4032 0.8006
N9_8 N 0.35752(7) 0.44049(7) 0.55541(17)
C40_15 C 0.36447(11) 0.44179(11) 0.6294(2)
H41_15 H 0.3799 0.4577 0.6464
C41_15 C 0.35056(13) 0.42134(13) 0.6826(3)
H42_15 H 0.3561 0.4237 0.7349
C42_15 C 0.32891(12) 0.39774(14) 0.6605(3)
C43_15 C 0.32034(12) 0.39662(13) 0.5840(3)
H43_15 H 0.3044 0.3814 0.5663
C44_15 C 0.33546(11) 0.41813(10) 0.5341(2)
H44_13 H 0.3298 0.4169 0.4817
C45_15 C 0.31432(15) 0.37341(17) 0.7173(3)
H45_15 H 0.3025 0.3560 0.6891
H46_15 H 0.3324 0.3628 0.7461
Mn1_14 Mn 0.424651(12) 0.545732(13) 0.66716(3)
O1_14 O 0.40287(6) 0.52014(7) 0.73904(16)
O2_13 O 0.50231(6) 0.52447(7) 0.81376(14)
O3_14 O 0.45394(5) 0.57060(6) 0.60164(13)
O4_14 O 0.41246(6) 0.59379(7) 0.72491(16)
N1_14 N 0.46618(6) 0.53902(7) 0.72068(16)
N2_14 N 0.49356(6) 0.55400(7) 0.68584(16)
N3_14 N 0.41020(11) 0.65001(11) 0.7243(3)
C1_13 C 0.41388(10) 0.50484(10) 0.7990(2)
C2_15 C 0.39145(13) 0.48579(14) 0.8409(3)
H1_15 H 0.3697 0.4833 0.8223
C3_15 C 0.39999(15) 0.47087(16) 0.9073(4)
H2_15 H 0.3842 0.4580 0.9336
C4_15 C 0.43167(17) 0.47419(17) 0.9374(4)
H3_15 H 0.4372 0.4646 0.9850
C5_15 C 0.45526(14) 0.49214(15) 0.8956(3)
H4_15 H 0.4771 0.4940 0.9144
C6_13 C 0.44681(11) 0.50706(11) 0.8273(2)
C7_13 C 0.47277(9) 0.52426(9) 0.7854(2)
C8_14 C 0.48472(8) 0.56975(8) 0.62427(18)
C9_14 C 0.51018(9) 0.58773(9) 0.5792(2)
H5_14 H 0.5234 0.6013 0.6146
H6_14 H 0.5251 0.5713 0.5560
C10_14 C 0.49730(11) 0.60989(12) 0.5166(3)
H7_14 H 0.4822 0.6261 0.5384
H8_13 H 0.5158 0.6213 0.4922
H9_14 H 0.4857 0.5966 0.4786
C11_14 C 0.42117(13) 0.62098(13) 0.6997(3)
H10_14 H 0.4369 0.6211 0.6598
C12_13 C 0.38553(15) 0.65304(14) 0.7790(4)
H11_13 H 0.3880 0.6356 0.8171
H12_13 H 0.3873 0.6746 0.8038
H13_13 H 0.3640 0.6511 0.7545
C13_14 C 0.4214(2) 0.68016(15) 0.6880(5)
H14_14 H 0.4044 0.6882 0.6531
H15_14 H 0.4257 0.6969 0.7270
H16_14 H 0.4417 0.6758 0.6595
Mn2_14 Mn 0.539522(12) 0.536836(13) 0.74640(3)
O5_13 O 0.54854(6) 0.57812(7) 0.78770(15)
O7_16 O 0.53703(6) 0.49477(6) 0.69475(13)
N4_14 N 0.57558(6) 0.54196(7) 0.67403(15)
N6_13 N 0.57208(9) 0.51073(10) 0.83360(18)
C14_13 C 0.57145(9) 0.60019(10) 0.7689(2)
C15_13 C 0.57346(11) 0.62883(12) 0.8139(3)
H17_13 H 0.5584 0.6317 0.8548
C16_13 C 0.59618(12) 0.65227(12) 0.8005(3)
H18_13 H 0.5971 0.6711 0.8325
C17_14 C 0.61863(11) 0.64929(11) 0.7396(3)
H19_14 H 0.6345 0.6659 0.7299
C18_14 C 0.61682(9) 0.62143(9) 0.6945(2)
H20_14 H 0.6317 0.6191 0.6531
C19_14 C 0.59376(8) 0.59675(9) 0.7082(2)
C20_14 C 0.59517(8) 0.56691(8) 0.65914(19)
C21_16 C 0.56067(8) 0.49054(9) 0.6453(2)
C22_16 C 0.56381(10) 0.45752(9) 0.6080(3)
H21_16 H 0.5468 0.4555 0.5680
H22_16 H 0.5856 0.4561 0.5829
C23_16 C 0.56026(18) 0.42894(14) 0.6631(4)
H23_16 H 0.5390 0.4305 0.6893
H24_16 H 0.5614 0.4082 0.6349
H25_16 H 0.5781 0.4297 0.7006
C24_13 C 0.60138(13) 0.52077(18) 0.8517(3)
H26_13 H 0.6086 0.5408 0.8294
C25_13 C 0.62324(13) 0.5051(2) 0.9002(3)
H27_13 H 0.6440 0.5147 0.9118
C26_15 C 0.61467(14) 0.4770(2) 0.9295(3)
C27_15 C 0.58341(16) 0.46184(18) 0.9059(4)
H28_15 H 0.5775 0.4403 0.9214
C28_15 C 0.56303(13) 0.48079(15) 0.8596(3)
H29_15 H 0.5421 0.4724 0.8458
C29_15 C 0.63807(16) 0.4570(3) 0.9821(5)
H31_15 H 0.6532 0.4442 0.9494
O8_14 O 0.34763(6) 0.49118(6) 0.43259(14)
O9_14 O 0.38391(5) 0.55353(6) 0.60880(14)
O10_16 O 0.42609(6) 0.45615(6) 0.51597(14)
N7_14 N 0.39286(6) 0.50690(7) 0.54035(16)
N8_14 N 0.42293(7) 0.50486(7) 0.58149(17)
C30_14 C 0.33078(8) 0.51627(9) 0.4627(2)
C31_14 C 0.29958(9) 0.52228(10) 0.4321(2)
H32_14 H 0.2917 0.5088 0.3919
C32_14 C 0.27999(9) 0.54756(10) 0.4592(2)
H33_14 H 0.2589 0.5512 0.4374
C33_14 C 0.29072(9) 0.56728(10) 0.5171(2)
H34_14 H 0.2771 0.5845 0.5356
C34_14 C 0.32138(8) 0.56212(9) 0.5486(2)
H35_14 H 0.3287 0.5760 0.5887
C35_14 C 0.34200(8) 0.53657(8) 0.52238(19)
C36_14 C 0.37433(8) 0.53249(8) 0.55872(19)
C37_16 C 0.43799(9) 0.47740(9) 0.5642(2)
C38_16 C 0.46964(13) 0.46937(15) 0.6005(4)
H36_16 H 0.4794 0.4892 0.6243
H37_16 H 0.4853 0.4606 0.5625
C39_16 C 0.4610(2) 0.4406(2) 0.6673(6)
H38_16 H 0.4503 0.4511 0.7110
H39_16 H 0.4814 0.4300 0.6838
H40_16 H 0.4462 0.4240 0.6456
O2_14 O 0.77447(7) 0.74769(6) 0.06376(14)
C1_14 C 0.75484(10) 0.83612(10) 0.0490(2)
C2_16 C 0.73579(14) 0.85855(13) 0.0909(3)
H1_16 H 0.7333 0.8803 0.0723
C3_16 C 0.72087(16) 0.85001(15) 0.1573(4)
H2_16 H 0.7080 0.8658 0.1836
C4_16 C 0.72419(17) 0.81833(17) 0.1874(4)
H3_16 H 0.7146 0.8128 0.2350
C5_16 C 0.74214(15) 0.79474(14) 0.1456(3)
H4_16 H 0.7440 0.7729 0.1644
C6_14 C 0.75706(11) 0.80319(11) 0.0773(2)
C7_14 C 0.77426(9) 0.77723(9) 0.0354(2)
C12_14 C 0.90304(14) 0.86447(15) 0.0290(4)
H11_14 H 0.8856 0.8620 0.0671
H12_14 H 0.9246 0.8627 0.0538
H13_14 H 0.9011 0.8860 0.0045
O5_14 O 0.82812(7) 0.70146(6) 0.03770(15)
N6_14 N 0.76073(10) 0.67792(9) 0.08360(18)
C14_14 C 0.85019(10) 0.67855(9) 0.0189(2)
C15_14 C 0.87883(12) 0.67654(11) 0.0639(3)
H17_14 H 0.8817 0.6916 0.1048
C16_14 C 0.90227(12) 0.65382(12) 0.0505(3)
H18_14 H 0.9211 0.6529 0.0825
C24_14 C 0.77077(18) 0.64862(13) 0.1017(3)
H26_14 H 0.7908 0.6414 0.0794
C25_14 C 0.7551(2) 0.62676(13) 0.1502(3)
H27_14 H 0.7647 0.6060 0.1618
C26_16 C 0.7270(2) 0.63533(14) 0.1795(3)
C27_16 C 0.71184(18) 0.66659(16) 0.1559(4)
H28_16 H 0.6903 0.6725 0.1714
C28_16 C 0.73079(15) 0.68697(13) 0.1096(3)
H29_16 H 0.7224 0.7079 0.0958
C29_16 C 0.7070(3) 0.61193(16) 0.2321(5)
H30_16 H 0.7227 0.5984 0.2615
H31_16 H 0.6942 0.5968 0.1994
C40_16 C 0.63553(11) 0.55821(11) 0.3706(2)
H41_16 H 0.6201 0.5423 0.3536
C41_16 C 0.64944(13) 0.57866(13) 0.3174(3)
H42_16 H 0.6439 0.5763 0.2651
C42_16 C 0.67109(12) 0.60226(14) 0.3395(3)
C43_16 C 0.67966(12) 0.60338(13) 0.4160(3)
H43_16 H 0.6956 0.6186 0.4337
C44_16 C 0.66454(11) 0.58187(10) 0.4659(2)
H44_14 H 0.6702 0.5831 0.5183
C45_16 C 0.68568(15) 0.62659(17) 0.2827(3)
H45_16 H 0.6975 0.6440 0.3109
H46_16 H 0.6676 0.6372 0.2539
H44_15 H 0.8298 0.9169 0.9817
Mn5_5 Mn 0.885830(12) 0.971180(12) 0.96846(3)
O2_15 O 0.99769(6) 0.97553(7) 0.68624(14)
C9_15 C 0.98982(9) 0.91227(9) 0.9208(2)
H5_15 H 0.9766 0.8987 0.8854
H6_15 H 0.9749 0.9287 0.9440
Mn2_15 Mn 0.960478(12) 0.963164(13) 0.75360(3)
O5_15 O 0.95146(6) 0.92188(7) 0.71230(15)
O6_8 O 0.88420(6) 0.93358(6) 0.89585(13)
N4_15 N 0.92442(6) 0.95804(7) 0.82597(15)
N5_8 N 0.91828(7) 0.98649(7) 0.87072(16)
N6_15 N 0.92792(9) 0.98927(10) 0.66640(18)
C14_15 C 0.92855(9) 0.89981(10) 0.7311(2)
C15_15 C 0.92654(11) 0.87117(12) 0.6861(3)
H17_15 H 0.9416 0.8683 0.6452
C16_15 C 0.90382(12) 0.84773(12) 0.6995(3)
H18_15 H 0.9029 0.8289 0.6675
C17_15 C 0.88137(11) 0.85071(11) 0.7604(3)
H19_15 H 0.8655 0.8341 0.7701
C18_15 C 0.88318(9) 0.87857(9) 0.8055(2)
H20_15 H 0.8683 0.8809 0.8469
C19_15 C 0.90624(8) 0.90325(9) 0.7918(2)
C20_15 C 0.90483(8) 0.93309(8) 0.84086(19)
C24_15 C 0.89862(13) 0.97923(18) 0.6483(3)
H26_15 H 0.8914 0.9592 0.6706
C25_15 C 0.87676(13) 0.9949(2) 0.5998(3)
H27_15 H 0.8560 0.9853 0.5882
O8_15 O 0.84763(6) 0.99118(6) 0.93259(14)
Mn3_8 Mn 0.114170(12) 0.028820(12) 0.03154(3)
O8_16 O 0.15237(6) 0.00882(6) 0.06741(14)
O11_8 O 0.11580(6) 0.06642(6) 0.10415(13)
N10_8 N 0.08172(7) 0.01351(7) 0.12928(16)
H44_16 H 0.1702 0.0831 0.0183
O2_16 O 0.00231(6) 0.02447(7) 0.31376(14)
C9_16 C 0.01018(9) 0.08773(9) 0.0792(2)
H5_16 H 0.0234 0.1013 0.1146
H6_16 H 0.0251 0.0713 0.0560
Mn2_16 Mn 0.039522(12) 0.036836(13) 0.24640(3)
O5_16 O 0.04854(6) 0.07812(7) 0.28770(15)
N4_16 N 0.07558(6) 0.04196(7) 0.17403(15)
N6_16 N 0.07208(9) 0.01073(10) 0.33360(18)
C14_16 C 0.07145(9) 0.10019(10) 0.2689(2)
C15_16 C 0.07346(11) 0.12883(12) 0.3139(3)
H17_16 H 0.0584 0.1317 0.3548
C16_16 C 0.09618(12) 0.15227(12) 0.3005(3)
H18_16 H 0.0971 0.1711 0.3325
C17_16 C 0.11863(11) 0.14929(11) 0.2396(3)
H19_16 H 0.1345 0.1659 0.2299
C18_16 C 0.11682(9) 0.12143(9) 0.1945(2)
H20_16 H 0.1317 0.1191 0.1531
C19_16 C 0.09376(8) 0.09675(9) 0.2082(2)
C20_16 C 0.09517(8) 0.06691(8) 0.15914(19)
C24_16 C 0.10138(13) 0.02077(18) 0.3517(3)
H26_16 H 0.1086 0.0408 0.3294
C25_16 C 0.12324(13) 0.0051(2) 0.4002(3)
H27_16 H 0.1440 0.0147 0.4118
H9_15 H 0.0143 0.9034 0.0214
C30_15 C 0.16922(8) 0.98373(9) 0.0373(2)
C31_15 C 0.20042(9) 0.97772(10) 0.0679(2)
H32_15 H 0.2083 0.9912 0.1081
C32_15 C 0.22001(9) 0.95244(10) 0.0408(2)
H33_15 H 0.2411 0.9488 0.0626
Mn1_15 Mn 0.075349(12) 0.954268(13) 0.83284(3)
O1_15 O 0.09713(6) 0.97986(7) 0.76096(16)
O3_15 O 0.04606(5) 0.92940(6) 0.89836(13)
O4_15 O 0.08754(6) 0.90621(7) 0.77509(16)
N1_15 N 0.03382(6) 0.96098(7) 0.77932(16)
N2_15 N 0.00644(6) 0.94600(7) 0.81416(16)
N3_15 N 0.08980(11) 0.84999(11) 0.7757(3)
C1_15 C 0.08612(10) 0.99516(10) 0.7010(2)
C6_15 C 0.05319(11) 0.99294(11) 0.6727(2)
C7_15 C 0.02723(9) 0.97574(9) 0.7146(2)
C8_15 C 0.01528(8) 0.93025(8) 0.87573(18)
C10_15 C 0.00270(11) 0.89011(12) 0.9834(3)
H7_15 H 0.0178 0.8739 0.9616
C11_15 C 0.07883(13) 0.87902(13) 0.8003(3)
H10_15 H 0.0631 0.8789 0.8402
C12_15 C 0.11447(15) 0.84696(14) 0.7210(4)
H11_15 H 0.1120 0.8644 0.6829
H12_15 H 0.1127 0.8254 0.6962
H13_15 H 0.1360 0.8489 0.7455
C13_15 C 0.0786(2) 0.81984(15) 0.8120(5)
H14_15 H 0.0956 0.8118 0.8469
H15_15 H 0.0743 0.8031 0.7730
H16_15 H 0.0583 0.8242 0.8405
O9_15 O 0.11609(5) 0.94647(6) 0.89120(14)
N7_15 N 0.10714(6) 0.99310(7) 0.95965(16)
N8_15 N 0.07707(7) 0.99514(7) 0.91851(17)
C33_15 C 0.20928(9) 0.93272(10) 0.9829(2)
H34_15 H 0.2229 0.9155 0.9644
C34_15 C 0.17862(8) 0.93788(9) 0.9514(2)
H35_15 H 0.1713 0.9240 0.9113
C35_15 C 0.15800(8) 0.96343(8) 0.97762(19)
C36_15 C 0.12567(8) 0.96751(8) 0.94128(19)
H8_14 H 0.9842 0.8787 0.0078
H8_15 H 0.9842 0.3787 0.9922
H8_16 H 0.0158 0.1213 0.9922
Mn1_16 Mn 0.924651(12) 0.045732(13) 0.16716(3)
O1_16 O 0.90287(6) 0.02014(7) 0.23904(16)
O3_16 O 0.95394(5) 0.07060(6) 0.10164(13)
O4_16 O 0.91246(6) 0.09379(7) 0.22491(16)
N1_16 N 0.96618(6) 0.03902(7) 0.22068(16)
N2_16 N 0.99356(6) 0.05400(7) 0.18584(16)
N3_16 N 0.91020(11) 0.15001(11) 0.2243(3)
C1_16 C 0.91388(10) 0.00484(10) 0.2990(2)
C6_16 C 0.94681(11) 0.00706(11) 0.3273(2)
C7_16 C 0.97277(9) 0.02426(9) 0.2854(2)
C8_16 C 0.98472(8) 0.06975(8) 0.12427(18)
C10_16 C 0.99730(11) 0.10989(12) 0.0166(3)
H7_16 H 0.9822 0.1261 0.0384
C11_16 C 0.92117(13) 0.12098(13) 0.1997(3)
H10_16 H 0.9369 0.1211 0.1598
C12_16 C 0.88553(15) 0.15304(14) 0.2790(4)
H11_16 H 0.8880 0.1356 0.3171
H12_16 H 0.8873 0.1746 0.3038
H13_16 H 0.8640 0.1511 0.2545
C13_16 C 0.9214(2) 0.18016(15) 0.1880(5)
H14_16 H 0.9044 0.1882 0.1531
H15_16 H 0.9257 0.1969 0.2270
H16_16 H 0.9417 0.1758 0.1595
O9_16 O 0.88391(5) 0.05353(6) 0.10880(14)
N7_16 N 0.89286(6) 0.00690(7) 0.04035(16)
N8_16 N 0.92293(7) 0.00486(7) 0.08149(17)
C33_16 C 0.79072(9) 0.06728(10) 0.0171(2)
H34_16 H 0.7771 0.0845 0.0356
C34_16 C 0.82138(8) 0.06212(9) 0.0486(2)
H35_16 H 0.8287 0.0760 0.0887
C35_16 C 0.84200(8) 0.03657(8) 0.02238(19)
C36_16 C 0.87433(8) 0.03249(8) 0.05872(19)
H9_16 H 0.9857 0.0966 0.9786
C30_16 C 0.83078(8) 0.01627(9) 0.9627(2)
C31_16 C 0.79958(9) 0.02228(10) 0.9321(2)
H32_16 H 0.7917 0.0088 0.8919
C32_16 C 0.77999(9) 0.04756(10) 0.9592(2)
H33_16 H 0.7589 0.0512 0.9374
loop_
_geom_bond_atom_site_label_1
_geom_bond_atom_site_label_2
_geom_bond_site_symmetry_1
_geom_bond_site_symmetry_2
Mn1 O1 1_555 1_555
O3 Mn1 1_555 1_555
O4 Mn1 1_555 1_555
N1 Mn1 1_555 1_555
N2 N1 1_555 1_555
N3 C11 1_555 1_555
C8 O3 1_555 1_555
C9 C8 1_555 1_555
H5 C9 1_555 1_555
H6 C9 1_555 1_555
C10 C9 1_555 1_555
H7 C10 1_555 1_555
H8 C10 1_555 1_555
H9 C10 1_555 1_555
C11 O4 1_555 1_555
H10 C11 1_555 1_555
C13 N3 1_555 1_555
H14 C13 1_555 1_555
H15 C13 1_555 1_555
H16 C13 1_555 1_555
O6 C20 1_555 1_555
O7 Mn2 1_555 1_555
N4 Mn2 1_555 1_555
N5 N4 1_555 1_555
H19 C17 1_555 1_555
C18 C17 1_555 1_555
H20 C18 1_555 1_555
C20 N4 1_555 1_555
C21 O7 1_555 1_555
C22 C21 1_555 1_555
H21 C22 1_555 1_555
H22 C22 1_555 1_555
C23 C22 1_555 1_555
H23 C23 1_555 1_555
H24 C23 1_555 1_555
H25 C23 1_555 1_555
Mn3 O8 1_555 1_555
O8 C30 1_555 1_555
O9 Mn1 1_555 1_555
O10 Mn3 1_555 1_555
N7 Mn3 1_555 1_555
N8 Mn1 1_555 1_555
C30 C31 1_555 1_555
C31 H32 1_555 1_555
C32 C31 1_555 1_555
H33 C32 1_555 1_555
C33 C32 1_555 1_555
H34 C33 1_555 1_555
C34 C33 1_555 1_555
H35 C34 1_555 1_555
C35 C30 1_555 1_555
C36 O9 1_555 1_555
C37 O10 1_555 1_555
C38 C37 1_555 1_555
H36 C38 1_555 1_555
H37 C38 1_555 1_555
C39 C38 1_555 1_555
H38 C39 1_555 1_555
H39 C39 1_555 1_555
H40 C39 1_555 1_555
O11 Mn3 1_555 1_555
N10 Mn3 1_555 1_555
Mn4 O6 1_555 1_555
N11 Mn3 1_555 1_555
N2 C8 1_555 1_555
N2 Mn2 1_555 1_555
N5 C21 1_555 1_555
N5 Mn4 1_555 1_555
C18 C19 1_555 1_555
C19 C20 1_555 1_555
N7 N8 1_555 1_555
N7 C36 1_555 1_555
N8 C37 1_555 1_555
C34 C35 1_555 1_555
C35 C36 1_555 1_555
Mn1_2 O1_2 1_555 1_555
O1_2 C1 1_555 1_555
O3_2 Mn1_2 1_555 1_555
O4_2 Mn1_2 1_555 1_555
N1_2 Mn1_2 1_555 1_555
N2_2 N1_2 1_555 1_555
N3_2 C11_2 1_555 1_555
C1 C2 1_555 1_555
C2 H1 1_555 1_555
C3 C2 1_555 1_555
H2 C3 1_555 1_555
C4 C3 1_555 1_555
H3 C4 1_555 1_555
C5 C4 1_555 1_555
H4 C5 1_555 1_555
C6 C1 1_555 1_555
C7 N1_2 1_555 1_555
C8_2 O3_2 1_555 1_555
H7_2 C10_2 1_555 1_555
C11_2 O4_2 1_555 1_555
H10_2 C11_2 1_555 1_555
C12 N3_2 1_555 1_555
H11 C12 1_555 1_555
H12 C12 1_555 1_555
H13 C12 1_555 1_555
C13_2 N3_2 1_555 1_555
H14_2 C13_2 1_555 1_555
H15_2 C13_2 1_555 1_555
H16_2 C13_2 1_555 1_555
O9_2 Mn1_2 1_555 1_555
N8_2 Mn1_2 1_555 1_555
H34_2 C33_2 1_555 1_555
C34_2 C33_2 1_555 1_555
H35_2 C34_2 1_555 1_555
C36_2 O9_2 1_555 1_555
C37_2 O10_2 1_555 1_555
C38_2 C37_2 1_555 1_555
H36_2 C38_2 1_555 1_555
H37_2 C38_2 1_555 1_555
C39_2 C38_2 1_555 1_555
H38_2 C39_2 1_555 1_555
H39_2 C39_2 1_555 1_555
H40_2 C39_2 1_555 1_555
N2_2 C8_2 1_555 1_555
C5 C6 1_555 1_555
C6 C7 1_555 1_555
N7_2 N8_2 1_555 1_555
N7_2 C36_2 1_555 1_555
N8_2 C37_2 1_555 1_555
C34_2 C35_2 1_555 1_555
C35_2 C36_2 1_555 1_555
C21_2 O7_2 1_555 1_555
C22_2 C21_2 1_555 1_555
H21_2 C22_2 1_555 1_555
H22_2 C22_2 1_555 1_555
C23_2 C22_2 1_555 1_555
H23_2 C23_2 1_555 1_555
H24_2 C23_2 1_555 1_555
H25_2 C23_2 1_555 1_555
C27 C26 1_555 1_555
H28 C27 1_555 1_555
H29 C28 1_555 1_555
C29 C26 1_555 1_555
H30 C29 1_555 1_555
H31 C29 1_555 1_555
N9 C40 1_555 1_555
C40 H41 1_555 1_555
C41 C40 1_555 1_555
H42 C41 1_555 1_555
C42 C41 1_555 1_555
C43 C42 1_555 1_555
H43 C43 1_555 1_555
C44 N9 1_555 1_555
H44 C44 1_555 1_555
C45 C29 1_555 1_555
H45 C45 1_555 1_555
H46 C45 1_555 1_555
Mn4 N9 1_555 1_555
C27 C28 1_555 1_555
C42 C45 1_555 1_555
C43 C44 1_555 1_555
Mn1_3 O1_3 1_555 1_555
O1_3 C1_2 1_555 1_555
O2 C7_2 1_555 1_555
O3_3 Mn1_3 1_555 1_555
O4_3 Mn1_3 1_555 1_555
N1_3 Mn1_3 1_555 1_555
N2_3 N1_3 1_555 1_555
N3_3 C11_3 1_555 1_555
C1_2 C2_2 1_555 1_555
C2_2 H1_2 1_555 1_555
C3_2 C2_2 1_555 1_555
H2_2 C3_2 1_555 1_555
C4_2 C3_2 1_555 1_555
H3_2 C4_2 1_555 1_555
C5_2 C4_2 1_555 1_555
H4_2 C5_2 1_555 1_555
C6_2 C1_2 1_555 1_555
C7_2 N1_3 1_555 1_555
C8_3 O3_3 1_555 1_555
C9_2 C8_3 1_555 1_555
H5_2 C9_2 1_555 1_555
H6_2 C9_2 1_555 1_555
C10_3 C9_2 1_555 1_555
H7_3 C10_3 1_555 1_555
H8_2 C10_3 1_555 1_555
H9_2 C10_3 1_555 1_555
C11_3 O4_3 1_555 1_555
H10_3 C11_3 1_555 1_555
C12_2 N3_3 1_555 1_555
H11_2 C12_2 1_555 1_555
H12_2 C12_2 1_555 1_555
H13_2 C12_2 1_555 1_555
C13_3 N3_3 1_555 1_555
H14_3 C13_3 1_555 1_555
H15_3 C13_3 1_555 1_555
H16_3 C13_3 1_555 1_555
Mn2_2 O2 1_555 1_555
O5 Mn2_2 1_555 1_555
O11 C20_2 1_555 1_555
O7_3 Mn2_2 1_555 1_555
N4_2 Mn2_2 1_555 1_555
N10 N4_2 1_555 1_555
N6 Mn2_2 1_555 1_555
C14 O5 1_555 1_555
C15 C14 1_555 1_555
H17 C15 1_555 1_555
C16 C15 1_555 1_555
H18 C16 1_555 1_555
C17_2 C16 1_555 1_555
H19_2 C17_2 1_555 1_555
C18_2 C17_2 1_555 1_555
H20_2 C18_2 1_555 1_555
C19_2 C14 1_555 1_555
C20_2 N4_2 1_555 1_555
C21_3 O7_3 1_555 1_555
C22_3 C21_3 1_555 1_555
H21_3 C22_3 1_555 1_555
H22_3 C22_3 1_555 1_555
C23_3 C22_3 1_555 1_555
H23_3 C23_3 1_555 1_555
H24_3 C23_3 1_555 1_555
H25_3 C23_3 1_555 1_555
C24 N6 1_555 1_555
H26 C24 1_555 1_555
C25 C24 1_555 1_555
H27 C25 1_555 1_555
C26_2 C25 1_555 1_555
C27_2 C26_2 1_555 1_555
H28_2 C27_2 1_555 1_555
C28_2 N6 1_555 1_555
H29_2 C28_2 1_555 1_555
C29_2 C26_2 1_555 1_555
H30_2 C29_2 1_555 1_555
H31_2 C29_2 1_555 1_555
Mn4 O8_2 1_555 1_555
O8_2 C30_2 1_555 1_555
O9_3 Mn1_3 1_555 1_555
O10_3 Mn4 1_555 1_555
N7_3 Mn4 1_555 1_555
N8_3 Mn1_3 1_555 1_555
N11_2 C40_2 1_555 1_555
C30_2 C31_2 1_555 1_555
C31_2 H32_2 1_555 1_555
C32_2 C31_2 1_555 1_555
H33_2 C32_2 1_555 1_555
C33_3 C32_2 1_555 1_555
H34_3 C33_3 1_555 1_555
C34_3 C33_3 1_555 1_555
H35_3 C34_3 1_555 1_555
C35_3 C30_2 1_555 1_555
C36_3 O9_3 1_555 1_555
C37_3 O10_3 1_555 1_555
C38_3 C37_3 1_555 1_555
H36_3 C38_3 1_555 1_555
H37_3 C38_3 1_555 1_555
C39_3 C38_3 1_555 1_555
H38_3 C39_3 1_555 1_555
H39_3 C39_3 1_555 1_555
H40_3 C39_3 1_555 1_555
C40_2 H41_2 1_555 1_555
C41_2 C40_2 1_555 1_555
H42_2 C41_2 1_555 1_555
C42_2 C41_2 1_555 1_555
C43_2 C42_2 1_555 1_555
H43_2 C43_2 1_555 1_555
C44_2 N11_2 1_555 1_555
C45_2 C29_2 1_555 1_555
H45_2 C45_2 1_555 1_555
H46_2 C45_2 1_555 1_555
N2_3 C8_3 1_555 1_555
N2_3 Mn2_2 1_555 1_555
C5_2 C6_2 1_555 1_555
C6_2 C7_2 1_555 1_555
N10 C21_3 1_555 1_555
C18_2 C19_2 1_555 1_555
C19_2 C20_2 1_555 1_555
C27_2 C28_2 1_555 1_555
N7_3 N8_3 1_555 1_555
N7_3 C36_3 1_555 1_555
N8_3 C37_3 1_555 1_555
C34_3 C35_3 1_555 1_555
C35_3 C36_3 1_555 1_555
C42_2 C45_2 1_555 1_555
C43_2 C44_2 1_555 1_555
N11 C40_3 1_555 1_555
C40_3 H41_3 1_555 1_555
C41_3 C40_3 1_555 1_555
H42_3 C41_3 1_555 1_555
C42_3 C41_3 1_555 1_555
C43_3 C42_3 1_555 1_555
H43_3 C43_3 1_555 1_555
C44_3 N11 1_555 1_555
H44_2 C44_3 1_555 1_555
H45_3 C45_3 1_555 1_555
H46_3 C45_3 1_555 1_555
C42_3 C45_3 1_555 1_555
C43_3 C44_3 1_555 1_555
O2_2 C7_3 1_555 1_555
C1_3 C2_3 1_555 1_555
C2_3 H1_3 1_555 1_555
C3_3 C2_3 1_555 1_555
H2_3 C3_3 1_555 1_555
C4_3 C3_3 1_555 1_555
H3_3 C4_3 1_555 1_555
C5_3 C4_3 1_555 1_555
H4_3 C5_3 1_555 1_555
C6_3 C1_3 1_555 1_555
H11_3 C12_3 1_555 1_555
H12_3 C12_3 1_555 1_555
H13_3 C12_3 1_555 1_555
C14_2 O5_2 1_555 1_555
C15_2 C14_2 1_555 1_555
H17_2 C15_2 1_555 1_555
C16_2 C15_2 1_555 1_555
H18_2 C16_2 1_555 1_555
C24_2 N6_2 1_555 1_555
H26_2 C24_2 1_555 1_555
C25_2 C24_2 1_555 1_555
H27_2 C25_2 1_555 1_555
C26_3 C25_2 1_555 1_555
C27_3 C26_3 1_555 1_555
H28_3 C27_3 1_555 1_555
C28_3 N6_2 1_555 1_555
H29_3 C28_3 1_555 1_555
C29_3 C26_3 1_555 1_555
H30_4 C29_3 1_555 1_555
H31_3 C29_3 1_555 1_555
N9_2 C40_4 1_555 1_555
C40_4 H41_4 1_555 1_555
C41_4 C40_4 1_555 1_555
H42_4 C41_4 1_555 1_555
C42_4 C41_4 1_555 1_555
C43_4 C42_4 1_555 1_555
H43_4 C43_4 1_555 1_555
C44_4 N9_2 1_555 1_555
H44_3 C44_4 1_555 1_555
C45_4 C29_3 1_555 1_555
H45_4 C45_4 1_555 1_555
H46_4 C45_4 1_555 1_555
Mn5 N9_2 1_555 1_555
C5_3 C6_3 1_555 1_555
C6_3 C7_3 1_555 1_555
C27_3 C28_3 1_555 1_555
C42_4 C45_4 1_555 1_555
C43_4 C44_4 1_555 1_555
Mn1_4 O1_4 1_555 1_555
O1_4 C1_4 1_555 1_555
O2_3 C7_4 1_555 1_555
O3_4 Mn1_4 1_555 1_555
O4_4 Mn1_4 1_555 1_555
N1_4 Mn1_4 1_555 1_555
N2_4 N1_4 1_555 1_555
N3_4 C11_4 1_555 1_555
C6_4 C1_4 1_555 1_555
C7_4 N1_4 1_555 1_555
C8_4 O3_4 1_555 1_555
C9_3 C8_4 1_555 1_555
H5_3 C9_3 1_555 1_555
H6_3 C9_3 1_555 1_555
C10_4 C9_3 1_555 1_555
H7_4 C10_4 1_555 1_555
H8_3 C10_4 1_555 1_555
H9_3 C10_4 1_555 1_555
C11_4 O4_4 1_555 1_555
H10_4 C11_4 1_555 1_555
C12_4 N3_4 1_555 1_555
H11_4 C12_4 1_555 1_555
H12_4 C12_4 1_555 1_555
H13_4 C12_4 1_555 1_555
C13_4 N3_4 1_555 1_555
H14_4 C13_4 1_555 1_555
H15_4 C13_4 1_555 1_555
H16_4 C13_4 1_555 1_555
Mn2_3 O2_3 1_555 1_555
O5_3 Mn2_3 1_555 1_555
O6_2 C20_3 1_555 1_555
N4_3 Mn2_3 1_555 1_555
N5_2 N4_3 1_555 1_555
N6_3 Mn2_3 1_555 1_555
C14_3 O5_3 1_555 1_555
C15_3 C14_3 1_555 1_555
H17_3 C15_3 1_555 1_555
C16_3 C15_3 1_555 1_555
H18_3 C16_3 1_555 1_555
C17_3 C16_3 1_555 1_555
H19_3 C17_3 1_555 1_555
C18_3 C17_3 1_555 1_555
H20_3 C18_3 1_555 1_555
C19_3 C14_3 1_555 1_555
C20_3 N4_3 1_555 1_555
C24_3 N6_3 1_555 1_555
H26_3 C24_3 1_555 1_555
C25_3 C24_3 1_555 1_555
H27_3 C25_3 1_555 1_555
O9_4 Mn1_4 1_555 1_555
N8_4 Mn1_4 1_555 1_555
C30_3 C31_3 1_555 1_555
C31_3 H32_3 1_555 1_555
C32_3 C31_3 1_555 1_555
H33_3 C32_3 1_555 1_555
C33_4 C32_3 1_555 1_555
H34_4 C33_4 1_555 1_555
C34_4 C33_4 1_555 1_555
H35_4 C34_4 1_555 1_555
C35_4 C30_3 1_555 1_555
C36_4 O9_4 1_555 1_555
Mn5 O6_2 1_555 1_555
N2_4 C8_4 1_555 1_555
N2_4 Mn2_3 1_555 1_555
C6_4 C7_4 1_555 1_555
N5_2 Mn5 1_555 1_555
C18_3 C19_3 1_555 1_555
C19_3 C20_3 1_555 1_555
N7_4 N8_4 1_555 1_555
N7_4 C36_4 1_555 1_555
C34_4 C35_4 1_555 1_555
C35_4 C36_4 1_555 1_555
C2_4 H1_4 1_555 1_555
C3_4 C2_4 1_555 1_555
H2_4 C3_4 1_555 1_555
C4_4 C3_4 1_555 1_555
H3_4 C4_4 1_555 1_555
C5_4 C4_4 1_555 1_555
H4_4 C5_4 1_555 1_555
C21_4 O7_4 1_555 1_555
C22_4 C21_4 1_555 1_555
H21_4 C22_4 1_555 1_555
H22_4 C22_4 1_555 1_555
C23_4 C22_4 1_555 1_555
H23_4 C23_4 1_555 1_555
H24_4 C23_4 1_555 1_555
H25_4 C23_4 1_555 1_555
C27_4 C26_4 1_555 1_555
H28_4 C27_4 1_555 1_555
H29_4 C28_4 1_555 1_555
C29_4 C26_4 1_555 1_555
H31_4 C29_4 1_555 1_555
Mn5 O8_3 1_555 1_555
O10_4 Mn5 1_555 1_555
C37_4 O10_4 1_555 1_555
C38_4 C37_4 1_555 1_555
H36_4 C38_4 1_555 1_555
H37_4 C38_4 1_555 1_555
C39_4 C38_4 1_555 1_555
H38_4 C39_4 1_555 1_555
H39_4 C39_4 1_555 1_555
H40_4 C39_4 1_555 1_555
C27_4 C28_4 1_555 1_555
C2_5 H1_5 1_555 1_555
C3_5 C2_5 1_555 1_555
H2_5 C3_5 1_555 1_555
C4_5 C3_5 1_555 1_555
H3_5 C4_5 1_555 1_555
C5_5 C4_5 1_555 1_555
H4_5 C5_5 1_555 1_555
C21_5 O7_5 1_555 1_555
C22_5 C21_5 1_555 1_555
H21_5 C22_5 1_555 1_555
H22_5 C22_5 1_555 1_555
C23_5 C22_5 1_555 1_555
H23_5 C23_5 1_555 1_555
H24_5 C23_5 1_555 1_555
H25_5 C23_5 1_555 1_555
C27_5 C26_5 1_555 1_555
H28_5 C27_5 1_555 1_555
H29_5 C28_5 1_555 1_555
C29_5 C26_5 1_555 1_555
H31_5 C29_5 1_555 1_555
Mn3_2 O8_4 1_555 1_555
O10_5 Mn3_2 1_555 1_555
C37_5 O10_5 1_555 1_555
C38_5 C37_5 1_555 1_555
H36_5 C38_5 1_555 1_555
H37_5 C38_5 1_555 1_555
C39_5 C38_5 1_555 1_555
H38_5 C39_5 1_555 1_555
H39_5 C39_5 1_555 1_555
H40_5 C39_5 1_555 1_555
O11_2 Mn3_2 1_555 1_555
N10_2 Mn3_2 1_555 1_555
N11_3 Mn3_2 1_555 1_555
C27_5 C28_5 1_555 1_555
O2_4 C7_5 1_555 1_555
C1_5 C2_6 1_555 1_555
C2_6 H1_6 1_555 1_555
C3_6 C2_6 1_555 1_555
H2_6 C3_6 1_555 1_555
C4_6 C3_6 1_555 1_555
H3_6 C4_6 1_555 1_555
C5_6 C4_6 1_555 1_555
H4_6 C5_6 1_555 1_555
C6_5 C1_5 1_555 1_555
H11_5 C12_5 1_555 1_555
H12_5 C12_5 1_555 1_555
H13_5 C12_5 1_555 1_555
C14_4 O5_4 1_555 1_555
C15_4 C14_4 1_555 1_555
H17_4 C15_4 1_555 1_555
C16_4 C15_4 1_555 1_555
H18_4 C16_4 1_555 1_555
C24_4 N6_4 1_555 1_555
H26_4 C24_4 1_555 1_555
C25_4 C24_4 1_555 1_555
H27_4 C25_4 1_555 1_555
C26_6 C25_4 1_555 1_555
C27_6 C26_6 1_555 1_555
H28_6 C27_6 1_555 1_555
C28_6 N6_4 1_555 1_555
H29_6 C28_6 1_555 1_555
C29_6 C26_6 1_555 1_555
H30_5 C29_6 1_555 1_555
H31_6 C29_6 1_555 1_555
N11_3 C40_5 1_555 1_555
C40_5 H41_5 1_555 1_555
C41_5 C40_5 1_555 1_555
H42_5 C41_5 1_555 1_555
C42_5 C41_5 1_555 1_555
C43_5 C42_5 1_555 1_555
H43_5 C43_5 1_555 1_555
C44_5 N11_3 1_555 1_555
H44_4 C44_5 1_555 1_555
C45_5 C29_6 1_555 1_555
H45_5 C45_5 1_555 1_555
H46_5 C45_5 1_555 1_555
C5_6 C6_5 1_555 1_555
C6_5 C7_5 1_555 1_555
C27_6 C28_6 1_555 1_555
C42_5 C45_5 1_555 1_555
C43_5 C44_5 1_555 1_555
Mn1_5 O1_5 1_555 1_555
O1_5 C1_6 1_555 1_555
O2_5 C7_6 1_555 1_555
O3_5 Mn1_5 1_555 1_555
O4_5 Mn1_5 1_555 1_555
N1_5 Mn1_5 1_555 1_555
N2_5 N1_5 1_555 1_555
N3_5 C11_5 1_555 1_555
C6_6 C1_6 1_555 1_555
C7_6 N1_5 1_555 1_555
C8_5 O3_5 1_555 1_555
C9_4 C8_5 1_555 1_555
H5_4 C9_4 1_555 1_555
H6_4 C9_4 1_555 1_555
C10_5 C9_4 1_555 1_555
H7_5 C10_5 1_555 1_555
H8_4 C10_5 1_555 1_555
H9_4 C10_5 1_555 1_555
C11_5 O4_5 1_555 1_555
H10_5 C11_5 1_555 1_555
C12_6 N3_5 1_555 1_555
H11_6 C12_6 1_555 1_555
H12_6 C12_6 1_555 1_555
H13_6 C12_6 1_555 1_555
C13_5 N3_5 1_555 1_555
H14_5 C13_5 1_555 1_555
H15_5 C13_5 1_555 1_555
H16_5 C13_5 1_555 1_555
Mn2_4 O2_5 1_555 1_555
O5_5 Mn2_4 1_555 1_555
O11_2 C20_4 1_555 1_555
N4_4 Mn2_4 1_555 1_555
N10_2 N4_4 1_555 1_555
N6_5 Mn2_4 1_555 1_555
C14_5 O5_5 1_555 1_555
C15_5 C14_5 1_555 1_555
H17_5 C15_5 1_555 1_555
C16_5 C15_5 1_555 1_555
H18_5 C16_5 1_555 1_555
C17_4 C16_5 1_555 1_555
H19_4 C17_4 1_555 1_555
C18_4 C17_4 1_555 1_555
H20_4 C18_4 1_555 1_555
C19_4 C14_5 1_555 1_555
C20_4 N4_4 1_555 1_555
C24_5 N6_5 1_555 1_555
H26_5 C24_5 1_555 1_555
C25_5 C24_5 1_555 1_555
H27_5 C25_5 1_555 1_555
O9_5 Mn1_5 1_555 1_555
N8_5 Mn1_5 1_555 1_555
C30_4 C31_4 1_555 1_555
C31_4 H32_4 1_555 1_555
C32_4 C31_4 1_555 1_555
H33_4 C32_4 1_555 1_555
C33_5 C32_4 1_555 1_555
H34_5 C33_5 1_555 1_555
C34_5 C33_5 1_555 1_555
H35_5 C34_5 1_555 1_555
C35_5 C30_4 1_555 1_555
C36_5 O9_5 1_555 1_555
N2_5 C8_5 1_555 1_555
N2_5 Mn2_4 1_555 1_555
C6_6 C7_6 1_555 1_555
C18_4 C19_4 1_555 1_555
C19_4 C20_4 1_555 1_555
N7_5 N8_5 1_555 1_555
N7_5 C36_5 1_555 1_555
C34_5 C35_5 1_555 1_555
C35_5 C36_5 1_555 1_555
N9_3 C40_6 1_555 1_555
C40_6 H41_6 1_555 1_555
C41_6 C40_6 1_555 1_555
H42_6 C41_6 1_555 1_555
C42_6 C41_6 1_555 1_555
C43_6 C42_6 1_555 1_555
H43_6 C43_6 1_555 1_555
C44_6 N9_3 1_555 1_555
H44_5 C44_6 1_555 1_555
H45_6 C45_6 1_555 1_555
H46_6 C45_6 1_555 1_555
Mn5_2 N9_3 1_555 1_555
C42_6 C45_6 1_555 1_555
C43_6 C44_6 1_555 1_555
Mn3_3 O8_5 1_555 1_555
O8_5 C30_5 1_555 1_555
C30_5 C31_5 1_555 1_555
C31_5 H32_5 1_555 1_555
C32_5 C31_5 1_555 1_555
H33_5 C32_5 1_555 1_555
O11_3 Mn3_3 1_555 1_555
N10_3 Mn3_3 1_555 1_555
Mn1_6 O1_6 1_555 1_555
O1_6 C1_7 1_555 1_555
O2_6 C7_7 1_555 1_555
O3_6 Mn1_6 1_555 1_555
O4_6 Mn1_6 1_555 1_555
N1_6 Mn1_6 1_555 1_555
N2_6 N1_6 1_555 1_555
N3_6 C11_6 1_555 1_555
C1_7 C2_7 1_555 1_555
C2_7 H1_7 1_555 1_555
C3_7 C2_7 1_555 1_555
H2_7 C3_7 1_555 1_555
C4_7 C3_7 1_555 1_555
H3_7 C4_7 1_555 1_555
C5_7 C4_7 1_555 1_555
H4_7 C5_7 1_555 1_555
C6_7 C1_7 1_555 1_555
C7_7 N1_6 1_555 1_555
C8_6 O3_6 1_555 1_555
C9_5 C8_6 1_555 1_555
H5_5 C9_5 1_555 1_555
H6_5 C9_5 1_555 1_555
C10_6 C9_5 1_555 1_555
H7_6 C10_6 1_555 1_555
H8_5 C10_6 1_555 1_555
H9_6 C10_6 1_555 1_555
C11_6 O4_6 1_555 1_555
H10_6 C11_6 1_555 1_555
C12_7 N3_6 1_555 1_555
H11_7 C12_7 1_555 1_555
H12_7 C12_7 1_555 1_555
H13_7 C12_7 1_555 1_555
C13_6 N3_6 1_555 1_555
H14_6 C13_6 1_555 1_555
H15_6 C13_6 1_555 1_555
H16_6 C13_6 1_555 1_555
Mn2_5 O2_6 1_555 1_555
O5_6 Mn2_5 1_555 1_555
O6_3 C20_5 1_555 1_555
O7_6 Mn2_5 1_555 1_555
N4_5 Mn2_5 1_555 1_555
N5_3 N4_5 1_555 1_555
N6_6 Mn2_5 1_555 1_555
C14_6 O5_6 1_555 1_555
C15_6 C14_6 1_555 1_555
H17_6 C15_6 1_555 1_555
C16_6 C15_6 1_555 1_555
H18_6 C16_6 1_555 1_555
C17_5 C16_6 1_555 1_555
H19_5 C17_5 1_555 1_555
C18_5 C17_5 1_555 1_555
H20_5 C18_5 1_555 1_555
C19_5 C14_6 1_555 1_555
C20_5 N4_5 1_555 1_555
C21_6 O7_6 1_555 1_555
C22_6 C21_6 1_555 1_555
H21_6 C22_6 1_555 1_555
H22_6 C22_6 1_555 1_555
C23_6 C22_6 1_555 1_555
H23_6 C23_6 1_555 1_555
H24_6 C23_6 1_555 1_555
H25_6 C23_6 1_555 1_555
C24_6 N6_6 1_555 1_555
H26_6 C24_6 1_555 1_555
C25_6 C24_6 1_555 1_555
H27_6 C25_6 1_555 1_555
C26_7 C25_6 1_555 1_555
C27_7 C26_7 1_555 1_555
H28_7 C27_7 1_555 1_555
C28_7 N6_6 1_555 1_555
H29_7 C28_7 1_555 1_555
C29_7 C26_7 1_555 1_555
H30_7 C29_7 1_555 1_555
H31_7 C29_7 1_555 1_555
Mn3_4 O8_6 1_555 1_555
O8_6 C30_6 1_555 1_555
O9_6 Mn1_6 1_555 1_555
O10_6 Mn3_4 1_555 1_555
N7_6 Mn3_4 1_555 1_555
N8_6 Mn1_6 1_555 1_555
N9_4 C40_7 1_555 1_555
C30_6 C31_6 1_555 1_555
C31_6 H32_6 1_555 1_555
C32_6 C31_6 1_555 1_555
H33_6 C32_6 1_555 1_555
C33_6 C32_6 1_555 1_555
H34_6 C33_6 1_555 1_555
C34_6 C33_6 1_555 1_555
H35_6 C34_6 1_555 1_555
C35_6 C30_6 1_555 1_555
C36_6 O9_6 1_555 1_555
C37_6 O10_6 1_555 1_555
C38_6 C37_6 1_555 1_555
H36_6 C38_6 1_555 1_555
H37_6 C38_6 1_555 1_555
C39_6 C38_6 1_555 1_555
H38_6 C39_6 1_555 1_555
H39_6 C39_6 1_555 1_555
H40_6 C39_6 1_555 1_555
C40_7 H41_7 1_555 1_555
C41_7 C40_7 1_555 1_555
H42_7 C41_7 1_555 1_555
C42_7 C41_7 1_555 1_555
C43_7 C42_7 1_555 1_555
H43_7 C43_7 1_555 1_555
C44_7 N9_4 1_555 1_555
C45_7 C29_7 1_555 1_555
H45_7 C45_7 1_555 1_555
H46_7 C45_7 1_555 1_555
O11_4 Mn3_4 1_555 1_555
N10_4 Mn3_4 1_555 1_555
Mn5_2 O6_3 1_555 1_555
N11_4 Mn3_4 1_555 1_555
N2_6 C8_6 1_555 1_555
N2_6 Mn2_5 1_555 1_555
C5_7 C6_7 1_555 1_555
C6_7 C7_7 1_555 1_555
N5_3 C21_6 1_555 1_555
N5_3 Mn5_2 1_555 1_555
C18_5 C19_5 1_555 1_555
C19_5 C20_5 1_555 1_555
C27_7 C28_7 1_555 1_555
N7_6 N8_6 1_555 1_555
N7_6 C36_6 1_555 1_555
N8_6 C37_6 1_555 1_555
C34_6 C35_6 1_555 1_555
C35_6 C36_6 1_555 1_555
C42_7 C45_7 1_555 1_555
C43_7 C44_7 1_555 1_555
H5_6 C9_6 1_555 1_555
H6_6 C9_6 1_555 1_555
Mn2_6 O2_7 1_555 1_555
O5_7 Mn2_6 1_555 1_555
O11_3 C20_6 1_555 1_555
O7_7 Mn2_6 1_555 1_555
N4_6 Mn2_6 1_555 1_555
N10_3 N4_6 1_555 1_555
N6_7 Mn2_6 1_555 1_555
C14_7 O5_7 1_555 1_555
C15_7 C14_7 1_555 1_555
H17_7 C15_7 1_555 1_555
C16_7 C15_7 1_555 1_555
H18_7 C16_7 1_555 1_555
C17_6 C16_7 1_555 1_555
H19_6 C17_6 1_555 1_555
C18_6 C17_6 1_555 1_555
H20_6 C18_6 1_555 1_555
C19_6 C14_7 1_555 1_555
C20_6 N4_6 1_555 1_555
C21_7 O7_7 1_555 1_555
C22_7 C21_7 1_555 1_555
H21_7 C22_7 1_555 1_555
H22_7 C22_7 1_555 1_555
C23_7 C22_7 1_555 1_555
H23_7 C23_7 1_555 1_555
H24_7 C23_7 1_555 1_555
H25_7 C23_7 1_555 1_555
C24_7 N6_7 1_555 1_555
H26_7 C24_7 1_555 1_555
C25_7 C24_7 1_555 1_555
H27_7 C25_7 1_555 1_555
C26_8 C25_7 1_555 1_555
C27_8 C26_8 1_555 1_555
H28_8 C27_8 1_555 1_555
C28_8 N6_7 1_555 1_555
H29_8 C28_8 1_555 1_555
C29_8 C26_8 1_555 1_555
H30_8 C29_8 1_555 1_555
H31_8 C29_8 1_555 1_555
N11_4 C40_8 1_555 1_555
C40_8 H41_8 1_555 1_555
C41_8 C40_8 1_555 1_555
H42_8 C41_8 1_555 1_555
C42_8 C41_8 1_555 1_555
C43_8 C42_8 1_555 1_555
H43_8 C43_8 1_555 1_555
C44_8 N11_4 1_555 1_555
H44_7 C44_8 1_555 1_555
C45_8 C29_8 1_555 1_555
H45_8 C45_8 1_555 1_555
H46_8 C45_8 1_555 1_555
N10_3 C21_7 1_555 1_555
C18_6 C19_6 1_555 1_555
C19_6 C20_6 1_555 1_555
C27_8 C28_8 1_555 1_555
C42_8 C45_8 1_555 1_555
C43_8 C44_8 1_555 1_555
C2_8 H1_8 1_555 1_555
C3_8 C2_8 1_555 1_555
H2_8 C3_8 1_555 1_555
C4_8 C3_8 1_555 1_555
H3_8 C4_8 1_555 1_555
C5_8 C4_8 1_555 1_555
H4_8 C5_8 1_555 1_555
C37_7 O10_7 1_555 1_555
C38_7 C37_7 1_555 1_555
H36_7 C38_7 1_555 1_555
H37_7 C38_7 1_555 1_555
C39_7 C38_7 1_555 1_555
H38_7 C39_7 1_555 1_555
H39_7 C39_7 1_555 1_555
H40_7 C39_7 1_555 1_555
Mn1_7 O1_7 1_555 1_555
O3_7 Mn1_7 1_555 1_555
O4_7 Mn1_7 1_555 1_555
N1_7 Mn1_7 1_555 1_555
N2_7 N1_7 1_555 1_555
N3_7 C11_7 1_555 1_555
C8_7 O3_7 1_555 1_555
C9_7 C8_7 1_555 1_555
H5_7 C9_7 1_555 1_555
H6_7 C9_7 1_555 1_555
C10_7 C9_7 1_555 1_555
H7_7 C10_7 1_555 1_555
H8_6 C10_7 1_555 1_555
H9_7 C10_7 1_555 1_555
C11_7 O4_7 1_555 1_555
H10_7 C11_7 1_555 1_555
C13_7 N3_7 1_555 1_555
H14_7 C13_7 1_555 1_555
H15_7 C13_7 1_555 1_555
H16_7 C13_7 1_555 1_555
O11_4 C20_7 1_555 1_555
O7_8 Mn2_7 1_555 1_555
N4_7 Mn2_7 1_555 1_555
N10_4 N4_7 1_555 1_555
H19_7 C17_7 1_555 1_555
C18_7 C17_7 1_555 1_555
H20_7 C18_7 1_555 1_555
C20_7 N4_7 1_555 1_555
C21_8 O7_8 1_555 1_555
C22_8 C21_8 1_555 1_555
H21_8 C22_8 1_555 1_555
H22_8 C22_8 1_555 1_555
C23_8 C22_8 1_555 1_555
H23_8 C23_8 1_555 1_555
H24_8 C23_8 1_555 1_555
H25_8 C23_8 1_555 1_555
Mn5_2 O8_7 1_555 1_555
O8_7 C30_7 1_555 1_555
O9_7 Mn1_7 1_555 1_555
O10_8 Mn5_2 1_555 1_555
N7_7 Mn5_2 1_555 1_555
N8_7 Mn1_7 1_555 1_555
C30_7 C31_7 1_555 1_555
C31_7 H32_7 1_555 1_555
C32_7 C31_7 1_555 1_555
H33_7 C32_7 1_555 1_555
C33_7 C32_7 1_555 1_555
H34_7 C33_7 1_555 1_555
C34_7 C33_7 1_555 1_555
H35_7 C34_7 1_555 1_555
C35_7 C30_7 1_555 1_555
C36_7 O9_7 1_555 1_555
C37_8 O10_8 1_555 1_555
C38_8 C37_8 1_555 1_555
H36_8 C38_8 1_555 1_555
H37_8 C38_8 1_555 1_555
C39_8 C38_8 1_555 1_555
H38_8 C39_8 1_555 1_555
H39_8 C39_8 1_555 1_555
H40_8 C39_8 1_555 1_555
N2_7 C8_7 1_555 1_555
N2_7 Mn2_7 1_555 1_555
N10_4 C21_8 1_555 1_555
C18_7 C19_7 1_555 1_555
C19_7 C20_7 1_555 1_555
N7_7 N8_7 1_555 1_555
N7_7 C36_7 1_555 1_555
N8_7 C37_8 1_555 1_555
C34_7 C35_7 1_555 1_555
C35_7 C36_7 1_555 1_555
Mn1_8 O1_8 1_555 1_555
O1_8 C1_8 1_555 1_555
O2_8 C7_8 1_555 1_555
O3_8 Mn1_8 1_555 1_555
O4_8 Mn1_8 1_555 1_555
N1_8 Mn1_8 1_555 1_555
N2_8 N1_8 1_555 1_555
N3_8 C11_8 1_555 1_555
C1_8 C2_9 1_555 1_555
C2_9 H1_9 1_555 1_555
C3_9 C2_9 1_555 1_555
H2_9 C3_9 1_555 1_555
C4_9 C3_9 1_555 1_555
H3_9 C4_9 1_555 1_555
C5_9 C4_9 1_555 1_555
H4_9 C5_9 1_555 1_555
C6_8 C1_8 1_555 1_555
C7_8 N1_8 1_555 1_555
C8_8 O3_8 1_555 1_555
C9_8 C8_8 1_555 1_555
H5_8 C9_8 1_555 1_555
H6_8 C9_8 1_555 1_555
C10_8 C9_8 1_555 1_555
H7_8 C10_8 1_555 1_555
H8_7 C10_8 1_555 1_555
H9_8 C10_8 1_555 1_555
C11_8 O4_8 1_555 1_555
H10_8 C11_8 1_555 1_555
C12_8 N3_8 1_555 1_555
H11_8 C12_8 1_555 1_555
H12_8 C12_8 1_555 1_555
H13_8 C12_8 1_555 1_555
C13_8 N3_8 1_555 1_555
H14_8 C13_8 1_555 1_555
H15_8 C13_8 1_555 1_555
H16_8 C13_8 1_555 1_555
Mn2_8 O2_8 1_555 1_555
O5_8 Mn2_8 1_555 1_555
O6_4 C20_8 1_555 1_555
O7_9 Mn2_8 1_555 1_555
N4_8 Mn2_8 1_555 1_555
N5_4 N4_8 1_555 1_555
N6_8 Mn2_8 1_555 1_555
C14_8 O5_8 1_555 1_555
C15_8 C14_8 1_555 1_555
H17_8 C15_8 1_555 1_555
C16_8 C15_8 1_555 1_555
H18_8 C16_8 1_555 1_555
C17_8 C16_8 1_555 1_555
H19_8 C17_8 1_555 1_555
C18_8 C17_8 1_555 1_555
H20_8 C18_8 1_555 1_555
C19_8 C14_8 1_555 1_555
C20_8 N4_8 1_555 1_555
C21_9 O7_9 1_555 1_555
C22_9 C21_9 1_555 1_555
H21_9 C22_9 1_555 1_555
H22_9 C22_9 1_555 1_555
C23_9 C22_9 1_555 1_555
H23_9 C23_9 1_555 1_555
H24_9 C23_9 1_555 1_555
H25_9 C23_9 1_555 1_555
C24_8 N6_8 1_555 1_555
H26_8 C24_8 1_555 1_555
C25_8 C24_8 1_555 1_555
H27_8 C25_8 1_555 1_555
C26_9 C25_8 1_555 1_555
C27_9 C26_9 1_555 1_555
H28_9 C27_9 1_555 1_555
C28_9 N6_8 1_555 1_555
H29_9 C28_9 1_555 1_555
C29_9 C26_9 1_555 1_555
H30_9 C29_9 1_555 1_555
H31_9 C29_9 1_555 1_555
Mn3_5 O8_8 1_555 1_555
O8_8 C30_8 1_555 1_555
O9_8 Mn1_8 1_555 1_555
O10_9 Mn3_5 1_555 1_555
N7_8 Mn3_5 1_555 1_555
N8_8 Mn1_8 1_555 1_555
N9_5 C40_9 1_555 1_555
C30_8 C31_8 1_555 1_555
C31_8 H32_8 1_555 1_555
C32_8 C31_8 1_555 1_555
H33_8 C32_8 1_555 1_555
C33_8 C32_8 1_555 1_555
H34_8 C33_8 1_555 1_555
C34_8 C33_8 1_555 1_555
H35_8 C34_8 1_555 1_555
C35_8 C30_8 1_555 1_555
C36_8 O9_8 1_555 1_555
C37_9 O10_9 1_555 1_555
C38_9 C37_9 1_555 1_555
H36_9 C38_9 1_555 1_555
H37_9 C38_9 1_555 1_555
C39_9 C38_9 1_555 1_555
H38_9 C39_9 1_555 1_555
H39_9 C39_9 1_555 1_555
H40_9 C39_9 1_555 1_555
C40_9 H41_9 1_555 1_555
C41_9 C40_9 1_555 1_555
H42_9 C41_9 1_555 1_555
C42_9 C41_9 1_555 1_555
C43_9 C42_9 1_555 1_555
H43_9 C43_9 1_555 1_555
C44_9 N9_5 1_555 1_555
C45_9 C29_9 1_555 1_555
H45_9 C45_9 1_555 1_555
H46_9 C45_9 1_555 1_555
O11_5 Mn3_5 1_555 1_555
N10_5 Mn3_5 1_555 1_555
Mn4_2 O6_4 1_555 1_555
N11_5 Mn3_5 1_555 1_555
N2_8 C8_8 1_555 1_555
N2_8 Mn2_8 1_555 1_555
C5_9 C6_8 1_555 1_555
C6_8 C7_8 1_555 1_555
N5_4 C21_9 1_555 1_555
N5_4 Mn4_2 1_555 1_555
C18_8 C19_8 1_555 1_555
C19_8 C20_8 1_555 1_555
C27_9 C28_9 1_555 1_555
N7_8 N8_8 1_555 1_555
N7_8 C36_8 1_555 1_555
N8_8 C37_9 1_555 1_555
C34_8 C35_8 1_555 1_555
C35_8 C36_8 1_555 1_555
C42_9 C45_9 1_555 1_555
C43_9 C44_9 1_555 1_555
N9_6 C40_10 1_555 1_555
C40_10 H41_10 1_555 1_555
C41_10 C40_10 1_555 1_555
H42_10 C41_10 1_555 1_555
C42_10 C41_10 1_555 1_555
C43_10 C42_10 1_555 1_555
H43_10 C43_10 1_555 1_555
C44_10 N9_6 1_555 1_555
H44_8 C44_10 1_555 1_555
H45_10 C45_10 1_555 1_555
H46_10 C45_10 1_555 1_555
Mn4_2 N9_6 1_555 1_555
C42_10 C45_10 1_555 1_555
C43_10 C44_10 1_555 1_555
Mn1_9 O1_9 1_555 1_555
O3_9 Mn1_9 1_555 1_555
O4_9 Mn1_9 1_555 1_555
N1_9 Mn1_9 1_555 1_555
N2_9 N1_9 1_555 1_555
N3_9 C11_9 1_555 1_555
C8_9 O3_9 1_555 1_555
C9_9 C8_9 1_555 1_555
H5_9 C9_9 1_555 1_555
H6_9 C9_9 1_555 1_555
C10_9 C9_9 1_555 1_555
H7_9 C10_9 1_555 1_555
H8_8 C10_9 1_555 1_555
H9_9 C10_9 1_555 1_555
C11_9 O4_9 1_555 1_555
H10_9 C11_9 1_555 1_555
C13_9 N3_9 1_555 1_555
H14_9 C13_9 1_555 1_555
H15_9 C13_9 1_555 1_555
H16_9 C13_9 1_555 1_555
O11_5 C20_9 1_555 1_555
O7_10 Mn2_9 1_555 1_555
N4_9 Mn2_9 1_555 1_555
N10_5 N4_9 1_555 1_555
H19_9 C17_9 1_555 1_555
C18_9 C17_9 1_555 1_555
H20_9 C18_9 1_555 1_555
C20_9 N4_9 1_555 1_555
C21_10 O7_10 1_555 1_555
C22_10 C21_10 1_555 1_555
H21_10 C22_10 1_555 1_555
H22_10 C22_10 1_555 1_555
C23_10 C22_10 1_555 1_555
H23_10 C23_10 1_555 1_555
H24_10 C23_10 1_555 1_555
H25_10 C23_10 1_555 1_555
Mn4_2 O8_9 1_555 1_555
O8_9 C30_9 1_555 1_555
O9_9 Mn1_9 1_555 1_555
O10_10 Mn4_2 1_555 1_555
N7_9 Mn4_2 1_555 1_555
N8_9 Mn1_9 1_555 1_555
C30_9 C31_9 1_555 1_555
C31_9 H32_9 1_555 1_555
C32_9 C31_9 1_555 1_555
H33_9 C32_9 1_555 1_555
C33_9 C32_9 1_555 1_555
H34_9 C33_9 1_555 1_555
C34_9 C33_9 1_555 1_555
H35_9 C34_9 1_555 1_555
C35_9 C30_9 1_555 1_555
C36_9 O9_9 1_555 1_555
C37_10 O10_10 1_555 1_555
C38_10 C37_10 1_555 1_555
H36_10 C38_10 1_555 1_555
H37_10 C38_10 1_555 1_555
C39_10 C38_10 1_555 1_555
H38_10 C39_10 1_555 1_555
H39_10 C39_10 1_555 1_555
H40_10 C39_10 1_555 1_555
N2_9 C8_9 1_555 1_555
N2_9 Mn2_9 1_555 1_555
N10_5 C21_10 1_555 1_555
C18_9 C19_9 1_555 1_555
C19_9 C20_9 1_555 1_555
N7_9 N8_9 1_555 1_555
N7_9 C36_9 1_555 1_555
N8_9 C37_10 1_555 1_555
C34_9 C35_9 1_555 1_555
C35_9 C36_9 1_555 1_555
Mn1_10 O1_10 1_555 1_555
O1_10 C1_9 1_555 1_555
O3_10 Mn1_10 1_555 1_555
O4_10 Mn1_10 1_555 1_555
N1_10 Mn1_10 1_555 1_555
N2_10 N1_10 1_555 1_555
N3_10 C11_10 1_555 1_555
C1_9 C2_10 1_555 1_555
C2_10 H1_10 1_555 1_555
C3_10 C2_10 1_555 1_555
H2_10 C3_10 1_555 1_555
C4_10 C3_10 1_555 1_555
H3_10 C4_10 1_555 1_555
C5_10 C4_10 1_555 1_555
H4_10 C5_10 1_555 1_555
C6_9 C1_9 1_555 1_555
C7_9 N1_10 1_555 1_555
C8_10 O3_10 1_555 1_555
H7_10 C10_10 1_555 1_555
C11_10 O4_10 1_555 1_555
H10_10 C11_10 1_555 1_555
C12_9 N3_10 1_555 1_555
H11_9 C12_9 1_555 1_555
H12_9 C12_9 1_555 1_555
H13_9 C12_9 1_555 1_555
C13_10 N3_10 1_555 1_555
H14_10 C13_10 1_555 1_555
H15_10 C13_10 1_555 1_555
H16_10 C13_10 1_555 1_555
O9_10 Mn1_10 1_555 1_555
N8_10 Mn1_10 1_555 1_555
H34_10 C33_10 1_555 1_555
C34_10 C33_10 1_555 1_555
H35_10 C34_10 1_555 1_555
C36_10 O9_10 1_555 1_555
C37_11 O10_11 1_555 1_555
C38_11 C37_11 1_555 1_555
H36_11 C38_11 1_555 1_555
H37_11 C38_11 1_555 1_555
C39_11 C38_11 1_555 1_555
H38_11 C39_11 1_555 1_555
H39_11 C39_11 1_555 1_555
H40_11 C39_11 1_555 1_555
N2_10 C8_10 1_555 1_555
C5_10 C6_9 1_555 1_555
C6_9 C7_9 1_555 1_555
N7_10 N8_10 1_555 1_555
N7_10 C36_10 1_555 1_555
N8_10 C37_11 1_555 1_555
C34_10 C35_10 1_555 1_555
C35_10 C36_10 1_555 1_555
C21_11 O7_11 1_555 1_555
C22_11 C21_11 1_555 1_555
H21_11 C22_11 1_555 1_555
H22_11 C22_11 1_555 1_555
C23_11 C22_11 1_555 1_555
H23_11 C23_11 1_555 1_555
H24_11 C23_11 1_555 1_555
H25_11 C23_11 1_555 1_555
C27_10 C26_10 1_555 1_555
H28_10 C27_10 1_555 1_555
H29_10 C28_10 1_555 1_555
C29_10 C26_10 1_555 1_555
H30_11 C29_10 1_555 1_555
H31_10 C29_10 1_555 1_555
N11_5 C40_11 1_555 1_555
C40_11 H41_11 1_555 1_555
C41_11 C40_11 1_555 1_555
H42_11 C41_11 1_555 1_555
C42_11 C41_11 1_555 1_555
C43_11 C42_11 1_555 1_555
H43_11 C43_11 1_555 1_555
C44_11 N11_5 1_555 1_555
H44_9 C44_11 1_555 1_555
C45_11 C29_10 1_555 1_555
H45_11 C45_11 1_555 1_555
H46_11 C45_11 1_555 1_555
C27_10 C28_10 1_555 1_555
C42_11 C45_11 1_555 1_555
C43_11 C44_11 1_555 1_555
H5_10 C9_10 1_555 1_555
H6_10 C9_10 1_555 1_555
Mn2_10 O2_9 1_555 1_555
O5_9 Mn2_10 1_555 1_555
O6_5 C20_10 1_555 1_555
O7_12 Mn2_10 1_555 1_555
N4_10 Mn2_10 1_555 1_555
N5_5 N4_10 1_555 1_555
N6_9 Mn2_10 1_555 1_555
C14_9 O5_9 1_555 1_555
C15_9 C14_9 1_555 1_555
H17_9 C15_9 1_555 1_555
C16_9 C15_9 1_555 1_555
H18_9 C16_9 1_555 1_555
C17_10 C16_9 1_555 1_555
H19_10 C17_10 1_555 1_555
C18_10 C17_10 1_555 1_555
H20_10 C18_10 1_555 1_555
C19_10 C14_9 1_555 1_555
C20_10 N4_10 1_555 1_555
C21_12 O7_12 1_555 1_555
C22_12 C21_12 1_555 1_555
H21_12 C22_12 1_555 1_555
H22_12 C22_12 1_555 1_555
C23_12 C22_12 1_555 1_555
H23_12 C23_12 1_555 1_555
H24_12 C23_12 1_555 1_555
H25_12 C23_12 1_555 1_555
C24_9 N6_9 1_555 1_555
H26_9 C24_9 1_555 1_555
C25_9 C24_9 1_555 1_555
H27_9 C25_9 1_555 1_555
C26_11 C25_9 1_555 1_555
C27_11 C26_11 1_555 1_555
H28_11 C27_11 1_555 1_555
C28_11 N6_9 1_555 1_555
H29_11 C28_11 1_555 1_555
C29_11 C26_11 1_555 1_555
H30_12 C29_11 1_555 1_555
H31_11 C29_11 1_555 1_555
N9_7 C40_12 1_555 1_555
C40_12 H41_12 1_555 1_555
C41_12 C40_12 1_555 1_555
H42_12 C41_12 1_555 1_555
C42_12 C41_12 1_555 1_555
C43_12 C42_12 1_555 1_555
H43_12 C43_12 1_555 1_555
C44_12 N9_7 1_555 1_555
H44_11 C44_12 1_555 1_555
C45_12 C29_11 1_555 1_555
H45_12 C45_12 1_555 1_555
H46_12 C45_12 1_555 1_555
Mn5_3 O6_5 1_555 1_555
Mn5_4 N9_7 1_555 1_555
N5_5 C21_12 1_555 1_555
N5_5 Mn5_3 1_555 1_555
C18_10 C19_10 1_555 1_555
C19_10 C20_10 1_555 1_555
C27_11 C28_11 1_555 1_555
C42_12 C45_12 1_555 1_555
C43_12 C44_12 1_555 1_555
C2_11 H1_11 1_555 1_555
C3_11 C2_11 1_555 1_555
H2_11 C3_11 1_555 1_555
C4_11 C3_11 1_555 1_555
H3_11 C4_11 1_555 1_555
C5_11 C4_11 1_555 1_555
H4_11 C5_11 1_555 1_555
C37_12 O10_12 1_555 1_555
C38_12 C37_12 1_555 1_555
H36_12 C38_12 1_555 1_555
H37_12 C38_12 1_555 1_555
C39_12 C38_12 1_555 1_555
H38_12 C39_12 1_555 1_555
H39_12 C39_12 1_555 1_555
H40_12 C39_12 1_555 1_555
Mn1_11 O1_11 1_555 1_555
O3_11 Mn1_11 1_555 1_555
O4_11 Mn1_11 1_555 1_555
N1_11 Mn1_11 1_555 1_555
N2_11 N1_11 1_555 1_555
N3_11 C11_11 1_555 1_555
C8_11 O3_11 1_555 1_555
C9_11 C8_11 1_555 1_555
H5_11 C9_11 1_555 1_555
H6_11 C9_11 1_555 1_555
C10_11 C9_11 1_555 1_555
H7_11 C10_11 1_555 1_555
H8_9 C10_11 1_555 1_555
H9_10 C10_11 1_555 1_555
C11_11 O4_11 1_555 1_555
H10_11 C11_11 1_555 1_555
C13_11 N3_11 1_555 1_555
H14_11 C13_11 1_555 1_555
H15_11 C13_11 1_555 1_555
H16_11 C13_11 1_555 1_555
O6_6 C20_11 1_555 1_555
O7_13 Mn2_11 1_555 1_555
N4_11 Mn2_11 1_555 1_555
N5_6 N4_11 1_555 1_555
H19_11 C17_11 1_555 1_555
C18_11 C17_11 1_555 1_555
H20_11 C18_11 1_555 1_555
C20_11 N4_11 1_555 1_555
C21_13 O7_13 1_555 1_555
C22_13 C21_13 1_555 1_555
H21_13 C22_13 1_555 1_555
H22_13 C22_13 1_555 1_555
C23_13 C22_13 1_555 1_555
H23_13 C23_13 1_555 1_555
H24_13 C23_13 1_555 1_555
H25_13 C23_13 1_555 1_555
Mn3_6 O8_10 1_555 1_555
O8_10 C30_10 1_555 1_555
O9_11 Mn1_11 1_555 1_555
O10_13 Mn3_6 1_555 1_555
N7_11 Mn3_6 1_555 1_555
N8_11 Mn1_11 1_555 1_555
C30_10 C31_10 1_555 1_555
C31_10 H32_10 1_555 1_555
C32_10 C31_10 1_555 1_555
H33_10 C32_10 1_555 1_555
C33_11 C32_10 1_555 1_555
H34_11 C33_11 1_555 1_555
C34_11 C33_11 1_555 1_555
H35_11 C34_11 1_555 1_555
C35_11 C30_10 1_555 1_555
C36_11 O9_11 1_555 1_555
C37_13 O10_13 1_555 1_555
C38_13 C37_13 1_555 1_555
H36_13 C38_13 1_555 1_555
H37_13 C38_13 1_555 1_555
C39_13 C38_13 1_555 1_555
H38_13 C39_13 1_555 1_555
H39_13 C39_13 1_555 1_555
H40_13 C39_13 1_555 1_555
O11_6 Mn3_6 1_555 1_555
N10_6 Mn3_6 1_555 1_555
Mn5_4 O6_6 1_555 1_555
N11_7 Mn3_6 1_555 1_555
N2_11 C8_11 1_555 1_555
N2_11 Mn2_11 1_555 1_555
N5_6 C21_13 1_555 1_555
N5_6 Mn5_4 1_555 1_555
C18_11 C19_11 1_555 1_555
C19_11 C20_11 1_555 1_555
N7_11 N8_11 1_555 1_555
N7_11 C36_11 1_555 1_555
N8_11 C37_13 1_555 1_555
C34_11 C35_11 1_555 1_555
C35_11 C36_11 1_555 1_555
N11_7 C40_13 1_555 1_555
C40_13 H41_13 1_555 1_555
C41_13 C40_13 1_555 1_555
H42_13 C41_13 1_555 1_555
C42_13 C41_13 1_555 1_555
C43_13 C42_13 1_555 1_555
H43_13 C43_13 1_555 1_555
C44_13 N11_7 1_555 1_555
H44_12 C44_13 1_555 1_555
H45_13 C45_13 1_555 1_555
H46_13 C45_13 1_555 1_555
C42_13 C45_13 1_555 1_555
C43_13 C44_13 1_555 1_555
Mn5_3 O8_11 1_555 1_555
O8_11 C30_11 1_555 1_555
C30_11 C31_11 1_555 1_555
C31_11 H32_11 1_555 1_555
C32_11 C31_11 1_555 1_555
H33_11 C32_11 1_555 1_555
Mn1_12 O1_12 1_555 1_555
O1_12 C1_10 1_555 1_555
O2_10 C7_10 1_555 1_555
O3_12 Mn1_12 1_555 1_555
O4_12 Mn1_12 1_555 1_555
N1_12 Mn1_12 1_555 1_555
N2_12 N1_12 1_555 1_555
N3_12 C11_12 1_555 1_555
C1_10 C2_12 1_555 1_555
C2_12 H1_12 1_555 1_555
C3_12 C2_12 1_555 1_555
H2_12 C3_12 1_555 1_555
C4_12 C3_12 1_555 1_555
H3_12 C4_12 1_555 1_555
C5_12 C4_12 1_555 1_555
H4_12 C5_12 1_555 1_555
C6_10 C1_10 1_555 1_555
C7_10 N1_12 1_555 1_555
C8_12 O3_12 1_555 1_555
C9_12 C8_12 1_555 1_555
H5_12 C9_12 1_555 1_555
H6_12 C9_12 1_555 1_555
C10_12 C9_12 1_555 1_555
H7_12 C10_12 1_555 1_555
H8_10 C10_12 1_555 1_555
H9_12 C10_12 1_555 1_555
C11_12 O4_12 1_555 1_555
H10_12 C11_12 1_555 1_555
C12_10 N3_12 1_555 1_555
H11_10 C12_10 1_555 1_555
H12_10 C12_10 1_555 1_555
H13_10 C12_10 1_555 1_555
C13_12 N3_12 1_555 1_555
H14_12 C13_12 1_555 1_555
H15_12 C13_12 1_555 1_555
H16_12 C13_12 1_555 1_555
Mn2_12 O2_10 1_555 1_555
O5_10 Mn2_12 1_555 1_555
O11_6 C20_12 1_555 1_555
O7_14 Mn2_12 1_555 1_555
N4_12 Mn2_12 1_555 1_555
N10_6 N4_12 1_555 1_555
N6_10 Mn2_12 1_555 1_555
C14_10 O5_10 1_555 1_555
C15_10 C14_10 1_555 1_555
H17_10 C15_10 1_555 1_555
C16_10 C15_10 1_555 1_555
H18_10 C16_10 1_555 1_555
C17_12 C16_10 1_555 1_555
H19_12 C17_12 1_555 1_555
C18_12 C17_12 1_555 1_555
H20_12 C18_12 1_555 1_555
C19_12 C14_10 1_555 1_555
C20_12 N4_12 1_555 1_555
C21_14 O7_14 1_555 1_555
C22_14 C21_14 1_555 1_555
H21_14 C22_14 1_555 1_555
H22_14 C22_14 1_555 1_555
C23_14 C22_14 1_555 1_555
H23_14 C23_14 1_555 1_555
H24_14 C23_14 1_555 1_555
H25_14 C23_14 1_555 1_555
C24_10 N6_10 1_555 1_555
H26_10 C24_10 1_555 1_555
C25_10 C24_10 1_555 1_555
H27_10 C25_10 1_555 1_555
C26_12 C25_10 1_555 1_555
C27_12 C26_12 1_555 1_555
H28_12 C27_12 1_555 1_555
C28_12 N6_10 1_555 1_555
H29_12 C28_12 1_555 1_555
C29_12 C26_12 1_555 1_555
H30_14 C29_12 1_555 1_555
H31_12 C29_12 1_555 1_555
Mn5_4 O8_12 1_555 1_555
O8_12 C30_12 1_555 1_555
O9_12 Mn1_12 1_555 1_555
O10_14 Mn5_4 1_555 1_555
N7_12 Mn5_4 1_555 1_555
N8_12 Mn1_12 1_555 1_555
N11_6 C40_14 1_555 1_555
C30_12 C31_12 1_555 1_555
C31_12 H32_12 1_555 1_555
C32_12 C31_12 1_555 1_555
H33_12 C32_12 1_555 1_555
C33_12 C32_12 1_555 1_555
H34_12 C33_12 1_555 1_555
C34_12 C33_12 1_555 1_555
H35_12 C34_12 1_555 1_555
C35_12 C30_12 1_555 1_555
C36_12 O9_12 1_555 1_555
C37_14 O10_14 1_555 1_555
C38_14 C37_14 1_555 1_555
H36_14 C38_14 1_555 1_555
H37_14 C38_14 1_555 1_555
C39_14 C38_14 1_555 1_555
H38_14 C39_14 1_555 1_555
H39_14 C39_14 1_555 1_555
H40_14 C39_14 1_555 1_555
C40_14 H41_14 1_555 1_555
C41_14 C40_14 1_555 1_555
H42_14 C41_14 1_555 1_555
C42_14 C41_14 1_555 1_555
C43_14 C42_14 1_555 1_555
H43_14 C43_14 1_555 1_555
C44_14 N11_6 1_555 1_555
C45_14 C29_12 1_555 1_555
H45_14 C45_14 1_555 1_555
H46_14 C45_14 1_555 1_555
N2_12 C8_12 1_555 1_555
N2_12 Mn2_12 1_555 1_555
C5_12 C6_10 1_555 1_555
C6_10 C7_10 1_555 1_555
N10_6 C21_14 1_555 1_555
C18_12 C19_12 1_555 1_555
C19_12 C20_12 1_555 1_555
C27_12 C28_12 1_555 1_555
N7_12 N8_12 1_555 1_555
N7_12 C36_12 1_555 1_555
N8_12 C37_14 1_555 1_555
C34_12 C35_12 1_555 1_555
C35_12 C36_12 1_555 1_555
C42_14 C45_14 1_555 1_555
C43_14 C44_14 1_555 1_555
Mn1_13 O1_13 1_555 1_555
O1_13 C1_11 1_555 1_555
O2_11 C7_11 1_555 1_555
O3_13 Mn1_13 1_555 1_555
O4_13 Mn1_13 1_555 1_555
N1_13 Mn1_13 1_555 1_555
N2_13 N1_13 1_555 1_555
N3_13 C11_13 1_555 1_555
C1_11 C2_13 1_555 1_555
C2_13 H1_13 1_555 1_555
C3_13 C2_13 1_555 1_555
H2_13 C3_13 1_555 1_555
C4_13 C3_13 1_555 1_555
H3_13 C4_13 1_555 1_555
C5_13 C4_13 1_555 1_555
H4_13 C5_13 1_555 1_555
C6_11 C1_11 1_555 1_555
C7_11 N1_13 1_555 1_555
C8_13 O3_13 1_555 1_555
C9_13 C8_13 1_555 1_555
H5_13 C9_13 1_555 1_555
H6_13 C9_13 1_555 1_555
C10_13 C9_13 1_555 1_555
H7_13 C10_13 1_555 1_555
H8_12 C10_13 1_555 1_555
H9_13 C10_13 1_555 1_555
C11_13 O4_13 1_555 1_555
H10_13 C11_13 1_555 1_555
C12_11 N3_13 1_555 1_555
H11_11 C12_11 1_555 1_555
H12_11 C12_11 1_555 1_555
H13_11 C12_11 1_555 1_555
C13_13 N3_13 1_555 1_555
H14_13 C13_13 1_555 1_555
H15_13 C13_13 1_555 1_555
H16_13 C13_13 1_555 1_555
Mn2_13 O2_11 1_555 1_555
O5_11 Mn2_13 1_555 1_555
O6_7 C20_13 1_555 1_555
O7_15 Mn2_13 1_555 1_555
N4_13 Mn2_13 1_555 1_555
N5_7 N4_13 1_555 1_555
N6_11 Mn2_13 1_555 1_555
C14_11 O5_11 1_555 1_555
C15_11 C14_11 1_555 1_555
H17_11 C15_11 1_555 1_555
C16_11 C15_11 1_555 1_555
H18_11 C16_11 1_555 1_555
C17_13 C16_11 1_555 1_555
H19_13 C17_13 1_555 1_555
C18_13 C17_13 1_555 1_555
H20_13 C18_13 1_555 1_555
C19_13 C14_11 1_555 1_555
C20_13 N4_13 1_555 1_555
C21_15 O7_15 1_555 1_555
C22_15 C21_15 1_555 1_555
H21_15 C22_15 1_555 1_555
H22_15 C22_15 1_555 1_555
C23_15 C22_15 1_555 1_555
H23_15 C23_15 1_555 1_555
H24_15 C23_15 1_555 1_555
H25_15 C23_15 1_555 1_555
C24_11 N6_11 1_555 1_555
H26_11 C24_11 1_555 1_555
C25_11 C24_11 1_555 1_555
H27_11 C25_11 1_555 1_555
C26_13 C25_11 1_555 1_555
C27_13 C26_13 1_555 1_555
H28_13 C27_13 1_555 1_555
C28_13 N6_11 1_555 1_555
H29_13 C28_13 1_555 1_555
C29_13 C26_13 1_555 1_555
H31_13 C29_13 1_555 1_555
Mn3_7 O8_13 1_555 1_555
O8_13 C30_13 1_555 1_555
O9_13 Mn1_13 1_555 1_555
O10_15 Mn3_7 1_555 1_555
N7_13 Mn3_7 1_555 1_555
N8_13 Mn1_13 1_555 1_555
C30_13 C31_13 1_555 1_555
C31_13 H32_13 1_555 1_555
C32_13 C31_13 1_555 1_555
H33_13 C32_13 1_555 1_555
C33_13 C32_13 1_555 1_555
H34_13 C33_13 1_555 1_555
C34_13 C33_13 1_555 1_555
H35_13 C34_13 1_555 1_555
C35_13 C30_13 1_555 1_555
C36_13 O9_13 1_555 1_555
C37_15 O10_15 1_555 1_555
C38_15 C37_15 1_555 1_555
H36_15 C38_15 1_555 1_555
H37_15 C38_15 1_555 1_555
C39_15 C38_15 1_555 1_555
H38_15 C39_15 1_555 1_555
H39_15 C39_15 1_555 1_555
H40_15 C39_15 1_555 1_555
O11_7 Mn3_7 1_555 1_555
N10_7 Mn3_7 1_555 1_555
Mn4_3 O6_7 1_555 1_555
N11_8 Mn3_7 1_555 1_555
N2_13 C8_13 1_555 1_555
N2_13 Mn2_13 1_555 1_555
C5_13 C6_11 1_555 1_555
C6_11 C7_11 1_555 1_555
N5_7 C21_15 1_555 1_555
N5_7 Mn4_3 1_555 1_555
C18_13 C19_13 1_555 1_555
C19_13 C20_13 1_555 1_555
C27_13 C28_13 1_555 1_555
N7_13 N8_13 1_555 1_555
N7_13 C36_13 1_555 1_555
N8_13 C37_15 1_555 1_555
C34_13 C35_13 1_555 1_555
C35_13 C36_13 1_555 1_555
O2_12 C7_12 1_555 1_555
C1_12 C2_14 1_555 1_555
C2_14 H1_14 1_555 1_555
C3_14 C2_14 1_555 1_555
H2_14 C3_14 1_555 1_555
C4_14 C3_14 1_555 1_555
H3_14 C4_14 1_555 1_555
C5_14 C4_14 1_555 1_555
H4_14 C5_14 1_555 1_555
C6_12 C1_12 1_555 1_555
H11_12 C12_12 1_555 1_555
H12_12 C12_12 1_555 1_555
H13_12 C12_12 1_555 1_555
C14_12 O5_12 1_555 1_555
C15_12 C14_12 1_555 1_555
H17_12 C15_12 1_555 1_555
C16_12 C15_12 1_555 1_555
H18_12 C16_12 1_555 1_555
C24_12 N6_12 1_555 1_555
H26_12 C24_12 1_555 1_555
C25_12 C24_12 1_555 1_555
H27_12 C25_12 1_555 1_555
C26_14 C25_12 1_555 1_555
C27_14 C26_14 1_555 1_555
H28_14 C27_14 1_555 1_555
C28_14 N6_12 1_555 1_555
H29_14 C28_14 1_555 1_555
C29_14 C26_14 1_555 1_555
H30_15 C29_14 1_555 1_555
H31_14 C29_14 1_555 1_555
N9_8 C40_15 1_555 1_555
C40_15 H41_15 1_555 1_555
C41_15 C40_15 1_555 1_555
H42_15 C41_15 1_555 1_555
C42_15 C41_15 1_555 1_555
C43_15 C42_15 1_555 1_555
H43_15 C43_15 1_555 1_555
C44_15 N9_8 1_555 1_555
H44_13 C44_15 1_555 1_555
C45_15 C29_14 1_555 1_555
H45_15 C45_15 1_555 1_555
H46_15 C45_15 1_555 1_555
Mn4_3 N9_8 1_555 1_555
C5_14 C6_12 1_555 1_555
C6_12 C7_12 1_555 1_555
C27_14 C28_14 1_555 1_555
C42_15 C45_15 1_555 1_555
C43_15 C44_15 1_555 1_555
Mn1_14 O1_14 1_555 1_555
O1_14 C1_13 1_555 1_555
O2_13 C7_13 1_555 1_555
O3_14 Mn1_14 1_555 1_555
O4_14 Mn1_14 1_555 1_555
N1_14 Mn1_14 1_555 1_555
N2_14 N1_14 1_555 1_555
N3_14 C11_14 1_555 1_555
C1_13 C2_15 1_555 1_555
C2_15 H1_15 1_555 1_555
C3_15 C2_15 1_555 1_555
H2_15 C3_15 1_555 1_555
C4_15 C3_15 1_555 1_555
H3_15 C4_15 1_555 1_555
C5_15 C4_15 1_555 1_555
H4_15 C5_15 1_555 1_555
C6_13 C1_13 1_555 1_555
C7_13 N1_14 1_555 1_555
C8_14 O3_14 1_555 1_555
C9_14 C8_14 1_555 1_555
H5_14 C9_14 1_555 1_555
H6_14 C9_14 1_555 1_555
C10_14 C9_14 1_555 1_555
H7_14 C10_14 1_555 1_555
H8_13 C10_14 1_555 1_555
H9_14 C10_14 1_555 1_555
C11_14 O4_14 1_555 1_555
H10_14 C11_14 1_555 1_555
C12_13 N3_14 1_555 1_555
H11_13 C12_13 1_555 1_555
H12_13 C12_13 1_555 1_555
H13_13 C12_13 1_555 1_555
C13_14 N3_14 1_555 1_555
H14_14 C13_14 1_555 1_555
H15_14 C13_14 1_555 1_555
H16_14 C13_14 1_555 1_555
Mn2_14 O2_13 1_555 1_555
O5_13 Mn2_14 1_555 1_555
O11_7 C20_14 1_555 1_555
O7_16 Mn2_14 1_555 1_555
N4_14 Mn2_14 1_555 1_555
N10_7 N4_14 1_555 1_555
N6_13 Mn2_14 1_555 1_555
C14_13 O5_13 1_555 1_555
C15_13 C14_13 1_555 1_555
H17_13 C15_13 1_555 1_555
C16_13 C15_13 1_555 1_555
H18_13 C16_13 1_555 1_555
C17_14 C16_13 1_555 1_555
H19_14 C17_14 1_555 1_555
C18_14 C17_14 1_555 1_555
H20_14 C18_14 1_555 1_555
C19_14 C14_13 1_555 1_555
C20_14 N4_14 1_555 1_555
C21_16 O7_16 1_555 1_555
C22_16 C21_16 1_555 1_555
H21_16 C22_16 1_555 1_555
H22_16 C22_16 1_555 1_555
C23_16 C22_16 1_555 1_555
H23_16 C23_16 1_555 1_555
H24_16 C23_16 1_555 1_555
H25_16 C23_16 1_555 1_555
C24_13 N6_13 1_555 1_555
H26_13 C24_13 1_555 1_555
C25_13 C24_13 1_555 1_555
H27_13 C25_13 1_555 1_555
C26_15 C25_13 1_555 1_555
C27_15 C26_15 1_555 1_555
H28_15 C27_15 1_555 1_555
C28_15 N6_13 1_555 1_555
H29_15 C28_15 1_555 1_555
C29_15 C26_15 1_555 1_555
H31_15 C29_15 1_555 1_555
Mn4_3 O8_14 1_555 1_555
O8_14 C30_14 1_555 1_555
O9_14 Mn1_14 1_555 1_555
O10_16 Mn4_3 1_555 1_555
N7_14 Mn4_3 1_555 1_555
N8_14 Mn1_14 1_555 1_555
C30_14 C31_14 1_555 1_555
C31_14 H32_14 1_555 1_555
C32_14 C31_14 1_555 1_555
H33_14 C32_14 1_555 1_555
C33_14 C32_14 1_555 1_555
H34_14 C33_14 1_555 1_555
C34_14 C33_14 1_555 1_555
H35_14 C34_14 1_555 1_555
C35_14 C30_14 1_555 1_555
C36_14 O9_14 1_555 1_555
C37_16 O10_16 1_555 1_555
C38_16 C37_16 1_555 1_555
H36_16 C38_16 1_555 1_555
H37_16 C38_16 1_555 1_555
C39_16 C38_16 1_555 1_555
H38_16 C39_16 1_555 1_555
H39_16 C39_16 1_555 1_555
H40_16 C39_16 1_555 1_555
N2_14 C8_14 1_555 1_555
N2_14 Mn2_14 1_555 1_555
C5_15 C6_13 1_555 1_555
C6_13 C7_13 1_555 1_555
N10_7 C21_16 1_555 1_555
C18_14 C19_14 1_555 1_555
C19_14 C20_14 1_555 1_555
C27_15 C28_15 1_555 1_555
N7_14 N8_14 1_555 1_555
N7_14 C36_14 1_555 1_555
N8_14 C37_16 1_555 1_555
C34_14 C35_14 1_555 1_555
C35_14 C36_14 1_555 1_555
O2_14 C7_14 1_555 1_555
C1_14 C2_16 1_555 1_555
C2_16 H1_16 1_555 1_555
C3_16 C2_16 1_555 1_555
H2_16 C3_16 1_555 1_555
C4_16 C3_16 1_555 1_555
H3_16 C4_16 1_555 1_555
C5_16 C4_16 1_555 1_555
H4_16 C5_16 1_555 1_555
C6_14 C1_14 1_555 1_555
H11_14 C12_14 1_555 1_555
H12_14 C12_14 1_555 1_555
H13_14 C12_14 1_555 1_555
C14_14 O5_14 1_555 1_555
C15_14 C14_14 1_555 1_555
H17_14 C15_14 1_555 1_555
C16_14 C15_14 1_555 1_555
H18_14 C16_14 1_555 1_555
C24_14 N6_14 1_555 1_555
H26_14 C24_14 1_555 1_555
C25_14 C24_14 1_555 1_555
H27_14 C25_14 1_555 1_555
C26_16 C25_14 1_555 1_555
C27_16 C26_16 1_555 1_555
H28_16 C27_16 1_555 1_555
C28_16 N6_14 1_555 1_555
H29_16 C28_16 1_555 1_555
C29_16 C26_16 1_555 1_555
H30_16 C29_16 1_555 1_555
H31_16 C29_16 1_555 1_555
N11_8 C40_16 1_555 1_555
C40_16 H41_16 1_555 1_555
C41_16 C40_16 1_555 1_555
H42_16 C41_16 1_555 1_555
C42_16 C41_16 1_555 1_555
C43_16 C42_16 1_555 1_555
H43_16 C43_16 1_555 1_555
C44_16 N11_8 1_555 1_555
H44_14 C44_16 1_555 1_555
C45_16 C29_16 1_555 1_555
H45_16 C45_16 1_555 1_555
H46_16 C45_16 1_555 1_555
C5_16 C6_14 1_555 1_555
C6_14 C7_14 1_555 1_555
C27_16 C28_16 1_555 1_555
C42_16 C45_16 1_555 1_555
C43_16 C44_16 1_555 1_555
H5_15 C9_15 1_555 1_555
H6_15 C9_15 1_555 1_555
Mn2_15 O2_15 1_555 1_555
O5_15 Mn2_15 1_555 1_555
O6_8 C20_15 1_555 1_555
N4_15 Mn2_15 1_555 1_555
N5_8 N4_15 1_555 1_555
N6_15 Mn2_15 1_555 1_555
C14_15 O5_15 1_555 1_555
C15_15 C14_15 1_555 1_555
H17_15 C15_15 1_555 1_555
C16_15 C15_15 1_555 1_555
H18_15 C16_15 1_555 1_555
C17_15 C16_15 1_555 1_555
H19_15 C17_15 1_555 1_555
C18_15 C17_15 1_555 1_555
H20_15 C18_15 1_555 1_555
C19_15 C14_15 1_555 1_555
C20_15 N4_15 1_555 1_555
C24_15 N6_15 1_555 1_555
H26_15 C24_15 1_555 1_555
C25_15 C24_15 1_555 1_555
H27_15 C25_15 1_555 1_555
Mn5_5 O6_8 1_555 1_555
N5_8 Mn5_5 1_555 1_555
C18_15 C19_15 1_555 1_555
C19_15 C20_15 1_555 1_555
Mn5_5 O8_15 1_555 1_555
Mn3_8 O8_16 1_555 1_555
O11_8 Mn3_8 1_555 1_555
N10_8 Mn3_8 1_555 1_555
H5_16 C9_16 1_555 1_555
H6_16 C9_16 1_555 1_555
Mn2_16 O2_16 1_555 1_555
O5_16 Mn2_16 1_555 1_555
O11_8 C20_16 1_555 1_555
N4_16 Mn2_16 1_555 1_555
N10_8 N4_16 1_555 1_555
N6_16 Mn2_16 1_555 1_555
C14_16 O5_16 1_555 1_555
C15_16 C14_16 1_555 1_555
H17_16 C15_16 1_555 1_555
C16_16 C15_16 1_555 1_555
H18_16 C16_16 1_555 1_555
C17_16 C16_16 1_555 1_555
H19_16 C17_16 1_555 1_555
C18_16 C17_16 1_555 1_555
H20_16 C18_16 1_555 1_555
C19_16 C14_16 1_555 1_555
C20_16 N4_16 1_555 1_555
C24_16 N6_16 1_555 1_555
H26_16 C24_16 1_555 1_555
C25_16 C24_16 1_555 1_555
H27_16 C25_16 1_555 1_555
C18_16 C19_16 1_555 1_555
C19_16 C20_16 1_555 1_555
C30_15 C31_15 1_555 1_555
C31_15 H32_15 1_555 1_555
C32_15 C31_15 1_555 1_555
H33_15 C32_15 1_555 1_555
Mn1_15 O1_15 1_555 1_555
O1_15 C1_15 1_555 1_555
O3_15 Mn1_15 1_555 1_555
O4_15 Mn1_15 1_555 1_555
N1_15 Mn1_15 1_555 1_555
N2_15 N1_15 1_555 1_555
N3_15 C11_15 1_555 1_555
C6_15 C1_15 1_555 1_555
C7_15 N1_15 1_555 1_555
C8_15 O3_15 1_555 1_555
H7_15 C10_15 1_555 1_555
C11_15 O4_15 1_555 1_555
H10_15 C11_15 1_555 1_555
C12_15 N3_15 1_555 1_555
H11_15 C12_15 1_555 1_555
H12_15 C12_15 1_555 1_555
H13_15 C12_15 1_555 1_555
C13_15 N3_15 1_555 1_555
H14_15 C13_15 1_555 1_555
H15_15 C13_15 1_555 1_555
H16_15 C13_15 1_555 1_555
O9_15 Mn1_15 1_555 1_555
N8_15 Mn1_15 1_555 1_555
H34_15 C33_15 1_555 1_555
C34_15 C33_15 1_555 1_555
H35_15 C34_15 1_555 1_555
C36_15 O9_15 1_555 1_555
N2_15 C8_15 1_555 1_555
C6_15 C7_15 1_555 1_555
N7_15 N8_15 1_555 1_555
N7_15 C36_15 1_555 1_555
C34_15 C35_15 1_555 1_555
C35_15 C36_15 1_555 1_555
Mn1_16 O1_16 1_555 1_555
O1_16 C1_16 1_555 1_555
O3_16 Mn1_16 1_555 1_555
O4_16 Mn1_16 1_555 1_555
N1_16 Mn1_16 1_555 1_555
N2_16 N1_16 1_555 1_555
N3_16 C11_16 1_555 1_555
C6_16 C1_16 1_555 1_555
C7_16 N1_16 1_555 1_555
C8_16 O3_16 1_555 1_555
H7_16 C10_16 1_555 1_555
C11_16 O4_16 1_555 1_555
H10_16 C11_16 1_555 1_555
C12_16 N3_16 1_555 1_555
H11_16 C12_16 1_555 1_555
H12_16 C12_16 1_555 1_555
H13_16 C12_16 1_555 1_555
C13_16 N3_16 1_555 1_555
H14_16 C13_16 1_555 1_555
H15_16 C13_16 1_555 1_555
H16_16 C13_16 1_555 1_555
O9_16 Mn1_16 1_555 1_555
N8_16 Mn1_16 1_555 1_555
H34_16 C33_16 1_555 1_555
C34_16 C33_16 1_555 1_555
H35_16 C34_16 1_555 1_555
C36_16 O9_16 1_555 1_555
N2_16 C8_16 1_555 1_555
C6_16 C7_16 1_555 1_555
N7_16 N8_16 1_555 1_555
N7_16 C36_16 1_555 1_555
C34_16 C35_16 1_555 1_555
C35_16 C36_16 1_555 1_555
C30_16 C31_16 1_555 1_555
C31_16 H32_16 1_555 1_555
C32_16 C31_16 1_555 1_555
H33_16 C32_16 1_555 1_555

#END
