
###############################################################################
#
# This file contains modified crystal structure data generated from the
# MOF subset of the Cambridge Structural Database (CSD) v543 
# hosted by the Cambridge Crystallographic Data Centre (CCDC).
#
# This work is licensed under the Creative Commons
# Attribution-NonCommercial-ShareAlike 4.0 International License.
# To view a copy of this license, visit
# http://creativecommons.org/licenses/by-nc-sa/4.0/
# or send a letter to
# Creative Commons, PO Box 1866, Mountain View, CA 94042, USA.
#
# CIF created using the CSD Python API on 29 September 2022
# The structure has been converted into the P1 space group
# The structure has a 3D framework
# The original CSD entry XALCUJ is in the tetragonal crystal system
# The framework has been calculated to contain at least 10.0% void space
# The void calculation uses a probe of radius 1.32A, grid spacing 0.4
#
###############################################################################

data_XALCUJ
_chemical_formula_moiety         '(C864 H1024 Mn48 N144 O156)n'
_symmetry_cell_setting           triclinic
_symmetry_space_group_name_H-M   'P 1'
_symmetry_Int_Tables_number      1
_space_group_name_Hall           'P 1'
loop_
_symmetry_equiv_pos_site_id
_symmetry_equiv_pos_as_xyz
1 x,y,z
_cell_length_a                   40.852(2)
_cell_length_b                   40.852(2)
_cell_length_c                   17.4393(12)
_cell_angle_alpha                90
_cell_angle_beta                 90
_cell_angle_gamma                90
_cell_volume                     29104.2
loop_
_atom_site_label
_atom_site_type_symbol
_atom_site_fract_x
_atom_site_fract_y
_atom_site_fract_z
N9 N 0.07417(10) 0.01176(9) 0.8271(2)
C52 C 0.12551(17) 0.00363(13) 0.8868(3)
H61 H 0.1458 0.0122 0.8998
C53 C 0.10394(13) 0.02242(12) 0.8452(3)
H62 H 0.1104 0.0432 0.8292
Mn5 Mn 0.039940(14) 0.038050(15) 0.74348(4)
C12 C 0.1658(5) 0.7666(3) 0.9632(8)
H11 H 0.1870 0.7688 0.9391
H12 H 0.1537 0.7864 0.9517
C13 C 0.1467(3) 0.7361(3) 0.9211(8)
H13 H 0.1327 0.7254 0.9574
H14 H 0.1625 0.7208 0.9018
H15 H 0.1338 0.7444 0.8793
O4 O 0.26362(7) 0.84465(7) 0.99132(19)
O5 O 0.27544(7) 0.74446(7) 0.93156(16)
O7 O 0.33597(8) 0.83877(7) 0.99808(19)
N6 N 0.39042(10) 0.84949(11) 0.9918(3)
C20 C 0.25067(10) 0.83107(11) 0.9294(3)
C21 C 0.23075(12) 0.85077(13) 0.8835(3)
H22 H 0.2260 0.8721 0.8987
C22 C 0.21805(13) 0.83884(16) 0.8160(4)
H23 H 0.2053 0.8526 0.7860
C23 C 0.22358(14) 0.80656(15) 0.7906(3)
H24 H 0.2152 0.7989 0.7443
C24 C 0.24214(12) 0.78684(12) 0.8380(3)
H25 H 0.2457 0.7652 0.8235
C25 C 0.25583(10) 0.79792(11) 0.9071(3)
C26 C 0.27345(10) 0.77442(10) 0.9545(3)
C34 C 0.38952(16) 0.86174(16) 0.9160(5)
H38 H 0.4022 0.8478 0.8831
H39 H 0.3985 0.8835 0.9150
H40 H 0.3673 0.8623 0.8983
H42 H 0.4372 0.8387 0.9992
C49 C 0.06587(14) 0.98199(13) 0.8498(3)
H59 H 0.0453 0.9741 0.8368
C50 C 0.08641(15) 0.96225(16) 0.8916(4)
H60 H 0.0793 0.9418 0.9080
C51 C 0.11774(17) 0.97277(15) 0.9094(4)
C54 C 0.1411(2) 0.95100(16) 0.9535(4)
H63 H 0.1635 0.9570 0.9414
H64 H 0.1378 0.9284 0.9386
H9 H 0.0023 0.4341 0.2875
C13_2 C 0.0139(3) 0.3967(3) 0.1711(8)
H13_2 H 0.0246 0.3827 0.2074
H14_2 H 0.0292 0.4125 0.1518
H15_2 H 0.0056 0.3838 0.1293
O5_2 O 0.00554(7) 0.52544(7) 0.18156(16)
C28 C 0.00236(10) 0.58442(11) 0.4266(3)
H26 H 0.0004 0.5746 0.4770
H27 H 0.0248 0.5817 0.4097
H28 H 0.0081 0.6302 0.4721
C30 C 0.00049(14) 0.63894(12) 0.3575(4)
H31 H 0.0227 0.6349 0.3405
H33 H 0.0097 0.6844 0.4045
C32 C 0.0016(2) 0.69398(17) 0.2902(5)
H35 H 0.0240 0.6909 0.2752
N10 N 0.00838(7) 0.44778(8) 0.6884(2)
Mn4 Mn 0.039940(14) 0.538050(15) 0.25652(4)
Mn1 Mn 0.113435(15) 0.029904(14) 0.52463(4)
O1 O 0.14891(6) 0.00798(7) 0.56533(17)
O3 O 0.07631(6) 0.04764(6) 0.47063(17)
N3 N 0.14592(8) 0.05769(8) 0.4400(2)
C8 C 0.06480(10) 0.02765(10) 0.4187(3)
C9 C 0.03614(11) 0.03877(11) 0.3720(3)
H5 H 0.0193 0.0472 0.4058
H6 H 0.0271 0.0202 0.3444
C10 C 0.04616(14) 0.06571(15) 0.3138(4)
H7 H 0.0582 0.0828 0.3402
H8 H 0.0603 0.0564 0.2749
C11 C 0.0161(3) 0.0802(3) 0.2762(6)
H10 H 0.0116 0.1011 0.3005
C12_2 C 0.0166(3) 0.0842(5) 0.2132(8)
H11_2 H 0.0188 0.0630 0.1891
H12_2 H 0.0364 0.0963 0.2017
C14 C 0.14146(12) 0.05477(12) 0.3646(3)
H16 H 0.1256 0.0402 0.3472
C15 C 0.15900(13) 0.07210(13) 0.3117(3)
H17 H 0.1546 0.0698 0.2596
C16 C 0.18384(15) 0.09344(14) 0.3367(3)
C17 C 0.18905(12) 0.09577(12) 0.4138(3)
H18 H 0.2056 0.1093 0.4324
C18 C 0.16985(11) 0.07815(10) 0.4642(3)
H19 H 0.1735 0.0804 0.5166
C19 C 0.20450(19) 0.1143(2) 0.2817(4)
H20 H 0.1995 0.1371 0.2915
H21 H 0.2274 0.1110 0.2946
C21_2 C 0.10077(13) 0.01925(12) 0.1335(3)
H22_2 H 0.1221 0.0240 0.1487
C22_2 C 0.08884(16) 0.03195(13) 0.0660(4)
H23_2 H 0.1026 0.0447 0.0360
C23_2 C 0.05656(15) 0.02642(14) 0.0406(3)
C24_2 C 0.03684(12) 0.00786(12) 0.0880(3)
H25_2 H 0.0152 0.0043 0.0735
O8 O 0.04840(7) 0.07963(7) 0.78259(17)
O9 O 0.11517(6) 0.06689(6) 0.59803(16)
N7 N 0.07394(8) 0.04376(8) 0.66669(19)
N8 N 0.07810(8) 0.01640(8) 0.6177(2)
N9_2 N 0.26176(9) 0.17583(10) 0.0771(2)
C36 C 0.07244(10) 0.10032(10) 0.7653(3)
C37 C 0.07477(11) 0.12844(12) 0.8116(3)
H44 H 0.0597 0.1317 0.8507
C38 C 0.09924(13) 0.15136(13) 0.7996(3)
H45 H 0.1005 0.1697 0.8310
C39 C 0.12191(12) 0.14710(11) 0.7411(3)
H46 H 0.1385 0.1623 0.7332
C40 C 0.11929(10) 0.11983(10) 0.6952(3)
H47 H 0.1344 0.1169 0.6559
C41 C 0.09464(9) 0.09618(10) 0.7054(2)
C42 C 0.09461(9) 0.06771(10) 0.6536(2)
C49_2 C 0.23199(13) 0.18413(14) 0.0998(3)
H59_2 H 0.2241 0.2047 0.0868
C50_2 C 0.21225(16) 0.16359(15) 0.1416(4)
H60_2 H 0.1918 0.1707 0.1580
C51_2 C 0.22277(15) 0.13226(17) 0.1594(4)
C52_2 C 0.25363(13) 0.12449(17) 0.1368(3)
H61_2 H 0.2622 0.1042 0.1498
C53_2 C 0.27242(12) 0.14606(13) 0.0952(3)
H62_2 H 0.2932 0.1396 0.0792
C54_2 C 0.20100(16) 0.1089(2) 0.2035(4)
H63_2 H 0.2070 0.0865 0.1914
H64_2 H 0.1784 0.1122 0.1886
O11 O 0.00554(7) 0.02544(7) 0.81844(16)
O8_2 O 0.32963(7) 0.20160(7) 0.03259(17)
C36_2 C 0.35032(10) 0.17756(10) 0.0153(3)
C37_2 C 0.37844(12) 0.17523(11) 0.0616(3)
H44_2 H 0.3817 0.1903 0.1007
C38_2 C 0.40136(13) 0.15076(13) 0.0496(3)
H45_2 H 0.4197 0.1495 0.0810
H55 H 0.1641 0.1352 0.0162
H57 H 0.1575 0.0812 0.0250
O11_2 O 0.27544(7) 0.24446(7) 0.06844(16)
Mn1_2 Mn 0.113435(15) 0.529904(14) 0.47537(4)
O1_2 O 0.14891(6) 0.50798(7) 0.43467(17)
O2 O 0.11826(6) 0.45185(7) 0.62840(17)
O3_2 O 0.07631(6) 0.54764(6) 0.52937(17)
N1 N 0.10679(7) 0.49527(8) 0.54989(19)
N2 N 0.07854(8) 0.49948(8) 0.5972(2)
N3_2 N 0.14592(8) 0.55769(8) 0.5600(2)
C1 C 0.16641(10) 0.48318(10) 0.4647(3)
C2 C 0.19610(11) 0.47565(11) 0.4296(3)
H1 H 0.2026 0.4875 0.3866
C3 C 0.21595(11) 0.45127(12) 0.4567(3)
H2 H 0.2357 0.4468 0.4323
C4 C 0.20668(11) 0.43321(11) 0.5204(3)
H3 H 0.2201 0.4167 0.5394
C5 C 0.17744(10) 0.44022(10) 0.5548(3)
H4 H 0.1710 0.4279 0.5970
C6 C 0.15703(9) 0.46496(9) 0.5295(2)
C7 C 0.12597(9) 0.47058(10) 0.5717(2)
C8_2 C 0.06480(10) 0.52765(10) 0.5813(3)
C9_2 C 0.03614(11) 0.53877(11) 0.6280(3)
H5_2 H 0.0193 0.5472 0.5942
H6_2 H 0.0271 0.5202 0.6556
C10_2 C 0.04616(14) 0.56571(15) 0.6862(4)
H7_2 H 0.0582 0.5828 0.6598
H8_2 H 0.0603 0.5564 0.7251
C11_2 C 0.0161(3) 0.5802(3) 0.7238(6)
H10_2 H 0.0116 0.6011 0.6995
C12_3 C 0.0166(3) 0.5842(5) 0.7868(8)
H11_3 H 0.0188 0.5630 0.8109
H12_3 H 0.0364 0.5963 0.7983
C14_2 C 0.14146(12) 0.55477(12) 0.6354(3)
H16_2 H 0.1256 0.5402 0.6528
C15_2 C 0.15900(13) 0.57210(13) 0.6883(3)
H17_2 H 0.1546 0.5698 0.7404
C16_2 C 0.18384(15) 0.59344(14) 0.6633(3)
C17_2 C 0.18905(12) 0.59577(12) 0.5862(3)
H18_2 H 0.2056 0.6093 0.5676
C18_2 C 0.16985(11) 0.57815(10) 0.5358(3)
H19_2 H 0.1735 0.5804 0.4834
C19_2 C 0.20450(19) 0.6143(2) 0.7183(4)
H20_2 H 0.1995 0.6371 0.7085
H21_2 H 0.2274 0.6110 0.7054
Mn2 Mn 0.076842(14) 0.459099(15) 0.68389(4)
O4_2 O 0.09465(7) 0.48638(7) 0.75868(19)
O6 O 0.05171(6) 0.43262(6) 0.61329(16)
O7_2 O 0.08877(7) 0.41403(8) 0.75192(19)
N4 N 0.03387(7) 0.46347(7) 0.7299(2)
N6_2 N 0.09949(11) 0.35958(10) 0.7582(3)
C20_2 C 0.08107(11) 0.49933(10) 0.8206(3)
C21_3 C 0.10077(13) 0.51925(12) 0.8665(3)
H22_3 H 0.1221 0.5240 0.8513
C22_3 C 0.08884(16) 0.53195(13) 0.9340(4)
H23_3 H 0.1026 0.5447 0.9640
C23_3 C 0.05656(15) 0.52642(14) 0.9594(3)
C24_3 C 0.03684(12) 0.50786(12) 0.9120(3)
H25_3 H 0.0152 0.5043 0.9265
C25_2 C 0.04792(11) 0.49417(10) 0.8429(3)
C26_2 C 0.02442(10) 0.47655(10) 0.7955(3)
C27 C 0.02025(10) 0.43312(10) 0.6286(3)
C29 C 0.00536(11) 0.37941(12) 0.5678(3)
H29 H 0.0281 0.3768 0.5529
H30 H 0.0142 0.3695 0.6814
C31 C 0.00478(17) 0.32404(15) 0.6347(5)
H32 H 0.0271 0.3199 0.6185
H34 H 0.0126 0.3145 0.7490
H36 H 0.0026 0.2831 0.7029
C33 C 0.08930(11) 0.38669(13) 0.7243(3)
H37 H 0.0818 0.3846 0.6742
C34_2 C 0.11174(16) 0.36048(16) 0.8340(5)
H38_2 H 0.0978 0.3478 0.8669
H39_2 H 0.1335 0.3515 0.8350
H40_2 H 0.1123 0.3827 0.8517
C35 C 0.10086(18) 0.32842(13) 0.7213(5)
H41 H 0.1232 0.3214 0.7176
H42_2 H 0.0887 0.3128 0.7508
H43 H 0.0916 0.3301 0.6709
O8_3 O 0.04840(7) 0.57963(7) 0.21741(17)
O9_2 O 0.11517(6) 0.56689(6) 0.40197(16)
O10 O 0.03676(6) 0.49640(6) 0.30902(16)
N7_2 N 0.07394(8) 0.54376(8) 0.33331(19)
N8_2 N 0.07810(8) 0.51640(8) 0.3823(2)
N9_3 N 0.26176(9) 0.67583(10) 0.9229(2)
C36_3 C 0.07244(10) 0.60032(10) 0.2347(3)
C37_3 C 0.07477(11) 0.62844(12) 0.1884(3)
H44_3 H 0.0597 0.6317 0.1493
C38_3 C 0.09924(13) 0.65136(13) 0.2004(3)
H45_3 H 0.1005 0.6697 0.1690
C39_2 C 0.12191(12) 0.64710(11) 0.2589(3)
H46_2 H 0.1385 0.6623 0.2668
C40_2 C 0.11929(10) 0.61983(10) 0.3048(3)
H47_2 H 0.1344 0.6169 0.3441
C41_2 C 0.09464(9) 0.59618(10) 0.2946(2)
C42_2 C 0.09461(9) 0.56771(10) 0.3464(2)
C43 C 0.05808(10) 0.49329(10) 0.3638(2)
C44 C 0.05941(11) 0.46060(10) 0.4035(3)
H48 H 0.0375 0.4541 0.4185
H49 H 0.0726 0.4624 0.4495
C45 C 0.07398(14) 0.43451(11) 0.3511(3)
H50 H 0.0712 0.4132 0.3748
H51 H 0.0621 0.4344 0.3030
C46 C 0.11011(14) 0.43987(14) 0.3346(4)
H52 H 0.1218 0.4403 0.3830
H53 H 0.1127 0.4612 0.3109
C47 C 0.12600(17) 0.41418(15) 0.2828(4)
H54 H 0.1231 0.3928 0.3058
H55_2 H 0.1148 0.4141 0.2338
C48 C 0.1619(2) 0.4198(2) 0.2692(6)
H56 H 0.1658 0.4426 0.2606
H57_2 H 0.1688 0.4075 0.2250
H58 H 0.1741 0.4127 0.3132
C49_3 C 0.23199(13) 0.68413(14) 0.9002(3)
H59_3 H 0.2241 0.7047 0.9132
C50_3 C 0.21225(16) 0.66359(15) 0.8584(4)
H60_3 H 0.1918 0.6707 0.8420
C51_3 C 0.22277(15) 0.63226(17) 0.8406(4)
C52_3 C 0.25363(13) 0.62449(17) 0.8632(3)
H61_3 H 0.2622 0.6042 0.8502
C53_3 C 0.27242(12) 0.64606(13) 0.9048(3)
H62_3 H 0.2932 0.6396 0.9208
C54_3 C 0.20100(16) 0.6089(2) 0.7965(4)
H63_3 H 0.2070 0.5865 0.8086
H64_3 H 0.1784 0.6122 0.8114
N11 N 0.07417(10) 0.51176(9) 0.1729(2)
O8_4 O 0.32963(7) 0.70160(7) 0.96741(17)
C36_4 C 0.35032(10) 0.67756(10) 0.9847(3)
C37_4 C 0.37844(12) 0.67523(11) 0.9384(3)
H44_4 H 0.3817 0.6903 0.8993
C38_4 C 0.40136(13) 0.65076(13) 0.9504(3)
H45_4 H 0.4197 0.6495 0.9190
H55_3 H 0.1641 0.6352 0.9838
H57_3 H 0.1575 0.5812 0.9750
C28_2 C 0.00236(10) 0.08442(11) 0.5734(3)
H26_2 H 0.0004 0.0746 0.5230
H27_2 H 0.0248 0.0817 0.5903
H28_2 H 0.0081 0.1302 0.5279
C30_2 C 0.00049(14) 0.13894(12) 0.6425(4)
H31_2 H 0.0227 0.1349 0.6595
H33_2 H 0.0097 0.1844 0.5955
C32_2 C 0.0016(2) 0.19398(17) 0.7098(5)
H35_2 H 0.0240 0.1909 0.7248
C12_4 C 0.1658(5) 0.2666(3) 0.0368(8)
H11_4 H 0.1870 0.2688 0.0609
H12_4 H 0.1537 0.2864 0.0483
C13_3 C 0.1467(3) 0.2361(3) 0.0789(8)
H13_3 H 0.1327 0.2254 0.0426
H14_3 H 0.1625 0.2208 0.0982
H15_3 H 0.1338 0.2444 0.1207
O4_3 O 0.26362(7) 0.34465(7) 0.00868(19)
O7_3 O 0.33597(8) 0.33877(7) 0.00192(19)
N6_3 N 0.39042(10) 0.34949(11) 0.0082(3)
C20_3 C 0.25067(10) 0.33107(11) 0.0706(3)
C21_4 C 0.23075(12) 0.35077(13) 0.1165(3)
H22_4 H 0.2260 0.3721 0.1013
C22_4 C 0.21805(13) 0.33884(16) 0.1840(4)
H23_4 H 0.2053 0.3526 0.2140
C23_4 C 0.22358(14) 0.30656(15) 0.2094(3)
H24_2 H 0.2152 0.2989 0.2557
C24_4 C 0.24214(12) 0.28684(12) 0.1620(3)
H25_4 H 0.2457 0.2652 0.1765
C25_3 C 0.25583(10) 0.29792(11) 0.0929(3)
C26_3 C 0.27345(10) 0.27442(10) 0.0455(3)
C34_3 C 0.38952(16) 0.36174(16) 0.0840(5)
H38_3 H 0.4022 0.3478 0.1169
H39_3 H 0.3985 0.3835 0.0850
H40_3 H 0.3673 0.3623 0.1017
H42_3 H 0.4372 0.3387 0.0008
C49_4 C 0.06587(14) 0.48199(13) 0.1502(3)
H59_4 H 0.0453 0.4741 0.1632
C50_4 C 0.08641(15) 0.46225(16) 0.1084(4)
H60_4 H 0.0793 0.4418 0.0920
C51_4 C 0.11774(17) 0.47277(15) 0.0906(4)
C52_4 C 0.12551(17) 0.50363(13) 0.1132(3)
H61_4 H 0.1458 0.5122 0.1002
C53_4 C 0.10394(13) 0.52242(12) 0.1548(3)
H62_4 H 0.1104 0.5432 0.1708
C54_4 C 0.1411(2) 0.45100(16) 0.0465(4)
H63_4 H 0.1635 0.4570 0.0586
H64_4 H 0.1378 0.4284 0.0614
Mn1_3 Mn 0.220096(14) 0.863435(15) 0.27463(4)
O1_3 O 0.24202(7) 0.89891(6) 0.31533(17)
O2_2 O 0.29815(7) 0.86826(6) 0.12160(17)
O3_3 O 0.20236(6) 0.82631(6) 0.22063(17)
N1_2 N 0.25473(8) 0.85679(7) 0.20011(19)
N2_2 N 0.25052(8) 0.82854(8) 0.1528(2)
N3_3 N 0.19231(8) 0.89592(8) 0.1900(2)
C1_2 C 0.26682(10) 0.91641(10) 0.2853(3)
C2_2 C 0.27435(11) 0.94610(11) 0.3204(3)
H1_2 H 0.2625 0.9526 0.3634
C3_2 C 0.29873(12) 0.96595(11) 0.2933(3)
H2_2 H 0.3032 0.9857 0.3177
C4_2 C 0.31679(11) 0.95668(11) 0.2296(3)
H3_2 H 0.3333 0.9701 0.2106
C5_2 C 0.30978(10) 0.92744(10) 0.1952(3)
H4_2 H 0.3221 0.9210 0.1530
C6_2 C 0.28504(9) 0.90703(9) 0.2205(2)
C7_2 C 0.27942(10) 0.87597(9) 0.1783(2)
C8_3 C 0.22235(10) 0.81480(10) 0.1687(3)
C9_3 C 0.21123(11) 0.78614(11) 0.1220(3)
H5_3 H 0.2028 0.7693 0.1558
H6_3 H 0.2298 0.7771 0.0944
C10_3 C 0.18429(15) 0.79616(14) 0.0638(4)
H7_3 H 0.1672 0.8082 0.0902
H8_3 H 0.1936 0.8103 0.0249
C11_3 C 0.1698(3) 0.7661(3) 0.0262(6)
H9_2 H 0.1841 0.7477 0.0375
H10_3 H 0.1489 0.7616 0.0505
C14_3 C 0.19523(12) 0.89146(12) 0.1146(3)
H16_3 H 0.2098 0.8756 0.0972
C15_3 C 0.17790(13) 0.90900(13) 0.0617(3)
H17_3 H 0.1802 0.9046 0.0096
C16_3 C 0.15656(14) 0.93384(15) 0.0867(3)
C17_3 C 0.15423(12) 0.93905(12) 0.1638(3)
H18_3 H 0.1407 0.9556 0.1824
C18_3 C 0.17185(10) 0.91985(11) 0.2142(3)
H19_3 H 0.1696 0.9235 0.2666
C19_3 C 0.1357(2) 0.95450(19) 0.0317(4)
H20_3 H 0.1129 0.9495 0.0415
H21_3 H 0.1390 0.9774 0.0446
Mn2_2 Mn 0.290901(15) 0.826842(14) 0.06611(4)
O6_2 O 0.31738(6) 0.80171(6) 0.13671(16)
N4_2 N 0.28653(7) 0.78387(7) 0.0201(2)
N5 N 0.30222(8) 0.75838(7) 0.0616(2)
C27_2 C 0.31688(10) 0.77025(10) 0.1214(3)
C28_3 C 0.33442(11) 0.74764(10) 0.1766(3)
H26_3 H 0.3246 0.7496 0.2270
H27_3 H 0.3317 0.7252 0.1597
C29_2 C 0.37059(12) 0.75536(11) 0.1822(3)
H28_3 H 0.3802 0.7419 0.2221
H29_2 H 0.3732 0.7781 0.1971
C30_3 C 0.38894(12) 0.74951(14) 0.1075(4)
H30_2 H 0.3805 0.7642 0.0686
H31_3 H 0.3849 0.7273 0.0905
C31_2 C 0.42596(15) 0.75478(17) 0.1153(5)
H32_2 H 0.4301 0.7771 0.1315
H33_3 H 0.4344 0.7403 0.1545
C32_3 C 0.44398(17) 0.7484(2) 0.0402(5)
H34_2 H 0.4355 0.7626 0.0010
H35_3 H 0.4409 0.7260 0.0252
H36_2 H 0.4669 0.7526 0.0471
C33_2 C 0.36331(13) 0.83930(11) 0.0257(3)
H37_2 H 0.3654 0.8318 0.0758
C35_2 C 0.42158(13) 0.85086(18) 0.0287(5)
H41_2 H 0.4286 0.8732 0.0324
H43_2 H 0.4199 0.8416 0.0791
Mn3 Mn 0.211950(15) 0.789940(14) 0.49348(4)
O8_5 O 0.17037(7) 0.79840(7) 0.53259(17)
O9_3 O 0.18311(6) 0.86517(6) 0.34803(16)
O10_2 O 0.25360(6) 0.78676(6) 0.44098(16)
N7_3 N 0.20624(8) 0.82394(8) 0.41669(19)
N8_3 N 0.23360(8) 0.82810(8) 0.3677(2)
C36_5 C 0.14968(10) 0.82244(10) 0.5153(3)
C37_5 C 0.12156(12) 0.82477(11) 0.5616(3)
H44_5 H 0.1183 0.8097 0.6007
C38_5 C 0.09864(13) 0.84924(13) 0.5496(3)
H45_5 H 0.0803 0.8505 0.5810
C39_3 C 0.10290(11) 0.87191(12) 0.4911(3)
H46_3 H 0.0877 0.8885 0.4832
C40_3 C 0.13017(10) 0.86929(10) 0.4452(3)
H47_3 H 0.1331 0.8844 0.4059
C41_3 C 0.15382(10) 0.84464(9) 0.4554(2)
C42_3 C 0.18229(10) 0.84461(9) 0.4036(2)
C43_2 C 0.25671(10) 0.80808(10) 0.3862(2)
C44_2 C 0.28940(10) 0.80941(11) 0.3465(3)
H48_2 H 0.2959 0.7875 0.3315
H49_2 H 0.2876 0.8226 0.3005
C45_2 C 0.31549(11) 0.82398(14) 0.3989(3)
H50_2 H 0.3368 0.8212 0.3752
H51_2 H 0.3156 0.8121 0.4470
C46_2 C 0.31013(14) 0.86011(14) 0.4154(4)
H52_2 H 0.3097 0.8718 0.3670
H53_2 H 0.2888 0.8627 0.4391
C47_2 C 0.33582(15) 0.87600(17) 0.4672(4)
H54_2 H 0.3572 0.8731 0.4442
H55_4 H 0.3359 0.8648 0.5162
C48_2 C 0.3302(2) 0.9119(2) 0.4808(6)
H56_2 H 0.3074 0.9158 0.4894
H57_4 H 0.3425 0.9188 0.5250
H58_2 H 0.3373 0.9241 0.4368
O11_3 O 0.22456(7) 0.75554(7) 0.56844(16)
N10_2 N 0.19778(8) 0.74162(7) 0.4384(2)
Mn4_2 Mn 0.288050(15) 0.710060(14) 0.00652(4)
N11_2 N 0.23824(9) 0.82417(10) 0.5771(2)
O3_4 O 0.42369(6) 0.95236(6) 0.97063(17)
N3_4 N 0.35408(8) 0.94231(8) 0.9400(2)
C8_4 C 0.43520(10) 0.97235(10) 0.9187(3)
C9_4 C 0.46386(11) 0.96123(11) 0.8720(3)
H5_4 H 0.4807 0.9528 0.9058
H6_4 H 0.4729 0.9798 0.8444
C10_4 C 0.45384(14) 0.93429(15) 0.8138(4)
H7_4 H 0.4418 0.9172 0.8402
H8_4 H 0.4397 0.9436 0.7749
C11_4 C 0.4839(3) 0.9198(3) 0.7762(6)
H9_3 H 0.5023 0.9341 0.7875
H10_4 H 0.4884 0.8989 0.8005
C12_5 C 0.4834(3) 0.9158(5) 0.7132(8)
H11_5 H 0.4812 0.9370 0.6891
H12_5 H 0.4636 0.9037 0.7017
C13_4 C 0.5139(3) 0.8967(3) 0.6711(8)
H13_4 H 0.5246 0.8827 0.7074
H14_4 H 0.5292 0.9125 0.6518
H15_4 H 0.5056 0.8838 0.6293
C14_4 C 0.35854(12) 0.94523(12) 0.8646(3)
H16_4 H 0.3744 0.9598 0.8472
C15_4 C 0.34100(13) 0.92790(13) 0.8117(3)
H17_4 H 0.3454 0.9302 0.7596
C16_4 C 0.31616(15) 0.90656(14) 0.8367(3)
C17_4 C 0.31095(12) 0.90423(12) 0.9138(3)
H18_4 H 0.2944 0.8907 0.9324
C18_4 C 0.33015(11) 0.92185(10) 0.9642(3)
C19_4 C 0.29550(19) 0.8857(2) 0.7817(4)
H20_4 H 0.3005 0.8629 0.7915
H21_4 H 0.2726 0.8890 0.7946
C21_5 C 0.39923(13) 0.98075(12) 0.6335(3)
H22_5 H 0.3779 0.9760 0.6487
C22_5 C 0.41116(16) 0.96805(13) 0.5660(4)
H23_5 H 0.3974 0.9553 0.5360
C23_5 C 0.44344(15) 0.97358(14) 0.5406(3)
H24_3 H 0.4511 0.9652 0.4943
C24_5 C 0.46316(12) 0.99214(12) 0.5880(3)
H25_5 H 0.4848 0.9957 0.5735
C49_5 C 0.26801(13) 0.81587(14) 0.5998(3)
H59_5 H 0.2759 0.7953 0.5868
C50_5 C 0.28775(16) 0.83641(15) 0.6416(4)
H60_5 H 0.3082 0.8293 0.6580
C51_5 C 0.27723(15) 0.86774(17) 0.6594(4)
C52_5 C 0.24637(13) 0.87551(17) 0.6368(3)
H61_5 H 0.2378 0.8958 0.6498
C53_5 C 0.22758(12) 0.85394(13) 0.5952(3)
H62_5 H 0.2068 0.8604 0.5792
C54_5 C 0.29900(16) 0.8911(2) 0.7035(4)
H63_5 H 0.2930 0.9135 0.6914
H64_5 H 0.3216 0.8878 0.6886
O2_3 O 0.61826(6) 0.45185(7) 0.87160(17)
O3_5 O 0.57631(6) 0.54764(6) 0.97063(17)
N1_3 N 0.60679(7) 0.49527(8) 0.95011(19)
N2_3 N 0.57854(8) 0.49948(8) 0.9028(2)
N3_5 N 0.64592(8) 0.55769(8) 0.9400(2)
C4_3 C 0.70668(11) 0.43321(11) 0.9796(3)
H3_3 H 0.7201 0.4167 0.9606
C5_3 C 0.67744(10) 0.44022(10) 0.9452(3)
H4_3 H 0.6710 0.4279 0.9030
C6_3 C 0.65703(9) 0.46496(9) 0.9705(2)
C7_3 C 0.62597(9) 0.47058(10) 0.9283(2)
C8_5 C 0.56480(10) 0.52765(10) 0.9187(3)
C9_5 C 0.53614(11) 0.53877(11) 0.8720(3)
H5_5 H 0.5193 0.5472 0.9058
H6_5 H 0.5271 0.5202 0.8444
C10_5 C 0.54616(14) 0.56571(15) 0.8138(4)
H7_5 H 0.5582 0.5828 0.8402
H8_5 H 0.5603 0.5564 0.7749
C11_5 C 0.5161(3) 0.5802(3) 0.7762(6)
H9_4 H 0.4977 0.5659 0.7875
H10_5 H 0.5116 0.6011 0.8005
C12_6 C 0.5166(3) 0.5842(5) 0.7132(8)
H11_6 H 0.5188 0.5630 0.6891
H12_6 H 0.5364 0.5963 0.7017
C13_5 C 0.4861(3) 0.6033(3) 0.6711(8)
H13_5 H 0.4754 0.6173 0.7074
H14_5 H 0.4708 0.5875 0.6518
H15_5 H 0.4944 0.6162 0.6293
C14_5 C 0.64146(12) 0.55477(12) 0.8646(3)
H16_5 H 0.6256 0.5402 0.8472
C15_5 C 0.65900(13) 0.57210(13) 0.8117(3)
H17_5 H 0.6546 0.5698 0.7596
C16_5 C 0.68384(15) 0.59344(14) 0.8367(3)
C17_5 C 0.68905(12) 0.59577(12) 0.9138(3)
H18_5 H 0.7056 0.6093 0.9324
C18_5 C 0.66985(11) 0.57815(10) 0.9642(3)
C19_5 C 0.70450(19) 0.6143(2) 0.7817(4)
H20_5 H 0.6995 0.6371 0.7915
H21_5 H 0.7274 0.6110 0.7946
Mn2_3 Mn 0.576842(14) 0.459099(15) 0.81611(4)
O4_4 O 0.59465(7) 0.48638(7) 0.74132(19)
O5_3 O 0.49446(7) 0.47456(7) 0.68156(16)
O6_3 O 0.55171(6) 0.43262(6) 0.88671(16)
O7_4 O 0.58877(7) 0.41403(8) 0.74808(19)
N4_3 N 0.53387(7) 0.46347(7) 0.7701(2)
N5_2 N 0.50838(7) 0.44778(8) 0.8116(2)
N6_4 N 0.59949(11) 0.35958(10) 0.7418(3)
C20_4 C 0.58107(11) 0.49933(10) 0.6794(3)
C21_6 C 0.60077(13) 0.51925(12) 0.6335(3)
H22_6 H 0.6221 0.5240 0.6487
C22_6 C 0.58884(16) 0.53195(13) 0.5660(4)
H23_6 H 0.6026 0.5447 0.5360
C23_6 C 0.55656(15) 0.52642(14) 0.5406(3)
H24_4 H 0.5489 0.5348 0.4943
C24_6 C 0.53684(12) 0.50786(12) 0.5880(3)
H25_6 H 0.5152 0.5043 0.5735
C25_4 C 0.54792(11) 0.49417(10) 0.6571(3)
C26_4 C 0.52442(10) 0.47655(10) 0.7045(3)
C27_3 C 0.52025(10) 0.43312(10) 0.8714(3)
C28_4 C 0.49764(10) 0.41558(11) 0.9266(3)
H26_4 H 0.4996 0.4254 0.9770
H27_4 H 0.4752 0.4183 0.9097
C29_3 C 0.50536(11) 0.37941(12) 0.9322(3)
H28_4 H 0.4919 0.3698 0.9721
H29_3 H 0.5281 0.3768 0.9471
C30_4 C 0.49951(14) 0.36106(12) 0.8575(4)
H30_3 H 0.5142 0.3695 0.8186
H31_4 H 0.4773 0.3651 0.8405
C31_3 C 0.50478(17) 0.32404(15) 0.8653(5)
H32_3 H 0.5271 0.3199 0.8815
H33_4 H 0.4903 0.3156 0.9045
C32_4 C 0.4984(2) 0.30602(17) 0.7902(5)
H34_3 H 0.5126 0.3145 0.7510
H35_4 H 0.4760 0.3091 0.7752
H36_3 H 0.5026 0.2831 0.7971
C33_3 C 0.58930(11) 0.38669(13) 0.7757(3)
H37_3 H 0.5818 0.3846 0.8258
C34_4 C 0.61174(16) 0.36048(16) 0.6660(5)
H38_4 H 0.5978 0.3478 0.6331
H39_4 H 0.6335 0.3515 0.6650
H40_4 H 0.6123 0.3827 0.6483
C35_3 C 0.60086(18) 0.32842(13) 0.7787(5)
H41_3 H 0.6232 0.3214 0.7824
H42_4 H 0.5887 0.3128 0.7492
H43_3 H 0.5916 0.3301 0.8291
N9_4 N 0.76176(9) 0.67583(10) 0.5771(2)
C49_6 C 0.73199(13) 0.68413(14) 0.5998(3)
H59_6 H 0.7241 0.7047 0.5868
C50_6 C 0.71225(16) 0.66359(15) 0.6416(4)
H60_6 H 0.6918 0.6707 0.6580
C51_6 C 0.72277(15) 0.63226(17) 0.6594(4)
C52_6 C 0.75363(13) 0.62449(17) 0.6368(3)
H61_6 H 0.7622 0.6042 0.6498
C53_6 C 0.77242(12) 0.64606(13) 0.5952(3)
H62_6 H 0.7932 0.6396 0.5792
C54_6 C 0.70100(16) 0.6089(2) 0.7035(4)
H63_6 H 0.7070 0.5865 0.6914
H64_6 H 0.6784 0.6122 0.6886
Mn4_3 Mn 0.460060(14) 0.461950(15) 0.75652(4)
Mn5_2 Mn 0.788050(15) 0.710060(14) 0.49348(4)
Mn1_4 Mn 0.779904(14) 0.636565(15) 0.27463(4)
O1_4 O 0.75798(7) 0.60109(6) 0.31533(17)
O2_4 O 0.70185(7) 0.63174(6) 0.12160(17)
O3_6 O 0.79764(6) 0.67369(6) 0.22063(17)
N1_4 N 0.74527(8) 0.64321(7) 0.20011(19)
N2_4 N 0.74948(8) 0.67146(8) 0.1528(2)
N3_6 N 0.80769(8) 0.60408(8) 0.1900(2)
C1_3 C 0.73318(10) 0.58359(10) 0.2853(3)
C2_3 C 0.72565(11) 0.55390(11) 0.3204(3)
H1_3 H 0.7375 0.5474 0.3634
C3_3 C 0.70127(12) 0.53405(11) 0.2933(3)
H2_3 H 0.6968 0.5143 0.3177
C4_4 C 0.68321(11) 0.54332(11) 0.2296(3)
H3_4 H 0.6667 0.5299 0.2106
C5_4 C 0.69022(10) 0.57256(10) 0.1952(3)
H4_4 H 0.6779 0.5790 0.1530
C6_4 C 0.71496(9) 0.59297(9) 0.2205(2)
C7_4 C 0.72058(10) 0.62403(9) 0.1783(2)
C8_6 C 0.77765(10) 0.68520(10) 0.1687(3)
C9_6 C 0.78877(11) 0.71386(11) 0.1220(3)
H5_6 H 0.7972 0.7307 0.1558
H6_6 H 0.7702 0.7229 0.0944
C10_6 C 0.81571(15) 0.70384(14) 0.0638(4)
H7_6 H 0.8328 0.6918 0.0902
H8_6 H 0.8064 0.6897 0.0249
C11_6 C 0.8302(3) 0.7339(3) 0.0262(6)
H9_5 H 0.8159 0.7523 0.0375
H10_6 H 0.8511 0.7384 0.0505
C14_6 C 0.80477(12) 0.60854(12) 0.1146(3)
H16_6 H 0.7902 0.6244 0.0972
C15_6 C 0.82210(13) 0.59100(13) 0.0617(3)
H17_6 H 0.8198 0.5954 0.0096
C16_6 C 0.84344(14) 0.56616(15) 0.0867(3)
C17_6 C 0.84577(12) 0.56095(12) 0.1638(3)
H18_6 H 0.8593 0.5444 0.1824
C18_6 C 0.82815(10) 0.58015(11) 0.2142(3)
H19_4 H 0.8304 0.5765 0.2666
C19_6 C 0.8643(2) 0.54550(19) 0.0317(4)
H20_6 H 0.8871 0.5505 0.0415
H21_6 H 0.8610 0.5226 0.0446
Mn2_4 Mn 0.709099(15) 0.673158(14) 0.06611(4)
O6_4 O 0.68262(6) 0.69829(6) 0.13671(16)
N4_4 N 0.71347(7) 0.71613(7) 0.0201(2)
N5_3 N 0.69778(8) 0.74162(7) 0.0616(2)
C27_4 C 0.68312(10) 0.72975(10) 0.1214(3)
C28_5 C 0.66558(11) 0.75236(10) 0.1766(3)
H26_5 H 0.6754 0.7504 0.2270
H27_5 H 0.6683 0.7748 0.1597
C29_4 C 0.62941(12) 0.74464(11) 0.1822(3)
H28_5 H 0.6198 0.7581 0.2221
H29_4 H 0.6268 0.7219 0.1971
C30_5 C 0.61106(12) 0.75049(14) 0.1075(4)
H30_4 H 0.6195 0.7358 0.0686
H31_5 H 0.6151 0.7727 0.0905
C31_4 C 0.57404(15) 0.74522(17) 0.1153(5)
H32_4 H 0.5699 0.7229 0.1315
H33_5 H 0.5656 0.7597 0.1545
C32_5 C 0.55602(17) 0.7516(2) 0.0402(5)
H34_4 H 0.5645 0.7374 0.0010
H35_5 H 0.5591 0.7740 0.0252
H36_4 H 0.5331 0.7474 0.0471
C33_4 C 0.63669(13) 0.66070(11) 0.0257(3)
H37_4 H 0.6346 0.6682 0.0758
C35_4 C 0.57842(13) 0.64914(18) 0.0287(5)
H41_4 H 0.5714 0.6268 0.0324
H43_4 H 0.5801 0.6584 0.0791
O8_6 O 0.82963(7) 0.70160(7) 0.53259(17)
O9_4 O 0.81689(6) 0.63483(6) 0.34803(16)
O10_3 O 0.74640(6) 0.71324(6) 0.44098(16)
N7_4 N 0.79376(8) 0.67606(8) 0.41669(19)
N8_4 N 0.76640(8) 0.67190(8) 0.3677(2)
C36_6 C 0.85032(10) 0.67756(10) 0.5153(3)
C37_6 C 0.87844(12) 0.67523(11) 0.5616(3)
H44_6 H 0.8817 0.6903 0.6007
C38_6 C 0.90136(13) 0.65076(13) 0.5496(3)
H45_6 H 0.9197 0.6495 0.5810
C39_4 C 0.89710(11) 0.62809(12) 0.4911(3)
H46_4 H 0.9123 0.6115 0.4832
C40_4 C 0.86983(10) 0.63071(10) 0.4452(3)
H47_4 H 0.8669 0.6156 0.4059
C41_4 C 0.84618(10) 0.65536(9) 0.4554(2)
C42_4 C 0.81771(10) 0.65539(9) 0.4036(2)
C43_3 C 0.74329(10) 0.69192(10) 0.3862(2)
C44_3 C 0.71060(10) 0.69059(11) 0.3465(3)
H48_3 H 0.7041 0.7125 0.3315
H49_3 H 0.7124 0.6774 0.3005
C45_3 C 0.68451(11) 0.67602(14) 0.3989(3)
H50_3 H 0.6632 0.6788 0.3752
H51_3 H 0.6844 0.6879 0.4470
C46_3 C 0.68987(14) 0.63989(14) 0.4154(4)
H52_3 H 0.6903 0.6282 0.3670
H53_3 H 0.7112 0.6373 0.4391
C47_3 C 0.66418(15) 0.62400(17) 0.4672(4)
H54_3 H 0.6428 0.6269 0.4442
H55_5 H 0.6641 0.6352 0.5162
C48_3 C 0.6698(2) 0.5881(2) 0.4808(6)
H56_3 H 0.6926 0.5842 0.4894
H57_5 H 0.6575 0.5812 0.5250
H58_3 H 0.6627 0.5759 0.4368
O11_4 O 0.77544(7) 0.74446(7) 0.56844(16)
N10_3 N 0.80222(8) 0.75838(7) 0.4384(2)
Mn4_4 Mn 0.711950(15) 0.789940(14) 0.00652(4)
H24_5 H 0.0489 0.5348 0.0057
Mn1_5 Mn 0.279904(14) 0.636565(15) 0.22537(4)
O1_5 O 0.25798(7) 0.60109(6) 0.18467(17)
O2_5 O 0.20185(7) 0.63174(6) 0.37840(17)
O3_7 O 0.29764(6) 0.67369(6) 0.27937(17)
N1_5 N 0.24527(8) 0.64321(7) 0.29989(19)
N2_5 N 0.24948(8) 0.67146(8) 0.3472(2)
N3_7 N 0.30769(8) 0.60408(8) 0.3100(2)
C1_4 C 0.23318(10) 0.58359(10) 0.2147(3)
C2_4 C 0.22565(11) 0.55390(11) 0.1796(3)
H1_4 H 0.2375 0.5474 0.1366
C3_4 C 0.20127(12) 0.53405(11) 0.2067(3)
H2_4 H 0.1968 0.5143 0.1823
C4_5 C 0.18321(11) 0.54332(11) 0.2704(3)
H3_5 H 0.1667 0.5299 0.2894
C5_5 C 0.19022(10) 0.57256(10) 0.3048(3)
H4_5 H 0.1779 0.5790 0.3470
C6_5 C 0.21496(9) 0.59297(9) 0.2795(2)
C7_5 C 0.22058(10) 0.62403(9) 0.3217(2)
C8_7 C 0.27765(10) 0.68520(10) 0.3313(3)
C9_7 C 0.28877(11) 0.71386(11) 0.3780(3)
H5_7 H 0.2972 0.7307 0.3442
H6_7 H 0.2702 0.7229 0.4056
C10_7 C 0.31571(15) 0.70384(14) 0.4362(4)
H7_7 H 0.3328 0.6918 0.4098
H8_7 H 0.3064 0.6897 0.4751
C11_7 C 0.3302(3) 0.7339(3) 0.4738(6)
H9_6 H 0.3159 0.7523 0.4625
H10_7 H 0.3511 0.7384 0.4495
C12_7 C 0.3342(5) 0.7334(3) 0.5368(8)
H11_7 H 0.3130 0.7312 0.5609
H12_7 H 0.3463 0.7136 0.5483
C13_6 C 0.3533(3) 0.7639(3) 0.5789(8)
H13_6 H 0.3673 0.7746 0.5426
H14_6 H 0.3375 0.7792 0.5982
H15_6 H 0.3662 0.7556 0.6207
C14_7 C 0.30477(12) 0.60854(12) 0.3854(3)
H16_7 H 0.2902 0.6244 0.4028
C15_7 C 0.32210(13) 0.59100(13) 0.4383(3)
H17_7 H 0.3198 0.5954 0.4904
C16_7 C 0.34344(14) 0.56616(15) 0.4133(3)
C17_7 C 0.34577(12) 0.56095(12) 0.3362(3)
H18_7 H 0.3593 0.5444 0.3176
C18_7 C 0.32815(10) 0.58015(11) 0.2858(3)
H19_5 H 0.3304 0.5765 0.2334
C19_7 C 0.3643(2) 0.54550(19) 0.4683(4)
H20_7 H 0.3871 0.5505 0.4585
H21_7 H 0.3610 0.5226 0.4554
Mn2_5 Mn 0.209099(15) 0.673158(14) 0.43389(4)
O4_5 O 0.23638(7) 0.65535(7) 0.50868(19)
O6_5 O 0.18262(6) 0.69829(6) 0.36329(16)
O7_5 O 0.16403(8) 0.66123(7) 0.50192(19)
N4_5 N 0.21347(7) 0.71613(7) 0.4799(2)
N6_5 N 0.10958(10) 0.65051(11) 0.5082(3)
C20_5 C 0.24933(10) 0.66893(11) 0.5706(3)
C21_7 C 0.26925(12) 0.64923(13) 0.6165(3)
H22_7 H 0.2740 0.6279 0.6013
C22_7 C 0.28195(13) 0.66116(16) 0.6840(4)
H23_7 H 0.2947 0.6474 0.7140
C23_7 C 0.27642(14) 0.69344(15) 0.7094(3)
H24_6 H 0.2848 0.7011 0.7557
C24_7 C 0.25786(12) 0.71316(12) 0.6620(3)
H25_7 H 0.2543 0.7348 0.6765
C25_5 C 0.24417(10) 0.70208(11) 0.5929(3)
C26_5 C 0.22655(10) 0.72558(10) 0.5455(3)
C27_5 C 0.18312(10) 0.72975(10) 0.3786(3)
C28_6 C 0.16558(11) 0.75236(10) 0.3234(3)
H26_6 H 0.1754 0.7504 0.2730
H27_6 H 0.1683 0.7748 0.3403
C29_5 C 0.12941(12) 0.74464(11) 0.3178(3)
H28_6 H 0.1198 0.7581 0.2779
H29_5 H 0.1268 0.7219 0.3029
C30_6 C 0.11106(12) 0.75049(14) 0.3925(4)
H30_5 H 0.1195 0.7358 0.4314
H31_6 H 0.1151 0.7727 0.4095
C31_5 C 0.07404(15) 0.74522(17) 0.3847(5)
H32_5 H 0.0699 0.7229 0.3685
H33_6 H 0.0656 0.7597 0.3455
C32_6 C 0.05602(17) 0.7516(2) 0.4598(5)
H34_5 H 0.0645 0.7374 0.4990
H35_6 H 0.0591 0.7740 0.4748
H36_5 H 0.0331 0.7474 0.4529
C33_5 C 0.13669(13) 0.66070(11) 0.4743(3)
H37_5 H 0.1346 0.6682 0.4242
C34_5 C 0.11048(16) 0.63826(16) 0.5840(5)
H38_5 H 0.0978 0.6522 0.6169
H39_5 H 0.1015 0.6165 0.5850
H40_5 H 0.1327 0.6377 0.6017
C35_5 C 0.07842(13) 0.64914(18) 0.4713(5)
H41_5 H 0.0714 0.6268 0.4676
H42_5 H 0.0628 0.6613 0.5008
H43_5 H 0.0801 0.6584 0.4209
O9_5 O 0.31689(6) 0.63483(6) 0.15197(16)
O10_4 O 0.24640(6) 0.71324(6) 0.05902(16)
N7_5 N 0.29376(8) 0.67606(8) 0.08331(19)
N8_5 N 0.26640(8) 0.67190(8) 0.1323(2)
N9_5 N 0.42583(10) 0.48824(9) 0.6729(2)
C39_5 C 0.39710(11) 0.62809(12) 0.0089(3)
H46_5 H 0.4123 0.6115 0.0168
C40_5 C 0.36983(10) 0.63071(10) 0.0548(3)
H47_5 H 0.3669 0.6156 0.0941
C41_5 C 0.34618(10) 0.65536(9) 0.0446(2)
C42_5 C 0.31771(10) 0.65539(9) 0.0964(2)
C43_4 C 0.24329(10) 0.69192(10) 0.1138(2)
C44_4 C 0.21060(10) 0.69059(11) 0.1535(3)
H48_4 H 0.2041 0.7125 0.1685
H49_4 H 0.2124 0.6774 0.1995
C45_4 C 0.18451(11) 0.67602(14) 0.1011(3)
H50_4 H 0.1632 0.6788 0.1248
H51_4 H 0.1844 0.6879 0.0530
C46_4 C 0.18987(14) 0.63989(14) 0.0846(4)
H52_4 H 0.1903 0.6282 0.1330
H53_4 H 0.2112 0.6373 0.0609
C47_4 C 0.16418(15) 0.62400(17) 0.0328(4)
H54_4 H 0.1428 0.6269 0.0558
C48_4 C 0.1698(2) 0.5881(2) 0.0192(6)
H56_4 H 0.1926 0.5842 0.0106
H58_4 H 0.1627 0.5759 0.0632
C49_7 C 0.43413(14) 0.51801(13) 0.6502(3)
H59_7 H 0.4547 0.5259 0.6632
C50_7 C 0.41359(15) 0.53775(16) 0.6084(4)
H60_7 H 0.4207 0.5582 0.5920
C51_7 C 0.38226(17) 0.52723(15) 0.5906(4)
C52_7 C 0.37449(17) 0.49637(13) 0.6132(3)
H61_7 H 0.3542 0.4878 0.6002
C53_7 C 0.39606(13) 0.47758(12) 0.6548(3)
H62_7 H 0.3896 0.4568 0.6708
C54_7 C 0.3589(2) 0.54900(16) 0.5465(4)
H63_7 H 0.3365 0.5430 0.5586
H64_7 H 0.3622 0.5716 0.5614
H24_7 H 0.9511 0.9652 0.0057
Mn1_6 Mn 0.720096(14) 0.863435(15) 0.22537(4)
O1_6 O 0.74202(7) 0.89891(6) 0.18467(17)
O2_6 O 0.79815(7) 0.86826(6) 0.37840(17)
O3_8 O 0.70236(6) 0.82631(6) 0.27937(17)
N1_6 N 0.75473(8) 0.85679(7) 0.29989(19)
N2_6 N 0.75052(8) 0.82854(8) 0.3472(2)
N3_8 N 0.69231(8) 0.89592(8) 0.3100(2)
C1_5 C 0.76682(10) 0.91641(10) 0.2147(3)
C2_5 C 0.77435(11) 0.94610(11) 0.1796(3)
H1_5 H 0.7625 0.9526 0.1366
C3_5 C 0.79873(12) 0.96595(11) 0.2067(3)
H2_5 H 0.8032 0.9857 0.1823
C4_6 C 0.81679(11) 0.95668(11) 0.2704(3)
H3_6 H 0.8333 0.9701 0.2894
C5_6 C 0.80978(10) 0.92744(10) 0.3048(3)
H4_6 H 0.8221 0.9210 0.3470
C6_6 C 0.78504(9) 0.90703(9) 0.2795(2)
C7_6 C 0.77942(10) 0.87597(9) 0.3217(2)
C8_8 C 0.72235(10) 0.81480(10) 0.3313(3)
C9_8 C 0.71123(11) 0.78614(11) 0.3780(3)
H5_8 H 0.7028 0.7693 0.3442
H6_8 H 0.7298 0.7771 0.4056
C10_8 C 0.68429(15) 0.79616(14) 0.4362(4)
H7_8 H 0.6672 0.8082 0.4098
H8_8 H 0.6936 0.8103 0.4751
C11_8 C 0.6698(3) 0.7661(3) 0.4738(6)
H9_7 H 0.6841 0.7477 0.4625
H10_8 H 0.6489 0.7616 0.4495
C12_8 C 0.6658(5) 0.7666(3) 0.5368(8)
H11_8 H 0.6870 0.7688 0.5609
H12_8 H 0.6537 0.7864 0.5483
C13_7 C 0.6467(3) 0.7361(3) 0.5789(8)
H13_7 H 0.6327 0.7254 0.5426
H14_7 H 0.6625 0.7208 0.5982
H15_7 H 0.6338 0.7444 0.6207
C14_8 C 0.69523(12) 0.89146(12) 0.3854(3)
H16_8 H 0.7098 0.8756 0.4028
C15_8 C 0.67790(13) 0.90900(13) 0.4383(3)
H17_8 H 0.6802 0.9046 0.4904
C16_8 C 0.65656(14) 0.93384(15) 0.4133(3)
C17_8 C 0.65423(12) 0.93905(12) 0.3362(3)
H18_8 H 0.6407 0.9556 0.3176
C18_8 C 0.67185(10) 0.91985(11) 0.2858(3)
H19_6 H 0.6696 0.9235 0.2334
C19_8 C 0.6357(2) 0.95450(19) 0.4683(4)
H20_8 H 0.6129 0.9495 0.4585
H21_8 H 0.6390 0.9774 0.4554
Mn2_6 Mn 0.790901(15) 0.826842(14) 0.43389(4)
O4_6 O 0.76362(7) 0.84465(7) 0.50868(19)
O6_6 O 0.81738(6) 0.80171(6) 0.36329(16)
O7_6 O 0.83597(8) 0.83877(7) 0.50192(19)
N4_6 N 0.78653(7) 0.78387(7) 0.4799(2)
N6_6 N 0.89042(10) 0.84949(11) 0.5082(3)
C20_6 C 0.75067(10) 0.83107(11) 0.5706(3)
C21_8 C 0.73075(12) 0.85077(13) 0.6165(3)
H22_8 H 0.7260 0.8721 0.6013
C22_8 C 0.71805(13) 0.83884(16) 0.6840(4)
H23_8 H 0.7053 0.8526 0.7140
C23_8 C 0.72358(14) 0.80656(15) 0.7094(3)
H24_8 H 0.7152 0.7989 0.7557
C24_8 C 0.74214(12) 0.78684(12) 0.6620(3)
H25_8 H 0.7457 0.7652 0.6765
C25_6 C 0.75583(10) 0.79792(11) 0.5929(3)
C26_6 C 0.77345(10) 0.77442(10) 0.5455(3)
C27_6 C 0.81688(10) 0.77025(10) 0.3786(3)
C28_7 C 0.83442(11) 0.74764(10) 0.3234(3)
H26_7 H 0.8246 0.7496 0.2730
H27_7 H 0.8317 0.7252 0.3403
C29_6 C 0.87059(12) 0.75536(11) 0.3178(3)
H28_7 H 0.8802 0.7419 0.2779
H29_6 H 0.8732 0.7781 0.3029
C30_7 C 0.88894(12) 0.74951(14) 0.3925(4)
H30_6 H 0.8805 0.7642 0.4314
H31_7 H 0.8849 0.7273 0.4095
C31_6 C 0.92596(15) 0.75478(17) 0.3847(5)
H32_6 H 0.9301 0.7771 0.3685
H33_7 H 0.9344 0.7403 0.3455
C32_7 C 0.94398(17) 0.7484(2) 0.4598(5)
H34_6 H 0.9355 0.7626 0.4990
H35_7 H 0.9409 0.7260 0.4748
H36_6 H 0.9669 0.7526 0.4529
C33_6 C 0.86331(13) 0.83930(11) 0.4743(3)
H37_6 H 0.8654 0.8318 0.4242
C34_6 C 0.88952(16) 0.86174(16) 0.5840(5)
H38_6 H 0.9022 0.8478 0.6169
H39_6 H 0.8985 0.8835 0.5850
H40_6 H 0.8673 0.8623 0.6017
C35_6 C 0.92158(13) 0.85086(18) 0.4713(5)
H41_6 H 0.9286 0.8732 0.4676
H42_6 H 0.9372 0.8387 0.5008
H43_6 H 0.9199 0.8416 0.4209
O9_6 O 0.68311(6) 0.86517(6) 0.15197(16)
O10_5 O 0.75360(6) 0.78676(6) 0.05902(16)
N7_6 N 0.70624(8) 0.82394(8) 0.08331(19)
N8_6 N 0.73360(8) 0.82810(8) 0.1323(2)
C39_6 C 0.60290(11) 0.87191(12) 0.0089(3)
H46_6 H 0.5877 0.8885 0.0168
C40_6 C 0.63017(10) 0.86929(10) 0.0548(3)
H47_6 H 0.6331 0.8844 0.0941
C41_6 C 0.65382(10) 0.84464(9) 0.0446(2)
C42_6 C 0.68229(10) 0.84461(9) 0.0964(2)
C43_5 C 0.75671(10) 0.80808(10) 0.1138(2)
C44_5 C 0.78940(10) 0.80941(11) 0.1535(3)
H48_5 H 0.7959 0.7875 0.1685
H49_5 H 0.7876 0.8226 0.1995
C45_5 C 0.81549(11) 0.82398(14) 0.1011(3)
H50_5 H 0.8368 0.8212 0.1248
H51_5 H 0.8156 0.8121 0.0530
C46_5 C 0.81013(14) 0.86011(14) 0.0846(4)
H52_5 H 0.8097 0.8718 0.1330
H53_5 H 0.7888 0.8627 0.0609
C47_5 C 0.83582(15) 0.87600(17) 0.0328(4)
H54_5 H 0.8572 0.8731 0.0558
C48_5 C 0.8302(2) 0.9119(2) 0.0192(6)
H56_5 H 0.8074 0.9158 0.0106
H58_5 H 0.8373 0.9241 0.0632
C49_8 C 0.56587(14) 0.98199(13) 0.6502(3)
H59_8 H 0.5453 0.9741 0.6632
C50_8 C 0.58641(15) 0.96225(16) 0.6084(4)
H60_8 H 0.5793 0.9418 0.5920
C51_8 C 0.61774(17) 0.97277(15) 0.5906(4)
C54_8 C 0.6411(2) 0.95100(16) 0.5465(4)
H63_8 H 0.6635 0.9570 0.5586
H64_8 H 0.6378 0.9284 0.5614
Mn1_7 Mn 0.386565(15) 0.470096(14) 0.97537(4)
O1_7 O 0.35109(6) 0.49202(7) 0.93467(17)
C1_6 C 0.33359(10) 0.51682(10) 0.9647(3)
C2_6 C 0.30390(11) 0.52435(11) 0.9296(3)
H1_6 H 0.2974 0.5125 0.8866
C3_6 C 0.28405(11) 0.54873(12) 0.9567(3)
H2_6 H 0.2643 0.5532 0.9323
H19_7 H 0.3265 0.4196 0.9834
O8_7 O 0.45160(7) 0.42037(7) 0.71741(17)
O9_7 O 0.38483(6) 0.43311(6) 0.90197(16)
O10_6 O 0.46324(6) 0.50360(6) 0.80902(16)
N7_7 N 0.42606(8) 0.45624(8) 0.83331(19)
N8_7 N 0.42190(8) 0.48360(8) 0.8823(2)
C36_7 C 0.42756(10) 0.39968(10) 0.7347(3)
C37_7 C 0.42523(11) 0.37156(12) 0.6884(3)
H44_7 H 0.4403 0.3683 0.6493
C38_7 C 0.40076(13) 0.34864(13) 0.7004(3)
H45_7 H 0.3995 0.3303 0.6690
C39_7 C 0.37809(12) 0.35290(11) 0.7589(3)
H46_7 H 0.3615 0.3377 0.7668
C40_7 C 0.38071(10) 0.38017(10) 0.8048(3)
H47_7 H 0.3656 0.3831 0.8441
C41_7 C 0.40536(9) 0.40382(10) 0.7946(2)
C42_7 C 0.40539(9) 0.43229(10) 0.8464(2)
C43_6 C 0.44192(10) 0.50671(10) 0.8638(2)
C44_6 C 0.44059(11) 0.53940(10) 0.9035(3)
H48_6 H 0.4625 0.5459 0.9185
H49_6 H 0.4274 0.5376 0.9495
C45_6 C 0.42602(14) 0.56549(11) 0.8511(3)
H50_6 H 0.4288 0.5868 0.8748
H51_6 H 0.4379 0.5656 0.8030
C46_6 C 0.38989(14) 0.56013(14) 0.8346(4)
H52_6 H 0.3782 0.5597 0.8830
H53_6 H 0.3873 0.5388 0.8109
C47_6 C 0.37400(17) 0.58582(15) 0.7828(4)
H54_6 H 0.3769 0.6072 0.8058
H55_6 H 0.3852 0.5859 0.7338
C48_6 C 0.3381(2) 0.5802(2) 0.7692(6)
H56_6 H 0.3342 0.5574 0.7606
H57_6 H 0.3312 0.5925 0.7250
H58_6 H 0.3259 0.5873 0.8132
Mn1_8 Mn 0.886565(15) 0.470096(14) 0.52463(4)
O1_8 O 0.85109(6) 0.49202(7) 0.56533(17)
O2_7 O 0.88174(6) 0.54815(7) 0.37160(17)
O3_9 O 0.92369(6) 0.45236(6) 0.47063(17)
N1_7 N 0.89321(7) 0.50473(8) 0.45011(19)
N2_7 N 0.92146(8) 0.50052(8) 0.4028(2)
N3_9 N 0.85408(8) 0.44231(8) 0.4400(2)
C1_7 C 0.83359(10) 0.51682(10) 0.5353(3)
C2_7 C 0.80390(11) 0.52435(11) 0.5704(3)
H1_7 H 0.7974 0.5125 0.6134
C3_7 C 0.78405(11) 0.54873(12) 0.5433(3)
H2_7 H 0.7643 0.5532 0.5677
C4_7 C 0.79332(11) 0.56679(11) 0.4796(3)
H3_7 H 0.7799 0.5833 0.4606
C5_7 C 0.82256(10) 0.55978(10) 0.4452(3)
H4_7 H 0.8290 0.5721 0.4030
C6_7 C 0.84297(9) 0.53504(9) 0.4705(2)
C7_7 C 0.87403(9) 0.52942(10) 0.4283(2)
C8_9 C 0.93520(10) 0.47235(10) 0.4187(3)
C9_9 C 0.96386(11) 0.46123(11) 0.3720(3)
H5_9 H 0.9807 0.4528 0.4058
H6_9 H 0.9729 0.4798 0.3444
C10_9 C 0.95384(14) 0.43429(15) 0.3138(4)
H7_9 H 0.9418 0.4172 0.3402
H8_9 H 0.9397 0.4436 0.2749
C11_9 C 0.9839(3) 0.4198(3) 0.2762(6)
H10_9 H 0.9884 0.3989 0.3005
C12_9 C 0.9834(3) 0.4158(5) 0.2132(8)
H11_9 H 0.9812 0.4370 0.1891
H12_9 H 0.9636 0.4037 0.2017
C14_9 C 0.85854(12) 0.44523(12) 0.3646(3)
H16_9 H 0.8744 0.4598 0.3472
C15_9 C 0.84100(13) 0.42790(13) 0.3117(3)
H17_9 H 0.8454 0.4302 0.2596
C16_9 C 0.81616(15) 0.40656(14) 0.3367(3)
C17_9 C 0.81095(12) 0.40423(12) 0.4138(3)
H18_9 H 0.7944 0.3907 0.4324
C18_9 C 0.83015(11) 0.42185(10) 0.4642(3)
H19_8 H 0.8265 0.4196 0.5166
C19_9 C 0.79550(19) 0.3857(2) 0.2817(4)
H20_9 H 0.8005 0.3629 0.2915
H21_9 H 0.7726 0.3890 0.2946
Mn2_7 Mn 0.923158(14) 0.540901(15) 0.31611(4)
O4_7 O 0.90535(7) 0.51362(7) 0.24132(19)
O6_7 O 0.94829(6) 0.56738(6) 0.38671(16)
O7_7 O 0.91123(7) 0.58597(8) 0.24808(19)
N4_7 N 0.96613(7) 0.53653(7) 0.2701(2)
N5_4 N 0.99162(7) 0.55222(8) 0.3116(2)
N6_7 N 0.90051(11) 0.64042(10) 0.2418(3)
C20_7 C 0.91893(11) 0.50067(10) 0.1794(3)
C21_9 C 0.89923(13) 0.48075(12) 0.1335(3)
H22_9 H 0.8779 0.4760 0.1487
C22_9 C 0.91116(16) 0.46805(13) 0.0660(4)
H23_9 H 0.8974 0.4553 0.0360
C23_9 C 0.94344(15) 0.47358(14) 0.0406(3)
C24_9 C 0.96316(12) 0.49214(12) 0.0880(3)
H25_9 H 0.9848 0.4957 0.0735
C25_7 C 0.95208(11) 0.50583(10) 0.1571(3)
C26_7 C 0.97558(10) 0.52345(10) 0.2045(3)
C27_7 C 0.97975(10) 0.56688(10) 0.3714(3)
C29_7 C 0.99464(11) 0.62059(12) 0.4322(3)
H29_7 H 0.9719 0.6232 0.4471
H30_7 H 0.9858 0.6305 0.3186
C31_7 C 0.99522(17) 0.67596(15) 0.3653(5)
H32_7 H 0.9729 0.6801 0.3815
H34_7 H 0.9874 0.6855 0.2510
H36_7 H 0.9974 0.7169 0.2971
C33_7 C 0.91070(11) 0.61331(13) 0.2757(3)
H37_7 H 0.9182 0.6154 0.3258
C34_7 C 0.88826(16) 0.63952(16) 0.1660(5)
H38_7 H 0.9022 0.6522 0.1331
H39_7 H 0.8665 0.6485 0.1650
H40_7 H 0.8877 0.6173 0.1483
C35_7 C 0.89914(18) 0.67158(13) 0.2787(5)
H41_7 H 0.8768 0.6786 0.2824
H42_7 H 0.9113 0.6872 0.2492
H43_7 H 0.9084 0.6699 0.3291
Mn3_2 Mn 0.960060(14) 0.461950(15) 0.74348(4)
O8_8 O 0.95160(7) 0.42037(7) 0.78259(17)
O9_8 O 0.88483(6) 0.43311(6) 0.59803(16)
O10_7 O 0.96324(6) 0.50360(6) 0.69098(16)
N7_8 N 0.92606(8) 0.45624(8) 0.66669(19)
N8_8 N 0.92190(8) 0.48360(8) 0.6177(2)
N9_6 N 0.73824(9) 0.32417(10) 0.0771(2)
C36_8 C 0.92756(10) 0.39968(10) 0.7653(3)
C37_8 C 0.92523(11) 0.37156(12) 0.8116(3)
H44_8 H 0.9403 0.3683 0.8507
C38_8 C 0.90076(13) 0.34864(13) 0.7996(3)
H45_8 H 0.8995 0.3303 0.8310
C39_8 C 0.87809(12) 0.35290(11) 0.7411(3)
H46_8 H 0.8615 0.3377 0.7332
C40_8 C 0.88071(10) 0.38017(10) 0.6952(3)
H47_8 H 0.8656 0.3831 0.6559
C41_8 C 0.90536(9) 0.40382(10) 0.7054(2)
C42_8 C 0.90539(9) 0.43229(10) 0.6536(2)
C43_7 C 0.94192(10) 0.50671(10) 0.6362(2)
C44_7 C 0.94059(11) 0.53940(10) 0.5965(3)
H48_7 H 0.9625 0.5459 0.5815
H49_7 H 0.9274 0.5376 0.5505
C45_7 C 0.92602(14) 0.56549(11) 0.6489(3)
H50_7 H 0.9288 0.5868 0.6252
H51_7 H 0.9379 0.5656 0.6970
C46_7 C 0.88989(14) 0.56013(14) 0.6654(4)
H52_7 H 0.8782 0.5597 0.6170
H53_7 H 0.8873 0.5388 0.6891
C47_7 C 0.87400(17) 0.58582(15) 0.7172(4)
H54_7 H 0.8769 0.6072 0.6942
H55_7 H 0.8852 0.5859 0.7662
C48_7 C 0.8381(2) 0.5802(2) 0.7308(6)
H56_7 H 0.8342 0.5574 0.7394
H57_7 H 0.8312 0.5925 0.7750
H58_7 H 0.8259 0.5873 0.6868
C49_9 C 0.76801(13) 0.31587(14) 0.0998(3)
H59_9 H 0.7759 0.2953 0.0868
C50_9 C 0.78775(16) 0.33641(15) 0.1416(4)
H60_9 H 0.8082 0.3293 0.1580
C51_9 C 0.77723(15) 0.36774(17) 0.1594(4)
C52_8 C 0.74637(13) 0.37551(17) 0.1368(3)
H61_8 H 0.7378 0.3958 0.1498
C53_8 C 0.72758(12) 0.35394(13) 0.0952(3)
H62_8 H 0.7068 0.3604 0.0792
C54_9 C 0.79900(16) 0.3911(2) 0.2035(4)
H63_9 H 0.7930 0.4135 0.1914
H64_9 H 0.8216 0.3878 0.1886
O11_5 O 0.99446(7) 0.47456(7) 0.81844(16)
N11_3 N 0.92583(10) 0.48824(9) 0.8271(2)
O8_9 O 0.67037(7) 0.29840(7) 0.03259(17)
C36_9 C 0.64968(10) 0.32244(10) 0.0153(3)
C37_9 C 0.62156(12) 0.32477(11) 0.0616(3)
H44_9 H 0.6183 0.3097 0.1007
C38_9 C 0.59864(13) 0.34924(13) 0.0496(3)
H45_9 H 0.5803 0.3505 0.0810
H55_8 H 0.8359 0.3648 0.0162
H57_8 H 0.8425 0.4188 0.0250
O11_6 O 0.72456(7) 0.25554(7) 0.06844(16)
O5_4 O 0.99446(7) 0.97456(7) 0.18156(16)
C28_8 C 0.99764(10) 0.91558(11) 0.4266(3)
H26_8 H 0.9996 0.9254 0.4770
H27_8 H 0.9752 0.9183 0.4097
H28_8 H 0.9919 0.8698 0.4721
C30_8 C 0.99951(14) 0.86106(12) 0.3575(4)
H31_8 H 0.9773 0.8651 0.3405
H33_8 H 0.9903 0.8156 0.4045
C32_8 C 0.9984(2) 0.80602(17) 0.2902(5)
H35_8 H 0.9760 0.8091 0.2752
Mn4_5 Mn 0.960060(14) 0.961950(15) 0.25652(4)
C12_10 C 0.8342(5) 0.7334(3) 0.9632(8)
H11_10 H 0.8130 0.7312 0.9391
H12_10 H 0.8463 0.7136 0.9517
C13_8 C 0.8533(3) 0.7639(3) 0.9211(8)
H13_8 H 0.8673 0.7746 0.9574
H14_8 H 0.8375 0.7792 0.9018
H15_8 H 0.8662 0.7556 0.8793
O4_8 O 0.73638(7) 0.65535(7) 0.99132(19)
O5_5 O 0.72456(7) 0.75554(7) 0.93156(16)
O7_8 O 0.66403(8) 0.66123(7) 0.99808(19)
N6_8 N 0.60958(10) 0.65051(11) 0.9918(3)
C20_8 C 0.74933(10) 0.66893(11) 0.9294(3)
C21_10 C 0.76925(12) 0.64923(13) 0.8835(3)
H22_10 H 0.7740 0.6279 0.8987
C22_10 C 0.78195(13) 0.66116(16) 0.8160(4)
H23_10 H 0.7947 0.6474 0.7860
C23_10 C 0.77642(14) 0.69344(15) 0.7906(3)
H24_9 H 0.7848 0.7011 0.7443
C24_10 C 0.75786(12) 0.71316(12) 0.8380(3)
H25_10 H 0.7543 0.7348 0.8235
C25_8 C 0.74417(10) 0.70208(11) 0.9071(3)
C26_8 C 0.72655(10) 0.72558(10) 0.9545(3)
C34_8 C 0.61048(16) 0.63826(16) 0.9160(5)
H38_8 H 0.5978 0.6522 0.8831
H39_8 H 0.6015 0.6165 0.9150
H40_8 H 0.6327 0.6377 0.8983
H42_8 H 0.5628 0.6613 0.9992
C49_10 C 0.93413(14) 0.51801(13) 0.8498(3)
H59_10 H 0.9547 0.5259 0.8368
C50_10 C 0.91359(15) 0.53775(16) 0.8916(4)
H60_10 H 0.9207 0.5582 0.9080
C51_10 C 0.88226(17) 0.52723(15) 0.9094(4)
C52_9 C 0.87449(17) 0.49637(13) 0.8868(3)
H61_9 H 0.8542 0.4878 0.8998
C53_9 C 0.89606(13) 0.47758(12) 0.8452(3)
H62_9 H 0.8896 0.4568 0.8292
C54_10 C 0.8589(2) 0.54900(16) 0.9535(4)
H63_10 H 0.8365 0.5430 0.9414
H64_10 H 0.8622 0.5716 0.9386
C12_11 C 0.8342(5) 0.2334(3) 0.0368(8)
H11_11 H 0.8130 0.2312 0.0609
H12_11 H 0.8463 0.2136 0.0483
C13_9 C 0.8533(3) 0.2639(3) 0.0789(8)
H13_9 H 0.8673 0.2746 0.0426
H14_9 H 0.8375 0.2792 0.0982
H15_9 H 0.8662 0.2556 0.1207
O4_9 O 0.73638(7) 0.15535(7) 0.00868(19)
O7_9 O 0.66403(8) 0.16123(7) 0.00192(19)
N6_9 N 0.60958(10) 0.15051(11) 0.0082(3)
C20_9 C 0.74933(10) 0.16893(11) 0.0706(3)
C21_11 C 0.76925(12) 0.14923(13) 0.1165(3)
H22_11 H 0.7740 0.1279 0.1013
C22_11 C 0.78195(13) 0.16116(16) 0.1840(4)
H23_11 H 0.7947 0.1474 0.2140
C23_11 C 0.77642(14) 0.19344(15) 0.2094(3)
H24_10 H 0.7848 0.2011 0.2557
C24_11 C 0.75786(12) 0.21316(12) 0.1620(3)
H25_11 H 0.7543 0.2348 0.1765
C25_9 C 0.74417(10) 0.20208(11) 0.0929(3)
C26_9 C 0.72655(10) 0.22558(10) 0.0455(3)
C34_9 C 0.61048(16) 0.13826(16) 0.0840(5)
H38_9 H 0.5978 0.1522 0.1169
H39_9 H 0.6015 0.1165 0.0850
H40_9 H 0.6327 0.1377 0.1017
H42_9 H 0.5628 0.1613 0.0008
C49_11 C 0.93413(14) 0.01801(13) 0.1502(3)
H59_11 H 0.9547 0.0259 0.1632
C50_11 C 0.91359(15) 0.03775(16) 0.1084(4)
H60_11 H 0.9207 0.0582 0.0920
C51_11 C 0.88226(17) 0.02723(15) 0.0906(4)
C54_11 C 0.8589(2) 0.04900(16) 0.0465(4)
H63_11 H 0.8365 0.0430 0.0586
H64_11 H 0.8622 0.0716 0.0614
N9_7 N 0.92583(10) 0.98824(9) 0.1729(2)
C52_10 C 0.87449(17) 0.99637(13) 0.1132(3)
H61_10 H 0.8542 0.9878 0.1002
C53_10 C 0.89606(13) 0.97758(12) 0.1548(3)
H62_10 H 0.8896 0.9568 0.1708
H9_8 H 0.9977 0.5659 0.7125
C13_10 C 0.9861(3) 0.6033(3) 0.8289(8)
H13_10 H 0.9754 0.6173 0.7926
H14_10 H 0.9708 0.5875 0.8482
H15_10 H 0.9944 0.6162 0.8707
C28_9 C 0.99764(10) 0.41558(11) 0.5734(3)
H26_9 H 0.9996 0.4254 0.5230
H27_9 H 0.9752 0.4183 0.5903
H28_9 H 0.9919 0.3698 0.5279
C30_9 C 0.99951(14) 0.36106(12) 0.6425(4)
H31_9 H 0.9773 0.3651 0.6595
H33_9 H 0.9903 0.3156 0.5955
C32_9 C 0.9984(2) 0.30602(17) 0.7098(5)
H35_9 H 0.9760 0.3091 0.7248
Mn1_9 Mn 0.886565(15) 0.970096(14) 0.47537(4)
O1_9 O 0.85109(6) 0.99202(7) 0.43467(17)
O3_10 O 0.92369(6) 0.95236(6) 0.52937(17)
N3_10 N 0.85408(8) 0.94231(8) 0.5600(2)
C8_10 C 0.93520(10) 0.97235(10) 0.5813(3)
C9_10 C 0.96386(11) 0.96123(11) 0.6280(3)
H5_10 H 0.9807 0.9528 0.5942
H6_10 H 0.9729 0.9798 0.6556
C10_10 C 0.95384(14) 0.93429(15) 0.6862(4)
H7_10 H 0.9418 0.9172 0.6598
H8_10 H 0.9397 0.9436 0.7251
C11_10 C 0.9839(3) 0.9198(3) 0.7238(6)
H10_10 H 0.9884 0.8989 0.6995
C12_12 C 0.9834(3) 0.9158(5) 0.7868(8)
H11_12 H 0.9812 0.9370 0.8109
H12_12 H 0.9636 0.9037 0.7983
C14_10 C 0.85854(12) 0.94523(12) 0.6354(3)
H16_10 H 0.8744 0.9598 0.6528
C15_10 C 0.84100(13) 0.92790(13) 0.6883(3)
H17_10 H 0.8454 0.9302 0.7404
C16_10 C 0.81616(15) 0.90656(14) 0.6633(3)
C17_10 C 0.81095(12) 0.90423(12) 0.5862(3)
H18_10 H 0.7944 0.8907 0.5676
C18_10 C 0.83015(11) 0.92185(10) 0.5358(3)
H19_9 H 0.8265 0.9196 0.4834
C19_10 C 0.79550(19) 0.8857(2) 0.7183(4)
H20_10 H 0.8005 0.8629 0.7085
H21_10 H 0.7726 0.8890 0.7054
C21_12 C 0.89923(13) 0.98075(12) 0.8665(3)
H22_12 H 0.8779 0.9760 0.8513
C22_12 C 0.91116(16) 0.96805(13) 0.9340(4)
H23_12 H 0.8974 0.9553 0.9640
C23_12 C 0.94344(15) 0.97358(14) 0.9594(3)
C24_12 C 0.96316(12) 0.99214(12) 0.9120(3)
H25_12 H 0.9848 0.9957 0.9265
O8_10 O 0.95160(7) 0.92037(7) 0.21741(17)
O9_9 O 0.88483(6) 0.93311(6) 0.40197(16)
N7_9 N 0.92606(8) 0.95624(8) 0.33331(19)
N8_9 N 0.92190(8) 0.98360(8) 0.3823(2)
N9_8 N 0.73824(9) 0.82417(10) 0.9229(2)
C36_10 C 0.92756(10) 0.89968(10) 0.2347(3)
C37_10 C 0.92523(11) 0.87156(12) 0.1884(3)
H44_10 H 0.9403 0.8683 0.1493
C38_10 C 0.90076(13) 0.84864(13) 0.2004(3)
H45_10 H 0.8995 0.8303 0.1690
C39_9 C 0.87809(12) 0.85290(11) 0.2589(3)
H46_9 H 0.8615 0.8377 0.2668
C40_9 C 0.88071(10) 0.88017(10) 0.3048(3)
H47_9 H 0.8656 0.8831 0.3441
C41_9 C 0.90536(9) 0.90382(10) 0.2946(2)
C42_9 C 0.90539(9) 0.93229(10) 0.3464(2)
C49_12 C 0.76801(13) 0.81587(14) 0.9002(3)
H59_12 H 0.7759 0.7953 0.9132
C50_12 C 0.78775(16) 0.83641(15) 0.8584(4)
H60_12 H 0.8082 0.8293 0.8420
C51_12 C 0.77723(15) 0.86774(17) 0.8406(4)
C52_11 C 0.74637(13) 0.87551(17) 0.8632(3)
H61_11 H 0.7378 0.8958 0.8502
C53_11 C 0.72758(12) 0.85394(13) 0.9048(3)
H62_11 H 0.7068 0.8604 0.9208
C54_12 C 0.79900(16) 0.8911(2) 0.7965(4)
H63_12 H 0.7930 0.9135 0.8086
H64_12 H 0.8216 0.8878 0.8114
O8_11 O 0.67037(7) 0.79840(7) 0.96741(17)
C36_11 C 0.64968(10) 0.82244(10) 0.9847(3)
C37_11 C 0.62156(12) 0.82477(11) 0.9384(3)
H44_11 H 0.6183 0.8097 0.8993
C38_11 C 0.59864(13) 0.84924(13) 0.9504(3)
H45_11 H 0.5803 0.8505 0.9190
H55_9 H 0.8359 0.8648 0.9838
H57_9 H 0.8425 0.9188 0.9750
H24_11 H 0.9511 0.4652 0.9943
Mn5_3 Mn 0.711950(15) 0.289940(14) 0.99348(4)
Mn1_10 Mn 0.720096(14) 0.363435(15) 0.77463(4)
O1_10 O 0.74202(7) 0.39891(6) 0.81533(17)
O2_8 O 0.79815(7) 0.36826(6) 0.62160(17)
O3_11 O 0.70236(6) 0.32631(6) 0.72063(17)
N1_8 N 0.75473(8) 0.35679(7) 0.70011(19)
N2_8 N 0.75052(8) 0.32854(8) 0.6528(2)
N3_11 N 0.69231(8) 0.39592(8) 0.6900(2)
C1_8 C 0.76682(10) 0.41641(10) 0.7853(3)
C2_8 C 0.77435(11) 0.44610(11) 0.8204(3)
H1_8 H 0.7625 0.4526 0.8634
C3_8 C 0.79873(12) 0.46595(11) 0.7933(3)
H2_8 H 0.8032 0.4857 0.8177
C4_8 C 0.81679(11) 0.45668(11) 0.7296(3)
H3_8 H 0.8333 0.4701 0.7106
C5_8 C 0.80978(10) 0.42744(10) 0.6952(3)
H4_8 H 0.8221 0.4210 0.6530
C6_8 C 0.78504(9) 0.40703(9) 0.7205(2)
C7_8 C 0.77942(10) 0.37597(9) 0.6783(2)
C8_11 C 0.72235(10) 0.31480(10) 0.6687(3)
C9_11 C 0.71123(11) 0.28614(11) 0.6220(3)
H5_11 H 0.7028 0.2693 0.6558
H6_11 H 0.7298 0.2771 0.5944
C10_11 C 0.68429(15) 0.29616(14) 0.5638(4)
H7_11 H 0.6672 0.3082 0.5902
H8_11 H 0.6936 0.3103 0.5249
C11_11 C 0.6698(3) 0.2661(3) 0.5262(6)
H9_9 H 0.6841 0.2477 0.5375
H10_11 H 0.6489 0.2616 0.5505
C12_13 C 0.6658(5) 0.2666(3) 0.4632(8)
H11_13 H 0.6870 0.2688 0.4391
H12_13 H 0.6537 0.2864 0.4517
C13_11 C 0.6467(3) 0.2361(3) 0.4211(8)
H13_11 H 0.6327 0.2254 0.4574
H14_11 H 0.6625 0.2208 0.4018
H15_11 H 0.6338 0.2444 0.3793
C14_11 C 0.69523(12) 0.39146(12) 0.6146(3)
H16_11 H 0.7098 0.3756 0.5972
C15_11 C 0.67790(13) 0.40900(13) 0.5617(3)
H17_11 H 0.6802 0.4046 0.5096
C16_11 C 0.65656(14) 0.43384(15) 0.5867(3)
C17_11 C 0.65423(12) 0.43905(12) 0.6638(3)
H18_11 H 0.6407 0.4556 0.6824
C18_11 C 0.67185(10) 0.41985(11) 0.7142(3)
H19_10 H 0.6696 0.4235 0.7666
C19_11 C 0.6357(2) 0.45450(19) 0.5317(4)
H20_11 H 0.6129 0.4495 0.5415
H21_11 H 0.6390 0.4774 0.5446
Mn2_8 Mn 0.790901(15) 0.326842(14) 0.56611(4)
O4_10 O 0.76362(7) 0.34465(7) 0.49132(19)
O5_6 O 0.77544(7) 0.24446(7) 0.43156(16)
O6_8 O 0.81738(6) 0.30171(6) 0.63671(16)
O7_10 O 0.83597(8) 0.33877(7) 0.49808(19)
N4_8 N 0.78653(7) 0.28387(7) 0.5201(2)
N5_5 N 0.80222(8) 0.25838(7) 0.5616(2)
N6_10 N 0.89042(10) 0.34949(11) 0.4918(3)
C20_10 C 0.75067(10) 0.33107(11) 0.4294(3)
C21_13 C 0.73075(12) 0.35077(13) 0.3835(3)
H22_13 H 0.7260 0.3721 0.3987
C22_13 C 0.71805(13) 0.33884(16) 0.3160(4)
H23_13 H 0.7053 0.3526 0.2860
C23_13 C 0.72358(14) 0.30656(15) 0.2906(3)
H24_12 H 0.7152 0.2989 0.2443
C24_13 C 0.74214(12) 0.28684(12) 0.3380(3)
H25_13 H 0.7457 0.2652 0.3235
C25_10 C 0.75583(10) 0.29792(11) 0.4071(3)
C26_10 C 0.77345(10) 0.27442(10) 0.4545(3)
C27_8 C 0.81688(10) 0.27025(10) 0.6214(3)
C28_10 C 0.83442(11) 0.24764(10) 0.6766(3)
H26_10 H 0.8246 0.2496 0.7270
H27_10 H 0.8317 0.2252 0.6597
C29_8 C 0.87059(12) 0.25536(11) 0.6822(3)
H28_10 H 0.8802 0.2419 0.7221
H29_8 H 0.8732 0.2781 0.6971
C30_10 C 0.88894(12) 0.24951(14) 0.6075(4)
H30_8 H 0.8805 0.2642 0.5686
H31_10 H 0.8849 0.2273 0.5905
C31_8 C 0.92596(15) 0.25478(17) 0.6153(5)
H32_8 H 0.9301 0.2771 0.6315
H33_10 H 0.9344 0.2403 0.6545
C32_10 C 0.94398(17) 0.2484(2) 0.5402(5)
H34_8 H 0.9355 0.2626 0.5010
H35_10 H 0.9409 0.2260 0.5252
H36_8 H 0.9669 0.2526 0.5471
C33_8 C 0.86331(13) 0.33930(11) 0.5257(3)
H37_8 H 0.8654 0.3318 0.5758
C34_10 C 0.88952(16) 0.36174(16) 0.4160(5)
H38_10 H 0.9022 0.3478 0.3831
H39_10 H 0.8985 0.3835 0.4150
H40_10 H 0.8673 0.3623 0.3983
C35_8 C 0.92158(13) 0.35086(18) 0.5287(5)
H41_8 H 0.9286 0.3732 0.5324
H42_10 H 0.9372 0.3387 0.4992
H43_8 H 0.9199 0.3416 0.5791
O9_10 O 0.68311(6) 0.36517(6) 0.84803(16)
O10_8 O 0.75360(6) 0.28676(6) 0.94098(16)
N7_10 N 0.70624(8) 0.32394(8) 0.91669(19)
N8_10 N 0.73360(8) 0.32810(8) 0.8677(2)
N9_9 N 0.57417(10) 0.51176(9) 0.3271(2)
C39_10 C 0.60290(11) 0.37191(12) 0.9911(3)
H46_10 H 0.5877 0.3885 0.9832
C40_10 C 0.63017(10) 0.36929(10) 0.9452(3)
H47_10 H 0.6331 0.3844 0.9059
C41_10 C 0.65382(10) 0.34464(9) 0.9554(2)
C42_10 C 0.68229(10) 0.34461(9) 0.9036(2)
C43_8 C 0.75671(10) 0.30808(10) 0.8862(2)
C44_8 C 0.78940(10) 0.30941(11) 0.8465(3)
H48_8 H 0.7959 0.2875 0.8315
H49_8 H 0.7876 0.3226 0.8005
C45_8 C 0.81549(11) 0.32398(14) 0.8989(3)
H50_8 H 0.8368 0.3212 0.8752
H51_8 H 0.8156 0.3121 0.9470
C46_8 C 0.81013(14) 0.36011(14) 0.9154(4)
H52_8 H 0.8097 0.3718 0.8670
H53_8 H 0.7888 0.3627 0.9391
C47_8 C 0.83582(15) 0.37600(17) 0.9672(4)
H54_8 H 0.8572 0.3731 0.9442
C48_8 C 0.8302(2) 0.4119(2) 0.9808(6)
H56_8 H 0.8074 0.4158 0.9894
H58_8 H 0.8373 0.4241 0.9368
C49_13 C 0.56587(14) 0.48199(13) 0.3498(3)
H59_13 H 0.5453 0.4741 0.3368
C50_13 C 0.58641(15) 0.46225(16) 0.3916(4)
H60_13 H 0.5793 0.4418 0.4080
C51_13 C 0.61774(17) 0.47277(15) 0.4094(4)
C52_12 C 0.62551(17) 0.50363(13) 0.3868(3)
H61_12 H 0.6458 0.5122 0.3998
C53_12 C 0.60394(13) 0.52242(12) 0.3452(3)
H62_12 H 0.6104 0.5432 0.3292
C54_13 C 0.6411(2) 0.45100(16) 0.4535(4)
H63_13 H 0.6635 0.4570 0.4414
H64_13 H 0.6378 0.4284 0.4386
N10_4 N 0.69778(8) 0.24162(7) 0.9384(2)
Mn4_6 Mn 0.788050(15) 0.210060(14) 0.50652(4)
Mn5_4 Mn 0.539940(14) 0.538050(15) 0.24348(4)
H24_13 H 0.0489 0.0348 0.9943
Mn5_5 Mn 0.288050(15) 0.210060(14) 0.99348(4)
Mn1_11 Mn 0.279904(14) 0.136565(15) 0.77463(4)
O1_11 O 0.25798(7) 0.10109(6) 0.81533(17)
O2_9 O 0.20185(7) 0.13174(6) 0.62160(17)
O3_12 O 0.29764(6) 0.17369(6) 0.72063(17)
N1_9 N 0.24527(8) 0.14321(7) 0.70011(19)
N2_9 N 0.24948(8) 0.17146(8) 0.6528(2)
N3_12 N 0.30769(8) 0.10408(8) 0.6900(2)
C1_9 C 0.23318(10) 0.08359(10) 0.7853(3)
C2_9 C 0.22565(11) 0.05390(11) 0.8204(3)
H1_9 H 0.2375 0.0474 0.8634
C3_9 C 0.20127(12) 0.03405(11) 0.7933(3)
H2_9 H 0.1968 0.0143 0.8177
C4_9 C 0.18321(11) 0.04332(11) 0.7296(3)
H3_9 H 0.1667 0.0299 0.7106
C5_9 C 0.19022(10) 0.07256(10) 0.6952(3)
H4_9 H 0.1779 0.0790 0.6530
C6_9 C 0.21496(9) 0.09297(9) 0.7205(2)
C7_9 C 0.22058(10) 0.12403(9) 0.6783(2)
C8_12 C 0.27765(10) 0.18520(10) 0.6687(3)
C9_12 C 0.28877(11) 0.21386(11) 0.6220(3)
H5_12 H 0.2972 0.2307 0.6558
H6_12 H 0.2702 0.2229 0.5944
C10_12 C 0.31571(15) 0.20384(14) 0.5638(4)
H7_12 H 0.3328 0.1918 0.5902
H8_12 H 0.3064 0.1897 0.5249
C11_12 C 0.3302(3) 0.2339(3) 0.5262(6)
H9_10 H 0.3159 0.2523 0.5375
H10_12 H 0.3511 0.2384 0.5505
C12_14 C 0.3342(5) 0.2334(3) 0.4632(8)
H11_14 H 0.3130 0.2312 0.4391
H12_14 H 0.3463 0.2136 0.4517
C13_12 C 0.3533(3) 0.2639(3) 0.4211(8)
H13_12 H 0.3673 0.2746 0.4574
H14_12 H 0.3375 0.2792 0.4018
H15_12 H 0.3662 0.2556 0.3793
C14_12 C 0.30477(12) 0.10854(12) 0.6146(3)
H16_12 H 0.2902 0.1244 0.5972
C15_12 C 0.32210(13) 0.09100(13) 0.5617(3)
H17_12 H 0.3198 0.0954 0.5096
C16_12 C 0.34344(14) 0.06616(15) 0.5867(3)
C17_12 C 0.34577(12) 0.06095(12) 0.6638(3)
H18_12 H 0.3593 0.0444 0.6824
C18_12 C 0.32815(10) 0.08015(11) 0.7142(3)
H19_11 H 0.3304 0.0765 0.7666
C19_12 C 0.3643(2) 0.04550(19) 0.5317(4)
H20_12 H 0.3871 0.0505 0.5415
H21_12 H 0.3610 0.0226 0.5446
Mn2_9 Mn 0.209099(15) 0.173158(14) 0.56611(4)
O4_11 O 0.23638(7) 0.15535(7) 0.49132(19)
O5_7 O 0.22456(7) 0.25554(7) 0.43156(16)
O6_9 O 0.18262(6) 0.19829(6) 0.63671(16)
O7_11 O 0.16403(8) 0.16123(7) 0.49808(19)
N4_9 N 0.21347(7) 0.21613(7) 0.5201(2)
N5_6 N 0.19778(8) 0.24162(7) 0.5616(2)
N6_11 N 0.10958(10) 0.15051(11) 0.4918(3)
C20_11 C 0.24933(10) 0.16893(11) 0.4294(3)
C21_14 C 0.26925(12) 0.14923(13) 0.3835(3)
H22_14 H 0.2740 0.1279 0.3987
C22_14 C 0.28195(13) 0.16116(16) 0.3160(4)
H23_14 H 0.2947 0.1474 0.2860
C23_14 C 0.27642(14) 0.19344(15) 0.2906(3)
H24_14 H 0.2848 0.2011 0.2443
C24_14 C 0.25786(12) 0.21316(12) 0.3380(3)
H25_14 H 0.2543 0.2348 0.3235
C25_11 C 0.24417(10) 0.20208(11) 0.4071(3)
C26_11 C 0.22655(10) 0.22558(10) 0.4545(3)
C27_9 C 0.18312(10) 0.22975(10) 0.6214(3)
C28_11 C 0.16558(11) 0.25236(10) 0.6766(3)
H26_11 H 0.1754 0.2504 0.7270
H27_11 H 0.1683 0.2748 0.6597
C29_9 C 0.12941(12) 0.24464(11) 0.6822(3)
H28_11 H 0.1198 0.2581 0.7221
H29_9 H 0.1268 0.2219 0.6971
C30_11 C 0.11106(12) 0.25049(14) 0.6075(4)
H30_9 H 0.1195 0.2358 0.5686
H31_11 H 0.1151 0.2727 0.5905
C31_9 C 0.07404(15) 0.24522(17) 0.6153(5)
H32_9 H 0.0699 0.2229 0.6315
H33_11 H 0.0656 0.2597 0.6545
C32_11 C 0.05602(17) 0.2516(2) 0.5402(5)
H34_9 H 0.0645 0.2374 0.5010
H35_11 H 0.0591 0.2740 0.5252
H36_9 H 0.0331 0.2474 0.5471
C33_9 C 0.13669(13) 0.16070(11) 0.5257(3)
H37_9 H 0.1346 0.1682 0.5758
C34_11 C 0.11048(16) 0.13826(16) 0.4160(5)
H38_11 H 0.0978 0.1522 0.3831
H39_11 H 0.1015 0.1165 0.4150
H40_11 H 0.1327 0.1377 0.3983
C35_9 C 0.07842(13) 0.14914(18) 0.5287(5)
H41_9 H 0.0714 0.1268 0.5324
H42_11 H 0.0628 0.1613 0.4992
H43_9 H 0.0801 0.1584 0.5791
O9_11 O 0.31689(6) 0.13483(6) 0.84803(16)
O10_9 O 0.24640(6) 0.21324(6) 0.94098(16)
N7_11 N 0.29376(8) 0.17606(8) 0.91669(19)
N8_11 N 0.26640(8) 0.17190(8) 0.8677(2)
C39_11 C 0.39710(11) 0.12809(12) 0.9911(3)
H46_11 H 0.4123 0.1115 0.9832
C40_11 C 0.36983(10) 0.13071(10) 0.9452(3)
H47_11 H 0.3669 0.1156 0.9059
C41_11 C 0.34618(10) 0.15536(9) 0.9554(2)
C42_11 C 0.31771(10) 0.15539(9) 0.9036(2)
C43_9 C 0.24329(10) 0.19192(10) 0.8862(2)
C44_9 C 0.21060(10) 0.19059(11) 0.8465(3)
H48_9 H 0.2041 0.2125 0.8315
H49_9 H 0.2124 0.1774 0.8005
C45_9 C 0.18451(11) 0.17602(14) 0.8989(3)
H50_9 H 0.1632 0.1788 0.8752
H51_9 H 0.1844 0.1879 0.9470
C46_9 C 0.18987(14) 0.13989(14) 0.9154(4)
H52_9 H 0.1903 0.1282 0.8670
H53_9 H 0.2112 0.1373 0.9391
C47_9 C 0.16418(15) 0.12400(17) 0.9672(4)
H54_9 H 0.1428 0.1269 0.9442
C48_9 C 0.1698(2) 0.0881(2) 0.9808(6)
H56_9 H 0.1926 0.0842 0.9894
H58_9 H 0.1627 0.0759 0.9368
C49_14 C 0.43413(14) 0.01801(13) 0.3498(3)
H59_14 H 0.4547 0.0259 0.3368
C50_14 C 0.41359(15) 0.03775(16) 0.3916(4)
H60_14 H 0.4207 0.0582 0.4080
C51_14 C 0.38226(17) 0.02723(15) 0.4094(4)
C54_14 C 0.3589(2) 0.04900(16) 0.4535(4)
H63_14 H 0.3365 0.0430 0.4414
H64_14 H 0.3622 0.0716 0.4386
N10_5 N 0.30222(8) 0.25838(7) 0.9384(2)
Mn4_7 Mn 0.211950(15) 0.289940(14) 0.50652(4)
Mn1_12 Mn 0.613435(15) 0.529904(14) 0.02463(4)
O1_12 O 0.64891(6) 0.50798(7) 0.06533(17)
C1_10 C 0.66641(10) 0.48318(10) 0.0353(3)
C2_10 C 0.69610(11) 0.47565(11) 0.0704(3)
H1_10 H 0.7026 0.4875 0.1134
C3_10 C 0.71595(11) 0.45127(12) 0.0433(3)
H2_10 H 0.7357 0.4468 0.0677
H19_12 H 0.6735 0.5804 0.0166
O8_12 O 0.54840(7) 0.57963(7) 0.28259(17)
O9_12 O 0.61517(6) 0.56689(6) 0.09803(16)
O10_10 O 0.53676(6) 0.49640(6) 0.19098(16)
N7_12 N 0.57394(8) 0.54376(8) 0.16669(19)
N8_12 N 0.57810(8) 0.51640(8) 0.1177(2)
C36_12 C 0.57244(10) 0.60032(10) 0.2653(3)
C37_12 C 0.57477(11) 0.62844(12) 0.3116(3)
H44_12 H 0.5597 0.6317 0.3507
C38_12 C 0.59924(13) 0.65136(13) 0.2996(3)
H45_12 H 0.6005 0.6697 0.3310
C39_12 C 0.62191(12) 0.64710(11) 0.2411(3)
H46_12 H 0.6385 0.6623 0.2332
C40_12 C 0.61929(10) 0.61983(10) 0.1952(3)
H47_12 H 0.6344 0.6169 0.1559
C41_12 C 0.59464(9) 0.59618(10) 0.2054(2)
C42_12 C 0.59461(9) 0.56771(10) 0.1536(2)
C43_10 C 0.55808(10) 0.49329(10) 0.1362(2)
C44_10 C 0.55941(11) 0.46060(10) 0.0965(3)
H48_10 H 0.5375 0.4541 0.0815
H49_10 H 0.5726 0.4624 0.0505
C45_10 C 0.57398(14) 0.43451(11) 0.1489(3)
H50_10 H 0.5712 0.4132 0.1252
H51_10 H 0.5621 0.4344 0.1970
C46_10 C 0.61011(14) 0.43987(14) 0.1654(4)
H52_10 H 0.6218 0.4403 0.1170
H53_10 H 0.6127 0.4612 0.1891
C47_10 C 0.62600(17) 0.41418(15) 0.2172(4)
H54_10 H 0.6231 0.3928 0.1942
H55_10 H 0.6148 0.4141 0.2662
C48_10 C 0.6619(2) 0.4198(2) 0.2308(6)
H56_10 H 0.6658 0.4426 0.2394
H57_10 H 0.6688 0.4075 0.2750
H58_10 H 0.6741 0.4127 0.1868
O11_7 O 0.50554(7) 0.52544(7) 0.31844(16)
N10_6 N 0.49162(7) 0.55222(8) 0.1884(2)
Mn1_13 Mn 0.779904(14) 0.136565(15) 0.72537(4)
O1_13 O 0.75798(7) 0.10109(6) 0.68467(17)
O2_10 O 0.70185(7) 0.13174(6) 0.87840(17)
O3_13 O 0.79764(6) 0.17369(6) 0.77937(17)
N1_10 N 0.74527(8) 0.14321(7) 0.79989(19)
N2_10 N 0.74948(8) 0.17146(8) 0.8472(2)
N3_13 N 0.80769(8) 0.10408(8) 0.8100(2)
C1_11 C 0.73318(10) 0.08359(10) 0.7147(3)
C2_11 C 0.72565(11) 0.05390(11) 0.6796(3)
H1_11 H 0.7375 0.0474 0.6366
C3_11 C 0.70127(12) 0.03405(11) 0.7067(3)
H2_11 H 0.6968 0.0143 0.6823
C4_10 C 0.68321(11) 0.04332(11) 0.7704(3)
H3_10 H 0.6667 0.0299 0.7894
C5_10 C 0.69022(10) 0.07256(10) 0.8048(3)
H4_10 H 0.6779 0.0790 0.8470
C6_10 C 0.71496(9) 0.09297(9) 0.7795(2)
C7_10 C 0.72058(10) 0.12403(9) 0.8217(2)
C8_13 C 0.77765(10) 0.18520(10) 0.8313(3)
C9_13 C 0.78877(11) 0.21386(11) 0.8780(3)
H5_13 H 0.7972 0.2307 0.8442
H6_13 H 0.7702 0.2229 0.9056
C10_13 C 0.81571(15) 0.20384(14) 0.9362(4)
H7_13 H 0.8328 0.1918 0.9098
H8_13 H 0.8064 0.1897 0.9751
C11_13 C 0.8302(3) 0.2339(3) 0.9738(6)
H9_11 H 0.8159 0.2523 0.9625
H10_13 H 0.8511 0.2384 0.9495
C14_13 C 0.80477(12) 0.10854(12) 0.8854(3)
H16_13 H 0.7902 0.1244 0.9028
C15_13 C 0.82210(13) 0.09100(13) 0.9383(3)
H17_13 H 0.8198 0.0954 0.9904
C16_13 C 0.84344(14) 0.06616(15) 0.9133(3)
C17_13 C 0.84577(12) 0.06095(12) 0.8362(3)
H18_13 H 0.8593 0.0444 0.8176
C18_13 C 0.82815(10) 0.08015(11) 0.7858(3)
H19_13 H 0.8304 0.0765 0.7334
C19_13 C 0.8643(2) 0.04550(19) 0.9683(4)
H20_13 H 0.8871 0.0505 0.9585
H21_13 H 0.8610 0.0226 0.9554
Mn2_10 Mn 0.709099(15) 0.173158(14) 0.93389(4)
O6_10 O 0.68262(6) 0.19829(6) 0.86329(16)
N4_10 N 0.71347(7) 0.21613(7) 0.9799(2)
C27_10 C 0.68312(10) 0.22975(10) 0.8786(3)
C28_12 C 0.66558(11) 0.25236(10) 0.8234(3)
H26_12 H 0.6754 0.2504 0.7730
H27_12 H 0.6683 0.2748 0.8403
C29_10 C 0.62941(12) 0.24464(11) 0.8178(3)
H28_12 H 0.6198 0.2581 0.7779
H29_10 H 0.6268 0.2219 0.8029
C30_12 C 0.61106(12) 0.25049(14) 0.8925(4)
H30_10 H 0.6195 0.2358 0.9314
H31_12 H 0.6151 0.2727 0.9095
C31_10 C 0.57404(15) 0.24522(17) 0.8847(5)
H32_10 H 0.5699 0.2229 0.8685
H33_12 H 0.5656 0.2597 0.8455
C32_12 C 0.55602(17) 0.2516(2) 0.9598(5)
H34_10 H 0.5645 0.2374 0.9990
H35_12 H 0.5591 0.2740 0.9748
H36_10 H 0.5331 0.2474 0.9529
C33_10 C 0.63669(13) 0.16070(11) 0.9743(3)
H37_10 H 0.6346 0.1682 0.9242
C35_10 C 0.57842(13) 0.14914(18) 0.9713(5)
H41_10 H 0.5714 0.1268 0.9676
H43_10 H 0.5801 0.1584 0.9209
O8_13 O 0.82963(7) 0.20160(7) 0.46741(17)
O9_13 O 0.81689(6) 0.13483(6) 0.65197(16)
O10_11 O 0.74640(6) 0.21324(6) 0.55902(16)
N7_13 N 0.79376(8) 0.17606(8) 0.58331(19)
N8_13 N 0.76640(8) 0.17190(8) 0.6323(2)
C36_13 C 0.85032(10) 0.17756(10) 0.4847(3)
C37_13 C 0.87844(12) 0.17523(11) 0.4384(3)
H44_13 H 0.8817 0.1903 0.3993
C38_13 C 0.90136(13) 0.15076(13) 0.4504(3)
H45_13 H 0.9197 0.1495 0.4190
C39_13 C 0.89710(11) 0.12809(12) 0.5089(3)
H46_13 H 0.9123 0.1115 0.5168
C40_13 C 0.86983(10) 0.13071(10) 0.5548(3)
H47_13 H 0.8669 0.1156 0.5941
C41_13 C 0.84618(10) 0.15536(9) 0.5446(2)
C42_13 C 0.81771(10) 0.15539(9) 0.5964(2)
C43_11 C 0.74329(10) 0.19192(10) 0.6138(2)
C44_11 C 0.71060(10) 0.19059(11) 0.6535(3)
H48_11 H 0.7041 0.2125 0.6685
H49_11 H 0.7124 0.1774 0.6995
C45_11 C 0.68451(11) 0.17602(14) 0.6011(3)
H50_11 H 0.6632 0.1788 0.6248
H51_11 H 0.6844 0.1879 0.5530
C46_11 C 0.68987(14) 0.13989(14) 0.5846(4)
H52_11 H 0.6903 0.1282 0.6330
H53_11 H 0.7112 0.1373 0.5609
C47_11 C 0.66418(15) 0.12400(17) 0.5328(4)
H54_11 H 0.6428 0.1269 0.5558
H55_11 H 0.6641 0.1352 0.4838
C48_11 C 0.6698(2) 0.0881(2) 0.5192(6)
H56_11 H 0.6926 0.0842 0.5106
H57_11 H 0.6575 0.0812 0.4750
H58_11 H 0.6627 0.0759 0.5632
N11_4 N 0.76176(9) 0.17583(10) 0.4229(2)
O3_14 O 0.57631(6) 0.04764(6) 0.02937(17)
N3_14 N 0.64592(8) 0.05769(8) 0.0600(2)
C8_14 C 0.56480(10) 0.02765(10) 0.0813(3)
C9_14 C 0.53614(11) 0.03877(11) 0.1280(3)
H5_14 H 0.5193 0.0472 0.0942
H6_14 H 0.5271 0.0202 0.1556
C10_14 C 0.54616(14) 0.06571(15) 0.1862(4)
H7_14 H 0.5582 0.0828 0.1598
H8_14 H 0.5603 0.0564 0.2251
C11_14 C 0.5161(3) 0.0802(3) 0.2238(6)
H9_12 H 0.4977 0.0659 0.2125
H10_14 H 0.5116 0.1011 0.1995
C12_15 C 0.5166(3) 0.0842(5) 0.2868(8)
H11_15 H 0.5188 0.0630 0.3109
H12_15 H 0.5364 0.0963 0.2983
C13_13 C 0.4861(3) 0.1033(3) 0.3289(8)
H13_13 H 0.4754 0.1173 0.2926
H14_13 H 0.4708 0.0875 0.3482
H15_13 H 0.4944 0.1162 0.3707
C14_14 C 0.64146(12) 0.05477(12) 0.1354(3)
H16_14 H 0.6256 0.0402 0.1528
C15_14 C 0.65900(13) 0.07210(13) 0.1883(3)
H17_14 H 0.6546 0.0698 0.2404
C16_14 C 0.68384(15) 0.09344(14) 0.1633(3)
C17_14 C 0.68905(12) 0.09577(12) 0.0862(3)
H18_14 H 0.7056 0.1093 0.0676
C18_14 C 0.66985(11) 0.07815(10) 0.0358(3)
C19_14 C 0.70450(19) 0.1143(2) 0.2183(4)
H20_14 H 0.6995 0.1371 0.2085
H21_14 H 0.7274 0.1110 0.2054
C21_15 C 0.60077(13) 0.01925(12) 0.3665(3)
H22_15 H 0.6221 0.0240 0.3513
C22_15 C 0.58884(16) 0.03195(13) 0.4340(4)
H23_15 H 0.6026 0.0447 0.4640
C23_15 C 0.55656(15) 0.02642(14) 0.4594(3)
H24_15 H 0.5489 0.0348 0.5057
C24_15 C 0.53684(12) 0.00786(12) 0.4120(3)
H25_15 H 0.5152 0.0043 0.4265
C49_15 C 0.73199(13) 0.18413(14) 0.4002(3)
H59_15 H 0.7241 0.2047 0.4132
C50_15 C 0.71225(16) 0.16359(15) 0.3584(4)
H60_15 H 0.6918 0.1707 0.3420
C51_15 C 0.72277(15) 0.13226(17) 0.3406(4)
C52_13 C 0.75363(13) 0.12449(17) 0.3632(3)
H61_13 H 0.7622 0.1042 0.3502
C53_13 C 0.77242(12) 0.14606(13) 0.4048(3)
H62_13 H 0.7932 0.1396 0.4208
C54_15 C 0.70100(16) 0.1089(2) 0.2965(4)
H63_15 H 0.7070 0.0865 0.3086
H64_15 H 0.6784 0.1122 0.3114
O2_11 O 0.38174(6) 0.54815(7) 0.12840(17)
O3_15 O 0.42369(6) 0.45236(6) 0.02937(17)
N1_11 N 0.39321(7) 0.50473(8) 0.04989(19)
N2_11 N 0.42146(8) 0.50052(8) 0.0972(2)
N3_15 N 0.35408(8) 0.44231(8) 0.0600(2)
C4_11 C 0.29332(11) 0.56679(11) 0.0204(3)
H3_11 H 0.2799 0.5833 0.0394
C5_11 C 0.32256(10) 0.55978(10) 0.0548(3)
H4_11 H 0.3290 0.5721 0.0970
C6_11 C 0.34297(9) 0.53504(9) 0.0295(2)
C7_11 C 0.37403(9) 0.52942(10) 0.0717(2)
C8_15 C 0.43520(10) 0.47235(10) 0.0813(3)
C9_15 C 0.46386(11) 0.46123(11) 0.1280(3)
H5_15 H 0.4807 0.4528 0.0942
H6_15 H 0.4729 0.4798 0.1556
C10_15 C 0.45384(14) 0.43429(15) 0.1862(4)
H7_15 H 0.4418 0.4172 0.1598
H8_15 H 0.4397 0.4436 0.2251
C11_15 C 0.4839(3) 0.4198(3) 0.2238(6)
H9_13 H 0.5023 0.4341 0.2125
H10_15 H 0.4884 0.3989 0.1995
C12_16 C 0.4834(3) 0.4158(5) 0.2868(8)
H11_16 H 0.4812 0.4370 0.3109
H12_16 H 0.4636 0.4037 0.2983
C13_14 C 0.5139(3) 0.3967(3) 0.3289(8)
H13_14 H 0.5246 0.3827 0.2926
H14_14 H 0.5292 0.4125 0.3482
H15_14 H 0.5056 0.3838 0.3707
C14_15 C 0.35854(12) 0.44523(12) 0.1354(3)
H16_15 H 0.3744 0.4598 0.1528
C15_15 C 0.34100(13) 0.42790(13) 0.1883(3)
H17_15 H 0.3454 0.4302 0.2404
C16_15 C 0.31616(15) 0.40656(14) 0.1633(3)
C17_15 C 0.31095(12) 0.40423(12) 0.0862(3)
H18_15 H 0.2944 0.3907 0.0676
C18_15 C 0.33015(11) 0.42185(10) 0.0358(3)
C19_15 C 0.29550(19) 0.3857(2) 0.2183(4)
H20_15 H 0.3005 0.3629 0.2085
H21_15 H 0.2726 0.3890 0.2054
Mn2_11 Mn 0.423158(14) 0.540901(15) 0.18389(4)
O4_12 O 0.40535(7) 0.51362(7) 0.25868(19)
O6_11 O 0.44829(6) 0.56738(6) 0.11329(16)
O7_12 O 0.41123(7) 0.58597(8) 0.25192(19)
N4_11 N 0.46613(7) 0.53653(7) 0.2299(2)
N6_12 N 0.40051(11) 0.64042(10) 0.2582(3)
C20_12 C 0.41893(11) 0.50067(10) 0.3206(3)
C21_16 C 0.39923(13) 0.48075(12) 0.3665(3)
H22_16 H 0.3779 0.4760 0.3513
C22_16 C 0.41116(16) 0.46805(13) 0.4340(4)
H23_16 H 0.3974 0.4553 0.4640
C23_16 C 0.44344(15) 0.47358(14) 0.4594(3)
H24_16 H 0.4511 0.4652 0.5057
C24_16 C 0.46316(12) 0.49214(12) 0.4120(3)
H25_16 H 0.4848 0.4957 0.4265
C25_12 C 0.45208(11) 0.50583(10) 0.3429(3)
C26_12 C 0.47558(10) 0.52345(10) 0.2955(3)
C27_11 C 0.47975(10) 0.56688(10) 0.1286(3)
C28_13 C 0.50236(10) 0.58442(11) 0.0734(3)
H26_13 H 0.5004 0.5746 0.0230
H27_13 H 0.5248 0.5817 0.0903
C29_11 C 0.49464(11) 0.62059(12) 0.0678(3)
H28_13 H 0.5081 0.6302 0.0279
H29_11 H 0.4719 0.6232 0.0529
C30_13 C 0.50049(14) 0.63894(12) 0.1425(4)
H30_11 H 0.4858 0.6305 0.1814
H31_13 H 0.5227 0.6349 0.1595
C31_11 C 0.49522(17) 0.67596(15) 0.1347(5)
H32_11 H 0.4729 0.6801 0.1185
H33_13 H 0.5097 0.6844 0.0955
C32_13 C 0.5016(2) 0.69398(17) 0.2098(5)
H34_11 H 0.4874 0.6855 0.2490
H35_13 H 0.5240 0.6909 0.2248
H36_11 H 0.4974 0.7169 0.2029
C33_11 C 0.41070(11) 0.61331(13) 0.2243(3)
H37_11 H 0.4182 0.6154 0.1742
C34_12 C 0.38826(16) 0.63952(16) 0.3340(5)
H38_12 H 0.4022 0.6522 0.3669
H39_12 H 0.3665 0.6485 0.3350
H40_12 H 0.3877 0.6173 0.3517
C35_11 C 0.39914(18) 0.67158(13) 0.2213(5)
H41_11 H 0.3768 0.6786 0.2176
H42_12 H 0.4113 0.6872 0.2508
H43_11 H 0.4084 0.6699 0.1709
N9_10 N 0.23824(9) 0.32417(10) 0.4229(2)
C49_16 C 0.26801(13) 0.31587(14) 0.4002(3)
H59_16 H 0.2759 0.2953 0.4132
C50_16 C 0.28775(16) 0.33641(15) 0.3584(4)
H60_16 H 0.3082 0.3293 0.3420
C51_16 C 0.27723(15) 0.36774(17) 0.3406(4)
C52_14 C 0.24637(13) 0.37551(17) 0.3632(3)
H61_14 H 0.2378 0.3958 0.3502
C53_14 C 0.22758(12) 0.35394(13) 0.4048(3)
H62_14 H 0.2068 0.3604 0.4208
C54_16 C 0.29900(16) 0.3911(2) 0.2965(4)
H63_16 H 0.2930 0.4135 0.3086
H64_16 H 0.3216 0.3878 0.3114
Mn1_14 Mn 0.220096(14) 0.363435(15) 0.72537(4)
O1_14 O 0.24202(7) 0.39891(6) 0.68467(17)
O2_12 O 0.29815(7) 0.36826(6) 0.87840(17)
O3_16 O 0.20236(6) 0.32631(6) 0.77937(17)
N1_12 N 0.25473(8) 0.35679(7) 0.79989(19)
N2_12 N 0.25052(8) 0.32854(8) 0.8472(2)
N3_16 N 0.19231(8) 0.39592(8) 0.8100(2)
C1_12 C 0.26682(10) 0.41641(10) 0.7147(3)
C2_12 C 0.27435(11) 0.44610(11) 0.6796(3)
H1_12 H 0.2625 0.4526 0.6366
C3_12 C 0.29873(12) 0.46595(11) 0.7067(3)
H2_12 H 0.3032 0.4857 0.6823
C4_12 C 0.31679(11) 0.45668(11) 0.7704(3)
H3_12 H 0.3333 0.4701 0.7894
C5_12 C 0.30978(10) 0.42744(10) 0.8048(3)
H4_12 H 0.3221 0.4210 0.8470
C6_12 C 0.28504(9) 0.40703(9) 0.7795(2)
C7_12 C 0.27942(10) 0.37597(9) 0.8217(2)
C8_16 C 0.22235(10) 0.31480(10) 0.8313(3)
C9_16 C 0.21123(11) 0.28614(11) 0.8780(3)
H5_16 H 0.2028 0.2693 0.8442
H6_16 H 0.2298 0.2771 0.9056
C10_16 C 0.18429(15) 0.29616(14) 0.9362(4)
H7_16 H 0.1672 0.3082 0.9098
H8_16 H 0.1936 0.3103 0.9751
C11_16 C 0.1698(3) 0.2661(3) 0.9738(6)
H9_14 H 0.1841 0.2477 0.9625
H10_16 H 0.1489 0.2616 0.9495
C14_16 C 0.19523(12) 0.39146(12) 0.8854(3)
H16_16 H 0.2098 0.3756 0.9028
C15_16 C 0.17790(13) 0.40900(13) 0.9383(3)
H17_16 H 0.1802 0.4046 0.9904
C16_16 C 0.15656(14) 0.43384(15) 0.9133(3)
C17_16 C 0.15423(12) 0.43905(12) 0.8362(3)
H18_16 H 0.1407 0.4556 0.8176
C18_16 C 0.17185(10) 0.41985(11) 0.7858(3)
H19_14 H 0.1696 0.4235 0.7334
C19_16 C 0.1357(2) 0.45450(19) 0.9683(4)
H20_16 H 0.1129 0.4495 0.9585
H21_16 H 0.1390 0.4774 0.9554
Mn2_12 Mn 0.290901(15) 0.326842(14) 0.93389(4)
O6_12 O 0.31738(6) 0.30171(6) 0.86329(16)
N4_12 N 0.28653(7) 0.28387(7) 0.9799(2)
C27_12 C 0.31688(10) 0.27025(10) 0.8786(3)
C28_14 C 0.33442(11) 0.24764(10) 0.8234(3)
H26_14 H 0.3246 0.2496 0.7730
H27_14 H 0.3317 0.2252 0.8403
C29_12 C 0.37059(12) 0.25536(11) 0.8178(3)
H28_14 H 0.3802 0.2419 0.7779
H29_12 H 0.3732 0.2781 0.8029
C30_14 C 0.38894(12) 0.24951(14) 0.8925(4)
H30_12 H 0.3805 0.2642 0.9314
H31_14 H 0.3849 0.2273 0.9095
C31_12 C 0.42596(15) 0.25478(17) 0.8847(5)
H32_12 H 0.4301 0.2771 0.8685
H33_14 H 0.4344 0.2403 0.8455
C32_14 C 0.44398(17) 0.2484(2) 0.9598(5)
H34_12 H 0.4355 0.2626 0.9990
H35_14 H 0.4409 0.2260 0.9748
H36_12 H 0.4669 0.2526 0.9529
C33_12 C 0.36331(13) 0.33930(11) 0.9743(3)
H37_12 H 0.3654 0.3318 0.9242
C35_12 C 0.42158(13) 0.35086(18) 0.9713(5)
H41_12 H 0.4286 0.3732 0.9676
H43_12 H 0.4199 0.3416 0.9209
O8_14 O 0.17037(7) 0.29840(7) 0.46741(17)
O9_14 O 0.18311(6) 0.36517(6) 0.65197(16)
O10_12 O 0.25360(6) 0.28676(6) 0.55902(16)
N7_14 N 0.20624(8) 0.32394(8) 0.58331(19)
N8_14 N 0.23360(8) 0.32810(8) 0.6323(2)
C36_14 C 0.14968(10) 0.32244(10) 0.4847(3)
C37_14 C 0.12156(12) 0.32477(11) 0.4384(3)
H44_14 H 0.1183 0.3097 0.3993
C38_14 C 0.09864(13) 0.34924(13) 0.4504(3)
H45_14 H 0.0803 0.3505 0.4190
C39_14 C 0.10290(11) 0.37191(12) 0.5089(3)
H46_14 H 0.0877 0.3885 0.5168
C40_14 C 0.13017(10) 0.36929(10) 0.5548(3)
H47_14 H 0.1331 0.3844 0.5941
C41_14 C 0.15382(10) 0.34464(9) 0.5446(2)
C42_14 C 0.18229(10) 0.34461(9) 0.5964(2)
C43_12 C 0.25671(10) 0.30808(10) 0.6138(2)
C44_12 C 0.28940(10) 0.30941(11) 0.6535(3)
H48_12 H 0.2959 0.2875 0.6685
H49_12 H 0.2876 0.3226 0.6995
C45_12 C 0.31549(11) 0.32398(14) 0.6011(3)
H50_12 H 0.3368 0.3212 0.6248
H51_12 H 0.3156 0.3121 0.5530
C46_12 C 0.31013(14) 0.36011(14) 0.5846(4)
H52_12 H 0.3097 0.3718 0.6330
H53_12 H 0.2888 0.3627 0.5609
C47_12 C 0.33582(15) 0.37600(17) 0.5328(4)
H54_12 H 0.3572 0.3731 0.5558
H55_12 H 0.3359 0.3648 0.4838
C48_12 C 0.3302(2) 0.4119(2) 0.5192(6)
H56_12 H 0.3074 0.4158 0.5106
H57_12 H 0.3425 0.4188 0.4750
H58_12 H 0.3373 0.4241 0.5632
C1_13 C 0.33359(10) 0.01682(10) 0.0353(3)
C2_13 C 0.30390(11) 0.02435(11) 0.0704(3)
H1_13 H 0.2974 0.0125 0.1134
C3_13 C 0.28405(11) 0.04873(12) 0.0433(3)
H2_13 H 0.2643 0.0532 0.0677
O10_13 O 0.46324(6) 0.00360(6) 0.19098(16)
C43_13 C 0.44192(10) 0.00671(10) 0.1362(2)
C44_13 C 0.44059(11) 0.03940(10) 0.0965(3)
H48_13 H 0.4625 0.0459 0.0815
H49_13 H 0.4274 0.0376 0.0505
C45_13 C 0.42602(14) 0.06549(11) 0.1489(3)
H50_13 H 0.4288 0.0868 0.1252
H51_13 H 0.4379 0.0656 0.1970
C46_13 C 0.38989(14) 0.06013(14) 0.1654(4)
H52_13 H 0.3782 0.0597 0.1170
H53_13 H 0.3873 0.0388 0.1891
C47_13 C 0.37400(17) 0.08582(15) 0.2172(4)
H54_13 H 0.3769 0.1072 0.1942
H55_13 H 0.3852 0.0859 0.2662
C48_13 C 0.3381(2) 0.0802(2) 0.2308(6)
H56_13 H 0.3342 0.0574 0.2394
H57_13 H 0.3312 0.0925 0.2750
H58_13 H 0.3259 0.0873 0.1868
O2_13 O 0.38174(6) 0.04815(7) 0.87160(17)
N1_13 N 0.39321(7) 0.00473(8) 0.95011(19)
N2_13 N 0.42146(8) 0.00052(8) 0.9028(2)
C4_13 C 0.29332(11) 0.06679(11) 0.9796(3)
H3_13 H 0.2799 0.0833 0.9606
C5_13 C 0.32256(10) 0.05978(10) 0.9452(3)
H4_13 H 0.3290 0.0721 0.9030
C6_13 C 0.34297(9) 0.03504(9) 0.9705(2)
C7_13 C 0.37403(9) 0.02942(10) 0.9283(2)
Mn2_13 Mn 0.423158(14) 0.040901(15) 0.81611(4)
O4_13 O 0.40535(7) 0.01362(7) 0.74132(19)
O5_8 O 0.50554(7) 0.02544(7) 0.68156(16)
O6_13 O 0.44829(6) 0.06738(6) 0.88671(16)
O7_13 O 0.41123(7) 0.08597(8) 0.74808(19)
N4_13 N 0.46613(7) 0.03653(7) 0.7701(2)
N5_7 N 0.49162(7) 0.05222(8) 0.8116(2)
N6_13 N 0.40051(11) 0.14042(10) 0.7418(3)
C20_13 C 0.41893(11) 0.00067(10) 0.6794(3)
C25_13 C 0.45208(11) 0.00583(10) 0.6571(3)
C26_13 C 0.47558(10) 0.02345(10) 0.7045(3)
C27_13 C 0.47975(10) 0.06688(10) 0.8714(3)
C28_15 C 0.50236(10) 0.08442(11) 0.9266(3)
H26_15 H 0.5004 0.0746 0.9770
H27_15 H 0.5248 0.0817 0.9097
C29_13 C 0.49464(11) 0.12059(12) 0.9322(3)
H28_15 H 0.5081 0.1302 0.9721
H29_13 H 0.4719 0.1232 0.9471
C30_15 C 0.50049(14) 0.13894(12) 0.8575(4)
H30_13 H 0.4858 0.1305 0.8186
H31_15 H 0.5227 0.1349 0.8405
C31_13 C 0.49522(17) 0.17596(15) 0.8653(5)
H32_13 H 0.4729 0.1801 0.8815
H33_15 H 0.5097 0.1844 0.9045
C32_15 C 0.5016(2) 0.19398(17) 0.7902(5)
H34_13 H 0.4874 0.1855 0.7510
H35_15 H 0.5240 0.1909 0.7752
H36_13 H 0.4974 0.2169 0.7971
C33_13 C 0.41070(11) 0.11331(13) 0.7757(3)
H37_13 H 0.4182 0.1154 0.8258
C34_13 C 0.38826(16) 0.13952(16) 0.6660(5)
H38_13 H 0.4022 0.1522 0.6331
H39_13 H 0.3665 0.1485 0.6650
H40_13 H 0.3877 0.1173 0.6483
C35_13 C 0.39914(18) 0.17158(13) 0.7787(5)
H41_13 H 0.3768 0.1786 0.7824
H42_13 H 0.4113 0.1872 0.7492
H43_13 H 0.4084 0.1699 0.8291
Mn4_8 Mn 0.539940(14) 0.038050(15) 0.75652(4)
Mn1_15 Mn 0.613435(15) 0.029904(14) 0.97537(4)
O1_15 O 0.64891(6) 0.00798(7) 0.93467(17)
H19_15 H 0.6735 0.0804 0.9834
O8_15 O 0.54840(7) 0.07963(7) 0.71741(17)
O9_15 O 0.61517(6) 0.06689(6) 0.90197(16)
N7_15 N 0.57394(8) 0.04376(8) 0.83331(19)
N8_15 N 0.57810(8) 0.01640(8) 0.8823(2)
C36_15 C 0.57244(10) 0.10032(10) 0.7347(3)
C37_15 C 0.57477(11) 0.12844(12) 0.6884(3)
H44_15 H 0.5597 0.1317 0.6493
C38_15 C 0.59924(13) 0.15136(13) 0.7004(3)
H45_15 H 0.6005 0.1697 0.6690
C39_15 C 0.62191(12) 0.14710(11) 0.7589(3)
H46_15 H 0.6385 0.1623 0.7668
C40_15 C 0.61929(10) 0.11983(10) 0.8048(3)
H47_15 H 0.6344 0.1169 0.8441
C41_15 C 0.59464(9) 0.09618(10) 0.7946(2)
C42_15 C 0.59461(9) 0.06771(10) 0.8464(2)
N11_5 N 0.57417(10) 0.01176(9) 0.6729(2)
C52_15 C 0.62551(17) 0.00363(13) 0.6132(3)
H61_15 H 0.6458 0.0122 0.6002
C53_15 C 0.60394(13) 0.02242(12) 0.6548(3)
H62_15 H 0.6104 0.0432 0.6708
Mn1_16 Mn 0.386565(15) 0.970096(14) 0.02463(4)
O1_16 O 0.35109(6) 0.99202(7) 0.06533(17)
H19_16 H 0.3265 0.9196 0.0166
Mn3_3 Mn 0.460060(14) 0.961950(15) 0.24348(4)
O8_16 O 0.45160(7) 0.92037(7) 0.28259(17)
O9_16 O 0.38483(6) 0.93311(6) 0.09803(16)
N7_16 N 0.42606(8) 0.95624(8) 0.16669(19)
N8_16 N 0.42190(8) 0.98360(8) 0.1177(2)
C36_16 C 0.42756(10) 0.89968(10) 0.2653(3)
C37_16 C 0.42523(11) 0.87156(12) 0.3116(3)
H44_16 H 0.4403 0.8683 0.3507
C38_16 C 0.40076(13) 0.84864(13) 0.2996(3)
H45_16 H 0.3995 0.8303 0.3310
C39_16 C 0.37809(12) 0.85290(11) 0.2411(3)
H46_16 H 0.3615 0.8377 0.2332
C40_16 C 0.38071(10) 0.88017(10) 0.1952(3)
H47_16 H 0.3656 0.8831 0.1559
C41_16 C 0.40536(9) 0.90382(10) 0.2054(2)
C42_16 C 0.40539(9) 0.93229(10) 0.1536(2)
O11_8 O 0.49446(7) 0.97456(7) 0.31844(16)
N10_7 N 0.50838(7) 0.94778(8) 0.1884(2)
N11_6 N 0.42583(10) 0.98824(9) 0.3271(2)
C52_16 C 0.37449(17) 0.99637(13) 0.3868(3)
H61_16 H 0.3542 0.9878 0.3998
C53_16 C 0.39606(13) 0.97758(12) 0.3452(3)
H62_16 H 0.3896 0.9568 0.3292
O2_14 O 0.61826(6) 0.95185(7) 0.12840(17)
N1_14 N 0.60679(7) 0.99527(8) 0.04989(19)
N2_14 N 0.57854(8) 0.99948(8) 0.0972(2)
C4_14 C 0.70668(11) 0.93321(11) 0.0204(3)
H3_14 H 0.7201 0.9167 0.0394
C5_14 C 0.67744(10) 0.94022(10) 0.0548(3)
H4_14 H 0.6710 0.9279 0.0970
C6_14 C 0.65703(9) 0.96496(9) 0.0295(2)
C7_14 C 0.62597(9) 0.97058(10) 0.0717(2)
Mn2_14 Mn 0.576842(14) 0.959099(15) 0.18389(4)
O4_14 O 0.59465(7) 0.98638(7) 0.25868(19)
O6_14 O 0.55171(6) 0.93262(6) 0.11329(16)
O7_14 O 0.58877(7) 0.91403(8) 0.25192(19)
N4_14 N 0.53387(7) 0.96347(7) 0.2299(2)
N6_14 N 0.59949(11) 0.85958(10) 0.2582(3)
C20_14 C 0.58107(11) 0.99933(10) 0.3206(3)
C25_14 C 0.54792(11) 0.99417(10) 0.3429(3)
C26_14 C 0.52442(10) 0.97655(10) 0.2955(3)
C27_14 C 0.52025(10) 0.93312(10) 0.1286(3)
C28_16 C 0.49764(10) 0.91558(11) 0.0734(3)
H26_16 H 0.4996 0.9254 0.0230
H27_16 H 0.4752 0.9183 0.0903
C29_14 C 0.50536(11) 0.87941(12) 0.0678(3)
H28_16 H 0.4919 0.8698 0.0279
H29_14 H 0.5281 0.8768 0.0529
C30_16 C 0.49951(14) 0.86106(12) 0.1425(4)
H30_14 H 0.5142 0.8695 0.1814
H31_16 H 0.4773 0.8651 0.1595
C31_14 C 0.50478(17) 0.82404(15) 0.1347(5)
H32_14 H 0.5271 0.8199 0.1185
H33_16 H 0.4903 0.8156 0.0955
C32_16 C 0.4984(2) 0.80602(17) 0.2098(5)
H34_14 H 0.5126 0.8145 0.2490
H35_16 H 0.4760 0.8091 0.2248
H36_14 H 0.5026 0.7831 0.2029
C33_14 C 0.58930(11) 0.88669(13) 0.2243(3)
H37_14 H 0.5818 0.8846 0.1742
C34_14 C 0.61174(16) 0.86048(16) 0.3340(5)
H38_14 H 0.5978 0.8478 0.3669
H39_14 H 0.6335 0.8515 0.3350
H40_14 H 0.6123 0.8827 0.3517
C35_14 C 0.60086(18) 0.82842(13) 0.2213(5)
H41_14 H 0.6232 0.8214 0.2176
H42_14 H 0.5887 0.8128 0.2508
H43_14 H 0.5916 0.8301 0.1709
O2_15 O 0.11826(6) 0.95185(7) 0.37160(17)
N1_15 N 0.10679(7) 0.99527(8) 0.45011(19)
N2_15 N 0.07854(8) 0.99948(8) 0.4028(2)
C1_14 C 0.16641(10) 0.98318(10) 0.5353(3)
C2_14 C 0.19610(11) 0.97565(11) 0.5704(3)
H1_14 H 0.2026 0.9875 0.6134
C3_14 C 0.21595(11) 0.95127(12) 0.5433(3)
H2_14 H 0.2357 0.9468 0.5677
C4_15 C 0.20668(11) 0.93321(11) 0.4796(3)
H3_15 H 0.2201 0.9167 0.4606
C5_15 C 0.17744(10) 0.94022(10) 0.4452(3)
H4_15 H 0.1710 0.9279 0.4030
C6_15 C 0.15703(9) 0.96496(9) 0.4705(2)
C7_15 C 0.12597(9) 0.97058(10) 0.4283(2)
Mn2_15 Mn 0.076842(14) 0.959099(15) 0.31611(4)
O4_15 O 0.09465(7) 0.98638(7) 0.24132(19)
O6_15 O 0.05171(6) 0.93262(6) 0.38671(16)
O7_15 O 0.08877(7) 0.91403(8) 0.24808(19)
N4_15 N 0.03387(7) 0.96347(7) 0.2701(2)
N5_8 N 0.00838(7) 0.94778(8) 0.3116(2)
N6_15 N 0.09949(11) 0.85958(10) 0.2418(3)
C20_15 C 0.08107(11) 0.99933(10) 0.1794(3)
C25_15 C 0.04792(11) 0.99417(10) 0.1571(3)
C26_15 C 0.02442(10) 0.97655(10) 0.2045(3)
C27_15 C 0.02025(10) 0.93312(10) 0.3714(3)
C29_15 C 0.00536(11) 0.87941(12) 0.4322(3)
H29_15 H 0.0281 0.8768 0.4471
H30_15 H 0.0142 0.8695 0.3186
C31_15 C 0.00478(17) 0.82404(15) 0.3653(5)
H32_15 H 0.0271 0.8199 0.3815
H34_15 H 0.0126 0.8145 0.2510
H36_15 H 0.0026 0.7831 0.2971
C33_15 C 0.08930(11) 0.88669(13) 0.2757(3)
H37_15 H 0.0818 0.8846 0.3258
C34_15 C 0.11174(16) 0.86048(16) 0.1660(5)
H38_15 H 0.0978 0.8478 0.1331
H39_15 H 0.1335 0.8515 0.1650
H40_15 H 0.1123 0.8827 0.1483
C35_15 C 0.10086(18) 0.82842(13) 0.2787(5)
H41_15 H 0.1232 0.8214 0.2824
H42_15 H 0.0887 0.8128 0.2492
H43_15 H 0.0916 0.8301 0.3291
O10_14 O 0.03676(6) 0.99640(6) 0.69098(16)
C43_14 C 0.05808(10) 0.99329(10) 0.6362(2)
C44_14 C 0.05941(11) 0.96060(10) 0.5965(3)
H48_14 H 0.0375 0.9541 0.5815
H49_14 H 0.0726 0.9624 0.5505
C45_14 C 0.07398(14) 0.93451(11) 0.6489(3)
H50_14 H 0.0712 0.9132 0.6252
H51_14 H 0.0621 0.9344 0.6970
C46_14 C 0.11011(14) 0.93987(14) 0.6654(4)
H52_14 H 0.1218 0.9403 0.6170
H53_14 H 0.1127 0.9612 0.6891
C47_14 C 0.12600(17) 0.91418(15) 0.7172(4)
H54_14 H 0.1231 0.8928 0.6942
H55_14 H 0.1148 0.9141 0.7662
C48_14 C 0.1619(2) 0.9198(2) 0.7308(6)
H56_14 H 0.1658 0.9426 0.7394
H57_14 H 0.1688 0.9075 0.7750
H58_14 H 0.1741 0.9127 0.6868
H9_15 H 0.0023 0.9341 0.7125
C13_15 C 0.0139(3) 0.8967(3) 0.8289(8)
H13_15 H 0.0246 0.8827 0.7926
H14_15 H 0.0292 0.9125 0.8482
H15_15 H 0.0056 0.8838 0.8707
H9_16 H 0.9977 0.0659 0.2875
C13_16 C 0.9861(3) 0.1033(3) 0.1711(8)
H13_16 H 0.9754 0.1173 0.2074
H14_16 H 0.9708 0.0875 0.1518
H15_16 H 0.9944 0.1162 0.1293
N10_8 N 0.99162(7) 0.05222(8) 0.6884(2)
O2_16 O 0.88174(6) 0.04815(7) 0.62840(17)
N1_16 N 0.89321(7) 0.00473(8) 0.54989(19)
N2_16 N 0.92146(8) 0.00052(8) 0.5972(2)
C1_15 C 0.83359(10) 0.01682(10) 0.4647(3)
C2_15 C 0.80390(11) 0.02435(11) 0.4296(3)
H1_15 H 0.7974 0.0125 0.3866
C3_15 C 0.78405(11) 0.04873(12) 0.4567(3)
H2_15 H 0.7643 0.0532 0.4323
C4_16 C 0.79332(11) 0.06679(11) 0.5204(3)
H3_16 H 0.7799 0.0833 0.5394
C5_16 C 0.82256(10) 0.05978(10) 0.5548(3)
H4_16 H 0.8290 0.0721 0.5970
C6_16 C 0.84297(9) 0.03504(9) 0.5295(2)
C7_16 C 0.87403(9) 0.02942(10) 0.5717(2)
Mn2_16 Mn 0.923158(14) 0.040901(15) 0.68389(4)
O4_16 O 0.90535(7) 0.01362(7) 0.75868(19)
O6_16 O 0.94829(6) 0.06738(6) 0.61329(16)
O7_16 O 0.91123(7) 0.08597(8) 0.75192(19)
N4_16 N 0.96613(7) 0.03653(7) 0.7299(2)
N6_16 N 0.90051(11) 0.14042(10) 0.7582(3)
C20_16 C 0.91893(11) 0.00067(10) 0.8206(3)
C25_16 C 0.95208(11) 0.00583(10) 0.8429(3)
C26_16 C 0.97558(10) 0.02345(10) 0.7955(3)
C27_16 C 0.97975(10) 0.06688(10) 0.6286(3)
C29_16 C 0.99464(11) 0.12059(12) 0.5678(3)
H29_16 H 0.9719 0.1232 0.5529
H30_16 H 0.9858 0.1305 0.6814
C31_16 C 0.99522(17) 0.17596(15) 0.6347(5)
H32_16 H 0.9729 0.1801 0.6185
H34_16 H 0.9874 0.1855 0.7490
H36_16 H 0.9974 0.2169 0.7029
C33_16 C 0.91070(11) 0.11331(13) 0.7243(3)
H37_16 H 0.9182 0.1154 0.6742
C34_16 C 0.88826(16) 0.13952(16) 0.8340(5)
H38_16 H 0.9022 0.1522 0.8669
H39_16 H 0.8665 0.1485 0.8350
H40_16 H 0.8877 0.1173 0.8517
C35_16 C 0.89914(18) 0.17158(13) 0.7213(5)
H41_16 H 0.8768 0.1786 0.7176
H42_16 H 0.9113 0.1872 0.7508
H43_16 H 0.9084 0.1699 0.6709
O10_15 O 0.96324(6) 0.00360(6) 0.30902(16)
C43_15 C 0.94192(10) 0.00671(10) 0.3638(2)
C44_15 C 0.94059(11) 0.03940(10) 0.4035(3)
H48_15 H 0.9625 0.0459 0.4185
H49_15 H 0.9274 0.0376 0.4495
C45_15 C 0.92602(14) 0.06549(11) 0.3511(3)
H50_15 H 0.9288 0.0868 0.3748
H51_15 H 0.9379 0.0656 0.3030
C46_15 C 0.88989(14) 0.06013(14) 0.3346(4)
H52_15 H 0.8782 0.0597 0.3830
H53_15 H 0.8873 0.0388 0.3109
C47_15 C 0.87400(17) 0.08582(15) 0.2828(4)
H54_15 H 0.8769 0.1072 0.3058
H55_15 H 0.8852 0.0859 0.2338
C48_15 C 0.8381(2) 0.0802(2) 0.2692(6)
H56_15 H 0.8342 0.0574 0.2606
H57_15 H 0.8312 0.0925 0.2250
H58_15 H 0.8259 0.0873 0.3132
C1_16 C 0.66641(10) 0.98318(10) 0.9647(3)
C2_16 C 0.69610(11) 0.97565(11) 0.9296(3)
H1_16 H 0.7026 0.9875 0.8866
C3_16 C 0.71595(11) 0.95127(12) 0.9567(3)
H2_16 H 0.7357 0.9468 0.9323
O10_16 O 0.53676(6) 0.99640(6) 0.80902(16)
C43_16 C 0.55808(10) 0.99329(10) 0.8638(2)
C44_16 C 0.55941(11) 0.96060(10) 0.9035(3)
H48_16 H 0.5375 0.9541 0.9185
H49_16 H 0.5726 0.9624 0.9495
C45_16 C 0.57398(14) 0.93451(11) 0.8511(3)
H50_16 H 0.5712 0.9132 0.8748
H51_16 H 0.5621 0.9344 0.8030
C46_16 C 0.61011(14) 0.93987(14) 0.8346(4)
H52_16 H 0.6218 0.9403 0.8830
H53_16 H 0.6127 0.9612 0.8109
C47_16 C 0.62600(17) 0.91418(15) 0.7828(4)
H54_16 H 0.6231 0.8928 0.8058
H55_16 H 0.6148 0.9141 0.7338
C48_16 C 0.6619(2) 0.9198(2) 0.7692(6)
H56_16 H 0.6658 0.9426 0.7606
H57_16 H 0.6688 0.9075 0.7250
H58_16 H 0.6741 0.9127 0.8132
loop_
_geom_bond_atom_site_label_1
_geom_bond_atom_site_label_2
_geom_bond_site_symmetry_1
_geom_bond_site_symmetry_2
H61 C52 1_555 1_555
C53 N9 1_555 1_555
H62 C53 1_555 1_555
Mn5 N9 1_555 1_555
C52 C53 1_555 1_555
H11 C12 1_555 1_555
H12 C12 1_555 1_555
C13 C12 1_555 1_555
H13 C13 1_555 1_555
H14 C13 1_555 1_555
H15 C13 1_555 1_555
O5 C26 1_555 1_555
C20 O4 1_555 1_555
C21 C20 1_555 1_555
H22 C21 1_555 1_555
C22 C21 1_555 1_555
H23 C22 1_555 1_555
C23 C22 1_555 1_555
H24 C23 1_555 1_555
C24 C23 1_555 1_555
H25 C24 1_555 1_555
C25 C20 1_555 1_555
C34 N6 1_555 1_555
H38 C34 1_555 1_555
H39 C34 1_555 1_555
H40 C34 1_555 1_555
C49 H59 1_555 1_555
C50 C49 1_555 1_555
H60 C50 1_555 1_555
C51 C50 1_555 1_555
H63 C54 1_555 1_555
H64 C54 1_555 1_555
C24 C25 1_555 1_555
C25 C26 1_555 1_555
C51 C54 1_555 1_555
H13_2 C13_2 1_555 1_555
H14_2 C13_2 1_555 1_555
H15_2 C13_2 1_555 1_555
H26 C28 1_555 1_555
H27 C28 1_555 1_555
H31 C30 1_555 1_555
H35 C32 1_555 1_555
Mn4 O5_2 1_555 1_555
Mn1 O1 1_555 1_555
O3 Mn1 1_555 1_555
N3 Mn1 1_555 1_555
C8 O3 1_555 1_555
C9 C8 1_555 1_555
H5 C9 1_555 1_555
H6 C9 1_555 1_555
C10 C9 1_555 1_555
H7 C10 1_555 1_555
H8 C10 1_555 1_555
C11 C10 1_555 1_555
H10 C11 1_555 1_555
C12_2 C11 1_555 1_555
H11_2 C12_2 1_555 1_555
H12_2 C12_2 1_555 1_555
C14 N3 1_555 1_555
H16 C14 1_555 1_555
C15 C14 1_555 1_555
H17 C15 1_555 1_555
C16 C15 1_555 1_555
C17 C16 1_555 1_555
H18 C17 1_555 1_555
C18 N3 1_555 1_555
H19 C18 1_555 1_555
C19 C16 1_555 1_555
H20 C19 1_555 1_555
H21 C19 1_555 1_555
H22_2 C21_2 1_555 1_555
C22_2 C21_2 1_555 1_555
H23_2 C22_2 1_555 1_555
C23_2 C22_2 1_555 1_555
C24_2 C23_2 1_555 1_555
H25_2 C24_2 1_555 1_555
Mn5 O8 1_555 1_555
O8 C36 1_555 1_555
O9 Mn1 1_555 1_555
N7 Mn5 1_555 1_555
N8 Mn1 1_555 1_555
N9_2 C49_2 1_555 1_555
C36 C37 1_555 1_555
C37 H44 1_555 1_555
C38 C37 1_555 1_555
H45 C38 1_555 1_555
C39 C38 1_555 1_555
H46 C39 1_555 1_555
C40 C39 1_555 1_555
H47 C40 1_555 1_555
C41 C36 1_555 1_555
C42 O9 1_555 1_555
C49_2 H59_2 1_555 1_555
C50_2 C49_2 1_555 1_555
H60_2 C50_2 1_555 1_555
C51_2 C50_2 1_555 1_555
C52_2 C51_2 1_555 1_555
H61_2 C52_2 1_555 1_555
C53_2 N9_2 1_555 1_555
H62_2 C53_2 1_555 1_555
C54_2 C19 1_555 1_555
H63_2 C54_2 1_555 1_555
H64_2 C54_2 1_555 1_555
O11 Mn5 1_555 1_555
C17 C18 1_555 1_555
N7 N8 1_555 1_555
N7 C42 1_555 1_555
C40 C41 1_555 1_555
C41 C42 1_555 1_555
C51_2 C54_2 1_555 1_555
C52_2 C53_2 1_555 1_555
O8_2 C36_2 1_555 1_555
C36_2 C37_2 1_555 1_555
C37_2 H44_2 1_555 1_555
C38_2 C37_2 1_555 1_555
H45_2 C38_2 1_555 1_555
Mn1_2 O1_2 1_555 1_555
O1_2 C1 1_555 1_555
O2 C7 1_555 1_555
O3_2 Mn1_2 1_555 1_555
N1 Mn1_2 1_555 1_555
N2 N1 1_555 1_555
N3_2 Mn1_2 1_555 1_555
C1 C2 1_555 1_555
C2 H1 1_555 1_555
C3 C2 1_555 1_555
H2 C3 1_555 1_555
C4 C3 1_555 1_555
H3 C4 1_555 1_555
C5 C4 1_555 1_555
H4 C5 1_555 1_555
C6 C1 1_555 1_555
C7 N1 1_555 1_555
C8_2 O3_2 1_555 1_555
C9_2 C8_2 1_555 1_555
H5_2 C9_2 1_555 1_555
H6_2 C9_2 1_555 1_555
C10_2 C9_2 1_555 1_555
H7_2 C10_2 1_555 1_555
H8_2 C10_2 1_555 1_555
C11_2 C10_2 1_555 1_555
H10_2 C11_2 1_555 1_555
C12_3 C11_2 1_555 1_555
H11_3 C12_3 1_555 1_555
H12_3 C12_3 1_555 1_555
C14_2 N3_2 1_555 1_555
H16_2 C14_2 1_555 1_555
C15_2 C14_2 1_555 1_555
H17_2 C15_2 1_555 1_555
C16_2 C15_2 1_555 1_555
C17_2 C16_2 1_555 1_555
H18_2 C17_2 1_555 1_555
C18_2 N3_2 1_555 1_555
H19_2 C18_2 1_555 1_555
C19_2 C16_2 1_555 1_555
H20_2 C19_2 1_555 1_555
H21_2 C19_2 1_555 1_555
Mn2 O2 1_555 1_555
O4_2 Mn2 1_555 1_555
O6 Mn2 1_555 1_555
O7_2 Mn2 1_555 1_555
N4 Mn2 1_555 1_555
N10 N4 1_555 1_555
N6_2 C33 1_555 1_555
C20_2 O4_2 1_555 1_555
C21_3 C20_2 1_555 1_555
H22_3 C21_3 1_555 1_555
C22_3 C21_3 1_555 1_555
H23_3 C22_3 1_555 1_555
C23_3 C22_3 1_555 1_555
C24_3 C23_3 1_555 1_555
H25_3 C24_3 1_555 1_555
C25_2 C20_2 1_555 1_555
C26_2 N4 1_555 1_555
C27 O6 1_555 1_555
H29 C29 1_555 1_555
H32 C31 1_555 1_555
C33 O7_2 1_555 1_555
H37 C33 1_555 1_555
C34_2 N6_2 1_555 1_555
H38_2 C34_2 1_555 1_555
H39_2 C34_2 1_555 1_555
H40_2 C34_2 1_555 1_555
C35 N6_2 1_555 1_555
H41 C35 1_555 1_555
H42_2 C35 1_555 1_555
H43 C35 1_555 1_555
Mn4 O8_3 1_555 1_555
O8_3 C36_3 1_555 1_555
O9_2 Mn1_2 1_555 1_555
O10 Mn4 1_555 1_555
N7_2 Mn4 1_555 1_555
N8_2 Mn1_2 1_555 1_555
N9_3 C49_3 1_555 1_555
C36_3 C37_3 1_555 1_555
C37_3 H44_3 1_555 1_555
C38_3 C37_3 1_555 1_555
H45_3 C38_3 1_555 1_555
C39_2 C38_3 1_555 1_555
H46_2 C39_2 1_555 1_555
C40_2 C39_2 1_555 1_555
H47_2 C40_2 1_555 1_555
C41_2 C36_3 1_555 1_555
C42_2 O9_2 1_555 1_555
C43 O10 1_555 1_555
C44 C43 1_555 1_555
H48 C44 1_555 1_555
H49 C44 1_555 1_555
C45 C44 1_555 1_555
H50 C45 1_555 1_555
H51 C45 1_555 1_555
C46 C45 1_555 1_555
H52 C46 1_555 1_555
H53 C46 1_555 1_555
C47 C46 1_555 1_555
H54 C47 1_555 1_555
H55_2 C47 1_555 1_555
C48 C47 1_555 1_555
H56 C48 1_555 1_555
H57_2 C48 1_555 1_555
H58 C48 1_555 1_555
C49_3 H59_3 1_555 1_555
C50_3 C49_3 1_555 1_555
H60_3 C50_3 1_555 1_555
C51_3 C50_3 1_555 1_555
C52_3 C51_3 1_555 1_555
H61_3 C52_3 1_555 1_555
C53_3 N9_3 1_555 1_555
H62_3 C53_3 1_555 1_555
C54_3 C19_2 1_555 1_555
H63_3 C54_3 1_555 1_555
H64_3 C54_3 1_555 1_555
N11 Mn4 1_555 1_555
N2 C8_2 1_555 1_555
N2 Mn2 1_555 1_555
C5 C6 1_555 1_555
C6 C7 1_555 1_555
C17_2 C18_2 1_555 1_555
N10 C27 1_555 1_555
C24_3 C25_2 1_555 1_555
C25_2 C26_2 1_555 1_555
N7_2 N8_2 1_555 1_555
N7_2 C42_2 1_555 1_555
N8_2 C43 1_555 1_555
C40_2 C41_2 1_555 1_555
C41_2 C42_2 1_555 1_555
C51_3 C54_3 1_555 1_555
C52_3 C53_3 1_555 1_555
O8_4 C36_4 1_555 1_555
C36_4 C37_4 1_555 1_555
C37_4 H44_4 1_555 1_555
C38_4 C37_4 1_555 1_555
H45_4 C38_4 1_555 1_555
H26_2 C28_2 1_555 1_555
H27_2 C28_2 1_555 1_555
H31_2 C30_2 1_555 1_555
H35_2 C32_2 1_555 1_555
H11_4 C12_4 1_555 1_555
H12_4 C12_4 1_555 1_555
C13_3 C12_4 1_555 1_555
H13_3 C13_3 1_555 1_555
H14_3 C13_3 1_555 1_555
H15_3 C13_3 1_555 1_555
O11_2 C26_3 1_555 1_555
C20_3 O4_3 1_555 1_555
C21_4 C20_3 1_555 1_555
H22_4 C21_4 1_555 1_555
C22_4 C21_4 1_555 1_555
H23_4 C22_4 1_555 1_555
C23_4 C22_4 1_555 1_555
H24_2 C23_4 1_555 1_555
C24_4 C23_4 1_555 1_555
H25_4 C24_4 1_555 1_555
C25_3 C20_3 1_555 1_555
C34_3 N6_3 1_555 1_555
H38_3 C34_3 1_555 1_555
H39_3 C34_3 1_555 1_555
H40_3 C34_3 1_555 1_555
N11 C49_4 1_555 1_555
C49_4 H59_4 1_555 1_555
C50_4 C49_4 1_555 1_555
H60_4 C50_4 1_555 1_555
C51_4 C50_4 1_555 1_555
C52_4 C51_4 1_555 1_555
H61_4 C52_4 1_555 1_555
C53_4 N11 1_555 1_555
H62_4 C53_4 1_555 1_555
H63_4 C54_4 1_555 1_555
H64_4 C54_4 1_555 1_555
C24_4 C25_3 1_555 1_555
C25_3 C26_3 1_555 1_555
C51_4 C54_4 1_555 1_555
C52_4 C53_4 1_555 1_555
Mn1_3 O1_3 1_555 1_555
O1_3 C1_2 1_555 1_555
O2_2 C7_2 1_555 1_555
O3_3 Mn1_3 1_555 1_555
N1_2 Mn1_3 1_555 1_555
N2_2 N1_2 1_555 1_555
N3_3 Mn1_3 1_555 1_555
C1_2 C2_2 1_555 1_555
C2_2 H1_2 1_555 1_555
C3_2 C2_2 1_555 1_555
H2_2 C3_2 1_555 1_555
C4_2 C3_2 1_555 1_555
H3_2 C4_2 1_555 1_555
C5_2 C4_2 1_555 1_555
H4_2 C5_2 1_555 1_555
C6_2 C1_2 1_555 1_555
C7_2 N1_2 1_555 1_555
C8_3 O3_3 1_555 1_555
C9_3 C8_3 1_555 1_555
H5_3 C9_3 1_555 1_555
H6_3 C9_3 1_555 1_555
C10_3 C9_3 1_555 1_555
H7_3 C10_3 1_555 1_555
H8_3 C10_3 1_555 1_555
C11_3 C10_3 1_555 1_555
H9_2 C11_3 1_555 1_555
H10_3 C11_3 1_555 1_555
C14_3 N3_3 1_555 1_555
H16_3 C14_3 1_555 1_555
C15_3 C14_3 1_555 1_555
H17_3 C15_3 1_555 1_555
C16_3 C15_3 1_555 1_555
C17_3 C16_3 1_555 1_555
H18_3 C17_3 1_555 1_555
C18_3 N3_3 1_555 1_555
H19_3 C18_3 1_555 1_555
C19_3 C16_3 1_555 1_555
H20_3 C19_3 1_555 1_555
H21_3 C19_3 1_555 1_555
Mn2_2 O2_2 1_555 1_555
O6_2 Mn2_2 1_555 1_555
N4_2 Mn2_2 1_555 1_555
N5 N4_2 1_555 1_555
C27_2 O6_2 1_555 1_555
C28_3 C27_2 1_555 1_555
H26_3 C28_3 1_555 1_555
H27_3 C28_3 1_555 1_555
C29_2 C28_3 1_555 1_555
H28_3 C29_2 1_555 1_555
H29_2 C29_2 1_555 1_555
C30_3 C29_2 1_555 1_555
H30_2 C30_3 1_555 1_555
H31_3 C30_3 1_555 1_555
C31_2 C30_3 1_555 1_555
H32_2 C31_2 1_555 1_555
H33_3 C31_2 1_555 1_555
C32_3 C31_2 1_555 1_555
H34_2 C32_3 1_555 1_555
H35_3 C32_3 1_555 1_555
H36_2 C32_3 1_555 1_555
H37_2 C33_2 1_555 1_555
H41_2 C35_2 1_555 1_555
H43_2 C35_2 1_555 1_555
Mn3 O8_5 1_555 1_555
O8_5 C36_5 1_555 1_555
O9_3 Mn1_3 1_555 1_555
O10_2 Mn3 1_555 1_555
N7_3 Mn3 1_555 1_555
N8_3 Mn1_3 1_555 1_555
C36_5 C37_5 1_555 1_555
C37_5 H44_5 1_555 1_555
C38_5 C37_5 1_555 1_555
H45_5 C38_5 1_555 1_555
C39_3 C38_5 1_555 1_555
H46_3 C39_3 1_555 1_555
C40_3 C39_3 1_555 1_555
H47_3 C40_3 1_555 1_555
C41_3 C36_5 1_555 1_555
C42_3 O9_3 1_555 1_555
C43_2 O10_2 1_555 1_555
C44_2 C43_2 1_555 1_555
H48_2 C44_2 1_555 1_555
H49_2 C44_2 1_555 1_555
C45_2 C44_2 1_555 1_555
H50_2 C45_2 1_555 1_555
H51_2 C45_2 1_555 1_555
C46_2 C45_2 1_555 1_555
H52_2 C46_2 1_555 1_555
H53_2 C46_2 1_555 1_555
C47_2 C46_2 1_555 1_555
H54_2 C47_2 1_555 1_555
H55_4 C47_2 1_555 1_555
C48_2 C47_2 1_555 1_555
H56_2 C48_2 1_555 1_555
H57_4 C48_2 1_555 1_555
H58_2 C48_2 1_555 1_555
O11_3 Mn3 1_555 1_555
N10_2 Mn3 1_555 1_555
N11_2 Mn3 1_555 1_555
N2_2 C8_3 1_555 1_555
N2_2 Mn2_2 1_555 1_555
C5_2 C6_2 1_555 1_555
C6_2 C7_2 1_555 1_555
C17_3 C18_3 1_555 1_555
N5 C27_2 1_555 1_555
N5 Mn4_2 1_555 1_555
N7_3 N8_3 1_555 1_555
N7_3 C42_3 1_555 1_555
N8_3 C43_2 1_555 1_555
C40_3 C41_3 1_555 1_555
C41_3 C42_3 1_555 1_555
C8_4 O3_4 1_555 1_555
C9_4 C8_4 1_555 1_555
H5_4 C9_4 1_555 1_555
H6_4 C9_4 1_555 1_555
C10_4 C9_4 1_555 1_555
H7_4 C10_4 1_555 1_555
H8_4 C10_4 1_555 1_555
C11_4 C10_4 1_555 1_555
H9_3 C11_4 1_555 1_555
H10_4 C11_4 1_555 1_555
C12_5 C11_4 1_555 1_555
H11_5 C12_5 1_555 1_555
H12_5 C12_5 1_555 1_555
C13_4 C12_5 1_555 1_555
H13_4 C13_4 1_555 1_555
H14_4 C13_4 1_555 1_555
H15_4 C13_4 1_555 1_555
C14_4 N3_4 1_555 1_555
H16_4 C14_4 1_555 1_555
C15_4 C14_4 1_555 1_555
H17_4 C15_4 1_555 1_555
C16_4 C15_4 1_555 1_555
C17_4 C16_4 1_555 1_555
H18_4 C17_4 1_555 1_555
C18_4 N3_4 1_555 1_555
C19_4 C16_4 1_555 1_555
H20_4 C19_4 1_555 1_555
H21_4 C19_4 1_555 1_555
H22_5 C21_5 1_555 1_555
C22_5 C21_5 1_555 1_555
H23_5 C22_5 1_555 1_555
C23_5 C22_5 1_555 1_555
H24_3 C23_5 1_555 1_555
C24_5 C23_5 1_555 1_555
H25_5 C24_5 1_555 1_555
N11_2 C49_5 1_555 1_555
C49_5 H59_5 1_555 1_555
C50_5 C49_5 1_555 1_555
H60_5 C50_5 1_555 1_555
C51_5 C50_5 1_555 1_555
C52_5 C51_5 1_555 1_555
H61_5 C52_5 1_555 1_555
C53_5 N11_2 1_555 1_555
H62_5 C53_5 1_555 1_555
C54_5 C19_4 1_555 1_555
H63_5 C54_5 1_555 1_555
H64_5 C54_5 1_555 1_555
C17_4 C18_4 1_555 1_555
C51_5 C54_5 1_555 1_555
C52_5 C53_5 1_555 1_555
O2_3 C7_3 1_555 1_555
N2_3 N1_3 1_555 1_555
H3_3 C4_3 1_555 1_555
C5_3 C4_3 1_555 1_555
H4_3 C5_3 1_555 1_555
C7_3 N1_3 1_555 1_555
C8_5 O3_5 1_555 1_555
C9_5 C8_5 1_555 1_555
H5_5 C9_5 1_555 1_555
H6_5 C9_5 1_555 1_555
C10_5 C9_5 1_555 1_555
H7_5 C10_5 1_555 1_555
H8_5 C10_5 1_555 1_555
C11_5 C10_5 1_555 1_555
H9_4 C11_5 1_555 1_555
H10_5 C11_5 1_555 1_555
C12_6 C11_5 1_555 1_555
H11_6 C12_6 1_555 1_555
H12_6 C12_6 1_555 1_555
C13_5 C12_6 1_555 1_555
H13_5 C13_5 1_555 1_555
H14_5 C13_5 1_555 1_555
H15_5 C13_5 1_555 1_555
C14_5 N3_5 1_555 1_555
H16_5 C14_5 1_555 1_555
C15_5 C14_5 1_555 1_555
H17_5 C15_5 1_555 1_555
C16_5 C15_5 1_555 1_555
C17_5 C16_5 1_555 1_555
H18_5 C17_5 1_555 1_555
C18_5 N3_5 1_555 1_555
C19_5 C16_5 1_555 1_555
H20_5 C19_5 1_555 1_555
H21_5 C19_5 1_555 1_555
Mn2_3 O2_3 1_555 1_555
O4_4 Mn2_3 1_555 1_555
O5_3 C26_4 1_555 1_555
O6_3 Mn2_3 1_555 1_555
O7_4 Mn2_3 1_555 1_555
N4_3 Mn2_3 1_555 1_555
N5_2 N4_3 1_555 1_555
N6_4 C33_3 1_555 1_555
C20_4 O4_4 1_555 1_555
C21_6 C20_4 1_555 1_555
H22_6 C21_6 1_555 1_555
C22_6 C21_6 1_555 1_555
H23_6 C22_6 1_555 1_555
C23_6 C22_6 1_555 1_555
H24_4 C23_6 1_555 1_555
C24_6 C23_6 1_555 1_555
H25_6 C24_6 1_555 1_555
C25_4 C20_4 1_555 1_555
C26_4 N4_3 1_555 1_555
C27_3 O6_3 1_555 1_555
C28_4 C27_3 1_555 1_555
H26_4 C28_4 1_555 1_555
H27_4 C28_4 1_555 1_555
C29_3 C28_4 1_555 1_555
H28_4 C29_3 1_555 1_555
H29_3 C29_3 1_555 1_555
C30_4 C29_3 1_555 1_555
H30_3 C30_4 1_555 1_555
H31_4 C30_4 1_555 1_555
C31_3 C30_4 1_555 1_555
H32_3 C31_3 1_555 1_555
H33_4 C31_3 1_555 1_555
C32_4 C31_3 1_555 1_555
H34_3 C32_4 1_555 1_555
H35_4 C32_4 1_555 1_555
H36_3 C32_4 1_555 1_555
C33_3 O7_4 1_555 1_555
H37_3 C33_3 1_555 1_555
C34_4 N6_4 1_555 1_555
H38_4 C34_4 1_555 1_555
H39_4 C34_4 1_555 1_555
H40_4 C34_4 1_555 1_555
C35_3 N6_4 1_555 1_555
H41_3 C35_3 1_555 1_555
H42_4 C35_3 1_555 1_555
H43_3 C35_3 1_555 1_555
N9_4 C49_6 1_555 1_555
C49_6 H59_6 1_555 1_555
C50_6 C49_6 1_555 1_555
H60_6 C50_6 1_555 1_555
C51_6 C50_6 1_555 1_555
C52_6 C51_6 1_555 1_555
H61_6 C52_6 1_555 1_555
C53_6 N9_4 1_555 1_555
H62_6 C53_6 1_555 1_555
C54_6 C19_5 1_555 1_555
H63_6 C54_6 1_555 1_555
H64_6 C54_6 1_555 1_555
Mn4_3 O5_3 1_555 1_555
Mn5_2 N9_4 1_555 1_555
N2_3 C8_5 1_555 1_555
N2_3 Mn2_3 1_555 1_555
C5_3 C6_3 1_555 1_555
C6_3 C7_3 1_555 1_555
C17_5 C18_5 1_555 1_555
N5_2 C27_3 1_555 1_555
N5_2 Mn4_3 1_555 1_555
C24_6 C25_4 1_555 1_555
C25_4 C26_4 1_555 1_555
C51_6 C54_6 1_555 1_555
C52_6 C53_6 1_555 1_555
Mn1_4 O1_4 1_555 1_555
O1_4 C1_3 1_555 1_555
O2_4 C7_4 1_555 1_555
O3_6 Mn1_4 1_555 1_555
N1_4 Mn1_4 1_555 1_555
N2_4 N1_4 1_555 1_555
N3_6 Mn1_4 1_555 1_555
C1_3 C2_3 1_555 1_555
C2_3 H1_3 1_555 1_555
C3_3 C2_3 1_555 1_555
H2_3 C3_3 1_555 1_555
C4_4 C3_3 1_555 1_555
H3_4 C4_4 1_555 1_555
C5_4 C4_4 1_555 1_555
H4_4 C5_4 1_555 1_555
C6_4 C1_3 1_555 1_555
C7_4 N1_4 1_555 1_555
C8_6 O3_6 1_555 1_555
C9_6 C8_6 1_555 1_555
H5_6 C9_6 1_555 1_555
H6_6 C9_6 1_555 1_555
C10_6 C9_6 1_555 1_555
H7_6 C10_6 1_555 1_555
H8_6 C10_6 1_555 1_555
C11_6 C10_6 1_555 1_555
H9_5 C11_6 1_555 1_555
H10_6 C11_6 1_555 1_555
C14_6 N3_6 1_555 1_555
H16_6 C14_6 1_555 1_555
C15_6 C14_6 1_555 1_555
H17_6 C15_6 1_555 1_555
C16_6 C15_6 1_555 1_555
C17_6 C16_6 1_555 1_555
H18_6 C17_6 1_555 1_555
C18_6 N3_6 1_555 1_555
H19_4 C18_6 1_555 1_555
C19_6 C16_6 1_555 1_555
H20_6 C19_6 1_555 1_555
H21_6 C19_6 1_555 1_555
Mn2_4 O2_4 1_555 1_555
O6_4 Mn2_4 1_555 1_555
N4_4 Mn2_4 1_555 1_555
N5_3 N4_4 1_555 1_555
C27_4 O6_4 1_555 1_555
C28_5 C27_4 1_555 1_555
H26_5 C28_5 1_555 1_555
H27_5 C28_5 1_555 1_555
C29_4 C28_5 1_555 1_555
H28_5 C29_4 1_555 1_555
H29_4 C29_4 1_555 1_555
C30_5 C29_4 1_555 1_555
H30_4 C30_5 1_555 1_555
H31_5 C30_5 1_555 1_555
C31_4 C30_5 1_555 1_555
H32_4 C31_4 1_555 1_555
H33_5 C31_4 1_555 1_555
C32_5 C31_4 1_555 1_555
H34_4 C32_5 1_555 1_555
H35_5 C32_5 1_555 1_555
H36_4 C32_5 1_555 1_555
H37_4 C33_4 1_555 1_555
H41_4 C35_4 1_555 1_555
H43_4 C35_4 1_555 1_555
Mn5_2 O8_6 1_555 1_555
O8_6 C36_6 1_555 1_555
O9_4 Mn1_4 1_555 1_555
O10_3 Mn5_2 1_555 1_555
N7_4 Mn5_2 1_555 1_555
N8_4 Mn1_4 1_555 1_555
C36_6 C37_6 1_555 1_555
C37_6 H44_6 1_555 1_555
C38_6 C37_6 1_555 1_555
H45_6 C38_6 1_555 1_555
C39_4 C38_6 1_555 1_555
H46_4 C39_4 1_555 1_555
C40_4 C39_4 1_555 1_555
H47_4 C40_4 1_555 1_555
C41_4 C36_6 1_555 1_555
C42_4 O9_4 1_555 1_555
C43_3 O10_3 1_555 1_555
C44_3 C43_3 1_555 1_555
H48_3 C44_3 1_555 1_555
H49_3 C44_3 1_555 1_555
C45_3 C44_3 1_555 1_555
H50_3 C45_3 1_555 1_555
H51_3 C45_3 1_555 1_555
C46_3 C45_3 1_555 1_555
H52_3 C46_3 1_555 1_555
H53_3 C46_3 1_555 1_555
C47_3 C46_3 1_555 1_555
H54_3 C47_3 1_555 1_555
H55_5 C47_3 1_555 1_555
C48_3 C47_3 1_555 1_555
H56_3 C48_3 1_555 1_555
H57_5 C48_3 1_555 1_555
H58_3 C48_3 1_555 1_555
O11_4 Mn5_2 1_555 1_555
N10_3 Mn5_2 1_555 1_555
N2_4 C8_6 1_555 1_555
N2_4 Mn2_4 1_555 1_555
C5_4 C6_4 1_555 1_555
C6_4 C7_4 1_555 1_555
C17_6 C18_6 1_555 1_555
N5_3 C27_4 1_555 1_555
N5_3 Mn4_4 1_555 1_555
N7_4 N8_4 1_555 1_555
N7_4 C42_4 1_555 1_555
N8_4 C43_3 1_555 1_555
C40_4 C41_4 1_555 1_555
C41_4 C42_4 1_555 1_555
Mn1_5 O1_5 1_555 1_555
O1_5 C1_4 1_555 1_555
O2_5 C7_5 1_555 1_555
O3_7 Mn1_5 1_555 1_555
N1_5 Mn1_5 1_555 1_555
N2_5 N1_5 1_555 1_555
N3_7 Mn1_5 1_555 1_555
C1_4 C2_4 1_555 1_555
C2_4 H1_4 1_555 1_555
C3_4 C2_4 1_555 1_555
H2_4 C3_4 1_555 1_555
C4_5 C3_4 1_555 1_555
H3_5 C4_5 1_555 1_555
C5_5 C4_5 1_555 1_555
H4_5 C5_5 1_555 1_555
C6_5 C1_4 1_555 1_555
C7_5 N1_5 1_555 1_555
C8_7 O3_7 1_555 1_555
C9_7 C8_7 1_555 1_555
H5_7 C9_7 1_555 1_555
H6_7 C9_7 1_555 1_555
C10_7 C9_7 1_555 1_555
H7_7 C10_7 1_555 1_555
H8_7 C10_7 1_555 1_555
C11_7 C10_7 1_555 1_555
H9_6 C11_7 1_555 1_555
H10_7 C11_7 1_555 1_555
C12_7 C11_7 1_555 1_555
H11_7 C12_7 1_555 1_555
H12_7 C12_7 1_555 1_555
C13_6 C12_7 1_555 1_555
H13_6 C13_6 1_555 1_555
H14_6 C13_6 1_555 1_555
H15_6 C13_6 1_555 1_555
C14_7 N3_7 1_555 1_555
H16_7 C14_7 1_555 1_555
C15_7 C14_7 1_555 1_555
H17_7 C15_7 1_555 1_555
C16_7 C15_7 1_555 1_555
C17_7 C16_7 1_555 1_555
H18_7 C17_7 1_555 1_555
C18_7 N3_7 1_555 1_555
H19_5 C18_7 1_555 1_555
C19_7 C16_7 1_555 1_555
H20_7 C19_7 1_555 1_555
H21_7 C19_7 1_555 1_555
Mn2_5 O2_5 1_555 1_555
O4_5 Mn2_5 1_555 1_555
O11_3 C26_5 1_555 1_555
O6_5 Mn2_5 1_555 1_555
O7_5 Mn2_5 1_555 1_555
N4_5 Mn2_5 1_555 1_555
N10_2 N4_5 1_555 1_555
N6_5 C33_5 1_555 1_555
C20_5 O4_5 1_555 1_555
C21_7 C20_5 1_555 1_555
H22_7 C21_7 1_555 1_555
C22_7 C21_7 1_555 1_555
H23_7 C22_7 1_555 1_555
C23_7 C22_7 1_555 1_555
H24_6 C23_7 1_555 1_555
C24_7 C23_7 1_555 1_555
H25_7 C24_7 1_555 1_555
C25_5 C20_5 1_555 1_555
C26_5 N4_5 1_555 1_555
C27_5 O6_5 1_555 1_555
C28_6 C27_5 1_555 1_555
H26_6 C28_6 1_555 1_555
H27_6 C28_6 1_555 1_555
C29_5 C28_6 1_555 1_555
H28_6 C29_5 1_555 1_555
H29_5 C29_5 1_555 1_555
C30_6 C29_5 1_555 1_555
H30_5 C30_6 1_555 1_555
H31_6 C30_6 1_555 1_555
C31_5 C30_6 1_555 1_555
H32_5 C31_5 1_555 1_555
H33_6 C31_5 1_555 1_555
C32_6 C31_5 1_555 1_555
H34_5 C32_6 1_555 1_555
H35_6 C32_6 1_555 1_555
H36_5 C32_6 1_555 1_555
C33_5 O7_5 1_555 1_555
H37_5 C33_5 1_555 1_555
C34_5 N6_5 1_555 1_555
H38_5 C34_5 1_555 1_555
H39_5 C34_5 1_555 1_555
H40_5 C34_5 1_555 1_555
C35_5 N6_5 1_555 1_555
H41_5 C35_5 1_555 1_555
H42_5 C35_5 1_555 1_555
H43_5 C35_5 1_555 1_555
O9_5 Mn1_5 1_555 1_555
O10_4 Mn4_2 1_555 1_555
N7_5 Mn4_2 1_555 1_555
N8_5 Mn1_5 1_555 1_555
N9_5 C49_7 1_555 1_555
H46_5 C39_5 1_555 1_555
C40_5 C39_5 1_555 1_555
H47_5 C40_5 1_555 1_555
C42_5 O9_5 1_555 1_555
C43_4 O10_4 1_555 1_555
C44_4 C43_4 1_555 1_555
H48_4 C44_4 1_555 1_555
H49_4 C44_4 1_555 1_555
C45_4 C44_4 1_555 1_555
H50_4 C45_4 1_555 1_555
H51_4 C45_4 1_555 1_555
C46_4 C45_4 1_555 1_555
H52_4 C46_4 1_555 1_555
H53_4 C46_4 1_555 1_555
C47_4 C46_4 1_555 1_555
H54_4 C47_4 1_555 1_555
C48_4 C47_4 1_555 1_555
H56_4 C48_4 1_555 1_555
H58_4 C48_4 1_555 1_555
C49_7 H59_7 1_555 1_555
C50_7 C49_7 1_555 1_555
H60_7 C50_7 1_555 1_555
C51_7 C50_7 1_555 1_555
C52_7 C51_7 1_555 1_555
H61_7 C52_7 1_555 1_555
C53_7 N9_5 1_555 1_555
H62_7 C53_7 1_555 1_555
C54_7 C19_7 1_555 1_555
H63_7 C54_7 1_555 1_555
H64_7 C54_7 1_555 1_555
Mn4_3 N9_5 1_555 1_555
N2_5 C8_7 1_555 1_555
N2_5 Mn2_5 1_555 1_555
C5_5 C6_5 1_555 1_555
C6_5 C7_5 1_555 1_555
C17_7 C18_7 1_555 1_555
N10_2 C27_5 1_555 1_555
C24_7 C25_5 1_555 1_555
C25_5 C26_5 1_555 1_555
N7_5 N8_5 1_555 1_555
N7_5 C42_5 1_555 1_555
N8_5 C43_4 1_555 1_555
C40_5 C41_5 1_555 1_555
C41_5 C42_5 1_555 1_555
C51_7 C54_7 1_555 1_555
C52_7 C53_7 1_555 1_555
Mn1_6 O1_6 1_555 1_555
O1_6 C1_5 1_555 1_555
O2_6 C7_6 1_555 1_555
O3_8 Mn1_6 1_555 1_555
N1_6 Mn1_6 1_555 1_555
N2_6 N1_6 1_555 1_555
N3_8 Mn1_6 1_555 1_555
C1_5 C2_5 1_555 1_555
C2_5 H1_5 1_555 1_555
C3_5 C2_5 1_555 1_555
H2_5 C3_5 1_555 1_555
C4_6 C3_5 1_555 1_555
H3_6 C4_6 1_555 1_555
C5_6 C4_6 1_555 1_555
H4_6 C5_6 1_555 1_555
C6_6 C1_5 1_555 1_555
C7_6 N1_6 1_555 1_555
C8_8 O3_8 1_555 1_555
C9_8 C8_8 1_555 1_555
H5_8 C9_8 1_555 1_555
H6_8 C9_8 1_555 1_555
C10_8 C9_8 1_555 1_555
H7_8 C10_8 1_555 1_555
H8_8 C10_8 1_555 1_555
C11_8 C10_8 1_555 1_555
H9_7 C11_8 1_555 1_555
H10_8 C11_8 1_555 1_555
C12_8 C11_8 1_555 1_555
H11_8 C12_8 1_555 1_555
H12_8 C12_8 1_555 1_555
C13_7 C12_8 1_555 1_555
H13_7 C13_7 1_555 1_555
H14_7 C13_7 1_555 1_555
H15_7 C13_7 1_555 1_555
C14_8 N3_8 1_555 1_555
H16_8 C14_8 1_555 1_555
C15_8 C14_8 1_555 1_555
H17_8 C15_8 1_555 1_555
C16_8 C15_8 1_555 1_555
C17_8 C16_8 1_555 1_555
H18_8 C17_8 1_555 1_555
C18_8 N3_8 1_555 1_555
H19_6 C18_8 1_555 1_555
C19_8 C16_8 1_555 1_555
H20_8 C19_8 1_555 1_555
H21_8 C19_8 1_555 1_555
Mn2_6 O2_6 1_555 1_555
O4_6 Mn2_6 1_555 1_555
O11_4 C26_6 1_555 1_555
O6_6 Mn2_6 1_555 1_555
O7_6 Mn2_6 1_555 1_555
N4_6 Mn2_6 1_555 1_555
N10_3 N4_6 1_555 1_555
N6_6 C33_6 1_555 1_555
C20_6 O4_6 1_555 1_555
C21_8 C20_6 1_555 1_555
H22_8 C21_8 1_555 1_555
C22_8 C21_8 1_555 1_555
H23_8 C22_8 1_555 1_555
C23_8 C22_8 1_555 1_555
H24_8 C23_8 1_555 1_555
C24_8 C23_8 1_555 1_555
H25_8 C24_8 1_555 1_555
C25_6 C20_6 1_555 1_555
C26_6 N4_6 1_555 1_555
C27_6 O6_6 1_555 1_555
C28_7 C27_6 1_555 1_555
H26_7 C28_7 1_555 1_555
H27_7 C28_7 1_555 1_555
C29_6 C28_7 1_555 1_555
H28_7 C29_6 1_555 1_555
H29_6 C29_6 1_555 1_555
C30_7 C29_6 1_555 1_555
H30_6 C30_7 1_555 1_555
H31_7 C30_7 1_555 1_555
C31_6 C30_7 1_555 1_555
H32_6 C31_6 1_555 1_555
H33_7 C31_6 1_555 1_555
C32_7 C31_6 1_555 1_555
H34_6 C32_7 1_555 1_555
H35_7 C32_7 1_555 1_555
H36_6 C32_7 1_555 1_555
C33_6 O7_6 1_555 1_555
H37_6 C33_6 1_555 1_555
C34_6 N6_6 1_555 1_555
H38_6 C34_6 1_555 1_555
H39_6 C34_6 1_555 1_555
H40_6 C34_6 1_555 1_555
C35_6 N6_6 1_555 1_555
H41_6 C35_6 1_555 1_555
H42_6 C35_6 1_555 1_555
H43_6 C35_6 1_555 1_555
O9_6 Mn1_6 1_555 1_555
O10_5 Mn4_4 1_555 1_555
N7_6 Mn4_4 1_555 1_555
N8_6 Mn1_6 1_555 1_555
H46_6 C39_6 1_555 1_555
C40_6 C39_6 1_555 1_555
H47_6 C40_6 1_555 1_555
C42_6 O9_6 1_555 1_555
C43_5 O10_5 1_555 1_555
C44_5 C43_5 1_555 1_555
H48_5 C44_5 1_555 1_555
H49_5 C44_5 1_555 1_555
C45_5 C44_5 1_555 1_555
H50_5 C45_5 1_555 1_555
H51_5 C45_5 1_555 1_555
C46_5 C45_5 1_555 1_555
H52_5 C46_5 1_555 1_555
H53_5 C46_5 1_555 1_555
C47_5 C46_5 1_555 1_555
H54_5 C47_5 1_555 1_555
C48_5 C47_5 1_555 1_555
H56_5 C48_5 1_555 1_555
H58_5 C48_5 1_555 1_555
C49_8 H59_8 1_555 1_555
C50_8 C49_8 1_555 1_555
H60_8 C50_8 1_555 1_555
C51_8 C50_8 1_555 1_555
C54_8 C19_8 1_555 1_555
H63_8 C54_8 1_555 1_555
H64_8 C54_8 1_555 1_555
N2_6 C8_8 1_555 1_555
N2_6 Mn2_6 1_555 1_555
C5_6 C6_6 1_555 1_555
C6_6 C7_6 1_555 1_555
C17_8 C18_8 1_555 1_555
N10_3 C27_6 1_555 1_555
C24_8 C25_6 1_555 1_555
C25_6 C26_6 1_555 1_555
N7_6 N8_6 1_555 1_555
N7_6 C42_6 1_555 1_555
N8_6 C43_5 1_555 1_555
C40_6 C41_6 1_555 1_555
C41_6 C42_6 1_555 1_555
C51_8 C54_8 1_555 1_555
Mn1_7 O1_7 1_555 1_555
O1_7 C1_6 1_555 1_555
C1_6 C2_6 1_555 1_555
C2_6 H1_6 1_555 1_555
C3_6 C2_6 1_555 1_555
H2_6 C3_6 1_555 1_555
Mn4_3 O8_7 1_555 1_555
O8_7 C36_7 1_555 1_555
O9_7 Mn1_7 1_555 1_555
O10_6 Mn4_3 1_555 1_555
N7_7 Mn4_3 1_555 1_555
N8_7 Mn1_7 1_555 1_555
C36_7 C37_7 1_555 1_555
C37_7 H44_7 1_555 1_555
C38_7 C37_7 1_555 1_555
H45_7 C38_7 1_555 1_555
C39_7 C38_7 1_555 1_555
H46_7 C39_7 1_555 1_555
C40_7 C39_7 1_555 1_555
H47_7 C40_7 1_555 1_555
C41_7 C36_7 1_555 1_555
C42_7 O9_7 1_555 1_555
C43_6 O10_6 1_555 1_555
C44_6 C43_6 1_555 1_555
H48_6 C44_6 1_555 1_555
H49_6 C44_6 1_555 1_555
C45_6 C44_6 1_555 1_555
H50_6 C45_6 1_555 1_555
H51_6 C45_6 1_555 1_555
C46_6 C45_6 1_555 1_555
H52_6 C46_6 1_555 1_555
H53_6 C46_6 1_555 1_555
C47_6 C46_6 1_555 1_555
H54_6 C47_6 1_555 1_555
H55_6 C47_6 1_555 1_555
C48_6 C47_6 1_555 1_555
H56_6 C48_6 1_555 1_555
H57_6 C48_6 1_555 1_555
H58_6 C48_6 1_555 1_555
N7_7 N8_7 1_555 1_555
N7_7 C42_7 1_555 1_555
N8_7 C43_6 1_555 1_555
C40_7 C41_7 1_555 1_555
C41_7 C42_7 1_555 1_555
Mn1_8 O1_8 1_555 1_555
O1_8 C1_7 1_555 1_555
O2_7 C7_7 1_555 1_555
O3_9 Mn1_8 1_555 1_555
N1_7 Mn1_8 1_555 1_555
N2_7 N1_7 1_555 1_555
N3_9 Mn1_8 1_555 1_555
C1_7 C2_7 1_555 1_555
C2_7 H1_7 1_555 1_555
C3_7 C2_7 1_555 1_555
H2_7 C3_7 1_555 1_555
C4_7 C3_7 1_555 1_555
H3_7 C4_7 1_555 1_555
C5_7 C4_7 1_555 1_555
H4_7 C5_7 1_555 1_555
C6_7 C1_7 1_555 1_555
C7_7 N1_7 1_555 1_555
C8_9 O3_9 1_555 1_555
C9_9 C8_9 1_555 1_555
H5_9 C9_9 1_555 1_555
H6_9 C9_9 1_555 1_555
C10_9 C9_9 1_555 1_555
H7_9 C10_9 1_555 1_555
H8_9 C10_9 1_555 1_555
C11_9 C10_9 1_555 1_555
H10_9 C11_9 1_555 1_555
C12_9 C11_9 1_555 1_555
H11_9 C12_9 1_555 1_555
H12_9 C12_9 1_555 1_555
C14_9 N3_9 1_555 1_555
H16_9 C14_9 1_555 1_555
C15_9 C14_9 1_555 1_555
H17_9 C15_9 1_555 1_555
C16_9 C15_9 1_555 1_555
C17_9 C16_9 1_555 1_555
H18_9 C17_9 1_555 1_555
C18_9 N3_9 1_555 1_555
H19_8 C18_9 1_555 1_555
C19_9 C16_9 1_555 1_555
H20_9 C19_9 1_555 1_555
H21_9 C19_9 1_555 1_555
Mn2_7 O2_7 1_555 1_555
O4_7 Mn2_7 1_555 1_555
O6_7 Mn2_7 1_555 1_555
O7_7 Mn2_7 1_555 1_555
N4_7 Mn2_7 1_555 1_555
N5_4 N4_7 1_555 1_555
N6_7 C33_7 1_555 1_555
C20_7 O4_7 1_555 1_555
C21_9 C20_7 1_555 1_555
H22_9 C21_9 1_555 1_555
C22_9 C21_9 1_555 1_555
H23_9 C22_9 1_555 1_555
C23_9 C22_9 1_555 1_555
C24_9 C23_9 1_555 1_555
H25_9 C24_9 1_555 1_555
C25_7 C20_7 1_555 1_555
C26_7 N4_7 1_555 1_555
C27_7 O6_7 1_555 1_555
H29_7 C29_7 1_555 1_555
H32_7 C31_7 1_555 1_555
C33_7 O7_7 1_555 1_555
H37_7 C33_7 1_555 1_555
C34_7 N6_7 1_555 1_555
H38_7 C34_7 1_555 1_555
H39_7 C34_7 1_555 1_555
H40_7 C34_7 1_555 1_555
C35_7 N6_7 1_555 1_555
H41_7 C35_7 1_555 1_555
H42_7 C35_7 1_555 1_555
H43_7 C35_7 1_555 1_555
Mn3_2 O8_8 1_555 1_555
O8_8 C36_8 1_555 1_555
O9_8 Mn1_8 1_555 1_555
O10_7 Mn3_2 1_555 1_555
N7_8 Mn3_2 1_555 1_555
N8_8 Mn1_8 1_555 1_555
N9_6 C49_9 1_555 1_555
C36_8 C37_8 1_555 1_555
C37_8 H44_8 1_555 1_555
C38_8 C37_8 1_555 1_555
H45_8 C38_8 1_555 1_555
C39_8 C38_8 1_555 1_555
H46_8 C39_8 1_555 1_555
C40_8 C39_8 1_555 1_555
H47_8 C40_8 1_555 1_555
C41_8 C36_8 1_555 1_555
C42_8 O9_8 1_555 1_555
C43_7 O10_7 1_555 1_555
C44_7 C43_7 1_555 1_555
H48_7 C44_7 1_555 1_555
H49_7 C44_7 1_555 1_555
C45_7 C44_7 1_555 1_555
H50_7 C45_7 1_555 1_555
H51_7 C45_7 1_555 1_555
C46_7 C45_7 1_555 1_555
H52_7 C46_7 1_555 1_555
H53_7 C46_7 1_555 1_555
C47_7 C46_7 1_555 1_555
H54_7 C47_7 1_555 1_555
H55_7 C47_7 1_555 1_555
C48_7 C47_7 1_555 1_555
H56_7 C48_7 1_555 1_555
H57_7 C48_7 1_555 1_555
H58_7 C48_7 1_555 1_555
C49_9 H59_9 1_555 1_555
C50_9 C49_9 1_555 1_555
H60_9 C50_9 1_555 1_555
C51_9 C50_9 1_555 1_555
C52_8 C51_9 1_555 1_555
H61_8 C52_8 1_555 1_555
C53_8 N9_6 1_555 1_555
H62_8 C53_8 1_555 1_555
C54_9 C19_9 1_555 1_555
H63_9 C54_9 1_555 1_555
H64_9 C54_9 1_555 1_555
O11_5 Mn3_2 1_555 1_555
N11_3 Mn3_2 1_555 1_555
N2_7 C8_9 1_555 1_555
N2_7 Mn2_7 1_555 1_555
C5_7 C6_7 1_555 1_555
C6_7 C7_7 1_555 1_555
C17_9 C18_9 1_555 1_555
N5_4 C27_7 1_555 1_555
C24_9 C25_7 1_555 1_555
C25_7 C26_7 1_555 1_555
N7_8 N8_8 1_555 1_555
N7_8 C42_8 1_555 1_555
N8_8 C43_7 1_555 1_555
C40_8 C41_8 1_555 1_555
C41_8 C42_8 1_555 1_555
C51_9 C54_9 1_555 1_555
C52_8 C53_8 1_555 1_555
O8_9 C36_9 1_555 1_555
C36_9 C37_9 1_555 1_555
C37_9 H44_9 1_555 1_555
C38_9 C37_9 1_555 1_555
H45_9 C38_9 1_555 1_555
H26_8 C28_8 1_555 1_555
H27_8 C28_8 1_555 1_555
H31_8 C30_8 1_555 1_555
H35_8 C32_8 1_555 1_555
Mn4_5 O5_4 1_555 1_555
H11_10 C12_10 1_555 1_555
H12_10 C12_10 1_555 1_555
C13_8 C12_10 1_555 1_555
H13_8 C13_8 1_555 1_555
H14_8 C13_8 1_555 1_555
H15_8 C13_8 1_555 1_555
O5_5 C26_8 1_555 1_555
C20_8 O4_8 1_555 1_555
C21_10 C20_8 1_555 1_555
H22_10 C21_10 1_555 1_555
C22_10 C21_10 1_555 1_555
H23_10 C22_10 1_555 1_555
C23_10 C22_10 1_555 1_555
H24_9 C23_10 1_555 1_555
C24_10 C23_10 1_555 1_555
H25_10 C24_10 1_555 1_555
C25_8 C20_8 1_555 1_555
C34_8 N6_8 1_555 1_555
H38_8 C34_8 1_555 1_555
H39_8 C34_8 1_555 1_555
H40_8 C34_8 1_555 1_555
N11_3 C49_10 1_555 1_555
C49_10 H59_10 1_555 1_555
C50_10 C49_10 1_555 1_555
H60_10 C50_10 1_555 1_555
C51_10 C50_10 1_555 1_555
C52_9 C51_10 1_555 1_555
H61_9 C52_9 1_555 1_555
C53_9 N11_3 1_555 1_555
H62_9 C53_9 1_555 1_555
H63_10 C54_10 1_555 1_555
H64_10 C54_10 1_555 1_555
C24_10 C25_8 1_555 1_555
C25_8 C26_8 1_555 1_555
C51_10 C54_10 1_555 1_555
C52_9 C53_9 1_555 1_555
H11_11 C12_11 1_555 1_555
H12_11 C12_11 1_555 1_555
C13_9 C12_11 1_555 1_555
H13_9 C13_9 1_555 1_555
H14_9 C13_9 1_555 1_555
H15_9 C13_9 1_555 1_555
O11_6 C26_9 1_555 1_555
C20_9 O4_9 1_555 1_555
C21_11 C20_9 1_555 1_555
H22_11 C21_11 1_555 1_555
C22_11 C21_11 1_555 1_555
H23_11 C22_11 1_555 1_555
C23_11 C22_11 1_555 1_555
H24_10 C23_11 1_555 1_555
C24_11 C23_11 1_555 1_555
H25_11 C24_11 1_555 1_555
C25_9 C20_9 1_555 1_555
C34_9 N6_9 1_555 1_555
H38_9 C34_9 1_555 1_555
H39_9 C34_9 1_555 1_555
H40_9 C34_9 1_555 1_555
C49_11 H59_11 1_555 1_555
C50_11 C49_11 1_555 1_555
H60_11 C50_11 1_555 1_555
C51_11 C50_11 1_555 1_555
H63_11 C54_11 1_555 1_555
H64_11 C54_11 1_555 1_555
C24_11 C25_9 1_555 1_555
C25_9 C26_9 1_555 1_555
C51_11 C54_11 1_555 1_555
H61_10 C52_10 1_555 1_555
C53_10 N9_7 1_555 1_555
H62_10 C53_10 1_555 1_555
Mn4_5 N9_7 1_555 1_555
C52_10 C53_10 1_555 1_555
H13_10 C13_10 1_555 1_555
H14_10 C13_10 1_555 1_555
H15_10 C13_10 1_555 1_555
H26_9 C28_9 1_555 1_555
H27_9 C28_9 1_555 1_555
H31_9 C30_9 1_555 1_555
H35_9 C32_9 1_555 1_555
Mn1_9 O1_9 1_555 1_555
O3_10 Mn1_9 1_555 1_555
N3_10 Mn1_9 1_555 1_555
C8_10 O3_10 1_555 1_555
C9_10 C8_10 1_555 1_555
H5_10 C9_10 1_555 1_555
H6_10 C9_10 1_555 1_555
C10_10 C9_10 1_555 1_555
H7_10 C10_10 1_555 1_555
H8_10 C10_10 1_555 1_555
C11_10 C10_10 1_555 1_555
H10_10 C11_10 1_555 1_555
C12_12 C11_10 1_555 1_555
H11_12 C12_12 1_555 1_555
H12_12 C12_12 1_555 1_555
C14_10 N3_10 1_555 1_555
H16_10 C14_10 1_555 1_555
C15_10 C14_10 1_555 1_555
H17_10 C15_10 1_555 1_555
C16_10 C15_10 1_555 1_555
C17_10 C16_10 1_555 1_555
H18_10 C17_10 1_555 1_555
C18_10 N3_10 1_555 1_555
H19_9 C18_10 1_555 1_555
C19_10 C16_10 1_555 1_555
H20_10 C19_10 1_555 1_555
H21_10 C19_10 1_555 1_555
H22_12 C21_12 1_555 1_555
C22_12 C21_12 1_555 1_555
H23_12 C22_12 1_555 1_555
C23_12 C22_12 1_555 1_555
C24_12 C23_12 1_555 1_555
H25_12 C24_12 1_555 1_555
Mn4_5 O8_10 1_555 1_555
O8_10 C36_10 1_555 1_555
O9_9 Mn1_9 1_555 1_555
N7_9 Mn4_5 1_555 1_555
N8_9 Mn1_9 1_555 1_555
N9_8 C49_12 1_555 1_555
C36_10 C37_10 1_555 1_555
C37_10 H44_10 1_555 1_555
C38_10 C37_10 1_555 1_555
H45_10 C38_10 1_555 1_555
C39_9 C38_10 1_555 1_555
H46_9 C39_9 1_555 1_555
C40_9 C39_9 1_555 1_555
H47_9 C40_9 1_555 1_555
C41_9 C36_10 1_555 1_555
C42_9 O9_9 1_555 1_555
C49_12 H59_12 1_555 1_555
C50_12 C49_12 1_555 1_555
H60_12 C50_12 1_555 1_555
C51_12 C50_12 1_555 1_555
C52_11 C51_12 1_555 1_555
H61_11 C52_11 1_555 1_555
C53_11 N9_8 1_555 1_555
H62_11 C53_11 1_555 1_555
C54_12 C19_10 1_555 1_555
H63_12 C54_12 1_555 1_555
H64_12 C54_12 1_555 1_555
C17_10 C18_10 1_555 1_555
N7_9 N8_9 1_555 1_555
N7_9 C42_9 1_555 1_555
C40_9 C41_9 1_555 1_555
C41_9 C42_9 1_555 1_555
C51_12 C54_12 1_555 1_555
C52_11 C53_11 1_555 1_555
O8_11 C36_11 1_555 1_555
C36_11 C37_11 1_555 1_555
C37_11 H44_11 1_555 1_555
C38_11 C37_11 1_555 1_555
H45_11 C38_11 1_555 1_555
Mn1_10 O1_10 1_555 1_555
O1_10 C1_8 1_555 1_555
O2_8 C7_8 1_555 1_555
O3_11 Mn1_10 1_555 1_555
N1_8 Mn1_10 1_555 1_555
N2_8 N1_8 1_555 1_555
N3_11 Mn1_10 1_555 1_555
C1_8 C2_8 1_555 1_555
C2_8 H1_8 1_555 1_555
C3_8 C2_8 1_555 1_555
H2_8 C3_8 1_555 1_555
C4_8 C3_8 1_555 1_555
H3_8 C4_8 1_555 1_555
C5_8 C4_8 1_555 1_555
H4_8 C5_8 1_555 1_555
C6_8 C1_8 1_555 1_555
C7_8 N1_8 1_555 1_555
C8_11 O3_11 1_555 1_555
C9_11 C8_11 1_555 1_555
H5_11 C9_11 1_555 1_555
H6_11 C9_11 1_555 1_555
C10_11 C9_11 1_555 1_555
H7_11 C10_11 1_555 1_555
H8_11 C10_11 1_555 1_555
C11_11 C10_11 1_555 1_555
H9_9 C11_11 1_555 1_555
H10_11 C11_11 1_555 1_555
C12_13 C11_11 1_555 1_555
H11_13 C12_13 1_555 1_555
H12_13 C12_13 1_555 1_555
C13_11 C12_13 1_555 1_555
H13_11 C13_11 1_555 1_555
H14_11 C13_11 1_555 1_555
H15_11 C13_11 1_555 1_555
C14_11 N3_11 1_555 1_555
H16_11 C14_11 1_555 1_555
C15_11 C14_11 1_555 1_555
H17_11 C15_11 1_555 1_555
C16_11 C15_11 1_555 1_555
C17_11 C16_11 1_555 1_555
H18_11 C17_11 1_555 1_555
C18_11 N3_11 1_555 1_555
H19_10 C18_11 1_555 1_555
C19_11 C16_11 1_555 1_555
H20_11 C19_11 1_555 1_555
H21_11 C19_11 1_555 1_555
Mn2_8 O2_8 1_555 1_555
O4_10 Mn2_8 1_555 1_555
O5_6 C26_10 1_555 1_555
O6_8 Mn2_8 1_555 1_555
O7_10 Mn2_8 1_555 1_555
N4_8 Mn2_8 1_555 1_555
N5_5 N4_8 1_555 1_555
N6_10 C33_8 1_555 1_555
C20_10 O4_10 1_555 1_555
C21_13 C20_10 1_555 1_555
H22_13 C21_13 1_555 1_555
C22_13 C21_13 1_555 1_555
H23_13 C22_13 1_555 1_555
C23_13 C22_13 1_555 1_555
H24_12 C23_13 1_555 1_555
C24_13 C23_13 1_555 1_555
H25_13 C24_13 1_555 1_555
C25_10 C20_10 1_555 1_555
C26_10 N4_8 1_555 1_555
C27_8 O6_8 1_555 1_555
C28_10 C27_8 1_555 1_555
H26_10 C28_10 1_555 1_555
H27_10 C28_10 1_555 1_555
C29_8 C28_10 1_555 1_555
H28_10 C29_8 1_555 1_555
H29_8 C29_8 1_555 1_555
C30_10 C29_8 1_555 1_555
H30_8 C30_10 1_555 1_555
H31_10 C30_10 1_555 1_555
C31_8 C30_10 1_555 1_555
H32_8 C31_8 1_555 1_555
H33_10 C31_8 1_555 1_555
C32_10 C31_8 1_555 1_555
H34_8 C32_10 1_555 1_555
H35_10 C32_10 1_555 1_555
H36_8 C32_10 1_555 1_555
C33_8 O7_10 1_555 1_555
H37_8 C33_8 1_555 1_555
C34_10 N6_10 1_555 1_555
H38_10 C34_10 1_555 1_555
H39_10 C34_10 1_555 1_555
H40_10 C34_10 1_555 1_555
C35_8 N6_10 1_555 1_555
H41_8 C35_8 1_555 1_555
H42_10 C35_8 1_555 1_555
H43_8 C35_8 1_555 1_555
O9_10 Mn1_10 1_555 1_555
O10_8 Mn5_3 1_555 1_555
N7_10 Mn5_3 1_555 1_555
N8_10 Mn1_10 1_555 1_555
N9_9 C49_13 1_555 1_555
H46_10 C39_10 1_555 1_555
C40_10 C39_10 1_555 1_555
H47_10 C40_10 1_555 1_555
C42_10 O9_10 1_555 1_555
C43_8 O10_8 1_555 1_555
C44_8 C43_8 1_555 1_555
H48_8 C44_8 1_555 1_555
H49_8 C44_8 1_555 1_555
C45_8 C44_8 1_555 1_555
H50_8 C45_8 1_555 1_555
H51_8 C45_8 1_555 1_555
C46_8 C45_8 1_555 1_555
H52_8 C46_8 1_555 1_555
H53_8 C46_8 1_555 1_555
C47_8 C46_8 1_555 1_555
H54_8 C47_8 1_555 1_555
C48_8 C47_8 1_555 1_555
H56_8 C48_8 1_555 1_555
H58_8 C48_8 1_555 1_555
C49_13 H59_13 1_555 1_555
C50_13 C49_13 1_555 1_555
H60_13 C50_13 1_555 1_555
C51_13 C50_13 1_555 1_555
C52_12 C51_13 1_555 1_555
H61_12 C52_12 1_555 1_555
C53_12 N9_9 1_555 1_555
H62_12 C53_12 1_555 1_555
C54_13 C19_11 1_555 1_555
H63_13 C54_13 1_555 1_555
H64_13 C54_13 1_555 1_555
N10_4 Mn5_3 1_555 1_555
Mn4_6 O5_6 1_555 1_555
Mn5_4 N9_9 1_555 1_555
N2_8 C8_11 1_555 1_555
N2_8 Mn2_8 1_555 1_555
C5_8 C6_8 1_555 1_555
C6_8 C7_8 1_555 1_555
C17_11 C18_11 1_555 1_555
N5_5 C27_8 1_555 1_555
N5_5 Mn4_6 1_555 1_555
C24_13 C25_10 1_555 1_555
C25_10 C26_10 1_555 1_555
N7_10 N8_10 1_555 1_555
N7_10 C42_10 1_555 1_555
N8_10 C43_8 1_555 1_555
C40_10 C41_10 1_555 1_555
C41_10 C42_10 1_555 1_555
C51_13 C54_13 1_555 1_555
C52_12 C53_12 1_555 1_555
Mn1_11 O1_11 1_555 1_555
O1_11 C1_9 1_555 1_555
O2_9 C7_9 1_555 1_555
O3_12 Mn1_11 1_555 1_555
N1_9 Mn1_11 1_555 1_555
N2_9 N1_9 1_555 1_555
N3_12 Mn1_11 1_555 1_555
C1_9 C2_9 1_555 1_555
C2_9 H1_9 1_555 1_555
C3_9 C2_9 1_555 1_555
H2_9 C3_9 1_555 1_555
C4_9 C3_9 1_555 1_555
H3_9 C4_9 1_555 1_555
C5_9 C4_9 1_555 1_555
H4_9 C5_9 1_555 1_555
C6_9 C1_9 1_555 1_555
C7_9 N1_9 1_555 1_555
C8_12 O3_12 1_555 1_555
C9_12 C8_12 1_555 1_555
H5_12 C9_12 1_555 1_555
H6_12 C9_12 1_555 1_555
C10_12 C9_12 1_555 1_555
H7_12 C10_12 1_555 1_555
H8_12 C10_12 1_555 1_555
C11_12 C10_12 1_555 1_555
H9_10 C11_12 1_555 1_555
H10_12 C11_12 1_555 1_555
C12_14 C11_12 1_555 1_555
H11_14 C12_14 1_555 1_555
H12_14 C12_14 1_555 1_555
C13_12 C12_14 1_555 1_555
H13_12 C13_12 1_555 1_555
H14_12 C13_12 1_555 1_555
H15_12 C13_12 1_555 1_555
C14_12 N3_12 1_555 1_555
H16_12 C14_12 1_555 1_555
C15_12 C14_12 1_555 1_555
H17_12 C15_12 1_555 1_555
C16_12 C15_12 1_555 1_555
C17_12 C16_12 1_555 1_555
H18_12 C17_12 1_555 1_555
C18_12 N3_12 1_555 1_555
H19_11 C18_12 1_555 1_555
C19_12 C16_12 1_555 1_555
H20_12 C19_12 1_555 1_555
H21_12 C19_12 1_555 1_555
Mn2_9 O2_9 1_555 1_555
O4_11 Mn2_9 1_555 1_555
O5_7 C26_11 1_555 1_555
O6_9 Mn2_9 1_555 1_555
O7_11 Mn2_9 1_555 1_555
N4_9 Mn2_9 1_555 1_555
N5_6 N4_9 1_555 1_555
N6_11 C33_9 1_555 1_555
C20_11 O4_11 1_555 1_555
C21_14 C20_11 1_555 1_555
H22_14 C21_14 1_555 1_555
C22_14 C21_14 1_555 1_555
H23_14 C22_14 1_555 1_555
C23_14 C22_14 1_555 1_555
H24_14 C23_14 1_555 1_555
C24_14 C23_14 1_555 1_555
H25_14 C24_14 1_555 1_555
C25_11 C20_11 1_555 1_555
C26_11 N4_9 1_555 1_555
C27_9 O6_9 1_555 1_555
C28_11 C27_9 1_555 1_555
H26_11 C28_11 1_555 1_555
H27_11 C28_11 1_555 1_555
C29_9 C28_11 1_555 1_555
H28_11 C29_9 1_555 1_555
H29_9 C29_9 1_555 1_555
C30_11 C29_9 1_555 1_555
H30_9 C30_11 1_555 1_555
H31_11 C30_11 1_555 1_555
C31_9 C30_11 1_555 1_555
H32_9 C31_9 1_555 1_555
H33_11 C31_9 1_555 1_555
C32_11 C31_9 1_555 1_555
H34_9 C32_11 1_555 1_555
H35_11 C32_11 1_555 1_555
H36_9 C32_11 1_555 1_555
C33_9 O7_11 1_555 1_555
H37_9 C33_9 1_555 1_555
C34_11 N6_11 1_555 1_555
H38_11 C34_11 1_555 1_555
H39_11 C34_11 1_555 1_555
H40_11 C34_11 1_555 1_555
C35_9 N6_11 1_555 1_555
H41_9 C35_9 1_555 1_555
H42_11 C35_9 1_555 1_555
H43_9 C35_9 1_555 1_555
O9_11 Mn1_11 1_555 1_555
O10_9 Mn5_5 1_555 1_555
N7_11 Mn5_5 1_555 1_555
N8_11 Mn1_11 1_555 1_555
H46_11 C39_11 1_555 1_555
C40_11 C39_11 1_555 1_555
H47_11 C40_11 1_555 1_555
C42_11 O9_11 1_555 1_555
C43_9 O10_9 1_555 1_555
C44_9 C43_9 1_555 1_555
H48_9 C44_9 1_555 1_555
H49_9 C44_9 1_555 1_555
C45_9 C44_9 1_555 1_555
H50_9 C45_9 1_555 1_555
H51_9 C45_9 1_555 1_555
C46_9 C45_9 1_555 1_555
H52_9 C46_9 1_555 1_555
H53_9 C46_9 1_555 1_555
C47_9 C46_9 1_555 1_555
H54_9 C47_9 1_555 1_555
C48_9 C47_9 1_555 1_555
H56_9 C48_9 1_555 1_555
H58_9 C48_9 1_555 1_555
C49_14 H59_14 1_555 1_555
C50_14 C49_14 1_555 1_555
H60_14 C50_14 1_555 1_555
C51_14 C50_14 1_555 1_555
C54_14 C19_12 1_555 1_555
H63_14 C54_14 1_555 1_555
H64_14 C54_14 1_555 1_555
N10_5 Mn5_5 1_555 1_555
Mn4_7 O5_7 1_555 1_555
N2_9 C8_12 1_555 1_555
N2_9 Mn2_9 1_555 1_555
C5_9 C6_9 1_555 1_555
C6_9 C7_9 1_555 1_555
C17_12 C18_12 1_555 1_555
N5_6 C27_9 1_555 1_555
N5_6 Mn4_7 1_555 1_555
C24_14 C25_11 1_555 1_555
C25_11 C26_11 1_555 1_555
N7_11 N8_11 1_555 1_555
N7_11 C42_11 1_555 1_555
N8_11 C43_9 1_555 1_555
C40_11 C41_11 1_555 1_555
C41_11 C42_11 1_555 1_555
C51_14 C54_14 1_555 1_555
Mn1_12 O1_12 1_555 1_555
O1_12 C1_10 1_555 1_555
C1_10 C2_10 1_555 1_555
C2_10 H1_10 1_555 1_555
C3_10 C2_10 1_555 1_555
H2_10 C3_10 1_555 1_555
Mn5_4 O8_12 1_555 1_555
O8_12 C36_12 1_555 1_555
O9_12 Mn1_12 1_555 1_555
O10_10 Mn5_4 1_555 1_555
N7_12 Mn5_4 1_555 1_555
N8_12 Mn1_12 1_555 1_555
C36_12 C37_12 1_555 1_555
C37_12 H44_12 1_555 1_555
C38_12 C37_12 1_555 1_555
H45_12 C38_12 1_555 1_555
C39_12 C38_12 1_555 1_555
H46_12 C39_12 1_555 1_555
C40_12 C39_12 1_555 1_555
H47_12 C40_12 1_555 1_555
C41_12 C36_12 1_555 1_555
C42_12 O9_12 1_555 1_555
C43_10 O10_10 1_555 1_555
C44_10 C43_10 1_555 1_555
H48_10 C44_10 1_555 1_555
H49_10 C44_10 1_555 1_555
C45_10 C44_10 1_555 1_555
H50_10 C45_10 1_555 1_555
H51_10 C45_10 1_555 1_555
C46_10 C45_10 1_555 1_555
H52_10 C46_10 1_555 1_555
H53_10 C46_10 1_555 1_555
C47_10 C46_10 1_555 1_555
H54_10 C47_10 1_555 1_555
H55_10 C47_10 1_555 1_555
C48_10 C47_10 1_555 1_555
H56_10 C48_10 1_555 1_555
H57_10 C48_10 1_555 1_555
H58_10 C48_10 1_555 1_555
O11_7 Mn5_4 1_555 1_555
N10_6 Mn5_4 1_555 1_555
N7_12 N8_12 1_555 1_555
N7_12 C42_12 1_555 1_555
N8_12 C43_10 1_555 1_555
C40_12 C41_12 1_555 1_555
C41_12 C42_12 1_555 1_555
Mn1_13 O1_13 1_555 1_555
O1_13 C1_11 1_555 1_555
O2_10 C7_10 1_555 1_555
O3_13 Mn1_13 1_555 1_555
N1_10 Mn1_13 1_555 1_555
N2_10 N1_10 1_555 1_555
N3_13 Mn1_13 1_555 1_555
C1_11 C2_11 1_555 1_555
C2_11 H1_11 1_555 1_555
C3_11 C2_11 1_555 1_555
H2_11 C3_11 1_555 1_555
C4_10 C3_11 1_555 1_555
H3_10 C4_10 1_555 1_555
C5_10 C4_10 1_555 1_555
H4_10 C5_10 1_555 1_555
C6_10 C1_11 1_555 1_555
C7_10 N1_10 1_555 1_555
C8_13 O3_13 1_555 1_555
C9_13 C8_13 1_555 1_555
H5_13 C9_13 1_555 1_555
H6_13 C9_13 1_555 1_555
C10_13 C9_13 1_555 1_555
H7_13 C10_13 1_555 1_555
H8_13 C10_13 1_555 1_555
C11_13 C10_13 1_555 1_555
H9_11 C11_13 1_555 1_555
H10_13 C11_13 1_555 1_555
C14_13 N3_13 1_555 1_555
H16_13 C14_13 1_555 1_555
C15_13 C14_13 1_555 1_555
H17_13 C15_13 1_555 1_555
C16_13 C15_13 1_555 1_555
C17_13 C16_13 1_555 1_555
H18_13 C17_13 1_555 1_555
C18_13 N3_13 1_555 1_555
H19_13 C18_13 1_555 1_555
C19_13 C16_13 1_555 1_555
H20_13 C19_13 1_555 1_555
H21_13 C19_13 1_555 1_555
Mn2_10 O2_10 1_555 1_555
O6_10 Mn2_10 1_555 1_555
N4_10 Mn2_10 1_555 1_555
N10_4 N4_10 1_555 1_555
C27_10 O6_10 1_555 1_555
C28_12 C27_10 1_555 1_555
H26_12 C28_12 1_555 1_555
H27_12 C28_12 1_555 1_555
C29_10 C28_12 1_555 1_555
H28_12 C29_10 1_555 1_555
H29_10 C29_10 1_555 1_555
C30_12 C29_10 1_555 1_555
H30_10 C30_12 1_555 1_555
H31_12 C30_12 1_555 1_555
C31_10 C30_12 1_555 1_555
H32_10 C31_10 1_555 1_555
H33_12 C31_10 1_555 1_555
C32_12 C31_10 1_555 1_555
H34_10 C32_12 1_555 1_555
H35_12 C32_12 1_555 1_555
H36_10 C32_12 1_555 1_555
H37_10 C33_10 1_555 1_555
H41_10 C35_10 1_555 1_555
H43_10 C35_10 1_555 1_555
Mn4_6 O8_13 1_555 1_555
O8_13 C36_13 1_555 1_555
O9_13 Mn1_13 1_555 1_555
O10_11 Mn4_6 1_555 1_555
N7_13 Mn4_6 1_555 1_555
N8_13 Mn1_13 1_555 1_555
C36_13 C37_13 1_555 1_555
C37_13 H44_13 1_555 1_555
C38_13 C37_13 1_555 1_555
H45_13 C38_13 1_555 1_555
C39_13 C38_13 1_555 1_555
H46_13 C39_13 1_555 1_555
C40_13 C39_13 1_555 1_555
H47_13 C40_13 1_555 1_555
C41_13 C36_13 1_555 1_555
C42_13 O9_13 1_555 1_555
C43_11 O10_11 1_555 1_555
C44_11 C43_11 1_555 1_555
H48_11 C44_11 1_555 1_555
H49_11 C44_11 1_555 1_555
C45_11 C44_11 1_555 1_555
H50_11 C45_11 1_555 1_555
H51_11 C45_11 1_555 1_555
C46_11 C45_11 1_555 1_555
H52_11 C46_11 1_555 1_555
H53_11 C46_11 1_555 1_555
C47_11 C46_11 1_555 1_555
H54_11 C47_11 1_555 1_555
H55_11 C47_11 1_555 1_555
C48_11 C47_11 1_555 1_555
H56_11 C48_11 1_555 1_555
H57_11 C48_11 1_555 1_555
H58_11 C48_11 1_555 1_555
N11_4 Mn4_6 1_555 1_555
N2_10 C8_13 1_555 1_555
N2_10 Mn2_10 1_555 1_555
C5_10 C6_10 1_555 1_555
C6_10 C7_10 1_555 1_555
C17_13 C18_13 1_555 1_555
N10_4 C27_10 1_555 1_555
N7_13 N8_13 1_555 1_555
N7_13 C42_13 1_555 1_555
N8_13 C43_11 1_555 1_555
C40_13 C41_13 1_555 1_555
C41_13 C42_13 1_555 1_555
C8_14 O3_14 1_555 1_555
C9_14 C8_14 1_555 1_555
H5_14 C9_14 1_555 1_555
H6_14 C9_14 1_555 1_555
C10_14 C9_14 1_555 1_555
H7_14 C10_14 1_555 1_555
H8_14 C10_14 1_555 1_555
C11_14 C10_14 1_555 1_555
H9_12 C11_14 1_555 1_555
H10_14 C11_14 1_555 1_555
C12_15 C11_14 1_555 1_555
H11_15 C12_15 1_555 1_555
H12_15 C12_15 1_555 1_555
C13_13 C12_15 1_555 1_555
H13_13 C13_13 1_555 1_555
H14_13 C13_13 1_555 1_555
H15_13 C13_13 1_555 1_555
C14_14 N3_14 1_555 1_555
H16_14 C14_14 1_555 1_555
C15_14 C14_14 1_555 1_555
H17_14 C15_14 1_555 1_555
C16_14 C15_14 1_555 1_555
C17_14 C16_14 1_555 1_555
H18_14 C17_14 1_555 1_555
C18_14 N3_14 1_555 1_555
C19_14 C16_14 1_555 1_555
H20_14 C19_14 1_555 1_555
H21_14 C19_14 1_555 1_555
H22_15 C21_15 1_555 1_555
C22_15 C21_15 1_555 1_555
H23_15 C22_15 1_555 1_555
C23_15 C22_15 1_555 1_555
H24_15 C23_15 1_555 1_555
C24_15 C23_15 1_555 1_555
H25_15 C24_15 1_555 1_555
N11_4 C49_15 1_555 1_555
C49_15 H59_15 1_555 1_555
C50_15 C49_15 1_555 1_555
H60_15 C50_15 1_555 1_555
C51_15 C50_15 1_555 1_555
C52_13 C51_15 1_555 1_555
H61_13 C52_13 1_555 1_555
C53_13 N11_4 1_555 1_555
H62_13 C53_13 1_555 1_555
C54_15 C19_14 1_555 1_555
H63_15 C54_15 1_555 1_555
H64_15 C54_15 1_555 1_555
C17_14 C18_14 1_555 1_555
C51_15 C54_15 1_555 1_555
C52_13 C53_13 1_555 1_555
O2_11 C7_11 1_555 1_555
N2_11 N1_11 1_555 1_555
H3_11 C4_11 1_555 1_555
C5_11 C4_11 1_555 1_555
H4_11 C5_11 1_555 1_555
C7_11 N1_11 1_555 1_555
C8_15 O3_15 1_555 1_555
C9_15 C8_15 1_555 1_555
H5_15 C9_15 1_555 1_555
H6_15 C9_15 1_555 1_555
C10_15 C9_15 1_555 1_555
H7_15 C10_15 1_555 1_555
H8_15 C10_15 1_555 1_555
C11_15 C10_15 1_555 1_555
H9_13 C11_15 1_555 1_555
H10_15 C11_15 1_555 1_555
C12_16 C11_15 1_555 1_555
H11_16 C12_16 1_555 1_555
H12_16 C12_16 1_555 1_555
C13_14 C12_16 1_555 1_555
H13_14 C13_14 1_555 1_555
H14_14 C13_14 1_555 1_555
H15_14 C13_14 1_555 1_555
C14_15 N3_15 1_555 1_555
H16_15 C14_15 1_555 1_555
C15_15 C14_15 1_555 1_555
H17_15 C15_15 1_555 1_555
C16_15 C15_15 1_555 1_555
C17_15 C16_15 1_555 1_555
H18_15 C17_15 1_555 1_555
C18_15 N3_15 1_555 1_555
C19_15 C16_15 1_555 1_555
H20_15 C19_15 1_555 1_555
H21_15 C19_15 1_555 1_555
Mn2_11 O2_11 1_555 1_555
O4_12 Mn2_11 1_555 1_555
O11_7 C26_12 1_555 1_555
O6_11 Mn2_11 1_555 1_555
O7_12 Mn2_11 1_555 1_555
N4_11 Mn2_11 1_555 1_555
N10_6 N4_11 1_555 1_555
N6_12 C33_11 1_555 1_555
C20_12 O4_12 1_555 1_555
C21_16 C20_12 1_555 1_555
H22_16 C21_16 1_555 1_555
C22_16 C21_16 1_555 1_555
H23_16 C22_16 1_555 1_555
C23_16 C22_16 1_555 1_555
H24_16 C23_16 1_555 1_555
C24_16 C23_16 1_555 1_555
H25_16 C24_16 1_555 1_555
C25_12 C20_12 1_555 1_555
C26_12 N4_11 1_555 1_555
C27_11 O6_11 1_555 1_555
C28_13 C27_11 1_555 1_555
H26_13 C28_13 1_555 1_555
H27_13 C28_13 1_555 1_555
C29_11 C28_13 1_555 1_555
H28_13 C29_11 1_555 1_555
H29_11 C29_11 1_555 1_555
C30_13 C29_11 1_555 1_555
H30_11 C30_13 1_555 1_555
H31_13 C30_13 1_555 1_555
C31_11 C30_13 1_555 1_555
H32_11 C31_11 1_555 1_555
H33_13 C31_11 1_555 1_555
C32_13 C31_11 1_555 1_555
H34_11 C32_13 1_555 1_555
H35_13 C32_13 1_555 1_555
H36_11 C32_13 1_555 1_555
C33_11 O7_12 1_555 1_555
H37_11 C33_11 1_555 1_555
C34_12 N6_12 1_555 1_555
H38_12 C34_12 1_555 1_555
H39_12 C34_12 1_555 1_555
H40_12 C34_12 1_555 1_555
C35_11 N6_12 1_555 1_555
H41_11 C35_11 1_555 1_555
H42_12 C35_11 1_555 1_555
H43_11 C35_11 1_555 1_555
N9_10 C49_16 1_555 1_555
C49_16 H59_16 1_555 1_555
C50_16 C49_16 1_555 1_555
H60_16 C50_16 1_555 1_555
C51_16 C50_16 1_555 1_555
C52_14 C51_16 1_555 1_555
H61_14 C52_14 1_555 1_555
C53_14 N9_10 1_555 1_555
H62_14 C53_14 1_555 1_555
C54_16 C19_15 1_555 1_555
H63_16 C54_16 1_555 1_555
H64_16 C54_16 1_555 1_555
Mn4_7 N9_10 1_555 1_555
N2_11 C8_15 1_555 1_555
N2_11 Mn2_11 1_555 1_555
C5_11 C6_11 1_555 1_555
C6_11 C7_11 1_555 1_555
C17_15 C18_15 1_555 1_555
N10_6 C27_11 1_555 1_555
C24_16 C25_12 1_555 1_555
C25_12 C26_12 1_555 1_555
C51_16 C54_16 1_555 1_555
C52_14 C53_14 1_555 1_555
Mn1_14 O1_14 1_555 1_555
O1_14 C1_12 1_555 1_555
O2_12 C7_12 1_555 1_555
O3_16 Mn1_14 1_555 1_555
N1_12 Mn1_14 1_555 1_555
N2_12 N1_12 1_555 1_555
N3_16 Mn1_14 1_555 1_555
C1_12 C2_12 1_555 1_555
C2_12 H1_12 1_555 1_555
C3_12 C2_12 1_555 1_555
H2_12 C3_12 1_555 1_555
C4_12 C3_12 1_555 1_555
H3_12 C4_12 1_555 1_555
C5_12 C4_12 1_555 1_555
H4_12 C5_12 1_555 1_555
C6_12 C1_12 1_555 1_555
C7_12 N1_12 1_555 1_555
C8_16 O3_16 1_555 1_555
C9_16 C8_16 1_555 1_555
H5_16 C9_16 1_555 1_555
H6_16 C9_16 1_555 1_555
C10_16 C9_16 1_555 1_555
H7_16 C10_16 1_555 1_555
H8_16 C10_16 1_555 1_555
C11_16 C10_16 1_555 1_555
H9_14 C11_16 1_555 1_555
H10_16 C11_16 1_555 1_555
C14_16 N3_16 1_555 1_555
H16_16 C14_16 1_555 1_555
C15_16 C14_16 1_555 1_555
H17_16 C15_16 1_555 1_555
C16_16 C15_16 1_555 1_555
C17_16 C16_16 1_555 1_555
H18_16 C17_16 1_555 1_555
C18_16 N3_16 1_555 1_555
H19_14 C18_16 1_555 1_555
C19_16 C16_16 1_555 1_555
H20_16 C19_16 1_555 1_555
H21_16 C19_16 1_555 1_555
Mn2_12 O2_12 1_555 1_555
O6_12 Mn2_12 1_555 1_555
N4_12 Mn2_12 1_555 1_555
N10_5 N4_12 1_555 1_555
C27_12 O6_12 1_555 1_555
C28_14 C27_12 1_555 1_555
H26_14 C28_14 1_555 1_555
H27_14 C28_14 1_555 1_555
C29_12 C28_14 1_555 1_555
H28_14 C29_12 1_555 1_555
H29_12 C29_12 1_555 1_555
C30_14 C29_12 1_555 1_555
H30_12 C30_14 1_555 1_555
H31_14 C30_14 1_555 1_555
C31_12 C30_14 1_555 1_555
H32_12 C31_12 1_555 1_555
H33_14 C31_12 1_555 1_555
C32_14 C31_12 1_555 1_555
H34_12 C32_14 1_555 1_555
H35_14 C32_14 1_555 1_555
H36_12 C32_14 1_555 1_555
H37_12 C33_12 1_555 1_555
H41_12 C35_12 1_555 1_555
H43_12 C35_12 1_555 1_555
Mn4_7 O8_14 1_555 1_555
O8_14 C36_14 1_555 1_555
O9_14 Mn1_14 1_555 1_555
O10_12 Mn4_7 1_555 1_555
N7_14 Mn4_7 1_555 1_555
N8_14 Mn1_14 1_555 1_555
C36_14 C37_14 1_555 1_555
C37_14 H44_14 1_555 1_555
C38_14 C37_14 1_555 1_555
H45_14 C38_14 1_555 1_555
C39_14 C38_14 1_555 1_555
H46_14 C39_14 1_555 1_555
C40_14 C39_14 1_555 1_555
H47_14 C40_14 1_555 1_555
C41_14 C36_14 1_555 1_555
C42_14 O9_14 1_555 1_555
C43_12 O10_12 1_555 1_555
C44_12 C43_12 1_555 1_555
H48_12 C44_12 1_555 1_555
H49_12 C44_12 1_555 1_555
C45_12 C44_12 1_555 1_555
H50_12 C45_12 1_555 1_555
H51_12 C45_12 1_555 1_555
C46_12 C45_12 1_555 1_555
H52_12 C46_12 1_555 1_555
H53_12 C46_12 1_555 1_555
C47_12 C46_12 1_555 1_555
H54_12 C47_12 1_555 1_555
H55_12 C47_12 1_555 1_555
C48_12 C47_12 1_555 1_555
H56_12 C48_12 1_555 1_555
H57_12 C48_12 1_555 1_555
H58_12 C48_12 1_555 1_555
N2_12 C8_16 1_555 1_555
N2_12 Mn2_12 1_555 1_555
C5_12 C6_12 1_555 1_555
C6_12 C7_12 1_555 1_555
C17_16 C18_16 1_555 1_555
N10_5 C27_12 1_555 1_555
N7_14 N8_14 1_555 1_555
N7_14 C42_14 1_555 1_555
N8_14 C43_12 1_555 1_555
C40_14 C41_14 1_555 1_555
C41_14 C42_14 1_555 1_555
C1_13 C2_13 1_555 1_555
C2_13 H1_13 1_555 1_555
C3_13 C2_13 1_555 1_555
H2_13 C3_13 1_555 1_555
C43_13 O10_13 1_555 1_555
C44_13 C43_13 1_555 1_555
H48_13 C44_13 1_555 1_555
H49_13 C44_13 1_555 1_555
C45_13 C44_13 1_555 1_555
H50_13 C45_13 1_555 1_555
H51_13 C45_13 1_555 1_555
C46_13 C45_13 1_555 1_555
H52_13 C46_13 1_555 1_555
H53_13 C46_13 1_555 1_555
C47_13 C46_13 1_555 1_555
H54_13 C47_13 1_555 1_555
H55_13 C47_13 1_555 1_555
C48_13 C47_13 1_555 1_555
H56_13 C48_13 1_555 1_555
H57_13 C48_13 1_555 1_555
H58_13 C48_13 1_555 1_555
O2_13 C7_13 1_555 1_555
N2_13 N1_13 1_555 1_555
H3_13 C4_13 1_555 1_555
C5_13 C4_13 1_555 1_555
H4_13 C5_13 1_555 1_555
C7_13 N1_13 1_555 1_555
Mn2_13 O2_13 1_555 1_555
O4_13 Mn2_13 1_555 1_555
O5_8 C26_13 1_555 1_555
O6_13 Mn2_13 1_555 1_555
O7_13 Mn2_13 1_555 1_555
N4_13 Mn2_13 1_555 1_555
N5_7 N4_13 1_555 1_555
N6_13 C33_13 1_555 1_555
C20_13 O4_13 1_555 1_555
C25_13 C20_13 1_555 1_555
C26_13 N4_13 1_555 1_555
C27_13 O6_13 1_555 1_555
C28_15 C27_13 1_555 1_555
H26_15 C28_15 1_555 1_555
H27_15 C28_15 1_555 1_555
C29_13 C28_15 1_555 1_555
H28_15 C29_13 1_555 1_555
H29_13 C29_13 1_555 1_555
C30_15 C29_13 1_555 1_555
H30_13 C30_15 1_555 1_555
H31_15 C30_15 1_555 1_555
C31_13 C30_15 1_555 1_555
H32_13 C31_13 1_555 1_555
H33_15 C31_13 1_555 1_555
C32_15 C31_13 1_555 1_555
H34_13 C32_15 1_555 1_555
H35_15 C32_15 1_555 1_555
H36_13 C32_15 1_555 1_555
C33_13 O7_13 1_555 1_555
H37_13 C33_13 1_555 1_555
C34_13 N6_13 1_555 1_555
H38_13 C34_13 1_555 1_555
H39_13 C34_13 1_555 1_555
H40_13 C34_13 1_555 1_555
C35_13 N6_13 1_555 1_555
H41_13 C35_13 1_555 1_555
H42_13 C35_13 1_555 1_555
H43_13 C35_13 1_555 1_555
Mn4_8 O5_8 1_555 1_555
N2_13 Mn2_13 1_555 1_555
C5_13 C6_13 1_555 1_555
C6_13 C7_13 1_555 1_555
N5_7 C27_13 1_555 1_555
N5_7 Mn4_8 1_555 1_555
C25_13 C26_13 1_555 1_555
Mn1_15 O1_15 1_555 1_555
Mn4_8 O8_15 1_555 1_555
O8_15 C36_15 1_555 1_555
O9_15 Mn1_15 1_555 1_555
N7_15 Mn4_8 1_555 1_555
N8_15 Mn1_15 1_555 1_555
C36_15 C37_15 1_555 1_555
C37_15 H44_15 1_555 1_555
C38_15 C37_15 1_555 1_555
H45_15 C38_15 1_555 1_555
C39_15 C38_15 1_555 1_555
H46_15 C39_15 1_555 1_555
C40_15 C39_15 1_555 1_555
H47_15 C40_15 1_555 1_555
C41_15 C36_15 1_555 1_555
C42_15 O9_15 1_555 1_555
N11_5 Mn4_8 1_555 1_555
N7_15 N8_15 1_555 1_555
N7_15 C42_15 1_555 1_555
C40_15 C41_15 1_555 1_555
C41_15 C42_15 1_555 1_555
H61_15 C52_15 1_555 1_555
C53_15 N11_5 1_555 1_555
H62_15 C53_15 1_555 1_555
C52_15 C53_15 1_555 1_555
Mn1_16 O1_16 1_555 1_555
Mn3_3 O8_16 1_555 1_555
O8_16 C36_16 1_555 1_555
O9_16 Mn1_16 1_555 1_555
N7_16 Mn3_3 1_555 1_555
N8_16 Mn1_16 1_555 1_555
C36_16 C37_16 1_555 1_555
C37_16 H44_16 1_555 1_555
C38_16 C37_16 1_555 1_555
H45_16 C38_16 1_555 1_555
C39_16 C38_16 1_555 1_555
H46_16 C39_16 1_555 1_555
C40_16 C39_16 1_555 1_555
H47_16 C40_16 1_555 1_555
C41_16 C36_16 1_555 1_555
C42_16 O9_16 1_555 1_555
O11_8 Mn3_3 1_555 1_555
N10_7 Mn3_3 1_555 1_555
N11_6 Mn3_3 1_555 1_555
N7_16 N8_16 1_555 1_555
N7_16 C42_16 1_555 1_555
C40_16 C41_16 1_555 1_555
C41_16 C42_16 1_555 1_555
H61_16 C52_16 1_555 1_555
C53_16 N11_6 1_555 1_555
H62_16 C53_16 1_555 1_555
C52_16 C53_16 1_555 1_555
O2_14 C7_14 1_555 1_555
N2_14 N1_14 1_555 1_555
H3_14 C4_14 1_555 1_555
C5_14 C4_14 1_555 1_555
H4_14 C5_14 1_555 1_555
C7_14 N1_14 1_555 1_555
Mn2_14 O2_14 1_555 1_555
O4_14 Mn2_14 1_555 1_555
O11_8 C26_14 1_555 1_555
O6_14 Mn2_14 1_555 1_555
O7_14 Mn2_14 1_555 1_555
N4_14 Mn2_14 1_555 1_555
N10_7 N4_14 1_555 1_555
N6_14 C33_14 1_555 1_555
C20_14 O4_14 1_555 1_555
C25_14 C20_14 1_555 1_555
C26_14 N4_14 1_555 1_555
C27_14 O6_14 1_555 1_555
C28_16 C27_14 1_555 1_555
H26_16 C28_16 1_555 1_555
H27_16 C28_16 1_555 1_555
C29_14 C28_16 1_555 1_555
H28_16 C29_14 1_555 1_555
H29_14 C29_14 1_555 1_555
C30_16 C29_14 1_555 1_555
H30_14 C30_16 1_555 1_555
H31_16 C30_16 1_555 1_555
C31_14 C30_16 1_555 1_555
H32_14 C31_14 1_555 1_555
H33_16 C31_14 1_555 1_555
C32_16 C31_14 1_555 1_555
H34_14 C32_16 1_555 1_555
H35_16 C32_16 1_555 1_555
H36_14 C32_16 1_555 1_555
C33_14 O7_14 1_555 1_555
H37_14 C33_14 1_555 1_555
C34_14 N6_14 1_555 1_555
H38_14 C34_14 1_555 1_555
H39_14 C34_14 1_555 1_555
H40_14 C34_14 1_555 1_555
C35_14 N6_14 1_555 1_555
H41_14 C35_14 1_555 1_555
H42_14 C35_14 1_555 1_555
H43_14 C35_14 1_555 1_555
N2_14 Mn2_14 1_555 1_555
C5_14 C6_14 1_555 1_555
C6_14 C7_14 1_555 1_555
N10_7 C27_14 1_555 1_555
C25_14 C26_14 1_555 1_555
O2_15 C7_15 1_555 1_555
N2_15 N1_15 1_555 1_555
C1_14 C2_14 1_555 1_555
C2_14 H1_14 1_555 1_555
C3_14 C2_14 1_555 1_555
H2_14 C3_14 1_555 1_555
C4_15 C3_14 1_555 1_555
H3_15 C4_15 1_555 1_555
C5_15 C4_15 1_555 1_555
H4_15 C5_15 1_555 1_555
C6_15 C1_14 1_555 1_555
C7_15 N1_15 1_555 1_555
Mn2_15 O2_15 1_555 1_555
O4_15 Mn2_15 1_555 1_555
O6_15 Mn2_15 1_555 1_555
O7_15 Mn2_15 1_555 1_555
N4_15 Mn2_15 1_555 1_555
N5_8 N4_15 1_555 1_555
N6_15 C33_15 1_555 1_555
C20_15 O4_15 1_555 1_555
C25_15 C20_15 1_555 1_555
C26_15 N4_15 1_555 1_555
C27_15 O6_15 1_555 1_555
H29_15 C29_15 1_555 1_555
H32_15 C31_15 1_555 1_555
C33_15 O7_15 1_555 1_555
H37_15 C33_15 1_555 1_555
C34_15 N6_15 1_555 1_555
H38_15 C34_15 1_555 1_555
H39_15 C34_15 1_555 1_555
H40_15 C34_15 1_555 1_555
C35_15 N6_15 1_555 1_555
H41_15 C35_15 1_555 1_555
H42_15 C35_15 1_555 1_555
H43_15 C35_15 1_555 1_555
C43_14 O10_14 1_555 1_555
C44_14 C43_14 1_555 1_555
H48_14 C44_14 1_555 1_555
H49_14 C44_14 1_555 1_555
C45_14 C44_14 1_555 1_555
H50_14 C45_14 1_555 1_555
H51_14 C45_14 1_555 1_555
C46_14 C45_14 1_555 1_555
H52_14 C46_14 1_555 1_555
H53_14 C46_14 1_555 1_555
C47_14 C46_14 1_555 1_555
H54_14 C47_14 1_555 1_555
H55_14 C47_14 1_555 1_555
C48_14 C47_14 1_555 1_555
H56_14 C48_14 1_555 1_555
H57_14 C48_14 1_555 1_555
H58_14 C48_14 1_555 1_555
N2_15 Mn2_15 1_555 1_555
C5_15 C6_15 1_555 1_555
C6_15 C7_15 1_555 1_555
N5_8 C27_15 1_555 1_555
C25_15 C26_15 1_555 1_555
H13_15 C13_15 1_555 1_555
H14_15 C13_15 1_555 1_555
H15_15 C13_15 1_555 1_555
H13_16 C13_16 1_555 1_555
H14_16 C13_16 1_555 1_555
H15_16 C13_16 1_555 1_555
O2_16 C7_16 1_555 1_555
N2_16 N1_16 1_555 1_555
C1_15 C2_15 1_555 1_555
C2_15 H1_15 1_555 1_555
C3_15 C2_15 1_555 1_555
H2_15 C3_15 1_555 1_555
C4_16 C3_15 1_555 1_555
H3_16 C4_16 1_555 1_555
C5_16 C4_16 1_555 1_555
H4_16 C5_16 1_555 1_555
C6_16 C1_15 1_555 1_555
C7_16 N1_16 1_555 1_555
Mn2_16 O2_16 1_555 1_555
O4_16 Mn2_16 1_555 1_555
O6_16 Mn2_16 1_555 1_555
O7_16 Mn2_16 1_555 1_555
N4_16 Mn2_16 1_555 1_555
N10_8 N4_16 1_555 1_555
N6_16 C33_16 1_555 1_555
C20_16 O4_16 1_555 1_555
C25_16 C20_16 1_555 1_555
C26_16 N4_16 1_555 1_555
C27_16 O6_16 1_555 1_555
H29_16 C29_16 1_555 1_555
H32_16 C31_16 1_555 1_555
C33_16 O7_16 1_555 1_555
H37_16 C33_16 1_555 1_555
C34_16 N6_16 1_555 1_555
H38_16 C34_16 1_555 1_555
H39_16 C34_16 1_555 1_555
H40_16 C34_16 1_555 1_555
C35_16 N6_16 1_555 1_555
H41_16 C35_16 1_555 1_555
H42_16 C35_16 1_555 1_555
H43_16 C35_16 1_555 1_555
C43_15 O10_15 1_555 1_555
C44_15 C43_15 1_555 1_555
H48_15 C44_15 1_555 1_555
H49_15 C44_15 1_555 1_555
C45_15 C44_15 1_555 1_555
H50_15 C45_15 1_555 1_555
H51_15 C45_15 1_555 1_555
C46_15 C45_15 1_555 1_555
H52_15 C46_15 1_555 1_555
H53_15 C46_15 1_555 1_555
C47_15 C46_15 1_555 1_555
H54_15 C47_15 1_555 1_555
H55_15 C47_15 1_555 1_555
C48_15 C47_15 1_555 1_555
H56_15 C48_15 1_555 1_555
H57_15 C48_15 1_555 1_555
H58_15 C48_15 1_555 1_555
N2_16 Mn2_16 1_555 1_555
C5_16 C6_16 1_555 1_555
C6_16 C7_16 1_555 1_555
N10_8 C27_16 1_555 1_555
C25_16 C26_16 1_555 1_555
C1_16 C2_16 1_555 1_555
C2_16 H1_16 1_555 1_555
C3_16 C2_16 1_555 1_555
H2_16 C3_16 1_555 1_555
C43_16 O10_16 1_555 1_555
C44_16 C43_16 1_555 1_555
H48_16 C44_16 1_555 1_555
H49_16 C44_16 1_555 1_555
C45_16 C44_16 1_555 1_555
H50_16 C45_16 1_555 1_555
H51_16 C45_16 1_555 1_555
C46_16 C45_16 1_555 1_555
H52_16 C46_16 1_555 1_555
H53_16 C46_16 1_555 1_555
C47_16 C46_16 1_555 1_555
H54_16 C47_16 1_555 1_555
H55_16 C47_16 1_555 1_555
C48_16 C47_16 1_555 1_555
H56_16 C48_16 1_555 1_555
H57_16 C48_16 1_555 1_555
H58_16 C48_16 1_555 1_555

#END
