
###############################################################################
#
# This file contains modified crystal structure data generated from the
# MOF subset of the Cambridge Structural Database (CSD) v543 
# hosted by the Cambridge Crystallographic Data Centre (CCDC).
#
# This work is licensed under the Creative Commons
# Attribution-NonCommercial-ShareAlike 4.0 International License.
# To view a copy of this license, visit
# http://creativecommons.org/licenses/by-nc-sa/4.0/
# or send a letter to
# Creative Commons, PO Box 1866, Mountain View, CA 94042, USA.
#
# CIF created using the CSD Python API on 29 September 2022
# The structure has been converted into the P1 space group
# The structure has a 3D framework
# The original CSD entry XALCET is in the tetragonal crystal system
# The framework has been calculated to contain at least 10.0% void space
# The void calculation uses a probe of radius 1.32A, grid spacing 0.4
#
###############################################################################

data_XALCET
_chemical_formula_moiety         '(C720 H736 Mn48 N144 O160)n'
_symmetry_cell_setting           triclinic
_symmetry_space_group_name_H-M   'P 1'
_symmetry_Int_Tables_number      1
_space_group_name_Hall           'P 1'
loop_
_symmetry_equiv_pos_site_id
_symmetry_equiv_pos_as_xyz
1 x,y,z
_cell_length_a                   40.9493(16)
_cell_length_b                   40.9493(16)
_cell_length_c                   17.2151(10)
_cell_angle_alpha                90
_cell_angle_beta                 90
_cell_angle_gamma                90
_cell_volume                     28867.1
loop_
_atom_site_label
_atom_site_type_symbol
_atom_site_fract_x
_atom_site_fract_y
_atom_site_fract_z
Mn1 Mn 0.074480(13) 0.045727(14) 0.17540(4)
O1 O 0.09453(6) 0.02121(7) 0.25201(18)
O3 O 0.04668(6) 0.07038(6) 0.10538(14)
O4 O 0.08697(8) 0.09327(8) 0.2348(2)
N1 N 0.03299(7) 0.04062(7) 0.22735(18)
N2 N 0.00621(7) 0.05601(7) 0.18943(18)
N3 N 0.09097(18) 0.14935(18) 0.2371(5)
C1 C 0.08167(12) 0.00556(11) 0.3126(3)
C6 C 0.04923(11) 0.00856(10) 0.3375(2)
C7 C 0.02494(10) 0.02658(10) 0.2935(2)
C8 C 0.01622(9) 0.07003(9) 0.1265(2)
C10 C 0.00415(13) 0.11166(16) 0.0226(4)
H7 H 0.0112 0.1310 0.0516
C11 C 0.0798(2) 0.1185(2) 0.2144(6)
H10 H 0.0634 0.1189 0.1754
C12 C 0.11498(15) 0.15205(18) 0.2860(4)
H11 H 0.1142 0.1339 0.3230
H12 H 0.1130 0.1728 0.3141
H13 H 0.1358 0.1516 0.2578
C13 C 0.0779(3) 0.1822(2) 0.1962(8)
H14 H 0.0803 0.2006 0.2322
H15 H 0.0548 0.1795 0.1825
H16 H 0.0906 0.1864 0.1491
O9 O 0.11510(6) 0.05255(6) 0.11742(15)
N7 N 0.10559(7) 0.00631(7) 0.04736(17)
N8 N 0.07668(7) 0.00391(7) 0.09100(18)
C33 C 0.20583(10) 0.06758(10) 0.0178(3)
H34 H 0.2195 0.0847 0.0359
C34 C 0.17601(9) 0.06152(9) 0.0512(2)
H35 H 0.1691 0.0748 0.0933
C35 C 0.15568(9) 0.03681(9) 0.0258(2)
C36 C 0.12377(9) 0.03159(9) 0.0649(2)
H9 H 0.0227 0.1026 0.9938
C30 C 0.16605(10) 0.01672(10) 0.9648(2)
C31 C 0.19627(11) 0.02348(11) 0.9309(3)
H32 H 0.2035 0.0106 0.8884
C32 C 0.21528(11) 0.04776(12) 0.9567(3)
H33 H 0.2358 0.0515 0.9325
C2 C 0.10317(13) 0.98545(13) 0.3553(4)
H1 H 0.1251 0.9829 0.3384
C3 C 0.09285(17) 0.96972(16) 0.4201(4)
H2 H 0.1076 0.9558 0.4471
C4 C 0.06090(18) 0.97357(16) 0.4482(4)
H3 H 0.0541 0.9630 0.4946
C5 C 0.03922(12) 0.99335(13) 0.4061(3)
H4 H 0.0176 0.9964 0.4244
O10 O 0.07373(6) 0.95531(6) 0.02606(16)
C37 C 0.06243(9) 0.97608(10) 0.0767(3)
C38 C 0.03227(11) 0.96694(13) 0.1195(4)
H36 H 0.0230 0.9864 0.1454
H37 H 0.0158 0.9583 0.0827
C39 C 0.04131(16) 0.93863(17) 0.1853(4)
H38 H 0.0582 0.9470 0.2204
H39 H 0.0217 0.9332 0.2153
H40 H 0.0493 0.9190 0.1591
N11 N 0.14206(8) 0.94129(8) 0.0600(2)
Mn1_2 Mn 0.204273(14) 0.824480(13) 0.92540(4)
O3_2 O 0.17962(6) 0.79668(6) 0.85538(14)
O4_2 O 0.15673(8) 0.83697(8) 0.9848(2)
N1_2 N 0.20938(7) 0.78299(7) 0.97735(18)
N2_2 N 0.19399(7) 0.75621(7) 0.93943(18)
N3_2 N 0.10065(18) 0.84097(18) 0.9871(5)
C8_2 C 0.17997(9) 0.76622(9) 0.8765(2)
C9 C 0.16258(10) 0.74188(10) 0.8261(2)
H5 H 0.1792 0.7300 0.7956
H6 H 0.1518 0.7258 0.8605
C10_2 C 0.13834(16) 0.75415(13) 0.7726(4)
H7_2 H 0.1190 0.7612 0.8016
H8 H 0.1322 0.7368 0.7360
H9_2 H 0.1474 0.7727 0.7438
C11_2 C 0.1315(2) 0.8298(2) 0.9644(6)
H10_2 H 0.1311 0.8134 0.9254
C13_2 C 0.0678(2) 0.8279(3) 0.9462(8)
H14_2 H 0.0494 0.8303 0.9822
H15_2 H 0.0705 0.8048 0.9325
H16_2 H 0.0636 0.8406 0.8991
Mn2 Mn 0.210732(15) 0.709841(14) 0.99745(3)
O6 O 0.18329(6) 0.63538(6) 0.84776(14)
O7 O 0.25181(6) 0.71392(6) 0.94555(15)
N4 N 0.20613(8) 0.67555(7) 0.92131(17)
N5 N 0.23391(7) 0.67080(7) 0.87474(18)
C17 C 0.10094(11) 0.62952(11) 0.9859(3)
H19 H 0.0850 0.6133 0.9752
C18 C 0.12835(10) 0.63275(9) 0.9408(2)
H20 H 0.1309 0.6185 0.8975
C19 C 0.15236(9) 0.65546(9) 0.9548(2)
C20 C 0.18144(9) 0.65560(9) 0.9047(2)
C21 C 0.25635(10) 0.69151(10) 0.8929(2)
C22 C 0.28913(10) 0.68927(11) 0.8543(3)
H21 H 0.2889 0.6703 0.8188
H22 H 0.2923 0.7091 0.8221
C23 C 0.31676(18) 0.6861(3) 0.9054(5)
H23 H 0.3107 0.6934 0.9577
H24 H 0.3348 0.6996 0.8860
H25 H 0.3237 0.6632 0.9074
Mn3 Mn 0.278930(14) 0.862420(13) 0.72398(3)
O8 O 0.25832(7) 0.89878(6) 0.68455(15)
O9_2 O 0.19745(6) 0.86510(6) 0.86742(15)
O10_2 O 0.29469(6) 0.82373(6) 0.77606(16)
N7_2 N 0.24369(7) 0.85559(7) 0.79736(17)
N8_2 N 0.24609(7) 0.82668(7) 0.84100(18)
C30_2 C 0.23328(10) 0.91605(10) 0.7148(2)
C31_2 C 0.22652(11) 0.94627(11) 0.6809(3)
H32_2 H 0.2394 0.9535 0.6384
C32_2 C 0.20224(12) 0.96528(11) 0.7067(3)
H33_2 H 0.1985 0.9858 0.6825
C33_2 C 0.18242(10) 0.95583(10) 0.7678(3)
H34_2 H 0.1653 0.9695 0.7859
C34_2 C 0.18848(9) 0.92601(9) 0.8012(2)
H35_2 H 0.1752 0.9191 0.8433
C35_2 C 0.21319(9) 0.90568(9) 0.7758(2)
C36_2 C 0.21841(9) 0.87377(9) 0.8149(2)
C37_2 C 0.27392(10) 0.81243(9) 0.8267(3)
C38_2 C 0.28306(13) 0.78227(11) 0.8695(4)
H36_2 H 0.2636 0.7730 0.8954
H37_2 H 0.2917 0.7658 0.8327
C39_2 C 0.31137(17) 0.79131(16) 0.9353(4)
H38_2 H 0.3030 0.8082 0.9704
H39_2 H 0.3168 0.7717 0.9653
H40_2 H 0.3310 0.7993 0.9091
O11 O 0.31671(6) 0.86462(6) 0.65224(14)
N10 N 0.26609(7) 0.82920(7) 0.62526(18)
Mn4 Mn 0.221070(14) 0.637580(13) 0.77602(3)
N11_2 N 0.30871(8) 0.89206(8) 0.8100(2)
H41 H 0.1715 0.4213 0.0160
Mn5 Mn 0.112420(13) 0.471070(14) 0.02602(3)
O2 O 0.00452(6) 0.47230(7) 0.32011(14)
C9_2 C 0.00812(10) 0.41258(10) 0.0761(2)
H5_2 H 0.0200 0.4292 0.0456
H6_2 H 0.0242 0.4018 0.1105
Mn2_2 Mn 0.040159(14) 0.460732(15) 0.24745(3)
O5 O 0.05044(7) 0.42024(7) 0.28893(15)
O6_2 O 0.11462(6) 0.43329(6) 0.09776(14)
O7_2 O 0.03608(6) 0.50181(6) 0.19555(15)
N4_2 N 0.07445(7) 0.45613(8) 0.17131(17)
N5_2 N 0.07920(7) 0.48391(7) 0.12474(18)
N6 N 0.07319(9) 0.48737(10) 0.3316(2)
C14 C 0.07277(10) 0.39876(11) 0.2688(3)
C15 C 0.07605(12) 0.37060(13) 0.3134(3)
H17 H 0.0617 0.3675 0.3562
C16 C 0.09881(13) 0.34739(14) 0.2984(3)
H18 H 0.1001 0.3286 0.3305
C17_2 C 0.12048(11) 0.35094(11) 0.2359(3)
H19_2 H 0.1367 0.3350 0.2252
C18_2 C 0.11725(9) 0.37835(10) 0.1908(2)
H20_2 H 0.1315 0.3809 0.1475
C19_2 C 0.09454(9) 0.40236(9) 0.2048(2)
C20_2 C 0.09440(9) 0.43144(9) 0.1547(2)
C21_2 C 0.05849(10) 0.50635(10) 0.1429(2)
C22_2 C 0.06073(11) 0.53913(10) 0.1043(3)
H21_2 H 0.0797 0.5389 0.0688
H22_2 H 0.0409 0.5423 0.0721
C23_2 C 0.0639(3) 0.56676(18) 0.1554(5)
H23_2 H 0.0566 0.5607 0.2077
H24_2 H 0.0504 0.5848 0.1360
H25_2 H 0.0868 0.5737 0.1574
C24 C 0.06374(12) 0.51615(16) 0.3585(3)
H26 H 0.0426 0.5238 0.3452
C25 C 0.08362(15) 0.53596(16) 0.4059(3)
H27 H 0.0762 0.5566 0.4241
C26 C 0.11440(14) 0.52436(18) 0.4252(3)
C27 C 0.12372(13) 0.49719(18) 0.3924(3)
H28 H 0.1455 0.4899 0.3999
C28 C 0.10302(12) 0.47873(14) 0.3472(3)
H29 H 0.1109 0.4587 0.3265
C29 C 0.13787(14) 0.54333(19) 0.4783(4)
H30 H 0.1514 0.5274 0.5071
H31 H 0.1528 0.5563 0.4452
N9 N 0.19129(8) 0.60794(8) 0.6900(2)
C40 C 0.17099(11) 0.58472(12) 0.7128(3)
H41_2 H 0.1713 0.5785 0.7660
C41 C 0.14951(14) 0.56911(14) 0.6644(3)
H42 H 0.1352 0.5527 0.6837
C42 C 0.14908(16) 0.57755(14) 0.5879(3)
C43 C 0.17099(14) 0.60160(14) 0.5625(3)
H43 H 0.1714 0.6083 0.5097
C44 C 0.19176(12) 0.61518(12) 0.6161(3)
H44 H 0.2073 0.6307 0.5985
C45 C 0.12401(19) 0.56325(15) 0.5292(3)
H45 H 0.1069 0.5512 0.5581
H46 H 0.1133 0.5814 0.5011
Mn1_3 Mn 0.295727(14) 0.675520(13) 0.57460(4)
O1_2 O 0.27121(7) 0.65547(6) 0.49799(18)
O2_2 O 0.27770(7) 0.75452(6) 0.42989(14)
O3_3 O 0.32038(6) 0.70332(6) 0.64462(14)
O4_3 O 0.34327(8) 0.66303(8) 0.5152(2)
N1_3 N 0.29062(7) 0.71701(7) 0.52265(18)
N2_3 N 0.30601(7) 0.74379(7) 0.56057(18)
N3_3 N 0.39935(18) 0.65903(18) 0.5129(5)
C1_2 C 0.25556(11) 0.66833(12) 0.4374(3)
C2_2 C 0.23545(13) 0.64683(13) 0.3947(4)
H1_2 H 0.2329 0.6249 0.4116
C3_2 C 0.21972(16) 0.65715(17) 0.3299(4)
H2_2 H 0.2058 0.6424 0.3029
C4_2 C 0.22357(16) 0.68910(18) 0.3018(4)
H3_2 H 0.2130 0.6959 0.2554
C5_2 C 0.24335(13) 0.71078(12) 0.3439(3)
H4_2 H 0.2464 0.7324 0.3256
C6_2 C 0.25856(10) 0.70077(11) 0.4125(2)
C7_2 C 0.27658(10) 0.72506(10) 0.4565(2)
C8_3 C 0.32003(9) 0.73378(9) 0.6235(2)
C9_3 C 0.33742(10) 0.75812(10) 0.6739(2)
H5_3 H 0.3208 0.7700 0.7044
H6_3 H 0.3482 0.7742 0.6395
C10_3 C 0.36166(16) 0.74585(13) 0.7274(4)
H7_3 H 0.3810 0.7388 0.6984
H8_2 H 0.3678 0.7632 0.7640
H9_3 H 0.3526 0.7273 0.7562
C11_3 C 0.3685(2) 0.6702(2) 0.5356(6)
H10_3 H 0.3689 0.6866 0.5746
C12_2 C 0.40205(18) 0.63502(15) 0.4640(4)
H11_2 H 0.3839 0.6358 0.4270
H12_2 H 0.4228 0.6370 0.4359
H13_2 H 0.4016 0.6142 0.4922
C13_3 C 0.4322(2) 0.6721(3) 0.5538(8)
H14_3 H 0.4506 0.6697 0.5178
H15_3 H 0.4295 0.6952 0.5675
H16_3 H 0.4364 0.6594 0.6009
Mn2_3 Mn 0.289268(15) 0.790159(14) 0.50255(3)
O5_2 O 0.32976(7) 0.80044(7) 0.46107(15)
O7_3 O 0.24819(6) 0.78608(6) 0.55445(15)
N4_3 N 0.29387(8) 0.82445(7) 0.57869(17)
N6_2 N 0.26263(10) 0.82319(9) 0.4184(2)
C14_2 C 0.35124(11) 0.82277(10) 0.4812(3)
C15_2 C 0.37940(13) 0.82605(12) 0.4366(3)
H17_2 H 0.3825 0.8117 0.3938
C16_2 C 0.40261(14) 0.84881(13) 0.4516(3)
H18_2 H 0.4214 0.8501 0.4195
C17_3 C 0.39906(11) 0.87048(11) 0.5141(3)
H19_3 H 0.4150 0.8867 0.5248
C18_3 C 0.37165(10) 0.86725(9) 0.5592(2)
H20_3 H 0.3691 0.8815 0.6025
C19_3 C 0.34764(9) 0.84454(9) 0.5452(2)
C20_3 C 0.31856(9) 0.84440(9) 0.5953(2)
C21_3 C 0.24365(10) 0.80849(10) 0.6071(2)
C22_3 C 0.21087(10) 0.81073(11) 0.6457(3)
H21_3 H 0.2111 0.8297 0.6812
H22_3 H 0.2077 0.7909 0.6779
C23_3 C 0.18324(18) 0.8139(3) 0.5946(5)
H23_3 H 0.1893 0.8066 0.5423
H24_3 H 0.1652 0.8004 0.6140
H25_3 H 0.1763 0.8368 0.5926
C24_2 C 0.23385(16) 0.81374(12) 0.3915(3)
H26_2 H 0.2262 0.7926 0.4048
C25_2 C 0.21404(16) 0.83362(15) 0.3441(3)
H27_2 H 0.1934 0.8262 0.3259
C26_2 C 0.22564(18) 0.86440(14) 0.3248(3)
C27_2 C 0.25281(18) 0.87372(13) 0.3576(3)
H28_2 H 0.2601 0.8955 0.3501
C28_2 C 0.27127(14) 0.85302(12) 0.4028(3)
H29_2 H 0.2913 0.8609 0.4235
C29_2 C 0.20667(19) 0.88787(14) 0.2717(4)
H30_2 H 0.2226 0.9014 0.2429
H31_2 H 0.1937 0.9028 0.3048
O8_2 O 0.24168(7) 0.60122(6) 0.81545(15)
O9_3 O 0.30255(6) 0.63490(6) 0.63258(15)
O10_3 O 0.20531(6) 0.67627(6) 0.72394(16)
N7_3 N 0.25631(7) 0.64441(7) 0.70264(17)
N8_3 N 0.25391(7) 0.67332(7) 0.65900(18)
C30_3 C 0.26672(10) 0.58395(10) 0.7852(2)
C31_3 C 0.27348(11) 0.55373(11) 0.8191(3)
H32_3 H 0.2606 0.5465 0.8616
C32_3 C 0.29776(12) 0.53472(11) 0.7933(3)
H33_3 H 0.3015 0.5142 0.8175
C33_3 C 0.31758(10) 0.54417(10) 0.7322(3)
H34_3 H 0.3347 0.5305 0.7141
C34_3 C 0.31152(9) 0.57399(9) 0.6988(2)
H35_3 H 0.3248 0.5809 0.6567
C35_3 C 0.28681(9) 0.59432(9) 0.7242(2)
C36_3 C 0.28159(9) 0.62623(9) 0.6851(2)
C37_3 C 0.22608(10) 0.68757(9) 0.6733(3)
C38_3 C 0.21694(13) 0.71773(11) 0.6305(4)
H36_3 H 0.2364 0.7270 0.6046
H37_3 H 0.2083 0.7342 0.6673
C39_3 C 0.18863(17) 0.70869(16) 0.5647(4)
H38_3 H 0.1970 0.6918 0.5296
H39_3 H 0.1832 0.7283 0.5347
H40_3 H 0.1690 0.7007 0.5909
C40_2 C 0.16528(12) 0.92099(11) 0.0372(3)
C41_2 C 0.18089(14) 0.89951(14) 0.0856(3)
H42_2 H 0.1973 0.8852 0.0663
C42_2 C 0.17245(14) 0.89908(16) 0.1621(3)
C43_2 C 0.14840(14) 0.92099(14) 0.1875(3)
H43_2 H 0.1417 0.9214 0.2403
C44_2 C 0.13482(12) 0.94176(12) 0.1339(3)
H44_2 H 0.1193 0.9573 0.1515
C45_2 C 0.18675(15) 0.87401(19) 0.2208(3)
H45_2 H 0.1988 0.8569 0.1919
H46_2 H 0.1686 0.8633 0.2489
H30_3 H 0.3486 0.9726 0.9929
C40_3 C 0.32901(11) 0.91528(12) 0.7872(3)
H41_3 H 0.3287 0.9215 0.7340
C41_3 C 0.35049(14) 0.93089(14) 0.8356(3)
H42_3 H 0.3648 0.9473 0.8163
C42_3 C 0.35092(16) 0.92245(14) 0.9121(3)
C43_3 C 0.32901(14) 0.89840(14) 0.9375(3)
H43_3 H 0.3286 0.8917 0.9903
C44_3 C 0.30824(12) 0.88482(12) 0.8839(3)
H44_3 H 0.2927 0.8693 0.9015
C45_3 C 0.37599(19) 0.93675(15) 0.9708(3)
H45_3 H 0.3931 0.9488 0.9419
H46_3 H 0.3867 0.9186 0.9989
H9_4 H 0.0227 0.6026 0.0062
O8_3 O 0.14878(6) 0.49168(7) 0.06545(15)
C30_4 C 0.16605(10) 0.51672(10) 0.0352(2)
C31_4 C 0.19627(11) 0.52348(11) 0.0691(3)
H32_4 H 0.2035 0.5106 0.1116
C32_4 C 0.21528(11) 0.54776(12) 0.0433(3)
H33_4 H 0.2358 0.5515 0.0675
Mn3_2 Mn 0.112420(13) 0.971070(14) 0.97398(3)
O8_4 O 0.14878(6) 0.99168(7) 0.93455(15)
O11_2 O 0.11462(6) 0.93329(6) 0.90224(14)
N10_2 N 0.07920(7) 0.98391(7) 0.87526(18)
O2_3 O 0.00452(6) 0.97230(7) 0.67989(14)
C9_4 C 0.00812(10) 0.91258(10) 0.9239(2)
H5_4 H 0.0200 0.9292 0.9544
H6_4 H 0.0242 0.9018 0.8895
Mn2_4 Mn 0.040159(14) 0.960732(15) 0.75255(3)
O5_3 O 0.05044(7) 0.92024(7) 0.71107(15)
N4_4 N 0.07445(7) 0.95613(8) 0.82869(17)
N6_3 N 0.07319(9) 0.98737(10) 0.6684(2)
C14_3 C 0.07277(10) 0.89876(11) 0.7312(3)
C15_3 C 0.07605(12) 0.87060(13) 0.6866(3)
H17_3 H 0.0617 0.8675 0.6438
C16_3 C 0.09881(13) 0.84739(14) 0.7016(3)
H18_3 H 0.1001 0.8286 0.6695
C17_4 C 0.12048(11) 0.85094(11) 0.7641(3)
H19_4 H 0.1367 0.8350 0.7748
C18_4 C 0.11725(9) 0.87835(10) 0.8092(2)
H20_4 H 0.1315 0.8809 0.8525
C19_4 C 0.09454(9) 0.90236(9) 0.7952(2)
C20_4 C 0.09440(9) 0.93144(9) 0.8453(2)
C27_3 C 0.12372(13) 0.99719(18) 0.6076(3)
H28_3 H 0.1455 0.9899 0.6001
C28_3 C 0.10302(12) 0.97873(14) 0.6528(3)
H29_3 H 0.1109 0.9587 0.6735
H41_4 H 0.1715 0.9213 0.9840
O2_4 O 0.99548(6) 0.02770(7) 0.32011(14)
C9_5 C 0.99188(10) 0.08742(10) 0.0761(2)
H5_5 H 0.9800 0.0708 0.0456
H6_5 H 0.9758 0.0982 0.1105
Mn2_5 Mn 0.959841(14) 0.039268(15) 0.24745(3)
O5_4 O 0.94956(7) 0.07976(7) 0.28893(15)
O6_3 O 0.88538(6) 0.06671(6) 0.09776(14)
N4_5 N 0.92555(7) 0.04387(8) 0.17131(17)
N5_3 N 0.92080(7) 0.01609(7) 0.12474(18)
N6_4 N 0.92681(9) 0.01263(10) 0.3316(2)
C14_4 C 0.92723(10) 0.10124(11) 0.2688(3)
C15_4 C 0.92395(12) 0.12940(13) 0.3134(3)
H17_4 H 0.9383 0.1325 0.3562
C16_4 C 0.90119(13) 0.15261(14) 0.2984(3)
H18_4 H 0.8999 0.1714 0.3305
C17_5 C 0.87952(11) 0.14906(11) 0.2359(3)
H19_5 H 0.8633 0.1650 0.2252
C18_5 C 0.88275(9) 0.12165(10) 0.1908(2)
H20_5 H 0.8685 0.1191 0.1475
C19_5 C 0.90546(9) 0.09764(9) 0.2048(2)
C20_5 C 0.90560(9) 0.06856(9) 0.1547(2)
C27_4 C 0.87628(13) 0.00281(18) 0.3924(3)
H28_4 H 0.8545 0.0101 0.3999
C28_4 C 0.89698(12) 0.02127(14) 0.3472(3)
H29_4 H 0.8891 0.0413 0.3265
Mn4_2 Mn 0.887580(13) 0.028930(14) 0.02602(3)
H41_5 H 0.8285 0.0787 0.0160
O8_5 O 0.85122(6) 0.00832(7) 0.06545(15)
H8_3 H 0.9868 0.1178 0.9860
O7_4 O 0.96392(6) 0.99819(6) 0.19555(15)
C21_4 C 0.94151(10) 0.99365(10) 0.1429(2)
C22_4 C 0.93927(11) 0.96087(10) 0.1043(3)
H21_4 H 0.9203 0.9611 0.0688
H22_4 H 0.9591 0.9577 0.0721
C23_4 C 0.9361(3) 0.93324(18) 0.1554(5)
H23_4 H 0.9434 0.9393 0.2077
H24_4 H 0.9496 0.9152 0.1360
H25_4 H 0.9132 0.9263 0.1574
C24_3 C 0.93626(12) 0.98385(16) 0.3585(3)
H26_3 H 0.9574 0.9762 0.3452
C25_3 C 0.91638(15) 0.96404(16) 0.4059(3)
H27_3 H 0.9238 0.9434 0.4241
C26_3 C 0.88560(14) 0.97564(18) 0.4252(3)
C29_3 C 0.86213(14) 0.95667(19) 0.4783(4)
H30_4 H 0.8486 0.9726 0.5071
H31_3 H 0.8472 0.9437 0.4452
N9_2 N 0.80871(8) 0.89206(8) 0.6900(2)
C40_4 C 0.82901(11) 0.91528(12) 0.7128(3)
H41_6 H 0.8287 0.9215 0.7660
C41_4 C 0.85049(14) 0.93089(14) 0.6644(3)
H42_4 H 0.8648 0.9473 0.6837
C42_4 C 0.85092(16) 0.92245(14) 0.5879(3)
C43_4 C 0.82901(14) 0.89840(14) 0.5625(3)
H43_4 H 0.8286 0.8917 0.5097
C44_4 C 0.80824(12) 0.88482(12) 0.6161(3)
H44_4 H 0.7927 0.8693 0.5985
C45_4 C 0.87599(19) 0.93675(15) 0.5292(3)
H45_4 H 0.8931 0.9488 0.5581
H46_4 H 0.8867 0.9186 0.5011
Mn5_2 Mn 0.778930(14) 0.862420(13) 0.77602(3)
Mn1_4 Mn 0.795727(14) 0.675520(13) 0.92540(4)
O3_4 O 0.82038(6) 0.70332(6) 0.85538(14)
O4_4 O 0.84327(8) 0.66303(8) 0.9848(2)
N1_4 N 0.79062(7) 0.71701(7) 0.97735(18)
N2_4 N 0.80601(7) 0.74379(7) 0.93943(18)
N3_4 N 0.89935(18) 0.65903(18) 0.9871(5)
C8_4 C 0.82003(9) 0.73378(9) 0.8765(2)
C9_6 C 0.83742(10) 0.75812(10) 0.8261(2)
H5_6 H 0.8208 0.7700 0.7956
H6_6 H 0.8482 0.7742 0.8605
C10_4 C 0.86166(16) 0.74585(13) 0.7726(4)
H7_4 H 0.8810 0.7388 0.8016
H8_4 H 0.8678 0.7632 0.7360
H9_5 H 0.8526 0.7273 0.7438
C11_4 C 0.8685(2) 0.6702(2) 0.9644(6)
H10_4 H 0.8689 0.6866 0.9254
C13_4 C 0.9322(2) 0.6721(3) 0.9462(8)
H14_4 H 0.9506 0.6697 0.9822
H15_4 H 0.9295 0.6952 0.9325
H16_4 H 0.9364 0.6594 0.8991
Mn2_6 Mn 0.789268(15) 0.790159(14) 0.99745(3)
O6_4 O 0.81671(6) 0.86462(6) 0.84776(14)
O7_5 O 0.74819(6) 0.78608(6) 0.94555(15)
N4_6 N 0.79387(8) 0.82445(7) 0.92131(17)
N5_4 N 0.76609(7) 0.82920(7) 0.87474(18)
C17_6 C 0.89906(11) 0.87048(11) 0.9859(3)
H19_6 H 0.9150 0.8867 0.9752
C18_6 C 0.87165(10) 0.86725(9) 0.9408(2)
H20_6 H 0.8691 0.8815 0.8975
C19_6 C 0.84764(9) 0.84454(9) 0.9548(2)
C20_6 C 0.81856(9) 0.84440(9) 0.9047(2)
C21_5 C 0.74365(10) 0.80849(10) 0.8929(2)
C22_5 C 0.71087(10) 0.81073(11) 0.8543(3)
H21_5 H 0.7111 0.8297 0.8188
H22_5 H 0.7077 0.7909 0.8221
C23_5 C 0.68324(18) 0.8139(3) 0.9054(5)
H23_5 H 0.6893 0.8066 0.9577
H24_5 H 0.6652 0.8004 0.8860
H25_5 H 0.6763 0.8368 0.9074
Mn3_3 Mn 0.721070(14) 0.637580(13) 0.72398(3)
O8_6 O 0.74168(7) 0.60122(6) 0.68455(15)
O9_4 O 0.80255(6) 0.63490(6) 0.86742(15)
O10_4 O 0.70531(6) 0.67627(6) 0.77606(16)
N7_4 N 0.75631(7) 0.64441(7) 0.79736(17)
N8_4 N 0.75391(7) 0.67332(7) 0.84100(18)
C30_5 C 0.76672(10) 0.58395(10) 0.7148(2)
C31_5 C 0.77348(11) 0.55373(11) 0.6809(3)
H32_5 H 0.7606 0.5465 0.6384
C32_5 C 0.79776(12) 0.53472(11) 0.7067(3)
H33_5 H 0.8015 0.5142 0.6825
C33_4 C 0.81758(10) 0.54417(10) 0.7678(3)
H34_4 H 0.8347 0.5305 0.7859
C34_4 C 0.81152(9) 0.57399(9) 0.8012(2)
H35_4 H 0.8248 0.5809 0.8433
C35_4 C 0.78681(9) 0.59432(9) 0.7758(2)
C36_4 C 0.78159(9) 0.62623(9) 0.8149(2)
C37_4 C 0.72608(10) 0.68757(9) 0.8267(3)
C38_4 C 0.71694(13) 0.71773(11) 0.8695(4)
H36_4 H 0.7364 0.7270 0.8954
H37_4 H 0.7083 0.7342 0.8327
C39_4 C 0.68863(17) 0.70869(16) 0.9353(4)
H38_4 H 0.6970 0.6918 0.9704
H39_4 H 0.6832 0.7283 0.9653
H40_4 H 0.6690 0.7007 0.9091
O11_3 O 0.68329(6) 0.63538(6) 0.65224(14)
N10_3 N 0.73391(7) 0.67080(7) 0.62526(18)
N11_3 N 0.69129(8) 0.60794(8) 0.8100(2)
Mn1_5 Mn 0.925520(13) 0.454273(14) 0.17540(4)
O1_3 O 0.90547(6) 0.47879(7) 0.25201(18)
O3_5 O 0.95332(6) 0.42962(6) 0.10538(14)
O4_5 O 0.91303(8) 0.40673(8) 0.2348(2)
N1_5 N 0.96701(7) 0.45938(7) 0.22735(18)
N2_5 N 0.99379(7) 0.44399(7) 0.18943(18)
N3_5 N 0.90903(18) 0.35065(18) 0.2371(5)
C1_3 C 0.91833(12) 0.49444(11) 0.3126(3)
C2_3 C 0.89683(13) 0.51455(13) 0.3553(4)
H1_3 H 0.8749 0.5171 0.3384
C3_3 C 0.90715(17) 0.53028(16) 0.4201(4)
H2_3 H 0.8924 0.5442 0.4471
C4_3 C 0.93910(18) 0.52643(16) 0.4482(4)
H3_3 H 0.9459 0.5370 0.4946
C5_3 C 0.96078(12) 0.50665(13) 0.4061(3)
H4_3 H 0.9824 0.5036 0.4244
C6_3 C 0.95077(11) 0.49144(10) 0.3375(2)
C7_3 C 0.97506(10) 0.47342(10) 0.2935(2)
C8_5 C 0.98378(9) 0.42997(9) 0.1265(2)
C10_5 C 0.99585(13) 0.38834(16) 0.0226(4)
H7_5 H 0.9888 0.3690 0.0516
C11_5 C 0.9202(2) 0.3815(2) 0.2144(6)
H10_5 H 0.9366 0.3811 0.1754
C12_3 C 0.88502(15) 0.34795(18) 0.2860(4)
H11_3 H 0.8858 0.3661 0.3230
H12_3 H 0.8870 0.3272 0.3141
H13_3 H 0.8642 0.3484 0.2578
C13_5 C 0.9221(3) 0.3178(2) 0.1962(8)
H14_5 H 0.9197 0.2994 0.2322
H15_5 H 0.9452 0.3205 0.1825
H16_5 H 0.9094 0.3136 0.1491
O9_5 O 0.88490(6) 0.44745(6) 0.11742(15)
O10_5 O 0.92627(6) 0.54469(6) 0.02606(16)
N7_5 N 0.89441(7) 0.49369(7) 0.04736(17)
N8_5 N 0.92332(7) 0.49609(7) 0.09100(18)
C33_5 C 0.79417(10) 0.43242(10) 0.0178(3)
H34_5 H 0.7805 0.4153 0.0359
C34_5 C 0.82399(9) 0.43848(9) 0.0512(2)
H35_5 H 0.8309 0.4252 0.0933
C35_5 C 0.84432(9) 0.46319(9) 0.0258(2)
C36_5 C 0.87623(9) 0.46841(9) 0.0649(2)
C37_5 C 0.93757(9) 0.52392(10) 0.0767(3)
C38_5 C 0.96773(11) 0.53306(13) 0.1195(4)
H36_5 H 0.9770 0.5136 0.1454
H37_5 H 0.9842 0.5417 0.0827
C39_5 C 0.95869(16) 0.56137(17) 0.1853(4)
H38_5 H 0.9418 0.5530 0.2204
H39_5 H 0.9783 0.5668 0.2153
H40_5 H 0.9507 0.5810 0.1591
N11_4 N 0.85794(8) 0.55871(8) 0.0600(2)
H30_5 H 0.6514 0.5274 0.9929
C40_5 C 0.67099(11) 0.58472(12) 0.7872(3)
H41_7 H 0.6713 0.5785 0.7340
C41_5 C 0.64951(14) 0.56911(14) 0.8356(3)
H42_5 H 0.6352 0.5527 0.8163
C42_5 C 0.64908(16) 0.57755(14) 0.9121(3)
C43_5 C 0.67099(14) 0.60160(14) 0.9375(3)
H43_5 H 0.6714 0.6083 0.9903
C44_5 C 0.69176(12) 0.61518(12) 0.8839(3)
H44_5 H 0.7073 0.6307 0.9015
C45_5 C 0.62401(19) 0.56325(15) 0.9708(3)
H45_5 H 0.6069 0.5512 0.9419
H46_5 H 0.6133 0.5814 0.9989
Mn1_6 Mn 0.704273(14) 0.824480(13) 0.57460(4)
O1_4 O 0.72879(7) 0.84453(6) 0.49799(18)
O2_5 O 0.72230(7) 0.74548(6) 0.42989(14)
O3_6 O 0.67962(6) 0.79668(6) 0.64462(14)
O4_6 O 0.65673(8) 0.83697(8) 0.5152(2)
N1_6 N 0.70938(7) 0.78299(7) 0.52265(18)
N2_6 N 0.69399(7) 0.75621(7) 0.56057(18)
N3_6 N 0.60065(18) 0.84097(18) 0.5129(5)
C1_4 C 0.74444(11) 0.83167(12) 0.4374(3)
C2_4 C 0.76455(13) 0.85317(13) 0.3947(4)
H1_4 H 0.7671 0.8751 0.4116
C3_4 C 0.78028(16) 0.84285(17) 0.3299(4)
H2_4 H 0.7942 0.8576 0.3029
C4_4 C 0.77643(16) 0.81090(18) 0.3018(4)
H3_4 H 0.7870 0.8041 0.2554
C5_4 C 0.75665(13) 0.78922(12) 0.3439(3)
H4_4 H 0.7536 0.7676 0.3256
C6_4 C 0.74144(10) 0.79923(11) 0.4125(2)
C7_4 C 0.72342(10) 0.77494(10) 0.4565(2)
C8_6 C 0.67997(9) 0.76622(9) 0.6235(2)
C9_7 C 0.66258(10) 0.74188(10) 0.6739(2)
H5_7 H 0.6792 0.7300 0.7044
H6_7 H 0.6518 0.7258 0.6395
C10_6 C 0.63834(16) 0.75415(13) 0.7274(4)
H7_6 H 0.6190 0.7612 0.6984
H8_5 H 0.6322 0.7368 0.7640
H9_6 H 0.6474 0.7727 0.7562
C11_6 C 0.6315(2) 0.8298(2) 0.5356(6)
H10_6 H 0.6311 0.8134 0.5746
C12_4 C 0.59795(18) 0.86498(15) 0.4640(4)
H11_4 H 0.6161 0.8642 0.4270
H12_4 H 0.5772 0.8630 0.4359
H13_4 H 0.5984 0.8858 0.4922
C13_6 C 0.5678(2) 0.8279(3) 0.5538(8)
H14_6 H 0.5494 0.8303 0.5178
H15_6 H 0.5705 0.8048 0.5675
H16_6 H 0.5636 0.8406 0.6009
Mn2_7 Mn 0.710732(15) 0.709841(14) 0.50255(3)
O5_5 O 0.67024(7) 0.69956(7) 0.46107(15)
O7_6 O 0.75181(6) 0.71392(6) 0.55445(15)
N4_7 N 0.70613(8) 0.67555(7) 0.57869(17)
N6_5 N 0.73737(10) 0.67681(9) 0.4184(2)
C14_5 C 0.64876(11) 0.67723(10) 0.4812(3)
C15_5 C 0.62060(13) 0.67395(12) 0.4366(3)
H17_5 H 0.6175 0.6883 0.3938
C16_5 C 0.59739(14) 0.65119(13) 0.4516(3)
H18_5 H 0.5786 0.6499 0.4195
C17_7 C 0.60094(11) 0.62952(11) 0.5141(3)
H19_7 H 0.5850 0.6133 0.5248
C18_7 C 0.62835(10) 0.63275(9) 0.5592(2)
H20_7 H 0.6309 0.6185 0.6025
C19_7 C 0.65236(9) 0.65546(9) 0.5452(2)
C20_7 C 0.68144(9) 0.65560(9) 0.5953(2)
C21_6 C 0.75635(10) 0.69151(10) 0.6071(2)
C22_6 C 0.78913(10) 0.68927(11) 0.6457(3)
H21_6 H 0.7889 0.6703 0.6812
H22_6 H 0.7923 0.7091 0.6779
C23_6 C 0.81676(18) 0.6861(3) 0.5946(5)
H23_6 H 0.8107 0.6934 0.5423
H24_6 H 0.8348 0.6996 0.6140
H25_6 H 0.8237 0.6632 0.5926
C24_4 C 0.76615(16) 0.68626(12) 0.3915(3)
H26_4 H 0.7738 0.7074 0.4048
C25_4 C 0.78596(16) 0.66638(15) 0.3441(3)
H27_4 H 0.8066 0.6738 0.3259
C26_4 C 0.77436(18) 0.63560(14) 0.3248(3)
C27_5 C 0.74719(18) 0.62628(13) 0.3576(3)
H28_5 H 0.7399 0.6045 0.3501
C28_5 C 0.72873(14) 0.64698(12) 0.4028(3)
H29_5 H 0.7087 0.6391 0.4235
C29_4 C 0.79333(19) 0.61213(14) 0.2717(4)
H30_6 H 0.7774 0.5986 0.2429
H31_4 H 0.8063 0.5972 0.3048
O8_7 O 0.75832(7) 0.89878(6) 0.81545(15)
O9_6 O 0.69745(6) 0.86510(6) 0.63258(15)
O10_6 O 0.79469(6) 0.82373(6) 0.72394(16)
N7_6 N 0.74369(7) 0.85559(7) 0.70264(17)
N8_6 N 0.74609(7) 0.82668(7) 0.65900(18)
C30_6 C 0.73328(10) 0.91605(10) 0.7852(2)
C31_6 C 0.72652(11) 0.94627(11) 0.8191(3)
H32_6 H 0.7394 0.9535 0.8616
C32_6 C 0.70224(12) 0.96528(11) 0.7933(3)
H33_6 H 0.6985 0.9858 0.8175
C33_6 C 0.68242(10) 0.95583(10) 0.7322(3)
H34_6 H 0.6653 0.9695 0.7141
C34_6 C 0.68848(9) 0.92601(9) 0.6988(2)
H35_6 H 0.6752 0.9191 0.6567
C35_6 C 0.71319(9) 0.90568(9) 0.7242(2)
C36_6 C 0.71841(9) 0.87377(9) 0.6851(2)
C37_6 C 0.77392(10) 0.81243(9) 0.6733(3)
C38_6 C 0.78306(13) 0.78227(11) 0.6305(4)
H36_6 H 0.7636 0.7730 0.6046
H37_6 H 0.7917 0.7658 0.6673
C39_6 C 0.81137(17) 0.79131(16) 0.5647(4)
H38_6 H 0.8030 0.8082 0.5296
H39_6 H 0.8168 0.7717 0.5347
H40_6 H 0.8310 0.7993 0.5909
C40_6 C 0.83472(12) 0.57901(11) 0.0372(3)
C41_6 C 0.81911(14) 0.60049(14) 0.0856(3)
H42_6 H 0.8027 0.6148 0.0663
C42_6 C 0.82755(14) 0.60092(16) 0.1621(3)
C43_6 C 0.85160(14) 0.57901(14) 0.1875(3)
H43_6 H 0.8583 0.5786 0.2403
C44_6 C 0.86518(12) 0.55824(12) 0.1339(3)
H44_6 H 0.8807 0.5427 0.1515
C45_6 C 0.81325(15) 0.62599(19) 0.2208(3)
H45_6 H 0.8012 0.6431 0.1919
H46_6 H 0.8314 0.6367 0.2489
Mn1_7 Mn 0.704273(14) 0.324480(13) 0.42540(4)
O1_5 O 0.72879(7) 0.34453(6) 0.50201(18)
O2_6 O 0.72230(7) 0.24548(6) 0.57011(14)
O3_7 O 0.67962(6) 0.29668(6) 0.35538(14)
O4_7 O 0.65673(8) 0.33697(8) 0.4848(2)
N1_7 N 0.70938(7) 0.28299(7) 0.47735(18)
N2_7 N 0.69399(7) 0.25621(7) 0.43943(18)
N3_7 N 0.60065(18) 0.34097(18) 0.4871(5)
C1_5 C 0.74444(11) 0.33167(12) 0.5626(3)
C2_5 C 0.76455(13) 0.35317(13) 0.6053(4)
H1_5 H 0.7671 0.3751 0.5884
C3_5 C 0.78028(16) 0.34285(17) 0.6701(4)
H2_5 H 0.7942 0.3576 0.6971
C4_5 C 0.77643(16) 0.31090(18) 0.6982(4)
H3_5 H 0.7870 0.3041 0.7446
C5_5 C 0.75665(13) 0.28922(12) 0.6561(3)
H4_5 H 0.7536 0.2676 0.6744
C6_5 C 0.74144(10) 0.29923(11) 0.5875(2)
C7_5 C 0.72342(10) 0.27494(10) 0.5435(2)
C8_7 C 0.67997(9) 0.26622(9) 0.3765(2)
C9_8 C 0.66258(10) 0.24188(10) 0.3261(2)
H5_8 H 0.6792 0.2300 0.2956
H6_8 H 0.6518 0.2258 0.3605
C10_7 C 0.63834(16) 0.25415(13) 0.2726(4)
H7_7 H 0.6190 0.2612 0.3016
H8_6 H 0.6322 0.2368 0.2360
H9_7 H 0.6474 0.2727 0.2438
C11_7 C 0.6315(2) 0.3298(2) 0.4644(6)
H10_7 H 0.6311 0.3134 0.4254
C12_5 C 0.59795(18) 0.36498(15) 0.5360(4)
H11_5 H 0.6161 0.3642 0.5730
H12_5 H 0.5772 0.3630 0.5641
H13_5 H 0.5984 0.3858 0.5078
C13_7 C 0.5678(2) 0.3279(3) 0.4462(8)
H14_7 H 0.5494 0.3303 0.4822
H15_7 H 0.5705 0.3048 0.4325
H16_7 H 0.5636 0.3406 0.3991
Mn2_8 Mn 0.710732(15) 0.209841(14) 0.49745(3)
O5_6 O 0.67024(7) 0.19956(7) 0.53893(15)
O6_5 O 0.68329(6) 0.13538(6) 0.34776(14)
O7_7 O 0.75181(6) 0.21392(6) 0.44555(15)
N4_8 N 0.70613(8) 0.17555(7) 0.42131(17)
N5_5 N 0.73391(7) 0.17080(7) 0.37474(18)
N6_6 N 0.73737(10) 0.17681(9) 0.5816(2)
C14_6 C 0.64876(11) 0.17723(10) 0.5188(3)
C15_6 C 0.62060(13) 0.17395(12) 0.5634(3)
H17_6 H 0.6175 0.1883 0.6062
C16_6 C 0.59739(14) 0.15119(13) 0.5484(3)
H18_6 H 0.5786 0.1499 0.5805
C17_8 C 0.60094(11) 0.12952(11) 0.4859(3)
H19_8 H 0.5850 0.1133 0.4752
C18_8 C 0.62835(10) 0.13275(9) 0.4408(2)
H20_8 H 0.6309 0.1185 0.3975
C19_8 C 0.65236(9) 0.15546(9) 0.4548(2)
C20_8 C 0.68144(9) 0.15560(9) 0.4047(2)
C21_7 C 0.75635(10) 0.19151(10) 0.3929(2)
C22_7 C 0.78913(10) 0.18927(11) 0.3543(3)
H21_7 H 0.7889 0.1703 0.3188
H22_7 H 0.7923 0.2091 0.3221
C23_7 C 0.81676(18) 0.1861(3) 0.4054(5)
H23_7 H 0.8107 0.1934 0.4577
H24_7 H 0.8348 0.1996 0.3860
H25_7 H 0.8237 0.1632 0.4074
C24_5 C 0.76615(16) 0.18626(12) 0.6085(3)
H26_5 H 0.7738 0.2074 0.5952
C25_5 C 0.78596(16) 0.16638(15) 0.6559(3)
H27_5 H 0.8066 0.1738 0.6741
C26_5 C 0.77436(18) 0.13560(14) 0.6752(3)
C27_6 C 0.74719(18) 0.12628(13) 0.6424(3)
H28_6 H 0.7399 0.1045 0.6499
C28_6 C 0.72873(14) 0.14698(12) 0.5972(3)
H29_6 H 0.7087 0.1391 0.5765
C29_5 C 0.79333(19) 0.11213(14) 0.7283(4)
H30_7 H 0.7774 0.0986 0.7571
H31_5 H 0.8063 0.0972 0.6952
Mn3_4 Mn 0.778930(14) 0.362420(13) 0.22398(3)
O8_8 O 0.75832(7) 0.39878(6) 0.18455(15)
O9_7 O 0.69745(6) 0.36510(6) 0.36742(15)
O10_7 O 0.79469(6) 0.32373(6) 0.27606(16)
N7_7 N 0.74369(7) 0.35559(7) 0.29736(17)
N8_7 N 0.74609(7) 0.32668(7) 0.34100(18)
N9_3 N 0.85794(8) 0.05871(8) 0.9400(2)
C30_7 C 0.73328(10) 0.41605(10) 0.2148(2)
C31_7 C 0.72652(11) 0.44627(11) 0.1809(3)
H32_7 H 0.7394 0.4535 0.1384
C32_7 C 0.70224(12) 0.46528(11) 0.2067(3)
H33_7 H 0.6985 0.4858 0.1825
C33_7 C 0.68242(10) 0.45583(10) 0.2678(3)
H34_7 H 0.6653 0.4695 0.2859
C34_7 C 0.68848(9) 0.42601(9) 0.3012(2)
H35_7 H 0.6752 0.4191 0.3433
C35_7 C 0.71319(9) 0.40568(9) 0.2758(2)
C36_7 C 0.71841(9) 0.37377(9) 0.3149(2)
C37_7 C 0.77392(10) 0.31243(9) 0.3267(3)
C38_7 C 0.78306(13) 0.28227(11) 0.3695(4)
H36_7 H 0.7636 0.2730 0.3954
H37_7 H 0.7917 0.2658 0.3327
C39_7 C 0.81137(17) 0.29131(16) 0.4353(4)
H38_7 H 0.8030 0.3082 0.4704
H39_7 H 0.8168 0.2717 0.4653
H40_7 H 0.8310 0.2993 0.4091
C40_7 C 0.83472(12) 0.07901(11) 0.9628(3)
C41_7 C 0.81911(14) 0.10049(14) 0.9144(3)
H42_7 H 0.8027 0.1148 0.9337
C42_7 C 0.82755(14) 0.10092(16) 0.8379(3)
C43_7 C 0.85160(14) 0.07901(14) 0.8125(3)
H43_7 H 0.8583 0.0786 0.7597
C44_7 C 0.86518(12) 0.05824(12) 0.8661(3)
H44_7 H 0.8807 0.0427 0.8485
C45_7 C 0.81325(15) 0.12599(19) 0.7792(3)
H45_7 H 0.8012 0.1431 0.8081
H46_7 H 0.8314 0.1367 0.7511
O11_4 O 0.81671(6) 0.36462(6) 0.15224(14)
N10_4 N 0.76609(7) 0.32920(7) 0.12526(18)
Mn4_3 Mn 0.721070(14) 0.137580(13) 0.27602(3)
N11_5 N 0.80871(8) 0.39206(8) 0.3100(2)
H30_8 H 0.6514 0.0274 0.0071
N9_4 N 0.69129(8) 0.10794(8) 0.1900(2)
C40_8 C 0.67099(11) 0.08472(12) 0.2128(3)
H41_8 H 0.6713 0.0785 0.2660
C41_8 C 0.64951(14) 0.06911(14) 0.1644(3)
H42_8 H 0.6352 0.0527 0.1837
C42_8 C 0.64908(16) 0.07755(14) 0.0879(3)
C43_8 C 0.67099(14) 0.10160(14) 0.0625(3)
H43_8 H 0.6714 0.1083 0.0097
C44_8 C 0.69176(12) 0.11518(12) 0.1161(3)
H44_8 H 0.7073 0.1307 0.0985
C45_8 C 0.62401(19) 0.06325(15) 0.0292(3)
H45_8 H 0.6069 0.0512 0.0581
H46_8 H 0.6133 0.0814 0.0011
H9_8 H 0.9773 0.3974 0.9938
Mn3_5 Mn 0.887580(13) 0.528930(14) 0.97398(3)
O8_9 O 0.85122(6) 0.50832(7) 0.93455(15)
C30_8 C 0.83395(10) 0.48328(10) 0.9648(2)
C31_8 C 0.80373(11) 0.47652(11) 0.9309(3)
H32_8 H 0.7965 0.4894 0.8884
C32_8 C 0.78472(11) 0.45224(12) 0.9567(3)
H33_8 H 0.7642 0.4485 0.9325
O11_5 O 0.88538(6) 0.56671(6) 0.90224(14)
N10_5 N 0.92080(7) 0.51609(7) 0.87526(18)
C2_6 C 0.89683(13) 0.01455(13) 0.6447(4)
H1_6 H 0.8749 0.0171 0.6616
C3_6 C 0.90715(17) 0.03028(16) 0.5799(4)
H2_6 H 0.8924 0.0442 0.5529
C4_6 C 0.93910(18) 0.02643(16) 0.5518(4)
H3_6 H 0.9459 0.0370 0.5054
C5_6 C 0.96078(12) 0.00665(13) 0.5939(3)
H4_6 H 0.9824 0.0036 0.5756
O10_8 O 0.92627(6) 0.04469(6) 0.97394(16)
C37_8 C 0.93757(9) 0.02392(10) 0.9233(3)
C38_8 C 0.96773(11) 0.03306(13) 0.8805(4)
H36_8 H 0.9770 0.0136 0.8546
H37_8 H 0.9842 0.0417 0.9173
C39_8 C 0.95869(16) 0.06137(17) 0.8147(4)
H38_8 H 0.9418 0.0530 0.7796
H39_8 H 0.9783 0.0668 0.7847
H40_8 H 0.9507 0.0810 0.8409
Mn1_8 Mn 0.795727(14) 0.175520(13) 0.07460(4)
O3_8 O 0.82038(6) 0.20332(6) 0.14462(14)
O4_8 O 0.84327(8) 0.16303(8) 0.0152(2)
N1_8 N 0.79062(7) 0.21701(7) 0.02265(18)
N2_8 N 0.80601(7) 0.24379(7) 0.06057(18)
N3_8 N 0.89935(18) 0.15903(18) 0.0129(5)
C8_8 C 0.82003(9) 0.23378(9) 0.1235(2)
C9_9 C 0.83742(10) 0.25812(10) 0.1739(2)
H5_9 H 0.8208 0.2700 0.2044
H6_9 H 0.8482 0.2742 0.1395
C10_8 C 0.86166(16) 0.24585(13) 0.2274(4)
H7_8 H 0.8810 0.2388 0.1984
H8_7 H 0.8678 0.2632 0.2640
H9_9 H 0.8526 0.2273 0.2562
C11_8 C 0.8685(2) 0.1702(2) 0.0356(6)
H10_8 H 0.8689 0.1866 0.0746
C13_8 C 0.9322(2) 0.1721(3) 0.0538(8)
H14_8 H 0.9506 0.1697 0.0178
H15_8 H 0.9295 0.1952 0.0675
H16_8 H 0.9364 0.1594 0.1009
Mn2_9 Mn 0.789268(15) 0.290159(14) 0.00255(3)
O7_8 O 0.74819(6) 0.28608(6) 0.05445(15)
N4_9 N 0.79387(8) 0.32445(7) 0.07869(17)
C17_9 C 0.89906(11) 0.37048(11) 0.0141(3)
H19_9 H 0.9150 0.3867 0.0248
C18_9 C 0.87165(10) 0.36725(9) 0.0592(2)
H20_9 H 0.8691 0.3815 0.1025
C19_9 C 0.84764(9) 0.34454(9) 0.0452(2)
C20_9 C 0.81856(9) 0.34440(9) 0.0953(2)
C21_8 C 0.74365(10) 0.30849(10) 0.1071(2)
C22_8 C 0.71087(10) 0.31073(11) 0.1457(3)
H21_8 H 0.7111 0.3297 0.1812
H22_8 H 0.7077 0.2909 0.1779
C23_8 C 0.68324(18) 0.3139(3) 0.0946(5)
H23_8 H 0.6893 0.3066 0.0423
H24_8 H 0.6652 0.3004 0.1140
H25_8 H 0.6763 0.3368 0.0926
O8_10 O 0.74168(7) 0.10122(6) 0.31545(15)
O9_8 O 0.80255(6) 0.13490(6) 0.13258(15)
O10_9 O 0.70531(6) 0.17627(6) 0.22394(16)
N7_8 N 0.75631(7) 0.14441(7) 0.20264(17)
N8_8 N 0.75391(7) 0.17332(7) 0.15900(18)
C30_9 C 0.76672(10) 0.08395(10) 0.2852(2)
C31_9 C 0.77348(11) 0.05373(11) 0.3191(3)
H32_9 H 0.7606 0.0465 0.3616
C32_9 C 0.79776(12) 0.03472(11) 0.2933(3)
H33_9 H 0.8015 0.0142 0.3175
C33_8 C 0.81758(10) 0.04417(10) 0.2322(3)
H34_8 H 0.8347 0.0305 0.2141
C34_8 C 0.81152(9) 0.07399(9) 0.1988(2)
H35_8 H 0.8248 0.0809 0.1567
C35_8 C 0.78681(9) 0.09432(9) 0.2242(2)
C36_8 C 0.78159(9) 0.12623(9) 0.1851(2)
C37_9 C 0.72608(10) 0.18757(9) 0.1733(3)
C38_9 C 0.71694(13) 0.21773(11) 0.1305(4)
H36_9 H 0.7364 0.2270 0.1046
H37_9 H 0.7083 0.2342 0.1673
C39_9 C 0.68863(17) 0.20869(16) 0.0647(4)
H38_9 H 0.6970 0.1918 0.0296
H39_9 H 0.6832 0.2283 0.0347
H40_9 H 0.6690 0.2007 0.0909
H41_9 H 0.8285 0.5787 0.9840
O2_7 O 0.99548(6) 0.52770(7) 0.67989(14)
C9_10 C 0.99188(10) 0.58742(10) 0.9239(2)
H5_10 H 0.9800 0.5708 0.9544
H6_10 H 0.9758 0.5982 0.8895
Mn2_10 Mn 0.959841(14) 0.539268(15) 0.75255(3)
O5_7 O 0.94956(7) 0.57976(7) 0.71107(15)
O7_9 O 0.96392(6) 0.49819(6) 0.80445(15)
N4_10 N 0.92555(7) 0.54387(8) 0.82869(17)
N6_7 N 0.92681(9) 0.51263(10) 0.6684(2)
C14_7 C 0.92723(10) 0.60124(11) 0.7312(3)
C15_7 C 0.92395(12) 0.62940(13) 0.6866(3)
H17_7 H 0.9383 0.6325 0.6438
C16_7 C 0.90119(13) 0.65261(14) 0.7016(3)
H18_7 H 0.8999 0.6714 0.6695
C17_10 C 0.87952(11) 0.64906(11) 0.7641(3)
H19_10 H 0.8633 0.6650 0.7748
C18_10 C 0.88275(9) 0.62165(10) 0.8092(2)
H20_10 H 0.8685 0.6191 0.8525
C19_10 C 0.90546(9) 0.59764(9) 0.7952(2)
C20_10 C 0.90560(9) 0.56856(9) 0.8453(2)
C21_9 C 0.94151(10) 0.49365(10) 0.8571(2)
C22_9 C 0.93927(11) 0.46087(10) 0.8957(3)
H21_9 H 0.9203 0.4611 0.9312
H22_9 H 0.9591 0.4577 0.9279
C23_9 C 0.9361(3) 0.43324(18) 0.8446(5)
H23_9 H 0.9434 0.4393 0.7923
H24_9 H 0.9496 0.4152 0.8640
H25_9 H 0.9132 0.4263 0.8426
C24_6 C 0.93626(12) 0.48385(16) 0.6415(3)
H26_6 H 0.9574 0.4762 0.6548
C25_6 C 0.91638(15) 0.46404(16) 0.5941(3)
H27_6 H 0.9238 0.4434 0.5759
C26_6 C 0.88560(14) 0.47564(18) 0.5748(3)
C27_7 C 0.87628(13) 0.50281(18) 0.6076(3)
H28_7 H 0.8545 0.5101 0.6001
C28_7 C 0.89698(12) 0.52127(14) 0.6528(3)
H29_7 H 0.8891 0.5413 0.6735
C29_6 C 0.86213(14) 0.45667(19) 0.5217(4)
H30_9 H 0.8486 0.4726 0.4929
H31_6 H 0.8472 0.4437 0.5548
C40_9 C 0.82901(11) 0.41528(12) 0.2872(3)
H41_10 H 0.8287 0.4215 0.2340
C41_9 C 0.85049(14) 0.43089(14) 0.3356(3)
H42_9 H 0.8648 0.4473 0.3163
C42_9 C 0.85092(16) 0.42245(14) 0.4121(3)
C43_9 C 0.82901(14) 0.39840(14) 0.4375(3)
H43_9 H 0.8286 0.3917 0.4903
C44_9 C 0.80824(12) 0.38482(12) 0.3839(3)
H44_9 H 0.7927 0.3693 0.4015
C45_9 C 0.87599(19) 0.43675(15) 0.4708(3)
H45_9 H 0.8931 0.4488 0.4419
H46_9 H 0.8867 0.4186 0.4989
H30_10 H 0.3486 0.4726 0.0071
N9_5 N 0.30871(8) 0.39206(8) 0.1900(2)
C40_10 C 0.32901(11) 0.41528(12) 0.2128(3)
H41_11 H 0.3287 0.4215 0.2660
C41_10 C 0.35049(14) 0.43089(14) 0.1644(3)
H42_10 H 0.3648 0.4473 0.1837
C42_10 C 0.35092(16) 0.42245(14) 0.0879(3)
C43_10 C 0.32901(14) 0.39840(14) 0.0625(3)
H43_10 H 0.3286 0.3917 0.0097
C44_10 C 0.30824(12) 0.38482(12) 0.1161(3)
H44_10 H 0.2927 0.3693 0.0985
C45_10 C 0.37599(19) 0.43675(15) 0.0292(3)
H45_10 H 0.3931 0.4488 0.0581
H46_10 H 0.3867 0.4186 0.0011
Mn5_3 Mn 0.278930(14) 0.362420(13) 0.27602(3)
Mn1_9 Mn 0.295727(14) 0.175520(13) 0.42540(4)
O1_6 O 0.27121(7) 0.15547(6) 0.50201(18)
O2_8 O 0.27770(7) 0.25452(6) 0.57011(14)
O3_9 O 0.32038(6) 0.20332(6) 0.35538(14)
O4_9 O 0.34327(8) 0.16303(8) 0.4848(2)
N1_9 N 0.29062(7) 0.21701(7) 0.47735(18)
N2_9 N 0.30601(7) 0.24379(7) 0.43943(18)
N3_9 N 0.39935(18) 0.15903(18) 0.4871(5)
C1_6 C 0.25556(11) 0.16833(12) 0.5626(3)
C2_7 C 0.23545(13) 0.14683(13) 0.6053(4)
H1_7 H 0.2329 0.1249 0.5884
C3_7 C 0.21972(16) 0.15715(17) 0.6701(4)
H2_7 H 0.2058 0.1424 0.6971
C4_7 C 0.22357(16) 0.18910(18) 0.6982(4)
H3_7 H 0.2130 0.1959 0.7446
C5_7 C 0.24335(13) 0.21078(12) 0.6561(3)
H4_7 H 0.2464 0.2324 0.6744
C6_6 C 0.25856(10) 0.20077(11) 0.5875(2)
C7_6 C 0.27658(10) 0.22506(10) 0.5435(2)
C8_9 C 0.32003(9) 0.23378(9) 0.3765(2)
C9_11 C 0.33742(10) 0.25812(10) 0.3261(2)
H5_11 H 0.3208 0.2700 0.2956
H6_11 H 0.3482 0.2742 0.3605
C10_9 C 0.36166(16) 0.24585(13) 0.2726(4)
H7_9 H 0.3810 0.2388 0.3016
H8_8 H 0.3678 0.2632 0.2360
H9_10 H 0.3526 0.2273 0.2438
C11_9 C 0.3685(2) 0.1702(2) 0.4644(6)
H10_9 H 0.3689 0.1866 0.4254
C12_6 C 0.40205(18) 0.13502(15) 0.5360(4)
H11_6 H 0.3839 0.1358 0.5730
H12_6 H 0.4228 0.1370 0.5641
H13_6 H 0.4016 0.1142 0.5078
C13_9 C 0.4322(2) 0.1721(3) 0.4462(8)
H14_9 H 0.4506 0.1697 0.4822
H15_9 H 0.4295 0.1952 0.4325
H16_9 H 0.4364 0.1594 0.3991
Mn2_11 Mn 0.289268(15) 0.290159(14) 0.49745(3)
O5_8 O 0.32976(7) 0.30044(7) 0.53893(15)
O6_6 O 0.31671(6) 0.36462(6) 0.34776(14)
O7_10 O 0.24819(6) 0.28608(6) 0.44555(15)
N4_11 N 0.29387(8) 0.32445(7) 0.42131(17)
N5_6 N 0.26609(7) 0.32920(7) 0.37474(18)
N6_8 N 0.26263(10) 0.32319(9) 0.5816(2)
C14_8 C 0.35124(11) 0.32277(10) 0.5188(3)
C15_8 C 0.37940(13) 0.32605(12) 0.5634(3)
H17_8 H 0.3825 0.3117 0.6062
C16_8 C 0.40261(14) 0.34881(13) 0.5484(3)
H18_8 H 0.4214 0.3501 0.5805
C17_11 C 0.39906(11) 0.37048(11) 0.4859(3)
H19_11 H 0.4150 0.3867 0.4752
C18_11 C 0.37165(10) 0.36725(9) 0.4408(2)
H20_11 H 0.3691 0.3815 0.3975
C19_11 C 0.34764(9) 0.34454(9) 0.4548(2)
C20_11 C 0.31856(9) 0.34440(9) 0.4047(2)
C21_10 C 0.24365(10) 0.30849(10) 0.3929(2)
C22_10 C 0.21087(10) 0.31073(11) 0.3543(3)
H21_10 H 0.2111 0.3297 0.3188
H22_10 H 0.2077 0.2909 0.3221
C23_10 C 0.18324(18) 0.3139(3) 0.4054(5)
H23_10 H 0.1893 0.3066 0.4577
H24_10 H 0.1652 0.3004 0.3860
H25_10 H 0.1763 0.3368 0.4074
C24_7 C 0.23385(16) 0.31374(12) 0.6085(3)
H26_7 H 0.2262 0.2926 0.5952
C25_7 C 0.21404(16) 0.33362(15) 0.6559(3)
H27_7 H 0.1934 0.3262 0.6741
C26_7 C 0.22564(18) 0.36440(14) 0.6752(3)
C27_8 C 0.25281(18) 0.37372(13) 0.6424(3)
H28_8 H 0.2601 0.3955 0.6499
C28_8 C 0.27127(14) 0.35302(12) 0.5972(3)
H29_8 H 0.2913 0.3609 0.5765
C29_7 C 0.20667(19) 0.38787(14) 0.7283(4)
H30_11 H 0.2226 0.4014 0.7571
H31_7 H 0.1937 0.4028 0.6952
Mn3_6 Mn 0.221070(14) 0.137580(13) 0.22398(3)
O8_11 O 0.24168(7) 0.10122(6) 0.18455(15)
O9_9 O 0.30255(6) 0.13490(6) 0.36742(15)
O10_10 O 0.20531(6) 0.17627(6) 0.27606(16)
N7_9 N 0.25631(7) 0.14441(7) 0.29736(17)
N8_9 N 0.25391(7) 0.17332(7) 0.34100(18)
N9_6 N 0.14206(8) 0.44129(8) 0.9400(2)
C30_10 C 0.26672(10) 0.08395(10) 0.2148(2)
C31_10 C 0.27348(11) 0.05373(11) 0.1809(3)
H32_10 H 0.2606 0.0465 0.1384
C32_10 C 0.29776(12) 0.03472(11) 0.2067(3)
H33_10 H 0.3015 0.0142 0.1825
C33_9 C 0.31758(10) 0.04417(10) 0.2678(3)
H34_9 H 0.3347 0.0305 0.2859
C34_9 C 0.31152(9) 0.07399(9) 0.3012(2)
H35_9 H 0.3248 0.0809 0.3433
C35_9 C 0.28681(9) 0.09432(9) 0.2758(2)
C36_9 C 0.28159(9) 0.12623(9) 0.3149(2)
C37_10 C 0.22608(10) 0.18757(9) 0.3267(3)
C38_10 C 0.21694(13) 0.21773(11) 0.3695(4)
H36_10 H 0.2364 0.2270 0.3954
H37_10 H 0.2083 0.2342 0.3327
C39_10 C 0.18863(17) 0.20869(16) 0.4353(4)
H38_10 H 0.1970 0.1918 0.4704
H39_10 H 0.1832 0.2283 0.4653
H40_10 H 0.1690 0.2007 0.4091
C40_11 C 0.16528(12) 0.42099(11) 0.9628(3)
C41_11 C 0.18089(14) 0.39951(14) 0.9144(3)
H42_11 H 0.1973 0.3852 0.9337
C42_11 C 0.17245(14) 0.39908(16) 0.8379(3)
C43_11 C 0.14840(14) 0.42099(14) 0.8125(3)
H43_11 H 0.1417 0.4214 0.7597
C44_11 C 0.13482(12) 0.44176(12) 0.8661(3)
H44_11 H 0.1193 0.4573 0.8485
C45_11 C 0.18675(15) 0.37401(19) 0.7792(3)
H45_11 H 0.1988 0.3569 0.8081
H46_11 H 0.1686 0.3633 0.7511
O11_6 O 0.18329(6) 0.13538(6) 0.15224(14)
N10_6 N 0.23391(7) 0.17080(7) 0.12526(18)
N11_6 N 0.19129(8) 0.10794(8) 0.3100(2)
O7_11 O 0.03608(6) 0.00181(6) 0.80445(15)
C21_11 C 0.05849(10) 0.00635(10) 0.8571(2)
C22_11 C 0.06073(11) 0.03913(10) 0.8957(3)
H21_11 H 0.0797 0.0389 0.9312
H22_11 H 0.0409 0.0423 0.9279
C23_11 C 0.0639(3) 0.06676(18) 0.8446(5)
H23_11 H 0.0566 0.0607 0.7923
H24_11 H 0.0504 0.0848 0.8640
H25_11 H 0.0868 0.0737 0.8426
C24_8 C 0.06374(12) 0.01615(16) 0.6415(3)
H26_8 H 0.0426 0.0238 0.6548
C25_8 C 0.08362(15) 0.03596(16) 0.5941(3)
H27_8 H 0.0762 0.0566 0.5759
C26_8 C 0.11440(14) 0.02436(18) 0.5748(3)
C29_8 C 0.13787(14) 0.04333(19) 0.5217(4)
H30_12 H 0.1514 0.0274 0.4929
H31_8 H 0.1528 0.0563 0.5548
C40_12 C 0.17099(11) 0.08472(12) 0.2872(3)
H41_12 H 0.1713 0.0785 0.2340
C41_12 C 0.14951(14) 0.06911(14) 0.3356(3)
H42_12 H 0.1352 0.0527 0.3163
C42_12 C 0.14908(16) 0.07755(14) 0.4121(3)
C43_12 C 0.17099(14) 0.10160(14) 0.4375(3)
H43_12 H 0.1714 0.1083 0.4903
C44_12 C 0.19176(12) 0.11518(12) 0.3839(3)
H44_12 H 0.2073 0.1307 0.4015
C45_12 C 0.12401(19) 0.06325(15) 0.4708(3)
H45_12 H 0.1069 0.0512 0.4419
H46_12 H 0.1133 0.0814 0.4989
Mn1_10 Mn 0.204273(14) 0.324480(13) 0.07460(4)
O3_10 O 0.17962(6) 0.29668(6) 0.14462(14)
O4_10 O 0.15673(8) 0.33697(8) 0.0152(2)
N1_10 N 0.20938(7) 0.28299(7) 0.02265(18)
N2_10 N 0.19399(7) 0.25621(7) 0.06057(18)
N3_10 N 0.10065(18) 0.34097(18) 0.0129(5)
C8_10 C 0.17997(9) 0.26622(9) 0.1235(2)
C9_12 C 0.16258(10) 0.24188(10) 0.1739(2)
H5_12 H 0.1792 0.2300 0.2044
H6_12 H 0.1518 0.2258 0.1395
C10_10 C 0.13834(16) 0.25415(13) 0.2274(4)
H7_10 H 0.1190 0.2612 0.1984
H8_9 H 0.1322 0.2368 0.2640
H9_11 H 0.1474 0.2727 0.2562
C11_10 C 0.1315(2) 0.3298(2) 0.0356(6)
H10_10 H 0.1311 0.3134 0.0746
C13_10 C 0.0678(2) 0.3279(3) 0.0538(8)
H14_10 H 0.0494 0.3303 0.0178
H15_10 H 0.0705 0.3048 0.0675
H16_10 H 0.0636 0.3406 0.1009
Mn2_12 Mn 0.210732(15) 0.209841(14) 0.00255(3)
O7_12 O 0.25181(6) 0.21392(6) 0.05445(15)
N4_12 N 0.20613(8) 0.17555(7) 0.07869(17)
C17_12 C 0.10094(11) 0.12952(11) 0.0141(3)
H19_12 H 0.0850 0.1133 0.0248
C18_12 C 0.12835(10) 0.13275(9) 0.0592(2)
H20_12 H 0.1309 0.1185 0.1025
C19_12 C 0.15236(9) 0.15546(9) 0.0452(2)
C20_12 C 0.18144(9) 0.15560(9) 0.0953(2)
C21_12 C 0.25635(10) 0.19151(10) 0.1071(2)
C22_12 C 0.28913(10) 0.18927(11) 0.1457(3)
H21_12 H 0.2889 0.1703 0.1812
H22_12 H 0.2923 0.2091 0.1779
C23_12 C 0.31676(18) 0.1861(3) 0.0946(5)
H23_12 H 0.3107 0.1934 0.0423
H24_12 H 0.3348 0.1996 0.1140
H25_12 H 0.3237 0.1632 0.0926
O8_12 O 0.25832(7) 0.39878(6) 0.31545(15)
O9_10 O 0.19745(6) 0.36510(6) 0.13258(15)
O10_11 O 0.29469(6) 0.32373(6) 0.22394(16)
N7_10 N 0.24369(7) 0.35559(7) 0.20264(17)
N8_10 N 0.24609(7) 0.32668(7) 0.15900(18)
C30_11 C 0.23328(10) 0.41605(10) 0.2852(2)
C31_11 C 0.22652(11) 0.44627(11) 0.3191(3)
H32_11 H 0.2394 0.4535 0.3616
C32_11 C 0.20224(12) 0.46528(11) 0.2933(3)
H33_11 H 0.1985 0.4858 0.3175
C33_10 C 0.18242(10) 0.45583(10) 0.2322(3)
H34_10 H 0.1653 0.4695 0.2141
C34_10 C 0.18848(9) 0.42601(9) 0.1988(2)
H35_10 H 0.1752 0.4191 0.1567
C35_10 C 0.21319(9) 0.40568(9) 0.2242(2)
C36_10 C 0.21841(9) 0.37377(9) 0.1851(2)
C37_11 C 0.27392(10) 0.31243(9) 0.1733(3)
C38_11 C 0.28306(13) 0.28227(11) 0.1305(4)
H36_11 H 0.2636 0.2730 0.1046
H37_11 H 0.2917 0.2658 0.1673
C39_11 C 0.31137(17) 0.29131(16) 0.0647(4)
H38_11 H 0.3030 0.3082 0.0296
H39_11 H 0.3168 0.2717 0.0347
H40_11 H 0.3310 0.2993 0.0909
Mn1_11 Mn 0.074480(13) 0.545727(14) 0.82460(4)
O1_7 O 0.09453(6) 0.52121(7) 0.74799(18)
O3_11 O 0.04668(6) 0.57038(6) 0.89462(14)
O4_11 O 0.08697(8) 0.59327(8) 0.7652(2)
N1_11 N 0.03299(7) 0.54062(7) 0.77265(18)
N2_11 N 0.00621(7) 0.55601(7) 0.81057(18)
N3_11 N 0.09097(18) 0.64935(18) 0.7629(5)
C1_7 C 0.08167(12) 0.50556(11) 0.6874(3)
C2_8 C 0.10317(13) 0.48545(13) 0.6447(4)
H1_8 H 0.1251 0.4829 0.6616
C3_8 C 0.09285(17) 0.46972(16) 0.5799(4)
H2_8 H 0.1076 0.4558 0.5529
C4_8 C 0.06090(18) 0.47357(16) 0.5518(4)
H3_8 H 0.0541 0.4630 0.5054
C5_8 C 0.03922(12) 0.49335(13) 0.5939(3)
H4_8 H 0.0176 0.4964 0.5756
C6_7 C 0.04923(11) 0.50856(10) 0.6625(2)
C7_7 C 0.02494(10) 0.52658(10) 0.7065(2)
C8_11 C 0.01622(9) 0.57003(9) 0.8735(2)
C10_11 C 0.00415(13) 0.61166(16) 0.9774(4)
H7_11 H 0.0112 0.6310 0.9484
C11_11 C 0.0798(2) 0.6185(2) 0.7856(6)
H10_11 H 0.0634 0.6189 0.8246
C12_7 C 0.11498(15) 0.65205(18) 0.7140(4)
H11_7 H 0.1142 0.6339 0.6770
H12_7 H 0.1130 0.6728 0.6859
H13_7 H 0.1358 0.6516 0.7422
C13_11 C 0.0779(3) 0.6822(2) 0.8038(8)
H14_11 H 0.0803 0.7006 0.7678
H15_11 H 0.0548 0.6795 0.8175
H16_11 H 0.0906 0.6864 0.8509
O9_11 O 0.11510(6) 0.55255(6) 0.88258(15)
O10_12 O 0.07373(6) 0.45531(6) 0.97394(16)
N7_11 N 0.10559(7) 0.50631(7) 0.95264(17)
N8_11 N 0.07668(7) 0.50391(7) 0.90900(18)
C33_11 C 0.20583(10) 0.56758(10) 0.9822(3)
H34_11 H 0.2195 0.5847 0.9641
C34_11 C 0.17601(9) 0.56152(9) 0.9488(2)
H35_11 H 0.1691 0.5748 0.9067
C35_11 C 0.15568(9) 0.53681(9) 0.9742(2)
C36_11 C 0.12377(9) 0.53159(9) 0.9351(2)
C37_12 C 0.06243(9) 0.47608(10) 0.9233(3)
C38_12 C 0.03227(11) 0.46694(13) 0.8805(4)
H36_12 H 0.0230 0.4864 0.8546
H37_12 H 0.0158 0.4583 0.9173
C39_12 C 0.04131(16) 0.43863(17) 0.8147(4)
H38_12 H 0.0582 0.4470 0.7796
H39_12 H 0.0217 0.4332 0.7847
H40_12 H 0.0493 0.4190 0.8409
Mn1_12 Mn 0.574480(13) 0.545727(14) 0.67540(4)
O1_8 O 0.59453(6) 0.52121(7) 0.75201(18)
O2_9 O 0.49548(6) 0.52770(7) 0.82011(14)
O3_12 O 0.54668(6) 0.57038(6) 0.60538(14)
O4_12 O 0.58697(8) 0.59327(8) 0.7348(2)
N1_12 N 0.53299(7) 0.54062(7) 0.72735(18)
N2_12 N 0.50621(7) 0.55601(7) 0.68943(18)
N3_12 N 0.59097(18) 0.64935(18) 0.7371(5)
C1_8 C 0.58167(12) 0.50556(11) 0.8126(3)
C2_9 C 0.60317(13) 0.48545(13) 0.8553(4)
H1_9 H 0.6251 0.4829 0.8384
C3_9 C 0.59285(17) 0.46972(16) 0.9201(4)
H2_9 H 0.6076 0.4558 0.9471
C4_9 C 0.56090(18) 0.47357(16) 0.9482(4)
H3_9 H 0.5541 0.4630 0.9946
C5_9 C 0.53922(12) 0.49335(13) 0.9061(3)
H4_9 H 0.5176 0.4964 0.9244
C6_8 C 0.54923(11) 0.50856(10) 0.8375(2)
C7_8 C 0.52494(10) 0.52658(10) 0.7935(2)
C8_12 C 0.51622(9) 0.57003(9) 0.6265(2)
C9_13 C 0.49188(10) 0.58742(10) 0.5761(2)
H5_13 H 0.4800 0.5708 0.5456
H6_13 H 0.4758 0.5982 0.6105
C10_12 C 0.50415(13) 0.61166(16) 0.5226(4)
H7_12 H 0.5112 0.6310 0.5516
H8_10 H 0.4868 0.6178 0.4860
H9_12 H 0.5227 0.6026 0.4938
C11_12 C 0.5798(2) 0.6185(2) 0.7144(6)
H10_12 H 0.5634 0.6189 0.6754
C12_8 C 0.61498(15) 0.65205(18) 0.7860(4)
H11_8 H 0.6142 0.6339 0.8230
H12_8 H 0.6130 0.6728 0.8141
H13_8 H 0.6358 0.6516 0.7578
C13_12 C 0.5779(3) 0.6822(2) 0.6962(8)
H14_12 H 0.5803 0.7006 0.7322
H15_12 H 0.5548 0.6795 0.6825
H16_12 H 0.5906 0.6864 0.6491
Mn2_13 Mn 0.459841(14) 0.539268(15) 0.74745(3)
O5_9 O 0.44956(7) 0.57976(7) 0.78893(15)
O6_7 O 0.38538(6) 0.56671(6) 0.59776(14)
O7_13 O 0.46392(6) 0.49819(6) 0.69555(15)
N4_13 N 0.42555(7) 0.54387(8) 0.67131(17)
N5_7 N 0.42080(7) 0.51609(7) 0.62474(18)
N6_9 N 0.42681(9) 0.51263(10) 0.8316(2)
C14_9 C 0.42723(10) 0.60124(11) 0.7688(3)
C15_9 C 0.42395(12) 0.62940(13) 0.8134(3)
H17_9 H 0.4383 0.6325 0.8562
C16_9 C 0.40119(13) 0.65261(14) 0.7984(3)
H18_9 H 0.3999 0.6714 0.8305
C17_13 C 0.37952(11) 0.64906(11) 0.7359(3)
H19_13 H 0.3633 0.6650 0.7252
C18_13 C 0.38275(9) 0.62165(10) 0.6908(2)
H20_13 H 0.3685 0.6191 0.6475
C19_13 C 0.40546(9) 0.59764(9) 0.7048(2)
C20_13 C 0.40560(9) 0.56856(9) 0.6547(2)
C21_13 C 0.44151(10) 0.49365(10) 0.6429(2)
C22_13 C 0.43927(11) 0.46087(10) 0.6043(3)
H21_13 H 0.4203 0.4611 0.5688
H22_13 H 0.4591 0.4577 0.5721
C23_13 C 0.4361(3) 0.43324(18) 0.6554(5)
H23_13 H 0.4434 0.4393 0.7077
H24_13 H 0.4496 0.4152 0.6360
H25_13 H 0.4132 0.4263 0.6574
C24_9 C 0.43626(12) 0.48385(16) 0.8585(3)
H26_9 H 0.4574 0.4762 0.8452
C25_9 C 0.41638(15) 0.46404(16) 0.9059(3)
H27_9 H 0.4238 0.4434 0.9241
C26_9 C 0.38560(14) 0.47564(18) 0.9252(3)
C27_9 C 0.37628(13) 0.50281(18) 0.8924(3)
H28_9 H 0.3545 0.5101 0.8999
C28_9 C 0.39698(12) 0.52127(14) 0.8472(3)
H29_9 H 0.3891 0.5413 0.8265
C29_9 C 0.36213(14) 0.45667(19) 0.9783(4)
H31_9 H 0.3472 0.4437 0.9452
Mn3_7 Mn 0.612420(13) 0.471070(14) 0.47398(3)
O8_13 O 0.64878(6) 0.49168(7) 0.43455(15)
O9_12 O 0.61510(6) 0.55255(6) 0.61742(15)
O10_13 O 0.57373(6) 0.45531(6) 0.52606(16)
N7_12 N 0.60559(7) 0.50631(7) 0.54736(17)
N8_12 N 0.57668(7) 0.50391(7) 0.59100(18)
C30_12 C 0.66605(10) 0.51672(10) 0.4648(2)
C31_12 C 0.69627(11) 0.52348(11) 0.4309(3)
H32_12 H 0.7035 0.5106 0.3884
C32_12 C 0.71528(11) 0.54776(12) 0.4567(3)
H33_12 H 0.7358 0.5515 0.4325
C33_12 C 0.70583(10) 0.56758(10) 0.5178(3)
H34_12 H 0.7195 0.5847 0.5359
C34_12 C 0.67601(9) 0.56152(9) 0.5512(2)
H35_12 H 0.6691 0.5748 0.5933
C35_12 C 0.65568(9) 0.53681(9) 0.5258(2)
C36_12 C 0.62377(9) 0.53159(9) 0.5649(2)
C37_13 C 0.56243(9) 0.47608(10) 0.5767(3)
C38_13 C 0.53227(11) 0.46694(13) 0.6195(4)
H36_13 H 0.5230 0.4864 0.6454
H37_13 H 0.5158 0.4583 0.5827
C39_13 C 0.54131(16) 0.43863(17) 0.6853(4)
H38_13 H 0.5582 0.4470 0.7204
H39_13 H 0.5217 0.4332 0.7153
H40_13 H 0.5493 0.4190 0.6591
O11_7 O 0.61462(6) 0.43329(6) 0.40224(14)
N10_7 N 0.57920(7) 0.48391(7) 0.37526(18)
Mn4_4 Mn 0.387580(13) 0.528930(14) 0.52602(3)
N11_7 N 0.64206(8) 0.44129(8) 0.5600(2)
O1_9 O 0.22879(7) 0.84453(6) 0.00201(18)
O2_10 O 0.22230(7) 0.74548(6) 0.07011(14)
C1_9 C 0.24444(11) 0.83167(12) 0.0626(3)
C2_10 C 0.26455(13) 0.85317(13) 0.1053(4)
H1_10 H 0.2671 0.8751 0.0884
C3_10 C 0.28028(16) 0.84285(17) 0.1701(4)
H2_10 H 0.2942 0.8576 0.1971
C4_10 C 0.27643(16) 0.81090(18) 0.1982(4)
H3_10 H 0.2870 0.8041 0.2446
C5_10 C 0.25665(13) 0.78922(12) 0.1561(3)
H4_10 H 0.2536 0.7676 0.1744
C6_9 C 0.24144(10) 0.79923(11) 0.0875(2)
C7_9 C 0.22342(10) 0.77494(10) 0.0435(2)
C12_9 C 0.09795(18) 0.86498(15) 0.0360(4)
H11_9 H 0.1161 0.8642 0.0730
H12_9 H 0.0772 0.8630 0.0641
H13_9 H 0.0984 0.8858 0.0078
O5_10 O 0.17024(7) 0.69956(7) 0.03893(15)
N6_10 N 0.23737(10) 0.67681(9) 0.0816(2)
C14_10 C 0.14876(11) 0.67723(10) 0.0188(3)
C15_10 C 0.12060(13) 0.67395(12) 0.0634(3)
H17_10 H 0.1175 0.6883 0.1062
C16_10 C 0.09739(14) 0.65119(13) 0.0484(3)
H18_10 H 0.0786 0.6499 0.0805
C24_10 C 0.26615(16) 0.68626(12) 0.1085(3)
H26_10 H 0.2738 0.7074 0.0952
C25_10 C 0.28596(16) 0.66638(15) 0.1559(3)
H27_10 H 0.3066 0.6738 0.1741
C26_10 C 0.27436(18) 0.63560(14) 0.1752(3)
C27_10 C 0.24719(18) 0.62628(13) 0.1424(3)
H28_10 H 0.2399 0.6045 0.1499
C28_10 C 0.22873(14) 0.64698(12) 0.0972(3)
H29_10 H 0.2087 0.6391 0.0765
C29_10 C 0.29333(19) 0.61213(14) 0.2283(4)
H30_13 H 0.2774 0.5986 0.2571
H31_10 H 0.3063 0.5972 0.1952
N9_7 N 0.35794(8) 0.55871(8) 0.4400(2)
C40_13 C 0.33472(12) 0.57901(11) 0.4628(3)
H41_13 H 0.3285 0.5787 0.5160
C41_13 C 0.31911(14) 0.60049(14) 0.4144(3)
H42_13 H 0.3027 0.6148 0.4337
C42_13 C 0.32755(14) 0.60092(16) 0.3379(3)
C43_13 C 0.35160(14) 0.57901(14) 0.3125(3)
H43_13 H 0.3583 0.5786 0.2597
C44_13 C 0.36518(12) 0.55824(12) 0.3661(3)
H44_13 H 0.3807 0.5427 0.3485
C45_13 C 0.31325(15) 0.62599(19) 0.2792(3)
H45_13 H 0.3012 0.6431 0.3081
H46_13 H 0.3314 0.6367 0.2511
Mn1_13 Mn 0.425520(13) 0.454273(14) 0.32460(4)
O1_10 O 0.40547(6) 0.47879(7) 0.24799(18)
O2_11 O 0.50452(6) 0.47230(7) 0.17989(14)
O3_13 O 0.45332(6) 0.42962(6) 0.39462(14)
O4_13 O 0.41303(8) 0.40673(8) 0.2652(2)
N1_13 N 0.46701(7) 0.45938(7) 0.27265(18)
N2_13 N 0.49379(7) 0.44399(7) 0.31057(18)
N3_13 N 0.40903(18) 0.35065(18) 0.2629(5)
C1_10 C 0.41833(12) 0.49444(11) 0.1874(3)
C2_11 C 0.39683(13) 0.51455(13) 0.1447(4)
H1_11 H 0.3749 0.5171 0.1616
C3_11 C 0.40715(17) 0.53028(16) 0.0799(4)
H2_11 H 0.3924 0.5442 0.0529
C4_11 C 0.43910(18) 0.52643(16) 0.0518(4)
H3_11 H 0.4459 0.5370 0.0054
C5_11 C 0.46078(12) 0.50665(13) 0.0939(3)
H4_11 H 0.4824 0.5036 0.0756
C6_10 C 0.45077(11) 0.49144(10) 0.1625(2)
C7_10 C 0.47506(10) 0.47342(10) 0.2065(2)
C8_13 C 0.48378(9) 0.42997(9) 0.3735(2)
C9_14 C 0.50812(10) 0.41258(10) 0.4239(2)
H5_14 H 0.5200 0.4292 0.4544
H6_14 H 0.5242 0.4018 0.3895
C10_13 C 0.49585(13) 0.38834(16) 0.4774(4)
H7_13 H 0.4888 0.3690 0.4484
H8_11 H 0.5132 0.3822 0.5140
H9_13 H 0.4773 0.3974 0.5062
C11_13 C 0.4202(2) 0.3815(2) 0.2856(6)
H10_13 H 0.4366 0.3811 0.3246
C12_10 C 0.38502(15) 0.34795(18) 0.2140(4)
H11_10 H 0.3858 0.3661 0.1770
H12_10 H 0.3870 0.3272 0.1859
H13_10 H 0.3642 0.3484 0.2422
C13_13 C 0.4221(3) 0.3178(2) 0.3038(8)
H14_13 H 0.4197 0.2994 0.2678
H15_13 H 0.4452 0.3205 0.3175
H16_13 H 0.4094 0.3136 0.3509
Mn2_14 Mn 0.540159(14) 0.460732(15) 0.25255(3)
O5_11 O 0.55044(7) 0.42024(7) 0.21107(15)
O7_14 O 0.53608(6) 0.50181(6) 0.30445(15)
N4_14 N 0.57445(7) 0.45613(8) 0.32869(17)
N6_11 N 0.57319(9) 0.48737(10) 0.1684(2)
C14_11 C 0.57277(10) 0.39876(11) 0.2312(3)
C15_11 C 0.57605(12) 0.37060(13) 0.1866(3)
H17_11 H 0.5617 0.3675 0.1438
C16_11 C 0.59881(13) 0.34739(14) 0.2016(3)
H18_11 H 0.6001 0.3286 0.1695
C17_14 C 0.62048(11) 0.35094(11) 0.2641(3)
H19_14 H 0.6367 0.3350 0.2748
C18_14 C 0.61725(9) 0.37835(10) 0.3092(2)
H20_14 H 0.6315 0.3809 0.3525
C19_14 C 0.59454(9) 0.40236(9) 0.2952(2)
C20_14 C 0.59440(9) 0.43144(9) 0.3453(2)
C21_14 C 0.55849(10) 0.50635(10) 0.3571(2)
C22_14 C 0.56073(11) 0.53913(10) 0.3957(3)
H21_14 H 0.5797 0.5389 0.4312
H22_14 H 0.5409 0.5423 0.4279
C23_14 C 0.5639(3) 0.56676(18) 0.3446(5)
H23_14 H 0.5566 0.5607 0.2923
H24_14 H 0.5504 0.5848 0.3640
H25_14 H 0.5868 0.5737 0.3426
C24_11 C 0.56374(12) 0.51615(16) 0.1415(3)
H26_11 H 0.5426 0.5238 0.1548
C25_11 C 0.58362(15) 0.53596(16) 0.0941(3)
H27_11 H 0.5762 0.5566 0.0759
C26_11 C 0.61440(14) 0.52436(18) 0.0748(3)
C27_11 C 0.62372(13) 0.49719(18) 0.1076(3)
H28_11 H 0.6455 0.4899 0.1001
C28_11 C 0.60302(12) 0.47873(14) 0.1528(3)
H29_11 H 0.6109 0.4587 0.1735
C29_11 C 0.63787(14) 0.54333(19) 0.0217(4)
H31_11 H 0.6528 0.5563 0.0548
O8_14 O 0.35122(6) 0.50832(7) 0.56545(15)
O9_13 O 0.38490(6) 0.44745(6) 0.38258(15)
O10_14 O 0.42627(6) 0.54469(6) 0.47394(16)
N7_13 N 0.39441(7) 0.49369(7) 0.45264(17)
N8_13 N 0.42332(7) 0.49609(7) 0.40900(18)
C30_13 C 0.33395(10) 0.48328(10) 0.5352(2)
C31_13 C 0.30373(11) 0.47652(11) 0.5691(3)
H32_13 H 0.2965 0.4894 0.6116
C32_13 C 0.28472(11) 0.45224(12) 0.5433(3)
H33_13 H 0.2642 0.4485 0.5675
C33_13 C 0.29417(10) 0.43242(10) 0.4822(3)
H34_13 H 0.2805 0.4153 0.4641
C34_13 C 0.32399(9) 0.43848(9) 0.4488(2)
H35_13 H 0.3309 0.4252 0.4067
C35_13 C 0.34432(9) 0.46319(9) 0.4742(2)
C36_13 C 0.37623(9) 0.46841(9) 0.4351(2)
C37_14 C 0.43757(9) 0.52392(10) 0.4233(3)
C38_14 C 0.46773(11) 0.53306(13) 0.3805(4)
H36_14 H 0.4770 0.5136 0.3546
H37_14 H 0.4842 0.5417 0.4173
C39_14 C 0.45869(16) 0.56137(17) 0.3147(4)
H38_14 H 0.4418 0.5530 0.2796
H39_14 H 0.4783 0.5668 0.2847
H40_14 H 0.4507 0.5810 0.3409
O1_11 O 0.77121(7) 0.15547(6) 0.99799(18)
O2_12 O 0.77770(7) 0.25452(6) 0.92989(14)
C1_11 C 0.75556(11) 0.16833(12) 0.9374(3)
C2_12 C 0.73545(13) 0.14683(13) 0.8947(4)
H1_12 H 0.7329 0.1249 0.9116
C3_12 C 0.71972(16) 0.15715(17) 0.8299(4)
H2_12 H 0.7058 0.1424 0.8029
C4_12 C 0.72357(16) 0.18910(18) 0.8018(4)
H3_12 H 0.7130 0.1959 0.7554
C5_12 C 0.74335(13) 0.21078(12) 0.8439(3)
H4_12 H 0.7464 0.2324 0.8256
C6_11 C 0.75856(10) 0.20077(11) 0.9125(2)
C7_11 C 0.77658(10) 0.22506(10) 0.9565(2)
C12_11 C 0.90205(18) 0.13502(15) 0.9640(4)
H11_11 H 0.8839 0.1358 0.9270
H12_11 H 0.9228 0.1370 0.9359
H13_11 H 0.9016 0.1142 0.9922
O5_12 O 0.82976(7) 0.30044(7) 0.96107(15)
N6_12 N 0.76263(10) 0.32319(9) 0.9184(2)
C14_12 C 0.85124(11) 0.32277(10) 0.9812(3)
C15_12 C 0.87940(13) 0.32605(12) 0.9366(3)
H17_12 H 0.8825 0.3117 0.8938
C16_12 C 0.90261(14) 0.34881(13) 0.9516(3)
H18_12 H 0.9214 0.3501 0.9195
C24_12 C 0.73385(16) 0.31374(12) 0.8915(3)
H26_12 H 0.7262 0.2926 0.9048
C25_12 C 0.71404(16) 0.33362(15) 0.8441(3)
H27_12 H 0.6934 0.3262 0.8259
C26_12 C 0.72564(18) 0.36440(14) 0.8248(3)
C27_12 C 0.75281(18) 0.37372(13) 0.8576(3)
H28_12 H 0.7601 0.3955 0.8501
C28_12 C 0.77127(14) 0.35302(12) 0.9028(3)
H29_12 H 0.7913 0.3609 0.9235
C29_12 C 0.70667(19) 0.38787(14) 0.7717(4)
H30_14 H 0.7226 0.4014 0.7429
H31_12 H 0.6937 0.4028 0.8048
C40_14 C 0.66528(12) 0.42099(11) 0.5372(3)
H41_14 H 0.6715 0.4213 0.4840
C41_14 C 0.68089(14) 0.39951(14) 0.5856(3)
H42_14 H 0.6973 0.3852 0.5663
C42_14 C 0.67245(14) 0.39908(16) 0.6621(3)
C43_14 C 0.64840(14) 0.42099(14) 0.6875(3)
H43_14 H 0.6417 0.4214 0.7403
C44_14 C 0.63482(12) 0.44176(12) 0.6339(3)
H44_14 H 0.6193 0.4573 0.6515
C45_14 C 0.68675(15) 0.37401(19) 0.7208(3)
H45_14 H 0.6988 0.3569 0.6919
H46_14 H 0.6686 0.3633 0.7489
C2_13 C 0.39683(13) 0.01455(13) 0.8553(4)
H1_13 H 0.3749 0.0171 0.8384
C3_13 C 0.40715(17) 0.03028(16) 0.9201(4)
H2_13 H 0.3924 0.0442 0.9471
C4_13 C 0.43910(18) 0.02643(16) 0.9482(4)
H3_13 H 0.4459 0.0370 0.9946
C5_13 C 0.46078(12) 0.00665(13) 0.9061(3)
H4_13 H 0.4824 0.0036 0.9244
O7_15 O 0.53608(6) 0.00181(6) 0.69555(15)
C21_15 C 0.55849(10) 0.00635(10) 0.6429(2)
C22_15 C 0.56073(11) 0.03913(10) 0.6043(3)
H21_15 H 0.5797 0.0389 0.5688
H22_15 H 0.5409 0.0423 0.5721
C23_15 C 0.5639(3) 0.06676(18) 0.6554(5)
H23_15 H 0.5566 0.0607 0.7077
H24_15 H 0.5504 0.0848 0.6360
H25_15 H 0.5868 0.0737 0.6574
C24_13 C 0.56374(12) 0.01615(16) 0.8585(3)
H26_13 H 0.5426 0.0238 0.8452
C25_13 C 0.58362(15) 0.03596(16) 0.9059(3)
H27_13 H 0.5762 0.0566 0.9241
C26_13 C 0.61440(14) 0.02436(18) 0.9252(3)
C29_13 C 0.63787(14) 0.04333(19) 0.9783(4)
H31_13 H 0.6528 0.0563 0.9452
Mn3_8 Mn 0.387580(13) 0.028930(14) 0.47398(3)
O8_15 O 0.35122(6) 0.00832(7) 0.43455(15)
O10_15 O 0.42627(6) 0.04469(6) 0.52606(16)
C37_15 C 0.43757(9) 0.02392(10) 0.5767(3)
C38_15 C 0.46773(11) 0.03306(13) 0.6195(4)
H36_15 H 0.4770 0.0136 0.6454
H37_15 H 0.4842 0.0417 0.5827
C39_15 C 0.45869(16) 0.06137(17) 0.6853(4)
H38_15 H 0.4418 0.0530 0.7204
H39_15 H 0.4783 0.0668 0.7153
H40_15 H 0.4507 0.0810 0.6591
O11_8 O 0.38538(6) 0.06671(6) 0.40224(14)
N10_8 N 0.42080(7) 0.01609(7) 0.37526(18)
N11_8 N 0.35794(8) 0.05871(8) 0.5600(2)
Mn1_14 Mn 0.574480(13) 0.045727(14) 0.32460(4)
O1_12 O 0.59453(6) 0.02121(7) 0.24799(18)
O2_13 O 0.49548(6) 0.02770(7) 0.17989(14)
O3_14 O 0.54668(6) 0.07038(6) 0.39462(14)
O4_14 O 0.58697(8) 0.09327(8) 0.2652(2)
N1_14 N 0.53299(7) 0.04062(7) 0.27265(18)
N2_14 N 0.50621(7) 0.05601(7) 0.31057(18)
N3_14 N 0.59097(18) 0.14935(18) 0.2629(5)
C1_12 C 0.58167(12) 0.00556(11) 0.1874(3)
C6_12 C 0.54923(11) 0.00856(10) 0.1625(2)
C7_12 C 0.52494(10) 0.02658(10) 0.2065(2)
C8_14 C 0.51622(9) 0.07003(9) 0.3735(2)
C9_15 C 0.49188(10) 0.08742(10) 0.4239(2)
H5_15 H 0.4800 0.0708 0.4544
H6_15 H 0.4758 0.0982 0.3895
C10_14 C 0.50415(13) 0.11166(16) 0.4774(4)
H7_14 H 0.5112 0.1310 0.4484
H8_12 H 0.4868 0.1178 0.5140
H9_14 H 0.5227 0.1026 0.5062
C11_14 C 0.5798(2) 0.1185(2) 0.2856(6)
H10_14 H 0.5634 0.1189 0.3246
C12_12 C 0.61498(15) 0.15205(18) 0.2140(4)
H11_12 H 0.6142 0.1339 0.1770
H12_12 H 0.6130 0.1728 0.1859
H13_12 H 0.6358 0.1516 0.2422
C13_14 C 0.5779(3) 0.1822(2) 0.3038(8)
H14_14 H 0.5803 0.2006 0.2678
H15_14 H 0.5548 0.1795 0.3175
H16_14 H 0.5906 0.1864 0.3509
Mn2_15 Mn 0.459841(14) 0.039268(15) 0.25255(3)
O5_13 O 0.44956(7) 0.07976(7) 0.21107(15)
N4_15 N 0.42555(7) 0.04387(8) 0.32869(17)
N6_13 N 0.42681(9) 0.01263(10) 0.1684(2)
C14_13 C 0.42723(10) 0.10124(11) 0.2312(3)
C15_13 C 0.42395(12) 0.12940(13) 0.1866(3)
H17_13 H 0.4383 0.1325 0.1438
C16_13 C 0.40119(13) 0.15261(14) 0.2016(3)
H18_13 H 0.3999 0.1714 0.1695
C17_15 C 0.37952(11) 0.14906(11) 0.2641(3)
H19_15 H 0.3633 0.1650 0.2748
C18_15 C 0.38275(9) 0.12165(10) 0.3092(2)
H20_15 H 0.3685 0.1191 0.3525
C19_15 C 0.40546(9) 0.09764(9) 0.2952(2)
C20_15 C 0.40560(9) 0.06856(9) 0.3453(2)
C27_13 C 0.37628(13) 0.00281(18) 0.1076(3)
H28_13 H 0.3545 0.0101 0.1001
C28_13 C 0.39698(12) 0.02127(14) 0.1528(3)
H29_13 H 0.3891 0.0413 0.1735
O9_14 O 0.61510(6) 0.05255(6) 0.38258(15)
N7_14 N 0.60559(7) 0.00631(7) 0.45264(17)
N8_14 N 0.57668(7) 0.00391(7) 0.40900(18)
C30_14 C 0.66605(10) 0.01672(10) 0.5352(2)
C31_14 C 0.69627(11) 0.02348(11) 0.5691(3)
H32_14 H 0.7035 0.0106 0.6116
C32_14 C 0.71528(11) 0.04776(12) 0.5433(3)
H33_14 H 0.7358 0.0515 0.5675
C33_14 C 0.70583(10) 0.06758(10) 0.4822(3)
H34_14 H 0.7195 0.0847 0.4641
C34_14 C 0.67601(9) 0.06152(9) 0.4488(2)
H35_14 H 0.6691 0.0748 0.4067
C35_14 C 0.65568(9) 0.03681(9) 0.4742(2)
C36_14 C 0.62377(9) 0.03159(9) 0.4351(2)
O1_13 O 0.22879(7) 0.34453(6) 0.99799(18)
O2_14 O 0.22230(7) 0.24548(6) 0.92989(14)
C1_13 C 0.24444(11) 0.33167(12) 0.9374(3)
C2_14 C 0.26455(13) 0.35317(13) 0.8947(4)
H1_14 H 0.2671 0.3751 0.9116
C3_14 C 0.28028(16) 0.34285(17) 0.8299(4)
H2_14 H 0.2942 0.3576 0.8029
C4_14 C 0.27643(16) 0.31090(18) 0.8018(4)
H3_14 H 0.2870 0.3041 0.7554
C5_14 C 0.25665(13) 0.28922(12) 0.8439(3)
H4_14 H 0.2536 0.2676 0.8256
C6_13 C 0.24144(10) 0.29923(11) 0.9125(2)
C7_13 C 0.22342(10) 0.27494(10) 0.9565(2)
C12_13 C 0.09795(18) 0.36498(15) 0.9640(4)
H11_13 H 0.1161 0.3642 0.9270
H12_13 H 0.0772 0.3630 0.9359
H13_13 H 0.0984 0.3858 0.9922
O5_14 O 0.17024(7) 0.19956(7) 0.96107(15)
N6_14 N 0.23737(10) 0.17681(9) 0.9184(2)
C14_14 C 0.14876(11) 0.17723(10) 0.9812(3)
C15_14 C 0.12060(13) 0.17395(12) 0.9366(3)
H17_14 H 0.1175 0.1883 0.8938
C16_14 C 0.09739(14) 0.15119(13) 0.9516(3)
H18_14 H 0.0786 0.1499 0.9195
C24_14 C 0.26615(16) 0.18626(12) 0.8915(3)
H26_14 H 0.2738 0.2074 0.9048
C25_14 C 0.28596(16) 0.16638(15) 0.8441(3)
H27_14 H 0.3066 0.1738 0.8259
C26_14 C 0.27436(18) 0.13560(14) 0.8248(3)
C27_14 C 0.24719(18) 0.12628(13) 0.8576(3)
H28_14 H 0.2399 0.1045 0.8501
C28_14 C 0.22873(14) 0.14698(12) 0.9028(3)
H29_14 H 0.2087 0.1391 0.9235
C29_14 C 0.29333(19) 0.11213(14) 0.7717(4)
H30_15 H 0.2774 0.0986 0.7429
H31_14 H 0.3063 0.0972 0.8048
C40_15 C 0.33472(12) 0.07901(11) 0.5372(3)
H41_15 H 0.3285 0.0787 0.4840
C41_15 C 0.31911(14) 0.10049(14) 0.5856(3)
H42_15 H 0.3027 0.1148 0.5663
C42_15 C 0.32755(14) 0.10092(16) 0.6621(3)
C43_15 C 0.35160(14) 0.07901(14) 0.6875(3)
H43_15 H 0.3583 0.0786 0.7403
C44_15 C 0.36518(12) 0.05824(12) 0.6339(3)
H44_15 H 0.3807 0.0427 0.6515
C45_15 C 0.31325(15) 0.12599(19) 0.7208(3)
H45_15 H 0.3012 0.1431 0.6919
H46_15 H 0.3314 0.1367 0.7489
Mn1_15 Mn 0.425520(13) 0.954273(14) 0.67540(4)
O1_14 O 0.40547(6) 0.97879(7) 0.75201(18)
O2_15 O 0.50452(6) 0.97230(7) 0.82011(14)
O3_15 O 0.45332(6) 0.92962(6) 0.60538(14)
O4_15 O 0.41303(8) 0.90673(8) 0.7348(2)
N1_15 N 0.46701(7) 0.95938(7) 0.72735(18)
N2_15 N 0.49379(7) 0.94399(7) 0.68943(18)
N3_15 N 0.40903(18) 0.85065(18) 0.7371(5)
C1_14 C 0.41833(12) 0.99444(11) 0.8126(3)
C6_14 C 0.45077(11) 0.99144(10) 0.8375(2)
C7_14 C 0.47506(10) 0.97342(10) 0.7935(2)
C8_15 C 0.48378(9) 0.92997(9) 0.6265(2)
C9_16 C 0.50812(10) 0.91258(10) 0.5761(2)
H5_16 H 0.5200 0.9292 0.5456
H6_16 H 0.5242 0.9018 0.6105
C10_15 C 0.49585(13) 0.88834(16) 0.5226(4)
H7_15 H 0.4888 0.8690 0.5516
H8_13 H 0.5132 0.8822 0.4860
H9_15 H 0.4773 0.8974 0.4938
C11_15 C 0.4202(2) 0.8815(2) 0.7144(6)
H10_15 H 0.4366 0.8811 0.6754
C12_14 C 0.38502(15) 0.84795(18) 0.7860(4)
H11_14 H 0.3858 0.8661 0.8230
H12_14 H 0.3870 0.8272 0.8141
H13_14 H 0.3642 0.8484 0.7578
C13_15 C 0.4221(3) 0.8178(2) 0.6962(8)
H14_15 H 0.4197 0.7994 0.7322
H15_15 H 0.4452 0.8205 0.6825
H16_15 H 0.4094 0.8136 0.6491
Mn2_16 Mn 0.540159(14) 0.960732(15) 0.74745(3)
O5_15 O 0.55044(7) 0.92024(7) 0.78893(15)
O6_8 O 0.61462(6) 0.93329(6) 0.59776(14)
N4_16 N 0.57445(7) 0.95613(8) 0.67131(17)
N5_8 N 0.57920(7) 0.98391(7) 0.62474(18)
N6_15 N 0.57319(9) 0.98737(10) 0.8316(2)
C14_15 C 0.57277(10) 0.89876(11) 0.7688(3)
C15_15 C 0.57605(12) 0.87060(13) 0.8134(3)
H17_15 H 0.5617 0.8675 0.8562
C16_15 C 0.59881(13) 0.84739(14) 0.7984(3)
H18_15 H 0.6001 0.8286 0.8305
C17_16 C 0.62048(11) 0.85094(11) 0.7359(3)
H19_16 H 0.6367 0.8350 0.7252
C18_16 C 0.61725(9) 0.87835(10) 0.6908(2)
H20_16 H 0.6315 0.8809 0.6475
C19_16 C 0.59454(9) 0.90236(9) 0.7048(2)
C20_16 C 0.59440(9) 0.93144(9) 0.6547(2)
C27_15 C 0.62372(13) 0.99719(18) 0.8924(3)
H28_15 H 0.6455 0.9899 0.8999
C28_15 C 0.60302(12) 0.97873(14) 0.8472(3)
H29_15 H 0.6109 0.9587 0.8265
O9_15 O 0.38490(6) 0.94745(6) 0.61742(15)
N7_15 N 0.39441(7) 0.99369(7) 0.54736(17)
N8_15 N 0.42332(7) 0.99609(7) 0.59100(18)
C30_15 C 0.33395(10) 0.98328(10) 0.4648(2)
C31_15 C 0.30373(11) 0.97652(11) 0.4309(3)
H32_15 H 0.2965 0.9894 0.3884
C32_15 C 0.28472(11) 0.95224(12) 0.4567(3)
H33_15 H 0.2642 0.9485 0.4325
C33_15 C 0.29417(10) 0.93242(10) 0.5178(3)
H34_15 H 0.2805 0.9153 0.5359
C34_15 C 0.32399(9) 0.93848(9) 0.5512(2)
H35_15 H 0.3309 0.9252 0.5933
C35_15 C 0.34432(9) 0.96319(9) 0.5258(2)
C36_15 C 0.37623(9) 0.96841(9) 0.5649(2)
Mn4_5 Mn 0.612420(13) 0.971070(14) 0.52602(3)
O1_15 O 0.77121(7) 0.65547(6) 0.00201(18)
O2_16 O 0.77770(7) 0.75452(6) 0.07011(14)
C1_15 C 0.75556(11) 0.66833(12) 0.0626(3)
C2_15 C 0.73545(13) 0.64683(13) 0.1053(4)
H1_15 H 0.7329 0.6249 0.0884
C3_15 C 0.71972(16) 0.65715(17) 0.1701(4)
H2_15 H 0.7058 0.6424 0.1971
C4_15 C 0.72357(16) 0.68910(18) 0.1982(4)
H3_15 H 0.7130 0.6959 0.2446
C5_15 C 0.74335(13) 0.71078(12) 0.1561(3)
H4_15 H 0.7464 0.7324 0.1744
C6_15 C 0.75856(10) 0.70077(11) 0.0875(2)
C7_15 C 0.77658(10) 0.72506(10) 0.0435(2)
C12_15 C 0.90205(18) 0.63502(15) 0.0360(4)
H11_15 H 0.8839 0.6358 0.0730
H12_15 H 0.9228 0.6370 0.0641
H13_15 H 0.9016 0.6142 0.0078
O5_16 O 0.82976(7) 0.80044(7) 0.03893(15)
N6_16 N 0.76263(10) 0.82319(9) 0.0816(2)
C14_16 C 0.85124(11) 0.82277(10) 0.0188(3)
C15_16 C 0.87940(13) 0.82605(12) 0.0634(3)
H17_16 H 0.8825 0.8117 0.1062
C16_16 C 0.90261(14) 0.84881(13) 0.0484(3)
H18_16 H 0.9214 0.8501 0.0805
C24_15 C 0.73385(16) 0.81374(12) 0.1085(3)
H26_15 H 0.7262 0.7926 0.0952
C25_15 C 0.71404(16) 0.83362(15) 0.1559(3)
H27_15 H 0.6934 0.8262 0.1741
C26_15 C 0.72564(18) 0.86440(14) 0.1752(3)
C27_16 C 0.75281(18) 0.87372(13) 0.1424(3)
H28_16 H 0.7601 0.8955 0.1499
C28_16 C 0.77127(14) 0.85302(12) 0.0972(3)
H29_16 H 0.7913 0.8609 0.0765
C29_15 C 0.70667(19) 0.88787(14) 0.2283(4)
H30_16 H 0.7226 0.9014 0.2571
H31_15 H 0.6937 0.9028 0.1952
N9_8 N 0.64206(8) 0.94129(8) 0.4400(2)
C40_16 C 0.66528(12) 0.92099(11) 0.4628(3)
H41_16 H 0.6715 0.9213 0.5160
C41_16 C 0.68089(14) 0.89951(14) 0.4144(3)
H42_16 H 0.6973 0.8852 0.4337
C42_16 C 0.67245(14) 0.89908(16) 0.3379(3)
C43_16 C 0.64840(14) 0.92099(14) 0.3125(3)
H43_16 H 0.6417 0.9214 0.2597
C44_16 C 0.63482(12) 0.94176(12) 0.3661(3)
H44_16 H 0.6193 0.9573 0.3485
C45_16 C 0.68675(15) 0.87401(19) 0.2792(3)
H45_16 H 0.6988 0.8569 0.3081
H46_16 H 0.6686 0.8633 0.2511
C2_16 C 0.60317(13) 0.98545(13) 0.1447(4)
H1_16 H 0.6251 0.9829 0.1616
C3_16 C 0.59285(17) 0.96972(16) 0.0799(4)
H2_16 H 0.6076 0.9558 0.0529
C4_16 C 0.56090(18) 0.97357(16) 0.0518(4)
H3_16 H 0.5541 0.9630 0.0054
C5_16 C 0.53922(12) 0.99335(13) 0.0939(3)
H4_16 H 0.5176 0.9964 0.0756
O7_16 O 0.46392(6) 0.99819(6) 0.30445(15)
C21_16 C 0.44151(10) 0.99365(10) 0.3571(2)
C22_16 C 0.43927(11) 0.96087(10) 0.3957(3)
H21_16 H 0.4203 0.9611 0.4312
H22_16 H 0.4591 0.9577 0.4279
C23_16 C 0.4361(3) 0.93324(18) 0.3446(5)
H23_16 H 0.4434 0.9393 0.2923
H24_16 H 0.4496 0.9152 0.3640
H25_16 H 0.4132 0.9263 0.3426
C24_16 C 0.43626(12) 0.98385(16) 0.1415(3)
H26_16 H 0.4574 0.9762 0.1548
C25_16 C 0.41638(15) 0.96404(16) 0.0941(3)
H27_16 H 0.4238 0.9434 0.0759
C26_16 C 0.38560(14) 0.97564(18) 0.0748(3)
C29_16 C 0.36213(14) 0.95667(19) 0.0217(4)
H31_16 H 0.3472 0.9437 0.0548
O8_16 O 0.64878(6) 0.99168(7) 0.56545(15)
O10_16 O 0.57373(6) 0.95531(6) 0.47394(16)
C37_16 C 0.56243(9) 0.97608(10) 0.4233(3)
C38_16 C 0.53227(11) 0.96694(13) 0.3805(4)
H36_16 H 0.5230 0.9864 0.3546
H37_16 H 0.5158 0.9583 0.4173
C39_16 C 0.54131(16) 0.93863(17) 0.3147(4)
H38_16 H 0.5582 0.9470 0.2796
H39_16 H 0.5217 0.9332 0.2847
H40_16 H 0.5493 0.9190 0.3409
H8_14 H 0.0132 0.3822 0.9860
H8_15 H 0.0132 0.8822 0.0140
H9_16 H 0.9773 0.8974 0.0062
C30_16 C 0.83395(10) 0.98328(10) 0.0352(2)
C31_16 C 0.80373(11) 0.97652(11) 0.0691(3)
H32_16 H 0.7965 0.9894 0.1116
C32_16 C 0.78472(11) 0.95224(12) 0.0433(3)
H33_16 H 0.7642 0.9485 0.0675
Mn1_16 Mn 0.925520(13) 0.954273(14) 0.82460(4)
O1_16 O 0.90547(6) 0.97879(7) 0.74799(18)
O3_16 O 0.95332(6) 0.92962(6) 0.89462(14)
O4_16 O 0.91303(8) 0.90673(8) 0.7652(2)
N1_16 N 0.96701(7) 0.95938(7) 0.77265(18)
N2_16 N 0.99379(7) 0.94399(7) 0.81057(18)
N3_16 N 0.90903(18) 0.85065(18) 0.7629(5)
C1_16 C 0.91833(12) 0.99444(11) 0.6874(3)
C6_16 C 0.95077(11) 0.99144(10) 0.6625(2)
C7_16 C 0.97506(10) 0.97342(10) 0.7065(2)
C8_16 C 0.98378(9) 0.92997(9) 0.8735(2)
C10_16 C 0.99585(13) 0.88834(16) 0.9774(4)
H7_16 H 0.9888 0.8690 0.9484
C11_16 C 0.9202(2) 0.8815(2) 0.7856(6)
H10_16 H 0.9366 0.8811 0.8246
C12_16 C 0.88502(15) 0.84795(18) 0.7140(4)
H11_16 H 0.8858 0.8661 0.6770
H12_16 H 0.8870 0.8272 0.6859
H13_16 H 0.8642 0.8484 0.7422
C13_16 C 0.9221(3) 0.8178(2) 0.8038(8)
H14_16 H 0.9197 0.7994 0.7678
H15_16 H 0.9452 0.8205 0.8175
H16_16 H 0.9094 0.8136 0.8509
O9_16 O 0.88490(6) 0.94745(6) 0.88258(15)
N7_16 N 0.89441(7) 0.99369(7) 0.95264(17)
N8_16 N 0.92332(7) 0.99609(7) 0.90900(18)
C33_16 C 0.79417(10) 0.93242(10) 0.9822(3)
H34_16 H 0.7805 0.9153 0.9641
C34_16 C 0.82399(9) 0.93848(9) 0.9488(2)
H35_16 H 0.8309 0.9252 0.9067
C35_16 C 0.84432(9) 0.96319(9) 0.9742(2)
C36_16 C 0.87623(9) 0.96841(9) 0.9351(2)
H8_16 H 0.9868 0.6178 0.0140
loop_
_geom_bond_atom_site_label_1
_geom_bond_atom_site_label_2
_geom_bond_site_symmetry_1
_geom_bond_site_symmetry_2
Mn1 O1 1_555 1_555
O1 C1 1_555 1_555
O3 Mn1 1_555 1_555
O4 Mn1 1_555 1_555
N1 Mn1 1_555 1_555
N2 N1 1_555 1_555
N3 C11 1_555 1_555
C6 C1 1_555 1_555
C7 N1 1_555 1_555
C8 O3 1_555 1_555
H7 C10 1_555 1_555
C11 O4 1_555 1_555
H10 C11 1_555 1_555
C12 N3 1_555 1_555
H11 C12 1_555 1_555
H12 C12 1_555 1_555
H13 C12 1_555 1_555
C13 N3 1_555 1_555
H14 C13 1_555 1_555
H15 C13 1_555 1_555
H16 C13 1_555 1_555
O9 Mn1 1_555 1_555
N8 Mn1 1_555 1_555
H34 C33 1_555 1_555
C34 C33 1_555 1_555
H35 C34 1_555 1_555
C36 O9 1_555 1_555
N2 C8 1_555 1_555
C6 C7 1_555 1_555
N7 N8 1_555 1_555
N7 C36 1_555 1_555
C34 C35 1_555 1_555
C35 C36 1_555 1_555
C30 C31 1_555 1_555
C31 H32 1_555 1_555
C32 C31 1_555 1_555
H33 C32 1_555 1_555
C2 H1 1_555 1_555
C3 C2 1_555 1_555
H2 C3 1_555 1_555
C4 C3 1_555 1_555
H3 C4 1_555 1_555
C5 C4 1_555 1_555
H4 C5 1_555 1_555
C37 O10 1_555 1_555
C38 C37 1_555 1_555
H36 C38 1_555 1_555
H37 C38 1_555 1_555
C39 C38 1_555 1_555
H38 C39 1_555 1_555
H39 C39 1_555 1_555
H40 C39 1_555 1_555
O3_2 Mn1_2 1_555 1_555
O4_2 Mn1_2 1_555 1_555
N1_2 Mn1_2 1_555 1_555
N2_2 N1_2 1_555 1_555
N3_2 C11_2 1_555 1_555
C8_2 O3_2 1_555 1_555
C9 C8_2 1_555 1_555
H5 C9 1_555 1_555
H6 C9 1_555 1_555
C10_2 C9 1_555 1_555
H7_2 C10_2 1_555 1_555
H8 C10_2 1_555 1_555
H9_2 C10_2 1_555 1_555
C11_2 O4_2 1_555 1_555
H10_2 C11_2 1_555 1_555
C13_2 N3_2 1_555 1_555
H14_2 C13_2 1_555 1_555
H15_2 C13_2 1_555 1_555
H16_2 C13_2 1_555 1_555
O6 C20 1_555 1_555
O7 Mn2 1_555 1_555
N4 Mn2 1_555 1_555
N5 N4 1_555 1_555
H19 C17 1_555 1_555
C18 C17 1_555 1_555
H20 C18 1_555 1_555
C20 N4 1_555 1_555
C21 O7 1_555 1_555
C22 C21 1_555 1_555
H21 C22 1_555 1_555
H22 C22 1_555 1_555
C23 C22 1_555 1_555
H23 C23 1_555 1_555
H24 C23 1_555 1_555
H25 C23 1_555 1_555
Mn3 O8 1_555 1_555
O8 C30_2 1_555 1_555
O9_2 Mn1_2 1_555 1_555
O10_2 Mn3 1_555 1_555
N7_2 Mn3 1_555 1_555
N8_2 Mn1_2 1_555 1_555
C30_2 C31_2 1_555 1_555
C31_2 H32_2 1_555 1_555
C32_2 C31_2 1_555 1_555
H33_2 C32_2 1_555 1_555
C33_2 C32_2 1_555 1_555
H34_2 C33_2 1_555 1_555
C34_2 C33_2 1_555 1_555
H35_2 C34_2 1_555 1_555
C35_2 C30_2 1_555 1_555
C36_2 O9_2 1_555 1_555
C37_2 O10_2 1_555 1_555
C38_2 C37_2 1_555 1_555
H36_2 C38_2 1_555 1_555
H37_2 C38_2 1_555 1_555
C39_2 C38_2 1_555 1_555
H38_2 C39_2 1_555 1_555
H39_2 C39_2 1_555 1_555
H40_2 C39_2 1_555 1_555
O11 Mn3 1_555 1_555
N10 Mn3 1_555 1_555
Mn4 O6 1_555 1_555
N11_2 Mn3 1_555 1_555
N2_2 C8_2 1_555 1_555
N2_2 Mn2 1_555 1_555
N5 C21 1_555 1_555
N5 Mn4 1_555 1_555
C18 C19 1_555 1_555
C19 C20 1_555 1_555
N7_2 N8_2 1_555 1_555
N7_2 C36_2 1_555 1_555
N8_2 C37_2 1_555 1_555
C34_2 C35_2 1_555 1_555
C35_2 C36_2 1_555 1_555
H5_2 C9_2 1_555 1_555
H6_2 C9_2 1_555 1_555
Mn2_2 O2 1_555 1_555
O5 Mn2_2 1_555 1_555
O6_2 C20_2 1_555 1_555
O7_2 Mn2_2 1_555 1_555
N4_2 Mn2_2 1_555 1_555
N5_2 N4_2 1_555 1_555
N6 Mn2_2 1_555 1_555
C14 O5 1_555 1_555
C15 C14 1_555 1_555
H17 C15 1_555 1_555
C16 C15 1_555 1_555
H18 C16 1_555 1_555
C17_2 C16 1_555 1_555
H19_2 C17_2 1_555 1_555
C18_2 C17_2 1_555 1_555
H20_2 C18_2 1_555 1_555
C19_2 C14 1_555 1_555
C20_2 N4_2 1_555 1_555
C21_2 O7_2 1_555 1_555
C22_2 C21_2 1_555 1_555
H21_2 C22_2 1_555 1_555
H22_2 C22_2 1_555 1_555
C23_2 C22_2 1_555 1_555
H23_2 C23_2 1_555 1_555
H24_2 C23_2 1_555 1_555
H25_2 C23_2 1_555 1_555
C24 N6 1_555 1_555
H26 C24 1_555 1_555
C25 C24 1_555 1_555
H27 C25 1_555 1_555
C26 C25 1_555 1_555
C27 C26 1_555 1_555
H28 C27 1_555 1_555
C28 N6 1_555 1_555
H29 C28 1_555 1_555
C29 C26 1_555 1_555
H30 C29 1_555 1_555
H31 C29 1_555 1_555
N9 C40 1_555 1_555
C40 H41_2 1_555 1_555
C41 C40 1_555 1_555
H42 C41 1_555 1_555
C42 C41 1_555 1_555
C43 C42 1_555 1_555
H43 C43 1_555 1_555
C44 N9 1_555 1_555
H44 C44 1_555 1_555
C45 C29 1_555 1_555
H45 C45 1_555 1_555
H46 C45 1_555 1_555
Mn5 O6_2 1_555 1_555
Mn4 N9 1_555 1_555
N5_2 C21_2 1_555 1_555
N5_2 Mn5 1_555 1_555
C18_2 C19_2 1_555 1_555
C19_2 C20_2 1_555 1_555
C27 C28 1_555 1_555
C42 C45 1_555 1_555
C43 C44 1_555 1_555
Mn1_3 O1_2 1_555 1_555
O1_2 C1_2 1_555 1_555
O2_2 C7_2 1_555 1_555
O3_3 Mn1_3 1_555 1_555
O4_3 Mn1_3 1_555 1_555
N1_3 Mn1_3 1_555 1_555
N2_3 N1_3 1_555 1_555
N3_3 C11_3 1_555 1_555
C1_2 C2_2 1_555 1_555
C2_2 H1_2 1_555 1_555
C3_2 C2_2 1_555 1_555
H2_2 C3_2 1_555 1_555
C4_2 C3_2 1_555 1_555
H3_2 C4_2 1_555 1_555
C5_2 C4_2 1_555 1_555
H4_2 C5_2 1_555 1_555
C6_2 C1_2 1_555 1_555
C7_2 N1_3 1_555 1_555
C8_3 O3_3 1_555 1_555
C9_3 C8_3 1_555 1_555
H5_3 C9_3 1_555 1_555
H6_3 C9_3 1_555 1_555
C10_3 C9_3 1_555 1_555
H7_3 C10_3 1_555 1_555
H8_2 C10_3 1_555 1_555
H9_3 C10_3 1_555 1_555
C11_3 O4_3 1_555 1_555
H10_3 C11_3 1_555 1_555
C12_2 N3_3 1_555 1_555
H11_2 C12_2 1_555 1_555
H12_2 C12_2 1_555 1_555
H13_2 C12_2 1_555 1_555
C13_3 N3_3 1_555 1_555
H14_3 C13_3 1_555 1_555
H15_3 C13_3 1_555 1_555
H16_3 C13_3 1_555 1_555
Mn2_3 O2_2 1_555 1_555
O5_2 Mn2_3 1_555 1_555
O11 C20_3 1_555 1_555
O7_3 Mn2_3 1_555 1_555
N4_3 Mn2_3 1_555 1_555
N10 N4_3 1_555 1_555
N6_2 Mn2_3 1_555 1_555
C14_2 O5_2 1_555 1_555
C15_2 C14_2 1_555 1_555
H17_2 C15_2 1_555 1_555
C16_2 C15_2 1_555 1_555
H18_2 C16_2 1_555 1_555
C17_3 C16_2 1_555 1_555
H19_3 C17_3 1_555 1_555
C18_3 C17_3 1_555 1_555
H20_3 C18_3 1_555 1_555
C19_3 C14_2 1_555 1_555
C20_3 N4_3 1_555 1_555
C21_3 O7_3 1_555 1_555
C22_3 C21_3 1_555 1_555
H21_3 C22_3 1_555 1_555
H22_3 C22_3 1_555 1_555
C23_3 C22_3 1_555 1_555
H23_3 C23_3 1_555 1_555
H24_3 C23_3 1_555 1_555
H25_3 C23_3 1_555 1_555
C24_2 N6_2 1_555 1_555
H26_2 C24_2 1_555 1_555
C25_2 C24_2 1_555 1_555
H27_2 C25_2 1_555 1_555
C26_2 C25_2 1_555 1_555
C27_2 C26_2 1_555 1_555
H28_2 C27_2 1_555 1_555
C28_2 N6_2 1_555 1_555
H29_2 C28_2 1_555 1_555
C29_2 C26_2 1_555 1_555
H30_2 C29_2 1_555 1_555
H31_2 C29_2 1_555 1_555
Mn4 O8_2 1_555 1_555
O8_2 C30_3 1_555 1_555
O9_3 Mn1_3 1_555 1_555
O10_3 Mn4 1_555 1_555
N7_3 Mn4 1_555 1_555
N8_3 Mn1_3 1_555 1_555
N11 C40_2 1_555 1_555
C30_3 C31_3 1_555 1_555
C31_3 H32_3 1_555 1_555
C32_3 C31_3 1_555 1_555
H33_3 C32_3 1_555 1_555
C33_3 C32_3 1_555 1_555
H34_3 C33_3 1_555 1_555
C34_3 C33_3 1_555 1_555
H35_3 C34_3 1_555 1_555
C35_3 C30_3 1_555 1_555
C36_3 O9_3 1_555 1_555
C37_3 O10_3 1_555 1_555
C38_3 C37_3 1_555 1_555
H36_3 C38_3 1_555 1_555
H37_3 C38_3 1_555 1_555
C39_3 C38_3 1_555 1_555
H38_3 C39_3 1_555 1_555
H39_3 C39_3 1_555 1_555
H40_3 C39_3 1_555 1_555
C41_2 C40_2 1_555 1_555
H42_2 C41_2 1_555 1_555
C42_2 C41_2 1_555 1_555
C43_2 C42_2 1_555 1_555
H43_2 C43_2 1_555 1_555
C44_2 N11 1_555 1_555
H44_2 C44_2 1_555 1_555
C45_2 C29_2 1_555 1_555
H45_2 C45_2 1_555 1_555
H46_2 C45_2 1_555 1_555
N2_3 C8_3 1_555 1_555
N2_3 Mn2_3 1_555 1_555
C5_2 C6_2 1_555 1_555
C6_2 C7_2 1_555 1_555
N10 C21_3 1_555 1_555
C18_3 C19_3 1_555 1_555
C19_3 C20_3 1_555 1_555
C27_2 C28_2 1_555 1_555
N7_3 N8_3 1_555 1_555
N7_3 C36_3 1_555 1_555
N8_3 C37_3 1_555 1_555
C34_3 C35_3 1_555 1_555
C35_3 C36_3 1_555 1_555
C42_2 C45_2 1_555 1_555
C43_2 C44_2 1_555 1_555
N11_2 C40_3 1_555 1_555
C40_3 H41_3 1_555 1_555
C41_3 C40_3 1_555 1_555
H42_3 C41_3 1_555 1_555
C42_3 C41_3 1_555 1_555
C43_3 C42_3 1_555 1_555
H43_3 C43_3 1_555 1_555
C44_3 N11_2 1_555 1_555
H44_3 C44_3 1_555 1_555
H45_3 C45_3 1_555 1_555
H46_3 C45_3 1_555 1_555
C42_3 C45_3 1_555 1_555
C43_3 C44_3 1_555 1_555
Mn5 O8_3 1_555 1_555
O8_3 C30_4 1_555 1_555
C30_4 C31_4 1_555 1_555
C31_4 H32_4 1_555 1_555
C32_4 C31_4 1_555 1_555
H33_4 C32_4 1_555 1_555
Mn3_2 O8_4 1_555 1_555
O11_2 Mn3_2 1_555 1_555
N10_2 Mn3_2 1_555 1_555
H5_4 C9_4 1_555 1_555
H6_4 C9_4 1_555 1_555
Mn2_4 O2_3 1_555 1_555
O5_3 Mn2_4 1_555 1_555
O11_2 C20_4 1_555 1_555
N4_4 Mn2_4 1_555 1_555
N10_2 N4_4 1_555 1_555
N6_3 Mn2_4 1_555 1_555
C14_3 O5_3 1_555 1_555
C15_3 C14_3 1_555 1_555
H17_3 C15_3 1_555 1_555
C16_3 C15_3 1_555 1_555
H18_3 C16_3 1_555 1_555
C17_4 C16_3 1_555 1_555
H19_4 C17_4 1_555 1_555
C18_4 C17_4 1_555 1_555
H20_4 C18_4 1_555 1_555
C19_4 C14_3 1_555 1_555
C20_4 N4_4 1_555 1_555
H28_3 C27_3 1_555 1_555
C28_3 N6_3 1_555 1_555
H29_3 C28_3 1_555 1_555
C18_4 C19_4 1_555 1_555
C19_4 C20_4 1_555 1_555
C27_3 C28_3 1_555 1_555
H5_5 C9_5 1_555 1_555
H6_5 C9_5 1_555 1_555
Mn2_5 O2_4 1_555 1_555
O5_4 Mn2_5 1_555 1_555
O6_3 C20_5 1_555 1_555
N4_5 Mn2_5 1_555 1_555
N5_3 N4_5 1_555 1_555
N6_4 Mn2_5 1_555 1_555
C14_4 O5_4 1_555 1_555
C15_4 C14_4 1_555 1_555
H17_4 C15_4 1_555 1_555
C16_4 C15_4 1_555 1_555
H18_4 C16_4 1_555 1_555
C17_5 C16_4 1_555 1_555
H19_5 C17_5 1_555 1_555
C18_5 C17_5 1_555 1_555
H20_5 C18_5 1_555 1_555
C19_5 C14_4 1_555 1_555
C20_5 N4_5 1_555 1_555
H28_4 C27_4 1_555 1_555
C28_4 N6_4 1_555 1_555
H29_4 C28_4 1_555 1_555
Mn4_2 O6_3 1_555 1_555
N5_3 Mn4_2 1_555 1_555
C18_5 C19_5 1_555 1_555
C19_5 C20_5 1_555 1_555
C27_4 C28_4 1_555 1_555
Mn4_2 O8_5 1_555 1_555
C21_4 O7_4 1_555 1_555
C22_4 C21_4 1_555 1_555
H21_4 C22_4 1_555 1_555
H22_4 C22_4 1_555 1_555
C23_4 C22_4 1_555 1_555
H23_4 C23_4 1_555 1_555
H24_4 C23_4 1_555 1_555
H25_4 C23_4 1_555 1_555
H26_3 C24_3 1_555 1_555
C25_3 C24_3 1_555 1_555
H27_3 C25_3 1_555 1_555
C26_3 C25_3 1_555 1_555
C29_3 C26_3 1_555 1_555
H30_4 C29_3 1_555 1_555
H31_3 C29_3 1_555 1_555
N9_2 C40_4 1_555 1_555
C40_4 H41_6 1_555 1_555
C41_4 C40_4 1_555 1_555
H42_4 C41_4 1_555 1_555
C42_4 C41_4 1_555 1_555
C43_4 C42_4 1_555 1_555
H43_4 C43_4 1_555 1_555
C44_4 N9_2 1_555 1_555
H44_4 C44_4 1_555 1_555
C45_4 C29_3 1_555 1_555
H45_4 C45_4 1_555 1_555
H46_4 C45_4 1_555 1_555
Mn5_2 N9_2 1_555 1_555
C42_4 C45_4 1_555 1_555
C43_4 C44_4 1_555 1_555
O3_4 Mn1_4 1_555 1_555
O4_4 Mn1_4 1_555 1_555
N1_4 Mn1_4 1_555 1_555
N2_4 N1_4 1_555 1_555
N3_4 C11_4 1_555 1_555
C8_4 O3_4 1_555 1_555
C9_6 C8_4 1_555 1_555
H5_6 C9_6 1_555 1_555
H6_6 C9_6 1_555 1_555
C10_4 C9_6 1_555 1_555
H7_4 C10_4 1_555 1_555
H8_4 C10_4 1_555 1_555
H9_5 C10_4 1_555 1_555
C11_4 O4_4 1_555 1_555
H10_4 C11_4 1_555 1_555
C13_4 N3_4 1_555 1_555
H14_4 C13_4 1_555 1_555
H15_4 C13_4 1_555 1_555
H16_4 C13_4 1_555 1_555
O6_4 C20_6 1_555 1_555
O7_5 Mn2_6 1_555 1_555
N4_6 Mn2_6 1_555 1_555
N5_4 N4_6 1_555 1_555
H19_6 C17_6 1_555 1_555
C18_6 C17_6 1_555 1_555
H20_6 C18_6 1_555 1_555
C20_6 N4_6 1_555 1_555
C21_5 O7_5 1_555 1_555
C22_5 C21_5 1_555 1_555
H21_5 C22_5 1_555 1_555
H22_5 C22_5 1_555 1_555
C23_5 C22_5 1_555 1_555
H23_5 C23_5 1_555 1_555
H24_5 C23_5 1_555 1_555
H25_5 C23_5 1_555 1_555
Mn3_3 O8_6 1_555 1_555
O8_6 C30_5 1_555 1_555
O9_4 Mn1_4 1_555 1_555
O10_4 Mn3_3 1_555 1_555
N7_4 Mn3_3 1_555 1_555
N8_4 Mn1_4 1_555 1_555
C30_5 C31_5 1_555 1_555
C31_5 H32_5 1_555 1_555
C32_5 C31_5 1_555 1_555
H33_5 C32_5 1_555 1_555
C33_4 C32_5 1_555 1_555
H34_4 C33_4 1_555 1_555
C34_4 C33_4 1_555 1_555
H35_4 C34_4 1_555 1_555
C35_4 C30_5 1_555 1_555
C36_4 O9_4 1_555 1_555
C37_4 O10_4 1_555 1_555
C38_4 C37_4 1_555 1_555
H36_4 C38_4 1_555 1_555
H37_4 C38_4 1_555 1_555
C39_4 C38_4 1_555 1_555
H38_4 C39_4 1_555 1_555
H39_4 C39_4 1_555 1_555
H40_4 C39_4 1_555 1_555
O11_3 Mn3_3 1_555 1_555
N10_3 Mn3_3 1_555 1_555
Mn5_2 O6_4 1_555 1_555
N11_3 Mn3_3 1_555 1_555
N2_4 C8_4 1_555 1_555
N2_4 Mn2_6 1_555 1_555
N5_4 C21_5 1_555 1_555
N5_4 Mn5_2 1_555 1_555
C18_6 C19_6 1_555 1_555
C19_6 C20_6 1_555 1_555
N7_4 N8_4 1_555 1_555
N7_4 C36_4 1_555 1_555
N8_4 C37_4 1_555 1_555
C34_4 C35_4 1_555 1_555
C35_4 C36_4 1_555 1_555
Mn1_5 O1_3 1_555 1_555
O1_3 C1_3 1_555 1_555
O3_5 Mn1_5 1_555 1_555
O4_5 Mn1_5 1_555 1_555
N1_5 Mn1_5 1_555 1_555
N2_5 N1_5 1_555 1_555
N3_5 C11_5 1_555 1_555
C1_3 C2_3 1_555 1_555
C2_3 H1_3 1_555 1_555
C3_3 C2_3 1_555 1_555
H2_3 C3_3 1_555 1_555
C4_3 C3_3 1_555 1_555
H3_3 C4_3 1_555 1_555
C5_3 C4_3 1_555 1_555
H4_3 C5_3 1_555 1_555
C6_3 C1_3 1_555 1_555
C7_3 N1_5 1_555 1_555
C8_5 O3_5 1_555 1_555
H7_5 C10_5 1_555 1_555
C11_5 O4_5 1_555 1_555
H10_5 C11_5 1_555 1_555
C12_3 N3_5 1_555 1_555
H11_3 C12_3 1_555 1_555
H12_3 C12_3 1_555 1_555
H13_3 C12_3 1_555 1_555
C13_5 N3_5 1_555 1_555
H14_5 C13_5 1_555 1_555
H15_5 C13_5 1_555 1_555
H16_5 C13_5 1_555 1_555
O9_5 Mn1_5 1_555 1_555
N8_5 Mn1_5 1_555 1_555
H34_5 C33_5 1_555 1_555
C34_5 C33_5 1_555 1_555
H35_5 C34_5 1_555 1_555
C36_5 O9_5 1_555 1_555
C37_5 O10_5 1_555 1_555
C38_5 C37_5 1_555 1_555
H36_5 C38_5 1_555 1_555
H37_5 C38_5 1_555 1_555
C39_5 C38_5 1_555 1_555
H38_5 C39_5 1_555 1_555
H39_5 C39_5 1_555 1_555
H40_5 C39_5 1_555 1_555
N2_5 C8_5 1_555 1_555
C5_3 C6_3 1_555 1_555
C6_3 C7_3 1_555 1_555
N7_5 N8_5 1_555 1_555
N7_5 C36_5 1_555 1_555
N8_5 C37_5 1_555 1_555
C34_5 C35_5 1_555 1_555
C35_5 C36_5 1_555 1_555
N11_3 C40_5 1_555 1_555
C40_5 H41_7 1_555 1_555
C41_5 C40_5 1_555 1_555
H42_5 C41_5 1_555 1_555
C42_5 C41_5 1_555 1_555
C43_5 C42_5 1_555 1_555
H43_5 C43_5 1_555 1_555
C44_5 N11_3 1_555 1_555
H44_5 C44_5 1_555 1_555
H45_5 C45_5 1_555 1_555
H46_5 C45_5 1_555 1_555
C42_5 C45_5 1_555 1_555
C43_5 C44_5 1_555 1_555
Mn1_6 O1_4 1_555 1_555
O1_4 C1_4 1_555 1_555
O2_5 C7_4 1_555 1_555
O3_6 Mn1_6 1_555 1_555
O4_6 Mn1_6 1_555 1_555
N1_6 Mn1_6 1_555 1_555
N2_6 N1_6 1_555 1_555
N3_6 C11_6 1_555 1_555
C1_4 C2_4 1_555 1_555
C2_4 H1_4 1_555 1_555
C3_4 C2_4 1_555 1_555
H2_4 C3_4 1_555 1_555
C4_4 C3_4 1_555 1_555
H3_4 C4_4 1_555 1_555
C5_4 C4_4 1_555 1_555
H4_4 C5_4 1_555 1_555
C6_4 C1_4 1_555 1_555
C7_4 N1_6 1_555 1_555
C8_6 O3_6 1_555 1_555
C9_7 C8_6 1_555 1_555
H5_7 C9_7 1_555 1_555
H6_7 C9_7 1_555 1_555
C10_6 C9_7 1_555 1_555
H7_6 C10_6 1_555 1_555
H8_5 C10_6 1_555 1_555
H9_6 C10_6 1_555 1_555
C11_6 O4_6 1_555 1_555
H10_6 C11_6 1_555 1_555
C12_4 N3_6 1_555 1_555
H11_4 C12_4 1_555 1_555
H12_4 C12_4 1_555 1_555
H13_4 C12_4 1_555 1_555
C13_6 N3_6 1_555 1_555
H14_6 C13_6 1_555 1_555
H15_6 C13_6 1_555 1_555
H16_6 C13_6 1_555 1_555
Mn2_7 O2_5 1_555 1_555
O5_5 Mn2_7 1_555 1_555
O11_3 C20_7 1_555 1_555
O7_6 Mn2_7 1_555 1_555
N4_7 Mn2_7 1_555 1_555
N10_3 N4_7 1_555 1_555
N6_5 Mn2_7 1_555 1_555
C14_5 O5_5 1_555 1_555
C15_5 C14_5 1_555 1_555
H17_5 C15_5 1_555 1_555
C16_5 C15_5 1_555 1_555
H18_5 C16_5 1_555 1_555
C17_7 C16_5 1_555 1_555
H19_7 C17_7 1_555 1_555
C18_7 C17_7 1_555 1_555
H20_7 C18_7 1_555 1_555
C19_7 C14_5 1_555 1_555
C20_7 N4_7 1_555 1_555
C21_6 O7_6 1_555 1_555
C22_6 C21_6 1_555 1_555
H21_6 C22_6 1_555 1_555
H22_6 C22_6 1_555 1_555
C23_6 C22_6 1_555 1_555
H23_6 C23_6 1_555 1_555
H24_6 C23_6 1_555 1_555
H25_6 C23_6 1_555 1_555
C24_4 N6_5 1_555 1_555
H26_4 C24_4 1_555 1_555
C25_4 C24_4 1_555 1_555
H27_4 C25_4 1_555 1_555
C26_4 C25_4 1_555 1_555
C27_5 C26_4 1_555 1_555
H28_5 C27_5 1_555 1_555
C28_5 N6_5 1_555 1_555
H29_5 C28_5 1_555 1_555
C29_4 C26_4 1_555 1_555
H30_6 C29_4 1_555 1_555
H31_4 C29_4 1_555 1_555
Mn5_2 O8_7 1_555 1_555
O8_7 C30_6 1_555 1_555
O9_6 Mn1_6 1_555 1_555
O10_6 Mn5_2 1_555 1_555
N7_6 Mn5_2 1_555 1_555
N8_6 Mn1_6 1_555 1_555
N11_4 C40_6 1_555 1_555
C30_6 C31_6 1_555 1_555
C31_6 H32_6 1_555 1_555
C32_6 C31_6 1_555 1_555
H33_6 C32_6 1_555 1_555
C33_6 C32_6 1_555 1_555
H34_6 C33_6 1_555 1_555
C34_6 C33_6 1_555 1_555
H35_6 C34_6 1_555 1_555
C35_6 C30_6 1_555 1_555
C36_6 O9_6 1_555 1_555
C37_6 O10_6 1_555 1_555
C38_6 C37_6 1_555 1_555
H36_6 C38_6 1_555 1_555
H37_6 C38_6 1_555 1_555
C39_6 C38_6 1_555 1_555
H38_6 C39_6 1_555 1_555
H39_6 C39_6 1_555 1_555
H40_6 C39_6 1_555 1_555
C41_6 C40_6 1_555 1_555
H42_6 C41_6 1_555 1_555
C42_6 C41_6 1_555 1_555
C43_6 C42_6 1_555 1_555
H43_6 C43_6 1_555 1_555
C44_6 N11_4 1_555 1_555
H44_6 C44_6 1_555 1_555
C45_6 C29_4 1_555 1_555
H45_6 C45_6 1_555 1_555
H46_6 C45_6 1_555 1_555
N2_6 C8_6 1_555 1_555
N2_6 Mn2_7 1_555 1_555
C5_4 C6_4 1_555 1_555
C6_4 C7_4 1_555 1_555
N10_3 C21_6 1_555 1_555
C18_7 C19_7 1_555 1_555
C19_7 C20_7 1_555 1_555
C27_5 C28_5 1_555 1_555
N7_6 N8_6 1_555 1_555
N7_6 C36_6 1_555 1_555
N8_6 C37_6 1_555 1_555
C34_6 C35_6 1_555 1_555
C35_6 C36_6 1_555 1_555
C42_6 C45_6 1_555 1_555
C43_6 C44_6 1_555 1_555
Mn1_7 O1_5 1_555 1_555
O1_5 C1_5 1_555 1_555
O2_6 C7_5 1_555 1_555
O3_7 Mn1_7 1_555 1_555
O4_7 Mn1_7 1_555 1_555
N1_7 Mn1_7 1_555 1_555
N2_7 N1_7 1_555 1_555
N3_7 C11_7 1_555 1_555
C1_5 C2_5 1_555 1_555
C2_5 H1_5 1_555 1_555
C3_5 C2_5 1_555 1_555
H2_5 C3_5 1_555 1_555
C4_5 C3_5 1_555 1_555
H3_5 C4_5 1_555 1_555
C5_5 C4_5 1_555 1_555
H4_5 C5_5 1_555 1_555
C6_5 C1_5 1_555 1_555
C7_5 N1_7 1_555 1_555
C8_7 O3_7 1_555 1_555
C9_8 C8_7 1_555 1_555
H5_8 C9_8 1_555 1_555
H6_8 C9_8 1_555 1_555
C10_7 C9_8 1_555 1_555
H7_7 C10_7 1_555 1_555
H8_6 C10_7 1_555 1_555
H9_7 C10_7 1_555 1_555
C11_7 O4_7 1_555 1_555
H10_7 C11_7 1_555 1_555
C12_5 N3_7 1_555 1_555
H11_5 C12_5 1_555 1_555
H12_5 C12_5 1_555 1_555
H13_5 C12_5 1_555 1_555
C13_7 N3_7 1_555 1_555
H14_7 C13_7 1_555 1_555
H15_7 C13_7 1_555 1_555
H16_7 C13_7 1_555 1_555
Mn2_8 O2_6 1_555 1_555
O5_6 Mn2_8 1_555 1_555
O6_5 C20_8 1_555 1_555
O7_7 Mn2_8 1_555 1_555
N4_8 Mn2_8 1_555 1_555
N5_5 N4_8 1_555 1_555
N6_6 Mn2_8 1_555 1_555
C14_6 O5_6 1_555 1_555
C15_6 C14_6 1_555 1_555
H17_6 C15_6 1_555 1_555
C16_6 C15_6 1_555 1_555
H18_6 C16_6 1_555 1_555
C17_8 C16_6 1_555 1_555
H19_8 C17_8 1_555 1_555
C18_8 C17_8 1_555 1_555
H20_8 C18_8 1_555 1_555
C19_8 C14_6 1_555 1_555
C20_8 N4_8 1_555 1_555
C21_7 O7_7 1_555 1_555
C22_7 C21_7 1_555 1_555
H21_7 C22_7 1_555 1_555
H22_7 C22_7 1_555 1_555
C23_7 C22_7 1_555 1_555
H23_7 C23_7 1_555 1_555
H24_7 C23_7 1_555 1_555
H25_7 C23_7 1_555 1_555
C24_5 N6_6 1_555 1_555
H26_5 C24_5 1_555 1_555
C25_5 C24_5 1_555 1_555
H27_5 C25_5 1_555 1_555
C26_5 C25_5 1_555 1_555
C27_6 C26_5 1_555 1_555
H28_6 C27_6 1_555 1_555
C28_6 N6_6 1_555 1_555
H29_6 C28_6 1_555 1_555
C29_5 C26_5 1_555 1_555
H30_7 C29_5 1_555 1_555
H31_5 C29_5 1_555 1_555
Mn3_4 O8_8 1_555 1_555
O8_8 C30_7 1_555 1_555
O9_7 Mn1_7 1_555 1_555
O10_7 Mn3_4 1_555 1_555
N7_7 Mn3_4 1_555 1_555
N8_7 Mn1_7 1_555 1_555
N9_3 C40_7 1_555 1_555
C30_7 C31_7 1_555 1_555
C31_7 H32_7 1_555 1_555
C32_7 C31_7 1_555 1_555
H33_7 C32_7 1_555 1_555
C33_7 C32_7 1_555 1_555
H34_7 C33_7 1_555 1_555
C34_7 C33_7 1_555 1_555
H35_7 C34_7 1_555 1_555
C35_7 C30_7 1_555 1_555
C36_7 O9_7 1_555 1_555
C37_7 O10_7 1_555 1_555
C38_7 C37_7 1_555 1_555
H36_7 C38_7 1_555 1_555
H37_7 C38_7 1_555 1_555
C39_7 C38_7 1_555 1_555
H38_7 C39_7 1_555 1_555
H39_7 C39_7 1_555 1_555
H40_7 C39_7 1_555 1_555
C41_7 C40_7 1_555 1_555
H42_7 C41_7 1_555 1_555
C42_7 C41_7 1_555 1_555
C43_7 C42_7 1_555 1_555
H43_7 C43_7 1_555 1_555
C44_7 N9_3 1_555 1_555
H44_7 C44_7 1_555 1_555
C45_7 C29_5 1_555 1_555
H45_7 C45_7 1_555 1_555
H46_7 C45_7 1_555 1_555
O11_4 Mn3_4 1_555 1_555
N10_4 Mn3_4 1_555 1_555
Mn4_3 O6_5 1_555 1_555
N11_5 Mn3_4 1_555 1_555
N2_7 C8_7 1_555 1_555
N2_7 Mn2_8 1_555 1_555
C5_5 C6_5 1_555 1_555
C6_5 C7_5 1_555 1_555
N5_5 C21_7 1_555 1_555
N5_5 Mn4_3 1_555 1_555
C18_8 C19_8 1_555 1_555
C19_8 C20_8 1_555 1_555
C27_6 C28_6 1_555 1_555
N7_7 N8_7 1_555 1_555
N7_7 C36_7 1_555 1_555
N8_7 C37_7 1_555 1_555
C34_7 C35_7 1_555 1_555
C35_7 C36_7 1_555 1_555
C42_7 C45_7 1_555 1_555
C43_7 C44_7 1_555 1_555
N9_4 C40_8 1_555 1_555
C40_8 H41_8 1_555 1_555
C41_8 C40_8 1_555 1_555
H42_8 C41_8 1_555 1_555
C42_8 C41_8 1_555 1_555
C43_8 C42_8 1_555 1_555
H43_8 C43_8 1_555 1_555
C44_8 N9_4 1_555 1_555
H44_8 C44_8 1_555 1_555
H45_8 C45_8 1_555 1_555
H46_8 C45_8 1_555 1_555
Mn4_3 N9_4 1_555 1_555
C42_8 C45_8 1_555 1_555
C43_8 C44_8 1_555 1_555
Mn3_5 O8_9 1_555 1_555
O8_9 C30_8 1_555 1_555
C30_8 C31_8 1_555 1_555
C31_8 H32_8 1_555 1_555
C32_8 C31_8 1_555 1_555
H33_8 C32_8 1_555 1_555
O11_5 Mn3_5 1_555 1_555
N10_5 Mn3_5 1_555 1_555
C2_6 H1_6 1_555 1_555
C3_6 C2_6 1_555 1_555
H2_6 C3_6 1_555 1_555
C4_6 C3_6 1_555 1_555
H3_6 C4_6 1_555 1_555
C5_6 C4_6 1_555 1_555
H4_6 C5_6 1_555 1_555
C37_8 O10_8 1_555 1_555
C38_8 C37_8 1_555 1_555
H36_8 C38_8 1_555 1_555
H37_8 C38_8 1_555 1_555
C39_8 C38_8 1_555 1_555
H38_8 C39_8 1_555 1_555
H39_8 C39_8 1_555 1_555
H40_8 C39_8 1_555 1_555
O3_8 Mn1_8 1_555 1_555
O4_8 Mn1_8 1_555 1_555
N1_8 Mn1_8 1_555 1_555
N2_8 N1_8 1_555 1_555
N3_8 C11_8 1_555 1_555
C8_8 O3_8 1_555 1_555
C9_9 C8_8 1_555 1_555
H5_9 C9_9 1_555 1_555
H6_9 C9_9 1_555 1_555
C10_8 C9_9 1_555 1_555
H7_8 C10_8 1_555 1_555
H8_7 C10_8 1_555 1_555
H9_9 C10_8 1_555 1_555
C11_8 O4_8 1_555 1_555
H10_8 C11_8 1_555 1_555
C13_8 N3_8 1_555 1_555
H14_8 C13_8 1_555 1_555
H15_8 C13_8 1_555 1_555
H16_8 C13_8 1_555 1_555
O11_4 C20_9 1_555 1_555
O7_8 Mn2_9 1_555 1_555
N4_9 Mn2_9 1_555 1_555
N10_4 N4_9 1_555 1_555
H19_9 C17_9 1_555 1_555
C18_9 C17_9 1_555 1_555
H20_9 C18_9 1_555 1_555
C20_9 N4_9 1_555 1_555
C21_8 O7_8 1_555 1_555
C22_8 C21_8 1_555 1_555
H21_8 C22_8 1_555 1_555
H22_8 C22_8 1_555 1_555
C23_8 C22_8 1_555 1_555
H23_8 C23_8 1_555 1_555
H24_8 C23_8 1_555 1_555
H25_8 C23_8 1_555 1_555
Mn4_3 O8_10 1_555 1_555
O8_10 C30_9 1_555 1_555
O9_8 Mn1_8 1_555 1_555
O10_9 Mn4_3 1_555 1_555
N7_8 Mn4_3 1_555 1_555
N8_8 Mn1_8 1_555 1_555
C30_9 C31_9 1_555 1_555
C31_9 H32_9 1_555 1_555
C32_9 C31_9 1_555 1_555
H33_9 C32_9 1_555 1_555
C33_8 C32_9 1_555 1_555
H34_8 C33_8 1_555 1_555
C34_8 C33_8 1_555 1_555
H35_8 C34_8 1_555 1_555
C35_8 C30_9 1_555 1_555
C36_8 O9_8 1_555 1_555
C37_9 O10_9 1_555 1_555
C38_9 C37_9 1_555 1_555
H36_9 C38_9 1_555 1_555
H37_9 C38_9 1_555 1_555
C39_9 C38_9 1_555 1_555
H38_9 C39_9 1_555 1_555
H39_9 C39_9 1_555 1_555
H40_9 C39_9 1_555 1_555
N2_8 C8_8 1_555 1_555
N2_8 Mn2_9 1_555 1_555
N10_4 C21_8 1_555 1_555
C18_9 C19_9 1_555 1_555
C19_9 C20_9 1_555 1_555
N7_8 N8_8 1_555 1_555
N7_8 C36_8 1_555 1_555
N8_8 C37_9 1_555 1_555
C34_8 C35_8 1_555 1_555
C35_8 C36_8 1_555 1_555
H5_10 C9_10 1_555 1_555
H6_10 C9_10 1_555 1_555
Mn2_10 O2_7 1_555 1_555
O5_7 Mn2_10 1_555 1_555
O11_5 C20_10 1_555 1_555
O7_9 Mn2_10 1_555 1_555
N4_10 Mn2_10 1_555 1_555
N10_5 N4_10 1_555 1_555
N6_7 Mn2_10 1_555 1_555
C14_7 O5_7 1_555 1_555
C15_7 C14_7 1_555 1_555
H17_7 C15_7 1_555 1_555
C16_7 C15_7 1_555 1_555
H18_7 C16_7 1_555 1_555
C17_10 C16_7 1_555 1_555
H19_10 C17_10 1_555 1_555
C18_10 C17_10 1_555 1_555
H20_10 C18_10 1_555 1_555
C19_10 C14_7 1_555 1_555
C20_10 N4_10 1_555 1_555
C21_9 O7_9 1_555 1_555
C22_9 C21_9 1_555 1_555
H21_9 C22_9 1_555 1_555
H22_9 C22_9 1_555 1_555
C23_9 C22_9 1_555 1_555
H23_9 C23_9 1_555 1_555
H24_9 C23_9 1_555 1_555
H25_9 C23_9 1_555 1_555
C24_6 N6_7 1_555 1_555
H26_6 C24_6 1_555 1_555
C25_6 C24_6 1_555 1_555
H27_6 C25_6 1_555 1_555
C26_6 C25_6 1_555 1_555
C27_7 C26_6 1_555 1_555
H28_7 C27_7 1_555 1_555
C28_7 N6_7 1_555 1_555
H29_7 C28_7 1_555 1_555
C29_6 C26_6 1_555 1_555
H30_9 C29_6 1_555 1_555
H31_6 C29_6 1_555 1_555
N11_5 C40_9 1_555 1_555
C40_9 H41_10 1_555 1_555
C41_9 C40_9 1_555 1_555
H42_9 C41_9 1_555 1_555
C42_9 C41_9 1_555 1_555
C43_9 C42_9 1_555 1_555
H43_9 C43_9 1_555 1_555
C44_9 N11_5 1_555 1_555
H44_9 C44_9 1_555 1_555
C45_9 C29_6 1_555 1_555
H45_9 C45_9 1_555 1_555
H46_9 C45_9 1_555 1_555
N10_5 C21_9 1_555 1_555
C18_10 C19_10 1_555 1_555
C19_10 C20_10 1_555 1_555
C27_7 C28_7 1_555 1_555
C42_9 C45_9 1_555 1_555
C43_9 C44_9 1_555 1_555
N9_5 C40_10 1_555 1_555
C40_10 H41_11 1_555 1_555
C41_10 C40_10 1_555 1_555
H42_10 C41_10 1_555 1_555
C42_10 C41_10 1_555 1_555
C43_10 C42_10 1_555 1_555
H43_10 C43_10 1_555 1_555
C44_10 N9_5 1_555 1_555
H44_10 C44_10 1_555 1_555
H45_10 C45_10 1_555 1_555
H46_10 C45_10 1_555 1_555
Mn5_3 N9_5 1_555 1_555
C42_10 C45_10 1_555 1_555
C43_10 C44_10 1_555 1_555
Mn1_9 O1_6 1_555 1_555
O1_6 C1_6 1_555 1_555
O2_8 C7_6 1_555 1_555
O3_9 Mn1_9 1_555 1_555
O4_9 Mn1_9 1_555 1_555
N1_9 Mn1_9 1_555 1_555
N2_9 N1_9 1_555 1_555
N3_9 C11_9 1_555 1_555
C1_6 C2_7 1_555 1_555
C2_7 H1_7 1_555 1_555
C3_7 C2_7 1_555 1_555
H2_7 C3_7 1_555 1_555
C4_7 C3_7 1_555 1_555
H3_7 C4_7 1_555 1_555
C5_7 C4_7 1_555 1_555
H4_7 C5_7 1_555 1_555
C6_6 C1_6 1_555 1_555
C7_6 N1_9 1_555 1_555
C8_9 O3_9 1_555 1_555
C9_11 C8_9 1_555 1_555
H5_11 C9_11 1_555 1_555
H6_11 C9_11 1_555 1_555
C10_9 C9_11 1_555 1_555
H7_9 C10_9 1_555 1_555
H8_8 C10_9 1_555 1_555
H9_10 C10_9 1_555 1_555
C11_9 O4_9 1_555 1_555
H10_9 C11_9 1_555 1_555
C12_6 N3_9 1_555 1_555
H11_6 C12_6 1_555 1_555
H12_6 C12_6 1_555 1_555
H13_6 C12_6 1_555 1_555
C13_9 N3_9 1_555 1_555
H14_9 C13_9 1_555 1_555
H15_9 C13_9 1_555 1_555
H16_9 C13_9 1_555 1_555
Mn2_11 O2_8 1_555 1_555
O5_8 Mn2_11 1_555 1_555
O6_6 C20_11 1_555 1_555
O7_10 Mn2_11 1_555 1_555
N4_11 Mn2_11 1_555 1_555
N5_6 N4_11 1_555 1_555
N6_8 Mn2_11 1_555 1_555
C14_8 O5_8 1_555 1_555
C15_8 C14_8 1_555 1_555
H17_8 C15_8 1_555 1_555
C16_8 C15_8 1_555 1_555
H18_8 C16_8 1_555 1_555
C17_11 C16_8 1_555 1_555
H19_11 C17_11 1_555 1_555
C18_11 C17_11 1_555 1_555
H20_11 C18_11 1_555 1_555
C19_11 C14_8 1_555 1_555
C20_11 N4_11 1_555 1_555
C21_10 O7_10 1_555 1_555
C22_10 C21_10 1_555 1_555
H21_10 C22_10 1_555 1_555
H22_10 C22_10 1_555 1_555
C23_10 C22_10 1_555 1_555
H23_10 C23_10 1_555 1_555
H24_10 C23_10 1_555 1_555
H25_10 C23_10 1_555 1_555
C24_7 N6_8 1_555 1_555
H26_7 C24_7 1_555 1_555
C25_7 C24_7 1_555 1_555
H27_7 C25_7 1_555 1_555
C26_7 C25_7 1_555 1_555
C27_8 C26_7 1_555 1_555
H28_8 C27_8 1_555 1_555
C28_8 N6_8 1_555 1_555
H29_8 C28_8 1_555 1_555
C29_7 C26_7 1_555 1_555
H30_11 C29_7 1_555 1_555
H31_7 C29_7 1_555 1_555
Mn3_6 O8_11 1_555 1_555
O8_11 C30_10 1_555 1_555
O9_9 Mn1_9 1_555 1_555
O10_10 Mn3_6 1_555 1_555
N7_9 Mn3_6 1_555 1_555
N8_9 Mn1_9 1_555 1_555
N9_6 C40_11 1_555 1_555
C30_10 C31_10 1_555 1_555
C31_10 H32_10 1_555 1_555
C32_10 C31_10 1_555 1_555
H33_10 C32_10 1_555 1_555
C33_9 C32_10 1_555 1_555
H34_9 C33_9 1_555 1_555
C34_9 C33_9 1_555 1_555
H35_9 C34_9 1_555 1_555
C35_9 C30_10 1_555 1_555
C36_9 O9_9 1_555 1_555
C37_10 O10_10 1_555 1_555
C38_10 C37_10 1_555 1_555
H36_10 C38_10 1_555 1_555
H37_10 C38_10 1_555 1_555
C39_10 C38_10 1_555 1_555
H38_10 C39_10 1_555 1_555
H39_10 C39_10 1_555 1_555
H40_10 C39_10 1_555 1_555
C41_11 C40_11 1_555 1_555
H42_11 C41_11 1_555 1_555
C42_11 C41_11 1_555 1_555
C43_11 C42_11 1_555 1_555
H43_11 C43_11 1_555 1_555
C44_11 N9_6 1_555 1_555
H44_11 C44_11 1_555 1_555
C45_11 C29_7 1_555 1_555
H45_11 C45_11 1_555 1_555
H46_11 C45_11 1_555 1_555
O11_6 Mn3_6 1_555 1_555
N10_6 Mn3_6 1_555 1_555
Mn5_3 O6_6 1_555 1_555
N11_6 Mn3_6 1_555 1_555
N2_9 C8_9 1_555 1_555
N2_9 Mn2_11 1_555 1_555
C5_7 C6_6 1_555 1_555
C6_6 C7_6 1_555 1_555
N5_6 C21_10 1_555 1_555
N5_6 Mn5_3 1_555 1_555
C18_11 C19_11 1_555 1_555
C19_11 C20_11 1_555 1_555
C27_8 C28_8 1_555 1_555
N7_9 N8_9 1_555 1_555
N7_9 C36_9 1_555 1_555
N8_9 C37_10 1_555 1_555
C34_9 C35_9 1_555 1_555
C35_9 C36_9 1_555 1_555
C42_11 C45_11 1_555 1_555
C43_11 C44_11 1_555 1_555
C21_11 O7_11 1_555 1_555
C22_11 C21_11 1_555 1_555
H21_11 C22_11 1_555 1_555
H22_11 C22_11 1_555 1_555
C23_11 C22_11 1_555 1_555
H23_11 C23_11 1_555 1_555
H24_11 C23_11 1_555 1_555
H25_11 C23_11 1_555 1_555
H26_8 C24_8 1_555 1_555
C25_8 C24_8 1_555 1_555
H27_8 C25_8 1_555 1_555
C26_8 C25_8 1_555 1_555
C29_8 C26_8 1_555 1_555
H30_12 C29_8 1_555 1_555
H31_8 C29_8 1_555 1_555
N11_6 C40_12 1_555 1_555
C40_12 H41_12 1_555 1_555
C41_12 C40_12 1_555 1_555
H42_12 C41_12 1_555 1_555
C42_12 C41_12 1_555 1_555
C43_12 C42_12 1_555 1_555
H43_12 C43_12 1_555 1_555
C44_12 N11_6 1_555 1_555
H44_12 C44_12 1_555 1_555
C45_12 C29_8 1_555 1_555
H45_12 C45_12 1_555 1_555
H46_12 C45_12 1_555 1_555
C42_12 C45_12 1_555 1_555
C43_12 C44_12 1_555 1_555
O3_10 Mn1_10 1_555 1_555
O4_10 Mn1_10 1_555 1_555
N1_10 Mn1_10 1_555 1_555
N2_10 N1_10 1_555 1_555
N3_10 C11_10 1_555 1_555
C8_10 O3_10 1_555 1_555
C9_12 C8_10 1_555 1_555
H5_12 C9_12 1_555 1_555
H6_12 C9_12 1_555 1_555
C10_10 C9_12 1_555 1_555
H7_10 C10_10 1_555 1_555
H8_9 C10_10 1_555 1_555
H9_11 C10_10 1_555 1_555
C11_10 O4_10 1_555 1_555
H10_10 C11_10 1_555 1_555
C13_10 N3_10 1_555 1_555
H14_10 C13_10 1_555 1_555
H15_10 C13_10 1_555 1_555
H16_10 C13_10 1_555 1_555
O11_6 C20_12 1_555 1_555
O7_12 Mn2_12 1_555 1_555
N4_12 Mn2_12 1_555 1_555
N10_6 N4_12 1_555 1_555
H19_12 C17_12 1_555 1_555
C18_12 C17_12 1_555 1_555
H20_12 C18_12 1_555 1_555
C20_12 N4_12 1_555 1_555
C21_12 O7_12 1_555 1_555
C22_12 C21_12 1_555 1_555
H21_12 C22_12 1_555 1_555
H22_12 C22_12 1_555 1_555
C23_12 C22_12 1_555 1_555
H23_12 C23_12 1_555 1_555
H24_12 C23_12 1_555 1_555
H25_12 C23_12 1_555 1_555
Mn5_3 O8_12 1_555 1_555
O8_12 C30_11 1_555 1_555
O9_10 Mn1_10 1_555 1_555
O10_11 Mn5_3 1_555 1_555
N7_10 Mn5_3 1_555 1_555
N8_10 Mn1_10 1_555 1_555
C30_11 C31_11 1_555 1_555
C31_11 H32_11 1_555 1_555
C32_11 C31_11 1_555 1_555
H33_11 C32_11 1_555 1_555
C33_10 C32_11 1_555 1_555
H34_10 C33_10 1_555 1_555
C34_10 C33_10 1_555 1_555
H35_10 C34_10 1_555 1_555
C35_10 C30_11 1_555 1_555
C36_10 O9_10 1_555 1_555
C37_11 O10_11 1_555 1_555
C38_11 C37_11 1_555 1_555
H36_11 C38_11 1_555 1_555
H37_11 C38_11 1_555 1_555
C39_11 C38_11 1_555 1_555
H38_11 C39_11 1_555 1_555
H39_11 C39_11 1_555 1_555
H40_11 C39_11 1_555 1_555
N2_10 C8_10 1_555 1_555
N2_10 Mn2_12 1_555 1_555
N10_6 C21_12 1_555 1_555
C18_12 C19_12 1_555 1_555
C19_12 C20_12 1_555 1_555
N7_10 N8_10 1_555 1_555
N7_10 C36_10 1_555 1_555
N8_10 C37_11 1_555 1_555
C34_10 C35_10 1_555 1_555
C35_10 C36_10 1_555 1_555
Mn1_11 O1_7 1_555 1_555
O1_7 C1_7 1_555 1_555
O3_11 Mn1_11 1_555 1_555
O4_11 Mn1_11 1_555 1_555
N1_11 Mn1_11 1_555 1_555
N2_11 N1_11 1_555 1_555
N3_11 C11_11 1_555 1_555
C1_7 C2_8 1_555 1_555
C2_8 H1_8 1_555 1_555
C3_8 C2_8 1_555 1_555
H2_8 C3_8 1_555 1_555
C4_8 C3_8 1_555 1_555
H3_8 C4_8 1_555 1_555
C5_8 C4_8 1_555 1_555
H4_8 C5_8 1_555 1_555
C6_7 C1_7 1_555 1_555
C7_7 N1_11 1_555 1_555
C8_11 O3_11 1_555 1_555
H7_11 C10_11 1_555 1_555
C11_11 O4_11 1_555 1_555
H10_11 C11_11 1_555 1_555
C12_7 N3_11 1_555 1_555
H11_7 C12_7 1_555 1_555
H12_7 C12_7 1_555 1_555
H13_7 C12_7 1_555 1_555
C13_11 N3_11 1_555 1_555
H14_11 C13_11 1_555 1_555
H15_11 C13_11 1_555 1_555
H16_11 C13_11 1_555 1_555
O9_11 Mn1_11 1_555 1_555
N8_11 Mn1_11 1_555 1_555
H34_11 C33_11 1_555 1_555
C34_11 C33_11 1_555 1_555
H35_11 C34_11 1_555 1_555
C36_11 O9_11 1_555 1_555
C37_12 O10_12 1_555 1_555
C38_12 C37_12 1_555 1_555
H36_12 C38_12 1_555 1_555
H37_12 C38_12 1_555 1_555
C39_12 C38_12 1_555 1_555
H38_12 C39_12 1_555 1_555
H39_12 C39_12 1_555 1_555
H40_12 C39_12 1_555 1_555
N2_11 C8_11 1_555 1_555
C5_8 C6_7 1_555 1_555
C6_7 C7_7 1_555 1_555
N7_11 N8_11 1_555 1_555
N7_11 C36_11 1_555 1_555
N8_11 C37_12 1_555 1_555
C34_11 C35_11 1_555 1_555
C35_11 C36_11 1_555 1_555
Mn1_12 O1_8 1_555 1_555
O1_8 C1_8 1_555 1_555
O2_9 C7_8 1_555 1_555
O3_12 Mn1_12 1_555 1_555
O4_12 Mn1_12 1_555 1_555
N1_12 Mn1_12 1_555 1_555
N2_12 N1_12 1_555 1_555
N3_12 C11_12 1_555 1_555
C1_8 C2_9 1_555 1_555
C2_9 H1_9 1_555 1_555
C3_9 C2_9 1_555 1_555
H2_9 C3_9 1_555 1_555
C4_9 C3_9 1_555 1_555
H3_9 C4_9 1_555 1_555
C5_9 C4_9 1_555 1_555
H4_9 C5_9 1_555 1_555
C6_8 C1_8 1_555 1_555
C7_8 N1_12 1_555 1_555
C8_12 O3_12 1_555 1_555
C9_13 C8_12 1_555 1_555
H5_13 C9_13 1_555 1_555
H6_13 C9_13 1_555 1_555
C10_12 C9_13 1_555 1_555
H7_12 C10_12 1_555 1_555
H8_10 C10_12 1_555 1_555
H9_12 C10_12 1_555 1_555
C11_12 O4_12 1_555 1_555
H10_12 C11_12 1_555 1_555
C12_8 N3_12 1_555 1_555
H11_8 C12_8 1_555 1_555
H12_8 C12_8 1_555 1_555
H13_8 C12_8 1_555 1_555
C13_12 N3_12 1_555 1_555
H14_12 C13_12 1_555 1_555
H15_12 C13_12 1_555 1_555
H16_12 C13_12 1_555 1_555
Mn2_13 O2_9 1_555 1_555
O5_9 Mn2_13 1_555 1_555
O6_7 C20_13 1_555 1_555
O7_13 Mn2_13 1_555 1_555
N4_13 Mn2_13 1_555 1_555
N5_7 N4_13 1_555 1_555
N6_9 Mn2_13 1_555 1_555
C14_9 O5_9 1_555 1_555
C15_9 C14_9 1_555 1_555
H17_9 C15_9 1_555 1_555
C16_9 C15_9 1_555 1_555
H18_9 C16_9 1_555 1_555
C17_13 C16_9 1_555 1_555
H19_13 C17_13 1_555 1_555
C18_13 C17_13 1_555 1_555
H20_13 C18_13 1_555 1_555
C19_13 C14_9 1_555 1_555
C20_13 N4_13 1_555 1_555
C21_13 O7_13 1_555 1_555
C22_13 C21_13 1_555 1_555
H21_13 C22_13 1_555 1_555
H22_13 C22_13 1_555 1_555
C23_13 C22_13 1_555 1_555
H23_13 C23_13 1_555 1_555
H24_13 C23_13 1_555 1_555
H25_13 C23_13 1_555 1_555
C24_9 N6_9 1_555 1_555
H26_9 C24_9 1_555 1_555
C25_9 C24_9 1_555 1_555
H27_9 C25_9 1_555 1_555
C26_9 C25_9 1_555 1_555
C27_9 C26_9 1_555 1_555
H28_9 C27_9 1_555 1_555
C28_9 N6_9 1_555 1_555
H29_9 C28_9 1_555 1_555
C29_9 C26_9 1_555 1_555
H31_9 C29_9 1_555 1_555
Mn3_7 O8_13 1_555 1_555
O8_13 C30_12 1_555 1_555
O9_12 Mn1_12 1_555 1_555
O10_13 Mn3_7 1_555 1_555
N7_12 Mn3_7 1_555 1_555
N8_12 Mn1_12 1_555 1_555
C30_12 C31_12 1_555 1_555
C31_12 H32_12 1_555 1_555
C32_12 C31_12 1_555 1_555
H33_12 C32_12 1_555 1_555
C33_12 C32_12 1_555 1_555
H34_12 C33_12 1_555 1_555
C34_12 C33_12 1_555 1_555
H35_12 C34_12 1_555 1_555
C35_12 C30_12 1_555 1_555
C36_12 O9_12 1_555 1_555
C37_13 O10_13 1_555 1_555
C38_13 C37_13 1_555 1_555
H36_13 C38_13 1_555 1_555
H37_13 C38_13 1_555 1_555
C39_13 C38_13 1_555 1_555
H38_13 C39_13 1_555 1_555
H39_13 C39_13 1_555 1_555
H40_13 C39_13 1_555 1_555
O11_7 Mn3_7 1_555 1_555
N10_7 Mn3_7 1_555 1_555
Mn4_4 O6_7 1_555 1_555
N11_7 Mn3_7 1_555 1_555
N2_12 C8_12 1_555 1_555
N2_12 Mn2_13 1_555 1_555
C5_9 C6_8 1_555 1_555
C6_8 C7_8 1_555 1_555
N5_7 C21_13 1_555 1_555
N5_7 Mn4_4 1_555 1_555
C18_13 C19_13 1_555 1_555
C19_13 C20_13 1_555 1_555
C27_9 C28_9 1_555 1_555
N7_12 N8_12 1_555 1_555
N7_12 C36_12 1_555 1_555
N8_12 C37_13 1_555 1_555
C34_12 C35_12 1_555 1_555
C35_12 C36_12 1_555 1_555
O1_9 C1_9 1_555 1_555
O2_10 C7_9 1_555 1_555
C1_9 C2_10 1_555 1_555
C2_10 H1_10 1_555 1_555
C3_10 C2_10 1_555 1_555
H2_10 C3_10 1_555 1_555
C4_10 C3_10 1_555 1_555
H3_10 C4_10 1_555 1_555
C5_10 C4_10 1_555 1_555
H4_10 C5_10 1_555 1_555
C6_9 C1_9 1_555 1_555
H11_9 C12_9 1_555 1_555
H12_9 C12_9 1_555 1_555
H13_9 C12_9 1_555 1_555
C14_10 O5_10 1_555 1_555
C15_10 C14_10 1_555 1_555
H17_10 C15_10 1_555 1_555
C16_10 C15_10 1_555 1_555
H18_10 C16_10 1_555 1_555
C24_10 N6_10 1_555 1_555
H26_10 C24_10 1_555 1_555
C25_10 C24_10 1_555 1_555
H27_10 C25_10 1_555 1_555
C26_10 C25_10 1_555 1_555
C27_10 C26_10 1_555 1_555
H28_10 C27_10 1_555 1_555
C28_10 N6_10 1_555 1_555
H29_10 C28_10 1_555 1_555
C29_10 C26_10 1_555 1_555
H30_13 C29_10 1_555 1_555
H31_10 C29_10 1_555 1_555
N9_7 C40_13 1_555 1_555
C40_13 H41_13 1_555 1_555
C41_13 C40_13 1_555 1_555
H42_13 C41_13 1_555 1_555
C42_13 C41_13 1_555 1_555
C43_13 C42_13 1_555 1_555
H43_13 C43_13 1_555 1_555
C44_13 N9_7 1_555 1_555
H44_13 C44_13 1_555 1_555
C45_13 C29_10 1_555 1_555
H45_13 C45_13 1_555 1_555
H46_13 C45_13 1_555 1_555
Mn4_4 N9_7 1_555 1_555
C5_10 C6_9 1_555 1_555
C6_9 C7_9 1_555 1_555
C27_10 C28_10 1_555 1_555
C42_13 C45_13 1_555 1_555
C43_13 C44_13 1_555 1_555
Mn1_13 O1_10 1_555 1_555
O1_10 C1_10 1_555 1_555
O2_11 C7_10 1_555 1_555
O3_13 Mn1_13 1_555 1_555
O4_13 Mn1_13 1_555 1_555
N1_13 Mn1_13 1_555 1_555
N2_13 N1_13 1_555 1_555
N3_13 C11_13 1_555 1_555
C1_10 C2_11 1_555 1_555
C2_11 H1_11 1_555 1_555
C3_11 C2_11 1_555 1_555
H2_11 C3_11 1_555 1_555
C4_11 C3_11 1_555 1_555
H3_11 C4_11 1_555 1_555
C5_11 C4_11 1_555 1_555
H4_11 C5_11 1_555 1_555
C6_10 C1_10 1_555 1_555
C7_10 N1_13 1_555 1_555
C8_13 O3_13 1_555 1_555
C9_14 C8_13 1_555 1_555
H5_14 C9_14 1_555 1_555
H6_14 C9_14 1_555 1_555
C10_13 C9_14 1_555 1_555
H7_13 C10_13 1_555 1_555
H8_11 C10_13 1_555 1_555
H9_13 C10_13 1_555 1_555
C11_13 O4_13 1_555 1_555
H10_13 C11_13 1_555 1_555
C12_10 N3_13 1_555 1_555
H11_10 C12_10 1_555 1_555
H12_10 C12_10 1_555 1_555
H13_10 C12_10 1_555 1_555
C13_13 N3_13 1_555 1_555
H14_13 C13_13 1_555 1_555
H15_13 C13_13 1_555 1_555
H16_13 C13_13 1_555 1_555
Mn2_14 O2_11 1_555 1_555
O5_11 Mn2_14 1_555 1_555
O11_7 C20_14 1_555 1_555
O7_14 Mn2_14 1_555 1_555
N4_14 Mn2_14 1_555 1_555
N10_7 N4_14 1_555 1_555
N6_11 Mn2_14 1_555 1_555
C14_11 O5_11 1_555 1_555
C15_11 C14_11 1_555 1_555
H17_11 C15_11 1_555 1_555
C16_11 C15_11 1_555 1_555
H18_11 C16_11 1_555 1_555
C17_14 C16_11 1_555 1_555
H19_14 C17_14 1_555 1_555
C18_14 C17_14 1_555 1_555
H20_14 C18_14 1_555 1_555
C19_14 C14_11 1_555 1_555
C20_14 N4_14 1_555 1_555
C21_14 O7_14 1_555 1_555
C22_14 C21_14 1_555 1_555
H21_14 C22_14 1_555 1_555
H22_14 C22_14 1_555 1_555
C23_14 C22_14 1_555 1_555
H23_14 C23_14 1_555 1_555
H24_14 C23_14 1_555 1_555
H25_14 C23_14 1_555 1_555
C24_11 N6_11 1_555 1_555
H26_11 C24_11 1_555 1_555
C25_11 C24_11 1_555 1_555
H27_11 C25_11 1_555 1_555
C26_11 C25_11 1_555 1_555
C27_11 C26_11 1_555 1_555
H28_11 C27_11 1_555 1_555
C28_11 N6_11 1_555 1_555
H29_11 C28_11 1_555 1_555
C29_11 C26_11 1_555 1_555
H31_11 C29_11 1_555 1_555
Mn4_4 O8_14 1_555 1_555
O8_14 C30_13 1_555 1_555
O9_13 Mn1_13 1_555 1_555
O10_14 Mn4_4 1_555 1_555
N7_13 Mn4_4 1_555 1_555
N8_13 Mn1_13 1_555 1_555
C30_13 C31_13 1_555 1_555
C31_13 H32_13 1_555 1_555
C32_13 C31_13 1_555 1_555
H33_13 C32_13 1_555 1_555
C33_13 C32_13 1_555 1_555
H34_13 C33_13 1_555 1_555
C34_13 C33_13 1_555 1_555
H35_13 C34_13 1_555 1_555
C35_13 C30_13 1_555 1_555
C36_13 O9_13 1_555 1_555
C37_14 O10_14 1_555 1_555
C38_14 C37_14 1_555 1_555
H36_14 C38_14 1_555 1_555
H37_14 C38_14 1_555 1_555
C39_14 C38_14 1_555 1_555
H38_14 C39_14 1_555 1_555
H39_14 C39_14 1_555 1_555
H40_14 C39_14 1_555 1_555
N2_13 C8_13 1_555 1_555
N2_13 Mn2_14 1_555 1_555
C5_11 C6_10 1_555 1_555
C6_10 C7_10 1_555 1_555
N10_7 C21_14 1_555 1_555
C18_14 C19_14 1_555 1_555
C19_14 C20_14 1_555 1_555
C27_11 C28_11 1_555 1_555
N7_13 N8_13 1_555 1_555
N7_13 C36_13 1_555 1_555
N8_13 C37_14 1_555 1_555
C34_13 C35_13 1_555 1_555
C35_13 C36_13 1_555 1_555
O1_11 C1_11 1_555 1_555
O2_12 C7_11 1_555 1_555
C1_11 C2_12 1_555 1_555
C2_12 H1_12 1_555 1_555
C3_12 C2_12 1_555 1_555
H2_12 C3_12 1_555 1_555
C4_12 C3_12 1_555 1_555
H3_12 C4_12 1_555 1_555
C5_12 C4_12 1_555 1_555
H4_12 C5_12 1_555 1_555
C6_11 C1_11 1_555 1_555
H11_11 C12_11 1_555 1_555
H12_11 C12_11 1_555 1_555
H13_11 C12_11 1_555 1_555
C14_12 O5_12 1_555 1_555
C15_12 C14_12 1_555 1_555
H17_12 C15_12 1_555 1_555
C16_12 C15_12 1_555 1_555
H18_12 C16_12 1_555 1_555
C24_12 N6_12 1_555 1_555
H26_12 C24_12 1_555 1_555
C25_12 C24_12 1_555 1_555
H27_12 C25_12 1_555 1_555
C26_12 C25_12 1_555 1_555
C27_12 C26_12 1_555 1_555
H28_12 C27_12 1_555 1_555
C28_12 N6_12 1_555 1_555
H29_12 C28_12 1_555 1_555
C29_12 C26_12 1_555 1_555
H30_14 C29_12 1_555 1_555
H31_12 C29_12 1_555 1_555
N11_7 C40_14 1_555 1_555
C40_14 H41_14 1_555 1_555
C41_14 C40_14 1_555 1_555
H42_14 C41_14 1_555 1_555
C42_14 C41_14 1_555 1_555
C43_14 C42_14 1_555 1_555
H43_14 C43_14 1_555 1_555
C44_14 N11_7 1_555 1_555
H44_14 C44_14 1_555 1_555
C45_14 C29_12 1_555 1_555
H45_14 C45_14 1_555 1_555
H46_14 C45_14 1_555 1_555
C5_12 C6_11 1_555 1_555
C6_11 C7_11 1_555 1_555
C27_12 C28_12 1_555 1_555
C42_14 C45_14 1_555 1_555
C43_14 C44_14 1_555 1_555
C2_13 H1_13 1_555 1_555
C3_13 C2_13 1_555 1_555
H2_13 C3_13 1_555 1_555
C4_13 C3_13 1_555 1_555
H3_13 C4_13 1_555 1_555
C5_13 C4_13 1_555 1_555
H4_13 C5_13 1_555 1_555
C21_15 O7_15 1_555 1_555
C22_15 C21_15 1_555 1_555
H21_15 C22_15 1_555 1_555
H22_15 C22_15 1_555 1_555
C23_15 C22_15 1_555 1_555
H23_15 C23_15 1_555 1_555
H24_15 C23_15 1_555 1_555
H25_15 C23_15 1_555 1_555
H26_13 C24_13 1_555 1_555
C25_13 C24_13 1_555 1_555
H27_13 C25_13 1_555 1_555
C26_13 C25_13 1_555 1_555
C29_13 C26_13 1_555 1_555
H31_13 C29_13 1_555 1_555
Mn3_8 O8_15 1_555 1_555
O10_15 Mn3_8 1_555 1_555
C37_15 O10_15 1_555 1_555
C38_15 C37_15 1_555 1_555
H36_15 C38_15 1_555 1_555
H37_15 C38_15 1_555 1_555
C39_15 C38_15 1_555 1_555
H38_15 C39_15 1_555 1_555
H39_15 C39_15 1_555 1_555
H40_15 C39_15 1_555 1_555
O11_8 Mn3_8 1_555 1_555
N10_8 Mn3_8 1_555 1_555
N11_8 Mn3_8 1_555 1_555
Mn1_14 O1_12 1_555 1_555
O1_12 C1_12 1_555 1_555
O2_13 C7_12 1_555 1_555
O3_14 Mn1_14 1_555 1_555
O4_14 Mn1_14 1_555 1_555
N1_14 Mn1_14 1_555 1_555
N2_14 N1_14 1_555 1_555
N3_14 C11_14 1_555 1_555
C6_12 C1_12 1_555 1_555
C7_12 N1_14 1_555 1_555
C8_14 O3_14 1_555 1_555
C9_15 C8_14 1_555 1_555
H5_15 C9_15 1_555 1_555
H6_15 C9_15 1_555 1_555
C10_14 C9_15 1_555 1_555
H7_14 C10_14 1_555 1_555
H8_12 C10_14 1_555 1_555
H9_14 C10_14 1_555 1_555
C11_14 O4_14 1_555 1_555
H10_14 C11_14 1_555 1_555
C12_12 N3_14 1_555 1_555
H11_12 C12_12 1_555 1_555
H12_12 C12_12 1_555 1_555
H13_12 C12_12 1_555 1_555
C13_14 N3_14 1_555 1_555
H14_14 C13_14 1_555 1_555
H15_14 C13_14 1_555 1_555
H16_14 C13_14 1_555 1_555
Mn2_15 O2_13 1_555 1_555
O5_13 Mn2_15 1_555 1_555
O11_8 C20_15 1_555 1_555
N4_15 Mn2_15 1_555 1_555
N10_8 N4_15 1_555 1_555
N6_13 Mn2_15 1_555 1_555
C14_13 O5_13 1_555 1_555
C15_13 C14_13 1_555 1_555
H17_13 C15_13 1_555 1_555
C16_13 C15_13 1_555 1_555
H18_13 C16_13 1_555 1_555
C17_15 C16_13 1_555 1_555
H19_15 C17_15 1_555 1_555
C18_15 C17_15 1_555 1_555
H20_15 C18_15 1_555 1_555
C19_15 C14_13 1_555 1_555
C20_15 N4_15 1_555 1_555
H28_13 C27_13 1_555 1_555
C28_13 N6_13 1_555 1_555
H29_13 C28_13 1_555 1_555
O9_14 Mn1_14 1_555 1_555
N8_14 Mn1_14 1_555 1_555
C30_14 C31_14 1_555 1_555
C31_14 H32_14 1_555 1_555
C32_14 C31_14 1_555 1_555
H33_14 C32_14 1_555 1_555
C33_14 C32_14 1_555 1_555
H34_14 C33_14 1_555 1_555
C34_14 C33_14 1_555 1_555
H35_14 C34_14 1_555 1_555
C35_14 C30_14 1_555 1_555
C36_14 O9_14 1_555 1_555
N2_14 C8_14 1_555 1_555
N2_14 Mn2_15 1_555 1_555
C6_12 C7_12 1_555 1_555
C18_15 C19_15 1_555 1_555
C19_15 C20_15 1_555 1_555
C27_13 C28_13 1_555 1_555
N7_14 N8_14 1_555 1_555
N7_14 C36_14 1_555 1_555
C34_14 C35_14 1_555 1_555
C35_14 C36_14 1_555 1_555
O1_13 C1_13 1_555 1_555
O2_14 C7_13 1_555 1_555
C1_13 C2_14 1_555 1_555
C2_14 H1_14 1_555 1_555
C3_14 C2_14 1_555 1_555
H2_14 C3_14 1_555 1_555
C4_14 C3_14 1_555 1_555
H3_14 C4_14 1_555 1_555
C5_14 C4_14 1_555 1_555
H4_14 C5_14 1_555 1_555
C6_13 C1_13 1_555 1_555
H11_13 C12_13 1_555 1_555
H12_13 C12_13 1_555 1_555
H13_13 C12_13 1_555 1_555
C14_14 O5_14 1_555 1_555
C15_14 C14_14 1_555 1_555
H17_14 C15_14 1_555 1_555
C16_14 C15_14 1_555 1_555
H18_14 C16_14 1_555 1_555
C24_14 N6_14 1_555 1_555
H26_14 C24_14 1_555 1_555
C25_14 C24_14 1_555 1_555
H27_14 C25_14 1_555 1_555
C26_14 C25_14 1_555 1_555
C27_14 C26_14 1_555 1_555
H28_14 C27_14 1_555 1_555
C28_14 N6_14 1_555 1_555
H29_14 C28_14 1_555 1_555
C29_14 C26_14 1_555 1_555
H30_15 C29_14 1_555 1_555
H31_14 C29_14 1_555 1_555
N11_8 C40_15 1_555 1_555
C40_15 H41_15 1_555 1_555
C41_15 C40_15 1_555 1_555
H42_15 C41_15 1_555 1_555
C42_15 C41_15 1_555 1_555
C43_15 C42_15 1_555 1_555
H43_15 C43_15 1_555 1_555
C44_15 N11_8 1_555 1_555
H44_15 C44_15 1_555 1_555
C45_15 C29_14 1_555 1_555
H45_15 C45_15 1_555 1_555
H46_15 C45_15 1_555 1_555
C5_14 C6_13 1_555 1_555
C6_13 C7_13 1_555 1_555
C27_14 C28_14 1_555 1_555
C42_15 C45_15 1_555 1_555
C43_15 C44_15 1_555 1_555
Mn1_15 O1_14 1_555 1_555
O1_14 C1_14 1_555 1_555
O2_15 C7_14 1_555 1_555
O3_15 Mn1_15 1_555 1_555
O4_15 Mn1_15 1_555 1_555
N1_15 Mn1_15 1_555 1_555
N2_15 N1_15 1_555 1_555
N3_15 C11_15 1_555 1_555
C6_14 C1_14 1_555 1_555
C7_14 N1_15 1_555 1_555
C8_15 O3_15 1_555 1_555
C9_16 C8_15 1_555 1_555
H5_16 C9_16 1_555 1_555
H6_16 C9_16 1_555 1_555
C10_15 C9_16 1_555 1_555
H7_15 C10_15 1_555 1_555
H8_13 C10_15 1_555 1_555
H9_15 C10_15 1_555 1_555
C11_15 O4_15 1_555 1_555
H10_15 C11_15 1_555 1_555
C12_14 N3_15 1_555 1_555
H11_14 C12_14 1_555 1_555
H12_14 C12_14 1_555 1_555
H13_14 C12_14 1_555 1_555
C13_15 N3_15 1_555 1_555
H14_15 C13_15 1_555 1_555
H15_15 C13_15 1_555 1_555
H16_15 C13_15 1_555 1_555
Mn2_16 O2_15 1_555 1_555
O5_15 Mn2_16 1_555 1_555
O6_8 C20_16 1_555 1_555
N4_16 Mn2_16 1_555 1_555
N5_8 N4_16 1_555 1_555
N6_15 Mn2_16 1_555 1_555
C14_15 O5_15 1_555 1_555
C15_15 C14_15 1_555 1_555
H17_15 C15_15 1_555 1_555
C16_15 C15_15 1_555 1_555
H18_15 C16_15 1_555 1_555
C17_16 C16_15 1_555 1_555
H19_16 C17_16 1_555 1_555
C18_16 C17_16 1_555 1_555
H20_16 C18_16 1_555 1_555
C19_16 C14_15 1_555 1_555
C20_16 N4_16 1_555 1_555
H28_15 C27_15 1_555 1_555
C28_15 N6_15 1_555 1_555
H29_15 C28_15 1_555 1_555
O9_15 Mn1_15 1_555 1_555
N8_15 Mn1_15 1_555 1_555
C30_15 C31_15 1_555 1_555
C31_15 H32_15 1_555 1_555
C32_15 C31_15 1_555 1_555
H33_15 C32_15 1_555 1_555
C33_15 C32_15 1_555 1_555
H34_15 C33_15 1_555 1_555
C34_15 C33_15 1_555 1_555
H35_15 C34_15 1_555 1_555
C35_15 C30_15 1_555 1_555
C36_15 O9_15 1_555 1_555
Mn4_5 O6_8 1_555 1_555
N2_15 C8_15 1_555 1_555
N2_15 Mn2_16 1_555 1_555
C6_14 C7_14 1_555 1_555
N5_8 Mn4_5 1_555 1_555
C18_16 C19_16 1_555 1_555
C19_16 C20_16 1_555 1_555
C27_15 C28_15 1_555 1_555
N7_15 N8_15 1_555 1_555
N7_15 C36_15 1_555 1_555
C34_15 C35_15 1_555 1_555
C35_15 C36_15 1_555 1_555
O1_15 C1_15 1_555 1_555
O2_16 C7_15 1_555 1_555
C1_15 C2_15 1_555 1_555
C2_15 H1_15 1_555 1_555
C3_15 C2_15 1_555 1_555
H2_15 C3_15 1_555 1_555
C4_15 C3_15 1_555 1_555
H3_15 C4_15 1_555 1_555
C5_15 C4_15 1_555 1_555
H4_15 C5_15 1_555 1_555
C6_15 C1_15 1_555 1_555
H11_15 C12_15 1_555 1_555
H12_15 C12_15 1_555 1_555
H13_15 C12_15 1_555 1_555
C14_16 O5_16 1_555 1_555
C15_16 C14_16 1_555 1_555
H17_16 C15_16 1_555 1_555
C16_16 C15_16 1_555 1_555
H18_16 C16_16 1_555 1_555
C24_15 N6_16 1_555 1_555
H26_15 C24_15 1_555 1_555
C25_15 C24_15 1_555 1_555
H27_15 C25_15 1_555 1_555
C26_15 C25_15 1_555 1_555
C27_16 C26_15 1_555 1_555
H28_16 C27_16 1_555 1_555
C28_16 N6_16 1_555 1_555
H29_16 C28_16 1_555 1_555
C29_15 C26_15 1_555 1_555
H30_16 C29_15 1_555 1_555
H31_15 C29_15 1_555 1_555
N9_8 C40_16 1_555 1_555
C40_16 H41_16 1_555 1_555
C41_16 C40_16 1_555 1_555
H42_16 C41_16 1_555 1_555
C42_16 C41_16 1_555 1_555
C43_16 C42_16 1_555 1_555
H43_16 C43_16 1_555 1_555
C44_16 N9_8 1_555 1_555
H44_16 C44_16 1_555 1_555
C45_16 C29_15 1_555 1_555
H45_16 C45_16 1_555 1_555
H46_16 C45_16 1_555 1_555
Mn4_5 N9_8 1_555 1_555
C5_15 C6_15 1_555 1_555
C6_15 C7_15 1_555 1_555
C27_16 C28_16 1_555 1_555
C42_16 C45_16 1_555 1_555
C43_16 C44_16 1_555 1_555
C2_16 H1_16 1_555 1_555
C3_16 C2_16 1_555 1_555
H2_16 C3_16 1_555 1_555
C4_16 C3_16 1_555 1_555
H3_16 C4_16 1_555 1_555
C5_16 C4_16 1_555 1_555
H4_16 C5_16 1_555 1_555
C21_16 O7_16 1_555 1_555
C22_16 C21_16 1_555 1_555
H21_16 C22_16 1_555 1_555
H22_16 C22_16 1_555 1_555
C23_16 C22_16 1_555 1_555
H23_16 C23_16 1_555 1_555
H24_16 C23_16 1_555 1_555
H25_16 C23_16 1_555 1_555
H26_16 C24_16 1_555 1_555
C25_16 C24_16 1_555 1_555
H27_16 C25_16 1_555 1_555
C26_16 C25_16 1_555 1_555
C29_16 C26_16 1_555 1_555
H31_16 C29_16 1_555 1_555
Mn4_5 O8_16 1_555 1_555
O10_16 Mn4_5 1_555 1_555
C37_16 O10_16 1_555 1_555
C38_16 C37_16 1_555 1_555
H36_16 C38_16 1_555 1_555
H37_16 C38_16 1_555 1_555
C39_16 C38_16 1_555 1_555
H38_16 C39_16 1_555 1_555
H39_16 C39_16 1_555 1_555
H40_16 C39_16 1_555 1_555
C30_16 C31_16 1_555 1_555
C31_16 H32_16 1_555 1_555
C32_16 C31_16 1_555 1_555
H33_16 C32_16 1_555 1_555
Mn1_16 O1_16 1_555 1_555
O1_16 C1_16 1_555 1_555
O3_16 Mn1_16 1_555 1_555
O4_16 Mn1_16 1_555 1_555
N1_16 Mn1_16 1_555 1_555
N2_16 N1_16 1_555 1_555
N3_16 C11_16 1_555 1_555
C6_16 C1_16 1_555 1_555
C7_16 N1_16 1_555 1_555
C8_16 O3_16 1_555 1_555
H7_16 C10_16 1_555 1_555
C11_16 O4_16 1_555 1_555
H10_16 C11_16 1_555 1_555
C12_16 N3_16 1_555 1_555
H11_16 C12_16 1_555 1_555
H12_16 C12_16 1_555 1_555
H13_16 C12_16 1_555 1_555
C13_16 N3_16 1_555 1_555
H14_16 C13_16 1_555 1_555
H15_16 C13_16 1_555 1_555
H16_16 C13_16 1_555 1_555
O9_16 Mn1_16 1_555 1_555
N8_16 Mn1_16 1_555 1_555
H34_16 C33_16 1_555 1_555
C34_16 C33_16 1_555 1_555
H35_16 C34_16 1_555 1_555
C36_16 O9_16 1_555 1_555
N2_16 C8_16 1_555 1_555
C6_16 C7_16 1_555 1_555
N7_16 N8_16 1_555 1_555
N7_16 C36_16 1_555 1_555
C34_16 C35_16 1_555 1_555
C35_16 C36_16 1_555 1_555

#END
