
###############################################################################
#
# This file contains modified crystal structure data generated from the
# MOF subset of the Cambridge Structural Database (CSD) v543 
# hosted by the Cambridge Crystallographic Data Centre (CCDC).
#
# This work is licensed under the Creative Commons
# Attribution-NonCommercial-ShareAlike 4.0 International License.
# To view a copy of this license, visit
# http://creativecommons.org/licenses/by-nc-sa/4.0/
# or send a letter to
# Creative Commons, PO Box 1866, Mountain View, CA 94042, USA.
#
# CIF created using the CSD Python API on 29 September 2022
# The structure has been converted into the P1 space group
# The structure has a 3D framework
# The original CSD entry XALCAP is in the tetragonal crystal system
# The framework has been calculated to contain at least 10.0% void space
# The void calculation uses a probe of radius 1.32A, grid spacing 0.4
#
###############################################################################

data_XALCAP
_chemical_formula_moiety         '(C720 H736 Mn48 N144 O160)n'
_symmetry_cell_setting           triclinic
_symmetry_space_group_name_H-M   'P 1'
_symmetry_Int_Tables_number      1
_space_group_name_Hall           'P 1'
loop_
_symmetry_equiv_pos_site_id
_symmetry_equiv_pos_as_xyz
1 x,y,z
_cell_length_a                   40.609(3)
_cell_length_b                   40.609(3)
_cell_length_c                   17.4132(18)
_cell_angle_alpha                90
_cell_angle_beta                 90
_cell_angle_gamma                90
_cell_volume                     28715.9
loop_
_atom_site_label
_atom_site_type_symbol
_atom_site_fract_x
_atom_site_fract_y
_atom_site_fract_z
Mn1 Mn 0.57473(2) 0.54579(2) 0.17267(5)
O1 O 0.59567(10) 0.52093(11) 0.2479(3)
O2 O 0.49550(10) 0.52677(11) 0.3163(2)
O3 O 0.54613(8) 0.57055(9) 0.1037(2)
N1 N 0.53304(10) 0.53971(11) 0.2240(2)
N2 N 0.50602(10) 0.55518(11) 0.1865(2)
O4 O 0.58753(11) 0.59428(11) 0.2290(3)
C1 C 0.58309(18) 0.50559(17) 0.3081(4)
C2 C 0.6039(2) 0.4860(2) 0.3526(5)
H1 H 0.6261 0.4831 0.3368
C3 C 0.5935(3) 0.4712(3) 0.4172(6)
H2 H 0.6084 0.4574 0.4442
C4 C 0.5628(3) 0.4750(2) 0.4453(6)
H3 H 0.5564 0.4650 0.4923
C5 C 0.5404(2) 0.4946(2) 0.4017(5)
H4 H 0.5186 0.4982 0.4201
C6 C 0.55020(16) 0.50827(16) 0.3328(3)
C7 C 0.52471(16) 0.52594(15) 0.2907(3)
C8 C 0.51574(12) 0.56992(13) 0.1248(3)
C9 C 0.49023(14) 0.58734(15) 0.0766(3)
H5 H 0.4777 0.5706 0.0476
H6 H 0.4746 0.5986 0.1115
C10 C 0.5030(3) 0.6116(3) 0.0221(10)
H7 H 0.5083 0.6320 0.0494
N3 N 0.5939(5) 0.6508(3) 0.2380(8)
C11 C 0.5768(4) 0.6168(4) 0.2188(18)
H10 H 0.5555 0.6172 0.1966
C12 C 0.6084(4) 0.6431(5) 0.3026(8)
H11 H 0.6039 0.6602 0.3409
H12 H 0.6322 0.6414 0.2943
H13 H 0.5999 0.6219 0.3210
C13 C 0.5807(6) 0.6789(4) 0.1943(14)
H14 H 0.5777 0.6977 0.2289
H15 H 0.5595 0.6729 0.1716
H16 H 0.5962 0.6849 0.1535
Mn2 Mn 0.45948(2) 0.53871(2) 0.24546(5)
O5 O 0.44945(10) 0.57965(11) 0.2867(2)
O6 O 0.38430(9) 0.56747(9) 0.0982(2)
O7 O 0.46326(9) 0.49674(10) 0.1939(2)
N4 N 0.42446(11) 0.54324(11) 0.1710(2)
N5 N 0.41930(11) 0.51532(11) 0.1253(3)
N6 N 0.42654(14) 0.51229(19) 0.3313(3)
C14 C 0.42741(15) 0.60147(16) 0.2665(4)
C15 C 0.42438(17) 0.6299(2) 0.3102(4)
H17 H 0.4391 0.6331 0.3519
C16 C 0.40119(18) 0.65361(18) 0.2963(4)
H18 H 0.3999 0.6725 0.3282
C17 C 0.37961(18) 0.64984(16) 0.2351(4)
H19 H 0.3631 0.6658 0.2251
C18 C 0.38269(14) 0.62249(14) 0.1895(3)
H20 H 0.3687 0.6206 0.1459
C19 C 0.40451(13) 0.59815(14) 0.2033(3)
C20 C 0.40475(13) 0.56864(14) 0.1548(3)
C21 C 0.44041(15) 0.49330(15) 0.1418(3)
C22 C 0.43799(18) 0.45959(15) 0.1031(4)
H21 H 0.4164 0.4580 0.0771
H22 H 0.4553 0.4581 0.0632
C23 C 0.4416(4) 0.4309(2) 0.1559(8)
H23 H 0.4602 0.4347 0.1907
H24 H 0.4456 0.4109 0.1258
H25 H 0.4213 0.4282 0.1860
C24 C 0.4347(2) 0.4837(3) 0.3556(5)
H26 H 0.4558 0.4754 0.3420
C25 C 0.4143(3) 0.4639(3) 0.4012(6)
H27 H 0.4200 0.4421 0.4152
C26 C 0.3845(2) 0.4789(3) 0.4248(5)
C27 C 0.3762(2) 0.5042(3) 0.3948(5)
H28 H 0.3545 0.5124 0.4024
C28 C 0.3981(2) 0.5214(3) 0.3491(4)
H29 H 0.3909 0.5420 0.3294
C29 C 0.3597(3) 0.4606(4) 0.4805(7)
H30 H 0.3478 0.4774 0.5109
H31 H 0.3433 0.4488 0.4489
O9 O 0.61583(8) 0.55294(9) 0.1149(2)
O10 O 0.57384(9) 0.45515(9) 0.0234(2)
N7 N 0.60647(10) 0.50626(10) 0.0459(2)
N8 N 0.57728(11) 0.50364(11) 0.0882(3)
N9 N 0.30951(12) 0.39233(12) 0.6902(3)
C33 C 0.70771(15) 0.56757(16) 0.0210(3)
H34 H 0.7212 0.5849 0.0399
C34 C 0.67764(14) 0.56169(14) 0.0514(3)
H35 H 0.6702 0.5756 0.0918
C35 C 0.65678(12) 0.53633(13) 0.0269(3)
C36 C 0.62536(12) 0.53166(13) 0.0642(3)
C37 C 0.56233(13) 0.47625(14) 0.0731(3)
C38 C 0.53178(19) 0.4667(2) 0.1155(5)
H36 H 0.5221 0.4863 0.1407
H37 H 0.5153 0.4576 0.0794
C39 C 0.5417(3) 0.4385(3) 0.1815(6)
H38 H 0.5633 0.4437 0.2033
H39 H 0.5251 0.4386 0.2225
H40 H 0.5424 0.4167 0.1575
C40 C 0.33063(16) 0.41481(17) 0.7112(4)
H41 H 0.3313 0.4207 0.7639
C41 C 0.3520(2) 0.43050(19) 0.6617(4)
H42 H 0.3672 0.4464 0.6805
C42 C 0.3508(2) 0.4228(2) 0.5835(4)
C43 C 0.3275(2) 0.4002(2) 0.5629(4)
H43 H 0.3252 0.3946 0.5103
C44 C 0.30792(18) 0.38563(19) 0.6148(4)
H44 H 0.2923 0.3699 0.5975
C45 C 0.3737(3) 0.4391(2) 0.5291(5)
H45 H 0.3908 0.4508 0.5591
H46 H 0.3849 0.4219 0.4986
Mn4 Mn 0.38659(2) 0.52937(2) 0.02612(5)
Mn5 Mn 0.27937(2) 0.36341(2) 0.77612(5)
N11 N 0.64233(12) 0.44049(12) 0.0598(3)
H41_2 H 0.3293 0.5813 0.0139
Mn1_2 Mn 0.70421(2) 0.32473(2) 0.92267(5)
O1_2 O 0.72907(11) 0.34567(10) 0.9979(3)
O3_2 O 0.67945(9) 0.29613(8) 0.8537(2)
N1_2 N 0.71029(11) 0.28304(10) 0.9740(2)
N2_2 N 0.69482(11) 0.25602(10) 0.9365(2)
O4_2 O 0.65572(11) 0.33753(11) 0.9790(3)
C8_2 C 0.68008(13) 0.26574(12) 0.8748(3)
C9_2 C 0.66266(15) 0.24023(14) 0.8266(3)
H5_2 H 0.6794 0.2277 0.7976
H6_2 H 0.6514 0.2246 0.8615
C10_2 C 0.6384(3) 0.2530(3) 0.7721(10)
H7_2 H 0.6180 0.2583 0.7994
H8 H 0.6339 0.2363 0.7329
H9 H 0.6471 0.2729 0.7476
N3_2 N 0.5992(3) 0.3439(5) 0.9880(8)
C11_2 C 0.6332(4) 0.3268(4) 0.9688(18)
H10_2 H 0.6328 0.3055 0.9466
C13_2 C 0.5711(4) 0.3307(6) 0.9443(14)
H14_2 H 0.5523 0.3277 0.9789
H15_2 H 0.5771 0.3095 0.9216
H16_2 H 0.5651 0.3462 0.9035
Mn2_2 Mn 0.71129(2) 0.20948(2) 0.99546(5)
O6_2 O 0.68253(9) 0.13430(9) 0.8482(2)
O7_2 O 0.75326(10) 0.21326(9) 0.9439(2)
N4_2 N 0.70676(11) 0.17446(11) 0.9210(2)
N5_2 N 0.73468(11) 0.16930(11) 0.8753(3)
C17_2 C 0.60016(16) 0.12961(18) 0.9851(4)
H19_2 H 0.5842 0.1131 0.9751
C18_2 C 0.62751(14) 0.13269(14) 0.9395(3)
H20_2 H 0.6294 0.1187 0.8959
C19_2 C 0.65185(14) 0.15451(13) 0.9533(3)
C20_2 C 0.68136(14) 0.15475(13) 0.9048(3)
C21_2 C 0.75670(15) 0.19041(15) 0.8918(3)
C22_2 C 0.79041(15) 0.18799(18) 0.8531(4)
H21_2 H 0.7920 0.1664 0.8271
H22_2 H 0.7919 0.2053 0.8132
C23_2 C 0.8191(2) 0.1916(4) 0.9059(8)
H23_2 H 0.8153 0.2102 0.9407
H24_2 H 0.8391 0.1956 0.8758
H25_2 H 0.8218 0.1713 0.9360
Mn3 Mn 0.77937(2) 0.36341(2) 0.72388(5)
O8 O 0.75904(10) 0.40079(9) 0.6868(2)
O9_2 O 0.69706(9) 0.36583(8) 0.8649(2)
O10_2 O 0.79485(9) 0.32384(9) 0.7734(2)
N7_2 N 0.74374(10) 0.35647(10) 0.7959(2)
N8_2 N 0.74636(11) 0.32728(11) 0.8382(3)
C30 C 0.73410(14) 0.41838(14) 0.7159(3)
C31 C 0.72746(16) 0.44869(15) 0.6845(3)
H32 H 0.7406 0.4563 0.6429
C32 C 0.70266(17) 0.46827(16) 0.7109(4)
H33 H 0.6991 0.4893 0.6883
C33_2 C 0.68243(16) 0.45771(15) 0.7710(3)
H34_2 H 0.6651 0.4712 0.7899
C34_2 C 0.68831(14) 0.42764(14) 0.8014(3)
H35_2 H 0.6744 0.4202 0.8418
C35_2 C 0.71367(13) 0.40678(12) 0.7769(3)
C36_2 C 0.71834(13) 0.37536(12) 0.8142(3)
C37_2 C 0.77375(14) 0.31233(13) 0.8231(3)
C38_2 C 0.7833(2) 0.28178(19) 0.8655(5)
H36_2 H 0.7637 0.2721 0.8907
H37_2 H 0.7924 0.2653 0.8294
C39_2 C 0.8115(3) 0.2917(3) 0.9315(6)
H38_2 H 0.8063 0.3133 0.9533
H39_2 H 0.8114 0.2751 0.9725
H40_2 H 0.8333 0.2924 0.9075
O11 O 0.81747(9) 0.36570(9) 0.6518(2)
N10 N 0.76532(11) 0.33070(11) 0.6247(3)
Mn4_2 Mn 0.72063(2) 0.13659(2) 0.77612(5)
N11_2 N 0.80951(12) 0.39233(12) 0.8098(3)
Mn1_3 Mn 0.29579(2) 0.17527(2) 0.92267(5)
O1_3 O 0.27093(11) 0.15433(10) 0.9979(3)
O3_3 O 0.32055(9) 0.20387(8) 0.8537(2)
N1_3 N 0.28971(11) 0.21696(10) 0.9740(2)
N2_3 N 0.30518(11) 0.24398(10) 0.9365(2)
O4_3 O 0.34428(11) 0.16247(11) 0.9790(3)
C8_3 C 0.31992(13) 0.23426(12) 0.8748(3)
C9_3 C 0.33734(15) 0.25977(14) 0.8266(3)
H5_3 H 0.3206 0.2723 0.7976
H6_3 H 0.3486 0.2754 0.8615
C10_3 C 0.3616(3) 0.2470(3) 0.7721(10)
H7_3 H 0.3820 0.2417 0.7994
H8_2 H 0.3661 0.2637 0.7329
H9_2 H 0.3529 0.2271 0.7476
N3_3 N 0.4008(3) 0.1561(5) 0.9880(8)
C11_3 C 0.3668(4) 0.1732(4) 0.9688(18)
H10_3 H 0.3672 0.1945 0.9466
C13_3 C 0.4289(4) 0.1693(6) 0.9443(14)
H14_3 H 0.4477 0.1723 0.9789
H15_3 H 0.4229 0.1905 0.9216
H16_3 H 0.4349 0.1538 0.9035
Mn2_3 Mn 0.28871(2) 0.29052(2) 0.99546(5)
O6_3 O 0.31747(9) 0.36570(9) 0.8482(2)
O7_3 O 0.24674(10) 0.28674(9) 0.9439(2)
N4_3 N 0.29324(11) 0.32554(11) 0.9210(2)
N5_3 N 0.26532(11) 0.33070(11) 0.8753(3)
C17_3 C 0.39984(16) 0.37039(18) 0.9851(4)
H19_3 H 0.4158 0.3869 0.9751
C18_3 C 0.37249(14) 0.36731(14) 0.9395(3)
H20_3 H 0.3706 0.3813 0.8959
C19_3 C 0.34815(14) 0.34549(13) 0.9533(3)
C20_3 C 0.31864(14) 0.34525(13) 0.9048(3)
C21_3 C 0.24330(15) 0.30959(15) 0.8918(3)
C22_3 C 0.20959(15) 0.31201(18) 0.8531(4)
H21_3 H 0.2080 0.3336 0.8271
H22_3 H 0.2081 0.2947 0.8132
C23_3 C 0.1809(2) 0.3084(4) 0.9059(8)
H23_3 H 0.1847 0.2898 0.9407
H24_3 H 0.1609 0.3044 0.8758
H25_3 H 0.1782 0.3287 0.9360
Mn3_2 Mn 0.22063(2) 0.13659(2) 0.72388(5)
O8_2 O 0.24096(10) 0.09921(9) 0.6868(2)
O9_3 O 0.30294(9) 0.13417(8) 0.8649(2)
O10_3 O 0.20515(9) 0.17616(9) 0.7734(2)
N7_3 N 0.25626(10) 0.14353(10) 0.7959(2)
N8_3 N 0.25364(11) 0.17272(11) 0.8382(3)
C30_2 C 0.26590(14) 0.08162(14) 0.7159(3)
C31_2 C 0.27254(16) 0.05131(15) 0.6845(3)
H32_2 H 0.2594 0.0437 0.6429
C32_2 C 0.29734(17) 0.03173(16) 0.7109(4)
H33_2 H 0.3009 0.0107 0.6883
C33_3 C 0.31757(16) 0.04229(15) 0.7710(3)
H34_3 H 0.3349 0.0288 0.7899
C34_3 C 0.31169(14) 0.07236(14) 0.8014(3)
H35_3 H 0.3256 0.0798 0.8418
C35_3 C 0.28633(13) 0.09322(12) 0.7769(3)
C36_3 C 0.28166(13) 0.12464(12) 0.8142(3)
C37_3 C 0.22625(14) 0.18767(13) 0.8231(3)
C38_3 C 0.2167(2) 0.21822(19) 0.8655(5)
H36_3 H 0.2363 0.2279 0.8907
H37_3 H 0.2076 0.2347 0.8294
C39_3 C 0.1885(3) 0.2083(3) 0.9315(6)
H38_3 H 0.1937 0.1867 0.9533
H39_3 H 0.1886 0.2249 0.9725
H40_3 H 0.1667 0.2076 0.9075
O11_2 O 0.18253(9) 0.13430(9) 0.6518(2)
N10_2 N 0.23468(11) 0.16930(11) 0.6247(3)
N11_3 N 0.19049(12) 0.10767(12) 0.8098(3)
C2_2 C 0.3961(2) 0.0140(2) 0.3526(5)
H1_2 H 0.3739 0.0169 0.3368
C3_2 C 0.4065(3) 0.0288(3) 0.4172(6)
H2_2 H 0.3916 0.0426 0.4442
C4_2 C 0.4372(3) 0.0250(2) 0.4453(6)
H3_2 H 0.4436 0.0350 0.4923
C5_2 C 0.4596(2) 0.0054(2) 0.4017(5)
H4_2 H 0.4814 0.0018 0.4201
O7_4 O 0.53674(9) 0.00326(10) 0.1939(2)
C21_4 C 0.55959(15) 0.00670(15) 0.1418(3)
C22_4 C 0.56201(18) 0.04041(15) 0.1031(4)
H21_4 H 0.5836 0.0420 0.0771
H22_4 H 0.5447 0.0419 0.0632
C23_4 C 0.5584(4) 0.0691(2) 0.1559(8)
H23_4 H 0.5398 0.0653 0.1907
H24_4 H 0.5544 0.0891 0.1258
H25_4 H 0.5787 0.0718 0.1860
C24_2 C 0.5653(2) 0.0163(3) 0.3556(5)
H26_2 H 0.5442 0.0246 0.3420
C25_2 C 0.5857(3) 0.0361(3) 0.4012(6)
H27_2 H 0.5800 0.0579 0.4152
C26_2 C 0.6155(2) 0.0211(3) 0.4248(5)
C29_2 C 0.6403(3) 0.0394(4) 0.4805(7)
H30_2 H 0.6522 0.0226 0.5109
H31_2 H 0.6567 0.0512 0.4489
O10_4 O 0.42616(9) 0.04485(9) 0.0234(2)
N9_2 N 0.69049(12) 0.10767(12) 0.6902(3)
C37_4 C 0.43767(13) 0.02375(14) 0.0731(3)
C38_4 C 0.46822(19) 0.0333(2) 0.1155(5)
H36_4 H 0.4779 0.0137 0.1407
H37_4 H 0.4847 0.0424 0.0794
C39_4 C 0.4583(3) 0.0615(3) 0.1815(6)
H38_4 H 0.4367 0.0563 0.2033
H39_4 H 0.4749 0.0614 0.2225
H40_4 H 0.4576 0.0833 0.1575
C40_2 C 0.66937(16) 0.08519(17) 0.7112(4)
H41_3 H 0.6687 0.0793 0.7639
C41_2 C 0.6480(2) 0.06950(19) 0.6617(4)
H42_2 H 0.6328 0.0536 0.6805
C42_2 C 0.6492(2) 0.0772(2) 0.5835(4)
C43_2 C 0.6725(2) 0.0998(2) 0.5629(4)
H43_2 H 0.6748 0.1054 0.5103
C44_2 C 0.69208(18) 0.11437(19) 0.6148(4)
H44_2 H 0.7077 0.1301 0.5975
C45_2 C 0.6263(3) 0.0609(2) 0.5291(5)
H45_2 H 0.6092 0.0492 0.5591
H46_2 H 0.6151 0.0781 0.4986
N11_4 N 0.35767(12) 0.05951(12) 0.0598(3)
H8_3 H 0.5137 0.3839 0.0171
H9_3 H 0.4771 0.3971 0.0024
O8_3 O 0.34921(9) 0.50904(10) 0.0632(2)
C30_3 C 0.33162(14) 0.48410(14) 0.0341(3)
C31_3 C 0.30131(15) 0.47746(16) 0.0655(3)
H32_3 H 0.2937 0.4906 0.1071
C32_3 C 0.28173(16) 0.45266(17) 0.0391(4)
H33_3 H 0.2607 0.4491 0.0617
Mn1_4 Mn 0.79579(2) 0.17527(2) 0.57733(5)
O1_4 O 0.77093(11) 0.15433(10) 0.5021(3)
O2_2 O 0.77677(11) 0.25450(10) 0.4337(2)
O3_4 O 0.82055(9) 0.20387(8) 0.6463(2)
N1_4 N 0.78971(11) 0.21696(10) 0.5260(2)
N2_4 N 0.80518(11) 0.24398(10) 0.5635(2)
O4_4 O 0.84428(11) 0.16247(11) 0.5210(3)
C1_2 C 0.75559(17) 0.16691(18) 0.4419(4)
C2_3 C 0.7360(2) 0.1461(2) 0.3974(5)
H1_3 H 0.7331 0.1239 0.4132
C3_3 C 0.7212(3) 0.1565(3) 0.3328(6)
H2_3 H 0.7074 0.1416 0.3058
C4_3 C 0.7250(2) 0.1872(3) 0.3047(6)
H3_3 H 0.7150 0.1936 0.2577
C5_3 C 0.7446(2) 0.2096(2) 0.3483(5)
H4_3 H 0.7482 0.2314 0.3299
C6_2 C 0.75827(16) 0.19980(16) 0.4172(3)
C7_2 C 0.77594(15) 0.22529(16) 0.4593(3)
C8_4 C 0.81992(13) 0.23426(12) 0.6252(3)
C9_4 C 0.83734(15) 0.25977(14) 0.6734(3)
H5_4 H 0.8206 0.2723 0.7024
H6_4 H 0.8486 0.2754 0.6385
C10_4 C 0.8616(3) 0.2470(3) 0.7279(10)
H7_4 H 0.8820 0.2417 0.7006
H8_4 H 0.8661 0.2637 0.7671
H9_4 H 0.8529 0.2271 0.7524
N3_4 N 0.9008(3) 0.1561(5) 0.5120(8)
C11_4 C 0.8668(4) 0.1732(4) 0.5312(18)
H10_4 H 0.8672 0.1945 0.5534
C12_2 C 0.8931(5) 0.1416(4) 0.4474(8)
H11_2 H 0.9102 0.1461 0.4091
H12_2 H 0.8914 0.1178 0.4557
H13_2 H 0.8719 0.1501 0.4290
C13_4 C 0.9289(4) 0.1693(6) 0.5557(14)
H14_4 H 0.9477 0.1723 0.5211
H15_4 H 0.9229 0.1905 0.5784
H16_4 H 0.9349 0.1538 0.5965
Mn2_4 Mn 0.78871(2) 0.29052(2) 0.50454(5)
O5_2 O 0.82965(11) 0.30055(10) 0.4633(2)
O7_5 O 0.74674(10) 0.28674(9) 0.5561(2)
N4_4 N 0.79324(11) 0.32554(11) 0.5790(2)
N6_2 N 0.76229(19) 0.32346(14) 0.4187(3)
C14_2 C 0.85147(16) 0.32259(15) 0.4835(4)
C15_2 C 0.8799(2) 0.32562(17) 0.4398(4)
H17_2 H 0.8831 0.3109 0.3981
C16_2 C 0.90361(18) 0.34881(18) 0.4537(4)
H18_2 H 0.9225 0.3501 0.4218
C17_4 C 0.89984(16) 0.37039(18) 0.5149(4)
H19_4 H 0.9158 0.3869 0.5249
C18_4 C 0.87249(14) 0.36731(14) 0.5605(3)
H20_4 H 0.8706 0.3813 0.6041
C19_4 C 0.84815(14) 0.34549(13) 0.5467(3)
C20_4 C 0.81864(14) 0.34525(13) 0.5952(3)
C21_5 C 0.74330(15) 0.30959(15) 0.6082(3)
C22_5 C 0.70959(15) 0.31201(18) 0.6469(4)
H21_5 H 0.7080 0.3336 0.6729
H22_5 H 0.7081 0.2947 0.6868
C23_5 C 0.6809(2) 0.3084(4) 0.5941(8)
H23_5 H 0.6847 0.2898 0.5593
H24_5 H 0.6609 0.3044 0.6242
H25_5 H 0.6782 0.3287 0.5640
C24_3 C 0.7337(3) 0.3153(2) 0.3944(5)
H26_3 H 0.7254 0.2942 0.4080
C25_3 C 0.7139(3) 0.3357(3) 0.3488(6)
H27_3 H 0.6921 0.3300 0.3348
C26_3 C 0.7289(3) 0.3655(2) 0.3252(5)
C27_2 C 0.7542(3) 0.3738(2) 0.3552(5)
H28_2 H 0.7624 0.3955 0.3476
C28_2 C 0.7714(3) 0.3519(2) 0.4009(4)
H29_2 H 0.7920 0.3591 0.4206
C29_3 C 0.7106(4) 0.3903(3) 0.2695(7)
H30_3 H 0.7274 0.4022 0.2391
H31_3 H 0.6988 0.4067 0.3011
O8_4 O 0.74096(10) 0.09921(9) 0.8132(2)
O9_4 O 0.80294(9) 0.13417(8) 0.6351(2)
O10_5 O 0.70515(9) 0.17616(9) 0.7266(2)
N7_4 N 0.75626(10) 0.14353(10) 0.7041(2)
N8_4 N 0.75364(11) 0.17272(11) 0.6618(3)
C30_4 C 0.76590(14) 0.08162(14) 0.7841(3)
C31_4 C 0.77254(16) 0.05131(15) 0.8155(3)
H32_4 H 0.7594 0.0437 0.8571
C32_4 C 0.79734(17) 0.03173(16) 0.7891(4)
H33_4 H 0.8009 0.0107 0.8117
C33_4 C 0.81757(16) 0.04229(15) 0.7290(3)
H34_4 H 0.8349 0.0288 0.7101
C34_4 C 0.81169(14) 0.07236(14) 0.6986(3)
H35_4 H 0.8256 0.0798 0.6582
C35_4 C 0.78633(13) 0.09322(12) 0.7231(3)
C36_4 C 0.78166(13) 0.12464(12) 0.6858(3)
C37_5 C 0.72625(14) 0.18767(13) 0.6769(3)
C38_5 C 0.7167(2) 0.21822(19) 0.6345(5)
H36_5 H 0.7363 0.2279 0.6093
H37_5 H 0.7076 0.2347 0.6706
C39_5 C 0.6885(3) 0.2083(3) 0.5685(6)
H38_5 H 0.6937 0.1867 0.5467
H39_5 H 0.6886 0.2249 0.5275
H40_5 H 0.6667 0.2076 0.5925
C40_3 C 0.66481(17) 0.41937(16) 0.0388(4)
C41_3 C 0.68050(19) 0.3980(2) 0.0883(4)
H42_3 H 0.6964 0.3828 0.0695
C42_3 C 0.6728(2) 0.3992(2) 0.1665(4)
C43_3 C 0.6502(2) 0.4225(2) 0.1871(4)
H43_3 H 0.6446 0.4248 0.2397
C44_3 C 0.63563(19) 0.44208(18) 0.1352(4)
H44_3 H 0.6199 0.4577 0.1525
C45_3 C 0.6891(2) 0.3763(3) 0.2209(5)
H45_3 H 0.7008 0.3592 0.1909
H46_3 H 0.6719 0.3651 0.2514
H30_4 H 0.1522 0.0226 0.9891
C40_4 C 0.16937(16) 0.08519(17) 0.7888(4)
H41_4 H 0.1687 0.0793 0.7361
C41_4 C 0.1480(2) 0.06950(19) 0.8383(4)
H42_4 H 0.1328 0.0536 0.8195
C42_4 C 0.1492(2) 0.0772(2) 0.9165(4)
C43_4 C 0.1725(2) 0.0998(2) 0.9371(4)
H43_4 H 0.1748 0.1054 0.9897
C44_4 C 0.19208(18) 0.11437(19) 0.8852(4)
H44_4 H 0.2077 0.1301 0.9025
C45_4 C 0.1263(3) 0.0609(2) 0.9709(5)
H45_4 H 0.1092 0.0492 0.9409
Mn1_5 Mn 0.20421(2) 0.32473(2) 0.57733(5)
O1_5 O 0.22907(11) 0.34567(10) 0.5021(3)
O2_3 O 0.22323(11) 0.24550(10) 0.4337(2)
O3_5 O 0.17945(9) 0.29613(8) 0.6463(2)
N1_5 N 0.21029(11) 0.28304(10) 0.5260(2)
N2_5 N 0.19482(11) 0.25602(10) 0.5635(2)
O4_5 O 0.15572(11) 0.33753(11) 0.5210(3)
C1_3 C 0.24441(17) 0.33309(18) 0.4419(4)
C2_4 C 0.2640(2) 0.3539(2) 0.3974(5)
H1_4 H 0.2669 0.3761 0.4132
C3_4 C 0.2788(3) 0.3435(3) 0.3328(6)
H2_4 H 0.2926 0.3584 0.3058
C4_4 C 0.2750(2) 0.3128(3) 0.3047(6)
H3_4 H 0.2850 0.3064 0.2577
C5_4 C 0.2554(2) 0.2904(2) 0.3483(5)
H4_4 H 0.2518 0.2686 0.3299
C6_3 C 0.24173(16) 0.30020(16) 0.4172(3)
C7_3 C 0.22406(15) 0.27471(16) 0.4593(3)
C8_5 C 0.18008(13) 0.26574(12) 0.6252(3)
C9_5 C 0.16266(15) 0.24023(14) 0.6734(3)
H5_5 H 0.1794 0.2277 0.7024
H6_5 H 0.1514 0.2246 0.6385
C10_5 C 0.1384(3) 0.2530(3) 0.7279(10)
H7_5 H 0.1180 0.2583 0.7006
H8_5 H 0.1339 0.2363 0.7671
H9_5 H 0.1471 0.2729 0.7524
N3_5 N 0.0992(3) 0.3439(5) 0.5120(8)
C11_5 C 0.1332(4) 0.3268(4) 0.5312(18)
H10_5 H 0.1328 0.3055 0.5534
C12_3 C 0.1069(5) 0.3584(4) 0.4474(8)
H11_3 H 0.0898 0.3539 0.4091
H12_3 H 0.1086 0.3822 0.4557
H13_3 H 0.1281 0.3499 0.4290
C13_5 C 0.0711(4) 0.3307(6) 0.5557(14)
H14_5 H 0.0523 0.3277 0.5211
H15_5 H 0.0771 0.3095 0.5784
H16_5 H 0.0651 0.3462 0.5965
Mn2_5 Mn 0.21129(2) 0.20948(2) 0.50454(5)
O5_3 O 0.17035(11) 0.19945(10) 0.4633(2)
O7_6 O 0.25326(10) 0.21326(9) 0.5561(2)
N4_5 N 0.20676(11) 0.17446(11) 0.5790(2)
N6_3 N 0.23771(19) 0.17654(14) 0.4187(3)
C14_3 C 0.14853(16) 0.17741(15) 0.4835(4)
C15_3 C 0.1201(2) 0.17438(17) 0.4398(4)
H17_3 H 0.1169 0.1891 0.3981
C16_3 C 0.09639(18) 0.15119(18) 0.4537(4)
H18_3 H 0.0775 0.1499 0.4218
C17_5 C 0.10016(16) 0.12961(18) 0.5149(4)
H19_5 H 0.0842 0.1131 0.5249
C18_5 C 0.12751(14) 0.13269(14) 0.5605(3)
H20_5 H 0.1294 0.1187 0.6041
C19_5 C 0.15185(14) 0.15451(13) 0.5467(3)
C20_5 C 0.18136(14) 0.15475(13) 0.5952(3)
C21_6 C 0.25670(15) 0.19041(15) 0.6082(3)
C22_6 C 0.29041(15) 0.18799(18) 0.6469(4)
H21_6 H 0.2920 0.1664 0.6729
H22_6 H 0.2919 0.2053 0.6868
C23_6 C 0.3191(2) 0.1916(4) 0.5941(8)
H23_6 H 0.3153 0.2102 0.5593
H24_6 H 0.3391 0.1956 0.6242
H25_6 H 0.3218 0.1713 0.5640
C24_4 C 0.2663(3) 0.1847(2) 0.3944(5)
H26_4 H 0.2746 0.2058 0.4080
C25_4 C 0.2861(3) 0.1643(3) 0.3488(6)
H27_4 H 0.3079 0.1700 0.3348
C26_4 C 0.2711(3) 0.1345(2) 0.3252(5)
C27_3 C 0.2458(3) 0.1262(2) 0.3552(5)
H28_3 H 0.2376 0.1045 0.3476
C28_3 C 0.2286(3) 0.1481(2) 0.4009(4)
H29_3 H 0.2080 0.1409 0.4206
C29_4 C 0.2894(4) 0.1097(3) 0.2695(7)
H30_5 H 0.2726 0.0978 0.2391
H31_4 H 0.3012 0.0933 0.3011
O8_5 O 0.25904(10) 0.40079(9) 0.8132(2)
O9_5 O 0.19706(9) 0.36583(8) 0.6351(2)
O10_6 O 0.29485(9) 0.32384(9) 0.7266(2)
N7_5 N 0.24374(10) 0.35647(10) 0.7041(2)
N8_5 N 0.24636(11) 0.32728(11) 0.6618(3)
C30_5 C 0.23410(14) 0.41838(14) 0.7841(3)
C31_5 C 0.22746(16) 0.44869(15) 0.8155(3)
H32_5 H 0.2406 0.4563 0.8571
C32_5 C 0.20266(17) 0.46827(16) 0.7891(4)
H33_5 H 0.1991 0.4893 0.8117
C33_5 C 0.18243(16) 0.45771(15) 0.7290(3)
H34_5 H 0.1651 0.4712 0.7101
C34_5 C 0.18831(14) 0.42764(14) 0.6986(3)
H35_5 H 0.1744 0.4202 0.6582
C35_5 C 0.21367(13) 0.40678(12) 0.7231(3)
C36_5 C 0.21834(13) 0.37536(12) 0.6858(3)
C37_6 C 0.27375(14) 0.31233(13) 0.6769(3)
C38_6 C 0.2833(2) 0.28178(19) 0.6345(5)
H36_6 H 0.2637 0.2721 0.6093
H37_6 H 0.2924 0.2653 0.6706
C39_6 C 0.3115(3) 0.2917(3) 0.5685(6)
H38_6 H 0.3063 0.3133 0.5467
H39_6 H 0.3114 0.2751 0.5275
H40_6 H 0.3333 0.2924 0.5925
C40_5 C 0.33519(17) 0.08063(16) 0.0388(4)
C41_5 C 0.31950(19) 0.1020(2) 0.0883(4)
H42_5 H 0.3036 0.1172 0.0695
C42_5 C 0.3272(2) 0.1008(2) 0.1665(4)
C43_5 C 0.3498(2) 0.0775(2) 0.1871(4)
H43_5 H 0.3554 0.0752 0.2397
C44_5 C 0.36437(19) 0.05792(18) 0.1352(4)
H44_5 H 0.3801 0.0423 0.1525
C45_5 C 0.3109(2) 0.1237(3) 0.2209(5)
H45_5 H 0.2992 0.1408 0.1909
H46_4 H 0.3281 0.1349 0.2514
H30_6 H 0.8478 0.4774 0.9891
C40_6 C 0.83063(16) 0.41481(17) 0.7888(4)
H41_5 H 0.8313 0.4207 0.7361
C41_6 C 0.8520(2) 0.43050(19) 0.8383(4)
H42_6 H 0.8672 0.4464 0.8195
C42_6 C 0.8508(2) 0.4228(2) 0.9165(4)
C43_6 C 0.8275(2) 0.4002(2) 0.9371(4)
H43_6 H 0.8252 0.3946 0.9897
C44_6 C 0.80792(18) 0.38563(19) 0.8852(4)
H44_6 H 0.7923 0.3699 0.9025
C45_6 C 0.8737(3) 0.4391(2) 0.9709(5)
H45_6 H 0.8908 0.4508 0.9409
H8_6 H 0.4863 0.6161 0.9829
H9_6 H 0.5229 0.6029 0.9976
Mn3_3 Mn 0.61341(2) 0.47063(2) 0.97388(5)
O8_6 O 0.65079(9) 0.49096(10) 0.9368(2)
C30_6 C 0.66838(14) 0.51590(14) 0.9659(3)
C31_6 C 0.69869(15) 0.52254(16) 0.9345(3)
H32_6 H 0.7063 0.5094 0.8929
C32_6 C 0.71827(16) 0.54734(17) 0.9609(4)
H33_6 H 0.7393 0.5509 0.9383
O11_3 O 0.61570(9) 0.43253(9) 0.9018(2)
N10_3 N 0.58070(11) 0.48468(11) 0.8747(3)
Mn1_6 Mn 0.20421(2) 0.82473(2) 0.42267(5)
O1_6 O 0.22907(11) 0.84567(10) 0.4979(3)
O2_4 O 0.22323(11) 0.74550(10) 0.5663(2)
O3_6 O 0.17945(9) 0.79613(8) 0.3537(2)
N1_6 N 0.21029(11) 0.78304(10) 0.4740(2)
N2_6 N 0.19482(11) 0.75602(10) 0.4365(2)
O4_6 O 0.15572(11) 0.83753(11) 0.4790(3)
C1_4 C 0.24441(17) 0.83309(18) 0.5581(4)
C2_5 C 0.2640(2) 0.8539(2) 0.6026(5)
H1_5 H 0.2669 0.8761 0.5868
C3_5 C 0.2788(3) 0.8435(3) 0.6672(6)
H2_5 H 0.2926 0.8584 0.6942
C4_5 C 0.2750(2) 0.8128(3) 0.6953(6)
H3_5 H 0.2850 0.8064 0.7423
C5_5 C 0.2554(2) 0.7904(2) 0.6517(5)
H4_5 H 0.2518 0.7686 0.6701
C6_4 C 0.24173(16) 0.80020(16) 0.5828(3)
C7_4 C 0.22406(15) 0.77471(16) 0.5407(3)
C8_6 C 0.18008(13) 0.76574(12) 0.3748(3)
C9_6 C 0.16266(15) 0.74023(14) 0.3266(3)
H5_6 H 0.1794 0.7277 0.2976
H6_6 H 0.1514 0.7246 0.3615
C10_6 C 0.1384(3) 0.7530(3) 0.2721(10)
H7_6 H 0.1180 0.7583 0.2994
H8_7 H 0.1339 0.7363 0.2329
H9_7 H 0.1471 0.7729 0.2476
N3_6 N 0.0992(3) 0.8439(5) 0.4880(8)
C11_6 C 0.1332(4) 0.8268(4) 0.4688(18)
H10_6 H 0.1328 0.8055 0.4466
C12_4 C 0.1069(5) 0.8584(4) 0.5526(8)
H11_4 H 0.0898 0.8539 0.5909
H12_4 H 0.1086 0.8822 0.5443
H13_4 H 0.1281 0.8499 0.5710
C13_6 C 0.0711(4) 0.8307(6) 0.4443(14)
H14_6 H 0.0523 0.8277 0.4789
H15_6 H 0.0771 0.8095 0.4216
H16_6 H 0.0651 0.8462 0.4035
Mn2_6 Mn 0.21129(2) 0.70948(2) 0.49546(5)
O5_4 O 0.17035(11) 0.69945(10) 0.5367(2)
O6_4 O 0.18253(9) 0.63430(9) 0.3482(2)
O7_7 O 0.25326(10) 0.71326(9) 0.4439(2)
N4_6 N 0.20676(11) 0.67446(11) 0.4210(2)
N5_4 N 0.23468(11) 0.66930(11) 0.3753(3)
N6_4 N 0.23771(19) 0.67654(14) 0.5813(3)
C14_4 C 0.14853(16) 0.67741(15) 0.5165(4)
C15_4 C 0.1201(2) 0.67438(17) 0.5602(4)
H17_4 H 0.1169 0.6891 0.6019
C16_4 C 0.09639(18) 0.65119(18) 0.5463(4)
H18_4 H 0.0775 0.6499 0.5782
C17_6 C 0.10016(16) 0.62961(18) 0.4851(4)
H19_6 H 0.0842 0.6131 0.4751
C18_6 C 0.12751(14) 0.63269(14) 0.4395(3)
H20_6 H 0.1294 0.6187 0.3959
C19_6 C 0.15185(14) 0.65451(13) 0.4533(3)
C20_6 C 0.18136(14) 0.65475(13) 0.4048(3)
C21_7 C 0.25670(15) 0.69041(15) 0.3918(3)
C22_7 C 0.29041(15) 0.68799(18) 0.3531(4)
H21_7 H 0.2920 0.6664 0.3271
H22_7 H 0.2919 0.7053 0.3132
C23_7 C 0.3191(2) 0.6916(4) 0.4059(8)
H23_7 H 0.3153 0.7102 0.4407
H24_7 H 0.3391 0.6956 0.3758
H25_7 H 0.3218 0.6713 0.4360
C24_5 C 0.2663(3) 0.6847(2) 0.6056(5)
H26_5 H 0.2746 0.7058 0.5920
C25_5 C 0.2861(3) 0.6643(3) 0.6512(6)
H27_5 H 0.3079 0.6700 0.6652
C26_5 C 0.2711(3) 0.6345(2) 0.6748(5)
C27_4 C 0.2458(3) 0.6262(2) 0.6448(5)
H28_4 H 0.2376 0.6045 0.6524
C28_4 C 0.2286(3) 0.6481(2) 0.5991(4)
H29_4 H 0.2080 0.6409 0.5794
C29_5 C 0.2894(4) 0.6097(3) 0.7305(7)
H30_7 H 0.2726 0.5978 0.7609
H31_5 H 0.3012 0.5933 0.6989
Mn3_4 Mn 0.27937(2) 0.86341(2) 0.22388(5)
O8_7 O 0.25904(10) 0.90079(9) 0.1868(2)
O9_6 O 0.19706(9) 0.86583(8) 0.3649(2)
O10_7 O 0.29485(9) 0.82384(9) 0.2734(2)
N7_6 N 0.24374(10) 0.85647(10) 0.2959(2)
N8_6 N 0.24636(11) 0.82728(11) 0.3382(3)
N9_3 N 0.35767(12) 0.55951(12) 0.9402(3)
C30_7 C 0.23410(14) 0.91838(14) 0.2159(3)
C31_7 C 0.22746(16) 0.94869(15) 0.1845(3)
H32_7 H 0.2406 0.9563 0.1429
C32_7 C 0.20266(17) 0.96827(16) 0.2109(4)
H33_7 H 0.1991 0.9893 0.1883
C33_6 C 0.18243(16) 0.95771(15) 0.2710(3)
H34_6 H 0.1651 0.9712 0.2899
C34_6 C 0.18831(14) 0.92764(14) 0.3014(3)
H35_6 H 0.1744 0.9202 0.3418
C35_6 C 0.21367(13) 0.90678(12) 0.2769(3)
C36_6 C 0.21834(13) 0.87536(12) 0.3142(3)
C37_7 C 0.27375(14) 0.81233(13) 0.3231(3)
C38_7 C 0.2833(2) 0.78178(19) 0.3655(5)
H36_7 H 0.2637 0.7721 0.3907
H37_7 H 0.2924 0.7653 0.3294
C39_7 C 0.3115(3) 0.7917(3) 0.4315(6)
H38_7 H 0.3063 0.8133 0.4533
H39_7 H 0.3114 0.7751 0.4725
H40_7 H 0.3333 0.7924 0.4075
C40_7 C 0.33519(17) 0.58063(16) 0.9612(4)
C41_7 C 0.31950(19) 0.6020(2) 0.9117(4)
H42_7 H 0.3036 0.6172 0.9305
C42_7 C 0.3272(2) 0.6008(2) 0.8335(4)
C43_7 C 0.3498(2) 0.5775(2) 0.8129(4)
H43_7 H 0.3554 0.5752 0.7603
C44_7 C 0.36437(19) 0.55792(18) 0.8648(4)
H44_7 H 0.3801 0.5423 0.8475
C45_7 C 0.3109(2) 0.6237(3) 0.7791(5)
H45_7 H 0.2992 0.6408 0.8091
H46_5 H 0.3281 0.6349 0.7486
O11_4 O 0.31747(9) 0.86570(9) 0.1518(2)
N10_4 N 0.26532(11) 0.83070(11) 0.1247(3)
Mn4_3 Mn 0.22063(2) 0.63659(2) 0.27612(5)
N11_5 N 0.30951(12) 0.89233(12) 0.3098(3)
H30_8 H 0.8478 0.9774 0.0109
N9_4 N 0.80951(12) 0.89233(12) 0.1902(3)
C40_8 C 0.83063(16) 0.91481(17) 0.2112(4)
H41_6 H 0.8313 0.9207 0.2639
C41_8 C 0.8520(2) 0.93050(19) 0.1617(4)
H42_8 H 0.8672 0.9464 0.1805
C42_8 C 0.8508(2) 0.9228(2) 0.0835(4)
C43_8 C 0.8275(2) 0.9002(2) 0.0629(4)
H43_8 H 0.8252 0.8946 0.0103
C44_8 C 0.80792(18) 0.88563(19) 0.1148(4)
H44_8 H 0.7923 0.8699 0.0975
C45_8 C 0.8737(3) 0.9391(2) 0.0291(5)
H45_8 H 0.8908 0.9508 0.0591
Mn5_2 Mn 0.77937(2) 0.86341(2) 0.27612(5)
Mn1_7 Mn 0.79579(2) 0.67527(2) 0.42267(5)
O1_7 O 0.77093(11) 0.65433(10) 0.4979(3)
O2_5 O 0.77677(11) 0.75450(10) 0.5663(2)
O3_7 O 0.82055(9) 0.70387(8) 0.3537(2)
N1_7 N 0.78971(11) 0.71696(10) 0.4740(2)
N2_7 N 0.80518(11) 0.74398(10) 0.4365(2)
O4_7 O 0.84428(11) 0.66247(11) 0.4790(3)
C1_5 C 0.75559(17) 0.66691(18) 0.5581(4)
C2_6 C 0.7360(2) 0.6461(2) 0.6026(5)
H1_6 H 0.7331 0.6239 0.5868
C3_6 C 0.7212(3) 0.6565(3) 0.6672(6)
H2_6 H 0.7074 0.6416 0.6942
C4_6 C 0.7250(2) 0.6872(3) 0.6953(6)
H3_6 H 0.7150 0.6936 0.7423
C5_6 C 0.7446(2) 0.7096(2) 0.6517(5)
H4_6 H 0.7482 0.7314 0.6701
C6_5 C 0.75827(16) 0.69980(16) 0.5828(3)
C7_5 C 0.77594(15) 0.72529(16) 0.5407(3)
C8_7 C 0.81992(13) 0.73426(12) 0.3748(3)
C9_7 C 0.83734(15) 0.75977(14) 0.3266(3)
H5_7 H 0.8206 0.7723 0.2976
H6_7 H 0.8486 0.7754 0.3615
C10_7 C 0.8616(3) 0.7470(3) 0.2721(10)
H7_7 H 0.8820 0.7417 0.2994
H8_8 H 0.8661 0.7637 0.2329
H9_8 H 0.8529 0.7271 0.2476
N3_7 N 0.9008(3) 0.6561(5) 0.4880(8)
C11_7 C 0.8668(4) 0.6732(4) 0.4688(18)
H10_7 H 0.8672 0.6945 0.4466
C12_5 C 0.8931(5) 0.6416(4) 0.5526(8)
H11_5 H 0.9102 0.6461 0.5909
H12_5 H 0.8914 0.6178 0.5443
H13_5 H 0.8719 0.6501 0.5710
C13_7 C 0.9289(4) 0.6693(6) 0.4443(14)
H14_7 H 0.9477 0.6723 0.4789
H15_7 H 0.9229 0.6905 0.4216
H16_7 H 0.9349 0.6538 0.4035
Mn2_7 Mn 0.78871(2) 0.79052(2) 0.49546(5)
O5_5 O 0.82965(11) 0.80055(10) 0.5367(2)
O6_5 O 0.81747(9) 0.86570(9) 0.3482(2)
O7_8 O 0.74674(10) 0.78674(9) 0.4439(2)
N4_7 N 0.79324(11) 0.82554(11) 0.4210(2)
N5_5 N 0.76532(11) 0.83070(11) 0.3753(3)
N6_5 N 0.76229(19) 0.82346(14) 0.5813(3)
C14_5 C 0.85147(16) 0.82259(15) 0.5165(4)
C15_5 C 0.8799(2) 0.82562(17) 0.5602(4)
H17_5 H 0.8831 0.8109 0.6019
C16_5 C 0.90361(18) 0.84881(18) 0.5463(4)
H18_5 H 0.9225 0.8501 0.5782
C17_7 C 0.89984(16) 0.87039(18) 0.4851(4)
H19_7 H 0.9158 0.8869 0.4751
C18_7 C 0.87249(14) 0.86731(14) 0.4395(3)
H20_7 H 0.8706 0.8813 0.3959
C19_7 C 0.84815(14) 0.84549(13) 0.4533(3)
C20_7 C 0.81864(14) 0.84525(13) 0.4048(3)
C21_8 C 0.74330(15) 0.80959(15) 0.3918(3)
C22_8 C 0.70959(15) 0.81201(18) 0.3531(4)
H21_8 H 0.7080 0.8336 0.3271
H22_8 H 0.7081 0.7947 0.3132
C23_8 C 0.6809(2) 0.8084(4) 0.4059(8)
H23_8 H 0.6847 0.7898 0.4407
H24_8 H 0.6609 0.8044 0.3758
H25_8 H 0.6782 0.8287 0.4360
C24_6 C 0.7337(3) 0.8153(2) 0.6056(5)
H26_6 H 0.7254 0.7942 0.5920
C25_6 C 0.7139(3) 0.8357(3) 0.6512(6)
H27_6 H 0.6921 0.8300 0.6652
C26_6 C 0.7289(3) 0.8655(2) 0.6748(5)
C27_5 C 0.7542(3) 0.8738(2) 0.6448(5)
H28_5 H 0.7624 0.8955 0.6524
C28_5 C 0.7714(3) 0.8519(2) 0.5991(4)
H29_5 H 0.7920 0.8591 0.5794
C29_6 C 0.7106(4) 0.8903(3) 0.7305(7)
H30_9 H 0.7274 0.9022 0.7609
H31_6 H 0.6988 0.9067 0.6989
Mn3_5 Mn 0.72063(2) 0.63659(2) 0.22388(5)
O8_8 O 0.74096(10) 0.59921(9) 0.1868(2)
O9_7 O 0.80294(9) 0.63417(8) 0.3649(2)
O10_8 O 0.70515(9) 0.67616(9) 0.2734(2)
N7_7 N 0.75626(10) 0.64353(10) 0.2959(2)
N8_7 N 0.75364(11) 0.67272(11) 0.3382(3)
N9_5 N 0.64233(12) 0.94049(12) 0.9402(3)
C30_8 C 0.76590(14) 0.58162(14) 0.2159(3)
C31_8 C 0.77254(16) 0.55131(15) 0.1845(3)
H32_8 H 0.7594 0.5437 0.1429
C32_8 C 0.79734(17) 0.53173(16) 0.2109(4)
H33_8 H 0.8009 0.5107 0.1883
C33_7 C 0.81757(16) 0.54229(15) 0.2710(3)
H34_7 H 0.8349 0.5288 0.2899
C34_7 C 0.81169(14) 0.57236(14) 0.3014(3)
H35_7 H 0.8256 0.5798 0.3418
C35_7 C 0.78633(13) 0.59322(12) 0.2769(3)
C36_7 C 0.78166(13) 0.62464(12) 0.3142(3)
C37_8 C 0.72625(14) 0.68767(13) 0.3231(3)
C38_8 C 0.7167(2) 0.71822(19) 0.3655(5)
H36_8 H 0.7363 0.7279 0.3907
H37_8 H 0.7076 0.7347 0.3294
C39_8 C 0.6885(3) 0.7083(3) 0.4315(6)
H38_8 H 0.6937 0.6867 0.4533
H39_8 H 0.6886 0.7249 0.4725
H40_8 H 0.6667 0.7076 0.4075
C40_9 C 0.66481(17) 0.91937(16) 0.9612(4)
C41_9 C 0.68050(19) 0.8980(2) 0.9117(4)
H42_9 H 0.6964 0.8828 0.9305
C42_9 C 0.6728(2) 0.8992(2) 0.8335(4)
C43_9 C 0.6502(2) 0.9225(2) 0.8129(4)
H43_9 H 0.6446 0.9248 0.7603
C44_9 C 0.63563(19) 0.94208(18) 0.8648(4)
H44_9 H 0.6199 0.9577 0.8475
C45_9 C 0.6891(2) 0.8763(3) 0.7791(5)
H45_9 H 0.7008 0.8592 0.8091
H46_6 H 0.6719 0.8651 0.7486
O11_5 O 0.68253(9) 0.63430(9) 0.1518(2)
N10_5 N 0.73468(11) 0.66930(11) 0.1247(3)
N11_6 N 0.69049(12) 0.60767(12) 0.3098(3)
H30_10 H 0.1522 0.5226 0.0109
N9_6 N 0.19049(12) 0.60767(12) 0.1902(3)
C40_10 C 0.16937(16) 0.58519(17) 0.2112(4)
H41_7 H 0.1687 0.5793 0.2639
C41_10 C 0.1480(2) 0.56950(19) 0.1617(4)
H42_10 H 0.1328 0.5536 0.1805
C42_10 C 0.1492(2) 0.5772(2) 0.0835(4)
C43_10 C 0.1725(2) 0.5998(2) 0.0629(4)
H43_10 H 0.1748 0.6054 0.0103
C44_10 C 0.19208(18) 0.61437(19) 0.1148(4)
H44_10 H 0.2077 0.6301 0.0975
C45_10 C 0.1263(3) 0.5609(2) 0.0291(5)
H45_10 H 0.1092 0.5492 0.0591
Mn1_8 Mn 0.42527(2) 0.45421(2) 0.82733(5)
O1_8 O 0.40433(10) 0.47907(11) 0.7521(3)
O2_6 O 0.50450(10) 0.47323(11) 0.6837(2)
O3_8 O 0.45387(8) 0.42945(9) 0.8963(2)
N1_8 N 0.46696(10) 0.46029(11) 0.7760(2)
N2_8 N 0.49398(10) 0.44482(11) 0.8135(2)
O4_8 O 0.41247(11) 0.40572(11) 0.7710(3)
C1_6 C 0.41691(18) 0.49441(17) 0.6919(4)
C2_7 C 0.3961(2) 0.5140(2) 0.6474(5)
H1_7 H 0.3739 0.5169 0.6632
C3_7 C 0.4065(3) 0.5288(3) 0.5828(6)
H2_7 H 0.3916 0.5426 0.5558
C4_7 C 0.4372(3) 0.5250(2) 0.5547(6)
H3_7 H 0.4436 0.5350 0.5077
C5_7 C 0.4596(2) 0.5054(2) 0.5983(5)
H4_7 H 0.4814 0.5018 0.5799
C6_6 C 0.44980(16) 0.49173(16) 0.6672(3)
C7_6 C 0.47529(16) 0.47406(15) 0.7093(3)
C8_8 C 0.48426(12) 0.43008(13) 0.8752(3)
C9_8 C 0.50977(14) 0.41266(15) 0.9234(3)
H5_8 H 0.5223 0.4294 0.9524
H6_8 H 0.5254 0.4014 0.8885
C10_8 C 0.4970(3) 0.3884(3) 0.9779(10)
H7_8 H 0.4917 0.3680 0.9506
N3_8 N 0.4061(5) 0.3492(3) 0.7620(8)
C11_8 C 0.4232(4) 0.3832(4) 0.7812(18)
H10_8 H 0.4445 0.3828 0.8034
C12_6 C 0.3916(4) 0.3569(5) 0.6974(8)
H11_6 H 0.3961 0.3398 0.6591
H12_6 H 0.3678 0.3586 0.7057
H13_6 H 0.4001 0.3781 0.6790
C13_8 C 0.4193(6) 0.3211(4) 0.8057(14)
H14_8 H 0.4223 0.3023 0.7711
H15_8 H 0.4405 0.3271 0.8284
H16_8 H 0.4038 0.3151 0.8465
Mn2_8 Mn 0.54052(2) 0.46129(2) 0.75454(5)
O5_6 O 0.55055(10) 0.42035(11) 0.7133(2)
O7_9 O 0.53674(9) 0.50326(10) 0.8061(2)
N4_8 N 0.57554(11) 0.45676(11) 0.8290(2)
N6_6 N 0.57346(14) 0.48771(19) 0.6687(3)
C14_6 C 0.57259(15) 0.39853(16) 0.7335(4)
C15_6 C 0.57562(17) 0.3701(2) 0.6898(4)
H17_6 H 0.5609 0.3669 0.6481
C16_6 C 0.59881(18) 0.34639(18) 0.7037(4)
H18_6 H 0.6001 0.3275 0.6718
C17_8 C 0.62039(18) 0.35016(16) 0.7649(4)
H19_8 H 0.6369 0.3342 0.7749
C18_8 C 0.61731(14) 0.37751(14) 0.8105(3)
H20_8 H 0.6313 0.3794 0.8541
C19_8 C 0.59549(13) 0.40185(14) 0.7967(3)
C20_8 C 0.59525(13) 0.43136(14) 0.8452(3)
C21_9 C 0.55959(15) 0.50670(15) 0.8582(3)
C22_9 C 0.56201(18) 0.54041(15) 0.8969(4)
H21_9 H 0.5836 0.5420 0.9229
H22_9 H 0.5447 0.5419 0.9368
C23_9 C 0.5584(4) 0.5691(2) 0.8441(8)
H23_9 H 0.5398 0.5653 0.8093
H24_9 H 0.5544 0.5891 0.8742
H25_9 H 0.5787 0.5718 0.8140
C24_7 C 0.5653(2) 0.5163(3) 0.6444(5)
H26_7 H 0.5442 0.5246 0.6580
C25_7 C 0.5857(3) 0.5361(3) 0.5988(6)
H27_7 H 0.5800 0.5579 0.5848
C26_7 C 0.6155(2) 0.5211(3) 0.5752(5)
C27_6 C 0.6238(2) 0.4958(3) 0.6052(5)
H28_6 H 0.6455 0.4876 0.5976
C28_6 C 0.6019(2) 0.4786(3) 0.6509(4)
H29_6 H 0.6091 0.4580 0.6706
C29_7 C 0.6403(3) 0.5394(4) 0.5195(7)
H30_11 H 0.6522 0.5226 0.4891
H31_7 H 0.6567 0.5512 0.5511
O9_8 O 0.38417(8) 0.44706(9) 0.8851(2)
O10_9 O 0.42616(9) 0.54485(9) 0.9766(2)
N7_8 N 0.39353(10) 0.49374(10) 0.9541(2)
N8_8 N 0.42272(11) 0.49636(11) 0.9118(3)
C33_8 C 0.29229(15) 0.43243(16) 0.9790(3)
H34_8 H 0.2788 0.4151 0.9601
C34_8 C 0.32236(14) 0.43831(14) 0.9486(3)
H35_8 H 0.3298 0.4244 0.9082
C35_8 C 0.34322(12) 0.46367(13) 0.9731(3)
C36_8 C 0.37464(12) 0.46834(13) 0.9358(3)
C37_9 C 0.43767(13) 0.52375(14) 0.9269(3)
C38_9 C 0.46822(19) 0.5333(2) 0.8845(5)
H36_9 H 0.4779 0.5137 0.8593
H37_9 H 0.4847 0.5424 0.9206
C39_9 C 0.4583(3) 0.5615(3) 0.8185(6)
H38_9 H 0.4367 0.5563 0.7967
H39_9 H 0.4749 0.5614 0.7775
H40_9 H 0.4576 0.5833 0.8425
C40_11 C 0.66937(16) 0.58519(17) 0.2888(4)
H41_8 H 0.6687 0.5793 0.2361
C41_11 C 0.6480(2) 0.56950(19) 0.3383(4)
H42_11 H 0.6328 0.5536 0.3195
C42_11 C 0.6492(2) 0.5772(2) 0.4165(4)
C43_11 C 0.6725(2) 0.5998(2) 0.4371(4)
H43_11 H 0.6748 0.6054 0.4897
C44_11 C 0.69208(18) 0.61437(19) 0.3852(4)
H44_11 H 0.7077 0.6301 0.4025
C45_11 C 0.6263(3) 0.5609(2) 0.4709(5)
H45_11 H 0.6092 0.5492 0.4409
H46_7 H 0.6151 0.5781 0.5014
H41_9 H 0.6707 0.4187 0.9861
Mn1_9 Mn 0.29579(2) 0.67527(2) 0.07733(5)
O1_9 O 0.27093(11) 0.65433(10) 0.0021(3)
O3_9 O 0.32055(9) 0.70387(8) 0.1463(2)
N1_9 N 0.28971(11) 0.71696(10) 0.0260(2)
N2_9 N 0.30518(11) 0.74398(10) 0.0635(2)
O4_9 O 0.34428(11) 0.66247(11) 0.0210(3)
C8_9 C 0.31992(13) 0.73426(12) 0.1252(3)
C9_9 C 0.33734(15) 0.75977(14) 0.1734(3)
H5_9 H 0.3206 0.7723 0.2024
H6_9 H 0.3486 0.7754 0.1385
C10_9 C 0.3616(3) 0.7470(3) 0.2279(10)
H7_9 H 0.3820 0.7417 0.2006
H8_9 H 0.3661 0.7637 0.2671
H9_9 H 0.3529 0.7271 0.2524
N3_9 N 0.4008(3) 0.6561(5) 0.0120(8)
C11_9 C 0.3668(4) 0.6732(4) 0.0312(18)
H10_9 H 0.3672 0.6945 0.0534
C13_9 C 0.4289(4) 0.6693(6) 0.0557(14)
H14_9 H 0.4477 0.6723 0.0211
H15_9 H 0.4229 0.6905 0.0784
H16_9 H 0.4349 0.6538 0.0965
Mn2_9 Mn 0.28871(2) 0.79052(2) 0.00454(5)
O7_10 O 0.24674(10) 0.78674(9) 0.0561(2)
N4_9 N 0.29324(11) 0.82554(11) 0.0790(2)
C17_9 C 0.39984(16) 0.87039(18) 0.0149(4)
H19_9 H 0.4158 0.8869 0.0249
C18_9 C 0.37249(14) 0.86731(14) 0.0605(3)
H20_9 H 0.3706 0.8813 0.1041
C19_9 C 0.34815(14) 0.84549(13) 0.0467(3)
C20_9 C 0.31864(14) 0.84525(13) 0.0952(3)
C21_10 C 0.24330(15) 0.80959(15) 0.1082(3)
C22_10 C 0.20959(15) 0.81201(18) 0.1469(4)
H21_10 H 0.2080 0.8336 0.1729
H22_10 H 0.2081 0.7947 0.1868
C23_10 C 0.1809(2) 0.8084(4) 0.0941(8)
H23_10 H 0.1847 0.7898 0.0593
H24_10 H 0.1609 0.8044 0.1242
H25_10 H 0.1782 0.8287 0.0640
O8_9 O 0.24096(10) 0.59921(9) 0.3132(2)
O9_9 O 0.30294(9) 0.63417(8) 0.1351(2)
O10_10 O 0.20515(9) 0.67616(9) 0.2266(2)
N7_9 N 0.25626(10) 0.64353(10) 0.2041(2)
N8_9 N 0.25364(11) 0.67272(11) 0.1618(3)
C30_9 C 0.26590(14) 0.58162(14) 0.2841(3)
C31_9 C 0.27254(16) 0.55131(15) 0.3155(3)
H32_9 H 0.2594 0.5437 0.3571
C32_9 C 0.29734(17) 0.53173(16) 0.2891(4)
H33_9 H 0.3009 0.5107 0.3117
C33_9 C 0.31757(16) 0.54229(15) 0.2290(3)
H34_9 H 0.3349 0.5288 0.2101
C34_9 C 0.31169(14) 0.57236(14) 0.1986(3)
H35_9 H 0.3256 0.5798 0.1582
C35_9 C 0.28633(13) 0.59322(12) 0.2231(3)
C36_9 C 0.28166(13) 0.62464(12) 0.1858(3)
C37_10 C 0.22625(14) 0.68767(13) 0.1769(3)
C38_10 C 0.2167(2) 0.71822(19) 0.1345(5)
H36_10 H 0.2363 0.7279 0.1093
H37_10 H 0.2076 0.7347 0.1706
C39_10 C 0.1885(3) 0.7083(3) 0.0685(6)
H38_10 H 0.1937 0.6867 0.0467
H39_10 H 0.1886 0.7249 0.0275
H40_10 H 0.1667 0.7076 0.0925
Mn1_10 Mn 0.70421(2) 0.82473(2) 0.07733(5)
O1_10 O 0.72907(11) 0.84567(10) 0.0021(3)
O3_10 O 0.67945(9) 0.79613(8) 0.1463(2)
N1_10 N 0.71029(11) 0.78304(10) 0.0260(2)
N2_10 N 0.69482(11) 0.75602(10) 0.0635(2)
O4_10 O 0.65572(11) 0.83753(11) 0.0210(3)
C8_10 C 0.68008(13) 0.76574(12) 0.1252(3)
C9_10 C 0.66266(15) 0.74023(14) 0.1734(3)
H5_10 H 0.6794 0.7277 0.2024
H6_10 H 0.6514 0.7246 0.1385
C10_10 C 0.6384(3) 0.7530(3) 0.2279(10)
H7_10 H 0.6180 0.7583 0.2006
H8_10 H 0.6339 0.7363 0.2671
H9_10 H 0.6471 0.7729 0.2524
N3_10 N 0.5992(3) 0.8439(5) 0.0120(8)
C11_10 C 0.6332(4) 0.8268(4) 0.0312(18)
H10_10 H 0.6328 0.8055 0.0534
C13_10 C 0.5711(4) 0.8307(6) 0.0557(14)
H14_10 H 0.5523 0.8277 0.0211
H15_10 H 0.5771 0.8095 0.0784
H16_10 H 0.5651 0.8462 0.0965
Mn2_10 Mn 0.71129(2) 0.70948(2) 0.00454(5)
O7_11 O 0.75326(10) 0.71326(9) 0.0561(2)
N4_10 N 0.70676(11) 0.67446(11) 0.0790(2)
C17_10 C 0.60016(16) 0.62961(18) 0.0149(4)
H19_10 H 0.5842 0.6131 0.0249
C18_10 C 0.62751(14) 0.63269(14) 0.0605(3)
H20_10 H 0.6294 0.6187 0.1041
C19_10 C 0.65185(14) 0.65451(13) 0.0467(3)
C20_10 C 0.68136(14) 0.65475(13) 0.0952(3)
C21_11 C 0.75670(15) 0.69041(15) 0.1082(3)
C22_11 C 0.79041(15) 0.68799(18) 0.1469(4)
H21_11 H 0.7920 0.6664 0.1729
H22_11 H 0.7919 0.7053 0.1868
C23_11 C 0.8191(2) 0.6916(4) 0.0941(8)
H23_11 H 0.8153 0.7102 0.0593
H24_11 H 0.8391 0.6956 0.1242
H25_11 H 0.8218 0.6713 0.0640
O8_10 O 0.75904(10) 0.90079(9) 0.3132(2)
O9_10 O 0.69706(9) 0.86583(8) 0.1351(2)
O10_11 O 0.79485(9) 0.82384(9) 0.2266(2)
N7_10 N 0.74374(10) 0.85647(10) 0.2041(2)
N8_10 N 0.74636(11) 0.82728(11) 0.1618(3)
C30_10 C 0.73410(14) 0.91838(14) 0.2841(3)
C31_10 C 0.72746(16) 0.94869(15) 0.3155(3)
H32_10 H 0.7406 0.9563 0.3571
C32_10 C 0.70266(17) 0.96827(16) 0.2891(4)
H33_10 H 0.6991 0.9893 0.3117
C33_10 C 0.68243(16) 0.95771(15) 0.2290(3)
H34_10 H 0.6651 0.9712 0.2101
C34_10 C 0.68831(14) 0.92764(14) 0.1986(3)
H35_10 H 0.6744 0.9202 0.1582
C35_10 C 0.71367(13) 0.90678(12) 0.2231(3)
C36_10 C 0.71834(13) 0.87536(12) 0.1858(3)
C37_11 C 0.77375(14) 0.81233(13) 0.1769(3)
C38_11 C 0.7833(2) 0.78178(19) 0.1345(5)
H36_11 H 0.7637 0.7721 0.1093
H37_11 H 0.7924 0.7653 0.1706
C39_11 C 0.8115(3) 0.7917(3) 0.0685(6)
H38_11 H 0.8063 0.8133 0.0467
H39_11 H 0.8114 0.7751 0.0275
H40_11 H 0.8333 0.7924 0.0925
C2_8 C 0.6039(2) 0.9860(2) 0.6474(5)
H1_8 H 0.6261 0.9831 0.6632
C3_8 C 0.5935(3) 0.9712(3) 0.5828(6)
H2_8 H 0.6084 0.9574 0.5558
C4_8 C 0.5628(3) 0.9750(2) 0.5547(6)
H3_8 H 0.5564 0.9650 0.5077
C5_8 C 0.5404(2) 0.9946(2) 0.5983(5)
H4_8 H 0.5186 0.9982 0.5799
O7_12 O 0.46326(9) 0.99674(10) 0.8061(2)
C21_12 C 0.44041(15) 0.99330(15) 0.8582(3)
C22_12 C 0.43799(18) 0.95959(15) 0.8969(4)
H21_12 H 0.4164 0.9580 0.9229
H22_12 H 0.4553 0.9581 0.9368
C23_12 C 0.4416(4) 0.9309(2) 0.8441(8)
H23_12 H 0.4602 0.9347 0.8093
H24_12 H 0.4456 0.9109 0.8742
H25_12 H 0.4213 0.9282 0.8140
C24_8 C 0.4347(2) 0.9837(3) 0.6444(5)
H26_8 H 0.4558 0.9754 0.6580
C25_8 C 0.4143(3) 0.9639(3) 0.5988(6)
H27_8 H 0.4200 0.9421 0.5848
C26_8 C 0.3845(2) 0.9789(3) 0.5752(5)
C29_8 C 0.3597(3) 0.9606(4) 0.5195(7)
H30_12 H 0.3478 0.9774 0.4891
H31_8 H 0.3433 0.9488 0.5511
O10_12 O 0.57384(9) 0.95515(9) 0.9766(2)
C37_12 C 0.56233(13) 0.97625(14) 0.9269(3)
C38_12 C 0.53178(19) 0.9667(2) 0.8845(5)
H36_12 H 0.5221 0.9863 0.8593
H37_12 H 0.5153 0.9576 0.9206
C39_12 C 0.5417(3) 0.9385(3) 0.8185(6)
H38_12 H 0.5633 0.9437 0.7967
H39_12 H 0.5251 0.9386 0.7775
H40_12 H 0.5424 0.9167 0.8425
C40_12 C 0.33063(16) 0.91481(17) 0.2888(4)
H41_10 H 0.3313 0.9207 0.2361
C41_12 C 0.3520(2) 0.93050(19) 0.3383(4)
H42_12 H 0.3672 0.9464 0.3195
C42_12 C 0.3508(2) 0.9228(2) 0.4165(4)
C43_12 C 0.3275(2) 0.9002(2) 0.4371(4)
H43_12 H 0.3252 0.8946 0.4897
C44_12 C 0.30792(18) 0.88563(19) 0.3852(4)
H44_12 H 0.2923 0.8699 0.4025
C45_12 C 0.3737(3) 0.9391(2) 0.4709(5)
H45_12 H 0.3908 0.9508 0.4409
H46_8 H 0.3849 0.9219 0.5014
Mn1_11 Mn 0.07473(2) 0.04579(2) 0.67267(5)
O1_11 O 0.09567(10) 0.02093(11) 0.7479(3)
O3_11 O 0.04613(8) 0.07055(9) 0.6037(2)
N1_11 N 0.03304(10) 0.03971(11) 0.7240(2)
N2_11 N 0.00602(10) 0.05518(11) 0.6865(2)
O4_11 O 0.08753(11) 0.09428(11) 0.7290(3)
C1_7 C 0.08309(18) 0.00559(17) 0.8081(4)
C6_7 C 0.05020(16) 0.00827(16) 0.8328(3)
C7_7 C 0.02471(16) 0.02594(15) 0.7907(3)
C8_11 C 0.01574(12) 0.06992(13) 0.6248(3)
C10_11 C 0.0030(3) 0.1116(3) 0.5221(10)
H7_11 H 0.0083 0.1320 0.5494
H9_11 H 0.0229 0.1029 0.4976
N3_11 N 0.0939(5) 0.1508(3) 0.7380(8)
C11_11 C 0.0768(4) 0.1168(4) 0.7188(18)
H10_11 H 0.0555 0.1172 0.6966
C12_7 C 0.1084(4) 0.1431(5) 0.8026(8)
H11_7 H 0.1039 0.1602 0.8409
H12_7 H 0.1322 0.1414 0.7943
H13_7 H 0.0999 0.1219 0.8210
C13_11 C 0.0807(6) 0.1789(4) 0.6943(14)
H14_11 H 0.0777 0.1977 0.7289
H15_11 H 0.0595 0.1729 0.6716
H16_11 H 0.0962 0.1849 0.6535
O9_11 O 0.11583(8) 0.05294(9) 0.6149(2)
N7_11 N 0.10647(10) 0.00626(10) 0.5459(2)
N8_11 N 0.07728(11) 0.00364(11) 0.5882(3)
C30_11 C 0.16838(14) 0.01590(14) 0.4659(3)
C31_11 C 0.19869(15) 0.02254(16) 0.4345(3)
H32_11 H 0.2063 0.0094 0.3929
C32_11 C 0.21827(16) 0.04734(17) 0.4609(4)
H33_11 H 0.2393 0.0509 0.4383
C33_11 C 0.20771(15) 0.06757(16) 0.5210(3)
H34_11 H 0.2212 0.0849 0.5399
C34_11 C 0.17764(14) 0.06169(14) 0.5514(3)
H35_11 H 0.1702 0.0756 0.5918
C35_11 C 0.15678(12) 0.03633(13) 0.5269(3)
C36_11 C 0.12536(12) 0.03166(13) 0.5642(3)
C2_9 C 0.1039(2) 0.9860(2) 0.8526(5)
H1_9 H 0.1261 0.9831 0.8368
C3_9 C 0.0935(3) 0.9712(3) 0.9172(6)
H2_9 H 0.1084 0.9574 0.9442
C4_9 C 0.0628(3) 0.9750(2) 0.9453(6)
H3_9 H 0.0564 0.9650 0.9923
C5_9 C 0.0404(2) 0.9946(2) 0.9017(5)
H4_9 H 0.0186 0.9982 0.9201
Mn3_6 Mn 0.11341(2) 0.97063(2) 0.47388(5)
O8_11 O 0.15079(9) 0.99096(10) 0.4368(2)
O10_13 O 0.07384(9) 0.95515(9) 0.5234(2)
C37_13 C 0.06233(13) 0.97625(14) 0.5731(3)
C38_13 C 0.03178(19) 0.9667(2) 0.6155(5)
H36_13 H 0.0221 0.9863 0.6407
H37_13 H 0.0153 0.9576 0.5794
C39_13 C 0.0417(3) 0.9385(3) 0.6815(6)
H38_13 H 0.0633 0.9437 0.7033
H39_13 H 0.0251 0.9386 0.7225
H40_13 H 0.0424 0.9167 0.6575
O11_6 O 0.11570(9) 0.93253(9) 0.4018(2)
N10_6 N 0.08070(11) 0.98468(11) 0.3747(3)
N11_7 N 0.14233(12) 0.94049(12) 0.5598(3)
O2_7 O 0.00450(10) 0.97323(11) 0.1837(2)
C9_11 C 0.00977(14) 0.91266(15) 0.4234(3)
H5_11 H 0.0223 0.9294 0.4524
H6_11 H 0.0254 0.9014 0.3885
H8_11 H 0.0137 0.8839 0.5171
Mn2_11 Mn 0.04052(2) 0.96129(2) 0.25454(5)
O5_7 O 0.05055(10) 0.92035(11) 0.2133(2)
N4_11 N 0.07554(11) 0.95676(11) 0.3290(2)
N6_7 N 0.07346(14) 0.98771(19) 0.1687(3)
C14_7 C 0.07259(15) 0.89853(16) 0.2335(4)
C15_7 C 0.07562(17) 0.8701(2) 0.1898(4)
H17_7 H 0.0609 0.8669 0.1481
C16_7 C 0.09881(18) 0.84639(18) 0.2037(4)
H18_7 H 0.1001 0.8275 0.1718
C17_11 C 0.12039(18) 0.85016(16) 0.2649(4)
H19_11 H 0.1369 0.8342 0.2749
C18_11 C 0.11731(14) 0.87751(14) 0.3105(3)
H20_11 H 0.1313 0.8794 0.3541
C19_11 C 0.09549(13) 0.90185(14) 0.2967(3)
C20_11 C 0.09525(13) 0.93136(14) 0.3452(3)
C27_7 C 0.1238(2) 0.9958(3) 0.1052(5)
H28_7 H 0.1455 0.9876 0.0976
C28_7 C 0.1019(2) 0.9786(3) 0.1509(4)
H29_7 H 0.1091 0.9580 0.1706
O2_8 O 0.27677(11) 0.75450(10) 0.9337(2)
C1_8 C 0.25559(17) 0.66691(18) 0.9419(4)
C2_10 C 0.2360(2) 0.6461(2) 0.8974(5)
H1_10 H 0.2331 0.6239 0.9132
C3_10 C 0.2212(3) 0.6565(3) 0.8328(6)
H2_10 H 0.2074 0.6416 0.8058
C4_10 C 0.2250(2) 0.6872(3) 0.8047(6)
H3_10 H 0.2150 0.6936 0.7577
C5_10 C 0.2446(2) 0.7096(2) 0.8483(5)
H4_10 H 0.2482 0.7314 0.8299
C6_8 C 0.25827(16) 0.69980(16) 0.9172(3)
C7_8 C 0.27594(15) 0.72529(16) 0.9593(3)
C12_8 C 0.3931(5) 0.6416(4) 0.9474(8)
H11_8 H 0.4102 0.6461 0.9091
H12_8 H 0.3914 0.6178 0.9557
H13_8 H 0.3719 0.6501 0.9290
O5_8 O 0.32965(11) 0.80055(10) 0.9633(2)
N6_8 N 0.26229(19) 0.82346(14) 0.9187(3)
C14_8 C 0.35147(16) 0.82259(15) 0.9835(4)
C15_8 C 0.3799(2) 0.82562(17) 0.9398(4)
H17_8 H 0.3831 0.8109 0.8981
C16_8 C 0.40361(18) 0.84881(18) 0.9537(4)
H18_8 H 0.4225 0.8501 0.9218
C24_9 C 0.2337(3) 0.8153(2) 0.8944(5)
H26_9 H 0.2254 0.7942 0.9080
C25_9 C 0.2139(3) 0.8357(3) 0.8488(6)
H27_9 H 0.1921 0.8300 0.8348
C26_9 C 0.2289(3) 0.8655(2) 0.8252(5)
C27_8 C 0.2542(3) 0.8738(2) 0.8552(5)
H28_8 H 0.2624 0.8955 0.8476
C28_8 C 0.2714(3) 0.8519(2) 0.9009(4)
H29_8 H 0.2920 0.8591 0.9206
C29_9 C 0.2106(4) 0.8903(3) 0.7695(7)
H30_13 H 0.2274 0.9022 0.7391
H31_9 H 0.1988 0.9067 0.8011
C40_13 C 0.16481(17) 0.91937(16) 0.5388(4)
H41_11 H 0.1707 0.9187 0.4861
C41_13 C 0.18050(19) 0.8980(2) 0.5883(4)
H42_13 H 0.1964 0.8828 0.5695
C42_13 C 0.1728(2) 0.8992(2) 0.6665(4)
C43_13 C 0.1502(2) 0.9225(2) 0.6871(4)
H43_13 H 0.1446 0.9248 0.7397
C44_13 C 0.13563(19) 0.94208(18) 0.6352(4)
H44_13 H 0.1199 0.9577 0.6525
C45_13 C 0.1891(2) 0.8763(3) 0.7209(5)
H45_13 H 0.2008 0.8592 0.6909
H46_9 H 0.1719 0.8651 0.7514
O2_9 O 0.99550(10) 0.02677(11) 0.8163(2)
C9_12 C 0.99023(14) 0.08734(15) 0.5766(3)
H5_12 H 0.9777 0.0706 0.5476
H6_12 H 0.9746 0.0986 0.6115
H8_12 H 0.9863 0.1161 0.4829
Mn2_12 Mn 0.95948(2) 0.03871(2) 0.74546(5)
O5_9 O 0.94945(10) 0.07965(11) 0.7867(2)
O6_6 O 0.88430(9) 0.06747(9) 0.5982(2)
N4_12 N 0.92446(11) 0.04324(11) 0.6710(2)
N5_6 N 0.91930(11) 0.01532(11) 0.6253(3)
N6_9 N 0.92654(14) 0.01229(19) 0.8313(3)
C14_9 C 0.92741(15) 0.10147(16) 0.7665(4)
C15_9 C 0.92438(17) 0.1299(2) 0.8102(4)
H17_9 H 0.9391 0.1331 0.8519
C16_9 C 0.90119(18) 0.15361(18) 0.7963(4)
H18_9 H 0.8999 0.1725 0.8282
C17_12 C 0.87961(18) 0.14984(16) 0.7351(4)
H19_12 H 0.8631 0.1658 0.7251
C18_12 C 0.88269(14) 0.12249(14) 0.6895(3)
H20_12 H 0.8687 0.1206 0.6459
C19_12 C 0.90451(13) 0.09815(14) 0.7033(3)
C20_12 C 0.90475(13) 0.06864(14) 0.6548(3)
C27_9 C 0.8762(2) 0.0042(3) 0.8948(5)
H28_9 H 0.8545 0.0124 0.9024
C28_9 C 0.8981(2) 0.0214(3) 0.8491(4)
H29_9 H 0.8909 0.0420 0.8294
Mn4_4 Mn 0.88659(2) 0.02937(2) 0.52612(5)
O2_10 O 0.72323(11) 0.24550(10) 0.0663(2)
C1_9 C 0.74441(17) 0.33309(18) 0.0581(4)
C2_11 C 0.7640(2) 0.3539(2) 0.1026(5)
H1_11 H 0.7669 0.3761 0.0868
C3_11 C 0.7788(3) 0.3435(3) 0.1672(6)
H2_11 H 0.7926 0.3584 0.1942
C4_11 C 0.7750(2) 0.3128(3) 0.1953(6)
H3_11 H 0.7850 0.3064 0.2423
C5_11 C 0.7554(2) 0.2904(2) 0.1517(5)
H4_11 H 0.7518 0.2686 0.1701
C6_9 C 0.74173(16) 0.30020(16) 0.0828(3)
C7_9 C 0.72406(15) 0.27471(16) 0.0407(3)
C12_9 C 0.6069(5) 0.3584(4) 0.0526(8)
H11_9 H 0.5898 0.3539 0.0909
H12_9 H 0.6086 0.3822 0.0443
H13_9 H 0.6281 0.3499 0.0710
O5_10 O 0.67035(11) 0.19945(10) 0.0367(2)
N6_10 N 0.73771(19) 0.17654(14) 0.0813(3)
C14_10 C 0.64853(16) 0.17741(15) 0.0165(4)
C15_10 C 0.6201(2) 0.17438(17) 0.0602(4)
H17_10 H 0.6169 0.1891 0.1019
C16_10 C 0.59639(18) 0.15119(18) 0.0463(4)
H18_10 H 0.5775 0.1499 0.0782
C24_10 C 0.7663(3) 0.1847(2) 0.1056(5)
H26_10 H 0.7746 0.2058 0.0920
C25_10 C 0.7861(3) 0.1643(3) 0.1512(6)
H27_10 H 0.8079 0.1700 0.1652
C26_10 C 0.7711(3) 0.1345(2) 0.1748(5)
C27_10 C 0.7458(3) 0.1262(2) 0.1448(5)
H28_10 H 0.7376 0.1045 0.1524
C28_10 C 0.7286(3) 0.1481(2) 0.0991(4)
H29_10 H 0.7080 0.1409 0.0794
C29_10 C 0.7894(4) 0.1097(3) 0.2305(7)
H30_14 H 0.7726 0.0978 0.2609
H31_10 H 0.8012 0.0933 0.1989
N9_7 N 0.85767(12) 0.05951(12) 0.4402(3)
C40_14 C 0.83519(17) 0.08063(16) 0.4612(4)
H41_12 H 0.8293 0.0813 0.5139
C41_14 C 0.81950(19) 0.1020(2) 0.4117(4)
H42_14 H 0.8036 0.1172 0.4305
C42_14 C 0.8272(2) 0.1008(2) 0.3335(4)
C43_14 C 0.8498(2) 0.0775(2) 0.3129(4)
H43_14 H 0.8554 0.0752 0.2603
C44_14 C 0.86437(19) 0.05792(18) 0.3648(4)
H44_14 H 0.8801 0.0423 0.3475
C45_14 C 0.8109(2) 0.1237(3) 0.2791(5)
H45_14 H 0.7992 0.1408 0.3091
H46_10 H 0.8281 0.1349 0.2486
C2_12 C 0.8961(2) 0.0140(2) 0.1474(5)
H1_12 H 0.8739 0.0169 0.1632
C3_12 C 0.9065(3) 0.0288(3) 0.0828(6)
H2_12 H 0.8916 0.0426 0.0558
C4_12 C 0.9372(3) 0.0250(2) 0.0547(6)
H3_12 H 0.9436 0.0350 0.0077
C5_12 C 0.9596(2) 0.0054(2) 0.0983(5)
H4_12 H 0.9814 0.0018 0.0799
O8_12 O 0.84921(9) 0.00904(10) 0.5632(2)
O10_14 O 0.92616(9) 0.04485(9) 0.4766(2)
C37_14 C 0.93767(13) 0.02375(14) 0.4269(3)
C38_14 C 0.96822(19) 0.0333(2) 0.3845(5)
H36_14 H 0.9779 0.0137 0.3593
H37_14 H 0.9847 0.0424 0.4206
C39_14 C 0.9583(3) 0.0615(3) 0.3185(6)
H38_14 H 0.9367 0.0563 0.2967
H39_14 H 0.9749 0.0614 0.2775
H40_14 H 0.9576 0.0833 0.3425
O7_13 O 0.96326(9) 0.99674(10) 0.6939(2)
C21_13 C 0.94041(15) 0.99330(15) 0.6418(3)
C22_13 C 0.93799(18) 0.95959(15) 0.6031(4)
H21_13 H 0.9164 0.9580 0.5771
H22_13 H 0.9553 0.9581 0.5632
C23_13 C 0.9416(4) 0.9309(2) 0.6559(8)
H23_13 H 0.9602 0.9347 0.6907
H24_13 H 0.9456 0.9109 0.6258
H25_13 H 0.9213 0.9282 0.6860
C24_11 C 0.9347(2) 0.9837(3) 0.8556(5)
H26_11 H 0.9558 0.9754 0.8420
C25_11 C 0.9143(3) 0.9639(3) 0.9012(6)
H27_11 H 0.9200 0.9421 0.9152
C26_11 C 0.8845(2) 0.9789(3) 0.9248(5)
C29_11 C 0.8597(3) 0.9606(4) 0.9805(7)
H31_11 H 0.8433 0.9488 0.9489
H46_11 H 0.8849 0.9219 0.9986
H41_13 H 0.6707 0.9187 0.0139
Mn5_3 Mn 0.61341(2) 0.97063(2) 0.02612(5)
Mn1_12 Mn 0.42527(2) 0.95421(2) 0.17267(5)
O1_12 O 0.40433(10) 0.97907(11) 0.2479(3)
O2_11 O 0.50450(10) 0.97323(11) 0.3163(2)
O3_12 O 0.45387(8) 0.92945(9) 0.1037(2)
N1_12 N 0.46696(10) 0.96029(11) 0.2240(2)
N2_12 N 0.49398(10) 0.94482(11) 0.1865(2)
O4_12 O 0.41247(11) 0.90572(11) 0.2290(3)
C1_10 C 0.41691(18) 0.99441(17) 0.3081(4)
C6_10 C 0.44980(16) 0.99173(16) 0.3328(3)
C7_10 C 0.47529(16) 0.97406(15) 0.2907(3)
C8_12 C 0.48426(12) 0.93008(13) 0.1248(3)
C9_13 C 0.50977(14) 0.91266(15) 0.0766(3)
H5_13 H 0.5223 0.9294 0.0476
H6_13 H 0.5254 0.9014 0.1115
C10_12 C 0.4970(3) 0.8884(3) 0.0221(10)
H7_12 H 0.4917 0.8680 0.0494
N3_12 N 0.4061(5) 0.8492(3) 0.2380(8)
C11_12 C 0.4232(4) 0.8832(4) 0.2188(18)
H10_12 H 0.4445 0.8828 0.1966
C12_10 C 0.3916(4) 0.8569(5) 0.3026(8)
H11_10 H 0.3961 0.8398 0.3409
H12_10 H 0.3678 0.8586 0.2943
H13_10 H 0.4001 0.8781 0.3210
C13_12 C 0.4193(6) 0.8211(4) 0.1943(14)
H14_12 H 0.4223 0.8023 0.2289
H15_12 H 0.4405 0.8271 0.1716
H16_12 H 0.4038 0.8151 0.1535
Mn2_13 Mn 0.54052(2) 0.96129(2) 0.24546(5)
O5_11 O 0.55055(10) 0.92035(11) 0.2867(2)
O6_7 O 0.61570(9) 0.93253(9) 0.0982(2)
N4_13 N 0.57554(11) 0.95676(11) 0.1710(2)
N5_7 N 0.58070(11) 0.98468(11) 0.1253(3)
N6_11 N 0.57346(14) 0.98771(19) 0.3313(3)
C14_11 C 0.57259(15) 0.89853(16) 0.2665(4)
C15_11 C 0.57562(17) 0.8701(2) 0.3102(4)
H17_11 H 0.5609 0.8669 0.3519
C16_11 C 0.59881(18) 0.84639(18) 0.2963(4)
H18_11 H 0.6001 0.8275 0.3282
C17_13 C 0.62039(18) 0.85016(16) 0.2351(4)
H19_13 H 0.6369 0.8342 0.2251
C18_13 C 0.61731(14) 0.87751(14) 0.1895(3)
H20_13 H 0.6313 0.8794 0.1459
C19_13 C 0.59549(13) 0.90185(14) 0.2033(3)
C20_13 C 0.59525(13) 0.93136(14) 0.1548(3)
C27_11 C 0.6238(2) 0.9958(3) 0.3948(5)
H28_11 H 0.6455 0.9876 0.4024
C28_11 C 0.6019(2) 0.9786(3) 0.3491(4)
H29_11 H 0.6091 0.9580 0.3294
O9_12 O 0.38417(8) 0.94706(9) 0.1149(2)
N7_12 N 0.39353(10) 0.99374(10) 0.0459(2)
N8_12 N 0.42272(11) 0.99636(11) 0.0882(3)
C33_12 C 0.29229(15) 0.93243(16) 0.0210(3)
H34_12 H 0.2788 0.9151 0.0399
C34_12 C 0.32236(14) 0.93831(14) 0.0514(3)
H35_12 H 0.3298 0.9244 0.0918
C35_12 C 0.34322(12) 0.96367(13) 0.0269(3)
C36_12 C 0.37464(12) 0.96834(13) 0.0642(3)
O8_13 O 0.65079(9) 0.99096(10) 0.0632(2)
O2_12 O 0.00450(10) 0.47323(11) 0.8163(2)
C9_14 C 0.00977(14) 0.41266(15) 0.5766(3)
H5_14 H 0.0223 0.4294 0.5476
H6_14 H 0.0254 0.4014 0.6115
H8_13 H 0.0137 0.3839 0.4829
Mn2_14 Mn 0.04052(2) 0.46129(2) 0.74546(5)
O5_12 O 0.05055(10) 0.42035(11) 0.7867(2)
O6_8 O 0.11570(9) 0.43253(9) 0.5982(2)
O7_14 O 0.03674(9) 0.50326(10) 0.6939(2)
N4_14 N 0.07554(11) 0.45676(11) 0.6710(2)
N5_8 N 0.08070(11) 0.48468(11) 0.6253(3)
N6_12 N 0.07346(14) 0.48771(19) 0.8313(3)
C14_12 C 0.07259(15) 0.39853(16) 0.7665(4)
C15_12 C 0.07562(17) 0.3701(2) 0.8102(4)
H17_12 H 0.0609 0.3669 0.8519
C16_12 C 0.09881(18) 0.34639(18) 0.7963(4)
H18_12 H 0.1001 0.3275 0.8282
C17_14 C 0.12039(18) 0.35016(16) 0.7351(4)
H19_14 H 0.1369 0.3342 0.7251
C18_14 C 0.11731(14) 0.37751(14) 0.6895(3)
H20_14 H 0.1313 0.3794 0.6459
C19_14 C 0.09549(13) 0.40185(14) 0.7033(3)
C20_14 C 0.09525(13) 0.43136(14) 0.6548(3)
C21_14 C 0.05959(15) 0.50670(15) 0.6418(3)
C22_14 C 0.06201(18) 0.54041(15) 0.6031(4)
H21_14 H 0.0836 0.5420 0.5771
H22_14 H 0.0447 0.5419 0.5632
C23_14 C 0.0584(4) 0.5691(2) 0.6559(8)
H23_14 H 0.0398 0.5653 0.6907
H24_14 H 0.0544 0.5891 0.6258
H25_14 H 0.0787 0.5718 0.6860
C24_12 C 0.0653(2) 0.5163(3) 0.8556(5)
H26_12 H 0.0442 0.5246 0.8420
C25_12 C 0.0857(3) 0.5361(3) 0.9012(6)
H27_12 H 0.0800 0.5579 0.9152
C26_12 C 0.1155(2) 0.5211(3) 0.9248(5)
C27_12 C 0.1238(2) 0.4958(3) 0.8948(5)
H28_12 H 0.1455 0.4876 0.9024
C28_12 C 0.1019(2) 0.4786(3) 0.8491(4)
H29_12 H 0.1091 0.4580 0.8294
C29_12 C 0.1403(3) 0.5394(4) 0.9805(7)
H31_12 H 0.1567 0.5512 0.9489
H46_12 H 0.1151 0.5781 0.9986
Mn4_5 Mn 0.11341(2) 0.47063(2) 0.52612(5)
O2_13 O 0.27677(11) 0.25450(10) 0.0663(2)
C1_11 C 0.25559(17) 0.16691(18) 0.0581(4)
C2_13 C 0.2360(2) 0.1461(2) 0.1026(5)
H1_13 H 0.2331 0.1239 0.0868
C3_13 C 0.2212(3) 0.1565(3) 0.1672(6)
H2_13 H 0.2074 0.1416 0.1942
C4_13 C 0.2250(2) 0.1872(3) 0.1953(6)
H3_13 H 0.2150 0.1936 0.2423
C5_13 C 0.2446(2) 0.2096(2) 0.1517(5)
H4_13 H 0.2482 0.2314 0.1701
C6_11 C 0.25827(16) 0.19980(16) 0.0828(3)
C7_11 C 0.27594(15) 0.22529(16) 0.0407(3)
C12_11 C 0.3931(5) 0.1416(4) 0.0526(8)
H11_11 H 0.4102 0.1461 0.0909
H12_11 H 0.3914 0.1178 0.0443
H13_11 H 0.3719 0.1501 0.0710
O5_13 O 0.32965(11) 0.30055(10) 0.0367(2)
N6_13 N 0.26229(19) 0.32346(14) 0.0813(3)
C14_13 C 0.35147(16) 0.32259(15) 0.0165(4)
C15_13 C 0.3799(2) 0.32562(17) 0.0602(4)
H17_13 H 0.3831 0.3109 0.1019
C16_13 C 0.40361(18) 0.34881(18) 0.0463(4)
H18_13 H 0.4225 0.3501 0.0782
C24_13 C 0.2337(3) 0.3153(2) 0.1056(5)
H26_13 H 0.2254 0.2942 0.0920
C25_13 C 0.2139(3) 0.3357(3) 0.1512(6)
H27_13 H 0.1921 0.3300 0.1652
C26_13 C 0.2289(3) 0.3655(2) 0.1748(5)
C27_13 C 0.2542(3) 0.3738(2) 0.1448(5)
H28_13 H 0.2624 0.3955 0.1524
C28_13 C 0.2714(3) 0.3519(2) 0.0991(4)
H29_13 H 0.2920 0.3591 0.0794
C29_13 C 0.2106(4) 0.3903(3) 0.2305(7)
H30_15 H 0.2274 0.4022 0.2609
H31_13 H 0.1988 0.4067 0.1989
N9_8 N 0.14233(12) 0.44049(12) 0.4402(3)
C40_15 C 0.16481(17) 0.41937(16) 0.4612(4)
H41_14 H 0.1707 0.4187 0.5139
C41_15 C 0.18050(19) 0.3980(2) 0.4117(4)
H42_15 H 0.1964 0.3828 0.4305
C42_15 C 0.1728(2) 0.3992(2) 0.3335(4)
C43_15 C 0.1502(2) 0.4225(2) 0.3129(4)
H43_15 H 0.1446 0.4248 0.2603
C44_15 C 0.13563(19) 0.44208(18) 0.3648(4)
H44_15 H 0.1199 0.4577 0.3475
C45_15 C 0.1891(2) 0.3763(3) 0.2791(5)
H45_15 H 0.2008 0.3592 0.3091
H46_13 H 0.1719 0.3651 0.2486
Mn1_13 Mn 0.07473(2) 0.54579(2) 0.32733(5)
O1_13 O 0.09567(10) 0.52093(11) 0.2521(3)
O3_13 O 0.04613(8) 0.57055(9) 0.3963(2)
N1_13 N 0.03304(10) 0.53971(11) 0.2760(2)
N2_13 N 0.00602(10) 0.55518(11) 0.3135(2)
O4_13 O 0.08753(11) 0.59428(11) 0.2710(3)
C1_12 C 0.08309(18) 0.50559(17) 0.1919(4)
C2_14 C 0.1039(2) 0.4860(2) 0.1474(5)
H1_14 H 0.1261 0.4831 0.1632
C3_14 C 0.0935(3) 0.4712(3) 0.0828(6)
H2_14 H 0.1084 0.4574 0.0558
C4_14 C 0.0628(3) 0.4750(2) 0.0547(6)
H3_14 H 0.0564 0.4650 0.0077
C5_14 C 0.0404(2) 0.4946(2) 0.0983(5)
H4_14 H 0.0186 0.4982 0.0799
C6_12 C 0.05020(16) 0.50827(16) 0.1672(3)
C7_12 C 0.02471(16) 0.52594(15) 0.2093(3)
C8_13 C 0.01574(12) 0.56992(13) 0.3752(3)
C10_13 C 0.0030(3) 0.6116(3) 0.4779(10)
H7_13 H 0.0083 0.6320 0.4506
H9_12 H 0.0229 0.6029 0.5024
N3_13 N 0.0939(5) 0.6508(3) 0.2620(8)
C11_13 C 0.0768(4) 0.6168(4) 0.2812(18)
H10_13 H 0.0555 0.6172 0.3034
C12_12 C 0.1084(4) 0.6431(5) 0.1974(8)
H11_12 H 0.1039 0.6602 0.1591
H12_12 H 0.1322 0.6414 0.2057
H13_12 H 0.0999 0.6219 0.1790
C13_13 C 0.0807(6) 0.6789(4) 0.3057(14)
H14_13 H 0.0777 0.6977 0.2711
H15_13 H 0.0595 0.6729 0.3284
H16_13 H 0.0962 0.6849 0.3465
O8_14 O 0.15079(9) 0.49096(10) 0.5632(2)
O9_13 O 0.11583(8) 0.55294(9) 0.3851(2)
O10_15 O 0.07384(9) 0.45515(9) 0.4766(2)
N7_13 N 0.10647(10) 0.50626(10) 0.4541(2)
N8_13 N 0.07728(11) 0.50364(11) 0.4118(3)
C30_12 C 0.16838(14) 0.51590(14) 0.5341(3)
C31_12 C 0.19869(15) 0.52254(16) 0.5655(3)
H32_12 H 0.2063 0.5094 0.6071
C32_12 C 0.21827(16) 0.54734(17) 0.5391(4)
H33_12 H 0.2393 0.5509 0.5617
C33_13 C 0.20771(15) 0.56757(16) 0.4790(3)
H34_13 H 0.2212 0.5849 0.4601
C34_13 C 0.17764(14) 0.56169(14) 0.4486(3)
H35_13 H 0.1702 0.5756 0.4082
C35_13 C 0.15678(12) 0.53633(13) 0.4731(3)
C36_13 C 0.12536(12) 0.53166(13) 0.4358(3)
C37_15 C 0.06233(13) 0.47625(14) 0.4269(3)
C38_15 C 0.03178(19) 0.4667(2) 0.3845(5)
H36_15 H 0.0221 0.4863 0.3593
H37_15 H 0.0153 0.4576 0.4206
C39_15 C 0.0417(3) 0.4385(3) 0.3185(6)
H38_15 H 0.0633 0.4437 0.2967
H39_15 H 0.0251 0.4386 0.2775
H40_15 H 0.0424 0.4167 0.3425
Mn1_14 Mn 0.92527(2) 0.45421(2) 0.67267(5)
O1_14 O 0.90433(10) 0.47907(11) 0.7479(3)
O3_14 O 0.95387(8) 0.42945(9) 0.6037(2)
N1_14 N 0.96696(10) 0.46029(11) 0.7240(2)
N2_14 N 0.99398(10) 0.44482(11) 0.6865(2)
O4_14 O 0.91247(11) 0.40572(11) 0.7290(3)
C1_13 C 0.91691(18) 0.49441(17) 0.8081(4)
C2_15 C 0.8961(2) 0.5140(2) 0.8526(5)
H1_15 H 0.8739 0.5169 0.8368
C3_15 C 0.9065(3) 0.5288(3) 0.9172(6)
H2_15 H 0.8916 0.5426 0.9442
C4_15 C 0.9372(3) 0.5250(2) 0.9453(6)
H3_15 H 0.9436 0.5350 0.9923
C5_15 C 0.9596(2) 0.5054(2) 0.9017(5)
H4_15 H 0.9814 0.5018 0.9201
C6_13 C 0.94980(16) 0.49173(16) 0.8328(3)
C7_13 C 0.97529(16) 0.47406(15) 0.7907(3)
C8_14 C 0.98426(12) 0.43008(13) 0.6248(3)
C10_14 C 0.9970(3) 0.3884(3) 0.5221(10)
H7_14 H 0.9917 0.3680 0.5494
H9_13 H 0.9771 0.3971 0.4976
N3_14 N 0.9061(5) 0.3492(3) 0.7380(8)
C11_14 C 0.9232(4) 0.3832(4) 0.7188(18)
H10_14 H 0.9445 0.3828 0.6966
C12_13 C 0.8916(4) 0.3569(5) 0.8026(8)
H11_13 H 0.8961 0.3398 0.8409
H12_13 H 0.8678 0.3586 0.7943
H13_13 H 0.9001 0.3781 0.8210
C13_14 C 0.9193(6) 0.3211(4) 0.6943(14)
H14_14 H 0.9223 0.3023 0.7289
H15_14 H 0.9405 0.3271 0.6716
H16_14 H 0.9038 0.3151 0.6535
Mn3_7 Mn 0.88659(2) 0.52937(2) 0.47388(5)
O8_15 O 0.84921(9) 0.50904(10) 0.4368(2)
O9_14 O 0.88417(8) 0.44706(9) 0.6149(2)
O10_16 O 0.92616(9) 0.54485(9) 0.5234(2)
N7_14 N 0.89353(10) 0.49374(10) 0.5459(2)
N8_14 N 0.92272(11) 0.49636(11) 0.5882(3)
C30_13 C 0.83162(14) 0.48410(14) 0.4659(3)
C31_13 C 0.80131(15) 0.47746(16) 0.4345(3)
H32_13 H 0.7937 0.4906 0.3929
C32_13 C 0.78173(16) 0.45266(17) 0.4609(4)
H33_13 H 0.7607 0.4491 0.4383
C33_14 C 0.79229(15) 0.43243(16) 0.5210(3)
H34_14 H 0.7788 0.4151 0.5399
C34_14 C 0.82236(14) 0.43831(14) 0.5514(3)
H35_14 H 0.8298 0.4244 0.5918
C35_14 C 0.84322(12) 0.46367(13) 0.5269(3)
C36_14 C 0.87464(12) 0.46834(13) 0.5642(3)
C37_16 C 0.93767(13) 0.52375(14) 0.5731(3)
C38_16 C 0.96822(19) 0.5333(2) 0.6155(5)
H36_16 H 0.9779 0.5137 0.6407
H37_16 H 0.9847 0.5424 0.5794
C39_16 C 0.9583(3) 0.5615(3) 0.6815(6)
H38_16 H 0.9367 0.5563 0.7033
H39_16 H 0.9749 0.5614 0.7225
H40_16 H 0.9576 0.5833 0.6575
O11_7 O 0.88430(9) 0.56747(9) 0.4018(2)
N10_7 N 0.91930(11) 0.51532(11) 0.3747(3)
N11_8 N 0.85767(12) 0.55951(12) 0.5598(3)
O2_14 O 0.99550(10) 0.52677(11) 0.1837(2)
C9_15 C 0.99023(14) 0.58734(15) 0.4234(3)
H5_15 H 0.9777 0.5706 0.4524
H6_15 H 0.9746 0.5986 0.3885
H8_14 H 0.9863 0.6161 0.5171
Mn2_15 Mn 0.95948(2) 0.53871(2) 0.25454(5)
O5_14 O 0.94945(10) 0.57965(11) 0.2133(2)
O7_15 O 0.96326(9) 0.49674(10) 0.3061(2)
N4_15 N 0.92446(11) 0.54324(11) 0.3290(2)
N6_14 N 0.92654(14) 0.51229(19) 0.1687(3)
C14_14 C 0.92741(15) 0.60147(16) 0.2335(4)
C15_14 C 0.92438(17) 0.6299(2) 0.1898(4)
H17_14 H 0.9391 0.6331 0.1481
C16_14 C 0.90119(18) 0.65361(18) 0.2037(4)
H18_14 H 0.8999 0.6725 0.1718
C17_15 C 0.87961(18) 0.64984(16) 0.2649(4)
H19_15 H 0.8631 0.6658 0.2749
C18_15 C 0.88269(14) 0.62249(14) 0.3105(3)
H20_15 H 0.8687 0.6206 0.3541
C19_15 C 0.90451(13) 0.59815(14) 0.2967(3)
C20_15 C 0.90475(13) 0.56864(14) 0.3452(3)
C21_15 C 0.94041(15) 0.49330(15) 0.3582(3)
C22_15 C 0.93799(18) 0.45959(15) 0.3969(4)
H21_15 H 0.9164 0.4580 0.4229
H22_15 H 0.9553 0.4581 0.4368
C23_15 C 0.9416(4) 0.4309(2) 0.3441(8)
H23_15 H 0.9602 0.4347 0.3093
H24_15 H 0.9456 0.4109 0.3742
H25_15 H 0.9213 0.4282 0.3140
C24_14 C 0.9347(2) 0.4837(3) 0.1444(5)
H26_14 H 0.9558 0.4754 0.1580
C25_14 C 0.9143(3) 0.4639(3) 0.0988(6)
H27_14 H 0.9200 0.4421 0.0848
C26_14 C 0.8845(2) 0.4789(3) 0.0752(5)
C27_14 C 0.8762(2) 0.5042(3) 0.1052(5)
H28_14 H 0.8545 0.5124 0.0976
C28_14 C 0.8981(2) 0.5214(3) 0.1509(4)
H29_14 H 0.8909 0.5420 0.1706
C29_14 C 0.8597(3) 0.4606(4) 0.0195(7)
H31_14 H 0.8433 0.4488 0.0511
H46_14 H 0.8849 0.4219 0.0014
O2_15 O 0.72323(11) 0.74550(10) 0.9337(2)
C1_14 C 0.74441(17) 0.83309(18) 0.9419(4)
C2_16 C 0.7640(2) 0.8539(2) 0.8974(5)
H1_16 H 0.7669 0.8761 0.9132
C3_16 C 0.7788(3) 0.8435(3) 0.8328(6)
H2_16 H 0.7926 0.8584 0.8058
C4_16 C 0.7750(2) 0.8128(3) 0.8047(6)
H3_16 H 0.7850 0.8064 0.7577
C5_16 C 0.7554(2) 0.7904(2) 0.8483(5)
H4_16 H 0.7518 0.7686 0.8299
C6_14 C 0.74173(16) 0.80020(16) 0.9172(3)
C7_14 C 0.72406(15) 0.77471(16) 0.9593(3)
C12_14 C 0.6069(5) 0.8584(4) 0.9474(8)
H11_14 H 0.5898 0.8539 0.9091
H12_14 H 0.6086 0.8822 0.9557
H13_14 H 0.6281 0.8499 0.9290
O5_15 O 0.67035(11) 0.69945(10) 0.9633(2)
N6_15 N 0.73771(19) 0.67654(14) 0.9187(3)
C14_15 C 0.64853(16) 0.67741(15) 0.9835(4)
C15_15 C 0.6201(2) 0.67438(17) 0.9398(4)
H17_15 H 0.6169 0.6891 0.8981
C16_15 C 0.59639(18) 0.65119(18) 0.9537(4)
H18_15 H 0.5775 0.6499 0.9218
C24_15 C 0.7663(3) 0.6847(2) 0.8944(5)
H26_15 H 0.7746 0.7058 0.9080
C25_15 C 0.7861(3) 0.6643(3) 0.8488(6)
H27_15 H 0.8079 0.6700 0.8348
C26_15 C 0.7711(3) 0.6345(2) 0.8252(5)
C27_15 C 0.7458(3) 0.6262(2) 0.8552(5)
H28_15 H 0.7376 0.6045 0.8476
C28_15 C 0.7286(3) 0.6481(2) 0.9009(4)
H29_15 H 0.7080 0.6409 0.9206
C29_15 C 0.7894(4) 0.6097(3) 0.7695(7)
H30_16 H 0.7726 0.5978 0.7391
H31_15 H 0.8012 0.5933 0.8011
C40_16 C 0.83519(17) 0.58063(16) 0.5388(4)
H41_15 H 0.8293 0.5813 0.4861
C41_16 C 0.81950(19) 0.6020(2) 0.5883(4)
H42_16 H 0.8036 0.6172 0.5695
C42_16 C 0.8272(2) 0.6008(2) 0.6665(4)
C43_16 C 0.8498(2) 0.5775(2) 0.6871(4)
H43_16 H 0.8554 0.5752 0.7397
C44_16 C 0.86437(19) 0.55792(18) 0.6352(4)
H44_16 H 0.8801 0.5423 0.6525
C45_16 C 0.8109(2) 0.6237(3) 0.7209(5)
H45_16 H 0.7992 0.6408 0.6909
H46_15 H 0.8281 0.6349 0.7514
Mn3_8 Mn 0.38659(2) 0.02937(2) 0.97388(5)
O8_16 O 0.34921(9) 0.00904(10) 0.9368(2)
O11_8 O 0.38430(9) 0.06747(9) 0.9018(2)
N10_8 N 0.41930(11) 0.01532(11) 0.8747(3)
H41_16 H 0.3293 0.0813 0.9861
Mn1_15 Mn 0.57473(2) 0.04579(2) 0.82733(5)
O1_15 O 0.59567(10) 0.02093(11) 0.7521(3)
O2_16 O 0.49550(10) 0.02677(11) 0.6837(2)
O3_15 O 0.54613(8) 0.07055(9) 0.8963(2)
N1_15 N 0.53304(10) 0.03971(11) 0.7760(2)
N2_15 N 0.50602(10) 0.05518(11) 0.8135(2)
O4_15 O 0.58753(11) 0.09428(11) 0.7710(3)
C1_15 C 0.58309(18) 0.00559(17) 0.6919(4)
C6_15 C 0.55020(16) 0.00827(16) 0.6672(3)
C7_15 C 0.52471(16) 0.02594(15) 0.7093(3)
C8_15 C 0.51574(12) 0.06992(13) 0.8752(3)
C9_16 C 0.49023(14) 0.08734(15) 0.9234(3)
H5_16 H 0.4777 0.0706 0.9524
H6_16 H 0.4746 0.0986 0.8885
C10_15 C 0.5030(3) 0.1116(3) 0.9779(10)
H7_15 H 0.5083 0.1320 0.9506
N3_15 N 0.5939(5) 0.1508(3) 0.7620(8)
C11_15 C 0.5768(4) 0.1168(4) 0.7812(18)
H10_15 H 0.5555 0.1172 0.8034
C12_15 C 0.6084(4) 0.1431(5) 0.6974(8)
H11_15 H 0.6039 0.1602 0.6591
H12_15 H 0.6322 0.1414 0.7057
H13_15 H 0.5999 0.1219 0.6790
C13_15 C 0.5807(6) 0.1789(4) 0.8057(14)
H14_15 H 0.5777 0.1977 0.7711
H15_15 H 0.5595 0.1729 0.8284
H16_15 H 0.5962 0.1849 0.8465
Mn2_16 Mn 0.45948(2) 0.03871(2) 0.75454(5)
O5_16 O 0.44945(10) 0.07965(11) 0.7133(2)
N4_16 N 0.42446(11) 0.04324(11) 0.8290(2)
N6_16 N 0.42654(14) 0.01229(19) 0.6687(3)
C14_16 C 0.42741(15) 0.10147(16) 0.7335(4)
C15_16 C 0.42438(17) 0.1299(2) 0.6898(4)
H17_16 H 0.4391 0.1331 0.6481
C16_16 C 0.40119(18) 0.15361(18) 0.7037(4)
H18_16 H 0.3999 0.1725 0.6718
C17_16 C 0.37961(18) 0.14984(16) 0.7649(4)
H19_16 H 0.3631 0.1658 0.7749
C18_16 C 0.38269(14) 0.12249(14) 0.8105(3)
H20_16 H 0.3687 0.1206 0.8541
C19_16 C 0.40451(13) 0.09815(14) 0.7967(3)
C20_16 C 0.40475(13) 0.06864(14) 0.8452(3)
C27_16 C 0.3762(2) 0.0042(3) 0.6052(5)
H28_16 H 0.3545 0.0124 0.5976
C28_16 C 0.3981(2) 0.0214(3) 0.6509(4)
H29_16 H 0.3909 0.0420 0.6706
O9_15 O 0.61583(8) 0.05294(9) 0.8851(2)
N7_15 N 0.60647(10) 0.00626(10) 0.9541(2)
N8_15 N 0.57728(11) 0.00364(11) 0.9118(3)
C33_15 C 0.70771(15) 0.06757(16) 0.9790(3)
H34_15 H 0.7212 0.0849 0.9601
C34_15 C 0.67764(14) 0.06169(14) 0.9486(3)
H35_15 H 0.6702 0.0756 0.9082
C35_15 C 0.65678(12) 0.03633(13) 0.9731(3)
C36_15 C 0.62536(12) 0.03166(13) 0.9358(3)
H8_15 H 0.5137 0.8839 0.9829
H9_14 H 0.4771 0.8971 0.9976
C30_14 C 0.33162(14) 0.98410(14) 0.9659(3)
C31_14 C 0.30131(15) 0.97746(16) 0.9345(3)
H32_14 H 0.2937 0.9906 0.8929
C32_14 C 0.28173(16) 0.95266(17) 0.9609(4)
H33_14 H 0.2607 0.9491 0.9383
O7_16 O 0.03674(9) 0.00326(10) 0.3061(2)
C21_16 C 0.05959(15) 0.00670(15) 0.3582(3)
C22_16 C 0.06201(18) 0.04041(15) 0.3969(4)
H21_16 H 0.0836 0.0420 0.4229
H22_16 H 0.0447 0.0419 0.4368
C23_16 C 0.0584(4) 0.0691(2) 0.3441(8)
H23_16 H 0.0398 0.0653 0.3093
H24_16 H 0.0544 0.0891 0.3742
H25_16 H 0.0787 0.0718 0.3140
C24_16 C 0.0653(2) 0.0163(3) 0.1444(5)
H26_16 H 0.0442 0.0246 0.1580
C25_16 C 0.0857(3) 0.0361(3) 0.0988(6)
H27_16 H 0.0800 0.0579 0.0848
C26_16 C 0.1155(2) 0.0211(3) 0.0752(5)
C29_16 C 0.1403(3) 0.0394(4) 0.0195(7)
H31_16 H 0.1567 0.0512 0.0511
H46_16 H 0.1151 0.0781 0.0014
Mn1_16 Mn 0.92527(2) 0.95421(2) 0.32733(5)
O1_16 O 0.90433(10) 0.97907(11) 0.2521(3)
O3_16 O 0.95387(8) 0.92945(9) 0.3963(2)
N1_16 N 0.96696(10) 0.96029(11) 0.2760(2)
N2_16 N 0.99398(10) 0.94482(11) 0.3135(2)
O4_16 O 0.91247(11) 0.90572(11) 0.2710(3)
C1_16 C 0.91691(18) 0.99441(17) 0.1919(4)
C6_16 C 0.94980(16) 0.99173(16) 0.1672(3)
C7_16 C 0.97529(16) 0.97406(15) 0.2093(3)
C8_16 C 0.98426(12) 0.93008(13) 0.3752(3)
C10_16 C 0.9970(3) 0.8884(3) 0.4779(10)
H7_16 H 0.9917 0.8680 0.4506
H9_15 H 0.9771 0.8971 0.5024
N3_16 N 0.9061(5) 0.8492(3) 0.2620(8)
C11_16 C 0.9232(4) 0.8832(4) 0.2812(18)
H10_16 H 0.9445 0.8828 0.3034
C12_16 C 0.8916(4) 0.8569(5) 0.1974(8)
H11_16 H 0.8961 0.8398 0.1591
H12_16 H 0.8678 0.8586 0.2057
H13_16 H 0.9001 0.8781 0.1790
C13_16 C 0.9193(6) 0.8211(4) 0.3057(14)
H14_16 H 0.9223 0.8023 0.2711
H15_16 H 0.9405 0.8271 0.3284
H16_16 H 0.9038 0.8151 0.3465
O9_16 O 0.88417(8) 0.94706(9) 0.3851(2)
N7_16 N 0.89353(10) 0.99374(10) 0.4541(2)
N8_16 N 0.92272(11) 0.99636(11) 0.4118(3)
C30_15 C 0.83162(14) 0.98410(14) 0.5341(3)
C31_15 C 0.80131(15) 0.97746(16) 0.5655(3)
H32_15 H 0.7937 0.9906 0.6071
C32_15 C 0.78173(16) 0.95266(17) 0.5391(4)
H33_15 H 0.7607 0.9491 0.5617
C33_16 C 0.79229(15) 0.93243(16) 0.4790(3)
H34_16 H 0.7788 0.9151 0.4601
C34_16 C 0.82236(14) 0.93831(14) 0.4486(3)
H35_16 H 0.8298 0.9244 0.4082
C35_16 C 0.84322(12) 0.96367(13) 0.4731(3)
C36_16 C 0.87464(12) 0.96834(13) 0.4358(3)
H8_16 H 0.4863 0.1161 0.0171
H9_16 H 0.5229 0.1029 0.0024
C30_16 C 0.66838(14) 0.01590(14) 0.0341(3)
C31_16 C 0.69869(15) 0.02254(16) 0.0655(3)
H32_16 H 0.7063 0.0094 0.1071
C32_16 C 0.71827(16) 0.04734(17) 0.0391(4)
H33_16 H 0.7393 0.0509 0.0617
loop_
_geom_bond_atom_site_label_1
_geom_bond_atom_site_label_2
_geom_bond_site_symmetry_1
_geom_bond_site_symmetry_2
Mn1 O1 1_555 1_555
O1 C1 1_555 1_555
O2 C7 1_555 1_555
O3 Mn1 1_555 1_555
N1 Mn1 1_555 1_555
N2 N1 1_555 1_555
O4 Mn1 1_555 1_555
C1 C2 1_555 1_555
C2 H1 1_555 1_555
C3 C2 1_555 1_555
H2 C3 1_555 1_555
C4 C3 1_555 1_555
H3 C4 1_555 1_555
C5 C4 1_555 1_555
H4 C5 1_555 1_555
C6 C1 1_555 1_555
C7 N1 1_555 1_555
C8 O3 1_555 1_555
C9 C8 1_555 1_555
H5 C9 1_555 1_555
H6 C9 1_555 1_555
C10 C9 1_555 1_555
H7 C10 1_555 1_555
N3 C11 1_555 1_555
C11 O4 1_555 1_555
H10 C11 1_555 1_555
C12 N3 1_555 1_555
H11 C12 1_555 1_555
H12 C12 1_555 1_555
H13 C12 1_555 1_555
C13 N3 1_555 1_555
H14 C13 1_555 1_555
H15 C13 1_555 1_555
H16 C13 1_555 1_555
Mn2 O2 1_555 1_555
O5 Mn2 1_555 1_555
O6 C20 1_555 1_555
O7 Mn2 1_555 1_555
N4 Mn2 1_555 1_555
N5 N4 1_555 1_555
N6 Mn2 1_555 1_555
C14 O5 1_555 1_555
C15 C14 1_555 1_555
H17 C15 1_555 1_555
C16 C15 1_555 1_555
H18 C16 1_555 1_555
C17 C16 1_555 1_555
H19 C17 1_555 1_555
C18 C17 1_555 1_555
H20 C18 1_555 1_555
C19 C14 1_555 1_555
C20 N4 1_555 1_555
C21 O7 1_555 1_555
C22 C21 1_555 1_555
H21 C22 1_555 1_555
H22 C22 1_555 1_555
C23 C22 1_555 1_555
H23 C23 1_555 1_555
H24 C23 1_555 1_555
H25 C23 1_555 1_555
C24 N6 1_555 1_555
H26 C24 1_555 1_555
C25 C24 1_555 1_555
H27 C25 1_555 1_555
C26 C25 1_555 1_555
C27 C26 1_555 1_555
H28 C27 1_555 1_555
C28 N6 1_555 1_555
H29 C28 1_555 1_555
C29 C26 1_555 1_555
H30 C29 1_555 1_555
H31 C29 1_555 1_555
O9 Mn1 1_555 1_555
N8 Mn1 1_555 1_555
N9 C40 1_555 1_555
H34 C33 1_555 1_555
C34 C33 1_555 1_555
H35 C34 1_555 1_555
C36 O9 1_555 1_555
C37 O10 1_555 1_555
C38 C37 1_555 1_555
H36 C38 1_555 1_555
H37 C38 1_555 1_555
C39 C38 1_555 1_555
H38 C39 1_555 1_555
H39 C39 1_555 1_555
H40 C39 1_555 1_555
C40 H41 1_555 1_555
C41 C40 1_555 1_555
H42 C41 1_555 1_555
C42 C41 1_555 1_555
C43 C42 1_555 1_555
H43 C43 1_555 1_555
C44 N9 1_555 1_555
H44 C44 1_555 1_555
C45 C29 1_555 1_555
H45 C45 1_555 1_555
H46 C45 1_555 1_555
Mn4 O6 1_555 1_555
Mn5 N9 1_555 1_555
N2 C8 1_555 1_555
N2 Mn2 1_555 1_555
C5 C6 1_555 1_555
C6 C7 1_555 1_555
N5 C21 1_555 1_555
N5 Mn4 1_555 1_555
C18 C19 1_555 1_555
C19 C20 1_555 1_555
C27 C28 1_555 1_555
N7 N8 1_555 1_555
N7 C36 1_555 1_555
N8 C37 1_555 1_555
C34 C35 1_555 1_555
C35 C36 1_555 1_555
C42 C45 1_555 1_555
C43 C44 1_555 1_555
Mn1_2 O1_2 1_555 1_555
O3_2 Mn1_2 1_555 1_555
N1_2 Mn1_2 1_555 1_555
N2_2 N1_2 1_555 1_555
O4_2 Mn1_2 1_555 1_555
C8_2 O3_2 1_555 1_555
C9_2 C8_2 1_555 1_555
H5_2 C9_2 1_555 1_555
H6_2 C9_2 1_555 1_555
C10_2 C9_2 1_555 1_555
H7_2 C10_2 1_555 1_555
H8 C10_2 1_555 1_555
H9 C10_2 1_555 1_555
N3_2 C11_2 1_555 1_555
C11_2 O4_2 1_555 1_555
H10_2 C11_2 1_555 1_555
C13_2 N3_2 1_555 1_555
H14_2 C13_2 1_555 1_555
H15_2 C13_2 1_555 1_555
H16_2 C13_2 1_555 1_555
O6_2 C20_2 1_555 1_555
O7_2 Mn2_2 1_555 1_555
N4_2 Mn2_2 1_555 1_555
N5_2 N4_2 1_555 1_555
H19_2 C17_2 1_555 1_555
C18_2 C17_2 1_555 1_555
H20_2 C18_2 1_555 1_555
C20_2 N4_2 1_555 1_555
C21_2 O7_2 1_555 1_555
C22_2 C21_2 1_555 1_555
H21_2 C22_2 1_555 1_555
H22_2 C22_2 1_555 1_555
C23_2 C22_2 1_555 1_555
H23_2 C23_2 1_555 1_555
H24_2 C23_2 1_555 1_555
H25_2 C23_2 1_555 1_555
Mn3 O8 1_555 1_555
O8 C30 1_555 1_555
O9_2 Mn1_2 1_555 1_555
O10_2 Mn3 1_555 1_555
N7_2 Mn3 1_555 1_555
N8_2 Mn1_2 1_555 1_555
C30 C31 1_555 1_555
C31 H32 1_555 1_555
C32 C31 1_555 1_555
H33 C32 1_555 1_555
C33_2 C32 1_555 1_555
H34_2 C33_2 1_555 1_555
C34_2 C33_2 1_555 1_555
H35_2 C34_2 1_555 1_555
C35_2 C30 1_555 1_555
C36_2 O9_2 1_555 1_555
C37_2 O10_2 1_555 1_555
C38_2 C37_2 1_555 1_555
H36_2 C38_2 1_555 1_555
H37_2 C38_2 1_555 1_555
C39_2 C38_2 1_555 1_555
H38_2 C39_2 1_555 1_555
H39_2 C39_2 1_555 1_555
H40_2 C39_2 1_555 1_555
O11 Mn3 1_555 1_555
N10 Mn3 1_555 1_555
Mn4_2 O6_2 1_555 1_555
N11_2 Mn3 1_555 1_555
N2_2 C8_2 1_555 1_555
N2_2 Mn2_2 1_555 1_555
N5_2 C21_2 1_555 1_555
N5_2 Mn4_2 1_555 1_555
C18_2 C19_2 1_555 1_555
C19_2 C20_2 1_555 1_555
N7_2 N8_2 1_555 1_555
N7_2 C36_2 1_555 1_555
N8_2 C37_2 1_555 1_555
C34_2 C35_2 1_555 1_555
C35_2 C36_2 1_555 1_555
Mn1_3 O1_3 1_555 1_555
O3_3 Mn1_3 1_555 1_555
N1_3 Mn1_3 1_555 1_555
N2_3 N1_3 1_555 1_555
O4_3 Mn1_3 1_555 1_555
C8_3 O3_3 1_555 1_555
C9_3 C8_3 1_555 1_555
H5_3 C9_3 1_555 1_555
H6_3 C9_3 1_555 1_555
C10_3 C9_3 1_555 1_555
H7_3 C10_3 1_555 1_555
H8_2 C10_3 1_555 1_555
H9_2 C10_3 1_555 1_555
N3_3 C11_3 1_555 1_555
C11_3 O4_3 1_555 1_555
H10_3 C11_3 1_555 1_555
C13_3 N3_3 1_555 1_555
H14_3 C13_3 1_555 1_555
H15_3 C13_3 1_555 1_555
H16_3 C13_3 1_555 1_555
O6_3 C20_3 1_555 1_555
O7_3 Mn2_3 1_555 1_555
N4_3 Mn2_3 1_555 1_555
N5_3 N4_3 1_555 1_555
H19_3 C17_3 1_555 1_555
C18_3 C17_3 1_555 1_555
H20_3 C18_3 1_555 1_555
C20_3 N4_3 1_555 1_555
C21_3 O7_3 1_555 1_555
C22_3 C21_3 1_555 1_555
H21_3 C22_3 1_555 1_555
H22_3 C22_3 1_555 1_555
C23_3 C22_3 1_555 1_555
H23_3 C23_3 1_555 1_555
H24_3 C23_3 1_555 1_555
H25_3 C23_3 1_555 1_555
Mn3_2 O8_2 1_555 1_555
O8_2 C30_2 1_555 1_555
O9_3 Mn1_3 1_555 1_555
O10_3 Mn3_2 1_555 1_555
N7_3 Mn3_2 1_555 1_555
N8_3 Mn1_3 1_555 1_555
C30_2 C31_2 1_555 1_555
C31_2 H32_2 1_555 1_555
C32_2 C31_2 1_555 1_555
H33_2 C32_2 1_555 1_555
C33_3 C32_2 1_555 1_555
H34_3 C33_3 1_555 1_555
C34_3 C33_3 1_555 1_555
H35_3 C34_3 1_555 1_555
C35_3 C30_2 1_555 1_555
C36_3 O9_3 1_555 1_555
C37_3 O10_3 1_555 1_555
C38_3 C37_3 1_555 1_555
H36_3 C38_3 1_555 1_555
H37_3 C38_3 1_555 1_555
C39_3 C38_3 1_555 1_555
H38_3 C39_3 1_555 1_555
H39_3 C39_3 1_555 1_555
H40_3 C39_3 1_555 1_555
O11_2 Mn3_2 1_555 1_555
N10_2 Mn3_2 1_555 1_555
Mn5 O6_3 1_555 1_555
N11_3 Mn3_2 1_555 1_555
N2_3 C8_3 1_555 1_555
N2_3 Mn2_3 1_555 1_555
N5_3 C21_3 1_555 1_555
N5_3 Mn5 1_555 1_555
C18_3 C19_3 1_555 1_555
C19_3 C20_3 1_555 1_555
N7_3 N8_3 1_555 1_555
N7_3 C36_3 1_555 1_555
N8_3 C37_3 1_555 1_555
C34_3 C35_3 1_555 1_555
C35_3 C36_3 1_555 1_555
C2_2 H1_2 1_555 1_555
C3_2 C2_2 1_555 1_555
H2_2 C3_2 1_555 1_555
C4_2 C3_2 1_555 1_555
H3_2 C4_2 1_555 1_555
C5_2 C4_2 1_555 1_555
H4_2 C5_2 1_555 1_555
C21_4 O7_4 1_555 1_555
C22_4 C21_4 1_555 1_555
H21_4 C22_4 1_555 1_555
H22_4 C22_4 1_555 1_555
C23_4 C22_4 1_555 1_555
H23_4 C23_4 1_555 1_555
H24_4 C23_4 1_555 1_555
H25_4 C23_4 1_555 1_555
H26_2 C24_2 1_555 1_555
C25_2 C24_2 1_555 1_555
H27_2 C25_2 1_555 1_555
C26_2 C25_2 1_555 1_555
C29_2 C26_2 1_555 1_555
H30_2 C29_2 1_555 1_555
H31_2 C29_2 1_555 1_555
N9_2 C40_2 1_555 1_555
C37_4 O10_4 1_555 1_555
C38_4 C37_4 1_555 1_555
H36_4 C38_4 1_555 1_555
H37_4 C38_4 1_555 1_555
C39_4 C38_4 1_555 1_555
H38_4 C39_4 1_555 1_555
H39_4 C39_4 1_555 1_555
H40_4 C39_4 1_555 1_555
C40_2 H41_3 1_555 1_555
C41_2 C40_2 1_555 1_555
H42_2 C41_2 1_555 1_555
C42_2 C41_2 1_555 1_555
C43_2 C42_2 1_555 1_555
H43_2 C43_2 1_555 1_555
C44_2 N9_2 1_555 1_555
H44_2 C44_2 1_555 1_555
C45_2 C29_2 1_555 1_555
H45_2 C45_2 1_555 1_555
H46_2 C45_2 1_555 1_555
Mn4_2 N9_2 1_555 1_555
C42_2 C45_2 1_555 1_555
C43_2 C44_2 1_555 1_555
Mn4 O8_3 1_555 1_555
O8_3 C30_3 1_555 1_555
C30_3 C31_3 1_555 1_555
C31_3 H32_3 1_555 1_555
C32_3 C31_3 1_555 1_555
H33_3 C32_3 1_555 1_555
Mn1_4 O1_4 1_555 1_555
O1_4 C1_2 1_555 1_555
O2_2 C7_2 1_555 1_555
O3_4 Mn1_4 1_555 1_555
N1_4 Mn1_4 1_555 1_555
N2_4 N1_4 1_555 1_555
O4_4 Mn1_4 1_555 1_555
C1_2 C2_3 1_555 1_555
C2_3 H1_3 1_555 1_555
C3_3 C2_3 1_555 1_555
H2_3 C3_3 1_555 1_555
C4_3 C3_3 1_555 1_555
H3_3 C4_3 1_555 1_555
C5_3 C4_3 1_555 1_555
H4_3 C5_3 1_555 1_555
C6_2 C1_2 1_555 1_555
C7_2 N1_4 1_555 1_555
C8_4 O3_4 1_555 1_555
C9_4 C8_4 1_555 1_555
H5_4 C9_4 1_555 1_555
H6_4 C9_4 1_555 1_555
C10_4 C9_4 1_555 1_555
H7_4 C10_4 1_555 1_555
H8_4 C10_4 1_555 1_555
H9_4 C10_4 1_555 1_555
N3_4 C11_4 1_555 1_555
C11_4 O4_4 1_555 1_555
H10_4 C11_4 1_555 1_555
C12_2 N3_4 1_555 1_555
H11_2 C12_2 1_555 1_555
H12_2 C12_2 1_555 1_555
H13_2 C12_2 1_555 1_555
C13_4 N3_4 1_555 1_555
H14_4 C13_4 1_555 1_555
H15_4 C13_4 1_555 1_555
H16_4 C13_4 1_555 1_555
Mn2_4 O2_2 1_555 1_555
O5_2 Mn2_4 1_555 1_555
O11 C20_4 1_555 1_555
O7_5 Mn2_4 1_555 1_555
N4_4 Mn2_4 1_555 1_555
N10 N4_4 1_555 1_555
N6_2 Mn2_4 1_555 1_555
C14_2 O5_2 1_555 1_555
C15_2 C14_2 1_555 1_555
H17_2 C15_2 1_555 1_555
C16_2 C15_2 1_555 1_555
H18_2 C16_2 1_555 1_555
C17_4 C16_2 1_555 1_555
H19_4 C17_4 1_555 1_555
C18_4 C17_4 1_555 1_555
H20_4 C18_4 1_555 1_555
C19_4 C14_2 1_555 1_555
C20_4 N4_4 1_555 1_555
C21_5 O7_5 1_555 1_555
C22_5 C21_5 1_555 1_555
H21_5 C22_5 1_555 1_555
H22_5 C22_5 1_555 1_555
C23_5 C22_5 1_555 1_555
H23_5 C23_5 1_555 1_555
H24_5 C23_5 1_555 1_555
H25_5 C23_5 1_555 1_555
C24_3 N6_2 1_555 1_555
H26_3 C24_3 1_555 1_555
C25_3 C24_3 1_555 1_555
H27_3 C25_3 1_555 1_555
C26_3 C25_3 1_555 1_555
C27_2 C26_3 1_555 1_555
H28_2 C27_2 1_555 1_555
C28_2 N6_2 1_555 1_555
H29_2 C28_2 1_555 1_555
C29_3 C26_3 1_555 1_555
H30_3 C29_3 1_555 1_555
H31_3 C29_3 1_555 1_555
Mn4_2 O8_4 1_555 1_555
O8_4 C30_4 1_555 1_555
O9_4 Mn1_4 1_555 1_555
O10_5 Mn4_2 1_555 1_555
N7_4 Mn4_2 1_555 1_555
N8_4 Mn1_4 1_555 1_555
N11 C40_3 1_555 1_555
C30_4 C31_4 1_555 1_555
C31_4 H32_4 1_555 1_555
C32_4 C31_4 1_555 1_555
H33_4 C32_4 1_555 1_555
C33_4 C32_4 1_555 1_555
H34_4 C33_4 1_555 1_555
C34_4 C33_4 1_555 1_555
H35_4 C34_4 1_555 1_555
C35_4 C30_4 1_555 1_555
C36_4 O9_4 1_555 1_555
C37_5 O10_5 1_555 1_555
C38_5 C37_5 1_555 1_555
H36_5 C38_5 1_555 1_555
H37_5 C38_5 1_555 1_555
C39_5 C38_5 1_555 1_555
H38_5 C39_5 1_555 1_555
H39_5 C39_5 1_555 1_555
H40_5 C39_5 1_555 1_555
C41_3 C40_3 1_555 1_555
H42_3 C41_3 1_555 1_555
C42_3 C41_3 1_555 1_555
C43_3 C42_3 1_555 1_555
H43_3 C43_3 1_555 1_555
C44_3 N11 1_555 1_555
H44_3 C44_3 1_555 1_555
C45_3 C29_3 1_555 1_555
H45_3 C45_3 1_555 1_555
H46_3 C45_3 1_555 1_555
N2_4 C8_4 1_555 1_555
N2_4 Mn2_4 1_555 1_555
C5_3 C6_2 1_555 1_555
C6_2 C7_2 1_555 1_555
N10 C21_5 1_555 1_555
C18_4 C19_4 1_555 1_555
C19_4 C20_4 1_555 1_555
C27_2 C28_2 1_555 1_555
N7_4 N8_4 1_555 1_555
N7_4 C36_4 1_555 1_555
N8_4 C37_5 1_555 1_555
C34_4 C35_4 1_555 1_555
C35_4 C36_4 1_555 1_555
C42_3 C45_3 1_555 1_555
C43_3 C44_3 1_555 1_555
N11_3 C40_4 1_555 1_555
C40_4 H41_4 1_555 1_555
C41_4 C40_4 1_555 1_555
H42_4 C41_4 1_555 1_555
C42_4 C41_4 1_555 1_555
C43_4 C42_4 1_555 1_555
H43_4 C43_4 1_555 1_555
C44_4 N11_3 1_555 1_555
H44_4 C44_4 1_555 1_555
H45_4 C45_4 1_555 1_555
C42_4 C45_4 1_555 1_555
C43_4 C44_4 1_555 1_555
Mn1_5 O1_5 1_555 1_555
O1_5 C1_3 1_555 1_555
O2_3 C7_3 1_555 1_555
O3_5 Mn1_5 1_555 1_555
N1_5 Mn1_5 1_555 1_555
N2_5 N1_5 1_555 1_555
O4_5 Mn1_5 1_555 1_555
C1_3 C2_4 1_555 1_555
C2_4 H1_4 1_555 1_555
C3_4 C2_4 1_555 1_555
H2_4 C3_4 1_555 1_555
C4_4 C3_4 1_555 1_555
H3_4 C4_4 1_555 1_555
C5_4 C4_4 1_555 1_555
H4_4 C5_4 1_555 1_555
C6_3 C1_3 1_555 1_555
C7_3 N1_5 1_555 1_555
C8_5 O3_5 1_555 1_555
C9_5 C8_5 1_555 1_555
H5_5 C9_5 1_555 1_555
H6_5 C9_5 1_555 1_555
C10_5 C9_5 1_555 1_555
H7_5 C10_5 1_555 1_555
H8_5 C10_5 1_555 1_555
H9_5 C10_5 1_555 1_555
N3_5 C11_5 1_555 1_555
C11_5 O4_5 1_555 1_555
H10_5 C11_5 1_555 1_555
C12_3 N3_5 1_555 1_555
H11_3 C12_3 1_555 1_555
H12_3 C12_3 1_555 1_555
H13_3 C12_3 1_555 1_555
C13_5 N3_5 1_555 1_555
H14_5 C13_5 1_555 1_555
H15_5 C13_5 1_555 1_555
H16_5 C13_5 1_555 1_555
Mn2_5 O2_3 1_555 1_555
O5_3 Mn2_5 1_555 1_555
O11_2 C20_5 1_555 1_555
O7_6 Mn2_5 1_555 1_555
N4_5 Mn2_5 1_555 1_555
N10_2 N4_5 1_555 1_555
N6_3 Mn2_5 1_555 1_555
C14_3 O5_3 1_555 1_555
C15_3 C14_3 1_555 1_555
H17_3 C15_3 1_555 1_555
C16_3 C15_3 1_555 1_555
H18_3 C16_3 1_555 1_555
C17_5 C16_3 1_555 1_555
H19_5 C17_5 1_555 1_555
C18_5 C17_5 1_555 1_555
H20_5 C18_5 1_555 1_555
C19_5 C14_3 1_555 1_555
C20_5 N4_5 1_555 1_555
C21_6 O7_6 1_555 1_555
C22_6 C21_6 1_555 1_555
H21_6 C22_6 1_555 1_555
H22_6 C22_6 1_555 1_555
C23_6 C22_6 1_555 1_555
H23_6 C23_6 1_555 1_555
H24_6 C23_6 1_555 1_555
H25_6 C23_6 1_555 1_555
C24_4 N6_3 1_555 1_555
H26_4 C24_4 1_555 1_555
C25_4 C24_4 1_555 1_555
H27_4 C25_4 1_555 1_555
C26_4 C25_4 1_555 1_555
C27_3 C26_4 1_555 1_555
H28_3 C27_3 1_555 1_555
C28_3 N6_3 1_555 1_555
H29_3 C28_3 1_555 1_555
C29_4 C26_4 1_555 1_555
H30_5 C29_4 1_555 1_555
H31_4 C29_4 1_555 1_555
Mn5 O8_5 1_555 1_555
O8_5 C30_5 1_555 1_555
O9_5 Mn1_5 1_555 1_555
O10_6 Mn5 1_555 1_555
N7_5 Mn5 1_555 1_555
N8_5 Mn1_5 1_555 1_555
N11_4 C40_5 1_555 1_555
C30_5 C31_5 1_555 1_555
C31_5 H32_5 1_555 1_555
C32_5 C31_5 1_555 1_555
H33_5 C32_5 1_555 1_555
C33_5 C32_5 1_555 1_555
H34_5 C33_5 1_555 1_555
C34_5 C33_5 1_555 1_555
H35_5 C34_5 1_555 1_555
C35_5 C30_5 1_555 1_555
C36_5 O9_5 1_555 1_555
C37_6 O10_6 1_555 1_555
C38_6 C37_6 1_555 1_555
H36_6 C38_6 1_555 1_555
H37_6 C38_6 1_555 1_555
C39_6 C38_6 1_555 1_555
H38_6 C39_6 1_555 1_555
H39_6 C39_6 1_555 1_555
H40_6 C39_6 1_555 1_555
C41_5 C40_5 1_555 1_555
H42_5 C41_5 1_555 1_555
C42_5 C41_5 1_555 1_555
C43_5 C42_5 1_555 1_555
H43_5 C43_5 1_555 1_555
C44_5 N11_4 1_555 1_555
H44_5 C44_5 1_555 1_555
C45_5 C29_4 1_555 1_555
H45_5 C45_5 1_555 1_555
H46_4 C45_5 1_555 1_555
N2_5 C8_5 1_555 1_555
N2_5 Mn2_5 1_555 1_555
C5_4 C6_3 1_555 1_555
C6_3 C7_3 1_555 1_555
N10_2 C21_6 1_555 1_555
C18_5 C19_5 1_555 1_555
C19_5 C20_5 1_555 1_555
C27_3 C28_3 1_555 1_555
N7_5 N8_5 1_555 1_555
N7_5 C36_5 1_555 1_555
N8_5 C37_6 1_555 1_555
C34_5 C35_5 1_555 1_555
C35_5 C36_5 1_555 1_555
C42_5 C45_5 1_555 1_555
C43_5 C44_5 1_555 1_555
N11_2 C40_6 1_555 1_555
C40_6 H41_5 1_555 1_555
C41_6 C40_6 1_555 1_555
H42_6 C41_6 1_555 1_555
C42_6 C41_6 1_555 1_555
C43_6 C42_6 1_555 1_555
H43_6 C43_6 1_555 1_555
C44_6 N11_2 1_555 1_555
H44_6 C44_6 1_555 1_555
H45_6 C45_6 1_555 1_555
C42_6 C45_6 1_555 1_555
C43_6 C44_6 1_555 1_555
Mn3_3 O8_6 1_555 1_555
O8_6 C30_6 1_555 1_555
C30_6 C31_6 1_555 1_555
C31_6 H32_6 1_555 1_555
C32_6 C31_6 1_555 1_555
H33_6 C32_6 1_555 1_555
O11_3 Mn3_3 1_555 1_555
N10_3 Mn3_3 1_555 1_555
Mn1_6 O1_6 1_555 1_555
O1_6 C1_4 1_555 1_555
O2_4 C7_4 1_555 1_555
O3_6 Mn1_6 1_555 1_555
N1_6 Mn1_6 1_555 1_555
N2_6 N1_6 1_555 1_555
O4_6 Mn1_6 1_555 1_555
C1_4 C2_5 1_555 1_555
C2_5 H1_5 1_555 1_555
C3_5 C2_5 1_555 1_555
H2_5 C3_5 1_555 1_555
C4_5 C3_5 1_555 1_555
H3_5 C4_5 1_555 1_555
C5_5 C4_5 1_555 1_555
H4_5 C5_5 1_555 1_555
C6_4 C1_4 1_555 1_555
C7_4 N1_6 1_555 1_555
C8_6 O3_6 1_555 1_555
C9_6 C8_6 1_555 1_555
H5_6 C9_6 1_555 1_555
H6_6 C9_6 1_555 1_555
C10_6 C9_6 1_555 1_555
H7_6 C10_6 1_555 1_555
H8_7 C10_6 1_555 1_555
H9_7 C10_6 1_555 1_555
N3_6 C11_6 1_555 1_555
C11_6 O4_6 1_555 1_555
H10_6 C11_6 1_555 1_555
C12_4 N3_6 1_555 1_555
H11_4 C12_4 1_555 1_555
H12_4 C12_4 1_555 1_555
H13_4 C12_4 1_555 1_555
C13_6 N3_6 1_555 1_555
H14_6 C13_6 1_555 1_555
H15_6 C13_6 1_555 1_555
H16_6 C13_6 1_555 1_555
Mn2_6 O2_4 1_555 1_555
O5_4 Mn2_6 1_555 1_555
O6_4 C20_6 1_555 1_555
O7_7 Mn2_6 1_555 1_555
N4_6 Mn2_6 1_555 1_555
N5_4 N4_6 1_555 1_555
N6_4 Mn2_6 1_555 1_555
C14_4 O5_4 1_555 1_555
C15_4 C14_4 1_555 1_555
H17_4 C15_4 1_555 1_555
C16_4 C15_4 1_555 1_555
H18_4 C16_4 1_555 1_555
C17_6 C16_4 1_555 1_555
H19_6 C17_6 1_555 1_555
C18_6 C17_6 1_555 1_555
H20_6 C18_6 1_555 1_555
C19_6 C14_4 1_555 1_555
C20_6 N4_6 1_555 1_555
C21_7 O7_7 1_555 1_555
C22_7 C21_7 1_555 1_555
H21_7 C22_7 1_555 1_555
H22_7 C22_7 1_555 1_555
C23_7 C22_7 1_555 1_555
H23_7 C23_7 1_555 1_555
H24_7 C23_7 1_555 1_555
H25_7 C23_7 1_555 1_555
C24_5 N6_4 1_555 1_555
H26_5 C24_5 1_555 1_555
C25_5 C24_5 1_555 1_555
H27_5 C25_5 1_555 1_555
C26_5 C25_5 1_555 1_555
C27_4 C26_5 1_555 1_555
H28_4 C27_4 1_555 1_555
C28_4 N6_4 1_555 1_555
H29_4 C28_4 1_555 1_555
C29_5 C26_5 1_555 1_555
H30_7 C29_5 1_555 1_555
H31_5 C29_5 1_555 1_555
Mn3_4 O8_7 1_555 1_555
O8_7 C30_7 1_555 1_555
O9_6 Mn1_6 1_555 1_555
O10_7 Mn3_4 1_555 1_555
N7_6 Mn3_4 1_555 1_555
N8_6 Mn1_6 1_555 1_555
N9_3 C40_7 1_555 1_555
C30_7 C31_7 1_555 1_555
C31_7 H32_7 1_555 1_555
C32_7 C31_7 1_555 1_555
H33_7 C32_7 1_555 1_555
C33_6 C32_7 1_555 1_555
H34_6 C33_6 1_555 1_555
C34_6 C33_6 1_555 1_555
H35_6 C34_6 1_555 1_555
C35_6 C30_7 1_555 1_555
C36_6 O9_6 1_555 1_555
C37_7 O10_7 1_555 1_555
C38_7 C37_7 1_555 1_555
H36_7 C38_7 1_555 1_555
H37_7 C38_7 1_555 1_555
C39_7 C38_7 1_555 1_555
H38_7 C39_7 1_555 1_555
H39_7 C39_7 1_555 1_555
H40_7 C39_7 1_555 1_555
C41_7 C40_7 1_555 1_555
H42_7 C41_7 1_555 1_555
C42_7 C41_7 1_555 1_555
C43_7 C42_7 1_555 1_555
H43_7 C43_7 1_555 1_555
C44_7 N9_3 1_555 1_555
H44_7 C44_7 1_555 1_555
C45_7 C29_5 1_555 1_555
H45_7 C45_7 1_555 1_555
H46_5 C45_7 1_555 1_555
O11_4 Mn3_4 1_555 1_555
N10_4 Mn3_4 1_555 1_555
Mn4_3 O6_4 1_555 1_555
N11_5 Mn3_4 1_555 1_555
N2_6 C8_6 1_555 1_555
N2_6 Mn2_6 1_555 1_555
C5_5 C6_4 1_555 1_555
C6_4 C7_4 1_555 1_555
N5_4 C21_7 1_555 1_555
N5_4 Mn4_3 1_555 1_555
C18_6 C19_6 1_555 1_555
C19_6 C20_6 1_555 1_555
C27_4 C28_4 1_555 1_555
N7_6 N8_6 1_555 1_555
N7_6 C36_6 1_555 1_555
N8_6 C37_7 1_555 1_555
C34_6 C35_6 1_555 1_555
C35_6 C36_6 1_555 1_555
C42_7 C45_7 1_555 1_555
C43_7 C44_7 1_555 1_555
N9_4 C40_8 1_555 1_555
C40_8 H41_6 1_555 1_555
C41_8 C40_8 1_555 1_555
H42_8 C41_8 1_555 1_555
C42_8 C41_8 1_555 1_555
C43_8 C42_8 1_555 1_555
H43_8 C43_8 1_555 1_555
C44_8 N9_4 1_555 1_555
H44_8 C44_8 1_555 1_555
H45_8 C45_8 1_555 1_555
Mn5_2 N9_4 1_555 1_555
C42_8 C45_8 1_555 1_555
C43_8 C44_8 1_555 1_555
Mn1_7 O1_7 1_555 1_555
O1_7 C1_5 1_555 1_555
O2_5 C7_5 1_555 1_555
O3_7 Mn1_7 1_555 1_555
N1_7 Mn1_7 1_555 1_555
N2_7 N1_7 1_555 1_555
O4_7 Mn1_7 1_555 1_555
C1_5 C2_6 1_555 1_555
C2_6 H1_6 1_555 1_555
C3_6 C2_6 1_555 1_555
H2_6 C3_6 1_555 1_555
C4_6 C3_6 1_555 1_555
H3_6 C4_6 1_555 1_555
C5_6 C4_6 1_555 1_555
H4_6 C5_6 1_555 1_555
C6_5 C1_5 1_555 1_555
C7_5 N1_7 1_555 1_555
C8_7 O3_7 1_555 1_555
C9_7 C8_7 1_555 1_555
H5_7 C9_7 1_555 1_555
H6_7 C9_7 1_555 1_555
C10_7 C9_7 1_555 1_555
H7_7 C10_7 1_555 1_555
H8_8 C10_7 1_555 1_555
H9_8 C10_7 1_555 1_555
N3_7 C11_7 1_555 1_555
C11_7 O4_7 1_555 1_555
H10_7 C11_7 1_555 1_555
C12_5 N3_7 1_555 1_555
H11_5 C12_5 1_555 1_555
H12_5 C12_5 1_555 1_555
H13_5 C12_5 1_555 1_555
C13_7 N3_7 1_555 1_555
H14_7 C13_7 1_555 1_555
H15_7 C13_7 1_555 1_555
H16_7 C13_7 1_555 1_555
Mn2_7 O2_5 1_555 1_555
O5_5 Mn2_7 1_555 1_555
O6_5 C20_7 1_555 1_555
O7_8 Mn2_7 1_555 1_555
N4_7 Mn2_7 1_555 1_555
N5_5 N4_7 1_555 1_555
N6_5 Mn2_7 1_555 1_555
C14_5 O5_5 1_555 1_555
C15_5 C14_5 1_555 1_555
H17_5 C15_5 1_555 1_555
C16_5 C15_5 1_555 1_555
H18_5 C16_5 1_555 1_555
C17_7 C16_5 1_555 1_555
H19_7 C17_7 1_555 1_555
C18_7 C17_7 1_555 1_555
H20_7 C18_7 1_555 1_555
C19_7 C14_5 1_555 1_555
C20_7 N4_7 1_555 1_555
C21_8 O7_8 1_555 1_555
C22_8 C21_8 1_555 1_555
H21_8 C22_8 1_555 1_555
H22_8 C22_8 1_555 1_555
C23_8 C22_8 1_555 1_555
H23_8 C23_8 1_555 1_555
H24_8 C23_8 1_555 1_555
H25_8 C23_8 1_555 1_555
C24_6 N6_5 1_555 1_555
H26_6 C24_6 1_555 1_555
C25_6 C24_6 1_555 1_555
H27_6 C25_6 1_555 1_555
C26_6 C25_6 1_555 1_555
C27_5 C26_6 1_555 1_555
H28_5 C27_5 1_555 1_555
C28_5 N6_5 1_555 1_555
H29_5 C28_5 1_555 1_555
C29_6 C26_6 1_555 1_555
H30_9 C29_6 1_555 1_555
H31_6 C29_6 1_555 1_555
Mn3_5 O8_8 1_555 1_555
O8_8 C30_8 1_555 1_555
O9_7 Mn1_7 1_555 1_555
O10_8 Mn3_5 1_555 1_555
N7_7 Mn3_5 1_555 1_555
N8_7 Mn1_7 1_555 1_555
N9_5 C40_9 1_555 1_555
C30_8 C31_8 1_555 1_555
C31_8 H32_8 1_555 1_555
C32_8 C31_8 1_555 1_555
H33_8 C32_8 1_555 1_555
C33_7 C32_8 1_555 1_555
H34_7 C33_7 1_555 1_555
C34_7 C33_7 1_555 1_555
H35_7 C34_7 1_555 1_555
C35_7 C30_8 1_555 1_555
C36_7 O9_7 1_555 1_555
C37_8 O10_8 1_555 1_555
C38_8 C37_8 1_555 1_555
H36_8 C38_8 1_555 1_555
H37_8 C38_8 1_555 1_555
C39_8 C38_8 1_555 1_555
H38_8 C39_8 1_555 1_555
H39_8 C39_8 1_555 1_555
H40_8 C39_8 1_555 1_555
C41_9 C40_9 1_555 1_555
H42_9 C41_9 1_555 1_555
C42_9 C41_9 1_555 1_555
C43_9 C42_9 1_555 1_555
H43_9 C43_9 1_555 1_555
C44_9 N9_5 1_555 1_555
H44_9 C44_9 1_555 1_555
C45_9 C29_6 1_555 1_555
H45_9 C45_9 1_555 1_555
H46_6 C45_9 1_555 1_555
O11_5 Mn3_5 1_555 1_555
N10_5 Mn3_5 1_555 1_555
Mn5_2 O6_5 1_555 1_555
N11_6 Mn3_5 1_555 1_555
N2_7 C8_7 1_555 1_555
N2_7 Mn2_7 1_555 1_555
C5_6 C6_5 1_555 1_555
C6_5 C7_5 1_555 1_555
N5_5 C21_8 1_555 1_555
N5_5 Mn5_2 1_555 1_555
C18_7 C19_7 1_555 1_555
C19_7 C20_7 1_555 1_555
C27_5 C28_5 1_555 1_555
N7_7 N8_7 1_555 1_555
N7_7 C36_7 1_555 1_555
N8_7 C37_8 1_555 1_555
C34_7 C35_7 1_555 1_555
C35_7 C36_7 1_555 1_555
C42_9 C45_9 1_555 1_555
C43_9 C44_9 1_555 1_555
N9_6 C40_10 1_555 1_555
C40_10 H41_7 1_555 1_555
C41_10 C40_10 1_555 1_555
H42_10 C41_10 1_555 1_555
C42_10 C41_10 1_555 1_555
C43_10 C42_10 1_555 1_555
H43_10 C43_10 1_555 1_555
C44_10 N9_6 1_555 1_555
H44_10 C44_10 1_555 1_555
H45_10 C45_10 1_555 1_555
Mn4_3 N9_6 1_555 1_555
C42_10 C45_10 1_555 1_555
C43_10 C44_10 1_555 1_555
Mn1_8 O1_8 1_555 1_555
O1_8 C1_6 1_555 1_555
O2_6 C7_6 1_555 1_555
O3_8 Mn1_8 1_555 1_555
N1_8 Mn1_8 1_555 1_555
N2_8 N1_8 1_555 1_555
O4_8 Mn1_8 1_555 1_555
C1_6 C2_7 1_555 1_555
C2_7 H1_7 1_555 1_555
C3_7 C2_7 1_555 1_555
H2_7 C3_7 1_555 1_555
C4_7 C3_7 1_555 1_555
H3_7 C4_7 1_555 1_555
C5_7 C4_7 1_555 1_555
H4_7 C5_7 1_555 1_555
C6_6 C1_6 1_555 1_555
C7_6 N1_8 1_555 1_555
C8_8 O3_8 1_555 1_555
C9_8 C8_8 1_555 1_555
H5_8 C9_8 1_555 1_555
H6_8 C9_8 1_555 1_555
C10_8 C9_8 1_555 1_555
H7_8 C10_8 1_555 1_555
N3_8 C11_8 1_555 1_555
C11_8 O4_8 1_555 1_555
H10_8 C11_8 1_555 1_555
C12_6 N3_8 1_555 1_555
H11_6 C12_6 1_555 1_555
H12_6 C12_6 1_555 1_555
H13_6 C12_6 1_555 1_555
C13_8 N3_8 1_555 1_555
H14_8 C13_8 1_555 1_555
H15_8 C13_8 1_555 1_555
H16_8 C13_8 1_555 1_555
Mn2_8 O2_6 1_555 1_555
O5_6 Mn2_8 1_555 1_555
O11_3 C20_8 1_555 1_555
O7_9 Mn2_8 1_555 1_555
N4_8 Mn2_8 1_555 1_555
N10_3 N4_8 1_555 1_555
N6_6 Mn2_8 1_555 1_555
C14_6 O5_6 1_555 1_555
C15_6 C14_6 1_555 1_555
H17_6 C15_6 1_555 1_555
C16_6 C15_6 1_555 1_555
H18_6 C16_6 1_555 1_555
C17_8 C16_6 1_555 1_555
H19_8 C17_8 1_555 1_555
C18_8 C17_8 1_555 1_555
H20_8 C18_8 1_555 1_555
C19_8 C14_6 1_555 1_555
C20_8 N4_8 1_555 1_555
C21_9 O7_9 1_555 1_555
C22_9 C21_9 1_555 1_555
H21_9 C22_9 1_555 1_555
H22_9 C22_9 1_555 1_555
C23_9 C22_9 1_555 1_555
H23_9 C23_9 1_555 1_555
H24_9 C23_9 1_555 1_555
H25_9 C23_9 1_555 1_555
C24_7 N6_6 1_555 1_555
H26_7 C24_7 1_555 1_555
C25_7 C24_7 1_555 1_555
H27_7 C25_7 1_555 1_555
C26_7 C25_7 1_555 1_555
C27_6 C26_7 1_555 1_555
H28_6 C27_6 1_555 1_555
C28_6 N6_6 1_555 1_555
H29_6 C28_6 1_555 1_555
C29_7 C26_7 1_555 1_555
H30_11 C29_7 1_555 1_555
H31_7 C29_7 1_555 1_555
O9_8 Mn1_8 1_555 1_555
N8_8 Mn1_8 1_555 1_555
N11_6 C40_11 1_555 1_555
H34_8 C33_8 1_555 1_555
C34_8 C33_8 1_555 1_555
H35_8 C34_8 1_555 1_555
C36_8 O9_8 1_555 1_555
C37_9 O10_9 1_555 1_555
C38_9 C37_9 1_555 1_555
H36_9 C38_9 1_555 1_555
H37_9 C38_9 1_555 1_555
C39_9 C38_9 1_555 1_555
H38_9 C39_9 1_555 1_555
H39_9 C39_9 1_555 1_555
H40_9 C39_9 1_555 1_555
C40_11 H41_8 1_555 1_555
C41_11 C40_11 1_555 1_555
H42_11 C41_11 1_555 1_555
C42_11 C41_11 1_555 1_555
C43_11 C42_11 1_555 1_555
H43_11 C43_11 1_555 1_555
C44_11 N11_6 1_555 1_555
H44_11 C44_11 1_555 1_555
C45_11 C29_7 1_555 1_555
H45_11 C45_11 1_555 1_555
H46_7 C45_11 1_555 1_555
N2_8 C8_8 1_555 1_555
N2_8 Mn2_8 1_555 1_555
C5_7 C6_6 1_555 1_555
C6_6 C7_6 1_555 1_555
N10_3 C21_9 1_555 1_555
C18_8 C19_8 1_555 1_555
C19_8 C20_8 1_555 1_555
C27_6 C28_6 1_555 1_555
N7_8 N8_8 1_555 1_555
N7_8 C36_8 1_555 1_555
N8_8 C37_9 1_555 1_555
C34_8 C35_8 1_555 1_555
C35_8 C36_8 1_555 1_555
C42_11 C45_11 1_555 1_555
C43_11 C44_11 1_555 1_555
Mn1_9 O1_9 1_555 1_555
O3_9 Mn1_9 1_555 1_555
N1_9 Mn1_9 1_555 1_555
N2_9 N1_9 1_555 1_555
O4_9 Mn1_9 1_555 1_555
C8_9 O3_9 1_555 1_555
C9_9 C8_9 1_555 1_555
H5_9 C9_9 1_555 1_555
H6_9 C9_9 1_555 1_555
C10_9 C9_9 1_555 1_555
H7_9 C10_9 1_555 1_555
H8_9 C10_9 1_555 1_555
H9_9 C10_9 1_555 1_555
N3_9 C11_9 1_555 1_555
C11_9 O4_9 1_555 1_555
H10_9 C11_9 1_555 1_555
C13_9 N3_9 1_555 1_555
H14_9 C13_9 1_555 1_555
H15_9 C13_9 1_555 1_555
H16_9 C13_9 1_555 1_555
O11_4 C20_9 1_555 1_555
O7_10 Mn2_9 1_555 1_555
N4_9 Mn2_9 1_555 1_555
N10_4 N4_9 1_555 1_555
H19_9 C17_9 1_555 1_555
C18_9 C17_9 1_555 1_555
H20_9 C18_9 1_555 1_555
C20_9 N4_9 1_555 1_555
C21_10 O7_10 1_555 1_555
C22_10 C21_10 1_555 1_555
H21_10 C22_10 1_555 1_555
H22_10 C22_10 1_555 1_555
C23_10 C22_10 1_555 1_555
H23_10 C23_10 1_555 1_555
H24_10 C23_10 1_555 1_555
H25_10 C23_10 1_555 1_555
Mn4_3 O8_9 1_555 1_555
O8_9 C30_9 1_555 1_555
O9_9 Mn1_9 1_555 1_555
O10_10 Mn4_3 1_555 1_555
N7_9 Mn4_3 1_555 1_555
N8_9 Mn1_9 1_555 1_555
C30_9 C31_9 1_555 1_555
C31_9 H32_9 1_555 1_555
C32_9 C31_9 1_555 1_555
H33_9 C32_9 1_555 1_555
C33_9 C32_9 1_555 1_555
H34_9 C33_9 1_555 1_555
C34_9 C33_9 1_555 1_555
H35_9 C34_9 1_555 1_555
C35_9 C30_9 1_555 1_555
C36_9 O9_9 1_555 1_555
C37_10 O10_10 1_555 1_555
C38_10 C37_10 1_555 1_555
H36_10 C38_10 1_555 1_555
H37_10 C38_10 1_555 1_555
C39_10 C38_10 1_555 1_555
H38_10 C39_10 1_555 1_555
H39_10 C39_10 1_555 1_555
H40_10 C39_10 1_555 1_555
N2_9 C8_9 1_555 1_555
N2_9 Mn2_9 1_555 1_555
N10_4 C21_10 1_555 1_555
C18_9 C19_9 1_555 1_555
C19_9 C20_9 1_555 1_555
N7_9 N8_9 1_555 1_555
N7_9 C36_9 1_555 1_555
N8_9 C37_10 1_555 1_555
C34_9 C35_9 1_555 1_555
C35_9 C36_9 1_555 1_555
Mn1_10 O1_10 1_555 1_555
O3_10 Mn1_10 1_555 1_555
N1_10 Mn1_10 1_555 1_555
N2_10 N1_10 1_555 1_555
O4_10 Mn1_10 1_555 1_555
C8_10 O3_10 1_555 1_555
C9_10 C8_10 1_555 1_555
H5_10 C9_10 1_555 1_555
H6_10 C9_10 1_555 1_555
C10_10 C9_10 1_555 1_555
H7_10 C10_10 1_555 1_555
H8_10 C10_10 1_555 1_555
H9_10 C10_10 1_555 1_555
N3_10 C11_10 1_555 1_555
C11_10 O4_10 1_555 1_555
H10_10 C11_10 1_555 1_555
C13_10 N3_10 1_555 1_555
H14_10 C13_10 1_555 1_555
H15_10 C13_10 1_555 1_555
H16_10 C13_10 1_555 1_555
O11_5 C20_10 1_555 1_555
O7_11 Mn2_10 1_555 1_555
N4_10 Mn2_10 1_555 1_555
N10_5 N4_10 1_555 1_555
H19_10 C17_10 1_555 1_555
C18_10 C17_10 1_555 1_555
H20_10 C18_10 1_555 1_555
C20_10 N4_10 1_555 1_555
C21_11 O7_11 1_555 1_555
C22_11 C21_11 1_555 1_555
H21_11 C22_11 1_555 1_555
H22_11 C22_11 1_555 1_555
C23_11 C22_11 1_555 1_555
H23_11 C23_11 1_555 1_555
H24_11 C23_11 1_555 1_555
H25_11 C23_11 1_555 1_555
Mn5_2 O8_10 1_555 1_555
O8_10 C30_10 1_555 1_555
O9_10 Mn1_10 1_555 1_555
O10_11 Mn5_2 1_555 1_555
N7_10 Mn5_2 1_555 1_555
N8_10 Mn1_10 1_555 1_555
C30_10 C31_10 1_555 1_555
C31_10 H32_10 1_555 1_555
C32_10 C31_10 1_555 1_555
H33_10 C32_10 1_555 1_555
C33_10 C32_10 1_555 1_555
H34_10 C33_10 1_555 1_555
C34_10 C33_10 1_555 1_555
H35_10 C34_10 1_555 1_555
C35_10 C30_10 1_555 1_555
C36_10 O9_10 1_555 1_555
C37_11 O10_11 1_555 1_555
C38_11 C37_11 1_555 1_555
H36_11 C38_11 1_555 1_555
H37_11 C38_11 1_555 1_555
C39_11 C38_11 1_555 1_555
H38_11 C39_11 1_555 1_555
H39_11 C39_11 1_555 1_555
H40_11 C39_11 1_555 1_555
N2_10 C8_10 1_555 1_555
N2_10 Mn2_10 1_555 1_555
N10_5 C21_11 1_555 1_555
C18_10 C19_10 1_555 1_555
C19_10 C20_10 1_555 1_555
N7_10 N8_10 1_555 1_555
N7_10 C36_10 1_555 1_555
N8_10 C37_11 1_555 1_555
C34_10 C35_10 1_555 1_555
C35_10 C36_10 1_555 1_555
C2_8 H1_8 1_555 1_555
C3_8 C2_8 1_555 1_555
H2_8 C3_8 1_555 1_555
C4_8 C3_8 1_555 1_555
H3_8 C4_8 1_555 1_555
C5_8 C4_8 1_555 1_555
H4_8 C5_8 1_555 1_555
C21_12 O7_12 1_555 1_555
C22_12 C21_12 1_555 1_555
H21_12 C22_12 1_555 1_555
H22_12 C22_12 1_555 1_555
C23_12 C22_12 1_555 1_555
H23_12 C23_12 1_555 1_555
H24_12 C23_12 1_555 1_555
H25_12 C23_12 1_555 1_555
H26_8 C24_8 1_555 1_555
C25_8 C24_8 1_555 1_555
H27_8 C25_8 1_555 1_555
C26_8 C25_8 1_555 1_555
C29_8 C26_8 1_555 1_555
H30_12 C29_8 1_555 1_555
H31_8 C29_8 1_555 1_555
N11_5 C40_12 1_555 1_555
C37_12 O10_12 1_555 1_555
C38_12 C37_12 1_555 1_555
H36_12 C38_12 1_555 1_555
H37_12 C38_12 1_555 1_555
C39_12 C38_12 1_555 1_555
H38_12 C39_12 1_555 1_555
H39_12 C39_12 1_555 1_555
H40_12 C39_12 1_555 1_555
C40_12 H41_10 1_555 1_555
C41_12 C40_12 1_555 1_555
H42_12 C41_12 1_555 1_555
C42_12 C41_12 1_555 1_555
C43_12 C42_12 1_555 1_555
H43_12 C43_12 1_555 1_555
C44_12 N11_5 1_555 1_555
H44_12 C44_12 1_555 1_555
C45_12 C29_8 1_555 1_555
H45_12 C45_12 1_555 1_555
H46_8 C45_12 1_555 1_555
C42_12 C45_12 1_555 1_555
C43_12 C44_12 1_555 1_555
Mn1_11 O1_11 1_555 1_555
O1_11 C1_7 1_555 1_555
O3_11 Mn1_11 1_555 1_555
N1_11 Mn1_11 1_555 1_555
N2_11 N1_11 1_555 1_555
O4_11 Mn1_11 1_555 1_555
C6_7 C1_7 1_555 1_555
C7_7 N1_11 1_555 1_555
C8_11 O3_11 1_555 1_555
H7_11 C10_11 1_555 1_555
H9_11 C10_11 1_555 1_555
N3_11 C11_11 1_555 1_555
C11_11 O4_11 1_555 1_555
H10_11 C11_11 1_555 1_555
C12_7 N3_11 1_555 1_555
H11_7 C12_7 1_555 1_555
H12_7 C12_7 1_555 1_555
H13_7 C12_7 1_555 1_555
C13_11 N3_11 1_555 1_555
H14_11 C13_11 1_555 1_555
H15_11 C13_11 1_555 1_555
H16_11 C13_11 1_555 1_555
O9_11 Mn1_11 1_555 1_555
N8_11 Mn1_11 1_555 1_555
C30_11 C31_11 1_555 1_555
C31_11 H32_11 1_555 1_555
C32_11 C31_11 1_555 1_555
H33_11 C32_11 1_555 1_555
C33_11 C32_11 1_555 1_555
H34_11 C33_11 1_555 1_555
C34_11 C33_11 1_555 1_555
H35_11 C34_11 1_555 1_555
C35_11 C30_11 1_555 1_555
C36_11 O9_11 1_555 1_555
N2_11 C8_11 1_555 1_555
C6_7 C7_7 1_555 1_555
N7_11 N8_11 1_555 1_555
N7_11 C36_11 1_555 1_555
C34_11 C35_11 1_555 1_555
C35_11 C36_11 1_555 1_555
C2_9 H1_9 1_555 1_555
C3_9 C2_9 1_555 1_555
H2_9 C3_9 1_555 1_555
C4_9 C3_9 1_555 1_555
H3_9 C4_9 1_555 1_555
C5_9 C4_9 1_555 1_555
H4_9 C5_9 1_555 1_555
Mn3_6 O8_11 1_555 1_555
O10_13 Mn3_6 1_555 1_555
C37_13 O10_13 1_555 1_555
C38_13 C37_13 1_555 1_555
H36_13 C38_13 1_555 1_555
H37_13 C38_13 1_555 1_555
C39_13 C38_13 1_555 1_555
H38_13 C39_13 1_555 1_555
H39_13 C39_13 1_555 1_555
H40_13 C39_13 1_555 1_555
O11_6 Mn3_6 1_555 1_555
N10_6 Mn3_6 1_555 1_555
N11_7 Mn3_6 1_555 1_555
H5_11 C9_11 1_555 1_555
H6_11 C9_11 1_555 1_555
Mn2_11 O2_7 1_555 1_555
O5_7 Mn2_11 1_555 1_555
O11_6 C20_11 1_555 1_555
N4_11 Mn2_11 1_555 1_555
N10_6 N4_11 1_555 1_555
N6_7 Mn2_11 1_555 1_555
C14_7 O5_7 1_555 1_555
C15_7 C14_7 1_555 1_555
H17_7 C15_7 1_555 1_555
C16_7 C15_7 1_555 1_555
H18_7 C16_7 1_555 1_555
C17_11 C16_7 1_555 1_555
H19_11 C17_11 1_555 1_555
C18_11 C17_11 1_555 1_555
H20_11 C18_11 1_555 1_555
C19_11 C14_7 1_555 1_555
C20_11 N4_11 1_555 1_555
H28_7 C27_7 1_555 1_555
C28_7 N6_7 1_555 1_555
H29_7 C28_7 1_555 1_555
C18_11 C19_11 1_555 1_555
C19_11 C20_11 1_555 1_555
C27_7 C28_7 1_555 1_555
O2_8 C7_8 1_555 1_555
C1_8 C2_10 1_555 1_555
C2_10 H1_10 1_555 1_555
C3_10 C2_10 1_555 1_555
H2_10 C3_10 1_555 1_555
C4_10 C3_10 1_555 1_555
H3_10 C4_10 1_555 1_555
C5_10 C4_10 1_555 1_555
H4_10 C5_10 1_555 1_555
C6_8 C1_8 1_555 1_555
H11_8 C12_8 1_555 1_555
H12_8 C12_8 1_555 1_555
H13_8 C12_8 1_555 1_555
C14_8 O5_8 1_555 1_555
C15_8 C14_8 1_555 1_555
H17_8 C15_8 1_555 1_555
C16_8 C15_8 1_555 1_555
H18_8 C16_8 1_555 1_555
C24_9 N6_8 1_555 1_555
H26_9 C24_9 1_555 1_555
C25_9 C24_9 1_555 1_555
H27_9 C25_9 1_555 1_555
C26_9 C25_9 1_555 1_555
C27_8 C26_9 1_555 1_555
H28_8 C27_8 1_555 1_555
C28_8 N6_8 1_555 1_555
H29_8 C28_8 1_555 1_555
C29_9 C26_9 1_555 1_555
H30_13 C29_9 1_555 1_555
H31_9 C29_9 1_555 1_555
N11_7 C40_13 1_555 1_555
C40_13 H41_11 1_555 1_555
C41_13 C40_13 1_555 1_555
H42_13 C41_13 1_555 1_555
C42_13 C41_13 1_555 1_555
C43_13 C42_13 1_555 1_555
H43_13 C43_13 1_555 1_555
C44_13 N11_7 1_555 1_555
H44_13 C44_13 1_555 1_555
C45_13 C29_9 1_555 1_555
H45_13 C45_13 1_555 1_555
H46_9 C45_13 1_555 1_555
C5_10 C6_8 1_555 1_555
C6_8 C7_8 1_555 1_555
C27_8 C28_8 1_555 1_555
C42_13 C45_13 1_555 1_555
C43_13 C44_13 1_555 1_555
H5_12 C9_12 1_555 1_555
H6_12 C9_12 1_555 1_555
Mn2_12 O2_9 1_555 1_555
O5_9 Mn2_12 1_555 1_555
O6_6 C20_12 1_555 1_555
N4_12 Mn2_12 1_555 1_555
N5_6 N4_12 1_555 1_555
N6_9 Mn2_12 1_555 1_555
C14_9 O5_9 1_555 1_555
C15_9 C14_9 1_555 1_555
H17_9 C15_9 1_555 1_555
C16_9 C15_9 1_555 1_555
H18_9 C16_9 1_555 1_555
C17_12 C16_9 1_555 1_555
H19_12 C17_12 1_555 1_555
C18_12 C17_12 1_555 1_555
H20_12 C18_12 1_555 1_555
C19_12 C14_9 1_555 1_555
C20_12 N4_12 1_555 1_555
H28_9 C27_9 1_555 1_555
C28_9 N6_9 1_555 1_555
H29_9 C28_9 1_555 1_555
Mn4_4 O6_6 1_555 1_555
N5_6 Mn4_4 1_555 1_555
C18_12 C19_12 1_555 1_555
C19_12 C20_12 1_555 1_555
C27_9 C28_9 1_555 1_555
O2_10 C7_9 1_555 1_555
C1_9 C2_11 1_555 1_555
C2_11 H1_11 1_555 1_555
C3_11 C2_11 1_555 1_555
H2_11 C3_11 1_555 1_555
C4_11 C3_11 1_555 1_555
H3_11 C4_11 1_555 1_555
C5_11 C4_11 1_555 1_555
H4_11 C5_11 1_555 1_555
C6_9 C1_9 1_555 1_555
H11_9 C12_9 1_555 1_555
H12_9 C12_9 1_555 1_555
H13_9 C12_9 1_555 1_555
C14_10 O5_10 1_555 1_555
C15_10 C14_10 1_555 1_555
H17_10 C15_10 1_555 1_555
C16_10 C15_10 1_555 1_555
H18_10 C16_10 1_555 1_555
C24_10 N6_10 1_555 1_555
H26_10 C24_10 1_555 1_555
C25_10 C24_10 1_555 1_555
H27_10 C25_10 1_555 1_555
C26_10 C25_10 1_555 1_555
C27_10 C26_10 1_555 1_555
H28_10 C27_10 1_555 1_555
C28_10 N6_10 1_555 1_555
H29_10 C28_10 1_555 1_555
C29_10 C26_10 1_555 1_555
H30_14 C29_10 1_555 1_555
H31_10 C29_10 1_555 1_555
N9_7 C40_14 1_555 1_555
C40_14 H41_12 1_555 1_555
C41_14 C40_14 1_555 1_555
H42_14 C41_14 1_555 1_555
C42_14 C41_14 1_555 1_555
C43_14 C42_14 1_555 1_555
H43_14 C43_14 1_555 1_555
C44_14 N9_7 1_555 1_555
H44_14 C44_14 1_555 1_555
C45_14 C29_10 1_555 1_555
H45_14 C45_14 1_555 1_555
H46_10 C45_14 1_555 1_555
Mn4_4 N9_7 1_555 1_555
C5_11 C6_9 1_555 1_555
C6_9 C7_9 1_555 1_555
C27_10 C28_10 1_555 1_555
C42_14 C45_14 1_555 1_555
C43_14 C44_14 1_555 1_555
C2_12 H1_12 1_555 1_555
C3_12 C2_12 1_555 1_555
H2_12 C3_12 1_555 1_555
C4_12 C3_12 1_555 1_555
H3_12 C4_12 1_555 1_555
C5_12 C4_12 1_555 1_555
H4_12 C5_12 1_555 1_555
Mn4_4 O8_12 1_555 1_555
O10_14 Mn4_4 1_555 1_555
C37_14 O10_14 1_555 1_555
C38_14 C37_14 1_555 1_555
H36_14 C38_14 1_555 1_555
H37_14 C38_14 1_555 1_555
C39_14 C38_14 1_555 1_555
H38_14 C39_14 1_555 1_555
H39_14 C39_14 1_555 1_555
H40_14 C39_14 1_555 1_555
C21_13 O7_13 1_555 1_555
C22_13 C21_13 1_555 1_555
H21_13 C22_13 1_555 1_555
H22_13 C22_13 1_555 1_555
C23_13 C22_13 1_555 1_555
H23_13 C23_13 1_555 1_555
H24_13 C23_13 1_555 1_555
H25_13 C23_13 1_555 1_555
H26_11 C24_11 1_555 1_555
C25_11 C24_11 1_555 1_555
H27_11 C25_11 1_555 1_555
C26_11 C25_11 1_555 1_555
C29_11 C26_11 1_555 1_555
H31_11 C29_11 1_555 1_555
Mn1_12 O1_12 1_555 1_555
O1_12 C1_10 1_555 1_555
O2_11 C7_10 1_555 1_555
O3_12 Mn1_12 1_555 1_555
N1_12 Mn1_12 1_555 1_555
N2_12 N1_12 1_555 1_555
O4_12 Mn1_12 1_555 1_555
C6_10 C1_10 1_555 1_555
C7_10 N1_12 1_555 1_555
C8_12 O3_12 1_555 1_555
C9_13 C8_12 1_555 1_555
H5_13 C9_13 1_555 1_555
H6_13 C9_13 1_555 1_555
C10_12 C9_13 1_555 1_555
H7_12 C10_12 1_555 1_555
N3_12 C11_12 1_555 1_555
C11_12 O4_12 1_555 1_555
H10_12 C11_12 1_555 1_555
C12_10 N3_12 1_555 1_555
H11_10 C12_10 1_555 1_555
H12_10 C12_10 1_555 1_555
H13_10 C12_10 1_555 1_555
C13_12 N3_12 1_555 1_555
H14_12 C13_12 1_555 1_555
H15_12 C13_12 1_555 1_555
H16_12 C13_12 1_555 1_555
Mn2_13 O2_11 1_555 1_555
O5_11 Mn2_13 1_555 1_555
O6_7 C20_13 1_555 1_555
N4_13 Mn2_13 1_555 1_555
N5_7 N4_13 1_555 1_555
N6_11 Mn2_13 1_555 1_555
C14_11 O5_11 1_555 1_555
C15_11 C14_11 1_555 1_555
H17_11 C15_11 1_555 1_555
C16_11 C15_11 1_555 1_555
H18_11 C16_11 1_555 1_555
C17_13 C16_11 1_555 1_555
H19_13 C17_13 1_555 1_555
C18_13 C17_13 1_555 1_555
H20_13 C18_13 1_555 1_555
C19_13 C14_11 1_555 1_555
C20_13 N4_13 1_555 1_555
H28_11 C27_11 1_555 1_555
C28_11 N6_11 1_555 1_555
H29_11 C28_11 1_555 1_555
O9_12 Mn1_12 1_555 1_555
N8_12 Mn1_12 1_555 1_555
H34_12 C33_12 1_555 1_555
C34_12 C33_12 1_555 1_555
H35_12 C34_12 1_555 1_555
C36_12 O9_12 1_555 1_555
Mn5_3 O6_7 1_555 1_555
N2_12 C8_12 1_555 1_555
N2_12 Mn2_13 1_555 1_555
C6_10 C7_10 1_555 1_555
N5_7 Mn5_3 1_555 1_555
C18_13 C19_13 1_555 1_555
C19_13 C20_13 1_555 1_555
C27_11 C28_11 1_555 1_555
N7_12 N8_12 1_555 1_555
N7_12 C36_12 1_555 1_555
C34_12 C35_12 1_555 1_555
C35_12 C36_12 1_555 1_555
Mn5_3 O8_13 1_555 1_555
H5_14 C9_14 1_555 1_555
H6_14 C9_14 1_555 1_555
Mn2_14 O2_12 1_555 1_555
O5_12 Mn2_14 1_555 1_555
O6_8 C20_14 1_555 1_555
O7_14 Mn2_14 1_555 1_555
N4_14 Mn2_14 1_555 1_555
N5_8 N4_14 1_555 1_555
N6_12 Mn2_14 1_555 1_555
C14_12 O5_12 1_555 1_555
C15_12 C14_12 1_555 1_555
H17_12 C15_12 1_555 1_555
C16_12 C15_12 1_555 1_555
H18_12 C16_12 1_555 1_555
C17_14 C16_12 1_555 1_555
H19_14 C17_14 1_555 1_555
C18_14 C17_14 1_555 1_555
H20_14 C18_14 1_555 1_555
C19_14 C14_12 1_555 1_555
C20_14 N4_14 1_555 1_555
C21_14 O7_14 1_555 1_555
C22_14 C21_14 1_555 1_555
H21_14 C22_14 1_555 1_555
H22_14 C22_14 1_555 1_555
C23_14 C22_14 1_555 1_555
H23_14 C23_14 1_555 1_555
H24_14 C23_14 1_555 1_555
H25_14 C23_14 1_555 1_555
C24_12 N6_12 1_555 1_555
H26_12 C24_12 1_555 1_555
C25_12 C24_12 1_555 1_555
H27_12 C25_12 1_555 1_555
C26_12 C25_12 1_555 1_555
C27_12 C26_12 1_555 1_555
H28_12 C27_12 1_555 1_555
C28_12 N6_12 1_555 1_555
H29_12 C28_12 1_555 1_555
C29_12 C26_12 1_555 1_555
H31_12 C29_12 1_555 1_555
Mn4_5 O6_8 1_555 1_555
N5_8 C21_14 1_555 1_555
N5_8 Mn4_5 1_555 1_555
C18_14 C19_14 1_555 1_555
C19_14 C20_14 1_555 1_555
C27_12 C28_12 1_555 1_555
O2_13 C7_11 1_555 1_555
C1_11 C2_13 1_555 1_555
C2_13 H1_13 1_555 1_555
C3_13 C2_13 1_555 1_555
H2_13 C3_13 1_555 1_555
C4_13 C3_13 1_555 1_555
H3_13 C4_13 1_555 1_555
C5_13 C4_13 1_555 1_555
H4_13 C5_13 1_555 1_555
C6_11 C1_11 1_555 1_555
H11_11 C12_11 1_555 1_555
H12_11 C12_11 1_555 1_555
H13_11 C12_11 1_555 1_555
C14_13 O5_13 1_555 1_555
C15_13 C14_13 1_555 1_555
H17_13 C15_13 1_555 1_555
C16_13 C15_13 1_555 1_555
H18_13 C16_13 1_555 1_555
C24_13 N6_13 1_555 1_555
H26_13 C24_13 1_555 1_555
C25_13 C24_13 1_555 1_555
H27_13 C25_13 1_555 1_555
C26_13 C25_13 1_555 1_555
C27_13 C26_13 1_555 1_555
H28_13 C27_13 1_555 1_555
C28_13 N6_13 1_555 1_555
H29_13 C28_13 1_555 1_555
C29_13 C26_13 1_555 1_555
H30_15 C29_13 1_555 1_555
H31_13 C29_13 1_555 1_555
N9_8 C40_15 1_555 1_555
C40_15 H41_14 1_555 1_555
C41_15 C40_15 1_555 1_555
H42_15 C41_15 1_555 1_555
C42_15 C41_15 1_555 1_555
C43_15 C42_15 1_555 1_555
H43_15 C43_15 1_555 1_555
C44_15 N9_8 1_555 1_555
H44_15 C44_15 1_555 1_555
C45_15 C29_13 1_555 1_555
H45_15 C45_15 1_555 1_555
H46_13 C45_15 1_555 1_555
Mn4_5 N9_8 1_555 1_555
C5_13 C6_11 1_555 1_555
C6_11 C7_11 1_555 1_555
C27_13 C28_13 1_555 1_555
C42_15 C45_15 1_555 1_555
C43_15 C44_15 1_555 1_555
Mn1_13 O1_13 1_555 1_555
O1_13 C1_12 1_555 1_555
O3_13 Mn1_13 1_555 1_555
N1_13 Mn1_13 1_555 1_555
N2_13 N1_13 1_555 1_555
O4_13 Mn1_13 1_555 1_555
C1_12 C2_14 1_555 1_555
C2_14 H1_14 1_555 1_555
C3_14 C2_14 1_555 1_555
H2_14 C3_14 1_555 1_555
C4_14 C3_14 1_555 1_555
H3_14 C4_14 1_555 1_555
C5_14 C4_14 1_555 1_555
H4_14 C5_14 1_555 1_555
C6_12 C1_12 1_555 1_555
C7_12 N1_13 1_555 1_555
C8_13 O3_13 1_555 1_555
H7_13 C10_13 1_555 1_555
H9_12 C10_13 1_555 1_555
N3_13 C11_13 1_555 1_555
C11_13 O4_13 1_555 1_555
H10_13 C11_13 1_555 1_555
C12_12 N3_13 1_555 1_555
H11_12 C12_12 1_555 1_555
H12_12 C12_12 1_555 1_555
H13_12 C12_12 1_555 1_555
C13_13 N3_13 1_555 1_555
H14_13 C13_13 1_555 1_555
H15_13 C13_13 1_555 1_555
H16_13 C13_13 1_555 1_555
Mn4_5 O8_14 1_555 1_555
O8_14 C30_12 1_555 1_555
O9_13 Mn1_13 1_555 1_555
O10_15 Mn4_5 1_555 1_555
N7_13 Mn4_5 1_555 1_555
N8_13 Mn1_13 1_555 1_555
C30_12 C31_12 1_555 1_555
C31_12 H32_12 1_555 1_555
C32_12 C31_12 1_555 1_555
H33_12 C32_12 1_555 1_555
C33_13 C32_12 1_555 1_555
H34_13 C33_13 1_555 1_555
C34_13 C33_13 1_555 1_555
H35_13 C34_13 1_555 1_555
C35_13 C30_12 1_555 1_555
C36_13 O9_13 1_555 1_555
C37_15 O10_15 1_555 1_555
C38_15 C37_15 1_555 1_555
H36_15 C38_15 1_555 1_555
H37_15 C38_15 1_555 1_555
C39_15 C38_15 1_555 1_555
H38_15 C39_15 1_555 1_555
H39_15 C39_15 1_555 1_555
H40_15 C39_15 1_555 1_555
N2_13 C8_13 1_555 1_555
C5_14 C6_12 1_555 1_555
C6_12 C7_12 1_555 1_555
N7_13 N8_13 1_555 1_555
N7_13 C36_13 1_555 1_555
N8_13 C37_15 1_555 1_555
C34_13 C35_13 1_555 1_555
C35_13 C36_13 1_555 1_555
Mn1_14 O1_14 1_555 1_555
O1_14 C1_13 1_555 1_555
O3_14 Mn1_14 1_555 1_555
N1_14 Mn1_14 1_555 1_555
N2_14 N1_14 1_555 1_555
O4_14 Mn1_14 1_555 1_555
C1_13 C2_15 1_555 1_555
C2_15 H1_15 1_555 1_555
C3_15 C2_15 1_555 1_555
H2_15 C3_15 1_555 1_555
C4_15 C3_15 1_555 1_555
H3_15 C4_15 1_555 1_555
C5_15 C4_15 1_555 1_555
H4_15 C5_15 1_555 1_555
C6_13 C1_13 1_555 1_555
C7_13 N1_14 1_555 1_555
C8_14 O3_14 1_555 1_555
H7_14 C10_14 1_555 1_555
H9_13 C10_14 1_555 1_555
N3_14 C11_14 1_555 1_555
C11_14 O4_14 1_555 1_555
H10_14 C11_14 1_555 1_555
C12_13 N3_14 1_555 1_555
H11_13 C12_13 1_555 1_555
H12_13 C12_13 1_555 1_555
H13_13 C12_13 1_555 1_555
C13_14 N3_14 1_555 1_555
H14_14 C13_14 1_555 1_555
H15_14 C13_14 1_555 1_555
H16_14 C13_14 1_555 1_555
Mn3_7 O8_15 1_555 1_555
O8_15 C30_13 1_555 1_555
O9_14 Mn1_14 1_555 1_555
O10_16 Mn3_7 1_555 1_555
N7_14 Mn3_7 1_555 1_555
N8_14 Mn1_14 1_555 1_555
C30_13 C31_13 1_555 1_555
C31_13 H32_13 1_555 1_555
C32_13 C31_13 1_555 1_555
H33_13 C32_13 1_555 1_555
C33_14 C32_13 1_555 1_555
H34_14 C33_14 1_555 1_555
C34_14 C33_14 1_555 1_555
H35_14 C34_14 1_555 1_555
C35_14 C30_13 1_555 1_555
C36_14 O9_14 1_555 1_555
C37_16 O10_16 1_555 1_555
C38_16 C37_16 1_555 1_555
H36_16 C38_16 1_555 1_555
H37_16 C38_16 1_555 1_555
C39_16 C38_16 1_555 1_555
H38_16 C39_16 1_555 1_555
H39_16 C39_16 1_555 1_555
H40_16 C39_16 1_555 1_555
O11_7 Mn3_7 1_555 1_555
N10_7 Mn3_7 1_555 1_555
N11_8 Mn3_7 1_555 1_555
N2_14 C8_14 1_555 1_555
C5_15 C6_13 1_555 1_555
C6_13 C7_13 1_555 1_555
N7_14 N8_14 1_555 1_555
N7_14 C36_14 1_555 1_555
N8_14 C37_16 1_555 1_555
C34_14 C35_14 1_555 1_555
C35_14 C36_14 1_555 1_555
H5_15 C9_15 1_555 1_555
H6_15 C9_15 1_555 1_555
Mn2_15 O2_14 1_555 1_555
O5_14 Mn2_15 1_555 1_555
O11_7 C20_15 1_555 1_555
O7_15 Mn2_15 1_555 1_555
N4_15 Mn2_15 1_555 1_555
N10_7 N4_15 1_555 1_555
N6_14 Mn2_15 1_555 1_555
C14_14 O5_14 1_555 1_555
C15_14 C14_14 1_555 1_555
H17_14 C15_14 1_555 1_555
C16_14 C15_14 1_555 1_555
H18_14 C16_14 1_555 1_555
C17_15 C16_14 1_555 1_555
H19_15 C17_15 1_555 1_555
C18_15 C17_15 1_555 1_555
H20_15 C18_15 1_555 1_555
C19_15 C14_14 1_555 1_555
C20_15 N4_15 1_555 1_555
C21_15 O7_15 1_555 1_555
C22_15 C21_15 1_555 1_555
H21_15 C22_15 1_555 1_555
H22_15 C22_15 1_555 1_555
C23_15 C22_15 1_555 1_555
H23_15 C23_15 1_555 1_555
H24_15 C23_15 1_555 1_555
H25_15 C23_15 1_555 1_555
C24_14 N6_14 1_555 1_555
H26_14 C24_14 1_555 1_555
C25_14 C24_14 1_555 1_555
H27_14 C25_14 1_555 1_555
C26_14 C25_14 1_555 1_555
C27_14 C26_14 1_555 1_555
H28_14 C27_14 1_555 1_555
C28_14 N6_14 1_555 1_555
H29_14 C28_14 1_555 1_555
C29_14 C26_14 1_555 1_555
H31_14 C29_14 1_555 1_555
N10_7 C21_15 1_555 1_555
C18_15 C19_15 1_555 1_555
C19_15 C20_15 1_555 1_555
C27_14 C28_14 1_555 1_555
O2_15 C7_14 1_555 1_555
C1_14 C2_16 1_555 1_555
C2_16 H1_16 1_555 1_555
C3_16 C2_16 1_555 1_555
H2_16 C3_16 1_555 1_555
C4_16 C3_16 1_555 1_555
H3_16 C4_16 1_555 1_555
C5_16 C4_16 1_555 1_555
H4_16 C5_16 1_555 1_555
C6_14 C1_14 1_555 1_555
H11_14 C12_14 1_555 1_555
H12_14 C12_14 1_555 1_555
H13_14 C12_14 1_555 1_555
C14_15 O5_15 1_555 1_555
C15_15 C14_15 1_555 1_555
H17_15 C15_15 1_555 1_555
C16_15 C15_15 1_555 1_555
H18_15 C16_15 1_555 1_555
C24_15 N6_15 1_555 1_555
H26_15 C24_15 1_555 1_555
C25_15 C24_15 1_555 1_555
H27_15 C25_15 1_555 1_555
C26_15 C25_15 1_555 1_555
C27_15 C26_15 1_555 1_555
H28_15 C27_15 1_555 1_555
C28_15 N6_15 1_555 1_555
H29_15 C28_15 1_555 1_555
C29_15 C26_15 1_555 1_555
H30_16 C29_15 1_555 1_555
H31_15 C29_15 1_555 1_555
N11_8 C40_16 1_555 1_555
C40_16 H41_15 1_555 1_555
C41_16 C40_16 1_555 1_555
H42_16 C41_16 1_555 1_555
C42_16 C41_16 1_555 1_555
C43_16 C42_16 1_555 1_555
H43_16 C43_16 1_555 1_555
C44_16 N11_8 1_555 1_555
H44_16 C44_16 1_555 1_555
C45_16 C29_15 1_555 1_555
H45_16 C45_16 1_555 1_555
H46_15 C45_16 1_555 1_555
C5_16 C6_14 1_555 1_555
C6_14 C7_14 1_555 1_555
C27_15 C28_15 1_555 1_555
C42_16 C45_16 1_555 1_555
C43_16 C44_16 1_555 1_555
Mn3_8 O8_16 1_555 1_555
O11_8 Mn3_8 1_555 1_555
N10_8 Mn3_8 1_555 1_555
Mn1_15 O1_15 1_555 1_555
O1_15 C1_15 1_555 1_555
O2_16 C7_15 1_555 1_555
O3_15 Mn1_15 1_555 1_555
N1_15 Mn1_15 1_555 1_555
N2_15 N1_15 1_555 1_555
O4_15 Mn1_15 1_555 1_555
C6_15 C1_15 1_555 1_555
C7_15 N1_15 1_555 1_555
C8_15 O3_15 1_555 1_555
C9_16 C8_15 1_555 1_555
H5_16 C9_16 1_555 1_555
H6_16 C9_16 1_555 1_555
C10_15 C9_16 1_555 1_555
H7_15 C10_15 1_555 1_555
N3_15 C11_15 1_555 1_555
C11_15 O4_15 1_555 1_555
H10_15 C11_15 1_555 1_555
C12_15 N3_15 1_555 1_555
H11_15 C12_15 1_555 1_555
H12_15 C12_15 1_555 1_555
H13_15 C12_15 1_555 1_555
C13_15 N3_15 1_555 1_555
H14_15 C13_15 1_555 1_555
H15_15 C13_15 1_555 1_555
H16_15 C13_15 1_555 1_555
Mn2_16 O2_16 1_555 1_555
O5_16 Mn2_16 1_555 1_555
O11_8 C20_16 1_555 1_555
N4_16 Mn2_16 1_555 1_555
N10_8 N4_16 1_555 1_555
N6_16 Mn2_16 1_555 1_555
C14_16 O5_16 1_555 1_555
C15_16 C14_16 1_555 1_555
H17_16 C15_16 1_555 1_555
C16_16 C15_16 1_555 1_555
H18_16 C16_16 1_555 1_555
C17_16 C16_16 1_555 1_555
H19_16 C17_16 1_555 1_555
C18_16 C17_16 1_555 1_555
H20_16 C18_16 1_555 1_555
C19_16 C14_16 1_555 1_555
C20_16 N4_16 1_555 1_555
H28_16 C27_16 1_555 1_555
C28_16 N6_16 1_555 1_555
H29_16 C28_16 1_555 1_555
O9_15 Mn1_15 1_555 1_555
N8_15 Mn1_15 1_555 1_555
H34_15 C33_15 1_555 1_555
C34_15 C33_15 1_555 1_555
H35_15 C34_15 1_555 1_555
C36_15 O9_15 1_555 1_555
N2_15 C8_15 1_555 1_555
N2_15 Mn2_16 1_555 1_555
C6_15 C7_15 1_555 1_555
C18_16 C19_16 1_555 1_555
C19_16 C20_16 1_555 1_555
C27_16 C28_16 1_555 1_555
N7_15 N8_15 1_555 1_555
N7_15 C36_15 1_555 1_555
C34_15 C35_15 1_555 1_555
C35_15 C36_15 1_555 1_555
C30_14 C31_14 1_555 1_555
C31_14 H32_14 1_555 1_555
C32_14 C31_14 1_555 1_555
H33_14 C32_14 1_555 1_555
C21_16 O7_16 1_555 1_555
C22_16 C21_16 1_555 1_555
H21_16 C22_16 1_555 1_555
H22_16 C22_16 1_555 1_555
C23_16 C22_16 1_555 1_555
H23_16 C23_16 1_555 1_555
H24_16 C23_16 1_555 1_555
H25_16 C23_16 1_555 1_555
H26_16 C24_16 1_555 1_555
C25_16 C24_16 1_555 1_555
H27_16 C25_16 1_555 1_555
C26_16 C25_16 1_555 1_555
C29_16 C26_16 1_555 1_555
H31_16 C29_16 1_555 1_555
Mn1_16 O1_16 1_555 1_555
O1_16 C1_16 1_555 1_555
O3_16 Mn1_16 1_555 1_555
N1_16 Mn1_16 1_555 1_555
N2_16 N1_16 1_555 1_555
O4_16 Mn1_16 1_555 1_555
C6_16 C1_16 1_555 1_555
C7_16 N1_16 1_555 1_555
C8_16 O3_16 1_555 1_555
H7_16 C10_16 1_555 1_555
H9_15 C10_16 1_555 1_555
N3_16 C11_16 1_555 1_555
C11_16 O4_16 1_555 1_555
H10_16 C11_16 1_555 1_555
C12_16 N3_16 1_555 1_555
H11_16 C12_16 1_555 1_555
H12_16 C12_16 1_555 1_555
H13_16 C12_16 1_555 1_555
C13_16 N3_16 1_555 1_555
H14_16 C13_16 1_555 1_555
H15_16 C13_16 1_555 1_555
H16_16 C13_16 1_555 1_555
O9_16 Mn1_16 1_555 1_555
N8_16 Mn1_16 1_555 1_555
C30_15 C31_15 1_555 1_555
C31_15 H32_15 1_555 1_555
C32_15 C31_15 1_555 1_555
H33_15 C32_15 1_555 1_555
C33_16 C32_15 1_555 1_555
H34_16 C33_16 1_555 1_555
C34_16 C33_16 1_555 1_555
H35_16 C34_16 1_555 1_555
C35_16 C30_15 1_555 1_555
C36_16 O9_16 1_555 1_555
N2_16 C8_16 1_555 1_555
C6_16 C7_16 1_555 1_555
N7_16 N8_16 1_555 1_555
N7_16 C36_16 1_555 1_555
C34_16 C35_16 1_555 1_555
C35_16 C36_16 1_555 1_555
C30_16 C31_16 1_555 1_555
C31_16 H32_16 1_555 1_555
C32_16 C31_16 1_555 1_555
H33_16 C32_16 1_555 1_555

#END
